
###############################################################################
#
# This file contains modified crystal structure data generated from the
# MOF subset of the Cambridge Structural Database (CSD) v543 
# hosted by the Cambridge Crystallographic Data Centre (CCDC).
#
# This work is licensed under the Creative Commons
# Attribution-NonCommercial-ShareAlike 4.0 International License.
# To view a copy of this license, visit
# http://creativecommons.org/licenses/by-nc-sa/4.0/
# or send a letter to
# Creative Commons, PO Box 1866, Mountain View, CA 94042, USA.
#
# CIF created using the CSD Python API on 29 September 2022
# The structure has been converted into the P1 space group
# The structure has a 3D framework
# The original CSD entry GEWSEJ is in the triclinic crystal system
# The framework has been calculated to contain at least 10.0% void space
# The void calculation uses a probe of radius 1.32A, grid spacing 0.4
#
###############################################################################

data_GEWSEJ
_chemical_formula_moiety         '(C42 H34 Er4 N2 O18)n'
_symmetry_cell_setting           triclinic
_symmetry_space_group_name_H-M   'P 1'
_symmetry_Int_Tables_number      1
_space_group_name_Hall           'P 1'
loop_
_symmetry_equiv_pos_site_id
_symmetry_equiv_pos_as_xyz
1 x,y,z
_cell_length_a                   7.1413(9)
_cell_length_b                   15.1598(17)
_cell_length_c                   15.7643(18)
_cell_angle_alpha                64.812(2)
_cell_angle_beta                 79.340(2)
_cell_angle_gamma                81.286(2)
_cell_volume                     1512.64
loop_
_atom_site_label
_atom_site_type_symbol
_atom_site_fract_x
_atom_site_fract_y
_atom_site_fract_z
O8 O 0.0056(6) 0.8858(3) 0.2555(3)
H16 H 0.108(6) 0.847(4) 0.262(5)
O11 O 0.1395(5) 0.9877(2) 0.0500(2)
O14 O 0.0938(5) 0.7908(2) 0.1317(2)
H1 H 0.1581 0.0291 0.0809
H2 H 0.4667 0.0073 0.1339
Er9 Er 0.15212(3) 0.082930(15) 0.883723(15)
O17 O 0.8014(6) 0.0471(3) 0.1621(4)
Er5 Er 0.59914(3) 0.126908(15) 0.939111(15)
O12 O 0.8605(5) 0.0123(2) 0.9500(2)
O15 O 0.4603(4) 0.0102(2) 0.9166(2)
Er3 Er 0.40086(3) 0.873092(15) 0.060889(15)
Er2 Er 0.84788(3) 0.917070(15) 0.116277(15)
O2 O 0.6621(5) 0.8248(2) 0.2541(2)
O4 O 0.5397(4) 0.9898(2) 0.0834(2)
O6 O 0.3756(5) 0.8144(3) 0.2263(2)
C2 C 0.2641(8) 0.7046(4) 0.4201(4)
H3 H 0.1863 0.7056 0.3784
C3 C 0.4966(7) 0.7987(4) 0.2803(3)
O7 O 0.1986(6) 0.9529(3) 0.8379(4)
C5 C 0.2384(8) 0.8460(4) 0.7267(4)
H4 H 0.2200 0.9137 0.6955
C6 C 0.4374(8) 0.7452(4) 0.3847(4)
C7 C 0.2102(9) 0.4602(4) 0.7073(4)
H5 H 0.3259 0.4580 0.6695
C8 C 0.3166(9) 0.6618(4) 0.5790(4)
C9 C 0.2967(9) 0.7031(4) 0.8648(4)
H6 H 0.3201 0.6743 0.9274
C10 C 0.2680(8) 0.8042(4) 0.8198(4)
C11 C 0.2609(8) 0.6868(4) 0.7246(4)
C12 C 0.2039(9) 0.6626(4) 0.5163(4)
H7 H 0.0875 0.6347 0.5388
N1 N 0.2544(8) 0.6268(3) 0.6773(3)
C13 C 0.5561(8) 0.7391(4) 0.4485(4)
H8 H 0.6751 0.7642 0.4262
C14 C 0.1454(8) 0.5439(4) 0.7207(4)
C15 C 0.2912(9) 0.6451(4) 0.8185(4)
H9 H 0.3078 0.5774 0.8503
O9 O 0.7151(5) 0.8255(2) 0.0606(2)
O10 O 0.3416(8) 0.8279(3) 0.9478(3)
C16 C 0.1063(8) 0.3798(4) 0.7490(4)
H11 H 0.1537 0.3236 0.7396
C17 C 0.2680(8) 0.8677(4) 0.8724(4)
C20 C 0.2359(9) 0.7877(4) 0.6791(4)
H14 H 0.2173 0.8168 0.6158
C21 C 0.4978(9) 0.6964(4) 0.5434(4)
H15 H 0.5802 0.6902 0.5853
H17 H 0.967(10) 0.914(4) 0.291(4)
O16 O 0.3584(5) 0.6961(3) 0.1296(3)
H10 H 0.7751 0.8366 0.9968
O3 O 0.9062(5) 0.2092(2) 0.8683(2)
O5 O 0.6416(5) 0.3039(3) 0.8704(3)
C1 C 0.8175(8) 0.2942(3) 0.8496(4)
C4 C 0.9320(8) 0.3806(3) 0.8048(4)
C18 C 0.9716(10) 0.5455(4) 0.7773(4)
H12 H 0.9264 0.6014 0.7875
C19 C 0.8650(9) 0.4648(4) 0.8185(4)
H13 H 0.7483 0.4672 0.8554
C1_2 C 0.1825(8) 0.7058(3) 0.1504(4)
C4_2 C 0.0680(8) 0.6194(3) 0.1952(4)
C18_2 C 0.0284(10) 0.4545(4) 0.2227(4)
H12_2 H 0.0736 0.3986 0.2125
C19_2 C 0.1350(9) 0.5352(4) 0.1815(4)
H13_2 H 0.2517 0.5328 0.1446
H10_2 H 0.2249 0.1634 0.0032
O18 O 0.6584(8) 0.1721(3) 0.0522(3)
O2_2 O 0.3379(5) 0.1752(2) 0.7459(2)
O6_2 O 0.6244(5) 0.1856(3) 0.7737(2)
C2_2 C 0.7359(8) 0.2954(4) 0.5799(4)
H3_2 H 0.8137 0.2944 0.6216
C3_2 C 0.5034(7) 0.2013(4) 0.7197(3)
C5_2 C 0.7616(8) 0.1540(4) 0.2733(4)
H4_2 H 0.7800 0.0863 0.3045
C6_2 C 0.5626(8) 0.2548(4) 0.6153(4)
C7_2 C 0.7898(9) 0.5398(4) 0.2927(4)
H5_2 H 0.6741 0.5420 0.3305
C8_2 C 0.6834(9) 0.3382(4) 0.4210(4)
C9_2 C 0.7033(9) 0.2969(4) 0.1352(4)
H6_2 H 0.6799 0.3257 0.0726
C10_2 C 0.7320(8) 0.1958(4) 0.1802(4)
C11_2 C 0.7391(8) 0.3132(4) 0.2754(4)
C12_2 C 0.7961(9) 0.3374(4) 0.4837(4)
H7_2 H 0.9125 0.3653 0.4612
N1_2 N 0.7456(8) 0.3732(3) 0.3227(3)
C13_2 C 0.4439(8) 0.2609(4) 0.5515(4)
H8_2 H 0.3249 0.2358 0.5738
C14_2 C 0.8546(8) 0.4561(4) 0.2793(4)
C15_2 C 0.7088(9) 0.3549(4) 0.1815(4)
H9_2 H 0.6922 0.4226 0.1497
O9_2 O 0.2849(5) 0.1745(2) 0.9394(2)
C16_2 C 0.8937(8) 0.6202(4) 0.2510(4)
H11_2 H 0.8463 0.6764 0.2604
C17_2 C 0.7320(8) 0.1323(4) 0.1276(4)
C20_2 C 0.7641(9) 0.2123(4) 0.3209(4)
H14_2 H 0.7827 0.1832 0.3842
C21_2 C 0.5022(9) 0.3036(4) 0.4566(4)
H15_2 H 0.4198 0.3098 0.4147
H17_2 H 0.033(10) 0.086(4) 0.709(4)
H1_2 H 0.8419 0.9709 0.9191
H2_2 H 0.5333 0.9927 0.8661
O8_2 O 0.9944(6) 0.1142(3) 0.7445(3)
H16_2 H 0.892(6) 0.153(4) 0.738(5)
loop_
_geom_bond_atom_site_label_1
_geom_bond_atom_site_label_2
_geom_bond_site_symmetry_1
_geom_bond_site_symmetry_2
H16 O8 1_555 1_555
Er5 O12 1_555 1_555
Er5 O15 1_555 1_555
Er9 O15 1_555 1_555
Er3 O11 1_555 1_555
Er2 O2 1_555 1_555
O2 C3 1_555 1_555
O4 Er3 1_555 1_555
O6 Er3 1_555 1_555
C2 H3 1_555 1_555
C3 O6 1_555 1_555
O7 C17 1_555 1_555
C5 H4 1_555 1_555
C6 C2 1_555 1_555
C7 H5 1_555 1_555
C8 C12 1_555 1_555
C9 H6 1_555 1_555
C10 C5 1_555 1_555
C11 N1 1_555 1_555
C12 C2 1_555 1_555
H7 C12 1_555 1_555
N1 C8 1_555 1_555
C13 C6 1_555 1_555
H8 C13 1_555 1_555
C14 C7 1_555 1_555
C15 C9 1_555 1_555
H9 C15 1_555 1_555
O9 Er3 1_555 1_555
O10 C17 1_555 1_555
C16 C7 1_555 1_555
H11 C16 1_555 1_555
C17 C10 1_555 1_555
C20 C5 1_555 1_555
H14 C20 1_555 1_555
C21 C8 1_555 1_555
H15 C21 1_555 1_555
O14 Er3 1_555 1_555
O16 Er3 1_555 1_555
Er2 O4 1_555 1_555
Er2 O9 1_555 1_555
C3 C6 1_555 1_555
C9 C10 1_555 1_555
C11 C15 1_555 1_555
C11 C20 1_555 1_555
N1 C14 1_555 1_555
C13 C21 1_555 1_555
O3 C1 1_555 1_555
O5 C1 1_555 1_555
C1 C4 1_555 1_555
H12 C18 1_555 1_555
C19 C4 1_555 1_555
H13 C19 1_555 1_555
Er5 O3 1_555 1_555
O5 Er5 1_555 1_555
C18 C19 1_555 1_555
O14 C1_2 1_555 1_555
O16 C1_2 1_555 1_555
C1_2 C4_2 1_555 1_555
H12_2 C18_2 1_555 1_555
C19_2 C4_2 1_555 1_555
H13_2 C19_2 1_555 1_555
C18_2 C19_2 1_555 1_555
Er9 O2_2 1_555 1_555
O2_2 C3_2 1_555 1_555
O6_2 Er5 1_555 1_555
C2_2 H3_2 1_555 1_555
C3_2 O6_2 1_555 1_555
O17 C17_2 1_555 1_555
C5_2 H4_2 1_555 1_555
C6_2 C2_2 1_555 1_555
C7_2 H5_2 1_555 1_555
C8_2 C12_2 1_555 1_555
C9_2 H6_2 1_555 1_555
C10_2 C5_2 1_555 1_555
C11_2 N1_2 1_555 1_555
C12_2 C2_2 1_555 1_555
H7_2 C12_2 1_555 1_555
N1_2 C8_2 1_555 1_555
C13_2 C6_2 1_555 1_555
H8_2 C13_2 1_555 1_555
C14_2 C7_2 1_555 1_555
C15_2 C9_2 1_555 1_555
H9_2 C15_2 1_555 1_555
O9_2 Er5 1_555 1_555
O18 C17_2 1_555 1_555
C16_2 C7_2 1_555 1_555
H11_2 C16_2 1_555 1_555
C17_2 C10_2 1_555 1_555
C20_2 C5_2 1_555 1_555
H14_2 C20_2 1_555 1_555
C21_2 C8_2 1_555 1_555
H15_2 C21_2 1_555 1_555
Er9 O9_2 1_555 1_555
C3_2 C6_2 1_555 1_555
C9_2 C10_2 1_555 1_555
C11_2 C15_2 1_555 1_555
C11_2 C20_2 1_555 1_555
N1_2 C14_2 1_555 1_555
C13_2 C21_2 1_555 1_555
H16_2 O8_2 1_555 1_555

#END
