
###############################################################################
#
# This file contains modified crystal structure data generated from the
# MOF subset of the Cambridge Structural Database (CSD) v543 
# hosted by the Cambridge Crystallographic Data Centre (CCDC).
#
# This work is licensed under the Creative Commons
# Attribution-NonCommercial-ShareAlike 4.0 International License.
# To view a copy of this license, visit
# http://creativecommons.org/licenses/by-nc-sa/4.0/
# or send a letter to
# Creative Commons, PO Box 1866, Mountain View, CA 94042, USA.
#
# CIF created using the CSD Python API on 29 September 2022
# The structure has been converted into the P1 space group
# The structure has a 3D framework
# The original CSD entry GEXNUV is in the triclinic crystal system
# The framework has been calculated to contain at least 10.0% void space
# The void calculation uses a probe of radius 1.32A, grid spacing 0.4
#
###############################################################################

data_GEXNUV
_chemical_formula_moiety         '(C92 H72 Co11 N10 O26 S4)n'
_symmetry_cell_setting           triclinic
_symmetry_space_group_name_H-M   'P 1'
_symmetry_Int_Tables_number      1
_space_group_name_Hall           'P 1'
loop_
_symmetry_equiv_pos_site_id
_symmetry_equiv_pos_as_xyz
1 x,y,z
_cell_length_a                   12.171(6)
_cell_length_b                   13.199(6)
_cell_length_c                   19.633(9)
_cell_angle_alpha                82.572(11)
_cell_angle_beta                 72.417(9)
_cell_angle_gamma                64.969(9)
_cell_volume                     2724.21
loop_
_atom_site_label
_atom_site_type_symbol
_atom_site_fract_x
_atom_site_fract_y
_atom_site_fract_z
Co11 Co 0.500000 -0.000000 0.500000
Co3 Co 0.000000 0.000000 0.000000
S1 S 0.71139(17) 0.42694(13) 0.67644(9)
S2 S 0.3380(2) 0.38408(15) 0.11854(11)
O1 O 0.6779(4) 0.8659(3) 0.4529(2)
O2 O 0.8818(4) 0.7858(3) 0.4375(2)
O3 O 0.5900(4) 0.4774(4) 0.7274(2)
O4 O 0.8227(5) 0.3755(4) 0.7006(2)
O5 O 0.5812(4) 0.1017(3) 0.5085(2)
O6 O 0.7912(4) 0.0261(3) 0.4633(2)
O7 O 0.6610(4) 0.0743(3) 0.3443(2)
O8 O 0.4761(4) 0.0651(3) 0.4012(2)
O9 O 0.4373(5) 0.4053(4) 0.0667(3)
O10 O 0.2220(6) 0.4755(4) 0.1488(3)
O11 O 0.0923(4) 0.0892(4) 0.0145(2)
N5 N 0.1021(5) 0.0245(4) 0.2767(3)
C1 C 0.7740(6) 0.7878(5) 0.4674(3)
C2 C 0.7592(6) 0.6968(5) 0.5165(3)
C3 C 0.8599(6) 0.6218(5) 0.5419(3)
H3 H 0.938385 0.628501 0.526522
C4 C 0.8469(6) 0.5386(5) 0.5888(3)
H4 H 0.916025 0.487495 0.605652
C5 C 0.7316(6) 0.5296(5) 0.6116(3)
C6 C 0.6300(6) 0.6021(5) 0.5869(3)
H5 H 0.551626 0.595146 0.602238
C7 C 0.6460(6) 0.6849(5) 0.5393(3)
H6 H 0.577362 0.735079 0.521802
C8 C 0.7067(6) 0.3268(5) 0.6270(3)
C9 C 0.5927(7) 0.3186(5) 0.6367(4)
H7 H 0.518259 0.365586 0.669890
C10 C 0.5897(6) 0.2409(5) 0.5971(3)
H8 H 0.512455 0.234223 0.603650
C11 C 0.6977(6) 0.1726(5) 0.5481(3)
C12 C 0.8107(6) 0.1809(5) 0.5405(3)
H9 H 0.885459 0.133364 0.507712
C13 C 0.8159(6) 0.2574(5) 0.5799(3)
H10 H 0.893759 0.262199 0.574589
C14 C 0.6900(6) 0.0928(5) 0.5036(3)
C15 C 0.5471(6) 0.0979(5) 0.3517(3)
C16 C 0.4918(6) 0.1706(5) 0.2940(3)
C17 C 0.3643(7) 0.2116(6) 0.3013(4)
H11 H 0.310311 0.192818 0.342110
C18 C 0.3157(7) 0.2801(6) 0.2490(4)
H12 H 0.227511 0.311358 0.254145
C19 C 0.3977(7) 0.3028(5) 0.1884(4)
C20 C 0.5242(7) 0.2591(6) 0.1799(4)
H13 H 0.579223 0.273593 0.137709
C21 C 0.5713(6) 0.1933(6) 0.2338(3)
H14 H 0.659198 0.163489 0.229155
C22 C 0.3011(7) 0.2916(6) 0.0812(4)
C23 C 0.1782(7) 0.3033(5) 0.0995(4)
H15 H 0.114028 0.361347 0.131022
C24 C 0.1486(6) 0.2308(5) 0.0721(3)
H16 H 0.063950 0.237805 0.085148
C25 C 0.2422(6) 0.1470(5) 0.0254(3)
C26 C 0.3643(7) 0.1359(6) 0.0079(3)
C27 C 0.3949(7) 0.2078(6) 0.0358(4)
H18 H 0.479876 0.199705 0.023767
C43 C 0.2267(6) 0.0170(6) 0.2720(4)
H32 H 0.235286 0.014518 0.320853
H33 H 0.236127 0.084650 0.247942
C44 C 0.0474(6) 0.0495(5) 0.2211(4)
H34 H 0.076258 0.077171 0.175142
Co6 Co 0.79431(8) 0.94022(7) 0.37822(4)
Co11_2 Co 0.500000 1.000000 0.500000
O29 O 0.3221(4) 0.1341(3) 0.5471(2)
Co3_2 Co 0.000000 0.000000 1.000000
H17 H 0.428590 0.078126 0.976300
C28 C 0.2069(7) 0.0700(5) 0.9941(3)
N12 N 0.0648(5) 0.0135(4) 0.6862(3)
H55 H 0.047305 0.171792 0.866031
Co8 Co 0.20569(8) 0.05978(7) 0.62178(4)
Co3_3 Co 0.000000 1.000000 0.000000
N1 N 0.0956(5) 0.8662(4) 0.0625(3)
N2 N 0.2419(5) 0.7379(4) 0.1089(3)
N3 N 0.7397(5) 0.7856(4) 0.2186(3)
N4 N 0.7971(5) 0.8398(4) 0.2994(3)
C29 C 0.0402(6) 0.8125(5) 0.1183(3)
C30 C 0.1284(6) 0.7347(5) 0.1472(3)
H20 H 0.114802 0.687004 0.186413
C31 C 0.2162(6) 0.8187(5) 0.0592(3)
H21 H 0.278258 0.839094 0.025685
C32 C 0.3640(6) 0.6771(5) 0.1246(3)
H22 H 0.430587 0.647019 0.079629
H23 H 0.361260 0.613212 0.156535
C33 C 0.3962(6) 0.7520(5) 0.1598(3)
C34 C 0.3033(6) 0.8403(5) 0.2021(4)
H24 H 0.217830 0.851013 0.211639
C35 C 0.3310(6) 0.9137(5) 0.2310(3)
C36 C 0.4567(6) 0.8938(5) 0.2193(3)
H25 H 0.477175 0.943101 0.239425
C37 C 0.5516(6) 0.8051(5) 0.1796(3)
C38 C 0.5212(6) 0.7340(5) 0.1494(3)
H26 H 0.586782 0.672442 0.121361
C39 C 0.6879(6) 0.7921(6) 0.1599(3)
H27 H 0.741413 0.723583 0.130748
H28 H 0.694498 0.856244 0.129274
C40 C 0.8186(7) 0.6914(6) 0.2452(4)
H29 H 0.844994 0.616591 0.231194
C41 C 0.8518(7) 0.7249(6) 0.2950(4)
H30 H 0.905035 0.676395 0.322981
C42 C 0.7309(6) 0.8725(6) 0.2523(3)
H31 H 0.682628 0.948592 0.243219
C46 C 0.0309(6) 0.9880(5) 0.3301(3)
H36 H 0.047564 0.965395 0.375208
O32 O 0.4188(4) 0.8983(3) 0.4915(2)
O33 O 0.5239(4) 0.9349(3) 0.5988(2)
N13 N 0.9352(5) 0.9865(4) 0.3138(3)
Co3_4 Co 1.000000 0.000000 1.000000
N7 N 0.9044(5) 0.1338(4) 0.9375(3)
N8 N 0.7581(5) 0.2621(4) 0.8911(3)
N9 N 0.2603(5) 0.2144(4) 0.7814(3)
N10 N 0.2029(5) 0.1602(4) 0.7006(3)
C75 C 0.9598(6) 0.1875(5) 0.8817(3)
C76 C 0.8716(6) 0.2653(5) 0.8528(3)
H56 H 0.885198 0.312996 0.813587
C77 C 0.7838(6) 0.1813(5) 0.9408(3)
H57 H 0.721742 0.160906 0.974315
C78 C 0.6360(6) 0.3229(5) 0.8754(3)
H58 H 0.569413 0.352981 0.920371
H59 H 0.638740 0.386788 0.843465
C79 C 0.6038(6) 0.2480(5) 0.8402(3)
C80 C 0.6967(6) 0.1597(5) 0.7979(4)
H60 H 0.782170 0.148987 0.788361
C81 C 0.6690(6) 0.0863(5) 0.7690(3)
C82 C 0.5433(6) 0.1062(5) 0.7807(3)
H61 H 0.522825 0.056899 0.760575
C83 C 0.4484(6) 0.1949(5) 0.8204(3)
C84 C 0.4788(6) 0.2660(5) 0.8506(3)
H62 H 0.413218 0.327558 0.878639
C85 C 0.3121(6) 0.2079(6) 0.8401(3)
H63 H 0.258587 0.276417 0.869252
H64 H 0.305502 0.143756 0.870726
C86 C 0.1814(7) 0.3086(6) 0.7548(4)
H65 H 0.155006 0.383409 0.768806
C87 C 0.1482(7) 0.2751(6) 0.7050(4)
H66 H 0.094965 0.323605 0.677019
C88 C 0.2691(6) 0.1275(6) 0.7477(3)
H67 H 0.317372 0.051408 0.756781
C92 C 0.9691(6) 0.0120(5) 0.6699(3)
H72 H 0.952436 0.034605 0.624792
O31 O 0.1182(4) 0.2142(3) 0.5625(2)
Co3_5 Co 1.000000 1.000000 0.000000
H19 H 0.952695 0.828208 0.133969
H53 H 0.571410 0.921874 0.023700
C74 C 0.7931(7) 0.9300(5) 0.0059(3)
Co3_6 Co 1.000000 1.000000 1.000000
S3 S 0.28861(17) 0.57306(13) 0.32356(9)
S4 S 0.6620(2) 0.61592(15) 0.88146(11)
O16 O 0.4100(4) 0.5226(4) 0.2726(2)
O17 O 0.1773(5) 0.6245(4) 0.2994(2)
O19 O 0.2088(4) 0.9739(3) 0.5367(2)
O20 O 0.3390(4) 0.9257(3) 0.6557(2)
O22 O 0.5627(5) 0.5947(4) 0.9333(3)
O23 O 0.7780(6) 0.5245(4) 0.8512(3)
O24 O 0.9077(4) 0.9108(4) 0.9855(2)
N11 N 0.8979(5) 0.9755(4) 0.7233(3)
C47 C 0.2260(6) 0.2122(5) 0.5326(3)
C48 C 0.2408(6) 0.3032(5) 0.4835(3)
C49 C 0.1401(6) 0.3782(5) 0.4581(3)
H39 H 0.061615 0.371499 0.473478
C50 C 0.1531(6) 0.4614(5) 0.4112(3)
H40 H 0.083975 0.512505 0.394348
C51 C 0.2684(6) 0.4704(5) 0.3884(3)
C52 C 0.3700(6) 0.3979(5) 0.4131(3)
H41 H 0.448374 0.404854 0.397762
C53 C 0.3540(6) 0.3151(5) 0.4607(3)
H42 H 0.422638 0.264921 0.478198
C54 C 0.2933(6) 0.6732(5) 0.3730(3)
C55 C 0.4073(7) 0.6814(5) 0.3633(4)
H43 H 0.481741 0.634414 0.330110
C56 C 0.4103(6) 0.7591(5) 0.4029(3)
H44 H 0.487545 0.765777 0.396350
C57 C 0.3023(6) 0.8274(5) 0.4519(3)
C58 C 0.1893(6) 0.8191(5) 0.4595(3)
H45 H 0.114541 0.866636 0.492288
C59 C 0.1841(6) 0.7426(5) 0.4201(3)
H46 H 0.106241 0.737801 0.425411
C60 C 0.3100(6) 0.9072(5) 0.4964(3)
C61 C 0.4529(6) 0.9021(5) 0.6483(3)
C62 C 0.5082(6) 0.8294(5) 0.7060(3)
C63 C 0.6357(7) 0.7884(6) 0.6987(4)
H47 H 0.689689 0.807182 0.657890
C64 C 0.6843(7) 0.7199(6) 0.7510(4)
H48 H 0.772489 0.688642 0.745855
C65 C 0.6023(7) 0.6972(5) 0.8116(4)
C66 C 0.4758(7) 0.7409(6) 0.8201(4)
H49 H 0.420777 0.726407 0.862291
C67 C 0.4287(6) 0.8067(6) 0.7662(3)
H50 H 0.340802 0.836511 0.770845
C68 C 0.6989(7) 0.7084(6) 0.9188(4)
C69 C 0.8218(7) 0.6967(5) 0.9005(4)
H51 H 0.885972 0.638653 0.868978
C70 C 0.8514(6) 0.7692(5) 0.9279(3)
H52 H 0.936050 0.762195 0.914852
C71 C 0.7578(6) 0.8530(5) 0.9746(3)
C72 C 0.6357(7) 0.8641(6) 0.9921(3)
C73 C 0.6051(7) 0.7922(6) 0.9642(4)
H54 H 0.520124 0.800295 0.976233
C89 C 0.7733(6) 0.9830(6) 0.7280(4)
H68 H 0.764714 0.985482 0.679147
H69 H 0.763873 0.915350 0.752058
C90 C 0.9526(6) 0.9505(5) 0.7789(4)
H70 H 0.923742 0.922829 0.824858
Co3_7 Co 0.000000 1.000000 1.000000
O12 O 0.2923(4) 0.9962(4) 0.9511(2)
O26 O 0.1516(4) 0.9216(4) 0.9053(2)
H37 H 0.201(9) 0.946(7) 0.922(6)
H38 H 0.173(9) 0.845(3) 0.915(5)
C91 C 0.0555(6) 0.9736(5) 0.7545(3)
H71 H 0.113235 0.963480 0.780894
Co3_8 Co 1.000000 0.000000 0.000000
O13 O 0.8484(4) 0.0784(4) 0.0947(2)
H1 H 0.799(9) 0.054(7) 0.078(6)
H2 H 0.827(9) 0.155(3) 0.085(5)
C45 C 0.9445(6) 0.0264(5) 0.2455(3)
H35 H 0.886765 0.036520 0.219106
O25 O 0.7077(4) 0.0038(4) 0.0489(2)
loop_
_geom_bond_atom_site_label_1
_geom_bond_atom_site_label_2
_geom_bond_site_symmetry_1
_geom_bond_site_symmetry_2
Co11 O5 1_555 1_555
Co3 O11 1_555 1_555
S1 O3 1_555 1_555
S2 O9 1_555 1_555
O1 C1 1_555 1_555
O2 C1 1_555 1_555
O4 S1 1_555 1_555
O5 C14 1_555 1_555
O6 C14 1_555 1_555
O8 Co11 1_555 1_555
O10 S2 1_555 1_555
N5 C43 1_555 1_555
C1 C2 1_555 1_555
C2 C3 1_555 1_555
C3 H3 1_555 1_555
C4 C3 1_555 1_555
H4 C4 1_555 1_555
C5 S1 1_555 1_555
C6 C5 1_555 1_555
H5 C6 1_555 1_555
C7 C2 1_555 1_555
H6 C7 1_555 1_555
C8 S1 1_555 1_555
C9 C8 1_555 1_555
H7 C9 1_555 1_555
C10 C9 1_555 1_555
H8 C10 1_555 1_555
C11 C10 1_555 1_555
C12 C11 1_555 1_555
H9 C12 1_555 1_555
C13 C8 1_555 1_555
H10 C13 1_555 1_555
C14 C11 1_555 1_555
C15 O7 1_555 1_555
C16 C15 1_555 1_555
C17 C16 1_555 1_555
H11 C17 1_555 1_555
C18 C17 1_555 1_555
H12 C18 1_555 1_555
C19 S2 1_555 1_555
C20 C19 1_555 1_555
H13 C20 1_555 1_555
C21 C16 1_555 1_555
H14 C21 1_555 1_555
C22 S2 1_555 1_555
C23 C22 1_555 1_555
H15 C23 1_555 1_555
C24 C23 1_555 1_555
H16 C24 1_555 1_555
C25 C24 1_555 1_555
C26 C25 1_555 1_555
C27 C22 1_555 1_555
H18 C27 1_555 1_555
H32 C43 1_555 1_555
H33 C43 1_555 1_555
C44 N5 1_555 1_555
H34 C44 1_555 1_555
Co6 O1 1_555 1_555
Co11_2 O1 1_555 1_555
O29 Co11 1_555 1_555
O2 Co6 1_555 1_555
O8 C15 1_555 1_555
C4 C5 1_555 1_555
C6 C7 1_555 1_555
C12 C13 1_555 1_555
C18 C19 1_555 1_555
C20 C21 1_555 1_555
C26 C27 1_555 1_555
Co8 N12 1_555 1_555
N1 Co3_3 1_555 1_555
N2 C30 1_555 1_555
N3 C39 1_555 1_555
N4 Co6 1_555 1_555
C29 N1 1_555 1_555
C30 C29 1_555 1_555
H20 C30 1_555 1_555
C31 N1 1_555 1_555
H21 C31 1_555 1_555
C32 N2 1_555 1_555
H22 C32 1_555 1_555
H23 C32 1_555 1_555
C33 C32 1_555 1_555
C34 C33 1_555 1_555
H24 C34 1_555 1_555
C35 C34 1_555 1_555
C36 C35 1_555 1_555
H25 C36 1_555 1_555
C37 C36 1_555 1_555
C38 C33 1_555 1_555
H26 C38 1_555 1_555
C39 C37 1_555 1_555
H27 C39 1_555 1_555
H28 C39 1_555 1_555
C40 N3 1_555 1_555
H29 C40 1_555 1_555
C41 N4 1_555 1_555
H30 C41 1_555 1_555
C42 N3 1_555 1_555
H31 C42 1_555 1_555
H36 C46 1_555 1_555
O32 Co11_2 1_555 1_555
O33 Co11_2 1_555 1_555
N13 Co6 1_555 1_555
N2 C31 1_555 1_555
N4 C42 1_555 1_555
C37 C38 1_555 1_555
C40 C41 1_555 1_555
N7 Co3_4 1_555 1_555
N8 C76 1_555 1_555
N9 C85 1_555 1_555
N10 Co8 1_555 1_555
C75 N7 1_555 1_555
C76 C75 1_555 1_555
H56 C76 1_555 1_555
C77 N7 1_555 1_555
H57 C77 1_555 1_555
C78 N8 1_555 1_555
H58 C78 1_555 1_555
H59 C78 1_555 1_555
C79 C78 1_555 1_555
C80 C79 1_555 1_555
H60 C80 1_555 1_555
C81 C80 1_555 1_555
C82 C81 1_555 1_555
H61 C82 1_555 1_555
C83 C82 1_555 1_555
C84 C79 1_555 1_555
H62 C84 1_555 1_555
C85 C83 1_555 1_555
H63 C85 1_555 1_555
H64 C85 1_555 1_555
C86 N9 1_555 1_555
H65 C86 1_555 1_555
C87 N10 1_555 1_555
H66 C87 1_555 1_555
C88 N9 1_555 1_555
H67 C88 1_555 1_555
H72 C92 1_555 1_555
O29 Co8 1_555 1_555
O31 Co8 1_555 1_555
N8 C77 1_555 1_555
N10 C88 1_555 1_555
C83 C84 1_555 1_555
C86 C87 1_555 1_555
S3 O16 1_555 1_555
S4 O22 1_555 1_555
O29 C47 1_555 1_555
O31 C47 1_555 1_555
O17 S3 1_555 1_555
O32 C60 1_555 1_555
O19 C60 1_555 1_555
O33 C61 1_555 1_555
O23 S4 1_555 1_555
O24 Co3_6 1_555 1_555
N11 C89 1_555 1_555
C47 C48 1_555 1_555
C48 C49 1_555 1_555
C49 H39 1_555 1_555
C50 C49 1_555 1_555
H40 C50 1_555 1_555
C51 S3 1_555 1_555
C52 C51 1_555 1_555
H41 C52 1_555 1_555
C53 C48 1_555 1_555
H42 C53 1_555 1_555
C54 S3 1_555 1_555
C55 C54 1_555 1_555
H43 C55 1_555 1_555
C56 C55 1_555 1_555
H44 C56 1_555 1_555
C57 C56 1_555 1_555
C58 C57 1_555 1_555
H45 C58 1_555 1_555
C59 C54 1_555 1_555
H46 C59 1_555 1_555
C60 C57 1_555 1_555
C61 O20 1_555 1_555
C62 C61 1_555 1_555
C63 C62 1_555 1_555
H47 C63 1_555 1_555
C64 C63 1_555 1_555
H48 C64 1_555 1_555
C65 S4 1_555 1_555
C66 C65 1_555 1_555
H49 C66 1_555 1_555
C67 C62 1_555 1_555
H50 C67 1_555 1_555
C68 S4 1_555 1_555
C69 C68 1_555 1_555
H51 C69 1_555 1_555
C70 C69 1_555 1_555
H52 C70 1_555 1_555
C71 C70 1_555 1_555
C72 C71 1_555 1_555
C73 C68 1_555 1_555
H54 C73 1_555 1_555
H68 C89 1_555 1_555
H69 C89 1_555 1_555
C90 N11 1_555 1_555
H70 C90 1_555 1_555
C50 C51 1_555 1_555
C52 C53 1_555 1_555
C58 C59 1_555 1_555
C64 C65 1_555 1_555
C66 C67 1_555 1_555
C72 C73 1_555 1_555
O26 Co3_7 1_555 1_555
H37 O26 1_555 1_555
H38 O26 1_555 1_555
H71 C91 1_555 1_555
O13 Co3_8 1_555 1_555
H1 O13 1_555 1_555
H2 O13 1_555 1_555
H35 C45 1_555 1_555

#END
