
###############################################################################
#
# This file contains modified crystal structure data generated from the
# MOF subset of the Cambridge Structural Database (CSD) v543 
# hosted by the Cambridge Crystallographic Data Centre (CCDC).
#
# This work is licensed under the Creative Commons
# Attribution-NonCommercial-ShareAlike 4.0 International License.
# To view a copy of this license, visit
# http://creativecommons.org/licenses/by-nc-sa/4.0/
# or send a letter to
# Creative Commons, PO Box 1866, Mountain View, CA 94042, USA.
#
# CIF created using the CSD Python API on 29 September 2022
# The structure has been converted into the P1 space group
# The structure has a 3D framework
# The original CSD entry GEYSUA is in the monoclinic crystal system
# The framework has been calculated to contain at least 10.0% void space
# The void calculation uses a probe of radius 1.32A, grid spacing 0.4
#
###############################################################################

data_GEYSUA
_chemical_formula_moiety         '(C104 H64 N12 O16 Zn4)n'
_symmetry_cell_setting           triclinic
_symmetry_space_group_name_H-M   'P 1'
_symmetry_Int_Tables_number      1
_space_group_name_Hall           'P 1'
loop_
_symmetry_equiv_pos_site_id
_symmetry_equiv_pos_as_xyz
1 x,y,z
_cell_length_a                   17.242(19)
_cell_length_b                   7.320(7)
_cell_length_c                   21.883(17)
_cell_angle_alpha                90
_cell_angle_beta                 122.10(3)
_cell_angle_gamma                90
_cell_volume                     2339.65
loop_
_atom_site_label
_atom_site_type_symbol
_atom_site_fract_x
_atom_site_fract_y
_atom_site_fract_z
N1 N 0.0411(4) 0.7720(9) 0.9436(3)
N2 N 0.0964(3) 0.8128(7) 0.7405(2)
N3 N 0.3485(3) 0.8734(6) 0.6938(2)
C10 C 0.0179(3) 0.7903(8) 0.7384(2)
C11 C 0.0929(3) 0.8166(8) 0.6782(2)
C12 C 0.0115(3) 0.8020(9) 0.6117(3)
H6 H 0.0116 0.8086 0.5693
C13 C 0.0247(4) 0.7853(9) 0.8087(3)
C16 C 0.1124(5) 0.7589(11) 0.9369(3)
H9 H 0.1699 0.7454 0.9787
C17 C 0.1068(4) 0.7641(10) 0.8717(3)
H10 H 0.1599 0.7531 0.8707
C18 C 0.1807(3) 0.8397(8) 0.6822(3)
C19 C 0.2581(4) 0.9089(14) 0.7437(3)
H11 H 0.2548 0.9482 0.7826
C20 C 0.3388(4) 0.9187(14) 0.7462(4)
H12 H 0.3902 0.9608 0.7886
C21 C 0.2754(4) 0.8134(12) 0.6351(3)
H13 H 0.2807 0.7799 0.5965
C22 C 0.1919(4) 0.7972(12) 0.6274(3)
H14 H 0.1421 0.7564 0.5839
Zn6 Zn 0.46869(3) 0.89482(9) 0.69846(3)
C30 C 0.5887(5) 0.0255(10) 0.0205(4)
H18 H 0.6498 0.0404 0.0354
Zn4 Zn 0.53131(3) 0.10518(9) 0.30154(3)
O5 O 0.4935(4) 0.2466(8) 0.8534(3)
O6 O 0.6309(4) 0.2669(9) 0.9457(3)
C27 C 0.5541(6) 0.2134(11) 0.9155(4)
C28 C 0.5227(5) 0.1020(9) 0.9583(4)
C29 C 0.4342(5) 0.0766(11) 0.9370(4)
H17 H 0.3880 0.1272 0.8938
Zn2 Zn 0.53131(3) 0.39482(9) 0.80154(3)
O7 O 0.4198(2) 0.4068(6) 0.70375(19)
C31 C 0.4097(3) 0.2786(7) 0.6630(2)
O8 O 0.4710(2) 0.1607(5) 0.6793(2)
C32 C 0.3221(3) 0.2674(7) 0.5917(2)
C33 C 0.3186(3) 0.1823(8) 0.5340(3)
H19 H 0.3715 0.1330 0.5391
C34 C 0.2373(3) 0.1707(9) 0.4693(3)
H20 H 0.2356 0.1147 0.4305
C35 C 0.1577(3) 0.2404(8) 0.4604(2)
C36 C 0.1618(3) 0.3223(9) 0.5196(3)
H21 H 0.1086 0.3664 0.5153
C37 C 0.2437(3) 0.3384(9) 0.5839(3)
H22 H 0.2461 0.3976 0.6224
C38 C 0.0693(3) 0.2223(8) 0.3909(2)
C39 C 0.0652(3) 0.2280(8) 0.3263(3)
H23 H 0.1185 0.2443 0.3261
C44 C 0.0500(4) 0.1986(11) 0.1850(3)
H25 H 0.1080 0.1828 0.2259
C45 C 0.0385(5) 0.2059(13) 0.1179(3)
H26 H 0.0905 0.1945 0.1154
O10 O 0.5290(2) 0.6607(5) 0.8207(2)
N7 N 0.6515(3) 0.3734(6) 0.8062(2)
Zn1 Zn 0.46869(3) 0.60518(9) 0.19846(3)
O1 O 0.5802(2) 0.5932(6) 0.29625(19)
C1 C 0.5903(3) 0.7214(7) 0.3370(2)
O2 O 0.5290(2) 0.8393(5) 0.3207(2)
C2 C 0.6779(3) 0.7326(7) 0.4083(2)
O3 O 0.5065(4) 0.7534(8) 0.1466(3)
C3 C 0.6814(3) 0.8177(8) 0.4660(3)
H1 H 0.6285 0.8670 0.4609
O4 O 0.3691(4) 0.7331(9) 0.0543(3)
C4 C 0.7627(3) 0.8293(9) 0.5307(3)
H2 H 0.7644 0.8853 0.5695
C5 C 0.8423(3) 0.7596(8) 0.5396(2)
C6 C 0.8382(3) 0.6777(9) 0.4804(3)
H3 H 0.8914 0.6336 0.4847
C7 C 0.7563(3) 0.6616(9) 0.4161(3)
H4 H 0.7539 0.6024 0.3776
C8 C 0.9307(3) 0.7777(8) 0.6091(2)
C9 C 0.9348(3) 0.7720(8) 0.6737(3)
H5 H 0.8815 0.7557 0.6739
C14 C 0.9500(4) 0.8014(11) 0.8150(3)
H7 H 0.8920 0.8172 0.7741
C15 C 0.9615(5) 0.7941(13) 0.8821(3)
H8 H 0.9095 0.8055 0.8846
C23 C 0.4459(6) 0.7866(11) 0.0845(4)
C24 C 0.4773(5) 0.8980(9) 0.0417(4)
C25 C 0.5658(5) 0.9234(11) 0.0630(4)
H15 H 0.6120 0.8728 0.1062
O9 O 0.4710(2) 0.3393(5) 0.1793(2)
N8 N 0.3485(3) 0.6266(6) 0.1938(2)
C26 C 0.4113(5) 0.9745(10) 0.9795(4)
H16 H 0.3502 0.9596 0.9646
N4 N 0.9589(4) 0.2280(9) 0.0564(3)
N5 N 0.9036(3) 0.1872(7) 0.2595(2)
N6 N 0.6515(3) 0.1266(6) 0.3062(2)
C40 C 0.9821(3) 0.2097(8) 0.2616(2)
C41 C 0.9071(3) 0.1834(8) 0.3218(2)
C42 C 0.9885(3) 0.1980(9) 0.3883(3)
H24 H 0.9884 0.1914 0.4307
C43 C 0.9753(4) 0.2147(9) 0.1913(3)
C46 C 0.8876(5) 0.2411(11) 0.0631(3)
H27 H 0.8301 0.2546 0.0213
C47 C 0.8932(4) 0.2359(10) 0.1283(3)
H28 H 0.8401 0.2469 0.1293
C48 C 0.8193(3) 0.1603(8) 0.3178(3)
C49 C 0.7419(4) 0.0911(14) 0.2563(3)
H29 H 0.7452 0.0518 0.2174
C50 C 0.6612(4) 0.0813(14) 0.2538(4)
H30 H 0.6098 0.0392 0.2114
C51 C 0.7246(4) 0.1866(12) 0.3649(3)
H31 H 0.7193 0.2201 0.4035
C52 C 0.8081(4) 0.2028(12) 0.3726(3)
H32 H 0.8579 0.2436 0.4161
N4_2 N 0.0411(4) 0.7280(9) 0.4436(3)
N5_2 N 0.0964(3) 0.6872(7) 0.2405(2)
C40_2 C 0.0179(3) 0.7097(8) 0.2384(2)
C41_2 C 0.0929(3) 0.6834(8) 0.1782(2)
C42_2 C 0.0115(3) 0.6980(9) 0.1117(3)
H24_2 H 0.0116 0.6914 0.0693
C43_2 C 0.0247(4) 0.7147(9) 0.3087(3)
C46_2 C 0.1124(5) 0.7411(11) 0.4369(3)
H27_2 H 0.1699 0.7546 0.4787
C47_2 C 0.1068(4) 0.7359(10) 0.3717(3)
H28_2 H 0.1599 0.7469 0.3707
C48_2 C 0.1807(3) 0.6603(8) 0.1822(3)
C49_2 C 0.2581(4) 0.5911(14) 0.2437(3)
H29_2 H 0.2548 0.5518 0.2826
C50_2 C 0.3388(4) 0.5813(14) 0.2462(4)
H30_2 H 0.3902 0.5392 0.2886
C51_2 C 0.2754(4) 0.6866(12) 0.1351(3)
H31_2 H 0.2807 0.7201 0.0965
C52_2 C 0.1919(4) 0.7028(12) 0.1274(3)
H32_2 H 0.1421 0.7436 0.0839
O1_2 O 0.4198(2) 0.0932(6) 0.20375(19)
C1_2 C 0.4097(3) 0.2214(7) 0.1630(2)
C2_2 C 0.3221(3) 0.2326(7) 0.0917(2)
O3_2 O 0.4935(4) 0.2534(8) 0.3534(3)
C3_2 C 0.3186(3) 0.3177(8) 0.0340(3)
H1_2 H 0.3715 0.3670 0.0391
O4_2 O 0.6309(4) 0.2331(9) 0.4457(3)
C6_2 C 0.1618(3) 0.1777(9) 0.0196(3)
H3_2 H 0.1086 0.1336 0.0153
C7_2 C 0.2437(3) 0.1616(9) 0.0839(3)
H4_2 H 0.2461 0.1024 0.1224
C23_2 C 0.5541(6) 0.2866(11) 0.4155(4)
C24_2 C 0.5227(5) 0.3980(9) 0.4583(4)
C25_2 C 0.4342(5) 0.4234(11) 0.4370(4)
H15_2 H 0.3880 0.3728 0.3938
C26_2 C 0.5887(5) 0.4745(10) 0.5205(4)
H16_2 H 0.6498 0.4596 0.5354
O5_2 O 0.5065(4) 0.7466(8) 0.6466(3)
O6_2 O 0.3691(4) 0.7669(9) 0.5543(3)
C27_2 C 0.4459(6) 0.7134(11) 0.5845(4)
C28_2 C 0.4773(5) 0.6020(9) 0.5417(4)
C29_2 C 0.5658(5) 0.5766(11) 0.5630(4)
H17_2 H 0.6120 0.6272 0.6062
C30_2 C 0.4113(5) 0.5255(10) 0.4795(4)
H18_2 H 0.3502 0.5404 0.4646
O7_2 O 0.5802(2) 0.9068(6) 0.79625(19)
C31_2 C 0.5903(3) 0.7786(7) 0.8370(2)
C32_2 C 0.6779(3) 0.7674(7) 0.9083(2)
C33_2 C 0.6814(3) 0.6823(8) 0.9660(3)
H19_2 H 0.6285 0.6330 0.9609
C36_2 C 0.8382(3) 0.8223(9) 0.9804(3)
H21_2 H 0.8914 0.8664 0.9847
C37_2 C 0.7563(3) 0.8384(9) 0.9161(3)
H22_2 H 0.7539 0.8976 0.8776
N1_2 N 0.9589(4) 0.2720(9) 0.5564(3)
N2_2 N 0.9036(3) 0.3128(7) 0.7595(2)
C10_2 C 0.9821(3) 0.2903(8) 0.7616(2)
C11_2 C 0.9071(3) 0.3166(8) 0.8218(2)
C12_2 C 0.9885(3) 0.3020(9) 0.8883(3)
H6_2 H 0.9884 0.3086 0.9307
C13_2 C 0.9753(4) 0.2853(9) 0.6913(3)
C16_2 C 0.8876(5) 0.2589(11) 0.5631(3)
H9_2 H 0.8301 0.2454 0.5213
C17_2 C 0.8932(4) 0.2641(10) 0.6283(3)
H10_2 H 0.8401 0.2531 0.6293
C18_2 C 0.8193(3) 0.3397(8) 0.8178(3)
C19_2 C 0.7419(4) 0.4089(14) 0.7563(3)
H11_2 H 0.7452 0.4482 0.7174
C20_2 C 0.6612(4) 0.4187(14) 0.7538(4)
H12_2 H 0.6098 0.4608 0.7114
C21_2 C 0.7246(4) 0.3134(12) 0.8649(3)
H13_2 H 0.7193 0.2799 0.9035
C22_2 C 0.8081(4) 0.2972(12) 0.8726(3)
H14_2 H 0.8579 0.2564 0.9161
C34_2 C 0.7627(3) 0.6707(9) 0.0307(3)
H20_2 H 0.7644 0.6147 0.0695
C35_2 C 0.8423(3) 0.7404(8) 0.0396(2)
C38_2 C 0.9307(3) 0.7223(8) 0.1091(2)
C39_2 C 0.9348(3) 0.7280(8) 0.1737(3)
H23_2 H 0.8815 0.7443 0.1739
C44_2 C 0.9500(4) 0.6986(11) 0.3150(3)
H25_2 H 0.8920 0.6828 0.2741
C45_2 C 0.9615(5) 0.7059(13) 0.3821(3)
H26_2 H 0.9095 0.6945 0.3846
C4_2 C 0.2373(3) 0.3293(9) 0.9693(3)
H2_2 H 0.2356 0.3853 0.9305
C5_2 C 0.1577(3) 0.2596(8) 0.9604(2)
C8_2 C 0.0693(3) 0.2777(8) 0.8909(2)
C9_2 C 0.0652(3) 0.2720(8) 0.8263(3)
H5_2 H 0.1185 0.2557 0.8261
C14_2 C 0.0500(4) 0.3014(11) 0.6850(3)
H7_2 H 0.1080 0.3172 0.7259
C15_2 C 0.0385(5) 0.2941(13) 0.6179(3)
H8_2 H 0.0905 0.3055 0.6154
loop_
_geom_bond_atom_site_label_1
_geom_bond_atom_site_label_2
_geom_bond_site_symmetry_1
_geom_bond_site_symmetry_2
N2 C10 1_555 1_555
N3 C20 1_555 1_555
C11 N2 1_555 1_555
H6 C12 1_555 1_555
C13 C10 1_555 1_555
C16 N1 1_555 1_555
H9 C16 1_555 1_555
C17 C13 1_555 1_555
H10 C17 1_555 1_555
C18 C11 1_555 1_555
C19 C18 1_555 1_555
H11 C19 1_555 1_555
C20 C19 1_555 1_555
H12 C20 1_555 1_555
C21 N3 1_555 1_555
H13 C21 1_555 1_555
C22 C18 1_555 1_555
H14 C22 1_555 1_555
Zn6 N3 1_555 1_555
C11 C12 1_555 1_555
C16 C17 1_555 1_555
C21 C22 1_555 1_555
H18 C30 1_555 1_555
O5 C27 1_555 1_555
O6 C27 1_555 1_555
C27 C28 1_555 1_555
C28 C29 1_555 1_555
H17 C29 1_555 1_555
Zn2 O5 1_555 1_555
O7 Zn2 1_555 1_555
C31 O7 1_555 1_555
O8 C31 1_555 1_555
C32 C31 1_555 1_555
C33 C32 1_555 1_555
H19 C33 1_555 1_555
C34 C33 1_555 1_555
H20 C34 1_555 1_555
C35 C34 1_555 1_555
C36 C35 1_555 1_555
H21 C36 1_555 1_555
C37 C32 1_555 1_555
H22 C37 1_555 1_555
C38 C35 1_555 1_555
C39 C38 1_555 1_555
H23 C39 1_555 1_555
H25 C44 1_555 1_555
C45 C44 1_555 1_555
H26 C45 1_555 1_555
O10 Zn2 1_555 1_555
N7 Zn2 1_555 1_555
C36 C37 1_555 1_555
Zn1 O1 1_555 1_555
O1 C1 1_555 1_555
C1 O2 1_555 1_555
C2 C1 1_555 1_555
O3 Zn1 1_555 1_555
C3 C2 1_555 1_555
H1 C3 1_555 1_555
O4 C23 1_555 1_555
C4 C3 1_555 1_555
H2 C4 1_555 1_555
C5 C4 1_555 1_555
C6 C5 1_555 1_555
H3 C6 1_555 1_555
C7 C2 1_555 1_555
H4 C7 1_555 1_555
C8 C5 1_555 1_555
C9 C8 1_555 1_555
H5 C9 1_555 1_555
H7 C14 1_555 1_555
C15 C14 1_555 1_555
H8 C15 1_555 1_555
C23 O3 1_555 1_555
C24 C23 1_555 1_555
C25 C24 1_555 1_555
H15 C25 1_555 1_555
O9 Zn1 1_555 1_555
N8 Zn1 1_555 1_555
C6 C7 1_555 1_555
H16 C26 1_555 1_555
N5 C40 1_555 1_555
N6 C50 1_555 1_555
C41 N5 1_555 1_555
H24 C42 1_555 1_555
C43 C40 1_555 1_555
C46 N4 1_555 1_555
H27 C46 1_555 1_555
C47 C43 1_555 1_555
H28 C47 1_555 1_555
C48 C41 1_555 1_555
C49 C48 1_555 1_555
H29 C49 1_555 1_555
C50 C49 1_555 1_555
H30 C50 1_555 1_555
C51 N6 1_555 1_555
H31 C51 1_555 1_555
C52 C48 1_555 1_555
H32 C52 1_555 1_555
Zn4 N6 1_555 1_555
C41 C42 1_555 1_555
C46 C47 1_555 1_555
C51 C52 1_555 1_555
N5_2 C40_2 1_555 1_555
N8 C50_2 1_555 1_555
C41_2 N5_2 1_555 1_555
H24_2 C42_2 1_555 1_555
C43_2 C40_2 1_555 1_555
C46_2 N4_2 1_555 1_555
H27_2 C46_2 1_555 1_555
C47_2 C43_2 1_555 1_555
H28_2 C47_2 1_555 1_555
C48_2 C41_2 1_555 1_555
C49_2 C48_2 1_555 1_555
H29_2 C49_2 1_555 1_555
C50_2 C49_2 1_555 1_555
H30_2 C50_2 1_555 1_555
C51_2 N8 1_555 1_555
H31_2 C51_2 1_555 1_555
C52_2 C48_2 1_555 1_555
H32_2 C52_2 1_555 1_555
C41_2 C42_2 1_555 1_555
C46_2 C47_2 1_555 1_555
C51_2 C52_2 1_555 1_555
Zn4 O1_2 1_555 1_555
O1_2 C1_2 1_555 1_555
C1_2 O9 1_555 1_555
C2_2 C1_2 1_555 1_555
O3_2 Zn4 1_555 1_555
C3_2 C2_2 1_555 1_555
H1_2 C3_2 1_555 1_555
O4_2 C23_2 1_555 1_555
H3_2 C6_2 1_555 1_555
C7_2 C2_2 1_555 1_555
H4_2 C7_2 1_555 1_555
C23_2 O3_2 1_555 1_555
C24_2 C23_2 1_555 1_555
C25_2 C24_2 1_555 1_555
H15_2 C25_2 1_555 1_555
C26_2 C24_2 1_555 1_555
H16_2 C26_2 1_555 1_555
O5_2 C27_2 1_555 1_555
O6_2 C27_2 1_555 1_555
C27_2 C28_2 1_555 1_555
C28_2 C29_2 1_555 1_555
C29_2 C26_2 1_555 1_555
H17_2 C29_2 1_555 1_555
C30_2 C25_2 1_555 1_555
H18_2 C30_2 1_555 1_555
Zn6 O5_2 1_555 1_555
O7_2 Zn6 1_555 1_555
C31_2 O7_2 1_555 1_555
O10 C31_2 1_555 1_555
C32_2 C31_2 1_555 1_555
C33_2 C32_2 1_555 1_555
H19_2 C33_2 1_555 1_555
H21_2 C36_2 1_555 1_555
C37_2 C32_2 1_555 1_555
H22_2 C37_2 1_555 1_555
C6_2 C7_2 1_555 1_555
C28_2 C30_2 1_555 1_555
C36_2 C37_2 1_555 1_555
N2_2 C10_2 1_555 1_555
N7 C20_2 1_555 1_555
C11_2 N2_2 1_555 1_555
H6_2 C12_2 1_555 1_555
C13_2 C10_2 1_555 1_555
C16_2 N1_2 1_555 1_555
H9_2 C16_2 1_555 1_555
C17_2 C13_2 1_555 1_555
H10_2 C17_2 1_555 1_555
C18_2 C11_2 1_555 1_555
C19_2 C18_2 1_555 1_555
H11_2 C19_2 1_555 1_555
C20_2 C19_2 1_555 1_555
H12_2 C20_2 1_555 1_555
C21_2 N7 1_555 1_555
H13_2 C21_2 1_555 1_555
C22_2 C18_2 1_555 1_555
H14_2 C22_2 1_555 1_555
C11_2 C12_2 1_555 1_555
C16_2 C17_2 1_555 1_555
C21_2 C22_2 1_555 1_555
H20_2 C34_2 1_555 1_555
C35_2 C34_2 1_555 1_555
C38_2 C35_2 1_555 1_555
C39_2 C38_2 1_555 1_555
H23_2 C39_2 1_555 1_555
H25_2 C44_2 1_555 1_555
C45_2 C44_2 1_555 1_555
H26_2 C45_2 1_555 1_555
H2_2 C4_2 1_555 1_555
C5_2 C4_2 1_555 1_555
C8_2 C5_2 1_555 1_555
C9_2 C8_2 1_555 1_555
H5_2 C9_2 1_555 1_555
H7_2 C14_2 1_555 1_555
C15_2 C14_2 1_555 1_555
H8_2 C15_2 1_555 1_555

#END
