
###############################################################################
#
# This file contains modified crystal structure data generated from the
# MOF subset of the Cambridge Structural Database (CSD) v543 
# hosted by the Cambridge Crystallographic Data Centre (CCDC).
#
# This work is licensed under the Creative Commons
# Attribution-NonCommercial-ShareAlike 4.0 International License.
# To view a copy of this license, visit
# http://creativecommons.org/licenses/by-nc-sa/4.0/
# or send a letter to
# Creative Commons, PO Box 1866, Mountain View, CA 94042, USA.
#
# CIF created using the CSD Python API on 29 September 2022
# The structure has been converted into the P1 space group
# The structure has a 3D framework
# The original CSD entry GICXAU is in the triclinic crystal system
# The framework has been calculated to contain at least 10.0% void space
# The void calculation uses a probe of radius 1.32A, grid spacing 0.4
# H atom positions have been added when not included in the experimental data
#
###############################################################################

data_GICXAU
_chemical_formula_moiety         '(C26 H22 N4 O14)n'
_symmetry_cell_setting           triclinic
_symmetry_space_group_name_H-M   'P 1'
_symmetry_Int_Tables_number      1
_space_group_name_Hall           'P 1'
loop_
_symmetry_equiv_pos_site_id
_symmetry_equiv_pos_as_xyz
1 x,y,z
_cell_length_a                   9.1472(5)
_cell_length_b                   9.7744(6)
_cell_length_c                   12.1630(8)
_cell_angle_alpha                112.766(6)
_cell_angle_beta                 94.716(5)
_cell_angle_gamma                108.877(5)
_cell_volume                     921.619
loop_
_atom_site_label
_atom_site_type_symbol
_atom_site_fract_x
_atom_site_fract_y
_atom_site_fract_z
O6 O 0.0756(6) 0.7673(6) 0.0700(5)
Eu5 Eu 0.22145(4) 0.97223(4) 0.00638(3)
H10 H 0.0233765 0.200617 0.22908
H11 H 0.0691154 0.312275 0.15733
O10 O 0.0778(5) 0.1060(6) 0.9499(5)
Eu3 Eu 0.77855(4) 0.02777(4) 0.99362(3)
O1 O 0.9222(5) 0.8940(6) 0.0501(5)
O2 O 0.4231(5) 0.2376(6) 0.0808(5)
O3 O 0.6838(6) 0.0042(6) 0.1741(5)
H2 H 0.5871 0.0002 0.1691
O4 O 0.6449(6) 0.1947(6) 0.0563(5)
O5 O 0.7835(6) 0.8600(7) 0.7825(5)
O7 O 0.6064(6) 0.9697(6) 0.7973(5)
N1 N 0.6007(6) 0.5735(6) 0.1432(5)
N2 N 0.6983(7) 0.7081(7) 0.1427(5)
O8 O 0.9809(7) 0.2477(7) 0.1813(6)
C1 C 0.8165(7) 0.6708(8) 0.0970(6)
C2 C 0.7959(7) 0.5128(7) 0.0721(6)
H3 H 0.8627 0.4604 0.0420
C3 C 0.6552(7) 0.4518(7) 0.1020(6)
C4 C 0.9454(8) 0.7855(8) 0.0713(6)
C5 C 0.6713(8) 0.8829(9) 0.7341(7)
C6 C 0.5658(8) 0.2822(8) 0.0782(6)
C7 C 0.5202(8) 0.6570(9) 0.3402(7)
C8 C 0.4665(7) 0.5806(9) 0.2008(6)
H4 H 0.3869 0.4726 0.1719
H5 H 0.4180 0.6428 0.1768
C9 C 0.6162(9) 0.8000(9) 0.5961(7)
C10 C 0.5032(17) 0.8266(19) 0.5370(9)
H6 H 0.4555 0.8929 0.5829
C11 C 0.6741(17) 0.6941(18) 0.5258(9)
H7 H 0.7480 0.6696 0.5636
C12 C 0.6259(19) 0.6209(19) 0.3985(9)
H8 H 0.6661 0.5467 0.3526
C13 C 0.4576(18) 0.757(2) 0.4098(10)
H9 H 0.3821 0.7799 0.3722
O13 O 0.9244(6) 0.2327(6) 0.9300(5)
H1 H 0.6851 0.9173 0.1771
O11 O 0.5769(5) 0.7624(6) 0.9192(5)
O12 O 0.2165(6) 0.1400(7) 0.2175(5)
O14 O 0.3936(6) 0.0303(6) 0.2027(5)
H1_2 H 0.3149 0.0827 0.8229
O3_2 O 0.3162(6) 0.9958(6) 0.8259(5)
H2_2 H 0.4129 0.9998 0.8309
O4_2 O 0.3551(6) 0.8053(6) 0.9437(5)
N1_2 N 0.3993(6) 0.4265(6) 0.8568(5)
N2_2 N 0.3017(7) 0.2919(7) 0.8573(5)
O8_2 O 0.0191(7) 0.7523(7) 0.8187(6)
C1_2 C 0.1835(7) 0.3292(8) 0.9030(6)
C2_2 C 0.2041(7) 0.4872(7) 0.9279(6)
H3_2 H 0.1373 0.5396 0.9580
C3_2 C 0.3448(7) 0.5482(7) 0.8980(6)
C4_2 C 0.0546(8) 0.2145(8) 0.9287(6)
C5_2 C 0.3287(8) 0.1171(9) 0.2659(7)
C6_2 C 0.4342(8) 0.7178(8) 0.9218(6)
C7_2 C 0.4798(8) 0.3430(9) 0.6598(7)
C8_2 C 0.5335(7) 0.4194(9) 0.7992(6)
H4_2 H 0.6131 0.5274 0.8281
H5_2 H 0.5820 0.3572 0.8232
C9_2 C 0.3838(9) 0.2000(9) 0.4039(7)
C10_2 C 0.4968(17) 0.1734(19) 0.4630(9)
H6_2 H 0.5445 0.1071 0.4171
C11_2 C 0.3259(17) 0.3059(18) 0.4742(9)
H7_2 H 0.2520 0.3304 0.4364
C12_2 C 0.3741(19) 0.3791(19) 0.6015(9)
H8_2 H 0.3339 0.4533 0.6474
C13_2 C 0.5424(18) 0.243(2) 0.5902(10)
H9_2 H 0.6179 0.2201 0.6278
H10_2 H 0.976623 0.799383 0.77092
H11_2 H 0.930885 0.687725 0.84267
loop_
_geom_bond_atom_site_label_1
_geom_bond_atom_site_label_2
_geom_bond_site_symmetry_1
_geom_bond_site_symmetry_2
O6 Eu5 1_555 1_555
O1 C4 1_555 1_555
O2 C6 1_555 1_555
H2 O3 1_555 1_555
O5 C5 1_555 1_555
O7 C5 1_555 1_555
N1 N2 1_555 1_555
N2 C1 1_555 1_555
C1 C2 1_555 1_555
C2 H3 1_555 1_555
C3 N1 1_555 1_555
C4 C1 1_555 1_555
C5 C9 1_555 1_555
C6 O4 1_555 1_555
C7 C8 1_555 1_555
C8 N1 1_555 1_555
H4 C8 1_555 1_555
H5 C8 1_555 1_555
C9 C10 1_555 1_555
C10 H6 1_555 1_555
C11 C9 1_555 1_555
H7 C11 1_555 1_555
C12 C7 1_555 1_555
H8 C12 1_555 1_555
C13 C7 1_555 1_555
H9 C13 1_555 1_555
C2 C3 1_555 1_555
C3 C6 1_555 1_555
C10 C13 1_555 1_555
C11 C12 1_555 1_555
O13 Eu3 1_555 1_555
O10 C4_2 1_555 1_555
O11 C6_2 1_555 1_555
H2_2 O3_2 1_555 1_555
O12 C5_2 1_555 1_555
O14 C5_2 1_555 1_555
N1_2 N2_2 1_555 1_555
N2_2 C1_2 1_555 1_555
C1_2 C2_2 1_555 1_555
C2_2 H3_2 1_555 1_555
C3_2 N1_2 1_555 1_555
C4_2 C1_2 1_555 1_555
C5_2 C9_2 1_555 1_555
C6_2 O4_2 1_555 1_555
C7_2 C8_2 1_555 1_555
C8_2 N1_2 1_555 1_555
H4_2 C8_2 1_555 1_555
H5_2 C8_2 1_555 1_555
C9_2 C10_2 1_555 1_555
C10_2 H6_2 1_555 1_555
C11_2 C9_2 1_555 1_555
H7_2 C11_2 1_555 1_555
C12_2 C7_2 1_555 1_555
H8_2 C12_2 1_555 1_555
C13_2 C7_2 1_555 1_555
H9_2 C13_2 1_555 1_555
C2_2 C3_2 1_555 1_555
C3_2 C6_2 1_555 1_555
C10_2 C13_2 1_555 1_555
C11_2 C12_2 1_555 1_555

#END
