
###############################################################################
#
# This file contains modified crystal structure data generated from the
# MOF subset of the Cambridge Structural Database (CSD) v543 
# hosted by the Cambridge Crystallographic Data Centre (CCDC).
#
# This work is licensed under the Creative Commons
# Attribution-NonCommercial-ShareAlike 4.0 International License.
# To view a copy of this license, visit
# http://creativecommons.org/licenses/by-nc-sa/4.0/
# or send a letter to
# Creative Commons, PO Box 1866, Mountain View, CA 94042, USA.
#
# CIF created using the CSD Python API on 29 September 2022
# The structure has been converted into the P1 space group
# The structure has a 3D framework
# The original CSD entry GICXOI is in the triclinic crystal system
# The framework has been calculated to contain at least 10.0% void space
# The void calculation uses a probe of radius 1.32A, grid spacing 0.4
# H atom positions have been added when not included in the experimental data
#
###############################################################################

data_GICXOI
_chemical_formula_moiety         '(C26 H22 N4 O16)n'
_symmetry_cell_setting           triclinic
_symmetry_space_group_name_H-M   'P 1'
_symmetry_Int_Tables_number      1
_space_group_name_Hall           'P 1'
loop_
_symmetry_equiv_pos_site_id
_symmetry_equiv_pos_as_xyz
1 x,y,z
_cell_length_a                   9.0777(5)
_cell_length_b                   9.6580(5)
_cell_length_c                   11.9427(9)
_cell_angle_alpha                111.502(6)
_cell_angle_beta                 93.109(5)
_cell_angle_gamma                108.541(5)
_cell_volume                     906.136
loop_
_atom_site_label
_atom_site_type_symbol
_atom_site_fract_x
_atom_site_fract_y
_atom_site_fract_z
Dy5 Dy 0.28042(5) 0.03092(5) 0.99302(4)
O11 O 0.8845(8) 0.0188(8) 0.1971(6)
O12 O 0.7021(7) 0.1279(8) 0.2164(6)
O14 O 0.9118(7) 0.2311(7) 0.0795(6)
O6 O 0.8216(8) 0.0020(8) 0.8275(6)
H1 H 0.9203 0.0003 0.8279
O9 O 0.5807(7) 0.1077(7) 0.9526(6)
H11 H 0.823337 0.105844 0.828658
O2 O 0.8639(8) 0.8126(8) 0.9471(6)
O5 O 0.4290(7) 0.2380(7) 0.9293(6)
O8 O 0.5340(8) 0.7564(8) 0.8260(6)
H2 H 0.5701 0.7558 0.7595
H3 H 0.4431 0.7691 0.8212
N1 N 0.8122(9) 0.2977(9) 0.8573(7)
N2 N 0.9133(9) 0.4327(9) 0.8550(7)
C1 C 0.5622(10) 0.2195(11) 0.9288(8)
C2 C 0.6931(10) 0.3353(10) 0.9047(8)
C3 C 0.7137(11) 0.4938(11) 0.9297(8)
H4 H 0.6455 0.5467 0.9600
C4 C 0.9442(11) 0.7245(10) 0.9231(8)
C5 C 0.8558(10) 0.5542(10) 0.8998(8)
C6 C 0.8788(12) 0.1952(12) 0.3991(9)
C7 C 0.8178(12) 0.1090(12) 0.2649(9)
C9 C 0.9857(11) 0.3453(11) 0.6532(9)
C10 C 0.821(2) 0.303(2) 0.4712(12)
H7 H 0.7460 0.3282 0.4351
C12 C 0.9960(18) 0.1666(19) 0.4557(13)
C13 C 0.871(2) 0.376(2) 0.5962(12)
H10 H 0.8271 0.4468 0.6432
C8 C 0.9537(11) 0.5738(11) 0.2101(9)
H5 H 0.8988 0.6323 0.1853
H6 H 0.8791 0.4663 0.1886
C11 C 0.9514(19) 0.760(2) 0.4200(11)
H8 H 0.8725 0.7819 0.3845
H9 H 0.9597 0.9041 0.5919
O7 O 0.0882(7) 0.7689(7) 0.9205(6)
C8_2 C 0.0463(11) 0.4262(11) 0.7899(9)
H5_2 H 0.1012 0.3677 0.8147
H6_2 H 0.1209 0.5337 0.8114
C11_2 C 0.0486(19) 0.240(2) 0.5800(11)
H8_2 H 0.1275 0.2181 0.6155
H9_2 H 0.0403 0.0959 0.4081
Dy1 Dy 0.71958(5) 0.96908(5) 0.00698(4)
O10 O 0.4193(7) 0.8923(7) 0.0474(6)
O13 O 0.5710(7) 0.7620(7) 0.0707(6)
O2_2 O 0.1361(8) 0.1874(8) 0.0529(6)
O3 O 0.1155(8) 0.9812(8) 0.8029(6)
O4 O 0.2979(7) 0.8721(8) 0.7836(6)
O8_2 O 0.4660(8) 0.2436(8) 0.1740(6)
H2_2 H 0.4299 0.2442 0.2405
H3_2 H 0.5569 0.2309 0.1788
N1_2 N 0.1878(9) 0.7023(9) 0.1427(7)
N2_2 N 0.0867(9) 0.5673(9) 0.1450(7)
C1_2 C 0.4378(10) 0.7805(11) 0.0712(8)
C2_2 C 0.3069(10) 0.6647(10) 0.0953(8)
C3_2 C 0.2863(11) 0.5062(11) 0.0703(8)
H4_2 H 0.3545 0.4533 0.0400
C4_2 C 0.0558(11) 0.2755(10) 0.0769(8)
C5_2 C 0.1442(10) 0.4458(10) 0.1002(8)
C6_2 C 0.1212(12) 0.8048(12) 0.6009(9)
C7_2 C 0.1822(12) 0.8910(12) 0.7351(9)
C9_2 C 0.0143(11) 0.6547(11) 0.3468(9)
C10_2 C 0.179(2) 0.697(2) 0.5288(12)
H7_2 H 0.2540 0.6718 0.5649
C12_2 C 0.0040(18) 0.8334(19) 0.5443(13)
C13_2 C 0.129(2) 0.624(2) 0.4038(12)
H10_2 H 0.1729 0.5532 0.3568
O6_2 O 0.1784(8) 0.9980(8) 0.1725(6)
H1_2 H 0.0797 0.9997 0.1721
H11_2 H 0.176663 0.894156 0.171342
loop_
_geom_bond_atom_site_label_1
_geom_bond_atom_site_label_2
_geom_bond_site_symmetry_1
_geom_bond_site_symmetry_2
H1 O6 1_555 1_555
O6 H11 1_555 1_555
O9 C1 1_555 1_555
O2 C4 1_555 1_555
O11 C7 1_555 1_555
O12 C7 1_555 1_555
O5 C1 1_555 1_555
H2 O8 1_555 1_555
H3 O8 1_555 1_555
N1 N2 1_555 1_555
N2 C5 1_555 1_555
C1 C2 1_555 1_555
C2 N1 1_555 1_555
C3 C2 1_555 1_555
H4 C3 1_555 1_555
C4 C5 1_555 1_555
C5 C3 1_555 1_555
C6 C7 1_555 1_555
C10 C6 1_555 1_555
H7 C10 1_555 1_555
C12 C6 1_555 1_555
C13 C9 1_555 1_555
H10 C13 1_555 1_555
Dy5 O9 1_555 1_555
O5 Dy5 1_555 1_555
C10 C13 1_555 1_555
H5 C8 1_555 1_555
H6 C8 1_555 1_555
H8 C11 1_555 1_555
H5_2 C8_2 1_555 1_555
H6_2 C8_2 1_555 1_555
H8_2 C11_2 1_555 1_555
O10 Dy1 1_555 1_555
O13 Dy1 1_555 1_555
O10 C1_2 1_555 1_555
O2_2 C4_2 1_555 1_555
O3 C7_2 1_555 1_555
O4 C7_2 1_555 1_555
O13 C1_2 1_555 1_555
H2_2 O8_2 1_555 1_555
H3_2 O8_2 1_555 1_555
N1_2 N2_2 1_555 1_555
N2_2 C5_2 1_555 1_555
C1_2 C2_2 1_555 1_555
C2_2 N1_2 1_555 1_555
C3_2 C2_2 1_555 1_555
H4_2 C3_2 1_555 1_555
C4_2 C5_2 1_555 1_555
C5_2 C3_2 1_555 1_555
C6_2 C7_2 1_555 1_555
C10_2 C6_2 1_555 1_555
H7_2 C10_2 1_555 1_555
C12_2 C6_2 1_555 1_555
C13_2 C9_2 1_555 1_555
H10_2 C13_2 1_555 1_555
C10_2 C13_2 1_555 1_555
H1_2 O6_2 1_555 1_555
O6_2 H11_2 1_555 1_555

#END
