
###############################################################################
#
# This file contains modified crystal structure data generated from the
# MOF subset of the Cambridge Structural Database (CSD) v543 
# hosted by the Cambridge Crystallographic Data Centre (CCDC).
#
# This work is licensed under the Creative Commons
# Attribution-NonCommercial-ShareAlike 4.0 International License.
# To view a copy of this license, visit
# http://creativecommons.org/licenses/by-nc-sa/4.0/
# or send a letter to
# Creative Commons, PO Box 1866, Mountain View, CA 94042, USA.
#
# CIF created using the CSD Python API on 29 September 2022
# The structure has been converted into the P1 space group
# The structure has a 3D framework
# The original CSD entry GICXEY is in the triclinic crystal system
# The framework has been calculated to contain at least 10.0% void space
# The void calculation uses a probe of radius 1.32A, grid spacing 0.4
# H atom positions have been added when not included in the experimental data
#
###############################################################################

data_GICXEY
_chemical_formula_moiety         '(C26 H22 Gd2 N4 O14)n'
_symmetry_cell_setting           triclinic
_symmetry_space_group_name_H-M   'P 1'
_symmetry_Int_Tables_number      1
_space_group_name_Hall           'P 1'
loop_
_symmetry_equiv_pos_site_id
_symmetry_equiv_pos_as_xyz
1 x,y,z
_cell_length_a                   9.0913(6)
_cell_length_b                   9.6630(7)
_cell_length_c                   11.6631(10)
_cell_angle_alpha                108.511(7)
_cell_angle_beta                 93.793(6)
_cell_angle_gamma                108.350(6)
_cell_volume                     906.34
loop_
_atom_site_label
_atom_site_type_symbol
_atom_site_fract_x
_atom_site_fract_y
_atom_site_fract_z
H3 H 0.0189 0.6914 0.2173
O6 O 0.0749(8) 0.2606(8) 0.0752(7)
Gd5 Gd 0.22113(6) 0.47038(6) 0.00751(5)
O11 O 0.0779(8) 0.6086(8) 0.9486(7)
O7 O 0.6741(8) 0.4886(8) 0.1744(6)
H1 H 0.7347 0.5625 0.2417
H2 H 0.6720 0.3978 0.1760
O8 O 0.9635(9) 0.7323(9) 0.1766(8)
O10 O 0.9221(8) 0.3914(8) 0.0514(7)
O12 O 0.6339(8) 0.6832(8) 0.0471(7)
H11 H 0.903029 0.782561 0.233169
Gd1 Gd 0.77887(6) 0.52962(6) 0.99249(5)
O1 O 0.6183(9) 0.4839(8) 0.7947(7)
O2 O 0.8017(8) 0.3787(9) 0.7854(7)
N1 N 0.5890(9) 0.0589(9) 0.1451(7)
N2 N 0.6903(10) 0.1940(10) 0.1460(8)
C1 C 0.5151(13) 0.1483(12) 0.3473(10)
C2 C 0.6257(16) 0.1127(14) 0.4093(11)
H4 H 0.6626 0.0329 0.3658
C3 C 0.6830(15) 0.1933(15) 0.5349(11)
H5 H 0.7621 0.1721 0.5763
C4 C 0.4565(12) 0.0646(12) 0.2099(10)
H7 H 0.3975 0.1197 0.1786
C5 C 0.8095(11) 0.1596(11) 0.0962(9)
C6 C 0.7896(12) 0.0043(11) 0.0708(10)
C9 C 0.6230(13) 0.3052(13) 0.5988(10)
C10 C 0.9431(11) 0.2776(11) 0.0746(9)
C11 C 0.5071(18) 0.3346(17) 0.5387(13)
H9 H 0.4611 0.4059 0.5834
C12 C 0.6870(13) 0.3969(12) 0.7354(9)
C13 C 0.4579(17) 0.2593(18) 0.4120(12)
H10 H 0.3836 0.2852 0.3697
O9 O 0.5873(8) 0.2725(8) 0.9221(6)
O13 O 0.9251(8) 0.7394(8) 0.9248(7)
O3 O 0.4127(8) 0.7275(8) 0.0779(6)
H6 H 0.3835 0.9570 0.1937
H8 H 0.8601 0.9530 0.0400
C7 C 0.6449(12) 0.9398(12) 0.1001(9)
C8 C 0.5558(12) 0.7708(11) 0.0743(9)
O5 O 0.3661(8) 0.3168(8) 0.9529(7)
H6_2 H 0.6165 0.0430 0.8063
H8_2 H 0.1399 0.0470 0.9600
C7_2 C 0.3551(12) 0.0602(12) 0.8999(9)
C8_2 C 0.4442(12) 0.2292(11) 0.9257(9)
O1_2 O 0.3817(9) 0.5161(8) 0.2053(7)
O2_2 O 0.1983(8) 0.6213(9) 0.2146(7)
N1_2 N 0.4110(9) 0.9411(9) 0.8549(7)
N2_2 N 0.3097(10) 0.8060(10) 0.8540(8)
C1_2 C 0.4849(13) 0.8517(12) 0.6527(10)
C2_2 C 0.3743(16) 0.8873(14) 0.5907(11)
H4_2 H 0.3374 0.9671 0.6342
C3_2 C 0.3170(15) 0.8067(15) 0.4651(11)
H5_2 H 0.2379 0.8279 0.4237
C4_2 C 0.5435(12) 0.9354(12) 0.7901(10)
H7_2 H 0.6025 0.8803 0.8214
C5_2 C 0.1905(11) 0.8404(11) 0.9038(9)
C6_2 C 0.2104(12) 0.9957(11) 0.9292(10)
C9_2 C 0.3770(13) 0.6948(13) 0.4012(10)
C10_2 C 0.0569(11) 0.7224(11) 0.9254(9)
C11_2 C 0.4929(18) 0.6654(17) 0.4613(13)
H9_2 H 0.5389 0.5941 0.4166
C12_2 C 0.3130(13) 0.6031(12) 0.2646(9)
C13_2 C 0.5421(17) 0.7407(18) 0.5880(12)
H10_2 H 0.6164 0.7148 0.6303
O7_2 O 0.3259(8) 0.5114(8) 0.8256(6)
H1_2 H 0.2653 0.4375 0.7583
H2_2 H 0.3280 0.6022 0.8240
O8_2 O 0.0365(9) 0.2677(9) 0.8234(8)
H11_2 H 0.0969709 0.217439 0.766831
H3_2 H 0.9811 0.3086 0.7827
loop_
_geom_bond_atom_site_label_1
_geom_bond_atom_site_label_2
_geom_bond_site_symmetry_1
_geom_bond_site_symmetry_2
O6 Gd5 1_555 1_555
H1 O7 1_555 1_555
H2 O7 1_555 1_555
O8 H11 1_555 1_555
Gd1 O1 1_555 1_555
O1 C12 1_555 1_555
O2 Gd1 1_555 1_555
O10 C10 1_555 1_555
N1 N2 1_555 1_555
N2 C5 1_555 1_555
C1 C2 1_555 1_555
C2 H4 1_555 1_555
C3 C2 1_555 1_555
H5 C3 1_555 1_555
C4 N1 1_555 1_555
H7 C4 1_555 1_555
C5 C6 1_555 1_555
C9 C3 1_555 1_555
C10 C5 1_555 1_555
C11 C9 1_555 1_555
H9 C11 1_555 1_555
C12 O2 1_555 1_555
C13 C1 1_555 1_555
H10 C13 1_555 1_555
O9 Gd1 1_555 1_555
O13 Gd1 1_555 1_555
C1 C4 1_555 1_555
C9 C12 1_555 1_555
C11 C13 1_555 1_555
O3 C8 1_555 1_555
O12 C8 1_555 1_555
C8 C7 1_555 1_555
Gd5 O3 1_555 1_555
O9 C8_2 1_555 1_555
O5 C8_2 1_555 1_555
C8_2 C7_2 1_555 1_555
Gd5 O1_2 1_555 1_555
O1_2 C12_2 1_555 1_555
O2_2 Gd5 1_555 1_555
O11 C10_2 1_555 1_555
N1_2 N2_2 1_555 1_555
N2_2 C5_2 1_555 1_555
C1_2 C2_2 1_555 1_555
C2_2 H4_2 1_555 1_555
C3_2 C2_2 1_555 1_555
H5_2 C3_2 1_555 1_555
C4_2 N1_2 1_555 1_555
H7_2 C4_2 1_555 1_555
C5_2 C6_2 1_555 1_555
C9_2 C3_2 1_555 1_555
C10_2 C5_2 1_555 1_555
C11_2 C9_2 1_555 1_555
H9_2 C11_2 1_555 1_555
C12_2 O2_2 1_555 1_555
C13_2 C1_2 1_555 1_555
H10_2 C13_2 1_555 1_555
C1_2 C4_2 1_555 1_555
C9_2 C12_2 1_555 1_555
C11_2 C13_2 1_555 1_555
H1_2 O7_2 1_555 1_555
H2_2 O7_2 1_555 1_555
O8_2 H11_2 1_555 1_555

#END
