
###############################################################################
#
# This file contains modified crystal structure data generated from the
# MOF subset of the Cambridge Structural Database (CSD) v543 
# hosted by the Cambridge Crystallographic Data Centre (CCDC).
#
# This work is licensed under the Creative Commons
# Attribution-NonCommercial-ShareAlike 4.0 International License.
# To view a copy of this license, visit
# http://creativecommons.org/licenses/by-nc-sa/4.0/
# or send a letter to
# Creative Commons, PO Box 1866, Mountain View, CA 94042, USA.
#
# CIF created using the CSD Python API on 29 September 2022
# The structure has been converted into the P1 space group
# The structure has a 3D framework
# The original CSD entry GIDRET is in the monoclinic crystal system
# The framework has been calculated to contain at least 10.0% void space
# The void calculation uses a probe of radius 1.32A, grid spacing 0.4
# H atom positions have been added when not included in the experimental data
#
###############################################################################

data_GIDRET
_chemical_formula_moiety         '(C72 H64 Cl24 Hg12 N12 O30 Sm4)n'
_symmetry_cell_setting           triclinic
_symmetry_space_group_name_H-M   'P 1'
_symmetry_Int_Tables_number      1
_space_group_name_Hall           'P 1'
loop_
_symmetry_equiv_pos_site_id
_symmetry_equiv_pos_as_xyz
1 x,y,z
_cell_length_a                   11.8579(6)
_cell_length_b                   9.5430(5)
_cell_length_c                   32.8916(13)
_cell_angle_alpha                90
_cell_angle_beta                 94.316(4)
_cell_angle_gamma                90
_cell_volume                     3711.46
loop_
_atom_site_label
_atom_site_type_symbol
_atom_site_fract_x
_atom_site_fract_y
_atom_site_fract_z
Hg3 Hg 0.09613(4) 0.04154(5) 0.760988(14)
Cl5 Cl 0.0533(2) 0.0431(2) 0.69164(8)
Cl6 Cl 0.1305(3) 0.0365(4) 0.83105(10)
Cl7 Cl 0.25626(16) 0.2896(3) 0.74954(6)
Sm6 Sm 0.49960(4) 0.73001(4) 0.000386(11)
Hg2 Hg 0.08941(3) 0.57314(5) 0.763828(10)
Cl4 Cl 0.24374(16) 0.7896(3) 0.75046(6)
O1 O 0.1785(6) 0.6445(8) 0.4938(2)
O5 O 0.0388(6) 0.3661(8) 0.5574(2)
O7 O 0.3536(6) 0.3418(8) 0.9507(2)
O8 O 0.3836(5) 0.5772(7) 0.9604(2)
N2 N 0.0662(5) 0.5532(7) 0.6978(2)
N3 N 0.1527(5) 0.5385(7) 0.8241(2)
C7 C 0.0672(7) 0.6618(9) 0.6723(3)
H5 H 0.0829 0.7508 0.6828
C8 C 0.0466(7) 0.6469(10) 0.6332(3)
H6 H 0.0358 0.7256 0.6167
C9 C 0.0405(5) 0.5087(8) 0.6151(2)
C10 C 0.0386(6) 0.3980(8) 0.6435(2)
H7 H 0.0305 0.3073 0.6334
C11 C 0.0477(7) 0.4145(10) 0.6833(3)
H8 H 0.0422 0.3392 0.7010
C12 C 0.0245(8) 0.4892(10) 0.5713(3)
C13 C 0.1658(7) 0.4154(9) 0.8411(3)
H9 H 0.1378 0.3352 0.8278
C14 C 0.2269(9) 0.4070(12) 0.8821(3)
H10 H 0.2339 0.3193 0.8944
C15 C 0.2680(6) 0.5055(9) 0.9008(2)
C16 C 0.2469(8) 0.6392(11) 0.8893(3)
H11 H 0.2633 0.7157 0.9062
C17 C 0.1958(9) 0.6517(12) 0.8477(3)
H12 H 0.1916 0.7405 0.8361
C18 C 0.3414(7) 0.4822(10) 0.9422(3)
Hg4 Hg 0.40387(4) 0.54154(5) 0.739012(14)
Sm3 Sm 0.50040(4) 0.26999(4) 0.999614(11)
Sm4 Sm 0.00040(4) 0.23001(4) 0.499614(11)
O10 O 0.1191(6) 0.8824(7) 0.4553(2)
O12 O 0.1464(6) 0.8418(8) 0.5493(2)
H15 H 0.173776 0.590877 0.467855
H16 H 0.241518 0.713028 0.493806
Hg1 Hg 0.76523(3) 0.53340(5) 0.751618(10)
Sm1 Sm 0.99960(4) 0.76999(4) 0.500386(11)
Cl1 Cl 0.9275(2) 0.3263(3) 0.76989(8)
Cl2 Cl 0.7576(3) 0.5345(3) 0.68094(10)
Cl3 Cl 0.91907(16) 0.7597(2) 0.76829(8)
O2 O 0.7952(8) 0.6802(10) 0.5031(3)
O3 O 0.5842(6) 0.3865(8) 0.9458(2)
O4 O 0.6191(6) 0.6176(7) 0.9553(2)
O6 O 0.9869(7) 0.5992(9) 0.5492(2)
N1 N 0.7204(4) 0.5315(6) 0.81263(18)
C1 C 0.7107(8) 0.4077(11) 0.8317(3)
H1 H 0.7285 0.3243 0.8191
C2 C 0.6773(9) 0.4076(12) 0.8669(3)
H2 H 0.6546 0.3200 0.8755
C3 C 0.6686(7) 0.5020(10) 0.8924(3)
C4 C 0.6848(7) 0.6344(9) 0.8756(3)
H3 H 0.6740 0.7139 0.8912
C5 C 0.7146(9) 0.6484(12) 0.8386(4)
H4 H 0.7324 0.7368 0.8291
C6 C 0.6206(7) 0.4979(10) 0.9361(3)
O9 O 0.9158(6) 0.8865(8) 0.5542(2)
O11 O 0.9612(6) 0.6339(8) 0.4426(2)
O13 O 0.8836(5) 0.9228(7) 0.4604(2)
H13 H 0.790995 0.616568 0.526825
H14 H 0.743549 0.760947 0.50592
O1_2 O 0.3215(6) 0.1445(8) 0.0062(2)
O10_2 O 0.3809(6) 0.3824(7) 0.0447(2)
O11_2 O 0.5388(6) 0.1339(8) 0.0574(2)
O13_2 O 0.6164(5) 0.4228(7) 0.0396(2)
H15_2 H 0.326224 0.0908766 0.0321449
H16_2 H 0.258482 0.213028 0.00619403
Hg1_2 Hg 0.73477(3) 0.03340(5) 0.748382(10)
Hg2_2 Hg 0.41059(3) 0.07314(5) 0.736172(10)
Cl2_2 Cl 0.7424(3) 0.0345(3) 0.81906(10)
Cl3_2 Cl 0.58093(16) 0.2597(2) 0.73171(8)
Cl5_2 Cl 0.4467(2) 0.5431(2) 0.80836(8)
Cl6_2 Cl 0.3695(3) 0.5365(4) 0.66895(10)
O2_2 O 0.7048(8) 0.1802(10) 0.9969(3)
O4_2 O 0.8809(6) 0.1176(7) 0.5447(2)
O6_2 O 0.5131(7) 0.0992(9) 0.9508(2)
O8_2 O 0.1164(5) 0.0772(7) 0.5396(2)
N1_2 N 0.7796(4) 0.0315(6) 0.68737(18)
N2_2 N 0.4338(5) 0.0532(7) 0.8022(2)
N3_2 N 0.3473(5) 0.0385(7) 0.6759(2)
C3_2 C 0.8314(7) 0.0020(10) 0.6076(3)
C4_2 C 0.8152(7) 0.1344(9) 0.6244(3)
H3_2 H 0.8260 0.2139 0.6088
C5_2 C 0.7854(9) 0.1484(12) 0.6614(4)
H4_2 H 0.7676 0.2368 0.6709
C7_2 C 0.4328(7) 0.1618(9) 0.8277(3)
H5_2 H 0.4171 0.2508 0.8172
C8_2 C 0.4534(7) 0.1469(10) 0.8668(3)
H6_2 H 0.4642 0.2256 0.8833
C9_2 C 0.4595(5) 0.0087(8) 0.8849(2)
C15_2 C 0.2320(6) 0.0055(9) 0.5992(2)
C16_2 C 0.2531(8) 0.1392(11) 0.6107(3)
H11_2 H 0.2367 0.2157 0.5938
C17_2 C 0.3042(9) 0.1517(12) 0.6523(3)
H12_2 H 0.3084 0.2405 0.6639
H13_2 H 0.709005 0.116568 0.973175
H14_2 H 0.756451 0.260947 0.99408
Cl1_2 Cl 0.5725(2) 0.8263(3) 0.73011(8)
O5_2 O 0.4612(6) 0.8661(8) 0.9426(2)
C1_2 C 0.7893(8) 0.9077(11) 0.6683(3)
H1_2 H 0.7715 0.8243 0.6809
C2_2 C 0.8227(9) 0.9076(12) 0.6331(3)
H2_2 H 0.8454 0.8200 0.6245
C6_2 C 0.8794(7) 0.9979(10) 0.5639(3)
C10_2 C 0.4614(6) 0.8980(8) 0.8565(2)
H7_2 H 0.4695 0.8073 0.8666
C11_2 C 0.4523(7) 0.9145(10) 0.8167(3)
H8_2 H 0.4578 0.8392 0.7990
C12_2 C 0.4755(8) 0.9892(10) 0.9287(3)
C13_2 C 0.3342(7) 0.9154(9) 0.6589(3)
H9_2 H 0.3622 0.8352 0.6722
C14_2 C 0.2731(9) 0.9070(12) 0.6179(3)
H10_2 H 0.2661 0.8193 0.6056
C18_2 C 0.1586(7) 0.9822(10) 0.5578(3)
Hg1_3 Hg 0.23477(3) 0.46660(5) 0.248382(10)
Cl1_3 Cl 0.0725(2) 0.6737(3) 0.23011(8)
Cl2_3 Cl 0.2424(3) 0.4655(3) 0.31906(10)
Cl3_3 Cl 0.08093(16) 0.2403(2) 0.23171(8)
O2_3 O 0.2048(8) 0.3198(10) 0.4969(3)
O3_2 O 0.4158(6) 0.6135(8) 0.0542(2)
O6_3 O 0.0131(7) 0.4008(9) 0.4508(2)
N1_3 N 0.2796(4) 0.4685(6) 0.18737(18)
C1_3 C 0.2893(8) 0.5923(11) 0.1683(3)
H1_3 H 0.2715 0.6757 0.1809
C2_3 C 0.3227(9) 0.5924(12) 0.1331(3)
H2_3 H 0.3454 0.6800 0.1245
C3_3 C 0.3314(7) 0.4980(10) 0.1076(3)
C4_3 C 0.3152(7) 0.3656(9) 0.1244(3)
H3_3 H 0.3260 0.2861 0.1088
C5_3 C 0.2854(9) 0.3516(12) 0.1614(4)
H4_3 H 0.2676 0.2632 0.1709
C6_3 C 0.3794(7) 0.5021(10) 0.0639(3)
O9_2 O 0.0842(6) 0.1135(8) 0.4458(2)
H13_3 H 0.209005 0.383432 0.473175
H14_3 H 0.256451 0.239053 0.49408
Hg2_3 Hg 0.91059(3) 0.42686(5) 0.236172(10)
Cl4_2 Cl 0.75626(16) 0.2104(3) 0.24954(6)
O1_3 O 0.8215(6) 0.3555(8) 0.5062(2)
O7_2 O 0.6464(6) 0.6582(8) 0.0493(2)
N2_3 N 0.9338(5) 0.4468(7) 0.3022(2)
N3_3 N 0.8473(5) 0.4615(7) 0.1759(2)
C7_3 C 0.9328(7) 0.3382(9) 0.3277(3)
H5_3 H 0.9171 0.2492 0.3172
C8_3 C 0.9534(7) 0.3531(10) 0.3668(3)
H6_3 H 0.9642 0.2744 0.3833
C9_3 C 0.9595(5) 0.4913(8) 0.3849(2)
C10_3 C 0.9614(6) 0.6020(8) 0.3565(2)
H7_3 H 0.9695 0.6927 0.3666
C11_3 C 0.9523(7) 0.5855(10) 0.3167(3)
H8_3 H 0.9578 0.6608 0.2990
C12_3 C 0.9755(8) 0.5108(10) 0.4287(3)
C13_3 C 0.8342(7) 0.5846(9) 0.1589(3)
H9_3 H 0.8622 0.6648 0.1722
C14_3 C 0.7731(9) 0.5930(12) 0.1179(3)
H10_3 H 0.7661 0.6807 0.1056
C15_3 C 0.7320(6) 0.4945(9) 0.0992(2)
C16_3 C 0.7531(8) 0.3608(11) 0.1107(3)
H11_3 H 0.7367 0.2843 0.0938
C17_3 C 0.8042(9) 0.3483(12) 0.1523(3)
H12_3 H 0.8084 0.2595 0.1639
C18_3 C 0.6586(7) 0.5178(10) 0.0578(3)
Hg4_2 Hg 0.59613(4) 0.45846(5) 0.260988(14)
O12_2 O 0.8536(6) 0.1582(8) 0.4507(2)
H15_3 H 0.826224 0.409123 0.532145
H16_3 H 0.758482 0.286972 0.506194
Hg3_2 Hg 0.90387(4) 0.95846(5) 0.239012(14)
Cl5_3 Cl 0.9467(2) 0.9569(2) 0.30836(8)
Cl6_3 Cl 0.8695(3) 0.9635(4) 0.16895(10)
Cl7_2 Cl 0.74374(16) 0.7104(3) 0.25046(6)
Cl1_4 Cl 0.4275(2) 0.1737(3) 0.26989(8)
C1_4 C 0.2107(8) 0.0923(11) 0.3317(3)
H1_4 H 0.2285 0.1757 0.3191
C2_4 C 0.1773(9) 0.0924(12) 0.3669(3)
H2_4 H 0.1546 0.1800 0.3755
C6_4 C 0.1206(7) 0.0021(10) 0.4361(3)
C10_4 C 0.5386(6) 0.1020(8) 0.1435(2)
H7_4 H 0.5305 0.1927 0.1334
C11_4 C 0.5477(7) 0.0855(10) 0.1833(3)
H8_4 H 0.5422 0.1608 0.2010
C12_4 C 0.5245(8) 0.0108(10) 0.0713(3)
C13_4 C 0.6658(7) 0.0846(9) 0.3411(3)
H9_4 H 0.6378 0.1648 0.3278
C14_4 C 0.7269(9) 0.0930(12) 0.3821(3)
H10_4 H 0.7339 0.1807 0.3944
C18_4 C 0.8414(7) 0.0178(10) 0.4422(3)
Hg1_4 Hg 0.26523(3) 0.96660(5) 0.251618(10)
Hg2_4 Hg 0.58941(3) 0.92686(5) 0.263828(10)
Cl2_4 Cl 0.2576(3) 0.9655(3) 0.18094(10)
Cl3_4 Cl 0.41907(16) 0.7403(2) 0.26829(8)
Cl5_4 Cl 0.5533(2) 0.4569(2) 0.19164(8)
Cl6_4 Cl 0.6305(3) 0.4635(4) 0.33105(10)
O2_4 O 0.2952(8) 0.8198(10) 0.0031(3)
O6_4 O 0.4869(7) 0.9008(9) 0.0492(2)
N1_4 N 0.2204(4) 0.9685(6) 0.31263(18)
N2_4 N 0.5662(5) 0.9468(7) 0.1978(2)
N3_4 N 0.6527(5) 0.9615(7) 0.3241(2)
C3_4 C 0.1686(7) 0.9980(10) 0.3924(3)
C4_4 C 0.1848(7) 0.8656(9) 0.3756(3)
H3_4 H 0.1740 0.7861 0.3912
C5_4 C 0.2146(9) 0.8516(12) 0.3386(4)
H4_4 H 0.2324 0.7632 0.3291
C7_4 C 0.5672(7) 0.8382(9) 0.1723(3)
H5_4 H 0.5829 0.7492 0.1828
C8_4 C 0.5466(7) 0.8531(10) 0.1332(3)
H6_4 H 0.5358 0.7744 0.1167
C9_4 C 0.5405(5) 0.9913(8) 0.1151(2)
C15_4 C 0.7680(6) 0.9945(9) 0.4008(2)
C16_4 C 0.7469(8) 0.8608(11) 0.3893(3)
H11_4 H 0.7633 0.7843 0.4062
C17_4 C 0.6958(9) 0.8483(12) 0.3477(3)
H12_4 H 0.6916 0.7595 0.3361
H13_4 H 0.290995 0.883432 0.0268252
H14_4 H 0.243549 0.739053 0.00591994
O1_4 O 0.6785(6) 0.8555(8) 0.9938(2)
H15_4 H 0.673776 0.909123 0.967855
H16_4 H 0.741518 0.786972 0.993806
loop_
_geom_bond_atom_site_label_1
_geom_bond_atom_site_label_2
_geom_bond_site_symmetry_1
_geom_bond_site_symmetry_2
Cl5 Hg3 1_555 1_555
Cl6 Hg3 1_555 1_555
Cl7 Hg3 1_555 1_555
Cl4 Hg2 1_555 1_555
O5 C12 1_555 1_555
O7 C18 1_555 1_555
O8 C18 1_555 1_555
N2 Hg2 1_555 1_555
N3 Hg2 1_555 1_555
C7 N2 1_555 1_555
H5 C7 1_555 1_555
C8 C7 1_555 1_555
H6 C8 1_555 1_555
C9 C8 1_555 1_555
C10 C9 1_555 1_555
H7 C10 1_555 1_555
C11 N2 1_555 1_555
H8 C11 1_555 1_555
C13 N3 1_555 1_555
H9 C13 1_555 1_555
C14 C13 1_555 1_555
H10 C14 1_555 1_555
C15 C14 1_555 1_555
C16 C15 1_555 1_555
H11 C16 1_555 1_555
C17 N3 1_555 1_555
H12 C17 1_555 1_555
C18 C15 1_555 1_555
Hg4 Cl4 1_555 1_555
Sm3 O7 1_555 1_555
Sm4 O5 1_555 1_555
C9 C12 1_555 1_555
C10 C11 1_555 1_555
C16 C17 1_555 1_555
O1 H15 1_555 1_555
O1 H16 1_555 1_555
Hg1 Cl1 1_555 1_555
Cl2 Hg1 1_555 1_555
Cl3 Hg1 1_555 1_555
O2 Sm1 1_555 1_555
O3 C6 1_555 1_555
O4 C6 1_555 1_555
O6 Sm1 1_555 1_555
N1 Hg1 1_555 1_555
C1 N1 1_555 1_555
H1 C1 1_555 1_555
C2 C1 1_555 1_555
H2 C2 1_555 1_555
C3 C2 1_555 1_555
C4 C3 1_555 1_555
H3 C4 1_555 1_555
C5 N1 1_555 1_555
H4 C5 1_555 1_555
C6 C3 1_555 1_555
Sm3 O3 1_555 1_555
O9 Sm1 1_555 1_555
O11 Sm1 1_555 1_555
O13 Sm1 1_555 1_555
C4 C5 1_555 1_555
O2 H13 1_555 1_555
O2 H14 1_555 1_555
O1_2 H15_2 1_555 1_555
O1_2 H16_2 1_555 1_555
Hg4 Cl7 1_555 1_555
Cl2_2 Hg1_2 1_555 1_555
Cl3_2 Hg1_2 1_555 1_555
Cl7 Hg2_2 1_555 1_555
Cl5_2 Hg4 1_555 1_555
Cl6_2 Hg4 1_555 1_555
O2_2 Sm3 1_555 1_555
O6_2 Sm3 1_555 1_555
N1_2 Hg1_2 1_555 1_555
N2_2 Hg2_2 1_555 1_555
N3_2 Hg2_2 1_555 1_555
C4_2 C3_2 1_555 1_555
H3_2 C4_2 1_555 1_555
C5_2 N1_2 1_555 1_555
H4_2 C5_2 1_555 1_555
C7_2 N2_2 1_555 1_555
H5_2 C7_2 1_555 1_555
C8_2 C7_2 1_555 1_555
H6_2 C8_2 1_555 1_555
C9_2 C8_2 1_555 1_555
C16_2 C15_2 1_555 1_555
H11_2 C16_2 1_555 1_555
C17_2 N3_2 1_555 1_555
H12_2 C17_2 1_555 1_555
Sm4 O8_2 1_555 1_555
Hg2_2 Cl3_2 1_555 1_555
C4_2 C5_2 1_555 1_555
C16_2 C17_2 1_555 1_555
O2_2 H13_2 1_555 1_555
O2_2 H14_2 1_555 1_555
O9 C6_2 1_555 1_555
O5_2 C12_2 1_555 1_555
O12 C18_2 1_555 1_555
H1_2 C1_2 1_555 1_555
C2_2 C1_2 1_555 1_555
H2_2 C2_2 1_555 1_555
H7_2 C10_2 1_555 1_555
H8_2 C11_2 1_555 1_555
H9_2 C13_2 1_555 1_555
C14_2 C13_2 1_555 1_555
H10_2 C14_2 1_555 1_555
C10_2 C11_2 1_555 1_555
Hg1_3 Cl1_3 1_555 1_555
Cl2_3 Hg1_3 1_555 1_555
Cl3_3 Hg1_3 1_555 1_555
O2_3 Sm4 1_555 1_555
O3_2 C6_3 1_555 1_555
O10_2 C6_3 1_555 1_555
O6_3 Sm4 1_555 1_555
N1_3 Hg1_3 1_555 1_555
C1_3 N1_3 1_555 1_555
H1_3 C1_3 1_555 1_555
C2_3 C1_3 1_555 1_555
H2_3 C2_3 1_555 1_555
C3_3 C2_3 1_555 1_555
C4_3 C3_3 1_555 1_555
H3_3 C4_3 1_555 1_555
C5_3 N1_3 1_555 1_555
H4_3 C5_3 1_555 1_555
C6_3 C3_3 1_555 1_555
Sm6 O3_2 1_555 1_555
O9_2 Sm4 1_555 1_555
C4_3 C5_3 1_555 1_555
O2_3 H13_3 1_555 1_555
O2_3 H14_3 1_555 1_555
Cl4_2 Hg2_3 1_555 1_555
O11 C12_3 1_555 1_555
O7_2 C18_3 1_555 1_555
O13_2 C18_3 1_555 1_555
N2_3 Hg2_3 1_555 1_555
N3_3 Hg2_3 1_555 1_555
C7_3 N2_3 1_555 1_555
H5_3 C7_3 1_555 1_555
C8_3 C7_3 1_555 1_555
H6_3 C8_3 1_555 1_555
C9_3 C8_3 1_555 1_555
C10_3 C9_3 1_555 1_555
H7_3 C10_3 1_555 1_555
C11_3 N2_3 1_555 1_555
H8_3 C11_3 1_555 1_555
C13_3 N3_3 1_555 1_555
H9_3 C13_3 1_555 1_555
C14_3 C13_3 1_555 1_555
H10_3 C14_3 1_555 1_555
C15_3 C14_3 1_555 1_555
C16_3 C15_3 1_555 1_555
H11_3 C16_3 1_555 1_555
C17_3 N3_3 1_555 1_555
H12_3 C17_3 1_555 1_555
C18_3 C15_3 1_555 1_555
Hg4_2 Cl4_2 1_555 1_555
Sm6 O7_2 1_555 1_555
C9_3 C12_3 1_555 1_555
C10_3 C11_3 1_555 1_555
C16_3 C17_3 1_555 1_555
O1_3 H15_3 1_555 1_555
O1_3 H16_3 1_555 1_555
Cl5_3 Hg3_2 1_555 1_555
Cl6_3 Hg3_2 1_555 1_555
Cl7_2 Hg3_2 1_555 1_555
O9_2 C6_4 1_555 1_555
O11_2 C12_4 1_555 1_555
O12_2 C18_4 1_555 1_555
H1_4 C1_4 1_555 1_555
C2_4 C1_4 1_555 1_555
H2_4 C2_4 1_555 1_555
H7_4 C10_4 1_555 1_555
H8_4 C11_4 1_555 1_555
H9_4 C13_4 1_555 1_555
C14_4 C13_4 1_555 1_555
H10_4 C14_4 1_555 1_555
C10_4 C11_4 1_555 1_555
Hg4_2 Cl7_2 1_555 1_555
Cl2_4 Hg1_4 1_555 1_555
Cl3_4 Hg1_4 1_555 1_555
Cl7_2 Hg2_4 1_555 1_555
Cl5_4 Hg4_2 1_555 1_555
Cl6_4 Hg4_2 1_555 1_555
O2_4 Sm6 1_555 1_555
O6_4 Sm6 1_555 1_555
N1_4 Hg1_4 1_555 1_555
N2_4 Hg2_4 1_555 1_555
N3_4 Hg2_4 1_555 1_555
C4_4 C3_4 1_555 1_555
H3_4 C4_4 1_555 1_555
C5_4 N1_4 1_555 1_555
H4_4 C5_4 1_555 1_555
C7_4 N2_4 1_555 1_555
H5_4 C7_4 1_555 1_555
C8_4 C7_4 1_555 1_555
H6_4 C8_4 1_555 1_555
C9_4 C8_4 1_555 1_555
C16_4 C15_4 1_555 1_555
H11_4 C16_4 1_555 1_555
C17_4 N3_4 1_555 1_555
H12_4 C17_4 1_555 1_555
Hg2_4 Cl3_4 1_555 1_555
C4_4 C5_4 1_555 1_555
C16_4 C17_4 1_555 1_555
O2_4 H13_4 1_555 1_555
O2_4 H14_4 1_555 1_555
O1_4 H15_4 1_555 1_555
O1_4 H16_4 1_555 1_555

#END
