
###############################################################################
#
# This file contains modified crystal structure data generated from the
# MOF subset of the Cambridge Structural Database (CSD) v543 
# hosted by the Cambridge Crystallographic Data Centre (CCDC).
#
# This work is licensed under the Creative Commons
# Attribution-NonCommercial-ShareAlike 4.0 International License.
# To view a copy of this license, visit
# http://creativecommons.org/licenses/by-nc-sa/4.0/
# or send a letter to
# Creative Commons, PO Box 1866, Mountain View, CA 94042, USA.
#
# CIF created using the CSD Python API on 29 September 2022
# The structure has been converted into the P1 space group
# The structure has a 3D framework
# The original CSD entry GIGJEO is in the monoclinic crystal system
# The framework has been calculated to contain at least 10.0% void space
# The void calculation uses a probe of radius 1.32A, grid spacing 0.4
#
###############################################################################

data_GIGJEO
_chemical_formula_moiety         '(C64 H88 Cd12 Cl2 N36 O32)n'
_symmetry_cell_setting           triclinic
_symmetry_space_group_name_H-M   'P 1'
_symmetry_Int_Tables_number      1
_space_group_name_Hall           'P 1'
loop_
_symmetry_equiv_pos_site_id
_symmetry_equiv_pos_as_xyz
1 x,y,z
_cell_length_a                   9.7575(3)
_cell_length_b                   13.0374(5)
_cell_length_c                   22.6976(9)
_cell_angle_alpha                90
_cell_angle_beta                 91.641(2)
_cell_angle_gamma                90
_cell_volume                     2886.23
loop_
_atom_site_label
_atom_site_type_symbol
_atom_site_fract_x
_atom_site_fract_y
_atom_site_fract_z
Cd2 Cd 0.02624(5) 0.61326(4) 0.25720(2)
O6 O 0.1651(6) 0.5639(6) 0.1792(3)
N7 N 0.0142(7) 0.7764(5) 0.2217(3)
C15 C 0.0130(9) 0.8638(6) 0.2518(3)
H13 H 0.029190 0.867628 0.292318
H19 H 0.115(9) 0.536(8) 0.147(3)
H20 H 0.243(6) 0.521(6) 0.178(4)
Cd7 Cd 0.05677(6) 0.51089(4) 0.41842(2)
N11 N 0.2064(7) 0.6541(5) 0.3215(3)
N12 N 0.0133(7) 0.4442(5) 0.2816(3)
H21 H 0.664(9) 0.009(3) 0.481(4)
Cd6 Cd 0.97376(5) 0.11326(4) 0.24280(2)
Cd8 Cd 0.94323(6) 0.01089(4) 0.08158(2)
Cd1 Cd 0.54443(5) 0.83973(4) 0.40603(2)
O1 O 0.4174(6) 0.8790(5) 0.4863(2)
O2 O 0.5424(7) 0.7439(5) 0.5067(3)
O3 O 0.6030(6) 0.5584(5) 0.8295(3)
O4 O 0.3830(7) 0.5336(5) 0.8336(3)
O5 O 0.6990(7) 0.9446(5) 0.4688(3)
O7 O 0.8497(7) 0.5794(6) 0.1815(3)
O8 O 0.2727(10) 0.4091(8) 0.4437(4)
N1 N 0.7214(7) 0.7367(5) 0.3839(3)
N2 N 0.8860(7) 0.6207(5) 0.3865(3)
N3 N 0.8718(7) 0.6570(5) 0.3296(3)
N4 N 0.3822(7) 0.7286(5) 0.3692(3)
N6 N 0.2231(7) 0.6086(5) 0.3758(3)
N8 N 0.9867(7) 0.9442(5) 0.2184(3)
N9 N 0.9749(7) 0.9076(5) 0.1620(3)
C1 C 0.4649(9) 0.8120(7) 0.5222(3)
C2 C 0.4225(14) 0.8244(9) 0.5855(4)
H1 H 0.470711 0.883093 0.602205
H2 H 0.325336 0.840089 0.585319
C3 C 0.4479(11) 0.7336(8) 0.6259(3)
C4 C 0.3460(11) 0.6646(11) 0.6326(5)
H3 H 0.263986 0.672728 0.611257
C5 C 0.3611(10) 0.5819(10) 0.6708(5)
H4 H 0.288049 0.536980 0.675192
C6 C 0.4807(9) 0.5650(7) 0.7019(3)
C7 C 0.5841(10) 0.6356(8) 0.6948(4)
H5 H 0.666945 0.627199 0.715506
C8 C 0.5668(11) 0.7190(8) 0.6573(4)
H6 H 0.637984 0.765762 0.653623
C9 C 0.4921(10) 0.4784(6) 0.7472(4)
H7 H 0.415545 0.431418 0.742068
H8 H 0.576422 0.440350 0.742187
C10 C 0.4912(9) 0.5261(6) 0.8079(3)
C11 C 0.7729(9) 0.7242(7) 0.3305(4)
H9 H 0.741302 0.759746 0.297293
C12 C 0.7944(9) 0.6710(7) 0.4164(4)
H10 H 0.782019 0.661369 0.456480
C13 C 0.3038(9) 0.7251(7) 0.3204(4)
H11 H 0.316014 0.768390 0.288415
C14 C 0.3273(9) 0.6547(7) 0.4014(4)
H12 H 0.360408 0.637542 0.438898
C16 C 0.9921(9) 0.8082(6) 0.1659(3)
H14 H 0.989380 0.764331 0.133518
H15 H 0.286(15) 0.397(11) 0.4030(17)
H16 H 0.32(2) 0.357(12) 0.467(8)
H17 H 0.86(2) 0.595(16) 0.141(2)
H18 H 0.765(5) 0.546(6) 0.187(4)
H22 H 0.783(6) 0.975(8) 0.459(5)
Cd4 Cd 0.54443(5) 0.66027(4) 0.90603(2)
Cl2 Cl 0.0790(2) 0.61796(17) 0.51722(9)
O9 O 0.6030(6) 0.9416(5) 0.3295(3)
O10 O 0.3830(7) 0.9664(5) 0.3336(3)
N13 N 0.0251(7) 0.4076(5) 0.3380(3)
Cl1 Cl 0.9210(2) 0.38204(17) 0.48278(9)
Cd9 Cd 0.94323(6) 0.48911(4) 0.58158(2)
N10 N 0.1140(7) 0.1207(5) 0.1135(3)
Cl1_2 Cl 0.0790(2) 0.88204(17) 0.01722(9)
Cd9_2 Cd 0.05677(6) 0.98911(4) 0.91842(2)
Cd1_2 Cd 0.45557(5) 0.33973(4) 0.09397(2)
O1_2 O 0.5826(6) 0.3790(5) 0.0137(2)
O5_2 O 0.3010(7) 0.4446(5) 0.0312(3)
O7_2 O 0.1503(7) 0.0794(6) 0.3185(3)
N1_2 N 0.2786(7) 0.2367(5) 0.1161(3)
N3_2 N 0.1282(7) 0.1570(5) 0.1704(3)
N4_2 N 0.6178(7) 0.2286(5) 0.1308(3)
N5 N 0.7936(7) 0.1541(5) 0.1785(3)
N6_2 N 0.7769(7) 0.1086(5) 0.1242(3)
C11_2 C 0.2271(9) 0.2242(7) 0.1695(4)
H9_2 H 0.258698 0.259746 0.202707
C12_2 C 0.2056(9) 0.1710(7) 0.0836(4)
H10_2 H 0.217981 0.161369 0.043520
C13_2 C 0.6962(9) 0.2251(7) 0.1796(4)
H11_2 H 0.683986 0.268390 0.211585
C14_2 C 0.6727(9) 0.1547(7) 0.0986(4)
H12_2 H 0.639592 0.137542 0.061102
C16_2 C 0.0079(9) 0.3082(6) 0.3341(3)
H14_2 H 0.010620 0.264331 0.366482
H17_2 H 0.14(2) 0.095(16) 0.359(2)
H18_2 H 0.235(5) 0.046(6) 0.313(4)
H21_2 H 0.336(9) 0.509(3) 0.019(4)
H22_2 H 0.217(6) 0.475(8) 0.041(5)
O9_2 O 0.3970(6) 0.4416(5) 0.1705(3)
O10_2 O 0.6170(7) 0.4664(5) 0.1664(3)
O2_2 O 0.4576(7) 0.2439(5) 0.9933(3)
O3_2 O 0.3970(6) 0.0584(5) 0.6705(3)
O4_2 O 0.6170(7) 0.0336(5) 0.6664(3)
C1_2 C 0.5351(9) 0.3120(7) 0.9778(3)
C2_2 C 0.5775(14) 0.3244(9) 0.9145(4)
H1_2 H 0.529289 0.383093 0.897795
H2_2 H 0.674664 0.340089 0.914681
C3_2 C 0.5521(11) 0.2336(8) 0.8741(3)
C4_2 C 0.6540(11) 0.1646(11) 0.8674(5)
H3_2 H 0.736014 0.172728 0.888743
C5_2 C 0.6389(10) 0.0819(10) 0.8292(5)
H4_2 H 0.711951 0.036980 0.824808
C6_2 C 0.5193(9) 0.0650(7) 0.7981(3)
C7_2 C 0.4159(10) 0.1356(8) 0.8052(4)
H5_2 H 0.333055 0.127199 0.784494
C8_2 C 0.4332(11) 0.2190(8) 0.8427(4)
H6_2 H 0.362016 0.265762 0.846377
C10_2 C 0.5088(9) 0.0261(6) 0.6921(3)
Cd4_2 Cd 0.45557(5) 0.16027(4) 0.59397(2)
Cl2_2 Cl 0.9210(2) 0.11796(17) 0.98278(9)
O8_2 O 0.7273(10) 0.9091(8) 0.0563(4)
H15_2 H 0.714(15) 0.897(11) 0.0970(17)
H16_2 H 0.68(2) 0.857(12) 0.033(8)
O6_2 O 0.8349(6) 0.0639(6) 0.3208(3)
N7_2 N 0.9858(7) 0.2764(5) 0.2783(3)
C15_2 C 0.9870(9) 0.3638(6) 0.2482(3)
H13_2 H 0.970810 0.367628 0.207682
H19_2 H 0.885(9) 0.036(8) 0.353(3)
H20_2 H 0.757(6) 0.021(6) 0.322(4)
N10_2 N 0.1140(7) 0.3793(5) 0.6135(3)
O1_3 O 0.5826(6) 0.1210(5) 0.5137(2)
O2_3 O 0.4576(7) 0.2561(5) 0.4933(3)
O5_3 O 0.3010(7) 0.0554(5) 0.5312(3)
O7_3 O 0.1503(7) 0.4206(6) 0.8185(3)
O8_3 O 0.7273(10) 0.5909(8) 0.5563(4)
N1_3 N 0.2786(7) 0.2633(5) 0.6161(3)
N3_3 N 0.1282(7) 0.3430(5) 0.6704(3)
N4_3 N 0.6178(7) 0.2714(5) 0.6308(3)
N5_2 N 0.7936(7) 0.3459(5) 0.6785(3)
N6_3 N 0.7769(7) 0.3914(5) 0.6242(3)
N8_2 N 0.0133(7) 0.0558(5) 0.7816(3)
N9_2 N 0.0251(7) 0.0924(5) 0.8380(3)
C1_3 C 0.5351(9) 0.1880(7) 0.4778(3)
C2_3 C 0.5775(14) 0.1756(9) 0.4145(4)
H1_3 H 0.529289 0.116907 0.397795
H2_3 H 0.674664 0.159911 0.414681
C3_3 C 0.5521(11) 0.2664(8) 0.3741(3)
C4_3 C 0.6540(11) 0.3354(11) 0.3674(5)
H3_3 H 0.736014 0.327272 0.388743
C5_3 C 0.6389(10) 0.4181(10) 0.3292(5)
H4_3 H 0.711951 0.463020 0.324808
C6_3 C 0.5193(9) 0.4350(7) 0.2981(3)
C7_3 C 0.4159(10) 0.3644(8) 0.3052(4)
H5_3 H 0.333055 0.372801 0.284494
C8_3 C 0.4332(11) 0.2810(8) 0.3427(4)
H6_3 H 0.362016 0.234238 0.346377
C9_2 C 0.5079(10) 0.5216(6) 0.2528(4)
H7_2 H 0.584455 0.568582 0.257932
H8_2 H 0.423578 0.559650 0.257813
C10_3 C 0.5088(9) 0.4739(6) 0.1921(3)
C11_3 C 0.2271(9) 0.2758(7) 0.6695(4)
H9_3 H 0.258698 0.240254 0.702707
C12_3 C 0.2056(9) 0.3290(7) 0.5836(4)
H10_3 H 0.217981 0.338631 0.543520
C13_3 C 0.6962(9) 0.2749(7) 0.6796(4)
H11_3 H 0.683986 0.231610 0.711585
C14_3 C 0.6727(9) 0.3453(7) 0.5986(4)
H12_3 H 0.639592 0.362458 0.561102
C16_3 C 0.0079(9) 0.1918(6) 0.8341(3)
H14_3 H 0.010620 0.235669 0.866482
H15_3 H 0.714(15) 0.603(11) 0.5970(17)
H16_3 H 0.68(2) 0.643(12) 0.533(8)
H17_3 H 0.14(2) 0.405(16) 0.859(2)
H18_3 H 0.235(5) 0.454(6) 0.813(4)
H22_3 H 0.217(6) 0.025(8) 0.541(5)
Cd5 Cd 0.97376(5) 0.38674(4) 0.74280(2)
N13_2 N 0.9749(7) 0.5924(5) 0.6620(3)
H21_3 H 0.336(9) 0.991(3) 0.519(4)
Cd6_2 Cd 0.02624(5) 0.88674(4) 0.75720(2)
O6_3 O 0.8349(6) 0.4361(6) 0.8208(3)
N7_3 N 0.9858(7) 0.2236(5) 0.7783(3)
C15_3 C 0.9870(9) 0.1362(6) 0.7482(3)
H13_3 H 0.970810 0.132372 0.707682
H19_3 H 0.885(9) 0.464(8) 0.853(3)
H20_3 H 0.757(6) 0.479(6) 0.822(4)
N12_2 N 0.9867(7) 0.5558(5) 0.7184(3)
O6_4 O 0.1651(6) 0.9361(6) 0.6792(3)
N7_4 N 0.0142(7) 0.7236(5) 0.7217(3)
C15_4 C 0.0130(9) 0.6362(6) 0.7518(3)
H13_4 H 0.029190 0.632372 0.792318
H19_4 H 0.115(9) 0.964(8) 0.647(3)
H20_4 H 0.243(6) 0.979(6) 0.678(4)
N11_2 N 0.2064(7) 0.8459(5) 0.8215(3)
O8_4 O 0.2727(10) 0.0909(8) 0.9437(4)
H15_4 H 0.286(15) 0.103(11) 0.9030(17)
H16_4 H 0.32(2) 0.143(12) 0.967(8)
O2_4 O 0.5424(7) 0.7561(5) 0.0067(3)
C1_4 C 0.4649(9) 0.6880(7) 0.0222(3)
C2_4 C 0.4225(14) 0.6756(9) 0.0855(4)
H1_4 H 0.470711 0.616907 0.102205
H2_4 H 0.325336 0.659911 0.085319
C3_4 C 0.4479(11) 0.7664(8) 0.1259(3)
C4_4 C 0.3460(11) 0.8354(11) 0.1326(5)
H3_4 H 0.263986 0.827272 0.111257
C5_4 C 0.3611(10) 0.9181(10) 0.1708(5)
H4_4 H 0.288049 0.963020 0.175192
C6_4 C 0.4807(9) 0.9350(7) 0.2019(3)
C7_4 C 0.5841(10) 0.8644(8) 0.1948(4)
H5_4 H 0.666945 0.872801 0.215506
C8_4 C 0.5668(11) 0.7810(8) 0.1573(4)
H6_4 H 0.637984 0.734238 0.153623
C10_4 C 0.4912(9) 0.9739(6) 0.3079(3)
O1_4 O 0.4174(6) 0.6210(5) 0.9863(2)
O5_4 O 0.6990(7) 0.5554(5) 0.9688(3)
O7_4 O 0.8497(7) 0.9206(6) 0.6815(3)
N1_4 N 0.7214(7) 0.7633(5) 0.8839(3)
N2_2 N 0.8860(7) 0.8793(5) 0.8865(3)
N3_4 N 0.8718(7) 0.8430(5) 0.8296(3)
N4_4 N 0.3822(7) 0.7714(5) 0.8692(3)
N6_4 N 0.2231(7) 0.8914(5) 0.8758(3)
C11_4 C 0.7729(9) 0.7758(7) 0.8305(4)
H9_4 H 0.741302 0.740254 0.797293
C12_4 C 0.7944(9) 0.8290(7) 0.9164(4)
H10_4 H 0.782019 0.838631 0.956480
C13_4 C 0.3038(9) 0.7749(7) 0.8204(4)
H11_4 H 0.316014 0.731610 0.788415
C14_4 C 0.3273(9) 0.8453(7) 0.9014(4)
H12_4 H 0.360408 0.862458 0.938898
C16_4 C 0.9921(9) 0.6918(6) 0.6659(3)
H14_4 H 0.989380 0.735669 0.633518
H17_4 H 0.86(2) 0.905(16) 0.641(2)
H18_4 H 0.765(5) 0.954(6) 0.687(4)
H21_4 H 0.664(9) 0.491(3) 0.981(4)
H22_4 H 0.783(6) 0.525(8) 0.959(5)
C9_3 C 0.5079(10) 0.9784(6) 0.7528(4)
H7_3 H 0.584455 0.931418 0.757932
H8_3 H 0.423578 0.940350 0.757813
C9_4 C 0.4921(10) 0.0216(6) 0.2472(4)
H7_4 H 0.415545 0.068582 0.242068
H8_4 H 0.576422 0.059650 0.242187
loop_
_geom_bond_atom_site_label_1
_geom_bond_atom_site_label_2
_geom_bond_site_symmetry_1
_geom_bond_site_symmetry_2
Cd2 O6 1_555 1_555
O6 H19 1_555 1_555
N7 Cd2 1_555 1_555
C15 N7 1_555 1_555
H13 C15 1_555 1_555
H20 O6 1_555 1_555
N11 Cd2 1_555 1_555
N12 Cd2 1_555 1_555
Cd1 O1 1_555 1_555
O1 C1 1_555 1_555
O2 Cd1 1_555 1_555
O3 C10 1_555 1_555
O4 C10 1_555 1_555
O5 Cd1 1_555 1_555
O8 Cd7 1_555 1_555
N1 Cd1 1_555 1_555
N2 N3 1_555 1_555
N4 Cd1 1_555 1_555
N11 N6 1_555 1_555
N6 Cd7 1_555 1_555
N8 N9 1_555 1_555
N9 C16 1_555 1_555
C1 O2 1_555 1_555
C2 C1 1_555 1_555
H1 C2 1_555 1_555
H2 C2 1_555 1_555
C3 C2 1_555 1_555
C4 C3 1_555 1_555
H3 C4 1_555 1_555
C5 C4 1_555 1_555
H4 C5 1_555 1_555
C6 C5 1_555 1_555
C7 C6 1_555 1_555
H5 C7 1_555 1_555
C8 C3 1_555 1_555
H6 C8 1_555 1_555
C9 C6 1_555 1_555
H7 C9 1_555 1_555
H8 C9 1_555 1_555
C10 C9 1_555 1_555
C11 N1 1_555 1_555
H9 C11 1_555 1_555
C12 N1 1_555 1_555
H10 C12 1_555 1_555
C13 N4 1_555 1_555
H11 C13 1_555 1_555
C14 N4 1_555 1_555
H12 C14 1_555 1_555
H14 C16 1_555 1_555
H15 O8 1_555 1_555
H16 O8 1_555 1_555
H17 O7 1_555 1_555
H18 O7 1_555 1_555
H22 O5 1_555 1_555
Cd4 O3 1_555 1_555
Cl2 Cd7 1_555 1_555
O9 Cd1 1_555 1_555
O10 Cd1 1_555 1_555
N13 Cd7 1_555 1_555
O4 Cd4 1_555 1_555
N2 C12 1_555 1_555
N3 C11 1_555 1_555
N11 C13 1_555 1_555
N6 C14 1_555 1_555
C7 C8 1_555 1_555
Cl1 Cd9 1_555 1_555
Cd1_2 O1_2 1_555 1_555
O5_2 Cd1_2 1_555 1_555
N1_2 Cd1_2 1_555 1_555
N10 N3_2 1_555 1_555
N4_2 Cd1_2 1_555 1_555
N5 N6_2 1_555 1_555
N6_2 Cd8 1_555 1_555
N12 N13 1_555 1_555
N13 C16_2 1_555 1_555
C11_2 N1_2 1_555 1_555
H9_2 C11_2 1_555 1_555
C12_2 N1_2 1_555 1_555
H10_2 C12_2 1_555 1_555
C13_2 N4_2 1_555 1_555
H11_2 C13_2 1_555 1_555
C14_2 N4_2 1_555 1_555
H12_2 C14_2 1_555 1_555
H14_2 C16_2 1_555 1_555
H17_2 O7_2 1_555 1_555
H18_2 O7_2 1_555 1_555
H21_2 O5_2 1_555 1_555
H22_2 O5_2 1_555 1_555
Cd6 N5 1_555 1_555
O9_2 Cd1_2 1_555 1_555
O10_2 Cd1_2 1_555 1_555
N10 C12_2 1_555 1_555
N3_2 C11_2 1_555 1_555
N5 C13_2 1_555 1_555
N6_2 C14_2 1_555 1_555
O3_2 C10_2 1_555 1_555
O4_2 C10_2 1_555 1_555
C1_2 O2_2 1_555 1_555
C2_2 C1_2 1_555 1_555
H1_2 C2_2 1_555 1_555
H2_2 C2_2 1_555 1_555
C3_2 C2_2 1_555 1_555
C4_2 C3_2 1_555 1_555
H3_2 C4_2 1_555 1_555
C5_2 C4_2 1_555 1_555
H4_2 C5_2 1_555 1_555
C6_2 C5_2 1_555 1_555
C7_2 C6_2 1_555 1_555
H5_2 C7_2 1_555 1_555
C8_2 C3_2 1_555 1_555
H6_2 C8_2 1_555 1_555
Cd4_2 O3_2 1_555 1_555
O4_2 Cd4_2 1_555 1_555
C7_2 C8_2 1_555 1_555
H15_2 O8_2 1_555 1_555
H16_2 O8_2 1_555 1_555
Cd6 O6_2 1_555 1_555
O6_2 H19_2 1_555 1_555
N7_2 Cd6 1_555 1_555
C15_2 N7_2 1_555 1_555
H13_2 C15_2 1_555 1_555
H20_2 O6_2 1_555 1_555
Cd4_2 O1_3 1_555 1_555
O1_3 C1_3 1_555 1_555
O2_3 Cd4_2 1_555 1_555
O9_2 C10_3 1_555 1_555
O10_2 C10_3 1_555 1_555
O5_3 Cd4_2 1_555 1_555
O8_3 Cd9 1_555 1_555
N1_3 Cd4_2 1_555 1_555
N10_2 N3_3 1_555 1_555
N4_3 Cd4_2 1_555 1_555
N5_2 N6_3 1_555 1_555
N6_3 Cd9 1_555 1_555
N8_2 N9_2 1_555 1_555
N9_2 C16_3 1_555 1_555
C1_3 O2_3 1_555 1_555
C2_3 C1_3 1_555 1_555
H1_3 C2_3 1_555 1_555
H2_3 C2_3 1_555 1_555
C3_3 C2_3 1_555 1_555
C4_3 C3_3 1_555 1_555
H3_3 C4_3 1_555 1_555
C5_3 C4_3 1_555 1_555
H4_3 C5_3 1_555 1_555
C6_3 C5_3 1_555 1_555
C7_3 C6_3 1_555 1_555
H5_3 C7_3 1_555 1_555
C8_3 C3_3 1_555 1_555
H6_3 C8_3 1_555 1_555
C9_2 C6_3 1_555 1_555
H7_2 C9_2 1_555 1_555
H8_2 C9_2 1_555 1_555
C10_3 C9_2 1_555 1_555
C11_3 N1_3 1_555 1_555
H9_3 C11_3 1_555 1_555
C12_3 N1_3 1_555 1_555
H10_3 C12_3 1_555 1_555
C13_3 N4_3 1_555 1_555
H11_3 C13_3 1_555 1_555
C14_3 N4_3 1_555 1_555
H12_3 C14_3 1_555 1_555
H14_3 C16_3 1_555 1_555
H15_3 O8_3 1_555 1_555
H16_3 O8_3 1_555 1_555
H17_3 O7_3 1_555 1_555
H18_3 O7_3 1_555 1_555
H22_3 O5_3 1_555 1_555
Cd5 N5_2 1_555 1_555
N13_2 Cd9 1_555 1_555
N10_2 C12_3 1_555 1_555
N3_3 C11_3 1_555 1_555
N5_2 C13_3 1_555 1_555
N6_3 C14_3 1_555 1_555
C7_3 C8_3 1_555 1_555
Cd5 O6_3 1_555 1_555
O6_3 H19_3 1_555 1_555
N7_3 Cd5 1_555 1_555
C15_3 N7_3 1_555 1_555
H13_3 C15_3 1_555 1_555
H20_3 O6_3 1_555 1_555
N12_2 Cd5 1_555 1_555
Cd6_2 O6_4 1_555 1_555
O6_4 H19_4 1_555 1_555
N7_4 Cd6_2 1_555 1_555
C15_4 N7_4 1_555 1_555
H13_4 C15_4 1_555 1_555
H20_4 O6_4 1_555 1_555
N11_2 Cd6_2 1_555 1_555
H15_4 O8_4 1_555 1_555
H16_4 O8_4 1_555 1_555
O9 C10_4 1_555 1_555
O10 C10_4 1_555 1_555
C1_4 O2_4 1_555 1_555
C2_4 C1_4 1_555 1_555
H1_4 C2_4 1_555 1_555
H2_4 C2_4 1_555 1_555
C3_4 C2_4 1_555 1_555
C4_4 C3_4 1_555 1_555
H3_4 C4_4 1_555 1_555
C5_4 C4_4 1_555 1_555
H4_4 C5_4 1_555 1_555
C6_4 C5_4 1_555 1_555
C7_4 C6_4 1_555 1_555
H5_4 C7_4 1_555 1_555
C8_4 C3_4 1_555 1_555
H6_4 C8_4 1_555 1_555
C7_4 C8_4 1_555 1_555
Cd4 O1_4 1_555 1_555
O5_4 Cd4 1_555 1_555
N1_4 Cd4 1_555 1_555
N2_2 N3_4 1_555 1_555
N4_4 Cd4 1_555 1_555
N11_2 N6_4 1_555 1_555
N6_4 Cd9_2 1_555 1_555
N12_2 N13_2 1_555 1_555
N13_2 C16_4 1_555 1_555
C11_4 N1_4 1_555 1_555
H9_4 C11_4 1_555 1_555
C12_4 N1_4 1_555 1_555
H10_4 C12_4 1_555 1_555
C13_4 N4_4 1_555 1_555
H11_4 C13_4 1_555 1_555
C14_4 N4_4 1_555 1_555
H12_4 C14_4 1_555 1_555
H14_4 C16_4 1_555 1_555
H17_4 O7_4 1_555 1_555
H18_4 O7_4 1_555 1_555
H21_4 O5_4 1_555 1_555
H22_4 O5_4 1_555 1_555
N2_2 C12_4 1_555 1_555
N3_4 C11_4 1_555 1_555
N11_2 C13_4 1_555 1_555
N6_4 C14_4 1_555 1_555
H7_3 C9_3 1_555 1_555
H8_3 C9_3 1_555 1_555
H7_4 C9_4 1_555 1_555
H8_4 C9_4 1_555 1_555

#END
