
###############################################################################
#
# This file contains modified crystal structure data generated from the
# MOF subset of the Cambridge Structural Database (CSD) v543 
# hosted by the Cambridge Crystallographic Data Centre (CCDC).
#
# This work is licensed under the Creative Commons
# Attribution-NonCommercial-ShareAlike 4.0 International License.
# To view a copy of this license, visit
# http://creativecommons.org/licenses/by-nc-sa/4.0/
# or send a letter to
# Creative Commons, PO Box 1866, Mountain View, CA 94042, USA.
#
# CIF created using the CSD Python API on 29 September 2022
# The structure has been converted into the P1 space group
# The structure has a 3D framework
# The original CSD entry GIHVUR is in the monoclinic crystal system
# The original CSD entry GIHVUR is in a Sohncke space group
# The framework has been calculated to contain at least 10.0% void space
# The void calculation uses a probe of radius 1.32A, grid spacing 0.4
# H atom positions have been added when not included in the experimental data
#
###############################################################################

data_GIHVUR
_chemical_formula_moiety         '(C144 H128 Cu3 N16 O24)n'
_symmetry_cell_setting           triclinic
_symmetry_space_group_name_H-M   'P 1'
_symmetry_Int_Tables_number      1
_space_group_name_Hall           'P 1'
loop_
_symmetry_equiv_pos_site_id
_symmetry_equiv_pos_as_xyz
1 x,y,z
_cell_length_a                   13.3695(15)
_cell_length_b                   19.989(2)
_cell_length_c                   15.6098(17)
_cell_angle_alpha                90
_cell_angle_beta                 96.395(4)
_cell_angle_gamma                90
_cell_volume                     4145.65
loop_
_atom_site_label
_atom_site_type_symbol
_atom_site_fract_x
_atom_site_fract_y
_atom_site_fract_z
H25 H 0.0143 0.6462 0.0034
C22 C 0.031(3) 0.874(2) 0.405(3)
H18 H 0.0952 0.8692 0.3819
H19 H 0.0434 0.8787 0.4674
H23 H 0.0055 0.7165 0.8888
C61 C 0.0461(7) 0.7700(6) 0.6643(9)
H54 H 0.0076 0.7322 0.6716
C62 C 0.1463(9) 0.7623(6) 0.6637(8)
H55 H 0.1758 0.7204 0.6726
C63 C 0.2050(7) 0.8180(6) 0.6494(7)
C64 C 0.1567(7) 0.8756(6) 0.6390(9)
H56 H 0.1941 0.9136 0.6297
C65 C 0.0599(9) 0.8826(7) 0.6410(9)
H57 H 0.0312 0.9248 0.6328
C66 C 0.3118(7) 0.8087(6) 0.6495(7)
H58 H 0.3368 0.7653 0.6528
C67 C 0.3788(7) 0.8601(6) 0.6450(7)
H59 H 0.3524 0.9032 0.6408
C68 C 0.4867(7) 0.8536(6) 0.6463(7)
C69 C 0.5448(8) 0.9108(7) 0.6355(9)
H60 H 0.5132 0.9519 0.6250
C70 C 0.6502(9) 0.9068(6) 0.6403(9)
H61 H 0.6867 0.9458 0.6346
C71 C 0.6462(9) 0.7941(6) 0.6573(9)
H62 H 0.6810 0.7537 0.6592
C72 C 0.5409(7) 0.7931(6) 0.6599(8)
H63 H 0.5079 0.7535 0.6703
N8 N 0.6980(6) 0.8515(6) 0.6521(6)
Cu6 Cu 0.84910(9) 0.84538(7) 0.65659(9)
H26 H 0.9403 0.6904 0.0517
O13 O 0.0902(6) 0.5199(4) 0.0132(6)
O14 O 0.0915(6) 0.4105(4) 0.0413(6)
Cu4 Cu 0.11346(8) 0.44359(7) 0.16075(9)
C1 C 0.1238(7) 0.5221(6) 0.3070(8)
C2 C 0.1285(8) 0.5428(6) 0.3999(8)
H1 H 0.1691 0.5102 0.4356
C3 C 0.0256(10) 0.5491(7) 0.4328(9)
H3 H 0.0096 0.5095 0.4646
C4 C 0.0393(14) 0.6086(7) 0.4902(10)
H5 H 0.0701 0.5960 0.5471
C5 C 0.1056(11) 0.6533(8) 0.4478(10)
H6 H 0.0680 0.6788 0.4021
H7 H 0.1409 0.6840 0.4888
C6 C 0.2635(9) 0.6202(7) 0.3981(8)
C7 C 0.2965(9) 0.6905(6) 0.3977(8)
C8 C 0.2417(10) 0.7365(8) 0.3499(10)
H8 H 0.1818 0.7233 0.3184
C9 C 0.2723(11) 0.8046(8) 0.3459(12)
H9 H 0.2330 0.8365 0.3146
C10 C 0.3600(10) 0.8197(7) 0.3893(11)
C11 C 0.4158(10) 0.7771(7) 0.4379(9)
H10 H 0.4762 0.7913 0.4678
C12 C 0.3860(9) 0.7132(6) 0.4446(8)
H11 H 0.4249 0.6839 0.4805
C13 C 0.4856(12) 0.9040(8) 0.3764(12)
C14 C 0.5318(12) 0.9550(7) 0.4257(10)
H12 H 0.4955 0.9780 0.4639
C15 C 0.6269(11) 0.9721(7) 0.4197(10)
C16 C 0.6880(10) 0.9364(8) 0.3687(9)
C17 C 0.6416(12) 0.8844(8) 0.3205(9)
H14 H 0.6791 0.8596 0.2851
C18 C 0.5439(12) 0.8687(8) 0.3232(11)
H15 H 0.5152 0.8340 0.2892
C19 C 0.7881(12) 0.9577(8) 0.3647(9)
C20 C 0.8604(12) 0.8431(10) 0.3936(9)
H16 H 0.8108 0.8194 0.3538
C21 C 0.966(3) 0.8194(19) 0.381(2)
H17 H 0.9843 0.7776 0.3620
C23 C 0.9736(16) 0.9309(13) 0.3661(14)
H20 H 0.9879 0.9371 0.3070
H21 H 0.9917 0.9716 0.3980
C24 C 0.8393(10) 0.8303(9) 0.4884(10)
C25 C 0.8516(7) 0.7657(7) 0.7985(10)
C26 C 0.8563(8) 0.7490(5) 0.8972(8)
H22 H 0.8311 0.7865 0.9289
C27 C 0.9664(8) 0.7305(6) 0.9345(8)
H24 H 0.9996 0.7683 0.9644
C28 C 0.9543(10) 0.6738(6) 0.9959(10)
C29 C 0.8663(10) 0.6352(7) 0.9529(10)
H27 H 0.8875 0.6040 0.9108
H28 H 0.8324 0.6107 0.9948
C30 C 0.7029(10) 0.6886(6) 0.8945(9)
C31 C 0.6521(10) 0.6188(8) 0.8998(11)
C32 C 0.6734(10) 0.5656(8) 0.8503(10)
H29 H 0.7217 0.5709 0.8123
C33 C 0.6287(10) 0.5073(7) 0.8537(12)
H30 H 0.6440 0.4721 0.8185
C34 C 0.5570(10) 0.4997(7) 0.9123(11)
C35 C 0.5259(10) 0.5522(8) 0.9576(10)
H31 H 0.4724 0.5483 0.9906
C36 C 0.5768(9) 0.6105(7) 0.9526(10)
H32 H 0.5602 0.6464 0.9862
C37 C 0.4184(9) 0.4199(6) 0.9047(9)
C38 C 0.3941(9) 0.3563(7) 0.9321(10)
H33 H 0.4436 0.3285 0.9593
C39 C 0.2950(10) 0.3352(7) 0.9181(9)
H34 H 0.2793 0.2916 0.9328
C40 C 0.2206(8) 0.3756(6) 0.8840(8)
C41 C 0.2457(8) 0.4390(6) 0.8583(8)
H35 H 0.1955 0.4671 0.8329
C42 C 0.3430(9) 0.4612(6) 0.8697(8)
H36 H 0.3580 0.5045 0.8535
C43 C 0.1169(9) 0.3438(8) 0.8650(8)
C47 C 0.0226(7) 0.4489(6) 0.9007(7)
H43 H 0.0437 0.4829 0.8611
C48 C 0.0743(8) 0.4607(6) 0.9908(9)
N1 N 0.1722(7) 0.6089(4) 0.4149(6)
N2 N 0.8641(10) 0.9156(7) 0.3685(7)
N3 N 0.7995(6) 0.6880(4) 0.9102(6)
N4 N 0.0331(7) 0.3823(5) 0.8649(6)
N7 N 0.9995(7) 0.8286(5) 0.6549(6)
O1 O 0.1295(5) 0.4611(4) 0.2869(5)
O2 O 0.1075(5) 0.5681(4) 0.2503(5)
O3 O 0.3210(7) 0.5755(5) 0.3805(6)
O4 O 0.3842(7) 0.8902(5) 0.3820(9)
O6 O 0.8156(10) 0.7719(7) 0.5046(9)
O7 O 0.8464(5) 0.8776(4) 0.5389(6)
O8 O 0.8600(5) 0.8286(4) 0.7830(5)
O9 O 0.8428(6) 0.7228(4) 0.7441(6)
O10 O 0.6535(6) 0.7379(5) 0.8737(7)
O11 O 0.5177(7) 0.4357(5) 0.9169(8)
O12 O 0.1126(6) 0.2841(4) 0.8451(7)
Cu5 Cu 0.88654(8) 0.94359(7) 0.83925(9)
Cu7 Cu 0.15090(9) 0.34538(7) 0.34341(9)
N9 N 0.2612(6) 0.4553(5) 0.1576(6)
O15 O 0.8705(5) 0.9611(4) 0.7131(5)
O16 O 0.1400(5) 0.3286(4) 0.2170(5)
H64 H 0.956051 0.837411 0.314757
H2 H 0.9730 0.5565 0.3857
H4 H 0.9752 0.6301 0.4956
C44 C 0.9360(8) 0.3477(8) 0.8489(8)
H37 H 0.9289 0.3141 0.8926
H38 H 0.9286 0.3265 0.7926
C45 C 0.8620(12) 0.4016(9) 0.8529(13)
H39 H 0.8407 0.4184 0.7955
H40 H 0.8032 0.3849 0.8774
C46 C 0.9089(10) 0.4539(8) 0.9059(11)
H41 H 0.8944 0.4485 0.9650
H42 H 0.8839 0.4972 0.8852
C49 C 0.9050(9) 0.4977(7) 0.1627(9)
H44 H 0.9366 0.5390 0.1711
C50 C 0.8047(9) 0.4954(7) 0.1568(11)
H45 H 0.7690 0.5350 0.1606
C51 C 0.7531(8) 0.4366(8) 0.1455(8)
C52 C 0.8088(8) 0.3806(6) 0.1407(8)
H46 H 0.7773 0.3391 0.1348
C53 C 0.9133(8) 0.3846(6) 0.1447(8)
H47 H 0.9502 0.3458 0.1386
C54 C 0.6416(9) 0.4295(7) 0.1428(9)
H48 H 0.6141 0.3882 0.1257
C55 C 0.5802(8) 0.4750(7) 0.1619(9)
H49 H 0.6076 0.5159 0.1805
C56 C 0.4715(7) 0.4679(4) 0.1568(8)
C57 C 0.4228(7) 0.4059(5) 0.1409(8)
H50 H 0.4597 0.3677 0.1314
C58 C 0.3166(9) 0.4025(7) 0.1396(9)
H51 H 0.2843 0.3621 0.1257
C59 C 0.3067(9) 0.5136(7) 0.1728(10)
H52 H 0.2678 0.5508 0.1829
C60 C 0.4090(8) 0.5214(6) 0.1743(9)
H53 H 0.4374 0.5632 0.1872
N5 N 0.9622(6) 0.4433(6) 0.1571(6)
C44_2 C 0.0640(8) 0.8477(8) 0.1511(8)
H37_2 H 0.0711 0.8141 0.1074
H38_2 H 0.0714 0.8265 0.2074
C45_2 C 0.1380(12) 0.9016(9) 0.1471(13)
H39_2 H 0.1593 0.9184 0.2045
H40_2 H 0.1968 0.8849 0.1226
C46_2 C 0.0911(10) 0.9539(8) 0.0941(11)
H41_2 H 0.1056 0.9485 0.0350
H42_2 H 0.1161 0.9972 0.1148
C49_2 C 0.0950(9) 0.9977(7) 0.8373(9)
C50_2 C 0.1953(9) 0.9954(7) 0.8432(11)
C51_2 C 0.2469(8) 0.9366(8) 0.8545(8)
C52_2 C 0.1912(8) 0.8806(6) 0.8593(8)
H46_2 H 0.2227 0.8391 0.8652
C53_2 C 0.0867(8) 0.8846(6) 0.8553(8)
H47_2 H 0.0498 0.8458 0.8614
C54_2 C 0.3584(9) 0.9295(7) 0.8572(9)
H48_2 H 0.3859 0.8882 0.8743
C55_2 C 0.4198(8) 0.9750(7) 0.8381(9)
C56_2 C 0.5285(7) 0.9679(4) 0.8432(8)
C57_2 C 0.5772(7) 0.9059(5) 0.8591(8)
H50_2 H 0.5403 0.8677 0.8686
C58_2 C 0.6834(9) 0.9025(7) 0.8604(9)
H51_2 H 0.7157 0.8621 0.8743
N5_2 N 0.0378(6) 0.9433(6) 0.8429(6)
N6 N 0.7388(6) 0.9553(5) 0.8424(6)
C1_2 C 0.8762(7) 0.0221(6) 0.6930(8)
C2_2 C 0.8715(8) 0.0428(6) 0.6001(8)
H1_2 H 0.8309 0.0102 0.5644
C3_2 C 0.9744(10) 0.0491(7) 0.5672(9)
H3_2 H 0.9904 0.0095 0.5354
C4_2 C 0.9607(14) 0.1086(7) 0.5098(10)
H5_2 H 0.9299 0.0960 0.4529
C5_2 C 0.8944(11) 0.1533(8) 0.5522(10)
H6_2 H 0.9320 0.1788 0.5979
H7_2 H 0.8591 0.1840 0.5112
C6_2 C 0.7365(9) 0.1202(7) 0.6019(8)
C7_2 C 0.7035(9) 0.1905(6) 0.6023(8)
C8_2 C 0.7583(10) 0.2365(8) 0.6501(10)
H8_2 H 0.8182 0.2233 0.6816
C9_2 C 0.7277(11) 0.3046(8) 0.6541(12)
H9_2 H 0.7670 0.3365 0.6854
C10_2 C 0.6400(10) 0.3197(7) 0.6107(11)
C11_2 C 0.5842(10) 0.2771(7) 0.5621(9)
H10_2 H 0.5238 0.2913 0.5322
C12_2 C 0.6140(9) 0.2132(6) 0.5554(8)
H11_2 H 0.5751 0.1839 0.5195
C13_2 C 0.5144(12) 0.4040(8) 0.6236(12)
C14_2 C 0.4682(12) 0.4550(7) 0.5743(10)
H12_2 H 0.5045 0.4780 0.5361
C15_2 C 0.3731(11) 0.4721(7) 0.5803(10)
H13 H 0.3464 0.5091 0.5496
C16_2 C 0.3120(10) 0.4364(8) 0.6313(9)
C17_2 C 0.3584(12) 0.3844(8) 0.6795(9)
H14_2 H 0.3209 0.3596 0.7149
C18_2 C 0.4561(12) 0.3687(8) 0.6768(11)
H15_2 H 0.4848 0.3340 0.7108
C19_2 C 0.2119(12) 0.4577(8) 0.6353(9)
C20_2 C 0.1396(12) 0.3431(10) 0.6064(9)
H16_2 H 0.1892 0.3194 0.6462
C21_2 C 0.034(3) 0.3194(19) 0.619(2)
H17_2 H 0.0157 0.2776 0.6380
C23_2 C 0.0264(16) 0.4309(13) 0.6339(14)
H20_2 H 0.0121 0.4371 0.6930
H21_2 H 0.0083 0.4716 0.6020
C24_2 C 0.1607(10) 0.3303(9) 0.5116(10)
C25_2 C 0.1484(7) 0.2657(7) 0.2015(10)
C26_2 C 0.1437(8) 0.2490(5) 0.1028(8)
H22_2 H 0.1689 0.2865 0.0711
C27_2 C 0.0336(8) 0.2305(6) 0.0655(8)
H24_2 H 0.0004 0.2683 0.0356
C28_2 C 0.0457(10) 0.1738(6) 0.0041(10)
C29_2 C 0.1337(10) 0.1352(7) 0.0471(10)
H27_2 H 0.1125 0.1040 0.0892
H28_2 H 0.1676 0.1107 0.0052
C30_2 C 0.2971(10) 0.1886(6) 0.1055(9)
C31_2 C 0.3479(10) 0.1188(8) 0.1002(11)
C32_2 C 0.3266(10) 0.0656(8) 0.1497(10)
H29_2 H 0.2783 0.0709 0.1877
C33_2 C 0.3713(10) 0.0073(7) 0.1463(12)
C35_2 C 0.4741(10) 0.0522(8) 0.0424(10)
H31_2 H 0.5276 0.0483 0.0094
C36_2 C 0.4232(9) 0.1105(7) 0.0474(10)
H32_2 H 0.4398 0.1464 0.0138
H36_2 H 0.6420 0.0045 0.1465
N1_2 N 0.8278(7) 0.1089(4) 0.5851(6)
N2_2 N 0.1359(10) 0.4156(7) 0.6315(7)
N3_2 N 0.2005(6) 0.1880(4) 0.0898(6)
N7_2 N 0.0005(7) 0.3286(5) 0.3451(6)
O2_2 O 0.8925(5) 0.0681(4) 0.7497(5)
O3_2 O 0.6790(7) 0.0755(5) 0.6195(6)
O4_2 O 0.6158(7) 0.3902(5) 0.6180(9)
O5 O 0.1917(7) 0.5180(6) 0.6472(7)
O6_2 O 0.1844(10) 0.2719(7) 0.4954(9)
O7_2 O 0.1536(5) 0.3776(4) 0.4611(6)
O9_2 O 0.1572(6) 0.2228(4) 0.2559(6)
O10_2 O 0.3465(6) 0.2379(5) 0.1263(7)
N10 N 0.3020(6) 0.3515(6) 0.3479(6)
O17 O 0.9098(6) 0.0199(4) 0.9868(6)
H64_2 H 0.0439486 0.337411 0.685243
H26_2 H 0.0597 0.1904 0.9483
H30_2 H 0.3560 0.9721 0.1815
C34_2 C 0.4430(10) 0.9997(7) 0.0877(11)
C37_2 C 0.5816(9) 0.9199(6) 0.0953(9)
C38_2 C 0.6059(9) 0.8563(7) 0.0679(10)
H33_2 H 0.5564 0.8285 0.0407
C39_2 C 0.7050(10) 0.8352(7) 0.0819(9)
H34_2 H 0.7207 0.7916 0.0672
C40_2 C 0.7794(8) 0.8756(6) 0.1160(8)
C41_2 C 0.7543(8) 0.9390(6) 0.1417(8)
H35_2 H 0.8045 0.9671 0.1671
C42_2 C 0.6570(9) 0.9612(6) 0.1303(8)
C43_2 C 0.8831(9) 0.8438(8) 0.1350(8)
C47_2 C 0.9774(7) 0.9489(6) 0.0993(7)
H43_2 H 0.9563 0.9829 0.1389
C48_2 C 0.9257(8) 0.9607(6) 0.0092(9)
N4_2 N 0.9669(7) 0.8823(5) 0.1351(6)
O11_2 O 0.4823(7) 0.9357(5) 0.0831(8)
O12_2 O 0.8874(6) 0.7841(4) 0.1549(7)
O18 O 0.9085(6) 0.9105(4) 0.9587(6)
C22_2 C 0.969(3) 0.374(2) 0.595(3)
H18_2 H 0.9048 0.3692 0.6181
H19_2 H 0.9566 0.3787 0.5326
H23_2 H 0.9945 0.2165 0.1112
C61_2 C 0.9539(7) 0.2700(6) 0.3357(9)
H54_2 H 0.9924 0.2322 0.3284
C62_2 C 0.8537(9) 0.2623(6) 0.3363(8)
H55_2 H 0.8242 0.2204 0.3274
C63_2 C 0.7950(7) 0.3180(6) 0.3506(7)
C64_2 C 0.8433(7) 0.3756(6) 0.3610(9)
H56_2 H 0.8059 0.4136 0.3703
C65_2 C 0.9401(9) 0.3826(7) 0.3590(9)
H57_2 H 0.9688 0.4248 0.3672
C66_2 C 0.6882(7) 0.3087(6) 0.3505(7)
H58_2 H 0.6632 0.2653 0.3472
C67_2 C 0.6212(7) 0.3601(6) 0.3550(7)
H59_2 H 0.6476 0.4032 0.3592
C68_2 C 0.5133(7) 0.3536(6) 0.3537(7)
C69_2 C 0.4552(8) 0.4108(7) 0.3645(9)
H60_2 H 0.4868 0.4519 0.3750
C70_2 C 0.3498(9) 0.4068(6) 0.3597(9)
H61_2 H 0.3133 0.4458 0.3654
C71_2 C 0.3538(9) 0.2941(6) 0.3427(9)
H62_2 H 0.3190 0.2537 0.3408
C72_2 C 0.4591(7) 0.2931(6) 0.3401(8)
H63_2 H 0.4921 0.2535 0.3297
H13_2 H 0.6536 0.0091 0.4504
O5_2 O 0.8083(7) 0.0180(6) 0.3528(7)
H2_2 H 0.0270 0.0565 0.6143
H4_2 H 0.0248 0.1301 0.5044
H44_2 H 0.0634 0.0390 0.8289
H45_2 H 0.2310 0.0350 0.8394
H49_2 H 0.3924 0.0159 0.8195
C59_2 C 0.6933(9) 0.0136(7) 0.8272(10)
H52_2 H 0.7322 0.0508 0.8171
C60_2 C 0.5910(8) 0.0214(6) 0.8257(9)
H53_2 H 0.5626 0.0632 0.8128
H25_2 H 0.9857 0.1462 0.9966
loop_
_geom_bond_atom_site_label_1
_geom_bond_atom_site_label_2
_geom_bond_site_symmetry_1
_geom_bond_site_symmetry_2
H18 C22 1_555 1_555
H19 C22 1_555 1_555
C61 H54 1_555 1_555
C62 C61 1_555 1_555
H55 C62 1_555 1_555
C63 C62 1_555 1_555
C64 C63 1_555 1_555
H56 C64 1_555 1_555
C65 C64 1_555 1_555
H57 C65 1_555 1_555
C66 C63 1_555 1_555
H58 C66 1_555 1_555
C67 C66 1_555 1_555
H59 C67 1_555 1_555
C68 C67 1_555 1_555
C69 C68 1_555 1_555
H60 C69 1_555 1_555
C70 C69 1_555 1_555
H61 C70 1_555 1_555
C71 H62 1_555 1_555
C72 C68 1_555 1_555
H63 C72 1_555 1_555
N8 C70 1_555 1_555
Cu6 N8 1_555 1_555
C71 C72 1_555 1_555
C71 N8 1_555 1_555
Cu4 O13 1_555 1_555
O14 Cu4 1_555 1_555
Cu6 N7 1_555 1_555
C1 C2 1_555 1_555
C2 H1 1_555 1_555
C3 C2 1_555 1_555
H3 C3 1_555 1_555
C4 C3 1_555 1_555
H5 C4 1_555 1_555
C5 C4 1_555 1_555
H6 C5 1_555 1_555
H7 C5 1_555 1_555
C6 C7 1_555 1_555
C7 C8 1_555 1_555
C8 H8 1_555 1_555
C9 C8 1_555 1_555
H9 C9 1_555 1_555
C10 C9 1_555 1_555
C11 C10 1_555 1_555
H10 C11 1_555 1_555
C12 C7 1_555 1_555
H11 C12 1_555 1_555
C13 C14 1_555 1_555
C14 H12 1_555 1_555
C15 C14 1_555 1_555
C16 C15 1_555 1_555
C17 C16 1_555 1_555
H14 C17 1_555 1_555
C18 C13 1_555 1_555
H15 C18 1_555 1_555
C19 C16 1_555 1_555
C20 H16 1_555 1_555
C21 C20 1_555 1_555
H17 C21 1_555 1_555
H20 C23 1_555 1_555
H21 C23 1_555 1_555
C24 C20 1_555 1_555
C25 C26 1_555 1_555
C26 H22 1_555 1_555
C27 C26 1_555 1_555
H24 C27 1_555 1_555
C28 C27 1_555 1_555
C29 C28 1_555 1_555
H27 C29 1_555 1_555
H28 C29 1_555 1_555
C30 C31 1_555 1_555
C31 C32 1_555 1_555
C32 H29 1_555 1_555
C33 C32 1_555 1_555
H30 C33 1_555 1_555
C34 C33 1_555 1_555
C35 C34 1_555 1_555
H31 C35 1_555 1_555
C36 C31 1_555 1_555
H32 C36 1_555 1_555
C37 C38 1_555 1_555
C38 H33 1_555 1_555
C39 C38 1_555 1_555
H34 C39 1_555 1_555
C40 C39 1_555 1_555
C41 C40 1_555 1_555
H35 C41 1_555 1_555
C42 C37 1_555 1_555
H36 C42 1_555 1_555
C43 C40 1_555 1_555
H43 C47 1_555 1_555
C48 C47 1_555 1_555
N1 C2 1_555 1_555
N2 C19 1_555 1_555
N3 C26 1_555 1_555
N4 C43 1_555 1_555
O1 Cu4 1_555 1_555
O2 C1 1_555 1_555
O3 C6 1_555 1_555
O4 C10 1_555 1_555
O6 Cu6 1_555 1_555
O7 Cu6 1_555 1_555
O8 Cu6 1_555 1_555
O9 C25 1_555 1_555
O10 C30 1_555 1_555
O11 C34 1_555 1_555
O12 C43 1_555 1_555
Cu5 O8 1_555 1_555
Cu7 O1 1_555 1_555
N9 Cu4 1_555 1_555
O15 Cu6 1_555 1_555
O16 Cu4 1_555 1_555
C1 O1 1_555 1_555
C5 N1 1_555 1_555
C6 N1 1_555 1_555
C11 C12 1_555 1_555
C13 O4 1_555 1_555
C17 C18 1_555 1_555
C20 N2 1_555 1_555
C23 N2 1_555 1_555
C24 O6 1_555 1_555
C24 O7 1_555 1_555
C25 O8 1_555 1_555
C29 N3 1_555 1_555
C30 N3 1_555 1_555
C35 C36 1_555 1_555
C37 O11 1_555 1_555
C41 C42 1_555 1_555
C47 N4 1_555 1_555
Cu5 O15 1_555 1_555
Cu7 O16 1_555 1_555
C21 H64 1_555 1_555
C44 H37 1_555 1_555
H38 C44 1_555 1_555
C45 C44 1_555 1_555
H39 C45 1_555 1_555
H40 C45 1_555 1_555
C46 C45 1_555 1_555
H41 C46 1_555 1_555
H42 C46 1_555 1_555
C49 H44 1_555 1_555
C50 C49 1_555 1_555
H45 C50 1_555 1_555
C51 C50 1_555 1_555
C52 C51 1_555 1_555
H46 C52 1_555 1_555
C53 C52 1_555 1_555
H47 C53 1_555 1_555
C54 C51 1_555 1_555
H48 C54 1_555 1_555
C55 C54 1_555 1_555
H49 C55 1_555 1_555
C56 C55 1_555 1_555
C57 C56 1_555 1_555
H50 C57 1_555 1_555
C58 C57 1_555 1_555
H51 C58 1_555 1_555
C59 H52 1_555 1_555
C60 C56 1_555 1_555
H53 C60 1_555 1_555
N5 C49 1_555 1_555
N9 C58 1_555 1_555
C53 N5 1_555 1_555
C59 C60 1_555 1_555
C59 N9 1_555 1_555
C44_2 H37_2 1_555 1_555
H38_2 C44_2 1_555 1_555
C45_2 C44_2 1_555 1_555
H39_2 C45_2 1_555 1_555
H40_2 C45_2 1_555 1_555
C46_2 C45_2 1_555 1_555
H41_2 C46_2 1_555 1_555
H42_2 C46_2 1_555 1_555
C50_2 C49_2 1_555 1_555
C51_2 C50_2 1_555 1_555
C52_2 C51_2 1_555 1_555
H46_2 C52_2 1_555 1_555
C53_2 C52_2 1_555 1_555
H47_2 C53_2 1_555 1_555
C54_2 C51_2 1_555 1_555
H48_2 C54_2 1_555 1_555
C55_2 C54_2 1_555 1_555
C56_2 C55_2 1_555 1_555
C57_2 C56_2 1_555 1_555
H50_2 C57_2 1_555 1_555
C58_2 C57_2 1_555 1_555
H51_2 C58_2 1_555 1_555
N5_2 C49_2 1_555 1_555
N6 C58_2 1_555 1_555
Cu5 N6 1_555 1_555
C53_2 N5_2 1_555 1_555
Cu7 N7_2 1_555 1_555
C1_2 C2_2 1_555 1_555
C2_2 H1_2 1_555 1_555
C3_2 C2_2 1_555 1_555
H3_2 C3_2 1_555 1_555
C4_2 C3_2 1_555 1_555
H5_2 C4_2 1_555 1_555
C5_2 C4_2 1_555 1_555
H6_2 C5_2 1_555 1_555
H7_2 C5_2 1_555 1_555
C6_2 C7_2 1_555 1_555
C7_2 C8_2 1_555 1_555
C8_2 H8_2 1_555 1_555
C9_2 C8_2 1_555 1_555
H9_2 C9_2 1_555 1_555
C10_2 C9_2 1_555 1_555
C11_2 C10_2 1_555 1_555
H10_2 C11_2 1_555 1_555
C12_2 C7_2 1_555 1_555
H11_2 C12_2 1_555 1_555
C13_2 C14_2 1_555 1_555
C14_2 H12_2 1_555 1_555
C15_2 C14_2 1_555 1_555
H13 C15_2 1_555 1_555
C16_2 C15_2 1_555 1_555
C17_2 C16_2 1_555 1_555
H14_2 C17_2 1_555 1_555
C18_2 C13_2 1_555 1_555
H15_2 C18_2 1_555 1_555
C19_2 C16_2 1_555 1_555
C20_2 H16_2 1_555 1_555
C21_2 C20_2 1_555 1_555
H17_2 C21_2 1_555 1_555
H20_2 C23_2 1_555 1_555
H21_2 C23_2 1_555 1_555
C24_2 C20_2 1_555 1_555
C25_2 C26_2 1_555 1_555
C26_2 H22_2 1_555 1_555
C27_2 C26_2 1_555 1_555
H24_2 C27_2 1_555 1_555
C28_2 C27_2 1_555 1_555
C29_2 C28_2 1_555 1_555
H27_2 C29_2 1_555 1_555
H28_2 C29_2 1_555 1_555
C30_2 C31_2 1_555 1_555
C31_2 C32_2 1_555 1_555
C32_2 H29_2 1_555 1_555
C33_2 C32_2 1_555 1_555
H31_2 C35_2 1_555 1_555
C36_2 C31_2 1_555 1_555
H32_2 C36_2 1_555 1_555
N1_2 C2_2 1_555 1_555
N2_2 C19_2 1_555 1_555
N3_2 C26_2 1_555 1_555
O2_2 C1_2 1_555 1_555
O3_2 C6_2 1_555 1_555
O4_2 C10_2 1_555 1_555
O5 C19_2 1_555 1_555
O6_2 Cu7 1_555 1_555
O7_2 Cu7 1_555 1_555
O9_2 C25_2 1_555 1_555
O10_2 C30_2 1_555 1_555
N10 Cu7 1_555 1_555
C5_2 N1_2 1_555 1_555
C6_2 N1_2 1_555 1_555
C11_2 C12_2 1_555 1_555
C13_2 O4_2 1_555 1_555
C17_2 C18_2 1_555 1_555
C20_2 N2_2 1_555 1_555
C23_2 N2_2 1_555 1_555
C24_2 O6_2 1_555 1_555
C24_2 O7_2 1_555 1_555
C25_2 O16 1_555 1_555
C29_2 N3_2 1_555 1_555
C30_2 N3_2 1_555 1_555
C35_2 C36_2 1_555 1_555
C21_2 H64_2 1_555 1_555
C37_2 C38_2 1_555 1_555
C38_2 H33_2 1_555 1_555
C39_2 C38_2 1_555 1_555
H34_2 C39_2 1_555 1_555
C40_2 C39_2 1_555 1_555
C41_2 C40_2 1_555 1_555
H35_2 C41_2 1_555 1_555
C42_2 C37_2 1_555 1_555
C43_2 C40_2 1_555 1_555
H43_2 C47_2 1_555 1_555
C48_2 C47_2 1_555 1_555
N4_2 C43_2 1_555 1_555
O11_2 C34_2 1_555 1_555
O12_2 C43_2 1_555 1_555
O18 Cu5 1_555 1_555
C37_2 O11_2 1_555 1_555
C41_2 C42_2 1_555 1_555
C47_2 N4_2 1_555 1_555
H18_2 C22_2 1_555 1_555
H19_2 C22_2 1_555 1_555
C61_2 H54_2 1_555 1_555
C62_2 C61_2 1_555 1_555
H55_2 C62_2 1_555 1_555
C63_2 C62_2 1_555 1_555
C64_2 C63_2 1_555 1_555
H56_2 C64_2 1_555 1_555
C65_2 C64_2 1_555 1_555
H57_2 C65_2 1_555 1_555
C66_2 C63_2 1_555 1_555
H58_2 C66_2 1_555 1_555
C67_2 C66_2 1_555 1_555
H59_2 C67_2 1_555 1_555
C68_2 C67_2 1_555 1_555
C69_2 C68_2 1_555 1_555
H60_2 C69_2 1_555 1_555
C70_2 C69_2 1_555 1_555
H61_2 C70_2 1_555 1_555
C71_2 H62_2 1_555 1_555
C72_2 C68_2 1_555 1_555
H63_2 C72_2 1_555 1_555
N10 C70_2 1_555 1_555
C71_2 C72_2 1_555 1_555
C71_2 N10 1_555 1_555
C59_2 H52_2 1_555 1_555
H53_2 C60_2 1_555 1_555
C59_2 C60_2 1_555 1_555

#END
