
###############################################################################
#
# This file contains modified crystal structure data generated from the
# MOF subset of the Cambridge Structural Database (CSD) v543 
# hosted by the Cambridge Crystallographic Data Centre (CCDC).
#
# This work is licensed under the Creative Commons
# Attribution-NonCommercial-ShareAlike 4.0 International License.
# To view a copy of this license, visit
# http://creativecommons.org/licenses/by-nc-sa/4.0/
# or send a letter to
# Creative Commons, PO Box 1866, Mountain View, CA 94042, USA.
#
# CIF created using the CSD Python API on 29 September 2022
# The structure has been converted into the P1 space group
# The structure has a 3D framework
# The original CSD entry GILFUF is in the monoclinic crystal system
# The framework has been calculated to contain at least 10.0% void space
# The void calculation uses a probe of radius 1.32A, grid spacing 0.4
#
###############################################################################

data_GILFUF
_chemical_formula_moiety         '(C80 H40 N24 O32 Zn8)n'
_symmetry_cell_setting           triclinic
_symmetry_space_group_name_H-M   'P 1'
_symmetry_Int_Tables_number      1
_space_group_name_Hall           'P 1'
loop_
_symmetry_equiv_pos_site_id
_symmetry_equiv_pos_as_xyz
1 x,y,z
_cell_length_a                   15.271(11)
_cell_length_b                   16.147(12)
_cell_length_c                   17.017(16)
_cell_angle_alpha                90
_cell_angle_beta                 115.186(11)
_cell_angle_gamma                90
_cell_volume                     3797.15
loop_
_atom_site_label
_atom_site_type_symbol
_atom_site_fract_x
_atom_site_fract_y
_atom_site_fract_z
Zn1 Zn 0.45470(5) 0.03655(5) 0.65158(5)
O1 O 0.4495(4) 0.0631(3) 0.3185(3)
O2 O 0.3606(4) 0.0450(4) 0.1727(4)
O3 O 0.1148(4) 0.3657(4) 0.3183(4)
O4 O 0.0677(4) 0.3851(4) 0.1734(4)
N1 N 0.3880(4) 0.0444(4) 0.5196(4)
N2 N 0.3164(5) 0.1008(4) 0.3899(4)
N3 N 0.2874(6) 0.0182(4) 0.3784(4)
C2 C 0.3773(6) 0.1141(5) 0.4734(5)
H2 H 0.4076 0.1642 0.4958
C3 C 0.2828(6) 0.1586(5) 0.3171(5)
C4 C 0.3070(6) 0.1457(5) 0.2452(5)
C5 C 0.2637(7) 0.1983(6) 0.1716(6)
H3 H 0.2752 0.1897 0.1228
C6 C 0.2037(7) 0.2627(6) 0.1733(6)
H4 H 0.1762 0.2970 0.1250
C7 C 0.1833(6) 0.2779(5) 0.2454(5)
C8 C 0.2224(6) 0.2240(5) 0.3171(5)
H5 H 0.2082 0.2318 0.3645
C9 C 0.3771(5) 0.0784(5) 0.2446(5)
C10 C 0.1160(6) 0.3478(5) 0.2449(5)
Zn4 Zn 0.04530(5) 0.46345(5) 0.34842(5)
O7 O 0.3852(4) 0.1343(4) 0.6817(4)
O8 O 0.5677(4) 0.1149(4) 0.6734(4)
C1 C 0.3331(7) 0.9869(5) 0.4587(5)
H1 H 0.3281 0.9318 0.4720
Zn2 Zn 0.54530(5) 0.96345(5) 0.34842(5)
Zn3 Zn 0.45470(5) 0.96345(5) 0.15158(5)
O5 O 0.5505(4) 0.9369(3) 0.6815(3)
O6 O 0.3606(4) 0.9550(4) 0.6727(4)
Zn5 Zn 0.95470(5) 0.46345(5) 0.15158(5)
O1_2 O 0.5505(4) 0.0631(3) 0.1815(3)
O2_2 O 0.6394(4) 0.0450(4) 0.3273(4)
O3_2 O 0.8852(4) 0.3657(4) 0.1817(4)
O4_2 O 0.9323(4) 0.3851(4) 0.3266(4)
N2_2 N 0.6836(5) 0.1008(4) 0.1101(4)
N3_2 N 0.7126(6) 0.0182(4) 0.1216(4)
C2_2 C 0.6227(6) 0.1141(5) 0.0266(5)
H2_2 H 0.5924 0.1642 0.0042
C3_2 C 0.7172(6) 0.1586(5) 0.1829(5)
C4_2 C 0.6930(6) 0.1457(5) 0.2548(5)
C5_2 C 0.7363(7) 0.1983(6) 0.3284(6)
H3_2 H 0.7248 0.1897 0.3772
C6_2 C 0.7963(7) 0.2627(6) 0.3267(6)
H4_2 H 0.8238 0.2970 0.3750
C7_2 C 0.8167(6) 0.2779(5) 0.2546(5)
C8_2 C 0.7776(6) 0.2240(5) 0.1829(5)
H5_2 H 0.7918 0.2318 0.1355
C9_2 C 0.6229(5) 0.0784(5) 0.2554(5)
C10_2 C 0.8840(6) 0.3478(5) 0.2551(5)
Zn1_2 Zn 0.54530(5) 0.03655(5) 0.84842(5)
N1_2 N 0.6120(4) 0.0444(4) 0.9804(4)
O7_2 O 0.6148(4) 0.1343(4) 0.8183(4)
O8_2 O 0.4323(4) 0.1149(4) 0.8266(4)
C1_2 C 0.6669(7) 0.9869(5) 0.0413(5)
H1_2 H 0.6719 0.9318 0.0280
O5_2 O 0.4495(4) 0.9369(3) 0.8185(3)
O6_2 O 0.6394(4) 0.9550(4) 0.8273(4)
O5_3 O 0.0505(4) 0.4369(3) 0.6815(3)
O8_3 O 0.0677(4) 0.6149(4) 0.6734(4)
Zn1_3 Zn 0.95470(5) 0.53655(5) 0.65158(5)
O1_3 O 0.9495(4) 0.5631(3) 0.3185(3)
O2_3 O 0.8606(4) 0.5450(4) 0.1727(4)
O3_3 O 0.6148(4) 0.8657(4) 0.3183(4)
O4_3 O 0.5677(4) 0.8851(4) 0.1734(4)
N1_3 N 0.8880(4) 0.5444(4) 0.5196(4)
N2_3 N 0.8164(5) 0.6008(4) 0.3899(4)
N3_3 N 0.7874(6) 0.5182(4) 0.3784(4)
C1_3 C 0.8331(7) 0.4869(5) 0.4587(5)
H1_3 H 0.8281 0.4318 0.4720
C2_3 C 0.8773(6) 0.6141(5) 0.4734(5)
H2_3 H 0.9076 0.6642 0.4958
C3_3 C 0.7828(6) 0.6586(5) 0.3171(5)
C4_3 C 0.8070(6) 0.6457(5) 0.2452(5)
C5_3 C 0.7637(7) 0.6983(6) 0.1716(6)
H3_3 H 0.7752 0.6897 0.1228
C6_3 C 0.7037(7) 0.7627(6) 0.1733(6)
H4_3 H 0.6762 0.7970 0.1250
C7_3 C 0.6833(6) 0.7779(5) 0.2454(5)
C8_3 C 0.7224(6) 0.7240(5) 0.3171(5)
H5_3 H 0.7082 0.7318 0.3645
C9_3 C 0.8771(5) 0.5784(5) 0.2446(5)
C10_3 C 0.6160(6) 0.8478(5) 0.2449(5)
O6_3 O 0.8606(4) 0.4550(4) 0.6727(4)
O7_3 O 0.8852(4) 0.6343(4) 0.6817(4)
O1_4 O 0.0505(4) 0.5631(3) 0.1815(3)
O2_4 O 0.1394(4) 0.5450(4) 0.3273(4)
O3_4 O 0.3852(4) 0.8657(4) 0.1817(4)
O4_4 O 0.4323(4) 0.8851(4) 0.3266(4)
N2_4 N 0.1836(5) 0.6008(4) 0.1101(4)
N3_4 N 0.2126(6) 0.5182(4) 0.1216(4)
C1_4 C 0.1669(7) 0.4869(5) 0.0413(5)
H1_4 H 0.1719 0.4318 0.0280
C2_4 C 0.1227(6) 0.6141(5) 0.0266(5)
H2_4 H 0.0924 0.6642 0.0042
C3_4 C 0.2172(6) 0.6586(5) 0.1829(5)
C4_4 C 0.1930(6) 0.6457(5) 0.2548(5)
C5_4 C 0.2363(7) 0.6983(6) 0.3284(6)
H3_4 H 0.2248 0.6897 0.3772
C6_4 C 0.2963(7) 0.7627(6) 0.3267(6)
H4_4 H 0.3238 0.7970 0.3750
C7_4 C 0.3167(6) 0.7779(5) 0.2546(5)
C8_4 C 0.2776(6) 0.7240(5) 0.1829(5)
H5_4 H 0.2918 0.7318 0.1355
C9_4 C 0.1229(5) 0.5784(5) 0.2554(5)
C10_4 C 0.3840(6) 0.8478(5) 0.2551(5)
Zn1_4 Zn 0.04530(5) 0.53655(5) 0.84842(5)
N1_4 N 0.1120(4) 0.5444(4) 0.9804(4)
O6_4 O 0.1394(4) 0.4550(4) 0.8273(4)
O7_4 O 0.1148(4) 0.6343(4) 0.8183(4)
O5_4 O 0.9495(4) 0.4369(3) 0.8185(3)
O8_4 O 0.9323(4) 0.6149(4) 0.8266(4)
C1_5 C 0.6669(7) 0.0131(5) 0.5413(5)
H1_5 H 0.6719 0.0682 0.5280
N1_5 N 0.6120(4) 0.9556(4) 0.4804(4)
N2_5 N 0.6836(5) 0.8992(4) 0.6101(4)
N3_5 N 0.7126(6) 0.9818(4) 0.6216(4)
C2_5 C 0.6227(6) 0.8859(5) 0.5266(5)
H2_5 H 0.5924 0.8358 0.5042
C3_5 C 0.7172(6) 0.8414(5) 0.6829(5)
C4_5 C 0.6930(6) 0.8543(5) 0.7548(5)
C5_5 C 0.7363(7) 0.8017(6) 0.8284(6)
H3_5 H 0.7248 0.8103 0.8772
C6_5 C 0.7963(7) 0.7373(6) 0.8267(6)
H4_5 H 0.8238 0.7030 0.8750
C7_5 C 0.8167(6) 0.7221(5) 0.7546(5)
C8_5 C 0.7776(6) 0.7760(5) 0.6829(5)
H5_5 H 0.7918 0.7682 0.6355
C9_5 C 0.6229(5) 0.9216(5) 0.7554(5)
C10_5 C 0.8840(6) 0.6522(5) 0.7551(5)
C1_6 C 0.3331(7) 0.0131(5) 0.9587(5)
H1_6 H 0.3281 0.0682 0.9720
N1_6 N 0.3880(4) 0.9556(4) 0.0196(4)
N2_6 N 0.3164(5) 0.8992(4) 0.8899(4)
N3_6 N 0.2874(6) 0.9818(4) 0.8784(4)
C2_6 C 0.3773(6) 0.8859(5) 0.9734(5)
H2_6 H 0.4076 0.8358 0.9958
C3_6 C 0.2828(6) 0.8414(5) 0.8171(5)
C4_6 C 0.3070(6) 0.8543(5) 0.7452(5)
C5_6 C 0.2637(7) 0.8017(6) 0.6716(6)
H3_6 H 0.2752 0.8103 0.6228
C6_6 C 0.2037(7) 0.7373(6) 0.6733(6)
H4_6 H 0.1762 0.7030 0.6250
C7_6 C 0.1833(6) 0.7221(5) 0.7454(5)
C8_6 C 0.2224(6) 0.7760(5) 0.8171(5)
H5_6 H 0.2082 0.7682 0.8645
C9_6 C 0.3771(5) 0.9216(5) 0.7446(5)
C10_6 C 0.1160(6) 0.6522(5) 0.7449(5)
N1_7 N 0.1120(4) 0.4556(4) 0.4804(4)
N2_7 N 0.1836(5) 0.3992(4) 0.6101(4)
N3_7 N 0.2126(6) 0.4818(4) 0.6216(4)
C1_7 C 0.1669(7) 0.5131(5) 0.5413(5)
H1_7 H 0.1719 0.5682 0.5280
C2_7 C 0.1227(6) 0.3859(5) 0.5266(5)
H2_7 H 0.0924 0.3358 0.5042
C3_7 C 0.2172(6) 0.3414(5) 0.6829(5)
C4_7 C 0.1930(6) 0.3543(5) 0.7548(5)
C5_7 C 0.2363(7) 0.3017(6) 0.8284(6)
H3_7 H 0.2248 0.3103 0.8772
C6_7 C 0.2963(7) 0.2373(6) 0.8267(6)
H4_7 H 0.3238 0.2030 0.8750
C7_7 C 0.3167(6) 0.2221(5) 0.7546(5)
C8_7 C 0.2776(6) 0.2760(5) 0.6829(5)
H5_7 H 0.2918 0.2682 0.6355
C9_7 C 0.1229(5) 0.4216(5) 0.7554(5)
C10_7 C 0.3840(6) 0.1522(5) 0.7551(5)
N1_8 N 0.8880(4) 0.4556(4) 0.0196(4)
N2_8 N 0.8164(5) 0.3992(4) 0.8899(4)
N3_8 N 0.7874(6) 0.4818(4) 0.8784(4)
C1_8 C 0.8331(7) 0.5131(5) 0.9587(5)
H1_8 H 0.8281 0.5682 0.9720
C2_8 C 0.8773(6) 0.3859(5) 0.9734(5)
H2_8 H 0.9076 0.3358 0.9958
C3_8 C 0.7828(6) 0.3414(5) 0.8171(5)
C4_8 C 0.8070(6) 0.3543(5) 0.7452(5)
C5_8 C 0.7637(7) 0.3017(6) 0.6716(6)
H3_8 H 0.7752 0.3103 0.6228
C6_8 C 0.7037(7) 0.2373(6) 0.6733(6)
H4_8 H 0.6762 0.2030 0.6250
C7_8 C 0.6833(6) 0.2221(5) 0.7454(5)
C8_8 C 0.7224(6) 0.2760(5) 0.8171(5)
H5_8 H 0.7082 0.2682 0.8645
C9_8 C 0.8771(5) 0.4216(5) 0.7446(5)
C10_8 C 0.6160(6) 0.1522(5) 0.7449(5)
loop_
_geom_bond_atom_site_label_1
_geom_bond_atom_site_label_2
_geom_bond_site_symmetry_1
_geom_bond_site_symmetry_2
Zn1 N1 1_555 1_555
O1 C9 1_555 1_555
O2 C9 1_555 1_555
O3 C10 1_555 1_555
O4 C10 1_555 1_555
N2 N3 1_555 1_555
C2 N1 1_555 1_555
H2 C2 1_555 1_555
C3 N2 1_555 1_555
C4 C3 1_555 1_555
C5 C4 1_555 1_555
H3 C5 1_555 1_555
C6 C5 1_555 1_555
H4 C6 1_555 1_555
C7 C6 1_555 1_555
C8 C3 1_555 1_555
H5 C8 1_555 1_555
C9 C4 1_555 1_555
C10 C7 1_555 1_555
Zn4 O3 1_555 1_555
O7 Zn1 1_555 1_555
O8 Zn1 1_555 1_555
N2 C2 1_555 1_555
C7 C8 1_555 1_555
C1 H1 1_555 1_555
O1_2 C9_2 1_555 1_555
O2_2 C9_2 1_555 1_555
O3_2 C10_2 1_555 1_555
O4_2 C10_2 1_555 1_555
N2_2 N3_2 1_555 1_555
H2_2 C2_2 1_555 1_555
C3_2 N2_2 1_555 1_555
C4_2 C3_2 1_555 1_555
C5_2 C4_2 1_555 1_555
H3_2 C5_2 1_555 1_555
C6_2 C5_2 1_555 1_555
H4_2 C6_2 1_555 1_555
C7_2 C6_2 1_555 1_555
C8_2 C3_2 1_555 1_555
H5_2 C8_2 1_555 1_555
C9_2 C4_2 1_555 1_555
C10_2 C7_2 1_555 1_555
Zn5 O3_2 1_555 1_555
N2_2 C2_2 1_555 1_555
C7_2 C8_2 1_555 1_555
Zn1_2 N1_2 1_555 1_555
O7_2 Zn1_2 1_555 1_555
O8_2 Zn1_2 1_555 1_555
C1_2 H1_2 1_555 1_555
Zn1_3 N1_3 1_555 1_555
O1_3 C9_3 1_555 1_555
O2_3 C9_3 1_555 1_555
O3_3 C10_3 1_555 1_555
O4_3 C10_3 1_555 1_555
N1_3 C1_3 1_555 1_555
N2_3 N3_3 1_555 1_555
N3_3 C1_3 1_555 1_555
C1_3 H1_3 1_555 1_555
C2_3 N1_3 1_555 1_555
H2_3 C2_3 1_555 1_555
C3_3 N2_3 1_555 1_555
C4_3 C3_3 1_555 1_555
C5_3 C4_3 1_555 1_555
H3_3 C5_3 1_555 1_555
C6_3 C5_3 1_555 1_555
H4_3 C6_3 1_555 1_555
C7_3 C6_3 1_555 1_555
C8_3 C3_3 1_555 1_555
H5_3 C8_3 1_555 1_555
C9_3 C4_3 1_555 1_555
C10_3 C7_3 1_555 1_555
Zn5 O2_3 1_555 1_555
Zn2 O3_3 1_555 1_555
Zn3 O4_3 1_555 1_555
O6_3 Zn1_3 1_555 1_555
O7_3 Zn1_3 1_555 1_555
N2_3 C2_3 1_555 1_555
C7_3 C8_3 1_555 1_555
O1_4 C9_4 1_555 1_555
O2_4 C9_4 1_555 1_555
O3_4 C10_4 1_555 1_555
O4_4 C10_4 1_555 1_555
N2_4 N3_4 1_555 1_555
N3_4 C1_4 1_555 1_555
C1_4 H1_4 1_555 1_555
H2_4 C2_4 1_555 1_555
C3_4 N2_4 1_555 1_555
C4_4 C3_4 1_555 1_555
C5_4 C4_4 1_555 1_555
H3_4 C5_4 1_555 1_555
C6_4 C5_4 1_555 1_555
H4_4 C6_4 1_555 1_555
C7_4 C6_4 1_555 1_555
C8_4 C3_4 1_555 1_555
H5_4 C8_4 1_555 1_555
C9_4 C4_4 1_555 1_555
C10_4 C7_4 1_555 1_555
Zn4 O2_4 1_555 1_555
Zn3 O3_4 1_555 1_555
Zn2 O4_4 1_555 1_555
N2_4 C2_4 1_555 1_555
C7_4 C8_4 1_555 1_555
Zn1_4 N1_4 1_555 1_555
O6_4 Zn1_4 1_555 1_555
O7_4 Zn1_4 1_555 1_555
C1_5 H1_5 1_555 1_555
Zn2 N1_5 1_555 1_555
O5 C9_5 1_555 1_555
O6_2 C9_5 1_555 1_555
O7_3 C10_5 1_555 1_555
O8_4 C10_5 1_555 1_555
N2_5 N3_5 1_555 1_555
C2_5 N1_5 1_555 1_555
H2_5 C2_5 1_555 1_555
C3_5 N2_5 1_555 1_555
C4_5 C3_5 1_555 1_555
C5_5 C4_5 1_555 1_555
H3_5 C5_5 1_555 1_555
C6_5 C5_5 1_555 1_555
H4_5 C6_5 1_555 1_555
C7_5 C6_5 1_555 1_555
C8_5 C3_5 1_555 1_555
H5_5 C8_5 1_555 1_555
C9_5 C4_5 1_555 1_555
C10_5 C7_5 1_555 1_555
N2_5 C2_5 1_555 1_555
C7_5 C8_5 1_555 1_555
C1_6 H1_6 1_555 1_555
Zn3 N1_6 1_555 1_555
O5_2 C9_6 1_555 1_555
O6 C9_6 1_555 1_555
O7_4 C10_6 1_555 1_555
O8_3 C10_6 1_555 1_555
N2_6 N3_6 1_555 1_555
H2_6 C2_6 1_555 1_555
C3_6 N2_6 1_555 1_555
C4_6 C3_6 1_555 1_555
C5_6 C4_6 1_555 1_555
H3_6 C5_6 1_555 1_555
C6_6 C5_6 1_555 1_555
H4_6 C6_6 1_555 1_555
C7_6 C6_6 1_555 1_555
C8_6 C3_6 1_555 1_555
H5_6 C8_6 1_555 1_555
C9_6 C4_6 1_555 1_555
C10_6 C7_6 1_555 1_555
N2_6 C2_6 1_555 1_555
C7_6 C8_6 1_555 1_555
Zn4 N1_7 1_555 1_555
O5_3 C9_7 1_555 1_555
O6_4 C9_7 1_555 1_555
O7 C10_7 1_555 1_555
O8_2 C10_7 1_555 1_555
N1_7 C1_7 1_555 1_555
N2_7 N3_7 1_555 1_555
N3_7 C1_7 1_555 1_555
C1_7 H1_7 1_555 1_555
C2_7 N1_7 1_555 1_555
H2_7 C2_7 1_555 1_555
C3_7 N2_7 1_555 1_555
C4_7 C3_7 1_555 1_555
C5_7 C4_7 1_555 1_555
H3_7 C5_7 1_555 1_555
C6_7 C5_7 1_555 1_555
H4_7 C6_7 1_555 1_555
C7_7 C6_7 1_555 1_555
C8_7 C3_7 1_555 1_555
H5_7 C8_7 1_555 1_555
C9_7 C4_7 1_555 1_555
C10_7 C7_7 1_555 1_555
N2_7 C2_7 1_555 1_555
C7_7 C8_7 1_555 1_555
Zn5 N1_8 1_555 1_555
O5_4 C9_8 1_555 1_555
O6_3 C9_8 1_555 1_555
O7_2 C10_8 1_555 1_555
O8 C10_8 1_555 1_555
N2_8 N3_8 1_555 1_555
N3_8 C1_8 1_555 1_555
C1_8 H1_8 1_555 1_555
H2_8 C2_8 1_555 1_555
C3_8 N2_8 1_555 1_555
C4_8 C3_8 1_555 1_555
C5_8 C4_8 1_555 1_555
H3_8 C5_8 1_555 1_555
C6_8 C5_8 1_555 1_555
H4_8 C6_8 1_555 1_555
C7_8 C6_8 1_555 1_555
C8_8 C3_8 1_555 1_555
H5_8 C8_8 1_555 1_555
C9_8 C4_8 1_555 1_555
C10_8 C7_8 1_555 1_555
N2_8 C2_8 1_555 1_555
C7_8 C8_8 1_555 1_555

#END
