
###############################################################################
#
# This file contains modified crystal structure data generated from the
# MOF subset of the Cambridge Structural Database (CSD) v543 
# hosted by the Cambridge Crystallographic Data Centre (CCDC).
#
# This work is licensed under the Creative Commons
# Attribution-NonCommercial-ShareAlike 4.0 International License.
# To view a copy of this license, visit
# http://creativecommons.org/licenses/by-nc-sa/4.0/
# or send a letter to
# Creative Commons, PO Box 1866, Mountain View, CA 94042, USA.
#
# CIF created using the CSD Python API on 29 September 2022
# The structure has been converted into the P1 space group
# The structure has a 3D framework
# The original CSD entry GILTED is in the monoclinic crystal system
# The framework has been calculated to contain at least 10.0% void space
# The void calculation uses a probe of radius 1.32A, grid spacing 0.4
#
###############################################################################

data_GILTED
_chemical_formula_moiety         '(C96 H72 Cd4 N20 O16)n'
_symmetry_cell_setting           triclinic
_symmetry_space_group_name_H-M   'P 1'
_symmetry_Int_Tables_number      1
_space_group_name_Hall           'P 1'
loop_
_symmetry_equiv_pos_site_id
_symmetry_equiv_pos_as_xyz
1 x,y,z
_cell_length_a                   12.292(4)
_cell_length_b                   20.108(7)
_cell_length_c                   19.807(7)
_cell_angle_alpha                90
_cell_angle_beta                 104.488(6)
_cell_angle_gamma                90
_cell_volume                     4739.97
loop_
_atom_site_label
_atom_site_type_symbol
_atom_site_fract_x
_atom_site_fract_y
_atom_site_fract_z
O5 O 0.2751(4) 0.8858(2) 0.4117(2)
C33 C 0.0997(4) 0.9114(3) 0.4357(3)
O7 O 0.2584(4) 0.8702(3) 0.5163(2)
C37 C 0.2194(5) 0.8885(3) 0.4557(4)
C45 C 0.0315(5) 0.9036(4) 0.4811(4)
H33 H 0.0600 0.8835 0.5242
C46 C 0.0561(5) 0.9425(3) 0.3741(3)
H34 H 0.1011 0.9498 0.3435
Cd5 Cd 0.43348(3) 0.84716(2) 0.49761(2)
Cd1 Cd 0.56652(3) 0.15284(2) 0.50239(2)
N1 N 0.3152(4) 0.0737(2) 0.6026(2)
C1 C 0.2437(4) 0.0198(3) 0.6156(3)
C3 C 0.1224(4) 0.0455(3) 0.5999(3)
N2 N 0.4394(4) 0.1305(3) 0.5642(3)
N3 N 0.5946(5) 0.2608(3) 0.5229(3)
C5 C 0.3884(4) 0.0723(3) 0.5625(3)
H2 H 0.4014 0.0356 0.5371
C8 C 0.5286(9) 0.3133(5) 0.5014(7)
C11 C 0.3144(5) 0.0268(3) 0.7466(3)
H4 H 0.2964 0.0718 0.7446
C12 C 0.0764(5) 0.0750(4) 0.5368(3)
H5 H 0.1206 0.0804 0.5053
H6 H 0.3814 0.0239 0.8496
C14 C 0.0551(5) 0.0362(3) 0.6438(3)
H7 H 0.0836 0.0154 0.6865
N4 N 0.3177(5) 0.1346(3) 0.6322(3)
C16 C 0.5368(8) 0.4353(4) 0.5082(7)
N5 N 0.5790(7) 0.3697(4) 0.5261(6)
C19 C 0.3919(7) 0.1682(3) 0.6069(4)
H11 H 0.4098 0.2126 0.6172
C20 C 0.4146(8) 0.3114(4) 0.4603(7)
H12 H 0.4074 0.2779 0.4248
H13 H 0.3946 0.3539 0.4388
H14 H 0.3657 0.3010 0.4897
C21 C 0.5899(9) 0.4789(5) 0.4816(7)
H15 H 0.6588 0.4672 0.4737
C22 C 0.6952(9) 0.2873(4) 0.5585(7)
H16 H 0.7597 0.2632 0.5789
C23 C 0.6854(9) 0.3538(4) 0.5591(7)
H17 H 0.7423 0.3836 0.5789
C24 C 0.5485(9) 0.5449(5) 0.4635(7)
H18 H 0.5777 0.5723 0.4345
N6 N 0.4054(5) 0.7392(3) 0.4771(3)
C25 C 0.4714(9) 0.6867(5) 0.4986(7)
C26 C 0.4632(8) 0.5647(4) 0.4918(7)
N7 N 0.4210(7) 0.6303(4) 0.4739(6)
C27 C 0.5854(8) 0.6886(4) 0.5397(7)
H19 H 0.5926 0.7221 0.5752
H20 H 0.6054 0.6461 0.5612
H21 H 0.6343 0.6990 0.5103
C28 C 0.4101(9) 0.5211(5) 0.5184(7)
H22 H 0.3412 0.5328 0.5263
C29 C 0.3048(9) 0.7127(4) 0.4415(7)
H23 H 0.2403 0.7368 0.4211
C30 C 0.3146(9) 0.6462(4) 0.4409(7)
H24 H 0.2577 0.6164 0.4211
C31 C 0.4515(9) 0.4551(5) 0.5365(7)
H25 H 0.4223 0.4277 0.5655
N8 N 0.6848(4) 0.9263(2) 0.3974(2)
C32 C 0.7563(4) 0.9802(3) 0.3844(3)
C34 C 0.8776(4) 0.9545(3) 0.4001(3)
N9 N 0.5606(4) 0.8695(3) 0.4358(3)
C36 C 0.6116(4) 0.9277(3) 0.4375(3)
H27 H 0.5986 0.9644 0.4629
C41 C 0.6856(5) 0.9732(3) 0.2534(3)
H29 H 0.7036 0.9282 0.2554
C42 C 0.9236(5) 0.9250(4) 0.4632(3)
H30 H 0.8794 0.9196 0.4947
H31 H 0.6186 0.9761 0.1504
C44 C 0.9449(5) 0.9638(3) 0.3562(3)
H32 H 0.9164 0.9846 0.3135
N10 N 0.6823(5) 0.8654(3) 0.3678(3)
C48 C 0.6081(7) 0.8318(3) 0.3931(4)
H36 H 0.5902 0.7874 0.3828
O9 O 0.7249(4) 0.1142(2) 0.5883(2)
O11 O 0.5138(3) 0.9378(2) 0.5672(2)
O12 O 0.4862(3) 0.0622(2) 0.4328(2)
O13 O 0.7416(4) 0.1298(3) 0.4837(2)
O15 O 0.5356(4) 0.8392(2) 0.6140(2)
O16 O 0.4644(4) 0.1608(2) 0.3860(2)
C2 C 0.9003(4) 0.0886(3) 0.5643(3)
C6 C 0.7806(5) 0.1115(3) 0.5443(4)
C15 C 0.9685(5) 0.0964(4) 0.5189(4)
H8 H 0.9400 0.1165 0.4758
C17 C 0.9439(5) 0.0575(3) 0.6259(3)
H9 H 0.8989 0.0502 0.6565
H26 H 0.2454 0.0147 0.0810
C35 C 0.2905(4) 0.0108(3) 0.1857(3)
C38 C 0.4495(4) 0.0998(3) 0.3817(3)
C39 C 0.3894(4) 0.0691(3) 0.3134(3)
C40 C 0.3131(5) 0.0775(3) 0.1912(3)
H28 H 0.2952 0.1037 0.1512
C43 C 0.3643(5) 0.0019(3) 0.3094(3)
C47 C 0.3616(5) 0.1069(3) 0.2542(3)
H35 H 0.3754 0.1524 0.2566
H1 H 0.7546 0.9853 0.9190
C4 C 0.7095(4) 0.9892(3) 0.8143(3)
C7 C 0.5505(4) 0.9002(3) 0.6183(3)
C9 C 0.6106(4) 0.9309(3) 0.6866(3)
C10 C 0.6869(5) 0.9225(3) 0.8088(3)
H3 H 0.7048 0.8963 0.8488
C13 C 0.6357(5) 0.9981(3) 0.6906(3)
C18 C 0.6384(5) 0.8931(3) 0.7458(3)
H10 H 0.6246 0.8476 0.7434
O6 O 0.5138(3) 0.0622(2) 0.0672(2)
H26_2 H 0.7546 0.0147 0.4190
O8 O 0.5356(4) 0.1608(2) 0.1140(2)
C35_2 C 0.7095(4) 0.0108(3) 0.3143(3)
C38_2 C 0.5505(4) 0.0998(3) 0.1183(3)
C39_2 C 0.6106(4) 0.0691(3) 0.1866(3)
C40_2 C 0.6869(5) 0.0775(3) 0.3088(3)
H28_2 H 0.7048 0.1037 0.3488
C43_2 C 0.6357(5) 0.0019(3) 0.1906(3)
C47_2 C 0.6384(5) 0.1069(3) 0.2458(3)
H35_2 H 0.6246 0.1524 0.2434
Cd6 Cd 0.56652(3) 0.84716(2) 0.00239(2)
O3 O 0.2584(4) 0.1298(3) 0.0163(2)
H8_2 H 0.0600 0.1165 0.0242
C20_2 C 0.5854(8) 0.3114(4) 0.0397(7)
H12_2 H 0.5926 0.2779 0.0752
H13_2 H 0.6054 0.3539 0.0612
H14_2 H 0.6343 0.3010 0.0103
C21_2 C 0.4101(9) 0.4789(5) 0.0184(7)
H15_2 H 0.3412 0.4672 0.0263
C24_2 C 0.4515(9) 0.5449(5) 0.0365(7)
H18_2 H 0.4223 0.5723 0.0655
N6_2 N 0.5946(5) 0.7392(3) 0.0229(3)
C25_2 C 0.5286(9) 0.6867(5) 0.0014(7)
C26_2 C 0.5368(8) 0.5647(4) 0.0082(7)
N7_2 N 0.5790(7) 0.6303(4) 0.0261(6)
C29_2 C 0.6952(9) 0.7127(4) 0.0585(7)
H23_2 H 0.7597 0.7368 0.0789
C30_2 C 0.6854(9) 0.6462(4) 0.0591(7)
H24_2 H 0.7423 0.6164 0.0789
N8_2 N 0.3152(4) 0.9263(2) 0.1026(2)
C32_2 C 0.2437(4) 0.9802(3) 0.1156(3)
C34_2 C 0.1224(4) 0.9545(3) 0.0999(3)
N9_2 N 0.4394(4) 0.8695(3) 0.0642(3)
C36_2 C 0.3884(4) 0.9277(3) 0.0625(3)
H27_2 H 0.4014 0.9644 0.0371
C41_2 C 0.3144(5) 0.9732(3) 0.2466(3)
H29_2 H 0.2964 0.9282 0.2446
C42_2 C 0.0764(5) 0.9250(4) 0.0368(3)
H30_2 H 0.1206 0.9196 0.0053
H31_2 H 0.3814 0.9761 0.3496
C44_2 C 0.0551(5) 0.9638(3) 0.1438(3)
H32_2 H 0.0836 0.9846 0.1865
N10_2 N 0.3177(5) 0.8654(3) 0.1322(3)
C48_2 C 0.3919(7) 0.8318(3) 0.1069(4)
H36_2 H 0.4098 0.7874 0.1172
O10 O 0.7249(4) 0.8858(2) 0.0883(2)
C33_2 C 0.9003(4) 0.9114(3) 0.0643(3)
C37_2 C 0.7806(5) 0.8885(3) 0.0443(4)
C45_2 C 0.9685(5) 0.9036(4) 0.0189(4)
C46_2 C 0.9439(5) 0.9425(3) 0.1259(3)
H34_2 H 0.8989 0.9498 0.1565
Cd4 Cd 0.43348(3) 0.15284(2) 0.99761(2)
O2 O 0.4862(3) 0.9378(2) 0.9328(2)
H1_2 H 0.2454 0.9853 0.5810
O4 O 0.4644(4) 0.8392(2) 0.8860(2)
C4_2 C 0.2905(4) 0.9892(3) 0.6857(3)
C7_2 C 0.4495(4) 0.9002(3) 0.8817(3)
C9_2 C 0.3894(4) 0.9309(3) 0.8134(3)
C10_2 C 0.3131(5) 0.9225(3) 0.6912(3)
H3_2 H 0.2952 0.8963 0.6512
C13_2 C 0.3643(5) 0.9981(3) 0.8094(3)
C18_2 C 0.3616(5) 0.8931(3) 0.7542(3)
H10_2 H 0.3754 0.8476 0.7566
O1 O 0.2751(4) 0.1142(2) 0.9117(2)
C2_2 C 0.0997(4) 0.0886(3) 0.9357(3)
C6_2 C 0.2194(5) 0.1115(3) 0.9557(4)
C15_2 C 0.0315(5) 0.0964(4) 0.9811(4)
C17_2 C 0.0561(5) 0.0575(3) 0.8741(3)
H9_2 H 0.1011 0.0502 0.8435
N1_2 N 0.6848(4) 0.0737(2) 0.8974(2)
C1_2 C 0.7563(4) 0.0198(3) 0.8844(3)
C3_2 C 0.8776(4) 0.0455(3) 0.9001(3)
N2_2 N 0.5606(4) 0.1305(3) 0.9358(3)
N3_2 N 0.4054(5) 0.2608(3) 0.9771(3)
C5_2 C 0.6116(4) 0.0723(3) 0.9375(3)
H2_2 H 0.5986 0.0356 0.9629
C8_2 C 0.4714(9) 0.3133(5) 0.9986(7)
C11_2 C 0.6856(5) 0.0268(3) 0.7534(3)
H4_2 H 0.7036 0.0718 0.7554
C12_2 C 0.9236(5) 0.0750(4) 0.9632(3)
H5_2 H 0.8794 0.0804 0.9947
H6_2 H 0.6186 0.0239 0.6504
C14_2 C 0.9449(5) 0.0362(3) 0.8562(3)
H7_2 H 0.9164 0.0154 0.8135
N4_2 N 0.6823(5) 0.1346(3) 0.8678(3)
C16_2 C 0.4632(8) 0.4353(4) 0.9918(7)
N5_2 N 0.4210(7) 0.3697(4) 0.9739(6)
C19_2 C 0.6081(7) 0.1682(3) 0.8931(4)
H11_2 H 0.5902 0.2126 0.8828
C22_2 C 0.3048(9) 0.2873(4) 0.9415(7)
H16_2 H 0.2403 0.2632 0.9211
C23_2 C 0.3146(9) 0.3538(4) 0.9409(7)
H17_2 H 0.2577 0.3836 0.9211
C27_2 C 0.4146(8) 0.6886(4) 0.9603(7)
H19_2 H 0.4074 0.7221 0.9248
H20_2 H 0.3946 0.6461 0.9388
H21_2 H 0.3657 0.6990 0.9897
C28_2 C 0.5899(9) 0.5211(5) 0.9816(7)
H22_2 H 0.6588 0.5328 0.9737
C31_2 C 0.5485(9) 0.4551(5) 0.9635(7)
H25_2 H 0.5777 0.4277 0.9345
O14 O 0.7416(4) 0.8702(3) 0.9837(2)
H33_2 H 0.9400 0.8835 0.9758
loop_
_geom_bond_atom_site_label_1
_geom_bond_atom_site_label_2
_geom_bond_site_symmetry_1
_geom_bond_site_symmetry_2
O5 C37 1_555 1_555
C33 C37 1_555 1_555
O7 C37 1_555 1_555
C45 C33 1_555 1_555
H33 C45 1_555 1_555
C46 C33 1_555 1_555
H34 C46 1_555 1_555
Cd5 O5 1_555 1_555
O7 Cd5 1_555 1_555
Cd1 N2 1_555 1_555
N1 C1 1_555 1_555
C3 C1 1_555 1_555
N2 C5 1_555 1_555
N3 Cd1 1_555 1_555
C5 N1 1_555 1_555
H2 C5 1_555 1_555
C8 N3 1_555 1_555
H4 C11 1_555 1_555
C12 C3 1_555 1_555
H5 C12 1_555 1_555
C14 C3 1_555 1_555
H7 C14 1_555 1_555
N4 N1 1_555 1_555
C16 N5 1_555 1_555
N5 C8 1_555 1_555
C19 N2 1_555 1_555
H11 C19 1_555 1_555
C20 C8 1_555 1_555
H12 C20 1_555 1_555
H13 C20 1_555 1_555
H14 C20 1_555 1_555
C21 C16 1_555 1_555
H15 C21 1_555 1_555
C22 N3 1_555 1_555
H16 C22 1_555 1_555
C23 N5 1_555 1_555
H17 C23 1_555 1_555
C24 C21 1_555 1_555
H18 C24 1_555 1_555
N6 C25 1_555 1_555
C25 N7 1_555 1_555
C26 C24 1_555 1_555
N7 C26 1_555 1_555
C27 C25 1_555 1_555
H19 C27 1_555 1_555
H20 C27 1_555 1_555
H21 C27 1_555 1_555
C28 C26 1_555 1_555
H22 C28 1_555 1_555
C29 N6 1_555 1_555
H23 C29 1_555 1_555
C30 N7 1_555 1_555
H24 C30 1_555 1_555
C31 C16 1_555 1_555
H25 C31 1_555 1_555
Cd5 N6 1_555 1_555
N8 C32 1_555 1_555
C34 C32 1_555 1_555
N9 Cd5 1_555 1_555
C36 N8 1_555 1_555
H27 C36 1_555 1_555
H29 C41 1_555 1_555
C42 C34 1_555 1_555
H30 C42 1_555 1_555
C44 C34 1_555 1_555
H32 C44 1_555 1_555
N10 N8 1_555 1_555
C48 N9 1_555 1_555
H36 C48 1_555 1_555
O9 Cd1 1_555 1_555
O11 Cd5 1_555 1_555
O12 Cd1 1_555 1_555
O13 Cd1 1_555 1_555
O15 Cd5 1_555 1_555
O16 Cd1 1_555 1_555
N4 C19 1_555 1_555
C22 C23 1_555 1_555
C28 C31 1_555 1_555
C29 C30 1_555 1_555
N9 C36 1_555 1_555
N10 C48 1_555 1_555
O9 C6 1_555 1_555
C2 C6 1_555 1_555
O13 C6 1_555 1_555
C15 C2 1_555 1_555
H8 C15 1_555 1_555
C17 C2 1_555 1_555
H9 C17 1_555 1_555
O12 C38 1_555 1_555
O16 C38 1_555 1_555
C38 C39 1_555 1_555
C39 C43 1_555 1_555
C40 C35 1_555 1_555
H28 C40 1_555 1_555
C47 C39 1_555 1_555
H35 C47 1_555 1_555
C40 C47 1_555 1_555
O11 C7 1_555 1_555
O15 C7 1_555 1_555
C7 C9 1_555 1_555
C9 C13 1_555 1_555
C10 C4 1_555 1_555
H3 C10 1_555 1_555
C18 C9 1_555 1_555
H10 C18 1_555 1_555
C10 C18 1_555 1_555
O6 C38_2 1_555 1_555
O8 C38_2 1_555 1_555
C38_2 C39_2 1_555 1_555
C39_2 C43_2 1_555 1_555
C40_2 C35_2 1_555 1_555
H28_2 C40_2 1_555 1_555
C47_2 C39_2 1_555 1_555
H35_2 C47_2 1_555 1_555
C40_2 C47_2 1_555 1_555
H12_2 C20_2 1_555 1_555
H13_2 C20_2 1_555 1_555
H14_2 C20_2 1_555 1_555
H15_2 C21_2 1_555 1_555
C24_2 C21_2 1_555 1_555
H18_2 C24_2 1_555 1_555
N6_2 C25_2 1_555 1_555
C25_2 N7_2 1_555 1_555
C26_2 C24_2 1_555 1_555
N7_2 C26_2 1_555 1_555
C29_2 N6_2 1_555 1_555
H23_2 C29_2 1_555 1_555
C30_2 N7_2 1_555 1_555
H24_2 C30_2 1_555 1_555
Cd6 N6_2 1_555 1_555
N8_2 C32_2 1_555 1_555
C34_2 C32_2 1_555 1_555
N9_2 Cd6 1_555 1_555
C36_2 N8_2 1_555 1_555
H27_2 C36_2 1_555 1_555
H29_2 C41_2 1_555 1_555
C42_2 C34_2 1_555 1_555
H30_2 C42_2 1_555 1_555
C44_2 C34_2 1_555 1_555
H32_2 C44_2 1_555 1_555
N10_2 N8_2 1_555 1_555
C48_2 N9_2 1_555 1_555
H36_2 C48_2 1_555 1_555
O10 Cd6 1_555 1_555
C29_2 C30_2 1_555 1_555
N9_2 C36_2 1_555 1_555
N10_2 C48_2 1_555 1_555
O10 C37_2 1_555 1_555
C33_2 C37_2 1_555 1_555
C45_2 C33_2 1_555 1_555
C46_2 C33_2 1_555 1_555
H34_2 C46_2 1_555 1_555
O2 C7_2 1_555 1_555
O4 C7_2 1_555 1_555
C7_2 C9_2 1_555 1_555
C9_2 C13_2 1_555 1_555
C10_2 C4_2 1_555 1_555
H3_2 C10_2 1_555 1_555
C18_2 C9_2 1_555 1_555
H10_2 C18_2 1_555 1_555
C10_2 C18_2 1_555 1_555
O1 C6_2 1_555 1_555
C2_2 C6_2 1_555 1_555
C15_2 C2_2 1_555 1_555
C17_2 C2_2 1_555 1_555
H9_2 C17_2 1_555 1_555
Cd4 O1 1_555 1_555
Cd4 N2_2 1_555 1_555
N1_2 C1_2 1_555 1_555
C3_2 C1_2 1_555 1_555
N2_2 C5_2 1_555 1_555
N3_2 Cd4 1_555 1_555
C5_2 N1_2 1_555 1_555
H2_2 C5_2 1_555 1_555
C8_2 N3_2 1_555 1_555
H4_2 C11_2 1_555 1_555
C12_2 C3_2 1_555 1_555
H5_2 C12_2 1_555 1_555
C14_2 C3_2 1_555 1_555
H7_2 C14_2 1_555 1_555
N4_2 N1_2 1_555 1_555
C16_2 N5_2 1_555 1_555
N5_2 C8_2 1_555 1_555
C19_2 N2_2 1_555 1_555
H11_2 C19_2 1_555 1_555
C22_2 N3_2 1_555 1_555
H16_2 C22_2 1_555 1_555
C23_2 N5_2 1_555 1_555
H17_2 C23_2 1_555 1_555
H19_2 C27_2 1_555 1_555
H20_2 C27_2 1_555 1_555
H21_2 C27_2 1_555 1_555
H22_2 C28_2 1_555 1_555
C31_2 C16_2 1_555 1_555
H25_2 C31_2 1_555 1_555
N4_2 C19_2 1_555 1_555
C22_2 C23_2 1_555 1_555
C28_2 C31_2 1_555 1_555

#END
