
###############################################################################
#
# This file contains modified crystal structure data generated from the
# MOF subset of the Cambridge Structural Database (CSD) v543 
# hosted by the Cambridge Crystallographic Data Centre (CCDC).
#
# This work is licensed under the Creative Commons
# Attribution-NonCommercial-ShareAlike 4.0 International License.
# To view a copy of this license, visit
# http://creativecommons.org/licenses/by-nc-sa/4.0/
# or send a letter to
# Creative Commons, PO Box 1866, Mountain View, CA 94042, USA.
#
# CIF created using the CSD Python API on 29 September 2022
# The structure has been converted into the P1 space group
# The structure has a 3D framework
# The original CSD entry GINKUM is in the monoclinic crystal system
# The framework has been calculated to contain at least 10.0% void space
# The void calculation uses a probe of radius 1.32A, grid spacing 0.4
#
###############################################################################

data_GINKUM
_chemical_formula_moiety         '(C104 H72 N24 O24 Zn4)n'
_symmetry_cell_setting           triclinic
_symmetry_space_group_name_H-M   'P 1'
_symmetry_Int_Tables_number      1
_space_group_name_Hall           'P 1'
loop_
_symmetry_equiv_pos_site_id
_symmetry_equiv_pos_as_xyz
1 x,y,z
_cell_length_a                   6.4259(3)
_cell_length_b                   23.2131(12)
_cell_length_c                   17.4546(10)
_cell_angle_alpha                90
_cell_angle_beta                 94.881(2)
_cell_angle_gamma                90
_cell_volume                     2594.17
loop_
_atom_site_label
_atom_site_type_symbol
_atom_site_fract_x
_atom_site_fract_y
_atom_site_fract_z
C8 C 0.1319(8) 0.7085(2) 0.7139(3)
C9 C 0.0095(8) 0.71812(19) 0.7748(3)
C10 C 0.0632(9) 0.7660(2) 0.8217(3)
C11 C 0.2200(8) 0.8026(2) 0.8044(4)
H5 H 0.2509 0.8345 0.8356
C12 C 0.3333(8) 0.7931(2) 0.7415(3)
C13 C 0.2926(8) 0.7454(2) 0.6974(3)
H6 H 0.3718 0.7376 0.6564
C14 C 0.4979(9) 0.8355(3) 0.7188(4)
N5 N 0.0936(7) 0.6607(2) 0.6655(2)
O3 O 0.6025(8) 0.8226(2) 0.6666(3)
O4 O 0.5136(6) 0.88114(19) 0.7552(3)
O5 O 0.2024(8) 0.6506(2) 0.6111(3)
H17 H 0.2385 0.6812 0.5926
Zn3 Zn 0.74279(8) 0.93002(2) 0.72669(3)
C17 C 0.9902(8) 0.8708(2) 0.6073(3)
H9 H 0.9252 0.8353 0.6117
C22 C 0.8774(8) 0.8948(2) 0.8930(3)
H13 H 0.7641 0.8703 0.8967
N1 N 0.9464(6) 0.91955(16) 0.6467(2)
N3 N 0.9178(6) 0.92505(17) 0.8282(2)
C1 C 0.3505(8) 0.5521(2) 0.8040(3)
C2 C 0.5165(7) 0.5976(2) 0.7961(3)
C3 C 0.5376(8) 0.6451(2) 0.8461(3)
H1 H 0.4427 0.6501 0.8829
C4 C 0.6961(8) 0.6839(2) 0.8414(3)
H2 H 0.7100 0.7142 0.8763
C5 C 0.8379(7) 0.6790(2) 0.7850(3)
C6 C 0.8066(8) 0.6327(2) 0.7349(3)
C7 C 0.6509(8) 0.5927(2) 0.7406(3)
H3 H 0.6377 0.5620 0.7062
H4 H 0.9916 0.7730 0.8649
C17_2 C 0.0098(8) 0.3708(2) 0.8927(3)
H9_2 H 0.0748 0.3353 0.8883
C22_2 C 0.1226(8) 0.3948(2) 0.6070(3)
H13_2 H 0.2359 0.3703 0.6033
Zn1 Zn 0.25721(8) 0.43002(2) 0.77331(3)
N1_2 N 0.0536(6) 0.41955(16) 0.8533(2)
N3_2 N 0.0822(6) 0.42505(17) 0.6718(2)
N6 N 0.9379(7) 0.62474(19) 0.6748(3)
O1 O 0.4007(6) 0.50327(15) 0.7779(2)
O2 O 0.1893(6) 0.56454(16) 0.8322(3)
O6 O 0.9136(7) 0.5841(2) 0.6284(3)
H18 H 0.7903 0.5745 0.6240
O13 O 0.4864(6) 0.38114(19) 0.7448(3)
C8_2 C 0.8681(8) 0.2085(2) 0.7861(3)
C9_2 C 0.9905(8) 0.21812(19) 0.7252(3)
C10_2 C 0.9368(9) 0.2660(2) 0.6783(3)
C11_2 C 0.7800(8) 0.3026(2) 0.6956(4)
H5_2 H 0.7491 0.3345 0.6644
C12_2 C 0.6667(8) 0.2931(2) 0.7585(3)
C13_2 C 0.7074(8) 0.2454(2) 0.8026(3)
H6_2 H 0.6282 0.2376 0.8436
C14_2 C 0.5021(9) 0.3355(3) 0.7812(4)
N5_2 N 0.9064(7) 0.1607(2) 0.8345(2)
O3_2 O 0.3975(8) 0.3226(2) 0.8334(3)
O5_2 O 0.7976(8) 0.1506(2) 0.8889(3)
H17_2 H 0.7615 0.1812 0.9074
C27 C 0.0735(7) 0.5400(2) 0.1250(3)
H19 H 0.0780 0.5024 0.1434
C28 C 0.1419(8) 0.6178(2) 0.0611(3)
H20 H 0.1997 0.6434 0.0278
C30 C 0.3508(7) 0.5296(2) 0.0362(3)
C31 C 0.3217(7) 0.4723(2) 0.0192(3)
H22 H 0.2024 0.4534 0.0327
C32 C 0.5299(7) 0.5574(2) 0.0180(3)
H23 H 0.5507 0.5960 0.0308
N8 N 0.1949(6) 0.56079(17) 0.0727(2)
C15 C 0.9265(7) 0.4600(2) 0.8750(3)
H7 H 0.9220 0.4976 0.8566
C16 C 0.8581(8) 0.3822(2) 0.9389(3)
H8 H 0.8003 0.3566 0.9722
C18 C 0.6492(7) 0.4704(2) 0.9638(3)
C19 C 0.6783(7) 0.5277(2) 0.9808(3)
H10 H 0.7976 0.5466 0.9673
C20 C 0.4701(7) 0.4426(2) 0.9820(3)
H11 H 0.4493 0.4040 0.9692
C21 C 0.9106(7) 0.4542(2) 0.6525(3)
H12 H 0.8466 0.4786 0.6856
C23 C 0.9760(8) 0.4055(2) 0.5504(3)
H14 H 0.9674 0.3901 0.5011
C24 C 0.6656(7) 0.4720(2) 0.5391(3)
C25 C 0.6649(8) 0.4819(2) 0.4610(3)
H15 H 0.7767 0.4695 0.4347
C26 C 0.5002(7) 0.4899(2) 0.5782(3)
H16 H 0.4998 0.4831 0.6307
N2 N 0.8051(6) 0.43921(17) 0.9273(2)
N4 N 0.8388(6) 0.44420(16) 0.5791(2)
C33 C 0.0894(7) 0.5458(2) 0.3475(3)
H24 H 0.1534 0.5214 0.3144
C35 C 0.0240(8) 0.5945(2) 0.4496(3)
H26 H 0.0326 0.6099 0.4989
C36 C 0.3344(7) 0.5280(2) 0.4609(3)
C37 C 0.3351(8) 0.5181(2) 0.5390(3)
H27 H 0.2233 0.5305 0.5653
C38 C 0.4998(7) 0.5101(2) 0.4218(3)
H28 H 0.5002 0.5169 0.3693
N10 N 0.1612(6) 0.55580(16) 0.4209(2)
C29 C 0.9902(8) 0.6292(2) 0.1073(3)
H21 H 0.9252 0.6647 0.1117
N7 N 0.9464(6) 0.58045(16) 0.1467(2)
Zn4 Zn 0.74279(8) 0.56998(2) 0.22669(3)
C34 C 0.8774(8) 0.6052(2) 0.3930(3)
H25 H 0.7641 0.6297 0.3967
N9 N 0.9178(6) 0.57495(17) 0.3282(2)
C39 C 0.6495(8) 0.4479(2) 0.1960(3)
C40 C 0.4835(7) 0.4024(2) 0.2039(3)
C41 C 0.4624(8) 0.3549(2) 0.1539(3)
H29 H 0.5573 0.3499 0.1171
C42 C 0.3039(8) 0.3161(2) 0.1586(3)
H30 H 0.2900 0.2858 0.1237
C43 C 0.1621(7) 0.3210(2) 0.2150(3)
C44 C 0.1934(8) 0.3673(2) 0.2651(3)
C45 C 0.3491(8) 0.4073(2) 0.2594(3)
H31 H 0.3623 0.4380 0.2938
H32 H 0.0084 0.2270 0.1351
N12 N 0.0621(7) 0.37526(19) 0.3252(3)
O7 O 0.5993(6) 0.49673(15) 0.2221(2)
O8 O 0.8107(6) 0.43546(16) 0.1678(3)
O12 O 0.0864(7) 0.4159(2) 0.3716(3)
H36 H 0.2097 0.4255 0.3760
O14 O 0.5136(6) 0.61886(19) 0.2552(3)
C46 C 0.1319(8) 0.7915(2) 0.2139(3)
C47 C 0.0095(8) 0.78188(19) 0.2748(3)
C48 C 0.0632(9) 0.7340(2) 0.3217(3)
C49 C 0.2200(8) 0.6974(2) 0.3044(4)
H33 H 0.2509 0.6655 0.3356
C50 C 0.3333(8) 0.7069(2) 0.2415(3)
C51 C 0.2926(8) 0.7546(2) 0.1974(3)
H34 H 0.3718 0.7624 0.1564
C52 C 0.4979(9) 0.6645(3) 0.2188(4)
N11 N 0.0936(7) 0.8393(2) 0.1655(2)
O9 O 0.6025(8) 0.6774(2) 0.1666(3)
O11 O 0.2024(8) 0.8494(2) 0.1111(3)
H35 H 0.2385 0.8188 0.0926
C46_2 C 0.8681(8) 0.2915(2) 0.2861(3)
C47_2 C 0.9905(8) 0.28188(19) 0.2252(3)
C48_2 C 0.9368(9) 0.2340(2) 0.1783(3)
C49_2 C 0.7800(8) 0.1974(2) 0.1956(4)
H33_2 H 0.7491 0.1655 0.1644
C50_2 C 0.6667(8) 0.2069(2) 0.2585(3)
C51_2 C 0.7074(8) 0.2546(2) 0.3026(3)
H34_2 H 0.6282 0.2624 0.3436
C52_2 C 0.5021(9) 0.1645(3) 0.2812(4)
N11_2 N 0.9064(7) 0.3393(2) 0.3345(2)
O9_2 O 0.3975(8) 0.1774(2) 0.3334(3)
O10 O 0.4864(6) 0.11886(19) 0.2448(3)
O11_2 O 0.7976(8) 0.3494(2) 0.3889(3)
H35_2 H 0.7615 0.3188 0.4074
Zn5 Zn 0.25721(8) 0.06998(2) 0.27331(3)
C34_2 C 0.1226(8) 0.1052(2) 0.1070(3)
H25_2 H 0.2359 0.1297 0.1033
N9_2 N 0.0822(6) 0.07495(17) 0.1718(2)
N13 N 0.0536(6) 0.08045(16) 0.3533(2)
C29_2 C 0.0098(8) 0.1292(2) 0.3927(3)
H21_2 H 0.0748 0.1647 0.3883
C39_2 C 0.3505(8) 0.9479(2) 0.3040(3)
C40_2 C 0.5165(7) 0.9024(2) 0.2961(3)
C41_2 C 0.5376(8) 0.8549(2) 0.3461(3)
H29_2 H 0.4427 0.8499 0.3829
C42_2 C 0.6961(8) 0.8161(2) 0.3414(3)
H30_2 H 0.7100 0.7858 0.3763
C43_2 C 0.8379(7) 0.8210(2) 0.2850(3)
C44_2 C 0.8066(8) 0.8673(2) 0.2349(3)
C45_2 C 0.6509(8) 0.9073(2) 0.2406(3)
H31_2 H 0.6377 0.9380 0.2062
H32_2 H 0.9916 0.7270 0.3649
N12_2 N 0.9379(7) 0.87526(19) 0.1748(3)
O7_2 O 0.4007(6) 0.99673(15) 0.2779(2)
O8_2 O 0.1893(6) 0.93546(16) 0.3322(3)
O12_2 O 0.9136(7) 0.9159(2) 0.1284(3)
H36_2 H 0.7903 0.9255 0.1240
C33_2 C 0.9106(7) 0.0458(2) 0.1525(3)
H24_2 H 0.8466 0.0214 0.1856
C35_2 C 0.9760(8) 0.0945(2) 0.0504(3)
H26_2 H 0.9674 0.1099 0.0011
C36_2 C 0.6656(7) 0.0280(2) 0.0391(3)
C38_2 C 0.5002(7) 0.0101(2) 0.0782(3)
H28_2 H 0.4998 0.0169 0.1307
N10_2 N 0.8388(6) 0.05580(16) 0.0791(2)
C19_2 C 0.3217(7) 0.0277(2) 0.5192(3)
H10_2 H 0.2024 0.0466 0.5327
C27_2 C 0.9265(7) 0.0400(2) 0.3750(3)
H19_2 H 0.9220 0.0024 0.3566
C28_2 C 0.8581(8) 0.1178(2) 0.4389(3)
H20_2 H 0.8003 0.1434 0.4722
C30_2 C 0.6492(7) 0.0296(2) 0.4638(3)
C32_2 C 0.4701(7) 0.0574(2) 0.4820(3)
H23_2 H 0.4493 0.0960 0.4692
N8_2 N 0.8051(6) 0.06079(17) 0.4273(2)
C37_2 C 0.6649(8) 0.0181(2) 0.9610(3)
H27_2 H 0.7767 0.0305 0.9347
C25_2 C 0.3351(8) 0.9819(2) 0.0390(3)
H15_2 H 0.2233 0.9695 0.0653
C15_2 C 0.0735(7) 0.9600(2) 0.6250(3)
H7_2 H 0.0780 0.9976 0.6434
C16_2 C 0.1419(8) 0.8822(2) 0.5611(3)
H8_2 H 0.1997 0.8566 0.5278
C18_2 C 0.3508(7) 0.9704(2) 0.5362(3)
C20_2 C 0.5299(7) 0.9426(2) 0.5180(3)
H11_2 H 0.5507 0.9040 0.5308
C21_2 C 0.0894(7) 0.9542(2) 0.8475(3)
H12_2 H 0.1534 0.9786 0.8144
C23_2 C 0.0240(8) 0.9055(2) 0.9496(3)
H14_2 H 0.0326 0.8901 0.9989
C24_2 C 0.3344(7) 0.9720(2) 0.9609(3)
C26_2 C 0.4998(7) 0.9899(2) 0.9218(3)
H16_2 H 0.5002 0.9831 0.8693
N2_2 N 0.1949(6) 0.93921(17) 0.5727(2)
N4_2 N 0.1612(6) 0.94420(16) 0.9209(2)
C31_2 C 0.6783(7) 0.9723(2) 0.4808(3)
H22_2 H 0.7976 0.9534 0.4673
C1_2 C 0.6495(8) 0.0521(2) 0.6960(3)
C2_2 C 0.4835(7) 0.0976(2) 0.7039(3)
C3_2 C 0.4624(8) 0.1451(2) 0.6539(3)
H1_2 H 0.5573 0.1501 0.6171
C4_2 C 0.3039(8) 0.1839(2) 0.6586(3)
H2_2 H 0.2900 0.2142 0.6237
C5_2 C 0.1621(7) 0.1790(2) 0.7150(3)
C6_2 C 0.1934(8) 0.1327(2) 0.7651(3)
C7_2 C 0.3491(8) 0.0927(2) 0.7594(3)
H3_2 H 0.3623 0.0620 0.7938
H4_2 H 0.0084 0.2730 0.6351
N6_2 N 0.0621(7) 0.12474(19) 0.8252(3)
O1_2 O 0.5993(6) 0.00327(15) 0.7221(2)
O2_2 O 0.8107(6) 0.06454(16) 0.6678(3)
O6_2 O 0.0864(7) 0.0841(2) 0.8716(3)
H18_2 H 0.2097 0.0745 0.8760
loop_
_geom_bond_atom_site_label_1
_geom_bond_atom_site_label_2
_geom_bond_site_symmetry_1
_geom_bond_site_symmetry_2
C8 C9 1_555 1_555
C10 C9 1_555 1_555
C11 C10 1_555 1_555
H5 C11 1_555 1_555
C12 C11 1_555 1_555
C13 C8 1_555 1_555
H6 C13 1_555 1_555
C14 C12 1_555 1_555
N5 C8 1_555 1_555
O3 C14 1_555 1_555
O4 C14 1_555 1_555
O5 N5 1_555 1_555
H17 O5 1_555 1_555
Zn3 O4 1_555 1_555
C12 C13 1_555 1_555
H9 C17 1_555 1_555
C22 H13 1_555 1_555
Zn3 N1 1_555 1_555
C17 N1 1_555 1_555
C22 N3 1_555 1_555
Zn3 N3 1_555 1_555
C1 C2 1_555 1_555
C2 C3 1_555 1_555
C3 H1 1_555 1_555
C4 C3 1_555 1_555
H2 C4 1_555 1_555
C5 C4 1_555 1_555
C6 C5 1_555 1_555
C7 C2 1_555 1_555
H3 C7 1_555 1_555
H9_2 C17_2 1_555 1_555
C22_2 H13_2 1_555 1_555
Zn1 N1_2 1_555 1_555
N6 C6 1_555 1_555
O1 C1 1_555 1_555
O2 C1 1_555 1_555
O6 N6 1_555 1_555
H18 O6 1_555 1_555
O13 Zn1 1_555 1_555
C6 C7 1_555 1_555
C17_2 N1_2 1_555 1_555
C22_2 N3_2 1_555 1_555
Zn1 N3_2 1_555 1_555
Zn1 O1 1_555 1_555
C8_2 C9_2 1_555 1_555
C10_2 C9_2 1_555 1_555
C11_2 C10_2 1_555 1_555
H5_2 C11_2 1_555 1_555
C12_2 C11_2 1_555 1_555
C13_2 C8_2 1_555 1_555
H6_2 C13_2 1_555 1_555
C14_2 C12_2 1_555 1_555
N5_2 C8_2 1_555 1_555
O3_2 C14_2 1_555 1_555
O13 C14_2 1_555 1_555
O5_2 N5_2 1_555 1_555
H17_2 O5_2 1_555 1_555
C12_2 C13_2 1_555 1_555
C27 H19 1_555 1_555
C28 H20 1_555 1_555
C30 C31 1_555 1_555
H22 C31 1_555 1_555
H23 C32 1_555 1_555
N8 C27 1_555 1_555
C28 N8 1_555 1_555
C30 C32 1_555 1_555
C30 N8 1_555 1_555
C15 H7 1_555 1_555
C16 H8 1_555 1_555
C18 C19 1_555 1_555
C19 H10 1_555 1_555
C20 C18 1_555 1_555
H11 C20 1_555 1_555
C21 H12 1_555 1_555
H14 C23 1_555 1_555
C24 C25 1_555 1_555
C25 H15 1_555 1_555
C26 C24 1_555 1_555
H16 C26 1_555 1_555
N2 C15 1_555 1_555
N4 C21 1_555 1_555
C33 H24 1_555 1_555
H26 C35 1_555 1_555
C36 C37 1_555 1_555
C37 C26 1_555 1_555
H27 C37 1_555 1_555
C38 C25 1_555 1_555
H28 C38 1_555 1_555
N10 C33 1_555 1_555
C16 N2 1_555 1_555
C18 N2 1_555 1_555
C23 N4 1_555 1_555
C24 N4 1_555 1_555
C35 N10 1_555 1_555
C36 C38 1_555 1_555
C36 N10 1_555 1_555
H21 C29 1_555 1_555
Zn4 N7 1_555 1_555
C29 N7 1_555 1_555
C34 H25 1_555 1_555
C39 C40 1_555 1_555
C40 C41 1_555 1_555
C41 H29 1_555 1_555
C42 C41 1_555 1_555
H30 C42 1_555 1_555
C43 C42 1_555 1_555
C44 C43 1_555 1_555
C45 C40 1_555 1_555
H31 C45 1_555 1_555
Zn4 N9 1_555 1_555
N12 C44 1_555 1_555
O7 C39 1_555 1_555
O8 C39 1_555 1_555
O12 N12 1_555 1_555
H36 O12 1_555 1_555
O14 Zn4 1_555 1_555
C34 N9 1_555 1_555
C44 C45 1_555 1_555
Zn4 O7 1_555 1_555
C46 C47 1_555 1_555
C48 C47 1_555 1_555
C49 C48 1_555 1_555
H33 C49 1_555 1_555
C50 C49 1_555 1_555
C51 C46 1_555 1_555
H34 C51 1_555 1_555
C52 C50 1_555 1_555
N11 C46 1_555 1_555
O9 C52 1_555 1_555
O14 C52 1_555 1_555
O11 N11 1_555 1_555
H35 O11 1_555 1_555
C50 C51 1_555 1_555
C46_2 C47_2 1_555 1_555
C48_2 C47_2 1_555 1_555
C49_2 C48_2 1_555 1_555
H33_2 C49_2 1_555 1_555
C50_2 C49_2 1_555 1_555
C51_2 C46_2 1_555 1_555
H34_2 C51_2 1_555 1_555
C52_2 C50_2 1_555 1_555
N11_2 C46_2 1_555 1_555
O9_2 C52_2 1_555 1_555
O10 C52_2 1_555 1_555
O11_2 N11_2 1_555 1_555
H35_2 O11_2 1_555 1_555
Zn5 O10 1_555 1_555
C50_2 C51_2 1_555 1_555
C34_2 H25_2 1_555 1_555
Zn5 N9_2 1_555 1_555
N13 Zn5 1_555 1_555
C34_2 N9_2 1_555 1_555
H21_2 C29_2 1_555 1_555
C29_2 N13 1_555 1_555
C39_2 C40_2 1_555 1_555
C40_2 C41_2 1_555 1_555
C41_2 H29_2 1_555 1_555
C42_2 C41_2 1_555 1_555
H30_2 C42_2 1_555 1_555
C43_2 C42_2 1_555 1_555
C44_2 C43_2 1_555 1_555
C45_2 C40_2 1_555 1_555
H31_2 C45_2 1_555 1_555
N12_2 C44_2 1_555 1_555
O7_2 C39_2 1_555 1_555
O8_2 C39_2 1_555 1_555
O12_2 N12_2 1_555 1_555
H36_2 O12_2 1_555 1_555
C44_2 C45_2 1_555 1_555
C33_2 H24_2 1_555 1_555
H26_2 C35_2 1_555 1_555
H28_2 C38_2 1_555 1_555
N10_2 C33_2 1_555 1_555
C35_2 N10_2 1_555 1_555
C36_2 C38_2 1_555 1_555
C36_2 N10_2 1_555 1_555
C19_2 H10_2 1_555 1_555
C27_2 H19_2 1_555 1_555
C28_2 H20_2 1_555 1_555
C32_2 C19_2 1_555 1_555
H23_2 C32_2 1_555 1_555
N8_2 C27_2 1_555 1_555
H27_2 C37_2 1_555 1_555
C28_2 N8_2 1_555 1_555
C30_2 C32_2 1_555 1_555
C30_2 N8_2 1_555 1_555
C25_2 H15_2 1_555 1_555
C15_2 H7_2 1_555 1_555
C16_2 H8_2 1_555 1_555
C20_2 C18_2 1_555 1_555
H11_2 C20_2 1_555 1_555
C21_2 H12_2 1_555 1_555
H14_2 C23_2 1_555 1_555
C26_2 C24_2 1_555 1_555
H16_2 C26_2 1_555 1_555
N2_2 C15_2 1_555 1_555
N4_2 C21_2 1_555 1_555
C31_2 C20_2 1_555 1_555
H22_2 C31_2 1_555 1_555
C16_2 N2_2 1_555 1_555
C18_2 N2_2 1_555 1_555
C23_2 N4_2 1_555 1_555
C24_2 N4_2 1_555 1_555
C1_2 C2_2 1_555 1_555
C2_2 C3_2 1_555 1_555
C3_2 H1_2 1_555 1_555
C4_2 C3_2 1_555 1_555
H2_2 C4_2 1_555 1_555
C5_2 C4_2 1_555 1_555
C6_2 C5_2 1_555 1_555
C7_2 C2_2 1_555 1_555
H3_2 C7_2 1_555 1_555
N6_2 C6_2 1_555 1_555
O1_2 C1_2 1_555 1_555
O2_2 C1_2 1_555 1_555
O6_2 N6_2 1_555 1_555
H18_2 O6_2 1_555 1_555
C6_2 C7_2 1_555 1_555

#END
