
###############################################################################
#
# This file contains modified crystal structure data generated from the
# MOF subset of the Cambridge Structural Database (CSD) v543 
# hosted by the Cambridge Crystallographic Data Centre (CCDC).
#
# This work is licensed under the Creative Commons
# Attribution-NonCommercial-ShareAlike 4.0 International License.
# To view a copy of this license, visit
# http://creativecommons.org/licenses/by-nc-sa/4.0/
# or send a letter to
# Creative Commons, PO Box 1866, Mountain View, CA 94042, USA.
#
# CIF created using the CSD Python API on 29 September 2022
# The structure has been converted into the P1 space group
# The structure has a 3D framework
# The original CSD entry GIRZAK is in the triclinic crystal system
# The framework has been calculated to contain at least 10.0% void space
# The void calculation uses a probe of radius 1.32A, grid spacing 0.4
# H atom positions have been added when not included in the experimental data
#
###############################################################################

data_GIRZAK
_chemical_formula_moiety         '(C80 H55 N12 O26 Zn7)n'
_symmetry_cell_setting           triclinic
_symmetry_space_group_name_H-M   'P 1'
_symmetry_Int_Tables_number      1
_space_group_name_Hall           'P 1'
loop_
_symmetry_equiv_pos_site_id
_symmetry_equiv_pos_as_xyz
1 x,y,z
_cell_length_a                   13.838(19)
_cell_length_b                   13.844(19)
_cell_length_c                   14.42(3)
_cell_angle_alpha                108.31(2)
_cell_angle_beta                 110.43(2)
_cell_angle_gamma                107.046(16)
_cell_volume                     2191.33
loop_
_atom_site_label
_atom_site_type_symbol
_atom_site_fract_x
_atom_site_fract_y
_atom_site_fract_z
Zn2 Zn 0.0000 0.5000 0.5000
N2 N 0.0254(16) 0.4615(17) 0.3510(15)
O9 O 0.0221(13) 0.2377(15) 0.4630(11)
C4 C 0.021(2) 0.698(2) 0.217(2)
H5 H 0.0954 0.7450 0.2356
H6 H 0.0371 0.7749 0.3687
C6 C 0.0058(19) 0.585(2) 0.0475(17)
H7 H 0.0625 0.6543 0.0569
C7 C 0.0644(19) 0.507(2) 0.0759(17)
H8 H 0.1462 0.5436 0.0965
C8 C 0.0545(16) 0.480(2) 0.1631(18)
C9 C 0.1459(19) 0.544(2) 0.278(2)
H9 H 0.2194 0.5923 0.2956
C10 C 0.125(2) 0.533(2) 0.3651(18)
H10 H 0.1857 0.5786 0.4380
Zn6 Zn 0.1559(2) 0.3693(3) 0.6002(2)
N12 N 0.674(2) 0.209(2) 0.877(2)
O22 O 0.2717(14) 0.3151(17) 0.6137(14)
O23 O 0.4048(18) 0.492(2) 0.7431(16)
O24 O 0.4677(12) 0.3829(15) 0.5618(12)
O25 O 0.5550(13) 0.2719(14) 0.5374(12)
O26 O 0.7361(19) 0.190(2) 0.8380(19)
O27 O 0.663(2) 0.186(2) 0.9499(19)
O28 O 0.1499(11) 0.4962(13) 0.5828(10)
H49 H 0.2018 0.5647 0.6268
C73 C 0.371(3) 0.389(3) 0.693(2)
C74 C 0.4587(16) 0.342(2) 0.7439(18)
C75 C 0.5203(16) 0.309(2) 0.6911(18)
C76 C 0.5876(17) 0.259(2) 0.734(2)
H50 H 0.6237 0.2284 0.6978
C77 C 0.5975(19) 0.256(2) 0.829(2)
C78 C 0.547(2) 0.298(2) 0.8878(18)
H51 H 0.5576 0.2943 0.9536
C79 C 0.4768(18) 0.349(2) 0.8440(19)
H52 H 0.4454 0.3838 0.8830
C80 C 0.5111(17) 0.323(2) 0.5886(17)
Zn12 Zn 0.5000 0.5000 0.5000
Zn13 Zn 0.5530(2) 0.2740(3) 0.4002(2)
N13 N 0.1258(18) 0.3558(19) 0.7290(16)
O33 O 0.0940(11) 0.6752(14) 0.5560(11)
C41 C 0.201(2) 0.432(2) 0.8385(19)
H27 H 0.2773 0.4754 0.8599
C42 C 0.168(2) 0.445(2) 0.916(2)
H28 H 0.2225 0.4933 0.9909
C43 C 0.052(2) 0.387(2) 0.8866(18)
C45 C 0.014(2) 0.285(2) 0.703(2)
C51 C 0.0552(18) 0.603(2) 0.7521(18)
H35 H 0.1254 0.6563 0.7668
C52 C 0.0414(18) 0.597(2) 0.8455(18)
H36 H 0.1022 0.6500 0.9170
Zn1 Zn 0.8441(2) 0.6307(3) 0.3998(2)
Zn2_2 Zn 1.0000 0.5000 0.5000
N1 N 0.8742(18) 0.6442(19) 0.2710(16)
N3 N 0.3964(18) 0.142(2) 0.276(2)
N5 N 0.326(2) 0.791(2) 0.123(2)
O1 O 0.7283(14) 0.6849(17) 0.3863(14)
O2 O 0.5952(18) 0.508(2) 0.2569(16)
O3 O 0.5323(12) 0.6171(15) 0.4382(12)
O4 O 0.4450(13) 0.7281(14) 0.4626(12)
O5 O 0.2639(19) 0.810(2) 0.1620(19)
O6 O 0.337(2) 0.814(2) 0.0501(19)
O7 O 0.5692(11) 0.4204(14) 0.4207(10)
H1 H 0.5768 0.4443 0.3750
O8 O 0.9060(11) 0.3248(14) 0.4440(11)
O10 O 0.6647(16) 0.2573(18) 0.2583(17)
O11 O 0.6537(15) 0.2021(17) 0.3870(15)
O14 O 0.8501(11) 0.5038(13) 0.4172(10)
H2 H 0.7982 0.4353 0.3732
C1 C 0.799(2) 0.568(2) 0.1615(19)
H3 H 0.7227 0.5246 0.1401
C2 C 0.832(2) 0.555(2) 0.084(2)
H4 H 0.7775 0.5067 0.0091
C3 C 0.948(2) 0.613(2) 0.1134(18)
C5 C 0.986(2) 0.715(2) 0.297(2)
C11 C 0.9448(18) 0.397(2) 0.2479(18)
H11 H 0.8746 0.3437 0.2332
C12 C 0.9586(18) 0.403(2) 0.1545(18)
H12 H 0.8978 0.3500 0.0830
C19 C 0.364(2) 0.106(2) 0.164(2)
H17 H 0.4178 0.1338 0.1427
C20 C 0.249(2) 0.027(2) 0.084(2)
C22 C 0.197(2) 0.023(3) 0.220(3)
C23 C 0.310(3) 0.094(3) 0.302(2)
H20 H 0.3310 0.1115 0.3757
C25 C 0.673(2) 0.197(3) 0.308(3)
C26 C 0.715(2) 0.114(2) 0.262(2)
C27 C 0.629(2) 0.015(3) 0.164(2)
H21 H 0.5548 0.0075 0.1279
C30 C 0.857(2) 0.038(2) 0.272(2)
H23 H 0.9309 0.0438 0.3054
C31 C 0.8307(19) 0.132(2) 0.3178(18)
C32 C 0.9240(18) 0.241(2) 0.4166(18)
C33 C 0.629(3) 0.611(3) 0.307(2)
C34 C 0.5413(16) 0.658(2) 0.2561(18)
C35 C 0.4797(16) 0.691(2) 0.3089(18)
C36 C 0.4124(17) 0.741(2) 0.266(2)
H24 H 0.3763 0.7716 0.3022
C37 C 0.4025(19) 0.744(2) 0.171(2)
C38 C 0.453(2) 0.702(2) 0.1122(18)
H25 H 0.4424 0.7057 0.0464
C39 C 0.5232(18) 0.651(2) 0.1560(19)
H26 H 0.5546 0.6162 0.1170
C40 C 0.4889(17) 0.677(2) 0.4114(17)
N10 N 0.3275(19) 0.398(2) 0.3501(17)
C53 C 0.3018(18) 0.358(2) 0.246(2)
H38 H 0.3574 0.3930 0.2297
C54 C 0.195(3) 0.265(3) 0.155(2)
H39 H 0.1854 0.2453 0.0829
C55 C 0.106(3) 0.202(4) 0.166(3)
C56 C 0.132(3) 0.251(3) 0.277(3)
H40 H 0.0755 0.2230 0.2955
C57 C 0.240(3) 0.341(3) 0.363(2)
H41 H 0.2518 0.3639 0.4353
C58 C 0.006(3) 0.084(6) 0.079(3)
Zn14 Zn 0.4470(2) 0.7260(3) 0.5998(2)
N14 N 0.9746(16) 0.5385(17) 0.6490(15)
N15 N 0.6725(19) 0.602(2) 0.6499(17)
O32 O 0.4308(11) 0.5796(14) 0.5793(10)
O34 O 0.9779(13) 0.7623(15) 0.5370(11)
C44 C 0.979(2) 0.302(2) 0.783(2)
H29 H 0.9046 0.2550 0.7644
H30 H 0.9629 0.2251 0.6313
C46 C 0.9942(19) 0.415(2) 0.9525(17)
H31 H 0.9375 0.3457 0.9431
C47 C 0.9356(19) 0.493(2) 0.9241(17)
H32 H 0.8538 0.4564 0.9035
C48 C 0.9455(16) 0.520(2) 0.8369(18)
C49 C 0.8541(19) 0.456(2) 0.722(2)
H33 H 0.7806 0.4077 0.7044
C50 C 0.875(2) 0.467(2) 0.6349(18)
H34 H 0.8143 0.4214 0.5620
H56 H 0.0199279 0.0991873 0.9314
H54 H 0.980072 0.900813 0.0686003
C13 C 0.6982(18) 0.642(2) 0.754(2)
H13 H 0.6426 0.6070 0.7703
C14 C 0.805(3) 0.735(3) 0.845(2)
H14 H 0.8146 0.7547 0.9171
C15 C 0.894(3) 0.798(4) 0.834(3)
C16 C 0.868(3) 0.749(3) 0.723(3)
H15 H 0.9245 0.7770 0.7045
C17 C 0.760(3) 0.659(3) 0.637(2)
H16 H 0.7482 0.6361 0.5647
C18 C 0.994(3) 0.916(6) 0.921(3)
N9 N 0.6036(18) 0.858(2) 0.724(2)
H37 H 0.4232 0.5557 0.6250
O18 O 0.3353(16) 0.7427(18) 0.7417(17)
O19 O 0.3463(15) 0.7979(17) 0.6130(15)
C59 C 0.636(2) 0.894(2) 0.836(2)
H42 H 0.5822 0.8662 0.8573
C60 C 0.751(2) 0.973(2) 0.916(2)
C62 C 0.803(2) 0.977(3) 0.780(3)
C63 C 0.690(3) 0.906(3) 0.698(2)
H45 H 0.6690 0.8885 0.6243
C65 C 0.327(2) 0.803(3) 0.692(3)
C66 C 0.285(2) 0.886(2) 0.738(2)
C67 C 0.371(2) 0.985(3) 0.836(2)
H46 H 0.4452 0.9925 0.8721
C70 C 0.143(2) 0.962(2) 0.728(2)
H48 H 0.0691 0.9562 0.6946
C71 C 0.1693(19) 0.868(2) 0.6822(18)
C72 C 0.0760(18) 0.759(2) 0.5834(18)
N6 N 0.798(3) 0.847(3) 0.134(2)
O12 O 0.899(2) 0.870(2) 0.169(2)
O13 O 0.714(2) 0.756(2) 0.057(2)
H18 H 0.2280 0.9966 0.0087
C21 C 0.167(2) 0.992(2) 0.114(2)
H19 H 0.1417 0.9956 0.2403
C24 C 0.039(2) 0.932(5) 0.039(3)
C28 C 0.655(2) 0.925(2) 0.1213(19)
H22 H 0.5988 0.8570 0.0576
C29 C 0.770(2) 0.942(3) 0.178(2)
H53 H 0.029351 0.982112 0.899902
H55 H 0.970649 0.017888 0.100098
N11 N 0.202(3) 0.153(3) 0.866(2)
O20 O 0.101(2) 0.130(2) 0.831(2)
O21 O 0.286(2) 0.244(2) 0.943(2)
H43 H 0.7720 0.0034 0.9913
C61 C 0.833(2) 0.008(2) 0.886(2)
H44 H 0.8583 0.0044 0.7597
C64 C 0.961(2) 0.068(5) 0.961(3)
C68 C 0.345(2) 0.075(2) 0.8787(19)
H47 H 0.4012 0.1430 0.9424
C69 C 0.230(2) 0.058(3) 0.822(2)
loop_
_geom_bond_atom_site_label_1
_geom_bond_atom_site_label_2
_geom_bond_site_symmetry_1
_geom_bond_site_symmetry_2
Zn2 N2 1_555 1_555
N2 C10 1_555 1_555
H5 C4 1_555 1_555
H7 C6 1_555 1_555
C7 C6 1_555 1_555
H8 C7 1_555 1_555
C8 C7 1_555 1_555
C9 C8 1_555 1_555
H9 C9 1_555 1_555
C10 C9 1_555 1_555
H10 C10 1_555 1_555
Zn6 O9 1_555 1_555
N12 O26 1_555 1_555
O22 Zn6 1_555 1_555
O23 C73 1_555 1_555
O24 C80 1_555 1_555
O25 C80 1_555 1_555
O27 N12 1_555 1_555
O28 Zn2 1_555 1_555
H49 O28 1_555 1_555
C73 O22 1_555 1_555
C74 C73 1_555 1_555
C75 C74 1_555 1_555
C76 C75 1_555 1_555
H50 C76 1_555 1_555
C77 N12 1_555 1_555
C78 C77 1_555 1_555
H51 C78 1_555 1_555
C79 C74 1_555 1_555
H52 C79 1_555 1_555
C80 C75 1_555 1_555
Zn12 O24 1_555 1_555
Zn13 O25 1_555 1_555
N13 Zn6 1_555 1_555
O33 Zn2 1_555 1_555
Zn6 O28 1_555 1_555
C76 C77 1_555 1_555
C78 C79 1_555 1_555
N13 C41 1_555 1_555
C41 H27 1_555 1_555
C42 C41 1_555 1_555
H28 C42 1_555 1_555
C43 C42 1_555 1_555
C45 N13 1_555 1_555
H35 C51 1_555 1_555
H36 C52 1_555 1_555
C51 C52 1_555 1_555
Zn1 N1 1_555 1_555
Zn12 O3 1_555 1_555
Zn13 N3 1_555 1_555
N1 C1 1_555 1_555
N3 C19 1_555 1_555
N5 O5 1_555 1_555
O1 Zn1 1_555 1_555
O2 C33 1_555 1_555
O3 C40 1_555 1_555
O4 C40 1_555 1_555
O6 N5 1_555 1_555
O7 Zn12 1_555 1_555
H1 O7 1_555 1_555
O8 Zn2_2 1_555 1_555
O10 C25 1_555 1_555
O11 Zn13 1_555 1_555
O14 Zn1 1_555 1_555
H2 O14 1_555 1_555
C1 H3 1_555 1_555
C2 C1 1_555 1_555
H4 C2 1_555 1_555
C3 C2 1_555 1_555
C5 N1 1_555 1_555
H11 C11 1_555 1_555
H12 C12 1_555 1_555
C19 H17 1_555 1_555
C20 C19 1_555 1_555
C23 N3 1_555 1_555
H20 C23 1_555 1_555
C25 O11 1_555 1_555
C26 C25 1_555 1_555
C27 C26 1_555 1_555
H21 C27 1_555 1_555
H23 C30 1_555 1_555
C31 C26 1_555 1_555
C32 O8 1_555 1_555
C33 O1 1_555 1_555
C34 C33 1_555 1_555
C35 C34 1_555 1_555
C36 C35 1_555 1_555
H24 C36 1_555 1_555
C37 N5 1_555 1_555
C38 C37 1_555 1_555
H25 C38 1_555 1_555
C39 C34 1_555 1_555
H26 C39 1_555 1_555
C40 C35 1_555 1_555
N10 Zn12 1_555 1_555
C53 N10 1_555 1_555
H38 C53 1_555 1_555
C54 C53 1_555 1_555
H39 C54 1_555 1_555
C55 C54 1_555 1_555
C56 C55 1_555 1_555
H40 C56 1_555 1_555
C57 N10 1_555 1_555
H41 C57 1_555 1_555
C58 C55 1_555 1_555
Zn14 O4 1_555 1_555
N14 Zn2_2 1_555 1_555
N15 Zn12 1_555 1_555
O32 Zn12 1_555 1_555
O34 Zn1 1_555 1_555
Zn2_2 O14 1_555 1_555
Zn13 O7 1_555 1_555
C11 C12 1_555 1_555
C22 C23 1_555 1_555
C30 C31 1_555 1_555
C31 C32 1_555 1_555
C36 C37 1_555 1_555
C38 C39 1_555 1_555
C56 C57 1_555 1_555
Zn14 O32 1_555 1_555
N14 C50 1_555 1_555
H29 C44 1_555 1_555
H31 C46 1_555 1_555
H32 C47 1_555 1_555
C48 C47 1_555 1_555
C49 C48 1_555 1_555
H33 C49 1_555 1_555
C50 C49 1_555 1_555
H34 C50 1_555 1_555
C46 C47 1_555 1_555
N15 C13 1_555 1_555
C13 H13 1_555 1_555
C14 C13 1_555 1_555
H14 C14 1_555 1_555
C15 C14 1_555 1_555
C16 C15 1_555 1_555
H15 C16 1_555 1_555
C17 N15 1_555 1_555
H16 C17 1_555 1_555
C18 C15 1_555 1_555
Zn14 N9 1_555 1_555
N9 C59 1_555 1_555
H37 O32 1_555 1_555
O33 C72 1_555 1_555
O18 C65 1_555 1_555
O19 Zn14 1_555 1_555
C59 H42 1_555 1_555
C60 C59 1_555 1_555
C63 N9 1_555 1_555
H45 C63 1_555 1_555
C65 O19 1_555 1_555
C66 C65 1_555 1_555
C67 C66 1_555 1_555
H46 C67 1_555 1_555
H48 C70 1_555 1_555
C71 C66 1_555 1_555
C72 C71 1_555 1_555
C16 C17 1_555 1_555
C62 C63 1_555 1_555
C70 C71 1_555 1_555
N6 O12 1_555 1_555
O13 N6 1_555 1_555
H22 C28 1_555 1_555
C29 N6 1_555 1_555
C21 C24 1_555 1_555
C28 C29 1_555 1_555
N11 O20 1_555 1_555
O21 N11 1_555 1_555
H47 C68 1_555 1_555
C69 N11 1_555 1_555
C61 C64 1_555 1_555
C68 C69 1_555 1_555

#END
