
###############################################################################
#
# This file contains modified crystal structure data generated from the
# MOF subset of the Cambridge Structural Database (CSD) v543 
# hosted by the Cambridge Crystallographic Data Centre (CCDC).
#
# This work is licensed under the Creative Commons
# Attribution-NonCommercial-ShareAlike 4.0 International License.
# To view a copy of this license, visit
# http://creativecommons.org/licenses/by-nc-sa/4.0/
# or send a letter to
# Creative Commons, PO Box 1866, Mountain View, CA 94042, USA.
#
# CIF created using the CSD Python API on 29 September 2022
# The structure has been converted into the P1 space group
# The structure has a 3D framework
# The original CSD entry GITKOM is in the monoclinic crystal system
# The framework has been calculated to contain at least 10.0% void space
# The void calculation uses a probe of radius 1.32A, grid spacing 0.4
#
###############################################################################

data_GITKOM
_chemical_formula_moiety         '(C112 H64 Cd8 N32 O32 S8)n'
_symmetry_cell_setting           triclinic
_symmetry_space_group_name_H-M   'P 1'
_symmetry_Int_Tables_number      1
_space_group_name_Hall           'P 1'
loop_
_symmetry_equiv_pos_site_id
_symmetry_equiv_pos_as_xyz
1 x,y,z
_cell_length_a                   19.3201(5)
_cell_length_b                   13.2499(3)
_cell_length_c                   13.8392(4)
_cell_angle_alpha                90
_cell_angle_beta                 97.1200(10)
_cell_angle_gamma                90
_cell_volume                     3515.37
loop_
_atom_site_label
_atom_site_type_symbol
_atom_site_fract_x
_atom_site_fract_y
_atom_site_fract_z
Cd1 Cd 0.30156(2) 0.17884(2) 0.13887(2)
O1 O 0.12532(11) 0.57973(16) 0.28733(15)
O2 O 0.20920(12) 0.67452(14) 0.23972(15)
O3 O 0.22222(11) 0.39740(14) 0.23951(14)
O4 O 0.22945(9) 0.31366(12) 0.09923(14)
N4 N 0.11767(14) 0.61953(18) 0.05160(18)
N5 N 0.35917(11) 0.04452(16) 0.06513(16)
N7 N 0.20040(11) 0.07981(16) 0.13482(16)
C11 C 0.21006(13) 0.38632(18) 0.1506(2)
C12 C 0.16959(13) 0.46743(19) 0.09157(19)
C13 C 0.14930(14) 0.5640(2) 0.1237(2)
C14 C 0.16252(15) 0.6093(2) 0.2254(2)
C19 C 0.13766(14) 0.1236(2) 0.1305(2)
H9 H 0.1355 0.1952 0.131
C20 C 0.07584(14) 0.0700(2) 0.1252(2)
H10 H 0.0327 0.1048 0.1228
Cd6 Cd 0.20645(2) 0.68423(2) 0.41412(2)
O11 O 0.32025(10) 0.14692(14) 0.29998(14)
N9 N 0.39786(11) 0.28304(16) 0.13779(16)
Cd2 Cd 0.20645(2) 0.31577(2) 0.91412(2)
O5 O 0.27713(10) 0.18473(12) 0.96471(14)
O6 O 0.27928(11) 0.09764(15) 0.82624(14)
S1 S 0.11297(4) 0.55462(5) 0.95069(5)
N1 N 0.30345(11) 0.41756(16) 0.91067(17)
N2 N 0.60214(11) 0.71696(16) 0.86221(16)
N3 N 0.15256(11) 0.45343(15) 0.99663(16)
C1 C 0.35743(14) 0.3786(2) 0.8713(2)
H1 H 0.3548 0.3103 0.8503
C2 C 0.41714(14) 0.4335(2) 0.8598(2)
H2 H 0.4545 0.4025 0.8322
C3 C 0.42203(13) 0.53395(19) 0.88895(19)
C4 C 0.36565(14) 0.5742(2) 0.9294(2)
H3 H 0.3667 0.6424 0.9508
C5 C 0.30819(14) 0.5147(2) 0.9383(2)
H4 H 0.27 0.544 0.9654
C6 C 0.48456(13) 0.59635(19) 0.87871(19)
C7 C 0.54940(13) 0.55330(19) 0.86936(19)
H5 H 0.5547 0.482 0.8685
C8 C 0.60565(13) 0.61551(19) 0.8614(2)
H6 H 0.6494 0.585 0.8551
C9 C 0.53970(14) 0.7577(2) 0.8691(2)
H7 H 0.5356 0.8292 0.8679
C10 C 0.48064(14) 0.7010(2) 0.8779(2)
H8 H 0.4375 0.7336 0.8834
C15 C 0.29622(13) 0.11125(19) 0.9132(2)
C16 C 0.34265(13) 0.03482(19) 0.96988(19)
Cd3 Cd 0.69844(2) 0.82116(2) 0.86113(2)
O9 O 0.12532(11) 0.42027(16) 0.78733(15)
O10 O 0.20920(12) 0.32548(14) 0.73972(15)
N10 N 0.10974(11) 0.21338(16) 0.90078(17)
O7 O 0.32025(10) 0.85308(14) 0.79998(14)
O8 O 0.41063(11) 0.95269(16) 0.77683(15)
N6 N 0.41298(13) 0.89625(17) 0.99917(17)
C17 C 0.37351(14) 0.94878(19) 0.9318(2)
C18 C 0.36760(14) 0.91670(19) 0.8262(2)
Cd4 Cd 0.30156(2) 0.82116(2) 0.63887(2)
N8 N 0.89026(11) 0.78662(16) 0.09922(17)
C25 C 0.94809(14) 0.9451(2) 0.1340(2)
C26 C 0.88935(14) 0.8844(2) 0.1246(2)
H14 H 0.8463 0.9133 0.1367
C27 C 0.95133(14) 0.7482(2) 0.0814(2)
H15 H 0.9528 0.6791 0.0632
Cd5 Cd 0.79355(2) 0.68423(2) 0.08588(2)
N8_2 N 0.10974(11) 0.78662(16) 0.40078(17)
C25_2 C 0.05191(14) 0.9451(2) 0.3660(2)
C26_2 C 0.11065(14) 0.8844(2) 0.3754(2)
H14_2 H 0.1537 0.9133 0.3633
C27_2 C 0.04867(14) 0.7482(2) 0.4186(2)
H15_2 H 0.0472 0.6791 0.4368
Cd1_2 Cd 0.69844(2) 0.17884(2) 0.36113(2)
Cd2_2 Cd 0.79355(2) 0.31577(2) 0.58588(2)
O1_2 O 0.87468(11) 0.57973(16) 0.21267(15)
O2_2 O 0.79080(12) 0.67452(14) 0.26028(15)
O3_2 O 0.77778(11) 0.39740(14) 0.26049(14)
O4_2 O 0.77055(9) 0.31366(12) 0.40077(14)
O5_2 O 0.72287(10) 0.18473(12) 0.53529(14)
O6_2 O 0.72072(11) 0.09764(15) 0.67376(14)
S1_2 S 0.88703(4) 0.55462(5) 0.54931(5)
N1_2 N 0.69655(11) 0.41756(16) 0.58933(17)
N2_2 N 0.39786(11) 0.71696(16) 0.63779(16)
N3_2 N 0.84744(11) 0.45343(15) 0.50337(16)
N4_2 N 0.88233(14) 0.61953(18) 0.44840(18)
N5_2 N 0.64083(11) 0.04452(16) 0.43487(16)
N7_2 N 0.79960(11) 0.07981(16) 0.36518(16)
C1_2 C 0.64257(14) 0.3786(2) 0.6287(2)
H1_2 H 0.6452 0.3103 0.6497
C2_2 C 0.58286(14) 0.4335(2) 0.6402(2)
H2_2 H 0.5455 0.4025 0.6678
C3_2 C 0.57797(13) 0.53395(19) 0.61105(19)
C4_2 C 0.63435(14) 0.5742(2) 0.5706(2)
H3_2 H 0.6333 0.6424 0.5492
C5_2 C 0.69181(14) 0.5147(2) 0.5617(2)
H4_2 H 0.73 0.544 0.5346
C6_2 C 0.51544(13) 0.59635(19) 0.62129(19)
C7_2 C 0.45060(13) 0.55330(19) 0.63064(19)
H5_2 H 0.4453 0.482 0.6315
C8_2 C 0.39435(13) 0.61551(19) 0.6386(2)
H6_2 H 0.3506 0.585 0.6449
C9_2 C 0.46030(14) 0.7577(2) 0.6309(2)
H7_2 H 0.4644 0.8292 0.6321
C10_2 C 0.51936(14) 0.7010(2) 0.6221(2)
H8_2 H 0.5625 0.7336 0.6166
C11_2 C 0.78994(13) 0.38632(18) 0.3494(2)
C12_2 C 0.83041(13) 0.46743(19) 0.40843(19)
C13_2 C 0.85070(14) 0.5640(2) 0.3763(2)
C14_2 C 0.83748(15) 0.6093(2) 0.2746(2)
C15_2 C 0.70378(13) 0.11125(19) 0.5868(2)
C16_2 C 0.65735(13) 0.03482(19) 0.53012(19)
C19_2 C 0.86234(14) 0.1236(2) 0.3695(2)
H9_2 H 0.8645 0.1952 0.369
C20_2 C 0.92416(14) 0.0700(2) 0.3748(2)
H10_2 H 0.9673 0.1048 0.3772
O9_2 O 0.87468(11) 0.42027(16) 0.71267(15)
O10_2 O 0.79080(12) 0.32548(14) 0.76028(15)
O11_2 O 0.67975(10) 0.14692(14) 0.20002(14)
N9_2 N 0.60214(11) 0.28304(16) 0.36221(16)
N10_2 N 0.89026(11) 0.21338(16) 0.59922(17)
O7_2 O 0.67975(10) 0.85308(14) 0.70002(14)
O8_2 O 0.58937(11) 0.95269(16) 0.72317(15)
S2 S 0.58882(4) 0.95179(5) 0.39581(5)
N6_2 N 0.58702(13) 0.89625(17) 0.50083(17)
C17_2 C 0.62649(14) 0.94878(19) 0.5682(2)
C18_2 C 0.63240(14) 0.91670(19) 0.6738(2)
C21 C 0.92290(14) 0.9652(2) 0.37634(19)
C22 C 0.85730(14) 0.9197(2) 0.3701(2)
H11 H 0.8535 0.8482 0.3698
C23 C 0.79791(14) 0.9784(2) 0.3643(2)
H12 H 0.7539 0.9457 0.3595
C24 C 0.98787(13) 0.90480(19) 0.38428(19)
C28 C 0.98765(15) 0.8032(2) 0.4119(2)
H16 H 0.9457 0.7723 0.4261
C25_3 C 0.05191(14) 0.0549(2) 0.8660(2)
C26_3 C 0.11065(14) 0.1156(2) 0.8754(2)
H14_3 H 0.1537 0.0867 0.8633
C27_3 C 0.04867(14) 0.2518(2) 0.9186(2)
H15_3 H 0.0472 0.3209 0.9368
O8_3 O 0.58937(11) 0.04731(16) 0.22317(15)
N6_3 N 0.58702(13) 0.10375(17) 0.00083(17)
C17_3 C 0.62649(14) 0.05122(19) 0.0682(2)
C18_3 C 0.63240(14) 0.08330(19) 0.1738(2)
O5_3 O 0.72287(10) 0.81527(12) 0.03529(14)
O6_3 O 0.72072(11) 0.90236(15) 0.17376(14)
S1_3 S 0.88703(4) 0.44538(5) 0.04931(5)
N1_3 N 0.69655(11) 0.58244(16) 0.08933(17)
N3_3 N 0.84744(11) 0.54657(15) 0.00337(16)
C1_3 C 0.64257(14) 0.6214(2) 0.1287(2)
H1_3 H 0.6452 0.6897 0.1497
C2_3 C 0.58286(14) 0.5665(2) 0.1402(2)
H2_3 H 0.5455 0.5975 0.1678
C3_3 C 0.57797(13) 0.46605(19) 0.11105(19)
C4_3 C 0.63435(14) 0.4258(2) 0.0706(2)
H3_3 H 0.6333 0.3576 0.0492
C5_3 C 0.69181(14) 0.4853(2) 0.0617(2)
H4_3 H 0.73 0.456 0.0346
C6_3 C 0.51544(13) 0.40365(19) 0.12129(19)
C7_3 C 0.45060(13) 0.44670(19) 0.13064(19)
H5_3 H 0.4453 0.518 0.1315
C8_3 C 0.39435(13) 0.38449(19) 0.1386(2)
H6_3 H 0.3506 0.415 0.1449
C9_3 C 0.46030(14) 0.2423(2) 0.1309(2)
H7_3 H 0.4644 0.1708 0.1321
C10_3 C 0.51936(14) 0.2990(2) 0.1221(2)
H8_3 H 0.5625 0.2664 0.1166
C15_3 C 0.70378(13) 0.88875(19) 0.0868(2)
C16_3 C 0.65735(13) 0.96518(19) 0.03012(19)
O3_3 O 0.77778(11) 0.60260(14) 0.76049(14)
O4_3 O 0.77055(9) 0.68634(12) 0.90077(14)
N4_3 N 0.88233(14) 0.38047(18) 0.94840(18)
N5_3 N 0.64083(11) 0.95548(16) 0.93487(16)
N7_3 N 0.79960(11) 0.92019(16) 0.86518(16)
C11_3 C 0.78994(13) 0.61368(18) 0.8494(2)
C12_3 C 0.83041(13) 0.53257(19) 0.90843(19)
C13_3 C 0.85070(14) 0.4360(2) 0.8763(2)
C14_3 C 0.83748(15) 0.3907(2) 0.7746(2)
C19_3 C 0.86234(14) 0.8764(2) 0.8695(2)
H9_3 H 0.8645 0.8048 0.869
C20_3 C 0.92416(14) 0.9300(2) 0.8748(2)
H10_3 H 0.9673 0.8952 0.8772
O8_4 O 0.41063(11) 0.04731(16) 0.27683(15)
S2_2 S 0.41118(4) 0.04821(5) 0.60419(5)
N6_4 N 0.41298(13) 0.10375(17) 0.49917(17)
C17_4 C 0.37351(14) 0.05122(19) 0.4318(2)
C18_4 C 0.36760(14) 0.08330(19) 0.3262(2)
C21_2 C 0.07710(14) 0.0348(2) 0.62366(19)
C22_2 C 0.14270(14) 0.0803(2) 0.6299(2)
H11_2 H 0.1465 0.1518 0.6302
C23_2 C 0.20209(14) 0.0216(2) 0.6357(2)
H12_2 H 0.2461 0.0543 0.6405
C24_2 C 0.01213(13) 0.09520(19) 0.61572(19)
C28_2 C 0.01235(15) 0.1968(2) 0.5881(2)
H16_2 H 0.0543 0.2277 0.5739
O3_4 O 0.22222(11) 0.60260(14) 0.73951(14)
O4_4 O 0.22945(9) 0.68634(12) 0.59923(14)
O5_4 O 0.27713(10) 0.81527(12) 0.46471(14)
O6_4 O 0.27928(11) 0.90236(15) 0.32624(14)
S1_4 S 0.11297(4) 0.44538(5) 0.45069(5)
N1_4 N 0.30345(11) 0.58244(16) 0.41067(17)
N3_4 N 0.15256(11) 0.54657(15) 0.49663(16)
N4_4 N 0.11767(14) 0.38047(18) 0.55160(18)
N5_4 N 0.35917(11) 0.95548(16) 0.56513(16)
N7_4 N 0.20040(11) 0.92019(16) 0.63482(16)
C1_4 C 0.35743(14) 0.6214(2) 0.3713(2)
H1_4 H 0.3548 0.6897 0.3503
C2_4 C 0.41714(14) 0.5665(2) 0.3598(2)
H2_4 H 0.4545 0.5975 0.3322
C3_4 C 0.42203(13) 0.46605(19) 0.38895(19)
C4_4 C 0.36565(14) 0.4258(2) 0.4294(2)
H3_4 H 0.3667 0.3576 0.4508
C5_4 C 0.30819(14) 0.4853(2) 0.4383(2)
H4_4 H 0.27 0.456 0.4654
C6_4 C 0.48456(13) 0.40365(19) 0.37871(19)
C7_4 C 0.54940(13) 0.44670(19) 0.36936(19)
H5_4 H 0.5547 0.518 0.3685
C8_4 C 0.60565(13) 0.38449(19) 0.3614(2)
H6_4 H 0.6494 0.415 0.3551
C9_4 C 0.53970(14) 0.2423(2) 0.3691(2)
H7_4 H 0.5356 0.1708 0.3679
C10_4 C 0.48064(14) 0.2990(2) 0.3779(2)
H8_4 H 0.4375 0.2664 0.3834
C11_4 C 0.21006(13) 0.61368(18) 0.6506(2)
C12_4 C 0.16959(13) 0.53257(19) 0.59157(19)
C13_4 C 0.14930(14) 0.4360(2) 0.6237(2)
C14_4 C 0.16252(15) 0.3907(2) 0.7254(2)
C15_4 C 0.29622(13) 0.88875(19) 0.4132(2)
C16_4 C 0.34265(13) 0.96518(19) 0.46988(19)
C19_4 C 0.13766(14) 0.8764(2) 0.6305(2)
H9_4 H 0.1355 0.8048 0.631
C20_4 C 0.07584(14) 0.9300(2) 0.6252(2)
H10_4 H 0.0327 0.8952 0.6228
C25_4 C 0.94809(14) 0.0549(2) 0.6340(2)
C26_4 C 0.88935(14) 0.1156(2) 0.6246(2)
H14_4 H 0.8463 0.0867 0.6367
C27_4 C 0.95133(14) 0.2518(2) 0.5814(2)
H15_4 H 0.9528 0.3209 0.5632
S2_3 S 0.41118(4) 0.95179(5) 0.10419(5)
C21_3 C 0.07710(14) 0.9652(2) 0.12366(19)
C22_3 C 0.14270(14) 0.9197(2) 0.1299(2)
H11_3 H 0.1465 0.8482 0.1302
C23_3 C 0.20209(14) 0.9784(2) 0.1357(2)
H12_3 H 0.2461 0.9457 0.1405
C24_3 C 0.01213(13) 0.90480(19) 0.11572(19)
C28_3 C 0.01235(15) 0.8032(2) 0.0881(2)
H16_3 H 0.0543 0.7723 0.0739
H13 H 0.9449 0.0138 0.1528
H13_2 H 0.0551 0.0138 0.3472
H13_3 H 0.0551 0.9862 0.8472
S2_4 S 0.58882(4) 0.04821(5) 0.89581(5)
C21_4 C 0.92290(14) 0.0348(2) 0.87634(19)
C22_4 C 0.85730(14) 0.0803(2) 0.8701(2)
H11_4 H 0.8535 0.1518 0.8698
C23_4 C 0.79791(14) 0.0216(2) 0.8643(2)
H12_4 H 0.7539 0.0543 0.8595
C24_4 C 0.98787(13) 0.09520(19) 0.88428(19)
C28_4 C 0.98765(15) 0.1968(2) 0.9119(2)
H16_4 H 0.9457 0.2277 0.9261
H13_4 H 0.9449 0.9862 0.6528
loop_
_geom_bond_atom_site_label_1
_geom_bond_atom_site_label_2
_geom_bond_site_symmetry_1
_geom_bond_site_symmetry_2
Cd1 O4 1_555 1_555
O1 C14 1_555 1_555
O2 C14 1_555 1_555
O3 C11 1_555 1_555
O4 C11 1_555 1_555
N5 Cd1 1_555 1_555
N7 Cd1 1_555 1_555
C11 C12 1_555 1_555
C13 N4 1_555 1_555
C14 C13 1_555 1_555
C19 N7 1_555 1_555
H9 C19 1_555 1_555
C20 C19 1_555 1_555
H10 C20 1_555 1_555
Cd6 O1 1_555 1_555
O11 Cd1 1_555 1_555
N9 Cd1 1_555 1_555
O2 Cd6 1_555 1_555
C12 C13 1_555 1_555
O6 C15 1_555 1_555
S1 N3 1_555 1_555
N1 Cd2 1_555 1_555
N2 C8 1_555 1_555
N3 Cd2 1_555 1_555
C1 N1 1_555 1_555
H1 C1 1_555 1_555
C2 C1 1_555 1_555
H2 C2 1_555 1_555
C3 C2 1_555 1_555
C4 C3 1_555 1_555
H3 C4 1_555 1_555
C5 N1 1_555 1_555
H4 C5 1_555 1_555
C6 C3 1_555 1_555
C7 C6 1_555 1_555
H5 C7 1_555 1_555
C8 C7 1_555 1_555
H6 C8 1_555 1_555
C9 N2 1_555 1_555
H7 C9 1_555 1_555
C10 C6 1_555 1_555
H8 C10 1_555 1_555
C15 O5 1_555 1_555
Cd3 N2 1_555 1_555
O9 Cd2 1_555 1_555
O10 Cd2 1_555 1_555
N10 Cd2 1_555 1_555
Cd2 O5 1_555 1_555
C4 C5 1_555 1_555
C9 C10 1_555 1_555
C15 C16 1_555 1_555
O7 C18 1_555 1_555
O8 C18 1_555 1_555
C17 N6 1_555 1_555
C18 C17 1_555 1_555
Cd4 O7 1_555 1_555
N8 C26 1_555 1_555
C26 C25 1_555 1_555
H14 C26 1_555 1_555
C27 N8 1_555 1_555
H15 C27 1_555 1_555
Cd5 N8 1_555 1_555
N8_2 C26_2 1_555 1_555
C26_2 C25_2 1_555 1_555
H14_2 C26_2 1_555 1_555
C27_2 N8_2 1_555 1_555
H15_2 C27_2 1_555 1_555
Cd6 N8_2 1_555 1_555
Cd1_2 O4_2 1_555 1_555
Cd2_2 O4_2 1_555 1_555
O1_2 C14_2 1_555 1_555
O2_2 C14_2 1_555 1_555
O3_2 C11_2 1_555 1_555
O4_2 C11_2 1_555 1_555
O5_2 Cd1_2 1_555 1_555
O6_2 C15_2 1_555 1_555
S1_2 N3_2 1_555 1_555
N1_2 Cd2_2 1_555 1_555
N2_2 C8_2 1_555 1_555
N3_2 Cd2_2 1_555 1_555
N4_2 S1_2 1_555 1_555
N5_2 Cd1_2 1_555 1_555
N7_2 Cd1_2 1_555 1_555
C1_2 N1_2 1_555 1_555
H1_2 C1_2 1_555 1_555
C2_2 C1_2 1_555 1_555
H2_2 C2_2 1_555 1_555
C3_2 C2_2 1_555 1_555
C4_2 C3_2 1_555 1_555
H3_2 C4_2 1_555 1_555
C5_2 N1_2 1_555 1_555
H4_2 C5_2 1_555 1_555
C6_2 C3_2 1_555 1_555
C7_2 C6_2 1_555 1_555
H5_2 C7_2 1_555 1_555
C8_2 C7_2 1_555 1_555
H6_2 C8_2 1_555 1_555
C9_2 N2_2 1_555 1_555
H7_2 C9_2 1_555 1_555
C10_2 C6_2 1_555 1_555
H8_2 C10_2 1_555 1_555
C11_2 C12_2 1_555 1_555
C12_2 N3_2 1_555 1_555
C13_2 N4_2 1_555 1_555
C14_2 C13_2 1_555 1_555
C15_2 O5_2 1_555 1_555
C16_2 N5_2 1_555 1_555
C19_2 N7_2 1_555 1_555
H9_2 C19_2 1_555 1_555
C20_2 C19_2 1_555 1_555
H10_2 C20_2 1_555 1_555
Cd4 N2_2 1_555 1_555
Cd5 O1_2 1_555 1_555
O9_2 Cd2_2 1_555 1_555
O10_2 Cd2_2 1_555 1_555
O11_2 Cd1_2 1_555 1_555
N9_2 Cd1_2 1_555 1_555
N10_2 Cd2_2 1_555 1_555
Cd2_2 O5_2 1_555 1_555
O2_2 Cd5 1_555 1_555
C4_2 C5_2 1_555 1_555
C9_2 C10_2 1_555 1_555
C12_2 C13_2 1_555 1_555
C15_2 C16_2 1_555 1_555
O7_2 C18_2 1_555 1_555
O8_2 C18_2 1_555 1_555
N6_2 S2 1_555 1_555
C17_2 N6_2 1_555 1_555
C18_2 C17_2 1_555 1_555
C22 C21 1_555 1_555
H11 C22 1_555 1_555
H12 C23 1_555 1_555
C24 C21 1_555 1_555
C28 C24 1_555 1_555
H16 C28 1_555 1_555
Cd3 O7_2 1_555 1_555
C22 C23 1_555 1_555
N10 C26_3 1_555 1_555
C26_3 C25_3 1_555 1_555
H14_3 C26_3 1_555 1_555
C27_3 N10 1_555 1_555
H15_3 C27_3 1_555 1_555
O11_2 C18_3 1_555 1_555
O8_3 C18_3 1_555 1_555
C17_3 N6_3 1_555 1_555
C18_3 C17_3 1_555 1_555
O6_3 C15_3 1_555 1_555
S1_3 N3_3 1_555 1_555
N1_3 Cd5 1_555 1_555
N9 C8_3 1_555 1_555
N3_3 Cd5 1_555 1_555
C1_3 N1_3 1_555 1_555
H1_3 C1_3 1_555 1_555
C2_3 C1_3 1_555 1_555
H2_3 C2_3 1_555 1_555
C3_3 C2_3 1_555 1_555
C4_3 C3_3 1_555 1_555
H3_3 C4_3 1_555 1_555
C5_3 N1_3 1_555 1_555
H4_3 C5_3 1_555 1_555
C6_3 C3_3 1_555 1_555
C7_3 C6_3 1_555 1_555
H5_3 C7_3 1_555 1_555
C8_3 C7_3 1_555 1_555
H6_3 C8_3 1_555 1_555
C9_3 N9 1_555 1_555
H7_3 C9_3 1_555 1_555
C10_3 C6_3 1_555 1_555
H8_3 C10_3 1_555 1_555
C15_3 O5_3 1_555 1_555
Cd5 O5_3 1_555 1_555
C4_3 C5_3 1_555 1_555
C9_3 C10_3 1_555 1_555
C15_3 C16_3 1_555 1_555
Cd3 O4_3 1_555 1_555
O9_2 C14_3 1_555 1_555
O10_2 C14_3 1_555 1_555
O3_3 C11_3 1_555 1_555
O4_3 C11_3 1_555 1_555
N5_3 Cd3 1_555 1_555
N7_3 Cd3 1_555 1_555
C11_3 C12_3 1_555 1_555
C13_3 N4_3 1_555 1_555
C14_3 C13_3 1_555 1_555
C19_3 N7_3 1_555 1_555
H9_3 C19_3 1_555 1_555
C20_3 C19_3 1_555 1_555
H10_3 C20_3 1_555 1_555
C12_3 C13_3 1_555 1_555
O11 C18_4 1_555 1_555
O8_4 C18_4 1_555 1_555
N6_4 S2_2 1_555 1_555
C17_4 N6_4 1_555 1_555
C18_4 C17_4 1_555 1_555
C22_2 C21_2 1_555 1_555
H11_2 C22_2 1_555 1_555
H12_2 C23_2 1_555 1_555
C24_2 C21_2 1_555 1_555
C28_2 C24_2 1_555 1_555
H16_2 C28_2 1_555 1_555
C22_2 C23_2 1_555 1_555
Cd4 O4_4 1_555 1_555
Cd6 O4_4 1_555 1_555
O9 C14_4 1_555 1_555
O10 C14_4 1_555 1_555
O3_4 C11_4 1_555 1_555
O4_4 C11_4 1_555 1_555
O5_4 Cd4 1_555 1_555
O6_4 C15_4 1_555 1_555
S1_4 N3_4 1_555 1_555
N1_4 Cd6 1_555 1_555
N9_2 C8_4 1_555 1_555
N3_4 Cd6 1_555 1_555
N4_4 S1_4 1_555 1_555
N5_4 Cd4 1_555 1_555
N7_4 Cd4 1_555 1_555
C1_4 N1_4 1_555 1_555
H1_4 C1_4 1_555 1_555
C2_4 C1_4 1_555 1_555
H2_4 C2_4 1_555 1_555
C3_4 C2_4 1_555 1_555
C4_4 C3_4 1_555 1_555
H3_4 C4_4 1_555 1_555
C5_4 N1_4 1_555 1_555
H4_4 C5_4 1_555 1_555
C6_4 C3_4 1_555 1_555
C7_4 C6_4 1_555 1_555
H5_4 C7_4 1_555 1_555
C8_4 C7_4 1_555 1_555
H6_4 C8_4 1_555 1_555
C9_4 N9_2 1_555 1_555
H7_4 C9_4 1_555 1_555
C10_4 C6_4 1_555 1_555
H8_4 C10_4 1_555 1_555
C11_4 C12_4 1_555 1_555
C12_4 N3_4 1_555 1_555
C13_4 N4_4 1_555 1_555
C14_4 C13_4 1_555 1_555
C15_4 O5_4 1_555 1_555
C16_4 N5_4 1_555 1_555
C19_4 N7_4 1_555 1_555
H9_4 C19_4 1_555 1_555
C20_4 C19_4 1_555 1_555
H10_4 C20_4 1_555 1_555
Cd6 O5_4 1_555 1_555
C4_4 C5_4 1_555 1_555
C9_4 C10_4 1_555 1_555
C12_4 C13_4 1_555 1_555
C15_4 C16_4 1_555 1_555
N10_2 C26_4 1_555 1_555
C26_4 C25_4 1_555 1_555
H14_4 C26_4 1_555 1_555
C27_4 N10_2 1_555 1_555
H15_4 C27_4 1_555 1_555
C22_3 C21_3 1_555 1_555
H11_3 C22_3 1_555 1_555
H12_3 C23_3 1_555 1_555
C24_3 C21_3 1_555 1_555
C28_3 C24_3 1_555 1_555
H16_3 C28_3 1_555 1_555
C22_3 C23_3 1_555 1_555
C22_4 C21_4 1_555 1_555
H11_4 C22_4 1_555 1_555
H12_4 C23_4 1_555 1_555
C24_4 C21_4 1_555 1_555
C28_4 C24_4 1_555 1_555
H16_4 C28_4 1_555 1_555
C22_4 C23_4 1_555 1_555

#END
