
###############################################################################
#
# This file contains modified crystal structure data generated from the
# MOF subset of the Cambridge Structural Database (CSD) v543 
# hosted by the Cambridge Crystallographic Data Centre (CCDC).
#
# This work is licensed under the Creative Commons
# Attribution-NonCommercial-ShareAlike 4.0 International License.
# To view a copy of this license, visit
# http://creativecommons.org/licenses/by-nc-sa/4.0/
# or send a letter to
# Creative Commons, PO Box 1866, Mountain View, CA 94042, USA.
#
# CIF created using the CSD Python API on 29 September 2022
# The structure has been converted into the P1 space group
# The structure has a 3D framework
# The original CSD entry GIWXEQ is in the triclinic crystal system
# The framework has been calculated to contain at least 10.0% void space
# The void calculation uses a probe of radius 1.32A, grid spacing 0.4
#
###############################################################################

data_GIWXEQ
_chemical_formula_moiety         '(C28 H40 Cu10 N8 O8 S8)n'
_symmetry_cell_setting           triclinic
_symmetry_space_group_name_H-M   'P 1'
_symmetry_Int_Tables_number      1
_space_group_name_Hall           'P 1'
loop_
_symmetry_equiv_pos_site_id
_symmetry_equiv_pos_as_xyz
1 x,y,z
_cell_length_a                   7.7395(11)
_cell_length_b                   11.7295(17)
_cell_length_c                   13.2184(18)
_cell_angle_alpha                90.320(3)
_cell_angle_beta                 91.501(3)
_cell_angle_gamma                99.913(3)
_cell_volume                     1181.59
loop_
_atom_site_label
_atom_site_type_symbol
_atom_site_fract_x
_atom_site_fract_y
_atom_site_fract_z
Cu4 Cu 0.0000 0.0000 0.5000
H6 H 0.0410 0.0253 0.6850
S12 S 0.09360(12) 0.25593(7) 0.54299(7)
N7 N 0.2548(4) 0.0044(3) 0.4769(3)
H25 H 0.3182 0.0648 0.5110
C26 C 0.2893(5) 0.0153(4) 0.3693(3)
H34 H 0.4106 0.0506 0.3599
C27 C 0.1694(6) 0.0888(4) 0.3219(3)
H36 H 0.1788 0.0878 0.2489
H37 H 0.2020 0.1682 0.3457
Cu4_2 Cu 0.0000 1.0000 0.5000
O1 O 0.0414(5) 0.8400(3) 0.2088(2)
O2 O 0.0401(5) 0.5752(3) 0.1300(2)
N4 N 0.0102(4) 0.9572(3) 0.6503(2)
C3 C 0.0082(6) 0.7439(3) 0.2443(3)
C4 C 0.0060(5) 0.6206(3) 0.2088(3)
C14 C 0.1328(6) 0.8809(4) 0.6872(4)
H18 H 0.1241 0.8723 0.7591
H19 H 0.2508 0.9147 0.6712
H20 H 0.1028 0.8063 0.6549
Cu11 Cu 0.14498(6) 0.43859(4) 0.46882(4)
H24 H 0.2872 0.9391 0.5004
H35 H 0.2695 0.9393 0.3374
S9 S 0.11214(11) 0.54622(7) 0.63214(7)
Cu4_3 Cu 1.0000 0.0000 0.5000
H4 H 0.7128 0.0609 0.4996
H15 H 0.7305 0.0607 0.6626
N8 N 0.9898(4) 0.0428(3) 0.3497(2)
C28 C 0.8672(6) 0.1191(4) 0.3128(4)
H38 H 0.8759 0.1277 0.2409
H39 H 0.7492 0.0853 0.3288
H40 H 0.8972 0.1937 0.3451
Cu1 Cu 0.61319(6) 0.42060(4) 0.42981(4)
Cu3 Cu 0.5000 0.5000 0.0000
Cu4_4 Cu 1.0000 1.0000 0.5000
S1 S 0.88786(11) 0.45378(7) 0.36786(7)
S2 S 0.90640(12) 0.74407(7) 0.45701(7)
S3 S 0.37060(11) 0.46970(7) 0.35694(7)
S4 S 0.42438(13) 0.75413(7) 0.49379(7)
O3 O 0.6042(5) 0.8797(2) 0.2693(3)
O4 O 0.5672(4) 0.6311(3) 0.1509(2)
N1 N 0.7087(5) 0.4260(3) 0.0326(3)
H2 H 0.7947 0.4787 0.0610
N2 N 0.3696(5) 0.3724(4) 0.0888(3)
H3 H 0.3591 0.4087 0.1488
N3 N 0.7452(4) 0.9956(3) 0.5231(3)
H5 H 0.6818 0.9352 0.4890
C1 C 0.9437(4) 0.5824(3) 0.3073(3)
C2 C 0.9503(4) 0.6955(3) 0.3433(3)
C5 C 0.4448(4) 0.6096(3) 0.3232(3)
C6 C 0.4632(4) 0.7162(3) 0.3749(3)
C7 C 0.5423(5) 0.7789(3) 0.2874(3)
C8 C 0.5246(5) 0.6629(3) 0.2327(3)
C9 C 0.6624(9) 0.3325(7) 0.1002(8)
H7 H 0.7143 0.2677 0.0769
H8 H 0.7147 0.3557 0.1663
C10 C 0.4872(8) 0.2948(6) 0.1115(6)
H9 H 0.4699 0.2706 0.1811
H10 H 0.4531 0.2265 0.0691
C11 C 0.1961(8) 0.3180(6) 0.0626(6)
H12 H 0.1215 0.3753 0.0578
H13 H 0.1538 0.2631 0.1137
C12 C 0.7107(5) 0.9847(4) 0.6307(3)
H14 H 0.5894 0.9494 0.6401
C13 C 0.8306(6) 0.9112(4) 0.6781(3)
H16 H 0.8212 0.9122 0.7511
H17 H 0.7980 0.8318 0.6543
Cu6 Cu 0.38681(6) 0.57940(4) 0.57019(4)
Cu10 Cu 0.85502(6) 0.56141(4) 0.53118(4)
S16 S 0.57562(13) 0.24587(7) 0.50621(7)
H21 H 0.2509 0.6003 0.0248
H26 H 0.9590 0.9747 0.3150
H31 H 0.8047 0.7213 0.0013
Cu3_2 Cu 0.5000 0.5000 1.0000
H1 H 0.7491 0.3997 0.9752
H11 H 0.1953 0.2787 0.9987
S14 S 0.62940(11) 0.53030(7) 0.64306(7)
O7 O 0.3958(5) 0.1203(2) 0.7307(3)
O8 O 0.4328(4) 0.3689(3) 0.8491(2)
N5 N 0.2913(5) 0.5740(3) 0.9674(3)
H22 H 0.2053 0.5213 0.9390
N6 N 0.6304(5) 0.6276(4) 0.9112(3)
H23 H 0.6409 0.5913 0.8512
C19 C 0.5552(4) 0.3904(3) 0.6768(3)
C20 C 0.5368(4) 0.2838(3) 0.6251(3)
C21 C 0.4577(5) 0.2211(3) 0.7126(3)
C22 C 0.4754(5) 0.3371(3) 0.7673(3)
C23 C 0.3376(9) 0.6675(7) 0.8998(8)
H27 H 0.2857 0.7323 0.9231
H28 H 0.2853 0.6443 0.8337
C24 C 0.5128(8) 0.7052(6) 0.8885(6)
H29 H 0.5301 0.7294 0.8189
H30 H 0.5469 0.7735 0.9309
C25 C 0.8039(8) 0.6820(6) 0.9374(6)
H32 H 0.8785 0.6247 0.9422
H33 H 0.8462 0.7369 0.8863
C15 C 0.0563(4) 0.4176(3) 0.6927(3)
C16 C 0.0497(4) 0.3045(3) 0.6567(3)
O5 O 0.9586(5) 0.1600(3) 0.7912(2)
O6 O 0.9599(5) 0.4248(3) 0.8700(2)
C17 C 0.9918(6) 0.2561(3) 0.7557(3)
C18 C 0.9940(5) 0.3794(3) 0.7912(3)
loop_
_geom_bond_atom_site_label_1
_geom_bond_atom_site_label_2
_geom_bond_site_symmetry_1
_geom_bond_site_symmetry_2
S12 Cu4 1_555 1_555
N7 Cu4 1_555 1_555
H25 N7 1_555 1_555
C26 N7 1_555 1_555
H34 C26 1_555 1_555
H36 C27 1_555 1_555
H37 C27 1_555 1_555
C26 C27 1_555 1_555
O1 C3 1_555 1_555
O2 C4 1_555 1_555
N4 Cu4_2 1_555 1_555
C3 C4 1_555 1_555
C14 N4 1_555 1_555
H18 C14 1_555 1_555
H19 C14 1_555 1_555
H20 C14 1_555 1_555
N8 Cu4_3 1_555 1_555
C28 N8 1_555 1_555
H38 C28 1_555 1_555
H39 C28 1_555 1_555
H40 C28 1_555 1_555
Cu1 S1 1_555 1_555
Cu11 S3 1_555 1_555
Cu3 O4 1_555 1_555
Cu4_4 S2 1_555 1_555
S1 C1 1_555 1_555
S2 C2 1_555 1_555
S3 Cu1 1_555 1_555
S4 C6 1_555 1_555
O3 C7 1_555 1_555
O4 C8 1_555 1_555
N1 Cu3 1_555 1_555
H2 N1 1_555 1_555
N2 Cu3 1_555 1_555
H3 N2 1_555 1_555
N3 Cu4_4 1_555 1_555
H5 N3 1_555 1_555
C1 C2 1_555 1_555
C5 S3 1_555 1_555
C6 C5 1_555 1_555
C7 C6 1_555 1_555
C8 C5 1_555 1_555
C9 N1 1_555 1_555
H7 C9 1_555 1_555
H8 C9 1_555 1_555
C10 N2 1_555 1_555
H9 C10 1_555 1_555
H10 C10 1_555 1_555
C11 N2 1_555 1_555
H12 C11 1_555 1_555
H13 C11 1_555 1_555
C12 N3 1_555 1_555
H14 C12 1_555 1_555
H16 C13 1_555 1_555
H17 C13 1_555 1_555
Cu6 Cu11 1_555 1_555
Cu10 Cu1 1_555 1_555
S9 Cu11 1_555 1_555
S12 Cu11 1_555 1_555
S16 Cu1 1_555 1_555
S1 Cu10 1_555 1_555
S2 Cu10 1_555 1_555
S4 Cu6 1_555 1_555
C7 C8 1_555 1_555
C9 C10 1_555 1_555
C12 C13 1_555 1_555
Cu6 S9 1_555 1_555
S14 Cu6 1_555 1_555
O7 C21 1_555 1_555
O8 Cu3_2 1_555 1_555
N5 Cu3_2 1_555 1_555
H22 N5 1_555 1_555
N6 Cu3_2 1_555 1_555
H23 N6 1_555 1_555
C19 S14 1_555 1_555
C20 S16 1_555 1_555
C21 C20 1_555 1_555
C22 O8 1_555 1_555
C23 N5 1_555 1_555
H27 C23 1_555 1_555
H28 C23 1_555 1_555
C24 N6 1_555 1_555
H29 C24 1_555 1_555
H30 C24 1_555 1_555
C25 N6 1_555 1_555
H32 C25 1_555 1_555
H33 C25 1_555 1_555
Cu10 S14 1_555 1_555
C19 C20 1_555 1_555
C19 C22 1_555 1_555
C21 C22 1_555 1_555
C23 C24 1_555 1_555
C15 S9 1_555 1_555
C16 S12 1_555 1_555
C15 C16 1_555 1_555
O5 C17 1_555 1_555
O6 C18 1_555 1_555
C17 C18 1_555 1_555

#END
