
###############################################################################
#
# This file contains modified crystal structure data generated from the
# MOF subset of the Cambridge Structural Database (CSD) v543 
# hosted by the Cambridge Crystallographic Data Centre (CCDC).
#
# This work is licensed under the Creative Commons
# Attribution-NonCommercial-ShareAlike 4.0 International License.
# To view a copy of this license, visit
# http://creativecommons.org/licenses/by-nc-sa/4.0/
# or send a letter to
# Creative Commons, PO Box 1866, Mountain View, CA 94042, USA.
#
# CIF created using the CSD Python API on 29 September 2022
# The structure has been converted into the P1 space group
# The structure has a 3D framework
# The original CSD entry GIYHON is in the monoclinic crystal system
# The framework has been calculated to contain at least 10.0% void space
# The void calculation uses a probe of radius 1.32A, grid spacing 0.4
#
###############################################################################

data_GIYHON
_chemical_formula_moiety         '(C80 H60 N12 O24 Zn3)n'
_symmetry_cell_setting           triclinic
_symmetry_space_group_name_H-M   'P 1'
_symmetry_Int_Tables_number      1
_space_group_name_Hall           'P 1'
loop_
_symmetry_equiv_pos_site_id
_symmetry_equiv_pos_as_xyz
1 x,y,z
_cell_length_a                   15.0626(5)
_cell_length_b                   9.0935(3)
_cell_length_c                   15.9264(6)
_cell_angle_alpha                90
_cell_angle_beta                 92.588(2)
_cell_angle_gamma                90
_cell_volume                     2179.24
loop_
_atom_site_label
_atom_site_type_symbol
_atom_site_fract_x
_atom_site_fract_y
_atom_site_fract_z
C9 C 0.3025(3) 0.2817(5) 0.3806(3)
H4 H 0.2467 0.2542 0.3978
C10 C 0.3502(3) 0.3829(5) 0.4278(3)
H5 H 0.3265 0.4238 0.4754
C11 C 0.4342(3) 0.4237(5) 0.4038(2)
C12 C 0.4651(3) 0.3603(5) 0.3321(2)
H6 H 0.5207 0.3856 0.3135
C13 C 0.4132(3) 0.2598(5) 0.2883(2)
H7 H 0.4352 0.2167 0.2405
C14 C 0.4885(4) 0.5308(5) 0.4566(3)
H8 H 0.4553 0.6215 0.4620
H9 H 0.5428 0.5534 0.4288
N2 N 0.33218(18) 0.2213(3) 0.31152(17)
Zn1 Zn 0.2500 0.07107(7) 0.2500
C21 C 0.6975(3) 0.7183(5) 0.6194(3)
H16 H 0.7533 0.7458 0.6022
C22 C 0.6498(3) 0.6171(5) 0.5722(3)
H17 H 0.6735 0.5762 0.5246
C23 C 0.5658(3) 0.5763(5) 0.5962(2)
C24 C 0.5349(3) 0.6397(5) 0.6679(2)
H18 H 0.4793 0.6144 0.6865
C25 C 0.5868(3) 0.7402(5) 0.7117(2)
H19 H 0.5648 0.7833 0.7595
C26 C 0.5115(4) 0.4692(5) 0.5434(3)
H20 H 0.5447 0.3785 0.5380
H21 H 0.4572 0.4466 0.5712
N4 N 0.66782(18) 0.7787(3) 0.68848(17)
N7 N 0.16782(18) 0.2213(3) 0.18848(17)
Zn3 Zn 0.7500 0.92893(7) 0.7500
C9_2 C 0.1975(3) 0.2817(5) 0.1194(3)
H4_2 H 0.2533 0.2542 0.1022
C10_2 C 0.1498(3) 0.3829(5) 0.0722(3)
H5_2 H 0.1735 0.4238 0.0246
C11_2 C 0.0658(3) 0.4237(5) 0.0962(2)
C12_2 C 0.0349(3) 0.3603(5) 0.1679(2)
C13_2 C 0.0868(3) 0.2598(5) 0.2117(2)
H7_2 H 0.0648 0.2167 0.2595
C14_2 C 0.0115(4) 0.5308(5) 0.0434(3)
H8_2 H 0.0447 0.6215 0.0380
C21_2 C 0.8025(3) 0.7183(5) 0.8806(3)
H16_2 H 0.7467 0.7458 0.8978
C22_2 C 0.8502(3) 0.6171(5) 0.9278(3)
H17_2 H 0.8265 0.5762 0.9754
C23_2 C 0.9342(3) 0.5763(5) 0.9038(2)
C24_2 C 0.9651(3) 0.6397(5) 0.8321(2)
C25_2 C 0.9132(3) 0.7402(5) 0.7883(2)
H19_2 H 0.9352 0.7833 0.7405
C26_2 C 0.9885(4) 0.4692(5) 0.9566(3)
H20_2 H 0.9553 0.3785 0.9620
N4_2 N 0.83218(18) 0.7787(3) 0.81152(17)
H23 H 0.0580 0.0425 0.0682
C1 C 0.1654(2) 0.8127(4) 0.4401(2)
C2 C 0.2100(2) 0.7249(4) 0.4983(2)
H1 H 0.2717 0.7192 0.4982
C3 C 0.1653(3) 0.6445(4) 0.5572(2)
C4 C 0.0738(3) 0.6540(5) 0.5586(3)
H2 H 0.0426 0.6008 0.5975
C5 C 0.0298(2) 0.7445(5) 0.5008(3)
C6 C 0.0734(3) 0.8242(5) 0.4411(3)
H3 H 0.0421 0.8838 0.4027
C7 C 0.2162(3) 0.8983(4) 0.3776(2)
C8 C 0.2171(3) 0.5501(5) 0.6205(2)
C16 C 0.0584(3) 0.0533(4) 0.9000(2)
C17 C 0.0235(3) 0.1362(5) 0.8344(2)
C18 C 0.0789(2) 0.2216(4) 0.7882(2)
H13 H 0.0542 0.2769 0.7438
C19 C 0.1999(3) 0.1472(6) 0.8661(3)
H14 H 0.2611 0.1493 0.8770
C20 C 0.1492(3) 0.0595(6) 0.9154(3)
H15 H 0.1759 0.0046 0.9589
N3 N 0.16607(19) 0.2283(4) 0.80433(18)
O1 O 0.1700(2) 0.9802(4) 0.32727(18)
O2 O 0.2974(2) 0.8881(4) 0.3774(2)
O3 O 0.2986(2) 0.5503(4) 0.6217(2)
O4 O 0.1705(2) 0.4735(4) 0.66879(18)
Zn2 Zn 0.2500 0.37497(7) 0.7500
C33 C 0.3346(2) 0.8127(4) 0.0599(2)
C34 C 0.2900(2) 0.7249(4) 0.0017(2)
H28 H 0.2283 0.7192 0.0018
C38 C 0.4266(3) 0.8242(5) 0.0589(3)
H30 H 0.4579 0.8838 0.0973
C39 C 0.2838(3) 0.8983(4) 0.1224(2)
O7 O 0.3300(2) 0.9802(4) 0.17273(18)
O8 O 0.2026(2) 0.8881(4) 0.1226(2)
O12 O 0.6038(3) 0.8475(6) 0.0429(3)
N8 N 0.33393(19) 0.2283(4) 0.69567(18)
O13 O 0.3295(2) 0.4735(4) 0.83121(18)
C35 C 0.3347(3) 0.6445(4) 0.9428(2)
C36 C 0.4262(3) 0.6540(5) 0.9414(3)
H29 H 0.4574 0.6008 0.9025
C37 C 0.4702(2) 0.7445(5) 0.9992(3)
C40 C 0.2829(3) 0.5501(5) 0.8795(2)
N6 N 0.5666(3) 0.7570(6) 0.9973(3)
O9 O 0.2014(2) 0.5503(4) 0.8783(2)
O11 O 0.6055(3) 0.6777(7) 0.9507(4)
C16_2 C 0.4416(3) 0.0533(4) 0.6000(2)
C17_2 C 0.4765(3) 0.1362(5) 0.6656(2)
H12 H 0.5373 0.1346 0.6788
C18_2 C 0.4211(2) 0.2216(4) 0.7118(2)
H13_2 H 0.4458 0.2769 0.7562
C19_2 C 0.3001(3) 0.1472(6) 0.6339(3)
H14_2 H 0.2389 0.1493 0.6230
C20_2 C 0.3508(3) 0.0595(6) 0.5846(3)
H15_2 H 0.3241 0.0046 0.5411
C27 C 0.5018(3) 0.0350(6) 0.4568(2)
H22 H 0.5258 0.1337 0.4625
H23_2 H 0.4420 0.0425 0.4318
H24 H 0.0373 0.8654 0.1788
N1 N 0.0666(3) 0.2430(6) 0.4973(3)
O5 O 0.1055(3) 0.3223(7) 0.4507(4)
O6 O 0.1038(3) 0.1525(6) 0.5429(3)
C15 C 0.0018(3) 0.9650(6) 0.9568(2)
H10 H 0.0258 0.8663 0.9625
C27_2 C 0.9982(3) 0.0350(6) 0.0432(2)
H22_2 H 0.9742 0.1337 0.0375
H12_2 H 0.9627 0.1346 0.8212
N1_2 N 0.9334(3) 0.7570(6) 0.5027(3)
O5_2 O 0.8945(3) 0.6777(7) 0.5493(4)
O6_2 O 0.8962(3) 0.8475(6) 0.4571(3)
C28 C 0.9416(3) 0.9467(4) 0.1000(2)
C29 C 0.9765(3) 0.8638(5) 0.1656(2)
C30 C 0.9211(2) 0.7784(4) 0.2118(2)
H25 H 0.9458 0.7231 0.2562
C31 C 0.8001(3) 0.8528(6) 0.1339(3)
H26 H 0.7389 0.8507 0.1230
C32 C 0.8508(3) 0.9405(6) 0.0846(3)
H27 H 0.8241 0.9954 0.0411
N5 N 0.83393(19) 0.7717(4) 0.19567(18)
Zn5 Zn 0.7500 0.62503(7) 0.2500
C15_2 C 0.4982(3) 0.9650(6) 0.5432(2)
H10_2 H 0.4742 0.8663 0.5375
H11 H 0.5580 0.9575 0.5682
C28_2 C 0.5584(3) 0.9467(4) 0.4000(2)
C29_2 C 0.5235(3) 0.8638(5) 0.3344(2)
H24_2 H 0.4627 0.8654 0.3212
C30_2 C 0.5789(2) 0.7784(4) 0.2882(2)
H25_2 H 0.5542 0.7231 0.2438
C31_2 C 0.6999(3) 0.8528(6) 0.3661(3)
H26_2 H 0.7611 0.8507 0.3770
C32_2 C 0.6492(3) 0.9405(6) 0.4154(3)
H27_2 H 0.6759 0.9954 0.4589
N5_2 N 0.66607(19) 0.7717(4) 0.30433(18)
C35_2 C 0.6653(3) 0.3555(4) 0.0572(2)
C36_2 C 0.5738(3) 0.3460(5) 0.0586(3)
H29_2 H 0.5426 0.3992 0.0975
C37_2 C 0.5298(2) 0.2555(5) 0.0008(3)
C40_2 C 0.7171(3) 0.4499(5) 0.1205(2)
N6_2 N 0.4334(3) 0.2430(6) 0.0027(3)
O9_2 O 0.7986(2) 0.4497(4) 0.1217(2)
O10 O 0.6705(2) 0.5265(4) 0.16879(18)
O11_2 O 0.3945(3) 0.3223(7) 0.0493(4)
C1_2 C 0.8346(2) 0.1873(4) 0.5599(2)
C2_2 C 0.7900(2) 0.2751(4) 0.5017(2)
H1_2 H 0.7283 0.2808 0.5018
C3_2 C 0.8347(3) 0.3555(4) 0.4428(2)
C4_2 C 0.9262(3) 0.3460(5) 0.4414(3)
H2_2 H 0.9574 0.3992 0.4025
C5_2 C 0.9702(2) 0.2555(5) 0.4992(3)
C6_2 C 0.9266(3) 0.1758(5) 0.5589(3)
H3_2 H 0.9579 0.1162 0.5973
C7_2 C 0.7838(3) 0.1017(4) 0.6224(2)
C8_2 C 0.7829(3) 0.4499(5) 0.3795(2)
O1_2 O 0.8300(2) 0.0198(4) 0.67273(18)
O2_2 O 0.7026(2) 0.1119(4) 0.6226(2)
O3_2 O 0.7014(2) 0.4497(4) 0.3783(2)
O4_2 O 0.8295(2) 0.5265(4) 0.33121(18)
C33_2 C 0.6654(2) 0.1873(4) 0.9401(2)
C34_2 C 0.7100(2) 0.2751(4) 0.9983(2)
H28_2 H 0.7717 0.2808 0.9982
C38_2 C 0.5734(3) 0.1758(5) 0.9411(3)
H30_2 H 0.5421 0.1162 0.9027
C39_2 C 0.7162(3) 0.1017(4) 0.8776(2)
O7_2 O 0.6700(2) 0.0198(4) 0.82727(18)
O8_2 O 0.7974(2) 0.1119(4) 0.8774(2)
O12_2 O 0.3962(3) 0.1525(6) 0.9571(3)
H11_2 H 0.9420 0.9575 0.9318
H18_2 H 0.0207 0.6144 0.8135
H21_2 H 0.0428 0.4466 0.9288
H6_2 H 0.9793 0.3856 0.1865
H9_2 H 0.9572 0.5534 0.0712
loop_
_geom_bond_atom_site_label_1
_geom_bond_atom_site_label_2
_geom_bond_site_symmetry_1
_geom_bond_site_symmetry_2
C9 H4 1_555 1_555
C10 C9 1_555 1_555
H5 C10 1_555 1_555
C11 C10 1_555 1_555
C12 C11 1_555 1_555
H6 C12 1_555 1_555
C13 C12 1_555 1_555
H7 C13 1_555 1_555
C14 C11 1_555 1_555
H8 C14 1_555 1_555
H9 C14 1_555 1_555
N2 C9 1_555 1_555
Zn1 N2 1_555 1_555
C21 H16 1_555 1_555
C22 C21 1_555 1_555
H17 C22 1_555 1_555
C23 C22 1_555 1_555
C24 C23 1_555 1_555
H18 C24 1_555 1_555
C25 C24 1_555 1_555
H19 C25 1_555 1_555
C26 C14 1_555 1_555
H20 C26 1_555 1_555
H21 C26 1_555 1_555
N4 C21 1_555 1_555
N7 Zn1 1_555 1_555
Zn3 N4 1_555 1_555
C13 N2 1_555 1_555
C23 C26 1_555 1_555
C25 N4 1_555 1_555
C9_2 H4_2 1_555 1_555
C10_2 C9_2 1_555 1_555
H5_2 C10_2 1_555 1_555
C11_2 C10_2 1_555 1_555
C12_2 C11_2 1_555 1_555
C13_2 C12_2 1_555 1_555
H7_2 C13_2 1_555 1_555
C14_2 C11_2 1_555 1_555
H8_2 C14_2 1_555 1_555
N7 C9_2 1_555 1_555
C13_2 N7 1_555 1_555
C21_2 H16_2 1_555 1_555
C22_2 C21_2 1_555 1_555
H17_2 C22_2 1_555 1_555
C23_2 C22_2 1_555 1_555
C24_2 C23_2 1_555 1_555
C25_2 C24_2 1_555 1_555
H19_2 C25_2 1_555 1_555
H20_2 C26_2 1_555 1_555
N4_2 C21_2 1_555 1_555
Zn3 N4_2 1_555 1_555
C23_2 C26_2 1_555 1_555
C25_2 N4_2 1_555 1_555
C1 C2 1_555 1_555
C2 H1 1_555 1_555
C3 C2 1_555 1_555
C4 C3 1_555 1_555
H2 C4 1_555 1_555
C5 C4 1_555 1_555
C6 C1 1_555 1_555
H3 C6 1_555 1_555
C7 C1 1_555 1_555
C8 C3 1_555 1_555
C17 C16 1_555 1_555
C18 C17 1_555 1_555
H13 C18 1_555 1_555
C19 H14 1_555 1_555
C20 C16 1_555 1_555
H15 C20 1_555 1_555
N3 C18 1_555 1_555
O1 C7 1_555 1_555
O2 C7 1_555 1_555
O3 C8 1_555 1_555
O4 C8 1_555 1_555
Zn2 N3 1_555 1_555
C33 C34 1_555 1_555
C34 H28 1_555 1_555
C38 C33 1_555 1_555
H30 C38 1_555 1_555
C39 C33 1_555 1_555
O8 C39 1_555 1_555
N8 Zn2 1_555 1_555
O13 Zn2 1_555 1_555
C5 C6 1_555 1_555
C19 C20 1_555 1_555
C19 N3 1_555 1_555
O4 Zn2 1_555 1_555
C39 O7 1_555 1_555
C36 C35 1_555 1_555
H29 C36 1_555 1_555
C37 C36 1_555 1_555
C40 C35 1_555 1_555
N6 C37 1_555 1_555
O9 C40 1_555 1_555
O13 C40 1_555 1_555
O11 N6 1_555 1_555
C17_2 C16_2 1_555 1_555
H12 C17_2 1_555 1_555
C18_2 C17_2 1_555 1_555
H13_2 C18_2 1_555 1_555
C19_2 H14_2 1_555 1_555
C20_2 C16_2 1_555 1_555
H15_2 C20_2 1_555 1_555
N8 C18_2 1_555 1_555
H22 C27 1_555 1_555
H23_2 C27 1_555 1_555
C19_2 C20_2 1_555 1_555
C19_2 N8 1_555 1_555
O5 N1 1_555 1_555
O6 N1 1_555 1_555
C15 H10 1_555 1_555
H22_2 C27_2 1_555 1_555
O5_2 N1_2 1_555 1_555
O6_2 N1_2 1_555 1_555
C29 C28 1_555 1_555
C30 C29 1_555 1_555
H25 C30 1_555 1_555
C31 H26 1_555 1_555
C32 C28 1_555 1_555
H27 C32 1_555 1_555
N5 C30 1_555 1_555
Zn5 N5 1_555 1_555
C31 C32 1_555 1_555
C31 N5 1_555 1_555
C15_2 H10_2 1_555 1_555
H11 C15_2 1_555 1_555
C29_2 C28_2 1_555 1_555
H24_2 C29_2 1_555 1_555
C30_2 C29_2 1_555 1_555
H25_2 C30_2 1_555 1_555
C31_2 H26_2 1_555 1_555
C32_2 C28_2 1_555 1_555
H27_2 C32_2 1_555 1_555
N5_2 C30_2 1_555 1_555
Zn5 N5_2 1_555 1_555
C31_2 C32_2 1_555 1_555
C31_2 N5_2 1_555 1_555
C36_2 C35_2 1_555 1_555
H29_2 C36_2 1_555 1_555
C37_2 C36_2 1_555 1_555
C40_2 C35_2 1_555 1_555
N6_2 C37_2 1_555 1_555
O9_2 C40_2 1_555 1_555
O10 C40_2 1_555 1_555
O11_2 N6_2 1_555 1_555
Zn5 O10 1_555 1_555
C1_2 C2_2 1_555 1_555
C2_2 H1_2 1_555 1_555
C3_2 C2_2 1_555 1_555
C4_2 C3_2 1_555 1_555
H2_2 C4_2 1_555 1_555
C5_2 C4_2 1_555 1_555
C6_2 C1_2 1_555 1_555
H3_2 C6_2 1_555 1_555
C7_2 C1_2 1_555 1_555
C8_2 C3_2 1_555 1_555
O1_2 C7_2 1_555 1_555
O2_2 C7_2 1_555 1_555
O3_2 C8_2 1_555 1_555
O4_2 C8_2 1_555 1_555
C33_2 C34_2 1_555 1_555
C34_2 H28_2 1_555 1_555
C38_2 C33_2 1_555 1_555
H30_2 C38_2 1_555 1_555
C39_2 C33_2 1_555 1_555
O8_2 C39_2 1_555 1_555
C5_2 C6_2 1_555 1_555
O4_2 Zn5 1_555 1_555
C39_2 O7_2 1_555 1_555

#END
