
###############################################################################
#
# This file contains modified crystal structure data generated from the
# MOF subset of the Cambridge Structural Database (CSD) v543 
# hosted by the Cambridge Crystallographic Data Centre (CCDC).
#
# This work is licensed under the Creative Commons
# Attribution-NonCommercial-ShareAlike 4.0 International License.
# To view a copy of this license, visit
# http://creativecommons.org/licenses/by-nc-sa/4.0/
# or send a letter to
# Creative Commons, PO Box 1866, Mountain View, CA 94042, USA.
#
# CIF created using the CSD Python API on 29 September 2022
# The structure has been converted into the P1 space group
# The structure has a 3D framework
# The original CSD entry GOBJAL is in the orthorhombic crystal system
# The framework has been calculated to contain at least 10.0% void space
# The void calculation uses a probe of radius 1.32A, grid spacing 0.4
#
###############################################################################

data_GOBJAL
_chemical_formula_moiety         '(C96 H80 Gd8 N8 O68)n'
_symmetry_cell_setting           triclinic
_symmetry_space_group_name_H-M   'P 1'
_symmetry_Int_Tables_number      1
_space_group_name_Hall           'P 1'
loop_
_symmetry_equiv_pos_site_id
_symmetry_equiv_pos_as_xyz
1 x,y,z
_cell_length_a                   8.5757(7)
_cell_length_b                   28.294(3)
_cell_length_c                   15.087(3)
_cell_angle_alpha                90
_cell_angle_beta                 90
_cell_angle_gamma                90
_cell_volume                     3660.72
loop_
_atom_site_label
_atom_site_type_symbol
_atom_site_fract_x
_atom_site_fract_y
_atom_site_fract_z
Gd7 Gd 0.05655(3) 0.588395(10) 0.29915(2)
Gd1 Gd 0.55655(3) 0.588395(10) 0.20085(2)
O1 O 0.6255(5) 0.60862(16) 0.3469(3)
O2 O 0.8372(5) 0.56601(16) 0.3807(3)
O3 O 0.7001(4) 0.53572(14) 0.5335(3)
O4 O 0.5351(5) 0.47496(16) 0.7165(3)
O5 O 0.7778(4) 0.47177(14) 0.6590(3)
O6 O 0.3038(4) 0.62810(14) 0.3024(3)
O7 O 0.4523(4) 0.66502(15) 0.2037(3)
O8 O 0.3650(6) 0.7500 0.2579(4)
O9 O 0.6013(5) 0.61150(17) 0.0486(3)
C1 C 0.7031(7) 0.5818(2) 0.3980(4)
C2 C 0.6268(7) 0.5680(2) 0.4798(4)
C3 C 0.4816(7) 0.5772(2) 0.5122(4)
H1 H 0.4090 0.5981 0.4884
C4 C 0.4628(7) 0.5496(2) 0.5875(4)
H2 H 0.3745 0.5482 0.6231
C5 C 0.5963(7) 0.5251(2) 0.5994(4)
C6 C 0.6408(7) 0.4881(2) 0.6634(4)
C7 C 0.3560(6) 0.6654(2) 0.2666(4)
C8 C 0.3083(6) 0.7113(2) 0.3013(4)
C9 C 0.2214(6) 0.7246(2) 0.3722(4)
H3 H 0.1718 0.7048 0.4126
O10 O 0.3038(4) 0.87190(14) 0.3024(3)
O11 O 0.4523(4) 0.83498(15) 0.2037(3)
C13 C 0.3560(6) 0.8346(2) 0.2666(4)
C14 C 0.3083(6) 0.7887(2) 0.3013(4)
C15 C 0.2214(6) 0.7754(2) 0.3722(4)
H11 H 0.1718 0.7952 0.4126
Gd2 Gd 0.44345(3) 0.411605(10) 0.79915(2)
O12 O 0.3745(5) 0.39138(16) 0.6531(3)
O13 O 0.1628(5) 0.43399(16) 0.6193(3)
O14 O 0.2999(4) 0.46428(14) 0.4665(3)
O15 O 0.4649(5) 0.52504(16) 0.2835(3)
O16 O 0.2222(4) 0.52823(14) 0.3410(3)
O17 O 0.3987(5) 0.38850(17) 0.9514(3)
C16 C 0.2969(7) 0.4182(2) 0.6020(4)
C17 C 0.3732(7) 0.4320(2) 0.5202(4)
C18 C 0.5184(7) 0.4228(2) 0.4878(4)
H12 H 0.5910 0.4019 0.5116
C19 C 0.5372(7) 0.4504(2) 0.4125(4)
H13 H 0.6255 0.4518 0.3769
C20 C 0.4037(7) 0.4749(2) 0.4006(4)
C21 C 0.3592(7) 0.5119(2) 0.3366(4)
Gd4 Gd 0.94345(3) 0.411605(10) 0.70085(2)
Gd5 Gd 0.05655(3) 0.911605(10) 0.29915(2)
Gd8 Gd 0.55655(3) 0.911605(10) 0.20085(2)
O18 O 0.6628(5) 0.43399(16) 0.8807(3)
O19 O 0.3372(5) 0.56601(16) 0.1193(3)
O20 O 0.7222(4) 0.52823(14) 0.1590(3)
O21 O 0.2778(4) 0.47177(14) 0.8410(3)
O22 O 0.1962(4) 0.37190(14) 0.8024(3)
O23 O 0.6962(4) 0.37190(14) 0.6976(3)
O24 O 0.8038(4) 0.62810(14) 0.1976(3)
O25 O 0.5477(4) 0.33498(15) 0.7963(3)
C3_2 C 0.0184(7) 0.4228(2) 0.0122(4)
C4_2 C 0.0372(7) 0.4504(2) 0.0875(4)
H2_2 H 0.1255 0.4518 0.1231
O12_2 O 0.1255(5) 0.60862(16) 0.1531(3)
O17_2 O 0.1013(5) 0.61150(17) 0.4514(3)
N2 N 0.0780(9) 0.6014(3) 0.5976(6)
C16_2 C 0.2031(7) 0.5818(2) 0.1020(4)
C17_2 C 0.1268(7) 0.5680(2) 0.0202(4)
C22 C 0.0671(9) 0.5900(3) 0.5198(6)
H14 H 0.0259 0.5600 0.5105
C23 C 0.1751(14) 0.6490(4) 0.6186(8)
H15 H 0.1058 0.6726 0.6417
H16 H 0.2547 0.6423 0.6615
H17 H 0.2225 0.6604 0.5651
C24 C 0.0304(13) 0.5796(4) 0.6773(7)
H18 H 0.0365 0.5459 0.6711
H19 H 0.0973 0.5896 0.7248
O7_2 O 0.0477(4) 0.33498(15) 0.7037(3)
O8_2 O 0.1350(6) 0.2500 0.7579(4)
H1_2 H 0.0910 0.4019 0.9884
C7_2 C 0.1440(6) 0.3346(2) 0.7666(4)
C8_2 C 0.1917(6) 0.2887(2) 0.8013(4)
C9_2 C 0.2786(6) 0.2754(2) 0.8722(4)
H3_2 H 0.3282 0.2952 0.9126
H10 H 0.0752 0.4115 0.3096
O10_2 O 0.1962(4) 0.12810(14) 0.8024(3)
O11_2 O 0.0477(4) 0.16502(15) 0.7037(3)
C13_2 C 0.1440(6) 0.1654(2) 0.7666(4)
C14_2 C 0.1917(6) 0.2113(2) 0.8013(4)
C15_2 C 0.2786(6) 0.2246(2) 0.8722(4)
H11_2 H 0.3282 0.2048 0.9126
O14_2 O 0.2001(4) 0.53572(14) 0.9665(3)
O15_2 O 0.0351(5) 0.47496(16) 0.7835(3)
C20_2 C 0.0963(7) 0.5251(2) 0.9006(4)
C21_2 C 0.1408(7) 0.4881(2) 0.8366(4)
Gd5_2 Gd 0.44345(3) 0.088395(10) 0.79915(2)
O3_2 O 0.7999(4) 0.46428(14) 0.0335(3)
O4_2 O 0.9649(5) 0.52504(16) 0.2165(3)
C5_2 C 0.9037(7) 0.4749(2) 0.0994(4)
C6_2 C 0.8592(7) 0.5119(2) 0.1634(4)
H12_2 H 0.9090 0.5981 0.0116
H20 H 0.9248 0.5885 0.6904
O25_2 O 0.9523(4) 0.66502(15) 0.2963(3)
O1_2 O 0.8745(5) 0.39138(16) 0.8469(3)
O9_2 O 0.8987(5) 0.38850(17) 0.5486(3)
N1 N 0.9220(9) 0.3986(3) 0.4024(6)
C1_2 C 0.7969(7) 0.4182(2) 0.8980(4)
C2_2 C 0.8732(7) 0.4320(2) 0.9798(4)
C10 C 0.9329(9) 0.4100(3) 0.4802(6)
H4 H 0.9741 0.4400 0.4895
C11 C 0.8249(14) 0.3510(4) 0.3814(8)
H5 H 0.8942 0.3274 0.3583
H6 H 0.7453 0.3577 0.3385
H7 H 0.7775 0.3396 0.4349
C12 C 0.9696(13) 0.4204(4) 0.3227(7)
H8 H 0.9635 0.4541 0.3289
H9 H 0.9027 0.4104 0.2752
C18_2 C 0.9816(7) 0.5772(2) 0.9878(4)
C19_2 C 0.9628(7) 0.5496(2) 0.9125(4)
H13_2 H 0.8745 0.5482 0.8769
Gd8_2 Gd 0.94345(3) 0.088395(10) 0.70085(2)
O4_3 O 0.0351(5) 0.02504(16) 0.7835(3)
O5_2 O 0.2778(4) 0.02823(14) 0.8410(3)
C6_3 C 0.1408(7) 0.0119(2) 0.8366(4)
H12_3 H 0.0910 0.0981 0.9884
H20_2 H 0.0752 0.0885 0.3096
O18_2 O 0.1628(5) 0.06601(16) 0.6193(3)
O1_3 O 0.1255(5) 0.89138(16) 0.1531(3)
O2_2 O 0.3372(5) 0.93399(16) 0.1193(3)
O9_3 O 0.1013(5) 0.88850(17) 0.4514(3)
N1_2 N 0.0780(9) 0.8986(3) 0.5976(6)
C1_3 C 0.2031(7) 0.9182(2) 0.1020(4)
C2_3 C 0.1268(7) 0.9320(2) 0.0202(4)
C10_2 C 0.0671(9) 0.9100(3) 0.5198(6)
H4_2 H 0.0259 0.9400 0.5105
C11_2 C 0.1751(14) 0.8510(4) 0.6186(8)
H5_2 H 0.1058 0.8274 0.6417
H6_2 H 0.2547 0.8577 0.6615
H7_2 H 0.2225 0.8396 0.5651
C12_2 C 0.0304(13) 0.9204(4) 0.6773(7)
H8_2 H 0.0365 0.9541 0.6711
H9_2 H 0.0973 0.9104 0.7248
O20_2 O 0.2222(4) 0.97177(14) 0.3410(3)
O12_3 O 0.8745(5) 0.10862(16) 0.8469(3)
O13_2 O 0.6628(5) 0.06601(16) 0.8807(3)
O17_3 O 0.8987(5) 0.11150(17) 0.5486(3)
N2_2 N 0.9220(9) 0.1014(3) 0.4024(6)
C16_3 C 0.7969(7) 0.0818(2) 0.8980(4)
C17_3 C 0.8732(7) 0.0680(2) 0.9798(4)
C22_2 C 0.9329(9) 0.0900(3) 0.4802(6)
H14_2 H 0.9741 0.0600 0.4895
C23_2 C 0.8249(14) 0.1490(4) 0.3814(8)
H15_2 H 0.8942 0.1726 0.3583
H16_2 H 0.7453 0.1423 0.3385
H17_2 H 0.7775 0.1604 0.4349
C24_2 C 0.9696(13) 0.0796(4) 0.3227(7)
H18_2 H 0.9635 0.0459 0.3289
H19_2 H 0.9027 0.0896 0.2752
O21_2 O 0.7778(4) 0.02823(14) 0.6590(3)
O22_2 O 0.6962(4) 0.12810(14) 0.6976(3)
O6_2 O 0.8038(4) 0.87190(14) 0.1976(3)
O7_3 O 0.9523(4) 0.83498(15) 0.2963(3)
O8_3 O 0.8650(6) 0.7500 0.2421(4)
H1_3 H 0.9090 0.9019 0.0116
C7_3 C 0.8560(6) 0.8346(2) 0.2334(4)
C8_3 C 0.8083(6) 0.7887(2) 0.1987(4)
C9_3 C 0.7214(6) 0.7754(2) 0.1278(4)
H3_3 H 0.6718 0.7952 0.0874
H10_2 H 0.9248 0.9115 0.6904
C13_3 C 0.8560(6) 0.6654(2) 0.2334(4)
C14_3 C 0.8083(6) 0.7113(2) 0.1987(4)
C15_3 C 0.7214(6) 0.7246(2) 0.1278(4)
H11_3 H 0.6718 0.7048 0.0874
O15_3 O 0.9649(5) 0.97496(16) 0.2165(3)
O16_2 O 0.7222(4) 0.97177(14) 0.1590(3)
C21_3 C 0.8592(7) 0.9881(2) 0.1634(4)
O19_2 O 0.8372(5) 0.93399(16) 0.3807(3)
O1_4 O 0.3745(5) 0.10862(16) 0.6531(3)
O3_3 O 0.2999(4) 0.03572(14) 0.4665(3)
O7_4 O 0.5477(4) 0.16502(15) 0.7963(3)
O8_4 O 0.6350(6) 0.2500 0.7421(4)
O9_4 O 0.3987(5) 0.11150(17) 0.9514(3)
C1_4 C 0.2969(7) 0.0818(2) 0.6020(4)
C2_4 C 0.3732(7) 0.0680(2) 0.5202(4)
C3_3 C 0.5184(7) 0.0772(2) 0.4878(4)
H1_4 H 0.5910 0.0981 0.5116
C4_3 C 0.5372(7) 0.0496(2) 0.4125(4)
H2_3 H 0.6255 0.0482 0.3769
C5_3 C 0.4037(7) 0.0251(2) 0.4006(4)
C7_4 C 0.6440(6) 0.1654(2) 0.7334(4)
C8_4 C 0.6917(6) 0.2113(2) 0.6987(4)
C9_4 C 0.7786(6) 0.2246(2) 0.6278(4)
H3_4 H 0.8282 0.2048 0.5874
C13_4 C 0.6440(6) 0.3346(2) 0.7334(4)
C14_4 C 0.6917(6) 0.2887(2) 0.6987(4)
C15_4 C 0.7786(6) 0.2754(2) 0.6278(4)
H11_4 H 0.8282 0.2952 0.5874
O15_4 O 0.5351(5) 0.02504(16) 0.7165(3)
C21_4 C 0.6408(7) 0.0119(2) 0.6634(4)
O4_4 O 0.4649(5) 0.97496(16) 0.2835(3)
C6_4 C 0.3592(7) 0.9881(2) 0.3366(4)
O12_4 O 0.6255(5) 0.89138(16) 0.3469(3)
O14_3 O 0.7001(4) 0.96428(14) 0.5335(3)
O17_4 O 0.6013(5) 0.88850(17) 0.0486(3)
C16_4 C 0.7031(7) 0.9182(2) 0.3980(4)
C17_4 C 0.6268(7) 0.9320(2) 0.4798(4)
C18_3 C 0.4816(7) 0.9228(2) 0.5122(4)
H12_4 H 0.4090 0.9019 0.4884
C19_3 C 0.4628(7) 0.9504(2) 0.5875(4)
H13_3 H 0.3745 0.9518 0.6231
C20_3 C 0.5963(7) 0.9749(2) 0.5994(4)
N2_3 N 0.4220(9) 0.3986(3) 0.0976(6)
C22_3 C 0.4329(9) 0.4100(3) 0.0198(6)
H14_3 H 0.4741 0.4400 0.0105
C23_3 C 0.3249(14) 0.3510(4) 0.1186(8)
H15_3 H 0.3942 0.3274 0.1417
H16_3 H 0.2453 0.3577 0.1615
H17_3 H 0.2775 0.3396 0.0651
C24_3 C 0.4696(13) 0.4204(4) 0.1773(7)
H18_3 H 0.4635 0.4541 0.1711
H19_3 H 0.4027 0.4104 0.2248
H20_3 H 0.5752 0.4115 0.1904
N1_3 N 0.5780(9) 0.6014(3) 0.9024(6)
C10_3 C 0.5671(9) 0.5900(3) 0.9802(6)
H4_3 H 0.5259 0.5600 0.9895
C11_3 C 0.6751(14) 0.6490(4) 0.8814(8)
H5_3 H 0.6058 0.6726 0.8583
H6_3 H 0.7547 0.6423 0.8385
H7_3 H 0.7225 0.6604 0.9349
C12_3 C 0.5304(13) 0.5796(4) 0.8227(7)
H8_3 H 0.5365 0.5459 0.8289
H9_3 H 0.5973 0.5896 0.7752
H10_3 H 0.4248 0.5885 0.8096
C18_4 C 0.0184(7) 0.0772(2) 0.0122(4)
C19_4 C 0.0372(7) 0.0496(2) 0.0875(4)
H13_4 H 0.1255 0.0482 0.1231
O3_4 O 0.2001(4) 0.96428(14) 0.9665(3)
C5_4 C 0.0963(7) 0.9749(2) 0.9006(4)
O14_4 O 0.7999(4) 0.03572(14) 0.0335(3)
C20_4 C 0.9037(7) 0.0251(2) 0.0994(4)
C3_4 C 0.9816(7) 0.9228(2) 0.9878(4)
C4_4 C 0.9628(7) 0.9504(2) 0.9125(4)
H2_4 H 0.8745 0.9518 0.8769
N1_4 N 0.4220(9) 0.1014(3) 0.0976(6)
C10_4 C 0.4329(9) 0.0900(3) 0.0198(6)
H4_4 H 0.4741 0.0600 0.0105
C11_4 C 0.3249(14) 0.1490(4) 0.1186(8)
H5_4 H 0.3942 0.1726 0.1417
H6_4 H 0.2453 0.1423 0.1615
H7_4 H 0.2775 0.1604 0.0651
C12_4 C 0.4696(13) 0.0796(4) 0.1773(7)
H8_4 H 0.4635 0.0459 0.1711
H9_4 H 0.4027 0.0896 0.2248
H10_4 H 0.5752 0.0885 0.1904
N2_4 N 0.5780(9) 0.8986(3) 0.9024(6)
C22_4 C 0.5671(9) 0.9100(3) 0.9802(6)
H14_4 H 0.5259 0.9400 0.9895
C23_4 C 0.6751(14) 0.8510(4) 0.8814(8)
H15_4 H 0.6058 0.8274 0.8583
H16_4 H 0.7547 0.8577 0.8385
H17_4 H 0.7225 0.8396 0.9349
C24_4 C 0.5304(13) 0.9204(4) 0.8227(7)
H18_4 H 0.5365 0.9541 0.8289
H19_4 H 0.5973 0.9104 0.7752
H20_4 H 0.4248 0.9115 0.8096
loop_
_geom_bond_atom_site_label_1
_geom_bond_atom_site_label_2
_geom_bond_site_symmetry_1
_geom_bond_site_symmetry_2
Gd1 O1 1_555 1_555
O1 C1 1_555 1_555
O2 C1 1_555 1_555
O3 C2 1_555 1_555
O4 C6 1_555 1_555
O5 C6 1_555 1_555
O6 Gd1 1_555 1_555
O7 Gd1 1_555 1_555
O8 C8 1_555 1_555
O9 Gd1 1_555 1_555
C1 C2 1_555 1_555
C2 C3 1_555 1_555
C3 H1 1_555 1_555
C4 C3 1_555 1_555
H2 C4 1_555 1_555
C5 O3 1_555 1_555
C6 C5 1_555 1_555
C7 O6 1_555 1_555
C8 C7 1_555 1_555
C9 C8 1_555 1_555
H3 C9 1_555 1_555
O10 C13 1_555 1_555
O11 C13 1_555 1_555
C13 C14 1_555 1_555
C14 O8 1_555 1_555
C15 C9 1_555 1_555
H11 C15 1_555 1_555
Gd2 O4 1_555 1_555
O12 Gd2 1_555 1_555
O13 C16 1_555 1_555
O14 C17 1_555 1_555
O15 Gd1 1_555 1_555
O16 C21 1_555 1_555
O17 Gd2 1_555 1_555
C16 O12 1_555 1_555
C17 C16 1_555 1_555
C18 C17 1_555 1_555
H12 C18 1_555 1_555
C19 C18 1_555 1_555
H13 C19 1_555 1_555
C20 O14 1_555 1_555
C21 O15 1_555 1_555
Gd4 O5 1_555 1_555
Gd5 O10 1_555 1_555
Gd7 O6 1_555 1_555
Gd8 O10 1_555 1_555
O18 Gd2 1_555 1_555
O19 Gd1 1_555 1_555
O20 Gd1 1_555 1_555
O21 Gd2 1_555 1_555
O22 Gd2 1_555 1_555
O23 Gd2 1_555 1_555
O24 Gd1 1_555 1_555
O25 Gd2 1_555 1_555
O7 C7 1_555 1_555
C4 C5 1_555 1_555
O11 Gd8 1_555 1_555
C14 C15 1_555 1_555
O16 Gd7 1_555 1_555
C19 C20 1_555 1_555
C20 C21 1_555 1_555
Gd4 O23 1_555 1_555
C4_2 C3_2 1_555 1_555
H2_2 C4_2 1_555 1_555
O12_2 Gd7 1_555 1_555
O19 C16_2 1_555 1_555
O17_2 Gd7 1_555 1_555
N2 C22 1_555 1_555
C16_2 O12_2 1_555 1_555
C17_2 C16_2 1_555 1_555
C22 O17_2 1_555 1_555
H14 C22 1_555 1_555
C23 N2 1_555 1_555
H15 C23 1_555 1_555
H16 C23 1_555 1_555
H17 C23 1_555 1_555
C24 N2 1_555 1_555
H18 C24 1_555 1_555
H19 C24 1_555 1_555
O8_2 C8_2 1_555 1_555
C7_2 O22 1_555 1_555
C8_2 C7_2 1_555 1_555
C9_2 C8_2 1_555 1_555
H3_2 C9_2 1_555 1_555
O10_2 C13_2 1_555 1_555
O11_2 C13_2 1_555 1_555
C13_2 C14_2 1_555 1_555
C14_2 O8_2 1_555 1_555
C15_2 C9_2 1_555 1_555
H11_2 C15_2 1_555 1_555
O21 C21_2 1_555 1_555
C20_2 O14_2 1_555 1_555
C21_2 O15_2 1_555 1_555
Gd5_2 O10_2 1_555 1_555
O7_2 C7_2 1_555 1_555
C14_2 C15_2 1_555 1_555
C20_2 C21_2 1_555 1_555
O4_2 C6_2 1_555 1_555
O20 C6_2 1_555 1_555
C5_2 O3_2 1_555 1_555
C6_2 C5_2 1_555 1_555
Gd4 O1_2 1_555 1_555
O1_2 C1_2 1_555 1_555
O18 C1_2 1_555 1_555
O9_2 Gd4 1_555 1_555
N1 C10 1_555 1_555
C1_2 C2_2 1_555 1_555
C10 O9_2 1_555 1_555
H4 C10 1_555 1_555
C11 N1 1_555 1_555
H5 C11 1_555 1_555
H6 C11 1_555 1_555
H7 C11 1_555 1_555
C12 N1 1_555 1_555
H8 C12 1_555 1_555
H9 C12 1_555 1_555
C19_2 C18_2 1_555 1_555
H13_2 C19_2 1_555 1_555
O4_3 C6_3 1_555 1_555
O5_2 C6_3 1_555 1_555
Gd5_2 O5_2 1_555 1_555
Gd5 O1_3 1_555 1_555
O1_3 C1_3 1_555 1_555
O2_2 C1_3 1_555 1_555
O9_3 Gd5 1_555 1_555
N1_2 C10_2 1_555 1_555
C1_3 C2_3 1_555 1_555
C10_2 O9_3 1_555 1_555
H4_2 C10_2 1_555 1_555
C11_2 N1_2 1_555 1_555
H5_2 C11_2 1_555 1_555
H6_2 C11_2 1_555 1_555
H7_2 C11_2 1_555 1_555
C12_2 N1_2 1_555 1_555
H8_2 C12_2 1_555 1_555
H9_2 C12_2 1_555 1_555
Gd8 O2_2 1_555 1_555
O20_2 Gd5 1_555 1_555
O12_3 Gd8_2 1_555 1_555
O13_2 C16_3 1_555 1_555
O17_3 Gd8_2 1_555 1_555
N2_2 C22_2 1_555 1_555
C16_3 O12_3 1_555 1_555
C17_3 C16_3 1_555 1_555
C22_2 O17_3 1_555 1_555
H14_2 C22_2 1_555 1_555
C23_2 N2_2 1_555 1_555
H15_2 C23_2 1_555 1_555
H16_2 C23_2 1_555 1_555
H17_2 C23_2 1_555 1_555
C24_2 N2_2 1_555 1_555
H18_2 C24_2 1_555 1_555
H19_2 C24_2 1_555 1_555
Gd5_2 O13_2 1_555 1_555
O21_2 Gd8_2 1_555 1_555
O22_2 Gd8_2 1_555 1_555
Gd5_2 O22_2 1_555 1_555
O8_3 C8_3 1_555 1_555
C7_3 O6_2 1_555 1_555
C8_3 C7_3 1_555 1_555
C9_3 C8_3 1_555 1_555
H3_3 C9_3 1_555 1_555
O24 C13_3 1_555 1_555
O25_2 C13_3 1_555 1_555
C13_3 C14_3 1_555 1_555
C14_3 O8_3 1_555 1_555
C15_3 C9_3 1_555 1_555
H11_3 C15_3 1_555 1_555
O16_2 C21_3 1_555 1_555
C21_3 O15_3 1_555 1_555
Gd8 O6_2 1_555 1_555
O7_3 C7_3 1_555 1_555
C14_3 C15_3 1_555 1_555
O16_2 Gd8 1_555 1_555
Gd5_2 O1_4 1_555 1_555
O1_4 C1_4 1_555 1_555
O18_2 C1_4 1_555 1_555
O3_3 C2_4 1_555 1_555
O7_4 Gd5_2 1_555 1_555
O8_4 C8_4 1_555 1_555
O9_4 Gd5_2 1_555 1_555
C1_4 C2_4 1_555 1_555
C2_4 C3_3 1_555 1_555
C3_3 H1_4 1_555 1_555
C4_3 C3_3 1_555 1_555
H2_3 C4_3 1_555 1_555
C5_3 O3_3 1_555 1_555
C7_4 O22_2 1_555 1_555
C8_4 C7_4 1_555 1_555
C9_4 C8_4 1_555 1_555
H3_4 C9_4 1_555 1_555
O23 C13_4 1_555 1_555
O25 C13_4 1_555 1_555
C13_4 C14_4 1_555 1_555
C14_4 O8_4 1_555 1_555
C15_4 C9_4 1_555 1_555
H11_4 C15_4 1_555 1_555
O15_4 Gd5_2 1_555 1_555
O21_2 C21_4 1_555 1_555
C21_4 O15_4 1_555 1_555
O7_4 C7_4 1_555 1_555
C4_3 C5_3 1_555 1_555
C14_4 C15_4 1_555 1_555
O4_4 C6_4 1_555 1_555
O20_2 C6_4 1_555 1_555
Gd8 O4_4 1_555 1_555
O12_4 Gd8 1_555 1_555
O19_2 C16_4 1_555 1_555
O14_3 C17_4 1_555 1_555
O17_4 Gd8 1_555 1_555
C16_4 O12_4 1_555 1_555
C17_4 C16_4 1_555 1_555
C18_3 C17_4 1_555 1_555
H12_4 C18_3 1_555 1_555
C19_3 C18_3 1_555 1_555
H13_3 C19_3 1_555 1_555
C20_3 O14_3 1_555 1_555
C19_3 C20_3 1_555 1_555
N2_3 C22_3 1_555 1_555
H14_3 C22_3 1_555 1_555
C23_3 N2_3 1_555 1_555
H15_3 C23_3 1_555 1_555
H16_3 C23_3 1_555 1_555
H17_3 C23_3 1_555 1_555
C24_3 N2_3 1_555 1_555
H18_3 C24_3 1_555 1_555
H19_3 C24_3 1_555 1_555
H20_3 C24_3 1_555 1_555
N1_3 C10_3 1_555 1_555
H4_3 C10_3 1_555 1_555
C11_3 N1_3 1_555 1_555
H5_3 C11_3 1_555 1_555
H6_3 C11_3 1_555 1_555
H7_3 C11_3 1_555 1_555
C12_3 N1_3 1_555 1_555
H8_3 C12_3 1_555 1_555
H9_3 C12_3 1_555 1_555
H10_3 C12_3 1_555 1_555
C19_4 C18_4 1_555 1_555
H13_4 C19_4 1_555 1_555
C5_4 O3_4 1_555 1_555
C20_4 O14_4 1_555 1_555
C4_4 C3_4 1_555 1_555
H2_4 C4_4 1_555 1_555
N1_4 C10_4 1_555 1_555
H4_4 C10_4 1_555 1_555
C11_4 N1_4 1_555 1_555
H5_4 C11_4 1_555 1_555
H6_4 C11_4 1_555 1_555
H7_4 C11_4 1_555 1_555
C12_4 N1_4 1_555 1_555
H8_4 C12_4 1_555 1_555
H9_4 C12_4 1_555 1_555
H10_4 C12_4 1_555 1_555
N2_4 C22_4 1_555 1_555
H14_4 C22_4 1_555 1_555
C23_4 N2_4 1_555 1_555
H15_4 C23_4 1_555 1_555
H16_4 C23_4 1_555 1_555
H17_4 C23_4 1_555 1_555
C24_4 N2_4 1_555 1_555
H18_4 C24_4 1_555 1_555
H19_4 C24_4 1_555 1_555
H20_4 C24_4 1_555 1_555

#END
