
###############################################################################
#
# This file contains modified crystal structure data generated from the
# MOF subset of the Cambridge Structural Database (CSD) v543 
# hosted by the Cambridge Crystallographic Data Centre (CCDC).
#
# This work is licensed under the Creative Commons
# Attribution-NonCommercial-ShareAlike 4.0 International License.
# To view a copy of this license, visit
# http://creativecommons.org/licenses/by-nc-sa/4.0/
# or send a letter to
# Creative Commons, PO Box 1866, Mountain View, CA 94042, USA.
#
# CIF created using the CSD Python API on 29 September 2022
# The structure has been converted into the P1 space group
# The structure has a 3D framework
# The original CSD entry GOCLUI is in the triclinic crystal system
# The framework has been calculated to contain at least 10.0% void space
# The void calculation uses a probe of radius 1.32A, grid spacing 0.4
# H atom positions have been added when not included in the experimental data
#
###############################################################################

data_GOCLUI
_chemical_formula_moiety         '(C108 H76 Cd4 N8 O32)n'
_symmetry_cell_setting           triclinic
_symmetry_space_group_name_H-M   'P 1'
_symmetry_Int_Tables_number      1
_space_group_name_Hall           'P 1'
loop_
_symmetry_equiv_pos_site_id
_symmetry_equiv_pos_as_xyz
1 x,y,z
_cell_length_a                   10.041(3)
_cell_length_b                   14.013(5)
_cell_length_c                   21.048(7)
_cell_angle_alpha                90.301(7)
_cell_angle_beta                 100.299(6)
_cell_angle_gamma                96.915(6)
_cell_volume                     2891.55
loop_
_atom_site_label
_atom_site_type_symbol
_atom_site_fract_x
_atom_site_fract_y
_atom_site_fract_z
C10 C 0.3092(15) 0.8757(12) 0.8842(7)
H5 H 0.3544 0.9362 0.8978
C11 C 0.1813(17) 0.6970(13) 0.8440(8)
H6 H 0.1392 0.6347 0.8334
C12 C 0.1937(15) 0.8720(11) 0.8370(7)
H7 H 0.1606 0.9277 0.8204
C13 C 0.1263(16) 0.7778(13) 0.8143(8)
C14 C 0.2979(16) 0.7144(12) 0.8884(8)
H8 H 0.3389 0.6613 0.9046
N1 N 0.3595(12) 0.8019(9) 0.9111(6)
H15 H 0.0419 0.7652 0.5307
C31 C 0.0060(16) 0.8868(12) 0.5681(8)
H19 H 0.0814 0.8918 0.6014
Cd6 Cd 0.55163(10) 0.82497(7) 0.98935(5)
O3 O 0.3984(11) 0.0253(8) 0.0571(6)
C5 C 0.2876(14) 0.0083(9) 0.0161(7)
C15 C 0.557(2) 0.6599(14) 0.2984(11)
H9 H 0.5590 0.6899 0.3382
N2 N 0.5499(12) 0.7065(8) 0.2513(6)
O7 O 0.7360(10) 0.0943(7) 0.5552(5)
O8 O 0.6356(10) 0.0410(7) 0.4596(5)
C16 C 0.7245(13) 0.0319(9) 0.5099(6)
N3 N 0.5584(10) 0.0414(6) 0.2575(4)
C20 C 0.5717(13) 0.2386(8) 0.2652(6)
C21 C 0.4845(16) 0.1863(11) 0.2195(7)
H11 H 0.4236 0.2160 0.1898
C24 C 0.4842(13) 0.0893(8) 0.2162(6)
H12 H 0.4265 0.0554 0.1819
H13 H 0.9329 0.0014 0.5963
C26 C 0.6534(16) 0.1909(10) 0.3103(7)
H14 H 0.7151 0.2240 0.3437
C28 C 0.5756(17) 0.3488(11) 0.2722(7)
H16 H 0.6158 0.3745 0.3129
C29 C 0.6403(16) 0.0907(10) 0.3041(8)
H17 H 0.6933 0.0575 0.3352
C41 C 0.5456(13) 0.5123(9) 0.2429(7)
C43 C 0.5366(18) 0.4053(11) 0.2349(8)
H25 H 0.4937 0.3801 0.1944
C50 C 0.5611(19) 0.5546(12) 0.2950(10)
H31 H 0.5759 0.5206 0.3329
C51 C 0.5354(18) 0.5639(11) 0.1871(9)
H32 H 0.5264 0.5326 0.1472
C54 C 0.5386(18) 0.6636(11) 0.1911(9)
H35 H 0.5334 0.7001 0.1542
Cd5 Cd 0.57311(10) 0.18174(7) 0.49805(5)
Cd8 Cd 0.44837(10) 0.17503(7) 0.01065(5)
Cd9 Cd 0.54870(12) 0.87454(7) 0.25572(5)
O4 O 0.2549(10) 0.0671(8) 0.9750(5)
O1 O 0.7375(10) 0.2902(7) 0.4549(5)
O2 O 0.6108(13) 0.3449(8) 0.5174(6)
C1 C 0.7021(13) 0.3574(9) 0.4827(7)
C2 C 0.695(2) 0.5310(10) 0.4948(9)
H1 H 0.6301 0.5164 0.5209
C3 C 0.8445(15) 0.4827(10) 0.4321(7)
H2 H 0.8810 0.4333 0.4141
C4 C 0.7511(14) 0.4602(8) 0.4706(7)
C6 C 0.2280(17) 0.4369(12) 0.1073(8)
H3 H 0.2124 0.3846 0.1332
C7 C 0.3195(16) 0.5066(10) 0.0200(8)
O6 O 0.3373(11) 0.2672(7) 0.0779(5)
C8 C 0.2915(14) 0.4257(10) 0.0539(7)
C9 C 0.3401(14) 0.3353(10) 0.0371(8)
C17 C 0.8141(14) 0.9526(10) 0.5140(7)
Cd1 Cd 0.42689(10) 0.81826(7) 0.50195(5)
N4 N 0.5880(12) 0.8141(9) 0.5943(6)
C18 C 0.6406(14) 0.7340(11) 0.6137(7)
H10 H 0.6018 0.6761 0.5926
C19 C 0.6680(13) 0.8703(9) 0.4123(6)
O9 O 0.8626(11) 0.7421(7) 0.4236(5)
C22 C 0.7880(12) 0.8814(8) 0.4670(7)
C23 C 0.8764(15) 0.8127(11) 0.4725(8)
C25 C 0.9199(14) 0.9536(10) 0.5642(7)
C27 C 0.9860(14) 0.8139(12) 0.5257(8)
C30 C 0.6348(15) 0.8926(11) 0.6301(7)
H18 H 0.5917 0.9473 0.6208
C32 C 0.2036(13) 0.9149(9) 0.0206(7)
C33 C 0.3781(14) 0.8526(8) 0.1058(6)
C35 C 0.2421(13) 0.8422(9) 0.0597(7)
C37 C 0.1549(15) 0.7571(11) 0.0612(7)
O10 O 0.6914(10) 0.8883(6) 0.3561(4)
O11 O 0.3779(10) 0.8692(7) 0.1637(5)
O12 O 0.5534(9) 0.8344(7) 0.4229(5)
O13 O 0.4824(10) 0.8301(7) 0.0858(4)
O14 O 0.3626(13) 0.8556(12) 0.3099(6)
H22 H 0.2926 0.8629 0.2846
C38 C 0.7409(16) 0.8979(13) 0.6791(8)
H23 H 0.7743 0.9565 0.7005
C39 C 0.7500(16) 0.7332(12) 0.6635(8)
H24 H 0.7890 0.6771 0.6738
O15 O 0.1902(11) 0.6913(6) 0.1069(5)
C40 C 0.2184(15) 0.6021(10) 0.0854(7)
C42 C 0.8276(14) 0.6469(9) 0.4415(7)
C44 C 0.9240(18) 0.8299(14) 0.7491(9)
H26 H 0.9466 0.8886 0.7716
C45 C 0.1891(15) 0.5227(10) 0.1219(7)
H27 H 0.1430 0.5282 0.1561
C46 C 0.9997(19) 0.7655(14) 0.7638(8)
H28 H 0.9757 0.7063 0.7420
C47 C 0.7998(17) 0.8178(14) 0.6977(7)
C48 C 0.8867(17) 0.5761(11) 0.4188(8)
H29 H 0.9551 0.5901 0.3945
C49 C 0.0348(17) 0.7450(13) 0.0186(9)
C52 C 0.2787(19) 0.5946(11) 0.0344(8)
H33 H 0.2933 0.6474 0.0088
C53 C 0.735(2) 0.6309(14) 0.4801(10)
H34 H 0.6980 0.6812 0.4969
O16 O 0.736(2) 0.8906(15) 0.2070(11)
H36 H 0.7339 0.8435 0.1833
H37 H 0.7993 0.8903 0.2412
O17 O 0.2625(10) 0.7098(7) 0.5451(5)
O18 O 0.3892(13) 0.6551(8) 0.4826(6)
O20 O 0.7451(10) 0.9329(8) 0.0250(5)
O21 O 0.6083(12) 0.6720(7) 0.0103(5)
O23 O 0.2640(10) 0.9057(7) 0.4448(5)
O24 O 0.3644(10) 0.9590(7) 0.5404(5)
H38 H 0.377534 0.904235 0.345756
O5 O 0.3917(12) 0.3280(7) 0.9897(5)
H4 H 0.3673 0.5027 0.9863
C34 C 0.0764(13) 0.8994(9) 0.9774(6)
H20 H 0.0485 0.9465 0.9488
O19 O 0.6016(11) 0.9747(8) 0.9429(6)
O22 O 0.6627(11) 0.7328(7) 0.9221(5)
H4_2 H 0.6327 0.4973 0.0137
C34_2 C 0.9236(13) 0.1006(9) 0.0226(6)
H20_2 H 0.9515 0.0535 0.0512
N5 N 0.6405(12) 0.1981(9) 0.0889(6)
C1_2 C 0.2979(13) 0.6426(9) 0.5173(7)
C2_2 C 0.305(2) 0.4690(10) 0.5052(9)
H1_2 H 0.3699 0.4836 0.4791
C3_2 C 0.1555(15) 0.5173(10) 0.5679(7)
H2_2 H 0.1190 0.5667 0.5859
C4_2 C 0.2489(14) 0.5398(8) 0.5294(7)
C6_2 C 0.7720(17) 0.5631(12) 0.8927(8)
H3_2 H 0.7876 0.6154 0.8668
C7_2 C 0.6805(16) 0.4934(10) 0.9800(8)
C8_2 C 0.7085(14) 0.5743(10) 0.9461(7)
C9_2 C 0.6599(14) 0.6647(10) 0.9629(8)
C17_2 C 0.1859(14) 0.0474(10) 0.4860(7)
Cd3 Cd 0.45130(12) 0.12546(7) 0.74428(5)
N4_2 N 0.4120(12) 0.1859(9) 0.4057(6)
C18_2 C 0.3594(14) 0.2660(11) 0.3863(7)
H10_2 H 0.3982 0.3239 0.4074
C19_2 C 0.3320(13) 0.1297(9) 0.5877(6)
O9_2 O 0.1374(11) 0.2579(7) 0.5764(5)
C22_2 C 0.2120(12) 0.1186(8) 0.5330(7)
C23_2 C 0.1236(15) 0.1873(11) 0.5275(8)
C25_2 C 0.0801(14) 0.0464(10) 0.4358(7)
C27_2 C 0.0140(14) 0.1861(12) 0.4743(8)
C30_2 C 0.3652(15) 0.1074(11) 0.3699(7)
H18_2 H 0.4083 0.0527 0.3792
C32_2 C 0.7964(13) 0.0851(9) 0.9794(7)
C33_2 C 0.6219(14) 0.1474(8) 0.8942(6)
C35_2 C 0.7579(13) 0.1578(9) 0.9403(7)
C37_2 C 0.8451(15) 0.2429(11) 0.9388(7)
O10_2 O 0.3086(10) 0.1117(6) 0.6439(4)
O11_2 O 0.6221(10) 0.1308(7) 0.8363(5)
O12_2 O 0.4466(9) 0.1656(7) 0.5771(5)
O13_2 O 0.5176(10) 0.1699(7) 0.9142(4)
O14_2 O 0.6374(13) 0.1444(12) 0.6901(6)
H22_2 H 0.7074 0.1371 0.7154
C38_2 C 0.2591(16) 0.1021(13) 0.3209(8)
H23_2 H 0.2257 0.0435 0.2995
C39_2 C 0.2500(16) 0.2668(12) 0.3365(8)
H24_2 H 0.2110 0.3229 0.3262
O15_2 O 0.8098(11) 0.3087(6) 0.8931(5)
C40_2 C 0.7816(15) 0.3979(10) 0.9146(7)
C42_2 C 0.1724(14) 0.3531(9) 0.5585(7)
C44_2 C 0.0760(18) 0.1701(14) 0.2509(9)
H26_2 H 0.0534 0.1114 0.2284
C45_2 C 0.8109(15) 0.4773(10) 0.8781(7)
H27_2 H 0.8570 0.4718 0.8439
C46_2 C 0.0003(19) 0.2345(14) 0.2362(8)
H28_2 H 0.0243 0.2937 0.2580
C47_2 C 0.2002(17) 0.1822(14) 0.3023(7)
C48_2 C 0.1133(17) 0.4239(11) 0.5812(8)
H29_2 H 0.0449 0.4099 0.6055
C49_2 C 0.9652(17) 0.2550(13) 0.9814(9)
C52_2 C 0.7213(19) 0.4054(11) 0.9656(8)
H33_2 H 0.7067 0.3526 0.9912
C53_2 C 0.265(2) 0.3691(14) 0.5199(10)
H34_2 H 0.3020 0.3188 0.5031
O16_2 O 0.264(2) 0.1094(15) 0.7930(11)
H36_2 H 0.2661 0.1565 0.8167
H37_2 H 0.2007 0.1097 0.7588
N6 N 0.4501(12) 0.2935(8) 0.7487(6)
H38_2 H 0.622466 0.0957647 0.654244
C5_2 C 0.7124(14) 0.9917(9) 0.9839(7)
C15_2 C 0.443(2) 0.3401(14) 0.7016(11)
H9_2 H 0.4410 0.3101 0.6618
C16_2 C 0.2755(13) 0.9681(9) 0.4901(6)
N3_2 N 0.4416(10) 0.9586(6) 0.7425(4)
C20_2 C 0.4283(13) 0.7614(8) 0.7348(6)
C21_2 C 0.5155(16) 0.8137(11) 0.7805(7)
H11_2 H 0.5764 0.7840 0.8102
C24_2 C 0.5158(13) 0.9107(8) 0.7838(6)
H12_2 H 0.5735 0.9446 0.8181
H13_2 H 0.0671 0.9986 0.4037
C26_2 C 0.3466(16) 0.8091(10) 0.6897(7)
H14_2 H 0.2849 0.7760 0.6563
C28_2 C 0.4244(17) 0.6512(11) 0.7278(7)
H16_2 H 0.3842 0.6255 0.6871
C29_2 C 0.3597(16) 0.9093(10) 0.6959(8)
H17_2 H 0.3067 0.9425 0.6648
C41_2 C 0.4544(13) 0.4877(9) 0.7571(7)
C43_2 C 0.4634(18) 0.5947(11) 0.7651(8)
H25_2 H 0.5063 0.6199 0.8056
C50_2 C 0.4389(19) 0.4454(12) 0.7050(10)
H31_2 H 0.4241 0.4794 0.6671
C51_2 C 0.4646(18) 0.4361(11) 0.8129(9)
H32_2 H 0.4736 0.4674 0.8528
C54_2 C 0.4614(18) 0.3364(11) 0.8089(9)
H35_2 H 0.4666 0.2999 0.8458
C10_2 C 0.6908(15) 0.1243(12) 0.1158(7)
H5_2 H 0.6456 0.0638 0.1022
C11_2 C 0.8187(17) 0.3030(13) 0.1560(8)
H6_2 H 0.8608 0.3653 0.1666
C12_2 C 0.8063(15) 0.1280(11) 0.1630(7)
H7_2 H 0.8394 0.0723 0.1796
C13_2 C 0.8737(16) 0.2222(13) 0.1857(8)
C14_2 C 0.7021(16) 0.2856(12) 0.1116(8)
H8_2 H 0.6611 0.3387 0.0954
H15_2 H 0.9581 0.2348 0.4693
C31_2 C 0.9940(16) 0.1132(12) 0.4319(8)
H19_2 H 0.9186 0.1082 0.3986
H30 H 0.9780 0.6873 0.0173
C36 C 0.9969(14) 0.8149(12) 0.9786(8)
H21 H 0.9131 0.8048 0.9508
C36_2 C 0.0031(14) 0.1851(12) 0.0214(8)
H21_2 H 0.0869 0.1952 0.0492
H30_2 H 0.0220 0.3127 0.9827
loop_
_geom_bond_atom_site_label_1
_geom_bond_atom_site_label_2
_geom_bond_site_symmetry_1
_geom_bond_site_symmetry_2
C10 H5 1_555 1_555
C11 H6 1_555 1_555
C12 C10 1_555 1_555
H7 C12 1_555 1_555
C13 C11 1_555 1_555
C14 C11 1_555 1_555
H8 C14 1_555 1_555
N1 C10 1_555 1_555
H19 C31 1_555 1_555
Cd6 N1 1_555 1_555
C12 C13 1_555 1_555
C14 N1 1_555 1_555
O3 C5 1_555 1_555
C15 H9 1_555 1_555
N2 C15 1_555 1_555
O7 C16 1_555 1_555
O8 C16 1_555 1_555
N3 C24 1_555 1_555
C20 C21 1_555 1_555
C21 H11 1_555 1_555
C24 C21 1_555 1_555
H12 C24 1_555 1_555
C26 C20 1_555 1_555
H14 C26 1_555 1_555
C28 C20 1_555 1_555
H16 C28 1_555 1_555
C29 N3 1_555 1_555
H17 C29 1_555 1_555
C41 C43 1_555 1_555
C43 C28 1_555 1_555
H25 C43 1_555 1_555
C50 C15 1_555 1_555
H31 C50 1_555 1_555
C51 C41 1_555 1_555
H32 C51 1_555 1_555
C54 N2 1_555 1_555
H35 C54 1_555 1_555
Cd5 O7 1_555 1_555
Cd8 O3 1_555 1_555
Cd9 N2 1_555 1_555
O8 Cd5 1_555 1_555
C26 C29 1_555 1_555
C41 C50 1_555 1_555
C51 C54 1_555 1_555
O1 C1 1_555 1_555
O2 C1 1_555 1_555
C1 C4 1_555 1_555
C2 H1 1_555 1_555
C3 H2 1_555 1_555
C4 C2 1_555 1_555
C6 H3 1_555 1_555
O6 C9 1_555 1_555
C8 C6 1_555 1_555
C9 C8 1_555 1_555
C17 C22 1_555 1_555
Cd1 N4 1_555 1_555
N4 C18 1_555 1_555
C18 H10 1_555 1_555
C19 C22 1_555 1_555
O9 C23 1_555 1_555
C22 C23 1_555 1_555
C23 C27 1_555 1_555
C25 C17 1_555 1_555
C30 N4 1_555 1_555
H18 C30 1_555 1_555
C33 C35 1_555 1_555
C35 C32 1_555 1_555
C37 C35 1_555 1_555
O10 Cd9 1_555 1_555
O11 Cd9 1_555 1_555
O12 Cd1 1_555 1_555
O13 C33 1_555 1_555
O14 Cd9 1_555 1_555
H22 O14 1_555 1_555
C38 C30 1_555 1_555
H23 C38 1_555 1_555
C39 C18 1_555 1_555
H24 C39 1_555 1_555
O15 C37 1_555 1_555
C40 O15 1_555 1_555
C42 O9 1_555 1_555
C44 H26 1_555 1_555
C45 C6 1_555 1_555
H27 C45 1_555 1_555
H28 C46 1_555 1_555
C47 C38 1_555 1_555
C48 C3 1_555 1_555
H29 C48 1_555 1_555
C52 C7 1_555 1_555
H33 C52 1_555 1_555
C53 C2 1_555 1_555
H34 C53 1_555 1_555
O16 Cd9 1_555 1_555
H36 O16 1_555 1_555
H37 O16 1_555 1_555
O17 Cd1 1_555 1_555
O18 Cd1 1_555 1_555
O23 Cd1 1_555 1_555
O24 Cd1 1_555 1_555
Cd5 O1 1_555 1_555
O2 Cd5 1_555 1_555
C3 C4 1_555 1_555
C7 C8 1_555 1_555
O6 Cd8 1_555 1_555
C19 O10 1_555 1_555
C19 O12 1_555 1_555
C33 O11 1_555 1_555
C37 C49 1_555 1_555
C39 C47 1_555 1_555
C40 C45 1_555 1_555
C40 C52 1_555 1_555
C42 C48 1_555 1_555
C42 C53 1_555 1_555
C44 C46 1_555 1_555
C44 C47 1_555 1_555
O14 H38 1_555 1_555
C34 H20 1_555 1_555
O19 Cd6 1_555 1_555
O22 Cd6 1_555 1_555
C34_2 H20_2 1_555 1_555
N5 Cd8 1_555 1_555
O17 C1_2 1_555 1_555
O18 C1_2 1_555 1_555
C1_2 C4_2 1_555 1_555
C2_2 H1_2 1_555 1_555
C3_2 H2_2 1_555 1_555
C4_2 C2_2 1_555 1_555
C6_2 H3_2 1_555 1_555
O22 C9_2 1_555 1_555
C8_2 C6_2 1_555 1_555
C9_2 C8_2 1_555 1_555
C17_2 C22_2 1_555 1_555
Cd5 N4_2 1_555 1_555
N4_2 C18_2 1_555 1_555
C18_2 H10_2 1_555 1_555
C19_2 C22_2 1_555 1_555
O9_2 C23_2 1_555 1_555
C22_2 C23_2 1_555 1_555
C23_2 C27_2 1_555 1_555
C25_2 C17_2 1_555 1_555
C30_2 N4_2 1_555 1_555
H18_2 C30_2 1_555 1_555
C33_2 C35_2 1_555 1_555
C35_2 C32_2 1_555 1_555
C37_2 C35_2 1_555 1_555
O10_2 Cd3 1_555 1_555
O11_2 Cd3 1_555 1_555
O12_2 Cd5 1_555 1_555
O13_2 C33_2 1_555 1_555
O14_2 Cd3 1_555 1_555
H22_2 O14_2 1_555 1_555
C38_2 C30_2 1_555 1_555
H23_2 C38_2 1_555 1_555
C39_2 C18_2 1_555 1_555
H24_2 C39_2 1_555 1_555
O15_2 C37_2 1_555 1_555
C40_2 O15_2 1_555 1_555
C42_2 O9_2 1_555 1_555
C44_2 H26_2 1_555 1_555
C45_2 C6_2 1_555 1_555
H27_2 C45_2 1_555 1_555
H28_2 C46_2 1_555 1_555
C47_2 C38_2 1_555 1_555
C48_2 C3_2 1_555 1_555
H29_2 C48_2 1_555 1_555
C52_2 C7_2 1_555 1_555
H33_2 C52_2 1_555 1_555
C53_2 C2_2 1_555 1_555
H34_2 C53_2 1_555 1_555
O16_2 Cd3 1_555 1_555
H36_2 O16_2 1_555 1_555
H37_2 O16_2 1_555 1_555
N6 Cd3 1_555 1_555
C3_2 C4_2 1_555 1_555
C7_2 C8_2 1_555 1_555
C19_2 O10_2 1_555 1_555
C19_2 O12_2 1_555 1_555
C33_2 O11_2 1_555 1_555
C37_2 C49_2 1_555 1_555
C39_2 C47_2 1_555 1_555
C40_2 C45_2 1_555 1_555
C40_2 C52_2 1_555 1_555
C42_2 C48_2 1_555 1_555
C42_2 C53_2 1_555 1_555
C44_2 C46_2 1_555 1_555
C44_2 C47_2 1_555 1_555
O14_2 H38_2 1_555 1_555
O19 C5_2 1_555 1_555
C15_2 H9_2 1_555 1_555
N6 C15_2 1_555 1_555
O23 C16_2 1_555 1_555
O24 C16_2 1_555 1_555
N3_2 C24_2 1_555 1_555
C20_2 C21_2 1_555 1_555
C21_2 H11_2 1_555 1_555
C24_2 C21_2 1_555 1_555
H12_2 C24_2 1_555 1_555
C26_2 C20_2 1_555 1_555
H14_2 C26_2 1_555 1_555
C28_2 C20_2 1_555 1_555
H16_2 C28_2 1_555 1_555
C29_2 N3_2 1_555 1_555
H17_2 C29_2 1_555 1_555
C41_2 C43_2 1_555 1_555
C43_2 C28_2 1_555 1_555
H25_2 C43_2 1_555 1_555
C50_2 C15_2 1_555 1_555
H31_2 C50_2 1_555 1_555
C51_2 C41_2 1_555 1_555
H32_2 C51_2 1_555 1_555
C54_2 N6 1_555 1_555
H35_2 C54_2 1_555 1_555
C26_2 C29_2 1_555 1_555
C41_2 C50_2 1_555 1_555
C51_2 C54_2 1_555 1_555
C10_2 H5_2 1_555 1_555
C11_2 H6_2 1_555 1_555
C12_2 C10_2 1_555 1_555
H7_2 C12_2 1_555 1_555
C13_2 C11_2 1_555 1_555
C14_2 C11_2 1_555 1_555
H8_2 C14_2 1_555 1_555
N5 C10_2 1_555 1_555
H19_2 C31_2 1_555 1_555
C12_2 C13_2 1_555 1_555
C14_2 N5 1_555 1_555
H21 C36 1_555 1_555
H21_2 C36_2 1_555 1_555

#END
