
###############################################################################
#
# This file contains modified crystal structure data generated from the
# MOF subset of the Cambridge Structural Database (CSD) v543 
# hosted by the Cambridge Crystallographic Data Centre (CCDC).
#
# This work is licensed under the Creative Commons
# Attribution-NonCommercial-ShareAlike 4.0 International License.
# To view a copy of this license, visit
# http://creativecommons.org/licenses/by-nc-sa/4.0/
# or send a letter to
# Creative Commons, PO Box 1866, Mountain View, CA 94042, USA.
#
# CIF created using the CSD Python API on 29 September 2022
# The structure has been converted into the P1 space group
# The structure has a 3D framework
# The original CSD entry GODPEX is in the triclinic crystal system
# The framework has been calculated to contain at least 10.0% void space
# The void calculation uses a probe of radius 1.32A, grid spacing 0.4
# H atom positions have been added when not included in the experimental data
#
###############################################################################

data_GODPEX
_chemical_formula_moiety         '(C92 H84 Cd4 O24)n'
_symmetry_cell_setting           triclinic
_symmetry_space_group_name_H-M   'P 1'
_symmetry_Int_Tables_number      1
_space_group_name_Hall           'P 1'
loop_
_symmetry_equiv_pos_site_id
_symmetry_equiv_pos_as_xyz
1 x,y,z
_cell_length_a                   16.2798(14)
_cell_length_b                   16.8149(14)
_cell_length_c                   16.9520(16)
_cell_angle_alpha                107.917(8)
_cell_angle_beta                 107.432(8)
_cell_angle_gamma                104.827(7)
_cell_volume                     3890.72
loop_
_atom_site_label
_atom_site_type_symbol
_atom_site_fract_x
_atom_site_fract_y
_atom_site_fract_z
O10 O 0.1654(12) 0.2064(9) 0.0361(11)
O12 O 0.331(2) 0.1639(16) 0.0159(11)
H39 H 0.108098 0.157511 0.0247806
H40 H 0.215878 0.21995 0.0945342
H41 H 0.321515 0.102244 0.0132605
H42 H 0.386787 0.186796 0.00431437
O3 O 0.0797(9) 0.1454(9) 0.8266(10)
O7 O 0.0488(7) 0.1874(7) 0.7123(7)
C29 C 0.0251(13) 0.1473(11) 0.7574(13)
Cd2 Cd 0.21255(10) 0.15890(8) 0.91606(7)
O11 O 0.1388(14) 0.0223(15) 0.8827(12)
Cd5 Cd 0.19863(7) 0.27406(6) 0.77010(6)
O15 O 0.2750(6) 0.3025(5) 0.9238(5)
O17 O 0.2588(12) 0.1042(12) 0.8111(12)
C1 C 0.9265(11) 0.0843(10) 0.7119(11)
C8 C 0.4075(9) 0.0479(7) 0.6109(8)
H4 H 0.4274 0.0634 0.5697
C17 C 0.3609(10) 0.0917(8) 0.6455(9)
H11 H 0.3552 0.1407 0.6332
C18 C 0.7688(11) 0.0386(9) 0.6094(11)
H12 H 0.7272 0.0447 0.5624
C24 C 0.8699(11) 0.0880(9) 0.6435(11)
H15 H 0.8927 0.1220 0.6151
C27 C 0.8885(12) 0.0324(11) 0.7539(12)
H16 H 0.9268 0.0348 0.8085
C41 C 0.3388(11) 0.0012(9) 0.7255(9)
C44 C 0.6242(10) 0.0816(8) 0.6950(9)
H34 H 0.6149 0.1138 0.6572
H35 H 0.6897 0.1006 0.7299
H36 H 0.5939 0.0943 0.7353
C45 C 0.3196(11) 0.0661(9) 0.7008(9)
O9 O 0.2480(11) 0.1695(8) 0.7208(12)
C46 C 0.266(2) 0.112(2) 0.740(2)
O1 O 0.0692(9) 0.3322(8) 0.7566(8)
H1 H 0.0545 0.3571 0.8021
H2 H 0.0311 0.3310 0.7056
O5 O 0.1721(6) 0.3452(6) 0.6737(6)
O6 O 0.3191(7) 0.3615(8) 0.7461(7)
C2 C 0.3382(10) 0.5057(7) 0.2361(9)
C3 C 0.3786(8) 0.4297(7) 0.6316(8)
H3 H 0.4178 0.4068 0.6615
C4 C 0.3722(8) 0.5568(6) 0.3381(7)
C5 C 0.4956(9) 0.7981(6) 0.5240(7)
C6 C 0.2934(9) 0.4212(8) 0.6401(9)
C7 C 0.4516(9) 0.6932(6) 0.4733(7)
C9 C 0.2683(10) 0.5177(8) 0.1787(9)
H5 H 0.2406 0.5550 0.2031
C10 C 0.4041(8) 0.4712(7) 0.5803(7)
H6 H 0.4605 0.4760 0.5757
C11 C 0.4282(10) 0.9813(8) 0.6322(8)
C12 C 0.2608(10) 0.4913(9) 0.5384(9)
H7 H 0.2191 0.5091 0.5039
C13 C 0.3505(9) 0.5043(7) 0.5373(8)
C14 C 0.4388(9) 0.8428(7) 0.5417(7)
C15 C 0.3391(9) 0.7969(7) 0.5017(8)
H8 H 0.3164 0.7733 0.4366
H9 H 0.3116 0.8387 0.5223
H10 H 0.3227 0.7481 0.5194
C16 C 0.3771(8) 0.5536(7) 0.4807(8)
C19 C 0.2375(10) 0.4764(8) 0.0861(9)
H13 H 0.1910 0.4860 0.0471
C20 C 0.3764(9) 0.4484(8) 0.2021(9)
H14 H 0.4212 0.4374 0.2414
C21 C 0.5828(9) 0.9800(7) 0.6352(8)
C22 C 0.4282(9) 0.6459(6) 0.5237(7)
C23 C 0.2819(10) 0.4164(7) 0.0521(8)
C25 C 0.4211(9) 0.6498(7) 0.3832(8)
C26 C 0.3510(9) 0.5094(7) 0.3895(8)
C28 C 0.3490(9) 0.4057(8) 0.1084(8)
H17 H 0.3785 0.3694 0.0858
C30 C 0.7370(11) 0.9839(8) 0.6476(10)
C31 C 0.4431(9) 0.7017(7) 0.3246(8)
H18 H 0.4667 0.6698 0.2851
H19 H 0.4889 0.7616 0.3641
H20 H 0.3871 0.7053 0.2888
C32 C 0.5940(9) 0.8391(7) 0.5562(8)
C33 C 0.7979(11) 0.9801(9) 0.7150(11)
H21 H 0.7770 0.9387 0.7375
C35 C 0.4829(9) 0.9361(7) 0.6002(7)
C36 C 0.6542(9) 0.7861(7) 0.5394(8)
H22 H 0.6756 0.7697 0.5891
H23 H 0.7068 0.8227 0.5347
H24 H 0.6184 0.7323 0.4839
C37 C 0.2390(10) 0.4513(10) 0.5929(10)
H25 H 0.1821 0.4452 0.5968
C38 C 0.6365(9) 0.9368(7) 0.6132(8)
C39 C 0.3911(11) 0.9620(9) 0.6923(9)
H26 H 0.4037 0.9182 0.7108
C40 C 0.2639(10) 0.3727(10) 0.6924(10)
H27 H 0.3163 0.9841 0.7646
C42 C 0.4696(9) 0.6936(7) 0.6300(7)
H28 H 0.5364 0.7194 0.6538
H29 H 0.4508 0.6501 0.6533
H30 H 0.4470 0.7406 0.6481
C43 C 0.2884(9) 0.4072(7) 0.3396(8)
H31 H 0.2657 0.3892 0.2751
H32 H 0.2367 0.3961 0.3564
H33 H 0.3241 0.3730 0.3564
O13 O 0.1969(7) 0.3881(6) 0.8986(6)
C34 C 0.2476(10) 0.3661(8) 0.9493(8)
H37 H 0.114177 0.986786 0.816007
H38 H 0.181218 0.99841 0.914825
O2 O 0.8031(7) 0.6119(6) 0.1014(6)
O4 O 0.7250(6) 0.6975(5) 0.0762(5)
C34_2 C 0.7524(10) 0.6339(8) 0.0507(8)
Cd3 Cd 0.80137(7) 0.72594(6) 0.22990(6)
Cd6 Cd 0.78745(10) 0.84110(8) 0.08394(7)
O1_2 O 0.9308(9) 0.6678(8) 0.2434(8)
H1_2 H 0.9455 0.6429 0.1979
H2_2 H 0.9689 0.6690 0.2944
O5_2 O 0.8279(6) 0.6548(6) 0.3263(6)
O6_2 O 0.6809(7) 0.6385(8) 0.2539(7)
C2_2 C 0.6618(10) 0.4943(7) 0.7639(9)
C3_2 C 0.6214(8) 0.5703(7) 0.3684(8)
H3_2 H 0.5822 0.5932 0.3385
C4_2 C 0.6278(8) 0.4432(6) 0.6619(7)
C5_2 C 0.5044(9) 0.2019(6) 0.4760(7)
C6_2 C 0.7066(9) 0.5788(8) 0.3599(9)
C7_2 C 0.5484(9) 0.3068(6) 0.5267(7)
C9_2 C 0.7317(10) 0.4823(8) 0.8213(9)
H5_2 H 0.7594 0.4450 0.7969
C10_2 C 0.5959(8) 0.5288(7) 0.4197(7)
H6_2 H 0.5395 0.5240 0.4243
C11_2 C 0.5718(10) 0.0187(8) 0.3678(8)
C12_2 C 0.7392(10) 0.5087(9) 0.4616(9)
H7_2 H 0.7809 0.4909 0.4961
C13_2 C 0.6495(9) 0.4957(7) 0.4627(8)
C14_2 C 0.5612(9) 0.1572(7) 0.4583(7)
C15_2 C 0.6609(9) 0.2031(7) 0.4983(8)
H8_2 H 0.6836 0.2267 0.5634
H9_2 H 0.6884 0.1613 0.4777
H10_2 H 0.6773 0.2519 0.4806
C16_2 C 0.6229(8) 0.4464(7) 0.5193(8)
C19_2 C 0.7625(10) 0.5236(8) 0.9139(9)
H13_2 H 0.8090 0.5140 0.9529
C20_2 C 0.6236(9) 0.5516(8) 0.7979(9)
H14_2 H 0.5788 0.5626 0.7586
C21_2 C 0.4172(9) 0.0200(7) 0.3648(8)
C22_2 C 0.5718(9) 0.3541(6) 0.4763(7)
C23_2 C 0.7181(10) 0.5836(7) 0.9479(8)
C25_2 C 0.5789(9) 0.3502(7) 0.6168(8)
C26_2 C 0.6490(9) 0.4906(7) 0.6105(8)
C28_2 C 0.6510(9) 0.5943(8) 0.8916(8)
H17_2 H 0.6215 0.6306 0.9142
C30_2 C 0.2630(11) 0.0161(8) 0.3524(10)
C31_2 C 0.5569(9) 0.2983(7) 0.6754(8)
H18_2 H 0.5333 0.3302 0.7149
H19_2 H 0.5111 0.2384 0.6359
H20_2 H 0.6129 0.2947 0.7112
C32_2 C 0.4060(9) 0.1609(7) 0.4438(8)
C33_2 C 0.2021(11) 0.0199(9) 0.2850(11)
H21_2 H 0.2230 0.0613 0.2625
C35_2 C 0.5171(9) 0.0639(7) 0.3998(7)
C36_2 C 0.3458(9) 0.2139(7) 0.4606(8)
H22_2 H 0.3244 0.2303 0.4109
H23_2 H 0.2932 0.1773 0.4653
H24_2 H 0.3816 0.2677 0.5161
C37_2 C 0.7610(10) 0.5487(10) 0.4071(10)
H25_2 H 0.8179 0.5548 0.4032
C38_2 C 0.3635(9) 0.0632(7) 0.3868(8)
C39_2 C 0.6089(11) 0.0380(9) 0.3077(9)
H26_2 H 0.5963 0.0818 0.2892
C40_2 C 0.7361(10) 0.6273(10) 0.3076(10)
H27_2 H 0.6837 0.0159 0.2354
C42_2 C 0.5304(9) 0.3064(7) 0.3700(7)
H28_2 H 0.4636 0.2806 0.3462
H29_2 H 0.5492 0.3499 0.3467
H30_2 H 0.5530 0.2594 0.3519
C43_2 C 0.7116(9) 0.5928(7) 0.6604(8)
H31_2 H 0.7343 0.6108 0.7249
H32_2 H 0.7633 0.6039 0.6436
H33_2 H 0.6759 0.6270 0.6436
O16 O 0.9512(7) 0.8126(7) 0.2877(7)
O18 O 0.7520(11) 0.8305(8) 0.2792(12)
C1_2 C 0.0735(11) 0.9157(10) 0.2881(11)
C8_2 C 0.5925(9) 0.9521(7) 0.3891(8)
H4_2 H 0.5726 0.9366 0.4303
C17_2 C 0.6391(10) 0.9083(8) 0.3545(9)
H11_2 H 0.6448 0.8593 0.3668
C18_2 C 0.2312(11) 0.9614(9) 0.3906(11)
H12_2 H 0.2728 0.9553 0.4376
C24_2 C 0.1301(11) 0.9120(9) 0.3565(11)
H15_2 H 0.1073 0.8780 0.3849
C27_2 C 0.1115(12) 0.9676(11) 0.2461(12)
H16_2 H 0.0732 0.9652 0.1915
C41_2 C 0.6612(11) 0.9988(9) 0.2745(9)
C44_2 C 0.3758(10) 0.9184(8) 0.3050(9)
H34_2 H 0.3851 0.8862 0.3428
H35_2 H 0.3103 0.8994 0.2701
H36_2 H 0.4061 0.9057 0.2647
C45_2 C 0.6804(11) 0.9339(9) 0.2992(9)
O8 O 0.7412(12) 0.8958(12) 0.1889(12)
C46_2 C 0.734(2) 0.888(2) 0.260(2)
O3_2 O 0.9203(9) 0.8546(9) 0.1734(10)
C29_2 C 0.9749(13) 0.8527(11) 0.2426(13)
O11_2 O 0.8612(14) 0.9777(15) 0.1173(12)
H37_2 H 0.885823 0.0132144 0.183993
H38_2 H 0.818782 0.00158961 0.0851753
O10_2 O 0.8346(12) 0.7936(9) 0.9639(11)
O12_2 O 0.669(2) 0.8361(16) 0.9841(11)
H39_2 H 0.891902 0.842489 0.975219
H40_2 H 0.784122 0.78005 0.905466
H41_2 H 0.678485 0.897756 0.98674
H42_2 H 0.613213 0.813204 0.995686
loop_
_geom_bond_atom_site_label_1
_geom_bond_atom_site_label_2
_geom_bond_site_symmetry_1
_geom_bond_site_symmetry_2
O10 H39 1_555 1_555
O10 H40 1_555 1_555
O12 H41 1_555 1_555
O12 H42 1_555 1_555
O3 C29 1_555 1_555
O7 C29 1_555 1_555
Cd2 O3 1_555 1_555
O11 Cd2 1_555 1_555
Cd5 O7 1_555 1_555
O15 Cd2 1_555 1_555
O17 Cd2 1_555 1_555
Cd5 O15 1_555 1_555
C1 C24 1_555 1_555
C8 H4 1_555 1_555
C17 C8 1_555 1_555
H11 C17 1_555 1_555
C18 H12 1_555 1_555
C24 C18 1_555 1_555
H15 C24 1_555 1_555
C27 C1 1_555 1_555
H16 C27 1_555 1_555
H34 C44 1_555 1_555
H35 C44 1_555 1_555
H36 C44 1_555 1_555
C45 C17 1_555 1_555
O17 C46 1_555 1_555
O9 C46 1_555 1_555
C46 C45 1_555 1_555
Cd5 O9 1_555 1_555
C41 C45 1_555 1_555
Cd5 O1 1_555 1_555
O1 H1 1_555 1_555
H2 O1 1_555 1_555
O5 Cd5 1_555 1_555
O6 Cd5 1_555 1_555
C2 C4 1_555 1_555
C3 H3 1_555 1_555
C4 C25 1_555 1_555
C5 C7 1_555 1_555
C6 C3 1_555 1_555
C7 C22 1_555 1_555
C9 C2 1_555 1_555
H5 C9 1_555 1_555
C10 C3 1_555 1_555
H6 C10 1_555 1_555
C12 H7 1_555 1_555
C13 C10 1_555 1_555
C14 C5 1_555 1_555
C15 C14 1_555 1_555
H8 C15 1_555 1_555
H9 C15 1_555 1_555
H10 C15 1_555 1_555
C16 C13 1_555 1_555
C19 C9 1_555 1_555
H13 C19 1_555 1_555
C20 C2 1_555 1_555
H14 C20 1_555 1_555
C21 C35 1_555 1_555
C22 C16 1_555 1_555
C23 C19 1_555 1_555
C25 C7 1_555 1_555
C26 C4 1_555 1_555
C28 C20 1_555 1_555
H17 C28 1_555 1_555
C31 C25 1_555 1_555
H18 C31 1_555 1_555
H19 C31 1_555 1_555
H20 C31 1_555 1_555
C32 C5 1_555 1_555
H21 C33 1_555 1_555
C35 C11 1_555 1_555
C36 C32 1_555 1_555
H22 C36 1_555 1_555
H23 C36 1_555 1_555
H24 C36 1_555 1_555
C37 C6 1_555 1_555
H25 C37 1_555 1_555
C38 C21 1_555 1_555
C39 C11 1_555 1_555
H26 C39 1_555 1_555
C40 O5 1_555 1_555
C42 C22 1_555 1_555
H28 C42 1_555 1_555
H29 C42 1_555 1_555
H30 C42 1_555 1_555
C43 C26 1_555 1_555
H31 C43 1_555 1_555
H32 C43 1_555 1_555
H33 C43 1_555 1_555
O13 Cd5 1_555 1_555
O6 C40 1_555 1_555
C6 C40 1_555 1_555
C12 C13 1_555 1_555
C12 C37 1_555 1_555
C14 C35 1_555 1_555
C16 C26 1_555 1_555
C23 C28 1_555 1_555
C30 C33 1_555 1_555
C30 C38 1_555 1_555
C32 C38 1_555 1_555
O13 C34 1_555 1_555
O15 C34 1_555 1_555
O2 C34_2 1_555 1_555
O4 C34_2 1_555 1_555
Cd3 O2 1_555 1_555
Cd6 O4 1_555 1_555
O4 Cd3 1_555 1_555
Cd3 O1_2 1_555 1_555
O1_2 H1_2 1_555 1_555
H2_2 O1_2 1_555 1_555
O5_2 Cd3 1_555 1_555
O6_2 Cd3 1_555 1_555
C2_2 C4_2 1_555 1_555
C3_2 H3_2 1_555 1_555
C4_2 C25_2 1_555 1_555
C5_2 C7_2 1_555 1_555
C6_2 C3_2 1_555 1_555
C7_2 C22_2 1_555 1_555
C9_2 C2_2 1_555 1_555
H5_2 C9_2 1_555 1_555
C10_2 C3_2 1_555 1_555
H6_2 C10_2 1_555 1_555
C12_2 H7_2 1_555 1_555
C13_2 C10_2 1_555 1_555
C14_2 C5_2 1_555 1_555
C15_2 C14_2 1_555 1_555
H8_2 C15_2 1_555 1_555
H9_2 C15_2 1_555 1_555
H10_2 C15_2 1_555 1_555
C16_2 C13_2 1_555 1_555
C19_2 C9_2 1_555 1_555
H13_2 C19_2 1_555 1_555
C20_2 C2_2 1_555 1_555
H14_2 C20_2 1_555 1_555
C21_2 C35_2 1_555 1_555
C22_2 C16_2 1_555 1_555
C23_2 C19_2 1_555 1_555
C25_2 C7_2 1_555 1_555
C26_2 C4_2 1_555 1_555
C28_2 C20_2 1_555 1_555
H17_2 C28_2 1_555 1_555
C31_2 C25_2 1_555 1_555
H18_2 C31_2 1_555 1_555
H19_2 C31_2 1_555 1_555
H20_2 C31_2 1_555 1_555
C32_2 C5_2 1_555 1_555
H21_2 C33_2 1_555 1_555
C35_2 C11_2 1_555 1_555
C36_2 C32_2 1_555 1_555
H22_2 C36_2 1_555 1_555
H23_2 C36_2 1_555 1_555
H24_2 C36_2 1_555 1_555
C37_2 C6_2 1_555 1_555
H25_2 C37_2 1_555 1_555
C38_2 C21_2 1_555 1_555
C39_2 C11_2 1_555 1_555
H26_2 C39_2 1_555 1_555
C40_2 O5_2 1_555 1_555
C42_2 C22_2 1_555 1_555
H28_2 C42_2 1_555 1_555
H29_2 C42_2 1_555 1_555
H30_2 C42_2 1_555 1_555
C43_2 C26_2 1_555 1_555
H31_2 C43_2 1_555 1_555
H32_2 C43_2 1_555 1_555
H33_2 C43_2 1_555 1_555
O16 Cd3 1_555 1_555
O18 Cd3 1_555 1_555
O6_2 C40_2 1_555 1_555
C6_2 C40_2 1_555 1_555
C12_2 C13_2 1_555 1_555
C12_2 C37_2 1_555 1_555
C14_2 C35_2 1_555 1_555
C16_2 C26_2 1_555 1_555
C23_2 C28_2 1_555 1_555
C30_2 C33_2 1_555 1_555
C30_2 C38_2 1_555 1_555
C32_2 C38_2 1_555 1_555
C1_2 C24_2 1_555 1_555
C8_2 H4_2 1_555 1_555
C17_2 C8_2 1_555 1_555
H11_2 C17_2 1_555 1_555
C18_2 H12_2 1_555 1_555
C24_2 C18_2 1_555 1_555
H15_2 C24_2 1_555 1_555
C27_2 C1_2 1_555 1_555
H16_2 C27_2 1_555 1_555
H34_2 C44_2 1_555 1_555
H35_2 C44_2 1_555 1_555
H36_2 C44_2 1_555 1_555
C45_2 C17_2 1_555 1_555
O8 C46_2 1_555 1_555
O18 C46_2 1_555 1_555
C46_2 C45_2 1_555 1_555
Cd6 O8 1_555 1_555
C41_2 C45_2 1_555 1_555
O3_2 C29_2 1_555 1_555
O16 C29_2 1_555 1_555
Cd6 O3_2 1_555 1_555
O11_2 Cd6 1_555 1_555
O10_2 H39_2 1_555 1_555
O10_2 H40_2 1_555 1_555
O12_2 H41_2 1_555 1_555
O12_2 H42_2 1_555 1_555

#END
