
###############################################################################
#
# This file contains modified crystal structure data generated from the
# MOF subset of the Cambridge Structural Database (CSD) v543 
# hosted by the Cambridge Crystallographic Data Centre (CCDC).
#
# This work is licensed under the Creative Commons
# Attribution-NonCommercial-ShareAlike 4.0 International License.
# To view a copy of this license, visit
# http://creativecommons.org/licenses/by-nc-sa/4.0/
# or send a letter to
# Creative Commons, PO Box 1866, Mountain View, CA 94042, USA.
#
# CIF created using the CSD Python API on 29 September 2022
# The structure has been converted into the P1 space group
# The structure has a 3D framework
# The original CSD entry GOJJUN is in the monoclinic crystal system
# The framework has been calculated to contain at least 10.0% void space
# The void calculation uses a probe of radius 1.32A, grid spacing 0.4
#
###############################################################################

data_GOJJUN
_chemical_formula_moiety         '(C92 H76 Co4 N8 O22)n'
_symmetry_cell_setting           triclinic
_symmetry_space_group_name_H-M   'P 1'
_symmetry_Int_Tables_number      1
_space_group_name_Hall           'P 1'
loop_
_symmetry_equiv_pos_site_id
_symmetry_equiv_pos_as_xyz
1 x,y,z
_cell_length_a                   13.868(5)
_cell_length_b                   14.824(5)
_cell_length_c                   25.364(5)
_cell_angle_alpha                90
_cell_angle_beta                 92.949(5)
_cell_angle_gamma                90
_cell_volume                     5207.41
loop_
_atom_site_label
_atom_site_type_symbol
_atom_site_fract_x
_atom_site_fract_y
_atom_site_fract_z
O1 O 0.43967(15) 0.49467(16) 0.14794(10)
O2 O 0.50016(13) 0.37780(14) 0.19061(9)
C4 C 0.32943(19) 0.38484(19) 0.17844(12)
C5 C 0.1609(2) 0.3808(2) 0.15271(12)
H3 H 0.110285 0.398744 0.129605
C6 C 0.14232(18) 0.32301(18) 0.19393(11)
C7 C 0.04179(18) 0.29628(18) 0.20443(11)
C9 C 0.4284(2) 0.4211(2) 0.17121(12)
C11 C 0.01961(19) 0.21495(18) 0.22865(11)
H6 H 0.069024 0.174586 0.237776
C12 C 0.2527(2) 0.4125(2) 0.14514(13)
H7 H 0.263141 0.452362 0.117699
C13 C 0.22073(19) 0.29405(19) 0.22641(12)
H8 H 0.210672 0.253876 0.253745
C15 C 0.31222(19) 0.3241(2) 0.21844(12)
H10 H 0.363576 0.303501 0.240206
Co3 Co 0.60558(2) 0.46744(2) 0.17281(2)
O3 O 0.71236(14) 0.38854(15) 0.20208(8)
C1 C 0.87146(18) 0.33269(18) 0.19991(11)
N1 N 0.61910(17) 0.45387(15) 0.09220(10)
O4 O 0.9335(2) 0.03327(15) 0.24488(10)
C2 C 0.9258(2) 0.19307(18) 0.23937(11)
N2 N 0.5605(2) 0.20468(16) 0.00763(11)
H2 H 0.547523 0.208729 0.041551
C3 C 0.9078(2) 0.1042(2) 0.26624(12)
C8 C 0.85111(18) 0.25255(19) 0.22530(11)
H4 H 0.787927 0.238621 0.232891
C10 C 0.96599(18) 0.35460(18) 0.19020(10)
H5 H 0.979124 0.409116 0.173903
O5 O 0.81249(17) 0.46013(17) 0.15194(13)
C14 C 0.6294(2) 0.37165(18) 0.07149(12)
H9 H 0.633182 0.322377 0.094197
C16 C 0.79375(19) 0.39887(19) 0.18305(12)
H11 H 0.631808 0.085592 0.013087
H14 H 0.703134 0.234303 0.015465
C19 C 0.6346(2) 0.35641(19) 0.01786(12)
C20 C 0.6148(3) 0.52403(19) 0.05926(14)
H15 H 0.607776 0.581500 0.073258
C22 C 0.6202(3) 0.5153(2) 0.00576(15)
C23 C 0.4903(3) 0.04920(19) 0.00634(16)
H19 H 0.477868 0.054939 0.043476
O6 O 0.87077(18) 0.10270(15) 0.31021(10)
O17 O 0.5665(2) 0.53327(15) 0.25512(10)
O19 O 0.62923(18) 0.60270(15) 0.18979(10)
H1 H 0.509842 0.226156 0.988650
C17 C 0.5744(3) 0.1079(2) 0.99391(14)
H12 H 0.584998 0.103340 0.956504
C18 C 0.6464(3) 0.2612(2) 0.99794(14)
H13 H 0.656208 0.262761 0.960360
C21 C 0.6286(3) 0.4294(2) 0.98441(13)
H16 H 0.630136 0.421454 0.948092
H17 H 0.618307 0.565861 0.984062
H18 H 0.433163 0.069347 0.985988
Co6 Co 0.10558(2) 0.03256(2) 0.67281(2)
H20 H 0.490158 0.773844 0.011350
C25 C 0.4256(3) 0.8921(2) 0.00609(14)
H24 H 0.415002 0.896660 0.043496
C26 C 0.3536(3) 0.7388(2) 0.00206(14)
H25 H 0.343792 0.737239 0.039640
C29 C 0.3714(3) 0.5706(2) 0.01559(13)
H28 H 0.369864 0.578546 0.051908
H29 H 0.381693 0.434139 0.015938
H30 H 0.566837 0.930653 0.014012
Co4 Co 0.89442(2) 0.96744(2) 0.32719(2)
N3 N 0.38090(17) 0.54613(15) 0.90780(10)
N4 N 0.4395(2) 0.79532(16) 0.99237(11)
H21 H 0.452477 0.791271 0.958449
C24 C 0.3706(2) 0.62835(18) 0.92851(12)
H22 H 0.366818 0.677623 0.905803
H23 H 0.368192 0.914408 0.986913
H26 H 0.296866 0.765697 0.984535
C27 C 0.3654(2) 0.64359(19) 0.98214(12)
C28 C 0.3852(3) 0.47597(19) 0.94074(14)
H27 H 0.392224 0.418500 0.926742
C30 C 0.3798(3) 0.4847(2) 0.99424(15)
C31 C 0.5097(3) 0.95080(19) 0.99366(16)
H31 H 0.522132 0.945061 0.956524
Co2 Co 0.39442(2) 0.53256(2) 0.82719(2)
O9 O 0.28764(14) 0.61146(15) 0.79792(8)
C32 C 0.12854(18) 0.66731(18) 0.80009(11)
O10 O 0.0665(2) 0.96673(15) 0.75512(10)
C33 C 0.0742(2) 0.80693(18) 0.76063(11)
C34 C 0.0922(2) 0.8958(2) 0.73376(12)
C39 C 0.14889(18) 0.74745(19) 0.77470(11)
H33 H 0.212073 0.761379 0.767109
C41 C 0.03401(18) 0.64540(18) 0.80980(10)
H34 H 0.020876 0.590884 0.826097
O11 O 0.18751(17) 0.53987(17) 0.84806(13)
C46 C 0.20625(19) 0.60113(19) 0.81695(12)
O12 O 0.12923(18) 0.89730(15) 0.68979(10)
O14 O 0.56033(15) 0.50533(16) 0.85206(10)
O16 O 0.49984(13) 0.62220(14) 0.80939(9)
O18 O 0.4335(2) 0.46673(15) 0.74488(10)
O20 O 0.37077(18) 0.39730(15) 0.81021(10)
C35 C 0.67057(19) 0.61516(19) 0.82156(12)
C36 C 0.8391(2) 0.6192(2) 0.84729(12)
H32 H 0.889715 0.601256 0.870395
C37 C 0.85768(18) 0.67699(18) 0.80607(11)
C38 C 0.95821(18) 0.70372(18) 0.79557(11)
C40 C 0.5716(2) 0.5789(2) 0.82879(12)
C42 C 0.98039(19) 0.78505(18) 0.77135(11)
H35 H 0.930976 0.825414 0.762224
C43 C 0.7473(2) 0.5875(2) 0.85486(13)
H36 H 0.736859 0.547638 0.882301
C44 C 0.77927(19) 0.70595(19) 0.77359(12)
H37 H 0.789328 0.746124 0.746255
C45 C 0.68778(19) 0.6759(2) 0.78156(12)
H38 H 0.636424 0.696499 0.759794
O8 O 0.00016(13) 0.12220(14) 0.69061(9)
C23_2 C 0.0097(3) 0.54920(19) 0.49366(16)
H18_2 H 0.066837 0.569347 0.514012
H19_2 H 0.022132 0.554939 0.456524
N3_2 N 0.11910(17) 0.04613(15) 0.59220(10)
N4_2 N 0.0605(2) 0.29532(16) 0.50763(11)
H20_2 H 0.009842 0.273844 0.488650
H21_2 H 0.047523 0.291271 0.541551
C24_2 C 0.1294(2) 0.12835(18) 0.57149(12)
H22_2 H 0.133182 0.177623 0.594197
C25_2 C 0.0744(3) 0.3921(2) 0.49391(14)
H23_2 H 0.131808 0.414408 0.513087
H24_2 H 0.084998 0.396660 0.456504
C26_2 C 0.1464(3) 0.2388(2) 0.49794(14)
H25_2 H 0.156208 0.237239 0.460360
H26_2 H 0.203134 0.265697 0.515465
C27_2 C 0.1346(2) 0.14359(19) 0.51786(12)
C29_2 C 0.1286(3) 0.0706(2) 0.48441(13)
H28_2 H 0.130136 0.078546 0.448092
O7 O 0.93967(15) 0.00533(16) 0.64794(10)
O9_2 O 0.21236(14) 0.11146(15) 0.70208(8)
C32_2 C 0.37146(18) 0.16731(18) 0.69991(11)
C33_2 C 0.4258(2) 0.30693(18) 0.73937(11)
C34_2 C 0.4078(2) 0.3958(2) 0.76624(12)
C35_2 C 0.82943(19) 0.11516(19) 0.67844(12)
C36_2 C 0.6609(2) 0.1192(2) 0.65271(12)
H32_2 H 0.610285 0.101256 0.629605
C37_2 C 0.64232(18) 0.17699(18) 0.69393(11)
C38_2 C 0.54179(18) 0.20372(18) 0.70443(11)
C39_2 C 0.35111(18) 0.24745(19) 0.72530(11)
H33_2 H 0.287927 0.261379 0.732891
C40_2 C 0.9284(2) 0.0789(2) 0.67121(12)
C41_2 C 0.46599(18) 0.14540(18) 0.69020(10)
H34_2 H 0.479124 0.090884 0.673903
O11_2 O 0.31249(17) 0.03987(17) 0.65194(13)
C42_2 C 0.51961(19) 0.28505(18) 0.72865(11)
H35_2 H 0.569024 0.325414 0.737776
C43_2 C 0.7527(2) 0.0875(2) 0.64514(13)
H36_2 H 0.763141 0.047638 0.617699
C44_2 C 0.72073(19) 0.20595(19) 0.72641(12)
H37_2 H 0.710672 0.246124 0.753745
C45_2 C 0.81222(19) 0.1759(2) 0.71844(12)
H38_2 H 0.863576 0.196499 0.740206
C46_2 C 0.29375(19) 0.10113(19) 0.68305(12)
O13 O 0.06033(15) 0.99467(16) 0.35206(10)
C28_2 C 0.1148(3) 0.97597(19) 0.55926(14)
H27_2 H 0.107776 0.918500 0.573258
C30_2 C 0.1202(3) 0.9847(2) 0.50576(15)
H29_2 H 0.118307 0.934139 0.484062
C20_2 C 0.8852(3) 0.02403(19) 0.44074(14)
H15_2 H 0.892224 0.081500 0.426742
C22_2 C 0.8798(3) 0.0153(2) 0.49424(15)
H17_2 H 0.881693 0.065861 0.515938
O3_2 O 0.78764(14) 0.88854(15) 0.29792(8)
C1_2 C 0.62854(18) 0.83269(18) 0.30009(11)
N1_2 N 0.88090(17) 0.95387(15) 0.40780(10)
C2_2 C 0.5742(2) 0.69307(18) 0.26063(11)
N2_2 N 0.9395(2) 0.70468(16) 0.49237(11)
H1_2 H 0.990158 0.726156 0.511350
H2_2 H 0.952477 0.708729 0.458449
C3_2 C 0.5922(2) 0.6042(2) 0.23376(12)
C4_2 C 0.17057(19) 0.88484(19) 0.32156(12)
C5_2 C 0.3391(2) 0.8808(2) 0.34729(12)
H3_2 H 0.389715 0.898744 0.370395
C6_2 C 0.35768(18) 0.82301(18) 0.30607(11)
C7_2 C 0.45821(18) 0.79628(18) 0.29557(11)
C8_2 C 0.64889(18) 0.75255(19) 0.27470(11)
H4_2 H 0.712073 0.738621 0.267109
C9_2 C 0.0716(2) 0.9211(2) 0.32879(12)
C10_2 C 0.53401(18) 0.85460(18) 0.30980(10)
H5_2 H 0.520876 0.909116 0.326097
O5_2 O 0.68751(17) 0.96013(17) 0.34806(13)
C11_2 C 0.48039(19) 0.71495(18) 0.27135(11)
H6_2 H 0.430976 0.674586 0.262224
C12_2 C 0.2473(2) 0.9125(2) 0.35486(13)
H7_2 H 0.236859 0.952362 0.382301
C13_2 C 0.27927(19) 0.79405(19) 0.27359(12)
H8_2 H 0.289328 0.753876 0.246255
C14_2 C 0.8706(2) 0.87165(18) 0.42851(12)
H9_2 H 0.866818 0.822377 0.405803
C15_2 C 0.18778(19) 0.8241(2) 0.28156(12)
H10_2 H 0.136424 0.803501 0.259794
C16_2 C 0.70625(19) 0.89887(19) 0.31695(12)
C17_2 C 0.9256(3) 0.6079(2) 0.50609(14)
H11_2 H 0.868192 0.585592 0.486913
H12_2 H 0.915002 0.603340 0.543496
C18_2 C 0.8536(3) 0.7612(2) 0.50206(14)
H13_2 H 0.843792 0.762761 0.539640
H14_2 H 0.796866 0.734303 0.484535
C19_2 C 0.8654(2) 0.85641(19) 0.48214(12)
C21_2 C 0.8714(3) 0.9294(2) 0.51559(13)
H16_2 H 0.869864 0.921454 0.551908
C31_2 C 0.9903(3) 0.45080(19) 0.50634(16)
H30_2 H 0.933163 0.430653 0.485988
H31_2 H 0.977868 0.445061 0.543476
O15 O 0.99984(13) 0.87780(14) 0.30939(9)
loop_
_geom_bond_atom_site_label_1
_geom_bond_atom_site_label_2
_geom_bond_site_symmetry_1
_geom_bond_site_symmetry_2
O1 C9 1_555 1_555
O2 C9 1_555 1_555
C4 C9 1_555 1_555
C5 H3 1_555 1_555
C6 C5 1_555 1_555
C7 C6 1_555 1_555
H6 C11 1_555 1_555
C12 C4 1_555 1_555
H7 C12 1_555 1_555
C13 C6 1_555 1_555
H8 C13 1_555 1_555
C15 C4 1_555 1_555
H10 C15 1_555 1_555
Co3 O1 1_555 1_555
O2 Co3 1_555 1_555
C5 C12 1_555 1_555
C7 C11 1_555 1_555
C13 C15 1_555 1_555
Co3 O3 1_555 1_555
O3 C16 1_555 1_555
C1 C8 1_555 1_555
N1 Co3 1_555 1_555
O4 C3 1_555 1_555
C2 C3 1_555 1_555
H2 N2 1_555 1_555
C3 O6 1_555 1_555
C8 C2 1_555 1_555
H4 C8 1_555 1_555
C10 C1 1_555 1_555
H5 C10 1_555 1_555
O5 C16 1_555 1_555
C14 N1 1_555 1_555
H9 C14 1_555 1_555
C16 C1 1_555 1_555
C19 C14 1_555 1_555
C20 N1 1_555 1_555
H15 C20 1_555 1_555
C22 C20 1_555 1_555
H19 C23 1_555 1_555
O17 Co3 1_555 1_555
O19 Co3 1_555 1_555
H12 C17 1_555 1_555
H13 C18 1_555 1_555
H16 C21 1_555 1_555
H24 C25 1_555 1_555
H25 C26 1_555 1_555
H28 C29 1_555 1_555
N3 C24 1_555 1_555
H21 N4 1_555 1_555
C24 H22 1_555 1_555
C27 C24 1_555 1_555
C28 N3 1_555 1_555
H27 C28 1_555 1_555
C30 C28 1_555 1_555
H31 C31 1_555 1_555
Co2 N3 1_555 1_555
O9 Co2 1_555 1_555
C32 C39 1_555 1_555
O10 C34 1_555 1_555
C33 C34 1_555 1_555
C34 O12 1_555 1_555
C39 C33 1_555 1_555
H33 C39 1_555 1_555
C41 C32 1_555 1_555
H34 C41 1_555 1_555
O11 C46 1_555 1_555
C46 O9 1_555 1_555
O14 Co2 1_555 1_555
O16 Co2 1_555 1_555
O18 Co2 1_555 1_555
O20 Co2 1_555 1_555
C32 C46 1_555 1_555
O14 C40 1_555 1_555
O16 C40 1_555 1_555
C35 C40 1_555 1_555
C36 H32 1_555 1_555
C37 C36 1_555 1_555
C38 C37 1_555 1_555
H35 C42 1_555 1_555
C43 C35 1_555 1_555
H36 C43 1_555 1_555
C44 C37 1_555 1_555
H37 C44 1_555 1_555
C45 C35 1_555 1_555
H38 C45 1_555 1_555
C36 C43 1_555 1_555
C38 C42 1_555 1_555
C44 C45 1_555 1_555
O8 Co6 1_555 1_555
H18_2 C23_2 1_555 1_555
H19_2 C23_2 1_555 1_555
N3_2 C24_2 1_555 1_555
N4_2 H20_2 1_555 1_555
H21_2 N4_2 1_555 1_555
C24_2 H22_2 1_555 1_555
C25_2 N4_2 1_555 1_555
H23_2 C25_2 1_555 1_555
H24_2 C25_2 1_555 1_555
C26_2 N4_2 1_555 1_555
H25_2 C26_2 1_555 1_555
H26_2 C26_2 1_555 1_555
C27_2 C24_2 1_555 1_555
C29_2 C27_2 1_555 1_555
H28_2 C29_2 1_555 1_555
Co6 N3_2 1_555 1_555
O7 C40_2 1_555 1_555
O9_2 Co6 1_555 1_555
C32_2 C39_2 1_555 1_555
O18 C34_2 1_555 1_555
C33_2 C34_2 1_555 1_555
C34_2 O20 1_555 1_555
C35_2 C40_2 1_555 1_555
C36_2 H32_2 1_555 1_555
C37_2 C36_2 1_555 1_555
C38_2 C37_2 1_555 1_555
C39_2 C33_2 1_555 1_555
H33_2 C39_2 1_555 1_555
C41_2 C32_2 1_555 1_555
H34_2 C41_2 1_555 1_555
O11_2 C46_2 1_555 1_555
C42_2 C33_2 1_555 1_555
H35_2 C42_2 1_555 1_555
C43_2 C35_2 1_555 1_555
H36_2 C43_2 1_555 1_555
C44_2 C37_2 1_555 1_555
H37_2 C44_2 1_555 1_555
C45_2 C35_2 1_555 1_555
H38_2 C45_2 1_555 1_555
C46_2 O9_2 1_555 1_555
C26_2 C27_2 1_555 1_555
C32_2 C46_2 1_555 1_555
C36_2 C43_2 1_555 1_555
C38_2 C41_2 1_555 1_555
C38_2 C42_2 1_555 1_555
C44_2 C45_2 1_555 1_555
H27_2 C28_2 1_555 1_555
C30_2 C28_2 1_555 1_555
H29_2 C30_2 1_555 1_555
H15_2 C20_2 1_555 1_555
C22_2 C20_2 1_555 1_555
H17_2 C22_2 1_555 1_555
Co4 O3_2 1_555 1_555
O13 C9_2 1_555 1_555
O3_2 C16_2 1_555 1_555
C1_2 C8_2 1_555 1_555
N1_2 Co4 1_555 1_555
O17 C3_2 1_555 1_555
C2_2 C3_2 1_555 1_555
N2_2 H1_2 1_555 1_555
H2_2 N2_2 1_555 1_555
C3_2 O19 1_555 1_555
C4_2 C9_2 1_555 1_555
C5_2 H3_2 1_555 1_555
C6_2 C5_2 1_555 1_555
C7_2 C6_2 1_555 1_555
C8_2 C2_2 1_555 1_555
H4_2 C8_2 1_555 1_555
C10_2 C1_2 1_555 1_555
H5_2 C10_2 1_555 1_555
O5_2 C16_2 1_555 1_555
C11_2 C2_2 1_555 1_555
H6_2 C11_2 1_555 1_555
C12_2 C4_2 1_555 1_555
H7_2 C12_2 1_555 1_555
C13_2 C6_2 1_555 1_555
H8_2 C13_2 1_555 1_555
C14_2 N1_2 1_555 1_555
H9_2 C14_2 1_555 1_555
C15_2 C4_2 1_555 1_555
H10_2 C15_2 1_555 1_555
C16_2 C1_2 1_555 1_555
C17_2 N2_2 1_555 1_555
H11_2 C17_2 1_555 1_555
H12_2 C17_2 1_555 1_555
C18_2 N2_2 1_555 1_555
H13_2 C18_2 1_555 1_555
H14_2 C18_2 1_555 1_555
C19_2 C14_2 1_555 1_555
C21_2 C19_2 1_555 1_555
H16_2 C21_2 1_555 1_555
H30_2 C31_2 1_555 1_555
H31_2 C31_2 1_555 1_555
O15 Co4 1_555 1_555
C5_2 C12_2 1_555 1_555
C7_2 C10_2 1_555 1_555
C7_2 C11_2 1_555 1_555
C13_2 C15_2 1_555 1_555
C18_2 C19_2 1_555 1_555

#END
