
###############################################################################
#
# This file contains modified crystal structure data generated from the
# MOF subset of the Cambridge Structural Database (CSD) v543 
# hosted by the Cambridge Crystallographic Data Centre (CCDC).
#
# This work is licensed under the Creative Commons
# Attribution-NonCommercial-ShareAlike 4.0 International License.
# To view a copy of this license, visit
# http://creativecommons.org/licenses/by-nc-sa/4.0/
# or send a letter to
# Creative Commons, PO Box 1866, Mountain View, CA 94042, USA.
#
# CIF created using the CSD Python API on 29 September 2022
# The structure has been converted into the P1 space group
# The structure has a 3D framework
# The original CSD entry GOJJIB is in the orthorhombic crystal system
# The framework has been calculated to contain at least 10.0% void space
# The void calculation uses a probe of radius 1.32A, grid spacing 0.4
#
###############################################################################

data_GOJJIB
_chemical_formula_moiety         '(C136 H120 Co8 N16 O48)n'
_symmetry_cell_setting           triclinic
_symmetry_space_group_name_H-M   'P 1'
_symmetry_Int_Tables_number      1
_space_group_name_Hall           'P 1'
loop_
_symmetry_equiv_pos_site_id
_symmetry_equiv_pos_as_xyz
1 x,y,z
_cell_length_a                   19.034(5)
_cell_length_b                   14.409(5)
_cell_length_c                   27.801(5)
_cell_angle_alpha                90
_cell_angle_beta                 90
_cell_angle_gamma                90
_cell_volume                     7624.73
loop_
_atom_site_label
_atom_site_type_symbol
_atom_site_fract_x
_atom_site_fract_y
_atom_site_fract_z
H17 H 0.012239 0.226519 0.521879
C19 C 0.0048(5) 0.0442(5) 0.5139(3)
H19 H 0.054163 0.061096 0.513807
O7 O 0.1766(3) 0.0711(4) 0.8258(2)
O8 O 0.0722(3) 0.0660(4) 0.7913(2)
C26 C 0.1095(4) 0.3270(5) 0.7251(3)
C27 C 0.2281(4) 0.3220(5) 0.7602(3)
O10 O 0.3284(4) 0.4038(6) 0.7348(3)
O11 O 0.3239(3) 0.3604(4) 0.8110(2)
C28 C 0.1769(4) 0.3613(5) 0.7288(3)
H28 H 0.189483 0.412145 0.710005
O12 O 0.0715(4) 0.4443(4) 0.6709(3)
C29 C 0.2092(4) 0.2414(5) 0.7847(3)
H29 H 0.240832 0.214453 0.805984
C30 C 0.1436(4) 0.2006(5) 0.7777(3)
C31 C 0.1293(4) 0.1078(5) 0.8006(3)
C32 C 0.0929(4) 0.2451(5) 0.7496(3)
H30 H 0.047951 0.220153 0.747091
C33 C 0.0534(4) 0.3802(5) 0.6980(3)
C34 C 0.2988(5) 0.3652(6) 0.7678(3)
Co3 Co 0.41150(5) 0.43697(7) 0.81749(4)
Co1 Co 0.08850(5) 0.56303(7) 0.31749(4)
N1 N 0.0323(3) 0.7923(4) 0.4788(2)
H1 H 0.045529 0.803692 0.448652
O3 O 0.0104(3) 0.6411(4) 0.2931(2)
C4 C 0.0778(4) 0.5454(5) 0.4918(3)
H4 H 0.077509 0.542326 0.525256
H6 H 0.009309 0.965673 0.452977
C6 C 0.0760(4) 0.6313(5) 0.4189(3)
H7 H 0.074035 0.688369 0.403404
C8 C 0.0807(5) 0.4653(5) 0.4646(3)
H9 H 0.082413 0.407578 0.479502
N2 N 0.0794(3) 0.5544(4) 0.3922(2)
C10 C 0.0763(5) 0.7177(6) 0.4987(3)
H10 H 0.060220 0.703297 0.530954
H11 H 0.124364 0.739682 0.501089
C12 C 0.0752(4) 0.6297(5) 0.4688(3)
C13 C 0.0370(5) 0.8783(5) 0.5068(3)
H12 H 0.085893 0.897158 0.508726
H13 H 0.020828 0.866279 0.539326
C17 C 0.0810(4) 0.4719(5) 0.4157(3)
H15 H 0.082270 0.417579 0.397684
Co6 Co 0.08850(5) 0.93697(7) 0.81749(4)
O13 O 0.0722(3) 0.4340(4) 0.2913(2)
O16 O 0.1761(3) 0.6396(4) 0.3110(2)
N3 N 0.9677(3) 0.2077(4) 0.5212(2)
H16 H 0.954471 0.196308 0.551348
C18 C 0.9222(4) 0.4546(5) 0.5082(3)
H18 H 0.922491 0.457674 0.474744
H20 H 0.990691 0.034327 0.547023
C20 C 0.9240(4) 0.3687(5) 0.5811(3)
H21 H 0.925965 0.311631 0.596596
C21 C 0.9193(5) 0.5347(5) 0.5354(3)
H22 H 0.917587 0.592422 0.520498
N4 N 0.9206(3) 0.4456(4) 0.6078(2)
C22 C 0.9237(5) 0.2823(6) 0.5013(3)
H23 H 0.939780 0.296703 0.469046
H24 H 0.875636 0.260318 0.498911
C23 C 0.9248(4) 0.3703(5) 0.5312(3)
C24 C 0.9630(5) 0.1217(5) 0.4932(3)
H25 H 0.914107 0.102842 0.491274
H26 H 0.979172 0.133721 0.460674
C25 C 0.9190(4) 0.5281(5) 0.5843(3)
H27 H 0.917730 0.582421 0.602316
Co2 Co 0.91150(5) 0.43697(7) 0.68251(4)
O9 O 0.9896(3) 0.3589(4) 0.7069(2)
Co4 Co 0.91150(5) 0.06303(7) 0.18251(4)
O14 O 0.9278(3) 0.5660(4) 0.7087(2)
O15 O 0.8239(3) 0.3604(4) 0.6890(2)
O1 O 0.8234(3) 0.9289(4) 0.1742(2)
H2 H 0.987761 0.773481 0.478121
O2 O 0.9278(3) 0.9340(4) 0.2087(2)
C1 C 0.8905(4) 0.6730(5) 0.2749(3)
C2 C 0.7719(4) 0.6780(5) 0.2398(3)
O4 O 0.6716(4) 0.5962(6) 0.2652(3)
O5 O 0.6761(3) 0.6396(4) 0.1890(2)
C3 C 0.8231(4) 0.6387(5) 0.2712(3)
H3 H 0.810517 0.587855 0.289995
O6 O 0.9285(4) 0.5557(4) 0.3291(3)
C5 C 0.9952(5) 0.9558(5) 0.4861(3)
H5 H 0.945837 0.938904 0.486193
C7 C 0.7908(4) 0.7586(5) 0.2153(3)
H8 H 0.759168 0.785547 0.194016
C9 C 0.8564(4) 0.7994(5) 0.2223(3)
C11 C 0.8707(4) 0.8922(5) 0.1994(3)
C14 C 0.9071(4) 0.7549(5) 0.2504(3)
H14 H 0.952049 0.779847 0.252909
C15 C 0.9466(4) 0.6198(5) 0.3020(3)
C16 C 0.7012(5) 0.6348(6) 0.2322(3)
Co5 Co 0.58850(5) 0.56303(7) 0.18251(4)
H4_2 H 0.422491 0.457674 0.025256
H10_2 H 0.439780 0.296703 0.030954
H11_2 H 0.375636 0.260318 0.001089
C13_2 C 0.4630(5) 0.1217(5) 0.0068(3)
H12_2 H 0.414107 0.102842 0.008726
H13_2 H 0.479172 0.133721 0.039326
Co6_2 Co 0.41150(5) 0.06303(7) 0.31749(4)
O1_2 O 0.6766(3) 0.0711(4) 0.6742(2)
N1_2 N 0.4677(3) 0.2077(4) 0.9788(2)
H1_2 H 0.454471 0.196308 0.948652
H2_2 H 0.512239 0.226519 0.978121
O2_2 O 0.5722(3) 0.0660(4) 0.7087(2)
C1_2 C 0.6095(4) 0.3270(5) 0.7749(3)
O3_2 O 0.4896(3) 0.3589(4) 0.7931(2)
C2_2 C 0.7281(4) 0.3220(5) 0.7398(3)
O4_2 O 0.8284(4) 0.4038(6) 0.7652(3)
C3_2 C 0.6769(4) 0.3613(5) 0.7712(3)
H3_2 H 0.689483 0.412145 0.789995
O6_2 O 0.5715(4) 0.4443(4) 0.8291(3)
C4_2 C 0.4222(4) 0.4546(5) 0.9918(3)
C5_2 C 0.5048(5) 0.0442(5) 0.9861(3)
H5_2 H 0.554163 0.061096 0.986193
H6_2 H 0.490691 0.034327 0.952977
C6_2 C 0.4240(4) 0.3687(5) 0.9189(3)
H7_2 H 0.425965 0.311631 0.903404
C7_2 C 0.7092(4) 0.2414(5) 0.7153(3)
H8_2 H 0.740832 0.214453 0.694016
C8_2 C 0.4193(5) 0.5347(5) 0.9646(3)
H9_2 H 0.417587 0.592422 0.979502
C9_2 C 0.6436(4) 0.2006(5) 0.7223(3)
N2_2 N 0.4206(3) 0.4456(4) 0.8922(2)
C10_2 C 0.4237(5) 0.2823(6) 0.9987(3)
C11_2 C 0.6293(4) 0.1078(5) 0.6994(3)
C12_2 C 0.4248(4) 0.3703(5) 0.9688(3)
C14_2 C 0.5929(4) 0.2451(5) 0.7504(3)
H14_2 H 0.547951 0.220153 0.752909
C15_2 C 0.5534(4) 0.3802(5) 0.8020(3)
C16_2 C 0.7988(5) 0.3652(6) 0.7322(3)
C17_2 C 0.4190(4) 0.5281(5) 0.9157(3)
H15_2 H 0.417730 0.582421 0.897684
O13_2 O 0.4278(3) 0.5660(4) 0.7913(2)
N3_2 N 0.5323(3) 0.7923(4) 0.0212(2)
H16_2 H 0.545529 0.803692 0.051348
H17_2 H 0.487761 0.773481 0.021879
C18_2 C 0.5778(4) 0.5454(5) 0.0082(3)
C19_2 C 0.4952(5) 0.9558(5) 0.0139(3)
H19_2 H 0.445837 0.938904 0.013807
H20_2 H 0.509309 0.965673 0.047023
C20_2 C 0.5760(4) 0.6313(5) 0.0811(3)
H21_2 H 0.574035 0.688369 0.096596
C21_2 C 0.5807(5) 0.4653(5) 0.0354(3)
H22_2 H 0.582413 0.407578 0.020498
N4_2 N 0.5794(3) 0.5544(4) 0.1078(2)
C22_2 C 0.5763(5) 0.7177(6) 0.0013(3)
C23_2 C 0.5752(4) 0.6297(5) 0.0312(3)
C25_2 C 0.5810(4) 0.4719(5) 0.0843(3)
H27_2 H 0.582270 0.417579 0.102316
O7_2 O 0.3234(3) 0.9289(4) 0.3258(2)
O8_2 O 0.4278(3) 0.9340(4) 0.2913(2)
C26_2 C 0.3905(4) 0.6730(5) 0.2251(3)
O9_2 O 0.5104(3) 0.6411(4) 0.2069(2)
C27_2 C 0.2719(4) 0.6780(5) 0.2602(3)
O10_2 O 0.1716(4) 0.5962(6) 0.2348(3)
C28_2 C 0.3231(4) 0.6387(5) 0.2288(3)
H28_2 H 0.310517 0.587855 0.210005
O12_2 O 0.4285(4) 0.5557(4) 0.1709(3)
C29_2 C 0.2908(4) 0.7586(5) 0.2847(3)
H29_2 H 0.259168 0.785547 0.305984
C30_2 C 0.3564(4) 0.7994(5) 0.2777(3)
C31_2 C 0.3707(4) 0.8922(5) 0.3006(3)
C32_2 C 0.4071(4) 0.7549(5) 0.2496(3)
H30_2 H 0.452049 0.779847 0.247091
C33_2 C 0.4466(4) 0.6198(5) 0.1980(3)
C34_2 C 0.2012(5) 0.6348(6) 0.2678(3)
O14_2 O 0.5722(3) 0.4340(4) 0.2087(2)
H18_2 H 0.577509 0.542326 0.974744
H23_2 H 0.560220 0.703297 0.969046
H24_2 H 0.624364 0.739682 0.998911
C24_2 C 0.5370(5) 0.8783(5) 0.9932(3)
H25_2 H 0.585893 0.897158 0.991274
H26_2 H 0.520828 0.866279 0.960674
Co4_2 Co 0.58850(5) 0.93697(7) 0.68251(4)
C8_3 C 0.5807(5) 0.0347(5) 0.5354(3)
H9_3 H 0.582413 0.092422 0.520498
C17_3 C 0.5810(4) 0.0281(5) 0.5843(3)
H15_3 H 0.582270 0.082421 0.602316
O1_3 O 0.3234(3) 0.5711(4) 0.8258(2)
N1_3 N 0.5323(3) 0.7077(4) 0.5212(2)
H1_3 H 0.545529 0.696308 0.551348
H2_3 H 0.487761 0.726519 0.521879
C1_3 C 0.3905(4) 0.8270(5) 0.7251(3)
O3_3 O 0.5104(3) 0.8589(4) 0.7069(2)
C2_3 C 0.2719(4) 0.8220(5) 0.7602(3)
O4_3 O 0.1716(4) 0.9038(6) 0.7348(3)
O5_2 O 0.1761(3) 0.8604(4) 0.8110(2)
C3_3 C 0.3231(4) 0.8613(5) 0.7288(3)
H3_3 H 0.310517 0.912145 0.710005
O6_3 O 0.4285(4) 0.9443(4) 0.6709(3)
C4_3 C 0.5778(4) 0.9546(5) 0.5082(3)
H4_3 H 0.577509 0.957674 0.474744
C5_3 C 0.4952(5) 0.5442(5) 0.5139(3)
H5_3 H 0.445837 0.561096 0.513807
H6_3 H 0.509309 0.534327 0.547023
C6_3 C 0.5760(4) 0.8687(5) 0.5811(3)
H7_3 H 0.574035 0.811631 0.596596
C7_3 C 0.2908(4) 0.7414(5) 0.7847(3)
H8_3 H 0.259168 0.714453 0.805984
C9_3 C 0.3564(4) 0.7006(5) 0.7777(3)
N2_3 N 0.5794(3) 0.9456(4) 0.6078(2)
C10_3 C 0.5763(5) 0.7823(6) 0.5013(3)
H10_3 H 0.560220 0.796703 0.469046
H11_3 H 0.624364 0.760318 0.498911
C11_3 C 0.3707(4) 0.6078(5) 0.8006(3)
C12_3 C 0.5752(4) 0.8703(5) 0.5312(3)
C13_3 C 0.5370(5) 0.6217(5) 0.4932(3)
H12_3 H 0.585893 0.602842 0.491274
H13_3 H 0.520828 0.633721 0.460674
C14_3 C 0.4071(4) 0.7451(5) 0.7496(3)
H14_3 H 0.452049 0.720153 0.747091
C15_3 C 0.4466(4) 0.8802(5) 0.6980(3)
C16_3 C 0.2012(5) 0.8652(6) 0.7678(3)
N3_3 N 0.4677(3) 0.2923(4) 0.4788(2)
H16_3 H 0.454471 0.303692 0.448652
H17_3 H 0.512239 0.273481 0.478121
C18_3 C 0.4222(4) 0.0454(5) 0.4918(3)
H18_3 H 0.422491 0.042326 0.525256
C19_3 C 0.5048(5) 0.4558(5) 0.4861(3)
H19_3 H 0.554163 0.438904 0.486193
H20_3 H 0.490691 0.465673 0.452977
C20_3 C 0.4240(4) 0.1313(5) 0.4189(3)
H21_3 H 0.425965 0.188369 0.403404
N4_3 N 0.4206(3) 0.0544(4) 0.3922(2)
C22_3 C 0.4237(5) 0.2177(6) 0.4987(3)
H23_3 H 0.439780 0.203297 0.530954
H24_3 H 0.375636 0.239682 0.501089
C23_3 C 0.4248(4) 0.1297(5) 0.4688(3)
C24_3 C 0.4630(5) 0.3783(5) 0.5068(3)
H25_3 H 0.414107 0.397158 0.508726
H26_3 H 0.479172 0.366279 0.539326
O7_3 O 0.6766(3) 0.4289(4) 0.1742(2)
C26_3 C 0.6095(4) 0.1730(5) 0.2749(3)
O9_3 O 0.4896(3) 0.1411(4) 0.2931(2)
C27_3 C 0.7281(4) 0.1780(5) 0.2398(3)
O10_3 O 0.8284(4) 0.0962(6) 0.2652(3)
O11_2 O 0.8239(3) 0.1396(4) 0.1890(2)
C28_3 C 0.6769(4) 0.1387(5) 0.2712(3)
H28_3 H 0.689483 0.087855 0.289995
O12_3 O 0.5715(4) 0.0557(4) 0.3291(3)
C29_3 C 0.7092(4) 0.2586(5) 0.2153(3)
H29_3 H 0.740832 0.285547 0.194016
C30_3 C 0.6436(4) 0.2994(5) 0.2223(3)
C31_3 C 0.6293(4) 0.3922(5) 0.1994(3)
C32_3 C 0.5929(4) 0.2549(5) 0.2504(3)
H30_3 H 0.547951 0.279847 0.252909
C33_3 C 0.5534(4) 0.1198(5) 0.3020(3)
C34_3 C 0.7988(5) 0.1348(6) 0.2322(3)
O15_2 O 0.3239(3) 0.1396(4) 0.3110(2)
O16_2 O 0.6761(3) 0.8604(4) 0.6890(2)
C21_3 C 0.4193(5) 0.9653(5) 0.4646(3)
H22_3 H 0.417587 0.907578 0.479502
C25_3 C 0.4190(4) 0.9719(5) 0.4157(3)
H27_3 H 0.417730 0.917579 0.397684
C21_4 C 0.0807(5) 0.0347(5) 0.9646(3)
H22_4 H 0.082413 0.092422 0.979502
C25_4 C 0.0810(4) 0.0281(5) 0.9157(3)
H27_4 H 0.082270 0.082421 0.897684
O1_4 O 0.1766(3) 0.4289(4) 0.3258(2)
H2_4 H 0.012239 0.273481 0.021879
C1_4 C 0.1095(4) 0.1730(5) 0.2251(3)
C2_4 C 0.2281(4) 0.1780(5) 0.2602(3)
O4_4 O 0.3284(4) 0.0962(6) 0.2348(3)
C3_4 C 0.1769(4) 0.1387(5) 0.2288(3)
H3_4 H 0.189483 0.087855 0.210005
O6_4 O 0.0715(4) 0.0557(4) 0.1709(3)
C5_4 C 0.0048(5) 0.4558(5) 0.0139(3)
H5_4 H 0.054163 0.438904 0.013807
C7_4 C 0.2092(4) 0.2586(5) 0.2847(3)
H8_4 H 0.240832 0.285547 0.305984
C9_4 C 0.1436(4) 0.2994(5) 0.2777(3)
C11_4 C 0.1293(4) 0.3922(5) 0.3006(3)
C14_4 C 0.0929(4) 0.2549(5) 0.2496(3)
H14_4 H 0.047951 0.279847 0.247091
C15_4 C 0.0534(4) 0.1198(5) 0.1980(3)
C16_4 C 0.2988(5) 0.1348(6) 0.2678(3)
H18_4 H 0.077509 0.957674 0.025256
H23_4 H 0.060220 0.796703 0.030954
H24_4 H 0.124364 0.760318 0.001089
C24_4 C 0.0370(5) 0.6217(5) 0.0068(3)
H25_4 H 0.085893 0.602842 0.008726
H26_4 H 0.020828 0.633721 0.039326
N3_4 N 0.0323(3) 0.7077(4) 0.9788(2)
H16_4 H 0.045529 0.696308 0.948652
C18_4 C 0.0778(4) 0.9546(5) 0.9918(3)
H20_4 H 0.009309 0.534327 0.952977
C20_4 C 0.0760(4) 0.8687(5) 0.9189(3)
H21_4 H 0.074035 0.811631 0.903404
N4_4 N 0.0794(3) 0.9456(4) 0.8922(2)
C22_4 C 0.0763(5) 0.7823(6) 0.9987(3)
C23_4 C 0.0752(4) 0.8703(5) 0.9688(3)
O9_4 O 0.0104(3) 0.8589(4) 0.7931(2)
N1_4 N 0.9677(3) 0.2923(4) 0.0212(2)
H1_4 H 0.954471 0.303692 0.051348
O3_4 O 0.9896(3) 0.1411(4) 0.2069(2)
C4_4 C 0.9222(4) 0.0454(5) 0.0082(3)
H6_4 H 0.990691 0.465673 0.047023
C6_4 C 0.9240(4) 0.1313(5) 0.0811(3)
H7_4 H 0.925965 0.188369 0.096596
N2_4 N 0.9206(3) 0.0544(4) 0.1078(2)
C10_4 C 0.9237(5) 0.2177(6) 0.0013(3)
C12_4 C 0.9248(4) 0.1297(5) 0.0312(3)
H4_4 H 0.922491 0.042326 0.974744
H10_4 H 0.939780 0.203297 0.969046
H11_4 H 0.875636 0.239682 0.998911
C13_4 C 0.9630(5) 0.3783(5) 0.9932(3)
H12_4 H 0.914107 0.397158 0.991274
H13_4 H 0.979172 0.366279 0.960674
H17_4 H 0.987761 0.726519 0.978121
C19_4 C 0.9952(5) 0.5442(5) 0.9861(3)
H19_4 H 0.945837 0.561096 0.986193
O7_4 O 0.8234(3) 0.5711(4) 0.6742(2)
C26_4 C 0.8905(4) 0.8270(5) 0.7749(3)
C27_4 C 0.7719(4) 0.8220(5) 0.7398(3)
O10_4 O 0.6716(4) 0.9038(6) 0.7652(3)
C28_4 C 0.8231(4) 0.8613(5) 0.7712(3)
H28_4 H 0.810517 0.912145 0.789995
O12_4 O 0.9285(4) 0.9443(4) 0.8291(3)
C29_4 C 0.7908(4) 0.7414(5) 0.7153(3)
H29_4 H 0.759168 0.714453 0.694016
C30_4 C 0.8564(4) 0.7006(5) 0.7223(3)
C31_4 C 0.8707(4) 0.6078(5) 0.6994(3)
C32_4 C 0.9071(4) 0.7451(5) 0.7504(3)
H30_4 H 0.952049 0.720153 0.752909
C33_4 C 0.9466(4) 0.8802(5) 0.8020(3)
C34_4 C 0.7012(5) 0.8652(6) 0.7322(3)
C8_4 C 0.9193(5) 0.9653(5) 0.0354(3)
H9_4 H 0.917587 0.907578 0.020498
C17_4 C 0.9190(4) 0.9719(5) 0.0843(3)
H15_4 H 0.917730 0.917579 0.102316
loop_
_geom_bond_atom_site_label_1
_geom_bond_atom_site_label_2
_geom_bond_site_symmetry_1
_geom_bond_site_symmetry_2
H19 C19 1_555 1_555
O7 C31 1_555 1_555
O8 C31 1_555 1_555
C26 C28 1_555 1_555
C27 C28 1_555 1_555
O10 C34 1_555 1_555
O11 C34 1_555 1_555
C28 H28 1_555 1_555
O12 C33 1_555 1_555
C29 C27 1_555 1_555
H29 C29 1_555 1_555
C30 C29 1_555 1_555
C31 C30 1_555 1_555
C32 C26 1_555 1_555
H30 C32 1_555 1_555
C33 C26 1_555 1_555
C34 C27 1_555 1_555
Co3 O11 1_555 1_555
C30 C32 1_555 1_555
Co1 O3 1_555 1_555
N1 H1 1_555 1_555
C4 H4 1_555 1_555
C6 H7 1_555 1_555
C8 C4 1_555 1_555
H9 C8 1_555 1_555
N2 Co1 1_555 1_555
C10 N1 1_555 1_555
H10 C10 1_555 1_555
H11 C10 1_555 1_555
C12 C4 1_555 1_555
C13 N1 1_555 1_555
H12 C13 1_555 1_555
H13 C13 1_555 1_555
C17 C8 1_555 1_555
H15 C17 1_555 1_555
O13 Co1 1_555 1_555
O16 Co1 1_555 1_555
C6 N2 1_555 1_555
C6 C12 1_555 1_555
N2 C17 1_555 1_555
C10 C12 1_555 1_555
N3 H16 1_555 1_555
C18 H18 1_555 1_555
C20 H21 1_555 1_555
C21 C18 1_555 1_555
H22 C21 1_555 1_555
N4 C20 1_555 1_555
C22 N3 1_555 1_555
H23 C22 1_555 1_555
H24 C22 1_555 1_555
C23 C18 1_555 1_555
C24 N3 1_555 1_555
H25 C24 1_555 1_555
H26 C24 1_555 1_555
C25 C21 1_555 1_555
H27 C25 1_555 1_555
Co2 N4 1_555 1_555
O9 Co2 1_555 1_555
O14 Co2 1_555 1_555
O15 Co2 1_555 1_555
C20 C23 1_555 1_555
N4 C25 1_555 1_555
C22 C23 1_555 1_555
O1 C11 1_555 1_555
O2 C11 1_555 1_555
C1 C3 1_555 1_555
C2 C3 1_555 1_555
O4 C16 1_555 1_555
O5 C16 1_555 1_555
C3 H3 1_555 1_555
O6 C15 1_555 1_555
C5 H5 1_555 1_555
C7 C2 1_555 1_555
H8 C7 1_555 1_555
C9 C7 1_555 1_555
C11 C9 1_555 1_555
C14 C1 1_555 1_555
H14 C14 1_555 1_555
C15 C1 1_555 1_555
C16 C2 1_555 1_555
Co5 O5 1_555 1_555
C9 C14 1_555 1_555
H12_2 C13_2 1_555 1_555
H13_2 C13_2 1_555 1_555
Co3 O3_2 1_555 1_555
O1_2 C11_2 1_555 1_555
N1_2 H1_2 1_555 1_555
H2_2 N1_2 1_555 1_555
O2_2 C11_2 1_555 1_555
C1_2 C3_2 1_555 1_555
O3_2 C15_2 1_555 1_555
C2_2 C3_2 1_555 1_555
O4_2 C16_2 1_555 1_555
O15 C16_2 1_555 1_555
C3_2 H3_2 1_555 1_555
O6_2 C15_2 1_555 1_555
C5_2 H5_2 1_555 1_555
H6_2 C5_2 1_555 1_555
C6_2 H7_2 1_555 1_555
C7_2 C2_2 1_555 1_555
H8_2 C7_2 1_555 1_555
C8_2 C4_2 1_555 1_555
H9_2 C8_2 1_555 1_555
C9_2 C7_2 1_555 1_555
N2_2 Co3 1_555 1_555
C10_2 N1_2 1_555 1_555
C11_2 C9_2 1_555 1_555
C12_2 C4_2 1_555 1_555
C14_2 C1_2 1_555 1_555
H14_2 C14_2 1_555 1_555
C15_2 C1_2 1_555 1_555
C16_2 C2_2 1_555 1_555
C17_2 C8_2 1_555 1_555
H15_2 C17_2 1_555 1_555
O13_2 Co3 1_555 1_555
C6_2 N2_2 1_555 1_555
C6_2 C12_2 1_555 1_555
C9_2 C14_2 1_555 1_555
N2_2 C17_2 1_555 1_555
C10_2 C12_2 1_555 1_555
N3_2 H16_2 1_555 1_555
H17_2 N3_2 1_555 1_555
H19_2 C19_2 1_555 1_555
H20_2 C19_2 1_555 1_555
C20_2 H21_2 1_555 1_555
C21_2 C18_2 1_555 1_555
H22_2 C21_2 1_555 1_555
N4_2 C20_2 1_555 1_555
C22_2 N3_2 1_555 1_555
C23_2 C18_2 1_555 1_555
C25_2 C21_2 1_555 1_555
H27_2 C25_2 1_555 1_555
Co5 N4_2 1_555 1_555
O7_2 C31_2 1_555 1_555
O8_2 C31_2 1_555 1_555
C26_2 C28_2 1_555 1_555
O9_2 Co5 1_555 1_555
C27_2 C28_2 1_555 1_555
O10_2 C34_2 1_555 1_555
O16 C34_2 1_555 1_555
C28_2 H28_2 1_555 1_555
O12_2 C33_2 1_555 1_555
C29_2 C27_2 1_555 1_555
H29_2 C29_2 1_555 1_555
C30_2 C29_2 1_555 1_555
C31_2 C30_2 1_555 1_555
C32_2 C26_2 1_555 1_555
H30_2 C32_2 1_555 1_555
C33_2 C26_2 1_555 1_555
C34_2 C27_2 1_555 1_555
O14_2 Co5 1_555 1_555
C20_2 C23_2 1_555 1_555
N4_2 C25_2 1_555 1_555
C22_2 C23_2 1_555 1_555
O9_2 C33_2 1_555 1_555
C30_2 C32_2 1_555 1_555
H25_2 C24_2 1_555 1_555
H26_2 C24_2 1_555 1_555
H9_3 C8_3 1_555 1_555
C17_3 C8_3 1_555 1_555
H15_3 C17_3 1_555 1_555
Co4_2 O3_3 1_555 1_555
O1_3 C11_3 1_555 1_555
N1_3 H1_3 1_555 1_555
H2_3 N1_3 1_555 1_555
O13_2 C11_3 1_555 1_555
C1_3 C3_3 1_555 1_555
O3_3 C15_3 1_555 1_555
C2_3 C3_3 1_555 1_555
O4_3 C16_3 1_555 1_555
O5_2 C16_3 1_555 1_555
C3_3 H3_3 1_555 1_555
O6_3 C15_3 1_555 1_555
C4_3 H4_3 1_555 1_555
C5_3 H5_3 1_555 1_555
H6_3 C5_3 1_555 1_555
C6_3 H7_3 1_555 1_555
C7_3 C2_3 1_555 1_555
H8_3 C7_3 1_555 1_555
C9_3 C7_3 1_555 1_555
N2_3 Co4_2 1_555 1_555
C10_3 N1_3 1_555 1_555
H10_3 C10_3 1_555 1_555
H11_3 C10_3 1_555 1_555
C11_3 C9_3 1_555 1_555
C12_3 C4_3 1_555 1_555
C13_3 N1_3 1_555 1_555
H12_3 C13_3 1_555 1_555
H13_3 C13_3 1_555 1_555
C14_3 C1_3 1_555 1_555
H14_3 C14_3 1_555 1_555
C15_3 C1_3 1_555 1_555
C16_3 C2_3 1_555 1_555
N3_3 H16_3 1_555 1_555
H17_3 N3_3 1_555 1_555
C18_3 H18_3 1_555 1_555
C19_3 C5_3 1_555 1_555
H19_3 C19_3 1_555 1_555
H20_3 C19_3 1_555 1_555
C20_3 H21_3 1_555 1_555
N4_3 C20_3 1_555 1_555
C22_3 N3_3 1_555 1_555
H23_3 C22_3 1_555 1_555
H24_3 C22_3 1_555 1_555
C23_3 C18_3 1_555 1_555
C24_3 N3_3 1_555 1_555
H25_3 C24_3 1_555 1_555
H26_3 C24_3 1_555 1_555
Co6_2 N4_3 1_555 1_555
O7_3 C31_3 1_555 1_555
O14_2 C31_3 1_555 1_555
C26_3 C28_3 1_555 1_555
O9_3 Co6_2 1_555 1_555
C27_3 C28_3 1_555 1_555
O10_3 C34_3 1_555 1_555
O11_2 C34_3 1_555 1_555
C28_3 H28_3 1_555 1_555
O12_3 C33_3 1_555 1_555
C29_3 C27_3 1_555 1_555
H29_3 C29_3 1_555 1_555
C30_3 C29_3 1_555 1_555
C31_3 C30_3 1_555 1_555
C32_3 C26_3 1_555 1_555
H30_3 C32_3 1_555 1_555
C33_3 C26_3 1_555 1_555
C34_3 C27_3 1_555 1_555
Co4 O11_2 1_555 1_555
Co6 O5_2 1_555 1_555
O15_2 Co6_2 1_555 1_555
O16_2 Co4_2 1_555 1_555
C5_3 C13_3 1_555 1_555
C6_3 N2_3 1_555 1_555
C6_3 C12_3 1_555 1_555
C9_3 C14_3 1_555 1_555
C10_3 C12_3 1_555 1_555
C19_3 C24_3 1_555 1_555
C20_3 C23_3 1_555 1_555
C22_3 C23_3 1_555 1_555
O9_3 C33_3 1_555 1_555
C30_3 C32_3 1_555 1_555
H22_3 C21_3 1_555 1_555
C25_3 C21_3 1_555 1_555
H27_3 C25_3 1_555 1_555
H22_4 C21_4 1_555 1_555
C25_4 C21_4 1_555 1_555
H27_4 C25_4 1_555 1_555
O1_4 C11_4 1_555 1_555
O13 C11_4 1_555 1_555
C1_4 C3_4 1_555 1_555
C2_4 C3_4 1_555 1_555
O4_4 C16_4 1_555 1_555
O15_2 C16_4 1_555 1_555
C3_4 H3_4 1_555 1_555
O6_4 C15_4 1_555 1_555
C5_4 H5_4 1_555 1_555
C7_4 C2_4 1_555 1_555
H8_4 C7_4 1_555 1_555
C9_4 C7_4 1_555 1_555
C11_4 C9_4 1_555 1_555
C14_4 C1_4 1_555 1_555
H14_4 C14_4 1_555 1_555
C15_4 C1_4 1_555 1_555
C16_4 C2_4 1_555 1_555
H25_4 C24_4 1_555 1_555
H26_4 C24_4 1_555 1_555
C9_4 C14_4 1_555 1_555
N3_4 H16_4 1_555 1_555
C20_4 H21_4 1_555 1_555
N4_4 C20_4 1_555 1_555
C22_4 N3_4 1_555 1_555
C23_4 C18_4 1_555 1_555
Co6 N4_4 1_555 1_555
O9_4 Co6 1_555 1_555
C20_4 C23_4 1_555 1_555
C22_4 C23_4 1_555 1_555
Co4 O3_4 1_555 1_555
N1_4 H1_4 1_555 1_555
C6_4 H7_4 1_555 1_555
N2_4 Co4 1_555 1_555
C10_4 N1_4 1_555 1_555
C12_4 C4_4 1_555 1_555
C6_4 N2_4 1_555 1_555
C6_4 C12_4 1_555 1_555
C10_4 C12_4 1_555 1_555
H12_4 C13_4 1_555 1_555
H13_4 C13_4 1_555 1_555
H19_4 C19_4 1_555 1_555
O7_4 C31_4 1_555 1_555
O14 C31_4 1_555 1_555
C26_4 C28_4 1_555 1_555
C27_4 C28_4 1_555 1_555
O10_4 C34_4 1_555 1_555
O16_2 C34_4 1_555 1_555
C28_4 H28_4 1_555 1_555
O12_4 C33_4 1_555 1_555
C29_4 C27_4 1_555 1_555
H29_4 C29_4 1_555 1_555
C30_4 C29_4 1_555 1_555
C31_4 C30_4 1_555 1_555
C32_4 C26_4 1_555 1_555
H30_4 C32_4 1_555 1_555
C33_4 C26_4 1_555 1_555
C34_4 C27_4 1_555 1_555
C30_4 C32_4 1_555 1_555
H9_4 C8_4 1_555 1_555
C17_4 C8_4 1_555 1_555
H15_4 C17_4 1_555 1_555

#END
