
###############################################################################
#
# This file contains modified crystal structure data generated from the
# MOF subset of the Cambridge Structural Database (CSD) v543 
# hosted by the Cambridge Crystallographic Data Centre (CCDC).
#
# This work is licensed under the Creative Commons
# Attribution-NonCommercial-ShareAlike 4.0 International License.
# To view a copy of this license, visit
# http://creativecommons.org/licenses/by-nc-sa/4.0/
# or send a letter to
# Creative Commons, PO Box 1866, Mountain View, CA 94042, USA.
#
# CIF created using the CSD Python API on 29 September 2022
# The structure has been converted into the P1 space group
# The structure has a 3D framework
# The original CSD entry GOLQII is in the monoclinic crystal system
# The framework has been calculated to contain at least 10.0% void space
# The void calculation uses a probe of radius 1.32A, grid spacing 0.4
#
###############################################################################

data_GOLQII
_chemical_formula_moiety         '(C56 H32 Ag4 N8 Nd2 O25)n'
_symmetry_cell_setting           triclinic
_symmetry_space_group_name_H-M   'P 1'
_symmetry_Int_Tables_number      1
_space_group_name_Hall           'P 1'
loop_
_symmetry_equiv_pos_site_id
_symmetry_equiv_pos_as_xyz
1 x,y,z
_cell_length_a                   9.74410(10)
_cell_length_b                   22.4015(4)
_cell_length_c                   9.20500(10)
_cell_angle_alpha                90
_cell_angle_beta                 116.9920(10)
_cell_angle_gamma                90
_cell_volume                     1790.42
loop_
_atom_site_label
_atom_site_type_symbol
_atom_site_fract_x
_atom_site_fract_y
_atom_site_fract_z
Nd2 Nd 0.14173(3) 0.008870(12) 0.38289(3)
O12 O 0.1134(4) 0.11362(16) 0.4409(5)
O17 O 0.1169(4) 0.05546(16) 0.1296(4)
O22 O 0.3853(4) 0.06386(16) 0.4497(4)
N3 N 0.6264(5) 0.8839(2) 0.0156(6)
C17 C 0.6065(7) 0.8653(3) 0.1434(7)
H10 H 0.6804 0.8403 0.2194
C18 C 0.4824(7) 0.8813(3) 0.1673(7)
H11 H 0.4745 0.8690 0.2597
C19 C 0.3706(7) 0.9159(3) 0.0515(7)
H12 H 0.2838 0.9264 0.0633
Ag3 Ag 0.82112(6) 0.85263(2) 0.98122(7)
C15 C 0.3858(6) 0.9354(2) 0.9171(6)
O9 O 0.2914(4) 0.99527(16) 0.6779(4)
C16 C 0.5159(6) 0.9191(2) 0.9055(7)
H9 H 0.5286 0.9329 0.8172
O10 O 0.1337(4) 0.97272(19) 0.7871(4)
O13 O 0.0282(5) 0.92752(17) 0.4571(5)
C20 C 0.2600(6) 0.9712(2) 0.7832(6)
O20 O 0.0401(4) 0.94104(15) 0.1370(4)
C21 C 0.0146(6) 0.8216(2) 0.4599(6)
O24 O 0.3584(4) 0.94474(16) 0.4212(4)
C23 C 0.0735(7) 0.7077(3) 0.4062(8)
H14 H 0.0935 0.6687 0.3869
C24 C 0.1580(8) 0.7526(3) 0.3858(9)
H15 H 0.2342 0.7441 0.3545
C25 C 0.1288(7) 0.8105(3) 0.4122(7)
H16 H 0.1844 0.8419 0.3983
Ag1 Ag 0.17888(6) 0.14737(2) 0.01878(7)
C1 C 0.6142(6) 0.0646(2) 0.0829(6)
O1 O 0.7086(4) 0.00473(16) 0.3221(4)
C2 C 0.4841(6) 0.0809(2) 0.0945(7)
H1 H 0.4714 0.0671 0.1828
N2 N 0.0364(5) 0.2168(2) 0.0474(6)
O2 O 0.8663(4) 0.02728(19) 0.2129(4)
C6 C 0.7400(6) 0.0288(2) 0.2168(6)
C8 C 0.0645(6) 0.2733(2) 0.0224(7)
C12 C 0.0257(6) 0.3829(2) 0.0058(6)
O14 O 0.9718(5) 0.07248(17) 0.5429(5)
O19 O 0.9599(4) 0.05896(15) 0.8630(4)
O23 O 0.6416(4) 0.05526(16) 0.5788(4)
C28 C 0.5076(6) 0.0349(2) 0.5090(6)
N1 N 0.3736(5) 0.1161(2) 0.9844(6)
C3 C 0.3935(7) 0.1347(3) 0.8566(7)
H2 H 0.3196 0.1597 0.7806
O3 O 0.1134(4) 0.38638(16) 0.9409(5)
C4 C 0.5176(7) 0.1187(3) 0.8327(7)
H3 H 0.5255 0.1310 0.7403
C5 C 0.6294(7) 0.0841(3) 0.9485(7)
H4 H 0.7162 0.0736 0.9367
H5 H 0.1414 0.2804 0.9913
C13 C 0.0207(6) 0.0329(2) 0.9971(6)
Nd3 Nd 0.14173(3) 0.491130(12) 0.88289(3)
Nd1 Nd 0.85827(3) 0.991130(12) 0.61711(3)
O7 O 0.6147(4) 0.93614(16) 0.5503(4)
C14 C 0.4924(6) 0.9651(2) 0.4910(6)
Ag4 Ag 0.82112(6) 0.64737(2) 0.48122(7)
N5 N 0.9636(5) 0.7168(2) 0.4526(6)
O11 O 0.8866(4) 0.88638(16) 0.5591(5)
O16 O 0.8831(4) 0.94454(16) 0.8704(4)
C22 C 0.9355(6) 0.7733(2) 0.4776(7)
H13 H 0.8586 0.7804 0.5087
C26 C 0.9743(6) 0.8829(2) 0.4942(6)
O4 O 0.9718(5) 0.42752(17) 0.0429(5)
C7 C 0.9854(6) 0.3216(2) 0.0401(6)
C9 C 0.9265(7) 0.2077(3) 0.0938(8)
H6 H 0.9065 0.1687 0.1131
C10 C 0.8420(8) 0.2526(3) 0.1142(9)
H7 H 0.7658 0.2441 0.1455
C11 C 0.8712(7) 0.3105(3) 0.0878(7)
H8 H 0.8156 0.3419 0.1017
Nd4 Nd 0.85827(3) 0.508870(12) 0.11711(3)
C27 C 0.9793(6) 0.9671(2) 0.0029(6)
N6 N 0.9636(5) 0.7832(2) 0.9526(6)
O6 O 0.0401(4) 0.55896(15) 0.6370(4)
Ag2 Ag 0.17888(6) 0.35263(2) 0.51878(7)
N4 N 0.3736(5) 0.3839(2) 0.4844(6)
N6_2 N 0.0364(5) 0.2832(2) 0.5474(6)
O15 O 0.1169(4) 0.44454(16) 0.6296(4)
C27_2 C 0.0207(6) 0.4671(2) 0.4971(6)
C1_2 C 0.3858(6) 0.5646(2) 0.4171(6)
N1_2 N 0.6264(5) 0.6161(2) 0.5156(6)
O1_2 O 0.2914(4) 0.50473(16) 0.1779(4)
C2_2 C 0.5159(6) 0.5809(2) 0.4055(7)
H1_2 H 0.5286 0.5671 0.3172
O2_2 O 0.1337(4) 0.52728(19) 0.2871(4)
C3_2 C 0.6065(7) 0.6347(3) 0.6434(7)
H2_2 H 0.6804 0.6597 0.7194
C4_2 C 0.4824(7) 0.6187(3) 0.6673(7)
H3_2 H 0.4745 0.6310 0.7597
C5_2 C 0.3706(7) 0.5841(3) 0.5515(7)
H4_2 H 0.2838 0.5736 0.5633
O5 O 0.8831(4) 0.55546(16) 0.3704(4)
C6_2 C 0.2600(6) 0.5288(2) 0.2832(6)
O8 O 0.6416(4) 0.44474(16) 0.0788(4)
C13_2 C 0.9793(6) 0.5329(2) 0.5029(6)
C14_2 C 0.5076(6) 0.4651(2) 0.0090(6)
O18 O 0.9599(4) 0.44104(15) 0.3630(4)
O21 O 0.6147(4) 0.56386(16) 0.0503(4)
O7_2 O 0.3853(4) 0.43614(16) 0.9497(4)
O14_2 O 0.0282(5) 0.57248(17) 0.9571(5)
O23_2 O 0.3584(4) 0.55526(16) 0.9212(4)
C28_2 C 0.4924(6) 0.5349(2) 0.9910(6)
O12_2 O 0.8866(4) 0.61362(16) 0.0591(5)
C15_2 C 0.6142(6) 0.4354(2) 0.5829(6)
O9_2 O 0.7086(4) 0.49527(16) 0.8221(4)
C16_2 C 0.4841(6) 0.4191(2) 0.5945(7)
H9_2 H 0.4714 0.4329 0.6828
O10_2 O 0.8663(4) 0.47272(19) 0.7129(4)
C17_2 C 0.3935(7) 0.3653(3) 0.3566(7)
H10_2 H 0.3196 0.3403 0.2806
C18_2 C 0.5176(7) 0.3813(3) 0.3327(7)
H11_2 H 0.5255 0.3690 0.2403
C19_2 C 0.6294(7) 0.4159(3) 0.4485(7)
H12_2 H 0.7162 0.4264 0.4367
C20_2 C 0.7400(6) 0.4712(2) 0.7168(6)
C7_2 C 0.0146(6) 0.6784(2) 0.9599(6)
C9_2 C 0.0735(7) 0.7923(3) 0.9062(8)
H6_2 H 0.0935 0.8313 0.8869
C10_2 C 0.1580(8) 0.7474(3) 0.8858(9)
H7_2 H 0.2342 0.7559 0.8545
C11_2 C 0.1288(7) 0.6895(3) 0.9122(7)
H8_2 H 0.1844 0.6581 0.8983
C22_2 C 0.0645(6) 0.2267(2) 0.5224(7)
H13_2 H 0.1414 0.2196 0.4913
C26_2 C 0.0257(6) 0.1171(2) 0.5058(6)
H5_2 H 0.8586 0.7196 0.0087
C8_2 C 0.9355(6) 0.7267(2) 0.9776(7)
C12_2 C 0.9743(6) 0.6171(2) 0.9942(6)
C21_2 C 0.9854(6) 0.1784(2) 0.5401(6)
C23_2 C 0.9265(7) 0.2923(3) 0.5938(8)
H14_2 H 0.9065 0.3313 0.6131
C24_2 C 0.8420(8) 0.2474(3) 0.6142(9)
H15_2 H 0.7658 0.2559 0.6455
C25_2 C 0.8712(7) 0.1895(3) 0.5878(7)
H16_2 H 0.8156 0.1581 0.6017
loop_
_geom_bond_atom_site_label_1
_geom_bond_atom_site_label_2
_geom_bond_site_symmetry_1
_geom_bond_site_symmetry_2
O12 Nd2 1_555 1_555
O17 Nd2 1_555 1_555
O22 Nd2 1_555 1_555
C17 N3 1_555 1_555
H10 C17 1_555 1_555
C18 C17 1_555 1_555
H11 C18 1_555 1_555
H12 C19 1_555 1_555
C18 C19 1_555 1_555
C15 C16 1_555 1_555
C16 H9 1_555 1_555
C20 C15 1_555 1_555
H14 C23 1_555 1_555
C24 C23 1_555 1_555
H15 C24 1_555 1_555
C25 C21 1_555 1_555
H16 C25 1_555 1_555
O9 C20 1_555 1_555
O10 C20 1_555 1_555
C24 C25 1_555 1_555
C1 C2 1_555 1_555
O1 C6 1_555 1_555
C2 H1 1_555 1_555
N2 Ag1 1_555 1_555
O2 C6 1_555 1_555
O17 Ag1 1_555 1_555
C6 C1 1_555 1_555
C8 N2 1_555 1_555
O22 C28 1_555 1_555
O23 C28 1_555 1_555
C3 N1 1_555 1_555
H2 C3 1_555 1_555
C4 C3 1_555 1_555
H3 C4 1_555 1_555
H4 C5 1_555 1_555
Nd3 O3 1_555 1_555
C4 C5 1_555 1_555
O7 Nd1 1_555 1_555
O24 C14 1_555 1_555
C14 O7 1_555 1_555
Ag4 N5 1_555 1_555
N5 C22 1_555 1_555
O11 Nd1 1_555 1_555
O16 Nd1 1_555 1_555
C22 H13 1_555 1_555
C26 O11 1_555 1_555
H6 C9 1_555 1_555
C10 C9 1_555 1_555
H7 C10 1_555 1_555
C11 C7 1_555 1_555
H8 C11 1_555 1_555
Nd4 O4 1_555 1_555
C10 C11 1_555 1_555
N6 Ag3 1_555 1_555
O16 Ag3 1_555 1_555
Ag2 N4 1_555 1_555
Nd3 O6 1_555 1_555
N6_2 Ag2 1_555 1_555
O15 Ag2 1_555 1_555
Nd3 O15 1_555 1_555
O15 C27_2 1_555 1_555
Ag4 N1_2 1_555 1_555
C1_2 C2_2 1_555 1_555
N1_2 C2_2 1_555 1_555
O1_2 C6_2 1_555 1_555
C2_2 H1_2 1_555 1_555
O2_2 C6_2 1_555 1_555
C3_2 N1_2 1_555 1_555
H2_2 C3_2 1_555 1_555
C4_2 C3_2 1_555 1_555
H3_2 C4_2 1_555 1_555
C5_2 C1_2 1_555 1_555
H4_2 C5_2 1_555 1_555
O5 Ag4 1_555 1_555
C6_2 C1_2 1_555 1_555
O8 C14_2 1_555 1_555
C13_2 O5 1_555 1_555
Nd4 O5 1_555 1_555
O18 Nd4 1_555 1_555
O21 Nd4 1_555 1_555
C4_2 C5_2 1_555 1_555
O8 Nd4 1_555 1_555
O7_2 Nd3 1_555 1_555
O14_2 Nd3 1_555 1_555
O23_2 Nd3 1_555 1_555
O23_2 C28_2 1_555 1_555
O12_2 Nd4 1_555 1_555
C15_2 C16_2 1_555 1_555
N4 C16_2 1_555 1_555
C16_2 H9_2 1_555 1_555
C17_2 N4 1_555 1_555
H10_2 C17_2 1_555 1_555
C18_2 C17_2 1_555 1_555
H11_2 C18_2 1_555 1_555
C19_2 C15_2 1_555 1_555
H12_2 C19_2 1_555 1_555
C20_2 C15_2 1_555 1_555
O9_2 C20_2 1_555 1_555
O10_2 C20_2 1_555 1_555
C18_2 C19_2 1_555 1_555
H6_2 C9_2 1_555 1_555
C10_2 C9_2 1_555 1_555
H7_2 C10_2 1_555 1_555
C11_2 C7_2 1_555 1_555
H8_2 C11_2 1_555 1_555
C10_2 C11_2 1_555 1_555
N6_2 C22_2 1_555 1_555
C22_2 H13_2 1_555 1_555
C26_2 O12 1_555 1_555
C8_2 N6 1_555 1_555
H14_2 C23_2 1_555 1_555
C24_2 C23_2 1_555 1_555
H15_2 C24_2 1_555 1_555
C25_2 C21_2 1_555 1_555
H16_2 C25_2 1_555 1_555
C24_2 C25_2 1_555 1_555

#END
