
###############################################################################
#
# This file contains modified crystal structure data generated from the
# MOF subset of the Cambridge Structural Database (CSD) v543 
# hosted by the Cambridge Crystallographic Data Centre (CCDC).
#
# This work is licensed under the Creative Commons
# Attribution-NonCommercial-ShareAlike 4.0 International License.
# To view a copy of this license, visit
# http://creativecommons.org/licenses/by-nc-sa/4.0/
# or send a letter to
# Creative Commons, PO Box 1866, Mountain View, CA 94042, USA.
#
# CIF created using the CSD Python API on 29 September 2022
# The structure has been converted into the P1 space group
# The structure has a 3D framework
# The original CSD entry GOLYUD is in the triclinic crystal system
# The framework has been calculated to contain at least 10.0% void space
# The void calculation uses a probe of radius 1.32A, grid spacing 0.4
#
###############################################################################

data_GOLYUD
_chemical_formula_moiety         '(C148 H96 Co6 N8 O40 S6)n'
_symmetry_cell_setting           triclinic
_symmetry_space_group_name_H-M   'P 1'
_symmetry_Int_Tables_number      1
_space_group_name_Hall           'P 1'
loop_
_symmetry_equiv_pos_site_id
_symmetry_equiv_pos_as_xyz
1 x,y,z
_cell_length_a                   14.2269(18)
_cell_length_b                   14.7692(11)
_cell_length_c                   21.6912(19)
_cell_angle_alpha                90.391(2)
_cell_angle_beta                 94.357(3)
_cell_angle_gamma                118.233(2)
_cell_volume                     3999.17
loop_
_atom_site_label
_atom_site_type_symbol
_atom_site_fract_x
_atom_site_fract_y
_atom_site_fract_z
C33 C 0.0538(3) 0.0671(3) 0.19653(18)
C54 C 0.3540(3) 0.0494(3) 0.52124(19)
C55 C 0.3264(4) 0.0235(3) 0.4594(2)
C56 C 0.2998(3) 0.0832(3) 0.42165(19)
H36 H 0.2811 0.0651 0.3796
C57 C 0.3004(3) 0.1710(3) 0.44580(17)
C58 C 0.3293(3) 0.1984(3) 0.50947(19)
H37 H 0.3305 0.2572 0.5261
C59 C 0.3558(3) 0.1362(3) 0.54713(19)
H38 H 0.3746 0.1529 0.5893
C60 C 0.2762(3) 0.2412(3) 0.40548(17)
C61 C 0.1998(3) 0.4095(3) 0.14775(16)
C62 C 0.2892(3) 0.5201(3) 0.15386(17)
C63 C 0.2792(3) 0.5936(3) 0.1195(2)
H39 H 0.2182 0.5755 0.0926
C64 C 0.3606(3) 0.6953(3) 0.1250(2)
H40 H 0.3541 0.7457 0.1025
C65 C 0.4529(3) 0.7206(3) 0.16527(19)
C66 C 0.4606(3) 0.6457(3) 0.19953(19)
H41 H 0.5204 0.6636 0.2273
C67 C 0.3813(4) 0.5450(3) 0.19321(19)
H42 H 0.3889 0.4943 0.2148
C68 C 0.6269(3) 0.8424(3) 0.1038(2)
C69 C 0.6057(4) 0.8784(3) 0.0484(2)
H43 H 0.5631 0.9106 0.0465
C72 C 0.7348(4) 0.7843(3) 0.05340(18)
H45 H 0.7794 0.7543 0.0553
C73 C 0.6915(4) 0.7954(3) 0.10663(18)
H46 H 0.7058 0.7715 0.1438
Co1 Co 0.06255(4) 0.22425(4) 0.11240(2)
Co2 Co 0.28625(4) 0.45382(3) 0.39971(2)
Co3 Co 0.22151(4) 0.28000(3) 0.27108(2)
O2 O 0.0281(2) 0.08350(19) 0.14277(11)
O3 O 0.1016(2) 0.13286(19) 0.23867(12)
O8 O 0.1318(2) 0.38367(18) 0.10043(12)
O9 O 0.19646(19) 0.34344(17) 0.18369(10)
O10 O 0.5166(2) 0.9174(2) 0.15612(14)
O11 O 0.6283(2) 0.8594(2) 0.22448(14)
O14 O 0.2527(2) 0.21448(18) 0.34912(12)
O15 O 0.2864(2) 0.32289(19) 0.43019(12)
O17 O 0.4442(2) 0.0258(2) 0.62564(14)
O20 O 0.3297(2) 0.2566(2) 0.22449(12)
H47 H 0.3270 0.1929 0.2361
H48 H 0.3119 0.2538 0.1807
S3 S 0.56020(9) 0.84534(8) 0.16842(5)
N5 N 0.2790(2) 0.5768(2) 0.34756(13)
N7 N 0.3065(3) 0.5257(2) 0.48827(14)
O21 O 0.36534(19) 0.42349(16) 0.30793(10)
O22 O 0.4486(2) 0.5200(2) 0.39190(12)
O23 O 0.1723(2) 0.2254(2) 0.05361(12)
O24 O 0.1256(2) 0.3830(2) 0.39776(13)
O25 O 0.09967(19) 0.29268(16) 0.30906(11)
C70 C 0.6491(4) 0.8656(3) 0.9956(2)
H44 H 0.6355 0.8898 0.9583
C71 C 0.7118(3) 0.8176(3) 0.99803(17)
C74 C 0.7569(3) 0.8022(3) 0.94029(18)
O12 O 0.7126(2) 0.8118(2) 0.89057(12)
O13 O 0.8277(2) 0.7746(2) 0.94639(12)
Co5 Co 0.93745(4) 0.77575(4) 0.88760(2)
H1 H 0.9562 0.0467 0.0104
C5 C 0.9237(4) 0.2480(3) 0.0060(2)
H4 H 0.9403 0.3078 0.0291
N1 N 0.9561(2) 0.1802(2) 0.02961(14)
N6 N 0.9371(3) 0.2266(2) 0.16244(14)
C1 C 0.9327(3) 0.0920(3) 0.99524(17)
C2 C 0.8738(3) 0.0709(3) 0.93793(18)
H2 H 0.8560 0.0099 0.9158
C3 C 0.8404(3) 0.1402(3) 0.91250(18)
C4 C 0.8667(3) 0.2288(3) 0.94837(18)
H3 H 0.8457 0.2760 0.9335
C6 C 0.7795(3) 0.1186(3) 0.84988(17)
C7 C 0.7187(3) 0.0190(3) 0.82642(16)
C9 C 0.6599(3) 0.0758(3) 0.73537(19)
H6 H 0.6214 0.0611 0.6967
C10 C 0.7204(3) 0.1779(3) 0.75804(17)
C11 C 0.7806(3) 0.1983(3) 0.81577(18)
H7 H 0.8216 0.2659 0.8313
C12 C 0.8059(3) 0.4414(3) 0.69421(18)
H8 H 0.8640 0.5073 0.6996
C13 C 0.8064(3) 0.3631(3) 0.72852(18)
H9 H 0.8651 0.3770 0.7564
C14 C 0.7196(3) 0.2625(3) 0.72208(18)
C15 C 0.6337(3) 0.2459(3) 0.67929(18)
H10 H 0.5751 0.1805 0.6737
C16 C 0.6343(3) 0.3254(3) 0.6448(2)
H11 H 0.5763 0.3128 0.6166
N2 N 0.7210(2) 0.4232(2) 0.65244(13)
Co9 Co 0.71375(4) 0.54618(3) 0.60029(2)
C37 C 0.9428(3) 0.7514(3) 0.2422(2)
C38 C 0.9160(3) 0.7756(3) 0.1834(2)
H25 H 0.8743 0.7231 0.1539
C39 C 0.9511(3) 0.8770(3) 0.1690(2)
H26 H 0.9312 0.8924 0.1303
C40 C 0.7616(3) 0.5852(3) 0.2789(2)
C41 C 0.7497(3) 0.6299(3) 0.3323(2)
H27 H 0.8095 0.6806 0.3555
C42 C 0.6461(3) 0.5977(3) 0.3510(2)
H28 H 0.6369 0.6294 0.3855
C43 C 0.5586(3) 0.5186(3) 0.31774(17)
C44 C 0.5717(3) 0.4734(3) 0.26469(19)
H29 H 0.5125 0.4208 0.2422
C45 C 0.6752(3) 0.5078(3) 0.2453(2)
H30 H 0.6846 0.4781 0.2099
C46 C 0.4493(3) 0.4836(3) 0.33953(17)
C47 C 0.9322(3) 0.6906(3) 0.64195(18)
O4 O 0.8854(2) 0.5633(2) 0.20684(14)
O5 O 0.9545(2) 0.6185(2) 0.31543(15)
O18 O 0.8744(2) 0.6170(2) 0.60224(13)
O19 O 0.90033(19) 0.70732(16) 0.69094(11)
S1 S 0.89369(9) 0.62301(8) 0.25979(5)
Co11 Co 0.77849(4) 0.72000(3) 0.72892(2)
H5 H 0.7188 0.9654 0.8487
C8 C 0.6571(3) 0.9969(3) 0.77007(18)
C17 C 0.50353(13) 0.84679(17) 0.72749(11)
C18 C 0.42175(18) 0.84453(17) 0.75976(9)
H12 H 0.4381 0.8883 0.7945
C19 C 0.31553(15) 0.77689(19) 0.74005(10)
C20 C 0.29109(13) 0.71151(17) 0.68808(11)
H13 H 0.2200 0.6663 0.6749
C21 C 0.37287(17) 0.71377(18) 0.65581(9)
C22 C 0.47909(15) 0.78140(19) 0.67552(10)
H14 H 0.5338 0.7829 0.6539
C23 C 0.0514(3) 0.6847(3) 0.80946(18)
C24 C 0.1324(3) 0.6844(3) 0.77783(18)
H16 H 0.1229 0.6237 0.7587
C25 C 0.2283(3) 0.7753(3) 0.77470(17)
C26 C 0.2390(3) 0.8626(3) 0.80358(17)
H17 H 0.3030 0.9234 0.8030
C27 C 0.1561(3) 0.8625(3) 0.83383(18)
H18 H 0.1643 0.9236 0.8516
C28 C 0.4087(3) 0.5823(3) 0.5146(2)
H19 H 0.4643 0.5806 0.4956
C29 C 0.4305(4) 0.6375(3) 0.5643(2)
H20 H 0.5016 0.6739 0.5805
C30 C 0.3468(3) 0.6463(3) 0.59781(18)
C31 C 0.2419(3) 0.5846(3) 0.5694(2)
H21 H 0.1846 0.5844 0.5875
C32 C 0.2212(3) 0.5246(3) 0.5157(2)
H22 H 0.1513 0.4842 0.4984
N3 N 0.0629(3) 0.7734(2) 0.83756(14)
O1 O 0.6137(2) 0.89790(19) 0.74494(12)
H15 H 0.9880 0.6237 0.8117
H15_2 H 0.0120 0.3763 0.1883
H5_2 H 0.2812 0.0346 0.1513
C8_2 C 0.3429(3) 0.0031(3) 0.22993(18)
C17_2 C 0.49647(13) 0.15321(17) 0.27251(11)
C18_2 C 0.57825(18) 0.15547(17) 0.24024(9)
H12_2 H 0.5619 0.1117 0.2055
C19_2 C 0.68447(15) 0.22311(19) 0.25995(10)
C20_2 C 0.70891(13) 0.28849(17) 0.31192(11)
H13_2 H 0.7800 0.3337 0.3251
C21_2 C 0.62713(17) 0.28623(18) 0.34419(9)
C22_2 C 0.52091(15) 0.21860(19) 0.32448(10)
H14_2 H 0.4662 0.2171 0.3461
C23_2 C 0.9486(3) 0.3153(3) 0.19054(18)
C24_2 C 0.8676(3) 0.3156(3) 0.22217(18)
H16_2 H 0.8771 0.3763 0.2413
C25_2 C 0.7717(3) 0.2247(3) 0.22530(17)
C26_2 C 0.7610(3) 0.1374(3) 0.19642(17)
H17_2 H 0.6970 0.0766 0.1970
C27_2 C 0.8439(3) 0.1375(3) 0.16617(18)
H18_2 H 0.8357 0.0764 0.1484
C28_2 C 0.5913(3) 0.4177(3) 0.4854(2)
H19_2 H 0.5357 0.4194 0.5044
C29_2 C 0.5695(4) 0.3625(3) 0.4357(2)
H20_2 H 0.4984 0.3261 0.4195
C30_2 C 0.6532(3) 0.3537(3) 0.40219(18)
C31_2 C 0.7581(3) 0.4154(3) 0.4306(2)
H21_2 H 0.8154 0.4156 0.4125
C32_2 C 0.7788(3) 0.4754(3) 0.4843(2)
H22_2 H 0.8487 0.5158 0.5016
N4 N 0.6935(3) 0.4743(2) 0.51173(14)
O1_2 O 0.3863(2) 0.10210(19) 0.25506(12)
C37_2 C 0.0572(3) 0.2486(3) 0.7578(2)
C38_2 C 0.0840(3) 0.2244(3) 0.8166(2)
H25_2 H 0.1257 0.2769 0.8461
C39_2 C 0.0489(3) 0.1230(3) 0.8310(2)
H26_2 H 0.0688 0.1076 0.8697
C40_2 C 0.2384(3) 0.4148(3) 0.7211(2)
C41_2 C 0.2503(3) 0.3701(3) 0.6677(2)
H27_2 H 0.1905 0.3194 0.6445
C42_2 C 0.3539(3) 0.4023(3) 0.6490(2)
H28_2 H 0.3631 0.3706 0.6145
C43_2 C 0.4414(3) 0.4814(3) 0.68226(17)
C44_2 C 0.4283(3) 0.5266(3) 0.73531(19)
H29_2 H 0.4875 0.5792 0.7578
C45_2 C 0.3248(3) 0.4922(3) 0.7547(2)
H30_2 H 0.3154 0.5219 0.7901
C46_2 C 0.5507(3) 0.5164(3) 0.66047(17)
C47_2 C 0.0678(3) 0.3094(3) 0.35805(18)
O4_2 O 0.1146(2) 0.4367(2) 0.79316(14)
O5_2 O 0.0455(2) 0.3815(2) 0.68457(15)
O6 O 0.63466(19) 0.57651(16) 0.69207(10)
O7 O 0.5514(2) 0.4800(2) 0.60810(12)
S1_2 S 0.10631(9) 0.37699(8) 0.74021(5)
C1_2 C 0.0673(3) 0.9080(3) 0.00476(17)
C2_2 C 0.1262(3) 0.9291(3) 0.06207(18)
H2_2 H 0.1440 0.9901 0.0842
C3_2 C 0.1596(3) 0.8598(3) 0.08750(18)
C4_2 C 0.1333(3) 0.7712(3) 0.05163(18)
H3_2 H 0.1543 0.7240 0.0665
C6_2 C 0.2205(3) 0.8814(3) 0.15012(17)
C7_2 C 0.2813(3) 0.9810(3) 0.17358(16)
C9_2 C 0.3401(3) 0.9242(3) 0.26463(19)
H6_2 H 0.3786 0.9389 0.3033
C10_2 C 0.2796(3) 0.8221(3) 0.24196(17)
C11_2 C 0.2194(3) 0.8017(3) 0.18423(18)
H7_2 H 0.1784 0.7341 0.1687
C12_2 C 0.1941(3) 0.5586(3) 0.30579(18)
H8_2 H 0.1360 0.4927 0.3004
C13_2 C 0.1936(3) 0.6369(3) 0.27148(18)
H9_2 H 0.1349 0.6230 0.2436
C14_2 C 0.2804(3) 0.7375(3) 0.27792(18)
C15_2 C 0.3663(3) 0.7541(3) 0.32071(18)
H10_2 H 0.4249 0.8195 0.3263
C16_2 C 0.3657(3) 0.6746(3) 0.3552(2)
H11_2 H 0.4237 0.6872 0.3834
H1_2 H 0.0438 0.9533 0.9896
C5_2 C 0.0763(4) 0.7520(3) 0.9940(2)
H4_2 H 0.0597 0.6922 0.9709
N1_2 N 0.0439(2) 0.8198(2) 0.97039(14)
C70_2 C 0.3509(4) 0.1344(3) 0.0044(2)
H44_2 H 0.3645 0.1102 0.0417
C71_2 C 0.2882(3) 0.1824(3) 0.00197(17)
C74_2 C 0.2431(3) 0.1978(3) 0.05971(18)
O12_2 O 0.2874(2) 0.1882(2) 0.10943(12)
C33_2 C 0.9462(3) 0.9329(3) 0.80347(18)
C54_2 C 0.6460(3) 0.9506(3) 0.47876(19)
C55_2 C 0.6736(4) 0.9765(3) 0.5406(2)
C56_2 C 0.7002(3) 0.9168(3) 0.57835(19)
H36_2 H 0.7189 0.9349 0.6204
C57_2 C 0.6996(3) 0.8290(3) 0.55420(17)
C58_2 C 0.6707(3) 0.8016(3) 0.49053(19)
H37_2 H 0.6695 0.7428 0.4739
C59_2 C 0.6442(3) 0.8638(3) 0.45287(19)
H38_2 H 0.6254 0.8471 0.4107
C60_2 C 0.7238(3) 0.7588(3) 0.59452(17)
C61_2 C 0.8002(3) 0.5905(3) 0.85225(16)
C62_2 C 0.7108(3) 0.4799(3) 0.84614(17)
C63_2 C 0.7208(3) 0.4064(3) 0.8805(2)
H39_2 H 0.7818 0.4245 0.9074
C64_2 C 0.6394(3) 0.3047(3) 0.8750(2)
H40_2 H 0.6459 0.2543 0.8975
C65_2 C 0.5471(3) 0.2794(3) 0.83473(19)
C66_2 C 0.5394(3) 0.3543(3) 0.80047(19)
H41_2 H 0.4796 0.3364 0.7727
C67_2 C 0.6187(4) 0.4550(3) 0.80679(19)
H42_2 H 0.6111 0.5057 0.7852
C68_2 C 0.3731(3) 0.1576(3) 0.8962(2)
C69_2 C 0.3943(4) 0.1216(3) 0.9516(2)
H43_2 H 0.4369 0.0894 0.9535
C72_2 C 0.2652(4) 0.2157(3) 0.94660(18)
H45_2 H 0.2206 0.2457 0.9447
C73_2 C 0.3085(4) 0.2046(3) 0.89337(18)
H46_2 H 0.2942 0.2285 0.8562
O2_2 O 0.9719(2) 0.91650(19) 0.85723(11)
O3_2 O 0.8984(2) 0.86714(19) 0.76133(12)
O8_2 O 0.8682(2) 0.61633(18) 0.89957(12)
O9_2 O 0.80354(19) 0.65656(17) 0.81631(10)
O10_2 O 0.4834(2) 0.0826(2) 0.84388(14)
O11_2 O 0.3717(2) 0.1406(2) 0.77552(14)
O14_2 O 0.7473(2) 0.78552(18) 0.65088(12)
O15_2 O 0.7136(2) 0.67711(19) 0.56981(12)
O17_2 O 0.5558(2) 0.9742(2) 0.37436(14)
O20_2 O 0.6703(2) 0.7434(2) 0.77551(12)
H47_2 H 0.6730 0.8071 0.7639
H48_2 H 0.6881 0.7462 0.8193
S3_2 S 0.43980(9) 0.15466(8) 0.83158(5)
C34 C 0.0156(3) 0.9557(3) 0.21216(17)
C35 C 0.0435(3) 0.9321(3) 0.2705(2)
H23 H 0.0867 0.9848 0.2997
C36 C 0.0072(3) 0.8310(3) 0.2850(2)
H24 H 0.0262 0.8160 0.3241
C48 C 0.0431(3) 0.7586(3) 0.62717(17)
C49 C 0.0811(3) 0.7316(3) 0.57607(19)
H31 H 0.0370 0.6710 0.5527
C50 C 0.1847(3) 0.7954(3) 0.5601(2)
H32 H 0.2105 0.7777 0.5265
C51 C 0.2485(3) 0.8858(3) 0.5954(2)
C52 C 0.2123(3) 0.9117(3) 0.64694(19)
H33 H 0.2565 0.9716 0.6709
C53 C 0.1102(3) 0.8475(3) 0.66204(19)
H34 H 0.0858 0.8645 0.6966
H35 H 0.3258 0.9649 0.4428
O16 O 0.4075(2) 0.9022(2) 0.53409(14)
S2 S 0.37839(9) 0.96516(8) 0.57102(5)
C34_2 C 0.9844(3) 0.0443(3) 0.78784(17)
C35_2 C 0.9565(3) 0.0679(3) 0.7295(2)
H23_2 H 0.9133 0.0152 0.7003
C36_2 C 0.9928(3) 0.1690(3) 0.7150(2)
H24_2 H 0.9738 0.1840 0.6759
C48_2 C 0.9569(3) 0.2414(3) 0.37283(17)
C49_2 C 0.9189(3) 0.2684(3) 0.42393(19)
H31_2 H 0.9630 0.3290 0.4473
C50_2 C 0.8153(3) 0.2046(3) 0.4399(2)
H32_2 H 0.7895 0.2223 0.4735
C51_2 C 0.7515(3) 0.1142(3) 0.4046(2)
C52_2 C 0.7877(3) 0.0883(3) 0.35306(19)
H33_2 H 0.7435 0.0284 0.3291
C53_2 C 0.8898(3) 0.1525(3) 0.33796(19)
H34_2 H 0.9142 0.1355 0.3034
H35_2 H 0.6742 0.0351 0.5572
O16_2 O 0.5925(2) 0.0978(2) 0.46591(14)
S2_2 S 0.62161(9) 0.03484(8) 0.42898(5)
loop_
_geom_bond_atom_site_label_1
_geom_bond_atom_site_label_2
_geom_bond_site_symmetry_1
_geom_bond_site_symmetry_2
C54 C55 1_555 1_555
C56 C55 1_555 1_555
H36 C56 1_555 1_555
C57 C56 1_555 1_555
C58 C57 1_555 1_555
H37 C58 1_555 1_555
C59 C54 1_555 1_555
H38 C59 1_555 1_555
C60 C57 1_555 1_555
C61 C62 1_555 1_555
C62 C63 1_555 1_555
C63 H39 1_555 1_555
C64 C63 1_555 1_555
H40 C64 1_555 1_555
C65 C64 1_555 1_555
C66 C65 1_555 1_555
H41 C66 1_555 1_555
C67 C62 1_555 1_555
H42 C67 1_555 1_555
C68 C69 1_555 1_555
C69 H43 1_555 1_555
H45 C72 1_555 1_555
C73 C68 1_555 1_555
H46 C73 1_555 1_555
Co2 O15 1_555 1_555
Co3 O3 1_555 1_555
O2 C33 1_555 1_555
O3 C33 1_555 1_555
O8 C61 1_555 1_555
O9 C61 1_555 1_555
O10 S3 1_555 1_555
O11 S3 1_555 1_555
O14 C60 1_555 1_555
O15 C60 1_555 1_555
O20 Co3 1_555 1_555
H47 O20 1_555 1_555
H48 O20 1_555 1_555
S3 C65 1_555 1_555
N5 Co2 1_555 1_555
N7 Co2 1_555 1_555
O21 Co3 1_555 1_555
O22 Co2 1_555 1_555
O23 Co1 1_555 1_555
O24 Co2 1_555 1_555
O25 Co3 1_555 1_555
C58 C59 1_555 1_555
C66 C67 1_555 1_555
C68 S3 1_555 1_555
C72 C73 1_555 1_555
Co1 O2 1_555 1_555
Co1 O8 1_555 1_555
Co1 O9 1_555 1_555
Co3 O9 1_555 1_555
Co3 O14 1_555 1_555
H44 C70 1_555 1_555
C71 C70 1_555 1_555
C74 C71 1_555 1_555
O12 C74 1_555 1_555
O13 C74 1_555 1_555
Co5 O13 1_555 1_555
H4 C5 1_555 1_555
C5 N1 1_555 1_555
C2 C1 1_555 1_555
H2 C2 1_555 1_555
C3 C2 1_555 1_555
C4 C3 1_555 1_555
H3 C4 1_555 1_555
C6 C3 1_555 1_555
C7 C6 1_555 1_555
H6 C9 1_555 1_555
C10 C9 1_555 1_555
C11 C6 1_555 1_555
H7 C11 1_555 1_555
C12 H8 1_555 1_555
C13 C12 1_555 1_555
H9 C13 1_555 1_555
C14 C10 1_555 1_555
C15 C14 1_555 1_555
H10 C15 1_555 1_555
C16 C15 1_555 1_555
H11 C16 1_555 1_555
N2 C12 1_555 1_555
Co9 N2 1_555 1_555
C10 C11 1_555 1_555
C13 C14 1_555 1_555
C16 N2 1_555 1_555
C38 C37 1_555 1_555
H25 C38 1_555 1_555
H26 C39 1_555 1_555
C40 C41 1_555 1_555
C41 H27 1_555 1_555
C42 C41 1_555 1_555
H28 C42 1_555 1_555
C43 C42 1_555 1_555
C44 C43 1_555 1_555
H29 C44 1_555 1_555
C45 C40 1_555 1_555
H30 C45 1_555 1_555
C46 C43 1_555 1_555
O4 S1 1_555 1_555
O5 S1 1_555 1_555
O21 C46 1_555 1_555
O22 C46 1_555 1_555
O18 C47 1_555 1_555
O19 C47 1_555 1_555
S1 C37 1_555 1_555
Co9 O18 1_555 1_555
Co11 O19 1_555 1_555
C38 C39 1_555 1_555
C40 S1 1_555 1_555
C44 C45 1_555 1_555
C17 C18 1_555 1_555
C18 H12 1_555 1_555
C19 C18 1_555 1_555
C20 C19 1_555 1_555
H13 C20 1_555 1_555
C21 C20 1_555 1_555
C22 C17 1_555 1_555
H14 C22 1_555 1_555
C24 C23 1_555 1_555
H16 C24 1_555 1_555
C25 C19 1_555 1_555
C26 C25 1_555 1_555
H17 C26 1_555 1_555
C27 C26 1_555 1_555
H18 C27 1_555 1_555
C28 H19 1_555 1_555
C29 C28 1_555 1_555
H20 C29 1_555 1_555
C30 C21 1_555 1_555
C31 C30 1_555 1_555
H21 C31 1_555 1_555
C32 C31 1_555 1_555
H22 C32 1_555 1_555
N3 C23 1_555 1_555
N7 C28 1_555 1_555
O1 C8 1_555 1_555
C17 O1 1_555 1_555
C21 C22 1_555 1_555
C24 C25 1_555 1_555
C27 N3 1_555 1_555
C29 C30 1_555 1_555
C32 N7 1_555 1_555
C17_2 C18_2 1_555 1_555
C18_2 H12_2 1_555 1_555
C19_2 C18_2 1_555 1_555
C20_2 C19_2 1_555 1_555
H13_2 C20_2 1_555 1_555
C21_2 C20_2 1_555 1_555
C22_2 C17_2 1_555 1_555
H14_2 C22_2 1_555 1_555
C24_2 C23_2 1_555 1_555
H16_2 C24_2 1_555 1_555
C25_2 C19_2 1_555 1_555
C26_2 C25_2 1_555 1_555
H17_2 C26_2 1_555 1_555
C27_2 C26_2 1_555 1_555
H18_2 C27_2 1_555 1_555
C28_2 H19_2 1_555 1_555
C29_2 C28_2 1_555 1_555
H20_2 C29_2 1_555 1_555
C30_2 C21_2 1_555 1_555
C31_2 C30_2 1_555 1_555
H21_2 C31_2 1_555 1_555
C32_2 C31_2 1_555 1_555
H22_2 C32_2 1_555 1_555
N6 C23_2 1_555 1_555
N4 C28_2 1_555 1_555
O1_2 C8_2 1_555 1_555
Co9 N4 1_555 1_555
C17_2 O1_2 1_555 1_555
C21_2 C22_2 1_555 1_555
C24_2 C25_2 1_555 1_555
C27_2 N6 1_555 1_555
C29_2 C30_2 1_555 1_555
C32_2 N4 1_555 1_555
C38_2 C37_2 1_555 1_555
H25_2 C38_2 1_555 1_555
H26_2 C39_2 1_555 1_555
C40_2 C41_2 1_555 1_555
C41_2 H27_2 1_555 1_555
C42_2 C41_2 1_555 1_555
H28_2 C42_2 1_555 1_555
C43_2 C42_2 1_555 1_555
C44_2 C43_2 1_555 1_555
H29_2 C44_2 1_555 1_555
C45_2 C40_2 1_555 1_555
H30_2 C45_2 1_555 1_555
C46_2 C43_2 1_555 1_555
O4_2 S1_2 1_555 1_555
O5_2 S1_2 1_555 1_555
O6 C46_2 1_555 1_555
O7 C46_2 1_555 1_555
O24 C47_2 1_555 1_555
O25 C47_2 1_555 1_555
S1_2 C37_2 1_555 1_555
Co9 O7 1_555 1_555
Co11 O6 1_555 1_555
C38_2 C39_2 1_555 1_555
C40_2 S1_2 1_555 1_555
C44_2 C45_2 1_555 1_555
C2_2 C1_2 1_555 1_555
H2_2 C2_2 1_555 1_555
C3_2 C2_2 1_555 1_555
C4_2 C3_2 1_555 1_555
H3_2 C4_2 1_555 1_555
C6_2 C3_2 1_555 1_555
C7_2 C6_2 1_555 1_555
H6_2 C9_2 1_555 1_555
C10_2 C9_2 1_555 1_555
C11_2 C6_2 1_555 1_555
H7_2 C11_2 1_555 1_555
C12_2 H8_2 1_555 1_555
C13_2 C12_2 1_555 1_555
H9_2 C13_2 1_555 1_555
C14_2 C10_2 1_555 1_555
C15_2 C14_2 1_555 1_555
H10_2 C15_2 1_555 1_555
C16_2 C15_2 1_555 1_555
H11_2 C16_2 1_555 1_555
N5 C12_2 1_555 1_555
C10_2 C11_2 1_555 1_555
C13_2 C14_2 1_555 1_555
C16_2 N5 1_555 1_555
H4_2 C5_2 1_555 1_555
C5_2 N1_2 1_555 1_555
H44_2 C70_2 1_555 1_555
C71_2 C70_2 1_555 1_555
C74_2 C71_2 1_555 1_555
O12_2 C74_2 1_555 1_555
O23 C74_2 1_555 1_555
C54_2 C55_2 1_555 1_555
C56_2 C55_2 1_555 1_555
H36_2 C56_2 1_555 1_555
C57_2 C56_2 1_555 1_555
C58_2 C57_2 1_555 1_555
H37_2 C58_2 1_555 1_555
C59_2 C54_2 1_555 1_555
H38_2 C59_2 1_555 1_555
C60_2 C57_2 1_555 1_555
C61_2 C62_2 1_555 1_555
C62_2 C63_2 1_555 1_555
C63_2 H39_2 1_555 1_555
C64_2 C63_2 1_555 1_555
H40_2 C64_2 1_555 1_555
C65_2 C64_2 1_555 1_555
C66_2 C65_2 1_555 1_555
H41_2 C66_2 1_555 1_555
C67_2 C62_2 1_555 1_555
H42_2 C67_2 1_555 1_555
C68_2 C69_2 1_555 1_555
C69_2 H43_2 1_555 1_555
H45_2 C72_2 1_555 1_555
C73_2 C68_2 1_555 1_555
H46_2 C73_2 1_555 1_555
Co9 O15_2 1_555 1_555
Co11 O3_2 1_555 1_555
O2_2 C33_2 1_555 1_555
O3_2 C33_2 1_555 1_555
O8_2 C61_2 1_555 1_555
O9_2 C61_2 1_555 1_555
O10_2 S3_2 1_555 1_555
O11_2 S3_2 1_555 1_555
O14_2 C60_2 1_555 1_555
O15_2 C60_2 1_555 1_555
O20_2 Co11 1_555 1_555
H47_2 O20_2 1_555 1_555
H48_2 O20_2 1_555 1_555
S3_2 C65_2 1_555 1_555
C58_2 C59_2 1_555 1_555
C66_2 C67_2 1_555 1_555
C68_2 S3_2 1_555 1_555
C72_2 C73_2 1_555 1_555
Co5 O2_2 1_555 1_555
Co5 O8_2 1_555 1_555
Co5 O9_2 1_555 1_555
Co11 O9_2 1_555 1_555
Co11 O14_2 1_555 1_555
C34 C35 1_555 1_555
C35 H23 1_555 1_555
C36 C35 1_555 1_555
H24 C36 1_555 1_555
C48 C49 1_555 1_555
C49 H31 1_555 1_555
C50 C49 1_555 1_555
H32 C50 1_555 1_555
C51 C50 1_555 1_555
C52 C51 1_555 1_555
H33 C52 1_555 1_555
C53 C48 1_555 1_555
H34 C53 1_555 1_555
O16 S2 1_555 1_555
S2 C51 1_555 1_555
C52 C53 1_555 1_555
C34_2 C35_2 1_555 1_555
C35_2 H23_2 1_555 1_555
C36_2 C35_2 1_555 1_555
H24_2 C36_2 1_555 1_555
C48_2 C49_2 1_555 1_555
C49_2 H31_2 1_555 1_555
C50_2 C49_2 1_555 1_555
H32_2 C50_2 1_555 1_555
C51_2 C50_2 1_555 1_555
C52_2 C51_2 1_555 1_555
H33_2 C52_2 1_555 1_555
C53_2 C48_2 1_555 1_555
H34_2 C53_2 1_555 1_555
O16_2 S2_2 1_555 1_555
S2_2 C51_2 1_555 1_555
C52_2 C53_2 1_555 1_555

#END
