
###############################################################################
#
# This file contains modified crystal structure data generated from the
# MOF subset of the Cambridge Structural Database (CSD) v543 
# hosted by the Cambridge Crystallographic Data Centre (CCDC).
#
# This work is licensed under the Creative Commons
# Attribution-NonCommercial-ShareAlike 4.0 International License.
# To view a copy of this license, visit
# http://creativecommons.org/licenses/by-nc-sa/4.0/
# or send a letter to
# Creative Commons, PO Box 1866, Mountain View, CA 94042, USA.
#
# CIF created using the CSD Python API on 29 September 2022
# The structure has been converted into the P1 space group
# The structure has a 3D framework
# The original CSD entry GOPSUC is in the monoclinic crystal system
# The framework has been calculated to contain at least 10.0% void space
# The void calculation uses a probe of radius 1.32A, grid spacing 0.4
#
###############################################################################

data_GOPSUC
_chemical_formula_moiety         '(C92 H84 Gd4 N8 O60 Zn4)n'
_symmetry_cell_setting           triclinic
_symmetry_space_group_name_H-M   'P 1'
_symmetry_Int_Tables_number      1
_space_group_name_Hall           'P 1'
loop_
_symmetry_equiv_pos_site_id
_symmetry_equiv_pos_as_xyz
1 x,y,z
_cell_length_a                   18.0337(8)
_cell_length_b                   12.9920(5)
_cell_length_c                   14.9037(6)
_cell_angle_alpha                90
_cell_angle_beta                 113.3050(10)
_cell_angle_gamma                90
_cell_volume                     3206.95
loop_
_atom_site_label
_atom_site_type_symbol
_atom_site_fract_x
_atom_site_fract_y
_atom_site_fract_z
Gd1 Gd 0.12182(2) 0.02476(2) 0.04789(2)
O6 O 0.04652(14) 0.41019(19) 0.38456(17)
O7 O 0.09008(15) 0.17534(18) 0.12873(18)
O9 O 0.24296(14) 0.05328(18) 0.18741(17)
O10 O 0.36808(15) 0.05092(18) 0.18960(18)
O11 O 0.53483(15) 0.3460(2) 0.31336(19)
O12 O 0.47713(18) 0.4863(2) 0.3440(2)
O13 O 0.18471(16) 0.18410(19) 0.02426(18)
O15 O 0.00911(14) 0.29355(18) 0.21552(16)
O16 O 0.40050(14) 0.23773(18) 0.26338(18)
C12 C 0.0149(2) 0.1698(3) 0.0952(2)
C13 C 0.3096(2) 0.0938(3) 0.2029(3)
C14 C 0.3240(2) 0.2006(3) 0.2388(3)
C15 C 0.2749(2) 0.2756(3) 0.2469(3)
H5 H 0.2191 0.2693 0.2340
C16 C 0.3232(2) 0.3655(3) 0.2784(3)
H6 H 0.3059 0.4312 0.2905
C17 C 0.3992(2) 0.3389(3) 0.2879(3)
C18 C 0.4762(2) 0.3962(3) 0.3177(3)
C20 C 0.1553(4) 0.3932(4) 0.0194(4)
H8 H 0.1445 0.3470 0.0648
H10 H 0.2055 0.4311 0.0545
Gd5 Gd 0.12182(2) 0.47524(2) 0.54789(2)
Zn2 Zn 0.64194(2) 0.40976(3) 0.35850(3)
C19 C 0.1731(3) 0.2336(3) 0.9501(3)
H7 H 0.1711 0.1964 0.8943
H9 H 0.1106 0.4420 0.9916
C21 C 0.1517(4) 0.3876(4) 0.8525(4)
H11 H 0.1961 0.4364 0.8650
H12 H 0.1004 0.4251 0.8300
H13 H 0.1507 0.3384 0.8022
N1 N 0.1633(3) 0.3331(3) 0.9413(2)
O20 O 0.04652(14) 0.08981(19) 0.88456(17)
Zn1 Zn 0.35806(2) 0.90976(3) 0.14150(3)
O1 O 0.31509(15) 0.61292(19) 0.49931(17)
O2 O 0.20519(15) 0.51436(19) 0.46314(17)
O3 O 0.31297(14) 0.81816(19) 0.21227(17)
O4 O 0.18693(14) 0.84965(18) 0.10427(17)
O14 O 0.25520(14) 0.69136(18) 0.31431(17)
C1 C 0.2477(2) 0.5777(3) 0.4413(2)
C2 C 0.2145(2) 0.6144(3) 0.3387(3)
C3 C 0.1444(2) 0.5927(3) 0.2626(3)
H1 H 0.1061 0.5417 0.2607
C4 C 0.1393(2) 0.6614(3) 0.1859(3)
H2 H 0.0967 0.6657 0.1230
C5 C 0.2074(2) 0.7196(3) 0.2207(2)
C6 C 0.2372(2) 0.8035(3) 0.1756(2)
Zn3 Zn 0.35806(2) 0.59024(3) 0.64150(3)
O19 O 0.08362(14) 0.96138(17) 0.17125(16)
O22 O 0.46517(15) 0.8460(2) 0.18664(19)
O17 O 0.31509(15) 0.88708(19) 0.99931(17)
O18 O 0.20519(15) 0.98564(19) 0.96314(17)
O21 O 0.02369(14) 0.89699(17) 0.96853(16)
O5 O 0.91638(14) 0.46138(17) 0.32875(16)
O8 O 0.97631(14) 0.10301(17) 0.03147(16)
C7 C 0.9748(2) 0.4131(3) 0.3227(2)
C8 C 0.9525(2) 0.3543(3) 0.2301(2)
C9 C 0.8796(2) 0.3440(3) 0.1544(2)
H3 H 0.8310 0.3783 0.1469
C10 C 0.8901(2) 0.2724(3) 0.0888(3)
H4 H 0.8499 0.2494 0.0287
C11 C 0.9685(2) 0.2431(3) 0.1285(2)
Gd2 Gd 0.87818(2) 0.52476(2) 0.45211(2)
Gd3 Gd 0.87818(2) 0.97524(2) 0.95211(2)
O8_2 O 0.02369(14) 0.60301(17) 0.46853(16)
C7_2 C 0.0252(2) 0.9131(3) 0.1773(2)
C8_2 C 0.0475(2) 0.8543(3) 0.2699(2)
C9_2 C 0.1204(2) 0.8440(3) 0.3456(2)
H3_2 H 0.1690 0.8783 0.3531
C10_2 C 0.1099(2) 0.7724(3) 0.4112(3)
H4_2 H 0.1501 0.7494 0.4713
C11_2 C 0.0315(2) 0.7431(3) 0.3715(2)
O1_2 O 0.68491(15) 0.11292(19) 0.00069(17)
O2_2 O 0.79481(15) 0.01436(19) 0.03686(17)
O3_2 O 0.68703(14) 0.31816(19) 0.28773(17)
O4_2 O 0.81307(14) 0.34965(18) 0.39573(17)
O6_2 O 0.95348(14) 0.91019(19) 0.11544(17)
O7_2 O 0.90992(15) 0.67534(18) 0.37127(18)
O9_2 O 0.75704(14) 0.55328(18) 0.31259(17)
O10_2 O 0.63192(15) 0.55092(18) 0.31040(18)
O12_2 O 0.52287(18) 0.9863(2) 0.1560(2)
O13_2 O 0.81529(16) 0.68410(19) 0.47574(18)
O14_2 O 0.74480(14) 0.19136(18) 0.18569(17)
O15_2 O 0.99089(14) 0.79355(18) 0.28448(16)
O16_2 O 0.59950(14) 0.73773(18) 0.23662(18)
C1_2 C 0.7523(2) 0.0777(3) 0.0587(2)
C2_2 C 0.7855(2) 0.1144(3) 0.1613(3)
C3_2 C 0.8556(2) 0.0927(3) 0.2374(3)
H1_2 H 0.8939 0.0417 0.2393
C4_2 C 0.8607(2) 0.1614(3) 0.3141(3)
H2_2 H 0.9033 0.1657 0.3770
C5_2 C 0.7926(2) 0.2196(3) 0.2793(2)
C6_2 C 0.7628(2) 0.3035(3) 0.3244(2)
C12_2 C 0.9851(2) 0.6698(3) 0.4048(2)
C13_2 C 0.6904(2) 0.5938(3) 0.2971(3)
C14_2 C 0.6760(2) 0.7006(3) 0.2612(3)
C15_2 C 0.7251(2) 0.7756(3) 0.2531(3)
H5_2 H 0.7809 0.7693 0.2660
C16_2 C 0.6768(2) 0.8655(3) 0.2216(3)
H6_2 H 0.6941 0.9312 0.2095
C17_2 C 0.6008(2) 0.8389(3) 0.2121(3)
C18_2 C 0.5238(2) 0.8962(3) 0.1823(3)
C19_2 C 0.8269(3) 0.7336(3) 0.5499(3)
H7_2 H 0.8289 0.6964 0.6057
C20_2 C 0.8447(4) 0.8932(4) 0.4806(4)
H8_2 H 0.8555 0.8470 0.4352
H9_2 H 0.8894 0.9420 0.5084
H10_2 H 0.7945 0.9311 0.4455
C21_2 C 0.8483(4) 0.8876(4) 0.6475(4)
H11_2 H 0.8039 0.9364 0.6350
H12_2 H 0.8996 0.9251 0.6700
H13_2 H 0.8493 0.8384 0.6978
N1_2 N 0.8367(3) 0.8331(3) 0.5587(2)
O17_2 O 0.68491(15) 0.38708(19) 0.50069(17)
O18_2 O 0.79481(15) 0.48564(19) 0.53686(17)
O20_2 O 0.95348(14) 0.58981(19) 0.61544(17)
O21_2 O 0.97631(14) 0.39699(17) 0.53147(16)
Zn3_2 Zn 0.64194(2) 0.09024(3) 0.85850(3)
O5_2 O 0.08362(14) 0.53862(17) 0.67125(16)
C7_3 C 0.0252(2) 0.5869(3) 0.6773(2)
C8_3 C 0.0475(2) 0.6457(3) 0.7699(2)
C9_3 C 0.1204(2) 0.6560(3) 0.8456(2)
H3_3 H 0.1690 0.6217 0.8531
C10_3 C 0.1099(2) 0.7276(3) 0.9112(3)
H4_3 H 0.1501 0.7506 0.9713
C11_3 C 0.0315(2) 0.7569(3) 0.8715(2)
O3_3 O 0.68703(14) 0.18184(19) 0.78773(17)
O4_3 O 0.81307(14) 0.15035(18) 0.89573(17)
O14_3 O 0.74480(14) 0.30864(18) 0.68569(17)
C1_3 C 0.7523(2) 0.4223(3) 0.5587(2)
C2_3 C 0.7855(2) 0.3856(3) 0.6613(3)
C3_3 C 0.8556(2) 0.4073(3) 0.7374(3)
H1_3 H 0.8939 0.4583 0.7393
C4_3 C 0.8607(2) 0.3386(3) 0.8141(3)
H2_3 H 0.9033 0.3343 0.8770
C5_3 C 0.7926(2) 0.2804(3) 0.7793(2)
C6_3 C 0.7628(2) 0.1965(3) 0.8244(2)
O19_2 O 0.91638(14) 0.03862(17) 0.82875(16)
O22_2 O 0.53483(15) 0.1540(2) 0.81336(19)
C19_3 C 0.8269(3) 0.7664(3) 0.0499(3)
H7_3 H 0.8289 0.8036 0.1057
H9_3 H 0.8894 0.5580 0.0084
C21_3 C 0.8483(4) 0.6124(4) 0.1475(4)
H11_3 H 0.8039 0.5636 0.1350
H12_3 H 0.8996 0.5749 0.1700
H13_3 H 0.8493 0.6616 0.1978
N1_3 N 0.8367(3) 0.6669(3) 0.0587(2)
O7_3 O 0.90992(15) 0.82466(18) 0.87127(18)
O9_3 O 0.75704(14) 0.94672(18) 0.81259(17)
O10_3 O 0.63192(15) 0.94908(18) 0.81040(18)
O11_2 O 0.46517(15) 0.6540(2) 0.68664(19)
O12_3 O 0.52287(18) 0.5137(2) 0.6560(2)
O13_3 O 0.81529(16) 0.81590(19) 0.97574(18)
O15_3 O 0.99089(14) 0.70645(18) 0.78448(16)
O16_3 O 0.59950(14) 0.76227(18) 0.73662(18)
C12_3 C 0.9851(2) 0.8302(3) 0.9048(2)
C13_3 C 0.6904(2) 0.9062(3) 0.7971(3)
C14_3 C 0.6760(2) 0.7994(3) 0.7612(3)
C15_3 C 0.7251(2) 0.7244(3) 0.7531(3)
H5_3 H 0.7809 0.7307 0.7660
C16_3 C 0.6768(2) 0.6345(3) 0.7216(3)
H6_3 H 0.6941 0.5688 0.7095
C17_3 C 0.6008(2) 0.6611(3) 0.7121(3)
C18_3 C 0.5238(2) 0.6038(3) 0.6823(3)
C20_3 C 0.8447(4) 0.6068(4) 0.9806(4)
H8_3 H 0.8555 0.6530 0.9352
H10_3 H 0.7945 0.5689 0.9455
O3_4 O 0.31297(14) 0.68184(19) 0.71227(17)
O4_4 O 0.18693(14) 0.65035(18) 0.60427(17)
O7_4 O 0.09008(15) 0.32466(18) 0.62873(18)
O9_4 O 0.24296(14) 0.44672(18) 0.68741(17)
O10_4 O 0.36808(15) 0.44908(18) 0.68960(18)
O12_4 O 0.47713(18) 0.0137(2) 0.8440(2)
O13_4 O 0.18471(16) 0.31590(19) 0.52426(18)
O14_4 O 0.25520(14) 0.80864(18) 0.81431(17)
O15_4 O 0.00911(14) 0.20645(18) 0.71552(16)
O16_4 O 0.40050(14) 0.26227(18) 0.76338(18)
C1_4 C 0.2477(2) 0.9223(3) 0.9413(2)
C2_4 C 0.2145(2) 0.8856(3) 0.8387(3)
C3_4 C 0.1444(2) 0.9073(3) 0.7626(3)
H1_4 H 0.1061 0.9583 0.7607
C4_4 C 0.1393(2) 0.8386(3) 0.6859(3)
H2_4 H 0.0967 0.8343 0.6230
C5_4 C 0.2074(2) 0.7804(3) 0.7207(2)
C6_4 C 0.2372(2) 0.6965(3) 0.6756(2)
C12_4 C 0.0149(2) 0.3302(3) 0.5952(2)
C13_4 C 0.3096(2) 0.4062(3) 0.7029(3)
C14_4 C 0.3240(2) 0.2994(3) 0.7388(3)
C15_4 C 0.2749(2) 0.2244(3) 0.7469(3)
H5_4 H 0.2191 0.2307 0.7340
C16_4 C 0.3232(2) 0.1345(3) 0.7784(3)
H6_4 H 0.3059 0.0688 0.7905
C17_4 C 0.3992(2) 0.1611(3) 0.7879(3)
C18_4 C 0.4762(2) 0.1038(3) 0.8177(3)
C19_4 C 0.1731(3) 0.2664(3) 0.4501(3)
H7_4 H 0.1711 0.3036 0.3943
C20_4 C 0.1553(4) 0.1068(4) 0.5194(4)
H8_4 H 0.1445 0.1530 0.5648
H9_4 H 0.1106 0.0580 0.4916
H10_4 H 0.2055 0.0689 0.5545
C21_4 C 0.1517(4) 0.1124(4) 0.3525(4)
H11_4 H 0.1961 0.0636 0.3650
H12_4 H 0.1004 0.0749 0.3300
H13_4 H 0.1507 0.1616 0.3022
N1_4 N 0.1633(3) 0.1669(3) 0.4413(2)
C7_4 C 0.9748(2) 0.0869(3) 0.8227(2)
C8_4 C 0.9525(2) 0.1457(3) 0.7301(2)
C9_4 C 0.8796(2) 0.1560(3) 0.6544(2)
H3_4 H 0.8310 0.1217 0.6469
C10_4 C 0.8901(2) 0.2276(3) 0.5888(3)
H4_4 H 0.8499 0.2506 0.5287
C11_4 C 0.9685(2) 0.2569(3) 0.6285(2)
C22 C 0.3973(3) 0.1648(5) 0.0192(4)
H15 H 0.3497 0.1534 0.0342
C23 C 0.5413(3) 0.2021(4) 0.0919(4)
H17 H 0.5337 0.2620 0.0492
H18 H 0.5512 0.1409 0.0599
H19 H 0.5876 0.2140 0.1537
N2 N 0.4686(2) 0.1863(3) 0.1113(2)
H20 H 0.4589 0.2436 0.1402
H21 H 0.4766 0.1326 0.1533
H14 H 0.3876 0.2236 0.9748
H16 H 0.4077 0.1031 0.9880
C22_2 C 0.6027(3) 0.6648(5) 0.4808(4)
H14_2 H 0.6124 0.7236 0.5252
H15_2 H 0.6503 0.6534 0.4658
H16_2 H 0.5923 0.6031 0.5120
C23_2 C 0.4587(3) 0.7021(4) 0.4081(4)
H17_2 H 0.4663 0.7620 0.4508
H18_2 H 0.4488 0.6409 0.4401
H19_2 H 0.4124 0.7140 0.3463
N2_2 N 0.5314(2) 0.6863(3) 0.3887(2)
H20_2 H 0.5411 0.7436 0.3598
H21_2 H 0.5234 0.6326 0.3467
H14_3 H 0.6124 0.7764 0.0252
H16_3 H 0.5923 0.8969 0.0120
C22_3 C 0.6027(3) 0.8352(5) 0.9808(4)
H15_3 H 0.6503 0.8466 0.9658
C23_3 C 0.4587(3) 0.7979(4) 0.9081(4)
H17_3 H 0.4663 0.7380 0.9508
H18_3 H 0.4488 0.8591 0.9401
H19_3 H 0.4124 0.7860 0.8463
N2_3 N 0.5314(2) 0.8137(3) 0.8887(2)
H20_3 H 0.5411 0.7564 0.8598
H21_3 H 0.5234 0.8674 0.8467
C22_4 C 0.3973(3) 0.3352(5) 0.5192(4)
H14_4 H 0.3876 0.2764 0.4748
H15_4 H 0.3497 0.3466 0.5342
H16_4 H 0.4077 0.3969 0.4880
C23_4 C 0.5413(3) 0.2979(4) 0.5919(4)
H17_4 H 0.5337 0.2380 0.5492
H18_4 H 0.5512 0.3591 0.5599
H19_4 H 0.5876 0.2860 0.6537
N2_4 N 0.4686(2) 0.3137(3) 0.6113(2)
H20_4 H 0.4589 0.2564 0.6402
H21_4 H 0.4766 0.3674 0.6533
loop_
_geom_bond_atom_site_label_1
_geom_bond_atom_site_label_2
_geom_bond_site_symmetry_1
_geom_bond_site_symmetry_2
O7 Gd1 1_555 1_555
O9 Gd1 1_555 1_555
O11 C18 1_555 1_555
O12 C18 1_555 1_555
O13 Gd1 1_555 1_555
O16 C14 1_555 1_555
C12 O7 1_555 1_555
C13 O9 1_555 1_555
C14 C13 1_555 1_555
C15 C14 1_555 1_555
H5 C15 1_555 1_555
C16 C15 1_555 1_555
H6 C16 1_555 1_555
C17 O16 1_555 1_555
C18 C17 1_555 1_555
C20 H8 1_555 1_555
H10 C20 1_555 1_555
Gd5 O6 1_555 1_555
Zn2 O11 1_555 1_555
O10 C13 1_555 1_555
C16 C17 1_555 1_555
H7 C19 1_555 1_555
C21 H11 1_555 1_555
H12 C21 1_555 1_555
H13 C21 1_555 1_555
N1 C19 1_555 1_555
C21 N1 1_555 1_555
Zn1 O3 1_555 1_555
O1 C1 1_555 1_555
O2 C1 1_555 1_555
O3 C6 1_555 1_555
O4 C6 1_555 1_555
O14 C2 1_555 1_555
C1 C2 1_555 1_555
C2 C3 1_555 1_555
C3 H1 1_555 1_555
C4 C3 1_555 1_555
H2 C4 1_555 1_555
C5 O14 1_555 1_555
C6 C5 1_555 1_555
Gd5 O2 1_555 1_555
Zn3 O1 1_555 1_555
O22 Zn1 1_555 1_555
C4 C5 1_555 1_555
O5 C7 1_555 1_555
C7 C8 1_555 1_555
C8 C9 1_555 1_555
C9 H3 1_555 1_555
C10 C9 1_555 1_555
H4 C10 1_555 1_555
Gd2 O5 1_555 1_555
C10 C11 1_555 1_555
O19 C7_2 1_555 1_555
C7_2 C8_2 1_555 1_555
C8_2 C9_2 1_555 1_555
C9_2 H3_2 1_555 1_555
C10_2 C9_2 1_555 1_555
H4_2 C10_2 1_555 1_555
Gd5 O8_2 1_555 1_555
C10_2 C11_2 1_555 1_555
Gd2 O4_2 1_555 1_555
Zn2 O3_2 1_555 1_555
O1_2 C1_2 1_555 1_555
O2_2 C1_2 1_555 1_555
O3_2 C6_2 1_555 1_555
O4_2 C6_2 1_555 1_555
O7_2 Gd2 1_555 1_555
O9_2 Gd2 1_555 1_555
O10_2 Zn2 1_555 1_555
O22 C18_2 1_555 1_555
O12_2 C18_2 1_555 1_555
O13_2 Gd2 1_555 1_555
O14_2 C2_2 1_555 1_555
O16_2 C14_2 1_555 1_555
C1_2 C2_2 1_555 1_555
C2_2 C3_2 1_555 1_555
C3_2 H1_2 1_555 1_555
C4_2 C3_2 1_555 1_555
H2_2 C4_2 1_555 1_555
C5_2 O14_2 1_555 1_555
C6_2 C5_2 1_555 1_555
C12_2 O7_2 1_555 1_555
C13_2 O9_2 1_555 1_555
C14_2 C13_2 1_555 1_555
C15_2 C14_2 1_555 1_555
H5_2 C15_2 1_555 1_555
C16_2 C15_2 1_555 1_555
H6_2 C16_2 1_555 1_555
C17_2 O16_2 1_555 1_555
C18_2 C17_2 1_555 1_555
C19_2 O13_2 1_555 1_555
H7_2 C19_2 1_555 1_555
C20_2 H8_2 1_555 1_555
H9_2 C20_2 1_555 1_555
H10_2 C20_2 1_555 1_555
C21_2 H11_2 1_555 1_555
H12_2 C21_2 1_555 1_555
H13_2 C21_2 1_555 1_555
N1_2 C19_2 1_555 1_555
O17_2 Zn2 1_555 1_555
O18_2 Gd2 1_555 1_555
O20_2 Gd2 1_555 1_555
O21_2 Gd2 1_555 1_555
O10_2 C13_2 1_555 1_555
C4_2 C5_2 1_555 1_555
C16_2 C17_2 1_555 1_555
C20_2 N1_2 1_555 1_555
C21_2 N1_2 1_555 1_555
O5_2 C7_3 1_555 1_555
C7_3 C8_3 1_555 1_555
C8_3 C9_3 1_555 1_555
C9_3 H3_3 1_555 1_555
C10_3 C9_3 1_555 1_555
H4_3 C10_3 1_555 1_555
Gd5 O5_2 1_555 1_555
C10_3 C11_3 1_555 1_555
Zn3_2 O3_3 1_555 1_555
O17_2 C1_3 1_555 1_555
O18_2 C1_3 1_555 1_555
O3_3 C6_3 1_555 1_555
O4_3 C6_3 1_555 1_555
O14_3 C2_3 1_555 1_555
C1_3 C2_3 1_555 1_555
C2_3 C3_3 1_555 1_555
C3_3 H1_3 1_555 1_555
C4_3 C3_3 1_555 1_555
H2_3 C4_3 1_555 1_555
C5_3 O14_3 1_555 1_555
C6_3 C5_3 1_555 1_555
O22_2 Zn3_2 1_555 1_555
C4_3 C5_3 1_555 1_555
H7_3 C19_3 1_555 1_555
C21_3 H11_3 1_555 1_555
H12_3 C21_3 1_555 1_555
H13_3 C21_3 1_555 1_555
N1_3 C19_3 1_555 1_555
C21_3 N1_3 1_555 1_555
O7_3 Gd3 1_555 1_555
O9_3 Gd3 1_555 1_555
O11_2 C18_3 1_555 1_555
O12_3 C18_3 1_555 1_555
O13_3 Gd3 1_555 1_555
O16_3 C14_3 1_555 1_555
C12_3 O7_3 1_555 1_555
C13_3 O9_3 1_555 1_555
C14_3 C13_3 1_555 1_555
C15_3 C14_3 1_555 1_555
H5_3 C15_3 1_555 1_555
C16_3 C15_3 1_555 1_555
H6_3 C16_3 1_555 1_555
C17_3 O16_3 1_555 1_555
C18_3 C17_3 1_555 1_555
C20_3 H8_3 1_555 1_555
H10_3 C20_3 1_555 1_555
Zn3 O11_2 1_555 1_555
O10_3 C13_3 1_555 1_555
C16_3 C17_3 1_555 1_555
Gd5 O4_4 1_555 1_555
Zn3 O3_4 1_555 1_555
O17 C1_4 1_555 1_555
O18 C1_4 1_555 1_555
O3_4 C6_4 1_555 1_555
O4_4 C6_4 1_555 1_555
O7_4 Gd5 1_555 1_555
O9_4 Gd5 1_555 1_555
O10_4 Zn3 1_555 1_555
O22_2 C18_4 1_555 1_555
O12_4 C18_4 1_555 1_555
O13_4 Gd5 1_555 1_555
O14_4 C2_4 1_555 1_555
O16_4 C14_4 1_555 1_555
C1_4 C2_4 1_555 1_555
C2_4 C3_4 1_555 1_555
C3_4 H1_4 1_555 1_555
C4_4 C3_4 1_555 1_555
H2_4 C4_4 1_555 1_555
C5_4 O14_4 1_555 1_555
C6_4 C5_4 1_555 1_555
C12_4 O7_4 1_555 1_555
C13_4 O9_4 1_555 1_555
C14_4 C13_4 1_555 1_555
C15_4 C14_4 1_555 1_555
H5_4 C15_4 1_555 1_555
C16_4 C15_4 1_555 1_555
H6_4 C16_4 1_555 1_555
C17_4 O16_4 1_555 1_555
C18_4 C17_4 1_555 1_555
C19_4 O13_4 1_555 1_555
H7_4 C19_4 1_555 1_555
C20_4 H8_4 1_555 1_555
H9_4 C20_4 1_555 1_555
H10_4 C20_4 1_555 1_555
C21_4 H11_4 1_555 1_555
H12_4 C21_4 1_555 1_555
H13_4 C21_4 1_555 1_555
N1_4 C19_4 1_555 1_555
O10_4 C13_4 1_555 1_555
C4_4 C5_4 1_555 1_555
C16_4 C17_4 1_555 1_555
C20_4 N1_4 1_555 1_555
C21_4 N1_4 1_555 1_555
O19_2 C7_4 1_555 1_555
C7_4 C8_4 1_555 1_555
C8_4 C9_4 1_555 1_555
C9_4 H3_4 1_555 1_555
C10_4 C9_4 1_555 1_555
H4_4 C10_4 1_555 1_555
C10_4 C11_4 1_555 1_555
H15 C22 1_555 1_555
C23 H17 1_555 1_555
H18 C23 1_555 1_555
H19 C23 1_555 1_555
N2 C22 1_555 1_555
H20 N2 1_555 1_555
H21 N2 1_555 1_555
C23 N2 1_555 1_555
C22_2 H14_2 1_555 1_555
H15_2 C22_2 1_555 1_555
H16_2 C22_2 1_555 1_555
C23_2 H17_2 1_555 1_555
H18_2 C23_2 1_555 1_555
H19_2 C23_2 1_555 1_555
N2_2 C22_2 1_555 1_555
H20_2 N2_2 1_555 1_555
H21_2 N2_2 1_555 1_555
C23_2 N2_2 1_555 1_555
H15_3 C22_3 1_555 1_555
C23_3 H17_3 1_555 1_555
H18_3 C23_3 1_555 1_555
H19_3 C23_3 1_555 1_555
N2_3 C22_3 1_555 1_555
H20_3 N2_3 1_555 1_555
H21_3 N2_3 1_555 1_555
C23_3 N2_3 1_555 1_555
C22_4 H14_4 1_555 1_555
H15_4 C22_4 1_555 1_555
H16_4 C22_4 1_555 1_555
C23_4 H17_4 1_555 1_555
H18_4 C23_4 1_555 1_555
H19_4 C23_4 1_555 1_555
N2_4 C22_4 1_555 1_555
H20_4 N2_4 1_555 1_555
H21_4 N2_4 1_555 1_555
C23_4 N2_4 1_555 1_555

#END
