
###############################################################################
#
# This file contains modified crystal structure data generated from the
# MOF subset of the Cambridge Structural Database (CSD) v543 
# hosted by the Cambridge Crystallographic Data Centre (CCDC).
#
# This work is licensed under the Creative Commons
# Attribution-NonCommercial-ShareAlike 4.0 International License.
# To view a copy of this license, visit
# http://creativecommons.org/licenses/by-nc-sa/4.0/
# or send a letter to
# Creative Commons, PO Box 1866, Mountain View, CA 94042, USA.
#
# CIF created using the CSD Python API on 29 September 2022
# The structure has been converted into the P1 space group
# The structure has a 3D framework
# The original CSD entry GOQJAA is in the monoclinic crystal system
# The framework has been calculated to contain at least 10.0% void space
# The void calculation uses a probe of radius 1.32A, grid spacing 0.4
#
###############################################################################

data_GOQJAA
_chemical_formula_moiety         '(C96 H40 Bi8 N32 O64)n'
_symmetry_cell_setting           triclinic
_symmetry_space_group_name_H-M   'P 1'
_symmetry_Int_Tables_number      1
_space_group_name_Hall           'P 1'
loop_
_symmetry_equiv_pos_site_id
_symmetry_equiv_pos_as_xyz
1 x,y,z
_cell_length_a                   14.1738(7)
_cell_length_b                   21.6814(12)
_cell_length_c                   14.7988(8)
_cell_angle_alpha                90
_cell_angle_beta                 109.2103(8)
_cell_angle_gamma                90
_cell_volume                     4294.55
loop_
_atom_site_label
_atom_site_type_symbol
_atom_site_fract_x
_atom_site_fract_y
_atom_site_fract_z
O8 O 0.4006(7) 0.8255(4) 0.0512(8)
N4 N 0.2920(7) 0.7063(5) 0.0503(7)
C9 C 0.3277(7) 0.6080(5) 0.0143(7)
H5 H 0.319313 0.566013 0.021967
C10 C 0.2864(9) 0.6493(6) 0.0617(8)
H6 H 0.253893 0.634560 0.102648
Bi4 Bi 0.52797(2) 0.43533(2) 0.12985(2)
O21 O 0.6044(4) 0.5129(3) 0.0332(4)
O22 O 0.5907(5) 0.6135(4) 0.0185(4)
Bi1 Bi 0.47203(2) 0.56467(2) 0.87015(2)
Bi2 Bi 0.17693(2) 0.42577(2) 0.52015(2)
O1 O 0.6358(5) 0.5644(3) 0.8557(4)
O2 O 0.7388(5) 0.5810(5) 0.7760(5)
O3 O 0.7178(5) 0.5210(4) 0.5781(4)
O4 O 0.7115(5) 0.6206(4) 0.5592(5)
O5 O 0.4728(4) 0.6653(3) 0.8391(4)
O6 O 0.4473(11) 0.7599(4) 0.8681(10)
O7 O 0.2821(8) 0.8202(4) 0.9180(6)
O9 O 0.3360(4) 0.4399(3) 0.6396(4)
O10 O 0.4330(4) 0.4481(3) 0.7889(4)
O11 O 0.3956(4) 0.4871(3) 0.9668(4)
O12 O 0.4093(5) 0.3865(4) 0.9815(4)
O13 O 0.0038(4) 0.4311(3) 0.5147(4)
N1 N 0.4775(5) 0.5727(3) 0.6969(4)
N2 N 0.5004(5) 0.5823(4) 0.5196(5)
H1 H 0.508030 0.585645 0.463163
N3 N 0.3779(5) 0.6254(4) 0.9595(5)
N5 N 0.1754(5) 0.4190(3) 0.6928(5)
N6 N 0.1918(6) 0.4133(5) 0.8814(5)
H2 H 0.195984 0.410242 0.941923
N7 N 0.0415(5) 0.4437(4) 0.3472(5)
C1 C 0.6560(7) 0.5709(5) 0.7802(6)
C2 C 0.5684(6) 0.5730(4) 0.6890(6)
C3 C 0.3994(7) 0.5781(4) 0.6176(6)
H3 H 0.335351 0.578761 0.621709
C4 C 0.4117(7) 0.5829(5) 0.5286(6)
H4 H 0.355677 0.586651 0.474215
C5 C 0.5788(6) 0.5764(4) 0.5991(5)
C6 C 0.6784(7) 0.5729(6) 0.5798(6)
C7 C 0.4347(9) 0.7073(5) 0.8789(8)
C8 C 0.3826(7) 0.6853(4) 0.9456(7)
C11 C 0.3412(8) 0.7271(5) 0.9941(7)
C12 C 0.3449(12) 0.7956(6) 0.9866(11)
C13 C 0.3512(6) 0.4394(4) 0.7266(6)
C14 C 0.2624(6) 0.4265(4) 0.7588(5)
C15 C 0.0947(7) 0.4087(5) 0.7186(6)
H7 H 0.033004 0.403064 0.671358
C16 C 0.1005(8) 0.4063(6) 0.8092(6)
H8 H 0.042918 0.399991 0.825003
C17 C 0.2718(6) 0.4244(4) 0.8579(5)
C18 C 0.3683(7) 0.4340(5) 0.9408(6)
C21 C 0.0581(7) 0.4449(6) 0.2656(6)
H9 H 0.123028 0.450462 0.265157
Bi5 Bi 0.32307(2) 0.92577(2) 0.97985(2)
Bi7 Bi 0.82307(2) 0.57423(2) 0.47985(2)
O17 O 0.2822(5) 0.4790(4) 0.4219(4)
O18 O 0.2885(5) 0.3794(4) 0.4408(5)
O19 O 0.2179(8) 0.3202(4) 0.5820(6)
O20 O 0.0994(7) 0.3255(4) 0.4488(8)
O23 O 0.1536(4) 0.5420(3) 0.5602(4)
O24 O 0.3004(4) 0.5584(3) 0.7744(4)
O14 O 0.8464(4) 0.4580(3) 0.4398(4)
O15 O 0.6996(4) 0.4416(3) 0.2256(4)
O16 O 0.7600(5) 0.3484(4) 0.2767(5)
N8 N 0.8875(7) 0.4267(5) 0.1767(6)
C19 C 0.9319(5) 0.4424(4) 0.4405(5)
C20 C 0.9482(6) 0.4357(4) 0.3460(5)
C22 C 0.9800(8) 0.4378(7) 0.1782(7)
H10 H 0.993310 0.441056 0.120881
C23 C 0.8710(6) 0.4236(4) 0.2613(5)
C24 C 0.7684(7) 0.4032(5) 0.2554(6)
H4_2 H 0.144323 0.086651 0.025785
Bi6 Bi 0.67693(2) 0.07423(2) 0.02015(2)
Bi1_2 Bi 0.02797(2) 0.06467(2) 0.62985(2)
O5_2 O 0.0272(4) 0.1653(3) 0.6609(4)
O6_2 O 0.0527(11) 0.2599(4) 0.6319(10)
N1_2 N 0.0225(5) 0.0727(3) 0.8031(4)
N3_2 N 0.1221(5) 0.1254(4) 0.5405(5)
N4_2 N 0.2080(7) 0.2063(5) 0.4497(7)
C3_2 C 0.1006(7) 0.0781(4) 0.8824(6)
H3_2 H 0.164649 0.078761 0.878291
C4_2 C 0.0883(7) 0.0829(5) 0.9714(6)
C7_2 C 0.0653(9) 0.2073(5) 0.6211(8)
C8_2 C 0.1174(7) 0.1853(4) 0.5544(7)
C9_2 C 0.1723(7) 0.1080(5) 0.4857(7)
H5_2 H 0.180687 0.066013 0.478033
C10_2 C 0.2136(9) 0.1493(6) 0.4383(8)
H6_2 H 0.246107 0.134560 0.397352
C11_2 C 0.1588(8) 0.2271(5) 0.5059(7)
C12_2 C 0.1551(12) 0.2956(6) 0.5134(11)
O23_2 O 0.3464(4) 0.0420(3) 0.9398(4)
O24_2 O 0.1996(4) 0.0584(3) 0.7256(4)
O14_2 O 0.6536(4) 0.9580(3) 0.0602(4)
O15_2 O 0.8004(4) 0.9416(3) 0.2744(4)
O16_2 O 0.7400(5) 0.8484(4) 0.2233(5)
N7_2 N 0.4585(5) 0.9437(4) 0.1528(5)
N8_2 N 0.6125(7) 0.9267(5) 0.3233(6)
C19_2 C 0.5681(5) 0.9424(4) 0.0595(5)
C20_2 C 0.5518(6) 0.9357(4) 0.1540(5)
C21_2 C 0.4419(7) 0.9449(6) 0.2344(6)
H9_2 H 0.376972 0.950462 0.234843
C22_2 C 0.5200(8) 0.9378(7) 0.3218(7)
H10_2 H 0.506690 0.941056 0.379119
C23_2 C 0.6290(6) 0.9236(4) 0.2387(5)
C24_2 C 0.7316(7) 0.9032(5) 0.2446(6)
Bi3 Bi 0.97203(2) 0.93533(2) 0.37015(2)
O17_2 O 0.2178(5) 0.9790(4) 0.0781(4)
O18_2 O 0.2115(5) 0.8794(4) 0.0592(5)
O9_2 O 0.1640(4) 0.9399(3) 0.8604(4)
O10_2 O 0.0670(4) 0.9481(3) 0.7111(4)
O11_2 O 0.1044(4) 0.9871(3) 0.5332(4)
O12_2 O 0.0907(5) 0.8865(4) 0.5185(4)
O13_2 O 0.4962(4) 0.9311(3) 0.9853(4)
N5_2 N 0.3246(5) 0.9190(3) 0.8072(5)
N6_2 N 0.3082(6) 0.9133(5) 0.6186(5)
H2_2 H 0.304016 0.910242 0.558077
C13_2 C 0.1488(6) 0.9394(4) 0.7734(6)
C14_2 C 0.2376(6) 0.9265(4) 0.7412(5)
C15_2 C 0.4053(7) 0.9087(5) 0.7814(6)
H7_2 H 0.466996 0.903064 0.828642
C16_2 C 0.3995(8) 0.9063(6) 0.6908(6)
H8_2 H 0.457082 0.899991 0.674997
C17_2 C 0.2282(6) 0.9244(4) 0.6421(5)
C18_2 C 0.1317(7) 0.9340(5) 0.5592(6)
H1_2 H 0.991970 0.085645 0.036837
O1_2 O 0.8642(5) 0.0644(3) 0.6443(4)
O2_2 O 0.7612(5) 0.0810(5) 0.7240(5)
O3_2 O 0.7822(5) 0.0210(4) 0.9219(4)
O4_2 O 0.7885(5) 0.1206(4) 0.9408(5)
N2_2 N 0.9996(5) 0.0823(4) 0.9804(5)
C1_2 C 0.8440(7) 0.0709(5) 0.7198(6)
C2_2 C 0.9316(6) 0.0730(4) 0.8110(6)
C5_2 C 0.9212(6) 0.0764(4) 0.9009(5)
C6_2 C 0.8216(7) 0.0729(6) 0.9202(6)
O21_2 O 0.8956(4) 0.0129(3) 0.4668(4)
O22_2 O 0.9093(5) 0.1135(4) 0.4815(4)
O16_3 O 0.2400(5) 0.6516(4) 0.7233(5)
N8_3 N 0.1125(7) 0.5733(5) 0.8233(6)
C19_3 C 0.0681(5) 0.5576(4) 0.5595(5)
C20_3 C 0.0518(6) 0.5643(4) 0.6540(5)
C22_3 C 0.0200(8) 0.5622(7) 0.8218(7)
H10_3 H 0.006690 0.558944 0.879119
C23_3 C 0.1290(6) 0.5764(4) 0.7387(5)
C24_3 C 0.2316(7) 0.5968(5) 0.7446(6)
O1_3 O 0.3642(5) 0.4356(3) 0.1443(4)
O2_3 O 0.2612(5) 0.4190(5) 0.2240(5)
O5_3 O 0.5272(4) 0.3347(3) 0.1609(4)
O6_3 O 0.5527(11) 0.2401(4) 0.1319(10)
O7_2 O 0.7179(8) 0.1798(4) 0.0820(6)
O9_3 O 0.6640(4) 0.5601(3) 0.3604(4)
O10_3 O 0.5670(4) 0.5519(3) 0.2111(4)
O13_3 O 0.9962(4) 0.5689(3) 0.4853(4)
N1_3 N 0.5225(5) 0.4273(3) 0.3031(4)
N2_3 N 0.4996(5) 0.4177(4) 0.4804(5)
H1_3 H 0.491970 0.414355 0.536837
N3_3 N 0.6221(5) 0.3746(4) 0.0405(5)
N5_3 N 0.8246(5) 0.5810(3) 0.3072(5)
N6_3 N 0.8082(6) 0.5867(5) 0.1186(5)
H2_3 H 0.804016 0.589758 0.058077
N7_3 N 0.9585(5) 0.5563(4) 0.6528(5)
C1_3 C 0.3440(7) 0.4291(5) 0.2198(6)
C2_3 C 0.4316(6) 0.4270(4) 0.3110(6)
C3_3 C 0.6006(7) 0.4219(4) 0.3824(6)
H3_3 H 0.664649 0.421239 0.378291
C4_3 C 0.5883(7) 0.4171(5) 0.4714(6)
H4_3 H 0.644323 0.413349 0.525785
C5_3 C 0.4212(6) 0.4236(4) 0.4009(5)
C6_3 C 0.3216(7) 0.4271(6) 0.4202(6)
C7_3 C 0.5653(9) 0.2927(5) 0.1211(8)
C8_3 C 0.6174(7) 0.3147(4) 0.0544(7)
C11_3 C 0.6588(8) 0.2729(5) 0.0059(7)
C12_3 C 0.6551(12) 0.2044(6) 0.0134(11)
C13_3 C 0.6488(6) 0.5606(4) 0.2734(6)
C14_3 C 0.7376(6) 0.5735(4) 0.2412(5)
C15_3 C 0.9053(7) 0.5913(5) 0.2814(6)
H7_3 H 0.966996 0.596936 0.328642
C16_3 C 0.8995(8) 0.5937(6) 0.1908(6)
H8_3 H 0.957082 0.600009 0.174997
C17_3 C 0.7282(6) 0.5756(4) 0.1421(5)
C18_3 C 0.6317(7) 0.5660(5) 0.0592(6)
C21_3 C 0.9419(7) 0.5551(6) 0.7344(6)
H9_3 H 0.876972 0.549538 0.734843
O19_2 O 0.7821(8) 0.6798(4) 0.4180(6)
O20_2 O 0.9006(7) 0.6745(4) 0.5512(8)
O8_2 O 0.5994(7) 0.1745(4) 0.9488(8)
N4_3 N 0.7080(7) 0.2937(5) 0.9497(7)
C9_3 C 0.6723(7) 0.3920(5) 0.9857(7)
H5_3 H 0.680687 0.433987 0.978033
C10_3 C 0.7136(9) 0.3507(6) 0.9383(8)
H6_3 H 0.746107 0.365440 0.897352
O1_4 O 0.1358(5) 0.9356(3) 0.3557(4)
O2_4 O 0.2388(5) 0.9190(5) 0.2760(5)
N2_4 N 0.0004(5) 0.9177(4) 0.0196(5)
C1_4 C 0.1560(7) 0.9291(5) 0.2802(6)
C2_4 C 0.0684(6) 0.9270(4) 0.1890(6)
C5_4 C 0.0788(6) 0.9236(4) 0.0991(5)
C6_4 C 0.1784(7) 0.9271(6) 0.0798(6)
H1_4 H 0.008030 0.914355 0.963163
O9_4 O 0.8360(4) 0.0601(3) 0.1396(4)
O10_4 O 0.9330(4) 0.0519(3) 0.2889(4)
O13_4 O 0.5038(4) 0.0689(3) 0.0147(4)
N5_4 N 0.6754(5) 0.0810(3) 0.1928(5)
N6_4 N 0.6918(6) 0.0867(5) 0.3814(5)
H2_4 H 0.695984 0.089758 0.441923
C13_4 C 0.8512(6) 0.0606(4) 0.2266(6)
C14_4 C 0.7624(6) 0.0735(4) 0.2588(5)
C15_4 C 0.5947(7) 0.0913(5) 0.2186(6)
H7_4 H 0.533004 0.096936 0.171358
C16_4 C 0.6005(8) 0.0937(6) 0.3092(6)
H8_4 H 0.542918 0.100009 0.325003
C17_4 C 0.7718(6) 0.0756(4) 0.3579(5)
C18_4 C 0.8683(7) 0.0660(5) 0.4408(6)
O16_4 O 0.2600(5) 0.1516(4) 0.7767(5)
N7_4 N 0.5415(5) 0.0563(4) 0.8472(5)
N8_4 N 0.3875(7) 0.0733(5) 0.6767(6)
C19_4 C 0.4319(5) 0.0576(4) 0.9405(5)
C20_4 C 0.4482(6) 0.0643(4) 0.8460(5)
C21_4 C 0.5581(7) 0.0551(6) 0.7656(6)
H9_4 H 0.623028 0.049538 0.765157
C22_4 C 0.4800(8) 0.0622(7) 0.6782(7)
H10_4 H 0.493310 0.058944 0.620881
C23_4 C 0.3710(6) 0.0764(4) 0.7613(5)
C24_4 C 0.2684(7) 0.0968(5) 0.7554(6)
O5_4 O 0.9728(4) 0.8347(3) 0.3391(4)
O6_4 O 0.9473(11) 0.7401(4) 0.3681(10)
N1_4 N 0.9775(5) 0.9273(3) 0.1969(4)
N3_4 N 0.8779(5) 0.8746(4) 0.4595(5)
N4_4 N 0.7920(7) 0.7937(5) 0.5503(7)
C3_4 C 0.8994(7) 0.9219(4) 0.1176(6)
H3_4 H 0.835351 0.921239 0.121709
C4_4 C 0.9117(7) 0.9171(5) 0.0286(6)
C7_4 C 0.9347(9) 0.7927(5) 0.3789(8)
C8_4 C 0.8826(7) 0.8147(4) 0.4456(7)
C9_4 C 0.8277(7) 0.8920(5) 0.5143(7)
H5_4 H 0.819313 0.933987 0.521967
C10_4 C 0.7864(9) 0.8507(6) 0.5617(8)
H6_4 H 0.753893 0.865440 0.602648
C11_4 C 0.8412(8) 0.7729(5) 0.4941(7)
C12_4 C 0.8449(12) 0.7044(6) 0.4866(11)
H4_4 H 0.855677 0.913349 0.974215
loop_
_geom_bond_atom_site_label_1
_geom_bond_atom_site_label_2
_geom_bond_site_symmetry_1
_geom_bond_site_symmetry_2
N4 C10 1_555 1_555
H5 C9 1_555 1_555
C10 C9 1_555 1_555
H6 C10 1_555 1_555
Bi4 O21 1_555 1_555
Bi1 O1 1_555 1_555
Bi2 O9 1_555 1_555
O1 C1 1_555 1_555
O2 C1 1_555 1_555
O3 C6 1_555 1_555
O4 C6 1_555 1_555
O5 Bi1 1_555 1_555
O6 C7 1_555 1_555
O7 C12 1_555 1_555
O9 C13 1_555 1_555
O10 Bi1 1_555 1_555
O11 Bi1 1_555 1_555
O12 C18 1_555 1_555
O13 Bi2 1_555 1_555
N1 Bi1 1_555 1_555
N2 H1 1_555 1_555
N3 Bi1 1_555 1_555
N5 Bi2 1_555 1_555
N6 H2 1_555 1_555
N7 Bi2 1_555 1_555
C1 C2 1_555 1_555
C2 N1 1_555 1_555
C3 N1 1_555 1_555
H3 C3 1_555 1_555
C4 N2 1_555 1_555
H4 C4 1_555 1_555
C5 N2 1_555 1_555
C6 C5 1_555 1_555
C7 O5 1_555 1_555
C8 N3 1_555 1_555
C12 C11 1_555 1_555
C13 O10 1_555 1_555
C14 N5 1_555 1_555
C15 N5 1_555 1_555
H7 C15 1_555 1_555
C16 N6 1_555 1_555
H8 C16 1_555 1_555
C17 N6 1_555 1_555
C18 O11 1_555 1_555
C21 N7 1_555 1_555
H9 C21 1_555 1_555
Bi5 O7 1_555 1_555
Bi7 O3 1_555 1_555
O17 Bi2 1_555 1_555
O18 Bi2 1_555 1_555
O19 Bi2 1_555 1_555
O20 Bi2 1_555 1_555
O23 Bi2 1_555 1_555
O24 Bi1 1_555 1_555
O4 Bi7 1_555 1_555
C2 C5 1_555 1_555
C3 C4 1_555 1_555
C7 C8 1_555 1_555
C8 C11 1_555 1_555
C13 C14 1_555 1_555
C14 C17 1_555 1_555
C15 C16 1_555 1_555
C17 C18 1_555 1_555
O14 C19 1_555 1_555
O15 C24 1_555 1_555
O16 C24 1_555 1_555
N8 C22 1_555 1_555
H10 C22 1_555 1_555
C23 N8 1_555 1_555
C24 C23 1_555 1_555
Bi4 O15 1_555 1_555
Bi7 O14 1_555 1_555
C19 C20 1_555 1_555
C20 C23 1_555 1_555
O5_2 Bi1_2 1_555 1_555
O6_2 C7_2 1_555 1_555
O19 C12_2 1_555 1_555
O20 C12_2 1_555 1_555
N1_2 Bi1_2 1_555 1_555
N3_2 Bi1_2 1_555 1_555
N4_2 C10_2 1_555 1_555
C3_2 N1_2 1_555 1_555
H3_2 C3_2 1_555 1_555
C7_2 O5_2 1_555 1_555
C8_2 N3_2 1_555 1_555
C9_2 N3_2 1_555 1_555
H5_2 C9_2 1_555 1_555
C10_2 C9_2 1_555 1_555
H6_2 C10_2 1_555 1_555
C11_2 N4_2 1_555 1_555
C12_2 C11_2 1_555 1_555
O24_2 Bi1_2 1_555 1_555
C3_2 C4_2 1_555 1_555
C7_2 C8_2 1_555 1_555
C8_2 C11_2 1_555 1_555
O14_2 C19_2 1_555 1_555
O15_2 C24_2 1_555 1_555
O16_2 C24_2 1_555 1_555
N8_2 C22_2 1_555 1_555
C20_2 N7_2 1_555 1_555
C21_2 N7_2 1_555 1_555
H9_2 C21_2 1_555 1_555
C22_2 C21_2 1_555 1_555
H10_2 C22_2 1_555 1_555
C23_2 N8_2 1_555 1_555
C24_2 C23_2 1_555 1_555
Bi3 O15_2 1_555 1_555
C19_2 C20_2 1_555 1_555
C20_2 C23_2 1_555 1_555
Bi5 O9_2 1_555 1_555
O9_2 C13_2 1_555 1_555
O12_2 C18_2 1_555 1_555
O13_2 Bi5 1_555 1_555
N5_2 Bi5 1_555 1_555
N6_2 H2_2 1_555 1_555
C13_2 O10_2 1_555 1_555
C14_2 N5_2 1_555 1_555
C15_2 N5_2 1_555 1_555
H7_2 C15_2 1_555 1_555
C16_2 N6_2 1_555 1_555
H8_2 C16_2 1_555 1_555
C17_2 N6_2 1_555 1_555
C18_2 O11_2 1_555 1_555
C13_2 C14_2 1_555 1_555
C14_2 C17_2 1_555 1_555
C15_2 C16_2 1_555 1_555
C17_2 C18_2 1_555 1_555
O1_2 C1_2 1_555 1_555
O2_2 C1_2 1_555 1_555
O3_2 C6_2 1_555 1_555
O4_2 C6_2 1_555 1_555
C1_2 C2_2 1_555 1_555
C5_2 N2_2 1_555 1_555
C6_2 C5_2 1_555 1_555
C2_2 C5_2 1_555 1_555
O23 C19_3 1_555 1_555
O24 C24_3 1_555 1_555
O16_3 C24_3 1_555 1_555
N8_3 C22_3 1_555 1_555
H10_3 C22_3 1_555 1_555
C23_3 N8_3 1_555 1_555
C24_3 C23_3 1_555 1_555
C19_3 C20_3 1_555 1_555
C20_3 C23_3 1_555 1_555
Bi4 O1_3 1_555 1_555
Bi7 O9_3 1_555 1_555
O1_3 C1_3 1_555 1_555
O2_3 C1_3 1_555 1_555
O17 C6_3 1_555 1_555
O18 C6_3 1_555 1_555
O5_3 Bi4 1_555 1_555
O6_3 C7_3 1_555 1_555
O7_2 C12_3 1_555 1_555
O9_3 C13_3 1_555 1_555
O10_3 Bi4 1_555 1_555
O22 C18_3 1_555 1_555
O13_3 Bi7 1_555 1_555
N1_3 Bi4 1_555 1_555
N2_3 H1_3 1_555 1_555
N3_3 Bi4 1_555 1_555
N5_3 Bi7 1_555 1_555
N6_3 H2_3 1_555 1_555
N7_3 Bi7 1_555 1_555
C1_3 C2_3 1_555 1_555
C2_3 N1_3 1_555 1_555
C3_3 N1_3 1_555 1_555
H3_3 C3_3 1_555 1_555
C4_3 N2_3 1_555 1_555
H4_3 C4_3 1_555 1_555
C5_3 N2_3 1_555 1_555
C6_3 C5_3 1_555 1_555
C7_3 O5_3 1_555 1_555
C8_3 N3_3 1_555 1_555
C12_3 C11_3 1_555 1_555
C13_3 O10_3 1_555 1_555
C14_3 N5_3 1_555 1_555
C15_3 N5_3 1_555 1_555
H7_3 C15_3 1_555 1_555
C16_3 N6_3 1_555 1_555
H8_3 C16_3 1_555 1_555
C17_3 N6_3 1_555 1_555
C18_3 O21 1_555 1_555
C21_3 N7_3 1_555 1_555
H9_3 C21_3 1_555 1_555
Bi6 O7_2 1_555 1_555
O19_2 Bi7 1_555 1_555
O20_2 Bi7 1_555 1_555
C2_3 C5_3 1_555 1_555
C3_3 C4_3 1_555 1_555
C7_3 C8_3 1_555 1_555
C8_3 C11_3 1_555 1_555
C13_3 C14_3 1_555 1_555
C14_3 C17_3 1_555 1_555
C15_3 C16_3 1_555 1_555
C17_3 C18_3 1_555 1_555
N4_3 C10_3 1_555 1_555
H5_3 C9_3 1_555 1_555
C10_3 C9_3 1_555 1_555
H6_3 C10_3 1_555 1_555
O1_4 C1_4 1_555 1_555
O2_4 C1_4 1_555 1_555
O17_2 C6_4 1_555 1_555
O18_2 C6_4 1_555 1_555
C1_4 C2_4 1_555 1_555
C5_4 N2_4 1_555 1_555
C6_4 C5_4 1_555 1_555
C2_4 C5_4 1_555 1_555
Bi6 O9_4 1_555 1_555
O9_4 C13_4 1_555 1_555
O22_2 C18_4 1_555 1_555
O13_4 Bi6 1_555 1_555
N5_4 Bi6 1_555 1_555
N6_4 H2_4 1_555 1_555
C13_4 O10_4 1_555 1_555
C14_4 N5_4 1_555 1_555
C15_4 N5_4 1_555 1_555
H7_4 C15_4 1_555 1_555
C16_4 N6_4 1_555 1_555
H8_4 C16_4 1_555 1_555
C17_4 N6_4 1_555 1_555
C18_4 O21_2 1_555 1_555
C13_4 C14_4 1_555 1_555
C14_4 C17_4 1_555 1_555
C15_4 C16_4 1_555 1_555
C17_4 C18_4 1_555 1_555
O23_2 C19_4 1_555 1_555
O24_2 C24_4 1_555 1_555
O16_4 C24_4 1_555 1_555
N8_4 C22_4 1_555 1_555
C20_4 N7_4 1_555 1_555
C21_4 N7_4 1_555 1_555
H9_4 C21_4 1_555 1_555
C22_4 C21_4 1_555 1_555
H10_4 C22_4 1_555 1_555
C23_4 N8_4 1_555 1_555
C24_4 C23_4 1_555 1_555
C19_4 C20_4 1_555 1_555
C20_4 C23_4 1_555 1_555
O5_4 Bi3 1_555 1_555
O6_4 C7_4 1_555 1_555
O19_2 C12_4 1_555 1_555
O20_2 C12_4 1_555 1_555
N1_4 Bi3 1_555 1_555
N3_4 Bi3 1_555 1_555
N4_4 C10_4 1_555 1_555
C3_4 N1_4 1_555 1_555
H3_4 C3_4 1_555 1_555
C7_4 O5_4 1_555 1_555
C8_4 N3_4 1_555 1_555
C9_4 N3_4 1_555 1_555
H5_4 C9_4 1_555 1_555
C10_4 C9_4 1_555 1_555
H6_4 C10_4 1_555 1_555
C11_4 N4_4 1_555 1_555
C12_4 C11_4 1_555 1_555
C3_4 C4_4 1_555 1_555
C7_4 C8_4 1_555 1_555
C8_4 C11_4 1_555 1_555

#END
