
###############################################################################
#
# This file contains modified crystal structure data generated from the
# MOF subset of the Cambridge Structural Database (CSD) v543 
# hosted by the Cambridge Crystallographic Data Centre (CCDC).
#
# This work is licensed under the Creative Commons
# Attribution-NonCommercial-ShareAlike 4.0 International License.
# To view a copy of this license, visit
# http://creativecommons.org/licenses/by-nc-sa/4.0/
# or send a letter to
# Creative Commons, PO Box 1866, Mountain View, CA 94042, USA.
#
# CIF created using the CSD Python API on 29 September 2022
# The structure has been converted into the P1 space group
# The structure has a 3D framework
# The original CSD entry GOSPEM is in the monoclinic crystal system
# The framework has been calculated to contain at least 10.0% void space
# The void calculation uses a probe of radius 1.32A, grid spacing 0.4
#
###############################################################################

data_GOSPEM
_chemical_formula_moiety         '(C124 H112 N16 O32 Zn8)n'
_symmetry_cell_setting           triclinic
_symmetry_space_group_name_H-M   'P 1'
_symmetry_Int_Tables_number      1
_space_group_name_Hall           'P 1'
loop_
_symmetry_equiv_pos_site_id
_symmetry_equiv_pos_as_xyz
1 x,y,z
_cell_length_a                   13.6871(15)
_cell_length_b                   15.364(2)
_cell_length_c                   19.593(2)
_cell_angle_alpha                90
_cell_angle_beta                 106.940(11)
_cell_angle_gamma                90
_cell_volume                     3941.41
loop_
_atom_site_label
_atom_site_type_symbol
_atom_site_fract_x
_atom_site_fract_y
_atom_site_fract_z
Zn2 Zn 0.23511(6) 0.62601(7) 0.75654(4)
O7 O 0.1349(4) 0.5723(4) 0.6767(3)
O8 O 0.2286(5) 0.6098(6) 0.6097(3)
N2 N 0.2333(4) 0.7576(4) 0.7559(3)
H1 H 0.233507 0.774760 0.797759
N3 N 0.3859(4) 0.6346(5) 0.7603(3)
H2 H 0.389481 0.627920 0.717503
N4 N 0.3500(5) 0.3104(5) 0.7744(3)
C2 C 0.0276(8) 0.7751(10) 0.7775(5)
H4 H 0.078738 0.793751 0.817502
C3 C 0.0426(6) 0.7699(6) 0.7136(4)
C6 C 0.1438(6) 0.7984(7) 0.7034(5)
H7 H 0.144717 0.783140 0.655526
H8 H 0.149460 0.861179 0.707939
C7 C 0.3302(6) 0.7874(5) 0.7439(6)
H9 H 0.322739 0.785620 0.692597
C8 C 0.3609(9) 0.8806(8) 0.7718(7)
H10 H 0.314171 0.921705 0.742679
H11 H 0.428843 0.892770 0.769869
H12 H 0.358814 0.885099 0.820235
C9 C 0.4138(6) 0.7268(6) 0.7815(5)
H13 H 0.426858 0.732895 0.832617
H14 H 0.475930 0.741954 0.769836
C10 C 0.4579(6) 0.5747(6) 0.8057(4)
H15 H 0.467812 0.590240 0.855187
H16 H 0.523259 0.579910 0.795976
C11 C 0.4219(5) 0.4815(5) 0.7940(4)
C12 C 0.3662(6) 0.4517(6) 0.7287(4)
H17 H 0.350053 0.489028 0.689630
C13 C 0.3346(7) 0.3682(7) 0.7207(4)
H18 H 0.299847 0.349202 0.675030
C14 C 0.4407(6) 0.4230(6) 0.8485(4)
H19 H 0.477854 0.440604 0.894108
C15 C 0.4072(7) 0.3409(7) 0.8382(4)
H20 H 0.424034 0.302935 0.876888
C28 C 0.1522(6) 0.5757(6) 0.6174(4)
C29 C 0.0753(6) 0.5360(7) 0.5567(4)
C31 C 0.0878(6) 0.5342(8) 0.4905(4)
H28 H 0.146687 0.556932 0.482852
C38 C 0.0136(7) 0.4988(8) 0.4355(4)
H31 H 0.023323 0.498166 0.390419
Zn5 Zn 0.28664(6) 0.19003(7) 0.76526(4)
O18 O 0.2113(4) 0.5544(4) 0.8311(3)
O3 O 0.7887(4) 0.4456(4) 0.1689(3)
O4 O 0.6841(7) 0.3593(6) 0.0960(3)
C20 C 0.7451(6) 0.4810(6) 0.0462(4)
C21 C 0.7768(8) 0.5636(6) 0.0589(4)
H23 H 0.797964 0.585141 0.105295
C22 C 0.7774(8) 0.6158(6) 0.0022(4)
H24 H 0.799819 0.672967 0.010694
C23 C 0.7404(7) 0.4219(7) 0.1083(4)
Zn9 Zn 0.76489(6) 0.37399(7) 0.24346(4)
Zn1 Zn 0.71336(6) 0.69003(7) 0.73474(4)
O1 O 0.7120(4) 0.6148(5) 0.8113(3)
O2 O 0.7842(6) 0.7195(5) 0.8841(3)
O5 O 0.6667(4) 0.6259(4) 0.6457(2)
O6 O 0.5131(4) 0.6245(5) 0.6615(3)
N1 N 0.8569(5) 0.7197(5) 0.7289(4)
C1 C 0.9269(7) 0.7502(9) 0.7815(5)
H3 H 0.912732 0.756928 0.824862
C4 C 0.9696(6) 0.7406(8) 0.6571(4)
H5 H 0.980945 0.737444 0.612616
C5 C 0.8787(7) 0.7154(7) 0.6653(4)
H6 H 0.828888 0.694293 0.625711
C16 C 0.7483(7) 0.6449(8) 0.8721(5)
C17 C 0.7459(6) 0.5859(6) 0.9338(4)
C18 C 0.7128(7) 0.5031(7) 0.9231(4)
H21 H 0.691449 0.481709 0.876762
C19 C 0.7094(7) 0.4494(7) 0.9779(4)
H22 H 0.683704 0.393094 0.969261
C24 C 0.5711(6) 0.6033(5) 0.6280(3)
C25 C 0.5342(5) 0.5490(5) 0.5617(3)
C26 C 0.4353(5) 0.5205(6) 0.5396(3)
H25 H 0.391014 0.534523 0.566056
C27 C 0.5996(6) 0.5291(6) 0.5218(4)
H26 H 0.666696 0.548943 0.536155
C30 C 0.9864(7) 0.5012(8) 0.5645(4)
H27 H 0.976677 0.501834 0.609581
O9 O 0.3333(4) 0.3741(4) 0.3543(2)
O10 O 0.4869(4) 0.3755(5) 0.3385(3)
C32 C 0.4289(6) 0.3967(5) 0.3720(3)
C33 C 0.4658(5) 0.4510(5) 0.4383(3)
C34 C 0.5647(5) 0.4795(6) 0.4604(3)
H29 H 0.608986 0.465477 0.433944
C35 C 0.4004(6) 0.4709(6) 0.4782(4)
H30 H 0.333304 0.451057 0.463845
O11 O 0.8651(4) 0.4277(4) 0.3233(3)
O12 O 0.7714(5) 0.3902(6) 0.3903(3)
C36 C 0.8478(6) 0.4243(6) 0.3826(4)
C37 C 0.9247(6) 0.4640(7) 0.4433(4)
C39 C 0.9122(6) 0.4658(8) 0.5095(4)
H32 H 0.853313 0.443068 0.517148
Zn3 Zn 0.28664(6) 0.30997(7) 0.26526(4)
O13 O 0.2880(4) 0.3852(5) 0.1887(3)
O14 O 0.2158(6) 0.2805(5) 0.1159(3)
N5 N 0.1431(5) 0.2803(5) 0.2711(4)
C40 C 0.0731(7) 0.2498(9) 0.2185(5)
H35 H 0.087268 0.243072 0.175138
C43 C 0.0304(6) 0.2594(8) 0.3429(4)
H37 H 0.019055 0.262556 0.387384
C44 C 0.1213(7) 0.2846(7) 0.3347(4)
H38 H 0.171112 0.305707 0.374289
C55 C 0.2517(7) 0.3551(8) 0.1279(5)
C56 C 0.2541(6) 0.4141(6) 0.0662(4)
C57 C 0.2872(7) 0.4969(7) 0.0769(4)
H53 H 0.308551 0.518291 0.123238
C58 C 0.2906(7) 0.5506(7) 0.0221(4)
H54 H 0.316296 0.606906 0.030739
N9 N 0.6500(5) 0.8104(5) 0.7256(3)
N10 N 0.3500(5) 0.1896(5) 0.2744(3)
O16 O 0.3159(7) 0.6407(6) 0.9040(3)
C59 C 0.2549(6) 0.5190(6) 0.9538(4)
C60 C 0.2232(8) 0.4364(6) 0.9411(4)
H55 H 0.202036 0.414859 0.894705
C61 C 0.2226(8) 0.3842(6) 0.9978(4)
H56 H 0.200181 0.327033 0.989306
C62 C 0.2596(7) 0.5781(7) 0.8917(4)
N6 N 0.7667(4) 0.2424(4) 0.2441(3)
H33 H 0.766493 0.225240 0.202241
N7 N 0.6141(4) 0.3654(5) 0.2397(3)
H34 H 0.610519 0.372080 0.282497
N8 N 0.6500(5) 0.6896(5) 0.2256(3)
C41 C 0.9724(8) 0.2249(10) 0.2225(5)
H36 H 0.921262 0.206249 0.182498
C42 C 0.9574(6) 0.2301(6) 0.2864(4)
C45 C 0.8562(6) 0.2016(7) 0.2966(5)
H39 H 0.855283 0.216860 0.344474
H40 H 0.850540 0.138821 0.292061
C46 C 0.6698(6) 0.2126(5) 0.2561(6)
H41 H 0.677261 0.214380 0.307403
C47 C 0.6391(9) 0.1194(8) 0.2282(7)
H42 H 0.685829 0.078295 0.257321
H43 H 0.571157 0.107230 0.230131
H44 H 0.641186 0.114901 0.179765
C48 C 0.5862(6) 0.2732(6) 0.2185(5)
H45 H 0.573142 0.267105 0.167383
H46 H 0.524070 0.258046 0.230164
C49 C 0.5421(6) 0.4253(6) 0.1943(4)
H47 H 0.532188 0.409760 0.144813
H48 H 0.476741 0.420090 0.204024
C50 C 0.5781(5) 0.5185(5) 0.2060(4)
C51 C 0.6338(6) 0.5483(6) 0.2713(4)
H49 H 0.649947 0.510972 0.310370
C52 C 0.6654(7) 0.6318(7) 0.2793(4)
H50 H 0.700153 0.650798 0.324970
C53 C 0.5593(6) 0.5770(6) 0.1515(4)
H51 H 0.522146 0.559396 0.105892
C54 C 0.5928(7) 0.6591(7) 0.1618(4)
H52 H 0.575966 0.697065 0.123112
Zn6 Zn 0.71336(6) 0.80997(7) 0.23474(4)
C50_2 C 0.4219(5) 0.0185(5) 0.2940(4)
C51_2 C 0.3662(6) 0.0483(6) 0.2287(4)
H49_2 H 0.350053 0.010972 0.189630
C52_2 C 0.3346(7) 0.1318(7) 0.2207(4)
H50_2 H 0.299847 0.150798 0.175030
C53_2 C 0.4407(6) 0.0770(6) 0.3485(4)
H51_2 H 0.477854 0.059396 0.394108
C54_2 C 0.4072(7) 0.1591(7) 0.3382(4)
H52_2 H 0.424034 0.197065 0.376888
Zn4 Zn 0.23511(6) 0.87399(7) 0.25654(4)
N6_2 N 0.2333(4) 0.7424(4) 0.2559(3)
H33_2 H 0.233507 0.725240 0.297759
N7_2 N 0.3859(4) 0.8654(5) 0.2603(3)
H34_2 H 0.389481 0.872080 0.217503
C41_2 C 0.0276(8) 0.7249(10) 0.2775(5)
H36_2 H 0.078738 0.706249 0.317502
C42_2 C 0.0426(6) 0.7301(6) 0.2136(4)
C45_2 C 0.1438(6) 0.7016(7) 0.2034(5)
H39_2 H 0.144717 0.716860 0.155526
H40_2 H 0.149460 0.638821 0.207939
C46_2 C 0.3302(6) 0.7126(5) 0.2439(6)
H41_2 H 0.322739 0.714380 0.192597
C47_2 C 0.3609(9) 0.6194(8) 0.2718(7)
H42_2 H 0.314171 0.578295 0.242679
H43_2 H 0.428843 0.607230 0.269869
H44_2 H 0.358814 0.614901 0.320235
C48_2 C 0.4138(6) 0.7732(6) 0.2815(5)
H45_2 H 0.426858 0.767105 0.332617
H46_2 H 0.475930 0.758046 0.269836
C49_2 C 0.4579(6) 0.9253(6) 0.3057(4)
H47_2 H 0.467812 0.909760 0.355187
H48_2 H 0.523259 0.920090 0.295976
O17 O 0.2113(4) 0.9456(4) 0.3311(3)
O19 O 0.1349(4) 0.9277(4) 0.1767(3)
O15 O 0.7887(4) 0.0544(4) 0.6689(3)
O16_2 O 0.6841(7) 0.1407(6) 0.5960(3)
H53_2 H 0.691449 0.018291 0.376762
C58_2 C 0.7094(7) 0.0506(7) 0.4779(4)
H54_2 H 0.683704 0.106906 0.469261
C59_2 C 0.7451(6) 0.0190(6) 0.5462(4)
C62_2 C 0.7404(7) 0.0781(7) 0.6083(4)
Zn7 Zn 0.76489(6) 0.12601(7) 0.74346(4)
O1_2 O 0.2880(4) 0.1148(5) 0.6887(3)
O2_2 O 0.2158(6) 0.2195(5) 0.6159(3)
O5_2 O 0.3333(4) 0.1259(4) 0.8543(2)
O6_2 O 0.4869(4) 0.1245(5) 0.8385(3)
N1_2 N 0.1431(5) 0.2197(5) 0.7711(4)
C1_2 C 0.0731(7) 0.2502(9) 0.7185(5)
H3_2 H 0.087268 0.256928 0.675138
C4_2 C 0.0304(6) 0.2406(8) 0.8429(4)
H5_2 H 0.019055 0.237444 0.887384
C5_2 C 0.1213(7) 0.2154(7) 0.8347(4)
H6_2 H 0.171112 0.194293 0.874289
C16_2 C 0.2517(7) 0.1449(8) 0.6279(5)
C17_2 C 0.2541(6) 0.0859(6) 0.5662(4)
C18_2 C 0.2872(7) 0.0031(7) 0.5769(4)
C21_2 C 0.2232(8) 0.0636(6) 0.4411(4)
H23_2 H 0.202036 0.085141 0.394705
C22_2 C 0.2226(8) 0.1158(6) 0.4978(4)
H24_2 H 0.200181 0.172967 0.489306
C24_2 C 0.4289(6) 0.1033(5) 0.8720(3)
C25_2 C 0.4658(5) 0.0490(5) 0.9383(3)
C26_2 C 0.5647(5) 0.0205(6) 0.9604(3)
H25_2 H 0.608986 0.034523 0.933944
C27_2 C 0.4004(6) 0.0291(6) 0.9782(4)
H26_2 H 0.333304 0.048943 0.963845
C30_2 C 0.0136(7) 0.0012(8) 0.9355(4)
H27_2 H 0.023323 0.001834 0.890419
O9_2 O 0.6667(4) 0.8741(4) 0.1457(2)
O10_2 O 0.5131(4) 0.8755(5) 0.1615(3)
C32_2 C 0.5711(6) 0.8967(5) 0.1280(3)
C33_2 C 0.5342(5) 0.9510(5) 0.0617(3)
C34_2 C 0.4353(5) 0.9795(6) 0.0396(3)
H29_2 H 0.391014 0.965477 0.066056
C35_2 C 0.5996(6) 0.9709(6) 0.0218(4)
H30_2 H 0.666696 0.951057 0.036155
O12_2 O 0.2286(5) 0.8902(6) 0.1097(3)
C36_2 C 0.1522(6) 0.9243(6) 0.1174(4)
C37_2 C 0.0753(6) 0.9640(7) 0.0567(4)
O13_2 O 0.7120(4) 0.8852(5) 0.3113(3)
O14_2 O 0.7842(6) 0.7805(5) 0.3841(3)
N5_2 N 0.8569(5) 0.7803(5) 0.2289(4)
C40_2 C 0.9269(7) 0.7498(9) 0.2815(5)
H35_2 H 0.912732 0.743072 0.324862
C43_2 C 0.9696(6) 0.7594(8) 0.1571(4)
H37_2 H 0.980945 0.762556 0.112616
C44_2 C 0.8787(7) 0.7846(7) 0.1653(4)
H38_2 H 0.828888 0.805707 0.125711
C55_2 C 0.7483(7) 0.8551(8) 0.3721(5)
C56_2 C 0.7459(6) 0.9141(6) 0.4338(4)
C57_2 C 0.7128(7) 0.9969(7) 0.4231(4)
C60_2 C 0.7768(8) 0.9364(6) 0.5589(4)
H55_2 H 0.797964 0.914859 0.605295
C61_2 C 0.7774(8) 0.8842(6) 0.5022(4)
H56_2 H 0.799819 0.827033 0.510694
O4_2 O 0.3159(7) 0.8593(6) 0.4040(3)
H21_2 H 0.308551 0.981709 0.623238
C19_2 C 0.2906(7) 0.9494(7) 0.5221(4)
H22_2 H 0.316296 0.893094 0.530739
C20_2 C 0.2549(6) 0.9810(6) 0.4538(4)
C23_2 C 0.2596(7) 0.9219(7) 0.3917(4)
C39_2 C 0.0878(6) 0.9658(8) 0.9905(4)
H32_2 H 0.146687 0.943068 0.982852
C31_2 C 0.9122(6) 0.0342(8) 0.0095(4)
H28_2 H 0.853313 0.056932 0.017148
O7_2 O 0.8651(4) 0.0723(4) 0.8233(3)
O8_2 O 0.7714(5) 0.1098(6) 0.8903(3)
N2_2 N 0.7667(4) 0.2576(4) 0.7441(3)
H1_2 H 0.766493 0.274760 0.702241
N3_2 N 0.6141(4) 0.1346(5) 0.7397(3)
H2_2 H 0.610519 0.127920 0.782497
C2_2 C 0.9724(8) 0.2751(10) 0.7225(5)
H4_2 H 0.921262 0.293751 0.682498
C3_2 C 0.9574(6) 0.2699(6) 0.7864(4)
C6_2 C 0.8562(6) 0.2984(7) 0.7966(5)
H7_2 H 0.855283 0.283140 0.844474
H8_2 H 0.850540 0.361179 0.792061
C7_2 C 0.6698(6) 0.2874(5) 0.7561(6)
H9_2 H 0.677261 0.285620 0.807403
C8_2 C 0.6391(9) 0.3806(8) 0.7282(7)
H10_2 H 0.685829 0.421705 0.757321
H11_2 H 0.571157 0.392770 0.730131
H12_2 H 0.641186 0.385099 0.679765
C9_2 C 0.5862(6) 0.2268(6) 0.7185(5)
H13_2 H 0.573142 0.232895 0.667383
H14_2 H 0.524070 0.241954 0.730164
C10_2 C 0.5421(6) 0.0747(6) 0.6943(4)
H15_2 H 0.532188 0.090240 0.644813
H16_2 H 0.476741 0.079910 0.704024
C28_2 C 0.8478(6) 0.0757(6) 0.8826(4)
C29_2 C 0.9247(6) 0.0360(7) 0.9433(4)
C38_2 C 0.9864(7) 0.9988(8) 0.0645(4)
H31_2 H 0.976677 0.998166 0.109581
C11_2 C 0.5781(5) 0.9815(5) 0.7060(4)
C12_2 C 0.6338(6) 0.9517(6) 0.7713(4)
H17_2 H 0.649947 0.989028 0.810370
C13_2 C 0.6654(7) 0.8682(7) 0.7793(4)
H18_2 H 0.700153 0.849202 0.824970
C14_2 C 0.5593(6) 0.9230(6) 0.6515(4)
H19_2 H 0.522146 0.940604 0.605892
C15_2 C 0.5928(7) 0.8409(7) 0.6618(4)
H20_2 H 0.575966 0.802935 0.623112
loop_
_geom_bond_atom_site_label_1
_geom_bond_atom_site_label_2
_geom_bond_site_symmetry_1
_geom_bond_site_symmetry_2
Zn2 O7 1_555 1_555
O7 C28 1_555 1_555
O8 C28 1_555 1_555
N2 Zn2 1_555 1_555
H1 N2 1_555 1_555
N3 Zn2 1_555 1_555
H2 N3 1_555 1_555
N4 C13 1_555 1_555
H4 C2 1_555 1_555
C3 C2 1_555 1_555
C6 N2 1_555 1_555
H7 C6 1_555 1_555
H8 C6 1_555 1_555
C7 N2 1_555 1_555
H9 C7 1_555 1_555
C8 C7 1_555 1_555
H10 C8 1_555 1_555
H11 C8 1_555 1_555
H12 C8 1_555 1_555
C9 N3 1_555 1_555
H13 C9 1_555 1_555
H14 C9 1_555 1_555
C10 N3 1_555 1_555
H15 C10 1_555 1_555
H16 C10 1_555 1_555
C11 C10 1_555 1_555
C12 C11 1_555 1_555
H17 C12 1_555 1_555
C13 C12 1_555 1_555
H18 C13 1_555 1_555
C14 C11 1_555 1_555
H19 C14 1_555 1_555
C15 N4 1_555 1_555
H20 C15 1_555 1_555
C28 C29 1_555 1_555
C31 C29 1_555 1_555
H28 C31 1_555 1_555
C38 C31 1_555 1_555
H31 C38 1_555 1_555
Zn5 N4 1_555 1_555
O18 Zn2 1_555 1_555
C3 C6 1_555 1_555
C7 C9 1_555 1_555
C14 C15 1_555 1_555
O3 C23 1_555 1_555
O4 C23 1_555 1_555
C21 C20 1_555 1_555
H23 C21 1_555 1_555
H24 C22 1_555 1_555
C23 C20 1_555 1_555
Zn9 O3 1_555 1_555
C21 C22 1_555 1_555
Zn1 O1 1_555 1_555
O1 C16 1_555 1_555
O2 C16 1_555 1_555
O5 Zn1 1_555 1_555
O6 C24 1_555 1_555
N1 Zn1 1_555 1_555
C1 N1 1_555 1_555
H3 C1 1_555 1_555
H5 C4 1_555 1_555
C5 N1 1_555 1_555
H6 C5 1_555 1_555
C16 C17 1_555 1_555
C17 C18 1_555 1_555
C18 H21 1_555 1_555
C19 C18 1_555 1_555
H22 C19 1_555 1_555
C24 O5 1_555 1_555
C25 C24 1_555 1_555
C26 C25 1_555 1_555
H25 C26 1_555 1_555
C27 C25 1_555 1_555
H26 C27 1_555 1_555
C30 H27 1_555 1_555
O9 C32 1_555 1_555
O10 C32 1_555 1_555
C32 C33 1_555 1_555
C33 C34 1_555 1_555
C34 C27 1_555 1_555
H29 C34 1_555 1_555
C35 C26 1_555 1_555
H30 C35 1_555 1_555
O11 C36 1_555 1_555
O12 C36 1_555 1_555
C36 C37 1_555 1_555
C39 C30 1_555 1_555
H32 C39 1_555 1_555
Zn3 O9 1_555 1_555
O13 Zn3 1_555 1_555
O14 C55 1_555 1_555
N5 Zn3 1_555 1_555
C40 N5 1_555 1_555
H35 C40 1_555 1_555
H37 C43 1_555 1_555
C44 N5 1_555 1_555
H38 C44 1_555 1_555
C55 O13 1_555 1_555
C56 C55 1_555 1_555
C57 C56 1_555 1_555
H53 C57 1_555 1_555
C58 C57 1_555 1_555
H54 C58 1_555 1_555
Zn9 O11 1_555 1_555
N9 Zn1 1_555 1_555
N10 Zn3 1_555 1_555
C4 C5 1_555 1_555
C33 C35 1_555 1_555
C37 C39 1_555 1_555
C43 C44 1_555 1_555
O18 C62 1_555 1_555
O16 C62 1_555 1_555
C60 C59 1_555 1_555
H55 C60 1_555 1_555
H56 C61 1_555 1_555
C62 C59 1_555 1_555
C60 C61 1_555 1_555
Zn9 N6 1_555 1_555
N6 H33 1_555 1_555
N7 Zn9 1_555 1_555
H34 N7 1_555 1_555
N8 C52 1_555 1_555
H36 C41 1_555 1_555
C42 C41 1_555 1_555
C45 N6 1_555 1_555
H39 C45 1_555 1_555
H40 C45 1_555 1_555
C46 N6 1_555 1_555
H41 C46 1_555 1_555
C47 C46 1_555 1_555
H42 C47 1_555 1_555
H43 C47 1_555 1_555
H44 C47 1_555 1_555
C48 N7 1_555 1_555
H45 C48 1_555 1_555
H46 C48 1_555 1_555
C49 N7 1_555 1_555
H47 C49 1_555 1_555
H48 C49 1_555 1_555
C50 C49 1_555 1_555
C51 C50 1_555 1_555
H49 C51 1_555 1_555
C52 C51 1_555 1_555
H50 C52 1_555 1_555
C53 C50 1_555 1_555
H51 C53 1_555 1_555
C54 N8 1_555 1_555
H52 C54 1_555 1_555
Zn6 N8 1_555 1_555
C42 C45 1_555 1_555
C46 C48 1_555 1_555
C53 C54 1_555 1_555
N10 C52_2 1_555 1_555
C51_2 C50_2 1_555 1_555
H49_2 C51_2 1_555 1_555
C52_2 C51_2 1_555 1_555
H50_2 C52_2 1_555 1_555
C53_2 C50_2 1_555 1_555
H51_2 C53_2 1_555 1_555
C54_2 N10 1_555 1_555
H52_2 C54_2 1_555 1_555
C53_2 C54_2 1_555 1_555
Zn4 N6_2 1_555 1_555
N6_2 H33_2 1_555 1_555
N7_2 Zn4 1_555 1_555
H34_2 N7_2 1_555 1_555
H36_2 C41_2 1_555 1_555
C42_2 C41_2 1_555 1_555
C45_2 N6_2 1_555 1_555
H39_2 C45_2 1_555 1_555
H40_2 C45_2 1_555 1_555
C46_2 N6_2 1_555 1_555
H41_2 C46_2 1_555 1_555
C47_2 C46_2 1_555 1_555
H42_2 C47_2 1_555 1_555
H43_2 C47_2 1_555 1_555
H44_2 C47_2 1_555 1_555
C48_2 N7_2 1_555 1_555
H45_2 C48_2 1_555 1_555
H46_2 C48_2 1_555 1_555
C49_2 N7_2 1_555 1_555
H47_2 C49_2 1_555 1_555
H48_2 C49_2 1_555 1_555
O17 Zn4 1_555 1_555
O19 Zn4 1_555 1_555
C42_2 C45_2 1_555 1_555
C46_2 C48_2 1_555 1_555
O15 C62_2 1_555 1_555
O16_2 C62_2 1_555 1_555
H54_2 C58_2 1_555 1_555
C59_2 C58_2 1_555 1_555
C62_2 C59_2 1_555 1_555
Zn7 O15 1_555 1_555
Zn5 O1_2 1_555 1_555
O1_2 C16_2 1_555 1_555
O2_2 C16_2 1_555 1_555
O5_2 Zn5 1_555 1_555
O6_2 C24_2 1_555 1_555
N1_2 Zn5 1_555 1_555
C1_2 N1_2 1_555 1_555
H3_2 C1_2 1_555 1_555
H5_2 C4_2 1_555 1_555
C5_2 N1_2 1_555 1_555
H6_2 C5_2 1_555 1_555
C16_2 C17_2 1_555 1_555
C17_2 C18_2 1_555 1_555
H23_2 C21_2 1_555 1_555
C22_2 C17_2 1_555 1_555
H24_2 C22_2 1_555 1_555
C24_2 O5_2 1_555 1_555
C25_2 C24_2 1_555 1_555
C26_2 C25_2 1_555 1_555
H25_2 C26_2 1_555 1_555
C27_2 C25_2 1_555 1_555
H26_2 C27_2 1_555 1_555
C30_2 H27_2 1_555 1_555
C4_2 C5_2 1_555 1_555
C21_2 C22_2 1_555 1_555
O9_2 C32_2 1_555 1_555
O10_2 C32_2 1_555 1_555
C32_2 C33_2 1_555 1_555
C33_2 C34_2 1_555 1_555
H29_2 C34_2 1_555 1_555
H30_2 C35_2 1_555 1_555
O19 C36_2 1_555 1_555
O12_2 C36_2 1_555 1_555
C36_2 C37_2 1_555 1_555
Zn6 O9_2 1_555 1_555
O13_2 Zn6 1_555 1_555
O14_2 C55_2 1_555 1_555
N5_2 Zn6 1_555 1_555
C40_2 N5_2 1_555 1_555
H35_2 C40_2 1_555 1_555
H37_2 C43_2 1_555 1_555
C44_2 N5_2 1_555 1_555
H38_2 C44_2 1_555 1_555
C55_2 O13_2 1_555 1_555
C56_2 C55_2 1_555 1_555
C57_2 C56_2 1_555 1_555
H55_2 C60_2 1_555 1_555
C61_2 C56_2 1_555 1_555
H56_2 C61_2 1_555 1_555
C33_2 C35_2 1_555 1_555
C43_2 C44_2 1_555 1_555
C60_2 C61_2 1_555 1_555
O17 C23_2 1_555 1_555
O4_2 C23_2 1_555 1_555
H22_2 C19_2 1_555 1_555
C20_2 C19_2 1_555 1_555
C23_2 C20_2 1_555 1_555
H32_2 C39_2 1_555 1_555
H28_2 C31_2 1_555 1_555
Zn7 O7_2 1_555 1_555
O7_2 C28_2 1_555 1_555
O8_2 C28_2 1_555 1_555
N2_2 Zn7 1_555 1_555
H1_2 N2_2 1_555 1_555
N3_2 Zn7 1_555 1_555
H2_2 N3_2 1_555 1_555
H4_2 C2_2 1_555 1_555
C3_2 C2_2 1_555 1_555
C6_2 N2_2 1_555 1_555
H7_2 C6_2 1_555 1_555
H8_2 C6_2 1_555 1_555
C7_2 N2_2 1_555 1_555
H9_2 C7_2 1_555 1_555
C8_2 C7_2 1_555 1_555
H10_2 C8_2 1_555 1_555
H11_2 C8_2 1_555 1_555
H12_2 C8_2 1_555 1_555
C9_2 N3_2 1_555 1_555
H13_2 C9_2 1_555 1_555
H14_2 C9_2 1_555 1_555
C10_2 N3_2 1_555 1_555
H15_2 C10_2 1_555 1_555
H16_2 C10_2 1_555 1_555
C28_2 C29_2 1_555 1_555
C3_2 C6_2 1_555 1_555
C7_2 C9_2 1_555 1_555
H31_2 C38_2 1_555 1_555
N9 C13_2 1_555 1_555
C12_2 C11_2 1_555 1_555
H17_2 C12_2 1_555 1_555
C13_2 C12_2 1_555 1_555
H18_2 C13_2 1_555 1_555
C14_2 C11_2 1_555 1_555
H19_2 C14_2 1_555 1_555
C15_2 N9 1_555 1_555
H20_2 C15_2 1_555 1_555
C14_2 C15_2 1_555 1_555

#END
