
###############################################################################
#
# This file contains modified crystal structure data generated from the
# MOF subset of the Cambridge Structural Database (CSD) v543 
# hosted by the Cambridge Crystallographic Data Centre (CCDC).
#
# This work is licensed under the Creative Commons
# Attribution-NonCommercial-ShareAlike 4.0 International License.
# To view a copy of this license, visit
# http://creativecommons.org/licenses/by-nc-sa/4.0/
# or send a letter to
# Creative Commons, PO Box 1866, Mountain View, CA 94042, USA.
#
# CIF created using the CSD Python API on 29 September 2022
# The structure has been converted into the P1 space group
# The structure has a 3D framework
# The original CSD entry GOSXOE is in the monoclinic crystal system
# The framework has been calculated to contain at least 10.0% void space
# The void calculation uses a probe of radius 1.32A, grid spacing 0.4
#
###############################################################################

data_GOSXOE
_chemical_formula_moiety         '(C24 H24 Mn17 O46)n'
_symmetry_cell_setting           triclinic
_symmetry_space_group_name_H-M   'P 1'
_symmetry_Int_Tables_number      1
_space_group_name_Hall           'P 1'
loop_
_symmetry_equiv_pos_site_id
_symmetry_equiv_pos_as_xyz
1 x,y,z
_cell_length_a                   11.667(2)
_cell_length_b                   10.2138(18)
_cell_length_c                   15.111(3)
_cell_angle_alpha                90
_cell_angle_beta                 91.619(3)
_cell_angle_gamma                90
_cell_volume                     1799.97
loop_
_atom_site_label
_atom_site_type_symbol
_atom_site_fract_x
_atom_site_fract_y
_atom_site_fract_z
Mn11 Mn -0.000000 0.500000 0.000000
Mn2 Mn 0.500000 -0.000000 0.500000
Mn4 Mn 0.000000 -0.000000 0.500000
O1 O 0.15479(17) 0.0946(2) 0.54387(16)
O2 O 0.31338(15) 0.02881(17) 0.47993(12)
O12 O 0.15036(15) 0.08569(15) 0.30557(12)
C1 C 0.2579(2) 0.0947(3) 0.5362(2)
H1 H 0.300404 0.147646 0.574939
C6 C 0.0592(3) 0.1458(3) 0.3229(2)
H6 H 0.036558 0.212228 0.284095
O20 O 0.03721(17) 0.4908(2) 0.86128(14)
H10 H 0.017678 0.453591 0.743269
H11 H 0.006494 0.286880 0.535841
Mn11_2 Mn -0.000000 0.500000 1.000000
Mn13 Mn 0.26072(3) 0.11526(3) 0.19244(3)
O26 O 0.52154(18) 0.20875(19) 0.50823(15)
O29 O 0.37315(16) 0.01506(16) 0.28555(12)
O31 O 0.53721(17) 0.0092(2) 0.36128(14)
Mn1 Mn 0.24386(3) 0.92446(3) 0.36841(3)
Mn2_2 Mn 0.500000 1.000000 0.500000
Mn3 Mn 0.23928(3) 0.61526(3) 0.30756(3)
Mn4_2 Mn 0.000000 1.000000 0.500000
O3 O 0.47846(18) 0.79125(19) 0.49177(15)
O4 O 0.34343(15) 0.74479(16) 0.38878(12)
O5 O 0.30683(19) 0.44328(17) 0.36523(13)
O6 O 0.30365(16) 0.30685(15) 0.25034(12)
O7 O 0.12685(16) 0.51506(16) 0.21445(12)
O9 O 0.10061(17) 0.63425(16) 0.39456(13)
O10 O 0.09594(15) 0.84554(15) 0.43221(12)
C2 C 0.4243(3) 0.7156(3) 0.4434(2)
H2 H 0.444557 0.627625 0.446972
C3 C 0.3210(3) 0.3350(3) 0.33070(18)
H3 H 0.347093 0.267825 0.367645
C4 C 0.0214(3) 0.5248(3) 0.2060(2)
C5 C 0.0591(3) 0.7288(3) 0.43221(19)
O23 O 0.00245(18) 0.8744(2) 0.61440(15)
Mn7 Mn 0.25614(3) 0.42446(3) 0.13159(3)
O25 O 0.68662(15) 0.97119(17) 0.52007(12)
O27 O 0.19635(16) 0.80685(15) 0.24966(12)
O32 O 0.46279(17) 0.9908(2) 0.63872(14)
O33 O 0.34964(15) 0.58569(15) 0.19443(12)
Mn11_3 Mn 1.000000 0.500000 0.000000
Mn4_3 Mn 1.000000 -0.000000 0.500000
O11 O 0.99755(18) 0.1256(2) 0.38560(15)
Mn5 Mn 0.75614(3) 0.07554(3) 0.63159(3)
Mn6 Mn 0.76072(3) 0.38474(3) 0.69244(3)
O16 O 0.65657(15) 0.25521(16) 0.61122(12)
O17 O 0.69317(19) 0.55672(17) 0.63477(13)
O18 O 0.69635(16) 0.69315(15) 0.74966(12)
O19 O 0.87315(16) 0.48494(16) 0.78555(12)
O21 O 0.89939(17) 0.36575(16) 0.60544(13)
O22 O 0.90406(15) 0.15446(15) 0.56779(12)
C8 C 0.5757(3) 0.2844(3) 0.5566(2)
H8 H 0.555443 0.372375 0.553028
C9 C 0.6790(3) 0.6650(3) 0.66930(18)
H9 H 0.652907 0.732175 0.632355
C10 C 0.9786(3) 0.4752(3) 0.7940(2)
C11 C 0.9409(3) 0.2712(3) 0.56779(19)
Mn8 Mn 0.74386(3) 0.57554(3) 0.86841(3)
Mn11_4 Mn 1.000000 0.500000 1.000000
Mn15 Mn 0.73928(3) 0.88474(3) 0.80756(3)
O28 O 0.80365(16) 0.19315(15) 0.75034(12)
O34 O 0.65036(15) 0.41431(15) 0.80557(12)
Mn4_4 Mn 1.000000 1.000000 0.500000
O8 O 0.96279(17) 0.5092(2) 0.13872(14)
H4 H 0.982322 0.546409 0.256731
H5 H 0.993506 0.713120 0.464159
O13 O 0.84521(17) 0.9054(2) 0.45613(16)
O24 O 0.84964(15) 0.91431(15) 0.69443(12)
C7 C 0.7421(2) 0.9053(3) 0.4638(2)
H7 H 0.699596 0.852354 0.425061
C12 C 0.9408(3) 0.8542(3) 0.6771(2)
H12 H 0.963442 0.787772 0.715905
O30 O 0.62685(16) 0.98494(16) 0.71445(12)
O17_2 O 0.80683(19) 0.05672(17) 0.86523(13)
C9_2 C 0.8210(3) 0.1650(3) 0.83070(18)
H9_2 H 0.847093 0.232175 0.867645
Mn4_5 Mn 0.500000 0.500000 0.000000
O2_2 O 0.18662(15) 0.52881(17) 0.02007(12)
O3_2 O 0.02154(18) 0.29125(19) 0.00823(15)
O4_2 O 0.15657(15) 0.24479(16) 0.11122(12)
O9_2 O 0.39939(17) 0.13425(16) 0.10544(13)
O10_2 O 0.40406(15) 0.34554(15) 0.06779(12)
O11_2 O 0.50245(18) 0.6256(2) 0.11440(15)
C2_2 C 0.0757(3) 0.2156(3) 0.0566(2)
H2_2 H 0.055443 0.127625 0.053028
C4_2 C 0.4786(3) 0.0248(3) 0.2940(2)
H4_2 H 0.517678 0.046409 0.243269
C5_2 C 0.4409(3) 0.2288(3) 0.06779(19)
H5_2 H 0.506494 0.213120 0.035841
C6_2 C 0.4408(3) 0.6458(3) 0.1771(2)
H6_2 H 0.463442 0.712228 0.215905
O13_2 O 0.65479(17) 0.4054(2) 0.04387(16)
C7_2 C 0.7579(2) 0.4053(3) 0.0362(2)
H7_2 H 0.800404 0.352354 0.074939
Mn4_6 Mn 0.500000 0.500000 1.000000
O1_2 O 0.34521(17) 0.5946(2) 0.95613(16)
C1_2 C 0.2421(2) 0.5947(3) 0.9638(2)
H1_2 H 0.199596 0.647646 0.925061
O14 O 0.81338(15) 0.47119(17) 0.97993(12)
O15 O 0.97846(18) 0.70875(19) 0.99177(15)
O16_2 O 0.84343(15) 0.75521(16) 0.88878(12)
O21_2 O 0.60061(17) 0.86575(16) 0.89456(13)
O22_2 O 0.59594(15) 0.65446(15) 0.93221(12)
O23_2 O 0.49755(18) 0.3744(2) 0.88560(15)
C8_2 C 0.9243(3) 0.7844(3) 0.9434(2)
H8_2 H 0.944557 0.872375 0.946972
C10_2 C 0.5214(3) 0.9752(3) 0.7060(2)
H10_2 H 0.482322 0.953591 0.756731
C11_2 C 0.5591(3) 0.7712(3) 0.93221(19)
H11_2 H 0.493506 0.786880 0.964159
C12_2 C 0.5592(3) 0.3542(3) 0.8229(2)
H12_2 H 0.536558 0.287772 0.784095
O5_2 O 0.19317(19) 0.94328(17) 0.13477(13)
C3_2 C 0.1790(3) 0.8350(3) 0.16930(18)
H3_2 H 0.152907 0.767825 0.132355
loop_
_geom_bond_atom_site_label_1
_geom_bond_atom_site_label_2
_geom_bond_site_symmetry_1
_geom_bond_site_symmetry_2
Mn2 O2 1_555 1_555
Mn4 O1 1_555 1_555
O1 C1 1_555 1_555
O2 C1 1_555 1_555
C1 H1 1_555 1_555
H6 C6 1_555 1_555
Mn11_2 O20 1_555 1_555
Mn13 O12 1_555 1_555
O26 Mn2 1_555 1_555
O31 Mn2 1_555 1_555
O12 C6 1_555 1_555
Mn13 O29 1_555 1_555
Mn3 O4 1_555 1_555
O3 Mn2_2 1_555 1_555
O4 Mn1 1_555 1_555
O5 Mn3 1_555 1_555
O6 C3 1_555 1_555
O7 Mn3 1_555 1_555
O9 Mn3 1_555 1_555
O10 Mn1 1_555 1_555
C2 O3 1_555 1_555
H2 C2 1_555 1_555
C3 O5 1_555 1_555
H3 C3 1_555 1_555
C4 O7 1_555 1_555
C5 O9 1_555 1_555
O23 Mn4_2 1_555 1_555
Mn7 O6 1_555 1_555
Mn13 O6 1_555 1_555
O25 Mn2_2 1_555 1_555
O27 Mn1 1_555 1_555
O32 Mn2_2 1_555 1_555
O33 Mn3 1_555 1_555
Mn3 O27 1_555 1_555
Mn4_2 O10 1_555 1_555
O4 C2 1_555 1_555
O7 Mn7 1_555 1_555
O10 C5 1_555 1_555
Mn7 O33 1_555 1_555
O11 Mn4_3 1_555 1_555
Mn6 O16 1_555 1_555
O26 C8 1_555 1_555
O16 Mn5 1_555 1_555
O17 Mn6 1_555 1_555
O18 C9 1_555 1_555
O19 Mn6 1_555 1_555
O21 Mn6 1_555 1_555
O22 Mn4_3 1_555 1_555
C8 O16 1_555 1_555
H8 C8 1_555 1_555
C9 O17 1_555 1_555
H9 C9 1_555 1_555
C10 O19 1_555 1_555
C11 O21 1_555 1_555
Mn8 O18 1_555 1_555
Mn15 O18 1_555 1_555
O28 Mn5 1_555 1_555
O34 Mn6 1_555 1_555
Mn5 O22 1_555 1_555
Mn6 O28 1_555 1_555
O19 Mn8 1_555 1_555
O22 C11 1_555 1_555
Mn8 O34 1_555 1_555
O13 Mn4_4 1_555 1_555
O25 C7 1_555 1_555
C7 O13 1_555 1_555
H7 C7 1_555 1_555
H12 C12 1_555 1_555
Mn11_3 O8 1_555 1_555
Mn15 O24 1_555 1_555
O24 C12 1_555 1_555
Mn15 O30 1_555 1_555
O28 C9_2 1_555 1_555
C9_2 O17_2 1_555 1_555
H9_2 C9_2 1_555 1_555
Mn7 O2_2 1_555 1_555
Mn11 O2_2 1_555 1_555
Mn13 O4_2 1_555 1_555
O3_2 Mn11 1_555 1_555
O4_2 Mn7 1_555 1_555
O31 C4_2 1_555 1_555
O9_2 Mn13 1_555 1_555
O10_2 Mn7 1_555 1_555
O11_2 Mn4_5 1_555 1_555
C2_2 O3_2 1_555 1_555
H2_2 C2_2 1_555 1_555
C4_2 O29 1_555 1_555
H4_2 C4_2 1_555 1_555
C5_2 O9_2 1_555 1_555
H5_2 C5_2 1_555 1_555
C6_2 O11_2 1_555 1_555
H6_2 C6_2 1_555 1_555
O13_2 Mn4_5 1_555 1_555
C7_2 O13_2 1_555 1_555
H7_2 C7_2 1_555 1_555
Mn4_5 O10_2 1_555 1_555
O4_2 C2_2 1_555 1_555
O10_2 C5_2 1_555 1_555
O33 C6_2 1_555 1_555
Mn4_6 O1_2 1_555 1_555
O1_2 C1_2 1_555 1_555
C1_2 H1_2 1_555 1_555
Mn8 O14 1_555 1_555
Mn15 O16_2 1_555 1_555
O15 C8_2 1_555 1_555
O16_2 Mn8 1_555 1_555
O32 C10_2 1_555 1_555
O21_2 Mn15 1_555 1_555
O22_2 Mn4_6 1_555 1_555
O23_2 Mn4_6 1_555 1_555
C8_2 O16_2 1_555 1_555
H8_2 C8_2 1_555 1_555
C10_2 O30 1_555 1_555
H10_2 C10_2 1_555 1_555
C11_2 O21_2 1_555 1_555
H11_2 C11_2 1_555 1_555
C12_2 O23_2 1_555 1_555
H12_2 C12_2 1_555 1_555
Mn11_4 O14 1_555 1_555
Mn8 O22_2 1_555 1_555
O15 Mn11_4 1_555 1_555
O22_2 C11_2 1_555 1_555
O34 C12_2 1_555 1_555
O27 C3_2 1_555 1_555
C3_2 O5_2 1_555 1_555
H3_2 C3_2 1_555 1_555

#END
