
###############################################################################
#
# This file contains modified crystal structure data generated from the
# MOF subset of the Cambridge Structural Database (CSD) v543 
# hosted by the Cambridge Crystallographic Data Centre (CCDC).
#
# This work is licensed under the Creative Commons
# Attribution-NonCommercial-ShareAlike 4.0 International License.
# To view a copy of this license, visit
# http://creativecommons.org/licenses/by-nc-sa/4.0/
# or send a letter to
# Creative Commons, PO Box 1866, Mountain View, CA 94042, USA.
#
# CIF created using the CSD Python API on 29 September 2022
# The structure has been converted into the P1 space group
# The structure has a 3D framework
# The original CSD entry GOTZOH is in the triclinic crystal system
# The framework has been calculated to contain at least 10.0% void space
# The void calculation uses a probe of radius 1.32A, grid spacing 0.4
#
###############################################################################

data_GOTZOH
_chemical_formula_moiety         '(C56 H40 Cu4 N4 O20)n'
_symmetry_cell_setting           triclinic
_symmetry_space_group_name_H-M   'P 1'
_symmetry_Int_Tables_number      1
_space_group_name_Hall           'P 1'
loop_
_symmetry_equiv_pos_site_id
_symmetry_equiv_pos_as_xyz
1 x,y,z
_cell_length_a                   11.2403(4)
_cell_length_b                   11.5984(5)
_cell_length_c                   11.8532(5)
_cell_angle_alpha                90.9880(10)
_cell_angle_beta                 93.6710(10)
_cell_angle_gamma                100.6850(10)
_cell_volume                     1514.72
loop_
_atom_site_label
_atom_site_type_symbol
_atom_site_fract_x
_atom_site_fract_y
_atom_site_fract_z
_atom_site_U_iso_or_equiv
_atom_site_thermal_displace_type
O5 O 0.1166(2) 0.0822(2) 0.1543(2) 0.0338 Uani
O7 O 0.1060(2) 0.43910(19) 0.46800(18) 0.0271 Uani
C5 C 0.2226(3) 0.0653(3) 0.2140(3) 0.0303 Uani
C6 C 0.3285(4) 0.1454(3) 0.2122(4) 0.0424 Uani
H5 H 0.3302 0.2150 0.1739 0.0510 Uiso
C7 C 0.4328(4) 0.1221(3) 0.2675(4) 0.0486 Uani
H6 H 0.5048 0.1766 0.2674 0.0580 Uiso
C8 C 0.4306(3) 0.0184(3) 0.3230(4) 0.0417 Uani
H7 H 0.5014 0.0027 0.3593 0.0500 Uiso
C9 C 0.0792(3) 0.1882(3) 0.1714(3) 0.0294 Uani
C10 C 0.0785(3) 0.2370(3) 0.2787(3) 0.0290 Uani
H8 H 0.1089 0.2020 0.3415 0.0350 Uiso
C11 C 0.0315(3) 0.3393(3) 0.2913(3) 0.0231 Uani
C12 C 0.0162(3) 0.3798(3) 0.4102(3) 0.0241 Uani
C16 C 0.0331(3) 0.2381(3) 0.0776(3) 0.0349 Uani
H10 H 0.0322 0.2034 0.0062 0.0420 Uiso
Cu6 Cu 0.17179(3) 0.60146(3) 0.42778(3) 0.0251 Uani
O1 O 0.2171(2) 0.7627(2) 0.3919(2) 0.0292 Uani
O2 O 0.4170(2) 0.7990(3) 0.4276(3) 0.0552 Uani
O3 O 0.0559(2) 0.80571(19) 0.19989(19) 0.0279 Uani
O4 O 0.0314(2) 0.9023(2) 0.3561(2) 0.0380 Uani
O10 O 0.3445(3) 0.6109(3) 0.5633(3) 0.0499 Uani
H1 H 0.338(5) 0.618(3) 0.6335(19) 0.1100 Uiso
H2 H 0.386(6) 0.676(3) 0.544(5) 0.1400 Uiso
N1 N 0.2692(3) 0.5550(3) 0.3053(2) 0.0302 Uani
C1 C 0.3214(3) 0.8245(3) 0.3875(3) 0.0307 Uani
C2 C 0.3236(3) 0.9373(3) 0.3251(3) 0.0295 Uani
C3 C 0.2163(3) 0.9601(3) 0.2706(3) 0.0260 Uani
C4 C 0.0941(3) 0.8827(3) 0.2779(3) 0.0266 Uani
C17 C 0.3537(3) 0.4897(3) 0.3256(3) 0.0387 Uani
H11 H 0.3624 0.4595 0.3972 0.0460 Uiso
C18 C 0.2568(3) 0.5960(3) 0.2010(3) 0.0355 Uani
H12 H 0.1983 0.6418 0.1858 0.0430 Uiso
C19 C 0.4286(4) 0.4651(3) 0.2443(3) 0.0413 Uani
H13 H 0.4875 0.4205 0.2624 0.0490 Uiso
C20 C 0.3269(3) 0.5730(4) 0.1159(3) 0.0396 Uani
H14 H 0.3144 0.6021 0.0443 0.0470 Uiso
C21 C 0.4167(3) 0.5063(3) 0.1365(3) 0.0369 Uani
C22 C 0.4980(4) 0.4803(4) 0.0510(3) 0.0419 Uani
H15 H 0.5517 0.4310 0.0718 0.0500 Uiso
O24 O 0.0860(2) 0.6545(2) 0.5554(2) 0.0331 Uani
N4 N 0.2047(2) 0.1887(2) 0.8270(2) 0.0291 Uani
C35 C 0.3211(4) 0.2339(4) 0.8506(4) 0.0612 Uani
H26 H 0.3495 0.3112 0.8320 0.0730 Uiso
C36 C 0.1678(3) 0.0786(3) 0.8553(3) 0.0388 Uani
H27 H 0.0865 0.0451 0.8401 0.0470 Uiso
C37 C 0.4018(4) 0.1714(4) 0.9015(5) 0.0717 Uani
H28 H 0.4826 0.2069 0.9165 0.0860 Uiso
C38 C 0.2439(4) 0.0109(3) 0.9064(4) 0.0443 Uani
C39 C 0.3633(3) 0.0567(3) 0.9303(3) 0.0417 Uani
Cu4 Cu 0.09610(3) 0.28690(3) 0.75143(3) 0.0252 Uani
O22 O 0.2219(2) 0.3542(3) 0.6527(2) 0.0401 Uani
H33 H 0.262(5) 0.310(4) 0.619(5) 0.1100 Uiso
H34 H 0.202(4) 0.396(3) 0.600(3) 0.0450 Uiso
O28 O 0.0120(2) 0.42046(19) 0.71401(19) 0.0268 Uani
O30 O 0.1368(3) 0.4731(2) 0.8646(2) 0.0450 Uani
H29 H 0.2132 0.9338 0.9243 0.0530 Uiso
C40 C 0.4437(4) 0.9847(4) 0.9848(4) 0.0512 Uani
H30 H 0.4084 0.9077 0.9988 0.0610 Uiso
C53 C 0.0122(3) 0.6067(3) 0.8028(3) 0.0251 Uani
C54 C 0.0580(3) 0.4939(3) 0.7941(3) 0.0275 Uani
C55 C 0.0121(3) 0.6591(3) 0.9092(3) 0.0335 Uani
H39 H 0.0427 0.6249 0.9724 0.0400 Uiso
N3 N 0.7308(3) 0.4450(3) 0.6947(2) 0.0302 Uani
C29 C 0.6463(3) 0.5103(3) 0.6744(3) 0.0387 Uani
H21 H 0.6376 0.5405 0.6028 0.0460 Uiso
C30 C 0.7432(3) 0.4040(3) 0.7990(3) 0.0355 Uani
H22 H 0.8017 0.3582 0.8142 0.0430 Uiso
C31 C 0.5714(4) 0.5349(3) 0.7557(3) 0.0413 Uani
H23 H 0.5125 0.5795 0.7376 0.0490 Uiso
C32 C 0.6731(3) 0.4270(4) 0.8841(3) 0.0396 Uani
H24 H 0.6856 0.3979 0.9557 0.0470 Uiso
C33 C 0.5833(3) 0.4937(3) 0.8635(3) 0.0369 Uani
C34 C 0.5020(4) 0.5197(4) 0.9490(3) 0.0419 Uani
H25 H 0.4483 0.5690 0.9282 0.0500 Uiso
Cu9 Cu 0.82821(3) 0.39854(3) 0.57222(3) 0.0251 Uani
O6 O 0.9140(2) 0.3455(2) 0.4446(2) 0.0331 Uani
O8 O 0.9880(2) 0.57954(19) 0.28599(19) 0.0268 Uani
O9 O 0.8632(3) 0.5269(2) 0.1354(2) 0.0450 Uani
C13 C 0.9878(3) 0.3933(3) 0.1972(3) 0.0251 Uani
C14 C 0.9420(3) 0.5061(3) 0.2059(3) 0.0275 Uani
C15 C 0.9879(3) 0.3409(3) 0.0908(3) 0.0335 Uani
H9 H 0.9573 0.3751 0.0276 0.0400 Uiso
H19 H 0.7868 0.0662 0.0757 0.0530 Uiso
C28 C 0.5563(4) 0.0153(4) 0.0152(4) 0.0512 Uani
H20 H 0.5916 0.0923 0.0012 0.0610 Uiso
Cu10 Cu 0.90390(3) 0.71310(3) 0.24857(3) 0.0252 Uani
O11 O 0.7781(2) 0.6458(3) 0.3473(2) 0.0401 Uani
H3 H 0.738(5) 0.690(4) 0.381(5) 0.1100 Uiso
H4 H 0.798(4) 0.604(3) 0.400(3) 0.0450 Uiso
N2 N 0.7953(2) 0.8113(2) 0.1730(2) 0.0291 Uani
C23 C 0.6789(4) 0.7661(4) 0.1494(4) 0.0612 Uani
H16 H 0.6505 0.6888 0.1680 0.0730 Uiso
C24 C 0.8322(3) 0.9214(3) 0.1447(3) 0.0388 Uani
H17 H 0.9135 0.9549 0.1599 0.0470 Uiso
C25 C 0.5982(4) 0.8286(4) 0.0985(5) 0.0717 Uani
H18 H 0.5174 0.7931 0.0835 0.0860 Uiso
C26 C 0.7561(4) 0.9891(3) 0.0936(4) 0.0443 Uani
C27 C 0.6367(3) 0.9433(3) 0.0697(3) 0.0417 Uani
O12 O 0.7829(2) 0.2373(2) 0.6081(2) 0.0292 Uani
O13 O 0.5830(2) 0.2010(3) 0.5724(3) 0.0552 Uani
O14 O 0.9441(2) 0.19429(19) 0.80011(19) 0.0279 Uani
O15 O 0.9686(2) 0.0977(2) 0.6439(2) 0.0380 Uani
O21 O 0.6555(3) 0.3891(3) 0.4367(3) 0.0499 Uani
H31 H 0.662(5) 0.382(3) 0.3665(19) 0.1100 Uiso
H32 H 0.614(6) 0.324(3) 0.456(5) 0.1400 Uiso
C41 C 0.6786(3) 0.1755(3) 0.6125(3) 0.0307 Uani
C42 C 0.6764(3) 0.0627(3) 0.6749(3) 0.0295 Uani
C43 C 0.7837(3) 0.0399(3) 0.7294(3) 0.0260 Uani
C44 C 0.9059(3) 0.1173(3) 0.7221(3) 0.0266 Uani
O26 O 0.8940(2) 0.56090(19) 0.53200(18) 0.0271 Uani
O16 O 0.8834(2) 0.9178(2) 0.8457(2) 0.0338 Uani
C45 C 0.7774(3) 0.9347(3) 0.7860(3) 0.0303 Uani
C46 C 0.6715(4) 0.8546(3) 0.7878(4) 0.0424 Uani
H35 H 0.6698 0.7850 0.8261 0.0510 Uiso
C47 C 0.5672(4) 0.8779(3) 0.7325(4) 0.0486 Uani
H36 H 0.4952 0.8234 0.7326 0.0580 Uiso
C48 C 0.5694(3) 0.9816(3) 0.6770(4) 0.0417 Uani
H37 H 0.4986 0.9973 0.6407 0.0500 Uiso
C49 C 0.9208(3) 0.8118(3) 0.8286(3) 0.0294 Uani
C50 C 0.9215(3) 0.7630(3) 0.7213(3) 0.0290 Uani
H38 H 0.8911 0.7980 0.6585 0.0350 Uiso
C51 C 0.9685(3) 0.6607(3) 0.7087(3) 0.0231 Uani
C52 C 0.9838(3) 0.6202(3) 0.5898(3) 0.0241 Uani
C56 C 0.9669(3) 0.7619(3) 0.9224(3) 0.0349 Uani
H40 H 0.9678 0.7966 0.9938 0.0420 Uiso
loop_
_atom_site_aniso_label
_atom_site_aniso_U_11
_atom_site_aniso_U_22
_atom_site_aniso_U_33
_atom_site_aniso_U_23
_atom_site_aniso_U_13
_atom_site_aniso_U_12
O5 0.0424 0.0268 0.0353 -0.0022 -0.0006 0.0156
O7 0.0336 0.0291 0.0195 0.0043 0.0015 0.0082
C5 0.0351 0.0283 0.03 -0.0037 0.0065 0.0113
C6 0.045 0.0262 0.057 0.0083 0.0143 0.0047
C7 0.034 0.035 0.074 0.004 0.012 -0.0037
C8 0.031 0.038 0.056 0.0037 0.0031 0.0059
C9 0.0356 0.0251 0.0301 -0.0007 0.0066 0.0108
C10 0.0347 0.0311 0.0237 0.003 0.0036 0.0122
C11 0.0227 0.0275 0.0207 0.0021 0.0035 0.0079
C12 0.0326 0.0224 0.0205 0.0039 0.0038 0.0121
C16 0.049 0.037 0.0219 -0.0026 0.0021 0.0166
Cu6 0.0259 0.0288 0.0225 0.00287 0.00823 0.00765
O1 0.0221 0.0314 0.0348 0.0082 0.0035 0.0053
O2 0.0256 0.0542 0.085 0.028 -0.007 0.0068
O3 0.0274 0.0275 0.0285 -0.0002 -0.0024 0.0062
O4 0.0267 0.052 0.0374 -0.0049 0.0073 0.0116
O10 0.0474 0.059 0.043 0.0119 -0.0027 0.0104
N1 0.0297 0.0382 0.0253 0.0035 0.011 0.0098
C1 0.0246 0.0338 0.035 0.0029 0.0032 0.0079
C2 0.024 0.0307 0.034 0.0012 0.0028 0.0053
C3 0.0286 0.0242 0.0261 -0.0017 0.0066 0.0059
C4 0.0266 0.0278 0.0288 0.0039 0.0012 0.0136
C17 0.046 0.047 0.03 0.011 0.0107 0.0232
C18 0.0305 0.051 0.029 0.0051 0.0058 0.0161
C19 0.043 0.05 0.039 0.0088 0.0123 0.0261
C20 0.04 0.061 0.023 0.0077 0.0103 0.0193
C21 0.036 0.042 0.035 0.0008 0.0131 0.0096
C22 0.038 0.055 0.038 -0.001 0.015 0.0182
O24 0.0335 0.0356 0.0293 -0.0066 0.0119 0.0015
N4 0.0256 0.0304 0.0331 0.0037 -0.0042 0.0118
C35 0.035 0.046 0.097 0.03 -0.027 0.001
C36 0.031 0.033 0.052 0.0072 -0.0073 0.0075
C37 0.032 0.063 0.114 0.033 -0.029 0.002
C38 0.043 0.0308 0.06 0.0099 -0.011 0.0131
C39 0.039 0.044 0.045 0.0092 -0.0058 0.0178
Cu4 0.0232 0.0264 0.0283 0.00477 -0.00071 0.01103
O22 0.0392 0.0481 0.0393 0.0187 0.0087 0.0209
O28 0.0265 0.0267 0.0298 0.0018 0.0023 0.0112
O30 0.0603 0.042 0.037 -0.0014 -0.014 0.0267
C40 0.045 0.045 0.064 0.014 -0.013 0.014
C53 0.0251 0.0272 0.0244 0.0032 0.0053 0.0074
C54 0.0317 0.0293 0.0244 0.0074 0.0045 0.0114
C55 0.046 0.037 0.0215 0.0051 0.0002 0.0184
N3 0.0297 0.0382 0.0253 0.0035 0.011 0.0098
C29 0.046 0.047 0.03 0.011 0.0107 0.0232
C30 0.0305 0.051 0.029 0.0051 0.0058 0.0161
C31 0.043 0.05 0.039 0.0088 0.0123 0.0261
C32 0.04 0.061 0.023 0.0077 0.0103 0.0193
C33 0.036 0.042 0.035 0.0008 0.0131 0.0096
C34 0.038 0.055 0.038 -0.001 0.015 0.0182
Cu9 0.0259 0.0288 0.0225 0.00287 0.00823 0.00765
O6 0.0335 0.0356 0.0293 -0.0066 0.0119 0.0015
O8 0.0265 0.0267 0.0298 0.0018 0.0023 0.0112
O9 0.0603 0.042 0.037 -0.0014 -0.014 0.0267
C13 0.0251 0.0272 0.0244 0.0032 0.0053 0.0074
C14 0.0317 0.0293 0.0244 0.0074 0.0045 0.0114
C15 0.046 0.037 0.0215 0.0051 0.0002 0.0184
C28 0.045 0.045 0.064 0.014 -0.013 0.014
Cu10 0.0232 0.0264 0.0283 0.00477 -0.00071 0.01103
O11 0.0392 0.0481 0.0393 0.0187 0.0087 0.0209
N2 0.0256 0.0304 0.0331 0.0037 -0.0042 0.0118
C23 0.035 0.046 0.097 0.03 -0.027 0.001
C24 0.031 0.033 0.052 0.0072 -0.0073 0.0075
C25 0.032 0.063 0.114 0.033 -0.029 0.002
C26 0.043 0.0308 0.06 0.0099 -0.011 0.0131
C27 0.039 0.044 0.045 0.0092 -0.0058 0.0178
O12 0.0221 0.0314 0.0348 0.0082 0.0035 0.0053
O13 0.0256 0.0542 0.085 0.028 -0.007 0.0068
O14 0.0274 0.0275 0.0285 -0.0002 -0.0024 0.0062
O15 0.0267 0.052 0.0374 -0.0049 0.0073 0.0116
O21 0.0474 0.059 0.043 0.0119 -0.0027 0.0104
C41 0.0246 0.0338 0.035 0.0029 0.0032 0.0079
C42 0.024 0.0307 0.034 0.0012 0.0028 0.0053
C43 0.0286 0.0242 0.0261 -0.0017 0.0066 0.0059
C44 0.0266 0.0278 0.0288 0.0039 0.0012 0.0136
O26 0.0336 0.0291 0.0195 0.0043 0.0015 0.0082
O16 0.0424 0.0268 0.0353 -0.0022 -0.0006 0.0156
C45 0.0351 0.0283 0.03 -0.0037 0.0065 0.0113
C46 0.045 0.0262 0.057 0.0083 0.0143 0.0047
C47 0.034 0.035 0.074 0.004 0.012 -0.0037
C48 0.031 0.038 0.056 0.0037 0.0031 0.0059
C49 0.0356 0.0251 0.0301 -0.0007 0.0066 0.0108
C50 0.0347 0.0311 0.0237 0.003 0.0036 0.0122
C51 0.0227 0.0275 0.0207 0.0021 0.0035 0.0079
C52 0.0326 0.0224 0.0205 0.0039 0.0038 0.0121
C56 0.049 0.037 0.0219 -0.0026 0.0021 0.0166
loop_
_geom_bond_atom_site_label_1
_geom_bond_atom_site_label_2
_geom_bond_site_symmetry_1
_geom_bond_site_symmetry_2
O5 C5 1_555 1_555
O7 C12 1_555 1_555
C6 C5 1_555 1_555
H5 C6 1_555 1_555
C7 C6 1_555 1_555
H6 C7 1_555 1_555
H7 C8 1_555 1_555
C9 O5 1_555 1_555
C10 C9 1_555 1_555
H8 C10 1_555 1_555
C11 C10 1_555 1_555
C12 C11 1_555 1_555
C16 C9 1_555 1_555
H10 C16 1_555 1_555
Cu6 O7 1_555 1_555
C7 C8 1_555 1_555
Cu6 O1 1_555 1_555
O1 C1 1_555 1_555
O2 C1 1_555 1_555
O3 C4 1_555 1_555
O10 Cu6 1_555 1_555
H1 O10 1_555 1_555
H2 O10 1_555 1_555
N1 Cu6 1_555 1_555
C1 C2 1_555 1_555
C2 C3 1_555 1_555
C3 C4 1_555 1_555
C4 O4 1_555 1_555
C17 N1 1_555 1_555
H11 C17 1_555 1_555
C18 N1 1_555 1_555
H12 C18 1_555 1_555
C19 C17 1_555 1_555
H13 C19 1_555 1_555
C20 C18 1_555 1_555
H14 C20 1_555 1_555
C21 C19 1_555 1_555
C22 C21 1_555 1_555
H15 C22 1_555 1_555
O24 Cu6 1_555 1_555
C20 C21 1_555 1_555
N4 C35 1_555 1_555
C35 H26 1_555 1_555
C36 N4 1_555 1_555
H27 C36 1_555 1_555
C37 C35 1_555 1_555
H28 C37 1_555 1_555
C38 C36 1_555 1_555
C39 C37 1_555 1_555
Cu4 N4 1_555 1_555
O22 Cu4 1_555 1_555
H33 O22 1_555 1_555
H34 O22 1_555 1_555
O30 Cu4 1_555 1_555
C38 C39 1_555 1_555
Cu4 O28 1_555 1_555
H30 C40 1_555 1_555
O28 C54 1_555 1_555
O30 C54 1_555 1_555
C54 C53 1_555 1_555
C55 C53 1_555 1_555
H39 C55 1_555 1_555
N3 C29 1_555 1_555
C29 H21 1_555 1_555
C30 N3 1_555 1_555
H22 C30 1_555 1_555
C31 C29 1_555 1_555
H23 C31 1_555 1_555
C32 C30 1_555 1_555
H24 C32 1_555 1_555
C33 C31 1_555 1_555
H25 C34 1_555 1_555
Cu9 N3 1_555 1_555
C32 C33 1_555 1_555
C33 C34 1_555 1_555
O8 C14 1_555 1_555
O9 C14 1_555 1_555
C14 C13 1_555 1_555
C15 C13 1_555 1_555
H9 C15 1_555 1_555
H20 C28 1_555 1_555
Cu9 O6 1_555 1_555
Cu10 O8 1_555 1_555
O9 Cu10 1_555 1_555
O11 Cu10 1_555 1_555
H3 O11 1_555 1_555
H4 O11 1_555 1_555
N2 Cu10 1_555 1_555
C23 N2 1_555 1_555
H16 C23 1_555 1_555
C24 N2 1_555 1_555
H17 C24 1_555 1_555
C25 C23 1_555 1_555
H18 C25 1_555 1_555
C26 C24 1_555 1_555
C27 C25 1_555 1_555
C26 C27 1_555 1_555
Cu9 O12 1_555 1_555
O12 C41 1_555 1_555
O13 C41 1_555 1_555
O21 Cu9 1_555 1_555
H31 O21 1_555 1_555
H32 O21 1_555 1_555
C41 C42 1_555 1_555
C42 C43 1_555 1_555
C43 C44 1_555 1_555
C44 O14 1_555 1_555
O26 Cu9 1_555 1_555
O15 C44 1_555 1_555
O16 C45 1_555 1_555
O26 C52 1_555 1_555
C46 C45 1_555 1_555
H35 C46 1_555 1_555
C47 C46 1_555 1_555
H36 C47 1_555 1_555
H37 C48 1_555 1_555
C49 O16 1_555 1_555
C50 C49 1_555 1_555
H38 C50 1_555 1_555
C51 C50 1_555 1_555
C52 C51 1_555 1_555
C56 C49 1_555 1_555
H40 C56 1_555 1_555
C47 C48 1_555 1_555

#END
