
###############################################################################
#
# This file contains modified crystal structure data generated from the
# MOF subset of the Cambridge Structural Database (CSD) v543 
# hosted by the Cambridge Crystallographic Data Centre (CCDC).
#
# This work is licensed under the Creative Commons
# Attribution-NonCommercial-ShareAlike 4.0 International License.
# To view a copy of this license, visit
# http://creativecommons.org/licenses/by-nc-sa/4.0/
# or send a letter to
# Creative Commons, PO Box 1866, Mountain View, CA 94042, USA.
#
# CIF created using the CSD Python API on 29 September 2022
# The structure has been converted into the P1 space group
# The structure has a 3D framework
# The original CSD entry GOYYAW is in the monoclinic crystal system
# The framework has been calculated to contain at least 10.0% void space
# The void calculation uses a probe of radius 1.32A, grid spacing 0.4
#
###############################################################################

data_GOYYAW
_chemical_formula_moiety         '(C116 H64 Ag4 Ho8 N16 O56)n'
_symmetry_cell_setting           triclinic
_symmetry_space_group_name_H-M   'P 1'
_symmetry_Int_Tables_number      1
_space_group_name_Hall           'P 1'
loop_
_symmetry_equiv_pos_site_id
_symmetry_equiv_pos_as_xyz
1 x,y,z
_cell_length_a                   22.162(9)
_cell_length_b                   9.459(4)
_cell_length_c                   16.683(7)
_cell_angle_alpha                90
_cell_angle_beta                 96.586(5)
_cell_angle_gamma                90
_cell_volume                     3474.18
loop_
_atom_site_label
_atom_site_type_symbol
_atom_site_fract_x
_atom_site_fract_y
_atom_site_fract_z
O1 O 0.0582(3) 0.0936(7) 0.5582(4)
C1 C 0.2080(7) 0.3684(16) 0.5891(9)
H1 H 0.1829 0.3155 0.6186
O2 O 0.0598(4) 0.2705(8) 0.6916(5)
C2 C 0.0950(6) 0.3835(12) 0.2702(7)
H2 H 0.0948 0.4805 0.2795
O3 O 0.0066(4) 0.2677(8) 0.4267(4)
O4 O 0.0828(4) 0.4128(8) 0.5445(5)
C3 C 0.1837(5) 0.4773(11) 0.5351(6)
O5 O 0.0192(4) 0.4816(8) 0.3773(5)
C4 C 0.0672(6) 0.1475(12) 0.3000(7)
H3 H 0.0484 0.0820 0.3305
O6 O 0.1011(3) 0.6231(8) 0.4923(5)
C5 C 0.0348(5) 0.0001(11) 0.5116(6)
C6 C 0.2230(5) 0.5494(13) 0.4942(7)
H4 H 0.2072 0.6204 0.4593
O7 O 0.0614(4) 0.2430(8) 0.8249(4)
C7 C 0.2697(8) 0.3446(17) 0.5958(9)
H5 H 0.2866 0.2759 0.6314
C8 C 0.1177(5) 0.5059(11) 0.5235(6)
C9 C 0.0264(5) 0.3538(12) 0.3785(6)
C10 C 0.0982(6) 0.1047(13) 0.2387(7)
H6 H 0.0989 0.0084 0.2276
N1 N 0.2838(5) 0.5261(12) 0.5002(6)
C11 C 0.3064(7) 0.4204(17) 0.5511(8)
H7 H 0.3477 0.3996 0.5553
C12 C 0.0349(5) 0.2552(11) 0.7554(7)
C13 C 0.1253(6) 0.3279(14) 0.2114(7)
H8 H 0.1460 0.3901 0.1811
C14 C 0.0642(5) 0.2914(11) 0.3160(6)
N2 N 0.1276(5) 0.1897(12) 0.1937(6)
Ho2 Ho 0.00471(2) 0.29872(5) 0.93410(3)
Ag2 Ag 0.34158(5) 0.62398(15) 0.41982(7)
Ho4 Ho 0.00471(2) 0.70128(5) 0.43410(3)
O19 O 0.0192(4) 0.5184(8) 0.8773(5)
O21 O 0.1011(3) 0.3769(8) 0.9923(5)
O22 O 0.0631(3) 0.0976(7) 0.9794(4)
O23 O 0.4369(3) 0.5976(7) 0.5206(4)
N6 N 0.3724(5) 0.6897(12) 0.3063(6)
Ag5 Ag 0.15842(5) 0.12398(15) 0.08018(7)
C5_2 C 0.0348(5) 1.0001(11) 0.5116(6)
O8 O 0.0631(3) 0.9024(7) 0.4794(4)
Ag1 Ag 0.15842(5) 0.87602(15) 0.58018(7)
N5 N 0.2162(5) 0.9739(12) 0.4998(6)
N7 N 0.1276(5) 0.8103(12) 0.6937(6)
C18 C 0.9050(6) 0.3835(12) 0.2298(7)
H10 H 0.9052 0.4805 0.2205
O13 O 0.9934(4) 0.2677(8) 0.0733(4)
O15 O 0.9808(4) 0.4816(8) 0.1227(5)
C20 C 0.9328(6) 0.1475(12) 0.2000(7)
H11 H 0.9516 0.0820 0.1695
O16 O 0.8989(3) 0.6231(8) 0.0077(5)
C21 C 0.7770(5) 0.5494(13) 0.0058(7)
H12 H 0.7928 0.6204 0.0407
C24 C 0.9736(5) 0.3538(12) 0.1215(6)
C25 C 0.9018(6) 0.1047(13) 0.2613(7)
H14 H 0.9011 0.0084 0.2724
C27 C 0.8747(6) 0.3279(14) 0.2886(7)
H16 H 0.8540 0.3901 0.3189
C28 C 0.9358(5) 0.2914(11) 0.1840(6)
N4 N 0.8724(5) 0.1897(12) 0.3063(6)
Ho5 Ho 0.99529(2) 0.70128(5) 0.06590(3)
Ag4 Ag 0.84158(5) 0.12398(15) 0.41982(7)
Ag6 Ag 0.65842(5) 0.62398(15) 0.08018(7)
Ho1 Ho 0.99529(2) 0.29872(5) 0.56590(3)
C15 C 0.9652(5) -0.0001(11) 0.4884(6)
O10 O 0.9369(3) 0.0976(7) 0.5206(4)
O11 O 0.9402(4) 0.2705(8) 0.8084(5)
O12 O 0.9386(4) 0.2430(8) 0.6751(4)
C16 C 0.9651(5) 0.2552(11) 0.7446(7)
C17 C 0.7920(7) 0.3684(16) 0.9109(9)
H9 H 0.8171 0.3155 0.8814
O14 O 0.9172(4) 0.4128(8) 0.9555(5)
C19 C 0.8163(5) 0.4773(11) 0.9649(6)
C22 C 0.7303(8) 0.3446(17) 0.9042(9)
H13 H 0.7134 0.2759 0.8686
C23 C 0.8823(5) 0.5059(11) 0.9765(6)
N3 N 0.7162(5) 0.5261(12) 0.9998(6)
C26 C 0.6936(7) 0.4204(17) 0.9489(8)
H15 H 0.6523 0.3996 0.9447
O17 O 0.9418(3) 0.0936(7) 0.9418(4)
O18 O 0.9808(4) 0.5184(8) 0.6227(5)
O20 O 0.8989(3) 0.3769(8) 0.5077(5)
O9 O 0.9418(3) 0.9064(7) 0.4418(4)
C15_2 C 0.9652(5) 0.9999(11) 0.4884(6)
C15_3 C 0.0348(5) -0.0001(11) 0.0116(6)
O9_2 O 0.0582(3) 0.9064(7) 0.0582(4)
C15_4 C 0.0348(5) 0.9999(11) 0.0116(6)
N6_2 N 0.6276(5) 0.6897(12) 0.1937(6)
C5_3 C 0.9652(5) 0.0001(11) 0.9884(6)
O23_2 O 0.5631(3) 0.5976(7) 0.9794(4)
O8_2 O 0.9369(3) 0.9024(7) 0.0206(4)
N5_2 N 0.7838(5) 0.9739(12) 0.0002(6)
C5_4 C 0.9652(5) 1.0001(11) 0.9884(6)
Ag1_2 Ag 0.84158(5) 0.87602(15) 0.91982(7)
N7_2 N 0.8724(5) 0.8103(12) 0.8063(6)
O16_2 O 0.3989(3) 0.1231(8) 0.0077(5)
C21_2 C 0.2770(5) 0.0494(13) 0.0058(7)
H12_2 H 0.2928 0.1204 0.0407
Ho5_2 Ho 0.49529(2) 0.20128(5) 0.06590(3)
O6_2 O 0.6011(3) 0.1231(8) 0.4923(5)
C6_2 C 0.7230(5) 0.0494(13) 0.4942(7)
H4_2 H 0.7072 0.1204 0.4593
C8_2 C 0.6177(5) 0.0059(11) 0.5235(6)
N1_2 N 0.7838(5) 0.0261(12) 0.5002(6)
C23_2 C 0.3823(5) 0.0059(11) 0.9765(6)
N3_2 N 0.2162(5) 0.0261(12) 0.9998(6)
Ho4_2 Ho 0.50471(2) 0.20128(5) 0.43410(3)
O18_2 O 0.4808(4) 0.0184(8) 0.6227(5)
O19_2 O 0.5192(4) 0.0184(8) 0.8773(5)
C18_2 C 0.4050(6) 0.8835(12) 0.2298(7)
H10_2 H 0.4052 0.9805 0.2205
O13_2 O 0.4934(4) 0.7677(8) 0.0733(4)
O15_2 O 0.4808(4) 0.9816(8) 0.1227(5)
C20_2 C 0.4328(6) 0.6475(12) 0.2000(7)
H11_2 H 0.4516 0.5820 0.1695
C24_2 C 0.4736(5) 0.8538(12) 0.1215(6)
C25_2 C 0.4018(6) 0.6047(13) 0.2613(7)
H14_2 H 0.4011 0.5084 0.2724
C27_2 C 0.3747(6) 0.8279(14) 0.2886(7)
H16_2 H 0.3540 0.8901 0.3189
C28_2 C 0.4358(5) 0.7914(11) 0.1840(6)
Ho1_2 Ho 0.49529(2) 0.79872(5) 0.56590(3)
O1_2 O 0.5582(3) 0.5936(7) 0.5582(4)
C1_2 C 0.7080(7) 0.8684(16) 0.5891(9)
H1_2 H 0.6829 0.8155 0.6186
O2_2 O 0.5598(4) 0.7705(8) 0.6916(5)
C2_2 C 0.5950(6) 0.8835(12) 0.2702(7)
H2_2 H 0.5948 0.9805 0.2795
O3_2 O 0.5066(4) 0.7677(8) 0.4267(4)
O4_2 O 0.5828(4) 0.9128(8) 0.5445(5)
C3_2 C 0.6837(5) 0.9773(11) 0.5351(6)
O5_2 O 0.5192(4) 0.9816(8) 0.3773(5)
C4_2 C 0.5672(6) 0.6475(12) 0.3000(7)
H3_2 H 0.5484 0.5820 0.3305
C5_5 C 0.5348(5) 0.5001(11) 0.5116(6)
O7_2 O 0.5614(4) 0.7430(8) 0.8249(4)
C7_2 C 0.7697(8) 0.8446(17) 0.5958(9)
H5_2 H 0.7866 0.7759 0.6314
C9_2 C 0.5264(5) 0.8538(12) 0.3785(6)
C10_2 C 0.5982(6) 0.6047(13) 0.2387(7)
H6_2 H 0.5989 0.5084 0.2276
C11_2 C 0.8064(7) 0.9204(17) 0.5511(8)
H7_2 H 0.8477 0.8996 0.5553
C12_2 C 0.5349(5) 0.7552(11) 0.7554(7)
O8_3 O 0.5631(3) 0.4024(7) 0.4794(4)
C13_2 C 0.6253(6) 0.8279(14) 0.2114(7)
H8_2 H 0.6460 0.8901 0.1811
C14_2 C 0.5642(5) 0.7914(11) 0.3160(6)
Ag1_3 Ag 0.65842(5) 0.37602(15) 0.58018(7)
O9_3 O 0.4418(3) 0.4064(7) 0.4418(4)
C15_5 C 0.4652(5) 0.4999(11) 0.4884(6)
O11_2 O 0.4402(4) 0.7705(8) 0.8084(5)
O12_2 O 0.4386(4) 0.7430(8) 0.6751(4)
C16_2 C 0.4651(5) 0.7552(11) 0.7446(7)
Ho2_2 Ho 0.50471(2) 0.79872(5) 0.93410(3)
C17_2 C 0.2920(7) 0.8684(16) 0.9109(9)
H9_2 H 0.3171 0.8155 0.8814
O14_2 O 0.4172(4) 0.9128(8) 0.9555(5)
C19_2 C 0.3163(5) 0.9773(11) 0.9649(6)
C22_2 C 0.2303(8) 0.8446(17) 0.9042(9)
H13_2 H 0.2134 0.7759 0.8686
C26_2 C 0.1936(7) 0.9204(17) 0.9489(8)
H15_2 H 0.1523 0.8996 0.9447
O17_2 O 0.4418(3) 0.5936(7) 0.9418(4)
O20_2 O 0.3989(3) 0.8769(8) 0.5077(5)
O21_2 O 0.6011(3) 0.8769(8) 0.9923(5)
N5_3 N 0.7162(5) 0.4739(12) 0.4998(6)
N7_3 N 0.6276(5) 0.3103(12) 0.6937(6)
O8_4 O 0.4369(3) 0.4024(7) 0.0206(4)
O9_4 O 0.5582(3) 0.4064(7) 0.0582(4)
C15_6 C 0.5348(5) 0.4999(11) 0.0116(6)
N5_4 N 0.2838(5) 0.4739(12) 0.0002(6)
C5_6 C 0.4652(5) 0.5001(11) 0.9884(6)
Ag1_4 Ag 0.34158(5) 0.37602(15) 0.91982(7)
N7_4 N 0.3724(5) 0.3103(12) 0.8063(6)
O11_3 O 0.0598(4) 0.7295(8) 0.1916(5)
O12_3 O 0.0614(4) 0.7570(8) 0.3249(4)
C16_3 C 0.0349(5) 0.7448(11) 0.2554(7)
C17_3 C 0.2080(7) 0.6316(16) 0.0891(9)
H9_3 H 0.1829 0.6845 0.1186
O14_3 O 0.0828(4) 0.5872(8) 0.0445(5)
C19_3 C 0.1837(5) 0.5227(11) 0.0351(6)
C22_3 C 0.2697(8) 0.6554(17) 0.0958(9)
H13_3 H 0.2866 0.7241 0.1314
C23_3 C 0.1177(5) 0.4941(11) 0.0235(6)
C26_3 C 0.3064(7) 0.5796(17) 0.0511(8)
H15_3 H 0.3477 0.6004 0.0553
C18_3 C 0.0950(6) 0.6165(12) 0.7702(7)
H10_3 H 0.0948 0.5195 0.7795
O13_3 O 0.0066(4) 0.7323(8) 0.9267(4)
C20_3 C 0.0672(6) 0.8525(12) 0.8000(7)
H11_3 H 0.0484 0.9180 0.8305
C21_3 C 0.2230(5) 0.4506(13) 0.9942(7)
H12_3 H 0.2072 0.3796 0.9593
C24_3 C 0.0264(5) 0.6462(12) 0.8785(6)
C25_3 C 0.0982(6) 0.8953(13) 0.7387(7)
H14_3 H 0.0989 0.9916 0.7276
C27_3 C 0.1253(6) 0.6721(14) 0.7114(7)
H16_3 H 0.1460 0.6099 0.6811
C28_3 C 0.0642(5) 0.7086(11) 0.8160(6)
C1_3 C 0.7920(7) 0.6316(16) 0.4109(9)
H1_3 H 0.8171 0.6845 0.3814
O2_3 O 0.9402(4) 0.7295(8) 0.3084(5)
C2_3 C 0.9050(6) 0.6165(12) 0.7298(7)
H2_3 H 0.9052 0.5195 0.7205
O3_3 O 0.9934(4) 0.7323(8) 0.5733(4)
O4_3 O 0.9172(4) 0.5872(8) 0.4555(5)
C3_3 C 0.8163(5) 0.5227(11) 0.4649(6)
C4_3 C 0.9328(6) 0.8525(12) 0.7000(7)
H3_3 H 0.9516 0.9180 0.6695
C6_3 C 0.7770(5) 0.4506(13) 0.5058(7)
H4_3 H 0.7928 0.3796 0.5407
O7_3 O 0.9386(4) 0.7570(8) 0.1751(4)
C7_3 C 0.7303(8) 0.6554(17) 0.4042(9)
H5_3 H 0.7134 0.7241 0.3686
C8_3 C 0.8823(5) 0.4941(11) 0.4765(6)
C9_3 C 0.9736(5) 0.6462(12) 0.6215(6)
C10_3 C 0.9018(6) 0.8953(13) 0.7613(7)
H6_3 H 0.9011 0.9916 0.7724
C11_3 C 0.6936(7) 0.5796(17) 0.4489(8)
H7_3 H 0.6523 0.6004 0.4447
C12_3 C 0.9651(5) 0.7448(11) 0.2446(7)
C13_3 C 0.8747(6) 0.6721(14) 0.7886(7)
H8_3 H 0.8540 0.6099 0.8189
C14_3 C 0.9358(5) 0.7086(11) 0.6840(6)
C1_4 C 0.2920(7) 0.1316(16) 0.4109(9)
H1_4 H 0.3171 0.1845 0.3814
O2_4 O 0.4402(4) 0.2295(8) 0.3084(5)
C2_4 C 0.4050(6) 0.1165(12) 0.7298(7)
H2_4 H 0.4052 0.0195 0.7205
O3_4 O 0.4934(4) 0.2323(8) 0.5733(4)
O4_4 O 0.4172(4) 0.0872(8) 0.4555(5)
C3_4 C 0.3163(5) 0.0227(11) 0.4649(6)
C4_4 C 0.4328(6) 0.3525(12) 0.7000(7)
H3_4 H 0.4516 0.4180 0.6695
O7_4 O 0.4386(4) 0.2570(8) 0.1751(4)
C7_4 C 0.2303(8) 0.1554(17) 0.4042(9)
H5_4 H 0.2134 0.2241 0.3686
C9_4 C 0.4736(5) 0.1462(12) 0.6215(6)
C10_4 C 0.4018(6) 0.3953(13) 0.7613(7)
H6_4 H 0.4011 0.4916 0.7724
C11_4 C 0.1936(7) 0.0796(17) 0.4489(8)
H7_4 H 0.1523 0.1004 0.4447
C12_4 C 0.4651(5) 0.2448(11) 0.2446(7)
C13_4 C 0.3747(6) 0.1721(14) 0.7886(7)
H8_4 H 0.3540 0.1099 0.8189
C14_4 C 0.4358(5) 0.2086(11) 0.6840(6)
O11_4 O 0.5598(4) 0.2295(8) 0.1916(5)
O12_4 O 0.5614(4) 0.2570(8) 0.3249(4)
C16_4 C 0.5349(5) 0.2448(11) 0.2554(7)
C17_4 C 0.7080(7) 0.1316(16) 0.0891(9)
H9_4 H 0.6829 0.1845 0.1186
O14_4 O 0.5828(4) 0.0872(8) 0.0445(5)
C19_4 C 0.6837(5) 0.0227(11) 0.0351(6)
C22_4 C 0.7697(8) 0.1554(17) 0.0958(9)
H13_4 H 0.7866 0.2241 0.1314
C26_4 C 0.8064(7) 0.0796(17) 0.0511(8)
H15_4 H 0.8477 0.1004 0.0553
C18_4 C 0.5950(6) 0.1165(12) 0.7702(7)
H10_4 H 0.5948 0.0195 0.7795
O13_4 O 0.5066(4) 0.2323(8) 0.9267(4)
C20_4 C 0.5672(6) 0.3525(12) 0.8000(7)
H11_4 H 0.5484 0.4180 0.8305
C24_4 C 0.5264(5) 0.1462(12) 0.8785(6)
C25_4 C 0.5982(6) 0.3953(13) 0.7387(7)
H14_4 H 0.5989 0.4916 0.7276
C27_4 C 0.6253(6) 0.1721(14) 0.7114(7)
H16_4 H 0.6460 0.1099 0.6811
C28_4 C 0.5642(5) 0.2086(11) 0.8160(6)
C6_4 C 0.2770(5) 0.9506(13) 0.5058(7)
H4_4 H 0.2928 0.8796 0.5407
C8_4 C 0.3823(5) 0.9941(11) 0.4765(6)
C23_4 C 0.6177(5) 0.9941(11) 0.0235(6)
C21_4 C 0.7230(5) 0.9506(13) 0.9942(7)
H12_4 H 0.7072 0.8796 0.9593
loop_
_geom_bond_atom_site_label_1
_geom_bond_atom_site_label_2
_geom_bond_site_symmetry_1
_geom_bond_site_symmetry_2
O1 C5 1_555 1_555
C1 H1 1_555 1_555
C2 H2 1_555 1_555
C3 C1 1_555 1_555
O5 C9 1_555 1_555
C4 H3 1_555 1_555
O6 C8 1_555 1_555
C6 C3 1_555 1_555
H4 C6 1_555 1_555
O7 C12 1_555 1_555
C7 C1 1_555 1_555
H5 C7 1_555 1_555
C8 O4 1_555 1_555
C9 O3 1_555 1_555
C10 C4 1_555 1_555
H6 C10 1_555 1_555
N1 C6 1_555 1_555
C11 C7 1_555 1_555
H7 C11 1_555 1_555
C12 O2 1_555 1_555
C13 C2 1_555 1_555
H8 C13 1_555 1_555
C14 C2 1_555 1_555
N2 C10 1_555 1_555
Ho2 O7 1_555 1_555
Ag2 N1 1_555 1_555
Ho4 O5 1_555 1_555
O19 Ho2 1_555 1_555
O21 Ho2 1_555 1_555
O22 Ho2 1_555 1_555
O23 Ag2 1_555 1_555
N6 Ag2 1_555 1_555
Ag5 N2 1_555 1_555
C3 C8 1_555 1_555
C4 C14 1_555 1_555
O6 Ho4 1_555 1_555
C9 C14 1_555 1_555
N1 C11 1_555 1_555
C13 N2 1_555 1_555
C5_2 O8 1_555 1_555
O8 Ag1 1_555 1_555
Ag1 N5 1_555 1_555
Ho4 O8 1_555 1_555
N7 Ag1 1_555 1_555
C18 H10 1_555 1_555
O15 C24 1_555 1_555
C20 H11 1_555 1_555
H12 C21 1_555 1_555
C24 O13 1_555 1_555
C25 C20 1_555 1_555
H14 C25 1_555 1_555
C27 C18 1_555 1_555
H16 C27 1_555 1_555
C28 C18 1_555 1_555
N4 C25 1_555 1_555
Ho5 O15 1_555 1_555
Ag4 N4 1_555 1_555
C20 C28 1_555 1_555
O16 Ho5 1_555 1_555
C24 C28 1_555 1_555
C27 N4 1_555 1_555
O10 Ho1 1_555 1_555
O11 C16 1_555 1_555
O12 Ho1 1_555 1_555
C17 H9 1_555 1_555
C19 C17 1_555 1_555
C22 C17 1_555 1_555
H13 C22 1_555 1_555
C23 O14 1_555 1_555
C26 C22 1_555 1_555
H15 C26 1_555 1_555
O18 Ho1 1_555 1_555
O20 Ho1 1_555 1_555
Ag4 O10 1_555 1_555
C15 O10 1_555 1_555
O12 C16 1_555 1_555
C19 C23 1_555 1_555
N3 C26 1_555 1_555
O9 C15_2 1_555 1_555
O9_2 C15_4 1_555 1_555
N6_2 Ag6 1_555 1_555
O17 C5_3 1_555 1_555
Ho5 O8_2 1_555 1_555
N7_2 Ag1_2 1_555 1_555
H12_2 C21_2 1_555 1_555
O16_2 Ho5_2 1_555 1_555
O6_2 C8_2 1_555 1_555
H4_2 C6_2 1_555 1_555
N1_2 C6_2 1_555 1_555
Ag4 N1_2 1_555 1_555
O6_2 Ho4_2 1_555 1_555
C18_2 H10_2 1_555 1_555
O15_2 C24_2 1_555 1_555
C20_2 H11_2 1_555 1_555
C24_2 O13_2 1_555 1_555
C25_2 C20_2 1_555 1_555
H14_2 C25_2 1_555 1_555
C27_2 C18_2 1_555 1_555
H16_2 C27_2 1_555 1_555
C28_2 C18_2 1_555 1_555
N6 C25_2 1_555 1_555
C20_2 C28_2 1_555 1_555
C24_2 C28_2 1_555 1_555
C27_2 N6 1_555 1_555
Ho1_2 O1_2 1_555 1_555
O1_2 C5_5 1_555 1_555
C1_2 H1_2 1_555 1_555
O2_2 Ho1_2 1_555 1_555
C2_2 H2_2 1_555 1_555
O3_2 Ho1_2 1_555 1_555
O4_2 Ho1_2 1_555 1_555
C3_2 C1_2 1_555 1_555
O5_2 C9_2 1_555 1_555
C4_2 H3_2 1_555 1_555
C5_5 O8_3 1_555 1_555
O7_2 C12_2 1_555 1_555
C7_2 C1_2 1_555 1_555
H5_2 C7_2 1_555 1_555
C9_2 O3_2 1_555 1_555
C10_2 C4_2 1_555 1_555
H6_2 C10_2 1_555 1_555
C11_2 C7_2 1_555 1_555
H7_2 C11_2 1_555 1_555
C12_2 O2_2 1_555 1_555
O8_3 Ag1_3 1_555 1_555
C13_2 C2_2 1_555 1_555
H8_2 C13_2 1_555 1_555
C14_2 C2_2 1_555 1_555
N6_2 C10_2 1_555 1_555
Ag1_3 N5_3 1_555 1_555
O9_3 C15_5 1_555 1_555
C15_5 C5_5 1_555 1_555
O23 Ho1_2 1_555 1_555
O11_2 C16_2 1_555 1_555
O12_2 Ho1_2 1_555 1_555
C16_2 C12_2 1_555 1_555
Ho2_2 O7_2 1_555 1_555
C17_2 H9_2 1_555 1_555
O14_2 Ho2_2 1_555 1_555
C19_2 C17_2 1_555 1_555
C22_2 C17_2 1_555 1_555
H13_2 C22_2 1_555 1_555
C26_2 C22_2 1_555 1_555
H15_2 C26_2 1_555 1_555
Ho4_2 O8_3 1_555 1_555
O17_2 Ho2_2 1_555 1_555
O20_2 Ho1_2 1_555 1_555
O21_2 Ho2_2 1_555 1_555
O23_2 Ho2_2 1_555 1_555
N7_3 Ag1_3 1_555 1_555
C4_2 C14_2 1_555 1_555
C9_2 C14_2 1_555 1_555
C13_2 N6_2 1_555 1_555
O9_3 Ho4_2 1_555 1_555
C15_5 O23 1_555 1_555
O11_2 Ho2_2 1_555 1_555
O12_2 C16_2 1_555 1_555
O9_4 C15_6 1_555 1_555
Ho5_2 O8_4 1_555 1_555
O9_4 Ho5_2 1_555 1_555
O17_2 C5_6 1_555 1_555
N7_4 Ag1_4 1_555 1_555
O11_3 C16_3 1_555 1_555
O12_3 Ho4 1_555 1_555
C17_3 H9_3 1_555 1_555
C19_3 C17_3 1_555 1_555
C22_3 C17_3 1_555 1_555
H13_3 C22_3 1_555 1_555
C23_3 O14_3 1_555 1_555
C26_3 C22_3 1_555 1_555
H15_3 C26_3 1_555 1_555
O12_3 C16_3 1_555 1_555
C19_3 C23_3 1_555 1_555
N5_4 C26_3 1_555 1_555
C18_3 H10_3 1_555 1_555
O19 C24_3 1_555 1_555
C20_3 H11_3 1_555 1_555
H12_3 C21_3 1_555 1_555
C24_3 O13_3 1_555 1_555
C25_3 C20_3 1_555 1_555
H14_3 C25_3 1_555 1_555
C27_3 C18_3 1_555 1_555
H16_3 C27_3 1_555 1_555
C28_3 C18_3 1_555 1_555
N7 C25_3 1_555 1_555
C20_3 C28_3 1_555 1_555
C24_3 C28_3 1_555 1_555
C27_3 N7 1_555 1_555
C1_3 H1_3 1_555 1_555
C2_3 H2_3 1_555 1_555
C3_3 C1_3 1_555 1_555
O18 C9_3 1_555 1_555
C4_3 H3_3 1_555 1_555
O20 C8_3 1_555 1_555
C6_3 C3_3 1_555 1_555
H4_3 C6_3 1_555 1_555
O7_3 C12_3 1_555 1_555
C7_3 C1_3 1_555 1_555
H5_3 C7_3 1_555 1_555
C8_3 O4_3 1_555 1_555
C9_3 O3_3 1_555 1_555
C10_3 C4_3 1_555 1_555
H6_3 C10_3 1_555 1_555
N5_3 C6_3 1_555 1_555
C11_3 C7_3 1_555 1_555
H7_3 C11_3 1_555 1_555
C12_3 O2_3 1_555 1_555
C13_3 C2_3 1_555 1_555
H8_3 C13_3 1_555 1_555
C14_3 C2_3 1_555 1_555
N7_2 C10_3 1_555 1_555
Ho5 O7_3 1_555 1_555
C3_3 C8_3 1_555 1_555
C4_3 C14_3 1_555 1_555
C9_3 C14_3 1_555 1_555
N5_3 C11_3 1_555 1_555
C13_3 N7_2 1_555 1_555
C1_4 H1_4 1_555 1_555
O2_4 Ho4_2 1_555 1_555
C2_4 H2_4 1_555 1_555
O3_4 Ho4_2 1_555 1_555
O4_4 Ho4_2 1_555 1_555
C3_4 C1_4 1_555 1_555
O18_2 C9_4 1_555 1_555
C4_4 H3_4 1_555 1_555
O7_4 C12_4 1_555 1_555
C7_4 C1_4 1_555 1_555
H5_4 C7_4 1_555 1_555
C9_4 O3_4 1_555 1_555
C10_4 C4_4 1_555 1_555
H6_4 C10_4 1_555 1_555
C11_4 C7_4 1_555 1_555
H7_4 C11_4 1_555 1_555
C12_4 O2_4 1_555 1_555
C13_4 C2_4 1_555 1_555
H8_4 C13_4 1_555 1_555
C14_4 C2_4 1_555 1_555
N7_4 C10_4 1_555 1_555
O11_4 C16_4 1_555 1_555
O12_4 Ho4_2 1_555 1_555
C16_4 C12_4 1_555 1_555
Ho5_2 O7_4 1_555 1_555
C17_4 H9_4 1_555 1_555
O14_4 Ho5_2 1_555 1_555
C19_4 C17_4 1_555 1_555
C22_4 C17_4 1_555 1_555
H13_4 C22_4 1_555 1_555
C26_4 C22_4 1_555 1_555
H15_4 C26_4 1_555 1_555
C4_4 C14_4 1_555 1_555
C9_4 C14_4 1_555 1_555
C13_4 N7_4 1_555 1_555
O11_4 Ho5_2 1_555 1_555
O12_4 C16_4 1_555 1_555
C18_4 H10_4 1_555 1_555
O19_2 C24_4 1_555 1_555
C20_4 H11_4 1_555 1_555
C24_4 O13_4 1_555 1_555
C25_4 C20_4 1_555 1_555
H14_4 C25_4 1_555 1_555
C27_4 C18_4 1_555 1_555
H16_4 C27_4 1_555 1_555
C28_4 C18_4 1_555 1_555
N7_3 C25_4 1_555 1_555
C20_4 C28_4 1_555 1_555
C24_4 C28_4 1_555 1_555
C27_4 N7_3 1_555 1_555
O20_2 C8_4 1_555 1_555
H4_4 C6_4 1_555 1_555
N5 C6_4 1_555 1_555
H12_4 C21_4 1_555 1_555

#END
