
###############################################################################
#
# This file contains modified crystal structure data generated from the
# MOF subset of the Cambridge Structural Database (CSD) v543 
# hosted by the Cambridge Crystallographic Data Centre (CCDC).
#
# This work is licensed under the Creative Commons
# Attribution-NonCommercial-ShareAlike 4.0 International License.
# To view a copy of this license, visit
# http://creativecommons.org/licenses/by-nc-sa/4.0/
# or send a letter to
# Creative Commons, PO Box 1866, Mountain View, CA 94042, USA.
#
# CIF created using the CSD Python API on 29 September 2022
# The structure has been converted into the P1 space group
# The structure has a 3D framework
# The original CSD entry GOZNEQ is in the triclinic crystal system
# The framework has been calculated to contain at least 10.0% void space
# The void calculation uses a probe of radius 1.32A, grid spacing 0.4
#
###############################################################################

data_GOZNEQ
_chemical_formula_moiety         '(C46 H36 Mn3 N28 O6 W2)n'
_symmetry_cell_setting           triclinic
_symmetry_space_group_name_H-M   'P 1'
_symmetry_Int_Tables_number      1
_space_group_name_Hall           'P 1'
loop_
_symmetry_equiv_pos_site_id
_symmetry_equiv_pos_as_xyz
1 x,y,z
_cell_length_a                   10.6761(13)
_cell_length_b                   16.1012(15)
_cell_length_c                   18.0131(15)
_cell_angle_alpha                103.521(3)
_cell_angle_beta                 106.261(2)
_cell_angle_gamma                108.668(3)
_cell_volume                     2632.07
loop_
_atom_site_label
_atom_site_type_symbol
_atom_site_fract_x
_atom_site_fract_y
_atom_site_fract_z
_atom_site_U_iso_or_equiv
_atom_site_thermal_displace_type
C33 C 0.1861(6) 0.8199(3) 0.8184(3) 0.0308 Uani
C34 C 0.0246(6) 0.7524(4) 0.6629(3) 0.0421 Uani
C35 C 0.0643(5) 0.9256(4) 0.8570(3) 0.0316 Uani
N21 N 0.3080(5) 0.8379(3) 0.8416(2) 0.0290 Uani
N22 N 0.0526(5) 0.7341(3) 0.6045(2) 0.0399 Uani
N23 N 0.1211(5) 0.9992(3) 0.9088(2) 0.0417 Uani
Mn6 Mn 0.51040(8) 0.83426(5) 0.83313(4) 0.0288 Uani
C1 C 0.2051(6) 0.1879(3) 0.2051(3) 0.0306 Uani
C2 C 0.2357(5) 0.3255(3) 0.3322(3) 0.0301 Uani
C3 C 0.0328(6) 0.2415(4) 0.1212(3) 0.0359 Uani
C4 C 0.0205(6) 0.3485(4) 0.2484(3) 0.0383 Uani
C8 C 0.0773(6) 0.1270(4) 0.3020(3) 0.0405 Uani
C9 C 0.5983(6) 0.0474(4) 0.2649(3) 0.0367 Uani
H1 H 0.6897 0.0926 0.2746 0.0440 Uiso
C19 C 0.5943(6) 0.3410(4) 0.1220(3) 0.0374 Uani
H9 H 0.6849 0.3509 0.1595 0.0460 Uiso
C20 C 0.5850(6) 0.4033(4) 0.0798(3) 0.0334 Uani
H10 H 0.6689 0.4541 0.0873 0.0400 Uiso
C21 C 0.4515(5) 0.3897(3) 0.0272(3) 0.0301 Uani
C22 C 0.3291(6) 0.3151(4) 0.0152(3) 0.0371 Uani
C23 C 0.3399(6) 0.2530(4) 0.0558(3) 0.0358 Uani
H12 H 0.2562 0.2013 0.0472 0.0430 Uiso
Mn1 Mn 0.48960(8) 0.16574(5) 0.16687(4) 0.0288 Uani
N1 N 0.3013(4) 0.1771(3) 0.1896(2) 0.0304 Uani
N2 N 0.3362(5) 0.3825(3) 0.3880(2) 0.0351 Uani
N3 N 0.0357(5) 0.2541(3) 0.0598(2) 0.0354 Uani
N4 N 0.0214(5) 0.4222(3) 0.2556(2) 0.0392 Uani
N8 N 0.0961(5) 0.0800(3) 0.3392(2) 0.0434 Uani
N9 N 0.4760(5) 0.0487(3) 0.2147(3) 0.0369 Uani
N13 N 0.4744(5) 0.2661(3) 0.1097(2) 0.0365 Uani
O1 O 0.6205(4) 0.2944(2) 0.27930(18) 0.0289 Uani
H13 H 0.6112 0.2796 0.3278 0.0350 Uiso
H14 H 0.5860 0.3430 0.2736 0.0350 Uiso
O2 O 0.3563(4) 0.0416(2) 0.05805(19) 0.0346 Uani
H15 H 0.4168 0.0210 0.0330 0.0410 Uiso
H16 H 0.2905 0.0560 0.0183 0.0410 Uiso
W1 W 0.03855(2) 0.217136(13) 0.232147(9) 0.0327 Uani
H21 H 0.7620 0.6934 0.0208 0.0450 Uiso
N16 N 0.5614(5) 0.5403(3) 0.0149(2) 0.0330 Uani
Mn8 Mn 0.5000 0.5000 0.5000 0.0333 Uani
N31 N 0.6920(5) 0.1621(3) 0.1584(2) 0.0290 Uani
H11 H 0.2380 0.3066 0.9792 0.0450 Uiso
N14 N 0.4386(5) 0.4597(3) 0.9851(2) 0.0330 Uani
C24 C 0.4057(6) 0.6590(4) 0.8780(3) 0.0374 Uani
H19 H 0.3151 0.6491 0.8405 0.0460 Uiso
C25 C 0.4150(6) 0.5967(4) 0.9202(3) 0.0334 Uani
H20 H 0.3311 0.5459 0.9127 0.0400 Uiso
C26 C 0.5485(5) 0.6103(3) 0.9728(3) 0.0301 Uani
C27 C 0.6709(6) 0.6849(4) 0.9848(3) 0.0371 Uani
C28 C 0.6601(6) 0.7470(4) 0.9442(3) 0.0358 Uani
H22 H 0.7438 0.7987 0.9528 0.0430 Uiso
N15 N 0.5256(5) 0.7339(3) 0.8903(2) 0.0365 Uani
C10 C 0.5875(6) 0.9789(4) 0.3017(3) 0.0342 Uani
H2 H 0.6719 0.9782 0.3369 0.0410 Uiso
C11 C 0.4564(6) 0.9133(4) 0.2872(3) 0.0347 Uani
C12 C 0.3325(6) 0.9144(4) 0.2362(3) 0.0347 Uani
H3 H 0.2414 0.8685 0.2261 0.0420 Uiso
C13 C 0.3415(6) 0.9819(4) 0.2003(3) 0.0360 Uani
H4 H 0.2568 0.9829 0.1659 0.0430 Uiso
C14 C 0.6688(6) 0.6884(4) 0.4723(3) 0.0362 Uani
H5 H 0.7528 0.6884 0.5086 0.0430 Uiso
C15 C 0.6793(6) 0.7581(4) 0.4375(3) 0.0340 Uani
H6 H 0.7697 0.8057 0.4490 0.0410 Uiso
C16 C 0.5524(6) 0.7556(4) 0.3853(3) 0.0359 Uani
C17 C 0.4238(6) 0.6895(4) 0.3667(3) 0.0342 Uani
H7 H 0.3403 0.6898 0.3302 0.0410 Uiso
C18 C 0.4131(6) 0.6204(4) 0.4010(3) 0.0357 Uani
H8 H 0.3218 0.5732 0.3885 0.0420 Uiso
N10 N 0.4455(5) 0.8394(3) 0.3203(2) 0.0350 Uani
N11 N 0.5697(5) 0.8298(3) 0.3548(2) 0.0339 Uani
N12 N 0.5368(5) 0.6200(3) 0.4540(3) 0.0366 Uani
O3 O 0.6609(4) 0.4607(2) 0.47016(19) 0.0358 Uani
H17 H 0.6406 0.4042 0.4673 0.0430 Uiso
H18 H 0.7223 0.4960 0.5186 0.0430 Uiso
C38 C 0.4125(6) 0.0211(4) 0.6983(3) 0.0342 Uani
H24 H 0.3281 0.0218 0.6631 0.0410 Uiso
C39 C 0.5436(6) 0.0867(4) 0.7128(3) 0.0347 Uani
C40 C 0.6675(6) 0.0856(4) 0.7638(3) 0.0347 Uani
H25 H 0.7586 0.1315 0.7739 0.0420 Uiso
C41 C 0.6585(6) 0.0181(4) 0.7997(3) 0.0360 Uani
H26 H 0.7432 0.0171 0.8341 0.0430 Uiso
C42 C 0.3312(6) 0.3116(4) 0.5277(3) 0.0362 Uani
H27 H 0.2472 0.3116 0.4914 0.0430 Uiso
C43 C 0.3207(6) 0.2419(4) 0.5625(3) 0.0340 Uani
H28 H 0.2303 0.1943 0.5510 0.0410 Uiso
C44 C 0.4476(6) 0.2444(4) 0.6147(3) 0.0359 Uani
C45 C 0.5762(6) 0.3105(4) 0.6333(3) 0.0342 Uani
H29 H 0.6597 0.3102 0.6698 0.0410 Uiso
C46 C 0.5869(6) 0.3796(4) 0.5990(3) 0.0357 Uani
H30 H 0.6782 0.4268 0.6115 0.0420 Uiso
N26 N 0.5545(5) 0.1606(3) 0.6797(2) 0.0350 Uani
N27 N 0.4303(5) 0.1702(3) 0.6452(2) 0.0339 Uani
N28 N 0.4632(5) 0.3800(3) 0.5460(3) 0.0366 Uani
O6 O 0.3391(4) 0.5393(2) 0.52984(19) 0.0358 Uani
H35 H 0.3594 0.5958 0.5327 0.0430 Uiso
H36 H 0.2777 0.5040 0.4814 0.0430 Uiso
N30 N 0.6638(5) 0.6175(3) 0.6120(2) 0.0351 Uani
C29 C 0.7949(6) 0.8121(3) 0.7949(3) 0.0306 Uani
C30 C 0.7643(5) 0.6745(3) 0.6678(3) 0.0301 Uani
C31 C 0.9672(6) 0.7585(4) 0.8788(3) 0.0359 Uani
C32 C 0.9795(6) 0.6515(4) 0.7516(3) 0.0383 Uani
C36 C 0.9227(6) 0.8730(4) 0.6980(3) 0.0405 Uani
C37 C 0.4017(6) 0.9526(4) 0.7351(3) 0.0367 Uani
H23 H 0.3103 0.9074 0.7254 0.0440 Uiso
N17 N 0.6987(4) 0.8229(3) 0.8104(2) 0.0304 Uani
N19 N 0.9643(5) 0.7459(3) 0.9402(2) 0.0354 Uani
N20 N 0.9786(5) 0.5778(3) 0.7444(2) 0.0392 Uani
N24 N 0.9039(5) 0.9200(3) 0.6608(2) 0.0434 Uani
N25 N 0.5240(5) 0.9513(3) 0.7853(3) 0.0369 Uani
O4 O 0.3795(4) 0.7056(2) 0.72070(18) 0.0289 Uani
H31 H 0.3888 0.7204 0.6722 0.0350 Uiso
H32 H 0.4140 0.6570 0.7264 0.0350 Uiso
O5 O 0.6437(4) 0.9584(2) 0.94195(19) 0.0346 Uani
H33 H 0.5832 0.9790 0.9670 0.0410 Uiso
H34 H 0.7095 0.9440 0.9817 0.0410 Uiso
W2 W 0.96145(2) 0.782864(13) 0.767853(9) 0.0327 Uani
C5 C 0.8139(6) 0.1801(3) 0.1816(3) 0.0308 Uani
C6 C 0.9754(6) 0.2476(4) 0.3371(3) 0.0421 Uani
C7 C 0.9357(5) 0.0744(4) 0.1430(3) 0.0316 Uani
N6 N 0.9474(5) 0.2659(3) 0.3955(2) 0.0399 Uani
N7 N 0.8789(5) 0.0008(3) 0.0912(2) 0.0417 Uani
loop_
_atom_site_aniso_label
_atom_site_aniso_U_11
_atom_site_aniso_U_22
_atom_site_aniso_U_33
_atom_site_aniso_U_23
_atom_site_aniso_U_13
_atom_site_aniso_U_12
C33 0.032 0.027 0.033 0.0132 0.0111 0.011
C34 0.023 0.04 0.032 -0.004 0.0118 -0.014
C35 0.026 0.031 0.031 0.007 0.0058 0.011
N21 0.026 0.032 0.0293 0.015 0.008 0.0117
N22 0.031 0.039 0.037 -0.006 0.0164 0.01
N23 0.026 0.033 0.034 -0.0111 -0.0108 0.009
Mn6 0.0276 0.0283 0.0287 0.0107 0.0094 0.0103
C1 0.032 0.027 0.039 0.015 0.021 0.011
C2 0.031 0.029 0.03 0.0126 0.0124 0.01
C3 0.036 0.024 0.047 0.01 0.021 0.009
C4 0.04 0.027 0.033 0.013 0.012 -0.004
C8 0.039 0.031 0.0215 -0.004 0.009 -0.01
C9 0.031 0.041 0.039 0.02 0.012 0.013
C19 0.034 0.034 0.038 0.013 0.011 0.009
C20 0.041 0.031 0.032 0.016 0.014 0.016
C21 0.035 0.027 0.031 0.0114 0.0121 0.016
C22 0.039 0.034 0.033 0.012 0.011 0.011
C23 0.04 0.03 0.035 0.016 0.007 0.015
Mn1 0.0276 0.0283 0.0287 0.0107 0.0094 0.0103
N1 0.026 0.031 0.0263 0.0076 0.0043 0.0092
N2 0.036 0.028 0.0225 0.0062 -0.0102 0.011
N3 0.03 0.033 0.041 0.0102 0.014 0.012
N4 0.03 0.033 0.04 0.0139 -0.0066 0.012
N8 0.042 0.036 0.035 0.0044 0.0172 -0.001
N9 0.026 0.039 0.048 0.023 0.0116 0.013
N13 0.033 0.028 0.039 0.0091 0.0095 0.007
O1 0.042 0.0148 0.0294 0.0124 0.0116 0.0096
O2 0.039 0.0248 0.0342 0.0132 0.0008 0.0157
W1 0.02706 0.02853 0.02831 -0.00882 0.00953 0.00894
N16 0.033 0.034 0.0327 0.0125 0.0145 0.0128
Mn8 0.028 0.0266 0.027 0.0096 0.0078 -0.0085
N31 0.026 0.032 0.0293 0.015 0.008 0.0117
N14 0.033 0.034 0.0327 0.0125 0.0145 0.0128
C24 0.034 0.034 0.038 0.013 0.011 0.009
C25 0.041 0.031 0.032 0.016 0.014 0.016
C26 0.035 0.027 0.031 0.0114 0.0121 0.016
C27 0.039 0.034 0.033 0.012 0.011 0.011
C28 0.04 0.03 0.035 0.016 0.007 0.015
N15 0.033 0.028 0.039 0.0091 0.0095 0.007
C10 0.037 0.036 0.036 0.016 0.017 0.018
C11 0.042 0.029 0.029 0.009 0.012 0.012
C12 0.031 0.04 0.037 0.015 0.017 0.015
C13 0.035 0.036 0.042 0.021 0.019 0.012
C14 0.038 0.034 0.038 0.013 0.014 0.017
C15 0.044 0.029 0.03 0.0117 0.017 0.013
C16 0.037 0.03 0.034 0.003 0.011 0.014
C17 0.035 0.038 0.034 0.017 0.015 0.016
C18 0.033 0.034 0.043 0.018 0.016 0.013
N10 0.036 0.034 0.0323 0.0095 0.0128 0.013
N11 0.034 0.038 0.0313 0.0163 0.0138 0.013
N12 0.037 0.032 0.044 0.017 0.0164 0.015
O3 0.0283 0.031 0.0346 0.0149 0.0147 -0.0087
C38 0.037 0.036 0.036 0.016 0.017 0.018
C39 0.042 0.029 0.029 0.009 0.012 0.012
C40 0.031 0.04 0.037 0.015 0.017 0.015
C41 0.035 0.036 0.042 0.021 0.019 0.012
C42 0.038 0.034 0.038 0.013 0.014 0.017
C43 0.044 0.029 0.03 0.0117 0.017 0.013
C44 0.037 0.03 0.034 0.003 0.011 0.014
C45 0.035 0.038 0.034 0.017 0.015 0.016
C46 0.033 0.034 0.043 0.018 0.016 0.013
N26 0.036 0.034 0.0323 0.0095 0.0128 0.013
N27 0.034 0.038 0.0313 0.0163 0.0138 0.013
N28 0.037 0.032 0.044 0.017 0.0164 0.015
O6 0.0283 0.031 0.0346 0.0149 0.0147 -0.0087
N30 0.036 0.028 0.0225 0.0062 -0.0102 0.011
C29 0.032 0.027 0.039 0.015 0.021 0.011
C30 0.031 0.029 0.03 0.0126 0.0124 0.01
C31 0.036 0.024 0.047 0.01 0.021 0.009
C32 0.04 0.027 0.033 0.013 0.012 -0.004
C36 0.039 0.031 0.0215 -0.004 0.009 -0.01
C37 0.031 0.041 0.039 0.02 0.012 0.013
N17 0.026 0.031 0.0263 0.0076 0.0043 0.0092
N19 0.03 0.033 0.041 0.0102 0.014 0.012
N20 0.03 0.033 0.04 0.0139 -0.0066 0.012
N24 0.042 0.036 0.035 0.0044 0.0172 -0.001
N25 0.026 0.039 0.048 0.023 0.0116 0.013
O4 0.042 0.0148 0.0294 0.0124 0.0116 0.0096
O5 0.039 0.0248 0.0342 0.0132 0.0008 0.0157
W2 0.02706 0.02853 0.02831 -0.00882 0.00953 0.00894
C5 0.032 0.027 0.033 0.0132 0.0111 0.011
C6 0.023 0.04 0.032 -0.004 0.0118 -0.014
C7 0.026 0.031 0.031 0.007 0.0058 0.011
N6 0.031 0.039 0.037 -0.006 0.0164 0.01
N7 0.026 0.033 0.034 -0.0111 -0.0108 0.009
loop_
_geom_bond_atom_site_label_1
_geom_bond_atom_site_label_2
_geom_bond_site_symmetry_1
_geom_bond_site_symmetry_2
C33 N21 1_555 1_555
C34 N22 1_555 1_555
C35 N23 1_555 1_555
N21 Mn6 1_555 1_555
C1 N1 1_555 1_555
C2 N2 1_555 1_555
C3 N3 1_555 1_555
C4 N4 1_555 1_555
C8 N8 1_555 1_555
C9 H1 1_555 1_555
C19 H9 1_555 1_555
C20 C19 1_555 1_555
H10 C20 1_555 1_555
C21 C20 1_555 1_555
C22 C21 1_555 1_555
C23 C22 1_555 1_555
H12 C23 1_555 1_555
Mn1 N1 1_555 1_555
N2 Mn8 1_555 1_555
N9 C9 1_555 1_555
N13 C19 1_555 1_555
O1 Mn1 1_555 1_555
H13 O1 1_555 1_555
H14 O1 1_555 1_555
O2 Mn1 1_555 1_555
H15 O2 1_555 1_555
H16 O2 1_555 1_555
W1 C1 1_555 1_555
N31 Mn1 1_555 1_555
C2 W1 1_555 1_555
C3 W1 1_555 1_555
C4 W1 1_555 1_555
C8 W1 1_555 1_555
C23 N13 1_555 1_555
Mn1 N9 1_555 1_555
Mn1 N13 1_555 1_555
C24 H19 1_555 1_555
C25 C24 1_555 1_555
H20 C25 1_555 1_555
C26 C25 1_555 1_555
C27 C26 1_555 1_555
C28 C27 1_555 1_555
H22 C28 1_555 1_555
N15 C24 1_555 1_555
Mn6 N15 1_555 1_555
C28 N15 1_555 1_555
H2 C10 1_555 1_555
C11 C10 1_555 1_555
C12 C11 1_555 1_555
H3 C12 1_555 1_555
C13 C12 1_555 1_555
H4 C13 1_555 1_555
C14 H5 1_555 1_555
C15 C14 1_555 1_555
H6 C15 1_555 1_555
C16 C15 1_555 1_555
C17 C16 1_555 1_555
H7 C17 1_555 1_555
C18 C17 1_555 1_555
H8 C18 1_555 1_555
Mn8 N12 1_555 1_555
N10 C11 1_555 1_555
N11 C16 1_555 1_555
N12 C14 1_555 1_555
O3 Mn8 1_555 1_555
H17 O3 1_555 1_555
H18 O3 1_555 1_555
H24 C38 1_555 1_555
C39 C38 1_555 1_555
C40 C39 1_555 1_555
H25 C40 1_555 1_555
C41 C40 1_555 1_555
H26 C41 1_555 1_555
C42 H27 1_555 1_555
C43 C42 1_555 1_555
H28 C43 1_555 1_555
C44 C43 1_555 1_555
C45 C44 1_555 1_555
H29 C45 1_555 1_555
C46 C45 1_555 1_555
H30 C46 1_555 1_555
N26 C39 1_555 1_555
N27 C44 1_555 1_555
N28 Mn8 1_555 1_555
O6 Mn8 1_555 1_555
H35 O6 1_555 1_555
H36 O6 1_555 1_555
N30 Mn8 1_555 1_555
C18 N12 1_555 1_555
N10 N11 1_555 1_555
C42 N28 1_555 1_555
C46 N28 1_555 1_555
N26 N27 1_555 1_555
C29 N17 1_555 1_555
C30 N30 1_555 1_555
C31 N19 1_555 1_555
C32 N20 1_555 1_555
C36 N24 1_555 1_555
C37 H23 1_555 1_555
Mn6 N17 1_555 1_555
N25 C37 1_555 1_555
O4 Mn6 1_555 1_555
H31 O4 1_555 1_555
H32 O4 1_555 1_555
O5 Mn6 1_555 1_555
H33 O5 1_555 1_555
H34 O5 1_555 1_555
W2 C29 1_555 1_555
C30 W2 1_555 1_555
C31 W2 1_555 1_555
C32 W2 1_555 1_555
C36 W2 1_555 1_555
Mn6 N25 1_555 1_555
C5 N31 1_555 1_555
C6 N6 1_555 1_555
C7 N7 1_555 1_555

#END
