
###############################################################################
#
# This file contains modified crystal structure data generated from the
# MOF subset of the Cambridge Structural Database (CSD) v543 
# hosted by the Cambridge Crystallographic Data Centre (CCDC).
#
# This work is licensed under the Creative Commons
# Attribution-NonCommercial-ShareAlike 4.0 International License.
# To view a copy of this license, visit
# http://creativecommons.org/licenses/by-nc-sa/4.0/
# or send a letter to
# Creative Commons, PO Box 1866, Mountain View, CA 94042, USA.
#
# CIF created using the CSD Python API on 29 September 2022
# The structure has been converted into the P1 space group
# The structure has a 3D framework
# The original CSD entry GOZROE is in the triclinic crystal system
# The framework has been calculated to contain at least 10.0% void space
# The void calculation uses a probe of radius 1.32A, grid spacing 0.4
# H atom positions have been added when not included in the experimental data
#
###############################################################################

data_GOZROE
_chemical_formula_moiety         '(C60 H56 Cu4 Mo16 N32 O56)n'
_symmetry_cell_setting           triclinic
_symmetry_space_group_name_H-M   'P 1'
_symmetry_Int_Tables_number      1
_space_group_name_Hall           'P 1'
loop_
_symmetry_equiv_pos_site_id
_symmetry_equiv_pos_as_xyz
1 x,y,z
_cell_length_a                   12.365(5)
_cell_length_b                   15.110(5)
_cell_length_c                   16.998(5)
_cell_angle_alpha                107.701(5)
_cell_angle_beta                 107.640(5)
_cell_angle_gamma                95.000(5)
_cell_volume                     2826.42
loop_
_atom_site_label
_atom_site_type_symbol
_atom_site_fract_x
_atom_site_fract_y
_atom_site_fract_z
Mo1 Mo 0.15156(4) 0.09444(4) 0.30359(3)
Mo2 Mo 0.40342(4) 0.03426(4) 0.35243(3)
C3 C 0.0682(5) 0.3645(5) 0.1120(4)
H3 H 0.0465 0.4091 0.0822
H4 H 0.0828 0.3102 0.0712
C4 C 0.2599(5) 0.4790(4) 0.2056(4)
C5 C 0.2828(5) 0.5313(4) 0.1510(4)
C6 C 0.2223(5) 0.5128(4) 0.0643(4)
H5 H 0.1607 0.4614 0.0332
C7 C 0.2537(6) 0.5716(5) 0.0232(4)
C8 C 0.3433(6) 0.6453(5) 0.0696(5)
H7 H 0.3642 0.6865 0.0433
C9 C 0.4043(6) 0.6593(5) 0.1571(4)
H8 H 0.4671 0.7096 0.1886
C10 C 0.2873(5) 0.4366(4) 0.3172(4)
C11 C 0.3374(5) 0.4251(4) 0.4048(4)
C12 C 0.3547(5) 0.4974(5) 0.4811(4)
H9 H 0.3306 0.5537 0.4798
C13 C 0.4089(5) 0.4861(5) 0.5613(4)
H10 H 0.4208 0.5357 0.6133
C14 C 0.4217(6) 0.3347(5) 0.4898(4)
H11 H 0.4423 0.2776 0.4922
C15 C 0.3701(6) 0.3412(5) 0.4089(4)
H12 H 0.3572 0.2901 0.3577
C17 C 0.0121(5) 0.2850(5) 0.4501(4)
H14 H 0.0671 0.3408 0.4814
H15 H 0.0254 0.2413 0.5522
N4 N 0.1738(4) 0.4094(3) 0.1896(3)
N5 N 0.1905(4) 0.3802(4) 0.2595(3)
N6 N 0.3328(4) 0.4991(3) 0.2876(3)
N7 N 0.3758(4) 0.6032(4) 0.1971(3)
N8 N 0.4442(4) 0.4059(4) 0.5654(3)
O1 O 0.1021(3) 0.1758(3) 0.2595(3)
O2 O 0.1756(4) 0.1433(3) 0.4123(3)
O3 O 0.3061(3) 0.1094(3) 0.3020(3)
O4 O 0.4183(4) 0.0894(3) 0.4586(3)
O5 O 0.5320(4) 0.0707(3) 0.3443(3)
O14 O 0.0026(3) 0.0046(3) 0.2664(2)
Cu5 Cu 0.46719(6) 0.60350(6) 0.31835(5)
Cu6 Cu 0.53281(6) 0.39650(6) 0.68165(5)
Mo3 Mo 0.27999(4) 0.83692(4) 0.36172(3)
Mo4 Mo 0.18658(4) 0.88002(4) 0.16038(3)
Mo5 Mo 0.03457(4) 0.90331(4) 0.31281(3)
Mo8 Mo 0.06593(4) 0.69053(4) 0.17348(3)
O6 O 0.4067(3) 0.9075(3) 0.3529(2)
O7 O 0.3295(3) 0.7340(3) 0.3606(3)
O8 O 0.2910(3) 0.8919(3) 0.4672(3)
O9 O 0.2147(3) 0.7779(3) 0.2079(2)
O10 O 0.1656(4) 0.8228(3) 0.0528(3)
O11 O 0.3283(3) 0.9429(3) 0.2053(2)
O12 O 0.1989(3) 0.9517(3) 0.3107(2)
O13 O 0.1108(3) 0.9873(3) 0.1558(2)
O17 O 0.0185(3) 0.8306(3) 0.1619(2)
O18 O 0.1074(3) 0.7948(3) 0.3172(2)
O19 O 0.1110(3) 0.6094(3) 0.2200(3)
O20 O 0.0457(4) 0.6383(3) 0.0654(3)
O26 O 0.0520(3) 0.9603(3) 0.4195(2)
Mo6 Mo 0.94109(4) 0.94468(4) 0.11217(3)
Mo7 Mo 0.81343(4) 0.75326(4) 0.12376(4)
C22 C 0.7492(5) 0.9369(4) 0.3889(4)
H17 H 0.8328 0.9497 0.4161
H18 H 0.7185 0.9754 0.4309
C23 C 0.7024(5) 0.6970(5) 0.3454(4)
H19 H 0.7245 0.6386 0.3372
C24 C 0.5999(5) 0.7990(4) 0.3585(4)
H20 H 0.5396 0.8307 0.3627
C25 C 0.6151(5) 0.9588(4) 0.1842(4)
C26 C 0.5201(5) 0.9310(4) 0.0976(4)
C27 C 0.4433(5) 0.9891(4) 0.0825(4)
C28 C 0.3588(5) 0.9642(5) 0.0001(4)
C30 C 0.5073(5) 0.8468(5) 0.0313(4)
H24 H 0.5553 0.8041 0.0405
N11 N 0.7176(4) 0.9636(3) 0.3085(3)
N12 N 0.6238(4) 0.9098(3) 0.2365(3)
N13 N 0.7047(4) 0.8390(3) 0.3684(3)
N14 N 0.7726(4) 0.7727(4) 0.3610(4)
N15 N 0.5938(4) 0.7078(3) 0.3418(3)
O16 O 0.9221(3) 0.8865(3) 0.0044(3)
O21 O 0.9089(3) 0.6748(3) 0.1698(3)
O22 O 0.7950(4) 0.7007(3) 0.0147(3)
O23 O 0.6841(3) 0.7176(3) 0.1315(3)
O24 O 0.8914(3) 0.8412(3) 0.2659(3)
O25 O 0.8104(3) 0.8785(3) 0.1227(3)
O27 O 0.5556(5) 0.4798(4) 0.2407(3)
H25 H 0.5598 0.4227 0.2120
H26 H 0.5903 0.4959 0.2095
N19 N 0.5558(4) 0.5941(4) 0.4346(3)
Mo6_2 Mo 0.05891(4) 0.05532(4) 0.88783(3)
Mo7_2 Mo 0.18657(4) 0.24674(4) 0.87624(4)
C22_2 C 0.2508(5) 0.0631(4) 0.6111(4)
H17_2 H 0.1672 0.0503 0.5839
H18_2 H 0.2815 0.0246 0.5691
C23_2 C 0.2976(5) 0.3030(5) 0.6546(4)
H19_2 H 0.2755 0.3614 0.6628
C24_2 C 0.4001(5) 0.2010(4) 0.6415(4)
H20_2 H 0.4604 0.1693 0.6373
C25_2 C 0.3849(5) 0.0412(4) 0.8158(4)
C26_2 C 0.4799(5) 0.0690(4) 0.9024(4)
C27_2 C 0.5567(5) 0.0109(4) 0.9175(4)
C28_2 C 0.6412(5) 0.0358(5) 0.9999(4)
C30_2 C 0.4927(5) 0.1532(5) 0.9687(4)
H24_2 H 0.4447 0.1959 0.9595
N11_2 N 0.2824(4) 0.0364(3) 0.6915(3)
N12_2 N 0.3762(4) 0.0902(3) 0.7635(3)
N13_2 N 0.2953(4) 0.1610(3) 0.6316(3)
N14_2 N 0.2274(4) 0.2273(4) 0.6390(4)
N15_2 N 0.4062(4) 0.2922(3) 0.6582(3)
O16_2 O 0.0779(3) 0.1135(3) 0.9956(3)
O21_2 O 0.0911(3) 0.3252(3) 0.8302(3)
O22_2 O 0.2050(4) 0.2993(3) 0.9853(3)
O23_2 O 0.3159(3) 0.2824(3) 0.8685(3)
O24_2 O 0.1086(3) 0.1588(3) 0.7341(3)
O25_2 O 0.1896(3) 0.1215(3) 0.8773(3)
O27_2 O 0.4444(5) 0.5202(4) 0.7593(3)
H25_2 H 0.4402 0.5773 0.7880
H26_2 H 0.4097 0.5041 0.7905
N17 N 0.6672(4) 0.5009(3) 0.7124(3)
N18 N 0.6242(4) 0.3968(4) 0.8029(3)
O29 O 0.6705(3) 0.2660(3) 0.6394(3)
Mo3_2 Mo 0.72001(4) 0.16308(4) 0.63828(3)
Mo4_2 Mo 0.81342(4) 0.11998(4) 0.83962(3)
Mo5_2 Mo 0.96543(4) 0.09669(4) 0.68719(3)
Mo8_2 Mo 0.93407(4) 0.30947(4) 0.82652(3)
O6_2 O 0.5933(3) 0.0925(3) 0.6471(2)
O8_2 O 0.7090(3) 0.1081(3) 0.5328(3)
O9_2 O 0.7853(3) 0.2221(3) 0.7921(2)
O10_2 O 0.8344(4) 0.1772(3) 0.9472(3)
O11_2 O 0.6717(3) 0.0571(3) 0.7947(2)
O12_2 O 0.8011(3) 0.0483(3) 0.6893(2)
O13_2 O 0.8892(3) 0.0127(3) 0.8442(2)
O17_2 O 0.9815(3) 0.1694(3) 0.8381(2)
O18_2 O 0.8926(3) 0.2052(3) 0.6828(2)
O19_2 O 0.8890(3) 0.3906(3) 0.7800(3)
O20_2 O 0.9543(4) 0.3617(3) 0.9346(3)
O26_2 O 0.9480(3) 0.0397(3) 0.5805(2)
Mo1_2 Mo 0.84844(4) 0.90556(4) 0.69641(3)
Mo2_2 Mo 0.59658(4) 0.96574(4) 0.64757(3)
C3_2 C 0.9318(5) 0.6355(5) 0.8880(4)
H3_2 H 0.9535 0.5909 0.9178
H4_2 H 0.9172 0.6898 0.9288
C4_2 C 0.7401(5) 0.5210(4) 0.7944(4)
C5_2 C 0.7172(5) 0.4687(4) 0.8490(4)
C6_2 C 0.7777(5) 0.4872(4) 0.9357(4)
H5_2 H 0.8393 0.5386 0.9668
C7_2 C 0.7463(6) 0.4284(5) 0.9768(4)
C8_2 C 0.6567(6) 0.3547(5) 0.9304(5)
H7_2 H 0.6358 0.3135 0.9567
C9_2 C 0.5957(6) 0.3407(5) 0.8429(4)
H8_2 H 0.5329 0.2904 0.8114
C10_2 C 0.7127(5) 0.5634(4) 0.6828(4)
C11_2 C 0.6626(5) 0.5749(4) 0.5952(4)
C12_2 C 0.6453(5) 0.5026(5) 0.5189(4)
H9_2 H 0.6694 0.4463 0.5202
C13_2 C 0.5911(5) 0.5139(5) 0.4387(4)
H10_2 H 0.5792 0.4643 0.3867
C14_2 C 0.5783(6) 0.6653(5) 0.5102(4)
H11_2 H 0.5577 0.7224 0.5078
C15_2 C 0.6299(6) 0.6588(5) 0.5911(4)
H12_2 H 0.6428 0.7099 0.6423
C17_2 C 0.9879(5) 0.7150(5) 0.5499(4)
H14_2 H 0.9329 0.6592 0.5186
H15_2 H 0.9746 0.7587 0.4478
N4_2 N 0.8262(4) 0.5906(3) 0.8104(3)
N5_2 N 0.8095(4) 0.6198(4) 0.7405(3)
O1_2 O 0.8979(3) 0.8242(3) 0.7405(3)
O2_2 O 0.8244(4) 0.8567(3) 0.5877(3)
O3_2 O 0.6939(3) 0.8906(3) 0.6980(3)
O4_2 O 0.5817(4) 0.9106(3) 0.5414(3)
O5_2 O 0.4680(4) 0.9293(3) 0.6557(3)
O14_2 O 0.9974(3) 0.9954(3) 0.7336(2)
H6 H 0.2134 0.5603 0.9641
Cu1 Cu 0.76745(6) 0.14588(5) 0.18704(5)
C1 C 0.8432(6) 0.3447(5) 0.1901(5)
H1 H 0.7896 0.3679 0.2153
C2 C 0.9381(5) 0.2498(4) 0.1367(4)
H2 H 0.9673 0.1961 0.1163
C16 C 0.9545(5) 0.2611(4) 0.3611(4)
H13 H 0.9721 0.3012 0.3327
C18 C 0.9877(5) 0.2258(5) 0.4920(4)
C19 C 0.9062(5) 0.1422(4) 0.4438(4)
H16 H 0.8890 0.1004 0.4707
C20 C 0.8518(5) 0.1229(4) 0.3554(4)
C21 C 0.7594(5) 0.0411(4) 0.2974(4)
H21 H 0.4478 0.0448 0.1271
N1 N 0.8530(4) 0.2521(3) 0.1687(3)
N2 N 0.9138(5) 0.3979(4) 0.1729(4)
N3 N 0.9754(4) 0.3344(4) 0.1382(3)
N9 N 0.8732(4) 0.1813(3) 0.3139(3)
N10 N 0.6963(4) 0.0403(3) 0.2170(3)
O15 O 0.8924(3) 0.0478(3) 0.1158(3)
O28 O 0.6538(5) 0.2643(5) 0.2610(4)
N20 N 0.6520(4) 0.1144(3) 0.0659(3)
H27 H 0.609959 0.292164 0.218259
H28 H 0.599081 0.229867 0.279134
C29 C 0.5791(5) 0.1725(4) 0.0493(4)
H23 H 0.5869 0.2288 0.0943
H22 H 0.3073 0.0044 0.9907
C29_2 C 0.4209(5) 0.8275(4) 0.9507(4)
H23_2 H 0.4131 0.7712 0.9057
N16 N 0.3480(4) 0.8856(3) 0.9341(3)
Cu3 Cu 0.23255(6) 0.85412(5) 0.81296(5)
C1_2 C 0.1568(6) 0.6553(5) 0.8099(5)
H1_2 H 0.2104 0.6321 0.7847
C2_2 C 0.0619(5) 0.7502(4) 0.8633(4)
H2_2 H 0.0327 0.8039 0.8837
C16_2 C 0.0455(5) 0.7389(4) 0.6389(4)
H13_2 H 0.0279 0.6988 0.6673
C18_2 C 0.0123(5) 0.7742(5) 0.5080(4)
C19_2 C 0.0938(5) 0.8578(4) 0.5562(4)
H16_2 H 0.1110 0.8996 0.5293
C20_2 C 0.1482(5) 0.8771(4) 0.6446(4)
C21_2 C 0.2406(5) 0.9589(4) 0.7026(4)
H21_2 H 0.5522 0.9552 0.8729
N1_2 N 0.1470(4) 0.7479(3) 0.8313(3)
N2_2 N 0.0862(5) 0.6021(4) 0.8271(4)
N3_2 N 0.0246(4) 0.6656(4) 0.8618(3)
N9_2 N 0.1268(4) 0.8187(3) 0.6861(3)
N10_2 N 0.3037(4) 0.9597(3) 0.7830(3)
O15_2 O 0.1076(3) 0.9522(3) 0.8842(3)
O28_2 O 0.3462(5) 0.7357(5) 0.7390(4)
H27_2 H 0.390041 0.707836 0.781741
H28_2 H 0.400919 0.770133 0.720866
H22_2 H 0.6927 0.9956 0.0093
H6_2 H 0.7866 0.4397 0.0359
loop_
_geom_bond_atom_site_label_1
_geom_bond_atom_site_label_2
_geom_bond_site_symmetry_1
_geom_bond_site_symmetry_2
Mo1 O1 1_555 1_555
Mo2 O3 1_555 1_555
C3 H3 1_555 1_555
H4 C3 1_555 1_555
C4 C5 1_555 1_555
C5 C6 1_555 1_555
C6 H5 1_555 1_555
C7 C6 1_555 1_555
C8 C7 1_555 1_555
H7 C8 1_555 1_555
C9 C8 1_555 1_555
H8 C9 1_555 1_555
C10 C11 1_555 1_555
C11 C12 1_555 1_555
C12 H9 1_555 1_555
C13 C12 1_555 1_555
H10 C13 1_555 1_555
C14 H11 1_555 1_555
C15 C11 1_555 1_555
H12 C15 1_555 1_555
H14 C17 1_555 1_555
N4 C3 1_555 1_555
N5 C10 1_555 1_555
N6 C4 1_555 1_555
N7 C5 1_555 1_555
N8 C13 1_555 1_555
O2 Mo1 1_555 1_555
O3 Mo1 1_555 1_555
O4 Mo2 1_555 1_555
O5 Mo2 1_555 1_555
O14 Mo1 1_555 1_555
Cu5 N6 1_555 1_555
Cu6 N8 1_555 1_555
C4 N4 1_555 1_555
C9 N7 1_555 1_555
C10 N6 1_555 1_555
C14 C15 1_555 1_555
C14 N8 1_555 1_555
N4 N5 1_555 1_555
N7 Cu5 1_555 1_555
Mo3 O6 1_555 1_555
Mo4 O9 1_555 1_555
Mo5 O12 1_555 1_555
Mo8 O9 1_555 1_555
O7 Mo3 1_555 1_555
O8 Mo3 1_555 1_555
O9 Mo3 1_555 1_555
O10 Mo4 1_555 1_555
O17 Mo4 1_555 1_555
O18 Mo3 1_555 1_555
O19 Mo8 1_555 1_555
O20 Mo8 1_555 1_555
O26 Mo5 1_555 1_555
Cu5 O7 1_555 1_555
Mo3 O12 1_555 1_555
Mo4 O11 1_555 1_555
Mo4 O12 1_555 1_555
Mo4 O13 1_555 1_555
Mo5 O17 1_555 1_555
Mo5 O18 1_555 1_555
Mo8 O17 1_555 1_555
Mo8 O18 1_555 1_555
Cu5 N15 1_555 1_555
C22 H17 1_555 1_555
H18 C22 1_555 1_555
C23 H19 1_555 1_555
C24 H20 1_555 1_555
C25 C26 1_555 1_555
C26 C27 1_555 1_555
C28 C27 1_555 1_555
C30 C26 1_555 1_555
H24 C30 1_555 1_555
N12 C25 1_555 1_555
N13 C22 1_555 1_555
N14 C23 1_555 1_555
N15 C23 1_555 1_555
O16 Mo6 1_555 1_555
O21 Mo7 1_555 1_555
O22 Mo7 1_555 1_555
O23 Mo7 1_555 1_555
O25 Mo6 1_555 1_555
O27 Cu5 1_555 1_555
H25 O27 1_555 1_555
H26 O27 1_555 1_555
N19 Cu5 1_555 1_555
Mo7 O24 1_555 1_555
Mo7 O25 1_555 1_555
C22 N11 1_555 1_555
C24 N13 1_555 1_555
C24 N15 1_555 1_555
N11 N12 1_555 1_555
N13 N14 1_555 1_555
Cu6 N15_2 1_555 1_555
C22_2 H17_2 1_555 1_555
H18_2 C22_2 1_555 1_555
C23_2 H19_2 1_555 1_555
C24_2 H20_2 1_555 1_555
C25_2 C26_2 1_555 1_555
C26_2 C27_2 1_555 1_555
C28_2 C27_2 1_555 1_555
C30_2 C26_2 1_555 1_555
H24_2 C30_2 1_555 1_555
N12_2 C25_2 1_555 1_555
N13_2 C22_2 1_555 1_555
N14_2 C23_2 1_555 1_555
N15_2 C23_2 1_555 1_555
O16_2 Mo6_2 1_555 1_555
O21_2 Mo7_2 1_555 1_555
O22_2 Mo7_2 1_555 1_555
O23_2 Mo7_2 1_555 1_555
O25_2 Mo6_2 1_555 1_555
O27_2 Cu6 1_555 1_555
H25_2 O27_2 1_555 1_555
H26_2 O27_2 1_555 1_555
N17 Cu6 1_555 1_555
N18 Cu6 1_555 1_555
O29 Cu6 1_555 1_555
Mo7_2 O24_2 1_555 1_555
Mo7_2 O25_2 1_555 1_555
C22_2 N11_2 1_555 1_555
C24_2 N13_2 1_555 1_555
C24_2 N15_2 1_555 1_555
N11_2 N12_2 1_555 1_555
N13_2 N14_2 1_555 1_555
Mo3_2 O6_2 1_555 1_555
Mo4_2 O9_2 1_555 1_555
Mo5_2 O12_2 1_555 1_555
Mo8_2 O9_2 1_555 1_555
O29 Mo3_2 1_555 1_555
O8_2 Mo3_2 1_555 1_555
O9_2 Mo3_2 1_555 1_555
O10_2 Mo4_2 1_555 1_555
O17_2 Mo4_2 1_555 1_555
O18_2 Mo3_2 1_555 1_555
O19_2 Mo8_2 1_555 1_555
O20_2 Mo8_2 1_555 1_555
O26_2 Mo5_2 1_555 1_555
Mo3_2 O12_2 1_555 1_555
Mo4_2 O11_2 1_555 1_555
Mo4_2 O12_2 1_555 1_555
Mo4_2 O13_2 1_555 1_555
Mo5_2 O17_2 1_555 1_555
Mo5_2 O18_2 1_555 1_555
Mo8_2 O17_2 1_555 1_555
Mo8_2 O18_2 1_555 1_555
Mo1_2 O1_2 1_555 1_555
Mo2_2 O3_2 1_555 1_555
C3_2 H3_2 1_555 1_555
H4_2 C3_2 1_555 1_555
C4_2 C5_2 1_555 1_555
C5_2 C6_2 1_555 1_555
C6_2 H5_2 1_555 1_555
C7_2 C6_2 1_555 1_555
C8_2 C7_2 1_555 1_555
H7_2 C8_2 1_555 1_555
C9_2 C8_2 1_555 1_555
H8_2 C9_2 1_555 1_555
C10_2 C11_2 1_555 1_555
C11_2 C12_2 1_555 1_555
C12_2 H9_2 1_555 1_555
C13_2 C12_2 1_555 1_555
H10_2 C13_2 1_555 1_555
C14_2 H11_2 1_555 1_555
C15_2 C11_2 1_555 1_555
H12_2 C15_2 1_555 1_555
H14_2 C17_2 1_555 1_555
N4_2 C3_2 1_555 1_555
N5_2 C10_2 1_555 1_555
N17 C4_2 1_555 1_555
N18 C5_2 1_555 1_555
N19 C13_2 1_555 1_555
O2_2 Mo1_2 1_555 1_555
O3_2 Mo1_2 1_555 1_555
O4_2 Mo2_2 1_555 1_555
O5_2 Mo2_2 1_555 1_555
O14_2 Mo1_2 1_555 1_555
C4_2 N4_2 1_555 1_555
C9_2 N18 1_555 1_555
C10_2 N17 1_555 1_555
C14_2 C15_2 1_555 1_555
C14_2 N19 1_555 1_555
N4_2 N5_2 1_555 1_555
Cu1 N1 1_555 1_555
C1 H1 1_555 1_555
C2 H2 1_555 1_555
C16 H13 1_555 1_555
C19 C18 1_555 1_555
H16 C19 1_555 1_555
C20 C19 1_555 1_555
C21 C20 1_555 1_555
N1 C1 1_555 1_555
N2 C1 1_555 1_555
N3 C2 1_555 1_555
N9 Cu1 1_555 1_555
N10 Cu1 1_555 1_555
O15 Cu1 1_555 1_555
O28 Cu1 1_555 1_555
N20 Cu1 1_555 1_555
C2 N1 1_555 1_555
C16 N9 1_555 1_555
C20 N9 1_555 1_555
C21 N10 1_555 1_555
N2 N3 1_555 1_555
O28 H27 1_555 1_555
O28 H28 1_555 1_555
C29 H23 1_555 1_555
C29 N20 1_555 1_555
C29_2 H23_2 1_555 1_555
Cu3 N16 1_555 1_555
C29_2 N16 1_555 1_555
Cu3 N1_2 1_555 1_555
C1_2 H1_2 1_555 1_555
C2_2 H2_2 1_555 1_555
C16_2 H13_2 1_555 1_555
C19_2 C18_2 1_555 1_555
H16_2 C19_2 1_555 1_555
C20_2 C19_2 1_555 1_555
C21_2 C20_2 1_555 1_555
N1_2 C1_2 1_555 1_555
N2_2 C1_2 1_555 1_555
N3_2 C2_2 1_555 1_555
N9_2 Cu3 1_555 1_555
N10_2 Cu3 1_555 1_555
O15_2 Cu3 1_555 1_555
O28_2 Cu3 1_555 1_555
C2_2 N1_2 1_555 1_555
C16_2 N9_2 1_555 1_555
C20_2 N9_2 1_555 1_555
C21_2 N10_2 1_555 1_555
N2_2 N3_2 1_555 1_555
O28_2 H27_2 1_555 1_555
O28_2 H28_2 1_555 1_555

#END
