
###############################################################################
#
# This file contains modified crystal structure data generated from the
# MOF subset of the Cambridge Structural Database (CSD) v543 
# hosted by the Cambridge Crystallographic Data Centre (CCDC).
#
# This work is licensed under the Creative Commons
# Attribution-NonCommercial-ShareAlike 4.0 International License.
# To view a copy of this license, visit
# http://creativecommons.org/licenses/by-nc-sa/4.0/
# or send a letter to
# Creative Commons, PO Box 1866, Mountain View, CA 94042, USA.
#
# CIF created using the CSD Python API on 29 September 2022
# The structure has been converted into the P1 space group
# The structure has a 3D framework
# The original CSD entry GUCDOA is in the monoclinic crystal system
# The framework has been calculated to contain at least 10.0% void space
# The void calculation uses a probe of radius 1.32A, grid spacing 0.4
# The framework is charged, counterions have been retained in the structure
#
###############################################################################

data_GUCDOA
_chemical_formula_moiety         '(C56 H56 Cl6 La4 N8 Ni6 O44)n'
_symmetry_cell_setting           triclinic
_symmetry_space_group_name_H-M   'P 1'
_symmetry_Int_Tables_number      1
_space_group_name_Hall           'P 1'
loop_
_symmetry_equiv_pos_site_id
_symmetry_equiv_pos_as_xyz
1 x,y,z
_cell_length_a                   12.4298(4)
_cell_length_b                   18.1272(4)
_cell_length_c                   10.7860(3)
_cell_angle_alpha                90
_cell_angle_beta                 102.874(3)
_cell_angle_gamma                90
_cell_volume                     2369.18
loop_
_atom_site_label
_atom_site_type_symbol
_atom_site_fract_x
_atom_site_fract_y
_atom_site_fract_z
Cl1 Cl 0.000000 0.84213(7) 0.750000
Cl1_2 Cl 1.000000 0.84213(7) 0.750000
Cl1_3 Cl 0.500000 0.34213(7) 0.750000
Cl1_4 Cl 0.000000 0.15787(7) 0.250000
Cl1_5 Cl 1.000000 0.15787(7) 0.250000
Cl1_6 Cl 0.500000 0.65787(7) 0.250000
La1 La 0.000000 0.47180(2) 0.250000
Ni1 Ni 0.250000 0.750000 0.500000
O1 O 0.30981(15) 0.84920(10) 0.45073(17)
O2 O 0.32278(15) 0.91721(10) 0.28232(17)
O3 O 0.04353(15) 0.56867(10) 0.11124(17)
O5 O 0.10628(18) 0.80508(13) 0.5165(2)
H1 H 0.099(3) 0.8072(18) 0.5903(15)
H2 H 0.098(3) 0.8435(12) 0.477(3)
N1 N 0.19492(17) 0.74571(11) 0.30950(19)
C1 C 0.2908(2) 0.86211(14) 0.3322(2)
C2 C 0.2228(2) 0.80459(13) 0.2472(2)
C3 C 0.1926(2) 0.81044(13) 0.1160(2)
H5 H 0.209662 0.853593 0.074294
C4 C 0.13683(19) 0.75211(14) 0.0466(2)
C5 C 0.1132(2) 0.68963(13) 0.1109(2)
C6 C 0.1415(2) 0.68992(13) 0.2433(2)
H7 H 0.121770 0.648678 0.287869
C7 C 0.06435(19) 0.62091(13) 0.0437(2)
O11 O 0.17762(18) 0.52605(10) 0.3966(2)
H8 H 0.177(3) 0.5621(11) 0.443(3)
H9 H 0.218(3) 0.4922(12) 0.430(3)
O12 O 0.39372(18) 0.69492(13) 0.4835(2)
H13 H 0.401(3) 0.6928(18) 0.4097(15)
H14 H 0.402(3) 0.6565(12) 0.523(3)
La3 La 0.500000 0.97180(2) 0.250000
La5 La 0.000000 0.52820(2) 0.750000
O13 O 0.19019(15) 0.65080(10) 0.54927(17)
O15 O 0.17722(15) 0.41721(10) 0.21768(17)
O17 O 0.05161(14) 0.38119(9) 0.42465(16)
N3 N 0.30508(17) 0.75429(11) 0.69050(19)
O4 O 0.05161(14) 0.61881(9) 0.92465(16)
H6 H 0.115092 0.754780 0.956498
La1_2 La 1.000000 0.47180(2) 0.250000
O6 O 0.82238(18) 0.52605(10) 0.1034(2)
H3 H 0.823(3) 0.5621(11) 0.057(3)
H4 H 0.782(3) 0.4922(12) 0.070(3)
O7 O 0.69019(15) 0.84920(10) 0.04927(17)
O8 O 0.67722(15) 0.91721(10) 0.21768(17)
O9 O 0.95647(15) 0.56867(10) 0.38876(17)
O10 O 0.94839(14) 0.61881(9) 0.57535(16)
N2 N 0.80508(17) 0.74571(11) 0.19050(19)
C8 C 0.7092(2) 0.86211(14) 0.1678(2)
C9 C 0.7772(2) 0.80459(13) 0.2528(2)
C10 C 0.8074(2) 0.81044(13) 0.3840(2)
H10 H 0.790338 0.853593 0.425706
C11 C 0.86317(19) 0.75211(14) 0.4534(2)
H11 H 0.884908 0.754780 0.543502
C12 C 0.8868(2) 0.68963(13) 0.3891(2)
C13 C 0.8585(2) 0.68992(13) 0.2567(2)
H12 H 0.878230 0.648678 0.212131
C14 C 0.93565(19) 0.62091(13) 0.4563(2)
La5_2 La 1.000000 0.52820(2) 0.750000
Ni2 Ni 0.750000 0.750000 0.000000
O14 O 0.82278(15) 0.41721(10) 0.28232(17)
O16 O 0.94839(14) 0.38119(9) 0.07535(16)
Ni2_2 Ni 0.750000 0.750000 1.000000
H2_2 H 0.902(3) 0.8435(12) 0.023(3)
O12_2 O 0.60628(18) 0.69492(13) 0.0165(2)
H13_2 H 0.599(3) 0.6928(18) 0.0903(15)
O5_2 O 0.89372(18) 0.80508(13) 0.9835(2)
H1_2 H 0.901(3) 0.8072(18) 0.9097(15)
H14_2 H 0.598(3) 0.6565(12) 0.977(3)
O13_2 O 0.80981(15) 0.65080(10) 0.95073(17)
N3_2 N 0.69492(17) 0.75429(11) 0.80950(19)
Ni1_2 Ni 0.750000 0.250000 0.500000
O1_2 O 0.80981(15) 0.34920(10) 0.45073(17)
O3_2 O 0.54353(15) 0.06867(10) 0.11124(17)
O5_3 O 0.60628(18) 0.30508(13) 0.5165(2)
H1_3 H 0.599(3) 0.3072(18) 0.5903(15)
H2_3 H 0.598(3) 0.3435(12) 0.477(3)
O6_2 O 0.32238(18) 0.02605(10) 0.1034(2)
H3_2 H 0.323(3) 0.0621(11) 0.057(3)
N1_2 N 0.69492(17) 0.24571(11) 0.30950(19)
C1_2 C 0.7908(2) 0.36211(14) 0.3322(2)
C2_2 C 0.7228(2) 0.30459(13) 0.2472(2)
C3_2 C 0.6926(2) 0.31044(13) 0.1160(2)
H5_2 H 0.709662 0.353593 0.074294
C4_2 C 0.63683(19) 0.25211(14) 0.0466(2)
C5_2 C 0.6132(2) 0.18963(13) 0.1109(2)
C6_2 C 0.6415(2) 0.18992(13) 0.2433(2)
H7_2 H 0.621770 0.148678 0.287869
C7_2 C 0.56435(19) 0.12091(13) 0.0437(2)
O7_2 O 0.19019(15) 0.34920(10) 0.04927(17)
O9_2 O 0.45647(15) 0.06867(10) 0.38876(17)
O10_2 O 0.44839(14) 0.11881(9) 0.57535(16)
O11_2 O 0.67762(18) 0.02605(10) 0.3966(2)
H8_2 H 0.677(3) 0.0621(11) 0.443(3)
N2_2 N 0.30508(17) 0.24571(11) 0.19050(19)
C8_2 C 0.2092(2) 0.36211(14) 0.1678(2)
C9_2 C 0.2772(2) 0.30459(13) 0.2528(2)
C10_2 C 0.3074(2) 0.31044(13) 0.3840(2)
H10_2 H 0.290338 0.353593 0.425706
C11_2 C 0.36317(19) 0.25211(14) 0.4534(2)
H11_2 H 0.384908 0.254780 0.543502
C12_2 C 0.3868(2) 0.18963(13) 0.3891(2)
C13_2 C 0.3585(2) 0.18992(13) 0.2567(2)
H12_2 H 0.378230 0.148678 0.212131
C14_2 C 0.43565(19) 0.12091(13) 0.4563(2)
O12_3 O 0.89372(18) 0.19492(13) 0.4835(2)
H13_3 H 0.901(3) 0.1928(18) 0.4097(15)
H14_3 H 0.902(3) 0.1565(12) 0.523(3)
La5_3 La 0.500000 0.02820(2) 0.750000
Ni2_3 Ni 0.250000 0.250000 0.000000
O13_3 O 0.69019(15) 0.15080(10) 0.54927(17)
N3_3 N 0.80508(17) 0.25429(11) 0.69050(19)
O4_2 O 0.55161(14) 0.11881(9) 0.92465(16)
H6_2 H 0.615092 0.254780 0.956498
Ni2_4 Ni 0.250000 0.250000 1.000000
H4_2 H 0.282(3) 0.9922(12) 0.070(3)
H9_2 H 0.718(3) 0.9922(12) 0.430(3)
O16_2 O 0.44839(14) 0.88119(9) 0.07535(16)
O17_2 O 0.55161(14) 0.88119(9) 0.42465(16)
H2_4 H 0.402(3) 0.3435(12) 0.023(3)
O12_4 O 0.10628(18) 0.19492(13) 0.0165(2)
H13_4 H 0.099(3) 0.1928(18) 0.0903(15)
O5_4 O 0.39372(18) 0.30508(13) 0.9835(2)
H1_4 H 0.401(3) 0.3072(18) 0.9097(15)
H14_4 H 0.098(3) 0.1565(12) 0.977(3)
O13_4 O 0.30981(15) 0.15080(10) 0.95073(17)
N3_4 N 0.19492(17) 0.25429(11) 0.80950(19)
O6_3 O 0.17762(18) 0.47395(10) 0.8966(2)
H3_3 H 0.177(3) 0.4379(11) 0.943(3)
H4_3 H 0.218(3) 0.5078(12) 0.930(3)
O8_2 O 0.32278(15) 0.08279(10) 0.78232(17)
O9_3 O 0.04353(15) 0.43133(10) 0.61124(17)
C8_3 C 0.2908(2) 0.13789(14) 0.8322(2)
C9_3 C 0.2228(2) 0.19541(13) 0.7472(2)
C10_3 C 0.1926(2) 0.18956(13) 0.6160(2)
H10_3 H 0.209662 0.146407 0.574294
C11_3 C 0.13683(19) 0.24789(14) 0.5466(2)
H11_3 H 0.115092 0.245220 0.456498
C12_3 C 0.1132(2) 0.31037(13) 0.6109(2)
C13_3 C 0.1415(2) 0.31008(13) 0.7433(2)
H12_3 H 0.121770 0.351322 0.787869
C14_3 C 0.06435(19) 0.37909(13) 0.5437(2)
O14_2 O 0.17722(15) 0.58279(10) 0.71768(17)
H6_3 H 0.884908 0.245220 0.043502
O2_2 O 0.67722(15) 0.08279(10) 0.71768(17)
O3_3 O 0.95647(15) 0.43133(10) 0.88876(17)
C1_3 C 0.7092(2) 0.13789(14) 0.6678(2)
C2_3 C 0.7772(2) 0.19541(13) 0.7528(2)
C3_3 C 0.8074(2) 0.18956(13) 0.8840(2)
H5_3 H 0.790338 0.146407 0.925706
C4_3 C 0.86317(19) 0.24789(14) 0.9534(2)
C5_3 C 0.8868(2) 0.31037(13) 0.8891(2)
C6_3 C 0.8585(2) 0.31008(13) 0.7567(2)
H7_3 H 0.878230 0.351322 0.712131
C7_3 C 0.93565(19) 0.37909(13) 0.9563(2)
O11_3 O 0.82238(18) 0.47395(10) 0.6034(2)
H8_3 H 0.823(3) 0.4379(11) 0.557(3)
H9_3 H 0.782(3) 0.5078(12) 0.570(3)
O15_2 O 0.82278(15) 0.58279(10) 0.78232(17)
H4_4 H 0.718(3) 0.0078(12) 0.930(3)
H9_4 H 0.282(3) 0.0078(12) 0.570(3)
H6_4 H 0.384908 0.745220 0.043502
O3_4 O 0.45647(15) 0.93133(10) 0.88876(17)
O6_4 O 0.67762(18) 0.97395(10) 0.8966(2)
H3_4 H 0.677(3) 0.9379(11) 0.943(3)
C1_4 C 0.2092(2) 0.63789(14) 0.6678(2)
C2_4 C 0.2772(2) 0.69541(13) 0.7528(2)
C3_4 C 0.3074(2) 0.68956(13) 0.8840(2)
H5_4 H 0.290338 0.646407 0.925706
C4_4 C 0.36317(19) 0.74789(14) 0.9534(2)
C5_4 C 0.3868(2) 0.81037(13) 0.8891(2)
C6_4 C 0.3585(2) 0.81008(13) 0.7567(2)
H7_4 H 0.378230 0.851322 0.712131
C7_4 C 0.43565(19) 0.87909(13) 0.9563(2)
O9_4 O 0.54353(15) 0.93133(10) 0.61124(17)
O11_4 O 0.32238(18) 0.97395(10) 0.6034(2)
H8_4 H 0.323(3) 0.9379(11) 0.557(3)
C8_4 C 0.7908(2) 0.63789(14) 0.8322(2)
C9_4 C 0.7228(2) 0.69541(13) 0.7472(2)
C10_4 C 0.6926(2) 0.68956(13) 0.6160(2)
H10_4 H 0.709662 0.646407 0.574294
C11_4 C 0.63683(19) 0.74789(14) 0.5466(2)
H11_4 H 0.615092 0.745220 0.456498
C12_4 C 0.6132(2) 0.81037(13) 0.6109(2)
C13_4 C 0.6415(2) 0.81008(13) 0.7433(2)
H12_4 H 0.621770 0.851322 0.787869
C14_4 C 0.56435(19) 0.87909(13) 0.5437(2)
loop_
_geom_bond_atom_site_label_1
_geom_bond_atom_site_label_2
_geom_bond_site_symmetry_1
_geom_bond_site_symmetry_2
La1 O3 1_555 1_555
Ni1 O1 1_555 1_555
O1 C1 1_555 1_555
O2 C1 1_555 1_555
O3 C7 1_555 1_555
O5 Ni1 1_555 1_555
H1 O5 1_555 1_555
H2 O5 1_555 1_555
N1 Ni1 1_555 1_555
C1 C2 1_555 1_555
C2 N1 1_555 1_555
C3 C2 1_555 1_555
H5 C3 1_555 1_555
C4 C3 1_555 1_555
C5 C4 1_555 1_555
C6 N1 1_555 1_555
H7 C6 1_555 1_555
C7 C5 1_555 1_555
O11 La1 1_555 1_555
H8 O11 1_555 1_555
H9 O11 1_555 1_555
O12 Ni1 1_555 1_555
H13 O12 1_555 1_555
H14 O12 1_555 1_555
La3 O2 1_555 1_555
O13 Ni1 1_555 1_555
O15 La1 1_555 1_555
O17 La1 1_555 1_555
N3 Ni1 1_555 1_555
C5 C6 1_555 1_555
La5 O4 1_555 1_555
O6 La1_2 1_555 1_555
H3 O6 1_555 1_555
H4 O6 1_555 1_555
O7 C8 1_555 1_555
O8 C8 1_555 1_555
O9 La1_2 1_555 1_555
O10 C14 1_555 1_555
N2 C9 1_555 1_555
C8 C9 1_555 1_555
C9 C10 1_555 1_555
C10 H10 1_555 1_555
C11 C10 1_555 1_555
H11 C11 1_555 1_555
C12 C11 1_555 1_555
C13 N2 1_555 1_555
H12 C13 1_555 1_555
C14 O9 1_555 1_555
La3 O8 1_555 1_555
La5_2 O10 1_555 1_555
Ni2 O7 1_555 1_555
O14 La1_2 1_555 1_555
O16 La1_2 1_555 1_555
N2 Ni2 1_555 1_555
C12 C13 1_555 1_555
C12 C14 1_555 1_555
O12_2 Ni2 1_555 1_555
H13_2 O12_2 1_555 1_555
O5_2 Ni2_2 1_555 1_555
H1_2 O5_2 1_555 1_555
O13_2 Ni2_2 1_555 1_555
N3_2 Ni2_2 1_555 1_555
Ni1_2 O1_2 1_555 1_555
O1_2 C1_2 1_555 1_555
O14 C1_2 1_555 1_555
O3_2 C7_2 1_555 1_555
O5_3 Ni1_2 1_555 1_555
H1_3 O5_3 1_555 1_555
H2_3 O5_3 1_555 1_555
H3_2 O6_2 1_555 1_555
N1_2 Ni1_2 1_555 1_555
C1_2 C2_2 1_555 1_555
C2_2 N1_2 1_555 1_555
C3_2 C2_2 1_555 1_555
H5_2 C3_2 1_555 1_555
C4_2 C3_2 1_555 1_555
C5_2 C4_2 1_555 1_555
C6_2 N1_2 1_555 1_555
H7_2 C6_2 1_555 1_555
C7_2 C5_2 1_555 1_555
O7_2 C8_2 1_555 1_555
O15 C8_2 1_555 1_555
O10_2 C14_2 1_555 1_555
H8_2 O11_2 1_555 1_555
N2_2 C9_2 1_555 1_555
C8_2 C9_2 1_555 1_555
C9_2 C10_2 1_555 1_555
C10_2 H10_2 1_555 1_555
C11_2 C10_2 1_555 1_555
H11_2 C11_2 1_555 1_555
C12_2 C11_2 1_555 1_555
C13_2 N2_2 1_555 1_555
H12_2 C13_2 1_555 1_555
C14_2 O9_2 1_555 1_555
O12_3 Ni1_2 1_555 1_555
H13_3 O12_3 1_555 1_555
H14_3 O12_3 1_555 1_555
La5_3 O10_2 1_555 1_555
Ni2_3 O7_2 1_555 1_555
O13_3 Ni1_2 1_555 1_555
N3_3 Ni1_2 1_555 1_555
C5_2 C6_2 1_555 1_555
N2_2 Ni2_3 1_555 1_555
C12_2 C13_2 1_555 1_555
C12_2 C14_2 1_555 1_555
La5_3 O4_2 1_555 1_555
O16_2 La3 1_555 1_555
O17_2 La3 1_555 1_555
O12_4 Ni2_3 1_555 1_555
H13_4 O12_4 1_555 1_555
O5_4 Ni2_4 1_555 1_555
H1_4 O5_4 1_555 1_555
O13_4 Ni2_4 1_555 1_555
N3_4 Ni2_4 1_555 1_555
O6_3 La5 1_555 1_555
H3_3 O6_3 1_555 1_555
H4_3 O6_3 1_555 1_555
O13_4 C8_3 1_555 1_555
O8_2 C8_3 1_555 1_555
O9_3 La5 1_555 1_555
O17 C14_3 1_555 1_555
N3_4 C9_3 1_555 1_555
C8_3 C9_3 1_555 1_555
C9_3 C10_3 1_555 1_555
C10_3 H10_3 1_555 1_555
C11_3 C10_3 1_555 1_555
H11_3 C11_3 1_555 1_555
C12_3 C11_3 1_555 1_555
C13_3 N3_4 1_555 1_555
H12_3 C13_3 1_555 1_555
C14_3 O9_3 1_555 1_555
La5_3 O8_2 1_555 1_555
O14_2 La5 1_555 1_555
C12_3 C13_3 1_555 1_555
C12_3 C14_3 1_555 1_555
La5_2 O3_3 1_555 1_555
O13_3 C1_3 1_555 1_555
O2_2 C1_3 1_555 1_555
O3_3 C7_3 1_555 1_555
C1_3 C2_3 1_555 1_555
C2_3 N3_3 1_555 1_555
C3_3 C2_3 1_555 1_555
H5_3 C3_3 1_555 1_555
C4_3 C3_3 1_555 1_555
C5_3 C4_3 1_555 1_555
C6_3 N3_3 1_555 1_555
H7_3 C6_3 1_555 1_555
C7_3 C5_3 1_555 1_555
O11_3 La5_2 1_555 1_555
H8_3 O11_3 1_555 1_555
H9_3 O11_3 1_555 1_555
La5_3 O2_2 1_555 1_555
O15_2 La5_2 1_555 1_555
C5_3 C6_3 1_555 1_555
O13 C1_4 1_555 1_555
O14_2 C1_4 1_555 1_555
O3_4 C7_4 1_555 1_555
H3_4 O6_4 1_555 1_555
C1_4 C2_4 1_555 1_555
C2_4 N3 1_555 1_555
C3_4 C2_4 1_555 1_555
H5_4 C3_4 1_555 1_555
C4_4 C3_4 1_555 1_555
C5_4 C4_4 1_555 1_555
C6_4 N3 1_555 1_555
H7_4 C6_4 1_555 1_555
C7_4 C5_4 1_555 1_555
O13_2 C8_4 1_555 1_555
O15_2 C8_4 1_555 1_555
O17_2 C14_4 1_555 1_555
H8_4 O11_4 1_555 1_555
N3_2 C9_4 1_555 1_555
C8_4 C9_4 1_555 1_555
C9_4 C10_4 1_555 1_555
C10_4 H10_4 1_555 1_555
C11_4 C10_4 1_555 1_555
H11_4 C11_4 1_555 1_555
C12_4 C11_4 1_555 1_555
C13_4 N3_2 1_555 1_555
H12_4 C13_4 1_555 1_555
C14_4 O9_4 1_555 1_555
C5_4 C6_4 1_555 1_555
C12_4 C13_4 1_555 1_555
C12_4 C14_4 1_555 1_555

#END
