
###############################################################################
#
# This file contains modified crystal structure data generated from the
# MOF subset of the Cambridge Structural Database (CSD) v543 
# hosted by the Cambridge Crystallographic Data Centre (CCDC).
#
# This work is licensed under the Creative Commons
# Attribution-NonCommercial-ShareAlike 4.0 International License.
# To view a copy of this license, visit
# http://creativecommons.org/licenses/by-nc-sa/4.0/
# or send a letter to
# Creative Commons, PO Box 1866, Mountain View, CA 94042, USA.
#
# CIF created using the CSD Python API on 29 September 2022
# The structure has been converted into the P1 space group
# The structure has a 3D framework
# The original CSD entry GUGREI is in the monoclinic crystal system
# The framework has been calculated to contain at least 10.0% void space
# The void calculation uses a probe of radius 1.32A, grid spacing 0.4
#
###############################################################################

data_GUGREI
_chemical_formula_moiety         '(C112 H80 Cd9 N36 O28)n'
_symmetry_cell_setting           triclinic
_symmetry_space_group_name_H-M   'P 1'
_symmetry_Int_Tables_number      1
_space_group_name_Hall           'P 1'
loop_
_symmetry_equiv_pos_site_id
_symmetry_equiv_pos_as_xyz
1 x,y,z
_cell_length_a                   20.9669(15)
_cell_length_b                   11.6608(8)
_cell_length_c                   15.8107(12)
_cell_angle_alpha                90
_cell_angle_beta                 100.840(4)
_cell_angle_gamma                90
_cell_volume                     3796.59
loop_
_atom_site_label
_atom_site_type_symbol
_atom_site_fract_x
_atom_site_fract_y
_atom_site_fract_z
O3 O 0.03993(11) 0.21445(18) 0.58191(14)
O4 O 0.06583(12) 0.23017(19) 0.72327(14)
N5 N 0.43269(19) 0.0770(6) 0.5827(2)
N6 N 0.34553(16) 0.1394(5) 0.6276(2)
H4 H 0.02435(16) 0.0027(3) 0.5995(2)
C20 C 0.3690(2) 0.0737(5) 0.5698(3)
H15 H 0.3427(2) 0.0306(5) 0.5255(3)
N9 N 0.3980(3) 0.1925(12) 0.6790(5)
C21 C 0.4507(3) 0.1478(15) 0.6492(5)
H16 H 0.4946(3) 0.1655(15) 0.6732(5)
C22 C 0.23065(18) 0.1351(4) 0.5631(2)
H17 H 0.24121(18) 0.1080(4) 0.5108(2)
C23 C 0.27908(17) 0.1560(4) 0.6331(2)
C24 C 0.16662(17) 0.1537(3) 0.5692(2)
H18 H 0.13315(17) 0.1389(3) 0.5210(2)
C25 C 0.15081(15) 0.1939(3) 0.6452(2)
C26 C 0.19997(17) 0.2140(3) 0.7154(2)
H19 H 0.18948(17) 0.2406(3) 0.7679(2)
C27 C 0.26398(18) 0.1959(4) 0.7096(2)
H20 H 0.29754(18) 0.2105(4) 0.7578(2)
C28 C 0.08146(15) 0.2146(2) 0.65090(19)
O8 O 0.10622(12) 0.2086(3) 0.01579(16)
N12 N 0.4485(2) 0.1092(7) 0.3848(3)
N13 N 0.3803(2) 0.1746(5) 0.2716(3)
C40 C 0.21924(17) 0.1959(3) 0.0697(2)
C41 C 0.27948(19) 0.2365(4) 0.0589(2)
H29 H 0.28432(19) 0.2684(4) 0.0052(2)
C42 C 0.3323(2) 0.2309(5) 0.1254(3)
H30 H 0.3730(2) 0.2614(5) 0.1187(3)
C43 C 0.3250(2) 0.1801(5) 0.2025(3)
C44 C 0.2667(2) 0.1358(4) 0.2144(3)
H31 H 0.2628(2) 0.0997(4) 0.2671(3)
C45 C 0.21346(19) 0.1455(4) 0.1473(2)
H32 H 0.17245(19) 0.1169(4) 0.1548(2)
N16 N 0.4265(5) 0.2596(13) 0.2919(8)
C46 C 0.4687(5) 0.2141(14) 0.3619(7)
H33 H 0.5070(5) 0.2514(14) 0.3905(7)
C47 C 0.3954(2) 0.0910(6) 0.3302(3)
H34 H 0.3695(2) 0.0244(6) 0.3314(3)
Cd7 Cd 0.055962(10) 0.220026(17) 0.866788(13)
Cd8 Cd 0.500 0.000 0.500
O9 O 0.17109(11) 0.2101(2) 0.92121(15)
N10 N 0.05613(12) 0.0232(2) 0.85450(16)
H21 H 0.13773(16) 0.0068(3) 0.8095(2)
C39 C 0.16185(17) 0.2051(3) 0.9980(2)
N20 N 0.05868(13) 0.4166(2) 0.86472(17)
C29 C 0.10442(16) 0.9649(3) 0.8290(2)
C30 C 0.10766(17) 0.8462(3) 0.8299(2)
H22 H 0.14273(17) 0.8080(3) 0.8117(2)
C31 C 0.05892(15) 0.7832(2) 0.85800(17)
C32 C 0.00909(15) 0.8444(3) 0.8838(2)
C33 C 0.00980(16) 0.9624(3) 0.8817(2)
C34 C 0.1034(4) 0.4743(4) 0.8408(7)
H25 H 0.1380(4) 0.4333(4) 0.8236(7)
C35 C 0.1055(3) 0.5938(4) 0.8378(7)
H26 H 0.1406(3) 0.6307(4) 0.8186(7)
C36 C 0.05996(15) 0.6554(3) 0.86099(19)
C37 C 0.0148(4) 0.5968(4) 0.8881(7)
C38 C 0.0151(4) 0.4771(4) 0.8878(6)
O12 O 0.5902(3) 0.1229(7) 0.5536(5)
O13 O 0.6368(3) 0.2749(7) 0.6099(4)
O14 O 0.5424(5) 0.2842(9) 0.5441(8)
N18 N 0.5899(3) 0.2249(9) 0.5668(4)
H3 H 0.97467(15) 0.1949(3) 0.4027(2)
H7 H 0.9810(4) 0.3636(4) 0.4085(7)
H8 H 0.9801(4) 0.5614(4) 0.4061(6)
H3_2 H 0.02533(15) 0.8051(3) 0.5973(2)
H7_2 H 0.0190(4) 0.6364(4) 0.5915(7)
H8_2 H 0.0199(4) 0.4386(4) 0.5939(6)
Cd8_2 Cd 0.500 1.000 0.500
O5 O 0.4098(3) 0.8771(7) 0.4464(5)
O6 O 0.3632(3) 0.7251(7) 0.3901(4)
O7 O 0.4576(5) 0.7158(9) 0.4559(8)
N7 N 0.4101(3) 0.7751(9) 0.4332(4)
N21 N 0.5515(2) 0.8908(7) 0.6152(3)
N22 N 0.56731(19) 0.9230(6) 0.4173(2)
N11 N 0.94132(13) 0.5834(2) 0.13528(17)
C29_2 C 0.89558(16) 0.0351(3) 0.1710(2)
C30_2 C 0.89234(17) 0.1538(3) 0.1701(2)
H22_2 H 0.85727(17) 0.1920(3) 0.1883(2)
C31_2 C 0.94108(15) 0.2168(2) 0.14200(17)
C32_2 C 0.99091(15) 0.1556(3) 0.1162(2)
C33_2 C 0.99020(16) 0.0376(3) 0.1183(2)
C34_2 C 0.8966(4) 0.5257(4) 0.1592(7)
H25_2 H 0.8620(4) 0.5667(4) 0.1764(7)
C35_2 C 0.8945(3) 0.4062(4) 0.1622(7)
H26_2 H 0.8594(3) 0.3693(4) 0.1814(7)
C36_2 C 0.94004(15) 0.3446(3) 0.13901(19)
C37_2 C 0.9852(4) 0.4032(4) 0.1119(7)
C38_2 C 0.9849(4) 0.5229(4) 0.1122(6)
Cd6 Cd 0.944038(10) 0.779974(17) 0.133212(13)
O9_2 O 0.82891(11) 0.7899(2) 0.07879(15)
N10_2 N 0.94387(12) 0.9768(2) 0.14550(16)
H21_2 H 0.86227(16) 0.9932(3) 0.1905(2)
C39_2 C 0.83815(17) 0.7949(3) 0.0020(2)
O15 O 0.93417(12) 0.76983(19) 0.27673(14)
O3_2 O 0.96007(11) 0.78555(18) 0.41809(14)
N6_2 N 0.65447(16) 0.8606(5) 0.3724(2)
H4_2 H 0.97565(16) 0.9973(3) 0.4005(2)
C20_2 C 0.6310(2) 0.9263(5) 0.4302(3)
H15_2 H 0.6573(2) 0.9694(5) 0.4745(3)
N9_2 N 0.6020(3) 0.8075(12) 0.3210(5)
C21_2 C 0.5493(3) 0.8522(15) 0.3508(5)
H16_2 H 0.5054(3) 0.8345(15) 0.3268(5)
C22_2 C 0.76935(18) 0.8649(4) 0.4369(2)
H17_2 H 0.75879(18) 0.8920(4) 0.4892(2)
C23_2 C 0.72092(17) 0.8440(4) 0.3669(2)
C24_2 C 0.83338(17) 0.8463(3) 0.4308(2)
H18_2 H 0.86685(17) 0.8611(3) 0.4790(2)
C25_2 C 0.84919(15) 0.8061(3) 0.3548(2)
C26_2 C 0.80003(17) 0.7860(3) 0.2846(2)
H19_2 H 0.81052(17) 0.7594(3) 0.2321(2)
C27_2 C 0.73602(18) 0.8041(4) 0.2904(2)
H20_2 H 0.70246(18) 0.7895(4) 0.2422(2)
C28_2 C 0.91854(15) 0.7854(2) 0.34910(19)
O8_2 O 0.89378(12) 0.7914(3) 0.98421(16)
N13_2 N 0.6197(2) 0.8254(5) 0.7284(3)
C40_2 C 0.78076(17) 0.8041(3) 0.9303(2)
C41_2 C 0.72052(19) 0.7635(4) 0.9411(2)
H29_2 H 0.71568(19) 0.7316(4) 0.9948(2)
C42_2 C 0.6677(2) 0.7691(5) 0.8746(3)
H30_2 H 0.6270(2) 0.7386(5) 0.8813(3)
C43_2 C 0.6750(2) 0.8199(5) 0.7975(3)
C44_2 C 0.7333(2) 0.8642(4) 0.7856(3)
H31_2 H 0.7372(2) 0.9003(4) 0.7329(3)
C45_2 C 0.78654(19) 0.8545(4) 0.8527(2)
H32_2 H 0.82755(19) 0.8831(4) 0.8452(2)
N16_2 N 0.5735(5) 0.7404(13) 0.7081(8)
C46_2 C 0.5313(5) 0.7859(14) 0.6381(7)
H33_2 H 0.4930(5) 0.7486(14) 0.6095(7)
C47_2 C 0.6046(2) 0.9090(6) 0.6698(3)
H34_2 H 0.6305(2) 0.9756(6) 0.6686(3)
Cd1 Cd 0.944038(10) 0.220026(17) 0.633212(13)
Cd2 Cd 0.500 0.000 0.000
O1 O 0.89378(12) 0.2086(3) 0.48421(16)
O2 O 0.82891(11) 0.2101(2) 0.57879(15)
N1 N 0.94387(12) 0.0232(2) 0.64550(16)
N3 N 0.5515(2) 0.1092(7) 0.1152(3)
N4 N 0.6197(2) 0.1746(5) 0.2284(3)
H1 H 0.86227(16) 0.0068(3) 0.6905(2)
C11 C 0.83815(17) 0.2051(3) 0.5020(2)
C12 C 0.78076(17) 0.1959(3) 0.4303(2)
C13 C 0.72052(19) 0.2365(4) 0.4411(2)
H9 H 0.71568(19) 0.2684(4) 0.4948(2)
C14 C 0.6677(2) 0.2309(5) 0.3746(3)
H10 H 0.6270(2) 0.2614(5) 0.3813(3)
C15 C 0.6750(2) 0.1801(5) 0.2975(3)
C16 C 0.7333(2) 0.1358(4) 0.2856(3)
H11 H 0.7372(2) 0.0997(4) 0.2329(3)
C17 C 0.78654(19) 0.1455(4) 0.3527(2)
H12 H 0.82755(19) 0.1169(4) 0.3452(2)
N8 N 0.5735(5) 0.2596(13) 0.2081(8)
C18 C 0.5313(5) 0.2141(14) 0.1381(7)
H13 H 0.4930(5) 0.2514(14) 0.1095(7)
C19 C 0.6046(2) 0.0910(6) 0.1698(3)
H14 H 0.6305(2) 0.0244(6) 0.1686(3)
O16 O 0.93417(12) 0.23017(19) 0.77673(14)
N19 N 0.94132(13) 0.4166(2) 0.63528(17)
Cd2_2 Cd 0.500 0.000 1.000
O10 O 0.96007(11) 0.21445(18) 0.91809(14)
N14 N 0.56731(19) 0.0770(6) 0.9173(2)
N15 N 0.65447(16) 0.1394(5) 0.8724(2)
H24 H 0.97565(16) 0.0027(3) 0.9005(2)
C48 C 0.6310(2) 0.0737(5) 0.9302(3)
H35 H 0.6573(2) 0.0306(5) 0.9745(3)
N17 N 0.6020(3) 0.1925(12) 0.8210(5)
C49 C 0.5493(3) 0.1478(15) 0.8508(5)
H36 H 0.5054(3) 0.1655(15) 0.8268(5)
C50 C 0.76935(18) 0.1351(4) 0.9369(2)
H37 H 0.75879(18) 0.1080(4) 0.9892(2)
C51 C 0.72092(17) 0.1560(4) 0.8669(2)
C52 C 0.83338(17) 0.1537(3) 0.9308(2)
H38 H 0.86685(17) 0.1389(3) 0.9790(2)
C53 C 0.84919(15) 0.1939(3) 0.8548(2)
C54 C 0.80003(17) 0.2140(3) 0.7846(2)
H39 H 0.81052(17) 0.2406(3) 0.7321(2)
C55 C 0.73602(18) 0.1959(4) 0.7904(2)
H40 H 0.70246(18) 0.2105(4) 0.7422(2)
C56 C 0.91854(15) 0.2146(2) 0.84910(19)
O12_2 O 0.4098(3) 0.1229(7) 0.9464(5)
O13_2 O 0.3632(3) 0.2749(7) 0.8901(4)
O14_2 O 0.4576(5) 0.2842(9) 0.9559(8)
N18_2 N 0.4101(3) 0.2249(9) 0.9332(4)
Cd2_3 Cd 0.500 1.000 0.000
O5_2 O 0.5902(3) 0.8771(7) 0.0536(5)
O6_2 O 0.6368(3) 0.7251(7) 0.1099(4)
O7_2 O 0.5424(5) 0.7158(9) 0.0441(8)
N7_2 N 0.5899(3) 0.7751(9) 0.0668(4)
C1 C 0.89558(16) 0.9649(3) 0.6710(2)
C2 C 0.89234(17) 0.8462(3) 0.6701(2)
H2 H 0.85727(17) 0.8080(3) 0.6883(2)
C3 C 0.94108(15) 0.7832(2) 0.64200(17)
C4 C 0.99091(15) 0.8444(3) 0.6162(2)
C5 C 0.99020(16) 0.9624(3) 0.6183(2)
C6 C 0.8966(4) 0.4743(4) 0.6592(7)
H5 H 0.8620(4) 0.4333(4) 0.6764(7)
C7 C 0.8945(3) 0.5938(4) 0.6622(7)
H6 H 0.8594(3) 0.6307(4) 0.6814(7)
C8 C 0.94004(15) 0.6554(3) 0.63901(19)
C9 C 0.9852(4) 0.5968(4) 0.6119(7)
C10 C 0.9849(4) 0.4771(4) 0.6122(6)
N22_2 N 0.43269(19) 0.9230(6) 0.0827(2)
Cd2_4 Cd 0.500 1.000 1.000
H23 H 0.97467(15) 0.8051(3) 0.9027(2)
H27 H 0.9810(4) 0.6364(4) 0.9085(7)
H28 H 0.9801(4) 0.4386(4) 0.9061(6)
N21_2 N 0.4485(2) 0.8908(7) 0.8848(3)
H23_2 H 0.02533(15) 0.1949(3) 0.0973(2)
H27_2 H 0.0190(4) 0.3636(4) 0.0915(7)
H28_2 H 0.0199(4) 0.5614(4) 0.0939(6)
N2 N 0.05868(13) 0.5834(2) 0.36472(17)
C1_2 C 0.10442(16) 0.0351(3) 0.3290(2)
C2_2 C 0.10766(17) 0.1538(3) 0.3299(2)
H2_2 H 0.14273(17) 0.1920(3) 0.3117(2)
C3_2 C 0.05892(15) 0.2168(2) 0.35800(17)
C4_2 C 0.00909(15) 0.1556(3) 0.3838(2)
C5_2 C 0.00980(16) 0.0376(3) 0.3817(2)
C6_2 C 0.1034(4) 0.5257(4) 0.3408(7)
H5_2 H 0.1380(4) 0.5667(4) 0.3236(7)
C7_2 C 0.1055(3) 0.4062(4) 0.3378(7)
H6_2 H 0.1406(3) 0.3693(4) 0.3186(7)
C8_2 C 0.05996(15) 0.3446(3) 0.36099(19)
C9_2 C 0.0148(4) 0.4032(4) 0.3881(7)
C10_2 C 0.0151(4) 0.5229(4) 0.3878(6)
Cd4 Cd 0.055962(10) 0.779974(17) 0.366788(13)
O10_2 O 0.03993(11) 0.78555(18) 0.08191(14)
O11 O 0.06583(12) 0.76983(19) 0.22327(14)
N15_2 N 0.34553(16) 0.8606(5) 0.1276(2)
H24_2 H 0.02435(16) 0.9973(3) 0.0995(2)
C48_2 C 0.3690(2) 0.9263(5) 0.0698(3)
H35_2 H 0.3427(2) 0.9694(5) 0.0255(3)
N17_2 N 0.3980(3) 0.8075(12) 0.1790(5)
C49_2 C 0.4507(3) 0.8522(15) 0.1492(5)
H36_2 H 0.4946(3) 0.8345(15) 0.1732(5)
C50_2 C 0.23065(18) 0.8649(4) 0.0631(2)
H37_2 H 0.24121(18) 0.8920(4) 0.0108(2)
C51_2 C 0.27908(17) 0.8440(4) 0.1331(2)
C52_2 C 0.16662(17) 0.8463(3) 0.0692(2)
H38_2 H 0.13315(17) 0.8611(3) 0.0210(2)
C53_2 C 0.15081(15) 0.8061(3) 0.1452(2)
C54_2 C 0.19997(17) 0.7860(3) 0.2154(2)
H39_2 H 0.18948(17) 0.7594(3) 0.2679(2)
C55_2 C 0.26398(18) 0.8041(4) 0.2096(2)
H40_2 H 0.29754(18) 0.7895(4) 0.2578(2)
C56_2 C 0.08146(15) 0.7854(2) 0.15090(19)
O1_2 O 0.10622(12) 0.7914(3) 0.51579(16)
O2_2 O 0.17109(11) 0.7899(2) 0.42121(15)
N1_2 N 0.05613(12) 0.9768(2) 0.35450(16)
N4_2 N 0.3803(2) 0.8254(5) 0.7716(3)
H1_2 H 0.13773(16) 0.9932(3) 0.3095(2)
C11_2 C 0.16185(17) 0.7949(3) 0.4980(2)
C12_2 C 0.21924(17) 0.8041(3) 0.5697(2)
C13_2 C 0.27948(19) 0.7635(4) 0.5589(2)
H9_2 H 0.28432(19) 0.7316(4) 0.5052(2)
C14_2 C 0.3323(2) 0.7691(5) 0.6254(3)
H10_2 H 0.3730(2) 0.7386(5) 0.6187(3)
C15_2 C 0.3250(2) 0.8199(5) 0.7025(3)
C16_2 C 0.2667(2) 0.8642(4) 0.7144(3)
H11_2 H 0.2628(2) 0.9003(4) 0.7671(3)
C17_2 C 0.21346(19) 0.8545(4) 0.6473(2)
H12_2 H 0.17245(19) 0.8831(4) 0.6548(2)
N8_2 N 0.4265(5) 0.7404(13) 0.7919(8)
C18_2 C 0.4687(5) 0.7859(14) 0.8619(7)
H13_2 H 0.5070(5) 0.7486(14) 0.8905(7)
C19_2 C 0.3954(2) 0.9090(6) 0.8302(3)
H14_2 H 0.3695(2) 0.9756(6) 0.8314(3)
loop_
_geom_bond_atom_site_label_1
_geom_bond_atom_site_label_2
_geom_bond_site_symmetry_1
_geom_bond_site_symmetry_2
N5 C20 1_555 1_555
N6 C20 1_555 1_555
C20 H15 1_555 1_555
N9 N6 1_555 1_555
C21 N5 1_555 1_555
H16 C21 1_555 1_555
C22 H17 1_555 1_555
C23 N6 1_555 1_555
C24 C22 1_555 1_555
H18 C24 1_555 1_555
C25 C24 1_555 1_555
C26 C25 1_555 1_555
H19 C26 1_555 1_555
C27 C23 1_555 1_555
H20 C27 1_555 1_555
C28 O3 1_555 1_555
N12 C46 1_555 1_555
N13 C43 1_555 1_555
C41 C40 1_555 1_555
H29 C41 1_555 1_555
C42 C41 1_555 1_555
H30 C42 1_555 1_555
C43 C42 1_555 1_555
C44 C43 1_555 1_555
H31 C44 1_555 1_555
C45 C40 1_555 1_555
H32 C45 1_555 1_555
N16 N13 1_555 1_555
C46 N16 1_555 1_555
H33 C46 1_555 1_555
C47 N12 1_555 1_555
H34 C47 1_555 1_555
Cd7 O4 1_555 1_555
Cd8 N5 1_555 1_555
O4 C28 1_555 1_555
N9 C21 1_555 1_555
C22 C23 1_555 1_555
C25 C28 1_555 1_555
C26 C27 1_555 1_555
N12 Cd8 1_555 1_555
N13 C47 1_555 1_555
C44 C45 1_555 1_555
O9 Cd7 1_555 1_555
N10 Cd7 1_555 1_555
C39 O9 1_555 1_555
N20 Cd7 1_555 1_555
N20 C34 1_555 1_555
C30 C29 1_555 1_555
H22 C30 1_555 1_555
C31 C30 1_555 1_555
C32 C31 1_555 1_555
C34 H25 1_555 1_555
C35 C34 1_555 1_555
H26 C35 1_555 1_555
C36 C31 1_555 1_555
C37 C36 1_555 1_555
C38 N20 1_555 1_555
C32 C33 1_555 1_555
C35 C36 1_555 1_555
C37 C38 1_555 1_555
O12 Cd8 1_555 1_555
O13 N18 1_555 1_555
O14 N18 1_555 1_555
N18 O12 1_555 1_555
Cd8_2 O5 1_555 1_555
O5 N7 1_555 1_555
O6 N7 1_555 1_555
O7 N7 1_555 1_555
N21 Cd8_2 1_555 1_555
N22 Cd8_2 1_555 1_555
N11 C34_2 1_555 1_555
C30_2 C29_2 1_555 1_555
H22_2 C30_2 1_555 1_555
C31_2 C30_2 1_555 1_555
C32_2 C31_2 1_555 1_555
C34_2 H25_2 1_555 1_555
C35_2 C34_2 1_555 1_555
H26_2 C35_2 1_555 1_555
C36_2 C31_2 1_555 1_555
C37_2 C36_2 1_555 1_555
C38_2 N11 1_555 1_555
Cd6 N11 1_555 1_555
C32_2 C33_2 1_555 1_555
C35_2 C36_2 1_555 1_555
C37_2 C38_2 1_555 1_555
O9_2 Cd6 1_555 1_555
N10_2 Cd6 1_555 1_555
C39_2 O9_2 1_555 1_555
O15 Cd6 1_555 1_555
N22 C20_2 1_555 1_555
N6_2 C20_2 1_555 1_555
C20_2 H15_2 1_555 1_555
N9_2 N6_2 1_555 1_555
C21_2 N22 1_555 1_555
H16_2 C21_2 1_555 1_555
C22_2 H17_2 1_555 1_555
C23_2 N6_2 1_555 1_555
C24_2 C22_2 1_555 1_555
H18_2 C24_2 1_555 1_555
C25_2 C24_2 1_555 1_555
C26_2 C25_2 1_555 1_555
H19_2 C26_2 1_555 1_555
C27_2 C23_2 1_555 1_555
H20_2 C27_2 1_555 1_555
C28_2 O3_2 1_555 1_555
N21 C46_2 1_555 1_555
N13_2 C43_2 1_555 1_555
C41_2 C40_2 1_555 1_555
H29_2 C41_2 1_555 1_555
C42_2 C41_2 1_555 1_555
H30_2 C42_2 1_555 1_555
C43_2 C42_2 1_555 1_555
C44_2 C43_2 1_555 1_555
H31_2 C44_2 1_555 1_555
C45_2 C40_2 1_555 1_555
H32_2 C45_2 1_555 1_555
N16_2 N13_2 1_555 1_555
C46_2 N16_2 1_555 1_555
H33_2 C46_2 1_555 1_555
C47_2 N21 1_555 1_555
H34_2 C47_2 1_555 1_555
O15 C28_2 1_555 1_555
N9_2 C21_2 1_555 1_555
C22_2 C23_2 1_555 1_555
C25_2 C28_2 1_555 1_555
C26_2 C27_2 1_555 1_555
N13_2 C47_2 1_555 1_555
C44_2 C45_2 1_555 1_555
Cd1 O1 1_555 1_555
O1 C11 1_555 1_555
O2 Cd1 1_555 1_555
N1 Cd1 1_555 1_555
N3 Cd2 1_555 1_555
N4 C15 1_555 1_555
C11 O2 1_555 1_555
C12 C11 1_555 1_555
C13 C12 1_555 1_555
H9 C13 1_555 1_555
C14 C13 1_555 1_555
H10 C14 1_555 1_555
C15 C14 1_555 1_555
C16 C15 1_555 1_555
H11 C16 1_555 1_555
C17 C12 1_555 1_555
H12 C17 1_555 1_555
N8 N4 1_555 1_555
C18 N3 1_555 1_555
H13 C18 1_555 1_555
C19 N3 1_555 1_555
H14 C19 1_555 1_555
O16 Cd1 1_555 1_555
N19 Cd1 1_555 1_555
N4 C19 1_555 1_555
C16 C17 1_555 1_555
N8 C18 1_555 1_555
N14 Cd2_2 1_555 1_555
N15 C48 1_555 1_555
C48 N14 1_555 1_555
H35 C48 1_555 1_555
N17 N15 1_555 1_555
C49 N14 1_555 1_555
H36 C49 1_555 1_555
C50 H37 1_555 1_555
C51 N15 1_555 1_555
C52 C50 1_555 1_555
H38 C52 1_555 1_555
C53 C52 1_555 1_555
C54 C53 1_555 1_555
H39 C54 1_555 1_555
C55 C51 1_555 1_555
H40 C55 1_555 1_555
C56 O10 1_555 1_555
O12_2 Cd2_2 1_555 1_555
O13_2 N18_2 1_555 1_555
O14_2 N18_2 1_555 1_555
N18_2 O12_2 1_555 1_555
O16 C56 1_555 1_555
N17 C49 1_555 1_555
C50 C51 1_555 1_555
C53 C56 1_555 1_555
C54 C55 1_555 1_555
Cd2_3 O5_2 1_555 1_555
O5_2 N7_2 1_555 1_555
O6_2 N7_2 1_555 1_555
O7_2 N7_2 1_555 1_555
N19 C6 1_555 1_555
C2 C1 1_555 1_555
H2 C2 1_555 1_555
C3 C2 1_555 1_555
C4 C3 1_555 1_555
C6 H5 1_555 1_555
C7 C6 1_555 1_555
H6 C7 1_555 1_555
C8 C3 1_555 1_555
C9 C8 1_555 1_555
C10 N19 1_555 1_555
N22_2 Cd2_3 1_555 1_555
C4 C5 1_555 1_555
C7 C8 1_555 1_555
C9 C10 1_555 1_555
N21_2 Cd2_4 1_555 1_555
N2 C6_2 1_555 1_555
C2_2 C1_2 1_555 1_555
H2_2 C2_2 1_555 1_555
C3_2 C2_2 1_555 1_555
C4_2 C3_2 1_555 1_555
C6_2 H5_2 1_555 1_555
C7_2 C6_2 1_555 1_555
H6_2 C7_2 1_555 1_555
C8_2 C3_2 1_555 1_555
C9_2 C8_2 1_555 1_555
C10_2 N2 1_555 1_555
Cd4 N2 1_555 1_555
C4_2 C5_2 1_555 1_555
C7_2 C8_2 1_555 1_555
C9_2 C10_2 1_555 1_555
N15_2 C48_2 1_555 1_555
C48_2 N22_2 1_555 1_555
H35_2 C48_2 1_555 1_555
N17_2 N15_2 1_555 1_555
C49_2 N22_2 1_555 1_555
H36_2 C49_2 1_555 1_555
C50_2 H37_2 1_555 1_555
C51_2 N15_2 1_555 1_555
C52_2 C50_2 1_555 1_555
H38_2 C52_2 1_555 1_555
C53_2 C52_2 1_555 1_555
C54_2 C53_2 1_555 1_555
H39_2 C54_2 1_555 1_555
C55_2 C51_2 1_555 1_555
H40_2 C55_2 1_555 1_555
C56_2 O10_2 1_555 1_555
Cd4 O11 1_555 1_555
O11 C56_2 1_555 1_555
N17_2 C49_2 1_555 1_555
C50_2 C51_2 1_555 1_555
C53_2 C56_2 1_555 1_555
C54_2 C55_2 1_555 1_555
Cd4 O1_2 1_555 1_555
O1_2 C11_2 1_555 1_555
O2_2 Cd4 1_555 1_555
N1_2 Cd4 1_555 1_555
N4_2 C15_2 1_555 1_555
C11_2 O2_2 1_555 1_555
C12_2 C11_2 1_555 1_555
C13_2 C12_2 1_555 1_555
H9_2 C13_2 1_555 1_555
C14_2 C13_2 1_555 1_555
H10_2 C14_2 1_555 1_555
C15_2 C14_2 1_555 1_555
C16_2 C15_2 1_555 1_555
H11_2 C16_2 1_555 1_555
C17_2 C12_2 1_555 1_555
H12_2 C17_2 1_555 1_555
N8_2 N4_2 1_555 1_555
C18_2 N21_2 1_555 1_555
H13_2 C18_2 1_555 1_555
C19_2 N21_2 1_555 1_555
H14_2 C19_2 1_555 1_555
N4_2 C19_2 1_555 1_555
C16_2 C17_2 1_555 1_555
N8_2 C18_2 1_555 1_555

#END
