
###############################################################################
#
# This file contains modified crystal structure data generated from the
# MOF subset of the Cambridge Structural Database (CSD) v543 
# hosted by the Cambridge Crystallographic Data Centre (CCDC).
#
# This work is licensed under the Creative Commons
# Attribution-NonCommercial-ShareAlike 4.0 International License.
# To view a copy of this license, visit
# http://creativecommons.org/licenses/by-nc-sa/4.0/
# or send a letter to
# Creative Commons, PO Box 1866, Mountain View, CA 94042, USA.
#
# CIF created using the CSD Python API on 29 September 2022
# The structure has been converted into the P1 space group
# The structure has a 3D framework
# The original CSD entry GUHHID is in the monoclinic crystal system
# The framework has been calculated to contain at least 10.0% void space
# The void calculation uses a probe of radius 1.32A, grid spacing 0.4
#
###############################################################################

data_GUHHID
_chemical_formula_moiety         '(C120 H112 Cu8 N24 O46)n'
_symmetry_cell_setting           triclinic
_symmetry_space_group_name_H-M   'P 1'
_symmetry_Int_Tables_number      1
_space_group_name_Hall           'P 1'
loop_
_symmetry_equiv_pos_site_id
_symmetry_equiv_pos_as_xyz
1 x,y,z
_cell_length_a                   13.368(2)
_cell_length_b                   11.8607(18)
_cell_length_c                   24.035(4)
_cell_angle_alpha                90
_cell_angle_beta                 92.717(2)
_cell_angle_gamma                90
_cell_volume                     3806.56
loop_
_atom_site_label
_atom_site_type_symbol
_atom_site_fract_x
_atom_site_fract_y
_atom_site_fract_z
N1 N 0.1330(4) 0.7632(4) 0.2620(2)
C3 C 0.0639(4) 0.7721(5) 0.3004(3)
H7 H 0.0700 0.8314 0.3269
C4 C 0.1226(4) 0.6798(6) 0.2244(3)
H8 H 0.1720 0.6718 0.1975
C5 C 0.0431(5) 0.6048(6) 0.2231(3)
H9 H 0.0366 0.5491 0.1947
Cu6 Cu 0.25012(5) 0.87023(6) 0.26798(3)
Cu1 Cu 0.75975(6) 0.82114(7) 0.39134(3)
Cu2 Cu 0.74988(5) 0.37023(6) 0.23202(3)
O1 O 0.8205(3) 0.7438(4) 0.32877(18)
O2 O 0.9390(4) 0.7282(4) 0.39689(19)
O3 O 0.8701(3) 0.4912(4) 0.31483(19)
O4 O 0.8472(3) 0.4948(4) 0.22181(18)
O5 O 0.6579(3) 0.2416(4) 0.23862(18)
O6 O 0.5890(4) 0.3017(4) 0.3160(2)
O7 O 0.6896(4) 0.0728(4) 0.3392(2)
O9 O 0.7303(3) 0.3443(4) 0.13767(18)
H1 H 0.7901 0.3362 0.1226
H2 H 0.7052 0.4064 0.1206
O10 O 0.8427(3) 0.9560(4) 0.37457(19)
H3 H 0.8824 0.9765 0.4042
O11 O 0.3840(4) 0.6896(4) 0.4222(2)
O12 O 0.0813(4) 0.2193(5) 0.3925(2)
N3 N 0.6875(4) 0.6777(5) 0.4095(2)
N4 N 0.3675(4) 0.5012(5) 0.4085(2)
H5 H 0.3983 0.4360 0.4055
N5 N 0.2276(5) 0.2564(5) 0.3512(2)
H6 H 0.2925 0.2437 0.3535
N6 N 0.2656(4) 0.1221(5) 0.5314(2)
C1 C 0.9099(5) 0.7229(6) 0.3467(3)
C2 C 0.9836(4) 0.6980(5) 0.3030(3)
C6 C 0.9726(4) 0.6120(5) 0.2641(3)
C7 C 0.8903(4) 0.5264(5) 0.2672(3)
C8 C 0.5969(4) 0.2353(5) 0.2771(3)
C9 C 0.5197(4) 0.1400(5) 0.2716(3)
C10 C 0.4309(5) 0.1617(6) 0.2412(3)
H10 H 0.4226 0.2309 0.2216
C11 C 0.3545(5) 0.0829(5) 0.2392(3)
H11 H 0.2947 0.0990 0.2177
C13 C 0.5294(5) 0.0353(5) 0.2978(3)
C14 C 0.6232(5) 0.0008(6) 0.3309(3)
C15 C 0.7372(5) 0.5834(6) 0.4236(3)
H13 H 0.8082 0.5833 0.4236
C16 C 0.6886(5) 0.4867(7) 0.4380(3)
H14 H 0.7256 0.4213 0.4490
C17 C 0.5848(5) 0.4854(6) 0.4363(3)
H15 H 0.5496 0.4190 0.4458
C18 C 0.5333(5) 0.5820(6) 0.4207(3)
C19 C 0.5874(5) 0.6773(6) 0.4082(3)
H16 H 0.5524 0.7446 0.3984
C20 C 0.4214(5) 0.5935(6) 0.4167(3)
C21 C 0.2579(5) 0.5043(7) 0.4043(3)
H17 H 0.2338 0.5645 0.4289
H18 H 0.2312 0.4315 0.4173
C22 C 0.2186(6) 0.5262(7) 0.3445(3)
H19 H 0.1449 0.5343 0.3446
H20 H 0.2459 0.5993 0.3323
C23 C 0.2425(6) 0.4374(7) 0.3012(3)
H21 H 0.2271 0.4696 0.2638
H22 H 0.3154 0.4224 0.3042
C24 C 0.1888(6) 0.3268(7) 0.3049(3)
H23 H 0.1167 0.3414 0.3096
H24 H 0.1950 0.2851 0.2696
C25 C 0.1735(5) 0.2105(6) 0.3895(3)
C26 C 0.2330(5) 0.1486(6) 0.4337(3)
C27 C 0.3090(6) 0.0737(6) 0.4230(3)
H25 H 0.3253 0.0579 0.3857
C28 C 0.3605(6) 0.0227(6) 0.4664(3)
C29 C 0.3379(5) 0.0474(6) 0.5196(3)
H27 H 0.3741 0.0110 0.5494
C30 C 0.2117(5) 0.1692(6) 0.4887(3)
H28 H 0.1577 0.2179 0.4964
Cu4 Cu 0.24025(6) 0.17886(7) 0.60866(3)
O13 O 0.6275(3) 0.8995(4) 0.34722(19)
N7 N 0.8670(4) 0.2632(4) 0.2380(2)
N8 N 0.6378(4) 0.4844(4) 0.2335(2)
N9 N 0.7344(4) 0.8779(5) 0.4686(2)
N2 N 0.3622(4) 0.9844(4) 0.2665(2)
C12 C 0.4496(4) 0.9612(5) 0.2943(3)
H12 H 0.4568 0.8903 0.3125
H26 H 0.4119 0.9700 0.4595
Cu1_2 Cu 0.24025(6) 0.32114(7) 0.10866(3)
O1_2 O 0.1795(3) 0.2438(4) 0.17123(18)
O2_2 O 0.0610(4) 0.2282(4) 0.10311(19)
O10_2 O 0.1573(3) 0.4560(4) 0.12543(19)
H3_2 H 0.1176 0.4765 0.0958
H4 H 0.1961 0.5171 0.1312
O11_2 O 0.6160(4) 0.1896(4) 0.0778(2)
N3_2 N 0.3125(4) 0.1777(5) 0.0905(2)
N4_2 N 0.6325(4) 0.0012(5) 0.0915(2)
C1_2 C 0.0901(5) 0.2229(6) 0.1533(3)
C2_2 C 0.0164(4) 0.1980(5) 0.1970(3)
C6_2 C 0.0274(4) 0.1120(5) 0.2359(3)
C7_2 C 0.1097(4) 0.0264(5) 0.2328(3)
C15_2 C 0.2628(5) 0.0834(6) 0.0764(3)
H13_2 H 0.1918 0.0833 0.0764
C18_2 C 0.4667(5) 0.0820(6) 0.0793(3)
C19_2 C 0.4126(5) 0.1773(6) 0.0918(3)
H16_2 H 0.4476 0.2446 0.1016
C20_2 C 0.5786(5) 0.0935(6) 0.0833(3)
C21_2 C 0.7421(5) 0.0043(7) 0.0957(3)
H17_2 H 0.7662 0.0645 0.0711
C22_2 C 0.7814(6) 0.0262(7) 0.1555(3)
H19_2 H 0.8551 0.0343 0.1554
H20_2 H 0.7541 0.0993 0.1677
O13_2 O 0.3725(3) 0.3995(4) 0.15278(19)
N9_2 N 0.2656(4) 0.3779(5) 0.0314(2)
O3_2 O 0.1299(3) 0.9912(4) 0.18517(19)
O4_2 O 0.1528(3) 0.9948(4) 0.27819(18)
O5_2 O 0.3421(3) 0.7416(4) 0.26138(18)
O6_2 O 0.4110(4) 0.8017(4) 0.1840(2)
O7_2 O 0.3104(4) 0.5728(4) 0.1608(2)
O9_2 O 0.2697(3) 0.8443(4) 0.36233(18)
H1_2 H 0.2099 0.8362 0.3774
H2_2 H 0.2948 0.9064 0.3794
O12_2 O 0.9187(4) 0.7193(5) 0.1075(2)
H5_2 H 0.6017 0.9360 0.0945
N5_2 N 0.7724(5) 0.7564(5) 0.1488(2)
H6_2 H 0.7075 0.7437 0.1465
C8_2 C 0.4031(4) 0.7353(5) 0.2229(3)
C9_2 C 0.4803(4) 0.6400(5) 0.2284(3)
C10_2 C 0.5691(5) 0.6617(6) 0.2588(3)
H10_2 H 0.5774 0.7309 0.2784
C11_2 C 0.6455(5) 0.5829(5) 0.2608(3)
H11_2 H 0.7053 0.5990 0.2823
C12_2 C 0.5504(4) 0.4612(5) 0.2057(3)
H12_2 H 0.5432 0.3903 0.1875
C13_2 C 0.4706(5) 0.5353(5) 0.2022(3)
C14_2 C 0.3768(5) 0.5008(6) 0.1691(3)
C16_2 C 0.3114(5) 0.9867(7) 0.0620(3)
H14_2 H 0.2744 0.9213 0.0510
C17_2 C 0.4152(5) 0.9854(6) 0.0637(3)
H15_2 H 0.4504 0.9190 0.0542
H18_2 H 0.7688 0.9315 0.0827
C23_2 C 0.7575(6) 0.9374(7) 0.1988(3)
H21_2 H 0.7729 0.9696 0.2362
H22_2 H 0.6846 0.9224 0.1958
C24_2 C 0.8112(6) 0.8268(7) 0.1951(3)
H23_2 H 0.8833 0.8414 0.1904
H24_2 H 0.8050 0.7851 0.2304
C25_2 C 0.8265(5) 0.7105(6) 0.1105(3)
C26_2 C 0.7670(5) 0.6486(6) 0.0663(3)
C27_2 C 0.6910(6) 0.5737(6) 0.0770(3)
H25_2 H 0.6747 0.5579 0.1143
C28_2 C 0.6395(6) 0.5227(6) 0.0336(3)
H26_2 H 0.5881 0.4700 0.0405
C30_2 C 0.7883(5) 0.6692(6) 0.0113(3)
H28_2 H 0.8423 0.7179 0.0036
N6_2 N 0.7344(4) 0.6221(5) 0.9686(2)
C29_2 C 0.6621(5) 0.5474(6) 0.9804(3)
H27_2 H 0.6259 0.5110 0.9506
Cu4_2 Cu 0.75975(6) 0.67886(7) 0.89134(3)
C3_2 C 0.9361(4) 0.2721(5) 0.1996(3)
H7_2 H 0.9300 0.3314 0.1731
C4_2 C 0.8774(4) 0.1798(6) 0.2756(3)
H8_2 H 0.8280 0.1718 0.3025
C5_2 C 0.9569(5) 0.1048(6) 0.2769(3)
H9_2 H 0.9634 0.0491 0.3053
O8 O 0.3725(3) 0.1005(4) 0.65278(19)
N2_2 N 0.6378(4) 0.0156(4) 0.7335(2)
C12_3 C 0.5504(4) 0.0388(5) 0.7057(3)
H12_3 H 0.5432 0.1097 0.6875
H26_3 H 0.5881 0.0300 0.5405
Cu5 Cu 0.74988(5) 0.12977(6) 0.73202(3)
Cu2_2 Cu 0.25012(5) 0.62977(6) 0.76798(3)
O1_3 O 0.1795(3) 0.2562(4) 0.67123(18)
O2_3 O 0.0610(4) 0.2718(4) 0.60311(19)
O3_3 O 0.1299(3) 0.5088(4) 0.68517(19)
O4_3 O 0.1528(3) 0.5052(4) 0.77819(18)
O5_3 O 0.3421(3) 0.7584(4) 0.76138(18)
O6_3 O 0.4110(4) 0.6983(4) 0.6840(2)
O7_3 O 0.3104(4) 0.9272(4) 0.6608(2)
O9_3 O 0.2697(3) 0.6557(4) 0.86233(18)
H1_3 H 0.2099 0.6638 0.8774
H2_3 H 0.2948 0.5936 0.8794
O10_3 O 0.1573(3) 0.0440(4) 0.62543(19)
H3_3 H 0.1176 0.0235 0.5958
O11_3 O 0.6160(4) 0.3104(4) 0.5778(2)
O12_3 O 0.9187(4) 0.7807(5) 0.6075(2)
N3_3 N 0.3125(4) 0.3223(5) 0.5905(2)
N4_3 N 0.6325(4) 0.4988(5) 0.5915(2)
H5_3 H 0.6017 0.5640 0.5945
N5_3 N 0.7724(5) 0.7436(5) 0.6488(2)
H6_3 H 0.7075 0.7563 0.6465
C1_3 C 0.0901(5) 0.2771(6) 0.6533(3)
C2_3 C 0.0164(4) 0.3020(5) 0.6970(3)
C6_3 C 0.0274(4) 0.3880(5) 0.7359(3)
C7_3 C 0.1097(4) 0.4736(5) 0.7328(3)
C8_3 C 0.4031(4) 0.7647(5) 0.7229(3)
C9_3 C 0.4803(4) 0.8600(5) 0.7284(3)
C10_3 C 0.5691(5) 0.8383(6) 0.7588(3)
H10_3 H 0.5774 0.7691 0.7784
C11_3 C 0.6455(5) 0.9171(5) 0.7608(3)
H11_3 H 0.7053 0.9010 0.7823
C13_3 C 0.4706(5) 0.9647(5) 0.7022(3)
C14_3 C 0.3768(5) 0.9992(6) 0.6691(3)
C15_3 C 0.2628(5) 0.4166(6) 0.5764(3)
H13_3 H 0.1918 0.4167 0.5764
C16_3 C 0.3114(5) 0.5133(7) 0.5620(3)
H14_3 H 0.2744 0.5787 0.5510
C17_3 C 0.4152(5) 0.5146(6) 0.5637(3)
H15_3 H 0.4504 0.5810 0.5542
C18_3 C 0.4667(5) 0.4180(6) 0.5793(3)
C19_3 C 0.4126(5) 0.3227(6) 0.5918(3)
H16_3 H 0.4476 0.2554 0.6016
C20_3 C 0.5786(5) 0.4065(6) 0.5833(3)
C21_3 C 0.7421(5) 0.4957(7) 0.5957(3)
H17_3 H 0.7662 0.4355 0.5711
H18_3 H 0.7688 0.5685 0.5827
C22_3 C 0.7814(6) 0.4738(7) 0.6555(3)
H19_3 H 0.8551 0.4657 0.6554
H20_3 H 0.7541 0.4007 0.6677
C23_3 C 0.7575(6) 0.5626(7) 0.6988(3)
H21_3 H 0.7729 0.5304 0.7362
H22_3 H 0.6846 0.5776 0.6958
C24_3 C 0.8112(6) 0.6732(7) 0.6951(3)
H23_3 H 0.8833 0.6586 0.6904
H24_3 H 0.8050 0.7149 0.7304
C25_3 C 0.8265(5) 0.7895(6) 0.6105(3)
C26_3 C 0.7670(5) 0.8514(6) 0.5663(3)
C27_3 C 0.6910(6) 0.9263(6) 0.5770(3)
H25_3 H 0.6747 0.9421 0.6143
C28_3 C 0.6395(6) 0.9773(6) 0.5336(3)
C29_3 C 0.6621(5) 0.9526(6) 0.4804(3)
H27_3 H 0.6259 0.9890 0.4506
C30_3 C 0.7883(5) 0.8308(6) 0.5113(3)
H28_3 H 0.8423 0.7821 0.5036
N7_2 N 0.1330(4) 0.7368(4) 0.7620(2)
N8_2 N 0.3622(4) 0.5156(4) 0.7665(2)
N1_2 N 0.8670(4) 0.2368(4) 0.7380(2)
C3_3 C 0.9361(4) 0.2279(5) 0.6996(3)
H7_3 H 0.9300 0.1686 0.6731
C4_3 C 0.8774(4) 0.3202(6) 0.7756(3)
H8_3 H 0.8280 0.3282 0.8025
C5_3 C 0.9569(5) 0.3952(6) 0.7769(3)
H9_3 H 0.9634 0.4509 0.8053
C3_4 C 0.0639(4) 0.7279(5) 0.8004(3)
H7_4 H 0.0700 0.6686 0.8269
C4_4 C 0.1226(4) 0.8202(6) 0.7244(3)
H8_4 H 0.1720 0.8282 0.6975
C5_4 C 0.0431(5) 0.8952(6) 0.7231(3)
H9_4 H 0.0366 0.9509 0.6947
C29_4 C 0.3379(5) 0.4526(6) 0.0196(3)
H27_4 H 0.3741 0.4890 0.0494
O3_4 O 0.8701(3) 0.0088(4) 0.81483(19)
O4_4 O 0.8472(3) 0.0052(4) 0.72181(18)
O5_4 O 0.6579(3) 0.2584(4) 0.73862(18)
O6_4 O 0.5890(4) 0.1983(4) 0.8160(2)
O7_4 O 0.6896(4) 0.4272(4) 0.8392(2)
O8_2 O 0.6275(3) 0.6005(4) 0.84722(19)
O9_4 O 0.7303(3) 0.1557(4) 0.63767(18)
H1_4 H 0.7901 0.1638 0.6226
H2_4 H 0.7052 0.0936 0.6206
O12_4 O 0.0813(4) 0.2807(5) 0.8925(2)
H5_4 H 0.3983 0.0640 0.9055
N5_4 N 0.2276(5) 0.2436(5) 0.8512(2)
H6_4 H 0.2925 0.2563 0.8535
C8_4 C 0.5969(4) 0.2647(5) 0.7771(3)
C9_4 C 0.5197(4) 0.3600(5) 0.7716(3)
C10_4 C 0.4309(5) 0.3383(6) 0.7412(3)
H10_4 H 0.4226 0.2691 0.7216
C11_4 C 0.3545(5) 0.4171(5) 0.7392(3)
H11_4 H 0.2947 0.4010 0.7177
C12_4 C 0.4496(4) 0.5388(5) 0.7943(3)
H12_4 H 0.4568 0.6097 0.8125
C13_4 C 0.5294(5) 0.4647(5) 0.7978(3)
C14_4 C 0.6232(5) 0.4992(6) 0.8309(3)
C16_4 C 0.6886(5) 0.0133(7) 0.9380(3)
H14_4 H 0.7256 0.0787 0.9490
C17_4 C 0.5848(5) 0.0146(6) 0.9363(3)
H15_4 H 0.5496 0.0810 0.9458
H18_4 H 0.2312 0.0685 0.9173
C23_4 C 0.2425(6) 0.0626(7) 0.8012(3)
H21_4 H 0.2271 0.0304 0.7638
H22_4 H 0.3154 0.0776 0.8042
C24_4 C 0.1888(6) 0.1732(7) 0.8049(3)
H23_4 H 0.1167 0.1586 0.8096
H24_4 H 0.1950 0.2149 0.7696
C25_4 C 0.1735(5) 0.2895(6) 0.8895(3)
C26_4 C 0.2330(5) 0.3514(6) 0.9337(3)
C27_4 C 0.3090(6) 0.4263(6) 0.9230(3)
H25_4 H 0.3253 0.4421 0.8857
C28_4 C 0.3605(6) 0.4773(6) 0.9664(3)
H26_4 H 0.4119 0.5300 0.9595
C30_4 C 0.2117(5) 0.3308(6) 0.9887(3)
H28_4 H 0.1577 0.2821 0.9964
O1_4 O 0.8205(3) 0.7562(4) 0.82877(18)
O2_4 O 0.9390(4) 0.7718(4) 0.89689(19)
O10_4 O 0.8427(3) 0.5440(4) 0.87457(19)
H3_4 H 0.8824 0.5235 0.9042
H4_2 H 0.8039 0.4829 0.8688
O11_4 O 0.3840(4) 0.8104(4) 0.9222(2)
N3_4 N 0.6875(4) 0.8223(5) 0.9095(2)
N4_4 N 0.3675(4) 0.9988(5) 0.9085(2)
C1_4 C 0.9099(5) 0.7771(6) 0.8467(3)
C2_4 C 0.9836(4) 0.8020(5) 0.8030(3)
C6_4 C 0.9726(4) 0.8880(5) 0.7641(3)
C7_4 C 0.8903(4) 0.9736(5) 0.7672(3)
C15_4 C 0.7372(5) 0.9166(6) 0.9236(3)
H13_4 H 0.8082 0.9167 0.9236
C18_4 C 0.5333(5) 0.9180(6) 0.9207(3)
C19_4 C 0.5874(5) 0.8227(6) 0.9082(3)
H16_4 H 0.5524 0.7554 0.8984
C20_4 C 0.4214(5) 0.9065(6) 0.9167(3)
C21_4 C 0.2579(5) 0.9957(7) 0.9043(3)
H17_4 H 0.2338 0.9355 0.9289
C22_4 C 0.2186(6) 0.9738(7) 0.8445(3)
H19_4 H 0.1449 0.9657 0.8446
H20_4 H 0.2459 0.9007 0.8323
H4_3 H 0.8039 0.0171 0.3688
H4_4 H 0.1961 0.9829 0.6312
loop_
_geom_bond_atom_site_label_1
_geom_bond_atom_site_label_2
_geom_bond_site_symmetry_1
_geom_bond_site_symmetry_2
N1 C3 1_555 1_555
H7 C3 1_555 1_555
C4 N1 1_555 1_555
H8 C4 1_555 1_555
C5 C4 1_555 1_555
H9 C5 1_555 1_555
Cu6 N1 1_555 1_555
Cu1 O1 1_555 1_555
Cu2 O4 1_555 1_555
O1 C1 1_555 1_555
O2 Cu1 1_555 1_555
O3 C7 1_555 1_555
O4 C7 1_555 1_555
O5 Cu2 1_555 1_555
O6 C8 1_555 1_555
O7 C14 1_555 1_555
O9 Cu2 1_555 1_555
H1 O9 1_555 1_555
H2 O9 1_555 1_555
O10 Cu1 1_555 1_555
H3 O10 1_555 1_555
O11 C20 1_555 1_555
O12 C25 1_555 1_555
N3 Cu1 1_555 1_555
N4 H5 1_555 1_555
N5 H6 1_555 1_555
N6 C29 1_555 1_555
C1 O2 1_555 1_555
C2 C1 1_555 1_555
C6 C2 1_555 1_555
C7 C6 1_555 1_555
C8 O5 1_555 1_555
C9 C8 1_555 1_555
C10 C9 1_555 1_555
H10 C10 1_555 1_555
C11 C10 1_555 1_555
H11 C11 1_555 1_555
C13 C9 1_555 1_555
C14 C13 1_555 1_555
C15 N3 1_555 1_555
H13 C15 1_555 1_555
C16 C15 1_555 1_555
H14 C16 1_555 1_555
C17 C16 1_555 1_555
H15 C17 1_555 1_555
C18 C17 1_555 1_555
C19 N3 1_555 1_555
H16 C19 1_555 1_555
C20 N4 1_555 1_555
C21 N4 1_555 1_555
H17 C21 1_555 1_555
H18 C21 1_555 1_555
C22 C21 1_555 1_555
H19 C22 1_555 1_555
H20 C22 1_555 1_555
C23 C22 1_555 1_555
H21 C23 1_555 1_555
H22 C23 1_555 1_555
C24 N5 1_555 1_555
H23 C24 1_555 1_555
H24 C24 1_555 1_555
C25 N5 1_555 1_555
C26 C25 1_555 1_555
C27 C26 1_555 1_555
H25 C27 1_555 1_555
C28 C27 1_555 1_555
C29 C28 1_555 1_555
H27 C29 1_555 1_555
C30 N6 1_555 1_555
H28 C30 1_555 1_555
Cu4 N6 1_555 1_555
O13 Cu1 1_555 1_555
N7 Cu2 1_555 1_555
N8 Cu2 1_555 1_555
N9 Cu1 1_555 1_555
C18 C19 1_555 1_555
C18 C20 1_555 1_555
C23 C24 1_555 1_555
C26 C30 1_555 1_555
C12 N2 1_555 1_555
H12 C12 1_555 1_555
Cu6 N2 1_555 1_555
Cu1_2 O1_2 1_555 1_555
O1_2 C1_2 1_555 1_555
O2_2 Cu1_2 1_555 1_555
O10_2 Cu1_2 1_555 1_555
H3_2 O10_2 1_555 1_555
H4 O10_2 1_555 1_555
O11_2 C20_2 1_555 1_555
N3_2 Cu1_2 1_555 1_555
C1_2 O2_2 1_555 1_555
C2_2 C1_2 1_555 1_555
C6_2 C2_2 1_555 1_555
C7_2 C6_2 1_555 1_555
C15_2 N3_2 1_555 1_555
H13_2 C15_2 1_555 1_555
C19_2 N3_2 1_555 1_555
H16_2 C19_2 1_555 1_555
C20_2 N4_2 1_555 1_555
C21_2 N4_2 1_555 1_555
H17_2 C21_2 1_555 1_555
C22_2 C21_2 1_555 1_555
H19_2 C22_2 1_555 1_555
H20_2 C22_2 1_555 1_555
O13_2 Cu1_2 1_555 1_555
N9_2 Cu1_2 1_555 1_555
C18_2 C19_2 1_555 1_555
C18_2 C20_2 1_555 1_555
Cu6 O4_2 1_555 1_555
O5_2 Cu6 1_555 1_555
O6_2 C8_2 1_555 1_555
O7_2 C14_2 1_555 1_555
O13_2 C14_2 1_555 1_555
O9_2 Cu6 1_555 1_555
H1_2 O9_2 1_555 1_555
H2_2 O9_2 1_555 1_555
O12_2 C25_2 1_555 1_555
N8 C11_2 1_555 1_555
N5_2 H6_2 1_555 1_555
C8_2 O5_2 1_555 1_555
C9_2 C8_2 1_555 1_555
C10_2 C9_2 1_555 1_555
H10_2 C10_2 1_555 1_555
C11_2 C10_2 1_555 1_555
H11_2 C11_2 1_555 1_555
C12_2 N8 1_555 1_555
H12_2 C12_2 1_555 1_555
C13_2 C9_2 1_555 1_555
C14_2 C13_2 1_555 1_555
H14_2 C16_2 1_555 1_555
C17_2 C16_2 1_555 1_555
H15_2 C17_2 1_555 1_555
H21_2 C23_2 1_555 1_555
H22_2 C23_2 1_555 1_555
C24_2 N5_2 1_555 1_555
H23_2 C24_2 1_555 1_555
H24_2 C24_2 1_555 1_555
C25_2 N5_2 1_555 1_555
C26_2 C25_2 1_555 1_555
C27_2 C26_2 1_555 1_555
H25_2 C27_2 1_555 1_555
C28_2 C27_2 1_555 1_555
H26_2 C28_2 1_555 1_555
H28_2 C30_2 1_555 1_555
C12_2 C13_2 1_555 1_555
C23_2 C24_2 1_555 1_555
C26_2 C30_2 1_555 1_555
N6_2 C29_2 1_555 1_555
H27_2 C29_2 1_555 1_555
Cu4_2 N6_2 1_555 1_555
N7 C3_2 1_555 1_555
H7_2 C3_2 1_555 1_555
C4_2 N7 1_555 1_555
H8_2 C4_2 1_555 1_555
C5_2 C4_2 1_555 1_555
H9_2 C5_2 1_555 1_555
C12_3 N2_2 1_555 1_555
H12_3 C12_3 1_555 1_555
Cu4 O8 1_555 1_555
Cu5 N2_2 1_555 1_555
Cu4 O1_3 1_555 1_555
Cu2_2 O4_3 1_555 1_555
O1_3 C1_3 1_555 1_555
O2_3 Cu4 1_555 1_555
O3_3 C7_3 1_555 1_555
O4_3 C7_3 1_555 1_555
O5_3 Cu2_2 1_555 1_555
O6_3 C8_3 1_555 1_555
O7_3 C14_3 1_555 1_555
O9_3 Cu2_2 1_555 1_555
H1_3 O9_3 1_555 1_555
H2_3 O9_3 1_555 1_555
O10_3 Cu4 1_555 1_555
H3_3 O10_3 1_555 1_555
O11_3 C20_3 1_555 1_555
O12_3 C25_3 1_555 1_555
N3_3 Cu4 1_555 1_555
N4_3 H5_3 1_555 1_555
N5_3 H6_3 1_555 1_555
N9 C29_3 1_555 1_555
C1_3 O2_3 1_555 1_555
C2_3 C1_3 1_555 1_555
C6_3 C2_3 1_555 1_555
C7_3 C6_3 1_555 1_555
C8_3 O5_3 1_555 1_555
C9_3 C8_3 1_555 1_555
C10_3 C9_3 1_555 1_555
H10_3 C10_3 1_555 1_555
C11_3 C10_3 1_555 1_555
H11_3 C11_3 1_555 1_555
C13_3 C9_3 1_555 1_555
C14_3 C13_3 1_555 1_555
C15_3 N3_3 1_555 1_555
H13_3 C15_3 1_555 1_555
C16_3 C15_3 1_555 1_555
H14_3 C16_3 1_555 1_555
C17_3 C16_3 1_555 1_555
H15_3 C17_3 1_555 1_555
C18_3 C17_3 1_555 1_555
C19_3 N3_3 1_555 1_555
H16_3 C19_3 1_555 1_555
C20_3 N4_3 1_555 1_555
C21_3 N4_3 1_555 1_555
H17_3 C21_3 1_555 1_555
H18_3 C21_3 1_555 1_555
C22_3 C21_3 1_555 1_555
H19_3 C22_3 1_555 1_555
H20_3 C22_3 1_555 1_555
C23_3 C22_3 1_555 1_555
H21_3 C23_3 1_555 1_555
H22_3 C23_3 1_555 1_555
C24_3 N5_3 1_555 1_555
H23_3 C24_3 1_555 1_555
H24_3 C24_3 1_555 1_555
C25_3 N5_3 1_555 1_555
C26_3 C25_3 1_555 1_555
C27_3 C26_3 1_555 1_555
H25_3 C27_3 1_555 1_555
C28_3 C27_3 1_555 1_555
C29_3 C28_3 1_555 1_555
H27_3 C29_3 1_555 1_555
C30_3 N9 1_555 1_555
H28_3 C30_3 1_555 1_555
N7_2 Cu2_2 1_555 1_555
N8_2 Cu2_2 1_555 1_555
C18_3 C19_3 1_555 1_555
C18_3 C20_3 1_555 1_555
C23_3 C24_3 1_555 1_555
C26_3 C30_3 1_555 1_555
N1_2 C3_3 1_555 1_555
H7_3 C3_3 1_555 1_555
C4_3 N1_2 1_555 1_555
H8_3 C4_3 1_555 1_555
C5_3 C4_3 1_555 1_555
H9_3 C5_3 1_555 1_555
Cu5 N1_2 1_555 1_555
N7_2 C3_4 1_555 1_555
H7_4 C3_4 1_555 1_555
C4_4 N7_2 1_555 1_555
H8_4 C4_4 1_555 1_555
C5_4 C4_4 1_555 1_555
H9_4 C5_4 1_555 1_555
N9_2 C29_4 1_555 1_555
H27_4 C29_4 1_555 1_555
Cu5 O4_4 1_555 1_555
O5_4 Cu5 1_555 1_555
O6_4 C8_4 1_555 1_555
O7_4 C14_4 1_555 1_555
O8_2 C14_4 1_555 1_555
O9_4 Cu5 1_555 1_555
H1_4 O9_4 1_555 1_555
H2_4 O9_4 1_555 1_555
O12_4 C25_4 1_555 1_555
N8_2 C11_4 1_555 1_555
N5_4 H6_4 1_555 1_555
C8_4 O5_4 1_555 1_555
C9_4 C8_4 1_555 1_555
C10_4 C9_4 1_555 1_555
H10_4 C10_4 1_555 1_555
C11_4 C10_4 1_555 1_555
H11_4 C11_4 1_555 1_555
C12_4 N8_2 1_555 1_555
H12_4 C12_4 1_555 1_555
C13_4 C9_4 1_555 1_555
C14_4 C13_4 1_555 1_555
H14_4 C16_4 1_555 1_555
C17_4 C16_4 1_555 1_555
H15_4 C17_4 1_555 1_555
H21_4 C23_4 1_555 1_555
H22_4 C23_4 1_555 1_555
C24_4 N5_4 1_555 1_555
H23_4 C24_4 1_555 1_555
H24_4 C24_4 1_555 1_555
C25_4 N5_4 1_555 1_555
C26_4 C25_4 1_555 1_555
C27_4 C26_4 1_555 1_555
H25_4 C27_4 1_555 1_555
C28_4 C27_4 1_555 1_555
H26_4 C28_4 1_555 1_555
H28_4 C30_4 1_555 1_555
Cu4_2 O8_2 1_555 1_555
C12_4 C13_4 1_555 1_555
C23_4 C24_4 1_555 1_555
C26_4 C30_4 1_555 1_555
Cu4_2 O1_4 1_555 1_555
O1_4 C1_4 1_555 1_555
O2_4 Cu4_2 1_555 1_555
O10_4 Cu4_2 1_555 1_555
H3_4 O10_4 1_555 1_555
H4_2 O10_4 1_555 1_555
O11_4 C20_4 1_555 1_555
N3_4 Cu4_2 1_555 1_555
C1_4 O2_4 1_555 1_555
C2_4 C1_4 1_555 1_555
C6_4 C2_4 1_555 1_555
C7_4 C6_4 1_555 1_555
C15_4 N3_4 1_555 1_555
H13_4 C15_4 1_555 1_555
C19_4 N3_4 1_555 1_555
H16_4 C19_4 1_555 1_555
C20_4 N4_4 1_555 1_555
C21_4 N4_4 1_555 1_555
H17_4 C21_4 1_555 1_555
C22_4 C21_4 1_555 1_555
H19_4 C22_4 1_555 1_555
H20_4 C22_4 1_555 1_555
C18_4 C19_4 1_555 1_555
C18_4 C20_4 1_555 1_555

#END
