
###############################################################################
#
# This file contains modified crystal structure data generated from the
# MOF subset of the Cambridge Structural Database (CSD) v543 
# hosted by the Cambridge Crystallographic Data Centre (CCDC).
#
# This work is licensed under the Creative Commons
# Attribution-NonCommercial-ShareAlike 4.0 International License.
# To view a copy of this license, visit
# http://creativecommons.org/licenses/by-nc-sa/4.0/
# or send a letter to
# Creative Commons, PO Box 1866, Mountain View, CA 94042, USA.
#
# CIF created using the CSD Python API on 29 September 2022
# The structure has been converted into the P1 space group
# The structure has a 3D framework
# The original CSD entry GUHHOJ is in the monoclinic crystal system
# The framework has been calculated to contain at least 10.0% void space
# The void calculation uses a probe of radius 1.32A, grid spacing 0.4
#
###############################################################################

data_GUHHOJ
_chemical_formula_moiety         '(C88 H76 Cu8 N16 O44)n'
_symmetry_cell_setting           triclinic
_symmetry_space_group_name_H-M   'P 1'
_symmetry_Int_Tables_number      1
_space_group_name_Hall           'P 1'
loop_
_symmetry_equiv_pos_site_id
_symmetry_equiv_pos_as_xyz
1 x,y,z
_cell_length_a                   13.300(3)
_cell_length_b                   11.272(3)
_cell_length_c                   18.699(5)
_cell_angle_alpha                90
_cell_angle_beta                 106.805(3)
_cell_angle_gamma                90
_cell_volume                     2683.59
loop_
_atom_site_label
_atom_site_type_symbol
_atom_site_fract_x
_atom_site_fract_y
_atom_site_fract_z
O19 O 0.5225(5) 0.1315(5) 0.6785(3)
O20 O 0.5538(5) 0.1437(5) 0.5678(4)
N7 N 0.8736(5) 0.1281(6) 0.7099(4)
C41 C 0.8938(7) 0.0309(8) 0.7519(5)
H37 H 0.9646 0.0144 0.7790
C42 C 0.7735(7) 0.1477(8) 0.6688(5)
H38 H 0.7594 0.2133 0.6355
C43 C 0.6894(7) 0.0762(9) 0.6729(5)
C44 C 0.5814(7) 0.1196(8) 0.6371(6)
Cu6 Cu 0.42168(8) 0.23946(12) 0.55270(6)
Cu12 Cu 0.98498(8) 0.24831(11) 0.70830(6)
N5 N 0.3256(6) 0.1005(7) 0.5208(4)
C26 C 0.1520(8) 0.0269(9) 0.4629(5)
H23 H 0.0820 0.0406 0.4330
C27 C 0.2256(7) 0.1180(9) 0.4813(5)
H24 H 0.2038 0.1962 0.4649
Cu4 Cu 0.51502(8) 0.74831(11) 0.79170(6)
O13 O 0.4043(5) 0.6279(5) 0.7602(3)
O14 O 0.2887(5) 0.7347(6) 0.6711(3)
O15 O 0.3088(5) 0.3159(6) 0.5890(4)
O16 O 0.3685(5) 0.5044(6) 0.6120(4)
O17 O 0.6221(5) 0.8747(6) 0.7934(4)
O18 O 0.5690(5) 0.8482(5) 0.6696(3)
O21 O 0.5190(5) 0.3719(6) 0.5880(3)
H29 H 0.5439 0.4002 0.5516
H30 H 0.4850 0.4346 0.5992
O22 O 0.3929(5) 0.3104(6) 0.4364(3)
H31 H 0.4033 0.2542 0.4049
H32 H 0.3246 0.3288 0.4166
N8 N 0.0887(6) 0.3722(7) 0.7026(4)
C31 C 0.3192(8) 0.6445(9) 0.7096(5)
C32 C 0.2388(7) 0.5449(8) 0.7041(5)
C33 C 0.1683(7) 0.5566(9) 0.7446(5)
H33 H 0.1695 0.6257 0.7739
C34 C 0.0975(7) 0.4708(9) 0.7431(5)
H34 H 0.0510 0.4812 0.7727
C35 C 0.1572(7) 0.3590(9) 0.6630(5)
H35 H 0.1533 0.2893 0.6338
C36 C 0.2330(7) 0.4423(8) 0.6626(5)
C37 C 0.3101(7) 0.4174(10) 0.6163(5)
C38 C 0.6273(7) 0.8920(8) 0.7270(6)
C39 C 0.7139(7) 0.9755(9) 0.7200(5)
C40 C 0.8168(7) 0.9532(9) 0.7580(5)
H36 H 0.8349 0.8844 0.7884
O27 O 0.5325(5) 0.6898(6) 0.9165(4)
N10 N 0.6264(5) 0.6281(6) 0.7901(4)
N12 N 0.4113(6) 0.8722(7) 0.7974(4)
O11 O 0.9675(5) 0.1898(6) 0.5835(4)
N4 N 0.8898(6) 0.2521(8) 0.4665(4)
H5 H 0.8345 0.2460 0.4271
C15 C 0.6441(8) 0.0112(8) 0.4563(5)
H12 H 0.5725 0.0252 0.4301
C16 C 0.7118(8) 0.1035(9) 0.4694(5)
H13 H 0.6889 0.1805 0.4510
C17 C 0.8141(8) 0.0836(9) 0.5098(5)
C20 C 0.8974(7) 0.1816(9) 0.5235(6)
C21 C 0.9704(8) 0.3411(9) 0.4659(6)
H16 H 0.9678 0.3578 0.4134
C22 C 0.9586(8) 0.4569(8) 0.5038(6)
H18 H 0.8880 0.4906 0.4805
H19 H 0.9660 0.4426 0.5573
H26 H 0.9597 0.6928 0.5089
O13_2 O 0.0957(5) 0.1279(5) 0.7398(3)
O14_2 O 0.2113(5) 0.2347(6) 0.8289(3)
O16_2 O 0.1315(5) 0.0044(6) 0.8880(4)
C31_2 C 0.1808(8) 0.1445(9) 0.7904(5)
C32_2 C 0.2612(7) 0.0449(8) 0.7959(5)
C33_2 C 0.3317(7) 0.0566(9) 0.7554(5)
H33_2 H 0.3305 0.1257 0.7261
Cu6_2 Cu 0.07832(8) 0.73946(12) 0.94730(6)
N5_2 N 0.1744(6) 0.6005(7) 0.9792(4)
N6 N 0.3898(6) 0.2479(8) 0.9665(4)
H20 H 0.3345 0.2540 0.9271
C23 C 0.1441(8) 0.4888(8) 0.9563(5)
H21 H 0.0725 0.4748 0.9301
C24 C 0.2118(8) 0.3965(9) 0.9694(5)
H22 H 0.1889 0.3195 0.9510
C29 C 0.4704(8) 0.1589(9) 0.9659(6)
H25 H 0.4678 0.1422 0.9134
H26_2 H 0.5403 0.1928 0.9911
H27 H 0.3880 0.0094 0.9805
O15_2 O 0.1912(5) 0.8159(6) 0.9110(4)
H30_2 H 0.0150 0.9346 0.9008
C34_2 C 0.4025(7) 0.9708(9) 0.7569(5)
H34_2 H 0.4490 0.9812 0.7273
C35_2 C 0.3428(7) 0.8590(9) 0.8370(5)
H35_2 H 0.3467 0.7893 0.8662
C36_2 C 0.2670(7) 0.9423(8) 0.8374(5)
C37_2 C 0.1899(7) 0.9174(10) 0.8837(5)
O10 O 0.8929(5) 0.1896(6) 0.9364(3)
H3 H 0.9033 0.2458 0.9049
H4 H 0.8246 0.1712 0.9166
C17_2 C 0.6859(8) 0.5836(9) 0.9902(5)
C18 C 0.6520(8) 0.4731(9) 0.9629(5)
H14 H 0.5820 0.4594 0.9330
C19 C 0.7256(7) 0.3820(9) 0.9813(5)
H15 H 0.7038 0.3038 0.9649
C20_2 C 0.6026(7) 0.6816(9) 0.9765(6)
C22_2 C 0.5414(8) 0.9569(8) 0.9962(6)
H19_2 H 0.5340 0.9426 0.9427
O17_2 O 0.8779(5) 0.3747(6) 0.7066(4)
O18_2 O 0.9310(5) 0.3482(5) 0.8304(3)
O19_2 O 0.9775(5) 0.6315(5) 0.8215(3)
O20_2 O 0.9462(5) 0.6437(5) 0.9322(4)
C38_2 C 0.8727(7) 0.3920(8) 0.7730(6)
C39_2 C 0.7861(7) 0.4755(9) 0.7800(5)
C40_2 C 0.6832(7) 0.4532(9) 0.7420(5)
H36_2 H 0.6651 0.3844 0.7116
C41_2 C 0.6062(7) 0.5309(8) 0.7481(5)
H37_2 H 0.5354 0.5144 0.7210
C42_2 C 0.7265(7) 0.6477(8) 0.8312(5)
H38_2 H 0.7406 0.7133 0.8645
C43_2 C 0.8106(7) 0.5762(9) 0.8271(5)
C44_2 C 0.9186(7) 0.6196(8) 0.8629(6)
O21_2 O 0.9810(5) 0.8719(6) 0.9120(3)
H29_2 H 0.9561 0.9002 0.9484
H17 H 0.0403 0.3072 0.4911
O12 O 0.0325(5) 0.8102(6) 0.4165(4)
N6_2 N 0.1102(6) 0.7479(8) 0.5335(4)
H20_2 H 0.1655 0.7540 0.5729
C23_2 C 0.3559(8) 0.9888(8) 0.5437(5)
H21_2 H 0.4275 0.9748 0.5699
C24_2 C 0.2882(8) 0.8965(9) 0.5306(5)
H22_2 H 0.3111 0.8195 0.5490
C25 C 0.1859(8) 0.9164(9) 0.4902(5)
C28 C 0.1026(7) 0.8184(9) 0.4765(6)
C29_2 C 0.0296(8) 0.6589(9) 0.5341(6)
H25_2 H 0.0322 0.6422 0.5866
C30 C 0.0414(8) 0.5431(8) 0.4962(6)
H27_2 H 0.1120 0.5094 0.5195
H28 H 0.0340 0.5574 0.4427
Cu9 Cu 0.01502(8) 0.75169(11) 0.29170(6)
Cu1 Cu 0.57832(8) 0.76054(12) 0.44730(6)
Cu2 Cu 0.48498(8) 0.25169(11) 0.20830(6)
O1 O 0.5957(5) 0.3721(5) 0.2398(3)
O2 O 0.7113(5) 0.2653(6) 0.3289(3)
O3 O 0.6912(5) 0.6841(6) 0.4110(4)
O4 O 0.6315(5) 0.4956(6) 0.3880(4)
O5 O 0.3779(5) 0.1253(6) 0.2066(4)
O6 O 0.4310(5) 0.1518(5) 0.3304(3)
O9 O 0.4810(5) 0.6281(6) 0.4120(3)
H1 H 0.4561 0.5998 0.4484
H2 H 0.5150 0.5654 0.4008
O10_2 O 0.6071(5) 0.6896(6) 0.5636(3)
H3_2 H 0.5967 0.7458 0.5951
H4_2 H 0.6754 0.6712 0.5834
N2 N 0.9113(6) 0.6278(7) 0.2974(4)
N3 N 0.6744(6) 0.8995(7) 0.4792(4)
C1 C 0.6808(8) 0.3555(9) 0.2904(5)
C2 C 0.7612(7) 0.4551(8) 0.2959(5)
C3 C 0.8317(7) 0.4434(9) 0.2554(5)
H6 H 0.8305 0.3743 0.2261
C4 C 0.9025(7) 0.5292(9) 0.2569(5)
H7 H 0.9490 0.5188 0.2273
C5 C 0.8428(7) 0.6410(9) 0.3370(5)
H8 H 0.8467 0.7107 0.3662
C6 C 0.7670(7) 0.5577(8) 0.3374(5)
C7 C 0.6899(7) 0.5826(10) 0.3837(5)
C8 C 0.3727(7) 0.1080(8) 0.2730(6)
C9 C 0.2861(7) 0.0245(9) 0.2800(5)
C10 C 0.1832(7) 0.0468(9) 0.2420(5)
H9 H 0.1651 0.1156 0.2116
C18_2 C 0.8480(8) 0.9731(9) 0.5371(5)
H14_2 H 0.9180 0.9594 0.5670
C19_2 C 0.7744(7) 0.8820(9) 0.5187(5)
H15_2 H 0.7962 0.8038 0.5351
O23 O 0.4775(5) 0.8685(5) 0.3215(3)
O25 O 0.4462(5) 0.8563(5) 0.4322(4)
O28 O 0.4675(5) 0.3102(6) 0.0835(4)
N9 N 0.3736(5) 0.3719(6) 0.2099(4)
N11 N 0.5887(6) 0.1278(7) 0.2026(4)
N1 N 0.1264(5) 0.8719(6) 0.2901(4)
C11 C 0.1062(7) 0.9691(8) 0.2481(5)
H10 H 0.0354 0.9856 0.2210
C12 C 0.2265(7) 0.8523(8) 0.3312(5)
H11 H 0.2406 0.7867 0.3645
C13 C 0.3106(7) 0.9238(9) 0.3271(5)
C14 C 0.4186(7) 0.8804(8) 0.3629(6)
O9_2 O 0.0190(5) 0.1281(6) 0.0880(3)
H1_2 H 0.0439 0.0998 0.0516
O23_2 O 0.0225(5) 0.3685(5) 0.1785(3)
O25_2 O 0.0538(5) 0.3563(5) 0.0678(4)
O5_2 O 0.1221(5) 0.6253(6) 0.2934(4)
O6_2 O 0.0690(5) 0.6518(5) 0.1696(3)
C8_2 C 0.1273(7) 0.6080(8) 0.2270(6)
C9_2 C 0.2139(7) 0.5245(9) 0.2200(5)
C10_2 C 0.3168(7) 0.5468(9) 0.2580(5)
H9_2 H 0.3349 0.6156 0.2884
C11_2 C 0.3938(7) 0.4691(8) 0.2519(5)
H10_2 H 0.4646 0.4856 0.2790
C12_2 C 0.2735(7) 0.3523(8) 0.1688(5)
H11_2 H 0.2594 0.2867 0.1355
C13_2 C 0.1894(7) 0.4238(9) 0.1729(5)
C14_2 C 0.0814(7) 0.3804(8) 0.1371(6)
C25_2 C 0.3141(8) 0.4164(9) 0.0098(5)
C26_2 C 0.3480(8) 0.5269(9) 0.0371(5)
H23_2 H 0.4180 0.5406 0.0670
C27_2 C 0.2744(7) 0.6180(9) 0.0187(5)
H24_2 H 0.2962 0.6962 0.0351
C28_2 C 0.3974(7) 0.3184(9) 0.0235(6)
C30_2 C 0.4586(8) 0.0431(8) 0.0038(6)
H28_2 H 0.4660 0.0574 0.0573
O22_2 O 0.1071(5) 0.8104(6) 0.0636(3)
H31_2 H 0.0967 0.7542 0.0951
H32_2 H 0.1754 0.8288 0.0834
Cu1_2 Cu 0.92168(8) 0.26054(12) 0.05270(6)
O3_2 O 0.8088(5) 0.1841(6) 0.0890(4)
H2_2 H 0.9850 0.0654 0.0992
N3_2 N 0.8256(6) 0.3995(7) 0.0208(4)
N4_2 N 0.6102(6) 0.7521(8) 0.0335(4)
H5_2 H 0.6655 0.7460 0.0729
C4_2 C 0.5975(7) 0.0292(9) 0.2431(5)
H7_2 H 0.5510 0.0188 0.2727
C5_2 C 0.6572(7) 0.1410(9) 0.1630(5)
H8_2 H 0.6533 0.2107 0.1338
C6_2 C 0.7330(7) 0.0577(8) 0.1626(5)
C7_2 C 0.8101(7) 0.0826(10) 0.1163(5)
C15_2 C 0.8559(8) 0.5112(8) 0.0437(5)
H12_2 H 0.9275 0.5252 0.0699
C16_2 C 0.7882(8) 0.6035(9) 0.0306(5)
H13_2 H 0.8111 0.6805 0.0490
C21_2 C 0.5296(8) 0.8411(9) 0.0341(6)
H16_2 H 0.5322 0.8578 0.0866
H17_2 H 0.4597 0.8072 0.0089
H18_2 H 0.6120 0.9906 0.0195
O1_2 O 0.9043(5) 0.8721(5) 0.2602(3)
O2_2 O 0.7887(5) 0.7653(6) 0.1711(3)
O4_2 O 0.8685(5) 0.9956(6) 0.1120(4)
C1_2 C 0.8192(8) 0.8555(9) 0.2096(5)
C2_2 C 0.7388(7) 0.9551(8) 0.2041(5)
C3_2 C 0.6683(7) 0.9434(9) 0.2446(5)
H6_2 H 0.6695 0.8743 0.2739
loop_
_geom_bond_atom_site_label_1
_geom_bond_atom_site_label_2
_geom_bond_site_symmetry_1
_geom_bond_site_symmetry_2
O19 C44 1_555 1_555
O20 C44 1_555 1_555
N7 C41 1_555 1_555
H37 C41 1_555 1_555
C42 N7 1_555 1_555
H38 C42 1_555 1_555
C44 C43 1_555 1_555
Cu6 O19 1_555 1_555
Cu12 N7 1_555 1_555
O20 Cu6 1_555 1_555
C42 C43 1_555 1_555
H23 C26 1_555 1_555
C27 N5 1_555 1_555
H24 C27 1_555 1_555
Cu6 N5 1_555 1_555
Cu4 O13 1_555 1_555
O13 C31 1_555 1_555
O14 C31 1_555 1_555
O15 Cu6 1_555 1_555
O16 C37 1_555 1_555
O17 Cu4 1_555 1_555
O18 C38 1_555 1_555
O21 Cu6 1_555 1_555
H29 O21 1_555 1_555
H30 O21 1_555 1_555
O22 Cu6 1_555 1_555
H31 O22 1_555 1_555
H32 O22 1_555 1_555
N8 C34 1_555 1_555
C31 C32 1_555 1_555
C32 C33 1_555 1_555
C33 H33 1_555 1_555
C34 C33 1_555 1_555
H34 C34 1_555 1_555
C35 N8 1_555 1_555
H35 C35 1_555 1_555
C36 C32 1_555 1_555
C37 O15 1_555 1_555
C38 O17 1_555 1_555
C39 C38 1_555 1_555
C40 C39 1_555 1_555
H36 C40 1_555 1_555
O27 Cu4 1_555 1_555
N10 Cu4 1_555 1_555
N12 Cu4 1_555 1_555
C26 C27 1_555 1_555
C35 C36 1_555 1_555
C36 C37 1_555 1_555
O11 C20 1_555 1_555
N4 H5 1_555 1_555
H12 C15 1_555 1_555
C16 C15 1_555 1_555
H13 C16 1_555 1_555
C17 C16 1_555 1_555
C20 N4 1_555 1_555
C21 N4 1_555 1_555
H16 C21 1_555 1_555
C22 C21 1_555 1_555
H18 C22 1_555 1_555
H19 C22 1_555 1_555
Cu12 O11 1_555 1_555
C17 C20 1_555 1_555
O13_2 C31_2 1_555 1_555
O14_2 C31_2 1_555 1_555
C31_2 C32_2 1_555 1_555
C32_2 C33_2 1_555 1_555
C33_2 H33_2 1_555 1_555
N5_2 C23 1_555 1_555
N6 H20 1_555 1_555
C23 H21 1_555 1_555
C24 C23 1_555 1_555
H22 C24 1_555 1_555
C29 N6 1_555 1_555
H25 C29 1_555 1_555
H26_2 C29 1_555 1_555
Cu6_2 N5_2 1_555 1_555
O15_2 Cu6_2 1_555 1_555
N12 C34_2 1_555 1_555
H34_2 C34_2 1_555 1_555
C35_2 N12 1_555 1_555
H35_2 C35_2 1_555 1_555
C37_2 O15_2 1_555 1_555
C35_2 C36_2 1_555 1_555
C36_2 C37_2 1_555 1_555
H3 O10 1_555 1_555
H4 O10 1_555 1_555
O27 C20_2 1_555 1_555
C18 C17_2 1_555 1_555
H14 C18 1_555 1_555
H15 C19 1_555 1_555
H19_2 C22_2 1_555 1_555
C17_2 C20_2 1_555 1_555
C18 C19 1_555 1_555
O17_2 Cu12 1_555 1_555
O18_2 C38_2 1_555 1_555
O19_2 C44_2 1_555 1_555
O20_2 C44_2 1_555 1_555
N10 C41_2 1_555 1_555
C38_2 O17_2 1_555 1_555
C39_2 C38_2 1_555 1_555
C40_2 C39_2 1_555 1_555
H36_2 C40_2 1_555 1_555
C41_2 C40_2 1_555 1_555
H37_2 C41_2 1_555 1_555
C42_2 N10 1_555 1_555
H38_2 C42_2 1_555 1_555
C43_2 C39_2 1_555 1_555
C44_2 C43_2 1_555 1_555
C42_2 C43_2 1_555 1_555
H29_2 O21_2 1_555 1_555
O12 C28 1_555 1_555
N6_2 H20_2 1_555 1_555
C23_2 H21_2 1_555 1_555
C24_2 C23_2 1_555 1_555
H22_2 C24_2 1_555 1_555
C25 C24_2 1_555 1_555
C28 N6_2 1_555 1_555
C29_2 N6_2 1_555 1_555
H25_2 C29_2 1_555 1_555
H27_2 C30 1_555 1_555
H28 C30 1_555 1_555
Cu9 O12 1_555 1_555
C25 C28 1_555 1_555
C29_2 C30 1_555 1_555
Cu1 O3 1_555 1_555
Cu2 O1 1_555 1_555
O1 C1 1_555 1_555
O2 C1 1_555 1_555
O3 C7 1_555 1_555
O4 C7 1_555 1_555
O5 Cu2 1_555 1_555
O6 C8 1_555 1_555
O9 Cu1 1_555 1_555
H1 O9 1_555 1_555
H2 O9 1_555 1_555
O10_2 Cu1 1_555 1_555
H3_2 O10_2 1_555 1_555
H4_2 O10_2 1_555 1_555
N2 C4 1_555 1_555
N3 Cu1 1_555 1_555
C1 C2 1_555 1_555
C2 C3 1_555 1_555
C3 H6 1_555 1_555
C4 C3 1_555 1_555
H7 C4 1_555 1_555
C5 N2 1_555 1_555
H8 C5 1_555 1_555
C6 C2 1_555 1_555
C7 C6 1_555 1_555
C8 O5 1_555 1_555
C9 C8 1_555 1_555
C10 C9 1_555 1_555
H9 C10 1_555 1_555
H14_2 C18_2 1_555 1_555
C19_2 N3 1_555 1_555
H15_2 C19_2 1_555 1_555
O23 Cu1 1_555 1_555
O25 Cu1 1_555 1_555
O28 Cu2 1_555 1_555
N9 Cu2 1_555 1_555
N11 Cu2 1_555 1_555
C5 C6 1_555 1_555
C18_2 C19_2 1_555 1_555
O23 C14 1_555 1_555
O25 C14 1_555 1_555
N1 C11 1_555 1_555
H10 C11 1_555 1_555
C12 N1 1_555 1_555
H11 C12 1_555 1_555
C14 C13 1_555 1_555
Cu9 N1 1_555 1_555
C12 C13 1_555 1_555
H1_2 O9_2 1_555 1_555
O5_2 Cu9 1_555 1_555
O6_2 C8_2 1_555 1_555
O23_2 C14_2 1_555 1_555
O25_2 C14_2 1_555 1_555
N9 C11_2 1_555 1_555
C8_2 O5_2 1_555 1_555
C9_2 C8_2 1_555 1_555
C10_2 C9_2 1_555 1_555
H9_2 C10_2 1_555 1_555
C11_2 C10_2 1_555 1_555
H10_2 C11_2 1_555 1_555
C12_2 N9 1_555 1_555
H11_2 C12_2 1_555 1_555
C13_2 C9_2 1_555 1_555
C14_2 C13_2 1_555 1_555
C12_2 C13_2 1_555 1_555
O28 C28_2 1_555 1_555
C26_2 C25_2 1_555 1_555
H23_2 C26_2 1_555 1_555
H24_2 C27_2 1_555 1_555
H28_2 C30_2 1_555 1_555
H31_2 O22_2 1_555 1_555
H32_2 O22_2 1_555 1_555
C25_2 C28_2 1_555 1_555
C26_2 C27_2 1_555 1_555
Cu1_2 O3_2 1_555 1_555
O3_2 C7_2 1_555 1_555
N11 C4_2 1_555 1_555
N3_2 Cu1_2 1_555 1_555
N4_2 H5_2 1_555 1_555
H7_2 C4_2 1_555 1_555
C5_2 N11 1_555 1_555
H8_2 C5_2 1_555 1_555
C7_2 C6_2 1_555 1_555
C15_2 N3_2 1_555 1_555
H12_2 C15_2 1_555 1_555
C16_2 C15_2 1_555 1_555
H13_2 C16_2 1_555 1_555
C21_2 N4_2 1_555 1_555
H16_2 C21_2 1_555 1_555
H17_2 C21_2 1_555 1_555
C5_2 C6_2 1_555 1_555
O1_2 C1_2 1_555 1_555
O2_2 C1_2 1_555 1_555
C1_2 C2_2 1_555 1_555
C2_2 C3_2 1_555 1_555
C3_2 H6_2 1_555 1_555

#END
