
###############################################################################
#
# This file contains modified crystal structure data generated from the
# MOF subset of the Cambridge Structural Database (CSD) v543 
# hosted by the Cambridge Crystallographic Data Centre (CCDC).
#
# This work is licensed under the Creative Commons
# Attribution-NonCommercial-ShareAlike 4.0 International License.
# To view a copy of this license, visit
# http://creativecommons.org/licenses/by-nc-sa/4.0/
# or send a letter to
# Creative Commons, PO Box 1866, Mountain View, CA 94042, USA.
#
# CIF created using the CSD Python API on 29 September 2022
# The structure has been converted into the P1 space group
# The structure has a 3D framework
# The original CSD entry GUKNOS is in the orthorhombic crystal system
# The framework has been calculated to contain at least 10.0% void space
# The void calculation uses a probe of radius 1.32A, grid spacing 0.4
# H atom positions have been added when not included in the experimental data
#
###############################################################################

data_GUKNOS
_chemical_formula_moiety         '(C40 H56 Cl2 Cu3 N16)n'
_symmetry_cell_setting           triclinic
_symmetry_space_group_name_H-M   'P 1'
_symmetry_Int_Tables_number      1
_space_group_name_Hall           'P 1'
loop_
_symmetry_equiv_pos_site_id
_symmetry_equiv_pos_as_xyz
1 x,y,z
_cell_length_a                   17.3421(19)
_cell_length_b                   12.6070(14)
_cell_length_c                   7.0259(8)
_cell_angle_alpha                90
_cell_angle_beta                 90
_cell_angle_gamma                90
_cell_volume                     1536.09
loop_
_atom_site_label
_atom_site_type_symbol
_atom_site_fract_x
_atom_site_fract_y
_atom_site_fract_z
C5 C 0.4923(3) 0.1590(3) 0.0704(8)
H4 H 0.4990 0.2340 0.0532
H5 H 0.5418 0.1253 0.0773
H6 H 0.4644 0.1463 0.1863
Cl1 Cl 0.2500 0.16749(9) 0.26195(16)
Cu1 Cu 0.2500 0.14572(4) 0.59244(7)
N1 N 0.35256(17) 0.1074(2) 0.6963(4)
N2 N 0.38037(19) 0.1567(2) 0.8515(5)
C2 C 0.40381(18) 0.0318(3) 0.6531(5)
C3 C 0.46555(19) 0.0341(3) 0.7818(5)
C4 C 0.4486(2) 0.1154(3) 0.9087(6)
C6 C 0.6095(3) 0.0395(4) 0.4891(7)
H7 H 0.6192 0.1101 0.5342
H8 H 0.5648 0.0396 0.4087
H9 H 0.6533 0.0149 0.4179
Cl2 Cl 0.2500 0.33251(9) 0.76195(16)
Cu3 Cu 0.2500 0.35428(4) 0.09244(7)
N5 N 0.14744(17) 0.1074(2) 0.6963(4)
H14 H 0.35336 0.217755 0.918009
C1 C 0.3905(3) 0.9605(4) 0.4891(7)
H1 H 0.3808 0.8899 0.5342
H2 H 0.4352 0.9604 0.4087
H3 H 0.3467 0.9851 0.4179
N3 N 0.64744(17) 0.8926(2) 0.6963(4)
N4 N 0.61963(19) 0.8433(2) 0.8515(5)
C7 C 0.59619(18) 0.9682(3) 0.6531(5)
C8 C 0.53445(19) 0.9659(3) 0.7818(5)
C9 C 0.5514(2) 0.8846(3) 0.9087(6)
Cu2 Cu 0.7500 0.85428(4) 0.59244(7)
H13 H 0.64664 0.782245 0.918009
Cl1_2 Cl 0.7500 0.83251(9) 0.26195(16)
Cl2_2 Cl 0.7500 0.66749(9) 0.76195(16)
Cu3_2 Cu 0.7500 0.64572(4) 0.09244(7)
N5_2 N 0.85256(17) 0.8926(2) 0.6963(4)
N4_2 N 0.11963(19) 0.1567(2) 0.8515(5)
C7_2 C 0.09619(18) 0.0318(3) 0.6531(5)
C8_2 C 0.03445(19) 0.0341(3) 0.7818(5)
C9_2 C 0.0514(2) 0.1154(3) 0.9087(6)
H13_2 H 0.14664 0.217755 0.918009
N2_2 N 0.88037(19) 0.8433(2) 0.8515(5)
C2_2 C 0.90381(18) 0.9682(3) 0.6531(5)
C3_2 C 0.96555(19) 0.9659(3) 0.7818(5)
C4_2 C 0.9486(2) 0.8846(3) 0.9087(6)
H14_2 H 0.85336 0.782245 0.918009
H5_2 H 0.0418 0.6253 0.5773
N3_2 N 0.14744(17) 0.3926(2) 0.1963(4)
N4_3 N 0.11963(19) 0.3433(2) 0.3515(5)
H7_2 H 0.1192 0.6101 0.0342
C7_3 C 0.09619(18) 0.4682(3) 0.1531(5)
C8_3 C 0.03445(19) 0.4659(3) 0.2818(5)
C9_3 C 0.0514(2) 0.3846(3) 0.4087(6)
C10 C 0.0077(3) 0.3410(3) 0.5704(8)
H10 H 0.0010 0.2660 0.5532
H12 H 0.0356 0.3537 0.6863
H13_3 H 0.14664 0.282245 0.418009
C6_2 C 0.1095(3) 0.5395(4) 0.9891(7)
H8_2 H 0.0648 0.5396 0.9087
H9_2 H 0.1533 0.5149 0.9179
N1_2 N 0.85256(17) 0.6074(2) 0.1963(4)
N2_3 N 0.88037(19) 0.6567(2) 0.3515(5)
H1_2 H 0.8808 0.3899 0.0342
C2_3 C 0.90381(18) 0.5318(3) 0.1531(5)
C3_3 C 0.96555(19) 0.5341(3) 0.2818(5)
C4_3 C 0.9486(2) 0.6154(3) 0.4087(6)
C5_2 C 0.9923(3) 0.6590(3) 0.5704(8)
H4_2 H 0.9990 0.7340 0.5532
H6_2 H 0.9644 0.6463 0.6863
H11 H 0.9582 0.3747 0.5773
N5_3 N 0.64744(17) 0.6074(2) 0.1963(4)
H14_3 H 0.85336 0.717755 0.418009
C1_2 C 0.8905(3) 0.4605(4) 0.9891(7)
H2_2 H 0.9352 0.4604 0.9087
H3_2 H 0.8467 0.4851 0.9179
N5_4 N 0.35256(17) 0.3926(2) 0.1963(4)
N2_4 N 0.38037(19) 0.3433(2) 0.3515(5)
H1_3 H 0.3808 0.6101 0.0342
C2_4 C 0.40381(18) 0.4682(3) 0.1531(5)
C3_4 C 0.46555(19) 0.4659(3) 0.2818(5)
C4_4 C 0.4486(2) 0.3846(3) 0.4087(6)
C5_3 C 0.4923(3) 0.3410(3) 0.5704(8)
H4_3 H 0.4990 0.2660 0.5532
H5_3 H 0.5418 0.3747 0.5773
H6_3 H 0.4644 0.3537 0.6863
N4_4 N 0.61963(19) 0.6567(2) 0.3515(5)
H7_3 H 0.6192 0.3899 0.0342
C7_4 C 0.59619(18) 0.5318(3) 0.1531(5)
C8_4 C 0.53445(19) 0.5341(3) 0.2818(5)
C9_4 C 0.5514(2) 0.6154(3) 0.4087(6)
C10_2 C 0.5077(3) 0.6590(3) 0.5704(8)
H10_2 H 0.5010 0.7340 0.5532
H11_2 H 0.4582 0.6253 0.5773
H12_2 H 0.5356 0.6463 0.6863
H13_4 H 0.64664 0.717755 0.418009
H14_4 H 0.35336 0.282245 0.418009
C1_3 C 0.3905(3) 0.5395(4) 0.9891(7)
H2_3 H 0.4352 0.5396 0.9087
H3_3 H 0.3467 0.5149 0.9179
C6_3 C 0.6095(3) 0.4605(4) 0.9891(7)
H8_3 H 0.5648 0.4604 0.9087
H9_3 H 0.6533 0.4851 0.9179
C10_3 C 0.5077(3) 0.8410(3) 0.0704(8)
H10_3 H 0.5010 0.7660 0.0532
H11_3 H 0.4582 0.8747 0.0773
H12_3 H 0.5356 0.8537 0.1863
C10_4 C 0.0077(3) 0.1590(3) 0.0704(8)
H10_4 H 0.0010 0.2340 0.0532
H12_4 H 0.0356 0.1463 0.1863
H5_4 H 0.0418 0.8747 0.0773
C6_4 C 0.1095(3) 0.9605(4) 0.4891(7)
H7_4 H 0.1192 0.8899 0.5342
H8_4 H 0.0648 0.9604 0.4087
H9_4 H 0.1533 0.9851 0.4179
H11_4 H 0.9582 0.1253 0.0773
C1_4 C 0.8905(3) 0.0395(4) 0.4891(7)
H1_4 H 0.8808 0.1101 0.5342
H2_4 H 0.9352 0.0396 0.4087
H3_4 H 0.8467 0.0149 0.4179
C5_4 C 0.9923(3) 0.8410(3) 0.0704(8)
H4_4 H 0.9990 0.7660 0.0532
H6_4 H 0.9644 0.8537 0.1863
loop_
_geom_bond_atom_site_label_1
_geom_bond_atom_site_label_2
_geom_bond_site_symmetry_1
_geom_bond_site_symmetry_2
H4 C5 1_555 1_555
H5 C5 1_555 1_555
H6 C5 1_555 1_555
Cl1 Cu1 1_555 1_555
Cu1 N1 1_555 1_555
N1 N2 1_555 1_555
N2 C4 1_555 1_555
C2 N1 1_555 1_555
C3 C2 1_555 1_555
C4 C3 1_555 1_555
C6 H7 1_555 1_555
H8 C6 1_555 1_555
H9 C6 1_555 1_555
Cl2 Cu1 1_555 1_555
Cu3 Cl1 1_555 1_555
N5 Cu1 1_555 1_555
N2 H14 1_555 1_555
C1 H1 1_555 1_555
H2 C1 1_555 1_555
H3 C1 1_555 1_555
N3 N4 1_555 1_555
N4 C9 1_555 1_555
C7 N3 1_555 1_555
C9 C8 1_555 1_555
Cu2 N3 1_555 1_555
C7 C8 1_555 1_555
N4 H13 1_555 1_555
Cl1_2 Cu2 1_555 1_555
Cl2_2 Cu2 1_555 1_555
Cu3_2 Cl1_2 1_555 1_555
N5_2 Cu2 1_555 1_555
N5 N4_2 1_555 1_555
N4_2 C9_2 1_555 1_555
C7_2 N5 1_555 1_555
C9_2 C8_2 1_555 1_555
C7_2 C8_2 1_555 1_555
N4_2 H13_2 1_555 1_555
N5_2 N2_2 1_555 1_555
N2_2 C4_2 1_555 1_555
C2_2 N5_2 1_555 1_555
C3_2 C2_2 1_555 1_555
C4_2 C3_2 1_555 1_555
N2_2 H14_2 1_555 1_555
N3_2 N4_3 1_555 1_555
N4_3 C9_3 1_555 1_555
C7_3 N3_2 1_555 1_555
C9_3 C8_3 1_555 1_555
C10 C9_3 1_555 1_555
H10 C10 1_555 1_555
H12 C10 1_555 1_555
Cu3 N3_2 1_555 1_555
C7_3 C8_3 1_555 1_555
N4_3 H13_3 1_555 1_555
H8_2 C6_2 1_555 1_555
H9_2 C6_2 1_555 1_555
Cu3_2 N1_2 1_555 1_555
N1_2 N2_3 1_555 1_555
N2_3 C4_3 1_555 1_555
C2_3 N1_2 1_555 1_555
C3_3 C2_3 1_555 1_555
C4_3 C3_3 1_555 1_555
C5_2 C4_3 1_555 1_555
H4_2 C5_2 1_555 1_555
H6_2 C5_2 1_555 1_555
N5_3 Cu3_2 1_555 1_555
N2_3 H14_3 1_555 1_555
H2_2 C1_2 1_555 1_555
H3_2 C1_2 1_555 1_555
N5_4 Cu3 1_555 1_555
N5_4 N2_4 1_555 1_555
N2_4 C4_4 1_555 1_555
C2_4 N5_4 1_555 1_555
C3_4 C2_4 1_555 1_555
C4_4 C3_4 1_555 1_555
C5_3 C4_4 1_555 1_555
H4_3 C5_3 1_555 1_555
H5_3 C5_3 1_555 1_555
H6_3 C5_3 1_555 1_555
N5_3 N4_4 1_555 1_555
N4_4 C9_4 1_555 1_555
C7_4 N5_3 1_555 1_555
C8_4 C3_4 1_555 1_555
C9_4 C8_4 1_555 1_555
C10_2 C9_4 1_555 1_555
H10_2 C10_2 1_555 1_555
H11_2 C10_2 1_555 1_555
H12_2 C10_2 1_555 1_555
C7_4 C8_4 1_555 1_555
N4_4 H13_4 1_555 1_555
N2_4 H14_4 1_555 1_555
H2_3 C1_3 1_555 1_555
H3_3 C1_3 1_555 1_555
H8_3 C6_3 1_555 1_555
H9_3 C6_3 1_555 1_555
H10_3 C10_3 1_555 1_555
H11_3 C10_3 1_555 1_555
H12_3 C10_3 1_555 1_555
H10_4 C10_4 1_555 1_555
H12_4 C10_4 1_555 1_555
C6_4 H7_4 1_555 1_555
H8_4 C6_4 1_555 1_555
H9_4 C6_4 1_555 1_555
C1_4 H1_4 1_555 1_555
H2_4 C1_4 1_555 1_555
H3_4 C1_4 1_555 1_555
H4_4 C5_4 1_555 1_555
H6_4 C5_4 1_555 1_555

#END
