
###############################################################################
#
# This file contains modified crystal structure data generated from the
# MOF subset of the Cambridge Structural Database (CSD) v543 
# hosted by the Cambridge Crystallographic Data Centre (CCDC).
#
# This work is licensed under the Creative Commons
# Attribution-NonCommercial-ShareAlike 4.0 International License.
# To view a copy of this license, visit
# http://creativecommons.org/licenses/by-nc-sa/4.0/
# or send a letter to
# Creative Commons, PO Box 1866, Mountain View, CA 94042, USA.
#
# CIF created using the CSD Python API on 29 September 2022
# The structure has been converted into the P1 space group
# The structure has a 3D framework
# The original CSD entry GUKNIK is in the triclinic crystal system
# The framework has been calculated to contain at least 10.0% void space
# The void calculation uses a probe of radius 1.32A, grid spacing 0.4
# H atom positions have been added when not included in the experimental data
#
###############################################################################

data_GUKNIK
_chemical_formula_moiety         '(C12 H28 Ce1 N2 O16 P2 S2)n'
_symmetry_cell_setting           triclinic
_symmetry_space_group_name_H-M   'P 1'
_symmetry_Int_Tables_number      1
_space_group_name_Hall           'P 1'
loop_
_symmetry_equiv_pos_site_id
_symmetry_equiv_pos_as_xyz
1 x,y,z
_cell_length_a                   7.3087(7)
_cell_length_b                   14.5640(12)
_cell_length_c                   6.8079(7)
_cell_angle_alpha                91.601(11)
_cell_angle_beta                 93.717(11)
_cell_angle_gamma                78.154(10)
_cell_volume                     707.655
loop_
_atom_site_label
_atom_site_type_symbol
_atom_site_fract_x
_atom_site_fract_y
_atom_site_fract_z
_atom_site_U_iso_or_equiv
_atom_site_thermal_displace_type
O8 O 0.002(6) 0.3518(22) 0.248(7) 0.0250 Uiso
O10 O 0.0647(27) 0.5389(24) 0.1463(30) 0.0250 Uiso
H8 H 0.0941844 0.111294 0.17413 . .
H10 H 0.0430656 0.263721 0.00953806 . .
H19 H 0.12883 0.364493 0.233665 . .
C3 C 0.020(8) 0.0704(24) 0.725(4) 0.0250 Uiso
C6 C 0.021(6) 0.2022(19) 0.924(5) 0.0250 Uiso
Ce3 Ce 0.2422(10) 0.5004(5) 0.8247(10) 0.0030 Uiso
H1 H 0.0194118 0.296664 0.651627 . .
H6 H 0.143764 0.101467 0.734747 . .
H7 H 0.0417028 0.0103785 0.623978 . .
H11 H 0.143566 0.174982 0.841033 . .
Ce7 Ce 0.7578(10) 0.4996(5) 0.1753(10) 0.0030 Uiso
P2 P 0.2064(22) 0.5710(9) 0.2959(24) 0.0250 Uiso
O12 O 0.3972(23) 0.5547(23) 0.210(5) 0.0250 Uiso
O15 O 0.214(5) 0.5216(16) 0.4912(30) 0.0250 Uiso
C7 C 0.131(6) 0.6939(9) 0.335(4) 0.0250 Uiso
N2 N 0.151(4) 0.7737(19) 0.212(4) 0.0250 Uiso
C8 C 0.154(8) 0.8570(18) 0.343(5) 0.0250 Uiso
C10 C 0.022(10) 0.9589(9) 0.0729(28) 0.0250 Uiso
O21 O 0.339(7) 0.3534(26) 0.010(8) 0.0250 Uiso
H12 H 0.173008 0.952334 0.0950872 . .
H13 H 0.198439 0.707406 0.477185 . .
H23 H 0.2806 0.883871 0.326737 . .
H24 H 0.146861 0.839008 0.496117 . .
O14 O 0.6028(23) 0.4453(23) 0.790(5) 0.0250 Uiso
C11 C 0.017(8) 0.8727(8) 0.9417(34) 0.0250 Uiso
O23 O 0.345(5) 0.6680(22) 0.834(8) 0.0250 Uiso
H15 H 0.150804 0.849092 0.875822 . .
H25 H 0.0196873 0.698854 0.845841 . .
H26 H 0.00752537 0.668111 0.615358 . .
C5 C 0.983(8) 0.1273(8) 0.0583(34) 0.0250 Uiso
O16 O 0.786(5) 0.4784(16) 0.5088(30) 0.0250 Uiso
S2 S 0.4830(32) 0.2968(18) 0.144(4) 0.0250 Uiso
O18 O 0.524(6) 0.2111(24) 0.034(6) 0.0250 Uiso
O19 O 0.435(7) 0.2722(31) 0.334(5) 0.0250 Uiso
O22 O 0.655(5) 0.3320(22) 0.166(8) 0.0250 Uiso
H9 H 0.849196 0.150908 0.124178 . .
H20 H 0.992475 0.331889 0.384642 . .
P1 P 0.7936(22) 0.4290(9) 0.7041(24) 0.0250 Uiso
O1 O 0.9353(27) 0.4611(24) 0.8537(30) 0.0250 Uiso
C1 C 0.869(6) 0.3061(9) 0.665(4) 0.0250 Uiso
N1 N 0.849(4) 0.2263(19) 0.788(4) 0.0250 Uiso
C2 C 0.846(8) 0.1430(18) 0.657(5) 0.0250 Uiso
C4 C 0.978(10) 0.0411(9) 0.9271(28) 0.0250 Uiso
S1 S 0.5170(32) 0.7032(18) 0.856(4) 0.0250 Uiso
O4 O 0.476(6) 0.7889(24) 0.966(6) 0.0250 Uiso
O5 O 0.565(7) 0.7278(31) 0.666(5) 0.0250 Uiso
O6 O 0.661(7) 0.6466(26) 0.990(8) 0.0250 Uiso
H2 H 0.801561 0.292594 0.522815 . .
H3 H 0.853139 0.160992 0.503883 . .
H4 H 0.7194 0.116129 0.673263 . .
H5 H 0.826992 0.0476657 0.904913 . .
C9 C 0.980(8) 0.9296(24) 0.275(4) 0.0250 Uiso
C12 C 0.979(6) 0.7978(19) 0.076(5) 0.0250 Uiso
H14 H 0.980588 0.703336 0.348373 . .
H17 H 0.856434 0.825018 0.158967 . .
H21 H 0.958297 0.989622 0.376022 . .
H22 H 0.856236 0.898533 0.265253 . .
O24 O 0.998(6) 0.6482(22) 0.752(7) 0.0250 Uiso
H16 H 0.905816 0.888706 0.82587 . .
H18 H 0.956934 0.736279 0.990462 . .
H25_2 H 0.980313 0.301146 0.154159 . .
H19_2 H 0.87117 0.635507 0.766335 . .
loop_
_geom_bond_atom_site_label_1
_geom_bond_atom_site_label_2
_geom_bond_site_symmetry_1
_geom_bond_site_symmetry_2
O8 H19 1_555 1_555
C3 H6 1_555 1_555
C3 H7 1_555 1_555
C6 H11 1_555 1_555
Ce7 O12 1_555 1_555
Ce3 O15 1_555 1_555
P2 O10 1_555 1_555
O12 P2 1_555 1_555
O15 P2 1_555 1_555
C7 P2 1_555 1_555
N2 C7 1_555 1_555
C8 N2 1_555 1_555
C10 H12 1_555 1_555
C7 H13 1_555 1_555
C8 H23 1_555 1_555
C8 H24 1_555 1_555
O14 Ce3 1_555 1_555
O23 Ce3 1_555 1_555
C11 H15 1_555 1_555
O16 Ce7 1_555 1_555
S2 O18 1_555 1_555
O19 S2 1_555 1_555
O22 Ce7 1_555 1_555
S2 O21 1_555 1_555
S2 O22 1_555 1_555
C5 H9 1_555 1_555
P1 O1 1_555 1_555
O14 P1 1_555 1_555
O16 P1 1_555 1_555
C1 P1 1_555 1_555
N1 C1 1_555 1_555
C2 N1 1_555 1_555
S1 O4 1_555 1_555
O5 S1 1_555 1_555
O23 S1 1_555 1_555
S1 O6 1_555 1_555
C1 H2 1_555 1_555
C2 H3 1_555 1_555
C2 H4 1_555 1_555
C4 H5 1_555 1_555
C12 H17 1_555 1_555
C9 H21 1_555 1_555
C9 H22 1_555 1_555
O24 H19_2 1_555 1_555

#END
