
###############################################################################
#
# This file contains modified crystal structure data generated from the
# MOF subset of the Cambridge Structural Database (CSD) v543 
# hosted by the Cambridge Crystallographic Data Centre (CCDC).
#
# This work is licensed under the Creative Commons
# Attribution-NonCommercial-ShareAlike 4.0 International License.
# To view a copy of this license, visit
# http://creativecommons.org/licenses/by-nc-sa/4.0/
# or send a letter to
# Creative Commons, PO Box 1866, Mountain View, CA 94042, USA.
#
# CIF created using the CSD Python API on 29 September 2022
# The structure has been converted into the P1 space group
# The structure has a 3D framework
# The original CSD entry GUKNIM is in the orthorhombic crystal system
# The framework has been calculated to contain at least 10.0% void space
# The void calculation uses a probe of radius 1.32A, grid spacing 0.4
#
###############################################################################

data_GUKNIM
_chemical_formula_moiety         '(C40 H56 Br2 Cu3 N16)n'
_symmetry_cell_setting           triclinic
_symmetry_space_group_name_H-M   'P 1'
_symmetry_Int_Tables_number      1
_space_group_name_Hall           'P 1'
loop_
_symmetry_equiv_pos_site_id
_symmetry_equiv_pos_as_xyz
1 x,y,z
_cell_length_a                   17.5782(19)
_cell_length_b                   12.4504(13)
_cell_length_c                   7.0530(7)
_cell_angle_alpha                90
_cell_angle_beta                 90
_cell_angle_gamma                90
_cell_volume                     1543.59
loop_
_atom_site_label
_atom_site_type_symbol
_atom_site_fract_x
_atom_site_fract_y
_atom_site_fract_z
Cu1 Cu 0.7500 0.64130(7) 0.04419(12)
C1 C 0.5091(5) 0.6600(4) 0.5140(9)
H1 H 0.4620 0.6217 0.5292
H2 H 0.5390 0.6527 0.6271
H3 H 0.4986 0.7345 0.4915
C2 C 0.5518(3) 0.6147(3) 0.3499(7)
C3 C 0.5965(3) 0.5284(4) 0.1006(6)
N1 N 0.6486(2) 0.6022(3) 0.1438(5)
N2 N 0.6194(3) 0.6531(3) 0.2967(5)
H4 H 0.6422 0.7049 0.3540
C4 C 0.5345(3) 0.5333(3) 0.2243(6)
C6 C 0.4909(5) 0.3400(4) 0.5140(9)
H8 H 0.5380 0.3783 0.5292
H9 H 0.4610 0.3473 0.6271
H10 H 0.5014 0.2655 0.4915
C7 C 0.4482(3) 0.3853(3) 0.3499(7)
C8 C 0.4035(3) 0.4716(4) 0.1006(6)
N3 N 0.3514(2) 0.3978(3) 0.1438(5)
N4 N 0.3806(3) 0.3469(3) 0.2967(5)
H11 H 0.3578 0.2951 0.3540
C9 C 0.4655(3) 0.4667(3) 0.2243(6)
Br2 Br 0.7500 0.84468(5) 0.19220(6)
Cu2 Cu 0.2500 0.35870(7) 0.04419(12)
N5 N 0.8514(2) 0.6022(3) 0.1438(5)
Br1 Br 0.7500 0.65532(5) 0.69220(6)
C5 C 0.6096(4) 0.4541(5) 0.9374(9)
H5 H 0.5671 0.4062 0.9253
H6 H 0.6150 0.4951 0.8230
H7 H 0.6551 0.4132 0.9591
C10 C 0.3904(4) 0.5459(5) 0.9374(9)
H12 H 0.4329 0.5938 0.9253
H13 H 0.3850 0.5049 0.8230
H14 H 0.3449 0.5868 0.9591
Cu3 Cu 0.7500 0.85870(7) 0.54419(12)
Br2_2 Br 0.2500 0.15532(5) 0.19220(6)
N5_2 N 0.1486(2) 0.3978(3) 0.1438(5)
Br1_2 Br 0.2500 0.34468(5) 0.69220(6)
Cu3_2 Cu 0.2500 0.14130(7) 0.54419(12)
C1_2 C 0.0091(5) 0.3400(4) 0.5140(9)
H2_2 H 0.0390 0.3473 0.6271
C2_2 C 0.0518(3) 0.3853(3) 0.3499(7)
C3_2 C 0.0965(3) 0.4716(4) 0.1006(6)
N2_2 N 0.1194(3) 0.3469(3) 0.2967(5)
H4_2 H 0.1422 0.2951 0.3540
C4_2 C 0.0345(3) 0.4667(3) 0.2243(6)
H8_2 H 0.0380 0.6217 0.5292
H10_2 H 0.0014 0.7345 0.4915
C5_2 C 0.1096(4) 0.5459(5) 0.9374(9)
H5_2 H 0.0671 0.5938 0.9253
H6_2 H 0.1150 0.5049 0.8230
H7_2 H 0.1551 0.5868 0.9591
H1_2 H 0.9620 0.3783 0.5292
H3_2 H 0.9986 0.2655 0.4915
C6_2 C 0.9909(5) 0.6600(4) 0.5140(9)
H9_2 H 0.9610 0.6527 0.6271
C7_2 C 0.9482(3) 0.6147(3) 0.3499(7)
C8_2 C 0.9035(3) 0.5284(4) 0.1006(6)
N4_2 N 0.8806(3) 0.6531(3) 0.2967(5)
H11_2 H 0.8578 0.7049 0.3540
C9_2 C 0.9655(3) 0.5333(3) 0.2243(6)
C10_2 C 0.8904(4) 0.4541(5) 0.9374(9)
H12_2 H 0.9329 0.4062 0.9253
H13_2 H 0.8850 0.4951 0.8230
H14_2 H 0.8449 0.4132 0.9591
C2_3 C 0.0518(3) 0.1147(3) 0.8499(7)
C3_3 C 0.0965(3) 0.0284(4) 0.6006(6)
N1_2 N 0.1486(2) 0.1022(3) 0.6438(5)
N2_3 N 0.1194(3) 0.1531(3) 0.7967(5)
H4_3 H 0.1422 0.2049 0.8540
C4_3 C 0.0345(3) 0.0333(3) 0.7243(6)
N5_3 N 0.3514(2) 0.1022(3) 0.6438(5)
C7_3 C 0.9482(3) 0.8853(3) 0.8499(7)
C8_3 C 0.9035(3) 0.9716(4) 0.6006(6)
N3_2 N 0.8514(2) 0.8978(3) 0.6438(5)
N4_3 N 0.8806(3) 0.8469(3) 0.7967(5)
H11_3 H 0.8578 0.7951 0.8540
C9_3 C 0.9655(3) 0.9667(3) 0.7243(6)
N5_4 N 0.6486(2) 0.8978(3) 0.6438(5)
C5_3 C 0.6096(4) 0.0459(5) 0.4374(9)
H5_3 H 0.5671 0.0938 0.4253
H6_3 H 0.6150 0.0049 0.3230
H7_3 H 0.6551 0.0868 0.4591
H10_3 H 0.5014 0.2345 0.9915
C7_4 C 0.4482(3) 0.1147(3) 0.8499(7)
C8_4 C 0.4035(3) 0.0284(4) 0.6006(6)
N4_4 N 0.3806(3) 0.1531(3) 0.7967(5)
H11_4 H 0.3578 0.2049 0.8540
C9_4 C 0.4655(3) 0.0333(3) 0.7243(6)
H3_3 H 0.4986 0.7655 0.9915
C2_4 C 0.5518(3) 0.8853(3) 0.8499(7)
C3_4 C 0.5965(3) 0.9716(4) 0.6006(6)
N2_4 N 0.6194(3) 0.8469(3) 0.7967(5)
H4_4 H 0.6422 0.7951 0.8540
C4_4 C 0.5345(3) 0.9667(3) 0.7243(6)
C10_3 C 0.3904(4) 0.9541(5) 0.4374(9)
H12_3 H 0.4329 0.9062 0.4253
H13_3 H 0.3850 0.9951 0.3230
H14_3 H 0.3449 0.9132 0.4591
C1_3 C 0.0091(5) 0.1600(4) 0.0140(9)
H2_3 H 0.0390 0.1527 0.1271
H8_3 H 0.0380 0.8783 0.0292
C5_4 C 0.1096(4) 0.9541(5) 0.4374(9)
H5_4 H 0.0671 0.9062 0.4253
H6_4 H 0.1150 0.9951 0.3230
H7_4 H 0.1551 0.9132 0.4591
H10_4 H 0.0014 0.7655 0.9915
H1_3 H 0.9620 0.1217 0.0292
H3_4 H 0.9986 0.2345 0.9915
C10_4 C 0.8904(4) 0.0459(5) 0.4374(9)
H12_4 H 0.9329 0.0938 0.4253
H13_4 H 0.8850 0.0049 0.3230
H14_4 H 0.8449 0.0868 0.4591
C6_3 C 0.9909(5) 0.8400(4) 0.0140(9)
H9_3 H 0.9610 0.8473 0.1271
C6_4 C 0.4909(5) 0.1600(4) 0.0140(9)
H8_4 H 0.5380 0.1217 0.0292
H9_4 H 0.4610 0.1527 0.1271
C1_4 C 0.5091(5) 0.8400(4) 0.0140(9)
H1_4 H 0.4620 0.8783 0.0292
H2_4 H 0.5390 0.8473 0.1271
loop_
_geom_bond_atom_site_label_1
_geom_bond_atom_site_label_2
_geom_bond_site_symmetry_1
_geom_bond_site_symmetry_2
Cu1 N1 1_555 1_555
C1 H1 1_555 1_555
H2 C1 1_555 1_555
H3 C1 1_555 1_555
C2 C1 1_555 1_555
C3 N1 1_555 1_555
N1 N2 1_555 1_555
N2 C2 1_555 1_555
H4 N2 1_555 1_555
C4 C2 1_555 1_555
C6 H8 1_555 1_555
H9 C6 1_555 1_555
H10 C6 1_555 1_555
C7 C6 1_555 1_555
C8 N3 1_555 1_555
N3 N4 1_555 1_555
N4 C7 1_555 1_555
H11 N4 1_555 1_555
C9 C4 1_555 1_555
Br2 Cu1 1_555 1_555
Cu2 N3 1_555 1_555
N5 Cu1 1_555 1_555
C3 C4 1_555 1_555
C7 C9 1_555 1_555
C8 C9 1_555 1_555
H5 C5 1_555 1_555
H6 C5 1_555 1_555
H7 C5 1_555 1_555
H12 C10 1_555 1_555
H13 C10 1_555 1_555
H14 C10 1_555 1_555
Cu3 Br1 1_555 1_555
Br2_2 Cu2 1_555 1_555
N5_2 Cu2 1_555 1_555
Cu3_2 Br1_2 1_555 1_555
H2_2 C1_2 1_555 1_555
C2_2 C1_2 1_555 1_555
C3_2 N5_2 1_555 1_555
N5_2 N2_2 1_555 1_555
N2_2 C2_2 1_555 1_555
H4_2 N2_2 1_555 1_555
C4_2 C2_2 1_555 1_555
C3_2 C4_2 1_555 1_555
H5_2 C5_2 1_555 1_555
H6_2 C5_2 1_555 1_555
H7_2 C5_2 1_555 1_555
H9_2 C6_2 1_555 1_555
C7_2 C6_2 1_555 1_555
C8_2 N5 1_555 1_555
N5 N4_2 1_555 1_555
N4_2 C7_2 1_555 1_555
H11_2 N4_2 1_555 1_555
C7_2 C9_2 1_555 1_555
C8_2 C9_2 1_555 1_555
H12_2 C10_2 1_555 1_555
H13_2 C10_2 1_555 1_555
H14_2 C10_2 1_555 1_555
Br2_2 Cu3_2 1_555 1_555
Cu3_2 N1_2 1_555 1_555
C3_3 N1_2 1_555 1_555
N1_2 N2_3 1_555 1_555
N2_3 C2_3 1_555 1_555
H4_3 N2_3 1_555 1_555
C4_3 C2_3 1_555 1_555
N5_3 Cu3_2 1_555 1_555
C3_3 C4_3 1_555 1_555
C8_3 N3_2 1_555 1_555
N3_2 N4_3 1_555 1_555
N4_3 C7_3 1_555 1_555
H11_3 N4_3 1_555 1_555
Cu3 N3_2 1_555 1_555
C7_3 C9_3 1_555 1_555
C8_3 C9_3 1_555 1_555
Br2 Cu3 1_555 1_555
N5_4 Cu3 1_555 1_555
H5_3 C5_3 1_555 1_555
H6_3 C5_3 1_555 1_555
H7_3 C5_3 1_555 1_555
C8_4 N5_3 1_555 1_555
N5_3 N4_4 1_555 1_555
N4_4 C7_4 1_555 1_555
H11_4 N4_4 1_555 1_555
C7_4 C9_4 1_555 1_555
C8_4 C9_4 1_555 1_555
C3_4 N5_4 1_555 1_555
N5_4 N2_4 1_555 1_555
N2_4 C2_4 1_555 1_555
H4_4 N2_4 1_555 1_555
C4_4 C2_4 1_555 1_555
H12_3 C10_3 1_555 1_555
H13_3 C10_3 1_555 1_555
H14_3 C10_3 1_555 1_555
C3_4 C4_4 1_555 1_555
H2_3 C1_3 1_555 1_555
H5_4 C5_4 1_555 1_555
H6_4 C5_4 1_555 1_555
H7_4 C5_4 1_555 1_555
H12_4 C10_4 1_555 1_555
H13_4 C10_4 1_555 1_555
H14_4 C10_4 1_555 1_555
H9_3 C6_3 1_555 1_555
C6_4 H8_4 1_555 1_555
H9_4 C6_4 1_555 1_555
C1_4 H1_4 1_555 1_555
H2_4 C1_4 1_555 1_555

#END
