
###############################################################################
#
# This file contains modified crystal structure data generated from the
# MOF subset of the Cambridge Structural Database (CSD) v543 
# hosted by the Cambridge Crystallographic Data Centre (CCDC).
#
# This work is licensed under the Creative Commons
# Attribution-NonCommercial-ShareAlike 4.0 International License.
# To view a copy of this license, visit
# http://creativecommons.org/licenses/by-nc-sa/4.0/
# or send a letter to
# Creative Commons, PO Box 1866, Mountain View, CA 94042, USA.
#
# CIF created using the CSD Python API on 29 September 2022
# The structure has been converted into the P1 space group
# The structure has a 3D framework
# The original CSD entry GULGEZ is in the trigonal crystal system
# The framework has been calculated to contain at least 10.0% void space
# The void calculation uses a probe of radius 1.32A, grid spacing 0.4
# H atom positions have been added when not included in the experimental data
#
###############################################################################

data_GULGEZ
_chemical_formula_moiety         '(C48 H60 Cu9 Gd4 N12 O48)n'
_symmetry_cell_setting           triclinic
_symmetry_space_group_name_H-M   'P 1'
_symmetry_Int_Tables_number      1
_space_group_name_Hall           'P 1'
loop_
_symmetry_equiv_pos_site_id
_symmetry_equiv_pos_as_xyz
1 x,y,z
_cell_length_a                   13.433(4)
_cell_length_b                   13.433(4)
_cell_length_c                   14.770(6)
_cell_angle_alpha                90
_cell_angle_beta                 90
_cell_angle_gamma                120
_cell_volume                     2308.11
loop_
_atom_site_label
_atom_site_type_symbol
_atom_site_fract_x
_atom_site_fract_y
_atom_site_fract_z
Cu3 Cu 0.5000 0.0000 0.00000
O13 O 0.6370(7) 0.1849(10) 0.0579(8)
H10 H 0.352215 0.0360404 0.0762645
Cu3_2 Cu 0.5000 0.0000 1.00000
O16 O 0.4735(7) 0.0741(10) 0.8957(6)
N4 N 0.6509(8) 0.0379(11) 0.9433(8)
Cu6 Cu 0.5000 0.0000 0.50000
H15 H 0.683826 0.0360404 0.576264
O3 O 0.3863(8) 0.5641(8) 0.2262(7)
O4 O 0.3994(7) 0.4735(7) 0.1043(6)
N1 N 0.6130(8) 0.6509(8) 0.0567(8)
C3 C 0.555(1) 0.666(1) 0.140(1)
C4 C 0.4489(9) 0.571(9) 0.1562(8)
Cu1 Cu 0.5000 0.5000 0.00000
Gd2 Gd 0.3333 0.6666 0.33132(7)
O6 O 0.5479(7) 0.3630(7) 0.0579(8)
O7 O 0.1778(11) 0.6137(8) 0.2262(7)
C5 C 0.1221(90) 0.5511(9) 0.1562(8)
O8 O 0.0741(10) 0.6006(7) 0.1043(6)
Cu2 Cu 0.0000 0.5000 0.00000
Cu3_3 Cu 0.5000 1.0000 0.00000
O14 O 0.5265(7) 0.9259(10) 0.1043(6)
C8 C 0.429(9) 0.8779(90) 0.1562(8)
O15 O 0.4359(8) 0.8222(11) 0.2262(7)
C9 C 0.334(1) 0.889(1) 0.140(1)
N3 N 0.3491(8) 0.9621(11) 0.0567(8)
N7 N 0.0379(11) 0.3870(8) 0.0567(8)
C20 C 0.111(1) 0.445(1) 0.140(1)
H1 H 0.319354 0.929152 0.198641
H2 H 0.259727 0.80382 0.129763
H4 H 0.683509 0.823564 0.022576
H5 H 0.176436 0.859944 0.022576
H7 H 0.544093 0.740273 0.129763
H8 H 0.609798 0.680646 0.198641
H9 H 0.683826 0.647785 0.0762645
H22 H 0.0708481 0.390202 0.198641
H23 H 0.19618 0.455907 0.129763
H28 H 0.140056 0.316491 0.022576
O1 O 0.5620(7) 0.8028(7) 0.8748(6)
O2 O 0.4521(7) 0.6370(7) 0.9421(8)
C1 C 0.547(1) 0.729(1) 0.9286(9)
C2 C 0.646(1) 0.741(1) 0.988(1)
Gd1 Gd 0.3334 0.6667 0.83132(7)
Cu1_2 Cu 0.5000 0.5000 1.00000
O5 O 0.6006(7) 0.5265(7) 0.8957(6)
N2 N 0.3870(8) 0.3491(8) 0.9433(8)
Cu2_2 Cu -0.0000 0.5000 1.00000
O9 O 0.1849(10) 0.5479(7) 0.9421(8)
C6 C 0.182(1) 0.453(1) 0.9286(9)
O10 O 0.2408(10) 0.4380(7) 0.8748(6)
O11 O 0.1972(7) 0.7592(10) 0.8748(6)
C7 C 0.271(1) 0.818(1) 0.9286(9)
O12 O 0.3630(7) 0.8151(10) 0.9421(8)
Cu3_4 Cu 0.5000 1.0000 1.00000
C10 C 0.259(1) 0.905(1) 0.988(1)
O17 O 0.1778(11) 0.5641(8) 0.7262(7)
C11 C 0.1221(90) 0.571(9) 0.6562(8)
O18 O 0.0741(10) 0.4735(7) 0.6043(6)
Cu4 Cu 0.0000 0.5000 0.50000
O19 O 0.1849(10) 0.6370(7) 0.4421(8)
C12 C 0.182(1) 0.729(1) 0.4286(9)
O20 O 0.2408(10) 0.8028(7) 0.3748(6)
O21 O 0.1972(7) 0.4380(7) 0.3748(6)
C13 C 0.271(1) 0.453(1) 0.4286(9)
O22 O 0.5620(7) 0.7592(10) 0.3748(6)
C14 C 0.547(1) 0.818(1) 0.4286(9)
O23 O 0.3630(7) 0.5479(7) 0.4421(8)
Cu5 Cu 0.5000 0.5000 0.50000
O24 O 0.4521(7) 0.8151(10) 0.4421(8)
Cu6_2 Cu 0.5000 1.0000 0.50000
O25 O 0.3994(7) 0.9259(10) 0.6043(6)
C15 C 0.4489(9) 0.8779(90) 0.6562(8)
O26 O 0.3863(8) 0.8222(11) 0.7262(7)
O27 O 0.4359(8) 0.6137(8) 0.7262(7)
C16 C 0.429(9) 0.5511(9) 0.6562(8)
C17 C 0.555(1) 0.889(1) 0.640(1)
N5 N 0.6130(8) 0.9621(11) 0.5567(8)
C18 C 0.646(1) 0.905(1) 0.488(1)
N6 N 0.0379(11) 0.6509(8) 0.5567(8)
C19 C 0.111(1) 0.666(1) 0.640(1)
C21 C 0.095(1) 0.741(1) 0.488(1)
C22 C 0.095(1) 0.354(1) 0.988(1)
C23 C 0.259(1) 0.354(1) 0.488(1)
O33 O 0.5265(7) 0.6006(7) 0.6043(6)
C24 C 0.334(1) 0.445(1) 0.640(1)
N9 N 0.3491(8) 0.3870(8) 0.5567(8)
H3 H 0.710185 0.739277 0.944015
H6 H 0.260723 0.970908 0.944015
H12 H 0.352215 0.316174 0.576264
H13 H 0.0290924 0.739277 0.444015
H14 H 0.140056 0.823564 0.522576
H16 H 0.259727 0.455907 0.629763
H17 H 0.319354 0.390202 0.698641
H18 H 0.710185 0.970908 0.444015
H19 H 0.683509 0.859944 0.522576
H20 H 0.260723 0.289815 0.444015
H21 H 0.176436 0.316491 0.522576
H24 H 0.544093 0.80382 0.629763
H25 H 0.609798 0.929152 0.698641
H26 H 0.19618 0.740273 0.629763
H27 H 0.0708481 0.680646 0.698641
H29 H 0.0290924 0.289815 0.944015
Cu2_3 Cu 1.0000 0.5000 0.00000
O31 O 0.8151(10) 0.4521(7) 0.0579(8)
H11 H 0.96396 0.316174 0.0762645
Cu2_4 Cu 1.0000 0.5000 1.00000
Cu4_2 Cu 1.0000 0.5000 0.50000
O32 O 0.9259(10) 0.3994(7) 0.8957(6)
N8 N 0.9621(11) 0.6130(8) 0.9433(8)
H30 H 0.96396 0.647785 0.576264
H10_2 H 0.0360404 0.352215 0.423736
H15_2 H 0.0360404 0.683826 0.923736
C12_2 C 0.729(1) 0.182(1) 0.0714(9)
Gd3 Gd 0.6666 0.3333 0.16868(7)
O20_2 O 0.8028(7) 0.2408(10) 0.1252(6)
O21_2 O 0.4380(7) 0.1972(7) 0.1252(6)
C13_2 C 0.453(1) 0.271(1) 0.0714(9)
O22_2 O 0.7592(10) 0.5620(7) 0.1252(6)
C14_2 C 0.818(1) 0.547(1) 0.0714(9)
C18_2 C 0.905(1) 0.646(1) 0.012(1)
O28 O 0.6137(8) 0.1778(11) 0.2738(7)
O29 O 0.8222(11) 0.4359(8) 0.2738(7)
O30 O 0.5641(8) 0.3863(8) 0.2738(7)
C21_2 C 0.741(1) 0.095(1) 0.012(1)
C23_2 C 0.354(1) 0.259(1) 0.012(1)
H13_2 H 0.739277 0.0290924 0.0559847
H18_2 H 0.970908 0.710185 0.0559847
H20_2 H 0.289815 0.260723 0.0559847
O1_2 O 0.8028(7) 0.5620(7) 0.6252(6)
O2_2 O 0.6370(7) 0.4521(7) 0.5579(8)
O4_2 O 0.4735(7) 0.3994(7) 0.3957(6)
N1_2 N 0.6509(8) 0.6130(8) 0.4433(8)
C1_2 C 0.729(1) 0.547(1) 0.5714(9)
C2_2 C 0.741(1) 0.646(1) 0.512(1)
C3_2 C 0.666(1) 0.555(1) 0.360(1)
C4_2 C 0.571(9) 0.4489(9) 0.3438(8)
Gd1_2 Gd 0.6667 0.3334 0.66868(7)
C5_2 C 0.5511(9) 0.1221(90) 0.3438(8)
O8_2 O 0.6006(7) 0.0741(10) 0.3957(6)
O9_2 O 0.5479(7) 0.1849(10) 0.5579(8)
C6_2 C 0.453(1) 0.182(1) 0.5714(9)
O10_2 O 0.4380(7) 0.2408(10) 0.6252(6)
O11_2 O 0.7592(10) 0.1972(7) 0.6252(6)
C7_2 C 0.818(1) 0.271(1) 0.5714(9)
O12_2 O 0.8151(10) 0.3630(7) 0.5579(8)
O14_2 O 0.9259(10) 0.5265(7) 0.3957(6)
C8_2 C 0.8779(90) 0.429(9) 0.3438(8)
C9_2 C 0.889(1) 0.334(1) 0.360(1)
N3_2 N 0.9621(11) 0.3491(8) 0.4433(8)
C10_2 C 0.905(1) 0.259(1) 0.512(1)
O17_2 O 0.5641(8) 0.1778(11) 0.7738(7)
C11_2 C 0.571(9) 0.1221(90) 0.8438(8)
C15_2 C 0.8779(90) 0.4489(9) 0.8438(8)
O26_2 O 0.8222(11) 0.3863(8) 0.7738(7)
O27_2 O 0.6137(8) 0.4359(8) 0.7738(7)
C16_2 C 0.5511(9) 0.429(9) 0.8438(8)
C17_2 C 0.889(1) 0.555(1) 0.860(1)
C19_2 C 0.666(1) 0.111(1) 0.860(1)
N7_2 N 0.3870(8) 0.0379(11) 0.4433(8)
C20_2 C 0.445(1) 0.111(1) 0.360(1)
C22_2 C 0.354(1) 0.095(1) 0.512(1)
C24_2 C 0.445(1) 0.334(1) 0.860(1)
H1_2 H 0.929152 0.319354 0.301359
H2_2 H 0.80382 0.259727 0.370237
H3_2 H 0.739277 0.710185 0.555985
H4_2 H 0.823564 0.683509 0.477424
H5_2 H 0.859944 0.176436 0.477424
H6_2 H 0.970908 0.260723 0.555985
H7_2 H 0.740273 0.544093 0.370237
H8_2 H 0.680646 0.609798 0.301359
H9_2 H 0.647785 0.683826 0.423736
H12_2 H 0.316174 0.352215 0.923736
H14_2 H 0.823564 0.140056 0.977424
H16_2 H 0.455907 0.259727 0.870237
H17_2 H 0.390202 0.319354 0.801359
H19_2 H 0.859944 0.683509 0.977424
H21_2 H 0.316491 0.176436 0.977424
H22_2 H 0.390202 0.0708481 0.301359
H23_2 H 0.455907 0.19618 0.370237
H24_2 H 0.80382 0.544093 0.870237
H25_2 H 0.929152 0.609798 0.801359
H26_2 H 0.740273 0.19618 0.870237
H27_2 H 0.680646 0.0708481 0.801359
H28_2 H 0.316491 0.140056 0.477424
H29_2 H 0.289815 0.0290924 0.555985
H11_2 H 0.316174 0.96396 0.423736
H30_2 H 0.647785 0.96396 0.923736
loop_
_geom_bond_atom_site_label_1
_geom_bond_atom_site_label_2
_geom_bond_site_symmetry_1
_geom_bond_site_symmetry_2
O13 Cu3 1_555 1_555
O16 Cu3_2 1_555 1_555
N4 Cu3_2 1_555 1_555
O3 C4 1_555 1_555
O4 C4 1_555 1_555
C3 N1 1_555 1_555
C4 C3 1_555 1_555
Gd2 O3 1_555 1_555
O6 Cu1 1_555 1_555
O7 Gd2 1_555 1_555
C5 O7 1_555 1_555
O8 C5 1_555 1_555
Cu2 O8 1_555 1_555
O14 Cu3_3 1_555 1_555
C8 O14 1_555 1_555
O15 Gd2 1_555 1_555
C9 C8 1_555 1_555
N3 Cu3_3 1_555 1_555
N7 Cu2 1_555 1_555
C20 C5 1_555 1_555
O4 Cu1 1_555 1_555
N1 Cu1 1_555 1_555
C8 O15 1_555 1_555
C9 N3 1_555 1_555
N7 C20 1_555 1_555
C9 H1 1_555 1_555
C9 H2 1_555 1_555
C3 H7 1_555 1_555
C3 H8 1_555 1_555
N1 H9 1_555 1_555
C20 H22 1_555 1_555
C20 H23 1_555 1_555
O1 C1 1_555 1_555
O2 C1 1_555 1_555
C1 C2 1_555 1_555
Gd1 O1 1_555 1_555
Cu1_2 O2 1_555 1_555
O5 Cu1_2 1_555 1_555
N2 Cu1_2 1_555 1_555
O9 Gd1 1_555 1_555
C6 O9 1_555 1_555
O10 Gd1 1_555 1_555
O11 Gd1 1_555 1_555
C7 O11 1_555 1_555
O12 Gd1 1_555 1_555
Cu3_4 O12 1_555 1_555
C10 C7 1_555 1_555
O17 Gd1 1_555 1_555
C11 O17 1_555 1_555
O18 C11 1_555 1_555
Cu4 O18 1_555 1_555
O19 Cu4 1_555 1_555
C12 O19 1_555 1_555
Gd2 O19 1_555 1_555
O20 C12 1_555 1_555
O21 Gd2 1_555 1_555
C13 O21 1_555 1_555
O22 Gd2 1_555 1_555
C14 O22 1_555 1_555
O23 Gd2 1_555 1_555
Cu5 O23 1_555 1_555
O24 Gd2 1_555 1_555
Cu6_2 O24 1_555 1_555
O25 Cu6_2 1_555 1_555
C15 O25 1_555 1_555
O26 Gd1 1_555 1_555
O27 Gd1 1_555 1_555
C16 O27 1_555 1_555
C17 C15 1_555 1_555
N5 Cu6_2 1_555 1_555
C18 C14 1_555 1_555
N6 Cu4 1_555 1_555
C19 C11 1_555 1_555
C21 C12 1_555 1_555
C22 C6 1_555 1_555
C23 C13 1_555 1_555
O33 Cu5 1_555 1_555
C24 C16 1_555 1_555
N9 Cu5 1_555 1_555
O2 Gd1 1_555 1_555
Cu2_2 O9 1_555 1_555
C6 O10 1_555 1_555
C7 O12 1_555 1_555
Gd2 O20 1_555 1_555
C13 O23 1_555 1_555
C14 O24 1_555 1_555
C15 O26 1_555 1_555
C16 O33 1_555 1_555
C17 N5 1_555 1_555
N5 C18 1_555 1_555
N6 C21 1_555 1_555
N6 C19 1_555 1_555
C23 N9 1_555 1_555
C24 N9 1_555 1_555
C2 H3 1_555 1_555
C10 H6 1_555 1_555
N9 H12 1_555 1_555
C21 H13 1_555 1_555
C21 H14 1_555 1_555
C24 H16 1_555 1_555
C24 H17 1_555 1_555
C18 H18 1_555 1_555
C18 H19 1_555 1_555
C23 H20 1_555 1_555
C23 H21 1_555 1_555
C17 H24 1_555 1_555
C17 H25 1_555 1_555
C19 H26 1_555 1_555
C19 H27 1_555 1_555
C22 H29 1_555 1_555
O31 Cu2_3 1_555 1_555
O32 Cu2_4 1_555 1_555
N8 Cu2_4 1_555 1_555
C12_2 O13 1_555 1_555
Gd3 O13 1_555 1_555
O20_2 C12_2 1_555 1_555
O21_2 Gd3 1_555 1_555
C13_2 O21_2 1_555 1_555
O22_2 Gd3 1_555 1_555
C14_2 O22_2 1_555 1_555
O6 Gd3 1_555 1_555
O31 Gd3 1_555 1_555
C18_2 C14_2 1_555 1_555
O28 Gd3 1_555 1_555
O29 Gd3 1_555 1_555
O30 Gd3 1_555 1_555
C21_2 C12_2 1_555 1_555
C23_2 C13_2 1_555 1_555
Gd3 O20_2 1_555 1_555
C13_2 O6 1_555 1_555
C14_2 O31 1_555 1_555
C21_2 H13_2 1_555 1_555
C18_2 H18_2 1_555 1_555
C23_2 H20_2 1_555 1_555
O1_2 C1_2 1_555 1_555
O2_2 C1_2 1_555 1_555
O30 C4_2 1_555 1_555
O4_2 C4_2 1_555 1_555
N1_2 C2_2 1_555 1_555
C1_2 C2_2 1_555 1_555
C3_2 N1_2 1_555 1_555
C4_2 C3_2 1_555 1_555
Gd1_2 O1_2 1_555 1_555
Cu5 O2_2 1_555 1_555
C5_2 O28 1_555 1_555
O8_2 C5_2 1_555 1_555
Cu6 O8_2 1_555 1_555
O9_2 Gd1_2 1_555 1_555
C6_2 O9_2 1_555 1_555
O10_2 Gd1_2 1_555 1_555
O11_2 Gd1_2 1_555 1_555
C7_2 O11_2 1_555 1_555
O12_2 Gd1_2 1_555 1_555
Cu4_2 O12_2 1_555 1_555
O14_2 Cu4_2 1_555 1_555
C8_2 O14_2 1_555 1_555
C9_2 C8_2 1_555 1_555
N3_2 Cu4_2 1_555 1_555
C10_2 C7_2 1_555 1_555
O17_2 Gd1_2 1_555 1_555
C11_2 O17_2 1_555 1_555
O16 C11_2 1_555 1_555
C15_2 O32 1_555 1_555
O26_2 Gd1_2 1_555 1_555
O27_2 Gd1_2 1_555 1_555
C16_2 O27_2 1_555 1_555
C17_2 C15_2 1_555 1_555
C19_2 C11_2 1_555 1_555
N7_2 Cu6 1_555 1_555
C20_2 C5_2 1_555 1_555
C22_2 C6_2 1_555 1_555
C24_2 C16_2 1_555 1_555
O2_2 Gd1_2 1_555 1_555
O4_2 Cu5 1_555 1_555
N1_2 Cu5 1_555 1_555
Cu6 O9_2 1_555 1_555
C6_2 O10_2 1_555 1_555
C7_2 O12_2 1_555 1_555
C8_2 O29 1_555 1_555
C9_2 N3_2 1_555 1_555
N3_2 C10_2 1_555 1_555
C15_2 O26_2 1_555 1_555
C16_2 O5 1_555 1_555
C17_2 N8 1_555 1_555
N4 C19_2 1_555 1_555
N7_2 C22_2 1_555 1_555
N7_2 C20_2 1_555 1_555
C24_2 N2 1_555 1_555
C9_2 H1_2 1_555 1_555
C9_2 H2_2 1_555 1_555
C2_2 H3_2 1_555 1_555
C2_2 H4_2 1_555 1_555
C10_2 H5_2 1_555 1_555
C10_2 H6_2 1_555 1_555
C3_2 H7_2 1_555 1_555
C3_2 H8_2 1_555 1_555
N1_2 H9_2 1_555 1_555
N2 H12_2 1_555 1_555
C24_2 H16_2 1_555 1_555
C24_2 H17_2 1_555 1_555
C20_2 H22_2 1_555 1_555
C20_2 H23_2 1_555 1_555
C17_2 H24_2 1_555 1_555
C17_2 H25_2 1_555 1_555
C19_2 H26_2 1_555 1_555
C19_2 H27_2 1_555 1_555
C22_2 H28_2 1_555 1_555
C22_2 H29_2 1_555 1_555

#END
