
###############################################################################
#
# This file contains modified crystal structure data generated from the
# MOF subset of the Cambridge Structural Database (CSD) v543 
# hosted by the Cambridge Crystallographic Data Centre (CCDC).
#
# This work is licensed under the Creative Commons
# Attribution-NonCommercial-ShareAlike 4.0 International License.
# To view a copy of this license, visit
# http://creativecommons.org/licenses/by-nc-sa/4.0/
# or send a letter to
# Creative Commons, PO Box 1866, Mountain View, CA 94042, USA.
#
# CIF created using the CSD Python API on 29 September 2022
# The structure has been converted into the P1 space group
# The structure has a 3D framework
# The original CSD entry GULPIN is in the monoclinic crystal system
# The framework has been calculated to contain at least 10.0% void space
# The void calculation uses a probe of radius 1.32A, grid spacing 0.4
#
###############################################################################

data_GULPIN
_chemical_formula_moiety         '(C158 H88 F24 N16 O32 Zn8)n'
_symmetry_cell_setting           triclinic
_symmetry_space_group_name_H-M   'P 1'
_symmetry_Int_Tables_number      1
_space_group_name_Hall           'P 1'
loop_
_symmetry_equiv_pos_site_id
_symmetry_equiv_pos_as_xyz
1 x,y,z
_cell_length_a                   19.520(6)
_cell_length_b                   17.985(6)
_cell_length_c                   12.605(4)
_cell_angle_alpha                90
_cell_angle_beta                 99.035(5)
_cell_angle_gamma                90
_cell_volume                     4370.3
loop_
_atom_site_label
_atom_site_type_symbol
_atom_site_fract_x
_atom_site_fract_y
_atom_site_fract_z
C26 C 0.6466(2) 0.0625(3) 0.0163(3)
C28 C 0.5376(2) 0.0054(2) 0.0209(3)
N4 N 0.67725(19) 0.0268(2) 0.1037(3)
Zn3 Zn 0.22288(2) 0.05015(2) 0.32877(3)
Zn4 Zn 0.77712(2) 0.05015(2) 0.17123(3)
C9 C 0.4317(3) 0.0313(3) 0.8879(4)
H7 H 0.4575 0.0635 0.8520
C10 C 0.3630(2) 0.0200(3) 0.8510(4)
H8 H 0.3428 0.0464 0.7906
H16 H 0.6730 0.0951 0.9821
C27 C 0.5791(2) 0.0534(3) 0.9753(4)
H17 H 0.5602 0.0803 0.9147
O10 O 0.14276(18) 0.01508(19) 0.7614(3)
H5 H 0.3270 0.9049 0.0179
C7 C 0.4209(2) 0.9466(3) 0.0247(4)
H6 H 0.4398 0.9197 0.0853
C12 C 0.1245(2) 0.8577(3) 0.0554(4)
C13 C 0.0837(2) 0.7980(2) 0.0131(3)
C14 C 0.0427(2) 0.7590(2) 0.0730(4)
H10 H 0.0171 0.7187 0.0422
C15 C 0.0389(2) 0.7782(2) 0.1772(3)
C16 C 0.0771(2) 0.8382(3) 0.2204(3)
H11 H 0.0743 0.8533 0.2902
C17 C 0.1204(3) 0.8769(2) 0.1604(4)
C18 C 0.1672(2) 0.9356(2) 0.2166(3)
C19 C 0.0000 0.7308(3) 0.2500
O1 O 0.17141(17) 0.97145(17) 0.0011(3)
O3 O 0.22875(18) 0.93281(17) 0.2156(3)
O4 O 0.14276(18) 0.98492(19) 0.2614(3)
C29 C 0.5683(3) 0.9687(3) 0.1121(4)
H18 H 0.5425 0.9365 0.1480
C30 C 0.6370(2) 0.9800(3) 0.1490(4)
H19 H 0.6572 0.9536 0.2094
C39 C 0.0546(2) 0.6801(3) 0.3130(4)
F4 F 0.09473(13) 0.71894(14) 0.39078(19)
F5 F 0.02772(14) 0.62471(14) 0.3641(2)
F6 F 0.09612(14) 0.65053(14) 0.25212(19)
C1 C 0.2391(2) 0.8980(3) 0.6092(3)
H1 H 0.2380 0.9486 0.5943
C2 C 0.2438(2) 0.8499(3) 0.5268(4)
H2 H 0.2451 0.8686 0.4583
C3 C 0.2467(2) 0.7762(3) 0.5429(4)
C4 C 0.2459(3) 0.7542(3) 0.6463(4)
H3 H 0.2485 0.7038 0.6631
C5 C 0.2414(2) 0.8052(2) 0.7257(3)
H4 H 0.2422 0.7881 0.7955
C6 C 0.3534(2) 0.9375(3) 0.9837(3)
C8 C 0.4624(2) 0.9946(2) 0.9791(3)
C11 C 0.1643(2) 0.9032(3) 0.9858(4)
H9 H 0.0841 0.7841 0.9421
N1 N 0.2360(2) 0.87735(19) 0.7078(3)
N2 N 0.32275(19) 0.9732(2) 0.8963(3)
O2 O 0.18994(17) 0.86867(17) 0.9224(2)
Zn1 Zn 0.22288(2) 0.94985(2) 0.82877(3)
C21 C 0.2609(2) 0.6020(3) 0.3908(3)
H12 H 0.2620 0.5514 0.4057
C22 C 0.2562(2) 0.6501(3) 0.4732(4)
H13 H 0.2549 0.6314 0.5417
C23 C 0.2533(2) 0.7238(3) 0.4571(4)
C24 C 0.2541(3) 0.7458(3) 0.3537(4)
H14 H 0.2515 0.7962 0.3369
C25 C 0.2586(2) 0.6948(2) 0.2743(3)
H15 H 0.2578 0.7119 0.2045
N3 N 0.2640(2) 0.62265(19) 0.2922(3)
N5 N 0.17725(19) 0.5268(2) 0.1037(3)
O7 O 0.31006(17) 0.63133(17) 0.0776(2)
O11 O 0.35724(18) 0.48492(19) 0.2386(3)
Zn2 Zn 0.27712(2) 0.55015(2) 0.17123(3)
C19_2 C 1.0000 0.7308(3) 0.2500
C20 C 0.9454(2) 0.6801(3) 0.1870(4)
F1 F 0.90527(13) 0.71894(14) 0.10922(19)
F2 F 0.97228(14) 0.62471(14) 0.1359(2)
F3 F 0.90388(14) 0.65053(14) 0.24788(19)
C31 C 0.8357(2) 0.9032(3) 0.5142(4)
C32 C 0.8755(2) 0.8577(3) 0.4446(4)
C33 C 0.9163(2) 0.7980(2) 0.4869(3)
H20 H 0.9159 0.7841 0.5579
C34 C 0.9573(2) 0.7590(2) 0.4270(4)
H21 H 0.9829 0.7187 0.4578
C35 C 0.9611(2) 0.7782(2) 0.3228(3)
C36 C 0.9229(2) 0.8382(3) 0.2796(3)
H22 H 0.9257 0.8533 0.2098
C37 C 0.8796(3) 0.8769(2) 0.3396(4)
C38 C 0.8328(2) 0.9356(2) 0.2834(3)
O5 O 0.82859(17) 0.97145(17) 0.4989(3)
O6 O 0.81006(17) 0.86867(17) 0.5776(2)
O8 O 0.77125(18) 0.93281(17) 0.2844(3)
O9 O 0.85724(18) 0.98492(19) 0.2386(3)
Zn5 Zn 0.77712(2) 0.94985(2) 0.67123(3)
C9_2 C 0.5683(3) 0.0313(3) 0.6121(4)
H7_2 H 0.5425 0.0635 0.6480
C10_2 C 0.6370(2) 0.0200(3) 0.6490(4)
H8_2 H 0.6572 0.0464 0.7094
C26_2 C 0.3534(2) 0.0625(3) 0.4837(3)
H16_2 H 0.3270 0.0951 0.5179
C27_2 C 0.4209(2) 0.0534(3) 0.5247(4)
H17_2 H 0.4398 0.0803 0.5853
C28_2 C 0.4624(2) 0.0054(2) 0.4791(3)
N4_2 N 0.32275(19) 0.0268(2) 0.3963(3)
O10_2 O 0.85724(18) 0.01508(19) 0.7386(3)
H2_2 H 0.7549 0.8686 0.0417
C21_2 C 0.7391(2) 0.6020(3) 0.1092(3)
H12_2 H 0.7380 0.5514 0.0943
C22_2 C 0.7438(2) 0.6501(3) 0.0268(4)
C23_2 C 0.7467(2) 0.7238(3) 0.0429(4)
C24_2 C 0.7459(3) 0.7458(3) 0.1463(4)
H14_2 H 0.7485 0.7962 0.1631
C25_2 C 0.7414(2) 0.6948(2) 0.2257(3)
H15_2 H 0.7422 0.7119 0.2955
N3_2 N 0.7360(2) 0.62265(19) 0.2078(3)
N5_2 N 0.82275(19) 0.5268(2) 0.3963(3)
O7_2 O 0.68994(17) 0.63133(17) 0.4224(2)
O11_2 O 0.64276(18) 0.48492(19) 0.2614(3)
Zn2_2 Zn 0.72288(2) 0.55015(2) 0.32877(3)
C1_2 C 0.7609(2) 0.8980(3) 0.8908(3)
H1_2 H 0.7620 0.9486 0.9057
C2_2 C 0.7562(2) 0.8499(3) 0.9732(4)
C3_2 C 0.7533(2) 0.7762(3) 0.9571(4)
C4_2 C 0.7541(3) 0.7542(3) 0.8537(4)
H3_2 H 0.7515 0.7038 0.8369
C5_2 C 0.7586(2) 0.8052(2) 0.7743(3)
H4_2 H 0.7578 0.7881 0.7045
C6_2 C 0.6466(2) 0.9375(3) 0.5163(3)
H5_2 H 0.6730 0.9049 0.4821
C7_2 C 0.5791(2) 0.9466(3) 0.4753(4)
H6_2 H 0.5602 0.9197 0.4147
C8_2 C 0.5376(2) 0.9946(2) 0.5209(3)
N1_2 N 0.7640(2) 0.87735(19) 0.7922(3)
N2_2 N 0.67725(19) 0.9732(2) 0.6037(3)
H13_2 H 0.7451 0.6314 0.9583
C29_2 C 0.4317(3) 0.9687(3) 0.3879(4)
H18_2 H 0.4575 0.9365 0.3520
C30_2 C 0.3630(2) 0.9800(3) 0.3510(4)
H19_2 H 0.3428 0.9536 0.2906
C26_3 C 0.1466(2) 0.5625(3) 0.0163(3)
C28_3 C 0.0376(2) 0.5054(2) 0.0209(3)
C29_3 C 0.0683(3) 0.4687(3) 0.1121(4)
H18_3 H 0.0425 0.4365 0.1480
C30_3 C 0.1370(2) 0.4800(3) 0.1490(4)
H19_3 H 0.1572 0.4536 0.2094
H16_3 H 0.1730 0.5951 0.9821
C27_3 C 0.0791(2) 0.5534(3) 0.9753(4)
H17_3 H 0.0602 0.5803 0.9147
H5_3 H 0.8270 0.4049 0.0179
C7_3 C 0.9209(2) 0.4466(3) 0.0247(4)
H6_3 H 0.9398 0.4197 0.0853
C12_2 C 0.6245(2) 0.3577(3) 0.0554(4)
C13_2 C 0.5837(2) 0.2980(2) 0.0131(3)
C14_2 C 0.5427(2) 0.2590(2) 0.0730(4)
H10_2 H 0.5171 0.2187 0.0422
C15_2 C 0.5389(2) 0.2782(2) 0.1772(3)
C16_2 C 0.5771(2) 0.3382(3) 0.2204(3)
H11_2 H 0.5743 0.3533 0.2902
C17_2 C 0.6204(3) 0.3769(2) 0.1604(4)
C18_2 C 0.6672(2) 0.4356(2) 0.2166(3)
C19_3 C 0.5000 0.2308(3) 0.2500
C20_2 C 0.4454(2) 0.1801(3) 0.1870(4)
F1_2 F 0.40527(13) 0.21894(14) 0.10922(19)
F2_2 F 0.47228(14) 0.12471(14) 0.1359(2)
F3_2 F 0.40388(14) 0.15053(14) 0.24788(19)
O1_2 O 0.67141(17) 0.47145(17) 0.0011(3)
O3_2 O 0.72875(18) 0.43281(17) 0.2156(3)
C31_2 C 0.3357(2) 0.4032(3) 0.5142(4)
C32_2 C 0.3755(2) 0.3577(3) 0.4446(4)
C33_2 C 0.4163(2) 0.2980(2) 0.4869(3)
H20_2 H 0.4159 0.2841 0.5579
C34_2 C 0.4573(2) 0.2590(2) 0.4270(4)
H21_2 H 0.4829 0.2187 0.4578
C35_2 C 0.4611(2) 0.2782(2) 0.3228(3)
C36_2 C 0.4229(2) 0.3382(3) 0.2796(3)
H22_2 H 0.4257 0.3533 0.2098
C37_2 C 0.3796(3) 0.3769(2) 0.3396(4)
C38_2 C 0.3328(2) 0.4356(2) 0.2834(3)
C39_2 C 0.5546(2) 0.1801(3) 0.3130(4)
F4_2 F 0.59473(13) 0.21894(14) 0.39078(19)
F5_2 F 0.52772(14) 0.12471(14) 0.3641(2)
F6_2 F 0.59612(14) 0.15053(14) 0.25212(19)
O5_2 O 0.32859(17) 0.47145(17) 0.4989(3)
O6_2 O 0.31006(17) 0.36867(17) 0.5776(2)
O8_2 O 0.27125(18) 0.43281(17) 0.2844(3)
Zn5_2 Zn 0.27712(2) 0.44985(2) 0.67123(3)
C1_3 C 0.7391(2) 0.3980(3) 0.6092(3)
H1_3 H 0.7380 0.4486 0.5943
C2_3 C 0.7438(2) 0.3499(3) 0.5268(4)
H2_3 H 0.7451 0.3686 0.4583
C3_3 C 0.7467(2) 0.2762(3) 0.5429(4)
C4_3 C 0.7459(3) 0.2542(3) 0.6463(4)
H3_3 H 0.7485 0.2038 0.6631
C5_3 C 0.7414(2) 0.3052(2) 0.7257(3)
H4_3 H 0.7422 0.2881 0.7955
C6_3 C 0.8534(2) 0.4375(3) 0.9837(3)
C8_3 C 0.9624(2) 0.4946(2) 0.9791(3)
C9_3 C 0.9317(3) 0.5313(3) 0.8879(4)
H7_3 H 0.9575 0.5635 0.8520
C10_3 C 0.8630(2) 0.5200(3) 0.8510(4)
H8_3 H 0.8428 0.5464 0.7906
C11_2 C 0.6643(2) 0.4032(3) 0.9858(4)
H9_2 H 0.5841 0.2841 0.9421
N1_3 N 0.7360(2) 0.37735(19) 0.7078(3)
N2_3 N 0.82275(19) 0.4732(2) 0.8963(3)
O2_2 O 0.68994(17) 0.36867(17) 0.9224(2)
Zn1_2 Zn 0.72288(2) 0.44985(2) 0.82877(3)
C21_3 C 0.7609(2) 0.1020(3) 0.3908(3)
H12_3 H 0.7620 0.0514 0.4057
C22_3 C 0.7562(2) 0.1501(3) 0.4732(4)
H13_3 H 0.7549 0.1314 0.5417
C23_3 C 0.7533(2) 0.2238(3) 0.4571(4)
C24_3 C 0.7541(3) 0.2458(3) 0.3537(4)
H14_3 H 0.7515 0.2962 0.3369
C25_3 C 0.7586(2) 0.1948(2) 0.2743(3)
H15_3 H 0.7578 0.2119 0.2045
N3_3 N 0.7640(2) 0.12265(19) 0.2922(3)
O7_3 O 0.81006(17) 0.13133(17) 0.0776(2)
O10_3 O 0.64276(18) 0.51508(19) 0.7614(3)
H2_4 H 0.2549 0.3686 0.0417
C21_4 C 0.2391(2) 0.1020(3) 0.1092(3)
H12_4 H 0.2380 0.0514 0.0943
C22_4 C 0.2438(2) 0.1501(3) 0.0268(4)
C23_4 C 0.2467(2) 0.2238(3) 0.0429(4)
C24_4 C 0.2459(3) 0.2458(3) 0.1463(4)
H14_4 H 0.2485 0.2962 0.1631
C25_4 C 0.2414(2) 0.1948(2) 0.2257(3)
H15_4 H 0.2422 0.2119 0.2955
N3_4 N 0.2360(2) 0.12265(19) 0.2078(3)
O7_4 O 0.18994(17) 0.13133(17) 0.4224(2)
C1_4 C 0.2609(2) 0.3980(3) 0.8908(3)
H1_4 H 0.2620 0.4486 0.9057
C2_4 C 0.2562(2) 0.3499(3) 0.9732(4)
C3_4 C 0.2533(2) 0.2762(3) 0.9571(4)
C4_4 C 0.2541(3) 0.2542(3) 0.8537(4)
H3_4 H 0.2515 0.2038 0.8369
C5_4 C 0.2586(2) 0.3052(2) 0.7743(3)
H4_4 H 0.2578 0.2881 0.7045
C6_4 C 0.1466(2) 0.4375(3) 0.5163(3)
H5_4 H 0.1730 0.4049 0.4821
C7_4 C 0.0791(2) 0.4466(3) 0.4753(4)
H6_4 H 0.0602 0.4197 0.4147
C8_4 C 0.0376(2) 0.4946(2) 0.5209(3)
C9_4 C 0.0683(3) 0.5313(3) 0.6121(4)
H7_4 H 0.0425 0.5635 0.6480
C10_4 C 0.1370(2) 0.5200(3) 0.6490(4)
H8_4 H 0.1572 0.5464 0.7094
N1_4 N 0.2640(2) 0.37735(19) 0.7922(3)
N2_4 N 0.17725(19) 0.4732(2) 0.6037(3)
H13_4 H 0.2451 0.1314 0.9583
O10_4 O 0.35724(18) 0.51508(19) 0.7386(3)
C26_4 C 0.8534(2) 0.5625(3) 0.4837(3)
H16_4 H 0.8270 0.5951 0.5179
C27_4 C 0.9209(2) 0.5534(3) 0.5247(4)
H17_4 H 0.9398 0.5803 0.5853
C28_4 C 0.9624(2) 0.5054(2) 0.4791(3)
C29_4 C 0.9317(3) 0.4687(3) 0.3879(4)
H18_4 H 0.9575 0.4365 0.3520
C30_4 C 0.8630(2) 0.4800(3) 0.3510(4)
H19_4 H 0.8428 0.4536 0.2906
C19_4 C -0.0000 0.2692(3) 0.7500
C20_3 C 0.0546(2) 0.3199(3) 0.8130(4)
F1_3 F 0.09473(13) 0.28106(14) 0.89078(19)
F2_3 F 0.02772(14) 0.37529(14) 0.8641(2)
F3_3 F 0.09612(14) 0.34947(14) 0.75212(19)
C31_3 C 0.1643(2) 0.0968(3) 0.4858(4)
C32_3 C 0.1245(2) 0.1423(3) 0.5554(4)
C33_3 C 0.0837(2) 0.2020(2) 0.5131(3)
H20_3 H 0.0841 0.2159 0.4421
C34_3 C 0.0427(2) 0.2410(2) 0.5730(4)
H21_3 H 0.0171 0.2813 0.5422
C35_3 C 0.0389(2) 0.2218(2) 0.6772(3)
C36_3 C 0.0771(2) 0.1618(3) 0.7204(3)
H22_3 H 0.0743 0.1467 0.7902
C37_3 C 0.1204(3) 0.1231(2) 0.6604(4)
C38_3 C 0.1672(2) 0.0644(2) 0.7166(3)
O5_3 O 0.17141(17) 0.02855(17) 0.5011(3)
O8_3 O 0.22875(18) 0.06719(17) 0.7156(3)
C11_3 C 0.8357(2) 0.0968(3) 0.0142(4)
H9_3 H 0.9159 0.2159 0.0579
C12_3 C 0.8755(2) 0.1423(3) 0.9446(4)
C13_3 C 0.9163(2) 0.2020(2) 0.9869(3)
C14_3 C 0.9573(2) 0.2410(2) 0.9270(4)
H10_3 H 0.9829 0.2813 0.9578
C15_3 C 0.9611(2) 0.2218(2) 0.8228(3)
C16_3 C 0.9229(2) 0.1618(3) 0.7796(3)
H11_3 H 0.9257 0.1467 0.7098
C17_3 C 0.8796(3) 0.1231(2) 0.8396(4)
C18_3 C 0.8328(2) 0.0644(2) 0.7834(3)
C19_5 C 1.0000 0.2692(3) 0.7500
O1_3 O 0.82859(17) 0.02855(17) 0.9989(3)
O3_3 O 0.77125(18) 0.06719(17) 0.7844(3)
C39_3 C 0.9454(2) 0.3199(3) 0.6870(4)
F4_3 F 0.90527(13) 0.28106(14) 0.60922(19)
F5_3 F 0.97228(14) 0.37529(14) 0.6359(2)
F6_3 F 0.90388(14) 0.34947(14) 0.74788(19)
C11_4 C 0.3357(2) 0.5968(3) 0.0142(4)
H9_4 H 0.4159 0.7159 0.0579
C12_4 C 0.3755(2) 0.6423(3) 0.9446(4)
C13_4 C 0.4163(2) 0.7020(2) 0.9869(3)
C14_4 C 0.4573(2) 0.7410(2) 0.9270(4)
H10_4 H 0.4829 0.7813 0.9578
C15_4 C 0.4611(2) 0.7218(2) 0.8228(3)
C16_4 C 0.4229(2) 0.6618(3) 0.7796(3)
H11_4 H 0.4257 0.6467 0.7098
C17_4 C 0.3796(3) 0.6231(2) 0.8396(4)
C18_4 C 0.3328(2) 0.5644(2) 0.7834(3)
C19_6 C 0.5000 0.7692(3) 0.7500
C20_4 C 0.5546(2) 0.8199(3) 0.8130(4)
F1_4 F 0.59473(13) 0.78106(14) 0.89078(19)
F2_4 F 0.52772(14) 0.87529(14) 0.8641(2)
F3_4 F 0.59612(14) 0.84947(14) 0.75212(19)
O1_4 O 0.32859(17) 0.52855(17) 0.9989(3)
O3_4 O 0.27125(18) 0.56719(17) 0.7844(3)
C31_4 C 0.6643(2) 0.5968(3) 0.4858(4)
C32_4 C 0.6245(2) 0.6423(3) 0.5554(4)
C33_4 C 0.5837(2) 0.7020(2) 0.5131(3)
H20_4 H 0.5841 0.7159 0.4421
C34_4 C 0.5427(2) 0.7410(2) 0.5730(4)
H21_4 H 0.5171 0.7813 0.5422
C35_4 C 0.5389(2) 0.7218(2) 0.6772(3)
C36_4 C 0.5771(2) 0.6618(3) 0.7204(3)
H22_4 H 0.5743 0.6467 0.7902
C37_4 C 0.6204(3) 0.6231(2) 0.6604(4)
C38_4 C 0.6672(2) 0.5644(2) 0.7166(3)
C39_4 C 0.4454(2) 0.8199(3) 0.6870(4)
F4_4 F 0.40527(13) 0.78106(14) 0.60922(19)
F5_4 F 0.47228(14) 0.87529(14) 0.6359(2)
F6_4 F 0.40388(14) 0.84947(14) 0.74788(19)
O5_4 O 0.67141(17) 0.52855(17) 0.5011(3)
O8_4 O 0.72875(18) 0.56719(17) 0.7156(3)
loop_
_geom_bond_atom_site_label_1
_geom_bond_atom_site_label_2
_geom_bond_site_symmetry_1
_geom_bond_site_symmetry_2
N4 C26 1_555 1_555
Zn4 N4 1_555 1_555
H7 C9 1_555 1_555
C10 C9 1_555 1_555
H8 C10 1_555 1_555
H17 C27 1_555 1_555
H6 C7 1_555 1_555
C12 C13 1_555 1_555
C14 C13 1_555 1_555
H10 C14 1_555 1_555
C15 C14 1_555 1_555
C16 C15 1_555 1_555
H11 C16 1_555 1_555
C17 C12 1_555 1_555
C18 C17 1_555 1_555
C19 C15 1_555 1_555
O3 C18 1_555 1_555
O4 C18 1_555 1_555
H18 C29 1_555 1_555
C30 C29 1_555 1_555
H19 C30 1_555 1_555
C39 C19 1_555 1_555
F4 C39 1_555 1_555
F5 C39 1_555 1_555
F6 C39 1_555 1_555
C16 C17 1_555 1_555
C1 H1 1_555 1_555
C2 C1 1_555 1_555
H2 C2 1_555 1_555
C3 C2 1_555 1_555
C4 C3 1_555 1_555
H3 C4 1_555 1_555
C5 C4 1_555 1_555
H4 C5 1_555 1_555
N1 C1 1_555 1_555
N2 C6 1_555 1_555
O2 C11 1_555 1_555
Zn1 N1 1_555 1_555
C21 H12 1_555 1_555
C22 C21 1_555 1_555
H13 C22 1_555 1_555
C23 C3 1_555 1_555
C24 C23 1_555 1_555
H14 C24 1_555 1_555
C25 C24 1_555 1_555
H15 C25 1_555 1_555
N3 C21 1_555 1_555
N5 Zn2 1_555 1_555
O7 Zn2 1_555 1_555
O11 Zn2 1_555 1_555
Zn2 N3 1_555 1_555
C5 N1 1_555 1_555
N2 Zn1 1_555 1_555
O2 Zn1 1_555 1_555
C22 C23 1_555 1_555
C25 N3 1_555 1_555
C20 C19_2 1_555 1_555
F1 C20 1_555 1_555
F2 C20 1_555 1_555
F3 C20 1_555 1_555
C31 C32 1_555 1_555
C32 C33 1_555 1_555
C33 H20 1_555 1_555
C34 C33 1_555 1_555
H21 C34 1_555 1_555
C35 C19_2 1_555 1_555
C36 C35 1_555 1_555
H22 C36 1_555 1_555
C37 C32 1_555 1_555
C38 C37 1_555 1_555
O5 C31 1_555 1_555
O6 C31 1_555 1_555
O8 C38 1_555 1_555
O9 C38 1_555 1_555
Zn5 O6 1_555 1_555
C34 C35 1_555 1_555
C36 C37 1_555 1_555
H7_2 C9_2 1_555 1_555
C10_2 C9_2 1_555 1_555
H8_2 C10_2 1_555 1_555
C26_2 H16_2 1_555 1_555
C27_2 C26_2 1_555 1_555
H17_2 C27_2 1_555 1_555
N4_2 C26_2 1_555 1_555
Zn3 N4_2 1_555 1_555
C27_2 C28_2 1_555 1_555
C21_2 H12_2 1_555 1_555
C22_2 C21_2 1_555 1_555
C24_2 C23_2 1_555 1_555
H14_2 C24_2 1_555 1_555
C25_2 C24_2 1_555 1_555
H15_2 C25_2 1_555 1_555
N3_2 C21_2 1_555 1_555
N5_2 Zn2_2 1_555 1_555
O7_2 Zn2_2 1_555 1_555
O11_2 Zn2_2 1_555 1_555
Zn2_2 N3_2 1_555 1_555
C22_2 C23_2 1_555 1_555
C25_2 N3_2 1_555 1_555
C1_2 H1_2 1_555 1_555
C2_2 C1_2 1_555 1_555
C3_2 C2_2 1_555 1_555
C4_2 C3_2 1_555 1_555
H3_2 C4_2 1_555 1_555
C5_2 C4_2 1_555 1_555
H4_2 C5_2 1_555 1_555
C6_2 H5_2 1_555 1_555
C7_2 C6_2 1_555 1_555
H6_2 C7_2 1_555 1_555
C8_2 C7_2 1_555 1_555
N1_2 C1_2 1_555 1_555
N2_2 C6_2 1_555 1_555
Zn5 N1_2 1_555 1_555
H18_2 C29_2 1_555 1_555
C30_2 C29_2 1_555 1_555
H19_2 C30_2 1_555 1_555
C5_2 N1_2 1_555 1_555
N2_2 Zn5 1_555 1_555
C29_3 C28_3 1_555 1_555
H18_3 C29_3 1_555 1_555
C30_3 C29_3 1_555 1_555
H19_3 C30_3 1_555 1_555
N5 C26_3 1_555 1_555
C30_3 N5 1_555 1_555
H17_3 C27_3 1_555 1_555
H6_3 C7_3 1_555 1_555
C12_2 C13_2 1_555 1_555
C14_2 C13_2 1_555 1_555
H10_2 C14_2 1_555 1_555
C15_2 C14_2 1_555 1_555
C16_2 C15_2 1_555 1_555
H11_2 C16_2 1_555 1_555
C17_2 C12_2 1_555 1_555
C18_2 C17_2 1_555 1_555
C19_3 C15_2 1_555 1_555
C20_2 C19_3 1_555 1_555
F1_2 C20_2 1_555 1_555
F2_2 C20_2 1_555 1_555
F3_2 C20_2 1_555 1_555
O3_2 C18_2 1_555 1_555
O11_2 C18_2 1_555 1_555
C31_2 C32_2 1_555 1_555
C32_2 C33_2 1_555 1_555
C33_2 H20_2 1_555 1_555
C34_2 C33_2 1_555 1_555
H21_2 C34_2 1_555 1_555
C35_2 C19_3 1_555 1_555
C36_2 C35_2 1_555 1_555
H22_2 C36_2 1_555 1_555
C37_2 C32_2 1_555 1_555
C38_2 C37_2 1_555 1_555
C39_2 C19_3 1_555 1_555
F4_2 C39_2 1_555 1_555
F5_2 C39_2 1_555 1_555
F6_2 C39_2 1_555 1_555
O5_2 C31_2 1_555 1_555
O6_2 C31_2 1_555 1_555
O8_2 C38_2 1_555 1_555
O11 C38_2 1_555 1_555
Zn5_2 O6_2 1_555 1_555
C16_2 C17_2 1_555 1_555
C34_2 C35_2 1_555 1_555
C36_2 C37_2 1_555 1_555
C1_3 H1_3 1_555 1_555
C2_3 C1_3 1_555 1_555
H2_3 C2_3 1_555 1_555
C3_3 C2_3 1_555 1_555
C4_3 C3_3 1_555 1_555
H3_3 C4_3 1_555 1_555
C5_3 C4_3 1_555 1_555
H4_3 C5_3 1_555 1_555
C9_3 C8_3 1_555 1_555
H7_3 C9_3 1_555 1_555
C10_3 C9_3 1_555 1_555
H8_3 C10_3 1_555 1_555
N1_3 C1_3 1_555 1_555
N2_3 C6_3 1_555 1_555
O2_2 C11_2 1_555 1_555
Zn1_2 N1_3 1_555 1_555
C21_3 H12_3 1_555 1_555
C22_3 C21_3 1_555 1_555
H13_3 C22_3 1_555 1_555
C23_3 C3_3 1_555 1_555
C24_3 C23_3 1_555 1_555
H14_3 C24_3 1_555 1_555
C25_3 C24_3 1_555 1_555
H15_3 C25_3 1_555 1_555
N3_3 C21_3 1_555 1_555
O7_3 Zn4 1_555 1_555
O10_3 Zn1_2 1_555 1_555
Zn4 N3_3 1_555 1_555
C5_3 N1_3 1_555 1_555
C10_3 N2_3 1_555 1_555
N2_3 Zn1_2 1_555 1_555
O2_2 Zn1_2 1_555 1_555
C22_3 C23_3 1_555 1_555
C25_3 N3_3 1_555 1_555
C21_4 H12_4 1_555 1_555
C22_4 C21_4 1_555 1_555
C24_4 C23_4 1_555 1_555
H14_4 C24_4 1_555 1_555
C25_4 C24_4 1_555 1_555
H15_4 C25_4 1_555 1_555
N3_4 C21_4 1_555 1_555
O7_4 Zn3 1_555 1_555
Zn3 N3_4 1_555 1_555
C22_4 C23_4 1_555 1_555
C25_4 N3_4 1_555 1_555
C1_4 H1_4 1_555 1_555
C2_4 C1_4 1_555 1_555
C3_4 C2_4 1_555 1_555
C4_4 C3_4 1_555 1_555
H3_4 C4_4 1_555 1_555
C5_4 C4_4 1_555 1_555
H4_4 C5_4 1_555 1_555
C6_4 H5_4 1_555 1_555
C7_4 C6_4 1_555 1_555
H6_4 C7_4 1_555 1_555
C8_4 C7_4 1_555 1_555
C9_4 C8_4 1_555 1_555
H7_4 C9_4 1_555 1_555
C10_4 C9_4 1_555 1_555
H8_4 C10_4 1_555 1_555
N1_4 C1_4 1_555 1_555
N2_4 C6_4 1_555 1_555
Zn5_2 N1_4 1_555 1_555
O10_4 Zn5_2 1_555 1_555
C5_4 N1_4 1_555 1_555
C10_4 N2_4 1_555 1_555
N2_4 Zn5_2 1_555 1_555
C26_4 H16_4 1_555 1_555
C27_4 C26_4 1_555 1_555
H17_4 C27_4 1_555 1_555
C29_4 C28_4 1_555 1_555
H18_4 C29_4 1_555 1_555
C30_4 C29_4 1_555 1_555
H19_4 C30_4 1_555 1_555
N5_2 C26_4 1_555 1_555
C27_4 C28_4 1_555 1_555
C30_4 N5_2 1_555 1_555
C20_3 C19_4 1_555 1_555
F1_3 C20_3 1_555 1_555
F2_3 C20_3 1_555 1_555
F3_3 C20_3 1_555 1_555
C31_3 C32_3 1_555 1_555
C32_3 C33_3 1_555 1_555
C33_3 H20_3 1_555 1_555
C34_3 C33_3 1_555 1_555
H21_3 C34_3 1_555 1_555
C35_3 C19_4 1_555 1_555
C36_3 C35_3 1_555 1_555
H22_3 C36_3 1_555 1_555
C37_3 C32_3 1_555 1_555
C38_3 C37_3 1_555 1_555
O5_3 C31_3 1_555 1_555
O7_4 C31_3 1_555 1_555
O8_3 C38_3 1_555 1_555
O10 C38_3 1_555 1_555
C34_3 C35_3 1_555 1_555
C36_3 C37_3 1_555 1_555
O7_3 C11_3 1_555 1_555
C12_3 C13_3 1_555 1_555
C14_3 C13_3 1_555 1_555
H10_3 C14_3 1_555 1_555
C15_3 C14_3 1_555 1_555
C16_3 C15_3 1_555 1_555
H11_3 C16_3 1_555 1_555
C17_3 C12_3 1_555 1_555
C18_3 C17_3 1_555 1_555
C19_5 C15_3 1_555 1_555
O3_3 C18_3 1_555 1_555
O10_2 C18_3 1_555 1_555
C39_3 C19_5 1_555 1_555
F4_3 C39_3 1_555 1_555
F5_3 C39_3 1_555 1_555
F6_3 C39_3 1_555 1_555
C16_3 C17_3 1_555 1_555
O7 C11_4 1_555 1_555
C12_4 C13_4 1_555 1_555
C14_4 C13_4 1_555 1_555
H10_4 C14_4 1_555 1_555
C15_4 C14_4 1_555 1_555
C16_4 C15_4 1_555 1_555
H11_4 C16_4 1_555 1_555
C17_4 C12_4 1_555 1_555
C18_4 C17_4 1_555 1_555
C19_6 C15_4 1_555 1_555
C20_4 C19_6 1_555 1_555
F1_4 C20_4 1_555 1_555
F2_4 C20_4 1_555 1_555
F3_4 C20_4 1_555 1_555
O3_4 C18_4 1_555 1_555
O10_4 C18_4 1_555 1_555
C31_4 C32_4 1_555 1_555
C32_4 C33_4 1_555 1_555
C33_4 H20_4 1_555 1_555
C34_4 C33_4 1_555 1_555
H21_4 C34_4 1_555 1_555
C35_4 C19_6 1_555 1_555
C36_4 C35_4 1_555 1_555
H22_4 C36_4 1_555 1_555
C37_4 C32_4 1_555 1_555
C38_4 C37_4 1_555 1_555
C39_4 C19_6 1_555 1_555
F4_4 C39_4 1_555 1_555
F5_4 C39_4 1_555 1_555
F6_4 C39_4 1_555 1_555
O5_4 C31_4 1_555 1_555
O7_2 C31_4 1_555 1_555
O8_4 C38_4 1_555 1_555
O10_3 C38_4 1_555 1_555
C16_4 C17_4 1_555 1_555
C34_4 C35_4 1_555 1_555
C36_4 C37_4 1_555 1_555

#END
