
###############################################################################
#
# This file contains modified crystal structure data generated from the
# MOF subset of the Cambridge Structural Database (CSD) v543 
# hosted by the Cambridge Crystallographic Data Centre (CCDC).
#
# This work is licensed under the Creative Commons
# Attribution-NonCommercial-ShareAlike 4.0 International License.
# To view a copy of this license, visit
# http://creativecommons.org/licenses/by-nc-sa/4.0/
# or send a letter to
# Creative Commons, PO Box 1866, Mountain View, CA 94042, USA.
#
# CIF created using the CSD Python API on 29 September 2022
# The structure has been converted into the P1 space group
# The structure has a 3D framework
# The original CSD entry GUMDEZ is in the monoclinic crystal system
# The framework has been calculated to contain at least 10.0% void space
# The void calculation uses a probe of radius 1.32A, grid spacing 0.4
#
###############################################################################

data_GUMDEZ
_chemical_formula_moiety         '(C40 H40 N16 O6 S4 Zn4)n'
_symmetry_cell_setting           triclinic
_symmetry_space_group_name_H-M   'P 1'
_symmetry_Int_Tables_number      1
_space_group_name_Hall           'P 1'
loop_
_symmetry_equiv_pos_site_id
_symmetry_equiv_pos_as_xyz
1 x,y,z
_cell_length_a                   11.27(2)
_cell_length_b                   9.842(20)
_cell_length_c                   13.99(3)
_cell_angle_alpha                90
_cell_angle_beta                 93.25(2)
_cell_angle_gamma                90
_cell_volume                     1549.27
loop_
_atom_site_label
_atom_site_type_symbol
_atom_site_fract_x
_atom_site_fract_y
_atom_site_fract_z
C6 C 0.0428(12) 0.1259(15) 0.0045(10)
C7 C 0.1079(13) 0.0294(16) 0.0593(11)
H4 H 0.1748 0.0509 0.0984
N3 N 0.0645(12) 0.2687(12) 0.9947(10)
C15 C 0.0193(16) 0.6817(18) 0.0608(13)
H13 H 0.0244 0.5905 0.0777
C18 C 0.0629(14) 0.8995(15) 0.0496(10)
N7 N 0.1017(11) 0.7796(12) 0.0928(8)
Zn4 Zn 0.25528(14) 0.74767(15) 0.15945(12)
C1 C 0.5985(16) 0.3028(16) 0.0070(12)
H1 H 0.6291 0.3905 0.0110
C13 C 0.4366(13) 0.0260(15) 0.0852(11)
H12 H 0.3974 0.0430 0.1407
C14 C 0.5043(13) 0.1225(16) 0.0413(12)
N6 N 0.5289(12) 0.2577(13) 0.0683(10)
H20 H 0.2118 0.0029 0.4582
O4 O 0.2385(13) 0.0690(12) 0.2855(8)
Zn5 Zn 0.24472(14) 0.24767(15) 0.34055(12)
Zn1 Zn 0.74472(14) 0.25233(15) 0.84055(12)
S1 S 0.7774(3) 0.0650(4) 0.6737(3)
C2 C 0.5671(13) 0.0979(16) 0.9612(12)
C5 C 0.9807(16) 0.3183(18) 0.9392(13)
H3 H 0.9756 0.4095 0.9223
C8 C 0.9371(14) 0.1005(15) 0.9504(10)
C9 C 0.8963(10) 0.1035(13) 0.6940(9)
H5 H 0.9096 0.1917 0.6674
H6 H 0.9480 0.0387 0.6663
H7 H 0.9126 0.1062 0.7620
C10 C 0.7416(12) 0.0628(11) 0.5737(8)
H8 H 0.7536 0.1511 0.5467
H9 H 0.6590 0.0390 0.5659
N1 N 0.6257(11) 0.2175(12) 0.9363(10)
N2 N 0.8983(11) 0.2204(12) 0.9072(8)
O1 O 0.7002(9) 0.1501(11) 0.7270(7)
O5 O 0.7385(13) 0.4310(12) 0.7855(8)
C12 C 0.4329(13) 0.9021(16) 0.0388(12)
N5 N 0.3743(11) 0.7825(12) 0.0637(10)
N8 N 0.9355(12) 0.7313(12) 0.0053(10)
S2 S 0.2226(3) 0.9350(4) 0.3263(3)
C19 C 0.1037(10) 0.8965(13) 0.3060(9)
H15 H 0.0904 0.8083 0.3326
H16 H 0.0520 0.9613 0.3337
H17 H 0.0874 0.8938 0.2380
C20 C 0.2584(12) 0.9372(11) 0.4263(8)
H18 H 0.2464 0.8489 0.4533
H19 H 0.3410 0.9610 0.4341
O3 O 0.2998(9) 0.8499(11) 0.2730(7)
O6 O 0.2615(13) 0.5690(12) 0.2145(8)
C3 C 0.5634(13) 0.9740(15) 0.9148(11)
H2 H 0.6026 0.9570 0.8593
C4 C 0.4957(13) 0.8775(16) 0.9587(12)
H10 H 0.7882 0.9971 0.5418
N4 N 0.4711(12) 0.7423(13) 0.9317(10)
O2 O 0.7615(13) 0.9310(12) 0.7145(8)
C11 C 0.4015(16) 0.6972(16) 0.9930(12)
H11 H 0.3709 0.6095 0.9890
C16 C 0.9572(12) 0.8741(15) 0.9955(10)
C17 C 0.8921(13) 0.9706(16) 0.9407(11)
H14 H 0.8252 0.9491 0.9016
Zn3 Zn 0.75528(14) 0.75233(15) 0.65945(12)
C4_2 C 0.0043(13) 0.3775(16) 0.5413(12)
N4_2 N 0.0289(12) 0.2423(13) 0.5683(10)
C11_2 C 0.0985(16) 0.1972(16) 0.5070(12)
H11_2 H 0.1291 0.1095 0.5110
C12_2 C 0.0671(13) 0.4021(16) 0.4612(12)
C13_2 C 0.0634(13) 0.5260(15) 0.4148(11)
H12_2 H 0.1026 0.5430 0.3593
N5_2 N 0.1257(11) 0.2825(12) 0.4363(10)
S2_2 S 0.2774(3) 0.4350(4) 0.1737(3)
C19_2 C 0.3963(10) 0.3965(13) 0.1940(9)
H15_2 H 0.4096 0.3083 0.1674
H16_2 H 0.4480 0.4613 0.1663
H17_2 H 0.4126 0.3938 0.2620
C20_2 C 0.2416(12) 0.4372(11) 0.0737(8)
H18_2 H 0.2536 0.3489 0.0467
H19_2 H 0.1590 0.4610 0.0659
H20_2 H 0.2882 0.5029 0.0418
O3_2 O 0.2002(9) 0.3499(11) 0.2270(7)
N9 N 0.3983(11) 0.2796(12) 0.4072(8)
S1_2 S 0.7226(3) 0.5650(4) 0.8263(3)
C1_2 C 0.9015(16) 0.8028(16) 0.4930(12)
H1_2 H 0.8709 0.8905 0.4890
C2_2 C 0.9329(13) 0.5979(16) 0.5388(12)
C3_2 C 0.9366(13) 0.4740(15) 0.5852(11)
H2_2 H 0.8974 0.4570 0.6407
C5_2 C 0.5193(16) 0.8183(18) 0.5608(13)
H3_2 H 0.5244 0.9095 0.5777
C6_2 C 0.4572(12) 0.6259(15) 0.4955(10)
C7_2 C 0.3921(13) 0.5294(16) 0.4407(11)
H4_2 H 0.3252 0.5509 0.4016
C8_2 C 0.5629(14) 0.6005(15) 0.5496(10)
C9_2 C 0.6037(10) 0.6035(13) 0.8060(9)
H5_2 H 0.5904 0.6917 0.8326
H6_2 H 0.5520 0.5387 0.8337
H7_2 H 0.5874 0.6062 0.7380
C10_2 C 0.7584(12) 0.5628(11) 0.9263(8)
H8_2 H 0.7464 0.6511 0.9533
H9_2 H 0.8410 0.5390 0.9341
H10_2 H 0.7118 0.4971 0.9582
N1_2 N 0.8743(11) 0.7175(12) 0.5637(10)
N2_2 N 0.6017(11) 0.7204(12) 0.5928(8)
N3_2 N 0.4355(12) 0.7687(12) 0.5053(10)
O1_2 O 0.7998(9) 0.6501(11) 0.7730(7)
C14_2 C 0.9957(13) 0.6225(16) 0.4587(12)
N6_2 N 0.9711(12) 0.7577(13) 0.4317(10)
C15_2 C 0.4807(16) 0.1817(18) 0.4392(13)
H13_2 H 0.4756 0.0905 0.4223
C16_2 C 0.5428(12) 0.3741(15) 0.5045(10)
C17_2 C 0.6079(13) 0.4706(16) 0.5593(11)
H14_2 H 0.6748 0.4491 0.5984
C18_2 C 0.4371(14) 0.3995(15) 0.4504(10)
N8_2 N 0.5645(12) 0.2313(12) 0.4947(10)
loop_
_geom_bond_atom_site_label_1
_geom_bond_atom_site_label_2
_geom_bond_site_symmetry_1
_geom_bond_site_symmetry_2
C6 C7 1_555 1_555
C7 H4 1_555 1_555
C15 H13 1_555 1_555
N7 C15 1_555 1_555
Zn4 N7 1_555 1_555
C18 N7 1_555 1_555
C1 H1 1_555 1_555
H12 C13 1_555 1_555
N6 C1 1_555 1_555
Zn5 O4 1_555 1_555
C13 C14 1_555 1_555
C14 N6 1_555 1_555
Zn1 N1 1_555 1_555
S1 C9 1_555 1_555
C5 H3 1_555 1_555
C9 H5 1_555 1_555
H6 C9 1_555 1_555
H7 C9 1_555 1_555
C10 S1 1_555 1_555
H8 C10 1_555 1_555
H9 C10 1_555 1_555
N2 Zn1 1_555 1_555
O1 Zn1 1_555 1_555
O5 Zn1 1_555 1_555
S1 O1 1_555 1_555
C2 N1 1_555 1_555
C5 N2 1_555 1_555
C8 N2 1_555 1_555
Zn4 N5 1_555 1_555
S2 C19 1_555 1_555
C19 H15 1_555 1_555
H16 C19 1_555 1_555
H17 C19 1_555 1_555
C20 S2 1_555 1_555
H18 C20 1_555 1_555
H19 C20 1_555 1_555
O3 Zn4 1_555 1_555
O6 Zn4 1_555 1_555
C12 N5 1_555 1_555
S2 O3 1_555 1_555
C3 H2 1_555 1_555
C4 C3 1_555 1_555
N4 C4 1_555 1_555
C11 N4 1_555 1_555
H11 C11 1_555 1_555
C16 C17 1_555 1_555
H14 C17 1_555 1_555
Zn3 O2 1_555 1_555
N4_2 C4_2 1_555 1_555
C11_2 N4_2 1_555 1_555
H11_2 C11_2 1_555 1_555
C12_2 C4_2 1_555 1_555
C13_2 C12_2 1_555 1_555
H12_2 C13_2 1_555 1_555
N5_2 C11_2 1_555 1_555
Zn5 N5_2 1_555 1_555
S2_2 C19_2 1_555 1_555
C19_2 H15_2 1_555 1_555
H16_2 C19_2 1_555 1_555
H17_2 C19_2 1_555 1_555
C20_2 S2_2 1_555 1_555
H18_2 C20_2 1_555 1_555
H19_2 C20_2 1_555 1_555
H20_2 C20_2 1_555 1_555
O3_2 Zn5 1_555 1_555
O6 S2_2 1_555 1_555
N9 Zn5 1_555 1_555
C12_2 N5_2 1_555 1_555
S2_2 O3_2 1_555 1_555
Zn3 N1_2 1_555 1_555
S1_2 C9_2 1_555 1_555
C1_2 H1_2 1_555 1_555
C2_2 C3_2 1_555 1_555
C3_2 H2_2 1_555 1_555
C5_2 H3_2 1_555 1_555
C6_2 C7_2 1_555 1_555
C7_2 H4_2 1_555 1_555
C8_2 C6_2 1_555 1_555
C9_2 H5_2 1_555 1_555
H6_2 C9_2 1_555 1_555
H7_2 C9_2 1_555 1_555
C10_2 S1_2 1_555 1_555
H8_2 C10_2 1_555 1_555
H9_2 C10_2 1_555 1_555
H10_2 C10_2 1_555 1_555
N1_2 C1_2 1_555 1_555
N2_2 Zn3 1_555 1_555
N3_2 C5_2 1_555 1_555
O1_2 Zn3 1_555 1_555
O5 S1_2 1_555 1_555
C14_2 C2_2 1_555 1_555
N6_2 C1_2 1_555 1_555
C15_2 H13_2 1_555 1_555
C16_2 C17_2 1_555 1_555
C17_2 C8_2 1_555 1_555
H14_2 C17_2 1_555 1_555
C18_2 C7_2 1_555 1_555
N9 C15_2 1_555 1_555
N8_2 C15_2 1_555 1_555
S1_2 O1_2 1_555 1_555
C2_2 N1_2 1_555 1_555
C5_2 N2_2 1_555 1_555
C6_2 N3_2 1_555 1_555
C8_2 N2_2 1_555 1_555
C14_2 N6_2 1_555 1_555
C16_2 C18_2 1_555 1_555
C16_2 N8_2 1_555 1_555
C18_2 N9 1_555 1_555

#END
