
###############################################################################
#
# This file contains modified crystal structure data generated from the
# MOF subset of the Cambridge Structural Database (CSD) v543 
# hosted by the Cambridge Crystallographic Data Centre (CCDC).
#
# This work is licensed under the Creative Commons
# Attribution-NonCommercial-ShareAlike 4.0 International License.
# To view a copy of this license, visit
# http://creativecommons.org/licenses/by-nc-sa/4.0/
# or send a letter to
# Creative Commons, PO Box 1866, Mountain View, CA 94042, USA.
#
# CIF created using the CSD Python API on 29 September 2022
# The structure has been converted into the P1 space group
# The structure has a 3D framework
# The original CSD entry GUQQAN is in the monoclinic crystal system
# The framework has been calculated to contain at least 10.0% void space
# The void calculation uses a probe of radius 1.32A, grid spacing 0.4
#
###############################################################################

data_GUQQAN
_chemical_formula_moiety         '(C108 H68 Er4 O38)n'
_symmetry_cell_setting           triclinic
_symmetry_space_group_name_H-M   'P 1'
_symmetry_Int_Tables_number      1
_space_group_name_Hall           'P 1'
loop_
_symmetry_equiv_pos_site_id
_symmetry_equiv_pos_as_xyz
1 x,y,z
_cell_length_a                   16.5529(2)
_cell_length_b                   11.42690(10)
_cell_length_c                   18.3681(3)
_cell_angle_alpha                90
_cell_angle_beta                 111.793(2)
_cell_angle_gamma                90
_cell_volume                     3225.99
loop_
_atom_site_label
_atom_site_type_symbol
_atom_site_fract_x
_atom_site_fract_y
_atom_site_fract_z
Er4 Er 0.01572(2) 0.92595(2) 0.40719(2)
Er6 Er 0.98428(2) 0.07405(2) 0.59281(2)
O1 O 0.08097(18) 0.0591(3) 0.06447(17)
O3 O 0.3966(2) 0.2680(3) 0.34801(18)
O4 O 0.6577(2) 0.4522(3) 0.4850(2)
O5 O 0.93405(19) 0.8112(3) 0.45899(18)
O6 O 0.9176(2) 0.8846(3) 0.5666(2)
O7 O 0.4333(2) 0.6844(3) 0.3023(2)
O8 O 0.07907(18) 0.9475(3) 0.21713(17)
O9 O 0.11276(19) 0.9216(3) 0.34529(17)
C1 C 0.1343(3) 0.1391(4) 0.0631(3)
C2 C 0.2023(3) 0.1799(4) 0.1379(2)
C3 C 0.1955(3) 0.1596(4) 0.2096(3)
H1 H 0.146095 0.122577 0.211033
C4 C 0.2598(3) 0.1928(4) 0.2787(3)
H2 H 0.254474 0.178825 0.326633
C5 C 0.3318(3) 0.2469(4) 0.2751(3)
C6 C 0.4440(3) 0.3719(4) 0.3596(3)
C7 C 0.5270(3) 0.3634(4) 0.4130(2)
H3 H 0.549857 0.292961 0.437267
C8 C 0.5758(3) 0.4661(4) 0.4290(2)
C9 C 0.7183(3) 0.5397(4) 0.4908(3)
C10 C 0.7539(3) 0.5990(5) 0.5618(3)
H4 H 0.736981 0.580863 0.603395
C11 C 0.8150(3) 0.6852(5) 0.5692(3)
H5 H 0.839307 0.726220 0.616094
C12 C 0.8401(3) 0.7106(4) 0.5067(3)
C13 C 0.9025(3) 0.8106(4) 0.5116(3)
C14 C 0.8061(3) 0.6466(4) 0.4380(3)
H6 H 0.824975 0.661682 0.397131
C15 C 0.7448(3) 0.5607(4) 0.4293(3)
H7 H 0.721812 0.518050 0.383048
C16 C 0.5449(3) 0.5739(4) 0.3940(3)
H8 H 0.579795 0.640414 0.406382
C17 C 0.4614(3) 0.5779(4) 0.3409(3)
C18 C 0.3554(3) 0.7308(4) 0.2984(3)
C19 C 0.3121(3) 0.7979(4) 0.2331(3)
H9 H 0.333689 0.804973 0.193158
C20 C 0.2373(3) 0.8538(4) 0.2278(2)
H10 H 0.207180 0.898597 0.183788
C21 C 0.2061(3) 0.8439(4) 0.2880(2)
C22 C 0.1267(2) 0.9078(4) 0.2835(2)
C23 C 0.2513(3) 0.7759(4) 0.3544(2)
H11 H 0.230828 0.770269 0.395025
C24 C 0.3255(3) 0.7180(4) 0.3593(3)
H12 H 0.355139 0.671163 0.402416
C25 C 0.4101(3) 0.4783(5) 0.3232(3)
H13 H 0.353136 0.482075 0.287169
C26 C 0.3396(3) 0.2710(5) 0.2046(3)
H14 H 0.388803 0.308979 0.203482
C27 C 0.2733(3) 0.2381(5) 0.1348(3)
H15 H 0.277241 0.255372 0.086736
O2 O 0.1312(2) 0.1826(3) 0.99893(18)
Er5 Er 0.01572(2) 0.07405(2) 0.90719(2)
H16 H 0.003904 0.722867 0.193157
H17 H 0.000909 0.676109 0.124144
O13 O 0.06595(19) 0.8112(3) 0.04101(18)
Er2 Er 0.98428(2) 0.92595(2) 0.09281(2)
O14 O 0.9176(2) 0.1154(3) 0.0666(2)
O10 O 0.9991(4) 0.7417(3) 0.1464(3)
O12 O 0.8688(2) 0.8174(3) 0.00107(18)
O16 O 0.88724(19) 0.9216(3) 0.15471(17)
O11 O 0.91903(18) 0.9409(3) 0.93553(17)
O14_2 O 0.0824(2) 0.1154(3) 0.4334(2)
O10_2 O 0.0009(4) 0.7417(3) 0.3536(3)
O11_2 O 0.08097(18) 0.9409(3) 0.56447(17)
O12_2 O 0.1312(2) 0.8174(3) 0.49893(18)
O1_2 O 0.91903(18) 0.0591(3) 0.43553(17)
O2_2 O 0.8688(2) 0.1826(3) 0.50107(18)
O3_2 O 0.6034(2) 0.2680(3) 0.15199(18)
O4_2 O 0.3423(2) 0.4522(3) 0.0150(2)
O7_2 O 0.5667(2) 0.6844(3) 0.1977(2)
O8_2 O 0.92093(18) 0.9475(3) 0.28287(17)
C1_2 C 0.8657(3) 0.1391(4) 0.4369(3)
C2_2 C 0.7977(3) 0.1799(4) 0.3621(2)
C3_2 C 0.8045(3) 0.1596(4) 0.2904(3)
H1_2 H 0.853905 0.122577 0.288967
C4_2 C 0.7402(3) 0.1928(4) 0.2213(3)
H2_2 H 0.745526 0.178825 0.173367
C5_2 C 0.6682(3) 0.2469(4) 0.2249(3)
C6_2 C 0.5560(3) 0.3719(4) 0.1404(3)
C7_2 C 0.4730(3) 0.3634(4) 0.0870(2)
H3_2 H 0.450143 0.292961 0.062733
C8_2 C 0.4242(3) 0.4661(4) 0.0710(2)
C9_2 C 0.2817(3) 0.5397(4) 0.0092(3)
C14_2 C 0.1939(3) 0.6466(4) 0.0620(3)
H6_2 H 0.175025 0.661682 0.102869
C15_2 C 0.2552(3) 0.5607(4) 0.0707(3)
H7_2 H 0.278188 0.518050 0.116952
C16_2 C 0.4551(3) 0.5739(4) 0.1060(3)
H8_2 H 0.420205 0.640414 0.093618
C17_2 C 0.5386(3) 0.5779(4) 0.1591(3)
C18_2 C 0.6446(3) 0.7308(4) 0.2016(3)
C19_2 C 0.6879(3) 0.7979(4) 0.2669(3)
H9_2 H 0.666311 0.804973 0.306842
C20_2 C 0.7627(3) 0.8538(4) 0.2722(2)
H10_2 H 0.792820 0.898597 0.316212
C21_2 C 0.7939(3) 0.8439(4) 0.2120(2)
C22_2 C 0.8733(2) 0.9078(4) 0.2165(2)
C23_2 C 0.7487(3) 0.7759(4) 0.1456(2)
H11_2 H 0.769172 0.770269 0.104975
C24_2 C 0.6745(3) 0.7180(4) 0.1407(3)
H12_2 H 0.644861 0.671163 0.097584
C25_2 C 0.5899(3) 0.4783(5) 0.1768(3)
H13_2 H 0.646864 0.482075 0.212831
C26_2 C 0.6604(3) 0.2710(5) 0.2954(3)
H14_2 H 0.611197 0.308979 0.296518
C27_2 C 0.7267(3) 0.2381(5) 0.3652(3)
H15_2 H 0.722759 0.255372 0.413264
O6_2 O 0.0824(2) 0.8846(3) 0.9334(2)
C10_2 C 0.2461(3) 0.5990(5) 0.9382(3)
H4_2 H 0.263019 0.580863 0.896605
C11_2 C 0.1850(3) 0.6852(5) 0.9308(3)
H5_2 H 0.160693 0.726220 0.883906
C12_2 C 0.1599(3) 0.7106(4) 0.9933(3)
C13_2 C 0.0975(3) 0.8106(4) 0.9884(3)
H16_2 H 0.996096 0.722867 0.306843
H17_2 H 0.999091 0.676109 0.375856
O10_3 O 0.0009(4) 0.2583(3) 0.8536(3)
O16_2 O 0.11276(19) 0.0784(3) 0.84529(17)
H16_3 H 0.996096 0.277133 0.806843
H17_3 H 0.999091 0.323891 0.875856
O13_2 O 0.93405(19) 0.1888(3) 0.95899(18)
O15 O 0.92093(18) 0.0525(3) 0.78287(17)
O3_3 O 0.6034(2) 0.7320(3) 0.65199(18)
O4_3 O 0.3423(2) 0.5478(3) 0.5150(2)
O5_2 O 0.06595(19) 0.1888(3) 0.54101(18)
O7_3 O 0.5667(2) 0.3156(3) 0.6977(2)
O9_2 O 0.88724(19) 0.0784(3) 0.65471(17)
C1_3 C 0.8657(3) 0.8609(4) 0.9369(3)
C2_3 C 0.7977(3) 0.8201(4) 0.8621(2)
C3_3 C 0.8045(3) 0.8404(4) 0.7904(3)
H1_3 H 0.853905 0.877423 0.788967
C4_3 C 0.7402(3) 0.8072(4) 0.7213(3)
H2_3 H 0.745526 0.821175 0.673367
C5_3 C 0.6682(3) 0.7531(4) 0.7249(3)
C6_3 C 0.5560(3) 0.6281(4) 0.6404(3)
C7_3 C 0.4730(3) 0.6366(4) 0.5870(2)
H3_3 H 0.450143 0.707039 0.562733
C8_3 C 0.4242(3) 0.5339(4) 0.5710(2)
C9_3 C 0.2817(3) 0.4603(4) 0.5092(3)
C10_3 C 0.2461(3) 0.4010(5) 0.4382(3)
H4_3 H 0.263019 0.419137 0.396605
C11_3 C 0.1850(3) 0.3148(5) 0.4308(3)
H5_3 H 0.160693 0.273780 0.383906
C12_3 C 0.1599(3) 0.2894(4) 0.4933(3)
C13_3 C 0.0975(3) 0.1894(4) 0.4884(3)
C14_3 C 0.1939(3) 0.3534(4) 0.5620(3)
H6_3 H 0.175025 0.338318 0.602869
C15_3 C 0.2552(3) 0.4393(4) 0.5707(3)
H7_3 H 0.278188 0.481950 0.616952
C16_3 C 0.4551(3) 0.4261(4) 0.6060(3)
H8_3 H 0.420205 0.359586 0.593618
C17_3 C 0.5386(3) 0.4221(4) 0.6591(3)
C18_3 C 0.6446(3) 0.2692(4) 0.7016(3)
C19_3 C 0.6879(3) 0.2021(4) 0.7669(3)
H9_3 H 0.666311 0.195027 0.806842
C20_3 C 0.7627(3) 0.1462(4) 0.7722(2)
H10_3 H 0.792820 0.101403 0.816212
C21_3 C 0.7939(3) 0.1561(4) 0.7120(2)
C22_3 C 0.8733(2) 0.0922(4) 0.7165(2)
C23_3 C 0.7487(3) 0.2241(4) 0.6456(2)
H11_3 H 0.769172 0.229731 0.604975
C24_3 C 0.6745(3) 0.2820(4) 0.6407(3)
H12_3 H 0.644861 0.328837 0.597584
C25_3 C 0.5899(3) 0.5217(5) 0.6768(3)
H13_3 H 0.646864 0.517925 0.712831
C26_3 C 0.6604(3) 0.7290(5) 0.7954(3)
H14_3 H 0.611197 0.691021 0.796518
C27_3 C 0.7267(3) 0.7619(5) 0.8652(3)
H15_3 H 0.722759 0.744628 0.913264
H16_4 H 0.003904 0.277133 0.693157
H17_4 H 0.000909 0.323891 0.624144
O15_2 O 0.07907(18) 0.0525(3) 0.71713(17)
C10_4 C 0.7539(3) 0.4010(5) 0.0618(3)
H4_4 H 0.736981 0.419137 0.103395
C11_4 C 0.8150(3) 0.3148(5) 0.0692(3)
H5_4 H 0.839307 0.273780 0.116094
C12_4 C 0.8401(3) 0.2894(4) 0.0067(3)
C13_4 C 0.9025(3) 0.1894(4) 0.0116(3)
O3_4 O 0.3966(2) 0.7320(3) 0.84801(18)
O4_4 O 0.6577(2) 0.5478(3) 0.9850(2)
O7_4 O 0.4333(2) 0.3156(3) 0.8023(2)
C1_4 C 0.1343(3) 0.8609(4) 0.5631(3)
C2_4 C 0.2023(3) 0.8201(4) 0.6379(2)
C3_4 C 0.1955(3) 0.8404(4) 0.7096(3)
H1_4 H 0.146095 0.877423 0.711033
C4_4 C 0.2598(3) 0.8072(4) 0.7787(3)
H2_4 H 0.254474 0.821175 0.826633
C5_4 C 0.3318(3) 0.7531(4) 0.7751(3)
C6_4 C 0.4440(3) 0.6281(4) 0.8596(3)
C7_4 C 0.5270(3) 0.6366(4) 0.9130(2)
H3_4 H 0.549857 0.707039 0.937267
C8_4 C 0.5758(3) 0.5339(4) 0.9290(2)
C9_4 C 0.7183(3) 0.4603(4) 0.9908(3)
C14_4 C 0.8061(3) 0.3534(4) 0.9380(3)
H6_4 H 0.824975 0.338318 0.897131
C15_4 C 0.7448(3) 0.4393(4) 0.9293(3)
H7_4 H 0.721812 0.481950 0.883048
C16_4 C 0.5449(3) 0.4261(4) 0.8940(3)
H8_4 H 0.579795 0.359586 0.906382
C17_4 C 0.4614(3) 0.4221(4) 0.8409(3)
C18_4 C 0.3554(3) 0.2692(4) 0.7984(3)
C19_4 C 0.3121(3) 0.2021(4) 0.7331(3)
H9_4 H 0.333689 0.195027 0.693158
C20_4 C 0.2373(3) 0.1462(4) 0.7278(2)
H10_4 H 0.207180 0.101403 0.683788
C21_4 C 0.2061(3) 0.1561(4) 0.7880(2)
C22_4 C 0.1267(2) 0.0922(4) 0.7835(2)
C23_4 C 0.2513(3) 0.2241(4) 0.8544(2)
H11_4 H 0.230828 0.229731 0.895025
C24_4 C 0.3255(3) 0.2820(4) 0.8593(3)
H12_4 H 0.355139 0.328837 0.902416
C25_4 C 0.4101(3) 0.5217(5) 0.8232(3)
H13_4 H 0.353136 0.517925 0.787169
C26_4 C 0.3396(3) 0.7290(5) 0.7046(3)
H14_4 H 0.388803 0.691021 0.703482
C27_4 C 0.2733(3) 0.7619(5) 0.6348(3)
H15_4 H 0.277241 0.744628 0.586736
O10_4 O 0.9991(4) 0.2583(3) 0.6464(3)
loop_
_geom_bond_atom_site_label_1
_geom_bond_atom_site_label_2
_geom_bond_site_symmetry_1
_geom_bond_site_symmetry_2
O1 C1 1_555 1_555
O3 C5 1_555 1_555
O4 C8 1_555 1_555
O5 C13 1_555 1_555
O6 C13 1_555 1_555
O7 C17 1_555 1_555
O8 C22 1_555 1_555
O9 C22 1_555 1_555
C1 C2 1_555 1_555
C2 C3 1_555 1_555
C3 H1 1_555 1_555
C4 C3 1_555 1_555
H2 C4 1_555 1_555
C5 C4 1_555 1_555
C6 O3 1_555 1_555
C7 C6 1_555 1_555
H3 C7 1_555 1_555
C8 C7 1_555 1_555
C9 O4 1_555 1_555
C10 C9 1_555 1_555
H4 C10 1_555 1_555
C11 C10 1_555 1_555
H5 C11 1_555 1_555
C12 C11 1_555 1_555
C13 C12 1_555 1_555
C14 C12 1_555 1_555
H6 C14 1_555 1_555
C15 C9 1_555 1_555
H7 C15 1_555 1_555
C16 C8 1_555 1_555
H8 C16 1_555 1_555
C17 C16 1_555 1_555
C18 O7 1_555 1_555
C19 C18 1_555 1_555
H9 C19 1_555 1_555
C20 C19 1_555 1_555
H10 C20 1_555 1_555
C21 C20 1_555 1_555
C22 C21 1_555 1_555
C23 C21 1_555 1_555
H11 C23 1_555 1_555
C24 C18 1_555 1_555
H12 C24 1_555 1_555
C25 C6 1_555 1_555
H13 C25 1_555 1_555
C26 C5 1_555 1_555
H14 C26 1_555 1_555
C27 C2 1_555 1_555
H15 C27 1_555 1_555
Er4 O9 1_555 1_555
C14 C15 1_555 1_555
C17 C25 1_555 1_555
C23 C24 1_555 1_555
C26 C27 1_555 1_555
O2 Er5 1_555 1_555
O10 Er2 1_555 1_555
O12 Er2 1_555 1_555
O16 Er2 1_555 1_555
O10_2 Er4 1_555 1_555
O11_2 Er4 1_555 1_555
O12_2 Er4 1_555 1_555
O1_2 C1_2 1_555 1_555
O2_2 C1_2 1_555 1_555
O3_2 C5_2 1_555 1_555
O4_2 C8_2 1_555 1_555
O7_2 C17_2 1_555 1_555
O8_2 C22_2 1_555 1_555
O16 C22_2 1_555 1_555
C1_2 C2_2 1_555 1_555
C2_2 C3_2 1_555 1_555
C3_2 H1_2 1_555 1_555
C4_2 C3_2 1_555 1_555
H2_2 C4_2 1_555 1_555
C5_2 C4_2 1_555 1_555
C6_2 O3_2 1_555 1_555
C7_2 C6_2 1_555 1_555
H3_2 C7_2 1_555 1_555
C8_2 C7_2 1_555 1_555
C9_2 O4_2 1_555 1_555
H6_2 C14_2 1_555 1_555
C15_2 C9_2 1_555 1_555
H7_2 C15_2 1_555 1_555
C16_2 C8_2 1_555 1_555
H8_2 C16_2 1_555 1_555
C17_2 C16_2 1_555 1_555
C18_2 O7_2 1_555 1_555
C19_2 C18_2 1_555 1_555
H9_2 C19_2 1_555 1_555
C20_2 C19_2 1_555 1_555
H10_2 C20_2 1_555 1_555
C21_2 C20_2 1_555 1_555
C22_2 C21_2 1_555 1_555
C23_2 C21_2 1_555 1_555
H11_2 C23_2 1_555 1_555
C24_2 C18_2 1_555 1_555
H12_2 C24_2 1_555 1_555
C25_2 C6_2 1_555 1_555
H13_2 C25_2 1_555 1_555
C26_2 C5_2 1_555 1_555
H14_2 C26_2 1_555 1_555
C27_2 C2_2 1_555 1_555
H15_2 C27_2 1_555 1_555
Er6 O1_2 1_555 1_555
O2_2 Er6 1_555 1_555
C14_2 C15_2 1_555 1_555
C17_2 C25_2 1_555 1_555
C23_2 C24_2 1_555 1_555
C26_2 C27_2 1_555 1_555
O6_2 C13_2 1_555 1_555
H4_2 C10_2 1_555 1_555
C11_2 C10_2 1_555 1_555
H5_2 C11_2 1_555 1_555
C12_2 C11_2 1_555 1_555
C13_2 C12_2 1_555 1_555
O10_3 Er5 1_555 1_555
O16_2 Er5 1_555 1_555
O11 C1_3 1_555 1_555
O3_3 C5_3 1_555 1_555
O4_3 C8_3 1_555 1_555
O5_2 C13_3 1_555 1_555
O14_2 C13_3 1_555 1_555
O7_3 C17_3 1_555 1_555
O15 C22_3 1_555 1_555
O9_2 C22_3 1_555 1_555
C1_3 C2_3 1_555 1_555
C2_3 C3_3 1_555 1_555
C3_3 H1_3 1_555 1_555
C4_3 C3_3 1_555 1_555
H2_3 C4_3 1_555 1_555
C5_3 C4_3 1_555 1_555
C6_3 O3_3 1_555 1_555
C7_3 C6_3 1_555 1_555
H3_3 C7_3 1_555 1_555
C8_3 C7_3 1_555 1_555
C9_3 O4_3 1_555 1_555
C10_3 C9_3 1_555 1_555
H4_3 C10_3 1_555 1_555
C11_3 C10_3 1_555 1_555
H5_3 C11_3 1_555 1_555
C12_3 C11_3 1_555 1_555
C13_3 C12_3 1_555 1_555
C14_3 C12_3 1_555 1_555
H6_3 C14_3 1_555 1_555
C15_3 C9_3 1_555 1_555
H7_3 C15_3 1_555 1_555
C16_3 C8_3 1_555 1_555
H8_3 C16_3 1_555 1_555
C17_3 C16_3 1_555 1_555
C18_3 O7_3 1_555 1_555
C19_3 C18_3 1_555 1_555
H9_3 C19_3 1_555 1_555
C20_3 C19_3 1_555 1_555
H10_3 C20_3 1_555 1_555
C21_3 C20_3 1_555 1_555
C22_3 C21_3 1_555 1_555
C23_3 C21_3 1_555 1_555
H11_3 C23_3 1_555 1_555
C24_3 C18_3 1_555 1_555
H12_3 C24_3 1_555 1_555
C25_3 C6_3 1_555 1_555
H13_3 C25_3 1_555 1_555
C26_3 C5_3 1_555 1_555
H14_3 C26_3 1_555 1_555
C27_3 C2_3 1_555 1_555
H15_3 C27_3 1_555 1_555
Er6 O9_2 1_555 1_555
C14_3 C15_3 1_555 1_555
C17_3 C25_3 1_555 1_555
C23_3 C24_3 1_555 1_555
C26_3 C27_3 1_555 1_555
O14 C13_4 1_555 1_555
H4_4 C10_4 1_555 1_555
C11_4 C10_4 1_555 1_555
H5_4 C11_4 1_555 1_555
C12_4 C11_4 1_555 1_555
C13_4 C12_4 1_555 1_555
O11_2 C1_4 1_555 1_555
O12_2 C1_4 1_555 1_555
O3_4 C5_4 1_555 1_555
O4_4 C8_4 1_555 1_555
O7_4 C17_4 1_555 1_555
O15_2 C22_4 1_555 1_555
O16_2 C22_4 1_555 1_555
C1_4 C2_4 1_555 1_555
C2_4 C3_4 1_555 1_555
C3_4 H1_4 1_555 1_555
C4_4 C3_4 1_555 1_555
H2_4 C4_4 1_555 1_555
C5_4 C4_4 1_555 1_555
C6_4 O3_4 1_555 1_555
C7_4 C6_4 1_555 1_555
H3_4 C7_4 1_555 1_555
C8_4 C7_4 1_555 1_555
C9_4 O4_4 1_555 1_555
H6_4 C14_4 1_555 1_555
C15_4 C9_4 1_555 1_555
H7_4 C15_4 1_555 1_555
C16_4 C8_4 1_555 1_555
H8_4 C16_4 1_555 1_555
C17_4 C16_4 1_555 1_555
C18_4 O7_4 1_555 1_555
C19_4 C18_4 1_555 1_555
H9_4 C19_4 1_555 1_555
C20_4 C19_4 1_555 1_555
H10_4 C20_4 1_555 1_555
C21_4 C20_4 1_555 1_555
C22_4 C21_4 1_555 1_555
C23_4 C21_4 1_555 1_555
H11_4 C23_4 1_555 1_555
C24_4 C18_4 1_555 1_555
H12_4 C24_4 1_555 1_555
C25_4 C6_4 1_555 1_555
H13_4 C25_4 1_555 1_555
C26_4 C5_4 1_555 1_555
H14_4 C26_4 1_555 1_555
C27_4 C2_4 1_555 1_555
H15_4 C27_4 1_555 1_555
C14_4 C15_4 1_555 1_555
C17_4 C25_4 1_555 1_555
C23_4 C24_4 1_555 1_555
C26_4 C27_4 1_555 1_555
O10_4 Er6 1_555 1_555

#END
