
###############################################################################
#
# This file contains modified crystal structure data generated from the
# MOF subset of the Cambridge Structural Database (CSD) v543 
# hosted by the Cambridge Crystallographic Data Centre (CCDC).
#
# This work is licensed under the Creative Commons
# Attribution-NonCommercial-ShareAlike 4.0 International License.
# To view a copy of this license, visit
# http://creativecommons.org/licenses/by-nc-sa/4.0/
# or send a letter to
# Creative Commons, PO Box 1866, Mountain View, CA 94042, USA.
#
# CIF created using the CSD Python API on 29 September 2022
# The structure has been converted into the P1 space group
# The structure has a 3D framework
# The original CSD entry GURBUS is in the monoclinic crystal system
# The framework has been calculated to contain at least 10.0% void space
# The void calculation uses a probe of radius 1.32A, grid spacing 0.4
#
###############################################################################

data_GURBUS
_chemical_formula_moiety         '(C72 H64 Cl4 Gd4 Mn6 N12 O28)n'
_symmetry_cell_setting           triclinic
_symmetry_space_group_name_H-M   'P 1'
_symmetry_Int_Tables_number      1
_space_group_name_Hall           'P 1'
loop_
_symmetry_equiv_pos_site_id
_symmetry_equiv_pos_as_xyz
1 x,y,z
_cell_length_a                   9.394(5)
_cell_length_b                   15.760(9)
_cell_length_c                   18.302(10)
_cell_angle_alpha                90
_cell_angle_beta                 90.616(7)
_cell_angle_gamma                90
_cell_volume                     2709.44
loop_
_atom_site_label
_atom_site_type_symbol
_atom_site_fract_x
_atom_site_fract_y
_atom_site_fract_z
Gd1 Gd 0.19788(3) 0.422663(16) 0.502299(14)
Mn1 Mn 0.0000 0.5000 0.0000
C1 C 0.1232(8) 0.2234(5) 0.0077(6)
H1 H 0.0690 0.1742 0.0114
O1 O 0.1039(6) 0.4553(4) 0.3883(3)
O2 O 0.2670(6) 0.0680(3) 0.0032(3)
O3 O 0.4069(5) 0.4360(4) 0.4319(3)
H2 H 0.4417 0.4896 0.4321
H3 H 0.3911 0.4222 0.3846
O5 O 0.3978(6) 0.4325(4) 0.5908(3)
O6 O 0.2248(6) 0.2882(3) 0.4385(3)
H5 H 0.2667 0.2515 0.4668
H6 H 0.2759 0.2950 0.3998
O7 O 0.2687(7) 0.3141(4) 0.5906(3)
O8 O 0.4749(5) 0.1344(4) 0.0042(4)
N3 N 0.5618(13) 0.2787(6) 0.8212(5)
C4 C 0.3424(7) 0.1328(4) 0.0028(3)
C6 C 0.4342(13) 0.3331(6) 0.6908(6)
C7 C 0.5215(14) 0.3842(8) 0.7298(6)
H8 H 0.5393 0.4391 0.7138
C9 C 0.0008(7) 0.4909(5) 0.3593(3)
C10 C 0.3640(9) 0.3615(5) 0.6206(4)
C11 C 0.0592(8) 0.3015(5) 0.0099(6)
C12 C 0.1189(8) 0.4769(6) 0.2376(4)
H10 H 0.2049 0.4677 0.2620
C13 C 0.1128(8) 0.4780(6) 0.1621(4)
H11 H 0.1965 0.4696 0.1365
C16 C 0.3995(15) 0.2565(7) 0.7219(6)
H14 H 0.3368 0.2204 0.6976
C17 C 0.5856(15) 0.3544(8) 0.7949(7)
H15 H 0.6476 0.3902 0.8202
C18 C 0.4576(15) 0.2319(8) 0.7903(7)
H16 H 0.4241 0.1836 0.8138
Cl2 Cl 0.2362(2) 0.58163(11) 0.01018(12)
Gd8 Gd 0.69788(3) 0.077337(16) 0.002299(14)
O17 O 0.2330(6) 0.5680(3) 0.4968(3)
O20 O 0.1012(6) 0.4736(4) 0.6100(3)
Mn1_2 Mn -0.0000 0.5000 1.0000
C2 C 0.3411(8) 0.2913(4) 0.9890(5)
H4 H 0.4390 0.2908 0.9821
N1 N 0.1277(6) 0.3742(3) 0.9980(3)
C3 C 0.2666(8) 0.3678(4) 0.9882(5)
H7 H 0.3178 0.4174 0.9804
C5 C 0.2708(6) 0.2184(4) 0.9997(3)
N5 N 0.0081(7) 0.5094(4) 0.8759(3)
C26 C 0.0044(7) 0.5104(5) 0.7238(3)
H25 H 0.0374 0.6960 0.9798
C32 C 0.1295(8) 0.4991(6) 0.7617(4)
H28 H 0.2144 0.4905 0.7370
C33 C 0.1274(9) 0.5008(6) 0.8381(4)
H29 H 0.2132 0.4957 0.8635
O21 O 0.0251(5) 0.6344(4) 0.4958(4)
Gd5 Gd 0.30212(3) 0.922663(16) 0.997701(14)
Mn1_3 Mn 1.0000 0.5000 0.0000
O4 O 0.8988(6) 0.5264(4) 0.3900(3)
N2 N 0.9919(7) 0.4906(4) 0.1241(3)
C8 C 0.9956(7) 0.4896(5) 0.2762(3)
H9 H 0.9626 0.3040 0.0202
C14 C 0.8705(8) 0.5009(6) 0.2383(4)
H12 H 0.7856 0.5095 0.2630
C15 C 0.8726(9) 0.4992(6) 0.1619(4)
H13 H 0.7868 0.5043 0.1365
C20 C 0.6589(8) 0.7087(4) 0.0110(5)
H20 H 0.5610 0.7092 0.0179
N4 N 0.8723(6) 0.6258(3) 0.0020(3)
C21 C 0.7334(8) 0.6322(4) 0.0118(5)
H23 H 0.6822 0.5826 0.0196
C23 C 0.7292(6) 0.7816(4) 0.0003(3)
Gd6 Gd 0.80212(3) 0.577337(16) 0.497701(14)
O22 O 0.9749(5) 0.3656(4) 0.5042(4)
Mn1_4 Mn 1.0000 0.5000 1.0000
Cl1 Cl 0.7638(2) 0.41837(11) 0.98982(12)
C19 C 0.8768(8) 0.7766(5) 0.9923(6)
H17 H 0.9310 0.8258 0.9886
O9 O 0.8961(6) 0.5447(4) 0.6117(3)
O10 O 0.7330(6) 0.9320(3) 0.9968(3)
O11 O 0.5931(5) 0.5640(4) 0.5681(3)
H18 H 0.5583 0.5104 0.5679
H19 H 0.6089 0.5778 0.6154
O13 O 0.6022(6) 0.5675(4) 0.4092(3)
O14 O 0.7752(6) 0.7118(3) 0.5615(3)
H21 H 0.7333 0.7485 0.5332
H22 H 0.7241 0.7050 0.6002
O15 O 0.7313(7) 0.6859(4) 0.4094(3)
O16 O 0.5251(5) 0.8656(4) 0.9958(4)
N6 N 0.4382(13) 0.7213(6) 0.1788(5)
C22 C 0.6576(7) 0.8672(4) 0.9972(3)
C24 C 0.5658(13) 0.6669(6) 0.3092(6)
C25 C 0.4785(14) 0.6158(8) 0.2702(6)
H24 H 0.4607 0.5609 0.2862
C27 C 0.9992(7) 0.5091(5) 0.6407(3)
C28 C 0.6360(9) 0.6385(5) 0.3794(4)
C29 C 0.9408(8) 0.6985(5) 0.9901(6)
C30 C 0.8811(8) 0.5231(6) 0.7624(4)
H26 H 0.7951 0.5323 0.7380
C31 C 0.8872(8) 0.5220(6) 0.8379(4)
H27 H 0.8035 0.5304 0.8635
C34 C 0.6005(15) 0.7435(7) 0.2781(6)
H30 H 0.6632 0.7796 0.3024
C35 C 0.4144(15) 0.6456(8) 0.2051(7)
H31 H 0.3524 0.6098 0.1798
C36 C 0.5424(15) 0.7681(8) 0.2097(7)
H32 H 0.5759 0.8164 0.1862
O18 O 0.7670(6) 0.4320(3) 0.5032(3)
O13_2 O 0.8978(6) 0.0675(4) 0.0908(3)
O15_2 O 0.7687(7) 0.1859(4) 0.0906(3)
C24_2 C 0.9342(13) 0.1669(6) 0.1908(6)
C28_2 C 0.8640(9) 0.1385(5) 0.1206(4)
C34_2 C 0.8995(15) 0.2435(7) 0.2219(6)
H30_2 H 0.8368 0.2796 0.1976
C36_2 C 0.9576(15) 0.2681(8) 0.2903(7)
H32_2 H 0.9241 0.3164 0.3138
O19 O 0.6012(6) 0.0264(4) 0.1100(3)
Mn1_5 Mn 0.5000 -0.0000 0.5000
C14_2 C 0.6295(8) 0.0009(6) 0.2617(4)
H12_2 H 0.7144 0.0095 0.2370
H13_2 H 0.7132 0.0043 0.3635
Cl2_2 Cl 0.2638(2) 0.08163(11) 0.48982(12)
C19_2 C 0.6232(8) 0.2766(5) 0.5077(6)
H17_2 H 0.5690 0.3258 0.5114
O9_2 O 0.6039(6) 0.0447(4) 0.8883(3)
O11_2 O 0.9069(5) 0.0640(4) 0.9319(3)
H18_2 H 0.9417 0.0104 0.9321
H19_2 H 0.8911 0.0778 0.8846
C20_2 C 0.8411(8) 0.2087(4) 0.4890(5)
H20_2 H 0.9390 0.2092 0.4821
N4_2 N 0.6277(6) 0.1258(3) 0.4980(3)
O14_2 O 0.7248(6) 0.2118(3) 0.9385(3)
H21_2 H 0.7667 0.2485 0.9668
H22_2 H 0.7759 0.2050 0.8998
C21_2 C 0.7666(8) 0.1322(4) 0.4882(5)
H23_2 H 0.8178 0.0826 0.4804
N5_2 N 0.4919(7) 0.0094(4) 0.6241(3)
C22_2 C 0.8424(7) 0.3672(4) 0.5028(3)
C23_2 C 0.7708(6) 0.2816(4) 0.4997(3)
C26_2 C 0.4956(7) 0.0104(5) 0.7762(3)
C27_2 C 0.5008(7) 0.0091(5) 0.8593(3)
C29_2 C 0.5592(8) 0.1985(5) 0.5099(6)
H25_2 H 0.4626 0.1960 0.5202
C30_2 C 0.6189(8) 0.0231(6) 0.7376(4)
H26_2 H 0.7049 0.0323 0.7620
C31_2 C 0.6128(8) 0.0220(6) 0.6621(4)
H27_2 H 0.6965 0.0304 0.6365
C33_2 C 0.3726(9) 0.0008(6) 0.6619(4)
Mn1_6 Mn 0.5000 1.0000 0.5000
Cl1_2 Cl 0.7362(2) 0.91837(11) 0.51018(12)
C1_2 C 0.3768(8) 0.7234(5) 0.4923(6)
H1_2 H 0.4310 0.6742 0.4886
O1_2 O 0.3961(6) 0.9553(4) 0.1117(3)
O3_2 O 0.0931(5) 0.9360(4) 0.0681(3)
H2_2 H 0.0583 0.9896 0.0679
H3_2 H 0.1089 0.9222 0.1154
C2_2 C 0.1589(8) 0.7913(4) 0.5110(5)
H4_2 H 0.0610 0.7908 0.5179
N1_2 N 0.3723(6) 0.8742(3) 0.5020(3)
O6_2 O 0.2752(6) 0.7882(3) 0.0615(3)
H5_2 H 0.2333 0.7515 0.0332
H6_2 H 0.2241 0.7950 0.1002
C3_2 C 0.2334(8) 0.8678(4) 0.5118(5)
H7_2 H 0.1822 0.9174 0.5196
N2_2 N 0.5081(7) 0.9906(4) 0.3759(3)
C4_2 C 0.1576(7) 0.6328(4) 0.4972(3)
C5_2 C 0.2292(6) 0.7184(4) 0.5003(3)
C8_2 C 0.5044(7) 0.9896(5) 0.2238(3)
C9_2 C 0.4992(7) 0.9909(5) 0.1407(3)
C11_2 C 0.4408(8) 0.8015(5) 0.4901(6)
H9_2 H 0.5374 0.8040 0.4798
C12_2 C 0.3811(8) 0.9769(6) 0.2624(4)
H10_2 H 0.2951 0.9677 0.2380
C13_2 C 0.3872(8) 0.9780(6) 0.3379(4)
H11_2 H 0.3035 0.9696 0.3635
C15_2 C 0.6274(9) 0.9992(6) 0.3381(4)
O12 O 0.3988(6) 0.9736(4) 0.8900(3)
C32_2 C 0.3705(8) 0.9991(6) 0.7383(4)
H28_2 H 0.2856 0.9905 0.7630
H29_2 H 0.2868 0.9957 0.6365
O5_2 O 0.1022(6) 0.9325(4) 0.9092(3)
O7_2 O 0.2313(7) 0.8141(4) 0.9094(3)
C6_2 C 0.0658(13) 0.8331(6) 0.8092(6)
C10_2 C 0.1360(9) 0.8615(5) 0.8794(4)
C16_2 C 0.1005(15) 0.7565(7) 0.7781(6)
H14_2 H 0.1632 0.7204 0.8024
C18_2 C 0.0424(15) 0.7319(8) 0.7097(7)
H16_2 H 0.0759 0.6836 0.6862
N6_2 N 0.0618(13) 0.2213(6) 0.3212(5)
C25_2 C 0.0215(14) 0.1158(8) 0.2298(6)
H24_2 H 0.0393 0.0609 0.2138
C35_2 C 0.0856(15) 0.1456(8) 0.2949(7)
H31_2 H 0.1476 0.1098 0.3202
N3_2 N 0.9382(13) 0.7787(6) 0.6788(5)
C7_2 C 0.9785(14) 0.8842(8) 0.7702(6)
H8_2 H 0.9607 0.9391 0.7862
C17_2 C 0.9144(15) 0.8544(8) 0.7051(7)
H15_2 H 0.8524 0.8902 0.6798
loop_
_geom_bond_atom_site_label_1
_geom_bond_atom_site_label_2
_geom_bond_site_symmetry_1
_geom_bond_site_symmetry_2
Gd1 O1 1_555 1_555
C1 H1 1_555 1_555
O1 C9 1_555 1_555
O2 C4 1_555 1_555
O3 Gd1 1_555 1_555
H2 O3 1_555 1_555
H3 O3 1_555 1_555
O5 Gd1 1_555 1_555
O6 Gd1 1_555 1_555
H5 O6 1_555 1_555
H6 O6 1_555 1_555
O7 Gd1 1_555 1_555
O8 C4 1_555 1_555
N3 C17 1_555 1_555
C6 C7 1_555 1_555
C7 H8 1_555 1_555
C10 O5 1_555 1_555
C11 C1 1_555 1_555
H10 C12 1_555 1_555
H11 C13 1_555 1_555
C16 C6 1_555 1_555
H14 C16 1_555 1_555
C17 C7 1_555 1_555
H15 C17 1_555 1_555
C18 N3 1_555 1_555
H16 C18 1_555 1_555
Cl2 Mn1 1_555 1_555
Gd8 O8 1_555 1_555
O17 Gd1 1_555 1_555
O20 Gd1 1_555 1_555
O7 C10 1_555 1_555
C6 C10 1_555 1_555
C12 C13 1_555 1_555
C16 C18 1_555 1_555
C2 H4 1_555 1_555
N1 Mn1_2 1_555 1_555
C3 C2 1_555 1_555
H7 C3 1_555 1_555
N5 Mn1_2 1_555 1_555
C32 C26 1_555 1_555
H28 C32 1_555 1_555
C33 N5 1_555 1_555
H29 C33 1_555 1_555
C2 C5 1_555 1_555
N1 C3 1_555 1_555
C32 C33 1_555 1_555
N2 Mn1_3 1_555 1_555
C14 C8 1_555 1_555
H12 C14 1_555 1_555
C15 N2 1_555 1_555
H13 C15 1_555 1_555
C20 H20 1_555 1_555
N4 Mn1_3 1_555 1_555
C21 C20 1_555 1_555
H23 C21 1_555 1_555
Gd6 O4 1_555 1_555
C14 C15 1_555 1_555
C20 C23 1_555 1_555
N4 C21 1_555 1_555
Mn1_4 Cl1 1_555 1_555
Gd6 O9 1_555 1_555
C19 H17 1_555 1_555
O9 C27 1_555 1_555
O10 C22 1_555 1_555
O11 Gd6 1_555 1_555
H18 O11 1_555 1_555
H19 O11 1_555 1_555
O13 Gd6 1_555 1_555
O14 Gd6 1_555 1_555
H21 O14 1_555 1_555
H22 O14 1_555 1_555
O15 Gd6 1_555 1_555
O16 C22 1_555 1_555
N6 C35 1_555 1_555
C24 C25 1_555 1_555
C25 H24 1_555 1_555
C28 O13 1_555 1_555
C29 C19 1_555 1_555
H26 C30 1_555 1_555
H27 C31 1_555 1_555
C34 C24 1_555 1_555
H30 C34 1_555 1_555
C35 C25 1_555 1_555
H31 C35 1_555 1_555
C36 N6 1_555 1_555
H32 C36 1_555 1_555
Gd5 O16 1_555 1_555
O18 Gd6 1_555 1_555
O15 C28 1_555 1_555
C24 C28 1_555 1_555
C30 C31 1_555 1_555
C34 C36 1_555 1_555
O13_2 Gd8 1_555 1_555
O15_2 Gd8 1_555 1_555
C28_2 O13_2 1_555 1_555
C34_2 C24_2 1_555 1_555
H30_2 C34_2 1_555 1_555
H32_2 C36_2 1_555 1_555
O19 Gd8 1_555 1_555
O15_2 C28_2 1_555 1_555
C24_2 C28_2 1_555 1_555
C34_2 C36_2 1_555 1_555
H12_2 C14_2 1_555 1_555
Cl2_2 Mn1_5 1_555 1_555
C19_2 H17_2 1_555 1_555
O9_2 C27_2 1_555 1_555
O18 C22_2 1_555 1_555
H18_2 O11_2 1_555 1_555
H19_2 O11_2 1_555 1_555
C20_2 H20_2 1_555 1_555
N4_2 Mn1_5 1_555 1_555
H21_2 O14_2 1_555 1_555
H22_2 O14_2 1_555 1_555
C21_2 C20_2 1_555 1_555
H23_2 C21_2 1_555 1_555
O22 C22_2 1_555 1_555
N5_2 Mn1_5 1_555 1_555
C22_2 C23_2 1_555 1_555
C23_2 C19_2 1_555 1_555
C26_2 C27_2 1_555 1_555
C29_2 C19_2 1_555 1_555
H25_2 C29_2 1_555 1_555
C30_2 C26_2 1_555 1_555
H26_2 C30_2 1_555 1_555
C31_2 N5_2 1_555 1_555
H27_2 C31_2 1_555 1_555
C33_2 N5_2 1_555 1_555
C20_2 C23_2 1_555 1_555
N4_2 C21_2 1_555 1_555
N4_2 C29_2 1_555 1_555
C30_2 C31_2 1_555 1_555
Mn1_6 Cl1_2 1_555 1_555
C1_2 H1_2 1_555 1_555
O1_2 C9_2 1_555 1_555
O17 C4_2 1_555 1_555
H2_2 O3_2 1_555 1_555
H3_2 O3_2 1_555 1_555
C2_2 H4_2 1_555 1_555
N1_2 Mn1_6 1_555 1_555
H5_2 O6_2 1_555 1_555
H6_2 O6_2 1_555 1_555
C3_2 C2_2 1_555 1_555
H7_2 C3_2 1_555 1_555
O21 C4_2 1_555 1_555
N2_2 Mn1_6 1_555 1_555
C4_2 C5_2 1_555 1_555
C5_2 C1_2 1_555 1_555
C8_2 C9_2 1_555 1_555
C11_2 C1_2 1_555 1_555
H9_2 C11_2 1_555 1_555
C12_2 C8_2 1_555 1_555
H10_2 C12_2 1_555 1_555
C13_2 N2_2 1_555 1_555
H11_2 C13_2 1_555 1_555
C15_2 N2_2 1_555 1_555
H28_2 C32_2 1_555 1_555
Gd5 O12 1_555 1_555
C2_2 C5_2 1_555 1_555
N1_2 C3_2 1_555 1_555
N1_2 C11_2 1_555 1_555
C12_2 C13_2 1_555 1_555
O5_2 Gd5 1_555 1_555
O7_2 Gd5 1_555 1_555
C10_2 O5_2 1_555 1_555
C16_2 C6_2 1_555 1_555
H14_2 C16_2 1_555 1_555
H16_2 C18_2 1_555 1_555
O7_2 C10_2 1_555 1_555
C6_2 C10_2 1_555 1_555
C16_2 C18_2 1_555 1_555
N6_2 C35_2 1_555 1_555
C25_2 H24_2 1_555 1_555
C35_2 C25_2 1_555 1_555
H31_2 C35_2 1_555 1_555
N3_2 C17_2 1_555 1_555
C7_2 H8_2 1_555 1_555
C17_2 C7_2 1_555 1_555
H15_2 C17_2 1_555 1_555

#END
