
###############################################################################
#
# This file contains modified crystal structure data generated from the
# MOF subset of the Cambridge Structural Database (CSD) v543 
# hosted by the Cambridge Crystallographic Data Centre (CCDC).
#
# This work is licensed under the Creative Commons
# Attribution-NonCommercial-ShareAlike 4.0 International License.
# To view a copy of this license, visit
# http://creativecommons.org/licenses/by-nc-sa/4.0/
# or send a letter to
# Creative Commons, PO Box 1866, Mountain View, CA 94042, USA.
#
# CIF created using the CSD Python API on 29 September 2022
# The structure has been converted into the P1 space group
# The structure has a 3D framework
# The original CSD entry GURCAZ is in the monoclinic crystal system
# The framework has been calculated to contain at least 10.0% void space
# The void calculation uses a probe of radius 1.32A, grid spacing 0.4
#
###############################################################################

data_GURCAZ
_chemical_formula_moiety         '(C72 H64 Cl4 Dy4 Mn4 N12 O32)n'
_symmetry_cell_setting           triclinic
_symmetry_space_group_name_H-M   'P 1'
_symmetry_Int_Tables_number      1
_space_group_name_Hall           'P 1'
loop_
_symmetry_equiv_pos_site_id
_symmetry_equiv_pos_as_xyz
1 x,y,z
_cell_length_a                   9.2596(6)
_cell_length_b                   15.6935(9)
_cell_length_c                   20.4732(12)
_cell_angle_alpha                90
_cell_angle_beta                 116.860(5)
_cell_angle_gamma                90
_cell_volume                     2654.1
loop_
_atom_site_label
_atom_site_type_symbol
_atom_site_fract_x
_atom_site_fract_y
_atom_site_fract_z
Dy6 Dy 0.19699(7) 0.57821(4) 0.49733(3)
O18 O 0.0127(10) 0.4766(5) 0.6081(4)
O22 O 0.0292(10) 0.3679(6) 0.5022(5)
Dy5 Dy 0.19699(7) 0.92179(4) 0.99733(3)
Dy8 Dy 0.80301(7) 0.07821(4) 0.00267(3)
Mn1 Mn 0.5000 0.5000 0.0000
Dy1 Dy 0.80301(7) 0.42179(4) 0.50267(3)
O1 O 0.5205(9) 0.4328(5) 0.4353(4)
H1 H 0.4877 0.4250 0.3873
H2 H 0.4856 0.4843 0.4405
O2 O 0.9873(10) 0.5234(5) 0.3919(4)
O3 O 0.2448(10) 0.0672(5) 0.0046(4)
O4 O 0.7752(10) 0.4523(6) 0.3870(4)
C2 C 0.3962(15) 0.2232(8) 0.0143(7)
H3 H 0.4590 0.1741 0.0244
O5 O 0.6990(11) 0.4310(5) 0.5947(5)
O6 O 0.8281(11) 0.3139(6) 0.5924(5)
O7 O 0.0292(10) 0.1321(6) 0.0022(5)
C3 C 0.1619(15) 0.1315(8) 0.0040(6)
C4 C 0.4608(15) 0.3024(8) 0.0142(7)
H4 H 0.5701 0.3061 0.0261
O8 O 0.7101(10) 0.2859(5) 0.4381(5)
H5 H 0.7454 0.2421 0.4687
H6 H 0.7470 0.2795 0.4054
N2 N 0.6313(12) 0.4869(6) 0.1242(5)
C6 C 0.8547(14) 0.4886(8) 0.3596(6)
C8 C 0.7653(18) 0.3338(8) 0.6939(7)
C9 C 0.6137(14) 0.4741(7) 0.2364(6)
H9 H 0.5496 0.4653 0.2600
C10 C 0.7628(17) 0.3608(9) 0.6233(7)
C11 C 0.7927(15) 0.4984(8) 0.1640(7)
H10 H 0.8559 0.5053 0.1397
C12 C 0.7775(15) 0.4873(8) 0.2758(6)
C13 C 0.8672(15) 0.5002(8) 0.2401(6)
H11 H 0.9779 0.5103 0.2661
N3 N 0.7650(16) 0.2782(8) 0.8221(6)
C14 C 0.5469(15) 0.4743(8) 0.1613(7)
H12 H 0.4361 0.4649 0.1349
C15 C 0.8380(19) 0.2560(9) 0.7253(7)
H13 H 0.8872 0.2225 0.7036
C16 C 0.835(2) 0.2299(9) 0.7899(8)
H14 H 0.8819 0.1782 0.8110
C17 C 0.7071(19) 0.3534(10) 0.7946(8)
H15 H 0.6672 0.3883 0.8194
C18 C 0.7030(19) 0.3834(9) 0.7287(8)
H16 H 0.6584 0.4363 0.7098
Cl2 Cl 0.2701(4) 0.58130(19) 0.01082(16)
C19 C 0.7714(14) 0.7807(8) 0.0018(6)
N4 N 0.6257(12) 0.6263(6) 0.0020(5)
C23 C 0.8557(15) 0.7088(8) 0.0169(6)
H23 H 0.9650 0.7099 0.0283
C25 C 0.7817(14) 0.6330(8) 0.0155(7)
H24 H 0.8425 0.5834 0.0244
O19 O 0.7552(10) 0.5672(5) 0.4954(4)
Mn1_2 Mn 0.5000 0.5000 1.0000
Cl1 Cl 0.7299(4) 0.41870(19) 0.98918(16)
C1 C 0.2286(14) 0.2193(8) 0.9982(6)
N1 N 0.3743(12) 0.3737(6) 0.9980(5)
C5 C 0.1443(15) 0.2912(8) 0.9831(6)
H7 H 0.0350 0.2901 0.9717
C7 C 0.2183(14) 0.3670(8) 0.9845(7)
H8 H 0.1575 0.4166 0.9756
O9 O 0.4795(9) 0.5672(5) 0.5647(4)
H17 H 0.5123 0.5750 0.6127
H18 H 0.5144 0.5157 0.5595
O11 O 0.7552(10) 0.9328(5) 0.9954(4)
O12 O 0.2248(10) 0.5477(6) 0.6130(4)
C20 C 0.6038(15) 0.7768(8) 0.9857(7)
H19 H 0.5410 0.8259 0.9756
O13 O 0.3010(11) 0.5690(5) 0.4053(5)
O14 O 0.1719(11) 0.6861(6) 0.4076(5)
O15 O 0.9708(10) 0.8679(6) 0.9978(5)
C21 C 0.8381(15) 0.8685(8) 0.9960(6)
C22 C 0.5392(15) 0.6976(8) 0.9858(7)
H20 H 0.4299 0.6939 0.9739
O16 O 0.2899(10) 0.7141(5) 0.5619(5)
H21 H 0.2546 0.7579 0.5313
H22 H 0.2530 0.7205 0.5946
N5 N 0.3687(12) 0.5131(6) 0.8758(5)
C24 C 0.1453(14) 0.5114(8) 0.6404(6)
C26 C 0.2347(18) 0.6662(8) 0.3061(7)
C27 C 0.3863(14) 0.5259(7) 0.7636(6)
H25 H 0.4504 0.5347 0.7400
C28 C 0.2372(17) 0.6392(9) 0.3767(7)
C29 C 0.2073(15) 0.5016(8) 0.8360(7)
H26 H 0.1441 0.4947 0.8603
C30 C 0.2225(15) 0.5127(8) 0.7242(6)
C31 C 0.1328(15) 0.4998(8) 0.7599(6)
H27 H 0.0221 0.4897 0.7339
N6 N 0.2350(16) 0.7218(8) 0.1779(6)
C32 C 0.4531(15) 0.5257(8) 0.8387(7)
H28 H 0.5639 0.5351 0.8651
C33 C 0.1620(19) 0.7440(9) 0.2747(7)
H29 H 0.1128 0.7775 0.2964
C34 C 0.165(2) 0.7701(9) 0.2101(8)
H30 H 0.1181 0.8218 0.1890
C35 C 0.2929(19) 0.6466(10) 0.2054(8)
H31 H 0.3328 0.6117 0.1806
C36 C 0.2970(19) 0.6166(9) 0.2713(8)
H32 H 0.3416 0.5637 0.2902
O20 O 0.2448(10) 0.4328(5) 0.5046(4)
O21 O 0.9708(10) 0.6321(6) 0.4978(5)
O17 O 0.0127(10) 0.0234(5) 0.1081(4)
O13_2 O 0.6990(11) 0.0690(5) 0.0947(5)
O14_2 O 0.8281(11) 0.1861(6) 0.0924(5)
C26_2 C 0.7653(18) 0.1662(8) 0.1939(7)
C28_2 C 0.7628(17) 0.1392(9) 0.1233(7)
N6_2 N 0.7650(16) 0.2218(8) 0.3221(6)
C33_2 C 0.8380(19) 0.2440(9) 0.2253(7)
H29_2 H 0.8872 0.2775 0.2036
C34_2 C 0.835(2) 0.2701(9) 0.2899(8)
H30_2 H 0.8819 0.3218 0.3110
C35_2 C 0.7071(19) 0.1466(10) 0.2946(8)
H31_2 H 0.6672 0.1117 0.3194
C36_2 C 0.7030(19) 0.1166(9) 0.2287(8)
H32_2 H 0.6584 0.0637 0.2098
Mn1_3 Mn 0.5000 -0.0000 0.5000
H10_2 H 0.1441 0.0053 0.3603
C13_2 C 0.1328(15) 0.0002(8) 0.2599(6)
H11_2 H 0.0221 0.0103 0.2339
Cl2_2 Cl 0.7299(4) 0.08130(19) 0.48918(16)
C19_2 C 0.2286(14) 0.2807(8) 0.4982(6)
O9_2 O 0.5205(9) 0.0672(5) 0.9353(4)
H17_2 H 0.4877 0.0750 0.8873
H18_2 H 0.4856 0.0157 0.9405
O12_2 O 0.7752(10) 0.0477(6) 0.8870(4)
C20_2 C 0.3962(15) 0.2768(8) 0.5143(7)
H19_2 H 0.4590 0.3259 0.5244
C21_2 C 0.1619(15) 0.3685(8) 0.5040(6)
C22_2 C 0.4608(15) 0.1976(8) 0.5142(7)
H20_2 H 0.5701 0.1939 0.5261
N4_2 N 0.3743(12) 0.1263(6) 0.4980(5)
O16_2 O 0.7101(10) 0.2141(5) 0.9381(5)
H21_2 H 0.7454 0.2579 0.9687
H22_2 H 0.7470 0.2205 0.9054
C23_2 C 0.1443(15) 0.2088(8) 0.4831(6)
H23_2 H 0.0350 0.2099 0.4717
N5_2 N 0.6313(12) 0.0131(6) 0.6242(5)
C24_2 C 0.8547(14) 0.0114(8) 0.8596(6)
C25_2 C 0.2183(14) 0.1330(8) 0.4845(7)
H24_2 H 0.1575 0.0834 0.4756
C27_2 C 0.6137(14) 0.0259(7) 0.7364(6)
H25_2 H 0.5496 0.0347 0.7600
C29_2 C 0.7927(15) 0.0016(8) 0.6640(7)
C30_2 C 0.7775(15) 0.0127(8) 0.7758(6)
C32_2 C 0.5469(15) 0.0257(8) 0.6613(7)
H28_2 H 0.4361 0.0351 0.6349
Mn1_4 Mn 0.5000 1.0000 0.5000
Cl1_2 Cl 0.2701(4) 0.91870(19) 0.51082(16)
C1_2 C 0.7714(14) 0.7193(8) 0.5018(6)
O1_2 O 0.4795(9) 0.9328(5) 0.0647(4)
H1_2 H 0.5123 0.9250 0.1127
H2_2 H 0.5144 0.9843 0.0595
O4_2 O 0.2248(10) 0.9523(6) 0.1130(4)
C2_2 C 0.6038(15) 0.7232(8) 0.4857(7)
H3_2 H 0.5410 0.6741 0.4756
C3_2 C 0.8381(15) 0.6315(8) 0.4960(6)
C4_2 C 0.5392(15) 0.8024(8) 0.4858(7)
H4_2 H 0.4299 0.8061 0.4739
N1_2 N 0.6257(12) 0.8737(6) 0.5020(5)
O8_2 O 0.2899(10) 0.7859(5) 0.0619(5)
H5_2 H 0.2546 0.7421 0.0313
H6_2 H 0.2530 0.7795 0.0946
C5_2 C 0.8557(15) 0.7912(8) 0.5169(6)
H7_2 H 0.9650 0.7901 0.5283
N2_2 N 0.3687(12) 0.9869(6) 0.3758(5)
C6_2 C 0.1453(14) 0.9886(8) 0.1404(6)
C7_2 C 0.7817(14) 0.8670(8) 0.5155(7)
H8_2 H 0.8425 0.9166 0.5244
C9_2 C 0.3863(14) 0.9741(7) 0.2636(6)
H9_2 H 0.4504 0.9653 0.2400
C11_2 C 0.2073(15) 0.9984(8) 0.3360(7)
C12_2 C 0.2225(15) 0.9873(8) 0.2242(6)
C14_2 C 0.4531(15) 0.9743(8) 0.3387(7)
H12_2 H 0.5639 0.9649 0.3651
O10 O 0.9873(10) 0.9766(5) 0.8919(4)
H26_2 H 0.8559 0.9947 0.6397
C31_2 C 0.8672(15) 0.9998(8) 0.7401(6)
H27_2 H 0.9779 0.9897 0.7661
O5_2 O 0.3010(11) 0.9310(5) 0.9053(5)
O6_2 O 0.1719(11) 0.8139(6) 0.9076(5)
C8_2 C 0.2347(18) 0.8338(8) 0.8061(7)
C10_2 C 0.2372(17) 0.8608(9) 0.8767(7)
N3_2 N 0.2350(16) 0.7782(8) 0.6779(6)
C15_2 C 0.1620(19) 0.7560(9) 0.7747(7)
H13_2 H 0.1128 0.7225 0.7964
C16_2 C 0.165(2) 0.7299(9) 0.7101(8)
H14_2 H 0.1181 0.6782 0.6890
C17_2 C 0.2929(19) 0.8534(10) 0.7054(8)
H15_2 H 0.3328 0.8883 0.6806
C18_2 C 0.2970(19) 0.8834(9) 0.7713(8)
H16_2 H 0.3416 0.9363 0.7902
loop_
_geom_bond_atom_site_label_1
_geom_bond_atom_site_label_2
_geom_bond_site_symmetry_1
_geom_bond_site_symmetry_2
Dy1 O1 1_555 1_555
O1 H1 1_555 1_555
H2 O1 1_555 1_555
O2 C6 1_555 1_555
O3 C3 1_555 1_555
O4 Dy1 1_555 1_555
C2 H3 1_555 1_555
O5 Dy1 1_555 1_555
O6 Dy1 1_555 1_555
O7 C3 1_555 1_555
C4 C2 1_555 1_555
H4 C4 1_555 1_555
O8 Dy1 1_555 1_555
H5 O8 1_555 1_555
H6 O8 1_555 1_555
N2 Mn1 1_555 1_555
C6 O4 1_555 1_555
C8 C10 1_555 1_555
C9 H9 1_555 1_555
C10 O5 1_555 1_555
C11 N2 1_555 1_555
H10 C11 1_555 1_555
C12 C6 1_555 1_555
C13 C11 1_555 1_555
H11 C13 1_555 1_555
N3 C16 1_555 1_555
C14 N2 1_555 1_555
H12 C14 1_555 1_555
C15 C8 1_555 1_555
H13 C15 1_555 1_555
C16 C15 1_555 1_555
H14 C16 1_555 1_555
C17 N3 1_555 1_555
H15 C17 1_555 1_555
C18 C8 1_555 1_555
H16 C18 1_555 1_555
Cl2 Mn1 1_555 1_555
N4 Mn1 1_555 1_555
C23 C19 1_555 1_555
H23 C23 1_555 1_555
C25 N4 1_555 1_555
H24 C25 1_555 1_555
O19 Dy1 1_555 1_555
O6 C10 1_555 1_555
C9 C12 1_555 1_555
C9 C14 1_555 1_555
C12 C13 1_555 1_555
C17 C18 1_555 1_555
C23 C25 1_555 1_555
Mn1_2 Cl1 1_555 1_555
N1 Mn1_2 1_555 1_555
C5 C1 1_555 1_555
H7 C5 1_555 1_555
C7 N1 1_555 1_555
H8 C7 1_555 1_555
Dy6 O9 1_555 1_555
O9 H17 1_555 1_555
H18 O9 1_555 1_555
O18 C24 1_555 1_555
O11 C21 1_555 1_555
O12 Dy6 1_555 1_555
C20 H19 1_555 1_555
O13 Dy6 1_555 1_555
O14 Dy6 1_555 1_555
O15 C21 1_555 1_555
C22 C20 1_555 1_555
H20 C22 1_555 1_555
O16 Dy6 1_555 1_555
H21 O16 1_555 1_555
H22 O16 1_555 1_555
N5 Mn1_2 1_555 1_555
C24 O12 1_555 1_555
C26 C28 1_555 1_555
C27 H25 1_555 1_555
C28 O13 1_555 1_555
C29 N5 1_555 1_555
H26 C29 1_555 1_555
C30 C24 1_555 1_555
C31 C29 1_555 1_555
H27 C31 1_555 1_555
N6 C34 1_555 1_555
C32 N5 1_555 1_555
H28 C32 1_555 1_555
C33 C26 1_555 1_555
H29 C33 1_555 1_555
C34 C33 1_555 1_555
H30 C34 1_555 1_555
C35 N6 1_555 1_555
H31 C35 1_555 1_555
C36 C26 1_555 1_555
H32 C36 1_555 1_555
O20 Dy6 1_555 1_555
C5 C7 1_555 1_555
O14 C28 1_555 1_555
C27 C30 1_555 1_555
C27 C32 1_555 1_555
C30 C31 1_555 1_555
C35 C36 1_555 1_555
O13_2 Dy8 1_555 1_555
O14_2 Dy8 1_555 1_555
C26_2 C28_2 1_555 1_555
C28_2 O13_2 1_555 1_555
N6_2 C34_2 1_555 1_555
C33_2 C26_2 1_555 1_555
H29_2 C33_2 1_555 1_555
C34_2 C33_2 1_555 1_555
H30_2 C34_2 1_555 1_555
C35_2 N6_2 1_555 1_555
H31_2 C35_2 1_555 1_555
C36_2 C26_2 1_555 1_555
H32_2 C36_2 1_555 1_555
O14_2 C28_2 1_555 1_555
C35_2 C36_2 1_555 1_555
H11_2 C13_2 1_555 1_555
Cl2_2 Mn1_3 1_555 1_555
C19_2 C20_2 1_555 1_555
O9_2 H17_2 1_555 1_555
H18_2 O9_2 1_555 1_555
O20 C21_2 1_555 1_555
C20_2 H19_2 1_555 1_555
O22 C21_2 1_555 1_555
C21_2 C19_2 1_555 1_555
C22_2 C20_2 1_555 1_555
H20_2 C22_2 1_555 1_555
N4_2 Mn1_3 1_555 1_555
H21_2 O16_2 1_555 1_555
H22_2 O16_2 1_555 1_555
C23_2 C19_2 1_555 1_555
H23_2 C23_2 1_555 1_555
N5_2 Mn1_3 1_555 1_555
C24_2 O12_2 1_555 1_555
C25_2 N4_2 1_555 1_555
H24_2 C25_2 1_555 1_555
C27_2 H25_2 1_555 1_555
C29_2 N5_2 1_555 1_555
C30_2 C24_2 1_555 1_555
C32_2 N5_2 1_555 1_555
H28_2 C32_2 1_555 1_555
C22_2 N4_2 1_555 1_555
C23_2 C25_2 1_555 1_555
C27_2 C30_2 1_555 1_555
C27_2 C32_2 1_555 1_555
Mn1_4 Cl1_2 1_555 1_555
C1_2 C2_2 1_555 1_555
O1_2 H1_2 1_555 1_555
H2_2 O1_2 1_555 1_555
O19 C3_2 1_555 1_555
C2_2 H3_2 1_555 1_555
O21 C3_2 1_555 1_555
C3_2 C1_2 1_555 1_555
C4_2 C2_2 1_555 1_555
H4_2 C4_2 1_555 1_555
N1_2 Mn1_4 1_555 1_555
H5_2 O8_2 1_555 1_555
H6_2 O8_2 1_555 1_555
C5_2 C1_2 1_555 1_555
H7_2 C5_2 1_555 1_555
N2_2 Mn1_4 1_555 1_555
C6_2 O4_2 1_555 1_555
C7_2 N1_2 1_555 1_555
H8_2 C7_2 1_555 1_555
C9_2 H9_2 1_555 1_555
C11_2 N2_2 1_555 1_555
C12_2 C6_2 1_555 1_555
C14_2 N2_2 1_555 1_555
H12_2 C14_2 1_555 1_555
H27_2 C31_2 1_555 1_555
C4_2 N1_2 1_555 1_555
C5_2 C7_2 1_555 1_555
C9_2 C12_2 1_555 1_555
C9_2 C14_2 1_555 1_555
O5_2 Dy5 1_555 1_555
O6_2 Dy5 1_555 1_555
C8_2 C10_2 1_555 1_555
C10_2 O5_2 1_555 1_555
N3_2 C16_2 1_555 1_555
C15_2 C8_2 1_555 1_555
H13_2 C15_2 1_555 1_555
C16_2 C15_2 1_555 1_555
H14_2 C16_2 1_555 1_555
C17_2 N3_2 1_555 1_555
H15_2 C17_2 1_555 1_555
C18_2 C8_2 1_555 1_555
H16_2 C18_2 1_555 1_555
O6_2 C10_2 1_555 1_555
C17_2 C18_2 1_555 1_555

#END
