
###############################################################################
#
# This file contains modified crystal structure data generated from the
# MOF subset of the Cambridge Structural Database (CSD) v543 
# hosted by the Cambridge Crystallographic Data Centre (CCDC).
#
# This work is licensed under the Creative Commons
# Attribution-NonCommercial-ShareAlike 4.0 International License.
# To view a copy of this license, visit
# http://creativecommons.org/licenses/by-nc-sa/4.0/
# or send a letter to
# Creative Commons, PO Box 1866, Mountain View, CA 94042, USA.
#
# CIF created using the CSD Python API on 29 September 2022
# The structure has been converted into the P1 space group
# The structure has a 3D framework
# The original CSD entry GURTUJ is in the triclinic crystal system
# The framework has been calculated to contain at least 10.0% void space
# The void calculation uses a probe of radius 1.32A, grid spacing 0.4
#
###############################################################################

data_GURTUJ
_chemical_formula_moiety         '(C52 H44 Cd2 N6 O12)n'
_symmetry_cell_setting           triclinic
_symmetry_space_group_name_H-M   'P 1'
_symmetry_Int_Tables_number      1
_space_group_name_Hall           'P 1'
loop_
_symmetry_equiv_pos_site_id
_symmetry_equiv_pos_as_xyz
1 x,y,z
_cell_length_a                   9.0560(12)
_cell_length_b                   11.191(11)
_cell_length_c                   15.264(2)
_cell_angle_alpha                102.263(2)
_cell_angle_beta                 92.198(3)
_cell_angle_gamma                108.628(2)
_cell_volume                     1423
loop_
_atom_site_label
_atom_site_type_symbol
_atom_site_fract_x
_atom_site_fract_y
_atom_site_fract_z
_atom_site_U_iso_or_equiv
_atom_site_thermal_displace_type
Cd4 Cd 0.44997(6) 0.83449(5) 0.42396(4) 0.0306 Uani
C35 C 0.2246(13) 0.7902(11) 0.2846(10) 0.0675 Uani
C36 C 0.0812(15) 0.7397(12) 0.2181(10) 0.0812 Uani
C41 C 0.102(2) 0.7161(17) 0.1263(11) 0.1030 Uani
H32 H 0.2024 0.7387 0.1084 0.1240 Uiso
O7 O 0.3582(11) 0.8179(10) 0.2639(7) 0.0951 Uani
O9 O 0.2010(9) 0.7974(9) 0.3664(7) 0.0817 Uani
C17 C 0.3355(9) 0.8556(7) 0.5920(5) 0.0330 Uani
C18 C 0.2655(10) 0.8692(8) 0.6795(6) 0.0402 Uani
C19 C 0.2258(12) 0.7669(9) 0.7227(7) 0.0517 Uani
H13 H 0.2475 0.6912 0.6996 0.0620 Uiso
C20 C 0.1546(15) 0.7805(10) 0.7995(7) 0.0620 Uani
H14 H 0.1286 0.7130 0.8288 0.0750 Uiso
C21 C 0.1198(15) 0.8904(11) 0.8350(7) 0.0618 Uani
C22 C 0.1548(15) 0.9905(11) 0.7923(8) 0.0659 Uani
C23 C 0.2294(13) 0.9803(9) 0.7158(6) 0.0508 Uani
O4 O 0.3912(7) 0.9536(5) 0.5599(4) 0.0422 Uani
O5 O 0.0463(14) 0.8896(9) 0.9120(6) 0.0919 Uani
O6 O 0.3342(8) 0.7450(6) 0.5509(4) 0.0482 Uani
H1 H 0.9954 0.1492 0.4281 0.1630 Uiso
H17 H 0.9445 0.0248 0.9202 0.1060 Uiso
H19 H 0.9801 0.3778 0.4453 0.0810 Uiso
C27 C 0.9088(17) 0.8205(13) 0.5359(17) 0.1364 Uani
C28 C 0.8058(12) 0.8832(11) 0.5221(10) 0.0819 Uani
H24 H 0.8266 0.9715 0.5451 0.0980 Uiso
C29 C 0.6820(11) 0.6868(9) 0.4479(8) 0.0557 Uani
C30 C 0.5576(11) 0.5783(9) 0.3908(7) 0.0492 Uani
C31 C 0.5452(12) 0.4502(9) 0.3798(8) 0.0579 Uani
H25 H 0.6180 0.4269 0.4108 0.0700 Uiso
C32 C 0.4225(19) 0.3573(13) 0.3218(14) 0.1129 Uani
H26 H 0.4124 0.2701 0.3122 0.1350 Uiso
C33 C 0.3128(18) 0.3950(13) 0.2771(12) 0.1135 Uani
H27 H 0.2331 0.3343 0.2347 0.1370 Uiso
C34 C 0.3261(19) 0.5232(15) 0.2976(13) 0.1183 Uani
H28 H 0.2487 0.5485 0.2729 0.1420 Uiso
C51 C 0.9549(12) 0.5448(10) 0.5109(8) 0.0680 Uani
H42 H 0.8644 0.5035 0.5392 0.0810 Uiso
N4 N 0.6709(8) 0.8034(7) 0.4718(6) 0.0430 Uani
N5 N 0.8258(15) 0.6934(11) 0.4784(12) 0.1281 Uani
N6 N 0.4473(10) 0.6129(8) 0.3519(7) 0.0614 Uani
C52 C 0.901(2) 0.584(3) 0.4335(10) 0.1585 Uani
H43 H 0.9873 0.6197 0.4008 0.1900 Uiso
H44 H 0.8223 0.5107 0.3926 0.1900 Uiso
H37 H 0.8715 0.9359 0.1853 0.0790 Uiso
H38 H 0.7437 0.9510 0.3124 0.0610 Uiso
C50 C 0.975(2) 0.9913(15) 0.0447(8) 0.0879 Uani
H40 H 0.8784 0.9189 0.0376 0.1060 Uiso
C37 C 0.9336(16) 0.7194(13) 0.2466(11) 0.0926 Uani
H29 H 0.9203 0.7444 0.3071 0.1110 Uiso
C38 C 0.8041(18) 0.6587(17) 0.1791(14) 0.1144 Uani
H30 H 0.7033 0.6387 0.1963 0.1370 Uiso
C39 C 0.822(2) 0.6283(17) 0.0887(13) 0.1179 Uani
C40 C 0.971(2) 0.6586(19) 0.0624(13) 0.1237 Uani
H31 H 0.9838 0.6403 0.0014 0.1480 Uiso
C42 C 0.550(3) 0.530(3) 0.0491(17) 0.1751 Uani
H33 H 0.5441 0.4648 0.0827 0.2100 Uiso
H34 H 0.5185 0.5991 0.0845 0.2100 Uiso
O11 O 0.7051(17) 0.5802(16) 0.0197(10) 0.1725 Uani
C11 C 0.0664(16) 0.2806(13) 0.7534(11) 0.0926 Uani
H7 H 0.0797 0.2556 0.6929 0.1110 Uiso
C12 C 0.1959(18) 0.3413(17) 0.8209(14) 0.1144 Uani
H8 H 0.2967 0.3613 0.8037 0.1370 Uiso
C13 C 0.178(2) 0.3717(17) 0.9113(13) 0.1179 Uani
C14 C 0.029(2) 0.3414(19) 0.9376(13) 0.1237 Uani
H9 H 0.0162 0.3597 0.9986 0.1480 Uiso
C16 C 0.450(3) 0.470(3) 0.9509(17) 0.1751 Uani
H11 H 0.4559 0.5352 0.9173 0.2100 Uiso
H12 H 0.4815 0.4009 0.9155 0.2100 Uiso
O3 O 0.2949(17) 0.4198(16) 0.9803(10) 0.1725 Uani
Cd1 Cd 0.55003(6) 0.16551(5) 0.57604(4) 0.0306 Uani
C1 C 0.0912(17) 0.1795(13) 0.4641(17) 0.1364 Uani
C2 C 0.1942(12) 0.1168(11) 0.4779(10) 0.0819 Uani
H2 H 0.1734 0.0285 0.4549 0.0980 Uiso
C3 C 0.3180(11) 0.3132(9) 0.5521(8) 0.0557 Uani
C4 C 0.4424(11) 0.4217(9) 0.6092(7) 0.0492 Uani
C5 C 0.4548(12) 0.5498(9) 0.6202(8) 0.0579 Uani
H3 H 0.3820 0.5731 0.5892 0.0700 Uiso
C6 C 0.5775(19) 0.6427(13) 0.6782(14) 0.1129 Uani
H4 H 0.5876 0.7299 0.6878 0.1350 Uiso
C7 C 0.6872(18) 0.6050(13) 0.7229(12) 0.1135 Uani
H5 H 0.7669 0.6657 0.7653 0.1370 Uiso
C8 C 0.6739(19) 0.4768(15) 0.7024(13) 0.1183 Uani
H6 H 0.7513 0.4515 0.7271 0.1420 Uiso
C9 C 0.7754(13) 0.2098(11) 0.7154(10) 0.0675 Uani
C10 C 0.9188(15) 0.2603(12) 0.7819(10) 0.0812 Uani
C15 C 0.898(2) 0.2839(17) 0.8737(11) 0.1030 Uani
H10 H 0.7976 0.2613 0.8916 0.1240 Uiso
H15 H 0.1285 0.0641 0.8147 0.0790 Uiso
H16 H 0.2563 0.0490 0.6876 0.0610 Uiso
C24 C 0.025(2) 0.0087(15) 0.9553(8) 0.0879 Uani
H18 H 0.1216 0.0811 0.9624 0.1060 Uiso
C25 C 0.0451(12) 0.4552(10) 0.4891(8) 0.0680 Uani
H20 H 0.1356 0.4965 0.4608 0.0810 Uiso
N1 N 0.3291(8) 0.1966(7) 0.5282(6) 0.0430 Uani
N2 N 0.1742(15) 0.3066(11) 0.5216(12) 0.1281 Uani
N3 N 0.5527(10) 0.3871(8) 0.6481(7) 0.0614 Uani
O1 O 0.6418(11) 0.1821(10) 0.7361(7) 0.0951 Uani
O2 O 0.7990(9) 0.2026(9) 0.6336(7) 0.0817 Uani
C26 C 0.099(2) 0.416(3) 0.5665(10) 0.1585 Uani
H21 H 0.0127 0.3803 0.5992 0.1900 Uiso
H22 H 0.1777 0.4893 0.6074 0.1900 Uiso
H23 H 0.0046 0.8508 0.5719 0.1630 Uiso
H41 H 0.0199 0.6222 0.5547 0.0810 Uiso
O13 O 0.6088(7) 0.0464(5) 0.4401(4) 0.0422 Uani
O18 O 0.6658(8) 0.2550(6) 0.4491(4) 0.0482 Uani
H39 H 0.0555 0.9752 0.0798 0.1060 Uiso
C43 C 0.6645(9) 0.1444(7) 0.4080(5) 0.0330 Uani
C44 C 0.7345(10) 0.1308(8) 0.3205(6) 0.0402 Uani
C45 C 0.7742(12) 0.2331(9) 0.2773(7) 0.0517 Uani
H35 H 0.7525 0.3088 0.3004 0.0620 Uiso
C46 C 0.8454(15) 0.2195(10) 0.2005(7) 0.0620 Uani
H36 H 0.8714 0.2870 0.1712 0.0750 Uiso
C47 C 0.8802(15) 0.1096(11) 0.1650(7) 0.0618 Uani
C48 C 0.8452(15) 0.0095(11) 0.2077(8) 0.0659 Uani
C49 C 0.7706(13) 0.0197(9) 0.2842(6) 0.0508 Uani
O16 O 0.9537(14) 0.1104(9) 0.0880(6) 0.0919 Uani
loop_
_atom_site_aniso_label
_atom_site_aniso_U_11
_atom_site_aniso_U_22
_atom_site_aniso_U_33
_atom_site_aniso_U_23
_atom_site_aniso_U_13
_atom_site_aniso_U_12
Cd4 0.0253 0.0294 0.0371 0.0037 0 0.0121
C35 0.051 0.052 0.09 0.005 -0.036 0.017
C36 0.066 0.06 0.103 0.016 -0.047 0.01
C41 0.098 0.111 0.08 0.025 -0.038 0.012
O7 0.062 0.1 0.109 0.032 -0.032 0.008
O9 0.05 0.089 0.091 0.001 -0.035 0.021
C17 0.027 0.03 0.043 0.007 0.005 0.012
C18 0.035 0.038 0.054 0.017 0.021 0.015
C19 0.063 0.029 0.065 0.014 0.018 0.015
C20 0.099 0.05 0.052 0.022 0.035 0.036
C21 0.082 0.064 0.05 0.023 0.041 0.029
C22 0.091 0.06 0.063 0.015 0.036 0.044
C23 0.073 0.044 0.046 0.018 0.026 0.027
O4 0.045 0.032 0.049 0.01 0.014 0.011
O5 0.148 0.073 0.076 0.03 0.073 0.051
O6 0.061 0.041 0.051 0.014 0.02 0.025
C27 0.07 0.049 0.3 0.028 -0.015 0.046
C28 0.045 0.046 0.136 -0.025 -0.042 0.026
C29 0.039 0.037 0.092 0.006 -0.009 0.022
C30 0.043 0.038 0.067 0.001 0.001 0.022
C31 0.053 0.037 0.084 0.006 -0.011 0.023
C32 0.091 0.051 0.175 -0.026 -0.032 0.034
C33 0.087 0.06 0.149 -0.053 -0.061 0.023
C34 0.096 0.075 0.162 -0.044 -0.053 0.053
C51 0.04 0.044 0.114 0.002 -0.018 0.02
N4 0.029 0.031 0.066 0.005 -0.003 0.011
N5 0.087 0.054 0.225 -0.026 -0.072 0.047
N6 0.051 0.044 0.083 -0.006 -0.019 0.024
C52 0.162 0.35 0.081 0.084 0.051 0.22
C50 0.132 0.095 0.062 0.03 0.055 0.06
C37 0.07 0.076 0.108 0.026 -0.064 -0.002
C38 0.065 0.106 0.146 0.017 -0.063 0.01
C39 0.103 0.102 0.112 0.027 -0.078 -0.006
C40 0.103 0.128 0.102 0.024 -0.058 -0.003
C42 0.114 0.16 0.19 0.045 -0.093 -0.027
O11 0.115 0.198 0.132 0.058 -0.092 -0.046
C11 0.07 0.076 0.108 0.026 -0.064 -0.002
C12 0.065 0.106 0.146 0.017 -0.063 0.01
C13 0.103 0.102 0.112 0.027 -0.078 -0.006
C14 0.103 0.128 0.102 0.024 -0.058 -0.003
C16 0.114 0.16 0.19 0.045 -0.093 -0.027
O3 0.115 0.198 0.132 0.058 -0.092 -0.046
Cd1 0.0253 0.0294 0.0371 0.0037 0 0.0121
C1 0.07 0.049 0.3 0.028 -0.015 0.046
C2 0.045 0.046 0.136 -0.025 -0.042 0.026
C3 0.039 0.037 0.092 0.006 -0.009 0.022
C4 0.043 0.038 0.067 0.001 0.001 0.022
C5 0.053 0.037 0.084 0.006 -0.011 0.023
C6 0.091 0.051 0.175 -0.026 -0.032 0.034
C7 0.087 0.06 0.149 -0.053 -0.061 0.023
C8 0.096 0.075 0.162 -0.044 -0.053 0.053
C9 0.051 0.052 0.09 0.005 -0.036 0.017
C10 0.066 0.06 0.103 0.016 -0.047 0.01
C15 0.098 0.111 0.08 0.025 -0.038 0.012
C24 0.132 0.095 0.062 0.03 0.055 0.06
C25 0.04 0.044 0.114 0.002 -0.018 0.02
N1 0.029 0.031 0.066 0.005 -0.003 0.011
N2 0.087 0.054 0.225 -0.026 -0.072 0.047
N3 0.051 0.044 0.083 -0.006 -0.019 0.024
O1 0.062 0.1 0.109 0.032 -0.032 0.008
O2 0.05 0.089 0.091 0.001 -0.035 0.021
C26 0.162 0.35 0.081 0.084 0.051 0.22
O13 0.045 0.032 0.049 0.01 0.014 0.011
O18 0.061 0.041 0.051 0.014 0.02 0.025
C43 0.027 0.03 0.043 0.007 0.005 0.012
C44 0.035 0.038 0.054 0.017 0.021 0.015
C45 0.063 0.029 0.065 0.014 0.018 0.015
C46 0.099 0.05 0.052 0.022 0.035 0.036
C47 0.082 0.064 0.05 0.023 0.041 0.029
C48 0.091 0.06 0.063 0.015 0.036 0.044
C49 0.073 0.044 0.046 0.018 0.026 0.027
O16 0.148 0.073 0.076 0.03 0.073 0.051
loop_
_geom_bond_atom_site_label_1
_geom_bond_atom_site_label_2
_geom_bond_site_symmetry_1
_geom_bond_site_symmetry_2
Cd4 O7 1_555 1_555
C35 C36 1_555 1_555
C41 C36 1_555 1_555
H32 C41 1_555 1_555
O7 C35 1_555 1_555
O9 Cd4 1_555 1_555
C35 O9 1_555 1_555
C17 C18 1_555 1_555
C18 C19 1_555 1_555
C19 H13 1_555 1_555
C20 C19 1_555 1_555
H14 C20 1_555 1_555
C21 C20 1_555 1_555
C22 C21 1_555 1_555
C23 C18 1_555 1_555
O5 C21 1_555 1_555
O6 C17 1_555 1_555
Cd4 O4 1_555 1_555
C17 O4 1_555 1_555
C22 C23 1_555 1_555
O6 Cd4 1_555 1_555
Cd4 N4 1_555 1_555
C28 C27 1_555 1_555
H24 C28 1_555 1_555
C29 C30 1_555 1_555
C30 C31 1_555 1_555
C31 H25 1_555 1_555
C32 C31 1_555 1_555
H26 C32 1_555 1_555
C33 C32 1_555 1_555
H27 C33 1_555 1_555
C34 C33 1_555 1_555
H28 C34 1_555 1_555
H42 C51 1_555 1_555
N4 C28 1_555 1_555
N5 C27 1_555 1_555
N6 Cd4 1_555 1_555
C52 C51 1_555 1_555
H43 C52 1_555 1_555
H44 C52 1_555 1_555
C29 N4 1_555 1_555
C29 N5 1_555 1_555
C30 N6 1_555 1_555
C34 N6 1_555 1_555
N5 C52 1_555 1_555
H40 C50 1_555 1_555
C37 H29 1_555 1_555
C38 C37 1_555 1_555
H30 C38 1_555 1_555
C39 C38 1_555 1_555
C40 C39 1_555 1_555
H31 C40 1_555 1_555
H33 C42 1_555 1_555
H34 C42 1_555 1_555
O11 C39 1_555 1_555
C42 O11 1_555 1_555
C11 H7 1_555 1_555
C12 C11 1_555 1_555
H8 C12 1_555 1_555
C13 C12 1_555 1_555
C14 C13 1_555 1_555
H9 C14 1_555 1_555
C16 H11 1_555 1_555
H12 C16 1_555 1_555
O3 C13 1_555 1_555
C16 O3 1_555 1_555
Cd1 N1 1_555 1_555
C2 C1 1_555 1_555
H2 C2 1_555 1_555
C3 C4 1_555 1_555
C4 C5 1_555 1_555
C5 H3 1_555 1_555
C6 C5 1_555 1_555
H4 C6 1_555 1_555
C7 C6 1_555 1_555
H5 C7 1_555 1_555
C8 C7 1_555 1_555
H6 C8 1_555 1_555
C9 C10 1_555 1_555
C15 C10 1_555 1_555
H10 C15 1_555 1_555
H18 C24 1_555 1_555
H20 C25 1_555 1_555
N1 C2 1_555 1_555
N2 C1 1_555 1_555
N3 Cd1 1_555 1_555
O1 Cd1 1_555 1_555
O2 Cd1 1_555 1_555
C26 C25 1_555 1_555
H21 C26 1_555 1_555
H22 C26 1_555 1_555
O13 Cd1 1_555 1_555
O18 Cd1 1_555 1_555
C3 N1 1_555 1_555
C3 N2 1_555 1_555
C4 N3 1_555 1_555
C8 N3 1_555 1_555
C9 O1 1_555 1_555
C9 O2 1_555 1_555
N2 C26 1_555 1_555
C43 C44 1_555 1_555
C44 C45 1_555 1_555
C45 H35 1_555 1_555
C46 C45 1_555 1_555
H36 C46 1_555 1_555
C47 C46 1_555 1_555
C48 C47 1_555 1_555
C49 C44 1_555 1_555
O13 C43 1_555 1_555
O16 C47 1_555 1_555
C43 O18 1_555 1_555
C48 C49 1_555 1_555

#END
