
###############################################################################
#
# This file contains modified crystal structure data generated from the
# MOF subset of the Cambridge Structural Database (CSD) v543 
# hosted by the Cambridge Crystallographic Data Centre (CCDC).
#
# This work is licensed under the Creative Commons
# Attribution-NonCommercial-ShareAlike 4.0 International License.
# To view a copy of this license, visit
# http://creativecommons.org/licenses/by-nc-sa/4.0/
# or send a letter to
# Creative Commons, PO Box 1866, Mountain View, CA 94042, USA.
#
# CIF created using the CSD Python API on 29 September 2022
# The structure has been converted into the P1 space group
# The structure has a 3D framework
# The original CSD entry GUSCIH01 is in the triclinic crystal system
# The framework has been calculated to contain at least 10.0% void space
# The void calculation uses a probe of radius 1.32A, grid spacing 0.4
#
###############################################################################

data_GUSCIH01
_chemical_formula_moiety         '(C30 H24 Gd2 N4 Ni2 O24)n'
_symmetry_cell_setting           triclinic
_symmetry_space_group_name_H-M   'P 1'
_symmetry_Int_Tables_number      1
_space_group_name_Hall           'P 1'
loop_
_symmetry_equiv_pos_site_id
_symmetry_equiv_pos_as_xyz
1 x,y,z
_cell_length_a                   10.0023(5)
_cell_length_b                   10.6056(6)
_cell_length_c                   10.8144(6)
_cell_angle_alpha                80.5010(10)
_cell_angle_beta                 73.1220(10)
_cell_angle_gamma                74.1350(10)
_cell_volume                     1051.38
loop_
_atom_site_label
_atom_site_type_symbol
_atom_site_fract_x
_atom_site_fract_y
_atom_site_fract_z
_atom_site_U_iso_or_equiv
_atom_site_thermal_displace_type
O29 O 0.1170(2) 0.00806(19) 0.22232(18) 0.0243 Uani
H17 H 0.3812 0.0556 0.1634 0.0420 Uiso
C13 C 0.0067(3) 0.1659(2) 0.0737(3) 0.0190 Uani
C15 C 0.0337(3) 0.1169(3) 0.2054(2) 0.0166 Uani
H12 H 0.187(4) 0.241(3) 0.008(3) 0.0370 Uiso
O3 O 0.0432(2) 0.3915(2) 0.38270(19) 0.0256 Uani
C2 C 0.0597(3) 0.4773(3) 0.4390(2) 0.0177 Uani
H4 H 0.0858 0.1275 0.5158 0.0440 Uiso
C12 C 0.0728(4) 0.2885(3) 0.8682(3) 0.0311 Uani
C14 C 0.1001(4) 0.2349(3) 0.9864(3) 0.0276 Uani
H11 H 0.136(4) 0.335(4) 0.804(4) 0.0500 Uiso
O14 O 0.1637(2) 0.53110(19) 0.40697(18) 0.0230 Uani
Gd2 Gd 0.174929(13) 0.692715(11) 0.536620(11) 0.0142 Uani
O16 O 0.2883(2) 0.76151(18) 0.29919(17) 0.0187 Uani
O17 O 0.4210(2) 0.60331(19) 0.40278(17) 0.0216 Uani
O18 O 0.2674(3) 0.8843(2) 0.5265(2) 0.0376 Uani
O19 O 0.0005(2) 0.8481(2) 0.4396(2) 0.0366 Uani
O20 O 0.2461(2) 0.4892(2) 0.6714(2) 0.0278 Uani
O21 O 0.3300(2) 0.65308(19) 0.6932(2) 0.0270 Uani
O22 O 0.0262(2) 0.80505(19) 0.70976(19) 0.0247 Uani
Ni2 Ni 0.28681(4) 0.86758(3) 0.11991(3) 0.0177 Uani
C17 C 0.4009(3) 0.6697(3) 0.3012(2) 0.0159 Uani
H13 H 0.3084 0.9186 0.4536 0.0450 Uiso
H14 H 0.2588 0.9170 0.5959 0.0450 Uiso
H15 H 0.0252 0.8785 0.3607 0.0440 Uiso
N3 N 0.1342(2) 0.7988(2) 0.0789(2) 0.0188 Uani
N4 N 0.4650(2) 0.7100(2) 0.0696(2) 0.0198 Uani
O28 O 0.4174(2) 0.9777(2) 0.1413(2) 0.0351 Uani
C18 C 0.5067(3) 0.6384(3) 0.1729(3) 0.0168 Uani
C21 C 0.0454(3) 0.7301(3) 0.1603(3) 0.0251 Uani
H18 H 0.5075 0.9454 0.1281 0.0420 Uiso
C23 C 0.6325(3) 0.5403(3) 0.1615(3) 0.0187 Uani
H19 H 0.069(4) 0.693(3) 0.238(3) 0.0300 Uiso
C27 C 0.6860(3) 0.4621(3) 0.2754(3) 0.0193 Uani
C28 C 0.7144(3) 0.5130(3) 0.0373(3) 0.0272 Uani
O31 O 0.7539(2) 0.5108(2) 0.3286(2) 0.0278 Uani
O32 O 0.6700(2) 0.34692(19) 0.3068(2) 0.0270 Uani
H23 H 0.796(4) 0.451(4) 0.026(4) 0.0450 Uiso
Gd5 Gd 0.825071(13) 0.307285(11) 0.463380(11) 0.0142 Uani
O27 O 0.3020(2) 0.94884(19) 0.93532(18) 0.0233 Uani
C19 C 0.2135(3) 0.9302(3) 0.8802(3) 0.0200 Uani
C20 C 0.1092(3) 0.8510(2) 0.9623(2) 0.0173 Uani
C22 C 0.5460(3) 0.6817(3) 0.9509(3) 0.0265 Uani
O30 O 0.2059(2) 0.9738(2) 0.76843(19) 0.0282 Uani
C26 C 0.6710(4) 0.5828(3) 0.9307(3) 0.0301 Uani
H20 H 0.511(4) 0.729(3) 0.884(3) 0.0290 Uiso
H22 H 0.723(4) 0.566(3) 0.846(3) 0.0310 Uiso
Ni4 Ni 0.71319(4) 0.13242(3) 0.88009(3) 0.0177 Uani
O10 O 0.6980(2) 0.05116(19) 0.06468(18) 0.0233 Uani
C5 C 0.7865(3) 0.0698(3) 0.1198(3) 0.0200 Uani
C6 C 0.4540(3) 0.3183(3) 0.0491(3) 0.0265 Uani
C8 C 0.8908(3) 0.1490(2) 0.0377(2) 0.0173 Uani
O13 O 0.7941(2) 0.0262(2) 0.23157(19) 0.0282 Uani
H7 H 0.489(4) 0.271(3) 0.116(3) 0.0290 Uiso
C11 C 0.3290(4) 0.4172(3) 0.0693(3) 0.0301 Uani
H10 H 0.277(4) 0.434(3) 0.154(3) 0.0310 Uiso
O26 O 0.9738(2) 0.19495(19) 0.29024(19) 0.0247 Uani
O1 O 0.5790(2) 0.39669(19) 0.59722(17) 0.0216 Uani
O2 O 0.7117(2) 0.23849(18) 0.70081(17) 0.0187 Uani
O4 O 0.7326(3) 0.1157(2) 0.4735(2) 0.0376 Uani
O5 O 0.9995(2) 0.1519(2) 0.5604(2) 0.0366 Uani
O6 O 0.8363(2) 0.46890(19) 0.59303(18) 0.0230 Uani
C1 C 0.5991(3) 0.3303(3) 0.6988(2) 0.0159 Uani
H1 H 0.6916 0.0814 0.5464 0.0450 Uiso
H2 H 0.7412 0.0830 0.4041 0.0450 Uiso
H3 H 0.9748 0.1215 0.6393 0.0440 Uiso
C3 C 0.4933(3) 0.3616(3) 0.8271(3) 0.0168 Uani
O11 O 0.5826(2) 0.0223(2) 0.8587(2) 0.0351 Uani
N1 N 0.5350(2) 0.2900(2) 0.9304(2) 0.0198 Uani
N2 N 0.8658(2) 0.2012(2) 0.9211(2) 0.0188 Uani
C4 C 0.3675(3) 0.4597(3) 0.8385(3) 0.0187 Uani
H5 H 0.4925 0.0546 0.8719 0.0420 Uiso
C7 C 0.9546(3) 0.2699(3) 0.8397(3) 0.0251 Uani
C9 C 0.2856(3) 0.4870(3) 0.9627(3) 0.0272 Uani
C10 C 0.3140(3) 0.5379(3) 0.7246(3) 0.0193 Uani
H8 H 0.931(4) 0.307(3) 0.762(3) 0.0300 Uiso
H9 H 0.204(4) 0.549(4) 0.974(4) 0.0450 Uiso
C16 C 0.9403(3) 0.5227(3) 0.5610(2) 0.0177 Uani
O15 O 0.9568(2) 0.6085(2) 0.61730(19) 0.0256 Uani
H16 H 0.9142 0.8725 0.4842 0.0440 Uiso
C25 C 0.9272(4) 0.7115(3) 0.1318(3) 0.0311 Uani
C30 C 0.8999(4) 0.7651(3) 0.0136(3) 0.0276 Uani
H21 H 0.864(4) 0.665(4) 0.196(4) 0.0500 Uiso
C24 C 0.9933(3) 0.8341(2) 0.9263(3) 0.0190 Uani
C29 C 0.9663(3) 0.8831(3) 0.7946(2) 0.0166 Uani
O34 O 0.8830(2) 0.99194(19) 0.77768(18) 0.0243 Uani
H24 H 0.813(4) 0.759(3) 0.992(3) 0.0370 Uiso
H6 H 0.6188 0.9444 0.8366 0.0420 Uiso
loop_
_atom_site_aniso_label
_atom_site_aniso_U_11
_atom_site_aniso_U_22
_atom_site_aniso_U_33
_atom_site_aniso_U_23
_atom_site_aniso_U_13
_atom_site_aniso_U_12
O29 0.0281 0.0196 0.0198 -0.0029 -0.0092 0.0071
C13 0.0223 0.0137 0.0181 -0.0025 -0.0053 0.0009
C15 0.0164 0.0178 0.016 -0.0024 -0.0044 -0.0041
O3 0.0239 0.0287 0.0265 -0.0131 -0.0021 -0.0087
C2 0.0199 0.0157 0.0172 -0.0004 -0.0081 -0.0009
C12 0.0387 0.0311 0.0241 0.0058 -0.0069 -0.0153
C14 0.0316 0.0281 0.0267 0.0013 -0.011 -0.0118
O14 0.022 0.0256 0.0221 -0.0072 -0.001 -0.0091
Gd2 0.01602 0.01312 0.01265 -0.00172 -0.00424 -0.00112
O16 0.0177 0.0189 0.0159 -0.001 -0.0051 0.0017
O17 0.0201 0.0253 0.0143 0.0022 -0.0054 0.0014
O18 0.0568 0.038 0.0217 -0.0074 -0.0005 -0.0248
O19 0.0274 0.0457 0.0226 0.0048 -0.0049 0.008
O20 0.0298 0.0259 0.0309 0.0079 -0.0161 -0.0094
O21 0.032 0.0185 0.0316 0.0023 -0.0144 -0.004
O22 0.0272 0.0254 0.0202 -0.0105 -0.0059 0.0004
Ni2 0.01954 0.01778 0.01493 -0.00015 -0.00768 -0.00054
C17 0.016 0.0174 0.0156 -0.0026 -0.0055 -0.0039
N3 0.0223 0.0183 0.0154 -0.0013 -0.0076 -0.0016
N4 0.0198 0.0213 0.0147 0.0003 -0.0044 -0.0003
O28 0.0315 0.0386 0.0395 -0.0055 -0.0084 -0.0149
C18 0.0177 0.0173 0.015 0.0003 -0.0056 -0.0032
C21 0.0361 0.0211 0.0163 0.0033 -0.0081 -0.0054
C23 0.0189 0.018 0.0185 -0.0016 -0.0044 -0.0037
C27 0.014 0.0205 0.0182 -0.0017 -0.0015 0.0016
C28 0.0273 0.0246 0.0233 -0.005 -0.0036 0.0029
O31 0.0298 0.0259 0.0309 0.0079 -0.0161 -0.0094
O32 0.032 0.0185 0.0316 0.0023 -0.0144 -0.004
Gd5 0.01602 0.01312 0.01265 -0.00172 -0.00424 -0.00112
O27 0.025 0.0271 0.0191 0.0037 -0.0102 -0.0072
C19 0.0248 0.0159 0.0167 -0.0029 -0.0063 0.0014
C20 0.0226 0.0132 0.0144 -0.0026 -0.0064 0.0012
C22 0.029 0.0331 0.0146 -0.0004 -0.007 -0.0025
O30 0.0423 0.0298 0.0174 0.0037 -0.0131 -0.0143
C26 0.0343 0.0318 0.0176 -0.0056 -0.0011 -0.0011
Ni4 0.01954 0.01778 0.01493 -0.00015 -0.00768 -0.00054
O10 0.025 0.0271 0.0191 0.0037 -0.0102 -0.0072
C5 0.0248 0.0159 0.0167 -0.0029 -0.0063 0.0014
C6 0.029 0.0331 0.0146 -0.0004 -0.007 -0.0025
C8 0.0226 0.0132 0.0144 -0.0026 -0.0064 0.0012
O13 0.0423 0.0298 0.0174 0.0037 -0.0131 -0.0143
C11 0.0343 0.0318 0.0176 -0.0056 -0.0011 -0.0011
O26 0.0272 0.0254 0.0202 -0.0105 -0.0059 0.0004
O1 0.0201 0.0253 0.0143 0.0022 -0.0054 0.0014
O2 0.0177 0.0189 0.0159 -0.001 -0.0051 0.0017
O4 0.0568 0.038 0.0217 -0.0074 -0.0005 -0.0248
O5 0.0274 0.0457 0.0226 0.0048 -0.0049 0.008
O6 0.022 0.0256 0.0221 -0.0072 -0.001 -0.0091
C1 0.016 0.0174 0.0156 -0.0026 -0.0055 -0.0039
C3 0.0177 0.0173 0.015 0.0003 -0.0056 -0.0032
O11 0.0315 0.0386 0.0395 -0.0055 -0.0084 -0.0149
N1 0.0198 0.0213 0.0147 0.0003 -0.0044 -0.0003
N2 0.0223 0.0183 0.0154 -0.0013 -0.0076 -0.0016
C4 0.0189 0.018 0.0185 -0.0016 -0.0044 -0.0037
C7 0.0361 0.0211 0.0163 0.0033 -0.0081 -0.0054
C9 0.0273 0.0246 0.0233 -0.005 -0.0036 0.0029
C10 0.014 0.0205 0.0182 -0.0017 -0.0015 0.0016
C16 0.0199 0.0157 0.0172 -0.0004 -0.0081 -0.0009
O15 0.0239 0.0287 0.0265 -0.0131 -0.0021 -0.0087
C25 0.0387 0.0311 0.0241 0.0058 -0.0069 -0.0153
C30 0.0316 0.0281 0.0267 0.0013 -0.011 -0.0118
C24 0.0223 0.0137 0.0181 -0.0025 -0.0053 0.0009
C29 0.0164 0.0178 0.016 -0.0024 -0.0044 -0.0041
O34 0.0281 0.0196 0.0198 -0.0029 -0.0092 0.0071
loop_
_geom_bond_atom_site_label_1
_geom_bond_atom_site_label_2
_geom_bond_site_symmetry_1
_geom_bond_site_symmetry_2
C15 C13 1_555 1_555
O29 C15 1_555 1_555
C2 O3 1_555 1_555
C14 C12 1_555 1_555
H11 C12 1_555 1_555
O14 C2 1_555 1_555
Gd2 O14 1_555 1_555
O16 Gd2 1_555 1_555
O17 Gd2 1_555 1_555
O18 Gd2 1_555 1_555
O19 Gd2 1_555 1_555
O20 Gd2 1_555 1_555
O21 Gd2 1_555 1_555
O22 Gd2 1_555 1_555
Ni2 O16 1_555 1_555
C17 O16 1_555 1_555
H13 O18 1_555 1_555
H14 O18 1_555 1_555
H15 O19 1_555 1_555
N3 Ni2 1_555 1_555
N4 Ni2 1_555 1_555
O28 Ni2 1_555 1_555
C18 C17 1_555 1_555
C21 N3 1_555 1_555
H18 O28 1_555 1_555
C23 C18 1_555 1_555
H19 C21 1_555 1_555
C27 C23 1_555 1_555
C28 C23 1_555 1_555
O31 C27 1_555 1_555
O32 C27 1_555 1_555
H23 C28 1_555 1_555
Gd5 O31 1_555 1_555
O17 C17 1_555 1_555
N4 C18 1_555 1_555
O32 Gd5 1_555 1_555
C19 O27 1_555 1_555
O30 C19 1_555 1_555
C26 C22 1_555 1_555
H20 C22 1_555 1_555
H22 C26 1_555 1_555
C19 C20 1_555 1_555
C5 O10 1_555 1_555
O13 C5 1_555 1_555
H7 C6 1_555 1_555
C11 C6 1_555 1_555
H10 C11 1_555 1_555
Gd5 O26 1_555 1_555
C5 C8 1_555 1_555
Gd5 O1 1_555 1_555
O1 C1 1_555 1_555
O2 Gd5 1_555 1_555
O4 Gd5 1_555 1_555
O5 Gd5 1_555 1_555
O6 Gd5 1_555 1_555
C1 O2 1_555 1_555
Ni4 O2 1_555 1_555
H1 O4 1_555 1_555
H2 O4 1_555 1_555
H3 O5 1_555 1_555
C3 C1 1_555 1_555
O11 Ni4 1_555 1_555
N1 Ni4 1_555 1_555
N2 Ni4 1_555 1_555
C4 C3 1_555 1_555
H5 O11 1_555 1_555
C7 N2 1_555 1_555
C9 C4 1_555 1_555
C10 C4 1_555 1_555
H8 C7 1_555 1_555
H9 C9 1_555 1_555
C16 O6 1_555 1_555
O15 C16 1_555 1_555
O20 C10 1_555 1_555
O21 C10 1_555 1_555
H21 C25 1_555 1_555
C3 N1 1_555 1_555
C25 C30 1_555 1_555
C29 C24 1_555 1_555
O34 C29 1_555 1_555

#END
