
###############################################################################
#
# This file contains modified crystal structure data generated from the
# MOF subset of the Cambridge Structural Database (CSD) v543 
# hosted by the Cambridge Crystallographic Data Centre (CCDC).
#
# This work is licensed under the Creative Commons
# Attribution-NonCommercial-ShareAlike 4.0 International License.
# To view a copy of this license, visit
# http://creativecommons.org/licenses/by-nc-sa/4.0/
# or send a letter to
# Creative Commons, PO Box 1866, Mountain View, CA 94042, USA.
#
# CIF created using the CSD Python API on 29 September 2022
# The structure has been converted into the P1 space group
# The structure has a 3D framework
# The original CSD entry GUVZEE is in the rhombohedral crystal system
# The framework has been calculated to contain at least 10.0% void space
# The void calculation uses a probe of radius 1.32A, grid spacing 0.4
#
###############################################################################

data_GUVZEE
_chemical_formula_moiety         '(C72 H18 Fe18 O90)n'
_symmetry_cell_setting           triclinic
_symmetry_space_group_name_H-M   'P 1'
_symmetry_Int_Tables_number      1
_space_group_name_Hall           'P 1'
loop_
_symmetry_equiv_pos_site_id
_symmetry_equiv_pos_as_xyz
1 x,y,z
_cell_length_a                   25.5177(9)
_cell_length_b                   25.5177
_cell_length_c                   6.9661(4)
_cell_angle_alpha                90
_cell_angle_beta                 90
_cell_angle_gamma                120
_cell_volume                     3928.29
loop_
_atom_site_label
_atom_site_type_symbol
_atom_site_fract_x
_atom_site_fract_y
_atom_site_fract_z
_atom_site_U_iso_or_equiv
_atom_site_thermal_displace_type
Fe1 Fe 0.38873(29) 0.35262(31) 0.1477(10) 0.0093 Uiso
O1 O 0.3182(6) 0.2951(5) 0.3500(16) 0.0190 Uiso
O2 O 0.3068(5) 0.2318(6) 0.5894(17) 0.0267 Uiso
O3 O 0.3545(5) 0.2758(5) 0.0009(16) 0.0093 Uiso
C1 C 0.3189(5) 0.2489(5) 0.4144(13) 0.0091 Uiso
C2 C 0.3276(5) 0.2071(5) 0.2780(16) 0.0099 Uiso
C3 C 0.3444(5) 0.2224(5) 0.0839(15) 0.0201 Uiso
O4 O 0.4409(6) 0.3301(6) 0.3225(20) 0.0106 Uiso
O5 O 0.4764(6) 0.3683(6) 0.2045(17) 0.0116 Uiso
O8 O 0.3122(5) 0.0575(5) 0.3324(16) 0.0093 Uiso
C6 C 0.3391(5) 0.1262(5) 0.0553(16) 0.0099 Uiso
C7 C 0.3223(5) 0.1109(5) 0.2494(15) 0.0201 Uiso
C8 C 0.3155(4) 0.1527(5) 0.3610(12) 0.0166 Uiso
H2 H 0.3071(9) 0.1472(8) 0.5088(22) 0.0129 Uiso
Fe4 Fe 0.29722(42) 0.27794(29) 0.8144(10) 0.0093 Uiso
Fe6 Fe 0.31405(31) 0.36944(42) 0.4810(10) 0.0093 Uiso
Fe8 Fe 0.36944(42) 0.05540(29) 0.5190(10) 0.0093 Uiso
O12 O 0.3102(8) 0.3485(6) 0.0167(16) 0.0190 Uiso
O16 O 0.3909(5) 0.4120(7) 0.3342(16) 0.0093 Uiso
C4 C 0.3512(4) 0.1806(5) 0.9723(12) 0.0166 Uiso
H1 H 0.3596(9) 0.1861(8) 0.8245(22) 0.0129 Uiso
O6 O 0.3485(6) 0.0382(5) 0.9833(16) 0.0190 Uiso
O7 O 0.3599(5) 0.1015(6) 0.7439(17) 0.0267 Uiso
C5 C 0.3478(5) 0.0844(5) 0.9189(13) 0.0091 Uiso
O13 O 0.4349(6) 0.4083(8) 0.9227(17) 0.0267 Uiso
O17 O 0.4120(7) 0.0212(5) 0.6658(16) 0.0093 Uiso
Fe5 Fe 0.27794(29) 0.98071(31) 0.1856(10) 0.0093 Uiso
O14 O 0.4083(8) 0.9735(5) 0.0773(17) 0.0267 Uiso
Fe2 Fe 0.35262(31) 0.96389(42) 0.8523(10) 0.0093 Uiso
O9 O 0.3301(6) 0.8892(8) 0.6775(20) 0.0106 Uiso
O10 O 0.3683(6) 0.8919(8) 0.7955(17) 0.0116 Uiso
O11 O 0.2951(5) 0.9769(8) 0.6500(16) 0.0190 Uiso
O15 O 0.2758(5) 0.9213(7) 0.9991(16) 0.0093 Uiso
Fe5_2 Fe 0.01929(31) 0.29722(42) 0.1856(10) 0.0093 Uiso
O14_2 O 0.0265(5) 0.4349(9) 0.0773(17) 0.0267 Uiso
Fe2_2 Fe 0.03611(42) 0.38873(52) 0.8523(10) 0.0093 Uiso
O9_2 O 0.1108(8) 0.4409(10) 0.6775(20) 0.0106 Uiso
O10_2 O 0.1081(8) 0.4764(10) 0.7955(17) 0.0116 Uiso
O11_2 O 0.0231(8) 0.3182(9) 0.6500(16) 0.0190 Uiso
O15_2 O 0.0787(7) 0.3545(9) 0.9991(16) 0.0093 Uiso
Fe1_2 Fe 0.64738(31) 0.03611(42) 0.1477(10) 0.0093 Uiso
O1_2 O 0.7049(5) 0.0231(8) 0.3500(16) 0.0190 Uiso
O2_2 O 0.7682(6) 0.0750(8) 0.5894(17) 0.0267 Uiso
O3_2 O 0.7242(5) 0.0787(7) 0.0009(16) 0.0093 Uiso
C1_2 C 0.7511(5) 0.0700(7) 0.4144(13) 0.0091 Uiso
C2_2 C 0.7929(5) 0.1205(7) 0.2780(16) 0.0099 Uiso
C3_2 C 0.7776(5) 0.1220(7) 0.0839(15) 0.0201 Uiso
O4_2 O 0.6699(6) 0.1108(8) 0.3225(20) 0.0106 Uiso
O5_2 O 0.6317(6) 0.1081(8) 0.2045(17) 0.0116 Uiso
O8_2 O 0.9425(5) 0.2546(7) 0.3324(16) 0.0093 Uiso
C6_2 C 0.8738(5) 0.2128(7) 0.0553(16) 0.0099 Uiso
C7_2 C 0.8891(5) 0.2113(7) 0.2494(15) 0.0201 Uiso
C8_2 C 0.8473(5) 0.1627(6) 0.3610(12) 0.0166 Uiso
H2_2 H 0.8528(8) 0.1598(12) 0.5088(22) 0.0129 Uiso
Fe4_2 Fe 0.72206(29) 0.01929(51) 0.8144(10) 0.0093 Uiso
Fe8_2 Fe 0.94460(29) 0.31405(51) 0.5190(10) 0.0093 Uiso
C4_2 C 0.8194(5) 0.1706(6) 0.9723(12) 0.0166 Uiso
H1_2 H 0.8139(8) 0.1735(12) 0.8245(22) 0.0129 Uiso
O6_2 O 0.9618(5) 0.3102(8) 0.9833(16) 0.0190 Uiso
O7_2 O 0.8985(6) 0.2583(8) 0.7439(17) 0.0267 Uiso
C5_2 C 0.9156(5) 0.2633(7) 0.9189(13) 0.0091 Uiso
O13_2 O 0.5917(8) 0.0265(10) 0.9227(17) 0.0267 Uiso
O17_2 O 0.9788(5) 0.3909(9) 0.6658(16) 0.0093 Uiso
Fe6_2 Fe 0.63056(42) 0.94460(52) 0.4810(10) 0.0093 Uiso
O12_2 O 0.6515(6) 0.9618(10) 0.0167(16) 0.0190 Uiso
O16_2 O 0.5880(7) 0.9788(9) 0.3342(16) 0.0093 Uiso
Fe6_3 Fe 0.05540(52) 0.68595(31) 0.4810(10) 0.0093 Uiso
O12_3 O 0.0382(10) 0.6898(8) 0.0167(16) 0.0190 Uiso
O16_3 O 0.0212(9) 0.6091(5) 0.3342(16) 0.0093 Uiso
Fe1_3 Fe 0.96389(42) 0.61127(29) 0.1477(10) 0.0093 Uiso
O1_3 O 0.9769(8) 0.6818(6) 0.3500(16) 0.0190 Uiso
O2_3 O 0.9250(8) 0.6932(5) 0.5894(17) 0.0267 Uiso
O3_3 O 0.9213(7) 0.6455(5) 0.0009(16) 0.0093 Uiso
C1_3 C 0.9300(7) 0.6811(5) 0.4144(13) 0.0091 Uiso
C2_3 C 0.8795(7) 0.6724(5) 0.2780(16) 0.0099 Uiso
C3_3 C 0.8780(7) 0.6556(5) 0.0839(15) 0.0201 Uiso
O4_3 O 0.8892(8) 0.5591(6) 0.3225(20) 0.0106 Uiso
O5_3 O 0.8919(8) 0.5236(6) 0.2045(17) 0.0116 Uiso
O8_3 O 0.7454(7) 0.6878(5) 0.3324(16) 0.0093 Uiso
C6_3 C 0.7872(7) 0.6609(5) 0.0553(16) 0.0099 Uiso
C7_3 C 0.7887(7) 0.6777(5) 0.2494(15) 0.0201 Uiso
C8_3 C 0.8373(6) 0.6845(4) 0.3610(12) 0.0166 Uiso
H2_3 H 0.8402(12) 0.6929(9) 0.5088(22) 0.0129 Uiso
Fe4_3 Fe 0.98071(51) 0.70278(42) 0.8144(10) 0.0093 Uiso
Fe5_3 Fe 0.70278(42) 0.72206(29) 0.1856(10) 0.0093 Uiso
Fe8_3 Fe 0.68595(51) 0.63056(42) 0.5190(10) 0.0093 Uiso
O14_3 O 0.5651(9) 0.5917(8) 0.0773(17) 0.0267 Uiso
C4_3 C 0.8294(6) 0.6488(4) 0.9723(12) 0.0166 Uiso
H1_3 H 0.8265(12) 0.6404(9) 0.8245(22) 0.0129 Uiso
O6_3 O 0.6898(8) 0.6515(6) 0.9833(16) 0.0190 Uiso
O7_3 O 0.7417(8) 0.6401(5) 0.7439(17) 0.0267 Uiso
C5_3 C 0.7367(7) 0.6522(5) 0.9189(13) 0.0091 Uiso
Fe2_3 Fe 0.61127(52) 0.64738(31) 0.8523(10) 0.0093 Uiso
O9_3 O 0.5591(10) 0.6699(6) 0.6775(20) 0.0106 Uiso
O10_3 O 0.5236(10) 0.6317(6) 0.7955(17) 0.0116 Uiso
O11_3 O 0.6818(9) 0.7049(5) 0.6500(16) 0.0190 Uiso
O13_3 O 0.9735(10) 0.5651(6) 0.9227(17) 0.0267 Uiso
O15_3 O 0.6455(9) 0.7242(5) 0.9991(16) 0.0093 Uiso
O17_3 O 0.6091(9) 0.5880(7) 0.6658(16) 0.0093 Uiso
O5_4 O 0.8097(6) 0.0350(6) 0.8712(17) 0.0116 Uiso
O12_4 O 0.6436(8) 0.0151(6) 0.6833(16) 0.0190 Uiso
O2_4 O 0.6401(5) 0.8985(6) 0.2561(17) 0.0267 Uiso
C1_4 C 0.6522(5) 0.9156(5) 0.0811(13) 0.0091 Uiso
C8_4 C 0.6488(4) 0.8194(5) 0.0277(12) 0.0166 Uiso
H2_4 H 0.6404(9) 0.8139(8) 0.1755(22) 0.0129 Uiso
O3_4 O 0.6878(5) 0.9425(5) 0.6676(16) 0.0093 Uiso
C2_4 C 0.6609(5) 0.8738(5) 0.9447(16) 0.0099 Uiso
C3_4 C 0.6777(5) 0.8891(5) 0.7506(15) 0.0201 Uiso
C4_4 C 0.6845(4) 0.8473(5) 0.6390(12) 0.0166 Uiso
H1_4 H 0.6929(9) 0.8528(8) 0.4912(22) 0.0129 Uiso
O4_4 O 0.7742(6) 0.9968(6) 0.9892(20) 0.0106 Uiso
O7_4 O 0.6932(5) 0.7682(6) 0.4106(17) 0.0267 Uiso
C5_4 C 0.6811(5) 0.7511(5) 0.5856(13) 0.0091 Uiso
C6_4 C 0.6724(5) 0.7929(5) 0.7220(16) 0.0099 Uiso
C7_4 C 0.6556(5) 0.7776(5) 0.9161(15) 0.0201 Uiso
O9_4 O 0.6634(6) 0.5559(8) 0.3442(20) 0.0106 Uiso
O10_4 O 0.7016(6) 0.5586(8) 0.4622(17) 0.0116 Uiso
O11_4 O 0.6284(5) 0.6436(8) 0.3167(16) 0.0190 Uiso
O9_5 O 0.4441(8) 0.1076(10) 0.3442(20) 0.0106 Uiso
O10_5 O 0.4414(8) 0.1431(10) 0.4622(17) 0.0116 Uiso
O2_5 O 0.1015(6) 0.7417(8) 0.2561(17) 0.0267 Uiso
C1_5 C 0.0844(5) 0.7367(7) 0.0811(13) 0.0091 Uiso
C8_5 C 0.1806(5) 0.8294(6) 0.0277(12) 0.0166 Uiso
H2_5 H 0.1861(8) 0.8265(12) 0.1755(22) 0.0129 Uiso
O3_5 O 0.0575(5) 0.7454(7) 0.6676(16) 0.0093 Uiso
C2_5 C 0.1262(5) 0.7872(7) 0.9447(16) 0.0099 Uiso
C3_5 C 0.1109(5) 0.7887(7) 0.7506(15) 0.0201 Uiso
C4_5 C 0.1527(5) 0.8373(6) 0.6390(12) 0.0166 Uiso
H1_5 H 0.1472(8) 0.8402(12) 0.4912(22) 0.0129 Uiso
O4_5 O 0.0032(6) 0.7775(8) 0.9892(20) 0.0106 Uiso
O7_5 O 0.2318(6) 0.9250(8) 0.4106(17) 0.0267 Uiso
C5_5 C 0.2489(5) 0.9300(7) 0.5856(13) 0.0091 Uiso
C6_5 C 0.2071(5) 0.8795(7) 0.7220(16) 0.0099 Uiso
C7_5 C 0.2224(5) 0.8780(7) 0.9161(15) 0.0201 Uiso
O11_5 O 0.3564(8) 0.9849(9) 0.3167(16) 0.0190 Uiso
O5_5 O 0.9650(6) 0.7748(8) 0.8712(17) 0.0116 Uiso
O12_5 O 0.9849(6) 0.6284(10) 0.6833(16) 0.0190 Uiso
O2_6 O 0.2583(8) 0.3599(5) 0.2561(17) 0.0267 Uiso
C1_6 C 0.2633(7) 0.3478(5) 0.0811(13) 0.0091 Uiso
C8_6 C 0.1706(6) 0.3512(4) 0.0277(12) 0.0166 Uiso
H2_6 H 0.1735(12) 0.3596(9) 0.1755(22) 0.0129 Uiso
O3_6 O 0.2546(7) 0.3122(5) 0.6676(16) 0.0093 Uiso
C2_6 C 0.2128(7) 0.3391(5) 0.9447(16) 0.0099 Uiso
C3_6 C 0.2113(7) 0.3223(5) 0.7506(15) 0.0201 Uiso
C4_6 C 0.1627(6) 0.3155(4) 0.6390(12) 0.0166 Uiso
H1_6 H 0.1598(12) 0.3071(9) 0.4912(22) 0.0129 Uiso
O4_6 O 0.2225(8) 0.2258(6) 0.9892(20) 0.0106 Uiso
O5_6 O 0.2252(8) 0.1903(6) 0.8712(17) 0.0116 Uiso
O7_6 O 0.0750(8) 0.3068(5) 0.4106(17) 0.0267 Uiso
C5_6 C 0.0700(7) 0.3189(5) 0.5856(13) 0.0091 Uiso
C6_6 C 0.1205(7) 0.3276(5) 0.7220(16) 0.0099 Uiso
C7_6 C 0.1220(7) 0.3444(5) 0.9161(15) 0.0201 Uiso
O11_6 O 0.0151(9) 0.3716(5) 0.3167(16) 0.0190 Uiso
O12_6 O 0.3716(10) 0.3564(8) 0.6833(16) 0.0190 Uiso
O9_6 O 0.8924(10) 0.3366(6) 0.3442(20) 0.0106 Uiso
O10_6 O 0.8569(10) 0.2984(6) 0.4622(17) 0.0116 Uiso
C3_7 C 0.0111(5) 0.5557(5) 0.4172(15) 0.0201 Uiso
C4_7 C 0.0179(4) 0.5139(5) 0.3056(12) 0.0166 Uiso
H1_7 H 0.0263(9) 0.5194(8) 0.1578(22) 0.0129 Uiso
O4_7 O 0.1076(6) 0.6634(6) 0.6558(20) 0.0106 Uiso
O5_7 O 0.1431(6) 0.7016(6) 0.5378(17) 0.0116 Uiso
C5_7 C 0.0144(5) 0.4178(5) 0.2523(13) 0.0091 Uiso
C6_7 C 0.0057(5) 0.4596(5) 0.3887(16) 0.0099 Uiso
O10_7 O 0.0350(6) 0.2252(8) 0.1288(17) 0.0116 Uiso
C1_7 C 0.9856(5) 0.5822(5) 0.7477(13) 0.0091 Uiso
C2_7 C 0.9943(5) 0.5404(5) 0.6113(16) 0.0099 Uiso
C7_7 C 0.9889(5) 0.4443(5) 0.5828(15) 0.0201 Uiso
C8_7 C 0.9821(4) 0.4861(5) 0.6944(12) 0.0166 Uiso
H2_7 H 0.9737(9) 0.4806(8) 0.8422(22) 0.0129 Uiso
O9_7 O 0.9968(6) 0.2225(8) 0.0108(20) 0.0106 Uiso
C1_8 C 0.4178(5) 0.4033(7) 0.7477(13) 0.0091 Uiso
C2_8 C 0.4596(5) 0.4538(7) 0.6113(16) 0.0099 Uiso
C3_8 C 0.4443(5) 0.4553(7) 0.4172(15) 0.0201 Uiso
C4_8 C 0.4861(5) 0.5039(6) 0.3056(12) 0.0166 Uiso
H1_8 H 0.4806(8) 0.5068(12) 0.1578(22) 0.0129 Uiso
O4_8 O 0.3366(6) 0.4441(8) 0.6558(20) 0.0106 Uiso
O5_8 O 0.2984(6) 0.4414(8) 0.5378(17) 0.0116 Uiso
C5_8 C 0.5822(5) 0.5967(7) 0.2523(13) 0.0091 Uiso
C6_8 C 0.5404(5) 0.5462(7) 0.3887(16) 0.0099 Uiso
C7_8 C 0.5557(5) 0.5447(7) 0.5828(15) 0.0201 Uiso
C8_8 C 0.5139(5) 0.4961(6) 0.6944(12) 0.0166 Uiso
H2_8 H 0.5194(8) 0.4932(12) 0.8422(22) 0.0129 Uiso
O9_8 O 0.7775(8) 0.7742(10) 0.0108(20) 0.0106 Uiso
O10_8 O 0.7748(8) 0.8097(10) 0.1288(17) 0.0116 Uiso
C1_9 C 0.5967(7) 0.0144(5) 0.7477(13) 0.0091 Uiso
C2_9 C 0.5462(7) 0.0057(5) 0.6113(16) 0.0099 Uiso
C7_9 C 0.4553(7) 0.0111(5) 0.5828(15) 0.0201 Uiso
C8_9 C 0.5039(6) 0.0179(4) 0.6944(12) 0.0166 Uiso
H2_9 H 0.5068(12) 0.0263(9) 0.8422(22) 0.0129 Uiso
O9_9 O 0.2258(10) 0.0032(6) 0.0108(20) 0.0106 Uiso
C3_9 C 0.5447(7) 0.9889(5) 0.4172(15) 0.0201 Uiso
C4_9 C 0.4961(6) 0.9821(4) 0.3056(12) 0.0166 Uiso
H1_9 H 0.4932(12) 0.9737(9) 0.1578(22) 0.0129 Uiso
O4_9 O 0.5559(8) 0.8924(6) 0.6558(20) 0.0106 Uiso
O5_9 O 0.5586(8) 0.8569(6) 0.5378(17) 0.0116 Uiso
C5_9 C 0.4033(7) 0.9856(5) 0.2523(13) 0.0091 Uiso
C6_9 C 0.4538(7) 0.9943(5) 0.3887(16) 0.0099 Uiso
O10_9 O 0.1903(10) 0.9650(6) 0.1288(17) 0.0116 Uiso
loop_
_geom_bond_atom_site_label_1
_geom_bond_atom_site_label_2
_geom_bond_site_symmetry_1
_geom_bond_site_symmetry_2
Fe1 O1 1_555 1_555
O1 C1 1_555 1_555
O2 C1 1_555 1_555
O3 Fe1 1_555 1_555
C1 C2 1_555 1_555
C2 C3 1_555 1_555
C3 O3 1_555 1_555
O4 Fe1 1_555 1_555
O5 Fe1 1_555 1_555
O8 C7 1_555 1_555
C7 C6 1_555 1_555
C8 C2 1_555 1_555
H2 C8 1_555 1_555
Fe4 O2 1_555 1_555
Fe6 O1 1_555 1_555
Fe8 O8 1_555 1_555
O12 Fe1 1_555 1_555
O16 Fe1 1_555 1_555
O4 O5 1_555 1_555
C7 C8 1_555 1_555
Fe6 O16 1_555 1_555
H1 C4 1_555 1_555
O6 C5 1_555 1_555
O7 C5 1_555 1_555
Fe8 O7 1_555 1_555
Fe8 O17 1_555 1_555
O9 Fe2 1_555 1_555
O10 Fe2 1_555 1_555
O11 Fe2 1_555 1_555
O15 Fe2 1_555 1_555
O9 O10 1_555 1_555
O9_2 Fe2_2 1_555 1_555
O10_2 Fe2_2 1_555 1_555
O11_2 Fe2_2 1_555 1_555
O15_2 Fe2_2 1_555 1_555
O9_2 O10_2 1_555 1_555
Fe1_2 O1_2 1_555 1_555
O1_2 C1_2 1_555 1_555
O2_2 C1_2 1_555 1_555
O3_2 Fe1_2 1_555 1_555
C1_2 C2_2 1_555 1_555
C2_2 C3_2 1_555 1_555
C3_2 O3_2 1_555 1_555
O4_2 Fe1_2 1_555 1_555
O5_2 Fe1_2 1_555 1_555
O8_2 C7_2 1_555 1_555
C7_2 C6_2 1_555 1_555
C8_2 C2_2 1_555 1_555
H2_2 C8_2 1_555 1_555
Fe4_2 O2_2 1_555 1_555
Fe8_2 O8_2 1_555 1_555
O4_2 O5_2 1_555 1_555
C7_2 C8_2 1_555 1_555
H1_2 C4_2 1_555 1_555
O6_2 C5_2 1_555 1_555
O7_2 C5_2 1_555 1_555
Fe8_2 O7_2 1_555 1_555
Fe8_2 O17_2 1_555 1_555
Fe6_2 O16_2 1_555 1_555
Fe6_3 O16_3 1_555 1_555
Fe1_3 O1_3 1_555 1_555
O1_3 C1_3 1_555 1_555
O2_3 C1_3 1_555 1_555
O3_3 Fe1_3 1_555 1_555
C1_3 C2_3 1_555 1_555
C2_3 C3_3 1_555 1_555
C3_3 O3_3 1_555 1_555
O4_3 Fe1_3 1_555 1_555
O5_3 Fe1_3 1_555 1_555
O8_3 C7_3 1_555 1_555
C7_3 C6_3 1_555 1_555
C8_3 C2_3 1_555 1_555
H2_3 C8_3 1_555 1_555
Fe4_3 O2_3 1_555 1_555
Fe8_3 O8_3 1_555 1_555
O4_3 O5_3 1_555 1_555
O8_3 Fe5_3 1_555 1_555
C7_3 C8_3 1_555 1_555
H1_3 C4_3 1_555 1_555
O6_3 C5_3 1_555 1_555
O7_3 C5_3 1_555 1_555
Fe2_3 O6_3 1_555 1_555
O9_3 Fe2_3 1_555 1_555
O10_3 Fe2_3 1_555 1_555
Fe8_3 O7_3 1_555 1_555
O11_3 Fe2_3 1_555 1_555
O15_3 Fe2_3 1_555 1_555
O17_3 Fe2_3 1_555 1_555
O9_3 O10_3 1_555 1_555
Fe8_3 O11_3 1_555 1_555
Fe8_3 O17_3 1_555 1_555
O5_4 Fe4_2 1_555 1_555
O12_4 Fe4_2 1_555 1_555
O12_2 C1_4 1_555 1_555
O2_4 C1_4 1_555 1_555
H2_4 C8_4 1_555 1_555
Fe6_2 O2_4 1_555 1_555
C2_4 C3_4 1_555 1_555
C3_4 O3_4 1_555 1_555
C4_4 C3_4 1_555 1_555
H1_4 C4_4 1_555 1_555
O11_3 C5_4 1_555 1_555
O7_4 C5_4 1_555 1_555
O15_3 C7_4 1_555 1_555
C5_4 C6_4 1_555 1_555
C6_4 C4_4 1_555 1_555
C7_4 C6_4 1_555 1_555
O9_4 Fe8_3 1_555 1_555
O10_4 Fe8_3 1_555 1_555
Fe6_2 O3_4 1_555 1_555
Fe5_3 O7_4 1_555 1_555
O11_4 Fe8_3 1_555 1_555
O9_4 O10_4 1_555 1_555
Fe5_3 O11_4 1_555 1_555
O9_5 Fe8 1_555 1_555
O10_5 Fe8 1_555 1_555
O9_5 O10_5 1_555 1_555
O12_3 C1_5 1_555 1_555
O2_5 C1_5 1_555 1_555
H2_5 C8_5 1_555 1_555
Fe6_3 O2_5 1_555 1_555
C2_5 C3_5 1_555 1_555
C3_5 O3_5 1_555 1_555
C4_5 C3_5 1_555 1_555
H1_5 C4_5 1_555 1_555
O11 C5_5 1_555 1_555
O7_5 C5_5 1_555 1_555
O15 C7_5 1_555 1_555
C5_5 C6_5 1_555 1_555
C6_5 C4_5 1_555 1_555
C7_5 C6_5 1_555 1_555
Fe6_3 O3_5 1_555 1_555
Fe5 O7_5 1_555 1_555
Fe5 O11_5 1_555 1_555
O5_5 Fe4_3 1_555 1_555
O12_5 Fe4_3 1_555 1_555
O12 C1_6 1_555 1_555
O2_6 C1_6 1_555 1_555
H2_6 C8_6 1_555 1_555
Fe6 O2_6 1_555 1_555
O3_6 Fe4 1_555 1_555
C2_6 C3_6 1_555 1_555
C3_6 O3_6 1_555 1_555
C4_6 C3_6 1_555 1_555
H1_6 C4_6 1_555 1_555
O4_6 Fe4 1_555 1_555
O5_6 Fe4 1_555 1_555
O11_2 C5_6 1_555 1_555
O7_6 C5_6 1_555 1_555
O15_2 C7_6 1_555 1_555
C5_6 C6_6 1_555 1_555
C6_6 C4_6 1_555 1_555
C7_6 C6_6 1_555 1_555
Fe6 O3_6 1_555 1_555
Fe5_2 O7_6 1_555 1_555
O12_6 Fe4 1_555 1_555
O4_6 O5_6 1_555 1_555
Fe6 O12_6 1_555 1_555
Fe5_2 O11_6 1_555 1_555
O9_6 Fe8_2 1_555 1_555
O10_6 Fe8_2 1_555 1_555
O9_6 O10_6 1_555 1_555
C3_7 O16_3 1_555 1_555
C4_7 C3_7 1_555 1_555
H1_7 C4_7 1_555 1_555
O4_7 Fe6_3 1_555 1_555
O5_7 Fe6_3 1_555 1_555
O11_6 C5_7 1_555 1_555
O14_2 C5_7 1_555 1_555
C5_7 C6_7 1_555 1_555
C6_7 C4_7 1_555 1_555
O10_7 Fe5_2 1_555 1_555
O4_7 O5_7 1_555 1_555
O12_5 C1_7 1_555 1_555
O13_3 C1_7 1_555 1_555
C1_7 C2_7 1_555 1_555
O17_2 C7_7 1_555 1_555
C8_7 C2_7 1_555 1_555
H2_7 C8_7 1_555 1_555
C7_7 C8_7 1_555 1_555
O12_6 C1_8 1_555 1_555
O13 C1_8 1_555 1_555
C1_8 C2_8 1_555 1_555
C2_8 C3_8 1_555 1_555
C3_8 O16 1_555 1_555
C4_8 C3_8 1_555 1_555
H1_8 C4_8 1_555 1_555
O4_8 Fe6 1_555 1_555
O5_8 Fe6 1_555 1_555
O11_4 C5_8 1_555 1_555
O14_3 C5_8 1_555 1_555
O17_3 C7_8 1_555 1_555
C5_8 C6_8 1_555 1_555
C6_8 C4_8 1_555 1_555
C7_8 C6_8 1_555 1_555
C8_8 C2_8 1_555 1_555
H2_8 C8_8 1_555 1_555
O9_8 Fe5_3 1_555 1_555
O10_8 Fe5_3 1_555 1_555
O4_8 O5_8 1_555 1_555
C7_8 C8_8 1_555 1_555
O9_8 O10_8 1_555 1_555
O12_4 C1_9 1_555 1_555
O13_2 C1_9 1_555 1_555
C1_9 C2_9 1_555 1_555
O17 C7_9 1_555 1_555
C8_9 C2_9 1_555 1_555
H2_9 C8_9 1_555 1_555
C7_9 C8_9 1_555 1_555
C3_9 O16_2 1_555 1_555
C4_9 C3_9 1_555 1_555
H1_9 C4_9 1_555 1_555
O4_9 Fe6_2 1_555 1_555
O5_9 Fe6_2 1_555 1_555
O11_5 C5_9 1_555 1_555
O14 C5_9 1_555 1_555
C5_9 C6_9 1_555 1_555
C6_9 C4_9 1_555 1_555
O10_9 Fe5 1_555 1_555
O4_9 O5_9 1_555 1_555

#END
