
###############################################################################
#
# This file contains modified crystal structure data generated from the
# MOF subset of the Cambridge Structural Database (CSD) v543 
# hosted by the Cambridge Crystallographic Data Centre (CCDC).
#
# This work is licensed under the Creative Commons
# Attribution-NonCommercial-ShareAlike 4.0 International License.
# To view a copy of this license, visit
# http://creativecommons.org/licenses/by-nc-sa/4.0/
# or send a letter to
# Creative Commons, PO Box 1866, Mountain View, CA 94042, USA.
#
# CIF created using the CSD Python API on 29 September 2022
# The structure has been converted into the P1 space group
# The structure has a 3D framework
# The original CSD entry GUWDUY is in the triclinic crystal system
# The framework has been calculated to contain at least 10.0% void space
# The void calculation uses a probe of radius 1.32A, grid spacing 0.4
#
###############################################################################

data_GUWDUY
_chemical_formula_moiety         '(C50 H40 Cl6 La2 N10)n'
_symmetry_cell_setting           triclinic
_symmetry_space_group_name_H-M   'P 1'
_symmetry_Int_Tables_number      1
_space_group_name_Hall           'P 1'
loop_
_symmetry_equiv_pos_site_id
_symmetry_equiv_pos_as_xyz
1 x,y,z
_cell_length_a                   13.447(3)
_cell_length_b                   13.715(3)
_cell_length_c                   14.301(3)
_cell_angle_alpha                79.48(3)
_cell_angle_beta                 63.90(3)
_cell_angle_gamma                65.68(3)
_cell_volume                     2158.33
loop_
_atom_site_label
_atom_site_type_symbol
_atom_site_fract_x
_atom_site_fract_y
_atom_site_fract_z
_atom_site_U_iso_or_equiv
_atom_site_thermal_displace_type
La5 La 0.47581(3) 0.08046(3) 0.34187(2) 0.0264 Uani
N11 N 0.2816(3) 0.0219(4) 0.4171(3) 0.0415 Uani
C40 C 0.0593(4) 0.0032(5) 0.4826(4) 0.0397 Uani
C49 C 0.2300(6) 0.0355(8) 0.3534(5) 0.0964 Uani
H39 H 0.2705 0.0521 0.2828 0.1160 Uiso
C50 C 0.1219(6) 0.0274(9) 0.3814(5) 0.1093 Uani
H40 H 0.0903 0.0385 0.3308 0.1310 Uiso
N9 N 0.2663(3) 0.2663(4) 0.4065(3) 0.0403 Uani
C26 C 0.1382(4) 0.4147(4) 0.5240(4) 0.0424 Uani
H21 H 0.1251 0.4524 0.5805 0.0500 Uiso
C29 C 0.0556(4) 0.4507(4) 0.4802(4) 0.0349 Uani
C30 C 0.2391(4) 0.3242(4) 0.4857(4) 0.0413 Uani
H22 H 0.2935 0.3014 0.5181 0.0500 Uiso
C37 C 0.2238(4) 0.9935(5) 0.5140(4) 0.0424 Uani
H28 H 0.2598 0.9788 0.5618 0.0510 Uiso
C44 C 0.1141(4) 0.9843(5) 0.5488(4) 0.0420 Uani
H34 H 0.0767 0.9647 0.6191 0.0500 Uiso
C46 C 0.0822(5) 0.3925(6) 0.3982(5) 0.0710 Uani
H36 H 0.0290 0.4138 0.3649 0.0850 Uiso
C48 C 0.1861(5) 0.3031(6) 0.3640(5) 0.0713 Uani
H38 H 0.2020 0.2650 0.3067 0.0860 Uiso
Cl1 Cl 0.37762(9) 0.09439(10) 0.57166(8) 0.0316 Uani
N2 N 0.4775(4) 0.1054(4) 0.7463(3) 0.0376 Uani
C2 C 0.4376(5) 0.2968(4) 0.8312(4) 0.0367 Uani
C7 C 0.4121(4) 0.3978(4) 0.8770(4) 0.0373 Uani
C9 C 0.3988(5) 0.4035(5) 0.9784(4) 0.0426 Uani
C10 C 0.4528(5) 0.1138(4) 0.8476(4) 0.0414 Uani
H6 H 0.4472 0.0536 0.8916 0.0500 Uiso
C11 C 0.0851(4) 0.0663(4) 0.8819(4) 0.0449 Uani
H7 H 0.0207 0.1239 0.8715 0.0540 Uiso
C12 C 0.7762(4) 0.0065(5) 0.4860(4) 0.0424 Uani
H8 H 0.7402 0.0212 0.4382 0.0510 Uiso
C13 C 0.4627(4) 0.2886(4) 0.7268(4) 0.0388 Uani
H9 H 0.4661 0.3486 0.6820 0.0470 Uiso
C14 C 0.2015(4) 0.0531(4) 0.8156(4) 0.0447 Uani
H10 H 0.2140 0.1043 0.7616 0.0540 Uiso
C16 C 0.4828(5) 0.1944(4) 0.6877(4) 0.0392 Uani
H11 H 0.5013 0.1916 0.6158 0.0470 Uiso
C17 C 0.3999(5) 0.4937(4) 0.8196(4) 0.0445 Uani
H12 H 0.4062 0.4954 0.7506 0.0540 Uiso
N5 N 0.3636(4) 0.5925(4) 0.9616(4) 0.0507 Uani
C18 C 0.4351(5) 0.2047(4) 0.8905(4) 0.0419 Uani
H13 H 0.4211 0.2045 0.9617 0.0500 Uiso
C19 C 0.8859(4) 0.0157(5) 0.4512(4) 0.0420 Uani
H14 H 0.9233 0.0353 0.3809 0.0500 Uiso
C20 C 0.3787(5) 0.5857(5) 0.8642(4) 0.0458 Uani
H15 H 0.3746 0.6484 0.8224 0.0550 Uiso
Cl5 Cl 0.42544(11) 0.15895(11) 0.16576(9) 0.0388 Uani
Cl6 Cl 0.57230(11) 0.21677(11) 0.35697(10) 0.0420 Uani
N7 N 0.7020(3) 0.0270(3) 0.1778(3) 0.0341 Uani
La1 La 0.52419(3) 0.91954(3) 0.65813(2) 0.0264 Uani
Cl2 Cl 0.57456(11) 0.84105(11) 0.83424(9) 0.0388 Uani
Cl3 Cl 0.42770(11) 0.78323(11) 0.64303(10) 0.0420 Uani
N1 N 0.2980(3) 0.9730(3) 0.8222(3) 0.0341 Uani
N3 N 0.7337(3) 0.7337(4) 0.5935(3) 0.0403 Uani
N4 N 0.7184(3) 0.9781(4) 0.5829(3) 0.0415 Uani
C1 C 0.8618(4) 0.5853(4) 0.4760(4) 0.0424 Uani
H1 H 0.8749 0.5476 0.4195 0.0500 Uiso
C3 C 0.0626(4) 0.9951(4) 0.9637(4) 0.0334 Uani
C4 C 0.9444(4) 0.5493(4) 0.5198(4) 0.0349 Uani
C5 C 0.7609(4) 0.6758(4) 0.5143(4) 0.0413 Uani
H2 H 0.7065 0.6986 0.4819 0.0500 Uiso
C6 C 0.2753(4) 0.9060(5) 0.9029(4) 0.0409 Uani
H3 H 0.3414 0.8490 0.9113 0.0490 Uiso
C8 C 0.1621(4) 0.9147(5) 0.9742(4) 0.0420 Uani
C15 C 0.9407(4) 0.9968(5) 0.5174(4) 0.0397 Uani
C21 C 0.9178(5) 0.6075(6) 0.6018(5) 0.0710 Uani
H16 H 0.9710 0.5862 0.6351 0.0850 Uiso
C23 C 0.8139(5) 0.6969(6) 0.6360(5) 0.0713 Uani
H18 H 0.7980 0.7350 0.6933 0.0860 Uiso
C24 C 0.7700(6) 0.9645(8) 0.6466(5) 0.0964 Uani
H19 H 0.7295 0.9479 0.7172 0.1160 Uiso
C25 C 0.8781(6) 0.9726(9) 0.6186(5) 0.1093 Uani
H20 H 0.9097 0.9615 0.6692 0.1310 Uiso
Cl4 Cl 0.62238(9) 0.90561(10) 0.42834(8) 0.0316 Uani
N8 N 0.5225(4) 0.8946(4) 0.2537(3) 0.0376 Uani
C27 C 0.5624(5) 0.7032(4) 0.1688(4) 0.0367 Uani
C32 C 0.5879(4) 0.6022(4) 0.1230(4) 0.0373 Uani
C34 C 0.6012(5) 0.5965(5) 0.0216(4) 0.0426 Uani
C35 C 0.5472(5) 0.8862(4) 0.1524(4) 0.0414 Uani
H26 H 0.5528 0.9464 0.1084 0.0500 Uiso
C38 C 0.5373(4) 0.7114(4) 0.2732(4) 0.0388 Uani
H29 H 0.5339 0.6514 0.3180 0.0470 Uiso
C41 C 0.5172(5) 0.8056(4) 0.3123(4) 0.0392 Uani
H31 H 0.4987 0.8084 0.3842 0.0470 Uiso
C42 C 0.6001(5) 0.5063(4) 0.1804(4) 0.0445 Uani
H32 H 0.5938 0.5046 0.2494 0.0540 Uiso
N13 N 0.6364(4) 0.4075(4) 0.0384(4) 0.0507 Uani
C43 C 0.5649(5) 0.7953(4) 0.1095(4) 0.0419 Uani
H33 H 0.5789 0.7955 0.0383 0.0500 Uiso
C45 C 0.6213(5) 0.4143(5) 0.1358(4) 0.0458 Uani
H35 H 0.6254 0.3516 0.1776 0.0550 Uiso
C28 C 0.9374(4) 0.0049(4) 0.0363(4) 0.0334 Uani
C31 C 0.7247(4) 0.0940(5) 0.0971(4) 0.0409 Uani
H23 H 0.6586 0.1510 0.0887 0.0490 Uiso
C33 C 0.8379(4) 0.0853(5) 0.0258(4) 0.0420 Uani
C36 C 0.9149(4) 0.9337(4) 0.1181(4) 0.0449 Uani
H27 H 0.9793 0.8761 0.1285 0.0540 Uiso
C39 C 0.7985(4) 0.9469(4) 0.1844(4) 0.0447 Uani
H30 H 0.7860 0.8957 0.2384 0.0540 Uiso
H5 H 0.4071 0.3413 0.0210 0.0520 Uiso
C22 C 0.3734(5) 0.5004(5) 0.0163(5) 0.0517 Uani
H17 H 0.3618 0.5024 0.0865 0.0620 Uiso
H4 H 0.1522 0.8656 0.0306 0.0500 Uiso
H25 H 0.5929 0.6587 0.9790 0.0520 Uiso
C47 C 0.6266(5) 0.4996(5) 0.9837(5) 0.0517 Uani
H37 H 0.6382 0.4976 0.9135 0.0620 Uiso
H24 H 0.8478 0.1344 0.9694 0.0500 Uiso
loop_
_atom_site_aniso_label
_atom_site_aniso_U_11
_atom_site_aniso_U_22
_atom_site_aniso_U_33
_atom_site_aniso_U_23
_atom_site_aniso_U_13
_atom_site_aniso_U_12
La5 0.0204 0.02998 0.02487 0.00457 -0.00876 -0.00819
N11 0.03 0.056 0.036 0.01 -0.0126 -0.019
C40 0.03 0.055 0.04 0.014 -0.018 -0.023
C49 0.061 0.218 0.046 0.058 -0.035 -0.095
C50 0.067 0.252 0.051 0.064 -0.038 -0.11
N9 0.029 0.044 0.04 0.001 -0.0156 -0.0053
C26 0.036 0.033 0.054 0.003 -0.027 -0.001
C29 0.025 0.037 0.035 0.003 -0.011 -0.007
C30 0.039 0.033 0.052 0.004 -0.028 -0.005
C37 0.036 0.067 0.035 0.008 -0.014 -0.033
C44 0.038 0.06 0.033 0.006 -0.013 -0.027
C46 0.042 0.087 0.065 -0.03 -0.035 0.02
C48 0.046 0.091 0.061 -0.031 -0.036 0.017
Cl1 0.0269 0.0349 0.0259 0.0027 -0.0111 -0.0059
N2 0.039 0.039 0.034 0.0065 -0.0164 -0.015
C2 0.041 0.038 0.035 0.006 -0.019 -0.017
C7 0.036 0.04 0.038 0.002 -0.017 -0.015
C9 0.055 0.043 0.04 0.007 -0.03 -0.019
C10 0.054 0.04 0.032 0.008 -0.02 -0.02
C11 0.032 0.042 0.041 0.011 -0.006 -0.01
C12 0.036 0.067 0.035 0.008 -0.014 -0.033
C13 0.045 0.042 0.038 0.01 -0.021 -0.024
C14 0.03 0.039 0.039 0.007 0.001 -0.008
C16 0.045 0.045 0.034 0.006 -0.019 -0.022
C17 0.051 0.042 0.041 0.006 -0.021 -0.018
N5 0.056 0.051 0.048 0.003 -0.024 -0.021
C18 0.057 0.04 0.032 0.004 -0.019 -0.022
C19 0.038 0.06 0.033 0.006 -0.013 -0.027
C20 0.046 0.042 0.049 0.003 -0.016 -0.021
Cl5 0.0348 0.0426 0.03 0.007 -0.0147 -0.0074
Cl6 0.0374 0.0394 0.0478 -0.0007 -0.0118 -0.0188
N7 0.027 0.035 0.034 0.0003 -0.0069 -0.012
La1 0.0204 0.02998 0.02487 0.00457 -0.00876 -0.00819
Cl2 0.0348 0.0426 0.03 0.007 -0.0147 -0.0074
Cl3 0.0374 0.0394 0.0478 -0.0007 -0.0118 -0.0188
N1 0.027 0.035 0.034 0.0003 -0.0069 -0.012
N3 0.029 0.044 0.04 0.001 -0.0156 -0.0053
N4 0.03 0.056 0.036 0.01 -0.0126 -0.019
C1 0.036 0.033 0.054 0.003 -0.027 -0.001
C3 0.029 0.04 0.025 -0.002 -0.004 -0.014
C4 0.025 0.037 0.035 0.003 -0.011 -0.007
C5 0.039 0.033 0.052 0.004 -0.028 -0.005
C6 0.029 0.051 0.037 0.011 -0.01 -0.018
C8 0.035 0.053 0.036 0.014 -0.012 -0.023
C15 0.03 0.055 0.04 0.014 -0.018 -0.023
C21 0.042 0.087 0.065 -0.03 -0.035 0.02
C23 0.046 0.091 0.061 -0.031 -0.036 0.017
C24 0.061 0.218 0.046 0.058 -0.035 -0.095
C25 0.067 0.252 0.051 0.064 -0.038 -0.11
Cl4 0.0269 0.0349 0.0259 0.0027 -0.0111 -0.0059
N8 0.039 0.039 0.034 0.0065 -0.0164 -0.015
C27 0.041 0.038 0.035 0.006 -0.019 -0.017
C32 0.036 0.04 0.038 0.002 -0.017 -0.015
C34 0.055 0.043 0.04 0.007 -0.03 -0.019
C35 0.054 0.04 0.032 0.008 -0.02 -0.02
C38 0.045 0.042 0.038 0.01 -0.021 -0.024
C41 0.045 0.045 0.034 0.006 -0.019 -0.022
C42 0.051 0.042 0.041 0.006 -0.021 -0.018
N13 0.056 0.051 0.048 0.003 -0.024 -0.021
C43 0.057 0.04 0.032 0.004 -0.019 -0.022
C45 0.046 0.042 0.049 0.003 -0.016 -0.021
C28 0.029 0.04 0.025 -0.002 -0.004 -0.014
C31 0.029 0.051 0.037 0.011 -0.01 -0.018
C33 0.035 0.053 0.036 0.014 -0.012 -0.023
C36 0.032 0.042 0.041 0.011 -0.006 -0.01
C39 0.03 0.039 0.039 0.007 0.001 -0.008
C22 0.064 0.051 0.051 -0.004 -0.029 -0.024
C47 0.064 0.051 0.051 -0.004 -0.029 -0.024
loop_
_geom_bond_atom_site_label_1
_geom_bond_atom_site_label_2
_geom_bond_site_symmetry_1
_geom_bond_site_symmetry_2
La5 N11 1_555 1_555
C49 N11 1_555 1_555
H39 C49 1_555 1_555
C50 C40 1_555 1_555
H40 C50 1_555 1_555
C49 C50 1_555 1_555
La5 N9 1_555 1_555
N9 C30 1_555 1_555
C26 H21 1_555 1_555
C30 C26 1_555 1_555
H22 C30 1_555 1_555
C37 H28 1_555 1_555
C44 C37 1_555 1_555
H34 C44 1_555 1_555
C46 C29 1_555 1_555
H36 C46 1_555 1_555
C48 N9 1_555 1_555
H38 C48 1_555 1_555
C26 C29 1_555 1_555
C46 C48 1_555 1_555
Cl1 La5 1_555 1_555
C2 C7 1_555 1_555
C7 C9 1_555 1_555
C10 N2 1_555 1_555
H6 C10 1_555 1_555
H7 C11 1_555 1_555
H8 C12 1_555 1_555
C13 C2 1_555 1_555
H9 C13 1_555 1_555
H10 C14 1_555 1_555
C16 N2 1_555 1_555
H11 C16 1_555 1_555
C17 C7 1_555 1_555
H12 C17 1_555 1_555
N5 C20 1_555 1_555
C18 C2 1_555 1_555
H13 C18 1_555 1_555
C19 C12 1_555 1_555
H14 C19 1_555 1_555
C20 C17 1_555 1_555
H15 C20 1_555 1_555
Cl5 La5 1_555 1_555
Cl6 La5 1_555 1_555
N7 La5 1_555 1_555
C10 C18 1_555 1_555
C11 C14 1_555 1_555
C13 C16 1_555 1_555
Cl2 La1 1_555 1_555
Cl3 La1 1_555 1_555
N1 La1 1_555 1_555
N3 La1 1_555 1_555
N4 La1 1_555 1_555
C1 H1 1_555 1_555
C3 C8 1_555 1_555
C4 C1 1_555 1_555
C5 N3 1_555 1_555
H2 C5 1_555 1_555
C6 N1 1_555 1_555
H3 C6 1_555 1_555
C8 C6 1_555 1_555
C21 C4 1_555 1_555
H16 C21 1_555 1_555
C23 N3 1_555 1_555
H18 C23 1_555 1_555
C24 N4 1_555 1_555
H19 C24 1_555 1_555
C25 C15 1_555 1_555
H20 C25 1_555 1_555
Cl4 La1 1_555 1_555
C27 C32 1_555 1_555
C32 C34 1_555 1_555
C35 N8 1_555 1_555
H26 C35 1_555 1_555
C38 C27 1_555 1_555
H29 C38 1_555 1_555
C41 N8 1_555 1_555
H31 C41 1_555 1_555
C42 C32 1_555 1_555
H32 C42 1_555 1_555
N13 C45 1_555 1_555
C43 C27 1_555 1_555
H33 C43 1_555 1_555
C45 C42 1_555 1_555
H35 C45 1_555 1_555
C1 C5 1_555 1_555
C21 C23 1_555 1_555
C24 C25 1_555 1_555
C35 C43 1_555 1_555
C38 C41 1_555 1_555
N7 C31 1_555 1_555
C31 H23 1_555 1_555
C33 C28 1_555 1_555
C31 C33 1_555 1_555
H27 C36 1_555 1_555
H30 C39 1_555 1_555
C36 C39 1_555 1_555
H17 C22 1_555 1_555
H37 C47 1_555 1_555

#END
