
###############################################################################
#
# This file contains modified crystal structure data generated from the
# MOF subset of the Cambridge Structural Database (CSD) v543 
# hosted by the Cambridge Crystallographic Data Centre (CCDC).
#
# This work is licensed under the Creative Commons
# Attribution-NonCommercial-ShareAlike 4.0 International License.
# To view a copy of this license, visit
# http://creativecommons.org/licenses/by-nc-sa/4.0/
# or send a letter to
# Creative Commons, PO Box 1866, Mountain View, CA 94042, USA.
#
# CIF created using the CSD Python API on 29 September 2022
# The structure has been converted into the P1 space group
# The structure has a 3D framework
# The original CSD entry GUXSOI is in the triclinic crystal system
# The framework has been calculated to contain at least 10.0% void space
# The void calculation uses a probe of radius 1.32A, grid spacing 0.4
#
###############################################################################

data_GUXSOI
_chemical_formula_moiety         '(C56 H44 Er8 N6 O46)n'
_symmetry_cell_setting           triclinic
_symmetry_space_group_name_H-M   'P 1'
_symmetry_Int_Tables_number      1
_space_group_name_Hall           'P 1'
loop_
_symmetry_equiv_pos_site_id
_symmetry_equiv_pos_as_xyz
1 x,y,z
_cell_length_a                   8.7088(4)
_cell_length_b                   14.9170(8)
_cell_length_c                   15.9485(7)
_cell_angle_alpha                86.067(2)
_cell_angle_beta                 79.917(2)
_cell_angle_gamma                81.642(3)
_cell_volume                     2016.21
loop_
_atom_site_label
_atom_site_type_symbol
_atom_site_fract_x
_atom_site_fract_y
_atom_site_fract_z
Er1 Er 0.386009(18) 0.102608(11) 0.295485(10)
Er2 Er 0.147204(18) 0.195968(11) 0.133527(10)
Er3 Er 0.422380(18) 0.340306(11) 0.201694(10)
Er4 Er 0.060367(18) 0.289611(11) 0.359448(10)
O2 O 0.6406(3) 0.14164(19) 0.28365(18)
H3 H 0.672(5) 0.1992(15) 0.286(3)
H4 H 0.714(4) 0.107(2) 0.243(2)
O3 O 0.3410(3) 0.0986(2) 0.04275(17)
H6 H 0.400(4) 0.054(2) 0.074(2)
O4 O 0.3923(3) 0.19505(17) 0.17120(16)
H7 H 0.477(4) 0.178(3) 0.127(2)
O5 O 0.3402(3) 0.26091(17) 0.32548(16)
H8 H 0.382(5) 0.275(3) 0.3729(19)
O6 O 0.1310(3) 0.16044(17) 0.28207(16)
H9 H 0.067(4) 0.115(2) 0.298(3)
O7 O 0.1494(3) 0.32565(17) 0.21237(16)
H10 H 0.090(5) 0.3773(19) 0.190(3)
O8 O 0.4675(3) 0.00942(18) 0.17789(16)
O12 O 0.0639(3) 0.05825(19) 0.16937(17)
O18 O 0.3690(3) 0.38997(19) 0.06736(17)
O19 O 0.2136(3) 0.30009(19) 0.02518(17)
O20 O 0.1214(4) 0.8094(2) 0.58994(18)
O21 O 0.2794(4) 0.8731(2) 0.4844(2)
O22 O 0.1289(3) 0.42930(19) 0.38230(17)
O23 O 0.3072(3) 0.46888(19) 0.27288(18)
N4 N 0.1336(4) 0.6611(2) 0.50647(19)
C21 C 0.2904(4) 0.3660(3) 0.0151(2)
C22 C 0.2054(5) 0.8102(3) 0.5166(3)
C23 C 0.2166(5) 0.7259(3) 0.4664(3)
C24 C 0.3046(6) 0.7164(3) 0.3853(3)
H20 H 0.3613 0.7634 0.3586
C25 C 0.3084(6) 0.6367(3) 0.3437(3)
H21 H 0.3669 0.6287 0.2880
C26 C 0.2249(5) 0.5690(3) 0.3852(3)
C27 C 0.1394(4) 0.5857(3) 0.4658(2)
H22 H 0.0810 0.5400 0.4938
C28 C 0.2196(5) 0.4822(3) 0.3438(2)
O24 O 0.3295(3) 0.10624(19) 0.43902(17)
O25 O 0.1572(3) 0.2276(2) 0.48347(17)
O26 O 0.6485(3) 0.27885(18) 0.11079(16)
O28 O 0.6185(3) 0.33760(18) 0.28860(16)
N5 N 0.0068(4) 0.1589(2) 0.0130(2)
N6 N 0.6046(4) 0.4612(2) 0.16000(19)
H5 H 0.391(5) 0.102(3) 0.9851(10)
O16 O 0.3815(3) 0.66240(18) 0.71140(16)
O17 O 0.1521(3) 0.62395(19) 0.68926(17)
N3 N 0.3954(4) 0.5388(2) 0.84000(19)
C15 C 0.2705(4) 0.6148(3) 0.7262(2)
C16 C 0.2771(4) 0.5411(3) 0.7950(2)
C17 C 0.1660(5) 0.4820(3) 0.8142(3)
H17 H 0.0876 0.4825 0.7795
C18 C 0.1704(5) 0.4218(3) 0.8850(3)
H18 H 0.0949 0.3808 0.8994
C19 C 0.2868(5) 0.4228(3) 0.9337(2)
C20 C 0.3991(4) 0.4809(3) 0.9073(2)
H19 H 0.4827 0.4792 0.9387
Er8 Er 0.577620(18) 0.659694(11) 0.798306(10)
O1 O 0.2415(3) 0.9758(2) 0.33559(19)
H1 H 0.1322(17) 0.981(3) 0.335(3)
H2 H 0.267(5) 0.941(3) 0.385(2)
O9 O 0.5635(3) 0.87322(19) 0.12480(17)
O10 O 0.6705(3) 0.89376(19) 0.56098(17)
O11 O 0.8428(3) 0.7724(2) 0.51653(17)
N1 N 0.5606(4) 0.9612(2) 0.32562(19)
C1 C 0.5384(4) 0.9286(3) 0.1825(2)
C2 C 0.5967(4) 0.8991(3) 0.2656(2)
C3 C 0.6816(5) 0.8142(3) 0.2778(2)
H11 H 0.7032 0.7716 0.2342
C4 C 0.7340(5) 0.7931(3) 0.3552(2)
H12 H 0.7947 0.7363 0.3649
C5 C 0.6961(4) 0.8565(3) 0.4184(2)
C6 C 0.6101(4) 0.9401(3) 0.4001(2)
H13 H 0.5858 0.9840 0.4426
C7 C 0.7407(4) 0.8389(3) 0.5054(2)
C9 C 0.0334(4) 0.9300(3) 0.0991(2)
C10 C 0.1896(5) 0.8934(3) 0.0907(3)
H14 H 0.2563 0.9113 0.1258
C11 C 0.2471(4) 0.8293(3) 0.0295(3)
H15 H 0.3531 0.8009 0.0234
Er5 Er 0.613991(18) 0.897392(11) 0.704515(10)
Er9 Er 0.939633(18) 0.710389(11) 0.640552(10)
O14 O 0.3515(3) 0.72115(18) 0.88921(16)
O15 O 0.1109(3) 0.73705(19) 0.85494(17)
C12 C 0.1472(4) 0.8078(2) 0.9774(2)
C14 C 0.2086(4) 0.7498(2) 0.9015(2)
O13 O 0.8233(4) 0.0198(2) 0.1835(2)
C8 C 0.9669(5) 0.0083(3) 0.1555(2)
O27 O 0.8891(3) 0.26295(19) 0.14506(17)
O29 O 0.8479(3) 0.37605(19) 0.31074(17)
O30 O 0.8786(4) 0.1906(2) 0.41006(18)
N7 N 0.8664(4) 0.3389(2) 0.49353(19)
N2 N 0.9932(4) 0.8411(2) 0.9870(2)
Er6 Er 0.852796(18) 0.804032(11) 0.866473(10)
O13_2 O 0.1767(4) 0.9802(2) 0.8165(2)
C8_2 C 0.0331(5) 0.9917(3) 0.8445(2)
C12_2 C 0.8528(4) 0.1922(2) 0.0226(2)
C14_2 C 0.7914(4) 0.2502(2) 0.0985(2)
O1_2 O 0.7585(3) 0.0242(2) 0.66441(19)
H1_2 H 0.8678(17) 0.019(3) 0.665(3)
H2_2 H 0.733(5) 0.059(3) 0.615(2)
O9_2 O 0.4365(3) 0.12678(19) 0.87520(17)
N1_2 N 0.4394(4) 0.0388(2) 0.67438(19)
C1_2 C 0.4616(4) 0.0714(3) 0.8175(2)
C2_2 C 0.4033(4) 0.1009(3) 0.7344(2)
C3_2 C 0.3184(5) 0.1858(3) 0.7222(2)
H11_2 H 0.2968 0.2284 0.7658
C4_2 C 0.2660(5) 0.2069(3) 0.6448(2)
H12_2 H 0.2053 0.2637 0.6351
C5_2 C 0.3039(4) 0.1435(3) 0.5816(2)
C6_2 C 0.3899(4) 0.0599(3) 0.5999(2)
H13_2 H 0.4142 0.0160 0.5574
C7_2 C 0.2593(4) 0.1611(3) 0.4946(2)
C9_2 C 0.9666(4) 0.0700(3) 0.9009(2)
C10_2 C 0.8104(5) 0.1066(3) 0.9093(3)
H14_2 H 0.7437 0.0887 0.8742
C11_2 C 0.7529(4) 0.1707(3) 0.9705(3)
H15_2 H 0.6469 0.1991 0.9766
H5_2 H 0.609(5) 0.898(3) 0.0149(10)
C15_2 C 0.7295(4) 0.3852(3) 0.2738(2)
C16_2 C 0.7229(4) 0.4589(3) 0.2050(2)
C17_2 C 0.8340(5) 0.5180(3) 0.1858(3)
H17_2 H 0.9124 0.5175 0.2205
C18_2 C 0.8296(5) 0.5782(3) 0.1150(3)
H18_2 H 0.9051 0.6192 0.1006
C19_2 C 0.7132(5) 0.5772(3) 0.0663(2)
C20_2 C 0.6009(4) 0.5191(3) 0.0927(2)
H19_2 H 0.5173 0.5208 0.0613
O2_2 O 0.3594(3) 0.85836(19) 0.71635(18)
H3_2 H 0.328(5) 0.8008(15) 0.714(3)
H4_2 H 0.286(4) 0.893(2) 0.757(2)
O3_2 O 0.6590(3) 0.9014(2) 0.95725(17)
H6_2 H 0.600(4) 0.946(2) 0.926(2)
O4_2 O 0.6077(3) 0.80495(17) 0.82880(16)
H7_2 H 0.523(4) 0.822(3) 0.873(2)
O5_2 O 0.6598(3) 0.73909(17) 0.67452(16)
H8_2 H 0.618(5) 0.725(3) 0.6271(19)
O6_2 O 0.8690(3) 0.83956(17) 0.71793(16)
H9_2 H 0.933(4) 0.885(2) 0.702(3)
O7_2 O 0.8506(3) 0.67435(17) 0.78763(16)
H10_2 H 0.910(5) 0.6227(19) 0.810(3)
O8_2 O 0.5325(3) 0.99058(18) 0.82211(16)
O12_2 O 0.9361(3) 0.94175(19) 0.83063(17)
O18_2 O 0.6310(3) 0.61003(19) 0.93264(17)
O19_2 O 0.7864(3) 0.69991(19) 0.97482(17)
O21_2 O 0.7206(4) 0.1269(2) 0.5156(2)
O22_2 O 0.8711(3) 0.57070(19) 0.61770(17)
O23_2 O 0.6928(3) 0.53112(19) 0.72712(18)
C21_2 C 0.7096(4) 0.6340(3) 0.9849(2)
C22_2 C 0.7946(5) 0.1898(3) 0.4834(3)
C23_2 C 0.7834(5) 0.2741(3) 0.5336(3)
C24_2 C 0.6954(6) 0.2836(3) 0.6147(3)
H20_2 H 0.6387 0.2366 0.6414
C25_2 C 0.6916(6) 0.3633(3) 0.6563(3)
H21_2 H 0.6331 0.3713 0.7120
C26_2 C 0.7751(5) 0.4310(3) 0.6148(3)
C27_2 C 0.8606(4) 0.4143(3) 0.5342(2)
H22_2 H 0.9190 0.4600 0.5062
C28_2 C 0.7804(5) 0.5178(3) 0.6562(2)
C13 C 0.9377(4) 0.9001(3) 0.0482(2)
H16 H 0.8286 0.9225 0.0574
C13_2 C 0.0623(4) 0.0999(3) 0.9518(2)
H16_2 H 0.1714 0.0775 0.9426
loop_
_geom_bond_atom_site_label_1
_geom_bond_atom_site_label_2
_geom_bond_site_symmetry_1
_geom_bond_site_symmetry_2
Er2 O3 1_555 1_555
Er3 O4 1_555 1_555
Er4 O5 1_555 1_555
O2 Er1 1_555 1_555
H3 O2 1_555 1_555
H4 O2 1_555 1_555
H6 O3 1_555 1_555
O4 Er1 1_555 1_555
H7 O4 1_555 1_555
O5 Er1 1_555 1_555
H8 O5 1_555 1_555
O6 Er1 1_555 1_555
H9 O6 1_555 1_555
O7 Er2 1_555 1_555
H10 O7 1_555 1_555
O8 Er1 1_555 1_555
O12 Er2 1_555 1_555
O18 Er3 1_555 1_555
O19 Er2 1_555 1_555
O20 C22 1_555 1_555
O21 C22 1_555 1_555
O22 Er4 1_555 1_555
O23 Er3 1_555 1_555
N4 C23 1_555 1_555
C21 O18 1_555 1_555
C22 C23 1_555 1_555
C23 C24 1_555 1_555
C24 H20 1_555 1_555
C25 C24 1_555 1_555
H21 C25 1_555 1_555
C26 C25 1_555 1_555
C27 N4 1_555 1_555
H22 C27 1_555 1_555
C28 O22 1_555 1_555
O24 Er1 1_555 1_555
O25 Er4 1_555 1_555
O26 Er3 1_555 1_555
O28 Er3 1_555 1_555
N5 Er2 1_555 1_555
N6 Er3 1_555 1_555
Er2 O4 1_555 1_555
Er2 O6 1_555 1_555
Er3 O5 1_555 1_555
Er3 O7 1_555 1_555
Er4 O6 1_555 1_555
Er4 O7 1_555 1_555
O19 C21 1_555 1_555
O23 C28 1_555 1_555
C26 C27 1_555 1_555
C26 C28 1_555 1_555
O16 C15 1_555 1_555
O17 C15 1_555 1_555
N3 C16 1_555 1_555
C15 C16 1_555 1_555
C16 C17 1_555 1_555
C17 H17 1_555 1_555
C18 C17 1_555 1_555
H18 C18 1_555 1_555
C19 C18 1_555 1_555
C20 N3 1_555 1_555
H19 C20 1_555 1_555
Er8 O16 1_555 1_555
N3 Er8 1_555 1_555
C19 C20 1_555 1_555
O1 H1 1_555 1_555
H2 O1 1_555 1_555
O9 C1 1_555 1_555
O10 C7 1_555 1_555
O11 C7 1_555 1_555
C2 N1 1_555 1_555
C3 C2 1_555 1_555
H11 C3 1_555 1_555
C4 C3 1_555 1_555
H12 C4 1_555 1_555
C5 C4 1_555 1_555
C6 N1 1_555 1_555
H13 C6 1_555 1_555
C7 C5 1_555 1_555
C10 C9 1_555 1_555
H14 C10 1_555 1_555
C11 C10 1_555 1_555
H15 C11 1_555 1_555
Er5 O10 1_555 1_555
Er9 O11 1_555 1_555
C1 C2 1_555 1_555
C5 C6 1_555 1_555
O14 C14 1_555 1_555
O15 C14 1_555 1_555
C14 C12 1_555 1_555
Er8 O14 1_555 1_555
O13 C8 1_555 1_555
N2 Er6 1_555 1_555
O13_2 C8_2 1_555 1_555
O26 C14_2 1_555 1_555
O27 C14_2 1_555 1_555
C14_2 C12_2 1_555 1_555
O1_2 H1_2 1_555 1_555
H2_2 O1_2 1_555 1_555
O9_2 C1_2 1_555 1_555
O24 C7_2 1_555 1_555
O25 C7_2 1_555 1_555
C2_2 N1_2 1_555 1_555
C3_2 C2_2 1_555 1_555
H11_2 C3_2 1_555 1_555
C4_2 C3_2 1_555 1_555
H12_2 C4_2 1_555 1_555
C5_2 C4_2 1_555 1_555
C6_2 N1_2 1_555 1_555
H13_2 C6_2 1_555 1_555
C7_2 C5_2 1_555 1_555
C10_2 C9_2 1_555 1_555
H14_2 C10_2 1_555 1_555
C11_2 C10_2 1_555 1_555
H15_2 C11_2 1_555 1_555
C1_2 C2_2 1_555 1_555
C5_2 C6_2 1_555 1_555
O28 C15_2 1_555 1_555
O29 C15_2 1_555 1_555
N6 C16_2 1_555 1_555
C15_2 C16_2 1_555 1_555
C16_2 C17_2 1_555 1_555
C17_2 H17_2 1_555 1_555
C18_2 C17_2 1_555 1_555
H18_2 C18_2 1_555 1_555
C19_2 C18_2 1_555 1_555
C20_2 N6 1_555 1_555
H19_2 C20_2 1_555 1_555
C19_2 C20_2 1_555 1_555
Er6 O3_2 1_555 1_555
Er8 O4_2 1_555 1_555
Er9 O5_2 1_555 1_555
O2_2 Er5 1_555 1_555
H3_2 O2_2 1_555 1_555
H4_2 O2_2 1_555 1_555
H6_2 O3_2 1_555 1_555
O4_2 Er5 1_555 1_555
H7_2 O4_2 1_555 1_555
O5_2 Er5 1_555 1_555
H8_2 O5_2 1_555 1_555
O6_2 Er5 1_555 1_555
H9_2 O6_2 1_555 1_555
O7_2 Er6 1_555 1_555
H10_2 O7_2 1_555 1_555
O8_2 Er5 1_555 1_555
O12_2 Er6 1_555 1_555
O18_2 Er8 1_555 1_555
O19_2 Er6 1_555 1_555
O30 C22_2 1_555 1_555
O21_2 C22_2 1_555 1_555
O22_2 Er9 1_555 1_555
O23_2 Er8 1_555 1_555
N7 C23_2 1_555 1_555
C21_2 O18_2 1_555 1_555
C22_2 C23_2 1_555 1_555
C23_2 C24_2 1_555 1_555
C24_2 H20_2 1_555 1_555
C25_2 C24_2 1_555 1_555
H21_2 C25_2 1_555 1_555
C26_2 C25_2 1_555 1_555
C27_2 N7 1_555 1_555
H22_2 C27_2 1_555 1_555
C28_2 O22_2 1_555 1_555
Er6 O4_2 1_555 1_555
Er6 O6_2 1_555 1_555
Er8 O5_2 1_555 1_555
Er8 O7_2 1_555 1_555
Er9 O6_2 1_555 1_555
Er9 O7_2 1_555 1_555
O19_2 C21_2 1_555 1_555
O23_2 C28_2 1_555 1_555
C26_2 C27_2 1_555 1_555
C26_2 C28_2 1_555 1_555
H16 C13 1_555 1_555
H16_2 C13_2 1_555 1_555

#END
