
###############################################################################
#
# This file contains modified crystal structure data generated from the
# MOF subset of the Cambridge Structural Database (CSD) v543 
# hosted by the Cambridge Crystallographic Data Centre (CCDC).
#
# This work is licensed under the Creative Commons
# Attribution-NonCommercial-ShareAlike 4.0 International License.
# To view a copy of this license, visit
# http://creativecommons.org/licenses/by-nc-sa/4.0/
# or send a letter to
# Creative Commons, PO Box 1866, Mountain View, CA 94042, USA.
#
# CIF created using the CSD Python API on 29 September 2022
# The structure has been converted into the P1 space group
# The structure has a 3D framework
# The original CSD entry GUYLUI01 is in the monoclinic crystal system
# The framework has been calculated to contain at least 10.0% void space
# The void calculation uses a probe of radius 1.32A, grid spacing 0.4
#
###############################################################################

data_GUYLUI01
_chemical_formula_moiety         '(C120 H64 N8 O32 S16 Zn8)n'
_symmetry_cell_setting           triclinic
_symmetry_space_group_name_H-M   'P 1'
_symmetry_Int_Tables_number      1
_space_group_name_Hall           'P 1'
loop_
_symmetry_equiv_pos_site_id
_symmetry_equiv_pos_as_xyz
1 x,y,z
_cell_length_a                   17.7608(4)
_cell_length_b                   21.7728(4)
_cell_length_c                   9.4874(2)
_cell_angle_alpha                90
_cell_angle_beta                 109.188(2)
_cell_angle_gamma                90
_cell_volume                     3464.98
loop_
_atom_site_label
_atom_site_type_symbol
_atom_site_fract_x
_atom_site_fract_y
_atom_site_fract_z
Zn2 Zn 0.05069(2) 0.226478(17) 0.41120(4)
Zn6 Zn 0.55069(2) 0.726478(17) 0.41120(4)
Zn7 Zn 0.44931(2) 0.726478(17) 0.08880(4)
S3 S 0.29760(5) 0.55738(4) 0.19826(10)
S4 S 0.20792(5) 0.39093(4) 0.32003(9)
O5 O 0.48279(15) 0.65368(11) 0.4280(3)
O6 O 0.01721(15) 0.15368(11) 0.0720(3)
O8 O 0.09803(15) 0.29532(12) 0.3249(3)
O9 O 0.03819(14) 0.28447(11) 0.0781(3)
O10 O 0.39606(15) 0.66573(11) 0.1973(3)
O12 O 0.10394(15) 0.16573(11) 0.3027(3)
N3 N 0.12577(16) 0.23261(12) 0.6254(3)
C16 C 0.2998(2) 0.48667(16) 0.2799(4)
C17 C 0.13892(19) 0.35830(15) 0.1669(4)
C18 C 0.08764(19) 0.30871(14) 0.1914(4)
C19 C 0.1969(3) 0.43265(19) 0.0634(4)
C20 C 0.42322(19) 0.63789(15) 0.3189(4)
C21 C 0.3631(2) 0.48238(18) 0.4086(4)
H10 H 0.3742 0.4476 0.4688
C22 C 0.1402(2) 0.38491(18) 0.0382(4)
C24 C 0.38318(19) 0.58029(16) 0.3348(4)
C25 C 0.2384(2) 0.44153(17) 0.2107(4)
C26 C 0.4099(2) 0.53608(18) 0.4412(4)
H12 H 0.4543 0.5408 0.5262
Zn1 Zn 0.94931(2) 0.226478(17) 0.08880(4)
S1 S 0.70240(5) 0.55738(4) 0.30174(10)
S2 S 0.79208(5) 0.39093(4) 0.17997(9)
O1 O 0.51721(15) 0.65368(11) 0.0720(3)
O2 O 0.90197(15) 0.29532(12) 0.1751(3)
O3 O 0.96181(14) 0.28447(11) 0.4219(3)
O4 O 0.60394(15) 0.66573(11) 0.3027(3)
C1 C 0.7002(2) 0.48667(16) 0.2201(4)
C2 C 0.86108(19) 0.35830(15) 0.3331(4)
C3 C 0.91236(19) 0.30871(14) 0.3086(4)
C4 C 0.8031(3) 0.43265(19) 0.4366(4)
H1 H 0.7949 0.4557 0.5128
C5 C 0.57678(19) 0.63789(15) 0.1811(4)
C6 C 0.6369(2) 0.48238(18) 0.0914(4)
H2 H 0.6258 0.4476 0.0312
C7 C 0.8598(2) 0.38491(18) 0.4618(4)
H3 H 0.8926 0.3730 0.5562
C9 C 0.61682(19) 0.58029(16) 0.1652(4)
C10 C 0.7616(2) 0.44153(17) 0.2893(4)
C11 C 0.5901(2) 0.53608(18) 0.0588(4)
O7 O 0.98279(15) 0.15368(11) 0.4280(3)
O11 O 0.89606(15) 0.16573(11) 0.1973(3)
C8 C 0.22364(19) 0.24635(17) 0.9215(3)
C12 C 0.2370(3) 0.2776(2) 0.8077(5)
H5 H 0.2802 0.3043 0.8281
C13 C 0.1627(3) 0.2045(2) 0.8805(5)
H6 H 0.1527 0.1799 0.9524
C14 C 0.1875(3) 0.2701(2) 0.6627(5)
H7 H 0.1980 0.2926 0.5878
C15 C 0.1162(3) 0.1988(2) 0.7332(4)
H8 H 0.0758 0.1695 0.7084
S1_2 S 0.20240(5) 0.05738(4) 0.30174(10)
C5_2 C 0.07678(19) 0.13789(15) 0.1811(4)
C9_2 C 0.11682(19) 0.08029(16) 0.1652(4)
C11_2 C 0.0901(2) 0.03608(18) 0.0588(4)
S3_2 S 0.79760(5) 0.05738(4) 0.19826(10)
C20_2 C 0.92322(19) 0.13789(15) 0.3189(4)
C24_2 C 0.88318(19) 0.08029(16) 0.3348(4)
C26_2 C 0.9099(2) 0.03608(18) 0.4412(4)
H12_2 H 0.9543 0.0408 0.5262
S2_2 S 0.29208(5) 0.89093(4) 0.17997(9)
O2_2 O 0.40197(15) 0.79532(12) 0.1751(3)
O3_2 O 0.46181(14) 0.78447(11) 0.4219(3)
C1_2 C 0.2002(2) 0.98667(16) 0.2201(4)
C2_2 C 0.36108(19) 0.85830(15) 0.3331(4)
C3_2 C 0.41236(19) 0.80871(14) 0.3086(4)
C4_2 C 0.3031(3) 0.93265(19) 0.4366(4)
H1_2 H 0.2949 0.9557 0.5128
C6_2 C 0.1369(2) 0.98238(18) 0.0914(4)
H2_2 H 0.1258 0.9476 0.0312
C7_2 C 0.3598(2) 0.88491(18) 0.4618(4)
H3_2 H 0.3926 0.8730 0.5562
C10_2 C 0.2616(2) 0.94153(17) 0.2893(4)
S4_2 S 0.70792(5) 0.89093(4) 0.32003(9)
O8_2 O 0.59803(15) 0.79532(12) 0.3249(3)
O9_2 O 0.53819(14) 0.78447(11) 0.0781(3)
N3_2 N 0.62577(16) 0.73261(12) 0.6254(3)
C16_2 C 0.7998(2) 0.98667(16) 0.2799(4)
C17_2 C 0.63892(19) 0.85830(15) 0.1669(4)
C18_2 C 0.58764(19) 0.80871(14) 0.1914(4)
C19_2 C 0.6969(3) 0.93265(19) 0.0634(4)
C21_2 C 0.8631(2) 0.98238(18) 0.4086(4)
H10_2 H 0.8742 0.9476 0.4688
C22_2 C 0.6402(2) 0.88491(18) 0.0382(4)
C25_2 C 0.7384(2) 0.94153(17) 0.2107(4)
C8_2 C 0.72364(19) 0.74635(17) 0.9215(3)
C12_2 C 0.7370(3) 0.7776(2) 0.8077(5)
H5_2 H 0.7802 0.8043 0.8281
C13_2 C 0.6627(3) 0.7045(2) 0.8805(5)
H6_2 H 0.6527 0.6799 0.9524
C14_2 C 0.6875(3) 0.7701(2) 0.6627(5)
H7_2 H 0.6980 0.7926 0.5878
C15_2 C 0.6162(3) 0.6988(2) 0.7332(4)
H8_2 H 0.5758 0.6695 0.7084
H9 H 0.2051 0.4557 0.9872
H11 H 0.1074 0.3730 0.9438
N1 N 0.87423(16) 0.23261(12) 0.8746(3)
C8_3 C 0.77636(19) 0.24635(17) 0.5785(3)
H4 H 0.5457 0.5408 0.9738
C12_3 C 0.7630(3) 0.2776(2) 0.6923(5)
H5_3 H 0.7198 0.3043 0.6719
C13_3 C 0.8373(3) 0.2045(2) 0.6195(5)
H6_3 H 0.8473 0.1799 0.5476
C14_3 C 0.8125(3) 0.2701(2) 0.8373(5)
H7_3 H 0.8020 0.2926 0.9122
C15_3 C 0.8838(3) 0.1988(2) 0.7668(4)
H8_3 H 0.9242 0.1695 0.7916
N2 N 0.62577(16) 0.26739(12) 0.1254(3)
C23 C 0.72364(19) 0.25365(17) 0.4215(3)
C27 C 0.7370(3) 0.2224(2) 0.3077(5)
H13 H 0.7802 0.1957 0.3281
C28 C 0.6627(3) 0.2955(2) 0.3805(5)
H14 H 0.6527 0.3201 0.4524
C29 C 0.6875(3) 0.2299(2) 0.1627(5)
H15 H 0.6980 0.2074 0.0878
C30 C 0.6162(3) 0.3012(2) 0.2332(4)
H16 H 0.5758 0.3305 0.2084
H9_2 H 0.2949 0.0443 0.0128
H11_2 H 0.3926 0.1270 0.0562
Zn5 Zn 0.55069(2) 0.273522(17) 0.91120(4)
Zn5_2 Zn 0.44931(2) 0.273522(17) 0.58880(4)
N2_2 N 0.37423(16) 0.26739(12) 0.3746(3)
C23_2 C 0.27636(19) 0.25365(17) 0.0785(3)
C27_2 C 0.2630(3) 0.2224(2) 0.1923(5)
H13_2 H 0.2198 0.1957 0.1719
C28_2 C 0.3373(3) 0.2955(2) 0.1195(5)
H14_2 H 0.3473 0.3201 0.0476
C29_2 C 0.3125(3) 0.2299(2) 0.3373(5)
H15_2 H 0.3020 0.2074 0.4122
C30_2 C 0.3838(3) 0.3012(2) 0.2668(4)
H16_2 H 0.4242 0.3305 0.2916
Zn5_3 Zn 0.05069(2) 0.773522(17) 0.91120(4)
Zn5_4 Zn 0.94931(2) 0.773522(17) 0.58880(4)
N2_3 N 0.87423(16) 0.76739(12) 0.3746(3)
C23_3 C 0.77636(19) 0.75365(17) 0.0785(3)
C27_3 C 0.7630(3) 0.7224(2) 0.1923(5)
H13_3 H 0.7198 0.6957 0.1719
C28_3 C 0.8373(3) 0.7955(2) 0.1195(5)
H14_3 H 0.8473 0.8201 0.0476
C29_3 C 0.8125(3) 0.7299(2) 0.3373(5)
H15_3 H 0.8020 0.7074 0.4122
C30_3 C 0.8838(3) 0.8012(2) 0.2668(4)
H16_3 H 0.9242 0.8305 0.2916
S1_3 S 0.29760(5) 0.44262(4) 0.69826(10)
S2_3 S 0.20792(5) 0.60907(4) 0.82003(9)
O1_2 O 0.48279(15) 0.34632(11) 0.9280(3)
O2_3 O 0.09803(15) 0.70468(12) 0.8249(3)
O3_3 O 0.03819(14) 0.71553(11) 0.5781(3)
O4_2 O 0.39606(15) 0.33427(11) 0.6973(3)
C1_3 C 0.2998(2) 0.51333(16) 0.7799(4)
C2_3 C 0.13892(19) 0.64170(15) 0.6669(4)
C3_3 C 0.08764(19) 0.69129(14) 0.6914(4)
C4_3 C 0.1969(3) 0.56735(19) 0.5634(4)
H1_3 H 0.2051 0.5443 0.4872
C5_3 C 0.42322(19) 0.36211(15) 0.8189(4)
C6_3 C 0.3631(2) 0.51762(18) 0.9086(4)
H2_3 H 0.3742 0.5524 0.9688
C7_3 C 0.1402(2) 0.61509(18) 0.5382(4)
H3_3 H 0.1074 0.6270 0.4438
C9_3 C 0.38318(19) 0.41971(16) 0.8348(4)
C10_3 C 0.2384(2) 0.55847(17) 0.7107(4)
C11_3 C 0.4099(2) 0.46392(18) 0.9412(4)
O7_2 O 0.01721(15) 0.84632(11) 0.5720(3)
O11_2 O 0.10394(15) 0.83427(11) 0.8027(3)
S3_3 S 0.70240(5) 0.44262(4) 0.80174(10)
S4_3 S 0.79208(5) 0.60907(4) 0.67997(9)
O5_2 O 0.51721(15) 0.34632(11) 0.5720(3)
O6_2 O 0.98279(15) 0.84632(11) 0.9280(3)
O8_3 O 0.90197(15) 0.70468(12) 0.6751(3)
O9_3 O 0.96181(14) 0.71553(11) 0.9219(3)
O10_2 O 0.60394(15) 0.33427(11) 0.8027(3)
O12_2 O 0.89606(15) 0.83427(11) 0.6973(3)
C16_3 C 0.7002(2) 0.51333(16) 0.7201(4)
C17_3 C 0.86108(19) 0.64170(15) 0.8331(4)
C18_3 C 0.91236(19) 0.69129(14) 0.8086(4)
C19_3 C 0.8031(3) 0.56735(19) 0.9366(4)
C20_3 C 0.57678(19) 0.36211(15) 0.6811(4)
C21_3 C 0.6369(2) 0.51762(18) 0.5914(4)
H10_3 H 0.6258 0.5524 0.5312
C22_3 C 0.8598(2) 0.61509(18) 0.9618(4)
C24_3 C 0.61682(19) 0.41971(16) 0.6652(4)
C25_3 C 0.7616(2) 0.55847(17) 0.7893(4)
C26_3 C 0.5901(2) 0.46392(18) 0.5588(4)
H12_3 H 0.5457 0.4592 0.4738
S2_4 S 0.70792(5) 0.10907(4) 0.82003(9)
O2_4 O 0.59803(15) 0.20468(12) 0.8249(3)
O3_4 O 0.53819(14) 0.21553(11) 0.5781(3)
C1_4 C 0.7998(2) 0.01333(16) 0.7799(4)
C2_4 C 0.63892(19) 0.14170(15) 0.6669(4)
C3_4 C 0.58764(19) 0.19129(14) 0.6914(4)
C4_4 C 0.6969(3) 0.06735(19) 0.5634(4)
H1_4 H 0.7051 0.0443 0.4872
C6_4 C 0.8631(2) 0.01762(18) 0.9086(4)
H2_4 H 0.8742 0.0524 0.9688
C7_4 C 0.6402(2) 0.11509(18) 0.5382(4)
H3_4 H 0.6074 0.1270 0.4438
C10_4 C 0.7384(2) 0.05847(17) 0.7107(4)
S4_4 S 0.29208(5) 0.10907(4) 0.67997(9)
O8_4 O 0.40197(15) 0.20468(12) 0.6751(3)
O9_4 O 0.46181(14) 0.21553(11) 0.9219(3)
C16_4 C 0.2002(2) 0.01333(16) 0.7201(4)
C17_4 C 0.36108(19) 0.14170(15) 0.8331(4)
C18_4 C 0.41236(19) 0.19129(14) 0.8086(4)
C19_4 C 0.3031(3) 0.06735(19) 0.9366(4)
C21_4 C 0.1369(2) 0.01762(18) 0.5914(4)
H10_4 H 0.1258 0.0524 0.5312
C22_4 C 0.3598(2) 0.11509(18) 0.9618(4)
C25_4 C 0.2616(2) 0.05847(17) 0.7893(4)
S1_4 S 0.79760(5) 0.94262(4) 0.69826(10)
C5_4 C 0.92322(19) 0.86211(15) 0.8189(4)
C9_4 C 0.88318(19) 0.91971(16) 0.8348(4)
C11_4 C 0.9099(2) 0.96392(18) 0.9412(4)
S3_4 S 0.20240(5) 0.94262(4) 0.80174(10)
C20_4 C 0.07678(19) 0.86211(15) 0.6811(4)
C24_4 C 0.11682(19) 0.91971(16) 0.6652(4)
C26_4 C 0.0901(2) 0.96392(18) 0.5588(4)
H12_4 H 0.0457 0.9592 0.4738
H4_2 H 0.0457 0.0408 0.9738
N1_2 N 0.37423(16) 0.73261(12) 0.8746(3)
C8_4 C 0.27636(19) 0.74635(17) 0.5785(3)
C12_4 C 0.2630(3) 0.7776(2) 0.6923(5)
H5_4 H 0.2198 0.8043 0.6719
C13_4 C 0.3373(3) 0.7045(2) 0.6195(5)
H6_4 H 0.3473 0.6799 0.5476
C14_4 C 0.3125(3) 0.7701(2) 0.8373(5)
H7_4 H 0.3020 0.7926 0.9122
C15_4 C 0.3838(3) 0.6988(2) 0.7668(4)
H8_4 H 0.4242 0.6695 0.7916
N2_4 N 0.12577(16) 0.76739(12) 0.1254(3)
H9_3 H 0.7051 0.9557 0.9872
H11_3 H 0.6074 0.8730 0.9438
C23_4 C 0.22364(19) 0.75365(17) 0.4215(3)
C27_4 C 0.2370(3) 0.7224(2) 0.3077(5)
H13_4 H 0.2802 0.6957 0.3281
C28_4 C 0.1627(3) 0.7955(2) 0.3805(5)
H14_4 H 0.1527 0.8201 0.4524
C29_4 C 0.1875(3) 0.7299(2) 0.1627(5)
H15_4 H 0.1980 0.7074 0.0878
C30_4 C 0.1162(3) 0.8012(2) 0.2332(4)
H16_4 H 0.0758 0.8305 0.2084
H4_3 H 0.4543 0.4592 0.0262
H9_4 H 0.7949 0.5443 0.0128
H11_4 H 0.8926 0.6270 0.0562
H4_4 H 0.9543 0.9592 0.0262
loop_
_geom_bond_atom_site_label_1
_geom_bond_atom_site_label_2
_geom_bond_site_symmetry_1
_geom_bond_site_symmetry_2
Zn6 O5 1_555 1_555
Zn7 O10 1_555 1_555
S3 C16 1_555 1_555
S4 C17 1_555 1_555
O5 C20 1_555 1_555
O8 Zn2 1_555 1_555
O10 C20 1_555 1_555
O12 Zn2 1_555 1_555
N3 Zn2 1_555 1_555
C16 C21 1_555 1_555
C17 C18 1_555 1_555
C18 O8 1_555 1_555
C20 C24 1_555 1_555
C21 H10 1_555 1_555
C22 C17 1_555 1_555
C24 S3 1_555 1_555
C25 S4 1_555 1_555
C26 C21 1_555 1_555
H12 C26 1_555 1_555
O9 C18 1_555 1_555
C16 C25 1_555 1_555
C19 C22 1_555 1_555
C19 C25 1_555 1_555
C24 C26 1_555 1_555
Zn1 O2 1_555 1_555
S1 C1 1_555 1_555
S2 C2 1_555 1_555
O1 C5 1_555 1_555
O2 C3 1_555 1_555
O3 C3 1_555 1_555
O4 C5 1_555 1_555
C1 C6 1_555 1_555
C2 C3 1_555 1_555
C4 H1 1_555 1_555
C5 C9 1_555 1_555
C6 H2 1_555 1_555
C7 C2 1_555 1_555
H3 C7 1_555 1_555
C9 S1 1_555 1_555
C10 S2 1_555 1_555
C11 C6 1_555 1_555
Zn7 O1 1_555 1_555
Zn6 O4 1_555 1_555
O11 Zn1 1_555 1_555
C1 C10 1_555 1_555
C4 C7 1_555 1_555
C4 C10 1_555 1_555
C9 C11 1_555 1_555
C8 C12 1_555 1_555
C12 H5 1_555 1_555
C13 C8 1_555 1_555
H6 C13 1_555 1_555
C14 N3 1_555 1_555
H7 C14 1_555 1_555
C15 N3 1_555 1_555
H8 C15 1_555 1_555
C12 C14 1_555 1_555
C13 C15 1_555 1_555
O6 C5_2 1_555 1_555
O12 C5_2 1_555 1_555
C5_2 C9_2 1_555 1_555
C9_2 S1_2 1_555 1_555
O7 C20_2 1_555 1_555
O11 C20_2 1_555 1_555
C20_2 C24_2 1_555 1_555
C24_2 S3_2 1_555 1_555
H12_2 C26_2 1_555 1_555
C9_2 C11_2 1_555 1_555
C24_2 C26_2 1_555 1_555
Zn7 O2_2 1_555 1_555
S2_2 C2_2 1_555 1_555
O2_2 C3_2 1_555 1_555
O3_2 C3_2 1_555 1_555
C1_2 C6_2 1_555 1_555
C2_2 C3_2 1_555 1_555
C4_2 H1_2 1_555 1_555
C6_2 H2_2 1_555 1_555
C7_2 C2_2 1_555 1_555
H3_2 C7_2 1_555 1_555
C10_2 S2_2 1_555 1_555
Zn6 O3_2 1_555 1_555
S4_2 C17_2 1_555 1_555
O8_2 Zn6 1_555 1_555
O9_2 Zn7 1_555 1_555
N3_2 Zn6 1_555 1_555
C16_2 C21_2 1_555 1_555
C17_2 C18_2 1_555 1_555
C18_2 O8_2 1_555 1_555
C21_2 H10_2 1_555 1_555
C22_2 C17_2 1_555 1_555
C25_2 S4_2 1_555 1_555
C1_2 C10_2 1_555 1_555
C4_2 C7_2 1_555 1_555
C4_2 C10_2 1_555 1_555
O9_2 C18_2 1_555 1_555
C16_2 C25_2 1_555 1_555
C19_2 C22_2 1_555 1_555
C19_2 C25_2 1_555 1_555
C8_2 C12_2 1_555 1_555
C12_2 H5_2 1_555 1_555
C13_2 C8_2 1_555 1_555
H6_2 C13_2 1_555 1_555
C14_2 N3_2 1_555 1_555
H7_2 C14_2 1_555 1_555
C15_2 N3_2 1_555 1_555
H8_2 C15_2 1_555 1_555
C12_2 C14_2 1_555 1_555
C13_2 C15_2 1_555 1_555
C8_3 C12_3 1_555 1_555
C12_3 H5_3 1_555 1_555
C13_3 C8_3 1_555 1_555
H6_3 C13_3 1_555 1_555
C14_3 N1 1_555 1_555
H7_3 C14_3 1_555 1_555
C15_3 N1 1_555 1_555
H8_3 C15_3 1_555 1_555
N2 C29 1_555 1_555
C23 C8_3 1_555 1_555
C27 C23 1_555 1_555
H13 C27 1_555 1_555
C28 C23 1_555 1_555
H14 C28 1_555 1_555
C29 C27 1_555 1_555
H15 C29 1_555 1_555
C30 N2 1_555 1_555
H16 C30 1_555 1_555
C12_3 C14_3 1_555 1_555
C13_3 C15_3 1_555 1_555
C28 C30 1_555 1_555
Zn5_2 N2_2 1_555 1_555
N2_2 C29_2 1_555 1_555
C27_2 C23_2 1_555 1_555
H13_2 C27_2 1_555 1_555
C28_2 C23_2 1_555 1_555
H14_2 C28_2 1_555 1_555
C29_2 C27_2 1_555 1_555
H15_2 C29_2 1_555 1_555
C30_2 N2_2 1_555 1_555
H16_2 C30_2 1_555 1_555
C28_2 C30_2 1_555 1_555
Zn5_4 N2_3 1_555 1_555
N2_3 C29_3 1_555 1_555
C27_3 C23_3 1_555 1_555
H13_3 C27_3 1_555 1_555
C28_3 C23_3 1_555 1_555
H14_3 C28_3 1_555 1_555
C29_3 C27_3 1_555 1_555
H15_3 C29_3 1_555 1_555
C30_3 N2_3 1_555 1_555
H16_3 C30_3 1_555 1_555
C28_3 C30_3 1_555 1_555
Zn5_3 O2_3 1_555 1_555
S1_3 C1_3 1_555 1_555
S2_3 C2_3 1_555 1_555
O1_2 C5_3 1_555 1_555
O2_3 C3_3 1_555 1_555
O3_3 C3_3 1_555 1_555
O4_2 C5_3 1_555 1_555
C1_3 C6_3 1_555 1_555
C2_3 C3_3 1_555 1_555
C4_3 H1_3 1_555 1_555
C5_3 C9_3 1_555 1_555
C6_3 H2_3 1_555 1_555
C7_3 C2_3 1_555 1_555
H3_3 C7_3 1_555 1_555
C9_3 S1_3 1_555 1_555
C10_3 S2_3 1_555 1_555
C11_3 C6_3 1_555 1_555
Zn5 O1_2 1_555 1_555
Zn5_2 O4_2 1_555 1_555
O11_2 Zn5_3 1_555 1_555
C1_3 C10_3 1_555 1_555
C4_3 C7_3 1_555 1_555
C4_3 C10_3 1_555 1_555
C9_3 C11_3 1_555 1_555
Zn5_2 O5_2 1_555 1_555
Zn5 O10_2 1_555 1_555
S3_3 C16_3 1_555 1_555
S4_3 C17_3 1_555 1_555
O5_2 C20_3 1_555 1_555
O8_3 Zn5_4 1_555 1_555
O10_2 C20_3 1_555 1_555
O12_2 Zn5_4 1_555 1_555
C16_3 C21_3 1_555 1_555
C17_3 C18_3 1_555 1_555
C18_3 O8_3 1_555 1_555
C20_3 C24_3 1_555 1_555
C21_3 H10_3 1_555 1_555
C22_3 C17_3 1_555 1_555
C24_3 S3_3 1_555 1_555
C25_3 S4_3 1_555 1_555
C26_3 C21_3 1_555 1_555
H12_3 C26_3 1_555 1_555
O9_3 C18_3 1_555 1_555
C16_3 C25_3 1_555 1_555
C19_3 C22_3 1_555 1_555
C19_3 C25_3 1_555 1_555
C24_3 C26_3 1_555 1_555
Zn5 O2_4 1_555 1_555
S2_4 C2_4 1_555 1_555
O2_4 C3_4 1_555 1_555
O3_4 C3_4 1_555 1_555
C1_4 C6_4 1_555 1_555
C2_4 C3_4 1_555 1_555
C4_4 H1_4 1_555 1_555
C6_4 H2_4 1_555 1_555
C7_4 C2_4 1_555 1_555
H3_4 C7_4 1_555 1_555
C10_4 S2_4 1_555 1_555
Zn5_2 O3_4 1_555 1_555
S4_4 C17_4 1_555 1_555
O8_4 Zn5_2 1_555 1_555
O9_4 Zn5 1_555 1_555
C16_4 C21_4 1_555 1_555
C17_4 C18_4 1_555 1_555
C18_4 O8_4 1_555 1_555
C21_4 H10_4 1_555 1_555
C22_4 C17_4 1_555 1_555
C25_4 S4_4 1_555 1_555
C1_4 C10_4 1_555 1_555
C4_4 C7_4 1_555 1_555
C4_4 C10_4 1_555 1_555
O9_4 C18_4 1_555 1_555
C16_4 C25_4 1_555 1_555
C19_4 C22_4 1_555 1_555
C19_4 C25_4 1_555 1_555
O6_2 C5_4 1_555 1_555
O12_2 C5_4 1_555 1_555
C5_4 C9_4 1_555 1_555
C9_4 S1_4 1_555 1_555
O7_2 C20_4 1_555 1_555
O11_2 C20_4 1_555 1_555
C20_4 C24_4 1_555 1_555
C24_4 S3_4 1_555 1_555
H12_4 C26_4 1_555 1_555
C9_4 C11_4 1_555 1_555
C24_4 C26_4 1_555 1_555
C8_4 C12_4 1_555 1_555
C12_4 H5_4 1_555 1_555
C13_4 C8_4 1_555 1_555
H6_4 C13_4 1_555 1_555
C14_4 N1_2 1_555 1_555
H7_4 C14_4 1_555 1_555
C15_4 N1_2 1_555 1_555
H8_4 C15_4 1_555 1_555
N2_4 C29_4 1_555 1_555
C23_4 C8_4 1_555 1_555
C27_4 C23_4 1_555 1_555
H13_4 C27_4 1_555 1_555
C28_4 C23_4 1_555 1_555
H14_4 C28_4 1_555 1_555
C29_4 C27_4 1_555 1_555
H15_4 C29_4 1_555 1_555
C30_4 N2_4 1_555 1_555
H16_4 C30_4 1_555 1_555
C12_4 C14_4 1_555 1_555
C13_4 C15_4 1_555 1_555
C28_4 C30_4 1_555 1_555

#END
