
###############################################################################
#
# This file contains modified crystal structure data generated from the
# MOF subset of the Cambridge Structural Database (CSD) v543 
# hosted by the Cambridge Crystallographic Data Centre (CCDC).
#
# This work is licensed under the Creative Commons
# Attribution-NonCommercial-ShareAlike 4.0 International License.
# To view a copy of this license, visit
# http://creativecommons.org/licenses/by-nc-sa/4.0/
# or send a letter to
# Creative Commons, PO Box 1866, Mountain View, CA 94042, USA.
#
# CIF created using the CSD Python API on 29 September 2022
# The structure has been converted into the P1 space group
# The structure has a 3D framework
# The original CSD entry GUZHAN is in the monoclinic crystal system
# The framework has been calculated to contain at least 10.0% void space
# The void calculation uses a probe of radius 1.32A, grid spacing 0.4
#
###############################################################################

data_GUZHAN
_chemical_formula_moiety         '(C112 H68 Mn2 N8 O36)n'
_symmetry_cell_setting           triclinic
_symmetry_space_group_name_H-M   'P 1'
_symmetry_Int_Tables_number      1
_space_group_name_Hall           'P 1'
loop_
_symmetry_equiv_pos_site_id
_symmetry_equiv_pos_as_xyz
1 x,y,z
_cell_length_a                   12.916(2)
_cell_length_b                   8.9128(13)
_cell_length_c                   27.161(4)
_cell_angle_alpha                90
_cell_angle_beta                 98.425(4)
_cell_angle_gamma                90
_cell_volume                     3092.97
loop_
_atom_site_label
_atom_site_type_symbol
_atom_site_fract_x
_atom_site_fract_y
_atom_site_fract_z
C1 C 0.2295(3) 0.4760(5) 0.19115(15)
C2 C 0.3314(3) 0.4647(6) 0.17043(16)
C3 C 0.4259(4) 0.4643(8) 0.20185(18)
H1 H 0.4275 0.4800 0.2358
C4 C 0.5185(4) 0.4403(9) 0.18261(19)
H2 H 0.5816 0.4363 0.2040
C5 C 0.5180(4) 0.4223(7) 0.13204(17)
H3 H 0.5801 0.4071 0.1192
C6 C 0.4228(3) 0.4275(5) 0.10074(15)
C7 C 0.3293(3) 0.4451(5) 0.11951(15)
H4 H 0.2659 0.4439 0.0983
C8 C 0.3404(3) 0.3800(5) 0.01773(14)
C9 C 0.2955(3) 0.2394(5) 0.01910(14)
H5 H 0.3193 0.1723 0.0445
C20 C 0.1056(4) 0.0471(5) 0.05477(15)
H11 H 0.0992 0.1510 0.0553
C21 C 0.0201(4) 0.0359(5) 0.13151(16)
O1 O 0.2352(3) 0.5130(4) 0.23603(11)
O2 O 0.1478(2) 0.4449(4) 0.16265(11)
O3 O 0.0261(3) 0.1735(4) 0.13374(13)
O6 O 0.4289(2) 0.4186(4) 0.05029(10)
Mn7 Mn 0.00294(5) 0.36023(7) 0.17733(2)
Mn13 Mn 0.12666(5) 0.50288(7) 0.28826(2)
C10 C 0.2148(3) 0.2003(5) 0.98222(15)
C11 C 0.1773(3) 0.3007(5) 0.94481(15)
H6 H 0.1221 0.2737 0.9205
C12 C 0.2226(3) 0.4419(5) 0.94381(14)
C13 C 0.3061(3) 0.4808(5) 0.98026(15)
H7 H 0.3383 0.5738 0.9793
C14 C 0.1815(4) 0.5506(5) 0.90321(14)
C28 C 0.0641(3) 0.3297(5) 0.78046(15)
H17 H 0.1063 0.3300 0.8113
O5 O 0.1763(3) 0.0552(4) 0.97671(11)
O7 O 0.2356(2) 0.6645(4) 0.89720(11)
O8 O 0.0960(2) 0.5168(3) 0.87720(11)
O9 O 0.1520(2) 0.7552(3) 0.80775(10)
H18 H 0.1803 0.7079 0.7876
H19 H 0.1885 0.7470 0.8349
O10 O 0.0041(2) 0.4391(3) 0.77094(10)
O11 O 0.0731(2) 0.2199(3) 0.75286(10)
Mn6 Mn 0.00294(5) 0.13977(7) 0.67733(2)
Mn12 Mn 0.12666(5) 0.99712(7) 0.78826(2)
H8 H 0.1851 0.7773 0.9891
O15 O 0.0267(3) 0.0456(4) 0.84151(12)
Mn16 Mn 0.87334(5) 0.00288(7) 0.21174(2)
Mn1 Mn 0.99706(5) 0.63977(7) 0.82267(2)
Mn2 Mn 0.87334(5) 0.49712(7) 0.71174(2)
C22 C 0.6742(4) 0.7017(7) 0.66039(19)
H12 H 0.6813 0.7710 0.6863
C23 C 0.7019(4) 0.5148(5) 0.61570(15)
H13 H 0.7318 0.4303 0.6035
C24 C 0.6003(4) 0.7060(6) 0.62061(19)
H14 H 0.5484 0.7784 0.6136
C25 C 0.5560(3) 0.5400(5) 0.54536(15)
C26 C 0.4835(4) 0.6389(5) 0.52038(16)
H15 H 0.4724 0.7322 0.5340
C27 C 0.5724(4) 0.4028(5) 0.52527(16)
H16 H 0.6211 0.3372 0.5422
N1 N 0.7384(3) 0.5803(5) 0.65765(13)
N2 N 0.6154(3) 0.5841(4) 0.59212(12)
C29 C 0.3258(4) 0.2983(7) 0.33961(19)
H20 H 0.3187 0.2290 0.3137
C30 C 0.2981(4) 0.4852(5) 0.38430(15)
H21 H 0.2682 0.5697 0.3965
C31 C 0.3997(4) 0.2940(6) 0.37939(19)
H22 H 0.4516 0.2216 0.3864
C32 C 0.4440(3) 0.4600(5) 0.45464(15)
C33 C 0.5165(4) 0.3611(5) 0.47962(16)
H23 H 0.5276 0.2678 0.4660
C34 C 0.4276(4) 0.5972(5) 0.47473(16)
H24 H 0.3789 0.6628 0.4578
N3 N 0.2616(3) 0.4197(5) 0.34235(13)
N4 N 0.3846(3) 0.4159(4) 0.40788(12)
O24 O 0.7648(3) 0.4870(4) 0.76397(11)
O26 O 0.8522(2) 0.5551(4) 0.83735(11)
O28 O 0.9739(3) 0.8265(4) 0.86626(13)
O29 O 0.0267(3) 0.4544(4) 0.34151(12)
O30 O 0.9733(3) 0.5456(4) 0.65849(12)
O31 O 0.8480(2) 0.2552(3) 0.69225(10)
O32 O 0.1520(2) 0.7448(3) 0.30775(10)
O33 O 0.9269(2) 0.7199(3) 0.74714(10)
O34 O 0.0731(2) 0.2801(3) 0.25286(10)
O4 O 0.9733(3) 0.9544(4) 0.15849(12)
H32 H 0.8149 0.2227 0.0109
C44 C 0.7852(3) 0.7997(5) 0.01778(15)
C45 C 0.8227(3) 0.6993(5) 0.05519(15)
H30 H 0.8779 0.7263 0.0795
C46 C 0.7774(3) 0.5581(5) 0.05619(14)
C47 C 0.6939(3) 0.5192(5) 0.01974(15)
H31 H 0.6617 0.4262 0.0207
C48 C 0.8185(4) 0.4494(5) 0.09679(14)
C56 C 0.9359(3) 0.6703(5) 0.21954(15)
H36 H 0.8937 0.6700 0.1887
O16 O 0.8237(3) 0.9448(4) 0.02329(11)
O18 O 0.7644(2) 0.3355(4) 0.10280(11)
O19 O 0.9040(2) 0.4832(3) 0.12280(11)
O20 O 0.8480(2) 0.2448(3) 0.19225(10)
H37 H 0.8197 0.2921 0.2124
H38 H 0.8115 0.2530 0.1651
O21 O 0.9959(2) 0.5609(3) 0.22906(10)
O22 O 0.9269(2) 0.7801(3) 0.24714(10)
Mn8 Mn 0.99706(5) 0.86023(7) 0.32267(2)
C35 C 0.7705(3) 0.5240(5) 0.80885(15)
C36 C 0.6686(3) 0.5353(6) 0.82957(16)
C37 C 0.5741(4) 0.5357(8) 0.79815(18)
H25 H 0.5725 0.5200 0.7642
C38 C 0.4815(4) 0.5597(9) 0.81739(19)
H26 H 0.4184 0.5637 0.7960
C39 C 0.4820(4) 0.5777(7) 0.86796(17)
H27 H 0.4199 0.5929 0.8808
C40 C 0.5772(3) 0.5725(5) 0.89926(15)
C41 C 0.6707(3) 0.5549(5) 0.88049(15)
H28 H 0.7341 0.5561 0.9017
C42 C 0.6596(3) 0.6200(5) 0.98227(14)
C43 C 0.7045(3) 0.7606(5) 0.98090(14)
H29 H 0.6807 0.8277 0.9555
C54 C 0.8944(4) 0.9529(5) 0.94523(15)
H35 H 0.9008 0.8490 0.9447
C55 C 0.9799(4) 0.9641(5) 0.86849(16)
O17 O 0.5711(2) 0.5814(4) 0.94971(10)
C35_2 C 0.2295(3) 0.0240(5) 0.69115(15)
C36_2 C 0.3314(3) 0.0353(6) 0.67043(16)
C37_2 C 0.4259(4) 0.0357(8) 0.70185(18)
H25_2 H 0.4275 0.0200 0.7358
C38_2 C 0.5185(4) 0.0597(9) 0.68261(19)
H26_2 H 0.5816 0.0637 0.7040
C39_2 C 0.5180(4) 0.0777(7) 0.63204(17)
H27_2 H 0.5801 0.0929 0.6192
C40_2 C 0.4228(3) 0.0725(5) 0.60074(15)
C41_2 C 0.3293(3) 0.0549(5) 0.61951(15)
H28_2 H 0.2659 0.0561 0.5983
C42_2 C 0.3404(3) 0.1200(5) 0.51773(14)
C43_2 C 0.2955(3) 0.2606(5) 0.51910(14)
H29_2 H 0.3193 0.3277 0.5445
C44_2 C 0.2148(3) 0.2997(5) 0.48222(15)
C45_2 C 0.1773(3) 0.1993(5) 0.44481(15)
H30_2 H 0.1221 0.2263 0.4205
C46_2 C 0.2226(3) 0.0581(5) 0.44381(14)
C47_2 C 0.3061(3) 0.0192(5) 0.48026(15)
C49 C 0.1485(4) 0.5233(5) 0.51696(16)
C50 C 0.1578(4) 0.6771(6) 0.51523(19)
H32_2 H 0.1851 0.7227 0.4891
C51 C 0.1263(4) 0.7627(6) 0.5527(2)
H33 H 0.1331 0.8665 0.5519
C52 C 0.0845(4) 0.6960(6) 0.59143(18)
H34 H 0.0649 0.7545 0.6169
C53 C 0.0721(4) 0.5404(5) 0.59199(16)
C54_2 C 0.1056(4) 0.4529(5) 0.55477(15)
H35_2 H 0.0992 0.3490 0.5553
C55_2 C 0.0201(4) 0.4641(5) 0.63151(16)
C56_2 C 0.0641(3) 0.1703(5) 0.28046(15)
H36_2 H 0.1063 0.1700 0.3113
O13 O 0.1478(2) 0.0551(4) 0.66265(11)
O14 O 0.0261(3) 0.3265(4) 0.63374(13)
O16_2 O 0.1763(3) 0.4448(4) 0.47671(11)
O17_2 O 0.4289(2) 0.0814(4) 0.55029(10)
O21_2 O 0.0041(2) 0.0609(3) 0.27094(10)
H31_2 H 0.3383 0.9262 0.4793
C48_2 C 0.1815(4) 0.9494(5) 0.40321(14)
O12 O 0.2352(3) 0.9870(4) 0.73603(11)
O18_2 O 0.2356(2) 0.8355(4) 0.39720(11)
O19_2 O 0.0960(2) 0.9832(3) 0.37720(11)
H37_2 H 0.1803 0.7921 0.2876
H38_2 H 0.1885 0.7530 0.3349
H21_2 H 0.7318 0.0697 0.1035
C34_2 C 0.5724(4) 0.0972(5) 0.02527(16)
H24_2 H 0.6211 0.1628 0.0422
O23 O 0.7648(3) 0.0130(4) 0.26397(11)
C22_2 C 0.3258(4) 0.2017(7) 0.83961(19)
H12_2 H 0.3187 0.2710 0.8137
C23_2 C 0.2981(4) 0.0148(5) 0.88430(15)
C24_2 C 0.3997(4) 0.2060(6) 0.87939(19)
H14_2 H 0.4516 0.2784 0.8864
C25_2 C 0.4440(3) 0.0400(5) 0.95464(15)
C26_2 C 0.5165(4) 0.1389(5) 0.97962(16)
H15_2 H 0.5276 0.2322 0.9660
N1_2 N 0.2616(3) 0.0803(5) 0.84235(13)
N2_2 N 0.3846(3) 0.0841(4) 0.90788(12)
C29_2 C 0.6742(4) 0.7983(7) 0.16039(19)
H20_2 H 0.6813 0.7290 0.1863
C30_2 C 0.7019(4) 0.9852(5) 0.11570(15)
C31_2 C 0.6003(4) 0.7940(6) 0.12061(19)
H22_2 H 0.5484 0.7216 0.1136
C32_2 C 0.5560(3) 0.9600(5) 0.04536(15)
C33_2 C 0.4835(4) 0.8611(5) 0.02038(16)
H23_2 H 0.4724 0.7678 0.0340
N3_2 N 0.7384(3) 0.9197(5) 0.15765(13)
N4_2 N 0.6154(3) 0.9159(4) 0.09212(12)
O25 O 0.8522(2) 0.9449(4) 0.33735(11)
O27 O 0.9739(3) 0.6735(4) 0.36626(13)
H13_2 H 0.2682 0.9303 0.8965
C27_2 C 0.4276(4) 0.9028(5) 0.97473(16)
H16_2 H 0.3789 0.8372 0.9578
H7_2 H 0.6617 0.0738 0.5207
C14_2 C 0.8185(4) 0.0506(5) 0.59679(14)
O7_2 O 0.7644(2) 0.1645(4) 0.60280(11)
O8_2 O 0.9040(2) 0.0168(3) 0.62280(11)
H18_2 H 0.8197 0.2079 0.7124
H19_2 H 0.8115 0.2470 0.6651
C1_2 C 0.7705(3) 0.9760(5) 0.30885(15)
C2_2 C 0.6686(3) 0.9647(6) 0.32957(16)
C3_2 C 0.5741(4) 0.9643(8) 0.29815(18)
H1_2 H 0.5725 0.9800 0.2642
C4_2 C 0.4815(4) 0.9403(9) 0.31739(19)
H2_2 H 0.4184 0.9363 0.2960
C5_2 C 0.4820(4) 0.9223(7) 0.36796(17)
H3_2 H 0.4199 0.9071 0.3808
C6_2 C 0.5772(3) 0.9275(5) 0.39926(15)
C7_2 C 0.6707(3) 0.9451(5) 0.38049(15)
H4_2 H 0.7341 0.9439 0.4017
C8_2 C 0.6596(3) 0.8800(5) 0.48227(14)
C9_2 C 0.7045(3) 0.7394(5) 0.48090(14)
H5_2 H 0.6807 0.6723 0.4555
C10_2 C 0.7852(3) 0.7003(5) 0.51778(15)
C11_2 C 0.8227(3) 0.8007(5) 0.55519(15)
H6_2 H 0.8779 0.7737 0.5795
C12_2 C 0.7774(3) 0.9419(5) 0.55619(14)
C13_2 C 0.6939(3) 0.9808(5) 0.51974(15)
C15 C 0.8515(4) 0.4767(5) 0.48304(16)
C16 C 0.8422(4) 0.3229(6) 0.48477(19)
H8_2 H 0.8149 0.2773 0.5109
C17 C 0.8737(4) 0.2373(6) 0.4473(2)
H9 H 0.8669 0.1335 0.4481
C18 C 0.9155(4) 0.3040(6) 0.40857(18)
H10 H 0.9351 0.2455 0.3831
C19 C 0.9279(4) 0.4596(5) 0.40801(16)
C20_2 C 0.8944(4) 0.5471(5) 0.44523(15)
H11_2 H 0.9008 0.6510 0.4447
C21_2 C 0.9799(4) 0.5359(5) 0.36849(16)
C28_2 C 0.9359(3) 0.8297(5) 0.71954(15)
H17_2 H 0.8937 0.8300 0.6887
O5_2 O 0.8237(3) 0.5552(4) 0.52329(11)
O6_2 O 0.5711(2) 0.9186(4) 0.44971(10)
O10_2 O 0.9959(2) 0.9391(3) 0.72906(10)
C15_2 C 0.1485(4) 0.9767(5) 0.01696(16)
C16_2 C 0.1578(4) 0.8229(6) 0.01523(19)
C17_2 C 0.1263(4) 0.7373(6) 0.0527(2)
H9_2 H 0.1331 0.6335 0.0519
C18_2 C 0.0845(4) 0.8040(6) 0.09143(18)
H10_2 H 0.0649 0.7455 0.1169
C19_2 C 0.0721(4) 0.9596(5) 0.09199(16)
C49_2 C 0.8515(4) 0.0233(5) 0.98304(16)
C50_2 C 0.8422(4) 0.1771(6) 0.98477(19)
C51_2 C 0.8737(4) 0.2627(6) 0.9473(2)
H33_2 H 0.8669 0.3665 0.9481
C52_2 C 0.9155(4) 0.1960(6) 0.90857(18)
H34_2 H 0.9351 0.2545 0.8831
C53_2 C 0.9279(4) 0.0404(5) 0.90801(16)
loop_
_geom_bond_atom_site_label_1
_geom_bond_atom_site_label_2
_geom_bond_site_symmetry_1
_geom_bond_site_symmetry_2
C1 C2 1_555 1_555
C2 C3 1_555 1_555
C3 H1 1_555 1_555
C4 C3 1_555 1_555
H2 C4 1_555 1_555
C5 C4 1_555 1_555
H3 C5 1_555 1_555
C6 C5 1_555 1_555
C7 C2 1_555 1_555
H4 C7 1_555 1_555
C8 C9 1_555 1_555
C9 H5 1_555 1_555
H11 C20 1_555 1_555
O1 C1 1_555 1_555
O2 C1 1_555 1_555
O3 C21 1_555 1_555
O6 C6 1_555 1_555
Mn7 O2 1_555 1_555
Mn13 O1 1_555 1_555
C6 C7 1_555 1_555
C8 O6 1_555 1_555
O3 Mn7 1_555 1_555
C11 C10 1_555 1_555
H6 C11 1_555 1_555
C12 C11 1_555 1_555
H7 C13 1_555 1_555
C14 C12 1_555 1_555
C28 H17 1_555 1_555
O5 C10 1_555 1_555
O7 C14 1_555 1_555
O8 C14 1_555 1_555
H18 O9 1_555 1_555
H19 O9 1_555 1_555
O11 C28 1_555 1_555
Mn6 O11 1_555 1_555
Mn12 O9 1_555 1_555
C12 C13 1_555 1_555
C28 O10 1_555 1_555
Mn2 N1 1_555 1_555
C22 H12 1_555 1_555
C23 H13 1_555 1_555
C24 C22 1_555 1_555
H14 C24 1_555 1_555
C25 C26 1_555 1_555
C26 H15 1_555 1_555
C27 C25 1_555 1_555
H16 C27 1_555 1_555
N1 C22 1_555 1_555
N2 C23 1_555 1_555
C29 H20 1_555 1_555
C30 H21 1_555 1_555
C31 C29 1_555 1_555
H22 C31 1_555 1_555
C32 C33 1_555 1_555
C33 C27 1_555 1_555
H23 C33 1_555 1_555
C34 C26 1_555 1_555
H24 C34 1_555 1_555
N3 C29 1_555 1_555
N4 C30 1_555 1_555
Mn13 N3 1_555 1_555
O24 Mn2 1_555 1_555
O26 Mn1 1_555 1_555
O28 Mn1 1_555 1_555
O29 Mn13 1_555 1_555
O30 Mn2 1_555 1_555
O31 Mn2 1_555 1_555
O32 Mn13 1_555 1_555
O33 Mn1 1_555 1_555
O34 Mn7 1_555 1_555
Mn2 O33 1_555 1_555
C23 N1 1_555 1_555
C24 N2 1_555 1_555
C25 N2 1_555 1_555
C30 N3 1_555 1_555
C31 N4 1_555 1_555
C32 C34 1_555 1_555
C32 N4 1_555 1_555
Mn13 O34 1_555 1_555
C45 C44 1_555 1_555
H30 C45 1_555 1_555
C46 C45 1_555 1_555
H31 C47 1_555 1_555
C48 C46 1_555 1_555
C56 H36 1_555 1_555
O16 C44 1_555 1_555
O18 C48 1_555 1_555
O19 C48 1_555 1_555
H37 O20 1_555 1_555
H38 O20 1_555 1_555
O22 C56 1_555 1_555
Mn8 O22 1_555 1_555
Mn16 O20 1_555 1_555
C46 C47 1_555 1_555
C56 O21 1_555 1_555
C35 C36 1_555 1_555
C36 C37 1_555 1_555
C37 H25 1_555 1_555
C38 C37 1_555 1_555
H26 C38 1_555 1_555
C39 C38 1_555 1_555
H27 C39 1_555 1_555
C40 C39 1_555 1_555
C41 C36 1_555 1_555
H28 C41 1_555 1_555
C42 C43 1_555 1_555
C43 H29 1_555 1_555
H35 C54 1_555 1_555
O24 C35 1_555 1_555
O26 C35 1_555 1_555
O28 C55 1_555 1_555
O17 C40 1_555 1_555
C40 C41 1_555 1_555
C42 O17 1_555 1_555
C35_2 C36_2 1_555 1_555
C36_2 C37_2 1_555 1_555
C37_2 H25_2 1_555 1_555
C38_2 C37_2 1_555 1_555
H26_2 C38_2 1_555 1_555
C39_2 C38_2 1_555 1_555
H27_2 C39_2 1_555 1_555
C40_2 C39_2 1_555 1_555
C41_2 C36_2 1_555 1_555
H28_2 C41_2 1_555 1_555
C42_2 C43_2 1_555 1_555
C43_2 H29_2 1_555 1_555
C44_2 C43_2 1_555 1_555
C45_2 C44_2 1_555 1_555
H30_2 C45_2 1_555 1_555
C46_2 C45_2 1_555 1_555
C47_2 C42_2 1_555 1_555
C49 C50 1_555 1_555
C50 H32_2 1_555 1_555
C51 C50 1_555 1_555
H33 C51 1_555 1_555
C52 C51 1_555 1_555
H34 C52 1_555 1_555
C53 C52 1_555 1_555
C54_2 C49 1_555 1_555
H35_2 C54_2 1_555 1_555
C55_2 C53 1_555 1_555
C56_2 H36_2 1_555 1_555
O13 C35_2 1_555 1_555
O14 C55_2 1_555 1_555
O16_2 C44_2 1_555 1_555
O17_2 C40_2 1_555 1_555
O34 C56_2 1_555 1_555
Mn6 O13 1_555 1_555
C40_2 C41_2 1_555 1_555
C42_2 O17_2 1_555 1_555
C46_2 C47_2 1_555 1_555
C49 O16_2 1_555 1_555
C53 C54_2 1_555 1_555
C56_2 O21_2 1_555 1_555
O14 Mn6 1_555 1_555
O18_2 C48_2 1_555 1_555
O19_2 C48_2 1_555 1_555
H37_2 O32 1_555 1_555
H38_2 O32 1_555 1_555
Mn12 O12 1_555 1_555
H24_2 C34_2 1_555 1_555
O23 Mn16 1_555 1_555
C22_2 H12_2 1_555 1_555
C24_2 C22_2 1_555 1_555
H14_2 C24_2 1_555 1_555
C25_2 C26_2 1_555 1_555
C26_2 H15_2 1_555 1_555
N1_2 C22_2 1_555 1_555
N2_2 C23_2 1_555 1_555
C23_2 N1_2 1_555 1_555
C24_2 N2_2 1_555 1_555
C25_2 N2_2 1_555 1_555
C29_2 H20_2 1_555 1_555
C31_2 C29_2 1_555 1_555
H22_2 C31_2 1_555 1_555
C32_2 C33_2 1_555 1_555
H23_2 C33_2 1_555 1_555
N3_2 C29_2 1_555 1_555
N4_2 C30_2 1_555 1_555
O25 Mn8 1_555 1_555
O27 Mn8 1_555 1_555
C30_2 N3_2 1_555 1_555
C31_2 N4_2 1_555 1_555
C32_2 N4_2 1_555 1_555
H16_2 C27_2 1_555 1_555
O7_2 C14_2 1_555 1_555
O8_2 C14_2 1_555 1_555
H18_2 O31 1_555 1_555
H19_2 O31 1_555 1_555
C1_2 C2_2 1_555 1_555
C2_2 C3_2 1_555 1_555
C3_2 H1_2 1_555 1_555
C4_2 C3_2 1_555 1_555
H2_2 C4_2 1_555 1_555
C5_2 C4_2 1_555 1_555
H3_2 C5_2 1_555 1_555
C6_2 C5_2 1_555 1_555
C7_2 C2_2 1_555 1_555
H4_2 C7_2 1_555 1_555
C8_2 C9_2 1_555 1_555
C9_2 H5_2 1_555 1_555
C10_2 C9_2 1_555 1_555
C11_2 C10_2 1_555 1_555
H6_2 C11_2 1_555 1_555
C12_2 C11_2 1_555 1_555
C13_2 C8_2 1_555 1_555
C15 C16 1_555 1_555
C16 H8_2 1_555 1_555
C17 C16 1_555 1_555
H9 C17 1_555 1_555
C18 C17 1_555 1_555
H10 C18 1_555 1_555
C19 C18 1_555 1_555
C20_2 C15 1_555 1_555
H11_2 C20_2 1_555 1_555
C21_2 C19 1_555 1_555
C28_2 H17_2 1_555 1_555
O25 C1_2 1_555 1_555
O27 C21_2 1_555 1_555
O5_2 C10_2 1_555 1_555
O6_2 C6_2 1_555 1_555
O33 C28_2 1_555 1_555
C6_2 C7_2 1_555 1_555
C8_2 O6_2 1_555 1_555
C12_2 C13_2 1_555 1_555
C15 O5_2 1_555 1_555
C19 C20_2 1_555 1_555
C28_2 O10_2 1_555 1_555
C15_2 C16_2 1_555 1_555
C17_2 C16_2 1_555 1_555
H9_2 C17_2 1_555 1_555
C18_2 C17_2 1_555 1_555
H10_2 C18_2 1_555 1_555
C19_2 C18_2 1_555 1_555
C49_2 C50_2 1_555 1_555
C51_2 C50_2 1_555 1_555
H33_2 C51_2 1_555 1_555
C52_2 C51_2 1_555 1_555
H34_2 C52_2 1_555 1_555
C53_2 C52_2 1_555 1_555

#END
