
###############################################################################
#
# This file contains modified crystal structure data generated from the
# MOF subset of the Cambridge Structural Database (CSD) v543 
# hosted by the Cambridge Crystallographic Data Centre (CCDC).
#
# This work is licensed under the Creative Commons
# Attribution-NonCommercial-ShareAlike 4.0 International License.
# To view a copy of this license, visit
# http://creativecommons.org/licenses/by-nc-sa/4.0/
# or send a letter to
# Creative Commons, PO Box 1866, Mountain View, CA 94042, USA.
#
# CIF created using the CSD Python API on 29 September 2022
# The structure has been converted into the P1 space group
# The structure has a 3D framework
# The original CSD entry GUZQEA is in the orthorhombic crystal system
# The original CSD entry GUZQEA is in a Sohncke space group
# The framework has been calculated to contain at least 10.0% void space
# The void calculation uses a probe of radius 1.32A, grid spacing 0.4
# The framework is charged, counterions have been retained in the structure
#
###############################################################################

data_GUZQEA
_chemical_formula_moiety         '(C112 H40 Cu8 N29 O8)n'
_symmetry_cell_setting           triclinic
_symmetry_space_group_name_H-M   'P 1'
_symmetry_Int_Tables_number      1
_space_group_name_Hall           'P 1'
loop_
_symmetry_equiv_pos_site_id
_symmetry_equiv_pos_as_xyz
1 x,y,z
_cell_length_a                   9.4728(2)
_cell_length_b                   17.0086(7)
_cell_length_c                   18.3265(8)
_cell_angle_alpha                90
_cell_angle_beta                 90
_cell_angle_gamma                90
_cell_volume                     2952.75
loop_
_atom_site_label
_atom_site_type_symbol
_atom_site_fract_x
_atom_site_fract_y
_atom_site_fract_z
O1 O 0.0281(5) 0.6225(3) 0.6244(3)
N3 N 0.2329(6) 0.5186(4) 0.4448(3)
C1 C 0.0329(7) 0.5550(5) 0.6043(3)
C5 C 0.1179(7) 0.5141(4) 0.4614(3)
C9 C 0.1410(6) 0.4979(5) 0.6287(3)
C10 C 0.2568(8) 0.5254(5) 0.6670(4)
H1 H 0.2627 0.5786 0.6785
C11 C 0.3630(9) 0.4757(6) 0.6883(5)
H2 H 0.4402 0.4949 0.7140
C12 C 0.3541(10) 0.3975(7) 0.6714(5)
H3 H 0.4259 0.3632 0.6852
C13 C 0.2392(10) 0.3698(5) 0.6340(4)
H4 H 0.2335 0.3167 0.6225
C14 C 0.1318(8) 0.4197(5) 0.6131(4)
H5 H 0.0535 0.4001 0.5885
Cu4 Cu 0.43076(9) 0.50179(6) 0.40745(5)
Cu1 Cu 0.56924(9) 0.00179(6) 0.09255(5)
N1 N 0.5755(6) 0.5027(4) 0.4854(3)
N2 N 0.7142(6) 0.5676(4) 0.7000(3)
N4 N 0.8307(6) 0.4427(4) 0.3770(3)
C2 C 0.9228(7) 0.5274(3) 0.5481(3)
C3 C 0.7843(7) 0.5288(3) 0.5704(3)
C4 C 0.9727(6) 0.5061(5) 0.4800(3)
C6 C 0.8907(7) 0.4725(4) 0.4242(4)
C7 C 0.6675(6) 0.5136(4) 0.5233(3)
C8 C 0.7457(7) 0.5503(4) 0.6429(4)
Cu2 Cu 0.80200(11) 0.37239(6) 0.29357(5)
O2 O 0.1719(5) 0.1166(3) 0.2400(3)
N5 N 0.6504(6) 0.2959(4) 0.2800(3)
N6 N 0.5171(6) 0.0902(4) 0.1589(4)
N8 N 0.3960(6) 0.4021(4) 0.3527(3)
C15 C 0.1943(8) 0.1800(4) 0.2116(4)
C16 C 0.3092(7) 0.2320(4) 0.2445(3)
C17 C 0.2592(6) 0.2958(4) 0.2844(4)
C18 C 0.4466(8) 0.2116(4) 0.2326(3)
C19 C 0.1113(8) 0.3088(4) 0.2899(4)
C20 C 0.3408(7) 0.3530(4) 0.3212(4)
C21 C 0.5600(8) 0.2585(4) 0.2581(4)
C22 C 0.4853(7) 0.1435(5) 0.1917(4)
C23 C 0.1116(5) 0.2102(3) 0.1501(2)
C27 C 0.0795(7) 0.3030(3) 0.0522(3)
H9 H 0.1140 0.3437 0.0234
C28 C 0.1633(4) 0.2710(3) 0.1069(3)
H10 H 0.2540 0.2903 0.1147
N9 N 0.4245(6) 0.0027(4) 0.0146(3)
N10 N 0.7858(6) 0.4324(4) 0.2000(3)
N11 N 0.7671(6) 0.0186(4) 0.0552(3)
Cu6 Cu 0.69800(11) 0.62761(6) 0.79357(5)
N12 N 0.9931(6) 0.3213(4) 0.2945(4)
N13 N 0.6040(6) 0.9021(4) 0.1473(3)
C24 C 0.9761(5) 0.1815(3) 0.1385(3)
H6 H 0.9416 0.1408 0.1673
C25 C 0.8923(4) 0.2135(4) 0.0838(4)
H7 H 0.8016 0.1942 0.0760
C26 C 0.9440(7) 0.2742(4) 0.0406(3)
H8 H 0.8879 0.2956 0.0040
O2_2 O 0.3281(5) 0.8834(3) 0.7400(3)
N7 N 0.5069(6) 0.6787(4) 0.7945(4)
N8_2 N 0.1040(6) 0.5979(4) 0.8527(3)
C15_2 C 0.3057(8) 0.8200(4) 0.7116(4)
C16_2 C 0.1908(7) 0.7680(4) 0.7445(3)
C17_2 C 0.2408(6) 0.7042(4) 0.7844(4)
C18_2 C 0.0534(8) 0.7884(4) 0.7326(3)
C19_2 C 0.3887(8) 0.6912(4) 0.7899(4)
C20_2 C 0.1592(7) 0.6470(4) 0.8212(4)
C22_2 C 0.0147(7) 0.8565(5) 0.6917(4)
C23_2 C 0.3884(5) 0.7898(3) 0.6501(2)
C24_2 C 0.5239(5) 0.8185(3) 0.6385(3)
H6_2 H 0.5584 0.8592 0.6673
C25_2 C 0.6077(4) 0.7865(4) 0.5838(4)
H7_2 H 0.6984 0.8058 0.5760
C26_2 C 0.5560(7) 0.7258(4) 0.5406(3)
H8_2 H 0.6121 0.7044 0.5040
C27_2 C 0.4205(7) 0.6970(3) 0.5522(3)
H9_2 H 0.3860 0.6563 0.5234
C28_2 C 0.3367(4) 0.7290(3) 0.6069(3)
H10_2 H 0.2460 0.7097 0.6147
Cu3 Cu 0.06924(9) 0.49821(6) 0.90745(5)
N9_2 N 0.0755(6) 0.9973(4) 0.5146(3)
N13_2 N 0.8960(6) 0.0979(4) 0.6473(3)
O1_2 O 0.4719(5) 0.3775(3) 0.1244(3)
C1_2 C 0.4671(7) 0.4450(5) 0.1043(3)
C2_2 C 0.5772(7) 0.4726(3) 0.0481(3)
C3_2 C 0.7157(7) 0.4712(3) 0.0704(3)
C7_2 C 0.8325(6) 0.4864(4) 0.0233(3)
C8_2 C 0.7543(7) 0.4497(4) 0.1429(4)
C9_2 C 0.3590(6) 0.5021(5) 0.1287(3)
C10_2 C 0.2432(8) 0.4746(5) 0.1670(4)
H1_2 H 0.2373 0.4214 0.1785
C11_2 C 0.1370(9) 0.5243(6) 0.1883(5)
H2_2 H 0.0598 0.5051 0.2140
C12_2 C 0.1459(10) 0.6025(7) 0.1714(5)
H3_2 H 0.0741 0.6368 0.1852
C13_2 C 0.2608(10) 0.6302(5) 0.1340(4)
H4_2 H 0.2665 0.6833 0.1225
C14_2 C 0.3682(8) 0.5803(5) 0.1131(4)
H5_2 H 0.4465 0.5999 0.0885
Cu1_2 Cu 0.93076(9) 0.99821(6) 0.59255(5)
N1_2 N 0.9245(6) 0.4973(4) 0.9854(3)
N3_2 N 0.2671(6) 0.4814(4) 0.9448(3)
N4_2 N 0.6693(6) 0.5573(4) 0.8770(3)
C4_2 C 0.5273(6) 0.4939(5) 0.9800(3)
C5_2 C 0.3821(7) 0.4859(4) 0.9614(3)
C6_2 C 0.6093(7) 0.5275(4) 0.9242(4)
N5_2 N 0.8496(6) 0.7041(4) 0.7800(3)
N6_2 N 0.9829(6) 0.9098(4) 0.6589(4)
C21_2 C 0.9400(8) 0.7415(4) 0.7581(4)
N11_2 N 0.7329(6) 0.9814(4) 0.5552(3)
N7_2 N 0.0069(6) 0.8213(4) 0.2055(4)
C24_3 C 0.0239(5) 0.6815(3) 0.3615(3)
H6_3 H 0.0584 0.6408 0.3327
C25_3 C 0.1077(4) 0.7135(4) 0.4162(4)
H7_3 H 0.1984 0.6942 0.4240
C26_3 C 0.0560(7) 0.7742(4) 0.4594(3)
H8_3 H 0.1121 0.7956 0.4960
Cu5 Cu 0.19800(11) 0.87239(6) 0.20643(5)
C4_3 C 0.0273(6) 0.0061(5) 0.0200(3)
N2_2 N 0.2858(6) 0.0676(4) 0.8000(3)
C2_3 C 0.0772(7) 0.0274(3) 0.9519(3)
C3_3 C 0.2157(7) 0.0288(3) 0.9296(3)
C7_3 C 0.3325(6) 0.0136(4) 0.9767(3)
C8_3 C 0.2543(7) 0.0503(4) 0.8571(4)
Cu6_2 Cu 0.30200(11) 0.12761(6) 0.70643(5)
N4_3 N 0.1693(6) 0.9427(4) 0.1230(3)
C6_3 C 0.1093(7) 0.9725(4) 0.0758(4)
O2_3 O 0.8281(5) 0.6166(3) 0.2600(3)
N5_3 N 0.3496(6) 0.7959(4) 0.2200(3)
N6_3 N 0.4829(6) 0.5902(4) 0.3411(4)
C15_3 C 0.8057(8) 0.6800(4) 0.2884(4)
C16_3 C 0.6908(7) 0.7320(4) 0.2555(3)
C17_3 C 0.7408(6) 0.7958(4) 0.2156(4)
C18_3 C 0.5534(8) 0.7116(4) 0.2674(3)
C19_3 C 0.8887(8) 0.8088(4) 0.2101(4)
C20_3 C 0.6592(7) 0.8530(4) 0.1788(4)
C21_3 C 0.4400(8) 0.7585(4) 0.2419(4)
C22_3 C 0.5147(7) 0.6435(5) 0.3083(4)
C23_3 C 0.8884(5) 0.7102(3) 0.3499(2)
C27_3 C 0.9205(7) 0.8030(3) 0.4478(3)
H9_3 H 0.8860 0.8437 0.4766
C28_3 C 0.8367(4) 0.7710(3) 0.3931(3)
H10_3 H 0.7460 0.7903 0.3853
N10_2 N 0.2142(6) 0.9324(4) 0.3000(3)
C5_3 C 0.8821(7) 0.0141(4) 0.0386(3)
N4_4 N 0.3307(6) 0.0573(4) 0.6230(3)
C6_4 C 0.3907(7) 0.0275(4) 0.5758(4)
C9_3 C 0.6410(6) 0.0021(5) 0.3713(3)
C11_3 C 0.8630(9) 0.0243(6) 0.3117(5)
H2_3 H 0.9402 0.0051 0.2860
C12_3 C 0.8541(10) 0.1025(7) 0.3286(5)
H3_3 H 0.9259 0.1368 0.3148
C13_3 C 0.7392(10) 0.1302(5) 0.3660(4)
H4_3 H 0.7335 0.1833 0.3775
C14_3 C 0.6318(8) 0.0803(5) 0.3869(4)
H5_3 H 0.5535 0.0999 0.4115
N5_4 N 0.1504(6) 0.2041(4) 0.7200(3)
N6_4 N 0.0171(6) 0.4098(4) 0.8411(4)
C21_4 C 0.0600(8) 0.2415(4) 0.7419(4)
N12_2 N 0.4931(6) 0.1787(4) 0.7055(4)
O1_3 O 0.5281(5) 0.8775(3) 0.3756(3)
C1_3 C 0.5329(7) 0.9450(5) 0.3957(3)
C2_4 C 0.4228(7) 0.9726(3) 0.4519(3)
C3_4 C 0.2843(7) 0.9712(3) 0.4296(3)
C4_4 C 0.4727(6) 0.9939(5) 0.5200(3)
C5_4 C 0.6179(7) 0.9859(4) 0.5386(3)
C7_4 C 0.1675(6) 0.9864(4) 0.4767(3)
C8_4 C 0.2457(7) 0.9497(4) 0.3571(4)
C10_3 C 0.7568(8) 0.9746(5) 0.3330(4)
H1_3 H 0.7627 0.9214 0.3215
O2_4 O 0.6719(5) 0.3834(3) 0.7600(3)
C15_4 C 0.6943(8) 0.3200(4) 0.7884(4)
C16_4 C 0.8092(7) 0.2680(4) 0.7555(3)
C17_4 C 0.7592(6) 0.2042(4) 0.7156(4)
C18_4 C 0.9466(8) 0.2884(4) 0.7674(3)
C19_4 C 0.6113(8) 0.1912(4) 0.7101(4)
C20_4 C 0.8408(7) 0.1470(4) 0.6788(4)
C22_4 C 0.9853(7) 0.3565(5) 0.8083(4)
C23_4 C 0.6116(5) 0.2898(3) 0.8499(2)
C24_4 C 0.4761(5) 0.3185(3) 0.8615(3)
H6_4 H 0.4416 0.3592 0.8327
C25_4 C 0.3923(4) 0.2865(4) 0.9162(4)
H7_4 H 0.3016 0.3058 0.9240
C26_4 C 0.4440(7) 0.2258(4) 0.9594(3)
H8_4 H 0.3879 0.2044 0.9960
C27_4 C 0.5795(7) 0.1970(3) 0.9478(3)
H9_4 H 0.6140 0.1563 0.9766
C28_4 C 0.6633(4) 0.2290(3) 0.8931(3)
H10_4 H 0.7540 0.2097 0.8853
O1_4 O 0.9719(5) 0.1225(3) 0.8756(3)
C1_4 C 0.9671(7) 0.0550(5) 0.8957(3)
C10_4 C 0.7432(8) 0.0254(5) 0.8330(4)
H1_4 H 0.7373 0.0786 0.8215
C9_4 C 0.8590(6) 0.9979(5) 0.8713(3)
C11_4 C 0.6370(9) 0.9757(6) 0.8117(5)
H2_4 H 0.5598 0.9949 0.7860
C12_4 C 0.6459(10) 0.8975(7) 0.8286(5)
H3_4 H 0.5741 0.8632 0.8148
C13_4 C 0.7608(10) 0.8698(5) 0.8660(4)
H4_4 H 0.7665 0.8167 0.8775
C14_4 C 0.8682(8) 0.9197(5) 0.8869(4)
H5_4 H 0.9465 0.9001 0.9115
loop_
_geom_bond_atom_site_label_1
_geom_bond_atom_site_label_2
_geom_bond_site_symmetry_1
_geom_bond_site_symmetry_2
O1 C1 1_555 1_555
N3 C5 1_555 1_555
C9 C1 1_555 1_555
C10 C9 1_555 1_555
H1 C10 1_555 1_555
C11 C10 1_555 1_555
H2 C11 1_555 1_555
C12 C11 1_555 1_555
H3 C12 1_555 1_555
C13 C12 1_555 1_555
H4 C13 1_555 1_555
C14 C9 1_555 1_555
H5 C14 1_555 1_555
Cu4 N3 1_555 1_555
C13 C14 1_555 1_555
Cu1 N6 1_555 1_555
N1 C7 1_555 1_555
N2 C8 1_555 1_555
N4 C6 1_555 1_555
C2 C3 1_555 1_555
C3 C7 1_555 1_555
C4 C2 1_555 1_555
C6 C4 1_555 1_555
C8 C3 1_555 1_555
Cu2 N4 1_555 1_555
O2 C15 1_555 1_555
N5 Cu2 1_555 1_555
N6 C22 1_555 1_555
N8 C20 1_555 1_555
C15 C16 1_555 1_555
C16 C17 1_555 1_555
C17 C19 1_555 1_555
C18 C16 1_555 1_555
C20 C17 1_555 1_555
C21 N5 1_555 1_555
C22 C18 1_555 1_555
C23 C15 1_555 1_555
H9 C27 1_555 1_555
C28 C23 1_555 1_555
H10 C28 1_555 1_555
Cu4 N1 1_555 1_555
N9 Cu1 1_555 1_555
N10 Cu2 1_555 1_555
N11 Cu1 1_555 1_555
Cu6 N2 1_555 1_555
N12 Cu2 1_555 1_555
N8 Cu4 1_555 1_555
C18 C21 1_555 1_555
C27 C28 1_555 1_555
H6 C24 1_555 1_555
C25 C24 1_555 1_555
H7 C25 1_555 1_555
C26 C25 1_555 1_555
H8 C26 1_555 1_555
O2_2 C15_2 1_555 1_555
N7 C19_2 1_555 1_555
N8_2 C20_2 1_555 1_555
C15_2 C16_2 1_555 1_555
C16_2 C17_2 1_555 1_555
C17_2 C19_2 1_555 1_555
C18_2 C16_2 1_555 1_555
C20_2 C17_2 1_555 1_555
C22_2 C18_2 1_555 1_555
C23_2 C15_2 1_555 1_555
C24_2 C23_2 1_555 1_555
H6_2 C24_2 1_555 1_555
C25_2 C24_2 1_555 1_555
H7_2 C25_2 1_555 1_555
C26_2 C25_2 1_555 1_555
H8_2 C26_2 1_555 1_555
C27_2 C26_2 1_555 1_555
H9_2 C27_2 1_555 1_555
C28_2 C23_2 1_555 1_555
H10_2 C28_2 1_555 1_555
Cu6 N7 1_555 1_555
N8_2 Cu3 1_555 1_555
C27_2 C28_2 1_555 1_555
O1_2 C1_2 1_555 1_555
N10 C8_2 1_555 1_555
C1_2 C2_2 1_555 1_555
C2_2 C3_2 1_555 1_555
C3_2 C7_2 1_555 1_555
C8_2 C3_2 1_555 1_555
C9_2 C1_2 1_555 1_555
C10_2 C9_2 1_555 1_555
H1_2 C10_2 1_555 1_555
C11_2 C10_2 1_555 1_555
H2_2 C11_2 1_555 1_555
C12_2 C11_2 1_555 1_555
H3_2 C12_2 1_555 1_555
C13_2 C12_2 1_555 1_555
H4_2 C13_2 1_555 1_555
C14_2 C9_2 1_555 1_555
H5_2 C14_2 1_555 1_555
C13_2 C14_2 1_555 1_555
Cu1_2 N6_2 1_555 1_555
N3_2 C5_2 1_555 1_555
N4_2 C6_2 1_555 1_555
C5_2 C4_2 1_555 1_555
C6_2 C4_2 1_555 1_555
Cu6 N4_2 1_555 1_555
N5_2 Cu6 1_555 1_555
C21_2 N5_2 1_555 1_555
Cu3 N3_2 1_555 1_555
N11_2 Cu1_2 1_555 1_555
H6_3 C24_3 1_555 1_555
C25_3 C24_3 1_555 1_555
H7_3 C25_3 1_555 1_555
C26_3 C25_3 1_555 1_555
H8_3 C26_3 1_555 1_555
Cu5 N7_2 1_555 1_555
N2_2 C8_3 1_555 1_555
C2_3 C3_3 1_555 1_555
C3_3 C7_3 1_555 1_555
C8_3 C3_3 1_555 1_555
Cu6_2 N2_2 1_555 1_555
Cu4 N6_3 1_555 1_555
N4_3 C6_3 1_555 1_555
Cu5 N4_3 1_555 1_555
O2_3 C15_3 1_555 1_555
N5_3 Cu5 1_555 1_555
N6_3 C22_3 1_555 1_555
N13 C20_3 1_555 1_555
C15_3 C16_3 1_555 1_555
C16_3 C17_3 1_555 1_555
C17_3 C19_3 1_555 1_555
C18_3 C16_3 1_555 1_555
C20_3 C17_3 1_555 1_555
C21_3 N5_3 1_555 1_555
C22_3 C18_3 1_555 1_555
C23_3 C15_3 1_555 1_555
H9_3 C27_3 1_555 1_555
C28_3 C23_3 1_555 1_555
H10_3 C28_3 1_555 1_555
N10_2 Cu5 1_555 1_555
C18_3 C21_3 1_555 1_555
C27_3 C28_3 1_555 1_555
N11 C5_3 1_555 1_555
Cu3 N6_4 1_555 1_555
N4_4 C6_4 1_555 1_555
H2_3 C11_3 1_555 1_555
C12_3 C11_3 1_555 1_555
H3_3 C12_3 1_555 1_555
C13_3 C12_3 1_555 1_555
H4_3 C13_3 1_555 1_555
C14_3 C9_3 1_555 1_555
H5_3 C14_3 1_555 1_555
Cu6_2 N4_4 1_555 1_555
N5_4 Cu6_2 1_555 1_555
C21_4 N5_4 1_555 1_555
N12_2 Cu6_2 1_555 1_555
C13_3 C14_3 1_555 1_555
O1_3 C1_3 1_555 1_555
N9_2 C7_4 1_555 1_555
N10_2 C8_4 1_555 1_555
N11_2 C5_4 1_555 1_555
C1_3 C2_4 1_555 1_555
C2_4 C3_4 1_555 1_555
C3_4 C7_4 1_555 1_555
C4_4 C2_4 1_555 1_555
C5_4 C4_4 1_555 1_555
C8_4 C3_4 1_555 1_555
H1_3 C10_3 1_555 1_555
O2_4 C15_4 1_555 1_555
N12_2 C19_4 1_555 1_555
N13_2 C20_4 1_555 1_555
C15_4 C16_4 1_555 1_555
C16_4 C17_4 1_555 1_555
C17_4 C19_4 1_555 1_555
C18_4 C16_4 1_555 1_555
C20_4 C17_4 1_555 1_555
C22_4 C18_4 1_555 1_555
C23_4 C15_4 1_555 1_555
C24_4 C23_4 1_555 1_555
H6_4 C24_4 1_555 1_555
C25_4 C24_4 1_555 1_555
H7_4 C25_4 1_555 1_555
C26_4 C25_4 1_555 1_555
H8_4 C26_4 1_555 1_555
C27_4 C26_4 1_555 1_555
H9_4 C27_4 1_555 1_555
C28_4 C23_4 1_555 1_555
H10_4 C28_4 1_555 1_555
C27_4 C28_4 1_555 1_555
O1_4 C1_4 1_555 1_555
H1_4 C10_4 1_555 1_555
H2_4 C11_4 1_555 1_555
C12_4 C11_4 1_555 1_555
H3_4 C12_4 1_555 1_555
C13_4 C12_4 1_555 1_555
H4_4 C13_4 1_555 1_555
C14_4 C9_4 1_555 1_555
H5_4 C14_4 1_555 1_555
C13_4 C14_4 1_555 1_555

#END
