
###############################################################################
#
# This file contains modified crystal structure data generated from the
# MOF subset of the Cambridge Structural Database (CSD) v543 
# hosted by the Cambridge Crystallographic Data Centre (CCDC).
#
# This work is licensed under the Creative Commons
# Attribution-NonCommercial-ShareAlike 4.0 International License.
# To view a copy of this license, visit
# http://creativecommons.org/licenses/by-nc-sa/4.0/
# or send a letter to
# Creative Commons, PO Box 1866, Mountain View, CA 94042, USA.
#
# CIF created using the CSD Python API on 29 September 2022
# The structure has been converted into the P1 space group
# The structure has a 3D framework
# The original CSD entry HADXIW is in the triclinic crystal system
# The framework has been calculated to contain at least 10.0% void space
# The void calculation uses a probe of radius 1.32A, grid spacing 0.4
# H atom positions have been added when not included in the experimental data
# Generated hydrogen atom positions removed from atoms on special positions
#
###############################################################################

data_HADXIW
_chemical_formula_moiety         '(C12 H24 Co4 O21 U2)n'
_symmetry_cell_setting           triclinic
_symmetry_space_group_name_H-M   'P 1'
_symmetry_Int_Tables_number      1
_space_group_name_Hall           'P 1'
loop_
_symmetry_equiv_pos_site_id
_symmetry_equiv_pos_as_xyz
1 x,y,z
_cell_length_a                   6.8850(3)
_cell_length_b                   8.5229(4)
_cell_length_c                   11.3840(5)
_cell_angle_alpha                95.411(2)
_cell_angle_beta                 90.800(2)
_cell_angle_gamma                108.870(2)
_cell_volume                     628.594
loop_
_atom_site_label
_atom_site_type_symbol
_atom_site_fract_x
_atom_site_fract_y
_atom_site_fract_z
U4 U 0.342966(14) 0.169883(11) 0.329208(8)
Co1 Co 0.0000 0.5000 0.0000
O11 O 0.2452(5) 0.7198(4) 0.0416(2)
H8 H 0.238429 0.335036 0.0561632
O8 O 0.0247(3) 0.5313(3) 0.81941(18)
Co1_2 Co -0.0000 0.5000 1.0000
O12 O 0.0282(3) 0.9096(3) 0.6533(2)
O13 O 0.3388(3) 0.8876(3) 0.6566(2)
C7 C 0.1164(4) 0.6316(3) 0.4391(2)
C8 C 0.0471(4) 0.4685(3) 0.3839(2)
C9 C 0.1525(4) 0.8338(3) 0.6236(2)
C10 C 0.0694(4) 0.6624(3) 0.5558(2)
O14 O 0.2409(4) 0.9164(3) 0.4105(2)
O15 O 0.3292(4) 0.7366(3) 0.28419(19)
C11 C 0.2404(4) 0.7709(3) 0.3712(2)
O16 O 0.2085(3) 0.3549(3) 0.22965(18)
C12 C 0.0838(4) 0.4312(3) 0.2548(2)
O21 O 0.2113(6) 0.3721(5) 0.9793(3)
U6 U 0.657034(14) 0.830117(11) 0.670792(8)
H7 H 0.341539 0.446973 0.951644
Co1_3 Co 1.0000 0.5000 0.0000
O10 O 0.7887(6) 0.6279(5) 0.0207(3)
O29 O 0.9753(3) 0.4687(3) 0.18059(18)
H4 H 0.748739 0.631446 0.104136
H10 H 0.703941 0.230526 0.0321483
O1 O 0.9718(3) 0.0904(3) 0.3467(2)
O2 O 0.3780(4) 0.2801(3) 0.4714(2)
O3 O 0.3083(4) 0.0617(3) 0.1865(2)
O4 O 0.6081(4) 0.4133(4) 0.2706(4)
O5 O 0.7591(4) 0.0836(3) 0.5895(2)
O6 O 0.6612(3) 0.1124(3) 0.3434(2)
O7 O 0.7915(3) 0.6451(3) 0.77035(18)
C1 C 0.8836(4) 0.3684(3) 0.5609(2)
O9 O 0.6708(4) 0.2634(3) 0.71581(19)
C2 C 0.9529(4) 0.5315(3) 0.6161(2)
C3 C 0.7596(4) 0.2291(3) 0.6288(2)
C4 C 0.8475(4) 0.1662(3) 0.3764(2)
C5 C 0.9162(4) 0.5688(3) 0.7452(2)
C6 C 0.9306(4) 0.3376(3) 0.4442(2)
Co1_4 Co 1.0000 0.5000 1.0000
O22 O 0.7548(5) 0.2802(4) 0.9584(2)
H3 H 0.664876 0.569786 0.968206
O18 O 0.6220(4) 0.7199(3) 0.5286(2)
O19 O 0.6917(4) 0.9383(3) 0.8135(2)
O20 O 0.3919(4) 0.5867(4) 0.7294(4)
H3_2 H 0.335124 0.430214 0.0317935
H4_2 H 0.251261 0.368554 0.895864
H10_2 H 0.296059 0.769474 0.967852
H7_2 H 0.658461 0.553027 0.0483559
H8_2 H 0.761571 0.664964 0.943837
loop_
_geom_bond_atom_site_label_1
_geom_bond_atom_site_label_2
_geom_bond_site_symmetry_1
_geom_bond_site_symmetry_2
O11 Co1 1_555 1_555
Co1_2 O8 1_555 1_555
O12 C9 1_555 1_555
O13 C9 1_555 1_555
C7 C8 1_555 1_555
C9 C10 1_555 1_555
O14 C11 1_555 1_555
O15 C11 1_555 1_555
C11 C7 1_555 1_555
O16 C12 1_555 1_555
C12 C8 1_555 1_555
O21 Co1_2 1_555 1_555
U6 O13 1_555 1_555
C7 C10 1_555 1_555
O16 U4 1_555 1_555
O21 H7 1_555 1_555
O10 Co1_3 1_555 1_555
O29 Co1_3 1_555 1_555
O10 H4 1_555 1_555
U4 O2 1_555 1_555
O1 C4 1_555 1_555
O3 U4 1_555 1_555
O4 U4 1_555 1_555
O5 C3 1_555 1_555
O6 U4 1_555 1_555
O7 C5 1_555 1_555
C1 C2 1_555 1_555
O9 C3 1_555 1_555
C2 C5 1_555 1_555
C3 C1 1_555 1_555
C4 O6 1_555 1_555
C6 C1 1_555 1_555
O22 Co1_4 1_555 1_555
U6 O7 1_555 1_555
C4 C6 1_555 1_555
O18 U6 1_555 1_555
O19 U6 1_555 1_555
O20 U6 1_555 1_555
O21 H4_2 1_555 1_555
O10 H7_2 1_555 1_555

#END
