
###############################################################################
#
# This file contains modified crystal structure data generated from the
# MOF subset of the Cambridge Structural Database (CSD) v543 
# hosted by the Cambridge Crystallographic Data Centre (CCDC).
#
# This work is licensed under the Creative Commons
# Attribution-NonCommercial-ShareAlike 4.0 International License.
# To view a copy of this license, visit
# http://creativecommons.org/licenses/by-nc-sa/4.0/
# or send a letter to
# Creative Commons, PO Box 1866, Mountain View, CA 94042, USA.
#
# CIF created using the CSD Python API on 29 September 2022
# The structure has been converted into the P1 space group
# The structure has a 3D framework
# The original CSD entry HAFDUO is in the monoclinic crystal system
# The framework has been calculated to contain at least 10.0% void space
# The void calculation uses a probe of radius 1.32A, grid spacing 0.4
#
###############################################################################

data_HAFDUO
_chemical_formula_moiety         '(C48 H32 Cd12 N38)n'
_symmetry_cell_setting           triclinic
_symmetry_space_group_name_H-M   'P 1'
_symmetry_Int_Tables_number      1
_space_group_name_Hall           'P 1'
loop_
_symmetry_equiv_pos_site_id
_symmetry_equiv_pos_as_xyz
1 x,y,z
_cell_length_a                   12.369(2)
_cell_length_b                   14.3130(17)
_cell_length_c                   14.416(4)
_cell_angle_alpha                90
_cell_angle_beta                 106.04(2)
_cell_angle_gamma                90
_cell_volume                     2452.81
loop_
_atom_site_label
_atom_site_type_symbol
_atom_site_fract_x
_atom_site_fract_y
_atom_site_fract_z
N12 N 0.4025(5) 0.1836(4) 0.0445(4)
N13 N 0.1963(4) 0.1149(3) 0.1401(3)
N14 N 0.2181(5) 0.3321(3) 0.0513(4)
Cd1 Cd 0.18423(3) 0.31436(2) 0.61800(2)
Cd2 Cd 0.18348(4) 0.03711(3) 0.35359(3)
Cd3 Cd 0.20955(3) 0.17710(2) 0.99172(2)
C1 C 0.2178(4) 0.2634(4) 0.7670(4)
N1 N 0.2211(4) 0.2345(3) 0.8414(3)
C2 C 0.2469(4) 0.4499(3) 0.5828(4)
N2 N 0.2720(4) 0.5198(3) 0.5591(3)
C4 C 0.2230(5) 0.1499(4) 0.4634(4)
N4 N 0.2240(5) 0.2066(4) 0.5187(4)
C5 C 0.1940(5) 0.0856(4) 0.2129(3)
N7 N 0.0012(4) 0.0238(3) 0.3540(3)
N9 N 0.0172(4) 0.1742(3) 0.9262(3)
N11 N 0.2280(4) 0.0198(3) 0.9409(3)
Cd4 Cd 0.29045(3) 0.67710(2) 0.50828(2)
C6 C 0.2549(5) 0.9028(4) 0.4148(4)
N6 N 0.2819(5) 0.8321(3) 0.4487(4)
C3 C 0.9947(5) 0.3139(4) 0.5675(5)
N3 N 0.9025(5) 0.3164(4) 0.5445(4)
C8 C 0.8430(7) 0.0463(5) 0.3892(6)
H3 H 0.7901 0.0708 0.4175
C9 C 0.9446(7) 0.0731(5) 0.4032(5)
H4 H 0.9760 0.1224 0.4438
C10 C 0.9548(5) 0.2136(5) 0.8451(5)
H5 H 0.9818 0.2541 0.8062
N10 N 0.8464(5) 0.1860(6) 0.8277(5)
H6 H 0.7910 0.2017 0.7796
C11 C 0.8430(5) 0.1281(4) 0.9023(5)
H7 H 0.7800 0.0982 0.9114
C12 C 0.9466(5) 0.1231(4) 0.9585(5)
Cd5 Cd 0.70955(3) 0.32290(2) 0.49172(2)
Cd1_2 Cd 0.68423(3) 0.18564(2) 0.11800(2)
C1_2 C 0.7178(4) 0.2366(4) 0.2670(4)
N1_2 N 0.7211(4) 0.2655(3) 0.3414(3)
C2_2 C 0.7469(4) 0.0501(3) 0.0828(4)
C3_2 C 0.4947(5) 0.1861(4) 0.0675(5)
N4_2 N 0.7240(5) 0.2934(4) 0.0187(4)
N9_2 N 0.5172(4) 0.3258(3) 0.4262(3)
C10_2 C 0.4548(5) 0.2864(5) 0.3451(5)
H5_2 H 0.4818 0.2459 0.3062
N10_2 N 0.3464(5) 0.3140(6) 0.3277(5)
H6_2 H 0.2910 0.2983 0.2796
C11_2 C 0.3430(5) 0.3719(4) 0.4023(5)
H7_2 H 0.2800 0.4018 0.4114
C12_2 C 0.4466(5) 0.3769(4) 0.4585(5)
H8 H 0.4677 0.4124 0.5147
N11_2 N 0.7280(4) 0.4802(3) 0.4409(3)
N13_2 N 0.6963(4) 0.3851(3) 0.6401(3)
N14_2 N 0.7181(5) 0.1679(3) 0.5513(4)
Cd7 Cd 0.79045(3) 0.82290(2) 0.00828(2)
Cd2_2 Cd 0.68348(4) 0.46289(3) 0.85359(3)
C4_2 C 0.7230(5) 0.3501(4) 0.9634(4)
C5_2 C 0.6940(5) 0.4144(4) 0.7129(3)
C6_2 C 0.7549(5) 0.5972(4) 0.9148(4)
N6_2 N 0.7819(5) 0.6679(3) 0.9487(4)
N7_2 N 0.5012(4) 0.4762(3) 0.8540(3)
C7 C 0.4263(6) 0.5403(5) 0.8052(5)
H1 H 0.4411 0.5867 0.7652
N8 N 0.3273(6) 0.5257(7) 0.8241(6)
H2 H 0.2658 0.5558 0.7999
C8_2 C 0.3430(7) 0.4537(5) 0.8892(6)
H3_2 H 0.2901 0.4292 0.9175
C9_2 C 0.4446(7) 0.4269(5) 0.9032(5)
H4_2 H 0.4760 0.3776 0.9438
N2_2 N 0.7720(4) 0.9802(3) 0.0591(3)
C3_3 C 0.0053(5) 0.6861(4) 0.4325(5)
N3_2 N 0.0975(5) 0.6836(4) 0.4555(4)
C8_3 C 0.1570(7) 0.9537(5) 0.6108(6)
H3_3 H 0.2099 0.9292 0.5825
C9_3 C 0.0554(7) 0.9269(5) 0.5968(5)
H4_3 H 0.0240 0.8776 0.5562
C10_3 C 0.0452(5) 0.7864(5) 0.1549(5)
H5_3 H 0.0182 0.7459 0.1938
N10_3 N 0.1536(5) 0.8140(6) 0.1723(5)
H6_3 H 0.2090 0.7983 0.2204
C11_3 C 0.1570(5) 0.8719(4) 0.0977(5)
H7_3 H 0.2200 0.9018 0.0886
C12_3 C 0.0534(5) 0.8769(4) 0.0415(5)
C6_3 C 0.7451(5) 0.0972(4) 0.5852(4)
Cd1_3 Cd 0.81577(3) 0.68564(2) 0.38200(2)
Cd2_3 Cd 0.81652(4) 0.96289(3) 0.64641(3)
C1_3 C 0.7822(4) 0.7366(4) 0.2330(4)
N1_3 N 0.7789(4) 0.7655(3) 0.1586(3)
C2_3 C 0.7531(4) 0.5501(3) 0.4172(4)
C4_3 C 0.7770(5) 0.8501(4) 0.5366(4)
N4_3 N 0.7760(5) 0.7934(4) 0.4813(4)
C5_3 C 0.8060(5) 0.9144(4) 0.7871(3)
N5 N 0.8037(4) 0.8851(3) 0.8599(3)
N7_3 N 0.9988(4) 0.9762(3) 0.6460(3)
N9_3 N 0.9828(4) 0.8258(3) 0.0738(3)
N12_2 N 0.5975(5) 0.8164(4) 0.9555(4)
Cd2_4 Cd 0.31652(4) 0.53711(3) 0.14641(3)
C4_4 C 0.2770(5) 0.6499(4) 0.0366(4)
C5_4 C 0.3060(5) 0.5856(4) 0.2871(3)
N5_2 N 0.3037(4) 0.6149(3) 0.3599(3)
C6_4 C 0.2451(5) 0.4028(4) 0.0852(4)
N7_4 N 0.4988(4) 0.5238(3) 0.1460(3)
C7_2 C 0.5737(6) 0.4597(5) 0.1948(5)
H1_2 H 0.5589 0.4133 0.2348
N8_2 N 0.6727(6) 0.4743(7) 0.1759(6)
H2_2 H 0.7342 0.4442 0.2001
C8_4 C 0.6570(7) 0.5463(5) 0.1108(6)
H3_4 H 0.7099 0.5708 0.0825
C9_4 C 0.5554(7) 0.5731(5) 0.0968(5)
H4_4 H 0.5240 0.6224 0.0562
Cd1_4 Cd 0.31577(3) 0.81436(2) 0.88200(2)
C1_4 C 0.2822(4) 0.7634(4) 0.7330(4)
N1_4 N 0.2789(4) 0.7345(3) 0.6586(3)
C2_4 C 0.2531(4) 0.9499(3) 0.9172(4)
C3_4 C 0.5053(5) 0.8139(4) 0.9325(5)
N4_4 N 0.2760(5) 0.7066(4) 0.9813(4)
N9_4 N 0.4828(4) 0.6742(3) 0.5738(3)
C10_4 C 0.5452(5) 0.7136(5) 0.6549(5)
H5_4 H 0.5182 0.7541 0.6938
N10_4 N 0.6536(5) 0.6860(6) 0.6723(5)
H6_4 H 0.7090 0.7017 0.7204
C11_4 C 0.6570(5) 0.6281(4) 0.5977(5)
H7_4 H 0.7200 0.5982 0.5886
C12_4 C 0.5534(5) 0.6231(4) 0.5415(5)
H8_2 H 0.5323 0.5876 0.4853
H8_3 H 0.9677 0.0876 0.0147
C7_3 C 0.9263(6) 0.9597(5) 0.3052(5)
H1_3 H 0.9411 0.9133 0.2652
N8_3 N 0.8273(6) 0.9743(7) 0.3241(6)
H2_3 H 0.7658 0.9442 0.2999
C7_4 C 0.0737(6) 0.0403(5) 0.6948(5)
H1_4 H 0.0589 0.0867 0.7348
N8_4 N 0.1727(6) 0.0257(7) 0.6759(6)
H2_4 H 0.2342 0.0558 0.7001
H8_4 H 0.0323 0.9124 0.9853
loop_
_geom_bond_atom_site_label_1
_geom_bond_atom_site_label_2
_geom_bond_site_symmetry_1
_geom_bond_site_symmetry_2
Cd1 C1 1_555 1_555
Cd2 C4 1_555 1_555
Cd3 N1 1_555 1_555
C1 N1 1_555 1_555
C2 Cd1 1_555 1_555
N2 C2 1_555 1_555
C4 N4 1_555 1_555
N4 Cd1 1_555 1_555
C5 Cd2 1_555 1_555
N13 C5 1_555 1_555
N7 Cd2 1_555 1_555
N9 Cd3 1_555 1_555
N11 Cd3 1_555 1_555
Cd4 N2 1_555 1_555
N6 C6 1_555 1_555
Cd4 N6 1_555 1_555
N3 C3 1_555 1_555
H3 C8 1_555 1_555
H4 C9 1_555 1_555
H5 C10 1_555 1_555
N10 C10 1_555 1_555
H6 N10 1_555 1_555
C11 N10 1_555 1_555
H7 C11 1_555 1_555
Cd5 N3 1_555 1_555
C8 C9 1_555 1_555
C11 C12 1_555 1_555
Cd1_2 C1_2 1_555 1_555
Cd5 N1_2 1_555 1_555
C1_2 N1_2 1_555 1_555
C2_2 Cd1_2 1_555 1_555
C3_2 Cd1_2 1_555 1_555
N12 C3_2 1_555 1_555
N4_2 Cd1_2 1_555 1_555
N9_2 Cd5 1_555 1_555
C10_2 N9_2 1_555 1_555
H5_2 C10_2 1_555 1_555
N10_2 C10_2 1_555 1_555
H6_2 N10_2 1_555 1_555
C11_2 N10_2 1_555 1_555
H7_2 C11_2 1_555 1_555
C12_2 N9_2 1_555 1_555
H8 C12_2 1_555 1_555
N11_2 Cd5 1_555 1_555
N13_2 Cd5 1_555 1_555
N14_2 Cd5 1_555 1_555
C11_2 C12_2 1_555 1_555
Cd2_2 C4_2 1_555 1_555
C5_2 Cd2_2 1_555 1_555
N13_2 C5_2 1_555 1_555
C6_2 Cd2_2 1_555 1_555
N6_2 C6_2 1_555 1_555
N7_2 Cd2_2 1_555 1_555
C7 N7_2 1_555 1_555
H1 C7 1_555 1_555
N8 C7 1_555 1_555
H2 N8 1_555 1_555
C8_2 N8 1_555 1_555
H3_2 C8_2 1_555 1_555
C9_2 N7_2 1_555 1_555
H4_2 C9_2 1_555 1_555
C8_2 C9_2 1_555 1_555
Cd7 N2_2 1_555 1_555
N3_2 C3_3 1_555 1_555
H3_3 C8_3 1_555 1_555
H4_3 C9_3 1_555 1_555
H5_3 C10_3 1_555 1_555
N10_3 C10_3 1_555 1_555
H6_3 N10_3 1_555 1_555
C11_3 N10_3 1_555 1_555
H7_3 C11_3 1_555 1_555
Cd4 N3_2 1_555 1_555
C8_3 C9_3 1_555 1_555
C11_3 C12_3 1_555 1_555
N14_2 C6_3 1_555 1_555
Cd1_3 C1_3 1_555 1_555
Cd2_3 C4_3 1_555 1_555
Cd7 N1_3 1_555 1_555
C1_3 N1_3 1_555 1_555
C2_3 Cd1_3 1_555 1_555
N11_2 C2_3 1_555 1_555
C4_3 N4_3 1_555 1_555
N4_3 Cd1_3 1_555 1_555
C5_3 Cd2_3 1_555 1_555
N5 C5_3 1_555 1_555
N7_3 Cd2_3 1_555 1_555
N9_3 Cd7 1_555 1_555
Cd2_4 C4_4 1_555 1_555
C5_4 Cd2_4 1_555 1_555
N5_2 C5_4 1_555 1_555
C6_4 Cd2_4 1_555 1_555
N14 C6_4 1_555 1_555
N7_4 Cd2_4 1_555 1_555
C7_2 N7_4 1_555 1_555
H1_2 C7_2 1_555 1_555
N8_2 C7_2 1_555 1_555
H2_2 N8_2 1_555 1_555
C8_4 N8_2 1_555 1_555
H3_4 C8_4 1_555 1_555
C9_4 N7_4 1_555 1_555
H4_4 C9_4 1_555 1_555
Cd4 N5_2 1_555 1_555
C8_4 C9_4 1_555 1_555
Cd1_4 C1_4 1_555 1_555
Cd4 N1_4 1_555 1_555
C1_4 N1_4 1_555 1_555
C2_4 Cd1_4 1_555 1_555
C3_4 Cd1_4 1_555 1_555
N12_2 C3_4 1_555 1_555
N4_4 Cd1_4 1_555 1_555
N9_4 Cd4 1_555 1_555
C10_4 N9_4 1_555 1_555
H5_4 C10_4 1_555 1_555
N10_4 C10_4 1_555 1_555
H6_4 N10_4 1_555 1_555
C11_4 N10_4 1_555 1_555
H7_4 C11_4 1_555 1_555
C12_4 N9_4 1_555 1_555
H8_2 C12_4 1_555 1_555
C11_4 C12_4 1_555 1_555
H1_3 C7_3 1_555 1_555
N8_3 C7_3 1_555 1_555
H2_3 N8_3 1_555 1_555
H1_4 C7_4 1_555 1_555
N8_4 C7_4 1_555 1_555
H2_4 N8_4 1_555 1_555

#END
