
###############################################################################
#
# This file contains modified crystal structure data generated from the
# MOF subset of the Cambridge Structural Database (CSD) v543 
# hosted by the Cambridge Crystallographic Data Centre (CCDC).
#
# This work is licensed under the Creative Commons
# Attribution-NonCommercial-ShareAlike 4.0 International License.
# To view a copy of this license, visit
# http://creativecommons.org/licenses/by-nc-sa/4.0/
# or send a letter to
# Creative Commons, PO Box 1866, Mountain View, CA 94042, USA.
#
# CIF created using the CSD Python API on 29 September 2022
# The structure has been converted into the P1 space group
# The structure has a 3D framework
# The original CSD entry HAFDOI is in the monoclinic crystal system
# The framework has been calculated to contain at least 10.0% void space
# The void calculation uses a probe of radius 1.32A, grid spacing 0.4
#
###############################################################################

data_HAFDOI
_chemical_formula_moiety         '(C48 H32 Cd12 N40)n'
_symmetry_cell_setting           triclinic
_symmetry_space_group_name_H-M   'P 1'
_symmetry_Int_Tables_number      1
_space_group_name_Hall           'P 1'
loop_
_symmetry_equiv_pos_site_id
_symmetry_equiv_pos_as_xyz
1 x,y,z
_cell_length_a                   13.4156(18)
_cell_length_b                   14.1404(17)
_cell_length_c                   14.1514(14)
_cell_angle_alpha                90
_cell_angle_beta                 105.080(9)
_cell_angle_gamma                90
_cell_volume                     2592.1
loop_
_atom_site_label
_atom_site_type_symbol
_atom_site_fract_x
_atom_site_fract_y
_atom_site_fract_z
Cd2 Cd 0.32311(3) 0.04385(2) 0.14643(3)
C4 C 0.2938(4) 0.1604(4) 0.0394(4)
C6 C 0.3034(4) 0.0925(4) 0.2862(4)
N6 N 0.2935(4) 0.1221(4) 0.3582(3)
N7 N 0.4906(4) 0.0283(3) 0.1512(4)
C7 C 0.5457(6) 0.0826(5) 0.1075(6)
H1 H 0.5208 0.1368 0.0720
N8 N 0.6403(5) 0.0500(5) 0.1207(5)
H2 H 0.6886 0.0747 0.0990
H5 H 0.0014 0.5919 0.0324
N12 N 0.3970(4) 0.6831(4) 0.0385(4)
N13 N 0.2316(4) 0.8382(3) 0.0498(4)
N14 N 0.2065(4) 0.6221(4) 0.1418(3)
Cd5 Cd 0.78122(3) 0.31809(2) 0.00874(2)
Cd7 Cd 0.28122(3) 0.18191(2) 0.50874(2)
Cd1 Cd 0.34588(3) 0.32831(2) 0.89040(2)
Cd3 Cd 0.21878(3) 0.68191(2) 0.99126(2)
C1 C 0.2704(4) 0.4573(3) 0.9209(4)
N1 N 0.2341(4) 0.5239(3) 0.9409(3)
C2 C 0.2973(4) 0.2710(4) 0.7402(3)
N2 N 0.2818(3) 0.2407(3) 0.6640(3)
C3 C 0.5158(4) 0.3219(4) 0.9391(4)
N3 N 0.6030(4) 0.3169(4) 0.9615(4)
N4 N 0.2989(4) 0.2191(4) 0.9860(4)
N9 N 0.0401(3) 0.6792(3) 0.9384(4)
N11 N 0.2182(3) 0.7407(3) 0.8360(3)
C5 C 0.2579(4) 0.9085(4) 0.0839(4)
C8 C 0.6471(6) 0.9687(6) 0.1758(6)
H3 H 0.7041 0.9294 0.1970
C9 C 0.5563(6) 0.9587(6) 0.1918(6)
H4 H 0.5388 0.9089 0.2273
C3_2 C 0.0158(4) 0.1781(4) 0.4391(4)
N3_2 N 0.1030(4) 0.1831(4) 0.4615(4)
C7_2 C 0.0457(6) 0.4174(5) 0.6075(6)
H1_2 H 0.0208 0.3632 0.5720
N8_2 N 0.1403(5) 0.4500(5) 0.6207(5)
H2_2 H 0.1886 0.4253 0.5990
C8_2 C 0.1471(6) 0.5313(6) 0.6758(6)
H3_2 H 0.2041 0.5706 0.6970
C9_2 C 0.0563(6) 0.5413(6) 0.6918(6)
H4_2 H 0.0388 0.5911 0.7273
Cd1_2 Cd 0.84588(3) 0.17169(2) 0.39040(2)
Cd2_2 Cd 0.82311(3) 0.45615(2) 0.64643(3)
C1_2 C 0.7704(4) 0.0427(3) 0.4209(4)
C2_2 C 0.7973(4) 0.2290(4) 0.2402(3)
N2_2 N 0.7818(3) 0.2593(3) 0.1640(3)
C4_2 C 0.7938(4) 0.3396(4) 0.5394(4)
N4_2 N 0.7989(4) 0.2809(4) 0.4860(4)
C5_2 C 0.7579(4) 0.5915(4) 0.5839(4)
N5 N 0.7316(4) 0.6618(3) 0.5498(4)
C6_2 C 0.8034(4) 0.4075(4) 0.7862(4)
N6_2 N 0.7935(4) 0.3779(4) 0.8582(3)
N7_2 N 0.9906(4) 0.4717(3) 0.6512(4)
Cd6 Cd 0.71878(3) 0.81809(2) 0.49126(2)
N1_2 N 0.7341(4) 0.9761(3) 0.4409(3)
N9_2 N 0.5401(3) 0.8208(3) 0.4384(4)
C10 C 0.4787(5) 0.8715(5) 0.4763(6)
H5_2 H 0.5014 0.9081 0.5324
N10 N 0.3802(5) 0.8651(5) 0.4258(6)
H6 H 0.3280 0.8927 0.4384
C11 C 0.3797(5) 0.8053(7) 0.3495(7)
H7 H 0.3222 0.7864 0.3008
C12 C 0.4769(5) 0.7793(5) 0.3585(5)
H8 H 0.4985 0.7386 0.3162
N11_2 N 0.7182(3) 0.7593(3) 0.3360(3)
N12_2 N 0.8970(4) 0.8169(4) 0.5385(4)
N14_2 N 0.7065(4) 0.8779(4) 0.6418(3)
C5_3 C 0.7421(4) 0.0915(4) 0.9161(4)
N5_2 N 0.7684(4) 0.1618(3) 0.9502(4)
C8_3 C 0.3529(6) 0.0313(6) 0.8242(6)
H3_3 H 0.2959 0.0706 0.8030
C9_3 C 0.4437(6) 0.0413(6) 0.8082(6)
H4_3 H 0.4612 0.0911 0.7727
Cd1_3 Cd 0.65412(3) 0.67169(2) 0.10960(2)
C1_3 C 0.7296(4) 0.5427(3) 0.0791(4)
N1_3 N 0.7659(4) 0.4761(3) 0.0591(3)
C2_3 C 0.7027(4) 0.7290(4) 0.2598(3)
C3_3 C 0.4842(4) 0.6781(4) 0.0609(4)
N4_3 N 0.7011(4) 0.7809(4) 0.0140(4)
N9_3 N 0.9599(3) 0.3208(3) 0.0616(4)
Cd2_3 Cd 0.67689(3) 0.95615(2) 0.85357(3)
C4_3 C 0.7062(4) 0.8396(4) 0.9606(4)
C6_3 C 0.6966(4) 0.9075(4) 0.7138(4)
N7_3 N 0.5094(4) 0.9717(3) 0.8488(4)
C7_3 C 0.4543(6) 0.9174(5) 0.8925(6)
H1_3 H 0.4792 0.8632 0.9280
N8_3 N 0.3597(5) 0.9500(5) 0.8793(5)
H2_3 H 0.3114 0.9253 0.9010
H5_3 H 0.9986 0.4081 0.9676
N1_4 N 0.2659(4) 0.0239(3) 0.5591(3)
N9_4 N 0.4599(3) 0.1792(3) 0.5616(4)
C10_2 C 0.5213(5) 0.1285(5) 0.5237(6)
H5_4 H 0.4986 0.0919 0.4676
N10_2 N 0.6198(5) 0.1349(5) 0.5742(6)
H6_2 H 0.6720 0.1073 0.5616
C11_2 C 0.6203(5) 0.1947(7) 0.6505(7)
H7_2 H 0.6778 0.2136 0.6992
C12_2 C 0.5231(5) 0.2207(5) 0.6415(5)
H8_2 H 0.5015 0.2614 0.6838
N13_2 N 0.2684(4) 0.3382(3) 0.4502(4)
Cd1_4 Cd 0.15412(3) 0.82831(2) 0.60960(2)
Cd2_4 Cd 0.17689(3) 0.54385(2) 0.35357(3)
C1_4 C 0.2296(4) 0.9573(3) 0.5791(4)
C2_4 C 0.2027(4) 0.7710(4) 0.7598(3)
C4_4 C 0.2062(4) 0.6604(4) 0.4606(4)
N4_4 N 0.2011(4) 0.7191(4) 0.5140(4)
C5_4 C 0.2421(4) 0.4085(4) 0.4161(4)
C6_4 C 0.1966(4) 0.5925(4) 0.2138(4)
N7_4 N 0.0094(4) 0.5283(3) 0.3488(4)
C3_4 C 0.9842(4) 0.8219(4) 0.5609(4)
C7_4 C 0.9543(6) 0.5826(5) 0.3925(6)
H1_4 H 0.9792 0.6368 0.4280
N8_4 N 0.8597(5) 0.5500(5) 0.3793(5)
H2_4 H 0.8114 0.5747 0.4010
C8_4 C 0.8529(6) 0.4687(6) 0.3242(6)
H3_4 H 0.7959 0.4294 0.3030
C9_4 C 0.9437(6) 0.4587(6) 0.3082(6)
H4_4 H 0.9612 0.4089 0.2727
C10_3 C 0.9787(5) 0.6285(5) 0.9763(6)
N10_3 N 0.8802(5) 0.6349(5) 0.9258(6)
H6_3 H 0.8280 0.6073 0.9384
C11_3 C 0.8797(5) 0.6947(7) 0.8495(7)
H7_3 H 0.8222 0.7136 0.8008
C12_3 C 0.9769(5) 0.7207(5) 0.8585(5)
H8_3 H 0.9985 0.7614 0.8162
C10_4 C 0.0213(5) 0.3715(5) 0.0237(6)
N10_4 N 0.1198(5) 0.3651(5) 0.0742(6)
H6_4 H 0.1720 0.3927 0.0616
C11_4 C 0.1203(5) 0.3053(7) 0.1505(7)
H7_4 H 0.1778 0.2864 0.1992
C12_4 C 0.0231(5) 0.2793(5) 0.1415(5)
H8_4 H 0.0015 0.2386 0.1838
loop_
_geom_bond_atom_site_label_1
_geom_bond_atom_site_label_2
_geom_bond_site_symmetry_1
_geom_bond_site_symmetry_2
Cd2 C4 1_555 1_555
C6 Cd2 1_555 1_555
N6 C6 1_555 1_555
N7 Cd2 1_555 1_555
C7 N7 1_555 1_555
H1 C7 1_555 1_555
N8 C7 1_555 1_555
H2 N8 1_555 1_555
Cd7 N6 1_555 1_555
Cd1 C1 1_555 1_555
Cd3 N1 1_555 1_555
C1 N1 1_555 1_555
C2 Cd1 1_555 1_555
N2 C2 1_555 1_555
C3 Cd1 1_555 1_555
N3 C3 1_555 1_555
N4 Cd1 1_555 1_555
N9 Cd3 1_555 1_555
N11 Cd3 1_555 1_555
Cd7 N2 1_555 1_555
N13 C5 1_555 1_555
H3 C8 1_555 1_555
H4 C9 1_555 1_555
C8 C9 1_555 1_555
N3_2 C3_2 1_555 1_555
H1_2 C7_2 1_555 1_555
N8_2 C7_2 1_555 1_555
H2_2 N8_2 1_555 1_555
C8_2 N8_2 1_555 1_555
H3_2 C8_2 1_555 1_555
H4_2 C9_2 1_555 1_555
Cd7 N3_2 1_555 1_555
C8_2 C9_2 1_555 1_555
Cd1_2 C1_2 1_555 1_555
Cd2_2 C4_2 1_555 1_555
C2_2 Cd1_2 1_555 1_555
N2_2 C2_2 1_555 1_555
C4_2 N4_2 1_555 1_555
N4_2 Cd1_2 1_555 1_555
C5_2 Cd2_2 1_555 1_555
N5 C5_2 1_555 1_555
C6_2 Cd2_2 1_555 1_555
N6_2 C6_2 1_555 1_555
N7_2 Cd2_2 1_555 1_555
Cd5 N2_2 1_555 1_555
Cd6 N5 1_555 1_555
Cd6 N1_2 1_555 1_555
N9_2 Cd6 1_555 1_555
C10 N9_2 1_555 1_555
H5_2 C10 1_555 1_555
N10 C10 1_555 1_555
H6 N10 1_555 1_555
C11 N10 1_555 1_555
H7 C11 1_555 1_555
C12 N9_2 1_555 1_555
H8 C12 1_555 1_555
N11_2 Cd6 1_555 1_555
N12_2 Cd6 1_555 1_555
N14_2 Cd6 1_555 1_555
C11 C12 1_555 1_555
N5_2 C5_3 1_555 1_555
H3_3 C8_3 1_555 1_555
H4_3 C9_3 1_555 1_555
C8_3 C9_3 1_555 1_555
Cd1_3 C1_3 1_555 1_555
Cd5 N1_3 1_555 1_555
C1_3 N1_3 1_555 1_555
C2_3 Cd1_3 1_555 1_555
N11_2 C2_3 1_555 1_555
C3_3 Cd1_3 1_555 1_555
N12 C3_3 1_555 1_555
N4_3 Cd1_3 1_555 1_555
N9_3 Cd5 1_555 1_555
Cd2_3 C4_3 1_555 1_555
C6_3 Cd2_3 1_555 1_555
N14_2 C6_3 1_555 1_555
N7_3 Cd2_3 1_555 1_555
C7_3 N7_3 1_555 1_555
H1_3 C7_3 1_555 1_555
N8_3 C7_3 1_555 1_555
H2_3 N8_3 1_555 1_555
Cd7 N1_4 1_555 1_555
N9_4 Cd7 1_555 1_555
C10_2 N9_4 1_555 1_555
H5_4 C10_2 1_555 1_555
N10_2 C10_2 1_555 1_555
H6_2 N10_2 1_555 1_555
C11_2 N10_2 1_555 1_555
H7_2 C11_2 1_555 1_555
C12_2 N9_4 1_555 1_555
H8_2 C12_2 1_555 1_555
N13_2 Cd7 1_555 1_555
C11_2 C12_2 1_555 1_555
Cd1_4 C1_4 1_555 1_555
Cd2_4 C4_4 1_555 1_555
C2_4 Cd1_4 1_555 1_555
N11 C2_4 1_555 1_555
C4_4 N4_4 1_555 1_555
N4_4 Cd1_4 1_555 1_555
C5_4 Cd2_4 1_555 1_555
N13_2 C5_4 1_555 1_555
C6_4 Cd2_4 1_555 1_555
N14 C6_4 1_555 1_555
N7_4 Cd2_4 1_555 1_555
N12_2 C3_4 1_555 1_555
H1_4 C7_4 1_555 1_555
N8_4 C7_4 1_555 1_555
H2_4 N8_4 1_555 1_555
C8_4 N8_4 1_555 1_555
H3_4 C8_4 1_555 1_555
H4_4 C9_4 1_555 1_555
C8_4 C9_4 1_555 1_555
N10_3 C10_3 1_555 1_555
H6_3 N10_3 1_555 1_555
C11_3 N10_3 1_555 1_555
H7_3 C11_3 1_555 1_555
H8_3 C12_3 1_555 1_555
C11_3 C12_3 1_555 1_555
N10_4 C10_4 1_555 1_555
H6_4 N10_4 1_555 1_555
C11_4 N10_4 1_555 1_555
H7_4 C11_4 1_555 1_555
H8_4 C12_4 1_555 1_555
C11_4 C12_4 1_555 1_555

#END
