
###############################################################################
#
# This file contains modified crystal structure data generated from the
# MOF subset of the Cambridge Structural Database (CSD) v543 
# hosted by the Cambridge Crystallographic Data Centre (CCDC).
#
# This work is licensed under the Creative Commons
# Attribution-NonCommercial-ShareAlike 4.0 International License.
# To view a copy of this license, visit
# http://creativecommons.org/licenses/by-nc-sa/4.0/
# or send a letter to
# Creative Commons, PO Box 1866, Mountain View, CA 94042, USA.
#
# CIF created using the CSD Python API on 29 September 2022
# The structure has been converted into the P1 space group
# The structure has a 3D framework
# The original CSD entry HAFQUC is in the monoclinic crystal system
# The framework has been calculated to contain at least 10.0% void space
# The void calculation uses a probe of radius 1.32A, grid spacing 0.4
# H atom positions have been added when not included in the experimental data
#
###############################################################################

data_HAFQUC
_chemical_formula_moiety         '(C32 H24 Al10 O20)n'
_symmetry_cell_setting           triclinic
_symmetry_space_group_name_H-M   'P 1'
_symmetry_Int_Tables_number      1
_space_group_name_Hall           'P 1'
loop_
_symmetry_equiv_pos_site_id
_symmetry_equiv_pos_as_xyz
1 x,y,z
_cell_length_a                   14.954(2)
_cell_length_b                   15.089(2)
_cell_length_c                   6.6439(4)
_cell_angle_alpha                90
_cell_angle_beta                 90.891(6)
_cell_angle_gamma                90
_cell_volume                     1498.95
loop_
_atom_site_label
_atom_site_type_symbol
_atom_site_fract_x
_atom_site_fract_y
_atom_site_fract_z
Al1 Al 0.00000 0.00000 0.00000
Al2 Al 0.00000 0.00000 0.50000
Al7 Al 0.50000 0.50000 0.00000
O13 O 0.09544 0.07545 0.58819
Al1_2 Al 0.00000 0.00000 1.00000
Al4 Al 0.50000 0.50000 0.50000
Al7_2 Al 0.50000 0.50000 1.00000
O8 O 0.09544 0.07478 0.925
O9 O 0.42765 0.39896 0.88399
C9 C 0.37493 0.38966 0.73591
C10 C 0.30753 0.31677 0.74728
C11 C 0.22737 0.3238 0.64274
H8 H 0.21458 0.37471 0.56869
C12 C 0.12059 0.10382 0.75777
C13 C 0.18445 0.17995 0.76078
C14 C 0.16604 0.2551 0.64829
H9 H 0.11246 0.25942 0.57627
O14 O 0.37391 0.43677 0.57943
C15 C 0.3256 0.24229 0.86166
H10 H 0.37892 0.23834 0.93498
C16 C 0.26432 0.17354 0.86734
H11 H 0.27686 0.123 0.94267
Al1_3 Al 0.00000 1.00000 0.00000
Al2_2 Al 0.00000 1.00000 0.50000
O1 O 0.05201 0.98981 0.24923
H1 H 0.10346 0.97247 0.25086
O11 O 0.07235 0.89896 0.61601
Al1_4 Al 0.00000 1.00000 1.00000
O16 O 0.12609 0.93677 0.92057
Al1_5 Al 1.00000 0.00000 0.00000
Al2_3 Al 1.00000 0.00000 0.50000
O7 O 0.94799 0.01019 0.75077
H7 H 0.89654 0.02753 0.74914
O10 O 0.92765 0.10104 0.38399
O15 O 0.87391 0.06323 0.07943
H12 H 0.984284 0.0524903 0.832276
Al1_6 Al 1.00000 0.00000 1.00000
Al1_7 Al 1.00000 1.00000 0.00000
Al2_4 Al 1.00000 1.00000 0.50000
O2 O 0.90456 0.92522 0.075
O3 O 0.57235 0.60104 0.11601
C1 C 0.62507 0.61034 0.26409
C2 C 0.69247 0.68323 0.25272
C3 C 0.77263 0.6762 0.35726
H2 H 0.78542 0.62529 0.43131
C4 C 0.87941 0.89618 0.24223
C5 C 0.81555 0.82005 0.23922
C6 C 0.83396 0.7449 0.35171
H3 H 0.88754 0.74058 0.42373
O4 O 0.90456 0.92455 0.41181
O5 O 0.62609 0.56323 0.42057
C7 C 0.6744 0.75771 0.13834
H4 H 0.62108 0.76166 0.06502
C8 C 0.73568 0.82646 0.13266
H5 H 0.72314 0.877 0.05733
Al1_8 Al 1.00000 1.00000 1.00000
O1_2 O 0.44799 0.48981 0.25077
H1_2 H 0.39654 0.47247 0.24914
O2_2 O 0.59544 0.42522 0.425
C1_2 C 0.87493 0.11034 0.23591
C2_2 C 0.80753 0.18323 0.24728
C3_2 C 0.72737 0.1762 0.14274
H2_2 H 0.71458 0.12529 0.06869
C4_2 C 0.62059 0.39618 0.25777
C5_2 C 0.68445 0.32005 0.26078
C6_2 C 0.66604 0.2449 0.14829
H3_2 H 0.61246 0.24058 0.07627
O4_2 O 0.59544 0.42455 0.08819
C7_2 C 0.8256 0.25771 0.36166
H4_2 H 0.87892 0.26166 0.43498
C8_2 C 0.76432 0.32646 0.36734
H5_2 H 0.77686 0.377 0.44267
O6 O 0.55201 0.51019 0.74923
H6 H 0.60346 0.52753 0.75086
O8_2 O 0.40456 0.57478 0.575
C9_2 C 0.12507 0.88966 0.76409
C10_2 C 0.19247 0.81677 0.75272
C11_2 C 0.27263 0.8238 0.85726
H8_2 H 0.28542 0.87471 0.93131
C12_2 C 0.37941 0.60382 0.74223
C13_2 C 0.31555 0.67995 0.73922
C14_2 C 0.33396 0.7551 0.85171
H9_2 H 0.38754 0.75942 0.92373
O12 O 0.40456 0.57545 0.91181
C15_2 C 0.1744 0.74229 0.63834
H10_2 H 0.12108 0.73834 0.56502
C16_2 C 0.23568 0.67354 0.63266
H11_2 H 0.22314 0.623 0.55733
H12_2 H 0.515716 0.55249 0.667724
H12_3 H 0.0157163 0.94751 0.167724
H12_4 H 0.484284 0.44751 0.332276
loop_
_geom_bond_atom_site_label_1
_geom_bond_atom_site_label_2
_geom_bond_site_symmetry_1
_geom_bond_site_symmetry_2
O13 Al2 1_555 1_555
Al4 O14 1_555 1_555
Al7_2 O9 1_555 1_555
O8 Al1_2 1_555 1_555
O9 C9 1_555 1_555
C9 C10 1_555 1_555
C10 C11 1_555 1_555
C11 H8 1_555 1_555
C12 O8 1_555 1_555
C13 C12 1_555 1_555
C14 C11 1_555 1_555
H9 C14 1_555 1_555
O14 C9 1_555 1_555
C15 C10 1_555 1_555
H10 C15 1_555 1_555
C16 C13 1_555 1_555
H11 C16 1_555 1_555
C12 O13 1_555 1_555
C13 C14 1_555 1_555
C15 C16 1_555 1_555
Al1_3 O1 1_555 1_555
Al2_2 O1 1_555 1_555
O1 H1 1_555 1_555
O11 Al2_2 1_555 1_555
O16 Al1_4 1_555 1_555
O7 Al2_3 1_555 1_555
H7 O7 1_555 1_555
O10 Al2_3 1_555 1_555
O15 Al1_5 1_555 1_555
O7 H12 1_555 1_555
O7 Al1_6 1_555 1_555
O2 Al1_7 1_555 1_555
O3 C1 1_555 1_555
C1 C2 1_555 1_555
C2 C3 1_555 1_555
C3 H2 1_555 1_555
C4 O2 1_555 1_555
C5 C4 1_555 1_555
C6 C3 1_555 1_555
H3 C6 1_555 1_555
O4 Al2_4 1_555 1_555
O5 C1 1_555 1_555
C7 C2 1_555 1_555
H4 C7 1_555 1_555
C8 C5 1_555 1_555
H5 C8 1_555 1_555
Al4 O5 1_555 1_555
Al7 O3 1_555 1_555
C4 O4 1_555 1_555
C5 C6 1_555 1_555
C7 C8 1_555 1_555
Al4 O1_2 1_555 1_555
Al7 O1_2 1_555 1_555
O1_2 H1_2 1_555 1_555
O2_2 Al4 1_555 1_555
O10 C1_2 1_555 1_555
C1_2 C2_2 1_555 1_555
C2_2 C3_2 1_555 1_555
C3_2 H2_2 1_555 1_555
C4_2 O2_2 1_555 1_555
C5_2 C4_2 1_555 1_555
C6_2 C3_2 1_555 1_555
H3_2 C6_2 1_555 1_555
O4_2 Al7 1_555 1_555
O15 C1_2 1_555 1_555
C7_2 C2_2 1_555 1_555
H4_2 C7_2 1_555 1_555
C8_2 C5_2 1_555 1_555
H5_2 C8_2 1_555 1_555
Al7_2 O6 1_555 1_555
O6 Al4 1_555 1_555
H6 O6 1_555 1_555
O8_2 Al4 1_555 1_555
O11 C9_2 1_555 1_555
C9_2 C10_2 1_555 1_555
C10_2 C11_2 1_555 1_555
C11_2 H8_2 1_555 1_555
C12_2 O8_2 1_555 1_555
C13_2 C12_2 1_555 1_555
C14_2 C11_2 1_555 1_555
H9_2 C14_2 1_555 1_555
O12 Al7_2 1_555 1_555
O16 C9_2 1_555 1_555
C15_2 C10_2 1_555 1_555
H10_2 C15_2 1_555 1_555
C16_2 C13_2 1_555 1_555
H11_2 C16_2 1_555 1_555
C4_2 O4_2 1_555 1_555
C5_2 C6_2 1_555 1_555
C7_2 C8_2 1_555 1_555
C12_2 O12 1_555 1_555
C13_2 C14_2 1_555 1_555
C15_2 C16_2 1_555 1_555
O6 H12_2 1_555 1_555
O1 H12_3 1_555 1_555
O1_2 H12_4 1_555 1_555

#END
