
###############################################################################
#
# This file contains modified crystal structure data generated from the
# MOF subset of the Cambridge Structural Database (CSD) v543 
# hosted by the Cambridge Crystallographic Data Centre (CCDC).
#
# This work is licensed under the Creative Commons
# Attribution-NonCommercial-ShareAlike 4.0 International License.
# To view a copy of this license, visit
# http://creativecommons.org/licenses/by-nc-sa/4.0/
# or send a letter to
# Creative Commons, PO Box 1866, Mountain View, CA 94042, USA.
#
# CIF created using the CSD Python API on 29 September 2022
# The structure has been converted into the P1 space group
# The structure has a 3D framework
# The original CSD entry HAFQOW is in the monoclinic crystal system
# The framework has been calculated to contain at least 10.0% void space
# The void calculation uses a probe of radius 1.32A, grid spacing 0.4
# H atom positions have been added when not included in the experimental data
#
###############################################################################

data_HAFQOW
_chemical_formula_moiety         '(C32 H24 Al10 O20)n'
_symmetry_cell_setting           triclinic
_symmetry_space_group_name_H-M   'P 1'
_symmetry_Int_Tables_number      1
_space_group_name_Hall           'P 1'
loop_
_symmetry_equiv_pos_site_id
_symmetry_equiv_pos_as_xyz
1 x,y,z
_cell_length_a                   13.8911(7)
_cell_length_b                   15.954(1)
_cell_length_c                   6.6018(2)
_cell_angle_alpha                90
_cell_angle_beta                 91.699(4)
_cell_angle_gamma                90
_cell_volume                     1462.44
loop_
_atom_site_label
_atom_site_type_symbol
_atom_site_fract_x
_atom_site_fract_y
_atom_site_fract_z
Al1 Al 0.00000 0.00000 0.00000
Al6 Al 0.00000 -0.00000 0.5
O16 O 0.096195 0.082704 0.059746
Al1_2 Al 0.00000 -0.00000 1.00000
O1 O 0.058113 0.006887 0.756423
H1 H 0.114831 0.019597 0.76187
O11 O 0.098251 0.081828 0.398787
Al1_3 Al 0.00000 1.00000 0.00000
Al4 Al 0.50000 0.50000 0.50000
Al6_2 Al 0.00000 1.00000 0.5
Al7 Al 0.50000 0.50000 0.0
O8 O 0.096013 0.922614 0.085630
O9 O 0.401749 0.581828 0.101213
C9 C 0.376235 0.610002 0.269296
C10 C 0.30695 0.681566 0.265817
C11 C 0.275118 0.714373 0.444944
H8 H 0.295232 0.690769 0.567791
C12 C 0.119689 0.892874 0.256134
C13 C 0.182061 0.816678 0.259311
C14 C 0.21318 0.782368 0.441918
H9 H 0.192529 0.805032 0.562648
O12 O 0.093960 0.920736 0.424217
O14 O 0.403805 0.582704 0.440254
C15 C 0.275111 0.715062 0.083210
C16 C 0.213169 0.783056 0.079881
Al1_4 Al 0.00000 1.00000 1.00000
Al7_2 Al 0.50000 0.50000 1.0
H10 H 0.295187 0.691896 0.962480
H11 H 0.192479 0.806159 0.957034
Al1_5 Al 1.00000 0.00000 0.00000
H4 H 0.704813 0.308104 0.037520
H5 H 0.807521 0.193841 0.042966
Al6_3 Al 1.00000 -0.00000 0.5
Al1_6 Al 1.00000 -0.00000 1.00000
O2 O 0.903987 0.077386 0.914370
O3 O 0.598251 0.418172 0.898787
C1 C 0.623765 0.389998 0.730704
C2 C 0.69305 0.318434 0.734183
C3 C 0.724882 0.285627 0.555056
H2 H 0.704768 0.309231 0.432209
C4 C 0.880311 0.107126 0.743866
C5 C 0.817939 0.183322 0.740689
C6 C 0.78682 0.217632 0.558082
H3 H 0.807471 0.194968 0.437352
O4 O 0.906040 0.079264 0.575783
O5 O 0.596195 0.417296 0.559746
C7 C 0.724889 0.284938 0.916790
C8 C 0.786831 0.216944 0.920119
Al1_7 Al 1.00000 1.00000 0.00000
Al6_4 Al 1.00000 1.00000 0.5
O6 O 0.941887 0.993113 0.243577
H6 H 0.885169 0.980403 0.23813
Al1_8 Al 1.00000 1.00000 1.00000
O10 O 0.901749 0.918172 0.601213
O15 O 0.903805 0.917296 0.940254
H12 H 0.977476 0.950502 0.165688
H2_2 H 0.795232 0.809231 0.067791
H3_2 H 0.692529 0.694968 0.062648
O7 O 0.558113 0.493113 0.256423
H7 H 0.614831 0.480403 0.26187
O13 O 0.406040 0.420736 0.075783
H12_2 H 0.522524 0.450502 0.334312
O1_2 O 0.441887 0.506887 0.743577
H1_2 H 0.385169 0.519597 0.73813
O2_2 O 0.596013 0.577386 0.585630
C1_2 C 0.876235 0.889998 0.769296
C2_2 C 0.80695 0.818434 0.765817
C3_2 C 0.775118 0.785627 0.944944
C4_2 C 0.619689 0.607126 0.756134
C5_2 C 0.682061 0.683322 0.759311
C6_2 C 0.71318 0.717632 0.941918
O4_2 O 0.593960 0.579264 0.924217
C7_2 C 0.775111 0.784938 0.583210
H4_2 H 0.795187 0.808104 0.462480
C8_2 C 0.713169 0.716944 0.579881
H5_2 H 0.692479 0.693841 0.457034
O8_2 O 0.403987 0.422614 0.414370
C9_2 C 0.123765 0.110002 0.230704
C10_2 C 0.19305 0.181566 0.234183
C11_2 C 0.224882 0.214373 0.055056
C12_2 C 0.380311 0.392874 0.243866
C13_2 C 0.317939 0.316678 0.240689
C14_2 C 0.28682 0.282368 0.058082
C15_2 C 0.224889 0.215062 0.416790
H10_2 H 0.204813 0.191896 0.537520
C16_2 C 0.286831 0.283056 0.420119
H11_2 H 0.307521 0.306159 0.542966
H8_2 H 0.204768 0.190769 0.932209
H9_2 H 0.307471 0.305032 0.937352
H12_3 H 0.0225236 0.0494984 0.834312
H12_4 H 0.477476 0.549498 0.665688
loop_
_geom_bond_atom_site_label_1
_geom_bond_atom_site_label_2
_geom_bond_site_symmetry_1
_geom_bond_site_symmetry_2
O16 Al1 1_555 1_555
Al1_2 O1 1_555 1_555
Al6 O1 1_555 1_555
O1 H1 1_555 1_555
O11 Al6 1_555 1_555
Al4 O14 1_555 1_555
Al7 O9 1_555 1_555
O8 Al1_3 1_555 1_555
O9 C9 1_555 1_555
C9 C10 1_555 1_555
C10 C11 1_555 1_555
C11 H8 1_555 1_555
C12 O8 1_555 1_555
C13 C12 1_555 1_555
C14 C11 1_555 1_555
H9 C14 1_555 1_555
O12 Al6_2 1_555 1_555
O14 C9 1_555 1_555
C15 C10 1_555 1_555
C16 C13 1_555 1_555
C12 O12 1_555 1_555
C13 C14 1_555 1_555
C15 C16 1_555 1_555
O2 Al1_6 1_555 1_555
O3 C1 1_555 1_555
C1 C2 1_555 1_555
C2 C3 1_555 1_555
C3 H2 1_555 1_555
C4 O2 1_555 1_555
C5 C4 1_555 1_555
C6 C3 1_555 1_555
H3 C6 1_555 1_555
O4 Al6_3 1_555 1_555
O5 C1 1_555 1_555
C7 C2 1_555 1_555
C8 C5 1_555 1_555
Al4 O5 1_555 1_555
Al7_2 O3 1_555 1_555
C4 O4 1_555 1_555
C5 C6 1_555 1_555
C7 C8 1_555 1_555
Al6_4 O6 1_555 1_555
O6 Al1_7 1_555 1_555
H6 O6 1_555 1_555
O10 Al6_4 1_555 1_555
O15 Al1_8 1_555 1_555
O6 H12 1_555 1_555
O7 Al7 1_555 1_555
H7 O7 1_555 1_555
O13 Al7 1_555 1_555
O7 H12_2 1_555 1_555
Al4 O1_2 1_555 1_555
Al7_2 O1_2 1_555 1_555
O1_2 H1_2 1_555 1_555
O2_2 Al4 1_555 1_555
O10 C1_2 1_555 1_555
C1_2 C2_2 1_555 1_555
C2_2 C3_2 1_555 1_555
C4_2 O2_2 1_555 1_555
C5_2 C4_2 1_555 1_555
C6_2 C3_2 1_555 1_555
O4_2 Al7_2 1_555 1_555
O15 C1_2 1_555 1_555
C7_2 C2_2 1_555 1_555
H4_2 C7_2 1_555 1_555
C8_2 C5_2 1_555 1_555
H5_2 C8_2 1_555 1_555
O7 Al4 1_555 1_555
O8_2 Al4 1_555 1_555
O11 C9_2 1_555 1_555
C9_2 C10_2 1_555 1_555
C10_2 C11_2 1_555 1_555
C12_2 O8_2 1_555 1_555
C13_2 C12_2 1_555 1_555
C14_2 C11_2 1_555 1_555
O16 C9_2 1_555 1_555
C15_2 C10_2 1_555 1_555
H10_2 C15_2 1_555 1_555
C16_2 C13_2 1_555 1_555
H11_2 C16_2 1_555 1_555
C4_2 O4_2 1_555 1_555
C5_2 C6_2 1_555 1_555
C7_2 C8_2 1_555 1_555
C12_2 O13 1_555 1_555
C13_2 C14_2 1_555 1_555
C15_2 C16_2 1_555 1_555
O1 H12_3 1_555 1_555
O1_2 H12_4 1_555 1_555

#END
