
###############################################################################
#
# This file contains modified crystal structure data generated from the
# MOF subset of the Cambridge Structural Database (CSD) v543 
# hosted by the Cambridge Crystallographic Data Centre (CCDC).
#
# This work is licensed under the Creative Commons
# Attribution-NonCommercial-ShareAlike 4.0 International License.
# To view a copy of this license, visit
# http://creativecommons.org/licenses/by-nc-sa/4.0/
# or send a letter to
# Creative Commons, PO Box 1866, Mountain View, CA 94042, USA.
#
# CIF created using the CSD Python API on 29 September 2022
# The structure has been converted into the P1 space group
# The structure has a 3D framework
# The original CSD entry HAFSOZ is in the monoclinic crystal system
# The framework has been calculated to contain at least 10.0% void space
# The void calculation uses a probe of radius 1.32A, grid spacing 0.4
#
###############################################################################

data_HAFSOZ
_chemical_formula_moiety         '(C56 H48 N4 O40 Zn6)n'
_symmetry_cell_setting           triclinic
_symmetry_space_group_name_H-M   'P 1'
_symmetry_Int_Tables_number      1
_space_group_name_Hall           'P 1'
loop_
_symmetry_equiv_pos_site_id
_symmetry_equiv_pos_as_xyz
1 x,y,z
_cell_length_a                   10.997(2)
_cell_length_b                   14.914(3)
_cell_length_c                   14.368(3)
_cell_angle_alpha                90
_cell_angle_beta                 109.31(3)
_cell_angle_gamma                90
_cell_volume                     2223.92
loop_
_atom_site_label
_atom_site_type_symbol
_atom_site_fract_x
_atom_site_fract_y
_atom_site_fract_z
Zn9 Zn 0.07237(6) 0.15007(4) 0.16101(5)
O1 O 0.9082(3) 0.1419(3) 0.1963(3)
O2 O 0.5663(4) 0.3722(3) 0.3698(3)
O3 O 0.5326(3) 0.0562(2) 0.0689(2)
C1 C 0.4650(4) 0.1615(3) 0.1643(4)
O4 O 0.2522(4) 0.1791(3) 0.1576(3)
C2 C 0.6217(5) 0.2644(3) 0.2696(4)
C3 C 0.5600(4) 0.1223(3) 0.1314(3)
C4 C 0.3269(5) 0.1336(3) 0.1288(4)
C5 C 0.7146(5) 0.2255(3) 0.2374(4)
H1 H 0.7984 0.2475 0.2614
C6 C 0.4975(5) 0.2311(3) 0.2317(4)
H2 H 0.4334 0.2565 0.2523
C7 C 0.6884(5) 0.1556(3) 0.1713(4)
O5 O 0.1315(4) 0.0188(3) 0.2157(3)
O6 O 0.7804(3) 0.0660(3) 0.0731(3)
O7 O 0.7642(4) 0.3739(3) 0.3627(3)
O8 O 0.0019(4) 0.0922(3) 0.0224(3)
O9 O 0.2878(3) 0.0692(3) 0.0718(3)
C8 C 0.7978(5) 0.1187(3) 0.1437(4)
O10 O 0.1520(5) 0.1981(3) 0.3104(3)
H5 H 0.2028 0.2389 0.3127
C9 C 0.6553(5) 0.3421(4) 0.3386(4)
N1 N 0.0212(5) 0.2818(3) 0.0973(4)
C10 C 0.0034(6) 0.4541(4) 0.0197(5)
C12 C 0.0209(10) 0.4383(5) 0.1170(6)
H7 H 0.0277 0.4867 0.1593
C13 C 0.0287(9) 0.3524(5) 0.1539(6)
H8 H 0.0395 0.3441 0.2203
H12 H 0.114(6) 0.204(4) 0.353(4)
H13 H 0.0089 0.7535 0.0376
C19 C 0.0145(8) 0.6200(5) 0.0396(5)
H16 H 0.0352 0.6139 0.1075
H23 H 0.071(3) 0.882(5) 0.001(5)
Zn8 Zn 0.62034(5) 0.47001(4) 0.46634(4)
Zn1 Zn 0.62034(5) 0.02999(4) 0.96634(4)
H4 H 0.0492 0.1049 0.9907
C16 C 0.0014(8) 0.7039(5) 0.9969(6)
O22 O 0.0918(3) 0.8581(3) 0.8037(3)
O24 O 0.5663(4) 0.1278(3) 0.8698(3)
H3 H 0.1782 0.9977 0.1871
H10 H 0.091(6) 0.979(2) 0.236(5)
Zn7 Zn 0.37966(5) 0.97001(4) 0.03366(4)
O26 O 0.4674(3) 0.9438(2) 0.9311(2)
O28 O 0.7122(3) 0.9308(3) 0.9282(3)
H19 H 0.8218 0.0023 0.8129
H22 H 0.909(6) 0.021(2) 0.764(5)
C11 C 0.9986(8) 0.2961(5) 0.0031(6)
H20 H 0.9508 0.8951 0.0093
O23 O 0.4337(4) 0.8722(3) 0.1302(3)
H6 H 0.9911 0.2465 0.9624
C14 C 0.9855(8) 0.3800(5) 0.9604(5)
H9 H 0.9648 0.3861 0.8925
H11 H 0.929(3) 0.118(5) 0.999(5)
N2 N 0.9788(5) 0.7182(3) 0.9027(4)
C15 C 0.9966(6) 0.5459(4) 0.9803(5)
C17 C 0.9791(10) 0.5617(5) 0.8830(6)
H14 H 0.9723 0.5133 0.8407
C18 C 0.9713(9) 0.6476(5) 0.8461(6)
H15 H 0.9605 0.6559 0.7797
O12 O 0.4337(4) 0.6278(3) 0.6302(3)
Zn4 Zn 0.92763(6) 0.84993(4) 0.83899(5)
C20 C 0.5350(4) 0.8385(3) 0.8357(4)
O14 O 0.7478(4) 0.8209(3) 0.8424(3)
C21 C 0.3783(5) 0.7356(3) 0.7304(4)
C22 C 0.4400(4) 0.8777(3) 0.8686(3)
C23 C 0.6731(5) 0.8664(3) 0.8712(4)
C24 C 0.2854(5) 0.7745(3) 0.7626(4)
H17 H 0.2016 0.7525 0.7386
C25 C 0.5025(5) 0.7689(3) 0.7683(4)
H18 H 0.5666 0.7435 0.7477
C26 C 0.3116(5) 0.8444(3) 0.8287(4)
O15 O 0.8685(4) 0.9812(3) 0.7843(3)
O16 O 0.2196(3) 0.9340(3) 0.9269(3)
O17 O 0.2358(4) 0.6261(3) 0.6373(3)
O18 O 0.9981(4) 0.9078(3) 0.9776(3)
C27 C 0.2022(5) 0.8813(3) 0.8563(4)
O20 O 0.8480(5) 0.8019(3) 0.6896(3)
H21 H 0.7972 0.7611 0.6873
C28 C 0.3447(5) 0.6579(4) 0.6614(4)
H24 H 0.886(6) 0.796(4) 0.647(4)
Zn6 Zn 0.37966(5) 0.52999(4) 0.53366(4)
Zn10 Zn 0.07237(6) 0.34993(4) 0.66101(5)
N2_2 N 0.0212(5) 0.2182(3) 0.5973(4)
C15_2 C 0.0034(6) 0.0459(4) 0.5197(5)
C17_2 C 0.0209(10) 0.0617(5) 0.6170(6)
H14_2 H 0.0277 0.0133 0.6593
C18_2 C 0.0287(9) 0.1476(5) 0.6539(6)
H15_2 H 0.0395 0.1559 0.7203
O11 O 0.9082(3) 0.3581(3) 0.6963(3)
O13 O 0.5326(3) 0.4438(2) 0.5689(2)
C20_2 C 0.4650(4) 0.3385(3) 0.6643(4)
O14_2 O 0.2522(4) 0.3209(3) 0.6576(3)
C21_2 C 0.6217(5) 0.2356(3) 0.7696(4)
C22_2 C 0.5600(4) 0.3777(3) 0.6314(3)
C23_2 C 0.3269(5) 0.3664(3) 0.6288(4)
C24_2 C 0.7146(5) 0.2745(3) 0.7374(4)
H17_2 H 0.7984 0.2525 0.7614
C25_2 C 0.4975(5) 0.2689(3) 0.7317(4)
H18_2 H 0.4334 0.2435 0.7523
C26_2 C 0.6884(5) 0.3444(3) 0.6713(4)
O15_2 O 0.1315(4) 0.4812(3) 0.7157(3)
H19_2 H 0.1782 0.5023 0.6871
O16_2 O 0.7804(3) 0.4340(3) 0.5731(3)
O17_2 O 0.7642(4) 0.1261(3) 0.8627(3)
O18_2 O 0.0019(4) 0.4078(3) 0.5224(3)
H20_2 H 0.0492 0.3951 0.4907
O19 O 0.2878(3) 0.4308(3) 0.5718(3)
C27_2 C 0.7978(5) 0.3813(3) 0.6437(4)
O20_2 O 0.1520(5) 0.3019(3) 0.8104(3)
H21_2 H 0.2028 0.2611 0.8127
C28_2 C 0.6553(5) 0.1579(4) 0.8386(4)
H22_2 H 0.091(6) 0.521(2) 0.736(5)
H24_2 H 0.114(6) 0.296(4) 0.853(4)
O25 O 0.4674(3) 0.5562(2) 0.4311(2)
O27 O 0.7122(3) 0.5692(3) 0.4282(3)
C11_2 C 0.0014(8) 0.7961(5) 0.4969(6)
H6_2 H 0.0089 0.7465 0.5376
C14_2 C 0.0145(8) 0.8800(5) 0.5396(5)
H9_2 H 0.0352 0.8861 0.6075
H11_2 H 0.071(3) 0.618(5) 0.501(5)
O21 O 0.0918(3) 0.6419(3) 0.3037(3)
C16_2 C 0.9986(8) 0.2039(5) 0.5031(6)
H13_2 H 0.9911 0.2535 0.4624
C19_2 C 0.9855(8) 0.1200(5) 0.4604(5)
H16_2 H 0.9648 0.1139 0.3925
H23_2 H 0.929(3) 0.382(5) 0.499(5)
Zn2 Zn 0.92763(6) 0.65007(4) 0.33899(5)
C1_2 C 0.5350(4) 0.6615(3) 0.3357(4)
O4_2 O 0.7478(4) 0.6791(3) 0.3424(3)
C2_2 C 0.3783(5) 0.7644(3) 0.2304(4)
C3_2 C 0.4400(4) 0.6223(3) 0.3686(3)
C4_2 C 0.6731(5) 0.6336(3) 0.3712(4)
C5_2 C 0.2854(5) 0.7255(3) 0.2626(4)
H1_2 H 0.2016 0.7475 0.2386
C6_2 C 0.5025(5) 0.7311(3) 0.2683(4)
H2_2 H 0.5666 0.7565 0.2477
C7_2 C 0.3116(5) 0.6556(3) 0.3287(4)
O5_2 O 0.8685(4) 0.5188(3) 0.2843(3)
H3_2 H 0.8218 0.4977 0.3129
O6_2 O 0.2196(3) 0.5660(3) 0.4269(3)
O7_2 O 0.2358(4) 0.8739(3) 0.1373(3)
O8_2 O 0.9981(4) 0.5922(3) 0.4776(3)
H4_2 H 0.9508 0.6049 0.5093
C8_2 C 0.2022(5) 0.6187(3) 0.3563(4)
O10_2 O 0.8480(5) 0.6981(3) 0.1896(3)
H5_2 H 0.7972 0.7389 0.1873
C9_2 C 0.3447(5) 0.8421(4) 0.1614(4)
N1_2 N 0.9788(5) 0.7818(3) 0.4027(4)
C10_2 C 0.9966(6) 0.9541(4) 0.4803(5)
C12_2 C 0.9791(10) 0.9383(5) 0.3830(6)
H7_2 H 0.9723 0.9867 0.3407
C13_2 C 0.9713(9) 0.8524(5) 0.3461(6)
H8_2 H 0.9605 0.8441 0.2797
H10_2 H 0.909(6) 0.479(2) 0.264(5)
H12_2 H 0.886(6) 0.704(4) 0.147(4)
loop_
_geom_bond_atom_site_label_1
_geom_bond_atom_site_label_2
_geom_bond_site_symmetry_1
_geom_bond_site_symmetry_2
O1 C8 1_555 1_555
O2 C9 1_555 1_555
Zn9 O4 1_555 1_555
O3 C3 1_555 1_555
C1 C3 1_555 1_555
O4 C4 1_555 1_555
C2 C5 1_555 1_555
C3 C7 1_555 1_555
C4 C1 1_555 1_555
C5 H1 1_555 1_555
C6 C1 1_555 1_555
H2 C6 1_555 1_555
C7 C5 1_555 1_555
O5 Zn9 1_555 1_555
O7 C9 1_555 1_555
O8 Zn9 1_555 1_555
O9 C4 1_555 1_555
C8 C7 1_555 1_555
O10 Zn9 1_555 1_555
H5 O10 1_555 1_555
C9 C2 1_555 1_555
N1 Zn9 1_555 1_555
C10 C12 1_555 1_555
C12 H7 1_555 1_555
C13 N1 1_555 1_555
H8 C13 1_555 1_555
H12 O10 1_555 1_555
H16 C19 1_555 1_555
Zn8 O2 1_555 1_555
C2 C6 1_555 1_555
O6 C8 1_555 1_555
C12 C13 1_555 1_555
O24 Zn1 1_555 1_555
O23 Zn7 1_555 1_555
H9 C14 1_555 1_555
C17 C15 1_555 1_555
H14 C17 1_555 1_555
C18 N2 1_555 1_555
H15 C18 1_555 1_555
O22 C27 1_555 1_555
O12 C28 1_555 1_555
Zn4 N2 1_555 1_555
O26 C22 1_555 1_555
C20 C22 1_555 1_555
O14 Zn4 1_555 1_555
C21 C24 1_555 1_555
C22 C26 1_555 1_555
C23 C20 1_555 1_555
C24 H17 1_555 1_555
C25 C20 1_555 1_555
H18 C25 1_555 1_555
C26 C24 1_555 1_555
O15 Zn4 1_555 1_555
O17 C28 1_555 1_555
O18 Zn4 1_555 1_555
O28 C23 1_555 1_555
C27 C26 1_555 1_555
O20 Zn4 1_555 1_555
H21 O20 1_555 1_555
C28 C21 1_555 1_555
H24 O20 1_555 1_555
Zn6 O12 1_555 1_555
C17 C18 1_555 1_555
O14 C23 1_555 1_555
C21 C25 1_555 1_555
O16 C27 1_555 1_555
C17_2 C15_2 1_555 1_555
H14_2 C17_2 1_555 1_555
C18_2 N2_2 1_555 1_555
H15_2 C18_2 1_555 1_555
O11 C27_2 1_555 1_555
O24 C28_2 1_555 1_555
Zn8 O13 1_555 1_555
Zn10 N2_2 1_555 1_555
O13 C22_2 1_555 1_555
C20_2 C22_2 1_555 1_555
O14_2 Zn10 1_555 1_555
C21_2 C24_2 1_555 1_555
C22_2 C26_2 1_555 1_555
C23_2 C20_2 1_555 1_555
C24_2 H17_2 1_555 1_555
C25_2 C20_2 1_555 1_555
H18_2 C25_2 1_555 1_555
C26_2 C24_2 1_555 1_555
O15_2 Zn10 1_555 1_555
H19_2 O15_2 1_555 1_555
O16_2 Zn8 1_555 1_555
O17_2 C28_2 1_555 1_555
O18_2 Zn10 1_555 1_555
H20_2 O18_2 1_555 1_555
O19 C23_2 1_555 1_555
C27_2 C26_2 1_555 1_555
O20_2 Zn10 1_555 1_555
H21_2 O20_2 1_555 1_555
C28_2 C21_2 1_555 1_555
H22_2 O15_2 1_555 1_555
H24_2 O20_2 1_555 1_555
Zn6 O13 1_555 1_555
O25 Zn8 1_555 1_555
O27 Zn8 1_555 1_555
C17_2 C18_2 1_555 1_555
O14_2 C23_2 1_555 1_555
C21_2 C25_2 1_555 1_555
O16_2 C27_2 1_555 1_555
O19 Zn6 1_555 1_555
Zn6 O25 1_555 1_555
H6_2 C11_2 1_555 1_555
H9_2 C14_2 1_555 1_555
C11_2 C14_2 1_555 1_555
C16_2 H13_2 1_555 1_555
H16_2 C19_2 1_555 1_555
C16_2 C19_2 1_555 1_555
O21 C8_2 1_555 1_555
O23 C9_2 1_555 1_555
Zn2 O4_2 1_555 1_555
O25 C3_2 1_555 1_555
C1_2 C3_2 1_555 1_555
O4_2 C4_2 1_555 1_555
C2_2 C5_2 1_555 1_555
C3_2 C7_2 1_555 1_555
C4_2 C1_2 1_555 1_555
C5_2 H1_2 1_555 1_555
C6_2 C1_2 1_555 1_555
H2_2 C6_2 1_555 1_555
C7_2 C5_2 1_555 1_555
O5_2 Zn2 1_555 1_555
H3_2 O5_2 1_555 1_555
O6_2 Zn6 1_555 1_555
O7_2 C9_2 1_555 1_555
O8_2 Zn2 1_555 1_555
H4_2 O8_2 1_555 1_555
O27 C4_2 1_555 1_555
C8_2 C7_2 1_555 1_555
O10_2 Zn2 1_555 1_555
H5_2 O10_2 1_555 1_555
C9_2 C2_2 1_555 1_555
N1_2 Zn2 1_555 1_555
C10_2 C12_2 1_555 1_555
C12_2 H7_2 1_555 1_555
C13_2 N1_2 1_555 1_555
H8_2 C13_2 1_555 1_555
H10_2 O5_2 1_555 1_555
H12_2 O10_2 1_555 1_555
C2_2 C6_2 1_555 1_555
O6_2 C8_2 1_555 1_555
C12_2 C13_2 1_555 1_555

#END
