
###############################################################################
#
# This file contains modified crystal structure data generated from the
# MOF subset of the Cambridge Structural Database (CSD) v543 
# hosted by the Cambridge Crystallographic Data Centre (CCDC).
#
# This work is licensed under the Creative Commons
# Attribution-NonCommercial-ShareAlike 4.0 International License.
# To view a copy of this license, visit
# http://creativecommons.org/licenses/by-nc-sa/4.0/
# or send a letter to
# Creative Commons, PO Box 1866, Mountain View, CA 94042, USA.
#
# CIF created using the CSD Python API on 29 September 2022
# The structure has been converted into the P1 space group
# The structure has a 3D framework
# The original CSD entry HAFVUH is in the tetragonal crystal system
# The original CSD entry HAFVUH is in a Sohncke space group
# The framework has been calculated to contain at least 10.0% void space
# The void calculation uses a probe of radius 1.32A, grid spacing 0.4
#
###############################################################################

data_HAFVUH
_chemical_formula_moiety         '(C84 H34 Mg7 O32)n'
_symmetry_cell_setting           triclinic
_symmetry_space_group_name_H-M   'P 1'
_symmetry_Int_Tables_number      1
_space_group_name_Hall           'P 1'
loop_
_symmetry_equiv_pos_site_id
_symmetry_equiv_pos_as_xyz
1 x,y,z
_cell_length_a                   15.2927(11)
_cell_length_b                   15.2927(11)
_cell_length_c                   12.3010(18)
_cell_angle_alpha                90
_cell_angle_beta                 90
_cell_angle_gamma                90
_cell_volume                     2876.79
loop_
_atom_site_label
_atom_site_type_symbol
_atom_site_fract_x
_atom_site_fract_y
_atom_site_fract_z
Mg1 Mg 0.68480(8) 0.31520(8) 0.0000
O1 O 0.7554(3) 0.2500 0.1250
Mg6 Mg 0.68480(8) 0.18480(8) 0.2500
Mg8 Mg 0.31520(8) 0.68480(8) 0.0000
O10 O 0.6155(2) 0.3797(2) 0.1146(2)
O17 O 0.78883(19) 0.40306(17) 0.0044(2)
Mg1_2 Mg 0.68480(8) 0.31520(8) 1.0000
O2 O 0.6203(2) 0.3845(2) 0.8854(2)
O3 O 0.71117(19) 0.40306(17) 0.7456(2)
C1 C 0.5000 0.5000 0.5610(4)
C2 C 0.5000 0.5000 0.7883(5)
H1 H 0.5000 0.5000 0.8639
C3 C 0.5692(3) 0.4633(3) 0.6192(4)
H2 H 0.6170 0.4408 0.5816
C4 C 0.5684(3) 0.4596(3) 0.7322(3)
C5 C 0.6398(3) 0.4123(3) 0.7918(3)
Mg2 Mg 0.81520(8) 0.31520(8) 0.7500
Mg4 Mg 0.81520(8) 0.18480(8) 0.5000
Mg8_2 Mg 0.31520(8) 0.68480(8) 1.0000
Mg9 Mg 0.18480(8) 0.68480(8) 0.7500
Mg10 Mg 0.31520(8) 0.81520(8) 0.2500
O4 O 0.7446(3) 0.2500 0.6250
O5 O 0.7500 0.2446(3) 0.8750
O7 O 0.3797(2) 0.6155(2) 0.8854(2)
O8 O 0.3845(2) 0.6203(2) 0.1146(2)
O9 O 0.8845(2) 0.3797(2) 0.6354(2)
O11 O 0.8797(2) 0.3845(2) 0.8646(2)
O12 O 0.59694(17) 0.28883(19) 0.2544(2)
O13 O 0.28883(19) 0.59694(17) 0.7456(2)
O14 O 0.40306(17) 0.71117(19) 0.2544(2)
O15 O 0.59694(17) 0.21117(19) 0.9956(2)
O16 O 0.90306(17) 0.21117(19) 0.7544(2)
C6 C 0.5000 0.5000 0.4390(4)
C7 C 0.5000 0.5000 0.2117(5)
H3 H 0.5000 0.5000 0.1361
C8 C 0.5367(3) 0.4308(3) 0.3808(4)
C9 C 0.4308(3) 0.5367(3) 0.6192(4)
C10 C 0.4633(3) 0.5692(3) 0.3808(4)
H4 H 0.5592 0.3830 0.4184
H5 H 0.3830 0.5592 0.5816
H6 H 0.4408 0.6170 0.4184
C11 C 0.5404(3) 0.4316(3) 0.2678(3)
C12 C 0.4316(3) 0.5404(3) 0.7322(3)
C13 C 0.4596(3) 0.5684(3) 0.2678(3)
C14 C 0.5877(3) 0.3602(3) 0.2082(3)
C15 C 0.3602(3) 0.5877(3) 0.7918(3)
C16 C 0.4123(3) 0.6398(3) 0.2082(3)
C1_2 C 0.0000 1.0000 0.0610(4)
C2_2 C 0.0000 1.0000 0.2883(5)
H1_2 H 0.0000 1.0000 0.3639
Mg8_3 Mg 0.18480(8) 0.81520(8) 0.5000
O7_2 O 0.1203(2) 0.8845(2) 0.3854(2)
O13_2 O 0.21117(19) 0.90306(17) 0.2456(2)
C9_2 C 0.0692(3) 0.9633(3) 0.1192(4)
H5_2 H 0.1170 0.9408 0.0816
C12_2 C 0.0684(3) 0.9596(3) 0.2322(3)
C15_2 C 0.1398(3) 0.9123(3) 0.2918(3)
O8_2 O 0.1155(2) 0.8797(2) 0.6146(2)
O14_2 O 0.09694(17) 0.78883(19) 0.7544(2)
C6_2 C 0.0000 1.0000 0.9390(4)
C7_2 C 0.0000 1.0000 0.7117(5)
H3_2 H 0.0000 1.0000 0.6361
C10_2 C 0.0367(3) 0.9308(3) 0.8808(4)
H6_2 H 0.0592 0.8830 0.9184
C13_2 C 0.0404(3) 0.9316(3) 0.7678(3)
C16_2 C 0.0877(3) 0.8602(3) 0.7082(3)
O2_2 O 0.8797(2) 0.1155(2) 0.3854(2)
O3_2 O 0.78883(19) 0.09694(17) 0.2456(2)
C1_3 C 1.0000 0.0000 0.0610(4)
C2_3 C 1.0000 0.0000 0.2883(5)
H1_3 H 1.0000 0.0000 0.3639
C3_2 C 0.9308(3) 0.0367(3) 0.1192(4)
H2_2 H 0.8830 0.0592 0.0816
C4_2 C 0.9316(3) 0.0404(3) 0.2322(3)
C5_2 C 0.8602(3) 0.0877(3) 0.2918(3)
O5_2 O 0.7500 0.2554(3) 0.3750
O9_2 O 0.6155(2) 0.1203(2) 0.1354(2)
O10_2 O 0.8845(2) 0.1203(2) 0.6146(2)
O11_2 O 0.6203(2) 0.1155(2) 0.3646(2)
O15_2 O 0.90306(17) 0.28883(19) 0.4956(2)
O17_2 O 0.71117(19) 0.09694(17) 0.5044(2)
C6_3 C 1.0000 0.0000 0.9390(4)
C7_3 C 1.0000 0.0000 0.7117(5)
H3_3 H 1.0000 0.0000 0.6361
C8_2 C 0.9633(3) 0.0692(3) 0.8808(4)
H4_2 H 0.9408 0.1170 0.9184
C11_2 C 0.9596(3) 0.0684(3) 0.7678(3)
C14_2 C 0.9123(3) 0.1398(3) 0.7082(3)
C2_4 C 0.5000 -0.0000 0.0383(5)
H1_4 H 0.5000 -0.0000 0.1139
C5_3 C 0.5877(3) 0.1398(3) 0.0418(3)
C1_4 C 0.5000 -0.0000 0.8110(4)
C3_3 C 0.5367(3) 0.0692(3) 0.8692(4)
H2_3 H 0.5592 0.1170 0.8316
C4_3 C 0.5404(3) 0.0684(3) 0.9822(3)
C6_4 C 0.5000 -0.0000 0.6890(4)
C7_4 C 0.5000 -0.0000 0.4617(5)
H3_4 H 0.5000 -0.0000 0.3861
C8_3 C 0.5692(3) 0.0367(3) 0.6308(4)
H4_3 H 0.6170 0.0592 0.6684
C11_3 C 0.5684(3) 0.0404(3) 0.5178(3)
C14_3 C 0.6398(3) 0.0877(3) 0.4582(3)
C2_5 C 0.5000 1.0000 0.0383(5)
H1_5 H 0.5000 1.0000 0.1139
O7_3 O 0.3845(2) 0.8797(2) 0.1354(2)
C15_3 C 0.4123(3) 0.8602(3) 0.0418(3)
C1_5 C 0.5000 1.0000 0.8110(4)
O8_3 O 0.3797(2) 0.8845(2) 0.3646(2)
O13_3 O 0.40306(17) 0.78883(19) 0.9956(2)
O14_3 O 0.28883(19) 0.90306(17) 0.5044(2)
C6_5 C 0.5000 1.0000 0.6890(4)
C7_5 C 0.5000 1.0000 0.4617(5)
H3_5 H 0.5000 1.0000 0.3861
C9_3 C 0.4633(3) 0.9308(3) 0.8692(4)
C10_3 C 0.4308(3) 0.9633(3) 0.6308(4)
H5_3 H 0.4408 0.8830 0.8316
H6_3 H 0.3830 0.9408 0.6684
C12_3 C 0.4596(3) 0.9316(3) 0.9822(3)
C13_3 C 0.4316(3) 0.9596(3) 0.5178(3)
C16_3 C 0.3602(3) 0.9123(3) 0.4582(3)
C1_6 C -0.0000 0.5000 0.3110(4)
C2_6 C -0.0000 0.5000 0.5383(5)
H1_6 H -0.0000 0.5000 0.6139
O7_4 O 0.1155(2) 0.6203(2) 0.6354(2)
O13_4 O 0.09694(17) 0.71117(19) 0.4956(2)
O14_4 O 0.21117(19) 0.59694(17) 0.0044(2)
C6_6 C -0.0000 0.5000 0.1890(4)
C9_4 C 0.0367(3) 0.5692(3) 0.3692(4)
C10_4 C 0.0692(3) 0.5367(3) 0.1308(4)
H5_4 H 0.0592 0.6170 0.3316
H6_4 H 0.1170 0.5592 0.1684
C12_4 C 0.0404(3) 0.5684(3) 0.4822(3)
C13_4 C 0.0684(3) 0.5404(3) 0.0178(3)
C15_4 C 0.0877(3) 0.6398(3) 0.5418(3)
O8_4 O 0.1203(2) 0.6155(2) 0.8646(2)
C7_6 C -0.0000 0.5000 0.9617(5)
H3_6 H -0.0000 0.5000 0.8861
C16_4 C 0.1398(3) 0.5877(3) 0.9582(3)
C1_7 C 1.0000 0.5000 0.3110(4)
C2_7 C 1.0000 0.5000 0.5383(5)
H1_7 H 1.0000 0.5000 0.6139
C3_4 C 0.9633(3) 0.4308(3) 0.3692(4)
H2_4 H 0.9408 0.3830 0.3316
C4_4 C 0.9596(3) 0.4316(3) 0.4822(3)
C5_4 C 0.9123(3) 0.3602(3) 0.5418(3)
C6_7 C 1.0000 0.5000 0.1890(4)
C8_4 C 0.9308(3) 0.4633(3) 0.1308(4)
H4_4 H 0.8830 0.4408 0.1684
C11_4 C 0.9316(3) 0.4596(3) 0.0178(3)
C7_7 C 1.0000 0.5000 0.9617(5)
H3_7 H 1.0000 0.5000 0.8861
C14_4 C 0.8602(3) 0.4123(3) 0.9582(3)
O1_2 O 0.2554(3) 0.7500 0.6250
O4_2 O 0.2446(3) 0.7500 0.1250
O5_3 O 0.2500 0.7446(3) 0.3750
O5_4 O 0.2500 0.7554(3) 0.8750
C1_8 C 0.0000 0.0000 0.0610(4)
C2_8 C 0.0000 0.0000 0.2883(5)
H1_8 H 0.0000 0.0000 0.3639
C6_8 C 0.0000 0.0000 0.9390(4)
C7_8 C 0.0000 0.0000 0.7117(5)
H3_8 H 0.0000 0.0000 0.6361
C1_9 C 1.0000 1.0000 0.0610(4)
C2_9 C 1.0000 1.0000 0.2883(5)
H1_9 H 1.0000 1.0000 0.3639
C6_9 C 1.0000 1.0000 0.9390(4)
C7_9 C 1.0000 1.0000 0.7117(5)
H3_9 H 1.0000 1.0000 0.6361
loop_
_geom_bond_atom_site_label_1
_geom_bond_atom_site_label_2
_geom_bond_site_symmetry_1
_geom_bond_site_symmetry_2
Mg1 O1 1_555 1_555
O1 Mg6 1_555 1_555
O10 Mg1 1_555 1_555
O17 Mg1 1_555 1_555
O2 Mg1_2 1_555 1_555
O3 C5 1_555 1_555
C1 C3 1_555 1_555
C2 H1 1_555 1_555
C3 H2 1_555 1_555
C4 C2 1_555 1_555
C5 O2 1_555 1_555
Mg2 O3 1_555 1_555
Mg4 O4 1_555 1_555
Mg6 O12 1_555 1_555
Mg8 O8 1_555 1_555
Mg8_2 O7 1_555 1_555
Mg9 O13 1_555 1_555
Mg10 O14 1_555 1_555
O4 Mg2 1_555 1_555
O5 Mg1_2 1_555 1_555
O10 C14 1_555 1_555
O7 C15 1_555 1_555
O8 C16 1_555 1_555
O9 Mg2 1_555 1_555
O11 Mg2 1_555 1_555
O12 C14 1_555 1_555
O13 C15 1_555 1_555
O14 C16 1_555 1_555
O15 Mg1_2 1_555 1_555
O16 Mg2 1_555 1_555
C6 C1 1_555 1_555
C7 H3 1_555 1_555
C8 C6 1_555 1_555
C9 C1 1_555 1_555
C10 C6 1_555 1_555
H4 C8 1_555 1_555
H5 C9 1_555 1_555
H6 C10 1_555 1_555
C11 C7 1_555 1_555
C12 C2 1_555 1_555
C13 C7 1_555 1_555
C14 C11 1_555 1_555
C15 C12 1_555 1_555
C16 C13 1_555 1_555
C3 C4 1_555 1_555
C4 C5 1_555 1_555
Mg2 O5 1_555 1_555
C8 C11 1_555 1_555
C9 C12 1_555 1_555
C10 C13 1_555 1_555
C2_2 H1_2 1_555 1_555
Mg8_3 O7_2 1_555 1_555
Mg10 O13_2 1_555 1_555
O7_2 C15_2 1_555 1_555
O13_2 C15_2 1_555 1_555
C9_2 C1_2 1_555 1_555
H5_2 C9_2 1_555 1_555
C12_2 C2_2 1_555 1_555
C15_2 C12_2 1_555 1_555
C9_2 C12_2 1_555 1_555
Mg8_3 O8_2 1_555 1_555
Mg9 O14_2 1_555 1_555
O8_2 C16_2 1_555 1_555
O14_2 C16_2 1_555 1_555
C7_2 H3_2 1_555 1_555
C10_2 C6_2 1_555 1_555
H6_2 C10_2 1_555 1_555
C13_2 C7_2 1_555 1_555
C16_2 C13_2 1_555 1_555
C10_2 C13_2 1_555 1_555
O2_2 Mg4 1_555 1_555
O3_2 C5_2 1_555 1_555
C1_3 C3_2 1_555 1_555
C2_3 H1_3 1_555 1_555
C3_2 H2_2 1_555 1_555
C4_2 C2_3 1_555 1_555
C5_2 O2_2 1_555 1_555
Mg6 O3_2 1_555 1_555
O5_2 Mg4 1_555 1_555
O9_2 Mg6 1_555 1_555
O10_2 Mg4 1_555 1_555
O11_2 Mg6 1_555 1_555
O15_2 Mg4 1_555 1_555
O17_2 Mg4 1_555 1_555
C3_2 C4_2 1_555 1_555
C4_2 C5_2 1_555 1_555
Mg6 O5_2 1_555 1_555
O10_2 C14_2 1_555 1_555
O16 C14_2 1_555 1_555
C7_3 H3_3 1_555 1_555
C8_2 C6_3 1_555 1_555
H4_2 C8_2 1_555 1_555
C11_2 C7_3 1_555 1_555
C14_2 C11_2 1_555 1_555
C8_2 C11_2 1_555 1_555
C2_4 H1_4 1_555 1_555
C5_3 O9_2 1_555 1_555
C1_4 C3_3 1_555 1_555
C3_3 H2_3 1_555 1_555
O11_2 C14_3 1_555 1_555
O17_2 C14_3 1_555 1_555
C6_4 C1_4 1_555 1_555
C7_4 H3_4 1_555 1_555
C8_3 C6_4 1_555 1_555
H4_3 C8_3 1_555 1_555
C11_3 C7_4 1_555 1_555
C14_3 C11_3 1_555 1_555
C3_3 C4_3 1_555 1_555
C8_3 C11_3 1_555 1_555
C2_5 H1_5 1_555 1_555
Mg10 O7_3 1_555 1_555
O7_3 C15_3 1_555 1_555
Mg10 O8_3 1_555 1_555
Mg8_2 O13_3 1_555 1_555
Mg8_3 O14_3 1_555 1_555
O8_3 C16_3 1_555 1_555
O14_3 C16_3 1_555 1_555
C6_5 C1_5 1_555 1_555
C7_5 H3_5 1_555 1_555
C9_3 C1_5 1_555 1_555
C10_3 C6_5 1_555 1_555
H5_3 C9_3 1_555 1_555
H6_3 C10_3 1_555 1_555
C13_3 C7_5 1_555 1_555
C16_3 C13_3 1_555 1_555
C9_3 C12_3 1_555 1_555
C10_3 C13_3 1_555 1_555
C2_6 H1_6 1_555 1_555
Mg9 O7_4 1_555 1_555
Mg8_3 O13_4 1_555 1_555
Mg8 O14_4 1_555 1_555
O7_4 C15_4 1_555 1_555
O13_4 C15_4 1_555 1_555
C6_6 C1_6 1_555 1_555
C9_4 C1_6 1_555 1_555
C10_4 C6_6 1_555 1_555
H5_4 C9_4 1_555 1_555
H6_4 C10_4 1_555 1_555
C12_4 C2_6 1_555 1_555
C15_4 C12_4 1_555 1_555
C9_4 C12_4 1_555 1_555
C10_4 C13_4 1_555 1_555
Mg9 O8_4 1_555 1_555
O8_4 C16_4 1_555 1_555
C7_6 H3_6 1_555 1_555
O15_2 C5_4 1_555 1_555
C1_7 C3_4 1_555 1_555
C2_7 H1_7 1_555 1_555
C3_4 H2_4 1_555 1_555
C4_4 C2_7 1_555 1_555
C5_4 O9 1_555 1_555
C6_7 C1_7 1_555 1_555
C8_4 C6_7 1_555 1_555
H4_4 C8_4 1_555 1_555
C3_4 C4_4 1_555 1_555
C4_4 C5_4 1_555 1_555
C8_4 C11_4 1_555 1_555
O11 C14_4 1_555 1_555
C7_7 H3_7 1_555 1_555
Mg8_3 O1_2 1_555 1_555
O1_2 Mg9 1_555 1_555
Mg8 O4_2 1_555 1_555
O4_2 Mg10 1_555 1_555
O5_3 Mg8_3 1_555 1_555
Mg10 O5_3 1_555 1_555
O5_4 Mg8_2 1_555 1_555
Mg9 O5_4 1_555 1_555
C2_8 H1_8 1_555 1_555
C7_8 H3_8 1_555 1_555
C2_9 H1_9 1_555 1_555
C7_9 H3_9 1_555 1_555

#END
