
###############################################################################
#
# This file contains modified crystal structure data generated from the
# MOF subset of the Cambridge Structural Database (CSD) v543 
# hosted by the Cambridge Crystallographic Data Centre (CCDC).
#
# This work is licensed under the Creative Commons
# Attribution-NonCommercial-ShareAlike 4.0 International License.
# To view a copy of this license, visit
# http://creativecommons.org/licenses/by-nc-sa/4.0/
# or send a letter to
# Creative Commons, PO Box 1866, Mountain View, CA 94042, USA.
#
# CIF created using the CSD Python API on 29 September 2022
# The structure has been converted into the P1 space group
# The structure has a 3D framework
# The original CSD entry HAGCOL is in the monoclinic crystal system
# The framework has been calculated to contain at least 10.0% void space
# The void calculation uses a probe of radius 1.32A, grid spacing 0.4
# The framework is charged, counterions have been retained in the structure
#
###############################################################################

data_HAGCOL
_chemical_formula_moiety         '(C84 H80 Ca6 Cu15 O98 1+)n'
_symmetry_cell_setting           triclinic
_symmetry_space_group_name_H-M   'P 1'
_symmetry_Int_Tables_number      1
_space_group_name_Hall           'P 1'
loop_
_symmetry_equiv_pos_site_id
_symmetry_equiv_pos_as_xyz
1 x,y,z
_cell_length_a                   15.7947(8)
_cell_length_b                   21.1085(9)
_cell_length_c                   11.6587(6)
_cell_angle_alpha                90
_cell_angle_beta                 106.361(5)
_cell_angle_gamma                90
_cell_volume                     3729.64
loop_
_atom_site_label
_atom_site_type_symbol
_atom_site_fract_x
_atom_site_fract_y
_atom_site_fract_z
Cu18 Cu 0.25059(3) 0.68128(2) 0.01140(4)
Cu21 Cu 0.25059(3) 0.31872(2) 0.01140(4)
O38 O 0.0281(2) 0.74910(14) 0.2919(3)
O20 O 0.16345(18) 0.61577(14) 0.9960(3)
O21 O 0.03376(19) 0.65918(14) 0.8905(3)
C24 C 0.0727(4) 0.5000 0.9562(5)
H7 H 0.1216 0.5000 0.9266
C25 C 0.0807(2) 0.61679(17) 0.9530(3)
C26 C 0.0368(2) 0.55732(17) 0.9780(4)
O22 O 0.16345(18) 0.38423(14) 0.9960(3)
O23 O 0.03376(19) 0.34082(14) 0.8905(3)
C27 C 0.0807(2) 0.38321(17) 0.9530(3)
C28 C 0.0368(2) 0.44268(17) 0.9780(4)
Cu10 Cu 0.06651(3) 0.24857(2) 0.85473(4)
Cu16 Cu 0.06651(3) 0.75143(2) 0.85473(4)
O6 O 0.66767(18) 0.61603(14) 0.0030(3)
O7 O 0.83655(18) 0.61577(14) 0.0040(3)
O8 O 0.96624(19) 0.65918(14) 0.1095(3)
H1 H 0.660(5) 0.746(3) 0.049(7)
C1 C 0.9273(4) 0.5000 0.0438(5)
H2 H 0.8784 0.5000 0.0734
C10 C 0.9193(2) 0.61679(17) 0.0470(3)
C11 C 0.9632(2) 0.55732(17) 0.0220(4)
O14 O 0.46106(19) 0.65825(14) 0.1064(3)
C17 C 0.4158(2) 0.61673(17) 0.0414(4)
C18 C 0.4608(2) 0.55772(17) 0.0167(4)
C19 C 0.4224(4) 0.5000 0.0324(5)
H6 H 0.3700 0.5000 0.0538
O16 O 0.46106(19) 0.34175(14) 0.1064(3)
C20 C 0.4158(2) 0.38327(17) 0.0414(4)
C21 C 0.4608(2) 0.44228(17) 0.0167(4)
O19 O 0.66767(18) 0.38397(14) 0.0030(3)
O24 O 0.83655(18) 0.38423(14) 0.0040(3)
O25 O 0.96624(19) 0.34082(14) 0.1095(3)
C29 C 0.9193(2) 0.38321(17) 0.0470(3)
C30 C 0.9632(2) 0.44268(17) 0.0220(4)
H11 H 0.660(5) 0.254(3) 0.049(7)
Cu7 Cu 0.93349(3) 0.75143(2) 0.14527(4)
Cu8 Cu 0.75059(3) 0.81872(2) 0.01140(4)
O36 O 0.83345(18) 0.75078(11) 0.0061(3)
Cu9 Cu 0.43349(3) 0.74857(2) 0.14527(4)
Cu11 Cu 0.93349(3) 0.24857(2) 0.14527(4)
Cu12 Cu 0.43349(3) 0.25143(2) 0.14527(4)
Cu19 Cu 0.75059(3) 0.18128(2) 0.01140(4)
O40 O 0.8444(2) 0.72530(18) 0.2491(3)
O42 O 0.7713(2) 0.81707(15) 0.2180(3)
O44 O 0.96106(19) 0.84175(14) 0.1064(3)
O52 O 0.83345(18) 0.24922(11) 0.0061(3)
Cu1 Cu 0.56651(3) 0.74857(2) 0.85473(4)
Cu2 Cu 0.74941(3) 0.68128(2) 0.98860(4)
O1 O 0.3781(3) 0.7311(2) 0.8135(3)
O2 O 0.4719(2) 0.75090(14) 0.7081(3)
O3 O 0.3444(2) 0.77470(18) 0.2491(3)
O4 O 0.2713(2) 0.68293(15) 0.2180(3)
O5 O 0.53894(19) 0.65825(14) 0.8936(3)
O9 O 0.66655(18) 0.74922(11) 0.9939(3)
C2 C 0.3945(3) 0.74373(19) 0.7181(4)
C3 C 0.3195(3) 0.74865(18) 0.6061(4)
C4 C 0.3361(3) 0.7435(2) 0.4952(4)
H3 H 0.3940 0.7393 0.4918
C5 C 0.2675(3) 0.74449(19) 0.3889(3)
C6 C 0.2945(3) 0.7336(2) 0.2749(3)
C7 C 0.5842(2) 0.61673(17) 0.9586(4)
C8 C 0.5392(2) 0.55772(17) 0.9833(4)
C9 C 0.5776(4) 0.5000 0.9676(5)
H4 H 0.6300 0.5000 0.9462
O10 O 0.1219(3) 0.7689(2) 0.1865(3)
O12 O 0.1556(2) 0.72530(18) 0.7509(3)
O13 O 0.2287(2) 0.81707(15) 0.7820(3)
C12 C 0.1055(3) 0.75627(19) 0.2819(4)
C13 C 0.1805(3) 0.75135(18) 0.3939(4)
C14 C 0.1639(3) 0.7565(2) 0.5048(4)
H5 H 0.1060 0.7607 0.5082
C15 C 0.2325(3) 0.75551(19) 0.6111(3)
C16 C 0.2055(3) 0.7664(2) 0.7251(3)
O15 O 0.33233(18) 0.61603(14) 0.9970(3)
O17 O 0.33233(18) 0.38397(14) 0.9970(3)
O18 O 0.53894(19) 0.34175(14) 0.8936(3)
C22 C 0.5842(2) 0.38327(17) 0.9586(4)
C23 C 0.5392(2) 0.44228(17) 0.9833(4)
O26 O 0.6219(3) 0.7311(2) 0.1865(3)
O27 O 0.5281(2) 0.75090(14) 0.2919(3)
O28 O 0.6556(2) 0.77470(18) 0.7509(3)
O29 O 0.7287(2) 0.68293(15) 0.7820(3)
O30 O 0.33345(18) 0.74922(11) 0.0061(3)
C31 C 0.6055(3) 0.74373(19) 0.2819(4)
C32 C 0.6805(3) 0.74865(18) 0.3939(4)
C33 C 0.6639(3) 0.7435(2) 0.5048(4)
H9 H 0.6060 0.7393 0.5082
C34 C 0.7325(3) 0.74449(19) 0.6111(3)
C35 C 0.7055(3) 0.7336(2) 0.7251(3)
O31 O 0.8781(3) 0.7689(2) 0.8135(3)
O32 O 0.9719(2) 0.74910(14) 0.7081(3)
C36 C 0.8945(3) 0.75627(19) 0.7181(4)
C37 C 0.8195(3) 0.75135(18) 0.6061(4)
C38 C 0.8361(3) 0.7565(2) 0.4952(4)
H10 H 0.8940 0.7607 0.4918
C39 C 0.7675(3) 0.75551(19) 0.3889(3)
C40 C 0.7945(3) 0.7664(2) 0.2749(3)
Cu5 Cu 0.56651(3) 0.25143(2) 0.85473(4)
Cu6 Cu 0.74941(3) 0.31872(2) 0.98860(4)
O35 O 0.66655(18) 0.25078(11) 0.9939(3)
H12 H 0.840(5) 0.754(3) 0.951(7)
Cu24 Cu 0.24941(3) 0.81872(2) 0.98860(4)
O37 O 0.4719(2) 0.24910(14) 0.7081(3)
O39 O 0.6556(2) 0.22530(18) 0.7509(3)
O41 O 0.7287(2) 0.31707(15) 0.7820(3)
O46 O 0.83233(18) 0.88397(14) 0.9970(3)
O48 O 0.66345(18) 0.88423(14) 0.9960(3)
O49 O 0.53376(19) 0.15918(14) 0.8905(3)
O50 O 0.53376(19) 0.84082(14) 0.8905(3)
O51 O 0.46624(19) 0.84082(14) 0.1095(3)
H8 H 0.340(5) 0.746(3) 0.951(7)
O53 O 0.16655(18) 0.75078(11) 0.9939(3)
O35_2 O 0.33345(18) 0.25078(11) 0.0061(3)
H12_2 H 0.160(5) 0.754(3) 0.049(7)
O37_2 O 0.5281(2) 0.24910(14) 0.2919(3)
O39_2 O 0.3444(2) 0.22530(18) 0.2491(3)
O41_2 O 0.2713(2) 0.31707(15) 0.2180(3)
O46_2 O 0.16767(18) 0.88397(14) 0.0030(3)
O48_2 O 0.33655(18) 0.88423(14) 0.0040(3)
O49_2 O 0.46624(19) 0.15918(14) 0.1095(3)
H11_2 H 0.340(5) 0.254(3) 0.951(7)
Cu19_2 Cu 0.24941(3) 0.18128(2) 0.98860(4)
O44_2 O 0.03894(19) 0.84175(14) 0.8936(3)
O52_2 O 0.16655(18) 0.24922(11) 0.9939(3)
O6_2 O 0.16767(18) 0.11603(14) 0.0030(3)
O7_2 O 0.33655(18) 0.11577(14) 0.0040(3)
H1_2 H 0.160(5) 0.246(3) 0.049(7)
C1_2 C 0.4273(4) 0.0000 0.0438(5)
H2_2 H 0.3784 0.0000 0.0734
C10_2 C 0.4193(2) 0.11679(17) 0.0470(3)
C11_2 C 0.4632(2) 0.05732(17) 0.0220(4)
O5_2 O 0.03894(19) 0.15825(14) 0.8936(3)
C7_2 C 0.0842(2) 0.11673(17) 0.9586(4)
C8_2 C 0.0392(2) 0.05772(17) 0.9833(4)
C9_2 C 0.0776(4) 0.0000 0.9676(5)
H4_2 H 0.1300 0.0000 0.9462
O20_2 O 0.66345(18) 0.11577(14) 0.9960(3)
C24_2 C 0.5727(4) 0.0000 0.9562(5)
H7_2 H 0.6216 0.0000 0.9266
C25_2 C 0.5807(2) 0.11679(17) 0.9530(3)
C26_2 C 0.5368(2) 0.05732(17) 0.9780(4)
O26_2 O 0.1219(3) 0.2311(2) 0.1865(3)
O27_2 O 0.0281(2) 0.25090(14) 0.2919(3)
O28_2 O 0.1556(2) 0.27470(18) 0.7509(3)
O29_2 O 0.2287(2) 0.18293(15) 0.7820(3)
C31_2 C 0.1055(3) 0.24373(19) 0.2819(4)
C32_2 C 0.1805(3) 0.24865(18) 0.3939(4)
C33_2 C 0.1639(3) 0.2435(2) 0.5048(4)
H9_2 H 0.1060 0.2393 0.5082
C34_2 C 0.2325(3) 0.24449(19) 0.6111(3)
C35_2 C 0.2055(3) 0.2336(2) 0.7251(3)
O31_2 O 0.3781(3) 0.2689(2) 0.8135(3)
C36_2 C 0.3945(3) 0.25627(19) 0.7181(4)
C37_2 C 0.3195(3) 0.25135(18) 0.6061(4)
C38_2 C 0.3361(3) 0.2565(2) 0.4952(4)
H10_2 H 0.3940 0.2607 0.4918
C39_2 C 0.2675(3) 0.25551(19) 0.3889(3)
C40_2 C 0.2945(3) 0.2664(2) 0.2749(3)
C1_3 C 0.4273(4) 1.0000 0.0438(5)
H2_3 H 0.3784 1.0000 0.0734
C29_2 C 0.4193(2) 0.88321(17) 0.0470(3)
C30_2 C 0.4632(2) 0.94268(17) 0.0220(4)
C9_3 C 0.0776(4) 1.0000 0.9676(5)
H4_3 H 0.1300 1.0000 0.9462
C22_2 C 0.0842(2) 0.88327(17) 0.9586(4)
C23_2 C 0.0392(2) 0.94228(17) 0.9833(4)
C24_3 C 0.5727(4) 1.0000 0.9562(5)
H7_3 H 0.6216 1.0000 0.9266
C27_2 C 0.5807(2) 0.88321(17) 0.9530(3)
C28_2 C 0.5368(2) 0.94268(17) 0.9780(4)
O14_2 O 0.96106(19) 0.15825(14) 0.1064(3)
C17_2 C 0.9158(2) 0.11673(17) 0.0414(4)
C18_2 C 0.9608(2) 0.05772(17) 0.0167(4)
C19_2 C 0.9224(4) 0.0000 0.0324(5)
H6_2 H 0.8700 0.0000 0.0538
O1_2 O 0.8781(3) 0.2311(2) 0.8135(3)
O2_2 O 0.9719(2) 0.25090(14) 0.7081(3)
O3_2 O 0.8444(2) 0.27470(18) 0.2491(3)
O4_2 O 0.7713(2) 0.18293(15) 0.2180(3)
C2_2 C 0.8945(3) 0.24373(19) 0.7181(4)
C3_2 C 0.8195(3) 0.24865(18) 0.6061(4)
C4_2 C 0.8361(3) 0.2435(2) 0.4952(4)
H3_2 H 0.8940 0.2393 0.4918
C5_2 C 0.7675(3) 0.24449(19) 0.3889(3)
C6_2 C 0.7945(3) 0.2336(2) 0.2749(3)
O10_2 O 0.6219(3) 0.2689(2) 0.1865(3)
C12_2 C 0.6055(3) 0.25627(19) 0.2819(4)
C13_2 C 0.6805(3) 0.25135(18) 0.3939(4)
C14_2 C 0.6639(3) 0.2565(2) 0.5048(4)
H5_2 H 0.6060 0.2607 0.5082
C15_2 C 0.7325(3) 0.25551(19) 0.6111(3)
C16_2 C 0.7055(3) 0.2664(2) 0.7251(3)
O15_2 O 0.83233(18) 0.11603(14) 0.9970(3)
H8_2 H 0.840(5) 0.246(3) 0.951(7)
C19_3 C 0.9224(4) 1.0000 0.0324(5)
H6_3 H 0.8700 1.0000 0.0538
C20_2 C 0.9158(2) 0.88327(17) 0.0414(4)
C21_2 C 0.9608(2) 0.94228(17) 0.0167(4)
H16 H 0.0070 0.5000 0.7339
Ca1 Ca 0.81142(13) 0.5000 0.64148(17)
O54 O 0.7608(5) 0.5000 0.8260(6)
H13 H 0.7940 0.5242 0.8785
O55 O 0.8552(3) 0.6044(2) 0.7330(5)
H14 H 0.8983 0.6184 0.7102
H15 H 0.8759 0.6001 0.8083
O56 O 0.9661(5) 0.5000 0.6684(8)
H17 H 0.9931 0.5000 0.6147
O57 O 0.7537(9) 0.5820(8) 0.5035(12)
H18 H 0.7247 0.6158 0.5146
H19 H 0.7569 0.5855 0.4300
H20 H 0.7940 0.4758 0.8785
O58 O 0.8552(3) 0.3956(2) 0.7330(5)
H21 H 0.8983 0.3816 0.7102
H22 H 0.8759 0.3999 0.8083
O59 O 0.7537(9) 0.4180(8) 0.5035(12)
H23 H 0.7247 0.3842 0.5146
H24 H 0.7569 0.4145 0.4300
Ca1_2 Ca 0.18858(13) 0.5000 0.35852(17)
O54_2 O 0.2392(5) 0.5000 0.1740(6)
H13_2 H 0.2060 0.5242 0.1215
O55_2 O 0.1448(3) 0.6044(2) 0.2670(5)
H14_2 H 0.1017 0.6184 0.2898
H15_2 H 0.1241 0.6001 0.1917
O56_2 O 0.0339(5) 0.5000 0.3316(8)
H17_2 H 0.0069 0.5000 0.3853
O57_2 O 0.2463(9) 0.5820(8) 0.4965(12)
H18_2 H 0.2753 0.6158 0.4854
H19_2 H 0.2431 0.5855 0.5700
H20_2 H 0.2060 0.4758 0.1215
O58_2 O 0.1448(3) 0.3956(2) 0.2670(5)
H21_2 H 0.1017 0.3816 0.2898
H22_2 H 0.1241 0.3999 0.1917
O59_2 O 0.2463(9) 0.4180(8) 0.4965(12)
H23_2 H 0.2753 0.3842 0.4854
H24_2 H 0.2431 0.4145 0.5700
H16_2 H 0.9930 0.5000 0.2661
Ca1_3 Ca 0.31142(13) 0.0000 0.64148(17)
O54_3 O 0.2608(5) 0.0000 0.8260(6)
H13_3 H 0.2940 0.0242 0.8785
O55_3 O 0.3552(3) 0.1044(2) 0.7330(5)
H14_3 H 0.3983 0.1184 0.7102
H15_3 H 0.3759 0.1001 0.8083
O56_3 O 0.4661(5) 0.0000 0.6684(8)
H16_3 H 0.5070 0.0000 0.7339
H17_3 H 0.4931 0.0000 0.6147
O57_3 O 0.2537(9) 0.0820(8) 0.5035(12)
H18_3 H 0.2247 0.1158 0.5146
H19_3 H 0.2569 0.0855 0.4300
Ca1_4 Ca 0.31142(13) 1.0000 0.64148(17)
O54_4 O 0.2608(5) 1.0000 0.8260(6)
O56_4 O 0.4661(5) 1.0000 0.6684(8)
H16_4 H 0.5070 1.0000 0.7339
H17_4 H 0.4931 1.0000 0.6147
H20_3 H 0.2940 0.9758 0.8785
O58_3 O 0.3552(3) 0.8956(2) 0.7330(5)
H21_3 H 0.3983 0.8816 0.7102
H22_3 H 0.3759 0.8999 0.8083
O59_3 O 0.2537(9) 0.9180(8) 0.5035(12)
H23_3 H 0.2247 0.8842 0.5146
H24_3 H 0.2569 0.9145 0.4300
Ca1_5 Ca 0.68858(13) 0.0000 0.35852(17)
O54_5 O 0.7392(5) 0.0000 0.1740(6)
H13_4 H 0.7060 0.0242 0.1215
O55_4 O 0.6448(3) 0.1044(2) 0.2670(5)
H14_4 H 0.6017 0.1184 0.2898
H15_4 H 0.6241 0.1001 0.1917
O56_5 O 0.5339(5) 0.0000 0.3316(8)
H16_5 H 0.4930 0.0000 0.2661
H17_5 H 0.5069 0.0000 0.3853
O57_4 O 0.7463(9) 0.0820(8) 0.4965(12)
H18_4 H 0.7753 0.1158 0.4854
H19_4 H 0.7431 0.0855 0.5700
Ca1_6 Ca 0.68858(13) 1.0000 0.35852(17)
O54_6 O 0.7392(5) 1.0000 0.1740(6)
O56_6 O 0.5339(5) 1.0000 0.3316(8)
H16_6 H 0.4930 1.0000 0.2661
H17_6 H 0.5069 1.0000 0.3853
H20_4 H 0.7060 0.9758 0.1215
O58_4 O 0.6448(3) 0.8956(2) 0.2670(5)
H21_4 H 0.6017 0.8816 0.2898
H22_4 H 0.6241 0.8999 0.1917
O59_4 O 0.7463(9) 0.9180(8) 0.4965(12)
H23_4 H 0.7753 0.8842 0.4854
H24_4 H 0.7431 0.9145 0.5700
loop_
_geom_bond_atom_site_label_1
_geom_bond_atom_site_label_2
_geom_bond_site_symmetry_1
_geom_bond_site_symmetry_2
O20 C25 1_555 1_555
O21 C25 1_555 1_555
C24 H7 1_555 1_555
C25 C26 1_555 1_555
O22 C27 1_555 1_555
O23 C27 1_555 1_555
C27 C28 1_555 1_555
C28 C24 1_555 1_555
Cu10 O23 1_555 1_555
Cu16 O21 1_555 1_555
C24 C26 1_555 1_555
O8 C10 1_555 1_555
C1 H2 1_555 1_555
C10 O7 1_555 1_555
C11 C1 1_555 1_555
O14 C17 1_555 1_555
C17 C18 1_555 1_555
C19 C18 1_555 1_555
H6 C19 1_555 1_555
O16 C20 1_555 1_555
C20 C21 1_555 1_555
C21 C19 1_555 1_555
O24 C29 1_555 1_555
O25 C29 1_555 1_555
C29 C30 1_555 1_555
C30 C1 1_555 1_555
Cu7 O8 1_555 1_555
Cu9 O14 1_555 1_555
Cu11 O25 1_555 1_555
Cu12 O16 1_555 1_555
O40 Cu7 1_555 1_555
O42 Cu8 1_555 1_555
O44 Cu7 1_555 1_555
C10 C11 1_555 1_555
Cu7 O36 1_555 1_555
Cu8 O36 1_555 1_555
Cu11 O52 1_555 1_555
Cu19 O52 1_555 1_555
Cu1 O2 1_555 1_555
O1 C2 1_555 1_555
O2 C2 1_555 1_555
O3 C6 1_555 1_555
O4 C6 1_555 1_555
O5 Cu1 1_555 1_555
O9 Cu1 1_555 1_555
C2 C3 1_555 1_555
C3 C4 1_555 1_555
C4 H3 1_555 1_555
C5 C4 1_555 1_555
C6 C5 1_555 1_555
C7 O5 1_555 1_555
C8 C7 1_555 1_555
C9 C8 1_555 1_555
H4 C9 1_555 1_555
O10 C12 1_555 1_555
O38 C12 1_555 1_555
O12 C16 1_555 1_555
O13 C16 1_555 1_555
C12 C13 1_555 1_555
C13 C5 1_555 1_555
C14 C13 1_555 1_555
H5 C14 1_555 1_555
C15 C3 1_555 1_555
C16 C15 1_555 1_555
O18 C22 1_555 1_555
C22 C23 1_555 1_555
C23 C9 1_555 1_555
Cu9 O3 1_555 1_555
Cu18 O4 1_555 1_555
O26 C31 1_555 1_555
O27 Cu9 1_555 1_555
O28 Cu1 1_555 1_555
O29 Cu2 1_555 1_555
O30 Cu9 1_555 1_555
C31 O27 1_555 1_555
C32 C31 1_555 1_555
C33 C32 1_555 1_555
H9 C33 1_555 1_555
C34 C33 1_555 1_555
C35 O28 1_555 1_555
O31 C36 1_555 1_555
O32 C36 1_555 1_555
O40 C40 1_555 1_555
O42 C40 1_555 1_555
C36 C37 1_555 1_555
C37 C34 1_555 1_555
C38 C37 1_555 1_555
H10 C38 1_555 1_555
C39 C32 1_555 1_555
C40 C39 1_555 1_555
Cu5 O18 1_555 1_555
O35 Cu5 1_555 1_555
Cu16 O12 1_555 1_555
Cu24 O13 1_555 1_555
O37 Cu5 1_555 1_555
O39 Cu5 1_555 1_555
O41 Cu6 1_555 1_555
O49 Cu5 1_555 1_555
O50 Cu1 1_555 1_555
O51 Cu9 1_555 1_555
Cu2 O9 1_555 1_555
C14 C15 1_555 1_555
Cu18 O30 1_555 1_555
O29 C35 1_555 1_555
C34 C35 1_555 1_555
C38 C39 1_555 1_555
Cu6 O35 1_555 1_555
Cu24 O53 1_555 1_555
O35_2 Cu12 1_555 1_555
O37_2 Cu12 1_555 1_555
O39_2 Cu12 1_555 1_555
O41_2 Cu21 1_555 1_555
O49_2 Cu12 1_555 1_555
Cu21 O35_2 1_555 1_555
O44_2 Cu16 1_555 1_555
Cu16 O53 1_555 1_555
Cu10 O52_2 1_555 1_555
Cu19_2 O52_2 1_555 1_555
O49_2 C10_2 1_555 1_555
C1_2 H2_2 1_555 1_555
C10_2 O7_2 1_555 1_555
C11_2 C1_2 1_555 1_555
C10_2 C11_2 1_555 1_555
O5_2 Cu10 1_555 1_555
C7_2 O5_2 1_555 1_555
C8_2 C7_2 1_555 1_555
C9_2 C8_2 1_555 1_555
H4_2 C9_2 1_555 1_555
O20_2 C25_2 1_555 1_555
O49 C25_2 1_555 1_555
C24_2 H7_2 1_555 1_555
C25_2 C26_2 1_555 1_555
O26_2 C31_2 1_555 1_555
O28_2 Cu10 1_555 1_555
O29_2 Cu19_2 1_555 1_555
C31_2 O27_2 1_555 1_555
C32_2 C31_2 1_555 1_555
C33_2 C32_2 1_555 1_555
H9_2 C33_2 1_555 1_555
C34_2 C33_2 1_555 1_555
C35_2 O28_2 1_555 1_555
O31_2 C36_2 1_555 1_555
O37 C36_2 1_555 1_555
O39_2 C40_2 1_555 1_555
O41_2 C40_2 1_555 1_555
C36_2 C37_2 1_555 1_555
C37_2 C34_2 1_555 1_555
C38_2 C37_2 1_555 1_555
H10_2 C38_2 1_555 1_555
C39_2 C32_2 1_555 1_555
C40_2 C39_2 1_555 1_555
C24_2 C26_2 1_555 1_555
O29_2 C35_2 1_555 1_555
C34_2 C35_2 1_555 1_555
C38_2 C39_2 1_555 1_555
C1_3 H2_3 1_555 1_555
O48_2 C29_2 1_555 1_555
O51 C29_2 1_555 1_555
C29_2 C30_2 1_555 1_555
C30_2 C1_3 1_555 1_555
H4_3 C9_3 1_555 1_555
O44_2 C22_2 1_555 1_555
C22_2 C23_2 1_555 1_555
C23_2 C9_3 1_555 1_555
C24_3 H7_3 1_555 1_555
O48 C27_2 1_555 1_555
O50 C27_2 1_555 1_555
C27_2 C28_2 1_555 1_555
C28_2 C24_3 1_555 1_555
O14_2 C17_2 1_555 1_555
C17_2 C18_2 1_555 1_555
C19_2 C18_2 1_555 1_555
H6_2 C19_2 1_555 1_555
Cu11 O14_2 1_555 1_555
O1_2 C2_2 1_555 1_555
O2_2 C2_2 1_555 1_555
O3_2 C6_2 1_555 1_555
O4_2 C6_2 1_555 1_555
C2_2 C3_2 1_555 1_555
C3_2 C4_2 1_555 1_555
C4_2 H3_2 1_555 1_555
C5_2 C4_2 1_555 1_555
C6_2 C5_2 1_555 1_555
O10_2 C12_2 1_555 1_555
O37_2 C12_2 1_555 1_555
O39 C16_2 1_555 1_555
O41 C16_2 1_555 1_555
C12_2 C13_2 1_555 1_555
C13_2 C5_2 1_555 1_555
C14_2 C13_2 1_555 1_555
H5_2 C14_2 1_555 1_555
C15_2 C3_2 1_555 1_555
C16_2 C15_2 1_555 1_555
Cu11 O3_2 1_555 1_555
Cu19 O4_2 1_555 1_555
C14_2 C15_2 1_555 1_555
H6_3 C19_3 1_555 1_555
O44 C20_2 1_555 1_555
C20_2 C21_2 1_555 1_555
C21_2 C19_3 1_555 1_555
Ca1 O54 1_555 1_555
O54 H13 1_555 1_555
O55 Ca1 1_555 1_555
H14 O55 1_555 1_555
H15 O55 1_555 1_555
O56 Ca1 1_555 1_555
H17 O56 1_555 1_555
O57 Ca1 1_555 1_555
H18 O57 1_555 1_555
H19 O57 1_555 1_555
H20 O54 1_555 1_555
O58 Ca1 1_555 1_555
H21 O58 1_555 1_555
H22 O58 1_555 1_555
O59 Ca1 1_555 1_555
H23 O59 1_555 1_555
H24 O59 1_555 1_555
Ca1_2 O54_2 1_555 1_555
O54_2 H13_2 1_555 1_555
O55_2 Ca1_2 1_555 1_555
H14_2 O55_2 1_555 1_555
H15_2 O55_2 1_555 1_555
O56_2 Ca1_2 1_555 1_555
H17_2 O56_2 1_555 1_555
O57_2 Ca1_2 1_555 1_555
H18_2 O57_2 1_555 1_555
H19_2 O57_2 1_555 1_555
H20_2 O54_2 1_555 1_555
O58_2 Ca1_2 1_555 1_555
H21_2 O58_2 1_555 1_555
H22_2 O58_2 1_555 1_555
O59_2 Ca1_2 1_555 1_555
H23_2 O59_2 1_555 1_555
H24_2 O59_2 1_555 1_555
Ca1_3 O54_3 1_555 1_555
O54_3 H13_3 1_555 1_555
O55_3 Ca1_3 1_555 1_555
H14_3 O55_3 1_555 1_555
H15_3 O55_3 1_555 1_555
O56_3 Ca1_3 1_555 1_555
H16_3 O56_3 1_555 1_555
H17_3 O56_3 1_555 1_555
O57_3 Ca1_3 1_555 1_555
H18_3 O57_3 1_555 1_555
H19_3 O57_3 1_555 1_555
Ca1_4 O54_4 1_555 1_555
O56_4 Ca1_4 1_555 1_555
H16_4 O56_4 1_555 1_555
H17_4 O56_4 1_555 1_555
H20_3 O54_4 1_555 1_555
O58_3 Ca1_4 1_555 1_555
H21_3 O58_3 1_555 1_555
H22_3 O58_3 1_555 1_555
O59_3 Ca1_4 1_555 1_555
H23_3 O59_3 1_555 1_555
H24_3 O59_3 1_555 1_555
Ca1_5 O54_5 1_555 1_555
O54_5 H13_4 1_555 1_555
O55_4 Ca1_5 1_555 1_555
H14_4 O55_4 1_555 1_555
H15_4 O55_4 1_555 1_555
O56_5 Ca1_5 1_555 1_555
H16_5 O56_5 1_555 1_555
H17_5 O56_5 1_555 1_555
O57_4 Ca1_5 1_555 1_555
H18_4 O57_4 1_555 1_555
H19_4 O57_4 1_555 1_555
Ca1_6 O54_6 1_555 1_555
O56_6 Ca1_6 1_555 1_555
H16_6 O56_6 1_555 1_555
H17_6 O56_6 1_555 1_555
H20_4 O54_6 1_555 1_555
O58_4 Ca1_6 1_555 1_555
H21_4 O58_4 1_555 1_555
H22_4 O58_4 1_555 1_555
O59_4 Ca1_6 1_555 1_555
H23_4 O59_4 1_555 1_555
H24_4 O59_4 1_555 1_555

#END
