
###############################################################################
#
# This file contains modified crystal structure data generated from the
# MOF subset of the Cambridge Structural Database (CSD) v543 
# hosted by the Cambridge Crystallographic Data Centre (CCDC).
#
# This work is licensed under the Creative Commons
# Attribution-NonCommercial-ShareAlike 4.0 International License.
# To view a copy of this license, visit
# http://creativecommons.org/licenses/by-nc-sa/4.0/
# or send a letter to
# Creative Commons, PO Box 1866, Mountain View, CA 94042, USA.
#
# CIF created using the CSD Python API on 29 September 2022
# The structure has been converted into the P1 space group
# The structure has a 3D framework
# The original CSD entry HAHCUR is in the monoclinic crystal system
# The framework has been calculated to contain at least 10.0% void space
# The void calculation uses a probe of radius 1.32A, grid spacing 0.4
#
###############################################################################

data_HAHCUR
_chemical_formula_moiety         '(C140 H80 N24 Ni8 O32)n'
_symmetry_cell_setting           triclinic
_symmetry_space_group_name_H-M   'P 1'
_symmetry_Int_Tables_number      1
_space_group_name_Hall           'P 1'
loop_
_symmetry_equiv_pos_site_id
_symmetry_equiv_pos_as_xyz
1 x,y,z
_cell_length_a                   19.7500(19)
_cell_length_b                   22.1947(15)
_cell_length_c                   11.6334(11)
_cell_angle_alpha                90
_cell_angle_beta                 116.797(5)
_cell_angle_gamma                90
_cell_volume                     4551.81
loop_
_atom_site_label
_atom_site_type_symbol
_atom_site_fract_x
_atom_site_fract_y
_atom_site_fract_z
N7 N 0.21753(18) 0.13819(16) 0.0728(3)
Ni1 Ni 0.18730(3) 0.12067(2) 0.88351(4)
O1 O 0.18829(17) 0.12079(13) 0.6990(3)
O2 O 0.26629(17) 0.17700(14) 0.8602(3)
O3 O 0.26418(15) 0.05031(13) 0.9350(3)
O4 O 0.11417(15) 0.05005(13) 0.8597(3)
N2 N 0.3591(2) 0.20858(18) 0.5277(3)
N3 N 0.59612(19) 0.32094(16) 0.8119(3)
C1 C 0.1722(3) 0.1290(2) 0.1282(4)
H1 H 0.1239 0.1137 0.0783
C2 C 0.1940(3) 0.1412(3) 0.2567(4)
H2 H 0.1606 0.1343 0.2914
C3 C 0.2666(2) 0.1641(2) 0.3343(4)
C4 C 0.3124(3) 0.1743(3) 0.2749(4)
H3 H 0.3607 0.1904 0.3214
C5 C 0.2861(3) 0.1604(3) 0.1461(4)
H4 H 0.3182 0.1670 0.1085
C6 C 0.2938(2) 0.1780(2) 0.4725(4)
C7 C 0.2545(2) 0.1596(2) 0.5408(4)
H5 H 0.2093 0.1382 0.5002
C8 C 0.2843(2) 0.1741(2) 0.6702(4)
C9 C 0.3525(2) 0.2047(2) 0.7284(4)
H6 H 0.3739 0.2142 0.8155
C10 C 0.3889(2) 0.2211(2) 0.6541(4)
C11 C 0.4612(2) 0.2543(2) 0.7095(4)
C12 C 0.5197(3) 0.2417(2) 0.8304(4)
H7 H 0.5144 0.2108 0.8800
C13 C 0.5854(3) 0.2750(2) 0.8765(4)
H8 H 0.6244 0.2651 0.9567
C14 C 0.5396(3) 0.3333(2) 0.6941(4)
H9 H 0.5460 0.3649 0.6475
C15 C 0.4726(3) 0.3010(2) 0.6395(4)
H10 H 0.4355 0.3103 0.5571
C16 C 0.2436(2) 0.15593(19) 0.7477(4)
C17 C 0.1461(3) -0.0000 0.8758(5)
C18 C 0.2332(3) 0.0000 0.9195(5)
Ni6 Ni 0.68730(3) 0.37933(2) 0.88351(4)
N10 N 0.09612(19) 0.17906(16) 0.8119(3)
N8 N 0.21753(18) 0.86181(16) 0.0728(3)
C17_2 C 0.1461(3) 1.0000 0.8758(5)
C18_2 C 0.2332(3) 1.0000 0.9195(5)
O5 O 0.26418(15) 0.94969(13) 0.9350(3)
O6 O 0.11417(15) 0.94995(13) 0.8597(3)
Ni2 Ni 0.18730(3) 0.87933(2) 0.88351(4)
O7 O 0.18829(17) 0.87921(13) 0.6990(3)
O8 O 0.26629(17) 0.82300(14) 0.8602(3)
N5 N 0.3591(2) 0.79142(18) 0.5277(3)
N6 N 0.59612(19) 0.67906(16) 0.8119(3)
C19 C 0.1722(3) 0.8710(2) 0.1282(4)
H11 H 0.1239 0.8863 0.0783
C20 C 0.1940(3) 0.8588(3) 0.2567(4)
H12 H 0.1606 0.8657 0.2914
C21 C 0.2666(2) 0.8359(2) 0.3343(4)
C22 C 0.3124(3) 0.8257(3) 0.2749(4)
H13 H 0.3607 0.8096 0.3214
C23 C 0.2861(3) 0.8396(3) 0.1461(4)
H14 H 0.3182 0.8330 0.1085
C24 C 0.2938(2) 0.8220(2) 0.4725(4)
C25 C 0.2545(2) 0.8404(2) 0.5408(4)
H15 H 0.2093 0.8618 0.5002
C26 C 0.2843(2) 0.8259(2) 0.6702(4)
C27 C 0.3525(2) 0.7953(2) 0.7284(4)
H16 H 0.3739 0.7858 0.8155
C28 C 0.3889(2) 0.7789(2) 0.6541(4)
C29 C 0.4612(2) 0.7457(2) 0.7095(4)
C30 C 0.5197(3) 0.7583(2) 0.8304(4)
H17 H 0.5144 0.7892 0.8800
C31 C 0.5854(3) 0.7250(2) 0.8765(4)
H18 H 0.6244 0.7349 0.9567
C32 C 0.5396(3) 0.6667(2) 0.6941(4)
H19 H 0.5460 0.6351 0.6475
C33 C 0.4726(3) 0.6990(2) 0.6395(4)
H20 H 0.4355 0.6897 0.5571
C34 C 0.2436(2) 0.84407(19) 0.7477(4)
Ni4 Ni 0.68730(3) 0.62067(2) 0.88351(4)
N9 N 0.09612(19) 0.82094(16) 0.8119(3)
C12_2 C 0.0197(3) 0.7417(2) 0.8304(4)
H7_2 H 0.0144 0.7108 0.8800
C13_2 C 0.0854(3) 0.7750(2) 0.8765(4)
H8_2 H 0.1244 0.7651 0.9567
C14_2 C 0.0396(3) 0.8333(2) 0.6941(4)
H9_2 H 0.0460 0.8649 0.6475
C30_2 C 0.0197(3) 0.2583(2) 0.8304(4)
H17_2 H 0.0144 0.2892 0.8800
C31_2 C 0.0854(3) 0.2250(2) 0.8765(4)
H18_2 H 0.1244 0.2349 0.9567
C32_2 C 0.0396(3) 0.1667(2) 0.6941(4)
H19_2 H 0.0460 0.1351 0.6475
N7_2 N 0.71753(18) 0.63819(16) 0.0728(3)
N8_2 N 0.71753(18) 0.36181(16) 0.0728(3)
O1_2 O 0.68829(17) 0.62079(13) 0.6990(3)
O2_2 O 0.76629(17) 0.67700(14) 0.8602(3)
O3_2 O 0.76418(15) 0.55031(13) 0.9350(3)
O4_2 O 0.61417(15) 0.55005(13) 0.8597(3)
N2_2 N 0.8591(2) 0.70858(18) 0.5277(3)
C1_2 C 0.6722(3) 0.6290(2) 0.1282(4)
H1_2 H 0.6239 0.6137 0.0783
C2_2 C 0.6940(3) 0.6412(3) 0.2567(4)
H2_2 H 0.6606 0.6343 0.2914
C3_2 C 0.7666(2) 0.6641(2) 0.3343(4)
C4_2 C 0.8124(3) 0.6743(3) 0.2749(4)
H3_2 H 0.8607 0.6904 0.3214
C5_2 C 0.7861(3) 0.6604(3) 0.1461(4)
H4_2 H 0.8182 0.6670 0.1085
C6_2 C 0.7938(2) 0.6780(2) 0.4725(4)
C7_2 C 0.7545(2) 0.6596(2) 0.5408(4)
H5_2 H 0.7093 0.6382 0.5002
C8_2 C 0.7843(2) 0.6741(2) 0.6702(4)
C9_2 C 0.8525(2) 0.7047(2) 0.7284(4)
H6_2 H 0.8739 0.7142 0.8155
C10_2 C 0.8889(2) 0.7211(2) 0.6541(4)
C11_2 C 0.9612(2) 0.7543(2) 0.7095(4)
C15_2 C 0.9726(3) 0.8010(2) 0.6395(4)
H10_2 H 0.9355 0.8103 0.5571
C16_2 C 0.7436(2) 0.65593(19) 0.7477(4)
C17_3 C 0.6461(3) 0.5000 0.8758(5)
C18_3 C 0.7332(3) 0.5000 0.9195(5)
O5_2 O 0.76418(15) 0.44969(13) 0.9350(3)
O6_2 O 0.61417(15) 0.44995(13) 0.8597(3)
O7_2 O 0.68829(17) 0.37921(13) 0.6990(3)
O8_2 O 0.76629(17) 0.32300(14) 0.8602(3)
N5_2 N 0.8591(2) 0.29142(18) 0.5277(3)
C19_2 C 0.6722(3) 0.3710(2) 0.1282(4)
H11_2 H 0.6239 0.3863 0.0783
C20_2 C 0.6940(3) 0.3588(3) 0.2567(4)
H12_2 H 0.6606 0.3657 0.2914
C21_2 C 0.7666(2) 0.3359(2) 0.3343(4)
C22_2 C 0.8124(3) 0.3257(3) 0.2749(4)
H13_2 H 0.8607 0.3096 0.3214
C23_2 C 0.7861(3) 0.3396(3) 0.1461(4)
H14_2 H 0.8182 0.3330 0.1085
C24_2 C 0.7938(2) 0.3220(2) 0.4725(4)
C25_2 C 0.7545(2) 0.3404(2) 0.5408(4)
H15_2 H 0.7093 0.3618 0.5002
C26_2 C 0.7843(2) 0.3259(2) 0.6702(4)
C27_2 C 0.8525(2) 0.2953(2) 0.7284(4)
H16_2 H 0.8739 0.2858 0.8155
C28_2 C 0.8889(2) 0.2789(2) 0.6541(4)
C29_2 C 0.9612(2) 0.2457(2) 0.7095(4)
C33_2 C 0.9726(3) 0.1990(2) 0.6395(4)
H20_2 H 0.9355 0.1897 0.5571
C34_2 C 0.7436(2) 0.34407(19) 0.7477(4)
Ni3 Ni 0.81270(3) 0.12067(2) 0.11649(4)
O1_3 O 0.81171(17) 0.12079(13) 0.3010(3)
O2_3 O 0.73371(17) 0.17700(14) 0.1398(3)
O3_3 O 0.73582(15) 0.05031(13) 0.0650(3)
O4_3 O 0.88583(15) 0.05005(13) 0.1403(3)
N1 N 0.78247(18) 0.13819(16) 0.9272(3)
N2_3 N 0.6409(2) 0.20858(18) 0.4723(3)
N3_2 N 0.40388(19) 0.32094(16) 0.1881(3)
C1_3 C 0.8278(3) 0.1290(2) 0.8718(4)
H1_3 H 0.8761 0.1137 0.9217
C2_3 C 0.8060(3) 0.1412(3) 0.7433(4)
H2_3 H 0.8394 0.1343 0.7086
C3_3 C 0.7334(2) 0.1641(2) 0.6657(4)
C4_3 C 0.6876(3) 0.1743(3) 0.7251(4)
H3_3 H 0.6393 0.1904 0.6786
C5_3 C 0.7139(3) 0.1604(3) 0.8539(4)
H4_3 H 0.6818 0.1670 0.8915
C6_3 C 0.7062(2) 0.1780(2) 0.5275(4)
C7_3 C 0.7455(2) 0.1596(2) 0.4592(4)
H5_3 H 0.7907 0.1382 0.4998
C8_3 C 0.7157(2) 0.1741(2) 0.3298(4)
C9_3 C 0.6475(2) 0.2047(2) 0.2716(4)
H6_3 H 0.6261 0.2142 0.1845
C10_3 C 0.6111(2) 0.2211(2) 0.3459(4)
C11_3 C 0.5388(2) 0.2543(2) 0.2905(4)
C12_3 C 0.4803(3) 0.2417(2) 0.1696(4)
H7_3 H 0.4856 0.2108 0.1200
C13_3 C 0.4146(3) 0.2750(2) 0.1235(4)
H8_3 H 0.3756 0.2651 0.0433
C14_3 C 0.4604(3) 0.3333(2) 0.3059(4)
H9_3 H 0.4540 0.3649 0.3525
C15_3 C 0.5274(3) 0.3010(2) 0.3605(4)
H10_3 H 0.5645 0.3103 0.4429
C16_3 C 0.7564(2) 0.15593(19) 0.2523(4)
C17_4 C 0.8539(3) -0.0000 0.1242(5)
C18_4 C 0.7668(3) 0.0000 0.0805(5)
Ni6_2 Ni 0.31270(3) 0.37933(2) 0.11649(4)
N10_2 N 0.90388(19) 0.17906(16) 0.1881(3)
Ni5 Ni 0.81270(3) 0.87933(2) 0.11649(4)
C17_5 C 0.8539(3) 1.0000 0.1242(5)
C18_5 C 0.7668(3) 1.0000 0.0805(5)
O5_3 O 0.73582(15) 0.94969(13) 0.0650(3)
O6_3 O 0.88583(15) 0.94995(13) 0.1403(3)
O7_3 O 0.81171(17) 0.87921(13) 0.3010(3)
O8_3 O 0.73371(17) 0.82300(14) 0.1398(3)
N4 N 0.78247(18) 0.86181(16) 0.9272(3)
N5_3 N 0.6409(2) 0.79142(18) 0.4723(3)
N6_2 N 0.40388(19) 0.67906(16) 0.1881(3)
C19_3 C 0.8278(3) 0.8710(2) 0.8718(4)
H11_3 H 0.8761 0.8863 0.9217
C20_3 C 0.8060(3) 0.8588(3) 0.7433(4)
H12_3 H 0.8394 0.8657 0.7086
C21_3 C 0.7334(2) 0.8359(2) 0.6657(4)
C22_3 C 0.6876(3) 0.8257(3) 0.7251(4)
H13_3 H 0.6393 0.8096 0.6786
C23_3 C 0.7139(3) 0.8396(3) 0.8539(4)
H14_3 H 0.6818 0.8330 0.8915
C24_3 C 0.7062(2) 0.8220(2) 0.5275(4)
C25_3 C 0.7455(2) 0.8404(2) 0.4592(4)
H15_3 H 0.7907 0.8618 0.4998
C26_3 C 0.7157(2) 0.8259(2) 0.3298(4)
C27_3 C 0.6475(2) 0.7953(2) 0.2716(4)
H16_3 H 0.6261 0.7858 0.1845
C28_3 C 0.6111(2) 0.7789(2) 0.3459(4)
C29_3 C 0.5388(2) 0.7457(2) 0.2905(4)
C30_3 C 0.4803(3) 0.7583(2) 0.1696(4)
H17_3 H 0.4856 0.7892 0.1200
C31_3 C 0.4146(3) 0.7250(2) 0.1235(4)
H18_3 H 0.3756 0.7349 0.0433
C32_3 C 0.4604(3) 0.6667(2) 0.3059(4)
H19_3 H 0.4540 0.6351 0.3525
C33_3 C 0.5274(3) 0.6990(2) 0.3605(4)
H20_3 H 0.5645 0.6897 0.4429
C34_3 C 0.7564(2) 0.84407(19) 0.2523(4)
Ni4_2 Ni 0.31270(3) 0.62067(2) 0.11649(4)
N9_2 N 0.90388(19) 0.82094(16) 0.1881(3)
O1_4 O 0.31171(17) 0.62079(13) 0.3010(3)
O2_4 O 0.23371(17) 0.67700(14) 0.1398(3)
O3_4 O 0.23582(15) 0.55031(13) 0.0650(3)
O4_4 O 0.38583(15) 0.55005(13) 0.1403(3)
N1_2 N 0.28247(18) 0.63819(16) 0.9272(3)
N2_4 N 0.1409(2) 0.70858(18) 0.4723(3)
C1_4 C 0.3278(3) 0.6290(2) 0.8718(4)
H1_4 H 0.3761 0.6137 0.9217
C2_4 C 0.3060(3) 0.6412(3) 0.7433(4)
H2_4 H 0.3394 0.6343 0.7086
C3_4 C 0.2334(2) 0.6641(2) 0.6657(4)
C4_4 C 0.1876(3) 0.6743(3) 0.7251(4)
H3_4 H 0.1393 0.6904 0.6786
C5_4 C 0.2139(3) 0.6604(3) 0.8539(4)
H4_4 H 0.1818 0.6670 0.8915
C6_4 C 0.2062(2) 0.6780(2) 0.5275(4)
C7_4 C 0.2455(2) 0.6596(2) 0.4592(4)
H5_4 H 0.2907 0.6382 0.4998
C8_4 C 0.2157(2) 0.6741(2) 0.3298(4)
C9_4 C 0.1475(2) 0.7047(2) 0.2716(4)
H6_4 H 0.1261 0.7142 0.1845
C10_4 C 0.1111(2) 0.7211(2) 0.3459(4)
C11_4 C 0.0388(2) 0.7543(2) 0.2905(4)
C15_4 C 0.0274(3) 0.8010(2) 0.3605(4)
H10_4 H 0.0645 0.8103 0.4429
C16_4 C 0.2564(2) 0.65593(19) 0.2523(4)
C17_6 C 0.3539(3) 0.5000 0.1242(5)
C18_6 C 0.2668(3) 0.5000 0.0805(5)
O5_4 O 0.23582(15) 0.44969(13) 0.0650(3)
O6_4 O 0.38583(15) 0.44995(13) 0.1403(3)
O7_4 O 0.31171(17) 0.37921(13) 0.3010(3)
O8_4 O 0.23371(17) 0.32300(14) 0.1398(3)
N4_2 N 0.28247(18) 0.36181(16) 0.9272(3)
N5_4 N 0.1409(2) 0.29142(18) 0.4723(3)
C19_4 C 0.3278(3) 0.3710(2) 0.8718(4)
H11_4 H 0.3761 0.3863 0.9217
C20_4 C 0.3060(3) 0.3588(3) 0.7433(4)
H12_4 H 0.3394 0.3657 0.7086
C21_4 C 0.2334(2) 0.3359(2) 0.6657(4)
C22_4 C 0.1876(3) 0.3257(3) 0.7251(4)
H13_4 H 0.1393 0.3096 0.6786
C23_4 C 0.2139(3) 0.3396(3) 0.8539(4)
H14_4 H 0.1818 0.3330 0.8915
C24_4 C 0.2062(2) 0.3220(2) 0.5275(4)
C25_4 C 0.2455(2) 0.3404(2) 0.4592(4)
H15_4 H 0.2907 0.3618 0.4998
C26_4 C 0.2157(2) 0.3259(2) 0.3298(4)
C27_4 C 0.1475(2) 0.2953(2) 0.2716(4)
H16_4 H 0.1261 0.2858 0.1845
C28_4 C 0.1111(2) 0.2789(2) 0.3459(4)
C29_4 C 0.0388(2) 0.2457(2) 0.2905(4)
C33_4 C 0.0274(3) 0.1990(2) 0.3605(4)
H20_4 H 0.0645 0.1897 0.4429
C34_4 C 0.2564(2) 0.34407(19) 0.2523(4)
C12_4 C 0.9803(3) 0.7417(2) 0.1696(4)
H7_4 H 0.9856 0.7108 0.1200
C13_4 C 0.9146(3) 0.7750(2) 0.1235(4)
H8_4 H 0.8756 0.7651 0.0433
C14_4 C 0.9604(3) 0.8333(2) 0.3059(4)
H9_4 H 0.9540 0.8649 0.3525
C30_4 C 0.9803(3) 0.2583(2) 0.1696(4)
H17_4 H 0.9856 0.2892 0.1200
C31_4 C 0.9146(3) 0.2250(2) 0.1235(4)
H18_4 H 0.8756 0.2349 0.0433
C32_4 C 0.9604(3) 0.1667(2) 0.3059(4)
H19_4 H 0.9540 0.1351 0.3525
loop_
_geom_bond_atom_site_label_1
_geom_bond_atom_site_label_2
_geom_bond_site_symmetry_1
_geom_bond_site_symmetry_2
Ni1 O1 1_555 1_555
O1 C16 1_555 1_555
O2 Ni1 1_555 1_555
O3 Ni1 1_555 1_555
O4 Ni1 1_555 1_555
N7 C1 1_555 1_555
N2 C6 1_555 1_555
N3 C13 1_555 1_555
C1 H1 1_555 1_555
C2 C1 1_555 1_555
H2 C2 1_555 1_555
C3 C2 1_555 1_555
C4 C3 1_555 1_555
H3 C4 1_555 1_555
C5 N7 1_555 1_555
H4 C5 1_555 1_555
C6 C3 1_555 1_555
C7 C6 1_555 1_555
H5 C7 1_555 1_555
C8 C7 1_555 1_555
C9 C8 1_555 1_555
H6 C9 1_555 1_555
C10 N2 1_555 1_555
C11 C10 1_555 1_555
C12 C11 1_555 1_555
H7 C12 1_555 1_555
C13 C12 1_555 1_555
H8 C13 1_555 1_555
C14 N3 1_555 1_555
H9 C14 1_555 1_555
C15 C11 1_555 1_555
H10 C15 1_555 1_555
C16 O2 1_555 1_555
C17 O4 1_555 1_555
C18 O3 1_555 1_555
Ni6 N3 1_555 1_555
N10 Ni1 1_555 1_555
C4 C5 1_555 1_555
C8 C16 1_555 1_555
C9 C10 1_555 1_555
C14 C15 1_555 1_555
C17 C18 1_555 1_555
O5 C18_2 1_555 1_555
O6 C17_2 1_555 1_555
Ni2 O5 1_555 1_555
O7 Ni2 1_555 1_555
O8 Ni2 1_555 1_555
N8 C19 1_555 1_555
N5 C24 1_555 1_555
N6 C31 1_555 1_555
C19 H11 1_555 1_555
C20 C19 1_555 1_555
H12 C20 1_555 1_555
C21 C20 1_555 1_555
C22 C21 1_555 1_555
H13 C22 1_555 1_555
C23 N8 1_555 1_555
H14 C23 1_555 1_555
C24 C21 1_555 1_555
C25 C24 1_555 1_555
H15 C25 1_555 1_555
C26 C25 1_555 1_555
C27 C26 1_555 1_555
H16 C27 1_555 1_555
C28 N5 1_555 1_555
C29 C28 1_555 1_555
C30 C29 1_555 1_555
H17 C30 1_555 1_555
C31 C30 1_555 1_555
H18 C31 1_555 1_555
C32 N6 1_555 1_555
H19 C32 1_555 1_555
C33 C29 1_555 1_555
H20 C33 1_555 1_555
C34 O7 1_555 1_555
Ni4 N6 1_555 1_555
N9 Ni2 1_555 1_555
C17_2 C18_2 1_555 1_555
O6 Ni2 1_555 1_555
O8 C34 1_555 1_555
C22 C23 1_555 1_555
C26 C34 1_555 1_555
C27 C28 1_555 1_555
C32 C33 1_555 1_555
N9 C13_2 1_555 1_555
H7_2 C12_2 1_555 1_555
C13_2 C12_2 1_555 1_555
H8_2 C13_2 1_555 1_555
C14_2 N9 1_555 1_555
H9_2 C14_2 1_555 1_555
N10 C31_2 1_555 1_555
H17_2 C30_2 1_555 1_555
C31_2 C30_2 1_555 1_555
H18_2 C31_2 1_555 1_555
C32_2 N10 1_555 1_555
H19_2 C32_2 1_555 1_555
Ni4 O1_2 1_555 1_555
O1_2 C16_2 1_555 1_555
O2_2 Ni4 1_555 1_555
O3_2 Ni4 1_555 1_555
O4_2 Ni4 1_555 1_555
N7_2 C1_2 1_555 1_555
N2_2 C6_2 1_555 1_555
C1_2 H1_2 1_555 1_555
C2_2 C1_2 1_555 1_555
H2_2 C2_2 1_555 1_555
C3_2 C2_2 1_555 1_555
C4_2 C3_2 1_555 1_555
H3_2 C4_2 1_555 1_555
C5_2 N7_2 1_555 1_555
H4_2 C5_2 1_555 1_555
C6_2 C3_2 1_555 1_555
C7_2 C6_2 1_555 1_555
H5_2 C7_2 1_555 1_555
C8_2 C7_2 1_555 1_555
C9_2 C8_2 1_555 1_555
H6_2 C9_2 1_555 1_555
C10_2 N2_2 1_555 1_555
C11_2 C10_2 1_555 1_555
C15_2 C11_2 1_555 1_555
H10_2 C15_2 1_555 1_555
C16_2 O2_2 1_555 1_555
C17_3 O4_2 1_555 1_555
C18_3 O3_2 1_555 1_555
O5_2 C18_3 1_555 1_555
O6_2 C17_3 1_555 1_555
Ni6 O5_2 1_555 1_555
O7_2 Ni6 1_555 1_555
O8_2 Ni6 1_555 1_555
N8_2 C19_2 1_555 1_555
N5_2 C24_2 1_555 1_555
C19_2 H11_2 1_555 1_555
C20_2 C19_2 1_555 1_555
H12_2 C20_2 1_555 1_555
C21_2 C20_2 1_555 1_555
C22_2 C21_2 1_555 1_555
H13_2 C22_2 1_555 1_555
C23_2 N8_2 1_555 1_555
H14_2 C23_2 1_555 1_555
C24_2 C21_2 1_555 1_555
C25_2 C24_2 1_555 1_555
H15_2 C25_2 1_555 1_555
C26_2 C25_2 1_555 1_555
C27_2 C26_2 1_555 1_555
H16_2 C27_2 1_555 1_555
C28_2 N5_2 1_555 1_555
C29_2 C28_2 1_555 1_555
C33_2 C29_2 1_555 1_555
H20_2 C33_2 1_555 1_555
C34_2 O7_2 1_555 1_555
C4_2 C5_2 1_555 1_555
C8_2 C16_2 1_555 1_555
C9_2 C10_2 1_555 1_555
C17_3 C18_3 1_555 1_555
O6_2 Ni6 1_555 1_555
O8_2 C34_2 1_555 1_555
C22_2 C23_2 1_555 1_555
C26_2 C34_2 1_555 1_555
C27_2 C28_2 1_555 1_555
Ni3 O1_3 1_555 1_555
O1_3 C16_3 1_555 1_555
O2_3 Ni3 1_555 1_555
O3_3 Ni3 1_555 1_555
O4_3 Ni3 1_555 1_555
N1 C1_3 1_555 1_555
N2_3 C6_3 1_555 1_555
N3_2 C13_3 1_555 1_555
C1_3 H1_3 1_555 1_555
C2_3 C1_3 1_555 1_555
H2_3 C2_3 1_555 1_555
C3_3 C2_3 1_555 1_555
C4_3 C3_3 1_555 1_555
H3_3 C4_3 1_555 1_555
C5_3 N1 1_555 1_555
H4_3 C5_3 1_555 1_555
C6_3 C3_3 1_555 1_555
C7_3 C6_3 1_555 1_555
H5_3 C7_3 1_555 1_555
C8_3 C7_3 1_555 1_555
C9_3 C8_3 1_555 1_555
H6_3 C9_3 1_555 1_555
C10_3 N2_3 1_555 1_555
C11_3 C10_3 1_555 1_555
C12_3 C11_3 1_555 1_555
H7_3 C12_3 1_555 1_555
C13_3 C12_3 1_555 1_555
H8_3 C13_3 1_555 1_555
C14_3 N3_2 1_555 1_555
H9_3 C14_3 1_555 1_555
C15_3 C11_3 1_555 1_555
H10_3 C15_3 1_555 1_555
C16_3 O2_3 1_555 1_555
C17_4 O4_3 1_555 1_555
C18_4 O3_3 1_555 1_555
Ni6_2 N3_2 1_555 1_555
N10_2 Ni3 1_555 1_555
C4_3 C5_3 1_555 1_555
C8_3 C16_3 1_555 1_555
C9_3 C10_3 1_555 1_555
C14_3 C15_3 1_555 1_555
C17_4 C18_4 1_555 1_555
O5_3 C18_5 1_555 1_555
O6_3 C17_5 1_555 1_555
Ni5 O5_3 1_555 1_555
O7_3 Ni5 1_555 1_555
O8_3 Ni5 1_555 1_555
N4 C19_3 1_555 1_555
N5_3 C24_3 1_555 1_555
N6_2 C31_3 1_555 1_555
C19_3 H11_3 1_555 1_555
C20_3 C19_3 1_555 1_555
H12_3 C20_3 1_555 1_555
C21_3 C20_3 1_555 1_555
C22_3 C21_3 1_555 1_555
H13_3 C22_3 1_555 1_555
C23_3 N4 1_555 1_555
H14_3 C23_3 1_555 1_555
C24_3 C21_3 1_555 1_555
C25_3 C24_3 1_555 1_555
H15_3 C25_3 1_555 1_555
C26_3 C25_3 1_555 1_555
C27_3 C26_3 1_555 1_555
H16_3 C27_3 1_555 1_555
C28_3 N5_3 1_555 1_555
C29_3 C28_3 1_555 1_555
C30_3 C29_3 1_555 1_555
H17_3 C30_3 1_555 1_555
C31_3 C30_3 1_555 1_555
H18_3 C31_3 1_555 1_555
C32_3 N6_2 1_555 1_555
H19_3 C32_3 1_555 1_555
C33_3 C29_3 1_555 1_555
H20_3 C33_3 1_555 1_555
C34_3 O7_3 1_555 1_555
Ni4_2 N6_2 1_555 1_555
N9_2 Ni5 1_555 1_555
C17_5 C18_5 1_555 1_555
O6_3 Ni5 1_555 1_555
O8_3 C34_3 1_555 1_555
C22_3 C23_3 1_555 1_555
C26_3 C34_3 1_555 1_555
C27_3 C28_3 1_555 1_555
C32_3 C33_3 1_555 1_555
Ni4_2 O1_4 1_555 1_555
O1_4 C16_4 1_555 1_555
O2_4 Ni4_2 1_555 1_555
O3_4 Ni4_2 1_555 1_555
O4_4 Ni4_2 1_555 1_555
N1_2 C1_4 1_555 1_555
N2_4 C6_4 1_555 1_555
C1_4 H1_4 1_555 1_555
C2_4 C1_4 1_555 1_555
H2_4 C2_4 1_555 1_555
C3_4 C2_4 1_555 1_555
C4_4 C3_4 1_555 1_555
H3_4 C4_4 1_555 1_555
C5_4 N1_2 1_555 1_555
H4_4 C5_4 1_555 1_555
C6_4 C3_4 1_555 1_555
C7_4 C6_4 1_555 1_555
H5_4 C7_4 1_555 1_555
C8_4 C7_4 1_555 1_555
C9_4 C8_4 1_555 1_555
H6_4 C9_4 1_555 1_555
C10_4 N2_4 1_555 1_555
C11_4 C10_4 1_555 1_555
C15_4 C11_4 1_555 1_555
H10_4 C15_4 1_555 1_555
C16_4 O2_4 1_555 1_555
C17_6 O4_4 1_555 1_555
C18_6 O3_4 1_555 1_555
O5_4 C18_6 1_555 1_555
O6_4 C17_6 1_555 1_555
Ni6_2 O5_4 1_555 1_555
O7_4 Ni6_2 1_555 1_555
O8_4 Ni6_2 1_555 1_555
N4_2 C19_4 1_555 1_555
N5_4 C24_4 1_555 1_555
C19_4 H11_4 1_555 1_555
C20_4 C19_4 1_555 1_555
H12_4 C20_4 1_555 1_555
C21_4 C20_4 1_555 1_555
C22_4 C21_4 1_555 1_555
H13_4 C22_4 1_555 1_555
C23_4 N4_2 1_555 1_555
H14_4 C23_4 1_555 1_555
C24_4 C21_4 1_555 1_555
C25_4 C24_4 1_555 1_555
H15_4 C25_4 1_555 1_555
C26_4 C25_4 1_555 1_555
C27_4 C26_4 1_555 1_555
H16_4 C27_4 1_555 1_555
C28_4 N5_4 1_555 1_555
C29_4 C28_4 1_555 1_555
C33_4 C29_4 1_555 1_555
H20_4 C33_4 1_555 1_555
C34_4 O7_4 1_555 1_555
C4_4 C5_4 1_555 1_555
C8_4 C16_4 1_555 1_555
C9_4 C10_4 1_555 1_555
C17_6 C18_6 1_555 1_555
O6_4 Ni6_2 1_555 1_555
O8_4 C34_4 1_555 1_555
C22_4 C23_4 1_555 1_555
C26_4 C34_4 1_555 1_555
C27_4 C28_4 1_555 1_555
N9_2 C13_4 1_555 1_555
H7_4 C12_4 1_555 1_555
C13_4 C12_4 1_555 1_555
H8_4 C13_4 1_555 1_555
C14_4 N9_2 1_555 1_555
H9_4 C14_4 1_555 1_555
N10_2 C31_4 1_555 1_555
H17_4 C30_4 1_555 1_555
C31_4 C30_4 1_555 1_555
H18_4 C31_4 1_555 1_555
C32_4 N10_2 1_555 1_555
H19_4 C32_4 1_555 1_555

#END
