
###############################################################################
#
# This file contains modified crystal structure data generated from the
# MOF subset of the Cambridge Structural Database (CSD) v543 
# hosted by the Cambridge Crystallographic Data Centre (CCDC).
#
# This work is licensed under the Creative Commons
# Attribution-NonCommercial-ShareAlike 4.0 International License.
# To view a copy of this license, visit
# http://creativecommons.org/licenses/by-nc-sa/4.0/
# or send a letter to
# Creative Commons, PO Box 1866, Mountain View, CA 94042, USA.
#
# CIF created using the CSD Python API on 29 September 2022
# The structure has been converted into the P1 space group
# The structure has a 3D framework
# The original CSD entry HALBEF is in the trigonal crystal system
# The original CSD entry HALBEF is in a Sohncke space group
# The framework has been calculated to contain at least 10.0% void space
# The void calculation uses a probe of radius 1.32A, grid spacing 0.4
#
###############################################################################

data_HALBEF
_chemical_formula_moiety         '(C114 H150 Mn6 N54 W6)n'
_symmetry_cell_setting           triclinic
_symmetry_space_group_name_H-M   'P 1'
_symmetry_Int_Tables_number      1
_space_group_name_Hall           'P 1'
loop_
_symmetry_equiv_pos_site_id
_symmetry_equiv_pos_as_xyz
1 x,y,z
_cell_length_a                   19.0231(5)
_cell_length_b                   19.0231(5)
_cell_length_c                   12.4374(4)
_cell_angle_alpha                90
_cell_angle_beta                 90
_cell_angle_gamma                120
_cell_volume                     3897.83
loop_
_atom_site_label
_atom_site_type_symbol
_atom_site_fract_x
_atom_site_fract_y
_atom_site_fract_z
W1 W 0.50425(2) 0.50425(2) 0.000000
Mn1 Mn 0.80077(8) 0.53553(7) 0.05175(10)
N1 N 0.6168(5) 0.5961(5) 0.2148(6)
C1 C 0.5775(5) 0.5638(5) 0.1430(6)
N2 N 0.3600(5) 0.4583(5) 0.1816(7)
C2 C 0.4105(5) 0.4749(5) 0.1214(9)
N3 N 0.4685(7) 0.3390(6) 0.1354(10)
C3 C 0.4824(6) 0.3973(6) 0.0878(9)
C5 C 0.6629(9) 0.3759(7) 0.1640(10)
H1 H 0.631351 0.343764 0.226994
H2 H 0.624129 0.366297 0.105135
N5 N 0.7706(6) 0.4010(5) 0.0395(10)
C6 C 0.7220(10) 0.4809(8) 0.3009(9)
H3 H 0.672758 0.447949 0.343197
H4 H 0.740646 0.538569 0.312289
H5 H 0.764497 0.469284 0.323656
N6 N 0.7052(9) 0.4623(7) 0.1924(8)
H6 H 0.662242 0.476916 0.179135
C7 C 0.7180(9) 0.3475(8) 0.1302(12)
H7 H 0.686458 0.290440 0.105675
H8 H 0.752483 0.350051 0.191430
H10 H 0.822875 0.298336 0.074215
N8 N 0.8071(5) 0.6469(5) 0.1438(6)
H12 H 0.759244 0.625070 0.193165
C17 C 0.8806(7) 0.6910(8) 0.2104(10)
H19 H 0.928803 0.713063 0.164261
H20 H 0.882712 0.653687 0.262958
H21 H 0.879232 0.735459 0.248148
C18 C 0.7975(7) 0.6988(7) 0.0641(9)
H22 H 0.804484 0.748272 0.100071
H23 H 0.742073 0.669278 0.033647
H25 H 0.913435 0.763994 0.000387
N13 N 0.5106(5) 0.6813(4) 0.0188(6)
C23 C 0.5075(5) 0.6186(5) 0.0159(6)
N16 N 0.5134(7) 0.8562(5) 0.0995(8)
C27 C 0.3070(11) 0.8187(11) 0.0026(18)
H34 H 0.260147 0.770107 0.032297
H36 H 0.313374 0.866914 0.039975
C28 C 0.3834(9) 0.8127(8) 0.0180(15)
N18 N 0.6505(6) 0.8612(6) 0.0627(6)
C29 C 0.7051(13) 0.9107(9) 0.2447(10)
H38 H 0.715935 0.963255 0.273057
H39 H 0.755546 0.915809 0.216287
H40 H 0.684301 0.870250 0.302424
C30 C 0.4729(11) 0.9214(9) 0.2592(13)
H41 H 0.458511 0.943821 0.317668
C31 C 0.4217(12) 0.8924(10) 0.1811(15)
H42 H 0.374074 0.896703 0.179503
C32 C 0.4397(9) 0.8553(8) 0.1014(12)
C33 C 0.5527(12) 0.9238(9) 0.2684(12)
H43 H 0.588175 0.946033 0.328199
C34 C 0.5695(9) 0.8889(6) 0.1768(9)
C35 C 0.6436(9) 0.8845(7) 0.1566(8)
C38 C 0.7227(7) 0.8591(8) 0.0258(10)
H49 H 0.746388 0.843940 0.086121
Mn4 Mn 0.26524(11) 0.46447(7) 0.28158(10)
N20 N 0.9017(7) 0.5417(5) 0.1517(7)
W1_2 W 0.50425(2) 0.50425(2) 1.000000
N4 N 0.6813(4) 0.5106(5) 0.9812(6)
C4 C 0.6186(5) 0.5075(5) 0.9841(6)
N7 N 0.8562(5) 0.5134(7) 0.9005(8)
C8 C 0.8187(11) 0.3070(11) 0.9974(18)
H9 H 0.770107 0.260147 0.967703
H11 H 0.866914 0.313374 0.960025
C9 C 0.8127(8) 0.3834(9) 0.9820(15)
N9 N 0.8612(6) 0.6505(6) 0.9373(6)
C10 C 0.9107(9) 0.7051(13) 0.7553(10)
H13 H 0.963255 0.715935 0.726943
H14 H 0.915809 0.755546 0.783713
H15 H 0.870250 0.684301 0.697576
C11 C 0.9214(9) 0.4729(11) 0.7408(13)
H16 H 0.943821 0.458511 0.682332
C12 C 0.8924(10) 0.4217(12) 0.8189(15)
H17 H 0.896703 0.374074 0.820497
C13 C 0.8553(8) 0.4397(9) 0.8986(12)
C14 C 0.9238(9) 0.5527(12) 0.7316(12)
H18 H 0.946033 0.588175 0.671801
C15 C 0.8889(6) 0.5695(9) 0.8232(9)
C16 C 0.8845(7) 0.6436(9) 0.8434(8)
C19 C 0.8591(8) 0.7227(7) 0.9742(10)
H24 H 0.843940 0.746388 0.913879
Mn2 Mn 0.53553(7) 0.80077(8) 0.94825(10)
N10 N 0.5961(5) 0.6168(5) 0.7852(6)
C20 C 0.5638(5) 0.5775(5) 0.8570(6)
N11 N 0.4583(5) 0.3600(5) 0.8184(7)
C21 C 0.4749(5) 0.4105(5) 0.8786(9)
N12 N 0.3390(6) 0.4685(7) 0.8646(10)
C22 C 0.3973(6) 0.4824(6) 0.9122(9)
C24 C 0.3759(7) 0.6629(9) 0.8360(10)
H26 H 0.343764 0.631351 0.773006
H27 H 0.366297 0.624129 0.894865
N14 N 0.4010(5) 0.7706(6) 0.9605(10)
C25 C 0.4809(8) 0.7220(10) 0.6991(9)
H28 H 0.447949 0.672758 0.656803
H29 H 0.538569 0.740646 0.687711
H30 H 0.469284 0.764497 0.676344
N15 N 0.4623(7) 0.7052(9) 0.8076(8)
H31 H 0.476916 0.662242 0.820865
C26 C 0.3475(8) 0.7180(9) 0.8698(12)
H32 H 0.290440 0.686458 0.894325
H33 H 0.350051 0.752483 0.808570
H35 H 0.298336 0.822875 0.925785
N17 N 0.6469(5) 0.8071(5) 0.8562(6)
H37 H 0.625070 0.759244 0.806835
C36 C 0.6910(8) 0.8806(7) 0.7896(10)
H44 H 0.713063 0.928803 0.835739
H45 H 0.653687 0.882712 0.737042
H46 H 0.735459 0.879232 0.751852
C37 C 0.6988(7) 0.7975(7) 0.9359(9)
H47 H 0.748272 0.804484 0.899929
H48 H 0.669278 0.742073 0.966353
H50 H 0.763994 0.913435 0.999613
Mn3 Mn 0.46447(7) 0.26524(11) 0.71842(10)
N19 N 0.5417(5) 0.9017(7) 0.8483(7)
W1_3 W 0.49575(2) 0.00000(3) 0.666667
N1_2 N 0.4039(5) 0.0207(7) 0.8815(6)
C1_2 C 0.4362(5) 0.0137(7) 0.8097(6)
N3_2 N 0.6610(6) 0.1295(9) 0.8021(10)
C3_2 C 0.6027(6) 0.0851(8) 0.7545(9)
N4_2 N 0.4894(5) 0.1707(6) 0.6479(6)
C4_2 C 0.4925(5) 0.1111(7) 0.6508(6)
C5_2 C 0.6241(7) 0.2870(11) 0.8307(10)
H1_2 H 0.656236 0.287587 0.893661
H2_2 H 0.633703 0.257832 0.771802
N5_2 N 0.5990(5) 0.3696(8) 0.7062(10)
C6_2 C 0.5191(8) 0.2411(13) 0.9676(9)
H4_2 H 0.461431 0.202077 0.978956
H5_2 H 0.530716 0.295213 0.990323
N6_2 N 0.5377(7) 0.2429(11) 0.8591(8)
H6_2 H 0.523084 0.185326 0.845802
C7_2 C 0.6525(8) 0.3705(12) 0.7969(12)
H7_2 H 0.709560 0.396018 0.772342
H8_2 H 0.649949 0.402432 0.858097
N7_2 N 0.4866(7) 0.3428(9) 0.5672(8)
C8_2 C 0.6930(11) 0.5117(16) 0.6641(18)
H9_2 H 0.739853 0.509960 0.634370
H10_2 H 0.701664 0.524539 0.740882
H11_2 H 0.686626 0.553540 0.626692
N8_2 N 0.3531(5) 0.1602(7) 0.8105(6)
H12_2 H 0.374930 0.134174 0.859832
C9_2 C 0.6166(9) 0.4293(12) 0.6487(15)
N9_2 N 0.3495(6) 0.2107(8) 0.6040(6)
C10_2 C 0.2949(13) 0.2056(16) 0.4220(10)
H13_2 H 0.284065 0.247320 0.393610
H14_2 H 0.244454 0.160263 0.450380
H15_2 H 0.315699 0.185949 0.364243
C11_2 C 0.5271(11) 0.4485(14) 0.4075(13)
H16_2 H 0.541489 0.485310 0.348999
C12_2 C 0.5783(12) 0.4707(16) 0.4856(15)
H17_2 H 0.625926 0.522629 0.487164
C13_2 C 0.5603(9) 0.4156(12) 0.5653(12)
C14_2 C 0.4473(12) 0.3711(15) 0.3983(12)
H18_2 H 0.411825 0.357858 0.338468
C15_2 C 0.4305(9) 0.3194(11) 0.4899(9)
C16_2 C 0.3564(9) 0.2409(11) 0.5101(8)
C17_2 C 0.3090(8) 0.1896(11) 0.8771(10)
H19_2 H 0.286937 0.215740 0.830928
H20_2 H 0.346313 0.229025 0.929625
H21_2 H 0.264541 0.143773 0.914815
C18_2 C 0.3012(7) 0.0987(10) 0.7308(9)
H22_2 H 0.251728 0.056212 0.766738
H23_2 H 0.330722 0.072795 0.700314
C19_2 C 0.2773(7) 0.1364(11) 0.6409(10)
H24_2 H 0.253612 0.097552 0.580546
H25_2 H 0.236006 0.149441 0.667054
N11_2 N 0.6400(5) 0.0983(7) 0.4851(7)
C21_2 C 0.5895(5) 0.0644(7) 0.5453(9)
Mn3_2 Mn 0.73476(11) 0.19923(13) 0.38508(10)
W1_4 W 0.49575(2) 1.00000(3) 0.666667
C2_2 C 0.5251(5) 0.9356(7) 0.7881(9)
Mn2_2 Mn 0.19923(8) 0.73476(11) 0.61492(10)
N10_2 N 0.3832(5) 0.9793(7) 0.4519(6)
C20_2 C 0.4225(5) 0.9863(7) 0.5237(6)
N12_2 N 0.5315(7) 0.8705(9) 0.5313(10)
C22_2 C 0.5176(6) 0.9149(8) 0.5789(9)
N13_2 N 0.3187(4) 0.8293(6) 0.6855(6)
C23_2 C 0.3814(5) 0.8889(7) 0.6826(6)
C24_2 C 0.3371(9) 0.7130(11) 0.5027(10)
H26_2 H 0.368649 0.712413 0.439673
H27_2 H 0.375871 0.742168 0.561532
N14_2 N 0.2294(6) 0.6304(8) 0.6272(10)
C25_2 C 0.2780(10) 0.7589(13) 0.3658(9)
H28_2 H 0.327242 0.775191 0.323470
H29_2 H 0.259354 0.797923 0.354378
H30_2 H 0.235503 0.704787 0.343011
N15_2 N 0.2948(9) 0.7571(11) 0.4743(8)
H31_2 H 0.337758 0.814674 0.487532
C26_2 C 0.2820(9) 0.6295(12) 0.5365(12)
H32_2 H 0.313542 0.603982 0.560992
H33_2 H 0.247517 0.597568 0.475237
N16_2 N 0.1438(5) 0.6572(9) 0.7662(8)
C27_2 C 0.1813(11) 0.4883(16) 0.6693(18)
H34_2 H 0.229893 0.490040 0.698964
H35_2 H 0.177125 0.475461 0.592452
H36_2 H 0.133086 0.446460 0.706642
N17_2 N 0.1929(5) 0.8398(7) 0.5229(6)
H37_2 H 0.240756 0.865826 0.473502
C28_2 C 0.1873(8) 0.5707(12) 0.6847(15)
N18_2 N 0.1388(6) 0.7893(8) 0.7294(6)
C29_2 C 0.0893(9) 0.7944(16) 0.9114(10)
H38_2 H 0.036745 0.752680 0.939724
H39_2 H 0.084191 0.839737 0.882954
H40_2 H 0.129750 0.814051 0.969091
C30_2 C 0.0786(9) 0.5515(14) 0.9259(13)
H41_2 H 0.056179 0.514690 0.984335
C31_2 C 0.1076(10) 0.5293(16) 0.8478(15)
H42_2 H 0.103297 0.477371 0.846170
C32_2 C 0.1447(8) 0.5844(12) 0.7681(12)
C33_2 C 0.0762(9) 0.6289(15) 0.9351(12)
H43_2 H 0.053967 0.642142 0.994866
C34_2 C 0.1111(6) 0.6806(11) 0.8435(9)
C35_2 C 0.1155(7) 0.7591(11) 0.8233(8)
C36_2 C 0.1194(7) 0.8104(11) 0.4563(10)
H44_2 H 0.071197 0.784260 0.502406
H45_2 H 0.117288 0.770975 0.403709
H46_2 H 0.120768 0.856227 0.418519
C37_2 C 0.2025(7) 0.9013(10) 0.6026(9)
H47_2 H 0.195516 0.943788 0.566596
H48_2 H 0.257927 0.927205 0.633020
C38_2 C 0.1409(8) 0.8636(11) 0.6925(10)
H49_2 H 0.156060 0.902448 0.752788
H50_2 H 0.086565 0.850559 0.666280
N19_2 N 0.0983(7) 0.6400(9) 0.5149(7)
W1_5 W 0.00000(3) 0.49575(2) 0.333333
C2_3 C 0.0644(7) 0.5895(5) 0.4547(9)
N10_3 N 0.0207(7) 0.4039(5) 0.1185(6)
C20_3 C 0.0137(7) 0.4362(5) 0.1903(6)
N12_3 N 0.1295(9) 0.6610(6) 0.1979(10)
C22_3 C 0.0851(8) 0.6027(6) 0.2455(9)
N13_3 N 0.1707(6) 0.4894(5) 0.3521(6)
C23_3 C 0.1111(7) 0.4925(5) 0.3492(6)
C24_3 C 0.2870(11) 0.6241(7) 0.1693(10)
H26_3 H 0.287587 0.656236 0.106339
H27_3 H 0.257832 0.633703 0.228198
N14_3 N 0.3696(8) 0.5990(5) 0.2938(10)
C25_3 C 0.2411(13) 0.5191(8) 0.0324(9)
H29_3 H 0.202077 0.461431 0.021044
H30_3 H 0.295213 0.530716 0.009677
N15_3 N 0.2429(11) 0.5377(7) 0.1409(8)
H31_3 H 0.185326 0.523084 0.154198
C26_3 C 0.3705(12) 0.6525(8) 0.2031(12)
H32_3 H 0.396018 0.709560 0.227658
H33_3 H 0.402432 0.649949 0.141903
N16_3 N 0.3428(9) 0.4866(7) 0.4328(8)
C27_3 C 0.5117(16) 0.6930(11) 0.3359(18)
H34_3 H 0.509960 0.739853 0.365630
H35_3 H 0.524539 0.701664 0.259118
H36_3 H 0.553540 0.686626 0.373308
N17_3 N 0.1602(7) 0.3531(5) 0.1895(6)
H37_3 H 0.134174 0.374930 0.140168
C28_3 C 0.4293(12) 0.6166(9) 0.3513(15)
N18_3 N 0.2107(8) 0.3495(6) 0.3960(6)
C29_3 C 0.2056(16) 0.2949(13) 0.5780(10)
H38_3 H 0.247320 0.284065 0.606390
H39_3 H 0.160263 0.244454 0.549620
H40_3 H 0.185949 0.315699 0.635757
C30_3 C 0.4485(14) 0.5271(11) 0.5925(13)
H41_3 H 0.485310 0.541489 0.651001
C31_3 C 0.4707(16) 0.5783(12) 0.5144(15)
H42_3 H 0.522629 0.625926 0.512836
C32_3 C 0.4156(12) 0.5603(9) 0.4347(12)
C33_3 C 0.3711(15) 0.4473(12) 0.6017(12)
H43_3 H 0.357858 0.411825 0.661532
C34_3 C 0.3194(11) 0.4305(9) 0.5101(9)
C35_3 C 0.2409(11) 0.3564(9) 0.4899(8)
C36_3 C 0.1896(11) 0.3090(8) 0.1229(10)
H44_3 H 0.215740 0.286937 0.169072
H45_3 H 0.229025 0.346313 0.070375
H46_3 H 0.143773 0.264541 0.085185
C37_3 C 0.0987(10) 0.3012(7) 0.2692(9)
H47_3 H 0.056212 0.251728 0.233262
H48_3 H 0.072795 0.330722 0.299686
C38_3 C 0.1364(11) 0.2773(7) 0.3591(10)
H49_3 H 0.097552 0.253612 0.419454
H50_3 H 0.149441 0.236006 0.332946
W1_6 W 1.00000(3) 0.49575(2) 0.333333
N1_3 N 0.9793(7) 0.3832(5) 0.5481(6)
C1_3 C 0.9863(7) 0.4225(5) 0.4763(6)
N3_3 N 0.8705(9) 0.5315(7) 0.4687(10)
C3_3 C 0.9149(8) 0.5176(6) 0.4211(9)
N4_3 N 0.8293(6) 0.3187(4) 0.3145(6)
C4_3 C 0.8889(7) 0.3814(5) 0.3174(6)
C5_3 C 0.7130(11) 0.3371(9) 0.4973(10)
H1_3 H 0.712413 0.368649 0.560327
H2_3 H 0.742168 0.375871 0.438468
N5_3 N 0.6304(8) 0.2294(6) 0.3728(10)
C6_3 C 0.7589(13) 0.2780(10) 0.6342(9)
H3_2 H 0.775191 0.327242 0.676530
H4_3 H 0.797923 0.259354 0.645622
H5_3 H 0.704787 0.235503 0.656989
N6_3 N 0.7571(11) 0.2948(9) 0.5257(8)
H6_3 H 0.814674 0.337758 0.512468
C7_3 C 0.6295(12) 0.2820(9) 0.4635(12)
H7_3 H 0.603982 0.313542 0.439008
H8_3 H 0.597568 0.247517 0.524763
N7_3 N 0.6572(9) 0.1438(5) 0.2338(8)
C8_3 C 0.4883(16) 0.1813(11) 0.3307(18)
H9_3 H 0.490040 0.229893 0.301036
H10_3 H 0.475461 0.177125 0.407548
H11_3 H 0.446460 0.133086 0.293358
N8_3 N 0.8398(7) 0.1929(5) 0.4771(6)
H12_3 H 0.865826 0.240756 0.526498
C9_3 C 0.5707(12) 0.1873(8) 0.3153(15)
N9_3 N 0.7893(8) 0.1388(6) 0.2706(6)
C10_3 C 0.7944(16) 0.0893(9) 0.0886(10)
H13_3 H 0.752680 0.036745 0.060276
H14_3 H 0.839737 0.084191 0.117046
H15_3 H 0.814051 0.129750 0.030909
C11_3 C 0.5515(14) 0.0786(9) 0.0741(13)
H16_3 H 0.514690 0.056179 0.015665
C12_3 C 0.5293(16) 0.1076(10) 0.1522(15)
H17_3 H 0.477371 0.103297 0.153830
C13_3 C 0.5844(12) 0.1447(8) 0.2319(12)
C14_3 C 0.6289(15) 0.0762(9) 0.0649(12)
H18_3 H 0.642142 0.053967 0.005134
C15_3 C 0.6806(11) 0.1111(6) 0.1565(9)
C16_3 C 0.7591(11) 0.1155(7) 0.1767(8)
C17_3 C 0.8104(11) 0.1194(7) 0.5437(10)
H19_3 H 0.784260 0.071197 0.497594
H20_3 H 0.770975 0.117288 0.596291
H21_3 H 0.856227 0.120768 0.581481
C18_3 C 0.9013(10) 0.2025(7) 0.3974(9)
H22_3 H 0.943788 0.195516 0.433404
H23_3 H 0.927205 0.257927 0.366980
C19_3 C 0.8636(11) 0.1409(8) 0.3075(10)
H24_3 H 0.902448 0.156060 0.247212
H25_3 H 0.850559 0.086565 0.333720
C21_3 C 0.9356(7) 0.5251(5) 0.2119(9)
H3_3 H 0.552051 0.224809 0.009864
H28_3 H 0.224809 0.552051 0.990136
loop_
_geom_bond_atom_site_label_1
_geom_bond_atom_site_label_2
_geom_bond_site_symmetry_1
_geom_bond_site_symmetry_2
W1 C1 1_555 1_555
N1 C1 1_555 1_555
N2 C2 1_555 1_555
C2 W1 1_555 1_555
N3 C3 1_555 1_555
C3 W1 1_555 1_555
C5 H1 1_555 1_555
H2 C5 1_555 1_555
N5 Mn1 1_555 1_555
C6 H3 1_555 1_555
H4 C6 1_555 1_555
H5 C6 1_555 1_555
N6 Mn1 1_555 1_555
H6 N6 1_555 1_555
C7 C5 1_555 1_555
H7 C7 1_555 1_555
H8 C7 1_555 1_555
N8 Mn1 1_555 1_555
H12 N8 1_555 1_555
C17 N8 1_555 1_555
H19 C17 1_555 1_555
H20 C17 1_555 1_555
H21 C17 1_555 1_555
C18 N8 1_555 1_555
H22 C18 1_555 1_555
H23 C18 1_555 1_555
N13 C23 1_555 1_555
C23 W1 1_555 1_555
C27 H34 1_555 1_555
H36 C27 1_555 1_555
C29 H38 1_555 1_555
H39 C29 1_555 1_555
H40 C29 1_555 1_555
C30 H41 1_555 1_555
C31 C30 1_555 1_555
H42 C31 1_555 1_555
C32 N16 1_555 1_555
C33 C30 1_555 1_555
H43 C33 1_555 1_555
C34 N16 1_555 1_555
C35 N18 1_555 1_555
C38 N18 1_555 1_555
H49 C38 1_555 1_555
Mn4 N2 1_555 1_555
N20 Mn1 1_555 1_555
C5 N6 1_555 1_555
N5 C7 1_555 1_555
C6 N6 1_555 1_555
C27 C28 1_555 1_555
C28 C32 1_555 1_555
C29 C35 1_555 1_555
C31 C32 1_555 1_555
C33 C34 1_555 1_555
C34 C35 1_555 1_555
N4 C4 1_555 1_555
C4 W1_2 1_555 1_555
C8 H9 1_555 1_555
H11 C8 1_555 1_555
C10 H13 1_555 1_555
H14 C10 1_555 1_555
H15 C10 1_555 1_555
C11 H16 1_555 1_555
C12 C11 1_555 1_555
H17 C12 1_555 1_555
C13 N7 1_555 1_555
C14 C11 1_555 1_555
H18 C14 1_555 1_555
C15 N7 1_555 1_555
C16 N9 1_555 1_555
C19 N9 1_555 1_555
H24 C19 1_555 1_555
N10 C20 1_555 1_555
C20 W1_2 1_555 1_555
N11 C21 1_555 1_555
C21 W1_2 1_555 1_555
N12 C22 1_555 1_555
C22 W1_2 1_555 1_555
C24 H26 1_555 1_555
H27 C24 1_555 1_555
N14 Mn2 1_555 1_555
C25 H28 1_555 1_555
H29 C25 1_555 1_555
H30 C25 1_555 1_555
N15 Mn2 1_555 1_555
H31 N15 1_555 1_555
C26 C24 1_555 1_555
H32 C26 1_555 1_555
H33 C26 1_555 1_555
N17 Mn2 1_555 1_555
H37 N17 1_555 1_555
C36 N17 1_555 1_555
H44 C36 1_555 1_555
H45 C36 1_555 1_555
H46 C36 1_555 1_555
C37 N17 1_555 1_555
H47 C37 1_555 1_555
H48 C37 1_555 1_555
Mn3 N11 1_555 1_555
N19 Mn2 1_555 1_555
C8 C9 1_555 1_555
C9 C13 1_555 1_555
C10 C16 1_555 1_555
C12 C13 1_555 1_555
C14 C15 1_555 1_555
C15 C16 1_555 1_555
C24 N15 1_555 1_555
N14 C26 1_555 1_555
C25 N15 1_555 1_555
W1_3 C1_2 1_555 1_555
Mn3 N4_2 1_555 1_555
N1_2 C1_2 1_555 1_555
N3_2 C3_2 1_555 1_555
C3_2 W1_3 1_555 1_555
N4_2 C4_2 1_555 1_555
C4_2 W1_3 1_555 1_555
C5_2 H1_2 1_555 1_555
H2_2 C5_2 1_555 1_555
N5_2 Mn3 1_555 1_555
H4_2 C6_2 1_555 1_555
H5_2 C6_2 1_555 1_555
N6_2 Mn3 1_555 1_555
H6_2 N6_2 1_555 1_555
C7_2 C5_2 1_555 1_555
H7_2 C7_2 1_555 1_555
H8_2 C7_2 1_555 1_555
N7_2 Mn3 1_555 1_555
C8_2 H9_2 1_555 1_555
H10_2 C8_2 1_555 1_555
H11_2 C8_2 1_555 1_555
N8_2 Mn3 1_555 1_555
H12_2 N8_2 1_555 1_555
C9_2 N5_2 1_555 1_555
N9_2 Mn3 1_555 1_555
C10_2 H13_2 1_555 1_555
H14_2 C10_2 1_555 1_555
H15_2 C10_2 1_555 1_555
C11_2 H16_2 1_555 1_555
C12_2 C11_2 1_555 1_555
H17_2 C12_2 1_555 1_555
C13_2 N7_2 1_555 1_555
C14_2 C11_2 1_555 1_555
H18_2 C14_2 1_555 1_555
C15_2 N7_2 1_555 1_555
C16_2 N9_2 1_555 1_555
C17_2 N8_2 1_555 1_555
H19_2 C17_2 1_555 1_555
H20_2 C17_2 1_555 1_555
H21_2 C17_2 1_555 1_555
C18_2 N8_2 1_555 1_555
H22_2 C18_2 1_555 1_555
H23_2 C18_2 1_555 1_555
C19_2 N9_2 1_555 1_555
H24_2 C19_2 1_555 1_555
H25_2 C19_2 1_555 1_555
N11_2 C21_2 1_555 1_555
C21_2 W1_3 1_555 1_555
Mn3_2 N11_2 1_555 1_555
C5_2 N6_2 1_555 1_555
N5_2 C7_2 1_555 1_555
C6_2 N6_2 1_555 1_555
C8_2 C9_2 1_555 1_555
C9_2 C13_2 1_555 1_555
C10_2 C16_2 1_555 1_555
C12_2 C13_2 1_555 1_555
C14_2 C15_2 1_555 1_555
C15_2 C16_2 1_555 1_555
C18_2 C19_2 1_555 1_555
N19 C2_2 1_555 1_555
C2_2 W1_4 1_555 1_555
Mn2_2 N13_2 1_555 1_555
N10_2 C20_2 1_555 1_555
C20_2 W1_4 1_555 1_555
N12_2 C22_2 1_555 1_555
C22_2 W1_4 1_555 1_555
N13_2 C23_2 1_555 1_555
C23_2 W1_4 1_555 1_555
C24_2 H26_2 1_555 1_555
H27_2 C24_2 1_555 1_555
N14_2 Mn2_2 1_555 1_555
C25_2 H28_2 1_555 1_555
H29_2 C25_2 1_555 1_555
H30_2 C25_2 1_555 1_555
N15_2 Mn2_2 1_555 1_555
H31_2 N15_2 1_555 1_555
C26_2 C24_2 1_555 1_555
H32_2 C26_2 1_555 1_555
H33_2 C26_2 1_555 1_555
N16_2 Mn2_2 1_555 1_555
C27_2 H34_2 1_555 1_555
H35_2 C27_2 1_555 1_555
H36_2 C27_2 1_555 1_555
N17_2 Mn2_2 1_555 1_555
H37_2 N17_2 1_555 1_555
C28_2 N14_2 1_555 1_555
N18_2 Mn2_2 1_555 1_555
C29_2 H38_2 1_555 1_555
H39_2 C29_2 1_555 1_555
H40_2 C29_2 1_555 1_555
C30_2 H41_2 1_555 1_555
C31_2 C30_2 1_555 1_555
H42_2 C31_2 1_555 1_555
C32_2 N16_2 1_555 1_555
C33_2 C30_2 1_555 1_555
H43_2 C33_2 1_555 1_555
C34_2 N16_2 1_555 1_555
C35_2 N18_2 1_555 1_555
C36_2 N17_2 1_555 1_555
H44_2 C36_2 1_555 1_555
H45_2 C36_2 1_555 1_555
H46_2 C36_2 1_555 1_555
C37_2 N17_2 1_555 1_555
H47_2 C37_2 1_555 1_555
H48_2 C37_2 1_555 1_555
C38_2 N18_2 1_555 1_555
H49_2 C38_2 1_555 1_555
H50_2 C38_2 1_555 1_555
N19_2 Mn2_2 1_555 1_555
C24_2 N15_2 1_555 1_555
N14_2 C26_2 1_555 1_555
C25_2 N15_2 1_555 1_555
C27_2 C28_2 1_555 1_555
C28_2 C32_2 1_555 1_555
C29_2 C35_2 1_555 1_555
C31_2 C32_2 1_555 1_555
C33_2 C34_2 1_555 1_555
C34_2 C35_2 1_555 1_555
C37_2 C38_2 1_555 1_555
N19_2 C2_3 1_555 1_555
C2_3 W1_5 1_555 1_555
Mn4 N13_3 1_555 1_555
N10_3 C20_3 1_555 1_555
C20_3 W1_5 1_555 1_555
N12_3 C22_3 1_555 1_555
C22_3 W1_5 1_555 1_555
N13_3 C23_3 1_555 1_555
C23_3 W1_5 1_555 1_555
C24_3 H26_3 1_555 1_555
H27_3 C24_3 1_555 1_555
N14_3 Mn4 1_555 1_555
H29_3 C25_3 1_555 1_555
H30_3 C25_3 1_555 1_555
N15_3 Mn4 1_555 1_555
H31_3 N15_3 1_555 1_555
C26_3 C24_3 1_555 1_555
H32_3 C26_3 1_555 1_555
H33_3 C26_3 1_555 1_555
N16_3 Mn4 1_555 1_555
C27_3 H34_3 1_555 1_555
H35_3 C27_3 1_555 1_555
H36_3 C27_3 1_555 1_555
N17_3 Mn4 1_555 1_555
H37_3 N17_3 1_555 1_555
C28_3 N14_3 1_555 1_555
N18_3 Mn4 1_555 1_555
C29_3 H38_3 1_555 1_555
H39_3 C29_3 1_555 1_555
H40_3 C29_3 1_555 1_555
C30_3 H41_3 1_555 1_555
C31_3 C30_3 1_555 1_555
H42_3 C31_3 1_555 1_555
C32_3 N16_3 1_555 1_555
C33_3 C30_3 1_555 1_555
H43_3 C33_3 1_555 1_555
C34_3 N16_3 1_555 1_555
C35_3 N18_3 1_555 1_555
C36_3 N17_3 1_555 1_555
H44_3 C36_3 1_555 1_555
H45_3 C36_3 1_555 1_555
H46_3 C36_3 1_555 1_555
C37_3 N17_3 1_555 1_555
H47_3 C37_3 1_555 1_555
H48_3 C37_3 1_555 1_555
C38_3 N18_3 1_555 1_555
H49_3 C38_3 1_555 1_555
H50_3 C38_3 1_555 1_555
C24_3 N15_3 1_555 1_555
N14_3 C26_3 1_555 1_555
C25_3 N15_3 1_555 1_555
C27_3 C28_3 1_555 1_555
C28_3 C32_3 1_555 1_555
C29_3 C35_3 1_555 1_555
C31_3 C32_3 1_555 1_555
C33_3 C34_3 1_555 1_555
C34_3 C35_3 1_555 1_555
C37_3 C38_3 1_555 1_555
W1_6 C1_3 1_555 1_555
Mn3_2 N4_3 1_555 1_555
N1_3 C1_3 1_555 1_555
N3_3 C3_3 1_555 1_555
C3_3 W1_6 1_555 1_555
N4_3 C4_3 1_555 1_555
C4_3 W1_6 1_555 1_555
C5_3 H1_3 1_555 1_555
H2_3 C5_3 1_555 1_555
N5_3 Mn3_2 1_555 1_555
C6_3 H3_2 1_555 1_555
H4_3 C6_3 1_555 1_555
H5_3 C6_3 1_555 1_555
N6_3 Mn3_2 1_555 1_555
H6_3 N6_3 1_555 1_555
C7_3 C5_3 1_555 1_555
H7_3 C7_3 1_555 1_555
H8_3 C7_3 1_555 1_555
N7_3 Mn3_2 1_555 1_555
C8_3 H9_3 1_555 1_555
H10_3 C8_3 1_555 1_555
H11_3 C8_3 1_555 1_555
N8_3 Mn3_2 1_555 1_555
H12_3 N8_3 1_555 1_555
C9_3 N5_3 1_555 1_555
N9_3 Mn3_2 1_555 1_555
C10_3 H13_3 1_555 1_555
H14_3 C10_3 1_555 1_555
H15_3 C10_3 1_555 1_555
C11_3 H16_3 1_555 1_555
C12_3 C11_3 1_555 1_555
H17_3 C12_3 1_555 1_555
C13_3 N7_3 1_555 1_555
C14_3 C11_3 1_555 1_555
H18_3 C14_3 1_555 1_555
C15_3 N7_3 1_555 1_555
C16_3 N9_3 1_555 1_555
C17_3 N8_3 1_555 1_555
H19_3 C17_3 1_555 1_555
H20_3 C17_3 1_555 1_555
H21_3 C17_3 1_555 1_555
C18_3 N8_3 1_555 1_555
H22_3 C18_3 1_555 1_555
H23_3 C18_3 1_555 1_555
C19_3 N9_3 1_555 1_555
H24_3 C19_3 1_555 1_555
H25_3 C19_3 1_555 1_555
N20 C21_3 1_555 1_555
C21_3 W1_6 1_555 1_555
C5_3 N6_3 1_555 1_555
N5_3 C7_3 1_555 1_555
C6_3 N6_3 1_555 1_555
C8_3 C9_3 1_555 1_555
C9_3 C13_3 1_555 1_555
C10_3 C16_3 1_555 1_555
C12_3 C13_3 1_555 1_555
C14_3 C15_3 1_555 1_555
C15_3 C16_3 1_555 1_555
C18_3 C19_3 1_555 1_555

#END
