
###############################################################################
#
# This file contains modified crystal structure data generated from the
# MOF subset of the Cambridge Structural Database (CSD) v543 
# hosted by the Cambridge Crystallographic Data Centre (CCDC).
#
# This work is licensed under the Creative Commons
# Attribution-NonCommercial-ShareAlike 4.0 International License.
# To view a copy of this license, visit
# http://creativecommons.org/licenses/by-nc-sa/4.0/
# or send a letter to
# Creative Commons, PO Box 1866, Mountain View, CA 94042, USA.
#
# CIF created using the CSD Python API on 29 September 2022
# The structure has been converted into the P1 space group
# The structure has a 3D framework
# The original CSD entry HALBAB is in the trigonal crystal system
# The original CSD entry HALBAB is in a Sohncke space group
# The framework has been calculated to contain at least 10.0% void space
# The void calculation uses a probe of radius 1.32A, grid spacing 0.4
#
###############################################################################

data_HALBAB
_chemical_formula_moiety         '(C114 H150 Mn6 N54 W6)n'
_symmetry_cell_setting           triclinic
_symmetry_space_group_name_H-M   'P 1'
_symmetry_Int_Tables_number      1
_space_group_name_Hall           'P 1'
loop_
_symmetry_equiv_pos_site_id
_symmetry_equiv_pos_as_xyz
1 x,y,z
_cell_length_a                   19.0123(5)
_cell_length_b                   19.0123(5)
_cell_length_c                   12.4699(4)
_cell_angle_alpha                90
_cell_angle_beta                 90
_cell_angle_gamma                120
_cell_volume                     3903.58
loop_
_atom_site_label
_atom_site_type_symbol
_atom_site_fract_x
_atom_site_fract_y
_atom_site_fract_z
W1 W 0.49614(3) 0.49614(3) 0.000000
N4 N 0.3186(6) 0.4894(6) 0.0186(8)
C4 C 0.3814(7) 0.4929(7) 0.0161(9)
N7 N 0.1437(7) 0.4864(9) 0.1002(11)
C8 C 0.1788(14) 0.6911(14) 0.009(2)
H9 H 0.218191 0.733843 0.056038
H10 H 0.123893 0.679326 0.027036
C9 C 0.1847(11) 0.6136(12) 0.0231(19)
N9 N 0.1386(8) 0.3491(8) 0.0621(9)
C10 C 0.0899(13) 0.2910(18) 0.2435(16)
H13 H 0.033979 0.273511 0.265210
H14 H 0.125960 0.313609 0.305698
H15 H 0.092857 0.244412 0.215604
C11 C 0.0803(11) 0.5290(13) 0.2554(17)
H16 H 0.059102 0.544993 0.313470
C12 C 0.1070(13) 0.5787(16) 0.1801(19)
H17 H 0.102334 0.626163 0.177443
C13 C 0.1430(11) 0.5585(12) 0.1030(16)
C14 C 0.0757(12) 0.4519(15) 0.2704(17)
H18 H 0.052789 0.418588 0.331872
C15 C 0.1116(9) 0.4299(12) 0.1764(14)
C16 C 0.1162(9) 0.3555(12) 0.1570(13)
C19 C 0.1406(12) 0.2768(10) 0.0246(15)
H25 H 0.155767 0.252882 0.084523
Mn2 Mn 0.46411(11) 0.19886(11) 0.05133(15)
N10 N 0.4037(7) 0.3830(7) 0.2147(9)
C20 C 0.4369(6) 0.4230(6) 0.1431(9)
N11 N 0.5422(6) 0.6394(7) 0.1824(10)
C21 C 0.5256(6) 0.5896(7) 0.1221(12)
N12 N 0.6622(8) 0.5330(9) 0.1335(13)
C22 C 0.6033(8) 0.5181(9) 0.0883(13)
C24 C 0.6240(9) 0.3365(11) 0.1623(14)
H26 H 0.657210 0.368350 0.224279
H27 H 0.631875 0.374999 0.103928
N14 N 0.5984(7) 0.2286(8) 0.0380(13)
C25 C 0.5199(11) 0.2806(15) 0.2997(13)
H28 H 0.556720 0.329821 0.339836
H29 H 0.525931 0.235168 0.325196
H30 H 0.463751 0.268054 0.310538
N15 N 0.5385(9) 0.2929(11) 0.1935(12)
H31 H 0.524055 0.335885 0.178431
C26 C 0.6534(10) 0.2798(12) 0.1249(17)
H32 H 0.709797 0.311425 0.097993
H33 H 0.652298 0.245295 0.185111
H36 H 0.709242 0.190754 0.065955
N17 N 0.3539(6) 0.1930(6) 0.1446(9)
H37 H 0.375906 0.241177 0.193269
C36 C 0.3088(11) 0.1196(9) 0.2115(14)
H44 H 0.280692 0.071753 0.165242
H45 H 0.268874 0.124847 0.255431
H46 H 0.346801 0.113542 0.258372
C37 C 0.3009(10) 0.2017(11) 0.0644(13)
H47 H 0.330077 0.257125 0.033666
H48 H 0.251460 0.194664 0.100473
H49 H 0.235603 0.086245 0.001637
Mn3 Mn 0.53589(11) 0.73475(16) 0.28200(15)
N19 N 0.4578(6) 0.0972(9) 0.1509(10)
W1_2 W 0.49614(3) 0.49614(3) 1.000000
Mn1 Mn 0.19886(11) 0.46411(11) 0.94867(15)
N1 N 0.3830(7) 0.4037(7) 0.7853(9)
C1 C 0.4230(6) 0.4369(6) 0.8569(9)
N2 N 0.6394(7) 0.5422(6) 0.8176(10)
C2 C 0.5896(7) 0.5256(6) 0.8779(12)
N3 N 0.5330(9) 0.6622(8) 0.8665(13)
C3 C 0.5181(9) 0.6033(8) 0.9117(13)
C5 C 0.3365(11) 0.6240(9) 0.8377(14)
H1 H 0.368350 0.657210 0.775721
H2 H 0.374999 0.631875 0.896072
N5 N 0.2286(8) 0.5984(7) 0.9620(13)
C6 C 0.2806(15) 0.5199(11) 0.7003(13)
H3 H 0.329821 0.556720 0.660164
H4 H 0.235168 0.525931 0.674804
H5 H 0.268054 0.463751 0.689462
N6 N 0.2929(11) 0.5385(9) 0.8065(12)
H6 H 0.335885 0.524055 0.821569
C7 C 0.2798(12) 0.6534(10) 0.8751(17)
H7 H 0.311425 0.709797 0.902007
H8 H 0.245295 0.652298 0.814889
H11 H 0.190754 0.709242 0.934045
N8 N 0.1930(6) 0.3539(6) 0.8554(9)
H12 H 0.241177 0.375906 0.806731
C17 C 0.1196(9) 0.3088(11) 0.7885(14)
H19 H 0.071753 0.280692 0.834758
H20 H 0.124847 0.268874 0.744569
H21 H 0.113542 0.346801 0.741628
C18 C 0.2017(11) 0.3009(10) 0.9356(13)
H22 H 0.257125 0.330077 0.966334
H23 H 0.194664 0.251460 0.899527
H24 H 0.086245 0.235603 0.998363
N13 N 0.4894(6) 0.3186(6) 0.9814(8)
C23 C 0.4929(7) 0.3814(7) 0.9839(9)
N16 N 0.4864(9) 0.1437(7) 0.8998(11)
C27 C 0.6911(14) 0.1788(14) 0.991(2)
H34 H 0.733843 0.218191 0.943962
H35 H 0.679326 0.123893 0.972964
C28 C 0.6136(12) 0.1847(11) 0.9769(19)
N18 N 0.3491(8) 0.1386(8) 0.9379(9)
C29 C 0.2910(18) 0.0899(13) 0.7565(16)
H38 H 0.273511 0.033979 0.734790
H39 H 0.313609 0.125960 0.694302
H40 H 0.244412 0.092857 0.784396
C30 C 0.5290(13) 0.0803(11) 0.7446(17)
H41 H 0.544993 0.059102 0.686530
C31 C 0.5787(16) 0.1070(13) 0.8199(19)
H42 H 0.626163 0.102334 0.822557
C32 C 0.5585(12) 0.1430(11) 0.8970(16)
C33 C 0.4519(15) 0.0757(12) 0.7296(17)
H43 H 0.418588 0.052789 0.668128
C34 C 0.4299(12) 0.1116(9) 0.8236(14)
C35 C 0.3555(12) 0.1162(9) 0.8430(13)
C38 C 0.2768(10) 0.1406(12) 0.9754(15)
H50 H 0.252882 0.155767 0.915477
Mn4 Mn 0.73475(16) 0.53589(11) 0.71800(15)
N20 N 0.0972(9) 0.4578(6) 0.8491(10)
W1_3 W 0.50386(3) -0.00000(4) 0.333333
C2_2 C 0.4744(6) 0.0640(9) 0.2112(12)
Mn2_2 Mn 0.80114(11) 0.26525(16) 0.38466(15)
N10_2 N 0.6170(7) 0.0207(10) 0.5480(9)
C20_2 C 0.5770(6) 0.0139(8) 0.4764(9)
N12_2 N 0.4670(9) 0.1292(12) 0.4668(13)
C22_2 C 0.4819(9) 0.0852(12) 0.4216(13)
N13_2 N 0.6814(6) 0.1708(8) 0.3147(8)
C23_2 C 0.6186(7) 0.1115(10) 0.3172(9)
C24_2 C 0.6635(11) 0.2875(14) 0.4956(14)
H26_2 H 0.631650 0.288860 0.557612
H27_2 H 0.625001 0.256876 0.437261
N14_2 N 0.7714(8) 0.3698(11) 0.3713(13)
C25_2 C 0.7194(15) 0.2393(19) 0.6330(13)
H28_2 H 0.670179 0.226899 0.673169
H29_2 H 0.764832 0.290763 0.658529
H30_2 H 0.731946 0.195697 0.643871
N15_2 N 0.7071(11) 0.2456(14) 0.5268(12)
H31_2 H 0.664115 0.188170 0.511764
C26_2 C 0.7202(12) 0.3736(16) 0.4582(17)
H32_2 H 0.688575 0.398372 0.431326
H33_2 H 0.754705 0.407003 0.518444
N16_2 N 0.8563(7) 0.3427(11) 0.2331(11)
C27_2 C 0.8212(14) 0.5123(20) 0.324(2)
H34_2 H 0.781809 0.515652 0.277295
H35_2 H 0.876107 0.555433 0.306297
H36_2 H 0.809246 0.518488 0.399288
N17_2 N 0.8070(6) 0.1609(8) 0.4779(9)
H37_2 H 0.758823 0.134729 0.526602
C28_2 C 0.8153(11) 0.4289(16) 0.3102(19)
N18_2 N 0.8614(8) 0.2105(11) 0.2712(9)
C29_2 C 0.9101(13) 0.2011(22) 0.0898(16)
H38_2 H 0.966021 0.239532 0.068123
H39_2 H 0.874040 0.187649 0.027635
H40_2 H 0.907143 0.151555 0.117729
C30_2 C 0.9197(11) 0.4487(17) 0.0779(17)
H41_2 H 0.940898 0.485891 0.019863
C31_2 C 0.8930(13) 0.4717(21) 0.1532(19)
H42_2 H 0.897666 0.523829 0.155890
C32_2 C 0.8570(11) 0.4155(16) 0.2303(16)
C33_2 C 0.9243(12) 0.3762(19) 0.0629(17)
H43_2 H 0.947211 0.365799 0.001461
C34_2 C 0.8884(9) 0.3183(15) 0.1569(14)
C35_2 C 0.8838(9) 0.2393(15) 0.1763(13)
C36_2 C 0.8804(9) 0.1892(14) 0.5448(14)
H44_2 H 0.928247 0.208939 0.498575
H45_2 H 0.875153 0.144027 0.588764
H46_2 H 0.886458 0.233259 0.591705
C37_2 C 0.7983(11) 0.0992(15) 0.3977(13)
H47_2 H 0.742875 0.072952 0.366999
H48_2 H 0.805336 0.056796 0.433806
C38_2 C 0.8594(12) 0.1362(16) 0.3087(15)
H49_2 H 0.913755 0.149358 0.334970
H50_2 H 0.844233 0.097115 0.248810
N19_2 N 0.9028(9) 0.3606(11) 0.4843(10)
W1_4 W 0.50386(3) 1.00000(4) 0.333333
N1_2 N 0.5963(7) 0.9793(10) 0.1186(9)
C1_2 C 0.5631(6) 0.9861(8) 0.1902(9)
N3_2 N 0.3378(8) 0.8708(12) 0.1998(13)
C3_2 C 0.3967(8) 0.9148(12) 0.2450(13)
N4_2 N 0.5106(6) 0.8292(8) 0.3519(8)
C4_2 C 0.5071(7) 0.8885(10) 0.3494(9)
C5_2 C 0.3760(9) 0.7125(14) 0.1710(14)
H1_2 H 0.342790 0.711140 0.109054
H2_2 H 0.368125 0.743124 0.229405
N5_2 N 0.4016(7) 0.6302(11) 0.2953(13)
C6_2 C 0.4801(11) 0.7607(19) 0.0336(13)
H4_2 H 0.474069 0.709237 0.008137
H5_2 H 0.536249 0.804303 0.022795
N6_2 N 0.4615(9) 0.7544(14) 0.1398(12)
H6_2 H 0.475945 0.811830 0.154902
C7_2 C 0.3466(10) 0.6264(16) 0.2084(17)
H7_2 H 0.290203 0.601628 0.235340
H8_2 H 0.347702 0.592997 0.148222
N7_2 N 0.5136(9) 0.6573(11) 0.4335(11)
C8_2 C 0.3089(14) 0.4877(20) 0.342(2)
H9_2 H 0.266157 0.484348 0.389371
H10_2 H 0.320674 0.444567 0.360369
H11_2 H 0.290758 0.481512 0.267378
N8_2 N 0.6461(6) 0.8391(8) 0.1887(9)
H12_2 H 0.624094 0.865271 0.140064
C9_2 C 0.3864(12) 0.5711(16) 0.3564(19)
N9_2 N 0.6509(8) 0.7895(11) 0.3954(9)
C10_2 C 0.7090(18) 0.7989(22) 0.5768(16)
H13_2 H 0.726489 0.760468 0.598543
H14_2 H 0.686391 0.812351 0.639031
H15_2 H 0.755588 0.848445 0.548937
C11_2 C 0.4710(13) 0.5513(17) 0.5887(17)
H16_2 H 0.455007 0.514109 0.646803
C12_2 C 0.4213(16) 0.5283(21) 0.5134(19)
H17_2 H 0.373837 0.476171 0.510776
C13_2 C 0.4415(12) 0.5845(16) 0.4363(16)
C14_2 C 0.5481(15) 0.6238(19) 0.6037(17)
H18_2 H 0.581412 0.634201 0.665205
C15_2 C 0.5701(12) 0.6817(15) 0.5097(14)
C16_2 C 0.6445(12) 0.7607(15) 0.4903(13)
C17_2 C 0.6912(11) 0.8108(14) 0.1218(14)
H19_2 H 0.719308 0.791061 0.168091
H20_2 H 0.731126 0.855973 0.077902
H21_2 H 0.653199 0.766741 0.074961
C18_2 C 0.6991(10) 0.9008(15) 0.2689(13)
H22_2 H 0.669923 0.927048 0.299667
H23_2 H 0.748540 0.943204 0.232860
C19_2 C 0.7232(10) 0.8638(16) 0.3579(15)
H24_2 H 0.764397 0.850642 0.331696
H25_2 H 0.747118 0.902885 0.417856
N11_2 N 0.3606(7) 0.9028(9) 0.5157(10)
C21_2 C 0.4104(7) 0.9360(9) 0.4554(12)
Mn3_2 Mn 0.26525(16) 0.80114(19) 0.61534(15)
W1_5 W 0.00000(4) 0.50386(3) 0.666667
N1_3 N 0.0207(10) 0.6170(7) 0.4520(9)
C1_3 C 0.0139(8) 0.5770(6) 0.5236(9)
N3_3 N 0.1292(12) 0.4670(9) 0.5332(13)
C3_3 C 0.0852(12) 0.4819(9) 0.5784(13)
N4_3 N 0.1708(8) 0.6814(6) 0.6853(8)
C4_3 C 0.1115(10) 0.6186(7) 0.6828(9)
C5_3 C 0.2875(14) 0.6635(11) 0.5044(14)
H1_3 H 0.288860 0.631650 0.442388
H2_3 H 0.256876 0.625001 0.562739
N5_3 N 0.3698(11) 0.7714(8) 0.6287(13)
C6_3 C 0.2393(19) 0.7194(15) 0.3670(13)
H3_2 H 0.226899 0.670179 0.326831
H4_3 H 0.290763 0.764832 0.341471
H5_3 H 0.195697 0.731946 0.356129
N6_3 N 0.2456(14) 0.7071(11) 0.4732(12)
H6_3 H 0.188170 0.664115 0.488236
C7_3 C 0.3736(16) 0.7202(12) 0.5418(17)
H7_3 H 0.398372 0.688575 0.568674
H8_3 H 0.407003 0.754705 0.481556
N7_3 N 0.3427(11) 0.8563(7) 0.7669(11)
C8_3 C 0.5123(20) 0.8212(14) 0.676(2)
H9_3 H 0.515652 0.781809 0.722705
H10_3 H 0.555433 0.876107 0.693703
H11_3 H 0.518488 0.809246 0.600712
N8_3 N 0.1609(8) 0.8070(6) 0.5221(9)
H12_3 H 0.134729 0.758823 0.473398
C9_3 C 0.4289(16) 0.8153(11) 0.6898(19)
N9_3 N 0.2105(11) 0.8614(8) 0.7288(9)
C10_3 C 0.2011(22) 0.9101(13) 0.9102(16)
H13_3 H 0.239532 0.966021 0.931877
H14_3 H 0.187649 0.874040 0.972365
H15_3 H 0.151555 0.907143 0.882271
C11_3 C 0.4487(17) 0.9197(11) 0.9221(17)
H16_3 H 0.485891 0.940898 0.980137
C12_3 C 0.4717(21) 0.8930(13) 0.8468(19)
H17_3 H 0.523829 0.897666 0.844110
C13_3 C 0.4155(16) 0.8570(11) 0.7697(16)
C14_3 C 0.3762(19) 0.9243(12) 0.9371(17)
H18_3 H 0.365799 0.947211 0.998539
C15_3 C 0.3183(15) 0.8884(9) 0.8431(14)
C16_3 C 0.2393(15) 0.8838(9) 0.8237(13)
C17_3 C 0.1892(14) 0.8804(9) 0.4552(14)
H19_3 H 0.208939 0.928247 0.501425
H20_3 H 0.144027 0.875153 0.411236
H21_3 H 0.233259 0.886458 0.408295
C18_3 C 0.0992(15) 0.7983(11) 0.6023(13)
H22_3 H 0.072952 0.742875 0.633001
H23_3 H 0.056796 0.805336 0.566194
C19_3 C 0.1362(16) 0.8594(12) 0.6913(15)
H24_3 H 0.149358 0.913755 0.665030
H25_3 H 0.097115 0.844233 0.751190
C21_3 C 0.0640(9) 0.4744(6) 0.7888(12)
W1_6 W 1.00000(4) 0.50386(3) 0.666667
C2_3 C 0.9360(9) 0.4104(7) 0.5446(12)
N10_3 N 0.9793(10) 0.5963(7) 0.8814(9)
C20_3 C 0.9861(8) 0.5631(6) 0.8098(9)
N12_3 N 0.8708(12) 0.3378(8) 0.8002(13)
C22_3 C 0.9148(12) 0.3967(8) 0.7550(13)
N13_3 N 0.8292(8) 0.5106(6) 0.6481(8)
C23_3 C 0.8885(10) 0.5071(7) 0.6506(9)
C24_3 C 0.7125(14) 0.3760(9) 0.8290(14)
H26_3 H 0.711140 0.342790 0.890946
H27_3 H 0.743124 0.368125 0.770595
N14_3 N 0.6302(11) 0.4016(7) 0.7047(13)
C25_3 C 0.7607(19) 0.4801(11) 0.9664(13)
H29_3 H 0.709237 0.474069 0.991863
H30_3 H 0.804303 0.536249 0.977205
N15_3 N 0.7544(14) 0.4615(9) 0.8602(12)
H31_3 H 0.811830 0.475945 0.845098
C26_3 C 0.6264(16) 0.3466(10) 0.7916(17)
H32_3 H 0.601628 0.290203 0.764660
H33_3 H 0.592997 0.347702 0.851778
N16_3 N 0.6573(11) 0.5136(9) 0.5665(11)
C27_3 C 0.4877(20) 0.3089(14) 0.658(2)
H34_3 H 0.484348 0.266157 0.610629
H35_3 H 0.444567 0.320674 0.639631
H36_3 H 0.481512 0.290758 0.732622
N17_3 N 0.8391(8) 0.6461(6) 0.8113(9)
H37_3 H 0.865271 0.624094 0.859936
C28_3 C 0.5711(16) 0.3864(12) 0.6436(19)
N18_3 N 0.7895(11) 0.6509(8) 0.6046(9)
C29_3 C 0.7989(22) 0.7090(18) 0.4232(16)
H38_3 H 0.760468 0.726489 0.401457
H39_3 H 0.812351 0.686391 0.360969
H40_3 H 0.848445 0.755588 0.451063
C30_3 C 0.5513(17) 0.4710(13) 0.4113(17)
H41_3 H 0.514109 0.455007 0.353197
C31_3 C 0.5283(21) 0.4213(16) 0.4866(19)
H42_3 H 0.476171 0.373837 0.489224
C32_3 C 0.5845(16) 0.4415(12) 0.5637(16)
C33_3 C 0.6238(19) 0.5481(15) 0.3963(17)
H43_3 H 0.634201 0.581412 0.334795
C34_3 C 0.6817(15) 0.5701(12) 0.4903(14)
C35_3 C 0.7607(15) 0.6445(12) 0.5097(13)
C36_3 C 0.8108(14) 0.6912(11) 0.8782(14)
H44_3 H 0.791061 0.719308 0.831909
H45_3 H 0.855973 0.731126 0.922098
H46_3 H 0.766741 0.653199 0.925039
C37_3 C 0.9008(15) 0.6991(10) 0.7311(13)
H47_3 H 0.927048 0.669923 0.700333
H48_3 H 0.943204 0.748540 0.767140
C38_3 C 0.8638(16) 0.7232(10) 0.6421(15)
H49_3 H 0.850642 0.764397 0.668304
H50_3 H 0.902885 0.747118 0.582144
H3_3 H 0.443280 0.773101 0.993497
H28_3 H 0.773101 0.443280 0.006503
loop_
_geom_bond_atom_site_label_1
_geom_bond_atom_site_label_2
_geom_bond_site_symmetry_1
_geom_bond_site_symmetry_2
N4 C4 1_555 1_555
C4 W1 1_555 1_555
C8 H9 1_555 1_555
H10 C8 1_555 1_555
C10 H13 1_555 1_555
H14 C10 1_555 1_555
H15 C10 1_555 1_555
C11 H16 1_555 1_555
C12 C11 1_555 1_555
H17 C12 1_555 1_555
C13 N7 1_555 1_555
C14 C11 1_555 1_555
H18 C14 1_555 1_555
C15 N7 1_555 1_555
C16 N9 1_555 1_555
C19 N9 1_555 1_555
H25 C19 1_555 1_555
N10 C20 1_555 1_555
C20 W1 1_555 1_555
N11 C21 1_555 1_555
C21 W1 1_555 1_555
N12 C22 1_555 1_555
C22 W1 1_555 1_555
C24 H26 1_555 1_555
H27 C24 1_555 1_555
N14 Mn2 1_555 1_555
C25 H28 1_555 1_555
H29 C25 1_555 1_555
H30 C25 1_555 1_555
N15 Mn2 1_555 1_555
H31 N15 1_555 1_555
C26 C24 1_555 1_555
H32 C26 1_555 1_555
H33 C26 1_555 1_555
N17 Mn2 1_555 1_555
H37 N17 1_555 1_555
C36 N17 1_555 1_555
H44 C36 1_555 1_555
H45 C36 1_555 1_555
H46 C36 1_555 1_555
C37 N17 1_555 1_555
H47 C37 1_555 1_555
H48 C37 1_555 1_555
Mn3 N11 1_555 1_555
N19 Mn2 1_555 1_555
C8 C9 1_555 1_555
C9 C13 1_555 1_555
C10 C16 1_555 1_555
C12 C13 1_555 1_555
C14 C15 1_555 1_555
C15 C16 1_555 1_555
C24 N15 1_555 1_555
N14 C26 1_555 1_555
C25 N15 1_555 1_555
W1_2 C1 1_555 1_555
N1 C1 1_555 1_555
N2 C2 1_555 1_555
C2 W1_2 1_555 1_555
N3 C3 1_555 1_555
C3 W1_2 1_555 1_555
C5 H1 1_555 1_555
H2 C5 1_555 1_555
N5 Mn1 1_555 1_555
C6 H3 1_555 1_555
H4 C6 1_555 1_555
H5 C6 1_555 1_555
N6 Mn1 1_555 1_555
H6 N6 1_555 1_555
C7 C5 1_555 1_555
H7 C7 1_555 1_555
H8 C7 1_555 1_555
N8 Mn1 1_555 1_555
H12 N8 1_555 1_555
C17 N8 1_555 1_555
H19 C17 1_555 1_555
H20 C17 1_555 1_555
H21 C17 1_555 1_555
C18 N8 1_555 1_555
H22 C18 1_555 1_555
H23 C18 1_555 1_555
N13 C23 1_555 1_555
C23 W1_2 1_555 1_555
C27 H34 1_555 1_555
H35 C27 1_555 1_555
C29 H38 1_555 1_555
H39 C29 1_555 1_555
H40 C29 1_555 1_555
C30 H41 1_555 1_555
C31 C30 1_555 1_555
H42 C31 1_555 1_555
C32 N16 1_555 1_555
C33 C30 1_555 1_555
H43 C33 1_555 1_555
C34 N16 1_555 1_555
C35 N18 1_555 1_555
C38 N18 1_555 1_555
H50 C38 1_555 1_555
Mn4 N2 1_555 1_555
N20 Mn1 1_555 1_555
C5 N6 1_555 1_555
N5 C7 1_555 1_555
C6 N6 1_555 1_555
C27 C28 1_555 1_555
C28 C32 1_555 1_555
C29 C35 1_555 1_555
C31 C32 1_555 1_555
C33 C34 1_555 1_555
C34 C35 1_555 1_555
N19 C2_2 1_555 1_555
C2_2 W1_3 1_555 1_555
Mn2_2 N13_2 1_555 1_555
N10_2 C20_2 1_555 1_555
C20_2 W1_3 1_555 1_555
N12_2 C22_2 1_555 1_555
C22_2 W1_3 1_555 1_555
N13_2 C23_2 1_555 1_555
C23_2 W1_3 1_555 1_555
C24_2 H26_2 1_555 1_555
H27_2 C24_2 1_555 1_555
N14_2 Mn2_2 1_555 1_555
C25_2 H28_2 1_555 1_555
H29_2 C25_2 1_555 1_555
H30_2 C25_2 1_555 1_555
N15_2 Mn2_2 1_555 1_555
H31_2 N15_2 1_555 1_555
C26_2 C24_2 1_555 1_555
H32_2 C26_2 1_555 1_555
H33_2 C26_2 1_555 1_555
N16_2 Mn2_2 1_555 1_555
C27_2 H34_2 1_555 1_555
H35_2 C27_2 1_555 1_555
H36_2 C27_2 1_555 1_555
N17_2 Mn2_2 1_555 1_555
H37_2 N17_2 1_555 1_555
C28_2 N14_2 1_555 1_555
N18_2 Mn2_2 1_555 1_555
C29_2 H38_2 1_555 1_555
H39_2 C29_2 1_555 1_555
H40_2 C29_2 1_555 1_555
C30_2 H41_2 1_555 1_555
C31_2 C30_2 1_555 1_555
H42_2 C31_2 1_555 1_555
C32_2 N16_2 1_555 1_555
C33_2 C30_2 1_555 1_555
H43_2 C33_2 1_555 1_555
C34_2 N16_2 1_555 1_555
C35_2 N18_2 1_555 1_555
C36_2 N17_2 1_555 1_555
H44_2 C36_2 1_555 1_555
H45_2 C36_2 1_555 1_555
H46_2 C36_2 1_555 1_555
C37_2 N17_2 1_555 1_555
H47_2 C37_2 1_555 1_555
H48_2 C37_2 1_555 1_555
C38_2 N18_2 1_555 1_555
H49_2 C38_2 1_555 1_555
H50_2 C38_2 1_555 1_555
N19_2 Mn2_2 1_555 1_555
C24_2 N15_2 1_555 1_555
N14_2 C26_2 1_555 1_555
C25_2 N15_2 1_555 1_555
C27_2 C28_2 1_555 1_555
C28_2 C32_2 1_555 1_555
C29_2 C35_2 1_555 1_555
C31_2 C32_2 1_555 1_555
C33_2 C34_2 1_555 1_555
C34_2 C35_2 1_555 1_555
C37_2 C38_2 1_555 1_555
W1_4 C1_2 1_555 1_555
Mn3 N4_2 1_555 1_555
N1_2 C1_2 1_555 1_555
N3_2 C3_2 1_555 1_555
C3_2 W1_4 1_555 1_555
N4_2 C4_2 1_555 1_555
C4_2 W1_4 1_555 1_555
C5_2 H1_2 1_555 1_555
H2_2 C5_2 1_555 1_555
N5_2 Mn3 1_555 1_555
H4_2 C6_2 1_555 1_555
H5_2 C6_2 1_555 1_555
N6_2 Mn3 1_555 1_555
H6_2 N6_2 1_555 1_555
C7_2 C5_2 1_555 1_555
H7_2 C7_2 1_555 1_555
H8_2 C7_2 1_555 1_555
N7_2 Mn3 1_555 1_555
C8_2 H9_2 1_555 1_555
H10_2 C8_2 1_555 1_555
H11_2 C8_2 1_555 1_555
N8_2 Mn3 1_555 1_555
H12_2 N8_2 1_555 1_555
C9_2 N5_2 1_555 1_555
N9_2 Mn3 1_555 1_555
C10_2 H13_2 1_555 1_555
H14_2 C10_2 1_555 1_555
H15_2 C10_2 1_555 1_555
C11_2 H16_2 1_555 1_555
C12_2 C11_2 1_555 1_555
H17_2 C12_2 1_555 1_555
C13_2 N7_2 1_555 1_555
C14_2 C11_2 1_555 1_555
H18_2 C14_2 1_555 1_555
C15_2 N7_2 1_555 1_555
C16_2 N9_2 1_555 1_555
C17_2 N8_2 1_555 1_555
H19_2 C17_2 1_555 1_555
H20_2 C17_2 1_555 1_555
H21_2 C17_2 1_555 1_555
C18_2 N8_2 1_555 1_555
H22_2 C18_2 1_555 1_555
H23_2 C18_2 1_555 1_555
C19_2 N9_2 1_555 1_555
H24_2 C19_2 1_555 1_555
H25_2 C19_2 1_555 1_555
N11_2 C21_2 1_555 1_555
C21_2 W1_4 1_555 1_555
Mn3_2 N11_2 1_555 1_555
C5_2 N6_2 1_555 1_555
N5_2 C7_2 1_555 1_555
C6_2 N6_2 1_555 1_555
C8_2 C9_2 1_555 1_555
C9_2 C13_2 1_555 1_555
C10_2 C16_2 1_555 1_555
C12_2 C13_2 1_555 1_555
C14_2 C15_2 1_555 1_555
C15_2 C16_2 1_555 1_555
C18_2 C19_2 1_555 1_555
W1_5 C1_3 1_555 1_555
Mn3_2 N4_3 1_555 1_555
N1_3 C1_3 1_555 1_555
N3_3 C3_3 1_555 1_555
C3_3 W1_5 1_555 1_555
N4_3 C4_3 1_555 1_555
C4_3 W1_5 1_555 1_555
C5_3 H1_3 1_555 1_555
H2_3 C5_3 1_555 1_555
N5_3 Mn3_2 1_555 1_555
C6_3 H3_2 1_555 1_555
H4_3 C6_3 1_555 1_555
H5_3 C6_3 1_555 1_555
N6_3 Mn3_2 1_555 1_555
H6_3 N6_3 1_555 1_555
C7_3 C5_3 1_555 1_555
H7_3 C7_3 1_555 1_555
H8_3 C7_3 1_555 1_555
N7_3 Mn3_2 1_555 1_555
C8_3 H9_3 1_555 1_555
H10_3 C8_3 1_555 1_555
H11_3 C8_3 1_555 1_555
N8_3 Mn3_2 1_555 1_555
H12_3 N8_3 1_555 1_555
C9_3 N5_3 1_555 1_555
N9_3 Mn3_2 1_555 1_555
C10_3 H13_3 1_555 1_555
H14_3 C10_3 1_555 1_555
H15_3 C10_3 1_555 1_555
C11_3 H16_3 1_555 1_555
C12_3 C11_3 1_555 1_555
H17_3 C12_3 1_555 1_555
C13_3 N7_3 1_555 1_555
C14_3 C11_3 1_555 1_555
H18_3 C14_3 1_555 1_555
C15_3 N7_3 1_555 1_555
C16_3 N9_3 1_555 1_555
C17_3 N8_3 1_555 1_555
H19_3 C17_3 1_555 1_555
H20_3 C17_3 1_555 1_555
H21_3 C17_3 1_555 1_555
C18_3 N8_3 1_555 1_555
H22_3 C18_3 1_555 1_555
H23_3 C18_3 1_555 1_555
C19_3 N9_3 1_555 1_555
H24_3 C19_3 1_555 1_555
H25_3 C19_3 1_555 1_555
N20 C21_3 1_555 1_555
C21_3 W1_5 1_555 1_555
C5_3 N6_3 1_555 1_555
N5_3 C7_3 1_555 1_555
C6_3 N6_3 1_555 1_555
C8_3 C9_3 1_555 1_555
C9_3 C13_3 1_555 1_555
C10_3 C16_3 1_555 1_555
C12_3 C13_3 1_555 1_555
C14_3 C15_3 1_555 1_555
C15_3 C16_3 1_555 1_555
C18_3 C19_3 1_555 1_555
N19_2 C2_3 1_555 1_555
C2_3 W1_6 1_555 1_555
Mn4 N13_3 1_555 1_555
N10_3 C20_3 1_555 1_555
C20_3 W1_6 1_555 1_555
N12_3 C22_3 1_555 1_555
C22_3 W1_6 1_555 1_555
N13_3 C23_3 1_555 1_555
C23_3 W1_6 1_555 1_555
C24_3 H26_3 1_555 1_555
H27_3 C24_3 1_555 1_555
N14_3 Mn4 1_555 1_555
H29_3 C25_3 1_555 1_555
H30_3 C25_3 1_555 1_555
N15_3 Mn4 1_555 1_555
H31_3 N15_3 1_555 1_555
C26_3 C24_3 1_555 1_555
H32_3 C26_3 1_555 1_555
H33_3 C26_3 1_555 1_555
N16_3 Mn4 1_555 1_555
C27_3 H34_3 1_555 1_555
H35_3 C27_3 1_555 1_555
H36_3 C27_3 1_555 1_555
N17_3 Mn4 1_555 1_555
H37_3 N17_3 1_555 1_555
C28_3 N14_3 1_555 1_555
N18_3 Mn4 1_555 1_555
C29_3 H38_3 1_555 1_555
H39_3 C29_3 1_555 1_555
H40_3 C29_3 1_555 1_555
C30_3 H41_3 1_555 1_555
C31_3 C30_3 1_555 1_555
H42_3 C31_3 1_555 1_555
C32_3 N16_3 1_555 1_555
C33_3 C30_3 1_555 1_555
H43_3 C33_3 1_555 1_555
C34_3 N16_3 1_555 1_555
C35_3 N18_3 1_555 1_555
C36_3 N17_3 1_555 1_555
H44_3 C36_3 1_555 1_555
H45_3 C36_3 1_555 1_555
H46_3 C36_3 1_555 1_555
C37_3 N17_3 1_555 1_555
H47_3 C37_3 1_555 1_555
H48_3 C37_3 1_555 1_555
C38_3 N18_3 1_555 1_555
H49_3 C38_3 1_555 1_555
H50_3 C38_3 1_555 1_555
C24_3 N15_3 1_555 1_555
N14_3 C26_3 1_555 1_555
C25_3 N15_3 1_555 1_555
C27_3 C28_3 1_555 1_555
C28_3 C32_3 1_555 1_555
C29_3 C35_3 1_555 1_555
C31_3 C32_3 1_555 1_555
C33_3 C34_3 1_555 1_555
C34_3 C35_3 1_555 1_555
C37_3 C38_3 1_555 1_555

#END
