
###############################################################################
#
# This file contains modified crystal structure data generated from the
# MOF subset of the Cambridge Structural Database (CSD) v543 
# hosted by the Cambridge Crystallographic Data Centre (CCDC).
#
# This work is licensed under the Creative Commons
# Attribution-NonCommercial-ShareAlike 4.0 International License.
# To view a copy of this license, visit
# http://creativecommons.org/licenses/by-nc-sa/4.0/
# or send a letter to
# Creative Commons, PO Box 1866, Mountain View, CA 94042, USA.
#
# CIF created using the CSD Python API on 29 September 2022
# The structure has been converted into the P1 space group
# The structure has a 3D framework
# The original CSD entry HALBIJ is in the trigonal crystal system
# The original CSD entry HALBIJ is in a Sohncke space group
# The framework has been calculated to contain at least 10.0% void space
# The void calculation uses a probe of radius 1.32A, grid spacing 0.4
#
###############################################################################

data_HALBIJ
_chemical_formula_moiety         '(C114 H150 Mn6 N54 W6)n'
_symmetry_cell_setting           triclinic
_symmetry_space_group_name_H-M   'P 1'
_symmetry_Int_Tables_number      1
_space_group_name_Hall           'P 1'
loop_
_symmetry_equiv_pos_site_id
_symmetry_equiv_pos_as_xyz
1 x,y,z
_cell_length_a                   18.6385(4)
_cell_length_b                   18.6385(4)
_cell_length_c                   12.3021(3)
_cell_angle_alpha                90
_cell_angle_beta                 90
_cell_angle_gamma                120
_cell_volume                     3701.11
loop_
_atom_site_label
_atom_site_type_symbol
_atom_site_fract_x
_atom_site_fract_y
_atom_site_fract_z
C3 C 0.4894(10) 0.0949(8) 0.4216(13)
N3 N 0.4837(13) 0.1448(10) 0.4603(18)
C4 C 0.5767(10) 0.0110(7) 0.4746(10)
N4 N 0.6192(11) 0.0167(8) 0.5502(12)
W1 W 0.50380(3) 0.000000 0.333333
N10 N 0.5941(16) 0.1997(9) 0.0075(11)
C21 C 0.4628(12) 0.0589(9) 0.2151(11)
N11 N 0.4430(11) 0.0883(7) 0.1513(11)
N14 N 0.6820(11) 0.1750(7) 0.3188(9)
Mn2 Mn 0.46328(17) 0.19444(12) 0.04917(14)
C24 C 0.6215(11) 0.1153(7) 0.3169(8)
N15 N 0.5623(16) 0.2632(11) 0.1989(16)
H29 H 0.555644 0.221144 0.252058
N18 N 0.3640(16) 0.2012(12) 0.1626(15)
H36 H 0.382937 0.260077 0.173827
C34 C 0.5463(24) 0.321(2) 0.251(2)
H39 H 0.491084 0.293079 0.279679
H40 H 0.585282 0.347461 0.308678
H41 H 0.551581 0.362020 0.199048
C35 C 0.6444(16) 0.2994(10) 0.1523(11)
H42 H 0.684604 0.319380 0.210918
H43 H 0.654321 0.347003 0.108943
C36 C 0.6592(20) 0.2427(12) 0.0830(13)
H44 H 0.710983 0.274430 0.044030
H45 H 0.664072 0.202982 0.128838
C37 C 0.2906(27) 0.1686(18) 0.099(2)
H46 H 0.257331 0.190514 0.127966
H47 H 0.260171 0.109259 0.110459
C38 C 0.3514(28) 0.1634(19) 0.272(2)
H48 H 0.403522 0.188440 0.309570
H49 H 0.312467 0.172149 0.311387
H50 H 0.331003 0.105012 0.263981
Mn4 Mn 0.80556(12) 0.26884(12) 0.38250(14)
C20 C 0.6559(21) 0.1356(18) 0.900(3)
H26 H 0.639506 0.101182 0.835715
H27 H 0.706840 0.185982 0.885028
H28 H 0.663762 0.106850 0.958719
C25 C 0.5911(11) 0.1554(8) 0.9277(8)
C26 C 0.5331(13) 0.1196(9) 0.8491(9)
N16 N 0.4708(12) 0.1362(8) 0.8785(8)
C27 C 0.4040(13) 0.1142(10) 0.8095(11)
C28 C 0.3993(16) 0.0755(12) 0.7110(11)
H30 H 0.354509 0.060732 0.664841
C29 C 0.4615(14) 0.0589(9) 0.6816(8)
H31 H 0.458388 0.033007 0.615651
C30 C 0.5284(12) 0.0809(9) 0.7506(10)
H32 H 0.570056 0.069822 0.730831
C31 C 0.3480(21) 0.1392(17) 0.8377(18)
N17 N 0.3486(20) 0.1461(15) 0.9361(15)
C32 C 0.295(6) 0.143(4) 0.749(4)
H33 H 0.313178 0.134463 0.679742
H34 H 0.238035 0.100233 0.760316
H35 H 0.298030 0.195994 0.749612
C33 C 0.2944(17) 0.1815(14) 0.9798(19)
H37 H 0.319245 0.239911 0.962750
H38 H 0.239264 0.152211 0.948354
N20 N 0.4930(8) 0.3180(11) 0.9854(9)
C1 C 0.5203(11) 0.8644(18) 0.767(3)
H1 H 0.538324 0.898818 0.830952
H2 H 0.520858 0.814018 0.781639
H3 H 0.556912 0.893150 0.707948
N1 N 0.3944(13) 0.8003(9) 0.6592(11)
C2 C 0.4039(8) 0.9411(9) 0.4516(11)
N2 N 0.3547(8) 0.9117(7) 0.5154(11)
N5 N 0.5070(8) 0.8250(7) 0.3479(9)
Mn1 Mn 0.26884(12) 0.80556(12) 0.61750(14)
W1_2 W 0.50380(3) 1.000000 0.333333
C5 C 0.5062(8) 0.8847(7) 0.3498(8)
C6 C 0.4357(8) 0.8446(8) 0.7390(8)
N6 N 0.2991(12) 0.7368(11) 0.4678(16)
H4 H 0.334500 0.778856 0.414609
C7 C 0.4135(9) 0.8804(9) 0.8176(9)
N7 N 0.3346(9) 0.8638(8) 0.7882(8)
C8 C 0.2898(8) 0.8858(10) 0.8572(11)
C9 C 0.3238(11) 0.9245(12) 0.9557(11)
C10 C 0.4026(11) 0.9411(9) 0.9851(8)
C11 C 0.4475(8) 0.9191(9) 0.9161(10)
H7 H 0.500234 0.930178 0.935836
C12 C 0.2088(13) 0.8608(17) 0.8290(18)
N8 N 0.2025(13) 0.8539(15) 0.7306(15)
C13 C 0.152(4) 0.857(4) 0.918(4)
H8 H 0.178715 0.865537 0.986925
H9 H 0.137802 0.899767 0.906351
H10 H 0.102036 0.804006 0.917055
N9 N 0.1628(10) 0.7988(12) 0.5041(15)
H11 H 0.122860 0.739923 0.492840
C14 C 0.1129(10) 0.8185(14) 0.6869(19)
H12 H 0.079334 0.760089 0.703917
H13 H 0.087053 0.847789 0.718313
C15 C 0.2253(13) 0.679(2) 0.416(2)
H14 H 0.198005 0.706921 0.386988
H15 H 0.237821 0.652539 0.357989
H16 H 0.189561 0.637980 0.467619
C16 C 0.3450(12) 0.7006(10) 0.5144(11)
H17 H 0.365224 0.680620 0.455749
H18 H 0.307318 0.652997 0.557724
C17 C 0.4165(16) 0.7573(12) 0.5837(13)
H19 H 0.436553 0.725570 0.622637
H20 H 0.461090 0.797018 0.537829
C18 C 0.122(2) 0.8314(18) 0.568(2)
H21 H 0.066817 0.809486 0.538701
H22 H 0.150912 0.890741 0.556208
C19 C 0.188(2) 0.8366(19) 0.395(2)
H23 H 0.215082 0.811560 0.357097
H24 H 0.140318 0.827851 0.355280
H25 H 0.225991 0.894988 0.402686
C22 C 0.3945(13) 0.9051(8) 0.2451(13)
N12 N 0.3389(16) 0.8552(10) 0.2064(18)
C23 C 0.5657(12) 0.9890(7) 0.1921(10)
N13 N 0.6025(14) 0.9833(8) 0.1165(12)
N19 N 0.1750(7) 0.6820(11) 0.6812(9)
Mn3 Mn 0.53672(17) 0.73116(12) 0.28417(14)
C1_2 C 0.1356(18) 0.6559(21) 0.100(3)
H1_2 H 0.101182 0.639506 0.164285
H2_2 H 0.185982 0.706840 0.114972
H3_2 H 0.106850 0.663762 0.041281
C6_2 C 0.1554(8) 0.5911(11) 0.0723(8)
C7_2 C 0.1196(9) 0.5331(13) 0.1509(9)
N7_2 N 0.1362(8) 0.4708(12) 0.1215(8)
C8_2 C 0.1142(10) 0.4040(13) 0.1905(11)
C9_2 C 0.0755(12) 0.3993(16) 0.2890(11)
H5 H 0.060732 0.354509 0.335159
C10_2 C 0.0589(9) 0.4615(14) 0.3184(8)
H6 H 0.033007 0.458388 0.384349
C11_2 C 0.0809(9) 0.5284(12) 0.2494(10)
H7_2 H 0.069822 0.570056 0.269169
C12_2 C 0.1392(17) 0.3480(21) 0.1623(18)
N8_2 N 0.1461(15) 0.3486(20) 0.0639(15)
C13_2 C 0.143(4) 0.295(6) 0.251(4)
H8_2 H 0.134463 0.313178 0.320258
H9_2 H 0.100233 0.238035 0.239684
H10_2 H 0.195994 0.298030 0.250388
C14_2 C 0.1815(14) 0.2944(17) 0.0202(19)
H12_2 H 0.239911 0.319245 0.037250
H13_2 H 0.152211 0.239264 0.051646
N19_2 N 0.3180(11) 0.4930(13) 0.0146(9)
N1_2 N 0.1997(9) 0.5941(16) 0.9925(11)
C2_2 C 0.0589(9) 0.4628(12) 0.7849(11)
N2_2 N 0.0883(7) 0.4430(11) 0.8487(11)
Mn1_2 Mn 0.19444(12) 0.46328(17) 0.95083(14)
W1_3 W 0.000000 0.503800(30) 0.666666
C5_2 C 0.1153(7) 0.6215(11) 0.6831(8)
N6_2 N 0.2632(11) 0.5623(16) 0.8011(16)
H4_2 H 0.221144 0.555644 0.747942
N9_2 N 0.2012(12) 0.3640(16) 0.8374(15)
H11_2 H 0.260077 0.382937 0.826173
C15_2 C 0.321(2) 0.5463(24) 0.749(2)
H14_2 H 0.293079 0.491084 0.720321
H15_2 H 0.347461 0.585282 0.691322
H16_2 H 0.362020 0.551581 0.800952
C16_2 C 0.2994(10) 0.6444(16) 0.8477(11)
H17_2 H 0.319380 0.684604 0.789082
H18_2 H 0.347003 0.654321 0.891057
C17_2 C 0.2427(12) 0.6592(20) 0.9170(13)
H19_2 H 0.274430 0.710983 0.955970
H20_2 H 0.202982 0.664072 0.871162
C18_2 C 0.1686(18) 0.2906(27) 0.901(2)
H21_2 H 0.190514 0.257331 0.872034
H22_2 H 0.109259 0.260171 0.889541
C19_2 C 0.1634(19) 0.3514(28) 0.728(2)
H23_2 H 0.188440 0.403522 0.690430
H24_2 H 0.172149 0.312467 0.688613
H25_2 H 0.105012 0.331003 0.736019
C22_2 C 0.0949(8) 0.4894(15) 0.5784(13)
N12_2 N 0.1448(10) 0.4837(19) 0.5397(18)
C23_2 C 0.0110(7) 0.5767(14) 0.5254(10)
N13_2 N 0.0167(8) 0.6192(16) 0.4498(12)
C3_2 C 0.9051(8) 0.3945(13) 0.7549(13)
N3_2 N 0.8552(10) 0.3389(16) 0.7936(18)
C4_2 C 0.9890(7) 0.5657(12) 0.8079(10)
N4_2 N 0.9833(8) 0.6025(14) 0.8835(12)
W1_4 W 1.000000 0.503800(30) 0.666666
C20_2 C 0.8644(18) 0.5203(28) 0.233(3)
H26_2 H 0.898818 0.538324 0.169048
H27_2 H 0.814018 0.520858 0.218361
H28_2 H 0.893150 0.556912 0.292052
N10_2 N 0.8003(9) 0.3944(18) 0.3408(11)
C21_2 C 0.9411(9) 0.4039(15) 0.5484(11)
N11_2 N 0.9117(7) 0.3547(13) 0.4846(11)
N14_2 N 0.8250(7) 0.5070(13) 0.6521(9)
C24_2 C 0.8847(7) 0.5062(13) 0.6502(8)
C25_2 C 0.8446(8) 0.4357(14) 0.2610(8)
N15_2 N 0.7368(11) 0.2991(19) 0.5322(16)
H29_2 H 0.778856 0.334500 0.585391
C26_2 C 0.8804(9) 0.4135(16) 0.1824(9)
N16_2 N 0.8638(8) 0.3346(14) 0.2118(8)
C27_2 C 0.8858(10) 0.2898(16) 0.1428(11)
C28_2 C 0.9245(12) 0.3238(20) 0.0443(11)
C29_2 C 0.9411(9) 0.4026(17) 0.0149(8)
C30_2 C 0.9191(9) 0.4475(15) 0.0839(10)
H32_2 H 0.930178 0.500234 0.064164
C31_2 C 0.8608(17) 0.2088(27) 0.1710(18)
N17_2 N 0.8539(15) 0.2025(25) 0.2694(15)
C32_2 C 0.857(4) 0.152(7) 0.082(4)
H33_2 H 0.865537 0.178715 0.013075
H34_2 H 0.899767 0.137802 0.093649
H35_2 H 0.804006 0.102036 0.082945
N18_2 N 0.7988(12) 0.1628(20) 0.4959(15)
H36_2 H 0.739923 0.122860 0.507160
C33_2 C 0.8185(14) 0.1129(22) 0.3131(19)
H37_2 H 0.760089 0.079334 0.296083
H38_2 H 0.847789 0.087053 0.281687
C34_2 C 0.679(2) 0.2253(31) 0.584(2)
H39_2 H 0.706921 0.198005 0.613012
H40_2 H 0.652539 0.237821 0.642011
H41_2 H 0.637980 0.189561 0.532381
C35_2 C 0.7006(10) 0.3450(19) 0.4856(11)
H42_2 H 0.680620 0.365224 0.544251
H43_2 H 0.652997 0.307318 0.442276
C36_2 C 0.7573(12) 0.4165(23) 0.4163(13)
H44_2 H 0.725570 0.436553 0.377363
H45_2 H 0.797018 0.461090 0.462171
C37_2 C 0.8314(18) 0.1220(32) 0.432(2)
H46_2 H 0.809486 0.066817 0.461299
H47_2 H 0.890741 0.150912 0.443792
C38_2 C 0.8366(19) 0.1880(34) 0.605(2)
H48_2 H 0.811560 0.215082 0.642903
H49_2 H 0.827851 0.140318 0.644720
H50_2 H 0.894988 0.225991 0.597314
Mn4_2 Mn 0.73116(12) 0.53672(17) 0.71583(14)
C1_3 C 0.3441(21) 0.4797(11) 0.434(3)
H1_3 H 0.360494 0.461676 0.497619
H2_3 H 0.293160 0.479142 0.448306
H3_3 H 0.336238 0.443088 0.374615
N1_3 N 0.4059(16) 0.6056(13) 0.3259(11)
C2_3 C 0.5372(12) 0.5961(8) 0.1183(11)
N2_3 N 0.5570(11) 0.6453(8) 0.1821(11)
C3_3 C 0.6055(13) 0.5106(10) 0.0883(13)
N3_3 N 0.6611(16) 0.5163(13) 0.1270(18)
C4_3 C 0.4343(12) 0.4233(10) 0.1413(10)
N4_3 N 0.3975(14) 0.3808(11) 0.2169(12)
W1_5 W 0.496200(30) 0.49620(3) -0.000000
C5_3 C 0.3785(11) 0.4938(8) 0.0165(8)
C6_3 C 0.4089(11) 0.5643(8) 0.4057(8)
N6_3 N 0.4377(16) 0.7009(12) 0.1345(16)
H4_3 H 0.444356 0.665500 0.081276
C7_3 C 0.4669(13) 0.5865(9) 0.4843(9)
N7_3 N 0.5292(12) 0.6654(9) 0.4549(8)
C8_3 C 0.5960(13) 0.7102(8) 0.5239(11)
C9_3 C 0.6007(16) 0.6762(11) 0.6224(11)
H5_2 H 0.645491 0.706223 0.668493
C10_3 C 0.5385(14) 0.5974(11) 0.6518(8)
H6_2 H 0.541612 0.574619 0.717683
C11_3 C 0.4716(12) 0.5525(8) 0.5828(10)
H7_3 H 0.429944 0.499766 0.602503
C12_3 C 0.6520(21) 0.7912(13) 0.4957(18)
N8_3 N 0.6514(20) 0.7975(13) 0.3973(15)
C13_3 C 0.705(6) 0.848(4) 0.585(4)
H8_3 H 0.686822 0.821285 0.653592
H9_3 H 0.761965 0.862198 0.573018
H10_3 H 0.701970 0.897964 0.583722
N9_3 N 0.6360(16) 0.8372(10) 0.1708(15)
H11_3 H 0.617063 0.877140 0.159507
C14_3 C 0.7056(17) 0.8871(10) 0.3536(19)
H12_3 H 0.680755 0.920666 0.370584
H13_3 H 0.760736 0.912947 0.384980
C15_3 C 0.4537(24) 0.7747(13) 0.083(2)
H14_3 H 0.508916 0.801995 0.053655
H15_3 H 0.414718 0.762179 0.024656
H16_3 H 0.448419 0.810439 0.134286
C16_3 C 0.3556(16) 0.6550(12) 0.1811(11)
H17_3 H 0.315396 0.634776 0.122416
H18_3 H 0.345679 0.692682 0.224391
C17_3 C 0.3408(20) 0.5835(16) 0.2504(13)
H19_3 H 0.289017 0.563447 0.289304
H20_3 H 0.335928 0.538910 0.204496
C18_3 C 0.7094(27) 0.878(2) 0.235(2)
H21_3 H 0.742669 0.933183 0.205368
H22_3 H 0.739829 0.849088 0.222875
C19_3 C 0.6486(28) 0.812(2) 0.062(2)
H23_3 H 0.596478 0.784918 0.023764
H24_3 H 0.687533 0.859682 0.021947
H25_3 H 0.668997 0.774009 0.069353
W1_6 W 0.496200(30) 0.49620(3) 1.000000
C20_3 C 0.4797(28) 0.3441(21) 0.566(3)
H26_3 H 0.461676 0.360494 0.502381
H27_3 H 0.479142 0.293160 0.551694
H28_3 H 0.443088 0.336238 0.625385
N10_3 N 0.6056(18) 0.4059(16) 0.6741(11)
C21_3 C 0.5961(15) 0.5372(12) 0.8817(11)
N11_3 N 0.6453(13) 0.5570(11) 0.8179(11)
C22_3 C 0.5106(15) 0.6055(13) 0.9117(13)
N12_3 N 0.5163(19) 0.6611(16) 0.8730(18)
C23_3 C 0.4233(14) 0.4343(12) 0.8587(10)
N13_3 N 0.3808(16) 0.3975(14) 0.7831(12)
C24_3 C 0.4938(13) 0.3785(11) 0.9835(8)
C25_3 C 0.5643(14) 0.4089(11) 0.5943(8)
N15_3 N 0.7009(19) 0.4377(16) 0.8655(16)
H29_3 H 0.665500 0.444356 0.918724
C26_3 C 0.5865(16) 0.4669(13) 0.5157(9)
N16_3 N 0.6654(14) 0.5292(12) 0.5451(8)
C27_3 C 0.7102(16) 0.5960(13) 0.4761(11)
C28_3 C 0.6762(20) 0.6007(16) 0.3776(11)
H30_2 H 0.706223 0.645491 0.331507
C29_3 C 0.5974(17) 0.5385(14) 0.3482(8)
H31_2 H 0.574619 0.541612 0.282317
C30_3 C 0.5525(15) 0.4716(12) 0.4172(10)
H32_3 H 0.499766 0.429944 0.397497
C31_3 C 0.7912(27) 0.6520(21) 0.5043(18)
N17_3 N 0.7975(25) 0.6514(20) 0.6027(15)
C32_3 C 0.848(7) 0.705(6) 0.415(4)
H33_3 H 0.821285 0.686822 0.346408
H34_3 H 0.862198 0.761965 0.426982
H35_3 H 0.897964 0.701970 0.416278
N18_3 N 0.8372(20) 0.6360(16) 0.8292(15)
H36_3 H 0.877140 0.617063 0.840493
C33_3 C 0.8871(22) 0.7056(17) 0.6464(19)
H37_3 H 0.920666 0.680755 0.629416
H38_3 H 0.912947 0.760736 0.615020
C34_3 C 0.7747(31) 0.4537(24) 0.917(2)
H39_3 H 0.801995 0.508916 0.946345
H40_3 H 0.762179 0.414718 0.975344
H41_3 H 0.810439 0.448419 0.865714
C35_3 C 0.6550(19) 0.3556(16) 0.8189(11)
H42_3 H 0.634776 0.315396 0.877584
H43_3 H 0.692682 0.345679 0.775609
C36_3 C 0.5835(23) 0.3408(20) 0.7496(13)
H44_3 H 0.563447 0.289017 0.710696
H45_3 H 0.538910 0.335928 0.795504
C37_3 C 0.8780(32) 0.7094(27) 0.765(2)
H46_3 H 0.933183 0.742669 0.794632
H47_3 H 0.849088 0.739829 0.777125
C38_3 C 0.8120(34) 0.6486(28) 0.938(2)
H48_3 H 0.784918 0.596478 0.976236
H49_3 H 0.859682 0.687533 0.978053
H50_3 H 0.774009 0.668997 0.930647
H5_3 H 0.293777 0.939268 0.001826
H6_3 H 0.425381 0.966993 0.051016
H30_3 H 0.939268 0.293777 0.998174
H31_3 H 0.966993 0.425381 0.948984
loop_
_geom_bond_atom_site_label_1
_geom_bond_atom_site_label_2
_geom_bond_site_symmetry_1
_geom_bond_site_symmetry_2
C3 N3 1_555 1_555
C4 N4 1_555 1_555
N10 Mn2 1_555 1_555
C21 W1 1_555 1_555
N11 C21 1_555 1_555
N14 C24 1_555 1_555
Mn2 N11 1_555 1_555
C24 W1 1_555 1_555
N15 Mn2 1_555 1_555
H29 N15 1_555 1_555
N18 Mn2 1_555 1_555
H36 N18 1_555 1_555
C34 N15 1_555 1_555
H39 C34 1_555 1_555
H40 C34 1_555 1_555
H41 C34 1_555 1_555
C35 N15 1_555 1_555
H42 C35 1_555 1_555
H43 C35 1_555 1_555
C36 N10 1_555 1_555
H44 C36 1_555 1_555
H45 C36 1_555 1_555
C37 N18 1_555 1_555
H46 C37 1_555 1_555
H47 C37 1_555 1_555
C38 N18 1_555 1_555
H48 C38 1_555 1_555
H49 C38 1_555 1_555
H50 C38 1_555 1_555
Mn4 N14 1_555 1_555
C3 W1 1_555 1_555
C4 W1 1_555 1_555
C35 C36 1_555 1_555
C20 H26 1_555 1_555
H27 C20 1_555 1_555
H28 C20 1_555 1_555
C25 C20 1_555 1_555
C26 C25 1_555 1_555
C27 N16 1_555 1_555
C28 C27 1_555 1_555
H30 C28 1_555 1_555
C29 C28 1_555 1_555
H31 C29 1_555 1_555
C30 C26 1_555 1_555
H32 C30 1_555 1_555
C31 C27 1_555 1_555
C32 C31 1_555 1_555
H33 C32 1_555 1_555
H34 C32 1_555 1_555
H35 C32 1_555 1_555
C33 N17 1_555 1_555
H37 C33 1_555 1_555
H38 C33 1_555 1_555
C26 N16 1_555 1_555
C29 C30 1_555 1_555
C31 N17 1_555 1_555
C1 H1 1_555 1_555
H2 C1 1_555 1_555
H3 C1 1_555 1_555
N1 Mn1 1_555 1_555
C2 N2 1_555 1_555
N2 Mn1 1_555 1_555
N5 C5 1_555 1_555
Mn1 N6 1_555 1_555
W1_2 C2 1_555 1_555
C5 W1_2 1_555 1_555
C6 C1 1_555 1_555
N6 H4 1_555 1_555
C7 C6 1_555 1_555
N7 Mn1 1_555 1_555
C8 N7 1_555 1_555
C9 C8 1_555 1_555
C10 C9 1_555 1_555
C11 C7 1_555 1_555
H7 C11 1_555 1_555
C12 C8 1_555 1_555
N8 Mn1 1_555 1_555
C13 C12 1_555 1_555
H8 C13 1_555 1_555
H9 C13 1_555 1_555
H10 C13 1_555 1_555
N9 Mn1 1_555 1_555
H11 N9 1_555 1_555
C14 N8 1_555 1_555
H12 C14 1_555 1_555
H13 C14 1_555 1_555
C15 N6 1_555 1_555
H14 C15 1_555 1_555
H15 C15 1_555 1_555
H16 C15 1_555 1_555
C16 N6 1_555 1_555
H17 C16 1_555 1_555
H18 C16 1_555 1_555
C17 N1 1_555 1_555
H19 C17 1_555 1_555
H20 C17 1_555 1_555
C18 N9 1_555 1_555
H21 C18 1_555 1_555
H22 C18 1_555 1_555
C19 N9 1_555 1_555
H23 C19 1_555 1_555
H24 C19 1_555 1_555
H25 C19 1_555 1_555
C22 W1_2 1_555 1_555
N12 C22 1_555 1_555
C23 W1_2 1_555 1_555
N13 C23 1_555 1_555
N19 Mn1 1_555 1_555
Mn3 N5 1_555 1_555
N1 C6 1_555 1_555
C7 N7 1_555 1_555
C10 C11 1_555 1_555
C12 N8 1_555 1_555
C14 C18 1_555 1_555
C16 C17 1_555 1_555
C1_2 H1_2 1_555 1_555
H2_2 C1_2 1_555 1_555
H3_2 C1_2 1_555 1_555
C6_2 C1_2 1_555 1_555
C7_2 C6_2 1_555 1_555
C8_2 N7_2 1_555 1_555
C9_2 C8_2 1_555 1_555
H5 C9_2 1_555 1_555
C10_2 C9_2 1_555 1_555
H6 C10_2 1_555 1_555
C11_2 C7_2 1_555 1_555
H7_2 C11_2 1_555 1_555
C12_2 C8_2 1_555 1_555
C13_2 C12_2 1_555 1_555
H8_2 C13_2 1_555 1_555
H9_2 C13_2 1_555 1_555
H10_2 C13_2 1_555 1_555
C14_2 N8_2 1_555 1_555
H12_2 C14_2 1_555 1_555
H13_2 C14_2 1_555 1_555
C7_2 N7_2 1_555 1_555
C10_2 C11_2 1_555 1_555
C12_2 N8_2 1_555 1_555
N1_2 Mn1_2 1_555 1_555
C2_2 N2_2 1_555 1_555
N2_2 Mn1_2 1_555 1_555
N19 C5_2 1_555 1_555
Mn1_2 N6_2 1_555 1_555
W1_3 C2_2 1_555 1_555
C5_2 W1_3 1_555 1_555
N6_2 H4_2 1_555 1_555
N9_2 Mn1_2 1_555 1_555
H11_2 N9_2 1_555 1_555
C15_2 N6_2 1_555 1_555
H14_2 C15_2 1_555 1_555
H15_2 C15_2 1_555 1_555
H16_2 C15_2 1_555 1_555
C16_2 N6_2 1_555 1_555
H17_2 C16_2 1_555 1_555
H18_2 C16_2 1_555 1_555
C17_2 N1_2 1_555 1_555
H19_2 C17_2 1_555 1_555
H20_2 C17_2 1_555 1_555
C18_2 N9_2 1_555 1_555
H21_2 C18_2 1_555 1_555
H22_2 C18_2 1_555 1_555
C19_2 N9_2 1_555 1_555
H23_2 C19_2 1_555 1_555
H24_2 C19_2 1_555 1_555
H25_2 C19_2 1_555 1_555
C22_2 W1_3 1_555 1_555
N12_2 C22_2 1_555 1_555
C23_2 W1_3 1_555 1_555
N13_2 C23_2 1_555 1_555
C16_2 C17_2 1_555 1_555
C3_2 N3_2 1_555 1_555
C4_2 N4_2 1_555 1_555
C20_2 H26_2 1_555 1_555
H27_2 C20_2 1_555 1_555
H28_2 C20_2 1_555 1_555
N10_2 Mn4 1_555 1_555
C21_2 W1_4 1_555 1_555
N11_2 C21_2 1_555 1_555
N14_2 C24_2 1_555 1_555
Mn4 N11_2 1_555 1_555
C24_2 W1_4 1_555 1_555
C25_2 C20_2 1_555 1_555
N15_2 Mn4 1_555 1_555
H29_2 N15_2 1_555 1_555
C26_2 C25_2 1_555 1_555
N16_2 Mn4 1_555 1_555
C27_2 N16_2 1_555 1_555
C28_2 C27_2 1_555 1_555
C29_2 C28_2 1_555 1_555
C30_2 C26_2 1_555 1_555
H32_2 C30_2 1_555 1_555
C31_2 C27_2 1_555 1_555
N17_2 Mn4 1_555 1_555
C32_2 C31_2 1_555 1_555
H33_2 C32_2 1_555 1_555
H34_2 C32_2 1_555 1_555
H35_2 C32_2 1_555 1_555
N18_2 Mn4 1_555 1_555
H36_2 N18_2 1_555 1_555
C33_2 N17_2 1_555 1_555
H37_2 C33_2 1_555 1_555
H38_2 C33_2 1_555 1_555
C34_2 N15_2 1_555 1_555
H39_2 C34_2 1_555 1_555
H40_2 C34_2 1_555 1_555
H41_2 C34_2 1_555 1_555
C35_2 N15_2 1_555 1_555
H42_2 C35_2 1_555 1_555
H43_2 C35_2 1_555 1_555
C36_2 N10_2 1_555 1_555
H44_2 C36_2 1_555 1_555
H45_2 C36_2 1_555 1_555
C37_2 N18_2 1_555 1_555
H46_2 C37_2 1_555 1_555
H47_2 C37_2 1_555 1_555
C38_2 N18_2 1_555 1_555
H48_2 C38_2 1_555 1_555
H49_2 C38_2 1_555 1_555
H50_2 C38_2 1_555 1_555
Mn4_2 N14_2 1_555 1_555
C3_2 W1_4 1_555 1_555
C4_2 W1_4 1_555 1_555
N10_2 C25_2 1_555 1_555
C26_2 N16_2 1_555 1_555
C29_2 C30_2 1_555 1_555
C31_2 N17_2 1_555 1_555
C33_2 C37_2 1_555 1_555
C35_2 C36_2 1_555 1_555
C1_3 H1_3 1_555 1_555
H2_3 C1_3 1_555 1_555
H3_3 C1_3 1_555 1_555
N1_3 Mn3 1_555 1_555
C2_3 N2_3 1_555 1_555
N2_3 Mn3 1_555 1_555
C3_3 N3_3 1_555 1_555
C4_3 N4_3 1_555 1_555
N19_2 C5_3 1_555 1_555
Mn3 N6_3 1_555 1_555
W1_5 C2_3 1_555 1_555
C5_3 W1_5 1_555 1_555
C6_3 C1_3 1_555 1_555
N6_3 H4_3 1_555 1_555
C7_3 C6_3 1_555 1_555
N7_3 Mn3 1_555 1_555
C8_3 N7_3 1_555 1_555
C9_3 C8_3 1_555 1_555
H5_2 C9_3 1_555 1_555
C10_3 C9_3 1_555 1_555
H6_2 C10_3 1_555 1_555
C11_3 C7_3 1_555 1_555
H7_3 C11_3 1_555 1_555
C12_3 C8_3 1_555 1_555
N8_3 Mn3 1_555 1_555
C13_3 C12_3 1_555 1_555
H8_3 C13_3 1_555 1_555
H9_3 C13_3 1_555 1_555
H10_3 C13_3 1_555 1_555
N9_3 Mn3 1_555 1_555
H11_3 N9_3 1_555 1_555
C14_3 N8_3 1_555 1_555
H12_3 C14_3 1_555 1_555
H13_3 C14_3 1_555 1_555
C15_3 N6_3 1_555 1_555
H14_3 C15_3 1_555 1_555
H15_3 C15_3 1_555 1_555
H16_3 C15_3 1_555 1_555
C16_3 N6_3 1_555 1_555
H17_3 C16_3 1_555 1_555
H18_3 C16_3 1_555 1_555
C17_3 N1_3 1_555 1_555
H19_3 C17_3 1_555 1_555
H20_3 C17_3 1_555 1_555
C18_3 N9_3 1_555 1_555
H21_3 C18_3 1_555 1_555
H22_3 C18_3 1_555 1_555
C19_3 N9_3 1_555 1_555
H23_3 C19_3 1_555 1_555
H24_3 C19_3 1_555 1_555
H25_3 C19_3 1_555 1_555
N1_3 C6_3 1_555 1_555
C3_3 W1_5 1_555 1_555
C4_3 W1_5 1_555 1_555
C7_3 N7_3 1_555 1_555
C10_3 C11_3 1_555 1_555
C12_3 N8_3 1_555 1_555
C14_3 C18_3 1_555 1_555
C16_3 C17_3 1_555 1_555
C20_3 H26_3 1_555 1_555
H27_3 C20_3 1_555 1_555
H28_3 C20_3 1_555 1_555
N10_3 Mn4_2 1_555 1_555
C21_3 W1_6 1_555 1_555
N11_3 C21_3 1_555 1_555
C22_3 W1_6 1_555 1_555
N12_3 C22_3 1_555 1_555
C23_3 W1_6 1_555 1_555
N13_3 C23_3 1_555 1_555
N20 C24_3 1_555 1_555
Mn4_2 N11_3 1_555 1_555
C24_3 W1_6 1_555 1_555
C25_3 C20_3 1_555 1_555
N15_3 Mn4_2 1_555 1_555
H29_3 N15_3 1_555 1_555
C26_3 C25_3 1_555 1_555
N16_3 Mn4_2 1_555 1_555
C27_3 N16_3 1_555 1_555
C28_3 C27_3 1_555 1_555
H30_2 C28_3 1_555 1_555
C29_3 C28_3 1_555 1_555
H31_2 C29_3 1_555 1_555
C30_3 C26_3 1_555 1_555
H32_3 C30_3 1_555 1_555
C31_3 C27_3 1_555 1_555
N17_3 Mn4_2 1_555 1_555
C32_3 C31_3 1_555 1_555
H33_3 C32_3 1_555 1_555
H34_3 C32_3 1_555 1_555
H35_3 C32_3 1_555 1_555
N18_3 Mn4_2 1_555 1_555
H36_3 N18_3 1_555 1_555
C33_3 N17_3 1_555 1_555
H37_3 C33_3 1_555 1_555
H38_3 C33_3 1_555 1_555
C34_3 N15_3 1_555 1_555
H39_3 C34_3 1_555 1_555
H40_3 C34_3 1_555 1_555
H41_3 C34_3 1_555 1_555
C35_3 N15_3 1_555 1_555
H42_3 C35_3 1_555 1_555
H43_3 C35_3 1_555 1_555
C36_3 N10_3 1_555 1_555
H44_3 C36_3 1_555 1_555
H45_3 C36_3 1_555 1_555
C37_3 N18_3 1_555 1_555
H46_3 C37_3 1_555 1_555
H47_3 C37_3 1_555 1_555
C38_3 N18_3 1_555 1_555
H48_3 C38_3 1_555 1_555
H49_3 C38_3 1_555 1_555
H50_3 C38_3 1_555 1_555
N10_3 C25_3 1_555 1_555
C26_3 N16_3 1_555 1_555
C29_3 C30_3 1_555 1_555
C31_3 N17_3 1_555 1_555
C33_3 C37_3 1_555 1_555
C35_3 C36_3 1_555 1_555

#END
