
###############################################################################
#
# This file contains modified crystal structure data generated from the
# MOF subset of the Cambridge Structural Database (CSD) v543 
# hosted by the Cambridge Crystallographic Data Centre (CCDC).
#
# This work is licensed under the Creative Commons
# Attribution-NonCommercial-ShareAlike 4.0 International License.
# To view a copy of this license, visit
# http://creativecommons.org/licenses/by-nc-sa/4.0/
# or send a letter to
# Creative Commons, PO Box 1866, Mountain View, CA 94042, USA.
#
# CIF created using the CSD Python API on 29 September 2022
# The structure has been converted into the P1 space group
# The structure has a 3D framework
# The original CSD entry HALHEL is in the monoclinic crystal system
# The framework has been calculated to contain at least 10.0% void space
# The void calculation uses a probe of radius 1.32A, grid spacing 0.4
#
###############################################################################

data_HALHEL
_chemical_formula_moiety         '(C80 H88 Cu11 N12 O31)n'
_symmetry_cell_setting           triclinic
_symmetry_space_group_name_H-M   'P 1'
_symmetry_Int_Tables_number      1
_space_group_name_Hall           'P 1'
loop_
_symmetry_equiv_pos_site_id
_symmetry_equiv_pos_as_xyz
1 x,y,z
_cell_length_a                   10.8080(7)
_cell_length_b                   17.4762(9)
_cell_length_c                   19.9289(17)
_cell_angle_alpha                90
_cell_angle_beta                 102.658(4)
_cell_angle_gamma                90
_cell_volume                     3672.74
loop_
_atom_site_label
_atom_site_type_symbol
_atom_site_fract_x
_atom_site_fract_y
_atom_site_fract_z
Cu3 Cu 0.000000 0.500000 0.500000
N6 N 0.1194(5) 0.5764(3) 0.4704(3)
H38 H 0.080933 0.589084 0.422452
C39 C 0.2477(7) 0.5523(5) 0.4707(5)
H39 H 0.245537 0.505736 0.444906
H40 H 0.289810 0.591369 0.450265
H41 H 0.292843 0.543716 0.517252
C40 C 0.1193(9) 0.6497(4) 0.5101(4)
H42 H 0.146429 0.639488 0.558438
H43 H 0.176177 0.685703 0.496416
H44 H 0.035163 0.670729 0.500819
O23 O 0.1407(3) 0.4446(2) 0.55607(19)
O24 O 0.0887(3) 0.5205(2) 0.6348(2)
Cu1 Cu 0.13237(4) 0.00408(3) 0.48875(3)
Cu5 Cu 0.03709(5) 0.13559(3) 0.58059(3)
N5 N 0.0857(4) 0.1981(2) 0.6679(2)
H25 H 0.175128 0.186189 0.686811
C37 C 0.0195(6) 0.1792(4) 0.7236(3)
H32 H 0.025102 0.125167 0.732310
H33 H 0.058458 0.206383 0.764630
C38 C 0.0820(5) 0.2799(3) 0.6557(3)
H36 H 0.129515 0.305729 0.695654
H37 H 0.118493 0.291009 0.616967
O20 O 0.2744(3) 0.07823(17) 0.50842(17)
O22 O 0.1998(3) 0.17544(17) 0.56110(18)
O26 O 0.1110(3) 0.03667(19) 0.63713(18)
O27 O 0.0808(3) 0.01901(19) 0.37670(18)
Cu3_2 Cu 1.000000 0.500000 0.500000
O1 O 0.1401(3) 0.83665(18) 0.42400(19)
O2 O 0.2613(3) 0.92822(17) 0.48542(17)
O3 O 0.7256(3) 0.92177(17) 0.49158(17)
O4 O 0.8002(3) 0.82456(17) 0.43890(18)
O5 O 0.8593(3) 0.5554(2) 0.44393(19)
O6 O 0.9113(3) 0.4795(2) 0.3652(2)
O7 O 0.6110(3) 0.46333(19) 0.13713(18)
O8 O 0.4192(3) 0.51901(19) 0.12330(18)
O9 O 0.0045(2) 0.92561(17) 0.50073(16)
H1 H 0.027421 0.898656 0.538030
N1 N 0.4234(3) 0.6572(2) 0.3437(2)
H2 H 0.345782 0.642265 0.332266
N3 N 0.8806(5) 0.4236(3) 0.5296(3)
H4 H 0.919067 0.410916 0.577548
C1 C 0.2456(4) 0.8675(3) 0.4515(3)
C2 C 0.3600(4) 0.8273(2) 0.4377(2)
C3 C 0.3446(4) 0.7607(3) 0.4008(3)
H5 H 0.263822 0.739831 0.387114
C4 C 0.4471(4) 0.7231(3) 0.3831(3)
C5 C 0.5669(4) 0.7581(3) 0.4035(3)
H6 H 0.636814 0.735686 0.391294
C6 C 0.5828(4) 0.8245(2) 0.4411(2)
C7 C 0.4810(4) 0.8604(3) 0.4589(2)
H7 H 0.491996 0.905417 0.484421
C8 C 0.7140(4) 0.8602(3) 0.4594(2)
C9 C 0.5133(4) 0.6124(3) 0.3205(3)
C10 C 0.4829(4) 0.5841(3) 0.2535(3)
H8 H 0.405168 0.596653 0.225169
C11 C 0.5666(4) 0.5375(3) 0.2283(3)
C12 C 0.6845(4) 0.5204(3) 0.2706(3)
H9 H 0.742374 0.490687 0.253826
C13 C 0.7152(4) 0.5478(3) 0.3375(3)
C14 C 0.6284(4) 0.5924(3) 0.3621(3)
H10 H 0.648143 0.609059 0.407558
C15 C 0.5301(4) 0.5044(3) 0.1578(3)
C16 C 0.8384(4) 0.5262(3) 0.3843(3)
H13 H 0.068055 0.806160 0.290223
H14 H 0.004340 0.702722 0.353664
C19 C 0.7523(7) 0.4477(5) 0.5293(5)
H17 H 0.754463 0.494264 0.555094
H18 H 0.710190 0.408631 0.549735
H19 H 0.707157 0.456284 0.482748
C20 C 0.8807(9) 0.3503(4) 0.4899(4)
H20 H 0.853571 0.360512 0.441562
H21 H 0.823823 0.314297 0.503584
H22 H 0.964837 0.329271 0.499181
Cu7 Cu 0.36763(4) 0.50408(3) 0.01125(3)
Cu8 Cu 0.86763(4) 0.99592(3) 0.51125(3)
Cu10 Cu 0.96291(5) 0.86441(3) 0.41941(3)
Cu11 Cu 0.53709(5) 0.36441(3) 0.08059(3)
O10 O 0.8599(3) 0.16335(18) 0.57600(19)
O11 O 0.7387(3) 0.07178(17) 0.51458(17)
O16 O 0.3890(3) 0.53667(19) 0.86287(18)
O17 O 0.5808(3) 0.48099(19) 0.87670(18)
O18 O 0.9955(2) 0.07439(17) 0.49927(16)
H23 H 0.972579 0.101344 0.461970
N4 N 0.5766(3) 0.3428(2) 0.6563(2)
H24 H 0.654218 0.357735 0.667734
C21 C 0.7544(4) 0.1325(3) 0.5485(3)
C22 C 0.6400(4) 0.1727(2) 0.5623(2)
C23 C 0.6554(4) 0.2393(3) 0.5992(3)
H26 H 0.736178 0.260169 0.612886
C24 C 0.5529(4) 0.2769(3) 0.6169(3)
C25 C 0.4331(4) 0.2419(3) 0.5965(3)
H27 H 0.363186 0.264314 0.608706
C26 C 0.4172(4) 0.1755(2) 0.5589(2)
C27 C 0.5190(4) 0.1396(3) 0.5411(2)
H28 H 0.508004 0.094583 0.515579
C28 C 0.2860(4) 0.1398(3) 0.5406(2)
C29 C 0.4867(4) 0.3876(3) 0.6795(3)
C30 C 0.5171(4) 0.4159(3) 0.7465(3)
H29 H 0.594832 0.403347 0.774831
C31 C 0.4334(4) 0.4625(3) 0.7717(3)
C32 C 0.3155(4) 0.4796(3) 0.7294(3)
H30 H 0.257626 0.509313 0.746174
C33 C 0.2848(4) 0.4522(3) 0.6625(3)
C34 C 0.3716(4) 0.4076(3) 0.6379(3)
H31 H 0.351857 0.390941 0.592442
C35 C 0.4699(4) 0.4956(3) 0.8422(3)
C36 C 0.1616(4) 0.4738(3) 0.6157(3)
H34 H 0.931945 0.193840 0.709777
H35 H 0.995660 0.297278 0.646336
Cu9 Cu 0.63237(4) 0.49592(3) 0.98875(3)
Cu13 Cu 0.46291(5) 0.63559(3) 0.91941(3)
N2 N 0.9143(4) 0.8019(2) 0.3321(2)
H3 H 0.824872 0.813811 0.313189
C17 C 0.9805(6) 0.8208(4) 0.2764(3)
H11 H 0.974898 0.874833 0.267690
H12 H 0.941542 0.793617 0.235370
C18 C 0.9180(5) 0.7201(3) 0.3443(3)
H15 H 0.870485 0.694271 0.304346
H16 H 0.881507 0.708991 0.383033
O25 O 0.8890(3) 0.96333(19) 0.36287(18)
O28 O 0.9192(3) 0.98099(19) 0.62330(18)
Cu14 Cu 0.500000 0.000000 0.000000
O15 O 0.4113(3) 0.0205(2) 0.8652(2)
H30_2 H 0.242374 0.009313 0.753826
Cu14_2 Cu 0.500000 0.000000 1.000000
Cu14_3 Cu 0.500000 1.000000 0.000000
O12 O 0.2256(3) 0.57823(17) 0.99158(17)
O13 O 0.3002(3) 0.67544(17) 0.93890(18)
O14 O 0.3593(3) 0.9446(2) 0.94393(19)
C25_2 C 0.0669(4) 0.7419(3) 0.9035(3)
H27_2 H 0.136814 0.764314 0.891294
C26_2 C 0.0828(4) 0.6755(2) 0.9411(2)
C28_2 C 0.2140(4) 0.6398(3) 0.9594(2)
C29_2 C 0.0133(4) 0.8876(3) 0.8205(3)
C31_2 C 0.0666(4) 0.9625(3) 0.7283(3)
C32_2 C 0.1845(4) 0.9796(3) 0.7706(3)
C33_2 C 0.2152(4) 0.9522(3) 0.8375(3)
C34_2 C 0.1284(4) 0.9076(3) 0.8621(3)
H31_2 H 0.148143 0.890941 0.907558
C35_2 C 0.0301(4) 0.9956(3) 0.6578(3)
C36_2 C 0.3384(4) 0.9738(3) 0.8843(3)
Cu14_4 Cu 0.500000 1.000000 1.000000
O1_2 O 0.3599(3) 0.33665(18) 0.07600(19)
O2_2 O 0.2387(3) 0.42822(17) 0.01458(17)
N1_2 N 0.0766(3) 0.1572(2) 0.1563(2)
H2_2 H 0.154218 0.142265 0.167734
N2_2 N 0.5857(4) 0.3019(2) 0.1679(2)
H3_2 H 0.675128 0.313811 0.186811
C1_2 C 0.2544(4) 0.3675(3) 0.0485(3)
C2_2 C 0.1400(4) 0.3273(2) 0.0623(2)
C3_2 C 0.1554(4) 0.2607(3) 0.0992(3)
H5_2 H 0.236178 0.239831 0.112886
C4_2 C 0.0529(4) 0.2231(3) 0.1169(3)
C7_2 C 0.0190(4) 0.3604(3) 0.0411(2)
H7_2 H 0.008004 0.405417 0.015579
C10_2 C 0.0171(4) 0.0841(3) 0.2465(3)
H8_2 H 0.094832 0.096653 0.274831
C17_2 C 0.5195(6) 0.3208(4) 0.2236(3)
H11_2 H 0.525102 0.374833 0.232310
H12_2 H 0.558458 0.293617 0.264630
H13_2 H 0.431945 0.306160 0.209777
C18_2 C 0.5820(5) 0.2201(3) 0.1557(3)
H14_2 H 0.495660 0.202722 0.146336
H15_2 H 0.629515 0.194271 0.195654
H16_2 H 0.618493 0.208991 0.116967
O18_2 O 0.5045(2) 0.57439(17) 0.00073(16)
H23_2 H 0.527421 0.601344 0.038030
O19 O 0.7744(3) 0.42177(17) 0.00842(17)
O21 O 0.6998(3) 0.32456(17) 0.06110(18)
O9_2 O 0.4955(2) 0.42561(17) 0.99927(16)
H1_2 H 0.472579 0.398656 0.961970
O10_2 O 0.6401(3) 0.66335(18) 0.92400(19)
O11_2 O 0.7613(3) 0.57178(17) 0.98542(17)
N4_2 N 0.9234(3) 0.8428(2) 0.8437(2)
H24_2 H 0.845782 0.857735 0.832266
N5_2 N 0.4143(4) 0.6981(2) 0.8321(2)
H25_2 H 0.324872 0.686189 0.813189
C21_2 C 0.7456(4) 0.6325(3) 0.9515(3)
C22_2 C 0.8600(4) 0.6727(2) 0.9377(2)
C23_2 C 0.8446(4) 0.7393(3) 0.9008(3)
H26_2 H 0.763822 0.760169 0.887114
C24_2 C 0.9471(4) 0.7769(3) 0.8831(3)
C27_2 C 0.9810(4) 0.6396(3) 0.9589(2)
H28_2 H 0.991996 0.594583 0.984421
C30_2 C 0.9829(4) 0.9159(3) 0.7535(3)
H29_2 H 0.905168 0.903347 0.725169
C37_2 C 0.4805(6) 0.6792(4) 0.7764(3)
H32_2 H 0.474898 0.625167 0.767690
H33_2 H 0.441542 0.706383 0.735370
H34_2 H 0.568055 0.693840 0.790223
C38_2 C 0.4180(5) 0.7799(3) 0.8443(3)
H35_2 H 0.504340 0.797278 0.853664
H36_2 H 0.370485 0.805729 0.804346
H37_2 H 0.381507 0.791009 0.883033
O5_2 O 0.6407(3) 0.0554(2) 0.05607(19)
C5_2 C 0.9331(4) 0.2581(3) 0.0965(3)
H6_2 H 0.863186 0.235686 0.108706
C6_2 C 0.9172(4) 0.3245(2) 0.0589(2)
C8_2 C 0.7860(4) 0.3602(3) 0.0406(2)
C9_2 C 0.9867(4) 0.1124(3) 0.1795(3)
C11_2 C 0.9334(4) 0.0375(3) 0.2717(3)
C12_2 C 0.8155(4) 0.0204(3) 0.2294(3)
C13_2 C 0.7848(4) 0.0478(3) 0.1625(3)
C14_2 C 0.8716(4) 0.0924(3) 0.1379(3)
H10_2 H 0.851857 0.109059 0.092442
C15_2 C 0.9699(4) 0.0044(3) 0.3422(3)
C16_2 C 0.6616(4) 0.0262(3) 0.1157(3)
N6_2 N 0.3806(5) 0.0764(3) 0.0296(3)
H38_2 H 0.419067 0.089084 0.077548
C39_2 C 0.2523(7) 0.0523(5) 0.0293(5)
H39_2 H 0.254463 0.005736 0.055094
H40_2 H 0.210190 0.091369 0.049735
H43_2 H 0.323823 0.185703 0.003584
H41_2 H 0.207157 0.043716 0.982748
C40_2 C 0.3807(9) 0.1497(4) 0.9899(4)
H42_2 H 0.353571 0.139488 0.941562
H44_2 H 0.464837 0.170729 0.999181
O6_2 O 0.5887(3) 0.9795(2) 0.1348(2)
H9_2 H 0.757626 0.990687 0.246174
H19_2 H 0.792843 0.956284 0.017252
C20_2 C 0.6193(9) 0.8503(4) 0.0101(4)
H20_2 H 0.646429 0.860512 0.058438
H22_2 H 0.535163 0.829271 0.000819
N3_2 N 0.6194(5) 0.9236(3) 0.9704(3)
H4_2 H 0.580933 0.910916 0.922452
C19_2 C 0.7477(7) 0.9477(5) 0.9707(5)
H17_2 H 0.745537 0.994264 0.944906
H18_2 H 0.789810 0.908631 0.950265
H21_2 H 0.676177 0.814297 0.996416
loop_
_geom_bond_atom_site_label_1
_geom_bond_atom_site_label_2
_geom_bond_site_symmetry_1
_geom_bond_site_symmetry_2
N6 Cu3 1_555 1_555
H38 N6 1_555 1_555
C39 N6 1_555 1_555
H39 C39 1_555 1_555
H40 C39 1_555 1_555
H41 C39 1_555 1_555
C40 N6 1_555 1_555
H42 C40 1_555 1_555
H43 C40 1_555 1_555
H44 C40 1_555 1_555
O23 Cu3 1_555 1_555
O24 Cu3 1_555 1_555
N5 Cu5 1_555 1_555
H25 N5 1_555 1_555
C37 N5 1_555 1_555
H32 C37 1_555 1_555
H33 C37 1_555 1_555
C38 N5 1_555 1_555
H36 C38 1_555 1_555
H37 C38 1_555 1_555
O20 Cu1 1_555 1_555
O22 Cu5 1_555 1_555
O26 Cu5 1_555 1_555
O27 Cu1 1_555 1_555
Cu3_2 O5 1_555 1_555
O1 C1 1_555 1_555
O2 C1 1_555 1_555
O3 C8 1_555 1_555
O4 C8 1_555 1_555
O5 C16 1_555 1_555
O6 Cu3_2 1_555 1_555
O7 C15 1_555 1_555
O8 C15 1_555 1_555
H1 O9 1_555 1_555
N1 H2 1_555 1_555
N3 Cu3_2 1_555 1_555
H4 N3 1_555 1_555
C1 C2 1_555 1_555
C2 C3 1_555 1_555
C3 H5 1_555 1_555
C4 N1 1_555 1_555
C5 C4 1_555 1_555
H6 C5 1_555 1_555
C6 C5 1_555 1_555
C7 C2 1_555 1_555
H7 C7 1_555 1_555
C8 C6 1_555 1_555
C9 N1 1_555 1_555
C10 C9 1_555 1_555
H8 C10 1_555 1_555
C11 C10 1_555 1_555
C12 C11 1_555 1_555
H9 C12 1_555 1_555
C13 C12 1_555 1_555
C14 C9 1_555 1_555
H10 C14 1_555 1_555
C15 C11 1_555 1_555
C16 O6 1_555 1_555
C19 N3 1_555 1_555
H17 C19 1_555 1_555
H18 C19 1_555 1_555
H19 C19 1_555 1_555
C20 N3 1_555 1_555
H20 C20 1_555 1_555
H21 C20 1_555 1_555
H22 C20 1_555 1_555
Cu7 O8 1_555 1_555
Cu8 O3 1_555 1_555
Cu10 O4 1_555 1_555
Cu11 O7 1_555 1_555
C3 C4 1_555 1_555
C6 C7 1_555 1_555
C13 C14 1_555 1_555
C13 C16 1_555 1_555
O10 C21 1_555 1_555
O20 C28 1_555 1_555
O22 C28 1_555 1_555
O23 C36 1_555 1_555
O24 C36 1_555 1_555
O16 C35 1_555 1_555
O17 C35 1_555 1_555
H23 O18 1_555 1_555
N4 H24 1_555 1_555
C21 O11 1_555 1_555
C22 C21 1_555 1_555
C23 C22 1_555 1_555
H26 C23 1_555 1_555
C24 N4 1_555 1_555
C25 C24 1_555 1_555
H27 C25 1_555 1_555
C26 C25 1_555 1_555
C27 C22 1_555 1_555
H28 C27 1_555 1_555
C28 C26 1_555 1_555
C29 N4 1_555 1_555
C30 C29 1_555 1_555
H29 C30 1_555 1_555
C31 C30 1_555 1_555
C32 C31 1_555 1_555
H30 C32 1_555 1_555
C33 C32 1_555 1_555
C34 C29 1_555 1_555
H31 C34 1_555 1_555
C35 C31 1_555 1_555
C36 C33 1_555 1_555
Cu9 O17 1_555 1_555
Cu13 O16 1_555 1_555
C23 C24 1_555 1_555
C26 C27 1_555 1_555
C33 C34 1_555 1_555
N2 Cu10 1_555 1_555
H3 N2 1_555 1_555
C17 N2 1_555 1_555
H11 C17 1_555 1_555
H12 C17 1_555 1_555
C18 N2 1_555 1_555
H15 C18 1_555 1_555
H16 C18 1_555 1_555
O25 Cu10 1_555 1_555
O28 Cu8 1_555 1_555
O15 Cu14_2 1_555 1_555
O12 C28_2 1_555 1_555
O13 C28_2 1_555 1_555
O14 C36_2 1_555 1_555
H27_2 C25_2 1_555 1_555
C26_2 C25_2 1_555 1_555
C28_2 C26_2 1_555 1_555
C32_2 C31_2 1_555 1_555
C33_2 C32_2 1_555 1_555
C34_2 C29_2 1_555 1_555
H31_2 C34_2 1_555 1_555
C35_2 C31_2 1_555 1_555
C36_2 C33_2 1_555 1_555
Cu13 O13 1_555 1_555
Cu14_4 O14 1_555 1_555
C33_2 C34_2 1_555 1_555
Cu7 O2_2 1_555 1_555
Cu11 O1_2 1_555 1_555
O1_2 C1_2 1_555 1_555
O2_2 C1_2 1_555 1_555
N1_2 H2_2 1_555 1_555
N2_2 Cu11 1_555 1_555
H3_2 N2_2 1_555 1_555
C1_2 C2_2 1_555 1_555
C2_2 C3_2 1_555 1_555
C3_2 H5_2 1_555 1_555
C4_2 N1_2 1_555 1_555
C7_2 C2_2 1_555 1_555
H7_2 C7_2 1_555 1_555
H8_2 C10_2 1_555 1_555
C17_2 N2_2 1_555 1_555
H11_2 C17_2 1_555 1_555
H12_2 C17_2 1_555 1_555
H13_2 C17_2 1_555 1_555
C18_2 N2_2 1_555 1_555
H14_2 C18_2 1_555 1_555
H15_2 C18_2 1_555 1_555
H16_2 C18_2 1_555 1_555
O18_2 Cu7 1_555 1_555
H23_2 O18_2 1_555 1_555
O21 Cu11 1_555 1_555
C3_2 C4_2 1_555 1_555
H1_2 O9_2 1_555 1_555
Cu9 O9_2 1_555 1_555
Cu13 O10_2 1_555 1_555
O10_2 C21_2 1_555 1_555
O11_2 Cu9 1_555 1_555
N4_2 H24_2 1_555 1_555
N5_2 Cu13 1_555 1_555
H25_2 N5_2 1_555 1_555
C21_2 O11_2 1_555 1_555
C22_2 C21_2 1_555 1_555
C23_2 C22_2 1_555 1_555
H26_2 C23_2 1_555 1_555
C24_2 N4_2 1_555 1_555
C27_2 C22_2 1_555 1_555
H28_2 C27_2 1_555 1_555
H29_2 C30_2 1_555 1_555
C37_2 N5_2 1_555 1_555
H32_2 C37_2 1_555 1_555
H33_2 C37_2 1_555 1_555
H34_2 C37_2 1_555 1_555
C38_2 N5_2 1_555 1_555
H35_2 C38_2 1_555 1_555
H36_2 C38_2 1_555 1_555
H37_2 C38_2 1_555 1_555
C23_2 C24_2 1_555 1_555
Cu14 O5_2 1_555 1_555
O19 C8_2 1_555 1_555
O21 C8_2 1_555 1_555
O5_2 C16_2 1_555 1_555
H6_2 C5_2 1_555 1_555
C6_2 C5_2 1_555 1_555
C8_2 C6_2 1_555 1_555
C12_2 C11_2 1_555 1_555
C13_2 C12_2 1_555 1_555
C14_2 C9_2 1_555 1_555
H10_2 C14_2 1_555 1_555
C15_2 C11_2 1_555 1_555
N6_2 Cu14 1_555 1_555
H38_2 N6_2 1_555 1_555
C39_2 N6_2 1_555 1_555
H39_2 C39_2 1_555 1_555
H40_2 C39_2 1_555 1_555
C13_2 C14_2 1_555 1_555
C13_2 C16_2 1_555 1_555
H42_2 C40_2 1_555 1_555
H44_2 C40_2 1_555 1_555
O6_2 Cu14_3 1_555 1_555
H20_2 C20_2 1_555 1_555
H22_2 C20_2 1_555 1_555
N3_2 Cu14_4 1_555 1_555
H4_2 N3_2 1_555 1_555
C19_2 N3_2 1_555 1_555
H17_2 C19_2 1_555 1_555
H18_2 C19_2 1_555 1_555

#END
