
###############################################################################
#
# This file contains modified crystal structure data generated from the
# MOF subset of the Cambridge Structural Database (CSD) v543 
# hosted by the Cambridge Crystallographic Data Centre (CCDC).
#
# This work is licensed under the Creative Commons
# Attribution-NonCommercial-ShareAlike 4.0 International License.
# To view a copy of this license, visit
# http://creativecommons.org/licenses/by-nc-sa/4.0/
# or send a letter to
# Creative Commons, PO Box 1866, Mountain View, CA 94042, USA.
#
# CIF created using the CSD Python API on 29 September 2022
# The structure has been converted into the P1 space group
# The structure has a 3D framework
# The original CSD entry HALTUM is in the monoclinic crystal system
# The framework has been calculated to contain at least 10.0% void space
# The void calculation uses a probe of radius 1.32A, grid spacing 0.4
#
###############################################################################

data_HALTUM
_chemical_formula_moiety         '(C104 H83 N4 Ni13 O39)n'
_symmetry_cell_setting           triclinic
_symmetry_space_group_name_H-M   'P 1'
_symmetry_Int_Tables_number      1
_space_group_name_Hall           'P 1'
loop_
_symmetry_equiv_pos_site_id
_symmetry_equiv_pos_as_xyz
1 x,y,z
_cell_length_a                   12.457(3)
_cell_length_b                   14.238(3)
_cell_length_c                   15.625(3)
_cell_angle_alpha                90
_cell_angle_beta                 98.050(4)
_cell_angle_gamma                90
_cell_volume                     2743.99
loop_
_atom_site_label
_atom_site_type_symbol
_atom_site_fract_x
_atom_site_fract_y
_atom_site_fract_z
C14 C 0.0067(2) 0.0507(2) 0.37657(18)
C15 C 0.1157(2) 0.0490(2) 0.41083(19)
H8 H 0.1401 0.0074 0.4570
C16 C 0.1890(2) 0.1073(2) 0.3783(2)
C17 C 0.1536(2) 0.1677(2) 0.30999(17)
H9 H 0.2036 0.2078 0.2873
C18 C 0.0447(2) 0.1689(2) 0.27516(19)
H10 H 0.0204 0.2094 0.2282
C21 C 0.3045(2) 0.1164(2) 0.42027(19)
O5 O 0.35269(14) 0.03779(15) 0.43276(12)
O6 O 0.34096(14) 0.19514(15) 0.43466(12)
Ni6 Ni -0.0000 0.0000 0.0000
Ni12 Ni 0.48418(3) 0.24906(3) 0.48939(2)
Ni17 Ni 0.5000 -0.0000 0.5000
Ni6_2 Ni -0.0000 0.0000 1.0000
Ni6_3 Ni -0.0000 1.0000 0.0000
Ni17_2 Ni 0.5000 1.0000 0.5000
Ni6_4 Ni -0.0000 1.0000 1.0000
C1 C 0.2945(2) 0.1423(2) 0.1084(2)
C2 C 0.3300(2) 0.0835(2) 0.17554(18)
H1 H 0.2798 0.0423 0.1967
C3 C 0.4396(2) 0.0825(2) 0.21416(19)
H2 H 0.4631 0.0423 0.2617
C4 C 0.5114(2) 0.1413(2) 0.18102(19)
C5 C 0.4771(2) 0.2015(2) 0.11587(18)
H3 H 0.5283 0.2403 0.0930
C6 C 0.3681(2) 0.2073(2) 0.08210(19)
H4 H 0.3435 0.2549 0.0415
C7 C 0.6284(2) 0.1322(2) 0.21707(19)
C8 C 0.6665(2) 0.1261(2) 0.30468(18)
C9 C 0.7769(2) 0.1171(2) 0.3306(2)
H5 H 0.8019 0.1101 0.3905
C10 C 0.8539(2) 0.1179(2) 0.27276(19)
C11 C 0.8166(2) 0.1256(2) 0.18604(18)
C12 C 0.7032(2) 0.1317(2) 0.15771(19)
H6 H 0.6776 0.1353 0.0976
C13 C 0.9711(2) 0.1109(2) 0.30879(18)
H7 H 0.9567 0.0107 0.3995
C19 C 0.1782(2) 0.1394(2) 0.06573(18)
C20 C 0.5944(2) 0.1278(2) 0.3740(2)
C22 C 0.8869(2) 0.1248(2) 0.11523(18)
Ni3 Ni -0.0000 0.5000 0.0000
O1 O 0.13458(14) 0.21519(15) 0.04424(12)
O2 O 0.13794(14) 0.06192(15) 0.05772(12)
O3 O 0.55140(14) 0.20206(15) 0.38595(12)
O4 O 0.58864(15) 0.05328(15) 0.41323(12)
O7 O 0.92033(15) 0.04509(15) 0.09577(12)
O8 O 0.90614(14) 0.20020(15) 0.08439(12)
O10 O 0.01679(16) 0.37338(14) 0.06814(13)
H21 H 0.0912 0.3561 0.0918
Ni6_5 Ni 1.0000 0.0000 0.0000
O25 O 0.14731(14) 0.53779(15) 0.06724(12)
H12 H 0.0112 0.0752 0.7875
H13 H 0.0052 0.1875 0.7861
Ni3_2 Ni 0.0000 0.5000 1.0000
Ni6_6 Ni 1.0000 0.0000 1.0000
Ni7 Ni 0.98418(3) 0.25094(3) 0.98939(2)
O22 O 0.05140(14) 0.29794(15) 0.88595(12)
O24 O 0.08864(15) 0.44672(15) 0.91323(12)
C49 C 0.0376(3) 0.8705(2) 0.2184(2)
H32 H 0.0831 0.8727 0.2749
C50 C 0.1082(3) 0.8727(3) 0.1482(2)
C51 C 0.2881(3) 0.8773(2) 0.1037(2)
H35 H 0.2405 0.8803 0.0482
H36 H 0.3362 0.9321 0.1094
H37 H 0.3317 0.8199 0.1062
C52 C 0.2638(2) 0.8798(2) 0.2755(2)
H38 H 0.2342 0.8269 0.3048
H39 H 0.3431 0.8753 0.2829
H40 H 0.2426 0.9389 0.3004
N2 N 0.2190(2) 0.87699(19) 0.17784(18)
Ni4 Ni 0.01582(3) 0.74906(3) 0.01061(2)
O19 O 0.05197(16) 0.87931(15) 0.07378(14)
Ni6_7 Ni 1.0000 1.0000 0.0000
O27 O 0.15904(14) 0.69514(15) 0.06534(12)
H41 H 0.0325 0.6260 0.8882
Ni6_8 Ni 1.0000 1.0000 1.0000
O30 O 0.07967(15) 0.95491(15) 0.90423(12)
O32 O 0.09386(14) 0.79980(15) 0.91561(12)
Ni3_3 Ni 1.0000 0.5000 0.0000
H20 H 0.9675 0.3740 0.1118
O23 O 0.91136(15) 0.55328(15) 0.08677(12)
C23 C 0.9624(3) 0.1295(2) 0.7816(2)
H11 H 0.9169 0.1273 0.7251
C24 C 0.8918(3) 0.1273(3) 0.8518(2)
C25 C 0.7119(3) 0.1227(2) 0.8963(2)
H14 H 0.7595 0.1197 0.9518
H15 H 0.6638 0.0679 0.8906
H16 H 0.6683 0.1801 0.8938
C26 C 0.7362(2) 0.1202(2) 0.7245(2)
H17 H 0.7658 0.1731 0.6952
H18 H 0.6569 0.1247 0.7171
H19 H 0.7574 0.0611 0.6996
N1 N 0.7810(2) 0.12301(19) 0.82216(18)
Ni3_4 Ni 1.0000 0.5000 1.0000
O9 O 0.94803(16) 0.12069(15) 0.92622(14)
O26 O 0.85269(14) 0.46221(15) 0.93276(12)
O28 O 0.84096(14) 0.30486(15) 0.93466(12)
O33 O 0.98321(16) 0.62662(14) 0.93186(13)
H33 H 0.9888 0.9248 0.2125
H34 H 0.9948 0.8125 0.2139
O21 O 0.94860(14) 0.70206(15) 0.11405(12)
C27 C 0.7055(2) 0.8577(2) 0.8916(2)
C28 C 0.6700(2) 0.9165(2) 0.82446(18)
H22 H 0.7202 0.9577 0.8033
C29 C 0.5604(2) 0.9175(2) 0.78584(19)
H23 H 0.5369 0.9577 0.7383
C30 C 0.4886(2) 0.8587(2) 0.81898(19)
C31 C 0.5229(2) 0.7985(2) 0.88413(18)
H24 H 0.4717 0.7597 0.9070
C32 C 0.6319(2) 0.7927(2) 0.91790(19)
H25 H 0.6565 0.7451 0.9585
C33 C 0.3716(2) 0.8678(2) 0.78293(19)
C34 C 0.3335(2) 0.8739(2) 0.69532(18)
C35 C 0.2231(2) 0.8829(2) 0.6694(2)
H26 H 0.1981 0.8899 0.6095
C36 C 0.1461(2) 0.8821(2) 0.72724(19)
C37 C 0.1834(2) 0.8744(2) 0.81396(18)
C38 C 0.2968(2) 0.8683(2) 0.84229(19)
H27 H 0.3224 0.8647 0.9024
C39 C 0.0289(2) 0.8891(2) 0.69121(18)
H28 H 0.0433 0.9893 0.6005
C45 C 0.8218(2) 0.8606(2) 0.93427(18)
C46 C 0.4056(2) 0.8722(2) 0.6260(2)
C48 C 0.1131(2) 0.8752(2) 0.88477(18)
O11 O 0.86542(14) 0.78481(15) 0.95576(12)
O12 O 0.86206(14) 0.93808(15) 0.94228(12)
O13 O 0.44860(14) 0.79794(15) 0.61405(12)
O14 O 0.41136(15) 0.94672(15) 0.58677(12)
H42 H 0.9088 0.6439 0.9082
Ni9 Ni 0.51582(3) 0.75094(3) 0.51061(2)
C40 C 0.9933(2) 0.9493(2) 0.62343(18)
C41 C 0.8843(2) 0.9510(2) 0.58917(19)
H29 H 0.8599 0.9926 0.5430
C42 C 0.8110(2) 0.8927(2) 0.6217(2)
C43 C 0.8464(2) 0.8323(2) 0.69001(17)
H30 H 0.7964 0.7922 0.7127
C44 C 0.9553(2) 0.8311(2) 0.72484(19)
H31 H 0.9796 0.7906 0.7718
C47 C 0.6955(2) 0.8836(2) 0.57973(19)
O15 O 0.64731(14) 0.96221(15) 0.56724(12)
O16 O 0.65904(14) 0.80486(15) 0.56534(12)
C30_2 C 0.0114(2) 0.3587(2) 0.68102(19)
H24_2 H 0.0283 0.2597 0.5930
C33_2 C 0.1284(2) 0.3678(2) 0.71707(19)
C34_2 C 0.1665(2) 0.3739(2) 0.80468(18)
C35_2 C 0.2769(2) 0.3829(2) 0.8306(2)
H26_2 H 0.3019 0.3899 0.8905
C36_2 C 0.3539(2) 0.3821(2) 0.77276(19)
C37_2 C 0.3166(2) 0.3744(2) 0.68604(18)
C38_2 C 0.2032(2) 0.3683(2) 0.65771(19)
H27_2 H 0.1776 0.3647 0.5976
C39_2 C 0.4711(2) 0.3891(2) 0.80879(18)
C40_2 C 0.5067(2) 0.4493(2) 0.87657(18)
H28_2 H 0.4567 0.4893 0.8995
C41_2 C 0.6157(2) 0.4510(2) 0.91083(19)
H29_2 H 0.6401 0.4926 0.9570
C42_2 C 0.6890(2) 0.3927(2) 0.8783(2)
C43_2 C 0.6536(2) 0.3323(2) 0.80999(17)
H30_2 H 0.7036 0.2922 0.7873
C44_2 C 0.5447(2) 0.3311(2) 0.77516(19)
H31_2 H 0.5204 0.2906 0.7282
C46_2 C 0.0944(2) 0.3722(2) 0.8740(2)
C47_2 C 0.8045(2) 0.3836(2) 0.92027(19)
C48_2 C 0.3869(2) 0.3752(2) 0.61523(18)
O17 O 0.42033(15) 0.45491(15) 0.59577(12)
O18 O 0.40614(14) 0.29980(15) 0.58439(12)
Ni5 Ni 0.5000 0.5000 0.5000
O33_2 O 0.51679(16) 0.12662(14) 0.56814(13)
C1_2 C 0.2055(2) 0.6423(2) 0.3916(2)
C2_2 C 0.1700(2) 0.5835(2) 0.32446(18)
H1_2 H 0.2202 0.5423 0.3033
C3_2 C 0.0604(2) 0.5825(2) 0.28584(19)
H2_2 H 0.0369 0.5423 0.2383
C5_2 C 0.0229(2) 0.7015(2) 0.38413(18)
C6_2 C 0.1319(2) 0.7073(2) 0.41790(19)
H4_2 H 0.1565 0.7549 0.4585
C19_2 C 0.3218(2) 0.6394(2) 0.43427(18)
C23_2 C 0.5376(3) 0.6295(2) 0.7184(2)
H11_2 H 0.5831 0.6273 0.7749
H12_2 H 0.4888 0.5752 0.7125
H13_2 H 0.4948 0.6875 0.7139
C24_2 C 0.6082(3) 0.6273(3) 0.6482(2)
C25_2 C 0.7881(3) 0.6227(2) 0.6037(2)
H14_2 H 0.7405 0.6197 0.5482
H15_2 H 0.8362 0.5679 0.6094
H16_2 H 0.8317 0.6801 0.6062
C26_2 C 0.7638(2) 0.6202(2) 0.7755(2)
H17_2 H 0.7342 0.6731 0.8048
H18_2 H 0.8431 0.6247 0.7829
H19_2 H 0.7426 0.5611 0.8004
N1_2 N 0.7190(2) 0.62301(19) 0.67784(18)
O1_2 O 0.36542(14) 0.71519(15) 0.45576(12)
O2_2 O 0.36206(14) 0.56192(15) 0.44228(12)
O9_2 O 0.55197(16) 0.62069(15) 0.57378(14)
O10_2 O 0.48321(16) 0.87338(14) 0.43186(13)
H20_2 H 0.5325 0.8740 0.3882
H21_2 H 0.4088 0.8561 0.4082
C27_2 C 0.7945(2) 0.3577(2) 0.6084(2)
C28_2 C 0.8300(2) 0.4165(2) 0.67554(18)
H22_2 H 0.7798 0.4577 0.6967
C29_2 C 0.9396(2) 0.4175(2) 0.71416(19)
H23_2 H 0.9631 0.4577 0.7617
C31_2 C 0.9771(2) 0.2985(2) 0.61587(18)
C32_2 C 0.8681(2) 0.2927(2) 0.58210(19)
H25_2 H 0.8435 0.2451 0.5415
C45_2 C 0.6782(2) 0.3606(2) 0.56573(18)
C49_2 C 0.4624(3) 0.3705(2) 0.2816(2)
H32_2 H 0.4169 0.3727 0.2251
H33_2 H 0.5112 0.4248 0.2875
H34_2 H 0.5052 0.3125 0.2861
C50_2 C 0.3918(3) 0.3727(3) 0.3518(2)
C51_2 C 0.2119(3) 0.3773(2) 0.3963(2)
H35_2 H 0.2595 0.3803 0.4518
H36_2 H 0.1638 0.4321 0.3906
H37_2 H 0.1683 0.3199 0.3938
C52_2 C 0.2362(2) 0.3798(2) 0.2245(2)
H38_2 H 0.2658 0.3269 0.1952
H39_2 H 0.1569 0.3753 0.2171
H40_2 H 0.2574 0.4389 0.1996
N2_2 N 0.2810(2) 0.37699(19) 0.32216(18)
O11_2 O 0.63458(14) 0.28481(15) 0.54424(12)
O12_2 O 0.63794(14) 0.43808(15) 0.55772(12)
O19_2 O 0.44803(16) 0.37931(15) 0.42622(14)
H41_2 H 0.4675 0.1260 0.6118
H42_2 H 0.5912 0.1439 0.5918
O29 O 0.57967(15) 0.54509(15) 0.40423(12)
O31 O 0.59386(14) 0.70020(15) 0.41561(12)
C4_2 C 0.9886(2) 0.6413(2) 0.31898(19)
H3_2 H 0.9717 0.7403 0.4070
C7_2 C 0.8716(2) 0.6322(2) 0.28293(19)
C8_2 C 0.8335(2) 0.6261(2) 0.19532(18)
C9_2 C 0.7231(2) 0.6171(2) 0.1694(2)
H5_2 H 0.6981 0.6101 0.1095
C10_2 C 0.6461(2) 0.6179(2) 0.22724(19)
C11_2 C 0.6834(2) 0.6256(2) 0.31396(18)
C12_2 C 0.7968(2) 0.6317(2) 0.34229(19)
H6_2 H 0.8224 0.6353 0.4024
C13_2 C 0.5289(2) 0.6109(2) 0.19121(18)
C14_2 C 0.4933(2) 0.5507(2) 0.12343(18)
H7_2 H 0.5433 0.5107 0.1005
C15_2 C 0.3843(2) 0.5490(2) 0.08917(19)
H8_2 H 0.3599 0.5074 0.0430
C16_2 C 0.3110(2) 0.6073(2) 0.1217(2)
C17_2 C 0.3464(2) 0.6677(2) 0.19001(17)
H9_2 H 0.2964 0.7078 0.2127
C18_2 C 0.4553(2) 0.6689(2) 0.22484(19)
H10_2 H 0.4796 0.7094 0.2718
C20_2 C 0.9056(2) 0.6278(2) 0.1260(2)
C21_2 C 0.1955(2) 0.6164(2) 0.07973(19)
C22_2 C 0.6131(2) 0.6248(2) 0.38477(18)
loop_
_geom_bond_atom_site_label_1
_geom_bond_atom_site_label_2
_geom_bond_site_symmetry_1
_geom_bond_site_symmetry_2
C15 C14 1_555 1_555
H8 C15 1_555 1_555
C16 C15 1_555 1_555
C17 C16 1_555 1_555
H9 C17 1_555 1_555
H10 C18 1_555 1_555
C21 C16 1_555 1_555
O5 C21 1_555 1_555
O6 C21 1_555 1_555
Ni12 O6 1_555 1_555
Ni17 O5 1_555 1_555
C17 C18 1_555 1_555
C1 C2 1_555 1_555
C2 H1 1_555 1_555
C3 C2 1_555 1_555
H2 C3 1_555 1_555
C4 C3 1_555 1_555
C5 C4 1_555 1_555
H3 C5 1_555 1_555
C6 C1 1_555 1_555
H4 C6 1_555 1_555
C7 C4 1_555 1_555
C8 C7 1_555 1_555
C9 C8 1_555 1_555
H5 C9 1_555 1_555
C10 C9 1_555 1_555
C11 C10 1_555 1_555
C12 C7 1_555 1_555
H6 C12 1_555 1_555
C13 C10 1_555 1_555
C19 C1 1_555 1_555
C20 C8 1_555 1_555
C22 C11 1_555 1_555
Ni6 O2 1_555 1_555
Ni3 O10 1_555 1_555
O1 C19 1_555 1_555
O2 C19 1_555 1_555
O3 C20 1_555 1_555
O4 C20 1_555 1_555
O7 C22 1_555 1_555
O8 C22 1_555 1_555
H21 O10 1_555 1_555
Ni6_5 O7 1_555 1_555
Ni12 O3 1_555 1_555
Ni17 O4 1_555 1_555
O25 Ni3 1_555 1_555
C5 C6 1_555 1_555
C11 C12 1_555 1_555
O24 Ni3_2 1_555 1_555
C49 H32 1_555 1_555
C50 C49 1_555 1_555
C51 H35 1_555 1_555
H36 C51 1_555 1_555
H37 C51 1_555 1_555
C52 H38 1_555 1_555
H39 C52 1_555 1_555
H40 C52 1_555 1_555
N2 C50 1_555 1_555
O19 Ni6_3 1_555 1_555
O27 Ni4 1_555 1_555
C50 O19 1_555 1_555
C51 N2 1_555 1_555
C52 N2 1_555 1_555
Ni4 O19 1_555 1_555
O30 Ni6_4 1_555 1_555
O23 Ni3_3 1_555 1_555
C23 H11 1_555 1_555
C24 C23 1_555 1_555
C25 H14 1_555 1_555
H15 C25 1_555 1_555
H16 C25 1_555 1_555
C26 H17 1_555 1_555
H18 C26 1_555 1_555
H19 C26 1_555 1_555
N1 C24 1_555 1_555
O9 C24 1_555 1_555
O26 Ni3_4 1_555 1_555
O28 Ni7 1_555 1_555
O33 Ni3_4 1_555 1_555
C25 N1 1_555 1_555
C26 N1 1_555 1_555
Ni6_6 O9 1_555 1_555
Ni7 O9 1_555 1_555
C27 C28 1_555 1_555
C28 H22 1_555 1_555
C29 C28 1_555 1_555
H23 C29 1_555 1_555
C30 C29 1_555 1_555
C31 C30 1_555 1_555
H24 C31 1_555 1_555
C32 C27 1_555 1_555
H25 C32 1_555 1_555
C33 C30 1_555 1_555
C34 C33 1_555 1_555
C35 C34 1_555 1_555
H26 C35 1_555 1_555
C36 C35 1_555 1_555
C37 C36 1_555 1_555
C38 C33 1_555 1_555
H27 C38 1_555 1_555
C39 C36 1_555 1_555
C45 C27 1_555 1_555
C46 C34 1_555 1_555
C48 C37 1_555 1_555
O11 C45 1_555 1_555
O12 Ni6_8 1_555 1_555
O13 C46 1_555 1_555
O14 C46 1_555 1_555
O30 C48 1_555 1_555
O32 C48 1_555 1_555
H42 O33 1_555 1_555
Ni9 O13 1_555 1_555
Ni17_2 O14 1_555 1_555
C31 C32 1_555 1_555
C37 C38 1_555 1_555
C45 O12 1_555 1_555
C41 C40 1_555 1_555
H29 C41 1_555 1_555
C42 C41 1_555 1_555
C43 C42 1_555 1_555
H30 C43 1_555 1_555
H31 C44 1_555 1_555
C47 C42 1_555 1_555
O15 C47 1_555 1_555
O16 C47 1_555 1_555
Ni9 O16 1_555 1_555
Ni17_2 O15 1_555 1_555
C43 C44 1_555 1_555
C33_2 C30_2 1_555 1_555
C34_2 C33_2 1_555 1_555
C35_2 C34_2 1_555 1_555
H26_2 C35_2 1_555 1_555
C36_2 C35_2 1_555 1_555
C37_2 C36_2 1_555 1_555
C38_2 C33_2 1_555 1_555
H27_2 C38_2 1_555 1_555
C39_2 C36_2 1_555 1_555
C40_2 C39_2 1_555 1_555
H28_2 C40_2 1_555 1_555
C41_2 C40_2 1_555 1_555
H29_2 C41_2 1_555 1_555
C42_2 C41_2 1_555 1_555
C43_2 C42_2 1_555 1_555
H30_2 C43_2 1_555 1_555
C44_2 C39_2 1_555 1_555
H31_2 C44_2 1_555 1_555
C46_2 C34_2 1_555 1_555
C47_2 C42_2 1_555 1_555
C48_2 C37_2 1_555 1_555
O22 C46_2 1_555 1_555
O24 C46_2 1_555 1_555
O26 C47_2 1_555 1_555
O28 C47_2 1_555 1_555
O17 C48_2 1_555 1_555
O18 C48_2 1_555 1_555
Ni5 O17 1_555 1_555
Ni12 O18 1_555 1_555
C37_2 C38_2 1_555 1_555
C43_2 C44_2 1_555 1_555
O33_2 Ni17 1_555 1_555
C1_2 C2_2 1_555 1_555
C2_2 H1_2 1_555 1_555
C3_2 C2_2 1_555 1_555
H2_2 C3_2 1_555 1_555
C6_2 C1_2 1_555 1_555
H4_2 C6_2 1_555 1_555
C19_2 C1_2 1_555 1_555
C23_2 H11_2 1_555 1_555
H12_2 C23_2 1_555 1_555
H13_2 C23_2 1_555 1_555
C24_2 C23_2 1_555 1_555
C25_2 H14_2 1_555 1_555
H15_2 C25_2 1_555 1_555
H16_2 C25_2 1_555 1_555
C26_2 H17_2 1_555 1_555
H18_2 C26_2 1_555 1_555
H19_2 C26_2 1_555 1_555
N1_2 C24_2 1_555 1_555
Ni5 O2_2 1_555 1_555
Ni9 O1_2 1_555 1_555
Ni17_2 O10_2 1_555 1_555
O1_2 C19_2 1_555 1_555
O2_2 C19_2 1_555 1_555
O9_2 C24_2 1_555 1_555
O10_2 Ni9 1_555 1_555
H20_2 O10_2 1_555 1_555
H21_2 O10_2 1_555 1_555
C27_2 C28_2 1_555 1_555
C28_2 H22_2 1_555 1_555
C29_2 C28_2 1_555 1_555
H23_2 C29_2 1_555 1_555
C32_2 C27_2 1_555 1_555
H25_2 C32_2 1_555 1_555
C45_2 C27_2 1_555 1_555
C49_2 H32_2 1_555 1_555
H33_2 C49_2 1_555 1_555
H34_2 C49_2 1_555 1_555
C50_2 C49_2 1_555 1_555
C51_2 H35_2 1_555 1_555
H36_2 C51_2 1_555 1_555
H37_2 C51_2 1_555 1_555
C52_2 H38_2 1_555 1_555
H39_2 C52_2 1_555 1_555
H40_2 C52_2 1_555 1_555
N2_2 C50_2 1_555 1_555
Ni12 O11_2 1_555 1_555
O11_2 C45_2 1_555 1_555
O12_2 Ni5 1_555 1_555
O19_2 Ni5 1_555 1_555
O33_2 Ni12 1_555 1_555
H41_2 O33_2 1_555 1_555
H42_2 O33_2 1_555 1_555
O29 Ni5 1_555 1_555
O31 Ni9 1_555 1_555
C5_2 C6_2 1_555 1_555
C25_2 N1_2 1_555 1_555
C26_2 N1_2 1_555 1_555
Ni5 O9_2 1_555 1_555
Ni9 O9_2 1_555 1_555
C31_2 C32_2 1_555 1_555
C45_2 O12_2 1_555 1_555
C50_2 O19_2 1_555 1_555
C51_2 N2_2 1_555 1_555
C52_2 N2_2 1_555 1_555
Ni12 O19_2 1_555 1_555
C7_2 C4_2 1_555 1_555
C8_2 C7_2 1_555 1_555
C9_2 C8_2 1_555 1_555
H5_2 C9_2 1_555 1_555
C10_2 C9_2 1_555 1_555
C11_2 C10_2 1_555 1_555
C12_2 C7_2 1_555 1_555
H6_2 C12_2 1_555 1_555
C13_2 C10_2 1_555 1_555
C14_2 C13_2 1_555 1_555
H7_2 C14_2 1_555 1_555
C15_2 C14_2 1_555 1_555
H8_2 C15_2 1_555 1_555
C16_2 C15_2 1_555 1_555
C17_2 C16_2 1_555 1_555
H9_2 C17_2 1_555 1_555
C18_2 C13_2 1_555 1_555
H10_2 C18_2 1_555 1_555
C20_2 C8_2 1_555 1_555
C21_2 C16_2 1_555 1_555
C22_2 C11_2 1_555 1_555
O21 C20_2 1_555 1_555
O23 C20_2 1_555 1_555
O25 C21_2 1_555 1_555
O27 C21_2 1_555 1_555
O29 C22_2 1_555 1_555
O31 C22_2 1_555 1_555
C11_2 C12_2 1_555 1_555
C17_2 C18_2 1_555 1_555

#END
