
###############################################################################
#
# This file contains modified crystal structure data generated from the
# MOF subset of the Cambridge Structural Database (CSD) v543 
# hosted by the Cambridge Crystallographic Data Centre (CCDC).
#
# This work is licensed under the Creative Commons
# Attribution-NonCommercial-ShareAlike 4.0 International License.
# To view a copy of this license, visit
# http://creativecommons.org/licenses/by-nc-sa/4.0/
# or send a letter to
# Creative Commons, PO Box 1866, Mountain View, CA 94042, USA.
#
# CIF created using the CSD Python API on 29 September 2022
# The structure has been converted into the P1 space group
# The structure has a 3D framework
# The original CSD entry HAMJOW is in the monoclinic crystal system
# The framework has been calculated to contain at least 10.0% void space
# The void calculation uses a probe of radius 1.32A, grid spacing 0.4
#
###############################################################################

data_HAMJOW
_chemical_formula_moiety         '(C56 H32 N8 O14 Zn2)n'
_symmetry_cell_setting           triclinic
_symmetry_space_group_name_H-M   'P 1'
_symmetry_Int_Tables_number      1
_space_group_name_Hall           'P 1'
loop_
_symmetry_equiv_pos_site_id
_symmetry_equiv_pos_as_xyz
1 x,y,z
_cell_length_a                   13.990(5)
_cell_length_b                   13.749(4)
_cell_length_c                   14.073(5)
_cell_angle_alpha                90
_cell_angle_beta                 110.538(13)
_cell_angle_gamma                90
_cell_volume                     2534.87
loop_
_atom_site_label
_atom_site_type_symbol
_atom_site_fract_x
_atom_site_fract_y
_atom_site_fract_z
O8 O 0.1197(3) 0.0678(3) 0.1256(3)
O1 O 0.4349(3) 0.2974(4) 0.7474(5)
O2 O 0.1155(3) 0.0270(3) 0.9310(3)
O5 O 0.1197(3) 0.4322(3) 0.6256(3)
N1 N 0.3780(3) 0.1628(4) 0.8060(4)
H1 H 0.3978 0.1054 0.8334
N2 N 0.7590(3) 0.1091(3) 0.8990(3)
C1 C 0.2734(4) 0.1867(4) 0.7848(5)
C2 C 0.2210(4) 0.1331(4) 0.8343(4)
H2 H 0.2555 0.0836 0.8807
C3 C 0.1180(4) 0.1512(4) 0.8165(4)
C4 C 0.0670(4) 0.2221(4) 0.7467(4)
C5 C 0.1204(4) 0.2780(4) 0.6991(4)
C6 C 0.2238(4) 0.2610(4) 0.7178(4)
H4 H 0.2599 0.2994 0.6854
C7 C 0.4508(4) 0.2182(5) 0.7888(6)
C8 C 0.6795(4) 0.0465(4) 0.8749(5)
C9 C 0.5795(4) 0.0766(4) 0.8387(6)
H6 H 0.5258 0.0303 0.8227
C10 C 0.5576(4) 0.1750(4) 0.8256(5)
C11 C 0.6387(4) 0.2403(4) 0.8496(5)
H7 H 0.6262 0.3082 0.8407
C12 C 0.7380(4) 0.2053(4) 0.8867(4)
H8 H 0.7930 0.2503 0.9038
C13 C 0.0643(4) 0.0945(4) 0.8758(4)
C14 C 0.0667(4) 0.3570(4) 0.6249(4)
Zn4 Zn 0.09508(4) 0.55830(4) 0.54273(4)
Zn5 Zn 0.90492(4) 0.05830(4) 0.95727(4)
Zn1 Zn 0.09508(4) 0.94170(4) 0.04273(4)
O6 O 0.0245(3) 0.8797(3) 0.1324(3)
N3 N 0.2410(3) 0.8909(3) 0.1010(3)
H5 H 0.6933 0.9788 0.8834
O7 O 0.0242(3) 0.8430(3) 0.9318(3)
O3 O 0.9755(3) 0.1203(3) 0.8676(3)
O4 O 0.9758(3) 0.3430(3) 0.5682(3)
H3 H 0.9961 0.2325 0.7315
Zn3 Zn 0.90492(4) 0.44170(4) 0.45727(4)
O3_2 O 0.0245(3) 0.6203(3) 0.6324(3)
H3_2 H 0.0039 0.7325 0.7685
O1_2 O 0.5651(3) 0.7974(4) 0.7526(5)
O2_2 O 0.8845(3) 0.5270(3) 0.5690(3)
O5_2 O 0.8803(3) 0.9322(3) 0.8744(3)
N1_2 N 0.6220(3) 0.6628(4) 0.6940(4)
H1_2 H 0.6022 0.6054 0.6666
N2_2 N 0.2410(3) 0.6091(3) 0.6010(3)
C1_2 C 0.7266(4) 0.6867(4) 0.7152(5)
C2_2 C 0.7790(4) 0.6331(4) 0.6657(4)
H2_2 H 0.7445 0.5836 0.6193
C3_2 C 0.8820(4) 0.6512(4) 0.6835(4)
C4_2 C 0.9330(4) 0.7221(4) 0.7533(4)
C5_2 C 0.8796(4) 0.7780(4) 0.8009(4)
C6_2 C 0.7762(4) 0.7610(4) 0.7822(4)
H4_2 H 0.7401 0.7994 0.8146
C7_2 C 0.5492(4) 0.7182(5) 0.7112(6)
C8_2 C 0.3205(4) 0.5465(4) 0.6251(5)
H5_2 H 0.3067 0.4788 0.6166
C9_2 C 0.4205(4) 0.5766(4) 0.6613(6)
H6_2 H 0.4742 0.5303 0.6773
C10_2 C 0.4424(4) 0.6750(4) 0.6744(5)
C11_2 C 0.3613(4) 0.7403(4) 0.6504(5)
H7_2 H 0.3738 0.8082 0.6593
C12_2 C 0.2620(4) 0.7053(4) 0.6133(4)
H8_2 H 0.2070 0.7503 0.5962
C13_2 C 0.9357(4) 0.5945(4) 0.6242(4)
C14_2 C 0.9333(4) 0.8570(4) 0.8751(4)
O6_2 O 0.9755(3) 0.3797(3) 0.3676(3)
O8_2 O 0.8803(3) 0.5678(3) 0.3744(3)
N3_2 N 0.7590(3) 0.3909(3) 0.3990(3)
O4_2 O 0.0242(3) 0.6570(3) 0.4318(3)
H3_3 H 0.0039 0.7675 0.2685
H5_3 H 0.3067 0.0212 0.1166
O7_2 O 0.9758(3) 0.1570(3) 0.0682(3)
O1_3 O 0.5651(3) 0.7026(4) 0.2526(5)
O2_3 O 0.8845(3) 0.9730(3) 0.0690(3)
N1_3 N 0.6220(3) 0.8372(4) 0.1940(4)
H1_3 H 0.6022 0.8946 0.1666
C1_3 C 0.7266(4) 0.8133(4) 0.2152(5)
C2_3 C 0.7790(4) 0.8669(4) 0.1657(4)
H2_3 H 0.7445 0.9164 0.1193
C3_3 C 0.8820(4) 0.8488(4) 0.1835(4)
C4_3 C 0.9330(4) 0.7779(4) 0.2533(4)
C5_3 C 0.8796(4) 0.7220(4) 0.3009(4)
C6_3 C 0.7762(4) 0.7390(4) 0.2822(4)
H4_3 H 0.7401 0.7006 0.3146
C7_3 C 0.5492(4) 0.7818(5) 0.2112(6)
C8_3 C 0.3205(4) 0.9535(4) 0.1251(5)
C9_3 C 0.4205(4) 0.9234(4) 0.1613(6)
H6_3 H 0.4742 0.9697 0.1773
C10_3 C 0.4424(4) 0.8250(4) 0.1744(5)
C11_3 C 0.3613(4) 0.7597(4) 0.1504(5)
H7_3 H 0.3738 0.6918 0.1593
C12_3 C 0.2620(4) 0.7947(4) 0.1133(4)
H8_3 H 0.2070 0.7497 0.0962
C13_3 C 0.9357(4) 0.9055(4) 0.1242(4)
C14_3 C 0.9333(4) 0.6430(4) 0.3751(4)
O1_4 O 0.4349(3) 0.2026(4) 0.2474(5)
O2_4 O 0.1155(3) 0.4730(3) 0.4310(3)
N1_4 N 0.3780(3) 0.3372(4) 0.3060(4)
H1_4 H 0.3978 0.3946 0.3334
C1_4 C 0.2734(4) 0.3133(4) 0.2848(5)
C2_4 C 0.2210(4) 0.3669(4) 0.3343(4)
H2_4 H 0.2555 0.4164 0.3807
C3_4 C 0.1180(4) 0.3488(4) 0.3165(4)
C4_4 C 0.0670(4) 0.2779(4) 0.2467(4)
C5_4 C 0.1204(4) 0.2220(4) 0.1991(4)
C6_4 C 0.2238(4) 0.2390(4) 0.2178(4)
H4_4 H 0.2599 0.2006 0.1854
C7_4 C 0.4508(4) 0.2818(5) 0.2888(6)
C8_4 C 0.6795(4) 0.4535(4) 0.3749(5)
H5_4 H 0.6933 0.5212 0.3834
C9_4 C 0.5795(4) 0.4234(4) 0.3387(6)
H6_4 H 0.5258 0.4697 0.3227
C10_4 C 0.5576(4) 0.3250(4) 0.3256(5)
C11_4 C 0.6387(4) 0.2597(4) 0.3496(5)
H7_4 H 0.6262 0.1918 0.3407
C12_4 C 0.7380(4) 0.2947(4) 0.3867(4)
H8_4 H 0.7930 0.2497 0.4038
C13_4 C 0.0643(4) 0.4055(4) 0.3758(4)
C14_4 C 0.0667(4) 0.1430(4) 0.1249(4)
H3_4 H 0.9961 0.2675 0.2315
loop_
_geom_bond_atom_site_label_1
_geom_bond_atom_site_label_2
_geom_bond_site_symmetry_1
_geom_bond_site_symmetry_2
O1 C7 1_555 1_555
O2 C13 1_555 1_555
O5 C14 1_555 1_555
N1 H1 1_555 1_555
N2 C8 1_555 1_555
C1 N1 1_555 1_555
C2 C1 1_555 1_555
H2 C2 1_555 1_555
C3 C2 1_555 1_555
C4 C3 1_555 1_555
C5 C4 1_555 1_555
C6 C1 1_555 1_555
H4 C6 1_555 1_555
C7 N1 1_555 1_555
C9 C8 1_555 1_555
H6 C9 1_555 1_555
C10 C7 1_555 1_555
C11 C10 1_555 1_555
H7 C11 1_555 1_555
C12 N2 1_555 1_555
H8 C12 1_555 1_555
C13 C3 1_555 1_555
C14 C5 1_555 1_555
Zn4 O5 1_555 1_555
Zn5 N2 1_555 1_555
C5 C6 1_555 1_555
C9 C10 1_555 1_555
C11 C12 1_555 1_555
O6 Zn1 1_555 1_555
N3 Zn1 1_555 1_555
Zn5 O3 1_555 1_555
Zn3 O4 1_555 1_555
Zn4 O3_2 1_555 1_555
Zn3 O2_2 1_555 1_555
O1_2 C7_2 1_555 1_555
O2_2 C13_2 1_555 1_555
O5_2 C14_2 1_555 1_555
N1_2 H1_2 1_555 1_555
N2_2 C8_2 1_555 1_555
C1_2 N1_2 1_555 1_555
C2_2 C1_2 1_555 1_555
H2_2 C2_2 1_555 1_555
C3_2 C2_2 1_555 1_555
C4_2 C3_2 1_555 1_555
C5_2 C4_2 1_555 1_555
C6_2 C1_2 1_555 1_555
H4_2 C6_2 1_555 1_555
C7_2 N1_2 1_555 1_555
C8_2 H5_2 1_555 1_555
C9_2 C8_2 1_555 1_555
H6_2 C9_2 1_555 1_555
C10_2 C7_2 1_555 1_555
C11_2 C10_2 1_555 1_555
H7_2 C11_2 1_555 1_555
C12_2 N2_2 1_555 1_555
H8_2 C12_2 1_555 1_555
C13_2 C3_2 1_555 1_555
C14_2 C5_2 1_555 1_555
Zn4 N2_2 1_555 1_555
O6_2 Zn3 1_555 1_555
O8_2 Zn3 1_555 1_555
N3_2 Zn3 1_555 1_555
C5_2 C6_2 1_555 1_555
C9_2 C10_2 1_555 1_555
C11_2 C12_2 1_555 1_555
Zn4 O4_2 1_555 1_555
O1_3 C7_3 1_555 1_555
O2_3 C13_3 1_555 1_555
O8_2 C14_3 1_555 1_555
N1_3 H1_3 1_555 1_555
N3 C8_3 1_555 1_555
C1_3 N1_3 1_555 1_555
C2_3 C1_3 1_555 1_555
H2_3 C2_3 1_555 1_555
C3_3 C2_3 1_555 1_555
C4_3 C3_3 1_555 1_555
C5_3 C4_3 1_555 1_555
C6_3 C1_3 1_555 1_555
H4_3 C6_3 1_555 1_555
C7_3 N1_3 1_555 1_555
C9_3 C8_3 1_555 1_555
H6_3 C9_3 1_555 1_555
C10_3 C7_3 1_555 1_555
C11_3 C10_3 1_555 1_555
H7_3 C11_3 1_555 1_555
C12_3 N3 1_555 1_555
H8_3 C12_3 1_555 1_555
C13_3 C3_3 1_555 1_555
C14_3 C5_3 1_555 1_555
C5_3 C6_3 1_555 1_555
C9_3 C10_3 1_555 1_555
C11_3 C12_3 1_555 1_555
Zn4 O2_4 1_555 1_555
O1_4 C7_4 1_555 1_555
O2_4 C13_4 1_555 1_555
O8 C14_4 1_555 1_555
N1_4 H1_4 1_555 1_555
N3_2 C8_4 1_555 1_555
C1_4 N1_4 1_555 1_555
C2_4 C1_4 1_555 1_555
H2_4 C2_4 1_555 1_555
C3_4 C2_4 1_555 1_555
C4_4 C3_4 1_555 1_555
C5_4 C4_4 1_555 1_555
C6_4 C1_4 1_555 1_555
H4_4 C6_4 1_555 1_555
C7_4 N1_4 1_555 1_555
C8_4 H5_4 1_555 1_555
C9_4 C8_4 1_555 1_555
H6_4 C9_4 1_555 1_555
C10_4 C7_4 1_555 1_555
C11_4 C10_4 1_555 1_555
H7_4 C11_4 1_555 1_555
C12_4 N3_2 1_555 1_555
H8_4 C12_4 1_555 1_555
C13_4 C3_4 1_555 1_555
C14_4 C5_4 1_555 1_555
C5_4 C6_4 1_555 1_555
C9_4 C10_4 1_555 1_555
C11_4 C12_4 1_555 1_555

#END
