
###############################################################################
#
# This file contains modified crystal structure data generated from the
# MOF subset of the Cambridge Structural Database (CSD) v543 
# hosted by the Cambridge Crystallographic Data Centre (CCDC).
#
# This work is licensed under the Creative Commons
# Attribution-NonCommercial-ShareAlike 4.0 International License.
# To view a copy of this license, visit
# http://creativecommons.org/licenses/by-nc-sa/4.0/
# or send a letter to
# Creative Commons, PO Box 1866, Mountain View, CA 94042, USA.
#
# CIF created using the CSD Python API on 29 September 2022
# The structure has been converted into the P1 space group
# The structure has a 3D framework
# The original CSD entry HAMRIY is in the trigonal crystal system
# The framework has been calculated to contain at least 10.0% void space
# The void calculation uses a probe of radius 1.32A, grid spacing 0.4
# H atom positions have been added when not included in the experimental data
#
###############################################################################

data_HAMRIY
_chemical_formula_moiety         '(C48 H84 Cu9 Ho4 N12 O48)n'
_symmetry_cell_setting           triclinic
_symmetry_space_group_name_H-M   'P 1'
_symmetry_Int_Tables_number      1
_space_group_name_Hall           'P 1'
loop_
_symmetry_equiv_pos_site_id
_symmetry_equiv_pos_as_xyz
1 x,y,z
_cell_length_a                   13.3238(4)
_cell_length_b                   13.3238(4)
_cell_length_c                   14.3368(5)
_cell_angle_alpha                90
_cell_angle_beta                 90
_cell_angle_gamma                120
_cell_volume                     2204.14
loop_
_atom_site_label
_atom_site_type_symbol
_atom_site_fract_x
_atom_site_fract_y
_atom_site_fract_z
Cu2 Cu 0.5000 -0.0000 0.0000
O11 O 0.5501(4) 0.1895(6) 0.0594(3)
H6 H 0.6730 0.0230 0.0790
Cu2_2 Cu 0.5000 -0.0000 1.0000
Cu6 Cu 0.5000 -0.0000 0.5000
O32 O 0.5980(4) 0.0738(6) 0.8911(3)
N8 N 0.3905(4) 0.0429(6) 0.9412(3)
H10 H 0.3500 0.0230 0.5790
H38 H 0.429698 0.0967429 0.88639
H39 H 0.366394 0.0832434 0.988788
Cu1 Cu 0.5000 0.5000 0.0000
O3 O 0.4344(4) 0.6196(4) 0.2294(3)
O4 O 0.5242(4) 0.5980(4) 0.1089(3)
N1 N 0.3476(4) 0.3905(4) 0.0588(3)
H1 H 0.3500 0.3270 0.0790
H2 H 0.1794 0.3189 0.0206
C3 C 0.3318(6) 0.4487(6) 0.1404(4)
H4 H 0.3138 0.3989 0.1945
H5 H 0.2665 0.4603 0.1291
C4 C 0.4370(5) 0.5632(5) 0.1607(4)
Ho3 Ho 0.3333 0.6667 0.33266(3)
Cu2_3 Cu 0.5000 1.0000 0.0000
Cu3 Cu 0.0000 0.5000 0.0000
O10 O 0.6394(4) 0.4499(4) 0.0594(3)
O18 O 0.3804(4) 0.8148(6) 0.2294(3)
O19 O 0.1852(6) 0.5656(4) 0.2294(3)
O26 O 0.4020(4) 0.9262(6) 0.1089(3)
O27 O 0.0738(6) 0.4758(4) 0.1089(3)
N2 N 0.6095(4) 0.9571(6) 0.0588(3)
N3 N 0.0429(6) 0.6524(4) 0.0588(3)
H14 H 0.6811 0.8605 0.0206
H15 H 0.1395 0.8206 0.0206
C15 C 0.5513(6) 0.8831(8) 0.1404(4)
C16 C 0.1169(8) 0.6682(6) 0.1404(4)
H24 H 0.6011 0.9149 0.1945
H25 H 0.0851 0.6862 0.1945
H29 H 0.5397 0.8062 0.1291
H30 H 0.1938 0.7335 0.1291
C20 C 0.4368(5) 0.8738(7) 0.1607(4)
C21 C 0.1262(7) 0.5630(5) 0.1607(4)
Ho1 Ho 0.3333 0.6667 0.83266(3)
Cu1_2 Cu 0.5000 0.5000 1.0000
O1 O 0.3606(4) 0.5501(4) 0.9406(3)
O2 O 0.1932(4) 0.4393(5) 0.8718(3)
C1 C 0.2684(5) 0.4534(6) 0.9303(4)
C2 C 0.2535(5) 0.3531(5) 0.9888(5)
H3 H 0.2535 0.2945 0.9487
Cu2_4 Cu 0.5000 1.0000 1.0000
Cu3_2 Cu 0.0000 0.5000 1.0000
Cu4 Cu 0.5000 0.5000 0.5000
Cu5 Cu 0.0000 0.5000 0.5000
Cu6_2 Cu 0.5000 1.0000 0.5000
O5 O 0.4499(4) 0.8105(6) 0.9406(3)
O6 O 0.1895(6) 0.6394(4) 0.9406(3)
O7 O 0.4499(4) 0.6394(4) 0.4406(3)
O8 O 0.1895(6) 0.5501(4) 0.4406(3)
O9 O 0.3606(4) 0.8105(6) 0.4406(3)
O13 O 0.5607(5) 0.7539(6) 0.8718(3)
O14 O 0.2461(6) 0.8068(4) 0.8718(3)
O15 O 0.5607(5) 0.8068(4) 0.3718(3)
O16 O 0.2461(6) 0.4393(5) 0.3718(3)
O17 O 0.1932(4) 0.7539(6) 0.3718(3)
O20 O 0.3804(4) 0.5656(4) 0.7294(3)
O21 O 0.1852(6) 0.6196(4) 0.7294(3)
O22 O 0.4344(4) 0.8148(6) 0.7294(3)
O28 O 0.4020(4) 0.4758(4) 0.6089(3)
O29 O 0.0738(6) 0.5980(4) 0.6089(3)
O30 O 0.5242(4) 0.9262(6) 0.6089(3)
O31 O 0.4758(4) 0.4020(4) 0.8911(3)
N4 N 0.6095(4) 0.6524(4) 0.5588(3)
N5 N 0.0429(6) 0.3905(4) 0.5588(3)
N6 N 0.3476(4) 0.9571(6) 0.5588(3)
N7 N 0.6524(4) 0.6095(4) 0.9412(3)
H8 H 0.6730 0.6500 0.5790
H11 H 0.6500 0.6730 0.9210
H12 H 0.3270 0.9770 0.9210
H13 H 0.0230 0.3500 0.9210
C5 C 0.5466(6) 0.8150(8) 0.9303(4)
C6 C 0.1850(8) 0.7316(5) 0.9303(4)
C7 C 0.5466(6) 0.7316(5) 0.4303(4)
C8 C 0.1850(8) 0.4534(6) 0.4303(4)
C9 C 0.2684(5) 0.8150(8) 0.4303(4)
C10 C 0.6469(5) 0.9004(7) 0.9888(5)
C11 C 0.0996(7) 0.7465(5) 0.9888(5)
C12 C 0.6469(5) 0.7465(5) 0.4888(5)
C13 C 0.0996(7) 0.3531(5) 0.4888(5)
C14 C 0.2535(5) 0.9004(7) 0.4888(5)
H16 H 0.6811 0.8206 0.5206
H17 H 0.1395 0.3189 0.5206
H18 H 0.1794 0.8605 0.5206
H19 H 0.7055 0.9590 0.9487
H20 H 0.0410 0.7465 0.9487
H21 H 0.7055 0.7465 0.4487
H22 H 0.0410 0.2945 0.4487
H23 H 0.2535 0.9590 0.4487
C17 C 0.5513(6) 0.6682(6) 0.6404(4)
C18 C 0.1169(8) 0.4487(6) 0.6404(4)
C19 C 0.3318(6) 0.8831(8) 0.6404(4)
H26 H 0.6011 0.6862 0.6945
H27 H 0.0851 0.3989 0.6945
H28 H 0.3138 0.9149 0.6945
H31 H 0.5397 0.7335 0.6291
H32 H 0.1938 0.4603 0.6291
H33 H 0.2665 0.8062 0.6291
C22 C 0.4368(5) 0.5630(5) 0.6607(4)
C23 C 0.1262(7) 0.5632(5) 0.6607(4)
C24 C 0.4370(5) 0.8738(7) 0.6607(4)
H34 H 0.667045 0.570302 0.88639
H35 H 0.716849 0.633606 0.988788
Cu3_3 Cu 1.0000 0.5000 0.0000
O12 O 0.8105(6) 0.3606(4) 0.0594(3)
H7 H 0.9770 0.6500 0.0790
Cu3_4 Cu 1.0000 0.5000 1.0000
Cu5_2 Cu 1.0000 0.5000 0.5000
O33 O 0.9262(6) 0.5242(4) 0.8911(3)
N9 N 0.9571(6) 0.3476(4) 0.9412(3)
H9 H 0.9770 0.3270 0.5790
H36 H 0.903257 0.332955 0.88639
H37 H 0.916757 0.283151 0.988788
H6_2 H 0.0230 0.6730 0.4210
H38_2 H 0.0967429 0.429698 0.61361
H39_2 H 0.0832434 0.366394 0.511212
Ho2 Ho 0.6667 0.3333 0.16734(3)
O15_2 O 0.8068(4) 0.5607(5) 0.1282(3)
O16_2 O 0.4393(5) 0.2461(6) 0.1282(3)
O17_2 O 0.7539(6) 0.1932(4) 0.1282(3)
O23 O 0.6196(4) 0.4344(4) 0.2706(3)
O24 O 0.8148(6) 0.3804(4) 0.2706(3)
O25 O 0.5656(4) 0.1852(6) 0.2706(3)
C7_2 C 0.7316(5) 0.5466(6) 0.0697(4)
C8_2 C 0.4534(6) 0.1850(8) 0.0697(4)
C9_2 C 0.8150(8) 0.2684(5) 0.0697(4)
C12_2 C 0.7465(5) 0.6469(5) 0.0112(5)
C13_2 C 0.3531(5) 0.0996(7) 0.0112(5)
C14_2 C 0.9004(7) 0.2535(5) 0.0112(5)
H21_2 H 0.7465 0.7055 0.0513
H22_2 H 0.2945 0.0410 0.0513
H23_2 H 0.9590 0.2535 0.0513
Ho1_2 Ho 0.6667 0.3333 0.66734(3)
O1_2 O 0.5501(4) 0.3606(4) 0.5594(3)
O2_2 O 0.4393(5) 0.1932(4) 0.6282(3)
O4_2 O 0.5980(4) 0.5242(4) 0.3911(3)
N1_2 N 0.3905(4) 0.3476(4) 0.4412(3)
H1_2 H 0.3270 0.3500 0.4210
C1_2 C 0.4534(6) 0.2684(5) 0.5697(4)
C2_2 C 0.3531(5) 0.2535(5) 0.5112(5)
H2_2 H 0.3189 0.1794 0.4794
H3_2 H 0.2945 0.2535 0.5513
C3_2 C 0.4487(6) 0.3318(6) 0.3596(4)
H4_2 H 0.3989 0.3138 0.3055
H5_2 H 0.4603 0.2665 0.3709
C4_2 C 0.5632(5) 0.4370(5) 0.3393(4)
O5_2 O 0.8105(6) 0.4499(4) 0.5594(3)
O6_2 O 0.6394(4) 0.1895(6) 0.5594(3)
O13_2 O 0.7539(6) 0.5607(5) 0.6282(3)
O14_2 O 0.8068(4) 0.2461(6) 0.6282(3)
O20_2 O 0.5656(4) 0.3804(4) 0.7706(3)
O21_2 O 0.6196(4) 0.1852(6) 0.7706(3)
O22_2 O 0.8148(6) 0.4344(4) 0.7706(3)
O26_2 O 0.9262(6) 0.4020(4) 0.3911(3)
O27_2 O 0.4758(4) 0.0738(6) 0.3911(3)
N2_2 N 0.9571(6) 0.6095(4) 0.4412(3)
N3_2 N 0.6524(4) 0.0429(6) 0.4412(3)
C5_2 C 0.8150(8) 0.5466(6) 0.5697(4)
C6_2 C 0.7316(5) 0.1850(8) 0.5697(4)
C10_2 C 0.9004(7) 0.6469(5) 0.5112(5)
C11_2 C 0.7465(5) 0.0996(7) 0.5112(5)
H14_2 H 0.8605 0.6811 0.4794
H15_2 H 0.8206 0.1395 0.4794
H16_2 H 0.8206 0.6811 0.9794
H17_2 H 0.3189 0.1395 0.9794
H18_2 H 0.8605 0.1794 0.9794
H19_2 H 0.9590 0.7055 0.5513
H20_2 H 0.7465 0.0410 0.5513
C15_2 C 0.8831(8) 0.5513(6) 0.3596(4)
C16_2 C 0.6682(6) 0.1169(8) 0.3596(4)
C17_2 C 0.6682(6) 0.5513(6) 0.8596(4)
C18_2 C 0.4487(6) 0.1169(8) 0.8596(4)
C19_2 C 0.8831(8) 0.3318(6) 0.8596(4)
H24_2 H 0.9149 0.6011 0.3055
H25_2 H 0.6862 0.0851 0.3055
H26_2 H 0.6862 0.6011 0.8055
H27_2 H 0.3989 0.0851 0.8055
H28_2 H 0.9149 0.3138 0.8055
H29_2 H 0.8062 0.5397 0.3709
H30_2 H 0.7335 0.1938 0.3709
H31_2 H 0.7335 0.5397 0.8709
H32_2 H 0.4603 0.1938 0.8709
H33_2 H 0.8062 0.2665 0.8709
C20_2 C 0.8738(7) 0.4368(5) 0.3393(4)
C21_2 C 0.5630(5) 0.1262(7) 0.3393(4)
C22_2 C 0.5630(5) 0.4368(5) 0.8393(4)
C23_2 C 0.5632(5) 0.1262(7) 0.8393(4)
C24_2 C 0.8738(7) 0.4370(5) 0.8393(4)
H34_2 H 0.570302 0.667045 0.61361
H35_2 H 0.633606 0.716849 0.511212
H7_2 H 0.6500 0.9770 0.4210
H36_2 H 0.332955 0.903257 0.61361
H37_2 H 0.283151 0.916757 0.511212
H36_3 H 0.0967429 0.667045 0.11361
H37_3 H 0.0832434 0.716849 0.0112115
H34_3 H 0.332955 0.429698 0.11361
H35_3 H 0.283151 0.366394 0.0112115
H38_3 H 0.570302 0.903257 0.11361
H39_3 H 0.633606 0.916757 0.0112115
H36_4 H 0.667045 0.0967429 0.38639
H37_4 H 0.716849 0.0832434 0.488788
H34_4 H 0.429698 0.332955 0.38639
H35_4 H 0.366394 0.283151 0.488788
H38_4 H 0.903257 0.570302 0.38639
H39_4 H 0.916757 0.633606 0.488788
loop_
_geom_bond_atom_site_label_1
_geom_bond_atom_site_label_2
_geom_bond_site_symmetry_1
_geom_bond_site_symmetry_2
O11 Cu2 1_555 1_555
O32 Cu2_2 1_555 1_555
N8 Cu2_2 1_555 1_555
N8 H38 1_555 1_555
N8 H39 1_555 1_555
O3 C4 1_555 1_555
O4 Cu1 1_555 1_555
N1 Cu1 1_555 1_555
H1 N1 1_555 1_555
C3 N1 1_555 1_555
H4 C3 1_555 1_555
H5 C3 1_555 1_555
C4 O4 1_555 1_555
Ho3 O3 1_555 1_555
O10 Cu1 1_555 1_555
O18 Ho3 1_555 1_555
O19 Ho3 1_555 1_555
O26 Cu2_3 1_555 1_555
O27 Cu3 1_555 1_555
N2 Cu2_3 1_555 1_555
N3 Cu3 1_555 1_555
C15 N2 1_555 1_555
C16 N3 1_555 1_555
H24 C15 1_555 1_555
H25 C16 1_555 1_555
H29 C15 1_555 1_555
H30 C16 1_555 1_555
C20 O18 1_555 1_555
C21 O19 1_555 1_555
C3 C4 1_555 1_555
O26 C20 1_555 1_555
O27 C21 1_555 1_555
C15 C20 1_555 1_555
C16 C21 1_555 1_555
Ho1 O1 1_555 1_555
Cu1_2 O1 1_555 1_555
O1 C1 1_555 1_555
O2 Ho1 1_555 1_555
C1 O2 1_555 1_555
H3 C2 1_555 1_555
Ho3 O7 1_555 1_555
Cu2_4 O5 1_555 1_555
Cu3_2 O6 1_555 1_555
Cu4 O7 1_555 1_555
Cu5 O8 1_555 1_555
Cu6_2 O9 1_555 1_555
O5 Ho1 1_555 1_555
O6 Ho1 1_555 1_555
O7 C7 1_555 1_555
O8 Ho3 1_555 1_555
O9 Ho3 1_555 1_555
O13 Ho1 1_555 1_555
O14 Ho1 1_555 1_555
O15 Ho3 1_555 1_555
O16 Ho3 1_555 1_555
O17 Ho3 1_555 1_555
O20 Ho1 1_555 1_555
O21 Ho1 1_555 1_555
O22 Ho1 1_555 1_555
O28 Cu4 1_555 1_555
O29 Cu5 1_555 1_555
O30 Cu6_2 1_555 1_555
O31 Cu1_2 1_555 1_555
N4 Cu4 1_555 1_555
N5 Cu5 1_555 1_555
N6 Cu6_2 1_555 1_555
N7 Cu1_2 1_555 1_555
H8 N4 1_555 1_555
H11 N7 1_555 1_555
C5 O5 1_555 1_555
C6 O6 1_555 1_555
C7 O15 1_555 1_555
C8 O8 1_555 1_555
C9 O9 1_555 1_555
C12 N4 1_555 1_555
C13 N5 1_555 1_555
C14 N6 1_555 1_555
H16 C12 1_555 1_555
H17 C13 1_555 1_555
H18 C14 1_555 1_555
H19 C10 1_555 1_555
H20 C11 1_555 1_555
H21 C12 1_555 1_555
H22 C13 1_555 1_555
H23 C14 1_555 1_555
C17 N4 1_555 1_555
C18 N5 1_555 1_555
C19 N6 1_555 1_555
H26 C17 1_555 1_555
H27 C18 1_555 1_555
H28 C19 1_555 1_555
H31 C17 1_555 1_555
H32 C18 1_555 1_555
H33 C19 1_555 1_555
C22 O20 1_555 1_555
C23 O21 1_555 1_555
C24 O22 1_555 1_555
C1 C2 1_555 1_555
O13 C5 1_555 1_555
O14 C6 1_555 1_555
O16 C8 1_555 1_555
O17 C9 1_555 1_555
O28 C22 1_555 1_555
O29 C23 1_555 1_555
O30 C24 1_555 1_555
C5 C10 1_555 1_555
C6 C11 1_555 1_555
C7 C12 1_555 1_555
C8 C13 1_555 1_555
C9 C14 1_555 1_555
C17 C22 1_555 1_555
C18 C23 1_555 1_555
C19 C24 1_555 1_555
N7 H34 1_555 1_555
N7 H35 1_555 1_555
O12 Cu3_3 1_555 1_555
O33 Cu3_4 1_555 1_555
N9 Cu3_4 1_555 1_555
N9 H36 1_555 1_555
N9 H37 1_555 1_555
N5 H38_2 1_555 1_555
N5 H39_2 1_555 1_555
Ho2 O10 1_555 1_555
O10 C7_2 1_555 1_555
O11 Ho2 1_555 1_555
O12 Ho2 1_555 1_555
O15_2 Ho2 1_555 1_555
O16_2 Ho2 1_555 1_555
O17_2 Ho2 1_555 1_555
O23 Ho2 1_555 1_555
O24 Ho2 1_555 1_555
O25 Ho2 1_555 1_555
C7_2 O15_2 1_555 1_555
C8_2 O11 1_555 1_555
C9_2 O12 1_555 1_555
H21_2 C12_2 1_555 1_555
H22_2 C13_2 1_555 1_555
H23_2 C14_2 1_555 1_555
O16_2 C8_2 1_555 1_555
O17_2 C9_2 1_555 1_555
C7_2 C12_2 1_555 1_555
C8_2 C13_2 1_555 1_555
C9_2 C14_2 1_555 1_555
Ho1_2 O1_2 1_555 1_555
Cu4 O1_2 1_555 1_555
O1_2 C1_2 1_555 1_555
O2_2 Ho1_2 1_555 1_555
O23 C4_2 1_555 1_555
O4_2 Cu4 1_555 1_555
N1_2 Cu4 1_555 1_555
H1_2 N1_2 1_555 1_555
C1_2 O2_2 1_555 1_555
C2_2 N1_2 1_555 1_555
H2_2 C2_2 1_555 1_555
H3_2 C2_2 1_555 1_555
C3_2 N1_2 1_555 1_555
H4_2 C3_2 1_555 1_555
H5_2 C3_2 1_555 1_555
C4_2 O4_2 1_555 1_555
Cu5_2 O5_2 1_555 1_555
Cu6 O6_2 1_555 1_555
O5_2 Ho1_2 1_555 1_555
O6_2 Ho1_2 1_555 1_555
O13_2 Ho1_2 1_555 1_555
O14_2 Ho1_2 1_555 1_555
O20_2 Ho1_2 1_555 1_555
O21_2 Ho1_2 1_555 1_555
O22_2 Ho1_2 1_555 1_555
O26_2 Cu5_2 1_555 1_555
O27_2 Cu6 1_555 1_555
N2_2 Cu5_2 1_555 1_555
N3_2 Cu6 1_555 1_555
C5_2 O5_2 1_555 1_555
C6_2 O6_2 1_555 1_555
C10_2 N2_2 1_555 1_555
C11_2 N3_2 1_555 1_555
H14_2 C10_2 1_555 1_555
H15_2 C11_2 1_555 1_555
H19_2 C10_2 1_555 1_555
H20_2 C11_2 1_555 1_555
C15_2 N2_2 1_555 1_555
C16_2 N3_2 1_555 1_555
C17_2 N7 1_555 1_555
C18_2 N8 1_555 1_555
C19_2 N9 1_555 1_555
H24_2 C15_2 1_555 1_555
H25_2 C16_2 1_555 1_555
H26_2 C17_2 1_555 1_555
H27_2 C18_2 1_555 1_555
H28_2 C19_2 1_555 1_555
H29_2 C15_2 1_555 1_555
H30_2 C16_2 1_555 1_555
H31_2 C17_2 1_555 1_555
H32_2 C18_2 1_555 1_555
H33_2 C19_2 1_555 1_555
C20_2 O24 1_555 1_555
C21_2 O25 1_555 1_555
C22_2 O20_2 1_555 1_555
C23_2 O21_2 1_555 1_555
C24_2 O22_2 1_555 1_555
C1_2 C2_2 1_555 1_555
C3_2 C4_2 1_555 1_555
O13_2 C5_2 1_555 1_555
O14_2 C6_2 1_555 1_555
O26_2 C20_2 1_555 1_555
O27_2 C21_2 1_555 1_555
O31 C22_2 1_555 1_555
O32 C23_2 1_555 1_555
O33 C24_2 1_555 1_555
C5_2 C10_2 1_555 1_555
C6_2 C11_2 1_555 1_555
C15_2 C20_2 1_555 1_555
C16_2 C21_2 1_555 1_555
C17_2 C22_2 1_555 1_555
C18_2 C23_2 1_555 1_555
C19_2 C24_2 1_555 1_555
N4 H34_2 1_555 1_555
N4 H35_2 1_555 1_555
N6 H36_2 1_555 1_555
N6 H37_2 1_555 1_555
N3 H36_3 1_555 1_555
N3 H37_3 1_555 1_555
N1 H34_3 1_555 1_555
N1 H35_3 1_555 1_555
N2 H38_3 1_555 1_555
N2 H39_3 1_555 1_555
N3_2 H36_4 1_555 1_555
N3_2 H37_4 1_555 1_555
N1_2 H34_4 1_555 1_555
N1_2 H35_4 1_555 1_555
N2_2 H38_4 1_555 1_555
N2_2 H39_4 1_555 1_555

#END
