
###############################################################################
#
# This file contains modified crystal structure data generated from the
# MOF subset of the Cambridge Structural Database (CSD) v543 
# hosted by the Cambridge Crystallographic Data Centre (CCDC).
#
# This work is licensed under the Creative Commons
# Attribution-NonCommercial-ShareAlike 4.0 International License.
# To view a copy of this license, visit
# http://creativecommons.org/licenses/by-nc-sa/4.0/
# or send a letter to
# Creative Commons, PO Box 1866, Mountain View, CA 94042, USA.
#
# CIF created using the CSD Python API on 29 September 2022
# The structure has been converted into the P1 space group
# The structure has a 3D framework
# The original CSD entry HAMXIG is in the hexagonal crystal system
# The framework has been calculated to contain at least 10.0% void space
# The void calculation uses a probe of radius 1.32A, grid spacing 0.4
# H atom positions have been added when not included in the experimental data
# Generated hydrogen atom positions removed from atoms on special positions
#
###############################################################################

data_HAMXIG
_chemical_formula_moiety         '(C48 H96 Fe6 O32)n'
_symmetry_cell_setting           triclinic
_symmetry_space_group_name_H-M   'P 1'
_symmetry_Int_Tables_number      1
_space_group_name_Hall           'P 1'
loop_
_symmetry_equiv_pos_site_id
_symmetry_equiv_pos_as_xyz
1 x,y,z
_cell_length_a                   13.9105(12)
_cell_length_b                   13.9105(12)
_cell_length_c                   17.6608(13)
_cell_angle_alpha                90
_cell_angle_beta                 90
_cell_angle_gamma                120
_cell_volume                     2959.56
loop_
_atom_site_label
_atom_site_type_symbol
_atom_site_fract_x
_atom_site_fract_y
_atom_site_fract_z
O14 O 0.14742(17) 0.49374(11) 0.66760(8)
C20 C 0.12256(16) 0.56128(11) 0.64028(14)
C21 C 0.05810(20) 0.52905(14) 0.56803(15)
C22 C 0.0285(3) 0.6003(2) 0.53405(13)
H10 H 0.047071 0.667558 0.557038
O15 O 0.14742(17) 0.65368(13) 0.66760(8)
C23 C 0.0285(3) 0.4282(2) 0.53405(13)
H11 H 0.047071 0.379513 0.557038
Fe5 Fe 0.25361(4) 0.74639(2) 0.750000
Fe7 Fe 0.25361(2) 0.50722(4) 0.750000
Fe1 Fe 0.74639(2) 0.49278(4) 0.250000
O1 O 0.65368(13) 0.50626(11) 0.33240(8)
O2 O 0.666667 0.333333 0.250000
O3 O 0.83128(12) 0.6626(2) 0.250000
C1 C 0.56128(11) 0.43872(11) 0.35972(14)
C2 C 0.52905(14) 0.47095(14) 0.43197(15)
C3 C 0.4282(2) 0.3997(2) 0.46595(13)
H1 H 0.379513 0.332442 0.442962
O4 O 0.50626(11) 0.65368(13) 0.66760(8)
C4 C 0.43872(11) 0.56128(11) 0.64028(14)
C5 C 0.47095(14) 0.52905(14) 0.56803(15)
C6 C 0.3997(2) 0.4282(2) 0.53405(13)
H2 H 0.332442 0.379513 0.557038
O5 O 0.34632(13) 0.49374(11) 0.66760(8)
C7 C 0.5718(2) 0.6003(2) 0.53405(13)
H3 H 0.620487 0.667558 0.557038
O6 O 0.49374(11) 0.34632(13) 0.33240(8)
C8 C 0.6003(2) 0.5718(2) 0.46595(13)
H4 H 0.667558 0.620487 0.442962
Fe2 Fe 0.50722(4) 0.25361(4) 0.250000
O7 O 0.49374(11) 0.14742(17) 0.33240(8)
O8 O 0.3374(2) 0.16868(23) 0.250000
C9 C 0.56128(11) 0.12256(16) 0.35972(14)
C10 C 0.52905(14) 0.05810(20) 0.43197(15)
C11 C 0.6003(2) 0.0285(3) 0.46595(13)
H5 H 0.667558 0.047071 0.442962
O11 O 0.65368(13) 0.14742(17) 0.33240(8)
C16 C 0.4282(2) 0.0285(3) 0.46595(13)
H8 H 0.379513 0.047071 0.442962
Fe3 Fe 0.74639(4) 0.25361(2) 0.250000
O12 O 0.85258(17) 0.34632(13) 0.33240(8)
O13 O 0.83132(23) 0.16872(12) 0.250000
C17 C 0.87744(16) 0.43872(11) 0.35972(14)
C18 C 0.94190(20) 0.47095(14) 0.43197(15)
C19 C 0.9715(3) 0.5718(2) 0.46595(13)
H9 H 0.952929 0.620487 0.442962
O16 O 0.85258(17) 0.50626(11) 0.33240(8)
C24 C 0.9715(3) 0.3997(2) 0.46595(13)
H12 H 0.952929 0.332442 0.442962
Fe9 Fe 0.49278(4) 0.74639(4) 0.750000
O17 O 0.49374(11) 0.34632(13) 0.16760(8)
O18 O 0.85258(17) 0.50626(11) 0.16760(8)
O19 O 0.65368(13) 0.14742(17) 0.16760(8)
O20 O 0.85258(17) 0.34632(13) 0.16760(8)
O21 O 0.65368(13) 0.50626(11) 0.16760(8)
O22 O 0.49374(11) 0.14742(17) 0.16760(8)
O9 O 0.34632(13) 0.85258(17) 0.66760(8)
C12 C 0.43872(11) 0.87744(16) 0.64028(14)
C13 C 0.47095(14) 0.94190(20) 0.56803(15)
C14 C 0.5718(2) 0.9715(3) 0.53405(13)
H6 H 0.620487 0.952929 0.557038
O10 O 0.50626(11) 0.85258(17) 0.66760(8)
C15 C 0.3997(2) 0.9715(3) 0.53405(13)
H7 H 0.332442 0.952929 0.557038
C20_2 C 0.56128(19) 0.12256(16) 0.14028(14)
C21_2 C 0.52905(24) 0.05810(20) 0.06803(15)
C22_2 C 0.4282(4) 0.0285(3) 0.03405(13)
H10_2 H 0.379513 0.047071 0.057038
C23_2 C 0.6003(4) 0.0285(3) 0.03405(13)
H11_2 H 0.667558 0.047071 0.057038
C12_2 C 0.56128(19) 0.43872(11) 0.14028(14)
C13_2 C 0.52905(24) 0.47095(14) 0.06803(15)
C14_2 C 0.6003(4) 0.5718(2) 0.03405(13)
H6_2 H 0.667558 0.620487 0.057038
C15_2 C 0.4282(4) 0.3997(2) 0.03405(13)
H7_2 H 0.379513 0.332442 0.057038
O1_2 O 0.14742(17) 0.65368(13) 0.83240(8)
O2_2 O 0.333334 0.666667 0.750000
O3_2 O 0.16868(23) 0.83128(12) 0.750000
C1_2 C 0.12256(16) 0.56128(11) 0.85972(14)
C2_2 C 0.05810(20) 0.52905(14) 0.93197(15)
C3_2 C 0.0285(3) 0.4282(2) 0.96595(13)
H1_2 H 0.047071 0.379513 0.942962
O6_2 O 0.14742(17) 0.49374(11) 0.83240(8)
C8_2 C 0.0285(3) 0.6003(2) 0.96595(13)
H4_2 H 0.047071 0.667558 0.942962
O7_2 O 0.34632(20) 0.49374(11) 0.83240(8)
O8_2 O 0.16872(30) 0.3374(2) 0.750000
C9_2 C 0.43872(19) 0.56128(11) 0.85972(14)
C10_2 C 0.47095(24) 0.52905(14) 0.93197(15)
C11_2 C 0.5718(4) 0.6003(2) 0.96595(13)
H5_2 H 0.620487 0.667558 0.942962
O11_2 O 0.50626(21) 0.65368(13) 0.83240(8)
C16_2 C 0.3997(4) 0.4282(2) 0.96595(13)
H8_2 H 0.332442 0.379513 0.942962
O12_2 O 0.50626(21) 0.85258(17) 0.83240(8)
O13_2 O 0.66260(26) 0.83132(23) 0.750000
C17_2 C 0.43872(19) 0.87744(16) 0.85972(14)
C18_2 C 0.47095(24) 0.94190(20) 0.93197(15)
C19_2 C 0.3997(4) 0.9715(3) 0.96595(13)
H9_2 H 0.332442 0.952929 0.942962
O16_2 O 0.34632(20) 0.85258(17) 0.83240(8)
C24_2 C 0.5718(4) 0.9715(3) 0.96595(13)
H12_2 H 0.620487 0.952929 0.942962
C4_2 C 0.87744(16) 0.43872(11) 0.14028(14)
C5_2 C 0.94190(20) 0.47095(14) 0.06803(15)
C6_2 C 0.9715(3) 0.3997(2) 0.03405(13)
H2_2 H 0.952929 0.332442 0.057038
C7_2 C 0.9715(3) 0.5718(2) 0.03405(13)
H3_2 H 0.952929 0.620487 0.057038
loop_
_geom_bond_atom_site_label_1
_geom_bond_atom_site_label_2
_geom_bond_site_symmetry_1
_geom_bond_site_symmetry_2
O14 C20 1_555 1_555
C20 C21 1_555 1_555
C21 C22 1_555 1_555
H10 C22 1_555 1_555
O15 C20 1_555 1_555
C23 C21 1_555 1_555
H11 C23 1_555 1_555
Fe5 O15 1_555 1_555
Fe7 O14 1_555 1_555
Fe1 O1 1_555 1_555
O1 C1 1_555 1_555
O2 Fe1 1_555 1_555
O3 Fe1 1_555 1_555
C1 C2 1_555 1_555
C2 C3 1_555 1_555
C3 H1 1_555 1_555
O4 C4 1_555 1_555
C4 C5 1_555 1_555
C5 C6 1_555 1_555
C6 C3 1_555 1_555
H2 C6 1_555 1_555
O5 C4 1_555 1_555
C7 C5 1_555 1_555
H3 C7 1_555 1_555
O6 C1 1_555 1_555
C8 C2 1_555 1_555
H4 C8 1_555 1_555
Fe2 O2 1_555 1_555
O7 Fe2 1_555 1_555
O8 Fe2 1_555 1_555
C9 O7 1_555 1_555
C10 C9 1_555 1_555
C11 C10 1_555 1_555
H5 C11 1_555 1_555
O11 C9 1_555 1_555
C16 C10 1_555 1_555
H8 C16 1_555 1_555
Fe3 O2 1_555 1_555
O12 Fe3 1_555 1_555
O13 Fe3 1_555 1_555
C17 O12 1_555 1_555
C18 C17 1_555 1_555
C19 C18 1_555 1_555
H9 C19 1_555 1_555
O16 Fe1 1_555 1_555
C24 C18 1_555 1_555
H12 C24 1_555 1_555
Fe7 O5 1_555 1_555
Fe9 O4 1_555 1_555
O17 Fe2 1_555 1_555
O18 Fe1 1_555 1_555
O19 Fe3 1_555 1_555
O20 Fe3 1_555 1_555
O21 Fe1 1_555 1_555
O22 Fe2 1_555 1_555
C7 C8 1_555 1_555
O6 Fe2 1_555 1_555
O11 Fe3 1_555 1_555
C17 O16 1_555 1_555
O9 C12 1_555 1_555
C12 C13 1_555 1_555
C13 C14 1_555 1_555
H6 C14 1_555 1_555
O10 C12 1_555 1_555
C15 C13 1_555 1_555
H7 C15 1_555 1_555
Fe5 O9 1_555 1_555
Fe9 O10 1_555 1_555
O19 C20_2 1_555 1_555
C20_2 C21_2 1_555 1_555
C21_2 C22_2 1_555 1_555
H10_2 C22_2 1_555 1_555
O22 C20_2 1_555 1_555
C23_2 C21_2 1_555 1_555
H11_2 C23_2 1_555 1_555
O17 C12_2 1_555 1_555
C12_2 C13_2 1_555 1_555
C13_2 C14_2 1_555 1_555
H6_2 C14_2 1_555 1_555
O21 C12_2 1_555 1_555
C15_2 C13_2 1_555 1_555
H7_2 C15_2 1_555 1_555
Fe5 O1_2 1_555 1_555
O1_2 C1_2 1_555 1_555
O2_2 Fe5 1_555 1_555
O3_2 Fe5 1_555 1_555
C1_2 C2_2 1_555 1_555
C2_2 C3_2 1_555 1_555
C3_2 H1_2 1_555 1_555
O6_2 C1_2 1_555 1_555
C8_2 C2_2 1_555 1_555
H4_2 C8_2 1_555 1_555
Fe7 O2_2 1_555 1_555
O7_2 Fe7 1_555 1_555
O8_2 Fe7 1_555 1_555
C9_2 O7_2 1_555 1_555
C10_2 C9_2 1_555 1_555
C11_2 C10_2 1_555 1_555
H5_2 C11_2 1_555 1_555
O11_2 C9_2 1_555 1_555
C16_2 C10_2 1_555 1_555
H8_2 C16_2 1_555 1_555
Fe9 O2_2 1_555 1_555
O12_2 Fe9 1_555 1_555
O13_2 Fe9 1_555 1_555
C17_2 O12_2 1_555 1_555
C18_2 C17_2 1_555 1_555
C19_2 C18_2 1_555 1_555
H9_2 C19_2 1_555 1_555
O16_2 Fe5 1_555 1_555
C24_2 C18_2 1_555 1_555
H12_2 C24_2 1_555 1_555
O6_2 Fe7 1_555 1_555
O11_2 Fe9 1_555 1_555
C17_2 O16_2 1_555 1_555
O18 C4_2 1_555 1_555
C4_2 C5_2 1_555 1_555
C5_2 C6_2 1_555 1_555
H2_2 C6_2 1_555 1_555
O20 C4_2 1_555 1_555
C7_2 C5_2 1_555 1_555
H3_2 C7_2 1_555 1_555

#END
