
###############################################################################
#
# This file contains modified crystal structure data generated from the
# MOF subset of the Cambridge Structural Database (CSD) v543 
# hosted by the Cambridge Crystallographic Data Centre (CCDC).
#
# This work is licensed under the Creative Commons
# Attribution-NonCommercial-ShareAlike 4.0 International License.
# To view a copy of this license, visit
# http://creativecommons.org/licenses/by-nc-sa/4.0/
# or send a letter to
# Creative Commons, PO Box 1866, Mountain View, CA 94042, USA.
#
# CIF created using the CSD Python API on 29 September 2022
# The structure has been converted into the P1 space group
# The structure has a 3D framework
# The original CSD entry HAMXEC is in the triclinic crystal system
# The framework has been calculated to contain at least 10.0% void space
# The void calculation uses a probe of radius 1.32A, grid spacing 0.4
#
###############################################################################

data_HAMXEC
_chemical_formula_moiety         '(C16 H10 Fe2 O10)n'
_symmetry_cell_setting           triclinic
_symmetry_space_group_name_H-M   'P 1'
_symmetry_Int_Tables_number      1
_space_group_name_Hall           'P 1'
loop_
_symmetry_equiv_pos_site_id
_symmetry_equiv_pos_as_xyz
1 x,y,z
_cell_length_a                   6.8403(12)
_cell_length_b                   10.7142(18)
_cell_length_c                   10.7928(18)
_cell_angle_alpha                117.292(6)
_cell_angle_beta                 94.188(7)
_cell_angle_gamma                103.254(6)
_cell_volume                     669.542
loop_
_atom_site_label
_atom_site_type_symbol
_atom_site_fract_x
_atom_site_fract_y
_atom_site_fract_z
O6 O 0.3325(4) 0.3097(3) 0.3265(3)
O7 O 0.0264(4) 0.3501(3) 0.3068(3)
C9 C 0.1493(6) 0.2746(4) 0.2649(4)
C10 C 0.0709(5) 0.1321(4) 0.1268(4)
C11 C 0.1989(6) 0.0441(5) 0.0755(4)
H6 H 0.334853 0.074518 0.127371
Fe4 Fe 0.500000 0.500000 0.500000
Fe7 Fe -0.000000 0.500000 0.500000
C12 C 0.1283(6) 0.9118(4) 0.9485(4)
H7 H 0.215669 0.851573 0.913339
O13 O 0.2630(4) 0.5111(3) 0.5897(3)
O15 O 0.1359(4) 0.6747(3) 0.4709(3)
C4 C 0.8717(6) 0.0882(4) 0.0515(4)
H2 H 0.784331 0.148427 0.086661
Fe7_2 Fe 1.000000 0.500000 0.500000
C8 C 0.7131(6) 0.0576(5) 0.5321(5)
H4 H 0.858228 0.097324 0.553614
O8 O 0.5718(4) 0.3777(3) 0.5822(3)
C13 C 0.6826(6) 0.2921(4) 0.5449(4)
C14 C 0.5887(6) 0.1401(4) 0.5222(4)
C15 C 0.3759(6) 0.0834(5) 0.4896(5)
H8 H 0.292184 0.140160 0.482165
O9 O 0.8641(4) 0.3253(3) 0.5291(3)
O1 O 0.6675(4) 0.6903(3) 0.6735(3)
O2 O 0.9736(4) 0.6499(3) 0.6932(3)
C1 C 0.8507(6) 0.7254(4) 0.7351(4)
C2 C 0.9291(5) 0.8679(4) 0.8732(4)
C3 C 0.8011(6) 0.9559(5) 0.9245(4)
H1 H 0.665147 0.925482 0.872629
O4 O 0.4282(4) 0.6223(3) 0.4178(3)
C5 C 0.3174(6) 0.7079(4) 0.4551(4)
C6 C 0.4113(6) 0.8599(4) 0.4778(4)
C7 C 0.6241(6) 0.9166(5) 0.5104(5)
H3 H 0.707816 0.859840 0.517835
H5 H 0.302(6) 0.541(5) 0.678(5)
C16 C 0.2869(6) 0.9424(5) 0.4679(5)
H9 H 0.141772 0.902676 0.446386
O10 O 0.7370(4) 0.4889(3) 0.4103(3)
H10 H 0.698(6) 0.459(5) 0.322(5)
loop_
_geom_bond_atom_site_label_1
_geom_bond_atom_site_label_2
_geom_bond_site_symmetry_1
_geom_bond_site_symmetry_2
O6 C9 1_555 1_555
O7 C9 1_555 1_555
C9 C10 1_555 1_555
C11 C10 1_555 1_555
H6 C11 1_555 1_555
Fe4 O6 1_555 1_555
Fe7 O7 1_555 1_555
H7 C12 1_555 1_555
O13 Fe7 1_555 1_555
O15 Fe7 1_555 1_555
H2 C4 1_555 1_555
H4 C8 1_555 1_555
O8 C13 1_555 1_555
C13 C14 1_555 1_555
C14 C8 1_555 1_555
C15 C14 1_555 1_555
H8 C15 1_555 1_555
O9 C13 1_555 1_555
Fe4 O8 1_555 1_555
Fe7_2 O9 1_555 1_555
Fe4 O1 1_555 1_555
Fe7_2 O2 1_555 1_555
O1 C1 1_555 1_555
O2 C1 1_555 1_555
O13 Fe4 1_555 1_555
C1 C2 1_555 1_555
C2 C3 1_555 1_555
C3 H1 1_555 1_555
O4 Fe4 1_555 1_555
O15 C5 1_555 1_555
C5 O4 1_555 1_555
C6 C5 1_555 1_555
C7 C6 1_555 1_555
H3 C7 1_555 1_555
H5 O13 1_555 1_555
C16 C6 1_555 1_555
H9 C16 1_555 1_555
O10 Fe4 1_555 1_555
H10 O10 1_555 1_555
Fe7_2 O10 1_555 1_555

#END
