
###############################################################################
#
# This file contains modified crystal structure data generated from the
# MOF subset of the Cambridge Structural Database (CSD) v543 
# hosted by the Cambridge Crystallographic Data Centre (CCDC).
#
# This work is licensed under the Creative Commons
# Attribution-NonCommercial-ShareAlike 4.0 International License.
# To view a copy of this license, visit
# http://creativecommons.org/licenses/by-nc-sa/4.0/
# or send a letter to
# Creative Commons, PO Box 1866, Mountain View, CA 94042, USA.
#
# CIF created using the CSD Python API on 29 September 2022
# The structure has been converted into the P1 space group
# The structure has a 3D framework
# The original CSD entry HANNUJ is in the monoclinic crystal system
# The framework has been calculated to contain at least 10.0% void space
# The void calculation uses a probe of radius 1.32A, grid spacing 0.4
#
###############################################################################

data_HANNUJ
_chemical_formula_moiety         '(C76 H60 Cu2 Gd4 N4 O36)n'
_symmetry_cell_setting           triclinic
_symmetry_space_group_name_H-M   'P 1'
_symmetry_Int_Tables_number      1
_space_group_name_Hall           'P 1'
loop_
_symmetry_equiv_pos_site_id
_symmetry_equiv_pos_as_xyz
1 x,y,z
_cell_length_a                   11.798(3)
_cell_length_b                   17.390(4)
_cell_length_c                   12.804(3)
_cell_angle_alpha                90
_cell_angle_beta                 115.285(8)
_cell_angle_gamma                90
_cell_volume                     2375.28
loop_
_atom_site_label
_atom_site_type_symbol
_atom_site_fract_x
_atom_site_fract_y
_atom_site_fract_z
Cu1 Cu 0.000000 -0.000000 0.500000
Gd8 Gd 0.12703(2) 0.49372(2) 0.92645(2)
O25 O 0.06338(19) 0.06970(12) 0.63349(18)
O28 O 0.22023(19) 0.07519(11) 0.58167(17)
Cu1_2 Cu 0.000000 1.000000 0.500000
O23 O 0.06496(19) 0.91060(11) 0.59931(18)
Gd5 Gd 0.87297(2) 0.50628(2) 0.07355(2)
Gd1 Gd 0.62703(2) 0.00628(2) 0.42645(2)
Cu1_3 Cu 1.000000 -0.000000 0.500000
O1 O 0.6324(2) 0.06352(11) 0.59118(17)
O2 O 0.53026(19) 0.07628(11) 0.70075(17)
C1 C 0.6119(3) 0.09758(14) 0.6682(2)
C2 C 0.6876(2) 0.16796(14) 0.7239(2)
C3 C 0.7794(3) 0.19520(15) 0.6914(2)
H1 H 0.796879 0.168223 0.635488
C4 C 0.8449(3) 0.26205(15) 0.7415(2)
H2 H 0.906993 0.280958 0.719293
C5 C 0.8198(3) 0.30124(14) 0.8240(2)
C6 C 0.7280(3) 0.27387(15) 0.8563(2)
H3 H 0.710475 0.300824 0.912232
C7 C 0.6627(3) 0.20732(15) 0.8065(2)
H4 H 0.600685 0.188481 0.828864
C8 C 0.8897(3) 0.37343(14) 0.8793(2)
O3 O 0.97158(18) 0.39820(11) 0.84907(16)
O4 O 0.8614(2) 0.40409(11) 0.95384(18)
O5 O 0.78466(18) 0.09639(11) 0.46209(17)
O6 O 0.93504(19) 0.08940(11) 0.40069(18)
C9 C 0.8412(3) 0.12169(15) 0.4049(2)
C10 C 0.7959(3) 0.19473(15) 0.3376(2)
C11 C 0.8517(3) 0.22092(15) 0.2678(3)
H5 H 0.918783 0.192760 0.263945
C12 C 0.8097(3) 0.28794(16) 0.2039(2)
H6 H 0.847997 0.305700 0.156498
C13 C 0.7106(3) 0.32930(15) 0.2098(2)
C14 C 0.6552(3) 0.30339(16) 0.2802(3)
H7 H 0.588410 0.331689 0.284463
C15 C 0.6975(3) 0.23621(16) 0.3441(3)
H8 H 0.659656 0.218542 0.391938
C16 C 0.6630(3) 0.40032(15) 0.1385(2)
O7 O 0.56338(19) 0.43030(12) 0.13349(18)
O8 O 0.72023(19) 0.42481(11) 0.08167(17)
O9 O 0.62254(18) 0.03184(11) 0.24269(16)
C17 C 0.5435(3) 0.06557(17) 0.1572(2)
H9 H 0.464114 0.076583 0.156064
N1 N 0.5639(2) 0.08700(15) 0.0676(2)
C18 C 0.6839(3) 0.0734(2) 0.0636(3)
H10 H 0.719219 0.122515 0.054143
H12 H 0.741776 0.048921 0.135666
Cu4 Cu 0.500000 0.500000 0.000000
O20 O 0.47158(18) 0.10180(11) 0.34907(16)
O22 O 0.3614(2) 0.09591(11) 0.45384(18)
H11 H 0.671480 0.039648 0.998309
C19 C 0.4692(4) 0.1282(3) 0.9711(3)
H13 H 0.389473 0.126952 0.977634
H14 H 0.458616 0.103757 0.898495
H15 H 0.495684 0.181710 0.971894
Cu4_2 Cu 0.500000 0.500000 1.000000
H26 H 0.328520 0.960352 0.001691
C38 C 0.5308(4) 0.8718(3) 0.0289(3)
H28 H 0.610527 0.873048 0.022366
H29 H 0.541384 0.896243 0.101505
H30 H 0.504316 0.818290 0.028106
Cu1_4 Cu 1.000000 1.000000 0.500000
Gd2 Gd 0.37297(2) 0.99372(2) 0.57355(2)
O10 O 0.3676(2) 0.93648(11) 0.40882(17)
O11 O 0.46974(19) 0.92372(11) 0.29925(17)
C20 C 0.3881(3) 0.90242(14) 0.3318(2)
C21 C 0.3124(2) 0.83204(14) 0.2761(2)
C22 C 0.2206(3) 0.80480(15) 0.3086(2)
H16 H 0.203121 0.831777 0.364512
C23 C 0.1551(3) 0.73795(15) 0.2585(2)
H17 H 0.093007 0.719042 0.280707
C24 C 0.1802(3) 0.69876(14) 0.1760(2)
C25 C 0.2720(3) 0.72613(15) 0.1437(2)
H18 H 0.289525 0.699176 0.087768
C26 C 0.3373(3) 0.79268(15) 0.1935(2)
H19 H 0.399315 0.811519 0.171136
C27 C 0.1103(3) 0.62657(14) 0.1207(2)
O12 O 0.02842(18) 0.60180(11) 0.15093(16)
O13 O 0.1386(2) 0.59591(11) 0.04616(18)
O14 O 0.21534(18) 0.90361(11) 0.53791(17)
C28 C 0.1588(3) 0.87831(15) 0.5951(2)
C29 C 0.2041(3) 0.80527(15) 0.6624(2)
C30 C 0.1483(3) 0.77908(15) 0.7322(3)
H20 H 0.081217 0.807240 0.736055
C31 C 0.1903(3) 0.71206(16) 0.7961(2)
H21 H 0.152003 0.694300 0.843502
C32 C 0.2894(3) 0.67070(15) 0.7902(2)
C33 C 0.3448(3) 0.69661(16) 0.7198(3)
H22 H 0.411590 0.668311 0.715537
C34 C 0.3025(3) 0.76379(16) 0.6559(3)
H23 H 0.340344 0.781458 0.608062
C35 C 0.3370(3) 0.59968(15) 0.8615(2)
O16 O 0.43662(19) 0.56970(12) 0.86651(18)
O17 O 0.27977(19) 0.57519(11) 0.91833(17)
O18 O 0.37746(18) 0.96816(11) 0.75731(16)
C36 C 0.4565(3) 0.93443(17) 0.8428(2)
H24 H 0.535886 0.923417 0.843936
N2 N 0.4361(2) 0.91300(15) 0.9324(2)
C37 C 0.3161(3) 0.9266(2) 0.9364(3)
H25 H 0.280781 0.877485 0.945857
H27 H 0.258224 0.951079 0.864334
O19 O 0.52842(18) 0.89820(11) 0.65093(16)
O21 O 0.6386(2) 0.90409(11) 0.54616(18)
O24 O 0.93662(19) 0.93030(12) 0.36651(18)
O26 O 0.77977(19) 0.92481(11) 0.41833(17)
H9_2 H 0.035886 0.576583 0.343936
C19_2 C 0.0308(4) 0.6282(3) 0.5289(3)
H13_2 H 0.110527 0.626952 0.522366
H14_2 H 0.041384 0.603757 0.601505
H15_2 H 0.004316 0.681710 0.528106
O10_2 O 0.1324(2) 0.43648(11) 0.09118(17)
O11_2 O 0.03026(19) 0.42372(11) 0.20075(17)
C20_2 C 0.1119(3) 0.40242(14) 0.1682(2)
C21_2 C 0.1876(2) 0.33204(14) 0.2239(2)
C22_2 C 0.2794(3) 0.30480(15) 0.1914(2)
H16_2 H 0.296879 0.331777 0.135488
C23_2 C 0.3449(3) 0.23795(15) 0.2415(2)
H17_2 H 0.406993 0.219042 0.219293
C24_2 C 0.3198(3) 0.19876(14) 0.3240(2)
C25_2 C 0.2280(3) 0.22613(15) 0.3563(2)
H18_2 H 0.210475 0.199176 0.412232
C26_2 C 0.1627(3) 0.29268(15) 0.3065(2)
H19_2 H 0.100685 0.311519 0.328864
C27_2 C 0.3897(3) 0.12657(14) 0.3793(2)
O14_2 O 0.28466(18) 0.40361(11) 0.96209(17)
O15 O 0.43504(19) 0.41060(11) 0.90069(18)
C28_2 C 0.3412(3) 0.37831(15) 0.9049(2)
C29_2 C 0.2959(3) 0.30527(15) 0.8376(2)
C30_2 C 0.3517(3) 0.27908(15) 0.7678(3)
H20_2 H 0.418783 0.307240 0.763945
C31_2 C 0.3097(3) 0.21206(16) 0.7039(2)
H21_2 H 0.347997 0.194300 0.656498
C32_2 C 0.2106(3) 0.17070(15) 0.7098(2)
C33_2 C 0.1552(3) 0.19661(16) 0.7802(3)
H22_2 H 0.088410 0.168311 0.784463
C34_2 C 0.1975(3) 0.26379(16) 0.8441(3)
H23_2 H 0.159656 0.281458 0.891938
C35_2 C 0.1630(3) 0.09968(15) 0.6385(2)
O18_2 O 0.12254(18) 0.46816(11) 0.74269(16)
C36_2 C 0.0435(3) 0.43443(17) 0.6572(2)
N2_2 N 0.0639(2) 0.41300(15) 0.5676(2)
C37_2 C 0.1839(3) 0.4266(2) 0.5636(3)
H25_2 H 0.219219 0.377485 0.554143
H26_2 H 0.171480 0.460352 0.498309
H27_2 H 0.241776 0.451079 0.635666
O5_2 O 0.71534(18) 0.59639(11) 0.03791(17)
O6_2 O 0.56496(19) 0.58940(11) 0.09931(18)
C9_2 C 0.6588(3) 0.62169(15) 0.0951(2)
C10_2 C 0.7041(3) 0.69473(15) 0.1624(2)
C11_2 C 0.6483(3) 0.72092(15) 0.2322(3)
H5_2 H 0.581217 0.692760 0.236055
C12_2 C 0.6903(3) 0.78794(16) 0.2961(2)
H6_2 H 0.652003 0.805700 0.343502
C13_2 C 0.7894(3) 0.82930(15) 0.2902(2)
C14_2 C 0.8448(3) 0.80339(16) 0.2198(3)
H7_2 H 0.911590 0.831689 0.215537
C15_2 C 0.8025(3) 0.73621(16) 0.1559(3)
H8_2 H 0.840344 0.718542 0.108062
C16_2 C 0.8370(3) 0.90032(15) 0.3615(2)
O9_2 O 0.87746(18) 0.53184(11) 0.25731(16)
C17_2 C 0.9565(3) 0.56557(17) 0.3428(2)
N1_2 N 0.9361(2) 0.58700(15) 0.4324(2)
C18_2 C 0.8161(3) 0.5734(2) 0.4364(3)
H10_2 H 0.780781 0.622515 0.445857
H11_2 H 0.828520 0.539648 0.501691
H12_2 H 0.758224 0.548921 0.364334
O1_2 O 0.8676(2) 0.56352(11) 0.90882(17)
O2_2 O 0.96974(19) 0.57628(11) 0.79925(17)
C1_2 C 0.8881(3) 0.59758(14) 0.8318(2)
C2_2 C 0.8124(2) 0.66796(14) 0.7761(2)
C3_2 C 0.7206(3) 0.69520(15) 0.8086(2)
H1_2 H 0.703121 0.668223 0.864512
C4_2 C 0.6551(3) 0.76205(15) 0.7585(2)
H2_2 H 0.593007 0.780958 0.780707
C5_2 C 0.6802(3) 0.80124(14) 0.6760(2)
C6_2 C 0.7720(3) 0.77387(15) 0.6437(2)
H3_2 H 0.789525 0.800824 0.587768
C7_2 C 0.8373(3) 0.70732(15) 0.6935(2)
H4_2 H 0.899315 0.688481 0.671136
C8_2 C 0.6103(3) 0.87343(14) 0.6207(2)
H24_2 H 0.964114 0.423417 0.656064
C38_2 C 0.9692(4) 0.3718(3) 0.4711(3)
H28_2 H 0.889473 0.373048 0.477634
H29_2 H 0.958616 0.396243 0.398495
H30_2 H 0.995684 0.318290 0.471894
loop_
_geom_bond_atom_site_label_1
_geom_bond_atom_site_label_2
_geom_bond_site_symmetry_1
_geom_bond_site_symmetry_2
O25 Cu1 1_555 1_555
O28 Cu1 1_555 1_555
O23 Cu1_2 1_555 1_555
Gd1 O1 1_555 1_555
Cu1_3 O6 1_555 1_555
O1 C1 1_555 1_555
O2 C1 1_555 1_555
C1 C2 1_555 1_555
C2 C3 1_555 1_555
C3 H1 1_555 1_555
C4 C3 1_555 1_555
H2 C4 1_555 1_555
C5 C4 1_555 1_555
C6 C5 1_555 1_555
H3 C6 1_555 1_555
C7 C2 1_555 1_555
H4 C7 1_555 1_555
C8 C5 1_555 1_555
O3 C8 1_555 1_555
O4 C8 1_555 1_555
O5 Gd1 1_555 1_555
O6 C9 1_555 1_555
C9 O5 1_555 1_555
C10 C9 1_555 1_555
C11 C10 1_555 1_555
H5 C11 1_555 1_555
C12 C11 1_555 1_555
H6 C12 1_555 1_555
C13 C12 1_555 1_555
C14 C13 1_555 1_555
H7 C14 1_555 1_555
C15 C10 1_555 1_555
H8 C15 1_555 1_555
C16 C13 1_555 1_555
O7 C16 1_555 1_555
O8 C16 1_555 1_555
O9 Gd1 1_555 1_555
C17 O9 1_555 1_555
H9 C17 1_555 1_555
N1 C17 1_555 1_555
C18 N1 1_555 1_555
H10 C18 1_555 1_555
H12 C18 1_555 1_555
Gd5 O8 1_555 1_555
Cu4 O7 1_555 1_555
O20 Gd1 1_555 1_555
C6 C7 1_555 1_555
C14 C15 1_555 1_555
O8 Cu4 1_555 1_555
H13 C19 1_555 1_555
H14 C19 1_555 1_555
H15 C19 1_555 1_555
H28 C38 1_555 1_555
H29 C38 1_555 1_555
H30 C38 1_555 1_555
O10 Gd2 1_555 1_555
C20 O10 1_555 1_555
C21 C20 1_555 1_555
C22 C21 1_555 1_555
H16 C22 1_555 1_555
C23 C22 1_555 1_555
H17 C23 1_555 1_555
C24 C23 1_555 1_555
C25 C24 1_555 1_555
H18 C25 1_555 1_555
C26 C21 1_555 1_555
H19 C26 1_555 1_555
C27 C24 1_555 1_555
O12 C27 1_555 1_555
O13 C27 1_555 1_555
O14 Gd2 1_555 1_555
O23 C28 1_555 1_555
C28 O14 1_555 1_555
C29 C28 1_555 1_555
C30 C29 1_555 1_555
H20 C30 1_555 1_555
C31 C30 1_555 1_555
H21 C31 1_555 1_555
C32 C31 1_555 1_555
C33 C32 1_555 1_555
H22 C33 1_555 1_555
C34 C29 1_555 1_555
H23 C34 1_555 1_555
C35 C32 1_555 1_555
O16 C35 1_555 1_555
O17 C35 1_555 1_555
O18 Gd2 1_555 1_555
C36 O18 1_555 1_555
H24 C36 1_555 1_555
N2 C36 1_555 1_555
C37 N2 1_555 1_555
H25 C37 1_555 1_555
H27 C37 1_555 1_555
Gd8 O17 1_555 1_555
Cu4_2 O16 1_555 1_555
O19 Gd2 1_555 1_555
O24 Cu1_4 1_555 1_555
Cu1_4 O26 1_555 1_555
O11 C20 1_555 1_555
C25 C26 1_555 1_555
C33 C34 1_555 1_555
O17 Cu4_2 1_555 1_555
H13_2 C19_2 1_555 1_555
H14_2 C19_2 1_555 1_555
H15_2 C19_2 1_555 1_555
C20_2 O10_2 1_555 1_555
C21_2 C20_2 1_555 1_555
C22_2 C21_2 1_555 1_555
H16_2 C22_2 1_555 1_555
C23_2 C22_2 1_555 1_555
H17_2 C23_2 1_555 1_555
C24_2 C23_2 1_555 1_555
C25_2 C24_2 1_555 1_555
H18_2 C25_2 1_555 1_555
C26_2 C21_2 1_555 1_555
H19_2 C26_2 1_555 1_555
C27_2 C24_2 1_555 1_555
O20 C27_2 1_555 1_555
O22 C27_2 1_555 1_555
O11_2 C20_2 1_555 1_555
C25_2 C26_2 1_555 1_555
O14_2 Gd8 1_555 1_555
O15 C28_2 1_555 1_555
C28_2 O14_2 1_555 1_555
C29_2 C28_2 1_555 1_555
C30_2 C29_2 1_555 1_555
H20_2 C30_2 1_555 1_555
C31_2 C30_2 1_555 1_555
H21_2 C31_2 1_555 1_555
C32_2 C31_2 1_555 1_555
C33_2 C32_2 1_555 1_555
H22_2 C33_2 1_555 1_555
C34_2 C29_2 1_555 1_555
H23_2 C34_2 1_555 1_555
C35_2 C32_2 1_555 1_555
O25 C35_2 1_555 1_555
O28 C35_2 1_555 1_555
O18_2 Gd8 1_555 1_555
C36_2 O18_2 1_555 1_555
N2_2 C36_2 1_555 1_555
C37_2 N2_2 1_555 1_555
H25_2 C37_2 1_555 1_555
H26_2 C37_2 1_555 1_555
H27_2 C37_2 1_555 1_555
Cu4_2 O15 1_555 1_555
C33_2 C34_2 1_555 1_555
Cu4 O6_2 1_555 1_555
O5_2 Gd5 1_555 1_555
O6_2 C9_2 1_555 1_555
C9_2 O5_2 1_555 1_555
C10_2 C9_2 1_555 1_555
C11_2 C10_2 1_555 1_555
H5_2 C11_2 1_555 1_555
C12_2 C11_2 1_555 1_555
H6_2 C12_2 1_555 1_555
C13_2 C12_2 1_555 1_555
C14_2 C13_2 1_555 1_555
H7_2 C14_2 1_555 1_555
C15_2 C10_2 1_555 1_555
H8_2 C15_2 1_555 1_555
C16_2 C13_2 1_555 1_555
O24 C16_2 1_555 1_555
O26 C16_2 1_555 1_555
O9_2 Gd5 1_555 1_555
C17_2 O9_2 1_555 1_555
N1_2 C17_2 1_555 1_555
C18_2 N1_2 1_555 1_555
H10_2 C18_2 1_555 1_555
H11_2 C18_2 1_555 1_555
H12_2 C18_2 1_555 1_555
C14_2 C15_2 1_555 1_555
O1_2 C1_2 1_555 1_555
O2_2 C1_2 1_555 1_555
C1_2 C2_2 1_555 1_555
C2_2 C3_2 1_555 1_555
C3_2 H1_2 1_555 1_555
C4_2 C3_2 1_555 1_555
H2_2 C4_2 1_555 1_555
C5_2 C4_2 1_555 1_555
C6_2 C5_2 1_555 1_555
H3_2 C6_2 1_555 1_555
C7_2 C2_2 1_555 1_555
H4_2 C7_2 1_555 1_555
C8_2 C5_2 1_555 1_555
O19 C8_2 1_555 1_555
O21 C8_2 1_555 1_555
H28_2 C38_2 1_555 1_555
H29_2 C38_2 1_555 1_555
H30_2 C38_2 1_555 1_555
C6_2 C7_2 1_555 1_555

#END
