
###############################################################################
#
# This file contains modified crystal structure data generated from the
# MOF subset of the Cambridge Structural Database (CSD) v543 
# hosted by the Cambridge Crystallographic Data Centre (CCDC).
#
# This work is licensed under the Creative Commons
# Attribution-NonCommercial-ShareAlike 4.0 International License.
# To view a copy of this license, visit
# http://creativecommons.org/licenses/by-nc-sa/4.0/
# or send a letter to
# Creative Commons, PO Box 1866, Mountain View, CA 94042, USA.
#
# CIF created using the CSD Python API on 29 September 2022
# The structure has been converted into the P1 space group
# The structure has a 3D framework
# The original CSD entry HANPAR is in the monoclinic crystal system
# The framework has been calculated to contain at least 10.0% void space
# The void calculation uses a probe of radius 1.32A, grid spacing 0.4
#
###############################################################################

data_HANPAR
_chemical_formula_moiety         '(C76 H60 Cu2 Ho4 N4 O36)n'
_symmetry_cell_setting           triclinic
_symmetry_space_group_name_H-M   'P 1'
_symmetry_Int_Tables_number      1
_space_group_name_Hall           'P 1'
loop_
_symmetry_equiv_pos_site_id
_symmetry_equiv_pos_as_xyz
1 x,y,z
_cell_length_a                   11.728(3)
_cell_length_b                   17.305(4)
_cell_length_c                   12.808(3)
_cell_angle_alpha                90
_cell_angle_beta                 115.108(8)
_cell_angle_gamma                90
_cell_volume                     2353.8
loop_
_atom_site_label
_atom_site_type_symbol
_atom_site_fract_x
_atom_site_fract_y
_atom_site_fract_z
Cu1 Cu 0.0000 0.0000 0.5000
Ho8 Ho 0.12746(2) 0.49367(2) 0.92632(2)
O25 O 0.06433(18) 0.06868(11) 0.63422(16)
O28 O 0.22123(17) 0.07439(10) 0.58099(16)
Cu1_2 Cu 0.0000 1.0000 0.5000
O23 O 0.06407(18) 0.90990(10) 0.59833(16)
Ho5 Ho 0.87254(2) 0.50633(2) 0.07368(2)
Ho1 Ho 0.62746(2) 0.00633(2) 0.42632(2)
Cu1_3 Cu 1.0000 0.0000 0.5000
O1 O 0.63641(18) 0.06424(10) 0.58838(15)
O2 O 0.52945(17) 0.07574(10) 0.69525(15)
C1 C 0.6137(2) 0.09781(14) 0.6648(2)
C2 C 0.6888(2) 0.16806(14) 0.7225(2)
C3 C 0.7809(3) 0.19674(15) 0.6908(2)
H1 H 0.7990 0.1704 0.6345
C4 C 0.8457(3) 0.26360(15) 0.7414(2)
H2 H 0.9080 0.2831 0.7193
C5 C 0.8201(2) 0.30250(14) 0.8247(2)
C6 C 0.7287(3) 0.27364(15) 0.8567(2)
H3 H 0.7110 0.2997 0.9134
C7 C 0.6633(3) 0.20675(15) 0.8057(2)
H4 H 0.6009 0.1873 0.8276
C8 C 0.8896(2) 0.37516(14) 0.8805(2)
O3 O 0.97263(17) 0.40042(10) 0.85111(15)
O4 O 0.85986(18) 0.40565(10) 0.95456(16)
O5 O 0.78269(17) 0.09599(10) 0.46119(15)
O6 O 0.93593(18) 0.09010(10) 0.40167(16)
C9 C 0.8404(2) 0.12179(14) 0.4051(2)
C10 C 0.7958(2) 0.19524(14) 0.3378(2)
C11 C 0.8531(3) 0.22160(15) 0.2689(2)
H5 H 0.9210 0.1934 0.2656
C12 C 0.8114(3) 0.28868(15) 0.2052(2)
H6 H 0.8503 0.3064 0.1579
C13 C 0.7121(3) 0.33014(14) 0.2108(2)
C14 C 0.6552(3) 0.30436(15) 0.2799(2)
H7 H 0.5878 0.3328 0.2836
C15 C 0.6971(3) 0.23687(15) 0.3437(2)
H8 H 0.6586 0.2192 0.3912
C16 C 0.6643(2) 0.40134(14) 0.1386(2)
O7 O 0.56433(18) 0.43132(11) 0.13422(16)
O8 O 0.72123(17) 0.42561(10) 0.08099(16)
O9 O 0.62291(17) 0.03043(11) 0.24547(15)
C17 C 0.5438(3) 0.06450(15) 0.1598(2)
H9 H 0.4638 0.0757 0.1584
N1 N 0.5652(2) 0.08592(14) 0.07074(19)
C18 C 0.6865(3) 0.07252(19) 0.0678(3)
H10 H 0.7213 0.1218 0.0572
H11 H 0.6753 0.0378 0.0038
H12 H 0.7446 0.0489 0.1406
Cu4 Cu 0.5000 0.5000 0.0000
O20 O 0.47263(17) 0.09958(10) 0.35111(15)
O22 O 0.35986(18) 0.09435(10) 0.45456(16)
C19 C 0.4700(3) 0.1271(2) 0.9736(3)
H13 H 0.3908 0.1281 0.9820
H14 H 0.4568 0.1008 0.9016
H15 H 0.4984 0.1802 0.9718
Cu4_2 Cu 0.5000 0.5000 1.0000
C38 C 0.5300(3) 0.8729(2) 0.0264(3)
H28 H 0.6092 0.8719 0.0180
H29 H 0.5432 0.8992 0.0984
H30 H 0.5016 0.8198 0.0282
Cu1_4 Cu 1.0000 1.0000 0.5000
Ho2 Ho 0.37254(2) 0.99367(2) 0.57368(2)
O10 O 0.36359(18) 0.93576(10) 0.41162(15)
O11 O 0.47055(17) 0.92426(10) 0.30475(15)
C20 C 0.3863(2) 0.90219(14) 0.3352(2)
C21 C 0.3112(2) 0.83194(14) 0.2775(2)
C22 C 0.2191(3) 0.80326(15) 0.3092(2)
H16 H 0.2010 0.8296 0.3655
C23 C 0.1543(3) 0.73640(15) 0.2586(2)
H17 H 0.0920 0.7169 0.2807
C24 C 0.1799(2) 0.69750(14) 0.1753(2)
C25 C 0.2713(3) 0.72636(15) 0.1433(2)
H18 H 0.2890 0.7003 0.0866
C26 C 0.3367(3) 0.79325(15) 0.1943(2)
H19 H 0.3991 0.8127 0.1724
C27 C 0.1104(2) 0.62484(14) 0.1195(2)
O12 O 0.02737(17) 0.59958(10) 0.14889(15)
O13 O 0.14014(18) 0.59435(10) 0.04544(16)
O14 O 0.21731(17) 0.90401(10) 0.53881(15)
C28 C 0.1596(2) 0.87821(14) 0.5949(2)
C29 C 0.2042(2) 0.80476(14) 0.6622(2)
C30 C 0.1469(3) 0.77840(15) 0.7311(2)
H20 H 0.0790 0.8066 0.7344
C31 C 0.1886(3) 0.71132(15) 0.7948(2)
H21 H 0.1497 0.6936 0.8421
C32 C 0.2879(3) 0.66986(14) 0.7892(2)
C33 C 0.3448(3) 0.69564(15) 0.7201(2)
H22 H 0.4122 0.6672 0.7164
C34 C 0.3029(3) 0.76313(15) 0.6563(2)
H23 H 0.3414 0.7808 0.6088
C35 C 0.3357(2) 0.59866(14) 0.8614(2)
O16 O 0.43567(18) 0.56868(11) 0.86578(16)
O17 O 0.27877(17) 0.57439(10) 0.91901(16)
O18 O 0.37709(17) 0.96957(11) 0.75453(15)
C36 C 0.4562(3) 0.93550(15) 0.8402(2)
H24 H 0.5362 0.9243 0.8416
N2 N 0.4348(2) 0.91408(14) 0.92926(19)
C37 C 0.3135(3) 0.92748(19) 0.9322(3)
H25 H 0.2787 0.8782 0.9428
H26 H 0.3247 0.9622 0.9962
H27 H 0.2554 0.9511 0.8594
O19 O 0.52737(17) 0.90042(10) 0.64889(15)
O21 O 0.64014(18) 0.90565(10) 0.54544(16)
O24 O 0.93567(18) 0.93132(11) 0.36578(16)
O26 O 0.77877(17) 0.92561(10) 0.41901(16)
H9_2 H 0.0362 0.5757 0.3416
C19_2 C 0.0300(3) 0.6271(2) 0.5264(3)
H13_2 H 0.1092 0.6281 0.5180
H14_2 H 0.0432 0.6008 0.5984
H15_2 H 0.0016 0.6802 0.5282
O10_2 O 0.13641(18) 0.43576(10) 0.08838(15)
O11_2 O 0.02945(17) 0.42426(10) 0.19525(15)
C20_2 C 0.1137(2) 0.40219(14) 0.1648(2)
C21_2 C 0.1888(2) 0.33194(14) 0.2225(2)
C22_2 C 0.2809(3) 0.30326(15) 0.1908(2)
H16_2 H 0.2990 0.3296 0.1345
C23_2 C 0.3457(3) 0.23640(15) 0.2414(2)
H17_2 H 0.4080 0.2169 0.2193
C24_2 C 0.3201(2) 0.19750(14) 0.3247(2)
C25_2 C 0.2287(3) 0.22636(15) 0.3567(2)
H18_2 H 0.2110 0.2003 0.4134
C26_2 C 0.1633(3) 0.29325(15) 0.3057(2)
H19_2 H 0.1009 0.3127 0.3276
C27_2 C 0.3896(2) 0.12484(14) 0.3805(2)
O14_2 O 0.28269(17) 0.40401(10) 0.96119(15)
O15 O 0.43593(18) 0.40990(10) 0.90167(16)
C28_2 C 0.3404(2) 0.37821(14) 0.9051(2)
C29_2 C 0.2958(2) 0.30476(14) 0.8378(2)
C30_2 C 0.3531(3) 0.27840(15) 0.7689(2)
H20_2 H 0.4210 0.3066 0.7656
C31_2 C 0.3114(3) 0.21132(15) 0.7052(2)
H21_2 H 0.3503 0.1936 0.6579
C32_2 C 0.2121(3) 0.16986(14) 0.7108(2)
C33_2 C 0.1552(3) 0.19564(15) 0.7799(2)
H22_2 H 0.0878 0.1672 0.7836
C34_2 C 0.1971(3) 0.26313(15) 0.8437(2)
H23_2 H 0.1586 0.2808 0.8912
C35_2 C 0.1643(2) 0.09866(14) 0.6386(2)
O18_2 O 0.12291(17) 0.46957(11) 0.74547(15)
C36_2 C 0.0438(3) 0.43550(15) 0.6598(2)
N2_2 N 0.0652(2) 0.41408(14) 0.57074(19)
C37_2 C 0.1865(3) 0.42748(19) 0.5678(3)
H25_2 H 0.2213 0.3782 0.5572
H26_2 H 0.1753 0.4622 0.5038
H27_2 H 0.2446 0.4511 0.6406
O5_2 O 0.71731(17) 0.59599(10) 0.03881(15)
O6_2 O 0.56407(18) 0.59010(10) 0.09833(16)
C9_2 C 0.6596(2) 0.62179(14) 0.0949(2)
C10_2 C 0.7042(2) 0.69524(14) 0.1622(2)
C11_2 C 0.6469(3) 0.72160(15) 0.2311(2)
H5_2 H 0.5790 0.6934 0.2344
C12_2 C 0.6886(3) 0.78868(15) 0.2948(2)
H6_2 H 0.6497 0.8064 0.3421
C13_2 C 0.7879(3) 0.83014(14) 0.2892(2)
C14_2 C 0.8448(3) 0.80436(15) 0.2201(2)
H7_2 H 0.9122 0.8328 0.2164
C15_2 C 0.8029(3) 0.73687(15) 0.1563(2)
H8_2 H 0.8414 0.7192 0.1088
C16_2 C 0.8357(2) 0.90134(14) 0.3614(2)
O9_2 O 0.87709(17) 0.53043(11) 0.25453(15)
C17_2 C 0.9562(3) 0.56450(15) 0.3402(2)
N1_2 N 0.9348(2) 0.58592(14) 0.42926(19)
C18_2 C 0.8135(3) 0.57252(19) 0.4322(3)
H10_2 H 0.7787 0.6218 0.4428
H11_2 H 0.8247 0.5378 0.4962
H12_2 H 0.7554 0.5489 0.3594
O1_2 O 0.86359(18) 0.56424(10) 0.91162(15)
O2_2 O 0.97055(17) 0.57574(10) 0.80475(15)
C1_2 C 0.8863(2) 0.59781(14) 0.8352(2)
C2_2 C 0.8112(2) 0.66806(14) 0.7775(2)
C3_2 C 0.7191(3) 0.69674(15) 0.8092(2)
H1_2 H 0.7010 0.6704 0.8655
C4_2 C 0.6543(3) 0.76360(15) 0.7586(2)
H2_2 H 0.5920 0.7831 0.7807
C5_2 C 0.6799(2) 0.80250(14) 0.6753(2)
C6_2 C 0.7713(3) 0.77364(15) 0.6433(2)
H3_2 H 0.7890 0.7997 0.5866
C7_2 C 0.8367(3) 0.70675(15) 0.6943(2)
H4_2 H 0.8991 0.6873 0.6724
C8_2 C 0.6104(2) 0.87516(14) 0.6195(2)
H24_2 H 0.9638 0.4243 0.6584
C38_2 C 0.9700(3) 0.3729(2) 0.4736(3)
H28_2 H 0.8908 0.3719 0.4820
H29_2 H 0.9568 0.3992 0.4016
H30_2 H 0.9984 0.3198 0.4718
loop_
_geom_bond_atom_site_label_1
_geom_bond_atom_site_label_2
_geom_bond_site_symmetry_1
_geom_bond_site_symmetry_2
O25 Cu1 1_555 1_555
O28 Cu1 1_555 1_555
O23 Cu1_2 1_555 1_555
Ho1 O1 1_555 1_555
Cu1_3 O6 1_555 1_555
O1 C1 1_555 1_555
O2 C1 1_555 1_555
C1 C2 1_555 1_555
C2 C3 1_555 1_555
C3 H1 1_555 1_555
C4 C3 1_555 1_555
H2 C4 1_555 1_555
C5 C4 1_555 1_555
C6 C5 1_555 1_555
H3 C6 1_555 1_555
C7 C2 1_555 1_555
H4 C7 1_555 1_555
C8 C5 1_555 1_555
O3 C8 1_555 1_555
O4 C8 1_555 1_555
O5 Ho1 1_555 1_555
O6 C9 1_555 1_555
C9 O5 1_555 1_555
C10 C9 1_555 1_555
C11 C10 1_555 1_555
H5 C11 1_555 1_555
C12 C11 1_555 1_555
H6 C12 1_555 1_555
C13 C12 1_555 1_555
C14 C13 1_555 1_555
H7 C14 1_555 1_555
C15 C10 1_555 1_555
H8 C15 1_555 1_555
C16 C13 1_555 1_555
O7 C16 1_555 1_555
O8 C16 1_555 1_555
O9 Ho1 1_555 1_555
C17 O9 1_555 1_555
H9 C17 1_555 1_555
N1 C17 1_555 1_555
C18 N1 1_555 1_555
H10 C18 1_555 1_555
H11 C18 1_555 1_555
H12 C18 1_555 1_555
Ho5 O8 1_555 1_555
Cu4 O7 1_555 1_555
O20 Ho1 1_555 1_555
C6 C7 1_555 1_555
C14 C15 1_555 1_555
O8 Cu4 1_555 1_555
H13 C19 1_555 1_555
H14 C19 1_555 1_555
H15 C19 1_555 1_555
H28 C38 1_555 1_555
H29 C38 1_555 1_555
H30 C38 1_555 1_555
O10 Ho2 1_555 1_555
C20 O10 1_555 1_555
C21 C20 1_555 1_555
C22 C21 1_555 1_555
H16 C22 1_555 1_555
C23 C22 1_555 1_555
H17 C23 1_555 1_555
C24 C23 1_555 1_555
C25 C24 1_555 1_555
H18 C25 1_555 1_555
C26 C21 1_555 1_555
H19 C26 1_555 1_555
C27 C24 1_555 1_555
O12 C27 1_555 1_555
O13 C27 1_555 1_555
O14 Ho2 1_555 1_555
O23 C28 1_555 1_555
C28 O14 1_555 1_555
C29 C28 1_555 1_555
C30 C29 1_555 1_555
H20 C30 1_555 1_555
C31 C30 1_555 1_555
H21 C31 1_555 1_555
C32 C31 1_555 1_555
C33 C32 1_555 1_555
H22 C33 1_555 1_555
C34 C29 1_555 1_555
H23 C34 1_555 1_555
C35 C32 1_555 1_555
O16 C35 1_555 1_555
O17 C35 1_555 1_555
O18 Ho2 1_555 1_555
C36 O18 1_555 1_555
H24 C36 1_555 1_555
N2 C36 1_555 1_555
C37 N2 1_555 1_555
H25 C37 1_555 1_555
H26 C37 1_555 1_555
H27 C37 1_555 1_555
Ho8 O17 1_555 1_555
Cu4_2 O16 1_555 1_555
O19 Ho2 1_555 1_555
O24 Cu1_4 1_555 1_555
Cu1_4 O26 1_555 1_555
O11 C20 1_555 1_555
C25 C26 1_555 1_555
C33 C34 1_555 1_555
O17 Cu4_2 1_555 1_555
H13_2 C19_2 1_555 1_555
H14_2 C19_2 1_555 1_555
H15_2 C19_2 1_555 1_555
C20_2 O10_2 1_555 1_555
C21_2 C20_2 1_555 1_555
C22_2 C21_2 1_555 1_555
H16_2 C22_2 1_555 1_555
C23_2 C22_2 1_555 1_555
H17_2 C23_2 1_555 1_555
C24_2 C23_2 1_555 1_555
C25_2 C24_2 1_555 1_555
H18_2 C25_2 1_555 1_555
C26_2 C21_2 1_555 1_555
H19_2 C26_2 1_555 1_555
C27_2 C24_2 1_555 1_555
O20 C27_2 1_555 1_555
O22 C27_2 1_555 1_555
O11_2 C20_2 1_555 1_555
C25_2 C26_2 1_555 1_555
O14_2 Ho8 1_555 1_555
O15 C28_2 1_555 1_555
C28_2 O14_2 1_555 1_555
C29_2 C28_2 1_555 1_555
C30_2 C29_2 1_555 1_555
H20_2 C30_2 1_555 1_555
C31_2 C30_2 1_555 1_555
H21_2 C31_2 1_555 1_555
C32_2 C31_2 1_555 1_555
C33_2 C32_2 1_555 1_555
H22_2 C33_2 1_555 1_555
C34_2 C29_2 1_555 1_555
H23_2 C34_2 1_555 1_555
C35_2 C32_2 1_555 1_555
O25 C35_2 1_555 1_555
O28 C35_2 1_555 1_555
O18_2 Ho8 1_555 1_555
C36_2 O18_2 1_555 1_555
N2_2 C36_2 1_555 1_555
C37_2 N2_2 1_555 1_555
H25_2 C37_2 1_555 1_555
H26_2 C37_2 1_555 1_555
H27_2 C37_2 1_555 1_555
Cu4_2 O15 1_555 1_555
C33_2 C34_2 1_555 1_555
Cu4 O6_2 1_555 1_555
O5_2 Ho5 1_555 1_555
O6_2 C9_2 1_555 1_555
C9_2 O5_2 1_555 1_555
C10_2 C9_2 1_555 1_555
C11_2 C10_2 1_555 1_555
H5_2 C11_2 1_555 1_555
C12_2 C11_2 1_555 1_555
H6_2 C12_2 1_555 1_555
C13_2 C12_2 1_555 1_555
C14_2 C13_2 1_555 1_555
H7_2 C14_2 1_555 1_555
C15_2 C10_2 1_555 1_555
H8_2 C15_2 1_555 1_555
C16_2 C13_2 1_555 1_555
O24 C16_2 1_555 1_555
O26 C16_2 1_555 1_555
O9_2 Ho5 1_555 1_555
C17_2 O9_2 1_555 1_555
N1_2 C17_2 1_555 1_555
C18_2 N1_2 1_555 1_555
H10_2 C18_2 1_555 1_555
H11_2 C18_2 1_555 1_555
H12_2 C18_2 1_555 1_555
C14_2 C15_2 1_555 1_555
O1_2 C1_2 1_555 1_555
O2_2 C1_2 1_555 1_555
C1_2 C2_2 1_555 1_555
C2_2 C3_2 1_555 1_555
C3_2 H1_2 1_555 1_555
C4_2 C3_2 1_555 1_555
H2_2 C4_2 1_555 1_555
C5_2 C4_2 1_555 1_555
C6_2 C5_2 1_555 1_555
H3_2 C6_2 1_555 1_555
C7_2 C2_2 1_555 1_555
H4_2 C7_2 1_555 1_555
C8_2 C5_2 1_555 1_555
O19 C8_2 1_555 1_555
O21 C8_2 1_555 1_555
H28_2 C38_2 1_555 1_555
H29_2 C38_2 1_555 1_555
H30_2 C38_2 1_555 1_555
C6_2 C7_2 1_555 1_555

#END
