
###############################################################################
#
# This file contains modified crystal structure data generated from the
# MOF subset of the Cambridge Structural Database (CSD) v543 
# hosted by the Cambridge Crystallographic Data Centre (CCDC).
#
# This work is licensed under the Creative Commons
# Attribution-NonCommercial-ShareAlike 4.0 International License.
# To view a copy of this license, visit
# http://creativecommons.org/licenses/by-nc-sa/4.0/
# or send a letter to
# Creative Commons, PO Box 1866, Mountain View, CA 94042, USA.
#
# CIF created using the CSD Python API on 29 September 2022
# The structure has been converted into the P1 space group
# The structure has a 3D framework
# The original CSD entry HAPBOT is in the monoclinic crystal system
# The framework has been calculated to contain at least 10.0% void space
# The void calculation uses a probe of radius 1.32A, grid spacing 0.4
# The framework is charged, counterions have been retained in the structure
# H atom positions have been added when not included in the experimental data
#
###############################################################################

data_HAPBOT
_chemical_formula_moiety         '(C144 H64 Bi8 O52)n'
_symmetry_cell_setting           triclinic
_symmetry_space_group_name_H-M   'P 1'
_symmetry_Int_Tables_number      1
_space_group_name_Hall           'P 1'
loop_
_symmetry_equiv_pos_site_id
_symmetry_equiv_pos_as_xyz
1 x,y,z
_cell_length_a                   16.490(6)
_cell_length_b                   7.840(11)
_cell_length_c                   20.95(6)
_cell_angle_alpha                90
_cell_angle_beta                 98.06(7)
_cell_angle_gamma                90
_cell_volume                     2681.69
loop_
_atom_site_label
_atom_site_type_symbol
_atom_site_fract_x
_atom_site_fract_y
_atom_site_fract_z
O16 O 0.0848(12) 0.598(3) 0.741(2)
O17 O 0.0415(13) 0.662(3) 0.856(2)
C1 C 0.8557(9) 0.5441(19) 0.5940(8)
H1 H 0.871875 0.589019 0.556722
C2 C 0.8965(8) 0.5913(17) 0.6540(10)
C3 C 0.8724(9) 0.5242(19) 0.7098(8)
C4 C 0.8075(9) 0.4097(19) 0.7056(8)
H2 H 0.791345 0.364753 0.742951
C5 C 0.7667(7) 0.3624(17) 0.6456(9)
C6 C 0.7908(8) 0.4296(19) 0.5898(8)
C7 C 0.7480(10) 0.388(2) 0.5299(7)
C8 C 0.7749(8) 0.4472(19) 0.4739(10)
H3 H 0.822500 0.511786 0.476401
C9 C 0.7305(11) 0.410(2) 0.4142(7)
C10 C 0.6593(10) 0.313(2) 0.4105(7)
C11 C 0.6324(8) 0.2541(19) 0.4665(9)
H4 H 0.584808 0.189481 0.463987
C12 C 0.6768(10) 0.292(2) 0.5262(7)
C13 C 0.6531(9) 0.2268(19) 0.5826(8)
C14 C 0.5836(8) 0.1250(19) 0.5789(8)
H5 H 0.554067 0.099000 0.538975
C15 C 0.5583(7) 0.0619(17) 0.6349(10)
C16 C 0.6024(9) 0.1007(18) 0.6946(8)
C17 C 0.6719(8) 0.2026(18) 0.6983(8)
H6 H 0.701485 0.228519 0.738290
C18 C 0.6973(7) 0.2656(17) 0.6424(9)
C19 C 0.3188(9) 0.2070(19) 0.7854(8)
H7 H 0.286932 0.243450 0.747738
C20 C 0.3836(10) 0.095(2) 0.7823(8)
C21 C 0.4312(8) 0.0409(17) 0.8386(10)
C22 C 0.4141(8) 0.0982(19) 0.8981(8)
H8 H 0.445970 0.061795 0.935791
C23 C 0.3493(9) 0.2099(19) 0.9012(8)
C24 C 0.3017(7) 0.2644(17) 0.8449(9)
C25 C 0.2356(7) 0.3687(17) 0.8472(9)
C26 C 0.1899(9) 0.4333(19) 0.7917(7)
H9 H 0.203655 0.405275 0.751407
C27 C 0.1236(8) 0.5399(18) 0.7963(8)
C28 C 0.1031(7) 0.5819(16) 0.8565(9)
C29 C 0.1488(9) 0.5173(19) 0.9120(8)
H10 H 0.135092 0.545342 0.952288
C30 C 0.2151(8) 0.4107(18) 0.9074(8)
C31 C 0.2657(8) 0.373(2) 0.9638(7)
C36 C 0.3314(9) 0.264(2) 0.9614(7)
O1 O 0.9112(13) 0.546(3) 0.766(2)
O2 O 0.9502(13) 0.682(3) 0.660(2)
O3 O 0.7520(18) 0.463(4) 0.361(3)
H13 H 0.76(4) 0.372(13) 0.330(12)
O4 O 0.6197(16) 0.284(4) 0.351(2)
O6 O 0.5798(13) 0.049(3) 0.750(2)
O8 O 0.3950(14) 0.042(3) 0.728(2)
O13 O 0.895(3) 0.839(6) 0.852(3)
Bi1 Bi 0.9887(2) 0.7528(6) 0.7649(4)
Bi4 Bi 0.5115(2) 0.3674(6) 0.7713(4)
Bi5 Bi 0.5115(2) 0.1326(6) 0.2713(4)
H15 H 0.901377 0.753772 0.887412
H16 H 0.911476 0.953291 0.869706
O5 O 0.5014(12) 0.971(3) 0.6383(19)
O7 O 0.4846(13) 0.945(3) 0.831(2)
Bi2 Bi 0.4885(2) 0.8674(6) 0.7287(4)
O14 O 0.3803(16) 0.716(4) 0.649(2)
O15 O 0.4202(13) 0.549(3) 0.750(2)
C8_2 C 0.2251(8) 0.9472(19) 0.0261(10)
C9_2 C 0.2695(11) 0.910(2) 0.0858(7)
C10_2 C 0.3407(10) 0.813(2) 0.0895(7)
C11_2 C 0.3676(8) 0.7541(19) 0.0335(9)
H4_2 H 0.415192 0.689481 0.036013
O3_2 O 0.2480(18) 0.963(4) 0.139(3)
H13_2 H 0.24(4) 0.872(13) 0.170(12)
O4_2 O 0.3803(16) 0.784(4) 0.149(2)
Bi5_2 Bi 0.4885(2) 0.6326(6) 0.2287(4)
C4_2 C 0.1925(9) 0.9097(19) 0.7944(8)
H2_2 H 0.208655 0.864753 0.757049
C5_2 C 0.2333(7) 0.8624(17) 0.8544(9)
C6_2 C 0.2092(8) 0.9296(19) 0.9102(8)
C7_2 C 0.2520(10) 0.888(2) 0.9701(7)
C12_2 C 0.3232(10) 0.792(2) 0.9738(7)
C13_2 C 0.3469(9) 0.7268(19) 0.9174(8)
C14_2 C 0.4164(8) 0.6250(19) 0.9211(8)
H5_2 H 0.445933 0.599000 0.961025
C15_2 C 0.4417(7) 0.5619(17) 0.8651(10)
C16_2 C 0.3976(9) 0.6007(18) 0.8054(8)
C17_2 C 0.3281(8) 0.7026(18) 0.8017(8)
H6_2 H 0.298515 0.728519 0.761710
C18_2 C 0.3027(7) 0.7656(17) 0.8576(9)
C19_2 C 0.6812(9) 0.7070(19) 0.7146(8)
H7_2 H 0.713068 0.743450 0.752262
C20_2 C 0.6164(10) 0.595(2) 0.7177(8)
C21_2 C 0.5688(8) 0.5409(17) 0.6614(10)
C22_2 C 0.5859(8) 0.5982(19) 0.6019(8)
H8_2 H 0.554030 0.561795 0.564209
C23_2 C 0.6507(9) 0.7099(19) 0.5988(8)
C24_2 C 0.6983(7) 0.7644(17) 0.6551(9)
C25_2 C 0.7644(7) 0.8687(17) 0.6528(9)
C26_2 C 0.8101(9) 0.9333(19) 0.7083(7)
H9_2 H 0.796345 0.905275 0.748593
C30_2 C 0.7849(8) 0.9107(18) 0.5926(8)
C31_2 C 0.7343(8) 0.873(2) 0.5362(7)
C32 C 0.7535(8) 0.9279(18) 0.4770(9)
C33 C 0.7071(10) 0.873(2) 0.4202(7)
C34 C 0.6414(9) 0.763(2) 0.4227(7)
C35 C 0.6222(7) 0.7082(17) 0.4819(9)
H12 H 0.578276 0.634654 0.483559
C36_2 C 0.6686(9) 0.764(2) 0.5386(7)
O5_2 O 0.4986(12) 0.471(3) 0.8617(19)
O7_2 O 0.5154(13) 0.445(3) 0.669(2)
O8_2 O 0.6050(14) 0.542(3) 0.772(2)
O11 O 0.7225(16) 0.925(3) 0.368(2)
H14 H 0.675(9) 0.96(2) 0.339(9)
O12 O 0.6057(16) 0.702(3) 0.366(2)
O14_2 O 0.6197(16) 0.216(4) 0.851(2)
Bi3 Bi 0.0113(2) 0.2472(6) 0.2351(4)
O5_3 O 0.4986(12) 0.029(3) 0.3617(19)
O7_3 O 0.5154(13) 0.055(3) 0.169(2)
O15_2 O 0.5798(13) 0.451(3) 0.250(2)
C1_2 C 0.1443(9) 0.4559(19) 0.4060(8)
H1_2 H 0.128125 0.410981 0.443278
C2_2 C 0.1035(8) 0.4087(17) 0.3460(10)
C3_2 C 0.1276(9) 0.4758(19) 0.2902(8)
C4_3 C 0.1925(9) 0.5903(19) 0.2944(8)
H2_3 H 0.208655 0.635247 0.257049
C5_3 C 0.2333(7) 0.6376(17) 0.3544(9)
C6_3 C 0.2092(8) 0.5704(19) 0.4102(8)
C7_3 C 0.2520(10) 0.612(2) 0.4701(7)
C8_3 C 0.2251(8) 0.5528(19) 0.5261(10)
H3_2 H 0.177500 0.488214 0.523599
C9_3 C 0.2695(11) 0.590(2) 0.5858(7)
C10_3 C 0.3407(10) 0.687(2) 0.5895(7)
C11_3 C 0.3676(8) 0.7459(19) 0.5335(9)
H4_3 H 0.415192 0.810519 0.536013
C12_3 C 0.3232(10) 0.708(2) 0.4738(7)
C13_3 C 0.3469(9) 0.7732(19) 0.4174(8)
C14_3 C 0.4164(8) 0.8750(19) 0.4211(8)
H5_3 H 0.445933 0.901000 0.461025
C15_3 C 0.4417(7) 0.9381(17) 0.3651(10)
C16_3 C 0.3976(9) 0.8993(18) 0.3054(8)
C17_3 C 0.3281(8) 0.7974(18) 0.3017(8)
H6_3 H 0.298515 0.771481 0.261710
C18_3 C 0.3027(7) 0.7344(17) 0.3576(9)
C19_3 C 0.6812(9) 0.7930(19) 0.2146(8)
H7_3 H 0.713068 0.756550 0.252262
C20_3 C 0.6164(10) 0.905(2) 0.2177(8)
C21_3 C 0.5688(8) 0.9591(17) 0.1614(10)
C22_3 C 0.5859(8) 0.9018(19) 0.1019(8)
H8_3 H 0.554030 0.938205 0.064209
C23_3 C 0.6507(9) 0.7901(19) 0.0988(8)
C24_3 C 0.6983(7) 0.7356(17) 0.1551(9)
C25_3 C 0.7644(7) 0.6313(17) 0.1528(9)
C26_3 C 0.8101(9) 0.5667(19) 0.2083(7)
H9_3 H 0.796345 0.594725 0.248593
C27_2 C 0.8764(8) 0.4601(18) 0.2037(8)
C28_2 C 0.8969(7) 0.4181(16) 0.1435(9)
C29_2 C 0.8512(9) 0.4827(19) 0.0880(8)
H10_2 H 0.864908 0.454658 0.047712
C30_3 C 0.7849(8) 0.5893(18) 0.0926(8)
C31_3 C 0.7343(8) 0.627(2) 0.0362(7)
C36_3 C 0.6686(9) 0.736(2) 0.0386(7)
O1_2 O 0.0888(13) 0.454(3) 0.234(2)
O2_2 O 0.0498(13) 0.318(3) 0.340(2)
O3_3 O 0.2480(18) 0.537(4) 0.639(3)
H13_3 H 0.24(4) 0.628(13) 0.670(12)
O6_2 O 0.4202(13) 0.951(3) 0.250(2)
O8_3 O 0.6050(14) 0.958(3) 0.272(2)
O9 O 0.9152(12) 0.402(3) 0.259(2)
O10 O 0.9585(13) 0.338(3) 0.144(2)
O13_2 O 0.105(3) 0.161(6) 0.148(3)
H15_2 H 0.0986228 0.246228 0.112588
H16_2 H 0.0885244 0.0467087 0.130294
C4_4 C 0.8075(9) 0.0903(19) 0.2056(8)
H2_4 H 0.791345 0.135247 0.242951
C5_4 C 0.7667(7) 0.1376(17) 0.1456(9)
C6_4 C 0.7908(8) 0.0704(19) 0.0898(8)
C7_4 C 0.7480(10) 0.112(2) 0.0299(7)
C12_4 C 0.6768(10) 0.208(2) 0.0262(7)
C13_4 C 0.6531(9) 0.2732(19) 0.0826(8)
C14_4 C 0.5836(8) 0.3750(19) 0.0789(8)
H5_4 H 0.554067 0.401000 0.038975
C15_4 C 0.5583(7) 0.4381(17) 0.1349(10)
C16_4 C 0.6024(9) 0.3993(18) 0.1946(8)
C17_4 C 0.6719(8) 0.2974(18) 0.1983(8)
H6_4 H 0.701485 0.271481 0.238290
C18_4 C 0.6973(7) 0.2344(17) 0.1424(9)
C19_4 C 0.3188(9) 0.2930(19) 0.2854(8)
H7_4 H 0.286932 0.256550 0.247738
C20_4 C 0.3836(10) 0.405(2) 0.2823(8)
C21_4 C 0.4312(8) 0.4591(17) 0.3386(10)
C22_4 C 0.4141(8) 0.4018(19) 0.3981(8)
H8_4 H 0.445970 0.438205 0.435791
C23_4 C 0.3493(9) 0.2901(19) 0.4012(8)
C24_4 C 0.3017(7) 0.2356(17) 0.3449(9)
C25_4 C 0.2356(7) 0.1313(17) 0.3472(9)
C26_4 C 0.1899(9) 0.0667(19) 0.2917(7)
H9_4 H 0.203655 0.094725 0.251407
C30_4 C 0.2151(8) 0.0893(18) 0.4074(8)
C31_4 C 0.2657(8) 0.127(2) 0.4638(7)
C32_2 C 0.2465(8) 0.0721(18) 0.5230(9)
C33_2 C 0.2929(10) 0.127(2) 0.5798(7)
C34_2 C 0.3586(9) 0.237(2) 0.5773(7)
C35_2 C 0.3778(7) 0.2918(17) 0.5181(9)
H12_2 H 0.421724 0.365346 0.516441
C36_4 C 0.3314(9) 0.236(2) 0.4614(7)
O5_4 O 0.5014(12) 0.529(3) 0.1383(19)
O7_4 O 0.4846(13) 0.555(3) 0.331(2)
O8_4 O 0.3950(14) 0.458(3) 0.228(2)
O11_2 O 0.2775(16) 0.075(3) 0.632(2)
H14_2 H 0.325(9) 0.04(2) 0.661(9)
O12_2 O 0.3943(16) 0.298(3) 0.634(2)
C8_4 C 0.7749(8) 0.0528(19) 0.9739(10)
C9_4 C 0.7305(11) 0.090(2) 0.9142(7)
C10_4 C 0.6593(10) 0.187(2) 0.9105(7)
C11_4 C 0.6324(8) 0.2459(19) 0.9665(9)
H4_4 H 0.584808 0.310519 0.963987
O3_4 O 0.7520(18) 0.037(4) 0.861(3)
H13_4 H 0.76(4) 0.128(13) 0.830(12)
C32_3 C 0.2465(8) 0.4279(18) 0.0230(9)
H11 H 0.202597 0.501408 0.024700
C33_3 C 0.2929(10) 0.373(2) 0.0798(7)
C34_3 C 0.3586(9) 0.263(2) 0.0773(7)
C35_3 C 0.3778(7) 0.2082(17) 0.0181(9)
H12_3 H 0.421724 0.134654 0.016441
O11_3 O 0.2775(16) 0.425(3) 0.132(2)
H14_3 H 0.325(9) 0.46(2) 0.161(9)
O12_3 O 0.3943(16) 0.202(3) 0.134(2)
Bi3_2 Bi 0.0113(2) 0.2528(6) 0.7351(4)
C1_3 C 0.1443(9) 0.0441(19) 0.9060(8)
H1_3 H 0.128125 0.089019 0.943278
C2_3 C 0.1035(8) 0.0913(17) 0.8460(10)
C3_3 C 0.1276(9) 0.0242(19) 0.7902(8)
C27_3 C 0.8764(8) 0.0399(18) 0.7037(8)
C28_3 C 0.8969(7) 0.0819(16) 0.6435(9)
C29_3 C 0.8512(9) 0.0173(19) 0.5880(8)
H10_3 H 0.864908 0.045342 0.547712
H11_2 H 0.797403 0.001408 0.475300
O1_3 O 0.0888(13) 0.046(3) 0.734(2)
O2_3 O 0.0498(13) 0.182(3) 0.840(2)
O9_2 O 0.9152(12) 0.098(3) 0.759(2)
O10_2 O 0.9585(13) 0.162(3) 0.644(2)
O13_3 O 0.105(3) 0.339(6) 0.648(3)
H15_3 H 0.0986228 0.253772 0.612588
H16_3 H 0.0885244 0.453291 0.630294
H3_3 H 0.177500 0.011786 0.023599
C32_4 C 0.7535(8) 0.5721(18) 0.9770(9)
H11_3 H 0.797403 0.498592 0.975300
C33_4 C 0.7071(10) 0.627(2) 0.9202(7)
C34_4 C 0.6414(9) 0.737(2) 0.9227(7)
C35_4 C 0.6222(7) 0.7918(17) 0.9819(9)
H12_4 H 0.578276 0.865346 0.983559
O11_4 O 0.7225(16) 0.575(3) 0.868(2)
H14_4 H 0.675(9) 0.54(2) 0.839(9)
O12_4 O 0.6057(16) 0.798(3) 0.866(2)
O16_2 O 0.0848(12) 0.902(3) 0.241(2)
O17_2 O 0.0415(13) 0.838(3) 0.356(2)
C1_4 C 0.8557(9) 0.9559(19) 0.0940(8)
H1_4 H 0.871875 0.910981 0.056722
C2_4 C 0.8965(8) 0.9087(17) 0.1540(10)
C3_4 C 0.8724(9) 0.9758(19) 0.2098(8)
C27_4 C 0.1236(8) 0.9601(18) 0.2963(8)
C28_4 C 0.1031(7) 0.9181(16) 0.3565(9)
C29_4 C 0.1488(9) 0.9827(19) 0.4120(8)
H10_4 H 0.135092 0.954658 0.452288
H11_4 H 0.202597 0.998592 0.524700
O1_4 O 0.9112(13) 0.954(3) 0.266(2)
O2_4 O 0.9502(13) 0.818(3) 0.160(2)
O13_4 O 0.895(3) 0.661(6) 0.352(3)
Bi1_2 Bi 0.9887(2) 0.7472(6) 0.2649(4)
H15_4 H 0.901377 0.746228 0.387412
H16_4 H 0.911476 0.546709 0.369706
H3_4 H 0.822500 0.988214 0.976401
loop_
_geom_bond_atom_site_label_1
_geom_bond_atom_site_label_2
_geom_bond_site_symmetry_1
_geom_bond_site_symmetry_2
C1 H1 1_555 1_555
C2 C1 1_555 1_555
C3 C2 1_555 1_555
C4 C3 1_555 1_555
H2 C4 1_555 1_555
C5 C4 1_555 1_555
C6 C1 1_555 1_555
C7 C6 1_555 1_555
C8 C7 1_555 1_555
H3 C8 1_555 1_555
C9 C8 1_555 1_555
C10 C9 1_555 1_555
C11 C10 1_555 1_555
H4 C11 1_555 1_555
C12 C7 1_555 1_555
C13 C12 1_555 1_555
C14 C13 1_555 1_555
H5 C14 1_555 1_555
C15 C14 1_555 1_555
C16 C15 1_555 1_555
C17 C16 1_555 1_555
H6 C17 1_555 1_555
C18 C5 1_555 1_555
C19 H7 1_555 1_555
C20 C19 1_555 1_555
C21 C20 1_555 1_555
C22 C21 1_555 1_555
H8 C22 1_555 1_555
C23 C22 1_555 1_555
C24 C19 1_555 1_555
C25 C24 1_555 1_555
C26 C25 1_555 1_555
H9 C26 1_555 1_555
C27 C26 1_555 1_555
C28 C27 1_555 1_555
C29 C28 1_555 1_555
H10 C29 1_555 1_555
C30 C25 1_555 1_555
C31 C30 1_555 1_555
C36 C23 1_555 1_555
O1 C3 1_555 1_555
O2 C2 1_555 1_555
O3 C9 1_555 1_555
H13 O3 1_555 1_555
O4 C10 1_555 1_555
O6 C16 1_555 1_555
O8 C20 1_555 1_555
O16 C27 1_555 1_555
O17 C28 1_555 1_555
O13 Bi1 1_555 1_555
Bi1 O1 1_555 1_555
Bi4 O6 1_555 1_555
Bi5 O4 1_555 1_555
C5 C6 1_555 1_555
C11 C12 1_555 1_555
C13 C18 1_555 1_555
C17 C18 1_555 1_555
C23 C24 1_555 1_555
C29 C30 1_555 1_555
C31 C36 1_555 1_555
O2 Bi1 1_555 1_555
O13 H15 1_555 1_555
O13 H16 1_555 1_555
Bi2 O5 1_555 1_555
O14 Bi2 1_555 1_555
O15 Bi2 1_555 1_555
O7 Bi2 1_555 1_555
C9_2 C8_2 1_555 1_555
C10_2 C9_2 1_555 1_555
C11_2 C10_2 1_555 1_555
H4_2 C11_2 1_555 1_555
O3_2 C9_2 1_555 1_555
H13_2 O3_2 1_555 1_555
O4_2 C10_2 1_555 1_555
Bi5_2 O4_2 1_555 1_555
H2_2 C4_2 1_555 1_555
C5_2 C4_2 1_555 1_555
C7_2 C6_2 1_555 1_555
C12_2 C7_2 1_555 1_555
C13_2 C12_2 1_555 1_555
C14_2 C13_2 1_555 1_555
H5_2 C14_2 1_555 1_555
C15_2 C14_2 1_555 1_555
C16_2 C15_2 1_555 1_555
C17_2 C16_2 1_555 1_555
H6_2 C17_2 1_555 1_555
C18_2 C5_2 1_555 1_555
C19_2 H7_2 1_555 1_555
C20_2 C19_2 1_555 1_555
C21_2 C20_2 1_555 1_555
C22_2 C21_2 1_555 1_555
H8_2 C22_2 1_555 1_555
C23_2 C22_2 1_555 1_555
C24_2 C19_2 1_555 1_555
C25_2 C24_2 1_555 1_555
C26_2 C25_2 1_555 1_555
H9_2 C26_2 1_555 1_555
C30_2 C25_2 1_555 1_555
C31_2 C30_2 1_555 1_555
C32 C31_2 1_555 1_555
C33 C32 1_555 1_555
C34 C33 1_555 1_555
C35 C34 1_555 1_555
H12 C35 1_555 1_555
C36_2 C23_2 1_555 1_555
O5_2 C15_2 1_555 1_555
O15 C16_2 1_555 1_555
O7_2 C21_2 1_555 1_555
O8_2 C20_2 1_555 1_555
O11 C33 1_555 1_555
H14 O11 1_555 1_555
O12 C34 1_555 1_555
Bi4 O5_2 1_555 1_555
O14_2 Bi4 1_555 1_555
C5_2 C6_2 1_555 1_555
C13_2 C18_2 1_555 1_555
C17_2 C18_2 1_555 1_555
C23_2 C24_2 1_555 1_555
C31_2 C36_2 1_555 1_555
C35 C36_2 1_555 1_555
O15 Bi4 1_555 1_555
O7_2 Bi4 1_555 1_555
O8_2 Bi4 1_555 1_555
Bi5 O5_3 1_555 1_555
O15_2 Bi5 1_555 1_555
O7_3 Bi5 1_555 1_555
C1_2 H1_2 1_555 1_555
C2_2 C1_2 1_555 1_555
C3_2 C2_2 1_555 1_555
C4_3 C3_2 1_555 1_555
H2_3 C4_3 1_555 1_555
C5_3 C4_3 1_555 1_555
C6_3 C1_2 1_555 1_555
C7_3 C6_3 1_555 1_555
C8_3 C7_3 1_555 1_555
H3_2 C8_3 1_555 1_555
C9_3 C8_3 1_555 1_555
C10_3 C9_3 1_555 1_555
C11_3 C10_3 1_555 1_555
H4_3 C11_3 1_555 1_555
C12_3 C7_3 1_555 1_555
C13_3 C12_3 1_555 1_555
C14_3 C13_3 1_555 1_555
H5_3 C14_3 1_555 1_555
C15_3 C14_3 1_555 1_555
C16_3 C15_3 1_555 1_555
C17_3 C16_3 1_555 1_555
H6_3 C17_3 1_555 1_555
C18_3 C5_3 1_555 1_555
C19_3 H7_3 1_555 1_555
C20_3 C19_3 1_555 1_555
C21_3 C20_3 1_555 1_555
C22_3 C21_3 1_555 1_555
H8_3 C22_3 1_555 1_555
C23_3 C22_3 1_555 1_555
C24_3 C19_3 1_555 1_555
C25_3 C24_3 1_555 1_555
C26_3 C25_3 1_555 1_555
H9_3 C26_3 1_555 1_555
C27_2 C26_3 1_555 1_555
C28_2 C27_2 1_555 1_555
C29_2 C28_2 1_555 1_555
H10_2 C29_2 1_555 1_555
C30_3 C25_3 1_555 1_555
C31_3 C30_3 1_555 1_555
C36_3 C23_3 1_555 1_555
O1_2 C3_2 1_555 1_555
O2_2 C2_2 1_555 1_555
O3_3 C9_3 1_555 1_555
H13_3 O3_3 1_555 1_555
O14 C10_3 1_555 1_555
O6_2 C16_3 1_555 1_555
O8_3 C20_3 1_555 1_555
O9 C27_2 1_555 1_555
O10 C28_2 1_555 1_555
O13_2 Bi3 1_555 1_555
Bi3 O1_2 1_555 1_555
Bi5_2 O6_2 1_555 1_555
C5_3 C6_3 1_555 1_555
C11_3 C12_3 1_555 1_555
C13_3 C18_3 1_555 1_555
C17_3 C18_3 1_555 1_555
C23_3 C24_3 1_555 1_555
C29_2 C30_3 1_555 1_555
C31_3 C36_3 1_555 1_555
O2_2 Bi3 1_555 1_555
O13_2 H15_2 1_555 1_555
O13_2 H16_2 1_555 1_555
H2_4 C4_4 1_555 1_555
C5_4 C4_4 1_555 1_555
C7_4 C6_4 1_555 1_555
C12_4 C7_4 1_555 1_555
C13_4 C12_4 1_555 1_555
C14_4 C13_4 1_555 1_555
H5_4 C14_4 1_555 1_555
C15_4 C14_4 1_555 1_555
C16_4 C15_4 1_555 1_555
C17_4 C16_4 1_555 1_555
H6_4 C17_4 1_555 1_555
C18_4 C5_4 1_555 1_555
C19_4 H7_4 1_555 1_555
C20_4 C19_4 1_555 1_555
C21_4 C20_4 1_555 1_555
C22_4 C21_4 1_555 1_555
H8_4 C22_4 1_555 1_555
C23_4 C22_4 1_555 1_555
C24_4 C19_4 1_555 1_555
C25_4 C24_4 1_555 1_555
C26_4 C25_4 1_555 1_555
H9_4 C26_4 1_555 1_555
C30_4 C25_4 1_555 1_555
C31_4 C30_4 1_555 1_555
C32_2 C31_4 1_555 1_555
C33_2 C32_2 1_555 1_555
C34_2 C33_2 1_555 1_555
C35_2 C34_2 1_555 1_555
H12_2 C35_2 1_555 1_555
C36_4 C23_4 1_555 1_555
O5_4 C15_4 1_555 1_555
O15_2 C16_4 1_555 1_555
O7_4 C21_4 1_555 1_555
O8_4 C20_4 1_555 1_555
O11_2 C33_2 1_555 1_555
H14_2 O11_2 1_555 1_555
O12_2 C34_2 1_555 1_555
Bi5_2 O5_4 1_555 1_555
C5_4 C6_4 1_555 1_555
C13_4 C18_4 1_555 1_555
C17_4 C18_4 1_555 1_555
C23_4 C24_4 1_555 1_555
C31_4 C36_4 1_555 1_555
C35_2 C36_4 1_555 1_555
O15_2 Bi5_2 1_555 1_555
O7_4 Bi5_2 1_555 1_555
O8_4 Bi5_2 1_555 1_555
C9_4 C8_4 1_555 1_555
C10_4 C9_4 1_555 1_555
C11_4 C10_4 1_555 1_555
H4_4 C11_4 1_555 1_555
O3_4 C9_4 1_555 1_555
H13_4 O3_4 1_555 1_555
O14_2 C10_4 1_555 1_555
H11 C32_3 1_555 1_555
C33_3 C32_3 1_555 1_555
C34_3 C33_3 1_555 1_555
C35_3 C34_3 1_555 1_555
H12_3 C35_3 1_555 1_555
O11_3 C33_3 1_555 1_555
H14_3 O11_3 1_555 1_555
O12_3 C34_3 1_555 1_555
C1_3 H1_3 1_555 1_555
C2_3 C1_3 1_555 1_555
C3_3 C2_3 1_555 1_555
C28_3 C27_3 1_555 1_555
C29_3 C28_3 1_555 1_555
H10_3 C29_3 1_555 1_555
O1_3 C3_3 1_555 1_555
O2_3 C2_3 1_555 1_555
O9_2 C27_3 1_555 1_555
O10_2 C28_3 1_555 1_555
O13_3 Bi3_2 1_555 1_555
Bi3_2 O1_3 1_555 1_555
O2_3 Bi3_2 1_555 1_555
O13_3 H15_3 1_555 1_555
O13_3 H16_3 1_555 1_555
H11_3 C32_4 1_555 1_555
C33_4 C32_4 1_555 1_555
C34_4 C33_4 1_555 1_555
C35_4 C34_4 1_555 1_555
H12_4 C35_4 1_555 1_555
O11_4 C33_4 1_555 1_555
H14_4 O11_4 1_555 1_555
O12_4 C34_4 1_555 1_555
C1_4 H1_4 1_555 1_555
C2_4 C1_4 1_555 1_555
C3_4 C2_4 1_555 1_555
C28_4 C27_4 1_555 1_555
C29_4 C28_4 1_555 1_555
H10_4 C29_4 1_555 1_555
O1_4 C3_4 1_555 1_555
O2_4 C2_4 1_555 1_555
O16_2 C27_4 1_555 1_555
O17_2 C28_4 1_555 1_555
O13_4 Bi1_2 1_555 1_555
Bi1_2 O1_4 1_555 1_555
O2_4 Bi1_2 1_555 1_555
O13_4 H15_4 1_555 1_555
O13_4 H16_4 1_555 1_555

#END
