
###############################################################################
#
# This file contains modified crystal structure data generated from the
# MOF subset of the Cambridge Structural Database (CSD) v543 
# hosted by the Cambridge Crystallographic Data Centre (CCDC).
#
# This work is licensed under the Creative Commons
# Attribution-NonCommercial-ShareAlike 4.0 International License.
# To view a copy of this license, visit
# http://creativecommons.org/licenses/by-nc-sa/4.0/
# or send a letter to
# Creative Commons, PO Box 1866, Mountain View, CA 94042, USA.
#
# CIF created using the CSD Python API on 29 September 2022
# The structure has been converted into the P1 space group
# The structure has a 3D framework
# The original CSD entry HAPJIV is in the monoclinic crystal system
# The framework has been calculated to contain at least 10.0% void space
# The void calculation uses a probe of radius 1.32A, grid spacing 0.4
#
###############################################################################

data_HAPJIV
_chemical_formula_moiety         '(C80 H80 Cu8 N16 O32)n'
_symmetry_cell_setting           triclinic
_symmetry_space_group_name_H-M   'P 1'
_symmetry_Int_Tables_number      1
_space_group_name_Hall           'P 1'
loop_
_symmetry_equiv_pos_site_id
_symmetry_equiv_pos_as_xyz
1 x,y,z
_cell_length_a                   24.697(11)
_cell_length_b                   13.156(5)
_cell_length_c                   8.534(3)
_cell_angle_alpha                90
_cell_angle_beta                 93.86(3)
_cell_angle_gamma                90
_cell_volume                     2766.52
loop_
_atom_site_label
_atom_site_type_symbol
_atom_site_fract_x
_atom_site_fract_y
_atom_site_fract_z
Cu4 Cu 0.79420(2) 0.79621(4) 0.05863(5)
O9 O 0.67736(13) 0.7189(3) 0.1504(3)
O11 O 0.74523(13) 0.5793(2) 0.0089(4)
C1 C 0.40243(19) 0.3209(4) 0.2570(6)
H1 H 0.4039 0.2498 0.2383
C2 C 0.44337(17) 0.3648(4) 0.3531(5)
H2 H 0.4721 0.3248 0.3999
C3 C 0.44138(16) 0.4676(3) 0.3789(5)
C4 C 0.39919(18) 0.5238(4) 0.3107(6)
H3 H 0.3972 0.5952 0.3265
C5 C 0.35984(18) 0.4731(4) 0.2183(6)
H4 H 0.3301 0.5111 0.1726
C6 C 0.20481(16) 0.2653(3) 0.2567(4)
C7 C 0.17815(19) 0.2882(3) 0.4075(5)
H5 H 0.1866 0.2328 0.4837
H6 H 0.1383 0.2903 0.3855
C8 C 0.19706(19) 0.3891(3) 0.4807(4)
H7 H 0.1795 0.3992 0.5804
H8 H 0.2368 0.3865 0.5053
C9 C 0.20771(16) 0.5801(3) 0.4249(4)
C10 C 0.18363(19) 0.4784(3) 0.3724(5)
H9 H 0.1963 0.4622 0.2677
H10 H 0.1437 0.4856 0.3602
Cu1 Cu 0.29420(2) 0.29621(4) 0.05863(5)
N1 N 0.36137(13) 0.3733(3) 0.1900(4)
N2 N 0.48192(15) 0.5253(3) 0.4717(5)
O1 O 0.25285(12) 0.2940(2) 0.2479(3)
O2 O 0.17736(13) 0.2189(3) 0.1504(3)
O3 O 0.25477(13) 0.5793(2) 0.4911(4)
O4 O 0.17993(12) 0.6572(2) 0.3946(4)
C11 C 0.59757(19) 0.6791(4) 0.7430(6)
H11 H 0.5961 0.7502 0.7617
C12 C 0.55663(17) 0.6352(4) 0.6469(5)
H12 H 0.5279 0.6752 0.6001
C13 C 0.55862(16) 0.5324(3) 0.6211(5)
C14 C 0.60081(18) 0.4762(4) 0.6893(6)
H13 H 0.6028 0.4048 0.6735
C15 C 0.64016(18) 0.5269(4) 0.7817(6)
H14 H 0.6699 0.4889 0.8274
N3 N 0.63863(13) 0.6267(3) 0.8100(4)
N4 N 0.51808(15) 0.4747(3) 0.5283(5)
C16 C 0.79519(16) 0.7347(3) 0.7433(4)
C17 C 0.82185(19) 0.7118(3) 0.5925(5)
H15 H 0.8134 0.7672 0.5163
H16 H 0.8617 0.7097 0.6145
C18 C 0.80294(19) 0.6109(3) 0.5193(4)
H17 H 0.8205 0.6008 0.4196
H18 H 0.7632 0.6135 0.4947
C19 C 0.79229(16) 0.4199(3) 0.5751(4)
C20 C 0.81637(19) 0.5216(3) 0.6276(5)
H19 H 0.8037 0.5378 0.7323
H20 H 0.8563 0.5144 0.6398
Cu2 Cu 0.70580(2) 0.70379(4) 0.94137(5)
O5 O 0.74715(12) 0.7060(2) 0.7521(3)
O6 O 0.82264(13) 0.7811(3) 0.8496(3)
O7 O 0.74523(13) 0.4207(2) 0.5089(4)
O8 O 0.82007(12) 0.3428(2) 0.6054(4)
Cu3 Cu 0.70580(2) 0.29621(4) 0.44137(5)
Cu5 Cu 0.20580(2) 0.79621(4) 0.44137(5)
Cu6 Cu 0.29420(2) 0.70379(4) 0.55863(5)
Cu8 Cu 0.79420(2) 0.20379(4) 0.55863(5)
O13 O 0.32007(12) 0.1572(2) 0.1054(4)
O14 O 0.67993(12) 0.8428(2) 0.8946(4)
Cu7 Cu 0.20580(2) 0.20379(4) 0.94137(5)
O10 O 0.32264(13) 0.2811(3) 0.8496(3)
O12 O 0.25477(13) 0.4207(2) 0.9911(4)
C1_2 C 0.59757(19) 0.3209(4) 0.2430(6)
H1_2 H 0.5961 0.2498 0.2617
C2_2 C 0.55663(17) 0.3648(4) 0.1469(5)
H2_2 H 0.5279 0.3248 0.1001
C3_2 C 0.55862(16) 0.4676(3) 0.1211(5)
C4_2 C 0.60081(18) 0.5238(4) 0.1893(6)
H3_2 H 0.6028 0.5952 0.1735
C5_2 C 0.64016(18) 0.4731(4) 0.2817(6)
H4_2 H 0.6699 0.5111 0.3274
C6_2 C 0.79519(16) 0.2653(3) 0.2433(4)
C7_2 C 0.82185(19) 0.2882(3) 0.0925(5)
H5_2 H 0.8134 0.2328 0.0163
H6_2 H 0.8617 0.2903 0.1145
C8_2 C 0.80294(19) 0.3891(3) 0.0193(4)
C9_2 C 0.79229(16) 0.5801(3) 0.0751(4)
C10_2 C 0.81637(19) 0.4784(3) 0.1276(5)
H9_2 H 0.8037 0.4622 0.2323
H10_2 H 0.8563 0.4856 0.1398
N1_2 N 0.63863(13) 0.3733(3) 0.3100(4)
N2_2 N 0.51808(15) 0.5253(3) 0.0283(5)
O1_2 O 0.74715(12) 0.2940(2) 0.2521(3)
O2_2 O 0.82264(13) 0.2189(3) 0.3496(3)
O4_2 O 0.82007(12) 0.6572(2) 0.1054(4)
H17_2 H 0.1795 0.6008 0.0804
H18_2 H 0.2368 0.6135 0.0053
O10_2 O 0.67736(13) 0.2811(3) 0.6504(3)
O13_2 O 0.67993(12) 0.1572(2) 0.3946(4)
H7_2 H 0.8205 0.3992 0.9196
H8_2 H 0.7632 0.3865 0.9947
C11_2 C 0.40243(19) 0.6791(4) 0.7570(6)
H11_2 H 0.4039 0.7502 0.7383
C12_2 C 0.44337(17) 0.6352(4) 0.8531(5)
H12_2 H 0.4721 0.6752 0.8999
C13_2 C 0.44138(16) 0.5324(3) 0.8789(5)
C14_2 C 0.39919(18) 0.4762(4) 0.8107(6)
H13_2 H 0.3972 0.4048 0.8265
C15_2 C 0.35984(18) 0.5269(4) 0.7183(6)
H14_2 H 0.3301 0.4889 0.6726
N3_2 N 0.36137(13) 0.6267(3) 0.6900(4)
N4_2 N 0.48192(15) 0.4747(3) 0.9717(5)
C16_2 C 0.20481(16) 0.7347(3) 0.7567(4)
C17_2 C 0.17815(19) 0.7118(3) 0.9075(5)
H15_2 H 0.1866 0.7672 0.9837
H16_2 H 0.1383 0.7097 0.8855
C18_2 C 0.19706(19) 0.6109(3) 0.9807(4)
C19_2 C 0.20771(16) 0.4199(3) 0.9249(4)
C20_2 C 0.18363(19) 0.5216(3) 0.8724(5)
H19_2 H 0.1963 0.5378 0.7677
H20_2 H 0.1437 0.5144 0.8602
O5_2 O 0.25285(12) 0.7060(2) 0.7479(3)
O6_2 O 0.17736(13) 0.7811(3) 0.6504(3)
O8_2 O 0.17993(12) 0.3428(2) 0.8946(4)
O9_2 O 0.32264(13) 0.7189(3) 0.3496(3)
O14_2 O 0.32007(12) 0.8428(2) 0.6054(4)
O11_2 O 0.24523(13) 0.0793(2) 0.0089(4)
C11_3 C 0.09757(19) 0.1791(4) 0.7430(6)
H11_3 H 0.0961 0.2502 0.7617
C12_3 C 0.05663(17) 0.1352(4) 0.6469(5)
H12_3 H 0.0279 0.1752 0.6001
C13_3 C 0.05862(16) 0.0324(3) 0.6211(5)
C15_3 C 0.14016(18) 0.0269(4) 0.7817(6)
N3_3 N 0.13863(13) 0.1267(3) 0.8100(4)
C16_3 C 0.29519(16) 0.2347(3) 0.7433(4)
C17_3 C 0.32185(19) 0.2118(3) 0.5925(5)
H15_3 H 0.3134 0.2672 0.5163
H16_3 H 0.3617 0.2097 0.6145
C18_3 C 0.30294(19) 0.1109(3) 0.5193(4)
H17_3 H 0.3205 0.1008 0.4196
H18_3 H 0.2632 0.1135 0.4947
C20_3 C 0.31637(19) 0.0216(3) 0.6276(5)
H19_3 H 0.3037 0.0378 0.7323
H20_3 H 0.3563 0.0144 0.6398
O5_3 O 0.24715(12) 0.2060(2) 0.7521(3)
C14_3 C 0.10081(18) 0.9762(4) 0.6893(6)
H13_3 H 0.1028 0.9048 0.6735
H14_3 H 0.1699 0.9889 0.8274
N4_3 N 0.01808(15) 0.9747(3) 0.5283(5)
C19_3 C 0.29229(16) 0.9199(3) 0.5751(4)
O7_2 O 0.24523(13) 0.9207(2) 0.5089(4)
C4_3 C 0.89919(18) 0.0238(4) 0.3107(6)
H3_3 H 0.8972 0.0952 0.3265
H4_3 H 0.8301 0.0111 0.1726
C9_3 C 0.70771(16) 0.0801(3) 0.4249(4)
N2_3 N 0.98192(15) 0.0253(3) 0.4717(5)
O3_2 O 0.75477(13) 0.0793(2) 0.4911(4)
C1_3 C 0.90243(19) 0.8209(4) 0.2570(6)
H1_3 H 0.9039 0.7498 0.2383
C2_3 C 0.94337(17) 0.8648(4) 0.3531(5)
H2_3 H 0.9721 0.8248 0.3999
C3_3 C 0.94138(16) 0.9676(3) 0.3789(5)
C5_3 C 0.85984(18) 0.9731(4) 0.2183(6)
C6_3 C 0.70481(16) 0.7653(3) 0.2567(4)
C7_3 C 0.67815(19) 0.7882(3) 0.4075(5)
H5_3 H 0.6866 0.7328 0.4837
H6_3 H 0.6383 0.7903 0.3855
C8_3 C 0.69706(19) 0.8891(3) 0.4807(4)
H7_3 H 0.6795 0.8992 0.5804
H8_3 H 0.7368 0.8865 0.5053
C10_3 C 0.68363(19) 0.9784(3) 0.3724(5)
H9_3 H 0.6963 0.9622 0.2677
H10_3 H 0.6437 0.9856 0.3602
N1_3 N 0.86137(13) 0.8733(3) 0.1900(4)
O1_3 O 0.75285(12) 0.7940(2) 0.2479(3)
O12_2 O 0.75477(13) 0.9207(2) 0.9911(4)
C4_4 C 0.10081(18) 0.0238(4) 0.1893(6)
H3_4 H 0.1028 0.0952 0.1735
H4_4 H 0.1699 0.0111 0.3274
C9_4 C 0.29229(16) 0.0801(3) 0.0751(4)
N2_4 N 0.01808(15) 0.0253(3) 0.0283(5)
C1_4 C 0.09757(19) 0.8209(4) 0.2430(6)
H1_4 H 0.0961 0.7498 0.2617
C2_4 C 0.05663(17) 0.8648(4) 0.1469(5)
H2_4 H 0.0279 0.8248 0.1001
C3_4 C 0.05862(16) 0.9676(3) 0.1211(5)
C5_4 C 0.14016(18) 0.9731(4) 0.2817(6)
C6_4 C 0.29519(16) 0.7653(3) 0.2433(4)
C7_4 C 0.32185(19) 0.7882(3) 0.0925(5)
H5_4 H 0.3134 0.7328 0.0163
H6_4 H 0.3617 0.7903 0.1145
C8_4 C 0.30294(19) 0.8891(3) 0.0193(4)
C10_4 C 0.31637(19) 0.9784(3) 0.1276(5)
H9_4 H 0.3037 0.9622 0.2323
H10_4 H 0.3563 0.9856 0.1398
N1_4 N 0.13863(13) 0.8733(3) 0.3100(4)
O1_4 O 0.24715(12) 0.7940(2) 0.2521(3)
C11_4 C 0.90243(19) 0.1791(4) 0.7570(6)
H11_4 H 0.9039 0.2502 0.7383
C12_4 C 0.94337(17) 0.1352(4) 0.8531(5)
H12_4 H 0.9721 0.1752 0.8999
C13_4 C 0.94138(16) 0.0324(3) 0.8789(5)
C15_4 C 0.85984(18) 0.0269(4) 0.7183(6)
N3_4 N 0.86137(13) 0.1267(3) 0.6900(4)
C16_4 C 0.70481(16) 0.2347(3) 0.7567(4)
C17_4 C 0.67815(19) 0.2118(3) 0.9075(5)
H15_4 H 0.6866 0.2672 0.9837
H16_4 H 0.6383 0.2097 0.8855
C18_4 C 0.69706(19) 0.1109(3) 0.9807(4)
C20_4 C 0.68363(19) 0.0216(3) 0.8724(5)
H19_4 H 0.6963 0.0378 0.7677
H20_4 H 0.6437 0.0144 0.8602
O5_4 O 0.75285(12) 0.2060(2) 0.7479(3)
C14_4 C 0.89919(18) 0.9762(4) 0.8107(6)
H13_4 H 0.8972 0.9048 0.8265
H14_4 H 0.8301 0.9889 0.6726
N4_4 N 0.98192(15) 0.9747(3) 0.9717(5)
C19_4 C 0.70771(16) 0.9199(3) 0.9249(4)
H7_4 H 0.3205 0.8992 0.9196
H8_4 H 0.2632 0.8865 0.9947
H17_4 H 0.6795 0.1008 0.0804
H18_4 H 0.7368 0.1135 0.0053
loop_
_geom_bond_atom_site_label_1
_geom_bond_atom_site_label_2
_geom_bond_site_symmetry_1
_geom_bond_site_symmetry_2
C1 H1 1_555 1_555
C2 C1 1_555 1_555
H2 C2 1_555 1_555
C3 C2 1_555 1_555
C4 C3 1_555 1_555
H3 C4 1_555 1_555
C5 C4 1_555 1_555
H4 C5 1_555 1_555
C6 C7 1_555 1_555
C7 H5 1_555 1_555
H6 C7 1_555 1_555
C8 C7 1_555 1_555
H7 C8 1_555 1_555
H8 C8 1_555 1_555
C9 C10 1_555 1_555
C10 C8 1_555 1_555
H9 C10 1_555 1_555
H10 C10 1_555 1_555
Cu1 N1 1_555 1_555
N1 C1 1_555 1_555
N2 C3 1_555 1_555
O1 C6 1_555 1_555
O2 C6 1_555 1_555
O3 C9 1_555 1_555
O4 C9 1_555 1_555
C11 H11 1_555 1_555
C12 C11 1_555 1_555
H12 C12 1_555 1_555
C13 C12 1_555 1_555
C14 C13 1_555 1_555
H13 C14 1_555 1_555
C15 C14 1_555 1_555
H14 C15 1_555 1_555
N3 C11 1_555 1_555
N4 N2 1_555 1_555
C16 C17 1_555 1_555
C17 H15 1_555 1_555
H16 C17 1_555 1_555
C18 C17 1_555 1_555
H17 C18 1_555 1_555
H18 C18 1_555 1_555
C19 C20 1_555 1_555
C20 C18 1_555 1_555
H19 C20 1_555 1_555
H20 C20 1_555 1_555
Cu2 N3 1_555 1_555
O5 C16 1_555 1_555
O6 C16 1_555 1_555
O7 C19 1_555 1_555
O8 C19 1_555 1_555
Cu3 O7 1_555 1_555
Cu5 O4 1_555 1_555
Cu6 O3 1_555 1_555
Cu8 O8 1_555 1_555
O13 Cu1 1_555 1_555
O14 Cu2 1_555 1_555
C5 N1 1_555 1_555
Cu1 O1 1_555 1_555
C13 N4 1_555 1_555
C15 N3 1_555 1_555
Cu2 O5 1_555 1_555
Cu3 Cu8 1_555 1_555
Cu5 Cu6 1_555 1_555
C1_2 H1_2 1_555 1_555
C2_2 C1_2 1_555 1_555
H2_2 C2_2 1_555 1_555
C3_2 C2_2 1_555 1_555
C4_2 C3_2 1_555 1_555
H3_2 C4_2 1_555 1_555
C5_2 C4_2 1_555 1_555
H4_2 C5_2 1_555 1_555
C6_2 C7_2 1_555 1_555
C7_2 H5_2 1_555 1_555
H6_2 C7_2 1_555 1_555
C8_2 C7_2 1_555 1_555
C9_2 C10_2 1_555 1_555
C10_2 C8_2 1_555 1_555
H9_2 C10_2 1_555 1_555
H10_2 C10_2 1_555 1_555
Cu3 N1_2 1_555 1_555
N1_2 C1_2 1_555 1_555
N2_2 C3_2 1_555 1_555
O1_2 C6_2 1_555 1_555
O2_2 C6_2 1_555 1_555
O11 C9_2 1_555 1_555
O4_2 C9_2 1_555 1_555
Cu4 O4_2 1_555 1_555
O10_2 Cu3 1_555 1_555
O13_2 Cu3 1_555 1_555
C5_2 N1_2 1_555 1_555
Cu3 O1_2 1_555 1_555
O2_2 Cu8 1_555 1_555
C11_2 H11_2 1_555 1_555
C12_2 C11_2 1_555 1_555
H12_2 C12_2 1_555 1_555
C13_2 C12_2 1_555 1_555
C14_2 C13_2 1_555 1_555
H13_2 C14_2 1_555 1_555
C15_2 C14_2 1_555 1_555
H14_2 C15_2 1_555 1_555
N3_2 C11_2 1_555 1_555
C16_2 C17_2 1_555 1_555
C17_2 H15_2 1_555 1_555
H16_2 C17_2 1_555 1_555
C18_2 C17_2 1_555 1_555
C19_2 C20_2 1_555 1_555
C20_2 C18_2 1_555 1_555
H19_2 C20_2 1_555 1_555
H20_2 C20_2 1_555 1_555
Cu6 N3_2 1_555 1_555
O5_2 C16_2 1_555 1_555
O6_2 C16_2 1_555 1_555
O12 C19_2 1_555 1_555
O8_2 C19_2 1_555 1_555
Cu7 O8_2 1_555 1_555
O9_2 Cu6 1_555 1_555
O14_2 Cu6 1_555 1_555
C13_2 N4_2 1_555 1_555
C15_2 N3_2 1_555 1_555
Cu6 O5_2 1_555 1_555
O6_2 Cu5 1_555 1_555
C11_3 H11_3 1_555 1_555
C12_3 C11_3 1_555 1_555
H12_3 C12_3 1_555 1_555
C13_3 C12_3 1_555 1_555
N3_3 C11_3 1_555 1_555
C16_3 C17_3 1_555 1_555
C17_3 H15_3 1_555 1_555
H16_3 C17_3 1_555 1_555
C18_3 C17_3 1_555 1_555
H17_3 C18_3 1_555 1_555
H18_3 C18_3 1_555 1_555
C20_3 C18_3 1_555 1_555
H19_3 C20_3 1_555 1_555
H20_3 C20_3 1_555 1_555
Cu7 N3_3 1_555 1_555
O5_3 C16_3 1_555 1_555
O10 C16_3 1_555 1_555
C15_3 N3_3 1_555 1_555
Cu7 O5_3 1_555 1_555
H13_3 C14_3 1_555 1_555
O7_2 C19_3 1_555 1_555
O14_2 C19_3 1_555 1_555
Cu5 O7_2 1_555 1_555
H3_3 C4_3 1_555 1_555
O3_2 C9_3 1_555 1_555
O13_2 C9_3 1_555 1_555
Cu8 O3_2 1_555 1_555
C1_3 H1_3 1_555 1_555
C2_3 C1_3 1_555 1_555
H2_3 C2_3 1_555 1_555
C3_3 C2_3 1_555 1_555
C6_3 C7_3 1_555 1_555
C7_3 H5_3 1_555 1_555
H6_3 C7_3 1_555 1_555
C8_3 C7_3 1_555 1_555
H7_3 C8_3 1_555 1_555
H8_3 C8_3 1_555 1_555
C10_3 C8_3 1_555 1_555
H9_3 C10_3 1_555 1_555
H10_3 C10_3 1_555 1_555
Cu4 N1_3 1_555 1_555
N1_3 C1_3 1_555 1_555
O1_3 C6_3 1_555 1_555
O9 C6_3 1_555 1_555
C5_3 N1_3 1_555 1_555
Cu4 O1_3 1_555 1_555
H3_4 C4_4 1_555 1_555
O11_2 C9_4 1_555 1_555
O13 C9_4 1_555 1_555
C1_4 H1_4 1_555 1_555
C2_4 C1_4 1_555 1_555
H2_4 C2_4 1_555 1_555
C3_4 C2_4 1_555 1_555
C6_4 C7_4 1_555 1_555
C7_4 H5_4 1_555 1_555
H6_4 C7_4 1_555 1_555
C8_4 C7_4 1_555 1_555
C10_4 C8_4 1_555 1_555
H9_4 C10_4 1_555 1_555
H10_4 C10_4 1_555 1_555
Cu5 N1_4 1_555 1_555
N1_4 C1_4 1_555 1_555
O1_4 C6_4 1_555 1_555
O9_2 C6_4 1_555 1_555
C5_4 N1_4 1_555 1_555
Cu5 O1_4 1_555 1_555
C11_4 H11_4 1_555 1_555
C12_4 C11_4 1_555 1_555
H12_4 C12_4 1_555 1_555
C13_4 C12_4 1_555 1_555
N3_4 C11_4 1_555 1_555
C16_4 C17_4 1_555 1_555
C17_4 H15_4 1_555 1_555
H16_4 C17_4 1_555 1_555
C18_4 C17_4 1_555 1_555
C20_4 C18_4 1_555 1_555
H19_4 C20_4 1_555 1_555
H20_4 C20_4 1_555 1_555
Cu8 N3_4 1_555 1_555
O5_4 C16_4 1_555 1_555
O10_2 C16_4 1_555 1_555
C15_4 N3_4 1_555 1_555
Cu8 O5_4 1_555 1_555
H13_4 C14_4 1_555 1_555
O12_2 C19_4 1_555 1_555
O14 C19_4 1_555 1_555

#END
