
###############################################################################
#
# This file contains modified crystal structure data generated from the
# MOF subset of the Cambridge Structural Database (CSD) v543 
# hosted by the Cambridge Crystallographic Data Centre (CCDC).
#
# This work is licensed under the Creative Commons
# Attribution-NonCommercial-ShareAlike 4.0 International License.
# To view a copy of this license, visit
# http://creativecommons.org/licenses/by-nc-sa/4.0/
# or send a letter to
# Creative Commons, PO Box 1866, Mountain View, CA 94042, USA.
#
# CIF created using the CSD Python API on 29 September 2022
# The structure has been converted into the P1 space group
# The structure has a 3D framework
# The original CSD entry HAPVAX is in the orthorhombic crystal system
# The framework has been calculated to contain at least 10.0% void space
# The void calculation uses a probe of radius 1.32A, grid spacing 0.4
# H atom positions have been added when not included in the experimental data
# Generated hydrogen atom positions removed from atoms on special positions
#
###############################################################################

data_HAPVAX
_chemical_formula_moiety         '(C48 H36 Ce4 O80 U15)n'
_symmetry_cell_setting           triclinic
_symmetry_space_group_name_H-M   'P 1'
_symmetry_Int_Tables_number      1
_space_group_name_Hall           'P 1'
loop_
_symmetry_equiv_pos_site_id
_symmetry_equiv_pos_as_xyz
1 x,y,z
_cell_length_a                   15.5887(5)
_cell_length_b                   11.6182(3)
_cell_length_c                   13.1134(3)
_cell_angle_alpha                90
_cell_angle_beta                 90
_cell_angle_gamma                90
_cell_volume                     2375
loop_
_atom_site_label
_atom_site_type_symbol
_atom_site_fract_x
_atom_site_fract_y
_atom_site_fract_z
O8 O 0.3543(3) 0.1141(4) 0.0689(3)
O16 O 0.1738(2) 0.1292(3) 0.0303(2)
O17 O 0.1738(2) 0.3708(3) 0.0303(2)
O23 O 0.3543(3) 0.3859(4) 0.0689(3)
U1 U 0.247000(14) 0.2500 0.657054(16)
Ce1 Ce 0.28635(2) 0.2500 0.93879(2)
U2 U 0.0000 0.0000 0.0000
O1 O 0.0768(2) 0.0747(3) 0.1426(3)
O4 O 0.3877(2) 0.0689(3) 0.3952(2)
O5 O 0.3411(3) 0.2500 0.7336(3)
O6 O 0.1779(3) 0.2500 0.8077(3)
O7 O 0.3145(2) 0.1319(3) 0.5276(2)
O9 O 0.4454(4) 0.2500 0.9176(5)
C1 C 0.2314(3) 0.1298(3) 0.2811(3)
C3 C 0.1908(2) 0.1898(3) 0.2029(3)
C4 C 0.1450(3) 0.1266(3) 0.1188(3)
C5 C 0.3272(3) 0.1259(3) 0.4337(3)
C6 C 0.2723(2) 0.1902(3) 0.3596(3)
O12 O 0.1511(4) 0.2500 0.5859(4)
U4 U 0.253000(14) 0.7500 0.157054(16)
Ce4 Ce 0.21365(2) 0.7500 0.43879(2)
U5 U 0.5000 0.0000 0.5000
U6 U -0.0000 0.5000 0.0000
U7 U 0.5000 0.5000 0.5000
O13 O 0.0768(2) 0.4253(3) 0.1426(3)
O19 O 0.3877(2) 0.4311(3) 0.3952(2)
O22 O 0.3145(2) 0.3681(3) 0.5276(2)
O24 O 0.2614(2) 0.5470(3) 0.1993(2)
O25 O 0.2386(2) 0.0470(3) 0.6993(2)
O26 O 0.2386(2) 0.4530(3) 0.6993(2)
O27 O 0.2090(2) 0.5514(3) 0.3590(2)
O28 O 0.2910(2) 0.0514(3) 0.8590(2)
O29 O 0.2910(2) 0.4486(3) 0.8590(2)
C7 C 0.2314(3) 0.3702(3) 0.2811(3)
C8 C 0.2339(3) 0.5008(3) 0.2805(3)
C9 C 0.1908(2) 0.3102(3) 0.2029(3)
C10 C 0.1450(3) 0.3734(3) 0.1188(3)
C11 C 0.3272(3) 0.3741(3) 0.4337(3)
C12 C 0.2723(2) 0.3098(3) 0.3596(3)
U2_2 U -0.0000 0.0000 1.0000
O3 O 0.0035(2) 0.1296(3) 0.9312(3)
U6_2 U -0.0000 0.5000 1.0000
U2_3 U -0.0000 1.0000 0.0000
O10 O 0.2614(2) 0.9530(3) 0.1993(2)
O11 O 0.2090(2) 0.9486(3) 0.3590(2)
C2 C 0.2339(3) 0.9992(3) 0.2805(3)
U5_2 U 0.5000 1.0000 0.5000
U2_4 U -0.0000 1.0000 1.0000
O20 O 0.1123(2) 0.9311(3) 0.8952(2)
U2_5 U 1.0000 0.0000 0.0000
U6_3 U 1.0000 0.5000 0.0000
O21 O 0.8877(2) 0.0689(3) 0.1048(2)
U2_6 U 1.0000 0.0000 1.0000
U6_4 U 1.0000 0.5000 1.0000
U2_7 U 1.0000 1.0000 0.0000
O18 O 0.9965(2) 0.8704(3) 0.0688(3)
U2_8 U 1.0000 1.0000 1.0000
O14 O 0.9232(2) 0.9253(3) 0.8574(3)
C2_2 C 0.2661(3) 0.0008(3) 0.7805(3)
O14_2 O 0.5768(2) 0.0747(3) 0.3574(3)
O18_2 O 0.5035(2) 0.1296(3) 0.5688(3)
O5_2 O 0.1589(3) 0.7500 0.2336(3)
O6_2 O 0.3221(3) 0.7500 0.3077(3)
O7_2 O 0.1855(2) 0.8681(3) 0.0276(2)
O8_2 O 0.1457(3) 0.8859(4) 0.5689(3)
O9_2 O 0.0546(4) 0.7500 0.4176(5)
O12_2 O 0.3489(4) 0.7500 0.0859(4)
O16_2 O 0.3262(2) 0.8708(3) 0.5303(2)
O17_2 O 0.3262(2) 0.6292(3) 0.5303(2)
O22_2 O 0.1855(2) 0.6319(3) 0.0276(2)
O23_2 O 0.1457(3) 0.6141(4) 0.5689(3)
O1_2 O 0.4232(2) 0.9253(3) 0.6426(3)
O3_2 O 0.4965(2) 0.8704(3) 0.4312(3)
C1_2 C 0.2686(3) 0.8702(3) 0.7811(3)
C3_2 C 0.3092(2) 0.8102(3) 0.7029(3)
C4_2 C 0.3550(3) 0.8734(3) 0.6188(3)
C5_2 C 0.1728(3) 0.8741(3) 0.9337(3)
C6_2 C 0.2277(2) 0.8098(3) 0.8596(3)
O13_2 O 0.4232(2) 0.5747(3) 0.6426(3)
O19_2 O 0.1123(2) 0.5689(3) 0.8952(2)
O21_2 O 0.6123(2) 0.9311(3) 0.6048(2)
C7_2 C 0.2686(3) 0.6298(3) 0.7811(3)
C8_2 C 0.2661(3) 0.4992(3) 0.7805(3)
C9_2 C 0.3092(2) 0.6898(3) 0.7029(3)
C10_2 C 0.3550(3) 0.6266(3) 0.6188(3)
C11_2 C 0.1728(3) 0.6259(3) 0.9337(3)
C12_2 C 0.2277(2) 0.6902(3) 0.8596(3)
O18_3 O 0.0035(2) 0.3704(3) 0.9312(3)
U4_2 U 0.747000(14) 0.2500 0.842946(16)
Ce4_2 Ce 0.78635(2) 0.2500 0.56121(2)
O24_2 O 0.7386(2) 0.0470(3) 0.8007(2)
O27_2 O 0.7910(2) 0.0514(3) 0.6410(2)
C8_3 C 0.7661(3) 0.0008(3) 0.7195(3)
O3_3 O 0.9965(2) 0.6296(3) 0.0688(3)
Ce2 Ce 0.71365(2) 0.7500 0.06121(2)
O20_2 O 0.8877(2) 0.4311(3) 0.1048(2)
U1_2 U 0.753000(14) 0.7500 0.342946(16)
O1_3 O 0.9232(2) 0.5747(3) 0.8574(3)
O2 O 0.8262(2) 0.6292(3) 0.9697(2)
O4_2 O 0.6123(2) 0.5689(3) 0.6048(2)
O5_3 O 0.6589(3) 0.7500 0.2664(3)
O6_3 O 0.8221(3) 0.7500 0.1923(3)
O7_3 O 0.6855(2) 0.6319(3) 0.4724(2)
O9_3 O 0.5546(4) 0.7500 0.0824(5)
O10_2 O 0.7386(2) 0.4530(3) 0.8007(2)
O11_2 O 0.7910(2) 0.4486(3) 0.6410(2)
C1_3 C 0.7686(3) 0.6298(3) 0.7189(3)
C2_3 C 0.7661(3) 0.4992(3) 0.7195(3)
C3_3 C 0.8092(2) 0.6898(3) 0.7971(3)
C4_3 C 0.8550(3) 0.6266(3) 0.8812(3)
C5_3 C 0.6728(3) 0.6259(3) 0.5663(3)
C6_3 C 0.7277(2) 0.6902(3) 0.6404(3)
O12_3 O 0.8489(4) 0.7500 0.4141(4)
O15 O 0.8262(2) 0.8708(3) 0.9697(2)
O22_3 O 0.6855(2) 0.8681(3) 0.4724(2)
O25_2 O 0.7614(2) 0.5470(3) 0.3007(2)
O26_2 O 0.7614(2) 0.9530(3) 0.3007(2)
O28_2 O 0.7090(2) 0.5514(3) 0.1410(2)
O29_2 O 0.7090(2) 0.9486(3) 0.1410(2)
C7_3 C 0.7686(3) 0.8702(3) 0.7189(3)
C9_3 C 0.8092(2) 0.8102(3) 0.7971(3)
C10_3 C 0.8550(3) 0.8734(3) 0.8812(3)
C11_3 C 0.6728(3) 0.8741(3) 0.5663(3)
C12_3 C 0.7277(2) 0.8098(3) 0.6404(3)
O8_3 O 0.6457(3) 0.6141(4) 0.9311(3)
O23_3 O 0.6457(3) 0.8859(4) 0.9311(3)
O1_4 O 0.5768(2) 0.4253(3) 0.3574(3)
O2_2 O 0.6738(2) 0.3708(3) 0.4697(2)
O3_4 O 0.5035(2) 0.3704(3) 0.5688(3)
C1_4 C 0.7314(3) 0.3702(3) 0.2189(3)
C2_4 C 0.7339(3) 0.5008(3) 0.2195(3)
C3_4 C 0.6908(2) 0.3102(3) 0.2971(3)
C4_4 C 0.6450(3) 0.3734(3) 0.3812(3)
C5_4 C 0.8272(3) 0.3741(3) 0.0663(3)
C6_4 C 0.7723(2) 0.3098(3) 0.1404(3)
O15_2 O 0.6738(2) 0.1292(3) 0.4697(2)
O18_4 O 0.4965(2) 0.6296(3) 0.4312(3)
C7_4 C 0.7314(3) 0.1298(3) 0.2189(3)
C9_4 C 0.6908(2) 0.1898(3) 0.2971(3)
C10_4 C 0.6450(3) 0.1266(3) 0.3812(3)
C11_4 C 0.8272(3) 0.1259(3) 0.0663(3)
C12_4 C 0.7723(2) 0.1902(3) 0.1404(3)
O5_4 O 0.8411(3) 0.2500 0.7664(3)
O6_4 O 0.6779(3) 0.2500 0.6923(3)
O7_4 O 0.8145(2) 0.3681(3) 0.9724(2)
O8_4 O 0.8543(3) 0.3859(4) 0.4311(3)
O9_4 O 0.9454(4) 0.2500 0.5824(5)
O12_4 O 0.6511(4) 0.2500 0.9141(4)
O22_4 O 0.8145(2) 0.1319(3) 0.9724(2)
O23_4 O 0.8543(3) 0.1141(4) 0.4311(3)
C8_4 C 0.7339(3) 0.9992(3) 0.2195(3)
loop_
_geom_bond_atom_site_label_1
_geom_bond_atom_site_label_2
_geom_bond_site_symmetry_1
_geom_bond_site_symmetry_2
U1 O5 1_555 1_555
Ce1 O5 1_555 1_555
U2 O1 1_555 1_555
O1 C4 1_555 1_555
O16 C4 1_555 1_555
O4 C5 1_555 1_555
O6 U1 1_555 1_555
O7 U1 1_555 1_555
O9 Ce1 1_555 1_555
C3 C1 1_555 1_555
C4 C3 1_555 1_555
C5 O7 1_555 1_555
C6 C1 1_555 1_555
O12 U1 1_555 1_555
U4 O24 1_555 1_555
Ce4 O27 1_555 1_555
U5 O4 1_555 1_555
U6 O13 1_555 1_555
U7 O19 1_555 1_555
O13 C10 1_555 1_555
O19 C11 1_555 1_555
O22 U1 1_555 1_555
O24 C8 1_555 1_555
O25 U1 1_555 1_555
O26 U1 1_555 1_555
O27 C8 1_555 1_555
O28 Ce1 1_555 1_555
O29 Ce1 1_555 1_555
C7 C8 1_555 1_555
C9 C3 1_555 1_555
C10 O17 1_555 1_555
C11 O22 1_555 1_555
C12 C6 1_555 1_555
Ce1 O6 1_555 1_555
C5 C6 1_555 1_555
C7 C9 1_555 1_555
C7 C12 1_555 1_555
C9 C10 1_555 1_555
C11 C12 1_555 1_555
O3 U2_2 1_555 1_555
O10 C2 1_555 1_555
O11 C2 1_555 1_555
U4 O10 1_555 1_555
Ce4 O11 1_555 1_555
O20 U2_4 1_555 1_555
O21 U2_5 1_555 1_555
O18 U2_7 1_555 1_555
O14 U2_8 1_555 1_555
O25 C2_2 1_555 1_555
O28 C2_2 1_555 1_555
O14_2 U5 1_555 1_555
O18_2 U5 1_555 1_555
U4 O5_2 1_555 1_555
Ce4 O5_2 1_555 1_555
O6_2 U4 1_555 1_555
O7_2 U4 1_555 1_555
O8_2 Ce4 1_555 1_555
O9_2 Ce4 1_555 1_555
O12_2 U4 1_555 1_555
O16_2 Ce4 1_555 1_555
O17_2 Ce4 1_555 1_555
O22_2 U4 1_555 1_555
O23_2 Ce4 1_555 1_555
Ce4 O6_2 1_555 1_555
U5_2 O1_2 1_555 1_555
O1_2 C4_2 1_555 1_555
O16_2 C4_2 1_555 1_555
O3_2 U5_2 1_555 1_555
O20 C5_2 1_555 1_555
C3_2 C1_2 1_555 1_555
C4_2 C3_2 1_555 1_555
C6_2 C1_2 1_555 1_555
U7 O13_2 1_555 1_555
U6_2 O19_2 1_555 1_555
O13_2 C10_2 1_555 1_555
O19_2 C11_2 1_555 1_555
O21_2 U5_2 1_555 1_555
O26 C8_2 1_555 1_555
O29 C8_2 1_555 1_555
C7_2 C8_2 1_555 1_555
C9_2 C3_2 1_555 1_555
C10_2 O17_2 1_555 1_555
C12_2 C6_2 1_555 1_555
C5_2 C6_2 1_555 1_555
C7_2 C9_2 1_555 1_555
C7_2 C12_2 1_555 1_555
C9_2 C10_2 1_555 1_555
C11_2 C12_2 1_555 1_555
O18_3 U6_2 1_555 1_555
U4_2 O24_2 1_555 1_555
Ce4_2 O27_2 1_555 1_555
O24_2 C8_3 1_555 1_555
O27_2 C8_3 1_555 1_555
O3_3 U6_3 1_555 1_555
O20_2 U6_3 1_555 1_555
U1_2 O5_3 1_555 1_555
Ce2 O5_3 1_555 1_555
U6_4 O1_3 1_555 1_555
O1_3 C4_3 1_555 1_555
O2 C4_3 1_555 1_555
O4_2 C5_3 1_555 1_555
O6_3 U1_2 1_555 1_555
O7_3 U1_2 1_555 1_555
O9_3 Ce2 1_555 1_555
O10_2 C2_3 1_555 1_555
O11_2 C2_3 1_555 1_555
C1_3 C2_3 1_555 1_555
C3_3 C1_3 1_555 1_555
C4_3 C3_3 1_555 1_555
C5_3 O7_3 1_555 1_555
C6_3 C1_3 1_555 1_555
O12_3 U1_2 1_555 1_555
U4_2 O10_2 1_555 1_555
Ce4_2 O11_2 1_555 1_555
U7 O4_2 1_555 1_555
O14 C10_3 1_555 1_555
O21_2 C11_3 1_555 1_555
O22_3 U1_2 1_555 1_555
O25_2 U1_2 1_555 1_555
O26_2 U1_2 1_555 1_555
O28_2 Ce2 1_555 1_555
O29_2 Ce2 1_555 1_555
C9_3 C3_3 1_555 1_555
C10_3 O15 1_555 1_555
C11_3 O22_3 1_555 1_555
C12_3 C6_3 1_555 1_555
Ce2 O6_3 1_555 1_555
C5_3 C6_3 1_555 1_555
C7_3 C9_3 1_555 1_555
C7_3 C12_3 1_555 1_555
C9_3 C10_3 1_555 1_555
C11_3 C12_3 1_555 1_555
U7 O1_4 1_555 1_555
O1_4 C4_4 1_555 1_555
O2_2 C4_4 1_555 1_555
O3_4 U7 1_555 1_555
O20_2 C5_4 1_555 1_555
O25_2 C2_4 1_555 1_555
O28_2 C2_4 1_555 1_555
C1_4 C2_4 1_555 1_555
C3_4 C1_4 1_555 1_555
C4_4 C3_4 1_555 1_555
C6_4 C1_4 1_555 1_555
Ce4_2 O2_2 1_555 1_555
O14_2 C10_4 1_555 1_555
O15_2 Ce4_2 1_555 1_555
O18_4 U7 1_555 1_555
O21 C11_4 1_555 1_555
C9_4 C3_4 1_555 1_555
C10_4 O15_2 1_555 1_555
C12_4 C6_4 1_555 1_555
C5_4 C6_4 1_555 1_555
C7_4 C9_4 1_555 1_555
C7_4 C12_4 1_555 1_555
C9_4 C10_4 1_555 1_555
C11_4 C12_4 1_555 1_555
U4_2 O5_4 1_555 1_555
Ce4_2 O5_4 1_555 1_555
O6_4 U4_2 1_555 1_555
O7_4 U4_2 1_555 1_555
O8_4 Ce4_2 1_555 1_555
O9_4 Ce4_2 1_555 1_555
O12_4 U4_2 1_555 1_555
O22_4 U4_2 1_555 1_555
O23_4 Ce4_2 1_555 1_555
Ce4_2 O6_4 1_555 1_555
O26_2 C8_4 1_555 1_555
O29_2 C8_4 1_555 1_555

#END
