
###############################################################################
#
# This file contains modified crystal structure data generated from the
# MOF subset of the Cambridge Structural Database (CSD) v543 
# hosted by the Cambridge Crystallographic Data Centre (CCDC).
#
# This work is licensed under the Creative Commons
# Attribution-NonCommercial-ShareAlike 4.0 International License.
# To view a copy of this license, visit
# http://creativecommons.org/licenses/by-nc-sa/4.0/
# or send a letter to
# Creative Commons, PO Box 1866, Mountain View, CA 94042, USA.
#
# CIF created using the CSD Python API on 29 September 2022
# The structure has been converted into the P1 space group
# The structure has a 3D framework
# The original CSD entry HAPZUW is in the monoclinic crystal system
# The framework has been calculated to contain at least 10.0% void space
# The void calculation uses a probe of radius 1.32A, grid spacing 0.4
# The framework is charged, counterions have been retained in the structure
#
###############################################################################

data_HAPZUW
_chemical_formula_moiety         '(C96 H64 N8 O24 Pb6)n'
_symmetry_cell_setting           triclinic
_symmetry_space_group_name_H-M   'P 1'
_symmetry_Int_Tables_number      1
_space_group_name_Hall           'P 1'
loop_
_symmetry_equiv_pos_site_id
_symmetry_equiv_pos_as_xyz
1 x,y,z
_cell_length_a                   19.1289(13)
_cell_length_b                   21.8101(15)
_cell_length_c                   7.6470(3)
_cell_angle_alpha                90
_cell_angle_beta                 97.172(6)
_cell_angle_gamma                90
_cell_volume                     3165.39
loop_
_atom_site_label
_atom_site_type_symbol
_atom_site_fract_x
_atom_site_fract_y
_atom_site_fract_z
Pb1 Pb -0.000000 0.45442(2) 0.250000
O1 O 0.07512(17) 0.36720(14) 0.3163(3)
O2 O 0.15453(19) 0.44168(15) 0.3078(4)
O3 O 0.47195(16) 0.06359(13) 0.0531(3)
N1 N 0.43054(19) 0.10776(15) 0.1016(4)
C1 C 0.1377(3) 0.3854(2) 0.3104(5)
C2 C 0.1931(2) 0.3373(2) 0.2975(5)
C3 C 0.1740(2) 0.2759(2) 0.2936(5)
H1 H 0.127453 0.264278 0.310587
C4 C 0.2230(2) 0.2317(2) 0.2649(5)
H2 H 0.209409 0.189749 0.261546
C5 C 0.2915(2) 0.2468(2) 0.2410(5)
C6 C 0.3101(3) 0.3084(2) 0.2541(6)
H3 H 0.357462 0.319779 0.244817
C7 C 0.2620(3) 0.3534(2) 0.2802(6)
H4 H 0.275859 0.395243 0.286222
C8 C 0.3420(2) 0.19869(19) 0.1997(5)
C9 C 0.3299(2) 0.1369(2) 0.2301(6)
H5 H 0.290518 0.125288 0.286772
C10 C 0.3737(2) 0.0928(2) 0.1798(6)
H6 H 0.363952 0.050836 0.200243
C11 C 0.4461(2) 0.16731(19) 0.0762(5)
H7 H 0.487398 0.177816 0.025685
C12 C 0.4020(2) 0.2129(2) 0.1235(5)
H8 H 0.412995 0.254548 0.103481
O8 O 0.02805(16) 0.56359(13) 0.4469(3)
Pb5 Pb 0.500000 0.04558(2) 0.750000
O9 O 0.02805(16) 0.43641(13) 0.9469(3)
Pb3 Pb 0.500000 0.95442(2) 0.250000
Pb1_2 Pb 1.000000 0.45442(2) 0.250000
O4 O 0.92488(17) 0.36720(14) 0.1837(3)
O5 O 0.84547(19) 0.44168(15) 0.1922(4)
O6 O 0.52805(16) 0.06359(13) 0.4469(3)
N2 N 0.56946(19) 0.10776(15) 0.3984(4)
C13 C 0.8623(3) 0.3854(2) 0.1896(5)
C14 C 0.8069(2) 0.3373(2) 0.2025(5)
C15 C 0.8260(2) 0.2759(2) 0.2064(5)
H9 H 0.872547 0.264278 0.189413
C16 C 0.7770(2) 0.2317(2) 0.2351(5)
H10 H 0.790591 0.189749 0.238454
C17 C 0.7085(2) 0.2468(2) 0.2590(5)
C18 C 0.6899(3) 0.3084(2) 0.2459(6)
H11 H 0.642538 0.319779 0.255183
C19 C 0.7380(3) 0.3534(2) 0.2198(6)
H12 H 0.724141 0.395243 0.213778
C20 C 0.6580(2) 0.19869(19) 0.3003(5)
C21 C 0.6701(2) 0.1369(2) 0.2699(6)
H13 H 0.709482 0.125288 0.213228
C22 C 0.6263(2) 0.0928(2) 0.3202(6)
H14 H 0.636048 0.050836 0.299757
C23 C 0.5539(2) 0.16731(19) 0.4238(5)
H15 H 0.512602 0.177816 0.474315
C24 C 0.5980(2) 0.2129(2) 0.3765(5)
H16 H 0.587005 0.254548 0.396519
O7 O 0.97195(16) 0.56359(13) 0.0531(3)
O10 O 0.97195(16) 0.43641(13) 0.5531(3)
Pb5_2 Pb 0.000000 0.54558(2) 0.750000
O1_2 O 0.57512(17) 0.86720(14) 0.3163(3)
O2_2 O 0.65453(19) 0.94168(15) 0.3078(4)
N1_2 N 0.93054(19) 0.60776(15) 0.1016(4)
C1_2 C 0.6377(3) 0.8854(2) 0.3104(5)
C2_2 C 0.6931(2) 0.8373(2) 0.2975(5)
C3_2 C 0.6740(2) 0.7759(2) 0.2936(5)
H1_2 H 0.627453 0.764278 0.310587
C4_2 C 0.7230(2) 0.7317(2) 0.2649(5)
H2_2 H 0.709409 0.689749 0.261546
C5_2 C 0.7915(2) 0.7468(2) 0.2410(5)
C6_2 C 0.8101(3) 0.8084(2) 0.2541(6)
H3_2 H 0.857462 0.819779 0.244817
C7_2 C 0.7620(3) 0.8534(2) 0.2802(6)
H4_2 H 0.775859 0.895243 0.286222
C8_2 C 0.8420(2) 0.69869(19) 0.1997(5)
C9_2 C 0.8299(2) 0.6369(2) 0.2301(6)
H5_2 H 0.790518 0.625288 0.286772
C10_2 C 0.8737(2) 0.5928(2) 0.1798(6)
H6_2 H 0.863952 0.550836 0.200243
C11_2 C 0.9461(2) 0.66731(19) 0.0762(5)
H7_2 H 0.987398 0.677816 0.025685
C12_2 C 0.9020(2) 0.7129(2) 0.1235(5)
H8_2 H 0.912995 0.754548 0.103481
O4_2 O 0.42488(17) 0.86720(14) 0.1837(3)
O5_2 O 0.34547(19) 0.94168(15) 0.1922(4)
N2_2 N 0.06946(19) 0.60776(15) 0.3984(4)
C13_2 C 0.3623(3) 0.8854(2) 0.1896(5)
C14_2 C 0.3069(2) 0.8373(2) 0.2025(5)
C15_2 C 0.3260(2) 0.7759(2) 0.2064(5)
H9_2 H 0.372547 0.764278 0.189413
C16_2 C 0.2770(2) 0.7317(2) 0.2351(5)
H10_2 H 0.290591 0.689749 0.238454
C17_2 C 0.2085(2) 0.7468(2) 0.2590(5)
C18_2 C 0.1899(3) 0.8084(2) 0.2459(6)
H11_2 H 0.142538 0.819779 0.255183
C19_2 C 0.2380(3) 0.8534(2) 0.2198(6)
H12_2 H 0.224141 0.895243 0.213778
C20_2 C 0.1580(2) 0.69869(19) 0.3003(5)
C21_2 C 0.1701(2) 0.6369(2) 0.2699(6)
H13_2 H 0.209482 0.625288 0.213228
C22_2 C 0.1263(2) 0.5928(2) 0.3202(6)
H14_2 H 0.136048 0.550836 0.299757
C23_2 C 0.0539(2) 0.66731(19) 0.4238(5)
H15_2 H 0.012602 0.677816 0.474315
C24_2 C 0.0980(2) 0.7129(2) 0.3765(5)
H16_2 H 0.087005 0.754548 0.396519
O10_2 O 0.47195(16) 0.93641(13) 0.5531(3)
Pb5_3 Pb 1.000000 0.54558(2) 0.750000
O9_2 O 0.52805(16) 0.93641(13) 0.9469(3)
O4_3 O 0.07512(17) 0.63280(14) 0.8163(3)
O5_3 O 0.15453(19) 0.55832(15) 0.8078(4)
N2_3 N 0.43054(19) 0.89224(15) 0.6016(4)
C13_3 C 0.1377(3) 0.6146(2) 0.8104(5)
C14_3 C 0.1931(2) 0.6627(2) 0.7975(5)
C15_3 C 0.1740(2) 0.7241(2) 0.7936(5)
H9_3 H 0.127453 0.735722 0.810587
C16_3 C 0.2230(2) 0.7683(2) 0.7649(5)
H10_3 H 0.209409 0.810251 0.761546
C17_3 C 0.2915(2) 0.7532(2) 0.7410(5)
C18_3 C 0.3101(3) 0.6916(2) 0.7541(6)
H11_3 H 0.357462 0.680221 0.744817
C19_3 C 0.2620(3) 0.6466(2) 0.7802(6)
H12_3 H 0.275859 0.604757 0.786222
C20_3 C 0.3420(2) 0.80131(19) 0.6997(5)
C21_3 C 0.3299(2) 0.8631(2) 0.7301(6)
H13_3 H 0.290518 0.874712 0.786772
C22_3 C 0.3737(2) 0.9072(2) 0.6798(6)
H14_3 H 0.363952 0.949164 0.700243
C23_3 C 0.4461(2) 0.83269(19) 0.5762(5)
H15_3 H 0.487398 0.822184 0.525685
C24_3 C 0.4020(2) 0.7871(2) 0.6235(5)
H16_3 H 0.412995 0.745452 0.603481
O1_3 O 0.92488(17) 0.63280(14) 0.6837(3)
O2_3 O 0.84547(19) 0.55832(15) 0.6922(4)
N1_3 N 0.56946(19) 0.89224(15) 0.8984(4)
C1_3 C 0.8623(3) 0.6146(2) 0.6896(5)
C2_3 C 0.8069(2) 0.6627(2) 0.7025(5)
C3_3 C 0.8260(2) 0.7241(2) 0.7064(5)
H1_3 H 0.872547 0.735722 0.689413
C4_3 C 0.7770(2) 0.7683(2) 0.7351(5)
H2_3 H 0.790591 0.810251 0.738454
C5_3 C 0.7085(2) 0.7532(2) 0.7590(5)
C6_3 C 0.6899(3) 0.6916(2) 0.7459(6)
H3_3 H 0.642538 0.680221 0.755183
C7_3 C 0.7380(3) 0.6466(2) 0.7198(6)
H4_3 H 0.724141 0.604757 0.713778
C8_3 C 0.6580(2) 0.80131(19) 0.8003(5)
C9_3 C 0.6701(2) 0.8631(2) 0.7699(6)
H5_3 H 0.709482 0.874712 0.713228
C10_3 C 0.6263(2) 0.9072(2) 0.8202(6)
H6_3 H 0.636048 0.949164 0.799757
C11_3 C 0.5539(2) 0.83269(19) 0.9238(5)
H7_3 H 0.512602 0.822184 0.974315
C12_3 C 0.5980(2) 0.7871(2) 0.8765(5)
H8_3 H 0.587005 0.745452 0.896519
O1_4 O 0.42488(17) 0.13280(14) 0.6837(3)
O2_4 O 0.34547(19) 0.05832(15) 0.6922(4)
N1_4 N 0.06946(19) 0.39224(15) 0.8984(4)
C1_4 C 0.3623(3) 0.1146(2) 0.6896(5)
C2_4 C 0.3069(2) 0.1627(2) 0.7025(5)
C3_4 C 0.3260(2) 0.2241(2) 0.7064(5)
H1_4 H 0.372547 0.235722 0.689413
C4_4 C 0.2770(2) 0.2683(2) 0.7351(5)
H2_4 H 0.290591 0.310251 0.738454
C5_4 C 0.2085(2) 0.2532(2) 0.7590(5)
C6_4 C 0.1899(3) 0.1916(2) 0.7459(6)
H3_4 H 0.142538 0.180221 0.755183
C7_4 C 0.2380(3) 0.1466(2) 0.7198(6)
H4_4 H 0.224141 0.104757 0.713778
C8_4 C 0.1580(2) 0.30131(19) 0.8003(5)
C9_4 C 0.1701(2) 0.3631(2) 0.7699(6)
H5_4 H 0.209482 0.374712 0.713228
C10_4 C 0.1263(2) 0.4072(2) 0.8202(6)
H6_4 H 0.136048 0.449164 0.799757
C11_4 C 0.0539(2) 0.33269(19) 0.9238(5)
H7_4 H 0.012602 0.322184 0.974315
C12_4 C 0.0980(2) 0.2871(2) 0.8765(5)
H8_4 H 0.087005 0.245452 0.896519
O4_4 O 0.57512(17) 0.13280(14) 0.8163(3)
O5_4 O 0.65453(19) 0.05832(15) 0.8078(4)
N2_4 N 0.93054(19) 0.39224(15) 0.6016(4)
C13_4 C 0.6377(3) 0.1146(2) 0.8104(5)
C14_4 C 0.6931(2) 0.1627(2) 0.7975(5)
C15_4 C 0.6740(2) 0.2241(2) 0.7936(5)
H9_4 H 0.627453 0.235722 0.810587
C16_4 C 0.7230(2) 0.2683(2) 0.7649(5)
H10_4 H 0.709409 0.310251 0.761546
C17_4 C 0.7915(2) 0.2532(2) 0.7410(5)
C18_4 C 0.8101(3) 0.1916(2) 0.7541(6)
H11_4 H 0.857462 0.180221 0.744817
C19_4 C 0.7620(3) 0.1466(2) 0.7802(6)
H12_4 H 0.775859 0.104757 0.786222
C20_4 C 0.8420(2) 0.30131(19) 0.6997(5)
C21_4 C 0.8299(2) 0.3631(2) 0.7301(6)
H13_4 H 0.790518 0.374712 0.786772
C22_4 C 0.8737(2) 0.4072(2) 0.6798(6)
H14_4 H 0.863952 0.449164 0.700243
C23_4 C 0.9461(2) 0.33269(19) 0.5762(5)
H15_4 H 0.987398 0.322184 0.525685
C24_4 C 0.9020(2) 0.2871(2) 0.6235(5)
H16_4 H 0.912995 0.245452 0.603481
loop_
_geom_bond_atom_site_label_1
_geom_bond_atom_site_label_2
_geom_bond_site_symmetry_1
_geom_bond_site_symmetry_2
Pb1 O1 1_555 1_555
O1 C1 1_555 1_555
O2 C1 1_555 1_555
O3 N1 1_555 1_555
N1 C10 1_555 1_555
C1 C2 1_555 1_555
C2 C3 1_555 1_555
C3 H1 1_555 1_555
C4 C3 1_555 1_555
H2 C4 1_555 1_555
C5 C4 1_555 1_555
C6 C5 1_555 1_555
H3 C6 1_555 1_555
C7 C2 1_555 1_555
H4 C7 1_555 1_555
C8 C5 1_555 1_555
C9 C8 1_555 1_555
H5 C9 1_555 1_555
C10 C9 1_555 1_555
H6 C10 1_555 1_555
C11 N1 1_555 1_555
H7 C11 1_555 1_555
C12 C8 1_555 1_555
H8 C12 1_555 1_555
O8 Pb1 1_555 1_555
C6 C7 1_555 1_555
C11 C12 1_555 1_555
O4 Pb1_2 1_555 1_555
O5 C13 1_555 1_555
O6 N2 1_555 1_555
N2 C22 1_555 1_555
C13 O4 1_555 1_555
C14 C13 1_555 1_555
C15 C14 1_555 1_555
H9 C15 1_555 1_555
C16 C15 1_555 1_555
H10 C16 1_555 1_555
C17 C16 1_555 1_555
C18 C17 1_555 1_555
H11 C18 1_555 1_555
C19 C14 1_555 1_555
H12 C19 1_555 1_555
C20 C17 1_555 1_555
C21 C20 1_555 1_555
H13 C21 1_555 1_555
C22 C21 1_555 1_555
H14 C22 1_555 1_555
C23 N2 1_555 1_555
H15 C23 1_555 1_555
C24 C20 1_555 1_555
H16 C24 1_555 1_555
Pb5 O6 1_555 1_555
O7 Pb1_2 1_555 1_555
O10 Pb1_2 1_555 1_555
C18 C19 1_555 1_555
C23 C24 1_555 1_555
Pb3 O1_2 1_555 1_555
O1_2 C1_2 1_555 1_555
O2_2 C1_2 1_555 1_555
O7 N1_2 1_555 1_555
N1_2 C10_2 1_555 1_555
C1_2 C2_2 1_555 1_555
C2_2 C3_2 1_555 1_555
C3_2 H1_2 1_555 1_555
C4_2 C3_2 1_555 1_555
H2_2 C4_2 1_555 1_555
C5_2 C4_2 1_555 1_555
C6_2 C5_2 1_555 1_555
H3_2 C6_2 1_555 1_555
C7_2 C2_2 1_555 1_555
H4_2 C7_2 1_555 1_555
C8_2 C5_2 1_555 1_555
C9_2 C8_2 1_555 1_555
H5_2 C9_2 1_555 1_555
C10_2 C9_2 1_555 1_555
H6_2 C10_2 1_555 1_555
C11_2 N1_2 1_555 1_555
H7_2 C11_2 1_555 1_555
C12_2 C8_2 1_555 1_555
H8_2 C12_2 1_555 1_555
O4_2 Pb3 1_555 1_555
O5_2 C13_2 1_555 1_555
O8 N2_2 1_555 1_555
N2_2 C22_2 1_555 1_555
C13_2 O4_2 1_555 1_555
C14_2 C13_2 1_555 1_555
C15_2 C14_2 1_555 1_555
H9_2 C15_2 1_555 1_555
C16_2 C15_2 1_555 1_555
H10_2 C16_2 1_555 1_555
C17_2 C16_2 1_555 1_555
C18_2 C17_2 1_555 1_555
H11_2 C18_2 1_555 1_555
C19_2 C14_2 1_555 1_555
H12_2 C19_2 1_555 1_555
C20_2 C17_2 1_555 1_555
C21_2 C20_2 1_555 1_555
H13_2 C21_2 1_555 1_555
C22_2 C21_2 1_555 1_555
H14_2 C22_2 1_555 1_555
C23_2 N2_2 1_555 1_555
H15_2 C23_2 1_555 1_555
C24_2 C20_2 1_555 1_555
H16_2 C24_2 1_555 1_555
Pb5_2 O8 1_555 1_555
O10_2 Pb3 1_555 1_555
C6_2 C7_2 1_555 1_555
C11_2 C12_2 1_555 1_555
C18_2 C19_2 1_555 1_555
C23_2 C24_2 1_555 1_555
O4_3 Pb5_2 1_555 1_555
O5_3 C13_3 1_555 1_555
O10_2 N2_3 1_555 1_555
N2_3 C22_3 1_555 1_555
C13_3 O4_3 1_555 1_555
C14_3 C13_3 1_555 1_555
C15_3 C14_3 1_555 1_555
H9_3 C15_3 1_555 1_555
C16_3 C15_3 1_555 1_555
H10_3 C16_3 1_555 1_555
C17_3 C16_3 1_555 1_555
C18_3 C17_3 1_555 1_555
H11_3 C18_3 1_555 1_555
C19_3 C14_3 1_555 1_555
H12_3 C19_3 1_555 1_555
C20_3 C17_3 1_555 1_555
C21_3 C20_3 1_555 1_555
H13_3 C21_3 1_555 1_555
C22_3 C21_3 1_555 1_555
H14_3 C22_3 1_555 1_555
C23_3 N2_3 1_555 1_555
H15_3 C23_3 1_555 1_555
C24_3 C20_3 1_555 1_555
H16_3 C24_3 1_555 1_555
O9 Pb5_2 1_555 1_555
C18_3 C19_3 1_555 1_555
C23_3 C24_3 1_555 1_555
Pb5_3 O1_3 1_555 1_555
O1_3 C1_3 1_555 1_555
O2_3 C1_3 1_555 1_555
O9_2 N1_3 1_555 1_555
N1_3 C10_3 1_555 1_555
C1_3 C2_3 1_555 1_555
C2_3 C3_3 1_555 1_555
C3_3 H1_3 1_555 1_555
C4_3 C3_3 1_555 1_555
H2_3 C4_3 1_555 1_555
C5_3 C4_3 1_555 1_555
C6_3 C5_3 1_555 1_555
H3_3 C6_3 1_555 1_555
C7_3 C2_3 1_555 1_555
H4_3 C7_3 1_555 1_555
C8_3 C5_3 1_555 1_555
C9_3 C8_3 1_555 1_555
H5_3 C9_3 1_555 1_555
C10_3 C9_3 1_555 1_555
H6_3 C10_3 1_555 1_555
C11_3 N1_3 1_555 1_555
H7_3 C11_3 1_555 1_555
C12_3 C8_3 1_555 1_555
H8_3 C12_3 1_555 1_555
O10 Pb5_3 1_555 1_555
C6_3 C7_3 1_555 1_555
C11_3 C12_3 1_555 1_555
Pb5 O1_4 1_555 1_555
O1_4 C1_4 1_555 1_555
O2_4 C1_4 1_555 1_555
O9 N1_4 1_555 1_555
N1_4 C10_4 1_555 1_555
C1_4 C2_4 1_555 1_555
C2_4 C3_4 1_555 1_555
C3_4 H1_4 1_555 1_555
C4_4 C3_4 1_555 1_555
H2_4 C4_4 1_555 1_555
C5_4 C4_4 1_555 1_555
C6_4 C5_4 1_555 1_555
H3_4 C6_4 1_555 1_555
C7_4 C2_4 1_555 1_555
H4_4 C7_4 1_555 1_555
C8_4 C5_4 1_555 1_555
C9_4 C8_4 1_555 1_555
H5_4 C9_4 1_555 1_555
C10_4 C9_4 1_555 1_555
H6_4 C10_4 1_555 1_555
C11_4 N1_4 1_555 1_555
H7_4 C11_4 1_555 1_555
C12_4 C8_4 1_555 1_555
H8_4 C12_4 1_555 1_555
O4_4 Pb5 1_555 1_555
O5_4 C13_4 1_555 1_555
O10 N2_4 1_555 1_555
N2_4 C22_4 1_555 1_555
C13_4 O4_4 1_555 1_555
C14_4 C13_4 1_555 1_555
C15_4 C14_4 1_555 1_555
H9_4 C15_4 1_555 1_555
C16_4 C15_4 1_555 1_555
H10_4 C16_4 1_555 1_555
C17_4 C16_4 1_555 1_555
C18_4 C17_4 1_555 1_555
H11_4 C18_4 1_555 1_555
C19_4 C14_4 1_555 1_555
H12_4 C19_4 1_555 1_555
C20_4 C17_4 1_555 1_555
C21_4 C20_4 1_555 1_555
H13_4 C21_4 1_555 1_555
C22_4 C21_4 1_555 1_555
H14_4 C22_4 1_555 1_555
C23_4 N2_4 1_555 1_555
H15_4 C23_4 1_555 1_555
C24_4 C20_4 1_555 1_555
H16_4 C24_4 1_555 1_555
C6_4 C7_4 1_555 1_555
C11_4 C12_4 1_555 1_555
C18_4 C19_4 1_555 1_555
C23_4 C24_4 1_555 1_555

#END
