
###############################################################################
#
# This file contains modified crystal structure data generated from the
# MOF subset of the Cambridge Structural Database (CSD) v543 
# hosted by the Cambridge Crystallographic Data Centre (CCDC).
#
# This work is licensed under the Creative Commons
# Attribution-NonCommercial-ShareAlike 4.0 International License.
# To view a copy of this license, visit
# http://creativecommons.org/licenses/by-nc-sa/4.0/
# or send a letter to
# Creative Commons, PO Box 1866, Mountain View, CA 94042, USA.
#
# CIF created using the CSD Python API on 29 September 2022
# The structure has been converted into the P1 space group
# The structure has a 3D framework
# The original CSD entry HAWGOF is in the triclinic crystal system
# The framework has been calculated to contain at least 10.0% void space
# The void calculation uses a probe of radius 1.32A, grid spacing 0.4
#
###############################################################################

data_HAWGOF
_chemical_formula_moiety         '(C28 H22 Co2 N2 O20)n'
_symmetry_cell_setting           triclinic
_symmetry_space_group_name_H-M   'P 1'
_symmetry_Int_Tables_number      1
_space_group_name_Hall           'P 1'
loop_
_symmetry_equiv_pos_site_id
_symmetry_equiv_pos_as_xyz
1 x,y,z
_cell_length_a                   8.8528(2)
_cell_length_b                   11.1412(3)
_cell_length_c                   11.3379(3)
_cell_angle_alpha                78.9610(10)
_cell_angle_beta                 83.9550(10)
_cell_angle_gamma                81.2960(10)
_cell_volume                     1081.57
loop_
_atom_site_label
_atom_site_type_symbol
_atom_site_fract_x
_atom_site_fract_y
_atom_site_fract_z
O14 O 0.0384(3) 0.0345(2) 0.1950(2)
Co2 Co 0.00921(5) 0.85920(4) 0.49119(4)
O11 O 0.1316(3) 0.9785(2) 0.5551(2)
O13 O 0.1578(3) 0.7060(2) 0.5596(2)
O15 O 0.1508(3) 0.8760(2) 0.3246(2)
Co1 Co 0.80521(5) 0.05695(4) 0.27430(4)
O1 O 0.8684(3) 0.0215(2) 0.4449(2)
H1 H 0.772144 0.015407 0.499053
O10 O 0.5683(3) 0.0698(3) 0.3402(3)
H5 H 0.549399 0.109390 0.404816
Co8 Co 0.99079(5) 0.14080(4) 0.50881(4)
O12 O 0.7946(3) 0.2462(2) 0.2651(2)
N2 N 0.7264(3) 0.1044(3) 0.0959(2)
O3 O 0.8422(3) 0.2940(2) 0.4404(2)
O5 O 0.8074(3) 0.8760(2) 0.2595(2)
O6 O 0.5225(3) 0.6365(2) 0.0493(2)
O8 O 0.8831(3) 0.7468(2) 0.4258(2)
O9 O 0.8594(3) 0.8311(3) 0.6550(2)
H2 H 0.891452 0.861892 0.711290
H3 H 0.860283 0.753043 0.684825
H4 H 0.538941 0.994057 0.371892
C2 C 0.2241(4) 0.8873(3) 0.1175(3)
C4 C 0.6153(4) 0.6106(3) 0.1448(3)
C5 C 0.8067(4) 0.5463(3) 0.3317(3)
H8 H 0.870095 0.524389 0.397173
C6 C 0.8243(4) 0.7722(3) 0.3260(3)
C7 C 0.6572(4) 0.4873(3) 0.1913(3)
H9 H 0.620780 0.425157 0.159298
C8 C 0.7668(4) 0.6700(3) 0.2814(3)
C9 C 0.6712(4) 0.7024(3) 0.1870(3)
H10 H 0.644829 0.786652 0.152062
C10 C 0.8004(4) 0.3205(3) 0.3341(3)
C11 C 0.7531(4) 0.4549(3) 0.2853(3)
C12 C 0.4153(4) 0.7406(3) 0.0408(3)
C13 C 0.1299(4) 0.9358(3) 0.2212(3)
C14 C 0.3326(4) 0.7822(3) 0.1389(3)
H11 H 0.349218 0.740509 0.218677
N1 N 0.2736(3) 0.8956(3) 0.9041(2)
C1 C 0.3838(4) 0.7992(3) 0.9248(3)
H6 H 0.442080 0.770045 0.858243
C3 C 0.1995(4) 0.9412(3) 0.9984(3)
Co5 Co 0.19479(5) 0.94305(4) 0.72570(4)
C1_2 C 0.6162(4) 0.2008(3) 0.0752(3)
H6_2 H 0.557920 0.229955 0.141757
C3_2 C 0.8005(4) 0.0588(3) 0.0016(3)
O2 O 0.2054(3) 0.7538(2) 0.7349(2)
O5_2 O 0.1926(3) 0.1240(2) 0.7405(2)
O6_2 O 0.4775(3) 0.3635(2) 0.9507(2)
O7 O 0.8492(3) 0.1240(2) 0.6754(2)
O8_2 O 0.1169(3) 0.2532(2) 0.5742(2)
O9_2 O 0.1406(3) 0.1689(3) 0.3450(2)
H2_2 H 0.108548 0.138108 0.288710
H3_2 H 0.139717 0.246957 0.315175
H4_2 H 0.461059 0.005943 0.628108
C2_2 C 0.7759(4) 0.1127(3) 0.8825(3)
C4_2 C 0.3847(4) 0.3894(3) 0.8552(3)
C5_2 C 0.1933(4) 0.4537(3) 0.6683(3)
H8_2 H 0.129905 0.475611 0.602827
C6_2 C 0.1757(4) 0.2278(3) 0.6740(3)
C7_2 C 0.3428(4) 0.5127(3) 0.8087(3)
H9_2 H 0.379220 0.574843 0.840702
C8_2 C 0.2332(4) 0.3300(3) 0.7186(3)
C9_2 C 0.3288(4) 0.2976(3) 0.8130(3)
H10_2 H 0.355171 0.213348 0.847938
C10_2 C 0.1996(4) 0.6795(3) 0.6659(3)
C11_2 C 0.2469(4) 0.5451(3) 0.7147(3)
C12_2 C 0.5847(4) 0.2594(3) 0.9592(3)
C13_2 C 0.8701(4) 0.0642(3) 0.7788(3)
C14_2 C 0.6674(4) 0.2178(3) 0.8611(3)
H11_2 H 0.650782 0.259491 0.781323
H1_2 H 0.227856 0.984593 0.500947
O4 O 0.9616(3) 0.9655(2) 0.8050(2)
O10_2 O 0.4317(3) 0.9302(3) 0.6598(3)
H5_2 H 0.450601 0.890610 0.595184
H7 H 0.127076 0.013449 0.983496
H7_2 H 0.872924 0.986551 0.016504
loop_
_geom_bond_atom_site_label_1
_geom_bond_atom_site_label_2
_geom_bond_site_symmetry_1
_geom_bond_site_symmetry_2
O11 Co2 1_555 1_555
O13 Co2 1_555 1_555
O15 Co2 1_555 1_555
Co1 O1 1_555 1_555
O1 H1 1_555 1_555
O10 Co1 1_555 1_555
H5 O10 1_555 1_555
Co8 O1 1_555 1_555
O12 Co1 1_555 1_555
N2 Co1 1_555 1_555
O12 C10 1_555 1_555
O3 C10 1_555 1_555
O6 C4 1_555 1_555
O15 C13 1_555 1_555
H2 O9 1_555 1_555
H3 O9 1_555 1_555
C4 C7 1_555 1_555
C5 H8 1_555 1_555
C6 O5 1_555 1_555
C7 H9 1_555 1_555
C8 C5 1_555 1_555
C9 C4 1_555 1_555
H10 C9 1_555 1_555
C10 C11 1_555 1_555
C11 C5 1_555 1_555
C12 O6 1_555 1_555
C13 C2 1_555 1_555
C14 C2 1_555 1_555
H11 C14 1_555 1_555
Co8 O3 1_555 1_555
O8 C6 1_555 1_555
C6 C8 1_555 1_555
C7 C11 1_555 1_555
C8 C9 1_555 1_555
C12 C14 1_555 1_555
N1 C1 1_555 1_555
C1 H6 1_555 1_555
C3 N1 1_555 1_555
Co5 N1 1_555 1_555
N2 C1_2 1_555 1_555
C1_2 H6_2 1_555 1_555
C3_2 N2 1_555 1_555
O2 C10_2 1_555 1_555
O13 C10_2 1_555 1_555
O6_2 C4_2 1_555 1_555
O7 C13_2 1_555 1_555
H2_2 O9_2 1_555 1_555
H3_2 O9_2 1_555 1_555
C4_2 C7_2 1_555 1_555
C5_2 H8_2 1_555 1_555
C6_2 O5_2 1_555 1_555
C7_2 H9_2 1_555 1_555
C8_2 C5_2 1_555 1_555
C9_2 C4_2 1_555 1_555
H10_2 C9_2 1_555 1_555
C10_2 C11_2 1_555 1_555
C11_2 C5_2 1_555 1_555
C12_2 O6_2 1_555 1_555
C13_2 C2_2 1_555 1_555
C14_2 C2_2 1_555 1_555
H11_2 C14_2 1_555 1_555
Co5 O2 1_555 1_555
Co8 O7 1_555 1_555
O8_2 C6_2 1_555 1_555
C6_2 C8_2 1_555 1_555
C7_2 C11_2 1_555 1_555
C8_2 C9_2 1_555 1_555
C12_2 C14_2 1_555 1_555
Co5 O11 1_555 1_555
O11 H1_2 1_555 1_555
O10_2 Co5 1_555 1_555
H5_2 O10_2 1_555 1_555

#END
