
###############################################################################
#
# This file contains modified crystal structure data generated from the
# MOF subset of the Cambridge Structural Database (CSD) v543 
# hosted by the Cambridge Crystallographic Data Centre (CCDC).
#
# This work is licensed under the Creative Commons
# Attribution-NonCommercial-ShareAlike 4.0 International License.
# To view a copy of this license, visit
# http://creativecommons.org/licenses/by-nc-sa/4.0/
# or send a letter to
# Creative Commons, PO Box 1866, Mountain View, CA 94042, USA.
#
# CIF created using the CSD Python API on 29 September 2022
# The structure has been converted into the P1 space group
# The structure has a 3D framework
# The original CSD entry HAWZEM01 is in the monoclinic crystal system
# The framework has been calculated to contain at least 10.0% void space
# The void calculation uses a probe of radius 1.32A, grid spacing 0.4
#
###############################################################################

data_HAWZEM01
_chemical_formula_moiety         '(C48 H32 Cu2 N8 O16)n'
_symmetry_cell_setting           triclinic
_symmetry_space_group_name_H-M   'P 1'
_symmetry_Int_Tables_number      1
_space_group_name_Hall           'P 1'
loop_
_symmetry_equiv_pos_site_id
_symmetry_equiv_pos_as_xyz
1 x,y,z
_cell_length_a                   11.579(2)
_cell_length_b                   12.292(3)
_cell_length_c                   12.318(3)
_cell_angle_alpha                90
_cell_angle_beta                 117.872(2)
_cell_angle_gamma                90
_cell_volume                     1549.83
loop_
_atom_site_label
_atom_site_type_symbol
_atom_site_fract_x
_atom_site_fract_y
_atom_site_fract_z
Cu3 Cu 0.70961(2) 0.03675(2) 0.03629(2)
Cu1 Cu 0.29039(2) 0.53675(2) 0.46371(2)
N1 N 0.36172(17) 0.66716(14) 0.57228(17)
C1 C 0.4743(2) 0.7177(2) 0.6010(2)
H1 H 0.523411 0.696327 0.560663
C2 C 0.5223(2) 0.8002(2) 0.6873(2)
H2 H 0.603992 0.832971 0.706948
C3 C 0.4514(2) 0.83469(17) 0.7449(2)
C4 C 0.3333(2) 0.7835(2) 0.7132(3)
H3 H 0.280437 0.805647 0.749390
C5 C 0.2935(2) 0.7001(2) 0.6288(3)
H4 H 0.213554 0.664248 0.609703
C6 C 0.4990(2) 0.92116(17) 0.84343(19)
O1 O 0.62045(14) 0.94228(12) 0.89125(14)
O2 O 0.41900(15) 0.96284(12) 0.87130(15)
N2 N 0.19388(17) 0.40472(14) 0.37194(17)
C7 C 0.1079(2) 0.35915(17) 0.4028(2)
H5 H 0.101900 0.386055 0.472293
C8 C 0.0275(2) 0.27373(18) 0.3360(2)
C9 C 0.0372(2) 0.23199(16) 0.2356(2)
C10 C 0.1297(2) 0.2773(2) 0.2076(2)
H7 H 0.141529 0.249053 0.141723
C11 C 0.2046(2) 0.36379(19) 0.2762(2)
H8 H 0.265946 0.395391 0.254620
Cu4 Cu 0.29039(2) 0.96325(2) 0.96371(2)
O5 O 0.37955(14) 0.44228(12) 0.60875(14)
O6 O 0.41900(15) 0.53716(12) 0.37130(15)
O7 O 0.15712(14) 0.62999(12) 0.33338(14)
H6 H 0.966146 0.243992 0.358673
C12 C 0.9440(2) 0.14642(17) 0.1527(2)
O3 O 0.84288(14) 0.12999(12) 0.16662(14)
O4 O 0.96842(16) 0.10130(13) 0.07592(15)
H6_2 H 0.033854 0.743992 0.141327
C12_2 C 0.0560(2) 0.64642(17) 0.3473(2)
O4_2 O 0.03158(16) 0.60130(13) 0.42408(15)
O6_2 O 0.58100(15) 0.03716(12) 0.12870(15)
N1_2 N 0.63828(17) 0.16716(14) 0.92772(17)
C1_2 C 0.5257(2) 0.2177(2) 0.8990(2)
H1_2 H 0.476589 0.196327 0.939337
C2_2 C 0.4777(2) 0.3002(2) 0.8127(2)
H2_2 H 0.396008 0.332971 0.793052
C3_2 C 0.5486(2) 0.33469(17) 0.7551(2)
C4_2 C 0.6667(2) 0.2835(2) 0.7868(3)
H3_2 H 0.719563 0.305647 0.750610
C5_2 C 0.7065(2) 0.2001(2) 0.8712(3)
H4_2 H 0.786446 0.164248 0.890297
C6_2 C 0.5010(2) 0.42116(17) 0.65657(19)
O2_2 O 0.58100(15) 0.46284(12) 0.62870(15)
Cu4_2 Cu 0.70961(2) 0.46325(2) 0.53629(2)
H6_3 H 0.033854 0.756008 0.641327
C12_3 C 0.0560(2) 0.85358(17) 0.8473(2)
O3_2 O 0.15712(14) 0.87001(12) 0.83338(14)
O4_3 O 0.03158(16) 0.89870(13) 0.92408(15)
N1_3 N 0.63828(17) 0.33284(14) 0.42772(17)
C1_3 C 0.5257(2) 0.2823(2) 0.3990(2)
H1_3 H 0.476589 0.303673 0.439337
C2_3 C 0.4777(2) 0.1998(2) 0.3127(2)
H2_3 H 0.396008 0.167029 0.293052
C3_3 C 0.5486(2) 0.16531(17) 0.2551(2)
C4_3 C 0.6667(2) 0.2165(2) 0.2868(3)
H3_3 H 0.719563 0.194353 0.250610
C5_3 C 0.7065(2) 0.2999(2) 0.3712(3)
H4_3 H 0.786446 0.335752 0.390297
C6_3 C 0.5010(2) 0.07884(17) 0.15657(19)
O1_2 O 0.37955(14) 0.05772(12) 0.10875(14)
N2_2 N 0.80612(17) 0.59528(14) 0.62806(17)
C7_2 C 0.8921(2) 0.64085(17) 0.5972(2)
H5_2 H 0.898100 0.613945 0.527707
C8_2 C 0.9725(2) 0.72627(18) 0.6640(2)
C9_2 C 0.9628(2) 0.76801(16) 0.7644(2)
C10_2 C 0.8703(2) 0.7227(2) 0.7924(2)
H7_2 H 0.858471 0.750947 0.858277
C11_2 C 0.7954(2) 0.63621(19) 0.7238(2)
H8_2 H 0.734054 0.604609 0.745380
O5_2 O 0.62045(14) 0.55772(12) 0.39125(14)
O7_2 O 0.84288(14) 0.37001(12) 0.66662(14)
N1_4 N 0.36172(17) 0.83284(14) 0.07228(17)
C1_4 C 0.4743(2) 0.7823(2) 0.1010(2)
H1_4 H 0.523411 0.803673 0.060663
C2_4 C 0.5223(2) 0.6998(2) 0.1873(2)
H2_4 H 0.603992 0.667029 0.206948
C3_4 C 0.4514(2) 0.66531(17) 0.2449(2)
C4_4 C 0.3333(2) 0.7165(2) 0.2132(3)
H3_4 H 0.280437 0.694353 0.249390
C5_4 C 0.2935(2) 0.7999(2) 0.1288(3)
H4_4 H 0.213554 0.835752 0.109703
C6_4 C 0.4990(2) 0.57884(17) 0.34343(19)
H6_4 H 0.966146 0.256008 0.858673
C12_4 C 0.9440(2) 0.35358(17) 0.6527(2)
O4_4 O 0.96842(16) 0.39870(13) 0.57592(15)
N2_3 N 0.80612(17) 0.90472(14) 0.12806(17)
C7_3 C 0.8921(2) 0.85915(17) 0.0972(2)
H5_3 H 0.898100 0.886055 0.027707
C8_3 C 0.9725(2) 0.77373(18) 0.1640(2)
C9_3 C 0.9628(2) 0.73199(16) 0.2644(2)
C10_3 C 0.8703(2) 0.7773(2) 0.2924(2)
H7_3 H 0.858471 0.749053 0.358277
C11_3 C 0.7954(2) 0.86379(19) 0.2238(2)
H8_3 H 0.734054 0.895391 0.245380
N2_4 N 0.19388(17) 0.09528(14) 0.87194(17)
C7_4 C 0.1079(2) 0.14085(17) 0.9028(2)
H5_4 H 0.101900 0.113945 0.972293
C8_4 C 0.0275(2) 0.22627(18) 0.8360(2)
C9_4 C 0.0372(2) 0.26801(16) 0.7356(2)
C10_4 C 0.1297(2) 0.2227(2) 0.7076(2)
H7_4 H 0.141529 0.250947 0.641723
C11_4 C 0.2046(2) 0.13621(19) 0.7762(2)
H8_4 H 0.265946 0.104609 0.754620
loop_
_geom_bond_atom_site_label_1
_geom_bond_atom_site_label_2
_geom_bond_site_symmetry_1
_geom_bond_site_symmetry_2
Cu1 N1 1_555 1_555
N1 C1 1_555 1_555
C1 H1 1_555 1_555
C2 C1 1_555 1_555
H2 C2 1_555 1_555
C3 C2 1_555 1_555
C4 C3 1_555 1_555
H3 C4 1_555 1_555
C5 N1 1_555 1_555
H4 C5 1_555 1_555
C6 C3 1_555 1_555
O1 C6 1_555 1_555
O2 C6 1_555 1_555
N2 Cu1 1_555 1_555
C7 N2 1_555 1_555
H5 C7 1_555 1_555
C8 C7 1_555 1_555
C9 C8 1_555 1_555
C10 C9 1_555 1_555
H7 C10 1_555 1_555
C11 N2 1_555 1_555
H8 C11 1_555 1_555
Cu4 O2 1_555 1_555
O5 Cu1 1_555 1_555
O6 Cu1 1_555 1_555
O7 Cu1 1_555 1_555
C4 C5 1_555 1_555
C10 C11 1_555 1_555
O3 C12 1_555 1_555
O4 C12 1_555 1_555
Cu3 O3 1_555 1_555
O7 C12_2 1_555 1_555
O4_2 C12_2 1_555 1_555
O6_2 Cu3 1_555 1_555
N1_2 C1_2 1_555 1_555
C1_2 H1_2 1_555 1_555
C2_2 C1_2 1_555 1_555
H2_2 C2_2 1_555 1_555
C3_2 C2_2 1_555 1_555
C4_2 C3_2 1_555 1_555
H3_2 C4_2 1_555 1_555
C5_2 N1_2 1_555 1_555
H4_2 C5_2 1_555 1_555
C6_2 C3_2 1_555 1_555
O5 C6_2 1_555 1_555
O2_2 C6_2 1_555 1_555
Cu4_2 O2_2 1_555 1_555
C4_2 C5_2 1_555 1_555
O3_2 C12_3 1_555 1_555
O4_3 C12_3 1_555 1_555
Cu4 O3_2 1_555 1_555
Cu4_2 N1_3 1_555 1_555
N1_3 C1_3 1_555 1_555
C1_3 H1_3 1_555 1_555
C2_3 C1_3 1_555 1_555
H2_3 C2_3 1_555 1_555
C3_3 C2_3 1_555 1_555
C4_3 C3_3 1_555 1_555
H3_3 C4_3 1_555 1_555
C5_3 N1_3 1_555 1_555
H4_3 C5_3 1_555 1_555
C6_3 C3_3 1_555 1_555
O1_2 C6_3 1_555 1_555
O6_2 C6_3 1_555 1_555
N2_2 Cu4_2 1_555 1_555
C7_2 N2_2 1_555 1_555
H5_2 C7_2 1_555 1_555
C8_2 C7_2 1_555 1_555
C9_2 C8_2 1_555 1_555
C10_2 C9_2 1_555 1_555
H7_2 C10_2 1_555 1_555
C11_2 N2_2 1_555 1_555
H8_2 C11_2 1_555 1_555
O5_2 Cu4_2 1_555 1_555
O7_2 Cu4_2 1_555 1_555
C4_3 C5_3 1_555 1_555
C10_2 C11_2 1_555 1_555
N1_4 C1_4 1_555 1_555
C1_4 H1_4 1_555 1_555
C2_4 C1_4 1_555 1_555
H2_4 C2_4 1_555 1_555
C3_4 C2_4 1_555 1_555
C4_4 C3_4 1_555 1_555
H3_4 C4_4 1_555 1_555
C5_4 N1_4 1_555 1_555
H4_4 C5_4 1_555 1_555
C6_4 C3_4 1_555 1_555
O5_2 C6_4 1_555 1_555
O6 C6_4 1_555 1_555
C4_4 C5_4 1_555 1_555
O7_2 C12_4 1_555 1_555
O4_4 C12_4 1_555 1_555
C7_3 N2_3 1_555 1_555
H5_3 C7_3 1_555 1_555
C8_3 C7_3 1_555 1_555
C9_3 C8_3 1_555 1_555
C10_3 C9_3 1_555 1_555
H7_3 C10_3 1_555 1_555
C11_3 N2_3 1_555 1_555
H8_3 C11_3 1_555 1_555
C10_3 C11_3 1_555 1_555
C7_4 N2_4 1_555 1_555
H5_4 C7_4 1_555 1_555
C8_4 C7_4 1_555 1_555
C9_4 C8_4 1_555 1_555
C10_4 C9_4 1_555 1_555
H7_4 C10_4 1_555 1_555
C11_4 N2_4 1_555 1_555
H8_4 C11_4 1_555 1_555
C10_4 C11_4 1_555 1_555

#END
