
###############################################################################
#
# This file contains modified crystal structure data generated from the
# MOF subset of the Cambridge Structural Database (CSD) v543 
# hosted by the Cambridge Crystallographic Data Centre (CCDC).
#
# This work is licensed under the Creative Commons
# Attribution-NonCommercial-ShareAlike 4.0 International License.
# To view a copy of this license, visit
# http://creativecommons.org/licenses/by-nc-sa/4.0/
# or send a letter to
# Creative Commons, PO Box 1866, Mountain View, CA 94042, USA.
#
# CIF created using the CSD Python API on 29 September 2022
# The structure has been converted into the P1 space group
# The structure has a 3D framework
# The original CSD entry HAYFIA is in the monoclinic crystal system
# The framework has been calculated to contain at least 10.0% void space
# The void calculation uses a probe of radius 1.32A, grid spacing 0.4
#
###############################################################################

data_HAYFIA
_chemical_formula_moiety         '(C144 H88 Co8 N16 O32)n'
_symmetry_cell_setting           triclinic
_symmetry_space_group_name_H-M   'P 1'
_symmetry_Int_Tables_number      1
_space_group_name_Hall           'P 1'
loop_
_symmetry_equiv_pos_site_id
_symmetry_equiv_pos_as_xyz
1 x,y,z
_cell_length_a                   19.538(10)
_cell_length_b                   11.358(6)
_cell_length_c                   17.872(9)
_cell_angle_alpha                90
_cell_angle_beta                 91.658(8)
_cell_angle_gamma                90
_cell_volume                     3964.36
loop_
_atom_site_label
_atom_site_type_symbol
_atom_site_fract_x
_atom_site_fract_y
_atom_site_fract_z
N1 N 0.69146(11) 0.09727(16) 0.35832(11)
C12 C 0.64107(15) 0.1315(2) 0.31121(16)
H5 H 0.6373 0.2110 0.2994
C16 C 0.59426(17) 0.0540(3) 0.27922(19)
H9 H 0.5604 0.0812 0.2459
Co8 Co 0.77648(2) 0.21255(3) 0.39224(2)
Co1 Co 0.72352(2) 0.28745(3) 0.60776(2)
O1 O 0.69811(10) 0.41116(14) 0.53063(9)
O2 O 0.71100(10) 0.34334(14) 0.41493(9)
O3 O 0.66419(10) 0.62242(15) 0.19537(9)
O4 O 0.72102(10) 0.78407(14) 0.22288(9)
N2 N 0.63644(12) 0.18130(18) 0.57142(12)
C1 C 0.68065(12) 0.54373(19) 0.43043(12)
C2 C 0.69821(12) 0.42288(19) 0.46078(12)
C3 C 0.68334(13) 0.56544(19) 0.35392(13)
H1 H 0.6921 0.5036 0.3215
C4 C 0.64864(13) 0.8980(2) 0.34786(13)
C5 C 0.68594(13) 0.6976(2) 0.24293(12)
C6 C 0.67299(13) 0.67930(19) 0.32493(12)
C7 C 0.65812(13) 0.77230(19) 0.37353(13)
C8 C 0.69372(14) 0.98137(19) 0.37642(14)
H2 H 0.7278 0.9565 0.4102
C9 C 0.66531(14) 0.6361(2) 0.47836(13)
H3 H 0.6629 0.6226 0.5296
C10 C 0.65353(15) 0.7488(2) 0.44972(14)
H4 H 0.6424 0.8095 0.4821
C11 C 0.52819(15) 0.0375(2) 0.51545(15)
C13 C 0.62871(17) 0.0703(2) 0.59424(16)
H6 H 0.6602 0.0402 0.6292
C14 C 0.59806(16) 0.9348(2) 0.29715(17)
H7 H 0.5674 0.8812 0.2756
C17 C 0.53634(18) 0.1542(3) 0.4927(2)
H10 H 0.5058 0.1870 0.4577
C18 C 0.58936(18) 0.2208(3) 0.5221(2)
H11 H 0.5926 0.2987 0.5066
C21 C 0.42410(16) 0.0026(2) 0.43169(17)
H13 H 0.4274 0.0790 0.4134
Co6 Co 0.72352(2) 0.71255(3) 0.10776(2)
O10 O 0.78900(10) 0.15666(14) 0.58507(9)
O12 O 0.66419(10) 0.37758(15) 0.69537(9)
O14 O 0.72102(10) 0.21593(14) 0.72288(9)
N6 N 0.80854(11) 0.40273(16) 0.64168(11)
N3 N 0.63644(12) 0.81870(18) 0.07142(12)
C19 C 0.52819(15) 0.9625(2) 0.01545(15)
C20 C 0.62871(17) 0.9297(2) 0.09424(16)
H12 H 0.6602 0.9598 0.1292
C23 C 0.58936(18) 0.7792(3) 0.0221(2)
H15 H 0.5926 0.7013 0.0066
O5 O 0.69811(10) 0.58884(14) 0.03063(9)
H18 H 0.6629 0.3774 0.0296
O9 O 0.78900(10) 0.84334(14) 0.08507(9)
N5 N 0.80854(11) 0.59727(16) 0.14168(11)
C15 C 0.42410(16) 0.9974(2) 0.93169(17)
H8 H 0.4274 0.9210 0.9134
C22 C 0.53634(18) 0.8458(3) 0.9927(2)
H14 H 0.5058 0.8130 0.9577
O6 O 0.71100(10) 0.65666(14) 0.91493(9)
C24 C 0.68065(12) 0.45627(19) 0.93043(12)
C25 C 0.69821(12) 0.57712(19) 0.96078(12)
C26 C 0.68334(13) 0.43456(19) 0.85392(13)
H16 H 0.6921 0.4964 0.8215
C27 C 0.64864(13) 0.1020(2) 0.84786(13)
C28 C 0.68594(13) 0.3024(2) 0.74293(12)
C29 C 0.67299(13) 0.32070(19) 0.82493(12)
C30 C 0.65812(13) 0.22770(19) 0.87353(13)
C31 C 0.69372(14) 0.01863(19) 0.87642(14)
H17 H 0.7278 0.0435 0.9102
C32 C 0.66531(14) 0.3639(2) 0.97836(13)
C33 C 0.65353(15) 0.2512(2) 0.94972(14)
H19 H 0.6424 0.1905 0.9821
C35 C 0.59806(16) 0.0652(2) 0.79715(17)
H21 H 0.5674 0.1188 0.7756
Co5 Co 0.77648(2) 0.78745(3) 0.89224(2)
N4 N 0.69146(11) 0.90273(16) 0.85832(11)
C34 C 0.64107(15) 0.8685(2) 0.81121(16)
H20 H 0.6373 0.7890 0.7994
C36 C 0.59426(17) 0.9460(3) 0.77922(19)
H22 H 0.5604 0.9188 0.7459
N3_2 N 0.86356(12) 0.31870(18) 0.42858(12)
C19_2 C 0.97181(15) 0.4625(2) 0.48455(15)
C20_2 C 0.87129(17) 0.4297(2) 0.40576(16)
H12_2 H 0.8398 0.4598 0.3708
C21_2 C 0.92410(16) 0.5026(2) 0.43169(17)
H13_2 H 0.9274 0.5790 0.4134
C22_2 C 0.96366(18) 0.3458(3) 0.5073(2)
H14_2 H 0.9942 0.3130 0.5423
C23_2 C 0.91064(18) 0.2792(3) 0.4779(2)
H15_2 H 0.9074 0.2013 0.4934
O5_2 O 0.80189(10) 0.08884(14) 0.46937(9)
C25_2 C 0.80179(12) 0.07712(19) 0.53922(12)
O11 O 0.83581(10) 0.12242(15) 0.30463(9)
O13 O 0.77898(10) 0.28407(14) 0.27712(9)
O7 O 0.83581(10) 0.87758(15) 0.80463(9)
O8 O 0.77898(10) 0.71593(14) 0.77712(9)
C24_2 C 0.81935(12) 0.95627(19) 0.56957(12)
C26_2 C 0.81666(13) 0.93456(19) 0.64608(13)
H16_2 H 0.8079 0.9964 0.6785
C27_2 C 0.85136(13) 0.6020(2) 0.65214(13)
C28_2 C 0.81406(13) 0.8024(2) 0.75707(12)
C29_2 C 0.82701(13) 0.82070(19) 0.67507(12)
C30_2 C 0.84188(13) 0.72770(19) 0.62647(13)
C31_2 C 0.80628(14) 0.51863(19) 0.62358(14)
H17_2 H 0.7722 0.5435 0.5898
C32_2 C 0.83469(14) 0.8639(2) 0.52164(13)
H18_2 H 0.8371 0.8774 0.4704
C33_2 C 0.84647(15) 0.7512(2) 0.55028(14)
H19_2 H 0.8576 0.6905 0.5179
C34_2 C 0.85893(15) 0.3685(2) 0.68879(16)
H20_2 H 0.8627 0.2890 0.7006
C35_2 C 0.90194(16) 0.5652(2) 0.70285(17)
H21_2 H 0.9326 0.6188 0.7244
C36_2 C 0.90574(17) 0.4460(3) 0.72078(19)
H22_2 H 0.9396 0.4188 0.7541
C1_2 C 0.81935(12) 0.04373(19) 0.06957(12)
C3_2 C 0.81666(13) 0.06544(19) 0.14608(13)
H1_2 H 0.8079 0.0036 0.1785
C4_2 C 0.85136(13) 0.3980(2) 0.15214(13)
C5_2 C 0.81406(13) 0.1976(2) 0.25707(12)
C6_2 C 0.82701(13) 0.17930(19) 0.17507(12)
C7_2 C 0.84188(13) 0.27230(19) 0.12647(13)
C8_2 C 0.80628(14) 0.48137(19) 0.12358(14)
H2_2 H 0.7722 0.4565 0.0898
C9_2 C 0.83469(14) 0.1361(2) 0.02164(13)
C10_2 C 0.84647(15) 0.2488(2) 0.05028(14)
H4_2 H 0.8576 0.3095 0.0179
C12_2 C 0.85893(15) 0.6315(2) 0.18879(16)
H5_2 H 0.8627 0.7110 0.2006
C14_2 C 0.90194(16) 0.4348(2) 0.20285(17)
H7_2 H 0.9326 0.3812 0.2244
C16_2 C 0.90574(17) 0.5540(3) 0.22078(19)
H9_2 H 0.9396 0.5812 0.2541
C2_2 C 0.80179(12) 0.92288(19) 0.03922(12)
C17_2 C 0.96366(18) 0.6542(3) 0.0073(2)
H10_2 H 0.9942 0.6870 0.0423
O1_2 O 0.80189(10) 0.91116(14) 0.96937(9)
N2_2 N 0.86356(12) 0.68130(18) 0.92858(12)
C11_2 C 0.97181(15) 0.5375(2) 0.98455(15)
C13_2 C 0.87129(17) 0.5703(2) 0.90576(16)
H6_2 H 0.8398 0.5402 0.8708
C15_2 C 0.92410(16) 0.4974(2) 0.93169(17)
H8_2 H 0.9274 0.4210 0.9134
C18_2 C 0.91064(18) 0.7208(3) 0.9779(2)
H11_2 H 0.9074 0.7987 0.9934
C15_3 C 0.57590(16) 0.9974(2) 0.56831(17)
H8_3 H 0.5726 0.9210 0.5866
N3_3 N 0.36356(12) 0.81870(18) 0.42858(12)
C19_3 C 0.47181(15) 0.9625(2) 0.48455(15)
C20_3 C 0.37129(17) 0.9297(2) 0.40576(16)
H12_3 H 0.3398 0.9598 0.3708
C22_3 C 0.46366(18) 0.8458(3) 0.5073(2)
H14_3 H 0.4942 0.8130 0.5423
C23_3 C 0.41064(18) 0.7792(3) 0.4779(2)
H15_3 H 0.4074 0.7013 0.4934
Co2 Co 0.27648(2) 0.71255(3) 0.39224(2)
O5_3 O 0.30189(10) 0.58884(14) 0.46937(9)
O6_2 O 0.28900(10) 0.65666(14) 0.58507(9)
O7_2 O 0.33581(10) 0.37758(15) 0.80463(9)
O8_2 O 0.27898(10) 0.21593(14) 0.77712(9)
C24_3 C 0.31935(12) 0.45627(19) 0.56957(12)
C25_3 C 0.30179(12) 0.57712(19) 0.53922(12)
C26_3 C 0.31666(13) 0.43456(19) 0.64608(13)
H16_3 H 0.3079 0.4964 0.6785
C27_3 C 0.35136(13) 0.1020(2) 0.65214(13)
C28_3 C 0.31406(13) 0.3024(2) 0.75707(12)
C29_3 C 0.32701(13) 0.32070(19) 0.67507(12)
C30_3 C 0.34188(13) 0.22770(19) 0.62647(13)
C31_3 C 0.30628(14) 0.01863(19) 0.62358(14)
H17_3 H 0.2722 0.0435 0.5898
C32_3 C 0.33469(14) 0.3639(2) 0.52164(13)
H18_3 H 0.3371 0.3774 0.4704
C33_3 C 0.34647(15) 0.2512(2) 0.55028(14)
H19_3 H 0.3576 0.1905 0.5179
C35_3 C 0.40194(16) 0.0652(2) 0.70285(17)
H21_3 H 0.4326 0.1188 0.7244
Co3 Co 0.27648(2) 0.28745(3) 0.89224(2)
Co5_2 Co 0.22352(2) 0.78745(3) 0.60776(2)
O9_2 O 0.21100(10) 0.84334(14) 0.41493(9)
O11_2 O 0.33581(10) 0.62242(15) 0.30463(9)
O13_2 O 0.27898(10) 0.78407(14) 0.27712(9)
N5_2 N 0.19146(11) 0.59727(16) 0.35832(11)
N4_2 N 0.30854(11) 0.90273(16) 0.64168(11)
C34_3 C 0.35893(15) 0.8685(2) 0.68879(16)
H20_3 H 0.3627 0.7890 0.7006
C36_3 C 0.40574(17) 0.9460(3) 0.72078(19)
H22_3 H 0.4396 0.9188 0.7541
N1_2 N 0.30854(11) 0.09727(16) 0.14168(11)
C12_3 C 0.35893(15) 0.1315(2) 0.18879(16)
H5_3 H 0.3627 0.2110 0.2006
C16_3 C 0.40574(17) 0.0540(3) 0.22078(19)
H9_3 H 0.4396 0.0812 0.2541
Co8_2 Co 0.22352(2) 0.21255(3) 0.10776(2)
O2_2 O 0.28900(10) 0.34334(14) 0.08507(9)
C1_3 C 0.31935(12) 0.54373(19) 0.06957(12)
C2_3 C 0.30179(12) 0.42288(19) 0.03922(12)
C3_3 C 0.31666(13) 0.56544(19) 0.14608(13)
H1_3 H 0.3079 0.5036 0.1785
C4_3 C 0.35136(13) 0.8980(2) 0.15214(13)
C5_3 C 0.31406(13) 0.6976(2) 0.25707(12)
C6_3 C 0.32701(13) 0.67930(19) 0.17507(12)
C7_3 C 0.34188(13) 0.77230(19) 0.12647(13)
C8_3 C 0.30628(14) 0.98137(19) 0.12358(14)
H2_3 H 0.2722 0.9565 0.0898
C9_3 C 0.33469(14) 0.6361(2) 0.02164(13)
C10_3 C 0.34647(15) 0.7488(2) 0.05028(14)
H4_3 H 0.3576 0.8095 0.0179
C14_3 C 0.40194(16) 0.9348(2) 0.20285(17)
H7_3 H 0.4326 0.8812 0.2244
C17_3 C 0.46366(18) 0.1542(3) 0.0073(2)
H10_3 H 0.4942 0.1870 0.0423
C21_3 C 0.57590(16) 0.0026(2) 0.06831(17)
H13_3 H 0.5726 0.0790 0.0866
O1_3 O 0.30189(10) 0.41116(14) 0.96937(9)
N2_3 N 0.36356(12) 0.18130(18) 0.92858(12)
H3_2 H 0.3371 0.6226 0.9704
C11_3 C 0.47181(15) 0.0375(2) 0.98455(15)
C13_3 C 0.37129(17) 0.0703(2) 0.90576(16)
H6_3 H 0.3398 0.0402 0.8708
C18_3 C 0.41064(18) 0.2208(3) 0.9779(2)
H11_3 H 0.4074 0.2987 0.9934
O10_2 O 0.21100(10) 0.15666(14) 0.91493(9)
N6_2 N 0.19146(11) 0.40273(16) 0.85832(11)
O3_2 O 0.16419(10) 0.12242(15) 0.19537(9)
O4_2 O 0.22102(10) 0.28407(14) 0.22288(9)
C1_4 C 0.18065(12) 0.04373(19) 0.43043(12)
C3_4 C 0.18334(13) 0.06544(19) 0.35392(13)
H1_4 H 0.1921 0.0036 0.3215
C4_4 C 0.14864(13) 0.3980(2) 0.34786(13)
C5_4 C 0.18594(13) 0.1976(2) 0.24293(12)
C6_4 C 0.17299(13) 0.17930(19) 0.32493(12)
C7_4 C 0.15812(13) 0.27230(19) 0.37353(13)
C8_4 C 0.19372(14) 0.48137(19) 0.37642(14)
H2_4 H 0.2278 0.4565 0.4102
C9_4 C 0.16531(14) 0.1361(2) 0.47836(13)
H3_3 H 0.1629 0.1226 0.5296
C10_4 C 0.15353(15) 0.2488(2) 0.44972(14)
H4_4 H 0.1424 0.3095 0.4821
C12_4 C 0.14107(15) 0.6315(2) 0.31121(16)
H5_4 H 0.1373 0.7110 0.2994
C14_4 C 0.09806(16) 0.4348(2) 0.29715(17)
H7_4 H 0.0674 0.3812 0.2756
C16_4 C 0.09426(17) 0.5540(3) 0.27922(19)
H9_4 H 0.0604 0.5812 0.2459
O1_4 O 0.19811(10) 0.91116(14) 0.53063(9)
N2_4 N 0.13644(12) 0.68130(18) 0.57142(12)
C2_4 C 0.19821(12) 0.92288(19) 0.46078(12)
C11_4 C 0.02819(15) 0.5375(2) 0.51545(15)
C13_4 C 0.12871(17) 0.5703(2) 0.59424(16)
H6_4 H 0.1602 0.5402 0.6292
C15_4 C 0.07590(16) 0.4974(2) 0.56831(17)
H8_4 H 0.0726 0.4210 0.5866
C17_4 C 0.03634(18) 0.6542(3) 0.4927(2)
H10_4 H 0.0058 0.6870 0.4577
C18_4 C 0.08936(18) 0.7208(3) 0.5221(2)
H11_4 H 0.0926 0.7987 0.5066
O12_2 O 0.16419(10) 0.87758(15) 0.69537(9)
O14_2 O 0.22102(10) 0.71593(14) 0.72288(9)
N3_4 N 0.13644(12) 0.31870(18) 0.07142(12)
C19_4 C 0.02819(15) 0.4625(2) 0.01545(15)
C20_4 C 0.12871(17) 0.4297(2) 0.09424(16)
H12_4 H 0.1602 0.4598 0.1292
C21_4 C 0.07590(16) 0.5026(2) 0.06831(17)
H13_4 H 0.0726 0.5790 0.0866
C23_4 C 0.08936(18) 0.2792(3) 0.0221(2)
H15_4 H 0.0926 0.2013 0.0066
O5_4 O 0.19811(10) 0.08884(14) 0.03063(9)
C22_4 C 0.03634(18) 0.3458(3) 0.9927(2)
H14_4 H 0.0058 0.3130 0.9577
C25_4 C 0.19821(12) 0.07712(19) 0.96078(12)
C24_4 C 0.18065(12) 0.95627(19) 0.93043(12)
C26_4 C 0.18334(13) 0.93456(19) 0.85392(13)
H16_4 H 0.1921 0.9964 0.8215
C27_4 C 0.14864(13) 0.6020(2) 0.84786(13)
C28_4 C 0.18594(13) 0.8024(2) 0.74293(12)
C29_4 C 0.17299(13) 0.82070(19) 0.82493(12)
C30_4 C 0.15812(13) 0.72770(19) 0.87353(13)
C31_4 C 0.19372(14) 0.51863(19) 0.87642(14)
H17_4 H 0.2278 0.5435 0.9102
C32_4 C 0.16531(14) 0.8639(2) 0.97836(13)
C33_4 C 0.15353(15) 0.7512(2) 0.94972(14)
H19_4 H 0.1424 0.6905 0.9821
C34_4 C 0.14107(15) 0.3685(2) 0.81121(16)
H20_4 H 0.1373 0.2890 0.7994
C35_4 C 0.09806(16) 0.5652(2) 0.79715(17)
H21_4 H 0.0674 0.6188 0.7756
C36_4 C 0.09426(17) 0.4460(3) 0.77922(19)
H22_4 H 0.0604 0.4188 0.7459
H18_4 H 0.1629 0.8774 0.0296
H3_4 H 0.8371 0.1226 0.9704
loop_
_geom_bond_atom_site_label_1
_geom_bond_atom_site_label_2
_geom_bond_site_symmetry_1
_geom_bond_site_symmetry_2
C12 N1 1_555 1_555
H5 C12 1_555 1_555
C16 C12 1_555 1_555
H9 C16 1_555 1_555
Co8 N1 1_555 1_555
Co1 O1 1_555 1_555
O1 C2 1_555 1_555
O2 C2 1_555 1_555
O3 C5 1_555 1_555
O4 C5 1_555 1_555
N2 Co1 1_555 1_555
C1 C2 1_555 1_555
C3 C1 1_555 1_555
H1 C3 1_555 1_555
C4 C7 1_555 1_555
C5 C6 1_555 1_555
C6 C3 1_555 1_555
C7 C6 1_555 1_555
C8 C4 1_555 1_555
H2 C8 1_555 1_555
C9 C1 1_555 1_555
H3 C9 1_555 1_555
C10 C7 1_555 1_555
H4 C10 1_555 1_555
C13 N2 1_555 1_555
H6 C13 1_555 1_555
C14 C4 1_555 1_555
H7 C14 1_555 1_555
C17 C11 1_555 1_555
H10 C17 1_555 1_555
C18 N2 1_555 1_555
H11 C18 1_555 1_555
H13 C21 1_555 1_555
Co6 O3 1_555 1_555
Co8 O2 1_555 1_555
O10 Co1 1_555 1_555
O12 Co1 1_555 1_555
O14 Co1 1_555 1_555
N6 Co1 1_555 1_555
O4 Co6 1_555 1_555
C9 C10 1_555 1_555
C17 C18 1_555 1_555
N3 C20 1_555 1_555
C20 H12 1_555 1_555
C23 N3 1_555 1_555
H15 C23 1_555 1_555
Co6 N3 1_555 1_555
O5 Co6 1_555 1_555
O9 Co6 1_555 1_555
N5 Co6 1_555 1_555
H8 C15 1_555 1_555
H14 C22 1_555 1_555
O6 C25 1_555 1_555
O12 C28 1_555 1_555
O14 C28 1_555 1_555
C24 C25 1_555 1_555
C26 C24 1_555 1_555
H16 C26 1_555 1_555
C27 C30 1_555 1_555
C28 C29 1_555 1_555
C29 C26 1_555 1_555
C30 C29 1_555 1_555
C31 C27 1_555 1_555
H17 C31 1_555 1_555
C32 C24 1_555 1_555
C33 C30 1_555 1_555
H19 C33 1_555 1_555
C35 C27 1_555 1_555
H21 C35 1_555 1_555
Co5 O6 1_555 1_555
C32 C33 1_555 1_555
C34 N4 1_555 1_555
H20 C34 1_555 1_555
C36 C34 1_555 1_555
H22 C36 1_555 1_555
Co5 N4 1_555 1_555
N3_2 C20_2 1_555 1_555
C20_2 H12_2 1_555 1_555
C21_2 C19_2 1_555 1_555
H13_2 C21_2 1_555 1_555
C22_2 C19_2 1_555 1_555
H14_2 C22_2 1_555 1_555
C23_2 N3_2 1_555 1_555
H15_2 C23_2 1_555 1_555
Co8 N3_2 1_555 1_555
O5_2 Co8 1_555 1_555
O10 C25_2 1_555 1_555
C25_2 O5_2 1_555 1_555
O11 Co8 1_555 1_555
O13 Co8 1_555 1_555
C20_2 C21_2 1_555 1_555
C22_2 C23_2 1_555 1_555
O7 C28_2 1_555 1_555
O8 C28_2 1_555 1_555
N6 C31_2 1_555 1_555
C26_2 C24_2 1_555 1_555
H16_2 C26_2 1_555 1_555
C27_2 C30_2 1_555 1_555
C28_2 C29_2 1_555 1_555
C29_2 C26_2 1_555 1_555
C30_2 C29_2 1_555 1_555
C31_2 C27_2 1_555 1_555
H17_2 C31_2 1_555 1_555
C32_2 C24_2 1_555 1_555
H18_2 C32_2 1_555 1_555
C33_2 C30_2 1_555 1_555
H19_2 C33_2 1_555 1_555
C34_2 N6 1_555 1_555
H20_2 C34_2 1_555 1_555
C35_2 C27_2 1_555 1_555
H21_2 C35_2 1_555 1_555
C36_2 C34_2 1_555 1_555
H22_2 C36_2 1_555 1_555
Co5 O7 1_555 1_555
O8 Co5 1_555 1_555
C32_2 C33_2 1_555 1_555
C35_2 C36_2 1_555 1_555
O11 C5_2 1_555 1_555
O13 C5_2 1_555 1_555
N5 C8_2 1_555 1_555
C3_2 C1_2 1_555 1_555
H1_2 C3_2 1_555 1_555
C4_2 C7_2 1_555 1_555
C5_2 C6_2 1_555 1_555
C6_2 C3_2 1_555 1_555
C7_2 C6_2 1_555 1_555
C8_2 C4_2 1_555 1_555
H2_2 C8_2 1_555 1_555
C9_2 C1_2 1_555 1_555
C10_2 C7_2 1_555 1_555
H4_2 C10_2 1_555 1_555
C12_2 N5 1_555 1_555
H5_2 C12_2 1_555 1_555
C14_2 C4_2 1_555 1_555
H7_2 C14_2 1_555 1_555
C16_2 C12_2 1_555 1_555
H9_2 C16_2 1_555 1_555
C9_2 C10_2 1_555 1_555
C14_2 C16_2 1_555 1_555
O9 C2_2 1_555 1_555
H10_2 C17_2 1_555 1_555
Co5 O1_2 1_555 1_555
N2_2 Co5 1_555 1_555
C11_2 C15_2 1_555 1_555
C13_2 N2_2 1_555 1_555
H6_2 C13_2 1_555 1_555
C15_2 C13_2 1_555 1_555
H8_2 C15_2 1_555 1_555
C18_2 N2_2 1_555 1_555
H11_2 C18_2 1_555 1_555
H8_3 C15_3 1_555 1_555
N3_3 C20_3 1_555 1_555
C20_3 H12_3 1_555 1_555
C22_3 C19_3 1_555 1_555
H14_3 C22_3 1_555 1_555
C23_3 N3_3 1_555 1_555
H15_3 C23_3 1_555 1_555
Co2 N3_3 1_555 1_555
O5_3 Co2 1_555 1_555
O6_2 C25_3 1_555 1_555
O7_2 C28_3 1_555 1_555
O8_2 C28_3 1_555 1_555
C24_3 C25_3 1_555 1_555
C25_3 O5_3 1_555 1_555
C26_3 C24_3 1_555 1_555
H16_3 C26_3 1_555 1_555
C27_3 C30_3 1_555 1_555
C28_3 C29_3 1_555 1_555
C29_3 C26_3 1_555 1_555
C30_3 C29_3 1_555 1_555
C31_3 C27_3 1_555 1_555
H17_3 C31_3 1_555 1_555
C32_3 C24_3 1_555 1_555
H18_3 C32_3 1_555 1_555
C33_3 C30_3 1_555 1_555
H19_3 C33_3 1_555 1_555
C35_3 C27_3 1_555 1_555
H21_3 C35_3 1_555 1_555
Co3 O7_2 1_555 1_555
Co5_2 O6_2 1_555 1_555
O9_2 Co2 1_555 1_555
O11_2 Co2 1_555 1_555
O13_2 Co2 1_555 1_555
N5_2 Co2 1_555 1_555
C22_3 C23_3 1_555 1_555
O8_2 Co3 1_555 1_555
C32_3 C33_3 1_555 1_555
C34_3 N4_2 1_555 1_555
H20_3 C34_3 1_555 1_555
C36_3 C34_3 1_555 1_555
H22_3 C36_3 1_555 1_555
Co5_2 N4_2 1_555 1_555
C12_3 N1_2 1_555 1_555
H5_3 C12_3 1_555 1_555
C16_3 C12_3 1_555 1_555
H9_3 C16_3 1_555 1_555
Co8_2 N1_2 1_555 1_555
O2_2 C2_3 1_555 1_555
O11_2 C5_3 1_555 1_555
O13_2 C5_3 1_555 1_555
C1_3 C2_3 1_555 1_555
C3_3 C1_3 1_555 1_555
H1_3 C3_3 1_555 1_555
C4_3 C7_3 1_555 1_555
C5_3 C6_3 1_555 1_555
C6_3 C3_3 1_555 1_555
C7_3 C6_3 1_555 1_555
C8_3 C4_3 1_555 1_555
H2_3 C8_3 1_555 1_555
C9_3 C1_3 1_555 1_555
C10_3 C7_3 1_555 1_555
H4_3 C10_3 1_555 1_555
C14_3 C4_3 1_555 1_555
H7_3 C14_3 1_555 1_555
H10_3 C17_3 1_555 1_555
H13_3 C21_3 1_555 1_555
Co8_2 O2_2 1_555 1_555
C9_3 C10_3 1_555 1_555
Co3 O1_3 1_555 1_555
N2_3 Co3 1_555 1_555
C13_3 N2_3 1_555 1_555
H6_3 C13_3 1_555 1_555
C18_3 N2_3 1_555 1_555
H11_3 C18_3 1_555 1_555
O10_2 Co3 1_555 1_555
N6_2 Co3 1_555 1_555
O3_2 C5_4 1_555 1_555
O4_2 C5_4 1_555 1_555
N5_2 C8_4 1_555 1_555
C3_4 C1_4 1_555 1_555
H1_4 C3_4 1_555 1_555
C4_4 C7_4 1_555 1_555
C5_4 C6_4 1_555 1_555
C6_4 C3_4 1_555 1_555
C7_4 C6_4 1_555 1_555
C8_4 C4_4 1_555 1_555
H2_4 C8_4 1_555 1_555
C9_4 C1_4 1_555 1_555
H3_3 C9_4 1_555 1_555
C10_4 C7_4 1_555 1_555
H4_4 C10_4 1_555 1_555
C12_4 N5_2 1_555 1_555
H5_4 C12_4 1_555 1_555
C14_4 C4_4 1_555 1_555
H7_4 C14_4 1_555 1_555
C16_4 C12_4 1_555 1_555
H9_4 C16_4 1_555 1_555
Co8_2 O3_2 1_555 1_555
O4_2 Co8_2 1_555 1_555
C9_4 C10_4 1_555 1_555
C14_4 C16_4 1_555 1_555
Co5_2 O1_4 1_555 1_555
O1_4 C2_4 1_555 1_555
O9_2 C2_4 1_555 1_555
N2_4 Co5_2 1_555 1_555
C11_4 C15_4 1_555 1_555
C13_4 N2_4 1_555 1_555
H6_4 C13_4 1_555 1_555
C15_4 C13_4 1_555 1_555
H8_4 C15_4 1_555 1_555
C17_4 C11_4 1_555 1_555
H10_4 C17_4 1_555 1_555
C18_4 N2_4 1_555 1_555
H11_4 C18_4 1_555 1_555
O12_2 Co5_2 1_555 1_555
O14_2 Co5_2 1_555 1_555
C17_4 C18_4 1_555 1_555
N3_4 C20_4 1_555 1_555
C20_4 H12_4 1_555 1_555
C21_4 C19_4 1_555 1_555
H13_4 C21_4 1_555 1_555
C23_4 N3_4 1_555 1_555
H15_4 C23_4 1_555 1_555
Co8_2 N3_4 1_555 1_555
O5_4 Co8_2 1_555 1_555
C20_4 C21_4 1_555 1_555
H14_4 C22_4 1_555 1_555
O10_2 C25_4 1_555 1_555
O12_2 C28_4 1_555 1_555
O14_2 C28_4 1_555 1_555
N6_2 C31_4 1_555 1_555
C26_4 C24_4 1_555 1_555
H16_4 C26_4 1_555 1_555
C27_4 C30_4 1_555 1_555
C28_4 C29_4 1_555 1_555
C29_4 C26_4 1_555 1_555
C30_4 C29_4 1_555 1_555
C31_4 C27_4 1_555 1_555
H17_4 C31_4 1_555 1_555
C32_4 C24_4 1_555 1_555
C33_4 C30_4 1_555 1_555
H19_4 C33_4 1_555 1_555
C34_4 N6_2 1_555 1_555
H20_4 C34_4 1_555 1_555
C35_4 C27_4 1_555 1_555
H21_4 C35_4 1_555 1_555
C36_4 C34_4 1_555 1_555
H22_4 C36_4 1_555 1_555
C32_4 C33_4 1_555 1_555
C35_4 C36_4 1_555 1_555

#END
