
###############################################################################
#
# This file contains modified crystal structure data generated from the
# MOF subset of the Cambridge Structural Database (CSD) v543 
# hosted by the Cambridge Crystallographic Data Centre (CCDC).
#
# This work is licensed under the Creative Commons
# Attribution-NonCommercial-ShareAlike 4.0 International License.
# To view a copy of this license, visit
# http://creativecommons.org/licenses/by-nc-sa/4.0/
# or send a letter to
# Creative Commons, PO Box 1866, Mountain View, CA 94042, USA.
#
# CIF created using the CSD Python API on 29 September 2022
# The structure has been converted into the P1 space group
# The structure has a 3D framework
# The original CSD entry HAYQEG is in the triclinic crystal system
# The framework has been calculated to contain at least 10.0% void space
# The void calculation uses a probe of radius 1.32A, grid spacing 0.4
#
###############################################################################

data_HAYQEG
_chemical_formula_moiety         '(C116 H114 N2 O50 Pb7)n'
_symmetry_cell_setting           triclinic
_symmetry_space_group_name_H-M   'P 1'
_symmetry_Int_Tables_number      1
_space_group_name_Hall           'P 1'
loop_
_symmetry_equiv_pos_site_id
_symmetry_equiv_pos_as_xyz
1 x,y,z
_cell_length_a                   14.3824(3)
_cell_length_b                   16.1890(4)
_cell_length_c                   17.3186(5)
_cell_angle_alpha                110.412(3)
_cell_angle_beta                 94.052(2)
_cell_angle_gamma                109.683(2)
_cell_volume                     3476.58
loop_
_atom_site_label
_atom_site_type_symbol
_atom_site_fract_x
_atom_site_fract_y
_atom_site_fract_z
O13 O 0.1100(4) 0.3970(4) 0.0670(4)
H34 H 0.1638 0.2629 0.0143
C44 C 0.2465(10) 0.1444(8) 0.0054(6)
H35 H 0.2704 0.0991 0.0145
H36 H 0.2045 0.1594 0.0444
H37 H 0.3032 0.2016 0.0141
Pb13 Pb 0.02347(2) 0.498071(19) 0.126631(18)
O5 O 0.7762(4) 0.3823(4) 0.5016(4)
O6 O 0.7684(4) 0.3846(4) 0.3748(4)
O12 O 0.0191(5) 0.4086(4) 0.9673(4)
O15 O 0.2203(4) 0.1207(4) 0.7033(4)
O16 O 0.3135(4) 0.0380(4) 0.3470(4)
O20 O 0.1893(5) 0.1044(5) 0.9211(4)
O21 O 0.0060(4) 0.1296(4) 0.7020(4)
O24 O 0.4360(5) 0.0909(5) 0.2122(5)
O25 O 0.5693(4) 0.0248(4) 0.4268(4)
C13 C 0.1606(6) 0.0315(5) 0.6953(5)
C14 C 0.0977(6) 0.0294(5) 0.7549(5)
C17 C 0.0947(6) 0.1200(6) 0.8147(5)
C18 C 0.2788(8) 0.1256(6) 0.6401(7)
H11 H 0.3113 0.1909 0.6472
H12 H 0.2352 0.0890 0.5851
H13 H 0.3291 0.1000 0.6456
C27 C 0.2145(8) 0.0318(7) 0.3568(9)
H19 H 0.2152 0.0950 0.3837
C37 C 0.0708(6) 0.3693(5) 0.9907(6)
C38 C 0.0833(5) 0.2839(5) 0.9279(6)
C39 C 0.0408(6) 0.2508(5) 0.8426(5)
H30 H 0.0083 0.2830 0.8233
C40 C 0.0481(6) 0.1692(5) 0.7877(5)
C41 C 0.0243(7) 0.1946(6) 0.6612(5)
H32 H 0.0958 0.2261 0.6674
C42 C 0.1342(6) 0.2388(6) 0.9574(5)
C43 C 0.1404(6) 0.1562(6) 0.9000(5)
C45 C 0.7394(5) 0.3432(5) 0.4237(5)
C46 C 0.6554(6) 0.2458(6) 0.3877(5)
C47 C 0.6498(6) 0.1849(6) 0.4298(5)
H38 H 0.6941 0.2059 0.4807
C48 C 0.5759(6) 0.0916(6) 0.3931(6)
C49 C 0.5045(6) 0.0623(6) 0.3215(6)
C50 C 0.5094(6) 0.1255(7) 0.2823(6)
C51 C 0.5864(6) 0.2156(6) 0.3146(6)
H39 H 0.5915 0.2560 0.2865
C52 C 0.6314(7) 0.0574(7) 0.5066(6)
H40 H 0.6165 0.0061 0.5254
H41 H 0.7010 0.0791 0.5026
H42 H 0.6189 0.1091 0.5460
C54 C 0.420(2) 0.1558(15) 0.1811(16)
H46 H 0.3891 0.1229 0.1221
H47 H 0.4839 0.2059 0.1887
H48 H 0.3769 0.1829 0.2111
Pb6 Pb 0.90286(2) 0.372903(18) 0.612992(17)
Pb8 Pb 0.89925(2) 0.542777(19) 0.505292(18)
Pb10 Pb 0.91524(2) 0.367682(19) 0.292797(18)
Pb1 Pb 0.09714(2) 0.627097(18) 0.387008(17)
Pb2 Pb 0.10075(2) 0.457223(19) 0.494708(18)
O1 O 0.0012(3) 0.4969(3) 0.4157(3)
O4 O 0.1177(4) 0.7738(4) 0.5019(4)
O7 O 0.0611(4) 0.6936(3) 0.5811(4)
O10 O 0.1120(4) 0.6792(4) 0.2478(4)
O11 O 0.1900(4) 0.6175(4) 0.1505(4)
O17 O 0.5323(5) 0.8970(5) 0.2280(6)
C10 C 0.0912(5) 0.7696(5) 0.5681(5)
C11 C 0.0938(6) 0.8609(6) 0.6348(5)
C12 C 0.1581(6) 0.9471(5) 0.6354(5)
H9 H 0.1990 0.9482 0.5962
C15 C 0.0324(6) 0.9414(6) 0.7495(5)
C16 C 0.0307(6) 0.8552(6) 0.6903(5)
C20 C 0.1841(6) 0.6877(6) 0.2091(5)
C21 C 0.2659(6) 0.7846(6) 0.2349(6)
C22 C 0.2474(6) 0.8651(5) 0.2802(5)
H17 H 0.1846 0.8591 0.2935
C23 C 0.3241(6) 0.9542(6) 0.3050(5)
C24 C 0.4200(6) 0.9653(6) 0.2885(6)
C25 C 0.4355(6) 0.8825(7) 0.2422(7)
C26 C 0.3596(7) 0.7920(6) 0.2152(7)
H18 H 0.3712 0.7378 0.1848
H20 H 0.1918 0.9964 0.3909
H21 H 0.1695 0.9999 0.3024
C28 C 0.5484(8) 0.8157(8) 0.1741(10)
H22 H 0.6155 0.8357 0.1638
H23 H 0.5000 0.7853 0.1216
H24 H 0.5405 0.7714 0.2007
Pb11 Pb 0.08476(2) 0.632318(19) 0.707203(18)
O28 O 0.2238(4) 0.6177(4) 0.4984(4)
O30 O 0.2316(4) 0.6154(4) 0.6252(4)
O32 O 0.0883(4) 0.4659(4) 0.2553(3)
O33 O 0.0844(4) 0.3561(4) 0.3035(4)
H31 H 0.9930 0.1601 0.6023
H33 H 0.9965 0.2414 0.6863
Pb14 Pb 0.97653(2) 0.501929(19) 0.873369(18)
O2 O 0.9331(4) 0.6334(4) 0.3822(4)
O3 O 0.8988(4) 0.5071(4) 0.2636(3)
O14 O 0.9690(5) 0.9448(4) 0.8058(4)
O18 O 0.4683(7) 0.6458(7) 0.2951(7)
O19 O 0.4361(8) 0.3673(10) 0.3390(10)
O22 O 0.6020(5) 0.6573(5) 0.4260(6)
O23 O 0.5146(5) 0.3783(6) 0.1799(6)
C1 C 0.8715(6) 0.5638(5) 0.3176(5)
C2 C 0.7630(6) 0.5504(6) 0.3079(6)
C3 C 0.7359(6) 0.6153(7) 0.3699(6)
H1 H 0.7849 0.6686 0.4130
C4 C 0.6337(7) 0.5981(8) 0.3655(8)
C5 C 0.5602(7) 0.5180(7) 0.3024(8)
C6 C 0.5925(7) 0.4562(7) 0.2421(7)
C7 C 0.6928(7) 0.4715(7) 0.2451(6)
H2 H 0.7123 0.4288 0.2048
C8 C 0.6737(12) 0.7349(12) 0.5013(11)
H3 H 0.6374 0.7611 0.5410
H4 H 0.7165 0.7840 0.4859
H5 H 0.7143 0.7107 0.5264
C9 C 0.5451(10) 0.3231(13) 0.1130(11)
H6 H 0.4877 0.2672 0.0769
H7 H 0.5943 0.3042 0.1346
H8 H 0.5744 0.3599 0.0814
H10 H 0.9883 0.7965 0.6887
C19 C 0.8847(8) 0.8598(7) 0.7903(7)
H14 H 0.8425 0.8734 0.8295
H15 H 0.9078 0.8131 0.7971
H16 H 0.8467 0.8354 0.7338
C29 C 0.1314(5) 0.4189(5) 0.2772(4)
C30 C 0.2424(7) 0.4455(7) 0.2843(7)
C31 C 0.3017(8) 0.5307(9) 0.2847(7)
H25 H 0.2722 0.5718 0.2788
C32 C 0.4052(10) 0.5579(10) 0.2938(10)
C33 C 0.4586(12) 0.7295(11) 0.3579(12)
H26 H 0.5063 0.7868 0.3564
H27 H 0.4719 0.7296 0.4130
H28 H 0.3913 0.7268 0.3453
C34 C 0.4504(7) 0.4933(8) 0.2987(9)
C35 C 0.3933(7) 0.4216(8) 0.3188(8)
C36 C 0.2893(8) 0.3969(8) 0.3119(8)
H29 H 0.2517 0.3472 0.3261
C53 C 0.493(2) 0.396(2) 0.4199(11)
H43 H 0.5089 0.3437 0.4232
H44 H 0.4554 0.4138 0.4615
H45 H 0.5551 0.4493 0.4302
O26 O 0.9075(5) 0.3170(5) 0.1172(4)
N1 N 0.8639(8) 0.1787(7) 0.0076(6)
C55 C 0.8544(8) 0.2579(7) 0.0440(7)
H49 H 0.7827 0.3450 0.0354
C57 C 0.9348(12) 0.1584(12) 0.0623(13)
H52 H 0.9755 0.2165 0.1096
H53 H 0.9777 0.1338 0.0294
H54 H 0.8954 0.1122 0.0823
O27 O 0.9988(3) 0.5031(3) 0.5843(3)
O31 O 0.9389(4) 0.3064(3) 0.4189(4)
O35 O 0.9809(5) 0.5914(4) 0.0327(4)
O2_2 O 0.0669(4) 0.3666(4) 0.6178(4)
O3_2 O 0.1012(4) 0.4929(4) 0.7364(3)
O8 O 0.9117(4) 0.5341(4) 0.7447(3)
O9 O 0.9156(4) 0.6439(4) 0.6965(4)
O14_2 O 0.0310(5) 0.0552(4) 0.1942(4)
O18_2 O 0.5317(7) 0.3542(7) 0.7049(7)
O19_2 O 0.5639(8) 0.6327(10) 0.6610(10)
O22_2 O 0.3980(5) 0.3427(5) 0.5740(6)
O23_2 O 0.4854(5) 0.6217(6) 0.8201(6)
C1_2 C 0.1285(6) 0.4362(5) 0.6824(5)
C2_2 C 0.2370(6) 0.4496(6) 0.6921(6)
C3_2 C 0.2641(6) 0.3847(7) 0.6301(6)
H1_2 H 0.2151 0.3314 0.5870
C4_2 C 0.3663(7) 0.4019(8) 0.6345(8)
C5_2 C 0.4398(7) 0.4820(7) 0.6976(8)
C6_2 C 0.4075(7) 0.5438(7) 0.7579(7)
C7_2 C 0.3072(7) 0.5285(7) 0.7549(6)
H2_2 H 0.2877 0.5712 0.7952
C8_2 C 0.3263(12) 0.2651(12) 0.4987(11)
H3_2 H 0.3626 0.2389 0.4590
H4_2 H 0.2835 0.2160 0.5141
H5_2 H 0.2857 0.2893 0.4736
C9_2 C 0.4549(10) 0.6769(13) 0.8870(11)
H6_2 H 0.5123 0.7328 0.9231
H7_2 H 0.4057 0.6958 0.8654
H8_2 H 0.4256 0.6401 0.9186
H10_2 H 0.0117 0.2035 0.3113
C19_2 C 0.1153(8) 0.1402(7) 0.2097(7)
H14_2 H 0.1575 0.1266 0.1705
H15_2 H 0.0922 0.1869 0.2029
H16_2 H 0.1533 0.1646 0.2662
C29_2 C 0.8686(5) 0.5811(5) 0.7228(4)
C30_2 C 0.7576(7) 0.5545(7) 0.7157(7)
C31_2 C 0.6983(8) 0.4693(9) 0.7153(7)
H25_2 H 0.7278 0.4282 0.7212
C32_2 C 0.5948(10) 0.4421(10) 0.7062(10)
C33_2 C 0.5414(12) 0.2705(11) 0.6421(12)
H26_2 H 0.4937 0.2132 0.6436
H27_2 H 0.5281 0.2704 0.5870
H28_2 H 0.6087 0.2732 0.6547
C34_2 C 0.5496(7) 0.5067(8) 0.7013(9)
C35_2 C 0.6067(7) 0.5784(8) 0.6812(8)
C36_2 C 0.7107(8) 0.6031(8) 0.6881(8)
H29_2 H 0.7483 0.6528 0.6739
C53_2 C 0.507(2) 0.604(2) 0.5801(11)
H43_2 H 0.4911 0.6563 0.5768
H44_2 H 0.5446 0.5862 0.5385
H45_2 H 0.4449 0.5507 0.5698
O26_2 O 0.0925(5) 0.6830(5) 0.8828(4)
N1_2 N 0.1361(8) 0.8213(7) 0.9924(6)
C55_2 C 0.1456(8) 0.7421(7) 0.9560(7)
H49_2 H 0.2173 0.6550 0.9646
C57_2 C 0.0652(12) 0.8416(12) 0.9377(13)
H52_2 H 0.0245 0.7835 0.8904
H53_2 H 0.0223 0.8662 0.9706
H54_2 H 0.1046 0.8878 0.9177
H31_2 H 0.0070 0.8399 0.3977
H33_2 H 0.0035 0.7586 0.3137
O4_2 O 0.8823(4) 0.2262(4) 0.4981(4)
O10_2 O 0.8880(4) 0.3208(4) 0.7522(4)
O11_2 O 0.8100(4) 0.3825(4) 0.8495(4)
O17_2 O 0.4677(5) 0.1030(5) 0.7720(6)
C10_2 C 0.9088(5) 0.2304(5) 0.4319(5)
C11_2 C 0.9062(6) 0.1391(6) 0.3652(5)
C12_2 C 0.8419(6) 0.0529(5) 0.3646(5)
H9_2 H 0.8010 0.0518 0.4038
C15_2 C 0.9676(6) 0.0586(6) 0.2505(5)
C16_2 C 0.9693(6) 0.1448(6) 0.3097(5)
C20_2 C 0.8159(6) 0.3123(6) 0.7909(5)
C21_2 C 0.7341(6) 0.2154(6) 0.7651(6)
C22_2 C 0.7526(6) 0.1349(5) 0.7198(5)
H17_2 H 0.8154 0.1409 0.7065
C23_2 C 0.6759(6) 0.0458(6) 0.6950(5)
C24_2 C 0.5800(6) 0.0347(6) 0.7115(6)
C25_2 C 0.5645(6) 0.1175(7) 0.7578(7)
C26_2 C 0.6404(7) 0.2080(6) 0.7848(7)
H18_2 H 0.6288 0.2622 0.8152
H20_2 H 0.8082 0.0036 0.6091
H21_2 H 0.8305 0.0001 0.6976
C28_2 C 0.4516(8) 0.1843(8) 0.8259(10)
H22_2 H 0.3845 0.1643 0.8362
H23_2 H 0.5000 0.2147 0.8784
H24_2 H 0.4595 0.2286 0.7993
O36 O 0.8900(4) 0.6030(4) 0.9330(4)
O15_2 O 0.7797(4) 0.8793(4) 0.2967(4)
O16_2 O 0.6865(4) 0.9620(4) 0.6530(4)
O20_2 O 0.8107(5) 0.8956(5) 0.0789(4)
O21_2 O 0.9940(4) 0.8704(4) 0.2980(4)
O24_2 O 0.5640(5) 0.9091(5) 0.7878(5)
O25_2 O 0.4307(4) 0.9752(4) 0.5732(4)
C13_2 C 0.8394(6) 0.9685(5) 0.3047(5)
C14_2 C 0.9023(6) 0.9706(5) 0.2451(5)
C17_2 C 0.9053(6) 0.8800(6) 0.1853(5)
C18_2 C 0.7212(8) 0.8744(6) 0.3599(7)
H11_2 H 0.6887 0.8091 0.3528
H12_2 H 0.7648 0.9110 0.4149
H13_2 H 0.6709 0.9000 0.3544
C27_2 C 0.7855(8) 0.9682(7) 0.6432(9)
H19_2 H 0.7848 0.9050 0.6163
C37_2 C 0.9292(6) 0.6307(5) 0.0093(6)
C38_2 C 0.9167(5) 0.7161(5) 0.0721(6)
C39_2 C 0.9592(6) 0.7492(5) 0.1574(5)
H30_2 H 0.9917 0.7170 0.1767
C40_2 C 0.9519(6) 0.8308(5) 0.2123(5)
C41_2 C 0.9757(7) 0.8054(6) 0.3388(5)
H32_2 H 0.9042 0.7739 0.3326
C42_2 C 0.8658(6) 0.7612(6) 0.0426(5)
C43_2 C 0.8596(6) 0.8438(6) 0.1000(5)
C45_2 C 0.2606(5) 0.6568(5) 0.5763(5)
C46_2 C 0.3446(6) 0.7542(6) 0.6123(5)
C47_2 C 0.3502(6) 0.8151(6) 0.5702(5)
H38_2 H 0.3059 0.7941 0.5193
C48_2 C 0.4241(6) 0.9084(6) 0.6069(6)
C49_2 C 0.4955(6) 0.9377(6) 0.6785(6)
C50_2 C 0.4906(6) 0.8745(7) 0.7177(6)
C51_2 C 0.4136(6) 0.7844(6) 0.6854(6)
H39_2 H 0.4085 0.7440 0.7135
C52_2 C 0.3686(7) 0.9426(7) 0.4934(6)
H40_2 H 0.3835 0.9939 0.4746
H41_2 H 0.2990 0.9209 0.4974
H42_2 H 0.3811 0.8909 0.4540
C54_2 C 0.580(2) 0.8442(15) 0.8189(16)
H46_2 H 0.6109 0.8771 0.8779
H47_2 H 0.5161 0.7941 0.8113
H48_2 H 0.6231 0.8171 0.7889
H34_2 H 0.8362 0.7371 0.9857
C44_2 C 0.7535(10) 0.8556(8) 0.9946(6)
H35_2 H 0.7296 0.9009 0.9855
H36_2 H 0.7955 0.8406 0.9556
H37_2 H 0.6968 0.7984 0.9859
C56 C 0.7812(9) 0.2838(10) 0.9995(10)
H50 H 0.7142 0.2363 0.9867
H51 H 0.8003 0.2866 0.9482
C58 C 0.8118(15) 0.1091(9) 0.9245(8)
H55 H 0.7475 0.1122 0.9112
H56 H 0.8018 0.0465 0.9221
H57 H 0.8513 0.1219 0.8845
C56_2 C 0.2188(9) 0.7162(10) 0.0005(10)
H50_2 H 0.2858 0.7637 0.0133
H51_2 H 0.1997 0.7134 0.0518
C58_2 C 0.1882(15) 0.8909(9) 0.0755(8)
H55_2 H 0.2525 0.8878 0.0888
H56_2 H 0.1982 0.9535 0.0779
H57_2 H 0.1487 0.8781 0.1155
loop_
_geom_bond_atom_site_label_1
_geom_bond_atom_site_label_2
_geom_bond_site_symmetry_1
_geom_bond_site_symmetry_2
H35 C44 1_555 1_555
H36 C44 1_555 1_555
H37 C44 1_555 1_555
O13 Pb13 1_555 1_555
O5 C45 1_555 1_555
O6 C45 1_555 1_555
O12 C37 1_555 1_555
O15 C13 1_555 1_555
O20 C43 1_555 1_555
O21 C40 1_555 1_555
O24 C50 1_555 1_555
O25 C48 1_555 1_555
C14 C13 1_555 1_555
C17 C14 1_555 1_555
C18 O15 1_555 1_555
H11 C18 1_555 1_555
H12 C18 1_555 1_555
H13 C18 1_555 1_555
C27 O16 1_555 1_555
H19 C27 1_555 1_555
C37 C38 1_555 1_555
C38 C39 1_555 1_555
C39 H30 1_555 1_555
C40 C17 1_555 1_555
C41 O21 1_555 1_555
H32 C41 1_555 1_555
C42 C38 1_555 1_555
C43 C17 1_555 1_555
C45 C46 1_555 1_555
C46 C47 1_555 1_555
C47 H38 1_555 1_555
C48 C47 1_555 1_555
C50 C49 1_555 1_555
C51 C46 1_555 1_555
H39 C51 1_555 1_555
C52 O25 1_555 1_555
H40 C52 1_555 1_555
H41 C52 1_555 1_555
H42 C52 1_555 1_555
C54 O24 1_555 1_555
H46 C54 1_555 1_555
H47 C54 1_555 1_555
H48 C54 1_555 1_555
Pb6 O5 1_555 1_555
Pb8 O5 1_555 1_555
Pb10 O6 1_555 1_555
O6 Pb8 1_555 1_555
C39 C40 1_555 1_555
C42 C43 1_555 1_555
C48 C49 1_555 1_555
C50 C51 1_555 1_555
Pb1 O1 1_555 1_555
Pb2 O1 1_555 1_555
Pb13 O10 1_555 1_555
O4 Pb1 1_555 1_555
O7 C10 1_555 1_555
O10 Pb1 1_555 1_555
O11 Pb13 1_555 1_555
O17 C25 1_555 1_555
C10 O4 1_555 1_555
C11 C10 1_555 1_555
C12 C11 1_555 1_555
H9 C12 1_555 1_555
C16 C11 1_555 1_555
C20 O10 1_555 1_555
C21 C20 1_555 1_555
C22 C21 1_555 1_555
H17 C22 1_555 1_555
C23 C22 1_555 1_555
C24 C23 1_555 1_555
C25 C24 1_555 1_555
C26 C21 1_555 1_555
H18 C26 1_555 1_555
C28 O17 1_555 1_555
H22 C28 1_555 1_555
H23 C28 1_555 1_555
H24 C28 1_555 1_555
Pb11 O7 1_555 1_555
O28 Pb1 1_555 1_555
O30 Pb2 1_555 1_555
O32 Pb1 1_555 1_555
Pb2 O28 1_555 1_555
Pb13 O32 1_555 1_555
O11 C20 1_555 1_555
C15 C16 1_555 1_555
C25 C26 1_555 1_555
Pb11 O30 1_555 1_555
O3 Pb10 1_555 1_555
O32 C29 1_555 1_555
O33 C29 1_555 1_555
O18 C32 1_555 1_555
O19 C35 1_555 1_555
O22 C4 1_555 1_555
O23 C6 1_555 1_555
C1 O2 1_555 1_555
C2 C1 1_555 1_555
C3 C2 1_555 1_555
H1 C3 1_555 1_555
C4 C3 1_555 1_555
C5 C4 1_555 1_555
C6 C5 1_555 1_555
C7 C2 1_555 1_555
H2 C7 1_555 1_555
C8 O22 1_555 1_555
H3 C8 1_555 1_555
H4 C8 1_555 1_555
H5 C8 1_555 1_555
C9 O23 1_555 1_555
H6 C9 1_555 1_555
H7 C9 1_555 1_555
H8 C9 1_555 1_555
C19 O14 1_555 1_555
H14 C19 1_555 1_555
H15 C19 1_555 1_555
H16 C19 1_555 1_555
C29 C30 1_555 1_555
C30 C31 1_555 1_555
C31 H25 1_555 1_555
C32 C31 1_555 1_555
C33 O18 1_555 1_555
H26 C33 1_555 1_555
H27 C33 1_555 1_555
H28 C33 1_555 1_555
C34 C5 1_555 1_555
C35 C34 1_555 1_555
C36 C30 1_555 1_555
H29 C36 1_555 1_555
C53 O19 1_555 1_555
H43 C53 1_555 1_555
H44 C53 1_555 1_555
H45 C53 1_555 1_555
O26 Pb10 1_555 1_555
N1 C55 1_555 1_555
C55 O26 1_555 1_555
C57 N1 1_555 1_555
H52 C57 1_555 1_555
H53 C57 1_555 1_555
H54 C57 1_555 1_555
Pb10 O31 1_555 1_555
O3 C1 1_555 1_555
C6 C7 1_555 1_555
C32 C34 1_555 1_555
C35 C36 1_555 1_555
Pb8 O27 1_555 1_555
O3_2 Pb11 1_555 1_555
O8 C29_2 1_555 1_555
O9 C29_2 1_555 1_555
O18_2 C32_2 1_555 1_555
O19_2 C35_2 1_555 1_555
O22_2 C4_2 1_555 1_555
O23_2 C6_2 1_555 1_555
C1_2 O2_2 1_555 1_555
C2_2 C1_2 1_555 1_555
C3_2 C2_2 1_555 1_555
H1_2 C3_2 1_555 1_555
C4_2 C3_2 1_555 1_555
C5_2 C4_2 1_555 1_555
C6_2 C5_2 1_555 1_555
C7_2 C2_2 1_555 1_555
H2_2 C7_2 1_555 1_555
C8_2 O22_2 1_555 1_555
H3_2 C8_2 1_555 1_555
H4_2 C8_2 1_555 1_555
H5_2 C8_2 1_555 1_555
C9_2 O23_2 1_555 1_555
H6_2 C9_2 1_555 1_555
H7_2 C9_2 1_555 1_555
H8_2 C9_2 1_555 1_555
C19_2 O14_2 1_555 1_555
H14_2 C19_2 1_555 1_555
H15_2 C19_2 1_555 1_555
H16_2 C19_2 1_555 1_555
C29_2 C30_2 1_555 1_555
C30_2 C31_2 1_555 1_555
C31_2 H25_2 1_555 1_555
C32_2 C31_2 1_555 1_555
C33_2 O18_2 1_555 1_555
H26_2 C33_2 1_555 1_555
H27_2 C33_2 1_555 1_555
H28_2 C33_2 1_555 1_555
C34_2 C5_2 1_555 1_555
C35_2 C34_2 1_555 1_555
C36_2 C30_2 1_555 1_555
H29_2 C36_2 1_555 1_555
C53_2 O19_2 1_555 1_555
H43_2 C53_2 1_555 1_555
H44_2 C53_2 1_555 1_555
H45_2 C53_2 1_555 1_555
O26_2 Pb11 1_555 1_555
N1_2 C55_2 1_555 1_555
C55_2 O26_2 1_555 1_555
C57_2 N1_2 1_555 1_555
H52_2 C57_2 1_555 1_555
H53_2 C57_2 1_555 1_555
H54_2 C57_2 1_555 1_555
Pb6 O8 1_555 1_555
Pb14 O8 1_555 1_555
O3_2 C1_2 1_555 1_555
C6_2 C7_2 1_555 1_555
C32_2 C34_2 1_555 1_555
C35_2 C36_2 1_555 1_555
Pb6 O27 1_555 1_555
Pb14 O10_2 1_555 1_555
O4_2 Pb6 1_555 1_555
O31 C10_2 1_555 1_555
O10_2 Pb6 1_555 1_555
O11_2 Pb14 1_555 1_555
O17_2 C25_2 1_555 1_555
C10_2 O4_2 1_555 1_555
C11_2 C10_2 1_555 1_555
C12_2 C11_2 1_555 1_555
H9_2 C12_2 1_555 1_555
C16_2 C11_2 1_555 1_555
C20_2 O10_2 1_555 1_555
C21_2 C20_2 1_555 1_555
C22_2 C21_2 1_555 1_555
H17_2 C22_2 1_555 1_555
C23_2 C22_2 1_555 1_555
C24_2 C23_2 1_555 1_555
C25_2 C24_2 1_555 1_555
C26_2 C21_2 1_555 1_555
H18_2 C26_2 1_555 1_555
C28_2 O17_2 1_555 1_555
H22_2 C28_2 1_555 1_555
H23_2 C28_2 1_555 1_555
H24_2 C28_2 1_555 1_555
O36 Pb14 1_555 1_555
O11_2 C20_2 1_555 1_555
C15_2 C16_2 1_555 1_555
C25_2 C26_2 1_555 1_555
O28 C45_2 1_555 1_555
O30 C45_2 1_555 1_555
O35 C37_2 1_555 1_555
O15_2 C13_2 1_555 1_555
O20_2 C43_2 1_555 1_555
O21_2 C40_2 1_555 1_555
O24_2 C50_2 1_555 1_555
O25_2 C48_2 1_555 1_555
C14_2 C13_2 1_555 1_555
C17_2 C14_2 1_555 1_555
C18_2 O15_2 1_555 1_555
H11_2 C18_2 1_555 1_555
H12_2 C18_2 1_555 1_555
H13_2 C18_2 1_555 1_555
C27_2 O16_2 1_555 1_555
H19_2 C27_2 1_555 1_555
C37_2 C38_2 1_555 1_555
C38_2 C39_2 1_555 1_555
C39_2 H30_2 1_555 1_555
C40_2 C17_2 1_555 1_555
C41_2 O21_2 1_555 1_555
H32_2 C41_2 1_555 1_555
C42_2 C38_2 1_555 1_555
C43_2 C17_2 1_555 1_555
C45_2 C46_2 1_555 1_555
C46_2 C47_2 1_555 1_555
C47_2 H38_2 1_555 1_555
C48_2 C47_2 1_555 1_555
C50_2 C49_2 1_555 1_555
C51_2 C46_2 1_555 1_555
H39_2 C51_2 1_555 1_555
C52_2 O25_2 1_555 1_555
H40_2 C52_2 1_555 1_555
H41_2 C52_2 1_555 1_555
H42_2 C52_2 1_555 1_555
C54_2 O24_2 1_555 1_555
H46_2 C54_2 1_555 1_555
H47_2 C54_2 1_555 1_555
H48_2 C54_2 1_555 1_555
C39_2 C40_2 1_555 1_555
C42_2 C43_2 1_555 1_555
C48_2 C49_2 1_555 1_555
C50_2 C51_2 1_555 1_555
H35_2 C44_2 1_555 1_555
H36_2 C44_2 1_555 1_555
H37_2 C44_2 1_555 1_555
H50 C56 1_555 1_555
H51 C56 1_555 1_555
H55 C58 1_555 1_555
H56 C58 1_555 1_555
H57 C58 1_555 1_555
H50_2 C56_2 1_555 1_555
H51_2 C56_2 1_555 1_555
H55_2 C58_2 1_555 1_555
H56_2 C58_2 1_555 1_555
H57_2 C58_2 1_555 1_555

#END
