
###############################################################################
#
# This file contains modified crystal structure data generated from the
# MOF subset of the Cambridge Structural Database (CSD) v543 
# hosted by the Cambridge Crystallographic Data Centre (CCDC).
#
# This work is licensed under the Creative Commons
# Attribution-NonCommercial-ShareAlike 4.0 International License.
# To view a copy of this license, visit
# http://creativecommons.org/licenses/by-nc-sa/4.0/
# or send a letter to
# Creative Commons, PO Box 1866, Mountain View, CA 94042, USA.
#
# CIF created using the CSD Python API on 29 September 2022
# The structure has been converted into the P1 space group
# The structure has a 3D framework
# The original CSD entry HAYYUE is in the rhombohedral crystal system
# The framework has been calculated to contain at least 10.0% void space
# The void calculation uses a probe of radius 1.32A, grid spacing 0.4
#
###############################################################################

data_HAYYUE
_chemical_formula_moiety         '(C54 H18 Cl9 Fe16 N60)n'
_symmetry_cell_setting           triclinic
_symmetry_space_group_name_H-M   'P 1'
_symmetry_Int_Tables_number      1
_space_group_name_Hall           'P 1'
loop_
_symmetry_equiv_pos_site_id
_symmetry_equiv_pos_as_xyz
1 x,y,z
_cell_length_a                   25.1565(12)
_cell_length_b                   25.1565(12)
_cell_length_c                   8.2321(4)
_cell_angle_alpha                90
_cell_angle_beta                 90
_cell_angle_gamma                120
_cell_volume                     4511.72
loop_
_atom_site_label
_atom_site_type_symbol
_atom_site_fract_x
_atom_site_fract_y
_atom_site_fract_z
_atom_site_U_iso_or_equiv
_atom_site_thermal_displace_type
N1 N 0.2559(9) 0.3116(7) 0.2092(18) 0.0460 Uiso
N2 N 0.2940(10) 0.333333 0.333333 0.0460 Uiso
C1 C 0.2100(8) 0.3238(5) 0.2516(8) 0.0460 Uiso
C2 C 0.1535(11) 0.307(1) 0.1730(17) 0.0460 Uiso
H1 H 0.143327 0.286655 0.056898 0.0460 Uiso
Fe1 Fe 0.28877(19) 0.28877(19) 0.000000 0.0520 Uiso
Cl1 Cl 0.333333 0.2438(4) 0.166667 0.0770 Uiso
N3 N 0.0557(11) 0.3116(7) 0.2092(18) 0.0460 Uiso
N4 N 0.0393(10) 0.333333 0.333333 0.0460 Uiso
C3 C 0.1138(9) 0.3238(5) 0.2516(8) 0.0460 Uiso
N5 N 0.0774(9) 0.3551(7) 0.4575(18) 0.0460 Uiso
C4 C 0.1233(8) 0.3429(5) 0.4151(8) 0.0460 Uiso
C5 C 0.1798(11) 0.360(1) 0.4937(17) 0.0460 Uiso
H2 H 0.190006 0.380012 0.609769 0.0460 Uiso
N6 N 0.2776(11) 0.3551(7) 0.4575(18) 0.0460 Uiso
C6 C 0.2195(9) 0.3429(5) 0.4151(8) 0.0460 Uiso
Fe2 Fe 0.00000(27) 0.28877(19) 0.000000 0.0520 Uiso
N9 N 0.3727(10) 0.3727(10) 0.000000 0.0460 Uiso
N10 N -0.000000 0.3727(10) 0.000000 0.0460 Uiso
Fe3 Fe 0.37790(19) 0.33333(27) 0.333333 0.0520 Uiso
Fe5 Fe 0.04456(19) 0.37790(19) 0.666667 0.0520 Uiso
Fe6 Fe 0.33333(27) 0.37790(19) 0.666667 0.0520 Uiso
Fe1_2 Fe 0.28877(19) 0.28877(19) 1.000000 0.0520 Uiso
Fe2_2 Fe -0.00000(27) 0.28877(19) 1.000000 0.0520 Uiso
N7 N 0.3116(7) 0.2559(9) 0.7908(18) 0.0460 Uiso
N9_2 N 0.3727(10) 0.3727(10) 1.000000 0.0460 Uiso
N10_2 N -0.000000 0.3727(10) 1.000000 0.0460 Uiso
Cl3 Cl 0.2438(4) 0.333333 0.833333 0.0770 Uiso
Cl4 Cl 0.08953(40) 0.333333 0.833333 0.0770 Uiso
Fe2_3 Fe 1.00000(27) 0.28877(19) 0.000000 0.0520 Uiso
Cl2 Cl 0.91047(40) 0.2438(4) 0.166667 0.0770 Uiso
N10_3 N 1.000000 0.3727(10) 0.000000 0.0460 Uiso
Fe4 Fe 0.95544(19) 0.33333(27) 0.333333 0.0520 Uiso
Fe2_4 Fe 1.00000(27) 0.28877(19) 1.000000 0.0520 Uiso
N8 N 0.9443(11) 0.2559(9) 0.7908(18) 0.0460 Uiso
N10_4 N 1.000000 0.3727(10) 1.000000 0.0460 Uiso
Fe1_3 Fe 0.71123(19) 0.00000(27) 0.000000 0.0520 Uiso
N9_3 N 0.6273(10) -0.0000(14) -0.000000 0.0460 Uiso
Cl3_2 Cl 0.7562(4) 0.08953(40) 0.166667 0.0770 Uiso
N1_2 N 0.7441(9) 0.0557(11) 0.7908(18) 0.0460 Uiso
N2_2 N 0.7060(10) 0.0393(10) 0.666667 0.0460 Uiso
C1_2 C 0.7900(8) 0.1138(9) 0.7484(8) 0.0460 Uiso
C2_2 C 0.8465(11) 0.1535(15) 0.8270(17) 0.0460 Uiso
H1_2 H 0.856673 0.143328 0.943102 0.0460 Uiso
Fe1_4 Fe 0.71123(19) 0.00000(27) 1.000000 0.0520 Uiso
N4_2 N 0.9607(10) 0.2940(10) 0.666667 0.0460 Uiso
C3_2 C 0.8862(9) 0.2100(10) 0.7484(8) 0.0460 Uiso
N5_2 N 0.9226(9) 0.2776(11) 0.5425(18) 0.0460 Uiso
C4_2 C 0.8767(8) 0.2195(9) 0.5849(8) 0.0460 Uiso
C5_2 C 0.8202(11) 0.1798(15) 0.5063(17) 0.0460 Uiso
H2_2 H 0.809994 0.190005 0.390231 0.0460 Uiso
N6_2 N 0.7224(11) 0.0774(13) 0.5425(18) 0.0460 Uiso
C6_2 C 0.7805(9) 0.1233(10) 0.5849(8) 0.0460 Uiso
N9_4 N 0.6273(10) -0.0000(14) 1.000000 0.0460 Uiso
Fe6_2 Fe 0.66667(27) 0.04456(33) 0.333333 0.0520 Uiso
Fe1_5 Fe 0.71123(19) 1.00000(27) 0.000000 0.0520 Uiso
N7_2 N 0.6884(7) 0.9443(11) 0.2092(18) 0.0460 Uiso
N9_5 N 0.6273(10) 1.0000(14) -0.000000 0.0460 Uiso
Fe1_6 Fe 0.71123(19) 1.00000(27) 1.000000 0.0520 Uiso
Cl1_2 Cl 0.666667 0.91047(40) 0.833333 0.0770 Uiso
N9_6 N 0.6273(10) 1.0000(14) 1.000000 0.0460 Uiso
Fe3_2 Fe 0.62210(19) 0.95544(33) 0.666667 0.0520 Uiso
Fe2_5 Fe 0.28877(33) 0.00000(27) 0.000000 0.0520 Uiso
Cl2_2 Cl 0.33333(57) 0.08953(40) 0.166667 0.0770 Uiso
N10_5 N 0.3727(10) 0.000000 0.000000 0.0460 Uiso
Fe4_2 Fe 0.37790(33) 0.04456(19) 0.333333 0.0520 Uiso
Fe2_6 Fe 0.28877(33) 0.00000(27) 1.000000 0.0520 Uiso
N8_2 N 0.3116(14) 0.0557(11) 0.7908(18) 0.0460 Uiso
N10_6 N 0.3727(10) 0.000000 1.000000 0.0460 Uiso
N1_3 N 0.0557(11) 0.7441(9) 0.2092(18) 0.0460 Uiso
N2_3 N 0.0393(10) 0.7060(10) 0.333333 0.0460 Uiso
C1_3 C 0.1138(9) 0.7900(8) 0.2516(8) 0.0460 Uiso
C2_3 C 0.1535(15) 0.8465(11) 0.1730(17) 0.0460 Uiso
H1_3 H 0.143328 0.856673 0.056898 0.0460 Uiso
Fe1_7 Fe 0.00000(27) 0.71123(19) 0.000000 0.0520 Uiso
N3_2 N 0.2559(13) 0.9443(11) 0.2092(18) 0.0460 Uiso
N4_3 N 0.2940(10) 0.9607(10) 0.333333 0.0460 Uiso
C3_3 C 0.2100(10) 0.8862(9) 0.2516(8) 0.0460 Uiso
N5_3 N 0.2776(11) 0.9226(9) 0.4575(18) 0.0460 Uiso
C4_3 C 0.2195(9) 0.8767(8) 0.4151(8) 0.0460 Uiso
C5_3 C 0.1798(15) 0.8202(11) 0.4937(17) 0.0460 Uiso
H2_3 H 0.190005 0.809994 0.609769 0.0460 Uiso
N6_3 N 0.0774(13) 0.7224(11) 0.4575(18) 0.0460 Uiso
C6_3 C 0.1233(10) 0.7805(9) 0.4151(8) 0.0460 Uiso
Fe2_7 Fe 0.28877(33) 1.00000(27) 0.000000 0.0520 Uiso
N9_7 N -0.0000(14) 0.6273(10) 0.000000 0.0460 Uiso
N10_7 N 0.3727(10) 1.000000 0.000000 0.0460 Uiso
Fe5_2 Fe 0.33333(27) 0.95544(19) 0.666667 0.0520 Uiso
Fe6_3 Fe 0.04456(33) 0.66667(27) 0.666667 0.0520 Uiso
Fe1_8 Fe -0.00000(27) 0.71123(19) 1.000000 0.0520 Uiso
Fe2_8 Fe 0.28877(33) 1.00000(27) 1.000000 0.0520 Uiso
N9_8 N -0.0000(14) 0.6273(10) 1.000000 0.0460 Uiso
N10_8 N 0.3727(10) 1.000000 1.000000 0.0460 Uiso
Cl3_3 Cl 0.08953(40) 0.7562(4) 0.833333 0.0770 Uiso
Cl4_2 Cl 0.24380(40) 0.91047(40) 0.833333 0.0770 Uiso
Fe1_9 Fe 1.00000(27) 0.71123(19) 0.000000 0.0520 Uiso
Cl1_3 Cl 0.91047(40) 0.666667 0.166667 0.0770 Uiso
N9_9 N 1.0000(14) 0.6273(10) 0.000000 0.0460 Uiso
Fe3_3 Fe 0.95544(33) 0.62210(19) 0.333333 0.0520 Uiso
Fe1_10 Fe 1.00000(27) 0.71123(19) 1.000000 0.0520 Uiso
N7_3 N 0.9443(11) 0.6884(7) 0.7908(18) 0.0460 Uiso
N9_10 N 1.0000(14) 0.6273(10) 1.000000 0.0460 Uiso
N2_4 N 0.666667 0.9607(10) 0.333333 0.0460 Uiso
C1_4 C 0.6762(5) 0.8862(9) 0.2516(8) 0.0460 Uiso
C2_4 C 0.693(1) 0.8465(15) 0.1730(17) 0.0460 Uiso
H1_4 H 0.713345 0.856672 0.056898 0.0460 Uiso
N3_3 N 0.6884(7) 0.7441(13) 0.2092(18) 0.0460 Uiso
N4_4 N 0.666667 0.7060(10) 0.333333 0.0460 Uiso
C3_4 C 0.6762(5) 0.7900(10) 0.2516(8) 0.0460 Uiso
N5_4 N 0.6449(7) 0.7224(11) 0.4575(18) 0.0460 Uiso
C4_4 C 0.6571(5) 0.7805(9) 0.4151(8) 0.0460 Uiso
C5_4 C 0.640(1) 0.8202(15) 0.4937(17) 0.0460 Uiso
H2_4 H 0.619988 0.809995 0.609769 0.0460 Uiso
N6_4 N 0.6449(7) 0.9226(13) 0.4575(18) 0.0460 Uiso
C6_4 C 0.6571(5) 0.8767(10) 0.4151(8) 0.0460 Uiso
Fe2_9 Fe 0.71123(19) 0.71123(33) 0.000000 0.0520 Uiso
Cl2_3 Cl 0.7562(4) 0.66667(57) 0.166667 0.0770 Uiso
N10_9 N 0.6273(10) 0.6273(10) 0.000000 0.0460 Uiso
Fe4_3 Fe 0.66667(27) 0.62210(33) 0.333333 0.0520 Uiso
Fe5_3 Fe 0.62210(19) 0.66667(27) 0.666667 0.0520 Uiso
Fe2_10 Fe 0.71123(19) 0.71123(33) 1.000000 0.0520 Uiso
N8_3 N 0.7441(9) 0.6884(14) 0.7908(18) 0.0460 Uiso
N10_10 N 0.6273(10) 0.6273(10) 1.000000 0.0460 Uiso
Cl4_3 Cl 0.666667 0.75620(40) 0.833333 0.0770 Uiso
N2_5 N 0.333333 0.2940(10) 0.666667 0.0460 Uiso
C1_5 C 0.3238(5) 0.2100(8) 0.7484(8) 0.0460 Uiso
C2_5 C 0.307(1) 0.1535(11) 0.8270(17) 0.0460 Uiso
H1_5 H 0.286655 0.143327 0.943102 0.0460 Uiso
N4_5 N 0.333333 0.0393(10) 0.666667 0.0460 Uiso
C3_5 C 0.3238(5) 0.1138(9) 0.7484(8) 0.0460 Uiso
N5_5 N 0.3551(7) 0.0774(9) 0.5425(18) 0.0460 Uiso
C4_5 C 0.3429(5) 0.1233(8) 0.5849(8) 0.0460 Uiso
C5_5 C 0.360(1) 0.1798(11) 0.5063(17) 0.0460 Uiso
H2_5 H 0.380012 0.190006 0.390231 0.0460 Uiso
N6_5 N 0.3551(7) 0.2776(11) 0.5425(18) 0.0460 Uiso
C6_5 C 0.3429(5) 0.2195(9) 0.5849(8) 0.0460 Uiso
N2_6 N 0.9607(10) 0.666667 0.666667 0.0460 Uiso
C1_6 C 0.8862(9) 0.6762(5) 0.7484(8) 0.0460 Uiso
C2_6 C 0.8465(15) 0.693(1) 0.8270(17) 0.0460 Uiso
H1_6 H 0.856672 0.713345 0.943102 0.0460 Uiso
N4_6 N 0.7060(10) 0.666667 0.666667 0.0460 Uiso
C3_6 C 0.7900(10) 0.6762(5) 0.7484(8) 0.0460 Uiso
N5_6 N 0.7224(11) 0.6449(7) 0.5425(18) 0.0460 Uiso
C4_6 C 0.7805(9) 0.6571(5) 0.5849(8) 0.0460 Uiso
C5_6 C 0.8202(15) 0.640(1) 0.5063(17) 0.0460 Uiso
H2_6 H 0.809995 0.619988 0.390231 0.0460 Uiso
N6_6 N 0.9226(13) 0.6449(7) 0.5425(18) 0.0460 Uiso
C6_6 C 0.8767(10) 0.6571(5) 0.5849(8) 0.0460 Uiso
N1_4 N 0.4108(9) 0.3890(11) 0.1241(18) 0.0460 Uiso
C1_7 C 0.4567(8) 0.4471(9) 0.0817(8) 0.0460 Uiso
C2_7 C 0.5132(11) 0.4868(15) 0.1603(17) 0.0460 Uiso
H1_7 H 0.523340 0.476661 0.276435 0.0460 Uiso
N3_4 N 0.6110(11) 0.5892(13) 0.1241(18) 0.0460 Uiso
C3_7 C 0.5529(9) 0.5433(10) 0.0817(8) 0.0460 Uiso
Cl3_4 Cl 0.4229(4) 0.42287(40) 0.500000 0.0770 Uiso
Cl4_4 Cl 0.57713(40) 0.57713(40) 0.500000 0.0770 Uiso
N5_7 N 0.5892(9) 0.6110(11) 0.8759(18) 0.0460 Uiso
C4_7 C 0.5433(8) 0.5529(9) 0.9183(8) 0.0460 Uiso
C5_7 C 0.4868(11) 0.5132(15) 0.8397(17) 0.0460 Uiso
H2_7 H 0.476660 0.523339 0.723565 0.0460 Uiso
N6_7 N 0.3890(11) 0.4108(13) 0.8759(18) 0.0460 Uiso
C6_7 C 0.4471(9) 0.4567(10) 0.9183(8) 0.0460 Uiso
Cl2_4 Cl -0.00000(57) 0.42287(40) 0.500000 0.0770 Uiso
Cl1_4 Cl 0.57713(40) 0.000000 0.500000 0.0770 Uiso
Cl2_5 Cl 1.00000(57) 0.42287(40) 0.500000 0.0770 Uiso
N7_4 N 0.6110(11) 0.0217(7) 0.1241(18) 0.0460 Uiso
N8_4 N 0.9783(14) 0.3890(11) 0.1241(18) 0.0460 Uiso
Cl1_5 Cl 0.57713(40) 1.000000 0.500000 0.0770 Uiso
Cl2_6 Cl 0.4229(4) 0.00000(57) 0.500000 0.0770 Uiso
N8_5 N 0.4108(9) 0.0217(14) 0.1241(18) 0.0460 Uiso
Cl2_7 Cl 0.4229(4) 1.00000(57) 0.500000 0.0770 Uiso
Cl3_5 Cl -0.000000 0.5771(4) 0.500000 0.0770 Uiso
N5_8 N 0.0217(7) 0.4108(9) 0.8759(18) 0.0460 Uiso
C4_8 C 0.0095(5) 0.4567(8) 0.9183(8) 0.0460 Uiso
C5_8 C 0.026(1) 0.5132(11) 0.8397(17) 0.0460 Uiso
H2_8 H 0.046678 0.523340 0.723565 0.0460 Uiso
N6_8 N 0.0217(7) 0.6110(11) 0.8759(18) 0.0460 Uiso
C6_8 C 0.0095(5) 0.5529(9) 0.9183(8) 0.0460 Uiso
N1_5 N 0.9783(7) 0.5892(9) 0.1241(18) 0.0460 Uiso
C1_8 C 0.9905(5) 0.5433(8) 0.0817(8) 0.0460 Uiso
C2_8 C 0.974(1) 0.4868(11) 0.1603(17) 0.0460 Uiso
H1_8 H 0.953322 0.476660 0.276435 0.0460 Uiso
C3_8 C 0.9905(5) 0.4471(9) 0.0817(8) 0.0460 Uiso
Cl3_6 Cl 1.000000 0.5771(4) 0.500000 0.0770 Uiso
C1_9 C 0.5529(9) 0.0095(5) 0.0817(8) 0.0460 Uiso
C2_9 C 0.5132(15) 0.026(1) 0.1603(17) 0.0460 Uiso
H1_9 H 0.523339 0.046678 0.276435 0.0460 Uiso
C3_9 C 0.4567(10) 0.0095(5) 0.0817(8) 0.0460 Uiso
N5_9 N 0.3890(11) 0.9783(7) 0.8759(18) 0.0460 Uiso
C4_9 C 0.4471(9) 0.9905(5) 0.9183(8) 0.0460 Uiso
C5_9 C 0.4868(15) 0.974(1) 0.8397(17) 0.0460 Uiso
H2_9 H 0.476661 0.953322 0.723565 0.0460 Uiso
N6_9 N 0.5892(13) 0.9783(7) 0.8759(18) 0.0460 Uiso
C6_9 C 0.5433(10) 0.9905(5) 0.9183(8) 0.0460 Uiso
loop_
_geom_bond_atom_site_label_1
_geom_bond_atom_site_label_2
_geom_bond_site_symmetry_1
_geom_bond_site_symmetry_2
N1 N2 1_555 1_555
N2 N6 1_555 1_555
C1 N1 1_555 1_555
C2 C1 1_555 1_555
H1 C2 1_555 1_555
Fe1 N1 1_555 1_555
Cl1 Fe1 1_555 1_555
N3 N4 1_555 1_555
N4 N5 1_555 1_555
C3 C2 1_555 1_555
N5 C4 1_555 1_555
C4 C3 1_555 1_555
C5 C4 1_555 1_555
H2 C5 1_555 1_555
N6 C6 1_555 1_555
C6 C1 1_555 1_555
Fe2 N3 1_555 1_555
N9 Fe1 1_555 1_555
N10 Fe2 1_555 1_555
Fe3 N2 1_555 1_555
Fe5 N5 1_555 1_555
Fe6 N6 1_555 1_555
Cl1 Fe3 1_555 1_555
N3 C3 1_555 1_555
C5 C6 1_555 1_555
N7 Fe1_2 1_555 1_555
N9_2 Fe1_2 1_555 1_555
N10_2 Fe2_2 1_555 1_555
Cl3 Fe1_2 1_555 1_555
Cl4 Fe2_2 1_555 1_555
Cl2 Fe2_3 1_555 1_555
N10_3 Fe2_3 1_555 1_555
Cl2 Fe4 1_555 1_555
N8 Fe2_4 1_555 1_555
N10_4 Fe2_4 1_555 1_555
Cl4 Fe5 1_555 1_555
N9_3 Fe1_3 1_555 1_555
Cl3_2 Fe1_3 1_555 1_555
N1_2 N2_2 1_555 1_555
N2_2 N6_2 1_555 1_555
C1_2 N1_2 1_555 1_555
C2_2 C1_2 1_555 1_555
H1_2 C2_2 1_555 1_555
Fe1_4 N1_2 1_555 1_555
N8 N4_2 1_555 1_555
N4_2 N5_2 1_555 1_555
C3_2 C2_2 1_555 1_555
N5_2 C4_2 1_555 1_555
C4_2 C3_2 1_555 1_555
C5_2 C4_2 1_555 1_555
H2_2 C5_2 1_555 1_555
N6_2 C6_2 1_555 1_555
C6_2 C1_2 1_555 1_555
N9_4 Fe1_4 1_555 1_555
Fe4 N5_2 1_555 1_555
Fe6_2 N6_2 1_555 1_555
N8 C3_2 1_555 1_555
C5_2 C6_2 1_555 1_555
N7_2 Fe1_5 1_555 1_555
N9_5 Fe1_5 1_555 1_555
Cl1_2 Fe1_6 1_555 1_555
N9_6 Fe1_6 1_555 1_555
Cl1_2 Fe3_2 1_555 1_555
Cl2_2 Fe2_5 1_555 1_555
N10_5 Fe2_5 1_555 1_555
Cl2_2 Fe4_2 1_555 1_555
N8_2 Fe2_6 1_555 1_555
N10_6 Fe2_6 1_555 1_555
N1_3 N2_3 1_555 1_555
N2_3 N6_3 1_555 1_555
C1_3 N1_3 1_555 1_555
C2_3 C1_3 1_555 1_555
H1_3 C2_3 1_555 1_555
Fe1_7 N1_3 1_555 1_555
N3_2 N4_3 1_555 1_555
N4_3 N5_3 1_555 1_555
C3_3 C2_3 1_555 1_555
N5_3 C4_3 1_555 1_555
C4_3 C3_3 1_555 1_555
C5_3 C4_3 1_555 1_555
H2_3 C5_3 1_555 1_555
N6_3 C6_3 1_555 1_555
C6_3 C1_3 1_555 1_555
Fe2_7 N3_2 1_555 1_555
N9_7 Fe1_7 1_555 1_555
N10_7 Fe2_7 1_555 1_555
Fe5_2 N5_3 1_555 1_555
Fe6_3 N6_3 1_555 1_555
N3_2 C3_3 1_555 1_555
C5_3 C6_3 1_555 1_555
N9_8 Fe1_8 1_555 1_555
N10_8 Fe2_8 1_555 1_555
Cl3_3 Fe1_8 1_555 1_555
Cl4_2 Fe2_8 1_555 1_555
Cl1_3 Fe1_9 1_555 1_555
N9_9 Fe1_9 1_555 1_555
Cl1_3 Fe3_3 1_555 1_555
N7_3 Fe1_10 1_555 1_555
N9_10 Fe1_10 1_555 1_555
Cl3_2 Fe6_2 1_555 1_555
N7_2 N2_4 1_555 1_555
N2_4 N6_4 1_555 1_555
C1_4 N7_2 1_555 1_555
C2_4 C1_4 1_555 1_555
H1_4 C2_4 1_555 1_555
N3_3 N4_4 1_555 1_555
N4_4 N5_4 1_555 1_555
C3_4 C2_4 1_555 1_555
N5_4 C4_4 1_555 1_555
C4_4 C3_4 1_555 1_555
C5_4 C4_4 1_555 1_555
H2_4 C5_4 1_555 1_555
N6_4 C6_4 1_555 1_555
C6_4 C1_4 1_555 1_555
Fe2_9 N3_3 1_555 1_555
Cl2_3 Fe2_9 1_555 1_555
N10_9 Fe2_9 1_555 1_555
Fe4_3 N4_4 1_555 1_555
Fe5_3 N5_4 1_555 1_555
Fe3_2 N6_4 1_555 1_555
N3_3 C3_4 1_555 1_555
C5_4 C6_4 1_555 1_555
Cl2_3 Fe4_3 1_555 1_555
N8_3 Fe2_10 1_555 1_555
N10_10 Fe2_10 1_555 1_555
Cl4_3 Fe2_10 1_555 1_555
N7 N2_5 1_555 1_555
N2_5 N6_5 1_555 1_555
C1_5 N7 1_555 1_555
C2_5 C1_5 1_555 1_555
H1_5 C2_5 1_555 1_555
N8_2 N4_5 1_555 1_555
N4_5 N5_5 1_555 1_555
C3_5 C2_5 1_555 1_555
N5_5 C4_5 1_555 1_555
C4_5 C3_5 1_555 1_555
C5_5 C4_5 1_555 1_555
H2_5 C5_5 1_555 1_555
N6_5 C6_5 1_555 1_555
C6_5 C1_5 1_555 1_555
Fe6 N2_5 1_555 1_555
Fe4_2 N5_5 1_555 1_555
Fe3 N6_5 1_555 1_555
Cl3 Fe6 1_555 1_555
N8_2 C3_5 1_555 1_555
C5_5 C6_5 1_555 1_555
Cl4_2 Fe5_2 1_555 1_555
Cl3_3 Fe6_3 1_555 1_555
N7_3 N2_6 1_555 1_555
N2_6 N6_6 1_555 1_555
C1_6 N7_3 1_555 1_555
C2_6 C1_6 1_555 1_555
H1_6 C2_6 1_555 1_555
N8_3 N4_6 1_555 1_555
N4_6 N5_6 1_555 1_555
C3_6 C2_6 1_555 1_555
N5_6 C4_6 1_555 1_555
C4_6 C3_6 1_555 1_555
C5_6 C4_6 1_555 1_555
H2_6 C5_6 1_555 1_555
N6_6 C6_6 1_555 1_555
C6_6 C1_6 1_555 1_555
Fe5_3 N4_6 1_555 1_555
Fe4_3 N5_6 1_555 1_555
Fe3_3 N6_6 1_555 1_555
N8_3 C3_6 1_555 1_555
C5_6 C6_6 1_555 1_555
Cl4_3 Fe5_3 1_555 1_555
N1_4 N9 1_555 1_555
C1_7 N1_4 1_555 1_555
C2_7 C1_7 1_555 1_555
H1_7 C2_7 1_555 1_555
Fe3 N1_4 1_555 1_555
N3_4 N10_9 1_555 1_555
C3_7 C2_7 1_555 1_555
Fe4_3 N3_4 1_555 1_555
Cl3_4 Fe3 1_555 1_555
Cl4_4 Fe4_3 1_555 1_555
N3_4 C3_7 1_555 1_555
N9_2 N6_7 1_555 1_555
N10_10 N5_7 1_555 1_555
N5_7 C4_7 1_555 1_555
C5_7 C4_7 1_555 1_555
H2_7 C5_7 1_555 1_555
N6_7 C6_7 1_555 1_555
Fe5_3 N5_7 1_555 1_555
Fe6 N6_7 1_555 1_555
C5_7 C6_7 1_555 1_555
Cl2_4 Fe5 1_555 1_555
Cl1_4 Fe6_2 1_555 1_555
Cl2_5 Fe4 1_555 1_555
N7_4 Fe6_2 1_555 1_555
N8_4 Fe4 1_555 1_555
Cl1_5 Fe3_2 1_555 1_555
Cl2_6 Fe4_2 1_555 1_555
N8_5 Fe4_2 1_555 1_555
Cl3_4 Fe6 1_555 1_555
Cl2_7 Fe5_2 1_555 1_555
N9_8 N6_8 1_555 1_555
N10_2 N5_8 1_555 1_555
N5_8 C4_8 1_555 1_555
C5_8 C4_8 1_555 1_555
H2_8 C5_8 1_555 1_555
N6_8 C6_8 1_555 1_555
Fe5 N5_8 1_555 1_555
Fe6_3 N6_8 1_555 1_555
C5_8 C6_8 1_555 1_555
N1_5 N9_9 1_555 1_555
C1_8 N1_5 1_555 1_555
C2_8 C1_8 1_555 1_555
H1_8 C2_8 1_555 1_555
Fe3_3 N1_5 1_555 1_555
N8_4 N10_3 1_555 1_555
C3_8 C2_8 1_555 1_555
Cl3_6 Fe3_3 1_555 1_555
N8_4 C3_8 1_555 1_555
N7_4 N9_3 1_555 1_555
C1_9 N7_4 1_555 1_555
C2_9 C1_9 1_555 1_555
H1_9 C2_9 1_555 1_555
N8_5 N10_5 1_555 1_555
C3_9 C2_9 1_555 1_555
N8_5 C3_9 1_555 1_555
N9_6 N6_9 1_555 1_555
N10_8 N5_9 1_555 1_555
N5_9 C4_9 1_555 1_555
C5_9 C4_9 1_555 1_555
H2_9 C5_9 1_555 1_555
N6_9 C6_9 1_555 1_555
Fe5_2 N5_9 1_555 1_555
Fe3_2 N6_9 1_555 1_555
C5_9 C6_9 1_555 1_555
Cl3_5 Fe6_3 1_555 1_555
Cl4_4 Fe5_3 1_555 1_555

#END
