
###############################################################################
#
# This file contains modified crystal structure data generated from the
# MOF subset of the Cambridge Structural Database (CSD) v543 
# hosted by the Cambridge Crystallographic Data Centre (CCDC).
#
# This work is licensed under the Creative Commons
# Attribution-NonCommercial-ShareAlike 4.0 International License.
# To view a copy of this license, visit
# http://creativecommons.org/licenses/by-nc-sa/4.0/
# or send a letter to
# Creative Commons, PO Box 1866, Mountain View, CA 94042, USA.
#
# CIF created using the CSD Python API on 29 September 2022
# The structure has been converted into the P1 space group
# The structure has a 3D framework
# The original CSD entry HAZGOF01 is in the monoclinic crystal system
# The framework has been calculated to contain at least 10.0% void space
# The void calculation uses a probe of radius 1.32A, grid spacing 0.4
# H atom positions have been added when not included in the experimental data
#
###############################################################################

data_HAZGOF01
_chemical_formula_moiety         '(C96 H48 O48 Sc9)n'
_symmetry_cell_setting           triclinic
_symmetry_space_group_name_H-M   'P 1'
_symmetry_Int_Tables_number      1
_space_group_name_Hall           'P 1'
loop_
_symmetry_equiv_pos_site_id
_symmetry_equiv_pos_as_xyz
1 x,y,z
_cell_length_a                   8.75434(14)
_cell_length_b                   34.38536(13)
_cell_length_c                   11.14542(8)
_cell_angle_alpha                90
_cell_angle_beta                 111.4791(8)
_cell_angle_gamma                90
_cell_volume                     3122.01
loop_
_atom_site_label
_atom_site_type_symbol
_atom_site_fract_x
_atom_site_fract_y
_atom_site_fract_z
_atom_site_U_iso_or_equiv
_atom_site_thermal_displace_type
Sc3 Sc -0.00000 0.36604(11) 0.25000 0.0001 Uiso
Sc3_2 Sc 1.00000 0.36604(11) 0.25000 0.0001 Uiso
Sc7 Sc 0.50000 0.38714(11) 0.25000 0.0001 Uiso
O7 O 0.7963(4) 0.36537(16) 0.0768(4) 0.0001 Uiso
O9 O 0.5786(4) 0.38742(15) 0.09409(26) 0.0001 Uiso
C13 C 0.6484(4) 0.37482(22) 0.02185(22) 0.0108 Uiso
O1 O 0.2037(4) 0.36537(16) 0.4232(4) 0.0001 Uiso
O2 O 0.4214(4) 0.38742(15) 0.40591(26) 0.0001 Uiso
O3 O 0.1151(4) 0.40831(9) 0.18076(31) 0.0001 Uiso
O4 O 0.32673(29) 0.43037(13) 0.1614(5) 0.0001 Uiso
C1 C 0.3516(4) 0.37482(22) 0.47815(22) 0.0108 Uiso
C2 C 0.42794(30) 0.3784(4) 0.61758(12) 0.0108 Uiso
C3 C 0.33183(17) 0.3743(5) 0.69110(22) 0.0108 Uiso
C4 C 0.59598(20) 0.3751(5) 0.67608(16) 0.0108 Uiso
C5 C 0.17693(31) 0.43548(9) 0.1389(4) 0.0108 Uiso
C6 C 0.08434(27) 0.46751(5) 0.0612(4) 0.0108 Uiso
C8 C 0.16674(17) 0.49775(9) 0.0299(4) 0.0108 Uiso
Sc9 Sc 0.00000 0.11286(11) 0.75000 0.0001 Uiso
O14 O 0.67327(29) 0.43037(13) 0.3386(5) 0.0001 Uiso
O16 O 0.10956(32) 0.32225(13) 0.17644(31) 0.0001 Uiso
O18 O 0.67234(34) 0.34422(9) 0.3401(5) 0.0001 Uiso
O19 O 0.32766(34) 0.34422(9) 0.1599(5) 0.0001 Uiso
C14 C 0.57206(30) 0.3784(4) 0.88242(12) 0.0108 Uiso
C15 C 0.66817(17) 0.3743(5) 0.80890(22) 0.0108 Uiso
C16 C 0.40402(20) 0.3751(5) 0.82392(16) 0.0108 Uiso
H1 H 0.199653 0.370451 0.644579 . .
H2 H 0.671743 0.373125 0.6176 . .
H3 H 0.328257 0.373125 0.8824 . .
H4 H 0.800347 0.370451 0.855421 . .
H6 H 0.300372 0.498236 0.0662023 . .
Sc4 Sc -0.00000 0.63396(11) 0.75000 0.0001 Uiso
C19 C 0.07746(24) 0.52730(7) 0.95208(27) 0.0108 Uiso
H10 H 0.13373 0.546292 0.901763 . .
O5 O 0.89044(32) 0.32225(13) 0.32356(31) 0.0001 Uiso
C7 C 0.92254(24) 0.47270(7) 0.04792(27) 0.0108 Uiso
C9 C 0.77063(34) 0.31634(8) 0.3572(4) 0.0108 Uiso
C10 C 0.75932(31) 0.28204(5) 0.42919(22) 0.0108 Uiso
C11 C 0.88363(19) 0.25488(8) 0.46448(25) 0.0108 Uiso
C12 C 0.63385(24) 0.27889(6) 0.47547(35) 0.0108 Uiso
Sc5 Sc 0.50000 0.13396(11) 0.75000 0.0001 Uiso
Sc9_2 Sc 1.00000 0.11286(11) 0.75000 0.0001 Uiso
O12 O 0.8849(4) 0.40831(9) 0.31924(31) 0.0001 Uiso
O15 O 0.60956(32) 0.17775(13) 0.67644(31) 0.0001 Uiso
O17 O 0.82766(34) 0.15578(9) 0.6599(5) 0.0001 Uiso
C21 C 0.72937(34) 0.18366(8) 0.6428(4) 0.0108 Uiso
C22 C 0.74068(31) 0.21796(5) 0.57081(22) 0.0108 Uiso
C23 C 0.61637(19) 0.24512(8) 0.53552(25) 0.0108 Uiso
C24 C 0.86615(24) 0.22111(6) 0.52453(35) 0.0108 Uiso
H5 H 0.86627 0.453708 0.0982366 . .
H7 H 0.995049 0.260095 0.444988 . .
H8 H 0.549036 0.302974 0.464598 . .
H9 H 0.504951 0.239905 0.555012 . .
H11 H 0.950964 0.197026 0.535402 . .
Sc4_2 Sc 1.00000 0.63396(11) 0.75000 0.0001 Uiso
Sc8 Sc 0.50000 0.61286(11) 0.75000 0.0001 Uiso
O11 O 0.8849(4) 0.59169(9) 0.81924(31) 0.0001 Uiso
O13 O 0.67327(29) 0.56963(13) 0.8386(5) 0.0001 Uiso
C17 C 0.82307(31) 0.56452(9) 0.8611(4) 0.0108 Uiso
C18 C 0.91566(27) 0.53249(5) 0.9388(4) 0.0108 Uiso
C20 C 0.83326(17) 0.50225(9) 0.9701(4) 0.0108 Uiso
H12 H 0.699628 0.501764 0.933798 . .
C7_2 C 0.07746(24) 0.47270(7) 0.45208(27) 0.0108 Uiso
C9_2 C 0.22937(34) 0.31634(8) 0.1428(4) 0.0108 Uiso
C10_2 C 0.24068(31) 0.28204(5) 0.07081(22) 0.0108 Uiso
C11_2 C 0.11637(19) 0.25488(8) 0.03552(25) 0.0108 Uiso
C12_2 C 0.36615(24) 0.27889(6) 0.02453(35) 0.0108 Uiso
O11_2 O 0.1151(4) 0.59169(9) 0.68076(31) 0.0001 Uiso
O13_2 O 0.32673(29) 0.56963(13) 0.6614(5) 0.0001 Uiso
C17_2 C 0.17693(31) 0.56452(9) 0.6389(4) 0.0108 Uiso
C18_2 C 0.08434(27) 0.53249(5) 0.5612(4) 0.0108 Uiso
C20_2 C 0.16674(17) 0.50225(9) 0.5299(4) 0.0108 Uiso
H5_2 H 0.13373 0.453708 0.401763 . .
H7_2 H 0.00495138 0.260095 0.0550117 . .
H8_2 H 0.450964 0.302974 0.0354025 . .
H12_2 H 0.300372 0.501764 0.566202 . .
O15_2 O 0.39044(32) 0.17775(13) 0.82356(31) 0.0001 Uiso
O17_2 O 0.17234(34) 0.15578(9) 0.8401(5) 0.0001 Uiso
C21_2 C 0.27063(34) 0.18366(8) 0.8572(4) 0.0108 Uiso
C22_2 C 0.25932(31) 0.21796(5) 0.92919(22) 0.0108 Uiso
C23_2 C 0.38363(19) 0.24512(8) 0.96448(25) 0.0108 Uiso
C24_2 C 0.13385(24) 0.22111(6) 0.97547(35) 0.0108 Uiso
H9_2 H 0.495049 0.239905 0.944988 . .
H11_2 H 0.0490361 0.197026 0.964598 . .
C5_2 C 0.82307(31) 0.43548(9) 0.3611(4) 0.0108 Uiso
C6_2 C 0.91566(27) 0.46751(5) 0.4388(4) 0.0108 Uiso
C8_2 C 0.83326(17) 0.49775(9) 0.4701(4) 0.0108 Uiso
C19_2 C 0.92254(24) 0.52730(7) 0.54792(27) 0.0108 Uiso
H6_2 H 0.699628 0.498236 0.433798 . .
H10_2 H 0.86627 0.546292 0.598237 . .
Sc3_3 Sc 0.50000 0.86604(11) 0.25000 0.0001 Uiso
Sc7_2 Sc 0.00000 0.88714(11) 0.25000 0.0001 Uiso
O7_2 O 0.2963(4) 0.86537(16) 0.0768(4) 0.0001 Uiso
O9_2 O 0.0786(4) 0.88742(15) 0.09409(26) 0.0001 Uiso
C13_2 C 0.1484(4) 0.87482(22) 0.02185(22) 0.0108 Uiso
C4_2 C 0.09598(20) 0.8751(5) 0.67608(16) 0.0108 Uiso
O14_2 O 0.17327(29) 0.93037(13) 0.3386(5) 0.0001 Uiso
O18_2 O 0.17234(34) 0.84422(9) 0.3401(5) 0.0001 Uiso
C14_2 C 0.07206(30) 0.8784(4) 0.88242(12) 0.0108 Uiso
C15_2 C 0.16817(17) 0.8743(5) 0.80890(22) 0.0108 Uiso
H2_2 H 0.171743 0.873125 0.6176 . .
H4_2 H 0.300347 0.870451 0.855421 . .
O11_3 O 0.3849(4) 0.09169(9) 0.81924(31) 0.0001 Uiso
O13_3 O 0.17327(29) 0.06963(13) 0.8386(5) 0.0001 Uiso
C17_3 C 0.32307(31) 0.06452(9) 0.8611(4) 0.0108 Uiso
C18_3 C 0.41566(27) 0.03249(5) 0.9388(4) 0.0108 Uiso
C19_3 C 0.57746(24) 0.02730(7) 0.95208(27) 0.0108 Uiso
C20_3 C 0.33326(17) 0.00225(9) 0.9701(4) 0.0108 Uiso
H10_3 H 0.63373 0.0462918 0.901763 . .
H12_3 H 0.199628 0.00176435 0.933798 . .
Sc7_3 Sc 1.00000 0.88714(11) 0.25000 0.0001 Uiso
O1_2 O 0.7037(4) 0.86537(16) 0.4232(4) 0.0001 Uiso
O2_2 O 0.9214(4) 0.88742(15) 0.40591(26) 0.0001 Uiso
O3_2 O 0.6151(4) 0.90831(9) 0.18076(31) 0.0001 Uiso
O4_2 O 0.82673(29) 0.93037(13) 0.1614(5) 0.0001 Uiso
O5_2 O 0.39044(32) 0.82225(13) 0.32356(31) 0.0001 Uiso
C1_2 C 0.8516(4) 0.87482(22) 0.47815(22) 0.0108 Uiso
C2_2 C 0.92794(30) 0.8784(4) 0.61758(12) 0.0108 Uiso
C3_2 C 0.83183(17) 0.8743(5) 0.69110(22) 0.0108 Uiso
C5_3 C 0.67693(31) 0.93548(9) 0.1389(4) 0.0108 Uiso
C6_3 C 0.58434(27) 0.96751(5) 0.0612(4) 0.0108 Uiso
C7_3 C 0.42254(24) 0.97270(7) 0.04792(27) 0.0108 Uiso
C8_3 C 0.66674(17) 0.99775(9) 0.0299(4) 0.0108 Uiso
C9_3 C 0.27063(34) 0.81634(8) 0.3572(4) 0.0108 Uiso
C10_3 C 0.25932(31) 0.78204(5) 0.42919(22) 0.0108 Uiso
C11_3 C 0.38363(19) 0.75488(8) 0.46448(25) 0.0108 Uiso
C12_3 C 0.13385(24) 0.77889(6) 0.47547(35) 0.0108 Uiso
O12_2 O 0.3849(4) 0.90831(9) 0.31924(31) 0.0001 Uiso
O15_3 O 0.10956(32) 0.67775(13) 0.67644(31) 0.0001 Uiso
O16_2 O 0.60956(32) 0.82225(13) 0.17644(31) 0.0001 Uiso
O17_3 O 0.32766(34) 0.65578(9) 0.6599(5) 0.0001 Uiso
O19_2 O 0.82766(34) 0.84422(9) 0.1599(5) 0.0001 Uiso
C16_2 C 0.90402(20) 0.8751(5) 0.82392(16) 0.0108 Uiso
C21_3 C 0.22937(34) 0.68366(8) 0.6428(4) 0.0108 Uiso
C22_3 C 0.24068(31) 0.71796(5) 0.57081(22) 0.0108 Uiso
C23_3 C 0.11637(19) 0.74512(8) 0.53552(25) 0.0108 Uiso
C24_3 C 0.36615(24) 0.72111(6) 0.52453(35) 0.0108 Uiso
H1_2 H 0.699653 0.870451 0.644579 . .
H3_2 H 0.828257 0.873125 0.8824 . .
H5_3 H 0.36627 0.953708 0.0982366 . .
H6_3 H 0.800372 0.998236 0.0662023 . .
H7_3 H 0.495049 0.760095 0.444988 . .
H8_3 H 0.0490361 0.802974 0.464598 . .
H9_3 H 0.00495138 0.739905 0.555012 . .
H11_3 H 0.450964 0.697026 0.535402 . .
O11_4 O 0.6151(4) 0.09169(9) 0.68076(31) 0.0001 Uiso
O13_4 O 0.82673(29) 0.06963(13) 0.6614(5) 0.0001 Uiso
C17_4 C 0.67693(31) 0.06452(9) 0.6389(4) 0.0108 Uiso
C18_4 C 0.58434(27) 0.03249(5) 0.5612(4) 0.0108 Uiso
C19_4 C 0.42254(24) 0.02730(7) 0.54792(27) 0.0108 Uiso
C20_4 C 0.66674(17) 0.00225(9) 0.5299(4) 0.0108 Uiso
H10_4 H 0.36627 0.0462918 0.598237 . .
H12_4 H 0.800372 0.00176435 0.566202 . .
C5_4 C 0.32307(31) 0.93548(9) 0.3611(4) 0.0108 Uiso
C6_4 C 0.41566(27) 0.96751(5) 0.4388(4) 0.0108 Uiso
C7_4 C 0.57746(24) 0.97270(7) 0.45208(27) 0.0108 Uiso
C8_4 C 0.33326(17) 0.99775(9) 0.4701(4) 0.0108 Uiso
C9_4 C 0.72937(34) 0.81634(8) 0.1428(4) 0.0108 Uiso
C10_4 C 0.74068(31) 0.78204(5) 0.07081(22) 0.0108 Uiso
C11_4 C 0.61637(19) 0.75488(8) 0.03552(25) 0.0108 Uiso
C12_4 C 0.86615(24) 0.77889(6) 0.02453(35) 0.0108 Uiso
H5_4 H 0.63373 0.953708 0.401763 . .
H6_4 H 0.199628 0.998236 0.433798 . .
H7_4 H 0.504951 0.760095 0.0550117 . .
H8_4 H 0.950964 0.802974 0.0354025 . .
O15_4 O 0.89044(32) 0.67775(13) 0.82356(31) 0.0001 Uiso
O17_4 O 0.67234(34) 0.65578(9) 0.8401(5) 0.0001 Uiso
C21_4 C 0.77063(34) 0.68366(8) 0.8572(4) 0.0108 Uiso
C22_4 C 0.75932(31) 0.71796(5) 0.92919(22) 0.0108 Uiso
C23_4 C 0.88363(19) 0.74512(8) 0.96448(25) 0.0108 Uiso
C24_4 C 0.63385(24) 0.72111(6) 0.97547(35) 0.0108 Uiso
H9_4 H 0.995049 0.739905 0.944988 . .
H11_4 H 0.549036 0.697026 0.964598 . .
O8 O 0.2037(4) 0.63463(16) 0.9232(4) 0.0001 Uiso
O1_3 O 0.7963(4) 0.63463(16) 0.5768(4) 0.0001 Uiso
O2_3 O 0.5786(4) 0.61258(15) 0.59409(26) 0.0001 Uiso
C1_3 C 0.6484(4) 0.62518(22) 0.52185(22) 0.0108 Uiso
C2_3 C 0.57206(30) 0.6216(4) 0.38242(12) 0.0108 Uiso
C3_3 C 0.66817(17) 0.6257(5) 0.30890(22) 0.0108 Uiso
C4_3 C 0.40402(20) 0.6249(5) 0.32392(16) 0.0108 Uiso
O10 O 0.4214(4) 0.61258(15) 0.90591(26) 0.0001 Uiso
C14_3 C 0.42794(30) 0.6216(4) 0.11758(12) 0.0108 Uiso
C15_3 C 0.33183(17) 0.6257(5) 0.19110(22) 0.0108 Uiso
C16_3 C 0.59598(20) 0.6249(5) 0.17608(16) 0.0108 Uiso
H1_3 H 0.800347 0.629549 0.355421 . .
H2_3 H 0.328257 0.626875 0.3824 . .
H3_3 H 0.671743 0.626875 0.1176 . .
H4_3 H 0.199653 0.629549 0.144579 . .
C13_3 C 0.3516(4) 0.62518(22) 0.97815(22) 0.0108 Uiso
O1_4 O 0.2963(4) 0.13463(16) 0.5768(4) 0.0001 Uiso
O2_4 O 0.0786(4) 0.11258(15) 0.59409(26) 0.0001 Uiso
C1_4 C 0.1484(4) 0.12518(22) 0.52185(22) 0.0108 Uiso
C2_4 C 0.07206(30) 0.1216(4) 0.38242(12) 0.0108 Uiso
C3_4 C 0.16817(17) 0.1257(5) 0.30890(22) 0.0108 Uiso
O8_2 O 0.7037(4) 0.13463(16) 0.9232(4) 0.0001 Uiso
C16_4 C 0.09598(20) 0.1249(5) 0.17608(16) 0.0108 Uiso
H1_4 H 0.300347 0.129549 0.355421 . .
H3_4 H 0.171743 0.126875 0.1176 . .
C4_4 C 0.90402(20) 0.1249(5) 0.32392(16) 0.0108 Uiso
O10_2 O 0.9214(4) 0.11258(15) 0.90591(26) 0.0001 Uiso
C14_4 C 0.92794(30) 0.1216(4) 0.11758(12) 0.0108 Uiso
C15_4 C 0.83183(17) 0.1257(5) 0.19110(22) 0.0108 Uiso
H2_4 H 0.828257 0.126875 0.3824 . .
H4_4 H 0.699653 0.129549 0.144579 . .
C13_4 C 0.8516(4) 0.12518(22) 0.97815(22) 0.0108 Uiso
loop_
_geom_bond_atom_site_label_1
_geom_bond_atom_site_label_2
_geom_bond_site_symmetry_1
_geom_bond_site_symmetry_2
Sc3_2 O7 1_555 1_555
Sc7 O9 1_555 1_555
O7 C13 1_555 1_555
O9 C13 1_555 1_555
Sc3 O1 1_555 1_555
Sc7 O2 1_555 1_555
O1 C1 1_555 1_555
O2 C1 1_555 1_555
O3 Sc3 1_555 1_555
O4 Sc7 1_555 1_555
C1 C2 1_555 1_555
C2 C3 1_555 1_555
C3 C16 1_555 1_555
C4 C2 1_555 1_555
C5 O3 1_555 1_555
C6 C5 1_555 1_555
C8 C6 1_555 1_555
O14 Sc7 1_555 1_555
O16 Sc3 1_555 1_555
O18 Sc7 1_555 1_555
O19 Sc7 1_555 1_555
C14 C15 1_555 1_555
C15 C4 1_555 1_555
C16 C14 1_555 1_555
O4 C5 1_555 1_555
C3 H1 1_555 1_555
C4 H2 1_555 1_555
C16 H3 1_555 1_555
C15 H4 1_555 1_555
C8 H6 1_555 1_555
C19 H10 1_555 1_555
O5 Sc3_2 1_555 1_555
O18 C9 1_555 1_555
C9 O5 1_555 1_555
C10 C9 1_555 1_555
C11 C10 1_555 1_555
C12 C10 1_555 1_555
Sc5 O15 1_555 1_555
Sc9_2 O17 1_555 1_555
O12 Sc3_2 1_555 1_555
O15 C21 1_555 1_555
O17 C21 1_555 1_555
C21 C22 1_555 1_555
C22 C23 1_555 1_555
C23 C12 1_555 1_555
C24 C11 1_555 1_555
C22 C24 1_555 1_555
C7 H5 1_555 1_555
C11 H7 1_555 1_555
C12 H8 1_555 1_555
C23 H9 1_555 1_555
C24 H11 1_555 1_555
Sc4_2 O11 1_555 1_555
Sc8 O13 1_555 1_555
O11 C17 1_555 1_555
O13 C17 1_555 1_555
C17 C18 1_555 1_555
C18 C20 1_555 1_555
C20 H12 1_555 1_555
O19 C9_2 1_555 1_555
C9_2 O16 1_555 1_555
C10_2 C9_2 1_555 1_555
C11_2 C10_2 1_555 1_555
C12_2 C10_2 1_555 1_555
Sc4 O11_2 1_555 1_555
Sc8 O13_2 1_555 1_555
O11_2 C17_2 1_555 1_555
O13_2 C17_2 1_555 1_555
C17_2 C18_2 1_555 1_555
C20_2 C7_2 1_555 1_555
C18_2 C20_2 1_555 1_555
C7_2 H5_2 1_555 1_555
C11_2 H7_2 1_555 1_555
C12_2 H8_2 1_555 1_555
C20_2 H12_2 1_555 1_555
Sc5 O15_2 1_555 1_555
Sc9 O17_2 1_555 1_555
O15_2 C21_2 1_555 1_555
O17_2 C21_2 1_555 1_555
C21_2 C22_2 1_555 1_555
C22_2 C23_2 1_555 1_555
C22_2 C24_2 1_555 1_555
C23_2 H9_2 1_555 1_555
C24_2 H11_2 1_555 1_555
C5_2 O12 1_555 1_555
C6_2 C5_2 1_555 1_555
C8_2 C6_2 1_555 1_555
C19_2 C8_2 1_555 1_555
O14 C5_2 1_555 1_555
C8_2 H6_2 1_555 1_555
C19_2 H10_2 1_555 1_555
Sc3_3 O7_2 1_555 1_555
Sc7_2 O9_2 1_555 1_555
O7_2 C13_2 1_555 1_555
O9_2 C13_2 1_555 1_555
O14_2 Sc7_2 1_555 1_555
O18_2 Sc7_2 1_555 1_555
C14_2 C15_2 1_555 1_555
C15_2 C4_2 1_555 1_555
C4_2 H2_2 1_555 1_555
C15_2 H4_2 1_555 1_555
Sc5 O11_3 1_555 1_555
Sc9 O13_3 1_555 1_555
O11_3 C17_3 1_555 1_555
O13_3 C17_3 1_555 1_555
C17_3 C18_3 1_555 1_555
C18_3 C19_3 1_555 1_555
C18_3 C20_3 1_555 1_555
C19_3 H10_3 1_555 1_555
C20_3 H12_3 1_555 1_555
Sc3_3 O1_2 1_555 1_555
Sc7_3 O2_2 1_555 1_555
O1_2 C1_2 1_555 1_555
O2_2 C1_2 1_555 1_555
O3_2 Sc3_3 1_555 1_555
O4_2 Sc7_3 1_555 1_555
O5_2 Sc3_3 1_555 1_555
O18_2 C9_3 1_555 1_555
C1_2 C2_2 1_555 1_555
C2_2 C3_2 1_555 1_555
C3_2 C16_2 1_555 1_555
C5_3 O3_2 1_555 1_555
C6_3 C5_3 1_555 1_555
C7_3 C6_3 1_555 1_555
C8_3 C6_3 1_555 1_555
C9_3 O5_2 1_555 1_555
C10_3 C9_3 1_555 1_555
C11_3 C10_3 1_555 1_555
C12_3 C10_3 1_555 1_555
Sc4 O15_3 1_555 1_555
Sc8 O17_3 1_555 1_555
O12_2 Sc3_3 1_555 1_555
O15_3 C21_3 1_555 1_555
O16_2 Sc3_3 1_555 1_555
O17_3 C21_3 1_555 1_555
O19_2 Sc7_3 1_555 1_555
C21_3 C22_3 1_555 1_555
C22_3 C23_3 1_555 1_555
C23_3 C12_3 1_555 1_555
C24_3 C11_3 1_555 1_555
O4_2 C5_3 1_555 1_555
C22_3 C24_3 1_555 1_555
C3_2 H1_2 1_555 1_555
C16_2 H3_2 1_555 1_555
C7_3 H5_3 1_555 1_555
C8_3 H6_3 1_555 1_555
C11_3 H7_3 1_555 1_555
C12_3 H8_3 1_555 1_555
C23_3 H9_3 1_555 1_555
C24_3 H11_3 1_555 1_555
Sc5 O11_4 1_555 1_555
Sc9_2 O13_4 1_555 1_555
O11_4 C17_4 1_555 1_555
O13_4 C17_4 1_555 1_555
C17_4 C18_4 1_555 1_555
C18_4 C19_4 1_555 1_555
C18_4 C20_4 1_555 1_555
C19_4 H10_4 1_555 1_555
C20_4 H12_4 1_555 1_555
O19_2 C9_4 1_555 1_555
C5_4 O12_2 1_555 1_555
C6_4 C5_4 1_555 1_555
C7_4 C6_4 1_555 1_555
C8_4 C6_4 1_555 1_555
C9_4 O16_2 1_555 1_555
C10_4 C9_4 1_555 1_555
C11_4 C10_4 1_555 1_555
C12_4 C10_4 1_555 1_555
O14_2 C5_4 1_555 1_555
C7_4 H5_4 1_555 1_555
C8_4 H6_4 1_555 1_555
C11_4 H7_4 1_555 1_555
C12_4 H8_4 1_555 1_555
Sc4_2 O15_4 1_555 1_555
Sc8 O17_4 1_555 1_555
O15_4 C21_4 1_555 1_555
O17_4 C21_4 1_555 1_555
C21_4 C22_4 1_555 1_555
C22_4 C23_4 1_555 1_555
C22_4 C24_4 1_555 1_555
C23_4 H9_4 1_555 1_555
C24_4 H11_4 1_555 1_555
O8 Sc4 1_555 1_555
Sc4_2 O1_3 1_555 1_555
Sc8 O2_3 1_555 1_555
O1_3 C1_3 1_555 1_555
O2_3 C1_3 1_555 1_555
C1_3 C2_3 1_555 1_555
C2_3 C3_3 1_555 1_555
C3_3 C16_3 1_555 1_555
C4_3 C2_3 1_555 1_555
O10 Sc8 1_555 1_555
C14_3 C15_3 1_555 1_555
C15_3 C4_3 1_555 1_555
C16_3 C14_3 1_555 1_555
C3_3 H1_3 1_555 1_555
C4_3 H2_3 1_555 1_555
C16_3 H3_3 1_555 1_555
C15_3 H4_3 1_555 1_555
O8 C13_3 1_555 1_555
O10 C13_3 1_555 1_555
Sc5 O1_4 1_555 1_555
Sc9 O2_4 1_555 1_555
O1_4 C1_4 1_555 1_555
O2_4 C1_4 1_555 1_555
C1_4 C2_4 1_555 1_555
C2_4 C3_4 1_555 1_555
C3_4 C16_4 1_555 1_555
O8_2 Sc5 1_555 1_555
C3_4 H1_4 1_555 1_555
C16_4 H3_4 1_555 1_555
O10_2 Sc9_2 1_555 1_555
C14_4 C15_4 1_555 1_555
C15_4 C4_4 1_555 1_555
C4_4 H2_4 1_555 1_555
C15_4 H4_4 1_555 1_555
O8_2 C13_4 1_555 1_555
O10_2 C13_4 1_555 1_555

#END
