
###############################################################################
#
# This file contains modified crystal structure data generated from the
# MOF subset of the Cambridge Structural Database (CSD) v543 
# hosted by the Cambridge Crystallographic Data Centre (CCDC).
#
# This work is licensed under the Creative Commons
# Attribution-NonCommercial-ShareAlike 4.0 International License.
# To view a copy of this license, visit
# http://creativecommons.org/licenses/by-nc-sa/4.0/
# or send a letter to
# Creative Commons, PO Box 1866, Mountain View, CA 94042, USA.
#
# CIF created using the CSD Python API on 29 September 2022
# The structure has been converted into the P1 space group
# The structure has a 3D framework
# The original CSD entry HAZGOF02 is in the monoclinic crystal system
# The framework has been calculated to contain at least 10.0% void space
# The void calculation uses a probe of radius 1.32A, grid spacing 0.4
# H atom positions have been added when not included in the experimental data
#
###############################################################################

data_HAZGOF02
_chemical_formula_moiety         '(C96 H48 O48 Sc9)n'
_symmetry_cell_setting           triclinic
_symmetry_space_group_name_H-M   'P 1'
_symmetry_Int_Tables_number      1
_space_group_name_Hall           'P 1'
loop_
_symmetry_equiv_pos_site_id
_symmetry_equiv_pos_as_xyz
1 x,y,z
_cell_length_a                   8.75468(15)
_cell_length_b                   34.37449(16)
_cell_length_c                   11.16967(10)
_cell_angle_alpha                90
_cell_angle_beta                 111.7476(10)
_cell_angle_gamma                90
_cell_volume                     3122.13
loop_
_atom_site_label
_atom_site_type_symbol
_atom_site_fract_x
_atom_site_fract_y
_atom_site_fract_z
_atom_site_U_iso_or_equiv
_atom_site_thermal_displace_type
Sc3 Sc 0.0000 0.36556(17) 0.25000 0.0160 Uiso
Sc3_2 Sc 1.0000 0.36556(17) 0.25000 0.0160 Uiso
Sc7 Sc 0.5000 0.38669(16) 0.25000 0.0160 Uiso
O7 O 0.7972(10) 0.36526(35) 0.0777(8) 0.0160 Uiso
O9 O 0.5632(12) 0.3868(4) 0.0892(7) 0.0160 Uiso
C13 C 0.6481(11) 0.3763(5) 0.02348(35) 0.0123 Uiso
O1 O 0.2028(10) 0.36526(35) 0.4223(8) 0.0160 Uiso
O2 O 0.4368(12) 0.3868(4) 0.4108(7) 0.0160 Uiso
O3 O 0.1002(13) 0.40951(26) 0.1763(10) 0.0160 Uiso
O4 O 0.3284(10) 0.43068(26) 0.1645(12) 0.0160 Uiso
C1 C 0.3519(11) 0.3763(5) 0.47652(35) 0.0123 Uiso
C2 C 0.4276(5) 0.3768(6) 0.61631(26) 0.0123 Uiso
C3 C 0.3296(4) 0.3746(6) 0.6898(4) 0.0123 Uiso
C4 C 0.5982(5) 0.3766(6) 0.6764(4) 0.0123 Uiso
C5 C 0.1761(8) 0.43529(20) 0.1401(10) 0.0123 Uiso
C6 C 0.0790(5) 0.46685(13) 0.0631(7) 0.0123 Uiso
C8 C 0.1682(4) 0.49570(16) 0.0305(8) 0.0123 Uiso
Sc9 Sc 0.0000 0.11331(16) 0.75000 0.0160 Uiso
O14 O 0.6716(10) 0.43068(26) 0.3355(12) 0.0160 Uiso
O16 O 0.1068(11) 0.32174(28) 0.1762(10) 0.0160 Uiso
O18 O 0.6656(12) 0.34347(24) 0.3437(11) 0.0160 Uiso
O19 O 0.3344(12) 0.34347(24) 0.1563(11) 0.0160 Uiso
C14 C 0.5724(5) 0.3768(6) 0.88369(26) 0.0123 Uiso
C15 C 0.6704(4) 0.3746(6) 0.8102(4) 0.0123 Uiso
C16 C 0.4018(5) 0.3766(6) 0.8236(4) 0.0123 Uiso
H1 H 0.196905 0.371326 0.642786 . .
H2 H 0.674935 0.378004 0.618896 . .
H4 H 0.803095 0.371326 0.857214 . .
H6 H 0.325065 0.378004 0.881104 . .
H8 H 0.301498 0.493596 0.0623861 . .
Sc4 Sc 0.0000 0.63444(17) 0.75000 0.0160 Uiso
C19 C 0.0857(5) 0.52722(17) 0.9569(7) 0.0123 Uiso
H10 H 0.149478 0.54708 0.915302 . .
O5 O 0.8932(11) 0.32174(28) 0.3238(10) 0.0160 Uiso
C7 C 0.9143(5) 0.47278(17) 0.0431(7) 0.0123 Uiso
C9 C 0.7726(10) 0.31697(17) 0.3598(8) 0.0123 Uiso
C10 C 0.7663(6) 0.28318(12) 0.4355(6) 0.0123 Uiso
C11 C 0.8842(6) 0.25397(16) 0.4625(7) 0.0123 Uiso
C12 C 0.6298(5) 0.27881(14) 0.4695(7) 0.0123 Uiso
Sc5 Sc 0.5000 0.13444(17) 0.75000 0.0160 Uiso
Sc9_2 Sc 1.0000 0.11331(16) 0.75000 0.0160 Uiso
O12 O 0.8998(13) 0.40951(26) 0.3237(10) 0.0160 Uiso
O15 O 0.6068(11) 0.17826(28) 0.6762(10) 0.0160 Uiso
O17 O 0.8344(12) 0.15653(24) 0.6563(11) 0.0160 Uiso
C21 C 0.7274(10) 0.18303(17) 0.6402(8) 0.0123 Uiso
C22 C 0.7337(6) 0.21682(12) 0.5645(6) 0.0123 Uiso
C23 C 0.6158(6) 0.24603(16) 0.5375(7) 0.0123 Uiso
C24 C 0.8702(5) 0.22119(14) 0.5305(7) 0.0123 Uiso
H3 H 0.534186 0.300989 0.442954 . .
H5 H 0.850522 0.45292 0.0846978 . .
H7 H 0.987026 0.256774 0.430496 . .
H11 H 0.965814 0.199011 0.557046 . .
H12 H 0.512974 0.243226 0.569504 . .
Sc4_2 Sc 1.0000 0.63444(17) 0.75000 0.0160 Uiso
Sc8 Sc 0.5000 0.61331(16) 0.75000 0.0160 Uiso
O11 O 0.8998(13) 0.59049(26) 0.8237(10) 0.0160 Uiso
O13 O 0.6716(10) 0.56932(26) 0.8355(12) 0.0160 Uiso
C17 C 0.8239(8) 0.56471(20) 0.8599(10) 0.0123 Uiso
C18 C 0.9210(5) 0.53315(13) 0.9369(7) 0.0123 Uiso
C20 C 0.8318(4) 0.50430(16) 0.9695(8) 0.0123 Uiso
H9 H 0.698502 0.506404 0.937614 . .
C7_2 C 0.0857(5) 0.47278(17) 0.4569(7) 0.0123 Uiso
C9_2 C 0.2274(10) 0.31697(17) 0.1402(8) 0.0123 Uiso
C10_2 C 0.2337(6) 0.28318(12) 0.0645(6) 0.0123 Uiso
C11_2 C 0.1158(6) 0.25397(16) 0.0375(7) 0.0123 Uiso
C12_2 C 0.3702(5) 0.27881(14) 0.0305(7) 0.0123 Uiso
O11_2 O 0.1002(13) 0.59049(26) 0.6763(10) 0.0160 Uiso
O13_2 O 0.3284(10) 0.56932(26) 0.6645(12) 0.0160 Uiso
C17_2 C 0.1761(8) 0.56471(20) 0.6401(10) 0.0123 Uiso
C18_2 C 0.0790(5) 0.53315(13) 0.5631(7) 0.0123 Uiso
C20_2 C 0.1682(4) 0.50430(16) 0.5305(8) 0.0123 Uiso
H3_2 H 0.465814 0.300989 0.0570463 . .
H5_2 H 0.149478 0.45292 0.415302 . .
H7_2 H 0.0129745 0.256774 0.0695044 . .
H9_2 H 0.301498 0.506404 0.562386 . .
O15_2 O 0.3932(11) 0.17826(28) 0.8238(10) 0.0160 Uiso
O17_2 O 0.1656(12) 0.15653(24) 0.8437(11) 0.0160 Uiso
C21_2 C 0.2726(10) 0.18303(17) 0.8598(8) 0.0123 Uiso
C22_2 C 0.2663(6) 0.21682(12) 0.9355(6) 0.0123 Uiso
C23_2 C 0.3842(6) 0.24603(16) 0.9625(7) 0.0123 Uiso
C24_2 C 0.1298(5) 0.22119(14) 0.9695(7) 0.0123 Uiso
H11_2 H 0.0341857 0.199011 0.942954 . .
H12_2 H 0.487026 0.243226 0.930496 . .
C5_2 C 0.8239(8) 0.43529(20) 0.3599(10) 0.0123 Uiso
C6_2 C 0.9210(5) 0.46685(13) 0.4369(7) 0.0123 Uiso
C8_2 C 0.8318(4) 0.49570(16) 0.4695(8) 0.0123 Uiso
C19_2 C 0.9143(5) 0.52722(17) 0.5431(7) 0.0123 Uiso
H8_2 H 0.698502 0.493596 0.437614 . .
H10_2 H 0.850522 0.54708 0.584698 . .
Sc3_3 Sc 0.5000 0.86556(17) 0.25000 0.0160 Uiso
Sc7_2 Sc 0.0000 0.88669(16) 0.25000 0.0160 Uiso
O7_2 O 0.2972(10) 0.86526(35) 0.0777(8) 0.0160 Uiso
O9_2 O 0.0632(12) 0.8868(4) 0.0892(7) 0.0160 Uiso
C13_2 C 0.1481(11) 0.8763(5) 0.02348(35) 0.0123 Uiso
C4_2 C 0.0982(5) 0.8766(6) 0.6764(4) 0.0123 Uiso
O14_2 O 0.1716(10) 0.93068(26) 0.3355(12) 0.0160 Uiso
O18_2 O 0.1656(12) 0.84347(24) 0.3437(11) 0.0160 Uiso
C14_2 C 0.0724(5) 0.8768(6) 0.88369(26) 0.0123 Uiso
C15_2 C 0.1704(4) 0.8746(6) 0.8102(4) 0.0123 Uiso
H2_2 H 0.174935 0.878004 0.618896 . .
H4_2 H 0.303095 0.871326 0.857214 . .
O11_3 O 0.3998(13) 0.09049(26) 0.8237(10) 0.0160 Uiso
O13_3 O 0.1716(10) 0.06932(26) 0.8355(12) 0.0160 Uiso
C17_3 C 0.3239(8) 0.06471(20) 0.8599(10) 0.0123 Uiso
C18_3 C 0.4210(5) 0.03315(13) 0.9369(7) 0.0123 Uiso
C19_3 C 0.5857(5) 0.02722(17) 0.9569(7) 0.0123 Uiso
C20_3 C 0.3318(4) 0.00430(16) 0.9695(8) 0.0123 Uiso
H9_3 H 0.198502 0.00640434 0.937614 . .
H10_3 H 0.649478 0.0470795 0.915302 . .
Sc7_3 Sc 1.0000 0.88669(16) 0.25000 0.0160 Uiso
O1_2 O 0.7028(10) 0.86526(35) 0.4223(8) 0.0160 Uiso
O2_2 O 0.9368(12) 0.8868(4) 0.4108(7) 0.0160 Uiso
O3_2 O 0.6002(13) 0.90951(26) 0.1763(10) 0.0160 Uiso
O4_2 O 0.8284(10) 0.93068(26) 0.1645(12) 0.0160 Uiso
O5_2 O 0.3932(11) 0.82174(28) 0.3238(10) 0.0160 Uiso
C1_2 C 0.8519(11) 0.8763(5) 0.47652(35) 0.0123 Uiso
C2_2 C 0.9276(5) 0.8768(6) 0.61631(26) 0.0123 Uiso
C3_2 C 0.8296(4) 0.8746(6) 0.6898(4) 0.0123 Uiso
C5_3 C 0.6761(8) 0.93529(20) 0.1401(10) 0.0123 Uiso
C6_3 C 0.5790(5) 0.96685(13) 0.0631(7) 0.0123 Uiso
C7_3 C 0.4143(5) 0.97278(17) 0.0431(7) 0.0123 Uiso
C8_3 C 0.6682(4) 0.99570(16) 0.0305(8) 0.0123 Uiso
C9_3 C 0.2726(10) 0.81697(17) 0.3598(8) 0.0123 Uiso
C10_3 C 0.2663(6) 0.78318(12) 0.4355(6) 0.0123 Uiso
C11_3 C 0.3842(6) 0.75397(16) 0.4625(7) 0.0123 Uiso
C12_3 C 0.1298(5) 0.77881(14) 0.4695(7) 0.0123 Uiso
O12_2 O 0.3998(13) 0.90951(26) 0.3237(10) 0.0160 Uiso
O15_3 O 0.1068(11) 0.67826(28) 0.6762(10) 0.0160 Uiso
O16_2 O 0.6068(11) 0.82174(28) 0.1762(10) 0.0160 Uiso
O17_3 O 0.3344(12) 0.65653(24) 0.6563(11) 0.0160 Uiso
O19_2 O 0.8344(12) 0.84347(24) 0.1563(11) 0.0160 Uiso
C16_2 C 0.9018(5) 0.8766(6) 0.8236(4) 0.0123 Uiso
C21_3 C 0.2274(10) 0.68303(17) 0.6402(8) 0.0123 Uiso
C22_3 C 0.2337(6) 0.71682(12) 0.5645(6) 0.0123 Uiso
C23_3 C 0.1158(6) 0.74603(16) 0.5375(7) 0.0123 Uiso
C24_3 C 0.3702(5) 0.72119(14) 0.5305(7) 0.0123 Uiso
H1_2 H 0.696905 0.871326 0.642786 . .
H3_3 H 0.0341857 0.800989 0.442954 . .
H5_3 H 0.350522 0.95292 0.0846978 . .
H6_2 H 0.825065 0.878004 0.881104 . .
H7_3 H 0.487026 0.756774 0.430496 . .
H8_3 H 0.801498 0.993596 0.0623861 . .
H11_3 H 0.465814 0.699011 0.557046 . .
H12_3 H 0.0129745 0.743226 0.569504 . .
O11_4 O 0.6002(13) 0.09049(26) 0.6763(10) 0.0160 Uiso
O13_4 O 0.8284(10) 0.06932(26) 0.6645(12) 0.0160 Uiso
C17_4 C 0.6761(8) 0.06471(20) 0.6401(10) 0.0123 Uiso
C18_4 C 0.5790(5) 0.03315(13) 0.5631(7) 0.0123 Uiso
C19_4 C 0.4143(5) 0.02722(17) 0.5431(7) 0.0123 Uiso
C20_4 C 0.6682(4) 0.00430(16) 0.5305(8) 0.0123 Uiso
H9_4 H 0.801498 0.00640434 0.562386 . .
H10_4 H 0.350522 0.0470795 0.584698 . .
C5_4 C 0.3239(8) 0.93529(20) 0.3599(10) 0.0123 Uiso
C6_4 C 0.4210(5) 0.96685(13) 0.4369(7) 0.0123 Uiso
C7_4 C 0.5857(5) 0.97278(17) 0.4569(7) 0.0123 Uiso
C8_4 C 0.3318(4) 0.99570(16) 0.4695(8) 0.0123 Uiso
C9_4 C 0.7274(10) 0.81697(17) 0.1402(8) 0.0123 Uiso
C10_4 C 0.7337(6) 0.78318(12) 0.0645(6) 0.0123 Uiso
C11_4 C 0.6158(6) 0.75397(16) 0.0375(7) 0.0123 Uiso
C12_4 C 0.8702(5) 0.77881(14) 0.0305(7) 0.0123 Uiso
H3_4 H 0.965814 0.800989 0.0570463 . .
H5_4 H 0.649478 0.95292 0.415302 . .
H7_4 H 0.512974 0.756774 0.0695044 . .
H8_4 H 0.198502 0.993596 0.437614 . .
O15_4 O 0.8932(11) 0.67826(28) 0.8238(10) 0.0160 Uiso
O17_4 O 0.6656(12) 0.65653(24) 0.8437(11) 0.0160 Uiso
C21_4 C 0.7726(10) 0.68303(17) 0.8598(8) 0.0123 Uiso
C22_4 C 0.7663(6) 0.71682(12) 0.9355(6) 0.0123 Uiso
C23_4 C 0.8842(6) 0.74603(16) 0.9625(7) 0.0123 Uiso
C24_4 C 0.6298(5) 0.72119(14) 0.9695(7) 0.0123 Uiso
H11_4 H 0.534186 0.699011 0.942954 . .
H12_4 H 0.987026 0.743226 0.930496 . .
O8 O 0.2028(10) 0.63474(35) 0.9223(8) 0.0160 Uiso
O1_3 O 0.7972(10) 0.63474(35) 0.5777(8) 0.0160 Uiso
O2_3 O 0.5632(12) 0.6132(4) 0.5892(7) 0.0160 Uiso
C1_3 C 0.6481(11) 0.6237(5) 0.52348(35) 0.0123 Uiso
C2_3 C 0.5724(5) 0.6232(6) 0.38369(26) 0.0123 Uiso
C3_3 C 0.6704(4) 0.6254(6) 0.3102(4) 0.0123 Uiso
C4_3 C 0.4018(5) 0.6234(6) 0.3236(4) 0.0123 Uiso
O10 O 0.4368(12) 0.6132(4) 0.9108(7) 0.0160 Uiso
C14_3 C 0.4276(5) 0.6232(6) 0.11631(26) 0.0123 Uiso
C15_3 C 0.3296(4) 0.6254(6) 0.1898(4) 0.0123 Uiso
C16_3 C 0.5982(5) 0.6234(6) 0.1764(4) 0.0123 Uiso
H1_3 H 0.803095 0.628674 0.357214 . .
H2_3 H 0.325065 0.621996 0.381104 . .
H4_3 H 0.196905 0.628674 0.142786 . .
H6_3 H 0.674935 0.621996 0.118896 . .
C13_3 C 0.3519(11) 0.6237(5) 0.97652(35) 0.0123 Uiso
O1_4 O 0.2972(10) 0.13474(35) 0.5777(8) 0.0160 Uiso
O2_4 O 0.0632(12) 0.1132(4) 0.5892(7) 0.0160 Uiso
C1_4 C 0.1481(11) 0.1237(5) 0.52348(35) 0.0123 Uiso
C2_4 C 0.0724(5) 0.1232(6) 0.38369(26) 0.0123 Uiso
C3_4 C 0.1704(4) 0.1254(6) 0.3102(4) 0.0123 Uiso
O8_2 O 0.7028(10) 0.13474(35) 0.9223(8) 0.0160 Uiso
C16_4 C 0.0982(5) 0.1234(6) 0.1764(4) 0.0123 Uiso
H1_4 H 0.303095 0.128674 0.357214 . .
H6_4 H 0.174935 0.121996 0.118896 . .
C4_4 C 0.9018(5) 0.1234(6) 0.3236(4) 0.0123 Uiso
O10_2 O 0.9368(12) 0.1132(4) 0.9108(7) 0.0160 Uiso
C14_4 C 0.9276(5) 0.1232(6) 0.11631(26) 0.0123 Uiso
C15_4 C 0.8296(4) 0.1254(6) 0.1898(4) 0.0123 Uiso
H2_4 H 0.825065 0.121996 0.381104 . .
H4_4 H 0.696905 0.128674 0.142786 . .
C13_4 C 0.8519(11) 0.1237(5) 0.97652(35) 0.0123 Uiso
loop_
_geom_bond_atom_site_label_1
_geom_bond_atom_site_label_2
_geom_bond_site_symmetry_1
_geom_bond_site_symmetry_2
Sc3_2 O7 1_555 1_555
Sc7 O9 1_555 1_555
O7 C13 1_555 1_555
O9 C13 1_555 1_555
Sc3 O1 1_555 1_555
Sc7 O2 1_555 1_555
O1 C1 1_555 1_555
O2 C1 1_555 1_555
O3 Sc3 1_555 1_555
O4 Sc7 1_555 1_555
C1 C2 1_555 1_555
C2 C3 1_555 1_555
C3 C16 1_555 1_555
C4 C2 1_555 1_555
C5 O3 1_555 1_555
C6 C5 1_555 1_555
C8 C6 1_555 1_555
O14 Sc7 1_555 1_555
O16 Sc3 1_555 1_555
O18 Sc7 1_555 1_555
O19 Sc7 1_555 1_555
C14 C15 1_555 1_555
C15 C4 1_555 1_555
C16 C14 1_555 1_555
O4 C5 1_555 1_555
C3 H1 1_555 1_555
C4 H2 1_555 1_555
C15 H4 1_555 1_555
C16 H6 1_555 1_555
C8 H8 1_555 1_555
C19 H10 1_555 1_555
O5 Sc3_2 1_555 1_555
O18 C9 1_555 1_555
C9 O5 1_555 1_555
C10 C9 1_555 1_555
C11 C10 1_555 1_555
C12 C10 1_555 1_555
Sc5 O15 1_555 1_555
Sc9_2 O17 1_555 1_555
O12 Sc3_2 1_555 1_555
O15 C21 1_555 1_555
O17 C21 1_555 1_555
C21 C22 1_555 1_555
C22 C23 1_555 1_555
C23 C12 1_555 1_555
C24 C11 1_555 1_555
C22 C24 1_555 1_555
C12 H3 1_555 1_555
C7 H5 1_555 1_555
C11 H7 1_555 1_555
C24 H11 1_555 1_555
C23 H12 1_555 1_555
Sc4_2 O11 1_555 1_555
Sc8 O13 1_555 1_555
O11 C17 1_555 1_555
O13 C17 1_555 1_555
C17 C18 1_555 1_555
C18 C20 1_555 1_555
C20 H9 1_555 1_555
O19 C9_2 1_555 1_555
C9_2 O16 1_555 1_555
C10_2 C9_2 1_555 1_555
C11_2 C10_2 1_555 1_555
C12_2 C10_2 1_555 1_555
Sc4 O11_2 1_555 1_555
Sc8 O13_2 1_555 1_555
O11_2 C17_2 1_555 1_555
O13_2 C17_2 1_555 1_555
C17_2 C18_2 1_555 1_555
C20_2 C7_2 1_555 1_555
C18_2 C20_2 1_555 1_555
C12_2 H3_2 1_555 1_555
C7_2 H5_2 1_555 1_555
C11_2 H7_2 1_555 1_555
C20_2 H9_2 1_555 1_555
Sc5 O15_2 1_555 1_555
Sc9 O17_2 1_555 1_555
O15_2 C21_2 1_555 1_555
O17_2 C21_2 1_555 1_555
C21_2 C22_2 1_555 1_555
C22_2 C23_2 1_555 1_555
C22_2 C24_2 1_555 1_555
C24_2 H11_2 1_555 1_555
C23_2 H12_2 1_555 1_555
C5_2 O12 1_555 1_555
C6_2 C5_2 1_555 1_555
C8_2 C6_2 1_555 1_555
C19_2 C8_2 1_555 1_555
O14 C5_2 1_555 1_555
C8_2 H8_2 1_555 1_555
C19_2 H10_2 1_555 1_555
Sc3_3 O7_2 1_555 1_555
Sc7_2 O9_2 1_555 1_555
O7_2 C13_2 1_555 1_555
O9_2 C13_2 1_555 1_555
O14_2 Sc7_2 1_555 1_555
O18_2 Sc7_2 1_555 1_555
C14_2 C15_2 1_555 1_555
C15_2 C4_2 1_555 1_555
C4_2 H2_2 1_555 1_555
C15_2 H4_2 1_555 1_555
Sc5 O11_3 1_555 1_555
Sc9 O13_3 1_555 1_555
O11_3 C17_3 1_555 1_555
O13_3 C17_3 1_555 1_555
C17_3 C18_3 1_555 1_555
C18_3 C19_3 1_555 1_555
C18_3 C20_3 1_555 1_555
C20_3 H9_3 1_555 1_555
C19_3 H10_3 1_555 1_555
Sc3_3 O1_2 1_555 1_555
Sc7_3 O2_2 1_555 1_555
O1_2 C1_2 1_555 1_555
O2_2 C1_2 1_555 1_555
O3_2 Sc3_3 1_555 1_555
O4_2 Sc7_3 1_555 1_555
O5_2 Sc3_3 1_555 1_555
O18_2 C9_3 1_555 1_555
C1_2 C2_2 1_555 1_555
C2_2 C3_2 1_555 1_555
C3_2 C16_2 1_555 1_555
C5_3 O3_2 1_555 1_555
C6_3 C5_3 1_555 1_555
C7_3 C6_3 1_555 1_555
C8_3 C6_3 1_555 1_555
C9_3 O5_2 1_555 1_555
C10_3 C9_3 1_555 1_555
C11_3 C10_3 1_555 1_555
C12_3 C10_3 1_555 1_555
Sc4 O15_3 1_555 1_555
Sc8 O17_3 1_555 1_555
O12_2 Sc3_3 1_555 1_555
O15_3 C21_3 1_555 1_555
O16_2 Sc3_3 1_555 1_555
O17_3 C21_3 1_555 1_555
O19_2 Sc7_3 1_555 1_555
C21_3 C22_3 1_555 1_555
C22_3 C23_3 1_555 1_555
C23_3 C12_3 1_555 1_555
C24_3 C11_3 1_555 1_555
O4_2 C5_3 1_555 1_555
C22_3 C24_3 1_555 1_555
C3_2 H1_2 1_555 1_555
C12_3 H3_3 1_555 1_555
C7_3 H5_3 1_555 1_555
C16_2 H6_2 1_555 1_555
C11_3 H7_3 1_555 1_555
C8_3 H8_3 1_555 1_555
C24_3 H11_3 1_555 1_555
C23_3 H12_3 1_555 1_555
Sc5 O11_4 1_555 1_555
Sc9_2 O13_4 1_555 1_555
O11_4 C17_4 1_555 1_555
O13_4 C17_4 1_555 1_555
C17_4 C18_4 1_555 1_555
C18_4 C19_4 1_555 1_555
C18_4 C20_4 1_555 1_555
C20_4 H9_4 1_555 1_555
C19_4 H10_4 1_555 1_555
O19_2 C9_4 1_555 1_555
C5_4 O12_2 1_555 1_555
C6_4 C5_4 1_555 1_555
C7_4 C6_4 1_555 1_555
C8_4 C6_4 1_555 1_555
C9_4 O16_2 1_555 1_555
C10_4 C9_4 1_555 1_555
C11_4 C10_4 1_555 1_555
C12_4 C10_4 1_555 1_555
O14_2 C5_4 1_555 1_555
C12_4 H3_4 1_555 1_555
C7_4 H5_4 1_555 1_555
C11_4 H7_4 1_555 1_555
C8_4 H8_4 1_555 1_555
Sc4_2 O15_4 1_555 1_555
Sc8 O17_4 1_555 1_555
O15_4 C21_4 1_555 1_555
O17_4 C21_4 1_555 1_555
C21_4 C22_4 1_555 1_555
C22_4 C23_4 1_555 1_555
C22_4 C24_4 1_555 1_555
C24_4 H11_4 1_555 1_555
C23_4 H12_4 1_555 1_555
O8 Sc4 1_555 1_555
Sc4_2 O1_3 1_555 1_555
Sc8 O2_3 1_555 1_555
O1_3 C1_3 1_555 1_555
O2_3 C1_3 1_555 1_555
C1_3 C2_3 1_555 1_555
C2_3 C3_3 1_555 1_555
C3_3 C16_3 1_555 1_555
C4_3 C2_3 1_555 1_555
O10 Sc8 1_555 1_555
C14_3 C15_3 1_555 1_555
C15_3 C4_3 1_555 1_555
C16_3 C14_3 1_555 1_555
C3_3 H1_3 1_555 1_555
C4_3 H2_3 1_555 1_555
C15_3 H4_3 1_555 1_555
C16_3 H6_3 1_555 1_555
O8 C13_3 1_555 1_555
O10 C13_3 1_555 1_555
Sc5 O1_4 1_555 1_555
Sc9 O2_4 1_555 1_555
O1_4 C1_4 1_555 1_555
O2_4 C1_4 1_555 1_555
C1_4 C2_4 1_555 1_555
C2_4 C3_4 1_555 1_555
C3_4 C16_4 1_555 1_555
O8_2 Sc5 1_555 1_555
C3_4 H1_4 1_555 1_555
C16_4 H6_4 1_555 1_555
O10_2 Sc9_2 1_555 1_555
C14_4 C15_4 1_555 1_555
C15_4 C4_4 1_555 1_555
C4_4 H2_4 1_555 1_555
C15_4 H4_4 1_555 1_555
O8_2 C13_4 1_555 1_555
O10_2 C13_4 1_555 1_555

#END
