
###############################################################################
#
# This file contains modified crystal structure data generated from the
# MOF subset of the Cambridge Structural Database (CSD) v543 
# hosted by the Cambridge Crystallographic Data Centre (CCDC).
#
# This work is licensed under the Creative Commons
# Attribution-NonCommercial-ShareAlike 4.0 International License.
# To view a copy of this license, visit
# http://creativecommons.org/licenses/by-nc-sa/4.0/
# or send a letter to
# Creative Commons, PO Box 1866, Mountain View, CA 94042, USA.
#
# CIF created using the CSD Python API on 29 September 2022
# The structure has been converted into the P1 space group
# The structure has a 3D framework
# The original CSD entry HAZLED is in the monoclinic crystal system
# The framework has been calculated to contain at least 10.0% void space
# The void calculation uses a probe of radius 1.32A, grid spacing 0.4
#
###############################################################################

data_HAZLED
_chemical_formula_moiety         '(C108 H64 N16 O32 Zn8)n'
_symmetry_cell_setting           triclinic
_symmetry_space_group_name_H-M   'P 1'
_symmetry_Int_Tables_number      1
_space_group_name_Hall           'P 1'
loop_
_symmetry_equiv_pos_site_id
_symmetry_equiv_pos_as_xyz
1 x,y,z
_cell_length_a                   10.9546(5)
_cell_length_b                   10.9340(4)
_cell_length_c                   30.2273(11)
_cell_angle_alpha                90
_cell_angle_beta                 93.624(2)
_cell_angle_gamma                90
_cell_volume                     3613.31
loop_
_atom_site_label
_atom_site_type_symbol
_atom_site_fract_x
_atom_site_fract_y
_atom_site_fract_z
H6 H 0.3343 0.0151 0.0842
C13 C 0.3457(4) 0.0250(3) 0.15266(11)
C16 C 0.3456(4) 0.1617(4) 0.15507(12)
O7 O 0.3417(3) 0.2185(3) 0.11968(8)
O8 O 0.3494(3) 0.2069(3) 0.19291(8)
Zn4 Zn 0.33168(4) 0.39988(4) 0.099922(12)
Zn7 Zn 0.34980(4) 0.39542(4) 0.198199(12)
C1 C 0.1038(4) 0.3948(4) 0.14738(13)
C9 C 0.3404(4) 0.6322(3) 0.14508(12)
C10 C 0.3426(4) 0.7695(3) 0.14677(12)
C11 C 0.3373(4) 0.8437(3) 0.10927(13)
H5 H 0.3326 0.8052 0.0810
C12 C 0.3383(4) 0.9681(3) 0.11065(11)
C14 C 0.3513(4) 0.9572(3) 0.19106(11)
H7 H 0.3558 0.9958 0.2193
C15 C 0.3502(4) 0.8313(4) 0.18735(12)
H8 H 0.3548 0.7841 0.2138
C17 C 0.3482(4) 0.3124(3) 0.29040(11)
H9 H 0.3567 0.2338 0.2776
C18 C 0.3365(4) 0.3235(3) 0.33560(11)
C19 C 0.3239(4) 0.4400(3) 0.35412(11)
C20 C 0.3261(4) 0.5438(4) 0.32815(12)
H10 H 0.3196 0.6235 0.3403
C21 C 0.3382(4) 0.5251(3) 0.28374(12)
H11 H 0.3402 0.5947 0.2650
C22 C 0.3190(4) 0.2939(4) 0.40487(11)
C23 C 0.3110(4) 0.2397(3) 0.44909(11)
C24 C 0.3616(4) 0.1261(3) 0.45851(12)
H12 H 0.3984 0.0797 0.4363
C25 C 0.3569(4) 0.0827(4) 0.50090(12)
H13 H 0.3909 0.0042 0.5073
C26 C 0.2513(4) 0.2491(4) 0.52340(12)
H14 H 0.2098 0.2900 0.5457
C27 C 0.2509(4) 0.3010(4) 0.48196(12)
H15 H 0.2107 0.3766 0.4758
N1 N 0.3478(3) 0.4119(3) 0.26489(9)
N2 N 0.3345(3) 0.2332(3) 0.36821(9)
N3 N 0.3135(3) 0.4203(3) 0.39872(9)
H16 H 0.3050 0.4762 0.4192
N4 N 0.3084(3) 0.1425(3) 0.53364(9)
O1 O 0.1500(3) 0.3953(3) 0.11008(9)
O2 O 0.1643(3) 0.3932(3) 0.18436(9)
O5 O 0.3308(3) 0.5813(2) 0.10662(8)
O6 O 0.3472(3) 0.5747(2) 0.18097(9)
N5 N 0.3084(3) 0.3575(3) 0.03364(9)
O9 O 0.5286(3) 0.3938(3) 0.18419(9)
O10 O 0.5165(2) 0.4051(3) 0.10939(9)
Zn5 Zn 0.33168(4) 0.10012(4) 0.599922(12)
C2 C 0.9671(4) 0.3925(4) 0.14740(12)
C3 C 0.8965(4) 0.3757(4) 0.10830(14)
H1 H 0.9349 0.3626 0.0814
C4 C 0.7698(4) 0.3778(4) 0.10819(13)
H2 H 0.7221 0.3672 0.0811
C5 C 0.7126(4) 0.3952(4) 0.14706(12)
C6 C 0.7834(4) 0.4104(5) 0.18598(14)
H3 H 0.7450 0.4213 0.2130
C7 C 0.9087(4) 0.4099(5) 0.18617(14)
H4 H 0.9560 0.4217 0.2133
C8 C 0.5748(4) 0.3993(3) 0.14694(13)
C25_2 C 0.3569(4) 0.4173(4) 0.00090(12)
H13_2 H 0.3909 0.4958 0.0073
C26_2 C 0.2513(4) 0.2509(4) 0.02340(12)
H14_2 H 0.2098 0.2100 0.0457
C1_2 C 0.1038(4) 0.1052(4) 0.64738(13)
C17_2 C 0.3482(4) 0.1876(3) 0.79040(11)
H9_2 H 0.3567 0.2662 0.7776
C18_2 C 0.3365(4) 0.1765(3) 0.83560(11)
C19_2 C 0.3239(4) 0.0600(3) 0.85412(11)
C22_2 C 0.3190(4) 0.2061(4) 0.90487(11)
C23_2 C 0.3110(4) 0.2603(3) 0.94909(11)
C24_2 C 0.3616(4) 0.3739(3) 0.95851(12)
H12_2 H 0.3984 0.4203 0.9363
C27_2 C 0.2509(4) 0.1990(4) 0.98196(12)
H15_2 H 0.2107 0.1234 0.9758
N1_2 N 0.3478(3) 0.0881(3) 0.76489(9)
N2_2 N 0.3345(3) 0.2668(3) 0.86821(9)
N3_2 N 0.3135(3) 0.0797(3) 0.89872(9)
H16_2 H 0.3050 0.0238 0.9192
O1_2 O 0.1500(3) 0.1047(3) 0.61008(9)
O2_2 O 0.1643(3) 0.1068(3) 0.68436(9)
Zn2 Zn 0.34980(4) 0.10458(4) 0.698199(12)
O9_2 O 0.5286(3) 0.1062(3) 0.68419(9)
O10_2 O 0.5165(2) 0.0949(3) 0.60939(9)
O11 O 0.3417(3) 0.2815(3) 0.61968(8)
O12 O 0.3494(3) 0.2931(3) 0.69291(8)
C9_2 C 0.3404(4) 0.8678(3) 0.64508(12)
C10_2 C 0.3426(4) 0.7305(3) 0.64677(12)
C11_2 C 0.3373(4) 0.6563(3) 0.60927(13)
H5_2 H 0.3326 0.6948 0.5810
C12_2 C 0.3383(4) 0.5319(3) 0.61065(11)
H6_2 H 0.3343 0.4849 0.5842
C13_2 C 0.3457(4) 0.4750(3) 0.65266(11)
C14_2 C 0.3513(4) 0.5428(3) 0.69106(11)
H7_2 H 0.3558 0.5042 0.7193
C15_2 C 0.3502(4) 0.6687(4) 0.68735(12)
H8_2 H 0.3548 0.7159 0.7138
C16_2 C 0.3456(4) 0.3383(4) 0.65507(12)
C20_2 C 0.3261(4) 0.9562(4) 0.82815(12)
H10_2 H 0.3196 0.8765 0.8403
C21_2 C 0.3382(4) 0.9749(3) 0.78374(12)
H11_2 H 0.3402 0.9053 0.7650
O5_2 O 0.3308(3) 0.9187(2) 0.60662(8)
O6_2 O 0.3472(3) 0.9253(2) 0.68097(9)
C2_2 C 0.9671(4) 0.1075(4) 0.64740(12)
C3_2 C 0.8965(4) 0.1243(4) 0.60830(14)
H1_2 H 0.9349 0.1374 0.5814
C4_2 C 0.7698(4) 0.1222(4) 0.60819(13)
H2_2 H 0.7221 0.1328 0.5811
C5_2 C 0.7126(4) 0.1048(4) 0.64706(12)
C6_2 C 0.7834(4) 0.0896(5) 0.68598(14)
H3_2 H 0.7450 0.0787 0.7130
C7_2 C 0.9087(4) 0.0901(5) 0.68617(14)
H4_2 H 0.9560 0.0783 0.7133
C8_2 C 0.5748(4) 0.1007(3) 0.64694(13)
C2_3 C 0.0329(4) 0.8925(4) 0.35260(12)
C3_3 C 0.1035(4) 0.8757(4) 0.39170(14)
H1_3 H 0.0651 0.8626 0.4186
C4_3 C 0.2302(4) 0.8778(4) 0.39181(13)
H2_3 H 0.2779 0.8672 0.4189
C5_3 C 0.2874(4) 0.8952(4) 0.35294(12)
C6_3 C 0.2166(4) 0.9104(5) 0.31402(14)
H3_3 H 0.2550 0.9213 0.2870
C7_3 C 0.0913(4) 0.9099(5) 0.31383(14)
H4_3 H 0.0440 0.9217 0.2867
C8_3 C 0.4252(4) 0.8993(3) 0.35306(13)
O3 O 0.4714(3) 0.8938(3) 0.31581(9)
O4 O 0.4835(2) 0.9051(3) 0.39061(9)
Zn3 Zn 0.66832(4) 0.89988(4) 0.400078(12)
Zn6 Zn 0.65020(4) 0.89542(4) 0.301801(12)
C9_3 C 0.6596(4) 0.1322(3) 0.35492(12)
C10_3 C 0.6574(4) 0.2695(3) 0.35323(12)
C11_3 C 0.6627(4) 0.3437(3) 0.39073(13)
H5_3 H 0.6674 0.3052 0.4190
C12_3 C 0.6617(4) 0.4681(3) 0.38935(11)
H6_3 H 0.6657 0.5151 0.4158
C13_3 C 0.6543(4) 0.5250(3) 0.34734(11)
C14_3 C 0.6487(4) 0.4572(3) 0.30894(11)
H7_3 H 0.6442 0.4958 0.2807
C15_3 C 0.6498(4) 0.3313(4) 0.31265(12)
H8_3 H 0.6452 0.2841 0.2862
C16_3 C 0.6544(4) 0.6617(4) 0.34493(12)
C20_3 C 0.6739(4) 0.0438(4) 0.17185(12)
H10_3 H 0.6804 0.1235 0.1597
C21_3 C 0.6618(4) 0.0251(3) 0.21626(12)
H11_3 H 0.6598 0.0947 0.2350
O5_3 O 0.6692(3) 0.0813(2) 0.39338(8)
O6_3 O 0.6528(3) 0.0747(2) 0.31903(9)
O7_2 O 0.6583(3) 0.7185(3) 0.38032(8)
O8_2 O 0.6506(3) 0.7069(3) 0.30709(8)
C1_3 C 0.8962(4) 0.8948(4) 0.35262(13)
C17_3 C 0.6518(4) 0.8124(3) 0.20960(11)
H9_3 H 0.6433 0.7338 0.2224
C18_3 C 0.6635(4) 0.8235(3) 0.16440(11)
C19_3 C 0.6761(4) 0.9400(3) 0.14588(11)
C22_3 C 0.6810(4) 0.7939(4) 0.09513(11)
C23_3 C 0.6890(4) 0.7397(3) 0.05091(11)
C24_3 C 0.6384(4) 0.6261(3) 0.04149(12)
H12_3 H 0.6016 0.5797 0.0637
C27_3 C 0.7491(4) 0.8010(4) 0.01804(12)
H15_3 H 0.7893 0.8766 0.0242
N1_3 N 0.6522(3) 0.9119(3) 0.23511(9)
N2_3 N 0.6655(3) 0.7332(3) 0.13179(9)
N3_3 N 0.6865(3) 0.9203(3) 0.10128(9)
H16_3 H 0.6950 0.9762 0.0808
O1_3 O 0.8500(3) 0.8953(3) 0.38992(9)
O2_3 O 0.8357(3) 0.8932(3) 0.31564(9)
N5_2 N 0.6916(3) 0.8575(3) 0.46636(9)
C25_3 C 0.6431(4) 0.5827(4) 0.99910(12)
H13_3 H 0.6091 0.5042 0.9927
C26_3 C 0.7487(4) 0.7491(4) 0.97660(12)
H14_3 H 0.7902 0.7900 0.9543
N4_2 N 0.6916(3) 0.6425(3) 0.96636(9)
Zn5_2 Zn 0.66832(4) 0.60012(4) 0.900078(12)
C2_4 C 0.0329(4) 0.6075(4) 0.85260(12)
C3_4 C 0.1035(4) 0.6243(4) 0.89170(14)
H1_4 H 0.0651 0.6374 0.9186
C4_4 C 0.2302(4) 0.6222(4) 0.89181(13)
H2_4 H 0.2779 0.6328 0.9189
C5_4 C 0.2874(4) 0.6048(4) 0.85294(12)
C6_4 C 0.2166(4) 0.5896(5) 0.81402(14)
H3_4 H 0.2550 0.5787 0.7870
C7_4 C 0.0913(4) 0.5901(5) 0.81383(14)
H4_4 H 0.0440 0.5783 0.7867
C8_4 C 0.4252(4) 0.6007(3) 0.85306(13)
O3_2 O 0.4714(3) 0.6062(3) 0.81581(9)
O4_2 O 0.4835(2) 0.5949(3) 0.89061(9)
Zn6_2 Zn 0.65020(4) 0.60458(4) 0.801801(12)
C1_4 C 0.8962(4) 0.6052(4) 0.85262(13)
C9_4 C 0.6596(4) 0.3678(3) 0.85492(12)
C10_4 C 0.6574(4) 0.2305(3) 0.85323(12)
C11_4 C 0.6627(4) 0.1563(3) 0.89073(13)
H5_4 H 0.6674 0.1948 0.9190
C12_4 C 0.6617(4) 0.0319(3) 0.88935(11)
C14_4 C 0.6487(4) 0.0428(3) 0.80894(11)
H7_4 H 0.6442 0.0042 0.7807
C15_4 C 0.6498(4) 0.1687(4) 0.81265(12)
H8_4 H 0.6452 0.2159 0.7862
C17_4 C 0.6518(4) 0.6876(3) 0.70960(11)
H9_4 H 0.6433 0.7662 0.7224
C18_4 C 0.6635(4) 0.6765(3) 0.66440(11)
C19_4 C 0.6761(4) 0.5600(3) 0.64588(11)
C20_4 C 0.6739(4) 0.4562(4) 0.67185(12)
H10_4 H 0.6804 0.3765 0.6597
C21_4 C 0.6618(4) 0.4749(3) 0.71626(12)
H11_4 H 0.6598 0.4053 0.7350
C22_4 C 0.6810(4) 0.7061(4) 0.59513(11)
C23_4 C 0.6890(4) 0.7603(3) 0.55091(11)
C24_4 C 0.6384(4) 0.8739(3) 0.54149(12)
H12_4 H 0.6016 0.9203 0.5637
C25_4 C 0.6431(4) 0.9173(4) 0.49910(12)
H13_4 H 0.6091 0.9958 0.4927
C26_4 C 0.7487(4) 0.7509(4) 0.47660(12)
H14_4 H 0.7902 0.7100 0.4543
C27_4 C 0.7491(4) 0.6990(4) 0.51804(12)
H15_4 H 0.7893 0.6234 0.5242
N1_4 N 0.6522(3) 0.5881(3) 0.73511(9)
N2_4 N 0.6655(3) 0.7668(3) 0.63179(9)
N3_4 N 0.6865(3) 0.5797(3) 0.60128(9)
H16_4 H 0.6950 0.5238 0.5808
O1_4 O 0.8500(3) 0.6047(3) 0.88992(9)
O2_4 O 0.8357(3) 0.6068(3) 0.81564(9)
O5_4 O 0.6692(3) 0.4187(2) 0.89338(8)
O6_4 O 0.6528(3) 0.4253(2) 0.81903(9)
O11_2 O 0.6583(3) 0.7815(3) 0.88032(8)
O12_2 O 0.6506(3) 0.7931(3) 0.80709(8)
H6_4 H 0.6657 0.9849 0.9158
C13_4 C 0.6543(4) 0.9750(3) 0.84734(11)
C16_4 C 0.6544(4) 0.8383(4) 0.84493(12)
loop_
_geom_bond_atom_site_label_1
_geom_bond_atom_site_label_2
_geom_bond_site_symmetry_1
_geom_bond_site_symmetry_2
C16 C13 1_555 1_555
O7 C16 1_555 1_555
O8 C16 1_555 1_555
Zn4 O7 1_555 1_555
Zn7 O8 1_555 1_555
C9 C10 1_555 1_555
C10 C11 1_555 1_555
C11 H5 1_555 1_555
C12 C11 1_555 1_555
H7 C14 1_555 1_555
C15 C10 1_555 1_555
H8 C15 1_555 1_555
C17 H9 1_555 1_555
C18 C17 1_555 1_555
C19 C18 1_555 1_555
C20 C19 1_555 1_555
H10 C20 1_555 1_555
C21 C20 1_555 1_555
H11 C21 1_555 1_555
C22 C23 1_555 1_555
C23 C24 1_555 1_555
C24 H12 1_555 1_555
C25 C24 1_555 1_555
H13 C25 1_555 1_555
C26 H14 1_555 1_555
C27 C23 1_555 1_555
H15 C27 1_555 1_555
N1 C17 1_555 1_555
N2 C18 1_555 1_555
N3 C19 1_555 1_555
H16 N3 1_555 1_555
N4 C25 1_555 1_555
O1 C1 1_555 1_555
O2 C1 1_555 1_555
O5 C9 1_555 1_555
O6 C9 1_555 1_555
Zn4 O1 1_555 1_555
Zn7 N1 1_555 1_555
N5 Zn4 1_555 1_555
O9 Zn7 1_555 1_555
O10 Zn4 1_555 1_555
Zn5 N4 1_555 1_555
C14 C15 1_555 1_555
C21 N1 1_555 1_555
C22 N2 1_555 1_555
C22 N3 1_555 1_555
C26 C27 1_555 1_555
C26 N4 1_555 1_555
O2 Zn7 1_555 1_555
O5 Zn4 1_555 1_555
O6 Zn7 1_555 1_555
C2 C3 1_555 1_555
C3 H1 1_555 1_555
C4 C3 1_555 1_555
H2 C4 1_555 1_555
C5 C4 1_555 1_555
C6 C5 1_555 1_555
H3 C6 1_555 1_555
C7 C2 1_555 1_555
H4 C7 1_555 1_555
C8 C5 1_555 1_555
O9 C8 1_555 1_555
O10 C8 1_555 1_555
C6 C7 1_555 1_555
H13_2 C25_2 1_555 1_555
C26_2 H14_2 1_555 1_555
N5 C25_2 1_555 1_555
C26_2 N5 1_555 1_555
C17_2 H9_2 1_555 1_555
C18_2 C17_2 1_555 1_555
C19_2 C18_2 1_555 1_555
C22_2 C23_2 1_555 1_555
C23_2 C24_2 1_555 1_555
C24_2 H12_2 1_555 1_555
C27_2 C23_2 1_555 1_555
H15_2 C27_2 1_555 1_555
N1_2 C17_2 1_555 1_555
N2_2 C18_2 1_555 1_555
N3_2 C19_2 1_555 1_555
H16_2 N3_2 1_555 1_555
O1_2 C1_2 1_555 1_555
O2_2 C1_2 1_555 1_555
Zn5 O1_2 1_555 1_555
Zn2 N1_2 1_555 1_555
O9_2 Zn2 1_555 1_555
O10_2 Zn5 1_555 1_555
O11 Zn5 1_555 1_555
O12 Zn2 1_555 1_555
C22_2 N2_2 1_555 1_555
C22_2 N3_2 1_555 1_555
O2_2 Zn2 1_555 1_555
C9_2 C10_2 1_555 1_555
C10_2 C11_2 1_555 1_555
C11_2 H5_2 1_555 1_555
C12_2 C11_2 1_555 1_555
H6_2 C12_2 1_555 1_555
C13_2 C12_2 1_555 1_555
C14_2 C13_2 1_555 1_555
H7_2 C14_2 1_555 1_555
C15_2 C10_2 1_555 1_555
H8_2 C15_2 1_555 1_555
C16_2 C13_2 1_555 1_555
H10_2 C20_2 1_555 1_555
C21_2 C20_2 1_555 1_555
H11_2 C21_2 1_555 1_555
O5_2 C9_2 1_555 1_555
O6_2 C9_2 1_555 1_555
O11 C16_2 1_555 1_555
O12 C16_2 1_555 1_555
C14_2 C15_2 1_555 1_555
C2_2 C3_2 1_555 1_555
C3_2 H1_2 1_555 1_555
C4_2 C3_2 1_555 1_555
H2_2 C4_2 1_555 1_555
C5_2 C4_2 1_555 1_555
C6_2 C5_2 1_555 1_555
H3_2 C6_2 1_555 1_555
C7_2 C2_2 1_555 1_555
H4_2 C7_2 1_555 1_555
C8_2 C5_2 1_555 1_555
O9_2 C8_2 1_555 1_555
O10_2 C8_2 1_555 1_555
C6_2 C7_2 1_555 1_555
C2_3 C3_3 1_555 1_555
C3_3 H1_3 1_555 1_555
C4_3 C3_3 1_555 1_555
H2_3 C4_3 1_555 1_555
C5_3 C4_3 1_555 1_555
C6_3 C5_3 1_555 1_555
H3_3 C6_3 1_555 1_555
C7_3 C2_3 1_555 1_555
H4_3 C7_3 1_555 1_555
C8_3 C5_3 1_555 1_555
O3 C8_3 1_555 1_555
O4 C8_3 1_555 1_555
Zn3 O4 1_555 1_555
Zn6 O3 1_555 1_555
C6_3 C7_3 1_555 1_555
C9_3 C10_3 1_555 1_555
C10_3 C11_3 1_555 1_555
C11_3 H5_3 1_555 1_555
C12_3 C11_3 1_555 1_555
H6_3 C12_3 1_555 1_555
C13_3 C12_3 1_555 1_555
C14_3 C13_3 1_555 1_555
H7_3 C14_3 1_555 1_555
C15_3 C10_3 1_555 1_555
H8_3 C15_3 1_555 1_555
C16_3 C13_3 1_555 1_555
H10_3 C20_3 1_555 1_555
C21_3 C20_3 1_555 1_555
H11_3 C21_3 1_555 1_555
O5_3 C9_3 1_555 1_555
O6_3 C9_3 1_555 1_555
O7_2 C16_3 1_555 1_555
O8_2 C16_3 1_555 1_555
Zn3 O7_2 1_555 1_555
Zn6 O8_2 1_555 1_555
C14_3 C15_3 1_555 1_555
C17_3 H9_3 1_555 1_555
C18_3 C17_3 1_555 1_555
C19_3 C18_3 1_555 1_555
C22_3 C23_3 1_555 1_555
C23_3 C24_3 1_555 1_555
C24_3 H12_3 1_555 1_555
C27_3 C23_3 1_555 1_555
H15_3 C27_3 1_555 1_555
N1_3 C17_3 1_555 1_555
N2_3 C18_3 1_555 1_555
N3_3 C19_3 1_555 1_555
H16_3 N3_3 1_555 1_555
O1_3 C1_3 1_555 1_555
O2_3 C1_3 1_555 1_555
Zn3 O1_3 1_555 1_555
Zn6 N1_3 1_555 1_555
N5_2 Zn3 1_555 1_555
C22_3 N2_3 1_555 1_555
C22_3 N3_3 1_555 1_555
O2_3 Zn6 1_555 1_555
H13_3 C25_3 1_555 1_555
C26_3 H14_3 1_555 1_555
N4_2 C25_3 1_555 1_555
Zn5_2 N4_2 1_555 1_555
C26_3 N4_2 1_555 1_555
C2_4 C3_4 1_555 1_555
C3_4 H1_4 1_555 1_555
C4_4 C3_4 1_555 1_555
H2_4 C4_4 1_555 1_555
C5_4 C4_4 1_555 1_555
C6_4 C5_4 1_555 1_555
H3_4 C6_4 1_555 1_555
C7_4 C2_4 1_555 1_555
H4_4 C7_4 1_555 1_555
C8_4 C5_4 1_555 1_555
O3_2 C8_4 1_555 1_555
O4_2 C8_4 1_555 1_555
Zn5_2 O4_2 1_555 1_555
Zn6_2 O3_2 1_555 1_555
C6_4 C7_4 1_555 1_555
C9_4 C10_4 1_555 1_555
C10_4 C11_4 1_555 1_555
C11_4 H5_4 1_555 1_555
C12_4 C11_4 1_555 1_555
H7_4 C14_4 1_555 1_555
C15_4 C10_4 1_555 1_555
H8_4 C15_4 1_555 1_555
C17_4 H9_4 1_555 1_555
C18_4 C17_4 1_555 1_555
C19_4 C18_4 1_555 1_555
C20_4 C19_4 1_555 1_555
H10_4 C20_4 1_555 1_555
C21_4 C20_4 1_555 1_555
H11_4 C21_4 1_555 1_555
C22_4 C23_4 1_555 1_555
C23_4 C24_4 1_555 1_555
C24_4 H12_4 1_555 1_555
C25_4 C24_4 1_555 1_555
H13_4 C25_4 1_555 1_555
C26_4 H14_4 1_555 1_555
C27_4 C23_4 1_555 1_555
H15_4 C27_4 1_555 1_555
N1_4 C17_4 1_555 1_555
N2_4 C18_4 1_555 1_555
N3_4 C19_4 1_555 1_555
H16_4 N3_4 1_555 1_555
N5_2 C25_4 1_555 1_555
O1_4 C1_4 1_555 1_555
O2_4 C1_4 1_555 1_555
O5_4 C9_4 1_555 1_555
O6_4 C9_4 1_555 1_555
Zn5_2 O1_4 1_555 1_555
Zn6_2 N1_4 1_555 1_555
O11_2 Zn5_2 1_555 1_555
O12_2 Zn6_2 1_555 1_555
C14_4 C15_4 1_555 1_555
C21_4 N1_4 1_555 1_555
C22_4 N2_4 1_555 1_555
C22_4 N3_4 1_555 1_555
C26_4 C27_4 1_555 1_555
C26_4 N5_2 1_555 1_555
O2_4 Zn6_2 1_555 1_555
O5_4 Zn5_2 1_555 1_555
O6_4 Zn6_2 1_555 1_555
C16_4 C13_4 1_555 1_555
O11_2 C16_4 1_555 1_555
O12_2 C16_4 1_555 1_555

#END
