
###############################################################################
#
# This file contains modified crystal structure data generated from the
# MOF subset of the Cambridge Structural Database (CSD) v543 
# hosted by the Cambridge Crystallographic Data Centre (CCDC).
#
# This work is licensed under the Creative Commons
# Attribution-NonCommercial-ShareAlike 4.0 International License.
# To view a copy of this license, visit
# http://creativecommons.org/licenses/by-nc-sa/4.0/
# or send a letter to
# Creative Commons, PO Box 1866, Mountain View, CA 94042, USA.
#
# CIF created using the CSD Python API on 29 September 2022
# The structure has been converted into the P1 space group
# The structure has a 3D framework
# The original CSD entry HAZNON is in the monoclinic crystal system
# The framework has been calculated to contain at least 10.0% void space
# The void calculation uses a probe of radius 1.32A, grid spacing 0.4
#
###############################################################################

data_HAZNON
_chemical_formula_moiety         '(C96 H56 Br16 Cd8 N16 O35)n'
_symmetry_cell_setting           triclinic
_symmetry_space_group_name_H-M   'P 1'
_symmetry_Int_Tables_number      1
_space_group_name_Hall           'P 1'
loop_
_symmetry_equiv_pos_site_id
_symmetry_equiv_pos_as_xyz
1 x,y,z
_cell_length_a                   15.2993(8)
_cell_length_b                   17.7292(10)
_cell_length_c                   14.7332(8)
_cell_angle_alpha                90
_cell_angle_beta                 120.1640(10)
_cell_angle_gamma                90
_cell_volume                     3455.16
loop_
_atom_site_label
_atom_site_type_symbol
_atom_site_fract_x
_atom_site_fract_y
_atom_site_fract_z
Cd6 Cd 0.09779(2) 0.121873(16) 0.71250(2)
O9 O 0.0146(2) 0.17395(18) 0.5434(2)
Cd1 Cd 0.59779(2) 0.378127(16) 0.21250(2)
O1 O 0.4601(2) 0.45781(18) 0.1329(2)
O2 O 0.3158(2) 0.41352(17) 0.1154(2)
O3 O 0.4208(3) 0.24070(18) 0.0684(2)
O4 O 0.5146(2) 0.32605(18) 0.0434(2)
O5 O 0.5000 0.3000(2) 0.2500
H1 H 0.4670 0.2751 0.1933
C6 C 0.3681(3) 0.4426(2) 0.0811(3)
C12 C 0.4428(3) 0.2800(2) 0.0121(3)
Cd2 Cd 0.40221(2) 0.378127(16) 0.28750(2)
Cd5 Cd 0.59779(2) 0.621873(16) 0.71250(2)
Br3 Br 0.92234(4) 0.38971(3) 0.81857(4)
Br4 Br 0.83129(5) 0.14483(4) 0.11467(4)
O6 O 0.5399(2) 0.45781(18) 0.3671(2)
O7 O 0.6842(2) 0.41352(17) 0.3846(2)
O8 O 0.9208(3) 0.25930(18) 0.5684(2)
O10 O 0.4854(2) 0.32605(18) 0.4566(2)
H8 H 0.5330 0.2751 0.3067
N3 N 0.6794(2) 0.5318(2) 0.6701(2)
N4 N 0.6794(2) 0.4682(2) 0.1701(2)
N5 N 0.3206(2) 0.4682(2) 0.3299(2)
N6 N 0.7287(2) 0.2897(2) 0.2573(2)
N7 N 0.2713(2) 0.2897(2) 0.2427(2)
C13 C 0.6413(3) 0.5140(2) 0.5689(3)
H9 H 0.5827 0.5382 0.5193
C14 C 0.6848(3) 0.4614(2) 0.5346(3)
C15 C 0.7715(3) 0.4245(2) 0.6082(3)
H10 H 0.8037 0.3896 0.5878
C16 C 0.8089(3) 0.4412(3) 0.7132(3)
C17 C 0.7622(3) 0.4950(2) 0.7414(3)
H11 H 0.7889 0.5062 0.8121
C18 C 0.6319(3) 0.4426(2) 0.4189(3)
C19 C 0.7943(3) 0.2785(2) 0.3593(3)
H12 H 0.7856 0.3054 0.4083
C20 C 0.8747(3) 0.2286(2) 0.3951(3)
C21 C 0.8868(3) 0.1874(3) 0.3231(3)
H13 H 0.9388 0.1524 0.3444
C22 C 0.8193(3) 0.1996(3) 0.2187(3)
C23 C 0.7417(3) 0.2503(3) 0.1872(3)
H14 H 0.6972 0.2574 0.1159
C24 C 0.9428(3) 0.2200(2) 0.5121(3)
Br1 Br 0.07766(4) 0.38971(3) 0.68143(4)
Br2 Br 0.33129(5) 0.35517(4) 0.61467(4)
N1 N 0.3206(2) 0.5318(2) 0.8299(2)
N2 N 0.2287(2) 0.2103(2) 0.7573(2)
C1 C 0.3587(3) 0.5140(2) 0.9311(3)
H2 H 0.4173 0.5382 0.9807
C2 C 0.3152(3) 0.4614(2) 0.9654(3)
C3 C 0.2285(3) 0.4245(2) 0.8918(3)
H3 H 0.1963 0.3896 0.9122
C4 C 0.1911(3) 0.4412(3) 0.7868(3)
C5 C 0.2378(3) 0.4950(2) 0.7586(3)
H4 H 0.2111 0.5062 0.6879
C7 C 0.2943(3) 0.2215(2) 0.8593(3)
H5 H 0.2856 0.1946 0.9083
C8 C 0.3747(3) 0.2714(2) 0.8951(3)
C9 C 0.3868(3) 0.3126(3) 0.8231(3)
H6 H 0.4388 0.3476 0.8444
C10 C 0.3193(3) 0.3004(3) 0.7187(3)
C11 C 0.2417(3) 0.2497(3) 0.6872(3)
H7 H 0.1972 0.2426 0.6159
Cd3 Cd 0.40221(2) 0.621873(16) 0.78750(2)
Br2_2 Br 0.66871(5) 0.35517(4) 0.88533(4)
O3_2 O 0.5792(3) 0.24070(18) 0.4316(2)
N2_2 N 0.7713(2) 0.2103(2) 0.7427(2)
C7_2 C 0.7057(3) 0.2215(2) 0.6407(3)
H5_2 H 0.7144 0.1946 0.5917
C8_2 C 0.6253(3) 0.2714(2) 0.6049(3)
C9_2 C 0.6132(3) 0.3126(3) 0.6769(3)
H6_2 H 0.5612 0.3476 0.6556
C10_2 C 0.6807(3) 0.3004(3) 0.7813(3)
C11_2 C 0.7583(3) 0.2497(3) 0.8128(3)
H7_2 H 0.8028 0.2426 0.8841
C12_2 C 0.5572(3) 0.2800(2) 0.4879(3)
Cd4 Cd 0.90221(2) 0.121873(16) 0.78750(2)
Br4_2 Br 0.16871(5) 0.14483(4) 0.38533(4)
C19_2 C 0.2057(3) 0.2785(2) 0.1407(3)
H12_2 H 0.2144 0.3054 0.0917
C20_2 C 0.1253(3) 0.2286(2) 0.1049(3)
C21_2 C 0.1132(3) 0.1874(3) 0.1769(3)
H13_2 H 0.0612 0.1524 0.1556
C22_2 C 0.1807(3) 0.1996(3) 0.2813(3)
C23_2 C 0.2583(3) 0.2503(3) 0.3128(3)
H14_2 H 0.3028 0.2574 0.3841
O8_2 O 0.0792(3) 0.25930(18) 0.9316(2)
C24_2 C 0.0572(3) 0.2200(2) 0.9879(3)
O9_2 O 0.9854(2) 0.17395(18) 0.9566(2)
N3_2 N 0.1794(2) 0.0318(2) 0.6701(2)
C13_2 C 0.1413(3) 0.0140(2) 0.5689(3)
H9_2 H 0.0827 0.0382 0.5193
H11_2 H 0.2889 0.0062 0.8121
Cd1_2 Cd 0.09779(2) 0.878127(16) 0.21250(2)
O4_2 O 0.0146(2) 0.82605(18) 0.0434(2)
O5_2 O 0.0000 0.8000(2) 0.2500
Br3_2 Br 0.42234(4) 0.88971(3) 0.81857(4)
Br4_3 Br 0.33129(5) 0.64483(4) 0.11467(4)
O6_2 O 0.0399(2) 0.95781(18) 0.3671(2)
O7_2 O 0.1842(2) 0.91352(17) 0.3846(2)
O8_3 O 0.4208(3) 0.75930(18) 0.5684(2)
O9_3 O 0.5146(2) 0.67395(18) 0.5434(2)
H8_2 H 0.0330 0.7751 0.3067
N4_2 N 0.1794(2) 0.9682(2) 0.1701(2)
N6_2 N 0.2287(2) 0.7897(2) 0.2573(2)
C14_2 C 0.1848(3) 0.9614(2) 0.5346(3)
C15_2 C 0.2715(3) 0.9245(2) 0.6082(3)
H10_2 H 0.3037 0.8896 0.5878
C16_2 C 0.3089(3) 0.9412(3) 0.7132(3)
C17_2 C 0.2622(3) 0.9950(2) 0.7414(3)
C18_2 C 0.1319(3) 0.9426(2) 0.4189(3)
C19_3 C 0.2943(3) 0.7785(2) 0.3593(3)
H12_3 H 0.2856 0.8054 0.4083
C20_3 C 0.3747(3) 0.7286(2) 0.3951(3)
C21_3 C 0.3868(3) 0.6874(3) 0.3231(3)
H13_3 H 0.4388 0.6524 0.3444
C22_3 C 0.3193(3) 0.6996(3) 0.2187(3)
C23_3 C 0.2417(3) 0.7503(3) 0.1872(3)
H14_3 H 0.1972 0.7574 0.1159
C24_3 C 0.4428(3) 0.7200(2) 0.5121(3)
N1_2 N 0.8206(2) 0.0318(2) 0.8299(2)
C1_2 C 0.8587(3) 0.0140(2) 0.9311(3)
H2_2 H 0.9173 0.0382 0.9807
H4_2 H 0.7111 0.0062 0.6879
O1_2 O 0.9601(2) 0.95781(18) 0.1329(2)
O2_2 O 0.8158(2) 0.91352(17) 0.1154(2)
O3_3 O 0.9208(3) 0.74070(18) 0.0684(2)
O5_3 O 1.0000 0.8000(2) 0.2500
H1_2 H 0.9670 0.7751 0.1933
C6_2 C 0.8681(3) 0.9426(2) 0.0811(3)
C12_3 C 0.9428(3) 0.7800(2) 0.0121(3)
Cd2_2 Cd 0.90221(2) 0.878127(16) 0.28750(2)
O10_2 O 0.9854(2) 0.82605(18) 0.4566(2)
N5_2 N 0.8206(2) 0.9682(2) 0.3299(2)
N7_2 N 0.7713(2) 0.7897(2) 0.2427(2)
Br1_2 Br 0.57766(4) 0.88971(3) 0.68143(4)
Br2_3 Br 0.83129(5) 0.85517(4) 0.61467(4)
N2_3 N 0.7287(2) 0.7103(2) 0.7573(2)
C2_2 C 0.8152(3) 0.9614(2) 0.9654(3)
C3_2 C 0.7285(3) 0.9245(2) 0.8918(3)
H3_2 H 0.6963 0.8896 0.9122
C4_2 C 0.6911(3) 0.9412(3) 0.7868(3)
C5_2 C 0.7378(3) 0.9950(2) 0.7586(3)
C7_3 C 0.7943(3) 0.7215(2) 0.8593(3)
H5_3 H 0.7856 0.6946 0.9083
C8_3 C 0.8747(3) 0.7714(2) 0.8951(3)
C9_3 C 0.8868(3) 0.8126(3) 0.8231(3)
H6_3 H 0.9388 0.8476 0.8444
C10_3 C 0.8193(3) 0.8004(3) 0.7187(3)
C11_3 C 0.7417(3) 0.7497(3) 0.6872(3)
H7_3 H 0.6972 0.7426 0.6159
Br2_4 Br 0.16871(5) 0.85517(4) 0.88533(4)
O3_4 O 0.0792(3) 0.74070(18) 0.4316(2)
N2_4 N 0.2713(2) 0.7103(2) 0.7427(2)
C7_4 C 0.2057(3) 0.7215(2) 0.6407(3)
H5_4 H 0.2144 0.6946 0.5917
C8_4 C 0.1253(3) 0.7714(2) 0.6049(3)
C9_4 C 0.1132(3) 0.8126(3) 0.6769(3)
H6_4 H 0.0612 0.8476 0.6556
C10_4 C 0.1807(3) 0.8004(3) 0.7813(3)
C11_4 C 0.2583(3) 0.7497(3) 0.8128(3)
H7_4 H 0.3028 0.7426 0.8841
C12_4 C 0.0572(3) 0.7800(2) 0.4879(3)
Br4_4 Br 0.66871(5) 0.64483(4) 0.38533(4)
C19_4 C 0.7057(3) 0.7785(2) 0.1407(3)
H12_4 H 0.7144 0.8054 0.0917
C20_4 C 0.6253(3) 0.7286(2) 0.1049(3)
C21_4 C 0.6132(3) 0.6874(3) 0.1769(3)
H13_4 H 0.5612 0.6524 0.1556
C22_4 C 0.6807(3) 0.6996(3) 0.2813(3)
C23_4 C 0.7583(3) 0.7503(3) 0.3128(3)
H14_4 H 0.8028 0.7574 0.3841
O8_4 O 0.5792(3) 0.75930(18) 0.9316(2)
O9_4 O 0.4854(2) 0.67395(18) 0.9566(2)
C24_4 C 0.5572(3) 0.7200(2) 0.9879(3)
Br1_3 Br 0.92234(4) 0.61029(3) 0.31857(4)
C1_3 C 0.6413(3) 0.4860(2) 0.0689(3)
H2_3 H 0.5827 0.4618 0.0193
C2_3 C 0.6848(3) 0.5386(2) 0.0346(3)
C3_3 C 0.7715(3) 0.5755(2) 0.1082(3)
H3_3 H 0.8037 0.6104 0.0878
C4_3 C 0.8089(3) 0.5588(3) 0.2132(3)
C5_3 C 0.7622(3) 0.5050(2) 0.2414(3)
H4_3 H 0.7889 0.4938 0.3121
O1_3 O 0.5399(2) 0.54219(18) 0.8671(2)
O2_3 O 0.6842(2) 0.58648(17) 0.8846(2)
O5_4 O 0.5000 0.7000(2) 0.7500
H1_3 H 0.5330 0.7249 0.8067
C6_3 C 0.6319(3) 0.5574(2) 0.9189(3)
Br3_3 Br 0.07766(4) 0.61029(3) 0.18143(4)
O6_3 O 0.4601(2) 0.54219(18) 0.6329(2)
O7_3 O 0.3158(2) 0.58648(17) 0.6154(2)
H8_3 H 0.4670 0.7249 0.6933
C13_3 C 0.3587(3) 0.4860(2) 0.4311(3)
H9_3 H 0.4173 0.4618 0.4807
C14_3 C 0.3152(3) 0.5386(2) 0.4654(3)
C15_3 C 0.2285(3) 0.5755(2) 0.3918(3)
H10_3 H 0.1963 0.6104 0.4122
C16_3 C 0.1911(3) 0.5588(3) 0.2868(3)
C17_3 C 0.2378(3) 0.5050(2) 0.2586(3)
H11_3 H 0.2111 0.4938 0.1879
C18_3 C 0.3681(3) 0.5574(2) 0.5811(3)
Br1_4 Br 0.42234(4) 0.11029(3) 0.31857(4)
C2_4 C 0.1848(3) 0.0386(2) 0.0346(3)
C3_4 C 0.2715(3) 0.0755(2) 0.1082(3)
H3_4 H 0.3037 0.1104 0.0878
C4_4 C 0.3089(3) 0.0588(3) 0.2132(3)
C5_4 C 0.2622(3) 0.0050(2) 0.2414(3)
O1_4 O 0.0399(2) 0.04219(18) 0.8671(2)
O2_4 O 0.1842(2) 0.08648(17) 0.8846(2)
O5_5 O 0.0000 0.2000(2) 0.7500
H1_4 H 0.0330 0.2249 0.8067
C6_4 C 0.1319(3) 0.0574(2) 0.9189(3)
C1_4 C 0.1413(3) 0.9860(2) 0.0689(3)
H2_4 H 0.0827 0.9618 0.0193
H4_4 H 0.2889 0.9938 0.3121
O5_6 O 1.0000 0.2000(2) 0.7500
Br3_4 Br 0.57766(4) 0.11029(3) 0.18143(4)
O6_4 O 0.9601(2) 0.04219(18) 0.6329(2)
O7_4 O 0.8158(2) 0.08648(17) 0.6154(2)
H8_4 H 0.9670 0.2249 0.6933
C14_4 C 0.8152(3) 0.0386(2) 0.4654(3)
C15_4 C 0.7285(3) 0.0755(2) 0.3918(3)
H10_4 H 0.6963 0.1104 0.4122
C16_4 C 0.6911(3) 0.0588(3) 0.2868(3)
C17_4 C 0.7378(3) 0.0050(2) 0.2586(3)
C18_4 C 0.8681(3) 0.0574(2) 0.5811(3)
C13_4 C 0.8587(3) 0.9860(2) 0.4311(3)
H9_4 H 0.9173 0.9618 0.4807
H11_4 H 0.7111 0.9938 0.1879
loop_
_geom_bond_atom_site_label_1
_geom_bond_atom_site_label_2
_geom_bond_site_symmetry_1
_geom_bond_site_symmetry_2
Cd6 O9 1_555 1_555
Cd1 O1 1_555 1_555
O1 C6 1_555 1_555
O2 C6 1_555 1_555
O3 C12 1_555 1_555
O4 Cd1 1_555 1_555
O5 Cd1 1_555 1_555
H1 O5 1_555 1_555
C12 O4 1_555 1_555
Cd2 O2 1_555 1_555
Cd5 N3 1_555 1_555
Br3 C16 1_555 1_555
Br4 C22 1_555 1_555
O6 Cd2 1_555 1_555
O7 Cd1 1_555 1_555
O8 C24 1_555 1_555
O10 Cd2 1_555 1_555
H8 O5 1_555 1_555
N3 C13 1_555 1_555
N4 Cd1 1_555 1_555
N5 Cd2 1_555 1_555
N6 Cd1 1_555 1_555
N7 Cd2 1_555 1_555
C13 H9 1_555 1_555
C14 C13 1_555 1_555
C15 C14 1_555 1_555
H10 C15 1_555 1_555
C16 C15 1_555 1_555
C17 N3 1_555 1_555
H11 C17 1_555 1_555
C18 O6 1_555 1_555
C19 N6 1_555 1_555
H12 C19 1_555 1_555
C20 C19 1_555 1_555
C21 C20 1_555 1_555
H13 C21 1_555 1_555
C22 C21 1_555 1_555
C23 N6 1_555 1_555
H14 C23 1_555 1_555
C24 C20 1_555 1_555
O5 Cd2 1_555 1_555
O7 C18 1_555 1_555
C14 C18 1_555 1_555
C16 C17 1_555 1_555
C22 C23 1_555 1_555
Br1 C4 1_555 1_555
Br2 C10 1_555 1_555
N1 C1 1_555 1_555
N2 C7 1_555 1_555
C1 H2 1_555 1_555
C2 C1 1_555 1_555
C3 C2 1_555 1_555
H3 C3 1_555 1_555
C4 C3 1_555 1_555
C5 N1 1_555 1_555
H4 C5 1_555 1_555
C7 H5 1_555 1_555
C8 C7 1_555 1_555
C9 C8 1_555 1_555
H6 C9 1_555 1_555
C10 C9 1_555 1_555
C11 N2 1_555 1_555
H7 C11 1_555 1_555
Cd3 N1 1_555 1_555
Cd6 N2 1_555 1_555
C4 C5 1_555 1_555
C10 C11 1_555 1_555
Br2_2 C10_2 1_555 1_555
O3_2 C12_2 1_555 1_555
N2_2 C7_2 1_555 1_555
C7_2 H5_2 1_555 1_555
C8_2 C7_2 1_555 1_555
C9_2 C8_2 1_555 1_555
H6_2 C9_2 1_555 1_555
C10_2 C9_2 1_555 1_555
C11_2 N2_2 1_555 1_555
H7_2 C11_2 1_555 1_555
C12_2 O10 1_555 1_555
Cd4 N2_2 1_555 1_555
Br4_2 C22_2 1_555 1_555
C19_2 N7 1_555 1_555
H12_2 C19_2 1_555 1_555
C20_2 C19_2 1_555 1_555
C21_2 C20_2 1_555 1_555
H13_2 C21_2 1_555 1_555
C22_2 C21_2 1_555 1_555
C23_2 N7 1_555 1_555
H14_2 C23_2 1_555 1_555
C8_2 C12_2 1_555 1_555
C10_2 C11_2 1_555 1_555
C22_2 C23_2 1_555 1_555
O8_2 C24_2 1_555 1_555
Cd4 O9_2 1_555 1_555
Cd6 N3_2 1_555 1_555
N3_2 C13_2 1_555 1_555
C13_2 H9_2 1_555 1_555
O4_2 Cd1_2 1_555 1_555
O5_2 Cd1_2 1_555 1_555
Cd5 O9_3 1_555 1_555
Br3_2 C16_2 1_555 1_555
Br4_3 C22_3 1_555 1_555
O7_2 Cd1_2 1_555 1_555
O8_3 C24_3 1_555 1_555
O9_3 C24_3 1_555 1_555
H8_2 O5_2 1_555 1_555
N4_2 Cd1_2 1_555 1_555
N6_2 Cd1_2 1_555 1_555
C15_2 C14_2 1_555 1_555
H10_2 C15_2 1_555 1_555
C16_2 C15_2 1_555 1_555
C18_2 O6_2 1_555 1_555
C19_3 N6_2 1_555 1_555
H12_3 C19_3 1_555 1_555
C20_3 C19_3 1_555 1_555
C21_3 C20_3 1_555 1_555
H13_3 C21_3 1_555 1_555
C22_3 C21_3 1_555 1_555
C23_3 N6_2 1_555 1_555
H14_3 C23_3 1_555 1_555
C24_3 C20_3 1_555 1_555
O7_2 C18_2 1_555 1_555
C14_2 C18_2 1_555 1_555
C16_2 C17_2 1_555 1_555
C22_3 C23_3 1_555 1_555
N1_2 C1_2 1_555 1_555
C1_2 H2_2 1_555 1_555
Cd4 N1_2 1_555 1_555
O1_2 C6_2 1_555 1_555
O2_2 C6_2 1_555 1_555
O3_3 C12_3 1_555 1_555
H1_2 O5_3 1_555 1_555
Cd2_2 O2_2 1_555 1_555
O10_2 Cd2_2 1_555 1_555
N5_2 Cd2_2 1_555 1_555
N7_2 Cd2_2 1_555 1_555
O5_3 Cd2_2 1_555 1_555
Br1_2 C4_2 1_555 1_555
Br2_3 C10_3 1_555 1_555
N2_3 C7_3 1_555 1_555
C3_2 C2_2 1_555 1_555
H3_2 C3_2 1_555 1_555
C4_2 C3_2 1_555 1_555
C7_3 H5_3 1_555 1_555
C8_3 C7_3 1_555 1_555
C9_3 C8_3 1_555 1_555
H6_3 C9_3 1_555 1_555
C10_3 C9_3 1_555 1_555
C11_3 N2_3 1_555 1_555
H7_3 C11_3 1_555 1_555
Cd5 N2_3 1_555 1_555
C4_2 C5_2 1_555 1_555
C10_3 C11_3 1_555 1_555
Br2_4 C10_4 1_555 1_555
O3_4 C12_4 1_555 1_555
N2_4 C7_4 1_555 1_555
C7_4 H5_4 1_555 1_555
C8_4 C7_4 1_555 1_555
C9_4 C8_4 1_555 1_555
H6_4 C9_4 1_555 1_555
C10_4 C9_4 1_555 1_555
C11_4 N2_4 1_555 1_555
H7_4 C11_4 1_555 1_555
Cd3 N2_4 1_555 1_555
C8_4 C12_4 1_555 1_555
C10_4 C11_4 1_555 1_555
Br4_4 C22_4 1_555 1_555
C19_4 N7_2 1_555 1_555
H12_4 C19_4 1_555 1_555
C20_4 C19_4 1_555 1_555
C21_4 C20_4 1_555 1_555
H13_4 C21_4 1_555 1_555
C22_4 C21_4 1_555 1_555
C23_4 N7_2 1_555 1_555
H14_4 C23_4 1_555 1_555
C22_4 C23_4 1_555 1_555
Cd3 O9_4 1_555 1_555
O8_4 C24_4 1_555 1_555
O9_4 C24_4 1_555 1_555
Br1_3 C4_3 1_555 1_555
N4 C1_3 1_555 1_555
C1_3 H2_3 1_555 1_555
C2_3 C1_3 1_555 1_555
C3_3 C2_3 1_555 1_555
H3_3 C3_3 1_555 1_555
C4_3 C3_3 1_555 1_555
C5_3 N4 1_555 1_555
H4_3 C5_3 1_555 1_555
C4_3 C5_3 1_555 1_555
Cd3 O1_3 1_555 1_555
O1_3 C6_3 1_555 1_555
O2_3 C6_3 1_555 1_555
O5_4 Cd3 1_555 1_555
H1_3 O5_4 1_555 1_555
Cd5 O2_3 1_555 1_555
Br3_3 C16_3 1_555 1_555
O6_3 Cd5 1_555 1_555
O7_3 Cd3 1_555 1_555
H8_3 O5_4 1_555 1_555
N5 C13_3 1_555 1_555
C13_3 H9_3 1_555 1_555
C14_3 C13_3 1_555 1_555
C15_3 C14_3 1_555 1_555
H10_3 C15_3 1_555 1_555
C16_3 C15_3 1_555 1_555
C17_3 N5 1_555 1_555
H11_3 C17_3 1_555 1_555
C18_3 O6_3 1_555 1_555
O5_4 Cd5 1_555 1_555
O7_3 C18_3 1_555 1_555
C14_3 C18_3 1_555 1_555
C16_3 C17_3 1_555 1_555
Br1_4 C4_4 1_555 1_555
C3_4 C2_4 1_555 1_555
H3_4 C3_4 1_555 1_555
C4_4 C3_4 1_555 1_555
C4_4 C5_4 1_555 1_555
O1_4 C6_4 1_555 1_555
O2_4 C6_4 1_555 1_555
H1_4 O5_5 1_555 1_555
Cd6 O2_4 1_555 1_555
O5_5 Cd6 1_555 1_555
N4_2 C1_4 1_555 1_555
C1_4 H2_4 1_555 1_555
O5_6 Cd4 1_555 1_555
Br3_4 C16_4 1_555 1_555
O7_4 Cd4 1_555 1_555
H8_4 O5_6 1_555 1_555
C15_4 C14_4 1_555 1_555
H10_4 C15_4 1_555 1_555
C16_4 C15_4 1_555 1_555
C18_4 O6_4 1_555 1_555
O7_4 C18_4 1_555 1_555
C14_4 C18_4 1_555 1_555
C16_4 C17_4 1_555 1_555
N5_2 C13_4 1_555 1_555
C13_4 H9_4 1_555 1_555

#END
