
###############################################################################
#
# This file contains modified crystal structure data generated from the
# MOF subset of the Cambridge Structural Database (CSD) v543 
# hosted by the Cambridge Crystallographic Data Centre (CCDC).
#
# This work is licensed under the Creative Commons
# Attribution-NonCommercial-ShareAlike 4.0 International License.
# To view a copy of this license, visit
# http://creativecommons.org/licenses/by-nc-sa/4.0/
# or send a letter to
# Creative Commons, PO Box 1866, Mountain View, CA 94042, USA.
#
# CIF created using the CSD Python API on 29 September 2022
# The structure has been converted into the P1 space group
# The structure has a 3D framework
# The original CSD entry HAZNIH is in the monoclinic crystal system
# The framework has been calculated to contain at least 10.0% void space
# The void calculation uses a probe of radius 1.32A, grid spacing 0.4
#
###############################################################################

data_HAZNIH
_chemical_formula_moiety         '(C96 H56 Br16 Cd8 N16 O38)n'
_symmetry_cell_setting           triclinic
_symmetry_space_group_name_H-M   'P 1'
_symmetry_Int_Tables_number      1
_space_group_name_Hall           'P 1'
loop_
_symmetry_equiv_pos_site_id
_symmetry_equiv_pos_as_xyz
1 x,y,z
_cell_length_a                   15.3959(9)
_cell_length_b                   17.3775(10)
_cell_length_c                   15.0543(12)
_cell_angle_alpha                90
_cell_angle_beta                 120.4200(10)
_cell_angle_gamma                90
_cell_volume                     3473.2
loop_
_atom_site_label
_atom_site_type_symbol
_atom_site_fract_x
_atom_site_fract_y
_atom_site_fract_z
Br2 Br 0.13792(5) 0.63254(4) 0.30796(5)
N2 N 0.2387(4) 0.7794(3) 0.1669(3)
C7 C 0.1761(4) 0.7656(3) 0.0664(4)
H5 H 0.1857 0.7922 0.0184
C8 C 0.2245(5) 0.7405(4) 0.2351(4)
H6 H 0.2677 0.7495 0.3050
C9 C 0.1483(4) 0.6879(4) 0.2053(4)
C10 C 0.0820(4) 0.6744(3) 0.1027(4)
H7 H 0.0285 0.6403 0.0817
C11 C 0.0976(4) 0.7134(3) 0.0315(4)
Cd5 Cd 0.36611(3) 0.86729(2) 0.21430(3)
O4 O 0.0762(3) 0.7138(2) 0.8656(3)
O5 O -0.0000 0.5542(3) 0.7500
H1 H 0.0263 0.5293 0.8063
C12 C 0.0352(4) 0.6978(3) 0.9166(4)
Cd3 Cd 0.13389(3) 0.63271(2) 0.78570(3)
O8 O 0.2156(3) 0.5763(3) 0.9500(3)
O9 O 0.0510(3) 0.6705(3) 0.6174(3)
N4 N 0.2187(4) 0.5446(3) 0.7353(3)
N7 N 0.2613(4) 0.7206(3) 0.8331(3)
Cd2 Cd 0.86611(3) 0.36729(2) 0.21430(3)
O6 O 0.9047(4) 0.5072(3) 0.0717(3)
O7 O 0.7844(3) 0.4237(3) 0.0500(3)
C18 C 0.8257(5) 0.4694(4) 0.0183(4)
Cd1 Cd 0.86611(3) 0.63271(2) 0.71430(3)
Br1 Br 0.53698(7) 0.59895(6) 0.12981(6)
O1 O 0.9047(4) 0.4928(3) 0.5717(3)
O2 O 0.7844(3) 0.5763(3) 0.5500(3)
O3 O 0.9490(3) 0.6705(3) 0.8826(3)
O5_2 O 1.0000 0.5542(3) 0.7500
N1 N 0.7813(4) 0.4554(3) 0.2647(3)
C1 C 0.8193(4) 0.4686(3) 0.3648(4)
H2 H 0.8779 0.4430 0.4116
C2 C 0.6980(5) 0.4932(4) 0.1972(5)
H3 H 0.6705 0.4844 0.1270
C3 C 0.6525(5) 0.5447(4) 0.2296(4)
C4 C 0.6906(4) 0.5596(4) 0.3334(4)
H4 H 0.6604 0.5952 0.3555
C5 C 0.7754(4) 0.5192(3) 0.4024(4)
C6 C 0.8257(5) 0.5306(4) 0.5183(4)
Cd6 Cd 0.63389(3) 0.86729(2) 0.28570(3)
Br3 Br 0.53698(7) 0.40105(6) 0.62981(6)
Br4 Br 0.86208(5) 0.63254(4) 0.19204(5)
O10 O 0.9238(3) 0.7138(2) 0.6344(3)
H8 H 0.9737 0.5293 0.6937
N3 N 0.7813(4) 0.5446(3) 0.7647(3)
N5 N 0.7613(4) 0.7794(3) 0.3331(3)
N6 N 0.7387(4) 0.7206(3) 0.6669(3)
C13 C 0.8193(4) 0.5314(3) 0.8648(4)
H9 H 0.8779 0.5570 0.9116
C14 C 0.6980(5) 0.5068(4) 0.6972(5)
H10 H 0.6705 0.5156 0.6270
C15 C 0.6525(5) 0.4553(4) 0.7296(4)
C16 C 0.6906(4) 0.4404(4) 0.8334(4)
H11 H 0.6604 0.4048 0.8555
C17 C 0.7754(4) 0.4808(3) 0.9024(4)
C19 C 0.8239(4) 0.7656(3) 0.4336(4)
H12 H 0.8143 0.7922 0.4816
C20 C 0.7755(5) 0.7405(4) 0.2649(4)
H13 H 0.7323 0.7495 0.1950
C21 C 0.8517(4) 0.6879(4) 0.2947(4)
C22 C 0.9180(4) 0.6744(3) 0.3973(4)
H14 H 0.9715 0.6403 0.4183
C23 C 0.9024(4) 0.7134(3) 0.4685(4)
C24 C 0.9648(4) 0.6978(3) 0.5834(4)
Br1_2 Br 0.46302(7) 0.59895(6) 0.37019(6)
N1_2 N 0.2187(4) 0.4554(3) 0.2353(3)
C1_2 C 0.1807(4) 0.4686(3) 0.1352(4)
H2_2 H 0.1221 0.4430 0.0884
C2_2 C 0.3020(5) 0.4932(4) 0.3028(5)
H3_2 H 0.3295 0.4844 0.3730
C3_2 C 0.3475(5) 0.5447(4) 0.2704(4)
C4_2 C 0.3094(4) 0.5596(4) 0.1666(4)
H4_2 H 0.3396 0.5952 0.1445
C5_2 C 0.2246(4) 0.5192(3) 0.0976(4)
Cd4 Cd 0.13389(3) 0.36729(2) 0.28570(3)
O1_2 O 0.0953(4) 0.4928(3) 0.9283(3)
C6_2 C 0.1743(5) 0.5306(4) 0.9817(4)
Br3_2 Br 0.46302(7) 0.40105(6) 0.87019(6)
O6_2 O 0.0953(4) 0.5072(3) 0.4283(3)
O7_2 O 0.2156(3) 0.4237(3) 0.4500(3)
C13_2 C 0.1807(4) 0.5314(3) 0.6352(4)
H9_2 H 0.1221 0.5570 0.5884
C14_2 C 0.3020(5) 0.5068(4) 0.8028(5)
H10_2 H 0.3295 0.5156 0.8730
C15_2 C 0.3475(5) 0.4553(4) 0.7704(4)
C16_2 C 0.3094(4) 0.4404(4) 0.6666(4)
H11_2 H 0.3396 0.4048 0.6445
C17_2 C 0.2246(4) 0.4808(3) 0.5976(4)
C18_2 C 0.1743(5) 0.4694(4) 0.4817(4)
Br2_2 Br 0.63792(5) 0.13254(4) 0.30796(5)
N2_2 N 0.7387(4) 0.2794(3) 0.1669(3)
C7_2 C 0.6761(4) 0.2656(3) 0.0664(4)
H5_2 H 0.6857 0.2922 0.0184
C8_2 C 0.7245(5) 0.2405(4) 0.2351(4)
H6_2 H 0.7677 0.2495 0.3050
C9_2 C 0.6483(4) 0.1879(4) 0.2053(4)
C10_2 C 0.5820(4) 0.1744(3) 0.1027(4)
H7_2 H 0.5285 0.1403 0.0817
C11_2 C 0.5976(4) 0.2134(3) 0.0315(4)
O6_3 O 0.4047(4) 0.0072(3) 0.0717(3)
Cd1_2 Cd 0.36611(3) 0.13271(2) 0.71430(3)
Br1_3 Br 0.03698(7) 0.09895(6) 0.12981(6)
O2_2 O 0.2844(3) 0.0763(3) 0.5500(3)
O3_2 O 0.4490(3) 0.1705(3) 0.8826(3)
O4_2 O 0.5762(3) 0.2138(2) 0.8656(3)
O5_3 O 0.5000 0.0542(3) 0.7500
H1_2 H 0.5263 0.0293 0.8063
C3_3 C 0.1525(5) 0.0447(4) 0.2296(4)
C4_3 C 0.1906(4) 0.0596(4) 0.3334(4)
H4_3 H 0.1604 0.0952 0.3555
C5_3 C 0.2754(4) 0.0192(3) 0.4024(4)
C6_3 C 0.3257(5) 0.0306(4) 0.5183(4)
C12_2 C 0.5352(4) 0.1978(3) 0.9166(4)
Cd3_2 Cd 0.63389(3) 0.13271(2) 0.78570(3)
Br4_2 Br 0.36208(5) 0.13254(4) 0.19204(5)
O8_2 O 0.7156(3) 0.0763(3) 0.9500(3)
O9_2 O 0.5510(3) 0.1705(3) 0.6174(3)
O10_2 O 0.4238(3) 0.2138(2) 0.6344(3)
H8_2 H 0.4737 0.0293 0.6937
N3_2 N 0.2813(4) 0.0446(3) 0.7647(3)
N4_2 N 0.7187(4) 0.0446(3) 0.7353(3)
N5_2 N 0.2613(4) 0.2794(3) 0.3331(3)
N6_2 N 0.2387(4) 0.2206(3) 0.6669(3)
N7_2 N 0.7613(4) 0.2206(3) 0.8331(3)
C13_3 C 0.3193(4) 0.0314(3) 0.8648(4)
H9_3 H 0.3779 0.0570 0.9116
C14_3 C 0.1980(5) 0.0068(4) 0.6972(5)
H10_3 H 0.1705 0.0156 0.6270
C19_2 C 0.3239(4) 0.2656(3) 0.4336(4)
H12_2 H 0.3143 0.2922 0.4816
C20_2 C 0.2755(5) 0.2405(4) 0.2649(4)
H13_2 H 0.2323 0.2495 0.1950
C21_2 C 0.3517(4) 0.1879(4) 0.2947(4)
C22_2 C 0.4180(4) 0.1744(3) 0.3973(4)
H14_2 H 0.4715 0.1403 0.4183
C23_2 C 0.4024(4) 0.2134(3) 0.4685(4)
C24_2 C 0.4648(4) 0.1978(3) 0.5834(4)
O7_3 O 0.2844(3) 0.9237(3) 0.0500(3)
C18_3 C 0.3257(5) 0.9694(4) 0.0183(4)
O1_3 O 0.4047(4) 0.9928(3) 0.5717(3)
N1_3 N 0.2813(4) 0.9554(3) 0.2647(3)
C1_3 C 0.3193(4) 0.9686(3) 0.3648(4)
H2_3 H 0.3779 0.9430 0.4116
C2_3 C 0.1980(5) 0.9932(4) 0.1972(5)
H3_3 H 0.1705 0.9844 0.1270
Br3_3 Br 0.03698(7) 0.90105(6) 0.62981(6)
C15_3 C 0.1525(5) 0.9553(4) 0.7296(4)
C16_3 C 0.1906(4) 0.9404(4) 0.8334(4)
H11_3 H 0.1604 0.9048 0.8555
C17_3 C 0.2754(4) 0.9808(3) 0.9024(4)
Br1_4 Br 0.96302(7) 0.09895(6) 0.37019(6)
C3_4 C 0.8475(5) 0.0447(4) 0.2704(4)
C4_4 C 0.8094(4) 0.0596(4) 0.1666(4)
H4_4 H 0.8396 0.0952 0.1445
C5_4 C 0.7246(4) 0.0192(3) 0.0976(4)
C6_4 C 0.6743(5) 0.0306(4) 0.9817(4)
O6_4 O 0.5953(4) 0.0072(3) 0.4283(3)
C13_4 C 0.6807(4) 0.0314(3) 0.6352(4)
H9_4 H 0.6221 0.0570 0.5884
C14_4 C 0.8020(5) 0.0068(4) 0.8028(5)
H10_4 H 0.8295 0.0156 0.8730
N1_4 N 0.7187(4) 0.9554(3) 0.2353(3)
C1_4 C 0.6807(4) 0.9686(3) 0.1352(4)
H2_4 H 0.6221 0.9430 0.0884
C2_4 C 0.8020(5) 0.9932(4) 0.3028(5)
H3_4 H 0.8295 0.9844 0.3730
O1_4 O 0.5953(4) 0.9928(3) 0.9283(3)
Br3_4 Br 0.96302(7) 0.90105(6) 0.87019(6)
O7_4 O 0.7156(3) 0.9237(3) 0.4500(3)
C15_4 C 0.8475(5) 0.9553(4) 0.7704(4)
C16_4 C 0.8094(4) 0.9404(4) 0.6666(4)
H11_4 H 0.8396 0.9048 0.6445
C17_4 C 0.7246(4) 0.9808(3) 0.5976(4)
C18_4 C 0.6743(5) 0.9694(4) 0.4817(4)
O3_3 O 0.0510(3) 0.3295(3) 0.1174(3)
O5_4 O 0.0000 0.4458(3) 0.2500
Br4_3 Br 0.13792(5) 0.36746(4) 0.80796(5)
O10_3 O 0.0762(3) 0.2862(2) 0.3656(3)
H8_3 H 0.0263 0.4707 0.3063
C19_3 C 0.1761(4) 0.2344(3) 0.5664(4)
H12_3 H 0.1857 0.2078 0.5184
C20_3 C 0.2245(5) 0.2595(4) 0.7351(4)
H13_3 H 0.2677 0.2505 0.8050
C21_3 C 0.1483(4) 0.3121(4) 0.7053(4)
C22_3 C 0.0820(4) 0.3256(3) 0.6027(4)
H14_3 H 0.0285 0.3597 0.5817
C23_3 C 0.0976(4) 0.2866(3) 0.5315(4)
C24_3 C 0.0352(4) 0.3022(3) 0.4166(4)
O4_3 O 0.9238(3) 0.2862(2) 0.1344(3)
O5_5 O 1.0000 0.4458(3) 0.2500
H1_3 H 0.9737 0.4707 0.1937
C12_3 C 0.9648(4) 0.3022(3) 0.0834(4)
O9_3 O 0.9490(3) 0.3295(3) 0.3826(3)
Br2_3 Br 0.86208(5) 0.36746(4) 0.69204(5)
C7_3 C 0.8239(4) 0.2344(3) 0.9336(4)
H5_3 H 0.8143 0.2078 0.9816
C8_3 C 0.7755(5) 0.2595(4) 0.7649(4)
H6_3 H 0.7323 0.2505 0.6950
C9_3 C 0.8517(4) 0.3121(4) 0.7947(4)
C10_3 C 0.9180(4) 0.3256(3) 0.8973(4)
H7_3 H 0.9715 0.3597 0.9183
C11_3 C 0.9024(4) 0.2866(3) 0.9685(4)
O3_4 O 0.5510(3) 0.8295(3) 0.1174(3)
O4_4 O 0.4238(3) 0.7862(2) 0.1344(3)
O5_6 O 0.5000 0.9458(3) 0.2500
H1_4 H 0.4737 0.9707 0.1937
C12_4 C 0.4648(4) 0.8022(3) 0.0834(4)
Br4_4 Br 0.63792(5) 0.86746(4) 0.80796(5)
O9_4 O 0.4490(3) 0.8295(3) 0.3826(3)
O10_4 O 0.5762(3) 0.7862(2) 0.3656(3)
H8_4 H 0.5263 0.9707 0.3063
C19_4 C 0.6761(4) 0.7344(3) 0.5664(4)
H12_4 H 0.6857 0.7078 0.5184
C20_4 C 0.7245(5) 0.7595(4) 0.7351(4)
H13_4 H 0.7677 0.7505 0.8050
C21_4 C 0.6483(4) 0.8121(4) 0.7053(4)
C22_4 C 0.5820(4) 0.8256(3) 0.6027(4)
H14_4 H 0.5285 0.8597 0.5817
C23_4 C 0.5976(4) 0.7866(3) 0.5315(4)
C24_4 C 0.5352(4) 0.8022(3) 0.4166(4)
Br2_4 Br 0.36208(5) 0.86746(4) 0.69204(5)
C7_4 C 0.3239(4) 0.7344(3) 0.9336(4)
H5_4 H 0.3143 0.7078 0.9816
C8_4 C 0.2755(5) 0.7595(4) 0.7649(4)
H6_4 H 0.2323 0.7505 0.6950
C9_4 C 0.3517(4) 0.8121(4) 0.7947(4)
C10_4 C 0.4180(4) 0.8256(3) 0.8973(4)
H7_4 H 0.4715 0.8597 0.9183
C11_4 C 0.4024(4) 0.7866(3) 0.9685(4)
loop_
_geom_bond_atom_site_label_1
_geom_bond_atom_site_label_2
_geom_bond_site_symmetry_1
_geom_bond_site_symmetry_2
Br2 C9 1_555 1_555
N2 C7 1_555 1_555
C7 H5 1_555 1_555
C8 N2 1_555 1_555
H6 C8 1_555 1_555
C9 C8 1_555 1_555
C10 C9 1_555 1_555
H7 C10 1_555 1_555
C11 C7 1_555 1_555
Cd5 N2 1_555 1_555
C10 C11 1_555 1_555
O4 C12 1_555 1_555
H1 O5 1_555 1_555
Cd3 O4 1_555 1_555
O8 Cd3 1_555 1_555
O9 Cd3 1_555 1_555
N4 Cd3 1_555 1_555
N7 Cd3 1_555 1_555
O5 Cd3 1_555 1_555
Cd2 O7 1_555 1_555
O6 C18 1_555 1_555
O7 C18 1_555 1_555
Cd1 O2 1_555 1_555
Br1 C3 1_555 1_555
O1 C6 1_555 1_555
O2 C6 1_555 1_555
O3 Cd1 1_555 1_555
O5_2 Cd1 1_555 1_555
N1 C1 1_555 1_555
C1 H2 1_555 1_555
C2 N1 1_555 1_555
H3 C2 1_555 1_555
C3 C2 1_555 1_555
C4 C3 1_555 1_555
H4 C4 1_555 1_555
C5 C1 1_555 1_555
C6 C5 1_555 1_555
Cd2 N1 1_555 1_555
Cd6 N5 1_555 1_555
Br3 C15 1_555 1_555
Br4 C21 1_555 1_555
O10 Cd1 1_555 1_555
H8 O5_2 1_555 1_555
N3 Cd1 1_555 1_555
N5 C19 1_555 1_555
N6 Cd1 1_555 1_555
C13 N3 1_555 1_555
H9 C13 1_555 1_555
C14 N3 1_555 1_555
H10 C14 1_555 1_555
C15 C14 1_555 1_555
C16 C15 1_555 1_555
H11 C16 1_555 1_555
C17 C13 1_555 1_555
C19 H12 1_555 1_555
C20 N5 1_555 1_555
H13 C20 1_555 1_555
C21 C20 1_555 1_555
C22 C21 1_555 1_555
H14 C22 1_555 1_555
C23 C19 1_555 1_555
C4 C5 1_555 1_555
O10 C24 1_555 1_555
C16 C17 1_555 1_555
C22 C23 1_555 1_555
C23 C24 1_555 1_555
Br1_2 C3_2 1_555 1_555
N1_2 C1_2 1_555 1_555
C1_2 H2_2 1_555 1_555
C2_2 N1_2 1_555 1_555
H3_2 C2_2 1_555 1_555
C3_2 C2_2 1_555 1_555
C4_2 C3_2 1_555 1_555
H4_2 C4_2 1_555 1_555
C5_2 C1_2 1_555 1_555
Cd4 N1_2 1_555 1_555
C4_2 C5_2 1_555 1_555
O1_2 C6_2 1_555 1_555
O8 C6_2 1_555 1_555
Cd4 O7_2 1_555 1_555
Br3_2 C15_2 1_555 1_555
O6_2 C18_2 1_555 1_555
O7_2 C18_2 1_555 1_555
C13_2 N4 1_555 1_555
H9_2 C13_2 1_555 1_555
C14_2 N4 1_555 1_555
H10_2 C14_2 1_555 1_555
C15_2 C14_2 1_555 1_555
C16_2 C15_2 1_555 1_555
H11_2 C16_2 1_555 1_555
C17_2 C13_2 1_555 1_555
C18_2 C17_2 1_555 1_555
C16_2 C17_2 1_555 1_555
Br2_2 C9_2 1_555 1_555
N2_2 C7_2 1_555 1_555
C7_2 H5_2 1_555 1_555
C8_2 N2_2 1_555 1_555
H6_2 C8_2 1_555 1_555
C9_2 C8_2 1_555 1_555
C10_2 C9_2 1_555 1_555
H7_2 C10_2 1_555 1_555
C11_2 C7_2 1_555 1_555
Cd2 N2_2 1_555 1_555
C10_2 C11_2 1_555 1_555
Cd1_2 O2_2 1_555 1_555
Br1_3 C3_3 1_555 1_555
O2_2 C6_3 1_555 1_555
O3_2 Cd1_2 1_555 1_555
O4_2 C12_2 1_555 1_555
O5_3 Cd1_2 1_555 1_555
H1_2 O5_3 1_555 1_555
C4_3 C3_3 1_555 1_555
H4_3 C4_3 1_555 1_555
C6_3 C5_3 1_555 1_555
C12_2 O3_2 1_555 1_555
Cd3_2 O4_2 1_555 1_555
Cd4 N5_2 1_555 1_555
Br4_2 C21_2 1_555 1_555
O8_2 Cd3_2 1_555 1_555
O9_2 Cd3_2 1_555 1_555
O10_2 Cd1_2 1_555 1_555
H8_2 O5_3 1_555 1_555
N3_2 Cd1_2 1_555 1_555
N4_2 Cd3_2 1_555 1_555
N5_2 C19_2 1_555 1_555
N6_2 Cd1_2 1_555 1_555
N7_2 Cd3_2 1_555 1_555
C13_3 N3_2 1_555 1_555
H9_3 C13_3 1_555 1_555
C14_3 N3_2 1_555 1_555
H10_3 C14_3 1_555 1_555
C19_2 H12_2 1_555 1_555
C20_2 N5_2 1_555 1_555
H13_2 C20_2 1_555 1_555
C21_2 C20_2 1_555 1_555
C22_2 C21_2 1_555 1_555
H14_2 C22_2 1_555 1_555
C23_2 C19_2 1_555 1_555
C24_2 O9_2 1_555 1_555
O5_3 Cd3_2 1_555 1_555
C4_3 C5_3 1_555 1_555
O10_2 C24_2 1_555 1_555
C22_2 C23_2 1_555 1_555
C23_2 C24_2 1_555 1_555
Cd5 O7_3 1_555 1_555
O7_3 C18_3 1_555 1_555
N1_3 C1_3 1_555 1_555
C1_3 H2_3 1_555 1_555
C2_3 N1_3 1_555 1_555
H3_3 C2_3 1_555 1_555
Cd5 N1_3 1_555 1_555
Br3_3 C15_3 1_555 1_555
C16_3 C15_3 1_555 1_555
H11_3 C16_3 1_555 1_555
C16_3 C17_3 1_555 1_555
Br1_4 C3_4 1_555 1_555
C4_4 C3_4 1_555 1_555
H4_4 C4_4 1_555 1_555
C4_4 C5_4 1_555 1_555
O8_2 C6_4 1_555 1_555
C13_4 N4_2 1_555 1_555
H9_4 C13_4 1_555 1_555
C14_4 N4_2 1_555 1_555
H10_4 C14_4 1_555 1_555
N1_4 C1_4 1_555 1_555
C1_4 H2_4 1_555 1_555
C2_4 N1_4 1_555 1_555
H3_4 C2_4 1_555 1_555
Cd6 N1_4 1_555 1_555
Cd6 O7_4 1_555 1_555
Br3_4 C15_4 1_555 1_555
O7_4 C18_4 1_555 1_555
C16_4 C15_4 1_555 1_555
H11_4 C16_4 1_555 1_555
C18_4 C17_4 1_555 1_555
C16_4 C17_4 1_555 1_555
O3_3 Cd4 1_555 1_555
O5_4 Cd4 1_555 1_555
Br4_3 C21_3 1_555 1_555
O10_3 Cd4 1_555 1_555
H8_3 O5_4 1_555 1_555
N6_2 C19_3 1_555 1_555
C19_3 H12_3 1_555 1_555
C20_3 N6_2 1_555 1_555
H13_3 C20_3 1_555 1_555
C21_3 C20_3 1_555 1_555
C22_3 C21_3 1_555 1_555
H14_3 C22_3 1_555 1_555
C23_3 C19_3 1_555 1_555
O10_3 C24_3 1_555 1_555
C22_3 C23_3 1_555 1_555
C23_3 C24_3 1_555 1_555
O4_3 C12_3 1_555 1_555
H1_3 O5_5 1_555 1_555
Cd2 O4_3 1_555 1_555
O9_3 Cd2 1_555 1_555
O5_5 Cd2 1_555 1_555
Br2_3 C9_3 1_555 1_555
N7_2 C7_3 1_555 1_555
C7_3 H5_3 1_555 1_555
C8_3 N7_2 1_555 1_555
H6_3 C8_3 1_555 1_555
C9_3 C8_3 1_555 1_555
C10_3 C9_3 1_555 1_555
H7_3 C10_3 1_555 1_555
C11_3 C7_3 1_555 1_555
C10_3 C11_3 1_555 1_555
O3_4 Cd6 1_555 1_555
O4_4 C12_4 1_555 1_555
O5_6 Cd6 1_555 1_555
H1_4 O5_6 1_555 1_555
C12_4 O3_4 1_555 1_555
Cd5 O4_4 1_555 1_555
Br4_4 C21_4 1_555 1_555
O9_4 Cd5 1_555 1_555
O10_4 Cd6 1_555 1_555
H8_4 O5_6 1_555 1_555
N6 C19_4 1_555 1_555
C19_4 H12_4 1_555 1_555
C20_4 N6 1_555 1_555
H13_4 C20_4 1_555 1_555
C21_4 C20_4 1_555 1_555
C22_4 C21_4 1_555 1_555
H14_4 C22_4 1_555 1_555
C23_4 C19_4 1_555 1_555
C24_4 O9_4 1_555 1_555
O5_6 Cd5 1_555 1_555
O10_4 C24_4 1_555 1_555
C22_4 C23_4 1_555 1_555
C23_4 C24_4 1_555 1_555
Br2_4 C9_4 1_555 1_555
N7 C7_4 1_555 1_555
C7_4 H5_4 1_555 1_555
C8_4 N7 1_555 1_555
H6_4 C8_4 1_555 1_555
C9_4 C8_4 1_555 1_555
C10_4 C9_4 1_555 1_555
H7_4 C10_4 1_555 1_555
C11_4 C7_4 1_555 1_555
C10_4 C11_4 1_555 1_555

#END
