
###############################################################################
#
# This file contains modified crystal structure data generated from the
# MOF subset of the Cambridge Structural Database (CSD) v543 
# hosted by the Cambridge Crystallographic Data Centre (CCDC).
#
# This work is licensed under the Creative Commons
# Attribution-NonCommercial-ShareAlike 4.0 International License.
# To view a copy of this license, visit
# http://creativecommons.org/licenses/by-nc-sa/4.0/
# or send a letter to
# Creative Commons, PO Box 1866, Mountain View, CA 94042, USA.
#
# CIF created using the CSD Python API on 29 September 2022
# The structure has been converted into the P1 space group
# The structure has a 3D framework
# The original CSD entry HAZPAB is in the monoclinic crystal system
# The framework has been calculated to contain at least 10.0% void space
# The void calculation uses a probe of radius 1.32A, grid spacing 0.4
#
###############################################################################

data_HAZPAB
_chemical_formula_moiety         '(C96 H56 Br16 Cd8 N16 O36)n'
_symmetry_cell_setting           triclinic
_symmetry_space_group_name_H-M   'P 1'
_symmetry_Int_Tables_number      1
_space_group_name_Hall           'P 1'
loop_
_symmetry_equiv_pos_site_id
_symmetry_equiv_pos_as_xyz
1 x,y,z
_cell_length_a                   11.6156(8)
_cell_length_b                   24.4811(18)
_cell_length_c                   11.3044(8)
_cell_angle_alpha                90
_cell_angle_beta                 94.2480(10)
_cell_angle_gamma                90
_cell_volume                     3205.72
loop_
_atom_site_label
_atom_site_type_symbol
_atom_site_fract_x
_atom_site_fract_y
_atom_site_fract_z
Cd1 Cd 0.36588(4) 0.38176(2) 0.60491(4)
Cd2 Cd 0.13942(4) 0.34532(2) 0.36620(4)
Br1 Br 0.12015(7) 0.65308(4) 0.29739(9)
Br2 Br 0.45960(11) 0.07096(4) 0.62834(8)
Br3 Br 0.37659(8) 0.68548(4) 0.65389(11)
Br4 Br 0.15901(10) 0.00543(3) 0.45625(8)
O1 O 0.1955(4) 0.43443(18) 0.3758(4)
O2 O 0.3843(4) 0.42722(19) 0.4312(4)
O3 O 0.4056(4) 0.2935(2) 0.5711(4)
O4 O 0.3154(4) 0.3021(2) 0.3910(5)
O5 O 0.1079(4) 0.45451(19) 0.6405(5)
O6 O 0.2997(4) 0.46623(19) 0.6588(4)
O7 O 0.1053(4) 0.2123(2) 0.2622(4)
O8 O 0.0676(5) 0.26505(19) 0.4147(5)
O9 O 0.1670(4) 0.35784(18) 0.5801(4)
H1 H 0.1495 0.3316 0.6246
H2 H 0.1451 0.3895 0.5995
N1 N 0.4434(5) 0.5878(2) 0.3585(5)
N2 N 0.3840(5) 0.1435(2) 0.3065(5)
N3 N 0.0507(5) 0.6204(2) 0.6330(5)
N4 N 0.1296(5) 0.1428(2) 0.6573(5)
C1 C 0.4215(6) 0.5352(3) 0.3731(6)
H3 H 0.4834 0.5118 0.3908
C2 C 0.3544(6) 0.6215(3) 0.3354(7)
H4 H 0.3683 0.6585 0.3255
C3 C 0.2424(6) 0.6026(3) 0.3257(6)
C4 C 0.2200(6) 0.5475(3) 0.3408(6)
H5 H 0.1447 0.5343 0.3355
C5 C 0.3118(6) 0.5133(3) 0.3636(5)
C6 C 0.2961(6) 0.4534(3) 0.3908(6)
C7 C 0.3727(6) 0.1965(3) 0.3343(6)
H6 H 0.3538 0.2213 0.2736
C8 C 0.4107(7) 0.1078(3) 0.3935(6)
H7 H 0.4190 0.0711 0.3749
C9 C 0.4263(7) 0.1243(3) 0.5111(6)
C10 C 0.4155(7) 0.1787(3) 0.5400(6)
H8 H 0.4265 0.1903 0.6184
C11 C 0.3879(6) 0.2159(3) 0.4497(6)
C12 C 0.3680(6) 0.2759(3) 0.4722(7)
C13 C 0.2750(6) 0.5796(3) 0.6522(6)
H9 H 0.3503 0.5664 0.6581
C14 C 0.2525(6) 0.6347(3) 0.6477(7)
C15 C 0.1406(6) 0.6539(3) 0.6382(7)
H10 H 0.1278 0.6914 0.6355
C16 C 0.0718(6) 0.5664(3) 0.6377(6)
H11 H 0.0091 0.5427 0.6340
C17 C 0.1814(6) 0.5443(3) 0.6477(6)
C18 C 0.1965(6) 0.4827(3) 0.6500(6)
C19 C 0.1135(6) 0.1828(3) 0.5762(6)
H12 H 0.1058 0.2186 0.6023
C20 C 0.1387(7) 0.0912(3) 0.6180(6)
H13 H 0.1468 0.0629 0.6730
C21 C 0.1363(7) 0.0789(3) 0.4986(6)
C22 C 0.1211(6) 0.1194(3) 0.4153(6)
H14 H 0.1195 0.1114 0.3347
C23 C 0.1082(6) 0.1727(3) 0.4544(6)
C24 C 0.0925(6) 0.2205(3) 0.3678(6)
Cd3 Cd 0.63412(4) 0.61824(2) 0.39509(4)
Cd4 Cd 0.36588(4) 0.11824(2) 0.10491(4)
Cd6 Cd 0.13942(4) 0.15468(2) 0.86620(4)
N5 N 0.5566(5) 0.4122(2) 0.6415(5)
N6 N 0.3840(5) 0.3565(2) 0.8065(5)
N8 N 0.1296(5) 0.3572(2) 0.1573(5)
Cd5 Cd 0.86058(4) 0.65468(2) 0.63380(4)
N7 N 0.9493(5) 0.3796(2) 0.3670(5)
Br1_2 Br 0.87985(7) 0.15308(4) 0.20261(9)
N1_2 N 0.5566(5) 0.0878(2) 0.1415(5)
C1_2 C 0.5785(6) 0.0352(3) 0.1269(6)
H3_2 H 0.5166 0.0118 0.1092
C2_2 C 0.6456(6) 0.1215(3) 0.1646(7)
H4_2 H 0.6317 0.1585 0.1745
C3_2 C 0.7576(6) 0.1026(3) 0.1743(6)
C4_2 C 0.7800(6) 0.0475(3) 0.1592(6)
H5_2 H 0.8553 0.0343 0.1645
C5_2 C 0.6882(6) 0.0133(3) 0.1364(5)
Cd2_2 Cd 0.86058(4) 0.84532(2) 0.13380(4)
Br4_2 Br 0.84099(10) 0.50543(3) 0.04375(8)
O1_2 O 0.8045(4) 0.93443(18) 0.1242(4)
O2_2 O 0.6157(4) 0.92722(19) 0.0688(4)
O4_2 O 0.6846(4) 0.8021(2) 0.1090(5)
O7_2 O 0.8947(4) 0.7123(2) 0.2378(4)
O8_2 O 0.9324(5) 0.76505(19) 0.0853(5)
N2_2 N 0.6160(5) 0.6435(2) 0.1935(5)
C6_2 C 0.7039(6) 0.9534(3) 0.1092(6)
C7_2 C 0.6273(6) 0.6965(3) 0.1657(6)
H6_2 H 0.6462 0.7213 0.2264
C8_2 C 0.5893(7) 0.6078(3) 0.1065(6)
H7_2 H 0.5810 0.5711 0.1251
C11_2 C 0.6121(6) 0.7159(3) 0.0503(6)
C12_2 C 0.6320(6) 0.7759(3) 0.0278(7)
C21_2 C 0.8637(7) 0.5789(3) 0.0014(6)
C22_2 C 0.8789(6) 0.6194(3) 0.0847(6)
H14_2 H 0.8805 0.6114 0.1653
C23_2 C 0.8918(6) 0.6727(3) 0.0456(6)
C24_2 C 0.9075(6) 0.7205(3) 0.1322(6)
N8_2 N 0.8704(5) 0.8572(2) 0.3427(5)
Cd1_2 Cd 0.63412(4) 0.88176(2) 0.89509(4)
Br2_2 Br 0.54040(11) 0.57096(4) 0.87166(8)
O3_2 O 0.5944(4) 0.7935(2) 0.9289(4)
O5_2 O 0.8921(4) 0.95451(19) 0.8595(5)
O6_2 O 0.7003(4) 0.96623(19) 0.8412(4)
O9_2 O 0.8330(4) 0.85784(18) 0.9199(4)
H1_2 H 0.8505 0.8316 0.8754
H2_2 H 0.8549 0.8895 0.9005
N4_2 N 0.8704(5) 0.6428(2) 0.8427(5)
C9_2 C 0.5737(7) 0.6243(3) 0.9889(6)
C10_2 C 0.5845(7) 0.6787(3) 0.9600(6)
H8_2 H 0.5735 0.6903 0.8816
C18_2 C 0.8035(6) 0.9827(3) 0.8500(6)
C19_2 C 0.8865(6) 0.6828(3) 0.9238(6)
H12_2 H 0.8942 0.7186 0.8977
C20_2 C 0.8613(7) 0.5912(3) 0.8820(6)
H13_2 H 0.8532 0.5629 0.8270
N5_2 N 0.4434(5) 0.9122(2) 0.8585(5)
N6_2 N 0.6160(5) 0.8565(2) 0.6935(5)
Br1_3 Br 0.87985(7) 0.34692(4) 0.70261(9)
Br2_3 Br 0.54040(11) 0.92904(4) 0.37166(8)
Br3_2 Br 0.62341(8) 0.31452(4) 0.34611(11)
Br4_3 Br 0.84099(10) 0.99457(3) 0.54375(8)
O1_3 O 0.8045(4) 0.56557(18) 0.6242(4)
O2_3 O 0.6157(4) 0.57278(19) 0.5688(4)
O3_3 O 0.5944(4) 0.7065(2) 0.4289(4)
O4_3 O 0.6846(4) 0.6979(2) 0.6090(5)
O5_3 O 0.8921(4) 0.54549(19) 0.3595(5)
O6_3 O 0.7003(4) 0.53377(19) 0.3412(4)
O7_3 O 0.8947(4) 0.7877(2) 0.7378(4)
O8_3 O 0.9324(5) 0.73495(19) 0.5853(5)
O9_3 O 0.8330(4) 0.64216(18) 0.4199(4)
H1_3 H 0.8505 0.6684 0.3754
H2_3 H 0.8549 0.6105 0.4005
C1_3 C 0.5785(6) 0.4648(3) 0.6269(6)
H3_3 H 0.5166 0.4882 0.6092
C2_3 C 0.6456(6) 0.3785(3) 0.6646(7)
H4_3 H 0.6317 0.3415 0.6745
C3_3 C 0.7576(6) 0.3974(3) 0.6743(6)
C4_3 C 0.7800(6) 0.4525(3) 0.6592(6)
H5_3 H 0.8553 0.4657 0.6645
C5_3 C 0.6882(6) 0.4867(3) 0.6364(5)
C6_3 C 0.7039(6) 0.5466(3) 0.6092(6)
C7_3 C 0.6273(6) 0.8035(3) 0.6657(6)
H6_3 H 0.6462 0.7787 0.7264
C8_3 C 0.5893(7) 0.8922(3) 0.6065(6)
H7_3 H 0.5810 0.9289 0.6251
C9_3 C 0.5737(7) 0.8757(3) 0.4889(6)
C10_3 C 0.5845(7) 0.8213(3) 0.4600(6)
H8_3 H 0.5735 0.8097 0.3816
C11_3 C 0.6121(6) 0.7841(3) 0.5503(6)
C12_3 C 0.6320(6) 0.7241(3) 0.5278(7)
C13_2 C 0.7250(6) 0.4204(3) 0.3478(6)
H9_2 H 0.6497 0.4336 0.3419
C14_2 C 0.7475(6) 0.3653(3) 0.3523(7)
C15_2 C 0.8594(6) 0.3461(3) 0.3618(7)
H10_2 H 0.8722 0.3086 0.3645
C16_2 C 0.9282(6) 0.4336(3) 0.3623(6)
H11_2 H 0.9909 0.4573 0.3660
C17_2 C 0.8186(6) 0.4557(3) 0.3523(6)
C18_3 C 0.8035(6) 0.5173(3) 0.3500(6)
C19_3 C 0.8865(6) 0.8172(3) 0.4238(6)
H12_3 H 0.8942 0.7814 0.3977
C20_3 C 0.8613(7) 0.9088(3) 0.3820(6)
H13_3 H 0.8532 0.9371 0.3270
C21_3 C 0.8637(7) 0.9211(3) 0.5014(6)
C22_3 C 0.8789(6) 0.8806(3) 0.5847(6)
H14_3 H 0.8805 0.8886 0.6653
C23_3 C 0.8918(6) 0.8273(3) 0.5456(6)
C24_3 C 0.9075(6) 0.7795(3) 0.6322(6)
Br2_4 Br 0.45960(11) 0.42904(4) 0.12834(8)
O3_4 O 0.4056(4) 0.2065(2) 0.0711(4)
O5_4 O 0.1079(4) 0.04549(19) 0.1405(5)
O6_4 O 0.2997(4) 0.03377(19) 0.1588(4)
O9_4 O 0.1670(4) 0.14216(18) 0.0801(4)
H1_4 H 0.1495 0.1684 0.1246
H2_4 H 0.1451 0.1105 0.0995
C9_4 C 0.4263(7) 0.3757(3) 0.0111(6)
C10_4 C 0.4155(7) 0.3213(3) 0.0400(6)
H8_4 H 0.4265 0.3097 0.1184
C18_4 C 0.1965(6) 0.0173(3) 0.1500(6)
C19_4 C 0.1135(6) 0.3172(3) 0.0762(6)
H12_4 H 0.1058 0.2814 0.1023
C20_4 C 0.1387(7) 0.4088(3) 0.1180(6)
H13_4 H 0.1468 0.4371 0.1730
Br4_4 Br 0.15901(10) 0.49457(3) 0.95625(8)
O1_4 O 0.1955(4) 0.06557(18) 0.8758(4)
O2_4 O 0.3843(4) 0.07278(19) 0.9312(4)
O4_4 O 0.3154(4) 0.1979(2) 0.8910(5)
O7_4 O 0.1053(4) 0.2877(2) 0.7622(4)
O8_4 O 0.0676(5) 0.23495(19) 0.9147(5)
C6_4 C 0.2961(6) 0.0466(3) 0.8908(6)
C7_4 C 0.3727(6) 0.3035(3) 0.8343(6)
H6_4 H 0.3538 0.2787 0.7736
C8_4 C 0.4107(7) 0.3922(3) 0.8935(6)
H7_4 H 0.4190 0.4289 0.8749
C11_4 C 0.3879(6) 0.2841(3) 0.9497(6)
C12_4 C 0.3680(6) 0.2241(3) 0.9722(7)
C21_4 C 0.1363(7) 0.4211(3) 0.9986(6)
C22_4 C 0.1211(6) 0.3806(3) 0.9153(6)
H14_4 H 0.1195 0.3886 0.8347
C23_4 C 0.1082(6) 0.3273(3) 0.9544(6)
C24_4 C 0.0925(6) 0.2795(3) 0.8678(6)
Br1_4 Br 0.12015(7) 0.84692(4) 0.79739(9)
C1_4 C 0.4215(6) 0.9648(3) 0.8731(6)
H3_4 H 0.4834 0.9882 0.8908
C2_4 C 0.3544(6) 0.8785(3) 0.8354(7)
H4_4 H 0.3683 0.8415 0.8255
C3_4 C 0.2424(6) 0.8974(3) 0.8257(6)
C4_4 C 0.2200(6) 0.9525(3) 0.8408(6)
H5_4 H 0.1447 0.9657 0.8355
C5_4 C 0.3118(6) 0.9867(3) 0.8636(5)
N7_2 N 0.0507(5) 0.8796(2) 0.1330(5)
Br3_3 Br 0.37659(8) 0.81452(4) 0.15389(11)
C13_3 C 0.2750(6) 0.9204(3) 0.1522(6)
H9_3 H 0.3503 0.9336 0.1581
C14_3 C 0.2525(6) 0.8653(3) 0.1477(7)
C15_3 C 0.1406(6) 0.8461(3) 0.1382(7)
H10_3 H 0.1278 0.8086 0.1355
C16_3 C 0.0718(6) 0.9336(3) 0.1377(6)
H11_3 H 0.0091 0.9573 0.1340
C17_3 C 0.1814(6) 0.9557(3) 0.1477(6)
Br3_4 Br 0.62341(8) 0.18548(4) 0.84611(11)
N3_2 N 0.9493(5) 0.1204(2) 0.8670(5)
C13_4 C 0.7250(6) 0.0796(3) 0.8478(6)
H9_4 H 0.6497 0.0664 0.8419
C14_4 C 0.7475(6) 0.1347(3) 0.8523(7)
C15_4 C 0.8594(6) 0.1539(3) 0.8618(7)
H10_4 H 0.8722 0.1914 0.8645
C16_4 C 0.9282(6) 0.0664(3) 0.8623(6)
H11_4 H 0.9909 0.0427 0.8660
C17_4 C 0.8186(6) 0.0443(3) 0.8523(6)
loop_
_geom_bond_atom_site_label_1
_geom_bond_atom_site_label_2
_geom_bond_site_symmetry_1
_geom_bond_site_symmetry_2
Cd1 O2 1_555 1_555
Cd2 O1 1_555 1_555
Br1 C3 1_555 1_555
Br2 C9 1_555 1_555
Br3 C14 1_555 1_555
Br4 C21 1_555 1_555
O1 C6 1_555 1_555
O2 C6 1_555 1_555
O3 Cd1 1_555 1_555
O4 Cd2 1_555 1_555
O5 C18 1_555 1_555
O6 Cd1 1_555 1_555
O7 C24 1_555 1_555
O8 Cd2 1_555 1_555
O9 Cd1 1_555 1_555
H1 O9 1_555 1_555
H2 O9 1_555 1_555
N1 C1 1_555 1_555
N2 C7 1_555 1_555
N3 C15 1_555 1_555
N4 C19 1_555 1_555
C1 H3 1_555 1_555
C2 N1 1_555 1_555
H4 C2 1_555 1_555
C3 C2 1_555 1_555
C4 C3 1_555 1_555
H5 C4 1_555 1_555
C5 C1 1_555 1_555
C6 C5 1_555 1_555
C7 H6 1_555 1_555
C8 N2 1_555 1_555
H7 C8 1_555 1_555
C9 C8 1_555 1_555
C10 C9 1_555 1_555
H8 C10 1_555 1_555
C11 C7 1_555 1_555
C12 O3 1_555 1_555
C13 H9 1_555 1_555
C14 C13 1_555 1_555
C15 C14 1_555 1_555
H10 C15 1_555 1_555
C16 N3 1_555 1_555
H11 C16 1_555 1_555
C17 C13 1_555 1_555
C18 O6 1_555 1_555
C19 H12 1_555 1_555
C20 N4 1_555 1_555
H13 C20 1_555 1_555
C21 C20 1_555 1_555
C22 C21 1_555 1_555
H14 C22 1_555 1_555
C23 C19 1_555 1_555
C24 O8 1_555 1_555
Cd3 N1 1_555 1_555
Cd4 N2 1_555 1_555
Cd6 N4 1_555 1_555
N5 Cd1 1_555 1_555
N6 Cd1 1_555 1_555
N8 Cd2 1_555 1_555
Cd2 O9 1_555 1_555
O4 C12 1_555 1_555
C4 C5 1_555 1_555
C10 C11 1_555 1_555
C11 C12 1_555 1_555
C16 C17 1_555 1_555
C17 C18 1_555 1_555
C22 C23 1_555 1_555
C23 C24 1_555 1_555
Br1_2 C3_2 1_555 1_555
N1_2 C1_2 1_555 1_555
C1_2 H3_2 1_555 1_555
C2_2 N1_2 1_555 1_555
H4_2 C2_2 1_555 1_555
C3_2 C2_2 1_555 1_555
C4_2 C3_2 1_555 1_555
H5_2 C4_2 1_555 1_555
C5_2 C1_2 1_555 1_555
Cd4 N1_2 1_555 1_555
C4_2 C5_2 1_555 1_555
Cd2_2 O1_2 1_555 1_555
Br4_2 C21_2 1_555 1_555
O1_2 C6_2 1_555 1_555
O2_2 C6_2 1_555 1_555
O4_2 Cd2_2 1_555 1_555
O7_2 C24_2 1_555 1_555
O8_2 Cd2_2 1_555 1_555
N2_2 C7_2 1_555 1_555
C7_2 H6_2 1_555 1_555
C8_2 N2_2 1_555 1_555
H7_2 C8_2 1_555 1_555
C11_2 C7_2 1_555 1_555
C22_2 C21_2 1_555 1_555
H14_2 C22_2 1_555 1_555
C24_2 O8_2 1_555 1_555
Cd3 N2_2 1_555 1_555
N8_2 Cd2_2 1_555 1_555
O4_2 C12_2 1_555 1_555
C11_2 C12_2 1_555 1_555
C22_2 C23_2 1_555 1_555
C23_2 C24_2 1_555 1_555
Br2_2 C9_2 1_555 1_555
O3_2 Cd1_2 1_555 1_555
O5_2 C18_2 1_555 1_555
O6_2 Cd1_2 1_555 1_555
O9_2 Cd1_2 1_555 1_555
H1_2 O9_2 1_555 1_555
H2_2 O9_2 1_555 1_555
N4_2 C19_2 1_555 1_555
C10_2 C9_2 1_555 1_555
H8_2 C10_2 1_555 1_555
C18_2 O6_2 1_555 1_555
C19_2 H12_2 1_555 1_555
C20_2 N4_2 1_555 1_555
H13_2 C20_2 1_555 1_555
Cd5 N4_2 1_555 1_555
N5_2 Cd1_2 1_555 1_555
N6_2 Cd1_2 1_555 1_555
Cd3 O2_3 1_555 1_555
Cd5 O1_3 1_555 1_555
Br1_3 C3_3 1_555 1_555
Br2_3 C9_3 1_555 1_555
Br3_2 C14_2 1_555 1_555
Br4_3 C21_3 1_555 1_555
O1_3 C6_3 1_555 1_555
O2_3 C6_3 1_555 1_555
O3_3 Cd3 1_555 1_555
O4_3 Cd5 1_555 1_555
O5_3 C18_3 1_555 1_555
O6_3 Cd3 1_555 1_555
O7_3 C24_3 1_555 1_555
O8_3 Cd5 1_555 1_555
O9_3 Cd3 1_555 1_555
H1_3 O9_3 1_555 1_555
H2_3 O9_3 1_555 1_555
N5 C1_3 1_555 1_555
N6_2 C7_3 1_555 1_555
N7 C15_2 1_555 1_555
N8_2 C19_3 1_555 1_555
C1_3 H3_3 1_555 1_555
C2_3 N5 1_555 1_555
H4_3 C2_3 1_555 1_555
C3_3 C2_3 1_555 1_555
C4_3 C3_3 1_555 1_555
H5_3 C4_3 1_555 1_555
C5_3 C1_3 1_555 1_555
C6_3 C5_3 1_555 1_555
C7_3 H6_3 1_555 1_555
C8_3 N6_2 1_555 1_555
H7_3 C8_3 1_555 1_555
C9_3 C8_3 1_555 1_555
C10_3 C9_3 1_555 1_555
H8_3 C10_3 1_555 1_555
C11_3 C7_3 1_555 1_555
C12_3 O3_3 1_555 1_555
C13_2 H9_2 1_555 1_555
C14_2 C13_2 1_555 1_555
C15_2 C14_2 1_555 1_555
H10_2 C15_2 1_555 1_555
C16_2 N7 1_555 1_555
H11_2 C16_2 1_555 1_555
C17_2 C13_2 1_555 1_555
C18_3 O6_3 1_555 1_555
C19_3 H12_3 1_555 1_555
C20_3 N8_2 1_555 1_555
H13_3 C20_3 1_555 1_555
C21_3 C20_3 1_555 1_555
C22_3 C21_3 1_555 1_555
H14_3 C22_3 1_555 1_555
C23_3 C19_3 1_555 1_555
C24_3 O8_3 1_555 1_555
Cd5 O9_3 1_555 1_555
O4_3 C12_3 1_555 1_555
C4_3 C5_3 1_555 1_555
C10_3 C11_3 1_555 1_555
C11_3 C12_3 1_555 1_555
C16_2 C17_2 1_555 1_555
C17_2 C18_3 1_555 1_555
C22_3 C23_3 1_555 1_555
C23_3 C24_3 1_555 1_555
Br2_4 C9_4 1_555 1_555
O3_4 Cd4 1_555 1_555
O5_4 C18_4 1_555 1_555
O6_4 Cd4 1_555 1_555
O9_4 Cd4 1_555 1_555
H1_4 O9_4 1_555 1_555
H2_4 O9_4 1_555 1_555
N8 C19_4 1_555 1_555
C10_4 C9_4 1_555 1_555
H8_4 C10_4 1_555 1_555
C18_4 O6_4 1_555 1_555
C19_4 H12_4 1_555 1_555
C20_4 N8 1_555 1_555
H13_4 C20_4 1_555 1_555
Cd6 O1_4 1_555 1_555
Br4_4 C21_4 1_555 1_555
O1_4 C6_4 1_555 1_555
O2_4 C6_4 1_555 1_555
O4_4 Cd6 1_555 1_555
O7_4 C24_4 1_555 1_555
O8_4 Cd6 1_555 1_555
N6 C7_4 1_555 1_555
C7_4 H6_4 1_555 1_555
C8_4 N6 1_555 1_555
H7_4 C8_4 1_555 1_555
C11_4 C7_4 1_555 1_555
C22_4 C21_4 1_555 1_555
H14_4 C22_4 1_555 1_555
C24_4 O8_4 1_555 1_555
O4_4 C12_4 1_555 1_555
C11_4 C12_4 1_555 1_555
C22_4 C23_4 1_555 1_555
C23_4 C24_4 1_555 1_555
Br1_4 C3_4 1_555 1_555
N5_2 C1_4 1_555 1_555
C1_4 H3_4 1_555 1_555
C2_4 N5_2 1_555 1_555
H4_4 C2_4 1_555 1_555
C3_4 C2_4 1_555 1_555
C4_4 C3_4 1_555 1_555
H5_4 C4_4 1_555 1_555
C5_4 C1_4 1_555 1_555
C4_4 C5_4 1_555 1_555
Br3_3 C14_3 1_555 1_555
N7_2 C15_3 1_555 1_555
C13_3 H9_3 1_555 1_555
C14_3 C13_3 1_555 1_555
C15_3 C14_3 1_555 1_555
H10_3 C15_3 1_555 1_555
C16_3 N7_2 1_555 1_555
H11_3 C16_3 1_555 1_555
C17_3 C13_3 1_555 1_555
C16_3 C17_3 1_555 1_555
Br3_4 C14_4 1_555 1_555
N3_2 C15_4 1_555 1_555
C13_4 H9_4 1_555 1_555
C14_4 C13_4 1_555 1_555
C15_4 C14_4 1_555 1_555
H10_4 C15_4 1_555 1_555
C16_4 N3_2 1_555 1_555
H11_4 C16_4 1_555 1_555
C17_4 C13_4 1_555 1_555
C16_4 C17_4 1_555 1_555

#END
