
###############################################################################
#
# This file contains modified crystal structure data generated from the
# MOF subset of the Cambridge Structural Database (CSD) v543 
# hosted by the Cambridge Crystallographic Data Centre (CCDC).
#
# This work is licensed under the Creative Commons
# Attribution-NonCommercial-ShareAlike 4.0 International License.
# To view a copy of this license, visit
# http://creativecommons.org/licenses/by-nc-sa/4.0/
# or send a letter to
# Creative Commons, PO Box 1866, Mountain View, CA 94042, USA.
#
# CIF created using the CSD Python API on 29 September 2022
# The structure has been converted into the P1 space group
# The structure has a 3D framework
# The original CSD entry HAZTUB is in the triclinic crystal system
# The framework has been calculated to contain at least 10.0% void space
# The void calculation uses a probe of radius 1.32A, grid spacing 0.4
#
###############################################################################

data_HAZTUB
_chemical_formula_moiety         '(C62 H46 Cu6 N6 O30)n'
_symmetry_cell_setting           triclinic
_symmetry_space_group_name_H-M   'P 1'
_symmetry_Int_Tables_number      1
_space_group_name_Hall           'P 1'
loop_
_symmetry_equiv_pos_site_id
_symmetry_equiv_pos_as_xyz
1 x,y,z
_cell_length_a                   8.4291(15)
_cell_length_b                   16.414(3)
_cell_length_c                   16.973(3)
_cell_angle_alpha                72.135(7)
_cell_angle_beta                 80.514(7)
_cell_angle_gamma                89.314(9)
_cell_volume                     2202.65
loop_
_atom_site_label
_atom_site_type_symbol
_atom_site_fract_x
_atom_site_fract_y
_atom_site_fract_z
O15 O 0.094(3) 0.549(2) 0.343(2)
C30 C 0.0047(16) 0.4313(7) 0.2778(8)
H20 H 0.118341 0.449635 0.268459
O17 O 0.0183(4) 0.81620(19) 0.11395(16)
O18 O 0.1173(3) 0.68984(18) 0.17444(16)
O19 O 0.0704(4) 0.86571(19) 0.24962(19)
O20 O 0.1585(4) 0.73762(18) 0.31502(19)
O4 O 0.5697(3) 0.11903(16) 0.29475(16)
O12 O 0.3304(5) 0.1296(2) 0.2579(3)
C22 C 0.4395(5) 0.0873(2) 0.2901(2)
H15 H 0.812560 0.002003 0.184642
Cu6 Cu 0.57294(5) 0.24514(3) 0.25120(2)
Cu1 Cu 0.88327(5) 0.82332(3) 0.21706(2)
O1 O 0.8508(4) 0.67928(18) 0.39187(16)
Cu2 Cu 0.99442(5) 0.67129(3) 0.28954(3)
O2 O 0.8114(3) 0.62729(17) 0.25510(17)
O3 O 0.7172(4) 0.75598(18) 0.19523(19)
O7 O 0.7674(4) 0.80967(18) 0.33050(16)
O8 O 0.5792(3) 0.37069(16) 0.21375(16)
O11 O 0.3453(4) 0.38192(18) 0.16726(19)
N2 N 0.5474(4) 0.75414(19) 0.63497(18)
C1 C 0.5590(4) 0.8020(2) 0.4843(2)
C2 C 0.5974(4) 0.6341(2) 0.1790(2)
C3 C 0.5039(4) 0.6858(2) 0.1243(2)
H1 H 0.507203 0.746088 0.113947
C4 C 0.4789(4) 0.8535(2) 0.4147(2)
C5 C 0.4064(4) 0.6493(2) 0.0852(2)
C6 C 0.1947(4) 0.7551(2) 0.0276(2)
C7 C 0.4941(4) 0.8016(2) 0.5654(2)
H2 H 0.406550 0.837303 0.571959
C8 C 0.3254(4) 0.7055(2) 0.0162(2)
C9 C 0.7745(4) 0.7451(2) 0.3919(2)
C10 C 0.5870(4) 0.5455(2) 0.1971(2)
H3 H 0.650638 0.510252 0.234363
C11 C 0.1625(5) 0.8181(2) 0.2935(2)
C12 C 0.1034(4) 0.7534(2) 0.1134(2)
C13 C 0.3736(4) 0.8134(2) 0.3828(2)
H4 H 0.362071 0.752605 0.401339
C14 C 0.3048(5) 0.9500(2) 0.2955(2)
H5 H 0.242515 0.983139 0.256140
C16 C 0.7166(5) 0.6755(2) 0.2135(2)
C18 C 0.4154(5) 0.9907(2) 0.3243(2)
C19 C 0.3959(4) 0.5613(2) 0.1037(2)
H8 H 0.327754 0.536259 0.077316
C20 C 0.2839(5) 0.8609(2) 0.3236(2)
C21 C 0.5000(4) 0.9428(2) 0.3845(2)
H9 H 0.573366 0.970688 0.405653
C23 C 0.6883(4) 0.7482(2) 0.4767(2)
C24 C 0.6705(5) 0.7052(3) 0.6259(2)
H10 H 0.710704 0.672186 0.674535
C26 C 0.7432(5) 0.7003(3) 0.5479(2)
H12 H 0.830569 0.663864 0.543924
C27 C 0.4846(4) 0.5089(2) 0.1608(2)
C28 C 0.4663(5) 0.4126(2) 0.1818(2)
O13 O 0.8222(5) 0.2491(4) 0.2918(3)
H13 H 0.905091 0.258500 0.247128
H14 H 0.845596 0.196951 0.326478
O14 O 0.7903(5) 0.9479(2) 0.1703(3)
H16 H 0.713497 0.968198 0.128518
N3 N 0.9245(12) 0.4264(6) 0.3695(6)
C29 C 0.9778(13) 0.4920(7) 0.4021(8)
H17 H 0.938652 0.495768 0.456603
H18 H 0.949331 0.472719 0.237489
H19 H 0.996505 0.374780 0.270318
C31 C 0.816(2) 0.3610(10) 0.4346(12)
H21 H 0.876476 0.309962 0.456722
H22 H 0.728004 0.345583 0.410036
H23 H 0.771952 0.383829 0.480237
Cu8 Cu 0.42706(5) 0.75486(3) 0.74880(2)
N4 N 0.6651(4) 0.24251(19) 0.13334(18)
N5 N 0.4526(4) 0.24586(19) 0.36503(18)
N1 N 0.3349(4) 0.75749(19) 0.86666(18)
C15 C 0.3896(4) 0.7087(2) 0.9351(2)
H6 H 0.478272 0.674044 0.927194
C17 C 0.1410(5) 0.8082(3) 0.9569(2)
H7 H 0.054804 0.844835 0.962917
C25 C 0.2126(5) 0.8077(3) 0.8780(2)
H11 H 0.174118 0.844070 0.830340
Cu4 Cu 0.11673(5) 0.17668(3) 0.78294(2)
Cu5 Cu 0.00558(5) 0.32871(3) 0.71046(3)
C15_2 C 0.6104(4) 0.2913(2) 0.0649(2)
H6_2 H 0.521728 0.325956 0.072806
C17_2 C 0.8590(5) 0.1918(3) 0.0431(2)
H7_2 H 0.945196 0.155165 0.037083
C25_2 C 0.7874(5) 0.1923(3) 0.1220(2)
H11_2 H 0.825882 0.155930 0.169660
O1_2 O 0.1492(4) 0.32072(18) 0.60813(16)
O2_2 O 0.1886(3) 0.37271(17) 0.74490(17)
O3_2 O 0.2828(4) 0.24402(18) 0.80477(19)
O5 O 0.9817(4) 0.18380(19) 0.88605(16)
O6 O 0.8827(3) 0.31016(18) 0.82556(16)
O7_2 O 0.2326(4) 0.19033(18) 0.66950(16)
O8_2 O 0.4208(3) 0.62931(16) 0.78625(16)
O9 O 0.9296(4) 0.13429(19) 0.75038(19)
O10 O 0.8415(4) 0.26238(18) 0.68498(19)
O11_2 O 0.6547(4) 0.61808(18) 0.83274(19)
C1_2 C 0.4410(4) 0.1980(2) 0.5157(2)
C2_2 C 0.4026(4) 0.3659(2) 0.8210(2)
C3_2 C 0.4961(4) 0.3142(2) 0.8757(2)
H1_2 H 0.492797 0.253912 0.886053
C4_2 C 0.5211(4) 0.1465(2) 0.5853(2)
C5_2 C 0.5936(4) 0.3507(2) 0.9148(2)
C6_2 C 0.8053(4) 0.2449(2) 0.9724(2)
C7_2 C 0.5059(4) 0.1984(2) 0.4346(2)
H2_2 H 0.593450 0.162697 0.428041
C8_2 C 0.6746(4) 0.2945(2) 0.9838(2)
C9_2 C 0.2255(4) 0.2549(2) 0.6081(2)
C10_2 C 0.4130(4) 0.4545(2) 0.8029(2)
H3_2 H 0.349362 0.489748 0.765637
C11_2 C 0.8375(5) 0.1819(2) 0.7065(2)
C12_2 C 0.8966(4) 0.2466(2) 0.8866(2)
C13_2 C 0.6264(4) 0.1866(2) 0.6172(2)
H4_2 H 0.637929 0.247395 0.598661
C14_2 C 0.6952(5) 0.0500(2) 0.7045(2)
H5_2 H 0.757485 0.016861 0.743860
C16_2 C 0.2834(5) 0.3245(2) 0.7865(2)
C18_2 C 0.5846(5) 0.0093(2) 0.6757(2)
C19_2 C 0.6041(4) 0.4387(2) 0.8963(2)
H8_2 H 0.672246 0.463741 0.922684
C20_2 C 0.7161(5) 0.1391(2) 0.6764(2)
C21_2 C 0.5000(4) 0.0572(2) 0.6155(2)
H9_2 H 0.426634 0.029312 0.594347
C23_2 C 0.3117(4) 0.2518(2) 0.5233(2)
C24_2 C 0.3295(5) 0.2948(3) 0.3741(2)
H10_2 H 0.289296 0.327814 0.325465
C26_2 C 0.2568(5) 0.2997(3) 0.4521(2)
H12_2 H 0.169431 0.336136 0.456076
C27_2 C 0.5154(4) 0.4911(2) 0.8392(2)
C28_2 C 0.5337(5) 0.5874(2) 0.8182(2)
O13_2 O 0.1778(5) 0.7509(4) 0.7082(3)
H13_2 H 0.094909 0.741500 0.752872
H14_2 H 0.154404 0.803049 0.673522
O14_2 O 0.2097(5) 0.0521(2) 0.8297(3)
H16_2 H 0.286503 0.031802 0.871482
N3_2 N 0.0755(12) 0.5736(6) 0.6305(6)
C29_2 C 0.0222(13) 0.5080(7) 0.5979(8)
H17_2 H 0.061348 0.504232 0.543397
H18_2 H 0.050669 0.527281 0.762511
H19_2 H 0.003495 0.625220 0.729682
C31_2 C 0.184(2) 0.6390(10) 0.5654(12)
H21_2 H 0.123524 0.690038 0.543278
H22_2 H 0.271996 0.654417 0.589964
H23_2 H 0.228048 0.616171 0.519763
O16 O 0.4303(3) 0.88097(16) 0.70525(16)
O21 O 0.6696(5) 0.8704(2) 0.7421(3)
C22_2 C 0.5605(5) 0.9127(2) 0.7099(2)
H15_2 H 0.187440 0.997997 0.815358
O15_2 O 0.906(3) 0.451(2) 0.657(2)
C30_2 C 0.9953(16) 0.5687(7) 0.7222(8)
H20_2 H 0.881659 0.550365 0.731541
loop_
_geom_bond_atom_site_label_1
_geom_bond_atom_site_label_2
_geom_bond_site_symmetry_1
_geom_bond_site_symmetry_2
H20 C30 1_555 1_555
O4 C22 1_555 1_555
O12 C22 1_555 1_555
Cu6 O4 1_555 1_555
O12 Cu6 1_555 1_555
Cu1 O3 1_555 1_555
O1 Cu2 1_555 1_555
Cu2 O2 1_555 1_555
Cu6 O8 1_555 1_555
O2 C16 1_555 1_555
O3 C16 1_555 1_555
O17 C12 1_555 1_555
O18 C12 1_555 1_555
O7 Cu1 1_555 1_555
O8 C28 1_555 1_555
O19 C11 1_555 1_555
O20 C11 1_555 1_555
O11 C28 1_555 1_555
N2 C7 1_555 1_555
C1 C4 1_555 1_555
C2 C3 1_555 1_555
C3 H1 1_555 1_555
C4 C13 1_555 1_555
C5 C3 1_555 1_555
C6 C8 1_555 1_555
C7 C1 1_555 1_555
H2 C7 1_555 1_555
C8 C5 1_555 1_555
C9 O1 1_555 1_555
C10 C2 1_555 1_555
H3 C10 1_555 1_555
C11 C20 1_555 1_555
C12 C6 1_555 1_555
C13 H4 1_555 1_555
C14 H5 1_555 1_555
C16 C2 1_555 1_555
C18 C14 1_555 1_555
C19 C5 1_555 1_555
H8 C19 1_555 1_555
C20 C13 1_555 1_555
C21 C4 1_555 1_555
H9 C21 1_555 1_555
C23 C1 1_555 1_555
C24 N2 1_555 1_555
H10 C24 1_555 1_555
C26 C23 1_555 1_555
H12 C26 1_555 1_555
C27 C10 1_555 1_555
C28 C27 1_555 1_555
O13 Cu6 1_555 1_555
H13 O13 1_555 1_555
H14 O13 1_555 1_555
O14 Cu1 1_555 1_555
H16 O14 1_555 1_555
N3 C29 1_555 1_555
H17 C29 1_555 1_555
C31 N3 1_555 1_555
H21 C31 1_555 1_555
H22 C31 1_555 1_555
H23 C31 1_555 1_555
Cu8 N2 1_555 1_555
N4 Cu6 1_555 1_555
N5 Cu6 1_555 1_555
O7 C9 1_555 1_555
C9 C23 1_555 1_555
C14 C20 1_555 1_555
C18 C21 1_555 1_555
C19 C27 1_555 1_555
C24 C26 1_555 1_555
N1 C15 1_555 1_555
H6 C15 1_555 1_555
H7 C17 1_555 1_555
C25 N1 1_555 1_555
H11 C25 1_555 1_555
Cu8 N1 1_555 1_555
C17 C25 1_555 1_555
N4 C15_2 1_555 1_555
H6_2 C15_2 1_555 1_555
H7_2 C17_2 1_555 1_555
C25_2 N4 1_555 1_555
H11_2 C25_2 1_555 1_555
C17_2 C25_2 1_555 1_555
Cu4 O3_2 1_555 1_555
O1_2 Cu5 1_555 1_555
Cu5 O2_2 1_555 1_555
Cu8 O8_2 1_555 1_555
O2_2 C16_2 1_555 1_555
O3_2 C16_2 1_555 1_555
O5 C12_2 1_555 1_555
O6 C12_2 1_555 1_555
O7_2 Cu4 1_555 1_555
O8_2 C28_2 1_555 1_555
O9 C11_2 1_555 1_555
O10 C11_2 1_555 1_555
O11_2 C28_2 1_555 1_555
N5 C7_2 1_555 1_555
C1_2 C4_2 1_555 1_555
C2_2 C3_2 1_555 1_555
C3_2 H1_2 1_555 1_555
C4_2 C13_2 1_555 1_555
C5_2 C3_2 1_555 1_555
C6_2 C8_2 1_555 1_555
C7_2 C1_2 1_555 1_555
H2_2 C7_2 1_555 1_555
C8_2 C5_2 1_555 1_555
C9_2 O1_2 1_555 1_555
C10_2 C2_2 1_555 1_555
H3_2 C10_2 1_555 1_555
C11_2 C20_2 1_555 1_555
C12_2 C6_2 1_555 1_555
C13_2 H4_2 1_555 1_555
C14_2 H5_2 1_555 1_555
C16_2 C2_2 1_555 1_555
C18_2 C14_2 1_555 1_555
C19_2 C5_2 1_555 1_555
H8_2 C19_2 1_555 1_555
C20_2 C13_2 1_555 1_555
C21_2 C4_2 1_555 1_555
H9_2 C21_2 1_555 1_555
C23_2 C1_2 1_555 1_555
C24_2 N5 1_555 1_555
H10_2 C24_2 1_555 1_555
C26_2 C23_2 1_555 1_555
H12_2 C26_2 1_555 1_555
C27_2 C10_2 1_555 1_555
C28_2 C27_2 1_555 1_555
O13_2 Cu8 1_555 1_555
H13_2 O13_2 1_555 1_555
H14_2 O13_2 1_555 1_555
O14_2 Cu4 1_555 1_555
H16_2 O14_2 1_555 1_555
N3_2 C29_2 1_555 1_555
H17_2 C29_2 1_555 1_555
C31_2 N3_2 1_555 1_555
H21_2 C31_2 1_555 1_555
H22_2 C31_2 1_555 1_555
H23_2 C31_2 1_555 1_555
O16 Cu8 1_555 1_555
O21 Cu8 1_555 1_555
O7_2 C9_2 1_555 1_555
C9_2 C23_2 1_555 1_555
C14_2 C20_2 1_555 1_555
C18_2 C21_2 1_555 1_555
C19_2 C27_2 1_555 1_555
C24_2 C26_2 1_555 1_555
O16 C22_2 1_555 1_555
O21 C22_2 1_555 1_555
H20_2 C30_2 1_555 1_555

#END
