
###############################################################################
#
# This file contains modified crystal structure data generated from the
# MOF subset of the Cambridge Structural Database (CSD) v543 
# hosted by the Cambridge Crystallographic Data Centre (CCDC).
#
# This work is licensed under the Creative Commons
# Attribution-NonCommercial-ShareAlike 4.0 International License.
# To view a copy of this license, visit
# http://creativecommons.org/licenses/by-nc-sa/4.0/
# or send a letter to
# Creative Commons, PO Box 1866, Mountain View, CA 94042, USA.
#
# CIF created using the CSD Python API on 29 September 2022
# The structure has been converted into the P1 space group
# The structure has a 3D framework
# The original CSD entry HEBCEA is in the monoclinic crystal system
# The framework has been calculated to contain at least 10.0% void space
# The void calculation uses a probe of radius 1.32A, grid spacing 0.4
# H atom positions have been added when not included in the experimental data
#
###############################################################################

data_HEBCEA
_chemical_formula_moiety         '(C120 H112 Cd4 N16 O16)n'
_symmetry_cell_setting           triclinic
_symmetry_space_group_name_H-M   'P 1'
_symmetry_Int_Tables_number      1
_space_group_name_Hall           'P 1'
loop_
_symmetry_equiv_pos_site_id
_symmetry_equiv_pos_as_xyz
1 x,y,z
_cell_length_a                   14.841(2)
_cell_length_b                   12.6145(14)
_cell_length_c                   18.084(2)
_cell_angle_alpha                90
_cell_angle_beta                 105.677(13)
_cell_angle_gamma                90
_cell_volume                     3259.6
loop_
_atom_site_label
_atom_site_type_symbol
_atom_site_fract_x
_atom_site_fract_y
_atom_site_fract_z
Cd1 Cd 0.500000 0.70215(6) 0.750000
O1 O 0.4801(5) 0.6974(6) 0.6201(4)
O2 O 0.3643(7) 0.8112(9) 0.5833(5)
N1 N 0.3820(5) 0.5755(6) 0.7383(4)
C1 C 0.1672(8) 0.3398(9) 0.7105(7)
H1 H 0.133061 0.337163 0.656592
H2 H 0.198624 0.272109 0.723232
N2 N 0.1004(5) 0.3502(6) 0.7545(5)
H3 H 0.135298 0.361303 0.808245
C2 C 0.2404(6) 0.4236(7) 0.7201(5)
C3 C 0.4264(8) 0.7541(10) 0.5707(6)
C4 C 0.2853(8) 0.4646(9) 0.7905(6)
H4 H 0.268566 0.441471 0.833762
C5 C 0.3368(8) 0.5372(9) 0.6702(6)
H5 H 0.353093 0.562979 0.627380
C6 C 0.2670(8) 0.4613(8) 0.6585(6)
H6 H 0.238514 0.436451 0.609278
C7 C 0.4396(9) 0.7490(9) 0.4916(6)
C8 C 0.3556(7) 0.5403(9) 0.7984(6)
H7 H 0.384701 0.566846 0.846957
C9 C 0.3726(10) 0.7930(11) 0.4304(7)
H8 H 0.319069 0.823027 0.438941
C10 C 0.4586(13) 0.7466(12) 0.3421(8)
C11 C 0.5134(12) 0.7027(13) 0.4760(8)
H9 H 0.558787 0.670942 0.515562
C12 C 0.3838(13) 0.7930(11) 0.3576(7)
H10 H 0.338943 0.825564 0.318123
C13 C 0.5235(14) 0.7009(14) 0.4015(9)
H11 H 0.575523 0.668044 0.392237
C14 C 0.4618(15) 0.7464(14) 0.2583(10)
C15 C 0.0366(7) 0.4411(9) 0.7307(9)
H12 H 0.071954 0.506504 0.742168
H13 H 0.008807 0.438083 0.675610
C17 C 0.5604(9) 0.7490(9) 0.0084(6)
C18 C 0.6274(10) 0.7930(11) 0.0696(7)
H14 H 0.680931 0.823027 0.061059
C19 C 0.5414(13) 0.7466(12) 0.1579(8)
C20 C 0.4866(12) 0.7027(13) 0.0240(8)
C21 C 0.6162(13) 0.7930(11) 0.1424(7)
H16 H 0.661057 0.825564 0.181877
C22 C 0.4765(14) 0.7009(14) 0.0985(9)
H17 H 0.424477 0.668044 0.107763
C23 C 0.5382(15) 0.7464(14) 0.2417(10)
Cd4 Cd 0.000000 0.20215(6) 0.750000
O5 O 0.5199(5) 0.6974(6) 0.8799(4)
N5 N 0.6180(5) 0.5755(6) 0.7617(4)
N6 N 0.6004(5) 0.8502(6) 0.7545(5)
N7 N 0.3996(5) 0.8502(6) 0.7455(5)
H27 H 0.396698 0.746256 0.212554
H28 H 0.603302 0.746256 0.287446
O4 O 0.6357(7) 0.8112(9) 0.9167(5)
C16 C 0.5736(8) 0.7541(10) 0.9293(6)
H15 H 0.441213 0.670942 0.984438
C24 C 0.8328(8) 0.3398(9) 0.7895(7)
H18 H 0.866939 0.337163 0.843408
H19 H 0.801376 0.272109 0.776768
N4 N 0.8996(5) 0.3502(6) 0.7455(5)
H20 H 0.864702 0.361303 0.691755
C25 C 0.7596(6) 0.4236(7) 0.7799(5)
C26 C 0.7147(8) 0.4646(9) 0.7095(6)
H21 H 0.731434 0.441471 0.666238
C27 C 0.6632(8) 0.5372(9) 0.8298(6)
H22 H 0.646907 0.562979 0.872620
C28 C 0.7330(8) 0.4613(8) 0.8415(6)
H23 H 0.761486 0.436451 0.890722
C29 C 0.6444(7) 0.5403(9) 0.7016(6)
H24 H 0.615299 0.566846 0.653043
C30 C 0.9634(7) 0.4411(9) 0.7693(9)
H25 H 0.928046 0.506504 0.757832
H26 H 0.991193 0.438083 0.824390
Cd4_2 Cd 1.000000 0.20215(6) 0.750000
C11_2 C 0.0134(12) 0.2027(13) 0.4760(8)
H9_2 H 0.058787 0.170942 0.515562
C13_2 C 0.0235(14) 0.2009(14) 0.4015(9)
H11_2 H 0.075523 0.168044 0.392237
C17_2 C 0.0604(9) 0.2490(9) 0.0084(6)
C18_2 C 0.1274(10) 0.2930(11) 0.0696(7)
H14_2 H 0.180931 0.323027 0.061059
C19_2 C 0.0414(13) 0.2466(12) 0.1579(8)
C21_2 C 0.1162(13) 0.2930(11) 0.1424(7)
H16_2 H 0.161057 0.325564 0.181877
C23_2 C 0.0382(15) 0.2464(14) 0.2417(10)
O5_2 O 0.0199(5) 0.1974(6) 0.8799(4)
N5_2 N 0.1180(5) 0.0755(6) 0.7617(4)
H28_2 H 0.103302 0.246256 0.287446
O4_2 O 0.1357(7) 0.3112(9) 0.9167(5)
C16_2 C 0.0736(8) 0.2541(10) 0.9293(6)
O1_2 O 0.9801(5) 0.1974(6) 0.6201(4)
O2_2 O 0.8643(7) 0.3112(9) 0.5833(5)
N1_2 N 0.8820(5) 0.0755(6) 0.7383(4)
C3_2 C 0.9264(8) 0.2541(10) 0.5707(6)
C5_2 C 0.8368(8) 0.0372(9) 0.6702(6)
H5_2 H 0.853093 0.062979 0.627380
C7_2 C 0.9396(9) 0.2490(9) 0.4916(6)
C8_2 C 0.8556(7) 0.0403(9) 0.7984(6)
H7_2 H 0.884701 0.066846 0.846957
C9_2 C 0.8726(10) 0.2930(11) 0.4304(7)
H8_2 H 0.819069 0.323027 0.438941
C10_2 C 0.9586(13) 0.2466(12) 0.3421(8)
C12_2 C 0.8838(13) 0.2930(11) 0.3576(7)
H10_2 H 0.838943 0.325564 0.318123
C14_2 C 0.9618(15) 0.2464(14) 0.2583(10)
H12_2 H 0.571954 0.006504 0.742168
C20_2 C 0.9866(12) 0.2027(13) 0.0240(8)
C22_2 C 0.9765(14) 0.2009(14) 0.0985(9)
H17_2 H 0.924477 0.168044 0.107763
C27_2 C 0.1632(8) 0.0372(9) 0.8298(6)
H22_2 H 0.146907 0.062979 0.872620
C29_2 C 0.1444(7) 0.0403(9) 0.7016(6)
H24_2 H 0.115299 0.066846 0.653043
H25_2 H 0.428046 0.006504 0.757832
H27_2 H 0.896698 0.246256 0.212554
H15_2 H 0.941213 0.170942 0.984438
C1_2 C 0.6672(8) 0.8398(9) 0.7105(7)
H1_2 H 0.633061 0.837163 0.656592
H2_2 H 0.698624 0.772109 0.723232
H3_2 H 0.635298 0.861303 0.808245
C2_2 C 0.7404(6) 0.9236(7) 0.7201(5)
C4_2 C 0.7853(8) 0.9646(9) 0.7905(6)
H4_2 H 0.768566 0.941471 0.833762
C6_2 C 0.7670(8) 0.9613(8) 0.6585(6)
H6_2 H 0.738514 0.936451 0.609278
C15_2 C 0.5366(7) 0.9411(9) 0.7307(9)
H13_2 H 0.508807 0.938083 0.675610
C24_2 C 0.3328(8) 0.8398(9) 0.7895(7)
H18_2 H 0.366939 0.837163 0.843408
H19_2 H 0.301376 0.772109 0.776768
H20_2 H 0.364702 0.861303 0.691755
C25_2 C 0.2596(6) 0.9236(7) 0.7799(5)
C26_2 C 0.2147(8) 0.9646(9) 0.7095(6)
H21_2 H 0.231434 0.941471 0.666238
C28_2 C 0.2330(8) 0.9613(8) 0.8415(6)
H23_2 H 0.261486 0.936451 0.890722
C30_2 C 0.4634(7) 0.9411(9) 0.7693(9)
H26_2 H 0.491193 0.938083 0.824390
N3 N 0.3820(5) 0.4245(6) 0.2383(4)
C24_3 C 0.1672(8) 0.6602(9) 0.2105(7)
H18_3 H 0.133061 0.662837 0.156592
H19_3 H 0.198624 0.727891 0.223232
N4_2 N 0.1004(5) 0.6498(6) 0.2545(5)
H20_3 H 0.135298 0.638697 0.308245
C25_3 C 0.2404(6) 0.5764(7) 0.2201(5)
C26_3 C 0.2853(8) 0.5354(9) 0.2905(6)
H21_3 H 0.268566 0.558529 0.333762
C27_3 C 0.3368(8) 0.4628(9) 0.1702(6)
H22_3 H 0.353093 0.437021 0.127380
C28_3 C 0.2670(8) 0.5387(8) 0.1585(6)
H23_3 H 0.238514 0.563549 0.109278
C29_3 C 0.3556(7) 0.4597(9) 0.2984(6)
H24_3 H 0.384701 0.433154 0.346957
C30_3 C 0.0366(7) 0.5589(9) 0.2307(9)
H25_3 H 0.071954 0.493496 0.242168
H26_3 H 0.008807 0.561917 0.175610
Cd2 Cd 0.500000 0.29785(6) 0.250000
Cd4_3 Cd 0.000000 0.79785(6) 0.250000
O3 O 0.4801(5) 0.3026(6) 0.1201(4)
O4_3 O 0.3643(7) 0.1888(9) 0.0833(5)
C16_3 C 0.4264(8) 0.2459(10) 0.0707(6)
H15_3 H 0.558787 0.329058 0.015562
O1_3 O 0.5199(5) 0.3026(6) 0.3799(4)
O2_3 O 0.6357(7) 0.1888(9) 0.4167(5)
N1_3 N 0.6180(5) 0.4245(6) 0.2617(4)
C1_3 C 0.8328(8) 0.6602(9) 0.2895(7)
H1_3 H 0.866939 0.662837 0.343408
H2_3 H 0.801376 0.727891 0.276768
N2_2 N 0.8996(5) 0.6498(6) 0.2455(5)
H3_3 H 0.864702 0.638697 0.191755
C2_3 C 0.7596(6) 0.5764(7) 0.2799(5)
C3_3 C 0.5736(8) 0.2459(10) 0.4293(6)
C4_3 C 0.7147(8) 0.5354(9) 0.2095(6)
H4_3 H 0.731434 0.558529 0.166238
C5_3 C 0.6632(8) 0.4628(9) 0.3298(6)
H5_3 H 0.646907 0.437021 0.372620
C6_3 C 0.7330(8) 0.5387(8) 0.3415(6)
H6_3 H 0.761486 0.563549 0.390722
C7_3 C 0.5604(9) 0.2510(9) 0.5084(6)
C8_3 C 0.6444(7) 0.4597(9) 0.2016(6)
H7_3 H 0.615299 0.433154 0.153043
C9_3 C 0.6274(10) 0.2070(11) 0.5696(7)
H8_3 H 0.680931 0.176973 0.561059
C10_3 C 0.5414(13) 0.2534(12) 0.6579(8)
C11_3 C 0.4866(12) 0.2973(13) 0.5240(8)
H9_3 H 0.441213 0.329058 0.484438
C12_3 C 0.6162(13) 0.2070(11) 0.6424(7)
H10_3 H 0.661057 0.174436 0.681877
C13_3 C 0.4765(14) 0.2991(14) 0.5985(9)
H11_3 H 0.424477 0.331956 0.607763
C14_3 C 0.5382(15) 0.2536(14) 0.7417(10)
C15_3 C 0.9634(7) 0.5589(9) 0.2693(9)
H12_3 H 0.928046 0.493496 0.257832
H13_3 H 0.991193 0.561917 0.324390
C17_3 C 0.4396(9) 0.2510(9) 0.9916(6)
C18_3 C 0.3726(10) 0.2070(11) 0.9304(7)
H14_3 H 0.319069 0.176973 0.938941
C19_3 C 0.4586(13) 0.2534(12) 0.8421(8)
C20_3 C 0.5134(12) 0.2973(13) 0.9760(8)
C21_3 C 0.3838(13) 0.2070(11) 0.8576(7)
H16_3 H 0.338943 0.174436 0.818123
C22_3 C 0.5235(14) 0.2991(14) 0.9015(9)
H17_3 H 0.575523 0.331956 0.892237
C23_3 C 0.4618(15) 0.2536(14) 0.7583(10)
Cd4_4 Cd 1.000000 0.79785(6) 0.250000
N6_2 N 0.3996(5) 0.1498(6) 0.2455(5)
N7_2 N 0.6004(5) 0.1498(6) 0.2545(5)
H27_3 H 0.603302 0.253744 0.787446
H28_3 H 0.396698 0.253744 0.712554
C1_4 C 0.3328(8) 0.1602(9) 0.2895(7)
H1_4 H 0.366939 0.162837 0.343408
H2_4 H 0.301376 0.227891 0.276768
H3_4 H 0.364702 0.138697 0.191755
C2_4 C 0.2596(6) 0.0764(7) 0.2799(5)
C4_4 C 0.2147(8) 0.0354(9) 0.2095(6)
H4_4 H 0.231434 0.058529 0.166238
C6_4 C 0.2330(8) 0.0387(8) 0.3415(6)
H6_4 H 0.261486 0.063549 0.390722
C15_4 C 0.4634(7) 0.0589(9) 0.2693(9)
H13_4 H 0.491193 0.061917 0.324390
C24_4 C 0.6672(8) 0.1602(9) 0.2105(7)
H18_4 H 0.633061 0.162837 0.156592
H19_4 H 0.698624 0.227891 0.223232
H20_4 H 0.635298 0.138697 0.308245
C25_4 C 0.7404(6) 0.0764(7) 0.2201(5)
C26_4 C 0.7853(8) 0.0354(9) 0.2905(6)
H21_4 H 0.768566 0.058529 0.333762
C28_4 C 0.7670(8) 0.0387(8) 0.1585(6)
H23_4 H 0.738514 0.063549 0.109278
C30_4 C 0.5366(7) 0.0589(9) 0.2307(9)
H26_4 H 0.508807 0.061917 0.175610
H15_4 H 0.058787 0.829058 0.015562
O1_4 O 0.0199(5) 0.8026(6) 0.3799(4)
O2_4 O 0.1357(7) 0.6888(9) 0.4167(5)
N1_4 N 0.1180(5) 0.9245(6) 0.2617(4)
C3_4 C 0.0736(8) 0.7459(10) 0.4293(6)
C5_4 C 0.1632(8) 0.9628(9) 0.3298(6)
H5_4 H 0.146907 0.937021 0.372620
C7_4 C 0.0604(9) 0.7510(9) 0.5084(6)
C8_4 C 0.1444(7) 0.9597(9) 0.2016(6)
H7_4 H 0.115299 0.933154 0.153043
C9_4 C 0.1274(10) 0.7070(11) 0.5696(7)
H8_4 H 0.180931 0.676973 0.561059
C10_4 C 0.0414(13) 0.7534(12) 0.6579(8)
C12_4 C 0.1162(13) 0.7070(11) 0.6424(7)
H10_4 H 0.161057 0.674436 0.681877
C14_4 C 0.0382(15) 0.7536(14) 0.7417(10)
H12_4 H 0.428046 0.993496 0.257832
C20_4 C 0.0134(12) 0.7973(13) 0.9760(8)
C22_4 C 0.0235(14) 0.7991(14) 0.9015(9)
H17_4 H 0.075523 0.831956 0.892237
N3_2 N 0.8820(5) 0.9245(6) 0.2383(4)
C27_4 C 0.8368(8) 0.9628(9) 0.1702(6)
H22_4 H 0.853093 0.937021 0.127380
C29_4 C 0.8556(7) 0.9597(9) 0.2984(6)
H24_4 H 0.884701 0.933154 0.346957
H25_4 H 0.571954 0.993496 0.242168
H27_4 H 0.103302 0.753744 0.787446
O3_2 O 0.9801(5) 0.8026(6) 0.1201(4)
O4_4 O 0.8643(7) 0.6888(9) 0.0833(5)
C16_4 C 0.9264(8) 0.7459(10) 0.0707(6)
C11_4 C 0.9866(12) 0.7973(13) 0.5240(8)
H9_4 H 0.941213 0.829058 0.484438
C13_4 C 0.9765(14) 0.7991(14) 0.5985(9)
H11_4 H 0.924477 0.831956 0.607763
C17_4 C 0.9396(9) 0.7510(9) 0.9916(6)
C18_4 C 0.8726(10) 0.7070(11) 0.9304(7)
H14_4 H 0.819069 0.676973 0.938941
C19_4 C 0.9586(13) 0.7534(12) 0.8421(8)
C21_4 C 0.8838(13) 0.7070(11) 0.8576(7)
H16_4 H 0.838943 0.674436 0.818123
C23_4 C 0.9618(15) 0.7536(14) 0.7583(10)
H28_4 H 0.896698 0.753744 0.712554
loop_
_geom_bond_atom_site_label_1
_geom_bond_atom_site_label_2
_geom_bond_site_symmetry_1
_geom_bond_site_symmetry_2
Cd1 O1 1_555 1_555
O1 C3 1_555 1_555
O2 C3 1_555 1_555
N1 Cd1 1_555 1_555
C1 H1 1_555 1_555
H2 C1 1_555 1_555
N2 C1 1_555 1_555
H3 N2 1_555 1_555
C2 C1 1_555 1_555
C3 C7 1_555 1_555
C4 C2 1_555 1_555
H4 C4 1_555 1_555
C5 N1 1_555 1_555
H5 C5 1_555 1_555
C6 C2 1_555 1_555
H6 C6 1_555 1_555
C7 C9 1_555 1_555
C8 N1 1_555 1_555
H7 C8 1_555 1_555
C9 H8 1_555 1_555
C10 C12 1_555 1_555
C11 C7 1_555 1_555
H9 C11 1_555 1_555
C12 C9 1_555 1_555
H10 C12 1_555 1_555
C13 C10 1_555 1_555
H11 C13 1_555 1_555
C14 C10 1_555 1_555
C15 N2 1_555 1_555
H12 C15 1_555 1_555
H13 C15 1_555 1_555
C17 C18 1_555 1_555
C18 H14 1_555 1_555
C19 C21 1_555 1_555
C20 C17 1_555 1_555
C21 C18 1_555 1_555
H16 C21 1_555 1_555
C22 C19 1_555 1_555
H17 C22 1_555 1_555
C23 C14 1_555 1_555
Cd4 N2 1_555 1_555
O5 Cd1 1_555 1_555
N5 Cd1 1_555 1_555
N6 Cd1 1_555 1_555
N7 Cd1 1_555 1_555
C4 C8 1_555 1_555
C5 C6 1_555 1_555
C11 C13 1_555 1_555
C19 C23 1_555 1_555
C20 C22 1_555 1_555
C14 H27 1_555 1_555
C23 H28 1_555 1_555
O5 C16 1_555 1_555
O4 C16 1_555 1_555
N5 C27 1_555 1_555
C24 H18 1_555 1_555
H19 C24 1_555 1_555
N4 C24 1_555 1_555
H20 N4 1_555 1_555
C25 C24 1_555 1_555
C26 C25 1_555 1_555
H21 C26 1_555 1_555
C27 H22 1_555 1_555
C28 C25 1_555 1_555
H23 C28 1_555 1_555
C29 N5 1_555 1_555
H24 C29 1_555 1_555
H25 C30 1_555 1_555
H26 C30 1_555 1_555
N4 C30 1_555 1_555
N4 Cd4_2 1_555 1_555
C26 C29 1_555 1_555
C27 C28 1_555 1_555
H9_2 C11_2 1_555 1_555
H11_2 C13_2 1_555 1_555
C17_2 C18_2 1_555 1_555
C18_2 H14_2 1_555 1_555
C19_2 C21_2 1_555 1_555
C21_2 C18_2 1_555 1_555
H16_2 C21_2 1_555 1_555
O5_2 Cd4 1_555 1_555
N5_2 Cd4 1_555 1_555
C11_2 C13_2 1_555 1_555
C19_2 C23_2 1_555 1_555
C23_2 H28_2 1_555 1_555
O5_2 C16_2 1_555 1_555
O4_2 C16_2 1_555 1_555
Cd4_2 O1_2 1_555 1_555
O1_2 C3_2 1_555 1_555
O2_2 C3_2 1_555 1_555
N1_2 Cd4_2 1_555 1_555
C3_2 C7_2 1_555 1_555
C5_2 N1_2 1_555 1_555
H5_2 C5_2 1_555 1_555
C7_2 C9_2 1_555 1_555
C8_2 N1_2 1_555 1_555
H7_2 C8_2 1_555 1_555
C9_2 H8_2 1_555 1_555
C10_2 C12_2 1_555 1_555
C12_2 C9_2 1_555 1_555
H10_2 C12_2 1_555 1_555
C14_2 C10_2 1_555 1_555
H17_2 C22_2 1_555 1_555
N5_2 C27_2 1_555 1_555
C27_2 H22_2 1_555 1_555
C29_2 N5_2 1_555 1_555
H24_2 C29_2 1_555 1_555
C20_2 C22_2 1_555 1_555
C14_2 H27_2 1_555 1_555
C1_2 H1_2 1_555 1_555
H2_2 C1_2 1_555 1_555
N6 C1_2 1_555 1_555
H3_2 N6 1_555 1_555
C2_2 C1_2 1_555 1_555
C4_2 C2_2 1_555 1_555
H4_2 C4_2 1_555 1_555
C6_2 C2_2 1_555 1_555
H6_2 C6_2 1_555 1_555
C15_2 N6 1_555 1_555
H13_2 C15_2 1_555 1_555
C24_2 H18_2 1_555 1_555
H19_2 C24_2 1_555 1_555
N7 C24_2 1_555 1_555
H20_2 N7 1_555 1_555
C25_2 C24_2 1_555 1_555
C26_2 C25_2 1_555 1_555
H21_2 C26_2 1_555 1_555
C28_2 C25_2 1_555 1_555
H23_2 C28_2 1_555 1_555
C30_2 C15_2 1_555 1_555
H26_2 C30_2 1_555 1_555
N7 C30_2 1_555 1_555
N3 C27_3 1_555 1_555
C24_3 H18_3 1_555 1_555
H19_3 C24_3 1_555 1_555
N4_2 C24_3 1_555 1_555
H20_3 N4_2 1_555 1_555
C25_3 C24_3 1_555 1_555
C26_3 C25_3 1_555 1_555
H21_3 C26_3 1_555 1_555
C27_3 H22_3 1_555 1_555
C28_3 C25_3 1_555 1_555
H23_3 C28_3 1_555 1_555
C29_3 N3 1_555 1_555
H24_3 C29_3 1_555 1_555
H25_3 C30_3 1_555 1_555
H26_3 C30_3 1_555 1_555
Cd2 N3 1_555 1_555
N4_2 C30_3 1_555 1_555
N4_2 Cd4_3 1_555 1_555
C26_3 C29_3 1_555 1_555
C27_3 C28_3 1_555 1_555
O3 C16_3 1_555 1_555
O4_3 C16_3 1_555 1_555
Cd2 O3 1_555 1_555
Cd2 O1_3 1_555 1_555
O1_3 C3_3 1_555 1_555
O2_3 C3_3 1_555 1_555
N1_3 Cd2 1_555 1_555
C1_3 H1_3 1_555 1_555
H2_3 C1_3 1_555 1_555
N2_2 C1_3 1_555 1_555
H3_3 N2_2 1_555 1_555
C2_3 C1_3 1_555 1_555
C3_3 C7_3 1_555 1_555
C4_3 C2_3 1_555 1_555
H4_3 C4_3 1_555 1_555
C5_3 N1_3 1_555 1_555
H5_3 C5_3 1_555 1_555
C6_3 C2_3 1_555 1_555
H6_3 C6_3 1_555 1_555
C7_3 C9_3 1_555 1_555
C8_3 N1_3 1_555 1_555
H7_3 C8_3 1_555 1_555
C9_3 H8_3 1_555 1_555
C10_3 C12_3 1_555 1_555
C11_3 C7_3 1_555 1_555
H9_3 C11_3 1_555 1_555
C12_3 C9_3 1_555 1_555
H10_3 C12_3 1_555 1_555
C13_3 C10_3 1_555 1_555
H11_3 C13_3 1_555 1_555
C14_3 C10_3 1_555 1_555
C15_3 N2_2 1_555 1_555
H12_3 C15_3 1_555 1_555
H13_3 C15_3 1_555 1_555
C17_3 C18_3 1_555 1_555
C18_3 H14_3 1_555 1_555
C19_3 C21_3 1_555 1_555
C20_3 C17_3 1_555 1_555
C21_3 C18_3 1_555 1_555
H16_3 C21_3 1_555 1_555
C22_3 C19_3 1_555 1_555
H17_3 C22_3 1_555 1_555
C23_3 C14_3 1_555 1_555
Cd4_4 N2_2 1_555 1_555
N6_2 Cd2 1_555 1_555
N7_2 Cd2 1_555 1_555
C4_3 C8_3 1_555 1_555
C5_3 C6_3 1_555 1_555
C11_3 C13_3 1_555 1_555
C19_3 C23_3 1_555 1_555
C20_3 C22_3 1_555 1_555
C14_3 H27_3 1_555 1_555
C23_3 H28_3 1_555 1_555
C1_4 H1_4 1_555 1_555
H2_4 C1_4 1_555 1_555
N6_2 C1_4 1_555 1_555
H3_4 N6_2 1_555 1_555
C2_4 C1_4 1_555 1_555
C4_4 C2_4 1_555 1_555
H4_4 C4_4 1_555 1_555
C6_4 C2_4 1_555 1_555
H6_4 C6_4 1_555 1_555
C15_4 N6_2 1_555 1_555
H13_4 C15_4 1_555 1_555
C24_4 H18_4 1_555 1_555
H19_4 C24_4 1_555 1_555
N7_2 C24_4 1_555 1_555
H20_4 N7_2 1_555 1_555
C25_4 C24_4 1_555 1_555
C26_4 C25_4 1_555 1_555
H21_4 C26_4 1_555 1_555
C28_4 C25_4 1_555 1_555
H23_4 C28_4 1_555 1_555
C30_4 C15_4 1_555 1_555
H26_4 C30_4 1_555 1_555
N7_2 C30_4 1_555 1_555
Cd4_3 O1_4 1_555 1_555
O1_4 C3_4 1_555 1_555
O2_4 C3_4 1_555 1_555
N1_4 Cd4_3 1_555 1_555
C3_4 C7_4 1_555 1_555
C5_4 N1_4 1_555 1_555
H5_4 C5_4 1_555 1_555
C7_4 C9_4 1_555 1_555
C8_4 N1_4 1_555 1_555
H7_4 C8_4 1_555 1_555
C9_4 H8_4 1_555 1_555
C10_4 C12_4 1_555 1_555
C12_4 C9_4 1_555 1_555
H10_4 C12_4 1_555 1_555
C14_4 C10_4 1_555 1_555
H17_4 C22_4 1_555 1_555
N3_2 C27_4 1_555 1_555
C27_4 H22_4 1_555 1_555
C29_4 N3_2 1_555 1_555
H24_4 C29_4 1_555 1_555
Cd4_4 N3_2 1_555 1_555
C20_4 C22_4 1_555 1_555
C14_4 H27_4 1_555 1_555
O3_2 C16_4 1_555 1_555
O4_4 C16_4 1_555 1_555
Cd4_4 O3_2 1_555 1_555
H9_4 C11_4 1_555 1_555
H11_4 C13_4 1_555 1_555
C17_4 C18_4 1_555 1_555
C18_4 H14_4 1_555 1_555
C19_4 C21_4 1_555 1_555
C21_4 C18_4 1_555 1_555
H16_4 C21_4 1_555 1_555
C11_4 C13_4 1_555 1_555
C19_4 C23_4 1_555 1_555
C23_4 H28_4 1_555 1_555

#END
