
###############################################################################
#
# This file contains modified crystal structure data generated from the
# MOF subset of the Cambridge Structural Database (CSD) v543 
# hosted by the Cambridge Crystallographic Data Centre (CCDC).
#
# This work is licensed under the Creative Commons
# Attribution-NonCommercial-ShareAlike 4.0 International License.
# To view a copy of this license, visit
# http://creativecommons.org/licenses/by-nc-sa/4.0/
# or send a letter to
# Creative Commons, PO Box 1866, Mountain View, CA 94042, USA.
#
# CIF created using the CSD Python API on 29 September 2022
# The structure has been converted into the P1 space group
# The structure has a 3D framework
# The original CSD entry HEBKIK is in the monoclinic crystal system
# The original CSD entry HEBKIK is in a Sohncke space group
# The framework has been calculated to contain at least 10.0% void space
# The void calculation uses a probe of radius 1.32A, grid spacing 0.4
#
###############################################################################

data_HEBKIK
_chemical_formula_moiety         '(C36 H42 Br4 Cd4 N8 O12)n'
_symmetry_cell_setting           triclinic
_symmetry_space_group_name_H-M   'P 1'
_symmetry_Int_Tables_number      1
_space_group_name_Hall           'P 1'
loop_
_symmetry_equiv_pos_site_id
_symmetry_equiv_pos_as_xyz
1 x,y,z
_cell_length_a                   9.4628(12)
_cell_length_b                   15.1900(19)
_cell_length_c                   10.0319(12)
_cell_angle_alpha                90
_cell_angle_beta                 110.630(2)
_cell_angle_gamma                90
_cell_volume                     1349.52
loop_
_atom_site_label
_atom_site_type_symbol
_atom_site_fract_x
_atom_site_fract_y
_atom_site_fract_z
H3 H 0.5558 0.0847 0.0170
C3 C 0.3557(10) 0.1238(6) 0.0167(10)
H5 H 0.3301 0.0704 0.0477
C14 C 0.0110(8) 0.3209(5) 0.0661(8)
H14 H 0.1167 0.3393 0.1095
C17 C 0.1020(9) 0.1804(6) 0.0042(10)
H18 H 0.1174 0.1678 0.1032
N1 N 0.5326(7) 0.2079(5) 0.9484(6)
H1 H 0.0116 0.2777 0.8833
C1 C 0.4902(9) 0.1324(6) 0.9967(9)
C5 C 0.2582(8) 0.1937(5) 0.9911(7)
H9 H 0.0746 0.6141 0.3925
C13 C 0.4413(9) 0.2742(6) 0.9255(9)
H13 H 0.4679 0.3261 0.8910
C15 C 0.3044(9) 0.2718(6) 0.9499(9)
H15 H 0.2456 0.3223 0.9385
H17 H 0.0561 0.1286 0.9494
Br2 Br 0.16904(18) 0.42022(10) 0.65889(16)
Cd3 Cd 0.74343(5) 0.20867(3) 0.88427(5)
Cd5 Cd 0.04239(6) 0.80855(3) 0.49145(5)
N6 N 0.0916(7) 0.1824(4) 0.5858(7)
O4 O 0.9956(7) 0.3281(4) 0.2976(6)
O5 O 0.8633(6) 0.2219(4) 0.1519(5)
H6 H 0.9195 0.4436 0.0648
C12 C 0.9529(8) 0.2849(5) 0.1820(7)
Cd4 Cd 0.95761(6) 0.30855(3) 0.50855(5)
Br1 Br 0.76210(10) 0.03839(6) 0.84804(10)
O1 O 0.8230(7) 0.2710(4) 0.6584(6)
O2 O 0.5912(7) 0.2495(4) 0.6580(6)
O3 O 0.7562(6) 0.2066(4) 0.3639(5)
O6 O 0.7599(6) 0.3719(4) 0.9265(6)
N2 N 0.9084(7) 0.6824(4) 0.4142(7)
N3 N 0.9966(7) 0.2517(5) 0.9590(7)
N4 N 0.7241(8) 0.3837(4) 0.4392(7)
H2 H 0.7324 0.4220 0.5114
C2 C 0.7608(9) 0.6742(5) 0.4021(8)
H4 H 0.7129 0.7234 0.4216
C4 C 0.9136(9) 0.3986(6) 0.9944(9)
H7 H 0.9509 0.4236 0.9241
C6 C 0.6790(10) 0.5987(6) 0.3636(9)
H8 H 0.5783 0.5973 0.3563
C7 C 0.9740(10) 0.6101(5) 0.3849(9)
C8 C 0.9028(9) 0.5316(5) 0.3447(9)
H10 H 0.9528 0.4837 0.3238
C9 C 0.7471(8) 0.5245(5) 0.3356(8)
C10 C 0.6805(10) 0.2743(5) 0.6020(8)
C11 C 0.6693(9) 0.4377(5) 0.3061(8)
H11 H 0.6913 0.4079 0.2302
H12 H 0.5609 0.4460 0.2764
C16 C 0.6196(8) 0.3136(6) 0.4516(7)
H16 H 0.5192 0.3386 0.4336
C18 C 0.6097(9) 0.2402(6) 0.3401(9)
H19 H 0.5440 0.1933 0.3488
H20 H 0.5677 0.2643 0.2446
H21 H 0.774(8) 0.182(5) 0.453(8)
C2_2 C 0.2392(9) 0.1742(5) 0.5979(8)
H4_2 H 0.2871 0.2234 0.5784
C6_2 C 0.3210(10) 0.0987(6) 0.6364(9)
H8_2 H 0.4217 0.0973 0.6437
C7_2 C 0.0260(10) 0.1101(5) 0.6151(9)
C8_2 C 0.0972(9) 0.0316(5) 0.6553(9)
C9_2 C 0.2529(8) 0.0245(5) 0.6644(8)
Cd1 Cd 0.25657(5) 0.70867(3) 0.11573(5)
Br1_2 Br 0.23790(10) 0.53839(6) 0.15196(10)
O1_2 O 0.1770(7) 0.7710(4) 0.3416(6)
O2_2 O 0.4088(7) 0.7495(4) 0.3420(6)
O3_2 O 0.2438(6) 0.7066(4) 0.6361(5)
O6_2 O 0.2401(6) 0.8719(4) 0.0735(6)
N3_2 N 0.0034(7) 0.7517(5) 0.0410(7)
N4_2 N 0.2759(8) 0.8837(4) 0.5608(7)
H2_2 H 0.2676 0.9220 0.4886
C4_2 C 0.0864(9) 0.8986(6) 0.0056(9)
H7_2 H 0.0491 0.9236 0.0759
H10_2 H 0.0472 0.9837 0.6762
C10_2 C 0.3195(10) 0.7743(5) 0.3980(8)
C11_2 C 0.3307(9) 0.9377(5) 0.6939(8)
H11_2 H 0.3087 0.9079 0.7698
H12_2 H 0.4391 0.9460 0.7236
C16_2 C 0.3804(8) 0.8136(6) 0.5484(7)
H16_2 H 0.4808 0.8386 0.5664
C18_2 C 0.3903(9) 0.7402(6) 0.6599(9)
H19_2 H 0.4560 0.6933 0.6512
H20_2 H 0.4323 0.7643 0.7554
H21_2 H 0.226(8) 0.682(5) 0.547(8)
O7 O 0.0044(7) 0.8281(4) 0.7024(6)
N5 N 0.4674(7) 0.7079(5) 0.0516(6)
O5_2 O 0.1367(6) 0.7219(4) 0.8481(5)
H6_2 H 0.0805 0.9436 0.9352
C12_2 C 0.0471(8) 0.7849(5) 0.8180(7)
H9_2 H 0.9254 0.1141 0.6075
H1_2 H 0.9884 0.7777 0.1167
C1_2 C 0.5098(9) 0.6324(6) 0.0033(9)
C5_2 C 0.7418(8) 0.6937(5) 0.0089(7)
C13_2 C 0.5587(9) 0.7742(6) 0.0745(9)
H13_2 H 0.5321 0.8261 0.1090
C15_2 C 0.6956(9) 0.7718(6) 0.0501(9)
H15_2 H 0.7544 0.8223 0.0615
H17_2 H 0.9439 0.6286 0.0506
Br2_2 Br 0.83096(18) 0.92022(10) 0.34111(16)
H3_2 H 0.4442 0.5847 0.9830
C3_2 C 0.6443(10) 0.6238(6) 0.9833(10)
H5_2 H 0.6699 0.5704 0.9523
C14_2 C 0.9890(8) 0.8209(5) 0.9339(8)
H14_2 H 0.8833 0.8393 0.8905
C17_2 C 0.8980(9) 0.6804(6) 0.9958(10)
H18_2 H 0.8826 0.6678 0.8968
loop_
_geom_bond_atom_site_label_1
_geom_bond_atom_site_label_2
_geom_bond_site_symmetry_1
_geom_bond_site_symmetry_2
H5 C3 1_555 1_555
H14 C14 1_555 1_555
H18 C17 1_555 1_555
N1 C1 1_555 1_555
C13 N1 1_555 1_555
H13 C13 1_555 1_555
C15 C5 1_555 1_555
H15 C15 1_555 1_555
Cd3 N1 1_555 1_555
C13 C15 1_555 1_555
O4 C12 1_555 1_555
C12 O5 1_555 1_555
Cd4 O4 1_555 1_555
Cd3 Br1 1_555 1_555
Cd4 O1 1_555 1_555
O1 C10 1_555 1_555
O2 Cd3 1_555 1_555
O3 Cd4 1_555 1_555
O6 Cd3 1_555 1_555
N2 C2 1_555 1_555
N3 Cd3 1_555 1_555
N4 Cd4 1_555 1_555
H2 N4 1_555 1_555
C2 H4 1_555 1_555
C4 O6 1_555 1_555
H7 C4 1_555 1_555
C6 C2 1_555 1_555
H8 C6 1_555 1_555
C7 N2 1_555 1_555
C8 C7 1_555 1_555
H10 C8 1_555 1_555
C9 C6 1_555 1_555
C10 O2 1_555 1_555
C11 N4 1_555 1_555
H11 C11 1_555 1_555
H12 C11 1_555 1_555
C16 N4 1_555 1_555
H16 C16 1_555 1_555
C18 O3 1_555 1_555
H19 C18 1_555 1_555
H20 C18 1_555 1_555
H21 O3 1_555 1_555
C8 C9 1_555 1_555
C9 C11 1_555 1_555
C10 C16 1_555 1_555
C16 C18 1_555 1_555
N6 C2_2 1_555 1_555
C2_2 H4_2 1_555 1_555
C6_2 C2_2 1_555 1_555
H8_2 C6_2 1_555 1_555
C7_2 N6 1_555 1_555
C8_2 C7_2 1_555 1_555
C9_2 C6_2 1_555 1_555
C8_2 C9_2 1_555 1_555
Cd1 Br1_2 1_555 1_555
Cd5 O1_2 1_555 1_555
O1_2 C10_2 1_555 1_555
O2_2 Cd1 1_555 1_555
O3_2 Cd5 1_555 1_555
O6_2 Cd1 1_555 1_555
N3_2 Cd1 1_555 1_555
N4_2 Cd5 1_555 1_555
H2_2 N4_2 1_555 1_555
C4_2 O6_2 1_555 1_555
H7_2 C4_2 1_555 1_555
C10_2 O2_2 1_555 1_555
C11_2 N4_2 1_555 1_555
H11_2 C11_2 1_555 1_555
H12_2 C11_2 1_555 1_555
C16_2 N4_2 1_555 1_555
H16_2 C16_2 1_555 1_555
C18_2 O3_2 1_555 1_555
H19_2 C18_2 1_555 1_555
H20_2 C18_2 1_555 1_555
H21_2 O3_2 1_555 1_555
O7 Cd5 1_555 1_555
N5 Cd1 1_555 1_555
C10_2 C16_2 1_555 1_555
C16_2 C18_2 1_555 1_555
O7 C12_2 1_555 1_555
C12_2 O5_2 1_555 1_555
N5 C1_2 1_555 1_555
C13_2 N5 1_555 1_555
H13_2 C13_2 1_555 1_555
C15_2 C5_2 1_555 1_555
H15_2 C15_2 1_555 1_555
C13_2 C15_2 1_555 1_555
H5_2 C3_2 1_555 1_555
H14_2 C14_2 1_555 1_555
H18_2 C17_2 1_555 1_555

#END
