
###############################################################################
#
# This file contains modified crystal structure data generated from the
# MOF subset of the Cambridge Structural Database (CSD) v543 
# hosted by the Cambridge Crystallographic Data Centre (CCDC).
#
# This work is licensed under the Creative Commons
# Attribution-NonCommercial-ShareAlike 4.0 International License.
# To view a copy of this license, visit
# http://creativecommons.org/licenses/by-nc-sa/4.0/
# or send a letter to
# Creative Commons, PO Box 1866, Mountain View, CA 94042, USA.
#
# CIF created using the CSD Python API on 29 September 2022
# The structure has been converted into the P1 space group
# The structure has a 3D framework
# The original CSD entry HEBKEG is in the orthorhombic crystal system
# The original CSD entry HEBKEG is in a Sohncke space group
# The framework has been calculated to contain at least 10.0% void space
# The void calculation uses a probe of radius 1.32A, grid spacing 0.4
#
###############################################################################

data_HEBKEG
_chemical_formula_moiety         '(C36 H44 Cd3 Cl4 N8 O12)n'
_symmetry_cell_setting           triclinic
_symmetry_space_group_name_H-M   'P 1'
_symmetry_Int_Tables_number      1
_space_group_name_Hall           'P 1'
loop_
_symmetry_equiv_pos_site_id
_symmetry_equiv_pos_as_xyz
1 x,y,z
_cell_length_a                   5.8751(17)
_cell_length_b                   15.067(4)
_cell_length_c                   16.416(5)
_cell_angle_alpha                90
_cell_angle_beta                 90
_cell_angle_gamma                90
_cell_volume                     1453.15
loop_
_atom_site_label
_atom_site_type_symbol
_atom_site_fract_x
_atom_site_fract_y
_atom_site_fract_z
Cd1 Cd 0.61300(5) 0.411410(18) 0.036340(16)
Cl1 Cl 0.9009(2) 0.53084(8) 0.03259(9)
O1 O 0.3364(5) 0.2926(2) 0.01238(17)
N3 N 0.4311(6) 0.4376(3) 0.1567(2)
O4 O 0.7819(5) 0.2917(2) 0.09764(19)
C1 C 0.3865(7) 0.5877(3) 0.7457(3)
H1 H 0.5292 0.6129 0.7539
N1 N 0.0689(6) 0.5624(3) 0.6567(2)
C2 C 0.2810(8) 0.5399(3) 0.8073(3)
C3 C 0.2762(8) 0.5973(3) 0.6718(3)
H2 H 0.3480 0.6294 0.6308
C5 C 0.0648(8) 0.5050(3) 0.7924(3)
N2 N 0.3557(6) 0.4421(2) 0.9298(2)
H5 H 0.2133 0.4454 0.9514
C6 C 0.4023(9) 0.5264(3) 0.8864(3)
H6 H 0.5647 0.5300 0.8763
H7 H 0.3627 0.5751 0.9224
C7 C 0.3710(7) 0.3595(3) 0.8811(2)
H8 H 0.2577 0.3613 0.8373
O2 O 0.7805(5) 0.3552(2) 0.9054(2)
C8 C 0.6075(8) 0.3489(3) 0.8442(2)
H9 H 0.6181 0.2917 0.8173
H10 H 0.6315 0.3946 0.8035
C9 C 0.3213(7) 0.2804(3) 0.9368(2)
O3 O 0.2819(5) 0.2083(2) 0.90236(19)
H11 H 0.810(10) 0.310(4) 0.929(4)
Cd3 Cd 0.11300(5) 0.088590(18) 0.963660(16)
C4 C 0.9673(8) 0.5181(3) 0.7171(3)
H3 H 0.8229 0.4949 0.7078
H4 H 0.9881 0.4734 0.8326
Cd2 Cd 0.88700(5) 0.588590(18) 0.536340(16)
C1_2 C 0.1135(7) 0.4123(3) 0.2457(3)
C2_2 C 0.2190(8) 0.4601(3) 0.3073(3)
C3_2 C 0.2238(8) 0.4027(3) 0.1718(3)
H2_2 H 0.1520 0.3706 0.1308
C4_2 C 0.5327(8) 0.4819(3) 0.2171(3)
H3_2 H 0.6771 0.5051 0.2078
C5_2 C 0.4352(8) 0.4950(3) 0.2924(3)
H4_2 H 0.5119 0.5266 0.3326
N2_2 N 0.1443(6) 0.5579(2) 0.4298(2)
H5_2 H 0.2867 0.5546 0.4514
C6_2 C 0.0977(9) 0.4736(3) 0.3864(3)
H7_2 H 0.1373 0.4249 0.4224
O1_2 O 0.1636(5) 0.7074(2) 0.51238(17)
C7_2 C 0.1290(7) 0.6405(3) 0.3811(2)
H8_2 H 0.2423 0.6387 0.3373
C9_2 C 0.1787(7) 0.7196(3) 0.4368(2)
O3_2 O 0.2181(5) 0.7917(2) 0.40236(19)
Cd3_2 Cd 0.38700(5) 0.911410(18) 0.463660(16)
Cl1_2 Cl 0.5991(2) 0.46916(8) 0.53259(9)
H1_2 H 0.9708 0.3871 0.2539
H6_2 H 0.9353 0.4700 0.3763
O2_2 O 0.7195(5) 0.6448(2) 0.4054(2)
C8_2 C 0.8925(8) 0.6511(3) 0.3442(2)
H9_2 H 0.8819 0.7083 0.3173
H10_2 H 0.8685 0.6054 0.3035
H11_2 H 0.690(10) 0.690(4) 0.429(4)
O4_2 O 0.7181(5) 0.7083(2) 0.59764(19)
C4_3 C 0.0327(8) 0.0181(3) 0.7829(3)
N2_3 N 0.6443(6) 0.9421(2) 0.5702(2)
H5_3 H 0.7867 0.9454 0.5486
O1_3 O 0.6636(5) 0.7926(2) 0.48762(17)
C7_3 C 0.6290(7) 0.8595(3) 0.6189(2)
H8_3 H 0.7423 0.8613 0.6627
O2_3 O 0.2195(5) 0.8552(2) 0.5946(2)
C8_3 C 0.3925(8) 0.8489(3) 0.6558(2)
H9_3 H 0.3819 0.7917 0.6827
H10_3 H 0.3685 0.8946 0.6965
C9_3 C 0.6787(7) 0.7804(3) 0.5632(2)
H11_3 H 0.190(10) 0.810(4) 0.571(4)
N3_2 N 0.5689(6) 0.9376(3) 0.3433(2)
H3_3 H 0.3229 0.0051 0.2922
H4_3 H 0.4881 0.0266 0.1674
N2_4 N 0.8557(6) 0.0579(2) 0.0702(2)
H5_4 H 0.7133 0.0546 0.0486
C7_4 C 0.8710(7) 0.1405(3) 0.1189(2)
H8_4 H 0.7577 0.1387 0.1627
C9_4 C 0.8213(7) 0.2196(3) 0.0632(2)
C1_3 C 0.8865(7) 0.9123(3) 0.2543(3)
C2_3 C 0.7810(8) 0.9601(3) 0.1927(3)
C3_3 C 0.7762(8) 0.9027(3) 0.3282(3)
H2_3 H 0.8480 0.8706 0.3692
C4_4 C 0.4673(8) 0.9819(3) 0.2829(3)
C5_3 C 0.5648(8) 0.9950(3) 0.2076(3)
C6_3 C 0.9023(9) 0.9736(3) 0.1136(3)
H7_3 H 0.8627 0.9249 0.0776
H3_4 H 0.1771 0.9949 0.7922
H4_4 H 0.0119 0.9734 0.6674
Cl1_3 Cl 0.0991(2) 0.03084(8) 0.46741(9)
C1_4 C 0.6135(7) 0.0877(3) 0.7543(3)
H1_3 H 0.4708 0.1129 0.7461
N1_2 N 0.9311(6) 0.0624(3) 0.8433(2)
C2_4 C 0.7190(8) 0.0399(3) 0.6927(3)
C3_4 C 0.7238(8) 0.0973(3) 0.8282(3)
H2_4 H 0.6520 0.1294 0.8692
C5_4 C 0.9352(8) 0.0050(3) 0.7076(3)
C6_4 C 0.5977(9) 0.0264(3) 0.6136(3)
H6_3 H 0.4353 0.0300 0.6237
H7_4 H 0.6373 0.0751 0.5776
O1_4 O 0.8364(5) 0.2074(2) 0.98762(17)
O2_4 O 0.2805(5) 0.1448(2) 0.0946(2)
C8_4 C 0.1075(8) 0.1511(3) 0.1558(2)
H9_4 H 0.1181 0.2083 0.1827
H10_4 H 0.1315 0.1054 0.1965
H11_4 H 0.310(10) 0.190(4) 0.071(4)
H1_4 H 0.0292 0.8871 0.2461
H6_4 H 0.0647 0.9700 0.1237
Cl1_4 Cl 0.4009(2) 0.96916(8) 0.96741(9)
loop_
_geom_bond_atom_site_label_1
_geom_bond_atom_site_label_2
_geom_bond_site_symmetry_1
_geom_bond_site_symmetry_2
Cd1 Cl1 1_555 1_555
O1 Cd1 1_555 1_555
N3 Cd1 1_555 1_555
O4 Cd1 1_555 1_555
C1 H1 1_555 1_555
N1 C3 1_555 1_555
C2 C1 1_555 1_555
C3 C1 1_555 1_555
H2 C3 1_555 1_555
C5 C2 1_555 1_555
H5 N2 1_555 1_555
C6 C2 1_555 1_555
H6 C6 1_555 1_555
H7 C6 1_555 1_555
C7 N2 1_555 1_555
H8 C7 1_555 1_555
C8 C7 1_555 1_555
H9 C8 1_555 1_555
H10 C8 1_555 1_555
O3 C9 1_555 1_555
H11 O2 1_555 1_555
Cd3 O3 1_555 1_555
N2 C6 1_555 1_555
C7 C9 1_555 1_555
O2 C8 1_555 1_555
H3 C4 1_555 1_555
N3 C3_2 1_555 1_555
C2_2 C1_2 1_555 1_555
C3_2 C1_2 1_555 1_555
H2_2 C3_2 1_555 1_555
C4_2 N3 1_555 1_555
H3_2 C4_2 1_555 1_555
C5_2 C2_2 1_555 1_555
H4_2 C5_2 1_555 1_555
H5_2 N2_2 1_555 1_555
C6_2 C2_2 1_555 1_555
H7_2 C6_2 1_555 1_555
C7_2 N2_2 1_555 1_555
H8_2 C7_2 1_555 1_555
C9_2 O1_2 1_555 1_555
O3_2 C9_2 1_555 1_555
Cd3_2 O3_2 1_555 1_555
C4_2 C5_2 1_555 1_555
N2_2 C6_2 1_555 1_555
C7_2 C9_2 1_555 1_555
Cd2 Cl1_2 1_555 1_555
O2_2 Cd2 1_555 1_555
H9_2 C8_2 1_555 1_555
H10_2 C8_2 1_555 1_555
H11_2 O2_2 1_555 1_555
O4_2 Cd2 1_555 1_555
O2_2 C8_2 1_555 1_555
N2_3 Cd3_2 1_555 1_555
H5_3 N2_3 1_555 1_555
O1_3 Cd3_2 1_555 1_555
C7_3 N2_3 1_555 1_555
H8_3 C7_3 1_555 1_555
O2_3 Cd3_2 1_555 1_555
C8_3 C7_3 1_555 1_555
H9_3 C8_3 1_555 1_555
H10_3 C8_3 1_555 1_555
C9_3 O1_3 1_555 1_555
O4_2 C9_3 1_555 1_555
H11_3 O2_3 1_555 1_555
N3_2 Cd3_2 1_555 1_555
C7_3 C9_3 1_555 1_555
O2_3 C8_3 1_555 1_555
H5_4 N2_4 1_555 1_555
C7_4 N2_4 1_555 1_555
H8_4 C7_4 1_555 1_555
O4 C9_4 1_555 1_555
C7_4 C9_4 1_555 1_555
N3_2 C3_3 1_555 1_555
C2_3 C1_3 1_555 1_555
C3_3 C1_3 1_555 1_555
H2_3 C3_3 1_555 1_555
C4_4 N3_2 1_555 1_555
C5_3 C2_3 1_555 1_555
C6_3 C2_3 1_555 1_555
H7_3 C6_3 1_555 1_555
C4_4 C5_3 1_555 1_555
C1_4 H1_3 1_555 1_555
N1_2 C3_4 1_555 1_555
C2_4 C1_4 1_555 1_555
C3_4 C1_4 1_555 1_555
H2_4 C3_4 1_555 1_555
C5_4 C2_4 1_555 1_555
C6_4 C2_4 1_555 1_555
H6_3 C6_4 1_555 1_555
H7_4 C6_4 1_555 1_555
H9_4 C8_4 1_555 1_555
H10_4 C8_4 1_555 1_555
H11_4 O2_4 1_555 1_555
O2_4 C8_4 1_555 1_555

#END
