
###############################################################################
#
# This file contains modified crystal structure data generated from the
# MOF subset of the Cambridge Structural Database (CSD) v543 
# hosted by the Cambridge Crystallographic Data Centre (CCDC).
#
# This work is licensed under the Creative Commons
# Attribution-NonCommercial-ShareAlike 4.0 International License.
# To view a copy of this license, visit
# http://creativecommons.org/licenses/by-nc-sa/4.0/
# or send a letter to
# Creative Commons, PO Box 1866, Mountain View, CA 94042, USA.
#
# CIF created using the CSD Python API on 29 September 2022
# The structure has been converted into the P1 space group
# The structure has a 3D framework
# The original CSD entry HEDBOJ is in the orthorhombic crystal system
# The framework has been calculated to contain at least 10.0% void space
# The void calculation uses a probe of radius 1.32A, grid spacing 0.4
# H atom positions have been added when not included in the experimental data
#
###############################################################################

data_HEDBOJ
_chemical_formula_moiety         '(C48 H56 Ce4 O96 U8)n'
_symmetry_cell_setting           triclinic
_symmetry_space_group_name_H-M   'P 1'
_symmetry_Int_Tables_number      1
_space_group_name_Hall           'P 1'
loop_
_symmetry_equiv_pos_site_id
_symmetry_equiv_pos_as_xyz
1 x,y,z
_cell_length_a                   15.8523(8)
_cell_length_b                   8.3188(5)
_cell_length_c                   21.5884(12)
_cell_angle_alpha                90
_cell_angle_beta                 90
_cell_angle_gamma                90
_cell_volume                     2846.91
loop_
_atom_site_label
_atom_site_type_symbol
_atom_site_fract_x
_atom_site_fract_y
_atom_site_fract_z
U1 U 0.356026(12) 0.02225(3) 0.023799
O14 O 0.4951(3) 0.0777(6) 0.0473(3)
O16 O 0.3356(3) 0.1859(6) 0.0748(3)
U6 U 0.134090(12) 0.48467(3) 0.028170(19)
U7 U 0.634090(12) 0.01533(3) 0.028170(19)
H7 H 0.00856124 0.0344556 0.246888
O3 O 0.2165(3) 0.0592(7) 0.9759(3)
O10 O 0.0920(3) 0.1178(7) 0.8746(3)
O13 O 0.1080(3) 0.3169(6) 0.9419(3)
C9 C 0.0393(4) 0.0766(8) 0.9756(3)
C12 C 0.0843(4) 0.1756(9) 0.9274(4)
Ce2 Ce 0.15677(3) 0.14518(5) 0.77247(4)
O30 O 0.3840(3) 0.1907(7) 0.9375(3)
C3 C 0.0836(4) 0.9854(8) 0.0210(6)
C4 C 0.1785(4) 0.9898(7) 0.0183(5)
C5 C 0.0870(4) 0.8110(9) 0.1161(4)
O4 O 0.1055(3) 0.6660(6) 0.1095(3)
O5 O 0.0991(3) 0.8884(7) 0.1658(3)
O20 O 0.0012(4) 0.9341(8) 0.2712(4)
O22 O 0.2186(3) 0.9194(7) 0.0614(3)
C8 C 0.0403(4) 0.8990(8) 0.0648(4)
O26 O 0.3830(4) 0.8423(7) 0.1061(3)
H8 H 0.020986 0.951829 0.314304
O9 O 0.6551(3) 0.1761(7) 0.0792(3)
O21 O 0.7569(6) 0.0207(11) 0.1956(5)
O23 O 0.8543(6) 0.1479(14) 0.2949(5)
U4 U 0.856026(12) 0.47775(3) 0.023799
H1 H 0.821568 0.209194 0.263592
H2 H 0.831332 0.170107 0.336829
H12 H 0.705867 0.0634316 0.216584
O1 O 0.7727(3) 0.0450(7) 0.9771(3)
O15 O 0.8840(3) 0.3093(7) 0.9375(3)
O18 O 0.8918(3) 0.1014(7) 0.8752(3)
C7 C 0.9047(4) 0.1652(9) 0.9247(4)
C11 C 0.9504(4) 0.0705(8) 0.9755(4)
O28 O 0.6080(3) 0.1831(6) 0.9419(3)
Ce1 Ce 0.84323(3) 0.85482(5) 0.27247(4)
C1 C 0.8126(4) 0.9821(7) 0.0218(6)
C2 C 0.9077(4) 0.9800(7) 0.0183(4)
O2 O 0.7747(3) 0.9230(7) 0.0665(3)
C6 C 0.9090(4) 0.8004(10) 0.1152(4)
O6 O 0.8830(4) 0.6577(7) 0.1061(3)
O7 O 0.9069(4) 0.8678(7) 0.1667(3)
O11 O 0.7786(4) 0.6405(8) 0.3446(4)
O12 O 0.7609(4) 0.6563(8) 0.2042(3)
O19 O 0.9259(4) 0.5988(8) 0.2720(5)
C10 C 0.9531(4) 0.8932(8) 0.0642(3)
O24 O 0.6972(7) 0.9355(13) 0.3155(5)
O25 O 0.6055(3) 0.8340(6) 0.1095(3)
O27 O 0.9080(3) 0.8822(7) 0.3746(3)
H3 H 0.652608 0.873212 0.293879
H4 H 0.694981 0.912138 0.360578
H5 H 0.80005 0.573392 0.18781
H6 H 0.71623 0.603629 0.229257
H9 H 0.821309 0.556265 0.353467
H10 H 0.760687 0.69183 0.383989
H11 H 0.739671 0.951618 0.160287
H13 H 0.986619 0.623354 0.265811
H14 H 0.918216 0.542574 0.31218
C1_2 C 0.1874(4) 0.0179(7) 0.5218(6)
C2_2 C 0.0923(4) 0.0200(7) 0.5183(4)
O2_2 O 0.2253(3) 0.0770(7) 0.5665(3)
C6_2 C 0.0910(4) 0.1996(10) 0.6152(4)
O6_2 O 0.1170(4) 0.3423(7) 0.6061(3)
O7_2 O 0.0931(4) 0.1322(7) 0.6667(3)
O11_2 O 0.2214(4) 0.3595(8) 0.8446(4)
O12_2 O 0.2391(4) 0.3437(8) 0.7042(3)
O17 O 0.3879(3) 0.1446(7) 0.4770(3)
O19_2 O 0.0741(4) 0.4012(8) 0.7720(5)
C10_2 C 0.0469(4) 0.1068(8) 0.5642(3)
O24_2 O 0.3028(7) 0.0645(13) 0.8155(5)
U3 U 0.143974(12) 0.52225(3) 0.523799
O25_2 O 0.3945(3) 0.1660(6) 0.6095(3)
H3_2 H 0.347392 0.126788 0.793879
H4_2 H 0.305019 0.0878619 0.860578
H5_2 H 0.19995 0.426608 0.68781
H6_2 H 0.28377 0.396371 0.729257
H9_2 H 0.178691 0.443735 0.853467
H10_2 H 0.239313 0.30817 0.883989
H11_2 H 0.260329 0.0483824 0.660287
H13_2 H 0.013381 0.376646 0.765811
H14_2 H 0.0817842 0.457426 0.81218
U2 U 0.365910(12) 0.98467(3) 0.528170(19)
O1_2 O 0.2273(3) 0.9550(7) 0.4771(3)
O9_2 O 0.3449(3) 0.8239(7) 0.5792(3)
O15_2 O 0.1160(3) 0.6907(7) 0.4375(3)
O18_2 O 0.1082(3) 0.8986(7) 0.3752(3)
C7_2 C 0.0953(4) 0.8348(9) 0.4247(4)
O21_2 O 0.2431(6) 0.9793(11) 0.6956(5)
C11_2 C 0.0496(4) 0.9295(8) 0.4755(4)
O23_2 O 0.1457(6) 0.8521(14) 0.7949(5)
O28_2 O 0.3920(3) 0.8169(6) 0.4419(3)
O29 O 0.5049(3) 0.9223(6) 0.5473(3)
H1_2 H 0.178432 0.790806 0.763592
H2_2 H 0.168668 0.829893 0.836829
H12_2 H 0.294133 0.936568 0.716584
C3_2 C 0.9164(4) 0.0146(8) 0.5210(6)
C4_2 C 0.8215(4) 0.0102(7) 0.5183(5)
C5_2 C 0.9130(4) 0.1890(9) 0.6161(4)
O4_2 O 0.8945(3) 0.3340(6) 0.6095(3)
O5_2 O 0.9009(3) 0.1116(7) 0.6658(3)
O8 O 0.6203(3) 0.1374(8) 0.4716(3)
O20_2 O 0.9988(4) 0.0659(8) 0.7712(4)
O22_2 O 0.7814(3) 0.0806(7) 0.5614(3)
C8_2 C 0.9597(4) 0.1010(8) 0.5648(4)
U5 U 0.865910(12) 0.51533(3) 0.528170(19)
O26_2 O 0.6170(4) 0.1577(7) 0.6061(3)
H8_2 H 0.979014 0.0481714 0.814304
U1_2 U 0.643974(12) 0.97775(3) 0.523799
O3_2 O 0.7835(3) 0.9408(7) 0.4759(3)
O13_2 O 0.8920(3) 0.6831(6) 0.4419(3)
O16_2 O 0.6644(3) 0.8141(6) 0.5748(3)
C9_2 C 0.9607(4) 0.9234(8) 0.4756(3)
C12_2 C 0.9157(4) 0.8244(9) 0.4274(4)
O30_2 O 0.6160(3) 0.8093(7) 0.4375(3)
H7_2 H 0.991439 0.965544 0.746888
Ce1_2 Ce 0.34323(3) 0.64518(5) 0.27247(4)
C1_3 C 0.3126(4) 0.5179(7) 0.0218(6)
C2_3 C 0.4077(4) 0.5200(7) 0.0183(4)
O2_3 O 0.2747(3) 0.5770(7) 0.0665(3)
C3_3 C 0.5836(4) 0.5146(8) 0.0210(6)
C4_3 C 0.6785(4) 0.5102(7) 0.0183(5)
C5_3 C 0.5870(4) 0.6890(9) 0.1161(4)
O5_3 O 0.5991(3) 0.6116(7) 0.1658(3)
C6_3 C 0.4090(4) 0.6996(10) 0.1152(4)
O7_3 O 0.4069(4) 0.6322(7) 0.1667(3)
O9_3 O 0.1551(3) 0.3239(7) 0.0792(3)
O11_3 O 0.2786(4) 0.8595(8) 0.3446(4)
O12_3 O 0.2609(4) 0.8437(8) 0.2042(3)
O14_2 O 0.9951(3) 0.4223(6) 0.0473(3)
O16_3 O 0.8356(3) 0.3141(6) 0.0748(3)
O19_3 O 0.4259(4) 0.9012(8) 0.2720(5)
O20_3 O 0.5012(4) 0.5659(8) 0.2712(4)
O21_3 O 0.2569(6) 0.4793(11) 0.1956(5)
O22_3 O 0.7186(3) 0.5806(7) 0.0614(3)
C8_3 C 0.5403(4) 0.6010(8) 0.0648(4)
C10_3 C 0.4531(4) 0.6068(8) 0.0642(3)
O23_3 O 0.3543(6) 0.3521(14) 0.2949(5)
O24_3 O 0.1972(7) 0.5645(13) 0.3155(5)
O27_2 O 0.4080(3) 0.6178(7) 0.3746(3)
H1_3 H 0.321568 0.290806 0.263592
H2_3 H 0.331332 0.329893 0.336829
H3_3 H 0.152608 0.626788 0.293879
H4_3 H 0.194981 0.587862 0.360578
H5_3 H 0.30005 0.926608 0.18781
H6_3 H 0.21623 0.896371 0.229257
H7_3 H 0.508561 0.465544 0.246888
H8_3 H 0.520986 0.548171 0.314304
H9_3 H 0.321309 0.943735 0.353467
H10_3 H 0.260687 0.80817 0.383989
H11_3 H 0.239671 0.548382 0.160287
H12_3 H 0.205867 0.436568 0.216584
H13_3 H 0.486619 0.876646 0.265811
H14_3 H 0.418216 0.957426 0.31218
O1_3 O 0.2727(3) 0.4550(7) 0.9771(3)
O3_3 O 0.7165(3) 0.4408(7) 0.9759(3)
O8_2 O 0.8797(3) 0.6374(8) 0.9716(3)
O10_2 O 0.5920(3) 0.3822(7) 0.8746(3)
O17_2 O 0.1121(3) 0.6446(7) 0.9770(3)
O18_3 O 0.3918(3) 0.3986(7) 0.8752(3)
C7_3 C 0.4047(4) 0.3348(9) 0.9247(4)
C9_3 C 0.5393(4) 0.4234(8) 0.9756(3)
C11_3 C 0.4504(4) 0.4295(8) 0.9755(4)
C12_3 C 0.5843(4) 0.3244(9) 0.9274(4)
Ce2_2 Ce 0.65677(3) 0.35482(5) 0.77247(4)
O29_2 O 0.0049(3) 0.5777(6) 0.5473(3)
C1_4 C 0.6874(4) 0.4821(7) 0.5218(6)
C2_4 C 0.5923(4) 0.4800(7) 0.5183(4)
O1_4 O 0.7273(3) 0.5450(7) 0.4771(3)
O2_4 O 0.7253(3) 0.4230(7) 0.5665(3)
C3_4 C 0.4164(4) 0.4854(8) 0.5210(6)
C4_4 C 0.3215(4) 0.4898(7) 0.5183(5)
O3_4 O 0.2835(3) 0.5592(7) 0.4759(3)
C5_4 C 0.4130(4) 0.3110(9) 0.6161(4)
O5_4 O 0.4009(3) 0.3884(7) 0.6658(3)
C6_4 C 0.5910(4) 0.3004(10) 0.6152(4)
O7_4 O 0.5931(4) 0.3678(7) 0.6667(3)
O8_3 O 0.1203(3) 0.3626(8) 0.4716(3)
O9_4 O 0.8449(3) 0.6761(7) 0.5792(3)
O11_4 O 0.7214(4) 0.1405(8) 0.8446(4)
O12_4 O 0.7391(4) 0.1563(8) 0.7042(3)
O16_4 O 0.1644(3) 0.6859(6) 0.5748(3)
O17_3 O 0.8879(3) 0.3554(7) 0.4770(3)
O18_4 O 0.6082(3) 0.6014(7) 0.3752(3)
C7_4 C 0.5953(4) 0.6652(9) 0.4247(4)
O19_4 O 0.5741(4) 0.0988(8) 0.7720(5)
O20_4 O 0.4988(4) 0.4341(8) 0.7712(4)
O21_4 O 0.7431(6) 0.5207(11) 0.6956(5)
O22_4 O 0.2814(3) 0.4194(7) 0.5614(3)
C8_4 C 0.4597(4) 0.3990(8) 0.5648(4)
C9_4 C 0.4607(4) 0.5766(8) 0.4756(3)
C10_4 C 0.5469(4) 0.3932(8) 0.5642(3)
C11_4 C 0.5496(4) 0.5705(8) 0.4755(4)
C12_4 C 0.4157(4) 0.6756(9) 0.4274(4)
O23_4 O 0.6457(6) 0.6479(14) 0.7949(5)
O24_4 O 0.8028(7) 0.4355(13) 0.8155(5)
H1_4 H 0.678432 0.709194 0.763592
H2_4 H 0.668668 0.670107 0.836829
H3_4 H 0.847392 0.373212 0.793879
H4_4 H 0.805019 0.412138 0.860578
H5_4 H 0.69995 0.0733917 0.68781
H6_4 H 0.78377 0.103629 0.729257
H7_4 H 0.491439 0.534456 0.746888
H8_4 H 0.479014 0.451829 0.814304
H9_4 H 0.678691 0.0562653 0.853467
H10_4 H 0.739313 0.19183 0.883989
H11_4 H 0.760329 0.451618 0.660287
H12_4 H 0.794133 0.563432 0.716584
H13_4 H 0.513381 0.123354 0.765811
H14_4 H 0.581784 0.0425739 0.81218
O8_4 O 0.3797(3) 0.8626(8) 0.9716(3)
O17_4 O 0.6121(3) 0.8554(7) 0.9770(3)
loop_
_geom_bond_atom_site_label_1
_geom_bond_atom_site_label_2
_geom_bond_site_symmetry_1
_geom_bond_site_symmetry_2
O14 U1 1_555 1_555
O16 U1 1_555 1_555
U7 O14 1_555 1_555
O10 C12 1_555 1_555
O13 C12 1_555 1_555
C12 C9 1_555 1_555
Ce2 O10 1_555 1_555
C3 C4 1_555 1_555
C5 O4 1_555 1_555
O4 U6 1_555 1_555
O5 C5 1_555 1_555
C8 C3 1_555 1_555
C4 O22 1_555 1_555
C5 C8 1_555 1_555
O20 H8 1_555 1_555
O9 U7 1_555 1_555
O23 H1 1_555 1_555
O23 H2 1_555 1_555
O21 H12 1_555 1_555
O15 C7 1_555 1_555
O18 C7 1_555 1_555
C7 C11 1_555 1_555
Ce1 O7 1_555 1_555
C1 C2 1_555 1_555
C2 C10 1_555 1_555
C6 O6 1_555 1_555
O6 U4 1_555 1_555
O7 C6 1_555 1_555
O11 Ce1 1_555 1_555
O12 Ce1 1_555 1_555
O19 Ce1 1_555 1_555
C10 C6 1_555 1_555
O24 Ce1 1_555 1_555
O27 Ce1 1_555 1_555
C1 O2 1_555 1_555
O24 H3 1_555 1_555
O24 H4 1_555 1_555
O12 H5 1_555 1_555
O12 H6 1_555 1_555
O11 H9 1_555 1_555
O11 H10 1_555 1_555
O19 H13 1_555 1_555
O19 H14 1_555 1_555
Ce2 O7_2 1_555 1_555
C1_2 C2_2 1_555 1_555
C2_2 C10_2 1_555 1_555
C6_2 O6_2 1_555 1_555
O6_2 U3 1_555 1_555
O7_2 C6_2 1_555 1_555
O11_2 Ce2 1_555 1_555
O12_2 Ce2 1_555 1_555
O19_2 Ce2 1_555 1_555
C10_2 C6_2 1_555 1_555
O24_2 Ce2 1_555 1_555
C1_2 O2_2 1_555 1_555
O24_2 H3_2 1_555 1_555
O24_2 H4_2 1_555 1_555
O12_2 H5_2 1_555 1_555
O12_2 H6_2 1_555 1_555
O11_2 H9_2 1_555 1_555
O11_2 H10_2 1_555 1_555
O19_2 H13_2 1_555 1_555
O19_2 H14_2 1_555 1_555
U2 O1_2 1_555 1_555
O9_2 U2 1_555 1_555
O15_2 C7_2 1_555 1_555
O18_2 C7_2 1_555 1_555
C7_2 C11_2 1_555 1_555
U3 O15_2 1_555 1_555
O28_2 U2 1_555 1_555
O29 U2 1_555 1_555
O23_2 H1_2 1_555 1_555
O23_2 H2_2 1_555 1_555
O21_2 H12_2 1_555 1_555
C3_2 C4_2 1_555 1_555
C5_2 O4_2 1_555 1_555
O4_2 U5 1_555 1_555
O5_2 C5_2 1_555 1_555
C8_2 C3_2 1_555 1_555
C4_2 O22_2 1_555 1_555
C5_2 C8_2 1_555 1_555
O20_2 H8_2 1_555 1_555
U1_2 O3_2 1_555 1_555
O27 C12_2 1_555 1_555
O13_2 C12_2 1_555 1_555
O29 U1_2 1_555 1_555
O16_2 U1_2 1_555 1_555
C12_2 C9_2 1_555 1_555
U5 O13_2 1_555 1_555
O30_2 U1_2 1_555 1_555
Ce1_2 O7_3 1_555 1_555
C1_3 C2_3 1_555 1_555
C2_3 C10_3 1_555 1_555
O2_3 U6 1_555 1_555
C3_3 C4_3 1_555 1_555
C5_3 O25 1_555 1_555
O5_3 C5_3 1_555 1_555
C6_3 O26 1_555 1_555
O7_3 C6_3 1_555 1_555
O9_3 U6 1_555 1_555
O11_3 Ce1_2 1_555 1_555
O12_3 Ce1_2 1_555 1_555
O14_2 U4 1_555 1_555
O16_3 U4 1_555 1_555
O19_3 Ce1_2 1_555 1_555
O20_3 Ce1_2 1_555 1_555
O21_3 Ce1_2 1_555 1_555
O22_3 U4 1_555 1_555
C8_3 C3_3 1_555 1_555
C10_3 C6_3 1_555 1_555
O23_3 Ce1_2 1_555 1_555
O24_3 Ce1_2 1_555 1_555
O27_2 Ce1_2 1_555 1_555
C1_3 O2_3 1_555 1_555
C4_3 O22_3 1_555 1_555
C5_3 C8_3 1_555 1_555
C8_3 C10_3 1_555 1_555
O23_3 H1_3 1_555 1_555
O23_3 H2_3 1_555 1_555
O24_3 H3_3 1_555 1_555
O24_3 H4_3 1_555 1_555
O12_3 H5_3 1_555 1_555
O12_3 H6_3 1_555 1_555
O20_3 H7_3 1_555 1_555
O20_3 H8_3 1_555 1_555
O11_3 H9_3 1_555 1_555
O11_3 H10_3 1_555 1_555
O21_3 H11_3 1_555 1_555
O21_3 H12_3 1_555 1_555
O19_3 H13_3 1_555 1_555
O19_3 H14_3 1_555 1_555
O10_2 C12_3 1_555 1_555
O28 C12_3 1_555 1_555
O30 C7_3 1_555 1_555
O18_3 C7_3 1_555 1_555
C7_3 C11_3 1_555 1_555
C12_3 C9_3 1_555 1_555
Ce2_2 O10_2 1_555 1_555
C9_3 C11_3 1_555 1_555
U3 O3_4 1_555 1_555
U5 O1_4 1_555 1_555
Ce2_2 O7_4 1_555 1_555
C1_4 C2_4 1_555 1_555
C2_4 C10_4 1_555 1_555
O1_4 C1_4 1_555 1_555
O2_4 U5 1_555 1_555
C3_4 C4_4 1_555 1_555
C4_4 O3_4 1_555 1_555
C5_4 O25_2 1_555 1_555
O5_4 C5_4 1_555 1_555
C6_4 O26_2 1_555 1_555
O7_4 C6_4 1_555 1_555
O8_3 U3 1_555 1_555
O9_4 U5 1_555 1_555
O27_2 C12_4 1_555 1_555
O11_4 Ce2_2 1_555 1_555
O12_4 Ce2_2 1_555 1_555
O28_2 C12_4 1_555 1_555
O29_2 U3 1_555 1_555
O30_2 C7_4 1_555 1_555
O16_4 U3 1_555 1_555
O17_3 U5 1_555 1_555
O18_4 C7_4 1_555 1_555
C7_4 C11_4 1_555 1_555
O19_4 Ce2_2 1_555 1_555
O20_4 Ce2_2 1_555 1_555
O21_4 Ce2_2 1_555 1_555
O22_4 U3 1_555 1_555
C8_4 C3_4 1_555 1_555
C9_4 C3_4 1_555 1_555
C10_4 C6_4 1_555 1_555
C11_4 C2_4 1_555 1_555
C12_4 C9_4 1_555 1_555
O23_4 Ce2_2 1_555 1_555
O24_4 Ce2_2 1_555 1_555
C1_4 O2_4 1_555 1_555
C4_4 O22_4 1_555 1_555
C5_4 C8_4 1_555 1_555
C8_4 C10_4 1_555 1_555
C9_4 C11_4 1_555 1_555
O23_4 H1_4 1_555 1_555
O23_4 H2_4 1_555 1_555
O24_4 H3_4 1_555 1_555
O24_4 H4_4 1_555 1_555
O12_4 H5_4 1_555 1_555
O12_4 H6_4 1_555 1_555
O20_4 H7_4 1_555 1_555
O20_4 H8_4 1_555 1_555
O11_4 H9_4 1_555 1_555
O11_4 H10_4 1_555 1_555
O21_4 H11_4 1_555 1_555
O21_4 H12_4 1_555 1_555
O19_4 H13_4 1_555 1_555
O19_4 H14_4 1_555 1_555

#END
