
###############################################################################
#
# This file contains modified crystal structure data generated from the
# MOF subset of the Cambridge Structural Database (CSD) v543 
# hosted by the Cambridge Crystallographic Data Centre (CCDC).
#
# This work is licensed under the Creative Commons
# Attribution-NonCommercial-ShareAlike 4.0 International License.
# To view a copy of this license, visit
# http://creativecommons.org/licenses/by-nc-sa/4.0/
# or send a letter to
# Creative Commons, PO Box 1866, Mountain View, CA 94042, USA.
#
# CIF created using the CSD Python API on 29 September 2022
# The structure has been converted into the P1 space group
# The structure has a 3D framework
# The original CSD entry HEDCEA is in the orthorhombic crystal system
# The framework has been calculated to contain at least 10.0% void space
# The void calculation uses a probe of radius 1.32A, grid spacing 0.4
#
###############################################################################

data_HEDCEA
_chemical_formula_moiety         '(C152 H96 N8 O38 Zn8)n'
_symmetry_cell_setting           triclinic
_symmetry_space_group_name_H-M   'P 1'
_symmetry_Int_Tables_number      1
_space_group_name_Hall           'P 1'
loop_
_symmetry_equiv_pos_site_id
_symmetry_equiv_pos_as_xyz
1 x,y,z
_cell_length_a                   16.7758(6)
_cell_length_b                   11.0644(3)
_cell_length_c                   22.4317(8)
_cell_angle_alpha                90
_cell_angle_beta                 90
_cell_angle_gamma                90
_cell_volume                     4163.64
loop_
_atom_site_label
_atom_site_type_symbol
_atom_site_fract_x
_atom_site_fract_y
_atom_site_fract_z
Zn3 Zn 0.44097(4) 0.09374(5) 0.00876(3)
Zn5 Zn 0.05903(4) 0.09374(5) 0.50876(3)
O11 O 0.9136(3) 0.0061(4) 0.41894(18)
O14 O 0.8736(2) 0.0252(3) 0.53858(19)
Zn4 Zn 0.05903(4) 0.90626(5) 0.00876(3)
Zn6 Zn 0.44097(4) 0.90626(5) 0.50876(3)
O12 O 0.5864(3) 0.9939(4) 0.41894(18)
O15 O 0.6264(2) 0.9748(3) 0.53858(19)
O1 O 0.0045(3) 0.1500(4) 0.4322(2)
O2 O 0.5348(2) 0.1670(4) 0.0533(2)
O4 O 0.6264(2) 0.0252(3) 0.03858(19)
O5 O 0.8153(3) 0.3663(4) 0.2139(2)
N1 N 0.3693(3) 0.2402(4) 0.0199(2)
C1 C 0.2481(4) 0.3362(5) 0.0469(3)
H1 H 0.1973 0.3297 0.0633
C2 C 0.9082(4) 0.3460(5) 0.2905(3)
H2 H 0.9300 0.4195 0.2787
C3 C 0.7923(4) 0.2193(5) 0.1369(3)
H3 H 0.8459 0.1978 0.1376
C4 C 0.8114(4) 0.1899(5) 0.2782(3)
H4 H 0.7678 0.1582 0.2579
C5 C 0.6876(4) 0.3473(5) 0.1707(3)
H5 H 0.6702 0.4115 0.1942
C6 C 0.9449(3) 0.1047(5) 0.4061(3)
C7 C 0.8442(4) 0.2996(5) 0.2610(3)
C8 C 0.8445(4) 0.1289(5) 0.3255(3)
H6 H 0.8225 0.0555 0.3374
C9 C 0.3515(4) 0.4508(6) 0.0043(4)
C10 C 0.3948(4) 0.3463(6) 0.0012(4)
C11 C 0.6355(4) 0.2885(5) 0.1320(3)
H9 H 0.5827 0.3138 0.1295
C12 C 0.6030(4) 0.1239(5) 0.0597(3)
C13 C 0.7648(4) 0.3087(5) 0.1735(3)
C14 C 0.9097(3) 0.1745(5) 0.3559(3)
C15 C 0.6610(3) 0.1937(4) 0.0975(2)
C16 C 0.9407(4) 0.2843(5) 0.3377(3)
H10 H 0.9842 0.3168 0.3577
C17 C 0.2749(4) 0.4453(5) 0.0275(3)
C18 C 0.2964(4) 0.2343(5) 0.0424(3)
H11 H 0.2771 0.1602 0.0555
C19 C 0.7407(3) 0.1614(5) 0.0992(3)
H12 H 0.7593 0.1001 0.0745
N2 N 0.1307(3) 0.7598(4) 0.0199(2)
C20 C 0.2519(4) 0.6638(5) 0.0469(3)
H13 H 0.3027 0.6703 0.0633
C28 C 0.1485(4) 0.5492(6) 0.0043(4)
C29 C 0.1052(4) 0.6537(6) 0.0012(4)
C36 C 0.2251(4) 0.5547(5) 0.0275(3)
C37 C 0.2036(4) 0.7657(5) 0.0424(3)
H23 H 0.2229 0.8398 0.0555
H7 H 0.3728 0.5237 0.9912
H8 H 0.4457 0.3503 0.9848
O7 O 0.4955(3) 0.1500(4) 0.9322(2)
O8 O 0.0045(3) 0.8500(4) 0.9322(2)
H19 H 0.1272 0.4763 0.9912
H20 H 0.0543 0.6497 0.9848
O6 O 0.4955(3) 0.8500(4) 0.4322(2)
O9 O 0.9652(2) 0.8330(4) 0.0533(2)
O13 O 0.8736(2) 0.9748(3) 0.03858(19)
O16 O 0.6847(3) 0.6337(4) 0.2139(2)
C21 C 0.5918(4) 0.6540(5) 0.2905(3)
H14 H 0.5700 0.5805 0.2787
C22 C 0.7077(4) 0.7807(5) 0.1369(3)
H15 H 0.6541 0.8022 0.1376
C23 C 0.6886(4) 0.8101(5) 0.2782(3)
H16 H 0.7322 0.8418 0.2579
C24 C 0.8124(4) 0.6527(5) 0.1707(3)
H17 H 0.8298 0.5885 0.1942
C25 C 0.5551(3) 0.8953(5) 0.4061(3)
C26 C 0.6558(4) 0.7004(5) 0.2610(3)
C27 C 0.6555(4) 0.8711(5) 0.3255(3)
H18 H 0.6775 0.9445 0.3374
C30 C 0.8645(4) 0.7115(5) 0.1320(3)
H21 H 0.9173 0.6862 0.1295
C31 C 0.8970(4) 0.8761(5) 0.0597(3)
C32 C 0.7352(4) 0.6913(5) 0.1735(3)
C33 C 0.5903(3) 0.8255(5) 0.3559(3)
C34 C 0.8390(3) 0.8063(4) 0.0975(2)
C35 C 0.5593(4) 0.7157(5) 0.3377(3)
H22 H 0.5158 0.6832 0.3577
C38 C 0.7593(3) 0.8386(5) 0.0992(3)
H24 H 0.7407 0.8999 0.0745
N1_2 N 0.1307(3) 0.2402(4) 0.5199(2)
C1_2 C 0.2519(4) 0.3362(5) 0.5469(3)
H1_2 H 0.3027 0.3297 0.5633
C9_2 C 0.1485(4) 0.4508(6) 0.5043(4)
H7_2 H 0.1272 0.5237 0.4912
C10_2 C 0.1052(4) 0.3463(6) 0.5012(4)
H8_2 H 0.0543 0.3503 0.4848
C17_2 C 0.2251(4) 0.4453(5) 0.5275(3)
C18_2 C 0.2036(4) 0.2343(5) 0.5424(3)
H11_2 H 0.2229 0.1602 0.5555
O9_2 O 0.5348(2) 0.8330(4) 0.5533(2)
O10 O 0.9136(3) 0.9939(4) 0.91894(18)
O16_2 O 0.8153(3) 0.6337(4) 0.7139(2)
N2_2 N 0.3693(3) 0.7598(4) 0.5199(2)
C20_2 C 0.2481(4) 0.6638(5) 0.5469(3)
H13_2 H 0.1973 0.6703 0.5633
C21_2 C 0.9082(4) 0.6540(5) 0.7905(3)
H14_2 H 0.9300 0.5805 0.7787
C22_2 C 0.7923(4) 0.7807(5) 0.6369(3)
H15_2 H 0.8459 0.8022 0.6376
C23_2 C 0.8114(4) 0.8101(5) 0.7782(3)
H16_2 H 0.7678 0.8418 0.7579
C24_2 C 0.6876(4) 0.6527(5) 0.6707(3)
H17_2 H 0.6702 0.5885 0.6942
C25_2 C 0.9449(3) 0.8953(5) 0.9061(3)
C26_2 C 0.8442(4) 0.7004(5) 0.7610(3)
C27_2 C 0.8445(4) 0.8711(5) 0.8255(3)
H18_2 H 0.8225 0.9445 0.8374
C28_2 C 0.3515(4) 0.5492(6) 0.5043(4)
H19_2 H 0.3728 0.4763 0.4912
C29_2 C 0.3948(4) 0.6537(6) 0.5012(4)
H20_2 H 0.4457 0.6497 0.4848
C30_2 C 0.6355(4) 0.7115(5) 0.6320(3)
H21_2 H 0.5827 0.6862 0.6295
C31_2 C 0.6030(4) 0.8761(5) 0.5597(3)
C32_2 C 0.7648(4) 0.6913(5) 0.6735(3)
C33_2 C 0.9097(3) 0.8255(5) 0.8559(3)
C34_2 C 0.6610(3) 0.8063(4) 0.5975(2)
C35_2 C 0.9407(4) 0.7157(5) 0.8377(3)
H22_2 H 0.9842 0.6832 0.8577
C36_2 C 0.2749(4) 0.5547(5) 0.5275(3)
C37_2 C 0.2964(4) 0.7657(5) 0.5424(3)
H23_2 H 0.2771 0.8398 0.5555
C38_2 C 0.7407(3) 0.8386(5) 0.5992(3)
H24_2 H 0.7593 0.8999 0.5745
O2_2 O 0.9652(2) 0.1670(4) 0.5533(2)
O3 O 0.5864(3) 0.0061(4) 0.91894(18)
O5_2 O 0.6847(3) 0.3663(4) 0.7139(2)
C2_2 C 0.5918(4) 0.3460(5) 0.7905(3)
H2_2 H 0.5700 0.4195 0.7787
C3_2 C 0.7077(4) 0.2193(5) 0.6369(3)
H3_2 H 0.6541 0.1978 0.6376
C4_2 C 0.6886(4) 0.1899(5) 0.7782(3)
H4_2 H 0.7322 0.1582 0.7579
C5_2 C 0.8124(4) 0.3473(5) 0.6707(3)
H5_2 H 0.8298 0.4115 0.6942
C6_2 C 0.5551(3) 0.1047(5) 0.9061(3)
C7_2 C 0.6558(4) 0.2996(5) 0.7610(3)
C8_2 C 0.6555(4) 0.1289(5) 0.8255(3)
H6_2 H 0.6775 0.0555 0.8374
C11_2 C 0.8645(4) 0.2885(5) 0.6320(3)
H9_2 H 0.9173 0.3138 0.6295
C12_2 C 0.8970(4) 0.1239(5) 0.5597(3)
C13_2 C 0.7352(4) 0.3087(5) 0.6735(3)
C14_2 C 0.5903(3) 0.1745(5) 0.8559(3)
C15_2 C 0.8390(3) 0.1937(4) 0.5975(2)
C16_2 C 0.5593(4) 0.2843(5) 0.8377(3)
H10_2 H 0.5158 0.3168 0.8577
C19_2 C 0.7593(3) 0.1614(5) 0.5992(3)
H12_2 H 0.7407 0.1001 0.5745
O1_2 O 0.5045(3) 0.8500(4) 0.0678(2)
O2_3 O 0.0348(2) 0.8330(4) 0.4467(2)
O3_2 O 0.4136(3) 0.9939(4) 0.08106(18)
O4_2 O 0.1264(2) 0.9748(3) 0.46142(19)
O5_3 O 0.3153(3) 0.6337(4) 0.2861(2)
C2_3 C 0.4082(4) 0.6540(5) 0.2095(3)
H2_3 H 0.4300 0.5805 0.2213
C3_3 C 0.2923(4) 0.7807(5) 0.3631(3)
H3_3 H 0.3459 0.8022 0.3624
C4_3 C 0.3114(4) 0.8101(5) 0.2218(3)
H4_3 H 0.2678 0.8418 0.2421
C5_3 C 0.1876(4) 0.6527(5) 0.3293(3)
H5_3 H 0.1702 0.5885 0.3058
C6_3 C 0.4449(3) 0.8953(5) 0.0939(3)
C7_3 C 0.3442(4) 0.7004(5) 0.2390(3)
C8_3 C 0.3445(4) 0.8711(5) 0.1745(3)
H6_3 H 0.3225 0.9445 0.1626
C11_3 C 0.1355(4) 0.7115(5) 0.3680(3)
H9_3 H 0.0827 0.6862 0.3705
C12_3 C 0.1030(4) 0.8761(5) 0.4403(3)
C13_3 C 0.2648(4) 0.6913(5) 0.3265(3)
C14_3 C 0.4097(3) 0.8255(5) 0.1441(3)
C15_3 C 0.1610(3) 0.8063(4) 0.4025(2)
C16_3 C 0.4407(4) 0.7157(5) 0.1623(3)
H10_3 H 0.4842 0.6832 0.1423
C19_3 C 0.2407(3) 0.8386(5) 0.4008(3)
H12_3 H 0.2593 0.8999 0.4255
Zn7 Zn 0.55903(4) 0.90626(5) 0.99124(3)
Zn1 Zn 0.94097(4) 0.90626(5) 0.49124(3)
N1_3 N 0.8693(3) 0.7598(4) 0.4801(2)
C1_3 C 0.7481(4) 0.6638(5) 0.4531(3)
H1_3 H 0.6973 0.6703 0.4367
C9_3 C 0.8515(4) 0.5492(6) 0.4957(4)
H7_3 H 0.8728 0.4763 0.5088
C10_3 C 0.8948(4) 0.6537(6) 0.4988(4)
H8_3 H 0.9457 0.6497 0.5152
C17_3 C 0.7749(4) 0.5547(5) 0.4725(3)
C18_3 C 0.7964(4) 0.7657(5) 0.4576(3)
H11_3 H 0.7771 0.8398 0.4445
Zn2 Zn 0.55903(4) 0.09374(5) 0.49124(3)
O7_2 O 0.9955(3) 0.8500(4) 0.5678(2)
O8_2 O 0.5045(3) 0.1500(4) 0.5678(2)
O9_3 O 0.4652(2) 0.1670(4) 0.4467(2)
O10_2 O 0.0864(3) 0.0061(4) 0.08106(18)
O13_2 O 0.3736(2) 0.0252(3) 0.46142(19)
O16_3 O 0.1847(3) 0.3663(4) 0.2861(2)
N2_3 N 0.6307(3) 0.2402(4) 0.4801(2)
C20_3 C 0.7519(4) 0.3362(5) 0.4531(3)
H13_3 H 0.8027 0.3297 0.4367
C21_3 C 0.0918(4) 0.3460(5) 0.2095(3)
H14_3 H 0.0700 0.4195 0.2213
C22_3 C 0.2077(4) 0.2193(5) 0.3631(3)
H15_3 H 0.1541 0.1978 0.3624
C23_3 C 0.1886(4) 0.1899(5) 0.2218(3)
H16_3 H 0.2322 0.1582 0.2421
C24_3 C 0.3124(4) 0.3473(5) 0.3293(3)
H17_3 H 0.3298 0.4115 0.3058
C25_3 C 0.0551(3) 0.1047(5) 0.0939(3)
C26_3 C 0.1558(4) 0.2996(5) 0.2390(3)
C27_3 C 0.1555(4) 0.1289(5) 0.1745(3)
H18_3 H 0.1775 0.0555 0.1626
C28_3 C 0.6485(4) 0.4508(6) 0.4957(4)
H19_3 H 0.6272 0.5237 0.5088
C29_3 C 0.6052(4) 0.3463(6) 0.4988(4)
H20_3 H 0.5543 0.3503 0.5152
C30_3 C 0.3645(4) 0.2885(5) 0.3680(3)
H21_3 H 0.4173 0.3138 0.3705
C31_3 C 0.3970(4) 0.1239(5) 0.4403(3)
C32_3 C 0.2352(4) 0.3087(5) 0.3265(3)
C33_3 C 0.0903(3) 0.1745(5) 0.1441(3)
C34_3 C 0.3390(3) 0.1937(4) 0.4025(2)
C35_3 C 0.0593(4) 0.2843(5) 0.1623(3)
H22_3 H 0.0158 0.3168 0.1423
C36_3 C 0.7251(4) 0.4453(5) 0.4725(3)
C37_3 C 0.7036(4) 0.2343(5) 0.4576(3)
H23_3 H 0.7229 0.1602 0.4445
C38_3 C 0.2593(3) 0.1614(5) 0.4008(3)
H24_3 H 0.2407 0.1001 0.4255
O6_2 O 0.9955(3) 0.1500(4) 0.0678(2)
Zn8 Zn 0.94097(4) 0.09374(5) 0.99124(3)
O15_2 O 0.1264(2) 0.0252(3) 0.96142(19)
O14_2 O 0.3736(2) 0.9748(3) 0.96142(19)
O12_2 O 0.4136(3) 0.0061(4) 0.58106(18)
O11_2 O 0.0864(3) 0.9939(4) 0.58106(18)
O9_4 O 0.0348(2) 0.1670(4) 0.9467(2)
O16_4 O 0.3153(3) 0.3663(4) 0.7861(2)
C21_4 C 0.4082(4) 0.3460(5) 0.7095(3)
H14_4 H 0.4300 0.4195 0.7213
C22_4 C 0.2923(4) 0.2193(5) 0.8631(3)
H15_4 H 0.3459 0.1978 0.8624
C23_4 C 0.3114(4) 0.1899(5) 0.7218(3)
H16_4 H 0.2678 0.1582 0.7421
C24_4 C 0.1876(4) 0.3473(5) 0.8293(3)
H17_4 H 0.1702 0.4115 0.8058
C25_4 C 0.4449(3) 0.1047(5) 0.5939(3)
C26_4 C 0.3442(4) 0.2996(5) 0.7390(3)
C27_4 C 0.3445(4) 0.1289(5) 0.6745(3)
H18_4 H 0.3225 0.0555 0.6626
C30_4 C 0.1355(4) 0.2885(5) 0.8680(3)
H21_4 H 0.0827 0.3138 0.8705
C31_4 C 0.1030(4) 0.1239(5) 0.9403(3)
C32_4 C 0.2648(4) 0.3087(5) 0.8265(3)
C33_4 C 0.4097(3) 0.1745(5) 0.6441(3)
C34_4 C 0.1610(3) 0.1937(4) 0.9025(2)
C35_4 C 0.4407(4) 0.2843(5) 0.6623(3)
H22_4 H 0.4842 0.3168 0.6423
C38_4 C 0.2407(3) 0.1614(5) 0.9008(3)
H24_4 H 0.2593 0.1001 0.9255
H7_4 H 0.6272 0.4763 0.0088
H8_4 H 0.5543 0.6497 0.0152
H19_4 H 0.8728 0.5237 0.0088
H20_4 H 0.9457 0.3503 0.0152
O2_4 O 0.4652(2) 0.8330(4) 0.9467(2)
O5_4 O 0.1847(3) 0.6337(4) 0.7861(2)
N1_4 N 0.6307(3) 0.7598(4) 0.9801(2)
C1_4 C 0.7519(4) 0.6638(5) 0.9531(3)
H1_4 H 0.8027 0.6703 0.9367
C2_4 C 0.0918(4) 0.6540(5) 0.7095(3)
H2_4 H 0.0700 0.5805 0.7213
C3_4 C 0.2077(4) 0.7807(5) 0.8631(3)
H3_4 H 0.1541 0.8022 0.8624
C4_4 C 0.1886(4) 0.8101(5) 0.7218(3)
H4_4 H 0.2322 0.8418 0.7421
C5_4 C 0.3124(4) 0.6527(5) 0.8293(3)
H5_4 H 0.3298 0.5885 0.8058
C6_4 C 0.0551(3) 0.8953(5) 0.5939(3)
C7_4 C 0.1558(4) 0.7004(5) 0.7390(3)
C8_4 C 0.1555(4) 0.8711(5) 0.6745(3)
H6_4 H 0.1775 0.9445 0.6626
C9_4 C 0.6485(4) 0.5492(6) 0.9957(4)
C10_4 C 0.6052(4) 0.6537(6) 0.9988(4)
C11_4 C 0.3645(4) 0.7115(5) 0.8680(3)
H9_4 H 0.4173 0.6862 0.8705
C12_4 C 0.3970(4) 0.8761(5) 0.9403(3)
C13_4 C 0.2352(4) 0.6913(5) 0.8265(3)
C14_4 C 0.0903(3) 0.8255(5) 0.6441(3)
C15_4 C 0.3390(3) 0.8063(4) 0.9025(2)
C16_4 C 0.0593(4) 0.7157(5) 0.6623(3)
H10_4 H 0.0158 0.6832 0.6423
C17_4 C 0.7251(4) 0.5547(5) 0.9725(3)
C18_4 C 0.7036(4) 0.7657(5) 0.9576(3)
H11_4 H 0.7229 0.8398 0.9445
C19_4 C 0.2593(3) 0.8386(5) 0.9008(3)
H12_4 H 0.2407 0.8999 0.9255
N2_4 N 0.8693(3) 0.2402(4) 0.9801(2)
C20_4 C 0.7481(4) 0.3362(5) 0.9531(3)
H13_4 H 0.6973 0.3297 0.9367
C28_4 C 0.8515(4) 0.4508(6) 0.9957(4)
C29_4 C 0.8948(4) 0.3463(6) 0.9988(4)
C36_4 C 0.7749(4) 0.4453(5) 0.9725(3)
C37_4 C 0.7964(4) 0.2343(5) 0.9576(3)
H23_4 H 0.7771 0.1602 0.9445
loop_
_geom_bond_atom_site_label_1
_geom_bond_atom_site_label_2
_geom_bond_site_symmetry_1
_geom_bond_site_symmetry_2
Zn5 O1 1_555 1_555
Zn3 O2 1_555 1_555
O2 C12 1_555 1_555
O11 C6 1_555 1_555
O4 C12 1_555 1_555
O5 C7 1_555 1_555
N1 Zn3 1_555 1_555
C1 H1 1_555 1_555
C2 H2 1_555 1_555
C3 H3 1_555 1_555
C4 H4 1_555 1_555
C5 H5 1_555 1_555
C6 C14 1_555 1_555
C7 C2 1_555 1_555
C8 C4 1_555 1_555
H6 C8 1_555 1_555
C10 N1 1_555 1_555
C11 C5 1_555 1_555
H9 C11 1_555 1_555
C12 C15 1_555 1_555
C13 O5 1_555 1_555
C14 C8 1_555 1_555
C15 C11 1_555 1_555
C16 C2 1_555 1_555
H10 C16 1_555 1_555
C17 C1 1_555 1_555
C18 N1 1_555 1_555
H11 C18 1_555 1_555
C19 C3 1_555 1_555
H12 C19 1_555 1_555
N2 Zn4 1_555 1_555
C20 H13 1_555 1_555
C29 N2 1_555 1_555
C36 C17 1_555 1_555
C37 N2 1_555 1_555
H23 C37 1_555 1_555
C1 C18 1_555 1_555
C3 C13 1_555 1_555
C4 C7 1_555 1_555
C5 C13 1_555 1_555
C9 C10 1_555 1_555
C9 C17 1_555 1_555
C14 C16 1_555 1_555
C15 C19 1_555 1_555
C20 C36 1_555 1_555
C20 C37 1_555 1_555
C28 C29 1_555 1_555
C28 C36 1_555 1_555
Zn6 O6 1_555 1_555
O6 C25 1_555 1_555
O12 C25 1_555 1_555
O13 C31 1_555 1_555
O16 C26 1_555 1_555
C21 H14 1_555 1_555
C22 H15 1_555 1_555
C23 H16 1_555 1_555
C24 H17 1_555 1_555
C25 C33 1_555 1_555
C26 C21 1_555 1_555
C27 C23 1_555 1_555
H18 C27 1_555 1_555
C30 C24 1_555 1_555
H21 C30 1_555 1_555
C31 O9 1_555 1_555
C32 O16 1_555 1_555
C33 C27 1_555 1_555
C34 C30 1_555 1_555
C35 C21 1_555 1_555
H22 C35 1_555 1_555
C38 C22 1_555 1_555
H24 C38 1_555 1_555
C22 C32 1_555 1_555
C23 C26 1_555 1_555
C24 C32 1_555 1_555
C31 C34 1_555 1_555
C33 C35 1_555 1_555
C34 C38 1_555 1_555
N1_2 Zn5 1_555 1_555
C1_2 H1_2 1_555 1_555
C9_2 H7_2 1_555 1_555
C10_2 N1_2 1_555 1_555
H8_2 C10_2 1_555 1_555
C17_2 C1_2 1_555 1_555
C18_2 N1_2 1_555 1_555
H11_2 C18_2 1_555 1_555
O9_2 Zn6 1_555 1_555
O10 C25_2 1_555 1_555
O15 C31_2 1_555 1_555
O16_2 C26_2 1_555 1_555
N2_2 Zn6 1_555 1_555
C20_2 H13_2 1_555 1_555
C21_2 H14_2 1_555 1_555
C22_2 H15_2 1_555 1_555
C23_2 H16_2 1_555 1_555
C24_2 H17_2 1_555 1_555
C25_2 C33_2 1_555 1_555
C26_2 C21_2 1_555 1_555
C27_2 C23_2 1_555 1_555
H18_2 C27_2 1_555 1_555
C28_2 H19_2 1_555 1_555
C29_2 N2_2 1_555 1_555
H20_2 C29_2 1_555 1_555
C30_2 C24_2 1_555 1_555
H21_2 C30_2 1_555 1_555
C31_2 O9_2 1_555 1_555
C32_2 O16_2 1_555 1_555
C33_2 C27_2 1_555 1_555
C34_2 C30_2 1_555 1_555
C35_2 C21_2 1_555 1_555
H22_2 C35_2 1_555 1_555
C36_2 C17_2 1_555 1_555
C37_2 N2_2 1_555 1_555
H23_2 C37_2 1_555 1_555
C38_2 C22_2 1_555 1_555
H24_2 C38_2 1_555 1_555
C1_2 C18_2 1_555 1_555
C9_2 C10_2 1_555 1_555
C9_2 C17_2 1_555 1_555
C20_2 C36_2 1_555 1_555
C20_2 C37_2 1_555 1_555
C22_2 C32_2 1_555 1_555
C23_2 C26_2 1_555 1_555
C24_2 C32_2 1_555 1_555
C28_2 C29_2 1_555 1_555
C28_2 C36_2 1_555 1_555
C31_2 C34_2 1_555 1_555
C33_2 C35_2 1_555 1_555
C34_2 C38_2 1_555 1_555
O7 C6_2 1_555 1_555
O2_2 C12_2 1_555 1_555
O3 C6_2 1_555 1_555
O14 C12_2 1_555 1_555
O5_2 C7_2 1_555 1_555
C2_2 H2_2 1_555 1_555
C3_2 H3_2 1_555 1_555
C4_2 H4_2 1_555 1_555
C5_2 H5_2 1_555 1_555
C6_2 C14_2 1_555 1_555
C7_2 C2_2 1_555 1_555
C8_2 C4_2 1_555 1_555
H6_2 C8_2 1_555 1_555
C11_2 C5_2 1_555 1_555
H9_2 C11_2 1_555 1_555
C12_2 C15_2 1_555 1_555
C13_2 O5_2 1_555 1_555
C14_2 C8_2 1_555 1_555
C15_2 C11_2 1_555 1_555
C16_2 C2_2 1_555 1_555
H10_2 C16_2 1_555 1_555
C19_2 C3_2 1_555 1_555
H12_2 C19_2 1_555 1_555
C3_2 C13_2 1_555 1_555
C4_2 C7_2 1_555 1_555
C5_2 C13_2 1_555 1_555
C14_2 C16_2 1_555 1_555
C15_2 C19_2 1_555 1_555
O1_2 C6_3 1_555 1_555
O2_3 C12_3 1_555 1_555
O3_2 C6_3 1_555 1_555
O4_2 C12_3 1_555 1_555
O5_3 C7_3 1_555 1_555
C2_3 H2_3 1_555 1_555
C3_3 H3_3 1_555 1_555
C4_3 H4_3 1_555 1_555
C5_3 H5_3 1_555 1_555
C6_3 C14_3 1_555 1_555
C7_3 C2_3 1_555 1_555
C8_3 C4_3 1_555 1_555
H6_3 C8_3 1_555 1_555
C11_3 C5_3 1_555 1_555
H9_3 C11_3 1_555 1_555
C12_3 C15_3 1_555 1_555
C13_3 O5_3 1_555 1_555
C14_3 C8_3 1_555 1_555
C15_3 C11_3 1_555 1_555
C16_3 C2_3 1_555 1_555
H10_3 C16_3 1_555 1_555
C19_3 C3_3 1_555 1_555
H12_3 C19_3 1_555 1_555
C3_3 C13_3 1_555 1_555
C4_3 C7_3 1_555 1_555
C5_3 C13_3 1_555 1_555
C14_3 C16_3 1_555 1_555
C15_3 C19_3 1_555 1_555
N1_3 Zn1 1_555 1_555
C1_3 H1_3 1_555 1_555
C9_3 H7_3 1_555 1_555
C10_3 N1_3 1_555 1_555
H8_3 C10_3 1_555 1_555
C17_3 C1_3 1_555 1_555
C18_3 N1_3 1_555 1_555
H11_3 C18_3 1_555 1_555
Zn2 O8_2 1_555 1_555
O7_2 Zn1 1_555 1_555
O9_3 Zn2 1_555 1_555
O10_2 C25_3 1_555 1_555
O13_2 C31_3 1_555 1_555
O16_3 C26_3 1_555 1_555
N2_3 Zn2 1_555 1_555
C20_3 H13_3 1_555 1_555
C21_3 H14_3 1_555 1_555
C22_3 H15_3 1_555 1_555
C23_3 H16_3 1_555 1_555
C24_3 H17_3 1_555 1_555
C25_3 C33_3 1_555 1_555
C26_3 C21_3 1_555 1_555
C27_3 C23_3 1_555 1_555
H18_3 C27_3 1_555 1_555
C28_3 H19_3 1_555 1_555
C29_3 N2_3 1_555 1_555
H20_3 C29_3 1_555 1_555
C30_3 C24_3 1_555 1_555
H21_3 C30_3 1_555 1_555
C31_3 O9_3 1_555 1_555
C32_3 O16_3 1_555 1_555
C33_3 C27_3 1_555 1_555
C34_3 C30_3 1_555 1_555
C35_3 C21_3 1_555 1_555
H22_3 C35_3 1_555 1_555
C36_3 C17_3 1_555 1_555
C37_3 N2_3 1_555 1_555
H23_3 C37_3 1_555 1_555
C38_3 C22_3 1_555 1_555
H24_3 C38_3 1_555 1_555
C1_3 C18_3 1_555 1_555
C9_3 C10_3 1_555 1_555
C9_3 C17_3 1_555 1_555
C20_3 C36_3 1_555 1_555
C20_3 C37_3 1_555 1_555
C22_3 C32_3 1_555 1_555
C23_3 C26_3 1_555 1_555
C24_3 C32_3 1_555 1_555
C28_3 C29_3 1_555 1_555
C28_3 C36_3 1_555 1_555
C31_3 C34_3 1_555 1_555
C33_3 C35_3 1_555 1_555
C34_3 C38_3 1_555 1_555
O8_2 C25_4 1_555 1_555
O12_2 C25_4 1_555 1_555
O15_2 C31_4 1_555 1_555
O16_4 C26_4 1_555 1_555
C21_4 H14_4 1_555 1_555
C22_4 H15_4 1_555 1_555
C23_4 H16_4 1_555 1_555
C24_4 H17_4 1_555 1_555
C25_4 C33_4 1_555 1_555
C26_4 C21_4 1_555 1_555
C27_4 C23_4 1_555 1_555
H18_4 C27_4 1_555 1_555
C30_4 C24_4 1_555 1_555
H21_4 C30_4 1_555 1_555
C31_4 O9_4 1_555 1_555
C32_4 O16_4 1_555 1_555
C33_4 C27_4 1_555 1_555
C34_4 C30_4 1_555 1_555
C35_4 C21_4 1_555 1_555
H22_4 C35_4 1_555 1_555
C38_4 C22_4 1_555 1_555
H24_4 C38_4 1_555 1_555
C22_4 C32_4 1_555 1_555
C23_4 C26_4 1_555 1_555
C24_4 C32_4 1_555 1_555
C31_4 C34_4 1_555 1_555
C33_4 C35_4 1_555 1_555
C34_4 C38_4 1_555 1_555
Zn7 O2_4 1_555 1_555
O2_4 C12_4 1_555 1_555
O11_2 C6_4 1_555 1_555
O14_2 C12_4 1_555 1_555
O5_4 C7_4 1_555 1_555
N1_4 Zn7 1_555 1_555
C1_4 H1_4 1_555 1_555
C2_4 H2_4 1_555 1_555
C3_4 H3_4 1_555 1_555
C4_4 H4_4 1_555 1_555
C5_4 H5_4 1_555 1_555
C6_4 C14_4 1_555 1_555
C7_4 C2_4 1_555 1_555
C8_4 C4_4 1_555 1_555
H6_4 C8_4 1_555 1_555
C10_4 N1_4 1_555 1_555
C11_4 C5_4 1_555 1_555
H9_4 C11_4 1_555 1_555
C12_4 C15_4 1_555 1_555
C13_4 O5_4 1_555 1_555
C14_4 C8_4 1_555 1_555
C15_4 C11_4 1_555 1_555
C16_4 C2_4 1_555 1_555
H10_4 C16_4 1_555 1_555
C17_4 C1_4 1_555 1_555
C18_4 N1_4 1_555 1_555
H11_4 C18_4 1_555 1_555
C19_4 C3_4 1_555 1_555
H12_4 C19_4 1_555 1_555
N2_4 Zn8 1_555 1_555
C20_4 H13_4 1_555 1_555
C29_4 N2_4 1_555 1_555
C36_4 C17_4 1_555 1_555
C37_4 N2_4 1_555 1_555
H23_4 C37_4 1_555 1_555
C1_4 C18_4 1_555 1_555
C3_4 C13_4 1_555 1_555
C4_4 C7_4 1_555 1_555
C5_4 C13_4 1_555 1_555
C9_4 C10_4 1_555 1_555
C9_4 C17_4 1_555 1_555
C14_4 C16_4 1_555 1_555
C15_4 C19_4 1_555 1_555
C20_4 C36_4 1_555 1_555
C20_4 C37_4 1_555 1_555
C28_4 C29_4 1_555 1_555
C28_4 C36_4 1_555 1_555

#END
