
###############################################################################
#
# This file contains modified crystal structure data generated from the
# MOF subset of the Cambridge Structural Database (CSD) v543 
# hosted by the Cambridge Crystallographic Data Centre (CCDC).
#
# This work is licensed under the Creative Commons
# Attribution-NonCommercial-ShareAlike 4.0 International License.
# To view a copy of this license, visit
# http://creativecommons.org/licenses/by-nc-sa/4.0/
# or send a letter to
# Creative Commons, PO Box 1866, Mountain View, CA 94042, USA.
#
# CIF created using the CSD Python API on 29 September 2022
# The structure has been converted into the P1 space group
# The structure has a 3D framework
# The original CSD entry HEDTER is in the monoclinic crystal system
# The framework has been calculated to contain at least 10.0% void space
# The void calculation uses a probe of radius 1.32A, grid spacing 0.4
#
###############################################################################

data_HEDTER
_chemical_formula_moiety         '(C164 H144 N16 Ni4 O20)n'
_symmetry_cell_setting           triclinic
_symmetry_space_group_name_H-M   'P 1'
_symmetry_Int_Tables_number      1
_space_group_name_Hall           'P 1'
loop_
_symmetry_equiv_pos_site_id
_symmetry_equiv_pos_as_xyz
1 x,y,z
_cell_length_a                   17.005(2)
_cell_length_b                   10.5930(13)
_cell_length_c                   24.0013(19)
_cell_angle_alpha                90
_cell_angle_beta                 91.215(3)
_cell_angle_gamma                90
_cell_volume                     4322.48
loop_
_atom_site_label
_atom_site_type_symbol
_atom_site_fract_x
_atom_site_fract_y
_atom_site_fract_z
C12 C 0.14729(19) 0.7363(3) 0.22596(14)
H9 H 0.1833 0.7823 0.2475
C13 C 0.08548(17) 0.6800(3) 0.25143(13)
H10 H 0.0819 0.6839 0.2900
C14 C 0.02971(17) 0.6192(3) 0.22147(12)
C15 C 0.03760(19) 0.6107(3) 0.16342(13)
C16 C 0.10188(17) 0.6633(3) 0.13817(13)
H12 H 0.1072 0.6555 0.0998
N2 N 0.15815(13) 0.7271(2) 0.16900(10)
Ni7 Ni 0.249932(19) 0.81313(3) 0.122086(12)
C2 C 0.75656(18) 0.0472(3) 0.53223(12)
H2 H 0.7609 0.1321 0.5416
C3 C 0.74954(15) 0.0134(3) 0.47686(11)
C6 C 0.75144(16) 0.1152(3) 0.43332(12)
C7 C 0.81005(16) 0.2064(3) 0.43247(12)
H5 H 0.8502 0.2039 0.4593
C8 C 0.81024(17) 0.3003(3) 0.39300(11)
H6 H 0.8501 0.3604 0.3937
C9 C 0.75137(15) 0.3062(3) 0.35209(12)
C10 C 0.69288(16) 0.2144(3) 0.35231(12)
H7 H 0.6530 0.2170 0.3252
C11 C 0.69264(16) 0.1190(3) 0.39186(10)
H8 H 0.6534 0.0578 0.3908
H11 H 0.9993 0.5695 0.1420
C17 C 0.96083(16) 0.5606(3) 0.25132(13)
C18 C 0.94512(17) 0.4337(3) 0.24315(12)
H13 H 0.9800 0.3837 0.2236
C19 C 0.87642(17) 0.3809(3) 0.26455(12)
H14 H 0.8659 0.2956 0.2592
C20 C 0.82357(14) 0.4555(3) 0.29392(10)
C21 C 0.83944(17) 0.5832(3) 0.30201(12)
H15 H 0.8045 0.6335 0.3214
C22 C 0.90826(16) 0.6354(3) 0.28084(12)
H16 H 0.9191 0.7206 0.2864
C23 C 0.41165(16) 0.6984(3) 0.13232(11)
H17 H 0.4112 0.7166 0.0944
C24 C 0.47397(17) 0.6473(3) 0.15565(12)
H18 H 0.5177 0.6316 0.1341
C25 C 0.47681(15) 0.6146(3) 0.21371(11)
C26 C 0.40942(16) 0.6425(3) 0.24418(12)
H19 H 0.4084 0.6229 0.2819
C27 C 0.34634(16) 0.6972(3) 0.21960(12)
H20 H 0.3026 0.7157 0.2408
C28 C 0.54788(15) 0.5534(3) 0.23858(11)
C29 C 0.61839(16) 0.5267(3) 0.20804(11)
H21 H 0.6188 0.5445 0.1701
C30 C 0.68272(16) 0.4777(3) 0.23208(12)
H22 H 0.7274 0.4632 0.2114
C31 C 0.68217(15) 0.4486(3) 0.28837(11)
C32 C 0.61496(16) 0.4737(3) 0.32013(12)
H23 H 0.6154 0.4555 0.3580
C33 C 0.54884(15) 0.5251(3) 0.29512(11)
H24 H 0.5046 0.5411 0.3161
N3 N 0.34532(12) 0.7262(2) 0.16389(9)
N4 N 0.75227(12) 0.4038(2) 0.31269(9)
C42 C 0.25723(18) 0.5419(3) 0.07388(12)
H37 H 0.2630 0.5174 0.1109
C43 C 0.25656(18) 0.4528(3) 0.03223(12)
H38 H 0.2609 0.3679 0.0416
C46 C 0.24287(18) 0.7035(3) 0.00484(11)
C75 C 0.12001(16) 0.9876(3) 0.08617(11)
H64 H 0.0149 0.8348 0.0222
N5 N 0.24920(13) 0.6692(2) 0.06029(9)
O6 O 0.16264(11) 0.8962(2) 0.07592(7)
O9 O 0.33119(11) 0.90267(19) 0.07282(8)
O11 O 0.25128(11) 0.96259(18) 0.18012(7)
C35 C 0.91993(18) 0.9711(3) 0.01407(12)
H25 H 0.8727 0.9203 0.0168
C78 C 0.99414(17) 0.9029(3) 0.04450(13)
H65 H 0.9811 0.8713 0.0811
C79 C 0.37307(17) 0.9947(3) 0.08284(12)
H67 H 0.5238 0.9172 0.0697
C39 C 0.01771(13) 0.4945(3) 0.55990(12)
H30 H 0.0270 0.4451 0.5934
H31 H 0.0238 0.5828 0.5697
C79_2 C 0.12693(17) 0.4947(3) 0.41716(12)
C81 C 0.06376(13) 0.5273(3) 0.46041(11)
H68 H 0.0684 0.6181 0.4675
C82 C 0.07843(17) 0.4603(3) 0.51793(11)
H69 H 0.1301 0.4836 0.5325
H70 H 0.0780 0.3696 0.5124
Ni5 Ni 0.250068(19) 0.31313(3) 0.377914(12)
O8 O 0.16881(11) 0.40267(19) 0.42718(8)
O10 O 0.12925(11) 0.56367(19) 0.37461(8)
C1 C 0.75723(18) 0.9581(3) 0.57388(12)
H1 H 0.7630 0.9826 0.6109
C4 C 0.74374(17) 0.8855(3) 0.46324(12)
H3 H 0.7405 0.8606 0.4261
C5 C 0.74287(18) 0.7965(3) 0.50484(11)
H4 H 0.7379 0.7116 0.4955
C34 C 0.62001(16) 0.5124(3) 0.58617(11)
C35_2 C 0.58007(18) 0.4711(3) 0.48593(12)
H25_2 H 0.6273 0.4203 0.4832
H26 H 0.5896 0.5538 0.4702
C36 C 0.55263(16) 0.4812(3) 0.54814(11)
H27 H 0.5258 0.4042 0.5599
C37 C 0.49414(17) 0.5971(3) 0.54450(13)
H28 H 0.5149 0.6652 0.5222
H29 H 0.4811 0.6287 0.5811
C38 C 0.87307(17) 0.5053(3) 0.58284(12)
C40 C 0.93624(13) 0.4727(3) 0.53959(11)
H32 H 0.9316 0.3819 0.5325
C41 C 0.92157(17) 0.5397(3) 0.48207(11)
H33 H 0.8699 0.5164 0.4675
H34 H 0.9220 0.6304 0.4876
N1 N 0.74920(13) 0.8308(2) 0.56029(9)
Ni1 Ni 0.749932(19) 0.68687(3) 0.622086(12)
O1 O 0.66264(11) 0.6038(2) 0.57592(7)
O2 O 0.62948(11) 0.43740(19) 0.62705(8)
O3 O 0.83119(11) 0.59733(19) 0.57282(8)
O4 O 0.87075(11) 0.43633(19) 0.62539(8)
O5 O 0.75128(11) 0.53741(18) 0.68012(7)
H35 H 0.7131 0.4752 0.6696
H36 H 0.8026 0.4997 0.6807
C42_2 C 0.24277(18) 0.0419(3) 0.42612(12)
H37_2 H 0.2370 0.0174 0.3891
C45 C 0.25626(17) 0.1145(3) 0.53676(12)
H39 H 0.2595 0.1394 0.5739
C46_2 C 0.25713(18) 0.2035(3) 0.49516(11)
H40 H 0.2621 0.2884 0.5045
C75_2 C 0.37999(16) 0.4876(3) 0.41383(11)
C76 C 0.41993(18) 0.5289(3) 0.51407(12)
H61 H 0.3727 0.5797 0.5168
H62 H 0.4104 0.4462 0.5298
C77 C 0.44737(16) 0.5188(3) 0.45186(11)
H63 H 0.4742 0.5958 0.4401
C78_2 C 0.50586(17) 0.4029(3) 0.45550(13)
H64_2 H 0.4851 0.3348 0.4778
H65_2 H 0.5189 0.3713 0.4189
C80 C 0.98229(13) 0.5055(3) 0.44010(12)
H66 H 0.9730 0.5549 0.4066
H67_2 H 0.9762 0.4172 0.4303
N5_2 N 0.25080(13) 0.1692(2) 0.43971(9)
N7 N 0.34185(13) 0.2271(2) 0.33100(10)
N8 N 0.65815(13) 0.7729(2) 0.66900(10)
N10 N 0.15468(12) 0.2262(2) 0.33611(9)
N11 N 0.84532(12) 0.7738(2) 0.66389(9)
O6_2 O 0.33736(11) 0.3962(2) 0.42408(7)
O7 O 0.37052(11) 0.56260(19) 0.37295(8)
O11_2 O 0.24872(11) 0.46259(18) 0.31988(7)
H71 H 0.2869 0.5248 0.3304
H72 H 0.1974 0.5003 0.3193
C23_2 C 0.08835(16) 0.1984(3) 0.36768(11)
H17_2 H 0.0888 0.2166 0.4056
C24_2 C 0.02603(17) 0.1473(3) 0.34435(12)
C25_2 C 0.02319(15) 0.1146(3) 0.28629(11)
C26_2 C 0.09058(16) 0.1425(3) 0.25582(12)
H19_2 H 0.0916 0.1229 0.2181
C27_2 C 0.15366(16) 0.1972(3) 0.28040(12)
H20_2 H 0.1974 0.2157 0.2592
C53 C 0.64729(19) 0.7637(3) 0.72596(14)
H45 H 0.6833 0.7177 0.7475
C54 C 0.58548(17) 0.8200(3) 0.75143(13)
H46 H 0.5819 0.8161 0.7900
C55 C 0.52971(17) 0.8808(3) 0.72147(12)
C56 C 0.53760(19) 0.8893(3) 0.66342(13)
H47 H 0.4993 0.9305 0.6420
C57 C 0.60188(17) 0.8367(3) 0.63817(13)
H48 H 0.6072 0.8445 0.5998
C58 C 0.46083(16) 0.9394(3) 0.75132(13)
C62 C 0.33944(17) 0.9168(3) 0.80201(12)
H51 H 0.3045 0.8665 0.8214
C63 C 0.40826(16) 0.8646(3) 0.78084(12)
H52 H 0.4191 0.7794 0.7864
H54 H 0.0177 0.8684 0.6341
C69 C 0.04788(15) 0.9466(3) 0.73858(11)
C70 C 0.11839(16) 0.9733(3) 0.70804(11)
H57 H 0.1188 0.9555 0.6701
C74 C 0.04884(15) 0.9749(3) 0.79512(11)
H60 H 0.0046 0.9589 0.8161
C12_2 C 0.35271(19) 0.2363(3) 0.27404(14)
H9_2 H 0.3167 0.2823 0.2525
C13_2 C 0.41452(17) 0.1800(3) 0.24857(13)
H10_2 H 0.4181 0.1839 0.2100
C14_2 C 0.47029(17) 0.1192(3) 0.27853(12)
C15_2 C 0.46240(19) 0.1107(3) 0.33658(13)
H11_2 H 0.5007 0.0695 0.3580
C16_2 C 0.39812(17) 0.1633(3) 0.36183(13)
H12_2 H 0.3928 0.1555 0.4002
C17_2 C 0.53917(16) 0.0606(3) 0.24868(13)
C21_2 C 0.66056(17) 0.0832(3) 0.19799(12)
H15_2 H 0.6955 0.1335 0.1786
C22_2 C 0.59174(16) 0.1354(3) 0.21916(12)
H16_2 H 0.5809 0.2206 0.2136
H18_2 H 0.9823 0.1316 0.3659
C28_2 C 0.95212(15) 0.0534(3) 0.26142(11)
C29_2 C 0.88161(16) 0.0267(3) 0.29196(11)
H21_2 H 0.8812 0.0445 0.3299
C33_2 C 0.95116(15) 0.0251(3) 0.20488(11)
H24_2 H 0.9954 0.0411 0.1839
C64 C 0.91165(16) 0.8016(3) 0.63232(11)
H53 H 0.9112 0.7834 0.5944
C65 C 0.97397(17) 0.8527(3) 0.65565(12)
C66 C 0.97681(15) 0.8854(3) 0.71371(11)
C67 C 0.90942(16) 0.8575(3) 0.74418(12)
H55 H 0.9084 0.8771 0.7819
C68 C 0.84634(16) 0.8028(3) 0.71960(12)
H56 H 0.8026 0.7843 0.7408
C43_2 C 0.24344(18) 0.9528(3) 0.46777(12)
H38_2 H 0.2391 0.8679 0.4584
C44 C 0.25046(15) 0.9866(3) 0.52314(11)
C47 C 0.24856(16) 0.8848(3) 0.56668(12)
C48 C 0.18995(16) 0.7936(3) 0.56753(12)
H41 H 0.1498 0.7961 0.5407
C49 C 0.18976(17) 0.6997(3) 0.60700(11)
H42 H 0.1499 0.6396 0.6063
C50 C 0.24863(15) 0.6938(3) 0.64791(12)
C51 C 0.30712(16) 0.7856(3) 0.64769(12)
H43 H 0.3470 0.7830 0.6748
C52 C 0.30736(16) 0.8810(3) 0.60814(10)
H44 H 0.3466 0.9422 0.6092
H47_2 H 0.0007 0.4305 0.8580
C58_2 C 0.03917(16) 0.4394(3) 0.74868(13)
C59 C 0.05488(17) 0.5663(3) 0.75685(12)
H49 H 0.0200 0.6163 0.7764
C60 C 0.12358(17) 0.6191(3) 0.73545(12)
H50 H 0.1341 0.7044 0.7408
C61 C 0.17643(14) 0.5445(3) 0.70608(10)
C62_2 C 0.16056(17) 0.4168(3) 0.69799(12)
H51_2 H 0.1955 0.3665 0.6786
C63_2 C 0.09174(16) 0.3646(3) 0.71916(12)
H52_2 H 0.0809 0.2794 0.7136
C64_2 C 0.58835(16) 0.3016(3) 0.86768(11)
H53_2 H 0.5888 0.2834 0.9056
C65_2 C 0.52603(17) 0.3527(3) 0.84435(12)
H54_2 H 0.4823 0.3684 0.8659
C66_2 C 0.52319(15) 0.3854(3) 0.78629(11)
C67_2 C 0.59058(16) 0.3575(3) 0.75582(12)
H55_2 H 0.5916 0.3771 0.7181
C68_2 C 0.65366(16) 0.3028(3) 0.78040(12)
H56_2 H 0.6974 0.2843 0.7592
C69_2 C 0.45212(15) 0.4466(3) 0.76142(11)
C70_2 C 0.38161(16) 0.4733(3) 0.79196(11)
H57_2 H 0.3812 0.4555 0.8299
C71 C 0.31728(16) 0.5223(3) 0.76792(12)
H58 H 0.2726 0.5368 0.7886
C72 C 0.31783(15) 0.5514(3) 0.71163(11)
C73 C 0.38504(16) 0.5263(3) 0.67987(12)
H59 H 0.3846 0.5445 0.6420
C74_2 C 0.45116(15) 0.4749(3) 0.70488(11)
H60_2 H 0.4954 0.4589 0.6839
N9 N 0.65468(12) 0.2738(2) 0.83611(9)
N12 N 0.24773(12) 0.5962(2) 0.68731(9)
Ni4 Ni 0.750068(19) 0.18687(3) 0.877914(12)
C53_2 C 0.85271(19) 0.2637(3) 0.77404(14)
H45_2 H 0.8167 0.2177 0.7525
C54_2 C 0.91452(17) 0.3200(3) 0.74857(13)
H46_2 H 0.9181 0.3161 0.7100
C55_2 C 0.97029(17) 0.3808(3) 0.77853(12)
C56_2 C 0.96240(19) 0.3893(3) 0.83658(13)
C57_2 C 0.89812(17) 0.3367(3) 0.86183(13)
H48_2 H 0.8928 0.3445 0.9002
N6 N 0.84185(13) 0.2729(2) 0.83100(10)
C37_2 C 0.00586(17) 0.0971(3) 0.95550(13)
H29_2 H 0.0189 0.1287 0.9189
C76_2 C 0.08007(18) 0.0289(3) 0.98593(12)
H61_2 H 0.1273 0.0797 0.9832
C1_2 C 0.74277(18) 0.4581(3) 0.92612(12)
H1_2 H 0.7370 0.4826 0.8891
C2_2 C 0.74344(18) 0.5472(3) 0.96777(12)
H2_2 H 0.7391 0.6321 0.9584
C5_2 C 0.75713(18) 0.2965(3) 0.99516(11)
C34_2 C 0.87999(16) 0.0124(3) 0.91383(11)
H28_2 H 0.9851 0.1652 0.9778
C38_2 C 0.62693(17) 0.0053(3) 0.91716(12)
H31_2 H 0.4762 0.0828 0.9303
N1_2 N 0.75080(13) 0.3308(2) 0.93971(9)
O1_2 O 0.83736(11) 0.1038(2) 0.92408(7)
O3_2 O 0.66881(11) 0.09733(19) 0.92718(8)
O5_2 O 0.74872(11) 0.03741(18) 0.81988(7)
C77_2 C 0.05263(16) 0.0188(3) 0.04814(11)
H63_2 H 0.0258 0.0958 0.0599
O7_2 O 0.12948(11) 0.06260(19) 0.12705(8)
H71_2 H 0.2131 0.0248 0.1696
H72_2 H 0.3026 0.0003 0.1807
C3_2 C 0.75046(15) 0.5134(3) 0.02314(11)
C4_2 C 0.75626(17) 0.3855(3) 0.03676(12)
H3_2 H 0.7595 0.3606 0.0739
H4_2 H 0.7621 0.2116 0.0045
C6_2 C 0.74856(16) 0.6152(3) 0.06668(12)
C7_2 C 0.68995(16) 0.7064(3) 0.06753(12)
H5_2 H 0.6498 0.7039 0.0407
C8_2 C 0.68976(17) 0.8003(3) 0.10700(11)
H6_2 H 0.6499 0.8604 0.1063
C9_2 C 0.74863(15) 0.8062(3) 0.14791(12)
C10_2 C 0.80712(16) 0.7144(3) 0.14769(12)
H7_2 H 0.8470 0.7170 0.1748
C11_2 C 0.80736(16) 0.6190(3) 0.10814(10)
H8_2 H 0.8466 0.5578 0.1092
C18_2 C 0.55488(17) 0.9337(3) 0.25685(12)
H13_2 H 0.5200 0.8837 0.2764
C19_2 C 0.62358(17) 0.8809(3) 0.23545(12)
H14_2 H 0.6341 0.7956 0.2408
C20_2 C 0.67643(14) 0.9555(3) 0.20608(10)
C30_2 C 0.81728(16) 0.9777(3) 0.26792(12)
H22_2 H 0.7726 0.9632 0.2886
C31_2 C 0.81783(15) 0.9486(3) 0.21163(11)
C32_2 C 0.88504(16) 0.9737(3) 0.17987(12)
H23_2 H 0.8846 0.9555 0.1420
H26_2 H 0.9104 0.0538 0.0298
C41_2 C 0.57843(17) 0.0397(3) 0.01793(11)
H33_2 H 0.6301 0.0164 0.0325
H34_2 H 0.5780 0.1304 0.0124
N4_2 N 0.74773(12) 0.9038(2) 0.18731(9)
C80_2 C 0.51771(13) 0.0055(3) 0.05990(12)
H66_2 H 0.5270 0.0549 0.0934
C81_2 C 0.43624(13) 0.0273(3) 0.03959(11)
H68_2 H 0.4316 0.1181 0.0325
O10_2 O 0.37075(11) 0.06367(19) 0.12539(8)
C44_2 C 0.24954(15) 0.4866(3) 0.97686(11)
C45_2 C 0.24374(17) 0.6145(3) 0.96324(12)
H39_2 H 0.2405 0.6394 0.9261
H40_2 H 0.2379 0.7884 0.9955
C47_2 C 0.25144(16) 0.3848(3) 0.93332(12)
C48_2 C 0.31005(16) 0.2936(3) 0.93247(12)
H41_2 H 0.3502 0.2961 0.9593
C49_2 C 0.31024(17) 0.1997(3) 0.89300(11)
H42_2 H 0.3501 0.1396 0.8937
C50_2 C 0.25137(15) 0.1938(3) 0.85209(12)
C51_2 C 0.19288(16) 0.2856(3) 0.85231(12)
H43_2 H 0.1530 0.2830 0.8252
C52_2 C 0.19264(16) 0.3810(3) 0.89186(10)
H44_2 H 0.1534 0.4422 0.8908
C59_2 C 0.44512(17) 0.0663(3) 0.74315(12)
H49_2 H 0.4800 0.1163 0.7236
C60_2 C 0.37642(17) 0.1191(3) 0.76455(12)
H50_2 H 0.3659 0.2044 0.7592
C61_2 C 0.32357(14) 0.0445(3) 0.79392(10)
C71_2 C 0.18272(16) 0.0223(3) 0.73208(12)
H58_2 H 0.2274 0.0368 0.7114
C72_2 C 0.18217(15) 0.0514(3) 0.78837(11)
C73_2 C 0.11496(16) 0.0263(3) 0.82013(12)
H59_2 H 0.1154 0.0445 0.8580
H62_2 H 0.0896 0.9462 0.9702
N12_2 N 0.25227(12) 0.0962(2) 0.81269(9)
C36_2 C 0.94737(16) 0.9812(3) 0.95186(11)
H27_2 H 0.9742 0.9042 0.9401
C39_2 C 0.48229(13) 0.9945(3) 0.94010(12)
H30_2 H 0.4730 0.9451 0.9066
C40_2 C 0.56376(13) 0.9727(3) 0.96041(11)
H32_2 H 0.5684 0.8819 0.9675
O2_2 O 0.87052(11) 0.93740(19) 0.87295(8)
O4_2 O 0.62925(11) 0.93633(19) 0.87461(8)
H35_2 H 0.7869 0.9752 0.8304
H36_2 H 0.6974 0.9997 0.8193
C82_2 C 0.42157(17) 0.9603(3) 0.98207(11)
H69_2 H 0.3699 0.9836 0.9675
H70_2 H 0.4220 0.8696 0.9876
loop_
_geom_bond_atom_site_label_1
_geom_bond_atom_site_label_2
_geom_bond_site_symmetry_1
_geom_bond_site_symmetry_2
C12 H9 1_555 1_555
C13 C12 1_555 1_555
H10 C13 1_555 1_555
C14 C13 1_555 1_555
C15 C14 1_555 1_555
C16 C15 1_555 1_555
H12 C16 1_555 1_555
N2 C12 1_555 1_555
Ni7 N2 1_555 1_555
C16 N2 1_555 1_555
H2 C2 1_555 1_555
C3 C2 1_555 1_555
C6 C3 1_555 1_555
C7 C6 1_555 1_555
H5 C7 1_555 1_555
C8 C7 1_555 1_555
H6 C8 1_555 1_555
C9 C8 1_555 1_555
C10 C9 1_555 1_555
H7 C10 1_555 1_555
C11 C6 1_555 1_555
H8 C11 1_555 1_555
C18 C17 1_555 1_555
H13 C18 1_555 1_555
C19 C18 1_555 1_555
H14 C19 1_555 1_555
C20 C19 1_555 1_555
C21 C20 1_555 1_555
H15 C21 1_555 1_555
C22 C17 1_555 1_555
H16 C22 1_555 1_555
C23 H17 1_555 1_555
C24 C23 1_555 1_555
H18 C24 1_555 1_555
C25 C24 1_555 1_555
C26 C25 1_555 1_555
H19 C26 1_555 1_555
C27 C26 1_555 1_555
H20 C27 1_555 1_555
C28 C25 1_555 1_555
C29 C28 1_555 1_555
H21 C29 1_555 1_555
C30 C29 1_555 1_555
H22 C30 1_555 1_555
C31 C30 1_555 1_555
C32 C31 1_555 1_555
H23 C32 1_555 1_555
C33 C28 1_555 1_555
H24 C33 1_555 1_555
N3 C23 1_555 1_555
N4 C9 1_555 1_555
Ni7 N3 1_555 1_555
C10 C11 1_555 1_555
C20 N4 1_555 1_555
C21 C22 1_555 1_555
C27 N3 1_555 1_555
C31 N4 1_555 1_555
C32 C33 1_555 1_555
C42 H37 1_555 1_555
C43 C42 1_555 1_555
H38 C43 1_555 1_555
N5 C42 1_555 1_555
Ni7 N5 1_555 1_555
O6 C75 1_555 1_555
O9 Ni7 1_555 1_555
O11 Ni7 1_555 1_555
C46 N5 1_555 1_555
Ni7 O6 1_555 1_555
C35 H25 1_555 1_555
C78 C35 1_555 1_555
H65 C78 1_555 1_555
O9 C79 1_555 1_555
C39 H30 1_555 1_555
H31 C39 1_555 1_555
C79_2 C81 1_555 1_555
H68 C81 1_555 1_555
C82 C39 1_555 1_555
H69 C82 1_555 1_555
H70 C82 1_555 1_555
Ni5 O8 1_555 1_555
O8 C79_2 1_555 1_555
O10 C79_2 1_555 1_555
C81 C82 1_555 1_555
C1 H1 1_555 1_555
H3 C4 1_555 1_555
C5 C4 1_555 1_555
H4 C5 1_555 1_555
C34 C36 1_555 1_555
C35_2 H25_2 1_555 1_555
H26 C35_2 1_555 1_555
C36 C35_2 1_555 1_555
H27 C36 1_555 1_555
C37 C36 1_555 1_555
H28 C37 1_555 1_555
H29 C37 1_555 1_555
C38 C40 1_555 1_555
H32 C40 1_555 1_555
C41 C40 1_555 1_555
H33 C41 1_555 1_555
H34 C41 1_555 1_555
N1 C1 1_555 1_555
Ni1 N1 1_555 1_555
O1 C34 1_555 1_555
O2 C34 1_555 1_555
O3 C38 1_555 1_555
O4 C38 1_555 1_555
O5 Ni1 1_555 1_555
H35 O5 1_555 1_555
H36 O5 1_555 1_555
C42_2 H37_2 1_555 1_555
H39 C45 1_555 1_555
C46_2 C45 1_555 1_555
H40 C46_2 1_555 1_555
C75_2 C77 1_555 1_555
C76 C37 1_555 1_555
H61 C76 1_555 1_555
H62 C76 1_555 1_555
C77 C76 1_555 1_555
H63 C77 1_555 1_555
C78_2 C35_2 1_555 1_555
H64_2 C78_2 1_555 1_555
H65_2 C78_2 1_555 1_555
C80 C41 1_555 1_555
H66 C80 1_555 1_555
H67_2 C80 1_555 1_555
N5_2 C42_2 1_555 1_555
N7 Ni5 1_555 1_555
N8 Ni1 1_555 1_555
N10 Ni5 1_555 1_555
N11 Ni1 1_555 1_555
Ni5 N5_2 1_555 1_555
O6_2 C75_2 1_555 1_555
O7 C75_2 1_555 1_555
O11_2 Ni5 1_555 1_555
H71 O11_2 1_555 1_555
H72 O11_2 1_555 1_555
C5 N1 1_555 1_555
Ni1 O1 1_555 1_555
Ni1 O3 1_555 1_555
C46_2 N5_2 1_555 1_555
C77 C78_2 1_555 1_555
Ni5 O6_2 1_555 1_555
C23_2 H17_2 1_555 1_555
C24_2 C23_2 1_555 1_555
C25_2 C24_2 1_555 1_555
C26_2 C25_2 1_555 1_555
H19_2 C26_2 1_555 1_555
C27_2 C26_2 1_555 1_555
H20_2 C27_2 1_555 1_555
N10 C23_2 1_555 1_555
C27_2 N10 1_555 1_555
C53 H45 1_555 1_555
C54 C53 1_555 1_555
H46 C54 1_555 1_555
C55 C54 1_555 1_555
C56 C55 1_555 1_555
H47 C56 1_555 1_555
C57 C56 1_555 1_555
H48 C57 1_555 1_555
C58 C55 1_555 1_555
H51 C62 1_555 1_555
C63 C58 1_555 1_555
H52 C63 1_555 1_555
C70 C69 1_555 1_555
H57 C70 1_555 1_555
C74 C69 1_555 1_555
H60 C74 1_555 1_555
N8 C53 1_555 1_555
C57 N8 1_555 1_555
C62 C63 1_555 1_555
C12_2 H9_2 1_555 1_555
C13_2 C12_2 1_555 1_555
H10_2 C13_2 1_555 1_555
C14_2 C13_2 1_555 1_555
C15_2 C14_2 1_555 1_555
H11_2 C15_2 1_555 1_555
C16_2 C15_2 1_555 1_555
H12_2 C16_2 1_555 1_555
C17_2 C14_2 1_555 1_555
H15_2 C21_2 1_555 1_555
C22_2 C17_2 1_555 1_555
H16_2 C22_2 1_555 1_555
C29_2 C28_2 1_555 1_555
H21_2 C29_2 1_555 1_555
C33_2 C28_2 1_555 1_555
H24_2 C33_2 1_555 1_555
N7 C12_2 1_555 1_555
C16_2 N7 1_555 1_555
C21_2 C22_2 1_555 1_555
C64 H53 1_555 1_555
C65 C64 1_555 1_555
C66 C65 1_555 1_555
C67 C66 1_555 1_555
H55 C67 1_555 1_555
C68 C67 1_555 1_555
H56 C68 1_555 1_555
N11 C64 1_555 1_555
C68 N11 1_555 1_555
H38_2 C43_2 1_555 1_555
C44 C43_2 1_555 1_555
C47 C44 1_555 1_555
C48 C47 1_555 1_555
H41 C48 1_555 1_555
C49 C48 1_555 1_555
H42 C49 1_555 1_555
C50 C49 1_555 1_555
C51 C50 1_555 1_555
H43 C51 1_555 1_555
C52 C47 1_555 1_555
H44 C52 1_555 1_555
C59 C58_2 1_555 1_555
H49 C59 1_555 1_555
C60 C59 1_555 1_555
H50 C60 1_555 1_555
C61 C60 1_555 1_555
C62_2 C61 1_555 1_555
H51_2 C62_2 1_555 1_555
C63_2 C58_2 1_555 1_555
H52_2 C63_2 1_555 1_555
C64_2 H53_2 1_555 1_555
C65_2 C64_2 1_555 1_555
H54_2 C65_2 1_555 1_555
C66_2 C65_2 1_555 1_555
C67_2 C66_2 1_555 1_555
H55_2 C67_2 1_555 1_555
C68_2 C67_2 1_555 1_555
H56_2 C68_2 1_555 1_555
C69_2 C66_2 1_555 1_555
C70_2 C69_2 1_555 1_555
H57_2 C70_2 1_555 1_555
C71 C70_2 1_555 1_555
H58 C71 1_555 1_555
C72 C71 1_555 1_555
C73 C72 1_555 1_555
H59 C73 1_555 1_555
C74_2 C69_2 1_555 1_555
H60_2 C74_2 1_555 1_555
N9 C64_2 1_555 1_555
N12 C50 1_555 1_555
Ni4 N9 1_555 1_555
C51 C52 1_555 1_555
C61 N12 1_555 1_555
C62_2 C63_2 1_555 1_555
C68_2 N9 1_555 1_555
C72 N12 1_555 1_555
C73 C74_2 1_555 1_555
C53_2 H45_2 1_555 1_555
C54_2 C53_2 1_555 1_555
H46_2 C54_2 1_555 1_555
C55_2 C54_2 1_555 1_555
C56_2 C55_2 1_555 1_555
C57_2 C56_2 1_555 1_555
H48_2 C57_2 1_555 1_555
N6 C53_2 1_555 1_555
Ni4 N6 1_555 1_555
C57_2 N6 1_555 1_555
H29_2 C37_2 1_555 1_555
C76_2 C37_2 1_555 1_555
H61_2 C76_2 1_555 1_555
C1_2 H1_2 1_555 1_555
C2_2 C1_2 1_555 1_555
H2_2 C2_2 1_555 1_555
N1_2 C1_2 1_555 1_555
Ni4 N1_2 1_555 1_555
O1_2 C34_2 1_555 1_555
O3_2 C38_2 1_555 1_555
O5_2 Ni4 1_555 1_555
C5_2 N1_2 1_555 1_555
Ni4 O1_2 1_555 1_555
Ni4 O3_2 1_555 1_555
H63_2 C77_2 1_555 1_555
C4_2 C3_2 1_555 1_555
H3_2 C4_2 1_555 1_555
C6_2 C3_2 1_555 1_555
C7_2 C6_2 1_555 1_555
H5_2 C7_2 1_555 1_555
C8_2 C7_2 1_555 1_555
H6_2 C8_2 1_555 1_555
C9_2 C8_2 1_555 1_555
C10_2 C9_2 1_555 1_555
H7_2 C10_2 1_555 1_555
C11_2 C6_2 1_555 1_555
H8_2 C11_2 1_555 1_555
H13_2 C18_2 1_555 1_555
C19_2 C18_2 1_555 1_555
H14_2 C19_2 1_555 1_555
C20_2 C19_2 1_555 1_555
H22_2 C30_2 1_555 1_555
C31_2 C30_2 1_555 1_555
C32_2 C31_2 1_555 1_555
H23_2 C32_2 1_555 1_555
H33_2 C41_2 1_555 1_555
H34_2 C41_2 1_555 1_555
N4_2 C9_2 1_555 1_555
C80_2 C41_2 1_555 1_555
H66_2 C80_2 1_555 1_555
C81_2 C80_2 1_555 1_555
H68_2 C81_2 1_555 1_555
C10_2 C11_2 1_555 1_555
C20_2 N4_2 1_555 1_555
C31_2 N4_2 1_555 1_555
C45_2 C44_2 1_555 1_555
H39_2 C45_2 1_555 1_555
C47_2 C44_2 1_555 1_555
C48_2 C47_2 1_555 1_555
H41_2 C48_2 1_555 1_555
C49_2 C48_2 1_555 1_555
H42_2 C49_2 1_555 1_555
C50_2 C49_2 1_555 1_555
C51_2 C50_2 1_555 1_555
H43_2 C51_2 1_555 1_555
C52_2 C47_2 1_555 1_555
H44_2 C52_2 1_555 1_555
H49_2 C59_2 1_555 1_555
C60_2 C59_2 1_555 1_555
H50_2 C60_2 1_555 1_555
C61_2 C60_2 1_555 1_555
H58_2 C71_2 1_555 1_555
C72_2 C71_2 1_555 1_555
C73_2 C72_2 1_555 1_555
H59_2 C73_2 1_555 1_555
N12_2 C50_2 1_555 1_555
C51_2 C52_2 1_555 1_555
C61_2 N12_2 1_555 1_555
C72_2 N12_2 1_555 1_555
H27_2 C36_2 1_555 1_555
C39_2 H30_2 1_555 1_555
C40_2 C39_2 1_555 1_555
H32_2 C40_2 1_555 1_555
C82_2 C39_2 1_555 1_555
H69_2 C82_2 1_555 1_555
H70_2 C82_2 1_555 1_555

#END
