
###############################################################################
#
# This file contains modified crystal structure data generated from the
# MOF subset of the Cambridge Structural Database (CSD) v543 
# hosted by the Cambridge Crystallographic Data Centre (CCDC).
#
# This work is licensed under the Creative Commons
# Attribution-NonCommercial-ShareAlike 4.0 International License.
# To view a copy of this license, visit
# http://creativecommons.org/licenses/by-nc-sa/4.0/
# or send a letter to
# Creative Commons, PO Box 1866, Mountain View, CA 94042, USA.
#
# CIF created using the CSD Python API on 29 September 2022
# The structure has been converted into the P1 space group
# The structure has a 3D framework
# The original CSD entry HEGJEM is in the monoclinic crystal system
# The framework has been calculated to contain at least 10.0% void space
# The void calculation uses a probe of radius 1.32A, grid spacing 0.4
#
###############################################################################

data_HEGJEM
_chemical_formula_moiety         '(C56 H36 Cu8 N2 O32)n'
_symmetry_cell_setting           triclinic
_symmetry_space_group_name_H-M   'P 1'
_symmetry_Int_Tables_number      1
_space_group_name_Hall           'P 1'
loop_
_symmetry_equiv_pos_site_id
_symmetry_equiv_pos_as_xyz
1 x,y,z
_cell_length_a                   7.8818(7)
_cell_length_b                   22.4733(19)
_cell_length_c                   11.0803(9)
_cell_angle_alpha                90
_cell_angle_beta                 97.859(2)
_cell_angle_gamma                90
_cell_volume                     1944.22
loop_
_atom_site_label
_atom_site_type_symbol
_atom_site_fract_x
_atom_site_fract_y
_atom_site_fract_z
O9 O 0.7400(3) 0.03007(8) 0.78429(19)
Cu7 Cu 0.88753(5) 0.59174(2) 0.09754(3)
Cu1 Cu 0.70117(4) 0.94213(2) 0.77443(3)
Cu2 Cu 0.38753(5) 0.90826(2) 0.59754(3)
O1 O 0.7600(3) 0.53007(8) 0.71571(19)
O2 O 0.7169(3) 0.85428(8) 0.76820(19)
O3 O 0.6096(3) 0.94308(8) 0.60656(19)
O4 O 0.4980(3) 0.82946(8) 0.6239(2)
O5 O 0.0714(3) 0.44843(9) 0.6678(2)
O6 O 0.2248(3) 0.48203(9) 0.8378(2)
O7 O 0.8336(3) 0.55846(8) 0.9086(2)
O8 O 0.1693(3) 0.86722(9) 0.5920(2)
H1 H 0.155944 0.854972 0.663953
H2 H 0.071834 0.886582 0.570703
N1 N 0.3016(3) 0.56121(9) 0.4498(2)
C1 C 0.5661(4) 0.70948(11) 0.6578(3)
H3 H 0.471159 0.721172 0.600525
C2 C 0.7371(4) 0.63251(11) 0.7649(3)
C3 C 0.5963(4) 0.64913(12) 0.6805(3)
C4 C 0.7798(4) 0.56868(11) 0.7999(3)
C5 C 0.6256(4) 0.81768(11) 0.7005(3)
C6 C 0.4680(4) 0.60451(11) 0.6252(3)
C7 C 0.2713(4) 0.52511(12) 0.6485(3)
C8 C 0.2329(4) 0.52316(12) 0.5232(3)
H4 H 0.154838 0.493826 0.487540
C9 C 0.8144(4) 0.73603(12) 0.7984(3)
H5 H 0.889695 0.765319 0.837500
C10 C 0.4174(4) 0.60142(11) 0.5003(3)
H6 H 0.465780 0.628498 0.448755
C11 C 0.3907(4) 0.56628(12) 0.7000(3)
H7 H 0.419593 0.568388 0.785979
C12 C 0.8459(4) 0.67628(12) 0.8219(3)
H8 H 0.942871 0.664837 0.877607
C13 C 0.6722(4) 0.75303(11) 0.7174(3)
C14 C 0.1819(4) 0.48223(12) 0.7234(3)
H9 H 0.592(6) 0.9774(11) 0.580(4)
Cu4 Cu 0.79883(4) 0.44213(2) 0.72557(3)
Cu5 Cu 0.20117(4) 0.55787(2) 0.27443(3)
Cu6 Cu 0.11247(5) 0.40826(2) 0.90246(3)
O10 O 0.4286(3) 0.94843(9) 0.8322(2)
O11 O 0.2752(3) 0.98203(9) 0.6622(2)
O12 O 0.3336(3) 0.94154(8) 0.4086(2)
N2 N 0.8016(3) 0.93879(9) 0.9498(2)
N1_2 N 0.1984(3) 0.06121(9) 0.0502(2)
H6_2 H 0.034220 0.128498 0.051245
Cu5_2 Cu 0.29883(4) 0.05787(2) 0.22557(3)
O12_2 O 0.1664(3) 0.44154(8) 0.0914(2)
O4_2 O 0.0020(3) 0.32946(8) 0.8761(2)
O8_2 O 0.3307(3) 0.36722(9) 0.9080(2)
H1_2 H 0.344056 0.354972 0.836047
H2_2 H 0.428166 0.386582 0.929297
H3_2 H 0.028841 0.221172 0.899475
C6_2 C 0.0320(4) 0.10451(11) 0.8748(3)
C7_2 C 0.2287(4) 0.02511(12) 0.8515(3)
C8_2 C 0.2671(4) 0.02316(12) 0.9768(3)
C10_2 C 0.0826(4) 0.10142(11) 0.9997(3)
C11_2 C 0.1093(4) 0.06628(12) 0.8000(3)
H7_2 H 0.080407 0.068388 0.714021
C14_2 C 0.3181(4) 0.98223(12) 0.7766(3)
O2_2 O 0.7831(3) 0.35428(8) 0.73180(19)
O3_2 O 0.8904(3) 0.44308(8) 0.89344(19)
O7_2 O 0.6664(3) 0.05846(8) 0.5914(2)
C1_2 C 0.9339(4) 0.20948(11) 0.8422(3)
C2_2 C 0.7629(4) 0.13251(11) 0.7351(3)
C3_2 C 0.9037(4) 0.14913(12) 0.8195(3)
C4_2 C 0.7202(4) 0.06868(11) 0.7001(3)
C5_2 C 0.8744(4) 0.31768(11) 0.7995(3)
C9_2 C 0.6856(4) 0.23603(12) 0.7016(3)
H5_2 H 0.610305 0.265319 0.662500
C12_2 C 0.6541(4) 0.17628(12) 0.6781(3)
H8_2 H 0.557129 0.164837 0.622393
C13_2 C 0.8278(4) 0.25303(11) 0.7826(3)
H9_2 H 0.908(6) 0.4774(11) 0.920(4)
Cu7_2 Cu 0.61247(5) 0.09174(2) 0.40246(3)
N2_2 N 0.6984(3) 0.43879(9) 0.5502(2)
O1_2 O 0.2400(3) 0.46993(8) 0.28429(19)
O2_3 O 0.2831(3) 0.14572(8) 0.23180(19)
O3_3 O 0.3904(3) 0.05692(8) 0.39344(19)
O4_3 O 0.5020(3) 0.17054(8) 0.3761(2)
O5_2 O 0.9286(3) 0.55157(9) 0.3322(2)
O6_2 O 0.7752(3) 0.51797(9) 0.1622(2)
O8_3 O 0.8307(3) 0.13278(9) 0.4080(2)
H1_3 H 0.844056 0.145028 0.336047
H2_3 H 0.928166 0.113418 0.429297
C1_3 C 0.4339(4) 0.29052(11) 0.3422(3)
H3_3 H 0.528841 0.278828 0.399475
C2_3 C 0.2629(4) 0.36749(11) 0.2351(3)
C3_3 C 0.4037(4) 0.35087(12) 0.3195(3)
C4_3 C 0.2202(4) 0.43132(11) 0.2001(3)
C5_3 C 0.3744(4) 0.18232(11) 0.2995(3)
C6_3 C 0.5320(4) 0.39549(11) 0.3748(3)
C7_3 C 0.7287(4) 0.47489(12) 0.3515(3)
C8_3 C 0.7671(4) 0.47684(12) 0.4768(3)
H4_2 H 0.845162 0.506174 0.512460
C9_3 C 0.1856(4) 0.26397(12) 0.2016(3)
H5_3 H 0.110305 0.234681 0.162500
C10_3 C 0.5826(4) 0.39858(11) 0.4997(3)
H6_3 H 0.534220 0.371502 0.551245
C11_3 C 0.6093(4) 0.43372(12) 0.3000(3)
H7_3 H 0.580407 0.431612 0.214021
C12_3 C 0.1541(4) 0.32372(12) 0.1781(3)
H8_3 H 0.057129 0.335163 0.122393
C13_3 C 0.3278(4) 0.24697(11) 0.2826(3)
C14_3 C 0.8181(4) 0.51777(12) 0.2766(3)
H9_3 H 0.408(6) 0.0226(11) 0.420(4)
O10_2 O 0.5714(3) 0.05157(9) 0.1678(2)
O11_2 O 0.7248(3) 0.01797(9) 0.3378(2)
O9_2 O 0.2600(3) 0.96993(8) 0.21571(19)
O2_4 O 0.2169(3) 0.64572(8) 0.26820(19)
O3_4 O 0.1096(3) 0.55692(8) 0.10656(19)
C1_4 C 0.0661(4) 0.79052(11) 0.1578(3)
C2_4 C 0.2371(4) 0.86749(11) 0.2649(3)
C3_4 C 0.0963(4) 0.85087(12) 0.1805(3)
C4_4 C 0.2798(4) 0.93132(11) 0.2999(3)
C5_4 C 0.1256(4) 0.68232(11) 0.2005(3)
C9_4 C 0.3144(4) 0.76397(12) 0.2984(3)
H5_4 H 0.389695 0.734681 0.337500
C12_4 C 0.3459(4) 0.82372(12) 0.3219(3)
H8_4 H 0.442871 0.835163 0.377607
C13_4 C 0.1722(4) 0.74697(11) 0.2174(3)
H9_4 H 0.092(6) 0.5226(11) 0.080(4)
C14_4 C 0.6819(4) 0.01777(12) 0.2234(3)
O4_4 O 0.9980(3) 0.67054(8) 0.1239(2)
O8_4 O 0.6693(3) 0.63278(9) 0.0920(2)
H1_4 H 0.655944 0.645028 0.163953
H2_4 H 0.571834 0.613418 0.070703
H3_4 H 0.971159 0.778828 0.100525
C6_4 C 0.9680(4) 0.89549(11) 0.1252(3)
C7_4 C 0.7713(4) 0.97489(12) 0.1485(3)
C8_4 C 0.7329(4) 0.97684(12) 0.0232(3)
C10_4 C 0.9174(4) 0.89858(11) 0.0003(3)
C11_4 C 0.8907(4) 0.93372(12) 0.2000(3)
H7_4 H 0.919593 0.931612 0.285979
H6_4 H 0.965780 0.871502 0.948755
H4_3 H 0.345162 0.993826 0.012460
H4_4 H 0.654838 0.006174 0.987540
loop_
_geom_bond_atom_site_label_1
_geom_bond_atom_site_label_2
_geom_bond_site_symmetry_1
_geom_bond_site_symmetry_2
Cu1 O2 1_555 1_555
Cu2 O3 1_555 1_555
O1 C4 1_555 1_555
O2 C5 1_555 1_555
O3 Cu1 1_555 1_555
O4 Cu2 1_555 1_555
O5 C14 1_555 1_555
O6 C14 1_555 1_555
O7 C4 1_555 1_555
O8 Cu2 1_555 1_555
H1 O8 1_555 1_555
H2 O8 1_555 1_555
N1 C8 1_555 1_555
C1 H3 1_555 1_555
C2 C3 1_555 1_555
C3 C1 1_555 1_555
C4 C2 1_555 1_555
C5 O4 1_555 1_555
C6 C3 1_555 1_555
C7 C8 1_555 1_555
C8 H4 1_555 1_555
C9 H5 1_555 1_555
C10 N1 1_555 1_555
H6 C10 1_555 1_555
C11 C6 1_555 1_555
H7 C11 1_555 1_555
C12 C2 1_555 1_555
H8 C12 1_555 1_555
C13 C1 1_555 1_555
C14 C7 1_555 1_555
H9 O3 1_555 1_555
Cu4 O1 1_555 1_555
Cu5 N1 1_555 1_555
Cu6 O5 1_555 1_555
O10 Cu1 1_555 1_555
O11 Cu2 1_555 1_555
O12 Cu2 1_555 1_555
N2 Cu1 1_555 1_555
Cu2 O10 1_555 1_555
O6 Cu6 1_555 1_555
C5 C13 1_555 1_555
C6 C10 1_555 1_555
C7 C11 1_555 1_555
C9 C12 1_555 1_555
C9 C13 1_555 1_555
Cu5_2 N1_2 1_555 1_555
O4_2 Cu6 1_555 1_555
O8_2 Cu6 1_555 1_555
H1_2 O8_2 1_555 1_555
H2_2 O8_2 1_555 1_555
C7_2 C8_2 1_555 1_555
C11_2 C6_2 1_555 1_555
H7_2 C11_2 1_555 1_555
C6_2 C10_2 1_555 1_555
C7_2 C11_2 1_555 1_555
O10 C14_2 1_555 1_555
O11 C14_2 1_555 1_555
Cu4 O2_2 1_555 1_555
O9 C4_2 1_555 1_555
O2_2 C5_2 1_555 1_555
O3_2 Cu4 1_555 1_555
O7_2 C4_2 1_555 1_555
C2_2 C3_2 1_555 1_555
C3_2 C1_2 1_555 1_555
C4_2 C2_2 1_555 1_555
C9_2 H5_2 1_555 1_555
C12_2 C2_2 1_555 1_555
H8_2 C12_2 1_555 1_555
C13_2 C1_2 1_555 1_555
H9_2 O3_2 1_555 1_555
Cu7_2 O7_2 1_555 1_555
N2_2 Cu4 1_555 1_555
C5_2 C13_2 1_555 1_555
C9_2 C12_2 1_555 1_555
C9_2 C13_2 1_555 1_555
Cu5_2 O2_3 1_555 1_555
Cu7_2 O3_3 1_555 1_555
O1_2 C4_3 1_555 1_555
O2_3 C5_3 1_555 1_555
O3_3 Cu5_2 1_555 1_555
O4_3 Cu7_2 1_555 1_555
O5_2 C14_3 1_555 1_555
O6_2 C14_3 1_555 1_555
O12_2 C4_3 1_555 1_555
O8_3 Cu7_2 1_555 1_555
H1_3 O8_3 1_555 1_555
H2_3 O8_3 1_555 1_555
N2_2 C8_3 1_555 1_555
C1_3 H3_3 1_555 1_555
C2_3 C3_3 1_555 1_555
C3_3 C1_3 1_555 1_555
C4_3 C2_3 1_555 1_555
C5_3 O4_3 1_555 1_555
C6_3 C3_3 1_555 1_555
C7_3 C8_3 1_555 1_555
C8_3 H4_2 1_555 1_555
C9_3 H5_3 1_555 1_555
C10_3 N2_2 1_555 1_555
H6_3 C10_3 1_555 1_555
C11_3 C6_3 1_555 1_555
H7_3 C11_3 1_555 1_555
C12_3 C2_3 1_555 1_555
H8_3 C12_3 1_555 1_555
C13_3 C1_3 1_555 1_555
C14_3 C7_3 1_555 1_555
H9_3 O3_3 1_555 1_555
Cu5 O1_2 1_555 1_555
Cu7 O5_2 1_555 1_555
O10_2 Cu5_2 1_555 1_555
O11_2 Cu7_2 1_555 1_555
Cu7_2 O10_2 1_555 1_555
O6_2 Cu7 1_555 1_555
C5_3 C13_3 1_555 1_555
C6_3 C10_3 1_555 1_555
C7_3 C11_3 1_555 1_555
C9_3 C12_3 1_555 1_555
C9_3 C13_3 1_555 1_555
Cu5 O2_4 1_555 1_555
O9_2 C4_4 1_555 1_555
O2_4 C5_4 1_555 1_555
O3_4 Cu5 1_555 1_555
O12 C4_4 1_555 1_555
C2_4 C3_4 1_555 1_555
C3_4 C1_4 1_555 1_555
C4_4 C2_4 1_555 1_555
C9_4 H5_4 1_555 1_555
C12_4 C2_4 1_555 1_555
H8_4 C12_4 1_555 1_555
C13_4 C1_4 1_555 1_555
H9_4 O3_4 1_555 1_555
C5_4 C13_4 1_555 1_555
C9_4 C12_4 1_555 1_555
C9_4 C13_4 1_555 1_555
O10_2 C14_4 1_555 1_555
O11_2 C14_4 1_555 1_555
O4_4 Cu7 1_555 1_555
O8_4 Cu7 1_555 1_555
H1_4 O8_4 1_555 1_555
H2_4 O8_4 1_555 1_555
C7_4 C8_4 1_555 1_555
C11_4 C6_4 1_555 1_555
H7_4 C11_4 1_555 1_555
C6_4 C10_4 1_555 1_555
C7_4 C11_4 1_555 1_555

#END
