
###############################################################################
#
# This file contains modified crystal structure data generated from the
# MOF subset of the Cambridge Structural Database (CSD) v543 
# hosted by the Cambridge Crystallographic Data Centre (CCDC).
#
# This work is licensed under the Creative Commons
# Attribution-NonCommercial-ShareAlike 4.0 International License.
# To view a copy of this license, visit
# http://creativecommons.org/licenses/by-nc-sa/4.0/
# or send a letter to
# Creative Commons, PO Box 1866, Mountain View, CA 94042, USA.
#
# CIF created using the CSD Python API on 29 September 2022
# The structure has been converted into the P1 space group
# The structure has a 3D framework
# The original CSD entry HEGPOB is in the monoclinic crystal system
# The framework has been calculated to contain at least 10.0% void space
# The void calculation uses a probe of radius 1.32A, grid spacing 0.4
#
###############################################################################

data_HEGPOB
_chemical_formula_moiety         '(C120 H72 Cd14 N24 O44)n'
_symmetry_cell_setting           triclinic
_symmetry_space_group_name_H-M   'P 1'
_symmetry_Int_Tables_number      1
_space_group_name_Hall           'P 1'
loop_
_symmetry_equiv_pos_site_id
_symmetry_equiv_pos_as_xyz
1 x,y,z
_cell_length_a                   13.622(3)
_cell_length_b                   16.126(3)
_cell_length_c                   18.280(4)
_cell_angle_alpha                90
_cell_angle_beta                 109.949(3)
_cell_angle_gamma                90
_cell_volume                     3774.59
loop_
_atom_site_label
_atom_site_type_symbol
_atom_site_fract_x
_atom_site_fract_y
_atom_site_fract_z
Cd5 Cd 0.000000 0.66921(3) 0.750000
O13 O 0.4463(3) 0.0637(3) 0.0530(2)
Cd1 Cd 0.500000 0.16921(3) 0.750000
Cd2 Cd 0.56006(3) 0.10100(2) 0.57044(2)
O1 O 0.5785(3) 0.0649(2) 0.70104(18)
N1 N 0.3705(3) 0.1552(3) 0.6209(2)
N2 N 0.3911(4) 0.1238(3) 0.5575(2)
N3 N 0.2247(4) 0.1436(3) 0.5242(3)
C1 C 0.0546(5) 0.0692(4) 0.4893(4)
C4 C 0.1117(5) 0.1455(5) 0.4771(5)
H3 H 0.103810 0.149711 0.422435
H4 H 0.080306 0.194323 0.490873
C5 C 0.2697(5) 0.1665(3) 0.5982(3)
H5 H 0.234075 0.187617 0.629447
C6 C 0.3027(5) 0.1171(4) 0.5003(3)
H6 H 0.294709 0.097122 0.450882
C13 C 0.6427(4) 0.0081(3) 0.7000(3)
Cd3 Cd 0.43994(3) 0.10100(2) 0.92956(2)
O7 O 0.4215(3) 0.0649(2) 0.79896(18)
C28 C 0.3573(4) 0.0081(3) 0.8000(3)
O14 O 0.5537(3) 0.0637(3) 0.4470(2)
O15 O 0.3119(4) 0.1364(3) 0.9829(2)
O16 O 0.6881(4) 0.1364(3) 0.5171(2)
O17 O 0.4192(3) 0.2336(2) 0.8878(2)
O18 O 0.5808(3) 0.2336(2) 0.6122(2)
O19 O 0.3866(4) 0.2608(2) 0.7623(2)
O20 O 0.6134(4) 0.2608(2) 0.7377(2)
N7 N 0.6295(3) 0.1552(3) 0.8791(2)
N8 N 0.6089(4) 0.1238(3) 0.9425(2)
O4 O 0.6881(4) 0.8636(3) 0.0171(2)
Cd11 Cd 0.56006(3) 0.89900(2) 0.07044(2)
O2 O 0.6714(3) 0.9994(2) 0.6424(2)
O3 O 0.5537(3) 0.9363(3) 0.9470(2)
O5 O 0.9192(3) 0.7336(2) 0.8878(2)
O6 O 0.8866(4) 0.7608(2) 0.7623(2)
C2 C 0.0759(8) 0.9915(6) 0.4688(7)
H1 H 0.128373 0.983764 0.447686
C7 C 0.6812(4) 0.9491(3) 0.7665(3)
C8 C 0.6415(4) 0.9513(3) 0.8277(3)
H7 H 0.589905 0.989404 0.827075
C9 C 0.6796(4) 0.8963(3) 0.8892(3)
C10 C 0.7557(4) 0.8398(3) 0.8895(3)
H8 H 0.782504 0.804154 0.931617
C11 C 0.7930(4) 0.8357(3) 0.8275(3)
C12 C 0.7562(4) 0.8914(3) 0.7665(3)
H9 H 0.781979 0.889916 0.725526
C14 C 0.6374(5) 0.8987(3) 0.9549(3)
C15 C 0.8724(4) 0.7713(3) 0.8261(3)
C18 C 0.0184(9) 0.9239(6) 0.4798(7)
H11 H 0.032694 0.871704 0.464327
O8 O 0.3286(3) 0.9994(2) 0.8576(2)
O9 O 0.4463(3) 0.9363(3) 0.5530(2)
O10 O 0.3119(4) 0.8636(3) 0.4829(2)
O11 O 0.0808(3) 0.7336(2) 0.6122(2)
O12 O 0.1134(4) 0.7608(2) 0.7377(2)
C22 C 0.3188(4) 0.9491(3) 0.7335(3)
C23 C 0.3585(4) 0.9513(3) 0.6723(3)
H16 H 0.410095 0.989404 0.672925
C24 C 0.3204(4) 0.8963(3) 0.6108(3)
C25 C 0.2443(4) 0.8398(3) 0.6105(3)
H17 H 0.217496 0.804154 0.568383
C26 C 0.2070(4) 0.8357(3) 0.6725(3)
C27 C 0.2438(4) 0.8914(3) 0.7335(3)
H18 H 0.218021 0.889916 0.774474
C29 C 0.3626(5) 0.8987(3) 0.5451(3)
C30 C 0.1276(4) 0.7713(3) 0.6739(3)
Cd5_2 Cd 1.000000 0.66921(3) 0.750000
Cd7 Cd 0.06006(3) 0.60100(2) 0.57044(2)
Cd8 Cd 0.93994(3) 0.60100(2) 0.92956(2)
Cd10 Cd 0.43994(3) 0.89900(2) 0.42956(2)
C3 C 0.9816(9) 0.0761(6) 0.5202(7)
H2 H 0.967306 0.128296 0.535673
C17 C 0.9241(8) 0.0085(6) 0.5312(7)
H10 H 0.871627 0.016236 0.552314
N4 N 0.6295(3) 0.8448(3) 0.3791(2)
N5 N 0.6089(4) 0.8762(3) 0.4425(2)
N6 N 0.7753(4) 0.8564(3) 0.4758(3)
C16 C 0.9454(5) 0.9308(4) 0.5107(4)
C19 C 0.8883(5) 0.8545(5) 0.5229(5)
H12 H 0.896190 0.850289 0.577565
H13 H 0.919694 0.805677 0.509127
C20 C 0.7303(5) 0.8335(3) 0.4018(3)
H14 H 0.765925 0.812383 0.370553
C21 C 0.6973(5) 0.8829(4) 0.4997(3)
H15 H 0.705291 0.902878 0.549118
Cd6 Cd 0.500000 0.83079(3) 0.250000
C3_2 C 0.0184(9) 0.0761(6) 0.9798(7)
H2_2 H 0.032694 0.128296 0.964327
C17_2 C 0.0759(8) 0.0085(6) 0.9688(7)
H10_2 H 0.128373 0.016236 0.947686
N4_2 N 0.3705(3) 0.8448(3) 0.1209(2)
N5_2 N 0.3911(4) 0.8762(3) 0.0575(2)
N6_2 N 0.2247(4) 0.8564(3) 0.0242(3)
C20_2 C 0.2697(5) 0.8335(3) 0.0982(3)
H14_2 H 0.234075 0.812383 0.129447
C21_2 C 0.3027(5) 0.8829(4) 0.0003(3)
C16_2 C 0.0546(5) 0.9308(4) 0.9893(4)
C19_2 C 0.1117(5) 0.8545(5) 0.9771(5)
H12_2 H 0.103810 0.850289 0.922435
H13_2 H 0.080306 0.805677 0.990873
H15_2 H 0.294709 0.902878 0.950882
C1_2 C 0.9454(5) 0.0692(4) 0.0107(4)
C4_2 C 0.8883(5) 0.1455(5) 0.0229(5)
H3_2 H 0.896190 0.149711 0.077565
H4_2 H 0.919694 0.194323 0.009127
H6_2 H 0.705291 0.097122 0.049118
N3_2 N 0.7753(4) 0.1436(3) 0.9758(3)
C5_2 C 0.7303(5) 0.1665(3) 0.9018(3)
H5_2 H 0.765925 0.187617 0.870553
C6_2 C 0.6973(5) 0.1171(4) 0.9997(3)
C2_2 C 0.9241(8) 0.9915(6) 0.0312(7)
H1_2 H 0.871627 0.983764 0.052314
C18_2 C 0.9816(9) 0.9239(6) 0.0202(7)
H11_2 H 0.967306 0.871704 0.035673
O4_2 O 0.1881(4) 0.3636(3) 0.0171(2)
Cd11_2 Cd 0.06006(3) 0.39900(2) 0.07044(2)
O1_2 O 0.0785(3) 0.5649(2) 0.70104(18)
O2_2 O 0.1714(3) 0.4994(2) 0.6424(2)
O3_2 O 0.0537(3) 0.4363(3) 0.9470(2)
C7_2 C 0.1812(4) 0.4491(3) 0.7665(3)
C8_2 C 0.1415(4) 0.4513(3) 0.8277(3)
H7_2 H 0.089905 0.489404 0.827075
C9_2 C 0.1796(4) 0.3963(3) 0.8892(3)
C10_2 C 0.2557(4) 0.3398(3) 0.8895(3)
H8_2 H 0.282504 0.304154 0.931617
C11_2 C 0.2930(4) 0.3357(3) 0.8275(3)
C12_2 C 0.2562(4) 0.3914(3) 0.7665(3)
H9_2 H 0.281979 0.389916 0.725526
C13_2 C 0.1427(4) 0.5081(3) 0.7000(3)
C14_2 C 0.1374(5) 0.3987(3) 0.9549(3)
C15_2 C 0.3724(4) 0.2713(3) 0.8261(3)
O14_2 O 0.0537(3) 0.5637(3) 0.4470(2)
O16_2 O 0.1881(4) 0.6364(3) 0.5171(2)
N7_2 N 0.1295(3) 0.6552(3) 0.8791(2)
N8_2 N 0.1089(4) 0.6238(3) 0.9425(2)
O13_2 O 0.9463(3) 0.5637(3) 0.0530(2)
N1_2 N 0.8705(3) 0.6552(3) 0.6209(2)
N2_2 N 0.8911(4) 0.6238(3) 0.5575(2)
N3_3 N 0.7247(4) 0.6436(3) 0.5242(3)
C1_3 C 0.5546(5) 0.5692(4) 0.4893(4)
C2_3 C 0.5759(8) 0.4915(6) 0.4688(7)
H1_3 H 0.628373 0.483764 0.447686
C3_3 C 0.4816(9) 0.5761(6) 0.5202(7)
H2_3 H 0.467306 0.628296 0.535673
C4_3 C 0.6117(5) 0.6455(5) 0.4771(5)
H3_3 H 0.603810 0.649711 0.422435
H4_3 H 0.580306 0.694323 0.490873
C5_3 C 0.7697(5) 0.6665(3) 0.5982(3)
H5_3 H 0.734075 0.687617 0.629447
C6_3 C 0.8027(5) 0.6171(4) 0.5003(3)
H6_3 H 0.794709 0.597122 0.450882
N4_3 N 0.1295(3) 0.3448(3) 0.3791(2)
N5_3 N 0.1089(4) 0.3762(3) 0.4425(2)
N6_3 N 0.2753(4) 0.3564(3) 0.4758(3)
C16_3 C 0.4454(5) 0.4308(4) 0.5107(4)
C17_3 C 0.4241(8) 0.5085(6) 0.5312(7)
H10_3 H 0.371627 0.516236 0.552314
C18_3 C 0.5184(9) 0.4239(6) 0.4798(7)
H11_3 H 0.532694 0.371704 0.464327
C19_3 C 0.3883(5) 0.3545(5) 0.5229(5)
H12_3 H 0.396190 0.350289 0.577565
H13_3 H 0.419694 0.305677 0.509127
C20_3 C 0.2303(5) 0.3335(3) 0.4018(3)
H14_3 H 0.265925 0.312383 0.370553
C21_3 C 0.1973(5) 0.3829(4) 0.4997(3)
H15_3 H 0.205291 0.402878 0.549118
O7_2 O 0.9215(3) 0.5649(2) 0.79896(18)
O8_2 O 0.8286(3) 0.4994(2) 0.8576(2)
O9_2 O 0.9463(3) 0.4363(3) 0.5530(2)
O10_2 O 0.8119(4) 0.3636(3) 0.4829(2)
C22_2 C 0.8188(4) 0.4491(3) 0.7335(3)
C23_2 C 0.8585(4) 0.4513(3) 0.6723(3)
H16_2 H 0.910095 0.489404 0.672925
C24_2 C 0.8204(4) 0.3963(3) 0.6108(3)
C25_2 C 0.7443(4) 0.3398(3) 0.6105(3)
H17_2 H 0.717496 0.304154 0.568383
C26_2 C 0.7070(4) 0.3357(3) 0.6725(3)
C27_2 C 0.7438(4) 0.3914(3) 0.7335(3)
H18_2 H 0.718021 0.389916 0.774474
C28_2 C 0.8573(4) 0.5081(3) 0.8000(3)
C29_2 C 0.8626(5) 0.3987(3) 0.5451(3)
C30_2 C 0.6276(4) 0.2713(3) 0.6739(3)
Cd6_2 Cd -0.000000 0.33079(3) 0.250000
Cd10_2 Cd 0.93994(3) 0.39900(2) 0.42956(2)
O15_2 O 0.8119(4) 0.6364(3) 0.9829(2)
Cd6_3 Cd 1.000000 0.33079(3) 0.250000
C1_4 C 0.4454(5) 0.5692(4) 0.0107(4)
C2_4 C 0.4241(8) 0.4915(6) 0.0312(7)
H1_4 H 0.371627 0.483764 0.052314
C4_4 C 0.3883(5) 0.6455(5) 0.0229(5)
H3_4 H 0.396190 0.649711 0.077565
H4_4 H 0.419694 0.694323 0.009127
H6_4 H 0.205291 0.597122 0.049118
N4_4 N 0.8705(3) 0.3448(3) 0.1209(2)
N5_4 N 0.8911(4) 0.3762(3) 0.0575(2)
N6_4 N 0.7247(4) 0.3564(3) 0.0242(3)
C18_4 C 0.4816(9) 0.4239(6) 0.0202(7)
H11_4 H 0.467306 0.371704 0.035673
C20_4 C 0.7697(5) 0.3335(3) 0.0982(3)
H14_4 H 0.734075 0.312383 0.129447
C21_4 C 0.8027(5) 0.3829(4) 0.0003(3)
N3_4 N 0.2753(4) 0.6436(3) 0.9758(3)
C3_4 C 0.5184(9) 0.5761(6) 0.9798(7)
H2_4 H 0.532694 0.628296 0.964327
C5_4 C 0.2303(5) 0.6665(3) 0.9018(3)
H5_4 H 0.265925 0.687617 0.870553
C6_4 C 0.1973(5) 0.6171(4) 0.9997(3)
C16_4 C 0.5546(5) 0.4308(4) 0.9893(4)
C17_4 C 0.5759(8) 0.5085(6) 0.9688(7)
H10_4 H 0.628373 0.516236 0.947686
C19_4 C 0.6117(5) 0.3545(5) 0.9771(5)
H12_4 H 0.603810 0.350289 0.922435
H13_4 H 0.580306 0.305677 0.990873
H15_4 H 0.794709 0.402878 0.950882
O2_3 O 0.3286(3) 0.0006(2) 0.3576(2)
O5_2 O 0.0808(3) 0.2664(2) 0.1122(2)
O6_2 O 0.1134(4) 0.2392(2) 0.2377(2)
C7_3 C 0.3188(4) 0.0509(3) 0.2335(3)
C8_3 C 0.3585(4) 0.0487(3) 0.1723(3)
H7_3 H 0.410095 0.010596 0.172925
C9_3 C 0.3204(4) 0.1037(3) 0.1108(3)
C10_3 C 0.2443(4) 0.1602(3) 0.1105(3)
H8_3 H 0.217496 0.195846 0.068383
C11_3 C 0.2070(4) 0.1643(3) 0.1725(3)
C12_3 C 0.2438(4) 0.1086(3) 0.2335(3)
H9_3 H 0.218021 0.110084 0.274474
C14_3 C 0.3626(5) 0.1013(3) 0.0451(3)
C15_3 C 0.1276(4) 0.2287(3) 0.1739(3)
O8_3 O 0.6714(3) 0.0006(2) 0.1424(2)
O11_2 O 0.9192(3) 0.2664(2) 0.3878(2)
O12_2 O 0.8866(4) 0.2392(2) 0.2623(2)
C22_3 C 0.6812(4) 0.0509(3) 0.2665(3)
C23_3 C 0.6415(4) 0.0487(3) 0.3277(3)
H16_3 H 0.589905 0.010596 0.327075
C24_3 C 0.6796(4) 0.1037(3) 0.3892(3)
C25_3 C 0.7557(4) 0.1602(3) 0.3895(3)
H17_3 H 0.782504 0.195846 0.431617
C26_3 C 0.7930(4) 0.1643(3) 0.3275(3)
C27_3 C 0.7562(4) 0.1086(3) 0.2665(3)
H18_3 H 0.781979 0.110084 0.225526
C29_3 C 0.6374(5) 0.1013(3) 0.4549(3)
C30_3 C 0.8724(4) 0.2287(3) 0.3261(3)
O1_3 O 0.4215(3) 0.9351(2) 0.29896(18)
C13_3 C 0.3573(4) 0.9919(3) 0.3000(3)
O7_3 O 0.5785(3) 0.9351(2) 0.20104(18)
C28_3 C 0.6427(4) 0.9919(3) 0.2000(3)
O17_2 O 0.5808(3) 0.7664(2) 0.1122(2)
O18_2 O 0.4192(3) 0.7664(2) 0.3878(2)
O19_2 O 0.6134(4) 0.7392(2) 0.2377(2)
O20_2 O 0.3866(4) 0.7392(2) 0.2623(2)
O7_4 O 0.0785(3) 0.4351(2) 0.20104(18)
O8_4 O 0.1714(3) 0.5006(2) 0.1424(2)
C22_4 C 0.1812(4) 0.5509(3) 0.2665(3)
C23_4 C 0.1415(4) 0.5487(3) 0.3277(3)
H16_4 H 0.089905 0.510596 0.327075
C24_4 C 0.1796(4) 0.6037(3) 0.3892(3)
C25_4 C 0.2557(4) 0.6602(3) 0.3895(3)
H17_4 H 0.282504 0.695846 0.431617
C26_4 C 0.2930(4) 0.6643(3) 0.3275(3)
C27_4 C 0.2562(4) 0.6086(3) 0.2665(3)
H18_4 H 0.281979 0.610084 0.225526
C28_4 C 0.1427(4) 0.4919(3) 0.2000(3)
C29_4 C 0.1374(5) 0.6013(3) 0.4549(3)
C30_4 C 0.3724(4) 0.7287(3) 0.3261(3)
O1_4 O 0.9215(3) 0.4351(2) 0.29896(18)
O2_4 O 0.8286(3) 0.5006(2) 0.3576(2)
C7_4 C 0.8188(4) 0.5509(3) 0.2335(3)
C8_4 C 0.8585(4) 0.5487(3) 0.1723(3)
H7_4 H 0.910095 0.510596 0.172925
C9_4 C 0.8204(4) 0.6037(3) 0.1108(3)
C10_4 C 0.7443(4) 0.6602(3) 0.1105(3)
H8_4 H 0.717496 0.695846 0.068383
C11_4 C 0.7070(4) 0.6643(3) 0.1725(3)
C12_4 C 0.7438(4) 0.6086(3) 0.2335(3)
H9_4 H 0.718021 0.610084 0.274474
C13_4 C 0.8573(4) 0.4919(3) 0.3000(3)
C14_4 C 0.8626(5) 0.6013(3) 0.0451(3)
C15_4 C 0.6276(4) 0.7287(3) 0.1739(3)
loop_
_geom_bond_atom_site_label_1
_geom_bond_atom_site_label_2
_geom_bond_site_symmetry_1
_geom_bond_site_symmetry_2
Cd1 O1 1_555 1_555
Cd2 O1 1_555 1_555
O1 C13 1_555 1_555
N1 Cd1 1_555 1_555
N2 Cd2 1_555 1_555
N3 C4 1_555 1_555
C4 C1 1_555 1_555
H3 C4 1_555 1_555
H4 C4 1_555 1_555
C5 N1 1_555 1_555
H5 C5 1_555 1_555
C6 N2 1_555 1_555
H6 C6 1_555 1_555
Cd3 O7 1_555 1_555
O7 Cd1 1_555 1_555
C28 O7 1_555 1_555
O14 Cd2 1_555 1_555
O15 Cd3 1_555 1_555
O16 Cd2 1_555 1_555
O17 Cd3 1_555 1_555
O18 Cd2 1_555 1_555
O19 Cd1 1_555 1_555
O20 Cd1 1_555 1_555
N7 Cd1 1_555 1_555
N8 Cd3 1_555 1_555
N1 N2 1_555 1_555
N3 C5 1_555 1_555
N3 C6 1_555 1_555
N7 N8 1_555 1_555
O4 Cd11 1_555 1_555
O3 C14 1_555 1_555
O5 C15 1_555 1_555
O6 C15 1_555 1_555
C2 H1 1_555 1_555
C7 C8 1_555 1_555
C8 H7 1_555 1_555
C9 C8 1_555 1_555
C10 C9 1_555 1_555
H8 C10 1_555 1_555
C11 C10 1_555 1_555
C12 C7 1_555 1_555
H9 C12 1_555 1_555
C14 C9 1_555 1_555
C15 C11 1_555 1_555
C18 C2 1_555 1_555
H11 C18 1_555 1_555
O9 C29 1_555 1_555
O10 C29 1_555 1_555
O11 C30 1_555 1_555
O12 C30 1_555 1_555
C22 C23 1_555 1_555
C23 H16 1_555 1_555
C24 C23 1_555 1_555
C25 C24 1_555 1_555
H17 C25 1_555 1_555
C26 C25 1_555 1_555
C27 C22 1_555 1_555
H18 C27 1_555 1_555
C29 C24 1_555 1_555
C30 C26 1_555 1_555
Cd5 O12 1_555 1_555
Cd5_2 O6 1_555 1_555
Cd7 O11 1_555 1_555
Cd8 O5 1_555 1_555
Cd10 O9 1_555 1_555
C11 C12 1_555 1_555
O10 Cd10 1_555 1_555
C26 C27 1_555 1_555
H2 C3 1_555 1_555
C17 C3 1_555 1_555
H10 C17 1_555 1_555
N4 N5 1_555 1_555
N5 C21 1_555 1_555
N6 C19 1_555 1_555
C19 C16 1_555 1_555
H12 C19 1_555 1_555
H13 C19 1_555 1_555
C20 N4 1_555 1_555
H14 C20 1_555 1_555
C21 N6 1_555 1_555
H15 C21 1_555 1_555
Cd6 N4 1_555 1_555
Cd10 N5 1_555 1_555
N6 C20 1_555 1_555
H2_2 C3_2 1_555 1_555
C17_2 C3_2 1_555 1_555
H10_2 C17_2 1_555 1_555
N4_2 N5_2 1_555 1_555
N5_2 C21_2 1_555 1_555
C20_2 N4_2 1_555 1_555
H14_2 C20_2 1_555 1_555
C21_2 N6_2 1_555 1_555
Cd6 N4_2 1_555 1_555
Cd11 N5_2 1_555 1_555
N6_2 C20_2 1_555 1_555
C19_2 C16_2 1_555 1_555
H12_2 C19_2 1_555 1_555
H13_2 C19_2 1_555 1_555
C4_2 C1_2 1_555 1_555
H3_2 C4_2 1_555 1_555
H4_2 C4_2 1_555 1_555
C5_2 N7 1_555 1_555
H5_2 C5_2 1_555 1_555
C6_2 N8 1_555 1_555
N3_2 C5_2 1_555 1_555
N3_2 C6_2 1_555 1_555
C2_2 H1_2 1_555 1_555
C18_2 C2_2 1_555 1_555
H11_2 C18_2 1_555 1_555
O4_2 Cd11_2 1_555 1_555
Cd5 O1_2 1_555 1_555
Cd7 O1_2 1_555 1_555
O1_2 C13_2 1_555 1_555
O2_2 Cd7 1_555 1_555
O3_2 C14_2 1_555 1_555
O17 C15_2 1_555 1_555
O19 C15_2 1_555 1_555
C7_2 C8_2 1_555 1_555
C8_2 H7_2 1_555 1_555
C9_2 C8_2 1_555 1_555
C10_2 C9_2 1_555 1_555
H8_2 C10_2 1_555 1_555
C11_2 C10_2 1_555 1_555
C12_2 C7_2 1_555 1_555
H9_2 C12_2 1_555 1_555
C13_2 O2_2 1_555 1_555
C14_2 C9_2 1_555 1_555
C15_2 C11_2 1_555 1_555
O14_2 Cd7 1_555 1_555
O16_2 Cd7 1_555 1_555
N7_2 Cd5 1_555 1_555
C7_2 C13_2 1_555 1_555
C11_2 C12_2 1_555 1_555
N7_2 N8_2 1_555 1_555
N1_2 Cd5_2 1_555 1_555
N3_3 C4_3 1_555 1_555
C1_3 C2_3 1_555 1_555
C2_3 H1_3 1_555 1_555
C3_3 C1_3 1_555 1_555
H2_3 C3_3 1_555 1_555
C4_3 C1_3 1_555 1_555
H3_3 C4_3 1_555 1_555
H4_3 C4_3 1_555 1_555
C5_3 N1_2 1_555 1_555
H5_3 C5_3 1_555 1_555
C6_3 N2_2 1_555 1_555
H6_3 C6_3 1_555 1_555
N4_3 N5_3 1_555 1_555
N5_3 C21_3 1_555 1_555
N6_3 C19_3 1_555 1_555
C16_3 C17_3 1_555 1_555
C17_3 C3_3 1_555 1_555
H10_3 C17_3 1_555 1_555
C18_3 C2_3 1_555 1_555
H11_3 C18_3 1_555 1_555
C19_3 C16_3 1_555 1_555
H12_3 C19_3 1_555 1_555
H13_3 C19_3 1_555 1_555
C20_3 N4_3 1_555 1_555
H14_3 C20_3 1_555 1_555
C21_3 N6_3 1_555 1_555
H15_3 C21_3 1_555 1_555
Cd8 O7_2 1_555 1_555
O7_2 Cd5_2 1_555 1_555
O8_2 Cd8 1_555 1_555
O9_2 C29_2 1_555 1_555
O10_2 C29_2 1_555 1_555
O18 C30_2 1_555 1_555
O20 C30_2 1_555 1_555
C22_2 C23_2 1_555 1_555
C23_2 H16_2 1_555 1_555
C24_2 C23_2 1_555 1_555
C25_2 C24_2 1_555 1_555
H17_2 C25_2 1_555 1_555
C26_2 C25_2 1_555 1_555
C27_2 C22_2 1_555 1_555
H18_2 C27_2 1_555 1_555
C28_2 O7_2 1_555 1_555
C29_2 C24_2 1_555 1_555
C30_2 C26_2 1_555 1_555
Cd6_2 N4_3 1_555 1_555
Cd10_2 O9_2 1_555 1_555
O15_2 Cd8 1_555 1_555
N1_2 N2_2 1_555 1_555
N3_3 C5_3 1_555 1_555
N3_3 C6_3 1_555 1_555
N6_3 C20_3 1_555 1_555
C16_3 C18_3 1_555 1_555
O8_2 C28_2 1_555 1_555
O10_2 Cd10_2 1_555 1_555
C22_2 C28_2 1_555 1_555
C26_2 C27_2 1_555 1_555
C1_4 C2_4 1_555 1_555
C2_4 H1_4 1_555 1_555
C4_4 C1_4 1_555 1_555
H3_4 C4_4 1_555 1_555
H4_4 C4_4 1_555 1_555
N4_4 N5_4 1_555 1_555
N5_4 C21_4 1_555 1_555
C18_4 C2_4 1_555 1_555
H11_4 C18_4 1_555 1_555
C20_4 N4_4 1_555 1_555
H14_4 C20_4 1_555 1_555
C21_4 N6_4 1_555 1_555
Cd6_3 N4_4 1_555 1_555
N6_4 C20_4 1_555 1_555
H2_4 C3_4 1_555 1_555
C5_4 N7_2 1_555 1_555
H5_4 C5_4 1_555 1_555
C6_4 N8_2 1_555 1_555
C16_4 C17_4 1_555 1_555
C17_4 C3_4 1_555 1_555
H10_4 C17_4 1_555 1_555
C19_4 C16_4 1_555 1_555
H12_4 C19_4 1_555 1_555
H13_4 C19_4 1_555 1_555
N3_4 C5_4 1_555 1_555
N3_4 C6_4 1_555 1_555
O13 C14_3 1_555 1_555
O5_2 C15_3 1_555 1_555
O6_2 C15_3 1_555 1_555
C7_3 C8_3 1_555 1_555
C8_3 H7_3 1_555 1_555
C9_3 C8_3 1_555 1_555
C10_3 C9_3 1_555 1_555
H8_3 C10_3 1_555 1_555
C11_3 C10_3 1_555 1_555
C12_3 C7_3 1_555 1_555
H9_3 C12_3 1_555 1_555
C14_3 C9_3 1_555 1_555
C15_3 C11_3 1_555 1_555
O14 C29_3 1_555 1_555
O16 C29_3 1_555 1_555
O11_2 C30_3 1_555 1_555
O12_2 C30_3 1_555 1_555
C22_3 C23_3 1_555 1_555
C23_3 H16_3 1_555 1_555
C24_3 C23_3 1_555 1_555
C25_3 C24_3 1_555 1_555
H17_3 C25_3 1_555 1_555
C26_3 C25_3 1_555 1_555
C27_3 C22_3 1_555 1_555
H18_3 C27_3 1_555 1_555
C29_3 C24_3 1_555 1_555
C30_3 C26_3 1_555 1_555
Cd6_3 O12_2 1_555 1_555
Cd6_2 O6_2 1_555 1_555
Cd10_2 O11_2 1_555 1_555
Cd11_2 O5_2 1_555 1_555
C11_3 C12_3 1_555 1_555
C26_3 C27_3 1_555 1_555
Cd6 O1_3 1_555 1_555
Cd10 O1_3 1_555 1_555
O1_3 C13_3 1_555 1_555
Cd11 O7_3 1_555 1_555
O7_3 Cd6 1_555 1_555
C28_3 O7_3 1_555 1_555
O17_2 Cd11 1_555 1_555
O18_2 Cd10 1_555 1_555
O19_2 Cd6 1_555 1_555
O20_2 Cd6 1_555 1_555
Cd11_2 O7_4 1_555 1_555
O7_4 Cd6_2 1_555 1_555
O8_4 Cd11_2 1_555 1_555
O14_2 C29_4 1_555 1_555
O16_2 C29_4 1_555 1_555
O18_2 C30_4 1_555 1_555
O20_2 C30_4 1_555 1_555
C22_4 C23_4 1_555 1_555
C23_4 H16_4 1_555 1_555
C24_4 C23_4 1_555 1_555
C25_4 C24_4 1_555 1_555
H17_4 C25_4 1_555 1_555
C26_4 C25_4 1_555 1_555
C27_4 C22_4 1_555 1_555
H18_4 C27_4 1_555 1_555
C28_4 O7_4 1_555 1_555
C29_4 C24_4 1_555 1_555
C30_4 C26_4 1_555 1_555
O8_4 C28_4 1_555 1_555
C22_4 C28_4 1_555 1_555
C26_4 C27_4 1_555 1_555
Cd6_3 O1_4 1_555 1_555
Cd10_2 O1_4 1_555 1_555
O1_4 C13_4 1_555 1_555
O2_4 Cd10_2 1_555 1_555
O13_2 C14_4 1_555 1_555
O17_2 C15_4 1_555 1_555
O19_2 C15_4 1_555 1_555
C7_4 C8_4 1_555 1_555
C8_4 H7_4 1_555 1_555
C9_4 C8_4 1_555 1_555
C10_4 C9_4 1_555 1_555
H8_4 C10_4 1_555 1_555
C11_4 C10_4 1_555 1_555
C12_4 C7_4 1_555 1_555
H9_4 C12_4 1_555 1_555
C13_4 O2_4 1_555 1_555
C14_4 C9_4 1_555 1_555
C15_4 C11_4 1_555 1_555
C7_4 C13_4 1_555 1_555
C11_4 C12_4 1_555 1_555

#END
