
###############################################################################
#
# This file contains modified crystal structure data generated from the
# MOF subset of the Cambridge Structural Database (CSD) v543 
# hosted by the Cambridge Crystallographic Data Centre (CCDC).
#
# This work is licensed under the Creative Commons
# Attribution-NonCommercial-ShareAlike 4.0 International License.
# To view a copy of this license, visit
# http://creativecommons.org/licenses/by-nc-sa/4.0/
# or send a letter to
# Creative Commons, PO Box 1866, Mountain View, CA 94042, USA.
#
# CIF created using the CSD Python API on 29 September 2022
# The structure has been converted into the P1 space group
# The structure has a 3D framework
# The original CSD entry HEHLAK is in the tetragonal crystal system
# The framework has been calculated to contain at least 10.0% void space
# The void calculation uses a probe of radius 1.32A, grid spacing 0.4
# The framework is charged, counterions have been retained in the structure
# H atom positions have been added when not included in the experimental data
# Generated hydrogen atom positions removed from atoms on special positions
#
###############################################################################

data_HEHLAK
_chemical_formula_moiety         '(C112 H176 Cl25 Cu10 N16 O10 Si8 5-)n'
_symmetry_cell_setting           triclinic
_symmetry_space_group_name_H-M   'P 1'
_symmetry_Int_Tables_number      1
_space_group_name_Hall           'P 1'
loop_
_symmetry_equiv_pos_site_id
_symmetry_equiv_pos_as_xyz
1 x,y,z
_cell_length_a                   14.104(9)
_cell_length_b                   14.104(9)
_cell_length_c                   19.100(12)
_cell_angle_alpha                90
_cell_angle_beta                 90
_cell_angle_gamma                90
_cell_volume                     3799.43
loop_
_atom_site_label
_atom_site_type_symbol
_atom_site_fract_x
_atom_site_fract_y
_atom_site_fract_z
Cl1 Cl 0.6806(4) 0.5043(4) 0.8714(3)
Cl1_2 Cl 0.3194(4) 0.4957(4) 0.8714(3)
Cl1_3 Cl 0.4957(4) 0.6806(4) 0.8714(3)
Cl1_4 Cl 0.5043(4) 0.3194(4) 0.8714(3)
Cl1_5 Cl 0.1806(4) 0.0043(4) 0.3714(3)
Cl1_6 Cl 0.8194(4) 0.9957(4) 0.3714(3)
Cl1_7 Cl 0.9957(4) 0.1806(4) 0.3714(3)
Cl1_8 Cl 0.0043(4) 0.8194(4) 0.3714(3)
Cl1_9 Cl 0.3194(4) 0.4957(4) 0.1286(3)
Cl1_10 Cl 0.6806(4) 0.5043(4) 0.1286(3)
Cl1_11 Cl 0.5043(4) 0.3194(4) 0.1286(3)
Cl1_12 Cl 0.4957(4) 0.6806(4) 0.1286(3)
Cl1_13 Cl 0.8194(4) 0.9957(4) 0.6286(3)
Cl1_14 Cl 0.1806(4) 0.0043(4) 0.6286(3)
Cl1_15 Cl 0.0043(4) 0.8194(4) 0.6286(3)
Cl1_16 Cl 0.9957(4) 0.1806(4) 0.6286(3)
Cu8 Cu -0.0000 -0.0000 0.85826(6)
Si1 Si -0.0000 0.5000 0.7500
C8 C 0.0896(3) 0.4407(3) 0.6927(2)
H9 H 0.0560 0.4011 0.6578
H10 H 0.1254 0.4899 0.6669
C9 C 0.1602(3) 0.3779(3) 0.7332(2)
H11 H 0.1821 0.4117 0.7757
H12 H 0.1283 0.3188 0.7482
C10 C 0.2434(3) 0.3540(3) 0.6883(2)
C11 C 0.3208(3) 0.4138(3) 0.6874(2)
H13 H 0.3220 0.4652 0.7195
N2 N 0.3945(3) 0.4031(3) 0.64362(18)
C12 C 0.3933(3) 0.3288(3) 0.5995(2)
H14 H 0.4446 0.3208 0.5678
C13 C 0.2438(3) 0.2775(3) 0.6432(2)
H15 H 0.1921 0.2344 0.6425
C14 C 0.3206(3) 0.2642(3) 0.5988(3)
H16 H 0.3228 0.2110 0.5684
C15 C 0.0593(3) 0.5896(3) 0.8073(2)
H17 H 0.0989 0.5560 0.8422
H18 H 0.0101 0.6254 0.8331
C16 C 0.1221(3) 0.6602(3) 0.7668(2)
H19 H 0.0883 0.6821 0.7243
H20 H 0.1812 0.6283 0.7518
C17 C 0.1460(3) 0.7434(3) 0.8117(2)
C18 C 0.0862(3) 0.8208(3) 0.8126(2)
H21 H 0.0348 0.8220 0.7805
N3 N 0.0969(3) 0.8945(3) 0.85638(18)
C19 C 0.1712(3) 0.8933(3) 0.9005(2)
H22 H 0.1792 0.9446 0.9322
C20 C 0.2225(3) 0.7438(3) 0.8568(2)
H23 H 0.2656 0.6921 0.8575
C21 C 0.2358(3) 0.8206(3) 0.9012(3)
H24 H 0.2890 0.8228 0.9316
Cu4 Cu 0.5000 0.5000 0.64174(6)
Cu8_2 Cu -0.0000 1.0000 0.85826(6)
Cu8_3 Cu 1.0000 -0.0000 0.85826(6)
Cl2 Cl 0.5000 0.5000 0.5000
Si1_2 Si 1.0000 0.5000 0.7500
C1 C 0.9104(3) 0.5593(3) 0.6927(2)
H1 H 0.9440 0.5989 0.6578
H2 H 0.8746 0.5101 0.6669
C2 C 0.8398(3) 0.6221(3) 0.7332(2)
H3 H 0.8179 0.5883 0.7757
H4 H 0.8717 0.6812 0.7482
C3 C 0.7566(3) 0.6460(3) 0.6883(2)
C4 C 0.6792(3) 0.5862(3) 0.6874(2)
H5 H 0.6780 0.5348 0.7195
N1 N 0.6055(3) 0.5969(3) 0.64362(18)
C5 C 0.6067(3) 0.6712(3) 0.5995(2)
H6 H 0.5554 0.6792 0.5678
C6 C 0.7562(3) 0.7225(3) 0.6432(2)
H7 H 0.8079 0.7656 0.6425
C7 C 0.6794(3) 0.7358(3) 0.5988(3)
H8 H 0.6772 0.7890 0.5684
O1 O 0.5000 0.5000 0.7886(3)
C22 C 0.9407(3) 0.4104(3) 0.8073(2)
H25 H 0.9011 0.4440 0.8422
H26 H 0.9899 0.3746 0.8331
C23 C 0.8779(3) 0.3398(3) 0.7668(2)
H27 H 0.9117 0.3179 0.7243
H28 H 0.8188 0.3717 0.7518
C24 C 0.8540(3) 0.2566(3) 0.8117(2)
C25 C 0.9138(3) 0.1792(3) 0.8126(2)
H29 H 0.9652 0.1780 0.7805
N4 N 0.9031(3) 0.1055(3) 0.85638(18)
C26 C 0.8288(3) 0.1067(3) 0.9005(2)
H30 H 0.8208 0.0554 0.9322
C27 C 0.7775(3) 0.2562(3) 0.8568(2)
H31 H 0.7344 0.3079 0.8575
C28 C 0.7642(3) 0.1794(3) 0.9012(3)
H32 H 0.7110 0.1772 0.9316
Cu2 Cu 0.5000 0.5000 0.35826(6)
O2 O 0.5000 0.5000 0.2114(3)
Cu8_4 Cu 1.0000 1.0000 0.85826(6)
N9 N 0.4031(3) 0.6055(3) 0.64362(18)
N10 N 0.5969(3) 0.3945(3) 0.64362(18)
N11 N 0.3945(3) 0.4031(3) 0.35638(18)
N12 N 0.6055(3) 0.5969(3) 0.35638(18)
N13 N 0.5969(3) 0.3945(3) 0.35638(18)
N14 N 0.4031(3) 0.6055(3) 0.35638(18)
Si1_3 Si 0.5000 -0.0000 0.7500
C8_2 C 0.5593(3) 0.0896(3) 0.6927(2)
H9_2 H 0.5989 0.0560 0.6578
H10_2 H 0.5101 0.1254 0.6669
C9_2 C 0.6221(3) 0.1602(3) 0.7332(2)
H11_2 H 0.5883 0.1821 0.7757
H12_2 H 0.6812 0.1283 0.7482
C10_2 C 0.6460(3) 0.2434(3) 0.6883(2)
C11_2 C 0.5862(3) 0.3208(3) 0.6874(2)
H13_2 H 0.5348 0.3220 0.7195
C12_2 C 0.6712(3) 0.3933(3) 0.5995(2)
H14_2 H 0.6792 0.4446 0.5678
C13_2 C 0.7225(3) 0.2438(3) 0.6432(2)
H15_2 H 0.7656 0.1921 0.6425
C14_2 C 0.7358(3) 0.3206(3) 0.5988(3)
H16_2 H 0.7890 0.3228 0.5684
C15_2 C 0.4104(3) 0.0593(3) 0.8073(2)
H17_2 H 0.4440 0.0989 0.8422
H18_2 H 0.3746 0.0101 0.8331
C16_2 C 0.3398(3) 0.1221(3) 0.7668(2)
H19_2 H 0.3179 0.0883 0.7243
H20_2 H 0.3717 0.1812 0.7518
C17_2 C 0.2566(3) 0.1460(3) 0.8117(2)
C18_2 C 0.1792(3) 0.0862(3) 0.8126(2)
H21_2 H 0.1780 0.0348 0.7805
N3_2 N 0.1055(3) 0.0969(3) 0.85638(18)
C19_2 C 0.1067(3) 0.1712(3) 0.9005(2)
H22_2 H 0.0554 0.1792 0.9322
C20_2 C 0.2562(3) 0.2225(3) 0.8568(2)
H23_2 H 0.3079 0.2656 0.8575
C21_2 C 0.1794(3) 0.2358(3) 0.9012(3)
H24_2 H 0.1772 0.2890 0.9316
Si1_4 Si 0.5000 1.0000 0.7500
C1_2 C 0.4407(3) 0.9104(3) 0.6927(2)
H1_2 H 0.4011 0.9440 0.6578
H2_2 H 0.4899 0.8746 0.6669
C2_2 C 0.3779(3) 0.8398(3) 0.7332(2)
H3_2 H 0.4117 0.8179 0.7757
H4_2 H 0.3188 0.8717 0.7482
C3_2 C 0.3540(3) 0.7566(3) 0.6883(2)
C4_2 C 0.4138(3) 0.6792(3) 0.6874(2)
H5_2 H 0.4652 0.6780 0.7195
C5_2 C 0.3288(3) 0.6067(3) 0.5995(2)
H6_2 H 0.3208 0.5554 0.5678
C6_2 C 0.2775(3) 0.7562(3) 0.6432(2)
H7_2 H 0.2344 0.8079 0.6425
C7_2 C 0.2642(3) 0.6794(3) 0.5988(3)
H8_2 H 0.2110 0.6772 0.5684
C22_2 C 0.5896(3) 0.9407(3) 0.8073(2)
H25_2 H 0.5560 0.9011 0.8422
H26_2 H 0.6254 0.9899 0.8331
C23_2 C 0.6602(3) 0.8779(3) 0.7668(2)
H27_2 H 0.6821 0.9117 0.7243
H28_2 H 0.6283 0.8188 0.7518
C24_2 C 0.7434(3) 0.8540(3) 0.8117(2)
C25_2 C 0.8208(3) 0.9138(3) 0.8126(2)
H29_2 H 0.8220 0.9652 0.7805
N4_2 N 0.8945(3) 0.9031(3) 0.85638(18)
C26_2 C 0.8933(3) 0.8288(3) 0.9005(2)
H30_2 H 0.9446 0.8208 0.9322
C27_2 C 0.7438(3) 0.7775(3) 0.8568(2)
H31_2 H 0.6921 0.7344 0.8575
C28_2 C 0.8206(3) 0.7642(3) 0.9012(3)
H32_2 H 0.8228 0.7110 0.9316
Cu4_2 Cu 0.0000 -0.0000 0.14174(6)
Cu4_3 Cu -0.0000 1.0000 0.14174(6)
Cl2_2 Cl -0.0000 -0.0000 0.0000
Si1_5 Si 0.5000 -0.0000 0.2500
C1_3 C 0.4104(3) 0.0593(3) 0.1927(2)
H1_3 H 0.4440 0.0989 0.1578
H2_3 H 0.3746 0.0101 0.1669
C2_3 C 0.3398(3) 0.1221(3) 0.2332(2)
H3_3 H 0.3179 0.0883 0.2757
H4_3 H 0.3717 0.1812 0.2482
C3_3 C 0.2566(3) 0.1460(3) 0.1883(2)
C4_3 C 0.1792(3) 0.0862(3) 0.1874(2)
H5_3 H 0.1780 0.0348 0.2195
N1_2 N 0.1055(3) 0.0969(3) 0.14362(18)
C5_3 C 0.1067(3) 0.1712(3) 0.0995(2)
H6_3 H 0.0554 0.1792 0.0678
C6_3 C 0.2562(3) 0.2225(3) 0.1432(2)
H7_3 H 0.3079 0.2656 0.1425
C7_3 C 0.1794(3) 0.2358(3) 0.0988(3)
H8_3 H 0.1772 0.2890 0.0684
O1_2 O -0.0000 -0.0000 0.2886(3)
C15_3 C 0.5593(3) 0.0896(3) 0.3073(2)
H17_3 H 0.5989 0.0560 0.3422
H18_3 H 0.5101 0.1254 0.3331
C16_3 C 0.6221(3) 0.1602(3) 0.2668(2)
H19_3 H 0.5883 0.1821 0.2243
H20_3 H 0.6812 0.1283 0.2518
C17_3 C 0.6460(3) 0.2434(3) 0.3117(2)
C18_3 C 0.5862(3) 0.3208(3) 0.3126(2)
H21_3 H 0.5348 0.3220 0.2805
C19_3 C 0.6712(3) 0.3933(3) 0.4005(2)
H22_3 H 0.6792 0.4446 0.4322
C20_3 C 0.7225(3) 0.2438(3) 0.3568(2)
H23_3 H 0.7656 0.1921 0.3575
C21_3 C 0.7358(3) 0.3206(3) 0.4012(3)
H24_3 H 0.7890 0.3228 0.4316
Cu4_4 Cu 1.0000 -0.0000 0.14174(6)
Cl2_3 Cl -0.0000 -0.0000 1.0000
O2_2 O -0.0000 0.0000 0.7114(3)
Cl2_4 Cl -0.0000 1.0000 0.0000
Si1_6 Si 0.5000 1.0000 0.2500
O1_3 O -0.0000 1.0000 0.2886(3)
C8_3 C 0.5896(3) 0.9407(3) 0.1927(2)
H9_3 H 0.5560 0.9011 0.1578
H10_3 H 0.6254 0.9899 0.1669
C9_3 C 0.6602(3) 0.8779(3) 0.2332(2)
H11_3 H 0.6821 0.9117 0.2757
H12_3 H 0.6283 0.8188 0.2482
C10_3 C 0.7434(3) 0.8540(3) 0.1883(2)
C11_3 C 0.8208(3) 0.9138(3) 0.1874(2)
H13_3 H 0.8220 0.9652 0.2195
N2_2 N 0.8945(3) 0.9031(3) 0.14362(18)
C12_3 C 0.8933(3) 0.8288(3) 0.0995(2)
H14_3 H 0.9446 0.8208 0.0678
C13_3 C 0.7438(3) 0.7775(3) 0.1432(2)
H15_3 H 0.6921 0.7344 0.1425
C14_3 C 0.8206(3) 0.7642(3) 0.0988(3)
H16_3 H 0.8228 0.7110 0.0684
C22_3 C 0.4407(3) 0.9104(3) 0.3073(2)
H25_3 H 0.4011 0.9440 0.3422
H26_3 H 0.4899 0.8746 0.3331
C23_3 C 0.3779(3) 0.8398(3) 0.2668(2)
H27_3 H 0.4117 0.8179 0.2243
H28_3 H 0.3188 0.8717 0.2518
C24_3 C 0.3540(3) 0.7566(3) 0.3117(2)
C25_3 C 0.4138(3) 0.6792(3) 0.3126(2)
H29_3 H 0.4652 0.6780 0.2805
C26_3 C 0.3288(3) 0.6067(3) 0.4005(2)
H30_3 H 0.3208 0.5554 0.4322
C27_3 C 0.2775(3) 0.7562(3) 0.3568(2)
H31_3 H 0.2344 0.8079 0.3575
C28_3 C 0.2642(3) 0.6794(3) 0.4012(3)
H32_3 H 0.2110 0.6772 0.4316
Cu4_5 Cu 1.0000 1.0000 0.14174(6)
N10_2 N 0.0969(3) 0.8945(3) 0.14362(18)
Cl2_5 Cl -0.0000 1.0000 1.0000
O2_3 O -0.0000 1.0000 0.7114(3)
Cl2_6 Cl 1.0000 -0.0000 0.0000
O1_4 O 1.0000 -0.0000 0.2886(3)
N9_2 N 0.9031(3) 0.1055(3) 0.14362(18)
Cl2_7 Cl 1.0000 -0.0000 1.0000
O2_4 O 1.0000 0.0000 0.7114(3)
Cl2_8 Cl 1.0000 1.0000 0.0000
O1_5 O 1.0000 1.0000 0.2886(3)
Cl2_9 Cl 1.0000 1.0000 1.0000
O2_5 O 1.0000 1.0000 0.7114(3)
Si1_7 Si 0.0000 0.5000 0.2500
C8_4 C 0.0593(3) 0.5896(3) 0.1927(2)
H9_4 H 0.0989 0.5560 0.1578
H10_4 H 0.0101 0.6254 0.1669
C9_4 C 0.1221(3) 0.6602(3) 0.2332(2)
H11_4 H 0.0883 0.6821 0.2757
H12_4 H 0.1812 0.6283 0.2482
C10_4 C 0.1460(3) 0.7434(3) 0.1883(2)
C11_4 C 0.0862(3) 0.8208(3) 0.1874(2)
H13_4 H 0.0348 0.8220 0.2195
C12_4 C 0.1712(3) 0.8933(3) 0.0995(2)
H14_4 H 0.1792 0.9446 0.0678
C13_4 C 0.2225(3) 0.7438(3) 0.1432(2)
H15_4 H 0.2656 0.6921 0.1425
C14_4 C 0.2358(3) 0.8206(3) 0.0988(3)
H16_4 H 0.2890 0.8228 0.0684
C22_4 C 0.0896(3) 0.4407(3) 0.3073(2)
H25_4 H 0.0560 0.4011 0.3422
H26_4 H 0.1254 0.4899 0.3331
C23_4 C 0.1602(3) 0.3779(3) 0.2668(2)
H27_4 H 0.1821 0.4117 0.2243
H28_4 H 0.1283 0.3188 0.2518
C24_4 C 0.2434(3) 0.3540(3) 0.3117(2)
C25_4 C 0.3208(3) 0.4138(3) 0.3126(2)
H29_4 H 0.3220 0.4652 0.2805
C26_4 C 0.3933(3) 0.3288(3) 0.4005(2)
H30_4 H 0.4446 0.3208 0.4322
C27_4 C 0.2438(3) 0.2775(3) 0.3568(2)
H31_4 H 0.1921 0.2344 0.3575
C28_4 C 0.3206(3) 0.2642(3) 0.4012(3)
H32_4 H 0.3228 0.2110 0.4316
Si1_8 Si 1.0000 0.5000 0.2500
C1_4 C 0.9407(3) 0.4104(3) 0.1927(2)
H1_4 H 0.9011 0.4440 0.1578
H2_4 H 0.9899 0.3746 0.1669
C2_4 C 0.8779(3) 0.3398(3) 0.2332(2)
H3_4 H 0.9117 0.3179 0.2757
H4_4 H 0.8188 0.3717 0.2482
C3_4 C 0.8540(3) 0.2566(3) 0.1883(2)
C4_4 C 0.9138(3) 0.1792(3) 0.1874(2)
H5_4 H 0.9652 0.1780 0.2195
C5_4 C 0.8288(3) 0.1067(3) 0.0995(2)
H6_4 H 0.8208 0.0554 0.0678
C6_4 C 0.7775(3) 0.2562(3) 0.1432(2)
H7_4 H 0.7344 0.3079 0.1425
C7_4 C 0.7642(3) 0.1794(3) 0.0988(3)
H8_4 H 0.7110 0.1772 0.0684
C15_4 C 0.9104(3) 0.5593(3) 0.3073(2)
H17_4 H 0.9440 0.5989 0.3422
H18_4 H 0.8746 0.5101 0.3331
C16_4 C 0.8398(3) 0.6221(3) 0.2668(2)
H19_4 H 0.8179 0.5883 0.2243
H20_4 H 0.8717 0.6812 0.2518
C17_4 C 0.7566(3) 0.6460(3) 0.3117(2)
C18_4 C 0.6792(3) 0.5862(3) 0.3126(2)
H21_4 H 0.6780 0.5348 0.2805
C19_4 C 0.6067(3) 0.6712(3) 0.4005(2)
H22_4 H 0.5554 0.6792 0.4322
C20_4 C 0.7562(3) 0.7225(3) 0.3568(2)
H23_4 H 0.8079 0.7656 0.3575
C21_4 C 0.6794(3) 0.7358(3) 0.4012(3)
H24_4 H 0.6772 0.7890 0.4316
loop_
_geom_bond_atom_site_label_1
_geom_bond_atom_site_label_2
_geom_bond_site_symmetry_1
_geom_bond_site_symmetry_2
C8 Si1 1_555 1_555
H9 C8 1_555 1_555
H10 C8 1_555 1_555
C9 C8 1_555 1_555
H11 C9 1_555 1_555
H12 C9 1_555 1_555
C10 C9 1_555 1_555
C11 C10 1_555 1_555
H13 C11 1_555 1_555
N2 C11 1_555 1_555
C12 N2 1_555 1_555
H14 C12 1_555 1_555
C13 C10 1_555 1_555
H15 C13 1_555 1_555
C14 C12 1_555 1_555
H16 C14 1_555 1_555
C15 Si1 1_555 1_555
H17 C15 1_555 1_555
H18 C15 1_555 1_555
C16 C15 1_555 1_555
H19 C16 1_555 1_555
H20 C16 1_555 1_555
C17 C16 1_555 1_555
C18 C17 1_555 1_555
H21 C18 1_555 1_555
N3 C18 1_555 1_555
C19 N3 1_555 1_555
H22 C19 1_555 1_555
C20 C17 1_555 1_555
H23 C20 1_555 1_555
C21 C19 1_555 1_555
H24 C21 1_555 1_555
Cu4 N2 1_555 1_555
Cu8_2 N3 1_555 1_555
C13 C14 1_555 1_555
C20 C21 1_555 1_555
Cu4 Cl2 1_555 1_555
Cl2 Cu2 1_555 1_555
Si1_2 C1 1_555 1_555
C1 H1 1_555 1_555
H2 C1 1_555 1_555
C2 C1 1_555 1_555
H3 C2 1_555 1_555
H4 C2 1_555 1_555
C3 C2 1_555 1_555
C4 C3 1_555 1_555
H5 C4 1_555 1_555
N1 Cu4 1_555 1_555
C5 N1 1_555 1_555
H6 C5 1_555 1_555
C6 C3 1_555 1_555
H7 C6 1_555 1_555
C7 C5 1_555 1_555
H8 C7 1_555 1_555
O1 Cu4 1_555 1_555
C22 Si1_2 1_555 1_555
H25 C22 1_555 1_555
H26 C22 1_555 1_555
C23 C22 1_555 1_555
H27 C23 1_555 1_555
H28 C23 1_555 1_555
C24 C23 1_555 1_555
C25 C24 1_555 1_555
H29 C25 1_555 1_555
N4 C25 1_555 1_555
C26 N4 1_555 1_555
H30 C26 1_555 1_555
C27 C24 1_555 1_555
H31 C27 1_555 1_555
C28 C26 1_555 1_555
H32 C28 1_555 1_555
Cu2 O2 1_555 1_555
Cu8_3 N4 1_555 1_555
N9 Cu4 1_555 1_555
N10 Cu4 1_555 1_555
N11 Cu2 1_555 1_555
N12 Cu2 1_555 1_555
N13 Cu2 1_555 1_555
N14 Cu2 1_555 1_555
C4 N1 1_555 1_555
C6 C7 1_555 1_555
C27 C28 1_555 1_555
C8_2 Si1_3 1_555 1_555
H9_2 C8_2 1_555 1_555
H10_2 C8_2 1_555 1_555
C9_2 C8_2 1_555 1_555
H11_2 C9_2 1_555 1_555
H12_2 C9_2 1_555 1_555
C10_2 C9_2 1_555 1_555
C11_2 C10_2 1_555 1_555
H13_2 C11_2 1_555 1_555
N10 C11_2 1_555 1_555
C12_2 N10 1_555 1_555
H14_2 C12_2 1_555 1_555
C13_2 C10_2 1_555 1_555
H15_2 C13_2 1_555 1_555
C14_2 C12_2 1_555 1_555
H16_2 C14_2 1_555 1_555
C15_2 Si1_3 1_555 1_555
H17_2 C15_2 1_555 1_555
H18_2 C15_2 1_555 1_555
C16_2 C15_2 1_555 1_555
H19_2 C16_2 1_555 1_555
H20_2 C16_2 1_555 1_555
C17_2 C16_2 1_555 1_555
C18_2 C17_2 1_555 1_555
H21_2 C18_2 1_555 1_555
N3_2 C18_2 1_555 1_555
C19_2 N3_2 1_555 1_555
H22_2 C19_2 1_555 1_555
C20_2 C17_2 1_555 1_555
H23_2 C20_2 1_555 1_555
C21_2 C19_2 1_555 1_555
H24_2 C21_2 1_555 1_555
Cu8 N3_2 1_555 1_555
C13_2 C14_2 1_555 1_555
C20_2 C21_2 1_555 1_555
Si1_4 C1_2 1_555 1_555
C1_2 H1_2 1_555 1_555
H2_2 C1_2 1_555 1_555
C2_2 C1_2 1_555 1_555
H3_2 C2_2 1_555 1_555
H4_2 C2_2 1_555 1_555
C3_2 C2_2 1_555 1_555
C4_2 C3_2 1_555 1_555
H5_2 C4_2 1_555 1_555
C5_2 N9 1_555 1_555
H6_2 C5_2 1_555 1_555
C6_2 C3_2 1_555 1_555
H7_2 C6_2 1_555 1_555
C7_2 C5_2 1_555 1_555
H8_2 C7_2 1_555 1_555
C22_2 Si1_4 1_555 1_555
H25_2 C22_2 1_555 1_555
H26_2 C22_2 1_555 1_555
C23_2 C22_2 1_555 1_555
H27_2 C23_2 1_555 1_555
H28_2 C23_2 1_555 1_555
C24_2 C23_2 1_555 1_555
C25_2 C24_2 1_555 1_555
H29_2 C25_2 1_555 1_555
N4_2 C25_2 1_555 1_555
C26_2 N4_2 1_555 1_555
H30_2 C26_2 1_555 1_555
C27_2 C24_2 1_555 1_555
H31_2 C27_2 1_555 1_555
C28_2 C26_2 1_555 1_555
H32_2 C28_2 1_555 1_555
Cu8_4 N4_2 1_555 1_555
C4_2 N9 1_555 1_555
C6_2 C7_2 1_555 1_555
C27_2 C28_2 1_555 1_555
Cu4_2 Cl2_2 1_555 1_555
Si1_5 C1_3 1_555 1_555
C1_3 H1_3 1_555 1_555
H2_3 C1_3 1_555 1_555
C2_3 C1_3 1_555 1_555
H3_3 C2_3 1_555 1_555
H4_3 C2_3 1_555 1_555
C3_3 C2_3 1_555 1_555
C4_3 C3_3 1_555 1_555
H5_3 C4_3 1_555 1_555
N1_2 Cu4_2 1_555 1_555
C5_3 N1_2 1_555 1_555
H6_3 C5_3 1_555 1_555
C6_3 C3_3 1_555 1_555
H7_3 C6_3 1_555 1_555
C7_3 C5_3 1_555 1_555
H8_3 C7_3 1_555 1_555
O1_2 Cu4_2 1_555 1_555
C15_3 Si1_5 1_555 1_555
H17_3 C15_3 1_555 1_555
H18_3 C15_3 1_555 1_555
C16_3 C15_3 1_555 1_555
H19_3 C16_3 1_555 1_555
H20_3 C16_3 1_555 1_555
C17_3 C16_3 1_555 1_555
C18_3 C17_3 1_555 1_555
H21_3 C18_3 1_555 1_555
N13 C18_3 1_555 1_555
C19_3 N13 1_555 1_555
H22_3 C19_3 1_555 1_555
C20_3 C17_3 1_555 1_555
H23_3 C20_3 1_555 1_555
C21_3 C19_3 1_555 1_555
H24_3 C21_3 1_555 1_555
C4_3 N1_2 1_555 1_555
C6_3 C7_3 1_555 1_555
C20_3 C21_3 1_555 1_555
Cl2_3 Cu8 1_555 1_555
Cu8 O2_2 1_555 1_555
Cu4_3 Cl2_4 1_555 1_555
O1_3 Cu4_3 1_555 1_555
C8_3 Si1_6 1_555 1_555
H9_3 C8_3 1_555 1_555
H10_3 C8_3 1_555 1_555
C9_3 C8_3 1_555 1_555
H11_3 C9_3 1_555 1_555
H12_3 C9_3 1_555 1_555
C10_3 C9_3 1_555 1_555
C11_3 C10_3 1_555 1_555
H13_3 C11_3 1_555 1_555
N2_2 C11_3 1_555 1_555
C12_3 N2_2 1_555 1_555
H14_3 C12_3 1_555 1_555
C13_3 C10_3 1_555 1_555
H15_3 C13_3 1_555 1_555
C14_3 C12_3 1_555 1_555
H16_3 C14_3 1_555 1_555
C22_3 Si1_6 1_555 1_555
H25_3 C22_3 1_555 1_555
H26_3 C22_3 1_555 1_555
C23_3 C22_3 1_555 1_555
H27_3 C23_3 1_555 1_555
H28_3 C23_3 1_555 1_555
C24_3 C23_3 1_555 1_555
C25_3 C24_3 1_555 1_555
H29_3 C25_3 1_555 1_555
N14 C25_3 1_555 1_555
C26_3 N14 1_555 1_555
H30_3 C26_3 1_555 1_555
C27_3 C24_3 1_555 1_555
H31_3 C27_3 1_555 1_555
C28_3 C26_3 1_555 1_555
H32_3 C28_3 1_555 1_555
Cu4_5 N2_2 1_555 1_555
N10_2 Cu4_3 1_555 1_555
C13_3 C14_3 1_555 1_555
C27_3 C28_3 1_555 1_555
Cl2_5 Cu8_2 1_555 1_555
Cu8_2 O2_3 1_555 1_555
Cu4_4 Cl2_6 1_555 1_555
O1_4 Cu4_4 1_555 1_555
N9_2 Cu4_4 1_555 1_555
Cl2_7 Cu8_3 1_555 1_555
Cu8_3 O2_4 1_555 1_555
Cu4_5 Cl2_8 1_555 1_555
O1_5 Cu4_5 1_555 1_555
Cl2_9 Cu8_4 1_555 1_555
Cu8_4 O2_5 1_555 1_555
C8_4 Si1_7 1_555 1_555
H9_4 C8_4 1_555 1_555
H10_4 C8_4 1_555 1_555
C9_4 C8_4 1_555 1_555
H11_4 C9_4 1_555 1_555
H12_4 C9_4 1_555 1_555
C10_4 C9_4 1_555 1_555
C11_4 C10_4 1_555 1_555
H13_4 C11_4 1_555 1_555
N10_2 C11_4 1_555 1_555
C12_4 N10_2 1_555 1_555
H14_4 C12_4 1_555 1_555
C13_4 C10_4 1_555 1_555
H15_4 C13_4 1_555 1_555
C14_4 C12_4 1_555 1_555
H16_4 C14_4 1_555 1_555
C22_4 Si1_7 1_555 1_555
H25_4 C22_4 1_555 1_555
H26_4 C22_4 1_555 1_555
C23_4 C22_4 1_555 1_555
H27_4 C23_4 1_555 1_555
H28_4 C23_4 1_555 1_555
C24_4 C23_4 1_555 1_555
C25_4 C24_4 1_555 1_555
H29_4 C25_4 1_555 1_555
N11 C25_4 1_555 1_555
C26_4 N11 1_555 1_555
H30_4 C26_4 1_555 1_555
C27_4 C24_4 1_555 1_555
H31_4 C27_4 1_555 1_555
C28_4 C26_4 1_555 1_555
H32_4 C28_4 1_555 1_555
C13_4 C14_4 1_555 1_555
C27_4 C28_4 1_555 1_555
Si1_8 C1_4 1_555 1_555
C1_4 H1_4 1_555 1_555
H2_4 C1_4 1_555 1_555
C2_4 C1_4 1_555 1_555
H3_4 C2_4 1_555 1_555
H4_4 C2_4 1_555 1_555
C3_4 C2_4 1_555 1_555
C4_4 C3_4 1_555 1_555
H5_4 C4_4 1_555 1_555
C5_4 N9_2 1_555 1_555
H6_4 C5_4 1_555 1_555
C6_4 C3_4 1_555 1_555
H7_4 C6_4 1_555 1_555
C7_4 C5_4 1_555 1_555
H8_4 C7_4 1_555 1_555
C15_4 Si1_8 1_555 1_555
H17_4 C15_4 1_555 1_555
H18_4 C15_4 1_555 1_555
C16_4 C15_4 1_555 1_555
H19_4 C16_4 1_555 1_555
H20_4 C16_4 1_555 1_555
C17_4 C16_4 1_555 1_555
C18_4 C17_4 1_555 1_555
H21_4 C18_4 1_555 1_555
N12 C18_4 1_555 1_555
C19_4 N12 1_555 1_555
H22_4 C19_4 1_555 1_555
C20_4 C17_4 1_555 1_555
H23_4 C20_4 1_555 1_555
C21_4 C19_4 1_555 1_555
H24_4 C21_4 1_555 1_555
C4_4 N9_2 1_555 1_555
C6_4 C7_4 1_555 1_555
C20_4 C21_4 1_555 1_555

#END
