
###############################################################################
#
# This file contains modified crystal structure data generated from the
# MOF subset of the Cambridge Structural Database (CSD) v543 
# hosted by the Cambridge Crystallographic Data Centre (CCDC).
#
# This work is licensed under the Creative Commons
# Attribution-NonCommercial-ShareAlike 4.0 International License.
# To view a copy of this license, visit
# http://creativecommons.org/licenses/by-nc-sa/4.0/
# or send a letter to
# Creative Commons, PO Box 1866, Mountain View, CA 94042, USA.
#
# CIF created using the CSD Python API on 29 September 2022
# The structure has been converted into the P1 space group
# The structure has a 3D framework
# The original CSD entry HEHQET is in the monoclinic crystal system
# The framework has been calculated to contain at least 10.0% void space
# The void calculation uses a probe of radius 1.32A, grid spacing 0.4
#
###############################################################################

data_HEHQET
_chemical_formula_moiety         '(C104 H72 Cd6 N8 O40)n'
_symmetry_cell_setting           triclinic
_symmetry_space_group_name_H-M   'P 1'
_symmetry_Int_Tables_number      1
_space_group_name_Hall           'P 1'
loop_
_symmetry_equiv_pos_site_id
_symmetry_equiv_pos_as_xyz
1 x,y,z
_cell_length_a                   7.3297(3)
_cell_length_b                   18.9428(7)
_cell_length_c                   20.6050(7)
_cell_angle_alpha                90
_cell_angle_beta                 89.317(4)
_cell_angle_gamma                90
_cell_volume                     2860.7
loop_
_atom_site_label
_atom_site_type_symbol
_atom_site_fract_x
_atom_site_fract_y
_atom_site_fract_z
Cd1 Cd 0.33981(9) 0.35324(3) 0.52554(3)
O1 O 0.0837(9) 0.2242(3) 0.3978(3)
N1 N 0.4258(11) 0.3617(4) 0.4199(3)
O4 O 0.0789(9) 0.2884(3) 0.4879(3)
O5 O 0.6150(10) 0.4061(4) 0.5522(3)
H1 H 0.6343 0.4410 0.5271
H2 H 0.7011 0.3764 0.5479
C1 C 0.4954(13) 0.3066(5) 0.3872(5)
H3 H 0.5252 0.2660 0.4101
C2 C 0.0224(12) 0.3456(4) 0.3213(4)
H4 H 0.0623 0.3050 0.3001
C5 C 0.0579(12) 0.2815(5) 0.4288(5)
C6 C 0.4908(13) 0.3687(5) 0.2859(4)
C7 C 0.0009(12) 0.3451(5) 0.3880(4)
C8 C 0.4060(13) 0.4234(5) 0.3868(4)
H5 H 0.3716 0.4637 0.4097
C10 C 0.4350(13) 0.4287(5) 0.3204(4)
H6 H 0.4176 0.4715 0.2992
C13 C 0.5247(13) 0.3076(5) 0.3213(5)
H9 H 0.5672 0.2673 0.3003
O7 O 0.1830(9) 0.5876(3) 0.1084(3)
O8 O 0.2385(9) 0.5224(3) 0.0219(3)
C15 C 0.1798(12) 0.5287(5) 0.0793(4)
C16 C 0.1046(12) 0.4644(5) 0.1136(4)
C19 C 0.0147(12) 0.4057(5) 0.2142(4)
C20 C 0.0632(12) 0.4034(5) 0.0795(4)
H11 H 0.0789 0.4021 0.0346
C21 C 0.0780(12) 0.4651(5) 0.1814(4)
H12 H 0.1033 0.5060 0.2045
N2 N 0.5742(11) 0.3617(4) 0.0801(3)
C22 C 0.5046(13) 0.3066(5) 0.1128(5)
H13 H 0.4748 0.2660 0.0899
C23 C 0.5092(13) 0.3687(5) 0.2141(4)
C24 C 0.5940(13) 0.4234(5) 0.1132(4)
H14 H 0.6284 0.4637 0.0903
C25 C 0.5650(13) 0.4287(5) 0.1796(4)
H15 H 0.5824 0.4715 0.2008
C26 C 0.4753(13) 0.3076(5) 0.1787(5)
H16 H 0.4328 0.2673 0.1997
Cd5 Cd 0.33981(9) 0.64676(3) 0.02554(3)
Cd6 Cd 0.16019(9) 0.14676(3) 0.47446(3)
O11 O 0.4163(9) 0.2758(3) 0.6022(3)
O13 O 0.1830(9) 0.4124(3) 0.6084(3)
O15 O 0.2385(9) 0.4776(3) 0.5219(3)
O17 O 0.4211(9) 0.2116(3) 0.5121(3)
Cd3 Cd 0.66019(9) 0.35324(3) 0.97446(3)
O2 O 0.8170(9) 0.5876(3) 0.3916(3)
O3 O 0.7615(9) 0.5224(3) 0.4781(3)
C3 C 0.8202(12) 0.5287(5) 0.4207(4)
C4 C 0.8954(12) 0.4644(5) 0.3864(4)
C9 C 0.9853(12) 0.4057(5) 0.2858(4)
C11 C 0.9368(12) 0.4034(5) 0.4205(4)
H7 H 0.9211 0.4021 0.4654
C12 C 0.9220(12) 0.4651(5) 0.3186(4)
H8 H 0.8967 0.5060 0.2955
O6 O 0.9163(9) 0.2242(3) 0.1022(3)
O9 O 0.9211(9) 0.2884(3) 0.0121(3)
C14 C 0.9776(12) 0.3456(4) 0.1787(4)
H10 H 0.9377 0.3050 0.1999
C17 C 0.9421(12) 0.2815(5) 0.0712(5)
C18 C 0.9991(12) 0.3451(5) 0.1120(4)
Cd4 Cd 0.66019(9) 0.64676(3) 0.47446(3)
Cd7 Cd 0.83981(9) 0.14676(3) 0.02554(3)
O10 O 0.3850(10) 0.4061(4) 0.9478(3)
H17 H 0.3657 0.4410 0.9729
H18 H 0.2989 0.3764 0.9521
O12 O 0.5837(9) 0.2758(3) 0.8978(3)
O14 O 0.8170(9) 0.4124(3) 0.8916(3)
O16 O 0.7615(9) 0.4776(3) 0.9781(3)
O18 O 0.5789(9) 0.2116(3) 0.9879(3)
O5_2 O 0.1150(10) 0.9061(4) 0.5522(3)
H1_2 H 0.1343 0.9410 0.5271
H2_2 H 0.2011 0.8764 0.5479
H3_2 H 0.0252 0.7660 0.4101
C13_2 C 0.0247(13) 0.8076(5) 0.3213(5)
H9_2 H 0.0672 0.7673 0.3003
N2_2 N 0.0742(11) 0.8617(4) 0.0801(3)
C22_2 C 0.0046(13) 0.8066(5) 0.1128(5)
C23_2 C 0.0092(13) 0.8687(5) 0.2141(4)
C24_2 C 0.0940(13) 0.9234(5) 0.1132(4)
H14_2 H 0.1284 0.9637 0.0903
C25_2 C 0.0650(13) 0.9287(5) 0.1796(4)
H15_2 H 0.0824 0.9715 0.2008
Cd3_2 Cd 0.16019(9) 0.85324(3) 0.97446(3)
O2_2 O 0.3170(9) 0.0876(3) 0.3916(3)
O3_2 O 0.2615(9) 0.0224(3) 0.4781(3)
C3_2 C 0.3202(12) 0.0287(5) 0.4207(4)
H8_2 H 0.3967 0.0060 0.2955
O7_2 O 0.6830(9) 0.0876(3) 0.1084(3)
O8_2 O 0.7385(9) 0.0224(3) 0.0219(3)
C15_2 C 0.6798(12) 0.0287(5) 0.0793(4)
H12_2 H 0.6033 0.0060 0.2045
Cd1_2 Cd 0.83981(9) 0.85324(3) 0.52554(3)
O1_2 O 0.5837(9) 0.7242(3) 0.3978(3)
N1_2 N 0.9258(11) 0.8617(4) 0.4199(3)
O4_2 O 0.5789(9) 0.7884(3) 0.4879(3)
C1_2 C 0.9954(13) 0.8066(5) 0.3872(5)
C2_2 C 0.5224(12) 0.8456(4) 0.3213(4)
H4_2 H 0.5623 0.8050 0.3001
C4_2 C 0.3954(12) 0.9644(5) 0.3864(4)
C5_2 C 0.5579(12) 0.7815(5) 0.4288(5)
C6_2 C 0.9908(13) 0.8687(5) 0.2859(4)
C7_2 C 0.5009(12) 0.8451(5) 0.3880(4)
C8_2 C 0.9060(13) 0.9234(5) 0.3868(4)
H5_2 H 0.8716 0.9637 0.4097
C9_2 C 0.4853(12) 0.9057(5) 0.2858(4)
C10_2 C 0.9350(13) 0.9287(5) 0.3204(4)
H6_2 H 0.9176 0.9715 0.2992
C11_2 C 0.4368(12) 0.9034(5) 0.4205(4)
H7_2 H 0.4211 0.9021 0.4654
C12_2 C 0.4220(12) 0.9651(5) 0.3186(4)
O6_2 O 0.4163(9) 0.7242(3) 0.1022(3)
O9_2 O 0.4211(9) 0.7884(3) 0.0121(3)
C14_2 C 0.4776(12) 0.8456(4) 0.1787(4)
H10_2 H 0.4377 0.8050 0.1999
C16_2 C 0.6046(12) 0.9644(5) 0.1136(4)
C17_2 C 0.4421(12) 0.7815(5) 0.0712(5)
C18_2 C 0.4991(12) 0.8451(5) 0.1120(4)
C19_2 C 0.5147(12) 0.9057(5) 0.2142(4)
C20_2 C 0.5632(12) 0.9034(5) 0.0795(4)
H11_2 H 0.5789 0.9021 0.0346
C21_2 C 0.5780(12) 0.9651(5) 0.1814(4)
H13_2 H 0.9748 0.7660 0.0899
C26_2 C 0.9753(13) 0.8076(5) 0.1787(5)
H16_2 H 0.9328 0.7673 0.1997
O11_2 O 0.9163(9) 0.7758(3) 0.6022(3)
O13_2 O 0.6830(9) 0.9124(3) 0.6084(3)
O15_2 O 0.7385(9) 0.9776(3) 0.5219(3)
O17_2 O 0.9211(9) 0.7116(3) 0.5121(3)
O12_2 O 0.0837(9) 0.7758(3) 0.8978(3)
O14_2 O 0.3170(9) 0.9124(3) 0.8916(3)
O16_2 O 0.2615(9) 0.9776(3) 0.9781(3)
O18_2 O 0.0789(9) 0.7116(3) 0.9879(3)
O10_2 O 0.6150(10) 0.5939(4) 0.0522(3)
H17_2 H 0.6343 0.5590 0.0271
H18_2 H 0.7011 0.6236 0.0479
C3_3 C 0.1798(12) 0.4713(5) 0.5793(4)
C4_3 C 0.1046(12) 0.5356(5) 0.6136(4)
C9_3 C 0.0147(12) 0.5943(5) 0.7142(4)
C11_3 C 0.0632(12) 0.5966(5) 0.5795(4)
H7_3 H 0.0789 0.5979 0.5346
C12_3 C 0.0780(12) 0.5349(5) 0.6814(4)
H8_3 H 0.1033 0.4940 0.7045
C14_3 C 0.0224(12) 0.6544(4) 0.8213(4)
H10_3 H 0.0623 0.6950 0.8001
C17_3 C 0.0579(12) 0.7185(5) 0.9288(5)
C18_3 C 0.0009(12) 0.6549(5) 0.8880(4)
N3 N 0.4258(11) 0.6383(4) 0.9199(3)
N1_3 N 0.5742(11) 0.6383(4) 0.5801(3)
O5_3 O 0.3850(10) 0.5939(4) 0.4478(3)
H1_3 H 0.3657 0.5590 0.4729
H2_3 H 0.2989 0.6236 0.4521
C1_3 C 0.5046(13) 0.6934(5) 0.6128(5)
H3_3 H 0.4748 0.7340 0.5899
C2_3 C 0.9776(12) 0.6544(4) 0.6787(4)
H4_3 H 0.9377 0.6950 0.6999
C5_3 C 0.9421(12) 0.7185(5) 0.5712(5)
C6_3 C 0.5092(13) 0.6313(5) 0.7141(4)
C7_3 C 0.9991(12) 0.6549(5) 0.6120(4)
C8_3 C 0.5940(13) 0.5766(5) 0.6132(4)
H5_3 H 0.6284 0.5363 0.5903
C10_3 C 0.5650(13) 0.5713(5) 0.6796(4)
H6_3 H 0.5824 0.5285 0.7008
C13_3 C 0.4753(13) 0.6924(5) 0.6787(5)
H9_3 H 0.4328 0.7327 0.6997
C15_3 C 0.8202(12) 0.4713(5) 0.9207(4)
C16_3 C 0.8954(12) 0.5356(5) 0.8864(4)
C19_3 C 0.9853(12) 0.5943(5) 0.7858(4)
C20_3 C 0.9368(12) 0.5966(5) 0.9205(4)
H11_3 H 0.9211 0.5979 0.9654
C21_3 C 0.9220(12) 0.5349(5) 0.8186(4)
H12_3 H 0.8967 0.4940 0.7955
C22_3 C 0.4954(13) 0.6934(5) 0.8872(5)
H13_3 H 0.5252 0.7340 0.9101
C23_3 C 0.4908(13) 0.6313(5) 0.7859(4)
C24_3 C 0.4060(13) 0.5766(5) 0.8868(4)
H14_3 H 0.3716 0.5363 0.9097
C25_3 C 0.4350(13) 0.5713(5) 0.8204(4)
H15_3 H 0.4176 0.5285 0.7992
C26_3 C 0.5247(13) 0.6924(5) 0.8213(5)
H16_3 H 0.5672 0.7327 0.8003
N1_4 N 0.0742(11) 0.1383(4) 0.5801(3)
C1_4 C 0.0046(13) 0.1934(5) 0.6128(5)
C2_4 C 0.4776(12) 0.1544(4) 0.6787(4)
H4_4 H 0.4377 0.1950 0.6999
C4_4 C 0.6046(12) 0.0356(5) 0.6136(4)
C5_4 C 0.4421(12) 0.2185(5) 0.5712(5)
C6_4 C 0.0092(13) 0.1313(5) 0.7141(4)
C7_4 C 0.4991(12) 0.1549(5) 0.6120(4)
C8_4 C 0.0940(13) 0.0766(5) 0.6132(4)
H5_4 H 0.1284 0.0363 0.5903
C9_4 C 0.5147(12) 0.0943(5) 0.7142(4)
C10_4 C 0.0650(13) 0.0713(5) 0.6796(4)
H6_4 H 0.0824 0.0285 0.7008
C11_4 C 0.5632(12) 0.0966(5) 0.5795(4)
H7_4 H 0.5789 0.0979 0.5346
C12_4 C 0.5780(12) 0.0349(5) 0.6814(4)
C14_4 C 0.5224(12) 0.1544(4) 0.8213(4)
H10_4 H 0.5623 0.1950 0.8001
C16_4 C 0.3954(12) 0.0356(5) 0.8864(4)
C17_4 C 0.5579(12) 0.2185(5) 0.9288(5)
C18_4 C 0.5009(12) 0.1549(5) 0.8880(4)
C19_4 C 0.4853(12) 0.0943(5) 0.7858(4)
C20_4 C 0.4368(12) 0.0966(5) 0.9205(4)
H11_4 H 0.4211 0.0979 0.9654
C21_4 C 0.4220(12) 0.0349(5) 0.8186(4)
H13_4 H 0.0252 0.2340 0.9101
C26_4 C 0.0247(13) 0.1924(5) 0.8213(5)
H16_4 H 0.0672 0.2327 0.8003
N3_2 N 0.9258(11) 0.1383(4) 0.9199(3)
C3_4 C 0.6798(12) 0.9713(5) 0.5793(4)
H8_4 H 0.6033 0.9940 0.7045
C15_4 C 0.3202(12) 0.9713(5) 0.9207(4)
H12_4 H 0.3967 0.9940 0.7955
O5_4 O 0.8850(10) 0.0939(4) 0.4478(3)
H1_4 H 0.8657 0.0590 0.4729
H2_4 H 0.7989 0.1236 0.4521
H3_4 H 0.9748 0.2340 0.5899
C13_4 C 0.9753(13) 0.1924(5) 0.6787(5)
H9_4 H 0.9328 0.2327 0.6997
C22_4 C 0.9954(13) 0.1934(5) 0.8872(5)
C23_4 C 0.9908(13) 0.1313(5) 0.7859(4)
C24_4 C 0.9060(13) 0.0766(5) 0.8868(4)
H14_4 H 0.8716 0.0363 0.9097
C25_4 C 0.9350(13) 0.0713(5) 0.8204(4)
H15_4 H 0.9176 0.0285 0.7992
O10_3 O 0.8850(10) 0.9061(4) 0.9478(3)
H17_3 H 0.8657 0.9410 0.9729
H18_3 H 0.7989 0.8764 0.9521
O10_4 O 0.1150(10) 0.0939(4) 0.0522(3)
H17_4 H 0.1343 0.0590 0.0271
H18_4 H 0.2011 0.1236 0.0479
loop_
_geom_bond_atom_site_label_1
_geom_bond_atom_site_label_2
_geom_bond_site_symmetry_1
_geom_bond_site_symmetry_2
Cd1 N1 1_555 1_555
O1 C5 1_555 1_555
N1 C1 1_555 1_555
O4 Cd1 1_555 1_555
O5 Cd1 1_555 1_555
H1 O5 1_555 1_555
H2 O5 1_555 1_555
C1 H3 1_555 1_555
C2 H4 1_555 1_555
C5 O4 1_555 1_555
C6 C10 1_555 1_555
C7 C2 1_555 1_555
C8 N1 1_555 1_555
H5 C8 1_555 1_555
C10 C8 1_555 1_555
H6 C10 1_555 1_555
C13 C1 1_555 1_555
H9 C13 1_555 1_555
O7 C15 1_555 1_555
O8 C15 1_555 1_555
C15 C16 1_555 1_555
C16 C20 1_555 1_555
H11 C20 1_555 1_555
C21 C16 1_555 1_555
H12 C21 1_555 1_555
N2 C22 1_555 1_555
C22 H13 1_555 1_555
C23 C6 1_555 1_555
C24 N2 1_555 1_555
H14 C24 1_555 1_555
C25 C23 1_555 1_555
H15 C25 1_555 1_555
C26 C22 1_555 1_555
H16 C26 1_555 1_555
Cd5 O7 1_555 1_555
Cd6 O1 1_555 1_555
O11 Cd1 1_555 1_555
O13 Cd1 1_555 1_555
O15 Cd1 1_555 1_555
O17 Cd1 1_555 1_555
O4 Cd6 1_555 1_555
C5 C7 1_555 1_555
C6 C13 1_555 1_555
O8 Cd5 1_555 1_555
C19 C21 1_555 1_555
C23 C26 1_555 1_555
C24 C25 1_555 1_555
Cd6 O17 1_555 1_555
O2 C3 1_555 1_555
O3 C3 1_555 1_555
C3 C4 1_555 1_555
C4 C11 1_555 1_555
H7 C11 1_555 1_555
C12 C4 1_555 1_555
H8 C12 1_555 1_555
O6 C17 1_555 1_555
O9 C17 1_555 1_555
C14 H10 1_555 1_555
C17 C18 1_555 1_555
C18 C14 1_555 1_555
Cd4 O2 1_555 1_555
Cd7 O6 1_555 1_555
O3 Cd4 1_555 1_555
C9 C12 1_555 1_555
O9 Cd7 1_555 1_555
O10 Cd3 1_555 1_555
H17 O10 1_555 1_555
H18 O10 1_555 1_555
O12 Cd3 1_555 1_555
O14 Cd3 1_555 1_555
O16 Cd3 1_555 1_555
O18 Cd3 1_555 1_555
H1_2 O5_2 1_555 1_555
H2_2 O5_2 1_555 1_555
H9_2 C13_2 1_555 1_555
N2_2 C22_2 1_555 1_555
C24_2 N2_2 1_555 1_555
H14_2 C24_2 1_555 1_555
C25_2 C23_2 1_555 1_555
H15_2 C25_2 1_555 1_555
C24_2 C25_2 1_555 1_555
O2_2 C3_2 1_555 1_555
O3_2 C3_2 1_555 1_555
O7_2 C15_2 1_555 1_555
O8_2 C15_2 1_555 1_555
Cd6 O2_2 1_555 1_555
Cd7 O7_2 1_555 1_555
O3_2 Cd6 1_555 1_555
O8_2 Cd7 1_555 1_555
Cd1_2 N1_2 1_555 1_555
O1_2 C5_2 1_555 1_555
N1_2 C1_2 1_555 1_555
O4_2 Cd1_2 1_555 1_555
C2_2 H4_2 1_555 1_555
C4_2 C11_2 1_555 1_555
C5_2 O4_2 1_555 1_555
C6_2 C10_2 1_555 1_555
C7_2 C2_2 1_555 1_555
C8_2 N1_2 1_555 1_555
H5_2 C8_2 1_555 1_555
C9_2 C2_2 1_555 1_555
C10_2 C8_2 1_555 1_555
H6_2 C10_2 1_555 1_555
C11_2 C7_2 1_555 1_555
H7_2 C11_2 1_555 1_555
C12_2 C4_2 1_555 1_555
O6_2 C17_2 1_555 1_555
O9_2 C17_2 1_555 1_555
C14_2 H10_2 1_555 1_555
C16_2 C20_2 1_555 1_555
C17_2 C18_2 1_555 1_555
C18_2 C14_2 1_555 1_555
C19_2 C9_2 1_555 1_555
C20_2 C18_2 1_555 1_555
H11_2 C20_2 1_555 1_555
C21_2 C16_2 1_555 1_555
H16_2 C26_2 1_555 1_555
Cd4 O1_2 1_555 1_555
Cd5 O6_2 1_555 1_555
O11_2 Cd1_2 1_555 1_555
O13_2 Cd1_2 1_555 1_555
O15_2 Cd1_2 1_555 1_555
O17_2 Cd1_2 1_555 1_555
O4_2 Cd4 1_555 1_555
C5_2 C7_2 1_555 1_555
C9_2 C12_2 1_555 1_555
O9_2 Cd5 1_555 1_555
C14_2 C19_2 1_555 1_555
C19_2 C21_2 1_555 1_555
Cd4 O17_2 1_555 1_555
O12_2 Cd3_2 1_555 1_555
O14_2 Cd3_2 1_555 1_555
O16_2 Cd3_2 1_555 1_555
O18_2 Cd3_2 1_555 1_555
O10_2 Cd5 1_555 1_555
H17_2 O10_2 1_555 1_555
H18_2 O10_2 1_555 1_555
O13 C3_3 1_555 1_555
O15 C3_3 1_555 1_555
C3_3 C4_3 1_555 1_555
C4_3 C11_3 1_555 1_555
H7_3 C11_3 1_555 1_555
C12_3 C4_3 1_555 1_555
H8_3 C12_3 1_555 1_555
O12_2 C17_3 1_555 1_555
O18_2 C17_3 1_555 1_555
C14_3 H10_3 1_555 1_555
C17_3 C18_3 1_555 1_555
C18_3 C14_3 1_555 1_555
C9_3 C12_3 1_555 1_555
Cd4 N1_3 1_555 1_555
O11_2 C5_3 1_555 1_555
N1_3 C1_3 1_555 1_555
O5_3 Cd4 1_555 1_555
H1_3 O5_3 1_555 1_555
H2_3 O5_3 1_555 1_555
C1_3 H3_3 1_555 1_555
C2_3 H4_3 1_555 1_555
C5_3 O17_2 1_555 1_555
C6_3 C10_3 1_555 1_555
C7_3 C2_3 1_555 1_555
C8_3 N1_3 1_555 1_555
H5_3 C8_3 1_555 1_555
C10_3 C8_3 1_555 1_555
H6_3 C10_3 1_555 1_555
C13_3 C1_3 1_555 1_555
H9_3 C13_3 1_555 1_555
O14 C15_3 1_555 1_555
O16 C15_3 1_555 1_555
C15_3 C16_3 1_555 1_555
C16_3 C20_3 1_555 1_555
H11_3 C20_3 1_555 1_555
C21_3 C16_3 1_555 1_555
H12_3 C21_3 1_555 1_555
N3 C22_3 1_555 1_555
C22_3 H13_3 1_555 1_555
C23_3 C6_3 1_555 1_555
C24_3 N3 1_555 1_555
H14_3 C24_3 1_555 1_555
C25_3 C23_3 1_555 1_555
H15_3 C25_3 1_555 1_555
C26_3 C22_3 1_555 1_555
H16_3 C26_3 1_555 1_555
C5_3 C7_3 1_555 1_555
C6_3 C13_3 1_555 1_555
C19_3 C21_3 1_555 1_555
C23_3 C26_3 1_555 1_555
C24_3 C25_3 1_555 1_555
Cd6 N1_4 1_555 1_555
O11 C5_4 1_555 1_555
N1_4 C1_4 1_555 1_555
C2_4 H4_4 1_555 1_555
C4_4 C11_4 1_555 1_555
C5_4 O17 1_555 1_555
C6_4 C10_4 1_555 1_555
C7_4 C2_4 1_555 1_555
C8_4 N1_4 1_555 1_555
H5_4 C8_4 1_555 1_555
C9_4 C2_4 1_555 1_555
C10_4 C8_4 1_555 1_555
H6_4 C10_4 1_555 1_555
C11_4 C7_4 1_555 1_555
H7_4 C11_4 1_555 1_555
C12_4 C4_4 1_555 1_555
O12 C17_4 1_555 1_555
O18 C17_4 1_555 1_555
C14_4 H10_4 1_555 1_555
C16_4 C20_4 1_555 1_555
C17_4 C18_4 1_555 1_555
C18_4 C14_4 1_555 1_555
C19_4 C9_4 1_555 1_555
C20_4 C18_4 1_555 1_555
H11_4 C20_4 1_555 1_555
C21_4 C16_4 1_555 1_555
H16_4 C26_4 1_555 1_555
C5_4 C7_4 1_555 1_555
C9_4 C12_4 1_555 1_555
C14_4 C19_4 1_555 1_555
C19_4 C21_4 1_555 1_555
O13_2 C3_4 1_555 1_555
O15_2 C3_4 1_555 1_555
O14_2 C15_4 1_555 1_555
O16_2 C15_4 1_555 1_555
H1_4 O5_4 1_555 1_555
H2_4 O5_4 1_555 1_555
H9_4 C13_4 1_555 1_555
N3_2 C22_4 1_555 1_555
C24_4 N3_2 1_555 1_555
H14_4 C24_4 1_555 1_555
C25_4 C23_4 1_555 1_555
H15_4 C25_4 1_555 1_555
C24_4 C25_4 1_555 1_555
H17_3 O10_3 1_555 1_555
H18_3 O10_3 1_555 1_555
H17_4 O10_4 1_555 1_555
H18_4 O10_4 1_555 1_555

#END
