
###############################################################################
#
# This file contains modified crystal structure data generated from the
# MOF subset of the Cambridge Structural Database (CSD) v543 
# hosted by the Cambridge Crystallographic Data Centre (CCDC).
#
# This work is licensed under the Creative Commons
# Attribution-NonCommercial-ShareAlike 4.0 International License.
# To view a copy of this license, visit
# http://creativecommons.org/licenses/by-nc-sa/4.0/
# or send a letter to
# Creative Commons, PO Box 1866, Mountain View, CA 94042, USA.
#
# CIF created using the CSD Python API on 29 September 2022
# The structure has been converted into the P1 space group
# The structure has a 3D framework
# The original CSD entry HEJCOR02 is in the monoclinic crystal system
# The framework has been calculated to contain at least 10.0% void space
# The void calculation uses a probe of radius 1.32A, grid spacing 0.4
#
###############################################################################

data_HEJCOR02
_chemical_formula_moiety         '(C112 H80 Cu4 N8 O15)n'
_symmetry_cell_setting           triclinic
_symmetry_space_group_name_H-M   'P 1'
_symmetry_Int_Tables_number      1
_space_group_name_Hall           'P 1'
loop_
_symmetry_equiv_pos_site_id
_symmetry_equiv_pos_as_xyz
1 x,y,z
_cell_length_a                   13.2742(6)
_cell_length_b                   24.4840(9)
_cell_length_c                   8.5262(4)
_cell_angle_alpha                90
_cell_angle_beta                 98.163(2)
_cell_angle_gamma                90
_cell_volume                     2742.99
loop_
_atom_site_label
_atom_site_type_symbol
_atom_site_fract_x
_atom_site_fract_y
_atom_site_fract_z
O6 O 0.01753(14) 0.69079(7) 0.5591(2)
N3 N 0.06532(14) 0.56515(8) 0.4120(2)
O3 O 0.79642(12) 0.39240(6) 0.0147(2)
C15 C 0.77629(18) 0.44338(9) 0.0126(3)
C16 C 0.67672(18) 0.46108(10) 0.0616(3)
C17 C 0.60654(18) 0.42409(9) 0.1033(3)
H11 H 0.6187 0.3860 0.0947
C18 C 0.51811(18) 0.44199(9) 0.1579(3)
H12 H 0.4702 0.4161 0.1847
C19 C 0.4994(2) 0.49739(10) 0.1734(4)
C20 C 0.5692(2) 0.53418(11) 0.1277(5)
H13 H 0.5570 0.5723 0.1350
C21 C 0.6566(2) 0.51616(11) 0.0714(5)
H14 H 0.7029 0.5420 0.0393
C22 C 0.4092(2) 0.51919(11) 0.2349(4)
H15 H 0.4092 0.5573 0.2562
C23 C 0.32760(18) 0.49123(9) 0.2640(3)
H16 H 0.3265 0.4529 0.2463
C24 C 0.06114(17) 0.51487(9) 0.3471(3)
C25 C 0.14598(17) 0.48951(9) 0.3016(3)
H18 H 0.1403 0.4539 0.2569
C26 C 0.23943(17) 0.51632(9) 0.3218(3)
C27 C 0.24377(17) 0.56733(9) 0.3963(3)
H19 H 0.3066 0.5864 0.4170
C28 C 0.15618(18) 0.58989(9) 0.4399(3)
H20 H 0.1607 0.6243 0.4917
O5 O 0.99909(13) 0.38641(7) 0.1879(2)
C10 C 0.08343(18) 0.65950(10) 0.9774(3)
H8 H 0.0539 0.6242 0.9787
C11 C 0.08021(17) 0.68737(9) 0.8348(3)
C12 C 0.12586(18) 0.73909(9) 0.8359(3)
H9 H 0.1238 0.7588 0.7394
C13 C 0.17377(18) 0.76184(9) 0.9751(3)
H10 H 0.2054 0.7966 0.9732
C14 C 0.02894(17) 0.66305(9) 0.6835(3)
Cu1 Cu 0.93830(2) 0.60086(2) 0.46356(3)
O3_2 O 0.79642(12) 0.60760(6) 0.5147(2)
O4 O 0.83741(13) 0.52212(7) 0.4741(3)
N1 N 0.89277(15) 0.62879(8) 0.2443(2)
N2 N 0.06532(14) 0.43485(8) 0.9120(2)
C1 C 0.8709(2) 0.68247(10) 0.2309(3)
H1 H 0.8828 0.7047 0.3231
C2 C 0.8321(2) 0.70657(10) 0.0887(3)
H2 H 0.8169 0.7445 0.0844
C5 C 0.87713(18) 0.59862(9) 0.1131(3)
H4 H 0.8929 0.5608 0.1209
C15_2 C 0.77629(18) 0.55662(9) 0.5126(3)
C16_2 C 0.67672(18) 0.53892(10) 0.5616(3)
C17_2 C 0.60654(18) 0.57591(9) 0.6033(3)
H11_2 H 0.6187 0.6140 0.5947
C18_2 C 0.51811(18) 0.55801(9) 0.6579(3)
H12_2 H 0.4702 0.5839 0.6847
C19_2 C 0.4994(2) 0.50261(10) 0.6734(4)
C20_2 C 0.5692(2) 0.46582(11) 0.6277(5)
H13_2 H 0.5570 0.4277 0.6350
C21_2 C 0.6566(2) 0.48384(11) 0.5714(5)
H14_2 H 0.7029 0.4580 0.5393
C22_2 C 0.4092(2) 0.48081(11) 0.7349(4)
H15_2 H 0.4092 0.4427 0.7562
C23_2 C 0.32760(18) 0.50877(9) 0.7640(3)
H16_2 H 0.3265 0.5471 0.7463
C24_2 C 0.06114(17) 0.48513(9) 0.8471(3)
C25_2 C 0.14598(17) 0.51049(9) 0.8016(3)
H18_2 H 0.1403 0.5461 0.7569
C26_2 C 0.23943(17) 0.48368(9) 0.8218(3)
C27_2 C 0.24377(17) 0.43267(9) 0.8963(3)
H19_2 H 0.3066 0.4136 0.9170
C28_2 C 0.15618(18) 0.41011(9) 0.9399(3)
H20_2 H 0.1607 0.3757 0.9917
O5_2 O 0.99909(13) 0.61359(7) 0.6879(2)
H17 H 0.9979 0.4961 0.3319
O1 O 0.49909(13) 0.88641(7) 0.1879(2)
O2 O 0.51753(14) 0.80921(7) 0.0591(2)
C3 C 0.81535(18) 0.67488(10) 0.9509(3)
C4 C 0.83906(18) 0.61973(10) 0.9660(3)
H3 H 0.8292 0.5966 0.8757
C6 C 0.77223(19) 0.69653(10) 0.7951(3)
H5 H 0.7791 0.6751 0.7043
C7 C 0.72417(19) 0.74427(10) 0.7729(3)
H6 H 0.7207 0.7661 0.8640
C8 C 0.67601(19) 0.76615(10) 0.6200(3)
C9 C 0.6294(2) 0.81722(11) 0.6173(3)
H7 H 0.6291 0.8365 0.7140
C10_2 C 0.58343(18) 0.84050(10) 0.4774(3)
H8_2 H 0.5539 0.8758 0.4787
C11_2 C 0.58021(17) 0.81263(9) 0.3348(3)
C12_2 C 0.62586(18) 0.76091(9) 0.3359(3)
H9_2 H 0.6238 0.7412 0.2394
C13_2 C 0.67377(18) 0.73816(9) 0.4751(3)
H10_2 H 0.7054 0.7034 0.4732
C14_2 C 0.52894(17) 0.83695(9) 0.1835(3)
O3_3 O 0.29642(12) 0.89240(6) 0.0147(2)
C15_3 C 0.27629(18) 0.94338(9) 0.0126(3)
C16_3 C 0.17672(18) 0.96108(10) 0.0616(3)
C17_3 C 0.10654(18) 0.92409(9) 0.1033(3)
H11_3 H 0.1187 0.8860 0.0947
C18_3 C 0.01811(18) 0.94199(9) 0.1579(3)
Cu3 Cu 0.43830(2) 0.89914(2) 0.96356(3)
N2_2 N 0.56532(14) 0.93485(8) 0.9120(2)
C22_3 C 0.9092(2) 0.98081(11) 0.7349(4)
H15_3 H 0.9092 0.9427 0.7562
C24_3 C 0.56114(17) 0.98513(9) 0.8471(3)
C26_3 C 0.73943(17) 0.98368(9) 0.8218(3)
C27_3 C 0.74377(17) 0.93267(9) 0.8963(3)
H19_3 H 0.8066 0.9136 0.9170
C28_3 C 0.65618(18) 0.91011(9) 0.9399(3)
H20_3 H 0.6607 0.8757 0.9917
O4_2 O 0.33741(13) 0.97788(7) 0.9741(3)
N1_2 N 0.39277(15) 0.87121(8) 0.7443(2)
C1_2 C 0.3709(2) 0.81753(10) 0.7309(3)
H1_2 H 0.3828 0.7953 0.8231
C2_2 C 0.3321(2) 0.79343(10) 0.5887(3)
H2_2 H 0.3169 0.7555 0.5844
C3_2 C 0.31535(18) 0.82512(10) 0.4509(3)
C4_2 C 0.33906(18) 0.88027(10) 0.4660(3)
H3_2 H 0.3292 0.9034 0.3757
C5_2 C 0.37713(18) 0.90138(9) 0.6131(3)
H4_2 H 0.3929 0.9392 0.6209
C6_2 C 0.27223(19) 0.80347(10) 0.2951(3)
H5_2 H 0.2791 0.8249 0.2043
C7_2 C 0.22417(19) 0.75573(10) 0.2729(3)
H6_2 H 0.2207 0.7339 0.3640
C8_2 C 0.17601(19) 0.73385(10) 0.1200(3)
C9_2 C 0.1294(2) 0.68278(11) 0.1173(3)
H7_2 H 0.1291 0.6635 0.2140
H17_2 H 0.9979 0.5039 0.8319
Cu2 Cu 0.93830(2) 0.39914(2) 0.96356(3)
O4_3 O 0.83741(13) 0.47788(7) 0.9741(3)
N1_3 N 0.89277(15) 0.37121(8) 0.7443(2)
C1_3 C 0.8709(2) 0.31753(10) 0.7309(3)
H1_3 H 0.8828 0.2953 0.8231
C2_3 C 0.8321(2) 0.29343(10) 0.5887(3)
H2_3 H 0.8169 0.2555 0.5844
C3_3 C 0.81535(18) 0.32512(10) 0.4509(3)
C4_3 C 0.83906(18) 0.38027(10) 0.4660(3)
H3_3 H 0.8292 0.4034 0.3757
C5_3 C 0.87713(18) 0.40138(9) 0.6131(3)
H4_3 H 0.8929 0.4392 0.6209
C6_3 C 0.77223(19) 0.30347(10) 0.2951(3)
H5_3 H 0.7791 0.3249 0.2043
C7_3 C 0.72417(19) 0.25573(10) 0.2729(3)
H6_3 H 0.7207 0.2339 0.3640
C8_3 C 0.67601(19) 0.23385(10) 0.1200(3)
C9_3 C 0.6294(2) 0.18278(11) 0.1173(3)
H7_3 H 0.6291 0.1635 0.2140
O6_2 O 0.01753(14) 0.30921(7) 0.0591(2)
C3_4 C 0.31535(18) 0.17488(10) 0.9509(3)
C4_4 C 0.33906(18) 0.11973(10) 0.9660(3)
H3_4 H 0.3292 0.0966 0.8757
C6_4 C 0.27223(19) 0.19653(10) 0.7951(3)
H5_4 H 0.2791 0.1751 0.7043
C7_4 C 0.22417(19) 0.24427(10) 0.7729(3)
H6_4 H 0.2207 0.2661 0.8640
C8_4 C 0.17601(19) 0.26615(10) 0.6200(3)
C9_4 C 0.1294(2) 0.31722(11) 0.6173(3)
H7_4 H 0.1291 0.3365 0.7140
C10_3 C 0.08343(18) 0.34050(10) 0.4774(3)
H8_3 H 0.0539 0.3758 0.4787
C11_3 C 0.08021(17) 0.31263(9) 0.3348(3)
C12_3 C 0.12586(18) 0.26091(9) 0.3359(3)
H9_3 H 0.1238 0.2412 0.2394
C13_3 C 0.17377(18) 0.23816(9) 0.4751(3)
H10_3 H 0.2054 0.2034 0.4732
C14_3 C 0.02894(17) 0.33695(9) 0.1835(3)
O1_2 O 0.49909(13) 0.11359(7) 0.6879(2)
O2_2 O 0.51753(14) 0.19079(7) 0.5591(2)
C10_4 C 0.58343(18) 0.15950(10) 0.9774(3)
H8_4 H 0.5539 0.1242 0.9787
C11_4 C 0.58021(17) 0.18737(9) 0.8348(3)
C12_4 C 0.62586(18) 0.23909(9) 0.8359(3)
H9_4 H 0.6238 0.2588 0.7394
C13_4 C 0.67377(18) 0.26184(9) 0.9751(3)
H10_4 H 0.7054 0.2966 0.9732
C14_4 C 0.52894(17) 0.16305(9) 0.6835(3)
Cu3_2 Cu 0.43830(2) 0.10086(2) 0.46356(3)
O3_4 O 0.29642(12) 0.10760(6) 0.5147(2)
O4_4 O 0.33741(13) 0.02212(7) 0.4741(3)
N1_4 N 0.39277(15) 0.12879(8) 0.2443(2)
C1_4 C 0.3709(2) 0.18247(10) 0.2309(3)
H1_4 H 0.3828 0.2047 0.3231
C2_4 C 0.3321(2) 0.20657(10) 0.0887(3)
H2_4 H 0.3169 0.2445 0.0844
C5_4 C 0.37713(18) 0.09862(9) 0.1131(3)
H4_4 H 0.3929 0.0608 0.1209
C15_4 C 0.27629(18) 0.05662(9) 0.5126(3)
C16_4 C 0.17672(18) 0.03892(10) 0.5616(3)
C17_4 C 0.10654(18) 0.07591(9) 0.6033(3)
H11_4 H 0.1187 0.1140 0.5947
C18_4 C 0.01811(18) 0.05801(9) 0.6579(3)
N3_2 N 0.56532(14) 0.06515(8) 0.4120(2)
C22_4 C 0.9092(2) 0.01919(11) 0.2349(4)
H15_4 H 0.9092 0.0573 0.2562
C24_4 C 0.56114(17) 0.01487(9) 0.3471(3)
C26_4 C 0.73943(17) 0.01632(9) 0.3218(3)
C27_4 C 0.74377(17) 0.06733(9) 0.3963(3)
H19_4 H 0.8066 0.0864 0.4170
C28_4 C 0.65618(18) 0.08989(9) 0.4399(3)
H20_4 H 0.6607 0.1243 0.4917
C20_3 C 0.0692(2) 0.96582(11) 0.6277(5)
H13_3 H 0.0570 0.9277 0.6350
C21_3 C 0.1566(2) 0.98384(11) 0.5714(5)
H14_3 H 0.2029 0.9580 0.5393
H12_3 H 0.9702 0.0839 0.6847
C19_3 C 0.9994(2) 0.00261(10) 0.6734(4)
C23_3 C 0.82760(18) 0.00877(9) 0.7640(3)
H16_3 H 0.8265 0.0471 0.7463
H17_3 H 0.4979 0.0039 0.8319
C25_3 C 0.64598(17) 0.01049(9) 0.8016(3)
H18_3 H 0.6403 0.0461 0.7569
C20_4 C 0.0692(2) 0.03418(11) 0.1277(5)
H13_4 H 0.0570 0.0723 0.1350
C21_4 C 0.1566(2) 0.01616(11) 0.0714(5)
H14_4 H 0.2029 0.0420 0.0393
H12_4 H 0.9702 0.9161 0.1847
C19_4 C 0.9994(2) 0.99739(10) 0.1734(4)
C23_4 C 0.82760(18) 0.99123(9) 0.2640(3)
H16_4 H 0.8265 0.9529 0.2463
H17_4 H 0.4979 0.9961 0.3319
C25_4 C 0.64598(17) 0.98951(9) 0.3016(3)
H18_4 H 0.6403 0.9539 0.2569
loop_
_geom_bond_atom_site_label_1
_geom_bond_atom_site_label_2
_geom_bond_site_symmetry_1
_geom_bond_site_symmetry_2
O3 C15 1_555 1_555
N3 C24 1_555 1_555
C16 C15 1_555 1_555
C17 C16 1_555 1_555
H11 C17 1_555 1_555
C18 C17 1_555 1_555
H12 C18 1_555 1_555
C19 C18 1_555 1_555
C20 C19 1_555 1_555
H13 C20 1_555 1_555
C21 C16 1_555 1_555
H14 C21 1_555 1_555
C22 C19 1_555 1_555
H15 C22 1_555 1_555
C23 C22 1_555 1_555
H16 C23 1_555 1_555
C25 C24 1_555 1_555
H18 C25 1_555 1_555
C26 C23 1_555 1_555
C27 C26 1_555 1_555
H19 C27 1_555 1_555
C28 N3 1_555 1_555
H20 C28 1_555 1_555
C20 C21 1_555 1_555
C25 C26 1_555 1_555
C27 C28 1_555 1_555
O6 C14 1_555 1_555
H8 C10 1_555 1_555
C11 C10 1_555 1_555
C12 C11 1_555 1_555
H9 C12 1_555 1_555
H10 C13 1_555 1_555
C14 C11 1_555 1_555
C12 C13 1_555 1_555
Cu1 O3_2 1_555 1_555
O3_2 C15_2 1_555 1_555
O4 Cu1 1_555 1_555
N1 Cu1 1_555 1_555
N2 C24_2 1_555 1_555
C1 N1 1_555 1_555
H1 C1 1_555 1_555
C2 C1 1_555 1_555
H2 C2 1_555 1_555
C5 N1 1_555 1_555
H4 C5 1_555 1_555
C15_2 O4 1_555 1_555
C16_2 C15_2 1_555 1_555
C17_2 C16_2 1_555 1_555
H11_2 C17_2 1_555 1_555
C18_2 C17_2 1_555 1_555
H12_2 C18_2 1_555 1_555
C19_2 C18_2 1_555 1_555
C20_2 C19_2 1_555 1_555
H13_2 C20_2 1_555 1_555
C21_2 C16_2 1_555 1_555
H14_2 C21_2 1_555 1_555
C22_2 C19_2 1_555 1_555
H15_2 C22_2 1_555 1_555
C23_2 C22_2 1_555 1_555
H16_2 C23_2 1_555 1_555
C25_2 C24_2 1_555 1_555
H18_2 C25_2 1_555 1_555
C26_2 C23_2 1_555 1_555
C27_2 C26_2 1_555 1_555
H19_2 C27_2 1_555 1_555
C28_2 N2 1_555 1_555
H20_2 C28_2 1_555 1_555
O5_2 Cu1 1_555 1_555
C20_2 C21_2 1_555 1_555
C25_2 C26_2 1_555 1_555
C27_2 C28_2 1_555 1_555
O1 C14_2 1_555 1_555
O2 C14_2 1_555 1_555
C4 C3 1_555 1_555
H3 C4 1_555 1_555
C6 C3 1_555 1_555
H5 C6 1_555 1_555
C7 C6 1_555 1_555
H6 C7 1_555 1_555
C8 C7 1_555 1_555
C9 C8 1_555 1_555
H7 C9 1_555 1_555
C10_2 C9 1_555 1_555
H8_2 C10_2 1_555 1_555
C11_2 C10_2 1_555 1_555
C12_2 C11_2 1_555 1_555
H9_2 C12_2 1_555 1_555
C13_2 C8 1_555 1_555
H10_2 C13_2 1_555 1_555
C14_2 C11_2 1_555 1_555
C12_2 C13_2 1_555 1_555
O3_3 C15_3 1_555 1_555
C16_3 C15_3 1_555 1_555
C17_3 C16_3 1_555 1_555
H11_3 C17_3 1_555 1_555
C18_3 C17_3 1_555 1_555
N2_2 C24_3 1_555 1_555
H15_3 C22_3 1_555 1_555
C27_3 C26_3 1_555 1_555
H19_3 C27_3 1_555 1_555
C28_3 N2_2 1_555 1_555
H20_3 C28_3 1_555 1_555
Cu3 N2_2 1_555 1_555
C27_3 C28_3 1_555 1_555
O4_2 Cu3 1_555 1_555
N1_2 Cu3 1_555 1_555
C1_2 N1_2 1_555 1_555
H1_2 C1_2 1_555 1_555
C2_2 C1_2 1_555 1_555
H2_2 C2_2 1_555 1_555
C3_2 C2_2 1_555 1_555
C4_2 C3_2 1_555 1_555
H3_2 C4_2 1_555 1_555
C5_2 N1_2 1_555 1_555
H4_2 C5_2 1_555 1_555
C6_2 C3_2 1_555 1_555
H5_2 C6_2 1_555 1_555
C7_2 C6_2 1_555 1_555
H6_2 C7_2 1_555 1_555
C8_2 C7_2 1_555 1_555
C9_2 C8_2 1_555 1_555
H7_2 C9_2 1_555 1_555
C4_2 C5_2 1_555 1_555
O4_3 Cu2 1_555 1_555
N1_3 Cu2 1_555 1_555
C1_3 N1_3 1_555 1_555
H1_3 C1_3 1_555 1_555
C2_3 C1_3 1_555 1_555
H2_3 C2_3 1_555 1_555
C3_3 C2_3 1_555 1_555
C4_3 C3_3 1_555 1_555
H3_3 C4_3 1_555 1_555
C5_3 N1_3 1_555 1_555
H4_3 C5_3 1_555 1_555
C6_3 C3_3 1_555 1_555
H5_3 C6_3 1_555 1_555
C7_3 C6_3 1_555 1_555
H6_3 C7_3 1_555 1_555
C8_3 C7_3 1_555 1_555
C9_3 C8_3 1_555 1_555
H7_3 C9_3 1_555 1_555
C4_3 C5_3 1_555 1_555
O6_2 C14_3 1_555 1_555
C4_4 C3_4 1_555 1_555
H3_4 C4_4 1_555 1_555
C6_4 C3_4 1_555 1_555
H5_4 C6_4 1_555 1_555
C7_4 C6_4 1_555 1_555
H6_4 C7_4 1_555 1_555
C8_4 C7_4 1_555 1_555
C9_4 C8_4 1_555 1_555
H7_4 C9_4 1_555 1_555
C10_3 C9_4 1_555 1_555
H8_3 C10_3 1_555 1_555
C11_3 C10_3 1_555 1_555
C12_3 C11_3 1_555 1_555
H9_3 C12_3 1_555 1_555
C13_3 C8_4 1_555 1_555
H10_3 C13_3 1_555 1_555
C14_3 C11_3 1_555 1_555
C12_3 C13_3 1_555 1_555
O1_2 C14_4 1_555 1_555
O2_2 C14_4 1_555 1_555
H8_4 C10_4 1_555 1_555
C11_4 C10_4 1_555 1_555
C12_4 C11_4 1_555 1_555
H9_4 C12_4 1_555 1_555
H10_4 C13_4 1_555 1_555
C14_4 C11_4 1_555 1_555
Cu3_2 O1_2 1_555 1_555
O2_2 Cu3_2 1_555 1_555
C12_4 C13_4 1_555 1_555
Cu3_2 O3_4 1_555 1_555
O3_4 C15_4 1_555 1_555
O4_4 Cu3_2 1_555 1_555
N1_4 Cu3_2 1_555 1_555
C1_4 N1_4 1_555 1_555
H1_4 C1_4 1_555 1_555
C2_4 C1_4 1_555 1_555
H2_4 C2_4 1_555 1_555
C5_4 N1_4 1_555 1_555
H4_4 C5_4 1_555 1_555
C15_4 O4_4 1_555 1_555
C16_4 C15_4 1_555 1_555
C17_4 C16_4 1_555 1_555
H11_4 C17_4 1_555 1_555
C18_4 C17_4 1_555 1_555
N3_2 Cu3_2 1_555 1_555
N3_2 C24_4 1_555 1_555
H15_4 C22_4 1_555 1_555
C27_4 C26_4 1_555 1_555
H19_4 C27_4 1_555 1_555
C28_4 N3_2 1_555 1_555
H20_4 C28_4 1_555 1_555
C27_4 C28_4 1_555 1_555
H13_3 C20_3 1_555 1_555
H14_3 C21_3 1_555 1_555
C20_3 C21_3 1_555 1_555
H16_3 C23_3 1_555 1_555
H18_3 C25_3 1_555 1_555
H13_4 C20_4 1_555 1_555
H14_4 C21_4 1_555 1_555
C20_4 C21_4 1_555 1_555
H16_4 C23_4 1_555 1_555
H18_4 C25_4 1_555 1_555

#END
