
###############################################################################
#
# This file contains modified crystal structure data generated from the
# MOF subset of the Cambridge Structural Database (CSD) v543 
# hosted by the Cambridge Crystallographic Data Centre (CCDC).
#
# This work is licensed under the Creative Commons
# Attribution-NonCommercial-ShareAlike 4.0 International License.
# To view a copy of this license, visit
# http://creativecommons.org/licenses/by-nc-sa/4.0/
# or send a letter to
# Creative Commons, PO Box 1866, Mountain View, CA 94042, USA.
#
# CIF created using the CSD Python API on 29 September 2022
# The structure has been converted into the P1 space group
# The structure has a 3D framework
# The original CSD entry HELFAI is in the tetragonal crystal system
# The original CSD entry HELFAI is in a Sohncke space group
# The framework has been calculated to contain at least 10.0% void space
# The void calculation uses a probe of radius 1.32A, grid spacing 0.4
#
###############################################################################

data_HELFAI
_chemical_formula_moiety         '(C72 H24 La8 O42)n'
_symmetry_cell_setting           triclinic
_symmetry_space_group_name_H-M   'P 1'
_symmetry_Int_Tables_number      1
_space_group_name_Hall           'P 1'
loop_
_symmetry_equiv_pos_site_id
_symmetry_equiv_pos_as_xyz
1 x,y,z
_cell_length_a                   14.7900(4)
_cell_length_b                   14.7900(4)
_cell_length_c                   14.1680(3)
_cell_angle_alpha                90
_cell_angle_beta                 90
_cell_angle_gamma                90
_cell_volume                     3099.17
loop_
_atom_site_label
_atom_site_type_symbol
_atom_site_fract_x
_atom_site_fract_y
_atom_site_fract_z
O1 O 0.1350(9) 0.6237(14) 0.2480(8)
O2 O 0.0931(6) 0.4944(6) 0.6730(6)
O3 O 0.1556(12) 0.6013(11) 0.7480(8)
O4 O 0.0173(6) 0.5834(5) 0.3240(6)
C1 C 0.1429(8) 0.6336(10) 0.4153(8)
C2 C 0.0953(9) 0.6110(10) 0.3255(8)
O5 O 0.3860(10) 0.7836(9) 0.5663(8)
C3 C 0.1427(10) 0.5608(10) 0.6735(9)
C4 C 0.1673(10) 0.6055(8) 0.5838(8)
O6 O 0.3344(8) 0.8379(8) 0.4355(8)
C5 C 0.2578(10) 0.7156(10) 0.5021(10)
C6 C 0.3294(10) 0.7850(10) 0.5031(10)
C7 C 0.1196(7) 0.5908(7) 0.4984(7)
H1 H 0.0709 0.5510 0.4984
C8 C 0.2360(9) 0.6695(9) 0.5816(8)
H2 H 0.2683 0.6811 0.6367
C9 C 0.2104(9) 0.6979(10) 0.4166(9)
H3 H 0.2249 0.7295 0.3620
La1 La 0.01304(3) 0.63114(4) 0.12612(5)
O10 O 0.0834(5) 0.4827(6) 0.0740(6)
O12 O 0.1621(8) 0.6656(8) 0.0645(8)
La3 La 0.51304(3) 0.86886(4) 0.62388(5)
La4 La 0.36886(4) 0.98696(3) 0.37388(5)
La5 La 0.13114(4) 0.48696(3) 0.87612(5)
O8 O 0.0056(6) 0.5931(6) 0.9230(6)
O7 O 0.9069(6) 0.5056(6) 0.1730(6)
O11 O 0.8860(10) 0.7164(9) 0.1837(8)
La2 La 0.98696(3) 0.36886(4) 0.62612(5)
La6 La 0.86886(4) 0.51304(3) 0.37612(5)
O9 O 0.8987(11) 0.6556(12) 0.9980(8)
O9_2 O 0.1013(11) 0.3444(12) 0.4980(8)
O11_2 O 0.1140(10) 0.2836(9) 0.6837(8)
O3_2 O 0.8444(12) 0.3987(11) 0.2480(8)
O5_2 O 0.6140(10) 0.2164(9) 0.0663(8)
C3_2 C 0.8573(10) 0.4392(10) 0.1735(9)
C4_2 C 0.8327(10) 0.3945(8) 0.0838(8)
C5_2 C 0.7422(10) 0.2844(10) 0.0021(10)
C6_2 C 0.6706(10) 0.2150(10) 0.0031(10)
C8_2 C 0.7640(9) 0.3305(9) 0.0816(8)
H2_2 H 0.7317 0.3189 0.1367
La3_2 La 0.48696(3) 0.13114(4) 0.12388(5)
O1_2 O 0.8650(9) 0.3763(14) 0.7480(8)
O4_2 O 0.9827(6) 0.4166(5) 0.8240(6)
C1_2 C 0.8571(8) 0.3664(10) 0.9153(8)
C2_2 C 0.9047(9) 0.3890(10) 0.8255(8)
O6_2 O 0.6656(8) 0.1621(8) 0.9355(8)
C7_2 C 0.8804(7) 0.4092(7) 0.9984(7)
H1_2 H 0.9291 0.4490 0.9984
C9_2 C 0.7896(9) 0.3021(10) 0.9166(9)
H3_2 H 0.7751 0.2705 0.8620
O8_2 O 0.9944(6) 0.4069(6) 0.4230(6)
O10_2 O 0.9166(5) 0.5173(6) 0.5740(6)
O12_2 O 0.8379(8) 0.3344(8) 0.5645(8)
La4_2 La 0.63114(4) 0.01304(3) 0.87388(5)
O2_2 O 0.5931(6) 0.0056(6) 0.0770(6)
O10_3 O 0.5834(5) 0.0173(6) 0.6760(6)
O1_3 O 0.6350(9) 0.8763(14) 0.5020(8)
O3_3 O 0.6556(12) 0.8987(11) 0.0020(8)
O4_3 O 0.5173(6) 0.9166(5) 0.4260(6)
C1_3 C 0.6429(8) 0.8664(10) 0.3347(8)
C2_3 C 0.5953(9) 0.8890(10) 0.4245(8)
C3_3 C 0.6427(10) 0.9392(10) 0.0765(9)
C4_3 C 0.6673(10) 0.8945(8) 0.1662(8)
O6_3 O 0.8344(8) 0.6621(8) 0.3145(8)
C5_3 C 0.7578(10) 0.7844(10) 0.2479(10)
C6_3 C 0.8294(10) 0.7150(10) 0.2469(10)
C7_3 C 0.6196(7) 0.9092(7) 0.2516(7)
H1_3 H 0.5709 0.9490 0.2516
C8_3 C 0.7360(9) 0.8305(9) 0.1684(8)
H2_3 H 0.7683 0.8189 0.1133
C9_3 C 0.7104(9) 0.8021(10) 0.3334(9)
H3_3 H 0.7249 0.7705 0.3880
O7_2 O 0.4069(6) 0.9944(6) 0.5770(6)
O8_3 O 0.5056(6) 0.9069(6) 0.8270(6)
O9_3 O 0.3987(11) 0.8444(12) 0.7520(8)
O12_3 O 0.6621(8) 0.8344(8) 0.6855(8)
O1_4 O 0.3650(9) 0.1237(14) 0.0020(8)
O8_4 O 0.4944(6) 0.0931(6) 0.3270(6)
O9_4 O 0.6013(11) 0.1556(12) 0.2520(8)
O12_4 O 0.3379(8) 0.1656(8) 0.1855(8)
O3_4 O 0.3444(12) 0.1013(11) 0.5020(8)
O4_4 O 0.4827(6) 0.0834(5) 0.9260(6)
C1_4 C 0.3571(8) 0.1336(10) 0.8347(8)
C2_4 C 0.4047(9) 0.1110(10) 0.9245(8)
C3_4 C 0.3573(10) 0.0608(10) 0.5765(9)
C4_4 C 0.3327(10) 0.1055(8) 0.6662(8)
O6_4 O 0.1656(8) 0.3379(8) 0.8145(8)
C5_4 C 0.2422(10) 0.2156(10) 0.7479(10)
C6_4 C 0.1706(10) 0.2850(10) 0.7469(10)
C7_4 C 0.3804(7) 0.0908(7) 0.7516(7)
H1_4 H 0.4291 0.0510 0.7516
C8_4 C 0.2640(9) 0.1695(9) 0.6684(8)
H2_4 H 0.2317 0.1811 0.6133
C9_4 C 0.2896(9) 0.1979(10) 0.8334(9)
H3_4 H 0.2751 0.2295 0.8880
O10_4 O 0.4166(5) 0.9827(6) 0.1760(6)
O11_3 O 0.2836(9) 0.1140(10) 0.3163(8)
O1_5 O 0.3763(14) 0.8650(9) 0.2520(8)
C1_5 C 0.3664(10) 0.8571(8) 0.0847(8)
C2_5 C 0.3890(10) 0.9047(9) 0.1745(8)
C7_5 C 0.4092(7) 0.8804(7) 0.0016(7)
H1_5 H 0.4490 0.9291 0.0016
C9_5 C 0.3021(10) 0.7896(9) 0.0834(9)
H3_5 H 0.2705 0.7751 0.1380
O5_3 O 0.2164(9) 0.6140(10) 0.9337(8)
C3_5 C 0.4392(10) 0.8573(10) 0.8265(9)
C4_5 C 0.3945(8) 0.8327(10) 0.9162(8)
C5_5 C 0.2844(10) 0.7422(10) 0.9979(10)
C6_5 C 0.2150(10) 0.6706(10) 0.9969(10)
C8_5 C 0.3305(9) 0.7640(9) 0.9184(8)
H2_5 H 0.3189 0.7317 0.8633
O1_6 O 0.6237(14) 0.1350(9) 0.7520(8)
C1_6 C 0.6336(10) 0.1429(8) 0.5847(8)
C2_6 C 0.6110(10) 0.0953(9) 0.6745(8)
O5_4 O 0.7836(9) 0.3860(10) 0.4337(8)
C3_6 C 0.5608(10) 0.1427(10) 0.3265(9)
C4_6 C 0.6055(8) 0.1673(10) 0.4162(8)
C5_6 C 0.7156(10) 0.2578(10) 0.4979(10)
C6_6 C 0.7850(10) 0.3294(10) 0.4969(10)
C7_6 C 0.5908(7) 0.1196(7) 0.5016(7)
H1_6 H 0.5510 0.0709 0.5016
C8_6 C 0.6695(9) 0.2360(9) 0.4184(8)
H2_6 H 0.6811 0.2683 0.3633
C9_6 C 0.6979(10) 0.2104(9) 0.5834(9)
H3_6 H 0.7295 0.2249 0.6380
O11_4 O 0.7164(9) 0.8860(10) 0.8163(8)
C1_7 C 0.1336(10) 0.3571(8) 0.1653(8)
C2_7 C 0.1110(10) 0.4047(9) 0.0755(8)
C3_7 C 0.0608(10) 0.3573(10) 0.4235(9)
C4_7 C 0.1055(8) 0.3327(10) 0.3338(8)
C5_7 C 0.2156(10) 0.2422(10) 0.2521(10)
C6_7 C 0.2850(10) 0.1706(10) 0.2531(10)
C7_7 C 0.0908(7) 0.3804(7) 0.2484(7)
H1_7 H 0.0510 0.4291 0.2484
C8_7 C 0.1695(9) 0.2640(9) 0.3316(8)
H2_7 H 0.1811 0.2317 0.3867
C9_7 C 0.1979(10) 0.2896(9) 0.1666(9)
H3_7 H 0.2295 0.2751 0.1120
O1_7 O 0.1237(14) 0.3650(9) 0.9980(8)
O1_8 O 0.8763(14) 0.6350(9) 0.4980(8)
C1_8 C 0.8664(10) 0.6429(8) 0.6653(8)
C2_8 C 0.8890(10) 0.5953(9) 0.5755(8)
C3_8 C 0.9392(10) 0.6427(10) 0.9235(9)
C4_8 C 0.8945(8) 0.6673(10) 0.8338(8)
C5_8 C 0.7844(10) 0.7578(10) 0.7521(10)
C6_8 C 0.7150(10) 0.8294(10) 0.7531(10)
C7_8 C 0.9092(7) 0.6196(7) 0.7484(7)
H1_8 H 0.9490 0.5709 0.7484
C8_8 C 0.8305(9) 0.7360(9) 0.8316(8)
H2_8 H 0.8189 0.7683 0.8867
C9_8 C 0.8021(10) 0.7104(9) 0.6666(9)
H3_8 H 0.7705 0.7249 0.6120
loop_
_geom_bond_atom_site_label_1
_geom_bond_atom_site_label_2
_geom_bond_site_symmetry_1
_geom_bond_site_symmetry_2
O1 C2 1_555 1_555
O2 C3 1_555 1_555
O3 C3 1_555 1_555
O4 C2 1_555 1_555
C1 C2 1_555 1_555
O5 C6 1_555 1_555
C3 C4 1_555 1_555
C4 C7 1_555 1_555
O6 C6 1_555 1_555
C5 C6 1_555 1_555
C7 C1 1_555 1_555
H1 C7 1_555 1_555
C8 C4 1_555 1_555
H2 C8 1_555 1_555
C9 C1 1_555 1_555
H3 C9 1_555 1_555
La1 O1 1_555 1_555
O10 La1 1_555 1_555
O12 La1 1_555 1_555
La3 O5 1_555 1_555
La4 O6 1_555 1_555
La5 O2 1_555 1_555
O3 La5 1_555 1_555
O4 La1 1_555 1_555
C5 C8 1_555 1_555
C5 C9 1_555 1_555
O7 La6 1_555 1_555
O7 C3_2 1_555 1_555
O3_2 C3_2 1_555 1_555
O5_2 C6_2 1_555 1_555
C3_2 C4_2 1_555 1_555
C5_2 C6_2 1_555 1_555
C8_2 C4_2 1_555 1_555
H2_2 C8_2 1_555 1_555
La3_2 O5_2 1_555 1_555
O3_2 La6 1_555 1_555
C5_2 C8_2 1_555 1_555
O1_2 C2_2 1_555 1_555
O4_2 C2_2 1_555 1_555
C1_2 C2_2 1_555 1_555
C7_2 C1_2 1_555 1_555
H1_2 C7_2 1_555 1_555
C9_2 C1_2 1_555 1_555
H3_2 C9_2 1_555 1_555
La2 O1_2 1_555 1_555
O8_2 La2 1_555 1_555
O10_2 La2 1_555 1_555
O12_2 La2 1_555 1_555
La4_2 O6_2 1_555 1_555
O4_2 La2 1_555 1_555
La3_2 O2_2 1_555 1_555
O1_3 C2_3 1_555 1_555
O3_3 C3_3 1_555 1_555
O4_3 C2_3 1_555 1_555
C1_3 C2_3 1_555 1_555
O11 C6_3 1_555 1_555
C3_3 C4_3 1_555 1_555
C4_3 C7_3 1_555 1_555
O6_3 C6_3 1_555 1_555
C5_3 C6_3 1_555 1_555
C7_3 C1_3 1_555 1_555
H1_3 C7_3 1_555 1_555
C8_3 C4_3 1_555 1_555
H2_3 C8_3 1_555 1_555
C9_3 C1_3 1_555 1_555
H3_3 C9_3 1_555 1_555
La3 O1_3 1_555 1_555
O7_2 La3 1_555 1_555
O8_3 La3 1_555 1_555
O9_3 La3 1_555 1_555
O12_3 La3 1_555 1_555
La6 O6_3 1_555 1_555
La4 O4_3 1_555 1_555
O4_3 La3 1_555 1_555
C5_3 C8_3 1_555 1_555
C5_3 C9_3 1_555 1_555
O7_2 La4 1_555 1_555
La3_2 O1_4 1_555 1_555
O8_4 La3_2 1_555 1_555
O9_4 La3_2 1_555 1_555
O12_4 La3_2 1_555 1_555
O3_4 C3_4 1_555 1_555
O4_4 C2_4 1_555 1_555
C1_4 C2_4 1_555 1_555
O11_2 C6_4 1_555 1_555
C3_4 C4_4 1_555 1_555
C4_4 C7_4 1_555 1_555
O6_4 C6_4 1_555 1_555
C5_4 C6_4 1_555 1_555
C7_4 C1_4 1_555 1_555
H1_4 C7_4 1_555 1_555
C8_4 C4_4 1_555 1_555
H2_4 C8_4 1_555 1_555
C9_4 C1_4 1_555 1_555
H3_4 C9_4 1_555 1_555
La5 O6_4 1_555 1_555
La4_2 O4_4 1_555 1_555
C5_4 C8_4 1_555 1_555
C5_4 C9_4 1_555 1_555
O1_5 C2_5 1_555 1_555
O10_4 C2_5 1_555 1_555
C1_5 C2_5 1_555 1_555
C7_5 C1_5 1_555 1_555
H1_5 C7_5 1_555 1_555
C9_5 C1_5 1_555 1_555
H3_5 C9_5 1_555 1_555
La4 O1_5 1_555 1_555
O10_4 La4 1_555 1_555
O8_3 C3_5 1_555 1_555
O9_3 C3_5 1_555 1_555
O5_3 C6_5 1_555 1_555
C3_5 C4_5 1_555 1_555
C5_5 C6_5 1_555 1_555
C8_5 C4_5 1_555 1_555
H2_5 C8_5 1_555 1_555
La5 O5_3 1_555 1_555
C5_5 C8_5 1_555 1_555
O1_6 C2_6 1_555 1_555
O8_4 C3_6 1_555 1_555
O9_4 C3_6 1_555 1_555
O10_3 C2_6 1_555 1_555
C1_6 C2_6 1_555 1_555
O5_4 C6_6 1_555 1_555
C3_6 C4_6 1_555 1_555
C4_6 C7_6 1_555 1_555
O12_2 C6_6 1_555 1_555
C5_6 C6_6 1_555 1_555
C7_6 C1_6 1_555 1_555
H1_6 C7_6 1_555 1_555
C8_6 C4_6 1_555 1_555
H2_6 C8_6 1_555 1_555
C9_6 C1_6 1_555 1_555
H3_6 C9_6 1_555 1_555
La4_2 O1_6 1_555 1_555
La6 O5_4 1_555 1_555
O10_3 La4_2 1_555 1_555
C5_6 C8_6 1_555 1_555
C5_6 C9_6 1_555 1_555
O9_2 C3_7 1_555 1_555
O10 C2_7 1_555 1_555
C1_7 C2_7 1_555 1_555
O11_3 C6_7 1_555 1_555
C3_7 C4_7 1_555 1_555
C4_7 C7_7 1_555 1_555
O12_4 C6_7 1_555 1_555
C5_7 C6_7 1_555 1_555
C7_7 C1_7 1_555 1_555
H1_7 C7_7 1_555 1_555
C8_7 C4_7 1_555 1_555
H2_7 C8_7 1_555 1_555
C9_7 C1_7 1_555 1_555
H3_7 C9_7 1_555 1_555
C5_7 C8_7 1_555 1_555
C5_7 C9_7 1_555 1_555
La5 O1_7 1_555 1_555
O8 La5 1_555 1_555
La6 O8_2 1_555 1_555
O1_8 C2_8 1_555 1_555
O9 C3_8 1_555 1_555
O10_2 C2_8 1_555 1_555
C1_8 C2_8 1_555 1_555
O11_4 C6_8 1_555 1_555
C3_8 C4_8 1_555 1_555
C4_8 C7_8 1_555 1_555
O12_3 C6_8 1_555 1_555
C5_8 C6_8 1_555 1_555
C7_8 C1_8 1_555 1_555
H1_8 C7_8 1_555 1_555
C8_8 C4_8 1_555 1_555
H2_8 C8_8 1_555 1_555
C9_8 C1_8 1_555 1_555
H3_8 C9_8 1_555 1_555
La6 O1_8 1_555 1_555
O10_2 La6 1_555 1_555
C5_8 C8_8 1_555 1_555
C5_8 C9_8 1_555 1_555

#END
