
###############################################################################
#
# This file contains modified crystal structure data generated from the
# MOF subset of the Cambridge Structural Database (CSD) v543 
# hosted by the Cambridge Crystallographic Data Centre (CCDC).
#
# This work is licensed under the Creative Commons
# Attribution-NonCommercial-ShareAlike 4.0 International License.
# To view a copy of this license, visit
# http://creativecommons.org/licenses/by-nc-sa/4.0/
# or send a letter to
# Creative Commons, PO Box 1866, Mountain View, CA 94042, USA.
#
# CIF created using the CSD Python API on 29 September 2022
# The structure has been converted into the P1 space group
# The structure has a 3D framework
# The original CSD entry HEMBUZ is in the orthorhombic crystal system
# The framework has been calculated to contain at least 10.0% void space
# The void calculation uses a probe of radius 1.32A, grid spacing 0.4
# H atom positions have been added when not included in the experimental data
#
###############################################################################

data_HEMBUZ
_chemical_formula_moiety         '(C96 H48 Bi6 N12 O26)n'
_symmetry_cell_setting           triclinic
_symmetry_space_group_name_H-M   'P 1'
_symmetry_Int_Tables_number      1
_space_group_name_Hall           'P 1'
loop_
_symmetry_equiv_pos_site_id
_symmetry_equiv_pos_as_xyz
1 x,y,z
_cell_length_a                   20.8680(13)
_cell_length_b                   31.6583(23)
_cell_length_c                   3.95962(24)
_cell_angle_alpha                90
_cell_angle_beta                 90
_cell_angle_gamma                90
_cell_volume                     2615.9
loop_
_atom_site_label
_atom_site_type_symbol
_atom_site_fract_x
_atom_site_fract_y
_atom_site_fract_z
Bi2 Bi 0.14149(37) 0.03772(28) 0.4110(46)
O10 O 0.090233 0.090003 0.082382
O11 O 0.242259 0.041634 0.543291
O12 O 0.198720 0.092226 0.732574
O15 O 0.1102(21) 0.0053(17) 0.900(45)
O1 O 0.134422 0.924559 0.215963
O2 O 0.182735 0.975013 0.372605
O3 O 0.488587 0.585281 0.302884
O4 O 0.409767 0.590003 0.582382
O5 O 0.757741 0.958366 0.043291
O6 O 0.801280 0.907774 0.232574
N1 N 0.405315 0.803766 0.319295
N2 N 0.517144 0.800755 0.291136
N3 N 0.464807 0.865977 0.264418
C1 C 0.4077 0.846243 0.292097
C2 C 0.460037 0.781021 0.318814
C3 C 0.519530 0.843233 0.263938
C4 C 0.354294 0.868441 0.292566
C5 C 0.355916 0.911001 0.368445
C6 C 0.299941 0.934266 0.368936
C7 C 0.242344 0.914971 0.293548
C8 C 0.240722 0.872410 0.217669
C9 C 0.296697 0.849145 0.217178
C10 C 0.181842 0.940117 0.29408
C11 C 0.457709 0.739565 0.345358
C12 C 0.400149 0.718665 0.30437
C13 C 0.397709 0.675215 0.332191
C14 C 0.452829 0.652665 0.401
C15 C 0.510388 0.673565 0.441988
C16 C 0.512828 0.717015 0.414167
C17 C 0.450191 0.605700 0.431071
C18 C 0.575263 0.862492 0.236925
C19 C 0.628668 0.840205 0.133695
C20 C 0.687083 0.86039 0.105382
C21 C 0.692093 0.902863 0.180301
C22 C 0.638689 0.925150 0.283531
C23 C 0.580274 0.904964 0.311844
C24 C 0.755233 0.924680 0.149699
Bi8 Bi 0.35851(37) 0.53772(28) 0.9110(46)
O14 O 0.0199(23) 0.9965(16) 0.41(15)
H1 H 0.624717 0.806711 0.0746141
H2 H 0.356681 0.736448 0.250107
H3 H 0.729198 0.842814 0.0239736
H4 H 0.553856 0.655782 0.496252
H5 H 0.64264 0.958644 0.342612
H6 H 0.401338 0.926218 0.427898
H7 H 0.352317 0.658733 0.299868
H8 H 0.30122 0.96783 0.428776
H9 H 0.538159 0.92254 0.393256
H10 H 0.1953 0.857193 0.158218
H11 H 0.55822 0.733497 0.446491
H12 H 0.295418 0.815581 0.157339
Bi1 Bi 0.04782(28) 0.95272(23) 0.9238(41)
Bi5 Bi 0.54782(28) 0.54728(23) 0.9238(41)
Bi7 Bi 0.85851(37) 0.96228(28) 0.9110(46)
Bi4 Bi 0.95218(28) 0.04728(23) 0.4238(41)
O7 O 0.9801(23) 0.0035(16) 0.91(15)
O9 O 0.988587 0.914719 0.302884
O9_2 O 0.011413 0.085281 0.802884
O4_2 O 0.590233 0.409997 0.082382
Bi8_2 Bi 0.64149(37) 0.46228(28) 0.4110(46)
O1_2 O 0.865578 0.075441 0.715963
O2_2 O 0.817265 0.024987 0.872605
O3_2 O 0.511413 0.414719 0.802884
N1_2 N 0.594685 0.196234 0.819295
N2_2 N 0.482856 0.199245 0.791136
N3_2 N 0.535193 0.134023 0.764418
C1_2 C 0.5923 0.153757 0.792097
C2_2 C 0.539963 0.218979 0.818814
C3_2 C 0.480470 0.156767 0.763938
C4_2 C 0.645706 0.131559 0.792566
C5_2 C 0.644084 0.088999 0.868445
C6_2 C 0.700059 0.065734 0.868936
C7_2 C 0.757656 0.085029 0.793548
C8_2 C 0.759278 0.127590 0.717669
C9_2 C 0.703303 0.150855 0.717178
C10_2 C 0.818158 0.059883 0.79408
C11_2 C 0.542291 0.260435 0.845358
C12_2 C 0.599851 0.281335 0.80437
C13_2 C 0.602291 0.324785 0.832191
C14_2 C 0.547171 0.347335 0.901
C15_2 C 0.489612 0.326435 0.941988
C16_2 C 0.487172 0.282985 0.914167
C17_2 C 0.549809 0.394300 0.931071
C18_2 C 0.424737 0.137508 0.736925
C19_2 C 0.371332 0.159795 0.633695
C20_2 C 0.312917 0.13961 0.605382
C21_2 C 0.307907 0.097137 0.680301
C22_2 C 0.361311 0.074850 0.783531
C23_2 C 0.419726 0.095036 0.811844
C24_2 C 0.244767 0.075320 0.649699
Bi5_2 Bi 0.45218(28) 0.45272(23) 0.4238(41)
H1_2 H 0.375283 0.193289 0.574614
H2_2 H 0.643319 0.263552 0.750107
H3_2 H 0.270802 0.157186 0.523974
H4_2 H 0.446144 0.344218 0.996252
H5_2 H 0.35736 0.0413556 0.842612
H6_2 H 0.598662 0.0737822 0.927898
H7_2 H 0.647683 0.341267 0.799868
H8_2 H 0.69878 0.0321701 0.928776
H9_2 H 0.461841 0.0774602 0.893256
H10_2 H 0.8047 0.142807 0.658218
H11_2 H 0.44178 0.266503 0.946491
H12_2 H 0.704582 0.184419 0.657339
O15_2 O 0.8898(21) 0.9947(17) 0.400(45)
O10_2 O 0.909767 0.909997 0.582382
O11_2 O 0.257741 0.541634 0.043291
O12_2 O 0.301280 0.592226 0.232574
O15_3 O 0.3898(21) 0.5053(17) 0.400(45)
O1_3 O 0.365578 0.424559 0.715963
O2_3 O 0.317265 0.475013 0.872605
N1_3 N 0.094685 0.303766 0.819295
N3_3 N 0.035193 0.365977 0.764418
C1_3 C 0.0923 0.346243 0.792097
C2_3 C 0.039963 0.281021 0.818814
C4_3 C 0.145706 0.368441 0.792566
C5_3 C 0.144084 0.411001 0.868445
C6_3 C 0.200059 0.434266 0.868936
C7_3 C 0.257656 0.414971 0.793548
C8_3 C 0.259278 0.372410 0.717669
C9_3 C 0.203303 0.349145 0.717178
C10_3 C 0.318158 0.440117 0.79408
C11_3 C 0.042291 0.239565 0.845358
C12_3 C 0.099851 0.218665 0.80437
C13_3 C 0.102291 0.175215 0.832191
C14_3 C 0.047171 0.152665 0.901
C17_3 C 0.049809 0.105700 0.931071
O7_2 O 0.5199(23) 0.5035(16) 0.41(15)
O14_2 O 0.4801(23) 0.4965(16) 0.91(15)
H2_3 H 0.143319 0.236448 0.750107
H6_3 H 0.0986625 0.426218 0.927898
H7_3 H 0.147683 0.158733 0.799868
H8_3 H 0.19878 0.46783 0.928776
H10_3 H 0.3047 0.357193 0.658218
H12_3 H 0.204582 0.315581 0.657339
O5_2 O 0.742259 0.458366 0.543291
O6_2 O 0.698720 0.407774 0.732574
N2_3 N 0.982856 0.300755 0.791136
C3_3 C 0.980470 0.343233 0.763938
C15_3 C 0.989612 0.173565 0.941988
C16_3 C 0.987172 0.217015 0.914167
C18_3 C 0.924737 0.362492 0.736925
C19_3 C 0.871332 0.340205 0.633695
C20_3 C 0.812917 0.36039 0.605382
C21_3 C 0.807907 0.402863 0.680301
C22_3 C 0.861311 0.425150 0.783531
C23_3 C 0.919726 0.404964 0.811844
C24_3 C 0.744767 0.424680 0.649699
H1_3 H 0.875283 0.306711 0.574614
H3_3 H 0.770802 0.342814 0.523974
H4_3 H 0.946144 0.155782 0.996252
H5_3 H 0.85736 0.458644 0.842612
H9_3 H 0.961841 0.42254 0.893256
H11_3 H 0.94178 0.233497 0.946491
N2_4 N 0.017144 0.699245 0.291136
C3_4 C 0.019530 0.656767 0.263938
C15_4 C 0.010388 0.826435 0.441988
C16_4 C 0.012828 0.782985 0.414167
C18_4 C 0.075263 0.637508 0.236925
C19_4 C 0.128668 0.659795 0.133695
C20_4 C 0.187083 0.63961 0.105382
C21_4 C 0.192093 0.597137 0.180301
C22_4 C 0.138689 0.574850 0.283531
C23_4 C 0.080274 0.595036 0.311844
C24_4 C 0.255233 0.575320 0.149699
H1_4 H 0.124717 0.693289 0.0746141
H3_4 H 0.229198 0.657186 0.0239736
H4_4 H 0.0538557 0.844218 0.496252
H5_4 H 0.14264 0.541356 0.342612
H9_4 H 0.0381586 0.57746 0.393256
H11_4 H 0.05822 0.766503 0.446491
O1_4 O 0.634422 0.575441 0.215963
O2_4 O 0.682735 0.524987 0.372605
N1_4 N 0.905315 0.696234 0.319295
N3_4 N 0.964807 0.634023 0.264418
C1_4 C 0.9077 0.653757 0.292097
C2_4 C 0.960037 0.718979 0.318814
C4_4 C 0.854294 0.631559 0.292566
C5_4 C 0.855916 0.588999 0.368445
C6_4 C 0.799941 0.565734 0.368936
C7_4 C 0.742344 0.585029 0.293548
C8_4 C 0.740722 0.627590 0.217669
C9_4 C 0.796697 0.650855 0.217178
C10_4 C 0.681842 0.559883 0.29408
C11_4 C 0.957709 0.760435 0.345358
C12_4 C 0.900149 0.781335 0.30437
C13_4 C 0.897709 0.824785 0.332191
C14_4 C 0.952829 0.847335 0.401
C17_4 C 0.950191 0.894300 0.431071
O15_4 O 0.6102(21) 0.4947(17) 0.900(45)
H2_4 H 0.856681 0.763552 0.250107
H6_4 H 0.901338 0.573782 0.427898
H7_4 H 0.852317 0.841267 0.299868
H8_4 H 0.80122 0.53217 0.428776
H10_4 H 0.6953 0.642807 0.158218
H12_4 H 0.795418 0.684419 0.157339
loop_
_geom_bond_atom_site_label_1
_geom_bond_atom_site_label_2
_geom_bond_site_symmetry_1
_geom_bond_site_symmetry_2
O10 Bi2 1_555 1_555
O11 Bi2 1_555 1_555
O12 Bi2 1_555 1_555
O15 Bi2 1_555 1_555
O1 C10 1_555 1_555
O2 C10 1_555 1_555
O3 C17 1_555 1_555
O4 C17 1_555 1_555
O5 C24 1_555 1_555
O6 C24 1_555 1_555
N1 C1 1_555 1_555
N2 C2 1_555 1_555
N3 C1 1_555 1_555
C1 C4 1_555 1_555
C2 N1 1_555 1_555
C3 N2 1_555 1_555
C4 C5 1_555 1_555
C5 C6 1_555 1_555
C6 C7 1_555 1_555
C7 C8 1_555 1_555
C8 C9 1_555 1_555
C9 C4 1_555 1_555
C10 C7 1_555 1_555
C11 C2 1_555 1_555
C12 C11 1_555 1_555
C13 C12 1_555 1_555
C14 C13 1_555 1_555
C15 C14 1_555 1_555
C16 C11 1_555 1_555
C17 C14 1_555 1_555
C18 C3 1_555 1_555
C19 C18 1_555 1_555
C20 C19 1_555 1_555
C21 C20 1_555 1_555
C22 C21 1_555 1_555
C23 C18 1_555 1_555
C24 C21 1_555 1_555
Bi8 O4 1_555 1_555
N3 C3 1_555 1_555
C15 C16 1_555 1_555
C22 C23 1_555 1_555
C19 H1 1_555 1_555
C12 H2 1_555 1_555
C20 H3 1_555 1_555
C15 H4 1_555 1_555
C22 H5 1_555 1_555
C5 H6 1_555 1_555
C13 H7 1_555 1_555
C6 H8 1_555 1_555
C23 H9 1_555 1_555
C8 H10 1_555 1_555
C16 H11 1_555 1_555
C9 H12 1_555 1_555
O14 Bi1 1_555 1_555
Bi4 O7 1_555 1_555
Bi8_2 O4_2 1_555 1_555
O1_2 C10_2 1_555 1_555
O2_2 C10_2 1_555 1_555
O3_2 C17_2 1_555 1_555
O11 C24_2 1_555 1_555
O12 C24_2 1_555 1_555
N1_2 C1_2 1_555 1_555
N2_2 C2_2 1_555 1_555
N3_2 C1_2 1_555 1_555
C1_2 C4_2 1_555 1_555
C2_2 N1_2 1_555 1_555
C3_2 N2_2 1_555 1_555
C4_2 C5_2 1_555 1_555
C5_2 C6_2 1_555 1_555
C6_2 C7_2 1_555 1_555
C7_2 C8_2 1_555 1_555
C8_2 C9_2 1_555 1_555
C9_2 C4_2 1_555 1_555
C10_2 C7_2 1_555 1_555
C11_2 C2_2 1_555 1_555
C12_2 C11_2 1_555 1_555
C13_2 C12_2 1_555 1_555
C14_2 C13_2 1_555 1_555
C15_2 C14_2 1_555 1_555
C16_2 C11_2 1_555 1_555
C17_2 C14_2 1_555 1_555
C18_2 C3_2 1_555 1_555
C19_2 C18_2 1_555 1_555
C20_2 C19_2 1_555 1_555
C21_2 C20_2 1_555 1_555
C22_2 C21_2 1_555 1_555
C23_2 C18_2 1_555 1_555
C24_2 C21_2 1_555 1_555
Bi4 O1_2 1_555 1_555
Bi5_2 O3_2 1_555 1_555
N3_2 C3_2 1_555 1_555
C15_2 C16_2 1_555 1_555
C22_2 C23_2 1_555 1_555
C19_2 H1_2 1_555 1_555
C12_2 H2_2 1_555 1_555
C20_2 H3_2 1_555 1_555
C15_2 H4_2 1_555 1_555
C22_2 H5_2 1_555 1_555
C5_2 H6_2 1_555 1_555
C13_2 H7_2 1_555 1_555
C6_2 H8_2 1_555 1_555
C23_2 H9_2 1_555 1_555
C8_2 H10_2 1_555 1_555
C16_2 H11_2 1_555 1_555
C9_2 H12_2 1_555 1_555
O10_2 Bi7 1_555 1_555
Bi7 O15_2 1_555 1_555
O1_3 C10_3 1_555 1_555
O2_3 C10_3 1_555 1_555
O9_2 C17_3 1_555 1_555
N1_3 C1_3 1_555 1_555
N3_3 C1_3 1_555 1_555
C1_3 C4_3 1_555 1_555
C2_3 N1_3 1_555 1_555
C4_3 C5_3 1_555 1_555
C5_3 C6_3 1_555 1_555
C6_3 C7_3 1_555 1_555
C7_3 C8_3 1_555 1_555
C8_3 C9_3 1_555 1_555
C9_3 C4_3 1_555 1_555
C10_3 C7_3 1_555 1_555
C11_3 C2_3 1_555 1_555
C12_3 C11_3 1_555 1_555
C13_3 C12_3 1_555 1_555
C14_3 C13_3 1_555 1_555
C17_3 C14_3 1_555 1_555
Bi5_2 O1_3 1_555 1_555
Bi8 O2_3 1_555 1_555
O7_2 Bi5_2 1_555 1_555
O15_3 Bi5_2 1_555 1_555
Bi5 O7_2 1_555 1_555
Bi8_2 O7_2 1_555 1_555
O14_2 Bi5_2 1_555 1_555
Bi8 O15_3 1_555 1_555
Bi8 O14_2 1_555 1_555
Bi5 O14_2 1_555 1_555
C12_3 H2_3 1_555 1_555
C5_3 H6_3 1_555 1_555
C13_3 H7_3 1_555 1_555
C6_3 H8_3 1_555 1_555
C8_3 H10_3 1_555 1_555
C9_3 H12_3 1_555 1_555
O5_2 C24_3 1_555 1_555
O6_2 C24_3 1_555 1_555
C3_3 N2_3 1_555 1_555
C18_3 C3_3 1_555 1_555
C19_3 C18_3 1_555 1_555
C20_3 C19_3 1_555 1_555
C21_3 C20_3 1_555 1_555
C22_3 C21_3 1_555 1_555
C23_3 C18_3 1_555 1_555
C24_3 C21_3 1_555 1_555
Bi8_2 O5_2 1_555 1_555
O6_2 Bi8_2 1_555 1_555
C15_3 C16_3 1_555 1_555
C22_3 C23_3 1_555 1_555
C19_3 H1_3 1_555 1_555
C20_3 H3_3 1_555 1_555
C15_3 H4_3 1_555 1_555
C22_3 H5_3 1_555 1_555
C23_3 H9_3 1_555 1_555
C16_3 H11_3 1_555 1_555
O11_2 C24_4 1_555 1_555
O12_2 C24_4 1_555 1_555
C3_4 N2_4 1_555 1_555
C18_4 C3_4 1_555 1_555
C19_4 C18_4 1_555 1_555
C20_4 C19_4 1_555 1_555
C21_4 C20_4 1_555 1_555
C22_4 C21_4 1_555 1_555
C23_4 C18_4 1_555 1_555
C24_4 C21_4 1_555 1_555
C15_4 C16_4 1_555 1_555
C22_4 C23_4 1_555 1_555
C19_4 H1_4 1_555 1_555
C20_4 H3_4 1_555 1_555
C15_4 H4_4 1_555 1_555
C22_4 H5_4 1_555 1_555
C23_4 H9_4 1_555 1_555
C16_4 H11_4 1_555 1_555
O1_4 C10_4 1_555 1_555
O2_4 C10_4 1_555 1_555
O9 C17_4 1_555 1_555
O10_2 C17_4 1_555 1_555
N1_4 C1_4 1_555 1_555
N3_4 C1_4 1_555 1_555
C1_4 C4_4 1_555 1_555
C2_4 N1_4 1_555 1_555
C4_4 C5_4 1_555 1_555
C5_4 C6_4 1_555 1_555
C6_4 C7_4 1_555 1_555
C7_4 C8_4 1_555 1_555
C8_4 C9_4 1_555 1_555
C9_4 C4_4 1_555 1_555
C10_4 C7_4 1_555 1_555
C11_4 C2_4 1_555 1_555
C12_4 C11_4 1_555 1_555
C13_4 C12_4 1_555 1_555
C14_4 C13_4 1_555 1_555
C17_4 C14_4 1_555 1_555
Bi8_2 O2_4 1_555 1_555
O15_4 Bi8_2 1_555 1_555
C12_4 H2_4 1_555 1_555
C5_4 H6_4 1_555 1_555
C13_4 H7_4 1_555 1_555
C6_4 H8_4 1_555 1_555
C8_4 H10_4 1_555 1_555
C9_4 H12_4 1_555 1_555
O15_4 Bi5 1_555 1_555

#END
