
###############################################################################
#
# This file contains modified crystal structure data generated from the
# MOF subset of the Cambridge Structural Database (CSD) v543 
# hosted by the Cambridge Crystallographic Data Centre (CCDC).
#
# This work is licensed under the Creative Commons
# Attribution-NonCommercial-ShareAlike 4.0 International License.
# To view a copy of this license, visit
# http://creativecommons.org/licenses/by-nc-sa/4.0/
# or send a letter to
# Creative Commons, PO Box 1866, Mountain View, CA 94042, USA.
#
# CIF created using the CSD Python API on 29 September 2022
# The structure has been converted into the P1 space group
# The structure has a 3D framework
# The original CSD entry HENJOC is in the monoclinic crystal system
# The original CSD entry HENJOC is in a Sohncke space group
# The framework has been calculated to contain at least 10.0% void space
# The void calculation uses a probe of radius 1.32A, grid spacing 0.4
#
###############################################################################

data_HENJOC
_chemical_formula_moiety         '(C96 H116 N8 O26 Zn8)n'
_symmetry_cell_setting           triclinic
_symmetry_space_group_name_H-M   'P 1'
_symmetry_Int_Tables_number      1
_space_group_name_Hall           'P 1'
loop_
_symmetry_equiv_pos_site_id
_symmetry_equiv_pos_as_xyz
1 x,y,z
_cell_length_a                   13.086(9)
_cell_length_b                   18.293(11)
_cell_length_c                   13.570(8)
_cell_angle_alpha                90
_cell_angle_beta                 94.875(10)
_cell_angle_gamma                90
_cell_volume                     3236.67
loop_
_atom_site_label
_atom_site_type_symbol
_atom_site_fract_x
_atom_site_fract_y
_atom_site_fract_z
H13 H 0.0222 0.9958 0.9051
O15 O 0.1333(8) 0.9689(5) 0.5282(9)
Zn2 Zn 0.53980(12) 0.12255(7) 0.00538(12)
N2 N 0.5767(8) 0.3443(5) 0.0338(9)
C2 C 0.4203(12) 0.2690(6) 0.0081(13)
H1 H 0.3858 0.3001 0.0538
N3 N 0.5956(8) 0.2215(5) 0.0307(9)
O4 O 0.3995(8) 0.1930(5) 0.0296(9)
C3 C 0.6918(9) 0.2540(6) 0.0465(10)
C7 C 0.6795(9) 0.3280(6) 0.0475(11)
C10 C 0.7673(10) 0.3759(7) 0.0671(12)
H9 H 0.7608 0.4264 0.0698
C12 C 0.8613(12) 0.3411(8) 0.0816(14)
H10 H 0.9205 0.3694 0.0878
C13 C 0.8708(12) 0.2652(7) 0.0872(14)
H11 H 0.9338 0.2444 0.1082
C20 C 0.7877(11) 0.2211(7) 0.0620(12)
H16 H 0.7952 0.1709 0.0555
C29 C 0.5328(10) 0.2798(7) 0.0260(11)
H33 H 0.9003 0.0217 0.0170
O11 O 0.5178(8) 0.0798(5) 0.1359(8)
C34 C 0.5716(14) 0.0125(10) 0.2815(14)
C35 C 0.5316(10) 0.0173(8) 0.1696(11)
C39 C 0.7469(13) 0.0473(15) 0.2318(14)
H42 H 0.7289 0.0315 0.1651
H43 H 0.7295 0.0980 0.2380
H44 H 0.8193 0.0410 0.2476
O13 O 0.8457(8) 0.0969(5) 0.4799(9)
C44 C 0.5624(18) 0.0803(13) 0.3381(18)
H54 H 0.4921 0.0873 0.3538
H55 H 0.5824 0.1220 0.2998
C45 C 0.7149(12) 0.0254(11) 0.4045(14)
C46 C 0.8203(12) 0.0409(9) 0.4353(11)
C47 C 0.6391(16) 0.0725(13) 0.4405(17)
H57 H 0.6677 0.1192 0.4625
H58 H 0.6048 0.0499 0.4934
C48 C 0.6921(16) 0.0049(13) 0.2980(16)
Zn6 Zn 0.98074(11) 0.12196(7) 0.53949(12)
Zn7 Zn 0.51600(10) 0.44274(7) 0.01704(11)
N1 N 0.0005(9) 0.3454(5) 0.5597(8)
O2 O 0.9604(7) 0.0616(4) 0.6664(7)
O5 O 0.6656(8) 0.0610(5) 0.9803(8)
C5 C 0.1711(11) 0.0329(8) 0.5458(11)
O6 O 0.4009(7) 0.0078(6) 0.8971(8)
O7 O 0.1221(7) 0.0893(5) 0.5304(8)
O9 O 0.0041(13) 0.1889(6) 0.3974(10)
C8 C 0.7451(12) 0.0488(11) 0.7533(13)
H3 H 0.7747 0.0913 0.7861
H4 H 0.7591 0.0496 0.6850
H5 H 0.6723 0.0488 0.7578
C9 C 0.2890(18) 0.1560(8) 0.6882(15)
H6 H 0.2938 0.1744 0.7546
H7 H 0.3451 0.1744 0.6543
H8 H 0.2254 0.1716 0.6541
C14 C 0.4299(10) 0.0548(7) 0.8382(11)
C15 C 0.9646(12) 0.0233(9) 0.8744(11)
H12 H 0.9887 0.0702 0.8522
C16 C 0.2930(12) 0.0733(8) 0.6903(12)
C17 C 0.2857(12) 0.0391(8) 0.5874(13)
C18 C 0.0008(13) 0.3323(7) 0.6603(11)
C21 C 0.0022(15) 0.3849(9) 0.7416(12)
H17 H 0.0058 0.4351 0.7318
C23 C 0.3760(14) 0.2852(8) 0.9024(14)
H21 H 0.3890 0.3353 0.8866
H22 H 0.4077 0.2539 0.8571
H23 H 0.3033 0.2766 0.8971
H24 H 0.0347 0.2928 0.3806
C27 C 0.3383(14) 0.0783(12) 0.5087(15)
H26 H 0.3282 0.0517 0.4477
H27 H 0.3099 0.1265 0.4997
H28 H 0.4104 0.0819 0.5283
O10 O 0.4849(7) 0.1099(5) 0.8660(8)
C30 C 0.4044(11) 0.0478(8) 0.7299(11)
H29 H 0.4533 0.0779 0.6971
C32 C 0.2136(12) 0.0393(12) 0.7548(13)
H31 H 0.2262 0.0564 0.8216
H32 H 0.1458 0.0534 0.7292
C33 C 0.8744(12) 0.0334(9) 0.9497(13)
H34 H 0.8495 0.0833 0.9480
C41 C 0.0016(17) 0.2913(12) 0.8460(16)
H47 H 0.0080 0.2764 0.9117
Zn10 Zn 0.00928(11) 0.44181(7) 0.49896(11)
H20 H 0.8252 0.9060 0.0309
O12 O 0.5125(8) 0.9590(5) 0.1233(8)
C42 C 0.5143(14) 0.9405(13) 0.3154(17)
H48 H 0.5271 0.9009 0.2718
H49 H 0.5395 0.9280 0.3817
H50 H 0.4418 0.9496 0.3129
C43 C 0.7289(18) 0.9254(16) 0.270(2)
H51 H 0.6974 0.8899 0.3102
H52 H 0.7095 0.9159 0.2018
H53 H 0.8021 0.9222 0.2825
O14 O 0.8943(9) 0.9951(7) 0.4145(9)
H56 H 0.7032 0.9793 0.4387
Zn9 Zn 0.99072(11) 0.94181(7) 0.50104(11)
Zn3 Zn 0.48400(10) 0.94274(7) 0.98296(11)
O3 O 0.6155(7) 0.9483(5) 0.9324(8)
C4 C 0.6830(11) 0.9984(8) 0.9457(11)
C6 C 0.9098(9) 0.9820(6) 0.7922(9)
H2 H 0.9326 0.9314 0.8032
O8 O 0.9344(9) 0.9438(6) 0.6282(8)
C19 C 0.4145(14) 0.9702(10) 0.6936(15)
H14 H 0.4830 0.9617 0.6739
H15 H 0.4012 0.9356 0.7452
C22 C 0.8190(14) 0.9029(10) 0.9600(17)
H18 H 0.7665 0.8683 0.9390
H19 H 0.8831 0.8873 0.9376
C26 C 0.7922(11) 0.9793(8) 0.8030(11)
C28 C 0.7894(10) 0.9814(7) 0.9144(10)
C31 C 0.9377(9) 0.9993(7) 0.6891(9)
H30 H 0.2194 0.9870 0.7536
C38 C 0.7441(13) 0.9136(11) 0.7497(14)
H39 H 0.7504 0.9183 0.6800
H40 H 0.7785 0.8700 0.7738
H41 H 0.6729 0.9109 0.7613
C40 C 0.3380(14) 0.9621(10) 0.6082(14)
H45 H 0.2869 0.9262 0.6226
H46 H 0.3710 0.9459 0.5507
N5 N 0.9995(9) 0.8454(5) 0.4403(8)
N6 N 0.4233(8) 0.8443(5) 0.9662(9)
C1 C 0.9931(10) 0.2793(8) 0.5212(11)
C11 C 0.9959(13) 0.2597(7) 0.6752(11)
C24 C 0.9835(13) 0.2637(7) 0.4119(12)
C25 C 0.9979(17) 0.3549(10) 0.8314(14)
H25 H 0.9917 0.3858 0.8849
N4 N 0.9898(9) 0.2244(5) 0.5865(8)
C36 C 0.8767(16) 0.2848(13) 0.3663(14)
H35 H 0.8652 0.3359 0.3774
H36 H 0.8720 0.2753 0.2965
H37 H 0.8260 0.2566 0.3964
C37 C 0.9969(16) 0.2313(9) 0.7681(13)
H38 H 0.9949 0.1816 0.7822
Zn1 Zn 0.01926(11) 0.62196(7) 0.46051(12)
C1_2 C 0.0069(10) 0.7793(8) 0.4788(11)
C11_2 C 0.0041(13) 0.7597(7) 0.3248(11)
C24_2 C 0.0165(13) 0.7637(7) 0.5881(12)
C25_2 C 0.0021(17) 0.8549(10) 0.1686(14)
H25_2 H 0.0083 0.8858 0.1151
N4_2 N 0.0102(9) 0.7244(5) 0.4135(8)
C36_2 C 0.1233(16) 0.7848(13) 0.6337(14)
H35_2 H 0.1348 0.8359 0.6226
H36_2 H 0.1280 0.7753 0.7035
H37_2 H 0.1740 0.7566 0.6036
C37_2 C 0.0031(16) 0.7313(9) 0.2319(13)
H38_2 H 0.0051 0.6816 0.2178
O16 O 0.0396(7) 0.5616(4) 0.3336(7)
O17 O 0.1543(8) 0.5969(5) 0.5201(9)
O1 O 0.8667(8) 0.4689(5) 0.4718(9)
O3_2 O 0.3845(7) 0.4483(5) 0.0676(8)
O5_2 O 0.3344(8) 0.5610(5) 0.0197(8)
C4_2 C 0.3170(11) 0.4984(8) 0.0543(11)
C5_2 C 0.8289(11) 0.5329(8) 0.4542(11)
O6_2 O 0.5991(7) 0.5078(6) 0.1029(8)
O7_2 O 0.8779(7) 0.5893(5) 0.4696(8)
C6_2 C 0.0902(9) 0.4820(6) 0.2078(9)
H2_2 H 0.0674 0.4314 0.1968
O8_2 O 0.0656(9) 0.4438(6) 0.3718(8)
O9_2 O 0.9959(13) 0.6889(6) 0.6026(10)
C8_2 C 0.2549(12) 0.5488(11) 0.2467(13)
H3_2 H 0.2253 0.5913 0.2139
H4_2 H 0.2409 0.5496 0.3150
H5_2 H 0.3277 0.5488 0.2422
C9_2 C 0.7110(18) 0.6560(8) 0.3118(15)
H6_2 H 0.7062 0.6744 0.2454
H7_2 H 0.6549 0.6744 0.3457
H8_2 H 0.7746 0.6716 0.3459
C14_2 C 0.5701(10) 0.5548(7) 0.1618(11)
C15_2 C 0.0354(12) 0.5233(9) 0.1256(11)
H12_2 H 0.0113 0.5702 0.1478
C16_2 C 0.7070(12) 0.5733(8) 0.3097(12)
C17_2 C 0.7143(12) 0.5391(8) 0.4126(13)
C18_2 C 0.9992(13) 0.8323(7) 0.3397(11)
C19_2 C 0.5855(14) 0.4702(10) 0.3064(15)
H14_2 H 0.5170 0.4617 0.3261
H15_2 H 0.5988 0.4356 0.2548
C21_2 C 0.9978(15) 0.8849(9) 0.2584(12)
H17_2 H 0.9942 0.9351 0.2682
C22_2 C 0.1810(14) 0.4029(10) 0.0400(17)
H18_2 H 0.2335 0.3683 0.0610
H19_2 H 0.1169 0.3873 0.0624
C23_2 C 0.6240(14) 0.7852(8) 0.0976(14)
H21_2 H 0.6110 0.8353 0.1134
H22_2 H 0.5923 0.7539 0.1429
H23_2 H 0.6967 0.7766 0.1029
H24_2 H 0.9653 0.7928 0.6194
C26_2 C 0.2078(11) 0.4793(8) 0.1970(11)
C27_2 C 0.6617(14) 0.5783(12) 0.4913(15)
H26_2 H 0.6718 0.5517 0.5523
H27_2 H 0.6901 0.6265 0.5003
H28_2 H 0.5896 0.5819 0.4717
O10_2 O 0.5151(7) 0.6099(5) 0.1340(8)
C28_2 C 0.2106(10) 0.4814(7) 0.0856(10)
C30_2 C 0.5956(11) 0.5478(8) 0.2701(11)
H29_2 H 0.5467 0.5779 0.3029
C31_2 C 0.0623(9) 0.4993(7) 0.3109(9)
C32_2 C 0.7864(12) 0.5393(12) 0.2452(13)
H30_2 H 0.7806 0.4870 0.2464
H31_2 H 0.7738 0.5564 0.1784
H32_2 H 0.8542 0.5534 0.2708
C33_2 C 0.1256(12) 0.5334(9) 0.0503(13)
H34_2 H 0.1505 0.5833 0.0520
C38_2 C 0.2559(13) 0.4136(11) 0.2503(14)
H39_2 H 0.2496 0.4183 0.3200
H40_2 H 0.2215 0.3700 0.2262
H41_2 H 0.3271 0.4109 0.2387
C40_2 C 0.6620(14) 0.4621(10) 0.3918(14)
H45_2 H 0.7131 0.4262 0.3774
H46_2 H 0.6290 0.4459 0.4493
C41_2 C 0.9984(17) 0.7913(12) 0.1540(16)
H47_2 H 0.9920 0.7764 0.0883
O18 O 0.1057(9) 0.4951(7) 0.5855(9)
Zn2_2 Zn 0.46020(12) 0.62255(7) 0.99462(12)
C2_2 C 0.5797(12) 0.7690(6) 0.9919(13)
H1_2 H 0.6142 0.8001 0.9462
N3_2 N 0.4044(8) 0.7215(5) 0.9693(9)
O4_2 O 0.6005(8) 0.6930(5) 0.9704(9)
C3_2 C 0.3082(9) 0.7540(6) 0.9535(10)
C7_2 C 0.3205(9) 0.8280(6) 0.9525(11)
C10_2 C 0.2327(10) 0.8759(7) 0.9329(12)
H9_2 H 0.2392 0.9264 0.9302
C12_2 C 0.1387(12) 0.8411(8) 0.9184(14)
H10_2 H 0.0795 0.8694 0.9122
C13_2 C 0.1292(12) 0.7652(7) 0.9128(14)
H11_2 H 0.0662 0.7444 0.8918
C20_2 C 0.2123(11) 0.7211(7) 0.9380(12)
H16_2 H 0.2048 0.6709 0.9445
H20_2 H 0.1748 0.4060 0.9691
C29_2 C 0.4672(10) 0.7798(7) 0.9740(11)
H33_2 H 0.0997 0.5217 0.9830
O11_2 O 0.4822(8) 0.5798(5) 0.8641(8)
O12_2 O 0.4875(8) 0.4590(5) 0.8767(8)
C34_2 C 0.4284(14) 0.5125(10) 0.7185(14)
C35_2 C 0.4684(10) 0.5173(8) 0.8304(11)
C39_2 C 0.2531(13) 0.5473(15) 0.7682(14)
H42_2 H 0.2711 0.5315 0.8349
H43_2 H 0.2705 0.5980 0.7620
H44_2 H 0.1807 0.5410 0.7524
C42_2 C 0.4857(14) 0.4405(13) 0.6846(17)
H48_2 H 0.4729 0.4009 0.7282
H49_2 H 0.4605 0.4280 0.6183
H50_2 H 0.5582 0.4496 0.6871
C43_2 C 0.2711(18) 0.4254(16) 0.730(2)
H51_2 H 0.3026 0.3899 0.6898
H52_2 H 0.2905 0.4159 0.7982
H53_2 H 0.1979 0.4222 0.7175
C44_2 C 0.4376(18) 0.5803(13) 0.6619(18)
H54_2 H 0.5079 0.5873 0.6462
H55_2 H 0.4176 0.6220 0.7002
C45_2 C 0.2851(12) 0.5254(11) 0.5955(14)
H56_2 H 0.2968 0.4793 0.5613
C46_2 C 0.1797(12) 0.5409(9) 0.5647(11)
C47_2 C 0.3609(16) 0.5725(13) 0.5595(17)
H57_2 H 0.3323 0.6192 0.5375
H58_2 H 0.3952 0.5499 0.5066
C48_2 C 0.3079(16) 0.5049(13) 0.7020(16)
H13_2 H 0.9778 0.4958 0.0949
loop_
_geom_bond_atom_site_label_1
_geom_bond_atom_site_label_2
_geom_bond_site_symmetry_1
_geom_bond_site_symmetry_2
Zn2 N3 1_555 1_555
N2 C7 1_555 1_555
C2 H1 1_555 1_555
N3 C3 1_555 1_555
O4 Zn2 1_555 1_555
C3 C7 1_555 1_555
C7 C10 1_555 1_555
C10 H9 1_555 1_555
C12 C10 1_555 1_555
H10 C12 1_555 1_555
C13 C12 1_555 1_555
H11 C13 1_555 1_555
C20 C3 1_555 1_555
H16 C20 1_555 1_555
C29 N2 1_555 1_555
O11 Zn2 1_555 1_555
C34 C35 1_555 1_555
C35 O11 1_555 1_555
C39 H42 1_555 1_555
H43 C39 1_555 1_555
H44 C39 1_555 1_555
O13 C46 1_555 1_555
C44 C34 1_555 1_555
H54 C44 1_555 1_555
H55 C44 1_555 1_555
C46 C45 1_555 1_555
C47 C44 1_555 1_555
H57 C47 1_555 1_555
H58 C47 1_555 1_555
C48 C34 1_555 1_555
Zn6 O13 1_555 1_555
Zn7 N2 1_555 1_555
C2 O4 1_555 1_555
C2 C29 1_555 1_555
N3 C29 1_555 1_555
C13 C20 1_555 1_555
C39 C48 1_555 1_555
C45 C47 1_555 1_555
C45 C48 1_555 1_555
N1 C18 1_555 1_555
C5 O7 1_555 1_555
C8 H3 1_555 1_555
H4 C8 1_555 1_555
H5 C8 1_555 1_555
C9 H6 1_555 1_555
H7 C9 1_555 1_555
H8 C9 1_555 1_555
C14 O6 1_555 1_555
H12 C15 1_555 1_555
C16 C9 1_555 1_555
C17 C5 1_555 1_555
C18 C21 1_555 1_555
C21 H17 1_555 1_555
H21 C23 1_555 1_555
H22 C23 1_555 1_555
H23 C23 1_555 1_555
C27 C17 1_555 1_555
H26 C27 1_555 1_555
H27 C27 1_555 1_555
H28 C27 1_555 1_555
C30 C14 1_555 1_555
H29 C30 1_555 1_555
C32 C16 1_555 1_555
H31 C32 1_555 1_555
H32 C32 1_555 1_555
C33 C15 1_555 1_555
H34 C33 1_555 1_555
H47 C41 1_555 1_555
Zn6 O2 1_555 1_555
Zn10 N1 1_555 1_555
C14 O10 1_555 1_555
C16 C17 1_555 1_555
C16 C30 1_555 1_555
H48 C42 1_555 1_555
H49 C42 1_555 1_555
H50 C42 1_555 1_555
C43 H51 1_555 1_555
H52 C43 1_555 1_555
H53 C43 1_555 1_555
Zn9 O14 1_555 1_555
Zn3 O3 1_555 1_555
Zn9 O8 1_555 1_555
O3 C4 1_555 1_555
C6 H2 1_555 1_555
O8 C31 1_555 1_555
C19 H14 1_555 1_555
H15 C19 1_555 1_555
C22 H18 1_555 1_555
H19 C22 1_555 1_555
C26 C6 1_555 1_555
C28 C4 1_555 1_555
C31 C6 1_555 1_555
C38 C26 1_555 1_555
H39 C38 1_555 1_555
H40 C38 1_555 1_555
H41 C38 1_555 1_555
H45 C40 1_555 1_555
H46 C40 1_555 1_555
N5 Zn9 1_555 1_555
N6 Zn3 1_555 1_555
C19 C40 1_555 1_555
C22 C28 1_555 1_555
C26 C28 1_555 1_555
C24 C1 1_555 1_555
H25 C25 1_555 1_555
N4 Zn6 1_555 1_555
C36 C24 1_555 1_555
H35 C36 1_555 1_555
H36 C36 1_555 1_555
H37 C36 1_555 1_555
C37 C11 1_555 1_555
H38 C37 1_555 1_555
C1 N4 1_555 1_555
C11 N4 1_555 1_555
C24_2 C1_2 1_555 1_555
H25_2 C25_2 1_555 1_555
N4_2 Zn1 1_555 1_555
C36_2 C24_2 1_555 1_555
H35_2 C36_2 1_555 1_555
H36_2 C36_2 1_555 1_555
H37_2 C36_2 1_555 1_555
C37_2 C11_2 1_555 1_555
H38_2 C37_2 1_555 1_555
O16 Zn1 1_555 1_555
O17 Zn1 1_555 1_555
C1_2 N4_2 1_555 1_555
C11_2 N4_2 1_555 1_555
Zn7 O3_2 1_555 1_555
Zn10 O8_2 1_555 1_555
N5 C18_2 1_555 1_555
O1 C5_2 1_555 1_555
O16 C31_2 1_555 1_555
O3_2 C4_2 1_555 1_555
C4_2 O5_2 1_555 1_555
C5_2 O7_2 1_555 1_555
O6_2 Zn7 1_555 1_555
C6_2 H2_2 1_555 1_555
O8_2 C31_2 1_555 1_555
C8_2 H3_2 1_555 1_555
H4_2 C8_2 1_555 1_555
H5_2 C8_2 1_555 1_555
C9_2 H6_2 1_555 1_555
H7_2 C9_2 1_555 1_555
H8_2 C9_2 1_555 1_555
C14_2 O6_2 1_555 1_555
C15_2 C6_2 1_555 1_555
H12_2 C15_2 1_555 1_555
C16_2 C9_2 1_555 1_555
C17_2 C5_2 1_555 1_555
C18_2 C21_2 1_555 1_555
C19_2 H14_2 1_555 1_555
H15_2 C19_2 1_555 1_555
C21_2 H17_2 1_555 1_555
C22_2 H18_2 1_555 1_555
H19_2 C22_2 1_555 1_555
H21_2 C23_2 1_555 1_555
H22_2 C23_2 1_555 1_555
H23_2 C23_2 1_555 1_555
C26_2 C6_2 1_555 1_555
C27_2 C17_2 1_555 1_555
H26_2 C27_2 1_555 1_555
H27_2 C27_2 1_555 1_555
H28_2 C27_2 1_555 1_555
C28_2 C4_2 1_555 1_555
C30_2 C14_2 1_555 1_555
H29_2 C30_2 1_555 1_555
C31_2 C6_2 1_555 1_555
C32_2 C16_2 1_555 1_555
H30_2 C32_2 1_555 1_555
H31_2 C32_2 1_555 1_555
H32_2 C32_2 1_555 1_555
C33_2 C15_2 1_555 1_555
H34_2 C33_2 1_555 1_555
C38_2 C26_2 1_555 1_555
H39_2 C38_2 1_555 1_555
H40_2 C38_2 1_555 1_555
H41_2 C38_2 1_555 1_555
C40_2 C17_2 1_555 1_555
H45_2 C40_2 1_555 1_555
H46_2 C40_2 1_555 1_555
H47_2 C41_2 1_555 1_555
O18 Zn10 1_555 1_555
C8_2 C26_2 1_555 1_555
C14_2 O10_2 1_555 1_555
C16_2 C17_2 1_555 1_555
C16_2 C30_2 1_555 1_555
C19_2 C30_2 1_555 1_555
C19_2 C40_2 1_555 1_555
C22_2 C28_2 1_555 1_555
C26_2 C28_2 1_555 1_555
C28_2 C33_2 1_555 1_555
Zn2_2 N3_2 1_555 1_555
N6 C7_2 1_555 1_555
C2_2 H1_2 1_555 1_555
N3_2 C3_2 1_555 1_555
O4_2 Zn2_2 1_555 1_555
C3_2 C7_2 1_555 1_555
C7_2 C10_2 1_555 1_555
C10_2 H9_2 1_555 1_555
C12_2 C10_2 1_555 1_555
H10_2 C12_2 1_555 1_555
C13_2 C12_2 1_555 1_555
H11_2 C13_2 1_555 1_555
C20_2 C3_2 1_555 1_555
H16_2 C20_2 1_555 1_555
C29_2 N6 1_555 1_555
O11_2 Zn2_2 1_555 1_555
C34_2 C35_2 1_555 1_555
C35_2 O11_2 1_555 1_555
C39_2 H42_2 1_555 1_555
H43_2 C39_2 1_555 1_555
H44_2 C39_2 1_555 1_555
C42_2 C34_2 1_555 1_555
H48_2 C42_2 1_555 1_555
H49_2 C42_2 1_555 1_555
H50_2 C42_2 1_555 1_555
O17 C46_2 1_555 1_555
C43_2 H51_2 1_555 1_555
H52_2 C43_2 1_555 1_555
H53_2 C43_2 1_555 1_555
C44_2 C34_2 1_555 1_555
H54_2 C44_2 1_555 1_555
H55_2 C44_2 1_555 1_555
O18 C46_2 1_555 1_555
C45_2 H56_2 1_555 1_555
C46_2 C45_2 1_555 1_555
C47_2 C44_2 1_555 1_555
H57_2 C47_2 1_555 1_555
H58_2 C47_2 1_555 1_555
C48_2 C34_2 1_555 1_555
C2_2 O4_2 1_555 1_555
C2_2 C29_2 1_555 1_555
N3_2 C29_2 1_555 1_555
C13_2 C20_2 1_555 1_555
O12_2 C35_2 1_555 1_555
C39_2 C48_2 1_555 1_555
C43_2 C48_2 1_555 1_555
C45_2 C47_2 1_555 1_555
C45_2 C48_2 1_555 1_555

#END
