
###############################################################################
#
# This file contains modified crystal structure data generated from the
# MOF subset of the Cambridge Structural Database (CSD) v543 
# hosted by the Cambridge Crystallographic Data Centre (CCDC).
#
# This work is licensed under the Creative Commons
# Attribution-NonCommercial-ShareAlike 4.0 International License.
# To view a copy of this license, visit
# http://creativecommons.org/licenses/by-nc-sa/4.0/
# or send a letter to
# Creative Commons, PO Box 1866, Mountain View, CA 94042, USA.
#
# CIF created using the CSD Python API on 29 September 2022
# The structure has been converted into the P1 space group
# The structure has a 3D framework
# The original CSD entry HEPHIW is in the monoclinic crystal system
# The framework has been calculated to contain at least 10.0% void space
# The void calculation uses a probe of radius 1.32A, grid spacing 0.4
# The framework is charged, counterions have been retained in the structure
#
###############################################################################

data_HEPHIW
_chemical_formula_moiety         '(C116 H72 Cd10 N8 O31 1-)n'
_symmetry_cell_setting           triclinic
_symmetry_space_group_name_H-M   'P 1'
_symmetry_Int_Tables_number      1
_space_group_name_Hall           'P 1'
loop_
_symmetry_equiv_pos_site_id
_symmetry_equiv_pos_as_xyz
1 x,y,z
_cell_length_a                   11.5706(3)
_cell_length_b                   19.5715(5)
_cell_length_c                   17.4707(5)
_cell_angle_alpha                90
_cell_angle_beta                 126.737(2)
_cell_angle_gamma                90
_cell_volume                     3170.55
loop_
_atom_site_label
_atom_site_type_symbol
_atom_site_fract_x
_atom_site_fract_y
_atom_site_fract_z
Cd10 Cd 0.000000 0.000000 0.000000
N2 N 0.5335(4) 0.00152(17) 0.6882(2)
C15 C 0.4633(7) 0.0031(2) 0.5948(3)
H10 H 0.465474 0.043382 0.567412
Cd7 Cd 0.71564(2) 0.09015(2) 0.78631(2)
Cd10_2 Cd 0.000000 0.000000 1.000000
O15 O 0.0878(3) 0.83705(16) 0.16351(18)
O16 O 0.0491(2) 0.88437(11) 0.03630(19)
C56 C 0.0119(3) 0.84546(16) 0.0753(2)
Cd5 Cd 0.28436(2) 0.90985(2) 0.21369(2)
Cd10_3 Cd 0.000000 1.000000 0.000000
Cd2 Cd 0.000000 0.500000 0.500000
N1 N 0.1913(4) 0.71340(16) 0.3949(2)
C3 C 0.0226(8) 0.5443(3) 0.2121(5)
C4 C 0.1143(12) 0.5884(4) 0.2113(7)
H2 H 0.138322 0.580664 0.169852
C5 C 0.1708(9) 0.6442(4) 0.2718(5)
H3 H 0.232443 0.674312 0.271276
C6 C 0.1345(5) 0.6544(2) 0.3327(3)
C7 C 0.0440(4) 0.61016(17) 0.3351(2)
H4 H 0.022205 0.617495 0.377729
C8 C 0.1826(5) 0.7748(2) 0.3568(3)
H5 H 0.138451 0.778487 0.291690
C9 C 0.2378(5) 0.8311(2) 0.4128(3)
H6 H 0.229421 0.873319 0.385398
C10 C 0.3063(4) 0.82706(19) 0.5099(2)
C11 C 0.3103(5) 0.7636(2) 0.5468(3)
H7 H 0.352107 0.759192 0.611504
C12 C 0.2526(5) 0.7072(2) 0.4882(3)
H8 H 0.256319 0.664723 0.513516
C13 C 0.3786(4) 0.8886(2) 0.5718(2)
C14 C 0.3868(7) 0.9487(3) 0.5354(3)
H9 H 0.340339 0.952806 0.470003
C16 C 0.5189(7) 0.9451(3) 0.7217(3)
H11 H 0.563526 0.942683 0.786980
C17 C 0.4419(7) 0.8890(3) 0.6668(3)
H12 H 0.433216 0.851105 0.695157
Cd10_4 Cd 0.000000 1.000000 1.000000
O17 O 0.1330(2) 0.48736(12) 0.66243(15)
O21 O 0.0491(2) 0.61563(11) 0.53630(19)
O23 O 0.1959(3) 0.48463(14) 0.5094(2)
Cd10_5 Cd 1.000000 0.000000 0.000000
Cd10_6 Cd 1.000000 0.000000 1.000000
H33 H 0.652443 0.706802 0.015305
C54 C 0.8169(5) 0.7692(3) 0.0490(3)
H34 H 0.864795 0.768076 0.114713
C55 C 0.8723(3) 0.80690(17) 0.0123(2)
Cd10_7 Cd 1.000000 1.000000 0.000000
Cd1 Cd 0.71564(2) 0.40985(2) 0.28631(2)
Cd2_2 Cd 1.000000 0.500000 0.500000
O1 O 0.8170(3) 0.46409(14) 0.20728(19)
O2 O 0.8670(2) 0.51264(12) 0.33757(15)
O3 O 0.5574(3) 0.34883(15) 0.1395(2)
O4 O 0.5723(4) 0.3106(2) 0.2584(2)
O7 O 0.6562(3) 0.43526(14) 0.38603(18)
O8 O 0.8041(3) 0.51537(14) 0.4906(2)
C1 C 0.8837(4) 0.50677(16) 0.2724(2)
C2 C 0.9860(5) 0.55496(19) 0.2739(3)
H1 H 0.984743 0.507017 0.171031
C18 C 0.5156(4) 0.3105(2) 0.1724(3)
C19 C 0.3836(4) 0.26720(19) 0.1074(2)
C20 C 0.3114(5) 0.2678(3) 0.0111(3)
C24 C 0.2034(5) 0.1902(3) 0.0843(3)
H15 H 0.171269 0.162344 0.111136
C25 C 0.3276(5) 0.2283(4) 0.1427(3)
H16 H 0.374571 0.227301 0.208364
C26 C 0.6933(3) 0.47907(17) 0.4486(2)
C27 C 0.5938(3) 0.49007(18) 0.4762(3)
C28 C 0.4824(5) 0.4457(3) 0.4456(4)
H17 H 0.469403 0.408284 0.408278
C29 C 0.6114(5) 0.5444(3) 0.5306(4)
H18 H 0.686493 0.574998 0.551947
O9 O 0.3438(3) 0.56474(14) 0.61397(18)
C30 C 0.3067(3) 0.52093(17) 0.5514(2)
C31 C 0.4062(3) 0.50993(18) 0.5238(3)
C32 C 0.5176(5) 0.5543(3) 0.5544(4)
H19 H 0.530597 0.591716 0.591722
C33 C 0.3886(5) 0.4556(3) 0.4694(4)
H20 H 0.313507 0.425002 0.448053
Cd3 Cd 0.28436(2) 0.59015(2) 0.71369(2)
O11 O 0.1830(3) 0.53591(14) 0.79272(19)
O13 O 0.4426(3) 0.65117(15) 0.8605(2)
O14 O 0.4277(4) 0.6894(2) 0.7416(2)
C34 C 0.1163(4) 0.49323(16) 0.7276(2)
C35 C 0.0140(5) 0.44504(19) 0.7261(3)
H21 H 0.015257 0.492983 0.828969
C51 C 0.4844(4) 0.6895(2) 0.8276(3)
C52 C 0.6164(4) 0.73280(19) 0.8926(2)
C53 C 0.6886(5) 0.7322(3) 0.9889(3)
C57 C 0.7966(5) 0.8098(3) 0.9157(3)
H35 H 0.828731 0.837656 0.888864
C58 C 0.6724(5) 0.7717(4) 0.8573(3)
H36 H 0.625429 0.772699 0.791636
Cd10_8 Cd 1.000000 1.000000 1.000000
O18 O 0.0878(3) 0.66295(16) 0.66351(18)
O19 O 0.9122(3) 0.33705(16) 0.33649(18)
O22 O 0.9509(2) 0.38437(11) 0.46370(19)
N5 N 0.4665(4) 0.50152(17) 0.8118(2)
N6 N 0.5335(4) 0.49848(17) 0.1882(2)
H13 H 0.347557 0.293198 0.984695
C21 C 0.1831(5) 0.2308(3) 0.9510(3)
H14 H 0.135205 0.231924 0.885287
C22 C 0.1277(3) 0.19310(17) 0.9877(2)
N3 N 0.8087(4) 0.28660(16) 0.6051(2)
C36 C 0.9774(8) 0.4557(3) 0.7879(5)
C37 C 0.8857(12) 0.4116(4) 0.7887(7)
H22 H 0.861678 0.419336 0.830148
C38 C 0.8292(9) 0.3558(4) 0.7282(5)
H23 H 0.767557 0.325688 0.728724
C39 C 0.8655(5) 0.3456(2) 0.6673(3)
C40 C 0.9560(4) 0.38984(17) 0.6649(2)
H24 H 0.977795 0.382505 0.622271
C41 C 0.8174(5) 0.2252(2) 0.6432(3)
H25 H 0.861549 0.221513 0.708310
C42 C 0.7622(5) 0.1689(2) 0.5872(3)
H26 H 0.770579 0.126681 0.614602
C43 C 0.6937(4) 0.17294(19) 0.4901(2)
C44 C 0.6897(5) 0.2364(2) 0.4532(3)
H27 H 0.647893 0.240808 0.388496
C45 C 0.7474(5) 0.2928(2) 0.5118(3)
H28 H 0.743681 0.335277 0.486484
C46 C 0.6214(4) 0.1114(2) 0.4282(2)
C47 C 0.6132(7) 0.0513(3) 0.4646(3)
H29 H 0.659661 0.047194 0.529997
C49 C 0.4811(7) 0.0549(3) 0.2783(3)
H31 H 0.436474 0.057317 0.213020
C50 C 0.5581(7) 0.1110(3) 0.3332(3)
H32 H 0.566784 0.148895 0.304843
O5 O 0.9122(3) 0.16295(16) 0.83649(18)
O6 O 0.9509(2) 0.11563(11) 0.96370(19)
C23 C 0.9881(3) 0.15454(16) 0.9247(2)
N4 N 0.4665(4) 0.99848(17) 0.3118(2)
C48 C 0.5367(7) 0.9969(2) 0.4052(3)
H30 H 0.534526 0.956618 0.432588
C23_2 C 0.0119(3) 0.65454(16) 0.5753(2)
C43_2 C 0.3063(4) 0.67294(19) 0.0099(2)
C44_2 C 0.3103(5) 0.7364(2) 0.0468(3)
H27_2 H 0.352107 0.740808 0.111504
H28_2 H 0.256319 0.835277 0.013516
C46_2 C 0.3786(4) 0.6114(2) 0.0718(2)
C47_2 C 0.3868(7) 0.5513(3) 0.0354(3)
C48_2 C 0.4633(7) 0.4969(2) 0.0948(3)
H30_2 H 0.465474 0.456618 0.067412
C49_2 C 0.5189(7) 0.5549(3) 0.2217(3)
H31_2 H 0.563526 0.557317 0.286980
C50_2 C 0.4419(7) 0.6110(3) 0.1668(3)
H32_2 H 0.433216 0.648895 0.195157
N3_2 N 0.1913(4) 0.78660(16) 0.8949(2)
C36_2 C 0.0226(8) 0.9557(3) 0.7121(5)
C37_2 C 0.1143(12) 0.9116(4) 0.7113(7)
H22_2 H 0.138322 0.919336 0.669852
C38_2 C 0.1708(9) 0.8558(4) 0.7718(5)
H23_2 H 0.232443 0.825688 0.771276
C39_2 C 0.1345(5) 0.8456(2) 0.8327(3)
C40_2 C 0.0440(4) 0.88984(17) 0.8351(2)
H24_2 H 0.022205 0.882505 0.877729
C41_2 C 0.1826(5) 0.7252(2) 0.8568(3)
H25_2 H 0.138451 0.721513 0.791690
C42_2 C 0.2378(5) 0.6689(2) 0.9128(3)
H26_2 H 0.229421 0.626681 0.885398
C45_2 C 0.2526(5) 0.7928(2) 0.9882(3)
H29_2 H 0.340339 0.547194 0.970003
O2_2 O 0.1330(2) 0.01264(12) 0.16243(15)
O8_2 O 0.1959(3) 0.01537(14) 0.0094(2)
C1_2 C 0.1163(4) 0.00677(16) 0.2276(2)
C2_2 C 0.0140(5) 0.05496(19) 0.2261(3)
H1_2 H 0.015257 0.007017 0.328969
C29_2 C 0.3886(5) 0.0444(3) 0.9694(4)
H18_2 H 0.313507 0.074998 0.948053
O9_2 O 0.6562(3) 0.06474(14) 0.88603(18)
C30_2 C 0.6933(3) 0.02093(17) 0.9486(2)
C31_2 C 0.5938(3) 0.00993(18) 0.9762(3)
C32_2 C 0.4824(5) 0.0543(3) 0.9456(4)
H19_2 H 0.469403 0.091716 0.908278
O11_2 O 0.8170(3) 0.03591(14) 0.70728(19)
O13_2 O 0.5574(3) 0.15117(15) 0.6395(2)
O14_2 O 0.5723(4) 0.1894(2) 0.7584(2)
C51_2 C 0.5156(4) 0.1895(2) 0.6724(3)
C52_2 C 0.3836(4) 0.23280(19) 0.6074(2)
C53_2 C 0.3114(5) 0.2322(3) 0.5111(3)
H33_2 H 0.347557 0.206802 0.484695
C54_2 C 0.1831(5) 0.2692(3) 0.4510(3)
H34_2 H 0.135205 0.268076 0.385287
C55_2 C 0.1277(3) 0.30690(17) 0.4877(2)
C57_2 C 0.2034(5) 0.3098(3) 0.5843(3)
H35_2 H 0.171269 0.337656 0.611136
C58_2 C 0.3276(5) 0.2717(4) 0.6427(3)
H36_2 H 0.374571 0.272699 0.708364
O1_2 O 0.1830(3) 0.96409(14) 0.29272(19)
O3_2 O 0.4426(3) 0.84883(15) 0.3605(2)
O4_2 O 0.4277(4) 0.8106(2) 0.2416(2)
O7_2 O 0.3438(3) 0.93526(14) 0.11397(18)
C18_2 C 0.4844(4) 0.8105(2) 0.3276(3)
C19_2 C 0.6164(4) 0.76720(19) 0.3926(2)
C20_2 C 0.6886(5) 0.7678(3) 0.4889(3)
H13_2 H 0.652443 0.793198 0.515305
C21_2 C 0.8169(5) 0.7308(3) 0.5490(3)
H14_2 H 0.864795 0.731924 0.614713
C22_2 C 0.8723(3) 0.69310(17) 0.5123(2)
C24_2 C 0.7966(5) 0.6902(3) 0.4157(3)
H15_2 H 0.828731 0.662344 0.388864
C25_2 C 0.6724(5) 0.7283(4) 0.3573(3)
H16_2 H 0.625429 0.727301 0.291636
C26_2 C 0.3067(3) 0.97907(17) 0.0514(2)
C27_2 C 0.4062(3) 0.99007(18) 0.0238(3)
C28_2 C 0.5176(5) 0.9457(3) 0.0544(4)
H17_2 H 0.530597 0.908284 0.091722
C33_2 C 0.6114(5) 0.9556(3) 0.0306(4)
H20_2 H 0.686493 0.925002 0.051947
O10 O 0.8041(3) 0.98463(14) 0.9906(2)
O12 O 0.8670(2) 0.98736(12) 0.83757(15)
C34_2 C 0.8837(4) 0.99323(16) 0.7724(2)
C35_2 C 0.9860(5) 0.94504(19) 0.7739(3)
H21_2 H 0.984743 0.992983 0.671031
N1_2 N 0.8087(4) 0.21340(16) 0.1051(2)
C3_2 C 0.9774(8) 0.0443(3) 0.2879(5)
C4_2 C 0.8857(12) 0.0884(4) 0.2887(7)
H2_2 H 0.861678 0.080664 0.330148
C5_2 C 0.8292(9) 0.1442(4) 0.2282(5)
H3_2 H 0.767557 0.174312 0.228724
C6_2 C 0.8655(5) 0.1544(2) 0.1673(3)
C7_2 C 0.9560(4) 0.11016(17) 0.1649(2)
H4_2 H 0.977795 0.117495 0.122271
C8_2 C 0.8174(5) 0.2748(2) 0.1432(3)
H5_2 H 0.861549 0.278487 0.208310
C9_2 C 0.7622(5) 0.3311(2) 0.0872(3)
H6_2 H 0.770579 0.373319 0.114602
C12_2 C 0.7474(5) 0.2072(2) 0.0118(3)
H9_2 H 0.659661 0.452806 0.029997
C10_2 C 0.6937(4) 0.32706(19) 0.9901(2)
C11_2 C 0.6897(5) 0.2636(2) 0.9532(3)
H7_2 H 0.647893 0.259192 0.888496
H8_2 H 0.743681 0.164723 0.986484
C13_2 C 0.6214(4) 0.3886(2) 0.9282(2)
C14_2 C 0.6132(7) 0.4487(3) 0.9646(3)
C15_2 C 0.5367(7) 0.5031(2) 0.9052(3)
H10_2 H 0.534526 0.543382 0.932588
C16_2 C 0.4811(7) 0.4451(3) 0.7783(3)
H11_2 H 0.436474 0.442683 0.713020
C17_2 C 0.5581(7) 0.3890(3) 0.8332(3)
H12_2 H 0.566784 0.351105 0.804843
C56_2 C 0.9881(3) 0.34546(16) 0.4247(2)
loop_
_geom_bond_atom_site_label_1
_geom_bond_atom_site_label_2
_geom_bond_site_symmetry_1
_geom_bond_site_symmetry_2
N2 C15 1_555 1_555
H10 C15 1_555 1_555
Cd7 N2 1_555 1_555
O15 C56 1_555 1_555
O16 C56 1_555 1_555
Cd5 O15 1_555 1_555
Cd10_3 O16 1_555 1_555
O16 Cd5 1_555 1_555
N1 C6 1_555 1_555
C4 C3 1_555 1_555
H2 C4 1_555 1_555
C5 C4 1_555 1_555
H3 C5 1_555 1_555
C6 C5 1_555 1_555
H4 C7 1_555 1_555
C8 N1 1_555 1_555
H5 C8 1_555 1_555
C9 C8 1_555 1_555
H6 C9 1_555 1_555
C10 C9 1_555 1_555
C11 C10 1_555 1_555
H7 C11 1_555 1_555
C12 N1 1_555 1_555
H8 C12 1_555 1_555
C13 C10 1_555 1_555
C14 C13 1_555 1_555
H9 C14 1_555 1_555
H11 C16 1_555 1_555
C17 C13 1_555 1_555
H12 C17 1_555 1_555
O17 Cd2 1_555 1_555
O21 Cd2 1_555 1_555
O23 Cd2 1_555 1_555
C6 C7 1_555 1_555
C11 C12 1_555 1_555
C16 C17 1_555 1_555
H34 C54 1_555 1_555
C55 C54 1_555 1_555
Cd1 O1 1_555 1_555
Cd2_2 O2 1_555 1_555
O1 C1 1_555 1_555
O2 Cd1 1_555 1_555
O3 Cd1 1_555 1_555
O4 Cd1 1_555 1_555
O7 Cd1 1_555 1_555
O8 Cd2_2 1_555 1_555
C1 O2 1_555 1_555
C2 C1 1_555 1_555
C18 O3 1_555 1_555
C19 C18 1_555 1_555
C20 C19 1_555 1_555
H15 C24 1_555 1_555
C25 C19 1_555 1_555
H16 C25 1_555 1_555
C26 O7 1_555 1_555
C27 C26 1_555 1_555
C28 C27 1_555 1_555
H17 C28 1_555 1_555
C29 C27 1_555 1_555
H18 C29 1_555 1_555
O9 C30 1_555 1_555
O23 C30 1_555 1_555
C30 C31 1_555 1_555
C31 C32 1_555 1_555
C32 C29 1_555 1_555
H19 C32 1_555 1_555
C33 C28 1_555 1_555
H20 C33 1_555 1_555
Cd3 O9 1_555 1_555
O11 Cd3 1_555 1_555
O17 Cd3 1_555 1_555
O13 Cd3 1_555 1_555
O14 Cd3 1_555 1_555
C34 O11 1_555 1_555
C35 C34 1_555 1_555
C51 O13 1_555 1_555
C52 C51 1_555 1_555
C53 C52 1_555 1_555
H35 C57 1_555 1_555
C58 C52 1_555 1_555
H36 C58 1_555 1_555
O18 Cd3 1_555 1_555
O19 Cd1 1_555 1_555
O21 Cd3 1_555 1_555
O22 Cd1 1_555 1_555
N5 Cd3 1_555 1_555
N6 Cd1 1_555 1_555
Cd2_2 O22 1_555 1_555
O4 C18 1_555 1_555
O8 C26 1_555 1_555
C24 C25 1_555 1_555
C31 C33 1_555 1_555
O17 C34 1_555 1_555
O14 C51 1_555 1_555
C57 C58 1_555 1_555
H14 C21 1_555 1_555
C22 C21 1_555 1_555
N3 C39 1_555 1_555
C37 C36 1_555 1_555
H22 C37 1_555 1_555
C38 C37 1_555 1_555
H23 C38 1_555 1_555
C39 C38 1_555 1_555
H24 C40 1_555 1_555
C41 N3 1_555 1_555
H25 C41 1_555 1_555
C42 C41 1_555 1_555
H26 C42 1_555 1_555
C43 C42 1_555 1_555
C44 C43 1_555 1_555
H27 C44 1_555 1_555
C45 N3 1_555 1_555
H28 C45 1_555 1_555
C46 C43 1_555 1_555
C47 C46 1_555 1_555
H29 C47 1_555 1_555
H31 C49 1_555 1_555
C50 C46 1_555 1_555
H32 C50 1_555 1_555
C39 C40 1_555 1_555
C44 C45 1_555 1_555
C49 C50 1_555 1_555
O5 C23 1_555 1_555
O6 C23 1_555 1_555
Cd7 O5 1_555 1_555
Cd10_6 O6 1_555 1_555
O6 Cd7 1_555 1_555
N4 C48 1_555 1_555
H30 C48 1_555 1_555
Cd5 N4 1_555 1_555
O18 C23_2 1_555 1_555
O21 C23_2 1_555 1_555
N6 C48_2 1_555 1_555
C44_2 C43_2 1_555 1_555
H27_2 C44_2 1_555 1_555
C46_2 C43_2 1_555 1_555
C47_2 C46_2 1_555 1_555
C48_2 C47_2 1_555 1_555
H30_2 C48_2 1_555 1_555
C49_2 N6 1_555 1_555
H31_2 C49_2 1_555 1_555
C50_2 C46_2 1_555 1_555
H32_2 C50_2 1_555 1_555
C49_2 C50_2 1_555 1_555
N3_2 C39_2 1_555 1_555
C37_2 C36_2 1_555 1_555
H22_2 C37_2 1_555 1_555
C38_2 C37_2 1_555 1_555
H23_2 C38_2 1_555 1_555
C39_2 C38_2 1_555 1_555
H24_2 C40_2 1_555 1_555
C41_2 N3_2 1_555 1_555
H25_2 C41_2 1_555 1_555
C42_2 C41_2 1_555 1_555
H26_2 C42_2 1_555 1_555
C45_2 N3_2 1_555 1_555
C39_2 C40_2 1_555 1_555
Cd10 O2_2 1_555 1_555
O8_2 Cd10 1_555 1_555
C1_2 O2_2 1_555 1_555
C2_2 C1_2 1_555 1_555
H18_2 C29_2 1_555 1_555
O9_2 C30_2 1_555 1_555
C30_2 C31_2 1_555 1_555
C31_2 C32_2 1_555 1_555
C32_2 C29_2 1_555 1_555
H19_2 C32_2 1_555 1_555
Cd7 O9_2 1_555 1_555
O11_2 Cd7 1_555 1_555
O13_2 Cd7 1_555 1_555
O14_2 Cd7 1_555 1_555
C51_2 O13_2 1_555 1_555
C52_2 C51_2 1_555 1_555
C53_2 C52_2 1_555 1_555
H33_2 C53_2 1_555 1_555
C54_2 C53_2 1_555 1_555
H34_2 C54_2 1_555 1_555
C55_2 C54_2 1_555 1_555
C57_2 C55_2 1_555 1_555
H35_2 C57_2 1_555 1_555
C58_2 C52_2 1_555 1_555
H36_2 C58_2 1_555 1_555
O14_2 C51_2 1_555 1_555
C57_2 C58_2 1_555 1_555
Cd5 O1_2 1_555 1_555
O3_2 Cd5 1_555 1_555
O4_2 Cd5 1_555 1_555
O7_2 Cd5 1_555 1_555
C18_2 O3_2 1_555 1_555
C19_2 C18_2 1_555 1_555
C20_2 C19_2 1_555 1_555
H13_2 C20_2 1_555 1_555
C21_2 C20_2 1_555 1_555
H14_2 C21_2 1_555 1_555
C22_2 C21_2 1_555 1_555
C24_2 C22_2 1_555 1_555
H15_2 C24_2 1_555 1_555
C25_2 C19_2 1_555 1_555
H16_2 C25_2 1_555 1_555
C26_2 O7_2 1_555 1_555
C27_2 C26_2 1_555 1_555
C28_2 C27_2 1_555 1_555
H17_2 C28_2 1_555 1_555
C33_2 C28_2 1_555 1_555
H20_2 C33_2 1_555 1_555
O4_2 C18_2 1_555 1_555
C24_2 C25_2 1_555 1_555
C35_2 C34_2 1_555 1_555
Cd10_8 O10 1_555 1_555
O12 C34_2 1_555 1_555
O12 Cd10_8 1_555 1_555
N1_2 C6_2 1_555 1_555
C4_2 C3_2 1_555 1_555
H2_2 C4_2 1_555 1_555
C5_2 C4_2 1_555 1_555
H3_2 C5_2 1_555 1_555
C6_2 C5_2 1_555 1_555
H4_2 C7_2 1_555 1_555
C8_2 N1_2 1_555 1_555
H5_2 C8_2 1_555 1_555
C9_2 C8_2 1_555 1_555
H6_2 C9_2 1_555 1_555
C12_2 N1_2 1_555 1_555
C6_2 C7_2 1_555 1_555
N5 C15_2 1_555 1_555
C11_2 C10_2 1_555 1_555
H7_2 C11_2 1_555 1_555
C13_2 C10_2 1_555 1_555
C14_2 C13_2 1_555 1_555
C15_2 C14_2 1_555 1_555
H10_2 C15_2 1_555 1_555
C16_2 N5 1_555 1_555
H11_2 C16_2 1_555 1_555
C17_2 C13_2 1_555 1_555
H12_2 C17_2 1_555 1_555
O19 C56_2 1_555 1_555
O22 C56_2 1_555 1_555
C16_2 C17_2 1_555 1_555

#END
