
###############################################################################
#
# This file contains modified crystal structure data generated from the
# MOF subset of the Cambridge Structural Database (CSD) v543 
# hosted by the Cambridge Crystallographic Data Centre (CCDC).
#
# This work is licensed under the Creative Commons
# Attribution-NonCommercial-ShareAlike 4.0 International License.
# To view a copy of this license, visit
# http://creativecommons.org/licenses/by-nc-sa/4.0/
# or send a letter to
# Creative Commons, PO Box 1866, Mountain View, CA 94042, USA.
#
# CIF created using the CSD Python API on 29 September 2022
# The structure has been converted into the P1 space group
# The structure has a 3D framework
# The original CSD entry HEQTAB is in the triclinic crystal system
# The framework has been calculated to contain at least 10.0% void space
# The void calculation uses a probe of radius 1.32A, grid spacing 0.4
#
###############################################################################

data_HEQTAB
_chemical_formula_moiety         '(C40 H30 N2 O17 Pb3)n'
_symmetry_cell_setting           triclinic
_symmetry_space_group_name_H-M   'P 1'
_symmetry_Int_Tables_number      1
_space_group_name_Hall           'P 1'
loop_
_symmetry_equiv_pos_site_id
_symmetry_equiv_pos_as_xyz
1 x,y,z
_cell_length_a                   10.5062(8)
_cell_length_b                   11.1251(8)
_cell_length_c                   12.4751(8)
_cell_angle_alpha                111.725(6)
_cell_angle_beta                 101.833(6)
_cell_angle_gamma                103.622(5)
_cell_volume                     1245.58
loop_
_atom_site_label
_atom_site_type_symbol
_atom_site_fract_x
_atom_site_fract_y
_atom_site_fract_z
Pb9 Pb 0.05604(12) 0.12377(11) 0.40759(8)
Pb12 Pb 0.13915(11) 0.09268(11) 0.94621(8)
O28 O 0.265(2) 0.080(2) 0.1150(17)
O1 O 0.176(2) 0.0134(17) 0.7077(16)
H4 H 0.7024 0.0069 0.6089
O8 O 0.866(2) 0.010(2) 0.7951(17)
O11 O 0.710(2) 0.016(3) 0.1393(18)
C21 C 0.500(3) 0.006(3) 0.442(2)
C22 C 0.718(3) 0.006(4) 0.236(3)
C23 C 0.484(4) 0.031(3) 0.223(3)
H16 H 0.4822 0.0452 0.1542
C24 C 0.605(3) 0.014(3) 0.289(2)
C25 C 0.377(3) 0.006(3) 0.369(2)
C26 C 0.374(3) 0.024(3) 0.264(2)
C27 C 0.609(4) 0.007(4) 0.395(3)
H18 H 0.6891 0.0020 0.4389
C28 C 0.244(3) 0.029(3) 0.190(2)
Pb15 Pb 0.86085(11) 0.90732(11) 0.05379(8)
O3 O 0.000(2) 0.2434(18) 0.2912(16)
O4 O 0.033(3) 0.720(2) 0.4782(17)
O5 O 0.019(3) 0.841(2) 0.3732(19)
O6 O 0.290(2) 0.984(3) 0.8607(18)
C1 C 0.500(3) 0.994(3) 0.558(2)
C2 C 0.282(3) 0.994(4) 0.764(3)
C3 C 0.516(4) 0.969(3) 0.777(3)
H1 H 0.5178 0.9548 0.8458
C4 C 0.013(3) 0.615(3) 0.162(2)
H2 H 0.0176 0.6962 0.1555
C5 C 0.002(3) 0.497(3) 0.060(2)
C7 C 0.395(3) 0.986(3) 0.711(2)
C8 C 0.623(3) 0.994(3) 0.631(2)
C10 C 0.017(3) 0.492(3) 0.283(2)
H5 H 0.0281 0.4915 0.3591
C12 C 0.030(3) 0.732(3) 0.383(2)
C13 C 0.626(3) 0.976(3) 0.736(2)
C14 C 0.391(4) 0.993(4) 0.605(3)
H6 H 0.3109 0.9980 0.5611
C15 C 0.018(3) 0.609(3) 0.273(2)
O7 O 0.735(2) 0.920(2) 0.8850(17)
C16 C 0.756(3) 0.971(3) 0.810(2)
O10 O 0.824(2) 0.9866(17) 0.2923(16)
H17 H 0.2976 0.9931 0.3911
O13 O 0.134(2) 0.990(2) 0.2049(17)
Pb6 Pb 0.94396(12) 0.87623(11) 0.59241(8)
O23 O 0.026(2) 0.8621(18) 0.9047(16)
O25 O 0.000(2) 0.7566(18) 0.7088(16)
C31 C 0.007(3) 0.623(2) 0.927(2)
H20 H 0.0167 0.7017 0.9948
C32 C 0.007(3) 0.755(3) 0.808(2)
C34 C 0.001(3) 0.630(3) 0.818(2)
O18 O 0.276(3) 0.337(3) 0.486(3)
C37 C 0.366(5) 0.399(4) 0.316(4)
H22 H 0.3464 0.3099 0.3148
H23 H 0.3106 0.3916 0.2408
H24 H 0.4624 0.4359 0.3256
N2 N 0.332(4) 0.499(4) 0.426(4)
C38 C 0.286(4) 0.459(4) 0.499(4)
C39 C 0.266(5) 0.563(4) 0.606(4)
H25 H 0.2341 0.5200 0.6539
H26 H 0.3524 0.6370 0.6549
H27 H 0.1987 0.5992 0.5774
C40 C 0.362(4) 0.643(4) 0.438(5)
H28 H 0.3403 0.6980 0.5067
H29 H 0.4579 0.6826 0.4485
H30 H 0.3060 0.6406 0.3650
O21 O 0.974(2) 0.1379(18) 0.0953(16)
O3_2 O 1.000(2) 0.2434(18) 0.2912(16)
C6 C 0.993(3) 0.377(2) 0.073(2)
H3 H 0.9833 0.2983 0.0052
C9 C 0.993(3) 0.245(3) 0.192(2)
C11 C 0.999(3) 0.370(3) 0.182(2)
O9 O 0.724(3) 0.663(3) 0.514(3)
C17 C 0.634(5) 0.601(4) 0.684(4)
H7 H 0.6536 0.6901 0.6852
H8 H 0.6894 0.6084 0.7592
H9 H 0.5376 0.5641 0.6744
N1 N 0.668(4) 0.501(4) 0.574(4)
C18 C 0.714(4) 0.541(4) 0.501(4)
C19 C 0.734(5) 0.437(4) 0.394(4)
H10 H 0.7659 0.4800 0.3461
H11 H 0.6476 0.3630 0.3451
H12 H 0.8013 0.4008 0.4226
C20 C 0.638(4) 0.357(4) 0.562(5)
H13 H 0.6597 0.3020 0.4933
H14 H 0.5421 0.3174 0.5515
H15 H 0.6940 0.3594 0.6350
O25_2 O 1.000(2) 0.7566(18) 0.7088(16)
O16 O 0.967(3) 0.280(2) 0.5218(17)
O17 O 0.981(3) 0.159(2) 0.6268(19)
C29 C 0.987(3) 0.385(3) 0.838(2)
H19 H 0.9824 0.3038 0.8445
C30 C 0.998(3) 0.503(3) 0.940(2)
C33 C 0.983(3) 0.508(3) 0.717(2)
H21 H 0.9719 0.5085 0.6409
C35 C 0.970(3) 0.268(3) 0.617(2)
C36 C 0.982(3) 0.391(3) 0.727(2)
loop_
_geom_bond_atom_site_label_1
_geom_bond_atom_site_label_2
_geom_bond_site_symmetry_1
_geom_bond_site_symmetry_2
Pb12 O1 1_555 1_555
O11 C22 1_555 1_555
C22 C24 1_555 1_555
C23 H16 1_555 1_555
C24 C23 1_555 1_555
C25 C21 1_555 1_555
C26 C23 1_555 1_555
C27 C21 1_555 1_555
H18 C27 1_555 1_555
O28 C28 1_555 1_555
C28 C26 1_555 1_555
C24 C27 1_555 1_555
C25 C26 1_555 1_555
C1 C8 1_555 1_555
C2 O6 1_555 1_555
C3 H1 1_555 1_555
C4 H2 1_555 1_555
C5 C4 1_555 1_555
C7 C2 1_555 1_555
C10 H5 1_555 1_555
C12 O4 1_555 1_555
C13 C3 1_555 1_555
C14 C1 1_555 1_555
H6 C14 1_555 1_555
C15 C4 1_555 1_555
O7 C16 1_555 1_555
C16 C13 1_555 1_555
Pb9 O3 1_555 1_555
Pb15 O10 1_555 1_555
O5 C12 1_555 1_555
C3 C7 1_555 1_555
C7 C14 1_555 1_555
C8 C13 1_555 1_555
C10 C15 1_555 1_555
C12 C15 1_555 1_555
O23 C32 1_555 1_555
O25 C32 1_555 1_555
H20 C31 1_555 1_555
C32 C34 1_555 1_555
C34 C31 1_555 1_555
O18 Pb9 1_555 1_555
C37 H22 1_555 1_555
H23 C37 1_555 1_555
H24 C37 1_555 1_555
N2 C37 1_555 1_555
C38 O18 1_555 1_555
C39 C38 1_555 1_555
H25 C39 1_555 1_555
H26 C39 1_555 1_555
H27 C39 1_555 1_555
C40 N2 1_555 1_555
H28 C40 1_555 1_555
H29 C40 1_555 1_555
H30 C40 1_555 1_555
N2 C38 1_555 1_555
O21 C9 1_555 1_555
O3_2 C9 1_555 1_555
H3 C6 1_555 1_555
C9 C11 1_555 1_555
C11 C6 1_555 1_555
O9 Pb6 1_555 1_555
C17 H7 1_555 1_555
H8 C17 1_555 1_555
H9 C17 1_555 1_555
N1 C17 1_555 1_555
C18 O9 1_555 1_555
C19 C18 1_555 1_555
H10 C19 1_555 1_555
H11 C19 1_555 1_555
H12 C19 1_555 1_555
C20 N1 1_555 1_555
H13 C20 1_555 1_555
H14 C20 1_555 1_555
H15 C20 1_555 1_555
O25_2 Pb6 1_555 1_555
N1 C18 1_555 1_555
O16 C35 1_555 1_555
O17 C35 1_555 1_555
C29 H19 1_555 1_555
C33 H21 1_555 1_555
C35 C36 1_555 1_555
C36 C29 1_555 1_555
C29 C30 1_555 1_555
C33 C36 1_555 1_555

#END
