
###############################################################################
#
# This file contains modified crystal structure data generated from the
# MOF subset of the Cambridge Structural Database (CSD) v543 
# hosted by the Cambridge Crystallographic Data Centre (CCDC).
#
# This work is licensed under the Creative Commons
# Attribution-NonCommercial-ShareAlike 4.0 International License.
# To view a copy of this license, visit
# http://creativecommons.org/licenses/by-nc-sa/4.0/
# or send a letter to
# Creative Commons, PO Box 1866, Mountain View, CA 94042, USA.
#
# CIF created using the CSD Python API on 29 September 2022
# The structure has been converted into the P1 space group
# The structure has a 3D framework
# The original CSD entry HERMEZ03 is in the triclinic crystal system
# The framework has been calculated to contain at least 10.0% void space
# The void calculation uses a probe of radius 1.32A, grid spacing 0.4
#
###############################################################################

data_HERMEZ03
_chemical_formula_moiety         '(C128 H80 Ag16 Fe8 N80)n'
_symmetry_cell_setting           triclinic
_symmetry_space_group_name_H-M   'P 1'
_symmetry_Int_Tables_number      1
_space_group_name_Hall           'P 1'
loop_
_symmetry_equiv_pos_site_id
_symmetry_equiv_pos_as_xyz
1 x,y,z
_cell_length_a                   31.302(2)
_cell_length_b                   12.8970(7)
_cell_length_c                   17.1888(11)
_cell_angle_alpha                67.961(2)
_cell_angle_beta                 80.260(2)
_cell_angle_gamma                78.082(2)
_cell_volume                     6261.21
loop_
_atom_site_label
_atom_site_type_symbol
_atom_site_fract_x
_atom_site_fract_y
_atom_site_fract_z
Fe10 Fe 0.01554(2) 0.69628(8) 0.59150(6)
Ag4 Ag 0.13137(2) 0.42534(5) 0.46852(4)
N33 N 0.05218(16) 0.5810(5) 0.5356(4)
C51 C 0.0793(2) 0.5207(6) 0.5123(5)
N44 N 0.06477(16) 0.7995(5) 0.5408(4)
N46 N 0.05054(15) 0.6038(4) 0.7023(3)
C65 C 0.1864(2) 0.3399(7) 0.4218(5)
Ag3 Ag 0.38128(2) 0.47489(5) 0.21848(4)
Fe1 Fe 0.26602(2) 0.19611(7) 0.34168(6)
N1 N 0.22849(18) 0.0645(5) 0.3982(4)
N2 N 0.3148(2) 0.0954(6) 0.2904(4)
N3 N 0.30172(19) 0.3297(5) 0.2863(4)
N4 N 0.21643(17) 0.2942(5) 0.3927(4)
N5 N 0.30038(17) 0.1437(5) 0.4513(4)
N6 N 0.3692(2) 0.1458(6) 0.6952(5)
N7 N 0.3928(3) 0.1013(6) 0.7644(5)
N37 N 0.1430(2) 0.2411(6) 0.0146(5)
N40 N 0.23117(15) 0.2484(5) 0.2308(4)
C1 C 0.1985(2) 0.0176(6) 0.4232(5)
C2 C 0.3430(3) 0.0418(7) 0.2627(5)
C3 C 0.3287(2) 0.3853(7) 0.2633(5)
C5 C 0.3026(2) 0.2204(6) 0.4862(5)
H9 H 0.2884 0.2951 0.4618
C6 C 0.3245(2) 0.1945(6) 0.5555(5)
H10 H 0.3254 0.2513 0.5768
C7 C 0.3455(2) 0.0846(6) 0.5945(5)
C8 C 0.3428(3) 0.0045(7) 0.5590(5)
C9 C 0.3201(3) 0.0371(6) 0.4895(5)
C10 C 0.3688(2) 0.0637(7) 0.6683(5)
H13 H 0.4580 0.0449 0.8530
C59 C 0.1550(2) 0.3249(6) 0.0267(5)
C60 C 0.1814(2) 0.3043(6) 0.0966(5)
C61 C 0.2070(2) 0.1981(6) 0.1274(5)
H37 H 0.2080 0.1434 0.1029
C62 C 0.2308(2) 0.1745(6) 0.1940(5)
H38 H 0.2477 0.1023 0.2146
C63 C 0.2076(2) 0.3510(6) 0.2002(5)
H39 H 0.2084 0.4047 0.2245
C64 C 0.1821(2) 0.3820(6) 0.1350(5)
H40 H 0.1654 0.4547 0.1163
C66 C 0.4363(3) 0.5524(7) 0.1717(5)
N36 N 0.1193(2) 0.2891(6) 0.9458(5)
N38 N 0.14108(16) 0.4246(5) 0.9677(4)
N39 N 0.1498(2) 0.5327(5) 0.9580(4)
H7 H 0.1241 0.5831 0.9550
H8 H 0.1672 0.5570 0.9090
C53 C 0.0527(2) 0.4905(6) 0.7366(5)
H33 H 0.0385 0.4551 0.7116
C54 C 0.0744(2) 0.4236(6) 0.8059(5)
H34 H 0.0750 0.3448 0.8275
C55 C 0.09571(19) 0.4748(6) 0.8438(5)
C56 C 0.0933(2) 0.5919(6) 0.8100(5)
H35 H 0.1069 0.6297 0.8340
C57 C 0.0704(2) 0.6513(6) 0.7402(5)
H36 H 0.0687 0.7305 0.7181
C58 C 0.1182(2) 0.3984(6) 0.9182(5)
C67 C 0.6981(3) 0.0184(7) 0.9217(6)
Fe5 Fe 0.51536(3) 0.69631(9) 0.09135(7)
Ag1 Ag 0.14423(2) 0.94031(5) 0.46487(4)
Ag2 Ag 0.39426(2) 0.95063(6) 0.21484(5)
N8 N 0.39049(18) 0.9665(5) 0.7174(4)
N9 N 0.3999(2) 0.8597(5) 0.7074(4)
H1 H 0.3742 0.8382 0.7040
H2 H 0.4175 0.8658 0.6587
N10 N 0.48161(18) 0.7898(5) 0.9813(4)
N11 N 0.4782(2) 0.8088(6) 0.1470(4)
N12 N 0.5642(2) 0.8000(5) 0.0400(4)
N13 N 0.5516(2) 0.5818(5) 0.0354(4)
N14 N 0.4665(2) 0.5965(6) 0.1424(4)
N15 N 0.54936(17) 0.6052(5) 0.2006(4)
N16 N 0.6184(2) 0.2902(6) 0.4441(5)
N17 N 0.6418(3) 0.2429(6) 0.5130(5)
N18 N 0.63982(18) 0.4257(5) 0.4669(4)
N19 N 0.6496(2) 0.5324(5) 0.4577(4)
H3 H 0.6240 0.5831 0.4549
H4 H 0.6672 0.5577 0.4092
N20 N 0.73101(17) 0.2486(5) 0.7308(4)
N26 N 0.8686(2) 0.1474(6) 0.1948(5)
N27 N 0.8923(2) 0.1018(6) 0.2637(5)
H11 H 0.3565 0.9291 0.5825
H12 H 0.3182 0.9817 0.4674
C11 C 0.4054(3) 0.9923(7) 0.7776(5)
C12 C 0.4311(2) 0.9174(7) 0.8462(5)
C13 C 0.4568(2) 0.9669(6) 0.8776(5)
C14 C 0.4798(2) 0.9016(6) 0.9437(5)
H14 H 0.4958 0.9378 0.9648
C15 C 0.4595(3) 0.7412(6) 0.9493(5)
H15 H 0.4623 0.6617 0.9712
C16 C 0.4320(2) 0.8000(7) 0.8852(5)
H16 H 0.4147 0.7620 0.8686
C17 C 0.4494(3) 0.8602(8) 0.1717(5)
C18 C 0.5919(2) 0.8533(7) 0.0126(5)
C19 C 0.5773(2) 0.5245(7) 0.0119(5)
C21 C 0.5521(2) 0.4908(6) 0.2342(5)
H17 H 0.5386 0.4543 0.2090
C22 C 0.5741(2) 0.4264(6) 0.3044(5)
H18 H 0.5750 0.3475 0.3263
C23 C 0.5951(2) 0.4764(6) 0.3433(5)
C24 C 0.5920(2) 0.5933(6) 0.3077(5)
H19 H 0.6053 0.6319 0.3314
C25 C 0.5694(2) 0.6535(6) 0.2378(5)
H20 H 0.5681 0.7325 0.2152
C26 C 0.6177(2) 0.4002(7) 0.4172(5)
C27 C 0.6545(2) 0.3245(7) 0.5277(5)
C28 C 0.6812(2) 0.3047(6) 0.5951(5)
C29 C 0.7059(2) 0.1997(6) 0.6268(5)
H21 H 0.7065 0.1447 0.6028
C30 C 0.7294(2) 0.1751(6) 0.6920(5)
H22 H 0.7457 0.1021 0.7121
C31 C 0.7073(3) 0.3518(7) 0.6992(5)
H23 H 0.7081 0.4059 0.7232
C32 C 0.6818(2) 0.3830(7) 0.6336(5)
H24 H 0.6650 0.4556 0.6149
C38 C 0.8239(2) 0.1962(6) 0.0551(5)
H26 H 0.8243 0.2523 0.0773
C39 C 0.84505(19) 0.0860(6) 0.0929(5)
C40 C 0.8426(2) 0.0066(6) 0.0588(5)
C42 C 0.8676(2) 0.0664(6) 0.1666(5)
H29 H 0.9568 0.0463 0.3525
C50 C 0.0924(2) 0.8523(6) 0.5124(5)
Fe6 Fe 0.76494(2) 0.19753(7) 0.84109(6)
Ag5 Ag 0.64350(2) 0.94044(6) 0.96464(5)
Ag6 Ag 0.63032(2) 0.42624(5) 0.96828(4)
Ag8 Ag 0.88054(2) 0.47501(5) 0.71836(4)
N21 N 0.72760(19) 0.0648(5) 0.8972(4)
N22 N 0.81412(16) 0.0960(5) 0.7905(4)
N23 N 0.80201(16) 0.3318(5) 0.7854(4)
N24 N 0.71505(19) 0.2958(5) 0.8925(4)
N25 N 0.79989(15) 0.1444(5) 0.9513(4)
N34 N 0.96532(16) 0.5965(5) 0.6427(4)
C34 C 0.8417(2) 0.0436(6) 0.7621(5)
C35 C 0.8281(2) 0.3880(5) 0.7614(5)
C36 C 0.6854(2) 0.3413(7) 0.9216(5)
C37 C 0.8022(2) 0.2225(6) 0.9849(5)
H25 H 0.7884 0.2974 0.9595
C41 C 0.8198(2) 0.0396(6) 0.9886(5)
C52 C 0.9354(2) 0.5512(6) 0.6722(5)
N28 N 0.89053(17) 0.9677(5) 0.2168(4)
N29 N 0.89961(18) 0.8601(5) 0.2079(4)
H5 H 0.8741 0.8387 0.2036
H6 H 0.9178 0.8662 0.1598
N30 N 0.98087(14) 0.7899(5) 0.4803(4)
H27 H 0.8561 0.9312 0.0826
C43 C 0.9043(2) 0.9940(6) 0.2761(5)
C44 C 0.93099(19) 0.9188(6) 0.3459(5)
C45 C 0.9562(2) 0.9680(6) 0.3768(5)
C46 C 0.9804(2) 0.9026(6) 0.4432(5)
H30 H 0.9972 0.9378 0.4634
C47 C 0.9559(2) 0.7422(6) 0.4484(5)
H31 H 0.9556 0.6637 0.4731
C48 C 0.9320(2) 0.8021(6) 0.3838(5)
H32 H 0.9158 0.7652 0.3638
Ag7 Ag 0.89360(2) 0.95127(6) 0.71477(5)
N31 N 0.97801(17) 0.8096(5) 0.6483(4)
H28 H 0.8183 0.9844 0.9662
C49 C 0.9479(2) 0.8616(6) 0.6728(5)
Ag7_2 Ag 0.10640(2) 0.04873(6) 0.28523(5)
N31_2 N 0.02199(17) 0.1904(5) 0.3517(4)
H28_2 H 0.1817 0.0156 0.0338
C49_2 C 0.0521(2) 0.1384(6) 0.3272(5)
Ag11 Ag 0.35650(2) 0.05956(6) 0.03536(5)
N43 N 0.01913(14) 0.2101(5) 0.5197(4)
N45 N 0.03468(16) 0.4035(5) 0.3573(4)
N28_2 N 0.10947(17) 0.0323(5) 0.7832(4)
N29_2 N 0.10039(18) 0.1399(5) 0.7921(4)
H5_2 H 0.1259 0.1613 0.7964
H6_2 H 0.0822 0.1338 0.8402
H27_2 H 0.1439 0.0688 0.9174
C43_2 C 0.0957(2) 0.0060(6) 0.7239(5)
C44_2 C 0.06901(19) 0.0812(6) 0.6541(5)
C45_2 C 0.0438(2) 0.0320(6) 0.6232(5)
C46_2 C 0.0196(2) 0.0974(6) 0.5568(5)
H30_2 H 0.0028 0.0622 0.5366
C47_2 C 0.0441(2) 0.2578(6) 0.5516(5)
H31_2 H 0.0444 0.3363 0.5269
C48_2 C 0.0680(2) 0.1979(6) 0.6162(5)
H32_2 H 0.0842 0.2348 0.6362
Ag6_2 Ag 0.36968(2) 0.57376(5) 0.03172(4)
Ag8_2 Ag 0.11946(2) 0.52499(5) 0.28164(4)
Fe3 Fe 0.23506(2) 0.80247(7) 0.15891(6)
N21_2 N 0.27240(19) 0.9352(5) 0.1028(4)
N22_2 N 0.18588(16) 0.9040(5) 0.2095(4)
N23_2 N 0.19799(16) 0.6682(5) 0.2146(4)
N24_2 N 0.28495(19) 0.7042(5) 0.1075(4)
N25_2 N 0.20011(15) 0.8556(5) 0.0487(4)
C33 C 0.3019(3) 0.9816(7) 0.0783(6)
C34_2 C 0.1583(2) 0.9564(6) 0.2379(5)
C35_2 C 0.1719(2) 0.6120(5) 0.2386(5)
C36_2 C 0.3146(2) 0.6587(7) 0.0784(5)
C37_2 C 0.1978(2) 0.7775(6) 0.0151(5)
H25_2 H 0.2116 0.7026 0.0405
C41_2 C 0.1802(2) 0.9604(6) 0.0114(5)
C52_2 C 0.0646(2) 0.4488(6) 0.3278(5)
N41 N 0.51839(18) 0.2102(5) 0.0187(4)
N42 N 0.26899(17) 0.7514(5) 0.2692(4)
Ag1_2 Ag 0.85577(2) 0.05969(5) 0.53513(4)
Ag2_2 Ag 0.60574(2) 0.04937(6) 0.78516(5)
Fe2 Fe 0.48464(3) 0.30369(9) 0.90865(7)
N8_2 N 0.60951(18) 0.0335(5) 0.2826(4)
N9_2 N 0.6001(2) 0.1403(5) 0.2926(4)
H1_2 H 0.6258 0.1618 0.2960
H2_2 H 0.5825 0.1342 0.3413
N11_2 N 0.5218(2) 0.1912(6) 0.8530(4)
N12_2 N 0.4358(2) 0.2000(5) 0.9600(4)
N13_2 N 0.4484(2) 0.4182(5) 0.9646(4)
N14_2 N 0.5335(2) 0.4035(6) 0.8576(4)
N15_2 N 0.45064(17) 0.3948(5) 0.7994(4)
N16_2 N 0.3816(2) 0.7098(6) 0.5559(5)
N17_2 N 0.3582(3) 0.7571(6) 0.4870(5)
N18_2 N 0.36018(18) 0.5743(5) 0.5331(4)
N19_2 N 0.3504(2) 0.4676(5) 0.5423(4)
H3_2 H 0.3760 0.4169 0.5451
H4_2 H 0.3328 0.4423 0.5908
N26_2 N 0.1314(2) 0.8526(6) 0.8052(5)
N27_2 N 0.1077(2) 0.8982(6) 0.7363(5)
N32 N 0.93523(16) 0.2005(5) 0.4592(4)
H11_2 H 0.6435 0.0709 0.4175
H12_2 H 0.6818 0.0183 0.5326
C11_2 C 0.5946(3) 0.0077(7) 0.2224(5)
C12_2 C 0.5689(2) 0.0826(7) 0.1538(5)
C13_2 C 0.5432(2) 0.0331(6) 0.1224(5)
C14_2 C 0.5202(2) 0.0984(6) 0.0563(5)
H14_2 H 0.5042 0.0622 0.0352
C15_2 C 0.5405(3) 0.2588(6) 0.0507(5)
H15_2 H 0.5377 0.3383 0.0288
C16_2 C 0.5680(2) 0.2000(7) 0.1148(5)
H16_2 H 0.5853 0.2380 0.1314
C17_2 C 0.5506(3) 0.1398(8) 0.8283(5)
C18_2 C 0.4081(2) 0.1467(7) 0.9874(5)
C19_2 C 0.4227(2) 0.4755(7) 0.9881(5)
C20 C 0.5637(3) 0.4476(7) 0.8283(5)
C21_2 C 0.4479(2) 0.5092(6) 0.7658(5)
H17_2 H 0.4614 0.5457 0.7910
C22_2 C 0.4259(2) 0.5736(6) 0.6956(5)
H18_2 H 0.4250 0.6525 0.6737
C23_2 C 0.4049(2) 0.5236(6) 0.6567(5)
C24_2 C 0.4080(2) 0.4067(6) 0.6923(5)
H19_2 H 0.3947 0.3681 0.6686
C25_2 C 0.4306(2) 0.3465(6) 0.7622(5)
H20_2 H 0.4319 0.2675 0.7848
C26_2 C 0.3823(2) 0.5998(7) 0.5828(5)
C27_2 C 0.3455(2) 0.6755(7) 0.4723(5)
C28_2 C 0.3188(2) 0.6953(6) 0.4049(5)
C29_2 C 0.2941(2) 0.8003(6) 0.3732(5)
H21_2 H 0.2935 0.8553 0.3972
C30_2 C 0.2706(2) 0.8249(6) 0.3080(5)
H22_2 H 0.2543 0.8979 0.2879
C31_2 C 0.2927(3) 0.6482(7) 0.3008(5)
H23_2 H 0.2919 0.5941 0.2768
C32_2 C 0.3182(2) 0.6170(7) 0.3664(5)
H24_2 H 0.3350 0.5444 0.3851
C38_2 C 0.1761(2) 0.8038(6) 0.9449(5)
H26_2 H 0.1757 0.7477 0.9227
C39_2 C 0.15495(19) 0.9140(6) 0.9071(5)
C40_2 C 0.1574(2) 0.9934(6) 0.9412(5)
C42_2 C 0.1324(2) 0.9336(6) 0.8334(5)
H29_2 H 0.0432 0.9537 0.6475
C50_2 C 0.9076(2) 0.1477(6) 0.4876(5)
Ag9 Ag 0.61872(2) 0.52511(5) 0.78152(4)
Fe7 Fe 0.98446(2) 0.30372(8) 0.40850(6)
N35 N 0.94946(15) 0.3962(4) 0.2977(3)
N36_2 N 0.8807(2) 0.7109(6) 0.0542(5)
N38_2 N 0.85892(16) 0.5754(5) 0.0323(4)
N39_2 N 0.8502(2) 0.4673(5) 0.0420(4)
H7_2 H 0.8759 0.4169 0.0450
H8_2 H 0.8328 0.4430 0.0910
C53_2 C 0.9473(2) 0.5095(6) 0.2634(5)
H33_2 H 0.9615 0.5449 0.2884
C54_2 C 0.9256(2) 0.5764(6) 0.1941(5)
H34_2 H 0.9250 0.6552 0.1725
C55_2 C 0.90429(19) 0.5252(6) 0.1562(5)
C56_2 C 0.9067(2) 0.4081(6) 0.1900(5)
H35_2 H 0.8931 0.3703 0.1660
C57_2 C 0.9296(2) 0.3487(6) 0.2598(5)
H36_2 H 0.9313 0.2695 0.2819
C58_2 C 0.8818(2) 0.6016(6) 0.0818(5)
Fe1_2 Fe 0.73398(2) 0.80389(7) 0.65832(6)
N1_2 N 0.77151(18) 0.9355(5) 0.6018(4)
N2_2 N 0.6852(2) 0.9046(6) 0.7096(4)
N3_2 N 0.69828(19) 0.6703(5) 0.7137(4)
N4_2 N 0.78357(17) 0.7058(5) 0.6073(4)
N5_2 N 0.69962(17) 0.8563(5) 0.5487(4)
N6_2 N 0.6308(2) 0.8542(6) 0.3048(5)
N7_2 N 0.6072(3) 0.8987(6) 0.2356(5)
N37_2 N 0.8570(2) 0.7589(6) 0.9854(5)
N40_2 N 0.76883(15) 0.7516(5) 0.7692(4)
C1_2 C 0.8015(2) 0.9824(6) 0.5768(5)
C2_2 C 0.6570(3) 0.9582(7) 0.7373(5)
C3_2 C 0.6713(2) 0.6147(7) 0.7367(5)
C4 C 0.8136(2) 0.6601(7) 0.5782(5)
C5_2 C 0.6974(2) 0.7796(6) 0.5138(5)
H9_2 H 0.7116 0.7049 0.5382
C6_2 C 0.6755(2) 0.8055(6) 0.4445(5)
H10_2 H 0.6746 0.7487 0.4232
C7_2 C 0.6545(2) 0.9154(6) 0.4055(5)
C8_2 C 0.6572(3) 0.9955(7) 0.4410(5)
C9_2 C 0.6799(3) 0.9629(6) 0.5105(5)
C10_2 C 0.6312(2) 0.9363(7) 0.3317(5)
H13_2 H 0.5420 0.9551 0.1470
C59_2 C 0.8450(2) 0.6751(6) 0.9733(5)
C60_2 C 0.8186(2) 0.6957(6) 0.9034(5)
C61_2 C 0.7930(2) 0.8019(6) 0.8726(5)
H37_2 H 0.7920 0.8566 0.8971
C62_2 C 0.7692(2) 0.8255(6) 0.8060(5)
H38_2 H 0.7523 0.8977 0.7854
C63_2 C 0.7924(2) 0.6490(6) 0.7998(5)
H39_2 H 0.7916 0.5953 0.7755
C64_2 C 0.8179(2) 0.6180(6) 0.8650(5)
H40_2 H 0.8346 0.5453 0.8837
Ag10 Ag 0.86863(2) 0.57466(5) 0.53148(4)
N33_2 N 0.94782(16) 0.4190(5) 0.4644(4)
C51_2 C 0.9207(2) 0.4793(6) 0.4877(5)
loop_
_geom_bond_atom_site_label_1
_geom_bond_atom_site_label_2
_geom_bond_site_symmetry_1
_geom_bond_site_symmetry_2
Ag4 C51 1_555 1_555
N33 Fe10 1_555 1_555
C51 N33 1_555 1_555
N44 Fe10 1_555 1_555
N46 Fe10 1_555 1_555
C65 Ag4 1_555 1_555
Ag3 C3 1_555 1_555
Fe1 N1 1_555 1_555
N1 C1 1_555 1_555
N2 Fe1 1_555 1_555
N3 Fe1 1_555 1_555
N4 Fe1 1_555 1_555
N5 Fe1 1_555 1_555
N6 N7 1_555 1_555
N37 C59 1_555 1_555
N40 Fe1 1_555 1_555
C2 N2 1_555 1_555
C3 N3 1_555 1_555
C65 N4 1_555 1_555
C5 N5 1_555 1_555
H9 C5 1_555 1_555
C6 C5 1_555 1_555
H10 C6 1_555 1_555
C7 C6 1_555 1_555
C8 C7 1_555 1_555
C9 N5 1_555 1_555
C10 N6 1_555 1_555
C60 C59 1_555 1_555
C61 C60 1_555 1_555
H37 C61 1_555 1_555
C62 N40 1_555 1_555
H38 C62 1_555 1_555
C63 N40 1_555 1_555
H39 C63 1_555 1_555
C64 C60 1_555 1_555
H40 C64 1_555 1_555
C66 Ag3 1_555 1_555
C7 C10 1_555 1_555
C8 C9 1_555 1_555
C61 C62 1_555 1_555
C63 C64 1_555 1_555
N46 C53 1_555 1_555
N38 N39 1_555 1_555
N39 H7 1_555 1_555
H8 N39 1_555 1_555
C53 H33 1_555 1_555
C54 C53 1_555 1_555
H34 C54 1_555 1_555
C55 C54 1_555 1_555
C56 C55 1_555 1_555
H35 C56 1_555 1_555
C57 N46 1_555 1_555
H36 C57 1_555 1_555
C58 N36 1_555 1_555
N38 C58 1_555 1_555
C55 C58 1_555 1_555
C56 C57 1_555 1_555
Fe5 N11 1_555 1_555
N8 N9 1_555 1_555
N9 H1 1_555 1_555
H2 N9 1_555 1_555
N10 C14 1_555 1_555
N11 C17 1_555 1_555
N12 Fe5 1_555 1_555
N13 Fe5 1_555 1_555
N14 Fe5 1_555 1_555
N15 Fe5 1_555 1_555
N16 N17 1_555 1_555
N17 C27 1_555 1_555
N18 N19 1_555 1_555
N19 H3 1_555 1_555
H4 N19 1_555 1_555
N20 C30 1_555 1_555
N26 N27 1_555 1_555
N44 C50 1_555 1_555
C11 N8 1_555 1_555
C12 C11 1_555 1_555
C13 C12 1_555 1_555
C14 C13 1_555 1_555
H14 C14 1_555 1_555
C15 N10 1_555 1_555
H15 C15 1_555 1_555
C16 C12 1_555 1_555
H16 C16 1_555 1_555
C17 Ag2 1_555 1_555
C18 N12 1_555 1_555
C19 N13 1_555 1_555
C66 N14 1_555 1_555
C21 N15 1_555 1_555
H17 C21 1_555 1_555
C22 C21 1_555 1_555
H18 C22 1_555 1_555
C23 C22 1_555 1_555
C24 C23 1_555 1_555
H19 C24 1_555 1_555
C25 N15 1_555 1_555
H20 C25 1_555 1_555
C26 N16 1_555 1_555
C27 N18 1_555 1_555
C28 C27 1_555 1_555
C29 C28 1_555 1_555
H21 C29 1_555 1_555
C30 C29 1_555 1_555
H22 C30 1_555 1_555
C31 N20 1_555 1_555
H23 C31 1_555 1_555
C32 C28 1_555 1_555
H24 C32 1_555 1_555
H26 C38 1_555 1_555
C39 C38 1_555 1_555
C40 C39 1_555 1_555
C42 N26 1_555 1_555
C50 Ag1 1_555 1_555
Fe6 N20 1_555 1_555
N18 C26 1_555 1_555
C15 C16 1_555 1_555
C23 C26 1_555 1_555
C24 C25 1_555 1_555
C31 C32 1_555 1_555
C39 C42 1_555 1_555
Ag8 C35 1_555 1_555
Fe6 N21 1_555 1_555
N21 C67 1_555 1_555
N22 Fe6 1_555 1_555
N23 Fe6 1_555 1_555
N24 Fe6 1_555 1_555
N25 Fe6 1_555 1_555
N34 C52 1_555 1_555
C34 N22 1_555 1_555
C35 N23 1_555 1_555
C36 Ag6 1_555 1_555
C37 N25 1_555 1_555
H25 C37 1_555 1_555
C41 N25 1_555 1_555
C52 Ag8 1_555 1_555
N24 C36 1_555 1_555
N28 N29 1_555 1_555
N29 H5 1_555 1_555
H6 N29 1_555 1_555
N30 C46 1_555 1_555
C43 N28 1_555 1_555
C44 C43 1_555 1_555
C45 C44 1_555 1_555
C46 C45 1_555 1_555
H30 C46 1_555 1_555
C47 N30 1_555 1_555
H31 C47 1_555 1_555
C48 C44 1_555 1_555
H32 C48 1_555 1_555
C47 C48 1_555 1_555
N31 C49 1_555 1_555
C49 Ag7 1_555 1_555
N31_2 C49_2 1_555 1_555
C49_2 Ag7_2 1_555 1_555
N28_2 N29_2 1_555 1_555
N29_2 H5_2 1_555 1_555
H6_2 N29_2 1_555 1_555
N43 C46_2 1_555 1_555
C43_2 N28_2 1_555 1_555
C44_2 C43_2 1_555 1_555
C45_2 C44_2 1_555 1_555
C46_2 C45_2 1_555 1_555
H30_2 C46_2 1_555 1_555
C47_2 N43 1_555 1_555
H31_2 C47_2 1_555 1_555
C48_2 C44_2 1_555 1_555
H32_2 C48_2 1_555 1_555
C47_2 C48_2 1_555 1_555
Ag8_2 C35_2 1_555 1_555
Fe3 N21_2 1_555 1_555
N21_2 C33 1_555 1_555
N22_2 Fe3 1_555 1_555
N23_2 Fe3 1_555 1_555
N24_2 Fe3 1_555 1_555
N25_2 Fe3 1_555 1_555
N45 C52_2 1_555 1_555
C34_2 N22_2 1_555 1_555
C35_2 N23_2 1_555 1_555
C36_2 Ag6_2 1_555 1_555
C37_2 N25_2 1_555 1_555
H25_2 C37_2 1_555 1_555
C41_2 N25_2 1_555 1_555
C52_2 Ag8_2 1_555 1_555
N42 Fe3 1_555 1_555
N24_2 C36_2 1_555 1_555
Fe2 N11_2 1_555 1_555
N8_2 N9_2 1_555 1_555
N9_2 H1_2 1_555 1_555
H2_2 N9_2 1_555 1_555
N41 C14_2 1_555 1_555
N11_2 C17_2 1_555 1_555
N12_2 Fe2 1_555 1_555
N13_2 Fe2 1_555 1_555
N14_2 Fe2 1_555 1_555
N15_2 Fe2 1_555 1_555
N16_2 N17_2 1_555 1_555
N17_2 C27_2 1_555 1_555
N18_2 N19_2 1_555 1_555
N19_2 H3_2 1_555 1_555
H4_2 N19_2 1_555 1_555
N42 C30_2 1_555 1_555
N26_2 N27_2 1_555 1_555
N32 C50_2 1_555 1_555
C11_2 N8_2 1_555 1_555
C12_2 C11_2 1_555 1_555
C13_2 C12_2 1_555 1_555
C14_2 C13_2 1_555 1_555
H14_2 C14_2 1_555 1_555
C15_2 N41 1_555 1_555
H15_2 C15_2 1_555 1_555
C16_2 C12_2 1_555 1_555
H16_2 C16_2 1_555 1_555
C17_2 Ag2_2 1_555 1_555
C18_2 N12_2 1_555 1_555
C19_2 N13_2 1_555 1_555
C20 N14_2 1_555 1_555
C21_2 N15_2 1_555 1_555
H17_2 C21_2 1_555 1_555
C22_2 C21_2 1_555 1_555
H18_2 C22_2 1_555 1_555
C23_2 C22_2 1_555 1_555
C24_2 C23_2 1_555 1_555
H19_2 C24_2 1_555 1_555
C25_2 N15_2 1_555 1_555
H20_2 C25_2 1_555 1_555
C26_2 N16_2 1_555 1_555
C27_2 N18_2 1_555 1_555
C28_2 C27_2 1_555 1_555
C29_2 C28_2 1_555 1_555
H21_2 C29_2 1_555 1_555
C30_2 C29_2 1_555 1_555
H22_2 C30_2 1_555 1_555
C31_2 N42 1_555 1_555
H23_2 C31_2 1_555 1_555
C32_2 C28_2 1_555 1_555
H24_2 C32_2 1_555 1_555
H26_2 C38_2 1_555 1_555
C39_2 C38_2 1_555 1_555
C40_2 C39_2 1_555 1_555
C42_2 N26_2 1_555 1_555
C50_2 Ag1_2 1_555 1_555
Ag9 C20 1_555 1_555
Fe7 N32 1_555 1_555
N18_2 C26_2 1_555 1_555
C15_2 C16_2 1_555 1_555
C23_2 C26_2 1_555 1_555
C24_2 C25_2 1_555 1_555
C31_2 C32_2 1_555 1_555
C39_2 C42_2 1_555 1_555
N35 C53_2 1_555 1_555
N38_2 N39_2 1_555 1_555
N39_2 H7_2 1_555 1_555
H8_2 N39_2 1_555 1_555
C53_2 H33_2 1_555 1_555
C54_2 C53_2 1_555 1_555
H34_2 C54_2 1_555 1_555
C55_2 C54_2 1_555 1_555
C56_2 C55_2 1_555 1_555
H35_2 C56_2 1_555 1_555
C57_2 N35 1_555 1_555
H36_2 C57_2 1_555 1_555
C58_2 N36_2 1_555 1_555
Fe7 N35 1_555 1_555
N38_2 C58_2 1_555 1_555
C55_2 C58_2 1_555 1_555
C56_2 C57_2 1_555 1_555
Ag9 C3_2 1_555 1_555
Fe1_2 N1_2 1_555 1_555
N1_2 C1_2 1_555 1_555
N2_2 Fe1_2 1_555 1_555
N3_2 Fe1_2 1_555 1_555
N4_2 Fe1_2 1_555 1_555
N5_2 Fe1_2 1_555 1_555
N6_2 N7_2 1_555 1_555
N37_2 C59_2 1_555 1_555
N40_2 Fe1_2 1_555 1_555
C2_2 N2_2 1_555 1_555
C3_2 N3_2 1_555 1_555
C4 N4_2 1_555 1_555
C5_2 N5_2 1_555 1_555
H9_2 C5_2 1_555 1_555
C6_2 C5_2 1_555 1_555
H10_2 C6_2 1_555 1_555
C7_2 C6_2 1_555 1_555
C8_2 C7_2 1_555 1_555
C9_2 N5_2 1_555 1_555
C10_2 N6_2 1_555 1_555
C60_2 C59_2 1_555 1_555
C61_2 C60_2 1_555 1_555
H37_2 C61_2 1_555 1_555
C62_2 N40_2 1_555 1_555
H38_2 C62_2 1_555 1_555
C63_2 N40_2 1_555 1_555
H39_2 C63_2 1_555 1_555
C64_2 C60_2 1_555 1_555
H40_2 C64_2 1_555 1_555
Ag10 C4 1_555 1_555
C7_2 C10_2 1_555 1_555
C8_2 C9_2 1_555 1_555
C61_2 C62_2 1_555 1_555
C63_2 C64_2 1_555 1_555
Ag10 C51_2 1_555 1_555
N33_2 Fe7 1_555 1_555
C51_2 N33_2 1_555 1_555

#END
