
###############################################################################
#
# This file contains modified crystal structure data generated from the
# MOF subset of the Cambridge Structural Database (CSD) v543 
# hosted by the Cambridge Crystallographic Data Centre (CCDC).
#
# This work is licensed under the Creative Commons
# Attribution-NonCommercial-ShareAlike 4.0 International License.
# To view a copy of this license, visit
# http://creativecommons.org/licenses/by-nc-sa/4.0/
# or send a letter to
# Creative Commons, PO Box 1866, Mountain View, CA 94042, USA.
#
# CIF created using the CSD Python API on 29 September 2022
# The structure has been converted into the P1 space group
# The structure has a 3D framework
# The original CSD entry HERMEZ02 is in the triclinic crystal system
# The framework has been calculated to contain at least 10.0% void space
# The void calculation uses a probe of radius 1.32A, grid spacing 0.4
#
###############################################################################

data_HERMEZ02
_chemical_formula_moiety         '(C64 H40 Ag8 Fe2 N40)n'
_symmetry_cell_setting           triclinic
_symmetry_space_group_name_H-M   'P 1'
_symmetry_Int_Tables_number      1
_space_group_name_Hall           'P 1'
loop_
_symmetry_equiv_pos_site_id
_symmetry_equiv_pos_as_xyz
1 x,y,z
_cell_length_a                   16.352(2)
_cell_length_b                   12.8908(18)
_cell_length_c                   17.100(3)
_cell_angle_alpha                111.436(4)
_cell_angle_beta                 68.398(4)
_cell_angle_gamma                89.997(4)
_cell_volume                     3081.56
loop_
_atom_site_label
_atom_site_type_symbol
_atom_site_fract_x
_atom_site_fract_y
_atom_site_fract_z
N2 N 0.2672(4) 0.3530(3) 0.0583(3)
N3 N 0.2206(4) 0.3984(4) 0.1516(3)
N4 N 0.2239(2) 0.5327(3) 0.1011(2)
N5 N 0.2062(3) 0.6389(3) 0.0997(3)
H1 H 0.2564 0.6607 0.0699
H2 H 0.1704 0.6323 0.0695
N6 N 0.0409(2) 0.7080(3) 0.4577(2)
C6 C 0.2687(3) 0.4344(4) 0.0290(3)
C7 C 0.1948(3) 0.5062(4) 0.1763(3)
C8 C 0.1420(3) 0.5806(4) 0.2717(3)
C9 C 0.0893(3) 0.5311(4) 0.3292(3)
H9 H 0.0869 0.4526 0.3057
C10 C 0.0408(3) 0.5966(4) 0.4201(3)
H10 H 0.0054 0.5614 0.4581
C11 C 0.0898(3) 0.7560(4) 0.4020(3)
H11 H 0.0890 0.8352 0.4271
C12 C 0.1413(3) 0.6966(4) 0.3103(3)
H12 H 0.1758 0.7342 0.2740
Ag1 Ag 0.21910(2) 0.54306(3) 0.60657(3)
Ag2 Ag 0.70577(2) 0.55815(3) 0.60991(3)
Ag3 Ag 0.24578(2) 0.02540(3) 0.59665(2)
Ag4 Ag 0.73204(2) 0.07563(3) 0.60076(2)
Fe1 Fe 0.46968(3) 0.30191(4) 0.60618(3)
N1 N 0.4055(2) 0.3512(3) 0.7422(2)
N7 N 0.5346(2) 0.2533(3) 0.4707(2)
N8 N 0.7140(3) 0.2555(3) 0.1604(3)
N9 N 0.7607(3) 0.2081(3) 0.0673(3)
N10 N 0.7171(2) 0.0724(3) 0.1128(2)
N13 N 0.3775(2) 0.3961(3) 0.6046(2)
N14 N 0.3997(2) 0.1792(3) 0.5899(2)
N15 N 0.5630(2) 0.2098(3) 0.6075(2)
N16 N 0.5416(2) 0.4221(3) 0.6217(2)
N17 N 0.8684(2) 0.6965(3) 0.6054(2)
N20 N 0.0477(2) 0.6848(3) 0.6247(2)
C1 C 0.3980(3) 0.2746(3) 0.7800(3)
H5 H 0.4242 0.1985 0.7411
C2 C 0.3540(3) 0.3019(3) 0.8725(3)
H6 H 0.3507 0.2452 0.8962
C3 C 0.3141(3) 0.4130(3) 0.9315(3)
C4 C 0.3224(3) 0.4927(3) 0.8928(3)
H7 H 0.2973 0.5696 0.9301
C5 C 0.3676(3) 0.4581(3) 0.7992(3)
H8 H 0.3722 0.5132 0.7737
C13 C 0.5416(3) 0.3281(3) 0.4315(3)
H13 H 0.5117 0.4031 0.4691
C14 C 0.5894(3) 0.3023(3) 0.3404(3)
H14 H 0.5914 0.3584 0.3163
C15 C 0.6353(3) 0.1932(3) 0.2828(3)
C16 C 0.6277(3) 0.1144(3) 0.3227(3)
H15 H 0.6571 0.0389 0.2864
C17 C 0.5771(3) 0.1470(3) 0.4150(3)
H16 H 0.5720 0.0920 0.4407
C18 C 0.6884(3) 0.1719(4) 0.1869(3)
C19 C 0.7625(3) 0.0988(4) 0.0399(3)
C25 C 0.3224(3) 0.4490(4) 0.6036(3)
C26 C 0.3496(3) 0.1175(3) 0.5895(3)
C27 C 0.6218(3) 0.1627(4) 0.6080(3)
C28 C 0.5969(3) 0.4772(4) 0.6209(3)
C29 C 0.8116(3) 0.6448(4) 0.6060(3)
C32 C 0.1087(3) 0.6331(4) 0.6188(3)
Fe7 Fe 0.97019(3) 0.80221(4) 0.60625(3)
N11 N 0.6986(3) 0.9657(3) 0.1140(3)
H3 H 0.7489 0.9156 0.0871
H4 H 0.6643 0.9405 0.0823
N18 N 0.8944(2) 0.9208(3) 0.5869(2)
N19 N 0.0732(2) 0.9042(3) 0.6069(2)
C30 C 0.8386(3) 0.9801(4) 0.5920(3)
C31 C 0.1345(3) 0.9476(4) 0.6055(3)
N12 N 0.8986(2) 0.8950(3) 0.7545(2)
C23 C 0.8586(3) 0.8470(4) 0.8130(3)
H19 H 0.8614 0.7674 0.7889
C24 C 0.8133(3) 0.9059(4) 0.9066(3)
H20 H 0.7864 0.8672 0.9451
C20 C 0.8079(3) 0.0231(3) 0.9429(3)
C21 C 0.8504(3) 0.0733(3) 0.8818(3)
H17 H 0.8491 0.1527 0.9036
C22 C 0.8941(3) 0.0073(3) 0.7902(3)
H18 H 0.9227 0.0434 0.7500
Fe2 Fe 0.02981(3) 0.19779(4) 0.39375(3)
N22 N 0.1014(2) 0.1050(3) 0.2455(2)
N23 N 0.1316(2) 0.3035(3) 0.3946(2)
N24 N 0.1056(2) 0.0792(3) 0.4131(2)
C23_2 C 0.1414(3) 0.1530(4) 0.1870(3)
H19_2 H 0.1386 0.2326 0.2111
C24_2 C 0.1867(3) 0.0941(4) 0.0934(3)
H20_2 H 0.2136 0.1328 0.0549
N11_2 N 0.3014(3) 0.0343(3) 0.8860(3)
H3_2 H 0.2511 0.0844 0.9129
H4_2 H 0.3357 0.0595 0.9177
N19_2 N 0.9268(2) 0.0958(3) 0.3931(2)
C30_2 C 0.1614(3) 0.0199(4) 0.4080(3)
C31_2 C 0.8655(3) 0.0524(4) 0.3945(3)
N21 N 0.9591(2) 0.2920(3) 0.5423(2)
N25 N 0.9523(2) 0.3152(3) 0.3753(2)
Ag1_2 Ag 0.78090(2) 0.45694(3) 0.39343(3)
Ag2_2 Ag 0.29423(2) 0.44185(3) 0.39009(3)
Ag3_2 Ag 0.75422(2) 0.97460(3) 0.40335(2)
Ag4_2 Ag 0.26796(2) 0.92437(3) 0.39924(2)
Fe1_2 Fe 0.53032(3) 0.69809(4) 0.39382(3)
N1_2 N 0.5945(2) 0.6488(3) 0.2578(2)
N7_2 N 0.4654(2) 0.7467(3) 0.5293(2)
N8_2 N 0.2860(3) 0.7445(3) 0.8396(3)
N9_2 N 0.2393(3) 0.7919(3) 0.9327(3)
N10_2 N 0.2829(2) 0.9276(3) 0.8872(2)
N13_2 N 0.6225(2) 0.6039(3) 0.3954(2)
N14_2 N 0.6003(2) 0.8208(3) 0.4101(2)
N15_2 N 0.4370(2) 0.7902(3) 0.3925(2)
N16_2 N 0.4584(2) 0.5779(3) 0.3783(2)
C1_2 C 0.6020(3) 0.7254(3) 0.2200(3)
H5_2 H 0.5758 0.8015 0.2589
C2_2 C 0.6460(3) 0.6981(3) 0.1275(3)
H6_2 H 0.6493 0.7548 0.1038
C3_2 C 0.6859(3) 0.5870(3) 0.0685(3)
C4_2 C 0.6776(3) 0.5073(3) 0.1072(3)
H7_2 H 0.7027 0.4304 0.0699
C5_2 C 0.6324(3) 0.5419(3) 0.2008(3)
H8_2 H 0.6278 0.4868 0.2263
C13_2 C 0.4584(3) 0.6719(3) 0.5685(3)
H13_2 H 0.4883 0.5969 0.5309
C14_2 C 0.4106(3) 0.6977(3) 0.6596(3)
H14_2 H 0.4086 0.6416 0.6837
C15_2 C 0.3647(3) 0.8068(3) 0.7172(3)
C16_2 C 0.3723(3) 0.8856(3) 0.6773(3)
H15_2 H 0.3429 0.9611 0.7136
C17_2 C 0.4229(3) 0.8530(3) 0.5850(3)
H16_2 H 0.4280 0.9080 0.5593
C18_2 C 0.3116(3) 0.8281(4) 0.8131(3)
C19_2 C 0.2375(3) 0.9012(4) 0.9601(3)
C25_2 C 0.6776(3) 0.5510(4) 0.3964(3)
C26_2 C 0.6504(3) 0.8825(3) 0.4105(3)
C27_2 C 0.3782(3) 0.8373(4) 0.3920(3)
C28_2 C 0.4031(3) 0.5228(4) 0.3791(3)
C29_2 C 0.1884(3) 0.3552(4) 0.3940(3)
C32_2 C 0.8913(3) 0.3669(4) 0.3812(3)
N2_2 N 0.7328(4) 0.6470(3) 0.9417(3)
N3_2 N 0.7794(4) 0.6016(4) 0.8484(3)
N4_2 N 0.7761(2) 0.4673(3) 0.8989(2)
N5_2 N 0.7938(3) 0.3611(3) 0.9003(3)
H1_2 H 0.7436 0.3393 0.9301
H2_2 H 0.8296 0.3677 0.9305
C6_2 C 0.7313(3) 0.5656(4) 0.9710(3)
C7_2 C 0.8052(3) 0.4938(4) 0.8237(3)
C8_2 C 0.8580(3) 0.4194(4) 0.7283(3)
C9_2 C 0.9107(3) 0.4689(4) 0.6708(3)
H9_2 H 0.9131 0.5474 0.6943
C10_2 C 0.9592(3) 0.4034(4) 0.5799(3)
H10_2 H 0.9946 0.4386 0.5419
C11_2 C 0.9102(3) 0.2440(4) 0.5980(3)
H11_2 H 0.9110 0.1648 0.5729
C12_2 C 0.8587(3) 0.3034(4) 0.6897(3)
H12_2 H 0.8242 0.2658 0.7260
C20_2 C 0.1921(3) 0.9769(3) 0.0571(3)
C21_2 C 0.1496(3) 0.9267(3) 0.1182(3)
H17_2 H 0.1509 0.8473 0.0964
C22_2 C 0.1059(3) 0.9927(3) 0.2098(3)
H18_2 H 0.0773 0.9566 0.2500
loop_
_geom_bond_atom_site_label_1
_geom_bond_atom_site_label_2
_geom_bond_site_symmetry_1
_geom_bond_site_symmetry_2
N2 N3 1_555 1_555
N3 C7 1_555 1_555
N4 N5 1_555 1_555
N5 H1 1_555 1_555
H2 N5 1_555 1_555
N6 C10 1_555 1_555
C6 N2 1_555 1_555
C7 N4 1_555 1_555
C8 C7 1_555 1_555
C9 C8 1_555 1_555
H9 C9 1_555 1_555
C10 C9 1_555 1_555
H10 C10 1_555 1_555
C11 N6 1_555 1_555
H11 C11 1_555 1_555
C12 C8 1_555 1_555
H12 C12 1_555 1_555
N4 C6 1_555 1_555
C11 C12 1_555 1_555
Ag1 C25 1_555 1_555
Ag2 C28 1_555 1_555
Ag3 C26 1_555 1_555
Ag4 C27 1_555 1_555
Fe1 N1 1_555 1_555
N1 C1 1_555 1_555
N7 Fe1 1_555 1_555
N8 N9 1_555 1_555
N9 C19 1_555 1_555
N13 Fe1 1_555 1_555
N14 Fe1 1_555 1_555
N15 Fe1 1_555 1_555
N16 Fe1 1_555 1_555
N17 C29 1_555 1_555
N20 C32 1_555 1_555
C1 H5 1_555 1_555
C2 C1 1_555 1_555
H6 C2 1_555 1_555
C3 C2 1_555 1_555
C4 C3 1_555 1_555
H7 C4 1_555 1_555
C5 N1 1_555 1_555
H8 C5 1_555 1_555
C13 N7 1_555 1_555
H13 C13 1_555 1_555
C14 C13 1_555 1_555
H14 C14 1_555 1_555
C15 C14 1_555 1_555
C16 C15 1_555 1_555
H15 C16 1_555 1_555
C17 N7 1_555 1_555
H16 C17 1_555 1_555
C18 N8 1_555 1_555
C19 N10 1_555 1_555
C25 N13 1_555 1_555
C26 N14 1_555 1_555
C27 N15 1_555 1_555
C28 N16 1_555 1_555
C29 Ag2 1_555 1_555
C32 Ag1 1_555 1_555
Fe7 N17 1_555 1_555
N10 C18 1_555 1_555
C4 C5 1_555 1_555
C15 C18 1_555 1_555
C16 C17 1_555 1_555
N11 H3 1_555 1_555
H4 N11 1_555 1_555
N18 C30 1_555 1_555
N19 C31 1_555 1_555
Fe7 N18 1_555 1_555
C23 N12 1_555 1_555
H19 C23 1_555 1_555
H20 C24 1_555 1_555
Fe7 N12 1_555 1_555
C23 C24 1_555 1_555
C21 C20 1_555 1_555
H17 C21 1_555 1_555
C22 C21 1_555 1_555
H18 C22 1_555 1_555
N22 Fe2 1_555 1_555
N23 Fe2 1_555 1_555
N24 Fe2 1_555 1_555
C23_2 N22 1_555 1_555
H19_2 C23_2 1_555 1_555
H20_2 C24_2 1_555 1_555
C23_2 C24_2 1_555 1_555
N11_2 H3_2 1_555 1_555
H4_2 N11_2 1_555 1_555
N24 C30_2 1_555 1_555
N19_2 C31_2 1_555 1_555
Ag1_2 C25_2 1_555 1_555
Ag2_2 C28_2 1_555 1_555
Ag3_2 C26_2 1_555 1_555
Ag4_2 C27_2 1_555 1_555
Fe1_2 N1_2 1_555 1_555
N1_2 C1_2 1_555 1_555
N7_2 Fe1_2 1_555 1_555
N8_2 N9_2 1_555 1_555
N9_2 C19_2 1_555 1_555
N13_2 Fe1_2 1_555 1_555
N14_2 Fe1_2 1_555 1_555
N15_2 Fe1_2 1_555 1_555
N16_2 Fe1_2 1_555 1_555
N23 C29_2 1_555 1_555
N25 C32_2 1_555 1_555
C1_2 H5_2 1_555 1_555
C2_2 C1_2 1_555 1_555
H6_2 C2_2 1_555 1_555
C3_2 C2_2 1_555 1_555
C4_2 C3_2 1_555 1_555
H7_2 C4_2 1_555 1_555
C5_2 N1_2 1_555 1_555
H8_2 C5_2 1_555 1_555
C13_2 N7_2 1_555 1_555
H13_2 C13_2 1_555 1_555
C14_2 C13_2 1_555 1_555
H14_2 C14_2 1_555 1_555
C15_2 C14_2 1_555 1_555
C16_2 C15_2 1_555 1_555
H15_2 C16_2 1_555 1_555
C17_2 N7_2 1_555 1_555
H16_2 C17_2 1_555 1_555
C18_2 N8_2 1_555 1_555
C19_2 N10_2 1_555 1_555
C25_2 N13_2 1_555 1_555
C26_2 N14_2 1_555 1_555
C27_2 N15_2 1_555 1_555
C28_2 N16_2 1_555 1_555
C29_2 Ag2_2 1_555 1_555
C32_2 Ag1_2 1_555 1_555
N10_2 C18_2 1_555 1_555
C4_2 C5_2 1_555 1_555
C15_2 C18_2 1_555 1_555
C16_2 C17_2 1_555 1_555
N2_2 N3_2 1_555 1_555
N3_2 C7_2 1_555 1_555
N4_2 N5_2 1_555 1_555
N5_2 H1_2 1_555 1_555
H2_2 N5_2 1_555 1_555
N21 C10_2 1_555 1_555
C6_2 N2_2 1_555 1_555
C7_2 N4_2 1_555 1_555
C8_2 C7_2 1_555 1_555
C9_2 C8_2 1_555 1_555
H9_2 C9_2 1_555 1_555
C10_2 C9_2 1_555 1_555
H10_2 C10_2 1_555 1_555
C11_2 N21 1_555 1_555
H11_2 C11_2 1_555 1_555
C12_2 C8_2 1_555 1_555
H12_2 C12_2 1_555 1_555
N4_2 C6_2 1_555 1_555
C11_2 C12_2 1_555 1_555
C21_2 C20_2 1_555 1_555
H17_2 C21_2 1_555 1_555
C22_2 C21_2 1_555 1_555
H18_2 C22_2 1_555 1_555

#END
