
###############################################################################
#
# This file contains modified crystal structure data generated from the
# MOF subset of the Cambridge Structural Database (CSD) v543 
# hosted by the Cambridge Crystallographic Data Centre (CCDC).
#
# This work is licensed under the Creative Commons
# Attribution-NonCommercial-ShareAlike 4.0 International License.
# To view a copy of this license, visit
# http://creativecommons.org/licenses/by-nc-sa/4.0/
# or send a letter to
# Creative Commons, PO Box 1866, Mountain View, CA 94042, USA.
#
# CIF created using the CSD Python API on 29 September 2022
# The structure has been converted into the P1 space group
# The structure has a 3D framework
# The original CSD entry HERMEZ01 is in the triclinic crystal system
# The framework has been calculated to contain at least 10.0% void space
# The void calculation uses a probe of radius 1.32A, grid spacing 0.4
#
###############################################################################

data_HERMEZ01
_chemical_formula_moiety         '(C128 H80 Ag16 Fe8 N80)n'
_symmetry_cell_setting           triclinic
_symmetry_space_group_name_H-M   'P 1'
_symmetry_Int_Tables_number      1
_space_group_name_Hall           'P 1'
loop_
_symmetry_equiv_pos_site_id
_symmetry_equiv_pos_as_xyz
1 x,y,z
_cell_length_a                   30.459(2)
_cell_length_b                   12.8659(9)
_cell_length_c                   17.1369(12)
_cell_angle_alpha                68.150(2)
_cell_angle_beta                 80.404(2)
_cell_angle_gamma                77.879(2)
_cell_volume                     6065.16
loop_
_atom_site_label
_atom_site_type_symbol
_atom_site_fract_x
_atom_site_fract_y
_atom_site_fract_z
Fe10 Fe 0.01469(3) 0.69725(7) 0.59145(5)
Ag4 Ag 0.13510(2) 0.42339(4) 0.46773(3)
N33 N 0.05325(18) 0.5802(5) 0.5354(3)
C51 C 0.0813(2) 0.5197(6) 0.5121(4)
N44 N 0.06558(17) 0.8018(5) 0.5402(4)
N46 N 0.05018(17) 0.6049(4) 0.7033(3)
C65 C 0.1908(2) 0.3361(6) 0.4189(4)
Ag3 Ag 0.38220(2) 0.47400(4) 0.21812(3)
Fe1 Fe 0.26808(2) 0.19527(6) 0.34142(5)
N1 N 0.23158(17) 0.0743(4) 0.3932(3)
N2 N 0.31535(15) 0.0988(4) 0.2937(3)
N3 N 0.30419(15) 0.3201(4) 0.2896(3)
N4 N 0.22060(18) 0.2891(4) 0.3890(3)
N5 N 0.30059(14) 0.1435(4) 0.4474(3)
N6 N 0.3683(2) 0.1388(5) 0.6970(4)
N7 N 0.3916(2) 0.0931(5) 0.7672(4)
N37 N 0.1433(3) 0.2441(5) 0.0186(5)
N40 N 0.23504(16) 0.2453(4) 0.2375(3)
C1 C 0.2034(2) 0.0209(6) 0.4198(4)
C2 C 0.3434(2) 0.0451(5) 0.2648(4)
C3 C 0.32992(19) 0.3808(5) 0.2638(4)
C5 C 0.30409(19) 0.2203(5) 0.4811(4)
H9 H 0.2913 0.2973 0.4543
C6 C 0.32538(19) 0.1922(5) 0.5526(4)
H10 H 0.3267 0.2489 0.5748
C7 C 0.34513(19) 0.0801(5) 0.5924(4)
C8 C 0.3415(2) 0.0004(5) 0.5580(4)
C9 C 0.3190(2) 0.0358(5) 0.4862(4)
C10 C 0.3677(2) 0.0575(5) 0.6681(4)
H13 H 0.4531 0.0410 0.8617
C59 C 0.1565(2) 0.3270(5) 0.0314(4)
C60 C 0.1838(2) 0.3060(5) 0.1004(4)
C61 C 0.2075(2) 0.1973(5) 0.1346(4)
H37 H 0.2065 0.1412 0.1116
C62 C 0.2325(2) 0.1699(5) 0.2018(4)
H38 H 0.2485 0.0949 0.2236
C63 C 0.2131(2) 0.3518(5) 0.2036(4)
H39 H 0.2154 0.4069 0.2266
C64 C 0.1873(2) 0.3845(5) 0.1367(4)
H40 H 0.1719 0.4603 0.1155
C66 C 0.43758(19) 0.5559(5) 0.1687(4)
N36 N 0.1196(2) 0.2907(5) 0.9495(4)
N38 N 0.14219(17) 0.4270(4) 0.9715(3)
N39 N 0.1510(2) 0.5353(5) 0.9612(4)
H7 H 0.1254 0.5857 0.9582
H8 H 0.1685 0.5596 0.9122
C53 C 0.0528(2) 0.4919(5) 0.7365(4)
H33 H 0.0387 0.4555 0.7106
C54 C 0.0751(2) 0.4261(5) 0.8070(4)
H34 H 0.0762 0.3461 0.8283
C55 C 0.0960(2) 0.4764(5) 0.8468(4)
C56 C 0.0932(2) 0.5947(6) 0.8119(4)
H35 H 0.1068 0.6335 0.8365
C57 C 0.0704(2) 0.6535(6) 0.7411(4)
H36 H 0.0689 0.7336 0.7179
C58 C 0.1192(2) 0.4010(6) 0.9213(4)
C67 C 0.6960(2) 0.0225(5) 0.9201(4)
Fe5 Fe 0.51456(2) 0.69763(6) 0.09092(5)
Ag1 Ag 0.14799(2) 0.93993(5) 0.46395(4)
Ag2 Ag 0.39587(2) 0.95202(4) 0.21496(3)
N8 N 0.39010(16) 0.9588(4) 0.7186(3)
N9 N 0.3985(2) 0.8517(5) 0.7091(4)
H1 H 0.3728 0.8302 0.7057
H2 H 0.4161 0.8579 0.6604
N10 N 0.48159(15) 0.7834(4) 0.9873(3)
N11 N 0.47824(15) 0.8030(4) 0.1431(3)
N12 N 0.56147(15) 0.7938(4) 0.0433(3)
N13 N 0.55012(15) 0.5902(4) 0.0390(3)
N14 N 0.46728(15) 0.6041(4) 0.1386(3)
N15 N 0.54703(15) 0.6118(4) 0.1954(3)
N16 N 0.6160(2) 0.2996(5) 0.4429(4)
N17 N 0.6392(2) 0.2520(5) 0.5131(4)
N18 N 0.63819(16) 0.4356(4) 0.4656(3)
N19 N 0.6469(2) 0.5423(4) 0.4578(4)
H3 H 0.6214 0.5930 0.4550
H4 H 0.6646 0.5676 0.4092
N20 N 0.72816(15) 0.2507(4) 0.7364(3)
N26 N 0.8652(3) 0.1477(5) 0.1905(5)
N27 N 0.8890(3) 0.1011(6) 0.2604(5)
H11 H 0.3542 0.9230 0.5832
H12 H 0.3165 0.9806 0.4634
C11 C 0.4042(2) 0.9839(5) 0.7800(4)
C12 C 0.43127(19) 0.9094(5) 0.8496(4)
C13 C 0.4542(2) 0.9611(5) 0.8845(4)
C14 C 0.4786(2) 0.8968(5) 0.9521(4)
H14 H 0.4940 0.9342 0.9750
C15 C 0.4602(2) 0.7325(5) 0.9525(4)
H15 H 0.4628 0.6522 0.9752
C16 C 0.4347(2) 0.7914(5) 0.8855(4)
H16 H 0.4195 0.7521 0.8638
C17 C 0.4504(2) 0.8589(5) 0.1699(4)
C18 C 0.58926(19) 0.8473(5) 0.0140(4)
C19 C 0.57583(19) 0.5296(5) 0.0132(4)
C21 C 0.55064(18) 0.4982(5) 0.2286(4)
H17 H 0.5373 0.4608 0.2024
C22 C 0.57292(19) 0.4337(5) 0.2992(4)
H18 H 0.5748 0.3536 0.3203
C23 C 0.59280(19) 0.4855(5) 0.3399(4)
C24 C 0.5890(2) 0.6035(5) 0.3055(4)
H19 H 0.6019 0.6429 0.3307
C25 C 0.56617(19) 0.6626(5) 0.2341(4)
H20 H 0.5639 0.7429 0.2114
C26 C 0.6155(2) 0.4096(5) 0.4148(4)
C27 C 0.6521(2) 0.3352(5) 0.5265(4)
C28 C 0.6786(2) 0.3127(5) 0.5971(4)
C29 C 0.7016(2) 0.2030(5) 0.6316(4)
H21 H 0.7008 0.1473 0.6081
C30 C 0.7255(2) 0.1756(5) 0.7000(4)
H22 H 0.7409 0.1001 0.7228
C31 C 0.70734(19) 0.3570(5) 0.7008(4)
H23 H 0.7101 0.4122 0.7235
C32 C 0.6821(2) 0.3912(5) 0.6331(4)
H24 H 0.6672 0.4674 0.6113
C38 C 0.8212(2) 0.1980(5) 0.0484(4)
H26 H 0.8232 0.2554 0.0694
C39 C 0.8413(2) 0.0869(5) 0.0880(4)
C40 C 0.8378(2) 0.0068(5) 0.0536(4)
C42 C 0.8646(2) 0.0656(5) 0.1624(4)
H29 H 0.9556 0.0470 0.3497
C50 C 0.0945(2) 0.8536(6) 0.5124(4)
Fe6 Fe 0.76137(2) 0.19966(6) 0.84067(5)
Ag5 Ag 0.64153(2) 0.93933(4) 0.96430(3)
Ag6 Ag 0.62814(2) 0.42992(4) 0.96730(3)
Ag8 Ag 0.87590(2) 0.47465(4) 0.71860(3)
N21 N 0.72424(16) 0.0770(4) 0.8931(3)
N22 N 0.80799(17) 0.1042(5) 0.7928(3)
N23 N 0.79700(17) 0.3234(4) 0.7888(3)
N24 N 0.71354(15) 0.2936(4) 0.8890(3)
N25 N 0.79466(16) 0.1490(4) 0.9447(3)
N34 N 0.96300(17) 0.5964(5) 0.6429(3)
C34 C 0.8362(2) 0.0517(6) 0.7643(4)
C35 C 0.8233(2) 0.3830(5) 0.7636(4)
C36 C 0.6838(2) 0.3426(5) 0.9190(4)
C37 C 0.7983(2) 0.2255(5) 0.9786(4)
H25 H 0.7845 0.3019 0.9532
C41 C 0.8138(2) 0.0412(5) 0.9832(4)
C52 C 0.9323(2) 0.5520(6) 0.6719(4)
N28 N 0.88776(18) 0.9668(5) 0.2126(3)
N29 N 0.8968(2) 0.8601(5) 0.2030(4)
H5 H 0.8713 0.8387 0.1986
H6 H 0.9149 0.8661 0.1549
N30 N 0.97946(17) 0.7908(4) 0.4793(3)
H27 H 0.8515 0.9300 0.0777
C43 C 0.9020(2) 0.9933(6) 0.2727(4)
C44 C 0.9288(2) 0.9175(5) 0.3429(4)
C45 C 0.9548(2) 0.9679(5) 0.3747(5)
C46 C 0.9788(2) 0.9033(5) 0.4416(4)
H30 H 0.9958 0.9394 0.4626
C47 C 0.9554(2) 0.7421(6) 0.4477(4)
H31 H 0.9562 0.6623 0.4724
C48 C 0.9296(2) 0.8017(6) 0.3811(4)
H32 H 0.9126 0.7637 0.3617
Ag7 Ag 0.88862(2) 0.95682(5) 0.71561(4)
N31 N 0.97491(19) 0.8130(5) 0.6478(4)
H28 H 0.8108 0.9854 0.9613
C49 C 0.9447(3) 0.8666(6) 0.6726(5)
Ag7_2 Ag 0.11138(2) 0.04318(5) 0.28439(4)
N31_2 N 0.02509(19) 0.1870(5) 0.3522(4)
H28_2 H 0.1892 0.0146 0.0387
C49_2 C 0.0553(3) 0.1334(6) 0.3274(5)
Ag11 Ag 0.35847(2) 0.06067(4) 0.03570(3)
N43 N 0.02054(17) 0.2092(4) 0.5207(3)
N45 N 0.03700(17) 0.4036(5) 0.3571(3)
N28_2 N 0.11224(18) 0.0332(5) 0.7874(3)
N29_2 N 0.1032(2) 0.1399(5) 0.7970(4)
H5_2 H 0.1287 0.1613 0.8014
H6_2 H 0.0851 0.1339 0.8451
H27_2 H 0.1485 0.0700 0.9223
C43_2 C 0.0980(2) 0.0067(6) 0.7273(4)
C44_2 C 0.0712(2) 0.0825(5) 0.6571(4)
C45_2 C 0.0452(2) 0.0321(5) 0.6253(5)
C46_2 C 0.0212(2) 0.0967(5) 0.5584(4)
H30_2 H 0.0042 0.0606 0.5374
C47_2 C 0.0446(2) 0.2579(6) 0.5523(4)
H31_2 H 0.0438 0.3377 0.5276
C48_2 C 0.0704(2) 0.1983(6) 0.6189(4)
H32_2 H 0.0874 0.2363 0.6383
Ag6_2 Ag 0.37186(2) 0.57008(4) 0.03270(3)
Ag8_2 Ag 0.12410(2) 0.52535(4) 0.28140(3)
Fe3 Fe 0.23863(2) 0.80034(6) 0.15933(5)
N21_2 N 0.27576(16) 0.9230(4) 0.1069(3)
N22_2 N 0.19201(17) 0.8958(5) 0.2072(3)
N23_2 N 0.20300(17) 0.6766(4) 0.2112(3)
N24_2 N 0.28646(15) 0.7064(4) 0.1110(3)
N25_2 N 0.20534(16) 0.8510(4) 0.0553(3)
C33 C 0.3040(2) 0.9775(5) 0.0799(4)
C34_2 C 0.1638(2) 0.9483(6) 0.2357(4)
C35_2 C 0.1767(2) 0.6170(5) 0.2364(4)
C36_2 C 0.3162(2) 0.6574(5) 0.0810(4)
C37_2 C 0.2017(2) 0.7745(5) 0.0214(4)
H25_2 H 0.2155 0.6981 0.0468
C41_2 C 0.1862(2) 0.9588(5) 0.0168(4)
C52_2 C 0.0677(2) 0.4480(6) 0.3281(4)
N41 N 0.51841(15) 0.2166(4) 0.0127(3)
N42 N 0.27184(15) 0.7493(4) 0.2636(3)
Ag1_2 Ag 0.85201(2) 0.06007(5) 0.53605(4)
Ag2_2 Ag 0.60413(2) 0.04798(4) 0.78504(3)
Fe2 Fe 0.48544(2) 0.30237(6) 0.90908(5)
N8_2 N 0.60990(16) 0.0412(4) 0.2814(3)
N9_2 N 0.6015(2) 0.1483(5) 0.2909(4)
H1_2 H 0.6272 0.1698 0.2943
H2_2 H 0.5839 0.1421 0.3396
N11_2 N 0.52176(15) 0.1970(4) 0.8569(3)
N12_2 N 0.43853(15) 0.2062(4) 0.9567(3)
N13_2 N 0.44988(15) 0.4098(4) 0.9610(3)
N14_2 N 0.53272(15) 0.3959(4) 0.8614(3)
N15_2 N 0.45297(15) 0.3882(4) 0.8046(3)
N16_2 N 0.3840(2) 0.7004(5) 0.5571(4)
N17_2 N 0.3608(2) 0.7480(5) 0.4869(4)
N18_2 N 0.36181(16) 0.5644(4) 0.5344(3)
N19_2 N 0.3531(2) 0.4577(4) 0.5422(4)
H3_2 H 0.3786 0.4070 0.5450
H4_2 H 0.3354 0.4324 0.5908
N26_2 N 0.1348(3) 0.8523(5) 0.8095(5)
N27_2 N 0.1110(3) 0.8989(6) 0.7396(5)
N32 N 0.93442(17) 0.1982(5) 0.4598(4)
H11_2 H 0.6458 0.0770 0.4168
H12_2 H 0.6835 0.0194 0.5366
C11_2 C 0.5958(2) 0.0161(5) 0.2200(4)
C12_2 C 0.56873(19) 0.0906(5) 0.1504(4)
C13_2 C 0.5458(2) 0.0389(5) 0.1155(4)
C14_2 C 0.5214(2) 0.1032(5) 0.0479(4)
H14_2 H 0.5060 0.0658 0.0250
C15_2 C 0.5398(2) 0.2675(5) 0.0475(4)
H15_2 H 0.5372 0.3478 0.0248
C16_2 C 0.5653(2) 0.2086(5) 0.1145(4)
H16_2 H 0.5805 0.2479 0.1362
C17_2 C 0.5496(2) 0.1411(5) 0.8301(4)
C18_2 C 0.41074(19) 0.1527(5) 0.9860(4)
C19_2 C 0.42417(19) 0.4704(5) 0.9868(4)
C20 C 0.56242(19) 0.4441(5) 0.8313(4)
C21_2 C 0.44936(18) 0.5018(5) 0.7714(4)
H17_2 H 0.4627 0.5392 0.7976
C22_2 C 0.42708(19) 0.5663(5) 0.7008(4)
H18_2 H 0.4252 0.6464 0.6797
C23_2 C 0.40720(19) 0.5145(5) 0.6601(4)
C24_2 C 0.4110(2) 0.3965(5) 0.6945(4)
H19_2 H 0.3981 0.3571 0.6693
C25_2 C 0.43383(19) 0.3374(5) 0.7659(4)
H20_2 H 0.4361 0.2571 0.7886
C26_2 C 0.3845(2) 0.5904(5) 0.5852(4)
C27_2 C 0.3479(2) 0.6648(5) 0.4735(4)
C28_2 C 0.3214(2) 0.6873(5) 0.4029(4)
C29_2 C 0.2984(2) 0.7970(5) 0.3684(4)
H21_2 H 0.2992 0.8527 0.3919
C30_2 C 0.2745(2) 0.8244(5) 0.3000(4)
H22_2 H 0.2591 0.8999 0.2772
C31_2 C 0.29266(19) 0.6430(5) 0.2992(4)
H23_2 H 0.2899 0.5878 0.2765
C32_2 C 0.3179(2) 0.6088(5) 0.3669(4)
H24_2 H 0.3328 0.5326 0.3887
C38_2 C 0.1788(2) 0.8020(5) 0.9516(4)
H26_2 H 0.1768 0.7446 0.9306
C39_2 C 0.1587(2) 0.9131(5) 0.9120(4)
C40_2 C 0.1622(2) 0.9932(5) 0.9464(4)
C42_2 C 0.1354(2) 0.9344(5) 0.8376(4)
H29_2 H 0.0444 0.9530 0.6503
C50_2 C 0.9055(2) 0.1464(6) 0.4876(4)
Ag9 Ag 0.61780(2) 0.52600(4) 0.78188(3)
Fe7 Fe 0.98531(3) 0.30275(7) 0.40855(5)
N35 N 0.94982(17) 0.3951(4) 0.2967(3)
N36_2 N 0.8804(2) 0.7093(5) 0.0505(4)
N38_2 N 0.85781(17) 0.5730(4) 0.0285(3)
N39_2 N 0.8490(2) 0.4647(5) 0.0388(4)
H7_2 H 0.8746 0.4143 0.0418
H8_2 H 0.8315 0.4404 0.0878
C53_2 C 0.9472(2) 0.5081(5) 0.2635(4)
H33_2 H 0.9613 0.5445 0.2894
C54_2 C 0.9249(2) 0.5739(5) 0.1930(4)
H34_2 H 0.9238 0.6539 0.1717
C55_2 C 0.9040(2) 0.5236(5) 0.1532(4)
C56_2 C 0.9068(2) 0.4053(6) 0.1881(4)
H35_2 H 0.8932 0.3665 0.1635
C57_2 C 0.9296(2) 0.3465(6) 0.2589(4)
H36_2 H 0.9311 0.2664 0.2821
C58_2 C 0.8808(2) 0.5990(6) 0.0787(4)
Fe1_2 Fe 0.73192(2) 0.80473(6) 0.65858(5)
N1_2 N 0.76842(17) 0.9257(4) 0.6068(3)
N2_2 N 0.68465(15) 0.9012(4) 0.7063(3)
N3_2 N 0.69581(15) 0.6799(4) 0.7104(3)
N4_2 N 0.77940(18) 0.7109(4) 0.6110(3)
N5_2 N 0.69941(14) 0.8565(4) 0.5526(3)
N6_2 N 0.6317(2) 0.8612(5) 0.3030(4)
N7_2 N 0.6084(2) 0.9069(5) 0.2328(4)
N37_2 N 0.8567(3) 0.7559(5) 0.9814(5)
N40_2 N 0.76496(16) 0.7547(4) 0.7625(3)
C1_2 C 0.7966(2) 0.9791(6) 0.5802(4)
C2_2 C 0.6566(2) 0.9549(5) 0.7352(4)
C3_2 C 0.67008(19) 0.6192(5) 0.7362(4)
C4 C 0.8092(2) 0.6639(6) 0.5811(4)
C5_2 C 0.69591(19) 0.7797(5) 0.5189(4)
H9_2 H 0.7087 0.7027 0.5457
C6_2 C 0.67462(19) 0.8078(5) 0.4474(4)
H10_2 H 0.6733 0.7511 0.4252
C7_2 C 0.65487(19) 0.9199(5) 0.4076(4)
C8_2 C 0.6585(2) 0.9996(5) 0.4420(4)
C9_2 C 0.6810(2) 0.9642(5) 0.5138(4)
C10_2 C 0.6323(2) 0.9425(5) 0.3319(4)
H13_2 H 0.5469 0.9590 0.1383
C59_2 C 0.8435(2) 0.6730(5) 0.9686(4)
C60_2 C 0.8162(2) 0.6940(5) 0.8996(4)
C61_2 C 0.7925(2) 0.8027(5) 0.8654(4)
H37_2 H 0.7935 0.8588 0.8884
C62_2 C 0.7675(2) 0.8301(5) 0.7982(4)
H38_2 H 0.7515 0.9051 0.7764
C63_2 C 0.7869(2) 0.6482(5) 0.7964(4)
H39_2 H 0.7846 0.5931 0.7734
C64_2 C 0.8127(2) 0.6155(5) 0.8633(4)
H40_2 H 0.8281 0.5397 0.8845
Ag10 Ag 0.86490(2) 0.57661(4) 0.53227(3)
N33_2 N 0.94675(18) 0.4198(5) 0.4646(3)
C51_2 C 0.9187(2) 0.4803(6) 0.4879(4)
loop_
_geom_bond_atom_site_label_1
_geom_bond_atom_site_label_2
_geom_bond_site_symmetry_1
_geom_bond_site_symmetry_2
Ag4 C51 1_555 1_555
N33 Fe10 1_555 1_555
C51 N33 1_555 1_555
N44 Fe10 1_555 1_555
N46 Fe10 1_555 1_555
C65 Ag4 1_555 1_555
Ag3 C3 1_555 1_555
Fe1 N1 1_555 1_555
N1 C1 1_555 1_555
N2 Fe1 1_555 1_555
N3 Fe1 1_555 1_555
N4 Fe1 1_555 1_555
N5 Fe1 1_555 1_555
N6 N7 1_555 1_555
N37 C59 1_555 1_555
N40 Fe1 1_555 1_555
C2 N2 1_555 1_555
C3 N3 1_555 1_555
C65 N4 1_555 1_555
C5 N5 1_555 1_555
H9 C5 1_555 1_555
C6 C5 1_555 1_555
H10 C6 1_555 1_555
C7 C6 1_555 1_555
C8 C7 1_555 1_555
C9 N5 1_555 1_555
C10 N6 1_555 1_555
C60 C59 1_555 1_555
C61 C60 1_555 1_555
H37 C61 1_555 1_555
C62 N40 1_555 1_555
H38 C62 1_555 1_555
C63 N40 1_555 1_555
H39 C63 1_555 1_555
C64 C60 1_555 1_555
H40 C64 1_555 1_555
C66 Ag3 1_555 1_555
C7 C10 1_555 1_555
C8 C9 1_555 1_555
C61 C62 1_555 1_555
C63 C64 1_555 1_555
N46 C53 1_555 1_555
N38 N39 1_555 1_555
N39 H7 1_555 1_555
H8 N39 1_555 1_555
C53 H33 1_555 1_555
C54 C53 1_555 1_555
H34 C54 1_555 1_555
C55 C54 1_555 1_555
C56 C55 1_555 1_555
H35 C56 1_555 1_555
C57 N46 1_555 1_555
H36 C57 1_555 1_555
C58 N36 1_555 1_555
N38 C58 1_555 1_555
C55 C58 1_555 1_555
C56 C57 1_555 1_555
Fe5 N11 1_555 1_555
N8 N9 1_555 1_555
N9 H1 1_555 1_555
H2 N9 1_555 1_555
N10 C14 1_555 1_555
N11 C17 1_555 1_555
N12 Fe5 1_555 1_555
N13 Fe5 1_555 1_555
N14 Fe5 1_555 1_555
N15 Fe5 1_555 1_555
N16 N17 1_555 1_555
N17 C27 1_555 1_555
N18 N19 1_555 1_555
N19 H3 1_555 1_555
H4 N19 1_555 1_555
N20 C30 1_555 1_555
N26 N27 1_555 1_555
N44 C50 1_555 1_555
C11 N8 1_555 1_555
C12 C11 1_555 1_555
C13 C12 1_555 1_555
C14 C13 1_555 1_555
H14 C14 1_555 1_555
C15 N10 1_555 1_555
H15 C15 1_555 1_555
C16 C12 1_555 1_555
H16 C16 1_555 1_555
C17 Ag2 1_555 1_555
C18 N12 1_555 1_555
C19 N13 1_555 1_555
C66 N14 1_555 1_555
C21 N15 1_555 1_555
H17 C21 1_555 1_555
C22 C21 1_555 1_555
H18 C22 1_555 1_555
C23 C22 1_555 1_555
C24 C23 1_555 1_555
H19 C24 1_555 1_555
C25 N15 1_555 1_555
H20 C25 1_555 1_555
C26 N16 1_555 1_555
C27 N18 1_555 1_555
C28 C27 1_555 1_555
C29 C28 1_555 1_555
H21 C29 1_555 1_555
C30 C29 1_555 1_555
H22 C30 1_555 1_555
C31 N20 1_555 1_555
H23 C31 1_555 1_555
C32 C28 1_555 1_555
H24 C32 1_555 1_555
H26 C38 1_555 1_555
C39 C38 1_555 1_555
C40 C39 1_555 1_555
C42 N26 1_555 1_555
C50 Ag1 1_555 1_555
Fe6 N20 1_555 1_555
N18 C26 1_555 1_555
C15 C16 1_555 1_555
C23 C26 1_555 1_555
C24 C25 1_555 1_555
C31 C32 1_555 1_555
C39 C42 1_555 1_555
Ag8 C35 1_555 1_555
Fe6 N21 1_555 1_555
N21 C67 1_555 1_555
N22 Fe6 1_555 1_555
N23 Fe6 1_555 1_555
N24 Fe6 1_555 1_555
N25 Fe6 1_555 1_555
N34 C52 1_555 1_555
C34 N22 1_555 1_555
C35 N23 1_555 1_555
C36 Ag6 1_555 1_555
C37 N25 1_555 1_555
H25 C37 1_555 1_555
C41 N25 1_555 1_555
C52 Ag8 1_555 1_555
N24 C36 1_555 1_555
N28 N29 1_555 1_555
N29 H5 1_555 1_555
H6 N29 1_555 1_555
N30 C46 1_555 1_555
C43 N28 1_555 1_555
C44 C43 1_555 1_555
C45 C44 1_555 1_555
C46 C45 1_555 1_555
H30 C46 1_555 1_555
C47 N30 1_555 1_555
H31 C47 1_555 1_555
C48 C44 1_555 1_555
H32 C48 1_555 1_555
C47 C48 1_555 1_555
N31 C49 1_555 1_555
C49 Ag7 1_555 1_555
N31_2 C49_2 1_555 1_555
C49_2 Ag7_2 1_555 1_555
N28_2 N29_2 1_555 1_555
N29_2 H5_2 1_555 1_555
H6_2 N29_2 1_555 1_555
N43 C46_2 1_555 1_555
C43_2 N28_2 1_555 1_555
C44_2 C43_2 1_555 1_555
C45_2 C44_2 1_555 1_555
C46_2 C45_2 1_555 1_555
H30_2 C46_2 1_555 1_555
C47_2 N43 1_555 1_555
H31_2 C47_2 1_555 1_555
C48_2 C44_2 1_555 1_555
H32_2 C48_2 1_555 1_555
C47_2 C48_2 1_555 1_555
Ag8_2 C35_2 1_555 1_555
Fe3 N21_2 1_555 1_555
N21_2 C33 1_555 1_555
N22_2 Fe3 1_555 1_555
N23_2 Fe3 1_555 1_555
N24_2 Fe3 1_555 1_555
N25_2 Fe3 1_555 1_555
N45 C52_2 1_555 1_555
C34_2 N22_2 1_555 1_555
C35_2 N23_2 1_555 1_555
C36_2 Ag6_2 1_555 1_555
C37_2 N25_2 1_555 1_555
H25_2 C37_2 1_555 1_555
C41_2 N25_2 1_555 1_555
C52_2 Ag8_2 1_555 1_555
N42 Fe3 1_555 1_555
N24_2 C36_2 1_555 1_555
Fe2 N11_2 1_555 1_555
N8_2 N9_2 1_555 1_555
N9_2 H1_2 1_555 1_555
H2_2 N9_2 1_555 1_555
N41 C14_2 1_555 1_555
N11_2 C17_2 1_555 1_555
N12_2 Fe2 1_555 1_555
N13_2 Fe2 1_555 1_555
N14_2 Fe2 1_555 1_555
N15_2 Fe2 1_555 1_555
N16_2 N17_2 1_555 1_555
N17_2 C27_2 1_555 1_555
N18_2 N19_2 1_555 1_555
N19_2 H3_2 1_555 1_555
H4_2 N19_2 1_555 1_555
N42 C30_2 1_555 1_555
N26_2 N27_2 1_555 1_555
N32 C50_2 1_555 1_555
C11_2 N8_2 1_555 1_555
C12_2 C11_2 1_555 1_555
C13_2 C12_2 1_555 1_555
C14_2 C13_2 1_555 1_555
H14_2 C14_2 1_555 1_555
C15_2 N41 1_555 1_555
H15_2 C15_2 1_555 1_555
C16_2 C12_2 1_555 1_555
H16_2 C16_2 1_555 1_555
C17_2 Ag2_2 1_555 1_555
C18_2 N12_2 1_555 1_555
C19_2 N13_2 1_555 1_555
C20 N14_2 1_555 1_555
C21_2 N15_2 1_555 1_555
H17_2 C21_2 1_555 1_555
C22_2 C21_2 1_555 1_555
H18_2 C22_2 1_555 1_555
C23_2 C22_2 1_555 1_555
C24_2 C23_2 1_555 1_555
H19_2 C24_2 1_555 1_555
C25_2 N15_2 1_555 1_555
H20_2 C25_2 1_555 1_555
C26_2 N16_2 1_555 1_555
C27_2 N18_2 1_555 1_555
C28_2 C27_2 1_555 1_555
C29_2 C28_2 1_555 1_555
H21_2 C29_2 1_555 1_555
C30_2 C29_2 1_555 1_555
H22_2 C30_2 1_555 1_555
C31_2 N42 1_555 1_555
H23_2 C31_2 1_555 1_555
C32_2 C28_2 1_555 1_555
H24_2 C32_2 1_555 1_555
H26_2 C38_2 1_555 1_555
C39_2 C38_2 1_555 1_555
C40_2 C39_2 1_555 1_555
C42_2 N26_2 1_555 1_555
C50_2 Ag1_2 1_555 1_555
Ag9 C20 1_555 1_555
Fe7 N32 1_555 1_555
N18_2 C26_2 1_555 1_555
C15_2 C16_2 1_555 1_555
C23_2 C26_2 1_555 1_555
C24_2 C25_2 1_555 1_555
C31_2 C32_2 1_555 1_555
C39_2 C42_2 1_555 1_555
N35 C53_2 1_555 1_555
N38_2 N39_2 1_555 1_555
N39_2 H7_2 1_555 1_555
H8_2 N39_2 1_555 1_555
C53_2 H33_2 1_555 1_555
C54_2 C53_2 1_555 1_555
H34_2 C54_2 1_555 1_555
C55_2 C54_2 1_555 1_555
C56_2 C55_2 1_555 1_555
H35_2 C56_2 1_555 1_555
C57_2 N35 1_555 1_555
H36_2 C57_2 1_555 1_555
C58_2 N36_2 1_555 1_555
Fe7 N35 1_555 1_555
N38_2 C58_2 1_555 1_555
C55_2 C58_2 1_555 1_555
C56_2 C57_2 1_555 1_555
Ag9 C3_2 1_555 1_555
Fe1_2 N1_2 1_555 1_555
N1_2 C1_2 1_555 1_555
N2_2 Fe1_2 1_555 1_555
N3_2 Fe1_2 1_555 1_555
N4_2 Fe1_2 1_555 1_555
N5_2 Fe1_2 1_555 1_555
N6_2 N7_2 1_555 1_555
N37_2 C59_2 1_555 1_555
N40_2 Fe1_2 1_555 1_555
C2_2 N2_2 1_555 1_555
C3_2 N3_2 1_555 1_555
C4 N4_2 1_555 1_555
C5_2 N5_2 1_555 1_555
H9_2 C5_2 1_555 1_555
C6_2 C5_2 1_555 1_555
H10_2 C6_2 1_555 1_555
C7_2 C6_2 1_555 1_555
C8_2 C7_2 1_555 1_555
C9_2 N5_2 1_555 1_555
C10_2 N6_2 1_555 1_555
C60_2 C59_2 1_555 1_555
C61_2 C60_2 1_555 1_555
H37_2 C61_2 1_555 1_555
C62_2 N40_2 1_555 1_555
H38_2 C62_2 1_555 1_555
C63_2 N40_2 1_555 1_555
H39_2 C63_2 1_555 1_555
C64_2 C60_2 1_555 1_555
H40_2 C64_2 1_555 1_555
Ag10 C4 1_555 1_555
C7_2 C10_2 1_555 1_555
C8_2 C9_2 1_555 1_555
C61_2 C62_2 1_555 1_555
C63_2 C64_2 1_555 1_555
Ag10 C51_2 1_555 1_555
N33_2 Fe7 1_555 1_555
C51_2 N33_2 1_555 1_555

#END
