
###############################################################################
#
# This file contains modified crystal structure data generated from the
# MOF subset of the Cambridge Structural Database (CSD) v543 
# hosted by the Cambridge Crystallographic Data Centre (CCDC).
#
# This work is licensed under the Creative Commons
# Attribution-NonCommercial-ShareAlike 4.0 International License.
# To view a copy of this license, visit
# http://creativecommons.org/licenses/by-nc-sa/4.0/
# or send a letter to
# Creative Commons, PO Box 1866, Mountain View, CA 94042, USA.
#
# CIF created using the CSD Python API on 29 September 2022
# The structure has been converted into the P1 space group
# The structure has a 3D framework
# The original CSD entry HERNEA02 is in the monoclinic crystal system
# The framework has been calculated to contain at least 10.0% void space
# The void calculation uses a probe of radius 1.32A, grid spacing 0.4
#
###############################################################################

data_HERNEA02
_chemical_formula_moiety         '(C60 H40 Ag8 Fe4 N40)n'
_symmetry_cell_setting           triclinic
_symmetry_space_group_name_H-M   'P 1'
_symmetry_Int_Tables_number      1
_space_group_name_Hall           'P 1'
loop_
_symmetry_equiv_pos_site_id
_symmetry_equiv_pos_as_xyz
1 x,y,z
_cell_length_a                   10.4848(3)
_cell_length_b                   29.6953(10)
_cell_length_c                   10.6028(3)
_cell_angle_alpha                90
_cell_angle_beta                 102.4380(10)
_cell_angle_gamma                90
_cell_volume                     3223.69
loop_
_atom_site_label
_atom_site_type_symbol
_atom_site_fract_x
_atom_site_fract_y
_atom_site_fract_z
N11 N 0.1961(3) 0.02043(9) 0.7539(3)
Ag1 Ag 0.20984(3) 0.94966(2) 0.26166(3)
C15 C 0.2165(4) 0.94939(12) 0.0701(4)
C17 C 0.2186(4) 0.94632(12) 0.4561(4)
Ag2 Ag 0.73507(3) 0.94766(2) 0.78309(3)
Fe1 Fe 0.23031(4) 0.94679(2) 0.76650(4)
N1 N 0.2675(3) 0.87385(9) 0.7752(3)
N2 N 0.4713(3) 0.72154(10) 0.8883(4)
N3 N 0.4770(3) 0.67526(10) 0.8830(4)
N4 N 0.3028(3) 0.69757(9) 0.7436(3)
N5 N 0.1833(3) 0.69911(10) 0.6513(4)
H1 H 0.1945 0.6882 0.5730
H2 H 0.1218 0.6823 0.6808
N6 N 0.3039(3) 0.52043(9) 0.7461(3)
N7 N 0.2254(3) 0.94529(9) 0.5643(3)
N8 N 0.0215(3) 0.93776(10) 0.7301(3)
N9 N 0.2273(3) 0.94867(10) 0.9656(3)
N10 N 0.4379(3) 0.95682(10) 0.8053(3)
C1 C 0.3529(4) 0.85670(12) 0.8756(4)
H3 H 0.3939 0.8764 0.9428
C2 C 0.3840(4) 0.81134(12) 0.8855(4)
H4 H 0.4452 0.8005 0.9585
C3 C 0.3262(4) 0.78197(11) 0.7895(4)
C4 C 0.2370(4) 0.79978(12) 0.6844(4)
H5 H 0.1948 0.7809 0.6156
C5 C 0.2115(4) 0.84536(12) 0.6827(4)
H6 H 0.1503 0.8572 0.6111
C6 C 0.3658(4) 0.73432(12) 0.8052(4)
C7 C 0.3758(4) 0.66128(11) 0.7969(4)
C8 C 0.3475(3) 0.61325(11) 0.7723(3)
C9 C 0.3967(4) 0.58382(12) 0.8718(4)
H7 H 0.4461 0.5949 0.9515
C10 C 0.3737(4) 0.53822(11) 0.8545(4)
H8 H 0.4095 0.5185 0.9236
C11 C 0.2577(4) 0.54900(12) 0.6502(3)
H9 H 0.2080 0.5370 0.5718
C12 C 0.2776(4) 0.59489(12) 0.6574(4)
H10 H 0.2441 0.6136 0.5852
C16 C 0.5462(4) 0.95402(13) 0.8055(4)
Fe2 Fe 0.26969(4) 0.44679(2) 0.73350(4)
C18 C 0.9174(4) 0.94055(13) 0.7453(4)
C13 C 0.2814(4) 0.44632(12) 0.0439(4)
Ag3 Ag 0.29016(3) 0.44966(2) 0.23834(3)
N1_2 N 0.2325(3) 0.37385(9) 0.7248(3)
N2_2 N 0.0287(3) 0.22154(10) 0.6117(4)
N3_2 N 0.0230(3) 0.17526(10) 0.6170(4)
N4_2 N 0.1972(3) 0.19757(9) 0.7564(3)
N5_2 N 0.3167(3) 0.19911(10) 0.8487(4)
H1_2 H 0.3055 0.1882 0.9270
H2_2 H 0.3782 0.1823 0.8192
N7_2 N 0.2746(3) 0.44529(9) 0.9357(3)
N8_2 N 0.4785(3) 0.43776(10) 0.7699(3)
N9_2 N 0.2727(3) 0.44867(10) 0.5344(3)
N10_2 N 0.0621(3) 0.45682(10) 0.6947(3)
C1_2 C 0.1471(4) 0.35670(12) 0.6244(4)
H3_2 H 0.1061 0.3764 0.5572
C2_2 C 0.1160(4) 0.31134(12) 0.6145(4)
H4_2 H 0.0548 0.3005 0.5415
C3_2 C 0.1738(4) 0.28197(11) 0.7105(4)
C4_2 C 0.2630(4) 0.29978(12) 0.8156(4)
H5_2 H 0.3052 0.2809 0.8844
C5_2 C 0.2885(4) 0.34536(12) 0.8173(4)
H6_2 H 0.3497 0.3572 0.8889
C6_2 C 0.1342(4) 0.23432(12) 0.6948(4)
C7_2 C 0.1242(4) 0.16128(11) 0.7031(4)
C8_2 C 0.1525(3) 0.11325(11) 0.7277(3)
C9_2 C 0.1033(4) 0.08382(12) 0.6282(4)
H7_2 H 0.0539 0.0949 0.5485
C10_2 C 0.1263(4) 0.03822(11) 0.6455(4)
H8_2 H 0.0905 0.0185 0.5764
C11_2 C 0.2423(4) 0.04900(12) 0.8498(3)
H9_2 H 0.2920 0.0370 0.9282
C12_2 C 0.2224(4) 0.09489(12) 0.8426(4)
H10_2 H 0.2559 0.1136 0.9148
C14 C 0.5826(4) 0.44055(13) 0.7547(4)
C15_2 C 0.2835(4) 0.44939(12) 0.4299(4)
Ag4 Ag 0.76493(3) 0.44766(2) 0.71691(3)
C16_2 C 0.9538(4) 0.45402(13) 0.6945(4)
C14_2 C 0.0826(4) 0.05945(13) 0.2547(4)
Ag4_2 Ag 0.26493(3) 0.05234(2) 0.21691(3)
Fe1_2 Fe 0.76969(4) 0.05321(2) 0.23350(4)
N1_3 N 0.7325(3) 0.12615(9) 0.2248(3)
N2_3 N 0.5287(3) 0.27846(10) 0.1117(4)
N3_3 N 0.5230(3) 0.32474(10) 0.1170(4)
N4_3 N 0.6972(3) 0.30243(9) 0.2564(3)
N5_3 N 0.8167(3) 0.30089(10) 0.3487(4)
H1_3 H 0.8055 0.3118 0.4270
H2_3 H 0.8782 0.3177 0.3192
N6_2 N 0.6961(3) 0.47957(9) 0.2539(3)
N7_3 N 0.7746(3) 0.05471(9) 0.4357(3)
N8_3 N 0.9785(3) 0.06224(10) 0.2699(3)
N9_3 N 0.7727(3) 0.05133(10) 0.0344(3)
N10_3 N 0.5621(3) 0.04318(10) 0.1947(3)
C1_3 C 0.6471(4) 0.14330(12) 0.1244(4)
H3_3 H 0.6061 0.1236 0.0572
C2_3 C 0.6160(4) 0.18866(12) 0.1145(4)
H4_3 H 0.5548 0.1995 0.0415
C3_3 C 0.6738(4) 0.21803(11) 0.2105(4)
C4_3 C 0.7630(4) 0.20022(12) 0.3156(4)
H5_3 H 0.8052 0.2191 0.3844
C5_3 C 0.7885(4) 0.15464(12) 0.3173(4)
H6_3 H 0.8497 0.1428 0.3889
C6_3 C 0.6342(4) 0.26568(12) 0.1948(4)
C7_3 C 0.6242(4) 0.33872(11) 0.2031(4)
C8_3 C 0.6525(3) 0.38675(11) 0.2277(3)
C9_3 C 0.6033(4) 0.41618(12) 0.1282(4)
H7_3 H 0.5539 0.4051 0.0485
C10_3 C 0.6263(4) 0.46178(11) 0.1455(4)
H8_3 H 0.5905 0.4815 0.0764
C11_3 C 0.7423(4) 0.45100(12) 0.3498(3)
H9_3 H 0.7920 0.4630 0.4282
C12_3 C 0.7224(4) 0.40511(12) 0.3426(4)
H10_3 H 0.7559 0.3864 0.4148
C13_2 C 0.7814(4) 0.05368(12) 0.5439(4)
C16_3 C 0.4538(4) 0.04598(13) 0.1945(4)
Ag3_2 Ag 0.79016(3) 0.05034(2) 0.73834(3)
Fe2_2 Fe 0.73031(4) 0.55321(2) 0.26650(4)
C15_3 C 0.7835(4) 0.05061(12) 0.9299(4)
N11_2 N 0.8039(3) 0.97957(9) 0.2461(3)
Ag2_2 Ag 0.23507(3) 0.55234(2) 0.28309(3)
C16_4 C 0.0462(4) 0.54598(13) 0.3055(4)
C18_2 C 0.4174(4) 0.55945(13) 0.2453(4)
Ag1_2 Ag 0.70984(3) 0.55034(2) 0.76166(3)
N1_4 N 0.7675(3) 0.62615(9) 0.2752(3)
N2_4 N 0.9713(3) 0.77846(10) 0.3883(4)
N3_4 N 0.9770(3) 0.82474(10) 0.3830(4)
N4_4 N 0.8028(3) 0.80243(9) 0.2436(3)
N5_4 N 0.6833(3) 0.80089(10) 0.1513(4)
H1_4 H 0.6945 0.8118 0.0730
H2_4 H 0.6218 0.8177 0.1808
N7_4 N 0.7254(3) 0.55471(9) 0.0643(3)
N8_4 N 0.5215(3) 0.56224(10) 0.2301(3)
N9_4 N 0.7273(3) 0.55133(10) 0.4656(3)
N10_4 N 0.9379(3) 0.54318(10) 0.3053(3)
C1_4 C 0.8529(4) 0.64330(12) 0.3756(4)
H3_4 H 0.8939 0.6236 0.4428
C2_4 C 0.8840(4) 0.68866(12) 0.3855(4)
H4_4 H 0.9452 0.6995 0.4585
C3_4 C 0.8262(4) 0.71803(11) 0.2895(4)
C4_4 C 0.7370(4) 0.70022(12) 0.1844(4)
H5_4 H 0.6948 0.7191 0.1156
C5_4 C 0.7115(4) 0.65464(12) 0.1827(4)
H6_4 H 0.6503 0.6428 0.1111
C6_4 C 0.8658(4) 0.76568(12) 0.3052(4)
C7_4 C 0.8758(4) 0.83872(11) 0.2969(4)
C8_4 C 0.8475(3) 0.88675(11) 0.2723(3)
C9_4 C 0.8967(4) 0.91618(12) 0.3718(4)
H7_4 H 0.9461 0.9051 0.4515
C10_4 C 0.8737(4) 0.96178(11) 0.3545(4)
H8_4 H 0.9095 0.9815 0.4236
C11_4 C 0.7577(4) 0.95100(12) 0.1502(3)
H9_4 H 0.7080 0.9630 0.0718
C12_4 C 0.7776(4) 0.90511(12) 0.1574(4)
H10_4 H 0.7441 0.8864 0.0852
C15_4 C 0.7165(4) 0.55061(12) 0.5701(4)
C17_2 C 0.7186(4) 0.55368(12) 0.9561(4)
loop_
_geom_bond_atom_site_label_1
_geom_bond_atom_site_label_2
_geom_bond_site_symmetry_1
_geom_bond_site_symmetry_2
Ag1 C15 1_555 1_555
C17 Ag1 1_555 1_555
Ag2 C16 1_555 1_555
Fe1 N1 1_555 1_555
N1 C1 1_555 1_555
N2 N3 1_555 1_555
N3 C7 1_555 1_555
N4 N5 1_555 1_555
N5 H1 1_555 1_555
H2 N5 1_555 1_555
N6 C10 1_555 1_555
N7 Fe1 1_555 1_555
N8 Fe1 1_555 1_555
N9 Fe1 1_555 1_555
N10 Fe1 1_555 1_555
C1 H3 1_555 1_555
C2 C1 1_555 1_555
H4 C2 1_555 1_555
C3 C2 1_555 1_555
C4 C3 1_555 1_555
H5 C4 1_555 1_555
C5 N1 1_555 1_555
H6 C5 1_555 1_555
C6 N2 1_555 1_555
C7 N4 1_555 1_555
C8 C7 1_555 1_555
C9 C8 1_555 1_555
H7 C9 1_555 1_555
C10 C9 1_555 1_555
H8 C10 1_555 1_555
C11 N6 1_555 1_555
H9 C11 1_555 1_555
C12 C8 1_555 1_555
H10 C12 1_555 1_555
C17 N7 1_555 1_555
C16 N10 1_555 1_555
Fe2 N6 1_555 1_555
C18 Ag2 1_555 1_555
N4 C6 1_555 1_555
C3 C6 1_555 1_555
C4 C5 1_555 1_555
C11 C12 1_555 1_555
Ag3 C13 1_555 1_555
Ag3 C15_2 1_555 1_555
Fe2 N1_2 1_555 1_555
N1_2 C1_2 1_555 1_555
N2_2 N3_2 1_555 1_555
N3_2 C7_2 1_555 1_555
N4_2 N5_2 1_555 1_555
N5_2 H1_2 1_555 1_555
H2_2 N5_2 1_555 1_555
N11 C10_2 1_555 1_555
N7_2 Fe2 1_555 1_555
N8_2 Fe2 1_555 1_555
N9_2 Fe2 1_555 1_555
N10_2 Fe2 1_555 1_555
C1_2 H3_2 1_555 1_555
C2_2 C1_2 1_555 1_555
H4_2 C2_2 1_555 1_555
C3_2 C2_2 1_555 1_555
C4_2 C3_2 1_555 1_555
H5_2 C4_2 1_555 1_555
C5_2 N1_2 1_555 1_555
H6_2 C5_2 1_555 1_555
C6_2 N2_2 1_555 1_555
C7_2 N4_2 1_555 1_555
C8_2 C7_2 1_555 1_555
C9_2 C8_2 1_555 1_555
H7_2 C9_2 1_555 1_555
C10_2 C9_2 1_555 1_555
H8_2 C10_2 1_555 1_555
C11_2 N11 1_555 1_555
H9_2 C11_2 1_555 1_555
C12_2 C8_2 1_555 1_555
H10_2 C12_2 1_555 1_555
C14 N8_2 1_555 1_555
C15_2 N9_2 1_555 1_555
Ag4 C14 1_555 1_555
N4_2 C6_2 1_555 1_555
C3_2 C6_2 1_555 1_555
C4_2 C5_2 1_555 1_555
C11_2 C12_2 1_555 1_555
Ag4 C16_2 1_555 1_555
Ag4_2 C14_2 1_555 1_555
Ag4_2 C16_3 1_555 1_555
Fe1_2 N1_3 1_555 1_555
N1_3 C1_3 1_555 1_555
N2_3 N3_3 1_555 1_555
N3_3 C7_3 1_555 1_555
N4_3 N5_3 1_555 1_555
N5_3 H1_3 1_555 1_555
H2_3 N5_3 1_555 1_555
N6_2 C10_3 1_555 1_555
N7_3 Fe1_2 1_555 1_555
N8_3 Fe1_2 1_555 1_555
N9_3 Fe1_2 1_555 1_555
N10_3 Fe1_2 1_555 1_555
C1_3 H3_3 1_555 1_555
C2_3 C1_3 1_555 1_555
H4_3 C2_3 1_555 1_555
C3_3 C2_3 1_555 1_555
C4_3 C3_3 1_555 1_555
H5_3 C4_3 1_555 1_555
C5_3 N1_3 1_555 1_555
H6_3 C5_3 1_555 1_555
C6_3 N2_3 1_555 1_555
C7_3 N4_3 1_555 1_555
C8_3 C7_3 1_555 1_555
C9_3 C8_3 1_555 1_555
H7_3 C9_3 1_555 1_555
C10_3 C9_3 1_555 1_555
H8_3 C10_3 1_555 1_555
C11_3 N6_2 1_555 1_555
H9_3 C11_3 1_555 1_555
C12_3 C8_3 1_555 1_555
H10_3 C12_3 1_555 1_555
C13_2 N7_3 1_555 1_555
C16_3 N10_3 1_555 1_555
Ag3_2 C13_2 1_555 1_555
Fe2_2 N6_2 1_555 1_555
N4_3 C6_3 1_555 1_555
C3_3 C6_3 1_555 1_555
C4_3 C5_3 1_555 1_555
C11_3 C12_3 1_555 1_555
Ag3_2 C15_3 1_555 1_555
Ag2_2 C16_4 1_555 1_555
C18_2 Ag2_2 1_555 1_555
Ag1_2 C15_4 1_555 1_555
Fe2_2 N1_4 1_555 1_555
N1_4 C1_4 1_555 1_555
N2_4 N3_4 1_555 1_555
N3_4 C7_4 1_555 1_555
N4_4 N5_4 1_555 1_555
N5_4 H1_4 1_555 1_555
H2_4 N5_4 1_555 1_555
N11_2 C10_4 1_555 1_555
N7_4 Fe2_2 1_555 1_555
N8_4 Fe2_2 1_555 1_555
N9_4 Fe2_2 1_555 1_555
N10_4 Fe2_2 1_555 1_555
C1_4 H3_4 1_555 1_555
C2_4 C1_4 1_555 1_555
H4_4 C2_4 1_555 1_555
C3_4 C2_4 1_555 1_555
C4_4 C3_4 1_555 1_555
H5_4 C4_4 1_555 1_555
C5_4 N1_4 1_555 1_555
H6_4 C5_4 1_555 1_555
C6_4 N2_4 1_555 1_555
C7_4 N4_4 1_555 1_555
C8_4 C7_4 1_555 1_555
C9_4 C8_4 1_555 1_555
H7_4 C9_4 1_555 1_555
C10_4 C9_4 1_555 1_555
H8_4 C10_4 1_555 1_555
C11_4 N11_2 1_555 1_555
H9_4 C11_4 1_555 1_555
C12_4 C8_4 1_555 1_555
H10_4 C12_4 1_555 1_555
C18_2 N8_4 1_555 1_555
C15_4 N9_4 1_555 1_555
C17_2 Ag1_2 1_555 1_555
N4_4 C6_4 1_555 1_555
C3_4 C6_4 1_555 1_555
C4_4 C5_4 1_555 1_555
C11_4 C12_4 1_555 1_555

#END
