
###############################################################################
#
# This file contains modified crystal structure data generated from the
# MOF subset of the Cambridge Structural Database (CSD) v543 
# hosted by the Cambridge Crystallographic Data Centre (CCDC).
#
# This work is licensed under the Creative Commons
# Attribution-NonCommercial-ShareAlike 4.0 International License.
# To view a copy of this license, visit
# http://creativecommons.org/licenses/by-nc-sa/4.0/
# or send a letter to
# Creative Commons, PO Box 1866, Mountain View, CA 94042, USA.
#
# CIF created using the CSD Python API on 29 September 2022
# The structure has been converted into the P1 space group
# The structure has a 3D framework
# The original CSD entry HERNEA is in the monoclinic crystal system
# The framework has been calculated to contain at least 10.0% void space
# The void calculation uses a probe of radius 1.32A, grid spacing 0.4
#
###############################################################################

data_HERNEA
_chemical_formula_moiety         '(C60 H40 Ag8 Fe4 N40)n'
_symmetry_cell_setting           triclinic
_symmetry_space_group_name_H-M   'P 1'
_symmetry_Int_Tables_number      1
_space_group_name_Hall           'P 1'
loop_
_symmetry_equiv_pos_site_id
_symmetry_equiv_pos_as_xyz
1 x,y,z
_cell_length_a                   10.2257(3)
_cell_length_b                   29.0751(9)
_cell_length_c                   10.2700(3)
_cell_angle_alpha                90
_cell_angle_beta                 99.5240(10)
_cell_angle_gamma                90
_cell_volume                     3011.32
loop_
_atom_site_label
_atom_site_type_symbol
_atom_site_fract_x
_atom_site_fract_y
_atom_site_fract_z
N11 N 0.2012(3) 0.01540(10) 0.7644(3)
Ag1 Ag 0.21573(3) 0.95026(2) 0.27089(3)
C15 C 0.2206(4) 0.94950(13) 0.0716(4)
C17 C 0.2232(4) 0.94751(13) 0.4720(4)
Ag2 Ag 0.73185(3) 0.94810(2) 0.78787(3)
Fe1 Fe 0.22859(4) 0.94724(2) 0.77326(4)
N1 N 0.2574(3) 0.87900(10) 0.7793(3)
N2 N 0.4593(4) 0.72179(11) 0.8760(4)
N3 N 0.4659(4) 0.67465(11) 0.8683(4)
N4 N 0.2860(3) 0.69761(10) 0.7364(3)
N5 N 0.1651(3) 0.69947(11) 0.6477(4)
H1 H 0.1800 0.6912 0.5670
H2 H 0.1047 0.6808 0.6746
N6 N 0.2988(3) 0.51540(10) 0.7356(3)
N7 N 0.2254(3) 0.94642(10) 0.5838(3)
N8 N 0.0369(3) 0.94003(10) 0.7524(3)
N9 N 0.2289(3) 0.94873(10) 0.9613(3)
N10 N 0.4204(3) 0.95500(10) 0.7979(3)
C1 C 0.3460(3) 0.86015(12) 0.8769(3)
H3 H 0.3902 0.8797 0.9444
C2 C 0.3752(4) 0.81375(12) 0.8828(4)
H4 H 0.4387 0.8020 0.9530
C3 C 0.3114(4) 0.78400(12) 0.7853(4)
C4 C 0.2193(4) 0.80314(12) 0.6842(4)
H5 H 0.1736 0.7843 0.6157
C5 C 0.1956(3) 0.85036(12) 0.6856(3)
H6 H 0.1323 0.8630 0.6167
C6 C 0.3510(4) 0.73514(13) 0.7972(4)
C7 C 0.3615(4) 0.66048(12) 0.7850(4)
C8 C 0.3351(3) 0.61124(12) 0.7596(4)
C9 C 0.4020(4) 0.58096(12) 0.8529(4)
H7 H 0.4604 0.5925 0.9273
C10 C 0.3829(3) 0.53394(12) 0.8363(4)
H8 H 0.4317 0.5139 0.8993
C11 C 0.2352(4) 0.54465(12) 0.6448(3)
H9 H 0.1760 0.5322 0.5724
C12 C 0.2516(4) 0.59217(13) 0.6512(4)
H10 H 0.2069 0.6113 0.5831
C16 C 0.5334(4) 0.95431(13) 0.8033(4)
Fe2 Fe 0.27141(4) 0.44724(2) 0.72674(4)
C18 C 0.9256(4) 0.94071(13) 0.7584(4)
C13 C 0.2768(4) 0.44751(13) 0.0280(4)
Ag3 Ag 0.28427(3) 0.45026(2) 0.22911(3)
N1_2 N 0.2426(3) 0.37900(10) 0.7207(3)
N2_2 N 0.0407(4) 0.22179(11) 0.6240(4)
N3_2 N 0.0341(4) 0.17465(11) 0.6317(4)
N4_2 N 0.2140(3) 0.19761(10) 0.7636(3)
N5_2 N 0.3349(3) 0.19947(11) 0.8523(4)
H1_2 H 0.3200 0.1912 0.9330
H2_2 H 0.3953 0.1808 0.8254
N7_2 N 0.2746(3) 0.44642(10) 0.9162(3)
N8_2 N 0.4631(3) 0.44003(10) 0.7476(3)
N9_2 N 0.2711(3) 0.44873(10) 0.5387(3)
N10_2 N 0.0796(3) 0.45500(10) 0.7021(3)
C1_2 C 0.1540(3) 0.36015(12) 0.6231(3)
H3_2 H 0.1098 0.3797 0.5556
C2_2 C 0.1248(4) 0.31375(12) 0.6172(4)
H4_2 H 0.0613 0.3020 0.5470
C3_2 C 0.1886(4) 0.28400(12) 0.7147(4)
C4_2 C 0.2807(4) 0.30314(12) 0.8158(4)
H5_2 H 0.3264 0.2843 0.8843
C5_2 C 0.3044(3) 0.35036(12) 0.8144(3)
H6_2 H 0.3677 0.3630 0.8833
C6_2 C 0.1490(4) 0.23514(13) 0.7028(4)
C7_2 C 0.1385(4) 0.16048(12) 0.7150(4)
C8_2 C 0.1649(3) 0.11124(12) 0.7404(4)
C9_2 C 0.0980(4) 0.08096(12) 0.6471(4)
H7_2 H 0.0396 0.0925 0.5727
C10_2 C 0.1171(3) 0.03394(12) 0.6637(4)
H8_2 H 0.0683 0.0139 0.6007
C11_2 C 0.2648(4) 0.04465(12) 0.8552(3)
H9_2 H 0.3240 0.0322 0.9276
C12_2 C 0.2484(4) 0.09217(13) 0.8488(4)
H10_2 H 0.2931 0.1113 0.9169
C14 C 0.5744(4) 0.44071(13) 0.7416(4)
C15_2 C 0.2794(4) 0.44950(13) 0.4284(4)
Ag4 Ag 0.76815(3) 0.44810(2) 0.71213(3)
C16_2 C 0.9666(4) 0.45431(13) 0.6967(4)
C14_2 C 0.0744(4) 0.05929(13) 0.2416(4)
Ag4_2 Ag 0.26815(3) 0.05190(2) 0.21213(3)
Fe1_2 Fe 0.77141(4) 0.05276(2) 0.22674(4)
N1_3 N 0.7426(3) 0.12100(10) 0.2207(3)
N2_3 N 0.5407(4) 0.27821(11) 0.1240(4)
N3_3 N 0.5341(4) 0.32535(11) 0.1317(4)
N4_3 N 0.7140(3) 0.30239(10) 0.2636(3)
N5_3 N 0.8349(3) 0.30053(11) 0.3523(4)
H1_3 H 0.8200 0.3088 0.4330
H2_3 H 0.8953 0.3192 0.3254
N6_2 N 0.7012(3) 0.48460(10) 0.2644(3)
N7_3 N 0.7746(3) 0.05358(10) 0.4162(3)
N8_3 N 0.9631(3) 0.05997(10) 0.2476(3)
N9_3 N 0.7711(3) 0.05127(10) 0.0387(3)
N10_3 N 0.5796(3) 0.04500(10) 0.2021(3)
C1_3 C 0.6540(3) 0.13985(12) 0.1231(3)
H3_3 H 0.6098 0.1203 0.0556
C2_3 C 0.6248(4) 0.18625(12) 0.1172(4)
H4_3 H 0.5613 0.1980 0.0470
C3_3 C 0.6886(4) 0.21600(12) 0.2147(4)
C4_3 C 0.7807(4) 0.19686(12) 0.3158(4)
H5_3 H 0.8264 0.2157 0.3843
C5_3 C 0.8044(3) 0.14964(12) 0.3144(3)
H6_3 H 0.8677 0.1370 0.3833
C6_3 C 0.6490(4) 0.26486(13) 0.2028(4)
C7_3 C 0.6385(4) 0.33952(12) 0.2150(4)
C8_3 C 0.6649(3) 0.38876(12) 0.2404(4)
C9_3 C 0.5980(4) 0.41904(12) 0.1471(4)
H7_3 H 0.5396 0.4075 0.0727
C10_3 C 0.6171(3) 0.46606(12) 0.1637(4)
H8_3 H 0.5683 0.4861 0.1007
C11_3 C 0.7648(4) 0.45535(12) 0.3552(3)
H9_3 H 0.8240 0.4678 0.4276
C12_3 C 0.7484(4) 0.40783(13) 0.3488(4)
H10_3 H 0.7931 0.3887 0.4169
C13_2 C 0.7768(4) 0.05249(13) 0.5280(4)
C16_3 C 0.4666(4) 0.04569(13) 0.1967(4)
Ag3_2 Ag 0.78427(3) 0.04974(2) 0.72911(3)
Fe2_2 Fe 0.72859(4) 0.55276(2) 0.27326(4)
C15_3 C 0.7794(4) 0.05050(13) 0.9284(4)
N11_2 N 0.7988(3) 0.98460(10) 0.2356(3)
Ag2_2 Ag 0.23185(3) 0.55190(2) 0.28787(3)
C16_4 C 0.0334(4) 0.54569(13) 0.3033(4)
C18_2 C 0.4256(4) 0.55929(13) 0.2584(4)
Ag1_2 Ag 0.71573(3) 0.54974(2) 0.77089(3)
N1_4 N 0.7574(3) 0.62100(10) 0.2793(3)
N2_4 N 0.9593(4) 0.77821(11) 0.3760(4)
N3_4 N 0.9659(4) 0.82535(11) 0.3683(4)
N4_4 N 0.7860(3) 0.80239(10) 0.2364(3)
N5_4 N 0.6651(3) 0.80053(11) 0.1477(4)
H1_4 H 0.6800 0.8088 0.0670
H2_4 H 0.6047 0.8192 0.1746
N7_4 N 0.7254(3) 0.55358(10) 0.0838(3)
N8_4 N 0.5369(3) 0.55997(10) 0.2524(3)
N9_4 N 0.7289(3) 0.55127(10) 0.4613(3)
N10_4 N 0.9204(3) 0.54500(10) 0.2979(3)
C1_4 C 0.8460(3) 0.63985(12) 0.3769(3)
H3_4 H 0.8902 0.6203 0.4444
C2_4 C 0.8752(4) 0.68625(12) 0.3828(4)
H4_4 H 0.9387 0.6980 0.4530
C3_4 C 0.8114(4) 0.71600(12) 0.2853(4)
C4_4 C 0.7193(4) 0.69686(12) 0.1842(4)
H5_4 H 0.6736 0.7157 0.1157
C5_4 C 0.6956(3) 0.64964(12) 0.1856(3)
H6_4 H 0.6323 0.6370 0.1167
C6_4 C 0.8510(4) 0.76486(13) 0.2972(4)
C7_4 C 0.8615(4) 0.83952(12) 0.2850(4)
C8_4 C 0.8351(3) 0.88876(12) 0.2596(4)
C9_4 C 0.9020(4) 0.91904(12) 0.3529(4)
H7_4 H 0.9604 0.9075 0.4273
C10_4 C 0.8829(3) 0.96606(12) 0.3363(4)
H8_4 H 0.9317 0.9861 0.3993
C11_4 C 0.7352(4) 0.95535(12) 0.1448(3)
H9_4 H 0.6760 0.9678 0.0724
C12_4 C 0.7516(4) 0.90783(13) 0.1512(4)
H10_4 H 0.7069 0.8887 0.0831
C15_4 C 0.7206(4) 0.55050(13) 0.5716(4)
C17_2 C 0.7232(4) 0.55249(13) 0.9720(4)
loop_
_geom_bond_atom_site_label_1
_geom_bond_atom_site_label_2
_geom_bond_site_symmetry_1
_geom_bond_site_symmetry_2
Ag1 C15 1_555 1_555
C17 Ag1 1_555 1_555
Ag2 C16 1_555 1_555
Fe1 N1 1_555 1_555
N1 C1 1_555 1_555
N2 N3 1_555 1_555
N3 C7 1_555 1_555
N4 N5 1_555 1_555
N5 H1 1_555 1_555
H2 N5 1_555 1_555
N6 C10 1_555 1_555
N7 Fe1 1_555 1_555
N8 Fe1 1_555 1_555
N9 Fe1 1_555 1_555
N10 Fe1 1_555 1_555
C1 H3 1_555 1_555
C2 C1 1_555 1_555
H4 C2 1_555 1_555
C3 C2 1_555 1_555
C4 C3 1_555 1_555
H5 C4 1_555 1_555
C5 N1 1_555 1_555
H6 C5 1_555 1_555
C6 N2 1_555 1_555
C7 N4 1_555 1_555
C8 C7 1_555 1_555
C9 C8 1_555 1_555
H7 C9 1_555 1_555
C10 C9 1_555 1_555
H8 C10 1_555 1_555
C11 N6 1_555 1_555
H9 C11 1_555 1_555
C12 C8 1_555 1_555
H10 C12 1_555 1_555
C17 N7 1_555 1_555
C16 N10 1_555 1_555
Fe2 N6 1_555 1_555
C18 Ag2 1_555 1_555
N4 C6 1_555 1_555
C3 C6 1_555 1_555
C4 C5 1_555 1_555
C11 C12 1_555 1_555
Ag3 C13 1_555 1_555
Ag3 C15_2 1_555 1_555
Fe2 N1_2 1_555 1_555
N1_2 C1_2 1_555 1_555
N2_2 N3_2 1_555 1_555
N3_2 C7_2 1_555 1_555
N4_2 N5_2 1_555 1_555
N5_2 H1_2 1_555 1_555
H2_2 N5_2 1_555 1_555
N11 C10_2 1_555 1_555
N7_2 Fe2 1_555 1_555
N8_2 Fe2 1_555 1_555
N9_2 Fe2 1_555 1_555
N10_2 Fe2 1_555 1_555
C1_2 H3_2 1_555 1_555
C2_2 C1_2 1_555 1_555
H4_2 C2_2 1_555 1_555
C3_2 C2_2 1_555 1_555
C4_2 C3_2 1_555 1_555
H5_2 C4_2 1_555 1_555
C5_2 N1_2 1_555 1_555
H6_2 C5_2 1_555 1_555
C6_2 N2_2 1_555 1_555
C7_2 N4_2 1_555 1_555
C8_2 C7_2 1_555 1_555
C9_2 C8_2 1_555 1_555
H7_2 C9_2 1_555 1_555
C10_2 C9_2 1_555 1_555
H8_2 C10_2 1_555 1_555
C11_2 N11 1_555 1_555
H9_2 C11_2 1_555 1_555
C12_2 C8_2 1_555 1_555
H10_2 C12_2 1_555 1_555
C14 N8_2 1_555 1_555
C15_2 N9_2 1_555 1_555
Ag4 C14 1_555 1_555
N4_2 C6_2 1_555 1_555
C3_2 C6_2 1_555 1_555
C4_2 C5_2 1_555 1_555
C11_2 C12_2 1_555 1_555
Ag4 C16_2 1_555 1_555
Ag4_2 C14_2 1_555 1_555
Ag4_2 C16_3 1_555 1_555
Fe1_2 N1_3 1_555 1_555
N1_3 C1_3 1_555 1_555
N2_3 N3_3 1_555 1_555
N3_3 C7_3 1_555 1_555
N4_3 N5_3 1_555 1_555
N5_3 H1_3 1_555 1_555
H2_3 N5_3 1_555 1_555
N6_2 C10_3 1_555 1_555
N7_3 Fe1_2 1_555 1_555
N8_3 Fe1_2 1_555 1_555
N9_3 Fe1_2 1_555 1_555
N10_3 Fe1_2 1_555 1_555
C1_3 H3_3 1_555 1_555
C2_3 C1_3 1_555 1_555
H4_3 C2_3 1_555 1_555
C3_3 C2_3 1_555 1_555
C4_3 C3_3 1_555 1_555
H5_3 C4_3 1_555 1_555
C5_3 N1_3 1_555 1_555
H6_3 C5_3 1_555 1_555
C6_3 N2_3 1_555 1_555
C7_3 N4_3 1_555 1_555
C8_3 C7_3 1_555 1_555
C9_3 C8_3 1_555 1_555
H7_3 C9_3 1_555 1_555
C10_3 C9_3 1_555 1_555
H8_3 C10_3 1_555 1_555
C11_3 N6_2 1_555 1_555
H9_3 C11_3 1_555 1_555
C12_3 C8_3 1_555 1_555
H10_3 C12_3 1_555 1_555
C13_2 N7_3 1_555 1_555
C16_3 N10_3 1_555 1_555
Ag3_2 C13_2 1_555 1_555
Fe2_2 N6_2 1_555 1_555
N4_3 C6_3 1_555 1_555
C3_3 C6_3 1_555 1_555
C4_3 C5_3 1_555 1_555
C11_3 C12_3 1_555 1_555
Ag3_2 C15_3 1_555 1_555
Ag2_2 C16_4 1_555 1_555
C18_2 Ag2_2 1_555 1_555
Ag1_2 C15_4 1_555 1_555
Fe2_2 N1_4 1_555 1_555
N1_4 C1_4 1_555 1_555
N2_4 N3_4 1_555 1_555
N3_4 C7_4 1_555 1_555
N4_4 N5_4 1_555 1_555
N5_4 H1_4 1_555 1_555
H2_4 N5_4 1_555 1_555
N11_2 C10_4 1_555 1_555
N7_4 Fe2_2 1_555 1_555
N8_4 Fe2_2 1_555 1_555
N9_4 Fe2_2 1_555 1_555
N10_4 Fe2_2 1_555 1_555
C1_4 H3_4 1_555 1_555
C2_4 C1_4 1_555 1_555
H4_4 C2_4 1_555 1_555
C3_4 C2_4 1_555 1_555
C4_4 C3_4 1_555 1_555
H5_4 C4_4 1_555 1_555
C5_4 N1_4 1_555 1_555
H6_4 C5_4 1_555 1_555
C6_4 N2_4 1_555 1_555
C7_4 N4_4 1_555 1_555
C8_4 C7_4 1_555 1_555
C9_4 C8_4 1_555 1_555
H7_4 C9_4 1_555 1_555
C10_4 C9_4 1_555 1_555
H8_4 C10_4 1_555 1_555
C11_4 N11_2 1_555 1_555
H9_4 C11_4 1_555 1_555
C12_4 C8_4 1_555 1_555
H10_4 C12_4 1_555 1_555
C18_2 N8_4 1_555 1_555
C15_4 N9_4 1_555 1_555
C17_2 Ag1_2 1_555 1_555
N4_4 C6_4 1_555 1_555
C3_4 C6_4 1_555 1_555
C4_4 C5_4 1_555 1_555
C11_4 C12_4 1_555 1_555

#END
