
###############################################################################
#
# This file contains modified crystal structure data generated from the
# MOF subset of the Cambridge Structural Database (CSD) v543 
# hosted by the Cambridge Crystallographic Data Centre (CCDC).
#
# This work is licensed under the Creative Commons
# Attribution-NonCommercial-ShareAlike 4.0 International License.
# To view a copy of this license, visit
# http://creativecommons.org/licenses/by-nc-sa/4.0/
# or send a letter to
# Creative Commons, PO Box 1866, Mountain View, CA 94042, USA.
#
# CIF created using the CSD Python API on 29 September 2022
# The structure has been converted into the P1 space group
# The structure has a 3D framework
# The original CSD entry HERNEA01 is in the monoclinic crystal system
# The framework has been calculated to contain at least 10.0% void space
# The void calculation uses a probe of radius 1.32A, grid spacing 0.4
#
###############################################################################

data_HERNEA01
_chemical_formula_moiety         '(C60 H40 Ag8 Fe4 N40)n'
_symmetry_cell_setting           triclinic
_symmetry_space_group_name_H-M   'P 1'
_symmetry_Int_Tables_number      1
_space_group_name_Hall           'P 1'
loop_
_symmetry_equiv_pos_site_id
_symmetry_equiv_pos_as_xyz
1 x,y,z
_cell_length_a                   10.3599(3)
_cell_length_b                   29.3837(10)
_cell_length_c                   10.4318(3)
_cell_angle_alpha                90
_cell_angle_beta                 100.8190(10)
_cell_angle_gamma                90
_cell_volume                     3119.12
loop_
_atom_site_label
_atom_site_type_symbol
_atom_site_fract_x
_atom_site_fract_y
_atom_site_fract_z
N11 N 0.1988(3) 0.01794(10) 0.7587(3)
Ag1 Ag 0.21194(4) 0.95026(2) 0.26606(3)
C15 C 0.2179(4) 0.94985(13) 0.0706(4)
C17 C 0.2212(4) 0.94701(14) 0.4635(4)
Ag2 Ag 0.73322(3) 0.94752(2) 0.78508(3)
Fe1 Fe 0.22933(4) 0.94703(2) 0.76954(4)
N1 N 0.2625(3) 0.87629(11) 0.7772(3)
N2 N 0.4637(4) 0.72161(12) 0.8833(4)
N3 N 0.4701(4) 0.67501(12) 0.8774(4)
N4 N 0.2945(3) 0.69764(11) 0.7406(3)
N5 N 0.1751(3) 0.69930(11) 0.6502(4)
H1 H 0.1900 0.6911 0.5695
H2 H 0.1147 0.6806 0.6771
N6 N 0.3012(3) 0.51794(10) 0.7413(3)
N7 N 0.2259(3) 0.94586(10) 0.5739(3)
N8 N 0.0295(3) 0.93895(11) 0.7417(4)
N9 N 0.2277(3) 0.94889(10) 0.9638(4)
N10 N 0.4289(3) 0.95571(10) 0.8013(3)
C1 C 0.3497(4) 0.85836(14) 0.8755(4)
H3 H 0.3923 0.8778 0.9417
C2 C 0.3794(4) 0.81244(14) 0.8833(4)
H4 H 0.4413 0.8013 0.9540
C3 C 0.3186(4) 0.78291(13) 0.7878(4)
C4 C 0.2268(4) 0.80141(14) 0.6849(4)
H5 H 0.1824 0.7828 0.6175
C5 C 0.2036(4) 0.84744(13) 0.6851(4)
H6 H 0.1420 0.8595 0.6157
C6 C 0.3573(4) 0.73460(13) 0.8020(4)
C7 C 0.3676(4) 0.66097(13) 0.7923(4)
C8 C 0.3406(4) 0.61226(13) 0.7672(4)
C9 C 0.3986(4) 0.58221(14) 0.8636(4)
H7 H 0.4518 0.5932 0.9404
C10 C 0.3774(4) 0.53618(13) 0.8459(4)
H8 H 0.4193 0.5164 0.9116
C11 C 0.2463(4) 0.54686(14) 0.6481(4)
H9 H 0.1925 0.5348 0.5732
C12 C 0.2642(4) 0.59345(14) 0.6556(4)
H10 H 0.2253 0.6123 0.5861
C16 C 0.5397(4) 0.95413(13) 0.8036(4)
Fe2 Fe 0.27067(4) 0.44703(2) 0.73046(4)
C18 C 0.9218(4) 0.94027(13) 0.7516(4)
C13 C 0.2788(4) 0.44701(14) 0.0365(4)
Ag3 Ag 0.28806(4) 0.45026(2) 0.23394(3)
N1_2 N 0.2375(3) 0.37629(11) 0.7228(3)
N2_2 N 0.0363(4) 0.22161(12) 0.6167(4)
N3_2 N 0.0299(4) 0.17501(12) 0.6226(4)
N4_2 N 0.2055(3) 0.19764(11) 0.7594(3)
N5_2 N 0.3249(3) 0.19930(11) 0.8498(4)
H1_2 H 0.3100 0.1911 0.9305
H2_2 H 0.3853 0.1806 0.8229
N7_2 N 0.2741(3) 0.44586(10) 0.9261(3)
N8_2 N 0.4705(3) 0.43895(11) 0.7583(4)
N9_2 N 0.2723(3) 0.44889(10) 0.5362(4)
N10_2 N 0.0711(3) 0.45571(10) 0.6987(3)
C1_2 C 0.1503(4) 0.35836(14) 0.6245(4)
H3_2 H 0.1077 0.3778 0.5583
C2_2 C 0.1206(4) 0.31244(14) 0.6167(4)
H4_2 H 0.0587 0.3013 0.5460
C3_2 C 0.1814(4) 0.28291(13) 0.7122(4)
C4_2 C 0.2732(4) 0.30141(14) 0.8151(4)
H5_2 H 0.3176 0.2828 0.8825
C5_2 C 0.2964(4) 0.34744(13) 0.8149(4)
H6_2 H 0.3580 0.3595 0.8843
C6_2 C 0.1427(4) 0.23460(13) 0.6980(4)
C7_2 C 0.1324(4) 0.16097(13) 0.7077(4)
C8_2 C 0.1594(4) 0.11226(13) 0.7328(4)
C9_2 C 0.1014(4) 0.08221(14) 0.6364(4)
H7_2 H 0.0482 0.0932 0.5596
C10_2 C 0.1226(4) 0.03618(13) 0.6541(4)
H8_2 H 0.0807 0.0164 0.5884
C11_2 C 0.2537(4) 0.04686(14) 0.8519(4)
H9_2 H 0.3075 0.0348 0.9268
C12_2 C 0.2358(4) 0.09345(14) 0.8444(4)
H10_2 H 0.2747 0.1123 0.9139
C14 C 0.5782(4) 0.44027(13) 0.7484(4)
C15_2 C 0.2821(4) 0.44985(13) 0.4294(4)
Ag4 Ag 0.76678(3) 0.44752(2) 0.71492(3)
C16_2 C 0.9603(4) 0.45413(13) 0.6964(4)
C14_2 C 0.0782(4) 0.05973(13) 0.2484(4)
Ag4_2 Ag 0.26678(3) 0.05248(2) 0.21492(3)
Fe1_2 Fe 0.77067(4) 0.05297(2) 0.23046(4)
N1_3 N 0.7375(3) 0.12371(11) 0.2228(3)
N2_3 N 0.5363(4) 0.27839(12) 0.1167(4)
N3_3 N 0.5299(4) 0.32499(12) 0.1226(4)
N4_3 N 0.7055(3) 0.30236(11) 0.2594(3)
N5_3 N 0.8249(3) 0.30070(11) 0.3498(4)
H1_3 H 0.8100 0.3089 0.4305
H2_3 H 0.8853 0.3194 0.3229
N6_2 N 0.6988(3) 0.48206(10) 0.2587(3)
N7_3 N 0.7741(3) 0.05414(10) 0.4261(3)
N8_3 N 0.9705(3) 0.06105(11) 0.2583(4)
N9_3 N 0.7723(3) 0.05111(10) 0.0362(4)
N10_3 N 0.5711(3) 0.04429(10) 0.1987(3)
C1_3 C 0.6503(4) 0.14164(14) 0.1245(4)
H3_3 H 0.6077 0.1222 0.0583
C2_3 C 0.6206(4) 0.18756(14) 0.1167(4)
H4_3 H 0.5587 0.1987 0.0460
C3_3 C 0.6814(4) 0.21709(13) 0.2122(4)
C4_3 C 0.7732(4) 0.19859(14) 0.3151(4)
H5_3 H 0.8176 0.2172 0.3825
C5_3 C 0.7964(4) 0.15256(13) 0.3149(4)
H6_3 H 0.8580 0.1405 0.3843
C6_3 C 0.6427(4) 0.26540(13) 0.1980(4)
C7_3 C 0.6324(4) 0.33903(13) 0.2077(4)
C8_3 C 0.6594(4) 0.38774(13) 0.2328(4)
C9_3 C 0.6014(4) 0.41779(14) 0.1364(4)
H7_3 H 0.5482 0.4068 0.0596
C10_3 C 0.6226(4) 0.46382(13) 0.1541(4)
H8_3 H 0.5807 0.4836 0.0884
C11_3 C 0.7537(4) 0.45314(14) 0.3519(4)
H9_3 H 0.8075 0.4652 0.4268
C12_3 C 0.7358(4) 0.40655(14) 0.3444(4)
H10_3 H 0.7747 0.3877 0.4139
C13_2 C 0.7788(4) 0.05299(14) 0.5365(4)
C16_3 C 0.4603(4) 0.04587(13) 0.1964(4)
Ag3_2 Ag 0.78806(4) 0.04974(2) 0.73394(3)
Fe2_2 Fe 0.72933(4) 0.55297(2) 0.26954(4)
C15_3 C 0.7821(4) 0.05015(13) 0.9294(4)
N11_2 N 0.8012(3) 0.98206(10) 0.2413(3)
Ag2_2 Ag 0.23322(3) 0.55248(2) 0.28508(3)
C16_4 C 0.0397(4) 0.54587(13) 0.3036(4)
C18_2 C 0.4218(4) 0.55973(13) 0.2516(4)
Ag1_2 Ag 0.71194(4) 0.54974(2) 0.76606(3)
N1_4 N 0.7625(3) 0.62371(11) 0.2772(3)
N2_4 N 0.9637(4) 0.77839(12) 0.3833(4)
N3_4 N 0.9701(4) 0.82499(12) 0.3774(4)
N4_4 N 0.7945(3) 0.80236(11) 0.2406(3)
N5_4 N 0.6751(3) 0.80070(11) 0.1502(4)
H1_4 H 0.6900 0.8089 0.0695
H2_4 H 0.6147 0.8194 0.1771
N7_4 N 0.7259(3) 0.55414(10) 0.0739(3)
N8_4 N 0.5295(3) 0.56105(11) 0.2417(4)
N9_4 N 0.7277(3) 0.55111(10) 0.4638(4)
N10_4 N 0.9289(3) 0.54429(10) 0.3013(3)
C1_4 C 0.8497(4) 0.64164(14) 0.3755(4)
H3_4 H 0.8923 0.6222 0.4417
C2_4 C 0.8794(4) 0.68756(14) 0.3833(4)
H4_4 H 0.9413 0.6987 0.4540
C3_4 C 0.8186(4) 0.71709(13) 0.2878(4)
C4_4 C 0.7268(4) 0.69859(14) 0.1849(4)
H5_4 H 0.6824 0.7172 0.1175
C5_4 C 0.7036(4) 0.65256(13) 0.1851(4)
H6_4 H 0.6420 0.6405 0.1157
C6_4 C 0.8573(4) 0.76540(13) 0.3020(4)
C7_4 C 0.8676(4) 0.83903(13) 0.2923(4)
C8_4 C 0.8406(4) 0.88774(13) 0.2672(4)
C9_4 C 0.8986(4) 0.91779(14) 0.3636(4)
H7_4 H 0.9518 0.9068 0.4404
C10_4 C 0.8774(4) 0.96382(13) 0.3459(4)
H8_4 H 0.9193 0.9836 0.4116
C11_4 C 0.7463(4) 0.95314(14) 0.1481(4)
H9_4 H 0.6925 0.9652 0.0732
C12_4 C 0.7642(4) 0.90655(14) 0.1556(4)
H10_4 H 0.7253 0.8877 0.0861
C15_4 C 0.7179(4) 0.55015(13) 0.5706(4)
C17_2 C 0.7212(4) 0.55299(14) 0.9635(4)
loop_
_geom_bond_atom_site_label_1
_geom_bond_atom_site_label_2
_geom_bond_site_symmetry_1
_geom_bond_site_symmetry_2
Ag1 C15 1_555 1_555
C17 Ag1 1_555 1_555
Ag2 C16 1_555 1_555
Fe1 N1 1_555 1_555
N1 C1 1_555 1_555
N2 N3 1_555 1_555
N3 C7 1_555 1_555
N4 N5 1_555 1_555
N5 H1 1_555 1_555
H2 N5 1_555 1_555
N6 C10 1_555 1_555
N7 Fe1 1_555 1_555
N8 Fe1 1_555 1_555
N9 Fe1 1_555 1_555
N10 Fe1 1_555 1_555
C1 H3 1_555 1_555
C2 C1 1_555 1_555
H4 C2 1_555 1_555
C3 C2 1_555 1_555
C4 C3 1_555 1_555
H5 C4 1_555 1_555
C5 N1 1_555 1_555
H6 C5 1_555 1_555
C6 N2 1_555 1_555
C7 N4 1_555 1_555
C8 C7 1_555 1_555
C9 C8 1_555 1_555
H7 C9 1_555 1_555
C10 C9 1_555 1_555
H8 C10 1_555 1_555
C11 N6 1_555 1_555
H9 C11 1_555 1_555
C12 C8 1_555 1_555
H10 C12 1_555 1_555
C17 N7 1_555 1_555
C16 N10 1_555 1_555
Fe2 N6 1_555 1_555
C18 Ag2 1_555 1_555
N4 C6 1_555 1_555
C3 C6 1_555 1_555
C4 C5 1_555 1_555
C11 C12 1_555 1_555
Ag3 C13 1_555 1_555
Ag3 C15_2 1_555 1_555
Fe2 N1_2 1_555 1_555
N1_2 C1_2 1_555 1_555
N2_2 N3_2 1_555 1_555
N3_2 C7_2 1_555 1_555
N4_2 N5_2 1_555 1_555
N5_2 H1_2 1_555 1_555
H2_2 N5_2 1_555 1_555
N11 C10_2 1_555 1_555
N7_2 Fe2 1_555 1_555
N8_2 Fe2 1_555 1_555
N9_2 Fe2 1_555 1_555
N10_2 Fe2 1_555 1_555
C1_2 H3_2 1_555 1_555
C2_2 C1_2 1_555 1_555
H4_2 C2_2 1_555 1_555
C3_2 C2_2 1_555 1_555
C4_2 C3_2 1_555 1_555
H5_2 C4_2 1_555 1_555
C5_2 N1_2 1_555 1_555
H6_2 C5_2 1_555 1_555
C6_2 N2_2 1_555 1_555
C7_2 N4_2 1_555 1_555
C8_2 C7_2 1_555 1_555
C9_2 C8_2 1_555 1_555
H7_2 C9_2 1_555 1_555
C10_2 C9_2 1_555 1_555
H8_2 C10_2 1_555 1_555
C11_2 N11 1_555 1_555
H9_2 C11_2 1_555 1_555
C12_2 C8_2 1_555 1_555
H10_2 C12_2 1_555 1_555
C14 N8_2 1_555 1_555
C15_2 N9_2 1_555 1_555
Ag4 C14 1_555 1_555
N4_2 C6_2 1_555 1_555
C3_2 C6_2 1_555 1_555
C4_2 C5_2 1_555 1_555
C11_2 C12_2 1_555 1_555
Ag4 C16_2 1_555 1_555
Ag4_2 C14_2 1_555 1_555
Ag4_2 C16_3 1_555 1_555
Fe1_2 N1_3 1_555 1_555
N1_3 C1_3 1_555 1_555
N2_3 N3_3 1_555 1_555
N3_3 C7_3 1_555 1_555
N4_3 N5_3 1_555 1_555
N5_3 H1_3 1_555 1_555
H2_3 N5_3 1_555 1_555
N6_2 C10_3 1_555 1_555
N7_3 Fe1_2 1_555 1_555
N8_3 Fe1_2 1_555 1_555
N9_3 Fe1_2 1_555 1_555
N10_3 Fe1_2 1_555 1_555
C1_3 H3_3 1_555 1_555
C2_3 C1_3 1_555 1_555
H4_3 C2_3 1_555 1_555
C3_3 C2_3 1_555 1_555
C4_3 C3_3 1_555 1_555
H5_3 C4_3 1_555 1_555
C5_3 N1_3 1_555 1_555
H6_3 C5_3 1_555 1_555
C6_3 N2_3 1_555 1_555
C7_3 N4_3 1_555 1_555
C8_3 C7_3 1_555 1_555
C9_3 C8_3 1_555 1_555
H7_3 C9_3 1_555 1_555
C10_3 C9_3 1_555 1_555
H8_3 C10_3 1_555 1_555
C11_3 N6_2 1_555 1_555
H9_3 C11_3 1_555 1_555
C12_3 C8_3 1_555 1_555
H10_3 C12_3 1_555 1_555
C13_2 N7_3 1_555 1_555
C16_3 N10_3 1_555 1_555
Ag3_2 C13_2 1_555 1_555
Fe2_2 N6_2 1_555 1_555
N4_3 C6_3 1_555 1_555
C3_3 C6_3 1_555 1_555
C4_3 C5_3 1_555 1_555
C11_3 C12_3 1_555 1_555
Ag3_2 C15_3 1_555 1_555
Ag2_2 C16_4 1_555 1_555
C18_2 Ag2_2 1_555 1_555
Ag1_2 C15_4 1_555 1_555
Fe2_2 N1_4 1_555 1_555
N1_4 C1_4 1_555 1_555
N2_4 N3_4 1_555 1_555
N3_4 C7_4 1_555 1_555
N4_4 N5_4 1_555 1_555
N5_4 H1_4 1_555 1_555
H2_4 N5_4 1_555 1_555
N11_2 C10_4 1_555 1_555
N7_4 Fe2_2 1_555 1_555
N8_4 Fe2_2 1_555 1_555
N9_4 Fe2_2 1_555 1_555
N10_4 Fe2_2 1_555 1_555
C1_4 H3_4 1_555 1_555
C2_4 C1_4 1_555 1_555
H4_4 C2_4 1_555 1_555
C3_4 C2_4 1_555 1_555
C4_4 C3_4 1_555 1_555
H5_4 C4_4 1_555 1_555
C5_4 N1_4 1_555 1_555
H6_4 C5_4 1_555 1_555
C6_4 N2_4 1_555 1_555
C7_4 N4_4 1_555 1_555
C8_4 C7_4 1_555 1_555
C9_4 C8_4 1_555 1_555
H7_4 C9_4 1_555 1_555
C10_4 C9_4 1_555 1_555
H8_4 C10_4 1_555 1_555
C11_4 N11_2 1_555 1_555
H9_4 C11_4 1_555 1_555
C12_4 C8_4 1_555 1_555
H10_4 C12_4 1_555 1_555
C18_2 N8_4 1_555 1_555
C15_4 N9_4 1_555 1_555
C17_2 Ag1_2 1_555 1_555
N4_4 C6_4 1_555 1_555
C3_4 C6_4 1_555 1_555
C4_4 C5_4 1_555 1_555
C11_4 C12_4 1_555 1_555

#END
