
###############################################################################
#
# This file contains modified crystal structure data generated from the
# MOF subset of the Cambridge Structural Database (CSD) v543 
# hosted by the Cambridge Crystallographic Data Centre (CCDC).
#
# This work is licensed under the Creative Commons
# Attribution-NonCommercial-ShareAlike 4.0 International License.
# To view a copy of this license, visit
# http://creativecommons.org/licenses/by-nc-sa/4.0/
# or send a letter to
# Creative Commons, PO Box 1866, Mountain View, CA 94042, USA.
#
# CIF created using the CSD Python API on 29 September 2022
# The structure has been converted into the P1 space group
# The structure has a 3D framework
# The original CSD entry HEXHEZ is in the monoclinic crystal system
# The framework has been calculated to contain at least 10.0% void space
# The void calculation uses a probe of radius 1.32A, grid spacing 0.4
#
###############################################################################

data_HEXHEZ
_chemical_formula_moiety         '(C84 H48 Cd3 N16 O20)n'
_symmetry_cell_setting           triclinic
_symmetry_space_group_name_H-M   'P 1'
_symmetry_Int_Tables_number      1
_space_group_name_Hall           'P 1'
loop_
_symmetry_equiv_pos_site_id
_symmetry_equiv_pos_as_xyz
1 x,y,z
_cell_length_a                   15.604(2)
_cell_length_b                   8.6650(10)
_cell_length_c                   17.690(2)
_cell_angle_alpha                90
_cell_angle_beta                 111.470(2)
_cell_angle_gamma                90
_cell_volume                     2225.87
loop_
_atom_site_label
_atom_site_type_symbol
_atom_site_fract_x
_atom_site_fract_y
_atom_site_fract_z
Cd5 Cd -0.0000 0.15165(6) 0.2500
H2 H 0.7405 0.0255 0.0086
C14 C 0.8414(3) 0.0105(6) 0.1653(3)
O4 O 0.8753(2) 0.1078(5) 0.1312(2)
Cd5_2 Cd 1.0000 0.15165(6) 0.2500
O19 O 0.4993(3) 0.1037(6) 0.1393(2)
O20 O 0.5007(3) 0.1037(6) 0.3607(2)
O5 O 0.6197(3) 0.0347(6) 0.8707(2)
Cd10 Cd 0.5000 0.04345(7) 0.7500
O15 O 0.1183(2) 0.0262(4) 0.7617(2)
C27 C 0.0148(3) 0.8164(6) 0.0606(3)
H15 H 0.0722 0.8352 0.1006
C32 C 0.1040(3) 0.4692(7) 0.2391(3)
H20 H 0.1488 0.4562 0.2906
C33 C 0.0817(3) 0.6042(7) 0.1998(3)
H21 H 0.1071 0.7003 0.2187
N7 N 0.0129(3) 0.5720(5) 0.1250(2)
N8 N 0.0507(3) 0.3522(5) 0.1921(2)
C34 C 0.6185(3) 0.2114(6) 0.6120(3)
C35 C 0.7039(3) 0.1471(6) 0.6563(3)
H22 H 0.7297 0.1613 0.7123
C36 C 0.7504(3) 0.0618(6) 0.6171(3)
C37 C 0.7099(3) 0.0343(6) 0.5344(3)
C38 C 0.6239(3) 0.0956(6) 0.4898(3)
C39 C 0.5789(3) 0.1864(6) 0.5285(3)
H24 H 0.5222 0.2305 0.4986
C40 C 0.5709(3) 0.3030(7) 0.6567(3)
C42 C 0.5781(3) 0.0536(7) 0.4021(3)
O7 O 0.5804(3) 0.2585(4) 0.7276(2)
O8 O 0.5242(3) 0.4187(5) 0.6259(2)
O9 O 0.8817(2) 0.0262(4) 0.7383(2)
Cd7 Cd 0.5000 0.47960(6) 0.7500
C22 C 0.9757(3) 0.9261(6) 0.0006(3)
C25 C 0.8851(3) 0.6450(6) 0.0018(3)
H14 H 0.8553 0.5522 0.0021
C26 C 0.9699(3) 0.6802(6) 0.0620(3)
C31 C 0.9966(3) 0.4174(6) 0.1240(3)
H19 H 0.9532 0.3650 0.0811
C23 C 0.8898(3) 0.8931(6) 0.9404(3)
H13 H 0.8615 0.9649 0.8999
C24 C 0.8473(3) 0.7543(6) 0.9416(3)
C28 C 0.6941(3) 0.6253(6) 0.8752(3)
H16 H 0.6928 0.5723 0.9205
C29 C 0.6574(3) 0.7135(7) 0.7531(3)
H17 H 0.6251 0.7312 0.6981
C30 C 0.7391(3) 0.7761(7) 0.7974(3)
H18 H 0.7732 0.8444 0.7791
N5 N 0.7627(3) 0.7199(5) 0.8750(2)
N6 N 0.6292(3) 0.6184(5) 0.8024(2)
C38_2 C 0.3761(3) 0.0956(6) 0.0102(3)
H24_2 H 0.4778 0.2305 0.0014
C42_2 C 0.4219(3) 0.0536(7) 0.0979(3)
C34_2 C 0.3815(3) 0.2114(6) 0.8880(3)
C35_2 C 0.2961(3) 0.1471(6) 0.8437(3)
H22_2 H 0.2703 0.1613 0.7877
C36_2 C 0.2496(3) 0.0618(6) 0.8829(3)
C37_2 C 0.2901(3) 0.0343(6) 0.9656(3)
C39_2 C 0.4211(3) 0.1864(6) 0.9715(3)
C40_2 C 0.4291(3) 0.3030(7) 0.8433(3)
O7_2 O 0.4196(3) 0.2585(4) 0.7724(2)
O8_2 O 0.4758(3) 0.4187(5) 0.8741(2)
C22_2 C 0.0243(3) 0.9261(6) 0.4994(3)
C23_2 C 0.1102(3) 0.8931(6) 0.5596(3)
H13_2 H 0.1385 0.9649 0.6001
C24_2 C 0.1527(3) 0.7543(6) 0.5584(3)
C25_2 C 0.1149(3) 0.6450(6) 0.4982(3)
H14_2 H 0.1447 0.5522 0.4979
C26_2 C 0.0301(3) 0.6802(6) 0.4380(3)
C28_2 C 0.3059(3) 0.6253(6) 0.6248(3)
H16_2 H 0.3072 0.5723 0.5795
C29_2 C 0.3426(3) 0.7135(7) 0.7469(3)
H17_2 H 0.3749 0.7312 0.8019
C30_2 C 0.2609(3) 0.7761(7) 0.7026(3)
H18_2 H 0.2268 0.8444 0.7209
C31_2 C 0.0034(3) 0.4174(6) 0.3760(3)
H19_2 H 0.0468 0.3650 0.4189
N5_2 N 0.2373(3) 0.7199(5) 0.6250(2)
N6_2 N 0.3708(3) 0.6184(5) 0.6976(2)
H2_2 H 0.2595 0.0255 0.4914
C14_2 C 0.1586(3) 0.0105(6) 0.3347(3)
O4_2 O 0.1247(2) 0.1078(5) 0.3688(2)
O5_2 O 0.3803(3) 0.0347(6) 0.6293(2)
C27_2 C 0.9852(3) 0.8164(6) 0.4394(3)
H15_2 H 0.9278 0.8352 0.3994
C32_2 C 0.8960(3) 0.4692(7) 0.2609(3)
H20_2 H 0.8512 0.4562 0.2094
C33_2 C 0.9183(3) 0.6042(7) 0.3002(3)
H21_2 H 0.8929 0.7003 0.2813
N7_2 N 0.9871(3) 0.5720(5) 0.3750(2)
N8_2 N 0.9493(3) 0.3522(5) 0.3079(2)
Cd2 Cd 0.5000 0.52040(6) 0.2500
Cd3 Cd 0.5000 0.95655(7) 0.2500
C1 C 0.6185(3) 0.7886(6) 0.1120(3)
C2 C 0.7039(3) 0.8529(6) 0.1563(3)
H1 H 0.7297 0.8387 0.2123
C3 C 0.7504(3) 0.9382(6) 0.1171(3)
C4 C 0.7099(3) 0.9657(6) 0.0344(3)
C6 C 0.5789(3) 0.8136(6) 0.0285(3)
C7 C 0.5709(3) 0.6970(7) 0.1567(3)
C9 C 0.1102(3) 0.1069(6) 0.0596(3)
H4 H 0.1385 0.0351 0.1001
C10 C 0.1527(3) 0.2457(6) 0.0584(3)
C16 C 0.3059(3) 0.3747(6) 0.1248(3)
H7 H 0.3072 0.4277 0.0795
C17 C 0.3426(3) 0.2865(7) 0.2469(3)
H8 H 0.3749 0.2688 0.3019
C18 C 0.2609(3) 0.2239(7) 0.2026(3)
H9 H 0.2268 0.1556 0.2209
N1 N 0.2373(3) 0.2801(5) 0.1250(2)
N2 N 0.3708(3) 0.3816(5) 0.1976(2)
O1 O 0.5804(3) 0.7415(4) 0.2276(2)
O2 O 0.5242(3) 0.5813(5) 0.1259(2)
O3 O 0.8817(2) 0.9738(4) 0.2383(2)
N9 N 0.6292(3) 0.3816(5) 0.3024(2)
O13 O 0.4196(3) 0.7415(4) 0.2724(2)
O14 O 0.4758(3) 0.5813(5) 0.3741(2)
O17 O 0.3803(3) 0.9653(6) 0.1293(2)
O18 O 0.6197(3) 0.9653(6) 0.3707(2)
Cd1 Cd 0.0000 0.84835(6) 0.7500
C5 C 0.6239(3) 0.9044(6) 0.9898(3)
H3 H 0.5222 0.7695 0.9986
C8 C 0.0243(3) 0.0739(6) 0.9994(3)
C11 C 0.1149(3) 0.3550(6) 0.9982(3)
H5 H 0.1447 0.4478 0.9979
C12 C 0.0301(3) 0.3198(6) 0.9380(3)
C15 C 0.5781(3) 0.9464(7) 0.9021(3)
C19 C 0.0034(3) 0.5826(6) 0.8760(3)
H10 H 0.0468 0.6350 0.9189
O6 O 0.5007(3) 0.8963(6) 0.8607(2)
N10 N 0.0507(3) 0.6478(5) 0.6921(2)
O16 O 0.1247(2) 0.8922(5) 0.8688(2)
Cd1_2 Cd 1.0000 0.84835(6) 0.7500
C13 C 0.9852(3) 0.1836(6) 0.9394(3)
H6 H 0.9278 0.1648 0.8994
C20 C 0.8960(3) 0.5308(7) 0.7609(3)
H11 H 0.8512 0.5438 0.7094
C21 C 0.9183(3) 0.3958(7) 0.8002(3)
H12 H 0.8929 0.2997 0.7813
N3 N 0.9871(3) 0.4280(5) 0.8750(2)
N4 N 0.9493(3) 0.6478(5) 0.8079(2)
H23 H 0.7405 0.9745 0.5086
C41 C 0.8414(3) 0.9895(6) 0.6653(3)
O10 O 0.8753(2) 0.8922(5) 0.6312(2)
C13_2 C 0.0148(3) 0.1836(6) 0.5606(3)
H6_2 H 0.0722 0.1648 0.6006
C20_2 C 0.1040(3) 0.5308(7) 0.7391(3)
H11_2 H 0.1488 0.5438 0.7906
C21_2 C 0.0817(3) 0.3958(7) 0.6998(3)
H12_2 H 0.1071 0.2997 0.7187
N3_2 N 0.0129(3) 0.4280(5) 0.6250(2)
H23_2 H 0.2595 0.9745 0.9914
C41_2 C 0.1586(3) 0.9895(6) 0.8347(3)
C1_2 C 0.3815(3) 0.7886(6) 0.3880(3)
C2_2 C 0.2961(3) 0.8529(6) 0.3437(3)
H1_2 H 0.2703 0.8387 0.2877
C3_2 C 0.2496(3) 0.9382(6) 0.3829(3)
C4_2 C 0.2901(3) 0.9657(6) 0.4656(3)
C5_2 C 0.3761(3) 0.9044(6) 0.5102(3)
C6_2 C 0.4211(3) 0.8136(6) 0.4715(3)
H3_2 H 0.4778 0.7695 0.5014
C7_2 C 0.4291(3) 0.6970(7) 0.3433(3)
C8_2 C 0.9757(3) 0.0739(6) 0.5006(3)
C9_2 C 0.8898(3) 0.1069(6) 0.4404(3)
H4_2 H 0.8615 0.0351 0.3999
C10_2 C 0.8473(3) 0.2457(6) 0.4416(3)
C11_2 C 0.8851(3) 0.3550(6) 0.5018(3)
H5_2 H 0.8553 0.4478 0.5021
C12_2 C 0.9699(3) 0.3198(6) 0.5620(3)
C15_2 C 0.4219(3) 0.9464(7) 0.5979(3)
C16_2 C 0.6941(3) 0.3747(6) 0.3752(3)
H7_2 H 0.6928 0.4277 0.4205
C17_2 C 0.6574(3) 0.2865(7) 0.2531(3)
H8_2 H 0.6251 0.2688 0.1981
C18_2 C 0.7391(3) 0.2239(7) 0.2974(3)
H9_2 H 0.7732 0.1556 0.2791
C19_2 C 0.9966(3) 0.5826(6) 0.6240(3)
H10_2 H 0.9532 0.6350 0.5811
N1_2 N 0.7627(3) 0.2801(5) 0.3750(2)
O3_2 O 0.1183(2) 0.9738(4) 0.2617(2)
O6_2 O 0.4993(3) 0.8963(6) 0.6393(2)
loop_
_geom_bond_atom_site_label_1
_geom_bond_atom_site_label_2
_geom_bond_site_symmetry_1
_geom_bond_site_symmetry_2
O4 C14 1_555 1_555
O4 Cd5_2 1_555 1_555
Cd10 O5 1_555 1_555
H15 C27 1_555 1_555
C32 H20 1_555 1_555
C33 C32 1_555 1_555
H21 C33 1_555 1_555
Cd5 N8 1_555 1_555
C32 N8 1_555 1_555
C33 N7 1_555 1_555
C34 C35 1_555 1_555
C35 H22 1_555 1_555
C36 C35 1_555 1_555
C37 C36 1_555 1_555
C38 C37 1_555 1_555
C39 C34 1_555 1_555
H24 C39 1_555 1_555
C40 C34 1_555 1_555
C42 C38 1_555 1_555
O7 C40 1_555 1_555
O8 C40 1_555 1_555
O20 C42 1_555 1_555
Cd7 O7 1_555 1_555
Cd10 O7 1_555 1_555
C38 C39 1_555 1_555
O8 Cd7 1_555 1_555
H14 C25 1_555 1_555
C26 C25 1_555 1_555
C31 H19 1_555 1_555
H13 C23 1_555 1_555
C24 C23 1_555 1_555
C28 H16 1_555 1_555
C29 H17 1_555 1_555
C30 C29 1_555 1_555
H18 C30 1_555 1_555
N5 C24 1_555 1_555
N6 C28 1_555 1_555
Cd7 N6 1_555 1_555
C28 N5 1_555 1_555
C29 N6 1_555 1_555
C30 N5 1_555 1_555
C42_2 C38_2 1_555 1_555
O19 C42_2 1_555 1_555
C34_2 C35_2 1_555 1_555
C35_2 H22_2 1_555 1_555
C36_2 C35_2 1_555 1_555
C37_2 C36_2 1_555 1_555
C39_2 C34_2 1_555 1_555
C40_2 C34_2 1_555 1_555
O7_2 C40_2 1_555 1_555
O8_2 C40_2 1_555 1_555
Cd7 O7_2 1_555 1_555
Cd10 O7_2 1_555 1_555
O8_2 Cd7 1_555 1_555
C23_2 C22_2 1_555 1_555
H13_2 C23_2 1_555 1_555
C24_2 C23_2 1_555 1_555
C25_2 C24_2 1_555 1_555
H14_2 C25_2 1_555 1_555
C26_2 C25_2 1_555 1_555
C28_2 H16_2 1_555 1_555
C29_2 H17_2 1_555 1_555
C30_2 C29_2 1_555 1_555
H18_2 C30_2 1_555 1_555
C31_2 H19_2 1_555 1_555
N5_2 C24_2 1_555 1_555
N6_2 C28_2 1_555 1_555
Cd7 N6_2 1_555 1_555
C28_2 N5_2 1_555 1_555
C29_2 N6_2 1_555 1_555
C30_2 N5_2 1_555 1_555
O4_2 C14_2 1_555 1_555
Cd10 O5_2 1_555 1_555
O4_2 Cd5 1_555 1_555
H15_2 C27_2 1_555 1_555
C32_2 H20_2 1_555 1_555
C33_2 C32_2 1_555 1_555
H21_2 C33_2 1_555 1_555
Cd5_2 N8_2 1_555 1_555
C32_2 N8_2 1_555 1_555
C33_2 N7_2 1_555 1_555
Cd2 N2 1_555 1_555
Cd3 O1 1_555 1_555
C1 C2 1_555 1_555
C2 H1 1_555 1_555
C3 C2 1_555 1_555
C4 C3 1_555 1_555
C6 C1 1_555 1_555
C7 C1 1_555 1_555
C9 H4 1_555 1_555
C10 C9 1_555 1_555
C16 H7 1_555 1_555
C17 H8 1_555 1_555
C18 C17 1_555 1_555
H9 C18 1_555 1_555
N1 C10 1_555 1_555
N2 C16 1_555 1_555
O1 Cd2 1_555 1_555
O2 Cd2 1_555 1_555
N9 Cd2 1_555 1_555
O13 Cd2 1_555 1_555
O14 Cd2 1_555 1_555
O17 Cd3 1_555 1_555
O18 Cd3 1_555 1_555
Cd3 O13 1_555 1_555
C7 O1 1_555 1_555
C7 O2 1_555 1_555
C16 N1 1_555 1_555
C17 N2 1_555 1_555
C18 N1 1_555 1_555
H5 C11 1_555 1_555
C12 C11 1_555 1_555
C15 C5 1_555 1_555
C19 H10 1_555 1_555
O6 C15 1_555 1_555
N10 Cd1 1_555 1_555
O16 Cd1 1_555 1_555
Cd1_2 N4 1_555 1_555
H6 C13 1_555 1_555
C20 H11 1_555 1_555
C21 C20 1_555 1_555
H12 C21 1_555 1_555
O10 Cd1_2 1_555 1_555
C20 N4 1_555 1_555
C21 N3 1_555 1_555
C41 O10 1_555 1_555
H6_2 C13_2 1_555 1_555
C20_2 H11_2 1_555 1_555
C21_2 C20_2 1_555 1_555
H12_2 C21_2 1_555 1_555
C20_2 N10 1_555 1_555
C21_2 N3_2 1_555 1_555
C41_2 O16 1_555 1_555
C1_2 C2_2 1_555 1_555
C2_2 H1_2 1_555 1_555
C3_2 C2_2 1_555 1_555
C4_2 C3_2 1_555 1_555
C5_2 C4_2 1_555 1_555
C6_2 C1_2 1_555 1_555
H3_2 C6_2 1_555 1_555
C7_2 C1_2 1_555 1_555
C8_2 C9_2 1_555 1_555
C9_2 H4_2 1_555 1_555
C10_2 C9_2 1_555 1_555
C11_2 C10_2 1_555 1_555
H5_2 C11_2 1_555 1_555
C12_2 C11_2 1_555 1_555
C15_2 C5_2 1_555 1_555
C16_2 H7_2 1_555 1_555
C17_2 H8_2 1_555 1_555
C18_2 C17_2 1_555 1_555
H9_2 C18_2 1_555 1_555
C19_2 H10_2 1_555 1_555
N1_2 C10_2 1_555 1_555
N9 C16_2 1_555 1_555
O6_2 C15_2 1_555 1_555
C5_2 C6_2 1_555 1_555
C7_2 O13 1_555 1_555
C7_2 O14 1_555 1_555
C16_2 N1_2 1_555 1_555
C17_2 N9 1_555 1_555
C18_2 N1_2 1_555 1_555

#END
