
###############################################################################
#
# This file contains modified crystal structure data generated from the
# MOF subset of the Cambridge Structural Database (CSD) v543 
# hosted by the Cambridge Crystallographic Data Centre (CCDC).
#
# This work is licensed under the Creative Commons
# Attribution-NonCommercial-ShareAlike 4.0 International License.
# To view a copy of this license, visit
# http://creativecommons.org/licenses/by-nc-sa/4.0/
# or send a letter to
# Creative Commons, PO Box 1866, Mountain View, CA 94042, USA.
#
# CIF created using the CSD Python API on 29 September 2022
# The structure has been converted into the P1 space group
# The structure has a 3D framework
# The original CSD entry HICTIZ is in the monoclinic crystal system
# The framework has been calculated to contain at least 10.0% void space
# The void calculation uses a probe of radius 1.32A, grid spacing 0.4
#
###############################################################################

data_HICTIZ
_chemical_formula_moiety         '(C24 H22 Mn12 N14 O6)n'
_symmetry_cell_setting           triclinic
_symmetry_space_group_name_H-M   'P 1'
_symmetry_Int_Tables_number      1
_space_group_name_Hall           'P 1'
loop_
_symmetry_equiv_pos_site_id
_symmetry_equiv_pos_as_xyz
1 x,y,z
_cell_length_a                   12.911(3)
_cell_length_b                   14.712(3)
_cell_length_c                   6.6415(13)
_cell_angle_alpha                90
_cell_angle_beta                 115.41(3)
_cell_angle_gamma                90
_cell_volume                     1139.49
loop_
_atom_site_label
_atom_site_type_symbol
_atom_site_fract_x
_atom_site_fract_y
_atom_site_fract_z
Mn1 Mn 0.000000 0.000000 0.000000
Mn2 Mn -0.000000 -0.000000 0.500000
O1 O 0.1041(14) -0.000000 0.373(4)
H1 H 0.185321 -0.000000 0.450464
C3 C 0.1619(16) 0.1643(13) 0.071(4)
H3 H 0.174898 0.177121 0.220346
N3 N 0.4063(14) 0.4025(12) 0.058(4)
C4 C 0.3309(16) 0.3336(13) 0.250(4)
H4 H 0.310466 0.318884 0.367097
C5 C 0.2925(16) 0.2910(13) 0.044(4)
N4 N 0.4049(14) 0.4019(11) 0.250(3)
Mn4 Mn 0.500000 0.500000 0.000000
Mn7 Mn 0.500000 0.500000 0.500000
N11 N 0.0951(14) 0.0981(11) 0.750(3)
Mn1_2 Mn -0.000000 -0.000000 1.000000
N1 N 0.0937(14) 0.0975(12) 0.942(4)
C1 C 0.1691(16) 0.1664(13) 0.750(4)
H2 H 0.189534 0.181116 0.632903
C2 C 0.2075(16) 0.2090(13) 0.956(4)
C6 C 0.3381(16) 0.3357(13) 0.929(4)
H5 H 0.325102 0.322879 0.779654
Mn4_2 Mn 0.500000 0.500000 1.000000
Mn1_3 Mn 0.000000 1.000000 0.000000
Mn2_2 Mn -0.000000 1.000000 0.500000
O1_2 O 0.1041(14) 1.000000 0.373(4)
H1_2 H 0.185321 1.000000 0.450464
N13 N 0.0951(14) 0.9019(11) 0.750(3)
Mn1_4 Mn -0.000000 1.000000 1.000000
N10 N 0.0937(14) 0.9025(12) 0.942(4)
Mn1_5 Mn 1.000000 0.000000 0.000000
Mn2_3 Mn 1.000000 -0.000000 0.500000
N5 N 0.9063(14) 0.0975(12) 0.058(4)
N6 N 0.9049(14) 0.0981(11) 0.250(3)
C7 C 0.8309(16) 0.1664(13) 0.250(4)
H7 H 0.810466 0.181116 0.367097
C8 C 0.7925(16) 0.2090(13) 0.044(4)
C12 C 0.6619(16) 0.3357(13) 0.071(4)
H10 H 0.674898 0.322879 0.220346
O3 O 0.8959(14) -0.000000 0.627(4)
Mn1_6 Mn 1.000000 -0.000000 1.000000
H6 H 0.814679 0.000000 0.549536
C9 C 0.8381(16) 0.1643(13) 0.929(4)
H8 H 0.825102 0.177121 0.779654
N7 N 0.5937(14) 0.4025(12) 0.942(4)
C10 C 0.6691(16) 0.3336(13) 0.750(4)
H9 H 0.689534 0.318884 0.632903
C11 C 0.7075(16) 0.2910(13) 0.956(4)
N8 N 0.5951(14) 0.4019(11) 0.750(3)
Mn1_7 Mn 1.000000 1.000000 0.000000
Mn2_4 Mn 1.000000 1.000000 0.500000
O3_2 O 0.8959(14) 1.000000 0.627(4)
N9 N 0.9063(14) 0.9025(12) 0.058(4)
N12 N 0.9049(14) 0.9019(11) 0.250(3)
Mn1_8 Mn 1.000000 1.000000 1.000000
H6_2 H 0.814679 1.000000 0.549536
O1_3 O 0.6041(14) 0.500000 0.373(4)
H1_3 H 0.685321 0.500000 0.450464
C3_2 C 0.6619(16) 0.6643(13) 0.071(4)
H3_2 H 0.674898 0.677121 0.220346
C4_2 C 0.8309(16) 0.8336(13) 0.250(4)
H4_2 H 0.810466 0.818884 0.367097
C5_2 C 0.7925(16) 0.7910(13) 0.044(4)
N5_2 N 0.4063(14) 0.5975(12) 0.058(4)
N6_2 N 0.4049(14) 0.5981(11) 0.250(3)
C7_2 C 0.3309(16) 0.6664(13) 0.250(4)
H7_2 H 0.310466 0.681116 0.367097
C8_2 C 0.2925(16) 0.7090(13) 0.044(4)
C12_2 C 0.1619(16) 0.8357(13) 0.071(4)
H10_2 H 0.174898 0.822879 0.220346
O3_3 O 0.3959(14) 0.500000 0.627(4)
N11_2 N 0.5951(14) 0.5981(11) 0.750(3)
N1_2 N 0.5937(14) 0.5975(12) 0.942(4)
C1_2 C 0.6691(16) 0.6664(13) 0.750(4)
H2_2 H 0.689534 0.681116 0.632903
C2_2 C 0.7075(16) 0.7090(13) 0.956(4)
C6_2 C 0.8381(16) 0.8357(13) 0.929(4)
H5_2 H 0.825102 0.822879 0.779654
H6_3 H 0.314679 0.500000 0.549536
C9_2 C 0.3381(16) 0.6643(13) 0.929(4)
H8_2 H 0.325102 0.677121 0.779654
C10_2 C 0.1691(16) 0.8336(13) 0.750(4)
H9_2 H 0.189534 0.818884 0.632903
C11_2 C 0.2075(16) 0.7910(13) 0.956(4)
loop_
_geom_bond_atom_site_label_1
_geom_bond_atom_site_label_2
_geom_bond_site_symmetry_1
_geom_bond_site_symmetry_2
Mn1 O1 1_555 1_555
Mn2 O1 1_555 1_555
O1 H1 1_555 1_555
H3 C3 1_555 1_555
C4 H4 1_555 1_555
N4 N3 1_555 1_555
Mn4 N3 1_555 1_555
Mn7 N4 1_555 1_555
N11 Mn2 1_555 1_555
C4 C5 1_555 1_555
C4 N4 1_555 1_555
N1 Mn1_2 1_555 1_555
N11 N1 1_555 1_555
C1 N11 1_555 1_555
H2 C1 1_555 1_555
C2 C1 1_555 1_555
H5 C6 1_555 1_555
Mn1_3 O1_2 1_555 1_555
Mn2_2 O1_2 1_555 1_555
O1_2 H1_2 1_555 1_555
N13 Mn2_2 1_555 1_555
N10 Mn1_4 1_555 1_555
N5 Mn1_5 1_555 1_555
N6 Mn2_3 1_555 1_555
C7 N6 1_555 1_555
H7 C7 1_555 1_555
C8 C7 1_555 1_555
H10 C12 1_555 1_555
O3 Mn2_3 1_555 1_555
N5 N6 1_555 1_555
O3 Mn1_6 1_555 1_555
H6 O3 1_555 1_555
H8 C9 1_555 1_555
C10 H9 1_555 1_555
N8 N7 1_555 1_555
Mn4_2 N7 1_555 1_555
Mn7 N8 1_555 1_555
C10 C11 1_555 1_555
C10 N8 1_555 1_555
O3_2 Mn2_4 1_555 1_555
N9 Mn1_7 1_555 1_555
N12 Mn2_4 1_555 1_555
N9 N12 1_555 1_555
O3_2 Mn1_8 1_555 1_555
H6_2 O3_2 1_555 1_555
N10 N13 1_555 1_555
Mn4 O1_3 1_555 1_555
Mn7 O1_3 1_555 1_555
O1_3 H1_3 1_555 1_555
H3_2 C3_2 1_555 1_555
C4_2 H4_2 1_555 1_555
N5_2 Mn4 1_555 1_555
N6_2 Mn7 1_555 1_555
C7_2 N6_2 1_555 1_555
H7_2 C7_2 1_555 1_555
C8_2 C7_2 1_555 1_555
H10_2 C12_2 1_555 1_555
O3_3 Mn7 1_555 1_555
N11_2 Mn7 1_555 1_555
C4_2 C5_2 1_555 1_555
C4_2 N12 1_555 1_555
N5_2 N6_2 1_555 1_555
N1_2 Mn4_2 1_555 1_555
N11_2 N1_2 1_555 1_555
C1_2 N11_2 1_555 1_555
H2_2 C1_2 1_555 1_555
C2_2 C1_2 1_555 1_555
H5_2 C6_2 1_555 1_555
O3_3 Mn4_2 1_555 1_555
H6_3 O3_3 1_555 1_555
H8_2 C9_2 1_555 1_555
C10_2 H9_2 1_555 1_555
C10_2 C11_2 1_555 1_555
C10_2 N13 1_555 1_555

#END
