
###############################################################################
#
# This file contains modified crystal structure data generated from the
# MOF subset of the Cambridge Structural Database (CSD) v543 
# hosted by the Cambridge Crystallographic Data Centre (CCDC).
#
# This work is licensed under the Creative Commons
# Attribution-NonCommercial-ShareAlike 4.0 International License.
# To view a copy of this license, visit
# http://creativecommons.org/licenses/by-nc-sa/4.0/
# or send a letter to
# Creative Commons, PO Box 1866, Mountain View, CA 94042, USA.
#
# CIF created using the CSD Python API on 29 September 2022
# The structure has been converted into the P1 space group
# The structure has a 3D framework
# The original CSD entry HIDBIH is in the monoclinic crystal system
# The framework has been calculated to contain at least 10.0% void space
# The void calculation uses a probe of radius 1.32A, grid spacing 0.4
# H atom positions have been added when not included in the experimental data
# Generated hydrogen atom positions removed from atoms on special positions
#
###############################################################################

data_HIDBIH
_chemical_formula_moiety         '(C116 H108 Cd8 N44 O24)n'
_symmetry_cell_setting           triclinic
_symmetry_space_group_name_H-M   'P 1'
_symmetry_Int_Tables_number      1
_space_group_name_Hall           'P 1'
loop_
_symmetry_equiv_pos_site_id
_symmetry_equiv_pos_as_xyz
1 x,y,z
_cell_length_a                   23.6066(15)
_cell_length_b                   10.0599(6)
_cell_length_c                   17.7135(11)
_cell_angle_alpha                90
_cell_angle_beta                 124.8360(10)
_cell_angle_gamma                90
_cell_volume                     3452.74
loop_
_atom_site_label
_atom_site_type_symbol
_atom_site_fract_x
_atom_site_fract_y
_atom_site_fract_z
C10 C 0.15679(18) 0.0815(3) 0.4622(2)
H6 H 0.1616 0.1730 0.4606
H10 H 0.1812 0.0112 0.3801
N6 N 0.13740(13) 0.0208(3) 0.51080(16)
C28 C 0.84321(18) 0.0815(3) 0.0378(2)
H17 H 0.8384 0.1730 0.0394
H18 H 0.8188 0.0112 0.1199
Cd5 Cd 0.135685(10) 0.09936(2) 0.626328(13)
N12 N 0.86260(13) 0.0208(3) 0.98920(16)
Cd6 Cd 0.864315(10) 0.09936(2) 0.873672(13)
Cd1 Cd 0.364315(10) 0.40064(2) 0.373672(13)
C1 C 0.20208(14) 0.6268(3) 0.31425(19)
C2 C 0.19133(14) 0.7453(3) 0.34530(18)
H1 H 0.2002 0.8259 0.3283
C3 C 0.16744(15) 0.7445(3) 0.40163(19)
C4 C 0.15564(19) 0.6229(4) 0.4272(2)
H2 H 0.1403 0.6204 0.4653
C5 C 0.1664(2) 0.5046(3) 0.3965(3)
H3 H 0.1580 0.4240 0.4140
C6 C 0.18964(16) 0.5057(3) 0.3403(2)
H4 H 0.1969 0.4262 0.3201
C7 C 0.22583(15) 0.6287(3) 0.25318(19)
C8 C 0.15617(14) 0.8673(3) 0.43497(18)
C9 C 0.13683(18) 0.8872(3) 0.4939(2)
H5 H 0.1251 0.8202 0.5188
C11 C 0.5000 0.8281(5) 0.2500
H7 H 0.5000 0.9205 0.2500
C12 C 0.47221(18) 0.7586(3) 0.2897(2)
H8 H 0.4539 0.8047 0.3166
C13 C 0.47188(15) 0.6217(3) 0.2892(2)
C14 C 0.5000 0.5519(4) 0.2500
H9 H 0.5000 0.4594 0.2500
C15 C 0.43980(14) 0.5469(3) 0.32939(19)
N1 N 0.26972(13) 0.5427(3) 0.25499(18)
N2 N 0.27484(16) 0.5805(3) 0.1863(2)
N3 N 0.23640(15) 0.6843(3) 0.14457(19)
N4 N 0.20467(13) 0.7181(3) 0.18633(17)
N5 N 0.16839(13) 0.9929(3) 0.41569(17)
O1 O 0.43057(16) 0.6055(2) 0.3847(2)
O2 O 0.42023(13) 0.4298(3) 0.30396(18)
O3 O 0.45774(16) 0.2599(3) 0.4727(2)
C16 C 0.52779(18) 0.7586(3) 0.2103(2)
H11 H 0.5461 0.8047 0.1834
C17 C 0.52812(15) 0.6217(3) 0.2108(2)
C18 C 0.56020(14) 0.5469(3) 0.17061(19)
O4 O 0.56943(16) 0.6055(2) 0.1153(2)
O5 O 0.57977(13) 0.4298(3) 0.19604(18)
Cd2 Cd 0.635685(10) 0.40064(2) 0.126328(13)
C19 C 0.79792(14) 0.6268(3) 0.18575(19)
C20 C 0.80867(14) 0.7453(3) 0.15470(18)
H12 H 0.7998 0.8259 0.1717
C21 C 0.83256(15) 0.7445(3) 0.09837(19)
C22 C 0.84436(19) 0.6229(4) 0.0728(2)
H13 H 0.8597 0.6204 0.0347
C23 C 0.8336(2) 0.5046(3) 0.1035(3)
H14 H 0.8420 0.4240 0.0860
C24 C 0.81036(16) 0.5057(3) 0.1597(2)
H15 H 0.8031 0.4262 0.1799
C25 C 0.77417(15) 0.6287(3) 0.24682(19)
C26 C 0.84383(14) 0.8673(3) 0.06503(18)
C27 C 0.86317(18) 0.8872(3) 0.0061(2)
N7 N 0.73028(13) 0.5427(3) 0.24501(18)
N8 N 0.72516(16) 0.5805(3) 0.3137(2)
N9 N 0.76360(15) 0.6843(3) 0.35543(19)
N10 N 0.79533(13) 0.7181(3) 0.31367(17)
N11 N 0.83161(13) 0.9929(3) 0.08431(17)
O6 O 0.54226(16) 0.2599(3) 0.0273(2)
Cd3 Cd 0.864315(10) 0.90064(2) 0.373672(13)
Cd4 Cd 0.135685(10) 0.90064(2) 0.126328(13)
N13 N 0.70467(13) 0.2181(3) 0.18633(17)
N14 N 0.29533(13) 0.2181(3) 0.31367(17)
N15 N 0.36260(13) 0.4792(3) 0.48920(16)
N16 N 0.63740(13) 0.4792(3) 0.01080(16)
H22 H 0.559929 0.172175 0.0238104
H19 H 0.499413 0.297018 0.0170775
C11_2 C -0.0000 0.3281(5) 0.2500
H7_2 H -0.0000 0.4205 0.2500
C14_2 C -0.0000 0.0519(4) 0.2500
C16_2 C 0.02779(18) 0.2586(3) 0.2103(2)
H11_2 H 0.0461 0.3047 0.1834
C17_2 C 0.02812(15) 0.1217(3) 0.2108(2)
C18_2 C 0.06020(14) 0.0469(3) 0.17061(19)
O4_2 O 0.06943(16) 0.1055(2) 0.1153(2)
C19_2 C 0.29792(14) 0.1268(3) 0.18575(19)
C20_2 C 0.30867(14) 0.2453(3) 0.15470(18)
H12_2 H 0.2998 0.3259 0.1717
C21_2 C 0.33256(15) 0.2445(3) 0.09837(19)
C22_2 C 0.34436(19) 0.1229(4) 0.0728(2)
H13_2 H 0.3597 0.1204 0.0347
C23_2 C 0.3336(2) 0.0046(3) 0.1035(3)
C24_2 C 0.31036(16) 0.0057(3) 0.1597(2)
C25_2 C 0.27417(15) 0.1287(3) 0.24682(19)
C26_2 C 0.34383(14) 0.3673(3) 0.06503(18)
C27_2 C 0.36317(18) 0.3872(3) 0.0061(2)
C28_2 C 0.34321(18) 0.5815(3) 0.0378(2)
H17_2 H 0.3384 0.6730 0.0394
N7_2 N 0.23028(13) 0.0427(3) 0.24501(18)
N8_2 N 0.22516(16) 0.0805(3) 0.3137(2)
N9_2 N 0.26360(15) 0.1843(3) 0.35543(19)
N11_2 N 0.33161(13) 0.4929(3) 0.08431(17)
H18_2 H 0.3188 0.5112 0.1199
H16 H 0.3749 0.3202 0.9812
N12_2 N 0.36260(13) 0.5208(3) 0.98920(16)
Cd6_2 Cd 0.364315(10) 0.59936(2) 0.873672(13)
H9_2 H -0.0000 0.9594 0.2500
O5_2 O 0.07977(13) 0.9298(3) 0.19604(18)
H14_2 H 0.3420 0.9240 0.0860
H15_2 H 0.3031 0.9262 0.1799
O6_2 O 0.04226(16) 0.7599(3) 0.0273(2)
N16_2 N 0.13740(13) 0.9792(3) 0.01080(16)
H19_2 H 0.000587078 0.797018 0.482923
H22_2 H 0.0599285 0.672175 0.0238104
C1_2 C 0.70208(14) 0.1268(3) 0.31425(19)
C2_2 C 0.69133(14) 0.2453(3) 0.34530(18)
H1_2 H 0.7002 0.3259 0.3283
C3_2 C 0.66744(15) 0.2445(3) 0.40163(19)
C4_2 C 0.65564(19) 0.1229(4) 0.4272(2)
H2_2 H 0.6403 0.1204 0.4653
C5_2 C 0.6664(2) 0.0046(3) 0.3965(3)
C6_2 C 0.68964(16) 0.0057(3) 0.3403(2)
C7_2 C 0.72583(15) 0.1287(3) 0.25318(19)
C8_2 C 0.65617(14) 0.3673(3) 0.43497(18)
C9_2 C 0.63683(18) 0.3872(3) 0.4939(2)
H5_2 H 0.6251 0.3202 0.5188
C10_2 C 0.65679(18) 0.5815(3) 0.4622(2)
H6_2 H 0.6616 0.6730 0.4606
C11_3 C 1.0000 0.3281(5) 0.2500
H7_3 H 1.0000 0.4205 0.2500
C12_2 C 0.97221(18) 0.2586(3) 0.2897(2)
H8_2 H 0.9539 0.3047 0.3166
C13_2 C 0.97188(15) 0.1217(3) 0.2892(2)
C14_3 C 1.0000 0.0519(4) 0.2500
C15_2 C 0.93980(14) 0.0469(3) 0.32939(19)
N1_2 N 0.76972(13) 0.0427(3) 0.25499(18)
N2_2 N 0.77484(16) 0.0805(3) 0.1863(2)
N3_2 N 0.73640(15) 0.1843(3) 0.14457(19)
N5_2 N 0.66839(13) 0.4929(3) 0.41569(17)
H10_2 H 0.6812 0.5112 0.3801
N6_2 N 0.63740(13) 0.5208(3) 0.51080(16)
O1_2 O 0.93057(16) 0.1055(2) 0.3847(2)
Cd5_2 Cd 0.635685(10) 0.59936(2) 0.626328(13)
H3_2 H 0.6580 0.9240 0.4140
H4_2 H 0.6969 0.9262 0.3201
H9_3 H 1.0000 0.9594 0.2500
O2_2 O 0.92023(13) 0.9298(3) 0.30396(18)
O3_2 O 0.95774(16) 0.7599(3) 0.4727(2)
N15_2 N 0.86260(13) 0.9792(3) 0.48920(16)
H19_3 H 0.999413 0.797018 0.0170775
C1_3 C 0.79792(14) 0.3732(3) 0.68575(19)
C2_3 C 0.80867(14) 0.2547(3) 0.65470(18)
H1_3 H 0.7998 0.1741 0.6717
C3_3 C 0.83256(15) 0.2555(3) 0.59837(19)
C4_3 C 0.84436(19) 0.3771(4) 0.5728(2)
H2_3 H 0.8597 0.3796 0.5347
C5_3 C 0.8336(2) 0.4954(3) 0.6035(3)
H3_3 H 0.8420 0.5760 0.5860
C6_3 C 0.81036(16) 0.4943(3) 0.6597(2)
H4_3 H 0.8031 0.5738 0.6799
C7_3 C 0.77417(15) 0.3713(3) 0.74682(19)
C8_3 C 0.84383(14) 0.1327(3) 0.56503(18)
C9_3 C 0.86317(18) 0.1128(3) 0.5061(2)
H5_3 H 0.8749 0.1798 0.4812
C11_4 C 0.5000 0.1719(5) 0.7500
H7_4 H 0.5000 0.0795 0.7500
C12_3 C 0.52779(18) 0.2414(3) 0.7103(2)
H8_3 H 0.5461 0.1953 0.6834
C13_3 C 0.52812(15) 0.3783(3) 0.7108(2)
C14_4 C 0.5000 0.4481(4) 0.7500
H9_4 H 0.5000 0.5406 0.7500
C15_3 C 0.56020(14) 0.4531(3) 0.67061(19)
N1_3 N 0.73028(13) 0.4573(3) 0.74501(18)
N2_3 N 0.72516(16) 0.4195(3) 0.8137(2)
N3_3 N 0.76360(15) 0.3157(3) 0.85543(19)
N4_2 N 0.79533(13) 0.2819(3) 0.81367(17)
N5_3 N 0.83161(13) 0.0071(3) 0.58431(17)
O1_3 O 0.56943(16) 0.3945(2) 0.6153(2)
O2_3 O 0.57977(13) 0.5702(3) 0.69604(18)
O3_3 O 0.54226(16) 0.7401(3) 0.5273(2)
C16_3 C 0.47221(18) 0.2414(3) 0.7897(2)
H11_3 H 0.4539 0.1953 0.8166
C17_3 C 0.47188(15) 0.3783(3) 0.7892(2)
C18_3 C 0.43980(14) 0.4531(3) 0.82939(19)
O4_3 O 0.43057(16) 0.3945(2) 0.8847(2)
O5_3 O 0.42023(13) 0.5702(3) 0.80396(18)
C19_3 C 0.20208(14) 0.3732(3) 0.81425(19)
C20_3 C 0.19133(14) 0.2547(3) 0.84530(18)
H12_3 H 0.2002 0.1741 0.8283
C21_3 C 0.16744(15) 0.2555(3) 0.90163(19)
C22_3 C 0.15564(19) 0.3771(4) 0.9272(2)
H13_3 H 0.1403 0.3796 0.9653
C23_3 C 0.1664(2) 0.4954(3) 0.8965(3)
H14_3 H 0.1580 0.5760 0.9140
C24_3 C 0.18964(16) 0.4943(3) 0.8403(2)
H15_3 H 0.1969 0.5738 0.8201
C25_3 C 0.22583(15) 0.3713(3) 0.75318(19)
C26_3 C 0.15617(14) 0.1327(3) 0.93497(18)
C27_3 C 0.13683(18) 0.1128(3) 0.9939(2)
N7_3 N 0.26972(13) 0.4573(3) 0.75499(18)
N8_3 N 0.27484(16) 0.4195(3) 0.6863(2)
N9_3 N 0.23640(15) 0.3157(3) 0.64457(19)
N10_2 N 0.20467(13) 0.2819(3) 0.68633(17)
N11_3 N 0.16839(13) 0.0071(3) 0.91569(17)
O6_3 O 0.45774(16) 0.7401(3) 0.9727(2)
N13_2 N 0.29533(13) 0.7819(3) 0.81367(17)
N14_2 N 0.70467(13) 0.7819(3) 0.68633(17)
H22_3 H 0.440071 0.827825 0.97619
C10_3 C 0.84321(18) 0.9185(3) 0.5378(2)
H6_3 H 0.8384 0.8270 0.5394
H10_3 H 0.8188 0.9888 0.6199
C28_3 C 0.15679(18) 0.9185(3) 0.9622(2)
H17_3 H 0.1616 0.8270 0.9606
H18_3 H 0.1812 0.9888 0.8801
H19_4 H 0.500587 0.702982 0.982923
H3_4 H 0.3420 0.0760 0.5860
H4_4 H 0.3031 0.0738 0.6799
H9_5 H 0.0000 0.0406 0.7500
O2_4 O 0.07977(13) 0.0702(3) 0.69604(18)
O3_4 O 0.04226(16) 0.2401(3) 0.5273(2)
C1_4 C 0.29792(14) 0.8732(3) 0.68575(19)
C2_4 C 0.30867(14) 0.7547(3) 0.65470(18)
H1_4 H 0.2998 0.6741 0.6717
C3_4 C 0.33256(15) 0.7555(3) 0.59837(19)
C4_4 C 0.34436(19) 0.8771(4) 0.5728(2)
H2_4 H 0.3597 0.8796 0.5347
C5_4 C 0.3336(2) 0.9954(3) 0.6035(3)
C6_4 C 0.31036(16) 0.9943(3) 0.6597(2)
C7_4 C 0.27417(15) 0.8713(3) 0.74682(19)
C8_4 C 0.34383(14) 0.6327(3) 0.56503(18)
C9_4 C 0.36317(18) 0.6128(3) 0.5061(2)
H5_4 H 0.3749 0.6798 0.4812
C10_4 C 0.34321(18) 0.4185(3) 0.5378(2)
H6_4 H 0.3384 0.3270 0.5394
C11_5 C 0.0000 0.6719(5) 0.7500
H7_5 H 0.0000 0.5795 0.7500
C12_4 C 0.02779(18) 0.7414(3) 0.7103(2)
H8_4 H 0.0461 0.6953 0.6834
C13_4 C 0.02812(15) 0.8783(3) 0.7108(2)
C14_5 C 0.0000 0.9481(4) 0.7500
C15_4 C 0.06020(14) 0.9531(3) 0.67061(19)
N1_4 N 0.23028(13) 0.9573(3) 0.74501(18)
N2_4 N 0.22516(16) 0.9195(3) 0.8137(2)
N3_4 N 0.26360(15) 0.8157(3) 0.85543(19)
N5_4 N 0.33161(13) 0.5071(3) 0.58431(17)
H10_4 H 0.3188 0.4888 0.6199
O1_4 O 0.06943(16) 0.8945(2) 0.6153(2)
H9_6 H 1.0000 0.0406 0.7500
O5_4 O 0.92023(13) 0.0702(3) 0.80396(18)
H14_4 H 0.6580 0.0760 0.9140
H15_4 H 0.6969 0.0738 0.8201
O6_4 O 0.95774(16) 0.2401(3) 0.9727(2)
H19_5 H 0.999413 0.202982 0.517077
H22_4 H 0.940071 0.327825 0.97619
H16_2 H 0.6251 0.6798 0.0188
C11_6 C 1.0000 0.6719(5) 0.7500
H7_6 H 1.0000 0.5795 0.7500
C14_6 C 1.0000 0.9481(4) 0.7500
C16_4 C 0.97221(18) 0.7414(3) 0.7897(2)
H11_4 H 0.9539 0.6953 0.8166
C17_4 C 0.97188(15) 0.8783(3) 0.7892(2)
C18_4 C 0.93980(14) 0.9531(3) 0.82939(19)
O4_4 O 0.93057(16) 0.8945(2) 0.8847(2)
C19_4 C 0.70208(14) 0.8732(3) 0.81425(19)
C20_4 C 0.69133(14) 0.7547(3) 0.84530(18)
H12_4 H 0.7002 0.6741 0.8283
C21_4 C 0.66744(15) 0.7555(3) 0.90163(19)
C22_4 C 0.65564(19) 0.8771(4) 0.9272(2)
H13_4 H 0.6403 0.8796 0.9653
C23_4 C 0.6664(2) 0.9954(3) 0.8965(3)
C24_4 C 0.68964(16) 0.9943(3) 0.8403(2)
C25_4 C 0.72583(15) 0.8713(3) 0.75318(19)
C26_4 C 0.65617(14) 0.6327(3) 0.93497(18)
C27_4 C 0.63683(18) 0.6128(3) 0.9939(2)
C28_4 C 0.65679(18) 0.4185(3) 0.9622(2)
H17_4 H 0.6616 0.3270 0.9606
N7_4 N 0.76972(13) 0.9573(3) 0.75499(18)
N8_4 N 0.77484(16) 0.9195(3) 0.6863(2)
N9_4 N 0.73640(15) 0.8157(3) 0.64457(19)
N11_4 N 0.66839(13) 0.5071(3) 0.91569(17)
H18_4 H 0.6812 0.4888 0.8801
H19_6 H 0.000587078 0.202982 0.982923
H16_3 H 0.8749 0.8202 0.9812
H21 H 0.51391 0.300126 0.964987
H20 H 0.536781 0.252943 0.967532
H21_2 H 0.0139096 0.800126 0.964987
H20_2 H 0.036781 0.752943 0.967532
H16_4 H 0.1251 0.1798 0.0188
H21_3 H 0.48609 0.699874 0.0350131
H20_3 H 0.463219 0.747057 0.0324685
H21_4 H 0.98609 0.199874 0.0350131
H20_4 H 0.963219 0.247057 0.0324685
loop_
_geom_bond_atom_site_label_1
_geom_bond_atom_site_label_2
_geom_bond_site_symmetry_1
_geom_bond_site_symmetry_2
C10 H6 1_555 1_555
C28 H17 1_555 1_555
Cd5 N6 1_555 1_555
C10 N6 1_555 1_555
Cd6 N12 1_555 1_555
Cd1 N1 1_555 1_555
C1 C2 1_555 1_555
C2 H1 1_555 1_555
C3 C2 1_555 1_555
C4 C3 1_555 1_555
H2 C4 1_555 1_555
C5 C4 1_555 1_555
H3 C5 1_555 1_555
C6 C1 1_555 1_555
H4 C6 1_555 1_555
C7 C1 1_555 1_555
C8 C3 1_555 1_555
C9 C8 1_555 1_555
H5 C9 1_555 1_555
C11 H7 1_555 1_555
C12 C11 1_555 1_555
H8 C12 1_555 1_555
C13 C12 1_555 1_555
C14 C13 1_555 1_555
H9 C14 1_555 1_555
C15 C13 1_555 1_555
N1 C7 1_555 1_555
N2 N1 1_555 1_555
N3 N2 1_555 1_555
N4 C7 1_555 1_555
N5 C8 1_555 1_555
O1 Cd1 1_555 1_555
O2 Cd1 1_555 1_555
O3 Cd1 1_555 1_555
C16 C11 1_555 1_555
H11 C16 1_555 1_555
C17 C14 1_555 1_555
C18 C17 1_555 1_555
O4 C18 1_555 1_555
O5 C18 1_555 1_555
Cd2 O4 1_555 1_555
C19 C20 1_555 1_555
C20 H12 1_555 1_555
C21 C20 1_555 1_555
C22 C21 1_555 1_555
H13 C22 1_555 1_555
C23 C22 1_555 1_555
H14 C23 1_555 1_555
C24 C19 1_555 1_555
H15 C24 1_555 1_555
C25 C19 1_555 1_555
C26 C21 1_555 1_555
C27 C26 1_555 1_555
N7 Cd2 1_555 1_555
N8 N7 1_555 1_555
N9 N8 1_555 1_555
N10 C25 1_555 1_555
N11 C26 1_555 1_555
O6 Cd2 1_555 1_555
Cd3 N10 1_555 1_555
Cd4 N4 1_555 1_555
N13 Cd2 1_555 1_555
N14 Cd1 1_555 1_555
N15 Cd1 1_555 1_555
N16 Cd2 1_555 1_555
C5 C6 1_555 1_555
C15 O1 1_555 1_555
C15 O2 1_555 1_555
N3 N4 1_555 1_555
C16 C17 1_555 1_555
O5 Cd2 1_555 1_555
C23 C24 1_555 1_555
C25 N7 1_555 1_555
N9 N10 1_555 1_555
O6 H22 1_555 1_555
O6 H19 1_555 1_555
C11_2 H7_2 1_555 1_555
C16_2 C11_2 1_555 1_555
H11_2 C16_2 1_555 1_555
C17_2 C14_2 1_555 1_555
C18_2 C17_2 1_555 1_555
O4_2 C18_2 1_555 1_555
C19_2 C20_2 1_555 1_555
C20_2 H12_2 1_555 1_555
C21_2 C20_2 1_555 1_555
C22_2 C21_2 1_555 1_555
H13_2 C22_2 1_555 1_555
C23_2 C22_2 1_555 1_555
C24_2 C19_2 1_555 1_555
C25_2 C19_2 1_555 1_555
C26_2 C21_2 1_555 1_555
C27_2 C26_2 1_555 1_555
C28_2 H17_2 1_555 1_555
N8_2 N7_2 1_555 1_555
N9_2 N8_2 1_555 1_555
N14 C25_2 1_555 1_555
N11_2 C26_2 1_555 1_555
H18_2 N11_2 1_555 1_555
C16_2 C17_2 1_555 1_555
C23_2 C24_2 1_555 1_555
C25_2 N7_2 1_555 1_555
C28_2 N11_2 1_555 1_555
N9_2 N14 1_555 1_555
Cd6_2 N12_2 1_555 1_555
O6_2 Cd4 1_555 1_555
N16_2 Cd4 1_555 1_555
O5_2 Cd4 1_555 1_555
O6_2 H22_2 1_555 1_555
C1_2 C2_2 1_555 1_555
C2_2 H1_2 1_555 1_555
C3_2 C2_2 1_555 1_555
C4_2 C3_2 1_555 1_555
H2_2 C4_2 1_555 1_555
C5_2 C4_2 1_555 1_555
C6_2 C1_2 1_555 1_555
C7_2 C1_2 1_555 1_555
C8_2 C3_2 1_555 1_555
C9_2 C8_2 1_555 1_555
H5_2 C9_2 1_555 1_555
C10_2 H6_2 1_555 1_555
C11_3 H7_3 1_555 1_555
C12_2 C11_3 1_555 1_555
H8_2 C12_2 1_555 1_555
C13_2 C12_2 1_555 1_555
C14_3 C13_2 1_555 1_555
C15_2 C13_2 1_555 1_555
N1_2 C7_2 1_555 1_555
N2_2 N1_2 1_555 1_555
N3_2 N2_2 1_555 1_555
N13 C7_2 1_555 1_555
N5_2 C8_2 1_555 1_555
H10_2 N5_2 1_555 1_555
N6_2 C9_2 1_555 1_555
Cd5_2 N6_2 1_555 1_555
C5_2 C6_2 1_555 1_555
C10_2 N5_2 1_555 1_555
C10_2 N6_2 1_555 1_555
C15_2 O1_2 1_555 1_555
N3_2 N13 1_555 1_555
O2_2 Cd3 1_555 1_555
O3_2 Cd3 1_555 1_555
N15_2 Cd3 1_555 1_555
Cd5_2 N1_3 1_555 1_555
C1_3 C2_3 1_555 1_555
C2_3 H1_3 1_555 1_555
C3_3 C2_3 1_555 1_555
C4_3 C3_3 1_555 1_555
H2_3 C4_3 1_555 1_555
C5_3 C4_3 1_555 1_555
H3_3 C5_3 1_555 1_555
C6_3 C1_3 1_555 1_555
H4_3 C6_3 1_555 1_555
C7_3 C1_3 1_555 1_555
C8_3 C3_3 1_555 1_555
C9_3 C8_3 1_555 1_555
H5_3 C9_3 1_555 1_555
C11_4 H7_4 1_555 1_555
C12_3 C11_4 1_555 1_555
H8_3 C12_3 1_555 1_555
C13_3 C12_3 1_555 1_555
C14_4 C13_3 1_555 1_555
H9_4 C14_4 1_555 1_555
C15_3 C13_3 1_555 1_555
N1_3 C7_3 1_555 1_555
N2_3 N1_3 1_555 1_555
N3_3 N2_3 1_555 1_555
N4_2 C7_3 1_555 1_555
N5_3 C8_3 1_555 1_555
O1_3 Cd5_2 1_555 1_555
O2_3 Cd5_2 1_555 1_555
O3_3 Cd5_2 1_555 1_555
C16_3 C11_4 1_555 1_555
H11_3 C16_3 1_555 1_555
C17_3 C14_4 1_555 1_555
C18_3 C17_3 1_555 1_555
O4_3 C18_3 1_555 1_555
O5_3 C18_3 1_555 1_555
Cd6_2 O4_3 1_555 1_555
C19_3 C20_3 1_555 1_555
C20_3 H12_3 1_555 1_555
C21_3 C20_3 1_555 1_555
C22_3 C21_3 1_555 1_555
H13_3 C22_3 1_555 1_555
C23_3 C22_3 1_555 1_555
H14_3 C23_3 1_555 1_555
C24_3 C19_3 1_555 1_555
H15_3 C24_3 1_555 1_555
C25_3 C19_3 1_555 1_555
C26_3 C21_3 1_555 1_555
C27_3 C26_3 1_555 1_555
N7_3 Cd6_2 1_555 1_555
N8_3 N7_3 1_555 1_555
N9_3 N8_3 1_555 1_555
N10_2 C25_3 1_555 1_555
N11_3 C26_3 1_555 1_555
O6_3 Cd6_2 1_555 1_555
Cd5 N10_2 1_555 1_555
Cd6 N4_2 1_555 1_555
N13_2 Cd6_2 1_555 1_555
N14_2 Cd5_2 1_555 1_555
C5_3 C6_3 1_555 1_555
C15_3 O1_3 1_555 1_555
C15_3 O2_3 1_555 1_555
N3_3 N4_2 1_555 1_555
C16_3 C17_3 1_555 1_555
O5_3 Cd6_2 1_555 1_555
C23_3 C24_3 1_555 1_555
C25_3 N7_3 1_555 1_555
N9_3 N10_2 1_555 1_555
O6_3 H22_3 1_555 1_555
C10_3 H6_3 1_555 1_555
C28_3 H17_3 1_555 1_555
C10_3 N15_2 1_555 1_555
O6_3 H19_4 1_555 1_555
O2_4 Cd5 1_555 1_555
O3_4 Cd5 1_555 1_555
C1_4 C2_4 1_555 1_555
C2_4 H1_4 1_555 1_555
C3_4 C2_4 1_555 1_555
C4_4 C3_4 1_555 1_555
H2_4 C4_4 1_555 1_555
C5_4 C4_4 1_555 1_555
C6_4 C1_4 1_555 1_555
C7_4 C1_4 1_555 1_555
C8_4 C3_4 1_555 1_555
C9_4 C8_4 1_555 1_555
H5_4 C9_4 1_555 1_555
C10_4 H6_4 1_555 1_555
C11_5 H7_5 1_555 1_555
C12_4 C11_5 1_555 1_555
H8_4 C12_4 1_555 1_555
C13_4 C12_4 1_555 1_555
C14_5 C13_4 1_555 1_555
C15_4 C13_4 1_555 1_555
N1_4 C7_4 1_555 1_555
N2_4 N1_4 1_555 1_555
N3_4 N2_4 1_555 1_555
N13_2 C7_4 1_555 1_555
N5_4 C8_4 1_555 1_555
H10_4 N5_4 1_555 1_555
N15 C9_4 1_555 1_555
C5_4 C6_4 1_555 1_555
C10_4 N5_4 1_555 1_555
C10_4 N15 1_555 1_555
C15_4 O1_4 1_555 1_555
N3_4 N13_2 1_555 1_555
O6_4 Cd6 1_555 1_555
O5_4 Cd6 1_555 1_555
O6_4 H22_4 1_555 1_555
C11_6 H7_6 1_555 1_555
C16_4 C11_6 1_555 1_555
H11_4 C16_4 1_555 1_555
C17_4 C14_6 1_555 1_555
C18_4 C17_4 1_555 1_555
O4_4 C18_4 1_555 1_555
C19_4 C20_4 1_555 1_555
C20_4 H12_4 1_555 1_555
C21_4 C20_4 1_555 1_555
C22_4 C21_4 1_555 1_555
H13_4 C22_4 1_555 1_555
C23_4 C22_4 1_555 1_555
C24_4 C19_4 1_555 1_555
C25_4 C19_4 1_555 1_555
C26_4 C21_4 1_555 1_555
C27_4 C26_4 1_555 1_555
C28_4 H17_4 1_555 1_555
N8_4 N7_4 1_555 1_555
N9_4 N8_4 1_555 1_555
N14_2 C25_4 1_555 1_555
N11_4 C26_4 1_555 1_555
H18_4 N11_4 1_555 1_555
C16_4 C17_4 1_555 1_555
C23_4 C24_4 1_555 1_555
C25_4 N7_4 1_555 1_555
C28_4 N11_4 1_555 1_555
N9_4 N14_2 1_555 1_555

#END
