
###############################################################################
#
# This file contains modified crystal structure data generated from the
# MOF subset of the Cambridge Structural Database (CSD) v543 
# hosted by the Cambridge Crystallographic Data Centre (CCDC).
#
# This work is licensed under the Creative Commons
# Attribution-NonCommercial-ShareAlike 4.0 International License.
# To view a copy of this license, visit
# http://creativecommons.org/licenses/by-nc-sa/4.0/
# or send a letter to
# Creative Commons, PO Box 1866, Mountain View, CA 94042, USA.
#
# CIF created using the CSD Python API on 29 September 2022
# The structure has been converted into the P1 space group
# The structure has a 3D framework
# The original CSD entry HIDTEW is in the triclinic crystal system
# The framework has been calculated to contain at least 10.0% void space
# The void calculation uses a probe of radius 1.32A, grid spacing 0.4
#
###############################################################################

data_HIDTEW
_chemical_formula_moiety         '(C18 H24 Co3 Mo8 N14 O32)n'
_symmetry_cell_setting           triclinic
_symmetry_space_group_name_H-M   'P 1'
_symmetry_Int_Tables_number      1
_space_group_name_Hall           'P 1'
loop_
_symmetry_equiv_pos_site_id
_symmetry_equiv_pos_as_xyz
1 x,y,z
_cell_length_a                   10.9150(4)
_cell_length_b                   12.4010(5)
_cell_length_c                   12.5140(5)
_cell_angle_alpha                107.4950(10)
_cell_angle_beta                 113.3740(10)
_cell_angle_gamma                102.0980(10)
_cell_volume                     1374.33
loop_
_atom_site_label
_atom_site_type_symbol
_atom_site_fract_x
_atom_site_fract_y
_atom_site_fract_z
_atom_site_U_iso_or_equiv
_atom_site_thermal_displace_type
H2 H 0.0071 0.9909 0.6584 0.0340 Uiso
C7 C 0.0120(8) 0.7614(7) 0.3764(7) 0.0211 Uani
C8 C 0.0743(10) 0.5680(8) 0.2806(10) 0.0373 Uani
C9 C 0.1382(9) 0.6806(8) 0.2905(9) 0.0286 Uani
H11 H 0.0993 0.5034 0.2482 0.0440 Uiso
H12 H 0.2040 0.6897 0.2611 0.0340 Uiso
N15 N 0.1110(7) 0.7790(6) 0.3405(6) 0.0209 Uani
Co6 Co 0.22315(11) 0.95854(10) 0.37226(10) 0.0170 Uani
O10 O 0.6676(6) 0.3651(5) 0.0718(5) 0.0305 Uani
O11 O 0.8388(5) 0.2304(5) 0.1430(5) 0.0205 Uani
O17 O 0.5704(5) 0.1219(5) 0.0468(5) 0.0157 Uani
Mo5 Mo 0.40467(7) 0.06450(6) 0.06532(6) 0.0139 Uani
Mo7 Mo 0.75950(7) 0.17622(6) 0.23826(6) 0.0146 Uani
O21 O 0.3892(6) 0.1939(5) 0.1434(5) 0.0250 Uani
O22 O 0.5893(5) 0.0762(5) 0.2318(5) 0.0165 Uani
O26 O 0.7663(6) 0.3150(5) 0.3280(5) 0.0262 Uani
O27 O 0.8951(6) 0.1524(5) 0.3419(5) 0.0234 Uani
N8 N 0.4765(7) 0.1336(6) 0.3894(6) 0.0159 Uani
Co4 Co 0.77685(11) 0.04146(10) 0.62774(10) 0.0170 Uani
O1 O 0.6750(5) 0.0519(5) 0.8862(5) 0.0150 Uani
Mo2 Mo 0.49558(7) 0.03619(6) 0.70281(6) 0.0140 Uani
Mo3 Mo 0.70042(8) 0.24532(6) 0.99709(6) 0.0180 Uani
O6 O 0.3320(6) 0.0002(5) 0.5725(5) 0.0204 Uani
O7 O 0.6230(5) 0.0944(5) 0.6640(5) 0.0169 Uani
O8 O 0.5165(5) 0.1740(5) 0.8289(5) 0.0186 Uani
O9 O 0.8149(6) 0.3049(6) 0.9507(5) 0.0321 Uani
O15 O 0.8836(6) 0.0581(5) 0.8165(5) 0.0278 Uani
N3 N 0.8890(7) 0.2210(6) 0.6595(6) 0.0209 Uani
H4 H 0.9663 0.1149 0.8660 0.0330 Uiso
H5 H 0.8299 0.0694 0.8494 0.0330 Uiso
O19 O 0.2718(5) 0.0114(5) 0.9074(5) 0.0183 Uani
O5 O 0.7282(5) 0.9886(5) 0.0926(5) 0.0183 Uani
Mo6 Mo 0.29958(8) 0.75468(6) 0.00291(6) 0.0180 Uani
O20 O 0.3250(5) 0.9481(5) 0.1138(5) 0.0150 Uani
O23 O 0.1851(6) 0.6951(6) 0.0493(5) 0.0321 Uani
O24 O 0.4835(5) 0.8260(5) 0.1711(5) 0.0186 Uani
Mo8 Mo 0.50442(7) 0.96381(6) 0.29719(6) 0.0140 Uani
O29 O 0.3770(5) 0.9056(5) 0.3360(5) 0.0169 Uani
O30 O 0.6680(6) 0.9998(5) 0.4275(5) 0.0204 Uani
Mo1 Mo 0.59533(7) 0.93550(6) 0.93468(6) 0.0139 Uani
O2 O 0.4296(5) 0.8781(5) 0.9532(5) 0.0157 Uani
O3 O 0.6108(6) 0.8061(5) 0.8566(5) 0.0250 Uani
O4 O 0.4107(5) 0.9238(5) 0.7682(5) 0.0165 Uani
Mo4 Mo 0.24050(7) 0.82378(6) 0.76174(6) 0.0146 Uani
N1 N 0.5235(7) 0.8664(6) 0.6106(6) 0.0159 Uani
O12 O 0.2337(6) 0.6850(5) 0.6720(5) 0.0262 Uani
O13 O 0.1049(6) 0.8476(5) 0.6581(5) 0.0234 Uani
N2 N 0.6291(7) 0.8656(6) 0.5764(6) 0.0159 Uani
C1 C 0.4504(8) 0.7513(7) 0.5781(7) 0.0193 Uani
O14 O 0.9291(6) 0.9845(5) 0.5985(6) 0.0281 Uani
C2 C 0.6114(8) 0.7503(7) 0.5261(7) 0.0183 Uani
N4 N 0.5004(7) 0.6741(6) 0.5256(7) 0.0216 Uani
H1 H 0.3725 0.7271 0.5906 0.0230 Uiso
H3 H 0.8954 0.9111 0.5430 0.0340 Uiso
C3 C 0.6916(9) 0.6906(7) 0.4764(8) 0.0204 Uani
Co2 Co 0.5000 0.5000 0.5000 0.0224 Uani
N5 N 0.6597(7) 0.5722(6) 0.4491(7) 0.0234 Uani
N6 N 0.7956(7) 0.7398(6) 0.4538(6) 0.0209 Uani
O16 O 0.3339(6) 0.4260(6) 0.3118(6) 0.0401 Uani
N7 N 0.7522(7) 0.5466(6) 0.4076(7) 0.0258 Uani
C4 C 0.8316(9) 0.6454(8) 0.4094(8) 0.0219 Uani
H6 H 0.3250 0.4440 0.2495 0.0480 Uiso
H7 H 0.2607 0.3630 0.2839 0.0480 Uiso
H8 H 0.7587 0.4764 0.3836 0.0310 Uiso
C5 C 0.9393(8) 0.6510(7) 0.3678(8) 0.0192 Uani
C6 C 0.9723(9) 0.5515(8) 0.3190(9) 0.0298 Uani
H9 H 0.9267 0.4756 0.3125 0.0360 Uiso
H10 H 0.9901 0.8280 0.4095 0.0250 Uiso
O18 O 0.1612(5) 0.7696(5) 0.8570(5) 0.0205 Uani
O25 O 0.3324(6) 0.6349(5) 0.9282(5) 0.0305 Uani
N9 N 0.4996(7) 0.3259(6) 0.4744(7) 0.0216 Uani
N10 N 0.3403(7) 0.4278(6) 0.5509(7) 0.0234 Uani
O31 O 0.6661(6) 0.5740(6) 0.6882(6) 0.0401 Uani
C10 C 0.5496(8) 0.2487(7) 0.4219(7) 0.0193 Uani
C11 C 0.3886(8) 0.2497(7) 0.4739(7) 0.0183 Uani
N11 N 0.2478(7) 0.4534(6) 0.5924(7) 0.0258 Uani
C12 C 0.3084(9) 0.3094(7) 0.5236(8) 0.0204 Uani
H13 H 0.6750 0.5560 0.7505 0.0480 Uiso
H14 H 0.7393 0.6370 0.7161 0.0480 Uiso
H15 H 0.6275 0.2729 0.4094 0.0230 Uiso
N13 N 0.3709(7) 0.1344(6) 0.4236(6) 0.0159 Uani
H16 H 0.2413 0.5236 0.6164 0.0310 Uiso
C13 C 0.1684(9) 0.3546(8) 0.5906(8) 0.0219 Uani
N14 N 0.2044(7) 0.2602(6) 0.5462(6) 0.0209 Uani
C14 C 0.0607(8) 0.3490(7) 0.6322(8) 0.0192 Uani
O33 O 0.0709(6) 0.0155(5) 0.4015(6) 0.0281 Uani
C15 C 0.0277(9) 0.4485(8) 0.6810(9) 0.0298 Uani
H18 H 0.1046 0.0889 0.4570 0.0340 Uiso
H21 H 0.0733 0.5244 0.6875 0.0360 Uiso
H22 H 0.0099 0.1720 0.5905 0.0250 Uiso
O34 O 0.1164(6) 0.9419(5) 0.1835(5) 0.0278 Uani
H19 H 0.0337 0.8851 0.1340 0.0330 Uiso
H20 H 0.1701 0.9306 0.1506 0.0330 Uiso
C16 C 0.9880(8) 0.2386(7) 0.6236(7) 0.0211 Uani
H17 H 0.9929 0.0091 0.3416 0.0340 Uiso
C17 C 0.9257(10) 0.4320(8) 0.7194(10) 0.0373 Uani
C18 C 0.8618(9) 0.3194(8) 0.7095(9) 0.0286 Uani
H23 H 0.9007 0.4966 0.7518 0.0440 Uiso
H24 H 0.7960 0.3103 0.7389 0.0340 Uiso
loop_
_atom_site_aniso_label
_atom_site_aniso_U_11
_atom_site_aniso_U_22
_atom_site_aniso_U_33
_atom_site_aniso_U_23
_atom_site_aniso_U_13
_atom_site_aniso_U_12
C7 0.02 0.015 0.027 0.005 0.016 0.001
C8 0.044 0.02 0.065 0.013 0.044 0.016
C9 0.026 0.02 0.041 0.006 0.025 0.004
N15 0.019 0.021 0.021 0.007 0.013 0.001
Co6 0.0154 0.0166 0.0193 0.0078 0.0099 0.0035
O10 0.039 0.016 0.025 0.003 0.011 0.008
O11 0.017 0.022 0.02 0.007 0.011 0.002
O17 0.016 0.014 0.017 0.005 0.011 0.002
Mo5 0.013 0.0151 0.0154 0.0077 0.0082 0.0044
Mo7 0.0109 0.0156 0.0137 0.0053 0.0054 0.0015
O21 0.027 0.027 0.022 0.009 0.013 0.012
O22 0.018 0.017 0.012 0.006 0.006 0.005
O26 0.025 0.021 0.028 0.006 0.016 0.001
O27 0.019 0.031 0.019 0.012 0.006 0.012
N8 0.021 0.017 0.013 0.005 0.013 0.006
Co4 0.0154 0.0166 0.0193 0.0078 0.0099 0.0035
O1 0.009 0.02 0.017 0.01 0.006 0.005
Mo2 0.0142 0.0152 0.0147 0.0078 0.0085 0.0045
Mo3 0.0198 0.0144 0.0168 0.0066 0.009 0.0013
O6 0.018 0.02 0.02 0.008 0.008 0.005
O7 0.021 0.015 0.024 0.012 0.016 0.008
O8 0.02 0.021 0.017 0.01 0.009 0.009
O9 0.031 0.031 0.028 0.013 0.016 -0.003
O15 0.015 0.041 0.024 0.011 0.01 0.008
N3 0.019 0.021 0.021 0.007 0.013 0.001
O19 0.018 0.018 0.016 0.006 0.007 0.006
O5 0.018 0.018 0.016 0.006 0.007 0.006
Mo6 0.0198 0.0144 0.0168 0.0066 0.009 0.0013
O20 0.009 0.02 0.017 0.01 0.006 0.005
O23 0.031 0.031 0.028 0.013 0.016 -0.003
O24 0.02 0.021 0.017 0.01 0.009 0.009
Mo8 0.0142 0.0152 0.0147 0.0078 0.0085 0.0045
O29 0.021 0.015 0.024 0.012 0.016 0.008
O30 0.018 0.02 0.02 0.008 0.008 0.005
Mo1 0.013 0.0151 0.0154 0.0077 0.0082 0.0044
O2 0.016 0.014 0.017 0.005 0.011 0.002
O3 0.027 0.027 0.022 0.009 0.013 0.012
O4 0.018 0.017 0.012 0.006 0.006 0.005
Mo4 0.0109 0.0156 0.0137 0.0053 0.0054 0.0015
N1 0.021 0.017 0.013 0.005 0.013 0.006
O12 0.025 0.021 0.028 0.006 0.016 0.001
O13 0.019 0.031 0.019 0.012 0.006 0.012
N2 0.019 0.019 0.018 0.01 0.014 0.009
C1 0.016 0.019 0.022 0.01 0.008 0.006
O14 0.022 0.022 0.038 0.01 0.015 0.008
C2 0.017 0.022 0.017 0.007 0.009 0.01
N4 0.023 0.015 0.037 0.013 0.024 0.004
C3 0.021 0.012 0.028 0.007 0.015 0.002
Co2 0.0253 0.0143 0.0313 0.009 0.0195 0.0041
N5 0.026 0.013 0.042 0.013 0.026 0.006
N6 0.021 0.017 0.029 0.01 0.017 0.005
O16 0.033 0.03 0.037 0.013 0.007 -0.002
N7 0.029 0.015 0.043 0.009 0.029 0.008
C4 0.024 0.023 0.021 0.01 0.015 0.004
C5 0.016 0.017 0.03 0.011 0.017 0.003
C6 0.034 0.014 0.05 0.014 0.029 0.007
O18 0.017 0.022 0.02 0.007 0.011 0.002
O25 0.039 0.016 0.025 0.003 0.011 0.008
N9 0.023 0.015 0.037 0.013 0.024 0.004
N10 0.026 0.013 0.042 0.013 0.026 0.006
O31 0.033 0.03 0.037 0.013 0.007 -0.002
C10 0.016 0.019 0.022 0.01 0.008 0.006
C11 0.017 0.022 0.017 0.007 0.009 0.01
N11 0.029 0.015 0.043 0.009 0.029 0.008
C12 0.021 0.012 0.028 0.007 0.015 0.002
N13 0.019 0.019 0.018 0.01 0.014 0.009
C13 0.024 0.023 0.021 0.01 0.015 0.004
N14 0.021 0.017 0.029 0.01 0.017 0.005
C14 0.016 0.017 0.03 0.011 0.017 0.003
O33 0.022 0.022 0.038 0.01 0.015 0.008
C15 0.034 0.014 0.05 0.014 0.029 0.007
O34 0.015 0.041 0.024 0.011 0.01 0.008
C16 0.02 0.015 0.027 0.005 0.016 0.001
C17 0.044 0.02 0.065 0.013 0.044 0.016
C18 0.026 0.02 0.041 0.006 0.025 0.004
loop_
_geom_bond_atom_site_label_1
_geom_bond_atom_site_label_2
_geom_bond_site_symmetry_1
_geom_bond_site_symmetry_2
C9 C8 1_555 1_555
H11 C8 1_555 1_555
H12 C9 1_555 1_555
N15 C7 1_555 1_555
Co6 N15 1_555 1_555
C9 N15 1_555 1_555
O21 Mo5 1_555 1_555
O22 Mo5 1_555 1_555
O26 Mo7 1_555 1_555
O27 Mo7 1_555 1_555
O11 Mo7 1_555 1_555
O17 Mo5 1_555 1_555
O17 Mo7 1_555 1_555
Mo7 O22 1_555 1_555
O1 Mo2 1_555 1_555
Mo3 O1 1_555 1_555
O6 Mo2 1_555 1_555
O7 Mo2 1_555 1_555
O8 Mo2 1_555 1_555
O9 Mo3 1_555 1_555
O15 H4 1_555 1_555
N3 Co4 1_555 1_555
H5 O15 1_555 1_555
Co4 O7 1_555 1_555
Mo3 O8 1_555 1_555
O15 Co4 1_555 1_555
O23 Mo6 1_555 1_555
O24 Mo6 1_555 1_555
Mo8 O20 1_555 1_555
O29 Mo8 1_555 1_555
O30 Mo8 1_555 1_555
Mo6 O20 1_555 1_555
O24 Mo8 1_555 1_555
O2 Mo1 1_555 1_555
O3 Mo1 1_555 1_555
O4 Mo1 1_555 1_555
Mo4 O2 1_555 1_555
O12 Mo4 1_555 1_555
O13 Mo4 1_555 1_555
N2 N1 1_555 1_555
C1 N1 1_555 1_555
C2 N2 1_555 1_555
N4 C1 1_555 1_555
H1 C1 1_555 1_555
H3 O14 1_555 1_555
C3 C2 1_555 1_555
Co2 N4 1_555 1_555
N5 C3 1_555 1_555
N6 C3 1_555 1_555
O16 Co2 1_555 1_555
N7 N5 1_555 1_555
C4 N6 1_555 1_555
H6 O16 1_555 1_555
H7 O16 1_555 1_555
H8 N7 1_555 1_555
C5 C4 1_555 1_555
C6 C5 1_555 1_555
H9 C6 1_555 1_555
O18 Mo4 1_555 1_555
N9 Co2 1_555 1_555
N10 Co2 1_555 1_555
O31 Co2 1_555 1_555
C10 N9 1_555 1_555
C11 N9 1_555 1_555
N11 N10 1_555 1_555
C12 N10 1_555 1_555
H13 O31 1_555 1_555
H14 O31 1_555 1_555
N8 C10 1_555 1_555
H15 C10 1_555 1_555
N13 C11 1_555 1_555
H16 N11 1_555 1_555
C13 N11 1_555 1_555
N14 C12 1_555 1_555
C14 C13 1_555 1_555
C15 C14 1_555 1_555
H18 O33 1_555 1_555
H21 C15 1_555 1_555
O4 Mo4 1_555 1_555
C2 N4 1_555 1_555
Co2 N5 1_555 1_555
N7 C4 1_555 1_555
C11 C12 1_555 1_555
N8 N13 1_555 1_555
C13 N14 1_555 1_555
O34 Co6 1_555 1_555
H19 O34 1_555 1_555
H20 O34 1_555 1_555
Co6 O29 1_555 1_555
N3 C16 1_555 1_555
C18 C17 1_555 1_555
H23 C17 1_555 1_555
H24 C18 1_555 1_555
N3 C18 1_555 1_555

#END
