
###############################################################################
#
# This file contains modified crystal structure data generated from the
# MOF subset of the Cambridge Structural Database (CSD) v543 
# hosted by the Cambridge Crystallographic Data Centre (CCDC).
#
# This work is licensed under the Creative Commons
# Attribution-NonCommercial-ShareAlike 4.0 International License.
# To view a copy of this license, visit
# http://creativecommons.org/licenses/by-nc-sa/4.0/
# or send a letter to
# Creative Commons, PO Box 1866, Mountain View, CA 94042, USA.
#
# CIF created using the CSD Python API on 29 September 2022
# The structure has been converted into the P1 space group
# The structure has a 3D framework
# The original CSD entry HIDTIA is in the triclinic crystal system
# The framework has been calculated to contain at least 10.0% void space
# The void calculation uses a probe of radius 1.32A, grid spacing 0.4
#
###############################################################################

data_HIDTIA
_chemical_formula_moiety         '(C18 H24 Mo8 N14 Ni3 O30)n'
_symmetry_cell_setting           triclinic
_symmetry_space_group_name_H-M   'P 1'
_symmetry_Int_Tables_number      1
_space_group_name_Hall           'P 1'
loop_
_symmetry_equiv_pos_site_id
_symmetry_equiv_pos_as_xyz
1 x,y,z
_cell_length_a                   10.8810(4)
_cell_length_b                   12.3290(5)
_cell_length_c                   12.4580(5)
_cell_angle_alpha                106.8430(10)
_cell_angle_beta                 113.5710(10)
_cell_angle_gamma                102.6890(10)
_cell_volume                     1354.64
loop_
_atom_site_label
_atom_site_type_symbol
_atom_site_fract_x
_atom_site_fract_y
_atom_site_fract_z
_atom_site_U_iso_or_equiv
_atom_site_thermal_displace_type
H2 H 0.0035 0.9885 0.6558 0.0320 Uiso
C7 C 0.0088(3) 0.7642(3) 0.3738(3) 0.0190 Uani
C8 C 0.0767(4) 0.5724(3) 0.2828(4) 0.0335 Uani
C9 C 0.1423(4) 0.6870(3) 0.2931(4) 0.0261 Uani
H11 H 0.1027 0.5081 0.2517 0.0410 Uiso
H12 H 0.2117 0.6981 0.2674 0.0310 Uiso
N15 N 0.1103(3) 0.7831(2) 0.3387(2) 0.0154 Uani
Ni6 Ni 0.22441(4) 0.96116(3) 0.37367(4) 0.0122 Uani
O10 O 0.6710(3) 0.3654(2) 0.0686(2) 0.0282 Uani
O11 O 0.8431(2) 0.23162(19) 0.1438(2) 0.0166 Uani
O17 O 0.5729(2) 0.12250(18) 0.0463(2) 0.0137 Uani
Mo5 Mo 0.40453(3) 0.06531(2) 0.06390(2) 0.0110 Uani
Mo7 Mo 0.76201(3) 0.17671(2) 0.23911(2) 0.0114 Uani
O21 O 0.3901(2) 0.1952(2) 0.1412(2) 0.0215 Uani
O22 O 0.5894(2) 0.07724(18) 0.23186(19) 0.0127 Uani
O26 O 0.7710(2) 0.31690(19) 0.3290(2) 0.0202 Uani
O27 O 0.8974(2) 0.1524(2) 0.3451(2) 0.0236 Uani
N8 N 0.4752(3) 0.1351(2) 0.3883(2) 0.0137 Uani
O30 O 0.6672(2) 0.00136(19) 0.4302(2) 0.0160 Uani
Ni4 Ni 0.77559(4) 0.03884(3) 0.62633(4) 0.0122 Uani
O1 O 0.6764(2) 0.05077(18) 0.8855(2) 0.0135 Uani
Mo2 Mo 0.49638(3) 0.03491(2) 0.70129(2) 0.0105 Uani
Mo3 Mo 0.70431(3) 0.24530(2) 0.99570(2) 0.0147 Uani
O7 O 0.6249(2) 0.09233(18) 0.6618(2) 0.0147 Uani
O8 O 0.5196(2) 0.17457(18) 0.8263(2) 0.0156 Uani
O9 O 0.8211(3) 0.3045(2) 0.9498(2) 0.0292 Uani
O15 O 0.8834(2) 0.0553(2) 0.8134(2) 0.0236 Uani
N3 N 0.8897(3) 0.2169(2) 0.6613(2) 0.0154 Uani
H4 H 0.9668 0.1126 0.8633 0.0350 Uiso
H5 H 0.8296 0.0665 0.8462 0.0350 Uiso
O19 O 0.2698(2) 0.01140(19) 0.9035(2) 0.0170 Uani
O5 O 0.7302(2) 0.98860(19) 0.0965(2) 0.0170 Uani
Mo6 Mo 0.29569(3) 0.75470(2) 0.00430(2) 0.0147 Uani
O20 O 0.3236(2) 0.94923(18) 0.1145(2) 0.0135 Uani
O23 O 0.1789(3) 0.6955(2) 0.0502(2) 0.0292 Uani
O24 O 0.4804(2) 0.82543(18) 0.1737(2) 0.0156 Uani
Mo8 Mo 0.50362(3) 0.96509(2) 0.29871(2) 0.0105 Uani
O29 O 0.3751(2) 0.90767(18) 0.3382(2) 0.0147 Uani
Mo1 Mo 0.59547(3) 0.93469(2) 0.93610(2) 0.0110 Uani
O2 O 0.4271(2) 0.87750(18) 0.9537(2) 0.0137 Uani
O3 O 0.6099(2) 0.8048(2) 0.8588(2) 0.0215 Uani
O4 O 0.4106(2) 0.92276(18) 0.76814(19) 0.0127 Uani
Mo4 Mo 0.23799(3) 0.82329(2) 0.76089(2) 0.0114 Uani
O6 O 0.3328(2) 0.99864(19) 0.5698(2) 0.0160 Uani
N1 N 0.5248(3) 0.8649(2) 0.6117(2) 0.0137 Uani
O12 O 0.2290(2) 0.68310(19) 0.6710(2) 0.0202 Uani
O13 O 0.1026(2) 0.8476(2) 0.6549(2) 0.0236 Uani
N2 N 0.6298(3) 0.8647(2) 0.5761(2) 0.0129 Uani
C1 C 0.4518(3) 0.7496(3) 0.5820(3) 0.0172 Uani
O14 O 0.9250(2) 0.9821(2) 0.5956(2) 0.0213 Uani
C2 C 0.6111(3) 0.7480(3) 0.5273(3) 0.0153 Uani
N4 N 0.5012(3) 0.6724(2) 0.5286(3) 0.0171 Uani
H1 H 0.3751 0.7252 0.5967 0.0210 Uiso
H3 H 0.8912 0.9086 0.5400 0.0320 Uiso
C3 C 0.6898(3) 0.6891(3) 0.4754(3) 0.0166 Uani
Ni2 Ni 0.5000 0.5000 0.5000 0.0166 Uani
N5 N 0.6589(3) 0.5711(2) 0.4504(3) 0.0211 Uani
N6 N 0.7916(3) 0.7381(2) 0.4496(3) 0.0174 Uani
O16 O 0.3345(3) 0.4281(2) 0.3114(3) 0.0364 Uani
N7 N 0.7487(3) 0.5442(2) 0.4067(3) 0.0207 Uani
C4 C 0.8276(3) 0.6444(3) 0.4061(3) 0.0171 Uani
H6 H 0.3255 0.4462 0.2486 0.0440 Uiso
H7 H 0.2605 0.3645 0.2832 0.0440 Uiso
H8 H 0.7545 0.4735 0.3828 0.0250 Uiso
C5 C 0.9369(3) 0.6518(3) 0.3655(3) 0.0166 Uani
C6 C 0.9715(4) 0.5536(3) 0.3194(4) 0.0265 Uani
H9 H 0.9256 0.4770 0.3130 0.0320 Uiso
H10 H 0.9855 0.8301 0.4054 0.0230 Uiso
O18 O 0.1569(2) 0.76838(19) 0.8562(2) 0.0166 Uani
O25 O 0.3290(3) 0.6346(2) 0.9314(2) 0.0282 Uani
N9 N 0.4988(3) 0.3276(2) 0.4714(3) 0.0171 Uani
N10 N 0.3411(3) 0.4289(2) 0.5496(3) 0.0211 Uani
O31 O 0.6655(3) 0.5719(2) 0.6886(3) 0.0364 Uani
C10 C 0.5482(3) 0.2504(3) 0.4180(3) 0.0172 Uani
C11 C 0.3889(3) 0.2520(3) 0.4727(3) 0.0153 Uani
N11 N 0.2513(3) 0.4558(2) 0.5933(3) 0.0207 Uani
C12 C 0.3102(3) 0.3109(3) 0.5246(3) 0.0166 Uani
H13 H 0.6745 0.5538 0.7514 0.0440 Uiso
H14 H 0.7395 0.6355 0.7168 0.0440 Uiso
H15 H 0.6249 0.2748 0.4033 0.0210 Uiso
N13 N 0.3702(3) 0.1353(2) 0.4239(2) 0.0129 Uani
H16 H 0.2455 0.5265 0.6172 0.0250 Uiso
C13 C 0.1724(3) 0.3556(3) 0.5939(3) 0.0171 Uani
N14 N 0.2084(3) 0.2619(2) 0.5504(3) 0.0174 Uani
C14 C 0.0631(3) 0.3482(3) 0.6345(3) 0.0166 Uani
O33 O 0.0750(2) 0.0179(2) 0.4044(2) 0.0213 Uani
C15 C 0.0285(4) 0.4464(3) 0.6806(4) 0.0265 Uani
H18 H 0.1088 0.0914 0.4600 0.0320 Uiso
H21 H 0.0744 0.5230 0.6870 0.0320 Uiso
H22 H 0.0145 0.1699 0.5946 0.0230 Uiso
O34 O 0.1166(2) 0.9447(2) 0.1866(2) 0.0236 Uani
H19 H 0.0332 0.8874 0.1367 0.0350 Uiso
H20 H 0.1704 0.9335 0.1538 0.0350 Uiso
C16 C 0.9912(3) 0.2358(3) 0.6262(3) 0.0190 Uani
H17 H 0.9965 0.0115 0.3442 0.0320 Uiso
C17 C 0.9233(4) 0.4276(3) 0.7172(4) 0.0335 Uani
C18 C 0.8577(4) 0.3130(3) 0.7069(4) 0.0261 Uani
H23 H 0.8973 0.4919 0.7483 0.0410 Uiso
H24 H 0.7883 0.3019 0.7326 0.0310 Uiso
loop_
_atom_site_aniso_label
_atom_site_aniso_U_11
_atom_site_aniso_U_22
_atom_site_aniso_U_33
_atom_site_aniso_U_23
_atom_site_aniso_U_13
_atom_site_aniso_U_12
C7 0.0202 0.0143 0.0258 0.0061 0.0166 0.0054
C8 0.04 0.0196 0.062 0.0147 0.043 0.0163
C9 0.0289 0.0198 0.04 0.0101 0.0282 0.0091
N15 0.0167 0.0127 0.0186 0.0062 0.0119 0.0034
Ni6 0.012 0.01131 0.01556 0.00608 0.00878 0.00392
O10 0.0382 0.0172 0.0249 0.006 0.0134 0.0117
O11 0.0131 0.019 0.0172 0.0077 0.0088 0.0027
O17 0.0139 0.0139 0.0174 0.0086 0.0102 0.0047
Mo5 0.01165 0.01127 0.01382 0.00673 0.00823 0.00537
Mo7 0.01057 0.01152 0.0124 0.0049 0.00657 0.00323
O21 0.0259 0.0179 0.0245 0.0087 0.0143 0.0119
O22 0.0139 0.013 0.0142 0.0076 0.0086 0.0047
O26 0.0227 0.0134 0.0269 0.0063 0.0177 0.0035
O27 0.0191 0.0298 0.0203 0.011 0.0067 0.0119
N8 0.0154 0.0133 0.0157 0.0051 0.0114 0.0056
O30 0.0172 0.0166 0.0154 0.0079 0.0086 0.0061
Ni4 0.012 0.01131 0.01556 0.00608 0.00878 0.00392
O1 0.0138 0.0139 0.0176 0.008 0.0109 0.0055
Mo2 0.01239 0.01046 0.01238 0.00595 0.00835 0.00497
Mo3 0.01796 0.01082 0.01443 0.00546 0.00855 0.00257
O7 0.0173 0.0127 0.02 0.0085 0.0132 0.0061
O8 0.02 0.0136 0.0165 0.0071 0.01 0.009
O9 0.0267 0.0331 0.0281 0.0156 0.0167 0.0025
O15 0.0184 0.0339 0.0205 0.0107 0.0115 0.0108
N3 0.0167 0.0127 0.0186 0.0062 0.0119 0.0034
O19 0.0172 0.0174 0.0175 0.008 0.0085 0.0078
O5 0.0172 0.0174 0.0175 0.008 0.0085 0.0078
Mo6 0.01796 0.01082 0.01443 0.00546 0.00855 0.00257
O20 0.0138 0.0139 0.0176 0.008 0.0109 0.0055
O23 0.0267 0.0331 0.0281 0.0156 0.0167 0.0025
O24 0.02 0.0136 0.0165 0.0071 0.01 0.009
Mo8 0.01239 0.01046 0.01238 0.00595 0.00835 0.00497
O29 0.0173 0.0127 0.02 0.0085 0.0132 0.0061
Mo1 0.01165 0.01127 0.01382 0.00673 0.00823 0.00537
O2 0.0139 0.0139 0.0174 0.0086 0.0102 0.0047
O3 0.0259 0.0179 0.0245 0.0087 0.0143 0.0119
O4 0.0139 0.013 0.0142 0.0076 0.0086 0.0047
Mo4 0.01057 0.01152 0.0124 0.0049 0.00657 0.00323
O6 0.0172 0.0166 0.0154 0.0079 0.0086 0.0061
N1 0.0154 0.0133 0.0157 0.0051 0.0114 0.0056
O12 0.0227 0.0134 0.0269 0.0063 0.0177 0.0035
O13 0.0191 0.0298 0.0203 0.011 0.0067 0.0119
N2 0.0136 0.0131 0.0175 0.0074 0.0117 0.0056
C1 0.0176 0.0127 0.0239 0.0072 0.014 0.0036
O14 0.015 0.0152 0.034 0.0078 0.0137 0.0066
C2 0.0195 0.0128 0.0199 0.0074 0.0149 0.0065
N4 0.0213 0.0103 0.0247 0.0063 0.0173 0.0047
C3 0.0185 0.0139 0.0252 0.0094 0.0161 0.0076
Ni2 0.02 0.0093 0.0254 0.0069 0.0165 0.0044
N5 0.0248 0.0157 0.0357 0.0123 0.0244 0.0096
N6 0.0206 0.0132 0.0246 0.0071 0.0174 0.006
O16 0.0404 0.0255 0.0304 0.0107 0.0106 0.0054
N7 0.0257 0.0101 0.0368 0.0091 0.0248 0.008
C4 0.0183 0.0116 0.0251 0.0074 0.0155 0.0032
C5 0.0153 0.0137 0.0231 0.0069 0.0131 0.0035
C6 0.0322 0.0133 0.044 0.0104 0.0295 0.0076
O18 0.0131 0.019 0.0172 0.0077 0.0088 0.0027
O25 0.0382 0.0172 0.0249 0.006 0.0134 0.0117
N9 0.0213 0.0103 0.0247 0.0063 0.0173 0.0047
N10 0.0248 0.0157 0.0357 0.0123 0.0244 0.0096
O31 0.0404 0.0255 0.0304 0.0107 0.0106 0.0054
C10 0.0176 0.0127 0.0239 0.0072 0.014 0.0036
C11 0.0195 0.0128 0.0199 0.0074 0.0149 0.0065
N11 0.0257 0.0101 0.0368 0.0091 0.0248 0.008
C12 0.0185 0.0139 0.0252 0.0094 0.0161 0.0076
N13 0.0136 0.0131 0.0175 0.0074 0.0117 0.0056
C13 0.0183 0.0116 0.0251 0.0074 0.0155 0.0032
N14 0.0206 0.0132 0.0246 0.0071 0.0174 0.006
C14 0.0153 0.0137 0.0231 0.0069 0.0131 0.0035
O33 0.015 0.0152 0.034 0.0078 0.0137 0.0066
C15 0.0322 0.0133 0.044 0.0104 0.0295 0.0076
O34 0.0184 0.0339 0.0205 0.0107 0.0115 0.0108
C16 0.0202 0.0143 0.0258 0.0061 0.0166 0.0054
C17 0.04 0.0196 0.062 0.0147 0.043 0.0163
C18 0.0289 0.0198 0.04 0.0101 0.0282 0.0091
loop_
_geom_bond_atom_site_label_1
_geom_bond_atom_site_label_2
_geom_bond_site_symmetry_1
_geom_bond_site_symmetry_2
C9 C8 1_555 1_555
H11 C8 1_555 1_555
H12 C9 1_555 1_555
N15 C7 1_555 1_555
Ni6 N15 1_555 1_555
C9 N15 1_555 1_555
O21 Mo5 1_555 1_555
O22 Mo5 1_555 1_555
O26 Mo7 1_555 1_555
O27 Mo7 1_555 1_555
Ni4 O30 1_555 1_555
O11 Mo7 1_555 1_555
O17 Mo5 1_555 1_555
O17 Mo7 1_555 1_555
Mo7 O22 1_555 1_555
O1 Mo2 1_555 1_555
Mo3 O1 1_555 1_555
O7 Mo2 1_555 1_555
O8 Mo2 1_555 1_555
O9 Mo3 1_555 1_555
O15 H4 1_555 1_555
N3 Ni4 1_555 1_555
H5 O15 1_555 1_555
Ni4 O7 1_555 1_555
Mo3 O8 1_555 1_555
O15 Ni4 1_555 1_555
O23 Mo6 1_555 1_555
O24 Mo6 1_555 1_555
Mo8 O20 1_555 1_555
O29 Mo8 1_555 1_555
Mo6 O20 1_555 1_555
O24 Mo8 1_555 1_555
O2 Mo1 1_555 1_555
O3 Mo1 1_555 1_555
O4 Mo1 1_555 1_555
Mo4 O2 1_555 1_555
O12 Mo4 1_555 1_555
O13 Mo4 1_555 1_555
Ni6 O6 1_555 1_555
N2 N1 1_555 1_555
C1 N1 1_555 1_555
C2 N2 1_555 1_555
N4 C1 1_555 1_555
H1 C1 1_555 1_555
H3 O14 1_555 1_555
C3 C2 1_555 1_555
Ni2 N4 1_555 1_555
N5 C3 1_555 1_555
N6 C3 1_555 1_555
O16 Ni2 1_555 1_555
N7 N5 1_555 1_555
C4 N6 1_555 1_555
H6 O16 1_555 1_555
H7 O16 1_555 1_555
H8 N7 1_555 1_555
C5 C4 1_555 1_555
C6 C5 1_555 1_555
H9 C6 1_555 1_555
O18 Mo4 1_555 1_555
N9 Ni2 1_555 1_555
N10 Ni2 1_555 1_555
O31 Ni2 1_555 1_555
C10 N9 1_555 1_555
C11 N9 1_555 1_555
N11 N10 1_555 1_555
C12 N10 1_555 1_555
H13 O31 1_555 1_555
H14 O31 1_555 1_555
N8 C10 1_555 1_555
H15 C10 1_555 1_555
N13 C11 1_555 1_555
H16 N11 1_555 1_555
C13 N11 1_555 1_555
N14 C12 1_555 1_555
C14 C13 1_555 1_555
C15 C14 1_555 1_555
H18 O33 1_555 1_555
H21 C15 1_555 1_555
O4 Mo4 1_555 1_555
C2 N4 1_555 1_555
Ni2 N5 1_555 1_555
N7 C4 1_555 1_555
C11 C12 1_555 1_555
N8 N13 1_555 1_555
C13 N14 1_555 1_555
O34 Ni6 1_555 1_555
H19 O34 1_555 1_555
H20 O34 1_555 1_555
Ni6 O29 1_555 1_555
N3 C16 1_555 1_555
C18 C17 1_555 1_555
H23 C17 1_555 1_555
H24 C18 1_555 1_555
N3 C18 1_555 1_555

#END
