
###############################################################################
#
# This file contains modified crystal structure data generated from the
# MOF subset of the Cambridge Structural Database (CSD) v543 
# hosted by the Cambridge Crystallographic Data Centre (CCDC).
#
# This work is licensed under the Creative Commons
# Attribution-NonCommercial-ShareAlike 4.0 International License.
# To view a copy of this license, visit
# http://creativecommons.org/licenses/by-nc-sa/4.0/
# or send a letter to
# Creative Commons, PO Box 1866, Mountain View, CA 94042, USA.
#
# CIF created using the CSD Python API on 29 September 2022
# The structure has been converted into the P1 space group
# The structure has a 3D framework
# The original CSD entry HIFVEZ is in the orthorhombic crystal system
# The framework has been calculated to contain at least 10.0% void space
# The void calculation uses a probe of radius 1.32A, grid spacing 0.4
# The framework is charged, counterions have been retained in the structure
#
###############################################################################

data_HIFVEZ
_chemical_formula_moiety         '(C86 H64 Au6 Cu6 N28 6+)n'
_symmetry_cell_setting           triclinic
_symmetry_space_group_name_H-M   'P 1'
_symmetry_Int_Tables_number      1
_space_group_name_Hall           'P 1'
loop_
_symmetry_equiv_pos_site_id
_symmetry_equiv_pos_as_xyz
1 x,y,z
_cell_length_a                   15.1343(4)
_cell_length_b                   16.3411(4)
_cell_length_c                   11.1500(3)
_cell_angle_alpha                90
_cell_angle_beta                 90
_cell_angle_gamma                90
_cell_volume                     2757.52
loop_
_atom_site_label
_atom_site_type_symbol
_atom_site_fract_x
_atom_site_fract_y
_atom_site_fract_z
Cu3 Cu -0.0000 0.83334(10) 0.2500
Au1 Au 0.5000 0.31683(4) 0.7500
Cu1 Cu 0.5000 0.33334(10) 0.2500
N1 N 0.5000 0.3295(6) 0.4709(9)
N2 N 0.5953(5) 0.2463(5) 0.2500
C1 C 0.5000 0.3219(7) 0.5733(10)
C2 C 0.5861(7) 0.1819(6) 0.1733(8)
C3 C 0.6448(6) 0.1186(7) 0.1701(9)
C4 C 0.7207(6) 0.1198(6) 0.2500
C5 C 0.7856(6) 0.0534(5) 0.2500
C6 C 0.8442(6) 0.0432(7) 0.1656(9)
H1 H 0.5344 0.1888 0.1244
H2 H 0.6454 0.0716 0.1192
H3 H 0.8389 0.0716 0.0907
C8 C 0.5861(7) 0.1819(6) 0.3267(8)
C9 C 0.6448(6) 0.1186(7) 0.3299(9)
C10 C 0.8442(6) 0.0432(7) 0.3344(9)
H5 H 0.5344 0.1888 0.3756
H6 H 0.6454 0.0716 0.3808
H7 H 0.8389 0.0716 0.4093
N4 N 0.4047(5) 0.2463(5) 0.2500
C12 C 0.4139(7) 0.1819(6) 0.1733(8)
C13 C 0.3552(6) 0.1186(7) 0.1701(9)
C14 C 0.2793(6) 0.1198(6) 0.2500
C15 C 0.2144(6) 0.0534(5) 0.2500
C16 C 0.1558(6) 0.0432(7) 0.1656(9)
H9 H 0.4656 0.1888 0.1244
H10 H 0.3546 0.0716 0.1192
H11 H 0.1611 0.0716 0.0907
C18 C 0.4139(7) 0.1819(6) 0.3267(8)
C19 C 0.3552(6) 0.1186(7) 0.3299(9)
C20 C 0.1558(6) 0.0432(7) 0.3344(9)
H13 H 0.4656 0.1888 0.3756
H14 H 0.3546 0.0716 0.3808
H15 H 0.1611 0.0716 0.4093
N6 N 0.5000 0.3295(6) 0.0291(9)
N7 N 0.4060(5) 0.4231(4) 0.2500
N8 N 0.5940(5) 0.4231(4) 0.2500
C23 C 0.5000 0.3219(7) 0.9267(10)
N3 N 0.9060(5) 0.9231(4) 0.2500
C7 C 0.9026(8) 0.9784(6) 0.1678(10)
H4 H 0.9346 0.9704 0.0946
C11 C 0.9026(8) 0.9784(6) 0.3322(10)
H8 H 0.9346 0.9704 0.4054
N5 N 0.0940(5) 0.9231(4) 0.2500
C17 C 0.0974(8) 0.9784(6) 0.1678(10)
H12 H 0.0654 0.9704 0.0946
C21 C 0.0974(8) 0.9784(6) 0.3322(10)
H16 H 0.0654 0.9704 0.4054
Cu3_2 Cu 1.0000 0.83334(10) 0.2500
Au1_2 Au -0.0000 0.81683(4) 0.7500
N1_2 N -0.0000 0.8295(6) 0.4709(9)
N2_2 N 0.0953(5) 0.7463(5) 0.2500
C1_2 C -0.0000 0.8219(7) 0.5733(10)
C2_2 C 0.0861(7) 0.6819(6) 0.1733(8)
C3_2 C 0.1448(6) 0.6186(7) 0.1701(9)
C4_2 C 0.2207(6) 0.6198(6) 0.2500
C5_2 C 0.2856(6) 0.5534(5) 0.2500
C6_2 C 0.3442(6) 0.5432(7) 0.1656(9)
C7_2 C 0.4026(8) 0.4784(6) 0.1678(10)
H1_2 H 0.0344 0.6888 0.1244
H2_2 H 0.1454 0.5716 0.1192
H3_2 H 0.3389 0.5716 0.0907
H4_2 H 0.4346 0.4704 0.0946
C8_2 C 0.0861(7) 0.6819(6) 0.3267(8)
C9_2 C 0.1448(6) 0.6186(7) 0.3299(9)
C10_2 C 0.3442(6) 0.5432(7) 0.3344(9)
C11_2 C 0.4026(8) 0.4784(6) 0.3322(10)
H5_2 H 0.0344 0.6888 0.3756
H6_2 H 0.1454 0.5716 0.3808
H7_2 H 0.3389 0.5716 0.4093
H8_2 H 0.4346 0.4704 0.4054
N6_2 N -0.0000 0.8295(6) 0.0291(9)
C23_2 C -0.0000 0.8219(7) 0.9267(10)
Au1_3 Au 1.0000 0.81683(4) 0.7500
N1_3 N 1.0000 0.8295(6) 0.4709(9)
C1_3 C 1.0000 0.8219(7) 0.5733(10)
N4_2 N 0.9047(5) 0.7463(5) 0.2500
C12_2 C 0.9139(7) 0.6819(6) 0.1733(8)
C13_2 C 0.8552(6) 0.6186(7) 0.1701(9)
C14_2 C 0.7793(6) 0.6198(6) 0.2500
C15_2 C 0.7144(6) 0.5534(5) 0.2500
C16_2 C 0.6558(6) 0.5432(7) 0.1656(9)
C17_2 C 0.5974(8) 0.4784(6) 0.1678(10)
H9_2 H 0.9656 0.6888 0.1244
H10_2 H 0.8546 0.5716 0.1192
H11_2 H 0.6611 0.5716 0.0907
H12_2 H 0.5654 0.4704 0.0946
C18_2 C 0.9139(7) 0.6819(6) 0.3267(8)
C19_2 C 0.8552(6) 0.6186(7) 0.3299(9)
C20_2 C 0.6558(6) 0.5432(7) 0.3344(9)
C21_2 C 0.5974(8) 0.4784(6) 0.3322(10)
H13_2 H 0.9656 0.6888 0.3756
H14_2 H 0.8546 0.5716 0.3808
H15_2 H 0.6611 0.5716 0.4093
H16_2 H 0.5654 0.4704 0.4054
N6_3 N 1.0000 0.8295(6) 0.0291(9)
C23_3 C 1.0000 0.8219(7) 0.9267(10)
Cu3_3 Cu -0.0000 0.16666(10) 0.7500
N3_2 N 0.9060(5) 0.0769(4) 0.7500
C7_3 C 0.9026(8) 0.0216(6) 0.8322(10)
H4_3 H 0.9346 0.0296 0.9054
C11_3 C 0.9026(8) 0.0216(6) 0.6678(10)
H8_3 H 0.9346 0.0296 0.5946
N5_2 N 0.0940(5) 0.0769(4) 0.7500
C17_3 C 0.0974(8) 0.0216(6) 0.8322(10)
H12_3 H 0.0654 0.0296 0.9054
C21_3 C 0.0974(8) 0.0216(6) 0.6678(10)
H16_3 H 0.0654 0.0296 0.5946
Cu3_4 Cu 1.0000 0.16666(10) 0.7500
C22 C 0.5000 0.6781(7) 0.0733(10)
Au2 Au 0.5000 0.68317(4) 0.2500
Cu1_2 Cu 0.5000 0.66666(10) 0.7500
N1_4 N 0.5000 0.6705(6) 0.5291(9)
N2_3 N 0.5953(5) 0.7537(5) 0.7500
C1_4 C 0.5000 0.6781(7) 0.4267(10)
C2_3 C 0.5861(7) 0.8181(6) 0.8267(8)
C3_3 C 0.6448(6) 0.8814(7) 0.8299(9)
C4_3 C 0.7207(6) 0.8802(6) 0.7500
C5_3 C 0.7856(6) 0.9466(5) 0.7500
C6_3 C 0.8442(6) 0.9568(7) 0.8344(9)
H1_3 H 0.5344 0.8112 0.8756
H2_3 H 0.6454 0.9284 0.8808
H3_3 H 0.8389 0.9284 0.9093
C8_3 C 0.5861(7) 0.8181(6) 0.6733(8)
C9_3 C 0.6448(6) 0.8814(7) 0.6701(9)
C10_3 C 0.8442(6) 0.9568(7) 0.6656(9)
H5_3 H 0.5344 0.8112 0.6244
H6_3 H 0.6454 0.9284 0.6192
H7_3 H 0.8389 0.9284 0.5907
N4_3 N 0.4047(5) 0.7537(5) 0.7500
C12_3 C 0.4139(7) 0.8181(6) 0.8267(8)
C13_3 C 0.3552(6) 0.8814(7) 0.8299(9)
C14_3 C 0.2793(6) 0.8802(6) 0.7500
C15_3 C 0.2144(6) 0.9466(5) 0.7500
C16_3 C 0.1558(6) 0.9568(7) 0.8344(9)
H9_3 H 0.4656 0.8112 0.8756
H10_3 H 0.3546 0.9284 0.8808
H11_3 H 0.1611 0.9284 0.9093
C18_3 C 0.4139(7) 0.8181(6) 0.6733(8)
C19_3 C 0.3552(6) 0.8814(7) 0.6701(9)
C20_3 C 0.1558(6) 0.9568(7) 0.6656(9)
H13_3 H 0.4656 0.8112 0.6244
H14_3 H 0.3546 0.9284 0.6192
H15_3 H 0.1611 0.9284 0.5907
N6_4 N 0.5000 0.6705(6) 0.9709(9)
N7_2 N 0.4060(5) 0.5769(4) 0.7500
N8_2 N 0.5940(5) 0.5769(4) 0.7500
C22_2 C -0.0000 0.1781(7) 0.0733(10)
Au2_2 Au -0.0000 0.18317(4) 0.2500
N1_5 N -0.0000 0.1705(6) 0.5291(9)
N2_4 N 0.0953(5) 0.2537(5) 0.7500
C1_5 C -0.0000 0.1781(7) 0.4267(10)
C2_4 C 0.0861(7) 0.3181(6) 0.8267(8)
C3_4 C 0.1448(6) 0.3814(7) 0.8299(9)
C4_4 C 0.2207(6) 0.3802(6) 0.7500
C5_4 C 0.2856(6) 0.4466(5) 0.7500
C6_4 C 0.3442(6) 0.4568(7) 0.8344(9)
C7_4 C 0.4026(8) 0.5216(6) 0.8322(10)
H1_4 H 0.0344 0.3112 0.8756
H2_4 H 0.1454 0.4284 0.8808
H3_4 H 0.3389 0.4284 0.9093
H4_4 H 0.4346 0.5296 0.9054
C8_4 C 0.0861(7) 0.3181(6) 0.6733(8)
C9_4 C 0.1448(6) 0.3814(7) 0.6701(9)
C10_4 C 0.3442(6) 0.4568(7) 0.6656(9)
C11_4 C 0.4026(8) 0.5216(6) 0.6678(10)
H5_4 H 0.0344 0.3112 0.6244
H6_4 H 0.1454 0.4284 0.6192
H7_4 H 0.3389 0.4284 0.5907
H8_4 H 0.4346 0.5296 0.5946
N6_5 N -0.0000 0.1705(6) 0.9709(9)
C22_3 C 1.0000 0.1781(7) 0.0733(10)
Au2_3 Au 1.0000 0.18317(4) 0.2500
N1_6 N 1.0000 0.1705(6) 0.5291(9)
C1_6 C 1.0000 0.1781(7) 0.4267(10)
N4_4 N 0.9047(5) 0.2537(5) 0.7500
C12_4 C 0.9139(7) 0.3181(6) 0.8267(8)
C13_4 C 0.8552(6) 0.3814(7) 0.8299(9)
C14_4 C 0.7793(6) 0.3802(6) 0.7500
C15_4 C 0.7144(6) 0.4466(5) 0.7500
C16_4 C 0.6558(6) 0.4568(7) 0.8344(9)
C17_4 C 0.5974(8) 0.5216(6) 0.8322(10)
H9_4 H 0.9656 0.3112 0.8756
H10_4 H 0.8546 0.4284 0.8808
H11_4 H 0.6611 0.4284 0.9093
H12_4 H 0.5654 0.5296 0.9054
C18_4 C 0.9139(7) 0.3181(6) 0.6733(8)
C19_4 C 0.8552(6) 0.3814(7) 0.6701(9)
C20_4 C 0.6558(6) 0.4568(7) 0.6656(9)
C21_4 C 0.5974(8) 0.5216(6) 0.6678(10)
H13_4 H 0.9656 0.3112 0.6244
H14_4 H 0.8546 0.4284 0.6192
H15_4 H 0.6611 0.4284 0.5907
H16_4 H 0.5654 0.5296 0.5946
N6_6 N 1.0000 0.1705(6) 0.9709(9)
loop_
_geom_bond_atom_site_label_1
_geom_bond_atom_site_label_2
_geom_bond_site_symmetry_1
_geom_bond_site_symmetry_2
Au1 C1 1_555 1_555
Cu1 N1 1_555 1_555
N1 C1 1_555 1_555
N2 Cu1 1_555 1_555
C2 N2 1_555 1_555
C3 C2 1_555 1_555
C4 C3 1_555 1_555
C5 C4 1_555 1_555
C6 C5 1_555 1_555
H1 C2 1_555 1_555
H2 C3 1_555 1_555
H3 C6 1_555 1_555
C8 N2 1_555 1_555
C9 C4 1_555 1_555
C10 C5 1_555 1_555
H5 C8 1_555 1_555
H6 C9 1_555 1_555
H7 C10 1_555 1_555
N4 Cu1 1_555 1_555
C12 N4 1_555 1_555
C13 C12 1_555 1_555
C14 C13 1_555 1_555
C15 C14 1_555 1_555
C16 C15 1_555 1_555
H9 C12 1_555 1_555
H10 C13 1_555 1_555
H11 C16 1_555 1_555
C18 N4 1_555 1_555
C19 C14 1_555 1_555
C20 C15 1_555 1_555
H13 C18 1_555 1_555
H14 C19 1_555 1_555
H15 C20 1_555 1_555
N6 Cu1 1_555 1_555
N7 Cu1 1_555 1_555
N8 Cu1 1_555 1_555
C23 Au1 1_555 1_555
C8 C9 1_555 1_555
C18 C19 1_555 1_555
N3 C7 1_555 1_555
H4 C7 1_555 1_555
C11 N3 1_555 1_555
H8 C11 1_555 1_555
N5 C17 1_555 1_555
H12 C17 1_555 1_555
C21 N5 1_555 1_555
H16 C21 1_555 1_555
Cu3 N5 1_555 1_555
Cu3_2 N3 1_555 1_555
Au1_2 C1_2 1_555 1_555
Cu3 N1_2 1_555 1_555
N1_2 C1_2 1_555 1_555
N2_2 Cu3 1_555 1_555
N7 C7_2 1_555 1_555
C2_2 N2_2 1_555 1_555
C3_2 C2_2 1_555 1_555
C4_2 C3_2 1_555 1_555
C5_2 C4_2 1_555 1_555
C6_2 C5_2 1_555 1_555
C7_2 C6_2 1_555 1_555
H1_2 C2_2 1_555 1_555
H2_2 C3_2 1_555 1_555
H3_2 C6_2 1_555 1_555
H4_2 C7_2 1_555 1_555
C8_2 N2_2 1_555 1_555
C9_2 C4_2 1_555 1_555
C10_2 C5_2 1_555 1_555
C11_2 N7 1_555 1_555
H5_2 C8_2 1_555 1_555
H6_2 C9_2 1_555 1_555
H7_2 C10_2 1_555 1_555
H8_2 C11_2 1_555 1_555
N6_2 Cu3 1_555 1_555
C23_2 Au1_2 1_555 1_555
C8_2 C9_2 1_555 1_555
C10_2 C11_2 1_555 1_555
Au1_3 C1_3 1_555 1_555
Cu3_2 N1_3 1_555 1_555
N1_3 C1_3 1_555 1_555
N4_2 Cu3_2 1_555 1_555
N8 C17_2 1_555 1_555
C12_2 N4_2 1_555 1_555
C13_2 C12_2 1_555 1_555
C14_2 C13_2 1_555 1_555
C15_2 C14_2 1_555 1_555
C16_2 C15_2 1_555 1_555
C17_2 C16_2 1_555 1_555
H9_2 C12_2 1_555 1_555
H10_2 C13_2 1_555 1_555
H11_2 C16_2 1_555 1_555
H12_2 C17_2 1_555 1_555
C18_2 N4_2 1_555 1_555
C19_2 C14_2 1_555 1_555
C20_2 C15_2 1_555 1_555
C21_2 N8 1_555 1_555
H13_2 C18_2 1_555 1_555
H14_2 C19_2 1_555 1_555
H15_2 C20_2 1_555 1_555
H16_2 C21_2 1_555 1_555
N6_3 Cu3_2 1_555 1_555
C23_3 Au1_3 1_555 1_555
C18_2 C19_2 1_555 1_555
C20_2 C21_2 1_555 1_555
N3_2 C7_3 1_555 1_555
H4_3 C7_3 1_555 1_555
C11_3 N3_2 1_555 1_555
H8_3 C11_3 1_555 1_555
N5_2 C17_3 1_555 1_555
H12_3 C17_3 1_555 1_555
C21_3 N5_2 1_555 1_555
H16_3 C21_3 1_555 1_555
Cu3_3 N5_2 1_555 1_555
Cu3_4 N3_2 1_555 1_555
Au2 C22 1_555 1_555
Au2 C1_4 1_555 1_555
Cu1_2 N1_4 1_555 1_555
N1_4 C1_4 1_555 1_555
N2_3 Cu1_2 1_555 1_555
C2_3 N2_3 1_555 1_555
C3_3 C2_3 1_555 1_555
C4_3 C3_3 1_555 1_555
C5_3 C4_3 1_555 1_555
C6_3 C5_3 1_555 1_555
H1_3 C2_3 1_555 1_555
H2_3 C3_3 1_555 1_555
H3_3 C6_3 1_555 1_555
C8_3 N2_3 1_555 1_555
C9_3 C4_3 1_555 1_555
C10_3 C5_3 1_555 1_555
H5_3 C8_3 1_555 1_555
H6_3 C9_3 1_555 1_555
H7_3 C10_3 1_555 1_555
N4_3 Cu1_2 1_555 1_555
C12_3 N4_3 1_555 1_555
C13_3 C12_3 1_555 1_555
C14_3 C13_3 1_555 1_555
C15_3 C14_3 1_555 1_555
C16_3 C15_3 1_555 1_555
H9_3 C12_3 1_555 1_555
H10_3 C13_3 1_555 1_555
H11_3 C16_3 1_555 1_555
C18_3 N4_3 1_555 1_555
C19_3 C14_3 1_555 1_555
C20_3 C15_3 1_555 1_555
H13_3 C18_3 1_555 1_555
H14_3 C19_3 1_555 1_555
H15_3 C20_3 1_555 1_555
N6_4 Cu1_2 1_555 1_555
N7_2 Cu1_2 1_555 1_555
N8_2 Cu1_2 1_555 1_555
C8_3 C9_3 1_555 1_555
C18_3 C19_3 1_555 1_555
Au2_2 C22_2 1_555 1_555
Au2_2 C1_5 1_555 1_555
Cu3_3 N1_5 1_555 1_555
N1_5 C1_5 1_555 1_555
N2_4 Cu3_3 1_555 1_555
N7_2 C7_4 1_555 1_555
C2_4 N2_4 1_555 1_555
C3_4 C2_4 1_555 1_555
C4_4 C3_4 1_555 1_555
C5_4 C4_4 1_555 1_555
C6_4 C5_4 1_555 1_555
C7_4 C6_4 1_555 1_555
H1_4 C2_4 1_555 1_555
H2_4 C3_4 1_555 1_555
H3_4 C6_4 1_555 1_555
H4_4 C7_4 1_555 1_555
C8_4 N2_4 1_555 1_555
C9_4 C4_4 1_555 1_555
C10_4 C5_4 1_555 1_555
C11_4 N7_2 1_555 1_555
H5_4 C8_4 1_555 1_555
H6_4 C9_4 1_555 1_555
H7_4 C10_4 1_555 1_555
H8_4 C11_4 1_555 1_555
N6_5 Cu3_3 1_555 1_555
C8_4 C9_4 1_555 1_555
C10_4 C11_4 1_555 1_555
Au2_3 C22_3 1_555 1_555
Au2_3 C1_6 1_555 1_555
Cu3_4 N1_6 1_555 1_555
N1_6 C1_6 1_555 1_555
N4_4 Cu3_4 1_555 1_555
N8_2 C17_4 1_555 1_555
C12_4 N4_4 1_555 1_555
C13_4 C12_4 1_555 1_555
C14_4 C13_4 1_555 1_555
C15_4 C14_4 1_555 1_555
C16_4 C15_4 1_555 1_555
C17_4 C16_4 1_555 1_555
H9_4 C12_4 1_555 1_555
H10_4 C13_4 1_555 1_555
H11_4 C16_4 1_555 1_555
H12_4 C17_4 1_555 1_555
C18_4 N4_4 1_555 1_555
C19_4 C14_4 1_555 1_555
C20_4 C15_4 1_555 1_555
C21_4 N8_2 1_555 1_555
H13_4 C18_4 1_555 1_555
H14_4 C19_4 1_555 1_555
H15_4 C20_4 1_555 1_555
H16_4 C21_4 1_555 1_555
N6_6 Cu3_4 1_555 1_555
C18_4 C19_4 1_555 1_555
C20_4 C21_4 1_555 1_555

#END
