
###############################################################################
#
# This file contains modified crystal structure data generated from the
# MOF subset of the Cambridge Structural Database (CSD) v543 
# hosted by the Cambridge Crystallographic Data Centre (CCDC).
#
# This work is licensed under the Creative Commons
# Attribution-NonCommercial-ShareAlike 4.0 International License.
# To view a copy of this license, visit
# http://creativecommons.org/licenses/by-nc-sa/4.0/
# or send a letter to
# Creative Commons, PO Box 1866, Mountain View, CA 94042, USA.
#
# CIF created using the CSD Python API on 29 September 2022
# The structure has been converted into the P1 space group
# The structure has a 3D framework
# The original CSD entry HILKIZ is in the monoclinic crystal system
# The framework has been calculated to contain at least 10.0% void space
# The void calculation uses a probe of radius 1.32A, grid spacing 0.4
#
###############################################################################

data_HILKIZ
_chemical_formula_moiety         '(C80 Al6 F64 N16 Na4 O16)n'
_symmetry_cell_setting           triclinic
_symmetry_space_group_name_H-M   'P 1'
_symmetry_Int_Tables_number      1
_space_group_name_Hall           'P 1'
loop_
_symmetry_equiv_pos_site_id
_symmetry_equiv_pos_as_xyz
1 x,y,z
_cell_length_a                   15.0416(5)
_cell_length_b                   20.7152(7)
_cell_length_c                   10.9349(6)
_cell_angle_alpha                90
_cell_angle_beta                 122.4540(10)
_cell_angle_gamma                90
_cell_volume                     2875.07
loop_
_atom_site_label
_atom_site_type_symbol
_atom_site_fract_x
_atom_site_fract_y
_atom_site_fract_z
Na4 Na 0.0000 0.34855(4) 0.7500
Al1 Al 0.5000 0.56635(3) 0.2500
F1 F 0.39680(6) 0.69918(4) 0.25587(9)
C1 C 0.54260(10) 0.65893(7) 0.47291(14)
O1 O 0.55334(8) 0.60776(4) 0.41223(10)
N1 N 0.52404(9) 0.76706(6) 0.61313(13)
Na1 Na 0.5000 0.84855(4) 0.7500
C2 C 0.45964(11) 0.75767(7) 0.47238(15)
F2 F 0.66151(7) 0.73261(5) 0.82735(9)
O2 O 0.39180(7) 0.52379(5) 0.22578(10)
F3 F 0.38413(7) 0.80178(4) 0.40182(10)
C3 C 0.46593(10) 0.70619(7) 0.39895(14)
F4 F 0.68730(7) 0.62678(4) 0.70220(9)
C4 C 0.59776(11) 0.72317(7) 0.68431(14)
C5 C 0.61096(11) 0.66952(7) 0.62205(14)
F5 F 0.43404(7) 0.44173(4) 0.06240(10)
C6 C 0.31901(10) 0.48687(7) 0.12366(14)
C7 C 0.33713(11) 0.44422(7) 0.04038(15)
F8 F 0.19047(6) 0.52447(4) 0.16931(9)
C10 C 0.21617(10) 0.48604(7) 0.09401(15)
F9 F 0.60320(6) 0.69918(4) 0.24413(9)
C11 C 0.45740(10) 0.65893(7) 0.02709(14)
O3 O 0.44666(8) 0.60776(4) 0.08777(10)
C12 C 0.54036(11) 0.75767(7) 0.02762(15)
N4 N 0.83896(9) 0.40558(6) 0.58868(12)
O4 O 0.60820(7) 0.52379(5) 0.27422(10)
F11 F 0.61587(7) 0.80178(4) 0.09818(10)
C13 C 0.53407(10) 0.70619(7) 0.10105(14)
F13 F 0.56596(7) 0.44173(4) 0.43760(10)
F14 F 0.72324(7) 0.36438(4) 0.63812(9)
C16 C 0.68099(10) 0.48687(7) 0.37634(14)
C17 C 0.66287(11) 0.44422(7) 0.45962(15)
F15 F 0.95589(6) 0.44490(4) 0.54080(10)
C18 C 0.74217(11) 0.40570(7) 0.56097(15)
F16 F 0.80953(6) 0.52447(4) 0.33069(9)
C19 C 0.85676(11) 0.44586(7) 0.51048(15)
C20 C 0.78383(10) 0.48604(7) 0.40599(15)
N5 N 0.47596(9) 0.76706(6) 0.88687(13)
Na4_2 Na 1.0000 0.34855(4) 0.7500
N6 N 0.66104(9) 0.90558(6) 0.91132(12)
N7 N 0.33896(9) 0.90558(6) 0.58868(12)
N2 N 0.16104(9) 0.40558(6) 0.91132(12)
F6 F 0.27676(7) 0.36438(4) 0.86188(9)
F7 F 0.04411(6) 0.44490(4) 0.95920(10)
C8 C 0.25783(11) 0.40570(7) 0.93903(15)
C9 C 0.14324(11) 0.44586(7) 0.98952(15)
F10 F 0.33849(7) 0.73261(5) 0.67265(9)
F12 F 0.31270(7) 0.62678(4) 0.79780(9)
C14 C 0.40224(11) 0.72317(7) 0.81569(14)
C15 C 0.38904(11) 0.66952(7) 0.87795(14)
Al1_2 Al -0.0000 0.06635(3) 0.2500
C1_2 C 0.04260(10) 0.15893(7) 0.47291(14)
O1_2 O 0.05334(8) 0.10776(4) 0.41223(10)
N1_2 N 0.02404(9) 0.26706(6) 0.61313(13)
F2_2 F 0.16151(7) 0.23261(5) 0.82735(9)
F4_2 F 0.18730(7) 0.12678(4) 0.70220(9)
C4_2 C 0.09776(11) 0.22317(7) 0.68431(14)
C5_2 C 0.11096(11) 0.16952(7) 0.62205(14)
F9_2 F 0.10320(6) 0.19918(4) 0.24413(9)
C12_2 C 0.04036(11) 0.25767(7) 0.02762(15)
O4_2 O 0.10820(7) 0.02379(5) 0.27422(10)
F11_2 F 0.11587(7) 0.30178(4) 0.09818(10)
C13_2 C 0.03407(10) 0.20619(7) 0.10105(14)
F16_2 F 0.30953(6) 0.02447(4) 0.33069(9)
F13_2 F 0.06596(7) 0.94173(4) 0.43760(10)
F14_2 F 0.22324(7) 0.86438(4) 0.63812(9)
C16_2 C 0.18099(10) 0.98687(7) 0.37634(14)
C17_2 C 0.16287(11) 0.94422(7) 0.45962(15)
F15_2 F 0.45589(6) 0.94490(4) 0.54080(10)
C18_2 C 0.24217(11) 0.90570(7) 0.56097(15)
C19_2 C 0.35676(11) 0.94586(7) 0.51048(15)
C20_2 C 0.28383(10) 0.98604(7) 0.40599(15)
Al1_3 Al 1.0000 0.06635(3) 0.2500
F1_2 F 0.89680(6) 0.19918(4) 0.25587(9)
C2_2 C 0.95964(11) 0.25767(7) 0.47238(15)
O2_2 O 0.89180(7) 0.02379(5) 0.22578(10)
F3_2 F 0.88413(7) 0.30178(4) 0.40182(10)
C3_2 C 0.96593(10) 0.20619(7) 0.39895(14)
F8_2 F 0.69047(6) 0.02447(4) 0.16931(9)
C11_2 C 0.95740(10) 0.15893(7) 0.02709(14)
O3_2 O 0.94666(8) 0.10776(4) 0.08777(10)
N5_2 N 0.97596(9) 0.26706(6) 0.88687(13)
F10_2 F 0.83849(7) 0.23261(5) 0.67265(9)
F12_2 F 0.81270(7) 0.12678(4) 0.79780(9)
C14_2 C 0.90224(11) 0.22317(7) 0.81569(14)
C15_2 C 0.88904(11) 0.16952(7) 0.87795(14)
F6_2 F 0.77676(7) 0.86438(4) 0.86188(9)
F7_2 F 0.54411(6) 0.94490(4) 0.95920(10)
C8_2 C 0.75783(11) 0.90570(7) 0.93903(15)
C9_2 C 0.64324(11) 0.94586(7) 0.98952(15)
F5_2 F 0.93404(7) 0.94173(4) 0.06240(10)
C6_2 C 0.81901(10) 0.98687(7) 0.12366(14)
C7_2 C 0.83713(11) 0.94422(7) 0.04038(15)
C10_2 C 0.71617(10) 0.98604(7) 0.09401(15)
Na3 Na 0.0000 0.65145(4) 0.2500
N2_2 N 0.83896(9) 0.59442(6) 0.08868(12)
F6_3 F 0.72324(7) 0.63562(4) 0.13812(9)
F7_3 F 0.95589(6) 0.55510(4) 0.04080(10)
C8_3 C 0.74217(11) 0.59430(7) 0.06097(15)
C9_3 C 0.85676(11) 0.55414(7) 0.01048(15)
N3 N 0.52404(9) 0.23294(6) 0.11313(13)
F10_3 F 0.66151(7) 0.26739(5) 0.32735(9)
F12_3 F 0.68730(7) 0.37322(4) 0.20220(9)
C14_3 C 0.59776(11) 0.27683(7) 0.18431(14)
C15_3 C 0.61096(11) 0.33048(7) 0.12205(14)
Na2 Na 0.5000 0.15145(4) 0.2500
Na3_2 Na 1.0000 0.65145(4) 0.2500
Al1_4 Al 0.5000 0.43365(3) 0.7500
F1_3 F 0.60320(6) 0.30082(4) 0.74413(9)
C1_3 C 0.45740(10) 0.34107(7) 0.52709(14)
O1_3 O 0.44666(8) 0.39224(4) 0.58777(10)
N1_3 N 0.47596(9) 0.23294(6) 0.38687(13)
C2_3 C 0.54036(11) 0.24233(7) 0.52762(15)
F2_3 F 0.33849(7) 0.26739(5) 0.17265(9)
O2_3 O 0.60820(7) 0.47621(5) 0.77422(10)
F3_3 F 0.61587(7) 0.19822(4) 0.59818(10)
C3_3 C 0.53407(10) 0.29381(7) 0.60105(14)
F4_3 F 0.31270(7) 0.37322(4) 0.29780(9)
C4_3 C 0.40224(11) 0.27683(7) 0.31569(14)
C5_3 C 0.38904(11) 0.33048(7) 0.37795(14)
F5_3 F 0.56596(7) 0.55827(4) 0.93760(10)
C6_3 C 0.68099(10) 0.51313(7) 0.87634(14)
C7_3 C 0.66287(11) 0.55578(7) 0.95962(15)
F8_3 F 0.80953(6) 0.47553(4) 0.83069(9)
C10_3 C 0.78383(10) 0.51396(7) 0.90599(15)
F9_3 F 0.39680(6) 0.30082(4) 0.75587(9)
C11_3 C 0.54260(10) 0.34107(7) 0.97291(14)
O3_3 O 0.55334(8) 0.39224(4) 0.91223(10)
C12_3 C 0.45964(11) 0.24233(7) 0.97238(15)
N4_2 N 0.16104(9) 0.59442(6) 0.41132(12)
O4_3 O 0.39180(7) 0.47621(5) 0.72578(10)
F11_3 F 0.38413(7) 0.19822(4) 0.90182(10)
C13_3 C 0.46593(10) 0.29381(7) 0.89895(14)
F13_3 F 0.43404(7) 0.55827(4) 0.56240(10)
F14_3 F 0.27676(7) 0.63562(4) 0.36188(9)
C16_3 C 0.31901(10) 0.51313(7) 0.62366(14)
C17_3 C 0.33713(11) 0.55578(7) 0.54038(15)
F15_3 F 0.04411(6) 0.55510(4) 0.45920(10)
C18_3 C 0.25783(11) 0.59430(7) 0.43903(15)
F16_3 F 0.19047(6) 0.47553(4) 0.66931(9)
C19_3 C 0.14324(11) 0.55414(7) 0.48952(15)
C20_3 C 0.21617(10) 0.51396(7) 0.59401(15)
N6_2 N 0.33896(9) 0.09442(6) 0.08868(12)
N7_2 N 0.66104(9) 0.09442(6) 0.41132(12)
F6_4 F 0.22324(7) 0.13562(4) 0.13812(9)
F7_4 F 0.45589(6) 0.05510(4) 0.04080(10)
C8_4 C 0.24217(11) 0.09430(7) 0.06097(15)
C9_4 C 0.35676(11) 0.05414(7) 0.01048(15)
N3_2 N 0.02404(9) 0.73294(6) 0.11313(13)
F10_4 F 0.16151(7) 0.76739(5) 0.32735(9)
F12_4 F 0.18730(7) 0.87322(4) 0.20220(9)
C14_4 C 0.09776(11) 0.77683(7) 0.18431(14)
C15_4 C 0.11096(11) 0.83048(7) 0.12205(14)
Al1_5 Al 0.0000 0.93365(3) 0.7500
F1_4 F 0.10320(6) 0.80082(4) 0.74413(9)
C2_4 C 0.04036(11) 0.74233(7) 0.52762(15)
O2_4 O 0.10820(7) 0.97621(5) 0.77422(10)
F3_4 F 0.11587(7) 0.69822(4) 0.59818(10)
C3_4 C 0.03407(10) 0.79381(7) 0.60105(14)
F8_4 F 0.30953(6) 0.97553(4) 0.83069(9)
C11_4 C 0.04260(10) 0.84107(7) 0.97291(14)
O3_4 O 0.05334(8) 0.89224(4) 0.91223(10)
F13_4 F 0.93404(7) 0.05827(4) 0.56240(10)
F14_4 F 0.77676(7) 0.13562(4) 0.36188(9)
C16_4 C 0.81901(10) 0.01313(7) 0.62366(14)
C17_4 C 0.83713(11) 0.05578(7) 0.54038(15)
F15_4 F 0.54411(6) 0.05510(4) 0.45920(10)
C18_4 C 0.75783(11) 0.09430(7) 0.43903(15)
C19_4 C 0.64324(11) 0.05414(7) 0.48952(15)
C20_4 C 0.71617(10) 0.01396(7) 0.59401(15)
Al1_6 Al 1.0000 0.93365(3) 0.7500
C1_4 C 0.95740(10) 0.84107(7) 0.52709(14)
O1_4 O 0.94666(8) 0.89224(4) 0.58777(10)
N1_4 N 0.97596(9) 0.73294(6) 0.38687(13)
F2_4 F 0.83849(7) 0.76739(5) 0.17265(9)
F4_4 F 0.81270(7) 0.87322(4) 0.29780(9)
C4_4 C 0.90224(11) 0.77683(7) 0.31569(14)
C5_4 C 0.88904(11) 0.83048(7) 0.37795(14)
F9_4 F 0.89680(6) 0.80082(4) 0.75587(9)
C12_4 C 0.95964(11) 0.74233(7) 0.97238(15)
O4_4 O 0.89180(7) 0.97621(5) 0.72578(10)
F11_4 F 0.88413(7) 0.69822(4) 0.90182(10)
C13_4 C 0.96593(10) 0.79381(7) 0.89895(14)
F16_4 F 0.69047(6) 0.97553(4) 0.66931(9)
F5_4 F 0.06596(7) 0.05827(4) 0.93760(10)
C6_4 C 0.18099(10) 0.01313(7) 0.87634(14)
C7_4 C 0.16287(11) 0.05578(7) 0.95962(15)
C10_4 C 0.28383(10) 0.01396(7) 0.90599(15)
loop_
_geom_bond_atom_site_label_1
_geom_bond_atom_site_label_2
_geom_bond_site_symmetry_1
_geom_bond_site_symmetry_2
Al1 O1 1_555 1_555
F1 C3 1_555 1_555
C1 O1 1_555 1_555
N1 Na1 1_555 1_555
Na1 N5 1_555 1_555
C2 N1 1_555 1_555
F2 C4 1_555 1_555
O2 Al1 1_555 1_555
F3 C2 1_555 1_555
C3 C1 1_555 1_555
F4 C5 1_555 1_555
C4 N1 1_555 1_555
C5 C1 1_555 1_555
F5 C7 1_555 1_555
C6 O2 1_555 1_555
C7 C6 1_555 1_555
F8 C10 1_555 1_555
C10 C6 1_555 1_555
F9 C13 1_555 1_555
C11 O3 1_555 1_555
O3 Al1 1_555 1_555
C12 F11 1_555 1_555
N4 C18 1_555 1_555
O4 Al1 1_555 1_555
C13 C11 1_555 1_555
F13 C17 1_555 1_555
F14 C18 1_555 1_555
C16 O4 1_555 1_555
C17 C16 1_555 1_555
F15 C19 1_555 1_555
C18 C17 1_555 1_555
F16 C20 1_555 1_555
C19 N4 1_555 1_555
C20 C16 1_555 1_555
Na4_2 N4 1_555 1_555
N6 Na1 1_555 1_555
N7 Na1 1_555 1_555
C2 C3 1_555 1_555
C4 C5 1_555 1_555
C12 C13 1_555 1_555
C19 C20 1_555 1_555
N2 C8 1_555 1_555
F6 C8 1_555 1_555
F7 C9 1_555 1_555
C9 N2 1_555 1_555
F10 C14 1_555 1_555
F12 C15 1_555 1_555
C14 N5 1_555 1_555
Na4 N2 1_555 1_555
C14 C15 1_555 1_555
Al1_2 O1_2 1_555 1_555
C1_2 O1_2 1_555 1_555
N1_2 Na4 1_555 1_555
F2_2 C4_2 1_555 1_555
F4_2 C5_2 1_555 1_555
C4_2 N1_2 1_555 1_555
C5_2 C1_2 1_555 1_555
F9_2 C13_2 1_555 1_555
C12_2 F11_2 1_555 1_555
O4_2 Al1_2 1_555 1_555
C4_2 C5_2 1_555 1_555
C12_2 C13_2 1_555 1_555
N7 C18_2 1_555 1_555
F13_2 C17_2 1_555 1_555
F14_2 C18_2 1_555 1_555
C17_2 C16_2 1_555 1_555
F15_2 C19_2 1_555 1_555
C18_2 C17_2 1_555 1_555
C19_2 N7 1_555 1_555
C20_2 C16_2 1_555 1_555
C19_2 C20_2 1_555 1_555
F1_2 C3_2 1_555 1_555
Na4_2 N5_2 1_555 1_555
O2_2 Al1_3 1_555 1_555
F3_2 C2_2 1_555 1_555
C11_2 O3_2 1_555 1_555
O3_2 Al1_3 1_555 1_555
C2_2 C3_2 1_555 1_555
F10_2 C14_2 1_555 1_555
F12_2 C15_2 1_555 1_555
C14_2 N5_2 1_555 1_555
C14_2 C15_2 1_555 1_555
N6 C8_2 1_555 1_555
F6_2 C8_2 1_555 1_555
F7_2 C9_2 1_555 1_555
C9_2 N6 1_555 1_555
F5_2 C7_2 1_555 1_555
C7_2 C6_2 1_555 1_555
C10_2 C6_2 1_555 1_555
N2_2 C8_3 1_555 1_555
F6_3 C8_3 1_555 1_555
F7_3 C9_3 1_555 1_555
C9_3 N2_2 1_555 1_555
F10_3 C14_3 1_555 1_555
F12_3 C15_3 1_555 1_555
C14_3 N3 1_555 1_555
Na2 N3 1_555 1_555
Na3_2 N2_2 1_555 1_555
C14_3 C15_3 1_555 1_555
Al1_4 O1_3 1_555 1_555
F1_3 C3_3 1_555 1_555
C1_3 O1_3 1_555 1_555
N1_3 Na2 1_555 1_555
C2_3 N1_3 1_555 1_555
F2_3 C4_3 1_555 1_555
O2_3 Al1_4 1_555 1_555
F3_3 C2_3 1_555 1_555
C3_3 C1_3 1_555 1_555
F4_3 C5_3 1_555 1_555
C4_3 N1_3 1_555 1_555
C5_3 C1_3 1_555 1_555
F5_3 C7_3 1_555 1_555
C6_3 O2_3 1_555 1_555
C7_3 C6_3 1_555 1_555
F8_3 C10_3 1_555 1_555
C10_3 C6_3 1_555 1_555
F9_3 C13_3 1_555 1_555
C11_3 O3_3 1_555 1_555
O3_3 Al1_4 1_555 1_555
C12_3 F11_3 1_555 1_555
N4_2 C18_3 1_555 1_555
O4_3 Al1_4 1_555 1_555
C13_3 C11_3 1_555 1_555
F13_3 C17_3 1_555 1_555
F14_3 C18_3 1_555 1_555
C16_3 O4_3 1_555 1_555
C17_3 C16_3 1_555 1_555
F15_3 C19_3 1_555 1_555
C18_3 C17_3 1_555 1_555
F16_3 C20_3 1_555 1_555
C19_3 N4_2 1_555 1_555
C20_3 C16_3 1_555 1_555
Na3 N4_2 1_555 1_555
N6_2 Na2 1_555 1_555
N7_2 Na2 1_555 1_555
C2_3 C3_3 1_555 1_555
C4_3 C5_3 1_555 1_555
C12_3 C13_3 1_555 1_555
C19_3 C20_3 1_555 1_555
N6_2 C8_4 1_555 1_555
F6_4 C8_4 1_555 1_555
F7_4 C9_4 1_555 1_555
C9_4 N6_2 1_555 1_555
F10_4 C14_4 1_555 1_555
F12_4 C15_4 1_555 1_555
C14_4 N3_2 1_555 1_555
Na3 N3_2 1_555 1_555
C14_4 C15_4 1_555 1_555
F1_4 C3_4 1_555 1_555
O2_4 Al1_5 1_555 1_555
F3_4 C2_4 1_555 1_555
C11_4 O3_4 1_555 1_555
O3_4 Al1_5 1_555 1_555
C2_4 C3_4 1_555 1_555
N7_2 C18_4 1_555 1_555
F13_4 C17_4 1_555 1_555
F14_4 C18_4 1_555 1_555
C17_4 C16_4 1_555 1_555
F15_4 C19_4 1_555 1_555
C18_4 C17_4 1_555 1_555
C19_4 N7_2 1_555 1_555
C20_4 C16_4 1_555 1_555
C19_4 C20_4 1_555 1_555
Al1_6 O1_4 1_555 1_555
C1_4 O1_4 1_555 1_555
N1_4 Na3_2 1_555 1_555
F2_4 C4_4 1_555 1_555
F4_4 C5_4 1_555 1_555
C4_4 N1_4 1_555 1_555
C5_4 C1_4 1_555 1_555
F9_4 C13_4 1_555 1_555
C12_4 F11_4 1_555 1_555
O4_4 Al1_6 1_555 1_555
C4_4 C5_4 1_555 1_555
C12_4 C13_4 1_555 1_555
F5_4 C7_4 1_555 1_555
C7_4 C6_4 1_555 1_555
C10_4 C6_4 1_555 1_555

#END
