
###############################################################################
#
# This file contains modified crystal structure data generated from the
# MOF subset of the Cambridge Structural Database (CSD) v543 
# hosted by the Cambridge Crystallographic Data Centre (CCDC).
#
# This work is licensed under the Creative Commons
# Attribution-NonCommercial-ShareAlike 4.0 International License.
# To view a copy of this license, visit
# http://creativecommons.org/licenses/by-nc-sa/4.0/
# or send a letter to
# Creative Commons, PO Box 1866, Mountain View, CA 94042, USA.
#
# CIF created using the CSD Python API on 29 September 2022
# The structure has been converted into the P1 space group
# The structure has a 3D framework
# The original CSD entry HILKOF is in the monoclinic crystal system
# The framework has been calculated to contain at least 10.0% void space
# The void calculation uses a probe of radius 1.32A, grid spacing 0.4
#
###############################################################################

data_HILKOF
_chemical_formula_moiety         '(C80 Al6 F64 Li4 N16 O16)n'
_symmetry_cell_setting           triclinic
_symmetry_space_group_name_H-M   'P 1'
_symmetry_Int_Tables_number      1
_space_group_name_Hall           'P 1'
loop_
_symmetry_equiv_pos_site_id
_symmetry_equiv_pos_as_xyz
1 x,y,z
_cell_length_a                   14.9789(7)
_cell_length_b                   19.7243(11)
_cell_length_c                   11.0653(5)
_cell_angle_alpha                90
_cell_angle_beta                 124.114(3)
_cell_angle_gamma                90
_cell_volume                     2706.67
loop_
_atom_site_label
_atom_site_type_symbol
_atom_site_fract_x
_atom_site_fract_y
_atom_site_fract_z
Al1 Al -0.0000 0.43842(4) 0.2500
O1 O 0.11130(9) 0.48418(7) 0.28362(13)
O2 O 0.05253(9) 0.39342(6) 0.41077(13)
N1 N 0.01990(11) 0.23111(8) 0.61904(16)
N2 N 0.36061(11) 0.60013(8) 0.61142(15)
C2 C 0.11115(13) 0.33145(9) 0.62402(19)
C3 C 0.29282(13) 0.52063(9) 0.41626(18)
C4 C 0.19033(13) 0.51970(9) 0.39099(18)
C5 C 0.17905(13) 0.56079(10) 0.48433(19)
C6 C 0.04139(13) 0.34108(9) 0.47299(18)
C8 C 0.37200(13) 0.56049(9) 0.52474(18)
C9 C 0.09615(13) 0.27777(10) 0.68891(18)
C10 C 0.26385(14) 0.59945(9) 0.58841(19)
F1 F 0.08329(8) 0.56288(6) 0.46832(12)
F2 F 0.46970(8) 0.56150(6) 0.54783(12)
F3 F 0.19000(8) 0.37649(5) 0.70303(11)
F4 F 0.25044(9) 0.63997(6) 0.67359(12)
F5 F 0.16069(8) 0.27080(6) 0.83433(11)
F7 F 0.31194(8) 0.48403(6) 0.33110(12)
Li1 Li 0.5000 0.6613(2) 0.7500
C11 C 0.03770(13) 0.29140(9) 0.10033(18)
C17 C 0.04450(13) 0.23917(9) 0.02415(19)
F14 F 0.12225(8) 0.19307(6) 0.09630(11)
F16 F 0.10787(8) 0.29652(6) 0.24525(10)
N5 N 0.51990(11) 0.73111(8) 0.61904(16)
N6 N 0.48010(11) 0.73111(8) 0.88096(16)
N7 N 0.63939(11) 0.60013(8) 0.88858(15)
Li4 Li 0.0000 0.1613(2) 0.7500
Al1_2 Al 1.0000 0.43842(4) 0.2500
C1 C 0.96230(13) 0.29140(9) 0.39967(18)
C7 C 0.95550(13) 0.23917(9) 0.47585(19)
F6 F 0.87775(8) 0.19307(6) 0.40370(11)
F8 F 0.89213(8) 0.29652(6) 0.25475(10)
O3 O 0.88870(9) 0.48418(7) 0.21638(13)
O4 O 0.94747(9) 0.39342(6) 0.08923(13)
C13 C 0.70718(13) 0.52063(9) 0.08374(18)
C14 C 0.80967(13) 0.51970(9) 0.10901(18)
C15 C 0.82095(13) 0.56079(10) 0.01567(19)
C16 C 0.95861(13) 0.34108(9) 0.02701(18)
F9 F 0.91671(8) 0.56288(6) 0.03168(12)
F15 F 0.68806(8) 0.48403(6) 0.16890(12)
Li4_2 Li 1.0000 0.1613(2) 0.7500
N3 N 0.98010(11) 0.23111(8) 0.88096(16)
C12 C 0.88885(13) 0.33145(9) 0.87598(19)
C18 C 0.62800(13) 0.56049(9) 0.97526(18)
C19 C 0.90385(13) 0.27777(10) 0.81109(18)
C20 C 0.73615(14) 0.59945(9) 0.91159(19)
F10 F 0.53030(8) 0.56150(6) 0.95217(12)
F11 F 0.81000(8) 0.37649(5) 0.79697(11)
F12 F 0.74956(9) 0.63997(6) 0.82641(12)
F13 F 0.83931(8) 0.27080(6) 0.66567(11)
N7_2 N 0.13939(11) 0.10013(8) 0.88858(15)
N2_2 N 0.86061(11) 0.10013(8) 0.61142(15)
C3_2 C 0.79282(13) 0.02063(9) 0.41626(18)
C4_2 C 0.69033(13) 0.01970(9) 0.39099(18)
C5_2 C 0.67905(13) 0.06079(10) 0.48433(19)
C8_2 C 0.87200(13) 0.06049(9) 0.52474(18)
C10_2 C 0.76385(14) 0.09945(9) 0.58841(19)
F1_2 F 0.58329(8) 0.06288(6) 0.46832(12)
F2_2 F 0.96970(8) 0.06150(6) 0.54783(12)
F4_2 F 0.75044(9) 0.13997(6) 0.67359(12)
C13_2 C 0.20718(13) 0.02063(9) 0.08374(18)
C14_2 C 0.30967(13) 0.01970(9) 0.10901(18)
C15_2 C 0.32095(13) 0.06079(10) 0.01567(19)
F9_2 F 0.41671(8) 0.06288(6) 0.03168(12)
C18_2 C 0.12800(13) 0.06049(9) 0.97526(18)
C20_2 C 0.23615(14) 0.09945(9) 0.91159(19)
F10_2 F 0.03030(8) 0.06150(6) 0.95217(12)
F12_2 F 0.24956(9) 0.13997(6) 0.82641(12)
Al1_3 Al 0.5000 0.93842(4) 0.2500
O1_2 O 0.61130(9) 0.98418(7) 0.28362(13)
O2_2 O 0.55253(9) 0.89342(6) 0.41077(13)
C1_2 C 0.46230(13) 0.79140(9) 0.39967(18)
C2_2 C 0.61115(13) 0.83145(9) 0.62402(19)
C6_2 C 0.54139(13) 0.84108(9) 0.47299(18)
C7_2 C 0.45550(13) 0.73917(9) 0.47585(19)
C9_2 C 0.59615(13) 0.77777(10) 0.68891(18)
F3_2 F 0.69000(8) 0.87649(5) 0.70303(11)
F5_2 F 0.66069(8) 0.77080(6) 0.83433(11)
F6_2 F 0.37775(8) 0.69307(6) 0.40370(11)
F7_2 F 0.81194(8) 0.98403(6) 0.33110(12)
F8_2 F 0.39213(8) 0.79652(6) 0.25475(10)
O3_2 O 0.38870(9) 0.98418(7) 0.21638(13)
O4_2 O 0.44747(9) 0.89342(6) 0.08923(13)
C11_2 C 0.53770(13) 0.79140(9) 0.10033(18)
C16_2 C 0.45861(13) 0.84108(9) 0.02701(18)
C17_2 C 0.54450(13) 0.73917(9) 0.02415(19)
F14_2 F 0.62225(8) 0.69307(6) 0.09630(11)
F15_2 F 0.18806(8) 0.98403(6) 0.16890(12)
F16_2 F 0.60787(8) 0.79652(6) 0.24525(10)
C12_2 C 0.38885(13) 0.83145(9) 0.87598(19)
C19_2 C 0.40385(13) 0.77777(10) 0.81109(18)
F11_2 F 0.31000(8) 0.87649(5) 0.79697(11)
F13_2 F 0.33931(8) 0.77080(6) 0.66567(11)
N3_2 N 0.01990(11) 0.76889(8) 0.11904(16)
N4 N 0.36061(11) 0.39987(8) 0.11142(15)
C12_3 C 0.11115(13) 0.66855(9) 0.12402(19)
C18_3 C 0.37200(13) 0.43951(9) 0.02474(18)
C19_3 C 0.09615(13) 0.72223(10) 0.18891(18)
C20_3 C 0.26385(14) 0.40055(9) 0.08841(19)
F10_3 F 0.46970(8) 0.43850(6) 0.04783(12)
F11_3 F 0.19000(8) 0.62351(5) 0.20303(11)
F12_3 F 0.25044(9) 0.36003(6) 0.17359(12)
F13_3 F 0.16069(8) 0.72920(6) 0.33433(11)
Li2 Li 0.5000 0.3387(2) 0.2500
Li3 Li 0.0000 0.8387(2) 0.2500
Al1_4 Al 0.0000 0.56158(4) 0.7500
C1_3 C 0.03770(13) 0.70860(9) 0.60033(18)
C7_3 C 0.04450(13) 0.76083(9) 0.52415(19)
F6_3 F 0.12225(8) 0.80693(6) 0.59630(11)
F8_3 F 0.10787(8) 0.70348(6) 0.74525(10)
O3_3 O 0.11130(9) 0.51582(7) 0.78362(13)
O4_3 O 0.05253(9) 0.60658(6) 0.91077(13)
C13_3 C 0.29282(13) 0.47937(9) 0.91626(18)
C14_3 C 0.19033(13) 0.48030(9) 0.89099(18)
C15_3 C 0.17905(13) 0.43921(10) 0.98433(19)
C16_3 C 0.04139(13) 0.65892(9) 0.97299(18)
F9_3 F 0.08329(8) 0.43712(6) 0.96832(12)
F15_3 F 0.31194(8) 0.51597(6) 0.83110(12)
Li3_2 Li 1.0000 0.8387(2) 0.2500
Al1_5 Al 1.0000 0.56158(4) 0.7500
O1_3 O 0.88870(9) 0.51582(7) 0.71638(13)
O2_3 O 0.94747(9) 0.60658(6) 0.58923(13)
N1_2 N 0.98010(11) 0.76889(8) 0.38096(16)
N2_3 N 0.63939(11) 0.39987(8) 0.38858(15)
C2_3 C 0.88885(13) 0.66855(9) 0.37598(19)
C3_3 C 0.70718(13) 0.47937(9) 0.58374(18)
C4_3 C 0.80967(13) 0.48030(9) 0.60901(18)
C5_3 C 0.82095(13) 0.43921(10) 0.51567(19)
C6_3 C 0.95861(13) 0.65892(9) 0.52701(18)
C8_3 C 0.62800(13) 0.43951(9) 0.47526(18)
C9_3 C 0.90385(13) 0.72223(10) 0.31109(18)
C10_3 C 0.73615(14) 0.40055(9) 0.41159(19)
F1_3 F 0.91671(8) 0.43712(6) 0.53168(12)
F2_3 F 0.53030(8) 0.43850(6) 0.45217(12)
F3_3 F 0.81000(8) 0.62351(5) 0.29697(11)
F4_3 F 0.74956(9) 0.36003(6) 0.32641(12)
F5_3 F 0.83931(8) 0.72920(6) 0.16567(11)
F7_3 F 0.68806(8) 0.51597(6) 0.66890(12)
C11_3 C 0.96230(13) 0.70860(9) 0.89967(18)
C17_3 C 0.95550(13) 0.76083(9) 0.97585(19)
F14_3 F 0.87775(8) 0.80693(6) 0.90370(11)
F16_3 F 0.89213(8) 0.70348(6) 0.75475(10)
N5_2 N 0.48010(11) 0.26889(8) 0.38096(16)
N6_2 N 0.51990(11) 0.26889(8) 0.11904(16)
C12_4 C 0.61115(13) 0.16855(9) 0.12402(19)
C19_4 C 0.59615(13) 0.22223(10) 0.18891(18)
F11_4 F 0.69000(8) 0.12351(5) 0.20303(11)
F13_4 F 0.66069(8) 0.22920(6) 0.33433(11)
Al1_6 Al 0.5000 0.06158(4) 0.7500
O1_4 O 0.38870(9) 0.01582(7) 0.71638(13)
O2_4 O 0.44747(9) 0.10658(6) 0.58923(13)
C1_4 C 0.53770(13) 0.20860(9) 0.60033(18)
C2_4 C 0.38885(13) 0.16855(9) 0.37598(19)
C6_4 C 0.45861(13) 0.15892(9) 0.52701(18)
C7_4 C 0.54450(13) 0.26083(9) 0.52415(19)
C9_4 C 0.40385(13) 0.22223(10) 0.31109(18)
F3_4 F 0.31000(8) 0.12351(5) 0.29697(11)
F5_4 F 0.33931(8) 0.22920(6) 0.16567(11)
F6_4 F 0.62225(8) 0.30693(6) 0.59630(11)
F7_4 F 0.18806(8) 0.01597(6) 0.66890(12)
F8_4 F 0.60787(8) 0.20348(6) 0.74525(10)
O3_4 O 0.61130(9) 0.01582(7) 0.78362(13)
O4_4 O 0.55253(9) 0.10658(6) 0.91077(13)
C11_4 C 0.46230(13) 0.20860(9) 0.89967(18)
C16_4 C 0.54139(13) 0.15892(9) 0.97299(18)
C17_4 C 0.45550(13) 0.26083(9) 0.97585(19)
F14_4 F 0.37775(8) 0.30693(6) 0.90370(11)
F15_4 F 0.81194(8) 0.01597(6) 0.83110(12)
F16_4 F 0.39213(8) 0.20348(6) 0.75475(10)
N4_2 N 0.86061(11) 0.89987(8) 0.11142(15)
C18_4 C 0.87200(13) 0.93951(9) 0.02474(18)
C20_4 C 0.76385(14) 0.90055(9) 0.08841(19)
F10_4 F 0.96970(8) 0.93850(6) 0.04783(12)
F12_4 F 0.75044(9) 0.86003(6) 0.17359(12)
N2_4 N 0.13939(11) 0.89987(8) 0.38858(15)
C3_4 C 0.20718(13) 0.97937(9) 0.58374(18)
C4_4 C 0.30967(13) 0.98030(9) 0.60901(18)
C5_4 C 0.32095(13) 0.93921(10) 0.51567(19)
C8_4 C 0.12800(13) 0.93951(9) 0.47526(18)
C10_4 C 0.23615(14) 0.90055(9) 0.41159(19)
F1_4 F 0.41671(8) 0.93712(6) 0.53168(12)
F2_4 F 0.03030(8) 0.93850(6) 0.45217(12)
F4_4 F 0.24956(9) 0.86003(6) 0.32641(12)
C13_4 C 0.79282(13) 0.97937(9) 0.91626(18)
C14_4 C 0.69033(13) 0.98030(9) 0.89099(18)
C15_4 C 0.67905(13) 0.93921(10) 0.98433(19)
F9_4 F 0.58329(8) 0.93712(6) 0.96832(12)
loop_
_geom_bond_atom_site_label_1
_geom_bond_atom_site_label_2
_geom_bond_site_symmetry_1
_geom_bond_site_symmetry_2
Al1 O1 1_555 1_555
O1 C4 1_555 1_555
O2 Al1 1_555 1_555
N2 C8 1_555 1_555
C2 C6 1_555 1_555
C3 C4 1_555 1_555
C4 C5 1_555 1_555
C5 C10 1_555 1_555
C6 O2 1_555 1_555
C8 C3 1_555 1_555
C9 N1 1_555 1_555
C10 N2 1_555 1_555
F1 C5 1_555 1_555
F2 C8 1_555 1_555
F3 C2 1_555 1_555
F4 C10 1_555 1_555
F5 C9 1_555 1_555
F7 C3 1_555 1_555
Li1 N2 1_555 1_555
C17 C11 1_555 1_555
F14 C17 1_555 1_555
F16 C11 1_555 1_555
N5 Li1 1_555 1_555
N6 Li1 1_555 1_555
N7 Li1 1_555 1_555
Li4 N1 1_555 1_555
C2 C9 1_555 1_555
C7 C1 1_555 1_555
F6 C7 1_555 1_555
F8 C1 1_555 1_555
O3 Al1_2 1_555 1_555
O4 Al1_2 1_555 1_555
C13 C14 1_555 1_555
C14 O3 1_555 1_555
C15 C14 1_555 1_555
C16 O4 1_555 1_555
F9 C15 1_555 1_555
F15 C13 1_555 1_555
N7 C18 1_555 1_555
C19 N3 1_555 1_555
C20 N7 1_555 1_555
F10 C18 1_555 1_555
F11 C12 1_555 1_555
F12 C20 1_555 1_555
F13 C19 1_555 1_555
Li4_2 N3 1_555 1_555
C12 C19 1_555 1_555
N7_2 Li4 1_555 1_555
N2_2 C8_2 1_555 1_555
C3_2 C4_2 1_555 1_555
C4_2 C5_2 1_555 1_555
C5_2 C10_2 1_555 1_555
C8_2 C3_2 1_555 1_555
C10_2 N2_2 1_555 1_555
F1_2 C5_2 1_555 1_555
F2_2 C8_2 1_555 1_555
F4_2 C10_2 1_555 1_555
Li4_2 N2_2 1_555 1_555
C13_2 C14_2 1_555 1_555
C15_2 C14_2 1_555 1_555
F9_2 C15_2 1_555 1_555
N7_2 C18_2 1_555 1_555
C20_2 N7_2 1_555 1_555
F10_2 C18_2 1_555 1_555
F12_2 C20_2 1_555 1_555
Al1_3 O1_2 1_555 1_555
O2_2 Al1_3 1_555 1_555
N5 C7_2 1_555 1_555
C1_2 C6_2 1_555 1_555
C2_2 C6_2 1_555 1_555
C6_2 O2_2 1_555 1_555
C7_2 C1_2 1_555 1_555
C9_2 N5 1_555 1_555
F3_2 C2_2 1_555 1_555
F5_2 C9_2 1_555 1_555
F6_2 C7_2 1_555 1_555
F8_2 C1_2 1_555 1_555
O3_2 Al1_3 1_555 1_555
O4_2 Al1_3 1_555 1_555
C11_2 C16_2 1_555 1_555
C16_2 O4_2 1_555 1_555
C17_2 C11_2 1_555 1_555
F14_2 C17_2 1_555 1_555
F16_2 C11_2 1_555 1_555
C2_2 C9_2 1_555 1_555
C19_2 N6 1_555 1_555
F11_2 C12_2 1_555 1_555
F13_2 C19_2 1_555 1_555
C12_2 C19_2 1_555 1_555
N4 C18_3 1_555 1_555
C19_3 N3_2 1_555 1_555
C20_3 N4 1_555 1_555
F10_3 C18_3 1_555 1_555
F11_3 C12_3 1_555 1_555
F12_3 C20_3 1_555 1_555
F13_3 C19_3 1_555 1_555
Li2 N4 1_555 1_555
Li3 N3_2 1_555 1_555
C12_3 C19_3 1_555 1_555
C7_3 C1_3 1_555 1_555
F6_3 C7_3 1_555 1_555
F8_3 C1_3 1_555 1_555
O3_3 Al1_4 1_555 1_555
O4_3 Al1_4 1_555 1_555
C13_3 C14_3 1_555 1_555
C14_3 O3_3 1_555 1_555
C15_3 C14_3 1_555 1_555
C16_3 O4_3 1_555 1_555
F9_3 C15_3 1_555 1_555
F15_3 C13_3 1_555 1_555
Al1_5 O1_3 1_555 1_555
O1_3 C4_3 1_555 1_555
O2_3 Al1_5 1_555 1_555
N2_3 C8_3 1_555 1_555
C2_3 C6_3 1_555 1_555
C3_3 C4_3 1_555 1_555
C4_3 C5_3 1_555 1_555
C5_3 C10_3 1_555 1_555
C6_3 O2_3 1_555 1_555
C8_3 C3_3 1_555 1_555
C9_3 N1_2 1_555 1_555
C10_3 N2_3 1_555 1_555
F1_3 C5_3 1_555 1_555
F2_3 C8_3 1_555 1_555
F3_3 C2_3 1_555 1_555
F4_3 C10_3 1_555 1_555
F5_3 C9_3 1_555 1_555
F7_3 C3_3 1_555 1_555
Li2 N2_3 1_555 1_555
C17_3 C11_3 1_555 1_555
F14_3 C17_3 1_555 1_555
F16_3 C11_3 1_555 1_555
N5_2 Li2 1_555 1_555
N6_2 Li2 1_555 1_555
Li3_2 N1_2 1_555 1_555
C2_3 C9_3 1_555 1_555
C19_4 N6_2 1_555 1_555
F11_4 C12_4 1_555 1_555
F13_4 C19_4 1_555 1_555
C12_4 C19_4 1_555 1_555
Al1_6 O1_4 1_555 1_555
O2_4 Al1_6 1_555 1_555
N5_2 C7_4 1_555 1_555
C1_4 C6_4 1_555 1_555
C2_4 C6_4 1_555 1_555
C6_4 O2_4 1_555 1_555
C7_4 C1_4 1_555 1_555
C9_4 N5_2 1_555 1_555
F3_4 C2_4 1_555 1_555
F5_4 C9_4 1_555 1_555
F6_4 C7_4 1_555 1_555
F8_4 C1_4 1_555 1_555
O3_4 Al1_6 1_555 1_555
O4_4 Al1_6 1_555 1_555
C11_4 C16_4 1_555 1_555
C16_4 O4_4 1_555 1_555
C17_4 C11_4 1_555 1_555
F14_4 C17_4 1_555 1_555
F16_4 C11_4 1_555 1_555
C2_4 C9_4 1_555 1_555
N4_2 C18_4 1_555 1_555
C20_4 N4_2 1_555 1_555
F10_4 C18_4 1_555 1_555
F12_4 C20_4 1_555 1_555
Li3_2 N4_2 1_555 1_555
N2_4 C8_4 1_555 1_555
C3_4 C4_4 1_555 1_555
C4_4 C5_4 1_555 1_555
C5_4 C10_4 1_555 1_555
C8_4 C3_4 1_555 1_555
C10_4 N2_4 1_555 1_555
F1_4 C5_4 1_555 1_555
F2_4 C8_4 1_555 1_555
F4_4 C10_4 1_555 1_555
Li3 N2_4 1_555 1_555
C13_4 C14_4 1_555 1_555
C15_4 C14_4 1_555 1_555
F9_4 C15_4 1_555 1_555

#END
