
###############################################################################
#
# This file contains modified crystal structure data generated from the
# MOF subset of the Cambridge Structural Database (CSD) v543 
# hosted by the Cambridge Crystallographic Data Centre (CCDC).
#
# This work is licensed under the Creative Commons
# Attribution-NonCommercial-ShareAlike 4.0 International License.
# To view a copy of this license, visit
# http://creativecommons.org/licenses/by-nc-sa/4.0/
# or send a letter to
# Creative Commons, PO Box 1866, Mountain View, CA 94042, USA.
#
# CIF created using the CSD Python API on 29 September 2022
# The structure has been converted into the P1 space group
# The structure has a 3D framework
# The original CSD entry HIPWOV is in the hexagonal crystal system
# The original CSD entry HIPWOV is in a Sohncke space group
# The framework has been calculated to contain at least 10.0% void space
# The void calculation uses a probe of radius 1.32A, grid spacing 0.4
# H atom positions have been added when not included in the experimental data
#
###############################################################################

data_HIPWOV
_chemical_formula_moiety         '(C48 H48 Ca2 Cu12 N12 O50)n'
_symmetry_cell_setting           triclinic
_symmetry_space_group_name_H-M   'P 1'
_symmetry_Int_Tables_number      1
_space_group_name_Hall           'P 1'
loop_
_symmetry_equiv_pos_site_id
_symmetry_equiv_pos_as_xyz
1 x,y,z
_cell_length_a                   17.860(9)
_cell_length_b                   17.860(9)
_cell_length_c                   12.849(8)
_cell_angle_alpha                90
_cell_angle_beta                 90
_cell_angle_gamma                120
_cell_volume                     3549.46
loop_
_atom_site_label
_atom_site_type_symbol
_atom_site_fract_x
_atom_site_fract_y
_atom_site_fract_z
N3 N 0.0973(6) 0.4967(8) 0.4149(9)
O12 O 0.2383(4) 0.5611(6) 0.3095(8)
O14 O 0.0192(4) 0.5710(6) 0.3176(8)
O15 O 0.2966(8) 0.4970(9) 0.4054(8)
C9 C 0.0196(8) 0.4744(11) 0.4532(12)
C12 C 0.2377(8) 0.5130(11) 0.3824(12)
C14 C 0.1543(9) 0.4646(13) 0.4532(14)
H4 H 0.1690 0.4794 0.5283
C15 C 0.1130(8) 0.3656(11) 0.4351(14)
O17 O 0.0910(12) 0.3358(16) 0.3286(15)
Cu10 Cu 0.13653(8) 0.57796(11) 0.30333(11)
Cu12 Cu 0.42204(11) 0.55857(8) 0.30333(11)
Ca4 Ca 0.3333 0.6667 0.1744(5)
H16 H 0.0538974 0.333325 0.481003
H17 H 0.158522 0.34642 0.463061
H19 H 0.144021 0.363451 0.285052
Cu1 Cu 0.55857(8) 0.13653(8) 0.80333(11)
Cu2 Cu 0.55376(8) 0.13740(8) 0.54438(12)
Ca1 Ca 0.6667 0.3333 0.6744(5)
N2 N 0.5906(7) 0.0982(6) 0.4243(9)
O1 O 0.5357(3) 0.1780(3) 0.6748(9)
O2 O 0.6757(5) 0.2382(4) 0.5368(7)
O4 O 0.4460(5) 0.0210(5) 0.5289(9)
O7 O 0.7984(6) 0.2898(9) 0.4461(9)
C2 C 0.5405(8) 0.0227(7) 0.3924(12)
C3 C 0.7211(8) 0.2325(8) 0.4594(12)
C5 C 0.6781(8) 0.1569(9) 0.3861(11)
H1 H 0.7117 0.1260 0.3837
C8 C 0.6761(10) 0.1922(10) 0.2751(10)
O9 O 0.625(2) 0.152(2) 0.183(2)
Cu3 Cu 0.86347(8) 0.42204(11) 0.80333(11)
Cu4 Cu 0.86260(8) 0.41636(11) 0.54438(12)
N4 N 0.9018(6) 0.4924(9) 0.4243(9)
O10 O 0.8220(3) 0.3577(4) 0.6748(9)
O11 O 0.7618(4) 0.4375(6) 0.5368(7)
O13 O 0.9790(5) 0.4250(7) 0.5289(9)
O16 O 0.7102(9) 0.5086(11) 0.4461(9)
C10 C 0.9773(7) 0.5178(11) 0.3924(12)
C11 C 0.7675(8) 0.4886(11) 0.4594(12)
C13 C 0.8431(9) 0.5212(12) 0.3861(11)
H3 H 0.8740 0.5857 0.3837
C16 C 0.8078(10) 0.4839(14) 0.2751(10)
O18 O 0.848(2) 0.473(3) 0.183(2)
Cu5 Cu 0.57796(11) 0.44143(8) 0.80333(11)
Cu6 Cu 0.58364(11) 0.44624(8) 0.54438(12)
N5 N 0.5033(8) 0.6006(6) 0.4149(9)
N6 N 0.5076(9) 0.4094(7) 0.4243(9)
O19 O 0.6423(4) 0.4643(3) 0.6748(9)
O20 O 0.5625(6) 0.3243(5) 0.5368(7)
O21 O 0.4389(6) 0.6772(4) 0.3095(8)
O22 O 0.5750(7) 0.5540(5) 0.5289(9)
O23 O 0.4290(6) 0.4482(5) 0.3176(8)
O24 O 0.5030(9) 0.7996(5) 0.4054(8)
O25 O 0.4914(11) 0.2016(6) 0.4461(9)
C17 C 0.5256(11) 0.5452(8) 0.4532(12)
C18 C 0.4822(11) 0.4595(8) 0.3924(12)
C19 C 0.5114(11) 0.2789(8) 0.4594(12)
C20 C 0.4870(11) 0.7247(8) 0.3824(12)
C21 C 0.4788(12) 0.3219(8) 0.3861(11)
H5 H 0.4143 0.2883 0.3837
C22 C 0.5354(13) 0.6897(9) 0.4532(14)
H6 H 0.5206 0.6896 0.5283
C23 C 0.6344(11) 0.7474(8) 0.4351(14)
O26 O 0.6642(16) 0.7552(11) 0.3286(15)
C24 C 0.5161(14) 0.3239(10) 0.2751(10)
O27 O 0.527(3) 0.375(2) 0.183(2)
Cu8 Cu 0.44143(8) 0.86347(8) 0.30333(11)
N7 N 0.6006(6) 0.0973(6) 0.9149(9)
N8 N 0.9027(6) 0.5033(8) 0.9149(9)
N9 N 0.4967(8) 0.3994(6) 0.9149(9)
O28 O 0.6772(4) 0.2383(4) 0.8095(8)
O29 O 0.7617(4) 0.4389(6) 0.8095(8)
O30 O 0.5611(6) 0.3228(4) 0.8095(8)
O31 O 0.4482(5) 0.0192(4) 0.8176(8)
O32 O 0.9808(4) 0.4290(6) 0.8176(8)
O33 O 0.5710(6) 0.5518(5) 0.8176(8)
O34 O 0.7996(5) 0.2966(8) 0.9054(8)
O35 O 0.7034(8) 0.5030(9) 0.9054(8)
O36 O 0.4970(9) 0.2004(5) 0.9054(8)
H7 H 0.742323 0.218812 0.247773
H8 H 0.663414 0.244715 0.291128
H9 H 0.562801 0.12815 0.199281
H13 H 0.87185 0.434651 0.199281
H14 H 0.476489 0.257677 0.247773
H15 H 0.5813 0.336586 0.291128
H18 H 0.636549 0.78057 0.285052
H20 H 0.781188 0.523511 0.247773
H21 H 0.755285 0.4187 0.291128
H22 H 0.565349 0.437199 0.199281
H23 H 0.666675 0.720573 0.481003
H24 H 0.65358 0.812102 0.463061
N1 N 0.3994(6) 0.9027(6) 0.4149(9)
O3 O 0.3228(4) 0.7617(4) 0.3095(8)
O5 O 0.5518(5) 0.9808(4) 0.3176(8)
O6 O 0.2004(5) 0.7034(8) 0.4054(8)
C1 C 0.4548(8) 0.9804(8) 0.4532(12)
C4 C 0.2753(8) 0.7623(8) 0.3824(12)
C6 C 0.3103(9) 0.8457(9) 0.4532(14)
H2 H 0.3104 0.8310 0.5283
C7 C 0.2526(8) 0.8870(8) 0.4351(14)
O8 O 0.2448(11) 0.9090(12) 0.3286(15)
H10 H 0.279427 0.946103 0.481003
H11 H 0.187898 0.841478 0.463061
H12 H 0.21943 0.855979 0.285052
C1_2 C 0.5452(8) 0.0196(8) 0.9532(12)
C4_2 C 0.7247(8) 0.2377(8) 0.8824(12)
C6_2 C 0.6897(9) 0.1543(9) 0.9532(14)
C7_2 C 0.7474(8) 0.1130(8) 0.9351(14)
O8_2 O 0.7552(11) 0.0910(12) 0.8286(15)
H10_2 H 0.720573 0.0538974 0.981003
H11_2 H 0.812102 0.158522 0.963061
H12_2 H 0.78057 0.144021 0.785052
Cu2_2 Cu 0.44624(8) 0.86260(8) 0.04438(12)
O1_2 O 0.4643(3) 0.8220(3) 0.1748(9)
O2_2 O 0.3243(5) 0.7618(4) 0.0368(7)
O4_2 O 0.5540(5) 0.9790(5) 0.0289(9)
Cu4_2 Cu 0.13740(8) 0.58364(11) 0.04438(12)
O10_2 O 0.1780(3) 0.6423(4) 0.1748(9)
O11_2 O 0.2382(4) 0.5625(6) 0.0368(7)
O13_2 O 0.0210(5) 0.5750(7) 0.0289(9)
Cu6_2 Cu 0.41636(11) 0.55376(8) 0.04438(12)
O19_2 O 0.3577(4) 0.5357(3) 0.1748(9)
O20_2 O 0.4375(6) 0.6757(5) 0.0368(7)
O22_2 O 0.4250(7) 0.4460(5) 0.0289(9)
H6_2 H 0.4794 0.3104 0.0283
N2_2 N 0.4094(7) 0.9018(6) 0.9243(9)
O7_2 O 0.2016(6) 0.7102(9) 0.9461(9)
C2_2 C 0.4595(8) 0.9773(7) 0.8924(12)
C3_2 C 0.2789(8) 0.7675(8) 0.9594(12)
C5_2 C 0.3219(8) 0.8431(9) 0.8861(11)
H1_2 H 0.2883 0.8740 0.8837
C8_2 C 0.3239(10) 0.8078(10) 0.7751(10)
O9_2 O 0.375(2) 0.848(2) 0.683(2)
N4_2 N 0.0982(6) 0.5076(9) 0.9243(9)
O16_2 O 0.2898(9) 0.4914(11) 0.9461(9)
C10_2 C 0.0227(7) 0.4822(11) 0.8924(12)
C11_2 C 0.2325(8) 0.5114(11) 0.9594(12)
C13_2 C 0.1569(9) 0.4788(12) 0.8861(11)
H3_2 H 0.1260 0.4143 0.8837
C16_2 C 0.1922(10) 0.5161(14) 0.7751(10)
O18_2 O 0.152(2) 0.527(3) 0.683(2)
N6_2 N 0.4924(9) 0.5906(7) 0.9243(9)
O25_2 O 0.5086(11) 0.7984(6) 0.9461(9)
C17_2 C 0.4744(11) 0.4548(8) 0.9532(12)
C18_2 C 0.5178(11) 0.5405(8) 0.8924(12)
C19_2 C 0.4886(11) 0.7211(8) 0.9594(12)
C20_2 C 0.5130(11) 0.2753(8) 0.8824(12)
C21_2 C 0.5212(12) 0.6781(8) 0.8861(11)
H5_2 H 0.5857 0.7117 0.8837
C22_2 C 0.4646(13) 0.3103(9) 0.9532(14)
C23_2 C 0.3656(11) 0.2526(8) 0.9351(14)
O26_2 O 0.3358(16) 0.2448(11) 0.8286(15)
C24_2 C 0.4839(14) 0.6761(10) 0.7751(10)
O27_2 O 0.473(3) 0.625(2) 0.683(2)
H7_2 H 0.257677 0.781188 0.747773
H8_2 H 0.336586 0.755285 0.791128
H9_2 H 0.437199 0.87185 0.699281
H13_2 H 0.12815 0.565349 0.699281
H14_2 H 0.523511 0.742323 0.747773
H15_2 H 0.4187 0.663414 0.791128
H18_2 H 0.363451 0.21943 0.785052
H20_2 H 0.218812 0.476489 0.747773
H21_2 H 0.244715 0.5813 0.791128
H22_2 H 0.434651 0.562801 0.699281
H23_2 H 0.333325 0.279427 0.981003
H24_2 H 0.34642 0.187898 0.963061
C9_2 C 0.9804(8) 0.5256(11) 0.9532(12)
C12_2 C 0.7623(8) 0.4870(11) 0.8824(12)
C14_2 C 0.8457(9) 0.5354(13) 0.9532(14)
C15_2 C 0.8870(8) 0.6344(11) 0.9351(14)
O17_2 O 0.9090(12) 0.6642(16) 0.8286(15)
H16_2 H 0.946103 0.666675 0.981003
H17_2 H 0.841478 0.65358 0.963061
H19_2 H 0.855979 0.636549 0.785052
H2_2 H 0.6896 0.1690 0.0283
H4_2 H 0.8310 0.5206 0.0283
loop_
_geom_bond_atom_site_label_1
_geom_bond_atom_site_label_2
_geom_bond_site_symmetry_1
_geom_bond_site_symmetry_2
N3 C9 1_555 1_555
O12 C12 1_555 1_555
O15 C12 1_555 1_555
C12 C14 1_555 1_555
C14 N3 1_555 1_555
H4 C14 1_555 1_555
C15 C14 1_555 1_555
O17 C15 1_555 1_555
Cu10 N3 1_555 1_555
Cu12 O15 1_555 1_555
Ca4 O12 1_555 1_555
O12 Cu10 1_555 1_555
O14 Cu10 1_555 1_555
C15 H16 1_555 1_555
C15 H17 1_555 1_555
O17 H19 1_555 1_555
Cu1 O1 1_555 1_555
Cu2 N2 1_555 1_555
Ca1 O1 1_555 1_555
N2 C2 1_555 1_555
O1 Cu2 1_555 1_555
O2 Cu2 1_555 1_555
O4 Cu2 1_555 1_555
O7 C3 1_555 1_555
C3 O2 1_555 1_555
C5 N2 1_555 1_555
H1 C5 1_555 1_555
C8 C5 1_555 1_555
O9 C8 1_555 1_555
Cu3 O10 1_555 1_555
Cu4 O7 1_555 1_555
N4 Cu4 1_555 1_555
O10 Ca1 1_555 1_555
O11 Ca1 1_555 1_555
O13 Cu4 1_555 1_555
O16 C11 1_555 1_555
C10 N4 1_555 1_555
C11 O11 1_555 1_555
C13 N4 1_555 1_555
H3 C13 1_555 1_555
C16 C13 1_555 1_555
O18 C16 1_555 1_555
Cu5 O19 1_555 1_555
Cu6 O16 1_555 1_555
N5 C17 1_555 1_555
N6 Cu6 1_555 1_555
O19 Ca1 1_555 1_555
O20 Ca1 1_555 1_555
O21 C20 1_555 1_555
O22 Cu6 1_555 1_555
O23 C18 1_555 1_555
O24 C20 1_555 1_555
O25 Cu2 1_555 1_555
C17 O22 1_555 1_555
C18 N6 1_555 1_555
C19 O20 1_555 1_555
C20 C22 1_555 1_555
C21 N6 1_555 1_555
H5 C21 1_555 1_555
C22 N5 1_555 1_555
H6 C22 1_555 1_555
C23 C22 1_555 1_555
O26 C23 1_555 1_555
C24 C21 1_555 1_555
O27 C24 1_555 1_555
Cu8 O24 1_555 1_555
Cu12 N5 1_555 1_555
Ca4 O21 1_555 1_555
N7 Cu1 1_555 1_555
N8 Cu3 1_555 1_555
N9 Cu5 1_555 1_555
O28 Cu1 1_555 1_555
O29 Ca1 1_555 1_555
O30 Ca1 1_555 1_555
O31 Cu1 1_555 1_555
O32 Cu3 1_555 1_555
O33 Cu5 1_555 1_555
O34 Cu3 1_555 1_555
O35 Cu5 1_555 1_555
O36 Cu1 1_555 1_555
Ca1 O2 1_555 1_555
Ca1 O28 1_555 1_555
C3 C5 1_555 1_555
Cu3 O29 1_555 1_555
Cu4 O10 1_555 1_555
Cu4 O11 1_555 1_555
C11 C13 1_555 1_555
Cu5 O30 1_555 1_555
Cu6 O19 1_555 1_555
Cu6 O20 1_555 1_555
O21 Cu12 1_555 1_555
O23 Cu12 1_555 1_555
O25 C19 1_555 1_555
C17 C18 1_555 1_555
C19 C21 1_555 1_555
C8 H7 1_555 1_555
C8 H8 1_555 1_555
O9 H9 1_555 1_555
O18 H13 1_555 1_555
C24 H14 1_555 1_555
C24 H15 1_555 1_555
O26 H18 1_555 1_555
C16 H20 1_555 1_555
C16 H21 1_555 1_555
O27 H22 1_555 1_555
C23 H23 1_555 1_555
C23 H24 1_555 1_555
N1 C1 1_555 1_555
O3 C4 1_555 1_555
O6 C4 1_555 1_555
C4 C6 1_555 1_555
C6 N1 1_555 1_555
H2 C6 1_555 1_555
C7 C6 1_555 1_555
O8 C7 1_555 1_555
Cu8 N1 1_555 1_555
Cu10 O6 1_555 1_555
Ca4 O3 1_555 1_555
O3 Cu8 1_555 1_555
O5 Cu8 1_555 1_555
C7 H10 1_555 1_555
C7 H11 1_555 1_555
O8 H12 1_555 1_555
N7 C1_2 1_555 1_555
O28 C4_2 1_555 1_555
O34 C4_2 1_555 1_555
C4_2 C6_2 1_555 1_555
C6_2 N7 1_555 1_555
C7_2 C6_2 1_555 1_555
O8_2 C7_2 1_555 1_555
C7_2 H10_2 1_555 1_555
C7_2 H11_2 1_555 1_555
O8_2 H12_2 1_555 1_555
Cu8 O1_2 1_555 1_555
Ca4 O1_2 1_555 1_555
O1_2 Cu2_2 1_555 1_555
O2_2 Cu2_2 1_555 1_555
O4_2 Cu2_2 1_555 1_555
Cu10 O10_2 1_555 1_555
O10_2 Ca4 1_555 1_555
O11_2 Ca4 1_555 1_555
O13_2 Cu4_2 1_555 1_555
Cu12 O19_2 1_555 1_555
O19_2 Ca4 1_555 1_555
O20_2 Ca4 1_555 1_555
O22_2 Cu6_2 1_555 1_555
Ca4 O2_2 1_555 1_555
Cu4_2 O10_2 1_555 1_555
Cu4_2 O11_2 1_555 1_555
Cu6_2 O19_2 1_555 1_555
Cu6_2 O20_2 1_555 1_555
N2_2 C2_2 1_555 1_555
O7_2 C3_2 1_555 1_555
C5_2 N2_2 1_555 1_555
H1_2 C5_2 1_555 1_555
C8_2 C5_2 1_555 1_555
O9_2 C8_2 1_555 1_555
O16_2 C11_2 1_555 1_555
C10_2 N4_2 1_555 1_555
C13_2 N4_2 1_555 1_555
H3_2 C13_2 1_555 1_555
C16_2 C13_2 1_555 1_555
O18_2 C16_2 1_555 1_555
N9 C17_2 1_555 1_555
O30 C20_2 1_555 1_555
O33 C18_2 1_555 1_555
O36 C20_2 1_555 1_555
C18_2 N6_2 1_555 1_555
C20_2 C22_2 1_555 1_555
C21_2 N6_2 1_555 1_555
H5_2 C21_2 1_555 1_555
C22_2 N9 1_555 1_555
C23_2 C22_2 1_555 1_555
O26_2 C23_2 1_555 1_555
C24_2 C21_2 1_555 1_555
O27_2 C24_2 1_555 1_555
C3_2 C5_2 1_555 1_555
C11_2 C13_2 1_555 1_555
O25_2 C19_2 1_555 1_555
C17_2 C18_2 1_555 1_555
C19_2 C21_2 1_555 1_555
C8_2 H7_2 1_555 1_555
C8_2 H8_2 1_555 1_555
O9_2 H9_2 1_555 1_555
O18_2 H13_2 1_555 1_555
C24_2 H14_2 1_555 1_555
C24_2 H15_2 1_555 1_555
O26_2 H18_2 1_555 1_555
C16_2 H20_2 1_555 1_555
C16_2 H21_2 1_555 1_555
O27_2 H22_2 1_555 1_555
C23_2 H23_2 1_555 1_555
C23_2 H24_2 1_555 1_555
N8 C9_2 1_555 1_555
O29 C12_2 1_555 1_555
O35 C12_2 1_555 1_555
C12_2 C14_2 1_555 1_555
C14_2 N8 1_555 1_555
C15_2 C14_2 1_555 1_555
O17_2 C15_2 1_555 1_555
C15_2 H16_2 1_555 1_555
C15_2 H17_2 1_555 1_555
O17_2 H19_2 1_555 1_555

#END
