
###############################################################################
#
# This file contains modified crystal structure data generated from the
# MOF subset of the Cambridge Structural Database (CSD) v543 
# hosted by the Cambridge Crystallographic Data Centre (CCDC).
#
# This work is licensed under the Creative Commons
# Attribution-NonCommercial-ShareAlike 4.0 International License.
# To view a copy of this license, visit
# http://creativecommons.org/licenses/by-nc-sa/4.0/
# or send a letter to
# Creative Commons, PO Box 1866, Mountain View, CA 94042, USA.
#
# CIF created using the CSD Python API on 29 September 2022
# The structure has been converted into the P1 space group
# The structure has a 3D framework
# The original CSD entry HIQDUJ09 is in the tetragonal crystal system
# The framework has been calculated to contain at least 10.0% void space
# The void calculation uses a probe of radius 1.32A, grid spacing 0.4
# H atom positions have been added when not included in the experimental data
#
###############################################################################

data_HIQDUJ09
_chemical_formula_moiety         '(C88 H64 Co1 N8 Ni3 O24 P8)n'
_symmetry_cell_setting           triclinic
_symmetry_space_group_name_H-M   'P 1'
_symmetry_Int_Tables_number      1
_space_group_name_Hall           'P 1'
loop_
_symmetry_equiv_pos_site_id
_symmetry_equiv_pos_as_xyz
1 x,y,z
_cell_length_a                   21.980(5)
_cell_length_b                   21.980(5)
_cell_length_c                   8.9600(17)
_cell_angle_alpha                90
_cell_angle_beta                 90
_cell_angle_gamma                90
_cell_volume                     4328.76
loop_
_atom_site_label
_atom_site_type_symbol
_atom_site_fract_x
_atom_site_fract_y
_atom_site_fract_z
Co2 Co 0.0000 0.5000 0.4267(12)
O13 O 0.0376(7) 0.5650(8) 0.032(2)
O15 O 0.0376(7) 0.4350(8) 0.532(2)
O16 O 0.0664(7) 0.5330(9) 0.314(2)
Co1 Co -0.0000 0.5000 0.9267(12)
O18 O 0.0664(7) 0.4670(9) 0.814(2)
Co5 Co 0.5000 0.0000 0.0733(12)
Co8 Co 0.5000 -0.0000 0.5733(12)
Ni1 Ni 0.5000 0.5000 0.0000
P1 P 0.9232(4) 0.4197(5) 0.1812(12)
O1 O 0.9624(7) 0.4350(8) 0.032(2)
O2 O 0.9336(7) 0.4670(9) 0.314(2)
O3 O 0.9341(9) 0.3546(11) 0.233(3)
C5 C 0.6510(5) 0.4648(6) 0.0450(18)
C6 C 0.7171(6) 0.4502(6) 0.0698(17)
C8 C 0.8244(6) 0.4680(6) 0.0180(19)
C9 C 0.8427(7) 0.4295(7) 0.1262(19)
C10 C 0.7974(6) 0.3981(7) 0.2079(18)
H5 H 0.8089 0.3697 0.2826
C11 C 0.7348(6) 0.4090(7) 0.1786(19)
H6 H 0.7048 0.3879 0.2343
N2 N 0.4258(5) 0.4520(5) 0.0117(16)
C12 C 0.3687(6) 0.4728(6) 0.0512(19)
C13 C 0.3280(6) 0.4242(5) 0.0850(19)
H7 H 0.2877 0.4275 0.1228
C14 C 0.3591(5) 0.3706(6) 0.0516(18)
H8 H 0.3440 0.3302 0.0596
C15 C 0.4201(5) 0.3892(5) 0.001(2)
C18 C 0.4787(6) 0.2365(5) 0.0188(19)
H9 H 0.5043 0.2470 0.1004
H10 H 0.4891 0.1452 0.0366
N3 N 0.5742(5) 0.5480(5) 0.0117(16)
C23 C 0.6313(6) 0.5272(6) 0.0512(19)
C24 C 0.6720(6) 0.5758(5) 0.0850(19)
H13 H 0.7123 0.5725 0.1228
C25 C 0.6409(5) 0.6294(6) 0.0516(18)
H14 H 0.6560 0.6698 0.0596
C26 C 0.5799(5) 0.6108(5) 0.001(2)
C29 C 0.5213(6) 0.7635(5) 0.0188(19)
H15 H 0.4957 0.7530 0.1004
H16 H 0.5109 0.8548 0.0366
P4 P 0.0768(4) 0.5803(5) 0.1812(12)
O12 O 0.0659(9) 0.6454(11) 0.233(3)
C38 C 0.3490(5) 0.5352(6) 0.0450(18)
C39 C 0.2829(6) 0.5498(6) 0.0698(17)
C41 C 0.1756(6) 0.5320(6) 0.0180(19)
C42 C 0.1573(7) 0.5705(7) 0.1262(19)
C43 C 0.2026(6) 0.6019(7) 0.2079(18)
H23 H 0.1911 0.6303 0.2826
C44 C 0.2652(6) 0.5910(7) 0.1786(19)
H24 H 0.2952 0.6121 0.2343
Co2_2 Co 1.0000 0.5000 0.4267(12)
Co5_2 Co 0.5000 1.0000 0.0733(12)
O14 O 0.9624(7) 0.5650(8) 0.532(2)
H25 H 0.977943 0.348928 0.255829
H28 H 0.0220568 0.651072 0.255829
Co1_2 Co 1.0000 0.5000 0.9267(12)
Ni1_2 Ni 0.5000 0.5000 1.0000
N1 N 0.5480(5) 0.4258(5) 0.9883(16)
C1 C 0.5272(6) 0.3687(6) 0.9488(19)
C2 C 0.5758(5) 0.3280(6) 0.9150(19)
H1 H 0.5725 0.2877 0.8772
C3 C 0.6294(6) 0.3591(5) 0.9484(18)
H2 H 0.6698 0.3440 0.9404
C4 C 0.6108(5) 0.4201(5) 0.999(2)
C7 C 0.7635(5) 0.4787(6) 0.9812(19)
H3 H 0.7530 0.5043 0.8996
H4 H 0.8548 0.4891 0.9634
P2 P 0.4197(5) 0.0768(4) 0.8188(12)
O4 O 0.4350(8) 0.0376(7) 0.968(2)
O5 O 0.4670(9) 0.0664(7) 0.686(2)
O6 O 0.3546(11) 0.0659(9) 0.767(3)
C16 C 0.4648(6) 0.3490(5) 0.9550(18)
C17 C 0.4502(6) 0.2829(6) 0.9302(17)
C19 C 0.4680(6) 0.1756(6) 0.9820(19)
C20 C 0.4295(7) 0.1573(7) 0.8738(19)
C21 C 0.3981(7) 0.2026(6) 0.7921(18)
H11 H 0.3697 0.1911 0.7174
C22 C 0.4090(7) 0.2652(6) 0.8214(19)
H12 H 0.3879 0.2952 0.7657
P3 P 0.5803(5) 0.9232(4) 0.8188(12)
O7 O 0.5650(8) 0.9624(7) 0.968(2)
O8 O 0.5330(9) 0.9336(7) 0.686(2)
O9 O 0.6454(11) 0.9341(9) 0.767(3)
C27 C 0.5352(6) 0.6510(5) 0.9550(18)
C28 C 0.5498(6) 0.7171(6) 0.9302(17)
C30 C 0.5320(6) 0.8244(6) 0.9820(19)
C31 C 0.5705(7) 0.8427(7) 0.8738(19)
C32 C 0.6019(7) 0.7974(6) 0.7921(18)
H17 H 0.6303 0.8089 0.7174
C33 C 0.5910(7) 0.7348(6) 0.8214(19)
H18 H 0.6121 0.7048 0.7657
N4 N 0.4520(5) 0.5742(5) 0.9883(16)
C34 C 0.4728(6) 0.6313(6) 0.9488(19)
C35 C 0.4242(5) 0.6720(6) 0.9150(19)
H19 H 0.4275 0.7123 0.8772
C36 C 0.3706(6) 0.6409(5) 0.9484(18)
H20 H 0.3302 0.6560 0.9404
C37 C 0.3892(5) 0.5799(5) 0.999(2)
C40 C 0.2365(5) 0.5213(6) 0.9812(19)
H21 H 0.2470 0.4957 0.8996
H22 H 0.1452 0.5109 0.9634
Co8_2 Co 0.5000 1.0000 0.5733(12)
O17 O 0.9336(7) 0.5330(9) 0.814(2)
H26 H 0.674085 0.921805 0.847132
H27 H 0.325915 0.0781947 0.847132
O17_2 O 0.5330(9) 0.0664(7) 0.186(2)
H26_2 H 0.921805 0.325915 0.152868
H27_2 H 0.0781947 0.674085 0.152868
O14_2 O 0.5650(8) 0.0376(7) 0.468(2)
H25_2 H 0.348928 0.0220568 0.744171
H28_2 H 0.651072 0.977943 0.744171
O18_2 O 0.4670(9) 0.9336(7) 0.186(2)
O15_2 O 0.4350(8) 0.9624(7) 0.468(2)
Ni1_3 Ni 0.5000 0.5000 0.5000
P1_2 P 0.9232(4) 0.5803(5) 0.6812(12)
N1_2 N 0.5480(5) 0.5742(5) 0.4883(16)
O3_2 O 0.9341(9) 0.6454(11) 0.733(3)
C1_2 C 0.5272(6) 0.6313(6) 0.4488(19)
C2_2 C 0.5758(5) 0.6720(6) 0.4150(19)
H1_2 H 0.5725 0.7123 0.3772
C3_2 C 0.6294(6) 0.6409(5) 0.4484(18)
H2_2 H 0.6698 0.6560 0.4404
C4_2 C 0.6108(5) 0.5799(5) 0.499(2)
C5_2 C 0.6510(5) 0.5352(6) 0.5450(18)
C6_2 C 0.7171(6) 0.5498(6) 0.5698(17)
C7_2 C 0.7635(5) 0.5213(6) 0.4812(19)
H3_2 H 0.7530 0.4957 0.3996
C8_2 C 0.8244(6) 0.5320(6) 0.5180(19)
H4_2 H 0.8548 0.5109 0.4634
C9_2 C 0.8427(7) 0.5705(7) 0.6262(19)
C10_2 C 0.7974(6) 0.6019(7) 0.7079(18)
H5_2 H 0.8089 0.6303 0.7826
C11_2 C 0.7348(6) 0.5910(7) 0.6786(19)
H6_2 H 0.7048 0.6121 0.7343
P2_2 P 0.4197(5) 0.9232(4) 0.3188(12)
N2_2 N 0.4258(5) 0.5480(5) 0.5117(16)
O6_2 O 0.3546(11) 0.9341(9) 0.267(3)
C12_2 C 0.3687(6) 0.5272(6) 0.5512(19)
C13_2 C 0.3280(6) 0.5758(5) 0.5850(19)
H7_2 H 0.2877 0.5725 0.6228
C14_2 C 0.3591(5) 0.6294(6) 0.5516(18)
H8_2 H 0.3440 0.6698 0.5596
C15_2 C 0.4201(5) 0.6108(5) 0.501(2)
C16_2 C 0.4648(6) 0.6510(5) 0.4550(18)
C17_2 C 0.4502(6) 0.7171(6) 0.4302(17)
C18_2 C 0.4787(6) 0.7635(5) 0.5188(19)
H9_2 H 0.5043 0.7530 0.6004
C19_2 C 0.4680(6) 0.8244(6) 0.4820(19)
H10_2 H 0.4891 0.8548 0.5366
C20_2 C 0.4295(7) 0.8427(7) 0.3738(19)
C21_2 C 0.3981(7) 0.7974(6) 0.2921(18)
H11_2 H 0.3697 0.8089 0.2174
C22_2 C 0.4090(7) 0.7348(6) 0.3214(19)
H12_2 H 0.3879 0.7048 0.2657
P3_2 P 0.5803(5) 0.0768(4) 0.3188(12)
N3_2 N 0.5742(5) 0.4520(5) 0.5117(16)
O9_2 O 0.6454(11) 0.0659(9) 0.267(3)
C23_2 C 0.6313(6) 0.4728(6) 0.5512(19)
C24_2 C 0.6720(6) 0.4242(5) 0.5850(19)
H13_2 H 0.7123 0.4275 0.6228
C25_2 C 0.6409(5) 0.3706(6) 0.5516(18)
H14_2 H 0.6560 0.3302 0.5596
C26_2 C 0.5799(5) 0.3892(5) 0.501(2)
C27_2 C 0.5352(6) 0.3490(5) 0.4550(18)
C28_2 C 0.5498(6) 0.2829(6) 0.4302(17)
C29_2 C 0.5213(6) 0.2365(5) 0.5188(19)
H15_2 H 0.4957 0.2470 0.6004
C30_2 C 0.5320(6) 0.1756(6) 0.4820(19)
H16_2 H 0.5109 0.1452 0.5366
C31_2 C 0.5705(7) 0.1573(7) 0.3738(19)
C32_2 C 0.6019(7) 0.2026(6) 0.2921(18)
H17_2 H 0.6303 0.1911 0.2174
C33_2 C 0.5910(7) 0.2652(6) 0.3214(19)
H18_2 H 0.6121 0.2952 0.2657
P4_2 P 0.0768(4) 0.4197(5) 0.6812(12)
N4_2 N 0.4520(5) 0.4258(5) 0.4883(16)
O12_2 O 0.0659(9) 0.3546(11) 0.733(3)
C34_2 C 0.4728(6) 0.3687(6) 0.4488(19)
C35_2 C 0.4242(5) 0.3280(6) 0.4150(19)
H19_2 H 0.4275 0.2877 0.3772
C36_2 C 0.3706(6) 0.3591(5) 0.4484(18)
H20_2 H 0.3302 0.3440 0.4404
C37_2 C 0.3892(5) 0.4201(5) 0.499(2)
C38_2 C 0.3490(5) 0.4648(6) 0.5450(18)
C39_2 C 0.2829(6) 0.4502(6) 0.5698(17)
C40_2 C 0.2365(5) 0.4787(6) 0.4812(19)
H21_2 H 0.2470 0.5043 0.3996
C41_2 C 0.1756(6) 0.4680(6) 0.5180(19)
H22_2 H 0.1452 0.4891 0.4634
C42_2 C 0.1573(7) 0.4295(7) 0.6262(19)
C43_2 C 0.2026(6) 0.3981(7) 0.7079(18)
H23_2 H 0.1911 0.3697 0.7826
C44_2 C 0.2652(6) 0.4090(7) 0.6786(19)
H24_2 H 0.2952 0.3879 0.7343
H25_3 H 0.977943 0.651072 0.755829
H26_3 H 0.674085 0.0781947 0.347132
H27_3 H 0.325915 0.921805 0.347132
H28_3 H 0.0220568 0.348928 0.755829
H25_4 H 0.348928 0.977943 0.244171
H26_4 H 0.921805 0.674085 0.652868
H27_4 H 0.0781947 0.325915 0.652868
H28_4 H 0.651072 0.0220568 0.244171
loop_
_geom_bond_atom_site_label_1
_geom_bond_atom_site_label_2
_geom_bond_site_symmetry_1
_geom_bond_site_symmetry_2
O15 Co2 1_555 1_555
O16 Co2 1_555 1_555
O18 Co1 1_555 1_555
P1 O1 1_555 1_555
O2 P1 1_555 1_555
O3 P1 1_555 1_555
C6 C5 1_555 1_555
C9 P1 1_555 1_555
C10 C9 1_555 1_555
H5 C10 1_555 1_555
C11 C6 1_555 1_555
H6 C11 1_555 1_555
N2 Ni1 1_555 1_555
C12 N2 1_555 1_555
C13 C12 1_555 1_555
H7 C13 1_555 1_555
C14 C13 1_555 1_555
H8 C14 1_555 1_555
C15 N2 1_555 1_555
H9 C18 1_555 1_555
N3 Ni1 1_555 1_555
C23 C5 1_555 1_555
C24 C23 1_555 1_555
H13 C24 1_555 1_555
C25 C24 1_555 1_555
H14 C25 1_555 1_555
C26 N3 1_555 1_555
H15 C29 1_555 1_555
P4 O13 1_555 1_555
O16 P4 1_555 1_555
O12 P4 1_555 1_555
C38 C12 1_555 1_555
C39 C38 1_555 1_555
C42 P4 1_555 1_555
C43 C42 1_555 1_555
H23 C43 1_555 1_555
C44 C39 1_555 1_555
H24 C44 1_555 1_555
Co2_2 O2 1_555 1_555
O14 Co2_2 1_555 1_555
C8 C9 1_555 1_555
C10 C11 1_555 1_555
C14 C15 1_555 1_555
N3 C23 1_555 1_555
C25 C26 1_555 1_555
C41 C42 1_555 1_555
C43 C44 1_555 1_555
O3 H25 1_555 1_555
O12 H28 1_555 1_555
Ni1_2 N1 1_555 1_555
N1 C1 1_555 1_555
C1 C2 1_555 1_555
C2 H1 1_555 1_555
C3 C2 1_555 1_555
H2 C3 1_555 1_555
C4 N1 1_555 1_555
H3 C7 1_555 1_555
P2 O4 1_555 1_555
O5 P2 1_555 1_555
O6 P2 1_555 1_555
C16 C1 1_555 1_555
C17 C16 1_555 1_555
C20 P2 1_555 1_555
C21 C20 1_555 1_555
H11 C21 1_555 1_555
C22 C17 1_555 1_555
H12 C22 1_555 1_555
P3 O7 1_555 1_555
O8 P3 1_555 1_555
O9 P3 1_555 1_555
C28 C27 1_555 1_555
C31 P3 1_555 1_555
C32 C31 1_555 1_555
H17 C32 1_555 1_555
C33 C28 1_555 1_555
H18 C33 1_555 1_555
N4 Ni1_2 1_555 1_555
C34 C27 1_555 1_555
C35 C34 1_555 1_555
H19 C35 1_555 1_555
C36 C35 1_555 1_555
H20 C36 1_555 1_555
C37 N4 1_555 1_555
H21 C40 1_555 1_555
Co8 O5 1_555 1_555
Co8_2 O8 1_555 1_555
O17 Co1_2 1_555 1_555
C3 C4 1_555 1_555
C19 C20 1_555 1_555
C21 C22 1_555 1_555
C30 C31 1_555 1_555
C32 C33 1_555 1_555
N4 C34 1_555 1_555
C36 C37 1_555 1_555
O9 H26 1_555 1_555
O6 H27 1_555 1_555
O17_2 Co5 1_555 1_555
O3 H26_2 1_555 1_555
O12 H27_2 1_555 1_555
O14_2 Co8 1_555 1_555
O6 H25_2 1_555 1_555
O9 H28_2 1_555 1_555
O18_2 Co5_2 1_555 1_555
O15_2 Co8_2 1_555 1_555
Ni1_3 N1_2 1_555 1_555
P1_2 O14 1_555 1_555
N1_2 C1_2 1_555 1_555
O17 P1_2 1_555 1_555
O3_2 P1_2 1_555 1_555
C1_2 C2_2 1_555 1_555
C2_2 H1_2 1_555 1_555
C3_2 C2_2 1_555 1_555
H2_2 C3_2 1_555 1_555
C4_2 N1_2 1_555 1_555
C5_2 C4_2 1_555 1_555
C6_2 C5_2 1_555 1_555
C7_2 C6_2 1_555 1_555
H3_2 C7_2 1_555 1_555
C8_2 C7_2 1_555 1_555
H4_2 C8_2 1_555 1_555
C9_2 P1_2 1_555 1_555
C10_2 C9_2 1_555 1_555
H5_2 C10_2 1_555 1_555
C11_2 C6_2 1_555 1_555
H6_2 C11_2 1_555 1_555
P2_2 O15_2 1_555 1_555
N2_2 Ni1_3 1_555 1_555
O18_2 P2_2 1_555 1_555
O6_2 P2_2 1_555 1_555
C12_2 N2_2 1_555 1_555
C13_2 C12_2 1_555 1_555
H7_2 C13_2 1_555 1_555
C14_2 C13_2 1_555 1_555
H8_2 C14_2 1_555 1_555
C15_2 N2_2 1_555 1_555
C16_2 C1_2 1_555 1_555
C17_2 C16_2 1_555 1_555
C18_2 C17_2 1_555 1_555
H9_2 C18_2 1_555 1_555
C19_2 C18_2 1_555 1_555
H10_2 C19_2 1_555 1_555
C20_2 P2_2 1_555 1_555
C21_2 C20_2 1_555 1_555
H11_2 C21_2 1_555 1_555
C22_2 C17_2 1_555 1_555
H12_2 C22_2 1_555 1_555
P3_2 O14_2 1_555 1_555
N3_2 Ni1_3 1_555 1_555
O17_2 P3_2 1_555 1_555
O9_2 P3_2 1_555 1_555
C23_2 C5_2 1_555 1_555
C24_2 C23_2 1_555 1_555
H13_2 C24_2 1_555 1_555
C25_2 C24_2 1_555 1_555
H14_2 C25_2 1_555 1_555
C26_2 N3_2 1_555 1_555
C27_2 C26_2 1_555 1_555
C28_2 C27_2 1_555 1_555
C29_2 C28_2 1_555 1_555
H15_2 C29_2 1_555 1_555
C30_2 C29_2 1_555 1_555
H16_2 C30_2 1_555 1_555
C31_2 P3_2 1_555 1_555
C32_2 C31_2 1_555 1_555
H17_2 C32_2 1_555 1_555
C33_2 C28_2 1_555 1_555
H18_2 C33_2 1_555 1_555
P4_2 O15 1_555 1_555
N4_2 Ni1_3 1_555 1_555
O18 P4_2 1_555 1_555
O12_2 P4_2 1_555 1_555
C34_2 C27_2 1_555 1_555
C35_2 C34_2 1_555 1_555
H19_2 C35_2 1_555 1_555
C36_2 C35_2 1_555 1_555
H20_2 C36_2 1_555 1_555
C37_2 N4_2 1_555 1_555
C38_2 C12_2 1_555 1_555
C39_2 C38_2 1_555 1_555
C40_2 C39_2 1_555 1_555
H21_2 C40_2 1_555 1_555
C41_2 C40_2 1_555 1_555
H22_2 C41_2 1_555 1_555
C42_2 P4_2 1_555 1_555
C43_2 C42_2 1_555 1_555
H23_2 C43_2 1_555 1_555
C44_2 C39_2 1_555 1_555
H24_2 C44_2 1_555 1_555
C3_2 C4_2 1_555 1_555
C8_2 C9_2 1_555 1_555
C10_2 C11_2 1_555 1_555
C14_2 C15_2 1_555 1_555
C15_2 C16_2 1_555 1_555
C19_2 C20_2 1_555 1_555
C21_2 C22_2 1_555 1_555
N3_2 C23_2 1_555 1_555
C25_2 C26_2 1_555 1_555
C30_2 C31_2 1_555 1_555
C32_2 C33_2 1_555 1_555
N4_2 C34_2 1_555 1_555
C36_2 C37_2 1_555 1_555
C37_2 C38_2 1_555 1_555
C41_2 C42_2 1_555 1_555
C43_2 C44_2 1_555 1_555
O3_2 H25_3 1_555 1_555
O9_2 H26_3 1_555 1_555
O6_2 H27_3 1_555 1_555
O12_2 H28_3 1_555 1_555
O6_2 H25_4 1_555 1_555
O3_2 H26_4 1_555 1_555
O12_2 H27_4 1_555 1_555
O9_2 H28_4 1_555 1_555

#END
