
###############################################################################
#
# This file contains modified crystal structure data generated from the
# MOF subset of the Cambridge Structural Database (CSD) v543 
# hosted by the Cambridge Crystallographic Data Centre (CCDC).
#
# This work is licensed under the Creative Commons
# Attribution-NonCommercial-ShareAlike 4.0 International License.
# To view a copy of this license, visit
# http://creativecommons.org/licenses/by-nc-sa/4.0/
# or send a letter to
# Creative Commons, PO Box 1866, Mountain View, CA 94042, USA.
#
# CIF created using the CSD Python API on 29 September 2022
# The structure has been converted into the P1 space group
# The structure has a 3D framework
# The original CSD entry HISJEA is in the triclinic crystal system
# The framework has been calculated to contain at least 10.0% void space
# The void calculation uses a probe of radius 1.32A, grid spacing 0.4
# H atom positions have been added when not included in the experimental data
#
###############################################################################

data_HISJEA
_chemical_formula_moiety         '(C72 H80 Co6 O28)n'
_symmetry_cell_setting           triclinic
_symmetry_space_group_name_H-M   'P 1'
_symmetry_Int_Tables_number      1
_space_group_name_Hall           'P 1'
loop_
_symmetry_equiv_pos_site_id
_symmetry_equiv_pos_as_xyz
1 x,y,z
_cell_length_a                   11.0815(14)
_cell_length_b                   12.6742(19)
_cell_length_c                   14.523(2)
_cell_angle_alpha                91.853(8)
_cell_angle_beta                 92.757(6)
_cell_angle_gamma                97.818(9)
_cell_volume                     2016.89
loop_
_atom_site_label
_atom_site_type_symbol
_atom_site_fract_x
_atom_site_fract_y
_atom_site_fract_z
O3 O 0.2205(2) 0.4555(2) 0.3830(2)
O4 O 0.1438(2) 0.5909(2) 0.3158(2)
C4 C 0.0072(3) 0.4529(3) 0.3793(3)
H4 H 0.0565 0.3121 0.4108
C8 C 0.1336(3) 0.5043(3) 0.3578(3)
H8 H 0.0060 0.1384 0.3897
H12 H 0.0011 0.2067 0.5561
Co4 Co 0.41050(4) 0.47845(4) 0.40414(3)
Co10 Co 0.30715(4) 0.64276(4) 0.27095(3)
Co2 Co 0.58459(4) 0.73763(4) 0.35260(3)
O1 O 0.5997(2) 0.4914(2) 0.44697(16)
O2 O 0.6941(2) 0.6105(2) 0.35369(17)
O5 O 0.4014(3) 0.3234(2) 0.4285(2)
O6 O 0.3863(4) 0.1889(2) 0.51981(19)
O9 O 0.5545(3) 0.6961(2) 0.20770(17)
O10 O 0.6948(3) 0.5955(3) 0.16636(19)
H1 H 0.7057 0.5927 0.2224
O13 O 0.4234(2) 0.63979(19) 0.38033(15)
H2 H 0.3885 0.6735 0.4326
O14 O 0.7435(4) 0.8413(3) 0.3163(3)
C1 C 0.6893(3) 0.5270(3) 0.3993(2)
C2 C 0.7951(3) 0.4642(3) 0.3971(2)
C3 C 0.9091(3) 0.5117(3) 0.3736(2)
H3 H 0.9202 0.5815 0.3544
C5 C 0.9896(3) 0.3490(3) 0.4063(3)
C6 C 0.8741(3) 0.2962(3) 0.4276(3)
C7 C 0.7773(3) 0.3569(3) 0.4224(2)
H5 H 0.6997 0.3257 0.4360
C9 C 0.8586(4) 0.1797(3) 0.4562(3)
C10 C 0.9208(5) 0.1113(4) 0.3899(4)
H6 H 0.8840 0.1132 0.3289
H7 H 0.9115 0.0391 0.4094
C11 C 0.7236(5) 0.1320(4) 0.4574(5)
H9 H 0.6859 0.1327 0.3966
H10 H 0.6830 0.1735 0.4994
H11 H 0.7177 0.0599 0.4770
C12 C 0.9165(2) 0.17727(18) 0.55532(15)
H13 H 0.9094 0.1050 0.5744
H14 H 0.8750 0.2186 0.5968
C13 C 0.3437(2) 0.15181(18) 0.36007(15)
C14 C 0.3815(2) 0.04982(18) 0.35902(15)
H15 H 0.4332 0.0306 0.4060
C16 C 0.2600(3) 0.0075(3) 0.2174(2)
C17 C 0.2241(3) 0.1088(3) 0.2164(2)
C18 C 0.2685(3) 0.1803(3) 0.2890(2)
H17 H 0.2471 0.2488 0.2897
C20 C 0.1391(4) 0.1386(3) 0.1375(3)
C21 C 0.0233(4) 0.0554(4) 0.1289(4)
C22 C 0.2047(5) 0.1351(4) 0.0465(3)
H21 H 0.2773 0.1862 0.0508
H23 H 0.2260 0.0651 0.0356
C23 C 0.1021(5) 0.2486(4) 0.1525(3)
H24 H 0.1737 0.3008 0.1575
H25 H 0.0590 0.2507 0.2081
H26 H 0.0501 0.2637 0.1011
C24 C 0.6059(3) 0.6512(3) 0.1477(2)
C25 C 0.5678(3) 0.6556(3) 0.0483(2)
C26 C 0.4824(4) 0.7219(3) 0.0268(3)
H27 H 0.4525 0.7607 0.0739
H31 H 0.3327 0.8728 0.0357
H32 H 0.2348 0.7725 0.0141
C36 C 0.3813(3) 0.2282(3) 0.4418(2)
Co6 Co 0.58950(4) 0.52155(4) 0.59586(3)
Co8 Co 0.41541(4) 0.26237(4) 0.64740(3)
O15 O 0.4003(2) 0.5086(2) 0.55303(16)
O18 O 0.6137(4) 0.8111(2) 0.48019(19)
O19 O 0.3058(3) 0.7931(2) 0.24351(18)
O20 O 0.4792(3) 0.8606(2) 0.32408(19)
O21 O 0.4428(3) 0.4547(2) 0.26737(17)
O22 O 0.3259(2) 0.5368(2) 0.17146(17)
H39 H 0.772018 0.815233 0.257034
H40 H 0.722902 0.9146 0.309602
O11 O 0.5572(3) 0.5453(2) 0.73263(17)
O12 O 0.6741(2) 0.4632(2) 0.82854(17)
H22 H 0.1515 0.1520 0.9966
C27 C 0.4397(4) 0.7322(4) 0.9355(3)
C28 C 0.4861(4) 0.6708(3) 0.8677(3)
H28 H 0.4605 0.6768 0.8064
C29 C 0.5695(3) 0.6007(3) 0.8887(2)
C30 C 0.6120(3) 0.5933(3) 0.9799(2)
H29 H 0.6686 0.5478 0.9949
C31 C 0.6044(3) 0.5326(3) 0.8105(2)
C32 C 0.3442(6) 0.8065(6) 0.9086(3)
C33 C 0.2764(9) 0.8359(9) 0.9893(6)
H30 H 0.2180 0.8813 0.9703
C34 C 0.3945(13) 0.8868(11) 0.8475(10)
H33 H 0.3343 0.9318 0.8317
H34 H 0.4182 0.8529 0.7924
H35 H 0.4646 0.9290 0.8777
C35 C 0.2443(9) 0.7419(9) 0.8432(7)
H36 H 0.1838 0.7862 0.8260
H37 H 0.2066 0.6812 0.8742
H38 H 0.2805 0.7182 0.7889
Co11 Co 0.69285(4) 0.35724(4) 0.72905(3)
C15 C 0.3392(3) 0.9786(3) 0.2856(2)
H16 H 0.2297 0.9578 0.1706
C19 C 0.3792(3) 0.8699(3) 0.2844(2)
H19 H 0.0458 0.9858 0.1179
O7 O 0.6942(3) 0.2069(2) 0.75649(18)
O8 O 0.5208(3) 0.1394(2) 0.67592(19)
C15_2 C 0.6608(3) 0.0214(3) 0.7144(2)
H16_2 H 0.7703 0.0422 0.8294
C19_2 C 0.6208(3) 0.1301(3) 0.7156(2)
H19_2 H 0.9542 0.0142 0.8821
H22_2 H 0.8485 0.8480 0.0034
C27_2 C 0.5603(4) 0.2678(4) 0.0645(3)
C28_2 C 0.5139(4) 0.3292(3) 0.1323(3)
H28_2 H 0.5395 0.3232 0.1936
C29_2 C 0.4305(3) 0.3993(3) 0.1113(2)
C30_2 C 0.3880(3) 0.4067(3) 0.0201(2)
H29_2 H 0.3314 0.4522 0.0051
C31_2 C 0.3956(3) 0.4674(3) 0.1895(2)
C32_2 C 0.6558(6) 0.1935(6) 0.0914(3)
C33_2 C 0.7236(9) 0.1641(9) 0.0107(6)
H30_2 H 0.7820 0.1187 0.0297
C34_2 C 0.6055(13) 0.1132(11) 0.1525(10)
H33_2 H 0.6657 0.0682 0.1683
H34_2 H 0.5818 0.1471 0.2076
H35_2 H 0.5354 0.0710 0.1223
C35_2 C 0.7557(9) 0.2581(9) 0.1568(7)
H36_2 H 0.8162 0.2138 0.1740
H37_2 H 0.7934 0.3188 0.1258
H38_2 H 0.7195 0.2818 0.2111
O2_2 O 0.3059(2) 0.3895(2) 0.64631(17)
O5_2 O 0.5986(3) 0.6766(2) 0.5715(2)
O9_2 O 0.4455(3) 0.3039(2) 0.79230(17)
O10_2 O 0.3052(3) 0.4045(3) 0.83364(19)
H1_2 H 0.2943 0.4073 0.7776
O13_2 O 0.5766(2) 0.36021(19) 0.61967(15)
H2_2 H 0.6115 0.3265 0.5674
O14_2 O 0.2565(4) 0.1587(3) 0.6837(3)
C1_2 C 0.3107(3) 0.4730(3) 0.6007(2)
C2_2 C 0.2049(3) 0.5358(3) 0.6029(2)
C3_2 C 0.0909(3) 0.4883(3) 0.6264(2)
H3_2 H 0.0798 0.4185 0.6456
C5_2 C 0.0104(3) 0.6510(3) 0.5937(3)
C6_2 C 0.1259(3) 0.7038(3) 0.5724(3)
C7_2 C 0.2227(3) 0.6431(3) 0.5776(2)
H5_2 H 0.3003 0.6743 0.5640
C9_2 C 0.1414(4) 0.8203(3) 0.5438(3)
C10_2 C 0.0792(5) 0.8887(4) 0.6101(4)
H6_2 H 0.1160 0.8868 0.6711
H7_2 H 0.0885 0.9609 0.5906
C11_2 C 0.2764(5) 0.8680(4) 0.5426(5)
H9_2 H 0.3141 0.8673 0.6034
H10_2 H 0.3170 0.8265 0.5006
H11_2 H 0.2823 0.9401 0.5230
C12_2 C 0.0835(2) 0.82273(18) 0.44468(15)
H13_2 H 0.0906 0.8950 0.4256
H14_2 H 0.1250 0.7814 0.4032
C13_2 C 0.6563(2) 0.84819(18) 0.63993(15)
C14_2 C 0.6185(2) 0.95018(18) 0.64098(15)
H15_2 H 0.5668 0.9694 0.5940
C16_2 C 0.7400(3) 0.9925(3) 0.7826(2)
C17_2 C 0.7759(3) 0.8912(3) 0.7836(2)
C18_2 C 0.7315(3) 0.8197(3) 0.7110(2)
H17_2 H 0.7529 0.7512 0.7103
C20_2 C 0.8609(4) 0.8614(3) 0.8625(3)
C21_2 C 0.9767(4) 0.9446(4) 0.8711(4)
C22_2 C 0.7953(5) 0.8649(4) 0.9535(3)
H21_2 H 0.7227 0.8138 0.9492
H23_2 H 0.7740 0.9349 0.9644
C23_2 C 0.8979(5) 0.7514(4) 0.8475(3)
H24_2 H 0.8263 0.6992 0.8425
H25_2 H 0.9410 0.7493 0.7919
H26_2 H 0.9499 0.7363 0.8989
C24_2 C 0.3941(3) 0.3488(3) 0.8523(2)
C25_2 C 0.4322(3) 0.3444(3) 0.9517(2)
C26_2 C 0.5176(4) 0.2781(3) 0.9732(3)
H27_2 H 0.5475 0.2393 0.9261
H31_2 H 0.6673 0.1272 0.9643
H32_2 H 0.7652 0.2275 0.9859
C36_2 C 0.6187(3) 0.7718(3) 0.5582(2)
O16 O 0.7795(2) 0.5445(2) 0.6170(2)
O17 O 0.8562(2) 0.4091(2) 0.6842(2)
H39_2 H 0.227982 0.184767 0.742966
H40_2 H 0.277098 0.0853996 0.690398
C4_2 C 0.9928(3) 0.5471(3) 0.6207(3)
H4_2 H 0.9435 0.6879 0.5892
C8_2 C 0.8664(3) 0.4957(3) 0.6422(3)
H8_2 H 0.9940 0.8616 0.6103
H12_2 H 0.9989 0.7933 0.4439
H18 H 0.9811 0.0565 0.1851
H20 H 0.9709 0.0721 0.0785
H18_2 H 0.0189 0.9435 0.8149
H20_2 H 0.0291 0.9279 0.9215
loop_
_geom_bond_atom_site_label_1
_geom_bond_atom_site_label_2
_geom_bond_site_symmetry_1
_geom_bond_site_symmetry_2
O3 C8 1_555 1_555
O4 C8 1_555 1_555
C8 C4 1_555 1_555
Co4 O3 1_555 1_555
Co10 O4 1_555 1_555
Co4 O1 1_555 1_555
Co2 O2 1_555 1_555
Co10 O13 1_555 1_555
O1 C1 1_555 1_555
O2 C1 1_555 1_555
O5 Co4 1_555 1_555
O6 C36 1_555 1_555
O9 Co2 1_555 1_555
O10 H1 1_555 1_555
O13 Co4 1_555 1_555
H2 O13 1_555 1_555
O14 Co2 1_555 1_555
C1 C2 1_555 1_555
C2 C3 1_555 1_555
C3 H3 1_555 1_555
C6 C5 1_555 1_555
C7 C2 1_555 1_555
H5 C7 1_555 1_555
C9 C6 1_555 1_555
C10 C9 1_555 1_555
H6 C10 1_555 1_555
H7 C10 1_555 1_555
C11 C9 1_555 1_555
H9 C11 1_555 1_555
H10 C11 1_555 1_555
H11 C11 1_555 1_555
C12 C9 1_555 1_555
H13 C12 1_555 1_555
H14 C12 1_555 1_555
C13 C14 1_555 1_555
C14 H15 1_555 1_555
C17 C16 1_555 1_555
C18 C13 1_555 1_555
H17 C18 1_555 1_555
C20 C17 1_555 1_555
C21 C20 1_555 1_555
C22 C20 1_555 1_555
H21 C22 1_555 1_555
H23 C22 1_555 1_555
C23 C20 1_555 1_555
H24 C23 1_555 1_555
H25 C23 1_555 1_555
H26 C23 1_555 1_555
C24 O9 1_555 1_555
C25 C24 1_555 1_555
C26 C25 1_555 1_555
H27 C26 1_555 1_555
C36 O5 1_555 1_555
Co6 O1 1_555 1_555
Co8 O6 1_555 1_555
O15 Co4 1_555 1_555
O18 Co2 1_555 1_555
O19 Co10 1_555 1_555
O20 Co2 1_555 1_555
O21 Co4 1_555 1_555
O22 Co10 1_555 1_555
Co2 O13 1_555 1_555
O10 C24 1_555 1_555
C6 C7 1_555 1_555
C13 C36 1_555 1_555
C17 C18 1_555 1_555
Co6 O15 1_555 1_555
O14 H39 1_555 1_555
O14 H40 1_555 1_555
O11 C31 1_555 1_555
O12 C31 1_555 1_555
C28 C27 1_555 1_555
H28 C28 1_555 1_555
C29 C28 1_555 1_555
H29 C30 1_555 1_555
C31 C29 1_555 1_555
C32 C27 1_555 1_555
C33 C32 1_555 1_555
H30 C33 1_555 1_555
C34 C32 1_555 1_555
H33 C34 1_555 1_555
H34 C34 1_555 1_555
H35 C34 1_555 1_555
C35 C32 1_555 1_555
H36 C35 1_555 1_555
H37 C35 1_555 1_555
H38 C35 1_555 1_555
Co6 O11 1_555 1_555
Co11 O12 1_555 1_555
C29 C30 1_555 1_555
O19 C19 1_555 1_555
O20 C19 1_555 1_555
C19 C15 1_555 1_555
O7 C19_2 1_555 1_555
O8 C19_2 1_555 1_555
C19_2 C15_2 1_555 1_555
Co8 O8 1_555 1_555
Co11 O7 1_555 1_555
O21 C31_2 1_555 1_555
O22 C31_2 1_555 1_555
C28_2 C27_2 1_555 1_555
H28_2 C28_2 1_555 1_555
C29_2 C28_2 1_555 1_555
H29_2 C30_2 1_555 1_555
C31_2 C29_2 1_555 1_555
C32_2 C27_2 1_555 1_555
C33_2 C32_2 1_555 1_555
H30_2 C33_2 1_555 1_555
C34_2 C32_2 1_555 1_555
H33_2 C34_2 1_555 1_555
H34_2 C34_2 1_555 1_555
H35_2 C34_2 1_555 1_555
C35_2 C32_2 1_555 1_555
H36_2 C35_2 1_555 1_555
H37_2 C35_2 1_555 1_555
H38_2 C35_2 1_555 1_555
C29_2 C30_2 1_555 1_555
Co8 O2_2 1_555 1_555
Co11 O13_2 1_555 1_555
O15 C1_2 1_555 1_555
O2_2 C1_2 1_555 1_555
O5_2 Co6 1_555 1_555
O18 C36_2 1_555 1_555
O9_2 Co8 1_555 1_555
O10_2 H1_2 1_555 1_555
O13_2 Co6 1_555 1_555
H2_2 O13_2 1_555 1_555
O14_2 Co8 1_555 1_555
C1_2 C2_2 1_555 1_555
C2_2 C3_2 1_555 1_555
C3_2 H3_2 1_555 1_555
C6_2 C5_2 1_555 1_555
C7_2 C2_2 1_555 1_555
H5_2 C7_2 1_555 1_555
C9_2 C6_2 1_555 1_555
C10_2 C9_2 1_555 1_555
H6_2 C10_2 1_555 1_555
H7_2 C10_2 1_555 1_555
C11_2 C9_2 1_555 1_555
H9_2 C11_2 1_555 1_555
H10_2 C11_2 1_555 1_555
H11_2 C11_2 1_555 1_555
C12_2 C9_2 1_555 1_555
H13_2 C12_2 1_555 1_555
H14_2 C12_2 1_555 1_555
C13_2 C14_2 1_555 1_555
C14_2 H15_2 1_555 1_555
C17_2 C16_2 1_555 1_555
C18_2 C13_2 1_555 1_555
H17_2 C18_2 1_555 1_555
C20_2 C17_2 1_555 1_555
C21_2 C20_2 1_555 1_555
C22_2 C20_2 1_555 1_555
H21_2 C22_2 1_555 1_555
H23_2 C22_2 1_555 1_555
C23_2 C20_2 1_555 1_555
H24_2 C23_2 1_555 1_555
H25_2 C23_2 1_555 1_555
H26_2 C23_2 1_555 1_555
C24_2 O9_2 1_555 1_555
C25_2 C24_2 1_555 1_555
C26_2 C25_2 1_555 1_555
H27_2 C26_2 1_555 1_555
C36_2 O5_2 1_555 1_555
O16 Co6 1_555 1_555
O17 Co11 1_555 1_555
Co8 O13_2 1_555 1_555
O10_2 C24_2 1_555 1_555
C6_2 C7_2 1_555 1_555
C13_2 C36_2 1_555 1_555
C17_2 C18_2 1_555 1_555
O14_2 H39_2 1_555 1_555
O14_2 H40_2 1_555 1_555
O16 C8_2 1_555 1_555
O17 C8_2 1_555 1_555
C8_2 C4_2 1_555 1_555

#END
