
###############################################################################
#
# This file contains modified crystal structure data generated from the
# MOF subset of the Cambridge Structural Database (CSD) v543 
# hosted by the Cambridge Crystallographic Data Centre (CCDC).
#
# This work is licensed under the Creative Commons
# Attribution-NonCommercial-ShareAlike 4.0 International License.
# To view a copy of this license, visit
# http://creativecommons.org/licenses/by-nc-sa/4.0/
# or send a letter to
# Creative Commons, PO Box 1866, Mountain View, CA 94042, USA.
#
# CIF created using the CSD Python API on 29 September 2022
# The structure has been converted into the P1 space group
# The structure has a 3D framework
# The original CSD entry HIWKII is in the monoclinic crystal system
# The framework has been calculated to contain at least 10.0% void space
# The void calculation uses a probe of radius 1.32A, grid spacing 0.4
#
###############################################################################

data_HIWKII
_chemical_formula_moiety         '(C48 H48 Mn8 N40 Nb6 O24)n'
_symmetry_cell_setting           triclinic
_symmetry_space_group_name_H-M   'P 1'
_symmetry_Int_Tables_number      1
_space_group_name_Hall           'P 1'
loop_
_symmetry_equiv_pos_site_id
_symmetry_equiv_pos_as_xyz
1 x,y,z
_cell_length_a                   15.875(5)
_cell_length_b                   15.061(5)
_cell_length_c                   12.052(5)
_cell_angle_alpha                90
_cell_angle_beta                 108.215(5)
_cell_angle_gamma                90
_cell_volume                     2737.16
loop_
_atom_site_label
_atom_site_type_symbol
_atom_site_fract_x
_atom_site_fract_y
_atom_site_fract_z
Mn5 Mn 0.23066(2) 0.46216(2) 0.64239(3)
O6 O 0.16763(12) 0.38484(14) 0.74826(18)
N14 N 0.08533(13) 0.38974(14) 0.74827(18)
C11 C 0.06837(17) 0.39171(18) 0.8505(2)
H11 H 0.1149 0.3929 0.9203
C12 C 0.01708(17) 0.3920(2) 0.6482(2)
H12 H 0.0285 0.3937 0.5771
H2 H 0.7108 0.5315 0.0397
Mn6 Mn 0.73066(2) 0.03784(2) 0.14239(3)
N9 N 0.85446(14) 0.40194(15) 0.02104(18)
Nb1 Nb 0.5 0.205058(16) 0.75
Mn1 Mn 0.76934(2) 0.46216(2) 0.85761(3)
O1 O 0.71160(18) 0.54121(15) 0.9659(2)
H1 H 0.6971 0.5982 0.9488
O2 O 0.68676(14) 0.52028(14) 0.69150(18)
H3 H 0.6926 0.5796 0.6837
H4 H 0.6283 0.5109 0.6702
O3 O 0.83237(12) 0.38484(14) 0.75174(18)
N1 N 0.67053(14) 0.35335(15) 0.8239(2)
N2 N 0.4922(2) 0.3073(2) 0.9971(3)
N3 N 0.35446(14) 0.09806(15) 0.52104(18)
N4 N 0.36816(14) 0.06952(15) 0.85248(19)
N5 N 0.91467(13) 0.38974(14) 0.75173(18)
C1 C 0.61451(15) 0.30176(15) 0.7990(2)
C2 C 0.49437(16) 0.27238(18) 0.9143(2)
C3 C 0.40276(14) 0.13421(15) 0.59967(19)
C4 C 0.41261(15) 0.11551(15) 0.81899(19)
C5 C 0.93163(17) 0.39171(18) 0.6495(2)
H5 H 0.8851 0.3929 0.5797
C6 C 0.98292(17) 0.3920(2) 0.8518(2)
H6 H 0.9715 0.3937 0.9229
Mn3 Mn 0.26934(2) 0.03784(2) 0.35761(3)
O4 O 0.28840(18) 0.54121(15) 0.5341(2)
H7 H 0.3029 0.5982 0.5512
H8 H 0.2892 0.5315 0.4603
O5 O 0.31324(14) 0.52028(14) 0.80850(18)
H9 H 0.3074 0.5796 0.8163
H10 H 0.3717 0.5109 0.8298
N6 N 0.32947(14) 0.35335(15) 0.6761(2)
N7 N 0.5078(2) 0.3073(2) 0.5029(3)
N8 N 0.64554(14) 0.09806(15) 0.97896(18)
N10 N 0.14554(14) 0.40194(15) 0.47896(18)
N11 N 0.63184(14) 0.06952(15) 0.64752(19)
N12 N 0.86816(14) 0.56952(15) 0.85248(19)
N13 N 0.13184(14) 0.56952(15) 0.64752(19)
C7 C 0.38549(15) 0.30176(15) 0.7010(2)
C8 C 0.50563(16) 0.27238(18) 0.5857(2)
C9 C 0.59724(14) 0.13421(15) 0.90033(19)
C10 C 0.58739(15) 0.11551(15) 0.68101(19)
Mn4 Mn 0.26934(2) 0.96216(2) 0.85761(3)
Mn7 Mn 0.73066(2) 0.96216(2) 0.64239(3)
O1_2 O 0.21160(18) 0.04121(15) 0.9659(2)
H1_2 H 0.1971 0.0982 0.9488
O2_2 O 0.18676(14) 0.02028(14) 0.69150(18)
H3_2 H 0.1926 0.0796 0.6837
H4_2 H 0.1283 0.0109 0.6702
Mn6_2 Mn 0.23066(2) 0.53784(2) 0.14239(3)
N9_2 N 0.35446(14) 0.90194(15) 0.02104(18)
Nb1_2 Nb -0.0 0.705058(16) 0.75
O3_2 O 0.33237(12) 0.88484(14) 0.75174(18)
N1_2 N 0.17053(14) 0.85335(15) 0.8239(2)
N5_2 N 0.41467(13) 0.88974(14) 0.75173(18)
C1_2 C 0.11451(15) 0.80176(15) 0.7990(2)
C5_2 C 0.43163(17) 0.89171(18) 0.6495(2)
H5_2 H 0.3851 0.8929 0.5797
C6_2 C 0.48292(17) 0.8920(2) 0.8518(2)
H6_2 H 0.4715 0.8937 0.9229
O6_2 O 0.66763(12) 0.88484(14) 0.74826(18)
N7_2 N 0.0078(2) 0.8073(2) 0.5029(3)
N8_2 N 0.14554(14) 0.59806(15) 0.97896(18)
N14_2 N 0.58533(13) 0.88974(14) 0.74827(18)
C8_2 C 0.00563(16) 0.77238(18) 0.5857(2)
C9_2 C 0.09724(14) 0.63421(15) 0.90033(19)
C10_2 C 0.08739(15) 0.61551(15) 0.68101(19)
C11_2 C 0.56837(17) 0.89171(18) 0.8505(2)
H11_2 H 0.6149 0.8929 0.9203
C12_2 C 0.51708(17) 0.8920(2) 0.6482(2)
H12_2 H 0.5285 0.8937 0.5771
O4_2 O 0.78840(18) 0.04121(15) 0.5341(2)
H7_2 H 0.8029 0.0982 0.5512
H8_2 H 0.7892 0.0315 0.4603
O5_2 O 0.81324(14) 0.02028(14) 0.80850(18)
H9_2 H 0.8074 0.0796 0.8163
H10_2 H 0.8717 0.0109 0.8298
Nb1_3 Nb 1.0 0.705058(16) 0.75
N2_2 N 0.9922(2) 0.8073(2) 0.9971(3)
N3_2 N 0.85446(14) 0.59806(15) 0.52104(18)
C2_2 C 0.99437(16) 0.77238(18) 0.9143(2)
C3_2 C 0.90276(14) 0.63421(15) 0.59967(19)
C4_2 C 0.91261(15) 0.61551(15) 0.81899(19)
Mn3_2 Mn 0.76934(2) 0.53784(2) 0.35761(3)
N6_2 N 0.82947(14) 0.85335(15) 0.6761(2)
N10_2 N 0.64554(14) 0.90194(15) 0.47896(18)
C7_2 C 0.88549(15) 0.80176(15) 0.7010(2)
Nb1_4 Nb 0.5 0.794942(16) 0.25
O1_3 O 0.28840(18) 0.45879(15) 0.0341(2)
H1_3 H 0.3029 0.4018 0.0512
O2_3 O 0.31324(14) 0.47972(14) 0.30850(18)
H3_3 H 0.3074 0.4204 0.3163
H4_3 H 0.3717 0.4891 0.3298
O3_3 O 0.16763(12) 0.61516(14) 0.24826(18)
N1_3 N 0.32947(14) 0.64665(15) 0.1761(2)
N2_3 N 0.5078(2) 0.6927(2) 0.0029(3)
N4_2 N 0.63184(14) 0.93048(15) 0.14752(19)
N5_3 N 0.08533(13) 0.61026(14) 0.24827(18)
C1_3 C 0.38549(15) 0.69824(15) 0.2010(2)
C2_3 C 0.50563(16) 0.72762(18) 0.0857(2)
C3_3 C 0.59724(14) 0.86579(15) 0.40033(19)
C4_3 C 0.58739(15) 0.88449(15) 0.18101(19)
C5_3 C 0.06837(17) 0.60829(18) 0.3505(2)
H5_3 H 0.1149 0.6071 0.4203
C6_3 C 0.01708(17) 0.6080(2) 0.1482(2)
H6_3 H 0.0285 0.6063 0.0771
O4_3 O 0.71160(18) 0.45879(15) 0.4659(2)
H7_3 H 0.6971 0.4018 0.4488
H8_3 H 0.7108 0.4685 0.5397
O5_3 O 0.68676(14) 0.47972(14) 0.19150(18)
H9_3 H 0.6926 0.4204 0.1837
H10_3 H 0.6283 0.4891 0.1702
O7 O 0.83237(12) 0.61516(14) 0.25174(18)
N6_3 N 0.67053(14) 0.64665(15) 0.3239(2)
N7_3 N 0.4922(2) 0.6927(2) 0.4971(3)
N11_2 N 0.36816(14) 0.93048(15) 0.35248(19)
N12_2 N 0.13184(14) 0.43048(15) 0.14752(19)
N13_2 N 0.86816(14) 0.43048(15) 0.35248(19)
C7_3 C 0.61451(15) 0.69824(15) 0.2990(2)
C8_3 C 0.49437(16) 0.72762(18) 0.4143(2)
C9_3 C 0.40276(14) 0.86579(15) 0.09967(19)
C10_3 C 0.41261(15) 0.88449(15) 0.31899(19)
H2_2 H 0.2892 0.4685 0.9603
N14_3 N 0.91467(13) 0.61026(14) 0.25173(18)
C11_3 C 0.93163(17) 0.60829(18) 0.1495(2)
H11_3 H 0.8851 0.6071 0.0797
C12_3 C 0.98292(17) 0.6080(2) 0.3518(2)
H12_3 H 0.9715 0.6063 0.4229
Nb1_5 Nb 0.0 0.294942(16) 0.25
N2_4 N 0.0078(2) 0.1927(2) 0.0029(3)
C2_4 C 0.00563(16) 0.22762(18) 0.0857(2)
C3_4 C 0.09724(14) 0.36579(15) 0.40033(19)
C4_4 C 0.08739(15) 0.38449(15) 0.18101(19)
O7_2 O 0.33237(12) 0.11516(14) 0.25174(18)
N6_4 N 0.17053(14) 0.14665(15) 0.3239(2)
C7_4 C 0.11451(15) 0.19824(15) 0.2990(2)
O4_4 O 0.21160(18) 0.95879(15) 0.4659(2)
H7_4 H 0.1971 0.9018 0.4488
H8_4 H 0.2108 0.9685 0.5397
O5_4 O 0.18676(14) 0.97972(14) 0.19150(18)
H9_4 H 0.1926 0.9204 0.1837
H10_4 H 0.1283 0.9891 0.1702
Nb1_6 Nb 1.0 0.294942(16) 0.25
O3_4 O 0.66763(12) 0.11516(14) 0.24826(18)
N1_4 N 0.82947(14) 0.14665(15) 0.1761(2)
N5_4 N 0.58533(13) 0.11026(14) 0.24827(18)
C1_4 C 0.88549(15) 0.19824(15) 0.2010(2)
C5_4 C 0.56837(17) 0.10829(18) 0.3505(2)
H5_4 H 0.6149 0.1071 0.4203
C6_4 C 0.51708(17) 0.1080(2) 0.1482(2)
H6_4 H 0.5285 0.1063 0.0771
N7_4 N 0.9922(2) 0.1927(2) 0.4971(3)
N14_4 N 0.41467(13) 0.11026(14) 0.25173(18)
C8_4 C 0.99437(16) 0.22762(18) 0.4143(2)
C9_4 C 0.90276(14) 0.36579(15) 0.09967(19)
C10_4 C 0.91261(15) 0.38449(15) 0.31899(19)
C11_4 C 0.43163(17) 0.10829(18) 0.1495(2)
H11_4 H 0.3851 0.1071 0.0797
C12_4 C 0.48292(17) 0.1080(2) 0.3518(2)
H12_4 H 0.4715 0.1063 0.4229
O1_4 O 0.78840(18) 0.95879(15) 0.0341(2)
H1_4 H 0.8029 0.9018 0.0512
O2_4 O 0.81324(14) 0.97972(14) 0.30850(18)
H3_4 H 0.8074 0.9204 0.3163
H4_4 H 0.8717 0.9891 0.3298
H2_3 H 0.2108 0.0315 0.0397
H2_4 H 0.7892 0.9685 0.9603
loop_
_geom_bond_atom_site_label_1
_geom_bond_atom_site_label_2
_geom_bond_site_symmetry_1
_geom_bond_site_symmetry_2
Mn5 O6 1_555 1_555
O6 N14 1_555 1_555
N14 C11 1_555 1_555
H11 C11 1_555 1_555
H12 C12 1_555 1_555
N14 C12 1_555 1_555
Nb1 C1 1_555 1_555
Mn1 O1 1_555 1_555
O1 H1 1_555 1_555
O2 Mn1 1_555 1_555
H3 O2 1_555 1_555
H4 O2 1_555 1_555
O3 Mn1 1_555 1_555
N1 Mn1 1_555 1_555
N2 C2 1_555 1_555
N3 C3 1_555 1_555
N4 C4 1_555 1_555
N5 O3 1_555 1_555
C1 N1 1_555 1_555
C2 Nb1 1_555 1_555
C3 Nb1 1_555 1_555
C4 Nb1 1_555 1_555
C5 N5 1_555 1_555
H5 C5 1_555 1_555
C6 N5 1_555 1_555
H6 C6 1_555 1_555
Mn5 O4 1_555 1_555
Mn3 N3 1_555 1_555
O4 H7 1_555 1_555
H8 O4 1_555 1_555
O5 Mn5 1_555 1_555
H9 O5 1_555 1_555
H10 O5 1_555 1_555
N6 Mn5 1_555 1_555
N7 C8 1_555 1_555
N8 C9 1_555 1_555
N10 Mn5 1_555 1_555
N11 C10 1_555 1_555
N12 Mn1 1_555 1_555
N13 Mn5 1_555 1_555
C7 Nb1 1_555 1_555
C8 Nb1 1_555 1_555
C9 Nb1 1_555 1_555
C10 Nb1 1_555 1_555
N6 C7 1_555 1_555
O1_2 H1_2 1_555 1_555
H3_2 O2_2 1_555 1_555
H4_2 O2_2 1_555 1_555
Nb1_2 C1_2 1_555 1_555
O3_2 Mn4 1_555 1_555
N1_2 Mn4 1_555 1_555
N5_2 O3_2 1_555 1_555
C1_2 N1_2 1_555 1_555
C5_2 N5_2 1_555 1_555
H5_2 C5_2 1_555 1_555
C6_2 N5_2 1_555 1_555
H6_2 C6_2 1_555 1_555
Mn7 O6_2 1_555 1_555
O6_2 N14_2 1_555 1_555
N7_2 C8_2 1_555 1_555
N8_2 C9_2 1_555 1_555
N13 C10_2 1_555 1_555
N14_2 C11_2 1_555 1_555
C8_2 Nb1_2 1_555 1_555
C9_2 Nb1_2 1_555 1_555
C10_2 Nb1_2 1_555 1_555
C11_2 C6_2 1_555 1_555
H11_2 C11_2 1_555 1_555
C12_2 C5_2 1_555 1_555
H12_2 C12_2 1_555 1_555
N14_2 C12_2 1_555 1_555
O4_2 H7_2 1_555 1_555
H8_2 O4_2 1_555 1_555
H9_2 O5_2 1_555 1_555
H10_2 O5_2 1_555 1_555
N2_2 C2_2 1_555 1_555
N3_2 C3_2 1_555 1_555
N12 C4_2 1_555 1_555
C2_2 Nb1_3 1_555 1_555
C3_2 Nb1_3 1_555 1_555
C4_2 Nb1_3 1_555 1_555
Mn3_2 N3_2 1_555 1_555
N6_2 Mn7 1_555 1_555
N10_2 Mn7 1_555 1_555
C7_2 Nb1_3 1_555 1_555
N6_2 C7_2 1_555 1_555
Nb1_4 C1_3 1_555 1_555
Mn6_2 O1_3 1_555 1_555
O1_3 H1_3 1_555 1_555
O2_3 Mn6_2 1_555 1_555
H3_3 O2_3 1_555 1_555
H4_3 O2_3 1_555 1_555
O3_3 Mn6_2 1_555 1_555
N1_3 Mn6_2 1_555 1_555
N2_3 C2_3 1_555 1_555
N10_2 C3_3 1_555 1_555
N4_2 C4_3 1_555 1_555
N5_3 O3_3 1_555 1_555
C1_3 N1_3 1_555 1_555
C2_3 Nb1_4 1_555 1_555
C3_3 Nb1_4 1_555 1_555
C4_3 Nb1_4 1_555 1_555
C5_3 N5_3 1_555 1_555
H5_3 C5_3 1_555 1_555
C6_3 N5_3 1_555 1_555
H6_3 C6_3 1_555 1_555
Mn3_2 O4_3 1_555 1_555
O4_3 H7_3 1_555 1_555
H8_3 O4_3 1_555 1_555
O5_3 Mn3_2 1_555 1_555
H9_3 O5_3 1_555 1_555
H10_3 O5_3 1_555 1_555
O7 Mn3_2 1_555 1_555
N6_3 Mn3_2 1_555 1_555
N7_3 C8_3 1_555 1_555
N9_2 C9_3 1_555 1_555
N11_2 C10_3 1_555 1_555
N12_2 Mn6_2 1_555 1_555
N13_2 Mn3_2 1_555 1_555
C7_3 Nb1_4 1_555 1_555
C8_3 Nb1_4 1_555 1_555
C9_3 Nb1_4 1_555 1_555
C10_3 Nb1_4 1_555 1_555
N6_3 C7_3 1_555 1_555
O7 N14_3 1_555 1_555
N14_3 C11_3 1_555 1_555
H11_3 C11_3 1_555 1_555
H12_3 C12_3 1_555 1_555
N14_3 C12_3 1_555 1_555
N2_4 C2_4 1_555 1_555
N10 C3_4 1_555 1_555
N12_2 C4_4 1_555 1_555
C2_4 Nb1_5 1_555 1_555
C3_4 Nb1_5 1_555 1_555
C4_4 Nb1_5 1_555 1_555
O7_2 Mn3 1_555 1_555
N6_4 Mn3 1_555 1_555
C7_4 Nb1_5 1_555 1_555
N6_4 C7_4 1_555 1_555
O4_4 H7_4 1_555 1_555
H8_4 O4_4 1_555 1_555
H9_4 O5_4 1_555 1_555
H10_4 O5_4 1_555 1_555
Nb1_6 C1_4 1_555 1_555
O3_4 Mn6 1_555 1_555
N1_4 Mn6 1_555 1_555
N5_4 O3_4 1_555 1_555
C1_4 N1_4 1_555 1_555
C5_4 N5_4 1_555 1_555
H5_4 C5_4 1_555 1_555
C6_4 N5_4 1_555 1_555
H6_4 C6_4 1_555 1_555
O7_2 N14_4 1_555 1_555
N7_4 C8_4 1_555 1_555
N9 C9_4 1_555 1_555
N13_2 C10_4 1_555 1_555
N14_4 C11_4 1_555 1_555
C8_4 Nb1_6 1_555 1_555
C9_4 Nb1_6 1_555 1_555
C10_4 Nb1_6 1_555 1_555
C11_4 C6_4 1_555 1_555
H11_4 C11_4 1_555 1_555
C12_4 C5_4 1_555 1_555
H12_4 C12_4 1_555 1_555
N14_4 C12_4 1_555 1_555
O1_4 H1_4 1_555 1_555
H3_4 O2_4 1_555 1_555
H4_4 O2_4 1_555 1_555

#END
