
###############################################################################
#
# This file contains modified crystal structure data generated from the
# MOF subset of the Cambridge Structural Database (CSD) v543 
# hosted by the Cambridge Crystallographic Data Centre (CCDC).
#
# This work is licensed under the Creative Commons
# Attribution-NonCommercial-ShareAlike 4.0 International License.
# To view a copy of this license, visit
# http://creativecommons.org/licenses/by-nc-sa/4.0/
# or send a letter to
# Creative Commons, PO Box 1866, Mountain View, CA 94042, USA.
#
# CIF created using the CSD Python API on 29 September 2022
# The structure has been converted into the P1 space group
# The structure has a 3D framework
# The original CSD entry HIXDOH01 is in the tetragonal crystal system
# The framework has been calculated to contain at least 10.0% void space
# The void calculation uses a probe of radius 1.32A, grid spacing 0.4
# H atom positions have been added when not included in the experimental data
#
###############################################################################

data_HIXDOH01
_chemical_formula_moiety         '(C32 H32 Cu5 F24 N16 O20 W15)n'
_symmetry_cell_setting           triclinic
_symmetry_space_group_name_H-M   'P 1'
_symmetry_Int_Tables_number      1
_space_group_name_Hall           'P 1'
loop_
_symmetry_equiv_pos_site_id
_symmetry_equiv_pos_as_xyz
1 x,y,z
_cell_length_a                   9.745(1)
_cell_length_b                   9.745(1)
_cell_length_c                   16.565(3)
_cell_angle_alpha                90
_cell_angle_beta                 90
_cell_angle_gamma                90
_cell_volume                     1573.1
loop_
_atom_site_label
_atom_site_type_symbol
_atom_site_fract_x
_atom_site_fract_y
_atom_site_fract_z
Cu4 Cu -0.0000 0.0000 0.2500
Cu4_2 Cu 0.0000 1.0000 0.2500
W1 W 0.5000 0.5000 0.5000
Cu1 Cu 0.5000 0.5000 0.2500
O1 O 0.5000 0.5000 0.3857(2)
F1 F 0.6687(4) 0.4117(4) 0.5000
N1 N 0.3504(3) 0.3504 0.2500
C1 C 0.2707(4) 0.3311(4) 0.1860(2)
C2 C 0.1689(4) 0.2293(4) 0.1860(2)
N2 N 0.1496 0.1496(3) 0.2500
C3 C 0.2293(4) 0.1689(4) 0.3140(2)
C4 C 0.3311(4) 0.2707(4) 0.3140(2)
O2 O 0.5000 0.5000 0.6143(2)
F2 F 0.5883(4) 0.6687(4) 0.5000
F3 F 0.3313(4) 0.5883(4) 0.5000
F4 F 0.4117(4) 0.3313(4) 0.5000
Cu2 Cu 0.5000 0.5000 0.7500
O3 O 0.5000 0.5000 0.1143(2)
N3 N 0.6496 0.3504(3) 0.2500
C5 C 0.6689(4) 0.2707(4) 0.1860(2)
C6 C 0.7707(4) 0.1689(4) 0.1860(2)
N4 N 0.8504(3) 0.1496 0.2500
C7 C 0.8311(4) 0.2293(4) 0.3140(2)
C8 C 0.7293(4) 0.3311(4) 0.3140(2)
N5 N 0.3504(3) 0.6496 0.2500
N6 N 0.6496(3) 0.6496 0.2500
Cu4_3 Cu 1.0000 0.0000 0.2500
H1 H 0.604819 0.284536 0.13276
H2 H 0.715464 0.395181 0.36724
H3 H 0.895181 0.215464 0.36724
H4 H 0.784536 0.104819 0.13276
H5 H 0.395181 0.284536 0.36724
H6 H 0.284536 0.395181 0.13276
H7 H 0.215464 0.104819 0.36724
H8 H 0.104819 0.215464 0.13276
Cu4_4 Cu 1.0000 1.0000 0.2500
C5_2 C 0.7293(4) 0.6689(4) 0.1860(2)
C6_2 C 0.8311(4) 0.7707(4) 0.1860(2)
N4_2 N 0.8504 0.8504(3) 0.2500
C7_2 C 0.7707(4) 0.8311(4) 0.3140(2)
C8_2 C 0.6689(4) 0.7293(4) 0.3140(2)
H1_2 H 0.715464 0.604819 0.13276
H2_2 H 0.604819 0.715464 0.36724
H3_2 H 0.784536 0.895181 0.36724
H4_2 H 0.895181 0.784536 0.13276
W1_2 W 0.5000 0.5000 -0.0000
F1_2 F 0.6687(4) 0.5883(4) -0.0000
C1_2 C 0.2707(4) 0.6689(4) 0.3140(2)
C2_2 C 0.1689(4) 0.7707(4) 0.3140(2)
N2_2 N 0.1496 0.8504(3) 0.2500
C3_2 C 0.2293(4) 0.8311(4) 0.1860(2)
C4_2 C 0.3311(4) 0.7293(4) 0.1860(2)
F2_2 F 0.5883(4) 0.3313(4) -0.0000
F3_2 F 0.3313(4) 0.4117(4) -0.0000
F4_2 F 0.4117(4) 0.6687(4) -0.0000
H5_2 H 0.395181 0.715464 0.13276
H6_2 H 0.284536 0.604819 0.36724
H7_2 H 0.215464 0.895181 0.13276
H8_2 H 0.104819 0.784536 0.36724
W1_3 W 0.5000 0.5000 1.0000
F1_3 F 0.6687(4) 0.5883(4) 1.0000
O2_2 O 0.5000 0.5000 0.8857(2)
F2_3 F 0.5883(4) 0.3313(4) 1.0000
F3_3 F 0.3313(4) 0.4117(4) 1.0000
F4_3 F 0.4117(4) 0.6687(4) 1.0000
W1_4 W 0.0000 0.0000 0.0000
O2_3 O -0.0000 -0.0000 0.1143(2)
F2_4 F 0.0883(4) 0.1687(4) 0.0000
W1_5 W 0.0000 0.0000 1.0000
Cu1_2 Cu -0.0000 -0.0000 0.7500
O1_2 O -0.0000 -0.0000 0.8857(2)
F2_5 F 0.0883(4) 0.1687(4) 1.0000
O3_2 O -0.0000 0.0000 0.6143(2)
N6_2 N 0.1496(3) 0.1496 0.7500
W1_6 W 0.0000 1.0000 0.0000
F1_4 F 0.1687(4) 0.9117(4) 0.0000
O2_4 O 0.0000 1.0000 0.1143(2)
W1_7 W 0.0000 1.0000 1.0000
Cu1_3 Cu -0.0000 1.0000 0.7500
O1_3 O -0.0000 1.0000 0.8857(2)
F1_5 F 0.1687(4) 0.9117(4) 1.0000
O3_3 O -0.0000 1.0000 0.6143(2)
N3_2 N 0.1496 0.8504(3) 0.7500
C5_3 C 0.1689(4) 0.7707(4) 0.6860(2)
C6_3 C 0.2707(4) 0.6689(4) 0.6860(2)
N4_3 N 0.3504(3) 0.6496 0.7500
C7_3 C 0.3311(4) 0.7293(4) 0.8140(2)
C8_3 C 0.2293(4) 0.8311(4) 0.8140(2)
H1_3 H 0.104819 0.784536 0.63276
H2_3 H 0.215464 0.895181 0.86724
H3_3 H 0.395181 0.715464 0.86724
H4_3 H 0.284536 0.604819 0.63276
W1_8 W 1.0000 0.0000 0.0000
O2_5 O 1.0000 -0.0000 0.1143(2)
F3_4 F 0.8313(4) 0.0883(4) 0.0000
W1_9 W 1.0000 0.0000 1.0000
Cu1_4 Cu 1.0000 -0.0000 0.7500
O1_4 O 1.0000 -0.0000 0.8857(2)
F3_5 F 0.8313(4) 0.0883(4) 1.0000
O3_4 O 1.0000 0.0000 0.6143(2)
N5_2 N 0.8504(3) 0.1496 0.7500
W1_10 W 1.0000 1.0000 0.0000
O2_6 O 1.0000 1.0000 0.1143(2)
F4_4 F 0.9117(4) 0.8313(4) 0.0000
W1_11 W 1.0000 1.0000 1.0000
Cu1_5 Cu 1.0000 1.0000 0.7500
O1_5 O 1.0000 1.0000 0.8857(2)
N1_2 N 0.8504(3) 0.8504 0.7500
C1_3 C 0.7707(4) 0.8311(4) 0.6860(2)
C2_3 C 0.6689(4) 0.7293(4) 0.6860(2)
N2_3 N 0.6496 0.6496(3) 0.7500
C3_3 C 0.7293(4) 0.6689(4) 0.8140(2)
C4_3 C 0.8311(4) 0.7707(4) 0.8140(2)
F4_5 F 0.9117(4) 0.8313(4) 1.0000
O3_5 O 1.0000 1.0000 0.6143(2)
H5_3 H 0.895181 0.784536 0.86724
H6_3 H 0.784536 0.895181 0.63276
H7_3 H 0.715464 0.604819 0.86724
H8_3 H 0.604819 0.715464 0.63276
C5_4 C 0.2293(4) 0.1689(4) 0.6860(2)
C6_4 C 0.3311(4) 0.2707(4) 0.6860(2)
N4_4 N 0.3504 0.3504(3) 0.7500
C7_4 C 0.2707(4) 0.3311(4) 0.8140(2)
C8_4 C 0.1689(4) 0.2293(4) 0.8140(2)
H1_4 H 0.215464 0.104819 0.63276
H2_4 H 0.104819 0.215464 0.86724
H3_4 H 0.284536 0.395181 0.86724
H4_4 H 0.395181 0.284536 0.63276
W1_12 W 0.0000 -0.0000 0.5000
F1_6 F 0.1687(4) 0.0883(4) 0.5000
O2_7 O -0.0000 -0.0000 0.3857(2)
W1_13 W 0.0000 1.0000 0.5000
O2_8 O -0.0000 1.0000 0.3857(2)
F2_6 F 0.0883(4) 0.8313(4) 0.5000
W1_14 W 1.0000 -0.0000 0.5000
C1_4 C 0.7707(4) 0.1689(4) 0.8140(2)
C2_4 C 0.6689(4) 0.2707(4) 0.8140(2)
N2_4 N 0.6496 0.3504(3) 0.7500
C3_4 C 0.7293(4) 0.3311(4) 0.6860(2)
C4_4 C 0.8311(4) 0.2293(4) 0.6860(2)
O2_9 O 1.0000 -0.0000 0.3857(2)
F4_6 F 0.9117(4) 0.1687(4) 0.5000
H5_4 H 0.895181 0.215464 0.63276
H6_4 H 0.784536 0.104819 0.86724
H7_4 H 0.715464 0.395181 0.63276
H8_4 H 0.604819 0.284536 0.86724
W1_15 W 1.0000 1.0000 0.5000
O2_10 O 1.0000 1.0000 0.3857(2)
F3_6 F 0.8313(4) 0.9117(4) 0.5000
loop_
_geom_bond_atom_site_label_1
_geom_bond_atom_site_label_2
_geom_bond_site_symmetry_1
_geom_bond_site_symmetry_2
W1 O1 1_555 1_555
Cu1 O1 1_555 1_555
F1 W1 1_555 1_555
N1 Cu1 1_555 1_555
C1 N1 1_555 1_555
C2 C1 1_555 1_555
N2 C2 1_555 1_555
C3 N2 1_555 1_555
C4 N1 1_555 1_555
O2 W1 1_555 1_555
F2 W1 1_555 1_555
F3 W1 1_555 1_555
F4 W1 1_555 1_555
Cu2 O2 1_555 1_555
O3 Cu1 1_555 1_555
N3 Cu1 1_555 1_555
C5 N3 1_555 1_555
C6 C5 1_555 1_555
N4 C6 1_555 1_555
C7 N4 1_555 1_555
C8 N3 1_555 1_555
N5 Cu1 1_555 1_555
N6 Cu1 1_555 1_555
Cu4 N2 1_555 1_555
Cu4_3 N4 1_555 1_555
C3 C4 1_555 1_555
C7 C8 1_555 1_555
C5 H1 1_555 1_555
C8 H2 1_555 1_555
C7 H3 1_555 1_555
C6 H4 1_555 1_555
C4 H5 1_555 1_555
C1 H6 1_555 1_555
C3 H7 1_555 1_555
C2 H8 1_555 1_555
C5_2 N6 1_555 1_555
C6_2 C5_2 1_555 1_555
N4_2 C6_2 1_555 1_555
C7_2 N4_2 1_555 1_555
C8_2 N6 1_555 1_555
Cu4_4 N4_2 1_555 1_555
C7_2 C8_2 1_555 1_555
C5_2 H1_2 1_555 1_555
C8_2 H2_2 1_555 1_555
C7_2 H3_2 1_555 1_555
C6_2 H4_2 1_555 1_555
W1_2 O3 1_555 1_555
F1_2 W1_2 1_555 1_555
C1_2 N5 1_555 1_555
C2_2 C1_2 1_555 1_555
N2_2 C2_2 1_555 1_555
C3_2 N2_2 1_555 1_555
C4_2 N5 1_555 1_555
F2_2 W1_2 1_555 1_555
F3_2 W1_2 1_555 1_555
F4_2 W1_2 1_555 1_555
Cu4_2 N2_2 1_555 1_555
C3_2 C4_2 1_555 1_555
C4_2 H5_2 1_555 1_555
C1_2 H6_2 1_555 1_555
C3_2 H7_2 1_555 1_555
C2_2 H8_2 1_555 1_555
F1_3 W1_3 1_555 1_555
O2_2 W1_3 1_555 1_555
F2_3 W1_3 1_555 1_555
F3_3 W1_3 1_555 1_555
F4_3 W1_3 1_555 1_555
Cu2 O2_2 1_555 1_555
O2_3 W1_4 1_555 1_555
F2_4 W1_4 1_555 1_555
Cu4 O2_3 1_555 1_555
W1_5 O1_2 1_555 1_555
Cu1_2 O1_2 1_555 1_555
F2_5 W1_5 1_555 1_555
O3_2 Cu1_2 1_555 1_555
N6_2 Cu1_2 1_555 1_555
F1_4 W1_6 1_555 1_555
O2_4 W1_6 1_555 1_555
Cu4_2 O2_4 1_555 1_555
W1_7 O1_3 1_555 1_555
Cu1_3 O1_3 1_555 1_555
F1_5 W1_7 1_555 1_555
O3_3 Cu1_3 1_555 1_555
N3_2 Cu1_3 1_555 1_555
C5_3 N3_2 1_555 1_555
C6_3 C5_3 1_555 1_555
N4_3 C6_3 1_555 1_555
C7_3 N4_3 1_555 1_555
C8_3 N3_2 1_555 1_555
Cu2 N4_3 1_555 1_555
C7_3 C8_3 1_555 1_555
C5_3 H1_3 1_555 1_555
C8_3 H2_3 1_555 1_555
C7_3 H3_3 1_555 1_555
C6_3 H4_3 1_555 1_555
O2_5 W1_8 1_555 1_555
F3_4 W1_8 1_555 1_555
Cu4_3 O2_5 1_555 1_555
W1_9 O1_4 1_555 1_555
Cu1_4 O1_4 1_555 1_555
F3_5 W1_9 1_555 1_555
O3_4 Cu1_4 1_555 1_555
N5_2 Cu1_4 1_555 1_555
O2_6 W1_10 1_555 1_555
F4_4 W1_10 1_555 1_555
Cu4_4 O2_6 1_555 1_555
W1_11 O1_5 1_555 1_555
Cu1_5 O1_5 1_555 1_555
N1_2 Cu1_5 1_555 1_555
C1_3 N1_2 1_555 1_555
C2_3 C1_3 1_555 1_555
N2_3 C2_3 1_555 1_555
C3_3 N2_3 1_555 1_555
C4_3 N1_2 1_555 1_555
F4_5 W1_11 1_555 1_555
O3_5 Cu1_5 1_555 1_555
Cu2 N2_3 1_555 1_555
C3_3 C4_3 1_555 1_555
C4_3 H5_3 1_555 1_555
C1_3 H6_3 1_555 1_555
C3_3 H7_3 1_555 1_555
C2_3 H8_3 1_555 1_555
C5_4 N6_2 1_555 1_555
C6_4 C5_4 1_555 1_555
N4_4 C6_4 1_555 1_555
C7_4 N4_4 1_555 1_555
C8_4 N6_2 1_555 1_555
Cu2 N4_4 1_555 1_555
C7_4 C8_4 1_555 1_555
C5_4 H1_4 1_555 1_555
C8_4 H2_4 1_555 1_555
C7_4 H3_4 1_555 1_555
C6_4 H4_4 1_555 1_555
W1_12 O3_2 1_555 1_555
F1_6 W1_12 1_555 1_555
O2_7 W1_12 1_555 1_555
Cu4 O2_7 1_555 1_555
W1_13 O3_3 1_555 1_555
O2_8 W1_13 1_555 1_555
F2_6 W1_13 1_555 1_555
Cu4_2 O2_8 1_555 1_555
W1_14 O3_4 1_555 1_555
C1_4 N5_2 1_555 1_555
C2_4 C1_4 1_555 1_555
N2_4 C2_4 1_555 1_555
C3_4 N2_4 1_555 1_555
C4_4 N5_2 1_555 1_555
O2_9 W1_14 1_555 1_555
F4_6 W1_14 1_555 1_555
Cu4_3 O2_9 1_555 1_555
Cu2 N2_4 1_555 1_555
C3_4 C4_4 1_555 1_555
C4_4 H5_4 1_555 1_555
C1_4 H6_4 1_555 1_555
C3_4 H7_4 1_555 1_555
C2_4 H8_4 1_555 1_555
W1_15 O3_5 1_555 1_555
O2_10 W1_15 1_555 1_555
F3_6 W1_15 1_555 1_555
Cu4_4 O2_10 1_555 1_555

#END
