
###############################################################################
#
# This file contains modified crystal structure data generated from the
# MOF subset of the Cambridge Structural Database (CSD) v543 
# hosted by the Cambridge Crystallographic Data Centre (CCDC).
#
# This work is licensed under the Creative Commons
# Attribution-NonCommercial-ShareAlike 4.0 International License.
# To view a copy of this license, visit
# http://creativecommons.org/licenses/by-nc-sa/4.0/
# or send a letter to
# Creative Commons, PO Box 1866, Mountain View, CA 94042, USA.
#
# CIF created using the CSD Python API on 29 September 2022
# The structure has been converted into the P1 space group
# The structure has a 3D framework
# The original CSD entry HIXWIU01 is in the orthorhombic crystal system
# The original CSD entry HIXWIU01 is in a Sohncke space group
# The framework has been calculated to contain at least 10.0% void space
# The void calculation uses a probe of radius 1.32A, grid spacing 0.4
#
###############################################################################

data_HIXWIU01
_chemical_formula_moiety         '(C32 H40 Cd8 O48)n'
_symmetry_cell_setting           triclinic
_symmetry_space_group_name_H-M   'P 1'
_symmetry_Int_Tables_number      1
_space_group_name_Hall           'P 1'
loop_
_symmetry_equiv_pos_site_id
_symmetry_equiv_pos_as_xyz
1 x,y,z
_cell_length_a                   7.6932(3)
_cell_length_b                   11.5268(3)
_cell_length_c                   17.6619(7)
_cell_angle_alpha                90
_cell_angle_beta                 90
_cell_angle_gamma                90
_cell_volume                     1566.22
loop_
_atom_site_label
_atom_site_type_symbol
_atom_site_fract_x
_atom_site_fract_y
_atom_site_fract_z
Cd3 Cd 0.09075(3) 0.25591(3) 0.603556(16)
Cd1 Cd 0.59075(3) 0.24409(3) 0.396444(16)
Cd2 Cd 0.71867(4) 0.73940(3) 0.380680(16)
O1 O 0.7813(4) 0.2711(2) 0.48898(16)
O2 O 0.8928(4) 0.3866(3) 0.57658(19)
O3 O 0.5355(4) 0.4310(3) 0.45238(17)
H1 H 0.4292 0.4443 0.4592
O4 O 0.8148(4) 0.5969(3) 0.47195(19)
H2 H 0.8897 0.6430 0.4891
O5 O 0.5392(4) 0.7400(3) 0.48235(16)
O6 O 0.4261(4) 0.6406(3) 0.57905(19)
O7 O 0.9079(4) 0.6696(3) 0.29804(18)
O8 O 0.9656(5) 0.5476(3) 0.2038(2)
O9 O 0.5886(4) 0.5727(2) 0.32102(18)
H3 H 0.6038 0.5250 0.3563
O10 O 0.7614(4) 0.3616(3) 0.32249(18)
H4 H 0.8700 0.3694 0.3234
O11 O 0.4411(4) 0.2954(2) 0.28857(18)
O12 O 0.4543(4) 0.3720(2) 0.17282(19)
O13 O 0.7159(5) 0.0900(3) 0.3397(3)
H5 H 0.671(4) 0.029(2) 0.353(3)
H6 H 0.817(2) 0.076(3) 0.329(4)
C1 C 0.7784(6) 0.3619(4) 0.5284(3)
C2 C 0.6279(6) 0.4472(4) 0.5225(3)
H7 H 0.5465 0.4340 0.5628
C3 C 0.6906(6) 0.5714(4) 0.5295(3)
H8 H 0.7498 0.5811 0.5770
C4 C 0.5398(6) 0.6581(4) 0.5297(3)
C5 C 0.8677(6) 0.5879(4) 0.2528(3)
C6 C 0.6851(6) 0.5365(4) 0.2558(2)
H9 H 0.6205 0.5618 0.2124
C7 C 0.6962(6) 0.4039(4) 0.2532(2)
H10 H 0.7731 0.3808 0.2131
C8 C 0.5164(6) 0.3521(4) 0.2375(3)
Cd4 Cd 0.21867(4) 0.76060(3) 0.619320(16)
Cd5 Cd 0.28133(4) 0.23940(3) 0.119320(16)
O14 O 0.3928(4) 0.1134(3) 0.42342(19)
O15 O 0.9261(4) 0.8594(3) 0.42095(19)
O16 O 0.5457(4) 0.8720(2) 0.32718(19)
O6_2 O 0.0739(4) 0.3594(3) 0.07905(19)
H1_2 H 0.0708 0.5557 0.9592
O11_2 O 0.0589(4) 0.7046(2) 0.78857(18)
O12_2 O 0.0457(4) 0.6280(2) 0.67282(19)
O14_2 O 0.1072(4) 0.8866(3) 0.92342(19)
O2_2 O 0.6072(4) 0.6134(3) 0.07658(19)
C1_2 C 0.7216(6) 0.6381(4) 0.0284(3)
C2_2 C 0.8721(6) 0.5528(4) 0.0225(3)
H7_2 H 0.9535 0.5660 0.0628
C3_2 C 0.8094(6) 0.4286(4) 0.0295(3)
H8_2 H 0.7502 0.4189 0.0770
C4_2 C 0.9602(6) 0.3419(4) 0.0297(3)
Cd3_2 Cd 0.40925(3) 0.74409(3) 0.103556(16)
Cd1_2 Cd 0.90925(3) 0.75591(3) 0.896444(16)
Cd2_2 Cd 0.78133(4) 0.26060(3) 0.880680(16)
O1_2 O 0.7187(4) 0.7289(2) 0.98898(16)
O3_2 O 0.9645(4) 0.5690(3) 0.95238(17)
O4_2 O 0.6852(4) 0.4031(3) 0.97195(19)
H2_2 H 0.6103 0.3570 0.9891
O5_2 O 0.9608(4) 0.2600(3) 0.98235(16)
O7_2 O 0.5921(4) 0.3304(3) 0.79804(18)
O8_2 O 0.5344(5) 0.4524(3) 0.7038(2)
O9_2 O 0.9114(4) 0.4273(2) 0.82102(18)
H3_2 H 0.8962 0.4750 0.8563
O10_2 O 0.7386(4) 0.6384(3) 0.82249(18)
H4_2 H 0.6300 0.6306 0.8234
O13_2 O 0.7841(5) 0.9100(3) 0.8397(3)
H5_2 H 0.829(4) 0.971(2) 0.853(3)
H6_2 H 0.683(2) 0.924(3) 0.829(4)
C5_2 C 0.6323(6) 0.4121(4) 0.7528(3)
C6_2 C 0.8149(6) 0.4635(4) 0.7558(2)
H9_2 H 0.8795 0.4382 0.7124
C7_2 C 0.8038(6) 0.5961(4) 0.7532(2)
H10_2 H 0.7269 0.6192 0.7131
C8_2 C 0.9836(6) 0.6479(4) 0.7375(3)
O15_2 O 0.5739(4) 0.1406(3) 0.92095(19)
O16_2 O 0.9543(4) 0.1280(2) 0.82718(19)
O1_3 O 0.2813(4) 0.2289(2) 0.51102(16)
O3_3 O 0.0355(4) 0.0690(3) 0.54762(17)
O10_3 O 0.2614(4) 0.1384(3) 0.67751(18)
H4_3 H 0.3700 0.1306 0.6766
O13_3 O 0.2159(5) 0.4100(3) 0.6603(3)
H5_3 H 0.171(4) 0.471(2) 0.647(3)
H6_3 H 0.317(2) 0.424(3) 0.671(4)
C1_3 C 0.2784(6) 0.1381(4) 0.4716(3)
C2_3 C 0.1279(6) 0.0528(4) 0.4775(3)
H7_3 H 0.0465 0.0660 0.4372
C7_3 C 0.1962(6) 0.0961(4) 0.7468(2)
H10_3 H 0.2731 0.1192 0.7869
C8_3 C 0.0164(6) 0.1479(4) 0.7625(3)
O4_3 O 0.3148(4) 0.9031(3) 0.52805(19)
H2_3 H 0.3897 0.8570 0.5109
O5_3 O 0.0392(4) 0.7600(3) 0.51765(16)
O7_3 O 0.4079(4) 0.8304(3) 0.70196(18)
O8_3 O 0.4656(5) 0.9524(3) 0.7962(2)
O9_3 O 0.0886(4) 0.9273(2) 0.67898(18)
H3_3 H 0.1038 0.9750 0.6437
C3_3 C 0.1906(6) 0.9286(4) 0.4705(3)
H8_3 H 0.2498 0.9189 0.4230
C4_3 C 0.0398(6) 0.8419(4) 0.4703(3)
C5_3 C 0.3677(6) 0.9121(4) 0.7472(3)
C6_3 C 0.1851(6) 0.9635(4) 0.7442(2)
H9_3 H 0.1205 0.9382 0.7876
H1_3 H 0.9292 0.0557 0.5408
O11_3 O 0.9411(4) 0.2046(2) 0.71143(18)
O4_4 O 0.1852(4) 0.0969(3) 0.02805(19)
H2_4 H 0.1103 0.1430 0.0109
O5_4 O 0.4608(4) 0.2400(3) 0.01765(16)
O7_4 O 0.0921(4) 0.1696(3) 0.20196(18)
O8_4 O 0.0344(5) 0.0476(3) 0.2962(2)
O9_4 O 0.4114(4) 0.0727(2) 0.17898(18)
H3_4 H 0.3962 0.0250 0.1437
C5_4 C 0.1323(6) 0.0879(4) 0.2472(3)
C6_4 C 0.3149(6) 0.0365(4) 0.2442(2)
H9_4 H 0.3795 0.0618 0.2876
C3_4 C 0.3094(6) 0.0714(4) 0.9705(3)
H8_4 H 0.2502 0.0811 0.9230
C4_4 C 0.4602(6) 0.1581(4) 0.9703(3)
O1_4 O 0.2187(4) 0.7711(2) 0.01102(16)
O3_4 O 0.4645(4) 0.9310(3) 0.04762(17)
H1_4 H 0.5708 0.9443 0.0408
O10_4 O 0.2386(4) 0.8616(3) 0.17751(18)
H4_4 H 0.1300 0.8694 0.1766
O11_4 O 0.5589(4) 0.7954(2) 0.21143(18)
O13_4 O 0.2841(5) 0.5900(3) 0.1603(3)
H5_4 H 0.329(4) 0.529(2) 0.147(3)
H6_4 H 0.183(2) 0.576(3) 0.171(4)
C7_4 C 0.3038(6) 0.9039(4) 0.2468(2)
H10_4 H 0.2269 0.8808 0.2869
C8_4 C 0.4836(6) 0.8521(4) 0.2625(3)
C1_4 C 0.2216(6) 0.8619(4) 0.9716(3)
C2_4 C 0.3721(6) 0.9472(4) 0.9775(3)
H7_4 H 0.4535 0.9340 0.9372
loop_
_geom_bond_atom_site_label_1
_geom_bond_atom_site_label_2
_geom_bond_site_symmetry_1
_geom_bond_site_symmetry_2
Cd1 O1 1_555 1_555
Cd2 O4 1_555 1_555
O1 C1 1_555 1_555
O2 C1 1_555 1_555
O3 Cd1 1_555 1_555
H1 O3 1_555 1_555
O4 H2 1_555 1_555
O5 Cd2 1_555 1_555
O6 C4 1_555 1_555
O7 Cd2 1_555 1_555
O8 C5 1_555 1_555
O9 Cd2 1_555 1_555
H3 O9 1_555 1_555
O10 Cd1 1_555 1_555
H4 O10 1_555 1_555
O11 Cd1 1_555 1_555
O12 C8 1_555 1_555
O13 Cd1 1_555 1_555
H5 O13 1_555 1_555
H6 O13 1_555 1_555
C1 C2 1_555 1_555
C2 O3 1_555 1_555
H7 C2 1_555 1_555
C3 O4 1_555 1_555
H8 C3 1_555 1_555
C4 O5 1_555 1_555
C5 O7 1_555 1_555
C6 O9 1_555 1_555
H9 C6 1_555 1_555
C7 O10 1_555 1_555
H10 C7 1_555 1_555
C8 O11 1_555 1_555
Cd4 O6 1_555 1_555
Cd5 O12 1_555 1_555
O14 Cd1 1_555 1_555
O15 Cd2 1_555 1_555
O16 Cd2 1_555 1_555
C2 C3 1_555 1_555
C3 C4 1_555 1_555
C5 C6 1_555 1_555
C6 C7 1_555 1_555
C7 C8 1_555 1_555
Cd5 O6_2 1_555 1_555
Cd4 O12_2 1_555 1_555
O2_2 C1_2 1_555 1_555
C1_2 C2_2 1_555 1_555
H7_2 C2_2 1_555 1_555
H8_2 C3_2 1_555 1_555
Cd3_2 O2_2 1_555 1_555
C2_2 C3_2 1_555 1_555
C3_2 C4_2 1_555 1_555
Cd1_2 O1_2 1_555 1_555
Cd2_2 O4_2 1_555 1_555
O3_2 Cd1_2 1_555 1_555
O4_2 H2_2 1_555 1_555
O5_2 Cd2_2 1_555 1_555
O7_2 Cd2_2 1_555 1_555
O8_2 C5_2 1_555 1_555
O9_2 Cd2_2 1_555 1_555
H3_2 O9_2 1_555 1_555
O10_2 Cd1_2 1_555 1_555
H4_2 O10_2 1_555 1_555
O13_2 Cd1_2 1_555 1_555
H5_2 O13_2 1_555 1_555
H6_2 O13_2 1_555 1_555
C5_2 O7_2 1_555 1_555
C6_2 O9_2 1_555 1_555
H9_2 C6_2 1_555 1_555
C7_2 O10_2 1_555 1_555
H10_2 C7_2 1_555 1_555
O15_2 Cd2_2 1_555 1_555
O16_2 Cd2_2 1_555 1_555
C5_2 C6_2 1_555 1_555
C6_2 C7_2 1_555 1_555
C7_2 C8_2 1_555 1_555
Cd3 O1_3 1_555 1_555
O1_3 C1_3 1_555 1_555
O14 C1_3 1_555 1_555
O3_3 Cd3 1_555 1_555
O10_3 Cd3 1_555 1_555
H4_3 O10_3 1_555 1_555
O13_3 Cd3 1_555 1_555
H5_3 O13_3 1_555 1_555
H6_3 O13_3 1_555 1_555
C1_3 C2_3 1_555 1_555
C2_3 O3_3 1_555 1_555
H7_3 C2_3 1_555 1_555
C7_3 O10_3 1_555 1_555
H10_3 C7_3 1_555 1_555
C7_3 C8_3 1_555 1_555
Cd4 O4_3 1_555 1_555
O4_3 H2_3 1_555 1_555
O5_3 Cd4 1_555 1_555
O7_3 Cd4 1_555 1_555
O8_3 C5_3 1_555 1_555
O9_3 Cd4 1_555 1_555
H3_3 O9_3 1_555 1_555
C3_3 O4_3 1_555 1_555
H8_3 C3_3 1_555 1_555
C4_3 O5_3 1_555 1_555
C5_3 O7_3 1_555 1_555
C6_3 O9_3 1_555 1_555
H9_3 C6_3 1_555 1_555
C3_3 C4_3 1_555 1_555
C5_3 C6_3 1_555 1_555
Cd5 O4_4 1_555 1_555
O4_4 H2_4 1_555 1_555
O5_4 Cd5 1_555 1_555
O7_4 Cd5 1_555 1_555
O8_4 C5_4 1_555 1_555
O9_4 Cd5 1_555 1_555
H3_4 O9_4 1_555 1_555
C5_4 O7_4 1_555 1_555
C6_4 O9_4 1_555 1_555
H9_4 C6_4 1_555 1_555
C5_4 C6_4 1_555 1_555
O15_2 C4_4 1_555 1_555
H8_4 C3_4 1_555 1_555
C3_4 C4_4 1_555 1_555
Cd3_2 O1_4 1_555 1_555
O3_4 Cd3_2 1_555 1_555
H1_4 O3_4 1_555 1_555
O10_4 Cd3_2 1_555 1_555
H4_4 O10_4 1_555 1_555
O11_4 Cd3_2 1_555 1_555
O16 C8_4 1_555 1_555
O13_4 Cd3_2 1_555 1_555
H5_4 O13_4 1_555 1_555
H6_4 O13_4 1_555 1_555
C7_4 O10_4 1_555 1_555
H10_4 C7_4 1_555 1_555
C8_4 O11_4 1_555 1_555
C7_4 C8_4 1_555 1_555
O14_2 C1_4 1_555 1_555
C1_4 C2_4 1_555 1_555
H7_4 C2_4 1_555 1_555

#END
