
###############################################################################
#
# This file contains modified crystal structure data generated from the
# MOF subset of the Cambridge Structural Database (CSD) v543 
# hosted by the Cambridge Crystallographic Data Centre (CCDC).
#
# This work is licensed under the Creative Commons
# Attribution-NonCommercial-ShareAlike 4.0 International License.
# To view a copy of this license, visit
# http://creativecommons.org/licenses/by-nc-sa/4.0/
# or send a letter to
# Creative Commons, PO Box 1866, Mountain View, CA 94042, USA.
#
# CIF created using the CSD Python API on 29 September 2022
# The structure has been converted into the P1 space group
# The structure has a 3D framework
# The original CSD entry HIXXAQ01 is in the monoclinic crystal system
# The framework has been calculated to contain at least 10.0% void space
# The void calculation uses a probe of radius 1.32A, grid spacing 0.4
# H atom positions have been added when not included in the experimental data
#
###############################################################################

data_HIXXAQ01
_chemical_formula_moiety         '(C104 H64 Cd2 N24 O16)n'
_symmetry_cell_setting           triclinic
_symmetry_space_group_name_H-M   'P 1'
_symmetry_Int_Tables_number      1
_space_group_name_Hall           'P 1'
loop_
_symmetry_equiv_pos_site_id
_symmetry_equiv_pos_as_xyz
1 x,y,z
_cell_length_a                   8.70955(15)
_cell_length_b                   23.1334(4)
_cell_length_c                   17.9071(3)
_cell_angle_alpha                90
_cell_angle_beta                 97.1938(16)
_cell_angle_gamma                90
_cell_volume                     3579.55
loop_
_atom_site_label
_atom_site_type_symbol
_atom_site_fract_x
_atom_site_fract_y
_atom_site_fract_z
Cd3 Cd 0.17515(2) 0.94730(2) 0.01434(2)
N1 N 0.0484(3) 0.87874(11) 0.93359(15)
C12 C 0.1231(4) 0.86036(15) 0.87680(19)
H6 H 0.2116 0.8800 0.8670
C13 C 0.0737(4) 0.81320(16) 0.8322(2)
H7 H 0.1284 0.8015 0.7935
Cd4 Cd 0.17515(2) 0.55270(2) 0.51434(2)
O5 O 0.0648(3) 0.46343(9) 0.44306(12)
Cd1 Cd 0.82485(2) 0.44730(2) 0.48566(2)
O1 O 0.9352(3) 0.53657(9) 0.55694(12)
C1 C 0.8208(4) 0.53323(13) 0.59448(16)
O2 O 0.7253(3) 0.49198(9) 0.58481(12)
N2 N 0.9708(4) 0.70916(14) 0.75021(18)
C2 C 0.7976(4) 0.57881(14) 0.65117(17)
O3 O 0.2387(3) 0.87464(10) 0.10885(13)
N3 N 0.7534(4) 0.70528(14) 0.80761(18)
C3 C 0.6613(4) 0.57727(15) 0.68587(19)
H1 H 0.5893 0.5482 0.6727
O4 O 0.3854(3) 0.88248(9) 0.01744(12)
N4 N 0.7155(3) 0.51393(11) 0.39876(14)
C4 C 0.6318(4) 0.61761(16) 0.7387(2)
H2 H 0.5406 0.6171 0.7607
N5 N 0.4717(4) 0.68715(12) 0.24706(15)
C5 C 0.7447(4) 0.65916(15) 0.7574(2)
N6 N 0.6697(6) 0.66021(18) 0.1859(2)
C6 C 0.8810(4) 0.66195(15) 0.7231(2)
C7 C 0.9082(4) 0.62120(14) 0.66825(19)
H3 H 0.9970 0.6227 0.6444
C8 C 0.8897(4) 0.73303(15) 0.8006(2)
C9 C 0.9417(4) 0.78397(15) 0.8463(2)
C10 C 0.8638(4) 0.80270(16) 0.9048(2)
H4 H 0.7745 0.7840 0.9154
C11 C 0.9219(4) 0.85011(14) 0.94742(19)
H5 H 0.8704 0.8623 0.9871
C14 C 0.3483(4) 0.85760(13) 0.07513(17)
C15 C 0.4366(4) 0.80453(14) 0.10259(18)
C16 C 0.5599(7) 0.7869(2) 0.0656(2)
H8 H 0.5850 0.8084 0.0250
C17 C 0.6459(9) 0.7384(3) 0.0874(3)
H9 H 0.7270 0.7263 0.0619
C18 C 0.6062(6) 0.7087(2) 0.1485(2)
C19 C 0.4840(4) 0.72521(14) 0.18738(19)
C20 C 0.3964(4) 0.77390(14) 0.16415(19)
H10 H 0.3140 0.7855 0.1890
C21 C 0.5862(5) 0.64974(16) 0.2438(2)
C22 C 0.6243(4) 0.60162(15) 0.29619(18)
C23 C 0.7261(6) 0.55836(17) 0.2794(2)
H11 H 0.7646 0.5580 0.2333
C24 C 0.7690(5) 0.51594(16) 0.33237(18)
H12 H 0.8383 0.4876 0.3211
C25 C 0.6132(4) 0.55441(13) 0.41424(18)
H13 H 0.5731 0.5527 0.4599
C26 C 0.5656(4) 0.59848(14) 0.36439(18)
H14 H 0.4947 0.6258 0.3767
N7 N 0.9516(3) 0.37874(11) 0.56641(15)
O6 O 0.7613(3) 0.37464(10) 0.39115(13)
O7 O 0.6146(3) 0.38248(9) 0.48256(12)
H15 H 0.674591 0.716162 0.84242
H16 H 0.761221 0.636901 0.172614
N4_2 N 0.2845(3) 0.01393(11) 0.10124(14)
N5_2 N 0.5283(4) 0.18715(12) 0.25294(15)
N6_2 N 0.3303(6) 0.16021(18) 0.3141(2)
C14_2 C 0.6517(4) 0.35760(13) 0.42487(17)
C15_2 C 0.5634(4) 0.30453(14) 0.39741(18)
C16_2 C 0.4401(7) 0.2869(2) 0.4344(2)
H8_2 H 0.4150 0.3084 0.4750
C17_2 C 0.3541(9) 0.2384(3) 0.4126(3)
H9_2 H 0.2730 0.2263 0.4381
C18_2 C 0.3938(6) 0.2087(2) 0.3515(2)
C19_2 C 0.5160(4) 0.22521(14) 0.31262(19)
C20_2 C 0.6036(4) 0.27390(14) 0.33585(19)
H10_2 H 0.6860 0.2855 0.3110
C21_2 C 0.4138(5) 0.14974(16) 0.2562(2)
C22_2 C 0.3757(4) 0.10162(15) 0.20381(18)
C23_2 C 0.2739(6) 0.05836(17) 0.2206(2)
H11_2 H 0.2354 0.0580 0.2667
C24_2 C 0.2310(5) 0.01594(16) 0.16763(18)
C25_2 C 0.3868(4) 0.05441(13) 0.08576(18)
H13_2 H 0.4269 0.0527 0.0401
C26_2 C 0.4344(4) 0.09848(14) 0.13561(18)
H14_2 H 0.5053 0.1258 0.1233
H16_2 H 0.238779 0.136901 0.327386
H12_2 H 0.1617 0.9876 0.1789
O2_2 O 0.2747(3) 0.99198(9) 0.91519(12)
C12_2 C 0.8769(4) 0.36036(15) 0.62320(19)
H6_2 H 0.7884 0.3800 0.6330
C13_2 C 0.9263(4) 0.31320(16) 0.6678(2)
H7_2 H 0.8716 0.3015 0.7065
Cd4_2 Cd 0.82485(2) 0.05270(2) 0.98566(2)
C1_2 C 0.1792(4) 0.46677(13) 0.40552(16)
O2_3 O 0.2747(3) 0.50802(9) 0.41519(12)
N2_2 N 0.0292(4) 0.29084(14) 0.24979(18)
C2_2 C 0.2024(4) 0.42119(14) 0.34883(17)
O3_2 O 0.7613(3) 0.12536(10) 0.89115(13)
N3_2 N 0.2466(4) 0.29472(14) 0.19239(18)
C3_2 C 0.3387(4) 0.42273(15) 0.31413(19)
H1_2 H 0.4107 0.4518 0.3273
O4_2 O 0.6146(3) 0.11752(9) 0.98256(12)
N4_3 N 0.2845(3) 0.48607(11) 0.60124(14)
C4_2 C 0.3682(4) 0.38239(16) 0.2613(2)
H2_2 H 0.4594 0.3829 0.2393
N5_3 N 0.5283(4) 0.31285(12) 0.75294(15)
C5_2 C 0.2553(4) 0.34084(15) 0.2426(2)
N6_3 N 0.3303(6) 0.33979(18) 0.8141(2)
C6_2 C 0.1190(4) 0.33805(15) 0.2769(2)
C7_2 C 0.0918(4) 0.37880(14) 0.33175(19)
H3_2 H 0.0030 0.3773 0.3556
C8_2 C 0.1103(4) 0.26697(15) 0.1994(2)
C9_2 C 0.0583(4) 0.21603(15) 0.1537(2)
C10_2 C 0.1362(4) 0.19730(16) 0.0952(2)
H4_2 H 0.2255 0.2160 0.0846
C11_2 C 0.0781(4) 0.14989(14) 0.05258(19)
H5_2 H 0.1296 0.1377 0.0129
C14_3 C 0.6517(4) 0.14240(13) 0.92487(17)
C15_3 C 0.5634(4) 0.19547(14) 0.89741(18)
C16_3 C 0.4401(7) 0.2131(2) 0.9344(2)
H8_3 H 0.4150 0.1916 0.9750
C17_3 C 0.3541(9) 0.2616(3) 0.9126(3)
H9_3 H 0.2730 0.2737 0.9381
C18_3 C 0.3938(6) 0.2913(2) 0.8515(2)
C19_3 C 0.5160(4) 0.27479(14) 0.81262(19)
C20_3 C 0.6036(4) 0.22610(14) 0.83585(19)
H10_3 H 0.6860 0.2145 0.8110
C21_3 C 0.4138(5) 0.35026(16) 0.7562(2)
C22_3 C 0.3757(4) 0.39838(15) 0.70381(18)
C23_3 C 0.2739(6) 0.44164(17) 0.7206(2)
H11_3 H 0.2354 0.4420 0.7667
C24_3 C 0.2310(5) 0.48406(16) 0.66763(18)
H12_3 H 0.1617 0.5124 0.6789
C25_3 C 0.3868(4) 0.44559(13) 0.58576(18)
H13_3 H 0.4269 0.4473 0.5401
C26_3 C 0.4344(4) 0.40152(14) 0.63561(18)
H14_3 H 0.5053 0.3742 0.6233
N7_2 N 0.0484(3) 0.62126(11) 0.43359(15)
O6_2 O 0.2387(3) 0.62536(10) 0.60885(13)
O7_2 O 0.3854(3) 0.61752(9) 0.51744(12)
H15_2 H 0.325409 0.283838 0.15758
H16_3 H 0.238779 0.363099 0.827386
N1_2 N 0.9516(3) 0.12126(11) 0.06641(15)
C12_3 C 0.8769(4) 0.13964(15) 0.12320(19)
H6_3 H 0.7884 0.1200 0.1330
C13_3 C 0.9263(4) 0.18680(16) 0.1678(2)
H7_3 H 0.8716 0.1985 0.2065
C12_4 C 0.1231(4) 0.63964(15) 0.37680(19)
H6_4 H 0.2116 0.6200 0.3670
C13_4 C 0.0737(4) 0.68680(16) 0.3322(2)
H7_4 H 0.1284 0.6985 0.2935
O2_4 O 0.7253(3) 0.00802(9) 0.08481(12)
H12_4 H 0.8383 0.0124 0.8211
N4_4 N 0.7155(3) 0.98607(11) 0.89876(14)
N5_4 N 0.4717(4) 0.81285(12) 0.74706(15)
N6_4 N 0.6697(6) 0.83979(18) 0.6859(2)
C14_4 C 0.3483(4) 0.64240(13) 0.57513(17)
C15_4 C 0.4366(4) 0.69547(14) 0.60259(18)
C16_4 C 0.5599(7) 0.7131(2) 0.5656(2)
H8_4 H 0.5850 0.6916 0.5250
C17_4 C 0.6459(9) 0.7616(3) 0.5874(3)
H9_4 H 0.7270 0.7737 0.5619
C18_4 C 0.6062(6) 0.7913(2) 0.6485(2)
C19_4 C 0.4840(4) 0.77479(14) 0.68738(19)
C20_4 C 0.3964(4) 0.72610(14) 0.66415(19)
H10_4 H 0.3140 0.7145 0.6890
C21_4 C 0.5862(5) 0.85026(16) 0.7438(2)
C22_4 C 0.6243(4) 0.89838(15) 0.79619(18)
C23_4 C 0.7261(6) 0.94164(17) 0.7794(2)
H11_4 H 0.7646 0.9420 0.7333
C24_4 C 0.7690(5) 0.98406(16) 0.83237(18)
C25_4 C 0.6132(4) 0.94559(13) 0.91424(18)
H13_4 H 0.5731 0.9473 0.9599
C26_4 C 0.5656(4) 0.90152(14) 0.86439(18)
H14_4 H 0.4947 0.8742 0.8767
H16_4 H 0.761221 0.863099 0.672614
O1_2 O 0.0648(3) 0.03657(9) 0.94306(12)
C1_3 C 0.1792(4) 0.03323(13) 0.90552(16)
N2_3 N 0.0292(4) 0.20916(14) 0.74979(18)
C2_3 C 0.2024(4) 0.07881(14) 0.84883(17)
N3_3 N 0.2466(4) 0.20528(14) 0.69239(18)
C3_3 C 0.3387(4) 0.07727(15) 0.81413(19)
H1_3 H 0.4107 0.0482 0.8273
C4_3 C 0.3682(4) 0.11761(16) 0.7613(2)
H2_3 H 0.4594 0.1171 0.7393
C5_3 C 0.2553(4) 0.15916(15) 0.7426(2)
C6_3 C 0.1190(4) 0.16195(15) 0.7769(2)
C7_3 C 0.0918(4) 0.12120(14) 0.83175(19)
H3_3 H 0.0030 0.1227 0.8556
C8_3 C 0.1103(4) 0.23303(15) 0.6994(2)
C9_3 C 0.0583(4) 0.28397(15) 0.6537(2)
C10_3 C 0.1362(4) 0.30270(16) 0.5952(2)
H4_3 H 0.2255 0.2840 0.5846
C11_3 C 0.0781(4) 0.35011(14) 0.55258(19)
H5_3 H 0.1296 0.3623 0.5129
H15_3 H 0.325409 0.216162 0.65758
O5_2 O 0.9352(3) 0.96343(9) 0.05694(12)
C1_4 C 0.8208(4) 0.96677(13) 0.09448(16)
N2_4 N 0.9708(4) 0.79084(14) 0.25021(18)
C2_4 C 0.7976(4) 0.92119(14) 0.15117(17)
N3_4 N 0.7534(4) 0.79472(14) 0.30761(18)
C3_4 C 0.6613(4) 0.92273(15) 0.18587(19)
H1_4 H 0.5893 0.9518 0.1727
C4_4 C 0.6318(4) 0.88239(16) 0.2387(2)
H2_4 H 0.5406 0.8829 0.2607
C5_4 C 0.7447(4) 0.84084(15) 0.2574(2)
C6_4 C 0.8810(4) 0.83805(15) 0.2231(2)
C7_4 C 0.9082(4) 0.87880(14) 0.16825(19)
H3_4 H 0.9970 0.8773 0.1444
C8_4 C 0.8897(4) 0.76697(15) 0.3006(2)
C9_4 C 0.9417(4) 0.71603(15) 0.3463(2)
C10_4 C 0.8638(4) 0.69730(16) 0.4048(2)
H4_4 H 0.7745 0.7160 0.4154
C11_4 C 0.9219(4) 0.64989(14) 0.44742(19)
H5_4 H 0.8704 0.6377 0.4871
H15_4 H 0.674591 0.783838 0.34242
loop_
_geom_bond_atom_site_label_1
_geom_bond_atom_site_label_2
_geom_bond_site_symmetry_1
_geom_bond_site_symmetry_2
C12 N1 1_555 1_555
H6 C12 1_555 1_555
H7 C13 1_555 1_555
C12 C13 1_555 1_555
Cd4 O5 1_555 1_555
Cd1 O1 1_555 1_555
O1 C1 1_555 1_555
C1 O2 1_555 1_555
O2 Cd1 1_555 1_555
N2 C6 1_555 1_555
C2 C1 1_555 1_555
O3 C14 1_555 1_555
N3 C5 1_555 1_555
C3 C2 1_555 1_555
H1 C3 1_555 1_555
O4 C14 1_555 1_555
N4 Cd1 1_555 1_555
C4 C3 1_555 1_555
H2 C4 1_555 1_555
N5 C19 1_555 1_555
C5 C4 1_555 1_555
N6 C18 1_555 1_555
C6 C5 1_555 1_555
C7 C2 1_555 1_555
H3 C7 1_555 1_555
C8 N2 1_555 1_555
C9 C8 1_555 1_555
C10 C9 1_555 1_555
H4 C10 1_555 1_555
C11 C10 1_555 1_555
H5 C11 1_555 1_555
C14 C15 1_555 1_555
C15 C16 1_555 1_555
C16 H8 1_555 1_555
C17 C16 1_555 1_555
H9 C17 1_555 1_555
C18 C17 1_555 1_555
C19 C18 1_555 1_555
C20 C15 1_555 1_555
H10 C20 1_555 1_555
C21 N5 1_555 1_555
C22 C21 1_555 1_555
C23 C22 1_555 1_555
H11 C23 1_555 1_555
C24 N4 1_555 1_555
H12 C24 1_555 1_555
C25 N4 1_555 1_555
H13 C25 1_555 1_555
C26 C22 1_555 1_555
H14 C26 1_555 1_555
Cd3 O3 1_555 1_555
N7 Cd1 1_555 1_555
O6 Cd1 1_555 1_555
O7 Cd1 1_555 1_555
N3 C8 1_555 1_555
O4 Cd3 1_555 1_555
N6 C21 1_555 1_555
C6 C7 1_555 1_555
C19 C20 1_555 1_555
C23 C24 1_555 1_555
C25 C26 1_555 1_555
N3 H15 1_555 1_555
N6 H16 1_555 1_555
O6 C14_2 1_555 1_555
O7 C14_2 1_555 1_555
N5_2 C19_2 1_555 1_555
N6_2 C18_2 1_555 1_555
C14_2 C15_2 1_555 1_555
C15_2 C16_2 1_555 1_555
C16_2 H8_2 1_555 1_555
C17_2 C16_2 1_555 1_555
H9_2 C17_2 1_555 1_555
C18_2 C17_2 1_555 1_555
C19_2 C18_2 1_555 1_555
C20_2 C15_2 1_555 1_555
H10_2 C20_2 1_555 1_555
C21_2 N5_2 1_555 1_555
C22_2 C21_2 1_555 1_555
C23_2 C22_2 1_555 1_555
H11_2 C23_2 1_555 1_555
C24_2 N4_2 1_555 1_555
C25_2 N4_2 1_555 1_555
H13_2 C25_2 1_555 1_555
C26_2 C22_2 1_555 1_555
H14_2 C26_2 1_555 1_555
N6_2 C21_2 1_555 1_555
C19_2 C20_2 1_555 1_555
C23_2 C24_2 1_555 1_555
C25_2 C26_2 1_555 1_555
N6_2 H16_2 1_555 1_555
C12_2 N7 1_555 1_555
H6_2 C12_2 1_555 1_555
H7_2 C13_2 1_555 1_555
C12_2 C13_2 1_555 1_555
O5 C1_2 1_555 1_555
C1_2 O2_3 1_555 1_555
O2_3 Cd4 1_555 1_555
N2_2 C6_2 1_555 1_555
C2_2 C1_2 1_555 1_555
O3_2 C14_3 1_555 1_555
N3_2 C5_2 1_555 1_555
C3_2 C2_2 1_555 1_555
H1_2 C3_2 1_555 1_555
O4_2 C14_3 1_555 1_555
N4_3 Cd4 1_555 1_555
C4_2 C3_2 1_555 1_555
H2_2 C4_2 1_555 1_555
N5_3 C19_3 1_555 1_555
C5_2 C4_2 1_555 1_555
N6_3 C18_3 1_555 1_555
C6_2 C5_2 1_555 1_555
C7_2 C2_2 1_555 1_555
H3_2 C7_2 1_555 1_555
C8_2 N2_2 1_555 1_555
C9_2 C8_2 1_555 1_555
C10_2 C9_2 1_555 1_555
H4_2 C10_2 1_555 1_555
C11_2 C10_2 1_555 1_555
H5_2 C11_2 1_555 1_555
C14_3 C15_3 1_555 1_555
C15_3 C16_3 1_555 1_555
C16_3 H8_3 1_555 1_555
C17_3 C16_3 1_555 1_555
H9_3 C17_3 1_555 1_555
C18_3 C17_3 1_555 1_555
C19_3 C18_3 1_555 1_555
C20_3 C15_3 1_555 1_555
H10_3 C20_3 1_555 1_555
C21_3 N5_3 1_555 1_555
C22_3 C21_3 1_555 1_555
C23_3 C22_3 1_555 1_555
H11_3 C23_3 1_555 1_555
C24_3 N4_3 1_555 1_555
H12_3 C24_3 1_555 1_555
C25_3 N4_3 1_555 1_555
H13_3 C25_3 1_555 1_555
C26_3 C22_3 1_555 1_555
H14_3 C26_3 1_555 1_555
Cd4_2 O3_2 1_555 1_555
N7_2 Cd4 1_555 1_555
O6_2 Cd4 1_555 1_555
O7_2 Cd4 1_555 1_555
N3_2 C8_2 1_555 1_555
O4_2 Cd4_2 1_555 1_555
N6_3 C21_3 1_555 1_555
C6_2 C7_2 1_555 1_555
C19_3 C20_3 1_555 1_555
C23_3 C24_3 1_555 1_555
C25_3 C26_3 1_555 1_555
N3_2 H15_2 1_555 1_555
N6_3 H16_3 1_555 1_555
C12_3 N1_2 1_555 1_555
H6_3 C12_3 1_555 1_555
H7_3 C13_3 1_555 1_555
C12_3 C13_3 1_555 1_555
C12_4 N7_2 1_555 1_555
H6_4 C12_4 1_555 1_555
H7_4 C13_4 1_555 1_555
C12_4 C13_4 1_555 1_555
O6_2 C14_4 1_555 1_555
O7_2 C14_4 1_555 1_555
N5_4 C19_4 1_555 1_555
N6_4 C18_4 1_555 1_555
C14_4 C15_4 1_555 1_555
C15_4 C16_4 1_555 1_555
C16_4 H8_4 1_555 1_555
C17_4 C16_4 1_555 1_555
H9_4 C17_4 1_555 1_555
C18_4 C17_4 1_555 1_555
C19_4 C18_4 1_555 1_555
C20_4 C15_4 1_555 1_555
H10_4 C20_4 1_555 1_555
C21_4 N5_4 1_555 1_555
C22_4 C21_4 1_555 1_555
C23_4 C22_4 1_555 1_555
H11_4 C23_4 1_555 1_555
C24_4 N4_4 1_555 1_555
C25_4 N4_4 1_555 1_555
H13_4 C25_4 1_555 1_555
C26_4 C22_4 1_555 1_555
H14_4 C26_4 1_555 1_555
N6_4 C21_4 1_555 1_555
C19_4 C20_4 1_555 1_555
C23_4 C24_4 1_555 1_555
C25_4 C26_4 1_555 1_555
N6_4 H16_4 1_555 1_555
O1_2 C1_3 1_555 1_555
N2_3 C6_3 1_555 1_555
C2_3 C1_3 1_555 1_555
N3_3 C5_3 1_555 1_555
C3_3 C2_3 1_555 1_555
H1_3 C3_3 1_555 1_555
C4_3 C3_3 1_555 1_555
H2_3 C4_3 1_555 1_555
C5_3 C4_3 1_555 1_555
C6_3 C5_3 1_555 1_555
C7_3 C2_3 1_555 1_555
H3_3 C7_3 1_555 1_555
C8_3 N2_3 1_555 1_555
C9_3 C8_3 1_555 1_555
C10_3 C9_3 1_555 1_555
H4_3 C10_3 1_555 1_555
C11_3 C10_3 1_555 1_555
H5_3 C11_3 1_555 1_555
N3_3 C8_3 1_555 1_555
C6_3 C7_3 1_555 1_555
N3_3 H15_3 1_555 1_555
O5_2 C1_4 1_555 1_555
N2_4 C6_4 1_555 1_555
C2_4 C1_4 1_555 1_555
N3_4 C5_4 1_555 1_555
C3_4 C2_4 1_555 1_555
H1_4 C3_4 1_555 1_555
C4_4 C3_4 1_555 1_555
H2_4 C4_4 1_555 1_555
C5_4 C4_4 1_555 1_555
C6_4 C5_4 1_555 1_555
C7_4 C2_4 1_555 1_555
H3_4 C7_4 1_555 1_555
C8_4 N2_4 1_555 1_555
C9_4 C8_4 1_555 1_555
C10_4 C9_4 1_555 1_555
H4_4 C10_4 1_555 1_555
C11_4 C10_4 1_555 1_555
H5_4 C11_4 1_555 1_555
N3_4 C8_4 1_555 1_555
C6_4 C7_4 1_555 1_555
N3_4 H15_4 1_555 1_555

#END
