
###############################################################################
#
# This file contains modified crystal structure data generated from the
# MOF subset of the Cambridge Structural Database (CSD) v543 
# hosted by the Cambridge Crystallographic Data Centre (CCDC).
#
# This work is licensed under the Creative Commons
# Attribution-NonCommercial-ShareAlike 4.0 International License.
# To view a copy of this license, visit
# http://creativecommons.org/licenses/by-nc-sa/4.0/
# or send a letter to
# Creative Commons, PO Box 1866, Mountain View, CA 94042, USA.
#
# CIF created using the CSD Python API on 29 September 2022
# The structure has been converted into the P1 space group
# The structure has a 3D framework
# The original CSD entry HIYZEV01 is in the triclinic crystal system
# The framework has been calculated to contain at least 10.0% void space
# The void calculation uses a probe of radius 1.32A, grid spacing 0.4
#
###############################################################################

data_HIYZEV01
_chemical_formula_moiety         '(C38 H30 Mn10 N2 O16)n'
_symmetry_cell_setting           triclinic
_symmetry_space_group_name_H-M   'P 1'
_symmetry_Int_Tables_number      1
_space_group_name_Hall           'P 1'
loop_
_symmetry_equiv_pos_site_id
_symmetry_equiv_pos_as_xyz
1 x,y,z
_cell_length_a                   9.716(3)
_cell_length_b                   12.193(3)
_cell_length_c                   12.576(3)
_cell_angle_alpha                62.19(2)
_cell_angle_beta                 66.423(17)
_cell_angle_gamma                72.72(2)
_cell_volume                     1196.5
loop_
_atom_site_label
_atom_site_type_symbol
_atom_site_fract_x
_atom_site_fract_y
_atom_site_fract_z
Mn10 Mn -0.0000 0.0000 0.0000
Mn10_2 Mn -0.0000 -0.0000 1.0000
Mn10_3 Mn -0.0000 1.0000 0.0000
Mn10_4 Mn -0.0000 1.0000 1.0000
Mn3 Mn 0.0000 0.5000 0.0000
C9 C 0.2731(3) 0.1665(2) 0.0324(2)
C10 C 0.2565(3) 0.0466(2) 0.1261(2)
H5 H 0.1682 0.0131 0.1528
C12 C 0.5038(3) 0.0239(3) 0.1372(3)
C13 C 0.5228(3) 0.1435(3) 0.0421(3)
O9 O 0.7833(2) 0.1139(2) 0.0155(2)
Mn6 Mn 0.09203(4) 0.67127(3) 0.12322(3)
Mn10_5 Mn 1.0000 0.0000 0.0000
O18 O 0.0406(3) 0.37497(18) 0.17289(18)
Mn3_2 Mn -0.0000 0.5000 1.0000
O2 O 0.0597(2) 0.06965(18) 0.80337(17)
O3 O 0.0564(2) 0.18350(18) 0.97973(18)
O4 O 0.1401(2) 0.35861(16) 0.91999(17)
C1 C 0.0429(3) 0.1728(3) 0.7140(2)
C2 C 0.0812(3) 0.1694(3) 0.5874(2)
C3 C 0.0652(3) 0.2778(2) 0.4819(2)
H1 H 0.0364 0.3551 0.4879
C4 C 0.0921(3) 0.2711(2) 0.3680(2)
C5 C 0.1394(5) 0.1563(3) 0.3586(3)
H2 H 0.1565 0.1513 0.2827
C6 C 0.1616(7) 0.0489(3) 0.4616(3)
C7 C 0.1302(5) 0.0557(3) 0.5758(3)
C8 C 0.1498(3) 0.2410(2) 0.9741(2)
C14 C 0.4052(3) 0.2162(2) 0.9918(2)
H8 H 0.4153 0.2976 0.9315
C18 C 0.0730(3) 0.3869(2) 0.2535(2)
O7 O 0.0906(2) 0.48738(18) 0.24835(18)
C19 C 0.6712(3) 0.1907(3) 0.9905(3)
O8 O 0.6787(2) 0.3053(2) 0.9246(2)
Mn5 Mn 0.90797(4) 0.32873(3) 0.87678(3)
Mn10_6 Mn 1.0000 -0.0000 1.0000
O15 O 0.1902(2) 0.60461(19) 0.94618(19)
N2 N 0.3952(3) 0.6886(3) 0.7885(3)
C34 C 0.5102(7) 0.6022(6) 0.8349(7)
H24 H 0.4667 0.5341 0.9105
H25 H 0.5793 0.5707 0.7725
H26 H 0.5637 0.6423 0.8537
C35 C 0.4527(7) 0.7997(6) 0.6691(6)
H27 H 0.3688 0.8551 0.6416
H28 H 0.5045 0.8432 0.6855
H29 H 0.5215 0.7712 0.6043
C36 C 0.2506(5) 0.6883(4) 0.8399(4)
H30 H 0.1871 0.7523 0.7972
C11 C 0.3705(3) 0.9769(3) 0.1799(3)
H6 H 0.3571 0.8981 0.2449
H7 H 0.5815 0.9759 0.1718
Mn10_7 Mn 1.0000 1.0000 0.0000
O10 O 0.0042(3) 0.72325(19) 0.27810(18)
O24 O 0.3213(2) 0.6947(2) 0.0754(2)
H3 H 0.1974 0.9723 0.4540
H4 H 0.1422 0.9829 0.6456
Mn10_8 Mn 1.0000 1.0000 1.0000
O27 O 0.2167(2) 0.8861(2) 0.9845(2)
Mn3_3 Mn 1.0000 0.5000 0.0000
O5 O 0.8098(2) 0.39539(19) 0.05382(19)
N1 N 0.6048(3) 0.3114(3) 0.2115(3)
C15 C 0.4898(7) 0.3978(6) 0.1651(7)
H9 H 0.5333 0.4659 0.0895
H10 H 0.4207 0.4293 0.2275
H11 H 0.4363 0.3577 0.1463
C16 C 0.5473(7) 0.2003(6) 0.3309(6)
H12 H 0.6312 0.1449 0.3584
H13 H 0.4955 0.1568 0.3145
H14 H 0.4785 0.2288 0.3957
C17 C 0.7494(5) 0.3117(4) 0.1601(4)
H15 H 0.8129 0.2477 0.2028
O13 O 0.8599(2) 0.64139(16) 0.08001(17)
H18 H 0.8026 0.0277 0.5460
H19 H 0.8578 0.0171 0.3544
Mn3_4 Mn 1.0000 0.5000 1.0000
O1 O 0.9958(3) 0.27675(19) 0.72190(18)
C30 C 0.6295(3) 0.0231(3) 0.8201(3)
H21 H 0.6429 0.1019 0.7551
H22 H 0.4185 0.0241 0.8282
O17 O 0.9594(3) 0.62503(18) 0.82711(18)
O21 O 0.9094(2) 0.51262(18) 0.75165(18)
O11 O 0.9403(2) 0.93035(18) 0.19663(17)
O12 O 0.9436(2) 0.81650(18) 0.02027(18)
C20 C 0.9571(3) 0.8272(3) 0.2860(2)
C21 C 0.9188(3) 0.8306(3) 0.4126(2)
C22 C 0.9348(3) 0.7222(2) 0.5181(2)
H16 H 0.9636 0.6449 0.5121
C23 C 0.9079(3) 0.7289(2) 0.6320(2)
C24 C 0.8606(5) 0.8437(3) 0.6414(3)
H17 H 0.8435 0.8487 0.7173
C25 C 0.8384(7) 0.9511(3) 0.5384(3)
C26 C 0.8698(5) 0.9443(3) 0.4242(3)
C27 C 0.8502(3) 0.7590(2) 0.0259(2)
C33 C 0.5948(3) 0.7838(2) 0.0082(2)
H23 H 0.5847 0.7024 0.0685
C37 C 0.9270(3) 0.6131(2) 0.7465(2)
C38 C 0.3288(3) 0.8093(3) 0.0095(3)
C28 C 0.7269(3) 0.8335(2) 0.9676(2)
C29 C 0.7435(3) 0.9534(2) 0.8739(2)
H20 H 0.8318 0.9869 0.8472
C31 C 0.4962(3) 0.9761(3) 0.8628(3)
C32 C 0.4772(3) 0.8565(3) 0.9579(3)
loop_
_geom_bond_atom_site_label_1
_geom_bond_atom_site_label_2
_geom_bond_site_symmetry_1
_geom_bond_site_symmetry_2
C10 C9 1_555 1_555
H5 C10 1_555 1_555
C13 C12 1_555 1_555
Mn10_5 O9 1_555 1_555
O18 Mn3 1_555 1_555
Mn10_2 O2 1_555 1_555
Mn3_2 O4 1_555 1_555
O2 C1 1_555 1_555
O4 C8 1_555 1_555
C1 C2 1_555 1_555
C2 C3 1_555 1_555
C3 H1 1_555 1_555
C4 C3 1_555 1_555
C5 C4 1_555 1_555
H2 C5 1_555 1_555
C6 C5 1_555 1_555
C7 C2 1_555 1_555
C8 O3 1_555 1_555
H8 C14 1_555 1_555
C18 C4 1_555 1_555
O18 C18 1_555 1_555
O7 C18 1_555 1_555
O8 C19 1_555 1_555
Mn5 O8 1_555 1_555
Mn6 O7 1_555 1_555
O15 Mn3_2 1_555 1_555
N2 C34 1_555 1_555
C34 H24 1_555 1_555
H25 C34 1_555 1_555
H26 C34 1_555 1_555
C35 N2 1_555 1_555
H27 C35 1_555 1_555
H28 C35 1_555 1_555
H29 C35 1_555 1_555
C36 O15 1_555 1_555
H30 C36 1_555 1_555
Mn10_2 O3 1_555 1_555
C6 C7 1_555 1_555
N2 C36 1_555 1_555
H6 C11 1_555 1_555
Mn6 O10 1_555 1_555
O24 Mn6 1_555 1_555
O27 Mn10_4 1_555 1_555
N1 C15 1_555 1_555
C15 H9 1_555 1_555
H10 C15 1_555 1_555
H11 C15 1_555 1_555
C16 N1 1_555 1_555
H12 C16 1_555 1_555
H13 C16 1_555 1_555
H14 C16 1_555 1_555
C17 O5 1_555 1_555
H15 C17 1_555 1_555
O13 Mn3_3 1_555 1_555
Mn3_3 O5 1_555 1_555
N1 C17 1_555 1_555
Mn5 O1 1_555 1_555
H21 C30 1_555 1_555
O17 Mn3_4 1_555 1_555
O21 Mn5 1_555 1_555
O11 Mn10_7 1_555 1_555
O12 Mn10_7 1_555 1_555
O13 C27 1_555 1_555
C20 O11 1_555 1_555
C21 C20 1_555 1_555
C22 C21 1_555 1_555
H16 C22 1_555 1_555
C23 C22 1_555 1_555
C24 C23 1_555 1_555
H17 C24 1_555 1_555
C25 C24 1_555 1_555
C26 C21 1_555 1_555
C27 O12 1_555 1_555
H23 C33 1_555 1_555
C37 C23 1_555 1_555
O17 C37 1_555 1_555
O21 C37 1_555 1_555
O24 C38 1_555 1_555
C25 C26 1_555 1_555
C29 C28 1_555 1_555
H20 C29 1_555 1_555
C32 C31 1_555 1_555

#END
