
###############################################################################
#
# This file contains modified crystal structure data generated from the
# MOF subset of the Cambridge Structural Database (CSD) v543 
# hosted by the Cambridge Crystallographic Data Centre (CCDC).
#
# This work is licensed under the Creative Commons
# Attribution-NonCommercial-ShareAlike 4.0 International License.
# To view a copy of this license, visit
# http://creativecommons.org/licenses/by-nc-sa/4.0/
# or send a letter to
# Creative Commons, PO Box 1866, Mountain View, CA 94042, USA.
#
# CIF created using the CSD Python API on 29 September 2022
# The structure has been converted into the P1 space group
# The structure has a 3D framework
# The original CSD entry HOCXEF is in the monoclinic crystal system
# The framework has been calculated to contain at least 10.0% void space
# The void calculation uses a probe of radius 1.32A, grid spacing 0.4
# The framework is charged, counterions have been retained in the structure
#
###############################################################################

data_HOCXEF
_chemical_formula_moiety         '(C56 H24 N8 O32 Tb2 4-)n'
_symmetry_cell_setting           triclinic
_symmetry_space_group_name_H-M   'P 1'
_symmetry_Int_Tables_number      1
_space_group_name_Hall           'P 1'
loop_
_symmetry_equiv_pos_site_id
_symmetry_equiv_pos_as_xyz
1 x,y,z
_cell_length_a                   9.2390(2)
_cell_length_b                   10.1754(3)
_cell_length_c                   21.7961(5)
_cell_angle_alpha                90
_cell_angle_beta                 100.1820(10)
_cell_angle_gamma                90
_cell_volume                     2016.79
loop_
_atom_site_label
_atom_site_type_symbol
_atom_site_fract_x
_atom_site_fract_y
_atom_site_fract_z
C1 C 0.2549(4) 0.1277(4) 0.44337(18)
O4 O 0.1782(3) 0.2282(3) 0.42335(14)
O7 O 0.3901(3) 0.1372(2) 0.46279(15)
Tb3 Tb 0.38302(2) 0.37299(2) 0.43972(2)
C2 C 0.0233(4) 0.7647(4) 0.44137(19)
C3 C 0.1765(4) 0.7650(4) 0.45806(19)
C4 C 0.2549(4) 0.8822(4) 0.4606(2)
H2 H 0.3563 0.8833 0.4736
C6 C 0.2588(4) 0.6364(4) 0.46743(19)
O6 O 0.1985(3) 0.5365(3) 0.43960(14)
O8 O 0.3870(3) 0.6319(3) 0.49953(15)
C10 C 0.0243(4) 0.9960(4) 0.42654(18)
C11 C 0.1769(4) 0.9987(4) 0.44308(18)
Tb6 Tb 0.61698(2) 0.62701(2) 0.56028(2)
O9 O 0.5033(3) 0.5322(3) 0.38723(14)
O10 O 0.2605(3) 0.3915(3) 0.32631(13)
O11 O 0.4451(3) 0.2526(3) 0.34980(13)
O13 O 0.3326(3) 0.3580(3) 0.54330(13)
O15 O 0.6130(3) 0.3681(3) 0.50047(15)
O2 O 0.7395(3) 0.8915(3) 0.17369(13)
H1 H 0.9722 0.6857 0.4406
N1 N 0.7358(4) 0.8584(3) 0.29910(16)
C5 C 0.6015(4) 0.6179(4) 0.40244(19)
O3 O 0.5549(3) 0.7526(3) 0.15020(13)
O5 O 0.6674(3) 0.6420(3) 0.45670(13)
C7 C 0.9463(4) 0.8807(4) 0.42599(18)
N2 N 0.7216(3) 0.8079(3) 0.35479(15)
C8 C 0.6385(4) 0.6963(4) 0.34886(19)
C9 C 0.6513(4) 0.8092(4) 0.19007(19)
C12 C 0.6605(4) 0.7777(4) 0.25666(19)
C13 C 0.5969(5) 0.6754(4) 0.2858(2)
H4 H 0.5386 0.6075 0.2666
C14 C 0.7799(4) 0.8848(4) 0.41034(19)
H5 H 0.7397 0.8512 0.4454
H6 H 0.7482 0.9754 0.4037
Tb4 Tb 0.61698(2) 0.87299(2) 0.06028(2)
O1 O 0.4967(3) 0.0322(3) 0.11277(14)
H1_2 H 0.0278 0.1857 0.0594
N1_2 N 0.2642(4) 0.3584(3) 0.20090(16)
C5_2 C 0.3985(4) 0.1179(4) 0.09756(19)
O5_2 O 0.3326(3) 0.1420(3) 0.04330(13)
C7_2 C 0.0537(4) 0.3807(4) 0.07401(18)
N2_2 N 0.2784(3) 0.3079(3) 0.14521(15)
C8_2 C 0.3615(4) 0.1963(4) 0.15114(19)
C9_2 C 0.3487(4) 0.3092(4) 0.30993(19)
H3 H 0.0261 0.5740 0.0844
C12_2 C 0.3395(4) 0.2777(4) 0.24334(19)
C13_2 C 0.4031(5) 0.1754(4) 0.2142(2)
H4_2 H 0.4614 0.1075 0.2334
C14_2 C 0.2201(4) 0.3848(4) 0.08966(19)
H5_2 H 0.2603 0.3512 0.0546
H6_2 H 0.2518 0.4754 0.0963
Tb5 Tb 0.38302(2) 0.12701(2) 0.93972(2)
C1_2 C 0.7451(4) 0.6277(4) 0.05663(18)
C2_2 C 0.9767(4) 0.2647(4) 0.05863(19)
C3_2 C 0.8235(4) 0.2650(4) 0.04194(19)
C4_2 C 0.7451(4) 0.3822(4) 0.0394(2)
H2_2 H 0.6437 0.3833 0.0264
C6_2 C 0.7412(4) 0.1364(4) 0.03257(19)
O4_2 O 0.8218(3) 0.7282(3) 0.07665(14)
O6_2 O 0.8015(3) 0.0365(3) 0.06040(14)
O7_2 O 0.6099(3) 0.6372(2) 0.03721(15)
O8_2 O 0.6130(3) 0.1319(3) 0.00047(15)
C10_2 C 0.9757(4) 0.4960(4) 0.07346(18)
C11_2 C 0.8231(4) 0.4987(4) 0.05692(18)
O13_2 O 0.6674(3) 0.8580(3) 0.95670(13)
O15_2 O 0.3870(3) 0.8681(3) 0.99953(15)
O1_2 O 0.4967(3) 0.4678(3) 0.61277(14)
O2_2 O 0.2605(3) 0.1085(3) 0.82631(13)
H1_3 H 0.0278 0.3143 0.5594
N1_3 N 0.2642(4) 0.1416(3) 0.70090(16)
C5_3 C 0.3985(4) 0.3821(4) 0.59756(19)
O3_2 O 0.4451(3) 0.2474(3) 0.84980(13)
C7_3 C 0.0537(4) 0.1193(4) 0.57401(18)
N2_3 N 0.2784(3) 0.1921(3) 0.64521(15)
C8_3 C 0.3615(4) 0.3037(4) 0.65114(19)
C9_3 C 0.3487(4) 0.1908(4) 0.80993(19)
C12_3 C 0.3395(4) 0.2223(4) 0.74334(19)
C13_3 C 0.4031(5) 0.3246(4) 0.7142(2)
H4_3 H 0.4614 0.3925 0.7334
C14_3 C 0.2201(4) 0.1152(4) 0.58966(19)
H5_3 H 0.2603 0.1488 0.5546
H6_3 H 0.2518 0.0246 0.5963
C2_3 C 0.9767(4) 0.2353(4) 0.55863(19)
C3_3 C 0.8235(4) 0.2350(4) 0.54194(19)
C4_3 C 0.7451(4) 0.1178(4) 0.5394(2)
H2_3 H 0.6437 0.1167 0.5264
C6_3 C 0.7412(4) 0.3636(4) 0.53257(19)
O6_3 O 0.8015(3) 0.4635(3) 0.56040(14)
C10_3 C 0.9757(4) 0.0040(4) 0.57346(18)
C11_3 C 0.8231(4) 0.0013(4) 0.55692(18)
O10_2 O 0.7395(3) 0.6085(3) 0.67369(13)
O11_2 O 0.5549(3) 0.7474(3) 0.65020(13)
O12 O 0.8218(3) 0.7718(3) 0.57665(14)
O14 O 0.6099(3) 0.8628(2) 0.53721(15)
C1_3 C 0.7451(4) 0.8723(4) 0.55663(18)
O12_2 O 0.1782(3) 0.2718(3) 0.92335(14)
O14_2 O 0.3901(3) 0.3628(2) 0.96279(15)
C1_4 C 0.2549(4) 0.3723(4) 0.94337(18)
C2_4 C 0.0233(4) 0.7353(4) 0.94137(19)
C3_4 C 0.1765(4) 0.7350(4) 0.95806(19)
C4_4 C 0.2549(4) 0.6178(4) 0.9606(2)
H2_4 H 0.3563 0.6167 0.9736
C6_4 C 0.2588(4) 0.8636(4) 0.96743(19)
O6_4 O 0.1985(3) 0.9635(3) 0.93960(14)
C10_4 C 0.0243(4) 0.5040(4) 0.92654(18)
C11_4 C 0.1769(4) 0.5013(4) 0.94308(18)
O9_2 O 0.5033(3) 0.9678(3) 0.88723(14)
H1_4 H 0.9722 0.8143 0.9406
N1_4 N 0.7358(4) 0.6416(3) 0.79910(16)
C5_4 C 0.6015(4) 0.8821(4) 0.90244(19)
C7_4 C 0.9463(4) 0.6193(4) 0.92599(18)
N2_4 N 0.7216(3) 0.6921(3) 0.85479(15)
C8_4 C 0.6385(4) 0.8037(4) 0.84886(19)
C9_4 C 0.6513(4) 0.6908(4) 0.69007(19)
H3_2 H 0.9739 0.4260 0.9156
C12_4 C 0.6605(4) 0.7223(4) 0.75666(19)
C13_4 C 0.5969(5) 0.8246(4) 0.7858(2)
H4_4 H 0.5386 0.8925 0.7666
C14_4 C 0.7799(4) 0.6152(4) 0.91034(19)
H5_4 H 0.7397 0.6488 0.9454
H6_4 H 0.7482 0.5246 0.9037
H3_3 H 0.9739 0.0740 0.4156
H3_4 H 0.0261 0.9260 0.5844
loop_
_geom_bond_atom_site_label_1
_geom_bond_atom_site_label_2
_geom_bond_site_symmetry_1
_geom_bond_site_symmetry_2
C1 O4 1_555 1_555
O4 Tb3 1_555 1_555
O7 C1 1_555 1_555
Tb3 O7 1_555 1_555
Tb3 O6 1_555 1_555
C3 C2 1_555 1_555
C4 C3 1_555 1_555
H2 C4 1_555 1_555
C6 C3 1_555 1_555
O6 C6 1_555 1_555
O8 C6 1_555 1_555
Tb6 O8 1_555 1_555
O9 Tb3 1_555 1_555
O10 Tb3 1_555 1_555
O11 Tb3 1_555 1_555
O13 Tb3 1_555 1_555
O15 Tb3 1_555 1_555
C4 C11 1_555 1_555
C10 C11 1_555 1_555
O9 C5 1_555 1_555
O2 C9 1_555 1_555
N1 N2 1_555 1_555
C5 O5 1_555 1_555
O3 C9 1_555 1_555
O5 Tb6 1_555 1_555
N2 C8 1_555 1_555
C8 C5 1_555 1_555
C9 C12 1_555 1_555
C12 N1 1_555 1_555
C13 C8 1_555 1_555
H4 C13 1_555 1_555
C14 C7 1_555 1_555
H5 C14 1_555 1_555
H6 C14 1_555 1_555
Tb4 O2 1_555 1_555
O3 Tb4 1_555 1_555
N2 C14 1_555 1_555
C12 C13 1_555 1_555
O1 C5_2 1_555 1_555
O10 C9_2 1_555 1_555
N1_2 N2_2 1_555 1_555
C5_2 O5_2 1_555 1_555
O11 C9_2 1_555 1_555
N2_2 C8_2 1_555 1_555
C8_2 C5_2 1_555 1_555
C9_2 C12_2 1_555 1_555
C12_2 N1_2 1_555 1_555
C13_2 C8_2 1_555 1_555
H4_2 C13_2 1_555 1_555
C14_2 C7_2 1_555 1_555
H5_2 C14_2 1_555 1_555
H6_2 C14_2 1_555 1_555
N2_2 C14_2 1_555 1_555
C12_2 C13_2 1_555 1_555
C1_2 O4_2 1_555 1_555
C3_2 C2_2 1_555 1_555
C4_2 C3_2 1_555 1_555
H2_2 C4_2 1_555 1_555
C6_2 C3_2 1_555 1_555
O4_2 Tb4 1_555 1_555
O6_2 C6_2 1_555 1_555
O7_2 C1_2 1_555 1_555
O8_2 C6_2 1_555 1_555
C11_2 C1_2 1_555 1_555
Tb4 O7_2 1_555 1_555
C4_2 C11_2 1_555 1_555
C10_2 C11_2 1_555 1_555
O1_2 C5_3 1_555 1_555
O2_2 C9_3 1_555 1_555
N1_3 N2_3 1_555 1_555
C5_3 O13 1_555 1_555
O3_2 C9_3 1_555 1_555
N2_3 C8_3 1_555 1_555
C8_3 C5_3 1_555 1_555
C9_3 C12_3 1_555 1_555
C12_3 N1_3 1_555 1_555
C13_3 C8_3 1_555 1_555
H4_3 C13_3 1_555 1_555
C14_3 C7_3 1_555 1_555
H5_3 C14_3 1_555 1_555
H6_3 C14_3 1_555 1_555
Tb6 O1_2 1_555 1_555
Tb5 O2_2 1_555 1_555
O3_2 Tb5 1_555 1_555
N2_3 C14_3 1_555 1_555
C12_3 C13_3 1_555 1_555
Tb6 O6_3 1_555 1_555
C3_3 C2_3 1_555 1_555
C4_3 C3_3 1_555 1_555
H2_3 C4_3 1_555 1_555
C6_3 C3_3 1_555 1_555
O6_3 C6_3 1_555 1_555
O15 C6_3 1_555 1_555
O10_2 Tb6 1_555 1_555
O11_2 Tb6 1_555 1_555
O12 Tb6 1_555 1_555
O14 Tb6 1_555 1_555
C4_3 C11_3 1_555 1_555
C10_3 C11_3 1_555 1_555
C1_3 O12 1_555 1_555
O14 C1_3 1_555 1_555
O12_2 Tb5 1_555 1_555
O14_2 Tb5 1_555 1_555
C1_4 O12_2 1_555 1_555
C3_4 C2_4 1_555 1_555
C4_4 C3_4 1_555 1_555
H2_4 C4_4 1_555 1_555
C6_4 C3_4 1_555 1_555
O6_4 C6_4 1_555 1_555
O14_2 C1_4 1_555 1_555
O15_2 C6_4 1_555 1_555
C11_4 C1_4 1_555 1_555
C4_4 C11_4 1_555 1_555
C10_4 C11_4 1_555 1_555
O9_2 C5_4 1_555 1_555
O10_2 C9_4 1_555 1_555
N1_4 N2_4 1_555 1_555
C5_4 O13_2 1_555 1_555
O11_2 C9_4 1_555 1_555
N2_4 C8_4 1_555 1_555
C8_4 C5_4 1_555 1_555
C9_4 C12_4 1_555 1_555
C12_4 N1_4 1_555 1_555
C13_4 C8_4 1_555 1_555
H4_4 C13_4 1_555 1_555
C14_4 C7_4 1_555 1_555
H5_4 C14_4 1_555 1_555
H6_4 C14_4 1_555 1_555
N2_4 C14_4 1_555 1_555
C12_4 C13_4 1_555 1_555

#END
