
###############################################################################
#
# This file contains modified crystal structure data generated from the
# MOF subset of the Cambridge Structural Database (CSD) v543 
# hosted by the Cambridge Crystallographic Data Centre (CCDC).
#
# This work is licensed under the Creative Commons
# Attribution-NonCommercial-ShareAlike 4.0 International License.
# To view a copy of this license, visit
# http://creativecommons.org/licenses/by-nc-sa/4.0/
# or send a letter to
# Creative Commons, PO Box 1866, Mountain View, CA 94042, USA.
#
# CIF created using the CSD Python API on 29 September 2022
# The structure has been converted into the P1 space group
# The structure has a 3D framework
# The original CSD entry HOCZIL is in the tetragonal crystal system
# The original CSD entry HOCZIL is in a Sohncke space group
# The framework has been calculated to contain at least 10.0% void space
# The void calculation uses a probe of radius 1.32A, grid spacing 0.4
#
###############################################################################

data_HOCZIL
_chemical_formula_moiety         '(C93 H101 Co4 N21 O32)n'
_symmetry_cell_setting           triclinic
_symmetry_space_group_name_H-M   'P 1'
_symmetry_Int_Tables_number      1
_space_group_name_Hall           'P 1'
loop_
_symmetry_equiv_pos_site_id
_symmetry_equiv_pos_as_xyz
1 x,y,z
_cell_length_a                   8.0457(2)
_cell_length_b                   8.0457(2)
_cell_length_c                   48.965(2)
_cell_angle_alpha                90
_cell_angle_beta                 90
_cell_angle_gamma                90
_cell_volume                     3169.67
loop_
_atom_site_label
_atom_site_type_symbol
_atom_site_fract_x
_atom_site_fract_y
_atom_site_fract_z
Co1 Co 0.46641(3) 0.46641(3) 0.1250
O1 O 0.6085(2) 0.3234(2) 0.09914(3)
O2 O 0.4426(2) 0.2980(2) 0.06254(4)
O4 O 0.5778(2) 0.3454(2) 0.15935(4)
H1 H 0.651(4) 0.393(4) 0.1673(6)
H2 H 0.501(4) 0.351(5) 0.1706(6)
N1 N 0.6367(3) 0.0375(3) 0.04288(4)
H3 H 0.6435 0.0729 0.0263
N3 N 0.2780(2) 0.2780(2) 0.1250
C1 C 0.5697(3) 0.2629(3) 0.07605(5)
C2 C 0.6983(3) 0.1406(3) 0.06495(5)
H4 H 0.7311 0.0669 0.0800
C3 C 0.8525(4) 0.2364(4) 0.05586(6)
H5 H 0.8918 0.3040 0.0707
H6 H 0.9378 0.1594 0.0506
H7 H 0.8249 0.3061 0.0406
C8 C 0.3158(3) 0.1180(3) 0.12245(6)
H10 H 0.4272 0.0897 0.1205
C10 C 0.0327(3) 0.0327(3) 0.1250
C20 C 0.1180(3) 0.3158(3) 0.12755(6)
H20 H 0.0897 0.4272 0.1295
O8 O 0.3454(2) 0.5778(2) 0.09065(4)
H24 H 0.393(4) 0.651(4) 0.0827(6)
H25 H 0.351(5) 0.501(4) 0.0794(6)
O9 O 0.3234(2) 0.6085(2) 0.15086(3)
N6 N 0.6555(2) 0.6555(2) 0.1250
O5 O 0.3915(2) 0.3234(2) 0.90086(3)
O6 O 0.5574(2) 0.2980(2) 0.93746(4)
N5 N 0.3633(3) 0.0375(3) 0.95712(4)
H14 H 0.3565 0.0729 0.9737
C14 C 0.4303(3) 0.2629(3) 0.92395(5)
C15 C 0.3017(3) 0.1406(3) 0.93505(5)
H15 H 0.2689 0.0669 0.9200
C16 C 0.1475(4) 0.2364(4) 0.94414(6)
H16 H 0.1082 0.3040 0.9293
H17 H 0.0622 0.1594 0.9494
H18 H 0.1751 0.3061 0.9594
Co3 Co 0.53359(3) 0.46641(3) 0.8750
C11 C 0.9018(2) 0.9018(2) 0.1250
C12 C 0.9252(3) 0.7516(3) 0.11174(5)
C13 C 0.7993(3) 0.6337(3) 0.11192(5)
H13 H 0.8160 0.5348 0.1025
C22 C 0.7516(3) 0.9252(3) 0.13826(5)
C23 C 0.6337(3) 0.7993(3) 0.13808(5)
H23 H 0.5348 0.8160 0.1475
C11_2 C 0.0982(2) 0.9018(2) 0.8750
C12_2 C 0.2484(3) 0.9252(3) 0.86174(5)
N4 N 0.3445(2) 0.6555(2) 0.8750
C13_2 C 0.3663(3) 0.7993(3) 0.86192(5)
H13_2 H 0.4652 0.8160 0.8525
C22_2 C 0.0748(3) 0.7516(3) 0.88826(5)
C23_2 C 0.2007(3) 0.6337(3) 0.88808(5)
H23_2 H 0.1840 0.5348 0.8975
O1_2 O 0.6766(2) 0.6085(2) 0.84914(3)
O2_2 O 0.7020(2) 0.4426(2) 0.81254(4)
O4_2 O 0.6546(2) 0.5778(2) 0.90935(4)
H1_2 H 0.607(4) 0.651(4) 0.9173(6)
H2_2 H 0.649(5) 0.501(4) 0.9206(6)
N1_2 N 0.9625(3) 0.6367(3) 0.79288(4)
H3_2 H 0.9271 0.6435 0.7763
N3_2 N 0.7220(2) 0.2780(2) 0.8750
C1_2 C 0.7371(3) 0.5697(3) 0.82605(5)
C2_2 C 0.8594(3) 0.6983(3) 0.81495(5)
H4_2 H 0.9331 0.7311 0.8300
C3_2 C 0.7636(4) 0.8525(4) 0.80586(6)
H5_2 H 0.6960 0.8918 0.8207
H6_2 H 0.8406 0.9378 0.8006
H7_2 H 0.6939 0.8249 0.7906
C8_2 C 0.8820(3) 0.3158(3) 0.87245(6)
H10_2 H 0.9103 0.4272 0.8705
C10_2 C 0.9673(3) 0.0327(3) 0.8750
O5_2 O 0.6766(2) 0.3915(2) 0.65086(3)
O6_2 O 0.7020(2) 0.5574(2) 0.68746(4)
N5_2 N 0.9625(3) 0.3633(3) 0.70712(4)
H14_2 H 0.9271 0.3565 0.7237
C14_2 C 0.7371(3) 0.4303(3) 0.67395(5)
C15_2 C 0.8594(3) 0.3017(3) 0.68505(5)
H15_2 H 0.9331 0.2689 0.6700
C16_2 C 0.7636(4) 0.1475(4) 0.69414(6)
H16_2 H 0.6960 0.1082 0.6793
H17_2 H 0.8406 0.0622 0.6994
H18_2 H 0.6939 0.1751 0.7094
C20_2 C 0.6842(3) 0.1180(3) 0.87755(6)
H20_2 H 0.5728 0.0897 0.8795
O8_2 O 0.4222(2) 0.3454(2) 0.84065(4)
H24_2 H 0.349(4) 0.393(4) 0.8327(6)
H25_2 H 0.499(4) 0.351(5) 0.8294(6)
Co3_2 Co 0.53359(3) 0.53359(3) 0.6250
C11_3 C 0.0982(2) 0.0982(2) 0.6250
C12_3 C 0.0748(3) 0.2484(3) 0.61174(5)
N4_2 N 0.3445(2) 0.3445(2) 0.6250
C13_3 C 0.2007(3) 0.3663(3) 0.61192(5)
H13_3 H 0.1840 0.4652 0.6025
C22_3 C 0.2484(3) 0.0748(3) 0.63826(5)
C23_3 C 0.3663(3) 0.2007(3) 0.63808(5)
H23_3 H 0.4652 0.1840 0.6475
O1_3 O 0.3915(2) 0.6766(2) 0.59914(3)
O2_3 O 0.5574(2) 0.7020(2) 0.56254(4)
O4_3 O 0.4222(2) 0.6546(2) 0.65935(4)
H1_3 H 0.349(4) 0.607(4) 0.6673(6)
H2_3 H 0.499(4) 0.649(5) 0.6706(6)
N1_3 N 0.3633(3) 0.9625(3) 0.54288(4)
H3_3 H 0.3565 0.9271 0.5263
N3_3 N 0.7220(2) 0.7220(2) 0.6250
C1_3 C 0.4303(3) 0.7371(3) 0.57605(5)
C2_3 C 0.3017(3) 0.8594(3) 0.56495(5)
H4_3 H 0.2689 0.9331 0.5800
C3_3 C 0.1475(4) 0.7636(4) 0.55586(6)
H5_3 H 0.1082 0.6960 0.5707
H6_3 H 0.0622 0.8406 0.5506
H7_3 H 0.1751 0.6939 0.5406
C8_3 C 0.6842(3) 0.8820(3) 0.62245(6)
H10_3 H 0.5728 0.9103 0.6205
C10_3 C 0.9673(3) 0.9673(3) 0.6250
O5_3 O 0.6085(2) 0.6766(2) 0.40086(3)
O6_3 O 0.4426(2) 0.7020(2) 0.43746(4)
N5_3 N 0.6367(3) 0.9625(3) 0.45712(4)
H14_3 H 0.6435 0.9271 0.4737
C14_3 C 0.5697(3) 0.7371(3) 0.42395(5)
C15_3 C 0.6983(3) 0.8594(3) 0.43505(5)
H15_3 H 0.7311 0.9331 0.4200
C16_3 C 0.8525(4) 0.7636(4) 0.44414(6)
H16_3 H 0.8918 0.6960 0.4293
H17_3 H 0.9378 0.8406 0.4494
H18_3 H 0.8249 0.6939 0.4594
C20_3 C 0.8820(3) 0.6842(3) 0.62755(6)
H20_3 H 0.9103 0.5728 0.6295
O8_3 O 0.6546(2) 0.4222(2) 0.59065(4)
H24_3 H 0.607(4) 0.349(4) 0.5827(6)
H25_3 H 0.649(5) 0.499(4) 0.5794(6)
Co3_3 Co 0.46641(3) 0.53359(3) 0.3750
O1_4 O 0.3234(2) 0.3915(2) 0.34914(3)
O2_4 O 0.2980(2) 0.5574(2) 0.31254(4)
O4_4 O 0.3454(2) 0.4222(2) 0.40935(4)
H1_4 H 0.393(4) 0.349(4) 0.4173(6)
H2_4 H 0.351(5) 0.499(4) 0.4206(6)
N1_4 N 0.0375(3) 0.3633(3) 0.29288(4)
H3_4 H 0.0729 0.3565 0.2763
N3_4 N 0.2780(2) 0.7220(2) 0.3750
C1_4 C 0.2629(3) 0.4303(3) 0.32605(5)
C2_4 C 0.1406(3) 0.3017(3) 0.31495(5)
H4_4 H 0.0669 0.2689 0.3300
C3_4 C 0.2364(4) 0.1475(4) 0.30586(6)
H5_4 H 0.3040 0.1082 0.3207
H6_4 H 0.1594 0.0622 0.3006
H7_4 H 0.3061 0.1751 0.2906
C8_4 C 0.1180(3) 0.6842(3) 0.37245(6)
H10_4 H 0.0897 0.5728 0.3705
C10_4 C 0.0327(3) 0.9673(3) 0.3750
O6_4 O 0.2980(2) 0.4426(2) 0.18746(4)
N5_4 N 0.0375(3) 0.6367(3) 0.20712(4)
H14_4 H 0.0729 0.6435 0.2237
C14_4 C 0.2629(3) 0.5697(3) 0.17395(5)
C15_4 C 0.1406(3) 0.6983(3) 0.18505(5)
H15_4 H 0.0669 0.7311 0.1700
C16_4 C 0.2364(4) 0.8525(4) 0.19414(6)
H16_4 H 0.3040 0.8918 0.1793
H17_4 H 0.1594 0.9378 0.1994
H18_4 H 0.3061 0.8249 0.2094
C20_4 C 0.3158(3) 0.8820(3) 0.37755(6)
H20_4 H 0.4272 0.9103 0.3795
O8_4 O 0.5778(2) 0.6546(2) 0.34065(4)
H24_4 H 0.651(4) 0.607(4) 0.3327(6)
H25_4 H 0.501(4) 0.649(5) 0.3294(6)
N6_2 N 0.6555(2) 0.3445(2) 0.3750
C11_4 C 0.9018(2) 0.0982(2) 0.3750
C12_4 C 0.7516(3) 0.0748(3) 0.36174(5)
C13_4 C 0.6337(3) 0.2007(3) 0.36192(5)
H13_4 H 0.5348 0.1840 0.3525
C22_4 C 0.9252(3) 0.2484(3) 0.38826(5)
C23_4 C 0.7993(3) 0.3663(3) 0.38808(5)
H23_4 H 0.8160 0.4652 0.3975
O3 O 0.5462(3) 0.8324(2) 0.07098(4)
N2 N 0.5000 0.8773(3) 0.0000
C4 C 0.5704(3) 0.8899(3) 0.04768(5)
C5 C 0.5309(3) 0.7897(3) 0.02271(5)
C6 C 0.5313(4) 0.6176(3) 0.02363(5)
H8 H 0.5523 0.5621 0.0399
C7 C 0.5000 0.5302(5) 0.0000
H9 H 0.5000 0.4146 0.0000
C9 C 0.2003(3) 0.9912(3) 0.12249(5)
H11 H 0.2334 0.8808 0.1209
H12 H 0.0247 0.7299 0.1028
N2_2 N 0.5000 0.8773(3) 1.0000
C7_2 C 0.5000 0.5302(5) 1.0000
H9_2 H 0.5000 0.4146 1.0000
O7 O 0.4538(3) 0.8324(2) 0.92902(4)
C17 C 0.4296(3) 0.8899(3) 0.95232(5)
C18 C 0.4691(3) 0.7897(3) 0.97729(5)
C19 C 0.4687(4) 0.6176(3) 0.97637(5)
H19 H 0.4477 0.5621 0.9601
C21 C 0.7997(3) 0.9912(3) 0.87751(5)
H21 H 0.7666 0.8808 0.8791
H22 H 0.9753 0.7299 0.8972
C21_2 C 0.9912(3) 0.2003(3) 0.12751(5)
H21_2 H 0.8808 0.2334 0.1291
H22_2 H 0.7299 0.0247 0.1472
O3_2 O 0.8324(2) 0.4538(3) 0.32098(4)
N2_3 N 0.8773(3) 0.5000 0.2500
C4_2 C 0.8899(3) 0.4296(3) 0.29768(5)
C5_2 C 0.7897(3) 0.4691(3) 0.27271(5)
C6_2 C 0.6176(3) 0.4687(4) 0.27363(5)
H8_2 H 0.5621 0.4477 0.2899
C7_3 C 0.5302(5) 0.5000 0.2500
H9_3 H 0.4146 0.5000 0.2500
C9_2 C 0.9912(3) 0.7997(3) 0.37249(5)
H11_2 H 0.8808 0.7666 0.3709
H12_2 H 0.7299 0.9753 0.3528
O7_2 O 0.8324(2) 0.5462(3) 0.17902(4)
C17_2 C 0.8899(3) 0.5704(3) 0.20232(5)
C18_2 C 0.7897(3) 0.5309(3) 0.22729(5)
C19_2 C 0.6176(3) 0.5313(4) 0.22637(5)
H19_2 H 0.5621 0.5523 0.2101
O3_3 O 0.1676(2) 0.5462(3) 0.82098(4)
N2_4 N 0.1227(3) 0.5000 0.7500
C4_3 C 0.1101(3) 0.5704(3) 0.79768(5)
C5_3 C 0.2103(3) 0.5309(3) 0.77271(5)
C6_3 C 0.3824(3) 0.5313(4) 0.77363(5)
H8_3 H 0.4379 0.5523 0.7899
C7_4 C 0.4698(5) 0.5000 0.7500
H9_4 H 0.5854 0.5000 0.7500
C9_3 C 0.0088(3) 0.2003(3) 0.87249(5)
H11_3 H 0.1192 0.2334 0.8709
H12_3 H 0.2701 0.0247 0.8528
O7_3 O 0.1676(2) 0.4538(3) 0.67902(4)
C17_3 C 0.1101(3) 0.4296(3) 0.70232(5)
C18_3 C 0.2103(3) 0.4691(3) 0.72729(5)
C19_3 C 0.3824(3) 0.4687(4) 0.72637(5)
H19_3 H 0.4379 0.4477 0.7101
C21_3 C 0.0088(3) 0.7997(3) 0.62751(5)
H21_3 H 0.1192 0.7666 0.6291
H22_3 H 0.2701 0.9753 0.6472
O3_4 O 0.4538(3) 0.1676(2) 0.57098(4)
N2_5 N 0.5000 0.1227(3) 0.5000
C4_4 C 0.4296(3) 0.1101(3) 0.54768(5)
C5_4 C 0.4691(3) 0.2103(3) 0.52271(5)
C6_4 C 0.4687(4) 0.3824(3) 0.52363(5)
H8_4 H 0.4477 0.4379 0.5399
C7_5 C 0.5000 0.4698(5) 0.5000
H9_5 H 0.5000 0.5854 0.5000
C9_4 C 0.7997(3) 0.0088(3) 0.62249(5)
H11_4 H 0.7666 0.1192 0.6209
H12_4 H 0.9753 0.2701 0.6028
O7_4 O 0.5462(3) 0.1676(2) 0.42902(4)
C17_4 C 0.5704(3) 0.1101(3) 0.45232(5)
C18_4 C 0.5309(3) 0.2103(3) 0.47729(5)
C19_4 C 0.5313(4) 0.3824(3) 0.47637(5)
H19_4 H 0.5523 0.4379 0.4601
C21_4 C 0.2003(3) 0.0088(3) 0.37751(5)
H21_4 H 0.2334 0.1192 0.3791
H22_4 H 0.0247 0.2701 0.3972
loop_
_geom_bond_atom_site_label_1
_geom_bond_atom_site_label_2
_geom_bond_site_symmetry_1
_geom_bond_site_symmetry_2
Co1 O1 1_555 1_555
O1 C1 1_555 1_555
O2 C1 1_555 1_555
O4 Co1 1_555 1_555
H1 O4 1_555 1_555
H2 O4 1_555 1_555
N1 H3 1_555 1_555
N3 Co1 1_555 1_555
C1 C2 1_555 1_555
C2 N1 1_555 1_555
H4 C2 1_555 1_555
C3 C2 1_555 1_555
H5 C3 1_555 1_555
H6 C3 1_555 1_555
H7 C3 1_555 1_555
C8 N3 1_555 1_555
H10 C8 1_555 1_555
C20 N3 1_555 1_555
H20 C20 1_555 1_555
O8 Co1 1_555 1_555
H24 O8 1_555 1_555
H25 O8 1_555 1_555
O9 Co1 1_555 1_555
N6 Co1 1_555 1_555
O5 C14 1_555 1_555
O6 C14 1_555 1_555
N5 H14 1_555 1_555
C14 C15 1_555 1_555
C15 N5 1_555 1_555
H15 C15 1_555 1_555
C16 C15 1_555 1_555
H16 C16 1_555 1_555
H17 C16 1_555 1_555
H18 C16 1_555 1_555
Co3 O5 1_555 1_555
C12 C11 1_555 1_555
N6 C13 1_555 1_555
C13 C12 1_555 1_555
H13 C13 1_555 1_555
C22 C11 1_555 1_555
C23 N6 1_555 1_555
H23 C23 1_555 1_555
C22 C23 1_555 1_555
C12_2 C11_2 1_555 1_555
N4 C13_2 1_555 1_555
C13_2 C12_2 1_555 1_555
H13_2 C13_2 1_555 1_555
C22_2 C11_2 1_555 1_555
C23_2 N4 1_555 1_555
H23_2 C23_2 1_555 1_555
Co3 N4 1_555 1_555
C22_2 C23_2 1_555 1_555
Co3 O1_2 1_555 1_555
O1_2 C1_2 1_555 1_555
O2_2 C1_2 1_555 1_555
O4_2 Co3 1_555 1_555
H1_2 O4_2 1_555 1_555
H2_2 O4_2 1_555 1_555
N1_2 H3_2 1_555 1_555
N3_2 Co3 1_555 1_555
C1_2 C2_2 1_555 1_555
C2_2 N1_2 1_555 1_555
H4_2 C2_2 1_555 1_555
C3_2 C2_2 1_555 1_555
H5_2 C3_2 1_555 1_555
H6_2 C3_2 1_555 1_555
H7_2 C3_2 1_555 1_555
C8_2 N3_2 1_555 1_555
H10_2 C8_2 1_555 1_555
O5_2 C14_2 1_555 1_555
O6_2 C14_2 1_555 1_555
N5_2 H14_2 1_555 1_555
C14_2 C15_2 1_555 1_555
C15_2 N5_2 1_555 1_555
H15_2 C15_2 1_555 1_555
C16_2 C15_2 1_555 1_555
H16_2 C16_2 1_555 1_555
H17_2 C16_2 1_555 1_555
H18_2 C16_2 1_555 1_555
C20_2 N3_2 1_555 1_555
H20_2 C20_2 1_555 1_555
O8_2 Co3 1_555 1_555
H24_2 O8_2 1_555 1_555
H25_2 O8_2 1_555 1_555
Co3_2 O5_2 1_555 1_555
C12_3 C11_3 1_555 1_555
N4_2 C13_3 1_555 1_555
C13_3 C12_3 1_555 1_555
H13_3 C13_3 1_555 1_555
C22_3 C11_3 1_555 1_555
C23_3 N4_2 1_555 1_555
H23_3 C23_3 1_555 1_555
Co3_2 N4_2 1_555 1_555
C22_3 C23_3 1_555 1_555
Co3_2 O1_3 1_555 1_555
O1_3 C1_3 1_555 1_555
O2_3 C1_3 1_555 1_555
O4_3 Co3_2 1_555 1_555
H1_3 O4_3 1_555 1_555
H2_3 O4_3 1_555 1_555
N1_3 H3_3 1_555 1_555
N3_3 Co3_2 1_555 1_555
C1_3 C2_3 1_555 1_555
C2_3 N1_3 1_555 1_555
H4_3 C2_3 1_555 1_555
C3_3 C2_3 1_555 1_555
H5_3 C3_3 1_555 1_555
H6_3 C3_3 1_555 1_555
H7_3 C3_3 1_555 1_555
C8_3 N3_3 1_555 1_555
H10_3 C8_3 1_555 1_555
O5_3 C14_3 1_555 1_555
O6_3 C14_3 1_555 1_555
N5_3 H14_3 1_555 1_555
C14_3 C15_3 1_555 1_555
C15_3 N5_3 1_555 1_555
H15_3 C15_3 1_555 1_555
C16_3 C15_3 1_555 1_555
H16_3 C16_3 1_555 1_555
H17_3 C16_3 1_555 1_555
H18_3 C16_3 1_555 1_555
C20_3 N3_3 1_555 1_555
H20_3 C20_3 1_555 1_555
O8_3 Co3_2 1_555 1_555
H24_3 O8_3 1_555 1_555
H25_3 O8_3 1_555 1_555
Co3_3 O5_3 1_555 1_555
Co3_3 O1_4 1_555 1_555
O1_4 C1_4 1_555 1_555
O2_4 C1_4 1_555 1_555
O4_4 Co3_3 1_555 1_555
H1_4 O4_4 1_555 1_555
H2_4 O4_4 1_555 1_555
N1_4 H3_4 1_555 1_555
N3_4 Co3_3 1_555 1_555
C1_4 C2_4 1_555 1_555
C2_4 N1_4 1_555 1_555
H4_4 C2_4 1_555 1_555
C3_4 C2_4 1_555 1_555
H5_4 C3_4 1_555 1_555
H6_4 C3_4 1_555 1_555
H7_4 C3_4 1_555 1_555
C8_4 N3_4 1_555 1_555
H10_4 C8_4 1_555 1_555
O9 C14_4 1_555 1_555
O6_4 C14_4 1_555 1_555
N5_4 H14_4 1_555 1_555
C14_4 C15_4 1_555 1_555
C15_4 N5_4 1_555 1_555
H15_4 C15_4 1_555 1_555
C16_4 C15_4 1_555 1_555
H16_4 C16_4 1_555 1_555
H17_4 C16_4 1_555 1_555
H18_4 C16_4 1_555 1_555
C20_4 N3_4 1_555 1_555
H20_4 C20_4 1_555 1_555
O8_4 Co3_3 1_555 1_555
H24_4 O8_4 1_555 1_555
H25_4 O8_4 1_555 1_555
N6_2 Co3_3 1_555 1_555
C12_4 C11_4 1_555 1_555
N6_2 C13_4 1_555 1_555
C13_4 C12_4 1_555 1_555
H13_4 C13_4 1_555 1_555
C22_4 C11_4 1_555 1_555
C23_4 N6_2 1_555 1_555
H23_4 C23_4 1_555 1_555
C22_4 C23_4 1_555 1_555
O3 C4 1_555 1_555
N2 C5 1_555 1_555
C5 C4 1_555 1_555
C6 C5 1_555 1_555
H8 C6 1_555 1_555
C7 C6 1_555 1_555
H9 C7 1_555 1_555
H11 C9 1_555 1_555
H9_2 C7_2 1_555 1_555
O7 C17 1_555 1_555
C18 N2_2 1_555 1_555
C19 C7_2 1_555 1_555
H19 C19 1_555 1_555
C17 C18 1_555 1_555
C18 C19 1_555 1_555
H21 C21 1_555 1_555
H21_2 C21_2 1_555 1_555
O3_2 C4_2 1_555 1_555
N2_3 C5_2 1_555 1_555
C5_2 C4_2 1_555 1_555
C6_2 C5_2 1_555 1_555
H8_2 C6_2 1_555 1_555
C7_3 C6_2 1_555 1_555
H9_3 C7_3 1_555 1_555
H11_2 C9_2 1_555 1_555
O7_2 C17_2 1_555 1_555
C18_2 N2_3 1_555 1_555
C19_2 C7_3 1_555 1_555
H19_2 C19_2 1_555 1_555
C17_2 C18_2 1_555 1_555
C18_2 C19_2 1_555 1_555
O3_3 C4_3 1_555 1_555
N2_4 C5_3 1_555 1_555
C5_3 C4_3 1_555 1_555
C6_3 C5_3 1_555 1_555
H8_3 C6_3 1_555 1_555
C7_4 C6_3 1_555 1_555
H9_4 C7_4 1_555 1_555
H11_3 C9_3 1_555 1_555
O7_3 C17_3 1_555 1_555
C18_3 N2_4 1_555 1_555
C19_3 C7_4 1_555 1_555
H19_3 C19_3 1_555 1_555
C17_3 C18_3 1_555 1_555
C18_3 C19_3 1_555 1_555
H21_3 C21_3 1_555 1_555
O3_4 C4_4 1_555 1_555
N2_5 C5_4 1_555 1_555
C5_4 C4_4 1_555 1_555
C6_4 C5_4 1_555 1_555
H8_4 C6_4 1_555 1_555
C7_5 C6_4 1_555 1_555
H9_5 C7_5 1_555 1_555
H11_4 C9_4 1_555 1_555
O7_4 C17_4 1_555 1_555
C18_4 N2_5 1_555 1_555
C19_4 C7_5 1_555 1_555
H19_4 C19_4 1_555 1_555
C17_4 C18_4 1_555 1_555
C18_4 C19_4 1_555 1_555
H21_4 C21_4 1_555 1_555

#END
