
###############################################################################
#
# This file contains modified crystal structure data generated from the
# MOF subset of the Cambridge Structural Database (CSD) v543 
# hosted by the Cambridge Crystallographic Data Centre (CCDC).
#
# This work is licensed under the Creative Commons
# Attribution-NonCommercial-ShareAlike 4.0 International License.
# To view a copy of this license, visit
# http://creativecommons.org/licenses/by-nc-sa/4.0/
# or send a letter to
# Creative Commons, PO Box 1866, Mountain View, CA 94042, USA.
#
# CIF created using the CSD Python API on 29 September 2022
# The structure has been converted into the P1 space group
# The structure has a 3D framework
# The original CSD entry HOCZOR is in the tetragonal crystal system
# The original CSD entry HOCZOR is in a Sohncke space group
# The framework has been calculated to contain at least 10.0% void space
# The void calculation uses a probe of radius 1.32A, grid spacing 0.4
#
###############################################################################

data_HOCZOR
_chemical_formula_moiety         '(C93 H101 Cu4 N21 O32)n'
_symmetry_cell_setting           triclinic
_symmetry_space_group_name_H-M   'P 1'
_symmetry_Int_Tables_number      1
_space_group_name_Hall           'P 1'
loop_
_symmetry_equiv_pos_site_id
_symmetry_equiv_pos_as_xyz
1 x,y,z
_cell_length_a                   7.9358(4)
_cell_length_b                   7.9358(4)
_cell_length_c                   49.349(4)
_cell_angle_alpha                90
_cell_angle_beta                 90
_cell_angle_gamma                90
_cell_volume                     3107.85
loop_
_atom_site_label
_atom_site_type_symbol
_atom_site_fract_x
_atom_site_fract_y
_atom_site_fract_z
Cu1 Cu 0.44086(4) 0.44086(4) 0.1250
O1 O 0.5793(3) 0.3070(3) 0.10030(4)
O2 O 0.4180(3) 0.2841(3) 0.06335(4)
O4 O 0.2873(4) 0.5805(4) 0.08644(5)
H1 H 0.296(7) 0.496(4) 0.0758(9)
H2 H 0.352(6) 0.651(5) 0.0782(9)
N1 N 0.6274(4) 0.0331(3) 0.04328(5)
H3 H 0.6395 0.0681 0.0269
N3 N 0.2587(3) 0.2587(3) 0.1250
C1 C 0.5445(4) 0.2515(3) 0.07675(5)
C2 C 0.6845(4) 0.1377(4) 0.06550(6)
H4 H 0.7228 0.0636 0.0801
C3 C 0.8333(5) 0.2445(6) 0.05640(8)
H5 H 0.8707 0.3136 0.0712
H6 H 0.9236 0.1723 0.0507
H7 H 0.7995 0.3151 0.0416
C8 C 0.2966(3) 0.0953(3) 0.12177(6)
H10 H 0.4092 0.0660 0.1195
C10 C 0.0096(3) 0.0096(3) 0.1250
C20 C 0.0953(3) 0.2966(3) 0.12823(6)
H20 H 0.0660 0.4092 0.1305
O8 O 0.5805(4) 0.2873(4) 0.16356(5)
H24 H 0.496(4) 0.296(7) 0.1742(9)
H25 H 0.651(5) 0.352(6) 0.1718(9)
O9 O 0.3070(3) 0.5793(3) 0.14970(4)
N6 N 0.6261(2) 0.6261(2) 0.1250
O5 O 0.4207(3) 0.3070(3) 0.89970(4)
O6 O 0.5820(3) 0.2841(3) 0.93665(4)
N5 N 0.3726(4) 0.0331(3) 0.95672(5)
H14 H 0.3605 0.0681 0.9731
C14 C 0.4555(4) 0.2515(3) 0.92325(5)
C15 C 0.3155(4) 0.1377(4) 0.93450(6)
H15 H 0.2772 0.0636 0.9199
C16 C 0.1667(5) 0.2445(6) 0.94360(8)
H16 H 0.1293 0.3136 0.9288
H17 H 0.0764 0.1723 0.9493
H18 H 0.2005 0.3151 0.9584
Cu3 Cu 0.55914(4) 0.44086(4) 0.8750
C11 C 0.8771(3) 0.8771(3) 0.1250
C12 C 0.8983(4) 0.7259(4) 0.11128(7)
H12 H 0.9972 0.7050 0.1018
C13 C 0.7710(4) 0.6061(4) 0.11188(7)
H13 H 0.7881 0.5058 0.1025
C22 C 0.7259(4) 0.8983(4) 0.13872(7)
H22 H 0.7050 0.9972 0.1482
C23 C 0.6061(4) 0.7710(4) 0.13812(7)
H23 H 0.5058 0.7881 0.1475
C11_2 C 0.1229(3) 0.8771(3) 0.8750
C12_2 C 0.2741(4) 0.8983(4) 0.86128(7)
H12_2 H 0.2950 0.9972 0.8518
N4 N 0.3739(2) 0.6261(2) 0.8750
C13_2 C 0.3939(4) 0.7710(4) 0.86188(7)
H13_2 H 0.4942 0.7881 0.8525
C22_2 C 0.1017(4) 0.7259(4) 0.88872(7)
H22_2 H 0.0028 0.7050 0.8982
C23_2 C 0.2290(4) 0.6061(4) 0.88812(7)
H23_2 H 0.2119 0.5058 0.8975
O1_2 O 0.6930(3) 0.5793(3) 0.85030(4)
O2_2 O 0.7159(3) 0.4180(3) 0.81335(4)
O4_2 O 0.4195(4) 0.2873(4) 0.83644(5)
H1_2 H 0.504(4) 0.296(7) 0.8258(9)
H2_2 H 0.349(5) 0.352(6) 0.8282(9)
N1_2 N 0.9669(3) 0.6274(4) 0.79328(5)
H3_2 H 0.9319 0.6395 0.7769
N3_2 N 0.7413(3) 0.2587(3) 0.8750
C1_2 C 0.7485(3) 0.5445(4) 0.82675(5)
C2_2 C 0.8623(4) 0.6845(4) 0.81550(6)
H4_2 H 0.9364 0.7228 0.8301
C3_2 C 0.7555(6) 0.8333(5) 0.80640(8)
H5_2 H 0.6864 0.8707 0.8212
H6_2 H 0.8277 0.9236 0.8007
H7_2 H 0.6849 0.7995 0.7916
C8_2 C 0.9047(3) 0.2966(3) 0.87177(6)
H10_2 H 0.9340 0.4092 0.8695
C10_2 C 0.9904(3) 0.0096(3) 0.8750
O5_2 O 0.6930(3) 0.4207(3) 0.64970(4)
O6_2 O 0.7159(3) 0.5820(3) 0.68665(4)
N5_2 N 0.9669(3) 0.3726(4) 0.70672(5)
H14_2 H 0.9319 0.3605 0.7231
C14_2 C 0.7485(3) 0.4555(4) 0.67325(5)
C15_2 C 0.8623(4) 0.3155(4) 0.68450(6)
H15_2 H 0.9364 0.2772 0.6699
C16_2 C 0.7555(6) 0.1667(5) 0.69360(8)
H16_2 H 0.6864 0.1293 0.6788
H17_2 H 0.8277 0.0764 0.6993
H18_2 H 0.6849 0.2005 0.7084
C20_2 C 0.7034(3) 0.0953(3) 0.87823(6)
H20_2 H 0.5908 0.0660 0.8805
O8_2 O 0.7127(4) 0.5805(4) 0.91356(5)
H24_2 H 0.704(7) 0.496(4) 0.9242(9)
H25_2 H 0.648(6) 0.651(5) 0.9218(9)
Cu3_2 Cu 0.55914(4) 0.55914(4) 0.6250
C11_3 C 0.1229(3) 0.1229(3) 0.6250
C12_3 C 0.1017(4) 0.2741(4) 0.61128(7)
H12_3 H 0.0028 0.2950 0.6018
N4_2 N 0.3739(2) 0.3739(2) 0.6250
C13_3 C 0.2290(4) 0.3939(4) 0.61188(7)
H13_3 H 0.2119 0.4942 0.6025
C22_3 C 0.2741(4) 0.1017(4) 0.63872(7)
H22_3 H 0.2950 0.0028 0.6482
C23_3 C 0.3939(4) 0.2290(4) 0.63812(7)
H23_3 H 0.4942 0.2119 0.6475
O1_3 O 0.4207(3) 0.6930(3) 0.60030(4)
O2_3 O 0.5820(3) 0.7159(3) 0.56335(4)
O4_3 O 0.7127(4) 0.4195(4) 0.58644(5)
H1_3 H 0.704(7) 0.504(4) 0.5758(9)
H2_3 H 0.648(6) 0.349(5) 0.5782(9)
N1_3 N 0.3726(4) 0.9669(3) 0.54328(5)
H3_3 H 0.3605 0.9319 0.5269
N3_3 N 0.7413(3) 0.7413(3) 0.6250
C1_3 C 0.4555(4) 0.7485(3) 0.57675(5)
C2_3 C 0.3155(4) 0.8623(4) 0.56550(6)
H4_3 H 0.2772 0.9364 0.5801
C3_3 C 0.1667(5) 0.7555(6) 0.55640(8)
H5_3 H 0.1293 0.6864 0.5712
H6_3 H 0.0764 0.8277 0.5507
H7_3 H 0.2005 0.6849 0.5416
C8_3 C 0.7034(3) 0.9047(3) 0.62177(6)
H10_3 H 0.5908 0.9340 0.6195
C10_3 C 0.9904(3) 0.9904(3) 0.6250
O5_3 O 0.5793(3) 0.6930(3) 0.39970(4)
O6_3 O 0.4180(3) 0.7159(3) 0.43665(4)
N5_3 N 0.6274(4) 0.9669(3) 0.45672(5)
H14_3 H 0.6395 0.9319 0.4731
C14_3 C 0.5445(4) 0.7485(3) 0.42325(5)
C15_3 C 0.6845(4) 0.8623(4) 0.43450(6)
H15_3 H 0.7228 0.9364 0.4199
C16_3 C 0.8333(5) 0.7555(6) 0.44360(8)
H16_3 H 0.8707 0.6864 0.4288
H17_3 H 0.9236 0.8277 0.4493
H18_3 H 0.7995 0.6849 0.4584
C20_3 C 0.9047(3) 0.7034(3) 0.62823(6)
H20_3 H 0.9340 0.5908 0.6305
O8_3 O 0.4195(4) 0.7127(4) 0.66356(5)
H24_3 H 0.504(4) 0.704(7) 0.6742(9)
H25_3 H 0.349(5) 0.648(6) 0.6718(9)
Cu3_3 Cu 0.44086(4) 0.55914(4) 0.3750
O1_4 O 0.3070(3) 0.4207(3) 0.35030(4)
O2_4 O 0.2841(3) 0.5820(3) 0.31335(4)
O4_4 O 0.5805(4) 0.7127(4) 0.33644(5)
H1_4 H 0.496(4) 0.704(7) 0.3258(9)
H2_4 H 0.651(5) 0.648(6) 0.3282(9)
N1_4 N 0.0331(3) 0.3726(4) 0.29328(5)
H3_4 H 0.0681 0.3605 0.2769
N3_4 N 0.2587(3) 0.7413(3) 0.3750
C1_4 C 0.2515(3) 0.4555(4) 0.32675(5)
C2_4 C 0.1377(4) 0.3155(4) 0.31550(6)
H4_4 H 0.0636 0.2772 0.3301
C3_4 C 0.2445(6) 0.1667(5) 0.30640(8)
H5_4 H 0.3136 0.1293 0.3212
H6_4 H 0.1723 0.0764 0.3007
H7_4 H 0.3151 0.2005 0.2916
C8_4 C 0.0953(3) 0.7034(3) 0.37177(6)
H10_4 H 0.0660 0.5908 0.3695
C10_4 C 0.0096(3) 0.9904(3) 0.3750
O6_4 O 0.2841(3) 0.4180(3) 0.18665(4)
N5_4 N 0.0331(3) 0.6274(4) 0.20672(5)
H14_4 H 0.0681 0.6395 0.2231
C14_4 C 0.2515(3) 0.5445(4) 0.17325(5)
C15_4 C 0.1377(4) 0.6845(4) 0.18450(6)
H15_4 H 0.0636 0.7228 0.1699
C16_4 C 0.2445(6) 0.8333(5) 0.19360(8)
H16_4 H 0.3136 0.8707 0.1788
H17_4 H 0.1723 0.9236 0.1993
H18_4 H 0.3151 0.7995 0.2084
C20_4 C 0.2966(3) 0.9047(3) 0.37823(6)
H20_4 H 0.4092 0.9340 0.3805
O8_4 O 0.2873(4) 0.4195(4) 0.41356(5)
H24_4 H 0.296(7) 0.504(4) 0.4242(9)
H25_4 H 0.352(6) 0.349(5) 0.4218(9)
N6_2 N 0.6261(2) 0.3739(2) 0.3750
C11_4 C 0.8771(3) 0.1229(3) 0.3750
C12_4 C 0.7259(4) 0.1017(4) 0.36128(7)
H12_4 H 0.7050 0.0028 0.3518
C13_4 C 0.6061(4) 0.2290(4) 0.36188(7)
H13_4 H 0.5058 0.2119 0.3525
C22_4 C 0.8983(4) 0.2741(4) 0.38872(7)
H22_4 H 0.9972 0.2950 0.3982
C23_4 C 0.7710(4) 0.3939(4) 0.38812(7)
H23_4 H 0.7881 0.4942 0.3975
O3 O 0.5235(4) 0.8285(4) 0.07054(5)
N2 N 0.5000 0.8696(4) 0.0000
C4 C 0.5567(5) 0.8842(4) 0.04777(6)
C5 C 0.5234(4) 0.7822(4) 0.02278(6)
C6 C 0.5229(5) 0.6074(4) 0.02376(7)
H8 H 0.5377 0.5510 0.0401
C7 C 0.5000 0.5191(6) 0.0000
H9 H 0.5000 0.4019 0.0000
C9 C 0.1784(3) 0.9685(3) 0.12155(6)
H11 H 0.2111 0.8569 0.1191
N2_2 N 0.5000 0.8696(4) 1.0000
C7_2 C 0.5000 0.5191(6) 1.0000
H9_2 H 0.5000 0.4019 1.0000
O7 O 0.4765(4) 0.8285(4) 0.92946(5)
C17 C 0.4433(5) 0.8842(4) 0.95223(6)
C18 C 0.4766(4) 0.7822(4) 0.97722(6)
C19 C 0.4771(5) 0.6074(4) 0.97624(7)
H19 H 0.4623 0.5510 0.9599
C21 C 0.8216(3) 0.9685(3) 0.87845(6)
H21 H 0.7889 0.8569 0.8809
C21_2 C 0.9685(3) 0.1784(3) 0.12845(6)
H21_2 H 0.8569 0.2111 0.1309
O3_2 O 0.8285(4) 0.4765(4) 0.32054(5)
N2_3 N 0.8696(4) 0.5000 0.2500
C4_2 C 0.8842(4) 0.4433(5) 0.29777(6)
C5_2 C 0.7822(4) 0.4766(4) 0.27278(6)
C6_2 C 0.6074(4) 0.4771(5) 0.27376(7)
H8_2 H 0.5510 0.4623 0.2901
C7_3 C 0.5191(6) 0.5000 0.2500
H9_3 H 0.4019 0.5000 0.2500
C9_2 C 0.9685(3) 0.8216(3) 0.37155(6)
H11_2 H 0.8569 0.7889 0.3691
O7_2 O 0.8285(4) 0.5235(4) 0.17946(5)
C17_2 C 0.8842(4) 0.5567(5) 0.20223(6)
C18_2 C 0.7822(4) 0.5234(4) 0.22722(6)
C19_2 C 0.6074(4) 0.5229(5) 0.22624(7)
H19_2 H 0.5510 0.5377 0.2099
O3_3 O 0.1715(4) 0.5235(4) 0.82054(5)
N2_4 N 0.1304(4) 0.5000 0.7500
C4_3 C 0.1158(4) 0.5567(5) 0.79777(6)
C5_3 C 0.2178(4) 0.5234(4) 0.77278(6)
C6_3 C 0.3926(4) 0.5229(5) 0.77376(7)
H8_3 H 0.4490 0.5377 0.7901
C7_4 C 0.4809(6) 0.5000 0.7500
H9_4 H 0.5981 0.5000 0.7500
C9_3 C 0.0315(3) 0.1784(3) 0.87155(6)
H11_3 H 0.1431 0.2111 0.8691
O7_3 O 0.1715(4) 0.4765(4) 0.67946(5)
C17_3 C 0.1158(4) 0.4433(5) 0.70223(6)
C18_3 C 0.2178(4) 0.4766(4) 0.72722(6)
C19_3 C 0.3926(4) 0.4771(5) 0.72624(7)
H19_3 H 0.4490 0.4623 0.7099
C21_3 C 0.0315(3) 0.8216(3) 0.62845(6)
H21_3 H 0.1431 0.7889 0.6309
O3_4 O 0.4765(4) 0.1715(4) 0.57054(5)
N2_5 N 0.5000 0.1304(4) 0.5000
C4_4 C 0.4433(5) 0.1158(4) 0.54777(6)
C5_4 C 0.4766(4) 0.2178(4) 0.52278(6)
C6_4 C 0.4771(5) 0.3926(4) 0.52376(7)
H8_4 H 0.4623 0.4490 0.5401
C7_5 C 0.5000 0.4809(6) 0.5000
H9_5 H 0.5000 0.5981 0.5000
C9_4 C 0.8216(3) 0.0315(3) 0.62155(6)
H11_4 H 0.7889 0.1431 0.6191
O7_4 O 0.5235(4) 0.1715(4) 0.42946(5)
C17_4 C 0.5567(5) 0.1158(4) 0.45223(6)
C18_4 C 0.5234(4) 0.2178(4) 0.47722(6)
C19_4 C 0.5229(5) 0.3926(4) 0.47624(7)
H19_4 H 0.5377 0.4490 0.4599
C21_4 C 0.1784(3) 0.0315(3) 0.37845(6)
H21_4 H 0.2111 0.1431 0.3809
loop_
_geom_bond_atom_site_label_1
_geom_bond_atom_site_label_2
_geom_bond_site_symmetry_1
_geom_bond_site_symmetry_2
Cu1 O1 1_555 1_555
O1 C1 1_555 1_555
O2 C1 1_555 1_555
O4 Cu1 1_555 1_555
H1 O4 1_555 1_555
H2 O4 1_555 1_555
N1 H3 1_555 1_555
N3 Cu1 1_555 1_555
C1 C2 1_555 1_555
C2 N1 1_555 1_555
H4 C2 1_555 1_555
C3 C2 1_555 1_555
H5 C3 1_555 1_555
H6 C3 1_555 1_555
H7 C3 1_555 1_555
C8 N3 1_555 1_555
H10 C8 1_555 1_555
C20 N3 1_555 1_555
H20 C20 1_555 1_555
O8 Cu1 1_555 1_555
H24 O8 1_555 1_555
H25 O8 1_555 1_555
O9 Cu1 1_555 1_555
N6 Cu1 1_555 1_555
O5 C14 1_555 1_555
O6 C14 1_555 1_555
N5 H14 1_555 1_555
C14 C15 1_555 1_555
C15 N5 1_555 1_555
H15 C15 1_555 1_555
C16 C15 1_555 1_555
H16 C16 1_555 1_555
H17 C16 1_555 1_555
H18 C16 1_555 1_555
Cu3 O5 1_555 1_555
C12 C11 1_555 1_555
H12 C12 1_555 1_555
N6 C13 1_555 1_555
C13 C12 1_555 1_555
H13 C13 1_555 1_555
C22 C11 1_555 1_555
H22 C22 1_555 1_555
C23 N6 1_555 1_555
H23 C23 1_555 1_555
C22 C23 1_555 1_555
C12_2 C11_2 1_555 1_555
H12_2 C12_2 1_555 1_555
N4 C13_2 1_555 1_555
C13_2 C12_2 1_555 1_555
H13_2 C13_2 1_555 1_555
C22_2 C11_2 1_555 1_555
H22_2 C22_2 1_555 1_555
C23_2 N4 1_555 1_555
H23_2 C23_2 1_555 1_555
Cu3 N4 1_555 1_555
C22_2 C23_2 1_555 1_555
Cu3 O1_2 1_555 1_555
O1_2 C1_2 1_555 1_555
O2_2 C1_2 1_555 1_555
O4_2 Cu3 1_555 1_555
H1_2 O4_2 1_555 1_555
H2_2 O4_2 1_555 1_555
N1_2 H3_2 1_555 1_555
N3_2 Cu3 1_555 1_555
C1_2 C2_2 1_555 1_555
C2_2 N1_2 1_555 1_555
H4_2 C2_2 1_555 1_555
C3_2 C2_2 1_555 1_555
H5_2 C3_2 1_555 1_555
H6_2 C3_2 1_555 1_555
H7_2 C3_2 1_555 1_555
C8_2 N3_2 1_555 1_555
H10_2 C8_2 1_555 1_555
O5_2 C14_2 1_555 1_555
O6_2 C14_2 1_555 1_555
N5_2 H14_2 1_555 1_555
C14_2 C15_2 1_555 1_555
C15_2 N5_2 1_555 1_555
H15_2 C15_2 1_555 1_555
C16_2 C15_2 1_555 1_555
H16_2 C16_2 1_555 1_555
H17_2 C16_2 1_555 1_555
H18_2 C16_2 1_555 1_555
C20_2 N3_2 1_555 1_555
H20_2 C20_2 1_555 1_555
O8_2 Cu3 1_555 1_555
H24_2 O8_2 1_555 1_555
H25_2 O8_2 1_555 1_555
Cu3_2 O5_2 1_555 1_555
C12_3 C11_3 1_555 1_555
H12_3 C12_3 1_555 1_555
N4_2 C13_3 1_555 1_555
C13_3 C12_3 1_555 1_555
H13_3 C13_3 1_555 1_555
C22_3 C11_3 1_555 1_555
H22_3 C22_3 1_555 1_555
C23_3 N4_2 1_555 1_555
H23_3 C23_3 1_555 1_555
Cu3_2 N4_2 1_555 1_555
C22_3 C23_3 1_555 1_555
Cu3_2 O1_3 1_555 1_555
O1_3 C1_3 1_555 1_555
O2_3 C1_3 1_555 1_555
O4_3 Cu3_2 1_555 1_555
H1_3 O4_3 1_555 1_555
H2_3 O4_3 1_555 1_555
N1_3 H3_3 1_555 1_555
N3_3 Cu3_2 1_555 1_555
C1_3 C2_3 1_555 1_555
C2_3 N1_3 1_555 1_555
H4_3 C2_3 1_555 1_555
C3_3 C2_3 1_555 1_555
H5_3 C3_3 1_555 1_555
H6_3 C3_3 1_555 1_555
H7_3 C3_3 1_555 1_555
C8_3 N3_3 1_555 1_555
H10_3 C8_3 1_555 1_555
O5_3 C14_3 1_555 1_555
O6_3 C14_3 1_555 1_555
N5_3 H14_3 1_555 1_555
C14_3 C15_3 1_555 1_555
C15_3 N5_3 1_555 1_555
H15_3 C15_3 1_555 1_555
C16_3 C15_3 1_555 1_555
H16_3 C16_3 1_555 1_555
H17_3 C16_3 1_555 1_555
H18_3 C16_3 1_555 1_555
C20_3 N3_3 1_555 1_555
H20_3 C20_3 1_555 1_555
O8_3 Cu3_2 1_555 1_555
H24_3 O8_3 1_555 1_555
H25_3 O8_3 1_555 1_555
Cu3_3 O5_3 1_555 1_555
Cu3_3 O1_4 1_555 1_555
O1_4 C1_4 1_555 1_555
O2_4 C1_4 1_555 1_555
O4_4 Cu3_3 1_555 1_555
H1_4 O4_4 1_555 1_555
H2_4 O4_4 1_555 1_555
N1_4 H3_4 1_555 1_555
N3_4 Cu3_3 1_555 1_555
C1_4 C2_4 1_555 1_555
C2_4 N1_4 1_555 1_555
H4_4 C2_4 1_555 1_555
C3_4 C2_4 1_555 1_555
H5_4 C3_4 1_555 1_555
H6_4 C3_4 1_555 1_555
H7_4 C3_4 1_555 1_555
C8_4 N3_4 1_555 1_555
H10_4 C8_4 1_555 1_555
O9 C14_4 1_555 1_555
O6_4 C14_4 1_555 1_555
N5_4 H14_4 1_555 1_555
C14_4 C15_4 1_555 1_555
C15_4 N5_4 1_555 1_555
H15_4 C15_4 1_555 1_555
C16_4 C15_4 1_555 1_555
H16_4 C16_4 1_555 1_555
H17_4 C16_4 1_555 1_555
H18_4 C16_4 1_555 1_555
C20_4 N3_4 1_555 1_555
H20_4 C20_4 1_555 1_555
O8_4 Cu3_3 1_555 1_555
H24_4 O8_4 1_555 1_555
H25_4 O8_4 1_555 1_555
N6_2 Cu3_3 1_555 1_555
C12_4 C11_4 1_555 1_555
H12_4 C12_4 1_555 1_555
N6_2 C13_4 1_555 1_555
C13_4 C12_4 1_555 1_555
H13_4 C13_4 1_555 1_555
C22_4 C11_4 1_555 1_555
H22_4 C22_4 1_555 1_555
C23_4 N6_2 1_555 1_555
H23_4 C23_4 1_555 1_555
C22_4 C23_4 1_555 1_555
O3 C4 1_555 1_555
N2 C5 1_555 1_555
C5 C4 1_555 1_555
C6 C5 1_555 1_555
H8 C6 1_555 1_555
C7 C6 1_555 1_555
H9 C7 1_555 1_555
H11 C9 1_555 1_555
H9_2 C7_2 1_555 1_555
O7 C17 1_555 1_555
C18 N2_2 1_555 1_555
C19 C7_2 1_555 1_555
H19 C19 1_555 1_555
C17 C18 1_555 1_555
C18 C19 1_555 1_555
H21 C21 1_555 1_555
H21_2 C21_2 1_555 1_555
O3_2 C4_2 1_555 1_555
N2_3 C5_2 1_555 1_555
C5_2 C4_2 1_555 1_555
C6_2 C5_2 1_555 1_555
H8_2 C6_2 1_555 1_555
C7_3 C6_2 1_555 1_555
H9_3 C7_3 1_555 1_555
H11_2 C9_2 1_555 1_555
O7_2 C17_2 1_555 1_555
C18_2 N2_3 1_555 1_555
C19_2 C7_3 1_555 1_555
H19_2 C19_2 1_555 1_555
C17_2 C18_2 1_555 1_555
C18_2 C19_2 1_555 1_555
O3_3 C4_3 1_555 1_555
N2_4 C5_3 1_555 1_555
C5_3 C4_3 1_555 1_555
C6_3 C5_3 1_555 1_555
H8_3 C6_3 1_555 1_555
C7_4 C6_3 1_555 1_555
H9_4 C7_4 1_555 1_555
H11_3 C9_3 1_555 1_555
O7_3 C17_3 1_555 1_555
C18_3 N2_4 1_555 1_555
C19_3 C7_4 1_555 1_555
H19_3 C19_3 1_555 1_555
C17_3 C18_3 1_555 1_555
C18_3 C19_3 1_555 1_555
H21_3 C21_3 1_555 1_555
O3_4 C4_4 1_555 1_555
N2_5 C5_4 1_555 1_555
C5_4 C4_4 1_555 1_555
C6_4 C5_4 1_555 1_555
H8_4 C6_4 1_555 1_555
C7_5 C6_4 1_555 1_555
H9_5 C7_5 1_555 1_555
H11_4 C9_4 1_555 1_555
O7_4 C17_4 1_555 1_555
C18_4 N2_5 1_555 1_555
C19_4 C7_5 1_555 1_555
H19_4 C19_4 1_555 1_555
C17_4 C18_4 1_555 1_555
C18_4 C19_4 1_555 1_555
H21_4 C21_4 1_555 1_555

#END
