
###############################################################################
#
# This file contains modified crystal structure data generated from the
# MOF subset of the Cambridge Structural Database (CSD) v543 
# hosted by the Cambridge Crystallographic Data Centre (CCDC).
#
# This work is licensed under the Creative Commons
# Attribution-NonCommercial-ShareAlike 4.0 International License.
# To view a copy of this license, visit
# http://creativecommons.org/licenses/by-nc-sa/4.0/
# or send a letter to
# Creative Commons, PO Box 1866, Mountain View, CA 94042, USA.
#
# CIF created using the CSD Python API on 29 September 2022
# The structure has been converted into the P1 space group
# The structure has a 3D framework
# The original CSD entry HOCZUX is in the tetragonal crystal system
# The original CSD entry HOCZUX is in a Sohncke space group
# The framework has been calculated to contain at least 10.0% void space
# The void calculation uses a probe of radius 1.32A, grid spacing 0.4
#
###############################################################################

data_HOCZUX
_chemical_formula_moiety         '(C100 H100 Cu4 N20 O24)n'
_symmetry_cell_setting           triclinic
_symmetry_space_group_name_H-M   'P 1'
_symmetry_Int_Tables_number      1
_space_group_name_Hall           'P 1'
loop_
_symmetry_equiv_pos_site_id
_symmetry_equiv_pos_as_xyz
1 x,y,z
_cell_length_a                   13.2595(7)
_cell_length_b                   13.2595(7)
_cell_length_c                   19.0000(14)
_cell_angle_alpha                90
_cell_angle_beta                 90
_cell_angle_gamma                90
_cell_volume                     3340.47
loop_
_atom_site_label
_atom_site_type_symbol
_atom_site_fract_x
_atom_site_fract_y
_atom_site_fract_z
H3 H 0.0245 0.5045 0.0453
C3 C 0.0636(6) 0.6447(7) 0.0025(6)
H4 H 0.0105 0.6816 0.0252
H5 H 0.1247 0.6513 0.0292
O3 O 0.0466(4) 0.3229(5) 0.9916(4)
O4 O 0.4995(2) 0.3655(2) 0.80424(17)
O5 O 0.6598(3) 0.5895(4) 0.8031(2)
O6 O 0.5982(2) 0.5277(2) 0.90297(19)
N1 N 0.1131(3) 0.4763(5) 0.9636(3)
H1 H 0.1610 0.5083 0.9427
N2 N 0.2707(3) 0.3799(4) 0.8989(2)
N3 N 0.4140(3) 0.4997(3) 0.8447(2)
H2 H 0.3637 0.5215 0.8688
C2 C 0.0338(5) 0.5312(7) 0.9976(4)
H6 H 0.0740 0.6710 0.9560
C4 C 0.1129(4) 0.3796(6) 0.9644(4)
C5 C 0.2006(4) 0.3230(6) 0.9264(3)
C6 C 0.2037(5) 0.2226(7) 0.9235(5)
H7 H 0.1517 0.1847 0.9430
C7 C 0.2819(6) 0.1762(6) 0.8924(5)
H8 H 0.2839 0.1062 0.8912
C8 C 0.3595(4) 0.2304(5) 0.8621(4)
H9 H 0.4139 0.1997 0.8397
C9 C 0.3498(3) 0.3344(4) 0.8679(3)
C10 C 0.4264(3) 0.4009(4) 0.8365(2)
C11 C 0.4837(4) 0.5715(4) 0.8137(3)
H10 H 0.4844 0.5621 0.7625
C12 C 0.4484(6) 0.6789(5) 0.8302(5)
H11 H 0.4945 0.7265 0.8098
H12 H 0.3823 0.6892 0.8110
H13 H 0.4464 0.6884 0.8803
C13 C 0.5910(4) 0.5607(3) 0.8416(3)
Cu3 Cu 0.72756(3) 0.52099(3) 0.95021(3)
Cu4 Cu 0.52099(3) 0.27244(3) 0.70021(3)
N5 N 0.7272(3) 0.3667(3) 0.9377(3)
C20 C 0.7133(9) 0.0453(5) 0.9282(5)
H20 H 0.6505 0.0247 0.9063
H21 H 0.7678 0.0239 0.8976
C21 C 0.7147(7) 0.1577(4) 0.9327(4)
C22 C 0.8082(7) 0.2081(5) 0.9344(6)
H22 H 0.8676 0.1710 0.9329
C23 C 0.6336(6) 0.2157(4) 0.9361(4)
H23 H 0.5703 0.1854 0.9372
C24 C 0.8125(5) 0.3114(4) 0.9382(5)
H24 H 0.8748 0.3434 0.9412
C25 C 0.6397(4) 0.3199(3) 0.9380(3)
H25 H 0.5806 0.3577 0.9395
H15 H 0.5933 0.6792 0.0040
C17 C 0.6433(5) 0.8214(4) 0.0016(4)
H17 H 0.5846 0.8503 0.0191
O7 O 0.6345(2) 0.4995(2) 0.05424(17)
O1 O 0.8584(2) 0.5200(2) 0.9966(2)
O2 O 0.9393(3) 0.5201(3) 0.8943(3)
N4 N 0.7260(3) 0.6738(2) 0.9620(2)
C1 C 0.9374(3) 0.5205(4) 0.9580(3)
C14 C 0.8015(5) 0.7303(4) 0.9427(5)
H14 H 0.8556 0.7008 0.9193
C15 C 0.6481(4) 0.7185(3) 0.9905(3)
C16 C 0.8035(5) 0.8326(4) 0.9561(7)
H16 H 0.8602 0.8700 0.9438
C18 C 0.7234(5) 0.8797(4) 0.9872(4)
C19 C 0.7233(6) 0.9919(4) 0.9957(5)
Cu1 Cu 0.27244(3) 0.47901(3) 0.45021(3)
O1_2 O 0.1416(2) 0.4800(2) 0.4966(2)
O2_2 O 0.0607(3) 0.4799(3) 0.3943(3)
N4_2 N 0.2740(3) 0.3262(2) 0.4620(2)
C1_2 C 0.0626(3) 0.4795(4) 0.4580(3)
C14_2 C 0.1985(5) 0.2697(4) 0.4427(5)
H14_2 H 0.1444 0.2992 0.4193
C15_2 C 0.3519(4) 0.2815(3) 0.4905(3)
H15_2 H 0.4067 0.3208 0.5040
C16_2 C 0.1965(5) 0.1674(4) 0.4561(7)
H16_2 H 0.1398 0.1300 0.4438
C17_2 C 0.3567(5) 0.1786(4) 0.5016(4)
H17_2 H 0.4154 0.1497 0.5191
C18_2 C 0.2766(5) 0.1203(4) 0.4872(4)
C19_2 C 0.2767(6) 0.0081(4) 0.4957(5)
O7_2 O 0.3655(2) 0.5005(2) 0.55424(17)
O8 O 0.4018(2) 0.4723(2) 0.40297(19)
N6 N 0.2728(3) 0.6333(3) 0.4377(3)
H18 H 0.3321 0.9888 0.5263
H19 H 0.2144 0.9875 0.5183
C20_2 C 0.2867(9) 0.9547(5) 0.4282(5)
H20_2 H 0.3495 0.9753 0.4063
H21_2 H 0.2322 0.9761 0.3976
C21_2 C 0.2853(7) 0.8423(4) 0.4327(4)
C22_2 C 0.1918(7) 0.7919(5) 0.4344(6)
H22_2 H 0.1324 0.8290 0.4329
C23_2 C 0.3664(6) 0.7843(4) 0.4361(4)
H23_2 H 0.4297 0.8146 0.4372
C24_2 C 0.1875(5) 0.6886(4) 0.4382(5)
H24_2 H 0.1252 0.6566 0.4412
C25_2 C 0.3603(4) 0.6801(3) 0.4380(3)
H25_2 H 0.4194 0.6423 0.4395
O3_2 O 0.9534(4) 0.6771(5) 0.4916(4)
O4_2 O 0.5005(2) 0.6345(2) 0.30424(17)
O5_2 O 0.3402(3) 0.4105(4) 0.3031(2)
N1_2 N 0.8869(3) 0.5237(5) 0.4636(3)
H1_2 H 0.8390 0.4917 0.4427
N2_2 N 0.7293(3) 0.6201(4) 0.3989(2)
N3_2 N 0.5860(3) 0.5003(3) 0.3447(2)
H2_2 H 0.6363 0.4785 0.3688
C2_2 C 0.9662(5) 0.4688(7) 0.4976(4)
H3_2 H 0.9755 0.4955 0.5453
C3_2 C 0.9364(6) 0.3553(7) 0.5025(6)
H4_2 H 0.9895 0.3184 0.5252
H5_2 H 0.8753 0.3487 0.5292
H6_2 H 0.9260 0.3290 0.4560
C4_2 C 0.8871(4) 0.6204(6) 0.4644(4)
C5_2 C 0.7994(4) 0.6770(6) 0.4264(3)
C6_2 C 0.7963(5) 0.7774(7) 0.4235(5)
H7_2 H 0.8483 0.8153 0.4430
C7_2 C 0.7181(6) 0.8238(6) 0.3924(5)
H8_2 H 0.7161 0.8938 0.3912
C8_2 C 0.6405(4) 0.7696(5) 0.3621(4)
H9_2 H 0.5861 0.8003 0.3397
C9_2 C 0.6502(3) 0.6656(4) 0.3679(3)
C10_2 C 0.5736(3) 0.5991(4) 0.3365(2)
C11_2 C 0.5163(4) 0.4285(4) 0.3137(3)
H10_2 H 0.5156 0.4379 0.2625
C12_2 C 0.5516(6) 0.3211(5) 0.3302(5)
H11_2 H 0.5055 0.2735 0.3098
H12_2 H 0.6177 0.3108 0.3110
H13_2 H 0.5536 0.3116 0.3803
C13_2 C 0.4090(4) 0.4393(3) 0.3416(3)
Cu4_2 Cu 0.47901(3) 0.72756(3) 0.20021(3)
O3_3 O 0.6771(5) 0.0466(4) 0.2416(4)
O5_3 O 0.4105(4) 0.6598(3) 0.0531(2)
O6_2 O 0.4723(2) 0.5982(2) 0.15297(19)
N1_3 N 0.5237(5) 0.1131(3) 0.2136(3)
H1_3 H 0.4917 0.1610 0.1927
N2_3 N 0.6201(4) 0.2707(3) 0.1489(2)
N3_3 N 0.5003(3) 0.4140(3) 0.0947(2)
H2_3 H 0.4785 0.3637 0.1188
C2_3 C 0.4688(7) 0.0338(5) 0.2476(4)
H3_3 H 0.4955 0.0245 0.2953
C3_3 C 0.3553(7) 0.0636(6) 0.2525(6)
H4_3 H 0.3184 0.0105 0.2752
H5_3 H 0.3487 0.1247 0.2792
H6_3 H 0.3290 0.0740 0.2060
C4_3 C 0.6204(6) 0.1129(4) 0.2144(4)
C5_3 C 0.6770(6) 0.2006(4) 0.1764(3)
C6_3 C 0.7774(7) 0.2037(5) 0.1735(5)
H7_3 H 0.8153 0.1517 0.1930
C7_3 C 0.8238(6) 0.2819(6) 0.1424(5)
H8_3 H 0.8938 0.2839 0.1412
C8_3 C 0.7696(5) 0.3595(4) 0.1121(4)
H9_3 H 0.8003 0.4139 0.0897
C9_3 C 0.6656(4) 0.3498(3) 0.1179(3)
C10_3 C 0.5991(4) 0.4264(3) 0.0865(2)
C11_3 C 0.4285(4) 0.4837(4) 0.0637(3)
H10_3 H 0.4379 0.4844 0.0125
C12_3 C 0.3211(5) 0.4484(6) 0.0802(5)
H11_3 H 0.2735 0.4945 0.0598
H12_3 H 0.3108 0.3823 0.0610
H13_3 H 0.3116 0.4464 0.1303
C13_3 C 0.4393(3) 0.5910(4) 0.0916(3)
O1_3 O 0.4800(2) 0.8584(2) 0.2466(2)
O2_3 O 0.4799(3) 0.9393(3) 0.1443(3)
N4_3 N 0.3262(2) 0.7260(3) 0.2120(2)
C1_3 C 0.4795(4) 0.9374(3) 0.2080(3)
C14_3 C 0.2697(4) 0.8015(5) 0.1927(5)
H14_3 H 0.2992 0.8556 0.1693
C15_3 C 0.2815(3) 0.6481(4) 0.2405(3)
H15_3 H 0.3208 0.5933 0.2540
C16_3 C 0.1674(4) 0.8035(5) 0.2061(7)
H16_3 H 0.1300 0.8602 0.1938
C17_3 C 0.1786(4) 0.6433(5) 0.2516(4)
H17_3 H 0.1497 0.5846 0.2691
C18_3 C 0.1203(4) 0.7234(5) 0.2372(4)
C19_3 C 0.0081(4) 0.7233(6) 0.2457(5)
N6_2 N 0.6333(3) 0.7272(3) 0.1877(3)
H18_2 H 0.9888 0.6679 0.2763
H19_2 H 0.9875 0.7856 0.2683
C20_3 C 0.9547(5) 0.7133(9) 0.1782(5)
H20_3 H 0.9753 0.6505 0.1563
H21_3 H 0.9761 0.7678 0.1476
C21_3 C 0.8423(4) 0.7147(7) 0.1827(4)
C22_3 C 0.7919(5) 0.8082(7) 0.1844(6)
H22_3 H 0.8290 0.8676 0.1829
C23_3 C 0.7843(4) 0.6336(6) 0.1861(4)
H23_3 H 0.8146 0.5703 0.1872
C24_3 C 0.6886(4) 0.8125(5) 0.1882(5)
H24_3 H 0.6566 0.8748 0.1912
C25_3 C 0.6801(3) 0.6397(4) 0.1880(3)
H25_3 H 0.6423 0.5806 0.1895
N5_2 N 0.3667(3) 0.2728(3) 0.6877(3)
H18_3 H 0.0112 0.3321 0.7763
H19_3 H 0.0125 0.2144 0.7683
C20_4 C 0.0453(5) 0.2867(9) 0.6782(5)
H20_4 H 0.0247 0.3495 0.6563
H21_4 H 0.0239 0.2322 0.6476
C21_4 C 0.1577(4) 0.2853(7) 0.6827(4)
C22_4 C 0.2081(5) 0.1918(7) 0.6844(6)
H22_4 H 0.1710 0.1324 0.6829
C23_4 C 0.2157(4) 0.3664(6) 0.6861(4)
H23_4 H 0.1854 0.4297 0.6872
C24_4 C 0.3114(4) 0.1875(5) 0.6882(5)
H24_4 H 0.3434 0.1252 0.6912
C25_4 C 0.3199(3) 0.3603(4) 0.6880(3)
H25_4 H 0.3577 0.4194 0.6895
O1_4 O 0.5200(2) 0.1416(2) 0.7466(2)
O2_4 O 0.5201(3) 0.0607(3) 0.6443(3)
N4_4 N 0.6738(2) 0.2740(3) 0.7120(2)
C1_4 C 0.5205(4) 0.0626(3) 0.7080(3)
C14_4 C 0.7303(4) 0.1985(5) 0.6927(5)
H14_4 H 0.7008 0.1444 0.6693
C15_4 C 0.7185(3) 0.3519(4) 0.7405(3)
H15_4 H 0.6792 0.4067 0.7540
C16_4 C 0.8326(4) 0.1965(5) 0.7061(7)
H16_4 H 0.8700 0.1398 0.6938
C17_4 C 0.8214(4) 0.3567(5) 0.7516(4)
H17_4 H 0.8503 0.4154 0.7691
C18_4 C 0.8797(4) 0.2766(5) 0.7372(4)
C19_4 C 0.9919(4) 0.2767(6) 0.7457(5)
O8_2 O 0.5277(2) 0.4018(2) 0.65297(19)
O3_4 O 0.3229(5) 0.9534(4) 0.7416(4)
O5_4 O 0.5895(4) 0.3402(3) 0.5531(2)
N1_4 N 0.4763(5) 0.8869(3) 0.7136(3)
H1_4 H 0.5083 0.8390 0.6927
N2_4 N 0.3799(4) 0.7293(3) 0.6489(2)
N3_4 N 0.4997(3) 0.5860(3) 0.5947(2)
H2_4 H 0.5215 0.6363 0.6188
C2_4 C 0.5312(7) 0.9662(5) 0.7476(4)
H3_4 H 0.5045 0.9755 0.7953
C3_4 C 0.6447(7) 0.9364(6) 0.7525(6)
H4_4 H 0.6816 0.9895 0.7752
H5_4 H 0.6513 0.8753 0.7792
H6_4 H 0.6710 0.9260 0.7060
C4_4 C 0.3796(6) 0.8871(4) 0.7144(4)
C5_4 C 0.3230(6) 0.7994(4) 0.6764(3)
C6_4 C 0.2226(7) 0.7963(5) 0.6735(5)
H7_4 H 0.1847 0.8483 0.6930
C7_4 C 0.1762(6) 0.7181(6) 0.6424(5)
H8_4 H 0.1062 0.7161 0.6412
C8_4 C 0.2304(5) 0.6405(4) 0.6121(4)
H9_4 H 0.1997 0.5861 0.5897
C9_4 C 0.3344(4) 0.6502(3) 0.6179(3)
C10_4 C 0.4009(4) 0.5736(3) 0.5865(2)
C11_4 C 0.5715(4) 0.5163(4) 0.5637(3)
H10_4 H 0.5621 0.5156 0.5125
C12_4 C 0.6789(5) 0.5516(6) 0.5802(5)
H11_4 H 0.7265 0.5055 0.5598
H12_4 H 0.6892 0.6177 0.5610
H13_4 H 0.6884 0.5536 0.6303
C13_4 C 0.5607(3) 0.4090(4) 0.5916(3)
H18_4 H 0.6679 0.0112 0.0263
H19_4 H 0.7856 0.0125 0.0183
loop_
_geom_bond_atom_site_label_1
_geom_bond_atom_site_label_2
_geom_bond_site_symmetry_1
_geom_bond_site_symmetry_2
H4 C3 1_555 1_555
H5 C3 1_555 1_555
O3 C4 1_555 1_555
O4 C10 1_555 1_555
O5 C13 1_555 1_555
O6 C13 1_555 1_555
N1 H1 1_555 1_555
N2 C5 1_555 1_555
N3 H2 1_555 1_555
C2 N1 1_555 1_555
C4 N1 1_555 1_555
C5 C4 1_555 1_555
C6 C5 1_555 1_555
H7 C6 1_555 1_555
C7 C6 1_555 1_555
H8 C7 1_555 1_555
C8 C7 1_555 1_555
H9 C8 1_555 1_555
C9 N2 1_555 1_555
C10 N3 1_555 1_555
C11 N3 1_555 1_555
H10 C11 1_555 1_555
C12 C11 1_555 1_555
H11 C12 1_555 1_555
H12 C12 1_555 1_555
H13 C12 1_555 1_555
C13 C11 1_555 1_555
Cu3 O6 1_555 1_555
Cu4 O4 1_555 1_555
C8 C9 1_555 1_555
C9 C10 1_555 1_555
N5 C24 1_555 1_555
H20 C20 1_555 1_555
H21 C20 1_555 1_555
C21 C20 1_555 1_555
C22 C21 1_555 1_555
H22 C22 1_555 1_555
C23 C21 1_555 1_555
H23 C23 1_555 1_555
C24 C22 1_555 1_555
H24 C24 1_555 1_555
C25 N5 1_555 1_555
H25 C25 1_555 1_555
Cu3 N5 1_555 1_555
C23 C25 1_555 1_555
H17 C17 1_555 1_555
Cu3 O1 1_555 1_555
O1 C1 1_555 1_555
O2 C1 1_555 1_555
N4 Cu3 1_555 1_555
C14 N4 1_555 1_555
H14 C14 1_555 1_555
C15 N4 1_555 1_555
C16 C14 1_555 1_555
H16 C16 1_555 1_555
C18 C16 1_555 1_555
C19 C18 1_555 1_555
Cu1 O1_2 1_555 1_555
O1_2 C1_2 1_555 1_555
O2_2 C1_2 1_555 1_555
N4_2 Cu1 1_555 1_555
C14_2 N4_2 1_555 1_555
H14_2 C14_2 1_555 1_555
C15_2 N4_2 1_555 1_555
H15_2 C15_2 1_555 1_555
C16_2 C14_2 1_555 1_555
H16_2 C16_2 1_555 1_555
C17_2 C15_2 1_555 1_555
H17_2 C17_2 1_555 1_555
C18_2 C16_2 1_555 1_555
C19_2 C18_2 1_555 1_555
O7_2 Cu1 1_555 1_555
O8 Cu1 1_555 1_555
N6 Cu1 1_555 1_555
C17_2 C18_2 1_555 1_555
N6 C24_2 1_555 1_555
H20_2 C20_2 1_555 1_555
H21_2 C20_2 1_555 1_555
C21_2 C20_2 1_555 1_555
C22_2 C21_2 1_555 1_555
H22_2 C22_2 1_555 1_555
C23_2 C21_2 1_555 1_555
H23_2 C23_2 1_555 1_555
C24_2 C22_2 1_555 1_555
H24_2 C24_2 1_555 1_555
C25_2 N6 1_555 1_555
H25_2 C25_2 1_555 1_555
C23_2 C25_2 1_555 1_555
O3_2 C4_2 1_555 1_555
O4_2 C10_2 1_555 1_555
O5_2 C13_2 1_555 1_555
O8 C13_2 1_555 1_555
N1_2 H1_2 1_555 1_555
N2_2 C5_2 1_555 1_555
N3_2 H2_2 1_555 1_555
C2_2 N1_2 1_555 1_555
H3_2 C2_2 1_555 1_555
C3_2 C2_2 1_555 1_555
H4_2 C3_2 1_555 1_555
H5_2 C3_2 1_555 1_555
H6_2 C3_2 1_555 1_555
C4_2 N1_2 1_555 1_555
C5_2 C4_2 1_555 1_555
C6_2 C5_2 1_555 1_555
H7_2 C6_2 1_555 1_555
C7_2 C6_2 1_555 1_555
H8_2 C7_2 1_555 1_555
C8_2 C7_2 1_555 1_555
H9_2 C8_2 1_555 1_555
C9_2 N2_2 1_555 1_555
C10_2 N3_2 1_555 1_555
C11_2 N3_2 1_555 1_555
H10_2 C11_2 1_555 1_555
C12_2 C11_2 1_555 1_555
H11_2 C12_2 1_555 1_555
H12_2 C12_2 1_555 1_555
H13_2 C12_2 1_555 1_555
C13_2 C11_2 1_555 1_555
Cu4_2 O4_2 1_555 1_555
C8_2 C9_2 1_555 1_555
C9_2 C10_2 1_555 1_555
O3_3 C4_3 1_555 1_555
O7 C10_3 1_555 1_555
O5_3 C13_3 1_555 1_555
O6_2 C13_3 1_555 1_555
N1_3 H1_3 1_555 1_555
N2_3 C5_3 1_555 1_555
N3_3 H2_3 1_555 1_555
C2_3 N1_3 1_555 1_555
H3_3 C2_3 1_555 1_555
C3_3 C2_3 1_555 1_555
H4_3 C3_3 1_555 1_555
H5_3 C3_3 1_555 1_555
H6_3 C3_3 1_555 1_555
C4_3 N1_3 1_555 1_555
C5_3 C4_3 1_555 1_555
C6_3 C5_3 1_555 1_555
H7_3 C6_3 1_555 1_555
C7_3 C6_3 1_555 1_555
H8_3 C7_3 1_555 1_555
C8_3 C7_3 1_555 1_555
H9_3 C8_3 1_555 1_555
C9_3 N2_3 1_555 1_555
C10_3 N3_3 1_555 1_555
C11_3 N3_3 1_555 1_555
H10_3 C11_3 1_555 1_555
C12_3 C11_3 1_555 1_555
H11_3 C12_3 1_555 1_555
H12_3 C12_3 1_555 1_555
H13_3 C12_3 1_555 1_555
C13_3 C11_3 1_555 1_555
Cu4_2 O6_2 1_555 1_555
C8_3 C9_3 1_555 1_555
C9_3 C10_3 1_555 1_555
Cu4_2 O1_3 1_555 1_555
O1_3 C1_3 1_555 1_555
O2_3 C1_3 1_555 1_555
N4_3 Cu4_2 1_555 1_555
C14_3 N4_3 1_555 1_555
H14_3 C14_3 1_555 1_555
C15_3 N4_3 1_555 1_555
H15_3 C15_3 1_555 1_555
C16_3 C14_3 1_555 1_555
H16_3 C16_3 1_555 1_555
C17_3 C15_3 1_555 1_555
H17_3 C17_3 1_555 1_555
C18_3 C16_3 1_555 1_555
C19_3 C18_3 1_555 1_555
N6_2 Cu4_2 1_555 1_555
C17_3 C18_3 1_555 1_555
N6_2 C24_3 1_555 1_555
H20_3 C20_3 1_555 1_555
H21_3 C20_3 1_555 1_555
C21_3 C20_3 1_555 1_555
C22_3 C21_3 1_555 1_555
H22_3 C22_3 1_555 1_555
C23_3 C21_3 1_555 1_555
H23_3 C23_3 1_555 1_555
C24_3 C22_3 1_555 1_555
H24_3 C24_3 1_555 1_555
C25_3 N6_2 1_555 1_555
H25_3 C25_3 1_555 1_555
C23_3 C25_3 1_555 1_555
N5_2 C24_4 1_555 1_555
H20_4 C20_4 1_555 1_555
H21_4 C20_4 1_555 1_555
C21_4 C20_4 1_555 1_555
C22_4 C21_4 1_555 1_555
H22_4 C22_4 1_555 1_555
C23_4 C21_4 1_555 1_555
H23_4 C23_4 1_555 1_555
C24_4 C22_4 1_555 1_555
H24_4 C24_4 1_555 1_555
C25_4 N5_2 1_555 1_555
H25_4 C25_4 1_555 1_555
Cu4 N5_2 1_555 1_555
C23_4 C25_4 1_555 1_555
Cu4 O1_4 1_555 1_555
O1_4 C1_4 1_555 1_555
O2_4 C1_4 1_555 1_555
N4_4 Cu4 1_555 1_555
C14_4 N4_4 1_555 1_555
H14_4 C14_4 1_555 1_555
C15_4 N4_4 1_555 1_555
H15_4 C15_4 1_555 1_555
C16_4 C14_4 1_555 1_555
H16_4 C16_4 1_555 1_555
C17_4 C15_4 1_555 1_555
H17_4 C17_4 1_555 1_555
C18_4 C16_4 1_555 1_555
C19_4 C18_4 1_555 1_555
O8_2 Cu4 1_555 1_555
C17_4 C18_4 1_555 1_555
O3_4 C4_4 1_555 1_555
O7_2 C10_4 1_555 1_555
O5_4 C13_4 1_555 1_555
O8_2 C13_4 1_555 1_555
N1_4 H1_4 1_555 1_555
N2_4 C5_4 1_555 1_555
N3_4 H2_4 1_555 1_555
C2_4 N1_4 1_555 1_555
H3_4 C2_4 1_555 1_555
C3_4 C2_4 1_555 1_555
H4_4 C3_4 1_555 1_555
H5_4 C3_4 1_555 1_555
H6_4 C3_4 1_555 1_555
C4_4 N1_4 1_555 1_555
C5_4 C4_4 1_555 1_555
C6_4 C5_4 1_555 1_555
H7_4 C6_4 1_555 1_555
C7_4 C6_4 1_555 1_555
H8_4 C7_4 1_555 1_555
C8_4 C7_4 1_555 1_555
H9_4 C8_4 1_555 1_555
C9_4 N2_4 1_555 1_555
C10_4 N3_4 1_555 1_555
C11_4 N3_4 1_555 1_555
H10_4 C11_4 1_555 1_555
C12_4 C11_4 1_555 1_555
H11_4 C12_4 1_555 1_555
H12_4 C12_4 1_555 1_555
H13_4 C12_4 1_555 1_555
C13_4 C11_4 1_555 1_555
C8_4 C9_4 1_555 1_555
C9_4 C10_4 1_555 1_555

#END
