
###############################################################################
#
# This file contains modified crystal structure data generated from the
# MOF subset of the Cambridge Structural Database (CSD) v543 
# hosted by the Cambridge Crystallographic Data Centre (CCDC).
#
# This work is licensed under the Creative Commons
# Attribution-NonCommercial-ShareAlike 4.0 International License.
# To view a copy of this license, visit
# http://creativecommons.org/licenses/by-nc-sa/4.0/
# or send a letter to
# Creative Commons, PO Box 1866, Mountain View, CA 94042, USA.
#
# CIF created using the CSD Python API on 29 September 2022
# The structure has been converted into the P1 space group
# The structure has a 3D framework
# The original CSD entry HOHHIY is in the triclinic crystal system
# The framework has been calculated to contain at least 10.0% void space
# The void calculation uses a probe of radius 1.32A, grid spacing 0.4
#
###############################################################################

data_HOHHIY
_chemical_formula_moiety         '(C42 H26 Cd4 O20)n'
_symmetry_cell_setting           triclinic
_symmetry_space_group_name_H-M   'P 1'
_symmetry_Int_Tables_number      1
_space_group_name_Hall           'P 1'
loop_
_symmetry_equiv_pos_site_id
_symmetry_equiv_pos_as_xyz
1 x,y,z
_cell_length_a                   8.9217(10)
_cell_length_b                   10.1568(10)
_cell_length_c                   14.9860(13)
_cell_angle_alpha                85.633(5)
_cell_angle_beta                 88.229(5)
_cell_angle_gamma                73.485(6)
_cell_volume                     1298.11
loop_
_atom_site_label
_atom_site_type_symbol
_atom_site_fract_x
_atom_site_fract_y
_atom_site_fract_z
O10 O 0.7699(5) 0.0502(4) 0.0490(2)
H3 H 0.703803 0.086981 0.082394
H4 H 0.847763 0.076881 0.055004
Cd4 Cd 0.30356(5) 0.06145(4) 0.05765(2)
Cd2 Cd 0.72107(5) 0.18016(4) 0.73670(2)
O1 O 0.4577(4) 0.1212(4) 0.9428(2)
O2 O 0.6056(4) 0.2351(4) 0.8694(2)
O9 O 0.7388(6) 0.3981(4) 0.7111(3)
H1 H 0.731069 0.440915 0.658674
H2 H 0.692289 0.448865 0.755234
C1 C 0.4765(6) 0.2290(5) 0.9004(3)
C5 C 0.2301(7) 0.0594(6) 0.7219(3)
C6 C 0.0799(7) 0.0475(6) 0.7332(4)
C7 C 0.0115(7) 0.2214(5) 0.8300(3)
C8 C 0.1573(6) 0.2447(5) 0.8218(3)
C9 C 0.1890(6) 0.3605(6) 0.8653(3)
C10 C 0.3400(6) 0.3558(6) 0.8940(3)
C11 C 0.3673(7) 0.4729(6) 0.9229(4)
H7 H 0.470862 0.470716 0.937584
C12 C 0.2480(7) 0.5931(6) 0.9309(4)
H8 H 0.269618 0.672057 0.951314
C13 C 0.0967(7) 0.5977(6) 0.9089(4)
C15 C 0.0690(6) 0.4814(6) 0.8744(3)
C16 C 0.2658(6) 0.1634(5) 0.7651(3)
H10 H 0.365397 0.178997 0.755835
O14 O 0.5457(5) 0.2072(4) 0.6270(2)
O15 O 0.7917(5) 0.1013(4) 0.5922(2)
N2 N 0.9719(5) 0.1282(5) 0.7845(3)
O11 O 0.5423(4) 0.8788(4) 0.0572(2)
Cd1 Cd 0.69644(5) 0.93855(4) 0.94235(2)
O3 O 0.6725(4) 0.9683(4) 0.7880(2)
O4 O 0.4948(4) 0.8723(4) 0.8450(2)
O7 O 0.4543(5) 0.7928(4) 0.3730(2)
O8 O 0.2083(5) 0.8987(4) 0.4078(2)
C2 C 0.5575(6) 0.9190(5) 0.7794(4)
C3 C 0.5013(7) 0.9095(5) 0.6867(3)
C4 C 0.3435(7) 0.9694(5) 0.6626(3)
H5 H 0.052140 0.978905 0.703103
C17 C 0.2978(6) 0.9467(6) 0.5786(3)
H11 H 0.192337 0.986570 0.560898
C18 C 0.4029(7) 0.8670(6) 0.5199(3)
C19 C 0.3515(7) 0.8500(6) 0.4278(3)
C20 C 0.5555(7) 0.8091(6) 0.5454(4)
H12 H 0.627604 0.753732 0.505876
C21 C 0.6048(7) 0.8309(6) 0.6284(4)
H13 H 0.710869 0.791362 0.645040
Cd6 Cd 0.27893(5) 0.81984(4) 0.26330(2)
O12 O 0.9877(5) 0.8366(4) 0.9336(3)
O13 O 0.8253(4) 0.7134(4) 0.9182(3)
H6 H 0.936625 0.273782 0.869533
C14 C 0.9628(7) 0.7242(6) 0.9209(3)
H9 H 0.966190 0.485663 0.856964
O5 O 0.0123(5) 0.1634(4) 0.0664(3)
O6 O 0.1747(4) 0.2866(4) 0.0818(3)
N1 N 0.0281(5) 0.8718(5) 0.2155(3)
H6_2 H 0.063375 0.726218 0.130467
C14_2 C 0.0372(7) 0.2758(6) 0.0791(3)
H9_2 H 0.033810 0.514337 0.143036
O3_2 O 0.3275(4) 0.0317(4) 0.2120(2)
O4_2 O 0.5052(4) 0.1277(4) 0.1550(2)
C2_2 C 0.4425(6) 0.0810(5) 0.2206(4)
C3_2 C 0.4987(7) 0.0905(5) 0.3133(3)
C4_2 C 0.6565(7) 0.0306(5) 0.3374(3)
H5_2 H 0.947860 0.021095 0.296897
C17_2 C 0.7022(6) 0.0533(6) 0.4214(3)
H11_2 H 0.807663 0.013430 0.439102
C18_2 C 0.5971(7) 0.1330(6) 0.4801(3)
C19_2 C 0.6485(7) 0.1500(6) 0.5722(3)
C20_2 C 0.4445(7) 0.1909(6) 0.4546(4)
H12_2 H 0.372396 0.246268 0.494124
C21_2 C 0.3952(7) 0.1691(6) 0.3716(4)
H13_2 H 0.289131 0.208638 0.354960
O2_2 O 0.3944(4) 0.7649(4) 0.1306(2)
O9_2 O 0.2612(6) 0.6019(4) 0.2889(3)
H1_2 H 0.268931 0.559085 0.341326
H2_2 H 0.307711 0.551135 0.244766
C1_2 C 0.5235(6) 0.7710(5) 0.0996(3)
C5_2 C 0.7699(7) 0.9406(6) 0.2781(3)
C6_2 C 0.9201(7) 0.9525(6) 0.2668(4)
C7_2 C 0.9885(7) 0.7786(5) 0.1700(3)
C8_2 C 0.8427(6) 0.7553(5) 0.1782(3)
C9_2 C 0.8110(6) 0.6395(6) 0.1347(3)
C10_2 C 0.6600(6) 0.6442(6) 0.1060(3)
C11_2 C 0.6327(7) 0.5271(6) 0.0771(4)
H7_2 H 0.529138 0.529284 0.062416
C12_2 C 0.7520(7) 0.4069(6) 0.0691(4)
H8_2 H 0.730382 0.327943 0.048686
C13_2 C 0.9033(7) 0.4023(6) 0.0911(4)
C15_2 C 0.9310(6) 0.5186(6) 0.1256(3)
C16_2 C 0.7342(6) 0.8366(5) 0.2349(3)
H10_2 H 0.634603 0.821003 0.244165
O10_2 O 0.2301(5) 0.9498(4) 0.9510(2)
H3_2 H 0.296197 0.913019 0.917606
H4_2 H 0.152237 0.923119 0.944996
loop_
_geom_bond_atom_site_label_1
_geom_bond_atom_site_label_2
_geom_bond_site_symmetry_1
_geom_bond_site_symmetry_2
H3 O10 1_555 1_555
H4 O10 1_555 1_555
Cd2 O2 1_555 1_555
O1 C1 1_555 1_555
O2 C1 1_555 1_555
O9 Cd2 1_555 1_555
H1 O9 1_555 1_555
H2 O9 1_555 1_555
C1 C10 1_555 1_555
C6 C5 1_555 1_555
C8 C7 1_555 1_555
C9 C8 1_555 1_555
C10 C9 1_555 1_555
C11 C10 1_555 1_555
H7 C11 1_555 1_555
C12 C11 1_555 1_555
H8 C12 1_555 1_555
C13 C12 1_555 1_555
C15 C9 1_555 1_555
C16 C5 1_555 1_555
H10 C16 1_555 1_555
O14 Cd2 1_555 1_555
O15 Cd2 1_555 1_555
N2 Cd2 1_555 1_555
C8 C16 1_555 1_555
C13 C15 1_555 1_555
O3 Cd1 1_555 1_555
O4 Cd1 1_555 1_555
O7 C19 1_555 1_555
O8 C19 1_555 1_555
C2 O3 1_555 1_555
C3 C2 1_555 1_555
C4 C3 1_555 1_555
C17 C4 1_555 1_555
H11 C17 1_555 1_555
C18 C17 1_555 1_555
C19 C18 1_555 1_555
C20 C18 1_555 1_555
H12 C20 1_555 1_555
C21 C3 1_555 1_555
H13 C21 1_555 1_555
Cd6 O7 1_555 1_555
O12 Cd1 1_555 1_555
O13 Cd1 1_555 1_555
O4 C2 1_555 1_555
O8 Cd6 1_555 1_555
C20 C21 1_555 1_555
O12 C14 1_555 1_555
O13 C14 1_555 1_555
O5 C14_2 1_555 1_555
O6 C14_2 1_555 1_555
Cd4 O5 1_555 1_555
Cd6 N1 1_555 1_555
O6 Cd4 1_555 1_555
O3_2 Cd4 1_555 1_555
O4_2 Cd4 1_555 1_555
O14 C19_2 1_555 1_555
O15 C19_2 1_555 1_555
C2_2 O3_2 1_555 1_555
C3_2 C2_2 1_555 1_555
C4_2 C3_2 1_555 1_555
C17_2 C4_2 1_555 1_555
H11_2 C17_2 1_555 1_555
C18_2 C17_2 1_555 1_555
C19_2 C18_2 1_555 1_555
C20_2 C18_2 1_555 1_555
H12_2 C20_2 1_555 1_555
C21_2 C3_2 1_555 1_555
H13_2 C21_2 1_555 1_555
O4_2 C2_2 1_555 1_555
C20_2 C21_2 1_555 1_555
Cd6 O2_2 1_555 1_555
O11 C1_2 1_555 1_555
O2_2 C1_2 1_555 1_555
O9_2 Cd6 1_555 1_555
H1_2 O9_2 1_555 1_555
H2_2 O9_2 1_555 1_555
C1_2 C10_2 1_555 1_555
C6_2 C5_2 1_555 1_555
C8_2 C7_2 1_555 1_555
C9_2 C8_2 1_555 1_555
C10_2 C9_2 1_555 1_555
C11_2 C10_2 1_555 1_555
H7_2 C11_2 1_555 1_555
C12_2 C11_2 1_555 1_555
H8_2 C12_2 1_555 1_555
C13_2 C12_2 1_555 1_555
C15_2 C9_2 1_555 1_555
C16_2 C5_2 1_555 1_555
H10_2 C16_2 1_555 1_555
C8_2 C16_2 1_555 1_555
C13_2 C15_2 1_555 1_555
H3_2 O10_2 1_555 1_555
H4_2 O10_2 1_555 1_555

#END
