
###############################################################################
#
# This file contains modified crystal structure data generated from the
# MOF subset of the Cambridge Structural Database (CSD) v543 
# hosted by the Cambridge Crystallographic Data Centre (CCDC).
#
# This work is licensed under the Creative Commons
# Attribution-NonCommercial-ShareAlike 4.0 International License.
# To view a copy of this license, visit
# http://creativecommons.org/licenses/by-nc-sa/4.0/
# or send a letter to
# Creative Commons, PO Box 1866, Mountain View, CA 94042, USA.
#
# CIF created using the CSD Python API on 29 September 2022
# The structure has been converted into the P1 space group
# The structure has a 3D framework
# The original CSD entry HOHHUK is in the monoclinic crystal system
# The framework has been calculated to contain at least 10.0% void space
# The void calculation uses a probe of radius 1.32A, grid spacing 0.4
#
###############################################################################

data_HOHHUK
_chemical_formula_moiety         '(C118 H80 Cd10 O36)n'
_symmetry_cell_setting           triclinic
_symmetry_space_group_name_H-M   'P 1'
_symmetry_Int_Tables_number      1
_space_group_name_Hall           'P 1'
loop_
_symmetry_equiv_pos_site_id
_symmetry_equiv_pos_as_xyz
1 x,y,z
_cell_length_a                   18.2130(6)
_cell_length_b                   21.7508(6)
_cell_length_c                   12.6987(4)
_cell_angle_alpha                90
_cell_angle_beta                 129.6840(10)
_cell_angle_gamma                90
_cell_volume                     3871.4
loop_
_atom_site_label
_atom_site_type_symbol
_atom_site_fract_x
_atom_site_fract_y
_atom_site_fract_z
Cd1 Cd 0.2500 0.2500 0.0000
C1 C 0.0000 0.0507(2) 0.2500
C2 C 0.0122(2) 0.09268(15) 0.1640(3)
C3 C 0.0786(3) 0.08213(17) 0.1453(4)
H1 H 0.1181 0.0467 0.1848
C4 C 0.0882(3) 0.12247(18) 0.0698(4)
H2 H 0.1340 0.1143 0.0584
C5 C 0.0316(3) 0.17463(16) 0.0112(4)
O6 O 0.01150(19) 0.26498(13) 0.6205(3)
C20 C 0.0360(3) 0.18524(17) 0.4729(4)
H13 H 0.0759 0.2204 0.5136
C21 C 0.0454(3) 0.14486(17) 0.3980(4)
H14 H 0.0922 0.1528 0.3886
C23 C 0.0891(2) 0.00901(16) 0.3457(4)
C24 C 0.1599(3) 0.02117(18) 0.4840(4)
H15 H 0.1540 0.0559 0.5235
O10 O 0.2971(3) 0.2478(2) 0.2094(3)
H19 H 0.2717 0.2553 0.2367
H20 H 0.3693 0.2475 0.2793
Cd8 Cd 0.0000 0.325091(16) 0.7500
O13 O 0.39167(19) 0.29148(12) 0.0755(3)
O17 O 0.3350(2) 0.16023(13) 0.0513(3)
Cd1_2 Cd 0.2500 0.2500 1.0000
O1 O 0.2029(3) 0.2522(2) 0.7906(3)
O3 O 0.10833(19) 0.20852(12) 0.9245(3)
C8 C 0.0449(3) 0.21890(17) 0.9329(4)
H9 H 0.2283 0.2447 0.7633
H10 H 0.1307 0.2525 0.7207
O16 O 0.1650(2) 0.33977(13) 0.9487(3)
O8 O 0.4030(2) 0.90680(14) 0.7187(3)
O9 O 0.3350(2) 0.83977(13) 0.5513(3)
C25 C 0.2394(3) 0.98306(19) 0.5658(4)
H16 H 0.2873 0.9922 0.6602
C26 C 0.2491(3) 0.93185(18) 0.5105(4)
C27 C 0.1788(3) 0.91916(17) 0.3723(4)
H17 H 0.1848 0.8843 0.3334
C28 C 0.0998(3) 0.95701(16) 0.2907(4)
H18 H 0.0521 0.9477 0.1963
C29 C 0.3339(3) 0.89060(17) 0.5993(4)
Cd5 Cd 0.2500 0.7500 0.5000
Cd6 Cd 0.5000 0.825091(16) 0.7500
C1_2 C 1.0000 0.0507(2) 0.2500
C6 C 0.9640(3) 0.18524(17) 0.0271(4)
C7 C 0.9546(3) 0.14486(17) 0.1020(4)
H4 H 0.9078 0.1528 0.1114
C9 C 0.9109(2) 0.00901(16) 0.1543(4)
C10 C 0.8401(3) 0.02117(18) 0.0160(4)
O7 O 0.89167(19) 0.20852(12) 0.5755(3)
C16 C 0.9878(2) 0.09268(15) 0.3360(3)
C17 C 0.9214(3) 0.08213(17) 0.3547(4)
H11 H 0.8819 0.0467 0.3152
C18 C 0.9118(3) 0.12247(18) 0.4302(4)
H12 H 0.8660 0.1143 0.4416
C19 C 0.9684(3) 0.17463(16) 0.4888(4)
C22 C 0.9551(3) 0.21890(17) 0.5671(4)
Cd3 Cd 0.7500 0.2500 0.5000
Cd8_2 Cd 1.0000 0.325091(16) 0.7500
O2 O 0.98850(19) 0.26498(13) 0.8795(3)
H3 H 0.9241 0.2204 0.9864
H5 H 0.8460 0.0559 0.9765
C13 C 0.8212(3) 0.91916(17) 0.1277(4)
H7 H 0.8152 0.8843 0.1666
C14 C 0.9002(3) 0.95701(16) 0.2093(4)
H8 H 0.9479 0.9477 0.3037
Cd4 Cd 0.7500 0.7500 0.0000
O4 O 0.5970(2) 0.90680(14) 0.7813(3)
O5 O 0.6650(2) 0.83977(13) 0.9487(3)
C11 C 0.7606(3) 0.98306(19) 0.9342(4)
H6 H 0.7127 0.9922 0.8398
C12 C 0.7509(3) 0.93185(18) 0.9895(4)
C15 C 0.6661(3) 0.89060(17) 0.9007(4)
Cd4_2 Cd 0.7500 0.7500 1.0000
O11 O 0.48850(19) 0.76498(13) 0.8795(3)
O12 O 0.51150(19) 0.76498(13) 0.6205(3)
O1_2 O 0.7971(3) 0.2522(2) 0.7094(3)
H9_2 H 0.7717 0.2447 0.7367
H10_2 H 0.8693 0.2525 0.7793
O10_2 O 0.7029(3) 0.2478(2) 0.2906(3)
H19_2 H 0.7283 0.2553 0.2633
H20_2 H 0.6307 0.2475 0.2207
O13_2 O 0.60833(19) 0.29148(12) 0.4245(3)
O16_2 O 0.8350(2) 0.33977(13) 0.5513(3)
O17_2 O 0.6650(2) 0.16023(13) 0.4487(3)
C1_3 C 0.5000 0.5507(2) 0.2500
C2_2 C 0.5122(2) 0.59268(15) 0.1640(3)
C3_2 C 0.5786(3) 0.58213(17) 0.1453(4)
H1_2 H 0.6181 0.5467 0.1848
C4_2 C 0.5882(3) 0.62247(18) 0.0698(4)
H2_2 H 0.6340 0.6143 0.0584
C5_2 C 0.5316(3) 0.67463(16) 0.0112(4)
C6_2 C 0.4640(3) 0.68524(17) 0.0271(4)
C7_2 C 0.4546(3) 0.64486(17) 0.1020(4)
H4_2 H 0.4078 0.6528 0.1114
C9_2 C 0.4109(2) 0.50901(16) 0.1543(4)
C10_2 C 0.3401(3) 0.52117(18) 0.0160(4)
C13_2 C 0.3212(3) 0.41916(17) 0.1277(4)
H7_2 H 0.3152 0.3843 0.1666
C14_2 C 0.4002(3) 0.45701(16) 0.2093(4)
H8_2 H 0.4479 0.4477 0.3037
O7_2 O 0.39167(19) 0.70852(12) 0.5755(3)
O8_2 O 0.9030(2) 0.40680(14) 0.7187(3)
C16_2 C 0.4878(2) 0.59268(15) 0.3360(3)
C17_2 C 0.4214(3) 0.58213(17) 0.3547(4)
H11_2 H 0.3819 0.5467 0.3152
C18_2 C 0.4118(3) 0.62247(18) 0.4302(4)
H12_2 H 0.3660 0.6143 0.4416
C19_2 C 0.4684(3) 0.67463(16) 0.4888(4)
C20_2 C 0.5360(3) 0.68524(17) 0.4729(4)
H13_2 H 0.5759 0.7204 0.5136
C21_2 C 0.5454(3) 0.64486(17) 0.3980(4)
H14_2 H 0.5922 0.6528 0.3886
C22_2 C 0.4551(3) 0.71890(17) 0.5671(4)
C23_2 C 0.5891(2) 0.50901(16) 0.3457(4)
C24_2 C 0.6599(3) 0.52117(18) 0.4840(4)
H15_2 H 0.6540 0.5559 0.5235
C25_2 C 0.7394(3) 0.48306(19) 0.5658(4)
H16_2 H 0.7873 0.4922 0.6602
C26_2 C 0.7491(3) 0.43185(18) 0.5105(4)
C27_2 C 0.6788(3) 0.41916(17) 0.3723(4)
H17_2 H 0.6848 0.3843 0.3334
C28_2 C 0.5998(3) 0.45701(16) 0.2907(4)
H18_2 H 0.5521 0.4477 0.1963
C29_2 C 0.8339(3) 0.39060(17) 0.5993(4)
O10_3 O 0.7971(3) 0.7478(2) 0.2094(3)
H19_3 H 0.7717 0.7553 0.2367
H20_3 H 0.8693 0.7475 0.2793
O13_3 O 0.89167(19) 0.79148(12) 0.0755(3)
O17_3 O 0.8350(2) 0.66023(13) 0.0513(3)
O1_3 O 0.7029(3) 0.7522(2) 0.7906(3)
O3_2 O 0.60833(19) 0.70852(12) 0.9245(3)
O4_2 O 0.0970(2) 0.40680(14) 0.7813(3)
H3_2 H 0.4241 0.7204 0.9864
C8_2 C 0.5449(3) 0.71890(17) 0.9329(4)
H5_2 H 0.3460 0.5559 0.9765
C11_2 C 0.2606(3) 0.48306(19) 0.9342(4)
H6_2 H 0.2127 0.4922 0.8398
C12_2 C 0.2509(3) 0.43185(18) 0.9895(4)
C15_2 C 0.1661(3) 0.39060(17) 0.9007(4)
H9_3 H 0.7283 0.7447 0.7633
H10_3 H 0.6307 0.7525 0.7207
O1_4 O 0.2971(3) 0.7522(2) 0.7094(3)
H9_4 H 0.2717 0.7447 0.7367
H10_4 H 0.3693 0.7525 0.7793
O10_4 O 0.2029(3) 0.7478(2) 0.2906(3)
H19_4 H 0.2283 0.7553 0.2633
H20_4 H 0.1307 0.7475 0.2207
O13_4 O 0.10833(19) 0.79148(12) 0.4245(3)
O17_4 O 0.1650(2) 0.66023(13) 0.4487(3)
Cd2 Cd 0.5000 0.174909(16) 0.2500
O4_3 O 0.4030(2) 0.09320(14) 0.2187(3)
C11_3 C 0.2394(3) 0.01694(19) 0.0658(4)
H6_3 H 0.2873 0.0078 0.1602
C12_3 C 0.2491(3) 0.06815(18) 0.0105(4)
C15_3 C 0.3339(3) 0.10940(17) 0.0993(4)
O11_2 O 0.51150(19) 0.23502(13) 0.1205(3)
O12_2 O 0.48850(19) 0.23502(13) 0.3795(3)
O14 O 0.5970(2) 0.09320(14) 0.2813(3)
C13_3 C 0.1788(3) 0.08084(17) 0.8723(4)
H7_3 H 0.1848 0.1157 0.8334
C14_3 C 0.0998(3) 0.04299(16) 0.7907(4)
H8_3 H 0.0521 0.0523 0.6963
O2_2 O 0.01150(19) 0.73502(13) 0.1205(3)
H3_3 H 0.0759 0.7796 0.0136
H5_3 H 0.1540 0.9441 0.0235
Cd7 Cd 0.0000 0.674909(16) 0.2500
C1_4 C 0.0000 0.9493(2) 0.7500
C6_3 C 0.0360(3) 0.81476(17) 0.9729(4)
C7_3 C 0.0454(3) 0.85514(17) 0.8980(4)
H4_3 H 0.0922 0.8472 0.8886
C9_3 C 0.0891(2) 0.99099(16) 0.8457(4)
C10_3 C 0.1599(3) 0.97883(18) 0.9840(4)
C16_3 C 0.0122(2) 0.90732(15) 0.6640(3)
C17_3 C 0.0786(3) 0.91787(17) 0.6453(4)
H11_3 H 0.1181 0.9533 0.6848
C18_3 C 0.0882(3) 0.87753(18) 0.5698(4)
H12_3 H 0.1340 0.8857 0.5584
C19_3 C 0.0316(3) 0.82537(16) 0.5112(4)
C22_3 C 0.0449(3) 0.78110(17) 0.4329(4)
C25_3 C 0.7606(3) 0.01694(19) 0.4342(4)
H16_3 H 0.7127 0.0078 0.3398
C26_3 C 0.7509(3) 0.06815(18) 0.4895(4)
C27_3 C 0.8212(3) 0.08084(17) 0.6277(4)
H17_3 H 0.8152 0.1157 0.6666
C28_3 C 0.9002(3) 0.04299(16) 0.7093(4)
H18_3 H 0.9479 0.0523 0.8037
C29_3 C 0.6661(3) 0.10940(17) 0.4007(4)
C8_3 C 0.9551(3) 0.78110(17) 0.0671(4)
Cd7_2 Cd 1.0000 0.674909(16) 0.2500
C1_5 C 1.0000 0.9493(2) 0.7500
C2_3 C 0.9878(2) 0.90732(15) 0.8360(3)
C3_3 C 0.9214(3) 0.91787(17) 0.8547(4)
H1_3 H 0.8819 0.9533 0.8152
C4_3 C 0.9118(3) 0.87753(18) 0.9302(4)
H2_3 H 0.8660 0.8857 0.9416
C5_3 C 0.9684(3) 0.82537(16) 0.9888(4)
O6_2 O 0.98850(19) 0.73502(13) 0.3795(3)
C20_3 C 0.9640(3) 0.81476(17) 0.5271(4)
H13_3 H 0.9241 0.7796 0.4864
C21_3 C 0.9546(3) 0.85514(17) 0.6020(4)
H14_3 H 0.9078 0.8472 0.6114
C23_3 C 0.9109(2) 0.99099(16) 0.6543(4)
C24_3 C 0.8401(3) 0.97883(18) 0.5160(4)
H15_3 H 0.8460 0.9441 0.4765
O14_2 O 0.0970(2) 0.59320(14) 0.2813(3)
O4_4 O 0.9030(2) 0.59320(14) 0.2187(3)
H3_4 H 0.5759 0.2796 0.0136
C8_4 C 0.4551(3) 0.28110(17) 0.0671(4)
H5_4 H 0.6540 0.4441 0.0235
C11_4 C 0.7394(3) 0.51694(19) 0.0658(4)
H6_4 H 0.7873 0.5078 0.1602
C12_4 C 0.7491(3) 0.56815(18) 0.0105(4)
C15_4 C 0.8339(3) 0.60940(17) 0.0993(4)
C1_6 C 0.5000 0.4493(2) 0.7500
C2_4 C 0.4878(2) 0.40732(15) 0.8360(3)
C3_4 C 0.4214(3) 0.41787(17) 0.8547(4)
H1_4 H 0.3819 0.4533 0.8152
C4_4 C 0.4118(3) 0.37753(18) 0.9302(4)
H2_4 H 0.3660 0.3857 0.9416
C5_4 C 0.4684(3) 0.32537(16) 0.9888(4)
C6_4 C 0.5360(3) 0.31476(17) 0.9729(4)
C7_4 C 0.5454(3) 0.35514(17) 0.8980(4)
H4_4 H 0.5922 0.3472 0.8886
C9_4 C 0.5891(2) 0.49099(16) 0.8457(4)
C10_4 C 0.6599(3) 0.47883(18) 0.9840(4)
C13_4 C 0.6788(3) 0.58084(17) 0.8723(4)
H7_4 H 0.6848 0.6157 0.8334
C14_4 C 0.5998(3) 0.54299(16) 0.7907(4)
H8_4 H 0.5521 0.5523 0.6963
C16_4 C 0.5122(2) 0.40732(15) 0.6640(3)
C17_4 C 0.5786(3) 0.41787(17) 0.6453(4)
H11_4 H 0.6181 0.4533 0.6848
C18_4 C 0.5882(3) 0.37753(18) 0.5698(4)
H12_4 H 0.6340 0.3857 0.5584
C19_4 C 0.5316(3) 0.32537(16) 0.5112(4)
C20_4 C 0.4640(3) 0.31476(17) 0.5271(4)
H13_4 H 0.4241 0.2796 0.4864
C21_4 C 0.4546(3) 0.35514(17) 0.6020(4)
H14_4 H 0.4078 0.3472 0.6114
C22_4 C 0.5449(3) 0.28110(17) 0.4329(4)
C23_4 C 0.4109(2) 0.49099(16) 0.6543(4)
C24_4 C 0.3401(3) 0.47883(18) 0.5160(4)
H15_4 H 0.3460 0.4441 0.4765
C25_4 C 0.2606(3) 0.51694(19) 0.4342(4)
H16_4 H 0.2127 0.5078 0.3398
C26_4 C 0.2509(3) 0.56815(18) 0.4895(4)
C27_4 C 0.3212(3) 0.58084(17) 0.6277(4)
H17_4 H 0.3152 0.6157 0.6666
C28_4 C 0.4002(3) 0.54299(16) 0.7093(4)
H18_4 H 0.4479 0.5523 0.8037
C29_4 C 0.1661(3) 0.60940(17) 0.4007(4)
loop_
_geom_bond_atom_site_label_1
_geom_bond_atom_site_label_2
_geom_bond_site_symmetry_1
_geom_bond_site_symmetry_2
C1 C2 1_555 1_555
C2 C3 1_555 1_555
C3 H1 1_555 1_555
C4 C3 1_555 1_555
H2 C4 1_555 1_555
C5 C4 1_555 1_555
H13 C20 1_555 1_555
H14 C21 1_555 1_555
C23 C1 1_555 1_555
C24 C23 1_555 1_555
H15 C24 1_555 1_555
O10 Cd1 1_555 1_555
H19 O10 1_555 1_555
H20 O10 1_555 1_555
Cd8 O6 1_555 1_555
O13 Cd1 1_555 1_555
O17 Cd1 1_555 1_555
C20 C21 1_555 1_555
Cd1_2 O1 1_555 1_555
O1 H9 1_555 1_555
O3 Cd1_2 1_555 1_555
C8 O3 1_555 1_555
H10 O1 1_555 1_555
O16 Cd1_2 1_555 1_555
Cd8 O16 1_555 1_555
O8 C29 1_555 1_555
O9 C29 1_555 1_555
H16 C25 1_555 1_555
C26 C25 1_555 1_555
C27 C26 1_555 1_555
H17 C27 1_555 1_555
H18 C28 1_555 1_555
C29 C26 1_555 1_555
Cd5 O9 1_555 1_555
Cd6 O8 1_555 1_555
O9 Cd6 1_555 1_555
C27 C28 1_555 1_555
H4 C7 1_555 1_555
C9 C1_2 1_555 1_555
C10 C9 1_555 1_555
O7 C22 1_555 1_555
C16 C1_2 1_555 1_555
C17 C16 1_555 1_555
H11 C17 1_555 1_555
C18 C17 1_555 1_555
H12 C18 1_555 1_555
C19 C18 1_555 1_555
C22 C19 1_555 1_555
Cd3 O7 1_555 1_555
C6 C7 1_555 1_555
Cd8_2 O2 1_555 1_555
H7 C13 1_555 1_555
H8 C14 1_555 1_555
C13 C14 1_555 1_555
Cd6 O4 1_555 1_555
O4 C15 1_555 1_555
O5 Cd6 1_555 1_555
H6 C11 1_555 1_555
C12 C11 1_555 1_555
C15 O5 1_555 1_555
Cd4_2 O5 1_555 1_555
O11 Cd6 1_555 1_555
O12 Cd6 1_555 1_555
C12 C15 1_555 1_555
Cd3 O1_2 1_555 1_555
O1_2 H9_2 1_555 1_555
H10_2 O1_2 1_555 1_555
O10_2 Cd3 1_555 1_555
H19_2 O10_2 1_555 1_555
H20_2 O10_2 1_555 1_555
O13_2 Cd3 1_555 1_555
O16_2 Cd3 1_555 1_555
O17_2 Cd3 1_555 1_555
Cd8_2 O16_2 1_555 1_555
C1_3 C2_2 1_555 1_555
C2_2 C3_2 1_555 1_555
C3_2 H1_2 1_555 1_555
C4_2 C3_2 1_555 1_555
H2_2 C4_2 1_555 1_555
C5_2 C4_2 1_555 1_555
C6_2 C5_2 1_555 1_555
C7_2 C2_2 1_555 1_555
H4_2 C7_2 1_555 1_555
C9_2 C1_3 1_555 1_555
C10_2 C9_2 1_555 1_555
H7_2 C13_2 1_555 1_555
C14_2 C9_2 1_555 1_555
H8_2 C14_2 1_555 1_555
O12 C22_2 1_555 1_555
O7_2 C22_2 1_555 1_555
O8_2 C29_2 1_555 1_555
O16_2 C29_2 1_555 1_555
C16_2 C1_3 1_555 1_555
C17_2 C16_2 1_555 1_555
H11_2 C17_2 1_555 1_555
C18_2 C17_2 1_555 1_555
H12_2 C18_2 1_555 1_555
C19_2 C18_2 1_555 1_555
C20_2 C19_2 1_555 1_555
H13_2 C20_2 1_555 1_555
C21_2 C16_2 1_555 1_555
H14_2 C21_2 1_555 1_555
C22_2 C19_2 1_555 1_555
C23_2 C1_3 1_555 1_555
C24_2 C23_2 1_555 1_555
H15_2 C24_2 1_555 1_555
C25_2 C24_2 1_555 1_555
H16_2 C25_2 1_555 1_555
C26_2 C25_2 1_555 1_555
C27_2 C26_2 1_555 1_555
H17_2 C27_2 1_555 1_555
C28_2 C23_2 1_555 1_555
H18_2 C28_2 1_555 1_555
C29_2 C26_2 1_555 1_555
O10_3 Cd4 1_555 1_555
H19_3 O10_3 1_555 1_555
H20_3 O10_3 1_555 1_555
Cd5 O7_2 1_555 1_555
Cd8_2 O8_2 1_555 1_555
O13_3 Cd4 1_555 1_555
O17_3 Cd4 1_555 1_555
C6_2 C7_2 1_555 1_555
C13_2 C14_2 1_555 1_555
C20_2 C21_2 1_555 1_555
C27_2 C28_2 1_555 1_555
Cd4_2 O1_3 1_555 1_555
Cd8 O4_2 1_555 1_555
O1_3 H9_3 1_555 1_555
O11 C8_2 1_555 1_555
O3_2 Cd4_2 1_555 1_555
O4_2 C15_2 1_555 1_555
C8_2 O3_2 1_555 1_555
H6_2 C11_2 1_555 1_555
C12_2 C11_2 1_555 1_555
C15_2 O16 1_555 1_555
H10_3 O1_3 1_555 1_555
C12_2 C15_2 1_555 1_555
Cd5 O1_4 1_555 1_555
O1_4 H9_4 1_555 1_555
H10_4 O1_4 1_555 1_555
O10_4 Cd5 1_555 1_555
H19_4 O10_4 1_555 1_555
H20_4 O10_4 1_555 1_555
O13_4 Cd5 1_555 1_555
O17_4 Cd5 1_555 1_555
Cd2 O4_3 1_555 1_555
O4_3 C15_3 1_555 1_555
O17 Cd2 1_555 1_555
H6_3 C11_3 1_555 1_555
C12_3 C11_3 1_555 1_555
C15_3 O17 1_555 1_555
O11_2 Cd2 1_555 1_555
O12_2 Cd2 1_555 1_555
O14 Cd2 1_555 1_555
O17_2 Cd2 1_555 1_555
C12_3 C15_3 1_555 1_555
H7_3 C13_3 1_555 1_555
H8_3 C14_3 1_555 1_555
C13_3 C14_3 1_555 1_555
Cd7 O2_2 1_555 1_555
H4_3 C7_3 1_555 1_555
C9_3 C1_4 1_555 1_555
C10_3 C9_3 1_555 1_555
O13_4 C22_3 1_555 1_555
C16_3 C1_4 1_555 1_555
C17_3 C16_3 1_555 1_555
H11_3 C17_3 1_555 1_555
C18_3 C17_3 1_555 1_555
H12_3 C18_3 1_555 1_555
C19_3 C18_3 1_555 1_555
C22_3 C19_3 1_555 1_555
C6_3 C7_3 1_555 1_555
O14 C29_3 1_555 1_555
O17_2 C29_3 1_555 1_555
H16_3 C25_3 1_555 1_555
C26_3 C25_3 1_555 1_555
C27_3 C26_3 1_555 1_555
H17_3 C27_3 1_555 1_555
H18_3 C28_3 1_555 1_555
C29_3 C26_3 1_555 1_555
C27_3 C28_3 1_555 1_555
C8_3 O13_3 1_555 1_555
Cd7_2 O17_3 1_555 1_555
C1_5 C2_3 1_555 1_555
C2_3 C3_3 1_555 1_555
C3_3 H1_3 1_555 1_555
C4_3 C3_3 1_555 1_555
H2_3 C4_3 1_555 1_555
C5_3 C4_3 1_555 1_555
H13_3 C20_3 1_555 1_555
H14_3 C21_3 1_555 1_555
C23_3 C1_5 1_555 1_555
C24_3 C23_3 1_555 1_555
H15_3 C24_3 1_555 1_555
Cd7_2 O6_2 1_555 1_555
C20_3 C21_3 1_555 1_555
Cd7 O17_4 1_555 1_555
O14_2 Cd7 1_555 1_555
Cd7_2 O4_4 1_555 1_555
O11_2 C8_4 1_555 1_555
O4_4 C15_4 1_555 1_555
C8_4 O13 1_555 1_555
H6_4 C11_4 1_555 1_555
C12_4 C11_4 1_555 1_555
C15_4 O17_3 1_555 1_555
C12_4 C15_4 1_555 1_555
C1_6 C2_4 1_555 1_555
C2_4 C3_4 1_555 1_555
C3_4 H1_4 1_555 1_555
C4_4 C3_4 1_555 1_555
H2_4 C4_4 1_555 1_555
C5_4 C4_4 1_555 1_555
C6_4 C5_4 1_555 1_555
C7_4 C2_4 1_555 1_555
H4_4 C7_4 1_555 1_555
C9_4 C1_6 1_555 1_555
C10_4 C9_4 1_555 1_555
H7_4 C13_4 1_555 1_555
C14_4 C9_4 1_555 1_555
H8_4 C14_4 1_555 1_555
O12_2 C22_4 1_555 1_555
O13_2 C22_4 1_555 1_555
O14_2 C29_4 1_555 1_555
O17_4 C29_4 1_555 1_555
C16_4 C1_6 1_555 1_555
C17_4 C16_4 1_555 1_555
H11_4 C17_4 1_555 1_555
C18_4 C17_4 1_555 1_555
H12_4 C18_4 1_555 1_555
C19_4 C18_4 1_555 1_555
C20_4 C19_4 1_555 1_555
H13_4 C20_4 1_555 1_555
C21_4 C16_4 1_555 1_555
H14_4 C21_4 1_555 1_555
C22_4 C19_4 1_555 1_555
C23_4 C1_6 1_555 1_555
C24_4 C23_4 1_555 1_555
H15_4 C24_4 1_555 1_555
C25_4 C24_4 1_555 1_555
H16_4 C25_4 1_555 1_555
C26_4 C25_4 1_555 1_555
C27_4 C26_4 1_555 1_555
H17_4 C27_4 1_555 1_555
C28_4 C23_4 1_555 1_555
H18_4 C28_4 1_555 1_555
C29_4 C26_4 1_555 1_555
C6_4 C7_4 1_555 1_555
C13_4 C14_4 1_555 1_555
C20_4 C21_4 1_555 1_555
C27_4 C28_4 1_555 1_555

#END
