
###############################################################################
#
# This file contains modified crystal structure data generated from the
# MOF subset of the Cambridge Structural Database (CSD) v543 
# hosted by the Cambridge Crystallographic Data Centre (CCDC).
#
# This work is licensed under the Creative Commons
# Attribution-NonCommercial-ShareAlike 4.0 International License.
# To view a copy of this license, visit
# http://creativecommons.org/licenses/by-nc-sa/4.0/
# or send a letter to
# Creative Commons, PO Box 1866, Mountain View, CA 94042, USA.
#
# CIF created using the CSD Python API on 29 September 2022
# The structure has been converted into the P1 space group
# The structure has a 3D framework
# The original CSD entry HOHJIA is in the triclinic crystal system
# The framework has been calculated to contain at least 10.0% void space
# The void calculation uses a probe of radius 1.32A, grid spacing 0.4
#
###############################################################################

data_HOHJIA
_chemical_formula_moiety         '(C34 H22 Eu2 O20)n'
_symmetry_cell_setting           triclinic
_symmetry_space_group_name_H-M   'P 1'
_symmetry_Int_Tables_number      1
_space_group_name_Hall           'P 1'
loop_
_symmetry_equiv_pos_site_id
_symmetry_equiv_pos_as_xyz
1 x,y,z
_cell_length_a                   6.8746(14)
_cell_length_b                   12.505(3)
_cell_length_c                   13.215(3)
_cell_angle_alpha                67.89(3)
_cell_angle_beta                 89.14(3)
_cell_angle_gamma                82.65(3)
_cell_volume                     1043.18
loop_
_atom_site_label
_atom_site_type_symbol
_atom_site_fract_x
_atom_site_fract_y
_atom_site_fract_z
C17 C 0.0258(7) 0.3728(4) 0.1431(4)
O7 O 0.1874(6) 0.4062(4) 0.0764(4)
H7 H 0.178425 0.388891 0.021247
O8 O 0.0156(6) 0.4018(3) 0.2231(3)
O5 O 0.1248(6) 0.3559(3) 0.9177(3)
Eu5 Eu 0.07661(3) 0.45275(2) 0.69933(2)
C4 C 0.3770(9) 0.0125(4) 0.3433(4)
H2 H 0.095895 0.047526 0.407578
C7 C 0.8169(8) 0.2836(4) 0.0304(4)
C8 C 0.8663(7) 0.3014(4) 0.1290(4)
C9 C 0.7362(8) 0.2513(4) 0.2191(5)
H4 H 0.754669 0.265322 0.283860
C10 C 0.5774(9) 0.1802(4) 0.2183(5)
C11 C 0.5342(9) 0.1635(5) 0.1218(5)
H5 H 0.433538 0.119617 0.117761
C12 C 0.6502(9) 0.2163(5) 0.0306(5)
C13 C 0.4409(8) 0.1316(4) 0.3151(5)
O9 O 0.3790(7) 0.1872(3) 0.3715(4)
Eu3 Eu 0.92339(3) 0.54725(2) 0.30067(2)
H6 H 0.619719 0.208321 0.964151
C16 C 0.9284(8) 0.3316(4) 0.9230(4)
O6 O 0.8209(6) 0.3461(3) 0.8377(3)
C1 C 0.2645(8) 0.7860(4) 0.4154(4)
C2 C 0.4555(7) 0.8127(4) 0.3561(4)
C3 C 0.5099(8) 0.9264(4) 0.3193(5)
H1 H 0.626883 0.944935 0.281090
C5 C 0.1820(9) 0.9866(5) 0.3980(5)
C6 C 0.1279(9) 0.8735(5) 0.4346(5)
H3 H 0.008081 0.855907 0.469880
C14 C 0.1907(7) 0.6664(4) 0.4622(4)
C15 C 0.6102(7) 0.7219(4) 0.3348(4)
O1 O 0.1887(6) 0.6212(3) 0.5641(3)
O2 O 0.1272(6) 0.6246(3) 0.3973(4)
O3 O 0.6398(6) 0.6193(3) 0.4071(3)
O4 O 0.7158(6) 0.7470(3) 0.2484(3)
O11 O 0.2769(5) 0.4143(3) 0.3808(3)
H10 H 0.276027 0.341431 0.385623
H11 H 0.298611 0.405592 0.449861
O16 O 0.1791(6) 0.6539(3) 0.1623(3)
O10 O 0.5786(6) 0.5210(4) 0.2345(3)
H8 H 0.504361 0.589296 0.203399
H9 H 0.509376 0.483459 0.290988
O12 O 0.8113(6) 0.3788(3) 0.4359(3)
O15 O 0.8752(6) 0.6441(3) 0.0823(3)
O10_2 O 0.4214(6) 0.4790(4) 0.7655(3)
H8_2 H 0.495639 0.410704 0.796601
H9_2 H 0.490624 0.516541 0.709012
O13 O 0.3602(6) 0.3807(3) 0.5929(3)
O14 O 0.2842(6) 0.2530(3) 0.7516(3)
C1_2 C 0.7355(8) 0.2140(4) 0.5846(4)
C2_2 C 0.5445(7) 0.1873(4) 0.6439(4)
C3_2 C 0.4901(8) 0.0736(4) 0.6807(5)
H1_2 H 0.373117 0.055065 0.718910
C5_2 C 0.8180(9) 0.0134(5) 0.6020(5)
C6_2 C 0.8721(9) 0.1265(5) 0.5654(5)
H3_2 H 0.991919 0.144093 0.530120
C14_2 C 0.8093(7) 0.3336(4) 0.5378(4)
C15_2 C 0.3898(7) 0.2781(4) 0.6652(4)
O2_2 O 0.8728(6) 0.3754(3) 0.6027(4)
O11_2 O 0.7231(5) 0.5857(3) 0.6192(3)
H10_2 H 0.723973 0.658569 0.614377
H11_2 H 0.701389 0.594408 0.550139
O17 O 0.9844(6) 0.5982(3) 0.7769(3)
H6_2 H 0.380281 0.791679 0.035849
C16_2 C 0.0716(8) 0.6684(4) 0.0770(4)
C4_2 C 0.6230(9) 0.9875(4) 0.6567(4)
H2_2 H 0.904105 0.952474 0.592422
C7_2 C 0.1831(8) 0.7164(4) 0.9696(4)
C8_2 C 0.1337(7) 0.6986(4) 0.8710(4)
C9_2 C 0.2638(8) 0.7487(4) 0.7809(5)
H4_2 H 0.245331 0.734678 0.716140
C10_2 C 0.4226(9) 0.8198(4) 0.7817(5)
C11_2 C 0.4658(9) 0.8365(5) 0.8782(5)
H5_2 H 0.566462 0.880383 0.882239
C12_2 C 0.3498(9) 0.7837(5) 0.9694(5)
C13_2 C 0.5591(8) 0.8684(4) 0.6849(5)
O9_2 O 0.6210(7) 0.8128(3) 0.6285(4)
C17_2 C 0.9742(7) 0.6272(4) 0.8569(4)
O7_2 O 0.8126(6) 0.5938(4) 0.9236(4)
H7_2 H 0.821575 0.611109 0.978753
loop_
_geom_bond_atom_site_label_1
_geom_bond_atom_site_label_2
_geom_bond_site_symmetry_1
_geom_bond_site_symmetry_2
O7 C17 1_555 1_555
H7 O7 1_555 1_555
O8 C17 1_555 1_555
Eu5 O5 1_555 1_555
C7 C8 1_555 1_555
C8 C9 1_555 1_555
C9 H4 1_555 1_555
C10 C9 1_555 1_555
C11 C10 1_555 1_555
H5 C11 1_555 1_555
C12 C7 1_555 1_555
C13 C4 1_555 1_555
O9 C13 1_555 1_555
C10 C13 1_555 1_555
C11 C12 1_555 1_555
O6 C16 1_555 1_555
C1 C2 1_555 1_555
C2 C3 1_555 1_555
C3 H1 1_555 1_555
C6 C1 1_555 1_555
H3 C6 1_555 1_555
C14 C1 1_555 1_555
C15 C2 1_555 1_555
O1 C14 1_555 1_555
O2 C14 1_555 1_555
O3 C15 1_555 1_555
O4 C15 1_555 1_555
H10 O11 1_555 1_555
H11 O11 1_555 1_555
Eu3 O3 1_555 1_555
Eu5 O1 1_555 1_555
C5 C6 1_555 1_555
O4 Eu3 1_555 1_555
O10 Eu3 1_555 1_555
H8 O10 1_555 1_555
H9 O10 1_555 1_555
O12 Eu3 1_555 1_555
O15 Eu3 1_555 1_555
O10_2 Eu5 1_555 1_555
H8_2 O10_2 1_555 1_555
H9_2 O10_2 1_555 1_555
O13 Eu5 1_555 1_555
O14 Eu5 1_555 1_555
C1_2 C2_2 1_555 1_555
C2_2 C3_2 1_555 1_555
C3_2 H1_2 1_555 1_555
C6_2 C1_2 1_555 1_555
H3_2 C6_2 1_555 1_555
C14_2 C1_2 1_555 1_555
C15_2 C2_2 1_555 1_555
O12 C14_2 1_555 1_555
O2_2 C14_2 1_555 1_555
O13 C15_2 1_555 1_555
O14 C15_2 1_555 1_555
H10_2 O11_2 1_555 1_555
H11_2 O11_2 1_555 1_555
C5_2 C6_2 1_555 1_555
O16 C16_2 1_555 1_555
C7_2 C8_2 1_555 1_555
C8_2 C9_2 1_555 1_555
C9_2 H4_2 1_555 1_555
C10_2 C9_2 1_555 1_555
C11_2 C10_2 1_555 1_555
H5_2 C11_2 1_555 1_555
C12_2 C7_2 1_555 1_555
C13_2 C4_2 1_555 1_555
O9_2 C13_2 1_555 1_555
C10_2 C13_2 1_555 1_555
C11_2 C12_2 1_555 1_555
O7_2 C17_2 1_555 1_555
H7_2 O7_2 1_555 1_555
O17 C17_2 1_555 1_555

#END
