
###############################################################################
#
# This file contains modified crystal structure data generated from the
# MOF subset of the Cambridge Structural Database (CSD) v543 
# hosted by the Cambridge Crystallographic Data Centre (CCDC).
#
# This work is licensed under the Creative Commons
# Attribution-NonCommercial-ShareAlike 4.0 International License.
# To view a copy of this license, visit
# http://creativecommons.org/licenses/by-nc-sa/4.0/
# or send a letter to
# Creative Commons, PO Box 1866, Mountain View, CA 94042, USA.
#
# CIF created using the CSD Python API on 29 September 2022
# The structure has been converted into the P1 space group
# The structure has a 3D framework
# The original CSD entry HOHJOG is in the triclinic crystal system
# The framework has been calculated to contain at least 10.0% void space
# The void calculation uses a probe of radius 1.32A, grid spacing 0.4
#
###############################################################################

data_HOHJOG
_chemical_formula_moiety         '(C34 H22 Gd2 O20)n'
_symmetry_cell_setting           triclinic
_symmetry_space_group_name_H-M   'P 1'
_symmetry_Int_Tables_number      1
_space_group_name_Hall           'P 1'
loop_
_symmetry_equiv_pos_site_id
_symmetry_equiv_pos_as_xyz
1 x,y,z
_cell_length_a                   6.056(5)
_cell_length_b                   12.483(5)
_cell_length_c                   13.139(5)
_cell_angle_alpha                68.010(5)
_cell_angle_beta                 89.271(5)
_cell_angle_gamma                82.849(5)
_cell_volume                     913.224
loop_
_atom_site_label
_atom_site_type_symbol
_atom_site_fract_x
_atom_site_fract_y
_atom_site_fract_z
C17 C 0.0308(14) 0.8743(6) 0.1420(8)
O7 O 0.1868(12) 0.9062(6) 0.0758(6)
H7 H 0.191093 0.872673 0.032575
O8 O 0.0122(11) 0.9027(5) 0.2236(6)
O6 O 0.1265(10) 0.8565(5) 0.9169(6)
Gd2 Gd 0.07762(6) 0.95287(3) 0.69914(4)
H4 H 0.618422 0.706595 0.963731
C16 C 0.9265(14) 0.8326(7) 0.9230(8)
O5 O 0.8232(10) 0.8469(5) 0.8362(6)
O10 O 0.4220(11) 0.9770(6) 0.7655(6)
O13 O 0.3603(10) 0.8819(5) 0.5927(5)
O14 O 0.2838(11) 0.7541(5) 0.7507(6)
O12 O 0.8754(11) 0.8766(6) 0.6008(6)
H1 H 0.007623 0.641633 0.533400
O11 O 0.2744(10) 0.9152(5) 0.3797(6)
H10 H 0.307999 0.917071 0.443181
H11 H 0.255541 0.842732 0.395479
C1 C 0.5470(14) 0.6880(7) 0.6430(7)
C2 C 0.7370(14) 0.7153(7) 0.5827(8)
C3 C 0.8734(16) 0.6262(7) 0.5676(8)
C4 C 0.8168(16) 0.5140(7) 0.6019(9)
H2 H 0.908951 0.456653 0.587027
C5 C 0.6239(15) 0.4873(7) 0.6581(8)
C6 C 0.4931(15) 0.5738(7) 0.6803(9)
H3 H 0.366306 0.556125 0.720769
C7 C 0.1384(15) 0.1994(7) 0.8730(8)
C8 C 0.1817(15) 0.2166(7) 0.9709(8)
C9 C 0.3481(17) 0.2839(8) 0.9715(8)
C10 C 0.4652(16) 0.3370(8) 0.8790(9)
H5 H 0.570960 0.384128 0.881170
C11 C 0.4247(15) 0.3198(7) 0.7839(8)
C12 C 0.2637(15) 0.2486(7) 0.7813(9)
H6 H 0.240806 0.234206 0.717912
C13 C 0.5615(15) 0.3680(7) 0.6859(9)
C14 C 0.8107(14) 0.8335(7) 0.5382(8)
C15 C 0.3883(14) 0.7796(7) 0.6633(8)
O1 O 0.8120(11) 0.8789(5) 0.4342(6)
O9 O 0.6227(13) 0.3121(5) 0.6304(7)
H8 H 0.600733 0.976725 0.199582
H9 H 0.498842 0.987058 0.288580
Gd5 Gd 0.92238(6) 0.04713(3) 0.30086(4)
C1_2 C 0.4530(14) 0.3120(7) 0.3570(7)
C2_2 C 0.2630(14) 0.2847(7) 0.4173(8)
C3_2 C 0.1266(16) 0.3738(7) 0.4324(8)
C4_2 C 0.1832(16) 0.4860(7) 0.3981(9)
H2_2 H 0.091049 0.543347 0.412973
C5_2 C 0.3761(15) 0.5127(7) 0.3419(8)
C6_2 C 0.5069(15) 0.4262(7) 0.3197(9)
H3_2 H 0.633694 0.443875 0.279231
C7_2 C 0.8616(15) 0.8006(7) 0.1270(8)
C8_2 C 0.8183(15) 0.7834(7) 0.0291(8)
C9_2 C 0.6519(17) 0.7161(8) 0.0285(8)
C10_2 C 0.5348(16) 0.6630(8) 0.1210(9)
H5_2 H 0.429040 0.615872 0.118830
C11_2 C 0.5753(15) 0.6802(7) 0.2161(8)
C12_2 C 0.7363(15) 0.7514(7) 0.2187(9)
H6_2 H 0.759194 0.765794 0.282088
C13_2 C 0.4385(15) 0.6320(7) 0.3141(9)
C14_2 C 0.1893(14) 0.1665(7) 0.4618(8)
C15_2 C 0.6117(14) 0.2204(7) 0.3367(8)
O1_2 O 0.1880(11) 0.1211(5) 0.5658(6)
O2 O 0.1246(11) 0.1234(6) 0.3992(6)
O3 O 0.6397(10) 0.1181(5) 0.4073(5)
O4 O 0.7162(11) 0.2459(5) 0.2493(6)
O9_2 O 0.3773(13) 0.6879(5) 0.3696(7)
H8_2 H 0.399267 0.023275 0.800418
H9_2 H 0.501158 0.012942 0.711420
H1_2 H 0.992377 0.358367 0.466600
O11_2 O 0.7256(10) 0.0848(5) 0.6203(6)
H10_2 H 0.692001 0.082929 0.556819
H11_2 H 0.744459 0.157268 0.604521
O17 O 0.9878(11) 0.0973(5) 0.7764(6)
O15 O 0.1768(10) 0.1531(5) 0.1638(6)
O10_2 O 0.5780(11) 0.0230(6) 0.2345(6)
O16 O 0.8735(10) 0.1435(5) 0.0831(6)
H4_2 H 0.381578 0.293405 0.036269
C16_2 C 0.0735(14) 0.1674(7) 0.0770(8)
C17_2 C 0.9692(14) 0.1257(6) 0.8580(8)
O7_2 O 0.8132(12) 0.0938(6) 0.9242(6)
H7_2 H 0.808907 0.127327 0.967425
loop_
_geom_bond_atom_site_label_1
_geom_bond_atom_site_label_2
_geom_bond_site_symmetry_1
_geom_bond_site_symmetry_2
O7 C17 1_555 1_555
H7 O7 1_555 1_555
O8 C17 1_555 1_555
O6 Gd2 1_555 1_555
O5 C16 1_555 1_555
O10 Gd2 1_555 1_555
O13 Gd2 1_555 1_555
O14 Gd2 1_555 1_555
H10 O11 1_555 1_555
H11 O11 1_555 1_555
C1 C2 1_555 1_555
C2 C3 1_555 1_555
C4 C3 1_555 1_555
H2 C4 1_555 1_555
C5 C4 1_555 1_555
C6 C1 1_555 1_555
H3 C6 1_555 1_555
C7 C8 1_555 1_555
C8 C9 1_555 1_555
C10 C9 1_555 1_555
H5 C10 1_555 1_555
C11 C10 1_555 1_555
C12 C7 1_555 1_555
H6 C12 1_555 1_555
C13 C5 1_555 1_555
C14 C2 1_555 1_555
C15 C1 1_555 1_555
O1 C14 1_555 1_555
O12 C14 1_555 1_555
O13 C15 1_555 1_555
O14 C15 1_555 1_555
O9 C13 1_555 1_555
C5 C6 1_555 1_555
C11 C12 1_555 1_555
C11 C13 1_555 1_555
C1_2 C2_2 1_555 1_555
C2_2 C3_2 1_555 1_555
C4_2 C3_2 1_555 1_555
H2_2 C4_2 1_555 1_555
C5_2 C4_2 1_555 1_555
C6_2 C1_2 1_555 1_555
H3_2 C6_2 1_555 1_555
C7_2 C8_2 1_555 1_555
C8_2 C9_2 1_555 1_555
C10_2 C9_2 1_555 1_555
H5_2 C10_2 1_555 1_555
C11_2 C10_2 1_555 1_555
C12_2 C7_2 1_555 1_555
H6_2 C12_2 1_555 1_555
C13_2 C5_2 1_555 1_555
C14_2 C2_2 1_555 1_555
C15_2 C1_2 1_555 1_555
O1_2 C14_2 1_555 1_555
O2 C14_2 1_555 1_555
O3 C15_2 1_555 1_555
O4 C15_2 1_555 1_555
O9_2 C13_2 1_555 1_555
Gd5 O3 1_555 1_555
C5_2 C6_2 1_555 1_555
C11_2 C12_2 1_555 1_555
C11_2 C13_2 1_555 1_555
O4 Gd5 1_555 1_555
H10_2 O11_2 1_555 1_555
H11_2 O11_2 1_555 1_555
O10_2 Gd5 1_555 1_555
O16 Gd5 1_555 1_555
O15 C16_2 1_555 1_555
O7_2 C17_2 1_555 1_555
H7_2 O7_2 1_555 1_555
O17 C17_2 1_555 1_555

#END
