
###############################################################################
#
# This file contains modified crystal structure data generated from the
# MOF subset of the Cambridge Structural Database (CSD) v543 
# hosted by the Cambridge Crystallographic Data Centre (CCDC).
#
# This work is licensed under the Creative Commons
# Attribution-NonCommercial-ShareAlike 4.0 International License.
# To view a copy of this license, visit
# http://creativecommons.org/licenses/by-nc-sa/4.0/
# or send a letter to
# Creative Commons, PO Box 1866, Mountain View, CA 94042, USA.
#
# CIF created using the CSD Python API on 29 September 2022
# The structure has been converted into the P1 space group
# The structure has a 3D framework
# The original CSD entry HOJLEY is in the monoclinic crystal system
# The framework has been calculated to contain at least 10.0% void space
# The void calculation uses a probe of radius 1.32A, grid spacing 0.4
#
###############################################################################

data_HOJLEY
_chemical_formula_moiety         '(C52 H64 Cu4 N8 O16)n'
_symmetry_cell_setting           triclinic
_symmetry_space_group_name_H-M   'P 1'
_symmetry_Int_Tables_number      1
_space_group_name_Hall           'P 1'
loop_
_symmetry_equiv_pos_site_id
_symmetry_equiv_pos_as_xyz
1 x,y,z
_cell_length_a                   13.054(3)
_cell_length_b                   13.568(3)
_cell_length_c                   8.7130(18)
_cell_angle_alpha                90
_cell_angle_beta                 90.184(3)
_cell_angle_gamma                90
_cell_volume                     1543.21
loop_
_atom_site_label
_atom_site_type_symbol
_atom_site_fract_x
_atom_site_fract_y
_atom_site_fract_z
C7 C 0.0573(2) 0.4808(2) 0.1342(3)
H7 H 0.1127 0.4471 0.1870
H8 H 0.0249 0.5251 0.2066
C21 C 0.10028(19) 0.5395(2) 0.0026(3)
H26 H 0.1499 0.5865 0.0414
Cu5 Cu 0.41238(2) 0.95983(2) 0.95483(4)
N3 N 0.28494(16) 0.86774(15) 0.8797(2)
N5 N 0.01846(16) 0.59237(16) 0.9199(3)
C14 C 0.3100(2) 0.7823(2) 0.8130(3)
H17 H 0.3781 0.7721 0.7857
C15 C 0.2405(2) 0.7086(2) 0.7827(3)
H18 H 0.2620 0.6502 0.7371
C16 C 0.1382(2) 0.72167(19) 0.8202(3)
C17 C 0.1114(2) 0.81059(19) 0.8875(3)
H19 H 0.0437 0.8229 0.9140
C18 C 0.1858(2) 0.88061(19) 0.9148(3)
H20 H 0.1663 0.9398 0.9598
C19 C 0.0600(2) 0.6429(2) 0.7832(3)
H21 H 0.0913 0.5942 0.7167
H22 H 0.0037 0.6728 0.7270
H25 H 0.1352 0.4955 0.9323
Cu1 Cu 0.58762(2) 0.04017(2) 0.04517(4)
N1 N 0.71506(16) 0.13226(15) 0.1203(2)
N2 N 0.98154(16) 0.40763(16) 0.0801(3)
C1 C 0.6900(2) 0.2177(2) 0.1870(3)
H1 H 0.6219 0.2279 0.2143
C2 C 0.7595(2) 0.2914(2) 0.2173(3)
H2 H 0.7380 0.3498 0.2629
C3 C 0.8618(2) 0.27833(19) 0.1798(3)
C4 C 0.8886(2) 0.18941(19) 0.1125(3)
H3 H 0.9563 0.1771 0.0860
C5 C 0.8142(2) 0.11939(19) 0.0852(3)
H4 H 0.8337 0.0602 0.0402
C6 C 0.9400(2) 0.3571(2) 0.2168(3)
H5 H 0.9087 0.4058 0.2833
H6 H 0.9963 0.3272 0.2730
H9 H 0.8648 0.5045 0.0677
Cu6 Cu 0.41238(2) 0.54017(2) 0.45483(4)
Cu7 Cu 0.58762(2) 0.45983(2) 0.54517(4)
O6 O 0.51502(13) 0.04939(13) 0.2421(2)
O7 O 0.36478(14) 0.40791(13) 0.4000(2)
O10 O 0.51367(14) 0.34126(13) 0.4716(2)
C22 C 0.4226(2) 0.02817(17) 0.2628(3)
C23 C 0.3776(2) 0.05281(18) 0.4181(3)
H27 H 0.3034 0.0537 0.4097
H28 H 0.3962 0.0015 0.4905
C24 C 0.4138(2) 0.15162(18) 0.4800(3)
H29 H 0.3825 0.1636 0.5790
H30 H 0.4875 0.1499 0.4944
C25 C 0.3860(2) 0.23520(18) 0.3702(3)
H31 H 0.3120 0.2380 0.3603
H32 H 0.4137 0.2200 0.2698
C26 C 0.4243(2) 0.33539(18) 0.4186(3)
O1 O 0.63549(14) 0.01053(14) 0.8357(2)
C8 C 0.89972(19) 0.4605(2) 0.9974(3)
H10 H 0.8501 0.4135 0.9586
O9 O 0.36478(14) 0.09209(13) 0.9000(2)
O11 O 0.51367(14) 0.15874(13) 0.9716(2)
C20 C 0.9427(2) 0.5192(2) 0.8658(3)
H23 H 0.8873 0.5529 0.8130
H24 H 0.9751 0.4749 0.7934
O5 O 0.36451(14) 0.98947(14) 0.1643(2)
O8 O 0.63522(14) 0.90791(13) 0.1000(2)
O12 O 0.48633(14) 0.84126(13) 0.0284(2)
O2 O 0.48498(13) 0.95061(13) 0.7579(2)
O3 O 0.63522(14) 0.59209(13) 0.6000(2)
O4 O 0.48633(14) 0.65874(13) 0.5284(2)
C9 C 0.5774(2) 0.97183(17) 0.7372(3)
C10 C 0.6224(2) 0.94719(18) 0.5819(3)
H11 H 0.6966 0.9463 0.5903
H12 H 0.6038 0.9985 0.5095
C11 C 0.5862(2) 0.84838(18) 0.5200(3)
H13 H 0.6175 0.8364 0.4210
H14 H 0.5125 0.8501 0.5056
C12 C 0.6140(2) 0.76480(18) 0.6298(3)
H15 H 0.6880 0.7620 0.6397
H16 H 0.5863 0.7800 0.7302
C13 C 0.5757(2) 0.66461(18) 0.5814(3)
H9_2 H 0.1352 0.0045 0.4323
C20_2 C 0.0573(2) 0.0192(2) 0.6342(3)
H23_2 H 0.1127 0.0529 0.6870
H13_2 H 0.3825 0.3364 0.0790
O1_2 O 0.36451(14) 0.51053(14) 0.6643(2)
O2_2 O 0.51502(13) 0.45061(13) 0.7421(2)
N1_2 N 0.28494(16) 0.63226(15) 0.3797(2)
N2_2 N 0.01846(16) 0.90763(16) 0.4199(3)
C1_2 C 0.3100(2) 0.7177(2) 0.3130(3)
H1_2 H 0.3781 0.7279 0.2857
C2_2 C 0.2405(2) 0.7914(2) 0.2827(3)
H2_2 H 0.2620 0.8498 0.2371
C3_2 C 0.1382(2) 0.77833(19) 0.3202(3)
C4_2 C 0.1114(2) 0.68941(19) 0.3875(3)
H3_2 H 0.0437 0.6771 0.4140
C5_2 C 0.1858(2) 0.61939(19) 0.4148(3)
H4_2 H 0.1663 0.5602 0.4598
C6_2 C 0.0600(2) 0.8571(2) 0.2832(3)
H5_2 H 0.0913 0.9058 0.2167
H6_2 H 0.0037 0.8272 0.2270
C8_2 C 0.10028(19) 0.9605(2) 0.5026(3)
H10_2 H 0.1499 0.9135 0.5414
C9_2 C 0.4226(2) 0.47183(17) 0.7628(3)
C10_2 C 0.3776(2) 0.44719(18) 0.9181(3)
H11_2 H 0.3034 0.4463 0.9097
H12_2 H 0.3962 0.4985 0.9905
C11_2 C 0.4138(2) 0.34838(18) 0.9800(3)
H14_2 H 0.4875 0.3501 0.9944
C12_2 C 0.3860(2) 0.26480(18) 0.8702(3)
H15_2 H 0.3120 0.2620 0.8603
H16_2 H 0.4137 0.2800 0.7698
C13_2 C 0.4243(2) 0.16461(18) 0.9186(3)
O5_2 O 0.63549(14) 0.48947(14) 0.3357(2)
O6_2 O 0.48498(13) 0.54939(13) 0.2579(2)
N4 N 0.71506(16) 0.36774(15) 0.6203(2)
H24_2 H 0.0249 0.9749 0.7066
C22_2 C 0.5774(2) 0.52817(17) 0.2372(3)
C23_2 C 0.6224(2) 0.55281(18) 0.0819(3)
H27_2 H 0.6966 0.5537 0.0903
H28_2 H 0.6038 0.5015 0.0095
C24_2 C 0.5862(2) 0.65162(18) 0.0200(3)
H30_2 H 0.5125 0.6499 0.0056
C25_2 C 0.6140(2) 0.73520(18) 0.1298(3)
H31_2 H 0.6880 0.7380 0.1397
H32_2 H 0.5863 0.7200 0.2302
C26_2 C 0.5757(2) 0.83539(18) 0.0814(3)
H29_2 H 0.6175 0.6636 0.9210
H8_2 H 0.9751 0.0251 0.2934
N5_2 N 0.98154(16) 0.09237(16) 0.5801(3)
C14_2 C 0.6900(2) 0.2823(2) 0.6870(3)
H17_2 H 0.6219 0.2721 0.7143
C15_2 C 0.7595(2) 0.2086(2) 0.7173(3)
H18_2 H 0.7380 0.1502 0.7629
C16_2 C 0.8618(2) 0.22167(19) 0.6798(3)
C17_2 C 0.8886(2) 0.31059(19) 0.6125(3)
H19_2 H 0.9563 0.3229 0.5860
C18_2 C 0.8142(2) 0.38061(19) 0.5852(3)
H20_2 H 0.8337 0.4398 0.5402
C19_2 C 0.9400(2) 0.1429(2) 0.7168(3)
H21_2 H 0.9087 0.0942 0.7833
H22_2 H 0.9963 0.1728 0.7730
C21_2 C 0.89972(19) 0.0395(2) 0.4974(3)
H26_2 H 0.8501 0.0865 0.4586
C7_2 C 0.9427(2) 0.9808(2) 0.3658(3)
H7_2 H 0.8873 0.9471 0.3130
H25_2 H 0.8648 0.9955 0.5677
loop_
_geom_bond_atom_site_label_1
_geom_bond_atom_site_label_2
_geom_bond_site_symmetry_1
_geom_bond_site_symmetry_2
H7 C7 1_555 1_555
H8 C7 1_555 1_555
C21 C7 1_555 1_555
H26 C21 1_555 1_555
Cu5 N3 1_555 1_555
N3 C14 1_555 1_555
N5 C19 1_555 1_555
C14 H17 1_555 1_555
C15 C14 1_555 1_555
H18 C15 1_555 1_555
C16 C15 1_555 1_555
C17 C16 1_555 1_555
H19 C17 1_555 1_555
C18 N3 1_555 1_555
H20 C18 1_555 1_555
C19 C16 1_555 1_555
H21 C19 1_555 1_555
H22 C19 1_555 1_555
C17 C18 1_555 1_555
N1 Cu1 1_555 1_555
N2 C6 1_555 1_555
C1 N1 1_555 1_555
H1 C1 1_555 1_555
C2 C1 1_555 1_555
H2 C2 1_555 1_555
C3 C2 1_555 1_555
C4 C3 1_555 1_555
H3 C4 1_555 1_555
C5 N1 1_555 1_555
H4 C5 1_555 1_555
C6 C3 1_555 1_555
H5 C6 1_555 1_555
H6 C6 1_555 1_555
Cu6 O7 1_555 1_555
Cu7 O10 1_555 1_555
O6 Cu1 1_555 1_555
O7 C26 1_555 1_555
O10 C26 1_555 1_555
C23 C22 1_555 1_555
H27 C23 1_555 1_555
H28 C23 1_555 1_555
C24 C23 1_555 1_555
H29 C24 1_555 1_555
H30 C24 1_555 1_555
C25 C24 1_555 1_555
H31 C25 1_555 1_555
H32 C25 1_555 1_555
C26 C25 1_555 1_555
C4 C5 1_555 1_555
O6 C22 1_555 1_555
H10 C8 1_555 1_555
C20 C8 1_555 1_555
H23 C20 1_555 1_555
H24 C20 1_555 1_555
O2 C9 1_555 1_555
O3 C13 1_555 1_555
O4 C13 1_555 1_555
C9 C10 1_555 1_555
C10 H11 1_555 1_555
H12 C10 1_555 1_555
C11 C10 1_555 1_555
H13 C11 1_555 1_555
H14 C11 1_555 1_555
C12 C11 1_555 1_555
H15 C12 1_555 1_555
H16 C12 1_555 1_555
C13 C12 1_555 1_555
Cu5 O2 1_555 1_555
Cu7 O3 1_555 1_555
Cu6 O4 1_555 1_555
H23_2 C20_2 1_555 1_555
Cu6 O1_2 1_555 1_555
O1_2 C9_2 1_555 1_555
O2_2 C9_2 1_555 1_555
O9 C13_2 1_555 1_555
O11 C13_2 1_555 1_555
N1_2 Cu6 1_555 1_555
N2_2 C6_2 1_555 1_555
C1_2 N1_2 1_555 1_555
H1_2 C1_2 1_555 1_555
C2_2 C1_2 1_555 1_555
H2_2 C2_2 1_555 1_555
C3_2 C2_2 1_555 1_555
C4_2 C3_2 1_555 1_555
H3_2 C4_2 1_555 1_555
C5_2 N1_2 1_555 1_555
H4_2 C5_2 1_555 1_555
C6_2 C3_2 1_555 1_555
H5_2 C6_2 1_555 1_555
H6_2 C6_2 1_555 1_555
C8_2 N2_2 1_555 1_555
H10_2 C8_2 1_555 1_555
C9_2 C10_2 1_555 1_555
C10_2 H11_2 1_555 1_555
H12_2 C10_2 1_555 1_555
C11_2 C10_2 1_555 1_555
H14_2 C11_2 1_555 1_555
C12_2 C11_2 1_555 1_555
H15_2 C12_2 1_555 1_555
H16_2 C12_2 1_555 1_555
C13_2 C12_2 1_555 1_555
Cu7 O2_2 1_555 1_555
O5_2 Cu7 1_555 1_555
O6_2 Cu6 1_555 1_555
O8 C26_2 1_555 1_555
O12 C26_2 1_555 1_555
N4 Cu7 1_555 1_555
C22_2 O5_2 1_555 1_555
C23_2 C22_2 1_555 1_555
H27_2 C23_2 1_555 1_555
H28_2 C23_2 1_555 1_555
C24_2 C23_2 1_555 1_555
H30_2 C24_2 1_555 1_555
C25_2 C24_2 1_555 1_555
H31_2 C25_2 1_555 1_555
H32_2 C25_2 1_555 1_555
C26_2 C25_2 1_555 1_555
C4_2 C5_2 1_555 1_555
O6_2 C22_2 1_555 1_555
N4 C14_2 1_555 1_555
N5_2 C19_2 1_555 1_555
C14_2 H17_2 1_555 1_555
C15_2 C14_2 1_555 1_555
H18_2 C15_2 1_555 1_555
C16_2 C15_2 1_555 1_555
C17_2 C16_2 1_555 1_555
H19_2 C17_2 1_555 1_555
C18_2 N4 1_555 1_555
H20_2 C18_2 1_555 1_555
C19_2 C16_2 1_555 1_555
H21_2 C19_2 1_555 1_555
H22_2 C19_2 1_555 1_555
H26_2 C21_2 1_555 1_555
N5_2 C21_2 1_555 1_555
C17_2 C18_2 1_555 1_555
H7_2 C7_2 1_555 1_555

#END
