
###############################################################################
#
# This file contains modified crystal structure data generated from the
# MOF subset of the Cambridge Structural Database (CSD) v543 
# hosted by the Cambridge Crystallographic Data Centre (CCDC).
#
# This work is licensed under the Creative Commons
# Attribution-NonCommercial-ShareAlike 4.0 International License.
# To view a copy of this license, visit
# http://creativecommons.org/licenses/by-nc-sa/4.0/
# or send a letter to
# Creative Commons, PO Box 1866, Mountain View, CA 94042, USA.
#
# CIF created using the CSD Python API on 29 September 2022
# The structure has been converted into the P1 space group
# The structure has a 3D framework
# The original CSD entry HOPDIB is in the trigonal crystal system
# The original CSD entry HOPDIB is in a Sohncke space group
# The framework has been calculated to contain at least 10.0% void space
# The void calculation uses a probe of radius 1.32A, grid spacing 0.4
#
###############################################################################

data_HOPDIB
_chemical_formula_moiety         '(C144 H96 N24 O24 Zn5)n'
_symmetry_cell_setting           triclinic
_symmetry_space_group_name_H-M   'P 1'
_symmetry_Int_Tables_number      1
_space_group_name_Hall           'P 1'
loop_
_symmetry_equiv_pos_site_id
_symmetry_equiv_pos_as_xyz
1 x,y,z
_cell_length_a                   19.106(3)
_cell_length_b                   19.106(3)
_cell_length_c                   11.496(2)
_cell_angle_alpha                90
_cell_angle_beta                 90
_cell_angle_gamma                120
_cell_volume                     3634.27
loop_
_atom_site_label
_atom_site_type_symbol
_atom_site_fract_x
_atom_site_fract_y
_atom_site_fract_z
H22 H 0.0009 0.5650 0.3488
Zn4 Zn 0.70438(3) 0.00358(4) 0.19154(4)
C5 C 0.0012(3) 0.2283(3) 0.8512(5)
H3 H 0.0366 0.2833 0.8408
C7 C 0.0091(3) 0.1722(3) 0.7810(5)
C8 C 0.0711(3) 0.1968(3) 0.6901(5)
C9 C 0.0515(3) 0.1538(4) 0.5855(5)
H5 H 0.0024 0.1063 0.5759
C10 C 0.1463(3) 0.2658(3) 0.7038(5)
H6 H 0.1599 0.2929 0.7747
C11 C 0.2015(3) 0.2947(3) 0.6124(5)
H7 H 0.2512 0.3415 0.6222
C12 C 0.1092(3) 0.1853(4) 0.4949(5)
H8 H 0.0963 0.1581 0.4241
C13 C 0.1827(3) 0.2536(3) 0.5062(4)
C14 C 0.2374(3) 0.2889(3) 0.4015(5)
C15 C 0.4634(3) 0.3133(3) 0.2194(4)
H9 H 0.4518 0.2697 0.1712
C16 C 0.4551(3) 0.4047(3) 0.3168(5)
H10 H 0.4350 0.4359 0.3488
C17 C 0.5289(3) 0.4160(3) 0.3381(5)
H11 H 0.5687 0.4556 0.3849
C18 C 0.6016(3) 0.3449(3) 0.2696(4)
C19 C 0.5886(3) 0.2670(3) 0.2701(5)
H12 H 0.5365 0.2227 0.2708
C20 C 0.3042(3) 0.4574(3) 0.1662(5)
H13 H 0.3196 0.4722 0.2431
C21 C 0.2671(3) 0.3890(3) 0.0067(5)
C23 C 0.3150(3) 0.5877(3) 0.0944(4)
C24 C 0.2544(3) 0.6059(3) 0.0932(4)
H16 H 0.2008 0.5646 0.0916
N1 N 0.4119(2) 0.3400(2) 0.2399(4)
N2 N 0.5338(2) 0.3566(2) 0.2763(4)
N3 N 0.2856(2) 0.3863(2) 0.1190(4)
N4 N 0.2971(2) 0.5052(2) 0.0837(4)
O1 O 0.2258(2) 0.2400(3) 0.3178(3)
O2 O 0.2862(2) 0.3623(2) 0.3999(4)
Zn1 Zn 0.29920(3) 0.29562(3) 0.19154(4)
C25 C 0.6867(3) 0.1501(4) 0.2194(4)
H17 H 0.7303 0.1821 0.1712
C26 C 0.5953(3) 0.0504(4) 0.3168(5)
C27 C 0.5840(3) 0.1129(4) 0.3381(5)
H19 H 0.5444 0.1131 0.3849
C28 C 0.6551(3) 0.2567(4) 0.2696(4)
C29 C 0.7330(3) 0.3216(4) 0.2701(5)
H20 H 0.7773 0.3138 0.2708
N5 N 0.6600(2) 0.0719(3) 0.2399(4)
N6 N 0.6434(2) 0.1772(3) 0.2763(4)
C30 C 0.8499(4) 0.5366(3) 0.2194(4)
H21 H 0.8179 0.5482 0.1712
C31 C 0.9496(4) 0.5449(3) 0.3168(5)
C32 C 0.8871(4) 0.4711(3) 0.3381(5)
H23 H 0.8869 0.4313 0.3849
C33 C 0.7433(4) 0.3984(3) 0.2696(4)
C34 C 0.6784(4) 0.4114(3) 0.2701(5)
H24 H 0.6862 0.4635 0.2708
N7 N 0.9281(3) 0.5881(2) 0.2399(4)
N8 N 0.8228(3) 0.4662(2) 0.2763(4)
C35 C 0.5426(3) 0.8468(4) 0.1662(5)
H25 H 0.5278 0.8474 0.2431
C36 C 0.6110(3) 0.8781(4) 0.0067(5)
C38 C 0.4123(3) 0.7273(4) 0.0944(4)
C39 C 0.3941(3) 0.6485(4) 0.0932(4)
H28 H 0.4354 0.6362 0.0916
N9 N 0.6137(2) 0.8993(3) 0.1190(4)
N10 N 0.4948(2) 0.7919(3) 0.0837(4)
C40 C 0.1532(4) 0.6958(3) 0.1662(5)
H29 H 0.1526 0.6804 0.2431
C41 C 0.1219(4) 0.7329(3) 0.0067(5)
C43 C 0.2727(4) 0.6850(3) 0.0944(4)
C44 C 0.3515(4) 0.7456(3) 0.0932(4)
H32 H 0.3638 0.7992 0.0916
N11 N 0.1007(3) 0.7144(2) 0.1190(4)
N12 N 0.2081(3) 0.7029(2) 0.0837(4)
O13 O 0.7742(2) 0.0237(2) 0.0557(4)
O14 O 0.2495(3) 0.2258(2) 0.0557(4)
Zn8 Zn 0.99642(4) 0.70080(3) 0.19154(4)
C45 C 0.9017(3) 0.7274(4) 0.0446(4)
O7 O 0.9763(2) 0.7505(3) 0.0557(4)
O8 O 0.8523(3) 0.6767(4) 0.1083(4)
H18 H 0.5641 0.9991 0.3488
C46 C 0.8777(3) 0.7667(4) 0.9515(5)
C47 C 0.9339(3) 0.8281(4) 0.8871(5)
H33 H 0.9888 0.8481 0.8996
C48 C 0.7967(3) 0.7393(4) 0.9340(5)
H34 H 0.7585 0.6972 0.9794
C49 C 0.7717(3) 0.7729(4) 0.8512(5)
H35 H 0.7167 0.7533 0.8408
C50 C 0.9072(3) 0.8609(4) 0.8009(5)
H36 H 0.9459 0.9016 0.7542
C51 C 0.8278(3) 0.8369(4) 0.7810(5)
C52 C 0.8032(3) 0.8743(4) 0.6901(5)
C53 C 0.8462(4) 0.8977(5) 0.5855(5)
H37 H 0.8937 0.8961 0.5759
C54 C 0.7342(3) 0.8805(4) 0.7038(5)
H38 H 0.7071 0.8670 0.7747
C55 C 0.7053(3) 0.9068(4) 0.6124(5)
H39 H 0.6585 0.9097 0.6222
C56 C 0.8147(4) 0.9239(5) 0.4949(5)
H40 H 0.8419 0.9382 0.4241
C57 C 0.7464(3) 0.9291(4) 0.5062(4)
C58 C 0.7111(3) 0.9485(4) 0.4015(5)
O5 O 0.7600(3) 0.9858(4) 0.3178(3)
O6 O 0.6377(2) 0.9239(3) 0.3999(4)
C1 C 0.8257(3) 0.0983(3) 0.0446(4)
O4 O 0.8244(3) 0.1477(3) 0.1083(4)
C2 C 0.8890(3) 0.1223(3) 0.9515(5)
C3 C 0.8942(3) 0.0661(3) 0.8871(5)
H1 H 0.8593 0.0112 0.8996
C4 C 0.9426(3) 0.2033(3) 0.9340(5)
H2 H 0.9387 0.2415 0.9794
C6 C 0.9537(3) 0.0928(3) 0.8009(5)
H4 H 0.9557 0.0541 0.7542
C45_2 C 0.2726(4) 0.1743(5) 0.0446(4)
O8_2 O 0.3233(4) 0.1756(5) 0.1083(4)
C46_2 C 0.2333(4) 0.1110(5) 0.9515(5)
C47_2 C 0.1719(4) 0.1058(5) 0.8871(5)
H33_2 H 0.1519 0.1407 0.8996
C48_2 C 0.2607(4) 0.0574(5) 0.9340(5)
H34_2 H 0.3028 0.0613 0.9794
C50_2 C 0.1391(4) 0.0463(5) 0.8009(5)
H36_2 H 0.0984 0.0443 0.7542
C49_2 C 0.2271(4) 0.9988(5) 0.8512(5)
H35_2 H 0.2467 0.9634 0.8408
C51_2 C 0.1631(4) 0.9909(5) 0.7810(5)
C52_2 C 0.1257(4) 0.9289(5) 0.6901(5)
C53_2 C 0.1023(5) 0.9485(6) 0.5855(5)
H37_2 H 0.1039 0.9976 0.5759
C54_2 C 0.1195(4) 0.8537(5) 0.7038(5)
H38_2 H 0.1330 0.8401 0.7747
C55_2 C 0.0932(4) 0.7985(5) 0.6124(5)
H39_2 H 0.0903 0.7488 0.6222
C56_2 C 0.0761(5) 0.8908(6) 0.4949(5)
H40_2 H 0.0618 0.9037 0.4241
C57_2 C 0.0709(4) 0.8173(5) 0.5062(4)
C58_2 C 0.0515(4) 0.7626(5) 0.4015(5)
O5_2 O 0.0142(4) 0.7742(5) 0.3178(3)
O6_2 O 0.0761(3) 0.7138(4) 0.3999(4)
H14 H 0.2525 0.3474 0.9534
C22 C 0.2728(4) 0.4604(4) 0.9829(5)
H15 H 0.2624 0.4766 0.9118
H26 H 0.6526 0.9051 0.9534
C37 C 0.5396(4) 0.8124(6) 0.9829(5)
H27 H 0.5234 0.7858 0.9118
H30 H 0.0949 0.7475 0.9534
C42 C 0.1876(6) 0.7272(4) 0.9829(5)
H31 H 0.2142 0.7376 0.9118
Zn16 Zn 0.36217(4) 0.03141(3) 0.31026(4)
C88 C 0.0711(3) 0.2844(3) 0.1698(5)
H58 H 0.1028 0.3370 0.1427
C89 C 0.0832(3) 0.2231(3) 0.1436(5)
H59 H 0.1241 0.2252 0.0973
C90 C 0.0099(3) 0.0757(3) 0.1958(4)
C92 C 0.1071(3) 0.3898(3) 0.4821(5)
H61 H 0.0827 0.3389 0.5165
C93 C 0.1800(3) 0.4506(3) 0.5095(5)
H62 H 0.2152 0.4506 0.5654
C94 C 0.1262(3) 0.4865(3) 0.3679(4)
H63 H 0.1202 0.5165 0.3090
C95 C 0.2652(3) 0.5921(3) 0.4344(4)
C96 C 0.2585(3) 0.6604(3) 0.4342(5)
H64 H 0.2079 0.6561 0.4339
N16 N 0.0068(2) 0.2595(2) 0.2409(4)
N17 N 0.0230(2) 0.1565(2) 0.1986(4)
N18 N 0.0721(2) 0.4131(2) 0.3942(4)
N19 N 0.1926(2) 0.5145(2) 0.4367(4)
C102 C 0.2039(4) 0.0221(3) 0.2548(4)
H69 H 0.2163 0.0680 0.2981
C106 C 0.0788(4) 0.0680(3) 0.1967(5)
H72 H 0.1305 0.1128 0.1978
C107 C 0.6102(3) 0.7173(4) 0.4821(5)
H73 H 0.6611 0.7438 0.5165
C108 C 0.5494(3) 0.7294(4) 0.5095(5)
H74 H 0.5494 0.7646 0.5654
C109 C 0.5135(3) 0.6397(4) 0.3679(4)
H75 H 0.4835 0.6037 0.3090
C110 C 0.4079(3) 0.6731(4) 0.4344(4)
C111 C 0.3396(3) 0.5981(4) 0.4342(5)
H76 H 0.3439 0.5518 0.4339
N24 N 0.5869(2) 0.6590(3) 0.3942(4)
N25 N 0.4855(2) 0.6781(3) 0.4367(4)
C112 C 0.2827(4) 0.8929(3) 0.4821(5)
H77 H 0.2562 0.9173 0.5165
C113 C 0.2706(4) 0.8200(3) 0.5095(5)
H78 H 0.2354 0.7848 0.5654
C114 C 0.3603(4) 0.8738(3) 0.3679(4)
H79 H 0.3963 0.8798 0.3090
C115 C 0.3269(4) 0.7348(3) 0.4344(4)
C116 C 0.4019(4) 0.7415(3) 0.4342(5)
H80 H 0.4482 0.7921 0.4339
N26 N 0.3410(3) 0.9279(2) 0.3942(4)
N27 N 0.3219(3) 0.8074(2) 0.4367(4)
Zn14 Zn 0.66924(3) 0.63783(4) 0.31026(4)
O22 O 0.0542(2) 0.4642(3) 0.1294(4)
C103 C 0.2133(4) 0.9289(3) 0.1698(5)
H70 H 0.2342 0.8972 0.1427
C104 C 0.1399(4) 0.9168(3) 0.1436(5)
H71 H 0.1011 0.8759 0.0973
C105 C 0.0658(4) 0.9901(3) 0.1958(4)
N22 N 0.2527(3) 0.9932(2) 0.2409(4)
N23 N 0.1335(3) 0.9770(2) 0.1986(4)
H81 H 0.0398 0.5586 0.9908
C131 C 0.5743(4) 0.5538(3) 0.1161(5)
C132 C 0.5481(4) 0.4885(3) 0.0219(4)
H90 H 0.6467 0.4759 0.0233
O25 O 0.6340(3) 0.5642(2) 0.1774(3)
O26 O 0.5358(3) 0.5900(2) 0.1294(4)
C73 C 0.4462(3) 0.0205(3) 0.1161(5)
C74 C 0.5115(3) 0.0596(3) 0.0219(4)
H50 H 0.5241 0.1708 0.0233
O17 O 0.4358(2) 0.0698(2) 0.1774(3)
C133 C 0.4740(4) 0.4598(3) 0.9704(5)
H89 H 0.4414 0.4812 0.9908
C134 C 0.5966(6) 0.4574(4) 0.9885(5)
C135 C 0.5708(6) 0.3997(4) 0.9048(6)
H91 H 0.6047 0.3803 0.8824
C136 C 0.4475(5) 0.3992(3) 0.8884(5)
H92 H 0.3960 0.3784 0.8572
C137 C 0.4963(4) 0.3685(3) 0.8512(5)
C138 C 0.4677(4) 0.3053(3) 0.7598(5)
C139 C 0.3864(6) 0.2475(4) 0.7509(6)
H93 H 0.3504 0.2467 0.8059
C140 C 0.5204(5) 0.3052(3) 0.6723(5)
H94 H 0.5747 0.3446 0.6726
C141 C 0.4907(5) 0.2464(3) 0.5870(5)
H95 H 0.5265 0.2460 0.5325
C142 C 0.3582(5) 0.1914(3) 0.6623(6)
H96 H 0.3030 0.1546 0.6575
C143 C 0.4101(4) 0.1883(3) 0.5795(5)
C144 C 0.3784(4) 0.1243(3) 0.4891(5)
O23 O 0.3039(4) 0.0734(2) 0.4884(4)
O24 O 0.4266(3) 0.1265(2) 0.4133(3)
C75 C 0.5402(3) 0.0142(3) 0.9704(5)
C76 C 0.5426(4) 0.1392(4) 0.9885(5)
C77 C 0.6003(4) 0.1711(4) 0.9048(6)
H51 H 0.6197 0.2244 0.8824
C78 C 0.6008(3) 0.0483(4) 0.8884(5)
H52 H 0.6216 0.0176 0.8572
C79 C 0.6315(3) 0.1278(3) 0.8512(5)
C80 C 0.6947(3) 0.1624(3) 0.7598(5)
C81 C 0.7525(4) 0.1389(4) 0.7509(6)
H53 H 0.7533 0.1037 0.8059
C82 C 0.6948(3) 0.2152(4) 0.6723(5)
H54 H 0.6554 0.2301 0.6726
C83 C 0.7536(3) 0.2443(4) 0.5870(5)
H55 H 0.7540 0.2805 0.5325
C84 C 0.8086(3) 0.1668(4) 0.6623(6)
H56 H 0.8454 0.1484 0.6575
C85 C 0.8117(3) 0.2218(3) 0.5795(5)
C86 C 0.8757(3) 0.2541(3) 0.4891(5)
C87 C 0.9779(3) 0.1818(3) 0.2548(4)
H57 H 0.9320 0.1483 0.2981
C91 C 0.9320(3) 0.0108(3) 0.1967(5)
H60 H 0.8872 0.0177 0.1978
O15 O 0.9266(2) 0.2305(3) 0.4884(4)
O16 O 0.8735(2) 0.3001(2) 0.4133(3)
Zn9 Zn 0.96859(3) 0.33076(3) 0.31026(4)
O27 O 0.9302(2) 0.3660(3) 0.1774(3)
O18 O 0.4100(2) 0.9458(2) 0.1294(4)
C117 C 0.9795(3) 0.4257(4) 0.1161(5)
C118 C 0.9404(3) 0.4519(4) 0.0219(4)
H82 H 0.8292 0.3533 0.0233
H49 H 0.5188 0.9602 0.9908
C97 C 0.8182(3) 0.7961(4) 0.2548(4)
H65 H 0.8517 0.7837 0.2981
C98 C 0.7156(3) 0.7867(4) 0.1698(5)
H66 H 0.6630 0.7658 0.1427
C99 C 0.7769(3) 0.8601(4) 0.1436(5)
H67 H 0.7748 0.8989 0.0973
C100 C 0.9243(3) 0.9342(4) 0.1958(4)
C101 C 0.9892(3) 0.9212(4) 0.1967(5)
H68 H 0.9823 0.8695 0.1978
N20 N 0.7405(2) 0.7473(3) 0.2409(4)
N21 N 0.8435(2) 0.8665(3) 0.1986(4)
C119 C 0.9858(3) 0.5260(4) 0.9704(5)
C120 C 0.8608(4) 0.4034(6) 0.9885(5)
C121 C 0.8289(4) 0.4292(6) 0.9048(6)
H83 H 0.7756 0.3953 0.8824
C122 C 0.9517(4) 0.5525(5) 0.8884(5)
H84 H 0.9824 0.6040 0.8572
C123 C 0.8722(3) 0.5037(4) 0.8512(5)
C124 C 0.8376(3) 0.5323(4) 0.7598(5)
C125 C 0.8611(4) 0.6136(6) 0.7509(6)
H85 H 0.8963 0.6496 0.8059
C126 C 0.7848(4) 0.4796(5) 0.6723(5)
H86 H 0.7699 0.4253 0.6726
C127 C 0.7557(4) 0.5093(5) 0.5870(5)
H87 H 0.7195 0.4735 0.5325
C128 C 0.8332(4) 0.6418(5) 0.6623(6)
H88 H 0.8516 0.6970 0.6575
C129 C 0.7782(3) 0.5899(4) 0.5795(5)
C130 C 0.7459(3) 0.6216(4) 0.4891(5)
O19 O 0.7695(3) 0.6961(4) 0.4884(4)
O20 O 0.6999(2) 0.5734(3) 0.4133(3)
loop_
_geom_bond_atom_site_label_1
_geom_bond_atom_site_label_2
_geom_bond_site_symmetry_1
_geom_bond_site_symmetry_2
H3 C5 1_555 1_555
C7 C5 1_555 1_555
C8 C7 1_555 1_555
C9 C8 1_555 1_555
H5 C9 1_555 1_555
C10 C8 1_555 1_555
H6 C10 1_555 1_555
C11 C10 1_555 1_555
H7 C11 1_555 1_555
C12 C9 1_555 1_555
H8 C12 1_555 1_555
C13 C11 1_555 1_555
C14 C13 1_555 1_555
C15 H9 1_555 1_555
C16 H10 1_555 1_555
C17 C16 1_555 1_555
H11 C17 1_555 1_555
C18 C19 1_555 1_555
C19 H12 1_555 1_555
C20 H13 1_555 1_555
C23 C24 1_555 1_555
C24 H16 1_555 1_555
N1 C15 1_555 1_555
N2 C15 1_555 1_555
N3 C20 1_555 1_555
N4 C20 1_555 1_555
O1 C14 1_555 1_555
O2 C14 1_555 1_555
Zn1 N1 1_555 1_555
C25 H17 1_555 1_555
C27 C26 1_555 1_555
H19 C27 1_555 1_555
C28 C19 1_555 1_555
C29 C28 1_555 1_555
H20 C29 1_555 1_555
N5 C25 1_555 1_555
N6 C25 1_555 1_555
C30 H21 1_555 1_555
C32 C31 1_555 1_555
H23 C32 1_555 1_555
C33 C29 1_555 1_555
C34 C18 1_555 1_555
H24 C34 1_555 1_555
N7 C30 1_555 1_555
N8 C30 1_555 1_555
C35 H25 1_555 1_555
C38 C39 1_555 1_555
C39 C23 1_555 1_555
H28 C39 1_555 1_555
N9 C35 1_555 1_555
N10 C35 1_555 1_555
C40 H29 1_555 1_555
C43 C24 1_555 1_555
C44 C38 1_555 1_555
H32 C44 1_555 1_555
N11 C40 1_555 1_555
N12 C40 1_555 1_555
Zn4 N5 1_555 1_555
O13 Zn4 1_555 1_555
O14 Zn1 1_555 1_555
Zn8 N7 1_555 1_555
C12 C13 1_555 1_555
C16 N1 1_555 1_555
C17 N2 1_555 1_555
C18 N2 1_555 1_555
C21 N3 1_555 1_555
C23 N4 1_555 1_555
N3 Zn1 1_555 1_555
O1 Zn1 1_555 1_555
C26 N5 1_555 1_555
C27 N6 1_555 1_555
C28 N6 1_555 1_555
C31 N7 1_555 1_555
C32 N8 1_555 1_555
C33 C34 1_555 1_555
C33 N8 1_555 1_555
C36 N9 1_555 1_555
C38 N10 1_555 1_555
C41 N11 1_555 1_555
C43 C44 1_555 1_555
C43 N12 1_555 1_555
O7 C45 1_555 1_555
O8 C45 1_555 1_555
Zn8 O7 1_555 1_555
C46 C47 1_555 1_555
C47 H33 1_555 1_555
C48 C46 1_555 1_555
H34 C48 1_555 1_555
C49 C48 1_555 1_555
H35 C49 1_555 1_555
C50 C47 1_555 1_555
H36 C50 1_555 1_555
C51 C49 1_555 1_555
C52 C51 1_555 1_555
C53 C52 1_555 1_555
H37 C53 1_555 1_555
C54 C52 1_555 1_555
H38 C54 1_555 1_555
C55 C54 1_555 1_555
H39 C55 1_555 1_555
C56 C53 1_555 1_555
H40 C56 1_555 1_555
C57 C55 1_555 1_555
C58 C57 1_555 1_555
O5 C58 1_555 1_555
O6 C58 1_555 1_555
C50 C51 1_555 1_555
C56 C57 1_555 1_555
O13 C1 1_555 1_555
O4 C1 1_555 1_555
C2 C3 1_555 1_555
C3 H1 1_555 1_555
C4 C2 1_555 1_555
H2 C4 1_555 1_555
C6 C3 1_555 1_555
H4 C6 1_555 1_555
O14 C45_2 1_555 1_555
O8_2 C45_2 1_555 1_555
C46_2 C47_2 1_555 1_555
C47_2 H33_2 1_555 1_555
C48_2 C46_2 1_555 1_555
H34_2 C48_2 1_555 1_555
C50_2 C47_2 1_555 1_555
H36_2 C50_2 1_555 1_555
H35_2 C49_2 1_555 1_555
C51_2 C49_2 1_555 1_555
C52_2 C51_2 1_555 1_555
C53_2 C52_2 1_555 1_555
H37_2 C53_2 1_555 1_555
C54_2 C52_2 1_555 1_555
H38_2 C54_2 1_555 1_555
C55_2 C54_2 1_555 1_555
H39_2 C55_2 1_555 1_555
C56_2 C53_2 1_555 1_555
H40_2 C56_2 1_555 1_555
C57_2 C55_2 1_555 1_555
C58_2 C57_2 1_555 1_555
O5_2 C58_2 1_555 1_555
O6_2 C58_2 1_555 1_555
C56_2 C57_2 1_555 1_555
H15 C22 1_555 1_555
H27 C37 1_555 1_555
H31 C42 1_555 1_555
C88 H58 1_555 1_555
C89 C88 1_555 1_555
H59 C89 1_555 1_555
C92 H61 1_555 1_555
C93 C92 1_555 1_555
H62 C93 1_555 1_555
C94 H63 1_555 1_555
C95 C96 1_555 1_555
C96 H64 1_555 1_555
N18 C92 1_555 1_555
N19 C93 1_555 1_555
C102 H69 1_555 1_555
C106 C90 1_555 1_555
H72 C106 1_555 1_555
C107 H73 1_555 1_555
C108 C107 1_555 1_555
H74 C108 1_555 1_555
C109 H75 1_555 1_555
C110 C111 1_555 1_555
C111 C95 1_555 1_555
H76 C111 1_555 1_555
N24 C107 1_555 1_555
N25 C108 1_555 1_555
C112 H77 1_555 1_555
C113 C112 1_555 1_555
H78 C113 1_555 1_555
C114 H79 1_555 1_555
C115 C96 1_555 1_555
C116 C110 1_555 1_555
H80 C116 1_555 1_555
N26 C112 1_555 1_555
N27 C113 1_555 1_555
Zn14 N24 1_555 1_555
C88 N16 1_555 1_555
C89 N17 1_555 1_555
C90 N17 1_555 1_555
C94 N18 1_555 1_555
C94 N19 1_555 1_555
C95 N19 1_555 1_555
C109 N24 1_555 1_555
C109 N25 1_555 1_555
C110 N25 1_555 1_555
C114 N26 1_555 1_555
C114 N27 1_555 1_555
C115 C116 1_555 1_555
C115 N27 1_555 1_555
C103 H70 1_555 1_555
C104 C103 1_555 1_555
H71 C104 1_555 1_555
C103 N22 1_555 1_555
C104 N23 1_555 1_555
C105 N23 1_555 1_555
C131 C132 1_555 1_555
O25 C131 1_555 1_555
O26 C131 1_555 1_555
Zn14 O25 1_555 1_555
C73 C74 1_555 1_555
O17 C73 1_555 1_555
C133 H89 1_555 1_555
C135 C134 1_555 1_555
H91 C135 1_555 1_555
C136 C133 1_555 1_555
H92 C136 1_555 1_555
C137 C135 1_555 1_555
C138 C137 1_555 1_555
C139 C138 1_555 1_555
H93 C139 1_555 1_555
C140 C138 1_555 1_555
H94 C140 1_555 1_555
C141 C140 1_555 1_555
H95 C141 1_555 1_555
C142 C139 1_555 1_555
H96 C142 1_555 1_555
C143 C141 1_555 1_555
C144 C143 1_555 1_555
O23 C144 1_555 1_555
O24 C144 1_555 1_555
Zn16 O17 1_555 1_555
C136 C137 1_555 1_555
C142 C143 1_555 1_555
O24 Zn16 1_555 1_555
C77 C76 1_555 1_555
H51 C77 1_555 1_555
C78 C75 1_555 1_555
H52 C78 1_555 1_555
C79 C77 1_555 1_555
C80 C79 1_555 1_555
C81 C80 1_555 1_555
H53 C81 1_555 1_555
C82 C80 1_555 1_555
H54 C82 1_555 1_555
C83 C82 1_555 1_555
H55 C83 1_555 1_555
C84 C81 1_555 1_555
H56 C84 1_555 1_555
C85 C83 1_555 1_555
C86 C85 1_555 1_555
C87 H57 1_555 1_555
C91 H60 1_555 1_555
O15 C86 1_555 1_555
O16 C86 1_555 1_555
O27 Zn9 1_555 1_555
C78 C79 1_555 1_555
C84 C85 1_555 1_555
O16 Zn9 1_555 1_555
C117 C118 1_555 1_555
O27 C117 1_555 1_555
C97 H65 1_555 1_555
C98 H66 1_555 1_555
C99 C98 1_555 1_555
H67 C99 1_555 1_555
C101 C100 1_555 1_555
H68 C101 1_555 1_555
N20 C97 1_555 1_555
N21 C97 1_555 1_555
C121 C120 1_555 1_555
H83 C121 1_555 1_555
C122 C119 1_555 1_555
H84 C122 1_555 1_555
C123 C121 1_555 1_555
C124 C123 1_555 1_555
C125 C124 1_555 1_555
H85 C125 1_555 1_555
C126 C124 1_555 1_555
H86 C126 1_555 1_555
C127 C126 1_555 1_555
H87 C127 1_555 1_555
C128 C125 1_555 1_555
H88 C128 1_555 1_555
C129 C127 1_555 1_555
C130 C129 1_555 1_555
O19 C130 1_555 1_555
O20 C130 1_555 1_555
Zn14 N20 1_555 1_555
C98 N20 1_555 1_555
C99 N21 1_555 1_555
C100 N21 1_555 1_555
C122 C123 1_555 1_555
C128 C129 1_555 1_555
O20 Zn14 1_555 1_555

#END
