
###############################################################################
#
# This file contains modified crystal structure data generated from the
# MOF subset of the Cambridge Structural Database (CSD) v543 
# hosted by the Cambridge Crystallographic Data Centre (CCDC).
#
# This work is licensed under the Creative Commons
# Attribution-NonCommercial-ShareAlike 4.0 International License.
# To view a copy of this license, visit
# http://creativecommons.org/licenses/by-nc-sa/4.0/
# or send a letter to
# Creative Commons, PO Box 1866, Mountain View, CA 94042, USA.
#
# CIF created using the CSD Python API on 29 September 2022
# The structure has been converted into the P1 space group
# The structure has a 3D framework
# The original CSD entry HOPVIT is in the trigonal crystal system
# The original CSD entry HOPVIT is in a Sohncke space group
# The framework has been calculated to contain at least 10.0% void space
# The void calculation uses a probe of radius 1.32A, grid spacing 0.4
#
###############################################################################

data_HOPVIT
_chemical_formula_moiety         '(C12 N11 Nd3 O13)n'
_symmetry_cell_setting           triclinic
_symmetry_space_group_name_H-M   'P 1'
_symmetry_Int_Tables_number      1
_space_group_name_Hall           'P 1'
loop_
_symmetry_equiv_pos_site_id
_symmetry_equiv_pos_as_xyz
1 x,y,z
_cell_length_a                   8.7561(12)
_cell_length_b                   8.7561(12)
_cell_length_c                   9.855(2)
_cell_angle_alpha                90
_cell_angle_beta                 90
_cell_angle_gamma                120
_cell_volume                     654.348
loop_
_atom_site_label
_atom_site_type_symbol
_atom_site_fract_x
_atom_site_fract_y
_atom_site_fract_z
Nd5 Nd 0.22500(3) 0.22500(3) 0.5000
O9 O 0.0000(8) 0.2462(6) 0.6667
N4 N 0.0737(6) 0.0000(8) 0.8333
Nd3 Nd 0.0000 0.77500(3) 0.1666
N4_2 N 0.0737(6) 1.0000(8) 0.8333
N5 N 0.9359(7) 0.1293(5) 0.0682(4)
Nd1 Nd 0.77500(3) 0.0000 0.8333
O6 O 0.8233(7) 0.2891(5) 0.9017(4)
O8 O 0.5969(4) 0.0667(6) 0.6930(3)
O9_2 O 1.0000(8) 0.2462(6) 0.6667
O3 O 0.7538(6) 0.7538(6) 0.0000
Nd3_2 Nd 1.0000 0.77500(3) 0.1666
Nd1_2 Nd 0.77500(3) 1.0000 0.8333
O1 O 0.5342(5) 0.7109(5) 0.7650(4)
O2 O 0.4031(4) 0.4698(5) 0.6403(3)
O3_2 O 0.7538(6) 0.7538(6) 1.0000
N1 N 0.9263(6) 0.9263(6) 0.5000
N2 N 0.8066(5) 0.8707(5) 0.5985(4)
C1 C 0.6721(6) 0.7128(6) 0.5630(5)
C2 C 0.5252(6) 0.6232(7) 0.6611(5)
O4 O 0.7109(5) 0.5342(5) 0.2350(4)
O5 O 0.4698(5) 0.4031(4) 0.3597(3)
N3 N 0.8707(5) 0.8066(5) 0.4015(4)
C3 C 0.7128(6) 0.6721(6) 0.4370(5)
C4 C 0.6232(7) 0.5252(6) 0.3389(5)
O7 O 0.5302(5) 0.9333(6) 0.9736(3)
O3_3 O 0.2462(6) 0.0000(8) 0.3333
N4_3 N 0.0000(8) 0.0737(10) 0.1667
O4_2 O 0.4658(5) 0.1767(7) 0.5683(4)
N3_2 N 0.1934(5) 0.0641(7) 0.7348(4)
C3_2 C 0.3279(6) 0.0407(8) 0.7703(5)
C4_2 C 0.4748(6) 0.0980(9) 0.6722(5)
O1_2 O 0.2891(5) 0.8233(7) 0.0983(4)
O3_4 O 0.2462(6) 1.0000(8) 0.3333
O7_2 O 0.0667(6) 0.5969(8) 0.3070(3)
N2_2 N 0.1293(5) 0.9359(7) 0.9318(4)
C1_2 C 0.2872(6) 0.9593(8) 0.8963(5)
C2_2 C 0.3768(7) 0.9020(9) 0.9944(5)
N4_4 N 1.0000(8) 0.0737(10) 0.1667
O8_2 O 0.9333(6) 0.5302(7) 0.0264(3)
O1_3 O 0.1767(7) 0.4658(5) 0.4317(4)
N2_3 N 0.0641(7) 0.1934(5) 0.2652(4)
C1_3 C 0.0407(8) 0.3279(6) 0.2297(5)
C2_3 C 0.0980(9) 0.4748(6) 0.3278(5)
C3_3 C 0.9593(8) 0.2872(6) 0.1037(5)
C4_3 C 0.9020(9) 0.3768(7) 0.0056(5)
loop_
_geom_bond_atom_site_label_1
_geom_bond_atom_site_label_2
_geom_bond_site_symmetry_1
_geom_bond_site_symmetry_2
Nd5 O9 1_555 1_555
O6 Nd1 1_555 1_555
O8 Nd1 1_555 1_555
O9_2 Nd1 1_555 1_555
Nd3_2 O3 1_555 1_555
Nd1_2 O1 1_555 1_555
O1 C2 1_555 1_555
O2 C2 1_555 1_555
O3_2 Nd1_2 1_555 1_555
N1 N2 1_555 1_555
N2 Nd1_2 1_555 1_555
C1 N2 1_555 1_555
C2 C1 1_555 1_555
O4 C4 1_555 1_555
O5 C4 1_555 1_555
N3 N1 1_555 1_555
C3 C1 1_555 1_555
C4 C3 1_555 1_555
Nd3_2 O4 1_555 1_555
Nd5 O2 1_555 1_555
O7 Nd1_2 1_555 1_555
O5 Nd5 1_555 1_555
N3 C3 1_555 1_555
N3 Nd3_2 1_555 1_555
Nd5 O3_3 1_555 1_555
O4_2 C4_2 1_555 1_555
O8 C4_2 1_555 1_555
N3_2 N4 1_555 1_555
C4_2 C3_2 1_555 1_555
Nd5 O4_2 1_555 1_555
N3_2 C3_2 1_555 1_555
N3_2 Nd5 1_555 1_555
Nd3 O1_2 1_555 1_555
O3_4 Nd3 1_555 1_555
O7_2 Nd3 1_555 1_555
O7 C2_2 1_555 1_555
N4_2 N2_2 1_555 1_555
C1_2 N2_2 1_555 1_555
C2_2 C1_2 1_555 1_555
O8_2 Nd3_2 1_555 1_555
Nd5 O1_3 1_555 1_555
O1_3 C2_3 1_555 1_555
O7_2 C2_3 1_555 1_555
N4_3 N2_3 1_555 1_555
N2_3 Nd5 1_555 1_555
C1_3 N2_3 1_555 1_555
C2_3 C1_3 1_555 1_555
O8_2 C4_3 1_555 1_555
N5 N4_4 1_555 1_555
C4_3 C3_3 1_555 1_555
N5 C3_3 1_555 1_555

#END
