
###############################################################################
#
# This file contains modified crystal structure data generated from the
# MOF subset of the Cambridge Structural Database (CSD) v543 
# hosted by the Cambridge Crystallographic Data Centre (CCDC).
#
# This work is licensed under the Creative Commons
# Attribution-NonCommercial-ShareAlike 4.0 International License.
# To view a copy of this license, visit
# http://creativecommons.org/licenses/by-nc-sa/4.0/
# or send a letter to
# Creative Commons, PO Box 1866, Mountain View, CA 94042, USA.
#
# CIF created using the CSD Python API on 29 September 2022
# The structure has been converted into the P1 space group
# The structure has a 3D framework
# The original CSD entry HOPVEP is in the trigonal crystal system
# The original CSD entry HOPVEP is in a Sohncke space group
# The framework has been calculated to contain at least 10.0% void space
# The void calculation uses a probe of radius 1.32A, grid spacing 0.4
#
###############################################################################

data_HOPVEP
_chemical_formula_moiety         '(C12 N11 O13 Pr3)n'
_symmetry_cell_setting           triclinic
_symmetry_space_group_name_H-M   'P 1'
_symmetry_Int_Tables_number      1
_space_group_name_Hall           'P 1'
loop_
_symmetry_equiv_pos_site_id
_symmetry_equiv_pos_as_xyz
1 x,y,z
_cell_length_a                   8.8263(12)
_cell_length_b                   8.8263(12)
_cell_length_c                   9.910(2)
_cell_angle_alpha                90
_cell_angle_beta                 90
_cell_angle_gamma                120
_cell_volume                     668.593
loop_
_atom_site_label
_atom_site_type_symbol
_atom_site_fract_x
_atom_site_fract_y
_atom_site_fract_z
Pr5 Pr 0.22546(2) 0.22546(2) 0.5000
N4 N 0.0745(4) -0.0000(6) 0.8333
O9 O -0.0000(6) 0.2472(4) 0.6667
Pr3 Pr 0.0000 0.77454(2) 0.1666
N4_2 N 0.0745(4) 1.0000(6) 0.8333
N5 N 0.9353(6) 0.1288(4) 0.0681(3)
Pr1 Pr 0.77454(2) -0.0000 0.8333
O6 O 0.8219(5) 0.2879(4) 0.9040(3)
O8 O 0.5951(3) 0.0668(5) 0.6945(2)
O9_2 O 1.0000(6) 0.2472(4) 0.6667
O3 O 0.7528(4) 0.7528(4) -0.0000
Pr3_2 Pr 1.0000 0.77454(2) 0.1666
Pr1_2 Pr 0.77454(2) 1.0000 0.8333
C1 C 0.6729(4) 0.7137(4) 0.5623(3)
C2 C 0.5266(4) 0.6256(5) 0.6597(3)
N1 N 0.9255(4) 0.9255(4) 0.5000
N2 N 0.8065(4) 0.8712(4) 0.5986(3)
O1 O 0.5340(3) 0.7121(4) 0.7627(3)
O2 O 0.4049(3) 0.4717(4) 0.6388(2)
O3_2 O 0.7528(4) 0.7528(4) 1.0000
C3 C 0.7137(4) 0.6729(4) 0.4377(3)
C4 C 0.6256(5) 0.5266(4) 0.3403(3)
N3 N 0.8712(4) 0.8065(4) 0.4014(3)
O4 O 0.7121(4) 0.5340(3) 0.2373(3)
O5 O 0.4717(4) 0.4049(3) 0.3612(2)
O7 O 0.5283(4) 0.9332(5) 0.9721(2)
O3_3 O 0.2472(4) 0.0000(6) 0.3333
N4_3 N 0.0000(6) 0.0745(7) 0.1667
C3_2 C 0.3271(4) 0.0408(6) 0.7710(3)
C4_2 C 0.4734(4) 0.0990(6) 0.6736(3)
N3_2 N 0.1935(4) 0.0647(6) 0.7347(3)
O4_2 O 0.4660(3) 0.1781(5) 0.5706(3)
O1_2 O 0.2879(4) 0.8219(5) 0.0960(3)
O3_4 O 0.2472(4) 1.0000(6) 0.3333
O7_2 O 0.0668(5) 0.5951(6) 0.3055(2)
C1_2 C 0.2863(4) 0.9592(6) 0.8956(3)
C2_2 C 0.3744(5) 0.9010(6) 0.9930(3)
N2_2 N 0.1288(4) 0.9353(6) 0.9319(3)
N4_4 N 1.0000(6) 0.0745(7) 0.1667
O8_2 O 0.9332(5) 0.5283(6) 0.0279(2)
C1_3 C 0.0408(6) 0.3271(4) 0.2290(3)
C2_3 C 0.0990(6) 0.4734(4) 0.3264(3)
N2_3 N 0.0647(6) 0.1935(4) 0.2653(3)
O1_3 O 0.1781(5) 0.4660(3) 0.4294(3)
C3_3 C 0.9592(6) 0.2863(4) 0.1044(3)
C4_3 C 0.9010(6) 0.3744(5) 0.0070(3)
loop_
_geom_bond_atom_site_label_1
_geom_bond_atom_site_label_2
_geom_bond_site_symmetry_1
_geom_bond_site_symmetry_2
Pr5 O9 1_555 1_555
O6 Pr1 1_555 1_555
O8 Pr1 1_555 1_555
O9_2 Pr1 1_555 1_555
Pr3_2 O3 1_555 1_555
Pr1_2 N2 1_555 1_555
C1 C2 1_555 1_555
C2 O1 1_555 1_555
N1 N2 1_555 1_555
N2 C1 1_555 1_555
O1 Pr1_2 1_555 1_555
O2 C2 1_555 1_555
O3_2 Pr1_2 1_555 1_555
C3 C1 1_555 1_555
C4 C3 1_555 1_555
N3 N1 1_555 1_555
O4 C4 1_555 1_555
O5 C4 1_555 1_555
Pr3_2 N3 1_555 1_555
Pr5 O2 1_555 1_555
O7 Pr1_2 1_555 1_555
C3 N3 1_555 1_555
O4 Pr3_2 1_555 1_555
O5 Pr5 1_555 1_555
Pr5 O3_3 1_555 1_555
C4_2 C3_2 1_555 1_555
N3_2 N4 1_555 1_555
O4_2 C4_2 1_555 1_555
O8 C4_2 1_555 1_555
Pr5 N3_2 1_555 1_555
C3_2 N3_2 1_555 1_555
O4_2 Pr5 1_555 1_555
O1_2 Pr3 1_555 1_555
O3_4 Pr3 1_555 1_555
O7_2 Pr3 1_555 1_555
C1_2 C2_2 1_555 1_555
N4_2 N2_2 1_555 1_555
N2_2 C1_2 1_555 1_555
O7 C2_2 1_555 1_555
O8_2 Pr3_2 1_555 1_555
Pr5 N2_3 1_555 1_555
C1_3 C2_3 1_555 1_555
C2_3 O1_3 1_555 1_555
N4_3 N2_3 1_555 1_555
N2_3 C1_3 1_555 1_555
O1_3 Pr5 1_555 1_555
O7_2 C2_3 1_555 1_555
C4_3 C3_3 1_555 1_555
N5 N4_4 1_555 1_555
O8_2 C4_3 1_555 1_555
C3_3 N5 1_555 1_555

#END
