
###############################################################################
#
# This file contains modified crystal structure data generated from the
# MOF subset of the Cambridge Structural Database (CSD) v543 
# hosted by the Cambridge Crystallographic Data Centre (CCDC).
#
# This work is licensed under the Creative Commons
# Attribution-NonCommercial-ShareAlike 4.0 International License.
# To view a copy of this license, visit
# http://creativecommons.org/licenses/by-nc-sa/4.0/
# or send a letter to
# Creative Commons, PO Box 1866, Mountain View, CA 94042, USA.
#
# CIF created using the CSD Python API on 29 September 2022
# The structure has been converted into the P1 space group
# The structure has a 3D framework
# The original CSD entry HOPZUK is in the triclinic crystal system
# The framework has been calculated to contain at least 10.0% void space
# The void calculation uses a probe of radius 1.32A, grid spacing 0.4
#
###############################################################################

data_HOPZUK
_chemical_formula_moiety         '(C128 H96 N4 O24 Zn4)n'
_symmetry_cell_setting           triclinic
_symmetry_space_group_name_H-M   'P 1'
_symmetry_Int_Tables_number      1
_space_group_name_Hall           'P 1'
loop_
_symmetry_equiv_pos_site_id
_symmetry_equiv_pos_as_xyz
1 x,y,z
_cell_length_a                   12.900(9)
_cell_length_b                   17.379(12)
_cell_length_c                   19.453(13)
_cell_angle_alpha                107.447(9)
_cell_angle_beta                 107.199(10)
_cell_angle_gamma                98.981(9)
_cell_volume                     3828.44
loop_
_atom_site_label
_atom_site_type_symbol
_atom_site_fract_x
_atom_site_fract_y
_atom_site_fract_z
H24 H 0.045418 0.655539 0.695014
C21 C 0.6259(4) 0.2118(4) 0.1076(4)
C22 C 0.6648(4) 0.2598(3) 0.1905(3)
C23 C 0.7039(5) 0.3454(3) 0.2199(4)
H17 H 0.705226 0.373364 0.186114
C24 C 0.7409(5) 0.3912(4) 0.2977(4)
H18 H 0.766005 0.449227 0.315624
C25 C 0.7412(5) 0.3518(4) 0.3490(3)
C26 C 0.7041(5) 0.2647(4) 0.3204(4)
H19 H 0.703984 0.236777 0.354382
C27 C 0.6683(5) 0.2205(4) 0.2435(4)
H20 H 0.645387 0.162327 0.225640
C28 C 0.8124(6) 0.4784(4) 0.4583(4)
H21 H 0.750076 0.500278 0.438279
H22 H 0.872805 0.497716 0.442282
C29 C 0.8523(6) 0.5105(4) 0.5445(4)
C30 C 0.9458(6) 0.5775(4) 0.5877(4)
H23 H 0.985888 0.600574 0.562743
C31 C 0.9810(6) 0.6111(4) 0.6666(4)
C32 C 0.9217(5) 0.5791(4) 0.7029(4)
H25 H 0.944119 0.603863 0.756332
C33 C 0.8315(5) 0.5129(4) 0.6644(4)
C34 C 0.7962(6) 0.4771(4) 0.5833(4)
H26 H 0.734313 0.430520 0.555813
C35 C 0.7642(6) 0.4831(4) 0.7069(4)
H27 H 0.758279 0.530777 0.745740
H28 H 0.688712 0.450984 0.671043
C36 C 0.7691(5) 0.4011(3) 0.7852(3)
C37 C 0.6845(5) 0.4273(3) 0.8073(4)
H29 H 0.659256 0.470515 0.794963
C38 C 0.6370(5) 0.3888(3) 0.8481(3)
H30 H 0.580826 0.407651 0.863472
C39 C 0.6696(4) 0.3252(3) 0.8662(3)
C40 C 0.7566(5) 0.3005(3) 0.8446(4)
H31 H 0.781972 0.257493 0.857221
C41 C 0.8051(5) 0.3379(4) 0.8055(4)
H32 H 0.863592 0.320495 0.792311
C42 C 0.6118(4) 0.2815(3) 0.9053(3)
O1 O 0.6159(3) 0.2484(2) 0.0600(2)
O2 O 0.6007(4) 0.1332(2) 0.0824(2)
O3 O 0.7776(4) 0.3908(3) 0.4278(2)
O4 O 0.8184(3) 0.4323(2) 0.7429(3)
O5 O 0.5418(3) 0.3121(2) 0.9286(2)
O6 O 0.6354(3) 0.2149(2) 0.9097(2)
O15 O 0.4073(3) 0.3104(2) 0.0968(2)
O16 O 0.5241(3) 0.4049(2) 0.0861(2)
Zn4 Zn 0.58187(5) 0.14688(3) 0.96286(4)
Zn6 Zn 0.44697(5) 0.29639(3) 0.98976(4)
C1 C 0.2148(4) 0.3273(3) 0.9368(3)
H1 H 0.189539 0.275246 0.939028
C2 C 0.1407(4) 0.3748(3) 0.9271(4)
H2 H 0.066783 0.354498 0.922185
C3 C 0.1751(4) 0.4532(3) 0.9245(3)
C4 C 0.2851(4) 0.4769(3) 0.9290(3)
H3 H 0.312131 0.528047 0.925785
C5 C 0.3543(4) 0.4261(3) 0.9380(3)
H4 H 0.427579 0.443829 0.940454
C6 C 0.0980(4) 0.5062(3) 0.9179(3)
H5 H 0.023845 0.482884 0.910733
C7 C 0.1236(4) 0.5837(3) 0.9211(3)
H6 H 0.196952 0.605764 0.925796
C8 C 0.0495(4) 0.6387(3) 0.9180(3)
C9 C 0.0878(4) 0.7176(3) 0.9156(3)
H7 H 0.159809 0.733350 0.915091
C10 C 0.0215(4) 0.7718(3) 0.9140(3)
H8 H 0.050313 0.824086 0.913605
C43 C 0.3406(4) 0.1067(3) 0.9068(3)
C44 C 0.2284(4) 0.0462(3) 0.8674(3)
C45 C 0.1318(5) 0.0715(3) 0.8533(4)
H33 H 0.137187 0.128536 0.871041
C46 C 0.0273(5) 0.0162(4) 0.8141(4)
N1 N 0.3221(3) 0.3521(2) 0.9434(2)
O7 O 0.3441(3) 0.18230(19) 0.9368(2)
O8 O 0.4268(3) 0.08028(19) 0.9076(2)
N3 N 0.6677(4) 0.0601(2) 0.9408(3)
C17 C 0.8294(5) 0.0211(3) 0.9246(3)
H13 H 0.898160 0.036687 0.919380
C18 C 0.7669(5) 0.0766(3) 0.9330(3)
H14 H 0.794949 0.129386 0.933282
C50 C 0.8906(6) 0.7960(4) 0.7193(4)
H37 H 0.912817 0.773485 0.759758
H38 H 0.933489 0.782076 0.686129
C51 C 0.7636(6) 0.7605(4) 0.6723(4)
C52 C 0.6831(7) 0.7815(6) 0.6998(5)
H39 H 0.703533 0.820186 0.749678
C53 C 0.5718(7) 0.7461(7) 0.6545(6)
H40 H 0.517414 0.760708 0.674469
C54 C 0.5395(8) 0.6919(6) 0.5833(6)
H41 H 0.463496 0.667633 0.553170
C55 C 0.6194(10) 0.6728(7) 0.5557(6)
C56 C 0.7289(8) 0.7033(6) 0.5995(5)
H42 H 0.781905 0.684927 0.579800
C57 C 0.5640(10) 0.5830(6) 0.4797(7)
H43 H 0.595356 0.538547 0.489965
H44 H 0.482578 0.565300 0.463008
C58 C 0.5551(6) 0.5415(4) 0.3579(4)
C59 C 0.4837(6) 0.4624(5) 0.3300(4)
H45 H 0.454972 0.443705 0.362390
C60 C 0.4543(5) 0.4103(4) 0.2531(4)
H46 H 0.403840 0.357686 0.233967
C61 C 0.5002(4) 0.4365(3) 0.2050(3)
C62 C 0.5742(5) 0.5165(4) 0.2357(4)
H47 H 0.606256 0.535319 0.204690
C63 C 0.6004(6) 0.5680(4) 0.3114(4)
H48 H 0.649478 0.621178 0.330730
C64 C 0.4750(4) 0.3808(3) 0.1258(3)
O9 O 0.9084(4) 0.8818(3) 0.7508(3)
O10 O 0.5939(6) 0.6047(5) 0.4339(3)
C47 C 0.0185(5) 0.9311(4) 0.7903(4)
C48 C 0.1131(5) 0.9038(3) 0.8046(4)
H35 H 0.107438 0.846703 0.789055
C49 C 0.2170(5) 0.9610(3) 0.8422(3)
H36 H 0.281335 0.941854 0.850880
C11 C 0.9121(4) 0.7508(3) 0.9129(3)
C12 C 0.8725(5) 0.6711(3) 0.9103(3)
H9 H 0.798212 0.653727 0.906168
C13 C 0.9376(4) 0.6170(3) 0.9135(3)
H10 H 0.907384 0.564316 0.912592
C14 C 0.8392(5) 0.8079(3) 0.9148(3)
H11 H 0.767336 0.787041 0.913280
C15 C 0.8655(5) 0.8850(3) 0.9183(3)
H12 H 0.936069 0.905339 0.917494
C16 C 0.7931(4) 0.9427(3) 0.9236(3)
C19 C 0.6305(5) 0.9837(3) 0.9401(3)
H15 H 0.561743 0.969942 0.945767
C20 C 0.6894(5) 0.9249(3) 0.9312(3)
H16 H 0.659502 0.872144 0.930236
H34 H 0.963158 0.035358 0.803640
Zn5 Zn 0.55303(5) 0.70361(3) 0.01024(4)
C50_2 C 0.1094(6) 0.2040(4) 0.2807(4)
H37_2 H 0.087183 0.226515 0.240242
H38_2 H 0.066511 0.217924 0.313871
C51_2 C 0.2364(6) 0.2395(4) 0.3277(4)
C52_2 C 0.3169(7) 0.2185(6) 0.3002(5)
H39_2 H 0.296467 0.179814 0.250322
C53_2 C 0.4282(7) 0.2539(7) 0.3455(6)
H40_2 H 0.482586 0.239292 0.325531
C54_2 C 0.4605(8) 0.3081(6) 0.4167(6)
H41_2 H 0.536504 0.332367 0.446830
C55_2 C 0.3806(10) 0.3272(7) 0.4443(6)
C56_2 C 0.2711(8) 0.2967(6) 0.4005(5)
H42_2 H 0.218095 0.315073 0.420200
C57_2 C 0.4360(10) 0.4170(6) 0.5203(7)
H43_2 H 0.404644 0.461453 0.510035
H44_2 H 0.517422 0.434700 0.536992
C58_2 C 0.4449(6) 0.4585(4) 0.6421(4)
C59_2 C 0.5163(6) 0.5376(5) 0.6700(4)
H45_2 H 0.545028 0.556295 0.637610
C60_2 C 0.5457(5) 0.5897(4) 0.7469(4)
H46_2 H 0.596160 0.642314 0.766033
C61_2 C 0.4998(4) 0.5635(3) 0.7950(3)
C62_2 C 0.4258(5) 0.4835(4) 0.7643(4)
H47_2 H 0.393744 0.464681 0.795310
C63_2 C 0.3996(6) 0.4320(4) 0.6886(4)
H48_2 H 0.350522 0.378822 0.669270
C64_2 C 0.5250(4) 0.6192(3) 0.8742(3)
O9_2 O 0.0916(4) 0.1182(3) 0.2492(3)
O10_2 O 0.4061(6) 0.3953(5) 0.5661(3)
O11 O 0.5927(3) 0.6896(2) 0.9032(2)
O12 O 0.4759(3) 0.5951(2) 0.9139(2)
C17_2 C 0.1706(5) 0.9789(3) 0.0754(3)
H13_2 H 0.101840 0.963313 0.080620
C18_2 C 0.2331(5) 0.9234(3) 0.0670(3)
H14_2 H 0.205051 0.870614 0.066718
N2 N 0.3323(4) 0.9399(2) 0.0592(3)
Zn3 Zn 0.41813(5) 0.85312(3) 0.03714(4)
C1_2 C 0.7852(4) 0.6727(3) 0.0632(3)
H1_2 H 0.810461 0.724754 0.060972
C2_2 C 0.8593(4) 0.6252(3) 0.0729(4)
H2_2 H 0.933217 0.645502 0.077815
C3_2 C 0.8249(4) 0.5468(3) 0.0755(3)
C4_2 C 0.7149(4) 0.5231(3) 0.0710(3)
H3_2 H 0.687869 0.471953 0.074215
C5_2 C 0.6457(4) 0.5739(3) 0.0620(3)
H4_2 H 0.572421 0.556171 0.059546
C6_2 C 0.9020(4) 0.4938(3) 0.0821(3)
H5_2 H 0.976155 0.517116 0.089267
C7_2 C 0.8764(4) 0.4163(3) 0.0789(3)
H6_2 H 0.803048 0.394236 0.074204
C8_2 C 0.9505(4) 0.3613(3) 0.0820(3)
C9_2 C 0.9122(4) 0.2824(3) 0.0844(3)
H7_2 H 0.840191 0.266650 0.084909
C10_2 C 0.9785(4) 0.2282(3) 0.0860(3)
H8_2 H 0.949687 0.175914 0.086395
C43_2 C 0.6594(4) 0.8933(3) 0.0932(3)
C44_2 C 0.7716(4) 0.9538(3) 0.1326(3)
C45_2 C 0.8682(5) 0.9285(3) 0.1467(4)
H33_2 H 0.862813 0.871464 0.128959
C46_2 C 0.9727(5) 0.9838(4) 0.1859(4)
N1_2 N 0.6779(3) 0.6479(2) 0.0566(2)
O7_2 O 0.6559(3) 0.81770(19) 0.0632(2)
O8_2 O 0.5732(3) 0.91972(19) 0.0924(2)
O13 O 0.4582(3) 0.6879(2) 0.0714(2)
O14 O 0.3646(3) 0.7851(2) 0.0903(2)
C21_2 C 0.3741(4) 0.7882(4) 0.8924(4)
C22_2 C 0.3352(4) 0.7402(3) 0.8095(3)
C23_2 C 0.2961(5) 0.6546(3) 0.7801(4)
H17_2 H 0.294774 0.626636 0.813886
C24_2 C 0.2591(5) 0.6088(4) 0.7023(4)
H18_2 H 0.233995 0.550773 0.684376
C25_2 C 0.2588(5) 0.6482(4) 0.6510(3)
C26_2 C 0.2959(5) 0.7353(4) 0.6796(4)
H19_2 H 0.296016 0.763223 0.645618
C27_2 C 0.3317(5) 0.7795(4) 0.7565(4)
H20_2 H 0.354613 0.837673 0.774360
C28_2 C 0.1876(6) 0.5216(4) 0.5417(4)
H21_2 H 0.249924 0.499722 0.561721
H22_2 H 0.127195 0.502284 0.557718
C29_2 C 0.1477(6) 0.4895(4) 0.4555(4)
C30_2 C 0.0542(6) 0.4225(4) 0.4123(4)
H23_2 H 0.014112 0.399426 0.437257
C31_2 C 0.0190(6) 0.3889(4) 0.3334(4)
C32_2 C 0.0783(5) 0.4209(4) 0.2971(4)
H25_2 H 0.055881 0.396137 0.243668
C33_2 C 0.1685(5) 0.4871(4) 0.3356(4)
C34_2 C 0.2038(6) 0.5229(4) 0.4167(4)
H26_2 H 0.265687 0.569480 0.444187
C35_2 C 0.2358(6) 0.5169(4) 0.2931(4)
H27_2 H 0.241721 0.469223 0.254260
H28_2 H 0.311288 0.549016 0.328957
C36_2 C 0.2309(5) 0.5989(3) 0.2148(3)
C37_2 C 0.3155(5) 0.5727(3) 0.1927(4)
H29_2 H 0.340744 0.529485 0.205037
C38_2 C 0.3630(5) 0.6112(3) 0.1519(3)
H30_2 H 0.419174 0.592349 0.136528
C39_2 C 0.3304(4) 0.6748(3) 0.1338(3)
C40_2 C 0.2434(5) 0.6995(3) 0.1554(4)
H31_2 H 0.218028 0.742507 0.142779
C41_2 C 0.1949(5) 0.6621(4) 0.1945(4)
H32_2 H 0.136408 0.679505 0.207689
C42_2 C 0.3882(4) 0.7185(3) 0.0947(3)
O1_2 O 0.3841(3) 0.7516(2) 0.9400(2)
O2_2 O 0.3993(4) 0.8668(2) 0.9176(2)
O3_2 O 0.2224(4) 0.6092(3) 0.5722(2)
O4_2 O 0.1816(3) 0.5677(2) 0.2571(3)
C11_2 C 0.0879(4) 0.2492(3) 0.0871(3)
C12_2 C 0.1275(5) 0.3289(3) 0.0897(3)
H9_2 H 0.201788 0.346273 0.093832
C13_2 C 0.0624(4) 0.3830(3) 0.0865(3)
H10_2 H 0.092616 0.435684 0.087408
C14_2 C 0.1608(5) 0.1921(3) 0.0852(3)
H11_2 H 0.232664 0.212959 0.086720
C15_2 C 0.1345(5) 0.1150(3) 0.0817(3)
H12_2 H 0.063931 0.094661 0.082506
C16_2 C 0.2069(4) 0.0573(3) 0.0764(3)
C19_2 C 0.3695(5) 0.0163(3) 0.0599(3)
H15_2 H 0.438257 0.030058 0.054233
C20_2 C 0.3106(5) 0.0751(3) 0.0688(3)
H16_2 H 0.340498 0.127856 0.069764
H34_2 H 0.036842 0.964642 0.196360
C47_2 C 0.9815(5) 0.0689(4) 0.2097(4)
C48_2 C 0.8869(5) 0.0962(3) 0.1954(4)
H35_2 H 0.892562 0.153297 0.210945
C49_2 C 0.7830(5) 0.0390(3) 0.1578(3)
H36_2 H 0.718665 0.058146 0.149120
H24_2 H 0.954582 0.344461 0.304986
loop_
_geom_bond_atom_site_label_1
_geom_bond_atom_site_label_2
_geom_bond_site_symmetry_1
_geom_bond_site_symmetry_2
C21 C22 1_555 1_555
C22 C23 1_555 1_555
C23 H17 1_555 1_555
C24 C23 1_555 1_555
H18 C24 1_555 1_555
C25 C24 1_555 1_555
C26 C25 1_555 1_555
H19 C26 1_555 1_555
C27 C22 1_555 1_555
H20 C27 1_555 1_555
C28 H21 1_555 1_555
H22 C28 1_555 1_555
C29 C28 1_555 1_555
C30 C29 1_555 1_555
H23 C30 1_555 1_555
C31 C30 1_555 1_555
C32 C31 1_555 1_555
H25 C32 1_555 1_555
C33 C32 1_555 1_555
C34 C29 1_555 1_555
H26 C34 1_555 1_555
C35 C33 1_555 1_555
H27 C35 1_555 1_555
H28 C35 1_555 1_555
C36 C37 1_555 1_555
C37 H29 1_555 1_555
C38 C37 1_555 1_555
H30 C38 1_555 1_555
C39 C38 1_555 1_555
C40 C39 1_555 1_555
H31 C40 1_555 1_555
C41 C36 1_555 1_555
H32 C41 1_555 1_555
C42 C39 1_555 1_555
O1 C21 1_555 1_555
O2 C21 1_555 1_555
O3 C25 1_555 1_555
O4 C35 1_555 1_555
O5 C42 1_555 1_555
O6 C42 1_555 1_555
Zn4 O6 1_555 1_555
Zn6 O5 1_555 1_555
C26 C27 1_555 1_555
C28 O3 1_555 1_555
C33 C34 1_555 1_555
C36 O4 1_555 1_555
C40 C41 1_555 1_555
C1 H1 1_555 1_555
C2 C1 1_555 1_555
H2 C2 1_555 1_555
C3 C2 1_555 1_555
C4 C3 1_555 1_555
H3 C4 1_555 1_555
C5 C4 1_555 1_555
H4 C5 1_555 1_555
C6 C3 1_555 1_555
H5 C6 1_555 1_555
C7 C6 1_555 1_555
H6 C7 1_555 1_555
C8 C7 1_555 1_555
C9 C8 1_555 1_555
H7 C9 1_555 1_555
C10 C9 1_555 1_555
H8 C10 1_555 1_555
C43 C44 1_555 1_555
C44 C45 1_555 1_555
C45 H33 1_555 1_555
C46 C45 1_555 1_555
N1 C1 1_555 1_555
O7 C43 1_555 1_555
O8 C43 1_555 1_555
Zn6 N1 1_555 1_555
N3 Zn4 1_555 1_555
C5 N1 1_555 1_555
O7 Zn6 1_555 1_555
O8 Zn4 1_555 1_555
H13 C17 1_555 1_555
C18 C17 1_555 1_555
H14 C18 1_555 1_555
N3 C18 1_555 1_555
C50 H37 1_555 1_555
H38 C50 1_555 1_555
C51 C50 1_555 1_555
C52 C51 1_555 1_555
H39 C52 1_555 1_555
C53 C52 1_555 1_555
H40 C53 1_555 1_555
C54 C53 1_555 1_555
H41 C54 1_555 1_555
C55 C54 1_555 1_555
C56 C51 1_555 1_555
H42 C56 1_555 1_555
C57 C55 1_555 1_555
H43 C57 1_555 1_555
H44 C57 1_555 1_555
C58 C59 1_555 1_555
C59 H45 1_555 1_555
C60 C59 1_555 1_555
H46 C60 1_555 1_555
C61 C60 1_555 1_555
C62 C61 1_555 1_555
H47 C62 1_555 1_555
C63 C58 1_555 1_555
H48 C63 1_555 1_555
C64 C61 1_555 1_555
O10 C57 1_555 1_555
O15 C64 1_555 1_555
O16 C64 1_555 1_555
C50 O9 1_555 1_555
C55 C56 1_555 1_555
C58 O10 1_555 1_555
C62 C63 1_555 1_555
C48 C47 1_555 1_555
H35 C48 1_555 1_555
H36 C49 1_555 1_555
C48 C49 1_555 1_555
C12 C11 1_555 1_555
H9 C12 1_555 1_555
H10 C13 1_555 1_555
C14 C11 1_555 1_555
H11 C14 1_555 1_555
C15 C14 1_555 1_555
H12 C15 1_555 1_555
C16 C15 1_555 1_555
C19 H15 1_555 1_555
C20 C16 1_555 1_555
H16 C20 1_555 1_555
C12 C13 1_555 1_555
C19 C20 1_555 1_555
C50_2 H37_2 1_555 1_555
H38_2 C50_2 1_555 1_555
C51_2 C50_2 1_555 1_555
C52_2 C51_2 1_555 1_555
H39_2 C52_2 1_555 1_555
C53_2 C52_2 1_555 1_555
H40_2 C53_2 1_555 1_555
C54_2 C53_2 1_555 1_555
H41_2 C54_2 1_555 1_555
C55_2 C54_2 1_555 1_555
C56_2 C51_2 1_555 1_555
H42_2 C56_2 1_555 1_555
C57_2 C55_2 1_555 1_555
H43_2 C57_2 1_555 1_555
H44_2 C57_2 1_555 1_555
C58_2 C59_2 1_555 1_555
C59_2 H45_2 1_555 1_555
C60_2 C59_2 1_555 1_555
H46_2 C60_2 1_555 1_555
C61_2 C60_2 1_555 1_555
C62_2 C61_2 1_555 1_555
H47_2 C62_2 1_555 1_555
C63_2 C58_2 1_555 1_555
H48_2 C63_2 1_555 1_555
C64_2 C61_2 1_555 1_555
O10_2 C57_2 1_555 1_555
O11 C64_2 1_555 1_555
O12 C64_2 1_555 1_555
C50_2 O9_2 1_555 1_555
C55_2 C56_2 1_555 1_555
C58_2 O10_2 1_555 1_555
C62_2 C63_2 1_555 1_555
H13_2 C17_2 1_555 1_555
C18_2 C17_2 1_555 1_555
H14_2 C18_2 1_555 1_555
N2 C18_2 1_555 1_555
Zn3 N2 1_555 1_555
C1_2 H1_2 1_555 1_555
C2_2 C1_2 1_555 1_555
H2_2 C2_2 1_555 1_555
C3_2 C2_2 1_555 1_555
C4_2 C3_2 1_555 1_555
H3_2 C4_2 1_555 1_555
C5_2 C4_2 1_555 1_555
H4_2 C5_2 1_555 1_555
C6_2 C3_2 1_555 1_555
H5_2 C6_2 1_555 1_555
C7_2 C6_2 1_555 1_555
H6_2 C7_2 1_555 1_555
C8_2 C7_2 1_555 1_555
C9_2 C8_2 1_555 1_555
H7_2 C9_2 1_555 1_555
C10_2 C9_2 1_555 1_555
H8_2 C10_2 1_555 1_555
C43_2 C44_2 1_555 1_555
C44_2 C45_2 1_555 1_555
C45_2 H33_2 1_555 1_555
C46_2 C45_2 1_555 1_555
N1_2 C1_2 1_555 1_555
O7_2 C43_2 1_555 1_555
O8_2 C43_2 1_555 1_555
Zn5 N1_2 1_555 1_555
O13 Zn5 1_555 1_555
O14 Zn3 1_555 1_555
C5_2 N1_2 1_555 1_555
O7_2 Zn5 1_555 1_555
O8_2 Zn3 1_555 1_555
C21_2 C22_2 1_555 1_555
C22_2 C23_2 1_555 1_555
C23_2 H17_2 1_555 1_555
C24_2 C23_2 1_555 1_555
H18_2 C24_2 1_555 1_555
C25_2 C24_2 1_555 1_555
C26_2 C25_2 1_555 1_555
H19_2 C26_2 1_555 1_555
C27_2 C22_2 1_555 1_555
H20_2 C27_2 1_555 1_555
C28_2 H21_2 1_555 1_555
H22_2 C28_2 1_555 1_555
C29_2 C28_2 1_555 1_555
C30_2 C29_2 1_555 1_555
H23_2 C30_2 1_555 1_555
C31_2 C30_2 1_555 1_555
C32_2 C31_2 1_555 1_555
H25_2 C32_2 1_555 1_555
C33_2 C32_2 1_555 1_555
C34_2 C29_2 1_555 1_555
H26_2 C34_2 1_555 1_555
C35_2 C33_2 1_555 1_555
H27_2 C35_2 1_555 1_555
H28_2 C35_2 1_555 1_555
C36_2 C37_2 1_555 1_555
C37_2 H29_2 1_555 1_555
C38_2 C37_2 1_555 1_555
H30_2 C38_2 1_555 1_555
C39_2 C38_2 1_555 1_555
C40_2 C39_2 1_555 1_555
H31_2 C40_2 1_555 1_555
C41_2 C36_2 1_555 1_555
H32_2 C41_2 1_555 1_555
C42_2 C39_2 1_555 1_555
O1_2 C21_2 1_555 1_555
O2_2 C21_2 1_555 1_555
O3_2 C25_2 1_555 1_555
O4_2 C35_2 1_555 1_555
O13 C42_2 1_555 1_555
O14 C42_2 1_555 1_555
C26_2 C27_2 1_555 1_555
C28_2 O3_2 1_555 1_555
C33_2 C34_2 1_555 1_555
C36_2 O4_2 1_555 1_555
C40_2 C41_2 1_555 1_555
C12_2 C11_2 1_555 1_555
H9_2 C12_2 1_555 1_555
H10_2 C13_2 1_555 1_555
C14_2 C11_2 1_555 1_555
H11_2 C14_2 1_555 1_555
C15_2 C14_2 1_555 1_555
H12_2 C15_2 1_555 1_555
C16_2 C15_2 1_555 1_555
C19_2 H15_2 1_555 1_555
C20_2 C16_2 1_555 1_555
H16_2 C20_2 1_555 1_555
C12_2 C13_2 1_555 1_555
C19_2 C20_2 1_555 1_555
C48_2 C47_2 1_555 1_555
H35_2 C48_2 1_555 1_555
H36_2 C49_2 1_555 1_555
C48_2 C49_2 1_555 1_555

#END
