
###############################################################################
#
# This file contains modified crystal structure data generated from the
# MOF subset of the Cambridge Structural Database (CSD) v543 
# hosted by the Cambridge Crystallographic Data Centre (CCDC).
#
# This work is licensed under the Creative Commons
# Attribution-NonCommercial-ShareAlike 4.0 International License.
# To view a copy of this license, visit
# http://creativecommons.org/licenses/by-nc-sa/4.0/
# or send a letter to
# Creative Commons, PO Box 1866, Mountain View, CA 94042, USA.
#
# CIF created using the CSD Python API on 29 September 2022
# The structure has been converted into the P1 space group
# The structure has a 3D framework
# The original CSD entry HOQBOF is in the triclinic crystal system
# The framework has been calculated to contain at least 10.0% void space
# The void calculation uses a probe of radius 1.32A, grid spacing 0.4
# H atom positions have been added when not included in the experimental data
# Generated hydrogen atom positions removed from atoms on special positions
#
###############################################################################

data_HOQBOF
_chemical_formula_moiety         '(C40 H56 Cr13 Cu4 Mo18 N8 O78)n'
_symmetry_cell_setting           triclinic
_symmetry_space_group_name_H-M   'P 1'
_symmetry_Int_Tables_number      1
_space_group_name_Hall           'P 1'
loop_
_symmetry_equiv_pos_site_id
_symmetry_equiv_pos_as_xyz
1 x,y,z
_cell_length_a                   14.1896(13)
_cell_length_b                   15.6768(14)
_cell_length_c                   16.2269(15)
_cell_angle_alpha                65.4780(10)
_cell_angle_beta                 70.5120(10)
_cell_angle_gamma                80.5860(10)
_cell_volume                     3094.59
loop_
_atom_site_label
_atom_site_type_symbol
_atom_site_fract_x
_atom_site_fract_y
_atom_site_fract_z
H13 H 0.0395 0.5076 0.2209
H14 H 0.0012 0.3492 0.3133
Cr1 Cr 0.0000 0.0000 0.0000
Cr2 Cr 0.5000 0.0000 0.0000
Mo4 Mo 0.46237(10) 0.12116(10) 0.13545(9)
O2 O 0.0548(5) 0.0171(5) 0.0892(5)
O10 O 0.0394(7) 0.1722(6) 0.1620(6)
O13 O 0.5737(7) 0.0240(7) 0.0706(7)
O14 O 0.3926(7) 0.0814(7) 0.0468(7)
O16 O 0.5482(7) 0.2000(7) 0.0127(7)
O17 O 0.3926(8) 0.0068(8) 0.2171(7)
O19 O 0.5330(8) 0.1144(9) 0.2053(8)
O20 O 0.3702(9) 0.2037(9) 0.1523(10)
O22 O 0.2075(9) 0.0601(9) 0.1916(9)
H21 H 0.3203 0.0019 0.4703
H22 H 0.1870 0.0055 0.6044
O64 O 0.7307(6) 0.1332(7) 0.0414(7)
O1 O 0.0967(5) 0.0816(5) 0.8842(5)
C5 C 0.0085(4) 0.1561(3) 0.4390(3)
C9 C 0.0975(4) 0.1574(3) 0.3673(3)
H7 H 0.1014 0.1260 0.3285
C10 C 0.0782(4) 0.2476(3) 0.4892(3)
H8 H 0.0715 0.2791 0.5284
C11 C 0.1760(4) 0.2023(3) 0.3536(3)
H9 H 0.2348 0.2047 0.3051
C12 C 0.1650(4) 0.2496(3) 0.4209(3)
H10 H 0.2189 0.2805 0.4151
Cr1_2 Cr 0.0000 0.0000 1.0000
Cr2_2 Cr 0.5000 0.0000 1.0000
Mo1 Mo 0.04823(6) 0.07422(6) 0.76600(6)
Mo3 Mo 0.02112(7) 0.22817(6) 0.86604(6)
N4 N 0.0005(9) 0.1992(8) 0.5003(8)
O4 O 0.0666(5) 0.2107(5) 0.9731(5)
O7 O 0.1536(6) 0.1302(6) 0.6825(6)
O11 O 0.1252(7) 0.2834(6) 0.7799(6)
Cu8 Cu 0.87297(13) 0.17936(11) 0.60662(11)
Mo14 Mo 0.70957(9) 0.02365(9) 0.82341(9)
Mo15 Mo 0.67246(10) 0.14335(10) 0.96098(9)
O54 O 0.5818(7) 0.1025(7) 0.8927(7)
O57 O 0.7496(7) 0.0424(7) 0.9124(8)
O61 O 0.7546(7) 0.1286(8) 0.7212(7)
O63 O 0.7245(9) 0.2375(9) 0.8644(8)
Cr1_3 Cr -0.0000 1.0000 0.0000
Cr2_3 Cr 0.5000 1.0000 0.0000
Mo5 Mo 0.29043(9) 0.97635(9) 0.17659(9)
Mo6 Mo 0.32754(10) 0.85665(10) 0.03902(9)
O15 O 0.4182(7) 0.8975(7) 0.1073(7)
O18 O 0.2504(7) 0.9576(7) 0.0876(8)
O21 O 0.2454(7) 0.8714(8) 0.2788(7)
O23 O 0.2755(9) 0.7625(9) 0.1356(8)
C21 C 0.2549(12) 0.4995(11) 0.0335(10)
H17 H 0.2917 0.5389 0.0403
C22 C 0.2466(12) 0.4112(11) 0.0942(10)
H18 H 0.2841 0.3897 0.1366
C23 C 0.1822(4) 0.3465(3) 0.0981(3)
H19 H 0.1701 0.2861 0.1442
C24 C 0.0855(4) 0.8955(3) 0.5347(3)
C26 C 0.0948(4) 0.9365(3) 0.5873(3)
H20 H 0.0417 0.9373 0.6395
C27 C 0.2590(4) 0.9760(3) 0.4861(3)
C28 C 0.1798(4) 0.9771(3) 0.5667(3)
C33 C 0.1397(13) 0.3880(11) 0.0215(11)
H27 H 0.1009 0.3508 0.0141
C40 C 0.2419(12) 0.9352(11) 0.4321(11)
H32 H 0.2914 0.9373 0.3767
Cu5 Cu 0.12703(13) 0.82064(11) 0.39338(11)
N7 N 0.1556(7) 0.8920(6) 0.4567(6)
O42 O 0.0731(5) 0.8828(5) 0.0036(5)
O45 O 0.0281(6) 0.8243(5) 0.2013(5)
O47 O 0.0257(6) 0.9324(5) 0.2958(5)
O51 O 0.0685(7) 0.6870(6) 0.1317(7)
O71 O 0.2107(6) 0.6822(6) 0.4926(6)
O82 O 0.1150(10) 0.7332(7) 0.3389(8)
Cr1_4 Cr 0.0000 1.0000 1.0000
Cr2_4 Cr 0.5000 1.0000 1.0000
Cr3 Cr 0.5000 0.5000 0.5000
Mo7 Mo 0.68056(7) 0.33886(6) 0.47682(6)
Mo8 Mo 0.37073(7) 0.49607(6) 0.71478(6)
Mo9 Mo 0.55579(8) 0.33952(7) 0.69017(7)
O5 O 0.1063(5) 0.9494(5) 0.8053(5)
O24 O 0.2693(6) 0.8668(7) 0.9586(7)
O25 O 0.6208(6) 0.4496(5) 0.5409(5)
O26 O 0.4601(5) 0.5886(5) 0.5648(5)
O27 O 0.4287(5) 0.4086(5) 0.6239(5)
O28 O 0.2801(5) 0.5514(5) 0.6391(5)
O29 O 0.5044(6) 0.4469(6) 0.7226(5)
O30 O 0.5853(6) 0.2801(5) 0.5985(5)
O31 O 0.7893(6) 0.3178(6) 0.5074(6)
O32 O 0.6819(7) 0.2570(6) 0.4337(6)
O33 O 0.3640(7) 0.5783(6) 0.7604(6)
O34 O 0.2989(7) 0.4079(6) 0.8024(6)
O35 O 0.4884(8) 0.2507(6) 0.7836(6)
O36 O 0.6689(8) 0.3291(8) 0.7079(8)
C34 C 0.1523(10) 0.4785(8) 0.9586(9)
C35 C 0.1090(9) 0.5212(9) 0.8815(8)
C36 C 0.0395(12) 0.4786(11) 0.8668(10)
H28 H 0.0189 0.4185 0.9093
C37 C 0.0016(12) 0.5230(13) 0.7918(14)
C38 C 0.0272(14) 0.6160(13) 0.7353(14)
C39 C 0.0948(9) 0.6560(8) 0.7520(9)
H31 H 0.1139 0.7171 0.7119
Cu3 Cu 0.23389(10) 0.65925(9) 0.85262(10)
Cu4 Cu 0.76611(10) 0.34075(9) 0.14738(10)
Mo11 Mo 0.02535(7) 0.84404(6) 0.90150(6)
Mo13 Mo 0.53763(10) 0.87884(10) 0.86455(9)
Mo16 Mo 0.31944(7) 0.66114(6) 0.52318(6)
Mo17 Mo 0.62927(7) 0.50393(6) 0.28522(6)
Mo18 Mo 0.44421(8) 0.66048(7) 0.30983(7)
N5 N 0.2122(7) 0.5364(7) 0.9608(7)
N6 N 0.1338(7) 0.6102(7) 0.8234(7)
O48 O 0.1174(6) 0.7572(6) 0.9082(6)
O52 O 0.4263(7) 0.9760(7) 0.9294(7)
O53 O 0.6074(7) 0.9186(7) 0.9532(7)
O55 O 0.4518(7) 0.8000(7) 0.9873(7)
O56 O 0.6074(8) 0.9932(8) 0.7829(7)
O58 O 0.4670(8) 0.8856(9) 0.7947(8)
O59 O 0.6298(9) 0.7963(9) 0.8477(10)
O62 O 0.7925(9) 0.9399(9) 0.8084(9)
O65 O 0.3792(6) 0.5504(5) 0.4591(5)
O66 O 0.5399(5) 0.4114(5) 0.4352(5)
O67 O 0.5713(5) 0.5914(5) 0.3761(5)
O68 O 0.7199(5) 0.4486(5) 0.3609(5)
O69 O 0.4956(6) 0.5531(6) 0.2774(5)
O70 O 0.4147(6) 0.7199(5) 0.4015(5)
O74 O 0.3181(7) 0.7430(6) 0.5663(6)
O76 O 0.6360(7) 0.4217(6) 0.2396(6)
O77 O 0.7011(7) 0.5921(6) 0.1976(6)
O78 O 0.5116(8) 0.7493(6) 0.2164(6)
O79 O 0.3311(8) 0.6709(8) 0.2921(8)
O80 O 0.3308(10) 0.6990(7) 0.8955(9)
O81 O 0.2621(8) 0.7700(6) 0.7301(6)
C14 C 0.8477(10) 0.5215(8) 0.0414(9)
C15 C 0.8910(9) 0.4788(9) 0.1185(8)
C16 C 0.9605(12) 0.5214(11) 0.1332(10)
H12 H 0.9811 0.5815 0.0907
C17 C 0.9984(12) 0.4770(13) 0.2082(14)
C18 C 0.9728(14) 0.3840(13) 0.2647(14)
C19 C 0.9052(9) 0.3440(8) 0.2480(9)
H15 H 0.8861 0.2829 0.2881
Cr1_5 Cr 1.0000 0.0000 0.0000
Mo2 Mo 0.97465(7) 0.15596(6) 0.09850(6)
N1 N 0.7878(7) 0.4636(7) 0.0392(7)
N2 N 0.8662(7) 0.3898(7) 0.1766(7)
O9 O 0.8826(6) 0.2428(6) 0.0918(6)
O37 O 0.6692(10) 0.3010(7) 0.1045(9)
O38 O 0.7379(8) 0.2300(6) 0.2699(6)
O44 O 0.8937(5) 0.0506(5) 0.1947(5)
C1 C 0.7451(12) 0.5005(11) 0.9665(10)
H1 H 0.7083 0.4611 0.9597
C2 C 0.7534(12) 0.5888(11) 0.9058(10)
H2 H 0.7159 0.6103 0.8634
C3 C 0.8178(4) 0.6535(3) 0.9019(3)
H3 H 0.8299 0.7139 0.8558
C4 C 0.9145(4) 0.1045(3) 0.4653(3)
C6 C 0.9052(4) 0.0635(3) 0.4127(3)
H4 H 0.9583 0.0627 0.3605
C7 C 0.7410(4) 0.0240(3) 0.5139(3)
C8 C 0.8202(4) 0.0229(3) 0.4333(3)
C13 C 0.8603(13) 0.6120(11) 0.9785(11)
H11 H 0.8991 0.6492 0.9859
C20 C 0.7581(12) 0.0648(11) 0.5679(11)
H16 H 0.7086 0.0627 0.6233
Cr1_6 Cr 1.0000 0.0000 1.0000
N3 N 0.8444(7) 0.1080(6) 0.5433(6)
O3 O 0.9269(5) 0.1172(5) 0.9964(5)
O6 O 0.9719(6) 0.1757(5) 0.7987(5)
O8 O 0.9743(6) 0.0676(5) 0.7042(5)
O12 O 0.9315(7) 0.3130(6) 0.8683(7)
O39 O 0.8850(10) 0.2668(7) 0.6611(8)
Cr1_7 Cr 1.0000 1.0000 0.0000
O40 O 0.9033(5) 0.9184(5) 0.1158(5)
C25 C 0.9915(4) 0.8439(3) 0.5610(3)
C29 C 0.9025(4) 0.8426(3) 0.6327(3)
H23 H 0.8986 0.8740 0.6715
C30 C 0.9218(4) 0.7524(3) 0.5108(3)
H24 H 0.9285 0.7209 0.4716
C31 C 0.8240(4) 0.7977(3) 0.6464(3)
H25 H 0.7652 0.7953 0.6949
C32 C 0.8350(4) 0.7504(3) 0.5791(3)
H26 H 0.7811 0.7195 0.5849
Mo10 Mo 0.95177(6) 0.92578(6) 0.23400(6)
Mo12 Mo 0.97888(7) 0.77183(6) 0.13396(6)
N8 N 0.9995(9) 0.8008(8) 0.4997(8)
O43 O 0.9334(5) 0.7893(5) 0.0269(5)
O46 O 0.8464(6) 0.8698(6) 0.3175(6)
O50 O 0.8748(7) 0.7166(6) 0.2201(6)
H5 H 0.6797 0.9981 0.5297
H6 H 0.8130 0.9945 0.3956
Cr1_8 Cr 1.0000 1.0000 1.0000
H29 H 0.9605 0.4924 0.7791
H30 H 0.9988 0.6508 0.6867
O41 O 0.9452(5) 0.9829(5) 0.9108(5)
O49 O 0.9606(7) 0.8278(6) 0.8380(6)
loop_
_geom_bond_atom_site_label_1
_geom_bond_atom_site_label_2
_geom_bond_site_symmetry_1
_geom_bond_site_symmetry_2
Cr1 O2 1_555 1_555
Cr2 O13 1_555 1_555
Mo4 O13 1_555 1_555
O14 Cr2 1_555 1_555
O16 Mo4 1_555 1_555
O17 Mo4 1_555 1_555
O19 Mo4 1_555 1_555
O20 Mo4 1_555 1_555
Mo4 O14 1_555 1_555
O1 Cr1_2 1_555 1_555
C5 C9 1_555 1_555
C9 H7 1_555 1_555
C10 H8 1_555 1_555
C11 C9 1_555 1_555
H9 C11 1_555 1_555
C12 C10 1_555 1_555
H10 C12 1_555 1_555
Mo1 O1 1_555 1_555
Mo3 O1 1_555 1_555
N4 C5 1_555 1_555
O7 Mo1 1_555 1_555
O11 Mo3 1_555 1_555
Cu8 O61 1_555 1_555
O54 Cr2_2 1_555 1_555
O57 Mo14 1_555 1_555
O61 Mo14 1_555 1_555
O63 Mo15 1_555 1_555
C10 N4 1_555 1_555
C11 C12 1_555 1_555
Mo3 O4 1_555 1_555
Mo14 O54 1_555 1_555
Mo15 O54 1_555 1_555
Mo15 O57 1_555 1_555
Mo6 O15 1_555 1_555
O15 Cr2_3 1_555 1_555
O18 Mo5 1_555 1_555
O21 Mo5 1_555 1_555
O23 Mo6 1_555 1_555
C21 H17 1_555 1_555
C22 C21 1_555 1_555
H18 C22 1_555 1_555
C23 C22 1_555 1_555
H19 C23 1_555 1_555
C26 C24 1_555 1_555
H20 C26 1_555 1_555
C28 C26 1_555 1_555
C33 C23 1_555 1_555
H27 C33 1_555 1_555
C40 C27 1_555 1_555
H32 C40 1_555 1_555
Cu5 O21 1_555 1_555
N7 C24 1_555 1_555
O42 Cr1_3 1_555 1_555
O47 Cu5 1_555 1_555
O71 Cu5 1_555 1_555
O82 Cu5 1_555 1_555
Mo5 O15 1_555 1_555
Mo6 O18 1_555 1_555
C27 C28 1_555 1_555
C40 N7 1_555 1_555
Cu5 N7 1_555 1_555
Cr3 O25 1_555 1_555
Mo7 O25 1_555 1_555
Mo8 O26 1_555 1_555
Mo9 O25 1_555 1_555
O26 Cr3 1_555 1_555
O27 Cr3 1_555 1_555
O28 Mo8 1_555 1_555
O29 Mo8 1_555 1_555
O30 Mo7 1_555 1_555
O31 Mo7 1_555 1_555
O32 Mo7 1_555 1_555
O33 Mo8 1_555 1_555
O34 Mo8 1_555 1_555
O35 Mo9 1_555 1_555
O36 Mo9 1_555 1_555
C35 C34 1_555 1_555
C36 C35 1_555 1_555
H28 C36 1_555 1_555
C37 C36 1_555 1_555
C38 C37 1_555 1_555
C39 C38 1_555 1_555
H31 C39 1_555 1_555
Cu3 O33 1_555 1_555
Cu4 O76 1_555 1_555
Cu8 O31 1_555 1_555
Mo11 O5 1_555 1_555
Mo13 O52 1_555 1_555
Mo16 O26 1_555 1_555
Mo17 O66 1_555 1_555
Mo18 O65 1_555 1_555
N6 C35 1_555 1_555
O48 Cu3 1_555 1_555
O52 Cr2_4 1_555 1_555
O53 Cr2_4 1_555 1_555
O56 Mo13 1_555 1_555
O58 Mo13 1_555 1_555
O59 Mo13 1_555 1_555
O65 Cr3 1_555 1_555
O66 Cr3 1_555 1_555
O67 Cr3 1_555 1_555
O68 Mo7 1_555 1_555
O69 Mo17 1_555 1_555
O70 Mo16 1_555 1_555
O71 Mo16 1_555 1_555
O74 Mo16 1_555 1_555
O76 Mo17 1_555 1_555
O77 Mo17 1_555 1_555
O78 Mo18 1_555 1_555
O79 Mo18 1_555 1_555
O80 Cu3 1_555 1_555
O81 Cu3 1_555 1_555
Mo7 O66 1_555 1_555
Mo8 O27 1_555 1_555
Mo9 O27 1_555 1_555
Mo9 O29 1_555 1_555
Mo9 O30 1_555 1_555
O28 Mo16 1_555 1_555
C34 N5 1_555 1_555
C39 N6 1_555 1_555
Cu3 N5 1_555 1_555
Cu3 N6 1_555 1_555
Mo11 O48 1_555 1_555
Mo13 O53 1_555 1_555
Mo13 O55 1_555 1_555
Mo16 O65 1_555 1_555
Mo17 O67 1_555 1_555
Mo17 O68 1_555 1_555
Mo18 O67 1_555 1_555
Mo18 O69 1_555 1_555
Mo18 O70 1_555 1_555
C15 C14 1_555 1_555
C16 C15 1_555 1_555
H12 C16 1_555 1_555
C17 C16 1_555 1_555
C18 C17 1_555 1_555
C19 C18 1_555 1_555
H15 C19 1_555 1_555
Cu4 N1 1_555 1_555
N2 C15 1_555 1_555
O9 Cu4 1_555 1_555
O37 Cu4 1_555 1_555
O38 Cu4 1_555 1_555
O44 Mo2 1_555 1_555
C14 N1 1_555 1_555
C19 N2 1_555 1_555
Cu4 N2 1_555 1_555
Mo2 O9 1_555 1_555
C1 H1 1_555 1_555
C2 C1 1_555 1_555
H2 C2 1_555 1_555
C3 C2 1_555 1_555
H3 C3 1_555 1_555
C6 C4 1_555 1_555
H4 C6 1_555 1_555
C8 C6 1_555 1_555
C13 C3 1_555 1_555
H11 C13 1_555 1_555
C20 C7 1_555 1_555
H16 C20 1_555 1_555
Cu8 N3 1_555 1_555
N3 C4 1_555 1_555
O3 Cr1_6 1_555 1_555
O8 Cu8 1_555 1_555
O39 Cu8 1_555 1_555
C7 C8 1_555 1_555
C20 N3 1_555 1_555
O40 Cr1_7 1_555 1_555
C25 C29 1_555 1_555
C29 H23 1_555 1_555
C30 H24 1_555 1_555
C31 C29 1_555 1_555
H25 C31 1_555 1_555
C32 C30 1_555 1_555
H26 C32 1_555 1_555
Mo10 O40 1_555 1_555
Mo12 O40 1_555 1_555
N8 C25 1_555 1_555
O46 Mo10 1_555 1_555
O50 Mo12 1_555 1_555
C30 N8 1_555 1_555
C31 C32 1_555 1_555
Mo12 O43 1_555 1_555
O41 Cr1_8 1_555 1_555

#END
