
###############################################################################
#
# This file contains modified crystal structure data generated from the
# MOF subset of the Cambridge Structural Database (CSD) v543 
# hosted by the Cambridge Crystallographic Data Centre (CCDC).
#
# This work is licensed under the Creative Commons
# Attribution-NonCommercial-ShareAlike 4.0 International License.
# To view a copy of this license, visit
# http://creativecommons.org/licenses/by-nc-sa/4.0/
# or send a letter to
# Creative Commons, PO Box 1866, Mountain View, CA 94042, USA.
#
# CIF created using the CSD Python API on 29 September 2022
# The structure has been converted into the P1 space group
# The structure has a 3D framework
# The original CSD entry HOQCEY is in the triclinic crystal system
# The framework has been calculated to contain at least 10.0% void space
# The void calculation uses a probe of radius 1.32A, grid spacing 0.4
#
###############################################################################

data_HOQCEY
_chemical_formula_moiety         '(C46 H34 N4 O20)n'
_symmetry_cell_setting           triclinic
_symmetry_space_group_name_H-M   'P 1'
_symmetry_Int_Tables_number      1
_space_group_name_Hall           'P 1'
loop_
_symmetry_equiv_pos_site_id
_symmetry_equiv_pos_as_xyz
1 x,y,z
_cell_length_a                   9.75350(10)
_cell_length_b                   14.4803(2)
_cell_length_c                   15.2219(2)
_cell_angle_alpha                87.2780(10)
_cell_angle_beta                 72.0030(10)
_cell_angle_gamma                71.3950(10)
_cell_volume                     1934.69
loop_
_atom_site_label
_atom_site_type_symbol
_atom_site_fract_x
_atom_site_fract_y
_atom_site_fract_z
O4 O 0.3551(4) 0.0599(2) 0.4057(2)
O7 O 0.6902(3) 0.36835(18) 0.09972(18)
O8 O 0.4885(3) 0.41468(17) 0.05125(17)
H6 H 0.4025 0.0029 0.2081
C16 C 0.3839(4) 0.0623(3) 0.3218(3)
C17 C 0.4175(4) 0.1469(2) 0.2691(3)
C18 C 0.5072(5) 0.1920(3) 0.2945(3)
H14 H 0.5362 0.1745 0.3487
C19 C 0.5543(5) 0.2629(3) 0.2400(3)
H15 H 0.6209 0.2909 0.2546
C20 C 0.5037(4) 0.2928(2) 0.1640(2)
C21 C 0.4070(5) 0.2516(3) 0.1421(3)
H16 H 0.3685 0.2742 0.0920
C22 C 0.3672(5) 0.1774(3) 0.1935(3)
H17 H 0.3048 0.1471 0.1769
C23 C 0.5637(4) 0.3636(2) 0.1015(2)
Eu3 Eu 0.72243(2) 0.50018(2) 0.00401(2)
Eu5 Eu 0.27757(2) 0.49982(2) 0.99599(2)
O2 O 0.1379(3) 0.48294(18) 0.89370(16)
O3 O 0.2094(4) 0.8608(2) 0.5715(2)
O5 O 0.5260(3) 0.57385(17) 0.14837(17)
O6 O 0.6366(3) 0.67524(18) 0.06719(17)
H1 H 0.0335 0.3848 0.9254
N1 N 0.2966(4) 0.7264(2) 0.4720(2)
H5 H 0.3054 0.6641 0.4706
N2 N 0.3958(4) 0.9884(2) 0.2658(2)
C1 C 0.0392(4) 0.5472(3) 0.8666(2)
C2 C 0.0939(4) 0.6043(3) 0.7859(2)
C3 C 0.2302(4) 0.5636(3) 0.7166(3)
H7 H 0.2934 0.4996 0.7215
C4 C 0.2755(4) 0.6154(3) 0.6396(3)
H8 H 0.3666 0.5858 0.5909
C5 C 0.1864(4) 0.7107(3) 0.6346(2)
C6 C 0.0533(5) 0.7541(3) 0.7066(3)
C7 C 0.0059(4) 0.7007(3) 0.7810(3)
C8 C 0.2314(4) 0.7740(3) 0.5566(3)
C9 C 0.3522(4) 0.7640(3) 0.3859(2)
C10 C 0.3431(5) 0.8626(3) 0.3755(3)
H11 H 0.3005 0.9080 0.4274
C11 C 0.3992(4) 0.8916(3) 0.2856(3)
C12 C 0.4633(4) 0.8253(3) 0.2103(3)
H12 H 0.5011 0.8463 0.1502
C13 C 0.4727(4) 0.7281(2) 0.2220(3)
C14 C 0.4151(4) 0.6973(3) 0.3095(3)
H13 H 0.4184 0.6312 0.3173
C15 C 0.5476(4) 0.6566(2) 0.1414(2)
O11 O 0.8621(3) 0.51706(18) 0.10630(16)
O1 O 0.8979(3) 0.56564(18) 0.90039(17)
O9 O 0.9623(3) 0.36540(18) 0.96346(18)
H2 H 0.9798 0.3040 0.9622
O10 O 0.7494(3) 0.4141(2) 0.86649(19)
H3 H 0.6664 0.4125 0.8560
H4 H 0.8194 0.3603 0.8380
H9 H 0.9952 0.8203 0.7045
H10 H 0.9133 0.7296 0.8288
O16 O 0.5115(3) 0.58532(17) 0.94875(17)
O1_2 O 0.1021(3) 0.43436(18) 0.09961(17)
O9_2 O 0.0377(3) 0.63460(18) 0.03654(18)
H2_2 H 0.0202 0.6960 0.0378
O10_2 O 0.2506(3) 0.5859(2) 0.13351(19)
H3_2 H 0.3336 0.5875 0.1440
H4_2 H 0.1806 0.6397 0.1620
H9_2 H 0.0048 0.1797 0.2955
H10_2 H 0.0867 0.2704 0.1712
O12 O 0.4740(3) 0.42615(17) 0.85163(17)
O13 O 0.3634(3) 0.32476(18) 0.93281(17)
O14 O 0.3098(3) 0.63165(18) 0.90028(18)
O3_2 O 0.7906(4) 0.1392(2) 0.4285(2)
H1_2 H 0.9665 0.6152 0.0746
N1_2 N 0.7034(4) 0.2736(2) 0.5280(2)
H5_2 H 0.6946 0.3359 0.5294
N2_2 N 0.6042(4) 0.0116(2) 0.7342(2)
C1_2 C 0.9608(4) 0.4528(3) 0.1334(2)
C2_2 C 0.9061(4) 0.3957(3) 0.2141(2)
C3_2 C 0.7698(4) 0.4364(3) 0.2834(3)
H7_2 H 0.7066 0.5004 0.2785
C4_2 C 0.7245(4) 0.3846(3) 0.3604(3)
H8_2 H 0.6334 0.4142 0.4091
C5_2 C 0.8136(4) 0.2893(3) 0.3654(2)
C6_2 C 0.9467(5) 0.2459(3) 0.2934(3)
C7_2 C 0.9941(4) 0.2993(3) 0.2190(3)
C8_2 C 0.7686(4) 0.2260(3) 0.4434(3)
C9_2 C 0.6478(4) 0.2360(3) 0.6141(2)
C10_2 C 0.6569(5) 0.1374(3) 0.6245(3)
H11_2 H 0.6995 0.0920 0.5726
C11_2 C 0.6008(4) 0.1084(3) 0.7144(3)
C12_2 C 0.5367(4) 0.1747(3) 0.7897(3)
H12_2 H 0.4989 0.1537 0.8498
C13_2 C 0.5273(4) 0.2719(2) 0.7780(3)
C14_2 C 0.5849(4) 0.3027(3) 0.6905(3)
H13_2 H 0.5816 0.3688 0.6827
C15_2 C 0.4524(4) 0.3434(2) 0.8586(2)
O4_2 O 0.6449(4) 0.9401(2) 0.5943(2)
H6_2 H 0.5975 0.9971 0.7919
C16_2 C 0.6161(4) 0.9377(3) 0.6782(3)
C17_2 C 0.5825(4) 0.8531(2) 0.7309(3)
C18_2 C 0.4928(5) 0.8080(3) 0.7055(3)
H14_2 H 0.4638 0.8255 0.6513
C19_2 C 0.4457(5) 0.7371(3) 0.7600(3)
H15_2 H 0.3791 0.7091 0.7454
C20_2 C 0.4963(4) 0.7072(2) 0.8360(2)
C21_2 C 0.5930(5) 0.7484(3) 0.8579(3)
H16_2 H 0.6315 0.7258 0.9080
C22_2 C 0.6328(5) 0.8226(3) 0.8065(3)
H17_2 H 0.6952 0.8529 0.8231
C23_2 C 0.4363(4) 0.6364(2) 0.8985(2)
loop_
_geom_bond_atom_site_label_1
_geom_bond_atom_site_label_2
_geom_bond_site_symmetry_1
_geom_bond_site_symmetry_2
O4 C16 1_555 1_555
O7 C23 1_555 1_555
O8 C23 1_555 1_555
C17 C16 1_555 1_555
C18 C17 1_555 1_555
H14 C18 1_555 1_555
C19 C18 1_555 1_555
H15 C19 1_555 1_555
C20 C19 1_555 1_555
C21 C20 1_555 1_555
H16 C21 1_555 1_555
C22 C17 1_555 1_555
H17 C22 1_555 1_555
C23 C20 1_555 1_555
Eu3 O7 1_555 1_555
O8 Eu3 1_555 1_555
C21 C22 1_555 1_555
O2 C1 1_555 1_555
O3 C8 1_555 1_555
O5 C15 1_555 1_555
O6 C15 1_555 1_555
N1 H5 1_555 1_555
C1 C2 1_555 1_555
C2 C3 1_555 1_555
C3 H7 1_555 1_555
C4 C3 1_555 1_555
H8 C4 1_555 1_555
C5 C4 1_555 1_555
C6 C5 1_555 1_555
C7 C2 1_555 1_555
C8 N1 1_555 1_555
C9 N1 1_555 1_555
C10 C9 1_555 1_555
H11 C10 1_555 1_555
C11 N2 1_555 1_555
C12 C11 1_555 1_555
H12 C12 1_555 1_555
C13 C12 1_555 1_555
C14 C9 1_555 1_555
H13 C14 1_555 1_555
C15 C13 1_555 1_555
Eu3 O5 1_555 1_555
Eu5 O2 1_555 1_555
O6 Eu3 1_555 1_555
C5 C8 1_555 1_555
C6 C7 1_555 1_555
C10 C11 1_555 1_555
C13 C14 1_555 1_555
O11 Eu3 1_555 1_555
H2 O9 1_555 1_555
H3 O10 1_555 1_555
H4 O10 1_555 1_555
H2_2 O9_2 1_555 1_555
H3_2 O10_2 1_555 1_555
H4_2 O10_2 1_555 1_555
O12 Eu5 1_555 1_555
O13 Eu5 1_555 1_555
O14 Eu5 1_555 1_555
O16 Eu5 1_555 1_555
O11 C1_2 1_555 1_555
O3_2 C8_2 1_555 1_555
O12 C15_2 1_555 1_555
O13 C15_2 1_555 1_555
N1_2 H5_2 1_555 1_555
C1_2 C2_2 1_555 1_555
C2_2 C3_2 1_555 1_555
C3_2 H7_2 1_555 1_555
C4_2 C3_2 1_555 1_555
H8_2 C4_2 1_555 1_555
C5_2 C4_2 1_555 1_555
C6_2 C5_2 1_555 1_555
C7_2 C2_2 1_555 1_555
C8_2 N1_2 1_555 1_555
C9_2 N1_2 1_555 1_555
C10_2 C9_2 1_555 1_555
H11_2 C10_2 1_555 1_555
C11_2 N2_2 1_555 1_555
C12_2 C11_2 1_555 1_555
H12_2 C12_2 1_555 1_555
C13_2 C12_2 1_555 1_555
C14_2 C9_2 1_555 1_555
H13_2 C14_2 1_555 1_555
C15_2 C13_2 1_555 1_555
C5_2 C8_2 1_555 1_555
C6_2 C7_2 1_555 1_555
C10_2 C11_2 1_555 1_555
C13_2 C14_2 1_555 1_555
O4_2 C16_2 1_555 1_555
O14 C23_2 1_555 1_555
O16 C23_2 1_555 1_555
C17_2 C16_2 1_555 1_555
C18_2 C17_2 1_555 1_555
H14_2 C18_2 1_555 1_555
C19_2 C18_2 1_555 1_555
H15_2 C19_2 1_555 1_555
C20_2 C19_2 1_555 1_555
C21_2 C20_2 1_555 1_555
H16_2 C21_2 1_555 1_555
C22_2 C17_2 1_555 1_555
H17_2 C22_2 1_555 1_555
C23_2 C20_2 1_555 1_555
C21_2 C22_2 1_555 1_555

#END
