
###############################################################################
#
# This file contains modified crystal structure data generated from the
# MOF subset of the Cambridge Structural Database (CSD) v543 
# hosted by the Cambridge Crystallographic Data Centre (CCDC).
#
# This work is licensed under the Creative Commons
# Attribution-NonCommercial-ShareAlike 4.0 International License.
# To view a copy of this license, visit
# http://creativecommons.org/licenses/by-nc-sa/4.0/
# or send a letter to
# Creative Commons, PO Box 1866, Mountain View, CA 94042, USA.
#
# CIF created using the CSD Python API on 29 September 2022
# The structure has been converted into the P1 space group
# The structure has a 3D framework
# The original CSD entry HOQGAX is in the triclinic crystal system
# The framework has been calculated to contain at least 10.0% void space
# The void calculation uses a probe of radius 1.32A, grid spacing 0.4
#
###############################################################################

data_HOQGAX
_chemical_formula_moiety         '(C28 H20 N4 O10 Pb2)n'
_symmetry_cell_setting           triclinic
_symmetry_space_group_name_H-M   'P 1'
_symmetry_Int_Tables_number      1
_space_group_name_Hall           'P 1'
loop_
_symmetry_equiv_pos_site_id
_symmetry_equiv_pos_as_xyz
1 x,y,z
_cell_length_a                   8.2704(17)
_cell_length_b                   9.927(2)
_cell_length_c                   11.729(2)
_cell_angle_alpha                95.99(3)
_cell_angle_beta                 101.66(3)
_cell_angle_gamma                97.16(3)
_cell_volume                     927.376
loop_
_atom_site_label
_atom_site_type_symbol
_atom_site_fract_x
_atom_site_fract_y
_atom_site_fract_z
_atom_site_U_iso_or_equiv
_atom_site_thermal_displace_type
Pb4 Pb 0.23785(2) 0.46880(2) 0.46715(2) 0.0256 Uani
C4 C 0.0795(5) 0.0616(4) 0.6801(3) 0.0411 Uani
H2 H 0.0002 0.0827 0.7224 0.0490 Uiso
C5 C 0.1936(5) 0.1647(4) 0.6589(3) 0.0397 Uani
H3 H 0.1907 0.2554 0.6866 0.0470 Uiso
C6 C 0.3113(4) 0.1336(3) 0.5969(3) 0.0337 Uani
H4 H 0.3888 0.2032 0.5837 0.0410 Uiso
C15 C 0.8001(4) 0.2549(3) 0.4680(3) 0.0270 Uani
C16 C 0.7998(4) 0.1072(3) 0.4255(3) 0.0263 Uani
C17 C 0.9164(4) 0.0728(4) 0.3617(3) 0.0357 Uani
H11 H 0.9933 0.1418 0.3467 0.0430 Uiso
C21 C 0.6850(4) 0.0016(3) 0.4460(3) 0.0270 Uani
N3 N 0.5727(3) 0.0294(3) 0.5211(2) 0.0295 Uani
O6 O 0.9263(3) 0.3406(2) 0.4723(2) 0.0392 Uani
O7 O 0.6719(3) 0.2911(2) 0.4976(2) 0.0342 Uani
Pb7 Pb 0.76215(2) 0.53120(2) 0.53285(2) 0.0256 Uani
H7 H 0.8939 0.8712 0.0372 0.0620 Uiso
C13 C 0.7208(5) 0.7038(4) 0.0098(3) 0.0419 Uani
H8 H 0.7377 0.6874 0.0876 0.0500 Uiso
C22 C 0.5438(4) 0.4535(3) 0.2899(3) 0.0261 Uani
C23 C 0.4209(4) 0.3603(3) 0.1930(3) 0.0282 Uani
C24 C 0.3261(5) 0.2475(4) 0.2217(3) 0.0382 Uani
H15 H 0.3418 0.2302 0.2993 0.0460 Uiso
C25 C 0.2096(5) 0.1618(4) 0.1358(4) 0.0473 Uani
H16 H 0.1466 0.0870 0.1555 0.0570 Uiso
C26 C 0.1858(6) 0.1866(4) 0.0204(4) 0.0521 Uani
C28 C 0.3989(4) 0.3826(4) 0.0759(3) 0.0305 Uani
N4 N 0.4969(4) 0.5010(3) 0.0529(2) 0.0330 Uani
O8 O 0.6960(3) 0.4715(3) 0.2906(2) 0.0397 Uani
O9 O 0.4856(3) 0.5064(3) 0.3734(2) 0.0350 Uani
C1 C 0.1999(4) 0.7451(3) 0.5320(3) 0.0270 Uani
C2 C 0.2002(4) 0.8928(3) 0.5745(3) 0.0263 Uani
C3 C 0.0836(4) 0.9272(4) 0.6383(3) 0.0357 Uani
H1 H 0.0067 0.8582 0.6533 0.0430 Uiso
C7 C 0.3150(4) 0.9984(3) 0.5540(3) 0.0270 Uani
C8 C 0.4562(4) 0.5465(3) 0.7101(3) 0.0261 Uani
C9 C 0.5791(4) 0.6397(3) 0.8070(3) 0.0282 Uani
C10 C 0.6739(5) 0.7525(4) 0.7783(3) 0.0382 Uani
H5 H 0.6582 0.7698 0.7007 0.0460 Uiso
C11 C 0.7904(5) 0.8382(4) 0.8642(4) 0.0473 Uani
H6 H 0.8534 0.9130 0.8445 0.0570 Uiso
C12 C 0.8142(6) 0.8134(4) 0.9796(4) 0.0521 Uani
C14 C 0.6011(4) 0.6174(4) 0.9241(3) 0.0305 Uani
N1 N 0.4273(3) 0.9706(3) 0.4789(2) 0.0295 Uani
N2 N 0.5031(4) 0.4990(3) 0.9471(2) 0.0330 Uani
O1 O 0.0737(3) 0.6594(2) 0.5277(2) 0.0392 Uani
O2 O 0.3281(3) 0.7089(2) 0.5024(2) 0.0342 Uani
O3 O 0.3040(3) 0.5285(3) 0.7094(2) 0.0397 Uani
O4 O 0.5144(3) 0.4936(3) 0.6266(2) 0.0350 Uani
O5 O 0.0449(4) 0.4911(4) 0.2751(3) 0.0508 Uani
H10 H 0.070(6) 0.543(5) 0.228(4) 0.0730 Uiso
C18 C 0.9205(5) 0.9384(4) 0.3199(3) 0.0411 Uani
H12 H 0.9998 0.9173 0.2776 0.0490 Uiso
C19 C 0.8064(5) 0.8353(4) 0.3411(3) 0.0397 Uani
H13 H 0.8093 0.7446 0.3134 0.0470 Uiso
C20 C 0.6887(4) 0.8664(3) 0.4031(3) 0.0337 Uani
H14 H 0.6112 0.7968 0.4163 0.0410 Uiso
H17 H 0.1061 0.1288 0.9628 0.0620 Uiso
C27 C 0.2792(5) 0.2962(4) 0.9902(3) 0.0419 Uani
H18 H 0.2623 0.3126 0.9124 0.0500 Uiso
H19 H 0.053(4) 0.492(6) 0.722(5) 0.0770 Uiso
H9 H 0.947(4) 0.508(6) 0.278(5) 0.0770 Uiso
O10 O 0.9551(4) 0.5089(4) 0.7249(3) 0.0508 Uani
H20 H 0.930(6) 0.457(5) 0.772(4) 0.0730 Uiso
loop_
_atom_site_aniso_label
_atom_site_aniso_U_11
_atom_site_aniso_U_22
_atom_site_aniso_U_33
_atom_site_aniso_U_23
_atom_site_aniso_U_13
_atom_site_aniso_U_12
Pb4 0.02501 0.02474 0.02568 0.00148 0.00675 -0.00138
C4 0.045 0.045 0.037 0.0003 0.0181 0.01
C5 0.049 0.033 0.0355 -0.0019 0.0067 0.01
C6 0.0361 0.0277 0.0344 0.0025 0.0048 -0.0006
C15 0.0287 0.028 0.0232 0.0042 0.0065 -0.0023
C16 0.0255 0.0259 0.0258 0.0023 0.0046 -0.0006
C17 0.0346 0.04 0.0352 0.0051 0.0157 0.002
C21 0.0255 0.0275 0.0248 0.0012 0.0021 -0.0005
N3 0.0308 0.0251 0.032 0.0042 0.0099 -0.0035
O6 0.031 0.0248 0.0632 0.0038 0.0183 -0.0024
O7 0.0328 0.0273 0.045 0.0014 0.0192 -0.001
Pb7 0.02501 0.02474 0.02568 0.00148 0.00675 -0.00138
C13 0.046 0.046 0.0281 -0.0022 0.0027 0.0006
C22 0.0281 0.0323 0.0199 0.008 0.0066 0.006
C23 0.0291 0.0317 0.0254 0.0023 0.009 0.0071
C24 0.046 0.037 0.0348 0.0057 0.0188 0.001
C25 0.051 0.039 0.051 -0.0024 0.0225 -0.0086
C26 0.05 0.047 0.05 -0.0113 0.0057 -0.005
C28 0.0344 0.0329 0.0255 0.0021 0.0085 0.0086
N4 0.0413 0.0368 0.021 0.0058 0.0053 0.0065
O8 0.0302 0.0554 0.0341 0.002 0.0137 0.0006
O9 0.0316 0.0484 0.0243 -0.0037 0.0106 0.0026
C1 0.0287 0.028 0.0232 0.0042 0.0065 -0.0023
C2 0.0255 0.0259 0.0258 0.0023 0.0046 -0.0006
C3 0.0346 0.04 0.0352 0.0051 0.0157 0.002
C7 0.0255 0.0275 0.0248 0.0012 0.0021 -0.0005
C8 0.0281 0.0323 0.0199 0.008 0.0066 0.006
C9 0.0291 0.0317 0.0254 0.0023 0.009 0.0071
C10 0.046 0.037 0.0348 0.0057 0.0188 0.001
C11 0.051 0.039 0.051 -0.0024 0.0225 -0.0086
C12 0.05 0.047 0.05 -0.0113 0.0057 -0.005
C14 0.0344 0.0329 0.0255 0.0021 0.0085 0.0086
N1 0.0308 0.0251 0.032 0.0042 0.0099 -0.0035
N2 0.0413 0.0368 0.021 0.0058 0.0053 0.0065
O1 0.031 0.0248 0.0632 0.0038 0.0183 -0.0024
O2 0.0328 0.0273 0.045 0.0014 0.0192 -0.001
O3 0.0302 0.0554 0.0341 0.002 0.0137 0.0006
O4 0.0316 0.0484 0.0243 -0.0037 0.0106 0.0026
O5 0.0372 0.08 0.0369 0.0241 0.0103 -0.0018
C18 0.045 0.045 0.037 0.0003 0.0181 0.01
C19 0.049 0.033 0.0355 -0.0019 0.0067 0.01
C20 0.0361 0.0277 0.0344 0.0025 0.0048 -0.0006
C27 0.046 0.046 0.0281 -0.0022 0.0027 0.0006
O10 0.0372 0.08 0.0369 0.0241 0.0103 -0.0018
loop_
_geom_bond_atom_site_label_1
_geom_bond_atom_site_label_2
_geom_bond_site_symmetry_1
_geom_bond_site_symmetry_2
H2 C4 1_555 1_555
C5 C4 1_555 1_555
H3 C5 1_555 1_555
C6 C5 1_555 1_555
H4 C6 1_555 1_555
C15 C16 1_555 1_555
C16 C17 1_555 1_555
C17 H11 1_555 1_555
C21 C16 1_555 1_555
O6 C15 1_555 1_555
O7 C15 1_555 1_555
Pb7 O6 1_555 1_555
C21 N3 1_555 1_555
O7 Pb7 1_555 1_555
H8 C13 1_555 1_555
C22 C23 1_555 1_555
C23 C24 1_555 1_555
C24 H15 1_555 1_555
C25 C24 1_555 1_555
H16 C25 1_555 1_555
C26 C25 1_555 1_555
C28 C23 1_555 1_555
O8 C22 1_555 1_555
O9 C22 1_555 1_555
Pb4 O9 1_555 1_555
Pb7 O8 1_555 1_555
C28 N4 1_555 1_555
O9 Pb7 1_555 1_555
Pb4 O1 1_555 1_555
C1 C2 1_555 1_555
C2 C3 1_555 1_555
C3 H1 1_555 1_555
C7 C2 1_555 1_555
C8 C9 1_555 1_555
C9 C10 1_555 1_555
C10 H5 1_555 1_555
C11 C10 1_555 1_555
H6 C11 1_555 1_555
C12 C11 1_555 1_555
C14 C9 1_555 1_555
N1 C7 1_555 1_555
N2 C14 1_555 1_555
O1 C1 1_555 1_555
O2 Pb4 1_555 1_555
O3 Pb4 1_555 1_555
O4 Pb4 1_555 1_555
O5 Pb4 1_555 1_555
H10 O5 1_555 1_555
H12 C18 1_555 1_555
C19 C18 1_555 1_555
H13 C19 1_555 1_555
C20 C19 1_555 1_555
H14 C20 1_555 1_555
H18 C27 1_555 1_555
Pb7 O4 1_555 1_555
C1 O2 1_555 1_555
C8 O3 1_555 1_555
C8 O4 1_555 1_555
O10 Pb7 1_555 1_555
H20 O10 1_555 1_555

#END
