
###############################################################################
#
# This file contains modified crystal structure data generated from the
# MOF subset of the Cambridge Structural Database (CSD) v543 
# hosted by the Cambridge Crystallographic Data Centre (CCDC).
#
# This work is licensed under the Creative Commons
# Attribution-NonCommercial-ShareAlike 4.0 International License.
# To view a copy of this license, visit
# http://creativecommons.org/licenses/by-nc-sa/4.0/
# or send a letter to
# Creative Commons, PO Box 1866, Mountain View, CA 94042, USA.
#
# CIF created using the CSD Python API on 29 September 2022
# The structure has been converted into the P1 space group
# The structure has a 3D framework
# The original CSD entry HOQMUX is in the monoclinic crystal system
# The framework has been calculated to contain at least 10.0% void space
# The void calculation uses a probe of radius 1.32A, grid spacing 0.4
#
###############################################################################

data_HOQMUX
_chemical_formula_moiety         '(C104 H64 Mg8 N8 O36)n'
_symmetry_cell_setting           triclinic
_symmetry_space_group_name_H-M   'P 1'
_symmetry_Int_Tables_number      1
_space_group_name_Hall           'P 1'
loop_
_symmetry_equiv_pos_site_id
_symmetry_equiv_pos_as_xyz
1 x,y,z
_cell_length_a                   16.557(2)
_cell_length_b                   18.311(3)
_cell_length_c                   11.9349(17)
_cell_angle_alpha                90
_cell_angle_beta                 123.096(2)
_cell_angle_gamma                90
_cell_volume                     3031.31
loop_
_atom_site_label
_atom_site_type_symbol
_atom_site_fract_x
_atom_site_fract_y
_atom_site_fract_z
Mg9 Mg 0.2500 0.7500 -0.0000
Mg1 Mg 0.0000 0.30224(10) 0.2500
Mg2 Mg 0.2500 0.2500 0.5000
O1 O 0.08439(17) 0.37990(14) 0.3820(3)
O2 O 0.22040(18) 0.34318(15) 0.5686(3)
O3 O 0.08595(18) 0.70228(14) 0.6761(3)
O4 O 0.23762(18) 0.68646(15) 0.8472(3)
O5 O 0.09758(17) 0.22253(14) 0.3883(3)
N1 N 0.0698(2) 0.16090(18) 0.4187(3)
C1 C 0.1627(3) 0.4640(2) 0.5581(4)
C2 C 0.2319(3) 0.4785(3) 0.6906(5)
H1 H 0.271(4) 0.443(3) 0.745(5)
C3 C 0.2350(3) 0.5455(3) 0.7450(5)
H2 H 0.281(4) 0.554(3) 0.842(7)
C4 C 0.1685(3) 0.5991(2) 0.6709(4)
C5 C 0.1001(4) 0.5842(3) 0.5383(5)
H3 H 0.073(5) 0.619(4) 0.499(8)
C6 C 0.0981(3) 0.5176(3) 0.4840(5)
H4 H 0.068(4) 0.507(4) 0.404(7)
C7 C 0.1547(3) 0.3900(2) 0.4982(4)
C8 C 0.1642(3) 0.6679(2) 0.7360(4)
C9 C 0.0960(3) 0.0968(2) 0.3952(4)
H5 H 0.144(3) 0.100(2) 0.370(4)
C10 C 0.0678(3) 0.0331(3) 0.4244(4)
C11 C 0.0139(3) 0.0345(2) 0.4813(4)
C13 C 0.0160(3) 0.1650(3) 0.4715(6)
Mg5 Mg 0.0000 0.69776(10) 0.7500
Mg9_2 Mg 0.2500 0.7500 1.0000
O11 O 0.27960(18) 0.15682(15) 0.4314(3)
O13 O 0.08595(18) 0.29772(14) 0.1761(3)
O14 O 0.26238(18) 0.18646(15) 0.6528(3)
O15 O 0.23762(18) 0.31354(15) 0.3472(3)
O17 O 0.40242(17) 0.27747(14) 0.6117(3)
H6 H 0.090(3) 0.991(3) 0.412(5)
C17 C 0.0113(4) 0.8978(3) 0.4974(6)
H11 H 0.049(3) 0.889(2) 0.461(4)
H12 H 0.005(4) 0.781(3) 0.523(5)
Mg1_2 Mg 1.0000 0.30224(10) 0.2500
C12 C 0.9887(4) 0.1022(3) 0.5026(6)
H7 H 0.951(3) 0.111(2) 0.539(4)
H8 H 0.995(4) 0.219(3) 0.477(5)
H10 H 0.910(3) 0.009(3) 0.588(5)
O7 O 0.91561(17) 0.37990(14) 0.1180(3)
H15 H 0.927(5) 0.619(4) 0.001(8)
C24 C 0.9019(3) 0.5176(3) 0.0160(5)
H16 H 0.932(4) 0.507(4) 0.096(7)
C25 C 0.8453(3) 0.3900(2) 0.0018(4)
Mg5_2 Mg 1.0000 0.69776(10) 0.7500
Mg6 Mg 0.7500 0.2500 0.0000
O12 O 0.91405(18) 0.29772(14) 0.3239(3)
O16 O 0.90242(17) 0.22253(14) 0.1117(3)
O8 O 0.77960(18) 0.34318(15) 0.9314(3)
O9 O 0.91405(18) 0.70228(14) 0.8239(3)
O10 O 0.76238(18) 0.68646(15) 0.6528(3)
C19 C 0.8373(3) 0.4640(2) 0.9419(4)
C20 C 0.7681(3) 0.4785(3) 0.8094(5)
H13 H 0.729(4) 0.443(3) 0.755(5)
C21 C 0.7650(3) 0.5455(3) 0.7550(5)
H14 H 0.719(4) 0.554(3) 0.658(7)
C22 C 0.8315(3) 0.5991(2) 0.8291(4)
C23 C 0.8999(4) 0.5842(3) 0.9617(5)
C26 C 0.8358(3) 0.6679(2) 0.7640(4)
Mg6_2 Mg 0.7500 0.2500 1.0000
Mg8 Mg 0.7500 0.7500 0.5000
O6 O 0.90242(17) 0.77747(14) 0.6117(3)
N2 N 0.9302(2) 0.83910(18) 0.5813(3)
C14 C 0.9040(3) 0.9032(2) 0.6048(4)
H9 H 0.856(3) 0.900(2) 0.630(4)
C15 C 0.9322(3) 0.9669(3) 0.5756(4)
C16 C 0.9861(3) 0.9655(2) 0.5187(4)
C18 C 0.9840(3) 0.8350(3) 0.5285(6)
H8_2 H 0.005(4) 0.219(3) 0.023(5)
C12_2 C 0.0113(4) 0.1022(3) 0.9974(6)
H7_2 H 0.049(3) 0.111(2) 0.961(4)
H10_2 H 0.090(3) 0.009(3) 0.912(5)
O6_2 O 0.09758(17) 0.77747(14) 0.8883(3)
N2_2 N 0.0698(2) 0.83910(18) 0.9187(3)
C14_2 C 0.0960(3) 0.9032(2) 0.8952(4)
H9_2 H 0.144(3) 0.900(2) 0.870(4)
C15_2 C 0.0678(3) 0.9669(3) 0.9244(4)
C16_2 C 0.0139(3) 0.9655(2) 0.9813(4)
C18_2 C 0.0160(3) 0.8350(3) 0.9715(6)
N1_2 N 0.9302(2) 0.16090(18) 0.0813(3)
C9_2 C 0.9040(3) 0.0968(2) 0.1048(4)
H5_2 H 0.856(3) 0.100(2) 0.130(4)
C10_2 C 0.9322(3) 0.0331(3) 0.0756(4)
C11_2 C 0.9861(3) 0.0345(2) 0.0187(4)
C13_2 C 0.9840(3) 0.1650(3) 0.0285(6)
O11_2 O 0.72040(18) 0.15682(15) 0.0686(3)
O15_2 O 0.76238(18) 0.31354(15) 0.1528(3)
O14_2 O 0.73762(18) 0.18646(15) 0.8472(3)
O17_2 O 0.59758(17) 0.27747(14) 0.8883(3)
H6_2 H 0.910(3) 0.991(3) 0.088(5)
C17_2 C 0.9887(4) 0.8978(3) 0.0026(6)
H11_2 H 0.951(3) 0.889(2) 0.039(4)
H12_2 H 0.995(4) 0.781(3) 0.977(5)
O3_2 O 0.58595(18) 0.20228(14) 0.6761(3)
C3_2 C 0.7350(3) 0.0455(3) 0.7450(5)
H2_2 H 0.781(4) 0.054(3) 0.842(7)
C4_2 C 0.6685(3) 0.0991(2) 0.6709(4)
C5_2 C 0.6001(4) 0.0842(3) 0.5383(5)
H3_2 H 0.573(5) 0.119(4) 0.499(8)
C6_2 C 0.5981(3) 0.0176(3) 0.4840(5)
H4_2 H 0.568(4) 0.007(4) 0.404(7)
C8_2 C 0.6642(3) 0.1679(2) 0.7360(4)
H15_2 H 0.427(5) 0.119(4) 0.001(8)
C24_2 C 0.4019(3) 0.0176(3) 0.0160(5)
H16_2 H 0.432(4) 0.007(4) 0.096(7)
Mg5_3 Mg 0.5000 0.19776(10) 0.7500
O9_2 O 0.41405(18) 0.20228(14) 0.8239(3)
C21_2 C 0.2650(3) 0.0455(3) 0.7550(5)
H14_2 H 0.219(4) 0.054(3) 0.658(7)
C22_2 C 0.3315(3) 0.0991(2) 0.8291(4)
C23_2 C 0.3999(4) 0.0842(3) 0.9617(5)
C26_2 C 0.3358(3) 0.1679(2) 0.7640(4)
Mg1_3 Mg 0.5000 0.80224(10) 0.2500
O1_2 O 0.58439(17) 0.87990(14) 0.3820(3)
O2_2 O 0.72040(18) 0.84318(15) 0.5686(3)
O5_2 O 0.59758(17) 0.72253(14) 0.3883(3)
N1_3 N 0.5698(2) 0.66090(18) 0.4187(3)
C1_2 C 0.6627(3) 0.9640(2) 0.5581(4)
C2_2 C 0.7319(3) 0.9785(3) 0.6906(5)
H1_2 H 0.771(4) 0.943(3) 0.745(5)
C7_2 C 0.6547(3) 0.8900(2) 0.4982(4)
C9_3 C 0.5960(3) 0.5968(2) 0.3952(4)
H5_3 H 0.644(3) 0.600(2) 0.370(4)
C10_3 C 0.5678(3) 0.5331(3) 0.4244(4)
H6_3 H 0.590(3) 0.491(3) 0.412(5)
C11_3 C 0.5139(3) 0.5345(2) 0.4813(4)
C12_3 C 0.4887(4) 0.6022(3) 0.5026(6)
H7_3 H 0.451(3) 0.611(2) 0.539(4)
C13_3 C 0.5160(3) 0.6650(3) 0.4715(6)
H8_3 H 0.495(4) 0.719(3) 0.477(5)
N2_3 N 0.4302(2) 0.33910(18) 0.5813(3)
C14_3 C 0.4040(3) 0.4032(2) 0.6048(4)
H9_3 H 0.356(3) 0.400(2) 0.630(4)
C15_3 C 0.4322(3) 0.4669(3) 0.5756(4)
H10_3 H 0.410(3) 0.509(3) 0.588(5)
C16_3 C 0.4861(3) 0.4655(2) 0.5187(4)
C17_3 C 0.5113(4) 0.3978(3) 0.4974(6)
H11_3 H 0.549(3) 0.389(2) 0.461(4)
C18_3 C 0.4840(3) 0.3350(3) 0.5285(6)
H12_3 H 0.505(4) 0.281(3) 0.523(5)
O7_2 O 0.41561(17) 0.87990(14) 0.1180(3)
C25_2 C 0.3453(3) 0.8900(2) 0.0018(4)
O11_3 O 0.77960(18) 0.65682(15) 0.4314(3)
O12_2 O 0.41405(18) 0.79772(14) 0.3239(3)
O13_2 O 0.58595(18) 0.79772(14) 0.1761(3)
O15_3 O 0.73762(18) 0.81354(15) 0.3472(3)
O16_2 O 0.40242(17) 0.72253(14) 0.1117(3)
O8_2 O 0.27960(18) 0.84318(15) 0.9314(3)
C19_2 C 0.3373(3) 0.9640(2) 0.9419(4)
C20_2 C 0.2681(3) 0.9785(3) 0.8094(5)
H13_2 H 0.229(4) 0.943(3) 0.755(5)
N1_4 N 0.4302(2) 0.66090(18) 0.0813(3)
C9_4 C 0.4040(3) 0.5968(2) 0.1048(4)
H5_4 H 0.356(3) 0.600(2) 0.130(4)
C10_4 C 0.4322(3) 0.5331(3) 0.0756(4)
H6_4 H 0.410(3) 0.491(3) 0.088(5)
C11_4 C 0.4861(3) 0.5345(2) 0.0187(4)
C13_4 C 0.4840(3) 0.6650(3) 0.0285(6)
H8_4 H 0.505(4) 0.719(3) 0.023(5)
C17_4 C 0.4887(4) 0.3978(3) 0.0026(6)
H11_4 H 0.451(3) 0.389(2) 0.039(4)
O11_4 O 0.22040(18) 0.65682(15) 0.0686(3)
O15_4 O 0.26238(18) 0.81354(15) 0.1528(3)
C12_4 C 0.5113(4) 0.6022(3) 0.9974(6)
H7_4 H 0.549(3) 0.611(2) 0.961(4)
N2_4 N 0.5698(2) 0.33910(18) 0.9187(3)
C14_4 C 0.5960(3) 0.4032(2) 0.8952(4)
H9_4 H 0.644(3) 0.400(2) 0.870(4)
C15_4 C 0.5678(3) 0.4669(3) 0.9244(4)
H10_4 H 0.590(3) 0.509(3) 0.912(5)
C16_4 C 0.5139(3) 0.4655(2) 0.9813(4)
C18_4 C 0.5160(3) 0.3350(3) 0.9715(6)
H12_4 H 0.495(4) 0.281(3) 0.977(5)
C19_3 C 0.1627(3) 0.5360(2) 0.0581(4)
C20_3 C 0.2319(3) 0.5215(3) 0.1906(5)
H13_3 H 0.271(4) 0.557(3) 0.245(5)
C21_3 C 0.2350(3) 0.4545(3) 0.2450(5)
H14_3 H 0.281(4) 0.446(3) 0.342(7)
C22_3 C 0.1685(3) 0.4009(2) 0.1709(4)
C23_3 C 0.1001(4) 0.4158(3) 0.0383(5)
C26_3 C 0.1642(3) 0.3321(2) 0.2360(4)
O7_3 O 0.08439(17) 0.62010(14) 0.8820(3)
H15_3 H 0.073(5) 0.381(4) 0.999(8)
C24_3 C 0.0981(3) 0.4824(3) 0.9840(5)
H16_3 H 0.068(4) 0.493(4) 0.904(7)
C25_3 C 0.1547(3) 0.6100(2) 0.9982(4)
O1_3 O 0.91561(17) 0.62010(14) 0.6180(3)
C1_3 C 0.8373(3) 0.5360(2) 0.4419(4)
C2_3 C 0.7681(3) 0.5215(3) 0.3094(5)
H1_3 H 0.729(4) 0.557(3) 0.255(5)
C3_3 C 0.7650(3) 0.4545(3) 0.2550(5)
H2_3 H 0.719(4) 0.446(3) 0.158(7)
C4_3 C 0.8315(3) 0.4009(2) 0.3291(4)
C5_3 C 0.8999(4) 0.4158(3) 0.4617(5)
H3_3 H 0.927(5) 0.381(4) 0.501(8)
C6_3 C 0.9019(3) 0.4824(3) 0.5160(5)
H4_3 H 0.932(4) 0.493(4) 0.596(7)
C7_3 C 0.8453(3) 0.6100(2) 0.5018(4)
C8_3 C 0.8358(3) 0.3321(2) 0.2640(4)
C19_4 C 0.6627(3) 0.0360(2) 0.0581(4)
C20_4 C 0.7319(3) 0.0215(3) 0.1906(5)
H13_4 H 0.771(4) 0.057(3) 0.245(5)
O1_4 O 0.41561(17) 0.12010(14) 0.6180(3)
C1_4 C 0.3373(3) 0.0360(2) 0.4419(4)
C2_4 C 0.2681(3) 0.0215(3) 0.3094(5)
H1_4 H 0.229(4) 0.057(3) 0.255(5)
C7_4 C 0.3453(3) 0.1100(2) 0.5018(4)
O7_4 O 0.58439(17) 0.12010(14) 0.8820(3)
C25_4 C 0.6547(3) 0.1100(2) 0.9982(4)
C21_4 C 0.7350(3) 0.9545(3) 0.2450(5)
H14_4 H 0.781(4) 0.946(3) 0.342(7)
C22_4 C 0.6685(3) 0.9009(2) 0.1709(4)
C23_4 C 0.6001(4) 0.9158(3) 0.0383(5)
C26_4 C 0.6642(3) 0.8321(2) 0.2360(4)
C3_4 C 0.2650(3) 0.9545(3) 0.2550(5)
H2_4 H 0.219(4) 0.946(3) 0.158(7)
C4_4 C 0.3315(3) 0.9009(2) 0.3291(4)
C5_4 C 0.3999(4) 0.9158(3) 0.4617(5)
H3_4 H 0.427(5) 0.881(4) 0.501(8)
C6_4 C 0.4019(3) 0.9824(3) 0.5160(5)
H4_4 H 0.432(4) 0.993(4) 0.596(7)
C8_4 C 0.3358(3) 0.8321(2) 0.2640(4)
H15_4 H 0.573(5) 0.881(4) 0.999(8)
C24_4 C 0.5981(3) 0.9824(3) 0.9840(5)
H16_4 H 0.568(4) 0.993(4) 0.904(7)
loop_
_geom_bond_atom_site_label_1
_geom_bond_atom_site_label_2
_geom_bond_site_symmetry_1
_geom_bond_site_symmetry_2
Mg1 O1 1_555 1_555
Mg2 O2 1_555 1_555
O1 C7 1_555 1_555
O2 C7 1_555 1_555
O3 C8 1_555 1_555
O4 C8 1_555 1_555
O5 Mg1 1_555 1_555
N1 O5 1_555 1_555
C1 C2 1_555 1_555
C2 H1 1_555 1_555
C3 C2 1_555 1_555
H2 C3 1_555 1_555
C4 C3 1_555 1_555
C5 C4 1_555 1_555
H3 C5 1_555 1_555
C6 C1 1_555 1_555
H4 C6 1_555 1_555
C7 C1 1_555 1_555
C8 C4 1_555 1_555
C9 N1 1_555 1_555
H5 C9 1_555 1_555
C10 C9 1_555 1_555
C11 C10 1_555 1_555
C13 N1 1_555 1_555
Mg5 O3 1_555 1_555
Mg9_2 O4 1_555 1_555
O11 Mg2 1_555 1_555
O13 Mg1 1_555 1_555
O14 Mg2 1_555 1_555
O15 Mg2 1_555 1_555
O17 Mg2 1_555 1_555
Mg2 O5 1_555 1_555
C5 C6 1_555 1_555
H11 C17 1_555 1_555
H7 C12 1_555 1_555
O7 Mg1_2 1_555 1_555
H16 C24 1_555 1_555
C25 O7 1_555 1_555
O12 Mg1_2 1_555 1_555
O16 Mg1_2 1_555 1_555
Mg6 O16 1_555 1_555
O9 C26 1_555 1_555
O10 C26 1_555 1_555
C19 C20 1_555 1_555
C20 H13 1_555 1_555
C21 C20 1_555 1_555
H14 C21 1_555 1_555
C22 C21 1_555 1_555
C23 C22 1_555 1_555
C26 C22 1_555 1_555
Mg5_2 O9 1_555 1_555
Mg6_2 O8 1_555 1_555
Mg8 O10 1_555 1_555
O6 N2 1_555 1_555
N2 C14 1_555 1_555
C14 H9 1_555 1_555
C15 C14 1_555 1_555
C18 N2 1_555 1_555
Mg5_2 O6 1_555 1_555
Mg8 O6 1_555 1_555
C15 C16 1_555 1_555
H7_2 C12_2 1_555 1_555
O6_2 N2_2 1_555 1_555
N2_2 C14_2 1_555 1_555
C14_2 H9_2 1_555 1_555
C15_2 C14_2 1_555 1_555
C18_2 N2_2 1_555 1_555
Mg5 O6_2 1_555 1_555
Mg9_2 O6_2 1_555 1_555
C15_2 C16_2 1_555 1_555
N1_2 O16 1_555 1_555
C9_2 N1_2 1_555 1_555
H5_2 C9_2 1_555 1_555
C10_2 C9_2 1_555 1_555
C11_2 C10_2 1_555 1_555
C13_2 N1_2 1_555 1_555
O11_2 Mg6 1_555 1_555
O15_2 Mg6 1_555 1_555
O14_2 Mg6_2 1_555 1_555
O17_2 Mg6_2 1_555 1_555
H11_2 C17_2 1_555 1_555
O3_2 C8_2 1_555 1_555
O14_2 C8_2 1_555 1_555
H2_2 C3_2 1_555 1_555
C4_2 C3_2 1_555 1_555
C5_2 C4_2 1_555 1_555
H3_2 C5_2 1_555 1_555
H4_2 C6_2 1_555 1_555
C8_2 C4_2 1_555 1_555
H16_2 C24_2 1_555 1_555
Mg5_3 O3_2 1_555 1_555
C5_2 C6_2 1_555 1_555
O9_2 C26_2 1_555 1_555
O14 C26_2 1_555 1_555
H14_2 C21_2 1_555 1_555
C22_2 C21_2 1_555 1_555
C23_2 C22_2 1_555 1_555
C26_2 C22_2 1_555 1_555
Mg5_3 O9_2 1_555 1_555
Mg1_3 O1_2 1_555 1_555
Mg8 O2_2 1_555 1_555
O1_2 C7_2 1_555 1_555
O2_2 C7_2 1_555 1_555
O5_2 Mg1_3 1_555 1_555
N1_3 O5_2 1_555 1_555
C1_2 C2_2 1_555 1_555
C2_2 H1_2 1_555 1_555
C7_2 C1_2 1_555 1_555
C9_3 N1_3 1_555 1_555
H5_3 C9_3 1_555 1_555
C10_3 C9_3 1_555 1_555
H6_3 C10_3 1_555 1_555
C11_3 C10_3 1_555 1_555
C12_3 C11_3 1_555 1_555
H7_3 C12_3 1_555 1_555
C13_3 N1_3 1_555 1_555
H8_3 C13_3 1_555 1_555
O17 N2_3 1_555 1_555
N2_3 C14_3 1_555 1_555
C14_3 H9_3 1_555 1_555
C15_3 C14_3 1_555 1_555
H10_3 C15_3 1_555 1_555
C16_3 C11_3 1_555 1_555
C17_3 C16_3 1_555 1_555
H11_3 C17_3 1_555 1_555
C18_3 N2_3 1_555 1_555
H12_3 C18_3 1_555 1_555
O7_2 Mg1_3 1_555 1_555
C25_2 O7_2 1_555 1_555
Mg5_3 O17 1_555 1_555
O11_3 Mg8 1_555 1_555
O12_2 Mg1_3 1_555 1_555
O13_2 Mg1_3 1_555 1_555
O15_3 Mg8 1_555 1_555
O16_2 Mg1_3 1_555 1_555
Mg8 O5_2 1_555 1_555
C12_3 C13_3 1_555 1_555
C15_3 C16_3 1_555 1_555
C17_3 C18_3 1_555 1_555
Mg9 O16_2 1_555 1_555
C19_2 C20_2 1_555 1_555
C20_2 H13_2 1_555 1_555
Mg9_2 O8_2 1_555 1_555
N1_4 O16_2 1_555 1_555
C9_4 N1_4 1_555 1_555
H5_4 C9_4 1_555 1_555
C10_4 C9_4 1_555 1_555
H6_4 C10_4 1_555 1_555
C11_4 C10_4 1_555 1_555
C13_4 N1_4 1_555 1_555
H8_4 C13_4 1_555 1_555
H11_4 C17_4 1_555 1_555
O11_4 Mg9 1_555 1_555
O15_4 Mg9 1_555 1_555
H7_4 C12_4 1_555 1_555
O17_2 N2_4 1_555 1_555
N2_4 C14_4 1_555 1_555
C14_4 H9_4 1_555 1_555
C15_4 C14_4 1_555 1_555
H10_4 C15_4 1_555 1_555
C18_4 N2_4 1_555 1_555
H12_4 C18_4 1_555 1_555
Mg5_3 O17_2 1_555 1_555
C15_4 C16_4 1_555 1_555
O13 C26_3 1_555 1_555
O15 C26_3 1_555 1_555
C19_3 C20_3 1_555 1_555
C20_3 H13_3 1_555 1_555
C21_3 C20_3 1_555 1_555
H14_3 C21_3 1_555 1_555
C22_3 C21_3 1_555 1_555
C23_3 C22_3 1_555 1_555
C26_3 C22_3 1_555 1_555
O7_3 Mg5 1_555 1_555
H16_3 C24_3 1_555 1_555
C25_3 O7_3 1_555 1_555
Mg5_2 O1_3 1_555 1_555
O1_3 C7_3 1_555 1_555
O11_3 C7_3 1_555 1_555
O12 C8_3 1_555 1_555
O15_2 C8_3 1_555 1_555
C1_3 C2_3 1_555 1_555
C2_3 H1_3 1_555 1_555
C3_3 C2_3 1_555 1_555
H2_3 C3_3 1_555 1_555
C4_3 C3_3 1_555 1_555
C5_3 C4_3 1_555 1_555
H3_3 C5_3 1_555 1_555
C6_3 C1_3 1_555 1_555
H4_3 C6_3 1_555 1_555
C7_3 C1_3 1_555 1_555
C8_3 C4_3 1_555 1_555
C5_3 C6_3 1_555 1_555
C19_4 C20_4 1_555 1_555
C20_4 H13_4 1_555 1_555
Mg5_3 O1_4 1_555 1_555
O1_4 C7_4 1_555 1_555
O11 C7_4 1_555 1_555
C1_4 C2_4 1_555 1_555
C2_4 H1_4 1_555 1_555
C7_4 C1_4 1_555 1_555
O7_4 Mg5_3 1_555 1_555
C25_4 O7_4 1_555 1_555
O13_2 C26_4 1_555 1_555
O15_3 C26_4 1_555 1_555
H14_4 C21_4 1_555 1_555
C22_4 C21_4 1_555 1_555
C23_4 C22_4 1_555 1_555
C26_4 C22_4 1_555 1_555
O12_2 C8_4 1_555 1_555
O15_4 C8_4 1_555 1_555
H2_4 C3_4 1_555 1_555
C4_4 C3_4 1_555 1_555
C5_4 C4_4 1_555 1_555
H3_4 C5_4 1_555 1_555
H4_4 C6_4 1_555 1_555
C8_4 C4_4 1_555 1_555
H16_4 C24_4 1_555 1_555
C5_4 C6_4 1_555 1_555

#END
