
###############################################################################
#
# This file contains modified crystal structure data generated from the
# MOF subset of the Cambridge Structural Database (CSD) v543 
# hosted by the Cambridge Crystallographic Data Centre (CCDC).
#
# This work is licensed under the Creative Commons
# Attribution-NonCommercial-ShareAlike 4.0 International License.
# To view a copy of this license, visit
# http://creativecommons.org/licenses/by-nc-sa/4.0/
# or send a letter to
# Creative Commons, PO Box 1866, Mountain View, CA 94042, USA.
#
# CIF created using the CSD Python API on 29 September 2022
# The structure has been converted into the P1 space group
# The structure has a 3D framework
# The original CSD entry HOQMOR is in the monoclinic crystal system
# The framework has been calculated to contain at least 10.0% void space
# The void calculation uses a probe of radius 1.32A, grid spacing 0.4
#
###############################################################################

data_HOQMOR
_chemical_formula_moiety         '(C104 H64 Mg8 N8 O36)n'
_symmetry_cell_setting           triclinic
_symmetry_space_group_name_H-M   'P 1'
_symmetry_Int_Tables_number      1
_space_group_name_Hall           'P 1'
loop_
_symmetry_equiv_pos_site_id
_symmetry_equiv_pos_as_xyz
1 x,y,z
_cell_length_a                   17.608(8)
_cell_length_b                   17.506(7)
_cell_length_c                   12.967(5)
_cell_angle_alpha                90
_cell_angle_beta                 127.619(6)
_cell_angle_gamma                90
_cell_volume                     3165.99
loop_
_atom_site_label
_atom_site_type_symbol
_atom_site_fract_x
_atom_site_fract_y
_atom_site_fract_z
Mg1 Mg -0.0000 0.19546(9) 0.2500
Mg2 Mg 0.2500 0.2500 0.5000
O1 O 0.07801(19) 0.20078(15) 0.1842(3)
O2 O 0.23280(19) 0.18790(15) 0.3520(3)
O5 O 0.09906(18) 0.27895(14) 0.3888(2)
N1 N 0.0727(2) 0.33946(17) 0.4214(3)
C1 C 0.1639(3) 0.1024(2) 0.1756(4)
C2 C 0.0904(4) 0.0875(3) 0.0459(5)
C6 C 0.2385(3) 0.0515(3) 0.2422(4)
H4 H 0.2902 0.0616 0.3282
C7 C 0.1582(3) 0.1686(2) 0.2417(4)
C9 C 0.0897(3) 0.4093(2) 0.3978(4)
H5 H 0.1217 0.4146 0.3617
C10 C 0.0605(3) 0.4733(2) 0.4263(4)
H6 H 0.0714 0.5215 0.4076
C11 C 0.0150(3) 0.4663(2) 0.4827(4)
C12 C 0.0022(4) 0.3931(3) 0.5090(6)
C13 C 0.0323(4) 0.3309(3) 0.4787(5)
H8 H 0.0241 0.2822 0.4990
H11 H 0.0275 0.6142 0.4521
Mg5 Mg -0.0000 0.80454(9) 0.7500
O11 O 0.26720(19) 0.31210(15) 0.6480(3)
O12 O 0.27249(19) 0.34946(14) 0.4381(3)
O13 O 0.22751(19) 0.15054(14) 0.5619(3)
O15 O 0.08758(19) 0.11428(15) 0.3801(3)
O17 O 0.40094(18) 0.22105(14) 0.6112(2)
H1 H 0.0399 0.1219 0.9976
C3 C 0.0914(4) 0.0213(3) 0.9872(5)
H2 H 0.0419 0.0122 0.8996
O3 O 0.22751(19) 0.84946(14) 0.0619(3)
C4 C 0.1647(3) 0.9693(2) 0.0573(4)
C5 C 0.2381(3) 0.9857(3) 0.1837(4)
H3 H 0.2890 0.9517 0.2316
Mg9 Mg 0.2500 0.7500 0.0000
O4 O 0.08758(19) 0.88572(15) 0.8801(3)
C8 C 0.1598(3) 0.8956(2) 0.9945(4)
Mg9_2 Mg 0.2500 0.7500 1.0000
Mg1_2 Mg 1.0000 0.19546(9) 0.2500
H7 H 0.9725 0.3858 0.5479
O6 O 0.90094(18) 0.72105(14) 0.6112(2)
N2 N 0.9273(2) 0.66054(17) 0.5786(3)
C14 C 0.9103(3) 0.5907(2) 0.6022(4)
H9 H 0.8783 0.5854 0.6383
C15 C 0.9395(3) 0.5267(2) 0.5737(4)
H10 H 0.9286 0.4785 0.5924
C16 C 0.9850(3) 0.5337(2) 0.5173(4)
C17 C 0.9978(4) 0.6069(3) 0.4910(6)
C18 C 0.9677(4) 0.6691(3) 0.5213(5)
H12 H 0.9759 0.7178 0.5010
O7 O 0.92199(19) 0.20078(15) 0.3158(3)
O8 O 0.76720(19) 0.18790(15) 0.1480(3)
C19 C 0.8361(3) 0.1024(2) 0.3244(4)
C20 C 0.9096(4) 0.0875(3) 0.4541(5)
H13 H 0.9601 0.1219 0.5024
C21 C 0.9086(4) 0.0213(3) 0.5128(5)
H14 H 0.9581 0.0122 0.6004
C24 C 0.7615(3) 0.0515(3) 0.2578(4)
H16 H 0.7098 0.0616 0.1718
C25 C 0.8418(3) 0.1686(2) 0.2583(4)
Mg5_2 Mg 1.0000 0.80454(9) 0.7500
Mg6 Mg 0.7500 0.2500 0.0000
Mg8 Mg 0.7500 0.7500 0.5000
O14 O 0.91242(19) 0.11428(15) 0.1199(3)
O16 O 0.90094(18) 0.27895(14) 0.1112(2)
Mg6_2 Mg 0.7500 0.2500 1.0000
O9 O 0.77249(19) 0.84946(14) 0.4381(3)
O10 O 0.91242(19) 0.88572(15) 0.6199(3)
C22 C 0.8353(3) 0.9693(2) 0.4427(4)
C23 C 0.7619(3) 0.9857(3) 0.3163(4)
H15 H 0.7110 0.9517 0.2684
C26 C 0.8402(3) 0.8956(2) 0.5055(4)
C17_2 C 0.0022(4) 0.6069(3) 0.0090(6)
H7_2 H 0.0275 0.3858 0.9521
O6_2 O 0.09906(18) 0.72105(14) 0.8888(2)
N2_2 N 0.0727(2) 0.66054(17) 0.9214(3)
C14_2 C 0.0897(3) 0.5907(2) 0.8978(4)
H9_2 H 0.1217 0.5854 0.8617
C15_2 C 0.0605(3) 0.5267(2) 0.9263(4)
H10_2 H 0.0714 0.4785 0.9076
C16_2 C 0.0150(3) 0.5337(2) 0.9827(4)
C18_2 C 0.0323(4) 0.6691(3) 0.9787(5)
H12_2 H 0.0241 0.7178 0.9990
N1_2 N 0.9273(2) 0.33946(17) 0.0786(3)
C9_2 C 0.9103(3) 0.4093(2) 0.1022(4)
H5_2 H 0.8783 0.4146 0.1383
C10_2 C 0.9395(3) 0.4733(2) 0.0737(4)
H6_2 H 0.9286 0.5215 0.0924
C11_2 C 0.9850(3) 0.4663(2) 0.0173(4)
C13_2 C 0.9677(4) 0.3309(3) 0.0213(5)
H8_2 H 0.9759 0.2822 0.0010
H11_2 H 0.9725 0.6142 0.0479
O12_2 O 0.72751(19) 0.34946(14) 0.0619(3)
C12_2 C 0.9978(4) 0.3931(3) 0.9910(6)
O11_2 O 0.73280(19) 0.31210(15) 0.8520(3)
O13_2 O 0.77249(19) 0.15054(14) 0.9381(3)
O17_2 O 0.59906(18) 0.22105(14) 0.8888(2)
H6_3 H 0.5714 0.0215 0.4076
N2_3 N 0.4273(2) 0.16054(17) 0.5786(3)
C14_3 C 0.4103(3) 0.0907(2) 0.6022(4)
H9_3 H 0.3783 0.0854 0.6383
C15_3 C 0.4395(3) 0.0267(2) 0.5737(4)
C16_3 C 0.4850(3) 0.0337(2) 0.5173(4)
C17_3 C 0.4978(4) 0.1069(3) 0.4910(6)
H11_3 H 0.5275 0.1142 0.4521
C18_3 C 0.4677(4) 0.1691(3) 0.5213(5)
H12_3 H 0.4759 0.2178 0.5010
Mg5_3 Mg 0.5000 0.30454(9) 0.7500
Mg1_3 Mg 0.5000 0.69546(9) 0.2500
O1_2 O 0.57801(19) 0.70078(15) 0.1842(3)
O2_2 O 0.73280(19) 0.68790(15) 0.3520(3)
O5_2 O 0.59906(18) 0.77895(14) 0.3888(2)
N1_3 N 0.5727(2) 0.83946(17) 0.4214(3)
C1_2 C 0.6639(3) 0.6024(2) 0.1756(4)
C2_2 C 0.5904(4) 0.5875(3) 0.0459(5)
C4_2 C 0.6647(3) 0.4693(2) 0.0573(4)
C5_2 C 0.7381(3) 0.4857(3) 0.1837(4)
H3_2 H 0.7890 0.4517 0.2316
C6_2 C 0.7385(3) 0.5515(3) 0.2422(4)
H4_2 H 0.7902 0.5616 0.3282
C7_2 C 0.6582(3) 0.6686(2) 0.2417(4)
C9_3 C 0.5897(3) 0.9093(2) 0.3978(4)
H5_3 H 0.6217 0.9146 0.3617
C10_3 C 0.5605(3) 0.9733(2) 0.4263(4)
C11_3 C 0.5150(3) 0.9663(2) 0.4827(4)
C12_3 C 0.5022(4) 0.8931(3) 0.5090(6)
H7_3 H 0.4725 0.8858 0.5479
C13_3 C 0.5323(4) 0.8309(3) 0.4787(5)
H8_3 H 0.5241 0.7822 0.4990
H10_3 H 0.4286 0.9785 0.5924
O7_2 O 0.42199(19) 0.70078(15) 0.3158(3)
O8_2 O 0.26720(19) 0.68790(15) 0.1480(3)
O10_2 O 0.41242(19) 0.38572(15) 0.6199(3)
C19_2 C 0.3361(3) 0.6024(2) 0.3244(4)
C20_2 C 0.4096(4) 0.5875(3) 0.4541(5)
H13_2 H 0.4601 0.6219 0.5024
C21_2 C 0.4086(4) 0.5213(3) 0.5128(5)
H14_2 H 0.4581 0.5122 0.6004
C22_2 C 0.3353(3) 0.4693(2) 0.4427(4)
C23_2 C 0.2619(3) 0.4857(3) 0.3163(4)
H15_2 H 0.2110 0.4517 0.2684
C24_2 C 0.2615(3) 0.5515(3) 0.2578(4)
H16_2 H 0.2098 0.5616 0.1718
C25_2 C 0.3418(3) 0.6686(2) 0.2583(4)
C26_2 C 0.3402(3) 0.3956(2) 0.5055(4)
O11_3 O 0.76720(19) 0.81210(15) 0.6480(3)
O13_3 O 0.72751(19) 0.65054(14) 0.5619(3)
O14_2 O 0.41242(19) 0.61428(15) 0.1199(3)
O15_2 O 0.58758(19) 0.61428(15) 0.3801(3)
O16_2 O 0.40094(18) 0.77895(14) 0.1112(2)
O4_2 O 0.58758(19) 0.38572(15) 0.8801(3)
H1_2 H 0.5399 0.6219 0.9976
C3_2 C 0.5914(4) 0.5213(3) 0.9872(5)
H2_2 H 0.5419 0.5122 0.8996
C8_2 C 0.6598(3) 0.3956(2) 0.9945(4)
H6_4 H 0.4286 0.0215 0.0924
C17_4 C 0.5022(4) 0.1069(3) 0.0090(6)
H11_4 H 0.4725 0.1142 0.0479
N2_4 N 0.5727(2) 0.16054(17) 0.9214(3)
C14_4 C 0.5897(3) 0.0907(2) 0.8978(4)
H9_4 H 0.6217 0.0854 0.8617
C15_4 C 0.5605(3) 0.0267(2) 0.9263(4)
C16_4 C 0.5150(3) 0.0337(2) 0.9827(4)
C18_4 C 0.5323(4) 0.1691(3) 0.9787(5)
H12_4 H 0.5241 0.2178 0.9990
N1_4 N 0.4273(2) 0.83946(17) 0.0786(3)
C9_4 C 0.4103(3) 0.9093(2) 0.1022(4)
H5_4 H 0.3783 0.9146 0.1383
C10_4 C 0.4395(3) 0.9733(2) 0.0737(4)
C11_4 C 0.4850(3) 0.9663(2) 0.0173(4)
C13_4 C 0.4677(4) 0.8309(3) 0.0213(5)
H8_4 H 0.4759 0.7822 0.0010
C12_4 C 0.4978(4) 0.8931(3) 0.9910(6)
H7_4 H 0.5275 0.8858 0.9521
H10_4 H 0.5714 0.9785 0.9076
O11_4 O 0.23280(19) 0.81210(15) 0.8520(3)
O13_4 O 0.27249(19) 0.65054(14) 0.9381(3)
C22_3 C 0.1647(3) 0.0307(2) 0.5573(4)
C23_3 C 0.2381(3) 0.0143(3) 0.6837(4)
H15_3 H 0.2890 0.0483 0.7316
C26_3 C 0.1598(3) 0.1044(2) 0.4945(4)
O7_3 O 0.07801(19) 0.79922(15) 0.6842(3)
C19_3 C 0.1639(3) 0.8976(2) 0.6756(4)
C20_3 C 0.0904(4) 0.9125(3) 0.5459(5)
H13_3 H 0.0399 0.8781 0.4976
C21_3 C 0.0914(4) 0.9787(3) 0.4872(5)
H14_3 H 0.0419 0.9878 0.3996
C24_3 C 0.2385(3) 0.9485(3) 0.7422(4)
H16_3 H 0.2902 0.9384 0.8282
C25_3 C 0.1582(3) 0.8314(2) 0.7417(4)
C8_3 C 0.8402(3) 0.1044(2) 0.0055(4)
C4_3 C 0.8353(3) 0.0307(2) 0.9427(4)
C5_3 C 0.7619(3) 0.0143(3) 0.8163(4)
H3_3 H 0.7110 0.0483 0.7684
H1_3 H 0.9601 0.8781 0.0024
C3_3 C 0.9086(4) 0.9787(3) 0.0128(5)
H2_3 H 0.9581 0.9878 0.1004
O1_3 O 0.92199(19) 0.79922(15) 0.8158(3)
C1_3 C 0.8361(3) 0.8976(2) 0.8244(4)
C2_3 C 0.9096(4) 0.9125(3) 0.9541(5)
C6_3 C 0.7615(3) 0.9485(3) 0.7578(4)
H4_3 H 0.7098 0.9384 0.6718
C7_3 C 0.8418(3) 0.8314(2) 0.7583(4)
H1_4 H 0.4601 0.3781 0.0024
C3_4 C 0.4086(4) 0.4787(3) 0.0128(5)
H2_4 H 0.4581 0.4878 0.1004
C8_4 C 0.3402(3) 0.6044(2) 0.0055(4)
O1_4 O 0.42199(19) 0.29922(15) 0.8158(3)
C1_4 C 0.3361(3) 0.3976(2) 0.8244(4)
C2_4 C 0.4096(4) 0.4125(3) 0.9541(5)
C4_4 C 0.3353(3) 0.5307(2) 0.9427(4)
C5_4 C 0.2619(3) 0.5143(3) 0.8163(4)
H3_4 H 0.2110 0.5483 0.7684
C6_4 C 0.2615(3) 0.4485(3) 0.7578(4)
H4_4 H 0.2098 0.4384 0.6718
C7_4 C 0.3418(3) 0.3314(2) 0.7583(4)
O7_4 O 0.57801(19) 0.29922(15) 0.6842(3)
C19_4 C 0.6639(3) 0.3976(2) 0.6756(4)
C20_4 C 0.5904(4) 0.4125(3) 0.5459(5)
H13_4 H 0.5399 0.3781 0.4976
C21_4 C 0.5914(4) 0.4787(3) 0.4872(5)
H14_4 H 0.5419 0.4878 0.3996
C22_4 C 0.6647(3) 0.5307(2) 0.5573(4)
C23_4 C 0.7381(3) 0.5143(3) 0.6837(4)
H15_4 H 0.7890 0.5483 0.7316
C24_4 C 0.7385(3) 0.4485(3) 0.7422(4)
H16_4 H 0.7902 0.4384 0.8282
C25_4 C 0.6582(3) 0.3314(2) 0.7417(4)
C26_4 C 0.6598(3) 0.6044(2) 0.4945(4)
loop_
_geom_bond_atom_site_label_1
_geom_bond_atom_site_label_2
_geom_bond_site_symmetry_1
_geom_bond_site_symmetry_2
Mg1 O1 1_555 1_555
Mg2 O2 1_555 1_555
O1 C7 1_555 1_555
O2 C7 1_555 1_555
O5 Mg1 1_555 1_555
N1 O5 1_555 1_555
C1 C2 1_555 1_555
C6 C1 1_555 1_555
H4 C6 1_555 1_555
C7 C1 1_555 1_555
C9 N1 1_555 1_555
H5 C9 1_555 1_555
C10 C9 1_555 1_555
H6 C10 1_555 1_555
C11 C10 1_555 1_555
C12 C11 1_555 1_555
C13 N1 1_555 1_555
H8 C13 1_555 1_555
O11 Mg2 1_555 1_555
O12 Mg2 1_555 1_555
O13 Mg2 1_555 1_555
O15 Mg1 1_555 1_555
O17 Mg2 1_555 1_555
Mg2 O5 1_555 1_555
C12 C13 1_555 1_555
H2 C3 1_555 1_555
C5 C4 1_555 1_555
H3 C5 1_555 1_555
Mg9 O3 1_555 1_555
O4 C8 1_555 1_555
Mg5 O4 1_555 1_555
O6 N2 1_555 1_555
N2 C14 1_555 1_555
C14 H9 1_555 1_555
C15 C14 1_555 1_555
H10 C15 1_555 1_555
C17 C16 1_555 1_555
C18 N2 1_555 1_555
H12 C18 1_555 1_555
O7 Mg1_2 1_555 1_555
O8 C25 1_555 1_555
C19 C20 1_555 1_555
C20 H13 1_555 1_555
C21 C20 1_555 1_555
H14 C21 1_555 1_555
C24 C19 1_555 1_555
H16 C24 1_555 1_555
C25 O7 1_555 1_555
Mg5_2 O6 1_555 1_555
Mg6 O8 1_555 1_555
Mg8 O6 1_555 1_555
O14 Mg1_2 1_555 1_555
O16 Mg1_2 1_555 1_555
C15 C16 1_555 1_555
C17 C18 1_555 1_555
C19 C25 1_555 1_555
Mg6 O16 1_555 1_555
O9 C26 1_555 1_555
O10 C26 1_555 1_555
C23 C22 1_555 1_555
H15 C23 1_555 1_555
C26 C22 1_555 1_555
Mg5_2 O10 1_555 1_555
Mg8 O9 1_555 1_555
O6_2 N2_2 1_555 1_555
N2_2 C14_2 1_555 1_555
C14_2 H9_2 1_555 1_555
C15_2 C14_2 1_555 1_555
H10_2 C15_2 1_555 1_555
C18_2 N2_2 1_555 1_555
H12_2 C18_2 1_555 1_555
Mg5 O6_2 1_555 1_555
Mg9_2 O6_2 1_555 1_555
C15_2 C16_2 1_555 1_555
N1_2 O16 1_555 1_555
C9_2 N1_2 1_555 1_555
H5_2 C9_2 1_555 1_555
C10_2 C9_2 1_555 1_555
H6_2 C10_2 1_555 1_555
C11_2 C10_2 1_555 1_555
C13_2 N1_2 1_555 1_555
H8_2 C13_2 1_555 1_555
O12_2 Mg6 1_555 1_555
O11_2 Mg6_2 1_555 1_555
O13_2 Mg6_2 1_555 1_555
O17_2 Mg6_2 1_555 1_555
O17 N2_3 1_555 1_555
N2_3 C14_3 1_555 1_555
C14_3 H9_3 1_555 1_555
C15_3 C14_3 1_555 1_555
C17_3 C16_3 1_555 1_555
H11_3 C17_3 1_555 1_555
C18_3 N2_3 1_555 1_555
H12_3 C18_3 1_555 1_555
Mg5_3 O17 1_555 1_555
C15_3 C16_3 1_555 1_555
C17_3 C18_3 1_555 1_555
Mg1_3 O1_2 1_555 1_555
Mg8 O2_2 1_555 1_555
O1_2 C7_2 1_555 1_555
O2_2 C7_2 1_555 1_555
O5_2 Mg1_3 1_555 1_555
N1_3 O5_2 1_555 1_555
C1_2 C2_2 1_555 1_555
C5_2 C4_2 1_555 1_555
H3_2 C5_2 1_555 1_555
C6_2 C1_2 1_555 1_555
H4_2 C6_2 1_555 1_555
C7_2 C1_2 1_555 1_555
C9_3 N1_3 1_555 1_555
H5_3 C9_3 1_555 1_555
C10_3 C9_3 1_555 1_555
C11_3 C10_3 1_555 1_555
C12_3 C11_3 1_555 1_555
H7_3 C12_3 1_555 1_555
C13_3 N1_3 1_555 1_555
H8_3 C13_3 1_555 1_555
O7_2 Mg1_3 1_555 1_555
O8_2 C25_2 1_555 1_555
O12 C26_2 1_555 1_555
O10_2 C26_2 1_555 1_555
C19_2 C20_2 1_555 1_555
C20_2 H13_2 1_555 1_555
C21_2 C20_2 1_555 1_555
H14_2 C21_2 1_555 1_555
C22_2 C21_2 1_555 1_555
C23_2 C22_2 1_555 1_555
H15_2 C23_2 1_555 1_555
C24_2 C19_2 1_555 1_555
H16_2 C24_2 1_555 1_555
C25_2 O7_2 1_555 1_555
C26_2 C22_2 1_555 1_555
Mg5_3 O10_2 1_555 1_555
Mg9 O8_2 1_555 1_555
O11_3 Mg8 1_555 1_555
O13_3 Mg8 1_555 1_555
O14_2 Mg1_3 1_555 1_555
O15_2 Mg1_3 1_555 1_555
O16_2 Mg1_3 1_555 1_555
Mg8 O5_2 1_555 1_555
C5_2 C6_2 1_555 1_555
C12_3 C13_3 1_555 1_555
C19_2 C25_2 1_555 1_555
C23_2 C24_2 1_555 1_555
Mg9 O16_2 1_555 1_555
O4_2 C8_2 1_555 1_555
H2_2 C3_2 1_555 1_555
Mg5_3 O4_2 1_555 1_555
H11_4 C17_4 1_555 1_555
O17_2 N2_4 1_555 1_555
N2_4 C14_4 1_555 1_555
C14_4 H9_4 1_555 1_555
C15_4 C14_4 1_555 1_555
C18_4 N2_4 1_555 1_555
H12_4 C18_4 1_555 1_555
Mg5_3 O17_2 1_555 1_555
C15_4 C16_4 1_555 1_555
N1_4 O16_2 1_555 1_555
C9_4 N1_4 1_555 1_555
H5_4 C9_4 1_555 1_555
C10_4 C9_4 1_555 1_555
C11_4 C10_4 1_555 1_555
C13_4 N1_4 1_555 1_555
H8_4 C13_4 1_555 1_555
H7_4 C12_4 1_555 1_555
O11_4 Mg9_2 1_555 1_555
O13_4 Mg9_2 1_555 1_555
O13 C26_3 1_555 1_555
O15 C26_3 1_555 1_555
C23_3 C22_3 1_555 1_555
H15_3 C23_3 1_555 1_555
C26_3 C22_3 1_555 1_555
O7_3 Mg5 1_555 1_555
O11_4 C25_3 1_555 1_555
C19_3 C20_3 1_555 1_555
C20_3 H13_3 1_555 1_555
C21_3 C20_3 1_555 1_555
H14_3 C21_3 1_555 1_555
C24_3 C19_3 1_555 1_555
H16_3 C24_3 1_555 1_555
C25_3 O7_3 1_555 1_555
C19_3 C25_3 1_555 1_555
O14 C8_3 1_555 1_555
C5_3 C4_3 1_555 1_555
H3_3 C5_3 1_555 1_555
H2_3 C3_3 1_555 1_555
Mg5_2 O1_3 1_555 1_555
O1_3 C7_3 1_555 1_555
O11_3 C7_3 1_555 1_555
C1_3 C2_3 1_555 1_555
C6_3 C1_3 1_555 1_555
H4_3 C6_3 1_555 1_555
C7_3 C1_3 1_555 1_555
O14_2 C8_4 1_555 1_555
H2_4 C3_4 1_555 1_555
Mg5_3 O1_4 1_555 1_555
O1_4 C7_4 1_555 1_555
O11 C7_4 1_555 1_555
C1_4 C2_4 1_555 1_555
C5_4 C4_4 1_555 1_555
H3_4 C5_4 1_555 1_555
C6_4 C1_4 1_555 1_555
H4_4 C6_4 1_555 1_555
C7_4 C1_4 1_555 1_555
O7_4 Mg5_3 1_555 1_555
O11_2 C25_4 1_555 1_555
O13_3 C26_4 1_555 1_555
O15_2 C26_4 1_555 1_555
C19_4 C20_4 1_555 1_555
C20_4 H13_4 1_555 1_555
C21_4 C20_4 1_555 1_555
H14_4 C21_4 1_555 1_555
C22_4 C21_4 1_555 1_555
C23_4 C22_4 1_555 1_555
H15_4 C23_4 1_555 1_555
C24_4 C19_4 1_555 1_555
H16_4 C24_4 1_555 1_555
C25_4 O7_4 1_555 1_555
C26_4 C22_4 1_555 1_555
C5_4 C6_4 1_555 1_555
C19_4 C25_4 1_555 1_555
C23_4 C24_4 1_555 1_555

#END
