
###############################################################################
#
# This file contains modified crystal structure data generated from the
# MOF subset of the Cambridge Structural Database (CSD) v543 
# hosted by the Cambridge Crystallographic Data Centre (CCDC).
#
# This work is licensed under the Creative Commons
# Attribution-NonCommercial-ShareAlike 4.0 International License.
# To view a copy of this license, visit
# http://creativecommons.org/licenses/by-nc-sa/4.0/
# or send a letter to
# Creative Commons, PO Box 1866, Mountain View, CA 94042, USA.
#
# CIF created using the CSD Python API on 29 September 2022
# The structure has been converted into the P1 space group
# The structure has a 3D framework
# The original CSD entry HOVJIN is in the triclinic crystal system
# The framework has been calculated to contain at least 10.0% void space
# The void calculation uses a probe of radius 1.32A, grid spacing 0.4
#
###############################################################################

data_HOVJIN
_chemical_formula_moiety         '(C28 H16 Ag2 Er2 N4 O14)n'
_symmetry_cell_setting           triclinic
_symmetry_space_group_name_H-M   'P 1'
_symmetry_Int_Tables_number      1
_space_group_name_Hall           'P 1'
loop_
_symmetry_equiv_pos_site_id
_symmetry_equiv_pos_as_xyz
1 x,y,z
_cell_length_a                   9.4990(11)
_cell_length_b                   9.5854(11)
_cell_length_c                   11.4945(14)
_cell_angle_alpha                101.9060(10)
_cell_angle_beta                 95.7480(10)
_cell_angle_gamma                119.3870(10)
_cell_volume                     867.055
loop_
_atom_site_label
_atom_site_type_symbol
_atom_site_fract_x
_atom_site_fract_y
_atom_site_fract_z
_atom_site_U_iso_or_equiv
_atom_site_thermal_displace_type
H6 H 0.1937 0.0201 0.3930 0.0350 Uiso
C10 C 0.0504(4) 0.0647(4) 0.2840(3) 0.0399 Uani
H7 H 0.1362 0.1598 0.2714 0.0480 Uiso
N1 N 0.2826(3) 0.7565(4) 0.0682(2) 0.0405 Uani
C1 C 0.1584(4) 0.7469(5) 0.1186(3) 0.0453 Uani
H1 H 0.1754 0.7718 0.2033 0.0540 Uiso
C2 C 0.0067(4) 0.7019(4) 0.0512(3) 0.0379 Uani
Ag4 Ag 0.51032(3) 0.80804(5) 0.17762(3) 0.0662 Uani
O2 O 0.2057(2) 0.6693(3) 0.69310(19) 0.0312 Uani
O4 O 0.1317(2) 0.7810(3) 0.4823(2) 0.0324 Uani
C4 C 0.1028(3) 0.6642(3) 0.8713(3) 0.0224 Uani
C5 C 0.2540(4) 0.7168(4) 0.9444(3) 0.0336 Uani
H4 H 0.3397 0.7255 0.9076 0.0400 Uiso
C6 C 0.0777(3) 0.6136(3) 0.7343(3) 0.0227 Uani
C9 C 0.0845(4) 0.9815(4) 0.3560(3) 0.0289 Uani
Er5 Er 0.268586(13) 0.638776(14) 0.505031(11) 0.0164 Uani
Er1 Er 0.731414(13) 0.361224(14) 0.494969(11) 0.0164 Uani
O3 O 0.9305(2) 0.5175(3) 0.6735(2) 0.0317 Uani
O5 O 0.8576(3) 0.6244(3) 0.4662(2) 0.0336 Uani
O6 O 0.4952(2) 0.6448(3) 0.6176(2) 0.0302 Uani
O7 O 0.6288(2) 0.5071(3) 0.62245(19) 0.0279 Uani
N2 N 0.7608(3) 0.8703(3) 0.2461(3) 0.0354 Uani
C3 C 0.9768(4) 0.6565(4) 0.9262(3) 0.0304 Uani
H3 H 0.8735 0.6212 0.8788 0.0360 Uiso
C7 C 0.7938(3) 0.7883(4) 0.3169(3) 0.0281 Uani
H5 H 0.7058 0.6940 0.3286 0.0340 Uiso
C8 C 0.9552(3) 0.8408(3) 0.3725(3) 0.0204 Uani
C12 C 0.9835(3) 0.7419(4) 0.4474(3) 0.0239 Uani
C14 C 0.5357(3) 0.5430(4) 0.5691(3) 0.0221 Uani
O8 O 0.5402(2) 0.0726(2) 0.37366(18) 0.0238 Uani
O9 O 0.5853(2) 0.1894(2) 0.61472(19) 0.0266 Uani
C15 C 0.5132(3) 0.0333(4) 0.5697(3) 0.0198 Uani
O11 O 0.5048(2) 0.3552(3) 0.3824(2) 0.0302 Uani
O12 O 0.3712(2) 0.4929(3) 0.37755(19) 0.0279 Uani
C16 C 0.4643(3) 0.4570(4) 0.4309(3) 0.0221 Uani
Ag6 Ag 0.48968(3) 0.19196(5) 0.82238(3) 0.0662 Uani
O17 O 0.4147(2) 0.8106(2) 0.38528(19) 0.0266 Uani
O20 O 0.7943(2) 0.3307(3) 0.30690(19) 0.0312 Uani
O22 O 0.8683(2) 0.2190(3) 0.5177(2) 0.0324 Uani
C13 C 0.4868(3) 0.9667(4) 0.4303(3) 0.0198 Uani
O10 O 0.4598(2) 0.9274(2) 0.62634(18) 0.0238 Uani
O14 O 0.0695(2) 0.4825(3) 0.3265(2) 0.0317 Uani
O16 O 0.1424(3) 0.3756(3) 0.5338(2) 0.0336 Uani
N4 N 0.2392(3) 0.1297(3) 0.7539(3) 0.0354 Uani
C19 C 0.0232(4) 0.3435(4) 0.0738(3) 0.0304 Uani
H11 H 0.1265 0.3788 0.1212 0.0360 Uiso
C23 C 0.2062(3) 0.2117(4) 0.6831(3) 0.0281 Uani
H13 H 0.2942 0.3060 0.6714 0.0340 Uiso
C24 C 0.0448(3) 0.1592(3) 0.6275(3) 0.0204 Uani
C28 C 0.0165(3) 0.2581(4) 0.5526(3) 0.0239 Uani
N6 N 0.7174(3) 0.2435(4) 0.9318(2) 0.0405 Uani
C20 C 0.8972(3) 0.3358(3) 0.1287(3) 0.0224 Uani
C21 C 0.7460(4) 0.2832(4) 0.0556(3) 0.0336 Uani
H12 H 0.6603 0.2745 0.0924 0.0400 Uiso
C22 C 0.9223(3) 0.3864(3) 0.2657(3) 0.0227 Uani
C25 C 0.9155(4) 0.0185(4) 0.6440(3) 0.0289 Uani
C17 C 0.8416(4) 0.2531(5) 0.8814(3) 0.0453 Uani
H9 H 0.8246 0.2282 0.7967 0.0540 Uiso
C18 C 0.9933(4) 0.2981(4) 0.9488(3) 0.0379 Uani
C11 C 0.8885(4) 0.0051(4) 0.2312(3) 0.0417 Uani
H8 H 0.8666 0.0617 0.1825 0.0500 Uiso
H2 H 0.9255 0.7022 0.0900 0.0450 Uiso
H10 H 0.0745 0.2978 0.9100 0.0450 Uiso
C27 C 0.1115(4) 0.9949(4) 0.7688(3) 0.0417 Uani
H16 H 0.1334 0.9383 0.8175 0.0500 Uiso
H14 H 0.8063 0.9799 0.6070 0.0350 Uiso
C26 C 0.9496(4) 0.9353(4) 0.7160(3) 0.0399 Uani
H15 H 0.8638 0.8402 0.7286 0.0480 Uiso
loop_
_atom_site_aniso_label
_atom_site_aniso_U_11
_atom_site_aniso_U_22
_atom_site_aniso_U_33
_atom_site_aniso_U_23
_atom_site_aniso_U_13
_atom_site_aniso_U_12
C10 0.0442 0.0246 0.04 0.0147 0.0076 0.0088
N1 0.0474 0.0682 0.0177 0.0058 0.0049 0.0419
C1 0.0665 0.0726 0.018 0.0134 0.0123 0.0513
C2 0.0413 0.0525 0.0334 0.0118 0.0175 0.033
Ag4 0.06052 0.1332 0.02702 0.01033 0.00026 0.07358
O2 0.0305 0.0372 0.0227 0.0101 0.0118 0.014
O4 0.0304 0.0336 0.0371 0.0089 0.0014 0.0214
C4 0.026 0.024 0.0206 0.0085 0.0047 0.015
C5 0.0325 0.0552 0.0197 0.0099 0.0091 0.0277
C6 0.0306 0.0213 0.0183 0.0039 0.0015 0.0167
C9 0.0258 0.0295 0.0298 0.0076 0.0085 0.0134
Er5 0.01527 0.01719 0.01689 0.00562 0.00377 0.00848
Er1 0.01527 0.01719 0.01689 0.00562 0.00377 0.00848
O3 0.0283 0.0308 0.0266 0.0034 -0.0041 0.0126
O5 0.0388 0.0239 0.037 0.016 0.0115 0.0125
O6 0.0275 0.0317 0.0308 -0.002 -0.0015 0.0209
O7 0.0288 0.0338 0.0259 0.0062 0.0035 0.0213
N2 0.0382 0.0502 0.0305 0.0131 0.0056 0.0323
C3 0.0208 0.0363 0.0298 0.0079 0.0015 0.0135
C7 0.0204 0.032 0.0303 0.0129 0.0071 0.0111
C8 0.0266 0.0214 0.0181 0.0047 0.0072 0.0163
C12 0.0317 0.0215 0.0203 0.0022 0.002 0.0175
C14 0.0145 0.0221 0.0282 0.0075 0.0076 0.0081
O8 0.0261 0.0199 0.0194 0.0069 0.0049 0.0074
O9 0.0318 0.0155 0.0224 0.0031 0.0092 0.0056
C15 0.0165 0.0221 0.0173 0.0041 0.0038 0.0084
O11 0.0275 0.0317 0.0308 -0.002 -0.0015 0.0209
O12 0.0288 0.0338 0.0259 0.0062 0.0035 0.0213
C16 0.0145 0.0221 0.0282 0.0075 0.0076 0.0081
Ag6 0.06052 0.1332 0.02702 0.01033 0.00026 0.07358
O17 0.0318 0.0155 0.0224 0.0031 0.0092 0.0056
O20 0.0305 0.0372 0.0227 0.0101 0.0118 0.014
O22 0.0304 0.0336 0.0371 0.0089 0.0014 0.0214
C13 0.0165 0.0221 0.0173 0.0041 0.0038 0.0084
O10 0.0261 0.0199 0.0194 0.0069 0.0049 0.0074
O14 0.0283 0.0308 0.0266 0.0034 -0.0041 0.0126
O16 0.0388 0.0239 0.037 0.016 0.0115 0.0125
N4 0.0382 0.0502 0.0305 0.0131 0.0056 0.0323
C19 0.0208 0.0363 0.0298 0.0079 0.0015 0.0135
C23 0.0204 0.032 0.0303 0.0129 0.0071 0.0111
C24 0.0266 0.0214 0.0181 0.0047 0.0072 0.0163
C28 0.0317 0.0215 0.0203 0.0022 0.002 0.0175
N6 0.0474 0.0682 0.0177 0.0058 0.0049 0.0419
C20 0.026 0.024 0.0206 0.0085 0.0047 0.015
C21 0.0325 0.0552 0.0197 0.0099 0.0091 0.0277
C22 0.0306 0.0213 0.0183 0.0039 0.0015 0.0167
C25 0.0258 0.0295 0.0298 0.0076 0.0085 0.0134
C17 0.0665 0.0726 0.018 0.0134 0.0123 0.0513
C18 0.0413 0.0525 0.0334 0.0118 0.0175 0.033
C11 0.06 0.0428 0.037 0.0182 0.0064 0.0361
C27 0.06 0.0428 0.037 0.0182 0.0064 0.0361
C26 0.0442 0.0246 0.04 0.0147 0.0076 0.0088
loop_
_geom_bond_atom_site_label_1
_geom_bond_atom_site_label_2
_geom_bond_site_symmetry_1
_geom_bond_site_symmetry_2
H7 C10 1_555 1_555
N1 C1 1_555 1_555
C1 H1 1_555 1_555
C2 C1 1_555 1_555
Ag4 N1 1_555 1_555
O2 C6 1_555 1_555
H4 C5 1_555 1_555
C6 C4 1_555 1_555
Er5 O2 1_555 1_555
O4 Er5 1_555 1_555
C4 C5 1_555 1_555
Er1 O3 1_555 1_555
Ag4 N2 1_555 1_555
O5 Er1 1_555 1_555
O6 C14 1_555 1_555
O7 Er1 1_555 1_555
N2 C7 1_555 1_555
H3 C3 1_555 1_555
C7 H5 1_555 1_555
C8 C7 1_555 1_555
C12 O5 1_555 1_555
C14 O7 1_555 1_555
O8 Er1 1_555 1_555
O9 Er1 1_555 1_555
O11 Er1 1_555 1_555
O12 C16 1_555 1_555
C16 C14 1_555 1_555
Er5 O6 1_555 1_555
Ag6 O9 1_555 1_555
O17 Ag4 1_555 1_555
O20 Er1 1_555 1_555
O22 Er1 1_555 1_555
C8 C12 1_555 1_555
O9 C15 1_555 1_555
O11 C16 1_555 1_555
O12 Er5 1_555 1_555
Er5 O17 1_555 1_555
O17 C13 1_555 1_555
Ag6 N4 1_555 1_555
O14 Er5 1_555 1_555
O16 Er5 1_555 1_555
N4 C23 1_555 1_555
H11 C19 1_555 1_555
C23 H13 1_555 1_555
C24 C23 1_555 1_555
C28 O16 1_555 1_555
N6 Ag6 1_555 1_555
O10 Er5 1_555 1_555
C24 C28 1_555 1_555
O20 C22 1_555 1_555
H12 C21 1_555 1_555
C20 C21 1_555 1_555
C20 C22 1_555 1_555
N6 C17 1_555 1_555
C17 H9 1_555 1_555
C18 C17 1_555 1_555
H8 C11 1_555 1_555
H16 C27 1_555 1_555
H15 C26 1_555 1_555

#END
