
###############################################################################
#
# This file contains modified crystal structure data generated from the
# MOF subset of the Cambridge Structural Database (CSD) v543 
# hosted by the Cambridge Crystallographic Data Centre (CCDC).
#
# This work is licensed under the Creative Commons
# Attribution-NonCommercial-ShareAlike 4.0 International License.
# To view a copy of this license, visit
# http://creativecommons.org/licenses/by-nc-sa/4.0/
# or send a letter to
# Creative Commons, PO Box 1866, Mountain View, CA 94042, USA.
#
# CIF created using the CSD Python API on 29 September 2022
# The structure has been converted into the P1 space group
# The structure has a 3D framework
# The original CSD entry HOWFIL is in the monoclinic crystal system
# The framework has been calculated to contain at least 10.0% void space
# The void calculation uses a probe of radius 1.32A, grid spacing 0.4
#
###############################################################################

data_HOWFIL
_chemical_formula_moiety         '(C68 H56 Cd10 N19 O23)n'
_symmetry_cell_setting           triclinic
_symmetry_space_group_name_H-M   'P 1'
_symmetry_Int_Tables_number      1
_space_group_name_Hall           'P 1'
loop_
_symmetry_equiv_pos_site_id
_symmetry_equiv_pos_as_xyz
1 x,y,z
_cell_length_a                   9.384(2)
_cell_length_b                   12.990(3)
_cell_length_c                   16.997(4)
_cell_angle_alpha                90
_cell_angle_beta                 90.338(5)
_cell_angle_gamma                90
_cell_volume                     2071.87
loop_
_atom_site_label
_atom_site_type_symbol
_atom_site_fract_x
_atom_site_fract_y
_atom_site_fract_z
Cd1 Cd 0.58084(7) 0.73239(6) 0.37288(4)
Cd2 Cd 0.5000 0.5000 0.5000
O1 O 0.2791(7) 0.4405(7) 0.4739(4)
O2 O 0.2201(7) 0.3534(7) 0.5837(4)
O6 O 0.0057(7) 0.3200(7) 0.2365(4)
N1 N 0.2200(9) 0.5157(7) 0.0301(5)
N3 N 0.5433(8) 0.5730(7) 0.3133(5)
N4 N 0.5041(8) 0.4912(7) 0.3598(4)
N5 N 0.4923(8) 0.4432(7) 0.2359(4)
C1 C 0.2752(11) 0.4726(10) 0.1033(6)
H1 H 0.2143 0.4163 0.1197
H2 H 0.2726 0.5250 0.1439
C2 C 0.4256(10) 0.4338(8) 0.0950(5)
H3 H 0.4880 0.4919 0.0853
H4 H 0.4303 0.3888 0.0496
C3 C 0.4804(11) 0.3751(8) 0.1677(5)
H5 H 0.4156 0.3192 0.1796
H6 H 0.5730 0.3457 0.1564
C4 C 0.1955(11) 0.6150(10) 0.0120(6)
H7 H 0.2105 0.6694 0.0466
C7 C 0.5380(11) 0.5426(10) 0.2410(6)
H10 H 0.5622 0.5831 0.1980
C8 C 0.4713(11) 0.4147(9) 0.3126(6)
H11 H 0.4386 0.3506 0.3289
C9 C 0.0518(9) 0.3660(8) 0.4804(5)
C14 C 0.0353(9) 0.3587(8) 0.3994(5)
H14 H 0.1132 0.3724 0.3674
C15 C 0.1967(10) 0.3899(9) 0.5172(6)
O9 O 0.3077(7) 0.7288(6) 0.3884(4)
O10 O 0.4466(6) 0.6730(6) 0.4834(3)
O11 O 0.2190(8) 0.7215(7) 0.7505(4)
C27 C 0.0639(9) 0.6548(8) 0.4728(5)
H26 H 0.0529 0.6544 0.4184
C28 C 0.1980(9) 0.6765(8) 0.5057(5)
C29 C 0.2104(9) 0.6832(8) 0.5876(5)
H27 H 0.2986 0.6980 0.6102
C30 C 0.0932(9) 0.6681(8) 0.6357(5)
C33 C 0.3244(10) 0.6926(8) 0.4552(6)
C34 C 0.1036(11) 0.6891(8) 0.7220(6)
Cd7 Cd 0.41916(7) 0.26761(6) 0.62712(4)
Cd9 Cd 0.08084(7) 0.76761(6) 0.87288(4)
O13 O 0.7209(7) 0.5595(7) 0.5261(4)
O15 O 0.7799(7) 0.6466(7) 0.4163(4)
O16 O 0.5534(6) 0.3270(6) 0.5166(3)
O17 O 0.7190(8) 0.7785(7) 0.2505(4)
O19 O 0.4943(7) 0.8200(7) 0.2635(4)
N12 N 0.6473(9) 0.8740(8) 0.4387(5)
N13 N 0.4959(8) 0.5088(7) 0.6402(4)
N2 N 0.1473(9) 0.6260(8) 0.9387(5)
C5 C 0.1414(11) 0.5279(10) 0.9101(6)
H8 H 0.1115 0.5107 0.8595
C6 C 0.1855(12) 0.4577(11) 0.9658(7)
H9 H 0.1906 0.3865 0.9608
N7 N 0.8527(9) 0.3740(8) 0.0613(5)
C22 C 0.8586(11) 0.4721(10) 0.0899(6)
H22 H 0.8885 0.4893 0.1405
C23 C 0.8145(12) 0.5423(11) 0.0342(7)
H23 H 0.8094 0.6135 0.0392
Cd6 Cd 0.91916(7) 0.23239(6) 0.12712(4)
O3 O 0.6923(7) 0.2712(6) 0.6116(4)
O5 O 0.7810(8) 0.2785(7) 0.2495(4)
C10 C 0.9361(9) 0.3452(8) 0.5272(5)
H12 H 0.9471 0.3456 0.5816
C11 C 0.8020(9) 0.3235(8) 0.4943(5)
C12 C 0.7896(9) 0.3168(8) 0.4124(5)
H13 H 0.7014 0.3020 0.3898
C13 C 0.9068(9) 0.3319(8) 0.3643(5)
C16 C 0.6756(10) 0.3074(8) 0.5448(6)
C17 C 0.8964(11) 0.3109(8) 0.2780(6)
O12 O 0.9943(7) 0.6800(7) 0.7635(4)
N6 N 0.7800(9) 0.4843(7) 0.9699(5)
N8 N 0.4567(8) 0.4270(7) 0.6867(5)
N10 N 0.5077(8) 0.5568(7) 0.7641(4)
C18 C 0.7248(11) 0.5274(10) 0.8967(6)
H15 H 0.7857 0.5837 0.8803
H16 H 0.7274 0.4750 0.8561
C19 C 0.5744(10) 0.5662(8) 0.9050(5)
H17 H 0.5120 0.5081 0.9147
H18 H 0.5697 0.6112 0.9504
C20 C 0.5196(11) 0.6249(8) 0.8323(5)
H19 H 0.5844 0.6808 0.8204
H20 H 0.4270 0.6543 0.8436
C21 C 0.8045(11) 0.3850(10) 0.9880(6)
H21 H 0.7895 0.3306 0.9534
C24 C 0.4620(11) 0.4574(10) 0.7590(6)
H24 H 0.4378 0.4169 0.8020
C25 C 0.5287(11) 0.5853(9) 0.6874(6)
H25 H 0.5614 0.6494 0.6711
C26 C 0.9482(9) 0.6340(8) 0.5196(5)
C31 C 0.9647(9) 0.6413(8) 0.6006(5)
H28 H 0.8868 0.6276 0.6326
C32 C 0.8033(10) 0.6101(9) 0.4828(6)
O18 O 0.2810(8) 0.2215(7) 0.7495(4)
O20 O 0.5057(7) 0.1800(7) 0.7365(4)
N11 N 0.3527(9) 0.1260(8) 0.5613(5)
Cd10 Cd 0.0000 0.0000 0.0000
N9 N 0.0041(8) 0.0088(7) 0.8598(4)
H20_2 H 0.0730 0.1543 0.6564
Cd10_2 Cd 0.0000 0.0000 1.0000
Cd10_3 Cd 0.0000 1.0000 0.0000
N8_2 N 0.0433(8) 0.9270(7) 0.8133(5)
C24_2 C 0.0380(11) 0.9574(10) 0.7410(6)
H24_2 H 0.0622 0.9169 0.6980
Cd10_4 Cd 0.0000 1.0000 1.0000
O14 O 0.2799(7) 0.8534(7) 0.9163(4)
N1_2 N 0.2800(9) 0.0157(7) 0.4699(5)
H2_2 H 0.2274 0.0250 0.3561
C4_2 C 0.3045(11) 0.1150(10) 0.4880(6)
H7_2 H 0.2895 0.1694 0.4534
C5_2 C 0.3586(11) 0.0279(10) 0.5899(6)
H8_2 H 0.3885 0.0107 0.6405
O8 O 0.7201(7) 0.1466(7) 0.0837(4)
O9_2 O 0.1923(7) 0.2288(6) 0.1116(4)
O10_2 O 0.0534(6) 0.1730(6) 0.0166(3)
C27_2 C 0.4361(9) 0.1548(8) 0.0272(5)
H26_2 H 0.4471 0.1544 0.0816
C32_2 C 0.6967(10) 0.1101(9) 0.0172(6)
C33_2 C 0.1756(10) 0.1926(8) 0.0448(6)
Cd10_5 Cd 1.0000 0.0000 0.0000
O7 O 0.7791(7) 0.0595(7) 0.9739(4)
N10_2 N 0.9923(8) 0.0568(7) 0.7359(4)
C18_2 C 0.7752(11) 0.0274(10) 0.6033(6)
H15_2 H 0.7143 0.0837 0.6197
C19_2 C 0.9256(10) 0.0662(8) 0.5950(5)
H17_2 H 0.9880 0.0081 0.5853
H18_2 H 0.9303 0.1112 0.5496
C20_2 C 0.9804(11) 0.1249(8) 0.6677(5)
H19_2 H 0.9156 0.1808 0.6796
C23_2 C 0.6855(12) 0.0423(11) 0.4658(7)
H23_2 H 0.6906 0.1135 0.4608
C25_2 C 0.9713(11) 0.0853(9) 0.8126(6)
H25_2 H 0.9386 0.1494 0.8289
C26_2 C 0.5518(9) 0.1340(8) 0.9804(5)
C28_2 C 0.3020(9) 0.1765(8) 0.9943(5)
C29_2 C 0.2896(9) 0.1832(8) 0.9124(5)
H27_2 H 0.2014 0.1980 0.8898
C30_2 C 0.4068(9) 0.1681(8) 0.8643(5)
C31_2 C 0.5353(9) 0.1413(8) 0.8994(5)
H28_2 H 0.6132 0.1276 0.8674
C34_2 C 0.3964(11) 0.1891(8) 0.7780(6)
Cd10_6 Cd 1.0000 0.0000 1.0000
O1_2 O 0.2209(7) 0.9405(7) 0.0261(4)
N5_2 N 0.0077(8) 0.9432(7) 0.2641(4)
C1_2 C 0.2248(11) 0.9726(10) 0.3967(6)
H1_2 H 0.2857 0.9163 0.3803
C2_2 C 0.0744(10) 0.9338(8) 0.4050(5)
H3_2 H 0.0120 0.9919 0.4147
H4_2 H 0.0697 0.8888 0.4504
C3_2 C 0.0196(11) 0.8751(8) 0.3323(5)
H5_2 H 0.0844 0.8192 0.3204
C6_2 C 0.3145(12) 0.9577(11) 0.5342(7)
H9_2 H 0.3094 0.8865 0.5392
C8_2 C 0.0287(11) 0.9147(9) 0.1874(6)
H11_2 H 0.0614 0.8506 0.1711
C9_2 C 0.4482(9) 0.8660(8) 0.0196(5)
C11_2 C 0.6980(9) 0.8235(8) 0.0057(5)
C12_2 C 0.7104(9) 0.8168(8) 0.0876(5)
H13_2 H 0.7986 0.8020 0.1102
C13_2 C 0.5932(9) 0.8319(8) 0.1357(5)
C14_2 C 0.4647(9) 0.8587(8) 0.1006(5)
H14_2 H 0.3868 0.8724 0.1326
C17_2 C 0.6036(11) 0.8109(8) 0.2220(6)
Cd10_7 Cd 1.0000 1.0000 0.0000
O3_2 O 0.8077(7) 0.7712(6) 0.8884(4)
O4 O 0.9466(6) 0.8270(6) 0.9834(3)
C10_2 C 0.5639(9) 0.8452(8) 0.9728(5)
H12_2 H 0.5529 0.8456 0.9184
C15_2 C 0.3033(10) 0.8899(9) 0.9828(6)
C16_2 C 0.8244(10) 0.8074(8) 0.9552(6)
N6_2 N 0.7200(9) 0.9843(7) 0.5301(5)
H16_2 H 0.7726 0.9750 0.6439
C21_2 C 0.6955(11) 0.8850(10) 0.5120(6)
H21_2 H 0.7105 0.8306 0.5466
C22_2 C 0.6414(11) 0.9721(10) 0.4101(6)
H22_2 H 0.6115 0.9893 0.3595
Cd10_8 Cd 1.0000 1.0000 1.0000
N3_2 N 0.9567(8) 0.0730(7) 0.1867(5)
C7_2 C 0.9620(11) 0.0426(10) 0.2590(6)
H10_2 H 0.9378 0.0831 0.3020
N4_2 N 0.9959(8) 0.9912(7) 0.1402(4)
H6_2 H 0.9270 0.8457 0.3436
loop_
_geom_bond_atom_site_label_1
_geom_bond_atom_site_label_2
_geom_bond_site_symmetry_1
_geom_bond_site_symmetry_2
Cd1 N3 1_555 1_555
Cd2 O1 1_555 1_555
O1 C15 1_555 1_555
O2 C15 1_555 1_555
N1 C1 1_555 1_555
N3 N4 1_555 1_555
N4 Cd2 1_555 1_555
N5 C3 1_555 1_555
C1 H1 1_555 1_555
H2 C1 1_555 1_555
C2 C1 1_555 1_555
H3 C2 1_555 1_555
H4 C2 1_555 1_555
C3 C2 1_555 1_555
H5 C3 1_555 1_555
H6 C3 1_555 1_555
C4 N1 1_555 1_555
H7 C4 1_555 1_555
C7 N3 1_555 1_555
H10 C7 1_555 1_555
C8 N4 1_555 1_555
H11 C8 1_555 1_555
C14 C9 1_555 1_555
H14 C14 1_555 1_555
C15 C9 1_555 1_555
O9 Cd1 1_555 1_555
O10 Cd1 1_555 1_555
O11 C34 1_555 1_555
C27 H26 1_555 1_555
C28 C27 1_555 1_555
C29 C28 1_555 1_555
H27 C29 1_555 1_555
C30 C29 1_555 1_555
C33 O9 1_555 1_555
C34 C30 1_555 1_555
Cd7 O2 1_555 1_555
Cd9 O11 1_555 1_555
O13 Cd2 1_555 1_555
O15 Cd1 1_555 1_555
O16 Cd2 1_555 1_555
O17 Cd1 1_555 1_555
O19 Cd1 1_555 1_555
N12 Cd1 1_555 1_555
N13 Cd2 1_555 1_555
Cd2 O10 1_555 1_555
N5 C7 1_555 1_555
N5 C8 1_555 1_555
O10 C33 1_555 1_555
C28 C33 1_555 1_555
Cd7 O16 1_555 1_555
C5 N2 1_555 1_555
H8 C5 1_555 1_555
H9 C6 1_555 1_555
Cd9 N2 1_555 1_555
C5 C6 1_555 1_555
C22 N7 1_555 1_555
H22 C22 1_555 1_555
H23 C23 1_555 1_555
Cd6 N7 1_555 1_555
C22 C23 1_555 1_555
O3 C16 1_555 1_555
O16 C16 1_555 1_555
O5 C17 1_555 1_555
C10 H12 1_555 1_555
C11 C10 1_555 1_555
C12 C11 1_555 1_555
H13 C12 1_555 1_555
C13 C12 1_555 1_555
C16 C11 1_555 1_555
C17 C13 1_555 1_555
Cd7 O3 1_555 1_555
O13 C32 1_555 1_555
O15 C32 1_555 1_555
N6 C18 1_555 1_555
N8 Cd7 1_555 1_555
N13 N8 1_555 1_555
N10 C20 1_555 1_555
C18 H15 1_555 1_555
H16 C18 1_555 1_555
C19 C18 1_555 1_555
H17 C19 1_555 1_555
H18 C19 1_555 1_555
C20 C19 1_555 1_555
H19 C20 1_555 1_555
H20 C20 1_555 1_555
C21 N6 1_555 1_555
H21 C21 1_555 1_555
C24 N8 1_555 1_555
H24 C24 1_555 1_555
C25 N13 1_555 1_555
H25 C25 1_555 1_555
C31 C26 1_555 1_555
H28 C31 1_555 1_555
C32 C26 1_555 1_555
Cd6 O5 1_555 1_555
O18 Cd7 1_555 1_555
O20 Cd7 1_555 1_555
N11 Cd7 1_555 1_555
N10 C24 1_555 1_555
N10 C25 1_555 1_555
N9 Cd10_2 1_555 1_555
N8_2 Cd9 1_555 1_555
C24_2 N8_2 1_555 1_555
H24_2 C24_2 1_555 1_555
O14 Cd9 1_555 1_555
N11 C4_2 1_555 1_555
C4_2 N1_2 1_555 1_555
H7_2 C4_2 1_555 1_555
C5_2 N11 1_555 1_555
H8_2 C5_2 1_555 1_555
O8 C32_2 1_555 1_555
C27_2 H26_2 1_555 1_555
C33_2 O9_2 1_555 1_555
Cd6 O8 1_555 1_555
Cd10 O10_2 1_555 1_555
O10_2 C33_2 1_555 1_555
O18 C34_2 1_555 1_555
O20 C34_2 1_555 1_555
N10_2 C20_2 1_555 1_555
C18_2 H15_2 1_555 1_555
C19_2 C18_2 1_555 1_555
H17_2 C19_2 1_555 1_555
H18_2 C19_2 1_555 1_555
C20_2 C19_2 1_555 1_555
H19_2 C20_2 1_555 1_555
H23_2 C23_2 1_555 1_555
H25_2 C25_2 1_555 1_555
C29_2 C28_2 1_555 1_555
H27_2 C29_2 1_555 1_555
C30_2 C29_2 1_555 1_555
C31_2 C26_2 1_555 1_555
H28_2 C31_2 1_555 1_555
C34_2 C30_2 1_555 1_555
O7 Cd10_6 1_555 1_555
N10_2 C25_2 1_555 1_555
C30_2 C31_2 1_555 1_555
Cd10_3 O1_2 1_555 1_555
O17 C17_2 1_555 1_555
O19 C17_2 1_555 1_555
N5_2 C3_2 1_555 1_555
C1_2 H1_2 1_555 1_555
C2_2 C1_2 1_555 1_555
H3_2 C2_2 1_555 1_555
H4_2 C2_2 1_555 1_555
C3_2 C2_2 1_555 1_555
H5_2 C3_2 1_555 1_555
H9_2 C6_2 1_555 1_555
H11_2 C8_2 1_555 1_555
C12_2 C11_2 1_555 1_555
H13_2 C12_2 1_555 1_555
C13_2 C12_2 1_555 1_555
C14_2 C9_2 1_555 1_555
H14_2 C14_2 1_555 1_555
C17_2 C13_2 1_555 1_555
N5_2 C8_2 1_555 1_555
C13_2 C14_2 1_555 1_555
O14 C15_2 1_555 1_555
O3_2 C16_2 1_555 1_555
O4 C16_2 1_555 1_555
C10_2 H12_2 1_555 1_555
N12 C21_2 1_555 1_555
C21_2 N6_2 1_555 1_555
H21_2 C21_2 1_555 1_555
C22_2 N12 1_555 1_555
H22_2 C22_2 1_555 1_555
Cd10_8 O4 1_555 1_555
Cd6 N3_2 1_555 1_555
C7_2 N3_2 1_555 1_555
H10_2 C7_2 1_555 1_555
N4_2 Cd10_7 1_555 1_555

#END
