
###############################################################################
#
# This file contains modified crystal structure data generated from the
# MOF subset of the Cambridge Structural Database (CSD) v543 
# hosted by the Cambridge Crystallographic Data Centre (CCDC).
#
# This work is licensed under the Creative Commons
# Attribution-NonCommercial-ShareAlike 4.0 International License.
# To view a copy of this license, visit
# http://creativecommons.org/licenses/by-nc-sa/4.0/
# or send a letter to
# Creative Commons, PO Box 1866, Mountain View, CA 94042, USA.
#
# CIF created using the CSD Python API on 29 September 2022
# The structure has been converted into the P1 space group
# The structure has a 3D framework
# The original CSD entry HOWPUF is in the orthorhombic crystal system
# The original CSD entry HOWPUF is in a Sohncke space group
# The framework has been calculated to contain at least 10.0% void space
# The void calculation uses a probe of radius 1.32A, grid spacing 0.4
# H atom positions have been added when not included in the experimental data
#
###############################################################################

data_HOWPUF
_chemical_formula_moiety         '(C72 H72 N16 O44 Zn8)n'
_symmetry_cell_setting           triclinic
_symmetry_space_group_name_H-M   'P 1'
_symmetry_Int_Tables_number      1
_space_group_name_Hall           'P 1'
loop_
_symmetry_equiv_pos_site_id
_symmetry_equiv_pos_as_xyz
1 x,y,z
_cell_length_a                   13.8332(7)
_cell_length_b                   21.6436(10)
_cell_length_c                   12.1250(6)
_cell_angle_alpha                90
_cell_angle_beta                 90
_cell_angle_gamma                90
_cell_volume                     3630.23
loop_
_atom_site_label
_atom_site_type_symbol
_atom_site_fract_x
_atom_site_fract_y
_atom_site_fract_z
C16 C 0.5000 -0.0000 0.4469(9)
H9 H 0.4815 0.0342 0.3997
C18 C 0.5000 0.0000 0.7224(7)
Zn8 Zn 0.43234(4) 0.12579(3) 0.76621(6)
N8 N 0.4702(4) 0.0532(2) 0.6557(4)
N10 N 0.5834(5) 0.0184(3) 0.5134(5)
C33 C 0.5507(5) 0.0712(3) 0.5837(6)
H19 H 0.6043 0.0855 0.6285
H20 H 0.5304 0.1051 0.5367
C34 C 0.3859(5) 0.0319(3) 0.5821(6)
H22 H 0.3321 0.0188 0.6278
H23 H 0.3642 0.0660 0.5364
H24 H 0.5533 0.0122 0.7695
H2 H 0.2818 0.6556 0.0570
Zn3 Zn 0.57486(4) 0.74406(3) 0.24846(5)
Zn9 Zn 0.06766(4) 0.62579(3) 0.23379(6)
N9 N 0.0298(4) 0.5532(2) 0.3443(4)
O13 O 0.0358(3) 0.7240(2) 0.1219(4)
O14 O 0.4782(3) 0.7442(2) 0.1126(3)
O16 O 0.4936(4) 0.6500(2) 0.0391(4)
O19 O 0.2116(3) 0.6369(2) 0.2544(4)
O22 O 0.1201(3) 0.6869(2) 0.3719(4)
O28 O 0.0727(4) 0.5790(2) 0.0893(4)
C23 C 0.4566(4) 0.7016(3) 0.0476(5)
H35 H 0.00846953 0.560382 0.0740442
H36 H 0.0900152 0.607852 0.0287654
Zn1 Zn 0.07486(4) 0.75594(3) 0.75154(5)
Zn2 Zn 0.56766(4) 0.87421(3) 0.76621(6)
N2 N 0.1984(3) 0.7345(2) 0.8539(4)
N3 N 0.5298(4) 0.9468(2) 0.6557(4)
N4 N 0.4166(5) 0.9816(3) 0.5134(5)
O1 O 0.4365(3) 0.8376(2) 0.7879(4)
O2 O 0.5358(3) 0.7760(2) 0.8781(4)
O7 O 0.1720(3) 0.75339(19) 0.6170(3)
O8 O 0.1907(3) 0.6511(2) 0.5999(4)
O9 O 0.0420(3) 0.65853(18) 0.7384(4)
O10 O 0.0967(3) 0.85276(19) 0.7758(4)
O11 O 0.5727(4) 0.9210(2) 0.9107(4)
C1 C 0.2812(4) 0.7626(3) 0.8293(4)
H1 H 0.2811 0.7892 0.7690
C2 C 0.3678(4) 0.7556(3) 0.8863(5)
C3 C 0.4538(4) 0.7905(3) 0.8497(5)
C4 C 0.3683(4) 0.7138(3) 0.9729(5)
C6 C 0.2834(5) 0.6838(3) 0.9992(5)
C7 C 0.1999(4) 0.6962(3) 0.9386(5)
H3 H 0.1428 0.6765 0.9588
C12 C 0.2107(4) 0.7053(3) 0.5785(5)
H6 H 0.0144 0.7348 0.5065
C15 C 0.4493(5) 0.9288(3) 0.5837(6)
H7 H 0.3957 0.9145 0.6285
H8 H 0.4696 0.8949 0.5367
C16_2 C 0.5000 1.0000 0.4469(9)
C17 C 0.6141(5) 0.9681(3) 0.5821(6)
H10 H 0.6679 0.9812 0.6278
H11 H 0.6358 0.9340 0.5364
C18_2 C 0.5000 1.0000 0.7224(7)
H12 H 0.4467 0.9878 0.7695
N5 N 0.4559(3) 0.7280(2) 0.3608(4)
N7 N 0.6984(3) 0.7655(2) 0.1461(4)
O17 O 0.7116(3) 0.8631(2) 0.7456(4)
O20 O 0.6201(3) 0.8131(2) 0.6281(4)
O24 O 0.6720(3) 0.74661(19) 0.3830(3)
O26 O 0.5420(3) 0.84147(18) 0.2616(4)
O27 O 0.5967(3) 0.64724(19) 0.2242(4)
C26 C 0.3735(4) 0.7046(3) 0.3248(5)
H16 H 0.3702 0.6920 0.2515
C27 C 0.2908(4) 0.6975(3) 0.3905(5)
C28 C 0.2016(4) 0.6720(3) 0.3372(5)
C29 C 0.2952(4) 0.7156(3) 0.4991(5)
C31 C 0.3813(4) 0.7414(3) 0.5357(5)
H17 H 0.3864 0.7550 0.6083
C32 C 0.4580(4) 0.7472(3) 0.4667(5)
H18 H 0.5144 0.7652 0.4935
H21 H 0.5185 0.9658 0.3997
H25 H 0.50847 0.939618 0.925956
H26 H 0.590015 0.892148 0.971235
H27 H 0.0370275 0.871418 0.806834
H28 H 0.151224 0.859247 0.827795
H29 H 0.0482626 0.645285 0.660316
H30 H 0.0877859 0.634571 0.784761
H31 H 0.548263 0.854715 0.339684
H32 H 0.587786 0.865429 0.215239
H33 H 0.537028 0.628582 0.193166
H34 H 0.651224 0.640753 0.172205
O12 O 0.9365(3) 0.6624(2) 0.2121(4)
C19 C 0.7812(4) 0.7374(3) 0.1707(4)
H13 H 0.7811 0.7108 0.2310
C20 C 0.8678(4) 0.7444(3) 0.1137(5)
C21 C 0.9538(4) 0.7095(3) 0.1503(5)
C22 C 0.8683(4) 0.7862(3) 0.0271(5)
C24 C 0.7834(5) 0.8162(3) 0.0008(5)
C25 C 0.6999(4) 0.8038(3) 0.0614(5)
H15 H 0.6428 0.8235 0.0412
N1 N 0.9559(3) 0.7720(2) 0.6392(4)
O3 O 0.9782(3) 0.7558(2) 0.8874(3)
O4 O 0.9936(4) 0.8500(2) 0.9609(4)
C5 C 0.9566(4) 0.7984(3) 0.9524(5)
C8 C 0.8735(4) 0.7954(3) 0.6752(5)
H4 H 0.8702 0.8080 0.7485
C9 C 0.7908(4) 0.8025(3) 0.6095(5)
C10 C 0.7016(4) 0.8280(3) 0.6628(5)
C11 C 0.7952(4) 0.7844(3) 0.5009(5)
C13 C 0.8813(4) 0.7586(3) 0.4643(5)
H5 H 0.8864 0.7450 0.3917
C14 C 0.9580(4) 0.7528(3) 0.5333(5)
O25 O 0.6907(3) 0.8489(2) 0.4001(4)
H14 H 0.7818 0.8444 0.9430
C30 C 0.7107(4) 0.7947(3) 0.4215(5)
Zn5 Zn 0.42514(4) 0.25594(3) 0.24846(5)
N6 N 0.3016(3) 0.2345(2) 0.1461(4)
O12_2 O 0.0635(3) 0.3376(2) 0.2121(4)
C19_2 C 0.2188(4) 0.2626(3) 0.1707(4)
H13_2 H 0.2189 0.2892 0.2310
C20_2 C 0.1322(4) 0.2556(3) 0.1137(5)
C21_2 C 0.0462(4) 0.2905(3) 0.1503(5)
C22_2 C 0.1317(4) 0.2138(3) 0.0271(5)
C24_2 C 0.2166(5) 0.1838(3) 0.0008(5)
C25_2 C 0.3001(4) 0.1962(3) 0.0614(5)
H15_2 H 0.3572 0.1765 0.0412
N1_2 N 0.0441(3) 0.2280(2) 0.6392(4)
O3_2 O 0.0218(3) 0.2442(2) 0.8874(3)
O4_2 O 0.0064(4) 0.1500(2) 0.9609(4)
O5 O 0.2884(3) 0.1369(2) 0.7456(4)
O6 O 0.3799(3) 0.1869(2) 0.6281(4)
C5_2 C 0.0434(4) 0.2016(3) 0.9524(5)
C8_2 C 0.1265(4) 0.2046(3) 0.6752(5)
H4_2 H 0.1298 0.1920 0.7485
C9_2 C 0.2092(4) 0.1975(3) 0.6095(5)
C10_2 C 0.2984(4) 0.1720(3) 0.6628(5)
C11_2 C 0.2048(4) 0.2156(3) 0.5009(5)
C13_2 C 0.1187(4) 0.2414(3) 0.4643(5)
H5_2 H 0.1136 0.2550 0.3917
C14_2 C 0.0420(4) 0.2472(3) 0.5333(5)
O23 O 0.3280(3) 0.25339(19) 0.3830(3)
O25_2 O 0.3093(3) 0.1511(2) 0.4001(4)
H14_2 H 0.2182 0.1556 0.9430
C30_2 C 0.2893(4) 0.2053(3) 0.4215(5)
H2_2 H 0.7182 0.3444 0.0570
Zn9_2 Zn 0.93234(4) 0.37421(3) 0.23379(6)
N9_2 N 0.9702(4) 0.4468(2) 0.3443(4)
O13_2 O 0.9642(3) 0.2760(2) 0.1219(4)
O14_2 O 0.5218(3) 0.2558(2) 0.1126(3)
O16_2 O 0.5064(4) 0.3500(2) 0.0391(4)
O19_2 O 0.7884(3) 0.3631(2) 0.2544(4)
O22_2 O 0.8799(3) 0.3131(2) 0.3719(4)
O28_2 O 0.9273(4) 0.4210(2) 0.0893(4)
C23_2 C 0.5434(4) 0.2984(3) 0.0476(5)
H35_2 H 0.99153 0.439618 0.0740442
H36_2 H 0.909985 0.392148 0.0287654
Zn1_2 Zn 0.92514(4) 0.24406(3) 0.75154(5)
N2_2 N 0.8016(3) 0.2655(2) 0.8539(4)
O1_2 O 0.5635(3) 0.1624(2) 0.7879(4)
O2_2 O 0.4642(3) 0.2240(2) 0.8781(4)
O7_2 O 0.8280(3) 0.24661(19) 0.6170(3)
O8_2 O 0.8093(3) 0.3489(2) 0.5999(4)
O9_2 O 0.9580(3) 0.34147(18) 0.7384(4)
O10_2 O 0.9033(3) 0.14724(19) 0.7758(4)
O11_2 O 0.4273(4) 0.0790(2) 0.9107(4)
C1_2 C 0.7188(4) 0.2374(3) 0.8293(4)
H1_2 H 0.7189 0.2108 0.7690
C2_2 C 0.6322(4) 0.2444(3) 0.8863(5)
C3_2 C 0.5462(4) 0.2095(3) 0.8497(5)
C4_2 C 0.6317(4) 0.2862(3) 0.9729(5)
C6_2 C 0.7166(5) 0.3162(3) 0.9992(5)
C7_2 C 0.8001(4) 0.3038(3) 0.9386(5)
H3_2 H 0.8572 0.3235 0.9588
C12_2 C 0.7893(4) 0.2947(3) 0.5785(5)
H6_2 H 0.9856 0.2652 0.5065
N5_2 N 0.5441(3) 0.2720(2) 0.3608(4)
O26_2 O 0.4580(3) 0.15853(18) 0.2616(4)
O27_2 O 0.4033(3) 0.35276(19) 0.2242(4)
C26_2 C 0.6265(4) 0.2954(3) 0.3248(5)
H16_2 H 0.6298 0.3080 0.2515
C27_2 C 0.7092(4) 0.3025(3) 0.3905(5)
C28_2 C 0.7984(4) 0.3280(3) 0.3372(5)
C29_2 C 0.7048(4) 0.2844(3) 0.4991(5)
C31_2 C 0.6187(4) 0.2586(3) 0.5357(5)
H17_2 H 0.6136 0.2450 0.6083
C32_2 C 0.5420(4) 0.2528(3) 0.4667(5)
H18_2 H 0.4856 0.2348 0.4935
H25_2 H 0.49153 0.060382 0.925956
H26_2 H 0.409985 0.107852 0.971235
H27_2 H 0.962972 0.128582 0.806834
H28_2 H 0.848776 0.140753 0.827795
H29_2 H 0.951737 0.354715 0.660316
H30_2 H 0.912214 0.365429 0.784761
H31_2 H 0.451737 0.145285 0.339684
H32_2 H 0.412214 0.134571 0.215239
H33_2 H 0.462972 0.371418 0.193166
H34_2 H 0.348776 0.359247 0.172205
N4_2 N 0.0834(5) 0.4816(3) 0.4866(5)
C15_2 C 0.0507(5) 0.4288(3) 0.4163(6)
H7_2 H 0.1043 0.4145 0.3715
H8_2 H 0.0304 0.3949 0.4633
C16_3 C -0.0000 0.5000 0.5531(9)
H9_2 H 0.0185 0.5342 0.6003
C18_3 C -0.0000 0.5000 0.2776(7)
H12_2 H 0.0533 0.4878 0.2305
C34_2 C 0.1141(5) 0.5319(3) 0.4179(6)
H22_2 H 0.1679 0.5188 0.3722
H23_2 H 0.1358 0.5660 0.4636
C16_4 C 1.0000 0.5000 0.5531(9)
C17_2 C 0.8859(5) 0.4681(3) 0.4179(6)
H10_2 H 0.8321 0.4812 0.3722
H11_2 H 0.8642 0.4340 0.4636
C18_4 C 1.0000 0.5000 0.2776(7)
N10_2 N 0.9166(5) 0.5184(3) 0.4866(5)
C33_2 C 0.9493(5) 0.5712(3) 0.4163(6)
H19_2 H 0.8957 0.5855 0.3715
H20_2 H 0.9696 0.6051 0.4633
H21_2 H 0.9815 0.4658 0.6003
H24_2 H 0.9467 0.5122 0.2305
loop_
_geom_bond_atom_site_label_1
_geom_bond_atom_site_label_2
_geom_bond_site_symmetry_1
_geom_bond_site_symmetry_2
H9 C16 1_555 1_555
Zn8 N8 1_555 1_555
N8 C18 1_555 1_555
N10 C16 1_555 1_555
C33 N8 1_555 1_555
H19 C33 1_555 1_555
H20 C33 1_555 1_555
H22 C34 1_555 1_555
H23 C34 1_555 1_555
H24 C18 1_555 1_555
N8 C34 1_555 1_555
N10 C33 1_555 1_555
Zn3 O14 1_555 1_555
Zn9 N9 1_555 1_555
O14 C23 1_555 1_555
O16 C23 1_555 1_555
O19 Zn9 1_555 1_555
O22 Zn9 1_555 1_555
O28 Zn9 1_555 1_555
O28 H35 1_555 1_555
O28 H36 1_555 1_555
Zn2 N3 1_555 1_555
N2 Zn1 1_555 1_555
N3 C15 1_555 1_555
N4 C15 1_555 1_555
O1 Zn2 1_555 1_555
O2 C3 1_555 1_555
O7 Zn1 1_555 1_555
O8 C12 1_555 1_555
O9 Zn1 1_555 1_555
O10 Zn1 1_555 1_555
O11 Zn2 1_555 1_555
C1 N2 1_555 1_555
H1 C1 1_555 1_555
C2 C1 1_555 1_555
C3 O1 1_555 1_555
C4 C2 1_555 1_555
C6 C4 1_555 1_555
C7 N2 1_555 1_555
H3 C7 1_555 1_555
C12 O7 1_555 1_555
C15 H7 1_555 1_555
H8 C15 1_555 1_555
C16_2 N4 1_555 1_555
C17 N3 1_555 1_555
H10 C17 1_555 1_555
H11 C17 1_555 1_555
C18_2 N3 1_555 1_555
H12 C18_2 1_555 1_555
Zn3 N5 1_555 1_555
N5 C26 1_555 1_555
N7 Zn3 1_555 1_555
O17 Zn2 1_555 1_555
O19 C28 1_555 1_555
O20 Zn2 1_555 1_555
O24 Zn3 1_555 1_555
O26 Zn3 1_555 1_555
O27 Zn3 1_555 1_555
C26 H16 1_555 1_555
C27 C26 1_555 1_555
C28 O22 1_555 1_555
C29 C12 1_555 1_555
C31 C29 1_555 1_555
H17 C31 1_555 1_555
C32 N5 1_555 1_555
H18 C32 1_555 1_555
H21 C16_2 1_555 1_555
C2 C3 1_555 1_555
C6 C7 1_555 1_555
C27 C28 1_555 1_555
C27 C29 1_555 1_555
C31 C32 1_555 1_555
O11 H25 1_555 1_555
O11 H26 1_555 1_555
O10 H27 1_555 1_555
O10 H28 1_555 1_555
O9 H29 1_555 1_555
O9 H30 1_555 1_555
O26 H31 1_555 1_555
O26 H32 1_555 1_555
O27 H33 1_555 1_555
O27 H34 1_555 1_555
N7 C19 1_555 1_555
C19 H13 1_555 1_555
C20 C19 1_555 1_555
C21 O12 1_555 1_555
C24 C22 1_555 1_555
C25 N7 1_555 1_555
H15 C25 1_555 1_555
C20 C21 1_555 1_555
C20 C22 1_555 1_555
C24 C25 1_555 1_555
N1 C8 1_555 1_555
O4 C5 1_555 1_555
O17 C10 1_555 1_555
O20 C10 1_555 1_555
C5 O3 1_555 1_555
C8 H4 1_555 1_555
C9 C8 1_555 1_555
C10 C9 1_555 1_555
C11 C9 1_555 1_555
C13 C11 1_555 1_555
H5 C13 1_555 1_555
C14 N1 1_555 1_555
O24 C30 1_555 1_555
O25 C30 1_555 1_555
C30 C11 1_555 1_555
C13 C14 1_555 1_555
Zn5 N6 1_555 1_555
N6 C19_2 1_555 1_555
C19_2 H13_2 1_555 1_555
C20_2 C19_2 1_555 1_555
C21_2 O12_2 1_555 1_555
C24_2 C22_2 1_555 1_555
C25_2 N6 1_555 1_555
H15_2 C25_2 1_555 1_555
C20_2 C21_2 1_555 1_555
C20_2 C22_2 1_555 1_555
C24_2 C25_2 1_555 1_555
N1_2 C8_2 1_555 1_555
O4_2 C5_2 1_555 1_555
O5 C10_2 1_555 1_555
O6 C10_2 1_555 1_555
C5_2 O3_2 1_555 1_555
C8_2 H4_2 1_555 1_555
C9_2 C8_2 1_555 1_555
C10_2 C9_2 1_555 1_555
C11_2 C9_2 1_555 1_555
C13_2 C11_2 1_555 1_555
H5_2 C13_2 1_555 1_555
C14_2 N1_2 1_555 1_555
Zn5 O23 1_555 1_555
Zn8 O5 1_555 1_555
O23 C30_2 1_555 1_555
O25_2 C30_2 1_555 1_555
C30_2 C11_2 1_555 1_555
O6 Zn8 1_555 1_555
C13_2 C14_2 1_555 1_555
Zn5 O14_2 1_555 1_555
Zn9_2 N9_2 1_555 1_555
O14_2 C23_2 1_555 1_555
O16_2 C23_2 1_555 1_555
O19_2 Zn9_2 1_555 1_555
O22_2 Zn9_2 1_555 1_555
O28_2 Zn9_2 1_555 1_555
O28_2 H35_2 1_555 1_555
O28_2 H36_2 1_555 1_555
N2_2 Zn1_2 1_555 1_555
O1_2 Zn8 1_555 1_555
O2_2 C3_2 1_555 1_555
O7_2 Zn1_2 1_555 1_555
O8_2 C12_2 1_555 1_555
O9_2 Zn1_2 1_555 1_555
O10_2 Zn1_2 1_555 1_555
O11_2 Zn8 1_555 1_555
C1_2 N2_2 1_555 1_555
H1_2 C1_2 1_555 1_555
C2_2 C1_2 1_555 1_555
C3_2 O1_2 1_555 1_555
C4_2 C2_2 1_555 1_555
C6_2 C4_2 1_555 1_555
C7_2 N2_2 1_555 1_555
H3_2 C7_2 1_555 1_555
C12_2 O7_2 1_555 1_555
Zn5 N5_2 1_555 1_555
N5_2 C26_2 1_555 1_555
O19_2 C28_2 1_555 1_555
O26_2 Zn5 1_555 1_555
O27_2 Zn5 1_555 1_555
C26_2 H16_2 1_555 1_555
C27_2 C26_2 1_555 1_555
C28_2 O22_2 1_555 1_555
C29_2 C12_2 1_555 1_555
C31_2 C29_2 1_555 1_555
H17_2 C31_2 1_555 1_555
C32_2 N5_2 1_555 1_555
H18_2 C32_2 1_555 1_555
C2_2 C3_2 1_555 1_555
C6_2 C7_2 1_555 1_555
C27_2 C28_2 1_555 1_555
C27_2 C29_2 1_555 1_555
C31_2 C32_2 1_555 1_555
O11_2 H25_2 1_555 1_555
O11_2 H26_2 1_555 1_555
O10_2 H27_2 1_555 1_555
O10_2 H28_2 1_555 1_555
O9_2 H29_2 1_555 1_555
O9_2 H30_2 1_555 1_555
O26_2 H31_2 1_555 1_555
O26_2 H32_2 1_555 1_555
O27_2 H33_2 1_555 1_555
O27_2 H34_2 1_555 1_555
N4_2 C15_2 1_555 1_555
C15_2 H7_2 1_555 1_555
H8_2 C15_2 1_555 1_555
C16_3 N4_2 1_555 1_555
H9_2 C16_3 1_555 1_555
H12_2 C18_3 1_555 1_555
N9 C18_3 1_555 1_555
C34_2 N4_2 1_555 1_555
H22_2 C34_2 1_555 1_555
H23_2 C34_2 1_555 1_555
N9 C34_2 1_555 1_555
C17_2 N9_2 1_555 1_555
H10_2 C17_2 1_555 1_555
H11_2 C17_2 1_555 1_555
C18_4 N9_2 1_555 1_555
N10_2 C16_4 1_555 1_555
H19_2 C33_2 1_555 1_555
H20_2 C33_2 1_555 1_555
H21_2 C16_4 1_555 1_555
H24_2 C18_4 1_555 1_555
C17_2 N10_2 1_555 1_555
N10_2 C33_2 1_555 1_555

#END
