
###############################################################################
#
# This file contains modified crystal structure data generated from the
# MOF subset of the Cambridge Structural Database (CSD) v543 
# hosted by the Cambridge Crystallographic Data Centre (CCDC).
#
# This work is licensed under the Creative Commons
# Attribution-NonCommercial-ShareAlike 4.0 International License.
# To view a copy of this license, visit
# http://creativecommons.org/licenses/by-nc-sa/4.0/
# or send a letter to
# Creative Commons, PO Box 1866, Mountain View, CA 94042, USA.
#
# CIF created using the CSD Python API on 29 September 2022
# The structure has been converted into the P1 space group
# The structure has a 3D framework
# The original CSD entry HOXKUB is in the monoclinic crystal system
# The framework has been calculated to contain at least 10.0% void space
# The void calculation uses a probe of radius 1.32A, grid spacing 0.4
#
###############################################################################

data_HOXKUB
_chemical_formula_moiety         '(C84 H60 N4 O52 S12 Yb6)n'
_symmetry_cell_setting           triclinic
_symmetry_space_group_name_H-M   'P 1'
_symmetry_Int_Tables_number      1
_space_group_name_Hall           'P 1'
loop_
_symmetry_equiv_pos_site_id
_symmetry_equiv_pos_as_xyz
1 x,y,z
_cell_length_a                   17.326(12)
_cell_length_b                   11.492(8)
_cell_length_c                   17.326(12)
_cell_angle_alpha                90
_cell_angle_beta                 106.05
_cell_angle_gamma                90
_cell_volume                     3315.32
loop_
_atom_site_label
_atom_site_type_symbol
_atom_site_fract_x
_atom_site_fract_y
_atom_site_fract_z
O5 O 0.0118(5) 0.8345(7) 0.3941(5)
Yb6 Yb 0.10891(3) 0.94478(4) 0.48499(3)
O20 O 0.0387(5) 0.6748(7) 0.0765(5)
O2 O 0.0083(5) 0.5461(7) 0.9166(4)
O4 O 0.0564(5) 0.8277(6) 0.5649(4)
C2 C 0.0097(7) 0.6686(10) 0.8063(7)
C3 C 0.0557(7) 0.6072(11) 0.7682(7)
H1 H 0.0809 0.5374 0.7876
C4 C 0.0615(8) 0.6607(10) 0.6954(7)
H2 H 0.0914 0.6306 0.6629
C5 C 0.0185(7) 0.7604(10) 0.6795(6)
C6 C 0.0115(7) 0.8413(10) 0.6093(7)
Yb3 Yb 0.08427(3) 0.39367(4) 0.99054(3)
C19 C 0.8873(11) 0.1000(14) 0.0039(12)
H10 H 0.9269 0.1476 0.0399
C20 C 0.8639(12) 0.0039(16) 0.1158(11)
H13 H 0.8123 0.0412 0.1042
H14 H 0.9036 0.0530 0.1503
Yb7 Yb 0.89109(3) 0.05522(4) 0.51501(3)
H9 H 0.9009 0.0916 0.9541
H11 H 0.8356 0.1362 0.9941
O16 O 0.9436(5) 0.1723(6) 0.4351(4)
O17 O 0.9882(5) 0.1655(7) 0.6059(5)
O19 O 0.7826(5) 0.1242(7) 0.4195(5)
O22 O 0.8323(5) 0.1279(8) 0.6034(5)
Yb1 Yb 0.91573(3) 0.60633(4) 0.00946(3)
S2 S 0.90748(18) 0.7183(3) 0.24836(18)
O6 O 0.9149(5) 0.9271(7) 0.4295(5)
O7 O 0.8451(4) 0.5782(6) 0.0972(4)
O8 O 0.7174(5) 0.6242(7) 0.0805(5)
C7 C 0.9398(7) 0.8584(10) 0.3870(6)
C8 C 0.8797(7) 0.7987(10) 0.3184(7)
C9 C 0.7996(9) 0.8023(13) 0.3043(9)
H3 H 0.7736 0.8417 0.3367
C10 C 0.7584(8) 0.7386(14) 0.2336(8)
H4 H 0.7030 0.7292 0.2161
C11 C 0.8107(7) 0.6934(10) 0.1950(7)
C12 C 0.7889(7) 0.6282(10) 0.1193(7)
O14 O 0.8942(6) 0.7945(8) 0.0495(6)
N1 N 0.8852(8) 0.9833(12) 0.0405(9)
H12 H 0.8617 0.9309 0.1421
C21 C 0.8930(10) 0.8837(14) 0.0136(11)
O15 O 0.9917(5) 0.4539(7) 0.0834(4)
S1 S 0.9711(2) 0.7894(3) 0.75115(19)
S3 S 0.87356(19) 0.2300(3) 0.76656(19)
O1 O 0.9480(5) 0.7140(7) 0.9071(5)
O3 O 0.9591(5) 0.9197(7) 0.6043(4)
O9 O 0.8636(5) 0.4393(8) 0.9434(5)
O10 O 0.9613(5) 0.3252(7) 0.9235(5)
O11 O 0.7039(5) 0.1548(8) 0.5731(5)
C1 C 0.9879(8) 0.6433(11) 0.8822(7)
O13 O 0.7938(5) 0.9149(7) 0.5155(6)
H5 H 0.7510 0.9307 0.5282
H6 H 0.8041 0.8468 0.5019
C13 C 0.8901(8) 0.3615(11) 0.9047(7)
C14 C 0.8357(7) 0.3163(11) 0.8292(7)
C15 C 0.7576(9) 0.3352(13) 0.7995(9)
H7 H 0.7267 0.3785 0.8253
C16 C 0.7270(8) 0.2811(12) 0.7234(9)
H8 H 0.6735 0.2872 0.6937
C17 C 0.7814(7) 0.2203(11) 0.6979(7)
C18 C 0.7715(7) 0.1621(11) 0.6203(8)
H15 H 0.8981 0.8790 0.9617
Yb4 Yb 0.58427(3) 0.10633(4) 0.49054(3)
Yb8 Yb 0.60891(3) 0.55522(4) 0.98499(3)
O21 O 0.7961(5) 0.6548(8) 0.9269(5)
Yb5 Yb 0.39109(3) 0.44478(4) 0.01501(3)
O16_2 O 0.5564(5) 0.6723(6) 0.0649(4)
O18 O 0.5851(5) 0.4271(7) 0.0705(5)
S1_2 S 0.5289(2) 0.2894(3) 0.74885(19)
S2_2 S 0.59252(18) 0.2183(3) 0.25164(18)
O1_2 O 0.5520(5) 0.2140(7) 0.5929(5)
O2_2 O 0.4917(5) 0.0461(7) 0.5834(4)
O3_2 O 0.5409(5) 0.4197(7) 0.8957(4)
O4_2 O 0.4436(5) 0.3277(6) 0.9351(4)
O5_2 O 0.4882(5) 0.3345(7) 0.1059(5)
O7_2 O 0.6549(4) 0.0782(6) 0.4028(4)
C1_2 C 0.5121(8) 0.1433(11) 0.6178(7)
C2_2 C 0.4903(7) 0.1686(10) 0.6937(7)
C3_2 C 0.4443(7) 0.1072(11) 0.7318(7)
H1_2 H 0.4191 0.0374 0.7124
C4_2 C 0.4385(8) 0.1607(10) 0.8046(7)
H2_2 H 0.4086 0.1306 0.8371
C5_2 C 0.4815(7) 0.2604(10) 0.8205(6)
C6_2 C 0.4885(7) 0.3413(10) 0.8907(7)
C7_2 C 0.5602(7) 0.3584(10) 0.1130(6)
C8_2 C 0.6203(7) 0.2987(10) 0.1816(7)
C9_2 C 0.7004(9) 0.3023(13) 0.1957(9)
H3_2 H 0.7264 0.3417 0.1633
C10_2 C 0.7416(8) 0.2386(14) 0.2664(8)
H4_2 H 0.7970 0.2292 0.2839
O13_2 O 0.7062(5) 0.4149(7) 0.9845(6)
H5_2 H 0.7490 0.4307 0.9718
H6_2 H 0.6959 0.3468 0.9981
C11_2 C 0.6893(7) 0.1934(10) 0.3050(7)
C12_2 C 0.7111(7) 0.1282(10) 0.3807(7)
O14_2 O 0.6058(6) 0.2945(8) 0.4505(6)
N1_2 N 0.6148(8) 0.4833(12) 0.4595(9)
C19_2 C 0.6127(11) 0.6000(14) 0.4961(12)
H9_2 H 0.5991 0.5916 0.5459
H10_2 H 0.5731 0.6476 0.4601
H11_2 H 0.6644 0.6362 0.5059
C20_2 C 0.6361(12) 0.5039(16) 0.3842(11)
H12_2 H 0.6383 0.4309 0.3579
H13_2 H 0.6877 0.5412 0.3958
H14_2 H 0.5964 0.5530 0.3497
C21_2 C 0.6070(10) 0.3837(14) 0.4864(11)
H15_2 H 0.6019 0.3790 0.5383
O17_2 O 0.5118(5) 0.6655(7) 0.8941(5)
O20_2 O 0.4613(5) 0.1748(7) 0.4235(5)
O22_2 O 0.6677(5) 0.6279(8) 0.8966(5)
S3_2 S 0.62644(19) 0.7300(3) 0.73344(19)
O9_2 O 0.6364(5) 0.9393(8) 0.5566(5)
O10_2 O 0.5387(5) 0.8252(7) 0.5765(5)
C13_2 C 0.6099(8) 0.8615(11) 0.5953(7)
C14_2 C 0.6643(7) 0.8163(11) 0.6708(7)
C15_2 C 0.7424(9) 0.8352(13) 0.7005(9)
H7_2 H 0.7733 0.8785 0.6747
C16_2 C 0.7730(8) 0.7811(12) 0.7766(9)
H8_2 H 0.8265 0.7872 0.8063
C17_2 C 0.7186(7) 0.7203(11) 0.8021(7)
C18_2 C 0.7285(7) 0.6621(11) 0.8797(8)
Yb3_2 Yb 0.41573(3) 0.89367(4) 0.50946(3)
O15_2 O 0.5083(5) 0.9539(7) 0.4166(4)
S1_3 S 0.0289(2) 0.2106(3) 0.24885(19)
S3_3 S 0.12644(19) 0.7700(3) 0.23344(19)
O1_3 O 0.0520(5) 0.2860(7) 0.0929(5)
O3_3 O 0.0409(5) 0.0803(7) 0.3957(4)
O9_3 O 0.1364(5) 0.5607(8) 0.0566(5)
O11_2 O 0.2961(5) 0.8452(8) 0.4269(5)
O12 O 0.1677(5) 0.8721(8) 0.3966(5)
C1_3 C 0.0121(8) 0.3567(11) 0.1178(7)
O13_3 O 0.2062(5) 0.0851(7) 0.4845(6)
H5_3 H 0.2490 0.0693 0.4718
H6_3 H 0.1959 0.1532 0.4981
C13_3 C 0.1099(8) 0.6385(11) 0.0953(7)
C14_3 C 0.1643(7) 0.6837(11) 0.1708(7)
C15_3 C 0.2424(9) 0.6648(13) 0.2005(9)
H7_3 H 0.2733 0.6215 0.1747
C16_3 C 0.2730(8) 0.7189(12) 0.2766(9)
H8_3 H 0.3265 0.7128 0.3063
C17_3 C 0.2186(7) 0.7797(11) 0.3021(7)
C18_3 C 0.2285(7) 0.8379(11) 0.3797(8)
H15_3 H 0.1019 0.1210 0.0383
O18_2 O 0.0851(5) 0.0729(7) 0.5705(5)
O21_2 O 0.2039(5) 0.3452(8) 0.0731(5)
S2_3 S 0.09252(18) 0.2817(3) 0.75164(18)
O7_3 O 0.1549(4) 0.4218(6) 0.9028(4)
O8_2 O 0.2826(5) 0.3758(7) 0.9195(5)
C7_3 C 0.0602(7) 0.1416(10) 0.6130(6)
C8_3 C 0.1203(7) 0.2013(10) 0.6816(7)
C9_3 C 0.2004(9) 0.1977(13) 0.6957(9)
H3_3 H 0.2264 0.1583 0.6633
C10_3 C 0.2416(8) 0.2614(14) 0.7664(8)
H4_3 H 0.2970 0.2708 0.7839
C11_3 C 0.1893(7) 0.3066(10) 0.8050(7)
C12_3 C 0.2111(7) 0.3718(10) 0.8807(7)
O14_3 O 0.1058(6) 0.2055(8) 0.9505(6)
N1_3 N 0.1148(8) 0.0167(12) 0.9595(9)
H12_3 H 0.1383 0.0691 0.8579
C21_3 C 0.1070(10) 0.1163(14) 0.9864(11)
H9_3 H 0.0991 0.9084 0.0459
H11_3 H 0.1644 0.8638 0.0059
O19_2 O 0.2174(5) 0.8758(7) 0.5805(5)
C19_3 C 0.1127(11) 0.9000(14) 0.9961(12)
H10_3 H 0.0731 0.8524 0.9601
C20_3 C 0.1361(12) 0.9961(16) 0.8842(11)
H13_3 H 0.1877 0.9588 0.8958
H14_3 H 0.0964 0.9470 0.8497
C2_3 C 0.9903(7) 0.3314(10) 0.1937(7)
C3_3 C 0.9443(7) 0.3928(11) 0.2318(7)
H1_3 H 0.9191 0.4626 0.2124
C4_3 C 0.9385(8) 0.3393(10) 0.3046(7)
H2_3 H 0.9086 0.3694 0.3371
C5_3 C 0.9815(7) 0.2396(10) 0.3205(6)
C6_3 C 0.9885(7) 0.1587(10) 0.3907(7)
S3_4 S 0.37356(19) 0.2700(3) 0.26656(19)
O9_4 O 0.3636(5) 0.0607(8) 0.4434(5)
O12_2 O 0.3323(5) 0.3721(8) 0.1034(5)
C13_4 C 0.3901(8) 0.1385(11) 0.4047(7)
C14_4 C 0.3357(7) 0.1837(11) 0.3292(7)
C15_4 C 0.2576(9) 0.1648(13) 0.2995(9)
H7_4 H 0.2267 0.1215 0.3253
C16_4 C 0.2270(8) 0.2189(12) 0.2234(9)
H8_4 H 0.1735 0.2128 0.1937
C17_4 C 0.2814(7) 0.2797(11) 0.1979(7)
C18_4 C 0.2715(7) 0.3379(11) 0.1203(8)
S1_4 S 0.4711(2) 0.7106(3) 0.25115(19)
S2_4 S 0.40748(18) 0.7817(3) 0.74836(18)
O1_4 O 0.4480(5) 0.7860(7) 0.4071(5)
O3_4 O 0.4591(5) 0.5803(7) 0.1043(4)
O6_2 O 0.4149(5) 0.5729(7) 0.9295(5)
O7_4 O 0.3451(4) 0.9218(6) 0.5972(4)
C1_4 C 0.4879(8) 0.8567(11) 0.3822(7)
C2_4 C 0.5097(7) 0.8314(10) 0.3063(7)
C3_4 C 0.5557(7) 0.8928(11) 0.2682(7)
H1_4 H 0.5809 0.9626 0.2876
C4_4 C 0.5615(8) 0.8393(10) 0.1954(7)
H2_4 H 0.5914 0.8694 0.1629
C5_4 C 0.5185(7) 0.7396(10) 0.1795(6)
C6_4 C 0.5115(7) 0.6587(10) 0.1093(7)
C7_4 C 0.4398(7) 0.6416(10) 0.8870(6)
C8_4 C 0.3797(7) 0.7013(10) 0.8184(7)
C9_4 C 0.2996(9) 0.6977(13) 0.8043(9)
H3_4 H 0.2736 0.6583 0.8367
C10_4 C 0.2584(8) 0.7614(14) 0.7336(8)
H4_4 H 0.2030 0.7708 0.7161
O13_4 O 0.2938(5) 0.5851(7) 0.0155(6)
H5_4 H 0.2510 0.5693 0.0282
H6_4 H 0.3041 0.6532 0.0019
C11_4 C 0.3107(7) 0.8066(10) 0.6950(7)
C12_4 C 0.2889(7) 0.8718(10) 0.6193(7)
O14_4 O 0.3942(6) 0.7055(8) 0.5495(6)
N1_4 N 0.3852(8) 0.5167(12) 0.5405(9)
C19_4 C 0.3873(11) 0.4000(14) 0.5039(12)
H9_4 H 0.4009 0.4084 0.4541
H10_4 H 0.4269 0.3524 0.5399
H11_4 H 0.3356 0.3638 0.4941
C20_4 C 0.3639(12) 0.4961(16) 0.6158(11)
H12_4 H 0.3617 0.5691 0.6421
H13_4 H 0.3123 0.4588 0.6042
H14_4 H 0.4036 0.4470 0.6503
C21_4 C 0.3930(10) 0.6163(14) 0.5136(11)
H15_4 H 0.3981 0.6210 0.4617
loop_
_geom_bond_atom_site_label_1
_geom_bond_atom_site_label_2
_geom_bond_site_symmetry_1
_geom_bond_site_symmetry_2
Yb6 O5 1_555 1_555
O4 C6 1_555 1_555
C3 C2 1_555 1_555
H1 C3 1_555 1_555
C4 C3 1_555 1_555
H2 C4 1_555 1_555
C6 C5 1_555 1_555
Yb3 O2 1_555 1_555
Yb6 O4 1_555 1_555
C4 C5 1_555 1_555
H10 C19 1_555 1_555
H13 C20 1_555 1_555
H14 C20 1_555 1_555
O16 Yb7 1_555 1_555
O17 Yb7 1_555 1_555
O19 Yb7 1_555 1_555
O22 Yb7 1_555 1_555
S2 C8 1_555 1_555
O6 C7 1_555 1_555
O7 Yb1 1_555 1_555
O8 C12 1_555 1_555
C7 C8 1_555 1_555
C8 C9 1_555 1_555
C9 H3 1_555 1_555
C10 C9 1_555 1_555
H4 C10 1_555 1_555
C11 S2 1_555 1_555
C12 O7 1_555 1_555
O14 Yb1 1_555 1_555
C21 O14 1_555 1_555
O15 Yb1 1_555 1_555
C10 C11 1_555 1_555
C11 C12 1_555 1_555
N1 C21 1_555 1_555
S3 C14 1_555 1_555
O1 C1 1_555 1_555
O10 C13 1_555 1_555
O11 C18 1_555 1_555
O22 C18 1_555 1_555
H5 O13 1_555 1_555
H6 O13 1_555 1_555
C13 O9 1_555 1_555
C14 C13 1_555 1_555
C15 C14 1_555 1_555
H7 C15 1_555 1_555
C16 C15 1_555 1_555
H8 C16 1_555 1_555
C17 S3 1_555 1_555
C18 C17 1_555 1_555
Yb4 O11 1_555 1_555
C16 C17 1_555 1_555
Yb4 O1_2 1_555 1_555
Yb8 O3_2 1_555 1_555
S1_2 C2_2 1_555 1_555
S2_2 C8_2 1_555 1_555
O1_2 C1_2 1_555 1_555
O2_2 Yb4 1_555 1_555
O3_2 C6_2 1_555 1_555
O4_2 C6_2 1_555 1_555
O5_2 C7_2 1_555 1_555
O18 C7_2 1_555 1_555
O7_2 Yb4 1_555 1_555
O19 C12_2 1_555 1_555
C1_2 O2_2 1_555 1_555
C2_2 C1_2 1_555 1_555
C3_2 C2_2 1_555 1_555
H1_2 C3_2 1_555 1_555
C4_2 C3_2 1_555 1_555
H2_2 C4_2 1_555 1_555
C5_2 S1_2 1_555 1_555
C6_2 C5_2 1_555 1_555
C7_2 C8_2 1_555 1_555
C8_2 C9_2 1_555 1_555
C9_2 H3_2 1_555 1_555
C10_2 C9_2 1_555 1_555
H4_2 C10_2 1_555 1_555
O13_2 Yb8 1_555 1_555
H5_2 O13_2 1_555 1_555
H6_2 O13_2 1_555 1_555
C11_2 S2_2 1_555 1_555
C12_2 O7_2 1_555 1_555
O14_2 Yb4 1_555 1_555
N1_2 C19_2 1_555 1_555
C19_2 H9_2 1_555 1_555
H10_2 C19_2 1_555 1_555
H11_2 C19_2 1_555 1_555
C20_2 N1_2 1_555 1_555
H12_2 C20_2 1_555 1_555
H13_2 C20_2 1_555 1_555
H14_2 C20_2 1_555 1_555
C21_2 O14_2 1_555 1_555
H15_2 C21_2 1_555 1_555
Yb5 O5_2 1_555 1_555
O17_2 Yb8 1_555 1_555
O20_2 Yb4 1_555 1_555
O22_2 Yb8 1_555 1_555
C4_2 C5_2 1_555 1_555
C10_2 C11_2 1_555 1_555
C11_2 C12_2 1_555 1_555
N1_2 C21_2 1_555 1_555
S3_2 C14_2 1_555 1_555
O10_2 C13_2 1_555 1_555
O21 C18_2 1_555 1_555
O22_2 C18_2 1_555 1_555
C13_2 O9_2 1_555 1_555
C14_2 C13_2 1_555 1_555
C15_2 C14_2 1_555 1_555
H7_2 C15_2 1_555 1_555
C16_2 C15_2 1_555 1_555
H8_2 C16_2 1_555 1_555
C17_2 S3_2 1_555 1_555
C18_2 C17_2 1_555 1_555
O10_2 Yb3_2 1_555 1_555
C16_2 C17_2 1_555 1_555
Yb3_2 O15_2 1_555 1_555
S3_3 C14_3 1_555 1_555
O1_3 C1_3 1_555 1_555
O20 C13_3 1_555 1_555
O11_2 C18_3 1_555 1_555
O12 C18_3 1_555 1_555
H5_3 O13_3 1_555 1_555
H6_3 O13_3 1_555 1_555
C13_3 O9_3 1_555 1_555
C14_3 C13_3 1_555 1_555
C15_3 C14_3 1_555 1_555
H7_3 C15_3 1_555 1_555
C16_3 C15_3 1_555 1_555
H8_3 C16_3 1_555 1_555
C17_3 S3_3 1_555 1_555
C18_3 C17_3 1_555 1_555
Yb3_2 O11_2 1_555 1_555
Yb6 O12 1_555 1_555
C16_3 C17_3 1_555 1_555
S2_3 C8_3 1_555 1_555
O18_2 C7_3 1_555 1_555
O7_3 Yb3 1_555 1_555
O8_2 C12_3 1_555 1_555
C7_3 C8_3 1_555 1_555
C8_3 C9_3 1_555 1_555
C9_3 H3_3 1_555 1_555
C10_3 C9_3 1_555 1_555
H4_3 C10_3 1_555 1_555
C11_3 S2_3 1_555 1_555
C12_3 O7_3 1_555 1_555
O14_3 Yb3 1_555 1_555
C21_3 O14_3 1_555 1_555
C10_3 C11_3 1_555 1_555
C11_3 C12_3 1_555 1_555
N1_3 C21_3 1_555 1_555
O19_2 Yb6 1_555 1_555
H10_3 C19_3 1_555 1_555
H13_3 C20_3 1_555 1_555
H14_3 C20_3 1_555 1_555
O16 C6_3 1_555 1_555
C3_3 C2_3 1_555 1_555
H1_3 C3_3 1_555 1_555
C4_3 C3_3 1_555 1_555
H2_3 C4_3 1_555 1_555
C6_3 C5_3 1_555 1_555
C4_3 C5_3 1_555 1_555
S3_4 C14_4 1_555 1_555
O20_2 C13_4 1_555 1_555
O21_2 C18_4 1_555 1_555
O12_2 C18_4 1_555 1_555
C13_4 O9_4 1_555 1_555
C14_4 C13_4 1_555 1_555
C15_4 C14_4 1_555 1_555
H7_4 C15_4 1_555 1_555
C16_4 C15_4 1_555 1_555
H8_4 C16_4 1_555 1_555
C17_4 S3_4 1_555 1_555
C18_4 C17_4 1_555 1_555
Yb5 O12_2 1_555 1_555
C16_4 C17_4 1_555 1_555
Yb3_2 O1_4 1_555 1_555
Yb5 O3_4 1_555 1_555
S1_4 C2_4 1_555 1_555
S2_4 C8_4 1_555 1_555
O1_4 C1_4 1_555 1_555
O3_4 C6_4 1_555 1_555
O16_2 C6_4 1_555 1_555
O17_2 C7_4 1_555 1_555
O6_2 C7_4 1_555 1_555
O7_4 Yb3_2 1_555 1_555
O19_2 C12_4 1_555 1_555
C1_4 O15_2 1_555 1_555
C2_4 C1_4 1_555 1_555
C3_4 C2_4 1_555 1_555
H1_4 C3_4 1_555 1_555
C4_4 C3_4 1_555 1_555
H2_4 C4_4 1_555 1_555
C5_4 S1_4 1_555 1_555
C6_4 C5_4 1_555 1_555
C7_4 C8_4 1_555 1_555
C8_4 C9_4 1_555 1_555
C9_4 H3_4 1_555 1_555
C10_4 C9_4 1_555 1_555
H4_4 C10_4 1_555 1_555
O13_4 Yb5 1_555 1_555
H5_4 O13_4 1_555 1_555
H6_4 O13_4 1_555 1_555
C11_4 S2_4 1_555 1_555
C12_4 O7_4 1_555 1_555
O14_4 Yb3_2 1_555 1_555
N1_4 C19_4 1_555 1_555
C19_4 H9_4 1_555 1_555
H10_4 C19_4 1_555 1_555
H11_4 C19_4 1_555 1_555
C20_4 N1_4 1_555 1_555
H12_4 C20_4 1_555 1_555
H13_4 C20_4 1_555 1_555
H14_4 C20_4 1_555 1_555
C21_4 O14_4 1_555 1_555
H15_4 C21_4 1_555 1_555
C4_4 C5_4 1_555 1_555
C10_4 C11_4 1_555 1_555
C11_4 C12_4 1_555 1_555
N1_4 C21_4 1_555 1_555

#END
