
###############################################################################
#
# This file contains modified crystal structure data generated from the
# MOF subset of the Cambridge Structural Database (CSD) v543 
# hosted by the Cambridge Crystallographic Data Centre (CCDC).
#
# This work is licensed under the Creative Commons
# Attribution-NonCommercial-ShareAlike 4.0 International License.
# To view a copy of this license, visit
# http://creativecommons.org/licenses/by-nc-sa/4.0/
# or send a letter to
# Creative Commons, PO Box 1866, Mountain View, CA 94042, USA.
#
# CIF created using the CSD Python API on 29 September 2022
# The structure has been converted into the P1 space group
# The structure has a 3D framework
# The original CSD entry HOXWOJ is in the tetragonal crystal system
# The framework has been calculated to contain at least 10.0% void space
# The void calculation uses a probe of radius 1.32A, grid spacing 0.4
# H atom positions have been added when not included in the experimental data
#
###############################################################################

data_HOXWOJ
_chemical_formula_moiety         '(C8 H8 F10 Fe1 Ge2 N4)n'
_symmetry_cell_setting           triclinic
_symmetry_space_group_name_H-M   'P 1'
_symmetry_Int_Tables_number      1
_space_group_name_Hall           'P 1'
loop_
_symmetry_equiv_pos_site_id
_symmetry_equiv_pos_as_xyz
1 x,y,z
_cell_length_a                   7.0841
_cell_length_b                   7.0841
_cell_length_c                   7.7285
_cell_angle_alpha                90
_cell_angle_beta                 90
_cell_angle_gamma                90
_cell_volume                     387.851
loop_
_atom_site_label
_atom_site_type_symbol
_atom_site_fract_x
_atom_site_fract_y
_atom_site_fract_z
_atom_site_U_iso_or_equiv
_atom_site_thermal_displace_type
N4 N 0.168(3) 0.500 0.500 -0.1170 Uiso
C6 C 0.062(7) 0.500 0.362(4) -0.2800 Uiso
C8 C 0.062(7) 0.500 0.638(4) -0.2800 Uiso
Fe4 Fe 0.500 0.500 0.500 -0.0110 Uiso
H4 H 0.132806 0.5 0.76307 . .
H7 H 0.132806 0.5 0.23693 . .
Ge1 Ge 0.500 0.500 0.000 0.0090 Uiso
N1 N 0.500 0.168(3) 0.500 -0.1170 Uiso
C1 C 0.500 0.062(7) 0.362(4) -0.2800 Uiso
F1 F 0.500 0.500 0.187(5) 0.0800 Uiso
F2 F 0.346(2) 0.346(2) 0.000 -0.1680 Uiso
C3 C 0.500 0.062(7) 0.638(4) -0.2800 Uiso
N3 N 0.832(3) 0.500 0.500 -0.1170 Uiso
C5 C 0.938(7) 0.500 0.362(4) -0.2800 Uiso
C7 C 0.938(7) 0.500 0.638(4) -0.2800 Uiso
F4 F 0.654(2) 0.654(2) 0.000 -0.1680 Uiso
F5 F 0.654(2) 0.346(2) 0.000 -0.1680 Uiso
F6 F 0.346(2) 0.654(2) 0.000 -0.1680 Uiso
N5 N 0.500 0.832(3) 0.500 -0.1170 Uiso
F7 F 0.500 0.500 0.813(5) 0.0800 Uiso
H1 H 0.5 0.132806 0.23693 . .
H2 H 0.867194 0.5 0.76307 . .
H3 H 0.5 0.132806 0.76307 . .
H5 H 0.867194 0.5 0.23693 . .
Ge1_2 Ge 0.500 0.500 1.000 0.0090 Uiso
F2_2 F 0.346(2) 0.346(2) 1.000 -0.1680 Uiso
F4_2 F 0.654(2) 0.654(2) 1.000 -0.1680 Uiso
F5_2 F 0.654(2) 0.346(2) 1.000 -0.1680 Uiso
F6_2 F 0.346(2) 0.654(2) 1.000 -0.1680 Uiso
C2 C 0.500 0.938(7) 0.362(4) -0.2800 Uiso
C4 C 0.500 0.938(7) 0.638(4) -0.2800 Uiso
H6 H 0.5 0.867194 0.76307 . .
H8 H 0.5 0.867194 0.23693 . .
loop_
_geom_bond_atom_site_label_1
_geom_bond_atom_site_label_2
_geom_bond_site_symmetry_1
_geom_bond_site_symmetry_2
N4 C6 1_555 1_555
C8 N4 1_555 1_555
Fe4 N4 1_555 1_555
C8 H4 1_555 1_555
C6 H7 1_555 1_555
Ge1 F1 1_555 1_555
Fe4 N1 1_555 1_555
N1 C1 1_555 1_555
F1 Fe4 1_555 1_555
F2 Ge1 1_555 1_555
C3 N1 1_555 1_555
N3 Fe4 1_555 1_555
C5 N3 1_555 1_555
C7 N3 1_555 1_555
F4 Ge1 1_555 1_555
F5 Ge1 1_555 1_555
F6 Ge1 1_555 1_555
N5 Fe4 1_555 1_555
F7 Fe4 1_555 1_555
C1 H1 1_555 1_555
C7 H2 1_555 1_555
C3 H3 1_555 1_555
C5 H5 1_555 1_555
F2_2 Ge1_2 1_555 1_555
F7 Ge1_2 1_555 1_555
F4_2 Ge1_2 1_555 1_555
F5_2 Ge1_2 1_555 1_555
F6_2 Ge1_2 1_555 1_555
N5 C2 1_555 1_555
C4 N5 1_555 1_555
C4 H6 1_555 1_555
C2 H8 1_555 1_555

#END
