
###############################################################################
#
# This file contains modified crystal structure data generated from the
# MOF subset of the Cambridge Structural Database (CSD) v543 
# hosted by the Cambridge Crystallographic Data Centre (CCDC).
#
# This work is licensed under the Creative Commons
# Attribution-NonCommercial-ShareAlike 4.0 International License.
# To view a copy of this license, visit
# http://creativecommons.org/licenses/by-nc-sa/4.0/
# or send a letter to
# Creative Commons, PO Box 1866, Mountain View, CA 94042, USA.
#
# CIF created using the CSD Python API on 29 September 2022
# The structure has been converted into the P1 space group
# The structure has a 3D framework
# The original CSD entry HOYKUD is in the monoclinic crystal system
# The framework has been calculated to contain at least 10.0% void space
# The void calculation uses a probe of radius 1.32A, grid spacing 0.4
#
###############################################################################

data_HOYKUD
_chemical_formula_moiety         '(C52 H32 Cu2 N8 O10)n'
_symmetry_cell_setting           triclinic
_symmetry_space_group_name_H-M   'P 1'
_symmetry_Int_Tables_number      1
_space_group_name_Hall           'P 1'
loop_
_symmetry_equiv_pos_site_id
_symmetry_equiv_pos_as_xyz
1 x,y,z
_cell_length_a                   11.5727(14)
_cell_length_b                   12.4292(16)
_cell_length_c                   14.4253(17)
_cell_angle_alpha                90
_cell_angle_beta                 102.098(7)
_cell_angle_gamma                90
_cell_volume                     2028.84
loop_
_atom_site_label
_atom_site_type_symbol
_atom_site_fract_x
_atom_site_fract_y
_atom_site_fract_z
Cu1 Cu 0.09378(3) 0.06422(3) 0.00700(2)
N3 N 0.24857(18) 0.16146(18) 0.02736(15)
O7 O 0.00291(16) 0.16102(17) 0.07405(14)
O5 O 0.00971(16) 0.12371(18) 0.88436(13)
H5 H 0.8281 0.6989 0.0059
O6 O 0.14684(17) 0.98437(17) 0.12578(14)
O1 O 0.15654(18) 0.94480(16) 0.94156(16)
N1 N 0.75143(18) 0.83854(18) 0.97264(15)
O3 O 0.14684(17) 0.51563(17) 0.62578(14)
N2 N 0.45149(19) 0.6440(2) 0.89641(17)
H1 H 0.4645 0.5761 0.9032
C1 C 0.0995(2) 0.8609(2) 0.91521(17)
C2 C 0.2780(2) 0.7551(2) 0.90208(18)
H2 H 0.3199 0.7927 0.9541
C3 C 0.5475(2) 0.7108(2) 0.92272(18)
C4 C 0.1589(2) 0.7780(2) 0.86681(19)
C5 C 0.0916(2) 0.5908(2) 0.65509(18)
C6 C 0.3340(2) 0.6758(2) 0.85951(18)
C7 C 0.0965(2) 0.7231(2) 0.78863(18)
H3 H 0.0166 0.7374 0.7661
C8 C 0.2719(2) 0.6217(2) 0.78057(18)
H4 H 0.3094 0.5687 0.7521
C9 C 0.1537(2) 0.6461(2) 0.74355(18)
C10 C 0.7554(2) 0.7310(2) 0.98188(19)
C11 C 0.5425(2) 0.8228(2) 0.9132(2)
H6 H 0.4708 0.8569 0.8901
C12 C 0.6449(2) 0.8820(2) 0.93850(19)
H7 H 0.6398 0.9563 0.9315
C13 C 0.6577(2) 0.6654(2) 0.95785(19)
H8 H 0.6655 0.5913 0.9651
Cu4 Cu 0.90622(3) 0.93578(3) 0.99300(2)
Cu5 Cu 0.09378(3) 0.43578(3) 0.50700(2)
O2 O 0.99029(16) 0.62371(18) 0.61564(13)
O4 O 0.99709(16) 0.83898(17) 0.92595(14)
Cu2 Cu 0.90622(3) 0.56422(3) 0.49300(2)
O4_2 O 0.00291(16) 0.33898(17) 0.57405(14)
O1_2 O 0.84346(18) 0.44480(16) 0.55844(16)
N1_2 N 0.24857(18) 0.33854(18) 0.52736(15)
O3_2 O 0.85316(17) 0.01563(17) 0.87422(14)
N2_2 N 0.54851(19) 0.1440(2) 0.60359(17)
H1_2 H 0.5355 0.0761 0.5968
C1_2 C 0.9005(2) 0.3609(2) 0.58479(17)
C2_2 C 0.7220(2) 0.2551(2) 0.59792(18)
H2_2 H 0.6801 0.2927 0.5459
C3_2 C 0.4525(2) 0.2108(2) 0.57728(18)
C4_2 C 0.8411(2) 0.2780(2) 0.63319(19)
C5_2 C 0.9084(2) 0.0908(2) 0.84491(18)
C6_2 C 0.6660(2) 0.1758(2) 0.64049(18)
C7_2 C 0.9035(2) 0.2231(2) 0.71137(18)
H3_2 H 0.9834 0.2374 0.7339
C8_2 C 0.7281(2) 0.1217(2) 0.71943(18)
H4_2 H 0.6906 0.0687 0.7479
C9_2 C 0.8463(2) 0.1461(2) 0.75645(18)
C10_2 C 0.2446(2) 0.2310(2) 0.51812(19)
H5_2 H 0.1719 0.1989 0.4941
C11_2 C 0.4575(2) 0.3228(2) 0.5868(2)
H6_2 H 0.5292 0.3569 0.6099
C12_2 C 0.3551(2) 0.3820(2) 0.56150(19)
H7_2 H 0.3602 0.4563 0.5685
C13_2 C 0.3423(2) 0.1654(2) 0.54215(19)
H8_2 H 0.3345 0.0913 0.5349
N3_2 N 0.75143(18) 0.66146(18) 0.47264(15)
O6_2 O 0.85316(17) 0.48437(17) 0.37422(14)
O7_2 O 0.99709(16) 0.66102(17) 0.42595(14)
O2_2 O 0.00971(16) 0.37629(18) 0.38436(13)
O1_3 O 0.84346(18) 0.05520(16) 0.05844(16)
N2_3 N 0.54851(19) 0.3560(2) 0.10359(17)
H1_3 H 0.5355 0.4239 0.0968
C1_3 C 0.9005(2) 0.1391(2) 0.08479(17)
C2_3 C 0.7220(2) 0.2449(2) 0.09792(18)
H2_3 H 0.6801 0.2073 0.0459
C3_3 C 0.4525(2) 0.2892(2) 0.07728(18)
C4_3 C 0.8411(2) 0.2220(2) 0.13319(19)
C5_3 C 0.9084(2) 0.4092(2) 0.34491(18)
C6_3 C 0.6660(2) 0.3242(2) 0.14049(18)
C7_3 C 0.9035(2) 0.2769(2) 0.21137(18)
H3_3 H 0.9834 0.2626 0.2339
C8_3 C 0.7281(2) 0.3783(2) 0.21943(18)
H4_3 H 0.6906 0.4313 0.2479
C9_3 C 0.8463(2) 0.3539(2) 0.25645(18)
C10_3 C 0.2446(2) 0.2690(2) 0.01812(19)
C11_3 C 0.4575(2) 0.1772(2) 0.0868(2)
H6_3 H 0.5292 0.1431 0.1099
C12_3 C 0.3551(2) 0.1180(2) 0.06150(19)
H7_3 H 0.3602 0.0437 0.0685
C13_3 C 0.3423(2) 0.3346(2) 0.04215(19)
H8_3 H 0.3345 0.4087 0.0349
H5_3 H 0.1719 0.3011 0.9941
O5_2 O 0.99029(16) 0.87629(18) 0.11564(13)
O1_4 O 0.15654(18) 0.55520(16) 0.44156(16)
N2_4 N 0.45149(19) 0.8560(2) 0.39641(17)
H1_4 H 0.4645 0.9239 0.4032
C1_4 C 0.0995(2) 0.6391(2) 0.41521(17)
C2_4 C 0.2780(2) 0.7449(2) 0.40208(18)
H2_4 H 0.3199 0.7073 0.4541
C3_4 C 0.5475(2) 0.7892(2) 0.42272(18)
C4_4 C 0.1589(2) 0.7220(2) 0.36681(19)
C5_4 C 0.0916(2) 0.9092(2) 0.15509(18)
C6_4 C 0.3340(2) 0.8242(2) 0.35951(18)
C7_4 C 0.0965(2) 0.7769(2) 0.28863(18)
H3_4 H 0.0166 0.7626 0.2661
C8_4 C 0.2719(2) 0.8783(2) 0.28057(18)
H4_4 H 0.3094 0.9313 0.2521
C9_4 C 0.1537(2) 0.8539(2) 0.24355(18)
C10_4 C 0.7554(2) 0.7690(2) 0.48188(19)
H5_4 H 0.8281 0.8011 0.5059
C11_4 C 0.5425(2) 0.6772(2) 0.4132(2)
H6_4 H 0.4708 0.6431 0.3901
C12_4 C 0.6449(2) 0.6180(2) 0.43850(19)
H7_4 H 0.6398 0.5437 0.4315
C13_4 C 0.6577(2) 0.8346(2) 0.45785(19)
H8_4 H 0.6655 0.9087 0.4651
loop_
_geom_bond_atom_site_label_1
_geom_bond_atom_site_label_2
_geom_bond_site_symmetry_1
_geom_bond_site_symmetry_2
N3 Cu1 1_555 1_555
O7 Cu1 1_555 1_555
O1 C1 1_555 1_555
N1 C10 1_555 1_555
O3 C5 1_555 1_555
N2 H1 1_555 1_555
C1 C4 1_555 1_555
C2 H2 1_555 1_555
C3 N2 1_555 1_555
C4 C2 1_555 1_555
C5 C9 1_555 1_555
C6 N2 1_555 1_555
C7 C4 1_555 1_555
H3 C7 1_555 1_555
C8 C6 1_555 1_555
H4 C8 1_555 1_555
C9 C7 1_555 1_555
C11 C3 1_555 1_555
H6 C11 1_555 1_555
C12 N1 1_555 1_555
H7 C12 1_555 1_555
C13 C3 1_555 1_555
H8 C13 1_555 1_555
Cu4 N1 1_555 1_555
Cu5 O3 1_555 1_555
C2 C6 1_555 1_555
C8 C9 1_555 1_555
C10 C13 1_555 1_555
C11 C12 1_555 1_555
Cu2 O2 1_555 1_555
O4 Cu4 1_555 1_555
O4_2 Cu5 1_555 1_555
Cu2 O1_2 1_555 1_555
O1_2 C1_2 1_555 1_555
N1_2 C10_2 1_555 1_555
O3_2 C5_2 1_555 1_555
N2_2 H1_2 1_555 1_555
C1_2 C4_2 1_555 1_555
C2_2 H2_2 1_555 1_555
C3_2 N2_2 1_555 1_555
C4_2 C2_2 1_555 1_555
C5_2 C9_2 1_555 1_555
C6_2 N2_2 1_555 1_555
C7_2 C4_2 1_555 1_555
H3_2 C7_2 1_555 1_555
C8_2 C6_2 1_555 1_555
H4_2 C8_2 1_555 1_555
C9_2 C7_2 1_555 1_555
C10_2 H5_2 1_555 1_555
C11_2 C3_2 1_555 1_555
H6_2 C11_2 1_555 1_555
C12_2 N1_2 1_555 1_555
H7_2 C12_2 1_555 1_555
C13_2 C3_2 1_555 1_555
H8_2 C13_2 1_555 1_555
Cu5 N1_2 1_555 1_555
N3_2 Cu2 1_555 1_555
O6_2 Cu2 1_555 1_555
O7_2 Cu2 1_555 1_555
C2_2 C6_2 1_555 1_555
C8_2 C9_2 1_555 1_555
C10_2 C13_2 1_555 1_555
C11_2 C12_2 1_555 1_555
Cu5 O2_2 1_555 1_555
O1_3 C1_3 1_555 1_555
N3 C10_3 1_555 1_555
O6_2 C5_3 1_555 1_555
N2_3 H1_3 1_555 1_555
C1_3 C4_3 1_555 1_555
C2_3 H2_3 1_555 1_555
C3_3 N2_3 1_555 1_555
C4_3 C2_3 1_555 1_555
C5_3 C9_3 1_555 1_555
C6_3 N2_3 1_555 1_555
C7_3 C4_3 1_555 1_555
H3_3 C7_3 1_555 1_555
C8_3 C6_3 1_555 1_555
H4_3 C8_3 1_555 1_555
C9_3 C7_3 1_555 1_555
C11_3 C3_3 1_555 1_555
H6_3 C11_3 1_555 1_555
C12_3 N3 1_555 1_555
H7_3 C12_3 1_555 1_555
C13_3 C3_3 1_555 1_555
H8_3 C13_3 1_555 1_555
C2_3 C6_3 1_555 1_555
C8_3 C9_3 1_555 1_555
C10_3 C13_3 1_555 1_555
C11_3 C12_3 1_555 1_555
Cu5 O1_4 1_555 1_555
O1_4 C1_4 1_555 1_555
N3_2 C10_4 1_555 1_555
O6 C5_4 1_555 1_555
N2_4 H1_4 1_555 1_555
C1_4 C4_4 1_555 1_555
C2_4 H2_4 1_555 1_555
C3_4 N2_4 1_555 1_555
C4_4 C2_4 1_555 1_555
C5_4 C9_4 1_555 1_555
C6_4 N2_4 1_555 1_555
C7_4 C4_4 1_555 1_555
H3_4 C7_4 1_555 1_555
C8_4 C6_4 1_555 1_555
H4_4 C8_4 1_555 1_555
C9_4 C7_4 1_555 1_555
C10_4 H5_4 1_555 1_555
C11_4 C3_4 1_555 1_555
H6_4 C11_4 1_555 1_555
C12_4 N3_2 1_555 1_555
H7_4 C12_4 1_555 1_555
C13_4 C3_4 1_555 1_555
H8_4 C13_4 1_555 1_555
C2_4 C6_4 1_555 1_555
C8_4 C9_4 1_555 1_555
C10_4 C13_4 1_555 1_555
C11_4 C12_4 1_555 1_555

#END
