
###############################################################################
#
# This file contains modified crystal structure data generated from the
# MOF subset of the Cambridge Structural Database (CSD) v543 
# hosted by the Cambridge Crystallographic Data Centre (CCDC).
#
# This work is licensed under the Creative Commons
# Attribution-NonCommercial-ShareAlike 4.0 International License.
# To view a copy of this license, visit
# http://creativecommons.org/licenses/by-nc-sa/4.0/
# or send a letter to
# Creative Commons, PO Box 1866, Mountain View, CA 94042, USA.
#
# CIF created using the CSD Python API on 29 September 2022
# The structure has been converted into the P1 space group
# The structure has a 3D framework
# The original CSD entry HOYQUJ is in the monoclinic crystal system
# The framework has been calculated to contain at least 10.0% void space
# The void calculation uses a probe of radius 1.32A, grid spacing 0.4
#
###############################################################################

data_HOYQUJ
_chemical_formula_moiety         '(C52 H32 Cu4 N8 O12)n'
_symmetry_cell_setting           triclinic
_symmetry_space_group_name_H-M   'P 1'
_symmetry_Int_Tables_number      1
_space_group_name_Hall           'P 1'
loop_
_symmetry_equiv_pos_site_id
_symmetry_equiv_pos_as_xyz
1 x,y,z
_cell_length_a                   12.5824(6)
_cell_length_b                   11.7081(7)
_cell_length_c                   14.7356(7)
_cell_angle_alpha                90
_cell_angle_beta                 114.996(3)
_cell_angle_gamma                90
_cell_volume                     1967.47
loop_
_atom_site_label
_atom_site_type_symbol
_atom_site_fract_x
_atom_site_fract_y
_atom_site_fract_z
O4 O 0.0004(2) 0.1345(2) 0.1112(2)
Cu2 Cu 0.08883(4) 0.07320(4) 0.03959(4)
Cu6 Cu 0.08883(4) 0.42680(4) 0.53959(4)
O1 O 0.8416(2) 0.4559(2) 0.3575(2)
O2 O 0.8511(2) 0.0127(2) 0.0431(2)
O3 O 0.9940(2) 0.3360(2) 0.4216(2)
N1 N 0.2407(3) 0.1839(3) 0.0981(2)
N2 N 0.5455(3) 0.1356(3) 0.1492(3)
H1 H 0.5341 0.0621 0.1364
C1 C 0.3428(3) 0.1361(3) 0.1132(3)
H2 H 0.3446 0.0559 0.1043
C2 C 0.4480(3) 0.1971(4) 0.1413(3)
C3 C 0.4427(3) 0.3146(4) 0.1540(3)
H3 H 0.5108 0.3605 0.1718
C4 C 0.3372(4) 0.3637(4) 0.1406(4)
H4 H 0.3327 0.4435 0.1503
C5 C 0.2379(3) 0.2964(3) 0.1130(3)
H5 H 0.1659 0.3310 0.1043
C6 C 0.6596(3) 0.1746(4) 0.1750(3)
C7 C 0.7222(3) 0.1230(3) 0.1263(3)
H6 H 0.6844 0.0687 0.0748
C8 C 0.7158(3) 0.2563(4) 0.2489(3)
H7 H 0.6740 0.2944 0.2806
C9 C 0.8330(3) 0.2814(3) 0.2758(3)
C10 C 0.8958(3) 0.2294(3) 0.2284(3)
H8 H 0.9760 0.2475 0.2474
C11 C 0.8384(3) 0.1507(3) 0.1530(3)
C12 C 0.9019(3) 0.0949(3) 0.0981(3)
C13 C 0.8944(3) 0.3645(3) 0.3583(3)
Cu3 Cu 0.91117(4) 0.57320(4) 0.46041(4)
O5 O 0.1584(2) 0.9559(2) 0.1425(2)
Cu5 Cu 0.91117(4) 0.92680(4) 0.96041(4)
O6 O 0.1489(2) 0.9873(2) 0.9569(2)
O7 O 0.9940(2) 0.1640(2) 0.9216(2)
O7_2 O 0.0060(2) 0.6640(2) 0.5784(2)
O2_2 O 0.1489(2) 0.5127(2) 0.4569(2)
O3_2 O 0.0060(2) 0.8360(2) 0.0784(2)
N1_2 N 0.7593(3) 0.6839(3) 0.4019(2)
N2_2 N 0.4545(3) 0.6356(3) 0.3508(3)
H1_2 H 0.4659 0.5621 0.3636
C1_2 C 0.6572(3) 0.6361(3) 0.3868(3)
H2_2 H 0.6554 0.5559 0.3957
C2_2 C 0.5520(3) 0.6971(4) 0.3587(3)
C3_2 C 0.5573(3) 0.8146(4) 0.3460(3)
H3_2 H 0.4892 0.8605 0.3282
C4_2 C 0.6628(4) 0.8637(4) 0.3594(4)
H4_2 H 0.6673 0.9435 0.3497
C5_2 C 0.7621(3) 0.7964(3) 0.3870(3)
H5_2 H 0.8341 0.8310 0.3957
C6_2 C 0.3404(3) 0.6746(4) 0.3250(3)
C7_2 C 0.2778(3) 0.6230(3) 0.3737(3)
H6_2 H 0.3156 0.5687 0.4252
C8_2 C 0.2842(3) 0.7563(4) 0.2511(3)
H7_2 H 0.3260 0.7944 0.2194
C9_2 C 0.1670(3) 0.7814(3) 0.2242(3)
C10_2 C 0.1042(3) 0.7294(3) 0.2716(3)
H8_2 H 0.0240 0.7475 0.2526
C11_2 C 0.1616(3) 0.6507(3) 0.3470(3)
C12_2 C 0.0981(3) 0.5949(3) 0.4019(3)
C13_2 C 0.1056(3) 0.8645(3) 0.1417(3)
O6_2 O 0.8511(2) 0.4873(2) 0.5431(2)
O8 O 0.9996(2) 0.6345(2) 0.3888(2)
O5_2 O 0.8416(2) 0.0441(2) 0.8575(2)
O1_2 O 0.1584(2) 0.5441(2) 0.6425(2)
N1_3 N 0.7593(3) 0.8161(3) 0.9019(2)
N2_3 N 0.4545(3) 0.8644(3) 0.8508(3)
H1_3 H 0.4659 0.9379 0.8636
C1_3 C 0.6572(3) 0.8639(3) 0.8868(3)
H2_3 H 0.6554 0.9441 0.8957
C2_3 C 0.5520(3) 0.8029(4) 0.8587(3)
C3_3 C 0.5573(3) 0.6854(4) 0.8460(3)
H3_3 H 0.4892 0.6395 0.8282
C4_3 C 0.6628(4) 0.6363(4) 0.8594(4)
H4_3 H 0.6673 0.5565 0.8497
C5_3 C 0.7621(3) 0.7036(3) 0.8870(3)
H5_3 H 0.8341 0.6690 0.8957
C6_3 C 0.3404(3) 0.8254(4) 0.8250(3)
C7_3 C 0.2778(3) 0.8770(3) 0.8737(3)
H6_3 H 0.3156 0.9313 0.9252
C8_3 C 0.2842(3) 0.7437(4) 0.7511(3)
H7_3 H 0.3260 0.7056 0.7194
C9_3 C 0.1670(3) 0.7186(3) 0.7242(3)
C10_3 C 0.1042(3) 0.7706(3) 0.7716(3)
H8_3 H 0.0240 0.7525 0.7526
C11_3 C 0.1616(3) 0.8493(3) 0.8470(3)
C12_3 C 0.0981(3) 0.9051(3) 0.9019(3)
C13_3 C 0.1056(3) 0.6355(3) 0.6417(3)
O8_2 O 0.9996(2) 0.8655(2) 0.8888(2)
O4_2 O 0.0004(2) 0.3655(2) 0.6112(2)
N1_4 N 0.2407(3) 0.3161(3) 0.5981(2)
N2_4 N 0.5455(3) 0.3644(3) 0.6492(3)
H1_4 H 0.5341 0.4379 0.6364
C1_4 C 0.3428(3) 0.3639(3) 0.6132(3)
H2_4 H 0.3446 0.4441 0.6043
C2_4 C 0.4480(3) 0.3029(4) 0.6413(3)
C3_4 C 0.4427(3) 0.1854(4) 0.6540(3)
H3_4 H 0.5108 0.1395 0.6718
C4_4 C 0.3372(4) 0.1363(4) 0.6406(4)
H4_4 H 0.3327 0.0565 0.6503
C5_4 C 0.2379(3) 0.2036(3) 0.6130(3)
H5_4 H 0.1659 0.1690 0.6043
C6_4 C 0.6596(3) 0.3254(4) 0.6750(3)
C7_4 C 0.7222(3) 0.3770(3) 0.6263(3)
H6_4 H 0.6844 0.4313 0.5748
C8_4 C 0.7158(3) 0.2437(4) 0.7489(3)
H7_4 H 0.6740 0.2056 0.7806
C9_4 C 0.8330(3) 0.2186(3) 0.7758(3)
C10_4 C 0.8958(3) 0.2706(3) 0.7284(3)
H8_4 H 0.9760 0.2525 0.7474
C11_4 C 0.8384(3) 0.3493(3) 0.6530(3)
C12_4 C 0.9019(3) 0.4051(3) 0.5981(3)
C13_4 C 0.8944(3) 0.1355(3) 0.8583(3)
loop_
_geom_bond_atom_site_label_1
_geom_bond_atom_site_label_2
_geom_bond_site_symmetry_1
_geom_bond_site_symmetry_2
Cu2 O4 1_555 1_555
Cu2 N1 1_555 1_555
O1 C13 1_555 1_555
O2 C12 1_555 1_555
O3 C13 1_555 1_555
N1 C1 1_555 1_555
N2 H1 1_555 1_555
C1 H2 1_555 1_555
C2 N2 1_555 1_555
C3 C2 1_555 1_555
H3 C3 1_555 1_555
C4 C3 1_555 1_555
H4 C4 1_555 1_555
C5 N1 1_555 1_555
H5 C5 1_555 1_555
C6 N2 1_555 1_555
C7 C6 1_555 1_555
H6 C7 1_555 1_555
C8 C6 1_555 1_555
H7 C8 1_555 1_555
C9 C8 1_555 1_555
C10 C9 1_555 1_555
H8 C10 1_555 1_555
C11 C7 1_555 1_555
C12 C11 1_555 1_555
C13 C9 1_555 1_555
Cu3 O1 1_555 1_555
C1 C2 1_555 1_555
C4 C5 1_555 1_555
C10 C11 1_555 1_555
Cu3 N1_2 1_555 1_555
O5 C13_2 1_555 1_555
O2_2 C12_2 1_555 1_555
O3_2 C13_2 1_555 1_555
N1_2 C1_2 1_555 1_555
N2_2 H1_2 1_555 1_555
C1_2 H2_2 1_555 1_555
C2_2 N2_2 1_555 1_555
C3_2 C2_2 1_555 1_555
H3_2 C3_2 1_555 1_555
C4_2 C3_2 1_555 1_555
H4_2 C4_2 1_555 1_555
C5_2 N1_2 1_555 1_555
H5_2 C5_2 1_555 1_555
C6_2 N2_2 1_555 1_555
C7_2 C6_2 1_555 1_555
H6_2 C7_2 1_555 1_555
C8_2 C6_2 1_555 1_555
H7_2 C8_2 1_555 1_555
C9_2 C8_2 1_555 1_555
C10_2 C9_2 1_555 1_555
H8_2 C10_2 1_555 1_555
C11_2 C7_2 1_555 1_555
C12_2 C11_2 1_555 1_555
C13_2 C9_2 1_555 1_555
Cu6 O2_2 1_555 1_555
O6_2 Cu3 1_555 1_555
O8 Cu3 1_555 1_555
C1_2 C2_2 1_555 1_555
C4_2 C5_2 1_555 1_555
C10_2 C11_2 1_555 1_555
Cu5 N1_3 1_555 1_555
O1_2 C13_3 1_555 1_555
O6 C12_3 1_555 1_555
O7_2 C13_3 1_555 1_555
N1_3 C1_3 1_555 1_555
N2_3 H1_3 1_555 1_555
C1_3 H2_3 1_555 1_555
C2_3 N2_3 1_555 1_555
C3_3 C2_3 1_555 1_555
H3_3 C3_3 1_555 1_555
C4_3 C3_3 1_555 1_555
H4_3 C4_3 1_555 1_555
C5_3 N1_3 1_555 1_555
H5_3 C5_3 1_555 1_555
C6_3 N2_3 1_555 1_555
C7_3 C6_3 1_555 1_555
H6_3 C7_3 1_555 1_555
C8_3 C6_3 1_555 1_555
H7_3 C8_3 1_555 1_555
C9_3 C8_3 1_555 1_555
C10_3 C9_3 1_555 1_555
H8_3 C10_3 1_555 1_555
C11_3 C7_3 1_555 1_555
C12_3 C11_3 1_555 1_555
C13_3 C9_3 1_555 1_555
Cu6 O1_2 1_555 1_555
O8_2 Cu5 1_555 1_555
C1_3 C2_3 1_555 1_555
C4_3 C5_3 1_555 1_555
C10_3 C11_3 1_555 1_555
Cu6 O4_2 1_555 1_555
Cu6 N1_4 1_555 1_555
O5_2 C13_4 1_555 1_555
O6_2 C12_4 1_555 1_555
O7 C13_4 1_555 1_555
N1_4 C1_4 1_555 1_555
N2_4 H1_4 1_555 1_555
C1_4 H2_4 1_555 1_555
C2_4 N2_4 1_555 1_555
C3_4 C2_4 1_555 1_555
H3_4 C3_4 1_555 1_555
C4_4 C3_4 1_555 1_555
H4_4 C4_4 1_555 1_555
C5_4 N1_4 1_555 1_555
H5_4 C5_4 1_555 1_555
C6_4 N2_4 1_555 1_555
C7_4 C6_4 1_555 1_555
H6_4 C7_4 1_555 1_555
C8_4 C6_4 1_555 1_555
H7_4 C8_4 1_555 1_555
C9_4 C8_4 1_555 1_555
C10_4 C9_4 1_555 1_555
H8_4 C10_4 1_555 1_555
C11_4 C7_4 1_555 1_555
C12_4 C11_4 1_555 1_555
C13_4 C9_4 1_555 1_555
C1_4 C2_4 1_555 1_555
C4_4 C5_4 1_555 1_555
C10_4 C11_4 1_555 1_555

#END
