
###############################################################################
#
# This file contains modified crystal structure data generated from the
# MOF subset of the Cambridge Structural Database (CSD) v543 
# hosted by the Cambridge Crystallographic Data Centre (CCDC).
#
# This work is licensed under the Creative Commons
# Attribution-NonCommercial-ShareAlike 4.0 International License.
# To view a copy of this license, visit
# http://creativecommons.org/licenses/by-nc-sa/4.0/
# or send a letter to
# Creative Commons, PO Box 1866, Mountain View, CA 94042, USA.
#
# CIF created using the CSD Python API on 29 September 2022
# The structure has been converted into the P1 space group
# The structure has a 3D framework
# The original CSD entry HOYRAQ is in the monoclinic crystal system
# The framework has been calculated to contain at least 10.0% void space
# The void calculation uses a probe of radius 1.32A, grid spacing 0.4
#
###############################################################################

data_HOYRAQ
_chemical_formula_moiety         '(C48 H28 Cu4 N12 O14)n'
_symmetry_cell_setting           triclinic
_symmetry_space_group_name_H-M   'P 1'
_symmetry_Int_Tables_number      1
_space_group_name_Hall           'P 1'
loop_
_symmetry_equiv_pos_site_id
_symmetry_equiv_pos_as_xyz
1 x,y,z
_cell_length_a                   12.5990(7)
_cell_length_b                   11.8519(7)
_cell_length_c                   14.5940(8)
_cell_angle_alpha                90
_cell_angle_beta                 115.371(2)
_cell_angle_gamma                90
_cell_volume                     1969.03
loop_
_atom_site_label
_atom_site_type_symbol
_atom_site_fract_x
_atom_site_fract_y
_atom_site_fract_z
O2 O 0.3094(2) 0.0111(2) 0.9557(2)
O3 O 0.0677(3) 0.3344(2) 0.5738(2)
O4 O 0.3869(2) 0.1302(2) 0.8816(2)
C1 C 0.3032(3) 0.0911(3) 0.8967(3)
C2 C 0.1847(3) 0.1435(3) 0.8420(3)
C3 C 0.1634(3) 0.2242(3) 0.7662(3)
H1 H 0.2218 0.2426 0.7458
C4 C 0.0556(3) 0.2760(3) 0.7220(3)
C5 C 0.0334(3) 0.3609(3) 0.6398(3)
C8 C 0.0950(3) 0.1142(3) 0.8687(3)
H3 H 0.1085 0.0596 0.9182
Cu2 Cu 0.54705(4) 0.07056(4) 0.95791(4)
Cu6 Cu 0.04705(4) 0.42944(4) 0.45791(4)
Cu5 Cu 0.45295(4) 0.92944(4) 0.04209(4)
O7 O 0.5677(3) 0.1656(2) 0.0738(2)
O1 O 0.9827(3) 0.4520(2) 0.6439(2)
C6 C 0.9664(3) 0.2486(4) 0.7501(3)
H2 H 0.8946 0.2858 0.7206
C7 C 0.9850(3) 0.1654(4) 0.8225(3)
N1 N 0.8956(3) 0.1239(3) 0.8471(3)
H4 H 0.8932 0.0520 0.8536
C9 C 0.8118(3) 0.1854(4) 0.8620(3)
C10 C 0.8035(4) 0.3018(4) 0.8638(3)
H5 H 0.8570 0.3450 0.8507
N2 N 0.7221(3) 0.3546(3) 0.8837(3)
C11 C 0.6466(4) 0.2904(3) 0.9007(3)
H6 H 0.5886 0.3269 0.9129
N3 N 0.6463(3) 0.1768(3) 0.9018(2)
C12 C 0.7291(3) 0.1257(3) 0.8831(3)
H7 H 0.7321 0.0473 0.8842
Cu3 Cu 0.95295(4) 0.57056(4) 0.54209(4)
O6 O 0.6906(2) 0.9889(2) 0.0443(2)
O5 O 0.5173(3) 0.9520(2) 0.8561(2)
O8 O 0.1131(2) 0.6302(2) 0.6184(2)
O2_2 O 0.1906(2) 0.5111(2) 0.5443(2)
O3_2 O 0.4323(3) 0.8344(2) 0.9262(2)
C1_2 C 0.1968(3) 0.5911(3) 0.6033(3)
C2_2 C 0.3153(3) 0.6435(3) 0.6580(3)
C3_2 C 0.3366(3) 0.7242(3) 0.7338(3)
H1_2 H 0.2782 0.7426 0.7542
C4_2 C 0.4444(3) 0.7760(3) 0.7780(3)
C5_2 C 0.4666(3) 0.8609(3) 0.8602(3)
C6_2 C 0.5336(3) 0.7486(4) 0.7499(3)
H2_2 H 0.6054 0.7858 0.7794
C7_2 C 0.5150(3) 0.6654(4) 0.6775(3)
C8_2 C 0.4050(3) 0.6142(3) 0.6313(3)
H3_2 H 0.3915 0.5596 0.5818
N1_2 N 0.6044(3) 0.6239(3) 0.6529(3)
H4_2 H 0.6068 0.5520 0.6464
C9_2 C 0.6882(3) 0.6854(4) 0.6380(3)
C10_2 C 0.6965(4) 0.8018(4) 0.6362(3)
H5_2 H 0.6430 0.8450 0.6493
N2_2 N 0.7779(3) 0.8546(3) 0.6163(3)
C11_2 C 0.8534(4) 0.7904(3) 0.5993(3)
H6_2 H 0.9114 0.8269 0.5871
N3_2 N 0.8537(3) 0.6768(3) 0.5982(2)
C12_2 C 0.7709(3) 0.6257(3) 0.6169(3)
H7_2 H 0.7679 0.5473 0.6158
O6_2 O 0.8094(2) 0.4889(2) 0.4557(2)
O7_2 O 0.9323(3) 0.6656(2) 0.4262(2)
O5_2 O 0.4827(3) 0.0480(2) 0.1439(2)
O1_2 O 0.0173(3) 0.5480(2) 0.3561(2)
C6_3 C 0.0336(3) 0.7514(4) 0.2499(3)
H2_3 H 0.1054 0.7142 0.2794
C7_3 C 0.0150(3) 0.8346(4) 0.1775(3)
N1_3 N 0.1044(3) 0.8761(3) 0.1529(3)
H4_3 H 0.1068 0.9480 0.1464
C9_3 C 0.1882(3) 0.8146(4) 0.1380(3)
C10_3 C 0.1965(4) 0.6982(4) 0.1362(3)
H5_3 H 0.1430 0.6550 0.1493
N2_3 N 0.2779(3) 0.6454(3) 0.1163(3)
C11_3 C 0.3534(4) 0.7096(3) 0.0993(3)
H6_3 H 0.4114 0.6731 0.0871
N3_3 N 0.3537(3) 0.8232(3) 0.0982(2)
C12_3 C 0.2709(3) 0.8743(3) 0.1169(3)
H7_3 H 0.2679 0.9527 0.1158
O8_2 O 0.6131(2) 0.8698(2) 0.1184(2)
C1_3 C 0.6968(3) 0.9089(3) 0.1033(3)
C2_3 C 0.8153(3) 0.8565(3) 0.1580(3)
C3_3 C 0.8366(3) 0.7758(3) 0.2338(3)
H1_3 H 0.7782 0.7574 0.2542
C4_3 C 0.9444(3) 0.7240(3) 0.2780(3)
C5_3 C 0.9666(3) 0.6391(3) 0.3602(3)
C8_3 C 0.9050(3) 0.8858(3) 0.1313(3)
H3_3 H 0.8915 0.9404 0.0818
O4_2 O 0.8869(2) 0.3698(2) 0.3816(2)
C1_4 C 0.8032(3) 0.4089(3) 0.3967(3)
C2_4 C 0.6847(3) 0.3565(3) 0.3420(3)
C3_4 C 0.6634(3) 0.2758(3) 0.2662(3)
H1_4 H 0.7218 0.2574 0.2458
C4_4 C 0.5556(3) 0.2240(3) 0.2220(3)
C5_4 C 0.5334(3) 0.1391(3) 0.1398(3)
C6_4 C 0.4664(3) 0.2514(4) 0.2501(3)
H2_4 H 0.3946 0.2142 0.2206
C7_4 C 0.4850(3) 0.3346(4) 0.3225(3)
C8_4 C 0.5950(3) 0.3858(3) 0.3687(3)
H3_4 H 0.6085 0.4404 0.4182
N1_4 N 0.3956(3) 0.3761(3) 0.3471(3)
H4_4 H 0.3932 0.4480 0.3536
C9_4 C 0.3118(3) 0.3146(4) 0.3620(3)
C10_4 C 0.3035(4) 0.1982(4) 0.3638(3)
H5_4 H 0.3570 0.1550 0.3507
N2_4 N 0.2221(3) 0.1454(3) 0.3837(3)
C11_4 C 0.1466(4) 0.2096(3) 0.4007(3)
H6_4 H 0.0886 0.1731 0.4129
N3_4 N 0.1463(3) 0.3232(3) 0.4018(2)
C12_4 C 0.2291(3) 0.3743(3) 0.3831(3)
H7_4 H 0.2321 0.4527 0.3842
loop_
_geom_bond_atom_site_label_1
_geom_bond_atom_site_label_2
_geom_bond_site_symmetry_1
_geom_bond_site_symmetry_2
O2 C1 1_555 1_555
O3 C5 1_555 1_555
O4 C1 1_555 1_555
C1 C2 1_555 1_555
C2 C3 1_555 1_555
C3 H1 1_555 1_555
C4 C3 1_555 1_555
C5 C4 1_555 1_555
C8 C2 1_555 1_555
H3 C8 1_555 1_555
Cu2 O4 1_555 1_555
Cu6 O3 1_555 1_555
Cu2 N3 1_555 1_555
H2 C6 1_555 1_555
C7 C6 1_555 1_555
N1 C7 1_555 1_555
H4 N1 1_555 1_555
C9 N1 1_555 1_555
C10 C9 1_555 1_555
H5 C10 1_555 1_555
N2 C10 1_555 1_555
C11 N2 1_555 1_555
H6 C11 1_555 1_555
N3 C11 1_555 1_555
C12 C9 1_555 1_555
H7 C12 1_555 1_555
Cu3 O1 1_555 1_555
N3 C12 1_555 1_555
Cu3 N3_2 1_555 1_555
O5 C5_2 1_555 1_555
O2_2 C1_2 1_555 1_555
O3_2 C5_2 1_555 1_555
O8 C1_2 1_555 1_555
C1_2 C2_2 1_555 1_555
C2_2 C3_2 1_555 1_555
C3_2 H1_2 1_555 1_555
C4_2 C3_2 1_555 1_555
C5_2 C4_2 1_555 1_555
C6_2 C4_2 1_555 1_555
H2_2 C6_2 1_555 1_555
C7_2 C6_2 1_555 1_555
C8_2 C2_2 1_555 1_555
H3_2 C8_2 1_555 1_555
N1_2 C7_2 1_555 1_555
H4_2 N1_2 1_555 1_555
C9_2 N1_2 1_555 1_555
C10_2 C9_2 1_555 1_555
H5_2 C10_2 1_555 1_555
N2_2 C10_2 1_555 1_555
C11_2 N2_2 1_555 1_555
H6_2 C11_2 1_555 1_555
N3_2 C11_2 1_555 1_555
C12_2 C9_2 1_555 1_555
H7_2 C12_2 1_555 1_555
Cu6 O2_2 1_555 1_555
O6_2 Cu3 1_555 1_555
O7_2 Cu3 1_555 1_555
C7_2 C8_2 1_555 1_555
N3_2 C12_2 1_555 1_555
Cu5 N3_3 1_555 1_555
H2_3 C6_3 1_555 1_555
C7_3 C6_3 1_555 1_555
N1_3 C7_3 1_555 1_555
H4_3 N1_3 1_555 1_555
C9_3 N1_3 1_555 1_555
C10_3 C9_3 1_555 1_555
H5_3 C10_3 1_555 1_555
N2_3 C10_3 1_555 1_555
C11_3 N2_3 1_555 1_555
H6_3 C11_3 1_555 1_555
N3_3 C11_3 1_555 1_555
C12_3 C9_3 1_555 1_555
H7_3 C12_3 1_555 1_555
Cu6 O1_2 1_555 1_555
O8_2 Cu5 1_555 1_555
N3_3 C12_3 1_555 1_555
O6 C1_3 1_555 1_555
O7_2 C5_3 1_555 1_555
O8_2 C1_3 1_555 1_555
C1_3 C2_3 1_555 1_555
C2_3 C3_3 1_555 1_555
C3_3 H1_3 1_555 1_555
C4_3 C3_3 1_555 1_555
C5_3 C4_3 1_555 1_555
C8_3 C2_3 1_555 1_555
H3_3 C8_3 1_555 1_555
Cu6 N3_4 1_555 1_555
O5_2 C5_4 1_555 1_555
O6_2 C1_4 1_555 1_555
O7 C5_4 1_555 1_555
O4_2 C1_4 1_555 1_555
C1_4 C2_4 1_555 1_555
C2_4 C3_4 1_555 1_555
C3_4 H1_4 1_555 1_555
C4_4 C3_4 1_555 1_555
C5_4 C4_4 1_555 1_555
C6_4 C4_4 1_555 1_555
H2_4 C6_4 1_555 1_555
C7_4 C6_4 1_555 1_555
C8_4 C2_4 1_555 1_555
H3_4 C8_4 1_555 1_555
N1_4 C7_4 1_555 1_555
H4_4 N1_4 1_555 1_555
C9_4 N1_4 1_555 1_555
C10_4 C9_4 1_555 1_555
H5_4 C10_4 1_555 1_555
N2_4 C10_4 1_555 1_555
C11_4 N2_4 1_555 1_555
H6_4 C11_4 1_555 1_555
N3_4 C11_4 1_555 1_555
C12_4 C9_4 1_555 1_555
H7_4 C12_4 1_555 1_555
C7_4 C8_4 1_555 1_555
N3_4 C12_4 1_555 1_555

#END
