
###############################################################################
#
# This file contains modified crystal structure data generated from the
# MOF subset of the Cambridge Structural Database (CSD) v543 
# hosted by the Cambridge Crystallographic Data Centre (CCDC).
#
# This work is licensed under the Creative Commons
# Attribution-NonCommercial-ShareAlike 4.0 International License.
# To view a copy of this license, visit
# http://creativecommons.org/licenses/by-nc-sa/4.0/
# or send a letter to
# Creative Commons, PO Box 1866, Mountain View, CA 94042, USA.
#
# CIF created using the CSD Python API on 29 September 2022
# The structure has been converted into the P1 space group
# The structure has a 3D framework
# The original CSD entry HUCXIO is in the monoclinic crystal system
# The framework has been calculated to contain at least 10.0% void space
# The void calculation uses a probe of radius 1.32A, grid spacing 0.4
#
###############################################################################

data_HUCXIO
_chemical_formula_moiety         '(C100 H84 Dy4 N16 O22)n'
_symmetry_cell_setting           triclinic
_symmetry_space_group_name_H-M   'P 1'
_symmetry_Int_Tables_number      1
_space_group_name_Hall           'P 1'
loop_
_symmetry_equiv_pos_site_id
_symmetry_equiv_pos_as_xyz
1 x,y,z
_cell_length_a                   16.2078(5)
_cell_length_b                   8.7082(3)
_cell_length_c                   20.8775(6)
_cell_angle_alpha                90
_cell_angle_beta                 94.748(3)
_cell_angle_gamma                90
_cell_volume                     2936.55
loop_
_atom_site_label
_atom_site_type_symbol
_atom_site_fract_x
_atom_site_fract_y
_atom_site_fract_z
O3 O 0.1793(3) 0.5396(6) 0.8389(2)
O4 O 0.1785(3) 0.3015(6) 0.8010(2)
C15 C 0.1433(4) 0.4173(9) 0.8222(4)
C16 C 0.0516(4) 0.4073(10) 0.8261(4)
C17 C 0.0098(5) 0.5181(11) 0.8592(4)
H9 H 0.0386 0.5952 0.8824
C21 C 0.0079(5) 0.2933(12) 0.7929(5)
H12 H 0.0356 0.2193 0.7707
Dy3 Dy 0.242724(19) 0.22225(4) 0.712689(17)
Dy5 Dy 0.257276(19) 0.72225(4) 0.787311(17)
O1 O 0.1276(3) 0.3581(6) 0.6627(2)
O2 O 0.3674(3) 0.3226(6) 0.7488(3)
O5 O 0.3621(3) 0.5473(6) 0.7994(3)
O6 O 0.2129(3) 0.5355(6) 0.7054(2)
O7 O 0.2787(3) 0.3206(7) 0.6140(3)
N2 N 0.7557(5) 0.4580(11) 0.8411(4)
N3 N 0.7838(5) 0.3609(12) 0.8109(5)
N4 N 0.3516(7) 0.2752(13) 0.5299(6)
C1 C 0.1528(4) 0.4948(10) 0.6654(4)
C2 C 0.1110(4) 0.6104(9) 0.6205(4)
C3 C 0.1488(5) 0.7509(9) 0.6098(4)
H1 H 0.2008 0.7718 0.6301
C4 C 0.1103(4) 0.8590(9) 0.5698(4)
H2 H 0.1358 0.9528 0.5634
C5 C 0.0322(5) 0.8264(9) 0.5387(4)
C7 C 0.0349(5) 0.5747(9) 0.5872(4)
H4 H 0.0110 0.4787 0.5921
C8 C 0.3999(4) 0.4339(9) 0.7807(4)
C9 C 0.4922(4) 0.4260(9) 0.7974(4)
C10 C 0.5309(5) 0.5388(11) 0.8371(4)
H5 H 0.4992 0.6146 0.8546
C11 C 0.6165(6) 0.5385(14) 0.8506(5)
H6 H 0.6420 0.6121 0.8778
C12 C 0.6618(7) 0.4299(14) 0.8238(6)
C13 C 0.6258(6) 0.3125(13) 0.7860(6)
H7 H 0.6580 0.2356 0.7698
C14 C 0.5386(5) 0.3133(11) 0.7729(5)
H8 H 0.5130 0.2366 0.7474
C18 C 0.9214(6) 0.5100(13) 0.8566(5)
H10 H 0.8922 0.5835 0.8778
C19 C 0.8797(6) 0.3952(15) 0.8233(5)
C20 C 0.9216(7) 0.2886(13) 0.7926(6)
H11 H 0.8926 0.2099 0.7707
C22 C 0.3391(6) 0.3380(13) 0.5806(5)
C23 C 0.4133(7) 0.4519(14) 0.6061(6)
H13 H 0.3958 0.5137 0.6405
H14 H 0.4274 0.5172 0.5716
H15 H 0.4608 0.3924 0.6213
C24 C 0.4227(7) 0.2902(14) 0.4911(6)
H16 H 0.4136 0.3749 0.4619
H17 H 0.4289 0.1974 0.4672
H18 H 0.4720 0.3081 0.5189
C25 C 0.2769(8) 0.1713(16) 0.5075(6)
H19 H 0.2899 0.0664 0.5182
H20 H 0.2653 0.1807 0.4618
H21 H 0.2293 0.2026 0.5286
O15 O 0.3207(3) 0.0396(6) 0.6611(2)
O19 O 0.1379(3) 0.0473(6) 0.7006(3)
O21 O 0.2871(3) 0.0355(6) 0.7946(2)
C2_2 C 0.3890(4) 0.1104(9) 0.8795(4)
C3_2 C 0.3512(5) 0.2509(9) 0.8902(4)
H1_2 H 0.2992 0.2718 0.8699
C4_2 C 0.3897(4) 0.3590(9) 0.9302(4)
H2_2 H 0.3642 0.4528 0.9366
C5_2 C 0.4678(5) 0.3264(9) 0.9613(4)
C6 C 0.5045(5) 0.1824(10) 0.9527(4)
H3 H 0.5557 0.1598 0.9742
C7_2 C 0.4651(5) 0.0747(9) 0.9128(4)
H5_2 H 0.0008 0.1146 0.6454
H13_2 H 0.1042 0.0137 0.8595
H14_2 H 0.0726 0.0172 0.9284
N5 N 0.4852(4) 0.5658(7) 0.9995(3)
O1_2 O 0.3724(3) 0.8581(6) 0.8373(2)
O2_2 O 0.1326(3) 0.8226(6) 0.7512(3)
O7_2 O 0.2213(3) 0.8206(7) 0.8860(3)
N4_2 N 0.1484(7) 0.7752(13) 0.9701(6)
C1_2 C 0.3472(4) 0.9948(10) 0.8346(4)
H4_2 H 0.4890 0.9787 0.9079
C8_2 C 0.1001(4) 0.9339(9) 0.7193(4)
C9_2 C 0.0078(4) 0.9260(9) 0.7026(4)
C22_2 C 0.1609(6) 0.8380(13) 0.9194(5)
C23_2 C 0.0867(7) 0.9519(14) 0.8939(6)
H15_2 H 0.0392 0.8924 0.8787
H18_2 H 0.0280 0.8081 0.9811
C25_2 C 0.2231(8) 0.6713(16) 0.9925(6)
H19_2 H 0.2101 0.5664 0.9818
H21_2 H 0.2707 0.7026 0.9714
O17 O 0.3215(3) 0.8015(6) 0.6990(2)
C10_2 C 0.9691(5) 0.0388(11) 0.6629(4)
C11_2 C 0.8835(6) 0.0385(14) 0.6494(5)
H6_2 H 0.8580 0.1121 0.6222
C17_2 C 0.4902(5) 0.0181(11) 0.6408(4)
H9_2 H 0.4614 0.0952 0.6176
C18_2 C 0.5786(6) 0.0100(13) 0.6434(5)
H10_2 H 0.6078 0.0835 0.6222
N2_2 N 0.7443(5) 0.9580(11) 0.6589(4)
N3_2 N 0.7162(5) 0.8609(12) 0.6891(5)
C12_2 C 0.8382(7) 0.9299(14) 0.6762(6)
C13_2 C 0.8742(6) 0.8125(13) 0.7140(6)
H7_2 H 0.8420 0.7356 0.7302
C14_2 C 0.9614(5) 0.8133(11) 0.7271(5)
H8_2 H 0.9870 0.7366 0.7526
C15_2 C 0.3567(4) 0.9173(9) 0.6778(4)
C16_2 C 0.4484(4) 0.9073(10) 0.6739(4)
C19_2 C 0.6203(6) 0.8952(15) 0.6767(5)
C20_2 C 0.5784(7) 0.7886(13) 0.7074(6)
H11_2 H 0.6074 0.7099 0.7293
C21_2 C 0.4921(5) 0.7933(12) 0.7071(5)
H12_2 H 0.4644 0.7193 0.7293
N5_2 N 0.0148(4) 0.0658(7) 0.5005(3)
C31 C 0.0045(5) 0.3176(10) 0.4527(4)
H24 H 0.0557 0.3402 0.4742
O8 O 0.8724(3) 0.6419(6) 0.3373(2)
C26 C 0.8472(4) 0.5052(10) 0.3346(4)
C27 C 0.8890(4) 0.3896(9) 0.3795(4)
C28 C 0.8512(5) 0.2491(9) 0.3902(4)
H22 H 0.7992 0.2282 0.3699
C29 C 0.8897(4) 0.1410(9) 0.4302(4)
H23 H 0.8642 0.0472 0.4366
C30 C 0.9678(5) 0.1736(9) 0.4613(4)
C32 C 0.9651(5) 0.4253(9) 0.4128(4)
H25 H 0.9890 0.5213 0.4079
O9 O 0.7871(3) 0.4645(6) 0.2946(2)
Dy2 Dy 0.757276(19) 0.77775(4) 0.287311(17)
O10 O 0.6326(3) 0.6774(6) 0.2512(3)
O13 O 0.6379(3) 0.4527(6) 0.2006(3)
O14 O 0.7213(3) 0.6794(7) 0.3860(3)
N6 N 0.2443(5) 0.5420(11) 0.1589(4)
N7 N 0.2162(5) 0.6391(12) 0.1891(5)
N8 N 0.6484(7) 0.7248(13) 0.4701(6)
C33 C 0.6001(4) 0.5661(9) 0.2193(4)
C34 C 0.5078(4) 0.5740(9) 0.2026(4)
C35 C 0.4691(5) 0.4612(11) 0.1629(4)
H26 H 0.5008 0.3854 0.1454
C36 C 0.3835(6) 0.4615(14) 0.1494(5)
H27 H 0.3580 0.3879 0.1222
C37 C 0.3382(7) 0.5701(14) 0.1762(6)
C38 C 0.3742(6) 0.6875(13) 0.2140(6)
H28 H 0.3420 0.7644 0.2302
C39 C 0.4614(5) 0.6867(11) 0.2271(5)
H29 H 0.4870 0.7634 0.2526
C43 C 0.0786(6) 0.4900(13) 0.1434(5)
H31 H 0.1078 0.4165 0.1222
C44 C 0.1203(6) 0.6048(15) 0.1767(5)
C45 C 0.0784(7) 0.7114(13) 0.2074(6)
H32 H 0.1074 0.7901 0.2293
C47 C 0.6609(6) 0.6620(13) 0.4194(5)
C48 C 0.5867(7) 0.5481(14) 0.3939(6)
H34 H 0.6042 0.4863 0.3595
H35 H 0.5726 0.4828 0.4284
H36 H 0.5392 0.6076 0.3787
C49 C 0.5773(7) 0.7098(14) 0.5089(6)
H37 H 0.5864 0.6251 0.5381
H38 H 0.5711 0.8026 0.5328
H39 H 0.5280 0.6919 0.4811
C50 C 0.7231(8) 0.8287(16) 0.4925(6)
H40 H 0.7101 0.9336 0.4818
H41 H 0.7347 0.8193 0.5382
H42 H 0.7707 0.7974 0.4714
Dy8 Dy 0.742724(19) 0.27775(4) 0.212689(17)
O16 O 0.6793(3) 0.9604(6) 0.3389(2)
O18 O 0.8215(3) 0.6985(6) 0.1990(2)
O20 O 0.8621(3) 0.9527(6) 0.2994(3)
O22 O 0.7129(3) 0.9645(6) 0.2054(2)
O11 O 0.8207(3) 0.4604(6) 0.1611(2)
C40 C 0.8567(4) 0.5827(9) 0.1778(4)
C41 C 0.9484(4) 0.5927(10) 0.1739(4)
C42 C 0.9902(5) 0.4819(11) 0.1408(4)
H30 H 0.9614 0.4048 0.1176
C46 C 0.9921(5) 0.7067(12) 0.2071(5)
H33 H 0.9644 0.7807 0.2293
O12 O 0.6785(3) 0.1985(6) 0.3010(2)
N6_2 N 0.2557(5) 0.0420(11) 0.3411(4)
N7_2 N 0.2838(5) 0.1391(12) 0.3109(5)
C37_2 C 0.1618(7) 0.0701(14) 0.3238(6)
C38_2 C 0.1258(6) 0.1875(13) 0.2860(6)
H28_2 H 0.1580 0.2644 0.2698
C39_2 C 0.0386(5) 0.1867(11) 0.2729(5)
H29_2 H 0.0130 0.2634 0.2474
C40_2 C 0.6433(4) 0.0827(9) 0.3222(4)
C41_2 C 0.5516(4) 0.0927(10) 0.3261(4)
C44_2 C 0.3797(6) 0.1048(15) 0.3233(5)
C45_2 C 0.4216(7) 0.2114(13) 0.2926(6)
H32_2 H 0.3926 0.2901 0.2707
C46_2 C 0.5079(5) 0.2067(12) 0.2929(5)
H33_2 H 0.5356 0.2807 0.2707
C35_2 C 0.0309(5) 0.9612(11) 0.3371(4)
C36_2 C 0.1165(6) 0.9615(14) 0.3506(5)
H27_2 H 0.1420 0.8879 0.3778
C42_2 C 0.5098(5) 0.9819(11) 0.3592(4)
H30_2 H 0.5386 0.9048 0.3824
C43_2 C 0.4214(6) 0.9900(13) 0.3566(5)
H31_2 H 0.3922 0.9165 0.3778
O8_2 O 0.6276(3) 0.1419(6) 0.1627(2)
C26_2 C 0.6528(4) 0.0052(10) 0.1654(4)
H25_2 H 0.5110 0.0213 0.0921
O10_2 O 0.8674(3) 0.1774(6) 0.2488(3)
O14_2 O 0.7787(3) 0.1794(7) 0.1140(3)
N8_2 N 0.8516(7) 0.2248(13) 0.0299(6)
C33_2 C 0.8999(4) 0.0661(9) 0.2807(4)
C34_2 C 0.9922(4) 0.0740(9) 0.2974(4)
C47_2 C 0.8391(6) 0.1620(13) 0.0806(5)
C48_2 C 0.9133(7) 0.0481(14) 0.1061(6)
H36_2 H 0.9608 0.1076 0.1213
H39_2 H 0.9720 0.1919 0.0189
C50_2 C 0.7769(8) 0.3287(16) 0.0075(6)
H40_2 H 0.7899 0.4336 0.0182
H42_2 H 0.7293 0.2974 0.0286
N1 N 0.5148(4) 0.4342(7) 0.0005(3)
C27_2 C 0.6110(4) 0.8896(9) 0.1205(4)
C28_2 C 0.6488(5) 0.7491(9) 0.1098(4)
H22_2 H 0.7008 0.7282 0.1301
C29_2 C 0.6103(4) 0.6410(9) 0.0698(4)
H23_2 H 0.6358 0.5472 0.0634
C30_2 C 0.5322(5) 0.6736(9) 0.0387(4)
C31_2 C 0.4955(5) 0.8176(10) 0.0473(4)
H24_2 H 0.4443 0.8402 0.0258
C32_2 C 0.5349(5) 0.9253(9) 0.0872(4)
H26_2 H 0.9992 0.8854 0.3546
H34_2 H 0.8958 0.9863 0.1405
H35_2 H 0.9274 0.9828 0.0716
N1_2 N 0.9852(4) 0.9342(7) 0.4995(3)
C6_2 C 0.9955(5) 0.6824(10) 0.5473(4)
H3_2 H 0.9443 0.6598 0.5258
C49_2 C 0.9227(7) 0.2098(14) 0.9911(6)
H37_2 H 0.9136 0.1251 0.9619
H38_2 H 0.9289 0.3026 0.9672
H41_2 H 0.7653 0.3193 0.9618
C24_2 C 0.0773(7) 0.7902(14) 0.0089(6)
H16_2 H 0.0864 0.8749 0.0381
H17_2 H 0.0711 0.6974 0.0328
H20_2 H 0.2347 0.6807 0.0382
loop_
_geom_bond_atom_site_label_1
_geom_bond_atom_site_label_2
_geom_bond_site_symmetry_1
_geom_bond_site_symmetry_2
O3 C15 1_555 1_555
O4 C15 1_555 1_555
C15 C16 1_555 1_555
C16 C17 1_555 1_555
C17 H9 1_555 1_555
C21 C16 1_555 1_555
H12 C21 1_555 1_555
Dy3 O4 1_555 1_555
Dy5 O3 1_555 1_555
Dy3 O1 1_555 1_555
O1 C1 1_555 1_555
O2 Dy3 1_555 1_555
O5 C8 1_555 1_555
O6 Dy3 1_555 1_555
O7 Dy3 1_555 1_555
N2 N3 1_555 1_555
N3 C19 1_555 1_555
N4 C22 1_555 1_555
C1 O6 1_555 1_555
C2 C1 1_555 1_555
C3 C2 1_555 1_555
H1 C3 1_555 1_555
C4 C3 1_555 1_555
H2 C4 1_555 1_555
C5 C4 1_555 1_555
C7 C2 1_555 1_555
H4 C7 1_555 1_555
C8 O2 1_555 1_555
C9 C8 1_555 1_555
C10 C9 1_555 1_555
H5 C10 1_555 1_555
C11 C10 1_555 1_555
H6 C11 1_555 1_555
C12 N2 1_555 1_555
C13 C12 1_555 1_555
H7 C13 1_555 1_555
C14 C9 1_555 1_555
H8 C14 1_555 1_555
H10 C18 1_555 1_555
C19 C18 1_555 1_555
C20 C19 1_555 1_555
H11 C20 1_555 1_555
C22 O7 1_555 1_555
C23 C22 1_555 1_555
H13 C23 1_555 1_555
H14 C23 1_555 1_555
H15 C23 1_555 1_555
C24 N4 1_555 1_555
H16 C24 1_555 1_555
H17 C24 1_555 1_555
H18 C24 1_555 1_555
C25 N4 1_555 1_555
H19 C25 1_555 1_555
H20 C25 1_555 1_555
H21 C25 1_555 1_555
Dy5 O5 1_555 1_555
O15 Dy3 1_555 1_555
O19 Dy3 1_555 1_555
O21 Dy3 1_555 1_555
O6 Dy5 1_555 1_555
C11 C12 1_555 1_555
C13 C14 1_555 1_555
C3_2 C2_2 1_555 1_555
H1_2 C3_2 1_555 1_555
C4_2 C3_2 1_555 1_555
H2_2 C4_2 1_555 1_555
C5_2 C4_2 1_555 1_555
C6 C5_2 1_555 1_555
H3 C6 1_555 1_555
C7_2 C2_2 1_555 1_555
C6 C7_2 1_555 1_555
Dy5 O1_2 1_555 1_555
O1_2 C1_2 1_555 1_555
O2_2 Dy5 1_555 1_555
O7_2 Dy5 1_555 1_555
N4_2 C22_2 1_555 1_555
C8_2 O2_2 1_555 1_555
C9_2 C8_2 1_555 1_555
C22_2 O7_2 1_555 1_555
C23_2 C22_2 1_555 1_555
H15_2 C23_2 1_555 1_555
C25_2 N4_2 1_555 1_555
H19_2 C25_2 1_555 1_555
H21_2 C25_2 1_555 1_555
O17 Dy5 1_555 1_555
C11_2 C10_2 1_555 1_555
H6_2 C11_2 1_555 1_555
C17_2 H9_2 1_555 1_555
C18_2 C17_2 1_555 1_555
H10_2 C18_2 1_555 1_555
O17 C15_2 1_555 1_555
N2_2 N3_2 1_555 1_555
N3_2 C19_2 1_555 1_555
C12_2 N2_2 1_555 1_555
C13_2 C12_2 1_555 1_555
H7_2 C13_2 1_555 1_555
H8_2 C14_2 1_555 1_555
C15_2 C16_2 1_555 1_555
C20_2 C19_2 1_555 1_555
H11_2 C20_2 1_555 1_555
C21_2 C16_2 1_555 1_555
H12_2 C21_2 1_555 1_555
C13_2 C14_2 1_555 1_555
C20_2 C21_2 1_555 1_555
H24 C31 1_555 1_555
O8 C26 1_555 1_555
C26 C27 1_555 1_555
C27 C28 1_555 1_555
C28 H22 1_555 1_555
C29 C28 1_555 1_555
H23 C29 1_555 1_555
C32 C27 1_555 1_555
H25 C32 1_555 1_555
O9 C26 1_555 1_555
Dy2 O8 1_555 1_555
O10 Dy2 1_555 1_555
O13 C33 1_555 1_555
O14 Dy2 1_555 1_555
N6 N7 1_555 1_555
N7 C44 1_555 1_555
N8 C47 1_555 1_555
C33 O10 1_555 1_555
C34 C33 1_555 1_555
C35 C34 1_555 1_555
H26 C35 1_555 1_555
C36 C35 1_555 1_555
H27 C36 1_555 1_555
C37 N6 1_555 1_555
C38 C37 1_555 1_555
H28 C38 1_555 1_555
C39 C34 1_555 1_555
H29 C39 1_555 1_555
H31 C43 1_555 1_555
C44 C43 1_555 1_555
C45 C44 1_555 1_555
H32 C45 1_555 1_555
C47 O14 1_555 1_555
C48 C47 1_555 1_555
H34 C48 1_555 1_555
H35 C48 1_555 1_555
H36 C48 1_555 1_555
C49 N8 1_555 1_555
H37 C49 1_555 1_555
H38 C49 1_555 1_555
H39 C49 1_555 1_555
C50 N8 1_555 1_555
H40 C50 1_555 1_555
H41 C50 1_555 1_555
H42 C50 1_555 1_555
Dy8 O9 1_555 1_555
O16 Dy2 1_555 1_555
O18 Dy2 1_555 1_555
O20 Dy2 1_555 1_555
O22 Dy2 1_555 1_555
C29 C30 1_555 1_555
O9 Dy2 1_555 1_555
O13 Dy8 1_555 1_555
C36 C37 1_555 1_555
C38 C39 1_555 1_555
O11 C40 1_555 1_555
O18 C40 1_555 1_555
C40 C41 1_555 1_555
C41 C42 1_555 1_555
C42 H30 1_555 1_555
C46 C41 1_555 1_555
H33 C46 1_555 1_555
Dy8 O11 1_555 1_555
O12 C40_2 1_555 1_555
N6_2 N7_2 1_555 1_555
N7_2 C44_2 1_555 1_555
C37_2 N6_2 1_555 1_555
C38_2 C37_2 1_555 1_555
H28_2 C38_2 1_555 1_555
H29_2 C39_2 1_555 1_555
C40_2 C41_2 1_555 1_555
C45_2 C44_2 1_555 1_555
H32_2 C45_2 1_555 1_555
C46_2 C41_2 1_555 1_555
H33_2 C46_2 1_555 1_555
Dy8 O12 1_555 1_555
C38_2 C39_2 1_555 1_555
C45_2 C46_2 1_555 1_555
C36_2 C35_2 1_555 1_555
H27_2 C36_2 1_555 1_555
C42_2 H30_2 1_555 1_555
C43_2 C42_2 1_555 1_555
H31_2 C43_2 1_555 1_555
O8_2 C26_2 1_555 1_555
Dy8 O8_2 1_555 1_555
O10_2 Dy8 1_555 1_555
O14_2 Dy8 1_555 1_555
N8_2 C47_2 1_555 1_555
C33_2 O10_2 1_555 1_555
C34_2 C33_2 1_555 1_555
C47_2 O14_2 1_555 1_555
C48_2 C47_2 1_555 1_555
H36_2 C48_2 1_555 1_555
C50_2 N8_2 1_555 1_555
H40_2 C50_2 1_555 1_555
H42_2 C50_2 1_555 1_555
C27_2 C28_2 1_555 1_555
C28_2 H22_2 1_555 1_555
C29_2 C28_2 1_555 1_555
H23_2 C29_2 1_555 1_555
C31_2 C30_2 1_555 1_555
H24_2 C31_2 1_555 1_555
C32_2 C27_2 1_555 1_555
C29_2 C30_2 1_555 1_555
C31_2 C32_2 1_555 1_555
H3_2 C6_2 1_555 1_555
H37_2 C49_2 1_555 1_555
H38_2 C49_2 1_555 1_555
H16_2 C24_2 1_555 1_555
H17_2 C24_2 1_555 1_555

#END
