
###############################################################################
#
# This file contains modified crystal structure data generated from the
# MOF subset of the Cambridge Structural Database (CSD) v543 
# hosted by the Cambridge Crystallographic Data Centre (CCDC).
#
# This work is licensed under the Creative Commons
# Attribution-NonCommercial-ShareAlike 4.0 International License.
# To view a copy of this license, visit
# http://creativecommons.org/licenses/by-nc-sa/4.0/
# or send a letter to
# Creative Commons, PO Box 1866, Mountain View, CA 94042, USA.
#
# CIF created using the CSD Python API on 29 September 2022
# The structure has been converted into the P1 space group
# The structure has a 3D framework
# The original CSD entry HUGLUS is in the monoclinic crystal system
# The framework has been calculated to contain at least 10.0% void space
# The void calculation uses a probe of radius 1.32A, grid spacing 0.4
#
###############################################################################

data_HUGLUS
_chemical_formula_moiety         '(C136 H64 F48 Ga11 O33)n'
_symmetry_cell_setting           triclinic
_symmetry_space_group_name_H-M   'P 1'
_symmetry_Int_Tables_number      1
_space_group_name_Hall           'P 1'
loop_
_symmetry_equiv_pos_site_id
_symmetry_equiv_pos_as_xyz
1 x,y,z
_cell_length_a                   25.097(6)
_cell_length_b                   12.774(4)
_cell_length_c                   12.636(3)
_cell_angle_alpha                90
_cell_angle_beta                 108.232(11)
_cell_angle_gamma                90
_cell_volume                     3847.59
loop_
_atom_site_label
_atom_site_type_symbol
_atom_site_fract_x
_atom_site_fract_y
_atom_site_fract_z
C1 C 0.4644(3) 0.2853(7) 0.5379(8)
C2 C 0.4346(4) 0.1883(8) 0.4870(8)
C3 C 0.3946(4) 0.1902(8) 0.3849(8)
H1 H 0.3887 0.2518 0.3436
C4 C 0.4445(4) 0.0937(8) 0.5428(8)
H2 H 0.4722 0.0896 0.6117
C5 C 0.3629(4) 0.1039(8) 0.3415(7)
H3 H 0.3349 0.1089 0.2731
C6 C 0.4141(4) 0.0050(8) 0.4983(8)
C7 C 0.3718(4) 0.0097(8) 0.3976(8)
C12 C 0.2502(4) 0.0094(8) 0.3658(8)
H5 H 0.2726 0.0240 0.4382
C15 C 0.1957(4) 0.0439(8) 0.3309(8)
H8 H 0.1815 0.0818 0.3790
C16 C 0.1621(4) 0.0223(7) 0.2243(7)
C17 C 0.1016(4) 0.0569(7) 0.1857(7)
Ga1 Ga 0.0000 0.09507(12) 0.2500
Ga2 Ga 0.0000 0.0000 0.0000
O1 O 0.4813(2) 0.2898(4) 0.6441(4)
O2 O 0.4703(3) 0.3554(5) 0.4721(5)
O3 O 0.0806(2) 0.0876(5) 0.2568(5)
O4 O 0.0768(2) 0.0481(5) 0.0830(5)
Ga4 Ga 0.5000 0.40493(12) 0.7500
Ga5 Ga 0.0000 -0.0000 0.5000
Ga7 Ga 0.5000 0.5000 0.5000
O11 O 0.0187(2) 0.2102(4) 0.3559(4)
Ga2_2 Ga 0.0000 -0.0000 1.0000
O16 O 0.0187(2) 0.0094(4) 0.8646(4)
H4 H 0.4221 0.9418 0.5365
C8 C 0.3343(4) 0.9162(8) 0.3427(8)
C9 C 0.3571(5) 0.8746(10) 0.2545(11)
C10 C 0.3368(5) 0.8268(9) 0.4233(11)
C11 C 0.2727(4) 0.9533(7) 0.2962(8)
C13 C 0.2380(4) 0.9297(8) 0.1912(8)
H6 H 0.2514 0.8885 0.1443
C14 C 0.1829(4) 0.9670(8) 0.1540(8)
H7 H 0.1604 0.9539 0.0813
F1 F 0.4128(2) 0.8587(5) 0.2910(6)
F2 F 0.3491(2) 0.9418(5) 0.1686(6)
F3 F 0.3342(2) 0.7848(5) 0.2078(6)
F4 F 0.3851(3) 0.7750(5) 0.4572(6)
F5 F 0.3267(3) 0.8598(5) 0.5174(6)
F6 F 0.2972(3) 0.7553(5) 0.3803(6)
Ga2_3 Ga 0.0000 1.0000 0.0000
O10 O 0.0187(2) 0.9906(4) 0.3646(4)
Ga5_2 Ga 0.0000 1.0000 0.5000
O13 O 0.0297(3) 0.8554(5) 0.0279(5)
Ga2_4 Ga 0.0000 1.0000 1.0000
Ga1_2 Ga 1.0000 0.09507(12) 0.2500
Ga2_5 Ga 1.0000 0.0000 0.0000
C19 C 0.5654(4) 0.1883(8) 0.0130(8)
C20 C 0.6054(4) 0.1902(8) 0.1151(8)
H9 H 0.6113 0.2518 0.1564
C22 C 0.6371(4) 0.1039(8) 0.1585(7)
H11 H 0.6651 0.1089 0.2269
C23 C 0.5859(4) 0.0050(8) 0.0017(8)
C24 C 0.6282(4) 0.0097(8) 0.1024(8)
C29 C 0.7498(4) 0.0094(8) 0.1342(8)
H13 H 0.7274 0.0240 0.0618
C32 C 0.8043(4) 0.0439(8) 0.1691(8)
H16 H 0.8185 0.0818 0.1210
C33 C 0.8379(4) 0.0223(7) 0.2757(7)
C34 C 0.8984(4) 0.0569(7) 0.3143(7)
O7 O 0.5297(3) 0.3554(5) 0.0279(5)
O8 O 0.9194(2) 0.0876(5) 0.2432(5)
O9 O 0.9232(2) 0.0481(5) 0.4170(5)
Ga5_3 Ga 1.0000 -0.0000 0.5000
Ga6 Ga 0.5000 0.5000 0.0000
O12 O 0.9813(2) 0.2102(4) 0.1441(4)
Ga2_6 Ga 1.0000 -0.0000 1.0000
C18 C 0.5356(3) 0.2853(7) 0.9621(8)
C21 C 0.5555(4) 0.0937(8) 0.9572(8)
H10 H 0.5278 0.0896 0.8883
O6 O 0.5187(2) 0.2898(4) 0.8559(4)
Ga6_2 Ga 0.5000 0.5000 1.0000
O14 O 0.9703(3) 0.1446(5) 0.9721(5)
Ga2_7 Ga 1.0000 1.0000 0.0000
O5 O 0.9813(2) 0.9906(4) 0.1354(4)
C25 C 0.6657(4) 0.9162(8) 0.1573(8)
C26 C 0.6429(5) 0.8746(10) 0.2455(11)
C27 C 0.6632(5) 0.8268(9) 0.0767(11)
C28 C 0.7273(4) 0.9533(7) 0.2038(8)
C30 C 0.7620(4) 0.9297(8) 0.3088(8)
H14 H 0.7486 0.8885 0.3557
C31 C 0.8171(4) 0.9670(8) 0.3460(8)
H15 H 0.8396 0.9539 0.4187
F7 F 0.5872(2) 0.8587(5) 0.2090(6)
F8 F 0.6509(2) 0.9418(5) 0.3314(6)
F9 F 0.6658(2) 0.7848(5) 0.2922(6)
F10 F 0.6149(3) 0.7750(5) 0.0428(6)
F12 F 0.7028(3) 0.7553(5) 0.1197(6)
Ga5_4 Ga 1.0000 1.0000 0.5000
Ga2_8 Ga 1.0000 1.0000 1.0000
H12 H 0.5779 0.9418 0.9635
F11 F 0.6733(3) 0.8598(5) 0.9826(6)
O15 O 0.9232(2) 0.9519(5) 0.9170(5)
O14_2 O 0.0297(3) 0.1446(5) 0.5279(5)
O15_2 O 0.0768(2) 0.9519(5) 0.5830(5)
O16_2 O 0.9813(2) 0.0094(4) 0.6354(4)
O13_2 O 0.9703(3) 0.8554(5) 0.4721(5)
Ga4_2 Ga -0.0000 0.90493(12) 0.7500
C1_2 C 0.9644(3) 0.7853(7) 0.5379(8)
C2_2 C 0.9346(4) 0.6883(8) 0.4870(8)
C3_2 C 0.8946(4) 0.6902(8) 0.3849(8)
H1_2 H 0.8887 0.7518 0.3436
C4_2 C 0.9445(4) 0.5937(8) 0.5428(8)
H2_2 H 0.9722 0.5896 0.6117
C5_2 C 0.8629(4) 0.6039(8) 0.3415(7)
H3_2 H 0.8349 0.6089 0.2731
C6_2 C 0.9141(4) 0.5050(8) 0.4983(8)
H4_2 H 0.9221 0.4418 0.5365
C7_2 C 0.8718(4) 0.5097(8) 0.3976(8)
C8_2 C 0.8343(4) 0.4162(8) 0.3427(8)
C9_2 C 0.8571(5) 0.3746(10) 0.2545(11)
C10_2 C 0.8368(5) 0.3268(9) 0.4233(11)
C11_2 C 0.7727(4) 0.4533(7) 0.2962(8)
C12_2 C 0.7502(4) 0.5094(8) 0.3658(8)
H5_2 H 0.7726 0.5240 0.4382
C13_2 C 0.7380(4) 0.4297(8) 0.1912(8)
H6_2 H 0.7514 0.3885 0.1443
C14_2 C 0.6829(4) 0.4670(8) 0.1540(8)
H7_2 H 0.6604 0.4539 0.0813
C15_2 C 0.6957(4) 0.5439(8) 0.3309(8)
H8_2 H 0.6815 0.5818 0.3790
C16_2 C 0.6621(4) 0.5223(7) 0.2243(7)
C17_2 C 0.6016(4) 0.5569(7) 0.1857(7)
F1_2 F 0.9128(2) 0.3587(5) 0.2910(6)
F2_2 F 0.8491(2) 0.4418(5) 0.1686(6)
F3_2 F 0.8342(2) 0.2848(5) 0.2078(6)
F4_2 F 0.8851(3) 0.2750(5) 0.4572(6)
F5_2 F 0.8267(3) 0.3598(5) 0.5174(6)
F6_2 F 0.7972(3) 0.2553(5) 0.3803(6)
Ga1_3 Ga 0.5000 0.59507(12) 0.2500
O1_2 O 0.9813(2) 0.7898(4) 0.6441(4)
O3_2 O 0.5806(2) 0.5876(5) 0.2568(5)
O4_2 O 0.5768(2) 0.5481(5) 0.0830(5)
O5_2 O 0.4813(2) 0.4906(4) 0.1354(4)
C19_2 C 0.0654(4) 0.6883(8) 0.0130(8)
C20_2 C 0.1054(4) 0.6902(8) 0.1151(8)
H9_2 H 0.1113 0.7518 0.1564
C22_2 C 0.1371(4) 0.6039(8) 0.1585(7)
H11_2 H 0.1651 0.6089 0.2269
C23_2 C 0.0859(4) 0.5050(8) 0.0017(8)
C24_2 C 0.1282(4) 0.5097(8) 0.1024(8)
C25_2 C 0.1657(4) 0.4162(8) 0.1573(8)
C26_2 C 0.1429(5) 0.3746(10) 0.2455(11)
C27_2 C 0.1632(5) 0.3268(9) 0.0767(11)
C28_2 C 0.2273(4) 0.4533(7) 0.2038(8)
C29_2 C 0.2498(4) 0.5094(8) 0.1342(8)
H13_2 H 0.2274 0.5240 0.0618
C30_2 C 0.2620(4) 0.4297(8) 0.3088(8)
H14_2 H 0.2486 0.3885 0.3557
C31_2 C 0.3171(4) 0.4670(8) 0.3460(8)
H15_2 H 0.3396 0.4539 0.4187
C32_2 C 0.3043(4) 0.5439(8) 0.1691(8)
H16_2 H 0.3185 0.5818 0.1210
C33_2 C 0.3379(4) 0.5223(7) 0.2757(7)
C34_2 C 0.3984(4) 0.5569(7) 0.3143(7)
F7_2 F 0.0872(2) 0.3587(5) 0.2090(6)
F8_2 F 0.1509(2) 0.4418(5) 0.3314(6)
F9_2 F 0.1658(2) 0.2848(5) 0.2922(6)
F10_2 F 0.1149(3) 0.2750(5) 0.0428(6)
F12_2 F 0.2028(3) 0.2553(5) 0.1197(6)
O8_2 O 0.4194(2) 0.5876(5) 0.2432(5)
O9_2 O 0.4232(2) 0.5481(5) 0.4170(5)
O10_2 O 0.5187(2) 0.4906(4) 0.3646(4)
Ga4_3 Ga 1.0000 0.90493(12) 0.7500
O11_2 O 0.5187(2) 0.7102(4) 0.3559(4)
O12_2 O 0.4813(2) 0.7102(4) 0.1441(4)
C18_2 C 0.0356(3) 0.7853(7) 0.9621(8)
C21_2 C 0.0555(4) 0.5937(8) 0.9572(8)
H10_2 H 0.0278 0.5896 0.8883
H12_2 H 0.0779 0.4418 0.9635
F11_2 F 0.1733(3) 0.3598(5) 0.9826(6)
O6_2 O 0.0187(2) 0.7898(4) 0.8559(4)
O14_3 O 0.4703(3) 0.6446(5) 0.9721(5)
O15_3 O 0.4232(2) 0.4519(5) 0.9170(5)
O16_3 O 0.5187(2) 0.5094(4) 0.8646(4)
O14_4 O 0.5297(3) 0.6446(5) 0.5279(5)
O15_4 O 0.5768(2) 0.4519(5) 0.5830(5)
O16_4 O 0.4813(2) 0.5094(4) 0.6354(4)
H12_3 H 0.4221 0.0582 0.0365
F11_3 F 0.3267(3) 0.1402(5) 0.0174(6)
C25_3 C 0.3343(4) 0.0838(8) 0.8427(8)
C26_3 C 0.3571(5) 0.1254(10) 0.7545(11)
C27_3 C 0.3368(5) 0.1732(9) 0.9233(11)
C28_3 C 0.2727(4) 0.0467(7) 0.7962(8)
C30_3 C 0.2380(4) 0.0703(8) 0.6912(8)
H14_3 H 0.2514 0.1115 0.6443
C31_3 C 0.1829(4) 0.0330(8) 0.6540(8)
H15_3 H 0.1604 0.0461 0.5813
F7_3 F 0.4128(2) 0.1413(5) 0.7910(6)
F8_3 F 0.3491(2) 0.0582(5) 0.6686(6)
F9_3 F 0.3342(2) 0.2152(5) 0.7078(6)
F10_3 F 0.3851(3) 0.2250(5) 0.9572(6)
F12_3 F 0.2972(3) 0.2447(5) 0.8803(6)
C18_3 C 0.4644(3) 0.7147(7) 0.0379(8)
C21_3 C 0.4445(4) 0.9063(8) 0.0428(8)
H10_3 H 0.4722 0.9104 0.1117
C19_3 C 0.4346(4) 0.8117(8) 0.9870(8)
C20_3 C 0.3946(4) 0.8098(8) 0.8849(8)
H9_3 H 0.3887 0.7482 0.8436
C22_3 C 0.3629(4) 0.8961(8) 0.8415(7)
H11_3 H 0.3349 0.8911 0.7731
C23_3 C 0.4141(4) 0.9950(8) 0.9983(8)
C24_3 C 0.3718(4) 0.9903(8) 0.8976(8)
C29_3 C 0.2502(4) 0.9906(8) 0.8658(8)
H13_3 H 0.2726 0.9760 0.9382
C32_3 C 0.1957(4) 0.9561(8) 0.8309(8)
H16_3 H 0.1815 0.9182 0.8790
C33_3 C 0.1621(4) 0.9777(7) 0.7243(7)
C34_3 C 0.1016(4) 0.9431(7) 0.6857(7)
O8_3 O 0.0806(2) 0.9124(5) 0.7568(5)
H4_3 H 0.5779 0.0582 0.4635
C8_3 C 0.6657(4) 0.0838(8) 0.6573(8)
C9_3 C 0.6429(5) 0.1254(10) 0.7455(11)
C10_3 C 0.6632(5) 0.1732(9) 0.5767(11)
C11_3 C 0.7273(4) 0.0467(7) 0.7038(8)
C13_3 C 0.7620(4) 0.0703(8) 0.8088(8)
H6_3 H 0.7486 0.1115 0.8557
C14_3 C 0.8171(4) 0.0330(8) 0.8460(8)
H7_3 H 0.8396 0.0461 0.9187
F1_3 F 0.5872(2) 0.1413(5) 0.7090(6)
F2_3 F 0.6509(2) 0.0582(5) 0.8314(6)
F3_3 F 0.6658(2) 0.2152(5) 0.7922(6)
F4_3 F 0.6149(3) 0.2250(5) 0.5428(6)
F5_3 F 0.6733(3) 0.1402(5) 0.4826(6)
F6_3 F 0.7028(3) 0.2447(5) 0.6197(6)
C1_3 C 0.5356(3) 0.7147(7) 0.4621(8)
C2_3 C 0.5654(4) 0.8117(8) 0.5130(8)
C3_3 C 0.6054(4) 0.8098(8) 0.6151(8)
H1_3 H 0.6113 0.7482 0.6564
C4_3 C 0.5555(4) 0.9063(8) 0.4572(8)
H2_3 H 0.5278 0.9104 0.3883
C5_3 C 0.6371(4) 0.8961(8) 0.6585(7)
H3_3 H 0.6651 0.8911 0.7269
C6_3 C 0.5859(4) 0.9950(8) 0.5017(8)
C7_3 C 0.6282(4) 0.9903(8) 0.6024(8)
C12_3 C 0.7498(4) 0.9906(8) 0.6342(8)
H5_3 H 0.7274 0.9760 0.5618
C15_3 C 0.8043(4) 0.9561(8) 0.6691(8)
H8_3 H 0.8185 0.9182 0.6210
C16_3 C 0.8379(4) 0.9777(7) 0.7757(7)
C17_3 C 0.8984(4) 0.9431(7) 0.8143(7)
O3_3 O 0.9194(2) 0.9124(5) 0.7432(5)
C18_4 C 0.9644(3) 0.2147(7) 0.0379(8)
C21_4 C 0.9445(4) 0.4063(8) 0.0428(8)
H10_4 H 0.9722 0.4104 0.1117
H12_4 H 0.9221 0.5582 0.0365
F11_4 F 0.8267(3) 0.6402(5) 0.0174(6)
C1_4 C 0.0356(3) 0.2147(7) 0.4621(8)
C2_4 C 0.0654(4) 0.3117(8) 0.5130(8)
C3_4 C 0.1054(4) 0.3098(8) 0.6151(8)
H1_4 H 0.1113 0.2482 0.6564
C4_4 C 0.0555(4) 0.4063(8) 0.4572(8)
H2_4 H 0.0278 0.4104 0.3883
C5_4 C 0.1371(4) 0.3961(8) 0.6585(7)
H3_4 H 0.1651 0.3911 0.7269
C6_4 C 0.0859(4) 0.4950(8) 0.5017(8)
H4_4 H 0.0779 0.5582 0.4635
C7_4 C 0.1282(4) 0.4903(8) 0.6024(8)
C8_4 C 0.1657(4) 0.5838(8) 0.6573(8)
C9_4 C 0.1429(5) 0.6254(10) 0.7455(11)
C10_4 C 0.1632(5) 0.6732(9) 0.5767(11)
C11_4 C 0.2273(4) 0.5467(7) 0.7038(8)
C12_4 C 0.2498(4) 0.4906(8) 0.6342(8)
H5_4 H 0.2274 0.4760 0.5618
C13_4 C 0.2620(4) 0.5703(8) 0.8088(8)
H6_4 H 0.2486 0.6115 0.8557
C14_4 C 0.3171(4) 0.5330(8) 0.8460(8)
H7_4 H 0.3396 0.5461 0.9187
C15_4 C 0.3043(4) 0.4561(8) 0.6691(8)
H8_4 H 0.3185 0.4182 0.6210
C16_4 C 0.3379(4) 0.4777(7) 0.7757(7)
C17_4 C 0.3984(4) 0.4431(7) 0.8143(7)
F1_4 F 0.0872(2) 0.6413(5) 0.7090(6)
F2_4 F 0.1509(2) 0.5582(5) 0.8314(6)
F3_4 F 0.1658(2) 0.7152(5) 0.7922(6)
F4_4 F 0.1149(3) 0.7250(5) 0.5428(6)
F5_4 F 0.1733(3) 0.6402(5) 0.4826(6)
F6_4 F 0.2028(3) 0.7447(5) 0.6197(6)
O3_4 O 0.4194(2) 0.4124(5) 0.7432(5)
C19_4 C 0.9346(4) 0.3117(8) 0.9870(8)
C20_4 C 0.8946(4) 0.3098(8) 0.8849(8)
H9_4 H 0.8887 0.2482 0.8436
C22_4 C 0.8629(4) 0.3961(8) 0.8415(7)
H11_4 H 0.8349 0.3911 0.7731
C23_4 C 0.9141(4) 0.4950(8) 0.9983(8)
C24_4 C 0.8718(4) 0.4903(8) 0.8976(8)
C25_4 C 0.8343(4) 0.5838(8) 0.8427(8)
C26_4 C 0.8571(5) 0.6254(10) 0.7545(11)
C27_4 C 0.8368(5) 0.6732(9) 0.9233(11)
C28_4 C 0.7727(4) 0.5467(7) 0.7962(8)
C29_4 C 0.7502(4) 0.4906(8) 0.8658(8)
H13_4 H 0.7726 0.4760 0.9382
C30_4 C 0.7380(4) 0.5703(8) 0.6912(8)
H14_4 H 0.7514 0.6115 0.6443
C31_4 C 0.6829(4) 0.5330(8) 0.6540(8)
H15_4 H 0.6604 0.5461 0.5813
C32_4 C 0.6957(4) 0.4561(8) 0.8309(8)
H16_4 H 0.6815 0.4182 0.8790
C33_4 C 0.6621(4) 0.4777(7) 0.7243(7)
C34_4 C 0.6016(4) 0.4431(7) 0.6857(7)
F7_4 F 0.9128(2) 0.6413(5) 0.7910(6)
F8_4 F 0.8491(2) 0.5582(5) 0.6686(6)
F9_4 F 0.8342(2) 0.7152(5) 0.7078(6)
F10_4 F 0.8851(3) 0.7250(5) 0.9572(6)
F12_4 F 0.7972(3) 0.7447(5) 0.8803(6)
O8_4 O 0.5806(2) 0.4124(5) 0.7568(5)
loop_
_geom_bond_atom_site_label_1
_geom_bond_atom_site_label_2
_geom_bond_site_symmetry_1
_geom_bond_site_symmetry_2
C1 C2 1_555 1_555
C2 C3 1_555 1_555
C3 H1 1_555 1_555
C4 C2 1_555 1_555
H2 C4 1_555 1_555
C5 C3 1_555 1_555
H3 C5 1_555 1_555
C6 C4 1_555 1_555
C7 C5 1_555 1_555
H5 C12 1_555 1_555
C15 C12 1_555 1_555
H8 C15 1_555 1_555
C17 C16 1_555 1_555
Ga1 O3 1_555 1_555
Ga2 O4 1_555 1_555
O1 C1 1_555 1_555
O2 C1 1_555 1_555
O3 C17 1_555 1_555
O4 C17 1_555 1_555
Ga4 O1 1_555 1_555
Ga7 O2 1_555 1_555
O11 Ga1 1_555 1_555
C6 C7 1_555 1_555
C15 C16 1_555 1_555
O16 Ga2_2 1_555 1_555
C9 C8 1_555 1_555
C10 C8 1_555 1_555
C11 C8 1_555 1_555
C13 C11 1_555 1_555
H6 C13 1_555 1_555
C14 C13 1_555 1_555
H7 C14 1_555 1_555
F1 C9 1_555 1_555
F2 C9 1_555 1_555
F3 C9 1_555 1_555
F4 C10 1_555 1_555
F5 C10 1_555 1_555
F6 C10 1_555 1_555
O13 Ga2_3 1_555 1_555
O10 Ga5_2 1_555 1_555
C19 C20 1_555 1_555
C20 H9 1_555 1_555
C22 C20 1_555 1_555
H11 C22 1_555 1_555
C24 C22 1_555 1_555
H13 C29 1_555 1_555
C32 C29 1_555 1_555
H16 C32 1_555 1_555
C34 C33 1_555 1_555
O8 Ga1_2 1_555 1_555
O9 C34 1_555 1_555
Ga5_3 O9 1_555 1_555
Ga6 O7 1_555 1_555
O12 Ga1_2 1_555 1_555
C23 C24 1_555 1_555
C32 C33 1_555 1_555
C34 O8 1_555 1_555
H10 C21 1_555 1_555
O6 C18 1_555 1_555
Ga4 O6 1_555 1_555
O14 Ga2_6 1_555 1_555
C26 C25 1_555 1_555
C27 C25 1_555 1_555
C28 C25 1_555 1_555
C30 C28 1_555 1_555
H14 C30 1_555 1_555
C31 C30 1_555 1_555
H15 C31 1_555 1_555
F7 C26 1_555 1_555
F8 C26 1_555 1_555
F9 C26 1_555 1_555
F10 C27 1_555 1_555
F12 C27 1_555 1_555
Ga2_7 O5 1_555 1_555
O15 Ga2_8 1_555 1_555
O14_2 Ga5 1_555 1_555
O15_2 Ga5_2 1_555 1_555
O16_2 Ga5_3 1_555 1_555
O13_2 Ga5_4 1_555 1_555
C1_2 C2_2 1_555 1_555
C2_2 C3_2 1_555 1_555
C3_2 H1_2 1_555 1_555
C4_2 C2_2 1_555 1_555
H2_2 C4_2 1_555 1_555
C5_2 C3_2 1_555 1_555
H3_2 C5_2 1_555 1_555
C6_2 C4_2 1_555 1_555
H4_2 C6_2 1_555 1_555
C7_2 C5_2 1_555 1_555
C8_2 C7_2 1_555 1_555
C9_2 C8_2 1_555 1_555
C10_2 C8_2 1_555 1_555
C11_2 C8_2 1_555 1_555
C12_2 C11_2 1_555 1_555
H5_2 C12_2 1_555 1_555
C13_2 C11_2 1_555 1_555
H6_2 C13_2 1_555 1_555
C14_2 C13_2 1_555 1_555
H7_2 C14_2 1_555 1_555
C15_2 C12_2 1_555 1_555
H8_2 C15_2 1_555 1_555
C16_2 C14_2 1_555 1_555
C17_2 C16_2 1_555 1_555
F1_2 C9_2 1_555 1_555
F2_2 C9_2 1_555 1_555
F3_2 C9_2 1_555 1_555
F4_2 C10_2 1_555 1_555
F5_2 C10_2 1_555 1_555
F6_2 C10_2 1_555 1_555
Ga1_3 O3_2 1_555 1_555
Ga6 O4_2 1_555 1_555
O1_2 C1_2 1_555 1_555
O13_2 C1_2 1_555 1_555
O3_2 C17_2 1_555 1_555
O4_2 C17_2 1_555 1_555
O5_2 Ga1_3 1_555 1_555
C19_2 C20_2 1_555 1_555
C20_2 H9_2 1_555 1_555
C22_2 C20_2 1_555 1_555
H11_2 C22_2 1_555 1_555
C24_2 C22_2 1_555 1_555
C25_2 C24_2 1_555 1_555
C26_2 C25_2 1_555 1_555
C27_2 C25_2 1_555 1_555
C28_2 C25_2 1_555 1_555
C29_2 C28_2 1_555 1_555
H13_2 C29_2 1_555 1_555
C30_2 C28_2 1_555 1_555
H14_2 C30_2 1_555 1_555
C31_2 C30_2 1_555 1_555
H15_2 C31_2 1_555 1_555
C32_2 C29_2 1_555 1_555
H16_2 C32_2 1_555 1_555
C33_2 C31_2 1_555 1_555
C34_2 C33_2 1_555 1_555
F7_2 C26_2 1_555 1_555
F8_2 C26_2 1_555 1_555
F9_2 C26_2 1_555 1_555
F10_2 C27_2 1_555 1_555
F12_2 C27_2 1_555 1_555
O8_2 Ga1_3 1_555 1_555
O9_2 C34_2 1_555 1_555
O10_2 Ga1_3 1_555 1_555
Ga4_3 O1_2 1_555 1_555
Ga7 O9_2 1_555 1_555
O11_2 Ga1_3 1_555 1_555
O12_2 Ga1_3 1_555 1_555
C6_2 C7_2 1_555 1_555
C15_2 C16_2 1_555 1_555
Ga6 O5_2 1_555 1_555
C23_2 C24_2 1_555 1_555
C32_2 C33_2 1_555 1_555
C34_2 O8_2 1_555 1_555
O10_2 Ga7 1_555 1_555
H10_2 C21_2 1_555 1_555
O6_2 C18_2 1_555 1_555
Ga4_2 O6_2 1_555 1_555
O14_3 Ga6_2 1_555 1_555
O15_3 Ga6_2 1_555 1_555
O16_3 Ga6_2 1_555 1_555
O14_4 Ga7 1_555 1_555
O15_4 Ga7 1_555 1_555
O16_4 Ga7 1_555 1_555
C26_3 C25_3 1_555 1_555
C27_3 C25_3 1_555 1_555
C28_3 C25_3 1_555 1_555
C30_3 C28_3 1_555 1_555
H14_3 C30_3 1_555 1_555
C31_3 C30_3 1_555 1_555
H15_3 C31_3 1_555 1_555
F7_3 C26_3 1_555 1_555
F8_3 C26_3 1_555 1_555
F9_3 C26_3 1_555 1_555
F10_3 C27_3 1_555 1_555
F12_3 C27_3 1_555 1_555
H10_3 C21_3 1_555 1_555
O12_2 C18_3 1_555 1_555
C19_3 C20_3 1_555 1_555
C20_3 H9_3 1_555 1_555
C22_3 C20_3 1_555 1_555
H11_3 C22_3 1_555 1_555
C24_3 C22_3 1_555 1_555
H13_3 C29_3 1_555 1_555
C32_3 C29_3 1_555 1_555
H16_3 C32_3 1_555 1_555
C34_3 C33_3 1_555 1_555
O8_3 Ga4_2 1_555 1_555
O15_2 C34_3 1_555 1_555
C23_3 C24_3 1_555 1_555
C32_3 C33_3 1_555 1_555
C34_3 O8_3 1_555 1_555
C9_3 C8_3 1_555 1_555
C10_3 C8_3 1_555 1_555
C11_3 C8_3 1_555 1_555
C13_3 C11_3 1_555 1_555
H6_3 C13_3 1_555 1_555
C14_3 C13_3 1_555 1_555
H7_3 C14_3 1_555 1_555
F1_3 C9_3 1_555 1_555
F2_3 C9_3 1_555 1_555
F3_3 C9_3 1_555 1_555
F4_3 C10_3 1_555 1_555
F5_3 C10_3 1_555 1_555
F6_3 C10_3 1_555 1_555
C1_3 C2_3 1_555 1_555
C2_3 C3_3 1_555 1_555
C3_3 H1_3 1_555 1_555
C4_3 C2_3 1_555 1_555
H2_3 C4_3 1_555 1_555
C5_3 C3_3 1_555 1_555
H3_3 C5_3 1_555 1_555
C6_3 C4_3 1_555 1_555
C7_3 C5_3 1_555 1_555
H5_3 C12_3 1_555 1_555
C15_3 C12_3 1_555 1_555
H8_3 C15_3 1_555 1_555
C17_3 C16_3 1_555 1_555
Ga4_3 O3_3 1_555 1_555
O11_2 C1_3 1_555 1_555
O14_4 C1_3 1_555 1_555
O3_3 C17_3 1_555 1_555
O15 C17_3 1_555 1_555
C6_3 C7_3 1_555 1_555
C15_3 C16_3 1_555 1_555
H10_4 C21_4 1_555 1_555
O12 C18_4 1_555 1_555
C1_4 C2_4 1_555 1_555
C2_4 C3_4 1_555 1_555
C3_4 H1_4 1_555 1_555
C4_4 C2_4 1_555 1_555
H2_4 C4_4 1_555 1_555
C5_4 C3_4 1_555 1_555
H3_4 C5_4 1_555 1_555
C6_4 C4_4 1_555 1_555
H4_4 C6_4 1_555 1_555
C7_4 C5_4 1_555 1_555
C8_4 C7_4 1_555 1_555
C9_4 C8_4 1_555 1_555
C10_4 C8_4 1_555 1_555
C11_4 C8_4 1_555 1_555
C12_4 C11_4 1_555 1_555
H5_4 C12_4 1_555 1_555
C13_4 C11_4 1_555 1_555
H6_4 C13_4 1_555 1_555
C14_4 C13_4 1_555 1_555
H7_4 C14_4 1_555 1_555
C15_4 C12_4 1_555 1_555
H8_4 C15_4 1_555 1_555
C16_4 C14_4 1_555 1_555
C17_4 C16_4 1_555 1_555
F1_4 C9_4 1_555 1_555
F2_4 C9_4 1_555 1_555
F3_4 C9_4 1_555 1_555
F4_4 C10_4 1_555 1_555
F5_4 C10_4 1_555 1_555
F6_4 C10_4 1_555 1_555
Ga4 O3_4 1_555 1_555
O11 C1_4 1_555 1_555
O14_2 C1_4 1_555 1_555
O3_4 C17_4 1_555 1_555
O15_3 C17_4 1_555 1_555
O16_3 Ga4 1_555 1_555
C19_4 C20_4 1_555 1_555
C20_4 H9_4 1_555 1_555
C22_4 C20_4 1_555 1_555
H11_4 C22_4 1_555 1_555
C24_4 C22_4 1_555 1_555
C25_4 C24_4 1_555 1_555
C26_4 C25_4 1_555 1_555
C27_4 C25_4 1_555 1_555
C28_4 C25_4 1_555 1_555
C29_4 C28_4 1_555 1_555
H13_4 C29_4 1_555 1_555
C30_4 C28_4 1_555 1_555
H14_4 C30_4 1_555 1_555
C31_4 C30_4 1_555 1_555
H15_4 C31_4 1_555 1_555
C32_4 C29_4 1_555 1_555
H16_4 C32_4 1_555 1_555
C33_4 C31_4 1_555 1_555
C34_4 C33_4 1_555 1_555
F7_4 C26_4 1_555 1_555
F8_4 C26_4 1_555 1_555
F9_4 C26_4 1_555 1_555
F10_4 C27_4 1_555 1_555
F12_4 C27_4 1_555 1_555
O8_4 Ga4 1_555 1_555
O15_4 C34_4 1_555 1_555
O16_4 Ga4 1_555 1_555
C6_4 C7_4 1_555 1_555
C15_4 C16_4 1_555 1_555
C23_4 C24_4 1_555 1_555
C32_4 C33_4 1_555 1_555
C34_4 O8_4 1_555 1_555

#END
