
###############################################################################
#
# This file contains modified crystal structure data generated from the
# MOF subset of the Cambridge Structural Database (CSD) v543 
# hosted by the Cambridge Crystallographic Data Centre (CCDC).
#
# This work is licensed under the Creative Commons
# Attribution-NonCommercial-ShareAlike 4.0 International License.
# To view a copy of this license, visit
# http://creativecommons.org/licenses/by-nc-sa/4.0/
# or send a letter to
# Creative Commons, PO Box 1866, Mountain View, CA 94042, USA.
#
# CIF created using the CSD Python API on 29 September 2022
# The structure has been converted into the P1 space group
# The structure has a 3D framework
# The original CSD entry HUJLUW is in the monoclinic crystal system
# The framework has been calculated to contain at least 10.0% void space
# The void calculation uses a probe of radius 1.32A, grid spacing 0.4
#
###############################################################################

data_HUJLUW
_chemical_formula_moiety         '(C62 H80 N28 O64 Sm8)n'
_symmetry_cell_setting           triclinic
_symmetry_space_group_name_H-M   'P 1'
_symmetry_Int_Tables_number      1
_space_group_name_Hall           'P 1'
loop_
_symmetry_equiv_pos_site_id
_symmetry_equiv_pos_as_xyz
1 x,y,z
_cell_length_a                   12.7841(8)
_cell_length_b                   16.8747(11)
_cell_length_c                   14.8528(9)
_cell_angle_alpha                90
_cell_angle_beta                 90.914(1)
_cell_angle_gamma                90
_cell_volume                     3203.75
loop_
_atom_site_label
_atom_site_type_symbol
_atom_site_fract_x
_atom_site_fract_y
_atom_site_fract_z
O2 O 0.0472(4) 0.2712(4) 0.1187(4)
H9 H 0.0540 0.2919 0.1707
H10 H 0.0543 0.2213 0.1228
C6 C 0.0000 0.3147(6) 0.7500
N2 N 0.0000 0.4737(5) 0.7500
N4 N 0.0000 0.2344(5) 0.7500
H8 H 0.0492 0.3896 0.9928
C9 C 0.1547(5) 0.6021(4) 0.7857(5)
C10 C 0.1660(6) 0.5562(4) 0.6980(5)
H11 H 0.2286 0.5742 0.6681
H12 H 0.1068 0.5684 0.6587
C11 C 0.2759(5) 0.3765(4) 0.6151(4)
C12 C 0.2702(5) 0.4296(4) 0.6980(5)
H13 H 0.2833 0.3975 0.7512
H14 H 0.3257 0.4685 0.6948
C13 C 0.0852(5) 0.4297(4) 0.7308(5)
C14 C 0.0889(6) 0.1934(4) 0.7096(5)
H15 H 0.0778 0.1367 0.7125
H16 H 0.1521 0.2056 0.7438
C15 C 0.1026(5) 0.2180(4) 0.6124(4)
N5 N 0.1721(5) 0.4710(4) 0.7093(4)
N6 N 0.0914(5) 0.3505(4) 0.7307(4)
O9 O 0.3531(4) 0.3296(3) 0.6142(3)
O10 O 0.1934(4) 0.2175(3) 0.5793(3)
O11 O 0.1229(4) 0.6734(3) 0.7799(3)
O12 O 0.1780(4) 0.5732(3) 0.8613(3)
O13 O 0.0263(4) 0.2386(3) 0.5650(3)
O14 O 0.2084(4) 0.3843(3) 0.5538(3)
Sm2 Sm 0.12620(2) 0.301227(19) 0.44234(2)
O15 O 0.0105(5) 0.4087(4) 0.4954(4)
H17 H 0.0042 0.4435 0.4543
Sm3 Sm 0.12620(2) 0.698773(19) 0.94234(2)
Sm6 Sm 0.37380(2) 0.198773(19) 0.55766(2)
O18 O 0.1469(4) 0.1704(3) 0.3858(3)
O20 O 0.3066(4) 0.2825(3) 0.4207(3)
O21 O 0.1229(4) 0.3266(3) 0.2799(3)
O23 O 0.1780(4) 0.4268(3) 0.3613(3)
Sm1 Sm 0.87380(2) 0.301227(19) 0.05766(2)
O1 O 0.9895(5) 0.4087(4) 0.0046(4)
H7 H 0.9958 0.4435 0.0457
O17 O 0.8531(4) 0.1704(3) 0.1142(3)
O19 O 0.6934(4) 0.2825(3) 0.0793(3)
O22 O 0.8771(4) 0.3266(3) 0.2201(3)
O24 O 0.8220(4) 0.4268(3) 0.1387(3)
C1 C 0.8453(5) 0.6021(4) 0.7143(5)
C2 C 0.8340(6) 0.5562(4) 0.8020(5)
H1 H 0.7714 0.5742 0.8319
H2 H 0.8932 0.5684 0.8413
C3 C 0.7241(5) 0.3765(4) 0.8849(4)
C4 C 0.7298(5) 0.4296(4) 0.8020(5)
H3 H 0.7167 0.3975 0.7488
H4 H 0.6743 0.4685 0.8052
C5 C 0.9148(5) 0.4297(4) 0.7692(5)
C6_2 C 1.0000 0.3147(6) 0.7500
C7 C 0.9111(6) 0.1934(4) 0.7904(5)
H5 H 0.9222 0.1367 0.7875
H6 H 0.8479 0.2056 0.7562
C8 C 0.8974(5) 0.2180(4) 0.8876(4)
N1 N 0.8279(5) 0.4710(4) 0.7907(4)
N2_2 N 1.0000 0.4737(5) 0.7500
N3 N 0.9086(5) 0.3505(4) 0.7693(4)
N4_2 N 1.0000 0.2344(5) 0.7500
O3 O 0.6469(4) 0.3296(3) 0.8858(3)
O4 O 0.8066(4) 0.2175(3) 0.9207(3)
O5 O 0.8771(4) 0.6734(3) 0.7201(3)
O6 O 0.8220(4) 0.5732(3) 0.6387(3)
O7 O 0.9737(4) 0.2386(3) 0.9350(3)
O8 O 0.7916(4) 0.3843(3) 0.9462(3)
H18 H 0.9508 0.3896 0.5072
O16 O 0.9528(4) 0.2712(4) 0.3813(4)
H19 H 0.9460 0.2919 0.3293
H20 H 0.9457 0.2213 0.3772
Sm4 Sm 0.87380(2) 0.698773(19) 0.55766(2)
Sm5 Sm 0.62620(2) 0.198773(19) 0.94234(2)
C1_2 C 0.3453(5) 0.1021(4) 0.7143(5)
C2_2 C 0.3340(6) 0.0562(4) 0.8020(5)
H1_2 H 0.2714 0.0742 0.8319
H2_2 H 0.3932 0.0684 0.8413
O5_2 O 0.3771(4) 0.1734(3) 0.7201(3)
O6_2 O 0.3220(4) 0.0732(3) 0.6387(3)
C9_2 C 0.6547(5) 0.1021(4) 0.7857(5)
C10_2 C 0.6660(6) 0.0562(4) 0.6980(5)
H11_2 H 0.7286 0.0742 0.6681
H12_2 H 0.6068 0.0684 0.6587
O11_2 O 0.6229(4) 0.1734(3) 0.7799(3)
O12_2 O 0.6780(4) 0.0732(3) 0.8613(3)
Sm1_2 Sm 0.37380(2) 0.801227(19) 0.05766(2)
O1_2 O 0.4895(5) 0.9087(4) 0.0046(4)
H7_2 H 0.4958 0.9435 0.0457
O2_2 O 0.5472(4) 0.7712(4) 0.1187(4)
H9_2 H 0.5540 0.7919 0.1707
H10_2 H 0.5543 0.7213 0.1228
O17_2 O 0.3531(4) 0.6704(3) 0.1142(3)
O19_2 O 0.1934(4) 0.7825(3) 0.0793(3)
O22_2 O 0.3771(4) 0.8266(3) 0.2201(3)
O24_2 O 0.3220(4) 0.9268(3) 0.1387(3)
C3_2 C 0.2241(5) 0.8765(4) 0.8849(4)
C4_2 C 0.2298(5) 0.9296(4) 0.8020(5)
H3_2 H 0.2167 0.8975 0.7488
H4_2 H 0.1743 0.9685 0.8052
C5_2 C 0.4148(5) 0.9297(4) 0.7692(5)
C6_3 C 0.5000 0.8147(6) 0.7500
C7_2 C 0.4111(6) 0.6934(4) 0.7904(5)
H5_2 H 0.4222 0.6367 0.7875
H6_2 H 0.3479 0.7056 0.7562
C8_2 C 0.3974(5) 0.7180(4) 0.8876(4)
N1_2 N 0.3279(5) 0.9710(4) 0.7907(4)
N2_3 N 0.5000 0.9737(5) 0.7500
N3_2 N 0.4086(5) 0.8505(4) 0.7693(4)
N4_3 N 0.5000 0.7344(5) 0.7500
H8_2 H 0.5492 0.8896 0.9928
O3_2 O 0.1469(4) 0.8296(3) 0.8858(3)
O4_2 O 0.3066(4) 0.7175(3) 0.9207(3)
O7_2 O 0.4737(4) 0.7386(3) 0.9350(3)
O8_2 O 0.2916(4) 0.8843(3) 0.9462(3)
C11_2 C 0.7759(5) 0.8765(4) 0.6151(4)
C12_2 C 0.7702(5) 0.9296(4) 0.6980(5)
H13_2 H 0.7833 0.8975 0.7512
H14_2 H 0.8257 0.9685 0.6948
C13_2 C 0.5852(5) 0.9297(4) 0.7308(5)
C14_2 C 0.5889(6) 0.6934(4) 0.7096(5)
H15_2 H 0.5778 0.6367 0.7125
H16_2 H 0.6521 0.7056 0.7438
C15_2 C 0.6026(5) 0.7180(4) 0.6124(4)
N5_2 N 0.6721(5) 0.9710(4) 0.7093(4)
N6_2 N 0.5914(5) 0.8505(4) 0.7307(4)
O9_2 O 0.8531(4) 0.8296(3) 0.6142(3)
O10_2 O 0.6934(4) 0.7175(3) 0.5793(3)
O13_2 O 0.5263(4) 0.7386(3) 0.5650(3)
O14_2 O 0.7084(4) 0.8843(3) 0.5538(3)
Sm2_2 Sm 0.62620(2) 0.801227(19) 0.44234(2)
O15_2 O 0.5105(5) 0.9087(4) 0.4954(4)
H17_2 H 0.5042 0.9435 0.4543
H18_2 H 0.4508 0.8896 0.5072
O16_2 O 0.4528(4) 0.7712(4) 0.3813(4)
H19_2 H 0.4460 0.7919 0.3293
H20_2 H 0.4457 0.7213 0.3772
O18_2 O 0.6469(4) 0.6704(3) 0.3858(3)
O20_2 O 0.8066(4) 0.7825(3) 0.4207(3)
O21_2 O 0.6229(4) 0.8266(3) 0.2799(3)
O23_2 O 0.6780(4) 0.9268(3) 0.3613(3)
C1_3 C 0.1547(5) 0.3979(4) 0.2857(5)
C2_3 C 0.1660(6) 0.4438(4) 0.1980(5)
H1_3 H 0.2286 0.4258 0.1681
H2_3 H 0.1068 0.4316 0.1587
C3_3 C 0.2759(5) 0.6235(4) 0.1151(4)
C4_3 C 0.2702(5) 0.5704(4) 0.1980(5)
H3_3 H 0.2833 0.6025 0.2512
H4_3 H 0.3257 0.5315 0.1948
C5_3 C 0.0852(5) 0.5703(4) 0.2308(5)
C6_4 C -0.0000 0.6853(6) 0.2500
C7_3 C 0.0889(6) 0.8066(4) 0.2096(5)
H5_3 H 0.0778 0.8633 0.2125
H6_3 H 0.1521 0.7944 0.2438
C8_3 C 0.1026(5) 0.7820(4) 0.1124(4)
N1_3 N 0.1721(5) 0.5290(4) 0.2093(4)
N2_4 N -0.0000 0.5263(5) 0.2500
N3_3 N 0.0914(5) 0.6495(4) 0.2307(4)
N4_4 N 0.0000 0.7656(5) 0.2500
O7_3 O 0.0263(4) 0.7614(3) 0.0650(3)
O8_3 O 0.2084(4) 0.6157(3) 0.0538(3)
H18_3 H 0.0492 0.6104 0.4928
O16_3 O 0.0472(4) 0.7288(4) 0.6187(4)
H19_3 H 0.0540 0.7081 0.6707
H20_3 H 0.0543 0.7787 0.6228
O1_3 O 0.0105(5) 0.5913(4) 0.9954(4)
H7_3 H 0.0042 0.5565 0.9543
C6_5 C 1.0000 0.6853(6) 0.2500
N2_5 N 1.0000 0.5263(5) 0.2500
N4_5 N 1.0000 0.7656(5) 0.2500
H8_3 H 0.9508 0.6104 0.0072
C9_3 C 0.8453(5) 0.3979(4) 0.2143(5)
C10_3 C 0.8340(6) 0.4438(4) 0.3020(5)
H11_3 H 0.7714 0.4258 0.3319
H12_3 H 0.8932 0.4316 0.3413
C11_3 C 0.7241(5) 0.6235(4) 0.3849(4)
C12_3 C 0.7298(5) 0.5704(4) 0.3020(5)
H13_3 H 0.7167 0.6025 0.2488
H14_3 H 0.6743 0.5315 0.3052
C13_3 C 0.9148(5) 0.5703(4) 0.2692(5)
C14_3 C 0.9111(6) 0.8066(4) 0.2904(5)
H15_3 H 0.9222 0.8633 0.2875
H16_3 H 0.8479 0.7944 0.2562
C15_3 C 0.8974(5) 0.7820(4) 0.3876(4)
N5_3 N 0.8279(5) 0.5290(4) 0.2907(4)
N6_3 N 0.9086(5) 0.6495(4) 0.2693(4)
O13_3 O 0.9737(4) 0.7614(3) 0.4350(3)
O14_3 O 0.7916(4) 0.6157(3) 0.4462(3)
O15_3 O 0.9895(5) 0.5913(4) 0.5046(4)
H17_3 H 0.9958 0.5565 0.5457
C3_4 C 0.7759(5) 0.1235(4) 0.1151(4)
C4_4 C 0.7702(5) 0.0704(4) 0.1980(5)
H3_4 H 0.7833 0.1025 0.2512
H4_4 H 0.8257 0.0315 0.1948
C5_4 C 0.5852(5) 0.0703(4) 0.2308(5)
C6_6 C 0.5000 0.1853(6) 0.2500
C7_4 C 0.5889(6) 0.3066(4) 0.2096(5)
H5_4 H 0.5778 0.3633 0.2125
H6_4 H 0.6521 0.2944 0.2438
C8_4 C 0.6026(5) 0.2820(4) 0.1124(4)
N1_4 N 0.6721(5) 0.0290(4) 0.2093(4)
N2_6 N 0.5000 0.0263(5) 0.2500
N3_4 N 0.5914(5) 0.1495(4) 0.2307(4)
N4_6 N 0.5000 0.2656(5) 0.2500
H8_4 H 0.4508 0.1104 0.0072
O7_4 O 0.5263(4) 0.2614(3) 0.0650(3)
O8_4 O 0.7084(4) 0.1157(3) 0.0538(3)
C11_4 C 0.2241(5) 0.1235(4) 0.3849(4)
C12_4 C 0.2298(5) 0.0704(4) 0.3020(5)
H13_4 H 0.2167 0.1025 0.2488
H14_4 H 0.1743 0.0315 0.3052
C13_4 C 0.4148(5) 0.0703(4) 0.2692(5)
C14_4 C 0.4111(6) 0.3066(4) 0.2904(5)
H15_4 H 0.4222 0.3633 0.2875
H16_4 H 0.3479 0.2944 0.2562
C15_4 C 0.3974(5) 0.2820(4) 0.3876(4)
N5_4 N 0.3279(5) 0.0290(4) 0.2907(4)
N6_4 N 0.4086(5) 0.1495(4) 0.2693(4)
O13_4 O 0.4737(4) 0.2614(3) 0.4350(3)
O14_4 O 0.2916(4) 0.1157(3) 0.4462(3)
O15_4 O 0.4895(5) 0.0913(4) 0.5046(4)
H17_4 H 0.4958 0.0565 0.5457
H18_4 H 0.5492 0.1104 0.4928
O16_4 O 0.5472(4) 0.2288(4) 0.6187(4)
H19_4 H 0.5540 0.2081 0.6707
H20_4 H 0.5543 0.2787 0.6228
O1_4 O 0.5105(5) 0.0913(4) 0.9954(4)
H7_4 H 0.5042 0.0565 0.9543
O2_3 O 0.4528(4) 0.2288(4) 0.8813(4)
H9_3 H 0.4460 0.2081 0.8293
H10_3 H 0.4457 0.2787 0.8772
C1_4 C 0.6547(5) 0.8979(4) 0.2857(5)
C2_4 C 0.6660(6) 0.9438(4) 0.1980(5)
H1_4 H 0.7286 0.9258 0.1681
H2_4 H 0.6068 0.9316 0.1587
C9_4 C 0.3453(5) 0.8979(4) 0.2143(5)
C10_4 C 0.3340(6) 0.9438(4) 0.3020(5)
H11_4 H 0.2714 0.9258 0.3319
H12_4 H 0.3932 0.9316 0.3413
O2_4 O 0.9528(4) 0.7288(4) 0.8813(4)
H9_4 H 0.9460 0.7081 0.8293
H10_4 H 0.9457 0.7787 0.8772
loop_
_geom_bond_atom_site_label_1
_geom_bond_atom_site_label_2
_geom_bond_site_symmetry_1
_geom_bond_site_symmetry_2
H9 O2 1_555 1_555
H10 O2 1_555 1_555
N4 C6 1_555 1_555
C9 C10 1_555 1_555
C10 H11 1_555 1_555
H12 C10 1_555 1_555
C11 C12 1_555 1_555
C12 H13 1_555 1_555
H14 C12 1_555 1_555
C13 N2 1_555 1_555
C14 N4 1_555 1_555
H15 C14 1_555 1_555
H16 C14 1_555 1_555
C15 C14 1_555 1_555
N5 C10 1_555 1_555
N6 C6 1_555 1_555
O9 C11 1_555 1_555
O10 C15 1_555 1_555
O11 C9 1_555 1_555
O12 C9 1_555 1_555
O13 C15 1_555 1_555
O14 C11 1_555 1_555
Sm2 O10 1_555 1_555
O15 Sm2 1_555 1_555
H17 O15 1_555 1_555
Sm3 O11 1_555 1_555
Sm6 O9 1_555 1_555
O18 Sm2 1_555 1_555
O20 Sm2 1_555 1_555
O21 Sm2 1_555 1_555
O23 Sm2 1_555 1_555
C12 N5 1_555 1_555
C13 N5 1_555 1_555
C13 N6 1_555 1_555
O10 Sm6 1_555 1_555
O12 Sm3 1_555 1_555
O13 Sm2 1_555 1_555
O14 Sm2 1_555 1_555
Sm6 O20 1_555 1_555
Sm1 O1 1_555 1_555
O1 H7 1_555 1_555
O17 Sm1 1_555 1_555
O19 Sm1 1_555 1_555
O22 Sm1 1_555 1_555
O24 Sm1 1_555 1_555
C1 C2 1_555 1_555
C2 H1 1_555 1_555
H2 C2 1_555 1_555
C3 C4 1_555 1_555
C4 H3 1_555 1_555
H4 C4 1_555 1_555
C5 N1 1_555 1_555
C6_2 N3 1_555 1_555
C7 H5 1_555 1_555
H6 C7 1_555 1_555
C8 C7 1_555 1_555
N1 C2 1_555 1_555
N2_2 C5 1_555 1_555
N3 C5 1_555 1_555
N4_2 C6_2 1_555 1_555
O3 C3 1_555 1_555
O5 C1 1_555 1_555
O6 C1 1_555 1_555
H19 O16 1_555 1_555
H20 O16 1_555 1_555
Sm4 O5 1_555 1_555
Sm5 O3 1_555 1_555
C3 O8 1_555 1_555
C4 N1 1_555 1_555
C7 N4_2 1_555 1_555
C8 O4 1_555 1_555
C8 O7 1_555 1_555
O4 Sm5 1_555 1_555
O6 Sm4 1_555 1_555
C1_2 C2_2 1_555 1_555
C2_2 H1_2 1_555 1_555
H2_2 C2_2 1_555 1_555
O5_2 C1_2 1_555 1_555
O6_2 C1_2 1_555 1_555
C9_2 C10_2 1_555 1_555
C10_2 H11_2 1_555 1_555
H12_2 C10_2 1_555 1_555
O11_2 C9_2 1_555 1_555
O12_2 C9_2 1_555 1_555
Sm5 O11_2 1_555 1_555
Sm6 O5_2 1_555 1_555
O6_2 Sm6 1_555 1_555
O12_2 Sm5 1_555 1_555
Sm1_2 O1_2 1_555 1_555
O1_2 H7_2 1_555 1_555
O2_2 Sm1_2 1_555 1_555
H9_2 O2_2 1_555 1_555
H10_2 O2_2 1_555 1_555
O17_2 Sm1_2 1_555 1_555
O19_2 Sm1_2 1_555 1_555
O22_2 Sm1_2 1_555 1_555
O24_2 Sm1_2 1_555 1_555
C3_2 C4_2 1_555 1_555
C4_2 H3_2 1_555 1_555
H4_2 C4_2 1_555 1_555
C5_2 N1_2 1_555 1_555
C6_3 N3_2 1_555 1_555
C7_2 H5_2 1_555 1_555
H6_2 C7_2 1_555 1_555
C8_2 C7_2 1_555 1_555
N2_3 C5_2 1_555 1_555
N3_2 C5_2 1_555 1_555
N4_3 C6_3 1_555 1_555
O3_2 C3_2 1_555 1_555
C11_2 C12_2 1_555 1_555
C12_2 H13_2 1_555 1_555
H14_2 C12_2 1_555 1_555
C13_2 N2_3 1_555 1_555
C14_2 N4_3 1_555 1_555
H15_2 C14_2 1_555 1_555
H16_2 C14_2 1_555 1_555
C15_2 C14_2 1_555 1_555
N6_2 C6_3 1_555 1_555
O9_2 C11_2 1_555 1_555
O10_2 C15_2 1_555 1_555
O13_2 C15_2 1_555 1_555
O14_2 C11_2 1_555 1_555
Sm2_2 O10_2 1_555 1_555
O15_2 Sm2_2 1_555 1_555
H17_2 O15_2 1_555 1_555
H18_2 O15_2 1_555 1_555
O16_2 Sm2_2 1_555 1_555
H19_2 O16_2 1_555 1_555
H20_2 O16_2 1_555 1_555
Sm3 O3_2 1_555 1_555
Sm4 O9_2 1_555 1_555
O18_2 Sm2_2 1_555 1_555
O20_2 Sm2_2 1_555 1_555
O21_2 Sm2_2 1_555 1_555
O23_2 Sm2_2 1_555 1_555
C3_2 O8_2 1_555 1_555
C4_2 N1_2 1_555 1_555
C7_2 N4_3 1_555 1_555
C8_2 O4_2 1_555 1_555
C8_2 O7_2 1_555 1_555
O4_2 Sm3 1_555 1_555
C12_2 N5_2 1_555 1_555
C13_2 N5_2 1_555 1_555
C13_2 N6_2 1_555 1_555
O10_2 Sm4 1_555 1_555
O13_2 Sm2_2 1_555 1_555
O14_2 Sm2_2 1_555 1_555
Sm4 O20_2 1_555 1_555
C1_3 C2_3 1_555 1_555
C2_3 H1_3 1_555 1_555
H2_3 C2_3 1_555 1_555
C3_3 C4_3 1_555 1_555
C4_3 H3_3 1_555 1_555
H4_3 C4_3 1_555 1_555
C5_3 N1_3 1_555 1_555
C6_4 N3_3 1_555 1_555
C7_3 H5_3 1_555 1_555
H6_3 C7_3 1_555 1_555
C8_3 C7_3 1_555 1_555
N1_3 C2_3 1_555 1_555
N2_4 C5_3 1_555 1_555
N3_3 C5_3 1_555 1_555
N4_4 C6_4 1_555 1_555
O17_2 C3_3 1_555 1_555
O21 C1_3 1_555 1_555
O23 C1_3 1_555 1_555
H19_3 O16_3 1_555 1_555
H20_3 O16_3 1_555 1_555
C3_3 O8_3 1_555 1_555
C4_3 N1_3 1_555 1_555
C7_3 N4_4 1_555 1_555
C8_3 O19_2 1_555 1_555
C8_3 O7_3 1_555 1_555
Sm3 O1_3 1_555 1_555
O1_3 H7_3 1_555 1_555
N4_5 C6_5 1_555 1_555
C9_3 C10_3 1_555 1_555
C10_3 H11_3 1_555 1_555
H12_3 C10_3 1_555 1_555
C11_3 C12_3 1_555 1_555
C12_3 H13_3 1_555 1_555
H14_3 C12_3 1_555 1_555
C13_3 N2_5 1_555 1_555
C14_3 N4_5 1_555 1_555
H15_3 C14_3 1_555 1_555
H16_3 C14_3 1_555 1_555
C15_3 C14_3 1_555 1_555
N5_3 C10_3 1_555 1_555
N6_3 C6_5 1_555 1_555
O18_2 C11_3 1_555 1_555
O20_2 C15_3 1_555 1_555
O22 C9_3 1_555 1_555
O24 C9_3 1_555 1_555
O13_3 C15_3 1_555 1_555
O14_3 C11_3 1_555 1_555
O15_3 Sm4 1_555 1_555
H17_3 O15_3 1_555 1_555
C12_3 N5_3 1_555 1_555
C13_3 N5_3 1_555 1_555
C13_3 N6_3 1_555 1_555
O13_3 Sm4 1_555 1_555
O14_3 Sm4 1_555 1_555
C3_4 C4_4 1_555 1_555
C4_4 H3_4 1_555 1_555
H4_4 C4_4 1_555 1_555
C5_4 N1_4 1_555 1_555
C6_6 N3_4 1_555 1_555
C7_4 H5_4 1_555 1_555
H6_4 C7_4 1_555 1_555
C8_4 C7_4 1_555 1_555
N2_6 C5_4 1_555 1_555
N3_4 C5_4 1_555 1_555
N4_6 C6_6 1_555 1_555
O17 C3_4 1_555 1_555
C11_4 C12_4 1_555 1_555
C12_4 H13_4 1_555 1_555
H14_4 C12_4 1_555 1_555
C13_4 N2_6 1_555 1_555
C14_4 N4_6 1_555 1_555
H15_4 C14_4 1_555 1_555
H16_4 C14_4 1_555 1_555
C15_4 C14_4 1_555 1_555
N6_4 C6_6 1_555 1_555
O18 C11_4 1_555 1_555
O20 C15_4 1_555 1_555
O13_4 C15_4 1_555 1_555
O14_4 C11_4 1_555 1_555
O15_4 Sm6 1_555 1_555
H17_4 O15_4 1_555 1_555
H18_4 O15_4 1_555 1_555
O16_4 Sm6 1_555 1_555
H19_4 O16_4 1_555 1_555
H20_4 O16_4 1_555 1_555
C3_4 O8_4 1_555 1_555
C4_4 N1_4 1_555 1_555
C7_4 N4_6 1_555 1_555
C8_4 O19 1_555 1_555
C8_4 O7_4 1_555 1_555
C12_4 N5_4 1_555 1_555
C13_4 N5_4 1_555 1_555
C13_4 N6_4 1_555 1_555
O13_4 Sm6 1_555 1_555
O14_4 Sm6 1_555 1_555
Sm5 O1_4 1_555 1_555
O1_4 H7_4 1_555 1_555
O2_3 Sm5 1_555 1_555
H9_3 O2_3 1_555 1_555
H10_3 O2_3 1_555 1_555
C1_4 C2_4 1_555 1_555
C2_4 H1_4 1_555 1_555
H2_4 C2_4 1_555 1_555
O21_2 C1_4 1_555 1_555
O23_2 C1_4 1_555 1_555
C9_4 C10_4 1_555 1_555
C10_4 H11_4 1_555 1_555
H12_4 C10_4 1_555 1_555
O22_2 C9_4 1_555 1_555
O24_2 C9_4 1_555 1_555
H9_4 O2_4 1_555 1_555
H10_4 O2_4 1_555 1_555

#END
