
###############################################################################
#
# This file contains modified crystal structure data generated from the
# MOF subset of the Cambridge Structural Database (CSD) v543 
# hosted by the Cambridge Crystallographic Data Centre (CCDC).
#
# This work is licensed under the Creative Commons
# Attribution-NonCommercial-ShareAlike 4.0 International License.
# To view a copy of this license, visit
# http://creativecommons.org/licenses/by-nc-sa/4.0/
# or send a letter to
# Creative Commons, PO Box 1866, Mountain View, CA 94042, USA.
#
# CIF created using the CSD Python API on 29 September 2022
# The structure has been converted into the P1 space group
# The structure has a 3D framework
# The original CSD entry HUJQAH is in the triclinic crystal system
# The framework has been calculated to contain at least 10.0% void space
# The void calculation uses a probe of radius 1.32A, grid spacing 0.4
# H atom positions have been added when not included in the experimental data
#
###############################################################################

data_HUJQAH
_chemical_formula_moiety         '(C36 H46 Dy1 N4 O22)n'
_symmetry_cell_setting           triclinic
_symmetry_space_group_name_H-M   'P 1'
_symmetry_Int_Tables_number      1
_space_group_name_Hall           'P 1'
loop_
_symmetry_equiv_pos_site_id
_symmetry_equiv_pos_as_xyz
1 x,y,z
_cell_length_a                   10.446(2)
_cell_length_b                   10.877(2)
_cell_length_c                   12.503(3)
_cell_angle_alpha                104.644(4)
_cell_angle_beta                 107.329(4)
_cell_angle_gamma                97.583(4)
_cell_volume                     1278.61
loop_
_atom_site_label
_atom_site_type_symbol
_atom_site_fract_x
_atom_site_fract_y
_atom_site_fract_z
_atom_site_U_iso_or_equiv
_atom_site_thermal_displace_type
Dy4 Dy 0.09420(2) 0.04651(2) 0.18260(2) 0.0067 Uani
C1 C 0.2861(3) 0.2721(2) 0.3505(2) 0.0110 Uani
C2 C 0.3954(3) 0.3907(2) 0.4278(2) 0.0104 Uani
C3 C 0.5316(3) 0.3923(3) 0.4339(2) 0.0122 Uani
H1 H 0.5520 0.3200 0.3896 0.0150 Uiso
C4 C 0.6368(3) 0.5005(3) 0.5054(2) 0.0118 Uani
C7 C 0.4414(3) 0.0359(3) 0.0858(2) 0.0141 Uani
H2 H 0.4015 0.0608 0.1429 0.0170 Uiso
C8 C 0.5834(3) 0.0536(3) 0.1197(2) 0.0130 Uani
H4 H 0.4215 0.0066 0.3182 0.0210 Uiso
O1 O 0.3183(2) 0.17970(19) 0.28658(19) 0.0153 Uani
O2 O 0.1628(2) 0.2646(2) 0.34915(18) 0.0145 Uani
O3 O 0.7668(2) 0.4924(2) 0.5084(2) 0.0227 Uani
O10 O 0.6595(2) 0.1066(3) 0.23691(19) 0.0256 Uani
C19 C 0.7139(3) 0.7279(2) 0.6495(2) 0.0110 Uani
C20 C 0.6046(3) 0.6093(2) 0.5722(2) 0.0104 Uani
C21 C 0.4684(3) 0.6077(3) 0.5661(2) 0.0122 Uani
H18 H 0.4480 0.6800 0.6104 0.0150 Uiso
C22 C 0.3632(3) 0.4995(3) 0.4946(2) 0.0118 Uani
O12 O 0.6817(2) 0.82030(19) 0.71342(19) 0.0153 Uani
O13 O 0.8372(2) 0.7354(2) 0.65085(18) 0.0145 Uani
O14 O 0.2332(2) 0.5076(2) 0.4916(2) 0.0227 Uani
C23 C 0.7944(3) 0.0372(2) 0.0628(2) 0.0104 Uani
C24 C 0.6428(3) 0.0183(3) 0.0319(2) 0.0103 Uani
O16 O 0.8699(2) 0.07605(19) 0.17161(18) 0.0131 Uani
Dy7 Dy 0.90580(2) 0.95349(2) 0.81740(2) 0.0067 Uani
O26 O 0.0815(2) 0.22620(18) 0.10867(17) 0.0116 Uani
H35 H 0.631724 0.050026 0.280982 . .
H36 H 0.770986 0.477531 0.427934 . .
H39 H 0.19387 0.43616 0.516644 . .
O15 O 0.8456(2) 0.01379(19) 0.98215(18) 0.0125 Uani
C12 C 0.0221(3) 0.4711(3) 0.1071(2) 0.0123 Uani
C13 C 0.3668(3) 0.9232(3) 0.2946(3) 0.0178 Uani
C14 C 0.3485(4) 0.6992(3) 0.2961(4) 0.0333 Uani
H5 H 0.3281 0.6834 0.3621 0.0500 Uiso
H6 H 0.4023 0.6401 0.2714 0.0500 Uiso
H7 H 0.2641 0.6857 0.2324 0.0500 Uiso
C15 C 0.5710(4) 0.8641(4) 0.4019(4) 0.0350 Uani
H8 H 0.6084 0.9550 0.4181 0.0530 Uiso
H9 H 0.6193 0.8129 0.3600 0.0530 Uiso
H10 H 0.5812 0.8454 0.4746 0.0530 Uiso
C17 C 0.1117(4) 0.8276(4) 0.4885(4) 0.0378 Uani
H12 H 0.1782 0.8993 0.4912 0.0570 Uiso
H13 H 0.1466 0.7498 0.4764 0.0570 Uiso
H14 H 0.0943 0.8459 0.5615 0.0570 Uiso
N1 N 0.4251(3) 0.8319(3) 0.3299(2) 0.0209 Uani
O6 O 0.0415(3) 0.4497(2) 0.21286(19) 0.0231 Uani
O7 O 0.0564(2) 0.9859(2) 0.34153(18) 0.0165 Uani
O8 O 0.1544(2) 0.98621(19) 0.01785(18) 0.0125 Uani
O11 O 0.2452(2) 0.9046(2) 0.2328(2) 0.0199 Uani
C27 C 0.0501(3) 0.2466(2) 0.0092(2) 0.0092 Uani
C28 C 0.0268(3) 0.3791(2) 0.0071(2) 0.0099 Uani
C5 C 0.2056(3) 0.9628(2) 0.9372(2) 0.0104 Uani
C6 C 0.3572(3) 0.9817(3) 0.9681(2) 0.0103 Uani
O9 O 0.1301(2) 0.92395(19) 0.82839(18) 0.0131 Uani
C25 C 0.5586(3) 0.9641(3) 0.9142(2) 0.0141 Uani
H19 H 0.5985 0.9392 0.8571 0.0170 Uiso
C26 C 0.4166(3) 0.9464(3) 0.8803(2) 0.0130 Uani
O17 O 0.3405(2) 0.8934(3) 0.76309(19) 0.0256 Uani
C29 C 0.0050(3) 0.4092(3) 0.9023(2) 0.0127 Uani
H20 H 0.0085 0.3480 0.8368 0.0150 Uiso
O18 O 0.0371(2) 0.16478(17) 0.91311(17) 0.0104 Uani
C34 C 0.0325(3) 0.1112(3) 0.6721(3) 0.0155 Uani
H28 H 0.1168 0.1285 0.7320 0.0190 Uiso
C36 C 0.1246(4) 0.3017(3) 0.6289(4) 0.0297 Uani
H32 H 0.2034 0.3047 0.6940 0.0440 Uiso
H33 H 0.1495 0.2927 0.5598 0.0440 Uiso
H34 H 0.0930 0.3808 0.6468 0.0440 Uiso
N4 N 0.0154(3) 0.1909(3) 0.6078(2) 0.0188 Uani
H38 H 0.0293424 0.626749 0.796954 . .
H40 H 0.286124 0.955183 0.736491 . .
C11 C 0.9950(3) 0.5908(3) 0.0977(2) 0.0127 Uani
H3 H 0.9915 0.6520 0.1632 0.0150 Uiso
C16 C 0.9675(3) 0.8888(3) 0.3279(3) 0.0155 Uani
H11 H 0.8832 0.8715 0.2680 0.0190 Uiso
C18 C 0.8754(4) 0.6983(3) 0.3711(4) 0.0297 Uani
H15 H 0.7966 0.6953 0.3060 0.0440 Uiso
H16 H 0.8505 0.7073 0.4402 0.0440 Uiso
H17 H 0.9070 0.6192 0.3532 0.0440 Uiso
N2 N 0.9846(3) 0.8091(3) 0.3922(2) 0.0188 Uani
O4 O 0.9629(2) 0.83522(17) 0.08689(17) 0.0104 Uani
H37 H 0.957653 0.455814 0.234018 . .
C9 C 0.9499(3) 0.7534(2) 0.9908(2) 0.0092 Uani
C10 C 0.9732(3) 0.6209(2) 0.9929(2) 0.0099 Uani
O5 O 0.9185(2) 0.77380(18) 0.89133(17) 0.0116 Uani
C30 C 0.9779(3) 0.5289(3) 0.8929(2) 0.0123 Uani
O20 O 0.9585(3) 0.5503(2) 0.78714(19) 0.0231 Uani
C31 C 0.6332(3) 0.0768(3) 0.7054(3) 0.0178 Uani
C32 C 0.6515(4) 0.3008(3) 0.7039(4) 0.0333 Uani
H22 H 0.6719 0.3166 0.6379 0.0500 Uiso
H23 H 0.5977 0.3599 0.7286 0.0500 Uiso
H24 H 0.7359 0.3143 0.7676 0.0500 Uiso
C33 C 0.4290(4) 0.1359(4) 0.5981(4) 0.0350 Uani
H25 H 0.3916 0.0450 0.5819 0.0530 Uiso
H26 H 0.3807 0.1871 0.6400 0.0530 Uiso
H27 H 0.4188 0.1546 0.5254 0.0530 Uiso
C35 C 0.8883(4) 0.1724(4) 0.5115(4) 0.0378 Uani
H29 H 0.8218 0.1007 0.5088 0.0570 Uiso
H30 H 0.8534 0.2502 0.5236 0.0570 Uiso
H31 H 0.9057 0.1541 0.4385 0.0570 Uiso
N3 N 0.5749(3) 0.1681(3) 0.6701(2) 0.0209 Uani
O21 O 0.9436(2) 0.0141(2) 0.65847(18) 0.0165 Uani
O22 O 0.7548(2) 0.0954(2) 0.7672(2) 0.0199 Uani
H21 H 0.5785 0.9934 0.6818 0.0210 Uiso
H37_2 H 0.0423472 0.544186 0.765982 . .
H38_2 H 0.970658 0.373251 0.203046 . .
H40_2 H 0.713876 0.0448175 0.263509 . .
H35_2 H 0.368276 0.949974 0.719018 . .
H36_2 H 0.229014 0.522469 0.572066 . .
H39_2 H 0.80613 0.56384 0.483356 . .
loop_
_atom_site_aniso_label
_atom_site_aniso_U_11
_atom_site_aniso_U_22
_atom_site_aniso_U_33
_atom_site_aniso_U_23
_atom_site_aniso_U_13
_atom_site_aniso_U_12
Dy4 0.00511 0.00499 0.00804 0.00146 0.00035 0.00034
C1 0.0122 0.0095 0.0084 0.0038 -0.0003 0
C2 0.0095 0.0094 0.0095 0.0019 0.001 0.0002
C3 0.0121 0.0106 0.0102 0.0001 0.0019 0.0011
C4 0.0088 0.0134 0.0119 0.0037 0.0023 0.0011
C7 0.0087 0.0228 0.0114 0.0046 0.0047 0.0041
C8 0.0075 0.0206 0.009 0.0034 0.0015 0.0021
O1 0.0111 0.0115 0.0158 -0.0016 -0.0004 0.0008
O2 0.0111 0.015 0.0126 0.0011 0.0026 -0.0031
O3 0.0143 0.0214 0.026 -0.0009 0.0056 0.0018
O10 0.0098 0.0516 0.0082 0.0017 0.001 0.0027
C19 0.0122 0.0095 0.0084 0.0038 -0.0003 0
C20 0.0095 0.0094 0.0095 0.0019 0.001 0.0002
C21 0.0121 0.0106 0.0102 0.0001 0.0019 0.0011
C22 0.0088 0.0134 0.0119 0.0037 0.0023 0.0011
O12 0.0111 0.0115 0.0158 -0.0016 -0.0004 0.0008
O13 0.0111 0.015 0.0126 0.0011 0.0026 -0.0031
O14 0.0143 0.0214 0.026 -0.0009 0.0056 0.0018
C23 0.0072 0.0092 0.0151 0.0041 0.0034 0.0032
C24 0.0057 0.015 0.0111 0.005 0.003 0.0031
O16 0.0084 0.0168 0.0121 0.0033 0.0013 0.0033
Dy7 0.00511 0.00499 0.00804 0.00146 0.00035 0.00034
O26 0.0155 0.0077 0.0099 0.0032 0.0014 0.0029
O15 0.0103 0.0118 0.017 0.0035 0.0076 0.0033
C12 0.0188 0.0099 0.0087 0.0038 0.0043 0.0043
C13 0.0161 0.0187 0.0191 0.0075 0.0045 0.0057
C14 0.038 0.0217 0.039 0.0158 0.0038 0.012
C15 0.0246 0.041 0.033 0.0113 -0.0023 0.0151
C17 0.039 0.036 0.032 0.0213 -0.0055 0.0072
N1 0.0193 0.025 0.0211 0.0112 0.0045 0.0117
O6 0.0495 0.0156 0.0115 0.0082 0.0136 0.0164
O7 0.0219 0.0144 0.012 0.0044 0.0049 0.002
O8 0.0103 0.0118 0.017 0.0035 0.0076 0.0033
O11 0.0146 0.0169 0.0273 0.0087 0.0028 0.0074
C27 0.0076 0.0055 0.0127 0.0023 0.0023 -0.0003
C28 0.0112 0.0063 0.0108 0.0023 0.0025 0.0012
C5 0.0072 0.0092 0.0151 0.0041 0.0034 0.0032
C6 0.0057 0.015 0.0111 0.005 0.003 0.0031
O9 0.0084 0.0168 0.0121 0.0033 0.0013 0.0033
C25 0.0087 0.0228 0.0114 0.0046 0.0047 0.0041
C26 0.0075 0.0206 0.009 0.0034 0.0015 0.0021
O17 0.0098 0.0516 0.0082 0.0017 0.001 0.0027
C29 0.0195 0.0085 0.0096 0.0015 0.0045 0.0054
O18 0.0135 0.0061 0.01 0.0013 0.003 0.0012
C34 0.0191 0.0178 0.0118 0.0056 0.0069 0.0061
C36 0.035 0.0257 0.037 0.0178 0.019 0.0039
N4 0.0237 0.0182 0.0171 0.0094 0.0071 0.0054
C11 0.0195 0.0085 0.0096 0.0015 0.0045 0.0054
C16 0.0191 0.0178 0.0118 0.0056 0.0069 0.0061
C18 0.035 0.0257 0.037 0.0178 0.019 0.0039
N2 0.0237 0.0182 0.0171 0.0094 0.0071 0.0054
O4 0.0135 0.0061 0.01 0.0013 0.003 0.0012
C9 0.0076 0.0055 0.0127 0.0023 0.0023 -0.0003
C10 0.0112 0.0063 0.0108 0.0023 0.0025 0.0012
O5 0.0155 0.0077 0.0099 0.0032 0.0014 0.0029
C30 0.0188 0.0099 0.0087 0.0038 0.0043 0.0043
O20 0.0495 0.0156 0.0115 0.0082 0.0136 0.0164
C31 0.0161 0.0187 0.0191 0.0075 0.0045 0.0057
C32 0.038 0.0217 0.039 0.0158 0.0038 0.012
C33 0.0246 0.041 0.033 0.0113 -0.0023 0.0151
C35 0.039 0.036 0.032 0.0213 -0.0055 0.0072
N3 0.0193 0.025 0.0211 0.0112 0.0045 0.0117
O21 0.0219 0.0144 0.012 0.0044 0.0049 0.002
O22 0.0146 0.0169 0.0273 0.0087 0.0028 0.0074
loop_
_geom_bond_atom_site_label_1
_geom_bond_atom_site_label_2
_geom_bond_site_symmetry_1
_geom_bond_site_symmetry_2
Dy4 O1 1_555 1_555
C1 C2 1_555 1_555
C2 C3 1_555 1_555
C3 H1 1_555 1_555
C4 C3 1_555 1_555
C7 H2 1_555 1_555
C8 C7 1_555 1_555
O1 C1 1_555 1_555
O2 Dy4 1_555 1_555
O3 C4 1_555 1_555
O10 C8 1_555 1_555
C19 C20 1_555 1_555
C20 C4 1_555 1_555
C21 C20 1_555 1_555
H18 C21 1_555 1_555
C22 C2 1_555 1_555
O12 C19 1_555 1_555
O13 C19 1_555 1_555
O14 C22 1_555 1_555
C23 C24 1_555 1_555
C24 C8 1_555 1_555
O16 C23 1_555 1_555
Dy7 O12 1_555 1_555
O26 Dy4 1_555 1_555
C1 O2 1_555 1_555
C21 C22 1_555 1_555
O13 Dy7 1_555 1_555
O10 H35 1_555 1_555
O3 H36 1_555 1_555
O14 H39 1_555 1_555
C14 H5 1_555 1_555
H6 C14 1_555 1_555
H7 C14 1_555 1_555
C15 H8 1_555 1_555
H9 C15 1_555 1_555
H10 C15 1_555 1_555
C17 H12 1_555 1_555
H13 C17 1_555 1_555
H14 C17 1_555 1_555
N1 C13 1_555 1_555
O6 C12 1_555 1_555
C27 C28 1_555 1_555
C28 C12 1_555 1_555
O26 C27 1_555 1_555
C13 O11 1_555 1_555
C14 N1 1_555 1_555
C15 N1 1_555 1_555
C5 C6 1_555 1_555
O9 C5 1_555 1_555
H19 C25 1_555 1_555
C26 C6 1_555 1_555
O17 C26 1_555 1_555
H20 C29 1_555 1_555
C34 H28 1_555 1_555
C36 H32 1_555 1_555
H33 C36 1_555 1_555
H34 C36 1_555 1_555
N4 C34 1_555 1_555
C25 C26 1_555 1_555
C36 N4 1_555 1_555
O17 H40 1_555 1_555
C11 H3 1_555 1_555
C16 H11 1_555 1_555
C18 H15 1_555 1_555
H16 C18 1_555 1_555
H17 C18 1_555 1_555
N2 C16 1_555 1_555
C18 N2 1_555 1_555
C9 C10 1_555 1_555
O5 C9 1_555 1_555
C30 C10 1_555 1_555
O20 C30 1_555 1_555
C32 H22 1_555 1_555
H23 C32 1_555 1_555
H24 C32 1_555 1_555
C33 H25 1_555 1_555
H26 C33 1_555 1_555
H27 C33 1_555 1_555
C35 H29 1_555 1_555
H30 C35 1_555 1_555
H31 C35 1_555 1_555
N3 C31 1_555 1_555
Dy7 O5 1_555 1_555
C31 O22 1_555 1_555
C32 N3 1_555 1_555
C33 N3 1_555 1_555
O10 H40_2 1_555 1_555
O17 H35_2 1_555 1_555
O14 H36_2 1_555 1_555
O3 H39_2 1_555 1_555

#END
