
###############################################################################
#
# This file contains modified crystal structure data generated from the
# MOF subset of the Cambridge Structural Database (CSD) v543 
# hosted by the Cambridge Crystallographic Data Centre (CCDC).
#
# This work is licensed under the Creative Commons
# Attribution-NonCommercial-ShareAlike 4.0 International License.
# To view a copy of this license, visit
# http://creativecommons.org/licenses/by-nc-sa/4.0/
# or send a letter to
# Creative Commons, PO Box 1866, Mountain View, CA 94042, USA.
#
# CIF created using the CSD Python API on 29 September 2022
# The structure has been converted into the P1 space group
# The structure has a 3D framework
# The original CSD entry HULGON is in the monoclinic crystal system
# The framework has been calculated to contain at least 10.0% void space
# The void calculation uses a probe of radius 1.32A, grid spacing 0.4
#
###############################################################################

data_HULGON
_chemical_formula_moiety         '(C104 H80 Co2 N8 O12)n'
_symmetry_cell_setting           triclinic
_symmetry_space_group_name_H-M   'P 1'
_symmetry_Int_Tables_number      1
_space_group_name_Hall           'P 1'
loop_
_symmetry_equiv_pos_site_id
_symmetry_equiv_pos_as_xyz
1 x,y,z
_cell_length_a                   8.53014(14)
_cell_length_b                   16.3192(3)
_cell_length_c                   17.6416(3)
_cell_angle_alpha                90
_cell_angle_beta                 92.7112(14)
_cell_angle_gamma                90
_cell_volume                     2453.05
loop_
_atom_site_label
_atom_site_type_symbol
_atom_site_fract_x
_atom_site_fract_y
_atom_site_fract_z
Co1 Co 0.2500 0.57128(2) 0.5000
O1 O 0.35105(16) 0.47844(9) 0.43839(8)
O2 O 0.57818(15) 0.41766(8) 0.41435(8)
N1 N 0.63016(18) 0.16369(10) 0.06335(9)
C1 C 0.4760(2) 0.16045(12) 0.07456(11)
H1 H 0.4165 0.1186 0.0519
C2 C 0.4027(2) 0.21755(12) 0.11884(11)
H2 H 0.2952 0.2137 0.1248
C3 C 0.4876(2) 0.28081(12) 0.15470(10)
C4 C 0.6499(2) 0.28419(12) 0.14345(11)
C5 C 0.7115(2) 0.22509(12) 0.09678(11)
H3 H 0.8179 0.2284 0.0880
C6 C 0.7594(3) 0.34870(15) 0.17712(14)
H4 H 0.7891 0.3344 0.2286
H5 H 0.7072 0.4008 0.1761
H6 H 0.8515 0.3519 0.1480
C7 C 0.4038(2) 0.34126(12) 0.20124(11)
C8 C 0.2603(2) 0.37370(13) 0.17411(11)
H7 H 0.2185 0.3577 0.1267
C9 C 0.1792(2) 0.42944(13) 0.21698(12)
H8 H 0.0847 0.4512 0.1978
C10 C 0.2386(2) 0.45296(12) 0.28844(11)
H9 H 0.1845 0.4906 0.3169
C11 C 0.3797(2) 0.41976(11) 0.31705(10)
C12 C 0.4621(2) 0.36502(12) 0.27329(11)
H10 H 0.5574 0.3440 0.2923
C13 C 0.4407(2) 0.44146(11) 0.39675(10)
O3 O 0.14895(16) 0.47844(9) 0.56161(8)
C14 C 0.0240(2) 0.16045(12) 0.92544(11)
H11 H 0.0835 0.1186 0.9481
C15 C 0.0973(2) 0.21755(12) 0.88116(11)
H12 H 0.2048 0.2137 0.8752
C16 C 0.0124(2) 0.28081(12) 0.84530(10)
C20 C 0.0962(2) 0.34126(12) 0.79876(11)
C21 C 0.2397(2) 0.37370(13) 0.82589(11)
H17 H 0.2815 0.3577 0.8733
C22 C 0.3208(2) 0.42944(13) 0.78302(12)
H18 H 0.4153 0.4512 0.8022
C23 C 0.2614(2) 0.45296(12) 0.71156(11)
H19 H 0.3155 0.4906 0.6831
C24 C 0.1203(2) 0.41976(11) 0.68295(10)
C25 C 0.0379(2) 0.36502(12) 0.72671(11)
C26 C 0.0593(2) 0.44146(11) 0.60325(10)
Co3 Co 0.7500 0.07128(2) 0.0000
Co5 Co 0.7500 0.42872(2) 0.5000
O5 O 0.42182(15) 0.58234(8) 0.58565(8)
O6 O 0.07818(15) 0.58234(8) 0.41435(8)
N3 N 0.13016(18) 0.66369(10) 0.56335(9)
N4 N 0.36984(18) 0.66369(10) 0.43665(9)
Co3_2 Co 0.7500 0.07128(2) 1.0000
O4 O 0.92182(15) 0.41766(8) 0.58565(8)
N2 N 0.86984(18) 0.16369(10) 0.93665(9)
C17 C 0.8501(2) 0.28419(12) 0.85655(11)
C18 C 0.7885(2) 0.22509(12) 0.90322(11)
H13 H 0.6821 0.2284 0.9120
C19 C 0.7406(3) 0.34870(15) 0.82288(14)
H14 H 0.7109 0.3344 0.7714
H15 H 0.7928 0.4008 0.8239
H16 H 0.6485 0.3519 0.8520
H20 H 0.9426 0.3440 0.7077
Co5_2 Co 0.2500 0.92872(2) 0.0000
O2_2 O 0.07818(15) 0.91766(8) 0.91435(8)
C4_2 C 0.1499(2) 0.78419(12) 0.64345(11)
C5_2 C 0.2115(2) 0.72509(12) 0.59678(11)
H3_2 H 0.3179 0.7284 0.5880
C6_2 C 0.2594(3) 0.84870(15) 0.67712(14)
H4_2 H 0.2891 0.8344 0.7286
H5_2 H 0.2072 0.9008 0.6761
H6_2 H 0.3515 0.8519 0.6480
H10_2 H 0.0574 0.8440 0.7923
Co5_3 Co 0.2500 0.92872(2) 1.0000
O5_2 O 0.92182(15) 0.08234(8) 0.08565(8)
O6_2 O 0.57818(15) 0.08234(8) 0.91435(8)
O3_2 O 0.64895(16) 0.97844(9) 0.06161(8)
O4_2 O 0.42182(15) 0.91766(8) 0.08565(8)
C14_2 C 0.5240(2) 0.66045(12) 0.42544(11)
H11_2 H 0.5835 0.6186 0.4481
C15_2 C 0.5973(2) 0.71755(12) 0.38116(11)
H12_2 H 0.7048 0.7137 0.3752
C16_2 C 0.5124(2) 0.78081(12) 0.34530(10)
C17_2 C 0.3501(2) 0.78419(12) 0.35655(11)
C18_2 C 0.2885(2) 0.72509(12) 0.40322(11)
H13_2 H 0.1821 0.7284 0.4120
C19_2 C 0.2406(3) 0.84870(15) 0.32288(14)
H14_2 H 0.2109 0.8344 0.2714
H15_2 H 0.2928 0.9008 0.3239
H16_2 H 0.1485 0.8519 0.3520
C20_2 C 0.5962(2) 0.84126(12) 0.29876(11)
C21_2 C 0.7397(2) 0.87370(13) 0.32589(11)
H17_2 H 0.7815 0.8577 0.3733
C22_2 C 0.8208(2) 0.92944(13) 0.28302(12)
H18_2 H 0.9153 0.9512 0.3022
C23_2 C 0.7614(2) 0.95296(12) 0.21156(11)
H19_2 H 0.8155 0.9906 0.1831
C24_2 C 0.6203(2) 0.91976(11) 0.18295(10)
C25_2 C 0.5379(2) 0.86502(12) 0.22671(11)
H20_2 H 0.4426 0.8440 0.2077
C26_2 C 0.5593(2) 0.94146(11) 0.10325(10)
O1_2 O 0.85105(16) 0.97844(9) 0.93839(8)
C1_2 C 0.9760(2) 0.66045(12) 0.57456(11)
H1_2 H 0.9165 0.6186 0.5519
C2_2 C 0.9027(2) 0.71755(12) 0.61884(11)
H2_2 H 0.7952 0.7137 0.6248
C3_2 C 0.9876(2) 0.78081(12) 0.65470(10)
C7_2 C 0.9038(2) 0.84126(12) 0.70124(11)
C8_2 C 0.7603(2) 0.87370(13) 0.67411(11)
H7_2 H 0.7185 0.8577 0.6267
C9_2 C 0.6792(2) 0.92944(13) 0.71698(12)
H8_2 H 0.5847 0.9512 0.6978
C10_2 C 0.7386(2) 0.95296(12) 0.78844(11)
H9_2 H 0.6845 0.9906 0.8169
C11_2 C 0.8797(2) 0.91976(11) 0.81705(10)
C12_2 C 0.9621(2) 0.86502(12) 0.77329(11)
C13_2 C 0.9407(2) 0.94146(11) 0.89675(10)
N2_2 N 0.13016(18) 0.83631(10) 0.06335(9)
C17_3 C 0.1499(2) 0.71581(12) 0.14345(11)
C18_3 C 0.2115(2) 0.77491(12) 0.09678(11)
H13_3 H 0.3179 0.7716 0.0880
C19_3 C 0.2594(3) 0.65130(15) 0.17712(14)
H14_3 H 0.2891 0.6656 0.2286
H15_3 H 0.2072 0.5992 0.1761
H16_3 H 0.3515 0.6481 0.1480
H20_3 H 0.0574 0.6560 0.2923
O1_3 O 0.64895(16) 0.52156(9) 0.56161(8)
N1_2 N 0.36984(18) 0.83631(10) 0.93665(9)
C1_3 C 0.5240(2) 0.83955(12) 0.92544(11)
H1_3 H 0.5835 0.8814 0.9481
C2_3 C 0.5973(2) 0.78245(12) 0.88116(11)
H2_3 H 0.7048 0.7863 0.8752
C3_3 C 0.5124(2) 0.71919(12) 0.84530(10)
C4_3 C 0.3501(2) 0.71581(12) 0.85655(11)
C5_3 C 0.2885(2) 0.77491(12) 0.90322(11)
H3_3 H 0.1821 0.7716 0.9120
C6_3 C 0.2406(3) 0.65130(15) 0.82288(14)
H4_3 H 0.2109 0.6656 0.7714
H5_3 H 0.2928 0.5992 0.8239
H6_3 H 0.1485 0.6481 0.8520
C7_3 C 0.5962(2) 0.65874(12) 0.79876(11)
C8_3 C 0.7397(2) 0.62630(13) 0.82589(11)
H7_3 H 0.7815 0.6423 0.8733
C9_3 C 0.8208(2) 0.57056(13) 0.78302(12)
H8_3 H 0.9153 0.5488 0.8022
C10_3 C 0.7614(2) 0.54704(12) 0.71156(11)
H9_3 H 0.8155 0.5094 0.6831
C11_3 C 0.6203(2) 0.58024(11) 0.68295(10)
C12_3 C 0.5379(2) 0.63498(12) 0.72671(11)
H10_3 H 0.4426 0.6560 0.7077
C13_3 C 0.5593(2) 0.55854(11) 0.60325(10)
O3_3 O 0.85105(16) 0.52156(9) 0.43839(8)
C14_3 C 0.9760(2) 0.83955(12) 0.07456(11)
H11_3 H 0.9165 0.8814 0.0519
C15_3 C 0.9027(2) 0.78245(12) 0.11884(11)
H12_3 H 0.7952 0.7863 0.1248
C16_3 C 0.9876(2) 0.71919(12) 0.15470(10)
C20_3 C 0.9038(2) 0.65874(12) 0.20124(11)
C21_3 C 0.7603(2) 0.62630(13) 0.17411(11)
H17_3 H 0.7185 0.6423 0.1267
C22_3 C 0.6792(2) 0.57056(13) 0.21698(12)
H18_3 H 0.5847 0.5488 0.1978
C23_3 C 0.7386(2) 0.54704(12) 0.28844(11)
H19_3 H 0.6845 0.5094 0.3169
C24_3 C 0.8797(2) 0.58024(11) 0.31705(10)
C25_3 C 0.9621(2) 0.63498(12) 0.27329(11)
C26_3 C 0.9407(2) 0.55854(11) 0.39675(10)
N3_2 N 0.86984(18) 0.33631(10) 0.43665(9)
N4_2 N 0.63016(18) 0.33631(10) 0.56335(9)
O1_4 O 0.14895(16) 0.02156(9) 0.06161(8)
C1_4 C 0.0240(2) 0.33955(12) 0.42544(11)
H1_4 H 0.0835 0.3814 0.4481
C2_4 C 0.0973(2) 0.28245(12) 0.38116(11)
H2_4 H 0.2048 0.2863 0.3752
C3_4 C 0.0124(2) 0.21919(12) 0.34530(10)
C7_4 C 0.0962(2) 0.15874(12) 0.29876(11)
C8_4 C 0.2397(2) 0.12630(13) 0.32589(11)
H7_4 H 0.2815 0.1423 0.3733
C9_4 C 0.3208(2) 0.07056(13) 0.28302(12)
H8_4 H 0.4153 0.0488 0.3022
C10_4 C 0.2614(2) 0.04704(12) 0.21156(11)
H9_4 H 0.3155 0.0094 0.1831
C11_4 C 0.1203(2) 0.08024(11) 0.18295(10)
C12_4 C 0.0379(2) 0.13498(12) 0.22671(11)
C13_4 C 0.0593(2) 0.05854(11) 0.10325(10)
O3_4 O 0.35105(16) 0.02156(9) 0.93839(8)
C14_4 C 0.4760(2) 0.33955(12) 0.57456(11)
H11_4 H 0.4165 0.3814 0.5519
C15_4 C 0.4027(2) 0.28245(12) 0.61884(11)
H12_4 H 0.2952 0.2863 0.6248
C16_4 C 0.4876(2) 0.21919(12) 0.65470(10)
C17_4 C 0.6499(2) 0.21581(12) 0.64345(11)
C18_4 C 0.7115(2) 0.27491(12) 0.59678(11)
H13_4 H 0.8179 0.2716 0.5880
C19_4 C 0.7594(3) 0.15130(15) 0.67712(14)
H14_4 H 0.7891 0.1656 0.7286
H15_4 H 0.7072 0.0992 0.6761
H16_4 H 0.8515 0.1481 0.6480
C20_4 C 0.4038(2) 0.15874(12) 0.70124(11)
C21_4 C 0.2603(2) 0.12630(13) 0.67411(11)
H17_4 H 0.2185 0.1423 0.6267
C22_4 C 0.1792(2) 0.07056(13) 0.71698(12)
H18_4 H 0.0847 0.0488 0.6978
C23_4 C 0.2386(2) 0.04704(12) 0.78844(11)
H19_4 H 0.1845 0.0094 0.8169
C24_4 C 0.3797(2) 0.08024(11) 0.81705(10)
C25_4 C 0.4621(2) 0.13498(12) 0.77329(11)
H20_4 H 0.5574 0.1560 0.7923
C26_4 C 0.4407(2) 0.05854(11) 0.89675(10)
C4_4 C 0.8501(2) 0.21581(12) 0.35655(11)
C5_4 C 0.7885(2) 0.27491(12) 0.40322(11)
H3_4 H 0.6821 0.2716 0.4120
C6_4 C 0.7406(3) 0.15130(15) 0.32288(14)
H4_4 H 0.7109 0.1656 0.2714
H5_4 H 0.7928 0.0992 0.3239
H6_4 H 0.6485 0.1481 0.3520
H10_4 H 0.9426 0.1560 0.2077
loop_
_geom_bond_atom_site_label_1
_geom_bond_atom_site_label_2
_geom_bond_site_symmetry_1
_geom_bond_site_symmetry_2
Co1 O1 1_555 1_555
O1 C13 1_555 1_555
O2 C13 1_555 1_555
N1 C1 1_555 1_555
C1 H1 1_555 1_555
C2 C1 1_555 1_555
H2 C2 1_555 1_555
C3 C2 1_555 1_555
C4 C3 1_555 1_555
C5 N1 1_555 1_555
H3 C5 1_555 1_555
C6 C4 1_555 1_555
H4 C6 1_555 1_555
H5 C6 1_555 1_555
H6 C6 1_555 1_555
C7 C3 1_555 1_555
C8 C7 1_555 1_555
H7 C8 1_555 1_555
C9 C8 1_555 1_555
H8 C9 1_555 1_555
C10 C9 1_555 1_555
H9 C10 1_555 1_555
C11 C10 1_555 1_555
C12 C7 1_555 1_555
H10 C12 1_555 1_555
C13 C11 1_555 1_555
O3 Co1 1_555 1_555
C14 H11 1_555 1_555
C15 C14 1_555 1_555
H12 C15 1_555 1_555
C16 C15 1_555 1_555
C20 C16 1_555 1_555
C21 C20 1_555 1_555
H17 C21 1_555 1_555
C22 C21 1_555 1_555
H18 C22 1_555 1_555
C23 C22 1_555 1_555
H19 C23 1_555 1_555
C24 C23 1_555 1_555
C25 C20 1_555 1_555
C26 O3 1_555 1_555
Co3 N1 1_555 1_555
Co5 O2 1_555 1_555
O5 Co1 1_555 1_555
O6 Co1 1_555 1_555
N3 Co1 1_555 1_555
N4 Co1 1_555 1_555
C4 C5 1_555 1_555
C11 C12 1_555 1_555
C24 C25 1_555 1_555
C24 C26 1_555 1_555
C18 N2 1_555 1_555
H13 C18 1_555 1_555
C19 C17 1_555 1_555
H14 C19 1_555 1_555
H15 C19 1_555 1_555
H16 C19 1_555 1_555
Co3_2 N2 1_555 1_555
Co5 O4 1_555 1_555
C17 C18 1_555 1_555
C5_2 N3 1_555 1_555
H3_2 C5_2 1_555 1_555
C6_2 C4_2 1_555 1_555
H4_2 C6_2 1_555 1_555
H5_2 C6_2 1_555 1_555
H6_2 C6_2 1_555 1_555
Co5_3 O2_2 1_555 1_555
C4_2 C5_2 1_555 1_555
O5_2 Co3 1_555 1_555
O6_2 Co3_2 1_555 1_555
O4_2 C26_2 1_555 1_555
N4 C14_2 1_555 1_555
C14_2 H11_2 1_555 1_555
C15_2 C14_2 1_555 1_555
H12_2 C15_2 1_555 1_555
C16_2 C15_2 1_555 1_555
C17_2 C16_2 1_555 1_555
C18_2 N4 1_555 1_555
H13_2 C18_2 1_555 1_555
C19_2 C17_2 1_555 1_555
H14_2 C19_2 1_555 1_555
H15_2 C19_2 1_555 1_555
H16_2 C19_2 1_555 1_555
C20_2 C16_2 1_555 1_555
C21_2 C20_2 1_555 1_555
H17_2 C21_2 1_555 1_555
C22_2 C21_2 1_555 1_555
H18_2 C22_2 1_555 1_555
C23_2 C22_2 1_555 1_555
H19_2 C23_2 1_555 1_555
C24_2 C23_2 1_555 1_555
C25_2 C20_2 1_555 1_555
H20_2 C25_2 1_555 1_555
C26_2 O3_2 1_555 1_555
Co5_2 O4_2 1_555 1_555
C17_2 C18_2 1_555 1_555
C24_2 C25_2 1_555 1_555
C24_2 C26_2 1_555 1_555
O1_2 C13_2 1_555 1_555
C1_2 H1_2 1_555 1_555
C2_2 C1_2 1_555 1_555
H2_2 C2_2 1_555 1_555
C3_2 C2_2 1_555 1_555
C7_2 C3_2 1_555 1_555
C8_2 C7_2 1_555 1_555
H7_2 C8_2 1_555 1_555
C9_2 C8_2 1_555 1_555
H8_2 C9_2 1_555 1_555
C10_2 C9_2 1_555 1_555
H9_2 C10_2 1_555 1_555
C11_2 C10_2 1_555 1_555
C12_2 C7_2 1_555 1_555
C13_2 C11_2 1_555 1_555
C11_2 C12_2 1_555 1_555
C18_3 N2_2 1_555 1_555
H13_3 C18_3 1_555 1_555
C19_3 C17_3 1_555 1_555
H14_3 C19_3 1_555 1_555
H15_3 C19_3 1_555 1_555
H16_3 C19_3 1_555 1_555
Co5_2 N2_2 1_555 1_555
C17_3 C18_3 1_555 1_555
Co5 O1_3 1_555 1_555
O1_3 C13_3 1_555 1_555
O5 C13_3 1_555 1_555
N1_2 C1_3 1_555 1_555
C1_3 H1_3 1_555 1_555
C2_3 C1_3 1_555 1_555
H2_3 C2_3 1_555 1_555
C3_3 C2_3 1_555 1_555
C4_3 C3_3 1_555 1_555
C5_3 N1_2 1_555 1_555
H3_3 C5_3 1_555 1_555
C6_3 C4_3 1_555 1_555
H4_3 C6_3 1_555 1_555
H5_3 C6_3 1_555 1_555
H6_3 C6_3 1_555 1_555
C7_3 C3_3 1_555 1_555
C8_3 C7_3 1_555 1_555
H7_3 C8_3 1_555 1_555
C9_3 C8_3 1_555 1_555
H8_3 C9_3 1_555 1_555
C10_3 C9_3 1_555 1_555
H9_3 C10_3 1_555 1_555
C11_3 C10_3 1_555 1_555
C12_3 C7_3 1_555 1_555
H10_3 C12_3 1_555 1_555
C13_3 C11_3 1_555 1_555
O3_3 Co5 1_555 1_555
C14_3 H11_3 1_555 1_555
C15_3 C14_3 1_555 1_555
H12_3 C15_3 1_555 1_555
C16_3 C15_3 1_555 1_555
C20_3 C16_3 1_555 1_555
C21_3 C20_3 1_555 1_555
H17_3 C21_3 1_555 1_555
C22_3 C21_3 1_555 1_555
H18_3 C22_3 1_555 1_555
C23_3 C22_3 1_555 1_555
H19_3 C23_3 1_555 1_555
C24_3 C23_3 1_555 1_555
C25_3 C20_3 1_555 1_555
C26_3 O3_3 1_555 1_555
Co5_3 N1_2 1_555 1_555
N3_2 Co5 1_555 1_555
N4_2 Co5 1_555 1_555
C4_3 C5_3 1_555 1_555
C11_3 C12_3 1_555 1_555
C24_3 C25_3 1_555 1_555
C24_3 C26_3 1_555 1_555
O1_4 C13_4 1_555 1_555
C1_4 H1_4 1_555 1_555
C2_4 C1_4 1_555 1_555
H2_4 C2_4 1_555 1_555
C3_4 C2_4 1_555 1_555
C7_4 C3_4 1_555 1_555
C8_4 C7_4 1_555 1_555
H7_4 C8_4 1_555 1_555
C9_4 C8_4 1_555 1_555
H8_4 C9_4 1_555 1_555
C10_4 C9_4 1_555 1_555
H9_4 C10_4 1_555 1_555
C11_4 C10_4 1_555 1_555
C12_4 C7_4 1_555 1_555
C13_4 C11_4 1_555 1_555
C11_4 C12_4 1_555 1_555
O6_2 C26_4 1_555 1_555
N4_2 C14_4 1_555 1_555
C14_4 H11_4 1_555 1_555
C15_4 C14_4 1_555 1_555
H12_4 C15_4 1_555 1_555
C16_4 C15_4 1_555 1_555
C17_4 C16_4 1_555 1_555
C18_4 N4_2 1_555 1_555
H13_4 C18_4 1_555 1_555
C19_4 C17_4 1_555 1_555
H14_4 C19_4 1_555 1_555
H15_4 C19_4 1_555 1_555
H16_4 C19_4 1_555 1_555
C20_4 C16_4 1_555 1_555
C21_4 C20_4 1_555 1_555
H17_4 C21_4 1_555 1_555
C22_4 C21_4 1_555 1_555
H18_4 C22_4 1_555 1_555
C23_4 C22_4 1_555 1_555
H19_4 C23_4 1_555 1_555
C24_4 C23_4 1_555 1_555
C25_4 C20_4 1_555 1_555
H20_4 C25_4 1_555 1_555
C26_4 O3_4 1_555 1_555
C17_4 C18_4 1_555 1_555
C24_4 C25_4 1_555 1_555
C24_4 C26_4 1_555 1_555
C5_4 N3_2 1_555 1_555
H3_4 C5_4 1_555 1_555
C6_4 C4_4 1_555 1_555
H4_4 C6_4 1_555 1_555
H5_4 C6_4 1_555 1_555
H6_4 C6_4 1_555 1_555
C4_4 C5_4 1_555 1_555

#END
