
###############################################################################
#
# This file contains modified crystal structure data generated from the
# MOF subset of the Cambridge Structural Database (CSD) v543 
# hosted by the Cambridge Crystallographic Data Centre (CCDC).
#
# This work is licensed under the Creative Commons
# Attribution-NonCommercial-ShareAlike 4.0 International License.
# To view a copy of this license, visit
# http://creativecommons.org/licenses/by-nc-sa/4.0/
# or send a letter to
# Creative Commons, PO Box 1866, Mountain View, CA 94042, USA.
#
# CIF created using the CSD Python API on 29 September 2022
# The structure has been converted into the P1 space group
# The structure has a 3D framework
# The original CSD entry HULGIH is in the monoclinic crystal system
# The framework has been calculated to contain at least 10.0% void space
# The void calculation uses a probe of radius 1.32A, grid spacing 0.4
#
###############################################################################

data_HULGIH
_chemical_formula_moiety         '(C104 H80 Co2 N8 O12)n'
_symmetry_cell_setting           triclinic
_symmetry_space_group_name_H-M   'P 1'
_symmetry_Int_Tables_number      1
_space_group_name_Hall           'P 1'
loop_
_symmetry_equiv_pos_site_id
_symmetry_equiv_pos_as_xyz
1 x,y,z
_cell_length_a                   8.5281(3)
_cell_length_b                   16.6993(8)
_cell_length_c                   16.9482(9)
_cell_angle_alpha                90
_cell_angle_beta                 94.423(4)
_cell_angle_gamma                90
_cell_volume                     2406.46
loop_
_atom_site_label
_atom_site_type_symbol
_atom_site_fract_x
_atom_site_fract_y
_atom_site_fract_z
Co1 Co 0.2500 0.56759(3) 0.5000
O1 O 0.3447(2) 0.47763(12) 0.43370(12)
O2 O 0.5741(2) 0.42179(12) 0.41009(11)
N1 N 0.6302(2) 0.15814(13) 0.06399(13)
C1 C 0.4755(3) 0.15466(17) 0.07319(17)
H1 H 0.4176 0.1114 0.0523
C2 C 0.4000(3) 0.21382(17) 0.11292(17)
H2 H 0.2924 0.2097 0.1178
C3 C 0.4815(3) 0.27921(17) 0.14575(16)
C4 C 0.6440(3) 0.28315(17) 0.13645(17)
C5 C 0.7094(3) 0.22138(17) 0.09504(17)
H3 H 0.8165 0.2241 0.0884
C6 C 0.7500(4) 0.3508(2) 0.1666(2)
H4 H 0.7834 0.3418 0.2212
H5 H 0.6937 0.4005 0.1614
H6 H 0.8405 0.3531 0.1362
C7 C 0.3975(3) 0.34053(16) 0.18983(17)
C8 C 0.2541(3) 0.37235(18) 0.15737(18)
H7 H 0.2131 0.3561 0.1075
C9 C 0.1734(3) 0.42812(17) 0.19981(18)
H8 H 0.0799 0.4499 0.1775
C10 C 0.2308(3) 0.45161(17) 0.27485(17)
H9 H 0.1751 0.4883 0.3031
C11 C 0.3725(3) 0.42003(16) 0.30808(16)
C12 C 0.4540(3) 0.36544(16) 0.26435(17)
H10 H 0.5493 0.3452 0.2860
C13 C 0.4345(3) 0.44257(15) 0.39089(16)
O3 O 0.1553(2) 0.47763(12) 0.56630(12)
C14 C 0.0245(3) 0.15466(17) 0.92681(17)
H11 H 0.0824 0.1114 0.9477
C15 C 0.1000(3) 0.21382(17) 0.88708(17)
H12 H 0.2076 0.2097 0.8822
C16 C 0.0185(3) 0.27921(17) 0.85425(16)
C20 C 0.1025(3) 0.34053(16) 0.81017(17)
C21 C 0.2459(3) 0.37235(18) 0.84263(18)
H17 H 0.2869 0.3561 0.8925
C22 C 0.3266(3) 0.42812(17) 0.80019(18)
H18 H 0.4201 0.4499 0.8225
C23 C 0.2692(3) 0.45161(17) 0.72515(17)
H19 H 0.3249 0.4883 0.6969
C24 C 0.1275(3) 0.42003(16) 0.69192(16)
C25 C 0.0460(3) 0.36544(16) 0.73565(17)
C26 C 0.0655(3) 0.44257(15) 0.60911(16)
Co3 Co 0.7500 0.06759(3) 0.0000
Co5 Co 0.7500 0.43241(3) 0.5000
O5 O 0.4259(2) 0.57821(12) 0.58991(11)
O6 O 0.0741(2) 0.57821(12) 0.41009(11)
N3 N 0.1302(2) 0.65814(13) 0.56399(13)
N4 N 0.3698(2) 0.65814(13) 0.43601(13)
Co3_2 Co 0.7500 0.06759(3) 1.0000
O4 O 0.9259(2) 0.42179(12) 0.58991(11)
N2 N 0.8698(2) 0.15814(13) 0.93601(13)
C17 C 0.8560(3) 0.28315(17) 0.86355(17)
C18 C 0.7906(3) 0.22138(17) 0.90496(17)
H13 H 0.6835 0.2241 0.9116
C19 C 0.7500(4) 0.3508(2) 0.8334(2)
H14 H 0.7166 0.3418 0.7788
H15 H 0.8063 0.4005 0.8386
H16 H 0.6595 0.3531 0.8638
H20 H 0.9507 0.3452 0.7140
Co5_2 Co 0.2500 0.93241(3) 0.0000
O2_2 O 0.0741(2) 0.92179(12) 0.91009(11)
C4_2 C 0.1440(3) 0.78315(17) 0.63645(17)
C5_2 C 0.2094(3) 0.72138(17) 0.59504(17)
H3_2 H 0.3165 0.7241 0.5884
C6_2 C 0.2500(4) 0.8508(2) 0.6666(2)
H4_2 H 0.2834 0.8418 0.7212
H5_2 H 0.1937 0.9005 0.6614
H6_2 H 0.3405 0.8531 0.6362
H10_2 H 0.0493 0.8452 0.7860
Co5_3 Co 0.2500 0.93241(3) 1.0000
O5_2 O 0.9259(2) 0.07821(12) 0.08991(11)
O6_2 O 0.5741(2) 0.07821(12) 0.91009(11)
O3_2 O 0.6553(2) 0.97763(12) 0.06630(12)
O4_2 O 0.4259(2) 0.92179(12) 0.08991(11)
C14_2 C 0.5245(3) 0.65466(17) 0.42681(17)
H11_2 H 0.5824 0.6114 0.4477
C15_2 C 0.6000(3) 0.71382(17) 0.38708(17)
H12_2 H 0.7076 0.7097 0.3822
C16_2 C 0.5185(3) 0.77921(17) 0.35425(16)
C17_2 C 0.3560(3) 0.78315(17) 0.36355(17)
C18_2 C 0.2906(3) 0.72138(17) 0.40496(17)
H13_2 H 0.1835 0.7241 0.4116
C19_2 C 0.2500(4) 0.8508(2) 0.3334(2)
H14_2 H 0.2166 0.8418 0.2788
H15_2 H 0.3063 0.9005 0.3386
H16_2 H 0.1595 0.8531 0.3638
C20_2 C 0.6025(3) 0.84053(16) 0.31017(17)
C21_2 C 0.7459(3) 0.87235(18) 0.34263(18)
H17_2 H 0.7869 0.8561 0.3925
C22_2 C 0.8266(3) 0.92812(17) 0.30019(18)
H18_2 H 0.9201 0.9499 0.3225
C23_2 C 0.7692(3) 0.95161(17) 0.22515(17)
H19_2 H 0.8249 0.9883 0.1969
C24_2 C 0.6275(3) 0.92003(16) 0.19192(16)
C25_2 C 0.5460(3) 0.86544(16) 0.23565(17)
H20_2 H 0.4507 0.8452 0.2140
C26_2 C 0.5655(3) 0.94257(15) 0.10911(16)
O1_2 O 0.8447(2) 0.97763(12) 0.93370(12)
C1_2 C 0.9755(3) 0.65466(17) 0.57319(17)
H1_2 H 0.9176 0.6114 0.5523
C2_2 C 0.9000(3) 0.71382(17) 0.61292(17)
H2_2 H 0.7924 0.7097 0.6178
C3_2 C 0.9815(3) 0.77921(17) 0.64575(16)
C7_2 C 0.8975(3) 0.84053(16) 0.68983(17)
C8_2 C 0.7541(3) 0.87235(18) 0.65737(18)
H7_2 H 0.7131 0.8561 0.6075
C9_2 C 0.6734(3) 0.92812(17) 0.69981(18)
H8_2 H 0.5799 0.9499 0.6775
C10_2 C 0.7308(3) 0.95161(17) 0.77485(17)
H9_2 H 0.6751 0.9883 0.8031
C11_2 C 0.8725(3) 0.92003(16) 0.80808(16)
C12_2 C 0.9540(3) 0.86544(16) 0.76435(17)
C13_2 C 0.9345(3) 0.94257(15) 0.89089(16)
N2_2 N 0.1302(2) 0.84186(13) 0.06399(13)
C17_3 C 0.1440(3) 0.71685(17) 0.13645(17)
C18_3 C 0.2094(3) 0.77862(17) 0.09504(17)
H13_3 H 0.3165 0.7759 0.0884
C19_3 C 0.2500(4) 0.6492(2) 0.1666(2)
H14_3 H 0.2834 0.6582 0.2212
H15_3 H 0.1937 0.5995 0.1614
H16_3 H 0.3405 0.6469 0.1362
H20_3 H 0.0493 0.6548 0.2860
O1_3 O 0.6553(2) 0.52237(12) 0.56630(12)
N1_2 N 0.3698(2) 0.84186(13) 0.93601(13)
C1_3 C 0.5245(3) 0.84534(17) 0.92681(17)
H1_3 H 0.5824 0.8886 0.9477
C2_3 C 0.6000(3) 0.78618(17) 0.88708(17)
H2_3 H 0.7076 0.7903 0.8822
C3_3 C 0.5185(3) 0.72079(17) 0.85425(16)
C4_3 C 0.3560(3) 0.71685(17) 0.86355(17)
C5_3 C 0.2906(3) 0.77862(17) 0.90496(17)
H3_3 H 0.1835 0.7759 0.9116
C6_3 C 0.2500(4) 0.6492(2) 0.8334(2)
H4_3 H 0.2166 0.6582 0.7788
H5_3 H 0.3063 0.5995 0.8386
H6_3 H 0.1595 0.6469 0.8638
C7_3 C 0.6025(3) 0.65947(16) 0.81017(17)
C8_3 C 0.7459(3) 0.62765(18) 0.84263(18)
H7_3 H 0.7869 0.6439 0.8925
C9_3 C 0.8266(3) 0.57188(17) 0.80019(18)
H8_3 H 0.9201 0.5501 0.8225
C10_3 C 0.7692(3) 0.54839(17) 0.72515(17)
H9_3 H 0.8249 0.5117 0.6969
C11_3 C 0.6275(3) 0.57997(16) 0.69192(16)
C12_3 C 0.5460(3) 0.63456(16) 0.73565(17)
H10_3 H 0.4507 0.6548 0.7140
C13_3 C 0.5655(3) 0.55743(15) 0.60911(16)
O3_3 O 0.8447(2) 0.52237(12) 0.43370(12)
C14_3 C 0.9755(3) 0.84534(17) 0.07319(17)
H11_3 H 0.9176 0.8886 0.0523
C15_3 C 0.9000(3) 0.78618(17) 0.11292(17)
H12_3 H 0.7924 0.7903 0.1178
C16_3 C 0.9815(3) 0.72079(17) 0.14575(16)
C20_3 C 0.8975(3) 0.65947(16) 0.18983(17)
C21_3 C 0.7541(3) 0.62765(18) 0.15737(18)
H17_3 H 0.7131 0.6439 0.1075
C22_3 C 0.6734(3) 0.57188(17) 0.19981(18)
H18_3 H 0.5799 0.5501 0.1775
C23_3 C 0.7308(3) 0.54839(17) 0.27485(17)
H19_3 H 0.6751 0.5117 0.3031
C24_3 C 0.8725(3) 0.57997(16) 0.30808(16)
C25_3 C 0.9540(3) 0.63456(16) 0.26435(17)
C26_3 C 0.9345(3) 0.55743(15) 0.39089(16)
N3_2 N 0.8698(2) 0.34186(13) 0.43601(13)
N4_2 N 0.6302(2) 0.34186(13) 0.56399(13)
O1_4 O 0.1553(2) 0.02237(12) 0.06630(12)
C1_4 C 0.0245(3) 0.34534(17) 0.42681(17)
H1_4 H 0.0824 0.3886 0.4477
C2_4 C 0.1000(3) 0.28618(17) 0.38708(17)
H2_4 H 0.2076 0.2903 0.3822
C3_4 C 0.0185(3) 0.22079(17) 0.35425(16)
C7_4 C 0.1025(3) 0.15947(16) 0.31017(17)
C8_4 C 0.2459(3) 0.12765(18) 0.34263(18)
H7_4 H 0.2869 0.1439 0.3925
C9_4 C 0.3266(3) 0.07188(17) 0.30019(18)
H8_4 H 0.4201 0.0501 0.3225
C10_4 C 0.2692(3) 0.04839(17) 0.22515(17)
H9_4 H 0.3249 0.0117 0.1969
C11_4 C 0.1275(3) 0.07997(16) 0.19192(16)
C12_4 C 0.0460(3) 0.13456(16) 0.23565(17)
C13_4 C 0.0655(3) 0.05743(15) 0.10911(16)
O3_4 O 0.3447(2) 0.02237(12) 0.93370(12)
C14_4 C 0.4755(3) 0.34534(17) 0.57319(17)
H11_4 H 0.4176 0.3886 0.5523
C15_4 C 0.4000(3) 0.28618(17) 0.61292(17)
H12_4 H 0.2924 0.2903 0.6178
C16_4 C 0.4815(3) 0.22079(17) 0.64575(16)
C17_4 C 0.6440(3) 0.21685(17) 0.63645(17)
C18_4 C 0.7094(3) 0.27862(17) 0.59504(17)
H13_4 H 0.8165 0.2759 0.5884
C19_4 C 0.7500(4) 0.1492(2) 0.6666(2)
H14_4 H 0.7834 0.1582 0.7212
H15_4 H 0.6937 0.0995 0.6614
H16_4 H 0.8405 0.1469 0.6362
C20_4 C 0.3975(3) 0.15947(16) 0.68983(17)
C21_4 C 0.2541(3) 0.12765(18) 0.65737(18)
H17_4 H 0.2131 0.1439 0.6075
C22_4 C 0.1734(3) 0.07188(17) 0.69981(18)
H18_4 H 0.0799 0.0501 0.6775
C23_4 C 0.2308(3) 0.04839(17) 0.77485(17)
H19_4 H 0.1751 0.0117 0.8031
C24_4 C 0.3725(3) 0.07997(16) 0.80808(16)
C25_4 C 0.4540(3) 0.13456(16) 0.76435(17)
H20_4 H 0.5493 0.1548 0.7860
C26_4 C 0.4345(3) 0.05743(15) 0.89089(16)
C4_4 C 0.8560(3) 0.21685(17) 0.36355(17)
C5_4 C 0.7906(3) 0.27862(17) 0.40496(17)
H3_4 H 0.6835 0.2759 0.4116
C6_4 C 0.7500(4) 0.1492(2) 0.3334(2)
H4_4 H 0.7166 0.1582 0.2788
H5_4 H 0.8063 0.0995 0.3386
H6_4 H 0.6595 0.1469 0.3638
H10_4 H 0.9507 0.1548 0.2140
loop_
_geom_bond_atom_site_label_1
_geom_bond_atom_site_label_2
_geom_bond_site_symmetry_1
_geom_bond_site_symmetry_2
Co1 O1 1_555 1_555
O1 C13 1_555 1_555
O2 C13 1_555 1_555
N1 C1 1_555 1_555
C1 H1 1_555 1_555
C2 C1 1_555 1_555
H2 C2 1_555 1_555
C3 C2 1_555 1_555
C4 C3 1_555 1_555
C5 N1 1_555 1_555
H3 C5 1_555 1_555
C6 C4 1_555 1_555
H4 C6 1_555 1_555
H5 C6 1_555 1_555
H6 C6 1_555 1_555
C7 C3 1_555 1_555
C8 C7 1_555 1_555
H7 C8 1_555 1_555
C9 C8 1_555 1_555
H8 C9 1_555 1_555
C10 C9 1_555 1_555
H9 C10 1_555 1_555
C11 C10 1_555 1_555
C12 C7 1_555 1_555
H10 C12 1_555 1_555
C13 C11 1_555 1_555
O3 Co1 1_555 1_555
C14 H11 1_555 1_555
C15 C14 1_555 1_555
H12 C15 1_555 1_555
C16 C15 1_555 1_555
C20 C16 1_555 1_555
C21 C20 1_555 1_555
H17 C21 1_555 1_555
C22 C21 1_555 1_555
H18 C22 1_555 1_555
C23 C22 1_555 1_555
H19 C23 1_555 1_555
C24 C23 1_555 1_555
C25 C20 1_555 1_555
C26 O3 1_555 1_555
Co3 N1 1_555 1_555
Co5 O2 1_555 1_555
O5 Co1 1_555 1_555
O6 Co1 1_555 1_555
N3 Co1 1_555 1_555
N4 Co1 1_555 1_555
C4 C5 1_555 1_555
C11 C12 1_555 1_555
C24 C25 1_555 1_555
C24 C26 1_555 1_555
C18 N2 1_555 1_555
H13 C18 1_555 1_555
C19 C17 1_555 1_555
H14 C19 1_555 1_555
H15 C19 1_555 1_555
H16 C19 1_555 1_555
Co3_2 N2 1_555 1_555
Co5 O4 1_555 1_555
C17 C18 1_555 1_555
C5_2 N3 1_555 1_555
H3_2 C5_2 1_555 1_555
C6_2 C4_2 1_555 1_555
H4_2 C6_2 1_555 1_555
H5_2 C6_2 1_555 1_555
H6_2 C6_2 1_555 1_555
Co5_3 O2_2 1_555 1_555
C4_2 C5_2 1_555 1_555
O5_2 Co3 1_555 1_555
O6_2 Co3_2 1_555 1_555
O4_2 C26_2 1_555 1_555
N4 C14_2 1_555 1_555
C14_2 H11_2 1_555 1_555
C15_2 C14_2 1_555 1_555
H12_2 C15_2 1_555 1_555
C16_2 C15_2 1_555 1_555
C17_2 C16_2 1_555 1_555
C18_2 N4 1_555 1_555
H13_2 C18_2 1_555 1_555
C19_2 C17_2 1_555 1_555
H14_2 C19_2 1_555 1_555
H15_2 C19_2 1_555 1_555
H16_2 C19_2 1_555 1_555
C20_2 C16_2 1_555 1_555
C21_2 C20_2 1_555 1_555
H17_2 C21_2 1_555 1_555
C22_2 C21_2 1_555 1_555
H18_2 C22_2 1_555 1_555
C23_2 C22_2 1_555 1_555
H19_2 C23_2 1_555 1_555
C24_2 C23_2 1_555 1_555
C25_2 C20_2 1_555 1_555
H20_2 C25_2 1_555 1_555
C26_2 O3_2 1_555 1_555
Co5_2 O4_2 1_555 1_555
C17_2 C18_2 1_555 1_555
C24_2 C25_2 1_555 1_555
C24_2 C26_2 1_555 1_555
O1_2 C13_2 1_555 1_555
C1_2 H1_2 1_555 1_555
C2_2 C1_2 1_555 1_555
H2_2 C2_2 1_555 1_555
C3_2 C2_2 1_555 1_555
C7_2 C3_2 1_555 1_555
C8_2 C7_2 1_555 1_555
H7_2 C8_2 1_555 1_555
C9_2 C8_2 1_555 1_555
H8_2 C9_2 1_555 1_555
C10_2 C9_2 1_555 1_555
H9_2 C10_2 1_555 1_555
C11_2 C10_2 1_555 1_555
C12_2 C7_2 1_555 1_555
C13_2 C11_2 1_555 1_555
C11_2 C12_2 1_555 1_555
C18_3 N2_2 1_555 1_555
H13_3 C18_3 1_555 1_555
C19_3 C17_3 1_555 1_555
H14_3 C19_3 1_555 1_555
H15_3 C19_3 1_555 1_555
H16_3 C19_3 1_555 1_555
Co5_2 N2_2 1_555 1_555
C17_3 C18_3 1_555 1_555
Co5 O1_3 1_555 1_555
O1_3 C13_3 1_555 1_555
O5 C13_3 1_555 1_555
N1_2 C1_3 1_555 1_555
C1_3 H1_3 1_555 1_555
C2_3 C1_3 1_555 1_555
H2_3 C2_3 1_555 1_555
C3_3 C2_3 1_555 1_555
C4_3 C3_3 1_555 1_555
C5_3 N1_2 1_555 1_555
H3_3 C5_3 1_555 1_555
C6_3 C4_3 1_555 1_555
H4_3 C6_3 1_555 1_555
H5_3 C6_3 1_555 1_555
H6_3 C6_3 1_555 1_555
C7_3 C3_3 1_555 1_555
C8_3 C7_3 1_555 1_555
H7_3 C8_3 1_555 1_555
C9_3 C8_3 1_555 1_555
H8_3 C9_3 1_555 1_555
C10_3 C9_3 1_555 1_555
H9_3 C10_3 1_555 1_555
C11_3 C10_3 1_555 1_555
C12_3 C7_3 1_555 1_555
H10_3 C12_3 1_555 1_555
C13_3 C11_3 1_555 1_555
O3_3 Co5 1_555 1_555
C14_3 H11_3 1_555 1_555
C15_3 C14_3 1_555 1_555
H12_3 C15_3 1_555 1_555
C16_3 C15_3 1_555 1_555
C20_3 C16_3 1_555 1_555
C21_3 C20_3 1_555 1_555
H17_3 C21_3 1_555 1_555
C22_3 C21_3 1_555 1_555
H18_3 C22_3 1_555 1_555
C23_3 C22_3 1_555 1_555
H19_3 C23_3 1_555 1_555
C24_3 C23_3 1_555 1_555
C25_3 C20_3 1_555 1_555
C26_3 O3_3 1_555 1_555
Co5_3 N1_2 1_555 1_555
N3_2 Co5 1_555 1_555
N4_2 Co5 1_555 1_555
C4_3 C5_3 1_555 1_555
C11_3 C12_3 1_555 1_555
C24_3 C25_3 1_555 1_555
C24_3 C26_3 1_555 1_555
O1_4 C13_4 1_555 1_555
C1_4 H1_4 1_555 1_555
C2_4 C1_4 1_555 1_555
H2_4 C2_4 1_555 1_555
C3_4 C2_4 1_555 1_555
C7_4 C3_4 1_555 1_555
C8_4 C7_4 1_555 1_555
H7_4 C8_4 1_555 1_555
C9_4 C8_4 1_555 1_555
H8_4 C9_4 1_555 1_555
C10_4 C9_4 1_555 1_555
H9_4 C10_4 1_555 1_555
C11_4 C10_4 1_555 1_555
C12_4 C7_4 1_555 1_555
C13_4 C11_4 1_555 1_555
C11_4 C12_4 1_555 1_555
O6_2 C26_4 1_555 1_555
N4_2 C14_4 1_555 1_555
C14_4 H11_4 1_555 1_555
C15_4 C14_4 1_555 1_555
H12_4 C15_4 1_555 1_555
C16_4 C15_4 1_555 1_555
C17_4 C16_4 1_555 1_555
C18_4 N4_2 1_555 1_555
H13_4 C18_4 1_555 1_555
C19_4 C17_4 1_555 1_555
H14_4 C19_4 1_555 1_555
H15_4 C19_4 1_555 1_555
H16_4 C19_4 1_555 1_555
C20_4 C16_4 1_555 1_555
C21_4 C20_4 1_555 1_555
H17_4 C21_4 1_555 1_555
C22_4 C21_4 1_555 1_555
H18_4 C22_4 1_555 1_555
C23_4 C22_4 1_555 1_555
H19_4 C23_4 1_555 1_555
C24_4 C23_4 1_555 1_555
C25_4 C20_4 1_555 1_555
H20_4 C25_4 1_555 1_555
C26_4 O3_4 1_555 1_555
C17_4 C18_4 1_555 1_555
C24_4 C25_4 1_555 1_555
C24_4 C26_4 1_555 1_555
C5_4 N3_2 1_555 1_555
H3_4 C5_4 1_555 1_555
C6_4 C4_4 1_555 1_555
H4_4 C6_4 1_555 1_555
H5_4 C6_4 1_555 1_555
H6_4 C6_4 1_555 1_555
C4_4 C5_4 1_555 1_555

#END
