
###############################################################################
#
# This file contains modified crystal structure data generated from the
# MOF subset of the Cambridge Structural Database (CSD) v543 
# hosted by the Cambridge Crystallographic Data Centre (CCDC).
#
# This work is licensed under the Creative Commons
# Attribution-NonCommercial-ShareAlike 4.0 International License.
# To view a copy of this license, visit
# http://creativecommons.org/licenses/by-nc-sa/4.0/
# or send a letter to
# Creative Commons, PO Box 1866, Mountain View, CA 94042, USA.
#
# CIF created using the CSD Python API on 29 September 2022
# The structure has been converted into the P1 space group
# The structure has a 3D framework
# The original CSD entry HULGAZ is in the monoclinic crystal system
# The framework has been calculated to contain at least 10.0% void space
# The void calculation uses a probe of radius 1.32A, grid spacing 0.4
#
###############################################################################

data_HULGAZ
_chemical_formula_moiety         '(C104 H80 Mn2 N8 O12)n'
_symmetry_cell_setting           triclinic
_symmetry_space_group_name_H-M   'P 1'
_symmetry_Int_Tables_number      1
_space_group_name_Hall           'P 1'
loop_
_symmetry_equiv_pos_site_id
_symmetry_equiv_pos_as_xyz
1 x,y,z
_cell_length_a                   8.47310(15)
_cell_length_b                   16.6335(3)
_cell_length_c                   17.9553(3)
_cell_angle_alpha                90
_cell_angle_beta                 92.6977(16)
_cell_angle_gamma                90
_cell_volume                     2527.77
loop_
_atom_site_label
_atom_site_type_symbol
_atom_site_fract_x
_atom_site_fract_y
_atom_site_fract_z
Mn1 Mn 0.2500 0.57034(2) 0.5000
O1 O 0.34816(18) 0.47950(10) 0.43422(8)
O2 O 0.56665(16) 0.41070(9) 0.41434(8)
N1 N 0.6239(2) 0.16894(10) 0.06545(9)
C1 C 0.4685(3) 0.16717(13) 0.07549(12)
H1 H 0.4076 0.1271 0.0521
C2 C 0.3953(2) 0.22286(13) 0.11940(12)
H2 H 0.2869 0.2195 0.1249
C3 C 0.4816(2) 0.28392(12) 0.15556(11)
C4 C 0.6451(2) 0.28636(13) 0.14511(11)
C5 C 0.7065(2) 0.22809(13) 0.09950(11)
H3 H 0.8143 0.2303 0.0919
C6 C 0.7556(3) 0.34935(15) 0.17833(14)
H4 H 0.7829 0.3360 0.2293
H5 H 0.7045 0.4009 0.1762
H6 H 0.8497 0.3513 0.1506
C7 C 0.3973(2) 0.34333(12) 0.20149(11)
C8 C 0.2552(3) 0.37730(13) 0.17462(12)
H7 H 0.2140 0.3629 0.1276
C9 C 0.1746(3) 0.43192(13) 0.21659(13)
H8 H 0.0810 0.4546 0.1973
C10 C 0.2331(2) 0.45308(13) 0.28782(11)
H9 H 0.1790 0.4899 0.3161
C11 C 0.3724(2) 0.41890(11) 0.31619(11)
C12 C 0.4544(2) 0.36477(12) 0.27310(11)
H10 H 0.5486 0.3426 0.2922
C13 C 0.4343(2) 0.43866(11) 0.39467(11)
O3 O 0.15184(18) 0.47950(10) 0.56578(8)
C14 C 0.0315(3) 0.16717(13) 0.92451(12)
H11 H 0.0924 0.1271 0.9479
C15 C 0.1047(2) 0.22286(13) 0.88060(12)
H12 H 0.2131 0.2195 0.8751
C16 C 0.0184(2) 0.28392(12) 0.84444(11)
C20 C 0.1027(2) 0.34333(12) 0.79851(11)
C21 C 0.2448(3) 0.37730(13) 0.82538(12)
H17 H 0.2860 0.3629 0.8724
C22 C 0.3254(3) 0.43192(13) 0.78341(13)
H18 H 0.4190 0.4546 0.8027
C23 C 0.2669(2) 0.45308(13) 0.71218(11)
H19 H 0.3210 0.4899 0.6839
C24 C 0.1276(2) 0.41890(11) 0.68381(11)
C25 C 0.0456(2) 0.36477(12) 0.72690(11)
C26 C 0.0657(2) 0.43866(11) 0.60533(11)
Mn3 Mn 0.7500 0.07034(2) 0.0000
Mn5 Mn 0.7500 0.42966(2) 0.5000
O5 O 0.43335(16) 0.58930(9) 0.58566(8)
O6 O 0.06665(16) 0.58930(9) 0.41434(8)
N3 N 0.1239(2) 0.66894(10) 0.56545(9)
N4 N 0.3761(2) 0.66894(10) 0.43455(9)
Mn3_2 Mn 0.7500 0.07034(2) 1.0000
O4 O 0.93335(16) 0.41070(9) 0.58566(8)
N2 N 0.8761(2) 0.16894(10) 0.93455(9)
C17 C 0.8549(2) 0.28636(13) 0.85489(11)
C18 C 0.7935(2) 0.22809(13) 0.90050(11)
H13 H 0.6857 0.2303 0.9081
C19 C 0.7444(3) 0.34935(15) 0.82167(14)
H14 H 0.7171 0.3360 0.7707
H15 H 0.7955 0.4009 0.8238
H16 H 0.6503 0.3513 0.8494
H20 H 0.9514 0.3426 0.7078
Mn5_2 Mn 0.2500 0.92966(2) -0.0000
O2_2 O 0.06665(16) 0.91070(9) 0.91434(8)
C4_2 C 0.1451(2) 0.78636(13) 0.64511(11)
C5_2 C 0.2065(2) 0.72809(13) 0.59950(11)
H3_2 H 0.3143 0.7303 0.5919
C6_2 C 0.2556(3) 0.84935(15) 0.67833(14)
H4_2 H 0.2829 0.8360 0.7293
H5_2 H 0.2045 0.9009 0.6762
H6_2 H 0.3497 0.8513 0.6506
H10_2 H 0.0486 0.8426 0.7922
Mn5_3 Mn 0.2500 0.92966(2) 1.0000
O5_2 O 0.93335(16) 0.08930(9) 0.08566(8)
O6_2 O 0.56665(16) 0.08930(9) 0.91434(8)
O3_2 O 0.65184(18) 0.97950(10) 0.06578(8)
O4_2 O 0.43335(16) 0.91070(9) 0.08566(8)
C14_2 C 0.5315(3) 0.66717(13) 0.42451(12)
H11_2 H 0.5924 0.6271 0.4479
C15_2 C 0.6047(2) 0.72286(13) 0.38060(12)
H12_2 H 0.7131 0.7195 0.3751
C16_2 C 0.5184(2) 0.78392(12) 0.34444(11)
C17_2 C 0.3549(2) 0.78636(13) 0.35489(11)
C18_2 C 0.2935(2) 0.72809(13) 0.40050(11)
H13_2 H 0.1857 0.7303 0.4081
C19_2 C 0.2444(3) 0.84935(15) 0.32167(14)
H14_2 H 0.2171 0.8360 0.2707
H15_2 H 0.2955 0.9009 0.3238
H16_2 H 0.1503 0.8513 0.3494
C20_2 C 0.6027(2) 0.84333(12) 0.29851(11)
C21_2 C 0.7448(3) 0.87730(13) 0.32538(12)
H17_2 H 0.7860 0.8629 0.3724
C22_2 C 0.8254(3) 0.93192(13) 0.28341(13)
H18_2 H 0.9190 0.9546 0.3027
C23_2 C 0.7669(2) 0.95308(13) 0.21218(11)
H19_2 H 0.8210 0.9899 0.1839
C24_2 C 0.6276(2) 0.91890(11) 0.18381(11)
C25_2 C 0.5456(2) 0.86477(12) 0.22690(11)
H20_2 H 0.4514 0.8426 0.2078
C26_2 C 0.5657(2) 0.93866(11) 0.10533(11)
O1_2 O 0.84816(18) 0.97950(10) 0.93422(8)
C1_2 C 0.9685(3) 0.66717(13) 0.57549(12)
H1_2 H 0.9076 0.6271 0.5521
C2_2 C 0.8953(2) 0.72286(13) 0.61940(12)
H2_2 H 0.7869 0.7195 0.6249
C3_2 C 0.9816(2) 0.78392(12) 0.65556(11)
C7_2 C 0.8973(2) 0.84333(12) 0.70149(11)
C8_2 C 0.7552(3) 0.87730(13) 0.67462(12)
H7_2 H 0.7140 0.8629 0.6276
C9_2 C 0.6746(3) 0.93192(13) 0.71659(13)
H8_2 H 0.5810 0.9546 0.6973
C10_2 C 0.7331(2) 0.95308(13) 0.78782(11)
H9_2 H 0.6790 0.9899 0.8161
C11_2 C 0.8724(2) 0.91890(11) 0.81619(11)
C12_2 C 0.9544(2) 0.86477(12) 0.77310(11)
C13_2 C 0.9343(2) 0.93866(11) 0.89467(11)
N2_2 N 0.1239(2) 0.83106(10) 0.06545(9)
C17_3 C 0.1451(2) 0.71364(13) 0.14511(11)
C18_3 C 0.2065(2) 0.77191(13) 0.09950(11)
H13_3 H 0.3143 0.7697 0.0919
C19_3 C 0.2556(3) 0.65065(15) 0.17833(14)
H14_3 H 0.2829 0.6640 0.2293
H15_3 H 0.2045 0.5991 0.1762
H16_3 H 0.3497 0.6487 0.1506
H20_3 H 0.0486 0.6574 0.2922
O1_3 O 0.65184(18) 0.52050(10) 0.56578(8)
N1_2 N 0.3761(2) 0.83106(10) 0.93455(9)
C1_3 C 0.5315(3) 0.83283(13) 0.92451(12)
H1_3 H 0.5924 0.8729 0.9479
C2_3 C 0.6047(2) 0.77714(13) 0.88060(12)
H2_3 H 0.7131 0.7805 0.8751
C3_3 C 0.5184(2) 0.71608(12) 0.84444(11)
C4_3 C 0.3549(2) 0.71364(13) 0.85489(11)
C5_3 C 0.2935(2) 0.77191(13) 0.90050(11)
H3_3 H 0.1857 0.7697 0.9081
C6_3 C 0.2444(3) 0.65065(15) 0.82167(14)
H4_3 H 0.2171 0.6640 0.7707
H5_3 H 0.2955 0.5991 0.8238
H6_3 H 0.1503 0.6487 0.8494
C7_3 C 0.6027(2) 0.65667(12) 0.79851(11)
C8_3 C 0.7448(3) 0.62270(13) 0.82538(12)
H7_3 H 0.7860 0.6371 0.8724
C9_3 C 0.8254(3) 0.56808(13) 0.78341(13)
H8_3 H 0.9190 0.5454 0.8027
C10_3 C 0.7669(2) 0.54692(13) 0.71218(11)
H9_3 H 0.8210 0.5101 0.6839
C11_3 C 0.6276(2) 0.58110(11) 0.68381(11)
C12_3 C 0.5456(2) 0.63523(12) 0.72690(11)
H10_3 H 0.4514 0.6574 0.7078
C13_3 C 0.5657(2) 0.56134(11) 0.60533(11)
O3_3 O 0.84816(18) 0.52050(10) 0.43422(8)
C14_3 C 0.9685(3) 0.83283(13) 0.07549(12)
H11_3 H 0.9076 0.8729 0.0521
C15_3 C 0.8953(2) 0.77714(13) 0.11940(12)
H12_3 H 0.7869 0.7805 0.1249
C16_3 C 0.9816(2) 0.71608(12) 0.15556(11)
C20_3 C 0.8973(2) 0.65667(12) 0.20149(11)
C21_3 C 0.7552(3) 0.62270(13) 0.17462(12)
H17_3 H 0.7140 0.6371 0.1276
C22_3 C 0.6746(3) 0.56808(13) 0.21659(13)
H18_3 H 0.5810 0.5454 0.1973
C23_3 C 0.7331(2) 0.54692(13) 0.28782(11)
H19_3 H 0.6790 0.5101 0.3161
C24_3 C 0.8724(2) 0.58110(11) 0.31619(11)
C25_3 C 0.9544(2) 0.63523(12) 0.27310(11)
C26_3 C 0.9343(2) 0.56134(11) 0.39467(11)
N3_2 N 0.8761(2) 0.33106(10) 0.43455(9)
N4_2 N 0.6239(2) 0.33106(10) 0.56545(9)
O1_4 O 0.15184(18) 0.02050(10) 0.06578(8)
C1_4 C 0.0315(3) 0.33283(13) 0.42451(12)
H1_4 H 0.0924 0.3729 0.4479
C2_4 C 0.1047(2) 0.27714(13) 0.38060(12)
H2_4 H 0.2131 0.2805 0.3751
C3_4 C 0.0184(2) 0.21608(12) 0.34444(11)
C7_4 C 0.1027(2) 0.15667(12) 0.29851(11)
C8_4 C 0.2448(3) 0.12270(13) 0.32538(12)
H7_4 H 0.2860 0.1371 0.3724
C9_4 C 0.3254(3) 0.06808(13) 0.28341(13)
H8_4 H 0.4190 0.0454 0.3027
C10_4 C 0.2669(2) 0.04692(13) 0.21218(11)
H9_4 H 0.3210 0.0101 0.1839
C11_4 C 0.1276(2) 0.08110(11) 0.18381(11)
C12_4 C 0.0456(2) 0.13523(12) 0.22690(11)
C13_4 C 0.0657(2) 0.06134(11) 0.10533(11)
O3_4 O 0.34816(18) 0.02050(10) 0.93422(8)
C14_4 C 0.4685(3) 0.33283(13) 0.57549(12)
H11_4 H 0.4076 0.3729 0.5521
C15_4 C 0.3953(2) 0.27714(13) 0.61940(12)
H12_4 H 0.2869 0.2805 0.6249
C16_4 C 0.4816(2) 0.21608(12) 0.65556(11)
C17_4 C 0.6451(2) 0.21364(13) 0.64511(11)
C18_4 C 0.7065(2) 0.27191(13) 0.59950(11)
H13_4 H 0.8143 0.2697 0.5919
C19_4 C 0.7556(3) 0.15065(15) 0.67833(14)
H14_4 H 0.7829 0.1640 0.7293
H15_4 H 0.7045 0.0991 0.6762
H16_4 H 0.8497 0.1487 0.6506
C20_4 C 0.3973(2) 0.15667(12) 0.70149(11)
C21_4 C 0.2552(3) 0.12270(13) 0.67462(12)
H17_4 H 0.2140 0.1371 0.6276
C22_4 C 0.1746(3) 0.06808(13) 0.71659(13)
H18_4 H 0.0810 0.0454 0.6973
C23_4 C 0.2331(2) 0.04692(13) 0.78782(11)
H19_4 H 0.1790 0.0101 0.8161
C24_4 C 0.3724(2) 0.08110(11) 0.81619(11)
C25_4 C 0.4544(2) 0.13523(12) 0.77310(11)
H20_4 H 0.5486 0.1574 0.7922
C26_4 C 0.4343(2) 0.06134(11) 0.89467(11)
C4_4 C 0.8549(2) 0.21364(13) 0.35489(11)
C5_4 C 0.7935(2) 0.27191(13) 0.40050(11)
H3_4 H 0.6857 0.2697 0.4081
C6_4 C 0.7444(3) 0.15065(15) 0.32167(14)
H4_4 H 0.7171 0.1640 0.2707
H5_4 H 0.7955 0.0991 0.3238
H6_4 H 0.6503 0.1487 0.3494
H10_4 H 0.9514 0.1574 0.2078
loop_
_geom_bond_atom_site_label_1
_geom_bond_atom_site_label_2
_geom_bond_site_symmetry_1
_geom_bond_site_symmetry_2
Mn1 O1 1_555 1_555
O1 C13 1_555 1_555
O2 C13 1_555 1_555
N1 C1 1_555 1_555
C1 H1 1_555 1_555
C2 C1 1_555 1_555
H2 C2 1_555 1_555
C3 C2 1_555 1_555
C4 C3 1_555 1_555
C5 N1 1_555 1_555
H3 C5 1_555 1_555
C6 C4 1_555 1_555
H4 C6 1_555 1_555
H5 C6 1_555 1_555
H6 C6 1_555 1_555
C7 C3 1_555 1_555
C8 C7 1_555 1_555
H7 C8 1_555 1_555
C9 C8 1_555 1_555
H8 C9 1_555 1_555
C10 C9 1_555 1_555
H9 C10 1_555 1_555
C11 C10 1_555 1_555
C12 C7 1_555 1_555
H10 C12 1_555 1_555
C13 C11 1_555 1_555
O3 Mn1 1_555 1_555
C14 H11 1_555 1_555
C15 C14 1_555 1_555
H12 C15 1_555 1_555
C16 C15 1_555 1_555
C20 C16 1_555 1_555
C21 C20 1_555 1_555
H17 C21 1_555 1_555
C22 C21 1_555 1_555
H18 C22 1_555 1_555
C23 C22 1_555 1_555
H19 C23 1_555 1_555
C24 C23 1_555 1_555
C25 C20 1_555 1_555
C26 O3 1_555 1_555
Mn3 N1 1_555 1_555
Mn5 O2 1_555 1_555
O5 Mn1 1_555 1_555
O6 Mn1 1_555 1_555
N3 Mn1 1_555 1_555
N4 Mn1 1_555 1_555
C4 C5 1_555 1_555
C11 C12 1_555 1_555
C24 C25 1_555 1_555
C24 C26 1_555 1_555
C18 N2 1_555 1_555
H13 C18 1_555 1_555
C19 C17 1_555 1_555
H14 C19 1_555 1_555
H15 C19 1_555 1_555
H16 C19 1_555 1_555
Mn3_2 N2 1_555 1_555
Mn5 O4 1_555 1_555
C17 C18 1_555 1_555
C5_2 N3 1_555 1_555
H3_2 C5_2 1_555 1_555
C6_2 C4_2 1_555 1_555
H4_2 C6_2 1_555 1_555
H5_2 C6_2 1_555 1_555
H6_2 C6_2 1_555 1_555
Mn5_3 O2_2 1_555 1_555
C4_2 C5_2 1_555 1_555
O5_2 Mn3 1_555 1_555
O6_2 Mn3_2 1_555 1_555
O4_2 C26_2 1_555 1_555
N4 C14_2 1_555 1_555
C14_2 H11_2 1_555 1_555
C15_2 C14_2 1_555 1_555
H12_2 C15_2 1_555 1_555
C16_2 C15_2 1_555 1_555
C17_2 C16_2 1_555 1_555
C18_2 N4 1_555 1_555
H13_2 C18_2 1_555 1_555
C19_2 C17_2 1_555 1_555
H14_2 C19_2 1_555 1_555
H15_2 C19_2 1_555 1_555
H16_2 C19_2 1_555 1_555
C20_2 C16_2 1_555 1_555
C21_2 C20_2 1_555 1_555
H17_2 C21_2 1_555 1_555
C22_2 C21_2 1_555 1_555
H18_2 C22_2 1_555 1_555
C23_2 C22_2 1_555 1_555
H19_2 C23_2 1_555 1_555
C24_2 C23_2 1_555 1_555
C25_2 C20_2 1_555 1_555
H20_2 C25_2 1_555 1_555
C26_2 O3_2 1_555 1_555
Mn5_2 O4_2 1_555 1_555
C17_2 C18_2 1_555 1_555
C24_2 C25_2 1_555 1_555
C24_2 C26_2 1_555 1_555
O1_2 C13_2 1_555 1_555
C1_2 H1_2 1_555 1_555
C2_2 C1_2 1_555 1_555
H2_2 C2_2 1_555 1_555
C3_2 C2_2 1_555 1_555
C7_2 C3_2 1_555 1_555
C8_2 C7_2 1_555 1_555
H7_2 C8_2 1_555 1_555
C9_2 C8_2 1_555 1_555
H8_2 C9_2 1_555 1_555
C10_2 C9_2 1_555 1_555
H9_2 C10_2 1_555 1_555
C11_2 C10_2 1_555 1_555
C12_2 C7_2 1_555 1_555
C13_2 C11_2 1_555 1_555
C11_2 C12_2 1_555 1_555
C18_3 N2_2 1_555 1_555
H13_3 C18_3 1_555 1_555
C19_3 C17_3 1_555 1_555
H14_3 C19_3 1_555 1_555
H15_3 C19_3 1_555 1_555
H16_3 C19_3 1_555 1_555
Mn5_2 N2_2 1_555 1_555
C17_3 C18_3 1_555 1_555
Mn5 O1_3 1_555 1_555
O1_3 C13_3 1_555 1_555
O5 C13_3 1_555 1_555
N1_2 C1_3 1_555 1_555
C1_3 H1_3 1_555 1_555
C2_3 C1_3 1_555 1_555
H2_3 C2_3 1_555 1_555
C3_3 C2_3 1_555 1_555
C4_3 C3_3 1_555 1_555
C5_3 N1_2 1_555 1_555
H3_3 C5_3 1_555 1_555
C6_3 C4_3 1_555 1_555
H4_3 C6_3 1_555 1_555
H5_3 C6_3 1_555 1_555
H6_3 C6_3 1_555 1_555
C7_3 C3_3 1_555 1_555
C8_3 C7_3 1_555 1_555
H7_3 C8_3 1_555 1_555
C9_3 C8_3 1_555 1_555
H8_3 C9_3 1_555 1_555
C10_3 C9_3 1_555 1_555
H9_3 C10_3 1_555 1_555
C11_3 C10_3 1_555 1_555
C12_3 C7_3 1_555 1_555
H10_3 C12_3 1_555 1_555
C13_3 C11_3 1_555 1_555
O3_3 Mn5 1_555 1_555
C14_3 H11_3 1_555 1_555
C15_3 C14_3 1_555 1_555
H12_3 C15_3 1_555 1_555
C16_3 C15_3 1_555 1_555
C20_3 C16_3 1_555 1_555
C21_3 C20_3 1_555 1_555
H17_3 C21_3 1_555 1_555
C22_3 C21_3 1_555 1_555
H18_3 C22_3 1_555 1_555
C23_3 C22_3 1_555 1_555
H19_3 C23_3 1_555 1_555
C24_3 C23_3 1_555 1_555
C25_3 C20_3 1_555 1_555
C26_3 O3_3 1_555 1_555
Mn5_3 N1_2 1_555 1_555
N3_2 Mn5 1_555 1_555
N4_2 Mn5 1_555 1_555
C4_3 C5_3 1_555 1_555
C11_3 C12_3 1_555 1_555
C24_3 C25_3 1_555 1_555
C24_3 C26_3 1_555 1_555
O1_4 C13_4 1_555 1_555
C1_4 H1_4 1_555 1_555
C2_4 C1_4 1_555 1_555
H2_4 C2_4 1_555 1_555
C3_4 C2_4 1_555 1_555
C7_4 C3_4 1_555 1_555
C8_4 C7_4 1_555 1_555
H7_4 C8_4 1_555 1_555
C9_4 C8_4 1_555 1_555
H8_4 C9_4 1_555 1_555
C10_4 C9_4 1_555 1_555
H9_4 C10_4 1_555 1_555
C11_4 C10_4 1_555 1_555
C12_4 C7_4 1_555 1_555
C13_4 C11_4 1_555 1_555
C11_4 C12_4 1_555 1_555
O6_2 C26_4 1_555 1_555
N4_2 C14_4 1_555 1_555
C14_4 H11_4 1_555 1_555
C15_4 C14_4 1_555 1_555
H12_4 C15_4 1_555 1_555
C16_4 C15_4 1_555 1_555
C17_4 C16_4 1_555 1_555
C18_4 N4_2 1_555 1_555
H13_4 C18_4 1_555 1_555
C19_4 C17_4 1_555 1_555
H14_4 C19_4 1_555 1_555
H15_4 C19_4 1_555 1_555
H16_4 C19_4 1_555 1_555
C20_4 C16_4 1_555 1_555
C21_4 C20_4 1_555 1_555
H17_4 C21_4 1_555 1_555
C22_4 C21_4 1_555 1_555
H18_4 C22_4 1_555 1_555
C23_4 C22_4 1_555 1_555
H19_4 C23_4 1_555 1_555
C24_4 C23_4 1_555 1_555
C25_4 C20_4 1_555 1_555
H20_4 C25_4 1_555 1_555
C26_4 O3_4 1_555 1_555
C17_4 C18_4 1_555 1_555
C24_4 C25_4 1_555 1_555
C24_4 C26_4 1_555 1_555
C5_4 N3_2 1_555 1_555
H3_4 C5_4 1_555 1_555
C6_4 C4_4 1_555 1_555
H4_4 C6_4 1_555 1_555
H5_4 C6_4 1_555 1_555
H6_4 C6_4 1_555 1_555
C4_4 C5_4 1_555 1_555

#END
