
###############################################################################
#
# This file contains modified crystal structure data generated from the
# MOF subset of the Cambridge Structural Database (CSD) v543 
# hosted by the Cambridge Crystallographic Data Centre (CCDC).
#
# This work is licensed under the Creative Commons
# Attribution-NonCommercial-ShareAlike 4.0 International License.
# To view a copy of this license, visit
# http://creativecommons.org/licenses/by-nc-sa/4.0/
# or send a letter to
# Creative Commons, PO Box 1866, Mountain View, CA 94042, USA.
#
# CIF created using the CSD Python API on 29 September 2022
# The structure has been converted into the P1 space group
# The structure has a 3D framework
# The original CSD entry HULQIR is in the triclinic crystal system
# The framework has been calculated to contain at least 10.0% void space
# The void calculation uses a probe of radius 1.32A, grid spacing 0.4
#
###############################################################################

data_HULQIR
_chemical_formula_moiety         '(C66 H52 Gd4 N12 O38)n'
_symmetry_cell_setting           triclinic
_symmetry_space_group_name_H-M   'P 1'
_symmetry_Int_Tables_number      1
_space_group_name_Hall           'P 1'
loop_
_symmetry_equiv_pos_site_id
_symmetry_equiv_pos_as_xyz
1 x,y,z
_cell_length_a                   12.2260(5)
_cell_length_b                   14.8722(6)
_cell_length_c                   16.0462(6)
_cell_angle_alpha                93.1970(10)
_cell_angle_beta                 91.8830(10)
_cell_angle_gamma                113.8510(10)
_cell_volume                     2659.41
loop_
_atom_site_label
_atom_site_type_symbol
_atom_site_fract_x
_atom_site_fract_y
_atom_site_fract_z
C10 C 0.8620(6) 0.3260(5) 0.0341(5)
H4 H 0.8729 0.2770 0.0622
C11 C 0.7835(6) 0.3671(5) 0.0508(4)
H5 H 0.7333 0.3520 0.0950
C12 C 0.5078(3) 0.3879(2) 0.1258(2)
C13 C 0.5075(3) 0.3173(2) 0.1893(2)
C14 C 0.4044(3) 0.2313(3) 0.1995(2)
C15 C 0.4079(3) 0.1689(3) 0.2596(2)
H6 H 0.3396 0.1124 0.2666
C16 C 0.5113(3) 0.1887(2) 0.3098(2)
C17 C 0.6148(3) 0.2742(3) 0.2993(2)
C18 C 0.6108(3) 0.3373(3) 0.2398(2)
H7 H 0.6788 0.3943 0.2335
C19 C 0.5083(3) 0.1188(2) 0.3742(2)
C20 C 0.3312(6) 0.1946(4) 0.4869(4)
H8 H 0.4099 0.2143 0.4718
C21 C 0.1594(7) 0.1973(5) 0.5121(4)
H9 H 0.0968 0.2172 0.5172
C22 C 0.1587(5) 0.1089(4) 0.5280(4)
H10 H 0.0944 0.0574 0.5480
H11 H 0.1468 0.0499 0.3556
N3 N 0.2659(3) 0.1058(2) 0.5107(2)
N4 N 0.2725(6) 0.2519(4) 0.4869(4)
H17 H 0.2996 0.3119 0.4736
O7 O 0.8586(2) 0.6253(2) 0.09961(17)
H21 H 0.9135 0.6902 0.1047
H22 H 0.8527 0.6036 0.1536
O8 O 0.6054(2) 0.45682(18) 0.11218(15)
O9 O 0.4074(2) 0.37331(19) 0.09019(16)
O10 O 0.2995(3) 0.2055(2) 0.1530(2)
H23 H 0.3094 0.2434 0.1159
O11 O 0.7187(3) 0.2988(2) 0.3457(2)
H24 H 0.7106 0.2566 0.3786
O12 O 0.4094(2) 0.05276(18) 0.38789(15)
O13 O 0.6072(2) 0.13311(19) 0.41283(16)
Gd4 Gd 0.31223(2) 0.44738(2) 0.00098(2)
Gd7 Gd 0.68373(2) 0.04443(2) 0.50278(2)
O21 O 0.4825(2) 0.07702(18) 0.57126(15)
O22 O 0.6628(2) 0.6777(2) 0.09031(17)
Gd1 Gd 0.68777(2) 0.55262(2) 0.99902(2)
C1 C 0.5635(3) 0.1418(2) 0.6183(2)
C2 C 0.5331(3) 0.1915(3) 0.6916(2)
C3 C 0.6242(3) 0.2618(3) 0.7459(3)
C4 C 0.5934(3) 0.3101(3) 0.8113(3)
H1 H 0.6536 0.3568 0.8469
C5 C 0.4740(3) 0.2899(3) 0.8248(2)
C6 C 0.3832(3) 0.2177(3) 0.7720(2)
C7 C 0.4141(3) 0.1698(3) 0.7065(2)
H2 H 0.3539 0.1221 0.6716
C8 C 0.4460(3) 0.3472(2) 0.8940(2)
C9 C 0.8724(5) 0.4318(4) 0.9463(4)
H3 H 0.8961 0.4701 0.9009
N1 N 0.7879(3) 0.4327(3) 0.9950(2)
N2 N 0.9201(5) 0.3701(4) 0.9693(4)
H16 H 0.9776 0.3607 0.9465
O1 O 0.6734(2) 0.1668(2) 0.60437(17)
O3 O 0.7426(3) 0.2868(4) 0.7367(3)
H19 H 0.7508 0.2532 0.6971
O4 O 0.2649(3) 0.1927(3) 0.7830(2)
H20 H 0.2578 0.2267 0.8227
O5 O 0.5285(2) 0.41935(18) 0.93260(16)
O6 O 0.3372(2) 0.3223(2) 0.90969(17)
O23 O 0.5926(2) 0.62669(19) 0.90981(16)
O25 O 0.7719(3) 0.5546(2) 0.85723(18)
O26 O 0.8490(2) 0.6912(2) 0.93942(16)
Gd2 Gd 0.31627(2) 0.95557(2) 0.49722(2)
C23 C 0.1092(5) 0.9814(4) 0.3497(3)
C25 C 0.0673(5) 0.8288(4) 0.3625(3)
H13 H 0.0701 0.7706 0.3786
C26 C 0.1387(3) 0.8482(3) 0.6082(2)
C27 C 0.0609(3) 0.7941(3) 0.6749(2)
C32 C 0.0600(4) 0.8467(3) 0.7498(3)
H15 H 0.1054 0.9144 0.7569
N5 N 0.1434(3) 0.9184(3) 0.3926(2)
N6 N 0.0130(5) 0.9285(5) 0.2979(3)
O14 O 0.1994(3) 0.9397(2) 0.61932(19)
O15 O 0.1447(2) 0.8006(2) 0.54149(17)
H25 H 0.0330 0.6753 0.5596
O17 O 0.0025(4) 0.8512(3) 0.8884(3)
O20 O 0.3266(2) 0.8332(2) 0.39563(17)
O24 O 0.3928(2) 0.86689(19) 0.58717(16)
C24 C 0.9865(5) 0.8325(4) 0.3067(3)
H12 H 0.9237 0.7790 0.2790
C28 C 0.9921(4) 0.6925(3) 0.6637(2)
C29 C 0.9217(4) 0.6435(3) 0.7276(2)
H14 H 0.8760 0.5759 0.7205
C30 C 0.9201(3) 0.6963(3) 0.8020(2)
C31 C 0.9908(4) 0.7972(3) 0.8136(2)
C33 C 0.8431(3) 0.6440(3) 0.8694(2)
H18 H 0.9754 0.9517 0.2651
O16 O 0.9886(4) 0.6393(3) 0.5923(3)
H26 H 0.9584 0.8158 0.9216
C24_2 C 0.0135(5) 0.1675(4) 0.6933(3)
H12_2 H 0.0763 0.2210 0.7210
C28_2 C 0.0079(4) 0.3075(3) 0.3363(2)
C29_2 C 0.0783(4) 0.3565(3) 0.2724(2)
H14_2 H 0.1240 0.4241 0.2795
C30_2 C 0.0799(3) 0.3037(3) 0.1980(2)
C31_2 C 0.0092(4) 0.2028(3) 0.1864(2)
C33_2 C 0.1569(3) 0.3560(3) 0.1306(2)
H18_2 H 0.0246 0.0483 0.7349
O16_2 O 0.0114(4) 0.3607(3) 0.4077(3)
H26_2 H 0.0416 0.1842 0.0784
O18 O 0.2281(3) 0.4454(2) 0.14277(18)
O19 O 0.1510(2) 0.3088(2) 0.06058(16)
C23_2 C 0.8908(5) 0.0186(4) 0.6503(3)
C25_2 C 0.9327(5) 0.1712(4) 0.6375(3)
H13_2 H 0.9299 0.2294 0.6214
C26_2 C 0.8613(3) 0.1518(3) 0.3918(2)
C27_2 C 0.9391(3) 0.2059(3) 0.3251(2)
C32_2 C 0.9400(4) 0.1533(3) 0.2502(3)
H15_2 H 0.8946 0.0856 0.2431
N5_2 N 0.8566(3) 0.0816(3) 0.6074(2)
N6_2 N 0.9870(5) 0.0715(5) 0.7021(3)
O14_2 O 0.8006(3) 0.0603(2) 0.38068(19)
O15_2 O 0.8553(2) 0.1994(2) 0.45851(17)
H25_2 H 0.9670 0.3247 0.4404
O17_2 O 0.9975(4) 0.1488(3) 0.1116(3)
C1_2 C 0.4365(3) 0.8582(2) 0.3817(2)
C2_2 C 0.4669(3) 0.8085(3) 0.3084(2)
C3_2 C 0.3758(3) 0.7382(3) 0.2541(3)
C4_2 C 0.4066(3) 0.6899(3) 0.1887(3)
H1_2 H 0.3464 0.6432 0.1531
C5_2 C 0.5260(3) 0.7101(3) 0.1752(2)
C6_2 C 0.6168(3) 0.7823(3) 0.2280(2)
C7_2 C 0.5859(3) 0.8302(3) 0.2935(2)
H2_2 H 0.6461 0.8779 0.3284
C8_2 C 0.5540(3) 0.6528(2) 0.1060(2)
C9_2 C 0.1276(5) 0.5682(4) 0.0537(4)
H3_2 H 0.1039 0.5299 0.0991
N1_2 N 0.2121(3) 0.5673(3) 0.0050(2)
N2_2 N 0.0799(5) 0.6299(4) 0.0307(4)
H16_2 H 0.0224 0.6393 0.0535
O2 O 0.5175(2) 0.92298(18) 0.42874(15)
O3_2 O 0.2574(3) 0.7132(4) 0.2633(3)
H19_2 H 0.2492 0.7468 0.3029
O4_2 O 0.7351(3) 0.8073(3) 0.2170(2)
H20_2 H 0.7422 0.7733 0.1773
O5_2 O 0.4715(2) 0.58065(18) 0.06740(16)
C10_2 C 0.1380(6) 0.6740(5) 0.9659(5)
H4_2 H 0.1271 0.7230 0.9378
C11_2 C 0.2165(6) 0.6329(5) 0.9492(4)
H5_2 H 0.2667 0.6480 0.9050
C12_2 C 0.4922(3) 0.6121(2) 0.8742(2)
C13_2 C 0.4925(3) 0.6827(2) 0.8107(2)
C14_2 C 0.5956(3) 0.7687(3) 0.8005(2)
C15_2 C 0.5921(3) 0.8311(3) 0.7404(2)
H6_2 H 0.6604 0.8876 0.7334
C16_2 C 0.4887(3) 0.8113(2) 0.6902(2)
C17_2 C 0.3852(3) 0.7258(3) 0.7007(2)
C18_2 C 0.3892(3) 0.6627(3) 0.7602(2)
H7_2 H 0.3212 0.6057 0.7665
C19_2 C 0.4917(3) 0.8812(2) 0.6258(2)
C20_2 C 0.6688(6) 0.8054(4) 0.5131(4)
H8_2 H 0.5901 0.7857 0.5282
C21_2 C 0.8406(7) 0.8027(5) 0.4879(4)
H9_2 H 0.9032 0.7828 0.4828
C22_2 C 0.8413(5) 0.8911(4) 0.4720(4)
H10_2 H 0.9056 0.9426 0.4520
H11_2 H 0.8532 0.9501 0.6444
N3_2 N 0.7341(3) 0.8942(2) 0.4893(2)
N4_2 N 0.7275(6) 0.7481(4) 0.5131(4)
H17_2 H 0.7004 0.6881 0.5264
O7_2 O 0.1414(2) 0.3747(2) 0.90039(17)
H21_2 H 0.0865 0.3098 0.8953
H22_2 H 0.1473 0.3964 0.8464
O8_2 O 0.3946(2) 0.54318(18) 0.88782(15)
O10_2 O 0.7005(3) 0.7945(2) 0.8470(2)
H23_2 H 0.6906 0.7566 0.8841
O11_2 O 0.2813(3) 0.7012(2) 0.6543(2)
H24_2 H 0.2894 0.7434 0.6214
O12_2 O 0.5906(2) 0.94724(18) 0.61211(15)
loop_
_geom_bond_atom_site_label_1
_geom_bond_atom_site_label_2
_geom_bond_site_symmetry_1
_geom_bond_site_symmetry_2
C10 H4 1_555 1_555
C11 C10 1_555 1_555
H5 C11 1_555 1_555
C12 C13 1_555 1_555
C13 C14 1_555 1_555
C14 C15 1_555 1_555
C15 H6 1_555 1_555
C16 C15 1_555 1_555
C17 C16 1_555 1_555
C18 C13 1_555 1_555
H7 C18 1_555 1_555
C19 C16 1_555 1_555
C20 H8 1_555 1_555
C21 H9 1_555 1_555
C22 C21 1_555 1_555
H10 C22 1_555 1_555
N3 C20 1_555 1_555
N4 C20 1_555 1_555
H17 N4 1_555 1_555
H21 O7 1_555 1_555
H22 O7 1_555 1_555
O9 C12 1_555 1_555
O10 C14 1_555 1_555
H23 O10 1_555 1_555
O11 C17 1_555 1_555
H24 O11 1_555 1_555
O13 C19 1_555 1_555
Gd7 O13 1_555 1_555
C12 O8 1_555 1_555
C17 C18 1_555 1_555
C19 O12 1_555 1_555
C21 N4 1_555 1_555
C22 N3 1_555 1_555
O9 Gd4 1_555 1_555
Gd1 N1 1_555 1_555
C1 C2 1_555 1_555
C2 C3 1_555 1_555
C3 C4 1_555 1_555
C4 H1 1_555 1_555
C5 C4 1_555 1_555
C6 C5 1_555 1_555
C7 C2 1_555 1_555
H2 C7 1_555 1_555
C8 C5 1_555 1_555
C9 H3 1_555 1_555
N1 C9 1_555 1_555
N2 C9 1_555 1_555
H16 N2 1_555 1_555
O1 C1 1_555 1_555
O21 C1 1_555 1_555
O3 C3 1_555 1_555
H19 O3 1_555 1_555
O4 C6 1_555 1_555
H20 O4 1_555 1_555
O5 Gd1 1_555 1_555
O6 C8 1_555 1_555
Gd7 O1 1_555 1_555
O23 Gd1 1_555 1_555
O25 Gd1 1_555 1_555
O26 Gd1 1_555 1_555
C6 C7 1_555 1_555
C8 O5 1_555 1_555
H13 C25 1_555 1_555
C26 C27 1_555 1_555
C32 C27 1_555 1_555
H15 C32 1_555 1_555
N5 Gd2 1_555 1_555
N6 C23 1_555 1_555
O14 Gd2 1_555 1_555
O15 Gd2 1_555 1_555
O20 Gd2 1_555 1_555
O24 Gd2 1_555 1_555
C23 N5 1_555 1_555
C25 N5 1_555 1_555
C26 O14 1_555 1_555
C26 O15 1_555 1_555
C24 H12 1_555 1_555
C28 C29 1_555 1_555
C29 H14 1_555 1_555
C30 C29 1_555 1_555
C31 C30 1_555 1_555
C33 C30 1_555 1_555
O16 C28 1_555 1_555
O25 C33 1_555 1_555
O26 C33 1_555 1_555
C24_2 H12_2 1_555 1_555
C28_2 C29_2 1_555 1_555
C29_2 H14_2 1_555 1_555
C30_2 C29_2 1_555 1_555
C31_2 C30_2 1_555 1_555
C33_2 C30_2 1_555 1_555
O16_2 C28_2 1_555 1_555
O18 C33_2 1_555 1_555
O19 C33_2 1_555 1_555
Gd4 O18 1_555 1_555
O19 Gd4 1_555 1_555
H13_2 C25_2 1_555 1_555
C26_2 C27_2 1_555 1_555
C32_2 C27_2 1_555 1_555
H15_2 C32_2 1_555 1_555
N5_2 Gd7 1_555 1_555
N6_2 C23_2 1_555 1_555
O14_2 Gd7 1_555 1_555
O15_2 Gd7 1_555 1_555
C23_2 N5_2 1_555 1_555
C25_2 N5_2 1_555 1_555
C26_2 O14_2 1_555 1_555
C26_2 O15_2 1_555 1_555
Gd4 N1_2 1_555 1_555
C1_2 C2_2 1_555 1_555
C2_2 C3_2 1_555 1_555
C3_2 C4_2 1_555 1_555
C4_2 H1_2 1_555 1_555
C5_2 C4_2 1_555 1_555
C6_2 C5_2 1_555 1_555
C7_2 C2_2 1_555 1_555
H2_2 C7_2 1_555 1_555
C8_2 C5_2 1_555 1_555
C9_2 H3_2 1_555 1_555
N1_2 C9_2 1_555 1_555
N2_2 C9_2 1_555 1_555
H16_2 N2_2 1_555 1_555
O20 C1_2 1_555 1_555
O2 C1_2 1_555 1_555
O3_2 C3_2 1_555 1_555
H19_2 O3_2 1_555 1_555
O4_2 C6_2 1_555 1_555
H20_2 O4_2 1_555 1_555
O5_2 Gd4 1_555 1_555
O22 C8_2 1_555 1_555
C6_2 C7_2 1_555 1_555
C8_2 O5_2 1_555 1_555
C10_2 H4_2 1_555 1_555
C11_2 C10_2 1_555 1_555
H5_2 C11_2 1_555 1_555
C12_2 C13_2 1_555 1_555
C13_2 C14_2 1_555 1_555
C14_2 C15_2 1_555 1_555
C15_2 H6_2 1_555 1_555
C16_2 C15_2 1_555 1_555
C17_2 C16_2 1_555 1_555
C18_2 C13_2 1_555 1_555
H7_2 C18_2 1_555 1_555
C19_2 C16_2 1_555 1_555
C20_2 H8_2 1_555 1_555
C21_2 H9_2 1_555 1_555
C22_2 C21_2 1_555 1_555
H10_2 C22_2 1_555 1_555
N3_2 C20_2 1_555 1_555
N4_2 C20_2 1_555 1_555
H17_2 N4_2 1_555 1_555
H21_2 O7_2 1_555 1_555
H22_2 O7_2 1_555 1_555
O23 C12_2 1_555 1_555
O10_2 C14_2 1_555 1_555
H23_2 O10_2 1_555 1_555
O11_2 C17_2 1_555 1_555
H24_2 O11_2 1_555 1_555
O24 C19_2 1_555 1_555
C12_2 O8_2 1_555 1_555
C17_2 C18_2 1_555 1_555
C19_2 O12_2 1_555 1_555
C21_2 N4_2 1_555 1_555
C22_2 N3_2 1_555 1_555

#END
