
###############################################################################
#
# This file contains modified crystal structure data generated from the
# MOF subset of the Cambridge Structural Database (CSD) v543 
# hosted by the Cambridge Crystallographic Data Centre (CCDC).
#
# This work is licensed under the Creative Commons
# Attribution-NonCommercial-ShareAlike 4.0 International License.
# To view a copy of this license, visit
# http://creativecommons.org/licenses/by-nc-sa/4.0/
# or send a letter to
# Creative Commons, PO Box 1866, Mountain View, CA 94042, USA.
#
# CIF created using the CSD Python API on 29 September 2022
# The structure has been converted into the P1 space group
# The structure has a 3D framework
# The original CSD entry HULQEN is in the triclinic crystal system
# The framework has been calculated to contain at least 10.0% void space
# The void calculation uses a probe of radius 1.32A, grid spacing 0.4
#
###############################################################################

data_HULQEN
_chemical_formula_moiety         '(C36 H40 Gd2 N4 O22)n'
_symmetry_cell_setting           triclinic
_symmetry_space_group_name_H-M   'P 1'
_symmetry_Int_Tables_number      1
_space_group_name_Hall           'P 1'
loop_
_symmetry_equiv_pos_site_id
_symmetry_equiv_pos_as_xyz
1 x,y,z
_cell_length_a                   10.6393(13)
_cell_length_b                   11.1570(13)
_cell_length_c                   11.7912(15)
_cell_angle_alpha                97.296(3)
_cell_angle_beta                 111.893(3)
_cell_angle_gamma                101.042(3)
_cell_volume                     1244.04
loop_
_atom_site_label
_atom_site_type_symbol
_atom_site_fract_x
_atom_site_fract_y
_atom_site_fract_z
_atom_site_U_iso_or_equiv
_atom_site_thermal_displace_type
Gd4 Gd 0.10941(3) 0.53613(3) 0.69485(3) 0.0200 Uani
C19 C 0.6976(8) 0.2374(7) 0.1432(8) 0.0329 Uani
C20 C 0.5941(8) 0.1141(7) 0.0704(8) 0.0375 Uani
C21 C 0.6368(9) 0.0255(8) 0.0108(10) 0.0483 Uani
H21 H 0.7288 0.0430 0.0176 0.0580 Uiso
C22 C 0.4557(9) 0.0897(8) 0.0594(10) 0.0502 Uani
O12 O 0.8136(5) 0.2669(5) 0.1382(5) 0.0314 Uani
O13 O 0.6608(6) 0.3116(5) 0.2086(6) 0.0429 Uani
O14 O 0.4061(8) 0.1727(8) 0.1127(10) 0.0937 Uani
H22 H 0.4691 0.2366 0.1513 0.1400 Uiso
Gd7 Gd 0.89059(3) 0.46387(3) 0.30515(3) 0.0200 Uani
C1 C 0.3024(8) 0.7626(7) 0.8568(8) 0.0329 Uani
C2 C 0.4059(8) 0.8859(7) 0.9296(8) 0.0375 Uani
C3 C 0.3632(9) 0.9745(8) 0.9892(10) 0.0483 Uani
H1 H 0.2712 0.9570 0.9824 0.0580 Uiso
C4 C 0.5443(9) 0.9103(8) 0.9406(10) 0.0502 Uani
C5 C 0.2064(7) 0.4855(6) 0.4360(7) 0.0240 Uani
C6 C 0.3583(7) 0.4941(7) 0.4684(7) 0.0274 Uani
C7 C 0.4544(8) 0.5333(8) 0.5926(7) 0.0322 Uani
H2 H 0.4238 0.5555 0.6547 0.0380 Uiso
C8 C 0.4037(8) 0.4602(8) 0.3746(8) 0.0359 Uani
C11 C 0.0032(9) 0.0731(7) 0.6046(7) 0.0308 Uani
H3 H 0.0050 0.1229 0.6749 0.0370 Uiso
C13 C 0.1172(12) 0.3759(10) 0.9259(10) 0.0527 Uani
H4 H 0.2101 0.3744 0.9680 0.0630 Uiso
C14 C 0.0542(16) 0.1897(13) 0.9968(15) 0.0835 Uani
H6 H 0.1053 0.1442 0.9637 0.1260 Uiso
C16 C 0.3105(11) 0.3303(10) 0.7330(11) 0.0598 Uani
H11 H 0.2401 0.2772 0.6607 0.0710 Uiso
C17 C 0.434(3) 0.169(2) 0.743(2) 0.1673 Uani
H12 H 0.5238 0.1581 0.7949 0.2490 Uiso
H13 H 0.3609 0.1063 0.7461 0.2490 Uiso
H14 H 0.4258 0.1613 0.6583 0.2490 Uiso
C18 C 0.5380(16) 0.3722(18) 0.8916(18) 0.1219 Uani
H15 H 0.6110 0.3302 0.9203 0.1830 Uiso
H16 H 0.5725 0.4465 0.8675 0.1830 Uiso
H17 H 0.5092 0.3946 0.9576 0.1830 Uiso
N1 N 0.0217(9) 0.2880(8) 0.9290(8) 0.0506 Uani
N2 N 0.4237(10) 0.2928(10) 0.7886(10) 0.0666 Uani
O1 O 0.1864(5) 0.7331(5) 0.8618(5) 0.0314 Uani
O2 O 0.3392(6) 0.6884(5) 0.7914(6) 0.0429 Uani
O3 O 0.5939(8) 0.8273(8) 0.8873(10) 0.0937 Uani
H18 H 0.5309 0.7634 0.8487 0.1400 Uiso
O4 O 0.1645(5) 0.5059(5) 0.5212(5) 0.0303 Uani
O5 O 0.1232(5) 0.4573(5) 0.3214(5) 0.0335 Uani
O6 O 0.3173(6) 0.4204(8) 0.2515(5) 0.0608 Uani
H19 H 0.2368 0.4198 0.2419 0.0910 Uiso
O10 O 0.0953(7) 0.4627(6) 0.8710(6) 0.0466 Uani
O11 O 0.2913(6) 0.4280(6) 0.7686(6) 0.0472 Uani
C23 C 0.7936(7) 0.5145(6) 0.5640(7) 0.0240 Uani
C24 C 0.6417(7) 0.5059(7) 0.5316(7) 0.0274 Uani
C25 C 0.5456(8) 0.4667(8) 0.4074(7) 0.0322 Uani
H23 H 0.5762 0.4445 0.3453 0.0380 Uiso
C26 C 0.5963(8) 0.5398(8) 0.6254(8) 0.0359 Uani
O15 O 0.8355(5) 0.4941(5) 0.4788(5) 0.0303 Uani
O16 O 0.6827(6) 0.5796(8) 0.7485(5) 0.0608 Uani
H24 H 0.7632 0.5802 0.7581 0.0910 Uiso
O17 O 0.8768(5) 0.5427(5) 0.6786(5) 0.0335 Uani
O29 O 0.0710(6) 0.7152(4) 0.6058(5) 0.0304 Uani
C27 C 0.0343(7) 0.7481(6) 0.5021(6) 0.0212 Uani
C28 C 0.0206(7) 0.8799(6) 0.5042(6) 0.0249 Uani
C30 C 0.0241(9) 0.9565(7) 0.6109(7) 0.0304 Uani
O18 O 0.0056(5) 0.6786(4) 0.3984(5) 0.0288 Uani
O19 O 0.0470(9) 0.9202(6) 0.7219(6) 0.0528 Uani
H26 H 0.0580 0.8493 0.7156 0.0790 Uiso
H28 H 0.0314 0.8663 0.0125 0.1260 Uiso
C33 C 0.1250(13) 0.7097(17) 0.1303(16) 0.0944 Uani
H31 H 0.1834 0.7809 0.1201 0.1410 Uiso
H32 H 0.1376 0.6344 0.0919 0.1410 Uiso
H33 H 0.1506 0.7124 0.2179 0.1410 Uiso
C9 C 0.9657(7) 0.2519(6) 0.4979(6) 0.0212 Uani
C10 C 0.9794(7) 0.1201(6) 0.4958(6) 0.0249 Uani
C12 C 0.9759(9) 0.0435(7) 0.3891(7) 0.0304 Uani
H5 H 0.9686 0.1337 0.9875 0.1260 Uiso
C15 C 0.8750(13) 0.2903(17) 0.8697(16) 0.0944 Uani
H8 H 0.8166 0.2191 0.8799 0.1410 Uiso
H9 H 0.8624 0.3656 0.9081 0.1410 Uiso
H10 H 0.8494 0.2876 0.7821 0.1410 Uiso
O7 O 0.9944(5) 0.3214(4) 0.6016(5) 0.0288 Uani
O8 O 0.9290(6) 0.2848(4) 0.3942(5) 0.0304 Uani
O9 O 0.9530(9) 0.0798(6) 0.2781(6) 0.0528 Uani
H20 H 0.9420 0.1507 0.2844 0.0790 Uiso
C29 C 0.9968(9) 0.9269(7) 0.3954(7) 0.0308 Uani
H25 H 0.9950 0.8771 0.3251 0.0370 Uiso
C31 C 0.8828(12) 0.6241(10) 0.0741(10) 0.0527 Uani
H27 H 0.7899 0.6256 0.0320 0.0630 Uiso
C32 C 0.9458(16) 0.8103(13) 0.0032(15) 0.0835 Uani
H29 H 0.8947 0.8558 0.0363 0.1260 Uiso
C34 C 0.6895(11) 0.6697(10) 0.2670(11) 0.0598 Uani
H34 H 0.7599 0.7228 0.3393 0.0710 Uiso
C35 C 0.566(3) 0.831(2) 0.257(2) 0.1673 Uani
H35 H 0.4762 0.8419 0.2051 0.2490 Uiso
H36 H 0.6391 0.8937 0.2539 0.2490 Uiso
H37 H 0.5742 0.8387 0.3417 0.2490 Uiso
C36 C 0.4620(16) 0.6278(18) 0.1084(18) 0.1219 Uani
H38 H 0.3890 0.6698 0.0797 0.1830 Uiso
H39 H 0.4275 0.5535 0.1325 0.1830 Uiso
H40 H 0.4908 0.6054 0.0424 0.1830 Uiso
N3 N 0.9783(9) 0.7120(8) 0.0710(8) 0.0506 Uani
N4 N 0.5763(10) 0.7072(10) 0.2114(10) 0.0666 Uani
O21 O 0.9047(7) 0.5373(6) 0.1290(6) 0.0466 Uani
O22 O 0.7087(6) 0.5720(6) 0.2314(6) 0.0472 Uani
H7 H 0.1100 0.2265 0.0840 0.1260 Uiso
H30 H 0.8900 0.7735 0.9160 0.1260 Uiso
loop_
_atom_site_aniso_label
_atom_site_aniso_U_11
_atom_site_aniso_U_22
_atom_site_aniso_U_33
_atom_site_aniso_U_23
_atom_site_aniso_U_13
_atom_site_aniso_U_12
Gd4 0.01404 0.0143 0.02752 0.002 0.00446 0.00419
C19 0.026 0.023 0.038 0 0.005 0.001
C20 0.024 0.025 0.046 -0.007 0.003 0
C21 0.02 0.036 0.069 -0.017 0.011 -0.004
C22 0.025 0.032 0.071 -0.025 0.009 0.002
O12 0.027 0.027 0.032 -0.003 0.01 -0.001
O13 0.025 0.028 0.061 -0.013 0.011 0.002
O14 0.035 0.06 0.153 -0.061 0.039 -0.008
Gd7 0.01404 0.0143 0.02752 0.002 0.00446 0.00419
C1 0.026 0.023 0.038 0 0.005 0.001
C2 0.024 0.025 0.046 -0.007 0.003 0
C3 0.02 0.036 0.069 -0.017 0.011 -0.004
C4 0.025 0.032 0.071 -0.025 0.009 0.002
C5 0.016 0.024 0.034 0.005 0.012 0.007
C6 0.013 0.035 0.031 0.001 0.006 0.009
C7 0.024 0.048 0.024 -0.002 0.011 0.012
C8 0.02 0.05 0.035 0.006 0.009 0.01
C11 0.047 0.02 0.028 0.004 0.015 0.016
C13 0.055 0.056 0.053 0.025 0.024 0.015
C14 0.085 0.067 0.106 0.049 0.034 0.027
C16 0.044 0.052 0.068 0.01 0.003 0.021
C17 0.18 0.142 0.151 -0.015 0.009 0.128
C18 0.065 0.124 0.126 0.037 -0.024 0.034
N1 0.049 0.056 0.055 0.029 0.024 0.015
N2 0.061 0.078 0.074 0.024 0.024 0.05
O1 0.027 0.027 0.032 -0.003 0.01 -0.001
O2 0.025 0.028 0.061 -0.013 0.011 0.002
O3 0.035 0.06 0.153 -0.061 0.039 -0.008
O4 0.022 0.028 0.046 0.006 0.019 0.009
O5 0.018 0.048 0.033 0.009 0.008 0.01
O6 0.024 0.12 0.026 -0.01 0.004 0.021
O10 0.063 0.042 0.039 0.016 0.022 0.016
O11 0.036 0.044 0.06 0.014 0.011 0.023
C23 0.016 0.024 0.034 0.005 0.012 0.007
C24 0.013 0.035 0.031 0.001 0.006 0.009
C25 0.024 0.048 0.024 -0.002 0.011 0.012
C26 0.02 0.05 0.035 0.006 0.009 0.01
O15 0.022 0.028 0.046 0.006 0.019 0.009
O16 0.024 0.12 0.026 -0.01 0.004 0.021
O17 0.018 0.048 0.033 0.009 0.008 0.01
O29 0.04 0.017 0.029 0.006 0.007 0.01
C27 0.017 0.017 0.026 0.003 0.007 0.001
C28 0.027 0.017 0.025 0.004 0.005 0.005
C30 0.042 0.021 0.024 0.005 0.008 0.01
O18 0.034 0.019 0.028 0.004 0.007 0.007
O19 0.105 0.032 0.034 0.017 0.029 0.038
C33 0.052 0.128 0.121 0.069 0.039 0.028
C9 0.017 0.017 0.026 0.003 0.007 0.001
C10 0.027 0.017 0.025 0.004 0.005 0.005
C12 0.042 0.021 0.024 0.005 0.008 0.01
C15 0.052 0.128 0.121 0.069 0.039 0.028
O7 0.034 0.019 0.028 0.004 0.007 0.007
O8 0.04 0.017 0.029 0.006 0.007 0.01
O9 0.105 0.032 0.034 0.017 0.029 0.038
C29 0.047 0.02 0.028 0.004 0.015 0.016
C31 0.055 0.056 0.053 0.025 0.024 0.015
C32 0.085 0.067 0.106 0.049 0.034 0.027
C34 0.044 0.052 0.068 0.01 0.003 0.021
C35 0.18 0.142 0.151 -0.015 0.009 0.128
C36 0.065 0.124 0.126 0.037 -0.024 0.034
N3 0.049 0.056 0.055 0.029 0.024 0.015
N4 0.061 0.078 0.074 0.024 0.024 0.05
O21 0.063 0.042 0.039 0.016 0.022 0.016
O22 0.036 0.044 0.06 0.014 0.011 0.023
loop_
_geom_bond_atom_site_label_1
_geom_bond_atom_site_label_2
_geom_bond_site_symmetry_1
_geom_bond_site_symmetry_2
C19 C20 1_555 1_555
C20 C21 1_555 1_555
H21 C21 1_555 1_555
O12 C19 1_555 1_555
O13 C19 1_555 1_555
O14 C22 1_555 1_555
H22 O14 1_555 1_555
Gd7 O12 1_555 1_555
C20 C22 1_555 1_555
O13 Gd7 1_555 1_555
Gd4 O1 1_555 1_555
C1 C2 1_555 1_555
C2 C3 1_555 1_555
C3 H1 1_555 1_555
C4 C2 1_555 1_555
C5 C6 1_555 1_555
C6 C7 1_555 1_555
C7 H2 1_555 1_555
C8 C6 1_555 1_555
C11 H3 1_555 1_555
C13 H4 1_555 1_555
H6 C14 1_555 1_555
C16 H11 1_555 1_555
C17 H12 1_555 1_555
H13 C17 1_555 1_555
H14 C17 1_555 1_555
C18 H15 1_555 1_555
H16 C18 1_555 1_555
H17 C18 1_555 1_555
N1 C13 1_555 1_555
N2 C16 1_555 1_555
O1 C1 1_555 1_555
O2 Gd4 1_555 1_555
O3 C4 1_555 1_555
H18 O3 1_555 1_555
O4 Gd4 1_555 1_555
O5 C5 1_555 1_555
O6 C8 1_555 1_555
H19 O6 1_555 1_555
O10 Gd4 1_555 1_555
O11 Gd4 1_555 1_555
C23 C24 1_555 1_555
C24 C25 1_555 1_555
C25 C8 1_555 1_555
H23 C25 1_555 1_555
C26 C7 1_555 1_555
O15 C23 1_555 1_555
O16 C26 1_555 1_555
H24 O16 1_555 1_555
O17 C23 1_555 1_555
Gd7 O15 1_555 1_555
O29 Gd4 1_555 1_555
C1 O2 1_555 1_555
C5 O4 1_555 1_555
C13 O10 1_555 1_555
C14 N1 1_555 1_555
C16 O11 1_555 1_555
C17 N2 1_555 1_555
C18 N2 1_555 1_555
C24 C26 1_555 1_555
C27 C28 1_555 1_555
O18 C27 1_555 1_555
O19 C30 1_555 1_555
H26 O19 1_555 1_555
O29 C27 1_555 1_555
C33 H31 1_555 1_555
H32 C33 1_555 1_555
H33 C33 1_555 1_555
C28 C30 1_555 1_555
C9 C10 1_555 1_555
C12 C10 1_555 1_555
C15 H8 1_555 1_555
H9 C15 1_555 1_555
H10 C15 1_555 1_555
O8 C9 1_555 1_555
O9 C12 1_555 1_555
H20 O9 1_555 1_555
C9 O7 1_555 1_555
O8 Gd7 1_555 1_555
H25 C29 1_555 1_555
C31 H27 1_555 1_555
H29 C32 1_555 1_555
C34 H34 1_555 1_555
C35 H35 1_555 1_555
H36 C35 1_555 1_555
H37 C35 1_555 1_555
C36 H38 1_555 1_555
H39 C36 1_555 1_555
H40 C36 1_555 1_555
N3 C31 1_555 1_555
N4 C34 1_555 1_555
O21 Gd7 1_555 1_555
O22 Gd7 1_555 1_555
C31 O21 1_555 1_555
C32 N3 1_555 1_555
C34 O22 1_555 1_555
C35 N4 1_555 1_555
C36 N4 1_555 1_555

#END
