
###############################################################################
#
# This file contains modified crystal structure data generated from the
# MOF subset of the Cambridge Structural Database (CSD) v543 
# hosted by the Cambridge Crystallographic Data Centre (CCDC).
#
# This work is licensed under the Creative Commons
# Attribution-NonCommercial-ShareAlike 4.0 International License.
# To view a copy of this license, visit
# http://creativecommons.org/licenses/by-nc-sa/4.0/
# or send a letter to
# Creative Commons, PO Box 1866, Mountain View, CA 94042, USA.
#
# CIF created using the CSD Python API on 29 September 2022
# The structure has been converted into the P1 space group
# The structure has a 3D framework
# The original CSD entry HUMBOJ is in the monoclinic crystal system
# The framework has been calculated to contain at least 10.0% void space
# The void calculation uses a probe of radius 1.32A, grid spacing 0.4
#
###############################################################################

data_HUMBOJ
_chemical_formula_moiety         '(C76 H38 Cu14 F24 O39)n'
_symmetry_cell_setting           triclinic
_symmetry_space_group_name_H-M   'P 1'
_symmetry_Int_Tables_number      1
_space_group_name_Hall           'P 1'
loop_
_symmetry_equiv_pos_site_id
_symmetry_equiv_pos_as_xyz
1 x,y,z
_cell_length_a                   7.1011(2)
_cell_length_b                   29.2707(9)
_cell_length_c                   12.1221(3)
_cell_angle_alpha                90
_cell_angle_beta                 96.8380(10)
_cell_angle_gamma                90
_cell_volume                     2501.71
loop_
_atom_site_label
_atom_site_type_symbol
_atom_site_fract_x
_atom_site_fract_y
_atom_site_fract_z
Cu13 Cu -0.0000 -0.0000 0.0000
Cu16 Cu 0.26201(6) 0.022563(13) 0.31408(3)
Cu23 Cu -0.0000 -0.0000 0.5000
Cu13_2 Cu -0.0000 -0.0000 1.0000
O9 O 0.1341(3) 0.98666(8) 0.14793(18)
H7 H 0.2226 0.9610 0.1366
Cu13_3 Cu -0.0000 1.0000 0.0000
Cu23_2 Cu -0.0000 1.0000 0.5000
O22 O 0.0409(4) 0.46831(8) 0.8246(2)
H21 H 0.1225 0.4868 0.8722
H22 H 0.0666 0.4409 0.8222
Cu13_4 Cu -0.0000 1.0000 1.0000
H11 H 0.6639 0.0270 0.1240
Cu13_5 Cu 1.0000 -0.0000 0.0000
Cu23_3 Cu 1.0000 -0.0000 0.5000
O37 O 0.9980(3) 0.01012(7) 0.33933(18)
Cu13_6 Cu 1.0000 -0.0000 1.0000
C1 C 0.6908(5) 0.92954(11) 0.3971(3)
C2 C 0.5792(5) 0.88852(11) 0.4271(3)
C3 C 0.3927(5) 0.89122(11) 0.4530(3)
C4 C 0.2821(5) 0.93490(11) 0.4347(3)
C5 C 0.3037(5) 0.85261(11) 0.4895(3)
H1 H 0.1789 0.8551 0.5098
C6 C 0.3944(5) 0.81037(11) 0.4968(3)
C7 C 0.5791(5) 0.80781(12) 0.4689(3)
H2 H 0.6439 0.7794 0.4736
C8 C 0.6687(5) 0.84627(12) 0.4345(3)
H3 H 0.7942 0.8437 0.4154
C9 C 0.3036(5) 0.76675(11) 0.5395(3)
C10 C 0.3646(6) 0.76465(12) 0.6658(3)
C11 C 0.0865(5) 0.76875(12) 0.5190(3)
C12 C 0.3582(5) 0.72323(11) 0.4800(3)
C13 C 0.3878(5) 0.68105(11) 0.5320(3)
H4 H 0.3917 0.6791 0.6104
C14 C 0.4117(5) 0.64173(11) 0.4714(3)
C15 C 0.4400(5) 0.59652(11) 0.5291(3)
C16 C 0.4047(5) 0.64404(11) 0.3550(3)
C17 C 0.3722(5) 0.68583(11) 0.3041(3)
H5 H 0.3632 0.6877 0.2254
C18 C 0.3525(5) 0.72519(12) 0.3650(3)
H6 H 0.3349 0.7538 0.3279
C19 C 0.4222(5) 0.60307(11) 0.2810(3)
Cu1 Cu 0.93850(6) 0.960405(13) 0.22663(3)
Cu2 Cu 0.5000 0.5000 0.5000
Cu3 Cu 0.23799(6) 0.522563(13) 0.18592(3)
Cu4 Cu 0.5000 0.5000 0.0000
F1 F 0.5459(3) 0.75207(8) 0.68534(18)
F2 F 0.3484(4) 0.80510(7) 0.71496(18)
F3 F 0.2626(4) 0.73504(7) 0.71832(17)
F4 F 0.0123(3) 0.80019(7) 0.58109(18)
F5 F 0.0049(3) 0.72911(7) 0.5399(2)
F6 F 0.0270(3) 0.77919(7) 0.41307(18)
O1 O 0.7577(4) 0.92653(8) 0.3050(2)
O2 O 0.7143(3) 0.96175(8) 0.4646(2)
O3 O 0.3323(3) 0.96044(8) 0.3601(2)
O4 O 0.1496(3) 0.94209(8) 0.49255(19)
O5 O 0.4785(4) 0.56419(8) 0.4680(2)
O6 O 0.4194(4) 0.59455(8) 0.6303(2)
O7 O 0.2649(3) 0.58319(8) 0.2489(2)
O8 O 0.5779(4) 0.59360(8) 0.2500(2)
O11 O 0.5020(3) 0.51012(7) 0.16067(18)
H8 H 0.5818 0.5375 0.1832
O12 O 0.7125(4) 0.99908(9) 0.1057(2)
H12 H 0.6150 0.9805 0.1030
Cu8 Cu 0.56150(6) 0.460405(13) 0.27337(3)
Cu10 Cu 0.43850(6) 0.539595(13) 0.72663(3)
Cu13_7 Cu 1.0000 1.0000 0.0000
Cu19 Cu 0.73799(6) 0.977437(13) 0.68592(3)
Cu23_4 Cu 1.0000 1.0000 0.5000
O25 O 0.7857(3) 0.46175(8) 0.0354(2)
O27 O 0.1677(3) 0.46044(8) 0.1399(2)
O29 O 0.3504(3) 0.44209(8) 0.00745(19)
O31 O 0.5215(4) 0.43581(8) 0.5320(2)
O33 O 0.9194(4) 0.90545(8) 0.1303(2)
O34 O 0.3659(3) 0.48666(8) 0.35207(18)
O36 O 0.6341(3) 0.51334(8) 0.64793(18)
O39 O 0.7875(4) 0.49908(9) 0.3943(2)
O40 O 0.2125(4) 0.50092(9) 0.6057(2)
Cu4_2 Cu 0.5000 0.5000 1.0000
C20 C 0.3092(5) 0.07046(11) 0.6029(3)
C21 C 0.4208(5) 0.11148(11) 0.5729(3)
C22 C 0.6073(5) 0.10878(11) 0.5470(3)
C23 C 0.7179(5) 0.06510(11) 0.5653(3)
C24 C 0.6963(5) 0.14739(11) 0.5105(3)
H13 H 0.8211 0.1449 0.4902
C25 C 0.6056(5) 0.18963(11) 0.5032(3)
C26 C 0.4209(5) 0.19219(12) 0.5311(3)
H14 H 0.3561 0.2206 0.5264
C27 C 0.3313(5) 0.15373(12) 0.5655(3)
H15 H 0.2058 0.1563 0.5846
C28 C 0.6964(5) 0.23325(11) 0.4605(3)
C29 C 0.6354(6) 0.23535(12) 0.3342(3)
C30 C 0.9135(5) 0.23125(12) 0.4810(3)
C31 C 0.6418(5) 0.27677(11) 0.5200(3)
C32 C 0.6122(5) 0.31895(11) 0.4680(3)
H16 H 0.6083 0.3209 0.3896
C33 C 0.5883(5) 0.35827(11) 0.5286(3)
C34 C 0.5600(5) 0.40348(11) 0.4709(3)
C35 C 0.5953(5) 0.35596(11) 0.6450(3)
C36 C 0.6278(5) 0.31417(11) 0.6959(3)
H17 H 0.6368 0.3123 0.7746
C37 C 0.6475(5) 0.27481(12) 0.6350(3)
H18 H 0.6651 0.2462 0.6721
C38 C 0.5778(5) 0.39693(11) 0.7190(3)
Cu5 Cu 0.06150(6) 0.039595(13) 0.77337(3)
Cu6 Cu 0.76201(6) 0.477437(13) 0.81408(3)
F7 F 0.4541(3) 0.24793(8) 0.31466(18)
F8 F 0.6516(4) 0.19490(7) 0.28504(18)
F9 F 0.7374(4) 0.26496(7) 0.28168(17)
F10 F 0.9877(3) 0.19981(7) 0.41891(18)
F11 F 0.9951(3) 0.27089(7) 0.4601(2)
F12 F 0.9730(3) 0.22081(7) 0.58693(18)
O13 O 0.2423(4) 0.07347(8) 0.6950(2)
O14 O 0.2857(3) 0.03825(8) 0.5354(2)
O15 O 0.6677(3) 0.03956(8) 0.6399(2)
O16 O 0.8504(3) 0.05791(8) 0.50745(19)
O18 O 0.5806(4) 0.40545(8) 0.3697(2)
O19 O 0.7351(3) 0.41681(8) 0.7511(2)
O20 O 0.4221(4) 0.40640(8) 0.7500(2)
O23 O 0.4980(3) 0.48988(7) 0.83933(18)
H20 H 0.4182 0.4625 0.8168
O24 O 0.2875(4) 0.00092(9) 0.8943(2)
H24 H 0.3850 0.0195 0.8970
Cu13_8 Cu 1.0000 1.0000 1.0000
O26 O 0.2143(3) 0.53825(8) 0.9646(2)
O28 O 0.8323(3) 0.53956(8) 0.8601(2)
O30 O 0.6496(3) 0.55791(8) 0.99255(19)
O32 O 0.0806(4) 0.09455(8) 0.8697(2)
H23 H 0.3361 0.9730 0.8760
O38 O 0.0020(3) 0.98988(7) 0.66067(18)
O10 O 0.9591(4) 0.53169(8) 0.1754(2)
H9 H 0.8775 0.5132 0.1278
H10 H 0.9334 0.5591 0.1778
O21 O 0.8659(3) 0.01334(8) 0.85207(18)
H19 H 0.7774 0.0390 0.8634
C3_2 C 0.1073(5) 0.39122(11) 0.0470(3)
C4_2 C 0.2179(5) 0.43490(11) 0.0653(3)
C5_2 C 0.1963(5) 0.35261(11) 0.0105(3)
C6_2 C 0.1056(5) 0.31037(11) 0.0032(3)
C12_2 C 0.1418(5) 0.22323(11) 0.0200(3)
C14_2 C 0.0883(5) 0.14173(11) 0.0286(3)
C16_2 C 0.0953(5) 0.14404(11) 0.1450(3)
C17_2 C 0.1278(5) 0.18583(11) 0.1959(3)
H5_2 H 0.1368 0.1877 0.2746
C18_2 C 0.1475(5) 0.22519(12) 0.1350(3)
H6_2 H 0.1651 0.2538 0.1721
C19_2 C 0.0778(5) 0.10307(11) 0.2190(3)
F6_2 F 0.4730(3) 0.27919(7) 0.08693(18)
O5_2 O 0.0215(4) 0.06419(8) 0.0320(2)
O7_2 O 0.2351(3) 0.08319(8) 0.2511(2)
O10_2 O 0.5409(4) 0.03169(8) 0.3246(2)
H9_2 H 0.6225 0.0132 0.3722
H10_2 H 0.5666 0.0591 0.3222
H1_2 H 0.3211 0.3551 0.9902
C9_2 C 0.1964(5) 0.26675(11) 0.9605(3)
C10_2 C 0.1354(6) 0.26465(12) 0.8342(3)
C11_2 C 0.4135(5) 0.26875(12) 0.9810(3)
C13_2 C 0.1122(5) 0.18105(11) 0.9680(3)
H4_2 H 0.1083 0.1791 0.8896
C15_2 C 0.0600(5) 0.09652(11) 0.9709(3)
F2_2 F 0.1516(4) 0.30510(7) 0.78504(18)
F3_2 F 0.2374(4) 0.23504(7) 0.78168(17)
F4_2 F 0.4877(3) 0.30019(7) 0.91891(18)
F5_2 F 0.4951(3) 0.22911(7) 0.9601(2)
F7_2 F 0.0459(3) 0.74793(8) 0.18534(18)
C20_2 C 0.1908(5) 0.57046(11) 0.8971(3)
C21_2 C 0.0792(5) 0.61148(11) 0.9271(3)
C26_2 C 0.0791(5) 0.69219(12) 0.9689(3)
H14_2 H 0.1439 0.7206 0.9736
C27_2 C 0.1687(5) 0.65373(12) 0.9345(3)
H15_2 H 0.2942 0.6563 0.9154
O13_2 O 0.2577(4) 0.57347(8) 0.8050(2)
O20_2 O 0.0779(4) 0.90640(8) 0.7500(2)
H19_2 H 0.7226 0.5390 0.6366
H20_2 H 0.0818 0.9625 0.6832
H23_2 H 0.1639 0.4730 0.6240
H24_2 H 0.1150 0.5195 0.6030
C1_2 C 0.8092(5) 0.42954(11) 0.1029(3)
C2_2 C 0.9208(5) 0.38852(11) 0.0729(3)
C7_2 C 0.9209(5) 0.30781(12) 0.0311(3)
H2_2 H 0.8561 0.2794 0.0264
C8_2 C 0.8313(5) 0.34627(12) 0.0655(3)
H3_2 H 0.7058 0.3437 0.0846
O1_2 O 0.7423(4) 0.42653(8) 0.1950(2)
O8_2 O 0.9221(4) 0.09360(8) 0.2500(2)
H7_2 H 0.2774 0.4610 0.3634
H8_2 H 0.9182 0.0375 0.3168
H11_2 H 0.8361 0.5270 0.3760
H12_2 H 0.8850 0.4805 0.3970
F1_2 F 0.9541(3) 0.25207(8) 0.81466(18)
H13_2 H 0.6789 0.6449 0.0098
C28_2 C 0.8036(5) 0.73325(11) 0.0395(3)
C29_2 C 0.8646(6) 0.73535(12) 0.1658(3)
C30_2 C 0.5865(5) 0.73125(12) 0.0190(3)
C32_2 C 0.8878(5) 0.81895(11) 0.0320(3)
H16_2 H 0.8917 0.8209 0.1104
C34_2 C 0.9400(5) 0.90348(11) 0.0291(3)
F8_2 F 0.8484(4) 0.69490(7) 0.21496(18)
F9_2 F 0.7626(4) 0.76496(7) 0.21832(17)
F10_2 F 0.5123(3) 0.69981(7) 0.08109(18)
F11_2 F 0.5049(3) 0.77089(7) 0.0399(2)
C22_2 C 0.8927(5) 0.60878(11) 0.9530(3)
C23_2 C 0.7821(5) 0.56510(11) 0.9347(3)
C24_2 C 0.8037(5) 0.64739(11) 0.9895(3)
C25_2 C 0.8944(5) 0.68963(11) 0.9968(3)
C31_2 C 0.8582(5) 0.77677(11) 0.9800(3)
C33_2 C 0.9117(5) 0.85827(11) 0.9714(3)
C35_2 C 0.9047(5) 0.85596(11) 0.8550(3)
C36_2 C 0.8722(5) 0.81417(11) 0.8041(3)
H17_2 H 0.8632 0.8123 0.7254
C37_2 C 0.8525(5) 0.77481(12) 0.8650(3)
H18_2 H 0.8349 0.7462 0.8279
C38_2 C 0.9222(5) 0.89693(11) 0.7810(3)
F12_2 F 0.5270(3) 0.72081(7) 0.91307(18)
O17 O 0.9785(4) 0.93581(8) 0.9680(2)
O19_2 O 0.7649(3) 0.91681(8) 0.7489(2)
O22_2 O 0.4591(4) 0.96831(8) 0.6754(2)
H21_2 H 0.3775 0.9868 0.6278
H22_2 H 0.4334 0.9409 0.6778
loop_
_geom_bond_atom_site_label_1
_geom_bond_atom_site_label_2
_geom_bond_site_symmetry_1
_geom_bond_site_symmetry_2
H7 O9 1_555 1_555
Cu13_3 O9 1_555 1_555
H21 O22 1_555 1_555
H22 O22 1_555 1_555
Cu23_3 O37 1_555 1_555
C1 C2 1_555 1_555
C2 C3 1_555 1_555
C3 C4 1_555 1_555
C4 O3 1_555 1_555
C5 C3 1_555 1_555
H1 C5 1_555 1_555
C6 C5 1_555 1_555
C7 C6 1_555 1_555
H2 C7 1_555 1_555
C8 C2 1_555 1_555
H3 C8 1_555 1_555
C9 C6 1_555 1_555
C10 C9 1_555 1_555
C11 C9 1_555 1_555
C12 C9 1_555 1_555
C13 C12 1_555 1_555
H4 C13 1_555 1_555
C14 C13 1_555 1_555
C15 C14 1_555 1_555
C16 C14 1_555 1_555
C17 C16 1_555 1_555
H5 C17 1_555 1_555
C18 C12 1_555 1_555
H6 C18 1_555 1_555
C19 C16 1_555 1_555
Cu1 O1 1_555 1_555
Cu2 O5 1_555 1_555
Cu3 O7 1_555 1_555
Cu4 O11 1_555 1_555
F1 C10 1_555 1_555
F2 C10 1_555 1_555
F3 C10 1_555 1_555
F4 C11 1_555 1_555
F5 C11 1_555 1_555
F6 C11 1_555 1_555
O1 C1 1_555 1_555
O2 C1 1_555 1_555
O4 C4 1_555 1_555
O5 C15 1_555 1_555
O6 C15 1_555 1_555
O7 C19 1_555 1_555
O8 C19 1_555 1_555
O11 Cu3 1_555 1_555
H8 O11 1_555 1_555
O12 Cu1 1_555 1_555
H12 O12 1_555 1_555
Cu8 O11 1_555 1_555
Cu10 O6 1_555 1_555
Cu19 O2 1_555 1_555
Cu23_2 O4 1_555 1_555
Cu23_4 O2 1_555 1_555
O25 Cu4 1_555 1_555
O27 Cu3 1_555 1_555
O29 Cu4 1_555 1_555
O31 Cu2 1_555 1_555
O33 Cu1 1_555 1_555
O34 Cu2 1_555 1_555
O36 Cu2 1_555 1_555
O39 Cu2 1_555 1_555
O40 Cu2 1_555 1_555
C7 C8 1_555 1_555
C17 C18 1_555 1_555
Cu3 O34 1_555 1_555
O12 Cu13_7 1_555 1_555
Cu8 O34 1_555 1_555
Cu8 O39 1_555 1_555
Cu10 O36 1_555 1_555
Cu10 O40 1_555 1_555
C20 C21 1_555 1_555
C21 C22 1_555 1_555
C22 C23 1_555 1_555
C23 O15 1_555 1_555
C24 C22 1_555 1_555
H13 C24 1_555 1_555
C25 C24 1_555 1_555
C26 C25 1_555 1_555
H14 C26 1_555 1_555
C27 C21 1_555 1_555
H15 C27 1_555 1_555
C28 C25 1_555 1_555
C29 C28 1_555 1_555
C30 C28 1_555 1_555
C31 C28 1_555 1_555
C32 C31 1_555 1_555
H16 C32 1_555 1_555
C33 C32 1_555 1_555
C34 C33 1_555 1_555
C35 C33 1_555 1_555
C36 C35 1_555 1_555
H17 C36 1_555 1_555
C37 C31 1_555 1_555
H18 C37 1_555 1_555
C38 C35 1_555 1_555
Cu5 O13 1_555 1_555
Cu6 O19 1_555 1_555
F7 C29 1_555 1_555
F8 C29 1_555 1_555
F9 C29 1_555 1_555
F10 C30 1_555 1_555
F11 C30 1_555 1_555
F12 C30 1_555 1_555
O13 C20 1_555 1_555
O14 C20 1_555 1_555
O16 C23 1_555 1_555
O31 C34 1_555 1_555
O18 C34 1_555 1_555
O19 C38 1_555 1_555
O20 C38 1_555 1_555
O23 Cu4_2 1_555 1_555
H20 O23 1_555 1_555
O24 Cu5 1_555 1_555
H24 O24 1_555 1_555
Cu8 O18 1_555 1_555
Cu10 O23 1_555 1_555
Cu16 O14 1_555 1_555
Cu23 O14 1_555 1_555
Cu23_3 O16 1_555 1_555
O28 Cu6 1_555 1_555
O30 Cu4_2 1_555 1_555
O32 Cu5 1_555 1_555
O36 Cu6 1_555 1_555
Cu4_2 O26 1_555 1_555
C26 C27 1_555 1_555
C36 C37 1_555 1_555
Cu6 O23 1_555 1_555
O24 Cu13_2 1_555 1_555
Cu23_2 O38 1_555 1_555
H9 O10 1_555 1_555
H10 O10 1_555 1_555
H19 O21 1_555 1_555
Cu13_6 O21 1_555 1_555
C3_2 C4_2 1_555 1_555
C4_2 O27 1_555 1_555
C5_2 C3_2 1_555 1_555
C6_2 C5_2 1_555 1_555
C16_2 C14_2 1_555 1_555
C17_2 C16_2 1_555 1_555
H5_2 C17_2 1_555 1_555
C18_2 C12_2 1_555 1_555
H6_2 C18_2 1_555 1_555
C19_2 C16_2 1_555 1_555
Cu13 O5_2 1_555 1_555
Cu16 O7_2 1_555 1_555
O29 C4_2 1_555 1_555
O7_2 C19_2 1_555 1_555
O10_2 Cu16 1_555 1_555
H9_2 O10_2 1_555 1_555
H10_2 O10_2 1_555 1_555
C17_2 C18_2 1_555 1_555
C10_2 C9_2 1_555 1_555
C11_2 C9_2 1_555 1_555
H4_2 C13_2 1_555 1_555
F2_2 C10_2 1_555 1_555
F3_2 C10_2 1_555 1_555
F4_2 C11_2 1_555 1_555
F5_2 C11_2 1_555 1_555
O32 C15_2 1_555 1_555
C20_2 C21_2 1_555 1_555
H14_2 C26_2 1_555 1_555
C27_2 C21_2 1_555 1_555
H15_2 C27_2 1_555 1_555
Cu10 O13_2 1_555 1_555
O13_2 C20_2 1_555 1_555
O26 C20_2 1_555 1_555
H19_2 O36 1_555 1_555
H20_2 O38 1_555 1_555
H23_2 O40 1_555 1_555
H24_2 O40 1_555 1_555
C26_2 C27_2 1_555 1_555
C1_2 C2_2 1_555 1_555
H2_2 C7_2 1_555 1_555
C8_2 C2_2 1_555 1_555
H3_2 C8_2 1_555 1_555
Cu8 O1_2 1_555 1_555
O1_2 C1_2 1_555 1_555
O25 C1_2 1_555 1_555
H7_2 O34 1_555 1_555
H8_2 O37 1_555 1_555
H11_2 O39 1_555 1_555
H12_2 O39 1_555 1_555
C7_2 C8_2 1_555 1_555
C29_2 C28_2 1_555 1_555
C30_2 C28_2 1_555 1_555
H16_2 C32_2 1_555 1_555
F8_2 C29_2 1_555 1_555
F9_2 C29_2 1_555 1_555
F10_2 C30_2 1_555 1_555
F11_2 C30_2 1_555 1_555
O33 C34_2 1_555 1_555
C22_2 C23_2 1_555 1_555
C23_2 O28 1_555 1_555
C24_2 C22_2 1_555 1_555
C25_2 C24_2 1_555 1_555
C35_2 C33_2 1_555 1_555
C36_2 C35_2 1_555 1_555
H17_2 C36_2 1_555 1_555
C37_2 C31_2 1_555 1_555
H18_2 C37_2 1_555 1_555
C38_2 C35_2 1_555 1_555
Cu19 O19_2 1_555 1_555
O30 C23_2 1_555 1_555
O19_2 C38_2 1_555 1_555
O22_2 Cu19 1_555 1_555
H21_2 O22_2 1_555 1_555
H22_2 O22_2 1_555 1_555
Cu13_8 O17 1_555 1_555
C36_2 C37_2 1_555 1_555

#END
