
###############################################################################
#
# This file contains modified crystal structure data generated from the
# MOF subset of the Cambridge Structural Database (CSD) v543 
# hosted by the Cambridge Crystallographic Data Centre (CCDC).
#
# This work is licensed under the Creative Commons
# Attribution-NonCommercial-ShareAlike 4.0 International License.
# To view a copy of this license, visit
# http://creativecommons.org/licenses/by-nc-sa/4.0/
# or send a letter to
# Creative Commons, PO Box 1866, Mountain View, CA 94042, USA.
#
# CIF created using the CSD Python API on 29 September 2022
# The structure has been converted into the P1 space group
# The structure has a 3D framework
# The original CSD entry HUNDOM is in the monoclinic crystal system
# The framework has been calculated to contain at least 10.0% void space
# The void calculation uses a probe of radius 1.32A, grid spacing 0.4
#
###############################################################################

data_HUNDOM
_chemical_formula_moiety         '(C104 H64 Cd2 N24 O16)n'
_symmetry_cell_setting           triclinic
_symmetry_space_group_name_H-M   'P 1'
_symmetry_Int_Tables_number      1
_space_group_name_Hall           'P 1'
loop_
_symmetry_equiv_pos_site_id
_symmetry_equiv_pos_as_xyz
1 x,y,z
_cell_length_a                   8.307(3)
_cell_length_b                   22.738(7)
_cell_length_c                   18.505(6)
_cell_angle_alpha                90
_cell_angle_beta                 95.261(8)
_cell_angle_gamma                90
_cell_volume                     3480.58
loop_
_atom_site_label
_atom_site_type_symbol
_atom_site_fract_x
_atom_site_fract_y
_atom_site_fract_z
Cd1 Cd 0.1804 0.5562 0.5129
O1 O 0.0771(5) 0.4594(2) 0.4474(2)
O2 O 0.2821(5) 0.5109(1) 0.4153(2)
O3 O 0.7638(5) 0.1329(2) 0.8988(2)
O4 O 0.5979(5) 0.1227(2) 0.9834(2)
N1 N 0.0424(6) 0.2920(2) 0.2508(2)
N3 N 0.2768(5) 0.4895(2) 0.6015(2)
N4 N 0.5133(6) 0.3153(2) 0.7535(2)
N5 N 0.2484(6) 0.3048(2) 0.1830(3)
H1 H 0.3119 0.2991 0.1495
N6 N 0.2986(6) 0.3432(2) 0.8108(3)
H2 H 0.2157 0.3633 0.8207
C1 C 0.1866(7) 0.4671(2) 0.4077(3)
C2 C 0.2141(7) 0.4244(2) 0.3475(3)
C3 C 0.1062(7) 0.3785(2) 0.3328(3)
H3 H 0.0193 0.3732 0.3604
C4 C 0.1301(7) 0.3409(2) 0.2768(3)
C5 C 0.1170(7) 0.2727(2) 0.1953(3)
C6 C 0.0640(7) 0.2210(2) 0.1501(3)
C7 C 0.1249(7) 0.2084(2) 0.0865(3)
H4 H 0.2044 0.2322 0.0695
C8 C 0.0682(7) 0.1598(3) 0.0468(3)
H5 H 0.1133 0.1514 0.0038
C11 C 0.2604(7) 0.3488(2) 0.2353(3)
C12 C 0.3738(8) 0.3937(3) 0.2498(4)
H8 H 0.4622 0.3982 0.2229
C13 C 0.3467(8) 0.4312(2) 0.3067(3)
H9 H 0.4189 0.4618 0.3180
C14 C 0.3738(7) 0.4450(2) 0.5864(3)
H10 H 0.4141 0.4434 0.5412
C15 C 0.4154(6) 0.4011(2) 0.6370(3)
H11 H 0.4849 0.3711 0.6256
C16 C 0.3551(7) 0.4016(2) 0.7034(3)
C17 C 0.3928(7) 0.3533(2) 0.7550(3)
C18 C 0.4958(7) 0.2779(2) 0.8124(3)
C19 C 0.5908(7) 0.2303(2) 0.8379(3)
H12 H 0.6812 0.2192 0.8152
C20 C 0.5468(7) 0.2000(2) 0.8983(3)
C21 C 0.6423(7) 0.1484(2) 0.9283(3)
C22 C 0.4117(8) 0.2172(3) 0.9319(3)
H13 H 0.3851 0.1962 0.9722
C23 C 0.3143(9) 0.2643(3) 0.9079(4)
H14 H 0.2227 0.2749 0.9301
C24 C 0.3629(7) 0.2943(2) 0.8487(3)
C25 C 0.2579(7) 0.4483(2) 0.7186(3)
H15 H 0.2174 0.4511 0.7637
C26 C 0.2211(7) 0.4908(2) 0.6671(3)
H16 H 0.1546 0.5218 0.6783
Cd3 Cd 0.8196 0.0562 0.9871
O6 O 0.2362(5) 0.6329(2) 0.6012(2)
O7 O 0.4021(5) 0.6227(2) 0.5166(2)
N7 N 0.0474(5) 0.6247(2) 0.4331(2)
N2 N 0.9526(5) 0.1247(2) 0.0669(2)
C9 C 0.8937(8) 0.1372(2) 0.1294(3)
H6 H 0.8126 0.1133 0.1446
C10 C 0.9464(8) 0.1839(3) 0.1730(3)
H7 H 0.9037 0.1904 0.2170
Cd4 Cd 0.8196 0.4438 0.4871
O5 O 0.9229(5) 0.5406(2) 0.5526(2)
C9_2 C 0.1063(8) 0.6372(2) 0.3706(3)
H6_2 H 0.1874 0.6133 0.3554
C10_2 C 0.0536(8) 0.6839(3) 0.3270(3)
H7_2 H 0.0963 0.6904 0.2830
Cd4_2 Cd 0.1804 0.9438 0.0129
O2_2 O 0.7179(5) 0.0109(1) 0.0847(2)
H16_2 H 0.8454 0.0218 0.8217
N3_2 N 0.7232(5) 0.9895(2) 0.8985(2)
N4_2 N 0.4867(6) 0.8153(2) 0.7465(2)
N6_2 N 0.7014(6) 0.8432(2) 0.6892(3)
H2_2 H 0.7843 0.8633 0.6793
C14_2 C 0.6262(7) 0.9450(2) 0.9136(3)
H10_2 H 0.5859 0.9434 0.9588
C15_2 C 0.5846(6) 0.9011(2) 0.8630(3)
H11_2 H 0.5151 0.8711 0.8744
C16_2 C 0.6449(7) 0.9016(2) 0.7966(3)
C17_2 C 0.6072(7) 0.8533(2) 0.7450(3)
C18_2 C 0.5042(7) 0.7779(2) 0.6876(3)
C19_2 C 0.4092(7) 0.7303(2) 0.6621(3)
H12_2 H 0.3188 0.7192 0.6848
C20_2 C 0.4532(7) 0.7000(2) 0.6017(3)
C21_2 C 0.3577(7) 0.6484(2) 0.5717(3)
C22_2 C 0.5883(8) 0.7172(3) 0.5681(3)
H13_2 H 0.6149 0.6962 0.5278
C23_2 C 0.6857(9) 0.7643(3) 0.5921(4)
H14_2 H 0.7773 0.7749 0.5699
C24_2 C 0.6371(7) 0.7943(2) 0.6513(3)
C25_2 C 0.7421(7) 0.9483(2) 0.7814(3)
H15_2 H 0.7826 0.9511 0.7363
C26_2 C 0.7789(7) 0.9908(2) 0.8329(3)
N2_2 N 0.0474(5) 0.8753(2) 0.9331(2)
C9_3 C 0.1063(8) 0.8628(2) 0.8706(3)
H6_3 H 0.1874 0.8867 0.8554
C10_3 C 0.0536(8) 0.8161(3) 0.8270(3)
H7_3 H 0.0963 0.8096 0.7830
O2_3 O 0.7179(5) 0.4891(1) 0.5847(2)
O3_2 O 0.2362(5) 0.8671(2) 0.1012(2)
O4_2 O 0.4021(5) 0.8773(2) 0.0166(2)
N1_2 N 0.9576(6) 0.7080(2) 0.7492(2)
N3_3 N 0.7232(5) 0.5105(2) 0.3985(2)
N4_3 N 0.4867(6) 0.6847(2) 0.2465(2)
N5_2 N 0.7516(6) 0.6952(2) 0.8170(3)
H1_2 H 0.6881 0.7009 0.8505
N6_3 N 0.7014(6) 0.6568(2) 0.1892(3)
H2_3 H 0.7843 0.6367 0.1793
C1_2 C 0.8134(7) 0.5329(2) 0.5923(3)
C2_2 C 0.7859(7) 0.5756(2) 0.6525(3)
C3_2 C 0.8938(7) 0.6215(2) 0.6672(3)
H3_2 H 0.9807 0.6268 0.6396
C4_2 C 0.8699(7) 0.6591(2) 0.7232(3)
C5_2 C 0.8830(7) 0.7273(2) 0.8047(3)
C6_2 C 0.9360(7) 0.7790(2) 0.8499(3)
C7_2 C 0.8751(7) 0.7916(2) 0.9135(3)
H4_2 H 0.7956 0.7678 0.9305
C8_2 C 0.9318(7) 0.8402(3) 0.9532(3)
H5_2 H 0.8867 0.8486 0.9962
C11_2 C 0.7396(7) 0.6512(2) 0.7647(3)
C12_2 C 0.6262(8) 0.6063(3) 0.7502(4)
H8_2 H 0.5378 0.6018 0.7771
C13_2 C 0.6533(8) 0.5688(2) 0.6933(3)
H9_2 H 0.5811 0.5382 0.6820
C14_3 C 0.6262(7) 0.5550(2) 0.4136(3)
H10_3 H 0.5859 0.5566 0.4588
C15_3 C 0.5846(6) 0.5989(2) 0.3630(3)
H11_3 H 0.5151 0.6289 0.3744
C16_3 C 0.6449(7) 0.5984(2) 0.2966(3)
C17_3 C 0.6072(7) 0.6467(2) 0.2450(3)
C18_3 C 0.5042(7) 0.7221(2) 0.1876(3)
C19_3 C 0.4092(7) 0.7697(2) 0.1621(3)
H12_3 H 0.3188 0.7808 0.1848
C20_3 C 0.4532(7) 0.8000(2) 0.1017(3)
C21_3 C 0.3577(7) 0.8516(2) 0.0717(3)
C22_3 C 0.5883(8) 0.7828(3) 0.0681(3)
H13_3 H 0.6149 0.8038 0.0278
C23_3 C 0.6857(9) 0.7357(3) 0.0921(4)
H14_3 H 0.7773 0.7251 0.0699
C24_3 C 0.6371(7) 0.7057(2) 0.1513(3)
C25_3 C 0.7421(7) 0.5517(2) 0.2814(3)
H15_3 H 0.7826 0.5489 0.2363
C26_3 C 0.7789(7) 0.5092(2) 0.3329(3)
H16_3 H 0.8454 0.4782 0.3217
O6_2 O 0.7638(5) 0.3671(2) 0.3988(2)
O7_2 O 0.5979(5) 0.3773(2) 0.4834(2)
N7_2 N 0.9526(5) 0.3753(2) 0.5669(2)
N3_4 N 0.2768(5) 0.0105(2) 0.1015(2)
N4_4 N 0.5133(6) 0.1847(2) 0.2535(2)
N6_4 N 0.2986(6) 0.1568(2) 0.3108(3)
H2_4 H 0.2157 0.1367 0.3207
C14_4 C 0.3738(7) 0.0550(2) 0.0864(3)
H10_4 H 0.4141 0.0566 0.0412
C15_4 C 0.4154(6) 0.0989(2) 0.1370(3)
H11_4 H 0.4849 0.1289 0.1256
C16_4 C 0.3551(7) 0.0984(2) 0.2034(3)
C17_4 C 0.3928(7) 0.1467(2) 0.2550(3)
C18_4 C 0.4958(7) 0.2221(2) 0.3124(3)
C19_4 C 0.5908(7) 0.2697(2) 0.3379(3)
H12_4 H 0.6812 0.2808 0.3152
C20_4 C 0.5468(7) 0.3000(2) 0.3983(3)
C21_4 C 0.6423(7) 0.3516(2) 0.4283(3)
C22_4 C 0.4117(8) 0.2828(3) 0.4319(3)
H13_4 H 0.3851 0.3038 0.4722
C23_4 C 0.3143(9) 0.2357(3) 0.4079(4)
H14_4 H 0.2227 0.2251 0.4301
C24_4 C 0.3629(7) 0.2057(2) 0.3487(3)
C25_4 C 0.2579(7) 0.0517(2) 0.2186(3)
H15_4 H 0.2174 0.0489 0.2637
C26_4 C 0.2211(7) 0.0092(2) 0.1671(3)
H16_4 H 0.1546 0.9782 0.1783
O2_4 O 0.2821(5) 0.9891(1) 0.9153(2)
C9_4 C 0.8937(8) 0.3628(2) 0.6294(3)
H6_4 H 0.8126 0.3867 0.6446
C10_4 C 0.9464(8) 0.3161(3) 0.6730(3)
H7_4 H 0.9037 0.3096 0.7170
O5_2 O 0.0771(5) 0.0406(2) 0.9474(2)
N1_3 N 0.0424(6) 0.2080(2) 0.7508(2)
N5_3 N 0.2484(6) 0.1952(2) 0.6830(3)
H1_3 H 0.3119 0.2009 0.6495
C1_3 C 0.1866(7) 0.0329(2) 0.9077(3)
C2_3 C 0.2141(7) 0.0756(2) 0.8475(3)
C3_3 C 0.1062(7) 0.1215(2) 0.8328(3)
H3_3 H 0.0193 0.1268 0.8604
C4_3 C 0.1301(7) 0.1591(2) 0.7768(3)
C5_3 C 0.1170(7) 0.2273(2) 0.6953(3)
C6_3 C 0.0640(7) 0.2790(2) 0.6501(3)
C7_3 C 0.1249(7) 0.2916(2) 0.5865(3)
H4_3 H 0.2044 0.2678 0.5695
C8_3 C 0.0682(7) 0.3402(3) 0.5468(3)
H5_3 H 0.1133 0.3486 0.5038
C11_3 C 0.2604(7) 0.1512(2) 0.7353(3)
C12_3 C 0.3738(8) 0.1063(3) 0.7498(4)
H8_3 H 0.4622 0.1018 0.7229
C13_3 C 0.3467(8) 0.0688(2) 0.8067(3)
H9_3 H 0.4189 0.0382 0.8180
O1_2 O 0.9229(5) 0.9594(2) 0.0526(2)
N1_4 N 0.9576(6) 0.7920(2) 0.2492(2)
N5_4 N 0.7516(6) 0.8048(2) 0.3170(3)
H1_4 H 0.6881 0.7991 0.3505
C1_4 C 0.8134(7) 0.9671(2) 0.0923(3)
C2_4 C 0.7859(7) 0.9244(2) 0.1525(3)
C3_4 C 0.8938(7) 0.8785(2) 0.1672(3)
H3_4 H 0.9807 0.8732 0.1396
C4_4 C 0.8699(7) 0.8409(2) 0.2232(3)
C5_4 C 0.8830(7) 0.7727(2) 0.3047(3)
C6_4 C 0.9360(7) 0.7210(2) 0.3499(3)
C7_4 C 0.8751(7) 0.7084(2) 0.4135(3)
H4_4 H 0.7956 0.7322 0.4305
C8_4 C 0.9318(7) 0.6598(3) 0.4532(3)
H5_4 H 0.8867 0.6514 0.4962
C11_4 C 0.7396(7) 0.8488(2) 0.2647(3)
C12_4 C 0.6262(8) 0.8937(3) 0.2502(4)
H8_4 H 0.5378 0.8982 0.2771
C13_4 C 0.6533(8) 0.9312(2) 0.1933(3)
H9_4 H 0.5811 0.9618 0.1820
loop_
_geom_bond_atom_site_label_1
_geom_bond_atom_site_label_2
_geom_bond_site_symmetry_1
_geom_bond_site_symmetry_2
Cd1 O1 1_555 1_555
O1 C1 1_555 1_555
O2 Cd1 1_555 1_555
O3 C21 1_555 1_555
O4 C21 1_555 1_555
N1 C4 1_555 1_555
N3 Cd1 1_555 1_555
N4 C17 1_555 1_555
N5 H1 1_555 1_555
N6 H2 1_555 1_555
C1 O2 1_555 1_555
C2 C1 1_555 1_555
C3 C2 1_555 1_555
H3 C3 1_555 1_555
C4 C3 1_555 1_555
C5 N1 1_555 1_555
C6 C5 1_555 1_555
C7 C6 1_555 1_555
H4 C7 1_555 1_555
C8 C7 1_555 1_555
H5 C8 1_555 1_555
C11 N5 1_555 1_555
C12 C11 1_555 1_555
H8 C12 1_555 1_555
C13 C2 1_555 1_555
H9 C13 1_555 1_555
C14 N3 1_555 1_555
H10 C14 1_555 1_555
C15 C14 1_555 1_555
H11 C15 1_555 1_555
C16 C15 1_555 1_555
C17 N6 1_555 1_555
C18 N4 1_555 1_555
C19 C18 1_555 1_555
H12 C19 1_555 1_555
C20 C19 1_555 1_555
C21 C20 1_555 1_555
C22 C20 1_555 1_555
H13 C22 1_555 1_555
C23 C22 1_555 1_555
H14 C23 1_555 1_555
C24 N6 1_555 1_555
C25 C16 1_555 1_555
H15 C25 1_555 1_555
C26 N3 1_555 1_555
H16 C26 1_555 1_555
Cd3 O3 1_555 1_555
O6 Cd1 1_555 1_555
O7 Cd1 1_555 1_555
N7 Cd1 1_555 1_555
O4 Cd3 1_555 1_555
N5 C5 1_555 1_555
C4 C11 1_555 1_555
C12 C13 1_555 1_555
C16 C17 1_555 1_555
C18 C24 1_555 1_555
C23 C24 1_555 1_555
C25 C26 1_555 1_555
C9 N2 1_555 1_555
H6 C9 1_555 1_555
H7 C10 1_555 1_555
C9 C10 1_555 1_555
Cd4 O5 1_555 1_555
C9_2 N7 1_555 1_555
H6_2 C9_2 1_555 1_555
H7_2 C10_2 1_555 1_555
C9_2 C10_2 1_555 1_555
O6 C21_2 1_555 1_555
O7 C21_2 1_555 1_555
N4_2 C17_2 1_555 1_555
N6_2 H2_2 1_555 1_555
C14_2 N3_2 1_555 1_555
H10_2 C14_2 1_555 1_555
C15_2 C14_2 1_555 1_555
H11_2 C15_2 1_555 1_555
C16_2 C15_2 1_555 1_555
C17_2 N6_2 1_555 1_555
C18_2 N4_2 1_555 1_555
C19_2 C18_2 1_555 1_555
H12_2 C19_2 1_555 1_555
C20_2 C19_2 1_555 1_555
C21_2 C20_2 1_555 1_555
C22_2 C20_2 1_555 1_555
H13_2 C22_2 1_555 1_555
C23_2 C22_2 1_555 1_555
H14_2 C23_2 1_555 1_555
C24_2 N6_2 1_555 1_555
C25_2 C16_2 1_555 1_555
H15_2 C25_2 1_555 1_555
C26_2 N3_2 1_555 1_555
C16_2 C17_2 1_555 1_555
C18_2 C24_2 1_555 1_555
C23_2 C24_2 1_555 1_555
C25_2 C26_2 1_555 1_555
C9_3 N2_2 1_555 1_555
H6_3 C9_3 1_555 1_555
H7_3 C10_3 1_555 1_555
C9_3 C10_3 1_555 1_555
O5 C1_2 1_555 1_555
O2_3 Cd4 1_555 1_555
O3_2 C21_3 1_555 1_555
O4_2 C21_3 1_555 1_555
N1_2 C4_2 1_555 1_555
N3_3 Cd4 1_555 1_555
N4_3 C17_3 1_555 1_555
N5_2 H1_2 1_555 1_555
N6_3 H2_3 1_555 1_555
C1_2 O2_3 1_555 1_555
C2_2 C1_2 1_555 1_555
C3_2 C2_2 1_555 1_555
H3_2 C3_2 1_555 1_555
C4_2 C3_2 1_555 1_555
C5_2 N1_2 1_555 1_555
C6_2 C5_2 1_555 1_555
C7_2 C6_2 1_555 1_555
H4_2 C7_2 1_555 1_555
C8_2 C7_2 1_555 1_555
H5_2 C8_2 1_555 1_555
C11_2 N5_2 1_555 1_555
C12_2 C11_2 1_555 1_555
H8_2 C12_2 1_555 1_555
C13_2 C2_2 1_555 1_555
H9_2 C13_2 1_555 1_555
C14_3 N3_3 1_555 1_555
H10_3 C14_3 1_555 1_555
C15_3 C14_3 1_555 1_555
H11_3 C15_3 1_555 1_555
C16_3 C15_3 1_555 1_555
C17_3 N6_3 1_555 1_555
C18_3 N4_3 1_555 1_555
C19_3 C18_3 1_555 1_555
H12_3 C19_3 1_555 1_555
C20_3 C19_3 1_555 1_555
C21_3 C20_3 1_555 1_555
C22_3 C20_3 1_555 1_555
H13_3 C22_3 1_555 1_555
C23_3 C22_3 1_555 1_555
H14_3 C23_3 1_555 1_555
C24_3 N6_3 1_555 1_555
C25_3 C16_3 1_555 1_555
H15_3 C25_3 1_555 1_555
C26_3 N3_3 1_555 1_555
H16_3 C26_3 1_555 1_555
Cd4_2 O3_2 1_555 1_555
O6_2 Cd4 1_555 1_555
O7_2 Cd4 1_555 1_555
N7_2 Cd4 1_555 1_555
O4_2 Cd4_2 1_555 1_555
N5_2 C5_2 1_555 1_555
C4_2 C11_2 1_555 1_555
C12_2 C13_2 1_555 1_555
C16_3 C17_3 1_555 1_555
C18_3 C24_3 1_555 1_555
C23_3 C24_3 1_555 1_555
C25_3 C26_3 1_555 1_555
O6_2 C21_4 1_555 1_555
O7_2 C21_4 1_555 1_555
N4_4 C17_4 1_555 1_555
N6_4 H2_4 1_555 1_555
C14_4 N3_4 1_555 1_555
H10_4 C14_4 1_555 1_555
C15_4 C14_4 1_555 1_555
H11_4 C15_4 1_555 1_555
C16_4 C15_4 1_555 1_555
C17_4 N6_4 1_555 1_555
C18_4 N4_4 1_555 1_555
C19_4 C18_4 1_555 1_555
H12_4 C19_4 1_555 1_555
C20_4 C19_4 1_555 1_555
C21_4 C20_4 1_555 1_555
C22_4 C20_4 1_555 1_555
H13_4 C22_4 1_555 1_555
C23_4 C22_4 1_555 1_555
H14_4 C23_4 1_555 1_555
C24_4 N6_4 1_555 1_555
C25_4 C16_4 1_555 1_555
H15_4 C25_4 1_555 1_555
C26_4 N3_4 1_555 1_555
C16_4 C17_4 1_555 1_555
C18_4 C24_4 1_555 1_555
C23_4 C24_4 1_555 1_555
C25_4 C26_4 1_555 1_555
C9_4 N7_2 1_555 1_555
H6_4 C9_4 1_555 1_555
H7_4 C10_4 1_555 1_555
C9_4 C10_4 1_555 1_555
O5_2 C1_3 1_555 1_555
N1_3 C4_3 1_555 1_555
N5_3 H1_3 1_555 1_555
C2_3 C1_3 1_555 1_555
C3_3 C2_3 1_555 1_555
H3_3 C3_3 1_555 1_555
C4_3 C3_3 1_555 1_555
C5_3 N1_3 1_555 1_555
C6_3 C5_3 1_555 1_555
C7_3 C6_3 1_555 1_555
H4_3 C7_3 1_555 1_555
C8_3 C7_3 1_555 1_555
H5_3 C8_3 1_555 1_555
C11_3 N5_3 1_555 1_555
C12_3 C11_3 1_555 1_555
H8_3 C12_3 1_555 1_555
C13_3 C2_3 1_555 1_555
H9_3 C13_3 1_555 1_555
N5_3 C5_3 1_555 1_555
C4_3 C11_3 1_555 1_555
C12_3 C13_3 1_555 1_555
O1_2 C1_4 1_555 1_555
N1_4 C4_4 1_555 1_555
N5_4 H1_4 1_555 1_555
C2_4 C1_4 1_555 1_555
C3_4 C2_4 1_555 1_555
H3_4 C3_4 1_555 1_555
C4_4 C3_4 1_555 1_555
C5_4 N1_4 1_555 1_555
C6_4 C5_4 1_555 1_555
C7_4 C6_4 1_555 1_555
H4_4 C7_4 1_555 1_555
C8_4 C7_4 1_555 1_555
H5_4 C8_4 1_555 1_555
C11_4 N5_4 1_555 1_555
C12_4 C11_4 1_555 1_555
H8_4 C12_4 1_555 1_555
C13_4 C2_4 1_555 1_555
H9_4 C13_4 1_555 1_555
N5_4 C5_4 1_555 1_555
C4_4 C11_4 1_555 1_555
C12_4 C13_4 1_555 1_555

#END
