
###############################################################################
#
# This file contains modified crystal structure data generated from the
# MOF subset of the Cambridge Structural Database (CSD) v543 
# hosted by the Cambridge Crystallographic Data Centre (CCDC).
#
# This work is licensed under the Creative Commons
# Attribution-NonCommercial-ShareAlike 4.0 International License.
# To view a copy of this license, visit
# http://creativecommons.org/licenses/by-nc-sa/4.0/
# or send a letter to
# Creative Commons, PO Box 1866, Mountain View, CA 94042, USA.
#
# CIF created using the CSD Python API on 29 September 2022
# The structure has been converted into the P1 space group
# The structure has a 3D framework
# The original CSD entry HUPTER is in the monoclinic crystal system
# The framework has been calculated to contain at least 10.0% void space
# The void calculation uses a probe of radius 1.32A, grid spacing 0.4
# H atom positions have been added when not included in the experimental data
#
###############################################################################

data_HUPTER
_chemical_formula_moiety         '(C72 H32 La8 N24 O50)n'
_symmetry_cell_setting           triclinic
_symmetry_space_group_name_H-M   'P 1'
_symmetry_Int_Tables_number      1
_space_group_name_Hall           'P 1'
loop_
_symmetry_equiv_pos_site_id
_symmetry_equiv_pos_as_xyz
1 x,y,z
_cell_length_a                   9.004(3)
_cell_length_b                   17.001(5)
_cell_length_c                   15.599(5)
_cell_angle_alpha                90
_cell_angle_beta                 101.739(5)
_cell_angle_gamma                90
_cell_volume                     2337.91
loop_
_atom_site_label
_atom_site_type_symbol
_atom_site_fract_x
_atom_site_fract_y
_atom_site_fract_z
La1 La 0.14015(2) 0.088250(12) 0.579164(15)
N3 N 0.3883(4) 0.39466(19) 0.7116(2)
N4 N 0.4076(5) 0.4361(2) 0.5422(3)
O5 O 0.2936(3) 0.25250(15) 0.74735(18)
O6 O 0.2071(3) 0.22685(15) 0.60580(18)
O7 O 0.1475(5) 0.3409(2) 0.4383(3)
O8 O 0.3627(4) 0.27429(18) 0.4499(2)
O13 O 0.1009(4) 0.09692(19) 0.7348(2)
C7 C 0.2739(4) 0.2695(2) 0.6679(3)
C8 C 0.3355(4) 0.3472(2) 0.6440(3)
C9 C 0.3418(5) 0.3685(2) 0.5584(3)
C10 C 0.2759(6) 0.3228(3) 0.4758(3)
C11 C 0.4631(6) 0.4814(3) 0.6107(3)
H3 H 0.5121 0.5278 0.6014
C12 C 0.4512(5) 0.4626(2) 0.6949(3)
H4 H 0.4871 0.4974 0.7403
O14 O 0.0888(3) 0.15417(15) 0.43063(18)
O16 O 0.4301(3) 0.10256(15) 0.67197(17)
O17 O 0.3938(3) 0.10522(15) 0.52745(17)
La3 La 0.35408(2) 0.347420(13) 0.872090(15)
La6 La 0.35408(2) 0.152580(13) 0.372090(15)
H7 H 0.0031756 0.0715641 0.738766
H8 H 0.185309 0.0695842 0.774531
La2 La 0.64592(2) 0.847420(13) 0.627910(15)
N1 N 0.3847(3) 0.77403(19) 0.6481(2)
N2 N 0.1178(4) 0.7134(2) 0.6855(2)
O1 O 0.4022(3) 0.92370(15) 0.60153(19)
O2 O 0.1830(3) 0.95255(16) 0.64036(19)
C1 C 0.2841(4) 0.9057(2) 0.6274(2)
C2 C 0.2628(4) 0.8197(2) 0.6453(3)
C3 C 0.1278(4) 0.7888(2) 0.6610(3)
C5 C 0.2397(5) 0.6693(2) 0.6875(3)
H1 H 0.2360 0.6167 0.7031
C6 C 0.3729(5) 0.6982(2) 0.6674(3)
H2 H 0.4542 0.6644 0.6674
O15 O 0.1162(3) 0.98323(15) 0.45170(17)
N7 N 0.6117(4) 0.89466(19) 0.7884(2)
O18 O 0.9112(3) 0.84583(15) 0.56937(18)
O19 O 0.9284(3) 0.85362(18) 0.71277(19)
O20 O 0.7064(3) 0.75250(15) 0.75265(18)
O21 O 0.6373(4) 0.72571(18) 0.5501(2)
O22 O 0.7003(3) 0.99549(15) 0.62376(18)
O23 O 0.6062(3) 0.89478(15) 0.47255(17)
N5 N 0.8766(3) 0.17063(19) 0.5831(2)
N6 N 0.6129(4) 0.2389(2) 0.6154(3)
O9 O 0.8838(3) 0.01677(15) 0.54830(17)
C13 C 0.7803(4) 0.0388(2) 0.5882(3)
C14 C 0.7574(4) 0.1266(2) 0.5925(2)
C15 C 0.6238(4) 0.1611(2) 0.6059(2)
C16 C 0.4748(4) 0.1173(2) 0.6040(3)
C17 C 0.7316(5) 0.2815(3) 0.6062(3)
H5 H 0.7270 0.3359 0.6119
C18 C 0.8618(5) 0.2483(2) 0.5885(3)
H6 H 0.9408 0.2807 0.5802
C4 C 0.9812(4) 0.8350(2) 0.6480(3)
La4 La 0.85985(2) 0.911750(12) 0.420836(15)
La4_2 La 0.14015(2) 0.411750(12) 0.079164(15)
La8 La 0.64592(2) 0.652580(13) 0.127910(15)
N5_2 N 0.1234(3) 0.67063(19) 0.9169(2)
N6_2 N 0.3871(4) 0.7389(2) 0.8846(3)
O3 O 0.0888(3) 0.34583(15) 0.93063(18)
O4 O 0.0716(3) 0.35362(18) 0.78723(19)
O9_2 O 0.1162(3) 0.51677(15) 0.95170(17)
O10 O 0.2997(3) 0.49549(15) 0.87624(18)
O11 O 0.5699(3) 0.60256(15) 0.82803(17)
O12 O 0.6062(3) 0.60522(15) 0.97255(17)
C4_2 C 0.0188(4) 0.3350(2) 0.8520(3)
C13_2 C 0.2197(4) 0.5388(2) 0.9118(3)
C14_2 C 0.2426(4) 0.6266(2) 0.9075(2)
C15_2 C 0.3762(4) 0.6611(2) 0.8941(2)
C16_2 C 0.5252(4) 0.6173(2) 0.8960(3)
C17_2 C 0.2684(5) 0.7815(3) 0.8938(3)
H5_2 H 0.2730 0.8359 0.8881
C18_2 C 0.1382(5) 0.7483(2) 0.9115(3)
H6_2 H 0.0592 0.7807 0.9198
La7 La 0.85985(2) 0.588250(12) 0.920836(15)
O7_2 O 0.8525(5) 0.8409(2) 0.0617(3)
O8_2 O 0.6373(4) 0.77429(18) 0.0501(2)
C10_2 C 0.7241(6) 0.8228(3) 0.0242(3)
O14_2 O 0.9112(3) 0.65417(15) 0.06937(18)
O15_2 O 0.8838(3) 0.48323(15) 0.04830(17)
O23_2 O 0.3938(3) 0.39478(15) 0.02745(17)
N1_2 N 0.6153(3) 0.27403(19) 0.8519(2)
N2_2 N 0.8822(4) 0.2134(2) 0.8145(2)
N4_2 N 0.5924(5) 0.9361(2) 0.9578(3)
O1_2 O 0.5978(3) 0.42370(15) 0.89847(19)
O2_2 O 0.8170(3) 0.45255(16) 0.85964(19)
O6_2 O 0.7929(3) 0.72685(15) 0.89420(18)
O13_2 O 0.8991(4) 0.59692(19) 0.7652(2)
C1_2 C 0.7159(4) 0.4057(2) 0.8726(2)
C2_2 C 0.7372(4) 0.3197(2) 0.8547(3)
C3_2 C 0.8722(4) 0.2888(2) 0.8390(3)
C5_2 C 0.7603(5) 0.1693(2) 0.8125(3)
H1_2 H 0.7640 0.1167 0.7969
C6_2 C 0.6271(5) 0.1982(2) 0.8326(3)
H2_2 H 0.5458 0.1644 0.8326
C7_2 C 0.7261(4) 0.7695(2) 0.8321(3)
C8_2 C 0.6645(4) 0.8472(2) 0.8560(3)
C9_2 C 0.6582(5) 0.8685(2) 0.9416(3)
C11_2 C 0.5369(6) 0.9814(3) 0.8893(3)
C12_2 C 0.5488(5) 0.9626(2) 0.8051(3)
H4_2 H 0.5129 0.9974 0.7597
O21_2 O 0.3627(4) 0.22571(18) 0.9499(2)
H7_2 H 0.996824 0.571564 0.761234
H8_2 H 0.814691 0.569584 0.725469
O4_2 O 0.0716(3) 0.14638(18) 0.28723(19)
O10_2 O 0.2997(3) 0.00451(15) 0.37624(18)
C4_3 C 0.0188(4) 0.1650(2) 0.3520(3)
N5_3 N 0.1234(3) 0.82937(19) 0.4169(2)
N6_3 N 0.3871(4) 0.7611(2) 0.3846(3)
O11_2 O 0.5699(3) 0.89744(15) 0.32803(17)
C13_3 C 0.2197(4) 0.9612(2) 0.4118(3)
C14_3 C 0.2426(4) 0.8734(2) 0.4075(2)
C15_3 C 0.3762(4) 0.8389(2) 0.3941(2)
C16_3 C 0.5252(4) 0.8827(2) 0.3960(3)
C17_3 C 0.2684(5) 0.7185(3) 0.3938(3)
H5_3 H 0.2730 0.6641 0.3881
C18_3 C 0.1382(5) 0.7517(2) 0.4115(3)
H6_3 H 0.0592 0.7193 0.4198
N1_3 N 0.6153(3) 0.22597(19) 0.3519(2)
N2_3 N 0.8822(4) 0.2866(2) 0.3145(2)
O1_3 O 0.5978(3) 0.07630(15) 0.39847(19)
O2_3 O 0.8170(3) 0.04745(16) 0.35964(19)
C1_3 C 0.7159(4) 0.0943(2) 0.3726(2)
C2_3 C 0.7372(4) 0.1803(2) 0.3547(3)
C3_3 C 0.8722(4) 0.2112(2) 0.3390(3)
C5_3 C 0.7603(5) 0.3307(2) 0.3125(3)
H1_3 H 0.7640 0.3833 0.2969
C6_3 C 0.6271(5) 0.3018(2) 0.3326(3)
H2_3 H 0.5458 0.3356 0.3326
N7_2 N 0.3883(4) 0.10534(19) 0.2116(2)
O20_2 O 0.2936(3) 0.24750(15) 0.24735(18)
N3_2 N 0.6117(4) 0.60534(19) 0.2884(2)
N4_3 N 0.5924(5) 0.5639(2) 0.4578(3)
O5_2 O 0.7064(3) 0.74750(15) 0.25265(18)
O6_3 O 0.7929(3) 0.77315(15) 0.39420(18)
O7_3 O 0.8525(5) 0.6591(2) 0.5617(3)
O13_3 O 0.8991(4) 0.90308(19) 0.2652(2)
C7_3 C 0.7261(4) 0.7305(2) 0.3321(3)
C8_3 C 0.6645(4) 0.6528(2) 0.3560(3)
C9_3 C 0.6582(5) 0.6315(2) 0.4416(3)
C10_3 C 0.7241(6) 0.6772(3) 0.5242(3)
C11_3 C 0.5369(6) 0.5186(3) 0.3893(3)
H3_2 H 0.4879 0.4722 0.3986
C12_3 C 0.5488(5) 0.5374(2) 0.3051(3)
H4_3 H 0.5129 0.5026 0.2597
H7_3 H 0.996824 0.928436 0.261234
H8_3 H 0.814691 0.930416 0.225469
N1_4 N 0.3847(3) 0.72597(19) 0.1481(2)
N2_4 N 0.1178(4) 0.7866(2) 0.1855(2)
N4_4 N 0.4076(5) 0.0639(2) 0.0422(3)
O1_4 O 0.4022(3) 0.57630(15) 0.10153(19)
O2_4 O 0.1830(3) 0.54745(16) 0.14036(19)
O6_4 O 0.2071(3) 0.27315(15) 0.10580(18)
O13_4 O 0.1009(4) 0.40308(19) 0.2348(2)
C1_4 C 0.2841(4) 0.5943(2) 0.1274(2)
C2_4 C 0.2628(4) 0.6803(2) 0.1453(3)
C3_4 C 0.1278(4) 0.7112(2) 0.1610(3)
C5_4 C 0.2397(5) 0.8307(2) 0.1875(3)
H1_4 H 0.2360 0.8833 0.2031
C6_4 C 0.3729(5) 0.8018(2) 0.1674(3)
H2_4 H 0.4542 0.8356 0.1674
C7_4 C 0.2739(4) 0.2305(2) 0.1679(3)
C8_4 C 0.3355(4) 0.1528(2) 0.1440(3)
C9_4 C 0.3418(5) 0.1315(2) 0.0584(3)
C11_4 C 0.4631(6) 0.0186(3) 0.1107(3)
C12_4 C 0.4512(5) 0.0374(2) 0.1949(3)
H4_4 H 0.4871 0.0026 0.2403
O16_2 O 0.4301(3) 0.39744(15) 0.17197(17)
O19_2 O 0.9284(3) 0.64638(18) 0.21277(19)
O22_2 O 0.7003(3) 0.50451(15) 0.12376(18)
H7_4 H 0.0031756 0.428436 0.238766
H8_4 H 0.185309 0.430416 0.274531
O7_4 O 0.1475(5) 0.1591(2) 0.9383(3)
C10_4 C 0.2759(6) 0.1772(3) 0.9758(3)
N5_4 N 0.8766(3) 0.32937(19) 0.0831(2)
N6_4 N 0.6129(4) 0.2611(2) 0.1154(3)
C4_4 C 0.9812(4) 0.6650(2) 0.1480(3)
C13_4 C 0.7803(4) 0.4612(2) 0.0882(3)
C14_4 C 0.7574(4) 0.3734(2) 0.0925(2)
C15_4 C 0.6238(4) 0.3389(2) 0.1059(2)
C16_4 C 0.4748(4) 0.3827(2) 0.1040(3)
C17_4 C 0.7316(5) 0.2185(3) 0.1062(3)
H5_4 H 0.7270 0.1641 0.1119
C18_4 C 0.8618(5) 0.2517(2) 0.0885(3)
H6_4 H 0.9408 0.2193 0.0802
H3_3 H 0.4879 0.0278 0.8986
H3_4 H 0.5121 0.9722 0.1014
loop_
_geom_bond_atom_site_label_1
_geom_bond_atom_site_label_2
_geom_bond_site_symmetry_1
_geom_bond_site_symmetry_2
N3 C8 1_555 1_555
N4 C9 1_555 1_555
O5 C7 1_555 1_555
O6 La1 1_555 1_555
O7 C10 1_555 1_555
O8 C10 1_555 1_555
O13 La1 1_555 1_555
C7 O6 1_555 1_555
C8 C7 1_555 1_555
C9 C8 1_555 1_555
C10 C9 1_555 1_555
C11 N4 1_555 1_555
H3 C11 1_555 1_555
C12 N3 1_555 1_555
H4 C12 1_555 1_555
O14 La1 1_555 1_555
O16 La1 1_555 1_555
O17 La1 1_555 1_555
La3 N3 1_555 1_555
La6 O8 1_555 1_555
O5 La3 1_555 1_555
C11 C12 1_555 1_555
O14 La6 1_555 1_555
O17 La6 1_555 1_555
O13 H7 1_555 1_555
O13 H8 1_555 1_555
La2 N1 1_555 1_555
N1 C2 1_555 1_555
N2 C3 1_555 1_555
O1 La2 1_555 1_555
C1 O1 1_555 1_555
C2 C1 1_555 1_555
C3 C2 1_555 1_555
C5 N2 1_555 1_555
H1 C5 1_555 1_555
C6 N1 1_555 1_555
H2 C6 1_555 1_555
N7 La2 1_555 1_555
O18 La2 1_555 1_555
O19 La2 1_555 1_555
O20 La2 1_555 1_555
O21 La2 1_555 1_555
O22 La2 1_555 1_555
O23 La2 1_555 1_555
O2 C1 1_555 1_555
C5 C6 1_555 1_555
N5 C14 1_555 1_555
N6 C15 1_555 1_555
O16 C16 1_555 1_555
O17 C16 1_555 1_555
C13 O9 1_555 1_555
C14 C13 1_555 1_555
C15 C14 1_555 1_555
C16 C15 1_555 1_555
C17 N6 1_555 1_555
H5 C17 1_555 1_555
C18 N5 1_555 1_555
H6 C18 1_555 1_555
C17 C18 1_555 1_555
O18 C4 1_555 1_555
O19 C4 1_555 1_555
La4 O18 1_555 1_555
N5_2 C14_2 1_555 1_555
N6_2 C15_2 1_555 1_555
O3 C4_2 1_555 1_555
O4 C4_2 1_555 1_555
O10 C13_2 1_555 1_555
O11 C16_2 1_555 1_555
O12 C16_2 1_555 1_555
C13_2 O9_2 1_555 1_555
C14_2 C13_2 1_555 1_555
C15_2 C14_2 1_555 1_555
C16_2 C15_2 1_555 1_555
C17_2 N6_2 1_555 1_555
H5_2 C17_2 1_555 1_555
C18_2 N5_2 1_555 1_555
H6_2 C18_2 1_555 1_555
La3 O3 1_555 1_555
La7 O11 1_555 1_555
O4 La3 1_555 1_555
O10 La3 1_555 1_555
O12 La7 1_555 1_555
C17_2 C18_2 1_555 1_555
O7_2 C10_2 1_555 1_555
O8_2 C10_2 1_555 1_555
La8 O8_2 1_555 1_555
O14_2 La8 1_555 1_555
La3 N1_2 1_555 1_555
N1_2 C2_2 1_555 1_555
N2_2 C3_2 1_555 1_555
N7 C8_2 1_555 1_555
N4_2 C9_2 1_555 1_555
O1_2 La3 1_555 1_555
O2_2 La7 1_555 1_555
O20 C7_2 1_555 1_555
O6_2 La7 1_555 1_555
O13_2 La7 1_555 1_555
C1_2 O1_2 1_555 1_555
C2_2 C1_2 1_555 1_555
C3_2 C2_2 1_555 1_555
C5_2 N2_2 1_555 1_555
H1_2 C5_2 1_555 1_555
C6_2 N1_2 1_555 1_555
H2_2 C6_2 1_555 1_555
C7_2 O6_2 1_555 1_555
C8_2 C7_2 1_555 1_555
C9_2 C8_2 1_555 1_555
C11_2 N4_2 1_555 1_555
C12_2 N7 1_555 1_555
H4_2 C12_2 1_555 1_555
O21_2 La3 1_555 1_555
O2_2 C1_2 1_555 1_555
C5_2 C6_2 1_555 1_555
C11_2 C12_2 1_555 1_555
O13_2 H7_2 1_555 1_555
O13_2 H8_2 1_555 1_555
O14 C4_3 1_555 1_555
O4_2 C4_3 1_555 1_555
O4_2 La6 1_555 1_555
O10_2 La6 1_555 1_555
N5_3 C14_3 1_555 1_555
N6_3 C15_3 1_555 1_555
O11_2 C16_3 1_555 1_555
O23 C16_3 1_555 1_555
C13_3 O15 1_555 1_555
C14_3 C13_3 1_555 1_555
C15_3 C14_3 1_555 1_555
C16_3 C15_3 1_555 1_555
C17_3 N6_3 1_555 1_555
H5_3 C17_3 1_555 1_555
C18_3 N5_3 1_555 1_555
H6_3 C18_3 1_555 1_555
La4 O11_2 1_555 1_555
O23 La4 1_555 1_555
C17_3 C18_3 1_555 1_555
La6 N1_3 1_555 1_555
N1_3 C2_3 1_555 1_555
N2_3 C3_3 1_555 1_555
O1_3 La6 1_555 1_555
C1_3 O1_3 1_555 1_555
C2_3 C1_3 1_555 1_555
C3_3 C2_3 1_555 1_555
C5_3 N2_3 1_555 1_555
H1_3 C5_3 1_555 1_555
C6_3 N1_3 1_555 1_555
H2_3 C6_3 1_555 1_555
N7_2 La6 1_555 1_555
O20_2 La6 1_555 1_555
O2_3 C1_3 1_555 1_555
C5_3 C6_3 1_555 1_555
N3_2 C8_3 1_555 1_555
N4_3 C9_3 1_555 1_555
O5_2 C7_3 1_555 1_555
O6_3 La4 1_555 1_555
O7_3 C10_3 1_555 1_555
O21 C10_3 1_555 1_555
O13_3 La4 1_555 1_555
C7_3 O6_3 1_555 1_555
C8_3 C7_3 1_555 1_555
C9_3 C8_3 1_555 1_555
C10_3 C9_3 1_555 1_555
C11_3 N4_3 1_555 1_555
H3_2 C11_3 1_555 1_555
C12_3 N3_2 1_555 1_555
H4_3 C12_3 1_555 1_555
La8 N3_2 1_555 1_555
O5_2 La8 1_555 1_555
C11_3 C12_3 1_555 1_555
O13_3 H7_3 1_555 1_555
O13_3 H8_3 1_555 1_555
La8 N1_4 1_555 1_555
N1_4 C2_4 1_555 1_555
N2_4 C3_4 1_555 1_555
N7_2 C8_4 1_555 1_555
N4_4 C9_4 1_555 1_555
O1_4 La8 1_555 1_555
O2_4 La4_2 1_555 1_555
O20_2 C7_4 1_555 1_555
O6_4 La4_2 1_555 1_555
O13_4 La4_2 1_555 1_555
C1_4 O1_4 1_555 1_555
C2_4 C1_4 1_555 1_555
C3_4 C2_4 1_555 1_555
C5_4 N2_4 1_555 1_555
H1_4 C5_4 1_555 1_555
C6_4 N1_4 1_555 1_555
H2_4 C6_4 1_555 1_555
C7_4 O6_4 1_555 1_555
C8_4 C7_4 1_555 1_555
C9_4 C8_4 1_555 1_555
C11_4 N4_4 1_555 1_555
C12_4 N7_2 1_555 1_555
H4_4 C12_4 1_555 1_555
O16_2 La4_2 1_555 1_555
O23_2 La4_2 1_555 1_555
O19_2 La8 1_555 1_555
O22_2 La8 1_555 1_555
O2_4 C1_4 1_555 1_555
C5_4 C6_4 1_555 1_555
C11_4 C12_4 1_555 1_555
O13_4 H7_4 1_555 1_555
O13_4 H8_4 1_555 1_555
O7_4 C10_4 1_555 1_555
O21_2 C10_4 1_555 1_555
N5_4 C14_4 1_555 1_555
N6_4 C15_4 1_555 1_555
O14_2 C4_4 1_555 1_555
O19_2 C4_4 1_555 1_555
O22_2 C13_4 1_555 1_555
O16_2 C16_4 1_555 1_555
O23_2 C16_4 1_555 1_555
C13_4 O15_2 1_555 1_555
C14_4 C13_4 1_555 1_555
C15_4 C14_4 1_555 1_555
C16_4 C15_4 1_555 1_555
C17_4 N6_4 1_555 1_555
H5_4 C17_4 1_555 1_555
C18_4 N5_4 1_555 1_555
H6_4 C18_4 1_555 1_555
C17_4 C18_4 1_555 1_555

#END
