
###############################################################################
#
# This file contains modified crystal structure data generated from the
# MOF subset of the Cambridge Structural Database (CSD) v543 
# hosted by the Cambridge Crystallographic Data Centre (CCDC).
#
# This work is licensed under the Creative Commons
# Attribution-NonCommercial-ShareAlike 4.0 International License.
# To view a copy of this license, visit
# http://creativecommons.org/licenses/by-nc-sa/4.0/
# or send a letter to
# Creative Commons, PO Box 1866, Mountain View, CA 94042, USA.
#
# CIF created using the CSD Python API on 29 September 2022
# The structure has been converted into the P1 space group
# The structure has a 3D framework
# The original CSD entry HUPTOE is in the orthorhombic crystal system
# The original CSD entry HUPTOE is in a Sohncke space group
# The framework has been calculated to contain at least 10.0% void space
# The void calculation uses a probe of radius 1.32A, grid spacing 0.4
#
###############################################################################

data_HUPTOE
_chemical_formula_moiety         '(C92 H76 Cu4 N12 O20)n'
_symmetry_cell_setting           triclinic
_symmetry_space_group_name_H-M   'P 1'
_symmetry_Int_Tables_number      1
_space_group_name_Hall           'P 1'
loop_
_symmetry_equiv_pos_site_id
_symmetry_equiv_pos_as_xyz
1 x,y,z
_cell_length_a                   9.4610(6)
_cell_length_b                   26.3464(13)
_cell_length_c                   11.1125(8)
_cell_angle_alpha                90
_cell_angle_beta                 90
_cell_angle_gamma                90
_cell_volume                     2769.94
loop_
_atom_site_label
_atom_site_type_symbol
_atom_site_fract_x
_atom_site_fract_y
_atom_site_fract_z
N2 N 0.1118(3) 0.43161(9) 0.4751(2)
C2 C 0.1052(3) 0.43439(11) 0.2235(3)
C7 C 0.2312(4) 0.43849(17) 0.2876(3)
H2 H 0.316238 0.442417 0.246588
C15 C 0.1043(3) 0.43507(11) 0.0908(3)
C16 C 0.2303(4) 0.43677(17) 0.4109(3)
H10 H 0.315930 0.439298 0.451604
C18 C 0.2003(4) 0.46380(15) 0.0268(3)
H12 H 0.264348 0.484481 0.067077
C20 C 0.0085(4) 0.40602(14) 0.0245(3)
Cu2 Cu 0.11610(3) 0.42982(2) 0.65711(3)
O1 O 0.2618(2) 0.48204(6) 0.6506(2)
O2 O 0.4420(2) 0.85696(6) 0.3457(2)
O3 O 0.1289(2) 0.55173(8) 0.6607(2)
N1 N 0.1116(2) 0.43269(7) 0.8395(2)
O4 O 0.3755(4) 0.58365(8) 0.3981(3)
O5 O 0.2097(2) 0.85139(9) 0.3425(4)
N3 N 0.3581(3) 0.61063(8) 0.5883(3)
C1 C 0.3389(3) 0.77544(9) 0.3725(3)
C3 C 0.2418(3) 0.52986(9) 0.6501(3)
C4 C 0.3262(3) 0.83201(9) 0.3511(3)
C5 C 0.0175(4) 0.40542(13) 0.9012(3)
C6 C 0.3641(3) 0.61851(10) 0.4711(3)
C8 C 0.3798(3) 0.56020(8) 0.6402(3)
H3 H 0.448900 0.541262 0.592267
C10 C 0.3542(3) 0.67300(10) 0.4306(3)
C12 C 0.4414(4) 0.57280(14) 0.7624(4)
H6 H 0.420345 0.546232 0.820084
H7 H 0.543136 0.576945 0.757348
C13 C 0.2176(4) 0.74656(12) 0.3790(4)
H8 H 0.130168 0.761315 0.363665
C14 C 0.2009(4) 0.46172(14) 0.9032(3)
H9 H 0.266317 0.481397 0.861689
C17 C 0.2262(4) 0.69499(12) 0.4086(5)
H11 H 0.144230 0.675621 0.413361
C19 C 0.4679(3) 0.75273(11) 0.3901(4)
H13 H 0.550361 0.771650 0.382244
C21 C 0.3719(5) 0.62150(15) 0.7977(4)
H15 H 0.432728 0.640931 0.850743
H16 H 0.283269 0.614946 0.838785
C22 C 0.4755(4) 0.70128(12) 0.4199(4)
H17 H 0.563082 0.686127 0.432433
C23 C 0.3463(4) 0.64997(12) 0.6817(4)
H18 H 0.253105 0.665316 0.681144
H19 H 0.416689 0.676288 0.670134
Cu4 Cu 0.38390(3) 0.92982(2) 0.34289(3)
O6 O 0.0580(2) 0.35696(6) 0.6543(2)
O8 O 0.2903(2) 0.35139(9) 0.6575(4)
H1 H 0.954971 0.384976 0.858575
Cu3 Cu 0.88390(3) 0.57018(2) 0.65711(3)
O7 O 0.8711(2) 0.44827(8) 0.6607(2)
H1_2 H 0.045029 0.615024 0.858575
N2_2 N 0.8882(3) 0.56839(9) 0.4751(2)
C2_2 C 0.8948(3) 0.56561(11) 0.2235(3)
C7_2 C 0.7688(4) 0.56151(17) 0.2876(3)
H2_2 H 0.683762 0.557583 0.246588
C15_2 C 0.8957(3) 0.56493(11) 0.0908(3)
C16_2 C 0.7697(4) 0.56323(17) 0.4109(3)
H10_2 H 0.684070 0.560702 0.451604
C18_2 C 0.7997(4) 0.53620(15) 0.0268(3)
H12_2 H 0.735652 0.515519 0.067077
C20_2 C 0.9915(4) 0.59398(14) 0.0245(3)
O1_2 O 0.7382(2) 0.51796(6) 0.6506(2)
O2_2 O 0.5580(2) 0.14304(6) 0.3457(2)
N1_2 N 0.8884(2) 0.56731(7) 0.8395(2)
O4_2 O 0.6245(4) 0.41635(8) 0.3981(3)
O5_2 O 0.7903(2) 0.14861(9) 0.3425(4)
N3_2 N 0.6419(3) 0.38937(8) 0.5883(3)
C1_2 C 0.6611(3) 0.22456(9) 0.3725(3)
C3_2 C 0.7582(3) 0.47014(9) 0.6501(3)
C4_2 C 0.6738(3) 0.16799(9) 0.3511(3)
C5_2 C 0.9825(4) 0.59458(13) 0.9012(3)
C6_2 C 0.6359(3) 0.38149(10) 0.4711(3)
C8_2 C 0.6202(3) 0.43980(8) 0.6402(3)
H3_2 H 0.551100 0.458738 0.592267
C10_2 C 0.6458(3) 0.32700(10) 0.4306(3)
C12_2 C 0.5586(4) 0.42720(14) 0.7624(4)
H6_2 H 0.579655 0.453768 0.820084
H7_2 H 0.456864 0.423055 0.757348
C13_2 C 0.7824(4) 0.25344(12) 0.3790(4)
H8_2 H 0.869832 0.238685 0.363665
C14_2 C 0.7991(4) 0.53828(14) 0.9032(3)
H9_2 H 0.733683 0.518603 0.861689
C17_2 C 0.7738(4) 0.30501(12) 0.4086(5)
H11_2 H 0.855770 0.324379 0.413361
C19_2 C 0.5321(3) 0.24727(11) 0.3901(4)
H13_2 H 0.449639 0.228350 0.382244
C21_2 C 0.6281(5) 0.37850(15) 0.7977(4)
H15_2 H 0.567272 0.359069 0.850743
H16_2 H 0.716731 0.385054 0.838785
C22_2 C 0.5245(4) 0.29872(12) 0.4199(4)
H17_2 H 0.436918 0.313873 0.432433
C23_2 C 0.6537(4) 0.35003(12) 0.6817(4)
H18_2 H 0.746895 0.334684 0.681144
H19_2 H 0.583311 0.323712 0.670134
Cu4_2 Cu 0.61610(3) 0.07018(2) 0.34289(3)
O6_2 O 0.9420(2) 0.64304(6) 0.6543(2)
O8_2 O 0.7097(2) 0.64861(9) 0.6575(4)
O3_2 O 0.3711(2) 0.05173(8) 0.3393(2)
O4_3 O 0.1245(4) 0.08365(8) 0.6019(3)
N3_3 N 0.1419(3) 0.11063(8) 0.4117(3)
C1_3 C 0.1611(3) 0.27544(9) 0.6275(3)
C3_3 C 0.2582(3) 0.02986(9) 0.3499(3)
C4_3 C 0.1738(3) 0.33201(9) 0.6489(3)
C6_3 C 0.1359(3) 0.11851(10) 0.5289(3)
C8_3 C 0.1202(3) 0.06020(8) 0.3598(3)
H3_3 H 0.051100 0.041262 0.407733
C10_3 C 0.1458(3) 0.17300(10) 0.5694(3)
C12_3 C 0.0586(4) 0.07280(14) 0.2376(4)
H6_3 H 0.079655 0.046232 0.179916
C13_3 C 0.2824(4) 0.24656(12) 0.6210(4)
H8_3 H 0.369832 0.261315 0.636335
C17_3 C 0.2738(4) 0.19499(12) 0.5914(5)
H11_3 H 0.355770 0.175621 0.586639
C19_3 C 0.0321(3) 0.25273(11) 0.6099(4)
C21_3 C 0.1281(5) 0.12150(15) 0.2023(4)
H15_3 H 0.067272 0.140931 0.149257
H16_3 H 0.216731 0.114946 0.161215
C22_3 C 0.0245(4) 0.20128(12) 0.5801(4)
C23_3 C 0.1537(4) 0.14997(12) 0.3183(4)
H18_3 H 0.246895 0.165316 0.318856
H19_3 H 0.083311 0.176288 0.329866
O1_3 O 0.2382(2) 0.98204(6) 0.3494(2)
N1_3 N 0.3884(2) 0.93269(7) 0.1605(2)
C5_3 C 0.4825(4) 0.90542(13) 0.0988(3)
H1_3 H 0.545029 0.884976 0.141425
C14_3 C 0.2991(4) 0.96172(14) 0.0968(3)
H9_3 H 0.233683 0.981397 0.138311
O7_2 O 0.6289(2) 0.94827(8) 0.3393(2)
N4 N 0.3882(3) 0.93161(9) 0.5249(2)
C2_3 C 0.3948(3) 0.93439(11) 0.7765(3)
C7_3 C 0.2688(4) 0.93849(17) 0.7124(3)
H2_3 H 0.183762 0.942417 0.753412
C9 C 0.5183(3) 0.92857(15) 0.7091(3)
H4 H 0.605262 0.925551 0.747397
C11 C 0.5103(3) 0.92734(15) 0.5859(3)
H5 H 0.593554 0.923353 0.542431
C15_3 C 0.3957(3) 0.93507(11) 0.9092(3)
C16_3 C 0.2697(4) 0.93677(17) 0.5891(3)
H10_3 H 0.184070 0.939298 0.548396
C18_3 C 0.2997(4) 0.96380(15) 0.9732(3)
H12_3 H 0.235652 0.984481 0.932923
C20_3 C 0.4915(4) 0.90602(14) 0.9755(3)
H14 H 0.560913 0.887228 0.936457
O1_4 O 0.7618(2) 0.01796(6) 0.3494(2)
N1_4 N 0.6116(2) 0.06731(7) 0.1605(2)
C5_4 C 0.5175(4) 0.09458(13) 0.0988(3)
H1_4 H 0.454971 0.115024 0.141425
C14_4 C 0.7009(4) 0.03828(14) 0.0968(3)
H9_4 H 0.766317 0.018603 0.138311
N4_2 N 0.6118(3) 0.06839(9) 0.5249(2)
C2_4 C 0.6052(3) 0.06561(11) 0.7765(3)
C7_4 C 0.7312(4) 0.06151(17) 0.7124(3)
H2_4 H 0.816238 0.057583 0.753412
C9_2 C 0.4817(3) 0.07143(15) 0.7091(3)
H4_2 H 0.394738 0.074449 0.747397
C11_2 C 0.4897(3) 0.07266(15) 0.5859(3)
H5_2 H 0.406446 0.076647 0.542431
C15_4 C 0.6043(3) 0.06493(11) 0.9092(3)
C16_4 C 0.7303(4) 0.06323(17) 0.5891(3)
H10_4 H 0.815930 0.060702 0.548396
C18_4 C 0.7003(4) 0.03620(15) 0.9732(3)
H12_4 H 0.764348 0.015519 0.932923
C20_4 C 0.5085(4) 0.09398(14) 0.9755(3)
H14_2 H 0.439087 0.112772 0.936457
O4_4 O 0.8755(4) 0.91635(8) 0.6019(3)
N3_4 N 0.8581(3) 0.88937(8) 0.4117(3)
C1_4 C 0.8389(3) 0.72456(9) 0.6275(3)
C3_4 C 0.7418(3) 0.97014(9) 0.3499(3)
C4_4 C 0.8262(3) 0.66799(9) 0.6489(3)
C6_4 C 0.8641(3) 0.88149(10) 0.5289(3)
C8_4 C 0.8798(3) 0.93980(8) 0.3598(3)
H3_4 H 0.948900 0.958738 0.407733
C10_4 C 0.8542(3) 0.82700(10) 0.5694(3)
C12_4 C 0.9414(4) 0.92720(14) 0.2376(4)
H6_4 H 0.920345 0.953768 0.179916
C13_4 C 0.7176(4) 0.75344(12) 0.6210(4)
H8_4 H 0.630168 0.738685 0.636335
C17_4 C 0.7262(4) 0.80501(12) 0.5914(5)
H11_4 H 0.644230 0.824379 0.586639
C19_4 C 0.9679(3) 0.74727(11) 0.6099(4)
C21_4 C 0.8719(5) 0.87850(15) 0.2023(4)
H15_4 H 0.932728 0.859069 0.149257
H16_4 H 0.783269 0.885054 0.161215
C22_4 C 0.9755(4) 0.79872(12) 0.5801(4)
C23_4 C 0.8463(4) 0.85003(12) 0.3183(4)
H18_4 H 0.753105 0.834684 0.318856
H19_4 H 0.916689 0.823712 0.329866
C9_3 C 0.9817(3) 0.42857(15) 0.2909(3)
H4_3 H 0.894738 0.425551 0.252603
C11_3 C 0.9897(3) 0.42734(15) 0.4141(3)
H5_3 H 0.906446 0.423353 0.457569
H14_3 H 0.939087 0.387228 0.063543
C9_4 C 0.0183(3) 0.57143(15) 0.2909(3)
H4_4 H 0.105262 0.574449 0.252603
C11_4 C 0.0103(3) 0.57266(15) 0.4141(3)
H5_4 H 0.093554 0.576647 0.457569
H14_4 H 0.060913 0.612772 0.063543
H7_3 H 0.956864 0.076945 0.242652
H13_3 H 0.949639 0.271650 0.617756
H17_3 H 0.936918 0.186127 0.567567
H7_4 H 0.043136 0.923055 0.242652
H13_4 H 0.050361 0.728350 0.617756
H17_4 H 0.063082 0.813873 0.567567
loop_
_geom_bond_atom_site_label_1
_geom_bond_atom_site_label_2
_geom_bond_site_symmetry_1
_geom_bond_site_symmetry_2
C2 C7 1_555 1_555
C7 H2 1_555 1_555
C15 C2 1_555 1_555
C16 N2 1_555 1_555
H10 C16 1_555 1_555
H12 C18 1_555 1_555
Cu2 N2 1_555 1_555
C7 C16 1_555 1_555
C15 C18 1_555 1_555
C15 C20 1_555 1_555
Cu2 O1 1_555 1_555
O1 C3 1_555 1_555
O2 C4 1_555 1_555
O3 C3 1_555 1_555
N1 Cu2 1_555 1_555
O4 C6 1_555 1_555
O5 C4 1_555 1_555
N3 C6 1_555 1_555
C1 C4 1_555 1_555
C3 C8 1_555 1_555
C5 N1 1_555 1_555
C6 C10 1_555 1_555
C8 N3 1_555 1_555
H3 C8 1_555 1_555
C10 C17 1_555 1_555
C12 C8 1_555 1_555
H6 C12 1_555 1_555
H7 C12 1_555 1_555
C13 C1 1_555 1_555
H8 C13 1_555 1_555
C14 N1 1_555 1_555
H9 C14 1_555 1_555
C17 C13 1_555 1_555
H11 C17 1_555 1_555
C19 C1 1_555 1_555
H13 C19 1_555 1_555
C21 C12 1_555 1_555
H15 C21 1_555 1_555
H16 C21 1_555 1_555
C22 C10 1_555 1_555
H17 C22 1_555 1_555
C23 N3 1_555 1_555
H18 C23 1_555 1_555
H19 C23 1_555 1_555
Cu4 O2 1_555 1_555
O6 Cu2 1_555 1_555
O8 Cu2 1_555 1_555
O5 Cu4 1_555 1_555
C19 C22 1_555 1_555
C21 C23 1_555 1_555
C2_2 C7_2 1_555 1_555
C7_2 H2_2 1_555 1_555
C15_2 C2_2 1_555 1_555
C16_2 N2_2 1_555 1_555
H10_2 C16_2 1_555 1_555
H12_2 C18_2 1_555 1_555
Cu3 N2_2 1_555 1_555
C7_2 C16_2 1_555 1_555
C15_2 C18_2 1_555 1_555
C15_2 C20_2 1_555 1_555
Cu3 O1_2 1_555 1_555
O1_2 C3_2 1_555 1_555
O2_2 C4_2 1_555 1_555
O7 C3_2 1_555 1_555
N1_2 Cu3 1_555 1_555
O4_2 C6_2 1_555 1_555
O5_2 C4_2 1_555 1_555
N3_2 C6_2 1_555 1_555
C1_2 C4_2 1_555 1_555
C3_2 C8_2 1_555 1_555
C5_2 N1_2 1_555 1_555
C6_2 C10_2 1_555 1_555
C8_2 N3_2 1_555 1_555
H3_2 C8_2 1_555 1_555
C10_2 C17_2 1_555 1_555
C12_2 C8_2 1_555 1_555
H6_2 C12_2 1_555 1_555
H7_2 C12_2 1_555 1_555
C13_2 C1_2 1_555 1_555
H8_2 C13_2 1_555 1_555
C14_2 N1_2 1_555 1_555
H9_2 C14_2 1_555 1_555
C17_2 C13_2 1_555 1_555
H11_2 C17_2 1_555 1_555
C19_2 C1_2 1_555 1_555
H13_2 C19_2 1_555 1_555
C21_2 C12_2 1_555 1_555
H15_2 C21_2 1_555 1_555
H16_2 C21_2 1_555 1_555
C22_2 C10_2 1_555 1_555
H17_2 C22_2 1_555 1_555
C23_2 N3_2 1_555 1_555
H18_2 C23_2 1_555 1_555
H19_2 C23_2 1_555 1_555
Cu4_2 O2_2 1_555 1_555
O6_2 Cu3 1_555 1_555
O8_2 Cu3 1_555 1_555
O5_2 Cu4_2 1_555 1_555
C19_2 C22_2 1_555 1_555
C21_2 C23_2 1_555 1_555
O6 C4_3 1_555 1_555
O3_2 C3_3 1_555 1_555
O4_3 C6_3 1_555 1_555
O8 C4_3 1_555 1_555
N3_3 C6_3 1_555 1_555
C1_3 C4_3 1_555 1_555
C3_3 C8_3 1_555 1_555
C6_3 C10_3 1_555 1_555
C8_3 N3_3 1_555 1_555
H3_3 C8_3 1_555 1_555
C10_3 C17_3 1_555 1_555
C12_3 C8_3 1_555 1_555
H6_3 C12_3 1_555 1_555
C13_3 C1_3 1_555 1_555
H8_3 C13_3 1_555 1_555
C17_3 C13_3 1_555 1_555
H11_3 C17_3 1_555 1_555
C19_3 C1_3 1_555 1_555
C21_3 C12_3 1_555 1_555
H15_3 C21_3 1_555 1_555
H16_3 C21_3 1_555 1_555
C22_3 C10_3 1_555 1_555
C23_3 N3_3 1_555 1_555
H18_3 C23_3 1_555 1_555
H19_3 C23_3 1_555 1_555
Cu4_2 O3_2 1_555 1_555
C19_3 C22_3 1_555 1_555
C21_3 C23_3 1_555 1_555
Cu4 O1_3 1_555 1_555
N1_3 Cu4 1_555 1_555
C5_3 N1_3 1_555 1_555
H1_3 C5_3 1_555 1_555
C14_3 N1_3 1_555 1_555
H9_3 C14_3 1_555 1_555
O7_2 Cu4 1_555 1_555
N4 Cu4 1_555 1_555
N4 C11 1_555 1_555
C2_3 C7_3 1_555 1_555
C7_3 H2_3 1_555 1_555
C9 C2_3 1_555 1_555
H4 C9 1_555 1_555
C11 C9 1_555 1_555
H5 C11 1_555 1_555
C15_3 C2_3 1_555 1_555
C16_3 N4 1_555 1_555
H10_3 C16_3 1_555 1_555
H12_3 C18_3 1_555 1_555
H14 C20_3 1_555 1_555
C7_3 C16_3 1_555 1_555
C15_3 C18_3 1_555 1_555
C15_3 C20_3 1_555 1_555
Cu4_2 O1_4 1_555 1_555
N1_4 Cu4_2 1_555 1_555
C5_4 N1_4 1_555 1_555
H1_4 C5_4 1_555 1_555
C14_4 N1_4 1_555 1_555
H9_4 C14_4 1_555 1_555
N4_2 Cu4_2 1_555 1_555
N4_2 C11_2 1_555 1_555
C2_4 C7_4 1_555 1_555
C7_4 H2_4 1_555 1_555
C9_2 C2_4 1_555 1_555
H4_2 C9_2 1_555 1_555
C11_2 C9_2 1_555 1_555
H5_2 C11_2 1_555 1_555
C15_4 C2_4 1_555 1_555
C16_4 N4_2 1_555 1_555
H10_4 C16_4 1_555 1_555
H12_4 C18_4 1_555 1_555
H14_2 C20_4 1_555 1_555
C7_4 C16_4 1_555 1_555
C15_4 C18_4 1_555 1_555
C15_4 C20_4 1_555 1_555
O6_2 C4_4 1_555 1_555
O7_2 C3_4 1_555 1_555
O4_4 C6_4 1_555 1_555
O8_2 C4_4 1_555 1_555
N3_4 C6_4 1_555 1_555
C1_4 C4_4 1_555 1_555
C3_4 C8_4 1_555 1_555
C6_4 C10_4 1_555 1_555
C8_4 N3_4 1_555 1_555
H3_4 C8_4 1_555 1_555
C10_4 C17_4 1_555 1_555
C12_4 C8_4 1_555 1_555
H6_4 C12_4 1_555 1_555
C13_4 C1_4 1_555 1_555
H8_4 C13_4 1_555 1_555
C17_4 C13_4 1_555 1_555
H11_4 C17_4 1_555 1_555
C19_4 C1_4 1_555 1_555
C21_4 C12_4 1_555 1_555
H15_4 C21_4 1_555 1_555
H16_4 C21_4 1_555 1_555
C22_4 C10_4 1_555 1_555
C23_4 N3_4 1_555 1_555
H18_4 C23_4 1_555 1_555
H19_4 C23_4 1_555 1_555
C19_4 C22_4 1_555 1_555
C21_4 C23_4 1_555 1_555
H4_3 C9_3 1_555 1_555
C11_3 C9_3 1_555 1_555
H5_3 C11_3 1_555 1_555
H4_4 C9_4 1_555 1_555
C11_4 C9_4 1_555 1_555
H5_4 C11_4 1_555 1_555

#END
