
###############################################################################
#
# This file contains modified crystal structure data generated from the
# MOF subset of the Cambridge Structural Database (CSD) v543 
# hosted by the Cambridge Crystallographic Data Centre (CCDC).
#
# This work is licensed under the Creative Commons
# Attribution-NonCommercial-ShareAlike 4.0 International License.
# To view a copy of this license, visit
# http://creativecommons.org/licenses/by-nc-sa/4.0/
# or send a letter to
# Creative Commons, PO Box 1866, Mountain View, CA 94042, USA.
#
# CIF created using the CSD Python API on 29 September 2022
# The structure has been converted into the P1 space group
# The structure has a 3D framework
# The original CSD entry HUPTUK is in the orthorhombic crystal system
# The original CSD entry HUPTUK is in a Sohncke space group
# The framework has been calculated to contain at least 10.0% void space
# The void calculation uses a probe of radius 1.32A, grid spacing 0.4
#
###############################################################################

data_HUPTUK
_chemical_formula_moiety         '(C92 H76 Cu4 N12 O20)n'
_symmetry_cell_setting           triclinic
_symmetry_space_group_name_H-M   'P 1'
_symmetry_Int_Tables_number      1
_space_group_name_Hall           'P 1'
loop_
_symmetry_equiv_pos_site_id
_symmetry_equiv_pos_as_xyz
1 x,y,z
_cell_length_a                   9.4529(6)
_cell_length_b                   26.3871(10)
_cell_length_c                   11.1375(6)
_cell_angle_alpha                90
_cell_angle_beta                 90
_cell_angle_gamma                90
_cell_volume                     2778.08
loop_
_atom_site_label
_atom_site_type_symbol
_atom_site_fract_x
_atom_site_fract_y
_atom_site_fract_z
Cu1 Cu 0.11629(3) 0.57013(2) 0.65730(3)
O1 O 0.2623(2) 0.51786(6) 0.65080(18)
O2 O 0.4420(2) 0.14303(6) 0.34559(19)
O3 O 0.1286(2) 0.44825(7) 0.6611(2)
N2 N 0.1115(3) 0.56825(9) 0.47501(18)
O4 O 0.3752(4) 0.41632(8) 0.3981(2)
O5 O 0.2096(2) 0.14866(8) 0.3427(3)
N3 N 0.3576(3) 0.38935(8) 0.5886(2)
C1 C 0.3393(3) 0.22459(9) 0.3724(2)
C3 C 0.2422(3) 0.47015(9) 0.6500(2)
C4 C 0.1058(4) 0.56555(11) 0.2243(2)
C5 C 0.3262(3) 0.16795(9) 0.3509(3)
C6 C 0.3636(3) 0.38142(9) 0.4713(3)
C9 C 0.3802(3) 0.43988(8) 0.6402(3)
H4 H 0.449535 0.458681 0.592314
C10 C 0.3545(3) 0.32678(9) 0.4310(3)
C11 C 0.4419(4) 0.42709(13) 0.7626(3)
H5 H 0.543610 0.422745 0.757715
H6 H 0.421061 0.453610 0.820291
C12 C 0.2182(4) 0.25349(12) 0.3789(4)
H7 H 0.130717 0.238717 0.363599
C13 C 0.2315(4) 0.56117(16) 0.2873(3)
H8 H 0.316553 0.557039 0.246486
C14 C 0.2299(4) 0.56297(16) 0.4110(3)
H9 H 0.315394 0.560365 0.451763
C16 C 0.4679(3) 0.24725(11) 0.3906(3)
H11 H 0.550454 0.228333 0.383546
C17 C 0.1042(3) 0.56478(10) 0.0911(2)
C18 C 0.0097(4) 0.59396(13) 0.0249(3)
C19 C 0.2001(4) 0.53570(14) 0.0269(3)
H13 H 0.263695 0.514772 0.066956
C20 C 0.2261(4) 0.30502(12) 0.4084(4)
H14 H 0.144065 0.324396 0.412546
C21 C 0.4754(4) 0.29852(11) 0.4197(4)
H15 H 0.563138 0.313686 0.431578
C22 C 0.3467(4) 0.34993(11) 0.6817(3)
H16 H 0.418057 0.323948 0.670254
H17 H 0.253964 0.334232 0.680847
C23 C 0.3710(5) 0.37834(15) 0.7976(3)
H18 H 0.281836 0.385004 0.837720
H19 H 0.431023 0.358887 0.851155
Cu4 Cu 0.38371(3) 0.07013(2) 0.34270(3)
O6 O 0.0580(2) 0.64303(6) 0.65441(19)
N4 N 0.1113(2) 0.56716(7) 0.83986(18)
O8 O 0.2904(2) 0.64866(8) 0.6573(3)
C2 C 0.0177(3) 0.59472(12) 0.9008(3)
C15 C 0.2005(4) 0.53807(13) 0.9029(3)
H10 H 0.265924 0.518484 0.861275
C7 C 0.9826(3) 0.57141(15) 0.2906(2)
H2 H 0.895667 0.574392 0.252098
C8 C 0.9906(3) 0.57275(14) 0.4145(2)
H3 H 0.907290 0.577001 0.457856
H12 H 0.941019 0.612999 0.064095
Cu3 Cu 0.88371(3) 0.42987(2) 0.65730(3)
O7 O 0.8714(2) 0.55175(7) 0.6611(2)
C7_2 C 0.0174(3) 0.42859(15) 0.2906(2)
H2_2 H 0.104333 0.425608 0.252098
C8_2 C 0.0094(3) 0.42725(14) 0.4145(2)
H3_2 H 0.092710 0.422999 0.457856
H12_2 H 0.058981 0.387001 0.064095
O1_2 O 0.7377(2) 0.48214(6) 0.65080(18)
O2_2 O 0.5580(2) 0.85697(6) 0.34559(19)
N2_2 N 0.8885(3) 0.43175(9) 0.47501(18)
O4_2 O 0.6248(4) 0.58368(8) 0.3981(2)
O5_2 O 0.7904(2) 0.85134(8) 0.3427(3)
N3_2 N 0.6424(3) 0.61065(8) 0.5886(2)
C1_2 C 0.6607(3) 0.77541(9) 0.3724(2)
C3_2 C 0.7578(3) 0.52985(9) 0.6500(2)
C4_2 C 0.8942(4) 0.43445(11) 0.2243(2)
C5_2 C 0.6738(3) 0.83205(9) 0.3509(3)
C6_2 C 0.6364(3) 0.61858(9) 0.4713(3)
C9_2 C 0.6198(3) 0.56012(8) 0.6402(3)
H4_2 H 0.550465 0.541319 0.592314
C10_2 C 0.6455(3) 0.67322(9) 0.4310(3)
C11_2 C 0.5581(4) 0.57291(13) 0.7626(3)
H5_2 H 0.456390 0.577255 0.757715
H6_2 H 0.578939 0.546390 0.820291
C12_2 C 0.7818(4) 0.74651(12) 0.3789(4)
H7_2 H 0.869283 0.761283 0.363599
C13_2 C 0.7685(4) 0.43883(16) 0.2873(3)
H8_2 H 0.683447 0.442961 0.246486
C14_2 C 0.7701(4) 0.43703(16) 0.4110(3)
H9_2 H 0.684606 0.439635 0.451763
C16_2 C 0.5321(3) 0.75275(11) 0.3906(3)
H11_2 H 0.449546 0.771667 0.383546
C17_2 C 0.8958(3) 0.43522(10) 0.0911(2)
C18_2 C 0.9903(4) 0.40604(13) 0.0249(3)
C19_2 C 0.7999(4) 0.46430(14) 0.0269(3)
H13_2 H 0.736305 0.485228 0.066956
C20_2 C 0.7739(4) 0.69498(12) 0.4084(4)
H14_2 H 0.855935 0.675604 0.412546
C21_2 C 0.5246(4) 0.70148(11) 0.4197(4)
H15_2 H 0.436862 0.686314 0.431578
C22_2 C 0.6533(4) 0.65007(11) 0.6817(3)
H16_2 H 0.581943 0.676052 0.670254
H17_2 H 0.746036 0.665768 0.680847
C23_2 C 0.6290(5) 0.62166(15) 0.7976(3)
H18_2 H 0.718164 0.614996 0.837720
H19_2 H 0.568977 0.641113 0.851155
Cu4_2 Cu 0.61629(3) 0.92987(2) 0.34270(3)
O6_2 O 0.9420(2) 0.35697(6) 0.65441(19)
N4_2 N 0.8887(2) 0.43284(7) 0.83986(18)
O8_2 O 0.7096(2) 0.35134(8) 0.6573(3)
C2_2 C 0.9823(3) 0.40528(12) 0.9008(3)
C15_2 C 0.7995(4) 0.46193(13) 0.9029(3)
H10_2 H 0.734076 0.481516 0.861275
N1 N 0.3887(2) 0.06716(7) 0.16014(18)
C2_3 C 0.4823(3) 0.09472(12) 0.0992(3)
H1 H 0.544636 0.115277 0.141604
C15_3 C 0.2995(4) 0.03807(13) 0.0971(3)
H10_3 H 0.234076 0.018484 0.138725
O1_3 O 0.2377(2) 0.01786(6) 0.34920(18)
N2_3 N 0.3885(3) 0.06825(9) 0.52499(18)
C4_3 C 0.3942(4) 0.06555(11) 0.7757(2)
C7_3 C 0.5174(3) 0.07141(15) 0.7094(2)
H2_3 H 0.604333 0.074392 0.747902
C8_3 C 0.5094(3) 0.07275(14) 0.5855(2)
H3_3 H 0.592710 0.077001 0.542144
C13_3 C 0.2685(4) 0.06117(16) 0.7127(3)
H8_3 H 0.183447 0.057039 0.753514
C14_3 C 0.2701(4) 0.06297(16) 0.5890(3)
H9_3 H 0.184606 0.060365 0.548237
C17_3 C 0.3958(3) 0.06478(10) 0.9089(2)
C18_3 C 0.4903(4) 0.09396(13) 0.9751(3)
H12_3 H 0.558981 0.112999 0.935905
C19_3 C 0.2999(4) 0.03570(14) 0.9731(3)
H13_3 H 0.236305 0.014772 0.933044
O7_2 O 0.6286(2) 0.05175(7) 0.3389(2)
O3_2 O 0.3714(2) 0.94825(7) 0.3389(2)
O4_3 O 0.1248(4) 0.91632(8) 0.6019(2)
N3_3 N 0.1424(3) 0.88935(8) 0.4114(2)
C1_3 C 0.1607(3) 0.72459(9) 0.6276(2)
C3_3 C 0.2578(3) 0.97015(9) 0.3500(2)
C5_3 C 0.1738(3) 0.66795(9) 0.6491(3)
C6_3 C 0.1364(3) 0.88142(9) 0.5287(3)
C9_3 C 0.1198(3) 0.93988(8) 0.3598(3)
H4_3 H 0.050465 0.958681 0.407686
C10_3 C 0.1455(3) 0.82678(9) 0.5690(3)
C11_3 C 0.0581(4) 0.92709(13) 0.2374(3)
H6_3 H 0.078939 0.953610 0.179709
C12_3 C 0.2818(4) 0.75349(12) 0.6211(4)
H7_3 H 0.369283 0.738717 0.636401
C16_3 C 0.0321(3) 0.74725(11) 0.6094(3)
C20_3 C 0.2739(4) 0.80502(12) 0.5916(4)
H14_3 H 0.355935 0.824396 0.587454
C21_3 C 0.0246(4) 0.79852(11) 0.5803(4)
C22_3 C 0.1533(4) 0.84993(11) 0.3183(3)
H16_3 H 0.081943 0.823948 0.329746
H17_3 H 0.246036 0.834232 0.319153
C23_3 C 0.1290(5) 0.87834(15) 0.2024(3)
H18_3 H 0.218164 0.885004 0.162280
H19_3 H 0.068977 0.858887 0.148845
O4_4 O 0.8752(4) 0.08368(8) 0.6019(2)
N3_4 N 0.8576(3) 0.11065(8) 0.4114(2)
C1_4 C 0.8393(3) 0.27541(9) 0.6276(2)
C3_4 C 0.7422(3) 0.02985(9) 0.3500(2)
C5_4 C 0.8262(3) 0.33205(9) 0.6491(3)
C6_4 C 0.8636(3) 0.11858(9) 0.5287(3)
C9_4 C 0.8802(3) 0.06012(8) 0.3598(3)
H4_4 H 0.949535 0.041319 0.407686
C10_4 C 0.8545(3) 0.17322(9) 0.5690(3)
C11_4 C 0.9419(4) 0.07291(13) 0.2374(3)
H6_4 H 0.921061 0.046390 0.179709
C12_4 C 0.7182(4) 0.24651(12) 0.6211(4)
H7_4 H 0.630717 0.261283 0.636401
C16_4 C 0.9679(3) 0.25275(11) 0.6094(3)
C20_4 C 0.7261(4) 0.19498(12) 0.5916(4)
H14_4 H 0.644065 0.175604 0.587454
C21_4 C 0.9754(4) 0.20148(11) 0.5803(4)
C22_4 C 0.8467(4) 0.15007(11) 0.3183(3)
H16_4 H 0.918057 0.176052 0.329746
H17_4 H 0.753964 0.165768 0.319153
C23_4 C 0.8710(5) 0.12166(15) 0.2024(3)
H18_4 H 0.781836 0.114996 0.162280
H19_4 H 0.931023 0.141113 0.148845
N1_2 N 0.6113(2) 0.93284(7) 0.16014(18)
C2_4 C 0.5177(3) 0.90528(12) 0.0992(3)
H1_2 H 0.455364 0.884723 0.141604
C15_4 C 0.7005(4) 0.96193(13) 0.0971(3)
H10_4 H 0.765924 0.981516 0.138725
O1_4 O 0.7623(2) 0.98214(6) 0.34920(18)
N2_4 N 0.6115(3) 0.93175(9) 0.52499(18)
C4_4 C 0.6058(4) 0.93445(11) 0.7757(2)
C7_4 C 0.4826(3) 0.92859(15) 0.7094(2)
H2_4 H 0.395667 0.925608 0.747902
C8_4 C 0.4906(3) 0.92725(14) 0.5855(2)
H3_4 H 0.407290 0.922999 0.542144
C13_4 C 0.7315(4) 0.93883(16) 0.7127(3)
H8_4 H 0.816553 0.942961 0.753514
C14_4 C 0.7299(4) 0.93703(16) 0.5890(3)
H9_4 H 0.815394 0.939635 0.548237
C17_4 C 0.6042(3) 0.93522(10) 0.9089(2)
C18_4 C 0.5097(4) 0.90604(13) 0.9751(3)
H12_4 H 0.441019 0.887001 0.935905
C19_4 C 0.7001(4) 0.96430(14) 0.9731(3)
H13_4 H 0.763695 0.985228 0.933044
H1_3 H 0.955364 0.615277 0.858396
H1_4 H 0.044636 0.384723 0.858396
H5_3 H 0.956390 0.922745 0.242285
H11_3 H 0.949546 0.728333 0.616454
H15_3 H 0.936862 0.813686 0.568422
H5_4 H 0.043610 0.077255 0.242285
H11_4 H 0.050454 0.271667 0.616454
H15_4 H 0.063138 0.186314 0.568422
loop_
_geom_bond_atom_site_label_1
_geom_bond_atom_site_label_2
_geom_bond_site_symmetry_1
_geom_bond_site_symmetry_2
Cu1 O1 1_555 1_555
O1 C3 1_555 1_555
O2 C5 1_555 1_555
O3 C3 1_555 1_555
N2 Cu1 1_555 1_555
O4 C6 1_555 1_555
O5 C5 1_555 1_555
N3 C6 1_555 1_555
C1 C5 1_555 1_555
C3 C9 1_555 1_555
C6 C10 1_555 1_555
C9 N3 1_555 1_555
H4 C9 1_555 1_555
C10 C20 1_555 1_555
C11 C9 1_555 1_555
H5 C11 1_555 1_555
H6 C11 1_555 1_555
C12 C1 1_555 1_555
H7 C12 1_555 1_555
C13 C4 1_555 1_555
H8 C13 1_555 1_555
C14 N2 1_555 1_555
H9 C14 1_555 1_555
C16 C1 1_555 1_555
H11 C16 1_555 1_555
C17 C4 1_555 1_555
H13 C19 1_555 1_555
C20 C12 1_555 1_555
H14 C20 1_555 1_555
C21 C10 1_555 1_555
H15 C21 1_555 1_555
C22 N3 1_555 1_555
H16 C22 1_555 1_555
H17 C22 1_555 1_555
C23 C11 1_555 1_555
H18 C23 1_555 1_555
H19 C23 1_555 1_555
Cu4 O2 1_555 1_555
O6 Cu1 1_555 1_555
N4 Cu1 1_555 1_555
O8 Cu1 1_555 1_555
O5 Cu4 1_555 1_555
C13 C14 1_555 1_555
C16 C21 1_555 1_555
C17 C18 1_555 1_555
C17 C19 1_555 1_555
C22 C23 1_555 1_555
N4 C2 1_555 1_555
C15 N4 1_555 1_555
H10 C15 1_555 1_555
C7 H2 1_555 1_555
H3 C8 1_555 1_555
C7 C8 1_555 1_555
C7_2 H2_2 1_555 1_555
H3_2 C8_2 1_555 1_555
C7_2 C8_2 1_555 1_555
Cu3 O1_2 1_555 1_555
O1_2 C3_2 1_555 1_555
O2_2 C5_2 1_555 1_555
O7 C3_2 1_555 1_555
N2_2 Cu3 1_555 1_555
O4_2 C6_2 1_555 1_555
O5_2 C5_2 1_555 1_555
N3_2 C6_2 1_555 1_555
C1_2 C5_2 1_555 1_555
C3_2 C9_2 1_555 1_555
C6_2 C10_2 1_555 1_555
C9_2 N3_2 1_555 1_555
H4_2 C9_2 1_555 1_555
C10_2 C20_2 1_555 1_555
C11_2 C9_2 1_555 1_555
H5_2 C11_2 1_555 1_555
H6_2 C11_2 1_555 1_555
C12_2 C1_2 1_555 1_555
H7_2 C12_2 1_555 1_555
C13_2 C4_2 1_555 1_555
H8_2 C13_2 1_555 1_555
C14_2 N2_2 1_555 1_555
H9_2 C14_2 1_555 1_555
C16_2 C1_2 1_555 1_555
H11_2 C16_2 1_555 1_555
C17_2 C4_2 1_555 1_555
H13_2 C19_2 1_555 1_555
C20_2 C12_2 1_555 1_555
H14_2 C20_2 1_555 1_555
C21_2 C10_2 1_555 1_555
H15_2 C21_2 1_555 1_555
C22_2 N3_2 1_555 1_555
H16_2 C22_2 1_555 1_555
H17_2 C22_2 1_555 1_555
C23_2 C11_2 1_555 1_555
H18_2 C23_2 1_555 1_555
H19_2 C23_2 1_555 1_555
Cu4_2 O2_2 1_555 1_555
O6_2 Cu3 1_555 1_555
N4_2 Cu3 1_555 1_555
O8_2 Cu3 1_555 1_555
O5_2 Cu4_2 1_555 1_555
C13_2 C14_2 1_555 1_555
C16_2 C21_2 1_555 1_555
C17_2 C18_2 1_555 1_555
C17_2 C19_2 1_555 1_555
C22_2 C23_2 1_555 1_555
N4_2 C2_2 1_555 1_555
C15_2 N4_2 1_555 1_555
H10_2 C15_2 1_555 1_555
N1 C2_3 1_555 1_555
C2_3 H1 1_555 1_555
C15_3 N1 1_555 1_555
H10_3 C15_3 1_555 1_555
Cu4 N1 1_555 1_555
Cu4 O1_3 1_555 1_555
N2_3 Cu4 1_555 1_555
C4_3 C7_3 1_555 1_555
C7_3 H2_3 1_555 1_555
C8_3 N2_3 1_555 1_555
H3_3 C8_3 1_555 1_555
C13_3 C4_3 1_555 1_555
H8_3 C13_3 1_555 1_555
C14_3 N2_3 1_555 1_555
H9_3 C14_3 1_555 1_555
C17_3 C4_3 1_555 1_555
H12_3 C18_3 1_555 1_555
H13_3 C19_3 1_555 1_555
O7_2 Cu4 1_555 1_555
C7_3 C8_3 1_555 1_555
C13_3 C14_3 1_555 1_555
C17_3 C18_3 1_555 1_555
C17_3 C19_3 1_555 1_555
O6 C5_3 1_555 1_555
O3_2 C3_3 1_555 1_555
O4_3 C6_3 1_555 1_555
O8 C5_3 1_555 1_555
N3_3 C6_3 1_555 1_555
C1_3 C5_3 1_555 1_555
C3_3 C9_3 1_555 1_555
C6_3 C10_3 1_555 1_555
C9_3 N3_3 1_555 1_555
H4_3 C9_3 1_555 1_555
C10_3 C20_3 1_555 1_555
C11_3 C9_3 1_555 1_555
H6_3 C11_3 1_555 1_555
C12_3 C1_3 1_555 1_555
H7_3 C12_3 1_555 1_555
C16_3 C1_3 1_555 1_555
C20_3 C12_3 1_555 1_555
H14_3 C20_3 1_555 1_555
C21_3 C10_3 1_555 1_555
C22_3 N3_3 1_555 1_555
H16_3 C22_3 1_555 1_555
H17_3 C22_3 1_555 1_555
C23_3 C11_3 1_555 1_555
H18_3 C23_3 1_555 1_555
H19_3 C23_3 1_555 1_555
Cu4_2 O3_2 1_555 1_555
C16_3 C21_3 1_555 1_555
C22_3 C23_3 1_555 1_555
O6_2 C5_4 1_555 1_555
O7_2 C3_4 1_555 1_555
O4_4 C6_4 1_555 1_555
O8_2 C5_4 1_555 1_555
N3_4 C6_4 1_555 1_555
C1_4 C5_4 1_555 1_555
C3_4 C9_4 1_555 1_555
C6_4 C10_4 1_555 1_555
C9_4 N3_4 1_555 1_555
H4_4 C9_4 1_555 1_555
C10_4 C20_4 1_555 1_555
C11_4 C9_4 1_555 1_555
H6_4 C11_4 1_555 1_555
C12_4 C1_4 1_555 1_555
H7_4 C12_4 1_555 1_555
C16_4 C1_4 1_555 1_555
C20_4 C12_4 1_555 1_555
H14_4 C20_4 1_555 1_555
C21_4 C10_4 1_555 1_555
C22_4 N3_4 1_555 1_555
H16_4 C22_4 1_555 1_555
H17_4 C22_4 1_555 1_555
C23_4 C11_4 1_555 1_555
H18_4 C23_4 1_555 1_555
H19_4 C23_4 1_555 1_555
C16_4 C21_4 1_555 1_555
C22_4 C23_4 1_555 1_555
N1_2 C2_4 1_555 1_555
C2_4 H1_2 1_555 1_555
C15_4 N1_2 1_555 1_555
H10_4 C15_4 1_555 1_555
Cu4_2 N1_2 1_555 1_555
Cu4_2 O1_4 1_555 1_555
N2_4 Cu4_2 1_555 1_555
C4_4 C7_4 1_555 1_555
C7_4 H2_4 1_555 1_555
C8_4 N2_4 1_555 1_555
H3_4 C8_4 1_555 1_555
C13_4 C4_4 1_555 1_555
H8_4 C13_4 1_555 1_555
C14_4 N2_4 1_555 1_555
H9_4 C14_4 1_555 1_555
C17_4 C4_4 1_555 1_555
H12_4 C18_4 1_555 1_555
H13_4 C19_4 1_555 1_555
C7_4 C8_4 1_555 1_555
C13_4 C14_4 1_555 1_555
C17_4 C18_4 1_555 1_555
C17_4 C19_4 1_555 1_555

#END
