
###############################################################################
#
# This file contains modified crystal structure data generated from the
# MOF subset of the Cambridge Structural Database (CSD) v543 
# hosted by the Cambridge Crystallographic Data Centre (CCDC).
#
# This work is licensed under the Creative Commons
# Attribution-NonCommercial-ShareAlike 4.0 International License.
# To view a copy of this license, visit
# http://creativecommons.org/licenses/by-nc-sa/4.0/
# or send a letter to
# Creative Commons, PO Box 1866, Mountain View, CA 94042, USA.
#
# CIF created using the CSD Python API on 29 September 2022
# The structure has been converted into the P1 space group
# The structure has a 3D framework
# The original CSD entry HUQVOH is in the monoclinic crystal system
# The framework has been calculated to contain at least 10.0% void space
# The void calculation uses a probe of radius 1.32A, grid spacing 0.4
#
###############################################################################

data_HUQVOH
_chemical_formula_moiety         '(C144 H112 Eu8 O54)n'
_symmetry_cell_setting           triclinic
_symmetry_space_group_name_H-M   'P 1'
_symmetry_Int_Tables_number      1
_space_group_name_Hall           'P 1'
loop_
_symmetry_equiv_pos_site_id
_symmetry_equiv_pos_as_xyz
1 x,y,z
_cell_length_a                   24.351(3)
_cell_length_b                   14.0082(16)
_cell_length_c                   15.3361(17)
_cell_angle_alpha                90
_cell_angle_beta                 103.718(3)
_cell_angle_gamma                90
_cell_volume                     5082.13
loop_
_atom_site_label
_atom_site_type_symbol
_atom_site_fract_x
_atom_site_fract_y
_atom_site_fract_z
C2 C 0.2631(9) 0.0523(14) 0.2097(12)
H1 H 0.2533 0.0538 0.2648
C3 C 0.2644(9) 0.1326(16) 0.1647(14)
H2 H 0.2772 0.1297 0.1122
C4 C 0.2468(10) 0.2272(13) 0.1927(14)
C5 C 0.2471(9) 0.3029(14) 0.1366(13)
H3 H 0.2578 0.2927 0.0830
C6 C 0.2286(14) 0.2412(17) 0.272(2)
H4 H 0.2259 0.1896 0.3087
C7 C 0.2148(18) 0.3302(19) 0.294(2)
H5 H 0.2055 0.3394 0.3490
C8 C 0.2143(14) 0.4091(16) 0.2370(19)
H6 H 0.2025 0.4688 0.2519
C9 C 0.2319(9) 0.3956(14) 0.1572(13)
C10 C 0.2352(9) 0.4762(13) 0.1012(13)
H7 H 0.2279 0.5355 0.1232
C11 C 0.2476(12) 0.4757(15) 0.0211(16)
Eu3 Eu 0.28865(3) 0.77375(6) 0.09511(5)
H8 H 0.2555 0.4174 0.9978
C12 C 0.2494(10) 0.5606(14) 0.9682(14)
O3 O 0.2566(5) 0.6430(10) 0.9936(8)
O4 O 0.2444(8) 0.5460(11) 0.8830(9)
Eu9 Eu 0.23710(3) 0.70791(6) 0.82639(5)
C1 C 0.2770(8) 0.9598(14) 0.1728(13)
C13 C 0.3156(7) 0.6273(13) 0.2338(13)
C14 C 0.3346(9) 0.5679(15) 0.3127(14)
H9 H 0.3140 0.5698 0.3566
C15 C 0.3776(8) 0.5135(14) 0.3261(11)
H10 H 0.3947 0.5070 0.2782
C16 C 0.4037(8) 0.4597(14) 0.4073(14)
C17 C 0.3777(10) 0.4565(16) 0.4798(16)
H11 H 0.3436 0.4875 0.4769
C18 C 0.4044(11) 0.406(2) 0.5559(18)
H12 H 0.3870 0.4036 0.6037
C19 C 0.4547(8) 0.4142(14) 0.4142(13)
H13 H 0.4729 0.4174 0.3673
C20 C 0.4553(11) 0.359(2) 0.5646(16)
H14 H 0.4725 0.3266 0.6168
C21 C 0.4790(8) 0.3633(15) 0.4919(12)
C22 C 0.5359(7) 0.3223(15) 0.4935(13)
H15 H 0.5490 0.3310 0.4419
C23 C 0.5716(7) 0.2725(14) 0.5634(13)
H16 H 0.5601 0.2574 0.6154
C24 C 0.6259(7) 0.2455(14) 0.5531(12)
C25 C 0.2041(8) 0.6161(11) 0.3960(11)
C26 C 0.1792(8) 0.5433(13) 0.4422(13)
H17 H 0.2007 0.5174 0.4952
C27 C 0.1265(9) 0.5128(17) 0.4108(14)
H18 H 0.1071 0.5388 0.3565
C28 C 0.0955(8) 0.4437(14) 0.4512(13)
C29 C 0.0387(9) 0.4257(18) 0.4095(15)
H19 H 0.0226 0.4533 0.3542
C30 C 0.0055(8) 0.3651(15) 0.4518(13)
O1 O 0.2714(5) 0.8835(8) 0.2196(8)
O2 O 0.2895(6) 0.9518(9) 0.1011(8)
O5 O 0.3405(6) 0.6263(11) 0.1698(9)
O6 O 0.2751(5) 0.6873(9) 0.2281(8)
O8 O 0.2463(5) 0.6627(8) 0.4422(8)
O9 O 0.1841(5) 0.6363(11) 0.3156(9)
O10 O 0.6410(5) 0.2609(10) 0.4802(8)
O11 O 0.6606(4) 0.2101(6) 0.6265(6)
O12 O 0.1533(6) 0.8130(13) 0.3882(11)
H22 H 0.1256 0.7894 0.3538
O13 O 0.3760(6) 0.8209(13) 0.2109(10)
H23 H 0.4031 0.7902 0.2030
Eu2 Eu 0.23710(3) 0.79209(6) 0.32639(5)
C34 C 0.0277(15) 0.321(2) 0.531(2)
H24 H 0.0063 0.2813 0.5579
C35 C 0.1188(15) 0.401(2) 0.531(2)
H25 H 0.1564 0.4131 0.5590
C36 C 0.088(2) 0.341(3) 0.571(3)
H26 H 0.1049 0.3111 0.6246
H27 H 0.1614(11) 0.784(5) 0.4381(17)
H28 H 0.3687(11) 0.808(5) 0.2609(12)
O16 O 0.2566(5) 0.8570(10) 0.4936(8)
O17 O 0.2444(8) 0.9540(11) 0.3830(9)
O18 O 0.1627(5) 0.8071(10) 0.1976(8)
O20 O 0.3590(5) 0.7609(10) 0.0198(8)
O21 O 0.3394(4) 0.7899(6) 0.3735(6)
Eu5 Eu 0.71135(3) 0.27375(6) 0.40489(5)
Eu6 Eu 0.28865(3) 0.72625(6) 0.59511(5)
Eu8 Eu 0.76290(3) 0.20791(6) 0.67361(5)
O22 O 0.1865(4) 0.7771(6) 0.0667(6)
O19 O 0.2463(5) 0.8373(8) 0.9422(8)
C31 C 0.9462(8) 0.3508(17) 0.4002(13)
H20 H 0.9357 0.3736 0.3417
C32 C 0.9067(7) 0.3063(19) 0.4344(12)
H21 H 0.9175 0.2819 0.4924
C33 C 0.8474(6) 0.2945(11) 0.3842(10)
O7 O 0.8373(5) 0.3071(10) 0.3024(8)
O14 O 0.8135(4) 0.2771(6) 0.4333(6)
Eu7 Eu 0.76290(3) 0.29209(6) 0.17361(5)
C31_2 C 0.0538(8) 0.8508(17) 0.0998(13)
H20_2 H 0.0643 0.8736 0.1583
C32_2 C 0.0933(7) 0.8063(19) 0.0656(12)
H21_2 H 0.0825 0.7819 0.0076
C33_2 C 0.1526(6) 0.7945(11) 0.1158(10)
H7_2 H 0.7721 0.0355 0.3768
C12_2 C 0.7506(10) 0.0606(14) 0.5318(14)
O3_2 O 0.7434(5) 0.1430(10) 0.5064(8)
O4_2 O 0.7556(8) 0.0460(11) 0.6170(9)
C1_2 C 0.7230(8) 0.4598(14) 0.3272(13)
C2_2 C 0.7369(9) 0.5523(14) 0.2903(12)
H1_2 H 0.7467 0.5538 0.2352
C3_2 C 0.7356(9) 0.6326(16) 0.3353(14)
H2_2 H 0.7228 0.6297 0.3878
C4_2 C 0.7532(10) 0.7272(13) 0.3073(14)
C5_2 C 0.7529(9) 0.8029(14) 0.3634(13)
H3_2 H 0.7422 0.7927 0.4170
C6_2 C 0.7714(14) 0.7412(17) 0.228(2)
H4_2 H 0.7741 0.6896 0.1913
C7_2 C 0.7852(18) 0.8302(19) 0.206(2)
H5_2 H 0.7945 0.8394 0.1510
C8_2 C 0.7857(14) 0.9091(16) 0.2630(19)
H6_2 H 0.7975 0.9688 0.2481
C9_2 C 0.7681(9) 0.8956(14) 0.3428(13)
C10_2 C 0.7648(9) 0.9762(13) 0.3988(13)
C11_2 C 0.7524(12) 0.9757(15) 0.4789(16)
H8_2 H 0.7445 0.9174 0.5022
C13_2 C 0.6844(7) 0.1273(13) 0.2662(13)
C14_2 C 0.6654(9) 0.0679(15) 0.1873(14)
H9_2 H 0.6860 0.0698 0.1434
C15_2 C 0.6224(8) 0.0135(14) 0.1739(11)
H10_2 H 0.6053 0.0070 0.2218
C25_2 C 0.7959(8) 0.1161(11) 0.1040(11)
C26_2 C 0.8208(8) 0.0433(13) 0.0578(13)
H17_2 H 0.7993 0.0174 0.0048
C27_2 C 0.8735(9) 0.0128(17) 0.0892(14)
H18_2 H 0.8929 0.0388 0.1435
O1_2 O 0.7286(5) 0.3835(8) 0.2804(8)
O2_2 O 0.7105(6) 0.4518(9) 0.3989(8)
O5_2 O 0.6595(6) 0.1263(11) 0.3302(9)
O6_2 O 0.7249(5) 0.1873(9) 0.2719(8)
O8_2 O 0.7537(5) 0.1627(8) 0.0578(8)
O9_2 O 0.8159(5) 0.1363(11) 0.1844(9)
O12_2 O 0.8467(6) 0.3130(13) 0.1118(11)
H22_2 H 0.8744 0.2894 0.1462
O13_2 O 0.6240(6) 0.3209(13) 0.2891(10)
H23_2 H 0.5969 0.2902 0.2970
H27_2 H 0.8386(11) 0.284(5) 0.0619(17)
H28_2 H 0.6313(11) 0.308(5) 0.2391(12)
O16_2 O 0.7434(5) 0.3570(10) 0.0064(8)
O17_2 O 0.7556(8) 0.4540(11) 0.1170(9)
O19_2 O 0.7537(5) 0.3373(8) 0.5578(8)
O21_2 O 0.6606(4) 0.2899(6) 0.1265(6)
Eu6_2 Eu 0.71135(3) 0.22625(6) 0.90489(5)
C16_2 C 0.5963(8) 0.9597(14) 0.0927(14)
C17_2 C 0.6223(10) 0.9565(16) 0.0202(16)
H11_2 H 0.6564 0.9875 0.0231
C19_2 C 0.5453(8) 0.9142(14) 0.0858(13)
H13_2 H 0.5271 0.9174 0.1327
C21_2 C 0.5210(8) 0.8633(15) 0.0081(12)
C22_2 C 0.4641(7) 0.8223(15) 0.0065(13)
H15_2 H 0.4510 0.8310 0.0581
C28_2 C 0.9045(8) 0.9437(14) 0.0488(13)
C29_2 C 0.9613(9) 0.9257(18) 0.0905(15)
H19_2 H 0.9774 0.9533 0.1458
C30_2 C 0.9945(8) 0.8651(15) 0.0482(13)
C18_2 C 0.5956(11) 0.906(2) 0.9441(18)
H12_2 H 0.6130 0.9036 0.8963
C20_2 C 0.5447(11) 0.859(2) 0.9354(16)
H14_2 H 0.5275 0.8266 0.8832
C23_2 C 0.4284(7) 0.7725(14) 0.9366(13)
H16_2 H 0.4399 0.7574 0.8846
C24_2 C 0.3741(7) 0.7455(14) 0.9469(12)
O11_2 O 0.3394(4) 0.7101(6) 0.8735(6)
C34_2 C 0.9723(15) 0.821(2) 0.969(2)
H24_2 H 0.9937 0.7813 0.9421
C35_2 C 0.8812(15) 0.901(2) 0.969(2)
H25_2 H 0.8436 0.9131 0.9410
C36_2 C 0.912(2) 0.841(3) 0.929(3)
H26_2 H 0.8951 0.8111 0.8754
C31_3 C 0.0538(8) 0.6492(17) 0.5998(13)
H20_3 H 0.0643 0.6264 0.6583
C32_3 C 0.0933(7) 0.6937(19) 0.5656(12)
H21_3 H 0.0825 0.7181 0.5076
C33_3 C 0.1526(6) 0.7055(11) 0.6158(10)
O7_2 O 0.1627(5) 0.6929(10) 0.6976(8)
O14_2 O 0.1865(4) 0.7229(6) 0.5667(6)
C1_3 C 0.7230(8) 0.0402(14) 0.8272(13)
C13_3 C 0.6844(7) 0.3727(13) 0.7662(13)
C14_3 C 0.6654(9) 0.4321(15) 0.6873(14)
H9_3 H 0.6860 0.4302 0.6434
C15_3 C 0.6224(8) 0.4865(14) 0.6739(11)
H10_3 H 0.6053 0.4930 0.7218
C16_3 C 0.5963(8) 0.5403(14) 0.5927(14)
C17_3 C 0.6223(10) 0.5435(16) 0.5202(16)
H11_3 H 0.6564 0.5125 0.5231
C18_3 C 0.5956(11) 0.594(2) 0.4441(18)
H12_3 H 0.6130 0.5964 0.3963
C19_3 C 0.5453(8) 0.5858(14) 0.5858(13)
H13_3 H 0.5271 0.5826 0.6327
C20_3 C 0.5447(11) 0.641(2) 0.4354(16)
H14_3 H 0.5275 0.6734 0.3832
C21_3 C 0.5210(8) 0.6367(15) 0.5081(12)
C22_3 C 0.4641(7) 0.6777(15) 0.5065(13)
H15_3 H 0.4510 0.6690 0.5581
C23_3 C 0.4284(7) 0.7275(14) 0.4366(13)
H16_3 H 0.4399 0.7426 0.3846
C24_3 C 0.3741(7) 0.7545(14) 0.4469(12)
C25_3 C 0.7959(8) 0.3839(11) 0.6040(11)
C26_3 C 0.8208(8) 0.4567(13) 0.5578(13)
H17_3 H 0.7993 0.4826 0.5048
C27_3 C 0.8735(9) 0.4872(17) 0.5892(14)
H18_3 H 0.8929 0.4612 0.6435
C28_3 C 0.9045(8) 0.5563(14) 0.5488(13)
C29_3 C 0.9613(9) 0.5743(18) 0.5905(15)
H19_3 H 0.9774 0.5467 0.6458
C30_3 C 0.9945(8) 0.6349(15) 0.5482(13)
O1_3 O 0.7286(5) 0.1165(8) 0.7804(8)
O2_3 O 0.7105(6) 0.0482(9) 0.8989(8)
O5_3 O 0.6595(6) 0.3737(11) 0.8302(9)
O6_3 O 0.7249(5) 0.3127(9) 0.7719(8)
O9_3 O 0.8159(5) 0.3637(11) 0.6844(9)
O10_2 O 0.3590(5) 0.7391(10) 0.5198(8)
O12_3 O 0.8467(6) 0.1870(13) 0.6118(11)
H22_3 H 0.8744 0.2106 0.6462
O13_3 O 0.6240(6) 0.1791(13) 0.7891(10)
H23_3 H 0.5969 0.2098 0.7970
C34_3 C 0.9723(15) 0.679(2) 0.469(2)
H24_3 H 0.9937 0.7187 0.4421
C35_3 C 0.8812(15) 0.599(2) 0.469(2)
H25_3 H 0.8436 0.5869 0.4410
C36_3 C 0.912(2) 0.659(3) 0.429(3)
H26_3 H 0.8951 0.6889 0.3754
H27_3 H 0.8386(11) 0.216(5) 0.5619(17)
H28_3 H 0.6313(11) 0.192(5) 0.7391(12)
O18_2 O 0.8373(5) 0.1929(10) 0.8024(8)
O20_2 O 0.6410(5) 0.2391(10) 0.9802(8)
O22_2 O 0.8135(4) 0.2229(6) 0.9333(6)
H8_3 H 0.7445 0.5826 0.0022
C12_3 C 0.7506(10) 0.4394(14) 0.0318(14)
C2_3 C 0.7369(9) 0.9477(14) 0.7903(12)
H1_3 H 0.7467 0.9462 0.7352
C3_3 C 0.7356(9) 0.8674(16) 0.8353(14)
H2_3 H 0.7228 0.8703 0.8878
C4_3 C 0.7532(10) 0.7728(13) 0.8073(14)
C5_3 C 0.7529(9) 0.6971(14) 0.8634(13)
H3_3 H 0.7422 0.7073 0.9170
C6_3 C 0.7714(14) 0.7588(17) 0.728(2)
H4_3 H 0.7741 0.8104 0.6913
C7_3 C 0.7852(18) 0.6698(19) 0.706(2)
H5_3 H 0.7945 0.6606 0.6510
C8_3 C 0.7857(14) 0.5909(16) 0.7630(19)
H6_3 H 0.7975 0.5312 0.7481
C9_3 C 0.7681(9) 0.6044(14) 0.8428(13)
C10_3 C 0.7648(9) 0.5238(13) 0.8988(13)
H7_3 H 0.7721 0.4645 0.8768
C11_3 C 0.7524(12) 0.5243(15) 0.9789(16)
C18_4 C 0.4044(11) 0.094(2) 0.0559(18)
H12_4 H 0.3870 0.0964 0.1037
C20_4 C 0.4553(11) 0.141(2) 0.0646(16)
H14_4 H 0.4725 0.1734 0.1168
C23_4 C 0.5716(7) 0.2275(14) 0.0634(13)
H16_4 H 0.5601 0.2426 0.1154
C24_4 C 0.6259(7) 0.2545(14) 0.0531(12)
C34_4 C 0.0277(15) 0.179(2) 0.031(2)
H24_4 H 0.0063 0.2187 0.0579
C35_4 C 0.1188(15) 0.099(2) 0.031(2)
H25_4 H 0.1564 0.0869 0.0590
C36_4 C 0.088(2) 0.159(3) 0.071(3)
H26_4 H 0.1049 0.1889 0.1246
C16_4 C 0.4037(8) 0.0403(14) 0.9073(14)
C17_4 C 0.3777(10) 0.0435(16) 0.9798(16)
H11_4 H 0.3436 0.0125 0.9769
C19_4 C 0.4547(8) 0.0858(14) 0.9142(13)
H13_4 H 0.4729 0.0826 0.8673
C21_4 C 0.4790(8) 0.1367(15) 0.9919(12)
C22_4 C 0.5359(7) 0.1777(15) 0.9935(13)
H15_4 H 0.5490 0.1690 0.9419
C28_4 C 0.0955(8) 0.0563(14) 0.9512(13)
C29_4 C 0.0387(9) 0.0743(18) 0.9095(15)
H19_4 H 0.0226 0.0467 0.8542
C30_4 C 0.0055(8) 0.1349(15) 0.9518(13)
C1_4 C 0.2770(8) 0.5402(14) 0.6728(13)
C2_4 C 0.2631(9) 0.4477(14) 0.7097(12)
H1_4 H 0.2533 0.4462 0.7648
C3_4 C 0.2644(9) 0.3674(16) 0.6647(14)
H2_4 H 0.2772 0.3703 0.6122
C4_4 C 0.2468(10) 0.2728(13) 0.6927(14)
C5_4 C 0.2471(9) 0.1971(14) 0.6366(13)
H3_4 H 0.2578 0.2073 0.5830
C6_4 C 0.2286(14) 0.2588(17) 0.772(2)
H4_4 H 0.2259 0.3104 0.8087
C7_4 C 0.2148(18) 0.1698(19) 0.794(2)
H5_4 H 0.2055 0.1606 0.8490
C8_4 C 0.2143(14) 0.0909(16) 0.7370(19)
H6_4 H 0.2025 0.0312 0.7519
C9_4 C 0.2319(9) 0.1044(14) 0.6572(13)
C10_4 C 0.2352(9) 0.0238(13) 0.6012(13)
C11_4 C 0.2476(12) 0.0243(15) 0.5211(16)
H8_4 H 0.2555 0.0826 0.4978
C13_4 C 0.3156(7) 0.8727(13) 0.7338(13)
C14_4 C 0.3346(9) 0.9321(15) 0.8127(14)
H9_4 H 0.3140 0.9302 0.8566
C15_4 C 0.3776(8) 0.9865(14) 0.8261(11)
H10_4 H 0.3947 0.9930 0.7782
C25_4 C 0.2041(8) 0.8839(11) 0.8960(11)
C26_4 C 0.1792(8) 0.9567(13) 0.9422(13)
H17_4 H 0.2007 0.9826 0.9952
C27_4 C 0.1265(9) 0.9872(17) 0.9108(14)
H18_4 H 0.1071 0.9612 0.8565
O1_4 O 0.2714(5) 0.6165(8) 0.7196(8)
O2_4 O 0.2895(6) 0.5482(9) 0.6011(8)
O5_4 O 0.3405(6) 0.8737(11) 0.6698(9)
O6_4 O 0.2751(5) 0.8127(9) 0.7281(8)
O9_4 O 0.1841(5) 0.8637(11) 0.8156(9)
O12_4 O 0.1533(6) 0.6870(13) 0.8882(11)
H22_4 H 0.1256 0.7106 0.8538
O13_4 O 0.3760(6) 0.6791(13) 0.7109(10)
H23_4 H 0.4031 0.7098 0.7030
H27_4 H 0.1614(11) 0.716(5) 0.9381(17)
H28_4 H 0.3687(11) 0.692(5) 0.7609(12)
H7_4 H 0.2279 0.9645 0.6232
C12_4 C 0.2494(10) 0.9394(14) 0.4682(14)
C31_4 C 0.9462(8) 0.1492(17) 0.9002(13)
H20_4 H 0.9357 0.1264 0.8417
C32_4 C 0.9067(7) 0.1937(19) 0.9344(12)
H21_4 H 0.9175 0.2181 0.9924
C33_4 C 0.8474(6) 0.2055(11) 0.8842(10)
loop_
_geom_bond_atom_site_label_1
_geom_bond_atom_site_label_2
_geom_bond_site_symmetry_1
_geom_bond_site_symmetry_2
C2 H1 1_555 1_555
C3 C2 1_555 1_555
H2 C3 1_555 1_555
C4 C3 1_555 1_555
C5 C4 1_555 1_555
H3 C5 1_555 1_555
C6 C4 1_555 1_555
H4 C6 1_555 1_555
C7 C6 1_555 1_555
H5 C7 1_555 1_555
C8 C7 1_555 1_555
H6 C8 1_555 1_555
C9 C5 1_555 1_555
C10 C9 1_555 1_555
H7 C10 1_555 1_555
C11 C10 1_555 1_555
C8 C9 1_555 1_555
O3 C12 1_555 1_555
O4 C12 1_555 1_555
Eu9 O3 1_555 1_555
O4 Eu9 1_555 1_555
C13 C14 1_555 1_555
C14 H9 1_555 1_555
C15 C14 1_555 1_555
H10 C15 1_555 1_555
C16 C15 1_555 1_555
C17 C16 1_555 1_555
H11 C17 1_555 1_555
C18 C17 1_555 1_555
H12 C18 1_555 1_555
C19 C16 1_555 1_555
H13 C19 1_555 1_555
C20 C18 1_555 1_555
H14 C20 1_555 1_555
C21 C19 1_555 1_555
C22 C21 1_555 1_555
H15 C22 1_555 1_555
C23 C22 1_555 1_555
H16 C23 1_555 1_555
C24 C23 1_555 1_555
C25 C26 1_555 1_555
C26 H17 1_555 1_555
C27 C26 1_555 1_555
H18 C27 1_555 1_555
C28 C27 1_555 1_555
C29 C28 1_555 1_555
H19 C29 1_555 1_555
C30 C29 1_555 1_555
O1 C1 1_555 1_555
O2 C1 1_555 1_555
O5 C13 1_555 1_555
O6 C13 1_555 1_555
O8 C25 1_555 1_555
O9 C25 1_555 1_555
O10 C24 1_555 1_555
O11 C24 1_555 1_555
O12 H22 1_555 1_555
O13 H23 1_555 1_555
Eu3 O1 1_555 1_555
Eu2 O1 1_555 1_555
C34 C30 1_555 1_555
H24 C34 1_555 1_555
C35 C28 1_555 1_555
H25 C35 1_555 1_555
C36 C34 1_555 1_555
H26 C36 1_555 1_555
H27 O12 1_555 1_555
H28 O13 1_555 1_555
O16 Eu2 1_555 1_555
O17 Eu2 1_555 1_555
O18 Eu2 1_555 1_555
O20 Eu3 1_555 1_555
O21 Eu2 1_555 1_555
Eu5 O10 1_555 1_555
Eu6 O8 1_555 1_555
Eu8 O11 1_555 1_555
O22 Eu3 1_555 1_555
C20 C21 1_555 1_555
O2 Eu3 1_555 1_555
O5 Eu3 1_555 1_555
O6 Eu3 1_555 1_555
O6 Eu2 1_555 1_555
O8 Eu2 1_555 1_555
O9 Eu2 1_555 1_555
O12 Eu2 1_555 1_555
O13 Eu3 1_555 1_555
C35 C36 1_555 1_555
O16 Eu6 1_555 1_555
H20 C31 1_555 1_555
C32 C31 1_555 1_555
H21 C32 1_555 1_555
C33 C32 1_555 1_555
O7 C33 1_555 1_555
O14 C33 1_555 1_555
Eu5 O14 1_555 1_555
Eu7 O7 1_555 1_555
H20_2 C31_2 1_555 1_555
C32_2 C31_2 1_555 1_555
H21_2 C32_2 1_555 1_555
C33_2 C32_2 1_555 1_555
O18 C33_2 1_555 1_555
O22 C33_2 1_555 1_555
O3_2 C12_2 1_555 1_555
O4_2 C12_2 1_555 1_555
Eu5 O3_2 1_555 1_555
Eu8 O3_2 1_555 1_555
O4_2 Eu8 1_555 1_555
C1_2 C2_2 1_555 1_555
C2_2 H1_2 1_555 1_555
C3_2 C2_2 1_555 1_555
H2_2 C3_2 1_555 1_555
C4_2 C3_2 1_555 1_555
C5_2 C4_2 1_555 1_555
H3_2 C5_2 1_555 1_555
C6_2 C4_2 1_555 1_555
H4_2 C6_2 1_555 1_555
C7_2 C6_2 1_555 1_555
H5_2 C7_2 1_555 1_555
C8_2 C7_2 1_555 1_555
H6_2 C8_2 1_555 1_555
C9_2 C5_2 1_555 1_555
C10_2 C9_2 1_555 1_555
C11_2 C10_2 1_555 1_555
H8_2 C11_2 1_555 1_555
C13_2 C14_2 1_555 1_555
C14_2 H9_2 1_555 1_555
C15_2 C14_2 1_555 1_555
H10_2 C15_2 1_555 1_555
C25_2 C26_2 1_555 1_555
C26_2 H17_2 1_555 1_555
C27_2 C26_2 1_555 1_555
H18_2 C27_2 1_555 1_555
O1_2 C1_2 1_555 1_555
O2_2 C1_2 1_555 1_555
O5_2 C13_2 1_555 1_555
O6_2 C13_2 1_555 1_555
O8_2 C25_2 1_555 1_555
O9_2 C25_2 1_555 1_555
O12_2 H22_2 1_555 1_555
O13_2 H23_2 1_555 1_555
Eu5 O1_2 1_555 1_555
Eu7 O1_2 1_555 1_555
H27_2 O12_2 1_555 1_555
H28_2 O13_2 1_555 1_555
O16_2 Eu7 1_555 1_555
O17_2 Eu7 1_555 1_555
O19_2 Eu5 1_555 1_555
O21_2 Eu7 1_555 1_555
C8_2 C9_2 1_555 1_555
O2_2 Eu5 1_555 1_555
O5_2 Eu5 1_555 1_555
O6_2 Eu5 1_555 1_555
O6_2 Eu7 1_555 1_555
O8_2 Eu7 1_555 1_555
O9_2 Eu7 1_555 1_555
O12_2 Eu7 1_555 1_555
O13_2 Eu5 1_555 1_555
C17_2 C16_2 1_555 1_555
H11_2 C17_2 1_555 1_555
C19_2 C16_2 1_555 1_555
H13_2 C19_2 1_555 1_555
C21_2 C19_2 1_555 1_555
C22_2 C21_2 1_555 1_555
H15_2 C22_2 1_555 1_555
C29_2 C28_2 1_555 1_555
H19_2 C29_2 1_555 1_555
C30_2 C29_2 1_555 1_555
H12_2 C18_2 1_555 1_555
C20_2 C18_2 1_555 1_555
H14_2 C20_2 1_555 1_555
H16_2 C23_2 1_555 1_555
C24_2 C23_2 1_555 1_555
O11_2 C24_2 1_555 1_555
H24_2 C34_2 1_555 1_555
H25_2 C35_2 1_555 1_555
C36_2 C34_2 1_555 1_555
H26_2 C36_2 1_555 1_555
Eu9 O11_2 1_555 1_555
C35_2 C36_2 1_555 1_555
H20_3 C31_3 1_555 1_555
C32_3 C31_3 1_555 1_555
H21_3 C32_3 1_555 1_555
C33_3 C32_3 1_555 1_555
O7_2 C33_3 1_555 1_555
O14_2 C33_3 1_555 1_555
Eu6 O14_2 1_555 1_555
Eu9 O7_2 1_555 1_555
C13_3 C14_3 1_555 1_555
C14_3 H9_3 1_555 1_555
C15_3 C14_3 1_555 1_555
H10_3 C15_3 1_555 1_555
C16_3 C15_3 1_555 1_555
C17_3 C16_3 1_555 1_555
H11_3 C17_3 1_555 1_555
C18_3 C17_3 1_555 1_555
H12_3 C18_3 1_555 1_555
C19_3 C16_3 1_555 1_555
H13_3 C19_3 1_555 1_555
C20_3 C18_3 1_555 1_555
H14_3 C20_3 1_555 1_555
C21_3 C19_3 1_555 1_555
C22_3 C21_3 1_555 1_555
H15_3 C22_3 1_555 1_555
C23_3 C22_3 1_555 1_555
H16_3 C23_3 1_555 1_555
C24_3 C23_3 1_555 1_555
C25_3 C26_3 1_555 1_555
C26_3 H17_3 1_555 1_555
C27_3 C26_3 1_555 1_555
H18_3 C27_3 1_555 1_555
C28_3 C27_3 1_555 1_555
C29_3 C28_3 1_555 1_555
H19_3 C29_3 1_555 1_555
C30_3 C29_3 1_555 1_555
O1_3 C1_3 1_555 1_555
O2_3 C1_3 1_555 1_555
O5_3 C13_3 1_555 1_555
O6_3 C13_3 1_555 1_555
O19_2 C25_3 1_555 1_555
O9_3 C25_3 1_555 1_555
O10_2 C24_3 1_555 1_555
O21 C24_3 1_555 1_555
O12_3 H22_3 1_555 1_555
O13_3 H23_3 1_555 1_555
Eu6_2 O1_3 1_555 1_555
Eu8 O1_3 1_555 1_555
C34_3 C30_3 1_555 1_555
H24_3 C34_3 1_555 1_555
C35_3 C28_3 1_555 1_555
H25_3 C35_3 1_555 1_555
C36_3 C34_3 1_555 1_555
H26_3 C36_3 1_555 1_555
H27_3 O12_3 1_555 1_555
H28_3 O13_3 1_555 1_555
O18_2 Eu8 1_555 1_555
O20_2 Eu6_2 1_555 1_555
Eu6 O10_2 1_555 1_555
O22_2 Eu6_2 1_555 1_555
C20_3 C21_3 1_555 1_555
O2_3 Eu6_2 1_555 1_555
O5_3 Eu6_2 1_555 1_555
O6_3 Eu6_2 1_555 1_555
O6_3 Eu8 1_555 1_555
O19_2 Eu8 1_555 1_555
O9_3 Eu8 1_555 1_555
O12_3 Eu8 1_555 1_555
O13_3 Eu6_2 1_555 1_555
C35_3 C36_3 1_555 1_555
O16_2 C12_3 1_555 1_555
O17_2 C12_3 1_555 1_555
C2_3 H1_3 1_555 1_555
C3_3 C2_3 1_555 1_555
H2_3 C3_3 1_555 1_555
C4_3 C3_3 1_555 1_555
C5_3 C4_3 1_555 1_555
H3_3 C5_3 1_555 1_555
C6_3 C4_3 1_555 1_555
H4_3 C6_3 1_555 1_555
C7_3 C6_3 1_555 1_555
H5_3 C7_3 1_555 1_555
C8_3 C7_3 1_555 1_555
H6_3 C8_3 1_555 1_555
C9_3 C5_3 1_555 1_555
C10_3 C9_3 1_555 1_555
H7_3 C10_3 1_555 1_555
C11_3 C10_3 1_555 1_555
C8_3 C9_3 1_555 1_555
H12_4 C18_4 1_555 1_555
C20_4 C18_4 1_555 1_555
H14_4 C20_4 1_555 1_555
H16_4 C23_4 1_555 1_555
C24_4 C23_4 1_555 1_555
O21_2 C24_4 1_555 1_555
H24_4 C34_4 1_555 1_555
H25_4 C35_4 1_555 1_555
C36_4 C34_4 1_555 1_555
H26_4 C36_4 1_555 1_555
C35_4 C36_4 1_555 1_555
C17_4 C16_4 1_555 1_555
H11_4 C17_4 1_555 1_555
C19_4 C16_4 1_555 1_555
H13_4 C19_4 1_555 1_555
C21_4 C19_4 1_555 1_555
C22_4 C21_4 1_555 1_555
H15_4 C22_4 1_555 1_555
C29_4 C28_4 1_555 1_555
H19_4 C29_4 1_555 1_555
C30_4 C29_4 1_555 1_555
C1_4 C2_4 1_555 1_555
C2_4 H1_4 1_555 1_555
C3_4 C2_4 1_555 1_555
H2_4 C3_4 1_555 1_555
C4_4 C3_4 1_555 1_555
C5_4 C4_4 1_555 1_555
H3_4 C5_4 1_555 1_555
C6_4 C4_4 1_555 1_555
H4_4 C6_4 1_555 1_555
C7_4 C6_4 1_555 1_555
H5_4 C7_4 1_555 1_555
C8_4 C7_4 1_555 1_555
H6_4 C8_4 1_555 1_555
C9_4 C5_4 1_555 1_555
C10_4 C9_4 1_555 1_555
C11_4 C10_4 1_555 1_555
H8_4 C11_4 1_555 1_555
C13_4 C14_4 1_555 1_555
C14_4 H9_4 1_555 1_555
C15_4 C14_4 1_555 1_555
H10_4 C15_4 1_555 1_555
C25_4 C26_4 1_555 1_555
C26_4 H17_4 1_555 1_555
C27_4 C26_4 1_555 1_555
H18_4 C27_4 1_555 1_555
O1_4 C1_4 1_555 1_555
O2_4 C1_4 1_555 1_555
O5_4 C13_4 1_555 1_555
O6_4 C13_4 1_555 1_555
O19 C25_4 1_555 1_555
O9_4 C25_4 1_555 1_555
O12_4 H22_4 1_555 1_555
O13_4 H23_4 1_555 1_555
Eu6 O1_4 1_555 1_555
Eu9 O1_4 1_555 1_555
H27_4 O12_4 1_555 1_555
H28_4 O13_4 1_555 1_555
C8_4 C9_4 1_555 1_555
O2_4 Eu6 1_555 1_555
O5_4 Eu6 1_555 1_555
O6_4 Eu6 1_555 1_555
O6_4 Eu9 1_555 1_555
O19 Eu9 1_555 1_555
O9_4 Eu9 1_555 1_555
O12_4 Eu9 1_555 1_555
O13_4 Eu6 1_555 1_555
O16 C12_4 1_555 1_555
O17 C12_4 1_555 1_555
H20_4 C31_4 1_555 1_555
C32_4 C31_4 1_555 1_555
H21_4 C32_4 1_555 1_555
C33_4 C32_4 1_555 1_555
O18_2 C33_4 1_555 1_555
O22_2 C33_4 1_555 1_555

#END
