
###############################################################################
#
# This file contains modified crystal structure data generated from the
# MOF subset of the Cambridge Structural Database (CSD) v543 
# hosted by the Cambridge Crystallographic Data Centre (CCDC).
#
# This work is licensed under the Creative Commons
# Attribution-NonCommercial-ShareAlike 4.0 International License.
# To view a copy of this license, visit
# http://creativecommons.org/licenses/by-nc-sa/4.0/
# or send a letter to
# Creative Commons, PO Box 1866, Mountain View, CA 94042, USA.
#
# CIF created using the CSD Python API on 29 September 2022
# The structure has been converted into the P1 space group
# The structure has a 3D framework
# The original CSD entry HUSGEJ is in the triclinic crystal system
# The framework has been calculated to contain at least 10.0% void space
# The void calculation uses a probe of radius 1.32A, grid spacing 0.4
#
###############################################################################

data_HUSGEJ
_chemical_formula_moiety         '(C60 H44 Cl2 N6 Nd4 O34)n'
_symmetry_cell_setting           triclinic
_symmetry_space_group_name_H-M   'P 1'
_symmetry_Int_Tables_number      1
_space_group_name_Hall           'P 1'
loop_
_symmetry_equiv_pos_site_id
_symmetry_equiv_pos_as_xyz
1 x,y,z
_cell_length_a                   9.4381(3)
_cell_length_b                   12.2437(5)
_cell_length_c                   18.6387(8)
_cell_angle_alpha                86.308(4)
_cell_angle_beta                 81.316(3)
_cell_angle_gamma                68.892(4)
_cell_volume                     1986.17
loop_
_atom_site_label
_atom_site_type_symbol
_atom_site_fract_x
_atom_site_fract_y
_atom_site_fract_z
O1 O 0.2714(5) 0.4058(4) 0.6804(2)
O2 O 0.4099(5) 0.4853(5) 0.6043(3)
C1 C 0.3126(7) 0.4370(6) 0.6157(3)
O5 O 0.1201(7) 0.3277(5) 0.2020(3)
O6 O 0.1088(11) 0.1786(8) 0.2657(6)
H1 H 0.0509 0.7018 0.2936
O11 O 0.2630(5) 0.5686(5) 0.3484(3)
O15 O 0.1086(6) 0.4857(5) 0.3163(2)
N1 N 0.0517(9) 0.2831(7) 0.2515(4)
N3 N 0.0839(6) 0.1238(5) 0.4750(3)
C7 C 0.2305(8) 0.0551(7) 0.4783(4)
H6 H 0.2851 0.0730 0.5105
C18 C 0.0713(8) 0.0060(6) 0.3826(4)
C20 C 0.0037(8) 0.1017(6) 0.4269(4)
C21 C 0.1857(7) 0.5034(6) 0.3604(3)
C23 C 0.2442(7) 0.4097(6) 0.5553(3)
C24 C 0.0128(8) 0.2247(6) 0.5248(4)
H16 H 0.0137 0.1965 0.5747
C25 C 0.1671(7) 0.3312(6) 0.5667(3)
H18 H 0.1625 0.2934 0.6115
C27 C 0.1837(7) 0.4411(6) 0.4329(3)
C28 C 0.0974(7) 0.3088(6) 0.5123(3)
C29 C 0.2564(7) 0.4618(6) 0.4871(3)
H21 H 0.3134 0.5105 0.4778
C30 C 0.1041(7) 0.3645(6) 0.4456(3)
H22 H 0.0553 0.3507 0.4093
Nd5 Nd 0.05132(4) 0.45671(3) 0.776120(18)
Nd8 Nd 0.48093(4) 0.59159(3) 0.274842(18)
Nd10 Nd 0.51907(4) 0.40841(3) 0.725158(18)
O25 O 0.1703(5) 0.5442(5) 0.1483(3)
O12 O 0.4135(6) 0.7479(5) 0.3647(3)
O17 O 0.2337(6) 0.8039(5) 0.2931(3)
C3 C 0.2940(8) 0.8207(7) 0.3436(4)
C9 C 0.3004(9) 0.9593(7) 0.4351(5)
H8 H 0.4017 0.9122 0.4380
C10 C 0.2200(8) 0.9329(6) 0.3871(4)
H12 H 0.0166 0.9905 0.3495
Nd1 Nd 0.94868(4) 0.54329(3) 0.223880(18)
O3 O 0.9095(6) 0.4800(5) 0.1041(3)
O4 O 0.9319(7) 0.3463(5) 0.2859(3)
O7 O 0.9907(6) 0.7214(5) 0.2616(3)
H2 H 0.9052 0.7713 0.2792
O10 O 0.5310(8) 0.3759(5) 0.2810(3)
H3 H 0.4625 0.3627 0.3117
H4 H 0.6186 0.3401 0.2941
O14 O 0.7160(5) 0.4900(4) 0.1888(2)
N2 N 0.5003(6) 0.1346(5) 0.1004(3)
C2 C 0.7842(8) 0.4648(6) 0.1249(4)
C6 C 0.5523(7) 0.3154(6) 0.0480(4)
C8 C 0.6424(10) 0.0675(8) 0.0880(6)
H7 H 0.7129 0.0979 0.0626
C14 C 0.4040(12) 0.0894(9) 0.1339(7)
H10 H 0.3002 0.1350 0.1408
C16 C 0.6154(7) 0.3598(6) 0.0973(4)
H11 H 0.5886 0.3517 0.1469
C17 C 0.7178(7) 0.4158(6) 0.0724(3)
H14 H 0.9033 0.1510 0.4239
H17 H 0.9069 0.2650 0.5173
C26 C 0.4352(8) 0.2594(6) 0.0752(4)
H19 H 0.3658 0.3054 0.1151
H20 H 0.3754 0.2627 0.0366
O18 O 0.7286(5) 0.5942(4) 0.3196(2)
O19 O 0.5901(5) 0.5147(5) 0.3957(3)
O20 O 0.5416(6) 0.7463(5) 0.2036(3)
O21 O 0.7864(6) 0.7219(5) 0.1683(3)
O24 O 0.3542(5) 0.6026(5) 0.1736(2)
O13 O 0.6458(5) 0.3974(5) 0.8264(2)
O16 O 0.8297(5) 0.4558(5) 0.8517(3)
C11 C 0.6898(7) 0.3908(6) 0.9492(3)
C12 C 0.5888(7) 0.3327(6) 0.9738(4)
H9 H 0.5454 0.3053 0.9406
C15 C 0.7245(7) 0.4162(6) 0.8693(4)
C22 C 0.7555(7) 0.4311(6) 0.9983(3)
H15 H 0.8247 0.4683 0.9817
C4 C 0.5977(9) 0.9055(7) 0.1485(5)
C5 C 0.4502(12) 0.9760(9) 0.1598(7)
H5 H 0.3779 0.9478 0.1856
C13 C 0.6463(8) 0.7805(7) 0.1760(4)
C19 C 0.6938(11) 0.9519(8) 0.1114(6)
H13 H 0.7971 0.9063 0.1009
O8 O 0.4584(6) 0.2537(5) 0.7964(3)
O9 O 0.2136(6) 0.2781(5) 0.8317(3)
C4_2 C 0.4023(9) 0.0945(7) 0.8515(5)
C5_2 C 0.5498(12) 0.0240(9) 0.8402(7)
H5_2 H 0.6221 0.0522 0.8144
C13_2 C 0.3537(8) 0.2195(7) 0.8240(4)
C19_2 C 0.3062(11) 0.0481(8) 0.8886(6)
H13_2 H 0.2029 0.0937 0.8991
C11_2 C 0.3102(7) 0.6092(6) 0.0508(3)
C12_2 C 0.4112(7) 0.6673(6) 0.0262(4)
H9_2 H 0.4546 0.6947 0.0594
C15_2 C 0.2755(7) 0.5838(6) 0.1307(4)
C22_2 C 0.2445(7) 0.5689(6) 0.0017(3)
H15_2 H 0.1753 0.5317 0.0183
O3_2 O 0.0905(6) 0.5200(5) 0.8959(3)
O4_2 O 0.0681(7) 0.6537(5) 0.7141(3)
O7_2 O 0.0093(6) 0.2786(5) 0.7384(3)
H2_2 H 0.0948 0.2287 0.7208
O10_2 O 0.4690(8) 0.6241(5) 0.7190(3)
H3_2 H 0.5375 0.6373 0.6883
H4_2 H 0.3814 0.6599 0.7059
O14_2 O 0.2840(5) 0.5100(4) 0.8112(2)
N2_2 N 0.4997(6) 0.8654(5) 0.8996(3)
C2_2 C 0.2158(8) 0.5352(6) 0.8751(4)
C6_2 C 0.4477(7) 0.6846(6) 0.9520(4)
C8_2 C 0.3576(10) 0.9325(8) 0.9120(6)
H7_2 H 0.2871 0.9021 0.9374
C14_2 C 0.5960(12) 0.9106(9) 0.8661(7)
H10_2 H 0.6998 0.8650 0.8592
C16_2 C 0.3846(7) 0.6402(6) 0.9027(4)
H11_2 H 0.4114 0.6483 0.8531
C17_2 C 0.2822(7) 0.5842(6) 0.9276(3)
H14_2 H 0.0967 0.8490 0.5761
H17_2 H 0.0931 0.7350 0.4827
C26_2 C 0.5648(8) 0.7406(6) 0.9248(4)
H19_2 H 0.6342 0.6946 0.8849
H20_2 H 0.6246 0.7373 0.9634
O22 O 0.7370(5) 0.4314(5) 0.6516(3)
O23 O 0.5865(6) 0.2521(5) 0.6353(3)
O26 O 0.7663(6) 0.1961(5) 0.7069(3)
C3_2 C 0.7060(8) 0.1793(7) 0.6564(4)
C9_2 C 0.6996(9) 0.0407(7) 0.5649(5)
H8_2 H 0.5983 0.0878 0.5620
C10_2 C 0.7800(8) 0.0671(6) 0.6129(4)
H12_2 H 0.9834 0.0095 0.6505
C1_2 C 0.6874(7) 0.5630(6) 0.3843(3)
O5_2 O 0.8799(7) 0.6723(5) 0.7980(3)
O6_2 O 0.8912(11) 0.8214(8) 0.7343(6)
H1_2 H 0.9491 0.2982 0.7064
O15_2 O 0.8914(6) 0.5143(5) 0.6837(2)
N1_2 N 0.9483(9) 0.7169(7) 0.7485(4)
N3_2 N 0.9161(6) 0.8762(5) 0.5250(3)
C7_2 C 0.7695(8) 0.9449(7) 0.5217(4)
H6_2 H 0.7149 0.9270 0.4895
C18_2 C 0.9287(8) 0.9940(6) 0.6174(4)
C20_2 C 0.9963(8) 0.8983(6) 0.5731(4)
C21_2 C 0.8143(7) 0.4966(6) 0.6396(3)
C23_2 C 0.7558(7) 0.5903(6) 0.4447(3)
C24_2 C 0.9872(8) 0.7753(6) 0.4752(4)
H16_2 H 0.9863 0.8035 0.4253
C25_2 C 0.8329(7) 0.6688(6) 0.4333(3)
H18_2 H 0.8375 0.7066 0.3885
C27_2 C 0.8163(7) 0.5589(6) 0.5671(3)
C28_2 C 0.9026(7) 0.6912(6) 0.4877(3)
C29_2 C 0.7436(7) 0.5382(6) 0.5129(3)
H21_2 H 0.6866 0.4895 0.5222
C30_2 C 0.8959(7) 0.6355(6) 0.5544(3)
H22_2 H 0.9447 0.6493 0.5907
Cl1 Cl 0.7398(4) 0.9554(3) 0.32673(19)
Cl1_2 Cl 0.2602(4) 0.0446(3) 0.67327(19)
loop_
_geom_bond_atom_site_label_1
_geom_bond_atom_site_label_2
_geom_bond_site_symmetry_1
_geom_bond_site_symmetry_2
O1 C1 1_555 1_555
O2 C1 1_555 1_555
C1 C23 1_555 1_555
O6 N1 1_555 1_555
O11 C21 1_555 1_555
N3 C7 1_555 1_555
C7 H6 1_555 1_555
C20 N3 1_555 1_555
C21 O15 1_555 1_555
C23 C25 1_555 1_555
C24 N3 1_555 1_555
H16 C24 1_555 1_555
C25 H18 1_555 1_555
C27 C21 1_555 1_555
C28 C24 1_555 1_555
C29 C23 1_555 1_555
H21 C29 1_555 1_555
C30 C27 1_555 1_555
H22 C30 1_555 1_555
Nd5 O1 1_555 1_555
Nd8 O11 1_555 1_555
Nd10 O1 1_555 1_555
O2 Nd10 1_555 1_555
O5 N1 1_555 1_555
C18 C20 1_555 1_555
C25 C28 1_555 1_555
C27 C29 1_555 1_555
C28 C30 1_555 1_555
O12 C3 1_555 1_555
O17 C3 1_555 1_555
C3 C10 1_555 1_555
H8 C9 1_555 1_555
C10 C9 1_555 1_555
Nd8 O12 1_555 1_555
O17 Nd8 1_555 1_555
Nd1 O3 1_555 1_555
Nd8 O10 1_555 1_555
O3 C2 1_555 1_555
O4 Nd1 1_555 1_555
O7 Nd1 1_555 1_555
H2 O7 1_555 1_555
O10 H3 1_555 1_555
H4 O10 1_555 1_555
O14 Nd1 1_555 1_555
N2 C8 1_555 1_555
C2 O14 1_555 1_555
C8 H7 1_555 1_555
C14 N2 1_555 1_555
H10 C14 1_555 1_555
C16 C6 1_555 1_555
H11 C16 1_555 1_555
C17 C2 1_555 1_555
C26 N2 1_555 1_555
H19 C26 1_555 1_555
H20 C26 1_555 1_555
O18 Nd1 1_555 1_555
O19 Nd8 1_555 1_555
O20 Nd8 1_555 1_555
O21 Nd1 1_555 1_555
O24 Nd8 1_555 1_555
Nd8 O14 1_555 1_555
Nd8 O18 1_555 1_555
C6 C26 1_555 1_555
C16 C17 1_555 1_555
O13 C15 1_555 1_555
O16 C15 1_555 1_555
C11 C12 1_555 1_555
C12 H9 1_555 1_555
C15 C11 1_555 1_555
C22 C11 1_555 1_555
H15 C22 1_555 1_555
Nd10 O13 1_555 1_555
O20 C13 1_555 1_555
O21 C13 1_555 1_555
C4 C5 1_555 1_555
C5 H5 1_555 1_555
C13 C4 1_555 1_555
C19 C4 1_555 1_555
H13 C19 1_555 1_555
O8 C13_2 1_555 1_555
O9 C13_2 1_555 1_555
C4_2 C5_2 1_555 1_555
C5_2 H5_2 1_555 1_555
C13_2 C4_2 1_555 1_555
C19_2 C4_2 1_555 1_555
H13_2 C19_2 1_555 1_555
Nd5 O9 1_555 1_555
Nd10 O8 1_555 1_555
O24 C15_2 1_555 1_555
O25 C15_2 1_555 1_555
C11_2 C12_2 1_555 1_555
C12_2 H9_2 1_555 1_555
C15_2 C11_2 1_555 1_555
C22_2 C11_2 1_555 1_555
H15_2 C22_2 1_555 1_555
Nd5 O3_2 1_555 1_555
Nd10 O10_2 1_555 1_555
O3_2 C2_2 1_555 1_555
O4_2 Nd5 1_555 1_555
O7_2 Nd5 1_555 1_555
H2_2 O7_2 1_555 1_555
O10_2 H3_2 1_555 1_555
H4_2 O10_2 1_555 1_555
O14_2 Nd5 1_555 1_555
N2_2 C8_2 1_555 1_555
C2_2 O14_2 1_555 1_555
C8_2 H7_2 1_555 1_555
C14_2 N2_2 1_555 1_555
H10_2 C14_2 1_555 1_555
C16_2 C6_2 1_555 1_555
H11_2 C16_2 1_555 1_555
C17_2 C2_2 1_555 1_555
C26_2 N2_2 1_555 1_555
H19_2 C26_2 1_555 1_555
H20_2 C26_2 1_555 1_555
O22 Nd10 1_555 1_555
O23 Nd10 1_555 1_555
O26 Nd10 1_555 1_555
Nd10 O14_2 1_555 1_555
C6_2 C26_2 1_555 1_555
C16_2 C17_2 1_555 1_555
O23 C3_2 1_555 1_555
O26 C3_2 1_555 1_555
C3_2 C10_2 1_555 1_555
H8_2 C9_2 1_555 1_555
C10_2 C9_2 1_555 1_555
O18 C1_2 1_555 1_555
O19 C1_2 1_555 1_555
C1_2 C23_2 1_555 1_555
O6_2 N1_2 1_555 1_555
O22 C21_2 1_555 1_555
N3_2 C7_2 1_555 1_555
C7_2 H6_2 1_555 1_555
C20_2 N3_2 1_555 1_555
C21_2 O15_2 1_555 1_555
C23_2 C25_2 1_555 1_555
C24_2 N3_2 1_555 1_555
H16_2 C24_2 1_555 1_555
C25_2 H18_2 1_555 1_555
C27_2 C21_2 1_555 1_555
C28_2 C24_2 1_555 1_555
C29_2 C23_2 1_555 1_555
H21_2 C29_2 1_555 1_555
C30_2 C27_2 1_555 1_555
H22_2 C30_2 1_555 1_555
O5_2 N1_2 1_555 1_555
C18_2 C20_2 1_555 1_555
C25_2 C28_2 1_555 1_555
C27_2 C29_2 1_555 1_555
C28_2 C30_2 1_555 1_555

#END
