
###############################################################################
#
# This file contains modified crystal structure data generated from the
# MOF subset of the Cambridge Structural Database (CSD) v543 
# hosted by the Cambridge Crystallographic Data Centre (CCDC).
#
# This work is licensed under the Creative Commons
# Attribution-NonCommercial-ShareAlike 4.0 International License.
# To view a copy of this license, visit
# http://creativecommons.org/licenses/by-nc-sa/4.0/
# or send a letter to
# Creative Commons, PO Box 1866, Mountain View, CA 94042, USA.
#
# CIF created using the CSD Python API on 29 September 2022
# The structure has been converted into the P1 space group
# The structure has a 3D framework
# The original CSD entry HUTGIP is in the monoclinic crystal system
# The framework has been calculated to contain at least 10.0% void space
# The void calculation uses a probe of radius 1.32A, grid spacing 0.4
#
###############################################################################

data_HUTGIP
_chemical_formula_moiety         '(C44 H24 Cu4 N12 O12)n'
_symmetry_cell_setting           triclinic
_symmetry_space_group_name_H-M   'P 1'
_symmetry_Int_Tables_number      1
_space_group_name_Hall           'P 1'
loop_
_symmetry_equiv_pos_site_id
_symmetry_equiv_pos_as_xyz
1 x,y,z
_cell_length_a                   4.721(4)
_cell_length_b                   28.074(4)
_cell_length_c                   11.108(14)
_cell_angle_alpha                90
_cell_angle_beta                 97.66(4)
_cell_angle_gamma                90
_cell_volume                     1459.09
loop_
_atom_site_label
_atom_site_type_symbol
_atom_site_fract_x
_atom_site_fract_y
_atom_site_fract_z
_atom_site_U_iso_or_equiv
_atom_site_thermal_displace_type
Cu6 Cu 0.359(11) 0.3105(13) 0.082(4) 0.0040 Uiso
O3 O 0.765(23) 0.311(5) 0.030(6) 0.0150 Uiso
Cu1 Cu 0.359(11) 0.1895(13) 0.582(4) 0.0040 Uiso
O1 O 0.54(3) 0.1709(18) 0.751(7) 0.0150 Uiso
N1 N 0.475(23) 0.2531(10) 0.652(8) 0.0150 Uiso
N2 N 0.259(17) 0.1205(12) 0.542(6) 0.0150 Uiso
C1 C 0.674(20) 0.2008(13) 0.817(10) 0.0150 Uiso
C2 C 0.644(27) 0.2510(12) 0.762(8) 0.0150 Uiso
C3 C 0.41(3) 0.2958(16) 0.597(8) 0.0150 Uiso
C4 C 0.087(28) 0.1009(20) 0.625(8) 0.0150 Uiso
C5 C 0.300(13) 0.0958(13) 0.434(6) 0.0150 Uiso
C6 C 0.897(18) 0.2929(23) 0.952(5) 0.0150 Uiso
O4 O 0.823(26) 0.1949(18) 0.915(11) 0.0150 Uiso
C7 C 0.745(15) 0.2923(18) 0.822(6) 0.0150 Uiso
C8 C 0.516(32) 0.3369(19) 0.656(10) 0.0150 Uiso
H1 H 0.30100 0.29800 0.52000 0.0150 Uiso
H2 H 0.03700 0.11940 0.69210 0.0150 Uiso
C10 C 0.190(30) 0.0484(17) 0.4155(25) 0.0150 Uiso
H3 H 0.40200 0.10950 0.36910 0.0150 Uiso
N3 N 0.692(25) 0.3352(18) 0.763(8) 0.0150 Uiso
H4 H 0.48100 0.37000 0.62200 0.0150 Uiso
C11 C 0.035(18) 0.0272(16) 0.5049(29) 0.0150 Uiso
H6 H 0.22400 0.02910 0.34370 0.0150 Uiso
O10 O 0.171(20) 0.216(5) 0.465(8) 0.0150 Uiso
O12 O 0.765(23) 0.189(5) 0.530(6) 0.0150 Uiso
N4 N 0.259(17) 0.3795(12) 0.042(6) 0.0150 Uiso
C12 C 0.087(28) 0.3991(20) 0.125(8) 0.0150 Uiso
H7 H 0.03700 0.38060 0.19210 0.0150 Uiso
C16 C 0.035(18) 0.4728(16) 0.0049(29) 0.0150 Uiso
O5 O 0.54(3) 0.3291(18) 0.251(7) 0.0150 Uiso
N5 N 0.475(23) 0.2469(10) 0.152(8) 0.0150 Uiso
C17 C 0.674(20) 0.2992(13) 0.317(10) 0.0150 Uiso
C18 C 0.644(27) 0.2490(12) 0.262(8) 0.0150 Uiso
C19 C 0.41(3) 0.2042(16) 0.097(8) 0.0150 Uiso
C20 C 0.897(18) 0.2071(23) 0.452(5) 0.0150 Uiso
O8 O 0.823(26) 0.3051(18) 0.415(11) 0.0150 Uiso
C21 C 0.745(15) 0.2077(18) 0.322(6) 0.0150 Uiso
C22 C 0.516(32) 0.1631(19) 0.156(10) 0.0150 Uiso
H11 H 0.30100 0.20200 0.02000 0.0150 Uiso
N6 N 0.692(25) 0.1648(18) 0.263(8) 0.0150 Uiso
H12 H 0.48100 0.13000 0.12200 0.0150 Uiso
O2 O 0.171(20) 0.284(5) 0.965(8) 0.0150 Uiso
C9 C 0.026(9) 0.5538(14) 0.893(5) 0.0150 Uiso
H5 H 0.14800 0.54050 0.83860 0.0150 Uiso
C13 C 0.300(13) 0.4042(13) 0.934(6) 0.0150 Uiso
C15 C 0.190(30) 0.4516(17) 0.9155(25) 0.0150 Uiso
H8 H 0.40200 0.39050 0.86910 0.0150 Uiso
H10 H 0.22400 0.47090 0.84370 0.0150 Uiso
C14 C 0.026(9) 0.9462(14) 0.393(5) 0.0150 Uiso
H9 H 0.14800 0.95950 0.33860 0.0150 Uiso
C9_2 C 0.974(9) 0.0538(14) 0.607(5) 0.0150 Uiso
H5_2 H 0.85200 0.04050 0.66140 0.0150 Uiso
N4_2 N 0.741(17) 0.8795(12) 0.458(6) 0.0150 Uiso
C12_2 C 0.913(28) 0.8991(20) 0.375(8) 0.0150 Uiso
C13_2 C 0.700(13) 0.9042(13) 0.566(6) 0.0150 Uiso
H7_2 H 0.96300 0.88060 0.30790 0.0150 Uiso
C15_2 C 0.810(30) 0.9516(17) 0.5845(25) 0.0150 Uiso
H8_2 H 0.59800 0.89050 0.63090 0.0150 Uiso
C16_2 C 0.965(18) 0.9728(16) 0.4951(29) 0.0150 Uiso
H10_2 H 0.77600 0.97090 0.65630 0.0150 Uiso
Cu2 Cu 0.641(11) 0.8105(13) 0.418(4) 0.0040 Uiso
O5_2 O 0.46(3) 0.8291(18) 0.249(7) 0.0150 Uiso
N5_2 N 0.525(23) 0.7469(10) 0.348(8) 0.0150 Uiso
C17_2 C 0.326(20) 0.7992(13) 0.183(10) 0.0150 Uiso
C18_2 C 0.356(27) 0.7490(12) 0.238(8) 0.0150 Uiso
C19_2 C 0.59(3) 0.7042(16) 0.403(8) 0.0150 Uiso
C20_2 C 0.103(18) 0.7071(23) 0.048(5) 0.0150 Uiso
O8_2 O 0.177(26) 0.8051(18) 0.085(11) 0.0150 Uiso
C21_2 C 0.255(15) 0.7077(18) 0.178(6) 0.0150 Uiso
C22_2 C 0.484(32) 0.6631(19) 0.344(10) 0.0150 Uiso
H11_2 H 0.69900 0.70200 0.48000 0.0150 Uiso
N6_2 N 0.308(25) 0.6648(18) 0.237(8) 0.0150 Uiso
H12_2 H 0.51900 0.63000 0.37800 0.0150 Uiso
O9 O 0.829(20) 0.784(5) 0.535(8) 0.0150 Uiso
O11 O 0.235(23) 0.811(5) 0.470(6) 0.0150 Uiso
O7 O 0.235(23) 0.689(5) 0.970(6) 0.0150 Uiso
Cu4 Cu 0.641(11) 0.6895(13) 0.918(4) 0.0040 Uiso
O1_2 O 0.46(3) 0.6709(18) 0.749(7) 0.0150 Uiso
N1_2 N 0.525(23) 0.7531(10) 0.848(8) 0.0150 Uiso
N2_2 N 0.741(17) 0.6205(12) 0.958(6) 0.0150 Uiso
C1_2 C 0.326(20) 0.7008(13) 0.683(10) 0.0150 Uiso
C2_2 C 0.356(27) 0.7510(12) 0.738(8) 0.0150 Uiso
C3_2 C 0.59(3) 0.7958(16) 0.903(8) 0.0150 Uiso
C4_2 C 0.913(28) 0.6009(20) 0.875(8) 0.0150 Uiso
C6_2 C 0.103(18) 0.7929(23) 0.548(5) 0.0150 Uiso
O4_2 O 0.177(26) 0.6949(18) 0.585(11) 0.0150 Uiso
C7_2 C 0.255(15) 0.7923(18) 0.678(6) 0.0150 Uiso
C8_2 C 0.484(32) 0.8369(19) 0.844(10) 0.0150 Uiso
H1_2 H 0.69900 0.79800 0.98000 0.0150 Uiso
H2_2 H 0.96300 0.61940 0.80790 0.0150 Uiso
N3_2 N 0.308(25) 0.8352(18) 0.737(8) 0.0150 Uiso
H4_2 H 0.51900 0.87000 0.87800 0.0150 Uiso
C11_2 C 0.965(18) 0.5272(16) 0.9951(29) 0.0150 Uiso
O6 O 0.829(20) 0.716(5) 0.035(8) 0.0150 Uiso
C5_2 C 0.700(13) 0.5958(13) 0.066(6) 0.0150 Uiso
C10_2 C 0.810(30) 0.5484(17) 0.0845(25) 0.0150 Uiso
H3_2 H 0.59800 0.60950 0.13090 0.0150 Uiso
H6_2 H 0.77600 0.52910 0.15630 0.0150 Uiso
C14_2 C 0.974(9) 0.4462(14) 0.107(5) 0.0150 Uiso
H9_2 H 0.85200 0.45950 0.16140 0.0150 Uiso
loop_
_geom_bond_atom_site_label_1
_geom_bond_atom_site_label_2
_geom_bond_site_symmetry_1
_geom_bond_site_symmetry_2
Cu6 O3 1_555 1_555
Cu1 O1 1_555 1_555
O1 C1 1_555 1_555
N1 Cu1 1_555 1_555
N2 Cu1 1_555 1_555
C1 C2 1_555 1_555
C2 N1 1_555 1_555
C3 N1 1_555 1_555
C4 N2 1_555 1_555
C5 N2 1_555 1_555
C6 C7 1_555 1_555
O4 C1 1_555 1_555
C7 C2 1_555 1_555
C8 C3 1_555 1_555
H1 C3 1_555 1_555
H2 C4 1_555 1_555
C10 C5 1_555 1_555
H3 C5 1_555 1_555
N3 C7 1_555 1_555
H4 C8 1_555 1_555
H6 C10 1_555 1_555
O10 Cu1 1_555 1_555
O12 Cu1 1_555 1_555
C8 N3 1_555 1_555
C10 C11 1_555 1_555
N4 C12 1_555 1_555
H7 C12 1_555 1_555
Cu6 N4 1_555 1_555
O5 Cu6 1_555 1_555
N5 Cu6 1_555 1_555
O12 C20 1_555 1_555
C17 O5 1_555 1_555
C18 N5 1_555 1_555
C19 N5 1_555 1_555
C20 C21 1_555 1_555
O8 C17 1_555 1_555
C21 C18 1_555 1_555
C22 C19 1_555 1_555
H11 C19 1_555 1_555
N6 C21 1_555 1_555
H12 C22 1_555 1_555
C17 C18 1_555 1_555
C22 N6 1_555 1_555
H5 C9 1_555 1_555
C15 C13 1_555 1_555
H8 C13 1_555 1_555
H10 C15 1_555 1_555
H9 C14 1_555 1_555
H5_2 C9_2 1_555 1_555
N4_2 C12_2 1_555 1_555
C13_2 N4_2 1_555 1_555
H7_2 C12_2 1_555 1_555
C15_2 C13_2 1_555 1_555
H8_2 C13_2 1_555 1_555
H10_2 C15_2 1_555 1_555
Cu2 N4_2 1_555 1_555
O5_2 Cu2 1_555 1_555
N5_2 Cu2 1_555 1_555
C17_2 O5_2 1_555 1_555
C18_2 N5_2 1_555 1_555
C19_2 N5_2 1_555 1_555
C20_2 C21_2 1_555 1_555
O8_2 C17_2 1_555 1_555
C21_2 C18_2 1_555 1_555
C22_2 C19_2 1_555 1_555
H11_2 C19_2 1_555 1_555
N6_2 C21_2 1_555 1_555
H12_2 C22_2 1_555 1_555
O9 Cu2 1_555 1_555
O11 Cu2 1_555 1_555
C15_2 C16_2 1_555 1_555
C17_2 C18_2 1_555 1_555
C22_2 N6_2 1_555 1_555
Cu4 O7 1_555 1_555
Cu4 O1_2 1_555 1_555
O1_2 C1_2 1_555 1_555
N1_2 Cu4 1_555 1_555
N2_2 Cu4 1_555 1_555
O11 C6_2 1_555 1_555
C1_2 C2_2 1_555 1_555
C2_2 N1_2 1_555 1_555
C3_2 N1_2 1_555 1_555
C4_2 N2_2 1_555 1_555
C6_2 C7_2 1_555 1_555
O4_2 C1_2 1_555 1_555
C7_2 C2_2 1_555 1_555
C8_2 C3_2 1_555 1_555
H1_2 C3_2 1_555 1_555
H2_2 C4_2 1_555 1_555
N3_2 C7_2 1_555 1_555
H4_2 C8_2 1_555 1_555
C8_2 N3_2 1_555 1_555
C10_2 C5_2 1_555 1_555
H3_2 C5_2 1_555 1_555
H6_2 C10_2 1_555 1_555
H9_2 C14_2 1_555 1_555

#END
