
###############################################################################
#
# This file contains modified crystal structure data generated from the
# MOF subset of the Cambridge Structural Database (CSD) v543 
# hosted by the Cambridge Crystallographic Data Centre (CCDC).
#
# This work is licensed under the Creative Commons
# Attribution-NonCommercial-ShareAlike 4.0 International License.
# To view a copy of this license, visit
# http://creativecommons.org/licenses/by-nc-sa/4.0/
# or send a letter to
# Creative Commons, PO Box 1866, Mountain View, CA 94042, USA.
#
# CIF created using the CSD Python API on 29 September 2022
# The structure has been converted into the P1 space group
# The structure has a 3D framework
# The original CSD entry HUVDIN is in the monoclinic crystal system
# The original CSD entry HUVDIN is in a Sohncke space group
# The framework has been calculated to contain at least 10.0% void space
# The void calculation uses a probe of radius 1.32A, grid spacing 0.4
#
###############################################################################

data_HUVDIN
_chemical_formula_moiety         '(C92 H68 Cd8 N16 O30)n'
_symmetry_cell_setting           triclinic
_symmetry_space_group_name_H-M   'P 1'
_symmetry_Int_Tables_number      1
_space_group_name_Hall           'P 1'
loop_
_symmetry_equiv_pos_site_id
_symmetry_equiv_pos_as_xyz
1 x,y,z
_cell_length_a                   11.3022(5)
_cell_length_b                   20.8207(5)
_cell_length_c                   12.2420(6)
_cell_angle_alpha                90
_cell_angle_beta                 116.513(5)
_cell_angle_gamma                90
_cell_volume                     2577.82
loop_
_atom_site_label
_atom_site_type_symbol
_atom_site_fract_x
_atom_site_fract_y
_atom_site_fract_z
C8 C 0.1868(6) 0.6304(3) 0.6244(6)
C9 C 0.0914(7) 0.6230(3) 0.6629(7)
H6 H 0.0915 0.5870 0.7079
C10 C 0.1908(7) 0.6849(3) 0.5611(7)
H7 H 0.2570 0.6898 0.5363
C28 C 0.0959(6) 0.7319(3) 0.5350(6)
H17 H 0.0976 0.7688 0.4928
C29 C 0.4118(6) 0.5832(3) 0.6869(7)
H18 H 0.4573 0.6217 0.6977
C34 C 0.2522(6) 0.5160(3) 0.6405(7)
H22 H 0.1687 0.4981 0.6150
C41 C 0.3643(6) 0.4847(3) 0.6740(7)
H26 H 0.3722 0.4402 0.6759
N2 N 0.2819(5) 0.5797(2) 0.6502(5)
N7 N 0.4682(5) 0.5270(2) 0.7059(5)
Cd13 Cd 0.66940(4) 0.495326(17) 0.72136(4)
Cd1 Cd 0.00398(4) 0.008426(16) 0.08162(4)
C2 C 0.0510(6) 0.3582(3) 0.0106(5)
C4 C 0.2751(6) 0.3320(3) 0.1730(5)
H3 H 0.2986 0.3745 0.1698
C15 C 0.3660(6) 0.2895(3) 0.2541(5)
C17 C 0.1760(6) 0.1342(3) 0.1867(6)
C18 C 0.3325(6) 0.2270(3) 0.2608(5)
H11 H 0.3942 0.1995 0.3176
C24 C 0.5678(6) 0.3509(3) 0.3034(6)
H14 H 0.5157 0.3901 0.2720
C25 C 0.6937(6) 0.3678(3) 0.4165(6)
C36 C 0.1143(6) 0.2466(3) 0.1016(5)
H23 H 0.0294 0.2324 0.0502
C37 C 0.2071(6) 0.2041(3) 0.1833(6)
C38 C 0.1498(6) 0.3108(3) 0.0973(6)
C44 C 0.5947(7) 0.3220(4) 0.2033(6)
H28 H 0.5123 0.3125 0.1339
H29 H 0.6447 0.2831 0.2324
H30 H 0.6440 0.3519 0.1802
O1 O 0.7026(4) 0.3520(2) 0.5190(4)
O10 O 0.4934(4) 0.30704(19) 0.3409(4)
O13 O 0.0620(4) 0.11499(19) 0.1192(4)
O14 O 0.0936(4) 0.41247(18) 0.0069(4)
O15 O 0.2702(5) 0.1004(2) 0.2572(5)
O16 O 0.7794(5) 0.3963(3) 0.3983(4)
Cd9 Cd 0.51124(4) 0.336612(16) 0.54284(4)
Cd11 Cd 0.83505(4) 0.357458(16) 0.73712(4)
O23 O 0.4203(4) 0.0083(2) 0.4869(4)
N10 N 0.5318(5) 0.0270(2) 0.2941(5)
Cd2 Cd 0.48876(4) 0.836612(16) 0.45716(4)
Cd3 Cd 0.16495(4) 0.857458(16) 0.26288(4)
Cd4 Cd 0.33060(4) 0.995326(17) 0.27864(4)
C1 C 0.8003(6) 0.8620(3) 0.5384(7)
H1 H 0.7857 0.9055 0.5449
C3 C 0.7667(6) 0.7621(3) 0.5084(6)
H2 H 0.7260 0.7220 0.4897
C6 C 0.9182(6) 0.8361(3) 0.5634(6)
H4 H 0.9982 0.8576 0.5882
C11 C 0.9981(6) 0.7236(3) 0.5725(6)
C13 C 0.9934(7) 0.6700(3) 0.6344(7)
H9 H 0.9259 0.6647 0.6575
O3 O 0.1298(4) 0.96400(17) 0.2592(4)
O4 O 0.3692(4) 0.88809(17) 0.2845(4)
O7 O 0.1952(4) 0.9941(2) 0.0615(4)
N1 N 0.7041(5) 0.8158(2) 0.5021(5)
N4 N 0.8968(5) 0.7715(2) 0.5450(5)
O17 O 0.2974(4) 0.8520(2) 0.4810(4)
O18 O 0.0661(4) 0.8380(2) 0.0528(4)
O19 O 0.2122(5) 0.7512(2) 0.2734(4)
O20 O 0.4267(4) 0.73402(19) 0.3973(4)
O21 O 0.5066(4) 0.80704(19) 0.6591(4)
O22 O 0.5718(4) 0.93042(18) 0.5633(4)
N9 N 0.7970(5) 0.0359(2) 0.0413(5)
C16 C 0.6894(6) 0.2162(3) 0.6699(6)
C19 C 0.8575(6) 0.0564(3) 0.7886(6)
C20 C 0.6373(6) 0.0364(3) 0.6333(5)
C21 C 0.7137(6) 0.1446(3) 0.6876(6)
C22 C 0.8359(6) 0.1221(3) 0.7728(6)
H12 H 0.9027 0.1508 0.8188
C23 C 0.6148(6) 0.1012(3) 0.6187(5)
H13 H 0.5327 0.1163 0.5623
C26 C 0.7607(6) 0.0133(3) 0.7223(5)
O2 O 0.9339(4) 0.3380(2) 0.9472(4)
O5 O 0.7878(5) 0.2512(2) 0.7266(4)
O6 O 0.5733(4) 0.23402(19) 0.6027(4)
O9 O 0.9765(4) 0.03384(19) 0.8790(4)
Cd6 Cd 0.99602(4) 0.508426(16) 0.91838(4)
H15 H 0.7757 0.9694 0.7353
H16 H 0.5822 0.6121 0.9535
C30 C 0.2620(6) 0.5925(3) 0.9867(6)
H19 H 0.2212 0.6306 0.9908
C31 C 0.5349(6) 0.9874(3) 0.5558(5)
C40 C 0.2947(7) 0.4936(3) 0.9615(8)
H25 H 0.2822 0.4497 0.9472
C45 C 0.4089(7) 0.5263(4) 0.9889(9)
H31 H 0.4869 0.5091 0.9932
H32 H 0.9655 0.9852 0.6748
N6 N 0.2030(5) 0.5359(2) 0.9587(5)
O24 O 0.9064(4) 0.91247(18) 0.9931(4)
C16_2 C 0.3106(6) 0.7162(3) 0.3301(6)
C19_2 C 0.1425(6) 0.5564(3) 0.2114(6)
C20_2 C 0.3627(6) 0.5364(3) 0.3667(5)
C21_2 C 0.2863(6) 0.6446(3) 0.3124(6)
C22_2 C 0.1641(6) 0.6221(3) 0.2272(6)
H12_2 H 0.0973 0.6508 0.1812
C23_2 C 0.3852(6) 0.6012(3) 0.3813(5)
H13_2 H 0.4673 0.6163 0.4377
C26_2 C 0.2393(6) 0.5133(3) 0.2777(5)
H15_2 H 0.2243 0.4694 0.2647
H16_2 H 0.4178 0.1121 0.0465
C30_2 C 0.7380(6) 0.0925(3) 0.0133(6)
H19_2 H 0.7788 0.1306 0.0092
C31_2 C 0.4651(6) 0.4874(3) 0.4442(5)
C45_2 C 0.5911(7) 0.0263(4) 0.0111(9)
H31_2 H 0.5131 0.0091 0.0068
H32_2 H 0.0345 0.4852 0.3252
O9_2 O 0.0235(4) 0.53384(19) 0.1210(4)
O11 O 0.4282(4) 0.43042(18) 0.4367(4)
O12 O 0.5797(4) 0.5083(2) 0.5131(4)
C7 C 0.0963(7) 0.2750(3) 0.7828(7)
H5 H 0.0568 0.2376 0.7922
C12 C 0.1266(7) 0.3717(3) 0.7408(8)
H8 H 0.1111 0.4142 0.7148
C14 C 0.2446(7) 0.3417(3) 0.7845(8)
H10 H 0.3245 0.3595 0.7948
C27 C 0.4180(7) 0.1408(4) 0.9884(7)
C33 C 0.4177(7) 0.2275(3) 0.8177(7)
H21 H 0.4158 0.2562 0.7587
C35 C 0.3231(6) 0.2310(3) 0.8572(6)
C39 C 0.3219(7) 0.1882(3) 0.9418(7)
H24 H 0.2565 0.1910 0.9680
C42 C 0.5173(8) 0.1816(3) 0.8642(7)
H27 H 0.5847 0.1809 0.8403
C43 C 0.5144(7) 0.1366(3) 0.9476(7)
N3 N 0.2240(5) 0.2801(2) 0.8105(5)
N5 N 0.0325(5) 0.3295(2) 0.7406(5)
N8 N 0.6111(5) 0.0873(2) 0.9917(6)
C1_2 C 0.1997(6) 0.3620(3) 0.4616(7)
H1_2 H 0.2143 0.4055 0.4551
C2_2 C 0.9490(6) 0.8582(3) 0.9894(5)
C3_2 C 0.2333(6) 0.2621(3) 0.4916(6)
H2_2 H 0.2740 0.2220 0.5103
C4_2 C 0.7249(6) 0.8320(3) 0.8270(5)
H3_2 H 0.7014 0.8745 0.8302
C6_2 C 0.0818(6) 0.3361(3) 0.4366(6)
H4_2 H 0.0018 0.3576 0.4118
C11_2 C 0.0019(6) 0.2236(3) 0.4275(6)
C13_2 C 0.0066(7) 0.1700(3) 0.3656(7)
H9_2 H 0.0741 0.1647 0.3425
C15_2 C 0.6340(6) 0.7895(3) 0.7459(5)
C17_2 C 0.8240(6) 0.6342(3) 0.8133(6)
C18_2 C 0.6675(6) 0.7270(3) 0.7392(5)
H11_2 H 0.6058 0.6995 0.6824
C24_2 C 0.4322(6) 0.8509(3) 0.6966(6)
H14_2 H 0.4843 0.8901 0.7280
C25_2 C 0.3063(6) 0.8678(3) 0.5835(6)
C36_2 C 0.8857(6) 0.7466(3) 0.8984(5)
H23_2 H 0.9706 0.7324 0.9498
C37_2 C 0.7929(6) 0.7041(3) 0.8167(6)
C38_2 C 0.8502(6) 0.8108(3) 0.9027(6)
C44_2 C 0.4053(7) 0.8220(4) 0.7967(6)
H28_2 H 0.4877 0.8125 0.8661
H29_2 H 0.3553 0.7831 0.7676
H30_2 H 0.3560 0.8519 0.8198
O3_2 O 0.8702(4) 0.46400(17) 0.7408(4)
O4_2 O 0.6308(4) 0.38809(17) 0.7155(4)
O7_2 O 0.8048(4) 0.4941(2) 0.9385(4)
O13_2 O 0.9380(4) 0.61499(19) 0.8808(4)
O15_2 O 0.7298(5) 0.6004(2) 0.7428(5)
O16_2 O 0.2206(5) 0.8963(3) 0.6017(4)
N1_2 N 0.2959(5) 0.3158(2) 0.4979(5)
N4_2 N 0.1032(5) 0.2715(2) 0.4550(5)
C8_2 C 0.8132(6) 0.1304(3) 0.3756(6)
C9_2 C 0.9086(7) 0.1230(3) 0.3371(7)
H6_2 H 0.9085 0.0870 0.2921
C10_2 C 0.8092(7) 0.1849(3) 0.4389(7)
H7_2 H 0.7430 0.1898 0.4637
C28_2 C 0.9041(6) 0.2319(3) 0.4650(6)
H17_2 H 0.9024 0.2688 0.5072
C29_2 C 0.5882(6) 0.0832(3) 0.3131(7)
H18_2 H 0.5427 0.1217 0.3023
C34_2 C 0.7478(6) 0.0160(3) 0.3595(7)
N2_2 N 0.7181(5) 0.0797(2) 0.3498(5)
H22_2 H 0.8313 0.9981 0.3850
C41_2 C 0.6357(6) 0.9847(3) 0.3260(7)
H26_2 H 0.6278 0.9402 0.3241
C32 C 0.0826(7) 0.0218(4) 0.8493(6)
H20 H 0.1055 0.0617 0.8206
C5 C 0.2032(6) 0.9980(3) 0.9630(6)
C46 C 0.0405(9) 0.9700(6) 0.7462(8)
H33 H 0.0176 0.9309 0.7738
H34 H 0.1125 0.9620 0.7267
O8 O 0.3013(5) 0.9834(3) 0.9497(5)
C7_2 C 0.9037(7) 0.7750(3) 0.2172(7)
H5_2 H 0.9432 0.7376 0.2078
C12_2 C 0.8734(7) 0.8717(3) 0.2592(8)
H8_2 H 0.8889 0.9142 0.2852
C14_2 C 0.7554(7) 0.8417(3) 0.2155(8)
H10_2 H 0.6755 0.8595 0.2052
C27_2 C 0.5820(7) 0.6408(4) 0.0116(7)
C33_2 C 0.5823(7) 0.7275(3) 0.1823(7)
H21_2 H 0.5842 0.7562 0.2413
C35_2 C 0.6769(6) 0.7310(3) 0.1428(6)
C39_2 C 0.6781(7) 0.6882(3) 0.0582(7)
H24_2 H 0.7435 0.6910 0.0320
C42_2 C 0.4827(8) 0.6816(3) 0.1358(7)
H27_2 H 0.4153 0.6809 0.1597
C43_2 C 0.4856(7) 0.6366(3) 0.0524(7)
N3_2 N 0.7760(5) 0.7801(2) 0.1895(5)
N5_2 N 0.9675(5) 0.8295(2) 0.2594(5)
N8_2 N 0.3889(5) 0.5873(2) 0.0083(6)
C40_2 C 0.7053(7) 0.9936(3) 0.0385(8)
H25_2 H 0.7178 0.9497 0.0528
C5_2 C 0.7968(6) 0.4980(3) 0.0370(6)
C32_2 C 0.9174(7) 0.5218(4) 0.1507(6)
H20_2 H 0.8945 0.5617 0.1794
C46_2 C 0.9595(9) 0.4700(6) 0.2538(8)
H33_2 H 0.9824 0.4309 0.2262
H34_2 H 0.8875 0.4620 0.2733
O8_2 O 0.6987(5) 0.4834(3) 0.0503(5)
loop_
_geom_bond_atom_site_label_1
_geom_bond_atom_site_label_2
_geom_bond_site_symmetry_1
_geom_bond_site_symmetry_2
C8 C9 1_555 1_555
C9 H6 1_555 1_555
C10 C8 1_555 1_555
H7 C10 1_555 1_555
C28 C10 1_555 1_555
H17 C28 1_555 1_555
C29 H18 1_555 1_555
C34 H22 1_555 1_555
C41 C34 1_555 1_555
H26 C41 1_555 1_555
N2 C8 1_555 1_555
N7 C29 1_555 1_555
Cd13 N7 1_555 1_555
C29 N2 1_555 1_555
C34 N2 1_555 1_555
C41 N7 1_555 1_555
C2 C38 1_555 1_555
C4 H3 1_555 1_555
C15 C4 1_555 1_555
C17 C37 1_555 1_555
C18 C15 1_555 1_555
H11 C18 1_555 1_555
C24 H14 1_555 1_555
C25 C24 1_555 1_555
C36 H23 1_555 1_555
C37 C18 1_555 1_555
C38 C4 1_555 1_555
C44 C24 1_555 1_555
H28 C44 1_555 1_555
H29 C44 1_555 1_555
H30 C44 1_555 1_555
O1 C25 1_555 1_555
O10 C15 1_555 1_555
O13 Cd1 1_555 1_555
O14 C2 1_555 1_555
O16 C25 1_555 1_555
Cd9 O1 1_555 1_555
Cd11 O1 1_555 1_555
C17 O13 1_555 1_555
C17 O15 1_555 1_555
C24 O10 1_555 1_555
C36 C37 1_555 1_555
C36 C38 1_555 1_555
O10 Cd9 1_555 1_555
Cd2 O4 1_555 1_555
Cd3 O3 1_555 1_555
Cd4 O3 1_555 1_555
C1 H1 1_555 1_555
C3 H2 1_555 1_555
C6 C1 1_555 1_555
H4 C6 1_555 1_555
C11 C13 1_555 1_555
H9 C13 1_555 1_555
O4 Cd3 1_555 1_555
N1 Cd2 1_555 1_555
N4 C3 1_555 1_555
O17 Cd2 1_555 1_555
O18 Cd3 1_555 1_555
O19 Cd3 1_555 1_555
O20 Cd2 1_555 1_555
O21 Cd2 1_555 1_555
O22 Cd2 1_555 1_555
Cd3 O17 1_555 1_555
Cd4 O4 1_555 1_555
Cd4 O7 1_555 1_555
C1 N1 1_555 1_555
C3 N1 1_555 1_555
C6 N4 1_555 1_555
C11 N4 1_555 1_555
C16 C21 1_555 1_555
C19 C22 1_555 1_555
C20 C23 1_555 1_555
C21 C22 1_555 1_555
C22 H12 1_555 1_555
C23 C21 1_555 1_555
H13 C23 1_555 1_555
C26 C19 1_555 1_555
O5 C16 1_555 1_555
O6 C16 1_555 1_555
Cd9 O6 1_555 1_555
Cd11 O2 1_555 1_555
C19 O9 1_555 1_555
C20 C26 1_555 1_555
O5 Cd11 1_555 1_555
C30 H19 1_555 1_555
C40 H25 1_555 1_555
C45 C40 1_555 1_555
H31 C45 1_555 1_555
O22 C31 1_555 1_555
N6 C30 1_555 1_555
C40 N6 1_555 1_555
C16_2 C21_2 1_555 1_555
C19_2 C22_2 1_555 1_555
C20_2 C23_2 1_555 1_555
C21_2 C22_2 1_555 1_555
C22_2 H12_2 1_555 1_555
C23_2 C21_2 1_555 1_555
H13_2 C23_2 1_555 1_555
C26_2 C19_2 1_555 1_555
H15_2 C26_2 1_555 1_555
C30_2 H19_2 1_555 1_555
C31_2 C20_2 1_555 1_555
H31_2 C45_2 1_555 1_555
O19 C16_2 1_555 1_555
O20 C16_2 1_555 1_555
O11 C31_2 1_555 1_555
O12 C31_2 1_555 1_555
N9 C30_2 1_555 1_555
Cd9 O11 1_555 1_555
Cd13 O12 1_555 1_555
C19_2 O9_2 1_555 1_555
C20_2 C26_2 1_555 1_555
C7 H5 1_555 1_555
C12 H8 1_555 1_555
C14 C12 1_555 1_555
H10 C14 1_555 1_555
C33 H21 1_555 1_555
C35 C33 1_555 1_555
C39 C27 1_555 1_555
H24 C39 1_555 1_555
C42 C33 1_555 1_555
H27 C42 1_555 1_555
C43 C27 1_555 1_555
N3 C7 1_555 1_555
C7 N5 1_555 1_555
C12 N5 1_555 1_555
C14 N3 1_555 1_555
C35 C39 1_555 1_555
C35 N3 1_555 1_555
C42 C43 1_555 1_555
C43 N8 1_555 1_555
Cd6 O3_2 1_555 1_555
Cd9 O4_2 1_555 1_555
Cd11 O3_2 1_555 1_555
Cd13 O3_2 1_555 1_555
C1_2 H1_2 1_555 1_555
C2_2 C38_2 1_555 1_555
C3_2 H2_2 1_555 1_555
C4_2 H3_2 1_555 1_555
C6_2 C1_2 1_555 1_555
H4_2 C6_2 1_555 1_555
C11_2 C13_2 1_555 1_555
H9_2 C13_2 1_555 1_555
C15_2 C4_2 1_555 1_555
C17_2 C37_2 1_555 1_555
C18_2 C15_2 1_555 1_555
H11_2 C18_2 1_555 1_555
C24_2 H14_2 1_555 1_555
C25_2 C24_2 1_555 1_555
C36_2 H23_2 1_555 1_555
C37_2 C18_2 1_555 1_555
C38_2 C4_2 1_555 1_555
C44_2 C24_2 1_555 1_555
H28_2 C44_2 1_555 1_555
H29_2 C44_2 1_555 1_555
H30_2 C44_2 1_555 1_555
O17 C25_2 1_555 1_555
O4_2 Cd11 1_555 1_555
O7_2 Cd6 1_555 1_555
O21 C15_2 1_555 1_555
O13_2 Cd6 1_555 1_555
O24 C2_2 1_555 1_555
O15_2 Cd13 1_555 1_555
O16_2 C25_2 1_555 1_555
N1_2 Cd9 1_555 1_555
N4_2 C3_2 1_555 1_555
Cd13 O4_2 1_555 1_555
Cd13 O7_2 1_555 1_555
C1_2 N1_2 1_555 1_555
C3_2 N1_2 1_555 1_555
C6_2 N4_2 1_555 1_555
C11_2 N4_2 1_555 1_555
C17_2 O13_2 1_555 1_555
C17_2 O15_2 1_555 1_555
C24_2 O21 1_555 1_555
C36_2 C37_2 1_555 1_555
C36_2 C38_2 1_555 1_555
C8_2 C9_2 1_555 1_555
C9_2 H6_2 1_555 1_555
C10_2 C8_2 1_555 1_555
H7_2 C10_2 1_555 1_555
C28_2 C10_2 1_555 1_555
H17_2 C28_2 1_555 1_555
C29_2 H18_2 1_555 1_555
N2_2 C8_2 1_555 1_555
N10 C29_2 1_555 1_555
C29_2 N2_2 1_555 1_555
C34_2 N2_2 1_555 1_555
H26_2 C41_2 1_555 1_555
C32 H20 1_555 1_555
H33 C46 1_555 1_555
H34 C46 1_555 1_555
O8 C5 1_555 1_555
C7_2 H5_2 1_555 1_555
C12_2 H8_2 1_555 1_555
C14_2 C12_2 1_555 1_555
H10_2 C14_2 1_555 1_555
C33_2 H21_2 1_555 1_555
C35_2 C33_2 1_555 1_555
C39_2 C27_2 1_555 1_555
H24_2 C39_2 1_555 1_555
C42_2 C33_2 1_555 1_555
H27_2 C42_2 1_555 1_555
C43_2 C27_2 1_555 1_555
N3_2 C7_2 1_555 1_555
C7_2 N5_2 1_555 1_555
C12_2 N5_2 1_555 1_555
C14_2 N3_2 1_555 1_555
C35_2 C39_2 1_555 1_555
C35_2 N3_2 1_555 1_555
C42_2 C43_2 1_555 1_555
C43_2 N8_2 1_555 1_555
C40_2 H25_2 1_555 1_555
C5_2 C32_2 1_555 1_555
C32_2 H20_2 1_555 1_555
C46_2 C32_2 1_555 1_555
H33_2 C46_2 1_555 1_555
H34_2 C46_2 1_555 1_555
O8_2 C5_2 1_555 1_555

#END
