
###############################################################################
#
# This file contains modified crystal structure data generated from the
# MOF subset of the Cambridge Structural Database (CSD) v543 
# hosted by the Cambridge Crystallographic Data Centre (CCDC).
#
# This work is licensed under the Creative Commons
# Attribution-NonCommercial-ShareAlike 4.0 International License.
# To view a copy of this license, visit
# http://creativecommons.org/licenses/by-nc-sa/4.0/
# or send a letter to
# Creative Commons, PO Box 1866, Mountain View, CA 94042, USA.
#
# CIF created using the CSD Python API on 29 September 2022
# The structure has been converted into the P1 space group
# The structure has a 3D framework
# The original CSD entry HUVGEM is in the triclinic crystal system
# The framework has been calculated to contain at least 10.0% void space
# The void calculation uses a probe of radius 1.32A, grid spacing 0.4
#
###############################################################################

data_HUVGEM
_chemical_formula_moiety         '(C42 H25 O19 Zn5)n'
_symmetry_cell_setting           triclinic
_symmetry_space_group_name_H-M   'P 1'
_symmetry_Int_Tables_number      1
_space_group_name_Hall           'P 1'
loop_
_symmetry_equiv_pos_site_id
_symmetry_equiv_pos_as_xyz
1 x,y,z
_cell_length_a                   6.327
_cell_length_b                   12.671
_cell_length_c                   15.684
_cell_angle_alpha                95.69
_cell_angle_beta                 99.77
_cell_angle_gamma                98.01
_cell_volume                     1217.3
loop_
_atom_site_label
_atom_site_type_symbol
_atom_site_fract_x
_atom_site_fract_y
_atom_site_fract_z
H1 H 0.0429 0.7278 0.3923
H2 H 0.0331 0.5770 0.2969
C10 C 0.0990(8) 0.2796(4) 0.2244(3)
C11 C 0.2016(8) 0.3033(4) 0.1561(3)
H6 H 0.3159 0.2686 0.1447
C12 C 0.1321(8) 0.3796(4) 0.1047(3)
C20 C 0.1689(8) 0.1969(4) 0.2801(3)
O4 O 0.2384(6) 0.4105(3) 0.0383(2)
O7 O 0.3170(6) 0.1484(3) 0.2568(3)
O8 O 0.0807(6) 0.1810(3) 0.3439(2)
Zn2 Zn 0.44116(9) 0.03790(5) 0.31402(4)
Zn3 Zn 0.5000 0.0000 0.5000
O22 O 0.4531(5) 0.1510(3) 0.5477(2)
O26 O 0.0910(5) 0.1157(3) 0.5317(2)
O29 O 0.7503(5) 0.0189(3) 0.6078(2)
O30 O 0.6873(5) 0.0823(3) 0.4130(2)
Zn9 Zn 0.02007(8) 0.95373(5) 0.60052(3)
C14 C 0.2558(8) 0.3288(4) 0.9757(3)
C15 C 0.0816(9) 0.2510(5) 0.9383(4)
C16 C 0.0992(9) 0.1769(5) 0.8710(4)
C17 C 0.2956(8) 0.1762(4) 0.8437(3)
C18 C 0.4682(8) 0.2536(5) 0.8823(4)
H10 H 0.6006 0.2531 0.8642
C19 C 0.4516(9) 0.3316(5) 0.9467(4)
H11 H 0.5687 0.3852 0.9705
C21 C 0.3167(8) 0.0933(4) 0.7723(3)
O5 O 0.1469(6) 0.0454(3) 0.7223(2)
O6 O 0.5072(6) 0.0772(3) 0.7656(2)
O9 O 0.2497(5) 0.9811(3) 0.3922(2)
Zn3_2 Zn 0.5000 1.0000 0.5000
H12 H 0.204(13) 0.914(2) 0.380(5)
H21 H 0.0485 0.7514 0.0413
H22 H 0.0212 0.8729 0.1563
O21 O 0.5469(5) 0.8490(3) 0.4523(2)
O28 O 0.4928(6) 0.9228(3) 0.2344(2)
O32 O 0.3127(5) 0.9177(3) 0.5870(2)
C22 C 0.2754(7) 0.1734(4) 0.5634(3)
C23 C 0.2804(8) 0.2726(4) 0.6238(3)
C24 C 0.0903(8) 0.3095(4) 0.6376(4)
C25 C 0.0955(8) 0.3997(4) 0.6943(4)
C26 C 0.2939(8) 0.4560(4) 0.7384(3)
C27 C 0.4864(8) 0.4215(4) 0.7254(4)
H16 H 0.6195 0.4595 0.7547
C28 C 0.4777(8) 0.3305(4) 0.6686(3)
H17 H 0.6064 0.3071 0.6600
C29 C 0.1355(8) 0.5926(4) 0.8092(3)
C30 C 0.0726(8) 0.6682(4) 0.7577(3)
H18 H 0.1424 0.6846 0.7119
C34 C 0.0357(9) 0.5663(4) 0.8780(3)
H20 H 0.0795 0.5140 0.9117
O13 O 0.3193(5) 0.5461(3) 0.7976(2)
H26 H 0.29(2) 0.850(2) 0.572(9)
Zn11 Zn 0.55884(9) 0.96210(5) 0.68598(4)
Zn7 Zn 0.97993(8) 0.04627(5) 0.39948(3)
C1 C 0.7246(7) 0.8266(4) 0.4366(3)
C2 C 0.7196(8) 0.7274(4) 0.3762(3)
C3 C 0.9097(8) 0.6905(4) 0.3624(4)
C4 C 0.9045(8) 0.6003(4) 0.3057(4)
C5 C 0.7061(8) 0.5440(4) 0.2616(3)
C6 C 0.5136(8) 0.5785(4) 0.2746(4)
H3 H 0.3805 0.5405 0.2453
C7 C 0.5223(8) 0.6695(4) 0.3314(3)
H4 H 0.3936 0.6929 0.3400
C8 C 0.8645(8) 0.4074(4) 0.1908(3)
C9 C 0.9274(8) 0.3318(4) 0.2423(3)
H5 H 0.8576 0.3154 0.2881
C13 C 0.9643(9) 0.4337(4) 0.1220(3)
H7 H 0.9205 0.4860 0.0883
O2 O 0.9090(5) 0.8843(3) 0.4683(2)
O3 O 0.6807(5) 0.4539(3) 0.2024(2)
H13 H 0.71(2) 0.150(2) 0.428(9)
H8 H 0.9515 0.2486 0.9587
H9 H 0.9788 0.1271 0.8437
H25 H 0.796(13) 0.086(2) 0.620(5)
C35 C 0.7442(8) 0.6712(4) 0.0243(3)
C36 C 0.9184(9) 0.7490(5) 0.0617(4)
C37 C 0.9008(9) 0.8231(5) 0.1290(4)
C38 C 0.7044(8) 0.8238(4) 0.1563(3)
C39 C 0.5318(8) 0.7464(5) 0.1177(4)
H23 H 0.3994 0.7469 0.1358
C40 C 0.5484(9) 0.6684(5) 0.0533(4)
H24 H 0.4313 0.6148 0.0295
C42 C 0.6833(8) 0.9067(4) 0.2277(3)
O15 O 0.8531(6) 0.9546(3) 0.2777(2)
H14 H 0.9571 0.2722 0.6077
H15 H 0.9669 0.4230 0.7031
C31 C 0.9010(8) 0.7204(4) 0.7756(3)
C32 C 0.7984(8) 0.6967(4) 0.8439(3)
H19 H 0.6841 0.7314 0.8553
C33 C 0.8679(8) 0.6204(4) 0.8953(3)
C41 C 0.8311(8) 0.8031(4) 0.7199(3)
O14 O 0.7616(6) 0.5895(3) 0.9617(2)
O17 O 0.6830(6) 0.8516(3) 0.7432(3)
O18 O 0.9193(6) 0.8190(3) 0.6561(2)
loop_
_geom_bond_atom_site_label_1
_geom_bond_atom_site_label_2
_geom_bond_site_symmetry_1
_geom_bond_site_symmetry_2
C11 C10 1_555 1_555
H6 C11 1_555 1_555
C12 C11 1_555 1_555
C20 C10 1_555 1_555
O4 C12 1_555 1_555
O7 C20 1_555 1_555
O8 C20 1_555 1_555
Zn2 O7 1_555 1_555
O22 Zn3 1_555 1_555
O29 Zn3 1_555 1_555
O30 Zn2 1_555 1_555
Zn3 O30 1_555 1_555
C14 C15 1_555 1_555
C16 C15 1_555 1_555
C17 C16 1_555 1_555
C18 C17 1_555 1_555
H10 C18 1_555 1_555
C19 C14 1_555 1_555
H11 C19 1_555 1_555
C21 C17 1_555 1_555
O5 C21 1_555 1_555
O6 C21 1_555 1_555
C18 C19 1_555 1_555
Zn3_2 O9 1_555 1_555
H12 O9 1_555 1_555
O21 Zn3_2 1_555 1_555
O32 Zn3_2 1_555 1_555
C22 C23 1_555 1_555
C23 C24 1_555 1_555
C25 C24 1_555 1_555
C26 C25 1_555 1_555
C27 C26 1_555 1_555
H16 C27 1_555 1_555
C28 C23 1_555 1_555
H17 C28 1_555 1_555
C29 C30 1_555 1_555
C30 H18 1_555 1_555
C34 C29 1_555 1_555
H20 C34 1_555 1_555
O22 C22 1_555 1_555
O26 C22 1_555 1_555
O13 C26 1_555 1_555
O32 Zn9 1_555 1_555
H26 O32 1_555 1_555
C27 C28 1_555 1_555
C29 O13 1_555 1_555
O32 Zn11 1_555 1_555
C1 C2 1_555 1_555
C2 C3 1_555 1_555
C4 C3 1_555 1_555
C5 C4 1_555 1_555
C6 C5 1_555 1_555
H3 C6 1_555 1_555
C7 C2 1_555 1_555
H4 C7 1_555 1_555
C8 C9 1_555 1_555
C9 H5 1_555 1_555
C13 C8 1_555 1_555
H7 C13 1_555 1_555
O21 C1 1_555 1_555
O2 C1 1_555 1_555
O3 C5 1_555 1_555
O30 Zn7 1_555 1_555
H13 O30 1_555 1_555
C6 C7 1_555 1_555
C8 O3 1_555 1_555
H25 O29 1_555 1_555
C35 C36 1_555 1_555
C37 C36 1_555 1_555
C38 C37 1_555 1_555
C39 C38 1_555 1_555
H23 C39 1_555 1_555
C40 C35 1_555 1_555
H24 C40 1_555 1_555
C42 C38 1_555 1_555
O28 C42 1_555 1_555
C39 C40 1_555 1_555
C42 O15 1_555 1_555
C32 C31 1_555 1_555
H19 C32 1_555 1_555
C33 C32 1_555 1_555
C41 C31 1_555 1_555
O14 C33 1_555 1_555
O17 C41 1_555 1_555
O18 C41 1_555 1_555
Zn11 O17 1_555 1_555

#END
