
###############################################################################
#
# This file contains modified crystal structure data generated from the
# MOF subset of the Cambridge Structural Database (CSD) v543 
# hosted by the Cambridge Crystallographic Data Centre (CCDC).
#
# This work is licensed under the Creative Commons
# Attribution-NonCommercial-ShareAlike 4.0 International License.
# To view a copy of this license, visit
# http://creativecommons.org/licenses/by-nc-sa/4.0/
# or send a letter to
# Creative Commons, PO Box 1866, Mountain View, CA 94042, USA.
#
# CIF created using the CSD Python API on 29 September 2022
# The structure has been converted into the P1 space group
# The structure has a 3D framework
# The original CSD entry HUVGAJ is in the monoclinic crystal system
# The framework has been calculated to contain at least 10.0% void space
# The void calculation uses a probe of radius 1.32A, grid spacing 0.4
#
###############################################################################

data_HUVGAJ
_chemical_formula_moiety         '(C48 H28 Cu4 N12 O10)n'
_symmetry_cell_setting           triclinic
_symmetry_space_group_name_H-M   'P 1'
_symmetry_Int_Tables_number      1
_space_group_name_Hall           'P 1'
loop_
_symmetry_equiv_pos_site_id
_symmetry_equiv_pos_as_xyz
1 x,y,z
_cell_length_a                   4.759(5)
_cell_length_b                   32.149(4)
_cell_length_c                   11.150(15)
_cell_angle_alpha                90
_cell_angle_beta                 96.93(5)
_cell_angle_gamma                90
_cell_volume                     1693.45
loop_
_atom_site_label
_atom_site_type_symbol
_atom_site_fract_x
_atom_site_fract_y
_atom_site_fract_z
_atom_site_U_iso_or_equiv
_atom_site_thermal_displace_type
O3 O 0.293(20) 0.291(3) 0.002(10) 0.0150 Uiso
Cu6 Cu 0.507(9) 0.3003(11) 0.086(4) 0.0040 Uiso
O4 O 0.869(21) 0.294(5) 0.007(11) 0.0150 Uiso
Cu1 Cu 0.507(9) 0.1997(11) 0.586(4) 0.0040 Uiso
O1 O 0.698(31) 0.1809(24) 0.752(6) 0.0150 Uiso
O2 O 0.975(30) 0.199(4) 0.922(11) 0.0150 Uiso
N1 N 0.564(26) 0.2550(14) 0.664(11) 0.0150 Uiso
N2 N 0.79(6) 0.3268(22) 0.773(17) 0.0150 Uiso
N3 N 0.37(3) 0.1414(18) 0.584(11) 0.0150 Uiso
C1 C 0.12(7) 0.010(3) 0.537(21) 0.0150 Uiso
C2 C 0.795(17) 0.2055(18) 0.810(12) 0.0150 Uiso
C3 C 0.734(30) 0.2519(18) 0.769(11) 0.0150 Uiso
C4 C 0.52(3) 0.2935(28) 0.608(9) 0.0150 Uiso
C5 C 0.63(4) 0.3298(18) 0.668(15) 0.0150 Uiso
C6 C 0.84(5) 0.289(3) 0.826(14) 0.0150 Uiso
C8 C 0.27(4) 0.119(4) 0.682(10) 0.0150 Uiso
C9 C 0.37(4) 0.122(3) 0.471(12) 0.0150 Uiso
C10 C 0.30(5) 0.080(4) 0.455(8) 0.0150 Uiso
C11 C 0.19(5) 0.077(3) 0.666(9) 0.0150 Uiso
C12 C 0.20(7) 0.0577(30) 0.553(13) 0.0150 Uiso
H1 H 0.37(22) 0.29(3) 0.54(14) 0.0150 Uiso
H2 H 0.6(4) 0.35(4) 0.64(9) 0.0150 Uiso
H4 H 0.55(24) 0.129(22) 0.41(9) 0.0150 Uiso
H5 H 0.38(23) 0.060(25) 0.38(11) 0.0150 Uiso
H6 H 0.22(18) 0.13060 0.74(11) 0.0150 Uiso
H7 H 0.05(26) 0.06160 0.703(11) 0.0150 Uiso
O10 O 0.293(20) 0.209(3) 0.502(10) 0.0150 Uiso
O12 O 0.869(21) 0.206(5) 0.507(11) 0.0150 Uiso
C24 C 0.034(23) 0.2092(22) 0.443(6) 0.0150 Uiso
N4 N 0.37(3) 0.3586(18) 0.084(11) 0.0150 Uiso
C13 C 0.12(7) 0.490(3) 0.037(21) 0.0150 Uiso
C14 C 0.27(4) 0.381(4) 0.182(10) 0.0150 Uiso
C17 C 0.19(5) 0.423(3) 0.166(9) 0.0150 Uiso
C18 C 0.20(7) 0.4423(30) 0.053(13) 0.0150 Uiso
H8 H 0.27(29) 0.51(4) 0.04(17) 0.0150 Uiso
H11 H 0.22(18) 0.36940 0.24(11) 0.0150 Uiso
H12 H 0.05(26) 0.43840 0.203(11) 0.0150 Uiso
O5 O 0.698(31) 0.3191(24) 0.252(6) 0.0150 Uiso
O6 O 0.975(30) 0.301(4) 0.422(11) 0.0150 Uiso
N5 N 0.564(26) 0.2450(14) 0.164(11) 0.0150 Uiso
N6 N 0.79(6) 0.1732(22) 0.273(17) 0.0150 Uiso
C19 C 0.795(17) 0.2945(18) 0.310(12) 0.0150 Uiso
C20 C 0.734(30) 0.2481(18) 0.269(11) 0.0150 Uiso
C21 C 0.52(3) 0.2065(28) 0.108(9) 0.0150 Uiso
C22 C 0.63(4) 0.1702(18) 0.168(15) 0.0150 Uiso
C23 C 0.84(5) 0.211(3) 0.326(14) 0.0150 Uiso
H13 H 0.37(22) 0.21(3) 0.04(14) 0.0150 Uiso
H14 H 0.6(4) 0.15(4) 0.14(9) 0.0150 Uiso
C7 C 0.034(23) 0.2908(22) 0.943(6) 0.0150 Uiso
H3 H 0.27(29) 0.99(4) 0.54(17) 0.0150 Uiso
H8_2 H 0.73(29) 0.01(4) 0.46(17) 0.0150 Uiso
N4_2 N 0.63(3) 0.8586(18) 0.416(11) 0.0150 Uiso
C13_2 C 0.88(7) 0.990(3) 0.463(21) 0.0150 Uiso
C14_2 C 0.73(4) 0.881(4) 0.318(10) 0.0150 Uiso
C15 C 0.63(4) 0.878(3) 0.529(12) 0.0150 Uiso
C16 C 0.70(5) 0.920(4) 0.545(8) 0.0150 Uiso
C17_2 C 0.81(5) 0.923(3) 0.334(9) 0.0150 Uiso
C18_2 C 0.80(7) 0.9423(30) 0.447(13) 0.0150 Uiso
H9 H 0.45(24) 0.871(22) 0.59(9) 0.0150 Uiso
H10 H 0.62(23) 0.940(25) 0.62(11) 0.0150 Uiso
H11_2 H 0.78(18) 0.86940 0.26(11) 0.0150 Uiso
H12_2 H 0.95(26) 0.93840 0.297(11) 0.0150 Uiso
Cu2 Cu 0.493(9) 0.8003(11) 0.414(4) 0.0040 Uiso
O5_2 O 0.302(31) 0.8191(24) 0.248(6) 0.0150 Uiso
O6_2 O 0.025(30) 0.801(4) 0.078(11) 0.0150 Uiso
N5_2 N 0.436(26) 0.7450(14) 0.336(11) 0.0150 Uiso
N6_2 N 0.21(6) 0.6732(22) 0.227(17) 0.0150 Uiso
C19_2 C 0.205(17) 0.7945(18) 0.190(12) 0.0150 Uiso
C20_2 C 0.266(30) 0.7481(18) 0.231(11) 0.0150 Uiso
C21_2 C 0.48(3) 0.7065(28) 0.392(9) 0.0150 Uiso
C22_2 C 0.37(4) 0.6702(18) 0.332(15) 0.0150 Uiso
C23_2 C 0.16(5) 0.711(3) 0.174(14) 0.0150 Uiso
H13_2 H 0.63(22) 0.71(3) 0.46(14) 0.0150 Uiso
H14_2 H 0.4(4) 0.65(4) 0.36(9) 0.0150 Uiso
O9 O 0.707(20) 0.791(3) 0.498(10) 0.0150 Uiso
O11 O 0.131(21) 0.794(5) 0.493(11) 0.0150 Uiso
O8 O 0.131(21) 0.706(5) 0.993(11) 0.0150 Uiso
Cu4 Cu 0.493(9) 0.6997(11) 0.914(4) 0.0040 Uiso
O7 O 0.707(20) 0.709(3) 0.998(10) 0.0150 Uiso
O1_2 O 0.302(31) 0.6809(24) 0.748(6) 0.0150 Uiso
O2_2 O 0.025(30) 0.699(4) 0.578(11) 0.0150 Uiso
N1_2 N 0.436(26) 0.7550(14) 0.836(11) 0.0150 Uiso
N2_2 N 0.21(6) 0.8268(22) 0.727(17) 0.0150 Uiso
N3_2 N 0.63(3) 0.6414(18) 0.916(11) 0.0150 Uiso
C1_2 C 0.88(7) 0.510(3) 0.963(21) 0.0150 Uiso
C2_2 C 0.205(17) 0.7055(18) 0.690(12) 0.0150 Uiso
C3_2 C 0.266(30) 0.7519(18) 0.731(11) 0.0150 Uiso
C4_2 C 0.48(3) 0.7935(28) 0.892(9) 0.0150 Uiso
C5_2 C 0.37(4) 0.8298(18) 0.832(15) 0.0150 Uiso
C6_2 C 0.16(5) 0.789(3) 0.674(14) 0.0150 Uiso
C8_2 C 0.73(4) 0.619(4) 0.818(10) 0.0150 Uiso
C11_2 C 0.81(5) 0.577(3) 0.834(9) 0.0150 Uiso
C12_2 C 0.80(7) 0.5577(30) 0.947(13) 0.0150 Uiso
H1_2 H 0.63(22) 0.79(3) 0.96(14) 0.0150 Uiso
H2_2 H 0.4(4) 0.85(4) 0.86(9) 0.0150 Uiso
H3_2 H 0.73(29) 0.49(4) 0.96(17) 0.0150 Uiso
H6_2 H 0.78(18) 0.63060 0.76(11) 0.0150 Uiso
H7_2 H 0.95(26) 0.56160 0.797(11) 0.0150 Uiso
C7_2 C 0.966(23) 0.7908(22) 0.557(6) 0.0150 Uiso
C24_2 C 0.966(23) 0.7092(22) 0.057(6) 0.0150 Uiso
C15_2 C 0.37(4) 0.378(3) 0.971(12) 0.0150 Uiso
C16_2 C 0.30(5) 0.420(4) 0.955(8) 0.0150 Uiso
H9_2 H 0.55(24) 0.371(22) 0.91(9) 0.0150 Uiso
H10_2 H 0.38(23) 0.440(25) 0.88(11) 0.0150 Uiso
C9_2 C 0.63(4) 0.622(3) 0.029(12) 0.0150 Uiso
C10_2 C 0.70(5) 0.580(4) 0.045(8) 0.0150 Uiso
H4_2 H 0.45(24) 0.629(22) 0.09(9) 0.0150 Uiso
H5_2 H 0.62(23) 0.560(25) 0.12(11) 0.0150 Uiso
loop_
_geom_bond_atom_site_label_1
_geom_bond_atom_site_label_2
_geom_bond_site_symmetry_1
_geom_bond_site_symmetry_2
Cu6 O3 1_555 1_555
Cu6 O4 1_555 1_555
Cu1 O1 1_555 1_555
O1 C2 1_555 1_555
O2 C2 1_555 1_555
N1 Cu1 1_555 1_555
N2 C5 1_555 1_555
N3 Cu1 1_555 1_555
C1 C12 1_555 1_555
C2 C3 1_555 1_555
C3 N1 1_555 1_555
C4 N1 1_555 1_555
C5 C4 1_555 1_555
C6 N2 1_555 1_555
C8 N3 1_555 1_555
C9 N3 1_555 1_555
C10 C9 1_555 1_555
C11 C8 1_555 1_555
C12 C10 1_555 1_555
H1 C4 1_555 1_555
H2 C5 1_555 1_555
H4 C9 1_555 1_555
H5 C10 1_555 1_555
H6 C8 1_555 1_555
H7 C11 1_555 1_555
O10 Cu1 1_555 1_555
O12 Cu1 1_555 1_555
C3 C6 1_555 1_555
C11 C12 1_555 1_555
O10 C24 1_555 1_555
N4 C14 1_555 1_555
C14 C17 1_555 1_555
C17 C18 1_555 1_555
C18 C13 1_555 1_555
H8 C13 1_555 1_555
H11 C14 1_555 1_555
H12 C17 1_555 1_555
Cu6 N4 1_555 1_555
O5 Cu6 1_555 1_555
O6 C19 1_555 1_555
N5 Cu6 1_555 1_555
N6 C22 1_555 1_555
C19 O5 1_555 1_555
C20 N5 1_555 1_555
C21 N5 1_555 1_555
C22 C21 1_555 1_555
C23 N6 1_555 1_555
H13 C21 1_555 1_555
H14 C22 1_555 1_555
C19 C20 1_555 1_555
C20 C23 1_555 1_555
N4_2 C14_2 1_555 1_555
C14_2 C17_2 1_555 1_555
C15 N4_2 1_555 1_555
C16 C15 1_555 1_555
C17_2 C18_2 1_555 1_555
C18_2 C13_2 1_555 1_555
H9 C15 1_555 1_555
H10 C16 1_555 1_555
H11_2 C14_2 1_555 1_555
H12_2 C17_2 1_555 1_555
Cu2 N4_2 1_555 1_555
O5_2 Cu2 1_555 1_555
O6_2 C19_2 1_555 1_555
N5_2 Cu2 1_555 1_555
N6_2 C22_2 1_555 1_555
C19_2 O5_2 1_555 1_555
C20_2 N5_2 1_555 1_555
C21_2 N5_2 1_555 1_555
C22_2 C21_2 1_555 1_555
C23_2 N6_2 1_555 1_555
H13_2 C21_2 1_555 1_555
H14_2 C22_2 1_555 1_555
O9 Cu2 1_555 1_555
O11 Cu2 1_555 1_555
C16 C18_2 1_555 1_555
C19_2 C20_2 1_555 1_555
C20_2 C23_2 1_555 1_555
Cu4 O8 1_555 1_555
Cu4 O7 1_555 1_555
Cu4 O1_2 1_555 1_555
O1_2 C2_2 1_555 1_555
O2_2 C2_2 1_555 1_555
N1_2 Cu4 1_555 1_555
N2_2 C5_2 1_555 1_555
N3_2 Cu4 1_555 1_555
C1_2 C12_2 1_555 1_555
C2_2 C3_2 1_555 1_555
C3_2 N1_2 1_555 1_555
C4_2 N1_2 1_555 1_555
C5_2 C4_2 1_555 1_555
C6_2 N2_2 1_555 1_555
C8_2 N3_2 1_555 1_555
C11_2 C8_2 1_555 1_555
H1_2 C4_2 1_555 1_555
H2_2 C5_2 1_555 1_555
H3_2 C1_2 1_555 1_555
H6_2 C8_2 1_555 1_555
H7_2 C11_2 1_555 1_555
C3_2 C6_2 1_555 1_555
C11_2 C12_2 1_555 1_555
O9 C7_2 1_555 1_555
C16_2 C15_2 1_555 1_555
H9_2 C15_2 1_555 1_555
H10_2 C16_2 1_555 1_555
C10_2 C9_2 1_555 1_555
H4_2 C9_2 1_555 1_555
H5_2 C10_2 1_555 1_555

#END
