
###############################################################################
#
# This file contains modified crystal structure data generated from the
# MOF subset of the Cambridge Structural Database (CSD) v543 
# hosted by the Cambridge Crystallographic Data Centre (CCDC).
#
# This work is licensed under the Creative Commons
# Attribution-NonCommercial-ShareAlike 4.0 International License.
# To view a copy of this license, visit
# http://creativecommons.org/licenses/by-nc-sa/4.0/
# or send a letter to
# Creative Commons, PO Box 1866, Mountain View, CA 94042, USA.
#
# CIF created using the CSD Python API on 29 September 2022
# The structure has been converted into the P1 space group
# The structure has a 3D framework
# The original CSD entry HUVKOB is in the monoclinic crystal system
# The framework has been calculated to contain at least 10.0% void space
# The void calculation uses a probe of radius 1.32A, grid spacing 0.4
#
###############################################################################

data_HUVKOB
_chemical_formula_moiety         '(C48 H28 Cu4 N12 O12)n'
_symmetry_cell_setting           triclinic
_symmetry_space_group_name_H-M   'P 1'
_symmetry_Int_Tables_number      1
_space_group_name_Hall           'P 1'
loop_
_symmetry_equiv_pos_site_id
_symmetry_equiv_pos_as_xyz
1 x,y,z
_cell_length_a                   4.7592(9)
_cell_length_b                   32.0854(3)
_cell_length_c                   11.0366(3)
_cell_angle_alpha                90
_cell_angle_beta                 96.18(7)
_cell_angle_gamma                90
_cell_volume                     1675.5
loop_
_atom_site_label
_atom_site_type_symbol
_atom_site_fract_x
_atom_site_fract_y
_atom_site_fract_z
_atom_site_U_iso_or_equiv
_atom_site_thermal_displace_type
Cu6 Cu 0.499(7) 0.3042(8) 0.0890(29) 0.0040 Uiso
O4 O 0.894(13) 0.303(4) 0.011(8) 0.0150 Uiso
Cu1 Cu 0.499(7) 0.1958(8) 0.5890(29) 0.0040 Uiso
O1 O 0.685(25) 0.1770(17) 0.756(5) 0.0150 Uiso
O2 O 0.981(20) 0.1997(30) 0.930(8) 0.0150 Uiso
N1 N 0.560(25) 0.2519(10) 0.666(8) 0.0150 Uiso
N2 N 0.78(4) 0.3257(18) 0.774(11) 0.0150 Uiso
N3 N 0.398(23) 0.1361(11) 0.575(7) 0.0150 Uiso
C1 C 0.12(5) 0.0066(31) 0.519(15) 0.0150 Uiso
C2 C 0.783(13) 0.2053(11) 0.823(8) 0.0150 Uiso
C3 C 0.733(25) 0.2507(12) 0.771(8) 0.0150 Uiso
C4 C 0.490(25) 0.2902(18) 0.613(6) 0.0150 Uiso
C5 C 0.60(4) 0.3267(11) 0.671(12) 0.0150 Uiso
C6 C 0.84(4) 0.2879(21) 0.825(11) 0.0150 Uiso
C8 C 0.251(30) 0.1162(24) 0.663(5) 0.0150 Uiso
C9 C 0.45(4) 0.1150(25) 0.469(8) 0.0150 Uiso
C10 C 0.35(4) 0.0740(27) 0.449(6) 0.0150 Uiso
C11 C 0.15(4) 0.0752(31) 0.643(6) 0.0150 Uiso
C12 C 0.20(4) 0.0541(19) 0.536(10) 0.0150 Uiso
H1 H 0.36870 0.29190 0.53900 0.0150 Uiso
H2 H 0.55110 0.35320 0.63590 0.0150 Uiso
H4 H 0.54790 0.12860 0.40910 0.0150 Uiso
H5 H 0.38370 0.05960 0.37620 0.0150 Uiso
H6 H 0.21750 0.13060 0.73560 0.0150 Uiso
H7 H 0.05320 0.06160 0.70270 0.0150 Uiso
O10 O 0.292(15) 0.217(3) 0.492(8) 0.0150 Uiso
O12 O 0.894(13) 0.197(4) 0.511(8) 0.0150 Uiso
C24 C 0.032(17) 0.2084(11) 0.443(5) 0.0150 Uiso
N4 N 0.398(23) 0.3639(11) 0.075(7) 0.0150 Uiso
C13 C 0.12(5) 0.4934(31) 0.019(15) 0.0150 Uiso
C14 C 0.251(30) 0.3838(24) 0.163(5) 0.0150 Uiso
C17 C 0.15(4) 0.4248(31) 0.143(6) 0.0150 Uiso
C18 C 0.20(4) 0.4459(19) 0.036(10) 0.0150 Uiso
H8 H 0.26670 0.51300 0.03940 0.0150 Uiso
H11 H 0.21750 0.36940 0.23560 0.0150 Uiso
H12 H 0.05320 0.43840 0.20270 0.0150 Uiso
O5 O 0.685(25) 0.3230(17) 0.256(5) 0.0150 Uiso
O6 O 0.981(20) 0.3003(30) 0.430(8) 0.0150 Uiso
N5 N 0.560(25) 0.2481(10) 0.166(8) 0.0150 Uiso
N6 N 0.78(4) 0.1743(18) 0.274(11) 0.0150 Uiso
C19 C 0.783(13) 0.2947(11) 0.323(8) 0.0150 Uiso
C20 C 0.733(25) 0.2493(12) 0.271(8) 0.0150 Uiso
C21 C 0.490(25) 0.2098(18) 0.113(6) 0.0150 Uiso
C22 C 0.60(4) 0.1733(11) 0.171(12) 0.0150 Uiso
C23 C 0.84(4) 0.2121(21) 0.325(11) 0.0150 Uiso
H13 H 0.36870 0.20810 0.03900 0.0150 Uiso
H14 H 0.55110 0.14680 0.13590 0.0150 Uiso
O3 O 0.292(15) 0.283(3) 0.992(8) 0.0150 Uiso
C7 C 0.032(17) 0.2916(11) 0.943(5) 0.0150 Uiso
C15 C 0.45(4) 0.3850(25) 0.969(8) 0.0150 Uiso
C16 C 0.35(4) 0.4260(27) 0.949(6) 0.0150 Uiso
H9 H 0.54790 0.37140 0.90910 0.0150 Uiso
H10 H 0.38370 0.44040 0.87620 0.0150 Uiso
H3 H 0.26670 0.98700 0.53940 0.0150 Uiso
H8_2 H 0.73330 0.01300 0.46060 0.0150 Uiso
N4_2 N 0.602(23) 0.8639(11) 0.425(7) 0.0150 Uiso
C13_2 C 0.88(5) 0.9934(31) 0.481(15) 0.0150 Uiso
C14_2 C 0.749(30) 0.8838(24) 0.337(5) 0.0150 Uiso
C15_2 C 0.55(4) 0.8850(25) 0.531(8) 0.0150 Uiso
C16_2 C 0.65(4) 0.9260(27) 0.551(6) 0.0150 Uiso
C17_2 C 0.85(4) 0.9248(31) 0.357(6) 0.0150 Uiso
C18_2 C 0.80(4) 0.9459(19) 0.464(10) 0.0150 Uiso
H9_2 H 0.45210 0.87140 0.59090 0.0150 Uiso
H10_2 H 0.61630 0.94040 0.62380 0.0150 Uiso
H11_2 H 0.78250 0.86940 0.26440 0.0150 Uiso
H12_2 H 0.94680 0.93840 0.29730 0.0150 Uiso
Cu2 Cu 0.501(7) 0.8042(8) 0.4110(29) 0.0040 Uiso
O5_2 O 0.315(25) 0.8230(17) 0.244(5) 0.0150 Uiso
O6_2 O 0.019(20) 0.8003(30) 0.070(8) 0.0150 Uiso
N5_2 N 0.440(25) 0.7481(10) 0.334(8) 0.0150 Uiso
N6_2 N 0.22(4) 0.6743(18) 0.226(11) 0.0150 Uiso
C19_2 C 0.217(13) 0.7947(11) 0.177(8) 0.0150 Uiso
C20_2 C 0.267(25) 0.7493(12) 0.229(8) 0.0150 Uiso
C21_2 C 0.510(25) 0.7098(18) 0.387(6) 0.0150 Uiso
C22_2 C 0.40(4) 0.6733(11) 0.329(12) 0.0150 Uiso
C23_2 C 0.16(4) 0.7121(21) 0.175(11) 0.0150 Uiso
H13_2 H 0.63130 0.70810 0.46100 0.0150 Uiso
H14_2 H 0.44890 0.64680 0.36410 0.0150 Uiso
O9 O 0.708(15) 0.783(3) 0.508(8) 0.0150 Uiso
O11 O 0.106(13) 0.803(4) 0.489(8) 0.0150 Uiso
O8 O 0.106(13) 0.697(4) 0.989(8) 0.0150 Uiso
Cu4 Cu 0.501(7) 0.6958(8) 0.9110(29) 0.0040 Uiso
O1_2 O 0.315(25) 0.6770(17) 0.744(5) 0.0150 Uiso
O2_2 O 0.019(20) 0.6997(30) 0.570(8) 0.0150 Uiso
N1_2 N 0.440(25) 0.7519(10) 0.834(8) 0.0150 Uiso
N2_2 N 0.22(4) 0.8257(18) 0.726(11) 0.0150 Uiso
N3_2 N 0.602(23) 0.6361(11) 0.925(7) 0.0150 Uiso
C1_2 C 0.88(5) 0.5066(31) 0.981(15) 0.0150 Uiso
C2_2 C 0.217(13) 0.7053(11) 0.677(8) 0.0150 Uiso
C3_2 C 0.267(25) 0.7507(12) 0.729(8) 0.0150 Uiso
C4_2 C 0.510(25) 0.7902(18) 0.887(6) 0.0150 Uiso
C5_2 C 0.40(4) 0.8267(11) 0.829(12) 0.0150 Uiso
C6_2 C 0.16(4) 0.7879(21) 0.675(11) 0.0150 Uiso
C8_2 C 0.749(30) 0.6162(24) 0.837(5) 0.0150 Uiso
C11_2 C 0.85(4) 0.5752(31) 0.857(6) 0.0150 Uiso
C12_2 C 0.80(4) 0.5541(19) 0.964(10) 0.0150 Uiso
H1_2 H 0.63130 0.79190 0.96100 0.0150 Uiso
H2_2 H 0.44890 0.85320 0.86410 0.0150 Uiso
H3_2 H 0.73330 0.48700 0.96060 0.0150 Uiso
H6_2 H 0.78250 0.63060 0.76440 0.0150 Uiso
H7_2 H 0.94680 0.56160 0.79730 0.0150 Uiso
C7_2 C 0.968(17) 0.7916(11) 0.557(5) 0.0150 Uiso
O7 O 0.708(15) 0.717(3) 0.008(8) 0.0150 Uiso
C24_2 C 0.968(17) 0.7084(11) 0.057(5) 0.0150 Uiso
C9_2 C 0.55(4) 0.6150(25) 0.031(8) 0.0150 Uiso
C10_2 C 0.65(4) 0.5740(27) 0.051(6) 0.0150 Uiso
H4_2 H 0.45210 0.62860 0.09090 0.0150 Uiso
H5_2 H 0.61630 0.55960 0.12380 0.0150 Uiso
loop_
_geom_bond_atom_site_label_1
_geom_bond_atom_site_label_2
_geom_bond_site_symmetry_1
_geom_bond_site_symmetry_2
Cu6 O4 1_555 1_555
Cu1 O1 1_555 1_555
O1 C2 1_555 1_555
O2 C2 1_555 1_555
N1 Cu1 1_555 1_555
N2 C5 1_555 1_555
N3 Cu1 1_555 1_555
C1 C12 1_555 1_555
C2 C3 1_555 1_555
C3 N1 1_555 1_555
C4 N1 1_555 1_555
C5 C4 1_555 1_555
C6 N2 1_555 1_555
C8 N3 1_555 1_555
C9 N3 1_555 1_555
C10 C9 1_555 1_555
C11 C8 1_555 1_555
C12 C10 1_555 1_555
H1 C4 1_555 1_555
H2 C5 1_555 1_555
H4 C9 1_555 1_555
H5 C10 1_555 1_555
H6 C8 1_555 1_555
H7 C11 1_555 1_555
O10 Cu1 1_555 1_555
O12 Cu1 1_555 1_555
C3 C6 1_555 1_555
C11 C12 1_555 1_555
O10 C24 1_555 1_555
N4 C14 1_555 1_555
C14 C17 1_555 1_555
C17 C18 1_555 1_555
C18 C13 1_555 1_555
H8 C13 1_555 1_555
H11 C14 1_555 1_555
H12 C17 1_555 1_555
Cu6 N4 1_555 1_555
O5 Cu6 1_555 1_555
O6 C19 1_555 1_555
N5 Cu6 1_555 1_555
N6 C22 1_555 1_555
C19 O5 1_555 1_555
C20 N5 1_555 1_555
C21 N5 1_555 1_555
C22 C21 1_555 1_555
C23 N6 1_555 1_555
H13 C21 1_555 1_555
H14 C22 1_555 1_555
C19 C20 1_555 1_555
C20 C23 1_555 1_555
O3 C7 1_555 1_555
C16 C15 1_555 1_555
H9 C15 1_555 1_555
H10 C16 1_555 1_555
N4_2 C14_2 1_555 1_555
C14_2 C17_2 1_555 1_555
C15_2 N4_2 1_555 1_555
C16_2 C15_2 1_555 1_555
C17_2 C18_2 1_555 1_555
C18_2 C13_2 1_555 1_555
H9_2 C15_2 1_555 1_555
H10_2 C16_2 1_555 1_555
H11_2 C14_2 1_555 1_555
H12_2 C17_2 1_555 1_555
Cu2 N4_2 1_555 1_555
O5_2 Cu2 1_555 1_555
O6_2 C19_2 1_555 1_555
N5_2 Cu2 1_555 1_555
N6_2 C22_2 1_555 1_555
C19_2 O5_2 1_555 1_555
C20_2 N5_2 1_555 1_555
C21_2 N5_2 1_555 1_555
C22_2 C21_2 1_555 1_555
C23_2 N6_2 1_555 1_555
H13_2 C21_2 1_555 1_555
H14_2 C22_2 1_555 1_555
O9 Cu2 1_555 1_555
O11 Cu2 1_555 1_555
C16_2 C18_2 1_555 1_555
C19_2 C20_2 1_555 1_555
C20_2 C23_2 1_555 1_555
Cu4 O8 1_555 1_555
Cu4 O1_2 1_555 1_555
O1_2 C2_2 1_555 1_555
O2_2 C2_2 1_555 1_555
N1_2 Cu4 1_555 1_555
N2_2 C5_2 1_555 1_555
N3_2 Cu4 1_555 1_555
C1_2 C12_2 1_555 1_555
C2_2 C3_2 1_555 1_555
C3_2 N1_2 1_555 1_555
C4_2 N1_2 1_555 1_555
C5_2 C4_2 1_555 1_555
C6_2 N2_2 1_555 1_555
C8_2 N3_2 1_555 1_555
C11_2 C8_2 1_555 1_555
H1_2 C4_2 1_555 1_555
H2_2 C5_2 1_555 1_555
H3_2 C1_2 1_555 1_555
H6_2 C8_2 1_555 1_555
H7_2 C11_2 1_555 1_555
C3_2 C6_2 1_555 1_555
C11_2 C12_2 1_555 1_555
O9 C7_2 1_555 1_555
O7 C24_2 1_555 1_555
C10_2 C9_2 1_555 1_555
H4_2 C9_2 1_555 1_555
H5_2 C10_2 1_555 1_555

#END
