
###############################################################################
#
# This file contains modified crystal structure data generated from the
# MOF subset of the Cambridge Structural Database (CSD) v543 
# hosted by the Cambridge Crystallographic Data Centre (CCDC).
#
# This work is licensed under the Creative Commons
# Attribution-NonCommercial-ShareAlike 4.0 International License.
# To view a copy of this license, visit
# http://creativecommons.org/licenses/by-nc-sa/4.0/
# or send a letter to
# Creative Commons, PO Box 1866, Mountain View, CA 94042, USA.
#
# CIF created using the CSD Python API on 29 September 2022
# The structure has been converted into the P1 space group
# The structure has a 3D framework
# The original CSD entry HUWHOY is in the monoclinic crystal system
# The original CSD entry HUWHOY is in a Sohncke space group
# The framework has been calculated to contain at least 10.0% void space
# The void calculation uses a probe of radius 1.32A, grid spacing 0.4
# H atom positions have been added when not included in the experimental data
#
###############################################################################

data_HUWHOY
_chemical_formula_moiety         '(C128 H100 Cd6 N20 O28)n'
_symmetry_cell_setting           triclinic
_symmetry_space_group_name_H-M   'P 1'
_symmetry_Int_Tables_number      1
_space_group_name_Hall           'P 1'
loop_
_symmetry_equiv_pos_site_id
_symmetry_equiv_pos_as_xyz
1 x,y,z
_cell_length_a                   15.0810(5)
_cell_length_b                   14.5380(4)
_cell_length_c                   17.9350(5)
_cell_angle_alpha                90
_cell_angle_beta                 95.951(3)
_cell_angle_gamma                90
_cell_volume                     3911.01
loop_
_atom_site_label
_atom_site_type_symbol
_atom_site_fract_x
_atom_site_fract_y
_atom_site_fract_z
O11 O 0.1427(5) 0.0083(9) 0.7585(5)
O12 O 0.0091(6) 0.0632(6) 0.7320(5)
C36 C 0.0699(7) 0.0069(9) 0.7217(6)
H40 H 0.1145 0.0294 0.5893
Cd8 Cd 0.09343(5) 0.13285(6) 0.83500(4)
Cd2 Cd 0.46582(4) 0.10405(4) 0.47998(3)
C1 C 0.6935(6) 0.0339(6) 0.5961(5)
O4 O 0.7227(5) 0.1944(5) 0.6066(4)
C3 C 0.2436(6) 0.0649(7) 0.3667(4)
H2 H 0.2867 0.1130 0.3576
O5 O 0.5930(4) 0.1520(4) 0.5465(3)
N4 N 0.5441(5) 0.0662(6) 0.3835(4)
C10 C 0.6688(6) 0.1337(6) 0.5821(5)
N7 N 0.1865(4) 0.0450(5) 0.2977(4)
C12 C 0.1796(6) 0.0999(7) 0.4190(5)
H7 H 0.2049 0.1521 0.4475
H8 H 0.1657 0.0521 0.4536
C20 C 0.5054(5) 0.0619(6) 0.3157(4)
H13 H 0.4440 0.0621 0.3030
C26 C 0.6316(7) 0.0681(8) 0.3774(4)
H17 H 0.6745 0.0734 0.4183
O10 O 0.3069(4) 0.0135(6) 0.2370(4)
N8 N 0.5665(5) 0.0571(5) 0.2657(4)
C29 C 0.6513(6) 0.0614(8) 0.3059(6)
H19 H 0.7069 0.0600 0.2878
C31 C 0.2245(6) 0.0139(7) 0.2368(5)
C33 C 0.0946(6) 0.0580(8) 0.3079(6)
H20 H 0.0683 0.0010 0.3232
H21 H 0.0615 0.0791 0.2618
C39 C 0.7794(7) 0.0117(7) 0.6243(5)
H26 H 0.8206 0.0578 0.6381
C44 C 0.5479(6) 0.0519(6) 0.1863(5)
C45 C 0.5071(7) 0.0477(7) 0.0310(5)
C47 C 0.1709(6) 0.0208(7) 0.1018(5)
H30 H 0.2118 0.0674 0.0955
C51 C 0.4648(8) 0.0890(15) 0.1534(6)
H33 H 0.4245 0.1177 0.1817
C52 C 0.6060(8) 0.0213(14) 0.1413(6)
H34 H 0.6618 0.0018 0.1624
C53 C 0.0940(7) 0.1293(8) 0.3680(6)
H35 H 0.0410 0.1252 0.3941
H36 H 0.0992 0.1910 0.3483
C55 C 0.5861(9) 0.0174(15) 0.0632(6)
C58 C 0.4489(7) 0.0793(14) 0.0770(6)
H41 H 0.3927 0.0962 0.0550
H44 H 0.9446 0.0344 0.5497
Cd5 Cd 0.62162(4) 0.31752(4) 0.55369(3)
O16 O 0.3787(5) 0.2171(4) 0.4390(4)
N12 N 0.4180(5) 0.0743(5) 0.5928(4)
N6 N 0.4105(5) 0.0593(5) 0.7147(4)
O8 O 0.1755(4) 0.0857(5) 0.9522(4)
C16 C 0.3692(7) 0.0609(8) 0.8420(5)
H10 H 0.3095 0.0671 0.8238
C17 C 0.4614(6) 0.0802(6) 0.6593(5)
H11 H 0.5211 0.0970 0.6677
O9 O 0.0412(6) 0.0247(6) 0.9199(4)
C19 C 0.3253(6) 0.0374(7) 0.6788(5)
H12 H 0.2746 0.0200 0.7008
C21 C 0.4822(7) 0.0496(7) 0.9478(5)
C22 C 0.3942(6) 0.0571(8) 0.9175(5)
H14 H 0.3501 0.0596 0.9499
C25 C 0.5461(6) 0.0414(8) 0.8972(5)
H16 H 0.6055 0.0341 0.9159
C27 C 0.5250(6) 0.0436(7) 0.8219(5)
H18 H 0.5695 0.0374 0.7901
C30 C 0.1114(8) 0.0390(8) 0.9634(6)
C37 C 0.3343(7) 0.0476(7) 0.6057(5)
H24 H 0.2884 0.0374 0.5679
C43 C 0.4358(6) 0.0553(6) 0.7918(5)
O15 O 0.1918(8) 0.2099(10) 0.7771(7)
O22 O 0.0577(10) 0.2625(11) 0.9185(8)
H49 H 0.24272 0.169064 0.769042
H50 H 0.16338 0.232003 0.727937
N1 N 0.4544(5) 0.8200(6) 0.3450(3)
N5 N 0.4704(6) 0.8178(6) 0.2237(4)
C8 C 0.4127(7) 0.8175(8) 0.2752(5)
H5 H 0.3511 0.8159 0.2641
C9 C 0.5466(6) 0.8230(7) 0.3413(6)
H6 H 0.5915 0.8274 0.3808
C23 C 0.5062(7) 0.7838(8) 0.0993(5)
H15 H 0.5602 0.7591 0.1199
C42 C 0.5556(7) 0.8179(9) 0.2644(5)
H29 H 0.6094 0.8149 0.2434
C46 C 0.4492(7) 0.8198(9) 0.1448(4)
C48 C 0.4853(9) 0.7834(8) 0.0228(5)
C61 C 0.3708(10) 0.8606(12) 0.1145(8)
H43 H 0.3335 0.8900 0.1451
C64 C 0.3486(9) 0.8569(11) 0.0365(7)
H48 H 0.2969 0.8853 0.0151
Cd4 Cd 0.37838(4) 0.81752(4) 0.44631(3)
O1 O 0.5188(4) 0.8231(5) 0.5251(3)
O2 O 0.3677(4) 0.9892(4) 0.4378(3)
C2 C 0.6347(6) 0.9639(5) 0.5713(4)
H1 H 0.5794 0.9797 0.5468
N2 N 0.3176(5) 0.8045(7) 0.5547(3)
O3 O 0.6213(5) 0.7171(4) 0.5610(4)
C4 C 0.3559(5) 0.8191(6) 0.6176(4)
H3 H 0.4124 0.8451 0.6256
C5 C 0.8036(6) 0.9204(7) 0.6317(5)
C6 C 0.5925(6) 0.7995(5) 0.5531(4)
O6 O 0.2600(4) 0.9020(4) 0.3839(4)
C7 C 0.7453(6) 0.8509(7) 0.6145(5)
H4 H 0.7622 0.7901 0.6236
O7 O 0.9134(5) 0.8569(6) 0.7257(5)
C11 C 0.8975(7) 0.8992(7) 0.6653(6)
C13 C 0.4028(8) 0.8117(9) 0.9918(6)
C14 C 0.4421(9) 0.8101(10) 0.8577(6)
H9 H 0.5023 0.8154 0.8744
C15 C 0.3313(7) 0.8004(9) 0.7537(6)
C18 C 0.0579(6) 0.8714(8) 0.1203(5)
C24 C 0.1664(7) 0.9810(7) 0.1721(5)
N9 N 0.3065(6) 0.7928(7) 0.6756(4)
C28 C 0.2927(5) 0.9782(6) 0.3977(5)
N10 N 0.9604(6) 0.9337(8) 0.6243(5)
C32 C 0.3786(8) 0.8112(11) 0.9094(5)
C35 C 0.4160(10) 0.8011(9) 0.7827(5)
H23 H 0.4599 0.7951 0.7503
C38 C 0.0571(7) 0.9181(10) 0.0505(5)
H25 H 0.0171 0.8990 0.0105
C40 C 0.2354(7) 0.7601(11) 0.5621(6)
H27 H 0.1955 0.7367 0.5238
C41 C 0.1085(7) 0.9076(7) 0.1813(6)
H28 H 0.1043 0.8834 0.2288
H31 H 0.5273 0.7637 0.9919
C49 C 0.2914(8) 0.8174(15) 0.8792(6)
H32 H 0.2472 0.8280 0.9106
C50 C 0.6550(7) 0.8733(6) 0.5814(5)
O13 O 0.0077(8) 0.7456(8) 0.1896(7)
C54 C 0.2681(10) 0.8083(13) 0.8029(6)
H37 H 0.2081 0.8074 0.7846
H38 H 0.6278 0.9937 0.0336
C56 C 0.1126(6) 0.9894(8) 0.0403(5)
C59 C 0.0013(8) 0.7915(10) 0.1314(6)
C60 C 0.2269(8) 0.7587(12) 0.6398(6)
H42 H 0.1776 0.7389 0.6626
C62 C 0.9494(9) 0.9679(18) 0.5509(8)
H45 H 0.8982 0.9410 0.5217
Cd7 Cd 0.53418(4) 0.60405(4) 0.52002(3)
O17 O 0.2773(5) 0.6944(5) 0.3934(4)
O18 O 0.4070(4) 0.6520(4) 0.4535(3)
O21 O 0.9923(8) 0.2456(8) 0.8104(7)
O14 O 0.9423(10) 0.7625(11) 0.0815(8)
Cd9 Cd 0.90657(5) 0.63285(6) 0.16500(4)
N3 N 0.5820(5) 0.5743(5) 0.4072(4)
N6_2 N 0.5895(5) 0.5593(5) 0.2853(4)
O8_2 O 0.8245(4) 0.5857(5) 0.0478(4)
C16_2 C 0.6308(7) 0.5609(8) 0.1580(5)
H10_2 H 0.6905 0.5671 0.1762
C17_2 C 0.5386(6) 0.5802(6) 0.3407(5)
H11_2 H 0.4789 0.5970 0.3323
O9_2 O 0.9588(6) 0.5247(6) 0.0801(4)
C19_2 C 0.6747(6) 0.5374(7) 0.3212(5)
H12_2 H 0.7254 0.5200 0.2992
C21_2 C 0.5178(7) 0.5496(7) 0.0522(5)
C22_2 C 0.6058(6) 0.5571(8) 0.0825(5)
H14_2 H 0.6499 0.5596 0.0501
C25_2 C 0.4539(6) 0.5414(8) 0.1028(5)
H16_2 H 0.3945 0.5341 0.0841
C27_2 C 0.4750(6) 0.5436(7) 0.1781(5)
H18_2 H 0.4305 0.5374 0.2099
C30_2 C 0.8886(8) 0.5390(8) 0.0366(6)
C37_2 C 0.6657(7) 0.5476(7) 0.3943(5)
H24_2 H 0.7116 0.5374 0.4321
C43_2 C 0.5642(6) 0.5553(6) 0.2082(5)
O15_2 O 0.8082(8) 0.7099(10) 0.2229(7)
O19 O 0.8573(5) 0.5083(9) 0.2415(5)
O20 O 0.9909(6) 0.5632(6) 0.2680(5)
H49_2 H 0.75728 0.669064 0.230958
H50_2 H 0.83662 0.732003 0.272063
O1_2 O 0.4812(4) 0.3231(5) 0.4749(3)
C1_2 C 0.3065(6) 0.5339(6) 0.4039(5)
O2_2 O 0.6323(4) 0.4892(4) 0.5622(3)
C2_2 C 0.3653(6) 0.4639(5) 0.4287(4)
H1_2 H 0.4206 0.4797 0.4532
N2_2 N 0.6824(5) 0.3045(7) 0.4453(3)
C3_2 C 0.7564(6) 0.5649(7) 0.6333(4)
H2_2 H 0.7133 0.6130 0.6424
C4_2 C 0.6441(5) 0.3191(6) 0.3824(4)
H3_2 H 0.5876 0.3451 0.3744
C5_2 C 0.1964(6) 0.4204(7) 0.3683(5)
C6_2 C 0.4075(6) 0.2995(5) 0.4469(4)
O6_2 O 0.7400(4) 0.4020(4) 0.6161(4)
C7_2 C 0.2547(6) 0.3509(7) 0.3855(5)
H4_2 H 0.2378 0.2901 0.3764
N4_2 N 0.4559(5) 0.5662(6) 0.6165(4)
O7_2 O 0.0866(5) 0.3569(6) 0.2743(5)
C10_2 C 0.3312(6) 0.6337(6) 0.4179(5)
N7_2 N 0.8135(4) 0.5450(5) 0.7023(4)
C11_2 C 0.1025(7) 0.3992(7) 0.3347(6)
C12_2 C 0.8204(6) 0.5999(7) 0.5810(5)
H7_2 H 0.7951 0.6521 0.5525
H8_2 H 0.8343 0.5521 0.5464
C13_2 C 0.5972(8) 0.3117(9) 0.0082(6)
C14_2 C 0.5579(9) 0.3101(10) 0.1423(6)
H9_2 H 0.4977 0.3154 0.1256
C15_2 C 0.6687(7) 0.3004(9) 0.2463(6)
C18_2 C 0.9421(6) 0.3714(8) 0.8797(5)
C20_2 C 0.4946(5) 0.5619(6) 0.6843(4)
H13_2 H 0.5560 0.5621 0.6970
C24_2 C 0.8336(7) 0.4810(7) 0.8279(5)
C26_2 C 0.3684(7) 0.5681(8) 0.6226(4)
H17_2 H 0.3255 0.5734 0.5817
O10_2 O 0.6931(4) 0.5135(6) 0.7630(4)
N8_2 N 0.4335(5) 0.5571(5) 0.7343(4)
N9_2 N 0.6935(6) 0.2928(7) 0.3244(4)
C28_2 C 0.7073(5) 0.4782(6) 0.6023(5)
C29_2 C 0.3487(6) 0.5614(8) 0.6941(6)
H19_2 H 0.2931 0.5600 0.7122
C31_2 C 0.7755(6) 0.5139(7) 0.7632(5)
N10_2 N 0.0396(6) 0.4337(8) 0.3757(5)
C32_2 C 0.6214(8) 0.3112(11) 0.0906(5)
C33_2 C 0.9054(6) 0.5580(8) 0.6921(6)
H20_2 H 0.9317 0.5010 0.6768
H21_2 H 0.9385 0.5791 0.7382
C35_2 C 0.5840(10) 0.3011(9) 0.2173(5)
H23_2 H 0.5401 0.2951 0.2497
C38_2 C 0.9429(7) 0.4181(10) 0.9495(5)
H25_2 H 0.9829 0.3990 0.9895
C39_2 C 0.2206(7) 0.5117(7) 0.3757(5)
H26_2 H 0.1794 0.5578 0.3619
C40_2 C 0.7646(7) 0.2601(11) 0.4379(6)
H27_2 H 0.8045 0.2367 0.4762
C41_2 C 0.8915(7) 0.4076(7) 0.8187(6)
H28_2 H 0.8957 0.3834 0.7712
C44_2 C 0.4521(6) 0.5519(6) 0.8137(5)
C45_2 C 0.4929(7) 0.5477(7) 0.9690(5)
C47_2 C 0.8291(6) 0.5208(7) 0.8982(5)
H30_2 H 0.7882 0.5674 0.9045
H31_2 H 0.4727 0.2637 0.0081
C49_2 C 0.7086(8) 0.3174(15) 0.1208(6)
H32_2 H 0.7528 0.3280 0.0894
C50_2 C 0.3450(7) 0.3733(6) 0.4186(5)
C51_2 C 0.5352(8) 0.5890(15) 0.8466(6)
H33_2 H 0.5755 0.6177 0.8183
C52_2 C 0.3940(8) 0.5213(14) 0.8587(6)
H34_2 H 0.3382 0.5018 0.8376
C53_2 C 0.9060(7) 0.6293(8) 0.6320(6)
H35_2 H 0.9590 0.6252 0.6059
H36_2 H 0.9008 0.6910 0.6517
C54_2 C 0.7319(10) 0.3083(13) 0.1971(6)
H37_2 H 0.7919 0.3074 0.2154
C55_2 C 0.4139(9) 0.5174(15) 0.9368(6)
H38_2 H 0.3722 0.4937 0.9664
C56_2 C 0.8874(6) 0.4894(8) 0.9597(5)
C58_2 C 0.5511(7) 0.5793(14) 0.9230(6)
H41_2 H 0.6073 0.5962 0.9450
C59_2 C 0.9987(8) 0.2915(10) 0.8686(6)
C60_2 C 0.7731(8) 0.2587(12) 0.3602(6)
H42_2 H 0.8224 0.2389 0.3374
C62_2 C 0.0506(9) 0.4679(18) 0.4491(8)
H44_2 H 0.0554 0.5344 0.4503
H45_2 H 0.1018 0.4410 0.4783
N11 N 0.5456(5) 0.3200(6) 0.6550(3)
N5_2 N 0.5296(6) 0.3178(6) 0.7763(4)
C8_2 C 0.5873(7) 0.3175(8) 0.7248(5)
H5_2 H 0.6489 0.3159 0.7359
C9_2 C 0.4534(6) 0.3230(7) 0.6587(6)
H6_2 H 0.4085 0.3274 0.6192
C23_2 C 0.4938(7) 0.2838(8) 0.9007(5)
H15_2 H 0.4398 0.2591 0.8801
C42_2 C 0.4444(7) 0.3179(9) 0.7356(5)
H29_2 H 0.3906 0.3149 0.7566
C46_2 C 0.5508(7) 0.3198(9) 0.8552(4)
C48_2 C 0.5147(9) 0.2834(8) 0.9772(5)
C61_2 C 0.6292(10) 0.3606(12) 0.8855(8)
H43_2 H 0.6665 0.3900 0.8549
C64_2 C 0.6514(9) 0.3569(11) 0.9635(7)
H48_2 H 0.7031 0.3853 0.9849
C34 C 0.9413(8) 0.4393(10) 0.3444(7)
H22 H 0.9215 0.3782 0.3265
C36_2 C 0.9301(7) 0.5069(9) 0.2783(6)
C57 C 0.8948(10) 0.4635(13) 0.4088(8)
H39 H 0.8373 0.4331 0.4060
H40_2 H 0.8855 0.5294 0.4107
C63 C 0.9540(11) 0.4315(14) 0.4779(11)
H46 H 0.9525 0.3653 0.4845
H47 H 0.9401 0.4621 0.5233
C34_2 C 0.0587(8) 0.9393(10) 0.6556(7)
H22_2 H 0.0785 0.8782 0.6735
C57_2 C 0.1052(10) 0.9635(13) 0.5912(8)
H39_2 H 0.1627 0.9331 0.5940
C63_2 C 0.0460(11) 0.9315(14) 0.5221(11)
H46_2 H 0.0475 0.8653 0.5155
H47_2 H 0.0599 0.9621 0.4767
loop_
_geom_bond_atom_site_label_1
_geom_bond_atom_site_label_2
_geom_bond_site_symmetry_1
_geom_bond_site_symmetry_2
O11 C36 1_555 1_555
O12 C36 1_555 1_555
Cd8 O11 1_555 1_555
O12 Cd8 1_555 1_555
O4 C10 1_555 1_555
C3 H2 1_555 1_555
O5 Cd2 1_555 1_555
N4 Cd2 1_555 1_555
C10 C1 1_555 1_555
N7 C3 1_555 1_555
C12 C3 1_555 1_555
H7 C12 1_555 1_555
H8 C12 1_555 1_555
C20 N4 1_555 1_555
H13 C20 1_555 1_555
C26 N4 1_555 1_555
H17 C26 1_555 1_555
O10 C31 1_555 1_555
N8 C20 1_555 1_555
C29 C26 1_555 1_555
H19 C29 1_555 1_555
C31 N7 1_555 1_555
C33 N7 1_555 1_555
H20 C33 1_555 1_555
H21 C33 1_555 1_555
C39 C1 1_555 1_555
H26 C39 1_555 1_555
C44 N8 1_555 1_555
H30 C47 1_555 1_555
C51 C44 1_555 1_555
H33 C51 1_555 1_555
C52 C44 1_555 1_555
H34 C52 1_555 1_555
C53 C12 1_555 1_555
H35 C53 1_555 1_555
H36 C53 1_555 1_555
C55 C45 1_555 1_555
C58 C45 1_555 1_555
H41 C58 1_555 1_555
Cd5 O4 1_555 1_555
O16 Cd2 1_555 1_555
N12 Cd2 1_555 1_555
O5 C10 1_555 1_555
O5 Cd5 1_555 1_555
N8 C29 1_555 1_555
C33 C53 1_555 1_555
C51 C58 1_555 1_555
C52 C55 1_555 1_555
Cd8 O8 1_555 1_555
N12 C17 1_555 1_555
N6 C17 1_555 1_555
O8 C30 1_555 1_555
C16 H10 1_555 1_555
C17 H11 1_555 1_555
O9 Cd8 1_555 1_555
C19 N6 1_555 1_555
H12 C19 1_555 1_555
C21 C22 1_555 1_555
C22 C16 1_555 1_555
H14 C22 1_555 1_555
C25 C21 1_555 1_555
H16 C25 1_555 1_555
C27 C25 1_555 1_555
H18 C27 1_555 1_555
C30 O9 1_555 1_555
C37 N12 1_555 1_555
H24 C37 1_555 1_555
C43 N6 1_555 1_555
O15 Cd8 1_555 1_555
O22 Cd8 1_555 1_555
C16 C43 1_555 1_555
C19 C37 1_555 1_555
C27 C43 1_555 1_555
O15 H49 1_555 1_555
O15 H50 1_555 1_555
N1 C8 1_555 1_555
N5 C8 1_555 1_555
C8 H5 1_555 1_555
C9 N1 1_555 1_555
H6 C9 1_555 1_555
C23 H15 1_555 1_555
C42 N5 1_555 1_555
H29 C42 1_555 1_555
C46 N5 1_555 1_555
C61 C46 1_555 1_555
H43 C61 1_555 1_555
H48 C64 1_555 1_555
Cd4 N1 1_555 1_555
C9 C42 1_555 1_555
C23 C46 1_555 1_555
C23 C48 1_555 1_555
C61 C64 1_555 1_555
Cd4 O1 1_555 1_555
O1 C6 1_555 1_555
O2 Cd4 1_555 1_555
C2 H1 1_555 1_555
N2 Cd4 1_555 1_555
O3 C6 1_555 1_555
C4 N2 1_555 1_555
H3 C4 1_555 1_555
C5 C7 1_555 1_555
C6 C50 1_555 1_555
O6 Cd4 1_555 1_555
C7 H4 1_555 1_555
O7 C11 1_555 1_555
C11 C5 1_555 1_555
C13 C32 1_555 1_555
C14 H9 1_555 1_555
C15 N9 1_555 1_555
C18 C38 1_555 1_555
N9 C4 1_555 1_555
C28 O2 1_555 1_555
N10 C11 1_555 1_555
C32 C14 1_555 1_555
C35 C14 1_555 1_555
H23 C35 1_555 1_555
C38 H25 1_555 1_555
C40 N2 1_555 1_555
H27 C40 1_555 1_555
C41 C18 1_555 1_555
H28 C41 1_555 1_555
C49 C32 1_555 1_555
H32 C49 1_555 1_555
C50 C2 1_555 1_555
O13 C59 1_555 1_555
C54 C15 1_555 1_555
H37 C54 1_555 1_555
C59 C18 1_555 1_555
C60 N9 1_555 1_555
H42 C60 1_555 1_555
C62 N10 1_555 1_555
H45 C62 1_555 1_555
Cd7 O3 1_555 1_555
O17 Cd4 1_555 1_555
O18 Cd4 1_555 1_555
O6 C28 1_555 1_555
C7 C50 1_555 1_555
C15 C35 1_555 1_555
C24 C41 1_555 1_555
C38 C56 1_555 1_555
C40 C60 1_555 1_555
C49 C54 1_555 1_555
Cd7 O18 1_555 1_555
O14 Cd9 1_555 1_555
Cd9 O8_2 1_555 1_555
N3 C17_2 1_555 1_555
N6_2 C17_2 1_555 1_555
O8_2 C30_2 1_555 1_555
C16_2 H10_2 1_555 1_555
C17_2 H11_2 1_555 1_555
O9_2 Cd9 1_555 1_555
C19_2 N6_2 1_555 1_555
H12_2 C19_2 1_555 1_555
C21_2 C22_2 1_555 1_555
C22_2 C16_2 1_555 1_555
H14_2 C22_2 1_555 1_555
C25_2 C21_2 1_555 1_555
H16_2 C25_2 1_555 1_555
C27_2 C25_2 1_555 1_555
H18_2 C27_2 1_555 1_555
C30_2 O9_2 1_555 1_555
C37_2 N3 1_555 1_555
H24_2 C37_2 1_555 1_555
C43_2 N6_2 1_555 1_555
O15_2 Cd9 1_555 1_555
Cd7 N3 1_555 1_555
O19 Cd9 1_555 1_555
O20 Cd9 1_555 1_555
C16_2 C43_2 1_555 1_555
C19_2 C37_2 1_555 1_555
C27_2 C43_2 1_555 1_555
O15_2 H49_2 1_555 1_555
O15_2 H50_2 1_555 1_555
Cd5 O1_2 1_555 1_555
Cd7 O2_2 1_555 1_555
O1_2 C6_2 1_555 1_555
C1_2 C2_2 1_555 1_555
O2_2 Cd5 1_555 1_555
C2_2 H1_2 1_555 1_555
N2_2 Cd5 1_555 1_555
O16 C6_2 1_555 1_555
O17 C10_2 1_555 1_555
C3_2 H2_2 1_555 1_555
C4_2 N2_2 1_555 1_555
H3_2 C4_2 1_555 1_555
C5_2 C7_2 1_555 1_555
C6_2 C50_2 1_555 1_555
O6_2 Cd5 1_555 1_555
C7_2 H4_2 1_555 1_555
N4_2 Cd7 1_555 1_555
O7_2 C11_2 1_555 1_555
C10_2 C1_2 1_555 1_555
N7_2 C3_2 1_555 1_555
C11_2 C5_2 1_555 1_555
C12_2 C3_2 1_555 1_555
H7_2 C12_2 1_555 1_555
H8_2 C12_2 1_555 1_555
C13_2 C32_2 1_555 1_555
C14_2 H9_2 1_555 1_555
C15_2 N9_2 1_555 1_555
C18_2 C38_2 1_555 1_555
C20_2 N4_2 1_555 1_555
H13_2 C20_2 1_555 1_555
C24_2 C31_2 1_555 1_555
C26_2 N4_2 1_555 1_555
H17_2 C26_2 1_555 1_555
O10_2 C31_2 1_555 1_555
N8_2 C20_2 1_555 1_555
N9_2 C4_2 1_555 1_555
C28_2 O2_2 1_555 1_555
C29_2 C26_2 1_555 1_555
H19_2 C29_2 1_555 1_555
C31_2 N7_2 1_555 1_555
N10_2 C11_2 1_555 1_555
C32_2 C14_2 1_555 1_555
C33_2 N7_2 1_555 1_555
H20_2 C33_2 1_555 1_555
H21_2 C33_2 1_555 1_555
C35_2 C14_2 1_555 1_555
H23_2 C35_2 1_555 1_555
C38_2 H25_2 1_555 1_555
C39_2 C1_2 1_555 1_555
H26_2 C39_2 1_555 1_555
C40_2 N2_2 1_555 1_555
H27_2 C40_2 1_555 1_555
C41_2 C18_2 1_555 1_555
H28_2 C41_2 1_555 1_555
C44_2 N8_2 1_555 1_555
C47_2 C24_2 1_555 1_555
H30_2 C47_2 1_555 1_555
C49_2 C32_2 1_555 1_555
H32_2 C49_2 1_555 1_555
C50_2 C2_2 1_555 1_555
C51_2 C44_2 1_555 1_555
H33_2 C51_2 1_555 1_555
C52_2 C44_2 1_555 1_555
H34_2 C52_2 1_555 1_555
O21 C59_2 1_555 1_555
C53_2 C12_2 1_555 1_555
H35_2 C53_2 1_555 1_555
H36_2 C53_2 1_555 1_555
C54_2 C15_2 1_555 1_555
H37_2 C54_2 1_555 1_555
C55_2 C45_2 1_555 1_555
H38_2 C55_2 1_555 1_555
C58_2 C45_2 1_555 1_555
H41_2 C58_2 1_555 1_555
C59_2 C18_2 1_555 1_555
C60_2 N9_2 1_555 1_555
H42_2 C60_2 1_555 1_555
C62_2 N10_2 1_555 1_555
H44_2 C62_2 1_555 1_555
H45_2 C62_2 1_555 1_555
N11 Cd5 1_555 1_555
C3_2 C28_2 1_555 1_555
C5_2 C39_2 1_555 1_555
O18 C10_2 1_555 1_555
O6_2 C28_2 1_555 1_555
C7_2 C50_2 1_555 1_555
C15_2 C35_2 1_555 1_555
C24_2 C41_2 1_555 1_555
N8_2 C29_2 1_555 1_555
C33_2 C53_2 1_555 1_555
C38_2 C56_2 1_555 1_555
C40_2 C60_2 1_555 1_555
C47_2 C56_2 1_555 1_555
C49_2 C54_2 1_555 1_555
C51_2 C58_2 1_555 1_555
C52_2 C55_2 1_555 1_555
N11 C8_2 1_555 1_555
N5_2 C8_2 1_555 1_555
C8_2 H5_2 1_555 1_555
C9_2 N11 1_555 1_555
H6_2 C9_2 1_555 1_555
C23_2 H15_2 1_555 1_555
C42_2 N5_2 1_555 1_555
H29_2 C42_2 1_555 1_555
C46_2 N5_2 1_555 1_555
C61_2 C46_2 1_555 1_555
H43_2 C61_2 1_555 1_555
H48_2 C64_2 1_555 1_555
C9_2 C42_2 1_555 1_555
C23_2 C46_2 1_555 1_555
C23_2 C48_2 1_555 1_555
C61_2 C64_2 1_555 1_555
O19 C36_2 1_555 1_555
O20 C36_2 1_555 1_555
H22 C34 1_555 1_555
C36_2 C34 1_555 1_555
C57 C34 1_555 1_555
H39 C57 1_555 1_555
H40_2 C57 1_555 1_555
C63 C57 1_555 1_555
H46 C63 1_555 1_555
H47 C63 1_555 1_555
H22_2 C34_2 1_555 1_555
C57_2 C34_2 1_555 1_555
H39_2 C57_2 1_555 1_555
C63_2 C57_2 1_555 1_555
H46_2 C63_2 1_555 1_555
H47_2 C63_2 1_555 1_555

#END
