
###############################################################################
#
# This file contains modified crystal structure data generated from the
# MOF subset of the Cambridge Structural Database (CSD) v543 
# hosted by the Cambridge Crystallographic Data Centre (CCDC).
#
# This work is licensed under the Creative Commons
# Attribution-NonCommercial-ShareAlike 4.0 International License.
# To view a copy of this license, visit
# http://creativecommons.org/licenses/by-nc-sa/4.0/
# or send a letter to
# Creative Commons, PO Box 1866, Mountain View, CA 94042, USA.
#
# CIF created using the CSD Python API on 29 September 2022
# The structure has been converted into the P1 space group
# The structure has a 3D framework
# The original CSD entry HUYBEL is in the monoclinic crystal system
# The framework has been calculated to contain at least 10.0% void space
# The void calculation uses a probe of radius 1.32A, grid spacing 0.4
#
###############################################################################

data_HUYBEL
_chemical_formula_moiety         '(C80 H56 Cd2 N16 O20)n'
_symmetry_cell_setting           triclinic
_symmetry_space_group_name_H-M   'P 1'
_symmetry_Int_Tables_number      1
_space_group_name_Hall           'P 1'
loop_
_symmetry_equiv_pos_site_id
_symmetry_equiv_pos_as_xyz
1 x,y,z
_cell_length_a                   12.4871(10)
_cell_length_b                   14.3971(12)
_cell_length_c                   16.4209(10)
_cell_angle_alpha                90
_cell_angle_beta                 114.354(5)
_cell_angle_gamma                90
_cell_volume                     2689.42
loop_
_atom_site_label
_atom_site_type_symbol
_atom_site_fract_x
_atom_site_fract_y
_atom_site_fract_z
H10 H 0.0390 0.3411 0.2676
C17 C 0.0030(3) 0.2101(3) 0.2914(2)
C20 C 0.1254(3) 0.1865(3) 0.3592(3)
O3 O 0.2102(3) 0.2350(3) 0.3636(2)
O4 O 0.1352(3) 0.1159(3) 0.4053(3)
Cd3 Cd 0.32352(2) 0.08111(2) 0.48902(2)
C12 C 0.4958(3) 0.2556(2) 0.9826(2)
H7 H 0.4336 0.2319 0.9327
Cd2 Cd 0.32352(2) 0.41889(2) 0.98902(2)
C8 C 0.3044(3) 0.0038(2) 0.2206(2)
H5 H 0.2828 0.0195 0.1609
C9 C 0.3092(3) 0.0612(2) 0.2875(2)
H6 H 0.2917 0.1243 0.2812
N2 N 0.3437(2) 0.01244(17) 0.36613(18)
N5 N 0.3437(2) 0.48756(17) 0.86613(18)
O6 O 0.1352(3) 0.3841(3) 0.9053(3)
O5 O 0.3031(4) 0.1969(3) 0.5877(3)
H13 H 0.2767 0.1745 0.6237
H14 H 0.3187 0.2514 0.5987
N6 N 0.4963(2) 0.15936(18) 0.52184(17)
C1 C 0.3142(4) 0.9234(2) 0.5778(3)
C2 C 0.3202(3) 0.8335(2) 0.6253(2)
C3 C 0.2296(4) 0.7699(3) 0.5916(2)
H1 H 0.1641 0.7831 0.5392
C4 C 0.2359(3) 0.6864(3) 0.6355(2)
H2 H 0.1744 0.6440 0.6137
C5 C 0.3354(3) 0.6672(2) 0.7124(2)
C6 C 0.4282(3) 0.7281(3) 0.7450(2)
H3 H 0.4956 0.7132 0.7954
C7 C 0.4197(3) 0.8123(3) 0.7014(3)
H4 H 0.4812 0.8547 0.7235
C8_2 C 0.3044(3) 0.4962(2) 0.7206(2)
H5_2 H 0.2828 0.4805 0.6609
C9_2 C 0.3092(3) 0.4388(2) 0.7875(2)
H6_2 H 0.2917 0.3757 0.7812
C10 C 0.3612(3) 0.57398(19) 0.8476(2)
C11 C 0.3997(2) 0.65150(19) 0.91079(19)
C13 C 0.4007(3) 0.7880(2) 0.9722(2)
H8 H 0.3791 0.8464 0.9845
C14 C 0.2179(3) 0.7491(2) 0.8376(2)
C15 C 0.1310(3) 0.6820(3) 0.8145(3)
H9 H 0.1463 0.6240 0.8421
C16 C 0.0203(3) 0.7033(3) 0.7491(3)
C18 C 0.0859(3) 0.8551(3) 0.7318(3)
H11 H 0.0709 0.9127 0.7037
C19 C 0.1978(3) 0.8354(2) 0.7972(3)
H12 H 0.2575 0.8795 0.8132
N1 N 0.3380(3) 0.58262(17) 0.75906(19)
N3 N 0.3334(2) 0.72923(18) 0.90443(18)
N4 N 0.5037(2) 0.65936(18) 0.97816(17)
O1 O 0.2299(4) 0.9360(2) 0.5030(2)
O2 O 0.3923(3) 0.9830(2) 0.6123(2)
H10_2 H 0.0390 0.1589 0.7676
C17_2 C 0.0030(3) 0.2899(3) 0.7914(2)
C20_2 C 0.1254(3) 0.3135(3) 0.8592(3)
O3_2 O 0.2102(3) 0.2650(3) 0.8636(2)
C1_2 C 0.6858(4) 0.4234(2) 0.9222(3)
C2_2 C 0.6798(3) 0.3335(2) 0.8747(2)
C3_2 C 0.7704(4) 0.2699(3) 0.9084(2)
H1_2 H 0.8359 0.2831 0.9608
C4_2 C 0.7641(3) 0.1864(3) 0.8645(2)
H2_2 H 0.8256 0.1440 0.8863
C5_2 C 0.6646(3) 0.1672(2) 0.7876(2)
C6_2 C 0.5718(3) 0.2281(3) 0.7550(2)
H3_2 H 0.5044 0.2132 0.7046
C7_2 C 0.5803(3) 0.3123(3) 0.7986(3)
H4_2 H 0.5188 0.3547 0.7765
C10_2 C 0.6388(3) 0.07398(19) 0.6524(2)
C11_2 C 0.6003(2) 0.15150(19) 0.58921(19)
C12_2 C 0.4958(3) 0.2444(2) 0.4826(2)
H7_2 H 0.4336 0.2681 0.4327
C13_2 C 0.5993(3) 0.2880(2) 0.5278(2)
H8_2 H 0.6209 0.3464 0.5155
C14_2 C 0.7821(3) 0.2491(2) 0.6624(2)
C15_2 C 0.8690(3) 0.1820(3) 0.6855(3)
H9_2 H 0.8537 0.1240 0.6579
C16_2 C 0.9797(3) 0.2033(3) 0.7509(3)
C18_2 C 0.9141(3) 0.3551(3) 0.7682(3)
H11_2 H 0.9291 0.4127 0.7963
C19_2 C 0.8022(3) 0.3354(2) 0.7028(3)
H12_2 H 0.7425 0.3795 0.6868
N1_2 N 0.6620(3) 0.08262(17) 0.74094(19)
N3_2 N 0.6666(2) 0.22923(18) 0.59557(18)
O1_2 O 0.7701(4) 0.4360(2) 0.9970(2)
O2_2 O 0.6077(3) 0.4830(2) 0.8877(2)
O5_2 O 0.6969(4) 0.6969(3) 0.9123(3)
H13_2 H 0.7233 0.6745 0.8763
H14_2 H 0.6813 0.7514 0.9013
C1_3 C 0.6858(4) 0.0766(2) 0.4222(3)
C2_3 C 0.6798(3) 0.1665(2) 0.3747(2)
C3_3 C 0.7704(4) 0.2301(3) 0.4084(2)
H1_3 H 0.8359 0.2169 0.4608
C4_3 C 0.7641(3) 0.3136(3) 0.3645(2)
H2_3 H 0.8256 0.3560 0.3863
C5_3 C 0.6646(3) 0.3328(2) 0.2876(2)
C6_3 C 0.5718(3) 0.2719(3) 0.2550(2)
H3_3 H 0.5044 0.2868 0.2046
C7_3 C 0.5803(3) 0.1877(3) 0.2986(3)
H4_3 H 0.5188 0.1453 0.2765
C8_3 C 0.6956(3) 0.5038(2) 0.2794(2)
H5_3 H 0.7172 0.5195 0.3391
C9_3 C 0.6908(3) 0.5612(2) 0.2125(2)
H6_3 H 0.7083 0.6243 0.2188
C10_3 C 0.6388(3) 0.42602(19) 0.1524(2)
C11_3 C 0.6003(2) 0.34850(19) 0.08921(19)
C13_3 C 0.5993(3) 0.2120(2) 0.0278(2)
H8_3 H 0.6209 0.1536 0.0155
C14_3 C 0.7821(3) 0.2509(2) 0.1624(2)
C15_3 C 0.8690(3) 0.3180(3) 0.1855(3)
H9_3 H 0.8537 0.3760 0.1579
C16_3 C 0.9797(3) 0.2967(3) 0.2509(3)
C18_3 C 0.9141(3) 0.1449(3) 0.2682(3)
H11_3 H 0.9291 0.0873 0.2963
C19_3 C 0.8022(3) 0.1646(2) 0.2028(3)
H12_3 H 0.7425 0.1205 0.1868
N1_3 N 0.6620(3) 0.41738(17) 0.24094(19)
N2_2 N 0.6563(2) 0.51244(17) 0.13387(18)
N3_3 N 0.6666(2) 0.27077(18) 0.09557(18)
N4_2 N 0.4963(2) 0.34064(18) 0.02184(17)
O1_3 O 0.7701(4) 0.0640(2) 0.4970(2)
O2_3 O 0.6077(3) 0.0170(2) 0.3877(2)
Cd4 Cd 0.67648(2) 0.58111(2) 0.01098(2)
Cd1 Cd 0.67648(2) 0.91889(2) 0.51098(2)
O5_3 O 0.6969(4) 0.8031(3) 0.4123(3)
H13_3 H 0.7233 0.8255 0.3763
H14_3 H 0.6813 0.7486 0.4013
N5_2 N 0.6563(2) 0.98756(17) 0.63387(18)
N6_2 N 0.5037(2) 0.84064(18) 0.47816(17)
O6_2 O 0.8648(3) 0.8841(3) 0.5947(3)
C1_4 C 0.3142(4) 0.5766(2) 0.0778(3)
C2_4 C 0.3202(3) 0.6665(2) 0.1253(2)
C3_4 C 0.2296(4) 0.7301(3) 0.0916(2)
H1_4 H 0.1641 0.7169 0.0392
C4_4 C 0.2359(3) 0.8136(3) 0.1355(2)
H2_4 H 0.1744 0.8560 0.1137
C5_4 C 0.3354(3) 0.8328(2) 0.2124(2)
C6_4 C 0.4282(3) 0.7719(3) 0.2450(2)
H3_4 H 0.4956 0.7868 0.2954
C7_4 C 0.4197(3) 0.6877(3) 0.2014(3)
H4_4 H 0.4812 0.6453 0.2235
C10_4 C 0.3612(3) 0.92602(19) 0.3476(2)
C11_4 C 0.3997(2) 0.84850(19) 0.41079(19)
C12_3 C 0.5042(3) 0.7556(2) 0.5174(2)
H7_3 H 0.5664 0.7319 0.5673
C13_4 C 0.4007(3) 0.7120(2) 0.4722(2)
H8_4 H 0.3791 0.6536 0.4845
C14_4 C 0.2179(3) 0.7509(2) 0.3376(2)
C15_4 C 0.1310(3) 0.8180(3) 0.3145(3)
H9_4 H 0.1463 0.8760 0.3421
C16_4 C 0.0203(3) 0.7967(3) 0.2491(3)
C18_4 C 0.0859(3) 0.6449(3) 0.2318(3)
H11_4 H 0.0709 0.5873 0.2037
C19_4 C 0.1978(3) 0.6646(2) 0.2972(3)
H12_4 H 0.2575 0.6205 0.3132
N1_4 N 0.3380(3) 0.91738(17) 0.25906(19)
N3_4 N 0.3334(2) 0.77077(18) 0.40443(18)
O1_4 O 0.2299(4) 0.5640(2) 0.0030(2)
O2_4 O 0.3923(3) 0.5170(2) 0.1123(2)
O5_4 O 0.3031(4) 0.3031(3) 0.0877(3)
H13_4 H 0.2767 0.3255 0.1237
H14_4 H 0.3187 0.2486 0.0987
H10_3 H 0.9610 0.8411 0.2324
C17_3 C 0.9970(3) 0.7101(3) 0.2086(2)
C20_3 C 0.8746(3) 0.6865(3) 0.1408(3)
O3_3 O 0.7898(3) 0.7350(3) 0.1364(2)
O4_2 O 0.8648(3) 0.6159(3) 0.0947(3)
C12_4 C 0.5042(3) 0.7444(2) 0.0174(2)
H7_4 H 0.5664 0.7681 0.0673
H10_4 H 0.9610 0.6589 0.7324
C17_4 C 0.9970(3) 0.7899(3) 0.7086(2)
C20_4 C 0.8746(3) 0.8135(3) 0.6408(3)
O3_4 O 0.7898(3) 0.7650(3) 0.6364(2)
C8_4 C 0.6956(3) 0.9962(2) 0.7794(2)
H5_4 H 0.7172 0.9805 0.8391
C9_4 C 0.6908(3) 0.9388(2) 0.7125(2)
H6_4 H 0.7083 0.8757 0.7188
loop_
_geom_bond_atom_site_label_1
_geom_bond_atom_site_label_2
_geom_bond_site_symmetry_1
_geom_bond_site_symmetry_2
C20 C17 1_555 1_555
O3 C20 1_555 1_555
O4 C20 1_555 1_555
Cd3 O4 1_555 1_555
C12 H7 1_555 1_555
C8 H5 1_555 1_555
C9 C8 1_555 1_555
H6 C9 1_555 1_555
N2 C9 1_555 1_555
Cd3 N2 1_555 1_555
N5 Cd2 1_555 1_555
O6 Cd2 1_555 1_555
O5 Cd3 1_555 1_555
H13 O5 1_555 1_555
H14 O5 1_555 1_555
N6 Cd3 1_555 1_555
C1 C2 1_555 1_555
C2 C3 1_555 1_555
C3 H1 1_555 1_555
C4 C3 1_555 1_555
H2 C4 1_555 1_555
C5 C4 1_555 1_555
C6 C5 1_555 1_555
H3 C6 1_555 1_555
C7 C2 1_555 1_555
H4 C7 1_555 1_555
C8_2 H5_2 1_555 1_555
C9_2 C8_2 1_555 1_555
H6_2 C9_2 1_555 1_555
C10 C11 1_555 1_555
C11 N3 1_555 1_555
H8 C13 1_555 1_555
C14 C15 1_555 1_555
C15 H9 1_555 1_555
C16 C15 1_555 1_555
H11 C18 1_555 1_555
C19 C14 1_555 1_555
H12 C19 1_555 1_555
N1 C5 1_555 1_555
N5 C9_2 1_555 1_555
N3 C13 1_555 1_555
N4 C11 1_555 1_555
O1 C1 1_555 1_555
O2 C1 1_555 1_555
C6 C7 1_555 1_555
C8_2 N1 1_555 1_555
C10 N1 1_555 1_555
C10 N5 1_555 1_555
C14 N3 1_555 1_555
C18 C19 1_555 1_555
C20_2 C17_2 1_555 1_555
O3_2 C20_2 1_555 1_555
O6 C20_2 1_555 1_555
C1_2 C2_2 1_555 1_555
C2_2 C3_2 1_555 1_555
C3_2 H1_2 1_555 1_555
C4_2 C3_2 1_555 1_555
H2_2 C4_2 1_555 1_555
C5_2 C4_2 1_555 1_555
C6_2 C5_2 1_555 1_555
H3_2 C6_2 1_555 1_555
C7_2 C2_2 1_555 1_555
H4_2 C7_2 1_555 1_555
C10_2 C11_2 1_555 1_555
C11_2 N3_2 1_555 1_555
C12_2 H7_2 1_555 1_555
C13_2 C12_2 1_555 1_555
H8_2 C13_2 1_555 1_555
C14_2 C15_2 1_555 1_555
C15_2 H9_2 1_555 1_555
C16_2 C15_2 1_555 1_555
H11_2 C18_2 1_555 1_555
C19_2 C14_2 1_555 1_555
H12_2 C19_2 1_555 1_555
N1_2 C5_2 1_555 1_555
N3_2 C13_2 1_555 1_555
N6 C11_2 1_555 1_555
O1_2 C1_2 1_555 1_555
O2_2 C1_2 1_555 1_555
H13_2 O5_2 1_555 1_555
H14_2 O5_2 1_555 1_555
C6_2 C7_2 1_555 1_555
C10_2 N1_2 1_555 1_555
C12_2 N6 1_555 1_555
C14_2 N3_2 1_555 1_555
C18_2 C19_2 1_555 1_555
C1_3 C2_3 1_555 1_555
C2_3 C3_3 1_555 1_555
C3_3 H1_3 1_555 1_555
C4_3 C3_3 1_555 1_555
H2_3 C4_3 1_555 1_555
C5_3 C4_3 1_555 1_555
C6_3 C5_3 1_555 1_555
H3_3 C6_3 1_555 1_555
C7_3 C2_3 1_555 1_555
H4_3 C7_3 1_555 1_555
C8_3 H5_3 1_555 1_555
C9_3 C8_3 1_555 1_555
H6_3 C9_3 1_555 1_555
C10_3 C11_3 1_555 1_555
C11_3 N3_3 1_555 1_555
H8_3 C13_3 1_555 1_555
C14_3 C15_3 1_555 1_555
C15_3 H9_3 1_555 1_555
C16_3 C15_3 1_555 1_555
H11_3 C18_3 1_555 1_555
C19_3 C14_3 1_555 1_555
H12_3 C19_3 1_555 1_555
N1_3 C5_3 1_555 1_555
N2_2 C9_3 1_555 1_555
N3_3 C13_3 1_555 1_555
N4_2 C11_3 1_555 1_555
O1_3 C1_3 1_555 1_555
O2_3 C1_3 1_555 1_555
Cd4 N2_2 1_555 1_555
C6_3 C7_3 1_555 1_555
C8_3 N1_3 1_555 1_555
C10_3 N1_3 1_555 1_555
C10_3 N2_2 1_555 1_555
C14_3 N3_3 1_555 1_555
C18_3 C19_3 1_555 1_555
O5_3 Cd1 1_555 1_555
H13_3 O5_3 1_555 1_555
H14_3 O5_3 1_555 1_555
N5_2 Cd1 1_555 1_555
N6_2 Cd1 1_555 1_555
O6_2 Cd1 1_555 1_555
C1_4 C2_4 1_555 1_555
C2_4 C3_4 1_555 1_555
C3_4 H1_4 1_555 1_555
C4_4 C3_4 1_555 1_555
H2_4 C4_4 1_555 1_555
C5_4 C4_4 1_555 1_555
C6_4 C5_4 1_555 1_555
H3_4 C6_4 1_555 1_555
C7_4 C2_4 1_555 1_555
H4_4 C7_4 1_555 1_555
C10_4 C11_4 1_555 1_555
C11_4 N3_4 1_555 1_555
C12_3 H7_3 1_555 1_555
C13_4 C12_3 1_555 1_555
H8_4 C13_4 1_555 1_555
C14_4 C15_4 1_555 1_555
C15_4 H9_4 1_555 1_555
C16_4 C15_4 1_555 1_555
H11_4 C18_4 1_555 1_555
C19_4 C14_4 1_555 1_555
H12_4 C19_4 1_555 1_555
N1_4 C5_4 1_555 1_555
N3_4 C13_4 1_555 1_555
N6_2 C11_4 1_555 1_555
O1_4 C1_4 1_555 1_555
O2_4 C1_4 1_555 1_555
H13_4 O5_4 1_555 1_555
H14_4 O5_4 1_555 1_555
C6_4 C7_4 1_555 1_555
C10_4 N1_4 1_555 1_555
C12_3 N6_2 1_555 1_555
C14_4 N3_4 1_555 1_555
C18_4 C19_4 1_555 1_555
C20_3 C17_3 1_555 1_555
O3_3 C20_3 1_555 1_555
O4_2 C20_3 1_555 1_555
Cd4 O4_2 1_555 1_555
C12_4 H7_4 1_555 1_555
C20_4 C17_4 1_555 1_555
O3_4 C20_4 1_555 1_555
O6_2 C20_4 1_555 1_555
C8_4 H5_4 1_555 1_555
C9_4 C8_4 1_555 1_555
H6_4 C9_4 1_555 1_555
N5_2 C9_4 1_555 1_555

#END
