
###############################################################################
#
# This file contains modified crystal structure data generated from the
# MOF subset of the Cambridge Structural Database (CSD) v543 
# hosted by the Cambridge Crystallographic Data Centre (CCDC).
#
# This work is licensed under the Creative Commons
# Attribution-NonCommercial-ShareAlike 4.0 International License.
# To view a copy of this license, visit
# http://creativecommons.org/licenses/by-nc-sa/4.0/
# or send a letter to
# Creative Commons, PO Box 1866, Mountain View, CA 94042, USA.
#
# CIF created using the CSD Python API on 29 September 2022
# The structure has been converted into the P1 space group
# The structure has a 3D framework
# The original CSD entry HUZFEO is in the monoclinic crystal system
# The framework has been calculated to contain at least 10.0% void space
# The void calculation uses a probe of radius 1.32A, grid spacing 0.4
# The framework is charged, counterions have been retained in the structure
#
###############################################################################

data_HUZFEO
_chemical_formula_moiety         '(C72 H60 B4 Cd5 F16 N24 6+)n'
_symmetry_cell_setting           triclinic
_symmetry_space_group_name_H-M   'P 1'
_symmetry_Int_Tables_number      1
_space_group_name_Hall           'P 1'
loop_
_symmetry_equiv_pos_site_id
_symmetry_equiv_pos_as_xyz
1 x,y,z
_cell_length_a                   8.2969(17)
_cell_length_b                   21.756(4)
_cell_length_c                   13.781(3)
_cell_angle_alpha                90
_cell_angle_beta                 103.69(3)
_cell_angle_gamma                90
_cell_volume                     2416.9
loop_
_atom_site_label
_atom_site_type_symbol
_atom_site_fract_x
_atom_site_fract_y
_atom_site_fract_z
Cd4 Cd 0.0000 0.5000 0.5000
C1 C 0.3648(7) 0.1051(2) 0.1371(4)
H1 H 0.4304 0.1348 0.1169
C2 C 0.2424(7) 0.0206(2) 0.1512(4)
C3 C 0.1973(7) 0.0601(2) 0.2147(4)
H3 H 0.1270 0.0521 0.2567
C4 C 0.2662(7) 0.1703(2) 0.2595(4)
C5 C 0.1188(8) 0.1875(3) 0.2801(4)
H4 H 0.0238 0.1642 0.2559
C6 C 0.4061(7) 0.2057(3) 0.2930(4)
H5 H 0.5060 0.1939 0.2791
C13 C 0.1181(6) 0.3665(2) 0.4247(4)
H11 H 0.0170 0.3626 0.3784
C14 C 0.3122(7) 0.3995(3) 0.5420(4)
H12 H 0.3716 0.4237 0.5940
C15 C 0.3727(7) 0.3487(3) 0.5067(4)
H13 H 0.4778 0.3317 0.5287
C16 C 0.2510(7) 0.2745(2) 0.3702(4)
C17 C 0.1108(7) 0.2397(3) 0.3370(4)
H14 H 0.0116 0.2509 0.3525
C18 C 0.3987(7) 0.2585(3) 0.3472(4)
H15 H 0.4922 0.2831 0.3681
Cd1 Cd 0.5000 0.0000 0.0000
N1 N 0.3485(5) 0.04857(18) 0.1018(3)
N2 N 0.2762(5) 0.11490(18) 0.2053(3)
N5 N 0.1522(5) 0.41078(17) 0.4912(3)
N6 N 0.2454(5) 0.32770(19) 0.4311(3)
H2 H 0.2069 0.9800 0.1418
Cd1_2 Cd 0.5000 1.0000 0.0000
N10 N 0.7022(5) 0.96922(19) 0.1467(3)
N13 N 0.3478(5) 0.91078(17) 0.0088(3)
H8 H 0.9919 0.1034 0.7308
C11 C 0.9825(7) 0.0589(3) 0.5331(4)
H9 H 0.9705 0.0987 0.5552
H21 H 0.6688 0.0253 0.2543
C30 C 0.9145(7) 0.0432(2) 0.4340(4)
H25 H 0.8569 0.0724 0.3898
C25 C 0.7316(6) 0.9937(3) 0.2365(4)
C26 C 0.8193(7) 0.9247(3) 0.1524(4)
H22 H 0.8294 0.8992 0.1000
C27 C 0.9192(7) 0.9230(3) 0.2461(4)
C28 C 0.9325(6) 0.9844(2) 0.4014(4)
N11 N 0.8631(5) 0.96783(19) 0.2997(3)
C1_2 C 0.1352(7) 0.6051(2) 0.3629(4)
H1_2 H 0.0696 0.6348 0.3831
C2_2 C 0.2576(7) 0.5206(2) 0.3488(4)
H2_2 H 0.2931 0.4800 0.3582
C3_2 C 0.3027(7) 0.5601(2) 0.2853(4)
H3_2 H 0.3730 0.5521 0.2433
C4_2 C 0.2338(7) 0.6703(2) 0.2405(4)
C5_2 C 0.3812(8) 0.6875(3) 0.2199(4)
H4_2 H 0.4762 0.6642 0.2441
C6_2 C 0.0939(7) 0.7057(3) 0.2070(4)
C7 C 0.2316(6) 0.5063(3) 0.7365(4)
H6 H 0.1688 0.4747 0.7543
C8 C 0.3193(7) 0.5753(3) 0.6524(4)
H7 H 0.3294 0.6008 0.6000
C9 C 0.4192(7) 0.5770(3) 0.7461(4)
H8_2 H 0.5081 0.6034 0.7692
C10 C 0.4325(6) 0.5156(2) 0.9014(4)
C11_2 C 0.5175(7) 0.5589(3) 0.9669(4)
H9_2 H 0.5295 0.5987 0.9448
C12 C 0.4145(7) 0.4568(2) 0.9340(4)
H10 H 0.3569 0.4276 0.8898
C13_2 C 0.3819(6) 0.8665(2) 0.0753(4)
H11_2 H 0.4830 0.8626 0.1216
C16_2 C 0.2490(7) 0.7745(2) 0.1298(4)
C17_2 C 0.3892(7) 0.7397(3) 0.1630(4)
H14_2 H 0.4884 0.7509 0.1475
C18_2 C 0.1013(7) 0.7585(3) 0.1528(4)
H15_2 H 0.0078 0.7831 0.1319
N1_2 N 0.1515(5) 0.54857(18) 0.3982(3)
N2_2 N 0.2238(5) 0.61490(18) 0.2947(3)
N3 N 0.2022(5) 0.53078(19) 0.6467(3)
N4 N 0.3631(5) 0.53217(19) 0.7997(3)
N6_2 N 0.2546(5) 0.82770(19) 0.0689(3)
H20 H 0.0060 0.3061 0.7791
C32 C 0.8122(7) 0.1005(3) 0.0420(4)
H27 H 0.8716 0.0763 0.0940
C33 C 0.8727(7) 0.1513(3) 0.0067(4)
H28 H 0.9778 0.1683 0.0287
C7_2 C 0.2684(6) 0.0063(3) 0.7635(4)
C8_2 C 0.1807(7) 0.0753(3) 0.8476(4)
H7_2 H 0.1706 0.1008 0.9000
C9_2 C 0.0808(7) 0.0770(3) 0.7539(4)
C10_2 C 0.0675(6) 0.0156(2) 0.5986(4)
Cd1_3 Cd 0.5000 0.0000 1.0000
N3_2 N 0.2978(5) 0.03078(19) 0.8533(3)
N4_2 N 0.1369(5) 0.03217(19) 0.7003(3)
H17 H 0.7931 0.0200 0.8582
N14 N 0.6522(5) 0.08922(17) 0.9912(3)
H6_2 H 0.3312 0.9747 0.7457
C12_2 C 0.0855(7) 0.9568(2) 0.5660(4)
H10_2 H 0.1431 0.9276 0.6102
Cd1_4 Cd 0.5000 1.0000 1.0000
C19 C 0.6352(7) 0.8949(2) 0.8629(4)
H16 H 0.5696 0.8652 0.8831
C20 C 0.7576(7) 0.9794(2) 0.8488(4)
C21 C 0.8027(7) 0.9399(2) 0.7853(4)
H18 H 0.8730 0.9479 0.7433
C22 C 0.7338(7) 0.8297(2) 0.7405(4)
C23 C 0.8812(8) 0.8125(3) 0.7199(4)
H19 H 0.9762 0.8358 0.7441
C24 C 0.5939(7) 0.7943(3) 0.7070(4)
H20_2 H 0.4940 0.8061 0.7209
H23 H 0.0081 0.8966 0.2692
C29 C 0.0175(7) 0.9411(3) 0.4669(4)
H24 H 0.0295 0.9013 0.4448
C31 C 0.8819(6) 0.6335(2) 0.5753(4)
H26 H 0.9830 0.6374 0.6216
C32_2 C 0.6878(7) 0.6005(3) 0.4580(4)
H27_2 H 0.6284 0.5763 0.4060
C33_2 C 0.6273(7) 0.6513(3) 0.4933(4)
H28_2 H 0.5222 0.6683 0.4713
C34 C 0.7490(7) 0.7255(2) 0.6298(4)
C35 C 0.8892(7) 0.7603(3) 0.6630(4)
H29 H 0.9884 0.7491 0.6475
C36 C 0.6013(7) 0.7415(3) 0.6528(4)
H30 H 0.5078 0.7169 0.6319
Cd4_2 Cd 1.0000 0.5000 0.5000
N7 N 0.6515(5) 0.95143(18) 0.8982(3)
N8 N 0.7238(5) 0.88510(18) 0.7947(3)
N12 N 0.8478(5) 0.58922(17) 0.5088(3)
N15 N 0.7546(5) 0.67230(19) 0.5689(3)
C25_2 C 0.7684(6) 0.4937(3) 0.2635(4)
H21_2 H 0.8312 0.5253 0.2457
C26_2 C 0.6807(7) 0.4247(3) 0.3476(4)
H22_2 H 0.6706 0.3992 0.4000
C27_2 C 0.5808(7) 0.4230(3) 0.2539(4)
H23_2 H 0.4919 0.3966 0.2308
C28_2 C 0.5675(6) 0.4844(2) 0.0986(4)
C29_2 C 0.4825(7) 0.4411(3) 0.0331(4)
H24_2 H 0.4705 0.4013 0.0552
C30_2 C 0.5855(7) 0.5432(2) 0.0660(4)
H25_2 H 0.6431 0.5724 0.1102
N9 N 0.7978(5) 0.46922(19) 0.3533(3)
N11_2 N 0.6369(5) 0.46783(19) 0.2003(3)
C14_2 C 0.1878(7) 0.8995(3) 0.9580(4)
H12_2 H 0.1284 0.9237 0.9060
C15_2 C 0.1273(7) 0.8487(3) 0.9933(4)
H13_2 H 0.0222 0.8317 0.9713
H5_2 H 0.9940 0.6939 0.2209
C19_2 C 0.8648(7) 0.3949(2) 0.6371(4)
H16_2 H 0.9304 0.3652 0.6169
C20_2 C 0.7424(7) 0.4794(2) 0.6512(4)
H17_2 H 0.7069 0.5200 0.6418
C21_2 C 0.6973(7) 0.4399(2) 0.7147(4)
H18_2 H 0.6270 0.4479 0.7567
C22_2 C 0.7662(7) 0.3297(2) 0.7595(4)
C23_2 C 0.6188(8) 0.3125(3) 0.7801(4)
H19_2 H 0.5238 0.3358 0.7559
C24_2 C 0.9061(7) 0.2943(3) 0.7930(4)
C31_2 C 0.6181(6) 0.1335(2) 0.9247(4)
H26_2 H 0.5170 0.1374 0.8784
C34_2 C 0.7510(7) 0.2255(2) 0.8702(4)
C35_2 C 0.6108(7) 0.2603(3) 0.8370(4)
H29_2 H 0.5116 0.2491 0.8525
C36_2 C 0.8987(7) 0.2415(3) 0.8472(4)
H30_2 H 0.9922 0.2169 0.8681
N7_2 N 0.8485(5) 0.45143(18) 0.6018(3)
N8_2 N 0.7762(5) 0.38510(18) 0.7053(3)
N15_2 N 0.7454(5) 0.17230(19) 0.9311(3)
B1 B 0.8250(11) 0.2392(5) 0.5154(8)
F1 F 0.7967(6) 0.1910(2) 0.4539(4)
F2 F 0.7006(6) 0.2560(3) 0.5552(4)
F3 F 0.9765(7) 0.2541(4) 0.5580(5)
F4 F 0.8041(9) 0.2877(3) 0.4425(7)
F1_2 F 0.7033(6) 0.6910(2) 0.0461(4)
F4_2 F 0.6959(9) 0.7877(3) 0.0575(7)
B1_2 B 0.6750(11) 0.7392(5) 0.9846(8)
F2_2 F 0.7994(6) 0.7560(3) 0.9448(4)
F3_2 F 0.5235(7) 0.7541(4) 0.9420(5)
B1_3 B 0.1750(11) 0.7608(5) 0.4846(8)
F1_3 F 0.2033(6) 0.8090(2) 0.5461(4)
F2_3 F 0.2994(6) 0.7440(3) 0.4448(4)
F3_3 F 0.0235(7) 0.7459(4) 0.4420(5)
F4_3 F 0.1959(9) 0.7123(3) 0.5575(7)
B1_4 B 0.3250(11) 0.2608(5) 0.0154(8)
F2_4 F 0.2006(6) 0.2440(3) 0.0552(4)
F3_4 F 0.4765(7) 0.2459(4) 0.0580(5)
F1_4 F 0.2967(6) 0.3090(2) 0.9539(4)
F4_4 F 0.3041(9) 0.2123(3) 0.9425(7)
loop_
_geom_bond_atom_site_label_1
_geom_bond_atom_site_label_2
_geom_bond_site_symmetry_1
_geom_bond_site_symmetry_2
C1 H1 1_555 1_555
C3 C2 1_555 1_555
H3 C3 1_555 1_555
C4 C5 1_555 1_555
C5 H4 1_555 1_555
C6 C4 1_555 1_555
H5 C6 1_555 1_555
C13 H11 1_555 1_555
C14 H12 1_555 1_555
C15 C14 1_555 1_555
H13 C15 1_555 1_555
C16 C17 1_555 1_555
C17 C5 1_555 1_555
H14 C17 1_555 1_555
C18 C6 1_555 1_555
H15 C18 1_555 1_555
Cd1 N1 1_555 1_555
N1 C1 1_555 1_555
N2 C1 1_555 1_555
N5 C13 1_555 1_555
N6 C13 1_555 1_555
Cd4 N5 1_555 1_555
C2 N1 1_555 1_555
C3 N2 1_555 1_555
C4 N2 1_555 1_555
C14 N5 1_555 1_555
C15 N6 1_555 1_555
C16 C18 1_555 1_555
C16 N6 1_555 1_555
N10 Cd1_2 1_555 1_555
N13 Cd1_2 1_555 1_555
C11 H9 1_555 1_555
C30 C11 1_555 1_555
H25 C30 1_555 1_555
C26 H22 1_555 1_555
C27 C26 1_555 1_555
N10 C25 1_555 1_555
N11 C25 1_555 1_555
C26 N10 1_555 1_555
C27 N11 1_555 1_555
C28 N11 1_555 1_555
C1_2 H1_2 1_555 1_555
C2_2 H2_2 1_555 1_555
C3_2 C2_2 1_555 1_555
H3_2 C3_2 1_555 1_555
C4_2 C5_2 1_555 1_555
C5_2 H4_2 1_555 1_555
C6_2 C4_2 1_555 1_555
C7 H6 1_555 1_555
C8 H7 1_555 1_555
C9 C8 1_555 1_555
H8_2 C9 1_555 1_555
C10 C11_2 1_555 1_555
C11_2 H9_2 1_555 1_555
C12 C10 1_555 1_555
H10 C12 1_555 1_555
C13_2 H11_2 1_555 1_555
C16_2 C17_2 1_555 1_555
C17_2 C5_2 1_555 1_555
H14_2 C17_2 1_555 1_555
C18_2 C6_2 1_555 1_555
H15_2 C18_2 1_555 1_555
Cd4 N1_2 1_555 1_555
N1_2 C1_2 1_555 1_555
N2_2 C1_2 1_555 1_555
N3 C7 1_555 1_555
N4 C7 1_555 1_555
N13 C13_2 1_555 1_555
N6_2 C13_2 1_555 1_555
C2_2 N1_2 1_555 1_555
C3_2 N2_2 1_555 1_555
C4_2 N2_2 1_555 1_555
C8 N3 1_555 1_555
C9 N4 1_555 1_555
C10 N4 1_555 1_555
C16_2 C18_2 1_555 1_555
C16_2 N6_2 1_555 1_555
Cd4 N3 1_555 1_555
C32 H27 1_555 1_555
C33 C32 1_555 1_555
H28 C33 1_555 1_555
C8_2 H7_2 1_555 1_555
C9_2 C8_2 1_555 1_555
N3_2 C7_2 1_555 1_555
N4_2 C7_2 1_555 1_555
N14 Cd1_3 1_555 1_555
C8_2 N3_2 1_555 1_555
C9_2 N4_2 1_555 1_555
C10_2 N4_2 1_555 1_555
Cd1_3 N3_2 1_555 1_555
H10_2 C12_2 1_555 1_555
C19 H16 1_555 1_555
C21 C20 1_555 1_555
H18 C21 1_555 1_555
C22 C23 1_555 1_555
C23 H19 1_555 1_555
C24 C22 1_555 1_555
H20_2 C24 1_555 1_555
C29 C12_2 1_555 1_555
H24 C29 1_555 1_555
C31 H26 1_555 1_555
C32_2 H27_2 1_555 1_555
C33_2 C32_2 1_555 1_555
H28_2 C33_2 1_555 1_555
C34 C35 1_555 1_555
C35 C23 1_555 1_555
H29 C35 1_555 1_555
C36 C24 1_555 1_555
H30 C36 1_555 1_555
Cd4_2 N12 1_555 1_555
N7 Cd1_4 1_555 1_555
N8 C19 1_555 1_555
N12 C31 1_555 1_555
N15 C31 1_555 1_555
C19 N7 1_555 1_555
C20 N7 1_555 1_555
C21 N8 1_555 1_555
C22 N8 1_555 1_555
C32_2 N12 1_555 1_555
C33_2 N15 1_555 1_555
C34 C36 1_555 1_555
C34 N15 1_555 1_555
C25_2 H21_2 1_555 1_555
C26_2 H22_2 1_555 1_555
C27_2 C26_2 1_555 1_555
H23_2 C27_2 1_555 1_555
C28_2 C29_2 1_555 1_555
H24_2 C29_2 1_555 1_555
H25_2 C30_2 1_555 1_555
Cd4_2 N9 1_555 1_555
N9 C25_2 1_555 1_555
N11_2 C25_2 1_555 1_555
C26_2 N9 1_555 1_555
C27_2 N11_2 1_555 1_555
C28_2 C30_2 1_555 1_555
C28_2 N11_2 1_555 1_555
C14_2 H12_2 1_555 1_555
C15_2 C14_2 1_555 1_555
H13_2 C15_2 1_555 1_555
C19_2 H16_2 1_555 1_555
C20_2 H17_2 1_555 1_555
C21_2 C20_2 1_555 1_555
H18_2 C21_2 1_555 1_555
C22_2 C23_2 1_555 1_555
C23_2 H19_2 1_555 1_555
C24_2 C22_2 1_555 1_555
C31_2 H26_2 1_555 1_555
C34_2 C35_2 1_555 1_555
C35_2 C23_2 1_555 1_555
H29_2 C35_2 1_555 1_555
C36_2 C24_2 1_555 1_555
H30_2 C36_2 1_555 1_555
N7_2 Cd4_2 1_555 1_555
N8_2 C19_2 1_555 1_555
N14 C31_2 1_555 1_555
N15_2 C31_2 1_555 1_555
C19_2 N7_2 1_555 1_555
C20_2 N7_2 1_555 1_555
C21_2 N8_2 1_555 1_555
C22_2 N8_2 1_555 1_555
C34_2 C36_2 1_555 1_555
C34_2 N15_2 1_555 1_555
B1 F1 1_555 1_555
F2 B1 1_555 1_555
F3 B1 1_555 1_555
F4 B1 1_555 1_555
F2_2 B1_2 1_555 1_555
F3_2 B1_2 1_555 1_555
B1_3 F1_3 1_555 1_555
F2_3 B1_3 1_555 1_555
F3_3 B1_3 1_555 1_555
F4_3 B1_3 1_555 1_555
F2_4 B1_4 1_555 1_555
F3_4 B1_4 1_555 1_555

#END
