
###############################################################################
#
# This file contains modified crystal structure data generated from the
# MOF subset of the Cambridge Structural Database (CSD) v543 
# hosted by the Cambridge Crystallographic Data Centre (CCDC).
#
# This work is licensed under the Creative Commons
# Attribution-NonCommercial-ShareAlike 4.0 International License.
# To view a copy of this license, visit
# http://creativecommons.org/licenses/by-nc-sa/4.0/
# or send a letter to
# Creative Commons, PO Box 1866, Mountain View, CA 94042, USA.
#
# CIF created using the CSD Python API on 29 September 2022
# The structure has been converted into the P1 space group
# The structure has a 3D framework
# The original CSD entry IBASEL is in the trigonal crystal system
# The framework has been calculated to contain at least 10.0% void space
# The void calculation uses a probe of radius 1.32A, grid spacing 0.4
# H atom positions have been added when not included in the experimental data
#
###############################################################################

data_IBASEL
_chemical_formula_moiety         '(C48 H84 Cu4 La4 N12 O48)n'
_symmetry_cell_setting           triclinic
_symmetry_space_group_name_H-M   'P 1'
_symmetry_Int_Tables_number      1
_space_group_name_Hall           'P 1'
loop_
_symmetry_equiv_pos_site_id
_symmetry_equiv_pos_as_xyz
1 x,y,z
_cell_length_a                   13.4946(18)
_cell_length_b                   13.4946(18)
_cell_length_c                   14.912(2)
_cell_angle_alpha                90
_cell_angle_beta                 90
_cell_angle_gamma                120
_cell_volume                     2351.73
loop_
_atom_site_label
_atom_site_type_symbol
_atom_site_fract_x
_atom_site_fract_y
_atom_site_fract_z
Cu2 Cu -0.0000 0.5000 0.0000
Cu4 Cu -0.0000 0.5000 0.5000
O11 O 0.1830(3) 0.5473(2) 0.0560(2)
H6 H 0.0256 0.6728 0.0767
H8 H 0.0256 0.3528 0.5767
Cu2_2 Cu -0.0000 0.5000 1.0000
O24 O 0.0730(3) 0.5967(2) 0.89521(19)
N8 N 0.0401(4) 0.3896(2) 0.9422(2)
H36 H 0.0801284 0.365365 0.987426
H37 H 0.0925681 0.42769 0.88903
La1 La 0.6667 0.3333 0.33088(2)
Cu1 Cu 0.5000 0.5000 0.5000
O1 O 0.6357(2) 0.4527(2) 0.4440(2)
O2 O 0.8013(3) 0.5610(3) 0.3775(2)
O3 O 0.4763(2) 0.4033(2) 0.60479(19)
O4 O 0.5638(3) 0.3872(3) 0.7241(2)
N1 N 0.6505(3) 0.6104(2) 0.5578(2)
C1 C 0.7271(3) 0.5470(3) 0.4341(2)
C2 C 0.7437(3) 0.6478(3) 0.4913(2)
C3 C 0.6659(4) 0.5536(4) 0.6368(2)
C4 C 0.5607(3) 0.4391(3) 0.6571(3)
H1 H 0.6472 0.6728 0.5767
H2 H 0.8167 0.6805 0.5221
H3 H 0.7447 0.7065 0.4531
H4 H 0.6836 0.6032 0.6885
H5 H 0.7304 0.5421 0.6264
La3 La 0.6666 0.3333 0.83088(2)
Cu2_3 Cu 1.0000 0.5000 0.0000
Cu3 Cu 0.5000 0.0000 0.5000
Cu4_2 Cu 1.0000 0.5000 0.5000
Cu5 Cu 0.5000 0.0000 0.0000
Cu6 Cu 0.5000 0.5000 0.0000
O6 O 0.5473(2) 0.1830(3) 0.4440(2)
O7 O 0.8170(3) 0.3643(2) 0.4440(2)
O10 O 0.3643(2) 0.5473(2) 0.5560(2)
O14 O 0.4390(3) 0.2403(4) 0.3775(2)
O15 O 0.7597(4) 0.1987(3) 0.3775(2)
O18 O 0.9270(3) 0.4033(2) 0.10479(19)
O19 O 0.5967(2) 0.0730(3) 0.60479(19)
O20 O 0.9270(3) 0.5237(2) 0.60479(19)
O21 O 0.4763(2) 0.0730(3) 0.10479(19)
O22 O 0.5967(2) 0.5237(2) 0.10479(19)
O23 O 0.5237(2) 0.5967(2) 0.39521(19)
O26 O 0.8234(4) 0.3872(3) 0.2241(2)
O27 O 0.6128(3) 0.1766(4) 0.7241(2)
O28 O 0.8234(4) 0.4362(3) 0.7241(2)
O29 O 0.5638(3) 0.1766(4) 0.2241(2)
O30 O 0.6128(3) 0.4362(3) 0.2241(2)
N2 N 0.9599(4) 0.6104(2) 0.0578(2)
N3 N 0.3896(2) 0.0401(4) 0.5578(2)
N4 N 0.9599(4) 0.3495(3) 0.5578(2)
N5 N 0.6505(3) 0.0401(4) 0.0578(2)
N6 N 0.3896(2) 0.3495(3) 0.0578(2)
N7 N 0.3495(3) 0.3896(2) 0.4422(2)
C6 C 0.4530(3) 0.1801(4) 0.4341(2)
C7 C 0.8199(4) 0.2729(3) 0.4341(2)
C11 C 0.3522(3) 0.0959(4) 0.4913(2)
C12 C 0.9041(4) 0.2563(3) 0.4913(2)
C15 C 0.8877(6) 0.5536(4) 0.1368(2)
C16 C 0.4464(4) 0.1123(6) 0.6368(2)
C17 C 0.8877(6) 0.3341(4) 0.6368(2)
C18 C 0.6659(4) 0.1123(6) 0.1368(2)
C19 C 0.4464(4) 0.3341(4) 0.1368(2)
C20 C 0.8784(4) 0.4391(3) 0.1571(3)
C21 C 0.5609(3) 0.1216(4) 0.6571(3)
C22 C 0.8784(4) 0.4393(3) 0.6571(3)
C23 C 0.5607(3) 0.1216(4) 0.1571(3)
C24 C 0.5609(3) 0.4393(3) 0.1571(3)
H10 H 0.3272 0.3528 0.0767
H11 H 0.3528 0.3272 0.4233
H13 H 0.6728 0.0256 0.4233
H14 H 0.8638 0.6805 0.0221
H15 H 0.3195 0.1362 0.5221
H16 H 0.8638 0.1833 0.5221
H17 H 0.8167 0.1362 0.0221
H18 H 0.3195 0.1833 0.0221
H20 H 0.2935 0.0382 0.4531
H21 H 0.9618 0.2553 0.4531
H24 H 0.9196 0.6032 0.1885
H25 H 0.3968 0.0804 0.6885
H26 H 0.9196 0.3164 0.6885
H27 H 0.6836 0.0804 0.1885
H28 H 0.3968 0.3164 0.1885
H29 H 0.8117 0.5421 0.1264
H30 H 0.4579 0.1883 0.6264
H31 H 0.8117 0.2696 0.6264
H32 H 0.7304 0.1883 0.1264
H33 H 0.4579 0.2696 0.1264
H34 H 0.335122 0.42769 0.38903
H35 H 0.285236 0.365365 0.487426
Cu2_4 Cu 1.0000 0.5000 1.0000
Cu5_2 Cu 0.5000 0.0000 1.0000
Cu6_2 Cu 0.5000 0.5000 1.0000
O5 O 0.8170(3) 0.4527(2) 0.9440(2)
O8 O 0.6357(2) 0.1830(3) 0.9440(2)
O9 O 0.5473(2) 0.3643(2) 0.9440(2)
O13 O 0.7597(4) 0.5610(3) 0.8775(2)
O16 O 0.8013(3) 0.2403(4) 0.8775(2)
O17 O 0.4390(3) 0.1987(3) 0.8775(2)
C5 C 0.8199(4) 0.5470(3) 0.9341(2)
C8 C 0.7271(3) 0.1801(4) 0.9341(2)
C9 C 0.4530(3) 0.2729(3) 0.9341(2)
C10 C 0.9041(4) 0.6478(3) 0.9913(2)
C13 C 0.7437(3) 0.0959(4) 0.9913(2)
C14 C 0.3522(3) 0.2563(3) 0.9913(2)
H12 H 0.9744 0.3272 0.9233
H19 H 0.9618 0.7065 0.9531
H22 H 0.7447 0.0382 0.9531
H23 H 0.2935 0.2553 0.9531
Cu3_2 Cu 0.5000 1.0000 0.5000
Cu5_3 Cu 0.5000 1.0000 0.0000
O12 O 0.4527(2) 0.8170(3) 0.5560(2)
O25 O 0.4033(2) 0.9270(3) 0.39521(19)
N9 N 0.6104(2) 0.9599(4) 0.4422(2)
H7 H 0.3272 0.9744 0.5767
H9 H 0.6472 0.9744 0.0767
H38 H 0.57231 0.907432 0.38903
H39 H 0.634635 0.919872 0.487426
Cu5_4 Cu 0.5000 1.0000 1.0000
O12_2 O 0.1830(3) 0.6357(4) 0.5560(2)
O25_2 O 0.0730(3) 0.4763(4) 0.39521(19)
N9_2 N 0.0401(4) 0.6505(4) 0.4422(2)
H38_2 H 0.0925681 0.664878 0.38903
H39_2 H 0.0801284 0.714764 0.487426
O11_2 O 0.4527(2) 0.6357(4) 0.0560(2)
H13_2 H 0.9744 0.6472 0.4233
O24_2 O 0.4033(2) 0.4763(4) 0.89521(19)
N8_2 N 0.6104(2) 0.6505(4) 0.9422(2)
H12_2 H 0.6728 0.6472 0.9233
H36_2 H 0.634635 0.714764 0.987426
H37_2 H 0.57231 0.664878 0.88903
H12_3 H 0.3528 0.0256 0.9233
O11_3 O 0.3643(4) 0.8170(3) 0.0560(2)
O24_3 O 0.5237(4) 0.9270(3) 0.89521(19)
N8_3 N 0.3495(4) 0.9599(4) 0.9422(2)
H36_3 H 0.285236 0.919872 0.987426
H37_3 H 0.335122 0.907432 0.88903
H38_3 H 0.664878 0.0925681 0.11097
H39_3 H 0.714764 0.0801284 0.012574
La1_2 La 0.3334 0.6667 0.16912(2)
O2_2 O 0.2403(4) 0.4390(3) 0.1225(2)
C1_2 C 0.1801(4) 0.4530(3) 0.0659(2)
C2_2 C 0.0959(4) 0.3522(3) 0.0087(2)
H3_2 H 0.0382 0.2935 0.0469
La2 La 0.3333 0.6667 0.66912(2)
O13_2 O 0.1987(5) 0.4390(3) 0.6225(2)
O14_2 O 0.1987(5) 0.7597(4) 0.1225(2)
O15_2 O 0.5610(5) 0.8013(3) 0.1225(2)
O16_2 O 0.5610(5) 0.7597(4) 0.6225(2)
O17_2 O 0.2403(4) 0.8013(3) 0.6225(2)
O26_2 O 0.4362(5) 0.6128(3) 0.2759(2)
O29_2 O 0.3872(5) 0.8234(4) 0.2759(2)
O30_2 O 0.1766(4) 0.5638(3) 0.2759(2)
O31 O 0.1766(4) 0.6128(3) 0.7759(2)
O32 O 0.4362(5) 0.8234(4) 0.7759(2)
O33 O 0.3872(5) 0.5638(3) 0.7759(2)
C5_2 C 0.2729(5) 0.4530(3) 0.5659(2)
C6_2 C 0.2729(5) 0.8199(4) 0.0659(2)
C7_2 C 0.5470(5) 0.7271(3) 0.0659(2)
C8_2 C 0.5470(5) 0.8199(4) 0.5659(2)
C9_2 C 0.1801(4) 0.7271(3) 0.5659(2)
C10_2 C 0.2563(5) 0.3522(3) 0.5087(2)
C11_2 C 0.2563(5) 0.9041(4) 0.0087(2)
C12_2 C 0.6478(5) 0.7437(3) 0.0087(2)
C13_2 C 0.6478(5) 0.9041(4) 0.5087(2)
C14_2 C 0.0959(4) 0.7437(3) 0.5087(2)
C15_2 C 0.3341(7) 0.4464(4) 0.3632(2)
C18_2 C 0.5536(7) 0.8877(6) 0.3632(2)
C19_2 C 0.1123(6) 0.6659(4) 0.3632(2)
C20_2 C 0.4393(5) 0.5609(3) 0.3429(3)
C23_2 C 0.4391(5) 0.8784(4) 0.3429(3)
C24_2 C 0.1216(4) 0.5607(3) 0.3429(3)
H14_2 H 0.1833 0.3195 0.4779
H17_2 H 0.6805 0.8638 0.4779
H18_2 H 0.1362 0.8167 0.4779
H19_2 H 0.2553 0.2935 0.5469
H20_2 H 0.2553 0.9618 0.0469
H21_2 H 0.7065 0.7447 0.0469
H22_2 H 0.7065 0.9618 0.5469
H23_2 H 0.0382 0.7447 0.5469
H24_2 H 0.3164 0.3968 0.3115
H27_2 H 0.6032 0.9196 0.3115
H28_2 H 0.0804 0.6836 0.3115
H29_2 H 0.2696 0.4579 0.3736
H32_2 H 0.5421 0.8117 0.3736
H33_2 H 0.1883 0.7304 0.3736
H36_4 H 0.714764 0.634635 0.512574
H37_4 H 0.664878 0.57231 0.61097
C3_2 C 0.1123(6) 0.4464(4) 0.8632(2)
C4_2 C 0.1216(4) 0.5609(3) 0.8429(3)
H2_2 H 0.1362 0.3195 0.9779
H4_2 H 0.0804 0.3968 0.8115
H5_2 H 0.1883 0.4579 0.8736
C16_2 C 0.3341(7) 0.8877(6) 0.8632(2)
C17_2 C 0.5536(7) 0.6659(4) 0.8632(2)
C21_2 C 0.4393(5) 0.8784(4) 0.8429(3)
C22_2 C 0.4391(5) 0.5607(3) 0.8429(3)
H15_2 H 0.1833 0.8638 0.9779
H16_2 H 0.6805 0.8167 0.9779
H25_2 H 0.3164 0.9196 0.8115
H26_2 H 0.6032 0.6836 0.8115
H30_2 H 0.2696 0.8117 0.8736
H31_2 H 0.5421 0.7304 0.8736
H34_2 H 0.907432 0.57231 0.11097
H35_2 H 0.919872 0.634635 0.012574
H38_4 H 0.42769 0.335122 0.11097
H39_4 H 0.365365 0.285236 0.012574
H36_5 H 0.919872 0.285236 0.512574
H37_5 H 0.907432 0.335122 0.61097
H36_6 H 0.365365 0.0801284 0.512574
H37_6 H 0.42769 0.0925681 0.61097
loop_
_geom_bond_atom_site_label_1
_geom_bond_atom_site_label_2
_geom_bond_site_symmetry_1
_geom_bond_site_symmetry_2
O11 Cu2 1_555 1_555
O24 Cu2_2 1_555 1_555
N8 Cu2_2 1_555 1_555
N8 H36 1_555 1_555
N8 H37 1_555 1_555
La1 O1 1_555 1_555
Cu1 O1 1_555 1_555
O1 C1 1_555 1_555
O2 La1 1_555 1_555
O3 Cu1 1_555 1_555
O4 C4 1_555 1_555
N1 Cu1 1_555 1_555
C1 O2 1_555 1_555
C2 N1 1_555 1_555
C3 N1 1_555 1_555
C4 O3 1_555 1_555
H1 N1 1_555 1_555
H2 C2 1_555 1_555
H3 C2 1_555 1_555
H4 C3 1_555 1_555
H5 C3 1_555 1_555
La3 O4 1_555 1_555
Cu3 O6 1_555 1_555
Cu4_2 O7 1_555 1_555
O6 La1 1_555 1_555
O7 La1 1_555 1_555
O10 Cu1 1_555 1_555
O14 La1 1_555 1_555
O15 La1 1_555 1_555
O18 Cu2_3 1_555 1_555
O19 Cu3 1_555 1_555
O20 Cu4_2 1_555 1_555
O21 Cu5 1_555 1_555
O22 Cu6 1_555 1_555
O23 Cu1 1_555 1_555
O26 La1 1_555 1_555
O27 La3 1_555 1_555
O28 La3 1_555 1_555
O29 La1 1_555 1_555
O30 La1 1_555 1_555
N2 Cu2_3 1_555 1_555
N3 Cu3 1_555 1_555
N4 Cu4_2 1_555 1_555
N5 Cu5 1_555 1_555
N6 Cu6 1_555 1_555
N7 Cu1 1_555 1_555
C6 O6 1_555 1_555
C7 O7 1_555 1_555
C11 N3 1_555 1_555
C12 N4 1_555 1_555
C15 N2 1_555 1_555
C16 N3 1_555 1_555
C17 N4 1_555 1_555
C18 N5 1_555 1_555
C19 N6 1_555 1_555
C20 O18 1_555 1_555
C21 O19 1_555 1_555
C22 O20 1_555 1_555
C23 O21 1_555 1_555
C24 O22 1_555 1_555
H10 N6 1_555 1_555
H11 N7 1_555 1_555
H15 C11 1_555 1_555
H16 C12 1_555 1_555
H20 C11 1_555 1_555
H21 C12 1_555 1_555
H24 C15 1_555 1_555
H25 C16 1_555 1_555
H26 C17 1_555 1_555
H27 C18 1_555 1_555
H28 C19 1_555 1_555
H29 C15 1_555 1_555
H30 C16 1_555 1_555
H31 C17 1_555 1_555
H32 C18 1_555 1_555
H33 C19 1_555 1_555
C1 C2 1_555 1_555
C3 C4 1_555 1_555
O14 C6 1_555 1_555
O15 C7 1_555 1_555
O26 C20 1_555 1_555
O27 C21 1_555 1_555
O28 C22 1_555 1_555
O29 C23 1_555 1_555
O30 C24 1_555 1_555
C6 C11 1_555 1_555
C7 C12 1_555 1_555
C15 C20 1_555 1_555
C16 C21 1_555 1_555
C17 C22 1_555 1_555
C18 C23 1_555 1_555
C19 C24 1_555 1_555
N7 H34 1_555 1_555
N7 H35 1_555 1_555
La3 O5 1_555 1_555
Cu2_4 O5 1_555 1_555
Cu5_2 O8 1_555 1_555
Cu6_2 O9 1_555 1_555
O5 C5 1_555 1_555
O8 La3 1_555 1_555
O9 La3 1_555 1_555
O13 La3 1_555 1_555
O16 La3 1_555 1_555
O17 La3 1_555 1_555
C5 O13 1_555 1_555
C8 O8 1_555 1_555
C9 O9 1_555 1_555
H19 C10 1_555 1_555
H22 C13 1_555 1_555
H23 C14 1_555 1_555
O16 C8 1_555 1_555
O17 C9 1_555 1_555
C5 C10 1_555 1_555
C8 C13 1_555 1_555
C9 C14 1_555 1_555
O12 Cu3_2 1_555 1_555
O25 Cu3_2 1_555 1_555
N9 Cu3_2 1_555 1_555
N9 H38 1_555 1_555
N9 H39 1_555 1_555
O12_2 Cu4 1_555 1_555
O25_2 Cu4 1_555 1_555
N9_2 Cu4 1_555 1_555
N9_2 H38_2 1_555 1_555
N9_2 H39_2 1_555 1_555
O11_2 Cu6 1_555 1_555
O24_2 Cu6_2 1_555 1_555
N8_2 Cu6_2 1_555 1_555
H12_2 N8_2 1_555 1_555
N8_2 H36_2 1_555 1_555
N8_2 H37_2 1_555 1_555
O11_3 Cu5_3 1_555 1_555
O24_3 Cu5_4 1_555 1_555
N8_3 Cu5_4 1_555 1_555
N8_3 H36_3 1_555 1_555
N8_3 H37_3 1_555 1_555
N5 H38_3 1_555 1_555
N5 H39_3 1_555 1_555
La1_2 O11 1_555 1_555
O11 C1_2 1_555 1_555
O2_2 La1_2 1_555 1_555
C1_2 O2_2 1_555 1_555
H3_2 C2_2 1_555 1_555
La2 O10 1_555 1_555
O10 C5_2 1_555 1_555
O11_3 La1_2 1_555 1_555
O11_2 La1_2 1_555 1_555
O12 La2 1_555 1_555
O12_2 La2 1_555 1_555
O13_2 La2 1_555 1_555
O14_2 La1_2 1_555 1_555
O15_2 La1_2 1_555 1_555
O16_2 La2 1_555 1_555
O17_2 La2 1_555 1_555
O26_2 La1_2 1_555 1_555
O29_2 La1_2 1_555 1_555
O30_2 La1_2 1_555 1_555
O31 La2 1_555 1_555
O32 La2 1_555 1_555
O33 La2 1_555 1_555
C5_2 O13_2 1_555 1_555
C6_2 O11_3 1_555 1_555
C7_2 O11_2 1_555 1_555
C8_2 O12 1_555 1_555
C9_2 O12_2 1_555 1_555
C10_2 N7 1_555 1_555
C13_2 N9 1_555 1_555
C14_2 N9_2 1_555 1_555
C15_2 N7 1_555 1_555
C18_2 N9 1_555 1_555
C19_2 N9_2 1_555 1_555
C20_2 O23 1_555 1_555
C23_2 O25 1_555 1_555
C24_2 O25_2 1_555 1_555
H14_2 C10_2 1_555 1_555
H17_2 C13_2 1_555 1_555
H18_2 C14_2 1_555 1_555
H19_2 C10_2 1_555 1_555
H20_2 C11_2 1_555 1_555
H21_2 C12_2 1_555 1_555
H22_2 C13_2 1_555 1_555
H23_2 C14_2 1_555 1_555
H24_2 C15_2 1_555 1_555
H27_2 C18_2 1_555 1_555
H28_2 C19_2 1_555 1_555
H29_2 C15_2 1_555 1_555
H32_2 C18_2 1_555 1_555
H33_2 C19_2 1_555 1_555
C1_2 C2_2 1_555 1_555
O14_2 C6_2 1_555 1_555
O15_2 C7_2 1_555 1_555
O16_2 C8_2 1_555 1_555
O17_2 C9_2 1_555 1_555
O26_2 C20_2 1_555 1_555
O29_2 C23_2 1_555 1_555
O30_2 C24_2 1_555 1_555
C5_2 C10_2 1_555 1_555
C6_2 C11_2 1_555 1_555
C7_2 C12_2 1_555 1_555
C8_2 C13_2 1_555 1_555
C9_2 C14_2 1_555 1_555
C15_2 C20_2 1_555 1_555
C18_2 C23_2 1_555 1_555
C19_2 C24_2 1_555 1_555
N1 H36_4 1_555 1_555
N1 H37_4 1_555 1_555
O31 C4_2 1_555 1_555
C3_2 N8 1_555 1_555
C4_2 O24 1_555 1_555
H4_2 C3_2 1_555 1_555
H5_2 C3_2 1_555 1_555
C16_2 N8_3 1_555 1_555
C17_2 N8_2 1_555 1_555
C21_2 O24_3 1_555 1_555
C22_2 O24_2 1_555 1_555
H25_2 C16_2 1_555 1_555
H26_2 C17_2 1_555 1_555
H30_2 C16_2 1_555 1_555
H31_2 C17_2 1_555 1_555
C3_2 C4_2 1_555 1_555
O32 C21_2 1_555 1_555
O33 C22_2 1_555 1_555
C16_2 C21_2 1_555 1_555
C17_2 C22_2 1_555 1_555
N2 H34_2 1_555 1_555
N2 H35_2 1_555 1_555
N6 H38_4 1_555 1_555
N6 H39_4 1_555 1_555
N4 H36_5 1_555 1_555
N4 H37_5 1_555 1_555
N3 H36_6 1_555 1_555
N3 H37_6 1_555 1_555

#END
