
###############################################################################
#
# This file contains modified crystal structure data generated from the
# MOF subset of the Cambridge Structural Database (CSD) v543 
# hosted by the Cambridge Crystallographic Data Centre (CCDC).
#
# This work is licensed under the Creative Commons
# Attribution-NonCommercial-ShareAlike 4.0 International License.
# To view a copy of this license, visit
# http://creativecommons.org/licenses/by-nc-sa/4.0/
# or send a letter to
# Creative Commons, PO Box 1866, Mountain View, CA 94042, USA.
#
# CIF created using the CSD Python API on 29 September 2022
# The structure has been converted into the P1 space group
# The structure has a 3D framework
# The original CSD entry IBATAI is in the trigonal crystal system
# The framework has been calculated to contain at least 10.0% void space
# The void calculation uses a probe of radius 1.32A, grid spacing 0.4
# H atom positions have been added when not included in the experimental data
#
###############################################################################

data_IBATAI
_chemical_formula_moiety         '(C48 H84 Cu4 La4 N12 O48)n'
_symmetry_cell_setting           triclinic
_symmetry_space_group_name_H-M   'P 1'
_symmetry_Int_Tables_number      1
_space_group_name_Hall           'P 1'
loop_
_symmetry_equiv_pos_site_id
_symmetry_equiv_pos_as_xyz
1 x,y,z
_cell_length_a                   13.3740(6)
_cell_length_b                   13.3740(6)
_cell_length_c                   14.9482(8)
_cell_angle_alpha                90
_cell_angle_beta                 90
_cell_angle_gamma                120
_cell_volume                     2315.49
loop_
_atom_site_label
_atom_site_type_symbol
_atom_site_fract_x
_atom_site_fract_y
_atom_site_fract_z
Cu1 Cu -0.0000 0.5000 0.5000
H1 H 0.0281 0.6754 0.5768
Cu5 Cu -0.0000 0.5000 0.0000
O10 O 0.18253(18) 0.54570(17) 0.55631(14)
O23 O 0.07552(18) 0.59939(18) 0.39681(13)
N7 N 0.0385(2) 0.3872(2) 0.44201(15)
H9 H 0.0281 0.3527 0.0768
H34 H 0.0784999 0.362133 0.487002
H35 H 0.0914245 0.425247 0.388892
Cu5_2 Cu -0.0000 0.5000 1.0000
La1 La 0.6667 0.3333 0.330384(16)
Cu1_2 Cu 1.0000 0.5000 0.5000
O1 O 0.81747(18) 0.45430(17) 0.44369(14)
O2 O 0.75980(19) 0.56512(19) 0.37778(14)
O3 O 0.92448(18) 0.40061(18) 0.60319(13)
O4 O 0.8231(2) 0.3855(2) 0.72457(15)
N1 N 0.9615(2) 0.6128(2) 0.55799(15)
C1 C 0.8212(2) 0.5502(2) 0.43380(18)
C2 C 0.9059(2) 0.6504(2) 0.49144(19)
C3 C 0.8881(2) 0.5547(2) 0.63717(19)
C4 C 0.8785(2) 0.4390(2) 0.65631(19)
H2 H 0.9645 0.7097 0.4536
H3 H 0.8654 0.6837 0.5220
H4 H 0.8114 0.5434 0.6270
H5 H 0.9204 0.6042 0.6891
La3 La 0.6666 0.3333 0.830384(16)
Cu2 Cu 0.5000 0.5000 0.0000
Cu3 Cu 0.5000 -0.0000 0.5000
Cu4 Cu 0.5000 0.5000 0.5000
Cu5_3 Cu 1.0000 0.5000 0.0000
Cu6 Cu 0.5000 0.0000 0.0000
O6 O 0.63683(25) 0.18253(18) 0.44369(14)
O7 O 0.54570(17) 0.36317(25) 0.44369(14)
O11 O 0.36317(25) 0.54570(17) 0.05631(14)
O14 O 0.80532(27) 0.24020(19) 0.37778(14)
O15 O 0.43488(19) 0.19468(27) 0.37778(14)
O18 O 0.47613(25) 0.40061(18) 0.10319(13)
O19 O 0.47613(25) 0.07552(18) 0.60319(13)
O20 O 0.59939(18) 0.52387(25) 0.60319(13)
O21 O 0.92448(18) 0.52387(25) 0.10319(13)
O22 O 0.59939(18) 0.07552(18) 0.10319(13)
O26 O 0.5624(3) 0.3855(2) 0.22457(15)
O27 O 0.5624(3) 0.1769(2) 0.72457(15)
O28 O 0.6145(2) 0.4376(3) 0.72457(15)
O29 O 0.8231(2) 0.4376(3) 0.22457(15)
O30 O 0.6145(2) 0.1769(2) 0.22457(15)
N2 N 0.6513(3) 0.6128(2) 0.05799(15)
N3 N 0.6513(3) 0.0385(2) 0.55799(15)
N4 N 0.3872(2) 0.3487(3) 0.55799(15)
N5 N 0.9615(2) 0.3487(3) 0.05799(15)
N6 N 0.3872(2) 0.0385(2) 0.05799(15)
C6 C 0.7290(3) 0.1788(2) 0.43380(18)
C7 C 0.4498(2) 0.2710(3) 0.43380(18)
C11 C 0.7445(3) 0.0941(2) 0.49144(19)
C12 C 0.3496(2) 0.2555(3) 0.49144(19)
C15 C 0.6666(3) 0.5547(2) 0.13717(19)
C16 C 0.6666(3) 0.1119(2) 0.63717(19)
C17 C 0.4453(2) 0.3334(3) 0.63717(19)
C18 C 0.8881(2) 0.3334(3) 0.13717(19)
C19 C 0.4453(2) 0.1119(2) 0.13717(19)
C20 C 0.5605(3) 0.4390(2) 0.15631(19)
C21 C 0.5605(3) 0.1215(2) 0.65631(19)
C22 C 0.5610(2) 0.4395(3) 0.65631(19)
C23 C 0.8785(2) 0.4395(3) 0.15631(19)
C24 C 0.5610(2) 0.1215(2) 0.15631(19)
H6 H 0.6473 0.6754 0.0768
H8 H 0.3246 0.3527 0.5768
H11 H 0.9719 0.3246 0.4232
H13 H 0.3527 0.0281 0.4232
H15 H 0.7452 0.0355 0.4536
H16 H 0.2903 0.2548 0.4536
H19 H 0.8183 0.6837 0.0220
H20 H 0.8183 0.1346 0.5220
H21 H 0.3163 0.1817 0.5220
H22 H 0.8654 0.1817 0.0220
H23 H 0.3163 0.1346 0.0220
H24 H 0.7320 0.5434 0.1270
H25 H 0.7320 0.1886 0.6270
H26 H 0.4566 0.2680 0.6270
H27 H 0.8114 0.2680 0.1270
H28 H 0.4566 0.1886 0.1270
H29 H 0.6838 0.6042 0.1891
H30 H 0.6838 0.0796 0.6891
H31 H 0.3958 0.3162 0.6891
H32 H 0.9204 0.3162 0.1891
H33 H 0.3958 0.0796 0.1891
Cu2_2 Cu 0.5000 0.5000 1.0000
Cu5_4 Cu 1.0000 0.5000 1.0000
Cu6_2 Cu 0.5000 -0.0000 1.0000
O5 O 0.63683(25) 0.45430(17) 0.94369(14)
O8 O 0.81747(18) 0.36317(25) 0.94369(14)
O9 O 0.54570(17) 0.18253(18) 0.94369(14)
O13 O 0.80532(27) 0.56512(19) 0.87778(14)
O16 O 0.75980(19) 0.19468(27) 0.87778(14)
O17 O 0.43488(19) 0.24020(19) 0.87778(14)
O24 O 0.52387(25) 0.59939(18) 0.89681(13)
N8 N 0.3487(3) 0.3872(2) 0.94201(15)
C5 C 0.7290(3) 0.5502(2) 0.93380(18)
C8 C 0.8212(2) 0.2710(3) 0.93380(18)
C9 C 0.4498(2) 0.1788(2) 0.93380(18)
C10 C 0.7445(3) 0.6504(2) 0.99144(19)
C13 C 0.9059(2) 0.2555(3) 0.99144(19)
C14 C 0.3496(2) 0.0941(2) 0.99144(19)
H12 H 0.3527 0.3246 0.9232
H14 H 0.7452 0.7097 0.9536
H17 H 0.9645 0.2548 0.9536
H18 H 0.2903 0.0355 0.9536
H36 H 0.333822 0.425247 0.888892
H37 H 0.283633 0.362133 0.987002
Cu3_2 Cu 0.5000 1.0000 0.5000
Cu6_3 Cu 0.5000 1.0000 0.0000
O12 O 0.36317(25) 0.81747(18) 0.55631(14)
O25 O 0.52387(25) 0.92448(18) 0.39681(13)
N9 N 0.3487(3) 0.9615(2) 0.44201(15)
H7 H 0.6473 0.9719 0.5768
H10 H 0.3246 0.9719 0.0768
H38 H 0.283633 0.9215 0.487002
H39 H 0.333822 0.908576 0.388892
Cu6_4 Cu 0.5000 1.0000 1.0000
O10_2 O 0.45430(17) 0.63683(25) 0.55631(14)
O23_2 O 0.40061(18) 0.47613(25) 0.39681(13)
N7_2 N 0.6128(2) 0.6513(3) 0.44201(15)
H11_2 H 0.6754 0.6473 0.4232
H34_2 H 0.637867 0.716367 0.487002
H35_2 H 0.574753 0.666178 0.388892
H12_2 H 0.6754 0.0281 0.9232
O11_2 O 0.45430(17) 0.81747(30) 0.05631(14)
O24_2 O 0.40061(18) 0.92448(31) 0.89681(13)
N8_2 N 0.6128(2) 0.9615(4) 0.94201(15)
H36_2 H 0.574753 0.908576 0.888892
H37_2 H 0.637867 0.9215 0.987002
O11_3 O 0.18253(30) 0.63683(25) 0.05631(14)
O24_3 O 0.07552(31) 0.47613(25) 0.89681(13)
N8_3 N 0.0385(4) 0.6513(3) 0.94201(15)
H36_3 H 0.0914245 0.666178 0.888892
H37_3 H 0.0784999 0.716367 0.987002
H12_3 H 0.9719 0.6473 0.9232
H38_2 H 0.362133 0.0784999 0.0129983
H39_2 H 0.425247 0.0914245 0.111108
La1_2 La 0.3334 0.6667 0.169616(16)
O2_2 O 0.19468(27) 0.43488(19) 0.12222(14)
C1_2 C 0.2710(3) 0.4498(2) 0.06620(18)
C2_2 C 0.2555(3) 0.3496(2) 0.00856(19)
H2_2 H 0.2548 0.2903 0.0464
La2 La 0.3333 0.6667 0.669616(16)
O13_2 O 0.24020(33) 0.43488(19) 0.62222(14)
O14_2 O 0.56512(33) 0.75980(19) 0.12222(14)
O15_2 O 0.24020(33) 0.80532(27) 0.12222(14)
O16_2 O 0.56512(33) 0.80532(27) 0.62222(14)
O17_2 O 0.19468(27) 0.75980(19) 0.62222(14)
O26_2 O 0.1769(4) 0.6145(2) 0.27543(15)
O29_2 O 0.3855(4) 0.5624(3) 0.27543(15)
O30_2 O 0.4376(3) 0.8231(2) 0.27543(15)
O31 O 0.4376(3) 0.6145(2) 0.77543(15)
O32 O 0.1769(4) 0.5624(3) 0.77543(15)
O33 O 0.3855(4) 0.8231(2) 0.77543(15)
C5_2 C 0.1788(4) 0.4498(2) 0.56620(18)
C6_2 C 0.5502(4) 0.8212(2) 0.06620(18)
C7_2 C 0.1788(4) 0.7290(3) 0.06620(18)
C8_2 C 0.5502(4) 0.7290(3) 0.56620(18)
C9_2 C 0.2710(3) 0.8212(2) 0.56620(18)
C10_2 C 0.0941(4) 0.3496(2) 0.50856(19)
C11_2 C 0.6504(4) 0.9059(2) 0.00856(19)
C12_2 C 0.0941(4) 0.7445(3) 0.00856(19)
C13_2 C 0.6504(4) 0.7445(3) 0.50856(19)
C14_2 C 0.2555(3) 0.9059(2) 0.50856(19)
C15_2 C 0.1119(4) 0.4453(2) 0.36283(19)
C18_2 C 0.5547(4) 0.6666(3) 0.36283(19)
C19_2 C 0.3334(3) 0.8881(2) 0.36283(19)
C20_2 C 0.1215(4) 0.5610(2) 0.34369(19)
C23_2 C 0.4390(4) 0.5605(3) 0.34369(19)
C24_2 C 0.4395(3) 0.8785(2) 0.34369(19)
H14_2 H 0.0355 0.2903 0.5464
H15_2 H 0.7097 0.9645 0.0464
H16_2 H 0.0355 0.7452 0.0464
H17_2 H 0.7097 0.7452 0.5464
H18_2 H 0.2548 0.9645 0.5464
H19_2 H 0.1346 0.3163 0.4780
H22_2 H 0.6837 0.8183 0.4780
H23_2 H 0.1817 0.8654 0.4780
H24_2 H 0.1886 0.4566 0.3730
H27_2 H 0.5434 0.7320 0.3730
H28_2 H 0.2680 0.8114 0.3730
H29_2 H 0.0796 0.3958 0.3109
H32_2 H 0.6042 0.6838 0.3109
H33_2 H 0.3162 0.9204 0.3109
H34_3 H 0.716367 0.637867 0.0129983
H35_3 H 0.666178 0.574753 0.111108
C3_2 C 0.3334(3) 0.4453(2) 0.86283(19)
C4_2 C 0.4395(3) 0.5610(2) 0.84369(19)
H3_2 H 0.1817 0.3163 0.9780
H4_2 H 0.2680 0.4566 0.8730
H5_2 H 0.3162 0.3958 0.8109
C16_2 C 0.5547(4) 0.8881(2) 0.86283(19)
C17_2 C 0.1119(4) 0.6666(3) 0.86283(19)
C21_2 C 0.4390(4) 0.8785(2) 0.84369(19)
C22_2 C 0.1215(4) 0.5605(3) 0.84369(19)
H20_2 H 0.6837 0.8654 0.9780
H21_2 H 0.1346 0.8183 0.9780
H25_2 H 0.5434 0.8114 0.8730
H26_2 H 0.1886 0.7320 0.8730
H30_2 H 0.6042 0.9204 0.8109
H31_2 H 0.0796 0.6838 0.8109
H36_4 H 0.908576 0.574753 0.611108
H37_4 H 0.9215 0.637867 0.512998
H36_5 H 0.666178 0.0914245 0.611108
H37_5 H 0.716367 0.0784999 0.512998
H34_4 H 0.9215 0.283633 0.0129983
H35_4 H 0.908576 0.333822 0.111108
H36_6 H 0.425247 0.333822 0.611108
H37_6 H 0.362133 0.283633 0.512998
loop_
_geom_bond_atom_site_label_1
_geom_bond_atom_site_label_2
_geom_bond_site_symmetry_1
_geom_bond_site_symmetry_2
O10 Cu1 1_555 1_555
O23 Cu1 1_555 1_555
N7 Cu1 1_555 1_555
N7 H34 1_555 1_555
N7 H35 1_555 1_555
La1 O1 1_555 1_555
Cu1_2 O1 1_555 1_555
O1 C1 1_555 1_555
O2 La1 1_555 1_555
O3 Cu1_2 1_555 1_555
O4 C4 1_555 1_555
N1 Cu1_2 1_555 1_555
C1 O2 1_555 1_555
C2 N1 1_555 1_555
C3 N1 1_555 1_555
C4 O3 1_555 1_555
H2 C2 1_555 1_555
H3 C2 1_555 1_555
H4 C3 1_555 1_555
H5 C3 1_555 1_555
La3 O4 1_555 1_555
Cu3 O6 1_555 1_555
Cu4 O7 1_555 1_555
O6 La1 1_555 1_555
O7 La1 1_555 1_555
O11 Cu2 1_555 1_555
O14 La1 1_555 1_555
O15 La1 1_555 1_555
O18 Cu2 1_555 1_555
O19 Cu3 1_555 1_555
O20 Cu4 1_555 1_555
O21 Cu5_3 1_555 1_555
O22 Cu6 1_555 1_555
O26 La1 1_555 1_555
O27 La3 1_555 1_555
O28 La3 1_555 1_555
O29 La1 1_555 1_555
O30 La1 1_555 1_555
N2 Cu2 1_555 1_555
N3 Cu3 1_555 1_555
N4 Cu4 1_555 1_555
N5 Cu5_3 1_555 1_555
N6 Cu6 1_555 1_555
C6 O6 1_555 1_555
C7 O7 1_555 1_555
C11 N3 1_555 1_555
C12 N4 1_555 1_555
C15 N2 1_555 1_555
C16 N3 1_555 1_555
C17 N4 1_555 1_555
C18 N5 1_555 1_555
C19 N6 1_555 1_555
C20 O18 1_555 1_555
C21 O19 1_555 1_555
C22 O20 1_555 1_555
C23 O21 1_555 1_555
C24 O22 1_555 1_555
H6 N2 1_555 1_555
H8 N4 1_555 1_555
H15 C11 1_555 1_555
H16 C12 1_555 1_555
H20 C11 1_555 1_555
H21 C12 1_555 1_555
H24 C15 1_555 1_555
H25 C16 1_555 1_555
H26 C17 1_555 1_555
H27 C18 1_555 1_555
H28 C19 1_555 1_555
H29 C15 1_555 1_555
H30 C16 1_555 1_555
H31 C17 1_555 1_555
H32 C18 1_555 1_555
H33 C19 1_555 1_555
C1 C2 1_555 1_555
C3 C4 1_555 1_555
O14 C6 1_555 1_555
O15 C7 1_555 1_555
O26 C20 1_555 1_555
O27 C21 1_555 1_555
O28 C22 1_555 1_555
O29 C23 1_555 1_555
O30 C24 1_555 1_555
C6 C11 1_555 1_555
C7 C12 1_555 1_555
C15 C20 1_555 1_555
C16 C21 1_555 1_555
C17 C22 1_555 1_555
C18 C23 1_555 1_555
C19 C24 1_555 1_555
La3 O5 1_555 1_555
Cu2_2 O5 1_555 1_555
Cu5_4 O8 1_555 1_555
Cu6_2 O9 1_555 1_555
O5 C5 1_555 1_555
O8 La3 1_555 1_555
O9 La3 1_555 1_555
O13 La3 1_555 1_555
O16 La3 1_555 1_555
O17 La3 1_555 1_555
O24 Cu2_2 1_555 1_555
N8 Cu2_2 1_555 1_555
C5 O13 1_555 1_555
C8 O8 1_555 1_555
C9 O9 1_555 1_555
H12 N8 1_555 1_555
H14 C10 1_555 1_555
H17 C13 1_555 1_555
H18 C14 1_555 1_555
O16 C8 1_555 1_555
O17 C9 1_555 1_555
C5 C10 1_555 1_555
C8 C13 1_555 1_555
C9 C14 1_555 1_555
N8 H36 1_555 1_555
N8 H37 1_555 1_555
O12 Cu3_2 1_555 1_555
O25 Cu3_2 1_555 1_555
N9 Cu3_2 1_555 1_555
N9 H38 1_555 1_555
N9 H39 1_555 1_555
O10_2 Cu4 1_555 1_555
O23_2 Cu4 1_555 1_555
N7_2 Cu4 1_555 1_555
H11_2 N7_2 1_555 1_555
N7_2 H34_2 1_555 1_555
N7_2 H35_2 1_555 1_555
O11_2 Cu6_3 1_555 1_555
O24_2 Cu6_4 1_555 1_555
N8_2 Cu6_4 1_555 1_555
N8_2 H36_2 1_555 1_555
N8_2 H37_2 1_555 1_555
O11_3 Cu5 1_555 1_555
O24_3 Cu5_2 1_555 1_555
N8_3 Cu5_2 1_555 1_555
N8_3 H36_3 1_555 1_555
N8_3 H37_3 1_555 1_555
N6 H38_2 1_555 1_555
N6 H39_2 1_555 1_555
La1_2 O11 1_555 1_555
O11 C1_2 1_555 1_555
O2_2 La1_2 1_555 1_555
C1_2 O2_2 1_555 1_555
H2_2 C2_2 1_555 1_555
La2 O10 1_555 1_555
O10 C5_2 1_555 1_555
O11_2 La1_2 1_555 1_555
O11_3 La1_2 1_555 1_555
O10_2 La2 1_555 1_555
O12 La2 1_555 1_555
O13_2 La2 1_555 1_555
O14_2 La1_2 1_555 1_555
O15_2 La1_2 1_555 1_555
O16_2 La2 1_555 1_555
O17_2 La2 1_555 1_555
O26_2 La1_2 1_555 1_555
O29_2 La1_2 1_555 1_555
O30_2 La1_2 1_555 1_555
O31 La2 1_555 1_555
O32 La2 1_555 1_555
O33 La2 1_555 1_555
C5_2 O13_2 1_555 1_555
C6_2 O11_2 1_555 1_555
C7_2 O11_3 1_555 1_555
C8_2 O10_2 1_555 1_555
C9_2 O12 1_555 1_555
C10_2 N7 1_555 1_555
C13_2 N7_2 1_555 1_555
C14_2 N9 1_555 1_555
C15_2 N7 1_555 1_555
C18_2 N7_2 1_555 1_555
C19_2 N9 1_555 1_555
C20_2 O23 1_555 1_555
C23_2 O23_2 1_555 1_555
C24_2 O25 1_555 1_555
H14_2 C10_2 1_555 1_555
H15_2 C11_2 1_555 1_555
H16_2 C12_2 1_555 1_555
H17_2 C13_2 1_555 1_555
H18_2 C14_2 1_555 1_555
H19_2 C10_2 1_555 1_555
H22_2 C13_2 1_555 1_555
H23_2 C14_2 1_555 1_555
H24_2 C15_2 1_555 1_555
H27_2 C18_2 1_555 1_555
H28_2 C19_2 1_555 1_555
H29_2 C15_2 1_555 1_555
H32_2 C18_2 1_555 1_555
H33_2 C19_2 1_555 1_555
C1_2 C2_2 1_555 1_555
O14_2 C6_2 1_555 1_555
O15_2 C7_2 1_555 1_555
O16_2 C8_2 1_555 1_555
O17_2 C9_2 1_555 1_555
O26_2 C20_2 1_555 1_555
O29_2 C23_2 1_555 1_555
O30_2 C24_2 1_555 1_555
C5_2 C10_2 1_555 1_555
C6_2 C11_2 1_555 1_555
C7_2 C12_2 1_555 1_555
C8_2 C13_2 1_555 1_555
C9_2 C14_2 1_555 1_555
C15_2 C20_2 1_555 1_555
C18_2 C23_2 1_555 1_555
C19_2 C24_2 1_555 1_555
N2 H34_3 1_555 1_555
N2 H35_3 1_555 1_555
O31 C4_2 1_555 1_555
C3_2 N8 1_555 1_555
C4_2 O24 1_555 1_555
H4_2 C3_2 1_555 1_555
H5_2 C3_2 1_555 1_555
C16_2 N8_2 1_555 1_555
C17_2 N8_3 1_555 1_555
C21_2 O24_2 1_555 1_555
C22_2 O24_3 1_555 1_555
H25_2 C16_2 1_555 1_555
H26_2 C17_2 1_555 1_555
H30_2 C16_2 1_555 1_555
H31_2 C17_2 1_555 1_555
C3_2 C4_2 1_555 1_555
O33 C21_2 1_555 1_555
O32 C22_2 1_555 1_555
C16_2 C21_2 1_555 1_555
C17_2 C22_2 1_555 1_555
N1 H36_4 1_555 1_555
N1 H37_4 1_555 1_555
N3 H36_5 1_555 1_555
N3 H37_5 1_555 1_555
N5 H34_4 1_555 1_555
N5 H35_4 1_555 1_555
N4 H36_6 1_555 1_555
N4 H37_6 1_555 1_555

#END
