
###############################################################################
#
# This file contains modified crystal structure data generated from the
# MOF subset of the Cambridge Structural Database (CSD) v543 
# hosted by the Cambridge Crystallographic Data Centre (CCDC).
#
# This work is licensed under the Creative Commons
# Attribution-NonCommercial-ShareAlike 4.0 International License.
# To view a copy of this license, visit
# http://creativecommons.org/licenses/by-nc-sa/4.0/
# or send a letter to
# Creative Commons, PO Box 1866, Mountain View, CA 94042, USA.
#
# CIF created using the CSD Python API on 29 September 2022
# The structure has been converted into the P1 space group
# The structure has a 3D framework
# The original CSD entry IBERUE is in the monoclinic crystal system
# The framework has been calculated to contain at least 10.0% void space
# The void calculation uses a probe of radius 1.32A, grid spacing 0.4
#
###############################################################################

data_IBERUE
_chemical_formula_moiety         '(C112 H112 Cu20 N16 O32)n'
_symmetry_cell_setting           triclinic
_symmetry_space_group_name_H-M   'P 1'
_symmetry_Int_Tables_number      1
_space_group_name_Hall           'P 1'
loop_
_symmetry_equiv_pos_site_id
_symmetry_equiv_pos_as_xyz
1 x,y,z
_cell_length_a                   17.160(7)
_cell_length_b                   13.169(6)
_cell_length_c                   17.463(8)
_cell_angle_alpha                90
_cell_angle_beta                 103.938(8)
_cell_angle_gamma                90
_cell_volume                     3830.1
loop_
_atom_site_label
_atom_site_type_symbol
_atom_site_fract_x
_atom_site_fract_y
_atom_site_fract_z
O7 O 0.08571(8) 0.06754(11) 0.26665(8)
Cu1 Cu 0.0000 0.96515(2) 0.2500
Cu4 Cu 0.5000 0.46515(2) 0.2500
Cu5 Cu 0.5000 0.5000 0.5000
C15 C 0.32021(10) 0.63424(14) 0.30061(11)
C16 C 0.39921(11) 0.58417(14) 0.29978(11)
C17 C 0.24819(10) 0.61472(14) 0.24095(10)
C18 C 0.24935(11) 0.75512(17) 0.36308(12)
C19 C 0.17780(10) 0.67274(14) 0.24232(11)
C20 C 0.11038(11) 0.81178(15) 0.30690(12)
C21 C 0.24293(13) 0.53937(17) 0.18207(13)
C22 C 0.31938(11) 0.70177(16) 0.36011(11)
C23 C 0.18043(11) 0.74394(15) 0.30392(11)
C24 C 0.10397(13) 0.5790(2) 0.12784(14)
H15 H 0.0566 0.5671 0.0899
C25 C 0.10593(12) 0.65219(17) 0.18410(13)
C26 C 0.17236(15) 0.5223(2) 0.12702(16)
O5 O 0.08118(8) 0.86279(11) 0.24510(9)
O6 O 0.41429(8) 0.56754(11) 0.23335(8)
O9 O 0.44683(9) 0.56283(15) 0.36364(9)
O11 O 0.08801(10) 0.81723(15) 0.36918(9)
H20 H 0.2500(16) 0.803(2) 0.4066(16)
H21 H 0.2855(17) 0.508(2) 0.1782(15)
H22 H 0.0576(17) 0.688(3) 0.1859(17)
H23 H 0.3696(16) 0.710(2) 0.3968(15)
H24 H 0.165(2) 0.465(3) 0.089(2)
O8 O 0.91429(8) 0.06754(11) 0.23335(8)
Cu1_2 Cu 1.0000 0.96515(2) 0.2500
Cu2 Cu 0.5000 0.5000 0.0000
C1 C 0.67979(10) 0.63424(14) 0.19939(11)
C2 C 0.60079(11) 0.58417(14) 0.20022(11)
C3 C 0.75181(10) 0.61472(14) 0.25905(10)
C4 C 0.75065(11) 0.75512(17) 0.13692(12)
C5 C 0.82220(10) 0.67274(14) 0.25768(11)
C6 C 0.88962(11) 0.81178(15) 0.19310(12)
C7 C 0.75707(13) 0.53937(17) 0.31793(13)
C8 C 0.68062(11) 0.70177(16) 0.13989(11)
C9 C 0.81957(11) 0.74394(15) 0.19608(11)
C10 C 0.89603(13) 0.5790(2) 0.37216(14)
H1 H 0.9434 0.5671 0.4101
C11 C 0.89407(12) 0.65219(17) 0.31590(13)
C12 C 0.82764(15) 0.5223(2) 0.37298(16)
C13 C 0.34713(18) 0.5783(3) 0.00924(18)
H2 H 0.3635 0.6148 0.0588
O1 O 0.91882(8) 0.86279(11) 0.25490(9)
O2 O 0.58571(8) 0.56754(11) 0.26665(8)
O3 O 0.55317(9) 0.56283(15) 0.13636(9)
O4 O 0.91199(10) 0.81723(15) 0.13082(9)
N1 N 0.38826(16) 0.4794(2) 0.01510(16)
H6 H 0.7500(16) 0.803(2) 0.0934(16)
H7 H 0.7145(17) 0.508(2) 0.3218(15)
H8 H 0.9424(17) 0.688(3) 0.3141(17)
H9 H 0.6304(16) 0.710(2) 0.1032(15)
H10 H 0.835(2) 0.465(3) 0.411(2)
H14 H 0.384(3) 0.471(4) 0.066(3)
H17 H 0.7106 0.4314 0.0026
C28 C 0.63001(18) 0.3624(2) 0.05617(18)
H18 H 0.6544 0.3929 0.1068
H19 H 0.6491 0.2930 0.0564
N4 N 0.54236(14) 0.36350(17) 0.04280(13)
H25 H 0.530(3) 0.309(5) 0.001(3)
H26 H 0.637(4) 0.553(5) 0.016(3)
H27 H 0.523(2) 0.356(3) 0.081(2)
Cu2_2 Cu 0.5000 0.5000 1.0000
H3 H 0.2894 0.5686 0.9974
C14 C 0.36999(18) 0.6376(2) 0.94383(18)
H4 H 0.3456 0.6071 0.8932
H5 H 0.3509 0.7070 0.9436
N2 N 0.45764(14) 0.63650(17) 0.95720(13)
H11 H 0.470(3) 0.691(5) 0.999(3)
H12 H 0.363(4) 0.447(5) 0.984(3)
H13 H 0.477(2) 0.644(3) 0.919(2)
C27 C 0.65287(18) 0.4217(3) 0.99076(18)
H16 H 0.6365 0.3852 0.9412
O10 O 0.44683(9) 0.43717(15) 0.86364(9)
N3 N 0.61174(16) 0.5206(2) 0.98490(16)
H28 H 0.616(3) 0.529(4) 0.934(3)
C13_2 C 0.65287(18) 0.5783(3) 0.49076(18)
H2_2 H 0.6365 0.6148 0.4412
H3_2 H 0.7106 0.5686 0.5026
C14_2 C 0.63001(18) 0.6376(2) 0.55617(18)
H4_2 H 0.6544 0.6071 0.6068
H5_2 H 0.6491 0.7070 0.5564
N1_2 N 0.61174(16) 0.4794(2) 0.48490(16)
N2_2 N 0.54236(14) 0.63650(17) 0.54280(13)
H11_2 H 0.530(3) 0.691(5) 0.501(3)
H12_2 H 0.637(4) 0.447(5) 0.516(3)
H13_2 H 0.523(2) 0.644(3) 0.581(2)
H14_2 H 0.616(3) 0.471(4) 0.434(3)
C27_2 C 0.34713(18) 0.4217(3) 0.50924(18)
H16_2 H 0.3635 0.3852 0.5588
H17_2 H 0.2894 0.4314 0.4974
C28_2 C 0.36999(18) 0.3624(2) 0.44383(18)
H18_2 H 0.3456 0.3929 0.3932
H19_2 H 0.3509 0.2930 0.4436
O10_2 O 0.55317(9) 0.43717(15) 0.63636(9)
N3_2 N 0.38826(16) 0.5206(2) 0.51510(16)
N4_2 N 0.45764(14) 0.36350(17) 0.45720(13)
H25_2 H 0.470(3) 0.309(5) 0.499(3)
H26_2 H 0.363(4) 0.553(5) 0.484(3)
H27_2 H 0.477(2) 0.356(3) 0.419(2)
H28_2 H 0.384(3) 0.529(4) 0.566(3)
Cu5_2 Cu -0.0000 0.0000 0.5000
Cu5_3 Cu -0.0000 1.0000 0.5000
Cu2_3 Cu 0.0000 0.0000 0.0000
C1_2 C 0.17979(10) 0.13424(14) 0.19939(11)
C2_2 C 0.10079(11) 0.08417(14) 0.20022(11)
C3_2 C 0.25181(10) 0.11472(14) 0.25905(10)
C4_2 C 0.25065(11) 0.25512(17) 0.13692(12)
C5_2 C 0.32220(10) 0.17274(14) 0.25768(11)
C6_2 C 0.38962(11) 0.31178(15) 0.19310(12)
C7_2 C 0.25707(13) 0.03937(17) 0.31793(13)
C8_2 C 0.18062(11) 0.20177(16) 0.13989(11)
C9_2 C 0.31957(11) 0.24394(15) 0.19608(11)
C10_2 C 0.39603(13) 0.0790(2) 0.37216(14)
H1_2 H 0.4434 0.0671 0.4101
C11_2 C 0.39407(12) 0.15219(17) 0.31590(13)
C12_2 C 0.32764(15) 0.0223(2) 0.37298(16)
O1_2 O 0.41882(8) 0.36279(11) 0.25490(9)
O3_2 O 0.05317(9) 0.06283(15) 0.13636(9)
O4_2 O 0.41199(10) 0.31723(15) 0.13082(9)
H6_2 H 0.2500(16) 0.303(2) 0.0934(16)
H7_2 H 0.2145(17) 0.008(2) 0.3218(15)
H8_2 H 0.4424(17) 0.188(3) 0.3141(17)
H9_2 H 0.1304(16) 0.210(2) 0.1032(15)
Cu5_4 Cu 1.0000 0.0000 0.5000
C15_2 C 0.82021(10) 0.13424(14) 0.30061(11)
C16_2 C 0.89921(11) 0.08417(14) 0.29978(11)
C17_2 C 0.74819(10) 0.11472(14) 0.24095(10)
C18_2 C 0.74935(11) 0.25512(17) 0.36308(12)
C19_2 C 0.67780(10) 0.17274(14) 0.24232(11)
C20_2 C 0.61038(11) 0.31178(15) 0.30690(12)
C21_2 C 0.74293(13) 0.03937(17) 0.18207(13)
C22_2 C 0.81938(11) 0.20177(16) 0.36011(11)
C23_2 C 0.68043(11) 0.24394(15) 0.30392(11)
C24_2 C 0.60397(13) 0.0790(2) 0.12784(14)
H15_2 H 0.5566 0.0671 0.0899
C25_2 C 0.60593(12) 0.15219(17) 0.18410(13)
C26_2 C 0.67236(15) 0.0223(2) 0.12702(16)
O5_2 O 0.58118(8) 0.36279(11) 0.24510(9)
O9_2 O 0.94683(9) 0.06283(15) 0.36364(9)
O11_2 O 0.58801(10) 0.31723(15) 0.36918(9)
H20_2 H 0.7500(16) 0.303(2) 0.4066(16)
H21_2 H 0.7855(17) 0.008(2) 0.1782(15)
H22_2 H 0.5576(17) 0.188(3) 0.1859(17)
H23_2 H 0.8696(16) 0.210(2) 0.3968(15)
H26_3 H 0.137(4) 0.053(5) 0.016(3)
Cu2_4 Cu 0.0000 0.0000 1.0000
N3_3 N 0.11174(16) 0.0206(2) 0.98490(16)
H28_3 H 0.116(3) 0.029(4) 0.934(3)
Cu2_5 Cu -0.0000 1.0000 0.0000
H10_2 H 0.335(2) 0.965(3) 0.411(2)
Cu5_5 Cu 1.0000 1.0000 0.5000
H17_3 H 0.2106 0.9314 0.0026
C28_3 C 0.13001(18) 0.8624(2) 0.05617(18)
H18_3 H 0.1544 0.8929 0.1068
H19_3 H 0.1491 0.7930 0.0564
N4_3 N 0.04236(14) 0.86350(17) 0.04280(13)
H24_2 H 0.665(2) 0.965(3) 0.089(2)
H25_3 H 0.030(3) 0.809(5) 0.001(3)
H27_3 H 0.023(2) 0.856(3) 0.081(2)
Cu2_6 Cu 1.0000 0.0000 1.0000
H3_3 H 0.7894 0.0686 0.9974
C14_3 C 0.86999(18) 0.1376(2) 0.94383(18)
H4_3 H 0.8456 0.1071 0.8932
H5_3 H 0.8509 0.2070 0.9436
N2_3 N 0.95764(14) 0.13650(17) 0.95720(13)
H11_3 H 0.970(3) 0.191(5) 0.999(3)
H13_3 H 0.977(2) 0.144(3) 0.919(2)
Cu2_7 Cu 1.0000 1.0000 0.0000
N1_3 N 0.88826(16) 0.9794(2) 0.01510(16)
H14_3 H 0.884(3) 0.971(4) 0.066(3)
Cu2_8 Cu 1.0000 1.0000 1.0000
H12_3 H 0.863(4) 0.947(5) 0.984(3)
O10_3 O 0.94683(9) 0.93717(15) 0.86364(9)
C13_3 C 0.15287(18) 0.0783(3) 0.49076(18)
H2_3 H 0.1365 0.1148 0.4412
H3_4 H 0.2106 0.0686 0.5026
C14_4 C 0.13001(18) 0.1376(2) 0.55617(18)
H4_4 H 0.1544 0.1071 0.6068
H5_4 H 0.1491 0.2070 0.5564
N2_4 N 0.04236(14) 0.13650(17) 0.54280(13)
H11_4 H 0.030(3) 0.191(5) 0.501(3)
H13_4 H 0.023(2) 0.144(3) 0.581(2)
N1_4 N 0.11174(16) 0.9794(2) 0.48490(16)
H12_4 H 0.137(4) 0.947(5) 0.516(3)
H14_4 H 0.116(3) 0.971(4) 0.434(3)
O10_4 O 0.05317(9) 0.93717(15) 0.63636(9)
N3_4 N 0.88826(16) 0.0206(2) 0.51510(16)
H26_4 H 0.863(4) 0.053(5) 0.484(3)
H28_4 H 0.884(3) 0.029(4) 0.566(3)
C27_3 C 0.84713(18) 0.9217(3) 0.50924(18)
H16_3 H 0.8635 0.8852 0.5588
H17_4 H 0.7894 0.9314 0.4974
C28_4 C 0.86999(18) 0.8624(2) 0.44383(18)
H18_4 H 0.8456 0.8929 0.3932
H19_4 H 0.8509 0.7930 0.4436
N4_4 N 0.95764(14) 0.86350(17) 0.45720(13)
H25_4 H 0.970(3) 0.809(5) 0.499(3)
H27_4 H 0.977(2) 0.856(3) 0.419(2)
Cu1_3 Cu 0.0000 0.03485(2) 0.7500
C1_3 C 0.32021(10) 0.36576(14) 0.80061(11)
C2_3 C 0.39921(11) 0.41583(14) 0.79978(11)
C3_3 C 0.24819(10) 0.38528(14) 0.74095(10)
C4_3 C 0.24935(11) 0.24488(17) 0.86308(12)
C5_3 C 0.17780(10) 0.32726(14) 0.74232(11)
C6_3 C 0.11038(11) 0.18822(15) 0.80690(12)
C7_3 C 0.24293(13) 0.46063(17) 0.68207(13)
C8_3 C 0.31938(11) 0.29823(16) 0.86011(11)
C9_3 C 0.18043(11) 0.25606(15) 0.80392(11)
C10_3 C 0.10397(13) 0.4210(2) 0.62784(14)
H1_3 H 0.0566 0.4329 0.5899
C11_3 C 0.10593(12) 0.34781(17) 0.68410(13)
C12_3 C 0.17236(15) 0.4777(2) 0.62702(16)
O1_3 O 0.08118(8) 0.13721(11) 0.74510(9)
O2_2 O 0.41429(8) 0.43246(11) 0.73335(8)
O4_3 O 0.08801(10) 0.18277(15) 0.86918(9)
H6_3 H 0.2500(16) 0.197(2) 0.9066(16)
H7_3 H 0.2855(17) 0.492(2) 0.6782(15)
H8_3 H 0.0576(17) 0.312(3) 0.6859(17)
H9_3 H 0.3696(16) 0.290(2) 0.8968(15)
H10_3 H 0.165(2) 0.535(3) 0.589(2)
Cu3 Cu 0.5000 0.53485(2) 0.7500
O8_2 O 0.08571(8) 0.93246(11) 0.76665(8)
Cu1_4 Cu 1.0000 0.03485(2) 0.7500
C15_3 C 0.67979(10) 0.36576(14) 0.69939(11)
C16_3 C 0.60079(11) 0.41583(14) 0.70022(11)
C17_3 C 0.75181(10) 0.38528(14) 0.75905(10)
C18_3 C 0.75065(11) 0.24488(17) 0.63692(12)
C19_3 C 0.82220(10) 0.32726(14) 0.75768(11)
C20_3 C 0.88962(11) 0.18822(15) 0.69310(12)
C21_3 C 0.75707(13) 0.46063(17) 0.81793(13)
C22_3 C 0.68062(11) 0.29823(16) 0.63989(11)
C23_3 C 0.81957(11) 0.25606(15) 0.69608(11)
C24_3 C 0.89603(13) 0.4210(2) 0.87216(14)
H15_3 H 0.9434 0.4329 0.9101
C25_3 C 0.89407(12) 0.34781(17) 0.81590(13)
C26_3 C 0.82764(15) 0.4777(2) 0.87298(16)
O5_3 O 0.91882(8) 0.13721(11) 0.75490(9)
O6_2 O 0.58571(8) 0.43246(11) 0.76665(8)
O11_3 O 0.91199(10) 0.18277(15) 0.63082(9)
H20_3 H 0.7500(16) 0.197(2) 0.5934(16)
H21_3 H 0.7145(17) 0.492(2) 0.8218(15)
H22_3 H 0.9424(17) 0.312(3) 0.8141(17)
H23_3 H 0.6304(16) 0.290(2) 0.6032(15)
H24_3 H 0.835(2) 0.535(3) 0.911(2)
O7_2 O 0.91429(8) 0.93246(11) 0.73335(8)
H10_4 H 0.665(2) 0.035(3) 0.589(2)
H24_4 H 0.335(2) 0.035(3) 0.911(2)
C1_4 C 0.82021(10) 0.86576(14) 0.80061(11)
C2_4 C 0.89921(11) 0.91583(14) 0.79978(11)
C3_4 C 0.74819(10) 0.88528(14) 0.74095(10)
C4_4 C 0.74935(11) 0.74488(17) 0.86308(12)
C5_4 C 0.67780(10) 0.82726(14) 0.74232(11)
C6_4 C 0.61038(11) 0.68822(15) 0.80690(12)
C7_4 C 0.74293(13) 0.96063(17) 0.68207(13)
C8_4 C 0.81938(11) 0.79823(16) 0.86011(11)
C9_4 C 0.68043(11) 0.75606(15) 0.80392(11)
C10_4 C 0.60397(13) 0.9210(2) 0.62784(14)
H1_4 H 0.5566 0.9329 0.5899
C11_4 C 0.60593(12) 0.84781(17) 0.68410(13)
C12_4 C 0.67236(15) 0.9777(2) 0.62702(16)
O1_4 O 0.58118(8) 0.63721(11) 0.74510(9)
O4_4 O 0.58801(10) 0.68277(15) 0.86918(9)
H6_4 H 0.7500(16) 0.697(2) 0.9066(16)
H7_4 H 0.7855(17) 0.992(2) 0.6782(15)
H8_4 H 0.5576(17) 0.812(3) 0.6859(17)
H9_4 H 0.8696(16) 0.790(2) 0.8968(15)
C15_4 C 0.17979(10) 0.86576(14) 0.69939(11)
C16_4 C 0.10079(11) 0.91583(14) 0.70022(11)
C17_4 C 0.25181(10) 0.88528(14) 0.75905(10)
C18_4 C 0.25065(11) 0.74488(17) 0.63692(12)
C19_4 C 0.32220(10) 0.82726(14) 0.75768(11)
C20_4 C 0.38962(11) 0.68822(15) 0.69310(12)
C21_4 C 0.25707(13) 0.96063(17) 0.81793(13)
C22_4 C 0.18062(11) 0.79823(16) 0.63989(11)
C23_4 C 0.31957(11) 0.75606(15) 0.69608(11)
C24_4 C 0.39603(13) 0.9210(2) 0.87216(14)
H15_4 H 0.4434 0.9329 0.9101
C25_4 C 0.39407(12) 0.84781(17) 0.81590(13)
C26_4 C 0.32764(15) 0.9777(2) 0.87298(16)
O5_4 O 0.41882(8) 0.63721(11) 0.75490(9)
O11_4 O 0.41199(10) 0.68277(15) 0.63082(9)
H20_4 H 0.2500(16) 0.697(2) 0.5934(16)
H21_4 H 0.2145(17) 0.992(2) 0.8218(15)
H22_4 H 0.4424(17) 0.812(3) 0.8141(17)
H23_4 H 0.1304(16) 0.790(2) 0.6032(15)
Cu2_9 Cu 0.0000 1.0000 1.0000
C27_4 C 0.15287(18) 0.9217(3) 0.99076(18)
H16_4 H 0.1365 0.8852 0.9412
Cu2_10 Cu 1.0000 0.0000 0.0000
C13_4 C 0.84713(18) 0.0783(3) 0.00924(18)
H2_4 H 0.8635 0.1148 0.0588
loop_
_geom_bond_atom_site_label_1
_geom_bond_atom_site_label_2
_geom_bond_site_symmetry_1
_geom_bond_site_symmetry_2
Cu4 O6 1_555 1_555
Cu5 O9 1_555 1_555
C15 C16 1_555 1_555
C16 O6 1_555 1_555
C17 C15 1_555 1_555
C18 C22 1_555 1_555
C19 C17 1_555 1_555
C20 C23 1_555 1_555
C21 C17 1_555 1_555
C22 C15 1_555 1_555
C23 C18 1_555 1_555
C24 H15 1_555 1_555
C25 C19 1_555 1_555
C26 C21 1_555 1_555
O5 Cu1 1_555 1_555
O9 C16 1_555 1_555
O11 C20 1_555 1_555
H20 C18 1_555 1_555
H21 C21 1_555 1_555
H22 C25 1_555 1_555
H23 C22 1_555 1_555
H24 C26 1_555 1_555
C19 C23 1_555 1_555
C20 O5 1_555 1_555
C24 C25 1_555 1_555
C24 C26 1_555 1_555
Cu1_2 O1 1_555 1_555
Cu2 O3 1_555 1_555
C1 C2 1_555 1_555
C2 O2 1_555 1_555
C3 C1 1_555 1_555
C4 C8 1_555 1_555
C5 C3 1_555 1_555
C6 C9 1_555 1_555
C7 C3 1_555 1_555
C8 C1 1_555 1_555
C9 C4 1_555 1_555
C10 H1 1_555 1_555
C11 C5 1_555 1_555
C12 C7 1_555 1_555
C13 H2 1_555 1_555
O1 C6 1_555 1_555
O2 Cu4 1_555 1_555
O3 C2 1_555 1_555
O4 C6 1_555 1_555
N1 Cu2 1_555 1_555
H6 C4 1_555 1_555
H7 C7 1_555 1_555
H8 C11 1_555 1_555
H9 C8 1_555 1_555
H10 C12 1_555 1_555
H14 N1 1_555 1_555
H18 C28 1_555 1_555
H19 C28 1_555 1_555
N4 Cu2 1_555 1_555
H25 N4 1_555 1_555
H27 N4 1_555 1_555
C5 C9 1_555 1_555
C10 C11 1_555 1_555
C10 C12 1_555 1_555
C13 N1 1_555 1_555
C28 N4 1_555 1_555
H4 C14 1_555 1_555
H5 C14 1_555 1_555
N2 Cu2_2 1_555 1_555
H11 N2 1_555 1_555
H13 N2 1_555 1_555
C27 H16 1_555 1_555
O10 Cu2_2 1_555 1_555
N3 Cu2_2 1_555 1_555
H28 N3 1_555 1_555
C14 N2 1_555 1_555
C27 N3 1_555 1_555
C13_2 H2_2 1_555 1_555
H3_2 C13_2 1_555 1_555
C14_2 C13_2 1_555 1_555
H4_2 C14_2 1_555 1_555
H5_2 C14_2 1_555 1_555
N1_2 Cu5 1_555 1_555
N2_2 Cu5 1_555 1_555
H11_2 N2_2 1_555 1_555
H12_2 N1_2 1_555 1_555
H13_2 N2_2 1_555 1_555
H14_2 N1_2 1_555 1_555
C27_2 H16_2 1_555 1_555
H17_2 C27_2 1_555 1_555
C28_2 C27_2 1_555 1_555
H18_2 C28_2 1_555 1_555
H19_2 C28_2 1_555 1_555
O10_2 Cu5 1_555 1_555
N3_2 Cu5 1_555 1_555
N4_2 Cu5 1_555 1_555
H25_2 N4_2 1_555 1_555
H26_2 N3_2 1_555 1_555
H27_2 N4_2 1_555 1_555
H28_2 N3_2 1_555 1_555
C13_2 N1_2 1_555 1_555
C14_2 N2_2 1_555 1_555
C27_2 N3_2 1_555 1_555
C28_2 N4_2 1_555 1_555
Cu4 O1_2 1_555 1_555
Cu2_3 O3_2 1_555 1_555
C1_2 C2_2 1_555 1_555
C2_2 O7 1_555 1_555
C3_2 C1_2 1_555 1_555
C4_2 C8_2 1_555 1_555
C5_2 C3_2 1_555 1_555
C6_2 C9_2 1_555 1_555
C7_2 C3_2 1_555 1_555
C8_2 C1_2 1_555 1_555
C9_2 C4_2 1_555 1_555
C10_2 H1_2 1_555 1_555
C11_2 C5_2 1_555 1_555
C12_2 C7_2 1_555 1_555
O1_2 C6_2 1_555 1_555
O3_2 C2_2 1_555 1_555
O4_2 C6_2 1_555 1_555
H6_2 C4_2 1_555 1_555
H7_2 C7_2 1_555 1_555
H8_2 C11_2 1_555 1_555
H9_2 C8_2 1_555 1_555
Cu5_4 O9_2 1_555 1_555
C15_2 C16_2 1_555 1_555
C16_2 O8 1_555 1_555
C17_2 C15_2 1_555 1_555
C18_2 C22_2 1_555 1_555
C19_2 C17_2 1_555 1_555
C20_2 C23_2 1_555 1_555
C21_2 C17_2 1_555 1_555
C22_2 C15_2 1_555 1_555
C23_2 C18_2 1_555 1_555
C24_2 H15_2 1_555 1_555
C25_2 C19_2 1_555 1_555
C26_2 C21_2 1_555 1_555
O5_2 Cu4 1_555 1_555
O9_2 C16_2 1_555 1_555
O11_2 C20_2 1_555 1_555
H20_2 C18_2 1_555 1_555
H21_2 C21_2 1_555 1_555
H22_2 C25_2 1_555 1_555
H23_2 C22_2 1_555 1_555
C5_2 C9_2 1_555 1_555
C10_2 C11_2 1_555 1_555
C10_2 C12_2 1_555 1_555
C19_2 C23_2 1_555 1_555
C20_2 O5_2 1_555 1_555
C24_2 C25_2 1_555 1_555
C24_2 C26_2 1_555 1_555
N3_3 Cu2_4 1_555 1_555
H28_3 N3_3 1_555 1_555
H18_3 C28_3 1_555 1_555
H19_3 C28_3 1_555 1_555
N4_3 Cu2_5 1_555 1_555
H25_3 N4_3 1_555 1_555
H27_3 N4_3 1_555 1_555
C28_3 N4_3 1_555 1_555
H4_3 C14_3 1_555 1_555
H5_3 C14_3 1_555 1_555
N2_3 Cu2_6 1_555 1_555
H11_3 N2_3 1_555 1_555
H13_3 N2_3 1_555 1_555
C14_3 N2_3 1_555 1_555
N1_3 Cu2_7 1_555 1_555
H14_3 N1_3 1_555 1_555
O10_3 Cu2_8 1_555 1_555
C13_3 H2_3 1_555 1_555
H3_4 C13_3 1_555 1_555
C14_4 C13_3 1_555 1_555
H4_4 C14_4 1_555 1_555
H5_4 C14_4 1_555 1_555
N2_4 Cu5_2 1_555 1_555
H11_4 N2_4 1_555 1_555
H13_4 N2_4 1_555 1_555
C14_4 N2_4 1_555 1_555
N1_4 Cu5_3 1_555 1_555
H12_4 N1_4 1_555 1_555
H14_4 N1_4 1_555 1_555
O10_4 Cu5_3 1_555 1_555
N3_4 Cu5_4 1_555 1_555
H26_4 N3_4 1_555 1_555
H28_4 N3_4 1_555 1_555
C27_3 H16_3 1_555 1_555
H17_4 C27_3 1_555 1_555
C28_4 C27_3 1_555 1_555
H18_4 C28_4 1_555 1_555
H19_4 C28_4 1_555 1_555
N4_4 Cu5_5 1_555 1_555
H25_4 N4_4 1_555 1_555
H27_4 N4_4 1_555 1_555
C28_4 N4_4 1_555 1_555
Cu1_3 O1_3 1_555 1_555
C1_3 C2_3 1_555 1_555
C2_3 O2_2 1_555 1_555
C3_3 C1_3 1_555 1_555
C4_3 C8_3 1_555 1_555
C5_3 C3_3 1_555 1_555
C6_3 C9_3 1_555 1_555
C7_3 C3_3 1_555 1_555
C8_3 C1_3 1_555 1_555
C9_3 C4_3 1_555 1_555
C10_3 H1_3 1_555 1_555
C11_3 C5_3 1_555 1_555
C12_3 C7_3 1_555 1_555
O1_3 C6_3 1_555 1_555
O2_2 Cu3 1_555 1_555
O10 C2_3 1_555 1_555
O4_3 C6_3 1_555 1_555
H6_3 C4_3 1_555 1_555
H7_3 C7_3 1_555 1_555
H8_3 C11_3 1_555 1_555
H9_3 C8_3 1_555 1_555
H10_3 C12_3 1_555 1_555
C5_3 C9_3 1_555 1_555
C10_3 C11_3 1_555 1_555
C10_3 C12_3 1_555 1_555
Cu3 O6_2 1_555 1_555
C15_3 C16_3 1_555 1_555
C16_3 O6_2 1_555 1_555
C17_3 C15_3 1_555 1_555
C18_3 C22_3 1_555 1_555
C19_3 C17_3 1_555 1_555
C20_3 C23_3 1_555 1_555
C21_3 C17_3 1_555 1_555
C22_3 C15_3 1_555 1_555
C23_3 C18_3 1_555 1_555
C24_3 H15_3 1_555 1_555
C25_3 C19_3 1_555 1_555
C26_3 C21_3 1_555 1_555
O5_3 Cu1_4 1_555 1_555
O10_2 C16_3 1_555 1_555
O11_3 C20_3 1_555 1_555
H20_3 C18_3 1_555 1_555
H21_3 C21_3 1_555 1_555
H22_3 C25_3 1_555 1_555
H23_3 C22_3 1_555 1_555
H24_3 C26_3 1_555 1_555
C19_3 C23_3 1_555 1_555
C20_3 O5_3 1_555 1_555
C24_3 C25_3 1_555 1_555
C24_3 C26_3 1_555 1_555
Cu3 O1_4 1_555 1_555
C1_4 C2_4 1_555 1_555
C2_4 O7_2 1_555 1_555
C3_4 C1_4 1_555 1_555
C4_4 C8_4 1_555 1_555
C5_4 C3_4 1_555 1_555
C6_4 C9_4 1_555 1_555
C7_4 C3_4 1_555 1_555
C8_4 C1_4 1_555 1_555
C9_4 C4_4 1_555 1_555
C10_4 H1_4 1_555 1_555
C11_4 C5_4 1_555 1_555
C12_4 C7_4 1_555 1_555
O1_4 C6_4 1_555 1_555
O10_3 C2_4 1_555 1_555
O4_4 C6_4 1_555 1_555
H6_4 C4_4 1_555 1_555
H7_4 C7_4 1_555 1_555
H8_4 C11_4 1_555 1_555
H9_4 C8_4 1_555 1_555
C15_4 C16_4 1_555 1_555
C16_4 O8_2 1_555 1_555
C17_4 C15_4 1_555 1_555
C18_4 C22_4 1_555 1_555
C19_4 C17_4 1_555 1_555
C20_4 C23_4 1_555 1_555
C21_4 C17_4 1_555 1_555
C22_4 C15_4 1_555 1_555
C23_4 C18_4 1_555 1_555
C24_4 H15_4 1_555 1_555
C25_4 C19_4 1_555 1_555
C26_4 C21_4 1_555 1_555
O5_4 Cu3 1_555 1_555
O10_4 C16_4 1_555 1_555
O11_4 C20_4 1_555 1_555
H20_4 C18_4 1_555 1_555
H21_4 C21_4 1_555 1_555
H22_4 C25_4 1_555 1_555
H23_4 C22_4 1_555 1_555
C5_4 C9_4 1_555 1_555
C10_4 C11_4 1_555 1_555
C10_4 C12_4 1_555 1_555
C19_4 C23_4 1_555 1_555
C20_4 O5_4 1_555 1_555
C24_4 C25_4 1_555 1_555
C24_4 C26_4 1_555 1_555
C27_4 H16_4 1_555 1_555
C13_4 H2_4 1_555 1_555

#END
