
###############################################################################
#
# This file contains modified crystal structure data generated from the
# MOF subset of the Cambridge Structural Database (CSD) v543 
# hosted by the Cambridge Crystallographic Data Centre (CCDC).
#
# This work is licensed under the Creative Commons
# Attribution-NonCommercial-ShareAlike 4.0 International License.
# To view a copy of this license, visit
# http://creativecommons.org/licenses/by-nc-sa/4.0/
# or send a letter to
# Creative Commons, PO Box 1866, Mountain View, CA 94042, USA.
#
# CIF created using the CSD Python API on 29 September 2022
# The structure has been converted into the P1 space group
# The structure has a 3D framework
# The original CSD entry IBESAN is in the triclinic crystal system
# The framework has been calculated to contain at least 10.0% void space
# The void calculation uses a probe of radius 1.32A, grid spacing 0.4
#
###############################################################################

data_IBESAN
_chemical_formula_moiety         '(C76 H44 N6 O20 Zn4)n'
_symmetry_cell_setting           triclinic
_symmetry_space_group_name_H-M   'P 1'
_symmetry_Int_Tables_number      1
_space_group_name_Hall           'P 1'
loop_
_symmetry_equiv_pos_site_id
_symmetry_equiv_pos_as_xyz
1 x,y,z
_cell_length_a                   11.4652(6)
_cell_length_b                   11.7598(8)
_cell_length_c                   16.0836(12)
_cell_angle_alpha                80.794(6)
_cell_angle_beta                 70.018(6)
_cell_angle_gamma                74.640(5)
_cell_volume                     1959.4
loop_
_atom_site_label
_atom_site_type_symbol
_atom_site_fract_x
_atom_site_fract_y
_atom_site_fract_z
_atom_site_U_iso_or_equiv
_atom_site_thermal_displace_type
N3 N 0.4223(5) 0.0926(6) 0.6197(5) 0.0902 Uani
C30 C 0.0037(5) 0.0924(5) 0.8782(4) 0.0498 Uani
H16 H 0.0610 0.1008 0.9049 0.0600 Uiso
C31 C 0.0419(4) 0.0845(5) 0.7891(4) 0.0437 Uani
C34 C 0.1735(5) 0.0878(5) 0.7299(4) 0.0504 Uani
C35 C 0.2778(5) 0.0432(5) 0.7601(5) 0.0597 Uani
H19 H 0.2673 0.0102 0.8180 0.0720 Uiso
C36 C 0.3992(6) 0.0490(6) 0.7017(6) 0.0812 Uani
H20 H 0.4682 0.0196 0.7231 0.0970 Uiso
C37 C 0.3216(7) 0.1398(10) 0.5917(6) 0.1149 Uani
H21 H 0.3352 0.1776 0.5350 0.1380 Uiso
C38 C 0.1951(6) 0.1355(8) 0.6440(5) 0.0880 Uani
H22 H 0.1282 0.1643 0.6205 0.1060 Uiso
H12 H 0.0325 0.1663 0.4201 0.0610 Uiso
H25 H 0.1920 0.0394 0.4281 0.1320 Uiso
N4 N 0.2717(3) 0.7820(3) 0.5148(3) 0.0339 Uani
C39 C 0.1571(4) 0.7630(5) 0.5535(4) 0.0522 Uani
H23 H 0.1482 0.6902 0.5843 0.0630 Uiso
C40 C 0.0475(4) 0.8493(5) 0.5500(4) 0.0511 Uani
C41 C 0.0565(4) 0.9544(4) 0.5037(3) 0.0378 Uani
C42 C 0.1789(5) 0.9697(6) 0.4626(6) 0.1097 Uani
C43 C 0.2810(5) 0.8835(6) 0.4718(5) 0.0902 Uani
H26 H 0.3618 0.8988 0.4457 0.1080 Uiso
Zn7 Zn 0.42756(5) 0.65216(5) 0.52652(4) 0.0293 Uani
O26 O 0.5447(3) 0.1567(3) 0.0694(2) 0.0454 Uani
Zn2 Zn 0.61743(5) 0.05007(5) 0.96805(4) 0.0308 Uani
N2 N 0.7940(3) 0.0759(4) 0.8944(3) 0.0374 Uani
C29 C 0.8795(4) 0.0880(5) 0.9298(4) 0.0485 Uani
H15 H 0.8553 0.0937 0.9906 0.0580 Uiso
C32 C 0.9514(5) 0.0736(6) 0.7524(4) 0.0609 Uani
H17 H 0.9730 0.0688 0.6916 0.0730 Uiso
C33 C 0.8296(5) 0.0699(6) 0.8074(3) 0.0564 Uani
H18 H 0.7700 0.0629 0.7823 0.0680 Uiso
O24 O 0.5046(3) 0.1650(3) 0.9029(2) 0.0437 Uani
Zn1 Zn 0.57244(5) 0.34784(5) 0.47348(4) 0.0293 Uani
N1 N 0.7283(3) 0.2180(3) 0.4852(3) 0.0339 Uani
O1 O 0.6596(3) 0.4685(3) 0.3973(2) 0.0345 Uani
O2 O 0.5024(3) 0.6283(3) 0.3993(2) 0.0415 Uani
O3 O 0.6678(3) 0.9119(3) 0.0513(2) 0.0408 Uani
O4 O 0.4954(3) 0.8350(3) 0.0971(2) 0.0437 Uani
C1 C 0.6097(4) 0.5629(4) 0.3623(3) 0.0296 Uani
C2 C 0.6786(4) 0.6018(4) 0.2693(3) 0.0315 Uani
C3 C 0.6175(4) 0.6949(4) 0.2231(3) 0.0344 Uani
H2 H 0.5355 0.7358 0.2518 0.0410 Uiso
C4 C 0.6760(4) 0.7277(4) 0.1358(3) 0.0320 Uani
C5 C 0.6081(4) 0.8330(4) 0.0900(3) 0.0373 Uani
C6 C 0.8003(4) 0.6653(4) 0.0910(3) 0.0315 Uani
C7 C 0.8614(4) 0.5740(4) 0.1383(3) 0.0399 Uani
H3 H 0.9439 0.5333 0.1103 0.0480 Uiso
C8 C 0.8018(4) 0.5423(4) 0.2266(3) 0.0368 Uani
H4 H 0.8446 0.4811 0.2572 0.0440 Uiso
C24 C 0.8429(4) 0.2370(5) 0.4465(4) 0.0522 Uani
H11 H 0.8518 0.3098 0.4157 0.0630 Uiso
C25 C 0.9525(4) 0.1507(5) 0.4500(4) 0.0511 Uani
C26 C 0.9435(4) 0.0456(4) 0.4963(3) 0.0378 Uani
C27 C 0.8211(5) 0.0303(6) 0.5374(6) 0.1097 Uani
C28 C 0.7190(5) 0.1165(6) 0.5282(5) 0.0902 Uani
H14 H 0.6382 0.1012 0.5543 0.1080 Uiso
O17 O 0.3761(3) 0.0762(3) 0.1113(2) 0.0436 Uani
O19 O 0.4042(4) 0.3708(4) 0.4440(2) 0.0574 Uani
O20 O 0.5682(3) 0.2558(4) 0.3612(2) 0.0559 Uani
C52 C 0.1423(4) 0.3096(4) 0.0059(3) 0.0309 Uani
C53 C 0.0204(4) 0.2867(4) 0.0423(3) 0.0335 Uani
C56 C 0.0423(4) 0.2587(4) 0.1889(3) 0.0321 Uani
H32 H 0.0085 0.2413 0.2496 0.0380 Uiso
C57 C 0.1633(4) 0.2833(4) 0.1533(3) 0.0302 Uani
C58 C 0.2107(4) 0.3099(4) 0.0628(3) 0.0315 Uani
H33 H 0.2902 0.3284 0.0393 0.0380 Uiso
C59 C 0.2383(4) 0.2822(4) 0.2137(3) 0.0320 Uani
C60 C 0.3686(4) 0.2271(4) 0.1925(3) 0.0340 Uani
C61 C 0.4347(4) 0.1484(4) 0.1177(3) 0.0333 Uani
C62 C 0.4368(4) 0.2393(4) 0.2460(3) 0.0376 Uani
H34 H 0.5242 0.2075 0.2298 0.0450 Uiso
C63 C 0.3773(4) 0.2980(4) 0.3229(3) 0.0376 Uani
C64 C 0.4538(5) 0.3095(5) 0.3792(3) 0.0403 Uani
C65 C 0.2474(4) 0.3495(5) 0.3457(3) 0.0440 Uani
H35 H 0.2061 0.3881 0.3976 0.0530 Uiso
C66 C 0.1803(4) 0.3425(5) 0.2903(3) 0.0409 Uani
H36 H 0.0941 0.3792 0.3047 0.0490 Uiso
Zn9 Zn 0.38257(5) 0.94993(5) 0.03195(4) 0.0308 Uani
O22 O 0.4976(3) 0.3717(3) 0.6007(2) 0.0415 Uani
O7 O 0.6239(3) 0.9238(3) 0.8887(2) 0.0436 Uani
O8 O 0.4553(3) 0.8433(3) 0.9306(2) 0.0454 Uani
O9 O 0.5958(4) 0.6292(4) 0.5560(2) 0.0574 Uani
O10 O 0.4318(3) 0.7442(4) 0.6388(2) 0.0559 Uani
C9 C 0.8577(4) 0.6904(4) 0.9941(3) 0.0309 Uani
C10 C 0.9796(4) 0.7133(4) 0.9577(3) 0.0335 Uani
C13 C 0.9577(4) 0.7413(4) 0.8111(3) 0.0321 Uani
H6 H 0.9915 0.7587 0.7504 0.0380 Uiso
C14 C 0.8367(4) 0.7167(4) 0.8467(3) 0.0302 Uani
C15 C 0.7893(4) 0.6901(4) 0.9372(3) 0.0315 Uani
H7 H 0.7098 0.6716 0.9607 0.0380 Uiso
C16 C 0.7617(4) 0.7178(4) 0.7863(3) 0.0320 Uani
C17 C 0.6314(4) 0.7729(4) 0.8075(3) 0.0340 Uani
C18 C 0.5653(4) 0.8516(4) 0.8823(3) 0.0333 Uani
C19 C 0.5632(4) 0.7607(4) 0.7540(3) 0.0376 Uani
H8 H 0.4758 0.7925 0.7702 0.0450 Uiso
C20 C 0.6227(4) 0.7020(4) 0.6771(3) 0.0376 Uani
C21 C 0.5462(5) 0.6905(5) 0.6208(3) 0.0403 Uani
C22 C 0.7526(4) 0.6505(5) 0.6543(3) 0.0440 Uani
H9 H 0.7939 0.6119 0.6024 0.0530 Uiso
C23 C 0.8197(4) 0.6575(5) 0.7097(3) 0.0409 Uani
H10 H 0.9059 0.6208 0.6953 0.0490 Uiso
O11 O 0.3404(3) 0.5315(3) 0.6027(2) 0.0345 Uani
O13 O 0.3322(3) 0.0881(3) 0.9487(2) 0.0408 Uani
C44 C 0.3903(4) 0.4371(4) 0.6377(3) 0.0296 Uani
C45 C 0.3214(4) 0.3982(4) 0.7307(3) 0.0315 Uani
C46 C 0.3825(4) 0.3051(4) 0.7769(3) 0.0344 Uani
H28 H 0.4645 0.2642 0.7482 0.0410 Uiso
C47 C 0.3240(4) 0.2723(4) 0.8642(3) 0.0320 Uani
C48 C 0.3919(4) 0.1670(4) 0.9100(3) 0.0373 Uani
C49 C 0.1997(4) 0.3347(4) 0.9090(3) 0.0315 Uani
C50 C 0.1386(4) 0.4260(4) 0.8617(3) 0.0399 Uani
H29 H 0.0561 0.4667 0.8897 0.0480 Uiso
C51 C 0.1982(4) 0.4577(4) 0.7734(3) 0.0368 Uani
H30 H 0.1554 0.5189 0.7428 0.0440 Uiso
H13 H 0.8080 0.9606 0.5719 0.1320 Uiso
H24 H 0.9675 0.8337 0.5799 0.0610 Uiso
N5 N 0.2060(3) 0.9241(4) 0.1056(3) 0.0374 Uani
C67 C 0.1205(4) 0.9120(5) 0.0702(4) 0.0485 Uani
H37 H 0.1447 0.9063 0.0094 0.0580 Uiso
C70 C 0.0486(5) 0.9264(6) 0.2476(4) 0.0609 Uani
H39 H 0.0270 0.9312 0.3084 0.0730 Uiso
C71 C 0.1704(5) 0.9301(6) 0.1926(3) 0.0564 Uani
H40 H 0.2300 0.9371 0.2177 0.0680 Uiso
O5 O 0.2239(4) 0.7652(5) 0.8739(3) 0.0756 Uani
O6 O 0.1955(3) 0.7778(4) 0.7425(2) 0.0579 Uani
H1 H 0.2724 0.7742 0.7232 0.0870 Uiso
H5 H 0.0281 0.7110 0.9942 0.0400 Uiso
C11 C 0.0276(4) 0.7394(4) 0.8678(3) 0.0324 Uani
C12 C 0.1602(4) 0.7608(5) 0.8296(3) 0.0431 Uani
O15 O 0.7761(4) 0.2348(5) 0.1261(3) 0.0756 Uani
O16 O 0.8045(3) 0.2222(4) 0.2575(2) 0.0579 Uani
H27 H 0.7276 0.2258 0.2768 0.0870 Uiso
H31 H 0.9719 0.2890 0.0058 0.0400 Uiso
C54 C 0.9724(4) 0.2606(4) 0.1322(3) 0.0324 Uani
C55 C 0.8398(4) 0.2392(5) 0.1704(3) 0.0431 Uani
N6 N 0.5777(5) 0.9074(6) 0.3803(5) 0.0902 Uani
C68 C 0.9963(5) 0.9076(5) 0.1218(4) 0.0498 Uani
H38 H 0.9390 0.8992 0.0951 0.0600 Uiso
C69 C 0.9581(4) 0.9155(5) 0.2109(4) 0.0437 Uani
C72 C 0.8265(5) 0.9122(5) 0.2701(4) 0.0504 Uani
C73 C 0.7222(5) 0.9568(5) 0.2399(5) 0.0597 Uani
H41 H 0.7327 0.9898 0.1820 0.0720 Uiso
C74 C 0.6008(6) 0.9510(6) 0.2983(6) 0.0812 Uani
H42 H 0.5318 0.9804 0.2769 0.0970 Uiso
C75 C 0.6784(7) 0.8602(10) 0.4083(6) 0.1149 Uani
H43 H 0.6648 0.8224 0.4650 0.1380 Uiso
C76 C 0.8049(6) 0.8645(8) 0.3560(5) 0.0880 Uani
H44 H 0.8718 0.8357 0.3795 0.1060 Uiso
loop_
_atom_site_aniso_label
_atom_site_aniso_U_11
_atom_site_aniso_U_22
_atom_site_aniso_U_33
_atom_site_aniso_U_23
_atom_site_aniso_U_13
_atom_site_aniso_U_12
N3 0.041 0.097 0.116 -0.015 0.014 -0.035
C30 0.03 0.066 0.059 -0.01 -0.014 -0.017
C31 0.027 0.044 0.055 -0.007 -0.002 -0.012
C34 0.031 0.05 0.066 -0.006 -0.001 -0.02
C35 0.035 0.056 0.083 -0.003 -0.008 -0.017
C36 0.033 0.059 0.145 -0.012 -0.012 -0.018
C37 0.062 0.181 0.088 0.023 0.008 -0.066
C38 0.041 0.131 0.078 0.02 -0.001 -0.036
N4 0.0193 0.029 0.047 -0.0011 -0.0073 -0.0002
C39 0.028 0.031 0.079 0.019 -0.009 0
C40 0.022 0.044 0.071 0.007 -0.002 -0.004
C41 0.0178 0.031 0.057 -0.001 -0.007 -0.0005
C42 0.021 0.06 0.206 0.065 -0.018 -0.007
C43 0.025 0.064 0.152 0.047 -0.013 -0.013
Zn7 0.0189 0.0267 0.0377 -0.0045 -0.0048 -0.0016
O26 0.0332 0.048 0.05 -0.0209 -0.0002 -0.0077
Zn2 0.0207 0.026 0.0404 -0.0036 -0.0024 -0.0052
N2 0.0249 0.043 0.042 -0.0011 -0.0036 -0.0144
C29 0.032 0.068 0.044 -0.008 -0.004 -0.017
C32 0.038 0.103 0.042 -0.015 0.002 -0.03
C33 0.036 0.094 0.045 -0.01 -0.005 -0.032
O24 0.0331 0.0363 0.055 0.0062 -0.0122 -0.0047
Zn1 0.0189 0.0267 0.0377 -0.0045 -0.0048 -0.0016
N1 0.0193 0.029 0.047 -0.0011 -0.0073 -0.0002
O1 0.0269 0.028 0.0415 0.002 -0.0072 -0.0017
O2 0.0297 0.046 0.0373 0.002 -0.0066 0.0022
O3 0.0375 0.0306 0.0444 0.0023 -0.0045 -0.0055
O4 0.0331 0.0363 0.055 0.0062 -0.0122 -0.0047
C1 0.024 0.026 0.036 -0.0045 -0.0067 -0.0035
C2 0.026 0.025 0.036 0.0009 -0.006 0
C3 0.027 0.027 0.041 -0.004 -0.0019 -0.0034
C4 0.025 0.026 0.037 -0.0003 -0.0045 -0.0005
C5 0.032 0.031 0.036 -0.007 0.002 0
C6 0.023 0.031 0.034 -0.0055 -0.0031 -0.0013
C7 0.028 0.035 0.044 -0.003 -0.003 0.003
C8 0.027 0.032 0.042 0.004 -0.008 0.0011
C24 0.028 0.031 0.079 0.019 -0.009 0
C25 0.022 0.044 0.071 0.007 -0.002 -0.004
C26 0.0178 0.031 0.057 -0.001 -0.007 -0.0005
C27 0.021 0.06 0.206 0.065 -0.018 -0.007
C28 0.025 0.064 0.152 0.047 -0.013 -0.013
O17 0.0359 0.0354 0.062 -0.0182 -0.0122 -0.0081
O19 0.053 0.074 0.054 -0.025 -0.0147 -0.02
O20 0.0318 0.087 0.054 -0.014 -0.0148 -0.0151
C52 0.025 0.024 0.036 -0.0047 -0.0035 0.0005
C53 0.022 0.034 0.043 -0.006 -0.0104 -0.0017
C56 0.024 0.032 0.036 -0.0013 -0.006 -0.0043
C57 0.022 0.031 0.033 -0.0083 -0.0025 -0.0033
C58 0.0199 0.031 0.039 -0.008 -0.0035 -0.0027
C59 0.024 0.033 0.038 -0.0051 -0.0047 -0.0103
C60 0.024 0.034 0.042 -0.005 -0.0057 -0.0082
C61 0.024 0.03 0.043 -0.012 -0.0078 0.0007
C62 0.026 0.04 0.047 -0.012 -0.006 -0.01
C63 0.033 0.039 0.042 -0.005 -0.008 -0.014
C64 0.039 0.047 0.044 -0.002 -0.016 -0.022
C65 0.037 0.052 0.042 -0.021 -0.002 -0.012
C66 0.026 0.049 0.048 -0.016 -0.007 -0.008
Zn9 0.0207 0.026 0.0404 -0.0036 -0.0024 -0.0052
O22 0.0297 0.046 0.0373 0.002 -0.0066 0.0022
O7 0.0359 0.0354 0.062 -0.0182 -0.0122 -0.0081
O8 0.0332 0.048 0.05 -0.0209 -0.0002 -0.0077
O9 0.053 0.074 0.054 -0.025 -0.0147 -0.02
O10 0.0318 0.087 0.054 -0.014 -0.0148 -0.0151
C9 0.025 0.024 0.036 -0.0047 -0.0035 0.0005
C10 0.022 0.034 0.043 -0.006 -0.0104 -0.0017
C13 0.024 0.032 0.036 -0.0013 -0.006 -0.0043
C14 0.022 0.031 0.033 -0.0083 -0.0025 -0.0033
C15 0.0199 0.031 0.039 -0.008 -0.0035 -0.0027
C16 0.024 0.033 0.038 -0.0051 -0.0047 -0.0103
C17 0.024 0.034 0.042 -0.005 -0.0057 -0.0082
C18 0.024 0.03 0.043 -0.012 -0.0078 0.0007
C19 0.026 0.04 0.047 -0.012 -0.006 -0.01
C20 0.033 0.039 0.042 -0.005 -0.008 -0.014
C21 0.039 0.047 0.044 -0.002 -0.016 -0.022
C22 0.037 0.052 0.042 -0.021 -0.002 -0.012
C23 0.026 0.049 0.048 -0.016 -0.007 -0.008
O11 0.0269 0.028 0.0415 0.002 -0.0072 -0.0017
O13 0.0375 0.0306 0.0444 0.0023 -0.0045 -0.0055
C44 0.024 0.026 0.036 -0.0045 -0.0067 -0.0035
C45 0.026 0.025 0.036 0.0009 -0.006 0
C46 0.027 0.027 0.041 -0.004 -0.0019 -0.0034
C47 0.025 0.026 0.037 -0.0003 -0.0045 -0.0005
C48 0.032 0.031 0.036 -0.007 0.002 0
C49 0.023 0.031 0.034 -0.0055 -0.0031 -0.0013
C50 0.028 0.035 0.044 -0.003 -0.003 0.003
C51 0.027 0.032 0.042 0.004 -0.008 0.0011
N5 0.0249 0.043 0.042 -0.0011 -0.0036 -0.0144
C67 0.032 0.068 0.044 -0.008 -0.004 -0.017
C70 0.038 0.103 0.042 -0.015 0.002 -0.03
C71 0.036 0.094 0.045 -0.01 -0.005 -0.032
O5 0.043 0.136 0.062 -0.004 -0.018 -0.044
O6 0.0314 0.096 0.045 -0.004 -0.0017 -0.027
C11 0.021 0.032 0.041 -0.005 -0.0061 -0.0044
C12 0.026 0.05 0.052 -0.006 -0.01 -0.008
O15 0.043 0.136 0.062 -0.004 -0.018 -0.044
O16 0.0314 0.096 0.045 -0.004 -0.0017 -0.027
C54 0.021 0.032 0.041 -0.005 -0.0061 -0.0044
C55 0.026 0.05 0.052 -0.006 -0.01 -0.008
N6 0.041 0.097 0.116 -0.015 0.014 -0.035
C68 0.03 0.066 0.059 -0.01 -0.014 -0.017
C69 0.027 0.044 0.055 -0.007 -0.002 -0.012
C72 0.031 0.05 0.066 -0.006 -0.001 -0.02
C73 0.035 0.056 0.083 -0.003 -0.008 -0.017
C74 0.033 0.059 0.145 -0.012 -0.012 -0.018
C75 0.062 0.181 0.088 0.023 0.008 -0.066
C76 0.041 0.131 0.078 0.02 -0.001 -0.036
loop_
_geom_bond_atom_site_label_1
_geom_bond_atom_site_label_2
_geom_bond_site_symmetry_1
_geom_bond_site_symmetry_2
N3 C36 1_555 1_555
H16 C30 1_555 1_555
C31 C30 1_555 1_555
C34 C31 1_555 1_555
C35 C34 1_555 1_555
H19 C35 1_555 1_555
C36 C35 1_555 1_555
H20 C36 1_555 1_555
C37 N3 1_555 1_555
H21 C37 1_555 1_555
C38 C34 1_555 1_555
H22 C38 1_555 1_555
C37 C38 1_555 1_555
N4 C39 1_555 1_555
C39 H23 1_555 1_555
C40 C39 1_555 1_555
C42 C41 1_555 1_555
C43 N4 1_555 1_555
H26 C43 1_555 1_555
Zn7 N4 1_555 1_555
C40 C41 1_555 1_555
C42 C43 1_555 1_555
Zn2 N2 1_555 1_555
N2 C29 1_555 1_555
C29 H15 1_555 1_555
H17 C32 1_555 1_555
C33 N2 1_555 1_555
H18 C33 1_555 1_555
O24 Zn2 1_555 1_555
C32 C33 1_555 1_555
Zn1 N1 1_555 1_555
N1 C24 1_555 1_555
O1 Zn1 1_555 1_555
O2 C1 1_555 1_555
O4 C5 1_555 1_555
C1 O1 1_555 1_555
C2 C1 1_555 1_555
C3 C2 1_555 1_555
H2 C3 1_555 1_555
C4 C3 1_555 1_555
C5 O3 1_555 1_555
C6 C4 1_555 1_555
C7 C6 1_555 1_555
H3 C7 1_555 1_555
C8 C2 1_555 1_555
H4 C8 1_555 1_555
C24 H11 1_555 1_555
C25 C24 1_555 1_555
C26 C25 1_555 1_555
C27 C26 1_555 1_555
C28 N1 1_555 1_555
H14 C28 1_555 1_555
O26 C61 1_555 1_555
O19 Zn1 1_555 1_555
O20 Zn1 1_555 1_555
C53 C52 1_555 1_555
H32 C56 1_555 1_555
C57 C56 1_555 1_555
C58 C52 1_555 1_555
H33 C58 1_555 1_555
C59 C57 1_555 1_555
C60 C59 1_555 1_555
C61 O17 1_555 1_555
C62 C60 1_555 1_555
H34 C62 1_555 1_555
C63 C62 1_555 1_555
C64 O19 1_555 1_555
C65 C63 1_555 1_555
H35 C65 1_555 1_555
C66 C59 1_555 1_555
H36 C66 1_555 1_555
Zn7 O2 1_555 1_555
Zn9 O4 1_555 1_555
O22 Zn1 1_555 1_555
C4 C5 1_555 1_555
C7 C8 1_555 1_555
C27 C28 1_555 1_555
O20 C64 1_555 1_555
C57 C58 1_555 1_555
C60 C61 1_555 1_555
C63 C64 1_555 1_555
C65 C66 1_555 1_555
O8 C18 1_555 1_555
O9 C21 1_555 1_555
O10 C21 1_555 1_555
C10 C9 1_555 1_555
H6 C13 1_555 1_555
C14 C13 1_555 1_555
C15 C9 1_555 1_555
H7 C15 1_555 1_555
C16 C14 1_555 1_555
C17 C16 1_555 1_555
C18 O7 1_555 1_555
C19 C17 1_555 1_555
H8 C19 1_555 1_555
C20 C19 1_555 1_555
C21 C20 1_555 1_555
C22 C20 1_555 1_555
H9 C22 1_555 1_555
C23 C16 1_555 1_555
H10 C23 1_555 1_555
Zn7 O9 1_555 1_555
O11 Zn7 1_555 1_555
O22 C44 1_555 1_555
O24 C48 1_555 1_555
C44 O11 1_555 1_555
C45 C44 1_555 1_555
C46 C45 1_555 1_555
H28 C46 1_555 1_555
C47 C46 1_555 1_555
C48 O13 1_555 1_555
C49 C47 1_555 1_555
C50 C49 1_555 1_555
H29 C50 1_555 1_555
C51 C45 1_555 1_555
H30 C51 1_555 1_555
O10 Zn7 1_555 1_555
C14 C15 1_555 1_555
C17 C18 1_555 1_555
C22 C23 1_555 1_555
C47 C48 1_555 1_555
C50 C51 1_555 1_555
Zn9 N5 1_555 1_555
N5 C67 1_555 1_555
C67 H37 1_555 1_555
H39 C70 1_555 1_555
C71 N5 1_555 1_555
H40 C71 1_555 1_555
C70 C71 1_555 1_555
O5 C12 1_555 1_555
O6 H1 1_555 1_555
C12 O6 1_555 1_555
C11 C12 1_555 1_555
O15 C55 1_555 1_555
O16 H27 1_555 1_555
C55 O16 1_555 1_555
C54 C55 1_555 1_555
N6 C74 1_555 1_555
H38 C68 1_555 1_555
C69 C68 1_555 1_555
C72 C69 1_555 1_555
C73 C72 1_555 1_555
H41 C73 1_555 1_555
C74 C73 1_555 1_555
H42 C74 1_555 1_555
C75 N6 1_555 1_555
H43 C75 1_555 1_555
C76 C72 1_555 1_555
H44 C76 1_555 1_555
C75 C76 1_555 1_555

#END
