
###############################################################################
#
# This file contains modified crystal structure data generated from the
# MOF subset of the Cambridge Structural Database (CSD) v543 
# hosted by the Cambridge Crystallographic Data Centre (CCDC).
#
# This work is licensed under the Creative Commons
# Attribution-NonCommercial-ShareAlike 4.0 International License.
# To view a copy of this license, visit
# http://creativecommons.org/licenses/by-nc-sa/4.0/
# or send a letter to
# Creative Commons, PO Box 1866, Mountain View, CA 94042, USA.
#
# CIF created using the CSD Python API on 29 September 2022
# The structure has been converted into the P1 space group
# The structure has a 3D framework
# The original CSD entry IBESIV is in the triclinic crystal system
# The framework has been calculated to contain at least 10.0% void space
# The void calculation uses a probe of radius 1.32A, grid spacing 0.4
#
###############################################################################

data_IBESIV
_chemical_formula_moiety         '(C66 H38 Cd4 N6 O20)n'
_symmetry_cell_setting           triclinic
_symmetry_space_group_name_H-M   'P 1'
_symmetry_Int_Tables_number      1
_space_group_name_Hall           'P 1'
loop_
_symmetry_equiv_pos_site_id
_symmetry_equiv_pos_as_xyz
1 x,y,z
_cell_length_a                   10.8475(5)
_cell_length_b                   11.7930(5)
_cell_length_c                   13.6269(6)
_cell_angle_alpha                83.033(4)
_cell_angle_beta                 83.522(4)
_cell_angle_gamma                76.602(4)
_cell_volume                     1676.76
loop_
_atom_site_label
_atom_site_type_symbol
_atom_site_fract_x
_atom_site_fract_y
_atom_site_fract_z
Cd1 Cd 0.10881(2) 0.05848(2) 0.53594(2)
O1 O 0.13531(17) 0.00536(17) 0.37574(13)
H2 H 0.0614 0.0260 0.1291
O14 O 0.26480(17) 0.07150(16) 0.64324(13)
O15 O 0.27852(18) 0.14493(18) 0.48763(14)
Cd2 Cd 0.08390(2) 0.18841(2) 0.78293(2)
O3 O 0.2168(2) 0.03425(18) 0.86485(13)
O4 O 0.0701(2) 0.13961(19) 0.95912(14)
C5 C 0.1675(2) 0.0591(2) 0.94838(18)
O17 O 0.2387(2) 0.31227(19) 0.79237(17)
O18 O 0.1236(2) 0.33507(17) 0.66689(16)
O2 O 0.00736(16) 0.91701(16) 0.31185(12)
O5 O 0.73520(17) 0.92850(16) 0.35676(13)
O6 O 0.72148(18) 0.85507(18) 0.51237(14)
O7 O 0.15433(18) 0.86715(15) 0.57647(14)
O8 O 0.02498(18) 0.77797(16) 0.51275(15)
C1 C 0.1084(2) 0.9538(2) 0.30885(17)
C2 C 0.1986(2) 0.9411(2) 0.21704(16)
C3 C 0.1479(2) 0.9923(2) 0.12863(17)
C4 C 0.2241(2) 0.9941(2) 0.03990(17)
C6 C 0.3526(2) 0.9382(2) 0.03930(18)
C7 C 0.4034(2) 0.8882(2) 0.12735(18)
H4 H 0.4892 0.8518 0.1259
C8 C 0.3296(2) 0.8907(2) 0.21839(17)
C9 C 0.3908(2) 0.84433(19) 0.31210(16)
C10 C 0.5049(2) 0.8726(2) 0.32517(17)
H5 H 0.5436 0.9156 0.2741
C11 C 0.5619(2) 0.8375(2) 0.41333(17)
C12 C 0.6799(2) 0.8757(2) 0.42892(18)
C13 C 0.5077(2) 0.7694(2) 0.48868(17)
H6 H 0.5461 0.7466 0.5477
C14 C 0.3969(2) 0.7350(2) 0.47670(17)
C15 C 0.3383(2) 0.7747(2) 0.38827(17)
H7 H 0.2625 0.7542 0.3802
C16 C 0.3455(2) 0.6520(2) 0.55265(16)
C17 C 0.2142(2) 0.6639(2) 0.57713(17)
C18 C 0.1235(2) 0.7789(2) 0.55250(18)
C19 C 0.1685(2) 0.5719(2) 0.6299(2)
H8 H 0.0813 0.5773 0.6407
C20 C 0.2521(2) 0.4710(2) 0.66703(18)
C21 C 0.2012(3) 0.3668(2) 0.7136(2)
C22 C 0.3811(2) 0.4654(2) 0.65381(17)
H9 H 0.4371 0.4022 0.6840
C23 C 0.4275(2) 0.5538(2) 0.59557(17)
H10 H 0.5149 0.5476 0.5849
Cd4 Cd 0.89119(2) 0.94152(2) 0.46406(2)
Cd7 Cd 0.91610(2) 0.81159(2) 0.21707(2)
O12 O 0.99264(16) 0.08299(16) 0.68815(12)
O16 O 0.97502(18) 0.22203(16) 0.48725(15)
N1 N 0.8848(2) 0.31180(19) 0.81508(17)
N2 N 0.5146(2) 0.5171(2) 0.85704(18)
H1 H 0.4519 0.4781 0.8938
N3 N 0.3627(3) 0.8523(2) 0.7421(2)
C24 C 0.8371(3) 0.3952(3) 0.7448(2)
H11 H 0.8878 0.4054 0.6861
C25 C 0.7173(3) 0.4665(3) 0.7546(2)
H12 H 0.6889 0.5236 0.7039
C26 C 0.6397(3) 0.4520(2) 0.8412(2)
C27 C 0.6871(3) 0.3645(2) 0.9132(2)
H13 H 0.6372 0.3508 0.9717
C28 C 0.8084(3) 0.2980(2) 0.8978(2)
H14 H 0.8390 0.2403 0.9474
C29 C 0.4672(3) 0.6295(2) 0.8192(2)
C30 C 0.5440(3) 0.7084(3) 0.7811(2)
H15 H 0.6319 0.6859 0.7824
C31 C 0.4897(4) 0.8169(3) 0.7427(3)
H16 H 0.5410 0.8683 0.7161
C32 C 0.2859(3) 0.7827(3) 0.7819(2)
H17 H 0.1983 0.8101 0.7825
C33 C 0.3343(3) 0.6709(3) 0.8220(2)
H18 H 0.2801 0.6231 0.8507
H19 H 0.324(5) 0.926(4) 0.724(4)
N1_2 N 0.1152(2) 0.68820(19) 0.18492(17)
N2_2 N 0.4854(2) 0.4829(2) 0.14296(18)
H1_2 H 0.5481 0.5219 0.1062
N3_2 N 0.6373(3) 0.1477(2) 0.2579(2)
C24_2 C 0.1629(3) 0.6048(3) 0.2552(2)
H11_2 H 0.1122 0.5946 0.3139
C25_2 C 0.2827(3) 0.5335(3) 0.2454(2)
H12_2 H 0.3111 0.4764 0.2961
C26_2 C 0.3603(3) 0.5480(2) 0.1588(2)
C27_2 C 0.3129(3) 0.6355(2) 0.0868(2)
H13_2 H 0.3628 0.6492 0.0283
C28_2 C 0.1916(3) 0.7020(2) 0.1022(2)
H14_2 H 0.1610 0.7597 0.0526
C29_2 C 0.5328(3) 0.3705(2) 0.1808(2)
C30_2 C 0.4560(3) 0.2916(3) 0.2189(2)
H15_2 H 0.3681 0.3141 0.2176
C31_2 C 0.5103(4) 0.1831(3) 0.2573(3)
H16_2 H 0.4590 0.1317 0.2839
C32_2 C 0.7141(3) 0.2173(3) 0.2181(2)
H17_2 H 0.8017 0.1899 0.2175
C33_2 C 0.6657(3) 0.3291(3) 0.1780(2)
H18_2 H 0.7199 0.3769 0.1493
H19_2 H 0.676(5) 0.074(4) 0.276(4)
O7_2 O 0.84567(18) 0.13285(15) 0.42353(14)
O9 O 0.7613(2) 0.68773(19) 0.20763(17)
O10 O 0.8764(2) 0.66493(17) 0.33311(16)
C1_2 C 0.8916(2) 0.0462(2) 0.69115(17)
C2_2 C 0.8014(2) 0.0589(2) 0.78296(16)
C3_2 C 0.8521(2) 0.0077(2) 0.87137(17)
C4_2 C 0.7759(2) 0.0059(2) 0.96010(17)
C6_2 C 0.6474(2) 0.0618(2) 0.96070(18)
C7_2 C 0.5966(2) 0.1118(2) 0.87265(18)
H4_2 H 0.5108 0.1482 0.8741
C8_2 C 0.6704(2) 0.1093(2) 0.78161(17)
C9_2 C 0.6092(2) 0.15567(19) 0.68790(16)
C10_2 C 0.4951(2) 0.1274(2) 0.67483(17)
H5_2 H 0.4564 0.0844 0.7259
C11_2 C 0.4381(2) 0.1625(2) 0.58667(17)
C12_2 C 0.3201(2) 0.1243(2) 0.57108(18)
C13_2 C 0.4923(2) 0.2306(2) 0.51132(17)
H6_2 H 0.4539 0.2534 0.4523
C14_2 C 0.6031(2) 0.2650(2) 0.52330(17)
C15_2 C 0.6617(2) 0.2253(2) 0.61173(17)
H7_2 H 0.7375 0.2458 0.6198
C16_2 C 0.6545(2) 0.3480(2) 0.44735(16)
C17_2 C 0.7858(2) 0.3361(2) 0.42287(17)
C18_2 C 0.8765(2) 0.2211(2) 0.44750(18)
C19_2 C 0.8315(2) 0.4281(2) 0.3701(2)
H8_2 H 0.9187 0.4227 0.3593
C20_2 C 0.7479(2) 0.5290(2) 0.33297(18)
C21_2 C 0.7988(3) 0.6332(2) 0.2864(2)
C22_2 C 0.6189(2) 0.5346(2) 0.34619(17)
H9_2 H 0.5629 0.5978 0.3160
C23_2 C 0.5725(2) 0.4462(2) 0.40443(17)
H10_2 H 0.4851 0.4524 0.4151
O3_2 O 0.7832(2) 0.96575(18) 0.13515(13)
O4_2 O 0.9299(2) 0.86039(19) 0.04088(14)
C5_2 C 0.8325(2) 0.9409(2) 0.05162(18)
O1_2 O 0.86469(17) 0.99464(17) 0.62426(13)
H2_2 H 0.9386 0.9740 0.8709
H3 H 0.4040 0.9346 0.9798
H3_2 H 0.5960 0.0654 0.0202
loop_
_geom_bond_atom_site_label_1
_geom_bond_atom_site_label_2
_geom_bond_site_symmetry_1
_geom_bond_site_symmetry_2
Cd1 O1 1_555 1_555
O14 Cd1 1_555 1_555
O15 Cd1 1_555 1_555
O3 Cd2 1_555 1_555
O4 Cd2 1_555 1_555
C5 O3 1_555 1_555
O14 Cd2 1_555 1_555
O17 Cd2 1_555 1_555
O18 Cd2 1_555 1_555
O4 C5 1_555 1_555
O2 C1 1_555 1_555
O5 C12 1_555 1_555
O6 C12 1_555 1_555
O8 C18 1_555 1_555
O17 C21 1_555 1_555
O18 C21 1_555 1_555
C1 C2 1_555 1_555
C2 C3 1_555 1_555
C4 C3 1_555 1_555
C6 C4 1_555 1_555
C7 C6 1_555 1_555
H4 C7 1_555 1_555
C8 C2 1_555 1_555
C9 C8 1_555 1_555
C10 C9 1_555 1_555
H5 C10 1_555 1_555
C11 C10 1_555 1_555
C12 C11 1_555 1_555
C13 C11 1_555 1_555
H6 C13 1_555 1_555
C14 C13 1_555 1_555
C15 C9 1_555 1_555
H7 C15 1_555 1_555
C16 C14 1_555 1_555
C17 C16 1_555 1_555
C18 O7 1_555 1_555
C19 C17 1_555 1_555
H8 C19 1_555 1_555
C20 C19 1_555 1_555
C21 C20 1_555 1_555
C22 C20 1_555 1_555
H9 C22 1_555 1_555
C23 C16 1_555 1_555
H10 C23 1_555 1_555
Cd4 O5 1_555 1_555
Cd7 O5 1_555 1_555
O6 Cd4 1_555 1_555
C7 C8 1_555 1_555
C14 C15 1_555 1_555
C17 C18 1_555 1_555
C22 C23 1_555 1_555
N1 C24 1_555 1_555
N2 H1 1_555 1_555
N3 C31 1_555 1_555
C24 H11 1_555 1_555
C25 C24 1_555 1_555
H12 C25 1_555 1_555
C26 N2 1_555 1_555
C27 C26 1_555 1_555
H13 C27 1_555 1_555
C28 N1 1_555 1_555
H14 C28 1_555 1_555
C29 N2 1_555 1_555
C30 C29 1_555 1_555
H15 C30 1_555 1_555
C31 C30 1_555 1_555
H16 C31 1_555 1_555
C32 N3 1_555 1_555
H17 C32 1_555 1_555
C33 C29 1_555 1_555
H18 C33 1_555 1_555
H19 N3 1_555 1_555
C25 C26 1_555 1_555
C27 C28 1_555 1_555
C32 C33 1_555 1_555
N1_2 C24_2 1_555 1_555
N2_2 H1_2 1_555 1_555
N3_2 C31_2 1_555 1_555
C24_2 H11_2 1_555 1_555
C25_2 C24_2 1_555 1_555
H12_2 C25_2 1_555 1_555
C26_2 N2_2 1_555 1_555
C27_2 C26_2 1_555 1_555
H13_2 C27_2 1_555 1_555
C28_2 N1_2 1_555 1_555
H14_2 C28_2 1_555 1_555
C29_2 N2_2 1_555 1_555
C30_2 C29_2 1_555 1_555
H15_2 C30_2 1_555 1_555
C31_2 C30_2 1_555 1_555
H16_2 C31_2 1_555 1_555
C32_2 N3_2 1_555 1_555
H17_2 C32_2 1_555 1_555
C33_2 C29_2 1_555 1_555
H18_2 C33_2 1_555 1_555
H19_2 N3_2 1_555 1_555
C25_2 C26_2 1_555 1_555
C27_2 C28_2 1_555 1_555
C32_2 C33_2 1_555 1_555
O12 C1_2 1_555 1_555
O14 C12_2 1_555 1_555
O15 C12_2 1_555 1_555
O16 C18_2 1_555 1_555
O9 C21_2 1_555 1_555
O10 C21_2 1_555 1_555
C1_2 C2_2 1_555 1_555
C2_2 C3_2 1_555 1_555
C4_2 C3_2 1_555 1_555
C6_2 C4_2 1_555 1_555
C7_2 C6_2 1_555 1_555
H4_2 C7_2 1_555 1_555
C8_2 C2_2 1_555 1_555
C9_2 C8_2 1_555 1_555
C10_2 C9_2 1_555 1_555
H5_2 C10_2 1_555 1_555
C11_2 C10_2 1_555 1_555
C12_2 C11_2 1_555 1_555
C13_2 C11_2 1_555 1_555
H6_2 C13_2 1_555 1_555
C14_2 C13_2 1_555 1_555
C15_2 C9_2 1_555 1_555
H7_2 C15_2 1_555 1_555
C16_2 C14_2 1_555 1_555
C17_2 C16_2 1_555 1_555
C18_2 O7_2 1_555 1_555
C19_2 C17_2 1_555 1_555
H8_2 C19_2 1_555 1_555
C20_2 C19_2 1_555 1_555
C21_2 C20_2 1_555 1_555
C22_2 C20_2 1_555 1_555
H9_2 C22_2 1_555 1_555
C23_2 C16_2 1_555 1_555
H10_2 C23_2 1_555 1_555
Cd7 O9 1_555 1_555
O10 Cd7 1_555 1_555
C7_2 C8_2 1_555 1_555
C14_2 C15_2 1_555 1_555
C17_2 C18_2 1_555 1_555
C22_2 C23_2 1_555 1_555
O3_2 Cd7 1_555 1_555
O4_2 Cd7 1_555 1_555
C5_2 O3_2 1_555 1_555
O4_2 C5_2 1_555 1_555
Cd4 O1_2 1_555 1_555

#END
