
###############################################################################
#
# This file contains modified crystal structure data generated from the
# MOF subset of the Cambridge Structural Database (CSD) v543 
# hosted by the Cambridge Crystallographic Data Centre (CCDC).
#
# This work is licensed under the Creative Commons
# Attribution-NonCommercial-ShareAlike 4.0 International License.
# To view a copy of this license, visit
# http://creativecommons.org/licenses/by-nc-sa/4.0/
# or send a letter to
# Creative Commons, PO Box 1866, Mountain View, CA 94042, USA.
#
# CIF created using the CSD Python API on 29 September 2022
# The structure has been converted into the P1 space group
# The structure has a 3D framework
# The original CSD entry IBIDAA is in the hexagonal crystal system
# The original CSD entry IBIDAA is in a Sohncke space group
# The framework has been calculated to contain at least 10.0% void space
# The void calculation uses a probe of radius 1.32A, grid spacing 0.4
#
###############################################################################

data_IBIDAA
_chemical_formula_moiety         '(C66 H90 Br6 N12 O11 Zn6)n'
_symmetry_cell_setting           triclinic
_symmetry_space_group_name_H-M   'P 1'
_symmetry_Int_Tables_number      1
_space_group_name_Hall           'P 1'
loop_
_symmetry_equiv_pos_site_id
_symmetry_equiv_pos_as_xyz
1 x,y,z
_cell_length_a                   17.8590(10)
_cell_length_b                   17.8590(10)
_cell_length_c                   10.5031(12)
_cell_angle_alpha                90
_cell_angle_beta                 90
_cell_angle_gamma                120
_cell_volume                     2901.1
loop_
_atom_site_label
_atom_site_type_symbol
_atom_site_fract_x
_atom_site_fract_y
_atom_site_fract_z
Br1 Br 0.54637(8) 0.67742(6) 0.43001(12)
C1 C 0.6631(6) 0.4233(6) 0.4087(8)
H1 H 0.6365 0.4207 0.3282
H2 H 0.6397 0.3660 0.4426
H3 H 0.7244 0.4485 0.3974
C2 C 0.6453(4) 0.4782(5) 0.5007(5)
H4 H 0.6756 0.4814 0.5800
C3 C 0.6786(6) 0.5679(8) 0.4572(11)
H5 H 0.7403 0.5962 0.4487
H6 H 0.6638 0.5984 0.5182
H7 H 0.6534 0.5675 0.3763
C4 C 0.5483(3) 0.4351(4) 0.5335(4)
H8 H 0.5285 0.3752 0.5584
C5 C 0.4152(4) 0.3482(4) 0.4037(6)
H9 H 0.3799 0.3519 0.3367
H10 H 0.3818 0.3328 0.4818
C6 C 0.4348(4) 0.2770(4) 0.3709(5)
C7 C 0.4739(6) 0.2787(4) 0.2574(6)
H11 H 0.4843 0.3213 0.1978
C8 C 0.4157(4) 0.2100(4) 0.4537(6)
H12 H 0.3873 0.2055 0.5300
C9 C 0.4395(4) 0.1496(5) 0.4219(6)
H13 H 0.4255 0.1040 0.4776
C10 C 0.4977(5) 0.2189(6) 0.2310(6)
H14 H 0.5253 0.2224 0.1543
C11 C 0.5330(3) 0.4804(4) 0.6465(5)
N1 N 0.4929(3) 0.4334(3) 0.4201(3)
H15 H 0.5255 0.4457 0.3482
N2 N 0.4823(3) 0.1542(3) 0.3131(4)
O1 O 0.5725(3) 0.4826(4) 0.7451(4)
O2 O 0.4830(3) 0.5092(3) 0.6360(3)
Zn1 Zn 0.45615(4) 0.52621(4) 0.44051(5)
N3 N 0.3281(4) 0.4823(3) 0.4798(4)
O3 O 0.4275(3) 0.5174(4) 0.2451(4)
Zn2 Zn 0.54385(4) 0.47379(4) 0.94051(5)
Zn3 Zn 0.52621(4) 0.07006(6) 0.27384(5)
Zn2_2 Zn 0.07006(6) 0.54385(4) 0.10718(5)
C1_2 C 0.2398(8) 0.6631(6) 0.5754(8)
H1_2 H 0.2158 0.6365 0.4949
H2_2 H 0.2737 0.6397 0.6093
H3_2 H 0.2759 0.7244 0.5641
C2_2 C 0.1671(6) 0.6453(4) 0.6674(5)
H4_2 H 0.1942 0.6756 0.7467
C3_2 C 0.1107(10) 0.6786(6) 0.6239(11)
H5_2 H 0.1441 0.7403 0.6154
H6_2 H 0.0654 0.6638 0.6849
H7_2 H 0.0859 0.6534 0.5430
C4_2 C 0.1132(5) 0.5483(3) 0.7002(4)
H8_2 H 0.1533 0.5285 0.7251
C5_2 C 0.0670(6) 0.4152(4) 0.5704(6)
H9_2 H 0.0280 0.3799 0.5034
H10_2 H 0.0490 0.3818 0.6485
C6_2 C 0.1578(6) 0.4348(4) 0.5376(5)
C7_2 C 0.1952(7) 0.4739(6) 0.4241(6)
H11_2 H 0.1630 0.4843 0.3645
C8_2 C 0.2057(6) 0.4157(4) 0.6204(6)
H12_2 H 0.1818 0.3873 0.6967
C9_2 C 0.2899(6) 0.4395(4) 0.5886(6)
H13_2 H 0.3215 0.4255 0.6443
C10_2 C 0.2788(8) 0.4977(5) 0.3977(6)
H14_2 H 0.3029 0.5253 0.3210
C11_2 C 0.0526(5) 0.5330(3) 0.8132(5)
N1_2 N 0.0595(4) 0.4929(3) 0.5868(3)
H15_2 H 0.0798 0.5255 0.5149
O1_2 O 0.0899(5) 0.5725(3) 0.9118(4)
O1_3 O 0.5174(4) 0.0899(5) 0.0784(4)
Br1_2 Br 0.32258(6) 0.86895(10) 0.76334(12)
O2_2 O 0.4908(3) 0.9738(4) 0.9693(3)
Zn1_2 Zn 0.47379(4) 0.92994(6) 0.77384(5)
N3_2 N 0.5177(3) 0.8458(5) 0.8131(4)
O3_2 O 0.4826(4) 0.9101(5) 0.5784(4)
C2_3 C 0.3547(4) 0.5218(5) 0.0007(5)
H4_3 H 0.3244 0.5186 0.0800
H6_3 H 0.3362 0.4016 0.0182
C4_3 C 0.4517(3) 0.5649(4) 0.0335(4)
H8_3 H 0.4715 0.6248 0.0584
H12_3 H 0.6127 0.7945 0.0300
C11_3 C 0.4670(3) 0.5196(4) 0.1465(5)
O2_3 O 0.5170(3) 0.4908(3) 0.1360(3)
Br1_3 Br 0.45363(8) 0.32258(6) 0.93001(12)
C1_3 C 0.3369(6) 0.5767(6) 0.9087(8)
H1_3 H 0.3635 0.5793 0.8282
H2_3 H 0.3603 0.6340 0.9426
H3_3 H 0.2756 0.5515 0.8974
C3_3 C 0.3214(6) 0.4321(8) 0.9572(11)
H5_3 H 0.2597 0.4038 0.9487
H7_3 H 0.3466 0.4325 0.8763
C5_3 C 0.5848(4) 0.6518(4) 0.9037(6)
H9_3 H 0.6201 0.6481 0.8367
H10_3 H 0.6182 0.6672 0.9818
C6_3 C 0.5652(4) 0.7230(4) 0.8709(5)
C7_3 C 0.5261(6) 0.7213(4) 0.7574(6)
H11_3 H 0.5157 0.6787 0.6978
C8_3 C 0.5843(4) 0.7900(4) 0.9537(6)
C9_3 C 0.5605(4) 0.8504(5) 0.9219(6)
H13_3 H 0.5745 0.8960 0.9776
C10_3 C 0.5023(5) 0.7811(6) 0.7310(6)
H14_3 H 0.4747 0.7776 0.6543
N1_3 N 0.5071(3) 0.5666(3) 0.9201(3)
H15_3 H 0.4745 0.5543 0.8482
N3_3 N 0.6719(4) 0.5177(3) 0.9798(4)
Br1_4 Br 0.13105(10) 0.45363(8) 0.09668(12)
O2_4 O 0.0262(4) 0.5170(3) 0.3027(3)
N3_4 N 0.1542(5) 0.6719(4) 0.1464(4)
H1_4 H 0.7842 0.3635 0.9949
C7_4 C 0.8048(7) 0.5261(6) 0.9241(6)
H11_4 H 0.8370 0.5157 0.8645
C10_4 C 0.7212(8) 0.5023(5) 0.8977(6)
H14_4 H 0.6971 0.4747 0.8210
Br1_5 Br 0.67742(6) 0.13105(10) 0.26334(12)
O2_5 O 0.5092(3) 0.0262(4) 0.4693(3)
C1_4 C 0.4233(6) 0.7602(8) 0.2420(8)
H1_5 H 0.4207 0.7842 0.1615
H2_4 H 0.3660 0.7263 0.2759
H3_4 H 0.4485 0.7241 0.2307
C2_4 C 0.4782(5) 0.8329(6) 0.3340(5)
H4_4 H 0.4814 0.8058 0.4133
C3_4 C 0.5679(8) 0.8893(10) 0.2905(11)
H5_4 H 0.5962 0.8559 0.2820
H6_4 H 0.5984 0.9346 0.3515
H7_4 H 0.5675 0.9141 0.2096
C4_4 C 0.4351(4) 0.8868(5) 0.3668(4)
H8_4 H 0.3752 0.8467 0.3917
C5_4 C 0.3482(4) 0.9330(6) 0.2370(6)
H9_4 H 0.3519 0.9720 0.1700
H10_4 H 0.3328 0.9510 0.3151
C6_4 C 0.2770(4) 0.8422(6) 0.2042(5)
C7_5 C 0.2787(4) 0.8048(7) 0.0907(6)
H11_5 H 0.3213 0.8370 0.0311
C8_4 C 0.2100(4) 0.7943(6) 0.2870(6)
H12_4 H 0.2055 0.8182 0.3633
C9_4 C 0.1496(5) 0.7101(6) 0.2552(6)
H13_4 H 0.1040 0.6785 0.3109
C10_5 C 0.2189(6) 0.7212(8) 0.0643(6)
C11_4 C 0.4804(4) 0.9474(5) 0.4798(5)
N1_4 N 0.4334(3) 0.9405(4) 0.2534(3)
H15_4 H 0.4457 0.9202 0.1815
Br1_6 Br 0.86895(10) 0.54637(8) 0.59668(12)
O2_6 O 0.9738(4) 0.4830(3) 0.8027(3)
Zn1_3 Zn 0.92994(6) 0.45615(4) 0.60718(5)
N3_5 N 0.8458(5) 0.3281(4) 0.6464(4)
O3_3 O 0.9101(5) 0.4275(3) 0.4118(4)
C1_5 C 0.5767(6) 0.2398(8) 0.7420(8)
H1_6 H 0.5793 0.2158 0.6615
H2_5 H 0.6340 0.2737 0.7759
H3_5 H 0.5515 0.2759 0.7307
C2_5 C 0.5218(5) 0.1671(6) 0.8340(5)
H4_5 H 0.5186 0.1942 0.9133
C3_5 C 0.4321(8) 0.1107(10) 0.7905(11)
H5_5 H 0.4038 0.1441 0.7820
H6_5 H 0.4016 0.0654 0.8515
H7_5 H 0.4325 0.0859 0.7096
C4_5 C 0.5649(4) 0.1132(5) 0.8668(4)
H8_5 H 0.6248 0.1533 0.8917
C5_5 C 0.6518(4) 0.0670(6) 0.7370(6)
H9_5 H 0.6481 0.0280 0.6700
H10_5 H 0.6672 0.0490 0.8151
C6_5 C 0.7230(4) 0.1578(6) 0.7042(5)
C7_6 C 0.7213(4) 0.1952(7) 0.5907(6)
H11_6 H 0.6787 0.1630 0.5311
C8_5 C 0.7900(4) 0.2057(6) 0.7870(6)
H12_5 H 0.7945 0.1818 0.8633
C9_5 C 0.8504(5) 0.2899(6) 0.7552(6)
H13_5 H 0.8960 0.3215 0.8109
C10_6 C 0.7811(6) 0.2788(8) 0.5643(6)
H14_5 H 0.7776 0.3029 0.4876
C11_5 C 0.5196(4) 0.0526(5) 0.9798(5)
N1_5 N 0.5666(3) 0.0595(4) 0.7534(3)
H15_5 H 0.5543 0.0798 0.6815
C1_6 C 0.7602(8) 0.3369(6) 0.0754(8)
H2_6 H 0.7263 0.3603 0.1093
H3_6 H 0.7241 0.2756 0.0641
C2_6 C 0.8329(6) 0.3547(4) 0.1674(5)
H4_6 H 0.8058 0.3244 0.2467
C3_6 C 0.8893(10) 0.3214(6) 0.1239(11)
H5_6 H 0.8559 0.2597 0.1154
H6_6 H 0.9346 0.3362 0.1849
H7_6 H 0.9141 0.3466 0.0430
C4_6 C 0.8868(5) 0.4517(3) 0.2002(4)
H8_6 H 0.8467 0.4715 0.2251
C5_6 C 0.9330(6) 0.5848(4) 0.0704(6)
H9_6 H 0.9720 0.6201 0.0034
H10_6 H 0.9510 0.6182 0.1485
C6_6 C 0.8422(6) 0.5652(4) 0.0376(5)
C8_6 C 0.7943(6) 0.5843(4) 0.1204(6)
H12_6 H 0.8182 0.6127 0.1967
C9_6 C 0.7101(6) 0.5605(4) 0.0886(6)
H13_6 H 0.6785 0.5745 0.1443
C11_6 C 0.9474(5) 0.4670(3) 0.3132(5)
N1_6 N 0.9405(4) 0.5071(3) 0.0868(3)
H15_6 H 0.9202 0.4745 0.0149
H14_6 H 0.2224 0.6971 0.9876
loop_
_geom_bond_atom_site_label_1
_geom_bond_atom_site_label_2
_geom_bond_site_symmetry_1
_geom_bond_site_symmetry_2
Br1 Zn1 1_555 1_555
C1 H1 1_555 1_555
H2 C1 1_555 1_555
H3 C1 1_555 1_555
C2 C1 1_555 1_555
H4 C2 1_555 1_555
C3 C2 1_555 1_555
H5 C3 1_555 1_555
H6 C3 1_555 1_555
H7 C3 1_555 1_555
C4 C2 1_555 1_555
H8 C4 1_555 1_555
C5 H9 1_555 1_555
H10 C5 1_555 1_555
C6 C5 1_555 1_555
C7 C6 1_555 1_555
H11 C7 1_555 1_555
C8 C6 1_555 1_555
H12 C8 1_555 1_555
C9 C8 1_555 1_555
H13 C9 1_555 1_555
C10 C7 1_555 1_555
H14 C10 1_555 1_555
C11 C4 1_555 1_555
N1 C4 1_555 1_555
H15 N1 1_555 1_555
N2 C9 1_555 1_555
O1 C11 1_555 1_555
O2 C11 1_555 1_555
Zn1 N1 1_555 1_555
N3 Zn1 1_555 1_555
O3 Zn1 1_555 1_555
Zn2 O1 1_555 1_555
Zn3 N2 1_555 1_555
C5 N1 1_555 1_555
C10 N2 1_555 1_555
O2 Zn1 1_555 1_555
C1_2 H1_2 1_555 1_555
H2_2 C1_2 1_555 1_555
H3_2 C1_2 1_555 1_555
C2_2 C1_2 1_555 1_555
H4_2 C2_2 1_555 1_555
C3_2 C2_2 1_555 1_555
H5_2 C3_2 1_555 1_555
H6_2 C3_2 1_555 1_555
H7_2 C3_2 1_555 1_555
C4_2 C2_2 1_555 1_555
H8_2 C4_2 1_555 1_555
C5_2 H9_2 1_555 1_555
H10_2 C5_2 1_555 1_555
C6_2 C5_2 1_555 1_555
C7_2 C6_2 1_555 1_555
H11_2 C7_2 1_555 1_555
C8_2 C6_2 1_555 1_555
H12_2 C8_2 1_555 1_555
C9_2 C8_2 1_555 1_555
H13_2 C9_2 1_555 1_555
C10_2 C7_2 1_555 1_555
H14_2 C10_2 1_555 1_555
C11_2 C4_2 1_555 1_555
N1_2 C4_2 1_555 1_555
H15_2 N1_2 1_555 1_555
N3 C9_2 1_555 1_555
O1_2 C11_2 1_555 1_555
C5_2 N1_2 1_555 1_555
C10_2 N3 1_555 1_555
Zn3 O1_3 1_555 1_555
Br1_2 Zn1_2 1_555 1_555
N3_2 Zn1_2 1_555 1_555
O3_2 Zn1_2 1_555 1_555
O2_2 Zn1_2 1_555 1_555
H4_3 C2_3 1_555 1_555
C4_3 C2_3 1_555 1_555
H8_3 C4_3 1_555 1_555
C11_3 C4_3 1_555 1_555
O3 C11_3 1_555 1_555
O2_3 C11_3 1_555 1_555
Br1_3 Zn2 1_555 1_555
C1_3 H1_3 1_555 1_555
H2_3 C1_3 1_555 1_555
H3_3 C1_3 1_555 1_555
H5_3 C3_3 1_555 1_555
H7_3 C3_3 1_555 1_555
C5_3 H9_3 1_555 1_555
H10_3 C5_3 1_555 1_555
C6_3 C5_3 1_555 1_555
C7_3 C6_3 1_555 1_555
H11_3 C7_3 1_555 1_555
C8_3 C6_3 1_555 1_555
C9_3 C8_3 1_555 1_555
H13_3 C9_3 1_555 1_555
C10_3 C7_3 1_555 1_555
H14_3 C10_3 1_555 1_555
H15_3 N1_3 1_555 1_555
N3_2 C9_3 1_555 1_555
Zn2 N1_3 1_555 1_555
N3_3 Zn2 1_555 1_555
C5_3 N1_3 1_555 1_555
C10_3 N3_2 1_555 1_555
Br1_4 Zn2_2 1_555 1_555
N3_4 Zn2_2 1_555 1_555
O2_4 Zn2_2 1_555 1_555
H11_4 C7_4 1_555 1_555
C10_4 C7_4 1_555 1_555
H14_4 C10_4 1_555 1_555
C10_4 N3_3 1_555 1_555
Br1_5 Zn3 1_555 1_555
O2_5 Zn3 1_555 1_555
C1_4 H1_5 1_555 1_555
H2_4 C1_4 1_555 1_555
H3_4 C1_4 1_555 1_555
C2_4 C1_4 1_555 1_555
H4_4 C2_4 1_555 1_555
C3_4 C2_4 1_555 1_555
H5_4 C3_4 1_555 1_555
H6_4 C3_4 1_555 1_555
H7_4 C3_4 1_555 1_555
C4_4 C2_4 1_555 1_555
H8_4 C4_4 1_555 1_555
C5_4 H9_4 1_555 1_555
H10_4 C5_4 1_555 1_555
C6_4 C5_4 1_555 1_555
C7_5 C6_4 1_555 1_555
H11_5 C7_5 1_555 1_555
C8_4 C6_4 1_555 1_555
H12_4 C8_4 1_555 1_555
C9_4 C8_4 1_555 1_555
H13_4 C9_4 1_555 1_555
C10_5 C7_5 1_555 1_555
C11_4 C4_4 1_555 1_555
N1_4 C4_4 1_555 1_555
H15_4 N1_4 1_555 1_555
N3_4 C9_4 1_555 1_555
O3_2 C11_4 1_555 1_555
C5_4 N1_4 1_555 1_555
C10_5 N3_4 1_555 1_555
Br1_6 Zn1_3 1_555 1_555
N3_5 Zn1_3 1_555 1_555
O3_3 Zn1_3 1_555 1_555
O2_6 Zn1_3 1_555 1_555
C1_5 H1_6 1_555 1_555
H2_5 C1_5 1_555 1_555
H3_5 C1_5 1_555 1_555
C2_5 C1_5 1_555 1_555
H4_5 C2_5 1_555 1_555
C3_5 C2_5 1_555 1_555
H5_5 C3_5 1_555 1_555
H6_5 C3_5 1_555 1_555
H7_5 C3_5 1_555 1_555
C4_5 C2_5 1_555 1_555
H8_5 C4_5 1_555 1_555
C5_5 H9_5 1_555 1_555
H10_5 C5_5 1_555 1_555
C6_5 C5_5 1_555 1_555
C7_6 C6_5 1_555 1_555
H11_6 C7_6 1_555 1_555
C8_5 C6_5 1_555 1_555
H12_5 C8_5 1_555 1_555
C9_5 C8_5 1_555 1_555
H13_5 C9_5 1_555 1_555
C10_6 C7_6 1_555 1_555
H14_5 C10_6 1_555 1_555
C11_5 C4_5 1_555 1_555
N1_5 C4_5 1_555 1_555
H15_5 N1_5 1_555 1_555
N3_5 C9_5 1_555 1_555
C5_5 N1_5 1_555 1_555
C10_6 N3_5 1_555 1_555
H2_6 C1_6 1_555 1_555
H3_6 C1_6 1_555 1_555
C2_6 C1_6 1_555 1_555
H4_6 C2_6 1_555 1_555
C3_6 C2_6 1_555 1_555
H5_6 C3_6 1_555 1_555
H6_6 C3_6 1_555 1_555
H7_6 C3_6 1_555 1_555
C4_6 C2_6 1_555 1_555
H8_6 C4_6 1_555 1_555
C5_6 H9_6 1_555 1_555
H10_6 C5_6 1_555 1_555
C6_6 C5_6 1_555 1_555
C8_6 C6_6 1_555 1_555
H12_6 C8_6 1_555 1_555
C9_6 C8_6 1_555 1_555
H13_6 C9_6 1_555 1_555
C11_6 C4_6 1_555 1_555
N1_6 C4_6 1_555 1_555
H15_6 N1_6 1_555 1_555
O3_3 C11_6 1_555 1_555
C5_6 N1_6 1_555 1_555

#END
