
###############################################################################
#
# This file contains modified crystal structure data generated from the
# MOF subset of the Cambridge Structural Database (CSD) v543 
# hosted by the Cambridge Crystallographic Data Centre (CCDC).
#
# This work is licensed under the Creative Commons
# Attribution-NonCommercial-ShareAlike 4.0 International License.
# To view a copy of this license, visit
# http://creativecommons.org/licenses/by-nc-sa/4.0/
# or send a letter to
# Creative Commons, PO Box 1866, Mountain View, CA 94042, USA.
#
# CIF created using the CSD Python API on 29 September 2022
# The structure has been converted into the P1 space group
# The structure has a 3D framework
# The original CSD entry IBIXID is in the triclinic crystal system
# The framework has been calculated to contain at least 10.0% void space
# The void calculation uses a probe of radius 1.32A, grid spacing 0.4
#
###############################################################################

data_IBIXID
_chemical_formula_moiety         '(C44 H32 Cd2 N4 O6)n'
_symmetry_cell_setting           triclinic
_symmetry_space_group_name_H-M   'P 1'
_symmetry_Int_Tables_number      1
_space_group_name_Hall           'P 1'
loop_
_symmetry_equiv_pos_site_id
_symmetry_equiv_pos_as_xyz
1 x,y,z
_cell_length_a                   9.5073(9)
_cell_length_b                   10.3257(9)
_cell_length_c                   12.2884(11)
_cell_angle_alpha                97.513(5)
_cell_angle_beta                 94.735(5)
_cell_angle_gamma                114.803(4)
_cell_volume                     1072.94
loop_
_atom_site_label
_atom_site_type_symbol
_atom_site_fract_x
_atom_site_fract_y
_atom_site_fract_z
_atom_site_U_iso_or_equiv
_atom_site_thermal_displace_type
O7 O 0.0572(7) 0.2749(6) 0.7425(5) 0.0291 Uani
O8 O 0.1830(6) 0.1490(5) 0.7905(4) 0.0210 Uani
C27 C 0.0962(9) 0.1737(7) 0.7226(6) 0.0155 Uani
C28 C 0.0415(9) 0.0797(8) 0.6066(6) 0.0163 Uani
C30 C 0.1249(10) 0.0044(8) 0.5693(6) 0.0239 Uani
H20 H 0.2097 0.0084 0.6155 0.0280 Uiso
Cd7 Cd 0.29448(6) 0.38730(5) 0.89025(4) 0.0120 Uani
O1 O 0.4874(7) 0.3508(6) 0.9925(5) 0.0287 Uani
N1 N 0.8480(7) 0.6460(7) 0.9649(5) 0.0189 Uani
N2 N 0.4444(8) 0.4303(7) 0.7451(5) 0.0221 Uani
C1 C 0.8748(9) 0.5354(9) 0.9174(6) 0.0201 Uani
H1 H 0.8528 0.4566 0.9532 0.0240 Uiso
C2 C 0.9329(9) 0.5320(9) 0.8189(6) 0.0215 Uani
H2 H 0.9520 0.4540 0.7904 0.0260 Uiso
C3 C 0.9626(11) 0.6459(9) 0.7627(7) 0.0287 Uani
C4 C 0.9451(11) 0.7646(9) 0.8151(8) 0.0341 Uani
H3 H 0.9723 0.8471 0.7832 0.0410 Uiso
C5 C 0.8874(10) 0.7601(8) 0.9143(7) 0.0258 Uani
H4 H 0.8752 0.8403 0.9474 0.0310 Uiso
C6 C 0.9855(13) 0.6330(11) 0.6412(8) 0.0410 Uani
C9 C 0.8150(13) 0.5506(11) 0.5484(8) 0.0424 Uani
H8 H 0.8103 0.6133 0.4962 0.0510 Uiso
C10 C 0.6697(11) 0.4967(10) 0.6030(7) 0.0294 Uani
C11 C 0.6038(10) 0.5886(10) 0.6344(7) 0.0267 Uani
H9 H 0.6330 0.6745 0.6069 0.0320 Uiso
C12 C 0.4952(10) 0.5550(9) 0.7061(7) 0.0281 Uani
H10 H 0.4557 0.6211 0.7282 0.0340 Uiso
C13 C 0.4999(10) 0.3358(9) 0.7097(7) 0.0258 Uani
H11 H 0.4629 0.2472 0.7338 0.0310 Uiso
C14 C 0.6102(11) 0.3643(10) 0.6387(7) 0.0321 Uani
H12 H 0.6447 0.2949 0.6149 0.0380 Uiso
C17 C 0.4049(9) 0.0491(8) 0.9439(7) 0.0222 Uani
H13 H 0.3402 0.0812 0.9064 0.0270 Uiso
H25 H 0.9473 0.2718 0.3751 0.0500 Uiso
C37 C 0.9635(13) 0.4799(12) 0.4068(8) 0.0428 Uani
H26 H 0.9415 0.5385 0.3574 0.0510 Uiso
C38 C 0.8675(12) 0.4391(11) 0.4975(8) 0.0408 Uani
H27 H 0.7989 0.3362 0.4946 0.0490 Uiso
O6 O 0.3036(6) 0.6107(5) 0.8917(4) 0.0192 Uani
C23 C 0.4262(9) 0.6934(7) 0.9596(6) 0.0167 Uani
C24 C 0.4659(9) 0.8528(8) 0.9809(6) 0.0172 Uani
C26 C 0.3714(9) 0.9027(8) 0.9243(6) 0.0198 Uani
H18 H 0.2851 0.8376 0.8729 0.0240 Uiso
C21 C 0.0809(9) 0.9230(9) 0.4627(6) 0.0228 Uani
H15 H 0.1346 0.8702 0.4381 0.0270 Uiso
H5 H 0.0527 0.7282 0.6249 0.0500 Uiso
C7 C 0.0365(13) 0.5201(12) 0.5932(8) 0.0428 Uani
H6 H 0.0585 0.4615 0.6426 0.0510 Uiso
C8 C 0.1325(12) 0.5609(11) 0.5025(8) 0.0408 Uani
H7 H 0.2011 0.6638 0.5054 0.0490 Uiso
N3 N 0.1520(7) 0.3540(7) 0.0351(5) 0.0189 Uani
N4 N 0.5556(8) 0.5697(7) 0.2549(5) 0.0221 Uani
C31 C 0.1252(9) 0.4646(9) 0.0826(6) 0.0201 Uani
H21 H 0.1472 0.5434 0.0468 0.0240 Uiso
C32 C 0.0671(9) 0.4680(9) 0.1811(6) 0.0215 Uani
H22 H 0.0480 0.5460 0.2096 0.0260 Uiso
C33 C 0.0374(11) 0.3541(9) 0.2373(7) 0.0287 Uani
C34 C 0.0549(11) 0.2354(9) 0.1849(8) 0.0341 Uani
H23 H 0.0277 0.1529 0.2168 0.0410 Uiso
C35 C 0.1126(10) 0.2399(8) 0.0857(7) 0.0258 Uani
H24 H 0.1248 0.1597 0.0526 0.0310 Uiso
C36 C 0.0145(13) 0.3670(11) 0.3588(8) 0.0410 Uani
C39 C 0.1850(13) 0.4494(11) 0.4516(8) 0.0424 Uani
H28 H 0.1897 0.3867 0.5038 0.0510 Uiso
C40 C 0.3303(11) 0.5033(10) 0.3970(7) 0.0294 Uani
C41 C 0.3962(10) 0.4114(10) 0.3656(7) 0.0267 Uani
H29 H 0.3670 0.3255 0.3931 0.0320 Uiso
C42 C 0.5048(10) 0.4450(9) 0.2939(7) 0.0281 Uani
H30 H 0.5443 0.3789 0.2718 0.0340 Uiso
C43 C 0.5001(10) 0.6642(9) 0.2903(7) 0.0258 Uani
H31 H 0.5371 0.7528 0.2662 0.0310 Uiso
C44 C 0.3898(11) 0.6357(10) 0.3613(7) 0.0321 Uani
H32 H 0.3553 0.7051 0.3851 0.0380 Uiso
Cd4 Cd 0.70552(6) 0.61270(5) 0.10975(4) 0.0120 Uani
O2 O 0.6964(6) 0.3893(5) 0.1083(4) 0.0192 Uani
O3 O 0.9428(7) 0.7251(6) 0.2575(5) 0.0291 Uani
O4 O 0.8170(6) 0.8510(5) 0.2095(4) 0.0210 Uani
C15 C 0.5738(9) 0.3066(7) 0.0404(6) 0.0167 Uani
C16 C 0.5341(9) 0.1472(8) 0.0191(6) 0.0172 Uani
C18 C 0.6286(9) 0.0973(8) 0.0757(6) 0.0198 Uani
H14 H 0.7149 0.1624 0.1271 0.0240 Uiso
C19 C 0.9038(9) 0.8263(7) 0.2774(6) 0.0155 Uani
C20 C 0.9585(9) 0.9203(8) 0.3934(6) 0.0163 Uani
C22 C 0.8751(10) 0.9956(8) 0.4307(6) 0.0239 Uani
H16 H 0.7903 0.9916 0.3845 0.0280 Uiso
O10 O 0.5126(7) 0.6492(6) 0.0075(5) 0.0287 Uani
C25 C 0.5951(9) 0.9509(8) 0.0561(7) 0.0222 Uani
H17 H 0.6598 0.9188 0.0936 0.0270 Uiso
C29 C 0.9191(9) 0.0770(9) 0.5373(6) 0.0228 Uani
H19 H 0.8654 0.1298 0.5619 0.0270 Uiso
loop_
_atom_site_aniso_label
_atom_site_aniso_U_11
_atom_site_aniso_U_22
_atom_site_aniso_U_33
_atom_site_aniso_U_23
_atom_site_aniso_U_13
_atom_site_aniso_U_12
O7 0.043 0.027 0.021 -0.008 -0.01 0.025
O8 0.029 0.017 0.013 -0.003 -0.004 0.009
C27 0.022 0.01 0.009 -0.001 0 0.003
C28 0.019 0.014 0.012 -0.004 -0.001 0.006
C30 0.028 0.021 0.023 0 -0.007 0.014
Cd7 0.0154 0.0101 0.01 -6e-05 0.00188 0.00572
O1 0.038 0.014 0.039 0.003 -0.002 0.018
N1 0.019 0.021 0.016 0.003 0.004 0.008
N2 0.02 0.024 0.022 -0.001 0.008 0.01
C1 0.017 0.026 0.023 0.005 0.001 0.015
C2 0.024 0.026 0.024 0.006 0.012 0.018
C3 0.038 0.027 0.03 0.013 0.025 0.017
C4 0.049 0.022 0.038 0.014 0.025 0.016
C5 0.032 0.013 0.032 -0.002 0.011 0.01
C6 0.067 0.037 0.033 0.021 0.029 0.028
C9 0.058 0.048 0.045 0.029 0.035 0.035
C10 0.037 0.041 0.023 0.011 0.014 0.026
C11 0.026 0.034 0.022 0.008 0.004 0.014
C12 0.034 0.023 0.03 0.004 0.011 0.014
C13 0.025 0.023 0.028 0.004 0.011 0.008
C14 0.043 0.038 0.032 0.01 0.02 0.03
C17 0.02 0.018 0.027 0.001 -0.009 0.01
C37 0.058 0.064 0.035 0.028 0.027 0.045
C38 0.051 0.039 0.044 0.015 0.033 0.024
O6 0.016 0.014 0.024 0.001 0.002 0.004
C23 0.02 0.011 0.022 0.007 0.011 0.007
C24 0.02 0.015 0.019 0.003 0.002 0.01
C26 0.022 0.013 0.02 -0.002 -0.003 0.006
C21 0.028 0.024 0.019 -0.002 0 0.016
C7 0.058 0.064 0.035 0.028 0.027 0.045
C8 0.051 0.039 0.044 0.015 0.033 0.024
N3 0.019 0.021 0.016 0.003 0.004 0.008
N4 0.02 0.024 0.022 -0.001 0.008 0.01
C31 0.017 0.026 0.023 0.005 0.001 0.015
C32 0.024 0.026 0.024 0.006 0.012 0.018
C33 0.038 0.027 0.03 0.013 0.025 0.017
C34 0.049 0.022 0.038 0.014 0.025 0.016
C35 0.032 0.013 0.032 -0.002 0.011 0.01
C36 0.067 0.037 0.033 0.021 0.029 0.028
C39 0.058 0.048 0.045 0.029 0.035 0.035
C40 0.037 0.041 0.023 0.011 0.014 0.026
C41 0.026 0.034 0.022 0.008 0.004 0.014
C42 0.034 0.023 0.03 0.004 0.011 0.014
C43 0.025 0.023 0.028 0.004 0.011 0.008
C44 0.043 0.038 0.032 0.01 0.02 0.03
Cd4 0.0154 0.0101 0.01 -6e-05 0.00188 0.00572
O2 0.016 0.014 0.024 0.001 0.002 0.004
O3 0.043 0.027 0.021 -0.008 -0.01 0.025
O4 0.029 0.017 0.013 -0.003 -0.004 0.009
C15 0.02 0.011 0.022 0.007 0.011 0.007
C16 0.02 0.015 0.019 0.003 0.002 0.01
C18 0.022 0.013 0.02 -0.002 -0.003 0.006
C19 0.022 0.01 0.009 -0.001 0 0.003
C20 0.019 0.014 0.012 -0.004 -0.001 0.006
C22 0.028 0.021 0.023 0 -0.007 0.014
O10 0.038 0.014 0.039 0.003 -0.002 0.018
C25 0.02 0.018 0.027 0.001 -0.009 0.01
C29 0.028 0.024 0.019 -0.002 0 0.016
loop_
_geom_bond_atom_site_label_1
_geom_bond_atom_site_label_2
_geom_bond_site_symmetry_1
_geom_bond_site_symmetry_2
O7 C27 1_555 1_555
O8 C27 1_555 1_555
C27 C28 1_555 1_555
H20 C30 1_555 1_555
Cd7 O7 1_555 1_555
O8 Cd7 1_555 1_555
C28 C30 1_555 1_555
N2 C12 1_555 1_555
C1 N1 1_555 1_555
H1 C1 1_555 1_555
C2 C1 1_555 1_555
H2 C2 1_555 1_555
C3 C2 1_555 1_555
C4 C3 1_555 1_555
H3 C4 1_555 1_555
C5 N1 1_555 1_555
H4 C5 1_555 1_555
C6 C3 1_555 1_555
C9 C6 1_555 1_555
H8 C9 1_555 1_555
C10 C9 1_555 1_555
C11 C10 1_555 1_555
H9 C11 1_555 1_555
C12 C11 1_555 1_555
H10 C12 1_555 1_555
C13 N2 1_555 1_555
H11 C13 1_555 1_555
C14 C10 1_555 1_555
H12 C14 1_555 1_555
H13 C17 1_555 1_555
H26 C37 1_555 1_555
H27 C38 1_555 1_555
Cd7 O1 1_555 1_555
N2 Cd7 1_555 1_555
C4 C5 1_555 1_555
C9 C38 1_555 1_555
C13 C14 1_555 1_555
C37 C38 1_555 1_555
O6 C23 1_555 1_555
C23 C24 1_555 1_555
H18 C26 1_555 1_555
O6 Cd7 1_555 1_555
C24 C26 1_555 1_555
H15 C21 1_555 1_555
H6 C7 1_555 1_555
C8 C7 1_555 1_555
H7 C8 1_555 1_555
N3 C31 1_555 1_555
N4 C42 1_555 1_555
C31 H21 1_555 1_555
C32 C31 1_555 1_555
H22 C32 1_555 1_555
C33 C32 1_555 1_555
C34 C33 1_555 1_555
H23 C34 1_555 1_555
C35 N3 1_555 1_555
H24 C35 1_555 1_555
C36 C33 1_555 1_555
C39 C8 1_555 1_555
H28 C39 1_555 1_555
C40 C39 1_555 1_555
C41 C40 1_555 1_555
H29 C41 1_555 1_555
C42 C41 1_555 1_555
H30 C42 1_555 1_555
C43 N4 1_555 1_555
H31 C43 1_555 1_555
C44 C40 1_555 1_555
H32 C44 1_555 1_555
Cd4 N4 1_555 1_555
C34 C35 1_555 1_555
C36 C39 1_555 1_555
C43 C44 1_555 1_555
O2 Cd4 1_555 1_555
O3 Cd4 1_555 1_555
O4 Cd4 1_555 1_555
C15 O2 1_555 1_555
C16 C15 1_555 1_555
C18 C16 1_555 1_555
H14 C18 1_555 1_555
C19 O3 1_555 1_555
C20 C19 1_555 1_555
C22 C20 1_555 1_555
H16 C22 1_555 1_555
O10 Cd4 1_555 1_555
O4 C19 1_555 1_555
H17 C25 1_555 1_555
H19 C29 1_555 1_555

#END
