
###############################################################################
#
# This file contains modified crystal structure data generated from the
# MOF subset of the Cambridge Structural Database (CSD) v543 
# hosted by the Cambridge Crystallographic Data Centre (CCDC).
#
# This work is licensed under the Creative Commons
# Attribution-NonCommercial-ShareAlike 4.0 International License.
# To view a copy of this license, visit
# http://creativecommons.org/licenses/by-nc-sa/4.0/
# or send a letter to
# Creative Commons, PO Box 1866, Mountain View, CA 94042, USA.
#
# CIF created using the CSD Python API on 29 September 2022
# The structure has been converted into the P1 space group
# The structure has a 3D framework
# The original CSD entry IBOCOU is in the triclinic crystal system
# The framework has been calculated to contain at least 10.0% void space
# The void calculation uses a probe of radius 1.32A, grid spacing 0.4
#
###############################################################################

data_IBOCOU
_chemical_formula_moiety         '(C36 H36 Co6 N14 O18 P6)n'
_symmetry_cell_setting           triclinic
_symmetry_space_group_name_H-M   'P 1'
_symmetry_Int_Tables_number      1
_space_group_name_Hall           'P 1'
loop_
_symmetry_equiv_pos_site_id
_symmetry_equiv_pos_as_xyz
1 x,y,z
_cell_length_a                   8.645(4)
_cell_length_b                   15.658(7)
_cell_length_c                   15.977(6)
_cell_angle_alpha                62.066(13)
_cell_angle_beta                 76.251(17)
_cell_angle_gamma                88.765(19)
_cell_volume                     1845.79
loop_
_atom_site_label
_atom_site_type_symbol
_atom_site_fract_x
_atom_site_fract_y
_atom_site_fract_z
Co4 Co 0.07157(5) 0.68522(3) 0.64140(3)
C17 C 0.2901(7) 0.0332(4) 0.7601(3)
H17 H 0.2407 0.0894 0.7496
N7 N 0.3419(4) 0.0028(2) 0.6916(2)
Co6 Co 0.32232(5) 0.07187(3) 0.55203(3)
C4 C 0.1263(4) 0.5776(3) 0.2996(2)
H7 H 0.0276 0.5660 0.3442
C5 C 0.1560(4) 0.6359(3) 0.2023(3)
H8 H 0.0842 0.6723 0.1679
C6 C 0.3744(4) 0.5713(3) 0.2403(2)
H9 H 0.4796 0.5561 0.2350
C7 C 0.4010(4) 0.6791(3) 0.0626(2)
C8 C 0.5285(4) 0.6355(3) 0.0312(2)
H10 H 0.5577 0.5770 0.0749
H11 H 0.7407 0.5002 0.0031
H15 H 0.2690 0.7937 0.0212
Co3 Co 0.30596(5) 0.45513(3) 0.45540(3)
N2 N 0.2619(3) 0.5380(2) 0.32361(19)
N3 N 0.3152(3) 0.6308(2) 0.16331(19)
O4 O 0.1505(3) 0.15076(16) 0.56318(18)
O5 O 0.2222(3) 0.31826(16) 0.53531(17)
O6 O 0.1255(3) 0.29821(17) 0.40738(16)
P2 P 0.11523(9) 0.25651(6) 0.51617(6)
N8 N 0.0622(3) 0.3692(2) 0.21404(19)
O10 O 0.5324(3) 0.13976(17) 0.46388(17)
O12 O 0.5368(3) 0.46681(17) 0.41230(17)
O13 O 0.2179(3) 0.51627(16) 0.53550(17)
C9 C 0.6100(4) 0.6829(3) 0.9323(2)
C10 C 0.7843(5) 0.5492(3) 0.9394(3)
C11 C 0.9059(5) 0.5444(3) 0.8711(3)
H12 H 0.9603 0.4900 0.8807
C12 C 0.8346(4) 0.6861(3) 0.8037(3)
H13 H 0.8283 0.7497 0.7577
C13 C 0.5661(4) 0.7703(3) 0.8678(3)
H14 H 0.6234 0.8022 0.8023
C14 C 0.4375(4) 0.8098(3) 0.9008(2)
C15 C 0.3540(4) 0.7658(3) 0.9988(2)
C16 C 0.3217(7) 0.9687(4) 0.8457(3)
H16 H 0.3011 0.9734 0.9032
C18 C 0.4006(5) 0.9209(3) 0.7374(3)
H18 H 0.4454 0.8837 0.7083
N4 N 0.7383(3) 0.6418(2) 0.8953(2)
N5 N 0.9378(3) 0.6308(2) 0.78596(19)
N6 N 0.3889(4) 0.8967(2) 0.8313(2)
O11 O 0.2644(3) 0.98291(17) 0.50772(19)
C1 C 0.7573(4) 0.1436(2) 0.5582(2)
H1 H 0.6676 0.1194 0.6159
H2 H 0.8480 0.1089 0.5770
C2 C 0.9090(4) 0.2664(2) 0.5707(2)
H3 H 0.8787 0.2188 0.6397
H4 H 0.9007 0.3305 0.5654
C3 C 0.6516(3) 0.3005(2) 0.5259(2)
H5 H 0.6180 0.2969 0.5900
H6 H 0.5654 0.2689 0.5176
Co1 Co 0.92843(5) 0.31478(3) 0.35860(3)
N1 N 0.7981(3) 0.24955(17) 0.51970(18)
O2 O 0.7356(3) 0.01709(17) 0.49228(19)
O3 O 0.8216(3) 0.19454(18) 0.36973(17)
O8 O 0.7821(3) 0.48373(16) 0.46450(17)
O9 O 0.7991(3) 0.42521(15) 0.34027(16)
P1 P 0.70609(10) 0.12218(6) 0.46559(6)
P3 P 0.69274(9) 0.42790(6) 0.43061(6)
Co9 Co 0.69404(5) 0.54487(3) 0.54460(3)
Co7 Co 0.67768(5) 0.92813(3) 0.44797(3)
C1_2 C 0.2427(4) 0.8564(2) 0.4418(2)
H1_2 H 0.3324 0.8806 0.3841
H2_2 H 0.1520 0.8911 0.4230
C2_2 C 0.0910(4) 0.7336(2) 0.4293(2)
H3_2 H 0.1213 0.7812 0.3603
H4_2 H 0.0993 0.6695 0.4346
C3_2 C 0.3484(3) 0.6995(2) 0.4741(2)
H5_2 H 0.3820 0.7031 0.4100
H6_2 H 0.4346 0.7311 0.4824
N1_2 N 0.2019(3) 0.75045(17) 0.48030(18)
O1 O 0.4676(3) 0.86024(17) 0.53612(17)
O3_2 O 0.1784(3) 0.80546(18) 0.63027(17)
O7 O 0.4632(3) 0.53319(17) 0.58770(17)
O9_2 O 0.2009(3) 0.57479(15) 0.65973(16)
P1_2 P 0.29391(10) 0.87782(6) 0.53441(6)
P3_2 P 0.30726(9) 0.57210(6) 0.56939(6)
C9_2 C 0.3900(4) 0.3171(3) 0.0677(2)
C10_2 C 0.2157(5) 0.4508(3) 0.0606(3)
C11_2 C 0.0941(5) 0.4556(3) 0.1289(3)
H12_2 H 0.0397 0.5100 0.1193
C12_2 C 0.1654(4) 0.3139(3) 0.1963(3)
H13_2 H 0.1717 0.2503 0.2423
C13_2 C 0.4339(4) 0.2297(3) 0.1322(3)
H14_2 H 0.3766 0.1978 0.1977
C14_2 C 0.5625(4) 0.1902(3) 0.0992(2)
C15_2 C 0.6460(4) 0.2342(3) 0.0012(2)
C16_2 C 0.6783(7) 0.0313(4) 0.1543(3)
H16_2 H 0.6989 0.0266 0.0968
C18_2 C 0.5994(5) 0.0791(3) 0.2626(3)
H18_2 H 0.5546 0.1163 0.2917
N4_2 N 0.2617(3) 0.3582(2) 0.1047(2)
N6_2 N 0.6111(4) 0.1033(2) 0.1687(2)
C4_2 C 0.8737(4) 0.4224(3) 0.7004(2)
H7_2 H 0.9724 0.4340 0.6558
C5_2 C 0.8440(4) 0.3641(3) 0.7977(3)
H8_2 H 0.9158 0.3277 0.8321
C6_2 C 0.6256(4) 0.4287(3) 0.7597(2)
H9_2 H 0.5204 0.4439 0.7650
C7_2 C 0.5990(4) 0.3209(3) 0.9374(2)
C8_2 C 0.4715(4) 0.3645(3) 0.9688(2)
H10_2 H 0.4423 0.4230 0.9251
H11_2 H 0.2593 0.4998 0.9969
H15_2 H 0.7310 0.2063 0.9788
N2_2 N 0.7381(3) 0.4620(2) 0.67639(19)
N3_2 N 0.6848(3) 0.3692(2) 0.83669(19)
O4_2 O 0.8495(3) 0.84924(16) 0.43682(18)
O5_2 O 0.7778(3) 0.68174(16) 0.46469(17)
O6_2 O 0.8745(3) 0.70179(17) 0.59262(16)
P2_2 P 0.88477(9) 0.74349(6) 0.48383(6)
N9 N 0.6581(4) 0.9972(2) 0.3084(2)
C17_2 C 0.7099(7) 0.9668(4) 0.2399(3)
H17_2 H 0.7593 0.9106 0.2504
loop_
_geom_bond_atom_site_label_1
_geom_bond_atom_site_label_2
_geom_bond_site_symmetry_1
_geom_bond_site_symmetry_2
H17 C17 1_555 1_555
N7 C17 1_555 1_555
Co6 N7 1_555 1_555
C4 H7 1_555 1_555
C5 C4 1_555 1_555
H8 C5 1_555 1_555
C6 H9 1_555 1_555
C7 C8 1_555 1_555
C8 H10 1_555 1_555
Co6 O4 1_555 1_555
Co3 N2 1_555 1_555
N2 C4 1_555 1_555
N3 C5 1_555 1_555
O4 P2 1_555 1_555
O5 Co3 1_555 1_555
O10 Co6 1_555 1_555
O12 Co3 1_555 1_555
O13 Co3 1_555 1_555
C6 N2 1_555 1_555
C6 N3 1_555 1_555
C7 N3 1_555 1_555
O5 P2 1_555 1_555
O6 P2 1_555 1_555
C11 C10 1_555 1_555
H12 C11 1_555 1_555
C12 H13 1_555 1_555
C13 C9 1_555 1_555
H14 C13 1_555 1_555
C14 C13 1_555 1_555
C16 H16 1_555 1_555
C18 H18 1_555 1_555
N4 C9 1_555 1_555
N5 C11 1_555 1_555
N6 C14 1_555 1_555
C10 N4 1_555 1_555
C12 N4 1_555 1_555
C12 N5 1_555 1_555
C14 C15 1_555 1_555
C16 N6 1_555 1_555
C18 N6 1_555 1_555
C1 H1 1_555 1_555
H2 C1 1_555 1_555
C2 H3 1_555 1_555
H4 C2 1_555 1_555
C3 H5 1_555 1_555
H6 C3 1_555 1_555
Co1 N1 1_555 1_555
N1 C1 1_555 1_555
O10 P1 1_555 1_555
O2 P1 1_555 1_555
O3 Co1 1_555 1_555
O12 P3 1_555 1_555
O8 P3 1_555 1_555
O9 Co1 1_555 1_555
P1 C1 1_555 1_555
P3 C3 1_555 1_555
Co9 O8 1_555 1_555
C2 N1 1_555 1_555
C3 N1 1_555 1_555
O3 P1 1_555 1_555
O9 P3 1_555 1_555
C1_2 H1_2 1_555 1_555
H2_2 C1_2 1_555 1_555
C2_2 H3_2 1_555 1_555
H4_2 C2_2 1_555 1_555
C3_2 H5_2 1_555 1_555
H6_2 C3_2 1_555 1_555
Co4 N1_2 1_555 1_555
N1_2 C1_2 1_555 1_555
O1 P1_2 1_555 1_555
O11 P1_2 1_555 1_555
O3_2 Co4 1_555 1_555
O7 P3_2 1_555 1_555
O13 P3_2 1_555 1_555
O9_2 Co4 1_555 1_555
P1_2 C1_2 1_555 1_555
P3_2 C3_2 1_555 1_555
Co7 O1 1_555 1_555
Co9 O7 1_555 1_555
C2_2 N1_2 1_555 1_555
C3_2 N1_2 1_555 1_555
O3_2 P1_2 1_555 1_555
O9_2 P3_2 1_555 1_555
C11_2 C10_2 1_555 1_555
H12_2 C11_2 1_555 1_555
C12_2 H13_2 1_555 1_555
C13_2 C9_2 1_555 1_555
H14_2 C13_2 1_555 1_555
C14_2 C13_2 1_555 1_555
C16_2 H16_2 1_555 1_555
C18_2 H18_2 1_555 1_555
N4_2 C9_2 1_555 1_555
N8 C11_2 1_555 1_555
N6_2 C14_2 1_555 1_555
C10_2 N4_2 1_555 1_555
C12_2 N4_2 1_555 1_555
C12_2 N8 1_555 1_555
C14_2 C15_2 1_555 1_555
C16_2 N6_2 1_555 1_555
C18_2 N6_2 1_555 1_555
C4_2 H7_2 1_555 1_555
C5_2 C4_2 1_555 1_555
H8_2 C5_2 1_555 1_555
C6_2 H9_2 1_555 1_555
C7_2 C8_2 1_555 1_555
C8_2 H10_2 1_555 1_555
Co7 O4_2 1_555 1_555
Co9 N2_2 1_555 1_555
N2_2 C4_2 1_555 1_555
N3_2 C5_2 1_555 1_555
O4_2 P2_2 1_555 1_555
O5_2 Co9 1_555 1_555
N9 Co7 1_555 1_555
C6_2 N2_2 1_555 1_555
C6_2 N3_2 1_555 1_555
C7_2 N3_2 1_555 1_555
O5_2 P2_2 1_555 1_555
O6_2 P2_2 1_555 1_555
H17_2 C17_2 1_555 1_555
N9 C17_2 1_555 1_555

#END
