
###############################################################################
#
# This file contains modified crystal structure data generated from the
# MOF subset of the Cambridge Structural Database (CSD) v543 
# hosted by the Cambridge Crystallographic Data Centre (CCDC).
#
# This work is licensed under the Creative Commons
# Attribution-NonCommercial-ShareAlike 4.0 International License.
# To view a copy of this license, visit
# http://creativecommons.org/licenses/by-nc-sa/4.0/
# or send a letter to
# Creative Commons, PO Box 1866, Mountain View, CA 94042, USA.
#
# CIF created using the CSD Python API on 29 September 2022
# The structure has been converted into the P1 space group
# The structure has a 3D framework
# The original CSD entry IBOSAX is in the monoclinic crystal system
# The framework has been calculated to contain at least 10.0% void space
# The void calculation uses a probe of radius 1.32A, grid spacing 0.4
#
###############################################################################

data_IBOSAX
_chemical_formula_moiety         '(C96 H64 Co4 N8 O14)n'
_symmetry_cell_setting           triclinic
_symmetry_space_group_name_H-M   'P 1'
_symmetry_Int_Tables_number      1
_space_group_name_Hall           'P 1'
loop_
_symmetry_equiv_pos_site_id
_symmetry_equiv_pos_as_xyz
1 x,y,z
_cell_length_a                   10.114(3)
_cell_length_b                   16.501(4)
_cell_length_c                   14.700(4)
_cell_angle_alpha                90
_cell_angle_beta                 97.159(4)
_cell_angle_gamma                90
_cell_volume                     2434.17
loop_
_atom_site_label
_atom_site_type_symbol
_atom_site_fract_x
_atom_site_fract_y
_atom_site_fract_z
H12 H 0.013688 0.602013 0.316083
Co1 Co 0.36188(8) 0.58124(4) 0.03260(5)
O1 O 0.5280(4) 0.5366(2) 0.1053(3)
O2 O 0.7173(4) 0.4756(2) 0.0850(3)
N1 N 0.4821(5) 0.8402(3) 0.4620(3)
N2 N 0.2537(5) 0.4975(3) 0.1066(3)
C1 C 0.1009(6) 0.3955(4) 0.2066(4)
C2 C 0.6497(6) 0.5253(3) 0.1252(4)
C3 C 0.7221(6) 0.5740(4) 0.2023(4)
C6 C 0.6376(6) 0.7334(4) 0.3696(4)
C7 C 0.7155(6) 0.6752(4) 0.3203(4)
C8 C 0.0174(6) 0.3431(4) 0.2582(4)
C9 C 0.0738(6) 0.4055(4) 0.1120(4)
H1 H 0.002990 0.377694 0.079587
C10 C 0.4663(7) 0.8333(4) 0.3698(5)
H2 H 0.403354 0.866266 0.336315
C11 C 0.6511(6) 0.6290(4) 0.2492(4)
H3 H 0.559762 0.634863 0.232867
C12 C 0.5371(8) 0.7808(4) 0.3227(4)
H4 H 0.518313 0.776684 0.259309
C13 C 0.1499(6) 0.4553(4) 0.0669(4)
H5 H 0.128202 0.460383 0.003785
C14 C 0.8527(7) 0.6650(4) 0.3452(5)
H6 H 0.897015 0.695665 0.392623
C15 C 0.5784(7) 0.7952(4) 0.5058(4)
H7 H 0.592521 0.798284 0.569390
C16 C 0.2089(7) 0.4387(5) 0.2498(5)
H8 H 0.232717 0.434666 0.312790
C17 C 0.2814(7) 0.4887(4) 0.1965(4)
H9 H 0.353374 0.517372 0.226172
C18 C 0.8583(7) 0.5634(4) 0.2278(5)
H10 H 0.905606 0.526020 0.197285
C19 C 0.6591(7) 0.7440(4) 0.4628(5)
H11 H 0.728448 0.716524 0.497221
C20 C 0.9227(7) 0.6089(5) 0.2990(5)
H15 H 0.015522 0.247787 0.450209
C24 C 0.0621(10) 0.3144(8) 0.3438(6)
H16 H 0.147394 0.328100 0.370581
Co4 Co 0.36188(8) 0.91876(4) 0.53260(5)
O6 O 0.1856(4) 0.6609(3) 0.0206(3)
O7 O 0.3425(4) 0.6702(3) 0.1372(3)
Co3 Co 0.63812(8) 0.41876(4) 0.96740(5)
O5 O 0.2827(4) 0.5244(2) 0.9150(3)
N3 N 0.4821(5) 0.6598(3) 0.9620(3)
O3 O 0.8144(4) 0.1609(3) 0.4794(3)
O4 O 0.6575(4) 0.1702(3) 0.3628(3)
C4 C 0.8585(6) 0.2429(4) 0.3539(4)
C5 C 0.7719(6) 0.1891(4) 0.4027(4)
C21 C 0.8158(8) 0.2689(6) 0.2668(6)
H13 H 0.732143 0.252998 0.239039
C22 C 0.8941(8) 0.3185(6) 0.2188(5)
H14 H 0.862444 0.335119 0.159616
C23 C 0.9831(10) 0.2655(7) 0.3916(6)
Co2 Co 0.63812(8) 0.08124(4) 0.46740(5)
C4_2 C 0.1415(6) 0.7429(4) 0.1461(4)
C5_2 C 0.2281(6) 0.6891(4) 0.0973(4)
C21_2 C 0.1842(8) 0.7689(6) 0.2332(6)
H13_2 H 0.267857 0.752998 0.260961
C22_2 C 0.1059(8) 0.8185(6) 0.2812(5)
H14_2 H 0.137556 0.835119 0.340384
C23_2 C 0.0169(10) 0.7655(7) 0.1084(6)
O1_2 O 0.4720(4) 0.0366(2) 0.3947(3)
N1_2 N 0.5179(5) 0.3402(3) 0.0380(3)
C2_2 C 0.3503(6) 0.0253(3) 0.3748(4)
C3_2 C 0.2779(6) 0.0740(4) 0.2977(4)
C6_2 C 0.3624(6) 0.2334(4) 0.1304(4)
C7_2 C 0.2845(6) 0.1752(4) 0.1797(4)
C10_2 C 0.5337(7) 0.3333(4) 0.1302(5)
H2_2 H 0.596646 0.366266 0.163685
C11_2 C 0.3489(6) 0.1290(4) 0.2508(4)
H3_2 H 0.440238 0.134863 0.267133
C12_2 C 0.4629(8) 0.2808(4) 0.1773(4)
H4_2 H 0.481687 0.276684 0.240691
C14_2 C 0.1473(7) 0.1650(4) 0.1548(5)
H6_2 H 0.102985 0.195665 0.107377
H9_2 H 0.646626 0.017372 0.273828
C18_2 C 0.1417(7) 0.0634(4) 0.2722(5)
H10_2 H 0.094394 0.026020 0.302715
C19_2 C 0.3409(7) 0.2440(4) 0.0372(5)
H11_2 H 0.271552 0.216524 0.002779
C20_2 C 0.0773(7) 0.1089(5) 0.2010(5)
O5_2 O 0.7173(4) 0.0244(2) 0.5850(3)
N3_2 N 0.5179(5) 0.1598(3) 0.5380(3)
C15_2 C 0.4216(7) 0.2952(4) 0.9942(4)
H7_2 H 0.407479 0.298284 0.930610
O2_2 O 0.2827(4) 0.9756(2) 0.4150(3)
N2_2 N 0.7463(5) 0.9975(3) 0.3934(3)
C1_2 C 0.8991(6) 0.8955(4) 0.2934(4)
C8_2 C 0.9826(6) 0.8431(4) 0.2418(4)
C9_2 C 0.9262(6) 0.9055(4) 0.3880(4)
H1_2 H 0.997010 0.877694 0.420413
C13_2 C 0.8501(6) 0.9553(4) 0.4331(4)
H5_2 H 0.871798 0.960383 0.496215
C16_2 C 0.7911(7) 0.9387(5) 0.2502(5)
H8_2 H 0.767283 0.934666 0.187210
C17_2 C 0.7186(7) 0.9887(4) 0.3035(4)
H15_2 H 0.984478 0.747787 0.049791
C24_2 C 0.9379(10) 0.8144(8) 0.1562(6)
H16_2 H 0.852606 0.828100 0.129419
O3_2 O 0.1856(4) 0.8391(3) 0.5206(3)
O4_2 O 0.3425(4) 0.8298(3) 0.6372(3)
C4_3 C 0.1415(6) 0.7571(4) 0.6461(4)
C5_3 C 0.2281(6) 0.8109(4) 0.5973(4)
C21_3 C 0.1842(8) 0.7311(6) 0.7332(6)
H13_3 H 0.267857 0.747002 0.760961
C22_3 C 0.1059(8) 0.6815(6) 0.7812(5)
H14_3 H 0.137556 0.664881 0.840384
C23_3 C 0.0169(10) 0.7345(7) 0.6084(6)
O1_3 O 0.4720(4) 0.4634(2) 0.8947(3)
N2_3 N 0.7463(5) 0.5025(3) 0.8934(3)
C1_3 C 0.8991(6) 0.6045(4) 0.7934(4)
C2_3 C 0.3503(6) 0.4747(3) 0.8748(4)
C3_3 C 0.2779(6) 0.4260(4) 0.7977(4)
C6_3 C 0.3624(6) 0.2666(4) 0.6304(4)
C7_3 C 0.2845(6) 0.3248(4) 0.6797(4)
C8_3 C 0.9826(6) 0.6569(4) 0.7418(4)
C9_3 C 0.9262(6) 0.5945(4) 0.8880(4)
H1_3 H 0.997010 0.622306 0.920413
C10_3 C 0.5337(7) 0.1667(4) 0.6302(5)
H2_3 H 0.596646 0.133734 0.663685
C11_3 C 0.3489(6) 0.3710(4) 0.7508(4)
H3_3 H 0.440238 0.365137 0.767133
C12_3 C 0.4629(8) 0.2192(4) 0.6773(4)
H4_3 H 0.481687 0.223316 0.740691
C13_3 C 0.8501(6) 0.5447(4) 0.9331(4)
H5_3 H 0.871798 0.539617 0.996215
C14_3 C 0.1473(7) 0.3350(4) 0.6548(5)
H6_3 H 0.102985 0.304335 0.607377
C15_3 C 0.4216(7) 0.2048(4) 0.4942(4)
H7_3 H 0.407479 0.201716 0.430610
C16_3 C 0.7911(7) 0.5613(5) 0.7502(5)
H8_3 H 0.767283 0.565334 0.687210
C17_3 C 0.7186(7) 0.5113(4) 0.8035(4)
H9_3 H 0.646626 0.482628 0.773828
C18_3 C 0.1417(7) 0.4366(4) 0.7722(5)
H10_3 H 0.094394 0.473980 0.802715
C19_3 C 0.3409(7) 0.2560(4) 0.5372(5)
H11_3 H 0.271552 0.283476 0.502779
C20_3 C 0.0773(7) 0.3911(5) 0.7010(5)
H15_3 H 0.984478 0.752213 0.549791
C24_3 C 0.9379(10) 0.6856(8) 0.6562(6)
H16_3 H 0.852606 0.671900 0.629419
O6_2 O 0.8144(4) 0.3391(3) 0.9794(3)
O7_2 O 0.6575(4) 0.3298(3) 0.8628(3)
N2_4 N 0.2537(5) 0.0025(3) 0.6066(3)
C1_4 C 0.1009(6) 0.1045(4) 0.7066(4)
C8_4 C 0.0174(6) 0.1569(4) 0.7582(4)
C9_4 C 0.0738(6) 0.0945(4) 0.6120(4)
H1_4 H 0.002990 0.122306 0.579587
C13_4 C 0.1499(6) 0.0447(4) 0.5669(4)
H5_4 H 0.128202 0.039617 0.503785
C16_4 C 0.2089(7) 0.0613(5) 0.7498(5)
H8_4 H 0.232717 0.065334 0.812790
C17_4 C 0.2814(7) 0.0113(4) 0.6965(4)
H15_4 H 0.015522 0.252213 0.950209
C24_4 C 0.0621(10) 0.1856(8) 0.8438(6)
H16_4 H 0.147394 0.171900 0.870581
C15_4 C 0.5784(7) 0.7048(4) 0.0058(4)
H7_4 H 0.592521 0.701716 0.069390
O1_4 O 0.5280(4) 0.9634(2) 0.6053(3)
C2_4 C 0.6497(6) 0.9747(3) 0.6252(4)
C3_4 C 0.7221(6) 0.9260(4) 0.7023(4)
C6_4 C 0.6376(6) 0.7666(4) 0.8696(4)
C7_4 C 0.7155(6) 0.8248(4) 0.8203(4)
C10_4 C 0.4663(7) 0.6667(4) 0.8698(5)
H2_4 H 0.403354 0.633734 0.836315
C11_4 C 0.6511(6) 0.8710(4) 0.7492(4)
H3_4 H 0.559762 0.865137 0.732867
C12_4 C 0.5371(8) 0.7192(4) 0.8227(4)
H4_4 H 0.518313 0.723316 0.759309
C14_4 C 0.8527(7) 0.8350(4) 0.8452(5)
H6_4 H 0.897015 0.804335 0.892623
H9_4 H 0.353374 0.982628 0.726172
C18_4 C 0.8583(7) 0.9366(4) 0.7278(5)
H10_4 H 0.905606 0.973980 0.697285
C19_4 C 0.6591(7) 0.7560(4) 0.9628(5)
H11_4 H 0.728448 0.783476 0.997221
C20_4 C 0.9227(7) 0.8911(5) 0.7990(5)
C4_4 C 0.8585(6) 0.2571(4) 0.8539(4)
C5_4 C 0.7719(6) 0.3109(4) 0.9027(4)
C21_4 C 0.8158(8) 0.2311(6) 0.7668(6)
H13_4 H 0.732143 0.247002 0.739039
C22_4 C 0.8941(8) 0.1815(6) 0.7188(5)
H14_4 H 0.862444 0.164881 0.659616
C23_4 C 0.9831(10) 0.2345(7) 0.8916(6)
H12_2 H 0.986312 0.102013 0.183917
H12_3 H 0.986312 0.397987 0.683917
H12_4 H 0.013688 0.897987 0.816083
loop_
_geom_bond_atom_site_label_1
_geom_bond_atom_site_label_2
_geom_bond_site_symmetry_1
_geom_bond_site_symmetry_2
Co1 O1 1_555 1_555
O1 C2 1_555 1_555
O2 C2 1_555 1_555
N1 C10 1_555 1_555
N2 Co1 1_555 1_555
C1 C8 1_555 1_555
C2 C3 1_555 1_555
C3 C11 1_555 1_555
C6 C7 1_555 1_555
C7 C11 1_555 1_555
C9 C1 1_555 1_555
H1 C9 1_555 1_555
C10 H2 1_555 1_555
C11 H3 1_555 1_555
C12 C6 1_555 1_555
H4 C12 1_555 1_555
C13 N2 1_555 1_555
H5 C13 1_555 1_555
C14 C7 1_555 1_555
H6 C14 1_555 1_555
C15 N1 1_555 1_555
H7 C15 1_555 1_555
C16 C1 1_555 1_555
H8 C16 1_555 1_555
C17 N2 1_555 1_555
H9 C17 1_555 1_555
C18 C3 1_555 1_555
H10 C18 1_555 1_555
C19 C6 1_555 1_555
H11 C19 1_555 1_555
C20 C14 1_555 1_555
C24 C8 1_555 1_555
H16 C24 1_555 1_555
Co4 N1 1_555 1_555
O6 Co1 1_555 1_555
O7 Co1 1_555 1_555
C9 C13 1_555 1_555
C10 C12 1_555 1_555
C15 C19 1_555 1_555
C16 C17 1_555 1_555
C18 C20 1_555 1_555
O3 C5 1_555 1_555
O4 C5 1_555 1_555
C4 C5 1_555 1_555
C21 C4 1_555 1_555
H13 C21 1_555 1_555
C22 C21 1_555 1_555
H14 C22 1_555 1_555
C23 C4 1_555 1_555
Co2 O3 1_555 1_555
O4 Co2 1_555 1_555
O6 C5_2 1_555 1_555
O7 C5_2 1_555 1_555
C4_2 C5_2 1_555 1_555
C21_2 C4_2 1_555 1_555
H13_2 C21_2 1_555 1_555
C22_2 C21_2 1_555 1_555
H14_2 C22_2 1_555 1_555
C23_2 C4_2 1_555 1_555
Co2 O1_2 1_555 1_555
O1_2 C2_2 1_555 1_555
N1_2 C10_2 1_555 1_555
C2_2 C3_2 1_555 1_555
C3_2 C11_2 1_555 1_555
C6_2 C7_2 1_555 1_555
C7_2 C11_2 1_555 1_555
C10_2 H2_2 1_555 1_555
C11_2 H3_2 1_555 1_555
C12_2 C6_2 1_555 1_555
H4_2 C12_2 1_555 1_555
C14_2 C7_2 1_555 1_555
H6_2 C14_2 1_555 1_555
C18_2 C3_2 1_555 1_555
H10_2 C18_2 1_555 1_555
C19_2 C6_2 1_555 1_555
H11_2 C19_2 1_555 1_555
C20_2 C14_2 1_555 1_555
O5_2 Co2 1_555 1_555
N3_2 Co2 1_555 1_555
C10_2 C12_2 1_555 1_555
C18_2 C20_2 1_555 1_555
H7_2 C15_2 1_555 1_555
C1_2 C8_2 1_555 1_555
C9_2 C1_2 1_555 1_555
H1_2 C9_2 1_555 1_555
C13_2 N2_2 1_555 1_555
H5_2 C13_2 1_555 1_555
C16_2 C1_2 1_555 1_555
H8_2 C16_2 1_555 1_555
C17_2 N2_2 1_555 1_555
C24_2 C8_2 1_555 1_555
H16_2 C24_2 1_555 1_555
Co4 O2_2 1_555 1_555
C9_2 C13_2 1_555 1_555
C16_2 C17_2 1_555 1_555
O3_2 C5_3 1_555 1_555
O4_2 C5_3 1_555 1_555
C4_3 C5_3 1_555 1_555
C21_3 C4_3 1_555 1_555
H13_3 C21_3 1_555 1_555
C22_3 C21_3 1_555 1_555
H14_3 C22_3 1_555 1_555
C23_3 C4_3 1_555 1_555
Co4 O3_2 1_555 1_555
O4_2 Co4 1_555 1_555
Co3 O1_3 1_555 1_555
O1_3 C2_3 1_555 1_555
O5 C2_3 1_555 1_555
N3_2 C10_3 1_555 1_555
N2_3 Co3 1_555 1_555
C1_3 C8_3 1_555 1_555
C2_3 C3_3 1_555 1_555
C3_3 C11_3 1_555 1_555
C6_3 C7_3 1_555 1_555
C7_3 C11_3 1_555 1_555
C9_3 C1_3 1_555 1_555
H1_3 C9_3 1_555 1_555
C10_3 H2_3 1_555 1_555
C11_3 H3_3 1_555 1_555
C12_3 C6_3 1_555 1_555
H4_3 C12_3 1_555 1_555
C13_3 N2_3 1_555 1_555
H5_3 C13_3 1_555 1_555
C14_3 C7_3 1_555 1_555
H6_3 C14_3 1_555 1_555
C15_3 N3_2 1_555 1_555
H7_3 C15_3 1_555 1_555
C16_3 C1_3 1_555 1_555
H8_3 C16_3 1_555 1_555
C17_3 N2_3 1_555 1_555
H9_3 C17_3 1_555 1_555
C18_3 C3_3 1_555 1_555
H10_3 C18_3 1_555 1_555
C19_3 C6_3 1_555 1_555
H11_3 C19_3 1_555 1_555
C20_3 C14_3 1_555 1_555
C24_3 C8_3 1_555 1_555
H16_3 C24_3 1_555 1_555
O6_2 Co3 1_555 1_555
O7_2 Co3 1_555 1_555
C9_3 C13_3 1_555 1_555
C10_3 C12_3 1_555 1_555
C15_3 C19_3 1_555 1_555
C16_3 C17_3 1_555 1_555
C18_3 C20_3 1_555 1_555
C1_4 C8_4 1_555 1_555
C9_4 C1_4 1_555 1_555
H1_4 C9_4 1_555 1_555
C13_4 N2_4 1_555 1_555
H5_4 C13_4 1_555 1_555
C16_4 C1_4 1_555 1_555
H8_4 C16_4 1_555 1_555
C17_4 N2_4 1_555 1_555
C24_4 C8_4 1_555 1_555
H16_4 C24_4 1_555 1_555
C9_4 C13_4 1_555 1_555
C16_4 C17_4 1_555 1_555
H7_4 C15_4 1_555 1_555
Co4 O1_4 1_555 1_555
O1_4 C2_4 1_555 1_555
N3 C10_4 1_555 1_555
C2_4 C3_4 1_555 1_555
C3_4 C11_4 1_555 1_555
C6_4 C7_4 1_555 1_555
C7_4 C11_4 1_555 1_555
C10_4 H2_4 1_555 1_555
C11_4 H3_4 1_555 1_555
C12_4 C6_4 1_555 1_555
H4_4 C12_4 1_555 1_555
C14_4 C7_4 1_555 1_555
H6_4 C14_4 1_555 1_555
C18_4 C3_4 1_555 1_555
H10_4 C18_4 1_555 1_555
C19_4 C6_4 1_555 1_555
H11_4 C19_4 1_555 1_555
C20_4 C14_4 1_555 1_555
C10_4 C12_4 1_555 1_555
C18_4 C20_4 1_555 1_555
O6_2 C5_4 1_555 1_555
O7_2 C5_4 1_555 1_555
C4_4 C5_4 1_555 1_555
C21_4 C4_4 1_555 1_555
H13_4 C21_4 1_555 1_555
C22_4 C21_4 1_555 1_555
H14_4 C22_4 1_555 1_555
C23_4 C4_4 1_555 1_555

#END
