
###############################################################################
#
# This file contains modified crystal structure data generated from the
# MOF subset of the Cambridge Structural Database (CSD) v543 
# hosted by the Cambridge Crystallographic Data Centre (CCDC).
#
# This work is licensed under the Creative Commons
# Attribution-NonCommercial-ShareAlike 4.0 International License.
# To view a copy of this license, visit
# http://creativecommons.org/licenses/by-nc-sa/4.0/
# or send a letter to
# Creative Commons, PO Box 1866, Mountain View, CA 94042, USA.
#
# CIF created using the CSD Python API on 29 September 2022
# The structure has been converted into the P1 space group
# The structure has a 3D framework
# The original CSD entry IBULIE01 is in the orthorhombic crystal system
# The framework has been calculated to contain at least 10.0% void space
# The void calculation uses a probe of radius 1.32A, grid spacing 0.4
# The framework is charged, counterions have been retained in the structure
#
###############################################################################

data_IBULIE01
_chemical_formula_moiety         '(C40 H12 O80 Tb12 12-)n'
_symmetry_cell_setting           triclinic
_symmetry_space_group_name_H-M   'P 1'
_symmetry_Int_Tables_number      1
_space_group_name_Hall           'P 1'
loop_
_symmetry_equiv_pos_site_id
_symmetry_equiv_pos_as_xyz
1 x,y,z
_cell_length_a                   11.7788(3)
_cell_length_b                   12.8993(3)
_cell_length_c                   15.8528(4)
_cell_angle_alpha                90
_cell_angle_beta                 90
_cell_angle_gamma                90
_cell_volume                     2408.65
loop_
_atom_site_label
_atom_site_type_symbol
_atom_site_fract_x
_atom_site_fract_y
_atom_site_fract_z
Tb3 Tb 0.5000 0.04476(3) 0.19194(2)
Tb1 Tb 0.5000 0.45524(3) 0.69194(2)
O1 O 0.5000 0.6176(3) 0.4470(3)
O2 O 0.5000 0.5838(3) 0.5847(3)
O3 O 0.3065(3) 0.4491(3) 0.6488(2)
O4 O 0.1265(4) 0.4349(5) 0.6917(2)
O5 O 0.5000 0.2754(4) 0.7017(3)
C1 C 0.5000 0.5606(4) 0.5094(4)
O6 O 0.5000 0.1154(5) 0.7423(4)
C2 C 0.2305(5) 0.4428(4) 0.7037(3)
C3 C 0.5000 0.2053(6) 0.7516(5)
H1 H 0.5000 0.2263 0.8077
O7 O 0.5000 0.3824(3) 0.5530(3)
O8 O 0.5000 0.4162(3) 0.4153(3)
C4 C 0.5000 0.4394(4) 0.4906(4)
O9 O 0.1935(3) 0.4491(3) 0.8512(2)
O10 O 0.3735(4) 0.4349(5) 0.8083(2)
C5 C 0.2695(5) 0.4428(4) 0.7963(3)
Tb2 Tb 0.5000 0.54476(3) 0.30806(2)
O11 O 0.3065(3) 0.5509(3) 0.3512(2)
O12 O 0.1265(4) 0.5651(5) 0.3083(2)
O13 O 0.5000 0.7246(4) 0.2983(3)
O14 O 0.5000 0.8846(5) 0.2577(4)
C6 C 0.2305(5) 0.5572(4) 0.2963(3)
C7 C 0.5000 0.7947(6) 0.2484(5)
H2 H 0.5000 0.7737 0.1923
O15 O 0.1935(3) 0.5509(3) 0.1488(2)
O16 O 0.3735(4) 0.5651(5) 0.1917(2)
C8 C 0.2695(5) 0.5572(4) 0.2037(3)
Tb5 Tb 0.0000 0.54476(3) 0.19194(2)
Tb6 Tb 0.0000 0.45524(3) 0.80806(2)
O17 O 0.6935(3) 0.5509(3) 0.3512(2)
O18 O 0.6935(3) 0.4491(3) 0.6488(2)
O19 O 0.6265(4) 0.4349(5) 0.8083(2)
O20 O 0.6265(4) 0.5651(5) 0.1917(2)
O21 O 0.5000 0.3846(5) 0.2423(4)
O22 O 0.5000 0.6154(5) 0.7577(4)
Tb4 Tb 0.5000 0.95524(3) 0.80806(2)
Tb5_2 Tb 1.0000 0.54476(3) 0.19194(2)
Tb6_2 Tb 1.0000 0.45524(3) 0.80806(2)
Tb6_3 Tb -0.0000 0.04476(3) 0.30806(2)
Tb5_3 Tb 0.0000 0.95524(3) 0.69194(2)
O3_2 O 0.6935(3) 0.0509(3) 0.1488(2)
O4_2 O 0.8735(4) 0.0651(5) 0.1917(2)
O5_2 O 0.5000 0.2246(4) 0.2017(3)
C2_2 C 0.7695(5) 0.0572(4) 0.2037(3)
C3_2 C 0.5000 0.2947(6) 0.2516(5)
H1_2 H 0.5000 0.2737 0.3077
O7_2 O 0.5000 0.1176(3) 0.0530(3)
O9_2 O 0.8065(3) 0.0509(3) 0.3512(2)
O10_2 O 0.6265(4) 0.0651(5) 0.3083(2)
C5_2 C 0.7305(5) 0.0572(4) 0.2963(3)
Tb6_4 Tb 1.0000 0.04476(3) 0.30806(2)
O18_2 O 0.3065(3) 0.0509(3) 0.1488(2)
O19_2 O 0.3735(4) 0.0651(5) 0.3083(2)
O8_2 O 0.5000 0.0838(3) 0.9153(3)
C4_2 C 0.5000 0.0606(4) 0.9906(4)
O2_2 O 0.5000 0.9162(3) 0.0847(3)
C1_2 C 0.5000 0.9394(4) 0.0094(4)
O1_2 O 0.5000 0.8824(3) 0.9470(3)
O11_2 O 0.6935(3) 0.9491(3) 0.8512(2)
O12_2 O 0.8735(4) 0.9349(5) 0.8083(2)
O13_2 O 0.5000 0.7754(4) 0.7983(3)
C6_2 C 0.7695(5) 0.9428(4) 0.7963(3)
C7_2 C 0.5000 0.7053(6) 0.7484(5)
H2_2 H 0.5000 0.7263 0.6923
O15_2 O 0.8065(3) 0.9491(3) 0.6488(2)
O16_2 O 0.6265(4) 0.9349(5) 0.6917(2)
C8_2 C 0.7305(5) 0.9428(4) 0.7037(3)
Tb5_4 Tb 1.0000 0.95524(3) 0.69194(2)
O17_2 O 0.3065(3) 0.9491(3) 0.8512(2)
O20_2 O 0.3735(4) 0.9349(5) 0.6917(2)
O1_3 O 0.0000 0.1176(3) 0.4470(3)
O2_3 O 0.0000 0.0838(3) 0.5847(3)
C1_3 C 0.0000 0.0606(4) 0.5094(4)
O13_3 O 0.0000 0.2246(4) 0.2983(3)
O14_2 O 0.0000 0.3846(5) 0.2577(4)
C7_3 C 0.0000 0.2947(6) 0.2484(5)
H2_3 H 0.0000 0.2737 0.1923
O17_3 O 0.1935(3) 0.0509(3) 0.3512(2)
O20_3 O 0.1265(4) 0.0651(5) 0.1917(2)
O22_2 O 0.0000 0.1154(5) 0.7577(4)
O5_3 O 0.0000 0.7754(4) 0.7017(3)
O6_2 O 0.0000 0.6154(5) 0.7423(4)
C3_3 C 0.0000 0.7053(6) 0.7516(5)
H1_3 H 0.0000 0.7263 0.8077
O7_3 O 0.0000 0.8824(3) 0.5530(3)
O8_3 O -0.0000 0.9162(3) 0.4153(3)
C4_3 C 0.0000 0.9394(4) 0.4906(4)
O18_3 O 0.1935(3) 0.9491(3) 0.6488(2)
O19_3 O 0.1265(4) 0.9349(5) 0.8083(2)
O21_2 O 0.0000 0.8846(5) 0.2423(4)
O1_4 O 1.0000 0.1176(3) 0.4470(3)
O2_4 O 1.0000 0.0838(3) 0.5847(3)
C1_4 C 1.0000 0.0606(4) 0.5094(4)
O13_4 O 1.0000 0.2246(4) 0.2983(3)
O14_3 O 1.0000 0.3846(5) 0.2577(4)
C7_4 C 1.0000 0.2947(6) 0.2484(5)
H2_4 H 1.0000 0.2737 0.1923
O22_3 O 1.0000 0.1154(5) 0.7577(4)
O5_4 O 1.0000 0.7754(4) 0.7017(3)
O6_3 O 1.0000 0.6154(5) 0.7423(4)
C3_4 C 1.0000 0.7053(6) 0.7516(5)
H1_4 H 1.0000 0.7263 0.8077
O7_4 O 1.0000 0.8824(3) 0.5530(3)
O8_4 O 1.0000 0.9162(3) 0.4153(3)
C4_4 C 1.0000 0.9394(4) 0.4906(4)
O21_3 O 1.0000 0.8846(5) 0.2423(4)
O2_5 O -0.0000 0.4162(3) 0.0847(3)
O5_5 O -0.0000 0.7246(4) 0.2017(3)
C1_5 C -0.0000 0.4394(4) 0.0094(4)
C3_5 C 0.0000 0.7947(6) 0.2516(5)
H1_5 H 0.0000 0.7737 0.3077
O7_5 O -0.0000 0.6176(3) 0.0530(3)
O1_5 O -0.0000 0.3824(3) 0.9470(3)
O8_5 O 0.0000 0.5838(3) 0.9153(3)
C4_5 C -0.0000 0.5606(4) 0.9906(4)
O13_5 O -0.0000 0.2754(4) 0.7983(3)
C7_5 C -0.0000 0.2053(6) 0.7484(5)
H2_5 H -0.0000 0.2263 0.6923
O2_6 O 1.0000 0.4162(3) 0.0847(3)
O5_6 O 1.0000 0.7246(4) 0.2017(3)
C1_6 C 1.0000 0.4394(4) 0.0094(4)
C3_6 C 1.0000 0.7947(6) 0.2516(5)
H1_6 H 1.0000 0.7737 0.3077
O7_6 O 1.0000 0.6176(3) 0.0530(3)
O18_4 O 0.8065(3) 0.5509(3) 0.1488(2)
O19_4 O 0.8735(4) 0.5651(5) 0.3083(2)
O1_6 O 1.0000 0.3824(3) 0.9470(3)
O8_6 O 1.0000 0.5838(3) 0.9153(3)
C4_6 C 1.0000 0.5606(4) 0.9906(4)
O13_6 O 1.0000 0.2754(4) 0.7983(3)
C7_6 C 1.0000 0.2053(6) 0.7484(5)
H2_6 H 1.0000 0.2263 0.6923
O17_4 O 0.8065(3) 0.4491(3) 0.8512(2)
O20_4 O 0.8735(4) 0.4349(5) 0.6917(2)
C2_3 C 0.7695(5) 0.5572(4) 0.2963(3)
C5_3 C 0.7305(5) 0.5572(4) 0.2037(3)
C6_3 C 0.7695(5) 0.4428(4) 0.7037(3)
C8_3 C 0.7305(5) 0.4428(4) 0.7963(3)
C6_4 C 0.2305(5) 0.0572(4) 0.2037(3)
C8_4 C 0.2695(5) 0.0572(4) 0.2963(3)
C2_4 C 0.2305(5) 0.9428(4) 0.7963(3)
C5_4 C 0.2695(5) 0.9428(4) 0.7037(3)
loop_
_geom_bond_atom_site_label_1
_geom_bond_atom_site_label_2
_geom_bond_site_symmetry_1
_geom_bond_site_symmetry_2
Tb1 O2 1_555 1_555
O1 C1 1_555 1_555
O2 C1 1_555 1_555
O3 Tb1 1_555 1_555
O4 C2 1_555 1_555
O5 Tb1 1_555 1_555
C1 C4 1_555 1_555
O6 C3 1_555 1_555
C2 O3 1_555 1_555
C3 O5 1_555 1_555
H1 C3 1_555 1_555
O7 Tb1 1_555 1_555
O8 C4 1_555 1_555
C4 O7 1_555 1_555
O9 C5 1_555 1_555
O10 Tb1 1_555 1_555
C5 C2 1_555 1_555
Tb2 O1 1_555 1_555
O11 Tb2 1_555 1_555
O12 C6 1_555 1_555
O13 Tb2 1_555 1_555
O14 C7 1_555 1_555
C6 O11 1_555 1_555
C7 O13 1_555 1_555
H2 C7 1_555 1_555
O15 C8 1_555 1_555
O16 Tb2 1_555 1_555
C8 C6 1_555 1_555
Tb5 O12 1_555 1_555
Tb6 O4 1_555 1_555
O17 Tb2 1_555 1_555
O18 Tb1 1_555 1_555
O19 Tb1 1_555 1_555
O20 Tb2 1_555 1_555
O21 Tb2 1_555 1_555
O22 Tb1 1_555 1_555
O8 Tb2 1_555 1_555
O9 Tb6 1_555 1_555
O10 C5 1_555 1_555
O15 Tb5 1_555 1_555
O16 C8 1_555 1_555
O3_2 Tb3 1_555 1_555
O4_2 C2_2 1_555 1_555
O5_2 Tb3 1_555 1_555
O21 C3_2 1_555 1_555
C2_2 O3_2 1_555 1_555
C3_2 O5_2 1_555 1_555
H1_2 C3_2 1_555 1_555
O7_2 Tb3 1_555 1_555
O9_2 C5_2 1_555 1_555
O10_2 Tb3 1_555 1_555
C5_2 C2_2 1_555 1_555
Tb6_4 O4_2 1_555 1_555
O18_2 Tb3 1_555 1_555
O19_2 Tb3 1_555 1_555
O9_2 Tb6_4 1_555 1_555
O10_2 C5_2 1_555 1_555
O8_2 C4_2 1_555 1_555
O2_2 C1_2 1_555 1_555
Tb4 O1_2 1_555 1_555
O11_2 Tb4 1_555 1_555
O12_2 C6_2 1_555 1_555
O13_2 Tb4 1_555 1_555
O22 C7_2 1_555 1_555
C6_2 O11_2 1_555 1_555
C7_2 O13_2 1_555 1_555
H2_2 C7_2 1_555 1_555
O15_2 C8_2 1_555 1_555
O16_2 Tb4 1_555 1_555
C8_2 C6_2 1_555 1_555
Tb5_4 O12_2 1_555 1_555
O17_2 Tb4 1_555 1_555
O20_2 Tb4 1_555 1_555
O15_2 Tb5_4 1_555 1_555
O16_2 C8_2 1_555 1_555
O1_3 C1_3 1_555 1_555
O2_3 C1_3 1_555 1_555
Tb6_3 O1_3 1_555 1_555
O13_3 Tb6_3 1_555 1_555
O14_2 C7_3 1_555 1_555
C7_3 O13_3 1_555 1_555
H2_3 C7_3 1_555 1_555
Tb5 O14_2 1_555 1_555
O17_3 Tb6_3 1_555 1_555
O20_3 Tb6_3 1_555 1_555
O5_3 Tb5_3 1_555 1_555
O6_2 C3_3 1_555 1_555
C3_3 O5_3 1_555 1_555
H1_3 C3_3 1_555 1_555
O7_3 Tb5_3 1_555 1_555
O8_3 C4_3 1_555 1_555
C4_3 O7_3 1_555 1_555
Tb6 O6_2 1_555 1_555
O18_3 Tb5_3 1_555 1_555
O19_3 Tb5_3 1_555 1_555
O1_4 C1_4 1_555 1_555
O2_4 C1_4 1_555 1_555
Tb6_4 O1_4 1_555 1_555
O13_4 Tb6_4 1_555 1_555
O14_3 C7_4 1_555 1_555
C7_4 O13_4 1_555 1_555
H2_4 C7_4 1_555 1_555
Tb5_2 O14_3 1_555 1_555
O5_4 Tb5_4 1_555 1_555
O6_3 C3_4 1_555 1_555
C3_4 O5_4 1_555 1_555
H1_4 C3_4 1_555 1_555
O7_4 Tb5_4 1_555 1_555
O8_4 C4_4 1_555 1_555
C4_4 O7_4 1_555 1_555
Tb6_2 O6_3 1_555 1_555
Tb5 O2_5 1_555 1_555
O2_5 C1_5 1_555 1_555
O5_5 Tb5 1_555 1_555
O21_2 C3_5 1_555 1_555
C3_5 O5_5 1_555 1_555
H1_5 C3_5 1_555 1_555
O7_5 Tb5 1_555 1_555
O8_5 C4_5 1_555 1_555
Tb6 O1_5 1_555 1_555
O13_5 Tb6 1_555 1_555
O22_2 C7_5 1_555 1_555
C7_5 O13_5 1_555 1_555
H2_5 C7_5 1_555 1_555
O8_5 Tb6 1_555 1_555
Tb5_2 O2_6 1_555 1_555
O2_6 C1_6 1_555 1_555
O5_6 Tb5_2 1_555 1_555
O21_3 C3_6 1_555 1_555
C3_6 O5_6 1_555 1_555
H1_6 C3_6 1_555 1_555
O7_6 Tb5_2 1_555 1_555
O18_4 Tb5_2 1_555 1_555
O19_4 Tb5_2 1_555 1_555
O8_6 C4_6 1_555 1_555
Tb6_2 O1_6 1_555 1_555
O13_6 Tb6_2 1_555 1_555
O22_3 C7_6 1_555 1_555
C7_6 O13_6 1_555 1_555
H2_6 C7_6 1_555 1_555
O17_4 Tb6_2 1_555 1_555
O20_4 Tb6_2 1_555 1_555
O8_6 Tb6_2 1_555 1_555
O19_4 C2_3 1_555 1_555
C2_3 O17 1_555 1_555
O18_4 C5_3 1_555 1_555
C5_3 C2_3 1_555 1_555
O20_4 C6_3 1_555 1_555
C6_3 O18 1_555 1_555
O17_4 C8_3 1_555 1_555
C8_3 C6_3 1_555 1_555
O20 C5_3 1_555 1_555
O19 C8_3 1_555 1_555
O20_3 C6_4 1_555 1_555
C6_4 O18_2 1_555 1_555
O17_3 C8_4 1_555 1_555
C8_4 C6_4 1_555 1_555
O19_2 C8_4 1_555 1_555
O19_3 C2_4 1_555 1_555
C2_4 O17_2 1_555 1_555
O18_3 C5_4 1_555 1_555
C5_4 C2_4 1_555 1_555
O20_2 C5_4 1_555 1_555

#END
