
###############################################################################
#
# This file contains modified crystal structure data generated from the
# MOF subset of the Cambridge Structural Database (CSD) v543 
# hosted by the Cambridge Crystallographic Data Centre (CCDC).
#
# This work is licensed under the Creative Commons
# Attribution-NonCommercial-ShareAlike 4.0 International License.
# To view a copy of this license, visit
# http://creativecommons.org/licenses/by-nc-sa/4.0/
# or send a letter to
# Creative Commons, PO Box 1866, Mountain View, CA 94042, USA.
#
# CIF created using the CSD Python API on 29 September 2022
# The structure has been converted into the P1 space group
# The structure has a 3D framework
# The original CSD entry IBULIE is in the orthorhombic crystal system
# The framework has been calculated to contain at least 10.0% void space
# The void calculation uses a probe of radius 1.32A, grid spacing 0.4
# The framework is charged, counterions have been retained in the structure
#
###############################################################################

data_IBULIE
_chemical_formula_moiety         '(C40 H12 O80 Tb12 12-)n'
_symmetry_cell_setting           triclinic
_symmetry_space_group_name_H-M   'P 1'
_symmetry_Int_Tables_number      1
_space_group_name_Hall           'P 1'
loop_
_symmetry_equiv_pos_site_id
_symmetry_equiv_pos_as_xyz
1 x,y,z
_cell_length_a                   11.7797(11)
_cell_length_b                   12.9131(17)
_cell_length_c                   15.8828(19)
_cell_angle_alpha                90
_cell_angle_beta                 90
_cell_angle_gamma                90
_cell_volume                     2415.97
loop_
_atom_site_label
_atom_site_type_symbol
_atom_site_fract_x
_atom_site_fract_y
_atom_site_fract_z
Tb5 Tb 0.0000 0.47024(10) 0.19299(8)
Tb6 Tb -0.0000 0.52976(10) 0.80701(8)
Tb4 Tb 0.5000 0.02976(10) 0.80701(8)
Tb1 Tb 0.5000 0.52976(10) 0.69299(8)
O1 O 0.5000 0.3834(12) 0.4416(12)
O2 O 0.5000 0.4011(13) 0.5790(12)
O3 O 0.8067(10) 0.5355(11) 0.8494(11)
O4 O 0.6262(13) 0.5412(16) 0.8071(9)
O5 O 0.5000 0.709(2) 0.7108(13)
O6 O 0.5000 0.8717(17) 0.7489(17)
C1 C 0.5000 0.775(3) 0.758(2)
H1 H 0.5000 0.7532 0.8140
C2 C 0.7322(14) 0.5365(12) 0.7955(10)
C3 C 0.5000 0.438(3) 0.506(3)
O7 O 0.5000 0.6166(12) 0.5584(12)
O8 O 0.5000 0.5989(13) 0.4210(12)
C4 C 0.5000 0.562(3) 0.494(3)
O9 O 0.6933(10) 0.5355(11) 0.6506(11)
O10 O 0.8738(13) 0.5412(16) 0.6929(9)
C5 C 0.7678(14) 0.5365(12) 0.7045(10)
Tb2 Tb 0.5000 0.47024(10) 0.30701(8)
O11 O 0.8067(10) 0.4645(11) 0.1506(11)
O12 O 0.6262(13) 0.4588(16) 0.1929(9)
O13 O 0.5000 0.291(2) 0.2892(13)
O14 O 0.5000 0.1283(17) 0.2511(17)
C6 C 0.5000 0.225(3) 0.242(2)
H2 H 0.5000 0.2468 0.1860
C7 C 0.7322(14) 0.4635(12) 0.2045(10)
O15 O 0.6933(10) 0.4645(11) 0.3494(11)
O16 O 0.8738(13) 0.4588(16) 0.3071(9)
C8 C 0.7678(14) 0.4635(12) 0.2955(10)
Tb5_2 Tb 1.0000 0.47024(10) 0.19299(8)
Tb6_2 Tb 1.0000 0.52976(10) 0.80701(8)
O17 O 0.3067(10) 0.5355(11) 0.6506(11)
O18 O 0.3067(10) 0.4645(11) 0.3494(11)
O19 O 0.3738(13) 0.4588(16) 0.1929(9)
O20 O 0.3738(13) 0.5412(16) 0.8071(9)
O21 O 0.5000 0.6283(17) 0.2489(17)
O22 O 0.5000 0.3717(17) 0.7511(17)
Tb3 Tb 0.5000 0.97024(10) 0.19299(8)
O2_2 O 0.5000 0.0989(13) 0.0790(12)
C3_2 C 0.5000 0.062(3) 0.006(3)
O1_2 O 0.5000 0.1166(12) 0.9416(12)
O11_2 O 0.1933(10) 0.0355(11) 0.6506(11)
O12_2 O 0.3738(13) 0.0412(16) 0.6929(9)
O13_2 O 0.5000 0.209(2) 0.7892(13)
C6_2 C 0.5000 0.275(3) 0.742(2)
H2_2 H 0.5000 0.2532 0.6860
C7_2 C 0.2678(14) 0.0365(12) 0.7045(10)
O15_2 O 0.3067(10) 0.0355(11) 0.8494(11)
O16_2 O 0.1262(13) 0.0412(16) 0.8071(9)
C8_2 C 0.2322(14) 0.0365(12) 0.7955(10)
Tb5_3 Tb 0.0000 0.02976(10) 0.69299(8)
O18_2 O 0.6933(10) 0.0355(11) 0.8494(11)
O19_2 O 0.6262(13) 0.0412(16) 0.6929(9)
O3_2 O 0.1933(10) 0.9645(11) 0.3494(11)
O4_2 O 0.3738(13) 0.9588(16) 0.3071(9)
O5_2 O 0.5000 0.791(2) 0.2108(13)
C1_2 C 0.5000 0.725(3) 0.258(2)
H1_2 H 0.5000 0.7468 0.3140
C2_2 C 0.2678(14) 0.9635(12) 0.2955(10)
O7_2 O 0.5000 0.8834(12) 0.0584(12)
O9_2 O 0.3067(10) 0.9645(11) 0.1506(11)
O10_2 O 0.1262(13) 0.9588(16) 0.1929(9)
C5_2 C 0.2322(14) 0.9635(12) 0.2045(10)
Tb6_3 Tb 0.0000 0.97024(10) 0.30701(8)
O17_2 O 0.6933(10) 0.9645(11) 0.1506(11)
O20_2 O 0.6262(13) 0.9588(16) 0.3071(9)
O8_2 O 0.5000 0.9011(13) 0.9210(12)
C4_2 C 0.5000 0.938(3) 0.994(3)
Tb5_4 Tb 1.0000 0.02976(10) 0.69299(8)
Tb6_4 Tb 1.0000 0.97024(10) 0.30701(8)
O5_3 O -0.0000 0.209(2) 0.7108(13)
O6_2 O -0.0000 0.3717(17) 0.7489(17)
C1_3 C 0.0000 0.275(3) 0.758(2)
H1_3 H -0.0000 0.2532 0.8140
O7_3 O 0.0000 0.1166(12) 0.5584(12)
O8_3 O 0.0000 0.0989(13) 0.4210(12)
C4_3 C 0.0000 0.062(3) 0.494(3)
O21_2 O 0.0000 0.1283(17) 0.2489(17)
O1_3 O -0.0000 0.8834(12) 0.4416(12)
O2_3 O 0.0000 0.9011(13) 0.5790(12)
C3_3 C 0.0000 0.938(3) 0.506(3)
O13_3 O -0.0000 0.791(2) 0.2892(13)
O14_2 O 0.0000 0.6283(17) 0.2511(17)
C6_3 C 0.0000 0.725(3) 0.242(2)
H2_3 H 0.0000 0.7468 0.1860
O22_2 O -0.0000 0.8717(17) 0.7511(17)
O5_4 O 1.0000 0.209(2) 0.7108(13)
O6_3 O 1.0000 0.3717(17) 0.7489(17)
C1_4 C 1.0000 0.275(3) 0.758(2)
H1_4 H 1.0000 0.2532 0.8140
O7_4 O 1.0000 0.1166(12) 0.5584(12)
O8_4 O 1.0000 0.0989(13) 0.4210(12)
C4_4 C 1.0000 0.062(3) 0.494(3)
O17_3 O 0.8067(10) 0.0355(11) 0.6506(11)
O20_3 O 0.8738(13) 0.0412(16) 0.8071(9)
O21_3 O 1.0000 0.1283(17) 0.2489(17)
O1_4 O 1.0000 0.8834(12) 0.4416(12)
O2_4 O 1.0000 0.9011(13) 0.5790(12)
C3_4 C 1.0000 0.938(3) 0.506(3)
O13_4 O 1.0000 0.791(2) 0.2892(13)
O14_3 O 1.0000 0.6283(17) 0.2511(17)
C6_4 C 1.0000 0.725(3) 0.242(2)
H2_4 H 1.0000 0.7468 0.1860
O18_3 O 0.8067(10) 0.9645(11) 0.3494(11)
O19_3 O 0.8738(13) 0.9588(16) 0.1929(9)
O22_3 O 1.0000 0.8717(17) 0.7511(17)
O2_5 O -0.0000 0.5989(13) 0.0790(12)
O5_5 O -0.0000 0.291(2) 0.2108(13)
C1_5 C -0.0000 0.225(3) 0.258(2)
H1_5 H -0.0000 0.2468 0.3140
C3_5 C -0.0000 0.562(3) 0.006(3)
O7_5 O -0.0000 0.3834(12) 0.0584(12)
O17_4 O 0.1933(10) 0.4645(11) 0.1506(11)
O20_4 O 0.1262(13) 0.4588(16) 0.3071(9)
O1_5 O 0.0000 0.6166(12) 0.9416(12)
O8_5 O -0.0000 0.4011(13) 0.9210(12)
C4_5 C -0.0000 0.438(3) 0.994(3)
O13_5 O 0.0000 0.709(2) 0.7892(13)
C6_5 C -0.0000 0.775(3) 0.742(2)
H2_5 H -0.0000 0.7532 0.6860
O18_4 O 0.1933(10) 0.5355(11) 0.8494(11)
O19_4 O 0.1262(13) 0.5412(16) 0.6929(9)
O2_6 O 1.0000 0.5989(13) 0.0790(12)
O5_6 O 1.0000 0.291(2) 0.2108(13)
C1_6 C 1.0000 0.225(3) 0.258(2)
H1_6 H 1.0000 0.2468 0.3140
C3_6 C 1.0000 0.562(3) 0.006(3)
O7_6 O 1.0000 0.3834(12) 0.0584(12)
O1_6 O 1.0000 0.6166(12) 0.9416(12)
O8_6 O 1.0000 0.4011(13) 0.9210(12)
C4_6 C 1.0000 0.438(3) 0.994(3)
O13_6 O 1.0000 0.709(2) 0.7892(13)
C6_6 C 1.0000 0.775(3) 0.742(2)
H2_6 H 1.0000 0.7532 0.6860
C2_3 C 0.2678(14) 0.4635(12) 0.2045(10)
C5_3 C 0.2322(14) 0.4635(12) 0.2955(10)
C7_3 C 0.2678(14) 0.5365(12) 0.7955(10)
C8_3 C 0.2322(14) 0.5365(12) 0.7045(10)
C2_4 C 0.7322(14) 0.0365(12) 0.7045(10)
C5_4 C 0.7678(14) 0.0365(12) 0.7955(10)
C7_4 C 0.7322(14) 0.9635(12) 0.2955(10)
C8_4 C 0.7678(14) 0.9635(12) 0.2045(10)
loop_
_geom_bond_atom_site_label_1
_geom_bond_atom_site_label_2
_geom_bond_site_symmetry_1
_geom_bond_site_symmetry_2
Tb1 O2 1_555 1_555
O1 C3 1_555 1_555
O2 C3 1_555 1_555
O3 C2 1_555 1_555
O4 Tb1 1_555 1_555
O5 Tb1 1_555 1_555
O6 C1 1_555 1_555
C1 O5 1_555 1_555
H1 C1 1_555 1_555
C2 O4 1_555 1_555
C3 C4 1_555 1_555
O7 Tb1 1_555 1_555
O8 C4 1_555 1_555
C4 O7 1_555 1_555
O9 Tb1 1_555 1_555
O10 C5 1_555 1_555
C5 C2 1_555 1_555
Tb2 O1 1_555 1_555
O11 C7 1_555 1_555
O12 Tb2 1_555 1_555
O13 Tb2 1_555 1_555
O14 C6 1_555 1_555
C6 O13 1_555 1_555
H2 C6 1_555 1_555
C7 O12 1_555 1_555
O15 Tb2 1_555 1_555
O16 C8 1_555 1_555
C8 C7 1_555 1_555
Tb5_2 O11 1_555 1_555
Tb6_2 O3 1_555 1_555
O17 Tb1 1_555 1_555
O18 Tb2 1_555 1_555
O19 Tb2 1_555 1_555
O20 Tb1 1_555 1_555
O21 Tb2 1_555 1_555
O22 Tb1 1_555 1_555
O8 Tb2 1_555 1_555
O9 C5 1_555 1_555
O10 Tb6_2 1_555 1_555
O15 C8 1_555 1_555
O16 Tb5_2 1_555 1_555
O2_2 C3_2 1_555 1_555
Tb4 O1_2 1_555 1_555
O11_2 C7_2 1_555 1_555
O12_2 Tb4 1_555 1_555
O13_2 Tb4 1_555 1_555
O22 C6_2 1_555 1_555
C6_2 O13_2 1_555 1_555
H2_2 C6_2 1_555 1_555
C7_2 O12_2 1_555 1_555
O15_2 Tb4 1_555 1_555
O16_2 C8_2 1_555 1_555
C8_2 C7_2 1_555 1_555
Tb5_3 O11_2 1_555 1_555
O18_2 Tb4 1_555 1_555
O19_2 Tb4 1_555 1_555
O15_2 C8_2 1_555 1_555
O16_2 Tb5_3 1_555 1_555
O3_2 C2_2 1_555 1_555
O4_2 Tb3 1_555 1_555
O5_2 Tb3 1_555 1_555
O21 C1_2 1_555 1_555
C1_2 O5_2 1_555 1_555
H1_2 C1_2 1_555 1_555
C2_2 O4_2 1_555 1_555
O7_2 Tb3 1_555 1_555
O9_2 Tb3 1_555 1_555
O10_2 C5_2 1_555 1_555
C5_2 C2_2 1_555 1_555
Tb6_3 O3_2 1_555 1_555
O17_2 Tb3 1_555 1_555
O20_2 Tb3 1_555 1_555
O9_2 C5_2 1_555 1_555
O10_2 Tb6_3 1_555 1_555
O8_2 C4_2 1_555 1_555
O5_3 Tb5_3 1_555 1_555
O6_2 C1_3 1_555 1_555
C1_3 O5_3 1_555 1_555
H1_3 C1_3 1_555 1_555
O7_3 Tb5_3 1_555 1_555
O8_3 C4_3 1_555 1_555
C4_3 O7_3 1_555 1_555
Tb6 O6_2 1_555 1_555
O1_3 C3_3 1_555 1_555
O2_3 C3_3 1_555 1_555
Tb6_3 O1_3 1_555 1_555
O13_3 Tb6_3 1_555 1_555
O14_2 C6_3 1_555 1_555
C6_3 O13_3 1_555 1_555
H2_3 C6_3 1_555 1_555
Tb5 O14_2 1_555 1_555
O5_4 Tb5_4 1_555 1_555
O6_3 C1_4 1_555 1_555
C1_4 O5_4 1_555 1_555
H1_4 C1_4 1_555 1_555
O7_4 Tb5_4 1_555 1_555
O8_4 C4_4 1_555 1_555
C4_4 O7_4 1_555 1_555
Tb6_2 O6_3 1_555 1_555
O17_3 Tb5_4 1_555 1_555
O20_3 Tb5_4 1_555 1_555
O1_4 C3_4 1_555 1_555
O2_4 C3_4 1_555 1_555
Tb6_4 O1_4 1_555 1_555
O13_4 Tb6_4 1_555 1_555
O14_3 C6_4 1_555 1_555
C6_4 O13_4 1_555 1_555
H2_4 C6_4 1_555 1_555
Tb5_2 O14_3 1_555 1_555
O18_3 Tb6_4 1_555 1_555
O19_3 Tb6_4 1_555 1_555
Tb5 O2_5 1_555 1_555
O2_5 C3_5 1_555 1_555
O5_5 Tb5 1_555 1_555
O21_2 C1_5 1_555 1_555
C1_5 O5_5 1_555 1_555
H1_5 C1_5 1_555 1_555
O7_5 Tb5 1_555 1_555
O17_4 Tb5 1_555 1_555
O20_4 Tb5 1_555 1_555
O8_5 C4_5 1_555 1_555
Tb6 O1_5 1_555 1_555
O13_5 Tb6 1_555 1_555
O22_2 C6_5 1_555 1_555
C6_5 O13_5 1_555 1_555
H2_5 C6_5 1_555 1_555
O18_4 Tb6 1_555 1_555
O19_4 Tb6 1_555 1_555
O8_5 Tb6 1_555 1_555
Tb5_2 O2_6 1_555 1_555
O2_6 C3_6 1_555 1_555
O5_6 Tb5_2 1_555 1_555
O21_3 C1_6 1_555 1_555
C1_6 O5_6 1_555 1_555
H1_6 C1_6 1_555 1_555
O7_6 Tb5_2 1_555 1_555
O8_6 C4_6 1_555 1_555
Tb6_2 O1_6 1_555 1_555
O13_6 Tb6_2 1_555 1_555
O22_3 C6_6 1_555 1_555
C6_6 O13_6 1_555 1_555
H2_6 C6_6 1_555 1_555
O8_6 Tb6_2 1_555 1_555
O17_4 C2_3 1_555 1_555
C2_3 O19 1_555 1_555
O20_4 C5_3 1_555 1_555
C5_3 C2_3 1_555 1_555
O18_4 C7_3 1_555 1_555
C7_3 O20 1_555 1_555
O19_4 C8_3 1_555 1_555
C8_3 C7_3 1_555 1_555
O18 C5_3 1_555 1_555
O17 C8_3 1_555 1_555
O17_3 C2_4 1_555 1_555
C2_4 O19_2 1_555 1_555
O20_3 C5_4 1_555 1_555
C5_4 C2_4 1_555 1_555
O18_2 C5_4 1_555 1_555
O18_3 C7_4 1_555 1_555
C7_4 O20_2 1_555 1_555
O19_3 C8_4 1_555 1_555
C8_4 C7_4 1_555 1_555
O17_2 C8_4 1_555 1_555

#END
