
###############################################################################
#
# This file contains modified crystal structure data generated from the
# MOF subset of the Cambridge Structural Database (CSD) v543 
# hosted by the Cambridge Crystallographic Data Centre (CCDC).
#
# This work is licensed under the Creative Commons
# Attribution-NonCommercial-ShareAlike 4.0 International License.
# To view a copy of this license, visit
# http://creativecommons.org/licenses/by-nc-sa/4.0/
# or send a letter to
# Creative Commons, PO Box 1866, Mountain View, CA 94042, USA.
#
# CIF created using the CSD Python API on 29 September 2022
# The structure has been converted into the P1 space group
# The structure has a 3D framework
# The original CSD entry IBUZAK is in the orthorhombic crystal system
# The framework has been calculated to contain at least 10.0% void space
# The void calculation uses a probe of radius 1.32A, grid spacing 0.4
#
###############################################################################

data_IBUZAK
_chemical_formula_moiety         '(C24 H16 N4 Ni5 O8)n'
_symmetry_cell_setting           triclinic
_symmetry_space_group_name_H-M   'P 1'
_symmetry_Int_Tables_number      1
_space_group_name_Hall           'P 1'
loop_
_symmetry_equiv_pos_site_id
_symmetry_equiv_pos_as_xyz
1 x,y,z
_cell_length_a                   12.4615(7)
_cell_length_b                   6.3135(4)
_cell_length_c                   10.3316(6)
_cell_angle_alpha                90
_cell_angle_beta                 90
_cell_angle_gamma                90
_cell_volume                     812.846
loop_
_atom_site_label
_atom_site_type_symbol
_atom_site_fract_x
_atom_site_fract_y
_atom_site_fract_z
Ni3 Ni 0.000000 0.000000 0.2653(5)
Ni1 Ni 0.500000 0.500000 0.7653(5)
O1 O 0.3938(7) 0.2566(15) 0.7189(10)
O2 O 0.3838(9) 0.5649(19) 0.6151(12)
N1 N 0.0996(8) 0.131(2) 0.3959(12)
C1 C 0.3490(11) 0.372(3) 0.6318(16)
C2 C 0.2618(10) 0.289(3) 0.5501(18)
C3 C 0.2227(13) 0.088(3) 0.5738(18)
H1 H 0.249075 0.003279 0.643003
C4 C 0.1416(12) 0.014(2) 0.490(2)
C5 C 0.1368(9) 0.328(2) 0.3763(15)
H3 H 0.108170 0.411568 0.307895
C6 C 0.2167(11) 0.412(2) 0.4553(17)
H4 H 0.240057 0.553624 0.443340
O3 O 0.6062(7) 0.7434(15) 0.7189(10)
O4 O 0.6162(9) 0.4351(19) 0.6151(12)
N2 N 0.9004(8) 0.869(2) 0.3959(12)
C7 C 0.6510(11) 0.628(3) 0.6318(16)
C8 C 0.7382(10) 0.711(3) 0.5501(18)
C9 C 0.7773(13) 0.912(3) 0.5738(18)
H5 H 0.750925 0.996721 0.643003
C10 C 0.8584(12) 0.986(2) 0.490(2)
C11 C 0.8632(9) 0.672(2) 0.3763(15)
H7 H 0.891830 0.588432 0.307895
C12 C 0.7833(11) 0.588(2) 0.4553(17)
H8 H 0.759943 0.446376 0.443340
Ni3_2 Ni 1.000000 1.000000 0.2653(5)
N3 N 0.4004(8) 0.631(2) 0.8959(12)
N4 N 0.5996(8) 0.369(2) 0.8959(12)
O2_2 O 0.1162(9) 0.0649(19) 0.1151(12)
C4_2 C 0.3584(12) 0.514(2) 0.990(2)
C5_2 C 0.3632(9) 0.828(2) 0.8763(15)
H3_2 H 0.391830 0.911568 0.807895
C6_2 C 0.2833(11) 0.912(2) 0.9553(17)
C10_2 C 0.6416(12) 0.486(2) 0.990(2)
C11_2 C 0.6368(9) 0.172(2) 0.8763(15)
H7_2 H 0.608170 0.088432 0.807895
C12_2 C 0.7167(11) 0.088(2) 0.9553(17)
O4_2 O 0.8838(9) 0.9351(19) 0.1151(12)
Ni3_3 Ni 0.000000 1.000000 0.2653(5)
H2 H 0.115656 0.873813 0.501206
O1_2 O 0.1062(7) 0.7566(15) 0.2189(10)
C1_2 C 0.1510(11) 0.872(3) 0.1318(16)
C2_2 C 0.2382(10) 0.789(3) 0.0501(18)
C3_2 C 0.2773(13) 0.588(3) 0.0738(18)
H1_2 H 0.250925 0.503279 0.143003
H2_2 H 0.384344 0.373813 0.001206
H6 H 0.884344 0.126187 0.501206
Ni3_4 Ni 1.000000 0.000000 0.2653(5)
O3_2 O 0.8938(7) 0.2434(15) 0.2189(10)
C7_2 C 0.8490(11) 0.128(3) 0.1318(16)
C8_2 C 0.7618(10) 0.211(3) 0.0501(18)
C9_2 C 0.7227(13) 0.412(3) 0.0738(18)
H5_2 H 0.749075 0.496721 0.143003
H6_2 H 0.615656 0.626187 0.001206
H4_2 H 0.259943 0.053624 0.943340
H8_2 H 0.740057 0.946376 0.943340
loop_
_geom_bond_atom_site_label_1
_geom_bond_atom_site_label_2
_geom_bond_site_symmetry_1
_geom_bond_site_symmetry_2
Ni1 O1 1_555 1_555
O1 C1 1_555 1_555
O2 Ni1 1_555 1_555
N1 C4 1_555 1_555
C1 O2 1_555 1_555
C2 C1 1_555 1_555
C3 C2 1_555 1_555
H1 C3 1_555 1_555
C4 C3 1_555 1_555
C5 N1 1_555 1_555
H3 C5 1_555 1_555
C6 C2 1_555 1_555
H4 C6 1_555 1_555
O3 Ni1 1_555 1_555
O4 Ni1 1_555 1_555
N2 C10 1_555 1_555
C7 O3 1_555 1_555
C8 C7 1_555 1_555
C9 C8 1_555 1_555
H5 C9 1_555 1_555
C10 C9 1_555 1_555
C11 N2 1_555 1_555
H7 C11 1_555 1_555
C12 C8 1_555 1_555
H8 C12 1_555 1_555
Ni3 N1 1_555 1_555
Ni3_2 N2 1_555 1_555
N3 Ni1 1_555 1_555
N4 Ni1 1_555 1_555
C5 C6 1_555 1_555
O4 C7 1_555 1_555
C11 C12 1_555 1_555
O2_2 Ni3 1_555 1_555
N3 C4_2 1_555 1_555
C5_2 N3 1_555 1_555
H3_2 C5_2 1_555 1_555
C5_2 C6_2 1_555 1_555
N4 C10_2 1_555 1_555
C11_2 N4 1_555 1_555
H7_2 C11_2 1_555 1_555
C11_2 C12_2 1_555 1_555
O4_2 Ni3_2 1_555 1_555
Ni3_3 O1_2 1_555 1_555
O1_2 C1_2 1_555 1_555
C2_2 C1_2 1_555 1_555
C3_2 C2_2 1_555 1_555
H1_2 C3_2 1_555 1_555
O3_2 Ni3_4 1_555 1_555
C7_2 O3_2 1_555 1_555
C8_2 C7_2 1_555 1_555
C9_2 C8_2 1_555 1_555
H5_2 C9_2 1_555 1_555

#END
