
###############################################################################
#
# This file contains modified crystal structure data generated from the
# MOF subset of the Cambridge Structural Database (CSD) v543 
# hosted by the Cambridge Crystallographic Data Centre (CCDC).
#
# This work is licensed under the Creative Commons
# Attribution-NonCommercial-ShareAlike 4.0 International License.
# To view a copy of this license, visit
# http://creativecommons.org/licenses/by-nc-sa/4.0/
# or send a letter to
# Creative Commons, PO Box 1866, Mountain View, CA 94042, USA.
#
# CIF created using the CSD Python API on 29 September 2022
# The structure has been converted into the P1 space group
# The structure has a 3D framework
# The original CSD entry ICOSEB is in the monoclinic crystal system
# The framework has been calculated to contain at least 10.0% void space
# The void calculation uses a probe of radius 1.32A, grid spacing 0.4
# H atom positions have been added when not included in the experimental data
#
###############################################################################

data_ICOSEB
_chemical_formula_moiety         '(C24 H32 N8 O26 S3 Zn4)n'
_symmetry_cell_setting           triclinic
_symmetry_space_group_name_H-M   'P 1'
_symmetry_Int_Tables_number      1
_space_group_name_Hall           'P 1'
loop_
_symmetry_equiv_pos_site_id
_symmetry_equiv_pos_as_xyz
1 x,y,z
_cell_length_a                   10.016(2)
_cell_length_b                   21.010(4)
_cell_length_c                   6.8857(14)
_cell_angle_alpha                90
_cell_angle_beta                 131.69(3)
_cell_angle_gamma                90
_cell_volume                     1082.05
loop_
_atom_site_label
_atom_site_type_symbol
_atom_site_fract_x
_atom_site_fract_y
_atom_site_fract_z
Zn3 Zn 0.17344(8) 0.28847(3) 0.66302(9)
Zn4 Zn 0.17344(8) 0.71153(3) 0.66302(9)
O2 O 0.4826(7) 0.2602(3) 0.3091(11)
O4 O 0.8631(7) 0.2635(3) 0.6887(11)
O5 O 0.9587(7) 0.3377(3) 0.5775(10)
O7 O 0.3880(7) 0.3341(3) 0.0130(11)
C4 C 0.5004(10) 0.3126(4) 0.2368(15)
C5 C 0.8426(10) 0.3148(4) 0.5755(14)
C6 C 0.6693(10) 0.3516(3) 0.4362(15)
H5 H 0.6692 0.3879 0.3487
H6 H 0.6660 0.3679 0.5648
O8 O 0.4826(7) 0.7398(3) 0.3091(11)
O9 O 0.8631(7) 0.7365(3) 0.6887(11)
O10 O 0.9587(7) 0.6623(3) 0.5775(10)
O12 O 0.3880(7) 0.6659(3) 0.0130(11)
C10 C 0.5004(10) 0.6874(4) 0.2368(15)
C11 C 0.8426(10) 0.6852(4) 0.5755(14)
C12 C 0.6693(10) 0.6484(3) 0.4362(15)
H11 H 0.6692 0.6121 0.3487
H12 H 0.6660 0.6321 0.5648
Zn5 Zn 0.67344(8) 0.78847(3) 0.66302(9)
Zn6 Zn 0.67344(8) 0.21153(3) 0.66302(9)
H14 H 0.284173 0.214595 0.0555818
S1 S 0.4374(4) 0.5000 0.4595(6)
C1 C 0.1740(19) 0.4122(4) 0.166(2)
H1 H 0.1355 0.4241 0.0050
N1 N 0.2015(9) 0.3615(3) 0.4753(13)
O1 O 0.5850(13) 0.5000 0.727(2)
C2 C 0.3208(11) 0.4051(4) 0.5840(17)
H2 H 0.4025 0.4133 0.7617
N2 N 0.3131(10) 0.4385(3) 0.4042(14)
O3 O 0.4468(18) 0.5000 0.266(3)
C3 C 0.1057(16) 0.3663(5) 0.2115(19)
H3 H 0.0078 0.3412 0.0842
O6 O 0.1707(9) 0.2136(3) 0.8710(13)
H4 H 0.0811 0.2181 0.8641
C7 C 0.1740(19) 0.5878(4) 0.166(2)
H7 H 0.1355 0.5759 0.0050
N3 N 0.2015(9) 0.6385(3) 0.4753(13)
C8 C 0.3208(11) 0.5949(4) 0.5840(17)
H8 H 0.4025 0.5867 0.7617
N4 N 0.3131(10) 0.5615(3) 0.4042(14)
C9 C 0.1057(16) 0.6337(5) 0.2115(19)
H9 H 0.0078 0.6588 0.0842
O11 O 0.1707(9) 0.7864(3) 0.8710(13)
H10 H 0.0811 0.7819 0.8641
O15 O 0.3631(7) 0.7635(3) 0.6887(11)
O16 O 0.3631(7) 0.2365(3) 0.6887(11)
H13 H 0.159687 0.827925 0.792522
O13 O 0.9826(7) 0.7602(3) 0.3091(11)
O14 O 0.9826(7) 0.2398(3) 0.3091(11)
H14_2 H 0.284173 0.785405 0.0555818
H13_2 H 0.159687 0.172075 0.792522
O10_2 O 0.4587(7) 0.1623(3) 0.5775(10)
C10_2 C 0.0004(10) 0.1874(4) 0.2368(15)
C11_2 C 0.3426(10) 0.1852(4) 0.5755(14)
C12_2 C 0.1693(10) 0.1484(3) 0.4362(15)
H11_2 H 0.1692 0.1121 0.3487
H12_2 H 0.1660 0.1321 0.5648
O5_2 O 0.4587(7) 0.8377(3) 0.5775(10)
C4_2 C 0.0004(10) 0.8126(4) 0.2368(15)
C5_2 C 0.3426(10) 0.8148(4) 0.5755(14)
C6_2 C 0.1693(10) 0.8516(3) 0.4362(15)
H5_2 H 0.1692 0.8879 0.3487
H6_2 H 0.1660 0.8679 0.5648
O12_2 O 0.8880(7) 0.1659(3) 0.0130(11)
S1_2 S 0.9374(4) -0.0000 0.4595(6)
O3_2 O 0.9468(18) -0.0000 0.266(3)
C7_2 C 0.6740(19) 0.0878(4) 0.166(2)
H7_2 H 0.6355 0.0759 0.0050
N3_2 N 0.7015(9) 0.1385(3) 0.4753(13)
C8_2 C 0.8208(11) 0.0949(4) 0.5840(17)
H8_2 H 0.9025 0.0867 0.7617
N4_2 N 0.8131(10) 0.0615(3) 0.4042(14)
C9_2 C 0.6057(16) 0.1337(5) 0.2115(19)
H9_2 H 0.5078 0.1588 0.0842
O11_2 O 0.6707(9) 0.2864(3) 0.8710(13)
H10_2 H 0.5811 0.2819 0.8641
H13_3 H 0.659687 0.327925 0.792522
O7_2 O 0.8880(7) 0.8341(3) 0.0130(11)
H14_3 H 0.784173 0.714595 0.0555818
S1_3 S 0.9374(4) 1.0000 0.4595(6)
C1_2 C 0.6740(19) 0.9122(4) 0.166(2)
H1_2 H 0.6355 0.9241 0.0050
N1_2 N 0.7015(9) 0.8615(3) 0.4753(13)
C2_2 C 0.8208(11) 0.9051(4) 0.5840(17)
H2_2 H 0.9025 0.9133 0.7617
N2_2 N 0.8131(10) 0.9385(3) 0.4042(14)
O3_3 O 0.9468(18) 1.0000 0.266(3)
C3_2 C 0.6057(16) 0.8663(5) 0.2115(19)
H3_2 H 0.5078 0.8412 0.0842
O6_2 O 0.6707(9) 0.7136(3) 0.8710(13)
H4_2 H 0.5811 0.7181 0.8641
H14_4 H 0.784173 0.285405 0.0555818
H13_4 H 0.659687 0.672075 0.792522
O1_2 O 0.0850(13) -0.0000 0.727(2)
O1_3 O 0.0850(13) 1.0000 0.727(2)
loop_
_geom_bond_atom_site_label_1
_geom_bond_atom_site_label_2
_geom_bond_site_symmetry_1
_geom_bond_site_symmetry_2
O2 C4 1_555 1_555
O4 C5 1_555 1_555
O5 C5 1_555 1_555
C4 O7 1_555 1_555
C5 C6 1_555 1_555
C6 C4 1_555 1_555
H5 C6 1_555 1_555
H6 C6 1_555 1_555
O8 C10 1_555 1_555
O9 C11 1_555 1_555
O10 C11 1_555 1_555
C10 O12 1_555 1_555
C11 C12 1_555 1_555
C12 C10 1_555 1_555
H11 C12 1_555 1_555
H12 C12 1_555 1_555
Zn5 O8 1_555 1_555
Zn6 O2 1_555 1_555
O4 Zn6 1_555 1_555
O9 Zn5 1_555 1_555
Zn3 N1 1_555 1_555
S1 O1 1_555 1_555
C1 H1 1_555 1_555
N1 C2 1_555 1_555
C2 H2 1_555 1_555
N2 S1 1_555 1_555
O3 S1 1_555 1_555
C3 C1 1_555 1_555
H3 C3 1_555 1_555
O6 Zn3 1_555 1_555
H4 O6 1_555 1_555
C7 H7 1_555 1_555
N3 C8 1_555 1_555
C8 H8 1_555 1_555
N4 S1 1_555 1_555
C9 C7 1_555 1_555
H9 C9 1_555 1_555
Zn4 N3 1_555 1_555
O11 Zn4 1_555 1_555
H10 O11 1_555 1_555
O15 Zn4 1_555 1_555
O16 Zn3 1_555 1_555
C1 N2 1_555 1_555
N1 C3 1_555 1_555
C2 N2 1_555 1_555
C7 N4 1_555 1_555
N3 C9 1_555 1_555
C8 N4 1_555 1_555
O11 H13 1_555 1_555
O6 H13_2 1_555 1_555
O16 C11_2 1_555 1_555
O10_2 C11_2 1_555 1_555
C11_2 C12_2 1_555 1_555
C12_2 C10_2 1_555 1_555
H11_2 C12_2 1_555 1_555
H12_2 C12_2 1_555 1_555
Zn6 O10_2 1_555 1_555
O15 C5_2 1_555 1_555
O5_2 C5_2 1_555 1_555
C5_2 C6_2 1_555 1_555
C6_2 C4_2 1_555 1_555
H5_2 C6_2 1_555 1_555
H6_2 C6_2 1_555 1_555
Zn5 O5_2 1_555 1_555
O3_2 S1_2 1_555 1_555
C7_2 H7_2 1_555 1_555
N3_2 C8_2 1_555 1_555
C8_2 H8_2 1_555 1_555
N4_2 S1_2 1_555 1_555
C9_2 C7_2 1_555 1_555
H9_2 C9_2 1_555 1_555
Zn6 N3_2 1_555 1_555
O11_2 Zn6 1_555 1_555
H10_2 O11_2 1_555 1_555
C7_2 N4_2 1_555 1_555
N3_2 C9_2 1_555 1_555
C8_2 N4_2 1_555 1_555
O11_2 H13_3 1_555 1_555
Zn5 N1_2 1_555 1_555
C1_2 H1_2 1_555 1_555
N1_2 C2_2 1_555 1_555
C2_2 H2_2 1_555 1_555
N2_2 S1_3 1_555 1_555
O3_3 S1_3 1_555 1_555
C3_2 C1_2 1_555 1_555
H3_2 C3_2 1_555 1_555
O6_2 Zn5 1_555 1_555
H4_2 O6_2 1_555 1_555
C1_2 N2_2 1_555 1_555
N1_2 C3_2 1_555 1_555
C2_2 N2_2 1_555 1_555
O6_2 H13_4 1_555 1_555

#END
