
###############################################################################
#
# This file contains modified crystal structure data generated from the
# MOF subset of the Cambridge Structural Database (CSD) v543 
# hosted by the Cambridge Crystallographic Data Centre (CCDC).
#
# This work is licensed under the Creative Commons
# Attribution-NonCommercial-ShareAlike 4.0 International License.
# To view a copy of this license, visit
# http://creativecommons.org/licenses/by-nc-sa/4.0/
# or send a letter to
# Creative Commons, PO Box 1866, Mountain View, CA 94042, USA.
#
# CIF created using the CSD Python API on 29 September 2022
# The structure has been converted into the P1 space group
# The structure has a 3D framework
# The original CSD entry ICOWON is in the triclinic crystal system
# The framework has been calculated to contain at least 10.0% void space
# The void calculation uses a probe of radius 1.32A, grid spacing 0.4
#
###############################################################################

data_ICOWON
_chemical_formula_moiety         '(C18 H32 La2 O14)n'
_symmetry_cell_setting           triclinic
_symmetry_space_group_name_H-M   'P 1'
_symmetry_Int_Tables_number      1
_space_group_name_Hall           'P 1'
loop_
_symmetry_equiv_pos_site_id
_symmetry_equiv_pos_as_xyz
1 x,y,z
_cell_length_a                   8.7544(13)
_cell_length_b                   10.0037(17)
_cell_length_c                   11.7895(18)
_cell_angle_alpha                74.695(19)
_cell_angle_beta                 69.848(17)
_cell_angle_gamma                86.182(19)
_cell_volume                     934.561
loop_
_atom_site_label
_atom_site_type_symbol
_atom_site_fract_x
_atom_site_fract_y
_atom_site_fract_z
_atom_site_U_iso_or_equiv
_atom_site_thermal_displace_type
H12 H 0.0354 0.0215 0.6023 0.0700 Uiso
O15 O 0.0668(2) 0.4643(2) 0.38822(19) 0.0175 Uani
H25 H 0.2756 0.0330 0.3995 0.0700 Uiso
H26 H 0.2402 0.0199 0.2812 0.0700 Uiso
C18 C 0.0320(5) 0.0223(4) 0.4288(4) 0.0394 Uani
H27 H 0.0218 0.1218 0.4017 0.0700 Uiso
La6 La 0.254659(19) 0.522471(17) 0.487605(15) 0.0107 Uani
O11 O 0.0986(2) 0.6178(2) 0.6831(2) 0.0193 Uani
C16 C 0.2361(4) 0.8322(3) 0.4046(3) 0.0213 Uani
O19 O 0.1373(3) 0.7498(2) 0.3995(2) 0.0233 Uani
O21 O 0.3568(3) 0.7855(2) 0.4376(2) 0.0276 Uani
C17 C 0.2075(5) 0.9860(3) 0.3714(4) 0.0357 Uani
C4 C 0.1549(4) 0.3848(4) 0.0826(3) 0.0264 Uani
H5 H 0.0870 0.4604 0.0597 0.0700 Uiso
H6 H 0.0954 0.2985 0.1022 0.0700 Uiso
C5 C 0.1884(4) 0.3965(4) 0.1969(3) 0.0257 Uani
H7 H 0.2435 0.3138 0.2252 0.0700 Uiso
H8 H 0.2632 0.4746 0.1722 0.0700 Uiso
C6 C 0.0440(3) 0.4145(3) 0.3055(3) 0.0137 Uani
La1 La 0.745341(19) 0.477529(17) 0.512395(15) 0.0107 Uani
C1 C 0.4341(3) 0.4119(3) 0.7390(3) 0.0145 Uani
O1 O 0.5728(2) 0.3926(2) 0.7495(2) 0.0207 Uani
O2 O 0.4227(2) 0.4539(2) 0.63000(19) 0.0183 Uani
C2 C 0.2827(4) 0.3881(4) 0.8525(3) 0.0230 Uani
H1 H 0.2333 0.2996 0.8636 0.0700 Uiso
H2 H 0.2062 0.4594 0.8375 0.0700 Uiso
C3 C 0.3098(4) 0.3888(4) 0.9732(3) 0.0265 Uani
H3 H 0.3735 0.3093 0.9948 0.0700 Uiso
H4 H 0.3729 0.4716 0.9587 0.0700 Uiso
C7 C 0.7639(4) 0.1678(3) 0.5954(3) 0.0213 Uani
O5 O 0.8627(3) 0.2502(2) 0.6005(2) 0.0233 Uani
O6 O 0.6432(3) 0.2145(2) 0.5624(2) 0.0276 Uani
C8 C 0.7925(5) 0.0140(3) 0.6286(4) 0.0357 Uani
O7 O 0.8716(3) 0.7064(2) 0.3467(2) 0.0258 Uani
O8 O 0.6223(3) 0.7004(3) 0.5883(3) 0.0290 Uani
H13 H 0.814(4) 0.774(3) 0.347(4) 0.0250 Uiso
H14 H 0.650(6) 0.768(4) 0.527(4) 0.0590 Uiso
H15 H 0.531(3) 0.703(5) 0.639(4) 0.0590 Uiso
H16 H 0.951(4) 0.731(5) 0.358(5) 0.0530 Uiso
C10 C 0.5659(3) 0.5881(3) 0.2610(3) 0.0145 Uani
O9 O 0.4272(2) 0.6074(2) 0.2505(2) 0.0207 Uani
O10 O 0.5773(2) 0.5461(2) 0.37000(19) 0.0183 Uani
C11 C 0.7173(4) 0.6119(4) 0.1475(3) 0.0230 Uani
H17 H 0.7667 0.7004 0.1364 0.0700 Uiso
H18 H 0.7938 0.5406 0.1625 0.0700 Uiso
C12 C 0.6902(4) 0.6112(4) 0.0268(3) 0.0265 Uani
H19 H 0.6265 0.6907 0.0052 0.0700 Uiso
H20 H 0.6271 0.5284 0.0413 0.0700 Uiso
O12 O 0.9014(2) 0.3822(2) 0.3169(2) 0.0193 Uani
O16 O 0.9332(2) 0.5357(2) 0.61178(19) 0.0175 Uani
O23 O 0.1284(3) 0.2936(2) 0.6533(2) 0.0258 Uani
O24 O 0.3777(3) 0.2996(3) 0.4117(3) 0.0290 Uani
H29 H 0.186(4) 0.226(3) 0.653(4) 0.0250 Uiso
H30 H 0.350(6) 0.232(4) 0.473(4) 0.0590 Uiso
H31 H 0.469(3) 0.297(5) 0.361(4) 0.0590 Uiso
H32 H 0.049(4) 0.269(5) 0.642(5) 0.0530 Uiso
C13 C 0.8451(4) 0.6152(4) 0.9174(3) 0.0264 Uani
H21 H 0.9130 0.5396 0.9403 0.0700 Uiso
H22 H 0.9046 0.7015 0.8978 0.0700 Uiso
C14 C 0.8116(4) 0.6035(4) 0.8031(3) 0.0257 Uani
H23 H 0.7565 0.6862 0.7748 0.0700 Uiso
H24 H 0.7368 0.5254 0.8278 0.0700 Uiso
C15 C 0.9560(3) 0.5855(3) 0.6945(3) 0.0137 Uani
H9 H 0.7244 0.9670 0.6005 0.0700 Uiso
H10 H 0.7598 0.9801 0.7188 0.0700 Uiso
C9 C 0.9680(5) 0.9777(4) 0.5712(4) 0.0394 Uani
H11 H 0.9782 0.8782 0.5983 0.0700 Uiso
H28 H 0.9646 0.9785 0.3977 0.0700 Uiso
loop_
_atom_site_aniso_label
_atom_site_aniso_U_11
_atom_site_aniso_U_22
_atom_site_aniso_U_33
_atom_site_aniso_U_23
_atom_site_aniso_U_13
_atom_site_aniso_U_12
O15 0.0137 0.0283 0.0138 -0.0118 -0.004 0.0012
C18 0.043 0.0232 0.049 -0.0094 -0.014 0.0127
La6 0.0079 0.01634 0.00858 -0.00502 -0.00266 0.00127
O11 0.0117 0.0326 0.0172 -0.0129 -0.0046 0.0004
C16 0.019 0.0211 0.0211 -0.0089 -0.001 0.0008
O19 0.0196 0.0176 0.0343 -0.0063 -0.0117 0.0011
O21 0.0211 0.0272 0.0388 -0.0111 -0.0134 -0.001
C17 0.0348 0.0175 0.046 -0.0096 -0.0021 0.0017
C4 0.0167 0.051 0.0125 -0.0144 -0.0019 0.0021
C5 0.0155 0.048 0.0179 -0.0181 -0.004 0.0013
C6 0.013 0.0187 0.0097 -0.0042 -0.004 0.002
La1 0.0079 0.01634 0.00858 -0.00502 -0.00266 0.00127
C1 0.016 0.0165 0.0109 -0.0041 -0.0039 -0.0012
O1 0.0134 0.0356 0.0121 -0.0039 -0.0051 0.0016
O2 0.0125 0.0323 0.0084 -0.0041 -0.0022 0.0006
C2 0.0148 0.044 0.0078 -0.0065 -0.0009 0.0002
C3 0.0174 0.052 0.0104 -0.0138 -0.0008 0.001
C7 0.019 0.0211 0.0211 -0.0089 -0.001 0.0008
O5 0.0196 0.0176 0.0343 -0.0063 -0.0117 0.0011
O6 0.0211 0.0272 0.0388 -0.0111 -0.0134 -0.001
C8 0.0348 0.0175 0.046 -0.0096 -0.0021 0.0017
O7 0.0215 0.024 0.0324 -0.0017 -0.0136 -0.0007
O8 0.0306 0.0267 0.0298 -0.011 -0.0084 0.0057
C10 0.016 0.0165 0.0109 -0.0041 -0.0039 -0.0012
O9 0.0134 0.0356 0.0121 -0.0039 -0.0051 0.0016
O10 0.0125 0.0323 0.0084 -0.0041 -0.0022 0.0006
C11 0.0148 0.044 0.0078 -0.0065 -0.0009 0.0002
C12 0.0174 0.052 0.0104 -0.0138 -0.0008 0.001
O12 0.0117 0.0326 0.0172 -0.0129 -0.0046 0.0004
O16 0.0137 0.0283 0.0138 -0.0118 -0.004 0.0012
O23 0.0215 0.024 0.0324 -0.0017 -0.0136 -0.0007
O24 0.0306 0.0267 0.0298 -0.011 -0.0084 0.0057
C13 0.0167 0.051 0.0125 -0.0144 -0.0019 0.0021
C14 0.0155 0.048 0.0179 -0.0181 -0.004 0.0013
C15 0.013 0.0187 0.0097 -0.0042 -0.004 0.002
C9 0.043 0.0232 0.049 -0.0094 -0.014 0.0127
loop_
_geom_bond_atom_site_label_1
_geom_bond_atom_site_label_2
_geom_bond_site_symmetry_1
_geom_bond_site_symmetry_2
H27 C18 1_555 1_555
La6 O11 1_555 1_555
La6 O19 1_555 1_555
C16 O19 1_555 1_555
O21 La6 1_555 1_555
C17 C16 1_555 1_555
C16 O21 1_555 1_555
H5 C4 1_555 1_555
H6 C4 1_555 1_555
C5 C4 1_555 1_555
H7 C5 1_555 1_555
H8 C5 1_555 1_555
C6 C5 1_555 1_555
O15 C6 1_555 1_555
La6 O15 1_555 1_555
La1 O1 1_555 1_555
C1 O1 1_555 1_555
O2 La1 1_555 1_555
C2 C1 1_555 1_555
H1 C2 1_555 1_555
H2 C2 1_555 1_555
C3 C2 1_555 1_555
H3 C3 1_555 1_555
H4 C3 1_555 1_555
C7 O5 1_555 1_555
O5 La1 1_555 1_555
O6 La1 1_555 1_555
C8 C7 1_555 1_555
O7 La1 1_555 1_555
O8 La1 1_555 1_555
H13 O7 1_555 1_555
H14 O8 1_555 1_555
H15 O8 1_555 1_555
H16 O7 1_555 1_555
La6 O2 1_555 1_555
C10 O9 1_555 1_555
O9 La6 1_555 1_555
O10 La1 1_555 1_555
C11 C10 1_555 1_555
H17 C11 1_555 1_555
H18 C11 1_555 1_555
C12 C11 1_555 1_555
H19 C12 1_555 1_555
H20 C12 1_555 1_555
O12 La1 1_555 1_555
O16 La1 1_555 1_555
O23 La6 1_555 1_555
O24 La6 1_555 1_555
H29 O23 1_555 1_555
H30 O24 1_555 1_555
H31 O24 1_555 1_555
H32 O23 1_555 1_555
C1 O2 1_555 1_555
C7 O6 1_555 1_555
La6 O10 1_555 1_555
C10 O10 1_555 1_555
H21 C13 1_555 1_555
H22 C13 1_555 1_555
C14 C13 1_555 1_555
H23 C14 1_555 1_555
H24 C14 1_555 1_555
C15 C14 1_555 1_555
C15 O16 1_555 1_555
H11 C9 1_555 1_555

#END
