
###############################################################################
#
# This file contains modified crystal structure data generated from the
# MOF subset of the Cambridge Structural Database (CSD) v543 
# hosted by the Cambridge Crystallographic Data Centre (CCDC).
#
# This work is licensed under the Creative Commons
# Attribution-NonCommercial-ShareAlike 4.0 International License.
# To view a copy of this license, visit
# http://creativecommons.org/licenses/by-nc-sa/4.0/
# or send a letter to
# Creative Commons, PO Box 1866, Mountain View, CA 94042, USA.
#
# CIF created using the CSD Python API on 29 September 2022
# The structure has been converted into the P1 space group
# The structure has a 3D framework
# The original CSD entry ICUDIX is in the triclinic crystal system
# The framework has been calculated to contain at least 10.0% void space
# The void calculation uses a probe of radius 1.32A, grid spacing 0.4
# The framework is charged, counterions have been retained in the structure
# H atom positions have been added when not included in the experimental data
#
###############################################################################

data_ICUDIX
_chemical_formula_moiety         '(C72 H60 Co2 Gd4 N16 O48 2-)n'
_symmetry_cell_setting           triclinic
_symmetry_space_group_name_H-M   'P 1'
_symmetry_Int_Tables_number      1
_space_group_name_Hall           'P 1'
loop_
_symmetry_equiv_pos_site_id
_symmetry_equiv_pos_as_xyz
1 x,y,z
_cell_length_a                   11.0599(10)
_cell_length_b                   12.4532(10)
_cell_length_c                   22.2391(18)
_cell_angle_alpha                101.704(3)
_cell_angle_beta                 103.402(3)
_cell_angle_gamma                95.429(3)
_cell_volume                     2885.22
loop_
_atom_site_label
_atom_site_type_symbol
_atom_site_fract_x
_atom_site_fract_y
_atom_site_fract_z
N1 N 0.7658(14) 0.9316(13) 0.3108(6)
O1 O 0.8503(12) 0.9113(11) 0.3493(6)
O2 O 0.7568(15) 0.8963(12) 0.2563(6)
O3 O 0.6726(13) 0.9551(12) 0.3247(6)
N1_2 N 0.2342(14) 0.0684(13) 0.6892(6)
O1_2 O 0.1497(12) 0.0887(11) 0.6507(6)
O2_2 O 0.2432(15) 0.1037(12) 0.7437(6)
O3_2 O 0.3274(13) 0.0449(12) 0.6753(6)
O4 O 0.2267(7) 0.4256(8) 0.2368(4)
O5 O 0.0803(8) 0.3197(7) 0.1716(5)
N2 N 0.1409(8) 0.4067(8) 0.1903(4)
O6 O 0.1206(13) 0.4758(10) 0.1615(6)
O4_2 O 0.7733(7) 0.5744(8) 0.7632(4)
O5_2 O 0.9197(8) 0.6803(7) 0.8284(5)
N2_2 N 0.8591(8) 0.5933(8) 0.8097(4)
O6_2 O 0.8794(13) 0.5242(10) 0.8385(6)
O11 O 0.2904(3) 0.6203(3) 0.4267(2)
O18 O 0.1956(3) 0.7691(3) 0.44139(17)
C21 C 0.1976(4) 0.6679(4) 0.4195(2)
C34 C 0.0717(4) 0.6001(4) 0.3822(2)
C35 C 0.0651(4) 0.4955(4) 0.3461(2)
H18 H 0.138223 0.464676 0.345229
Gd6 Gd 0.29979(2) 0.94650(2) 0.45316(2)
Gd10 Gd 0.04237(2) 0.86921(2) 0.05187(2)
Gd3 Gd 0.70021(2) 0.05350(2) 0.54684(2)
Co1 Co 0.67736(5) 0.41466(4) 0.25725(2)
O9 O 0.7998(5) 0.1259(4) 0.66175(19)
O10 O 0.4459(3) 0.8527(3) 0.40980(15)
O12 O 0.8992(3) 0.0838(3) 0.03543(15)
O14 O 0.5626(3) 0.0943(3) 0.46222(15)
O15 O 0.3747(3) 0.0730(3) 0.39676(16)
O16 O 0.1616(3) 0.0472(3) 0.09439(15)
O19 O 0.8343(5) 0.0541(4) 0.4706(2)
O20 O 0.1440(3) 0.1620(3) 0.02823(15)
O21 O 0.8667(6) 0.5753(4) 0.0137(2)
O22 O 0.6442(3) 0.8820(3) 0.46948(16)
O24 O 0.9064(4) 0.7402(3) 0.08214(17)
N3 N 0.8427(3) 0.4772(3) 0.31211(16)
N4 N 0.7197(3) 0.4952(3) 0.19717(17)
N5 N 0.6306(3) 0.3261(3) 0.31215(15)
N6 N 0.5117(3) 0.3518(3) 0.20335(16)
N7 N 0.7370(3) 0.2935(3) 0.20792(16)
N8 N 0.6272(3) 0.5400(3) 0.30621(16)
C1 C 0.8791(4) 0.0568(3) 0.0842(2)
C2 C 0.6519(5) 0.2575(4) 0.4055(2)
H1 H 0.698743 0.258192 0.446198
C3 C 0.7647(4) 0.4334(4) 0.1525(2)
C4 C 0.8213(4) 0.1374(3) 0.1254(2)
C5 C 0.4887(5) 0.1118(4) 0.4154(2)
C6 C 0.7237(4) 0.6116(3) 0.34907(19)
C7 C 0.7169(4) 0.6025(3) 0.1978(2)
H2 H 0.682690 0.644827 0.227326
C8 C 0.5807(4) 0.7280(3) 0.3827(2)
C9 C 0.4833(4) 0.6553(4) 0.3384(2)
H3 H 0.400961 0.669618 0.333308
C10 C 0.3005(4) 0.2149(4) 0.1235(2)
C11 C 0.9600(4) 0.6425(4) 0.3840(2)
H4 H 0.961676 0.713086 0.408306
C12 C 0.4575(4) 0.3720(4) 0.1469(2)
H5 H 0.492837 0.432192 0.134677
C13 C 0.7676(4) 0.3173(3) 0.1561(2)
C14 C 0.6950(4) 0.3266(4) 0.3710(2)
H6 H 0.770442 0.374314 0.389121
C15 C 0.3514(4) 0.3060(4) 0.1068(2)
H7 H 0.314079 0.322780 0.068496
C16 C 0.5192(4) 0.2582(3) 0.2860(2)
C17 C 0.9502(4) 0.4361(4) 0.3112(2)
H8 H 0.947084 0.365568 0.286432
C18 C 0.8068(4) 0.2408(4) 0.1141(2)
H9 H 0.823585 0.258584 0.077883
C19 C 0.8091(5) 0.5890(4) 0.1103(2)
C20 C 0.4577(4) 0.2669(3) 0.22229(19)
C22 C 0.5397(4) 0.1881(4) 0.3795(2)
C23 C 0.5539(4) 0.8301(4) 0.4246(2)
C24 C 0.7461(4) 0.1914(3) 0.2176(2)
H10 H 0.722574 0.173501 0.252288
C25 C 0.3533(4) 0.1954(4) 0.1826(2)
H11 H 0.319133 0.135303 0.195279
C26 C 0.4716(4) 0.1891(4) 0.3191(2)
H12 H 0.394612 0.143624 0.300826
C27 C 0.7627(5) 0.6524(4) 0.1563(2)
H13 H 0.762666 0.727905 0.158984
C28 C 0.1919(5) 0.1338(4) 0.0782(2)
C29 C 0.5094(4) 0.5617(4) 0.3021(2)
H14 H 0.443075 0.511669 0.273660
C30 C 0.7016(4) 0.7053(4) 0.3877(2)
H15 H 0.768464 0.753077 0.417252
C31 C 0.8084(5) 0.4785(4) 0.1080(2)
H16 H 0.837102 0.433974 0.076966
C32 C 0.7888(4) 0.1122(4) 0.1784(2)
H17 H 0.795991 0.042752 0.187097
C33 C 0.8669(6) 0.6397(4) 0.0651(3)
C36 C 0.8467(4) 0.5786(3) 0.3492(2)
O26 O 0.5541(3) 0.1473(3) 0.59020(15)
O30 O 0.8044(3) 0.2309(3) 0.55861(17)
H20 H 0.0645012 0.337079 0.0495812
H21 H 0.733646 0.132919 0.685221
H22 H 0.855554 0.0740357 0.67743
H27 H 0.901755 0.0083004 0.480551
H28 H 0.781805 0.0228791 0.426579
Gd7 Gd 0.95763(2) 0.13079(2) 0.94813(2)
O25 O 0.0935(3) 0.0282(2) 0.89800(16)
O32 O 0.0936(4) 0.2598(3) 0.91786(17)
O7 O 0.9065(3) 0.9718(2) 0.10200(16)
O23 O 0.8786(5) 0.9588(5) 0.5786(3)
O28 O 0.6253(3) 0.9270(3) 0.60324(16)
H29 H 0.865069 0.919868 0.611819
H30 H 0.887166 0.904021 0.541157
O13 O 0.9752(7) 0.3117(5) 0.0258(3)
H19 H 0.923977 0.301794 0.0560555
O8 O 0.7425(5) 0.1662(5) 0.9309(3)
O17 O 0.8792(4) 0.1239(4) 0.83498(18)
H23 H 0.736055 0.237207 0.917439
H24 H 0.68715 0.104848 0.897231
H25 H 0.85376 0.196458 0.829623
H26 H 0.946467 0.107783 0.813134
O29 O 0.8384(3) 0.9528(3) 0.90561(15)
O8_2 O 0.2575(5) 0.8338(5) 0.0691(3)
O17_2 O 0.1208(4) 0.8761(4) 0.16502(18)
H23_2 H 0.263945 0.762793 0.0825607
H24_2 H 0.31285 0.895152 0.102769
H25_2 H 0.14624 0.803542 0.170377
H26_2 H 0.0535334 0.892217 0.186866
O13_2 O 0.0248(7) 0.6883(5) 0.9742(3)
O27 O 0.1008(3) 0.9162(3) 0.96457(15)
H19_2 H 0.0760226 0.698206 0.943944
O23_2 O 0.1214(5) 0.0412(5) 0.4214(3)
O31 O 0.3558(3) 0.1180(3) 0.53052(16)
H29_2 H 0.134931 0.0801322 0.388181
H30_2 H 0.112834 0.0959785 0.458843
Co1_2 Co 0.32264(5) 0.58534(4) 0.74275(2)
O9_2 O 0.2002(5) 0.8741(4) 0.33825(19)
O14_2 O 0.4374(3) 0.9057(3) 0.53778(15)
O19_2 O 0.1657(5) 0.9459(4) 0.5294(2)
O20_2 O 0.8560(3) 0.8380(3) 0.97177(15)
O21_2 O 0.1333(6) 0.4247(4) 0.9863(2)
N3_2 N 0.1573(3) 0.5228(3) 0.68789(16)
N4_2 N 0.2803(3) 0.5048(3) 0.80283(17)
N5_2 N 0.3694(3) 0.6739(3) 0.68785(15)
N6_2 N 0.4883(3) 0.6482(3) 0.79665(16)
N7_2 N 0.2630(3) 0.7065(3) 0.79208(16)
N8_2 N 0.3728(3) 0.4600(3) 0.69379(16)
C1_2 C 0.1209(4) 0.9432(3) 0.9158(2)
C2_2 C 0.3481(5) 0.7425(4) 0.5945(2)
H1_2 H 0.301257 0.741808 0.553802
C3_2 C 0.2353(4) 0.5666(4) 0.8475(2)
C4_2 C 0.1787(4) 0.8626(3) 0.8746(2)
C5_2 C 0.5113(5) 0.8882(4) 0.5846(2)
C6_2 C 0.2763(4) 0.3884(3) 0.65093(19)
C7_2 C 0.2831(4) 0.3975(3) 0.8022(2)
H2_2 H 0.317310 0.355173 0.772674
C8_2 C 0.4193(4) 0.2720(3) 0.6173(2)
C9_2 C 0.5167(4) 0.3447(4) 0.6616(2)
H3_2 H 0.599039 0.330382 0.666692
C10_2 C 0.6995(4) 0.7851(4) 0.8765(2)
C11_2 C 0.0400(4) 0.3575(4) 0.6160(2)
H4_2 H 0.038324 0.286914 0.591694
C12_2 C 0.5425(4) 0.6280(4) 0.8531(2)
H5_2 H 0.507163 0.567808 0.865323
C13_2 C 0.2324(4) 0.6827(3) 0.8439(2)
C14_2 C 0.3050(4) 0.6734(4) 0.6290(2)
H6_2 H 0.229558 0.625686 0.610879
C15_2 C 0.6486(4) 0.6940(4) 0.8932(2)
H7_2 H 0.685921 0.677220 0.931504
C16_2 C 0.4808(4) 0.7418(3) 0.7140(2)
C17_2 C 0.0498(4) 0.5639(4) 0.6888(2)
H8_2 H 0.052916 0.634432 0.713568
C18_2 C 0.1932(4) 0.7592(4) 0.8859(2)
H9_2 H 0.176415 0.741416 0.922117
C19_2 C 0.1909(5) 0.4110(4) 0.8897(2)
C20_2 C 0.5423(4) 0.7331(3) 0.77771(19)
C22_2 C 0.4603(4) 0.8119(4) 0.6205(2)
C23_2 C 0.4461(4) 0.1699(4) 0.5754(2)
C24_2 C 0.2539(4) 0.8086(3) 0.7824(2)
H10_2 H 0.277426 0.826499 0.747712
C25_2 C 0.6467(4) 0.8046(4) 0.8174(2)
H11_2 H 0.680867 0.864697 0.804721
C26_2 C 0.5284(4) 0.8109(4) 0.6809(2)
H12_2 H 0.605388 0.856376 0.699174
C27_2 C 0.2373(5) 0.3476(4) 0.8437(2)
H13_2 H 0.237334 0.272095 0.841016
C28_2 C 0.8081(5) 0.8662(4) 0.9218(2)
C29_2 C 0.4906(4) 0.4383(4) 0.6979(2)
H14_2 H 0.556925 0.488331 0.726340
C30_2 C 0.2984(4) 0.2947(4) 0.6123(2)
H15_2 H 0.231536 0.246923 0.582748
C31_2 C 0.1916(5) 0.5215(4) 0.8920(2)
H16_2 H 0.162898 0.566026 0.923034
C32_2 C 0.2112(4) 0.8878(4) 0.8216(2)
H17_2 H 0.204009 0.957248 0.812903
C33_2 C 0.1331(6) 0.3603(4) 0.9349(3)
C36_2 C 0.1533(4) 0.4214(3) 0.6508(2)
H20_2 H 0.935499 0.662921 0.950419
H21_2 H 0.266354 0.867081 0.314779
H22_2 H 0.144446 0.925964 0.32257
H27_2 H 0.0982451 0.9917 0.519449
H28_2 H 0.218195 0.977121 0.573421
O11_2 O 0.7096(3) 0.3797(3) 0.5733(2)
C21_2 C 0.8024(4) 0.3321(4) 0.5805(2)
C34_2 C 0.9283(4) 0.3999(4) 0.6178(2)
C35_2 C 0.9349(4) 0.5045(4) 0.6539(2)
H18_2 H 0.861777 0.535324 0.654771
loop_
_geom_bond_atom_site_label_1
_geom_bond_atom_site_label_2
_geom_bond_site_symmetry_1
_geom_bond_site_symmetry_2
N1 O1 1_555 1_555
O2 N1 1_555 1_555
O3 N1 1_555 1_555
N1_2 O1_2 1_555 1_555
O2_2 N1_2 1_555 1_555
O3_2 N1_2 1_555 1_555
O4 N2 1_555 1_555
O5 N2 1_555 1_555
N2 O6 1_555 1_555
O4_2 N2_2 1_555 1_555
O5_2 N2_2 1_555 1_555
N2_2 O6_2 1_555 1_555
O11 C21 1_555 1_555
O18 C21 1_555 1_555
C21 C34 1_555 1_555
H18 C35 1_555 1_555
Gd6 O18 1_555 1_555
C34 C35 1_555 1_555
Gd3 O9 1_555 1_555
Co1 N3 1_555 1_555
O10 C23 1_555 1_555
O12 C1 1_555 1_555
O14 Gd3 1_555 1_555
O15 C5 1_555 1_555
O16 C28 1_555 1_555
O19 Gd3 1_555 1_555
O21 C33 1_555 1_555
O22 C23 1_555 1_555
O24 C33 1_555 1_555
N3 C17 1_555 1_555
N4 Co1 1_555 1_555
N5 Co1 1_555 1_555
N6 Co1 1_555 1_555
N7 Co1 1_555 1_555
N8 Co1 1_555 1_555
C1 C4 1_555 1_555
C2 H1 1_555 1_555
C3 N4 1_555 1_555
C4 C18 1_555 1_555
C5 O14 1_555 1_555
C6 N8 1_555 1_555
C7 N4 1_555 1_555
H2 C7 1_555 1_555
C8 C9 1_555 1_555
C9 H3 1_555 1_555
C10 C15 1_555 1_555
C11 H4 1_555 1_555
C12 N6 1_555 1_555
H5 C12 1_555 1_555
C13 N7 1_555 1_555
C14 N5 1_555 1_555
H6 C14 1_555 1_555
C15 C12 1_555 1_555
H7 C15 1_555 1_555
C16 N5 1_555 1_555
C17 H8 1_555 1_555
C18 C13 1_555 1_555
H9 C18 1_555 1_555
C19 C27 1_555 1_555
C20 N6 1_555 1_555
C22 C2 1_555 1_555
C23 C8 1_555 1_555
C24 N7 1_555 1_555
H10 C24 1_555 1_555
C25 C10 1_555 1_555
H11 C25 1_555 1_555
C26 C16 1_555 1_555
H12 C26 1_555 1_555
C27 C7 1_555 1_555
H13 C27 1_555 1_555
C28 O20 1_555 1_555
C29 N8 1_555 1_555
H14 C29 1_555 1_555
C30 C6 1_555 1_555
H15 C30 1_555 1_555
C31 C3 1_555 1_555
H16 C31 1_555 1_555
C32 C4 1_555 1_555
H17 C32 1_555 1_555
C33 C19 1_555 1_555
C36 N3 1_555 1_555
Gd6 O10 1_555 1_555
O26 Gd3 1_555 1_555
O30 Gd3 1_555 1_555
C2 C14 1_555 1_555
C3 C13 1_555 1_555
C5 C22 1_555 1_555
C6 C36 1_555 1_555
C8 C30 1_555 1_555
C9 C29 1_555 1_555
C10 C28 1_555 1_555
C11 C36 1_555 1_555
C16 C20 1_555 1_555
C19 C31 1_555 1_555
C20 C25 1_555 1_555
C22 C26 1_555 1_555
C24 C32 1_555 1_555
O9 H21 1_555 1_555
O9 H22 1_555 1_555
O19 H27 1_555 1_555
O19 H28 1_555 1_555
O23 H29 1_555 1_555
O23 H30 1_555 1_555
O13 H19 1_555 1_555
Gd7 O8 1_555 1_555
O17 Gd7 1_555 1_555
O8 H23 1_555 1_555
O8 H24 1_555 1_555
O17 H25 1_555 1_555
O17 H26 1_555 1_555
Gd10 O8_2 1_555 1_555
O17_2 Gd10 1_555 1_555
O8_2 H23_2 1_555 1_555
O8_2 H24_2 1_555 1_555
O17_2 H25_2 1_555 1_555
O17_2 H26_2 1_555 1_555
O13_2 H19_2 1_555 1_555
O23_2 H29_2 1_555 1_555
O23_2 H30_2 1_555 1_555
Gd6 O9_2 1_555 1_555
Co1_2 N3_2 1_555 1_555
O26 C23_2 1_555 1_555
O27 C1_2 1_555 1_555
O14_2 Gd6 1_555 1_555
O28 C5_2 1_555 1_555
O29 C28_2 1_555 1_555
O19_2 Gd6 1_555 1_555
O21_2 C33_2 1_555 1_555
O31 C23_2 1_555 1_555
O32 C33_2 1_555 1_555
N3_2 C17_2 1_555 1_555
N4_2 Co1_2 1_555 1_555
N5_2 Co1_2 1_555 1_555
N6_2 Co1_2 1_555 1_555
N7_2 Co1_2 1_555 1_555
N8_2 Co1_2 1_555 1_555
C1_2 C4_2 1_555 1_555
C2_2 H1_2 1_555 1_555
C3_2 N4_2 1_555 1_555
C4_2 C18_2 1_555 1_555
C5_2 O14_2 1_555 1_555
C6_2 N8_2 1_555 1_555
C7_2 N4_2 1_555 1_555
H2_2 C7_2 1_555 1_555
C8_2 C9_2 1_555 1_555
C9_2 H3_2 1_555 1_555
C10_2 C15_2 1_555 1_555
C11_2 H4_2 1_555 1_555
C12_2 N6_2 1_555 1_555
H5_2 C12_2 1_555 1_555
C13_2 N7_2 1_555 1_555
C14_2 N5_2 1_555 1_555
H6_2 C14_2 1_555 1_555
C15_2 C12_2 1_555 1_555
H7_2 C15_2 1_555 1_555
C16_2 N5_2 1_555 1_555
C17_2 H8_2 1_555 1_555
C18_2 C13_2 1_555 1_555
H9_2 C18_2 1_555 1_555
C19_2 C27_2 1_555 1_555
C20_2 N6_2 1_555 1_555
C22_2 C2_2 1_555 1_555
C23_2 C8_2 1_555 1_555
C24_2 N7_2 1_555 1_555
H10_2 C24_2 1_555 1_555
C25_2 C10_2 1_555 1_555
H11_2 C25_2 1_555 1_555
C26_2 C16_2 1_555 1_555
H12_2 C26_2 1_555 1_555
C27_2 C7_2 1_555 1_555
H13_2 C27_2 1_555 1_555
C28_2 O20_2 1_555 1_555
C29_2 N8_2 1_555 1_555
H14_2 C29_2 1_555 1_555
C30_2 C6_2 1_555 1_555
H15_2 C30_2 1_555 1_555
C31_2 C3_2 1_555 1_555
H16_2 C31_2 1_555 1_555
C32_2 C4_2 1_555 1_555
H17_2 C32_2 1_555 1_555
C33_2 C19_2 1_555 1_555
C36_2 N3_2 1_555 1_555
C2_2 C14_2 1_555 1_555
C3_2 C13_2 1_555 1_555
C5_2 C22_2 1_555 1_555
C6_2 C36_2 1_555 1_555
C8_2 C30_2 1_555 1_555
C9_2 C29_2 1_555 1_555
C10_2 C28_2 1_555 1_555
C11_2 C36_2 1_555 1_555
C16_2 C20_2 1_555 1_555
C19_2 C31_2 1_555 1_555
C20_2 C25_2 1_555 1_555
C22_2 C26_2 1_555 1_555
C24_2 C32_2 1_555 1_555
O9_2 H21_2 1_555 1_555
O9_2 H22_2 1_555 1_555
O19_2 H27_2 1_555 1_555
O19_2 H28_2 1_555 1_555
O11_2 C21_2 1_555 1_555
O30 C21_2 1_555 1_555
C21_2 C34_2 1_555 1_555
H18_2 C35_2 1_555 1_555
C34_2 C35_2 1_555 1_555

#END
