
###############################################################################
#
# This file contains modified crystal structure data generated from the
# MOF subset of the Cambridge Structural Database (CSD) v543 
# hosted by the Cambridge Crystallographic Data Centre (CCDC).
#
# This work is licensed under the Creative Commons
# Attribution-NonCommercial-ShareAlike 4.0 International License.
# To view a copy of this license, visit
# http://creativecommons.org/licenses/by-nc-sa/4.0/
# or send a letter to
# Creative Commons, PO Box 1866, Mountain View, CA 94042, USA.
#
# CIF created using the CSD Python API on 29 September 2022
# The structure has been converted into the P1 space group
# The structure has a 3D framework
# The original CSD entry IDAGUR is in the monoclinic crystal system
# The framework has been calculated to contain at least 10.0% void space
# The void calculation uses a probe of radius 1.32A, grid spacing 0.4
# H atom positions have been added when not included in the experimental data
# Generated hydrogen atom positions removed from atoms on special positions
#
###############################################################################

data_IDAGUR
_chemical_formula_moiety         '(C36 H28 Mn8 N24 O4)n'
_symmetry_cell_setting           triclinic
_symmetry_space_group_name_H-M   'P 1'
_symmetry_Int_Tables_number      1
_space_group_name_Hall           'P 1'
loop_
_symmetry_equiv_pos_site_id
_symmetry_equiv_pos_as_xyz
1 x,y,z
_cell_length_a                   7.3620(15)
_cell_length_b                   18.015(4)
_cell_length_c                   13.908(3)
_cell_angle_alpha                90
_cell_angle_beta                 90.52(3)
_cell_angle_gamma                90
_cell_volume                     1844.49
loop_
_atom_site_label
_atom_site_type_symbol
_atom_site_fract_x
_atom_site_fract_y
_atom_site_fract_z
N6 N 0.0973(8) 0.2955(4) 0.1956(4)
C4 C 0.2022(8) 0.2626(4) 0.2399(4)
Mn4 Mn 0.89897(11) 0.31409(5) 0.08000(6)
Mn9 Mn 0.39429(12) 0.20829(5) 0.31249(6)
Mn2 Mn 0.39429(12) 0.29171(5) 0.81249(6)
N1 N 0.3782(8) 0.3659(4) 0.7610(4)
N5 N 0.1228(8) 0.3324(3) 0.9763(4)
C1 C 0.2204(8) 0.3169(4) 0.9157(4)
Mn5 Mn 0.89897(11) 0.18591(5) 0.58000(6)
N9 N 0.6749(8) 0.2184(4) 0.6748(4)
N11 N 0.7048(8) 0.3306(3) 0.9582(4)
N14 N 0.0973(8) 0.2045(4) 0.6956(4)
C12 C 0.5937(8) 0.3171(3) 0.9027(4)
C13 C 0.5741(9) 0.2457(4) 0.7253(4)
C15 C 0.2022(8) 0.2374(4) 0.7399(4)
N12 N 0.2952(8) 0.6694(3) 0.0418(4)
C18 C 0.0672(10) 0.8346(4) 0.0454(5)
H6 H 0.0802 0.8018 0.0966
C20 C 0.0352(10) 0.9088(4) 0.0652(5)
H8 H 0.0252 0.9243 0.1287
Mn3 Mn 0.10103(11) 0.68591(5) 0.92000(6)
N8 N 0.0803(8) 0.8079(3) 0.9558(5)
N10 N 0.3251(8) 0.7184(4) 0.8252(4)
C17 C 0.0692(11) 0.8589(4) 0.8849(5)
H5 H 0.0845 0.8423 0.8222
C19 C 0.0376(11) 0.9322(4) 0.8976(5)
H7 H 0.0291 0.9638 0.8448
C21 C 0.0178(9) 0.9604(3) 0.9910(5)
O2 O 0.1375(10) 0.5661(4) 0.8854(8)
N2 N 0.9197(8) 0.1921(3) 0.0442(5)
N3 N 0.6749(8) 0.2816(4) 0.1748(4)
C3 C 0.5741(9) 0.2543(4) 0.2253(4)
C5 C 0.9308(11) 0.1411(4) 0.1151(5)
H1 H 0.9155 0.1577 0.1778
C7 C 0.9624(11) 0.0678(4) 0.1024(5)
H3 H 0.9709 0.0362 0.1552
C9 C 0.9822(9) 0.0396(3) 0.0090(5)
O1 O 0.8625(10) 0.4339(4) 0.1146(8)
C6 C 0.9328(10) 0.1654(4) 0.9546(5)
H2 H 0.9198 0.1982 0.9034
C8 C 0.9648(10) 0.0912(4) 0.9348(5)
H4 H 0.9748 0.0757 0.8713
Mn10 Mn 0.60571(12) 0.70829(5) 0.18751(6)
N13 N 0.8772(8) 0.6676(3) 0.0237(4)
C10 C 0.7796(8) 0.6831(4) 0.0843(4)
N15 N 0.9027(8) 0.7045(4) 0.8044(4)
Mn1 Mn 0.10103(11) 0.81409(5) 0.42000(6)
N2_2 N 0.0803(8) 0.6921(3) 0.4558(5)
N3_2 N 0.3251(8) 0.7816(4) 0.3252(4)
N4 N 0.2952(8) 0.8306(3) 0.5418(4)
C2 C 0.4063(8) 0.8171(3) 0.5973(4)
C3_2 C 0.4259(9) 0.7543(4) 0.2747(4)
C5_2 C 0.0692(11) 0.6411(4) 0.3849(5)
H1_2 H 0.0845 0.6577 0.3222
C6_2 C 0.0672(10) 0.6654(4) 0.5454(5)
H2_2 H 0.0802 0.6982 0.5966
C7_2 C 0.0376(11) 0.5678(4) 0.3976(5)
H3_2 H 0.0291 0.5362 0.3448
C8_2 C 0.0352(10) 0.5912(4) 0.5652(5)
H4_2 H 0.0252 0.5757 0.6287
C9_2 C 0.0178(9) 0.5396(3) 0.4910(5)
O1_2 O 0.1375(10) 0.9339(4) 0.3854(8)
Mn7 Mn 0.60571(12) 0.79171(5) 0.68751(6)
N7 N 0.6218(8) 0.8659(4) 0.7390(4)
N13_2 N 0.1228(8) 0.1676(3) 0.4763(4)
C10_2 C 0.2204(8) 0.1831(4) 0.4157(4)
C11 C 0.7796(8) 0.8169(4) 0.5843(4)
C14 C 0.4259(9) 0.7457(4) 0.7747(4)
C16 C 0.7978(8) 0.7374(4) 0.7601(4)
N5_2 N 0.8772(8) 0.8324(3) 0.5237(4)
N6_2 N 0.9027(8) 0.7955(4) 0.3044(4)
C4_2 C 0.7978(8) 0.7626(4) 0.2601(4)
N8_2 N 0.9197(8) 0.3079(3) 0.5442(5)
N12_2 N 0.7048(8) 0.1694(3) 0.4582(4)
C17_2 C 0.9308(11) 0.3589(4) 0.6151(5)
H5_2 H 0.9155 0.3423 0.6778
C18_2 C 0.9328(10) 0.3346(4) 0.4546(5)
H6_2 H 0.9198 0.3018 0.4034
C19_2 C 0.9624(11) 0.4322(4) 0.6024(5)
H7_2 H 0.9709 0.4638 0.6552
C20_2 C 0.9648(10) 0.4088(4) 0.4348(5)
H8_2 H 0.9748 0.4243 0.3713
C21_2 C 0.9822(9) 0.4604(3) 0.5090(5)
O2_2 O 0.8625(10) 0.0661(4) 0.6146(8)
C2_2 C 0.4063(8) 0.6829(3) 0.0973(4)
N7_2 N 0.6218(8) 0.6341(4) 0.2390(4)
N1_2 N 0.3782(8) 0.1341(4) 0.2610(4)
C12_2 C 0.5937(8) 0.1829(3) 0.4027(4)
loop_
_geom_bond_atom_site_label_1
_geom_bond_atom_site_label_2
_geom_bond_site_symmetry_1
_geom_bond_site_symmetry_2
C4 N6 1_555 1_555
Mn9 C4 1_555 1_555
Mn2 N1 1_555 1_555
C1 Mn2 1_555 1_555
Mn5 N9 1_555 1_555
N9 C13 1_555 1_555
N11 C12 1_555 1_555
N14 C15 1_555 1_555
C12 Mn2 1_555 1_555
C13 Mn2 1_555 1_555
C15 Mn2 1_555 1_555
N5 C1 1_555 1_555
H6 C18 1_555 1_555
C20 C18 1_555 1_555
H8 C20 1_555 1_555
Mn3 N8 1_555 1_555
N8 C17 1_555 1_555
N10 Mn3 1_555 1_555
C17 H5 1_555 1_555
C19 C17 1_555 1_555
H7 C19 1_555 1_555
O2 Mn3 1_555 1_555
C19 C21 1_555 1_555
Mn4 N2 1_555 1_555
N2 C5 1_555 1_555
N3 Mn4 1_555 1_555
C3 N3 1_555 1_555
C5 H1 1_555 1_555
C7 C5 1_555 1_555
H3 C7 1_555 1_555
C9 C7 1_555 1_555
O1 Mn4 1_555 1_555
Mn9 C3 1_555 1_555
H2 C6 1_555 1_555
C8 C6 1_555 1_555
H4 C8 1_555 1_555
Mn10 C10 1_555 1_555
C10 N13 1_555 1_555
Mn1 N2_2 1_555 1_555
N2_2 C5_2 1_555 1_555
N3_2 Mn1 1_555 1_555
N4 Mn1 1_555 1_555
C2 N4 1_555 1_555
C3_2 N3_2 1_555 1_555
C5_2 H1_2 1_555 1_555
C6_2 N2_2 1_555 1_555
H2_2 C6_2 1_555 1_555
C7_2 C5_2 1_555 1_555
H3_2 C7_2 1_555 1_555
C8_2 C6_2 1_555 1_555
H4_2 C8_2 1_555 1_555
C9_2 C7_2 1_555 1_555
O1_2 Mn1 1_555 1_555
Mn7 C2 1_555 1_555
Mn10 C3_2 1_555 1_555
Mn9 C10_2 1_555 1_555
N7 Mn7 1_555 1_555
C10_2 N13_2 1_555 1_555
C11 Mn7 1_555 1_555
C14 Mn7 1_555 1_555
C16 Mn7 1_555 1_555
C8_2 C9_2 1_555 1_555
C4_2 N6_2 1_555 1_555
Mn5 N8_2 1_555 1_555
Mn10 C4_2 1_555 1_555
N8_2 C17_2 1_555 1_555
N10 C14 1_555 1_555
N12_2 Mn5 1_555 1_555
N15 C16 1_555 1_555
C17_2 H5_2 1_555 1_555
C18_2 N8_2 1_555 1_555
H6_2 C18_2 1_555 1_555
C19_2 C17_2 1_555 1_555
H7_2 C19_2 1_555 1_555
C20_2 C18_2 1_555 1_555
H8_2 C20_2 1_555 1_555
O2_2 Mn5 1_555 1_555
N5_2 C11 1_555 1_555
C19_2 C21_2 1_555 1_555
C20_2 C21_2 1_555 1_555
C2_2 N12 1_555 1_555
Mn10 C2_2 1_555 1_555
N7_2 Mn10 1_555 1_555
Mn9 N1_2 1_555 1_555
N12_2 C12_2 1_555 1_555
C12_2 Mn9 1_555 1_555

#END
