
###############################################################################
#
# This file contains modified crystal structure data generated from the
# MOF subset of the Cambridge Structural Database (CSD) v543 
# hosted by the Cambridge Crystallographic Data Centre (CCDC).
#
# This work is licensed under the Creative Commons
# Attribution-NonCommercial-ShareAlike 4.0 International License.
# To view a copy of this license, visit
# http://creativecommons.org/licenses/by-nc-sa/4.0/
# or send a letter to
# Creative Commons, PO Box 1866, Mountain View, CA 94042, USA.
#
# CIF created using the CSD Python API on 29 September 2022
# The structure has been converted into the P1 space group
# The structure has a 3D framework
# The original CSD entry IDAZAQ is in the monoclinic crystal system
# The framework has been calculated to contain at least 10.0% void space
# The void calculation uses a probe of radius 1.32A, grid spacing 0.4
#
###############################################################################

data_IDAZAQ
_chemical_formula_moiety         '(C48 H56 Nd8 O58)n'
_symmetry_cell_setting           triclinic
_symmetry_space_group_name_H-M   'P 1'
_symmetry_Int_Tables_number      1
_space_group_name_Hall           'P 1'
loop_
_symmetry_equiv_pos_site_id
_symmetry_equiv_pos_as_xyz
1 x,y,z
_cell_length_a                   9.5810(9)
_cell_length_b                   14.8675(15)
_cell_length_c                   14.9056(14)
_cell_angle_alpha                90
_cell_angle_beta                 91.538(5)
_cell_angle_gamma                90
_cell_volume                     2122.47
loop_
_atom_site_label
_atom_site_type_symbol
_atom_site_fract_x
_atom_site_fract_y
_atom_site_fract_z
O19 O 0.0390(3) 0.8180(2) 0.3136(2)
O20 O 0.0605(3) 0.8974(2) 0.4368(2)
Nd1 Nd 0.02953(3) 0.663992(15) 0.246217(16)
Nd2 Nd 0.80991(2) 0.846420(15) 0.405800(16)
O1 O 0.5842(3) 0.7709(2) 0.4569(2)
C1 C 0.2687(5) 0.8568(3) 0.3655(3)
H1 H 0.3058 0.8783 0.3127
O2 O 0.5619(3) 0.8871(2) 0.3665(2)
C2 C 0.5090(5) 0.8282(3) 0.4166(3)
C3 C 0.3555(5) 0.8281(4) 0.4280(4)
H2 H 0.3202 0.8068 0.4815
O5 O 0.0906(4) 0.6561(2) 0.4082(2)
C5 C 0.0122(6) 0.6644(3) 0.4739(3)
O7 O 0.0189(4) 0.7802(2) 0.1277(2)
H3 H 0.0470 0.7594 0.0782
H4 H 0.0621 0.8282 0.1422
C7 C 0.1155(5) 0.8573(3) 0.3732(3)
C9 C 0.0375(5) 0.6029(3) 0.5517(3)
H7 H 0.1223 0.5725 0.5560
O11 O 0.8092(4) 0.9288(3) 0.2613(2)
H9 H 0.8857 0.9226 0.2344
H10 H 0.7472 0.9489 0.2284
O12 O 0.0338(3) 0.5710(2) 0.1065(2)
H11 H 0.0155 0.5158 0.1155
H12 H 0.1004 0.5787 0.0861
O13 O 0.0774(4) 0.4770(2) 0.6945(2)
O17 O 0.7836(3) 0.7226(2) 0.2985(2)
O18 O 0.9116(4) 0.7183(2) 0.4785(2)
O22 O 0.1492(4) 0.5135(2) 0.2852(2)
O23 O 0.2692(3) 0.6793(2) 0.2068(2)
O24 O 0.7955(3) 0.8735(2) 0.5686(2)
O4 O 0.7899(3) 0.6470(2) 0.1732(2)
C4 C 0.7199(5) 0.6861(3) 0.2319(3)
C6 C 0.4972(5) 0.6643(3) 0.1528(3)
H5 H 0.5490 0.6512 0.1025
C8 C 0.5665(5) 0.6870(3) 0.2248(3)
H6 H 0.5169 0.7049 0.2745
C10 C 0.9469(6) 0.5895(3) 0.6139(3)
H8 H 0.8705 0.6280 0.6170
C11 C 0.9609(6) 0.5154(3) 0.6799(3)
O14 O 0.8508(4) 0.4865(2) 0.7148(2)
C12 C 0.3435(5) 0.6570(3) 0.1423(3)
O16 O 0.2955(3) 0.6265(2) 0.0686(2)
Nd3 Nd 0.97047(3) 0.336008(15) 0.753783(16)
O21 O 0.9226(4) 0.5230(2) 0.3055(2)
Nd6 Nd 0.30991(2) 0.653580(15) 0.905800(16)
C6_2 C 0.0028(5) 0.1643(3) 0.3472(3)
C12_2 C 0.1565(5) 0.1570(3) 0.3577(3)
O15 O 0.2308(3) 0.1793(2) 0.2932(2)
O16_2 O 0.2045(3) 0.1265(2) 0.4314(2)
Nd4 Nd 0.47047(3) 0.163992(15) 0.253783(16)
Nd6_2 Nd 0.19009(2) 0.153580(15) 0.594200(16)
C1_2 C 0.2313(5) 0.3568(3) 0.1345(3)
H1_2 H 0.1942 0.3783 0.1873
C3_2 C 0.1445(5) 0.3281(4) 0.0720(4)
H2_2 H 0.1798 0.3068 0.0185
O3 O 0.7164(3) 0.2226(2) 0.2015(2)
O4_2 O 0.7101(3) 0.1470(2) 0.3268(2)
C4_2 C 0.7801(5) 0.1861(3) 0.2681(3)
O5_2 O 0.4094(4) 0.1561(2) 0.0918(2)
C5_2 C 0.4878(6) 0.1644(3) 0.0261(3)
O6 O 0.5884(4) 0.2183(2) 0.0215(2)
O7_2 O 0.4811(4) 0.2802(2) 0.3723(2)
H3_2 H 0.4530 0.2594 0.4218
H4_2 H 0.4379 0.3282 0.3578
H5_2 H 0.9510 0.1512 0.3975
C7_2 C 0.3845(5) 0.3573(3) 0.1268(3)
C8_2 C 0.9335(5) 0.1870(3) 0.2752(3)
H6_2 H 0.9831 0.2049 0.2255
O8 O 0.4610(3) 0.3180(2) 0.1864(2)
O9 O 0.4395(3) 0.3974(2) 0.0632(2)
O12_2 O 0.4662(3) 0.0710(2) 0.3935(2)
H11_2 H 0.4845 0.0158 0.3845
H12_2 H 0.3996 0.0787 0.4139
Nd5 Nd 0.69009(2) 0.346420(15) 0.094200(16)
O21_2 O 0.5774(4) 0.0230(2) 0.1945(2)
O22_2 O 0.3508(4) 0.0135(2) 0.2148(2)
O13_2 O 0.4226(4) 0.9770(2) 0.8055(2)
O14_2 O 0.6492(4) 0.9865(2) 0.7852(2)
Nd3_2 Nd 0.52953(3) 0.836008(15) 0.746217(16)
O1_2 O 0.9158(3) 0.2709(2) 0.0431(2)
O2_2 O 0.9381(3) 0.3871(2) 0.1335(2)
C2_2 C 0.9910(5) 0.3282(3) 0.0834(3)
O10 O 0.7182(4) 0.5060(2) 0.0589(3)
O11_2 O 0.6908(4) 0.4288(3) 0.2387(2)
H9_2 H 0.6143 0.4226 0.2656
H10_2 H 0.7528 0.4489 0.2716
H13 H 0.667(6) 0.532(4) 0.018(4)
H14 H 0.724(6) 0.544(4) 0.092(4)
O24_2 O 0.7045(3) 0.3735(2) 0.9314(2)
O3_2 O 0.2164(3) 0.2774(2) 0.7015(2)
O4_3 O 0.2101(3) 0.3530(2) 0.8268(2)
C4_3 C 0.2801(5) 0.3139(3) 0.7681(3)
O6_2 O 0.0884(4) 0.2817(2) 0.5215(2)
C6_3 C 0.5028(5) 0.3357(3) 0.8472(3)
H5_3 H 0.4510 0.3488 0.8975
C8_3 C 0.4335(5) 0.3130(3) 0.7752(3)
H6_3 H 0.4831 0.2951 0.7255
C10_2 C 0.0531(6) 0.4105(3) 0.3861(3)
H8_2 H 0.1295 0.3720 0.3830
C11_2 C 0.0391(6) 0.4846(3) 0.3201(3)
C12_3 C 0.6565(5) 0.3430(3) 0.8577(3)
O15_2 O 0.7308(3) 0.3207(2) 0.7932(2)
O1_3 O 0.4158(3) 0.2291(2) 0.5431(2)
C1_3 C 0.7313(5) 0.1432(3) 0.6345(3)
H1_3 H 0.6942 0.1217 0.6873
O2_3 O 0.4381(3) 0.1129(2) 0.6335(2)
C2_3 C 0.4910(5) 0.1718(3) 0.5834(3)
C3_3 C 0.6445(5) 0.1719(4) 0.5720(4)
H2_3 H 0.6798 0.1932 0.5185
O5_3 O 0.9094(4) 0.3439(2) 0.5918(2)
C5_3 C 0.9878(6) 0.3356(3) 0.5261(3)
O7_3 O 0.9811(4) 0.2198(2) 0.8723(2)
H3_3 H 0.9530 0.2406 0.9218
H4_3 H 0.9379 0.1718 0.8578
C7_3 C 0.8845(5) 0.1427(3) 0.6268(3)
C9_2 C 0.9625(5) 0.3971(3) 0.4483(3)
H7_2 H 0.8777 0.4275 0.4440
O8_2 O 0.9610(3) 0.1820(2) 0.6864(2)
O9_2 O 0.9395(3) 0.1026(2) 0.5632(2)
O11_3 O 0.1908(4) 0.0712(3) 0.7387(2)
H9_3 H 0.1143 0.0774 0.7656
H10_3 H 0.2528 0.0511 0.7716
O12_3 O 0.9662(3) 0.4290(2) 0.8935(2)
H11_3 H 0.9845 0.4842 0.8845
H12_3 H 0.8996 0.4213 0.9139
O1_4 O 0.0842(3) 0.7291(2) 0.9569(2)
O2_4 O 0.0619(3) 0.6129(2) 0.8665(2)
C2_4 C 0.0090(5) 0.6718(3) 0.9166(3)
O10_2 O 0.2818(4) 0.4940(2) 0.9411(3)
O11_4 O 0.3092(4) 0.5712(3) 0.7613(2)
H9_4 H 0.3857 0.5774 0.7344
H10_4 H 0.2472 0.5511 0.7284
H13_2 H 0.333(6) 0.468(4) 0.982(4)
H14_2 H 0.276(6) 0.456(4) 0.908(4)
O17_2 O 0.2836(3) 0.7774(2) 0.7985(2)
O18_2 O 0.4116(4) 0.7817(2) 0.9785(2)
O19_2 O 0.5390(3) 0.6820(2) 0.8136(2)
O20_2 O 0.5605(3) 0.6026(2) 0.9368(2)
C1_4 C 0.7687(5) 0.6432(3) 0.8655(3)
H1_4 H 0.8058 0.6217 0.8127
C3_4 C 0.8555(5) 0.6719(4) 0.9280(4)
H2_4 H 0.8202 0.6932 0.9815
O4_4 O 0.2899(3) 0.8530(2) 0.6732(2)
C4_4 C 0.2199(5) 0.8139(3) 0.7319(3)
O5_4 O 0.5906(4) 0.8439(2) 0.9082(2)
C5_4 C 0.5122(6) 0.8356(3) 0.9739(3)
O7_4 O 0.5189(4) 0.7198(2) 0.6277(2)
H3_4 H 0.5470 0.7406 0.5782
H4_4 H 0.5621 0.6718 0.6422
H5_4 H 0.0490 0.8488 0.6025
C7_4 C 0.6155(5) 0.6427(3) 0.8732(3)
C8_4 C 0.0665(5) 0.8130(3) 0.7248(3)
H6_4 H 0.0169 0.7951 0.7745
O12_4 O 0.5338(3) 0.9290(2) 0.6065(2)
H11_4 H 0.5155 0.9842 0.6155
H12_4 H 0.6004 0.9213 0.5861
O23_2 O 0.7692(3) 0.8207(2) 0.7068(2)
C6_4 C 0.9972(5) 0.8357(3) 0.6528(3)
C12_4 C 0.8435(5) 0.8430(3) 0.6423(3)
O10_3 O 0.7818(4) 0.0060(2) 0.4411(3)
H13_3 H 0.833(6) 0.032(4) 0.482(4)
H14_3 H 0.776(6) 0.044(4) 0.408(4)
C9_3 C 0.4625(5) 0.1029(3) 0.9483(3)
H7_3 H 0.3777 0.0725 0.9440
C10_3 C 0.5531(6) 0.0895(3) 0.8861(3)
H8_3 H 0.6295 0.1280 0.8830
C11_3 C 0.5391(6) 0.0154(3) 0.8201(3)
O10_4 O 0.2182(4) 0.9940(2) 0.5589(3)
H13_4 H 0.167(6) 0.968(4) 0.518(4)
H14_4 H 0.224(6) 0.956(4) 0.592(4)
C9_4 C 0.5375(5) 0.8971(3) 0.0517(3)
H7_4 H 0.6223 0.9275 0.0560
C10_4 C 0.4469(6) 0.9105(3) 0.1139(3)
H8_4 H 0.3705 0.8720 0.1170
C11_4 C 0.4609(6) 0.9846(3) 0.1799(3)
loop_
_geom_bond_atom_site_label_1
_geom_bond_atom_site_label_2
_geom_bond_site_symmetry_1
_geom_bond_site_symmetry_2
Nd2 O1 1_555 1_555
O1 C2 1_555 1_555
C1 H1 1_555 1_555
O2 Nd2 1_555 1_555
C2 O2 1_555 1_555
C3 C1 1_555 1_555
H2 C3 1_555 1_555
O5 Nd1 1_555 1_555
C5 O5 1_555 1_555
O7 Nd1 1_555 1_555
H3 O7 1_555 1_555
H4 O7 1_555 1_555
C7 C1 1_555 1_555
C9 C5 1_555 1_555
H7 C9 1_555 1_555
O19 Nd1 1_555 1_555
O20 C7 1_555 1_555
O11 Nd2 1_555 1_555
H9 O11 1_555 1_555
H10 O11 1_555 1_555
O12 Nd1 1_555 1_555
H11 O12 1_555 1_555
H12 O12 1_555 1_555
O17 Nd2 1_555 1_555
O18 Nd2 1_555 1_555
O22 Nd1 1_555 1_555
O23 Nd1 1_555 1_555
O24 Nd2 1_555 1_555
C2 C3 1_555 1_555
C7 O19 1_555 1_555
O17 C4 1_555 1_555
C4 O4 1_555 1_555
C6 H5 1_555 1_555
C8 C4 1_555 1_555
H6 C8 1_555 1_555
H8 C10 1_555 1_555
C11 C10 1_555 1_555
O14 C11 1_555 1_555
C12 C6 1_555 1_555
O23 C12 1_555 1_555
O16 C12 1_555 1_555
C6 C8 1_555 1_555
O14 Nd3 1_555 1_555
C12_2 C6_2 1_555 1_555
O15 C12_2 1_555 1_555
O16_2 C12_2 1_555 1_555
Nd4 O15 1_555 1_555
Nd6_2 O16_2 1_555 1_555
Nd4 O3 1_555 1_555
C1_2 H1_2 1_555 1_555
C3_2 C1_2 1_555 1_555
H2_2 C3_2 1_555 1_555
O3 C4_2 1_555 1_555
O4_2 Nd4 1_555 1_555
C4_2 O4_2 1_555 1_555
O5_2 Nd4 1_555 1_555
C5_2 O5_2 1_555 1_555
O6 C5_2 1_555 1_555
O7_2 Nd4 1_555 1_555
H3_2 O7_2 1_555 1_555
H4_2 O7_2 1_555 1_555
C7_2 C1_2 1_555 1_555
C8_2 C4_2 1_555 1_555
H6_2 C8_2 1_555 1_555
O8 Nd4 1_555 1_555
O9 C7_2 1_555 1_555
O12_2 Nd4 1_555 1_555
H11_2 O12_2 1_555 1_555
H12_2 O12_2 1_555 1_555
Nd5 O3 1_555 1_555
O21_2 Nd4 1_555 1_555
O22_2 Nd4 1_555 1_555
O6 Nd5 1_555 1_555
C7_2 O8 1_555 1_555
O8 Nd5 1_555 1_555
O9 Nd5 1_555 1_555
Nd3_2 O13_2 1_555 1_555
O14_2 Nd3_2 1_555 1_555
Nd5 O1_2 1_555 1_555
O1_2 C2_2 1_555 1_555
O2_2 Nd5 1_555 1_555
C2_2 O2_2 1_555 1_555
O10 Nd5 1_555 1_555
O11_2 Nd5 1_555 1_555
H9_2 O11_2 1_555 1_555
H10_2 O11_2 1_555 1_555
H13 O10 1_555 1_555
H14 O10 1_555 1_555
O3_2 C4_3 1_555 1_555
C4_3 O4_3 1_555 1_555
C6_3 H5_3 1_555 1_555
C8_3 C4_3 1_555 1_555
H6_3 C8_3 1_555 1_555
H8_2 C10_2 1_555 1_555
C11_2 C10_2 1_555 1_555
O22 C11_2 1_555 1_555
C12_3 C6_3 1_555 1_555
O15_2 C12_3 1_555 1_555
O24_2 C12_3 1_555 1_555
Nd3 O15_2 1_555 1_555
Nd6_2 O3_2 1_555 1_555
O6_2 Nd6_2 1_555 1_555
C6_3 C8_3 1_555 1_555
Nd6_2 O1_3 1_555 1_555
O1_3 C2_3 1_555 1_555
C1_3 H1_3 1_555 1_555
O2_3 Nd6_2 1_555 1_555
C2_3 O2_3 1_555 1_555
C3_3 C1_3 1_555 1_555
H2_3 C3_3 1_555 1_555
O5_3 Nd3 1_555 1_555
C5_3 O5_3 1_555 1_555
O7_3 Nd3 1_555 1_555
H3_3 O7_3 1_555 1_555
H4_3 O7_3 1_555 1_555
C7_3 C1_3 1_555 1_555
C9_2 C5_3 1_555 1_555
H7_2 C9_2 1_555 1_555
O8_2 Nd3 1_555 1_555
O9_2 C7_3 1_555 1_555
O11_3 Nd6_2 1_555 1_555
H9_3 O11_3 1_555 1_555
H10_3 O11_3 1_555 1_555
O12_3 Nd3 1_555 1_555
H11_3 O12_3 1_555 1_555
H12_3 O12_3 1_555 1_555
C2_3 C3_3 1_555 1_555
C7_3 O8_2 1_555 1_555
Nd6 O1_4 1_555 1_555
O1_4 C2_4 1_555 1_555
O2_4 Nd6 1_555 1_555
C2_4 O2_4 1_555 1_555
O10_2 Nd6 1_555 1_555
O11_4 Nd6 1_555 1_555
H9_4 O11_4 1_555 1_555
H10_4 O11_4 1_555 1_555
H13_2 O10_2 1_555 1_555
H14_2 O10_2 1_555 1_555
O17_2 Nd6 1_555 1_555
O18_2 Nd6 1_555 1_555
O19_2 Nd6 1_555 1_555
O20_2 Nd6 1_555 1_555
Nd3_2 O17_2 1_555 1_555
C1_4 H1_4 1_555 1_555
C3_4 C1_4 1_555 1_555
H2_4 C3_4 1_555 1_555
O17_2 C4_4 1_555 1_555
O4_4 Nd3_2 1_555 1_555
C4_4 O4_4 1_555 1_555
O5_4 Nd3_2 1_555 1_555
C5_4 O5_4 1_555 1_555
O18_2 C5_4 1_555 1_555
O7_4 Nd3_2 1_555 1_555
H3_4 O7_4 1_555 1_555
H4_4 O7_4 1_555 1_555
C7_4 C1_4 1_555 1_555
C8_4 C4_4 1_555 1_555
H6_4 C8_4 1_555 1_555
O19_2 Nd3_2 1_555 1_555
O20_2 C7_4 1_555 1_555
O12_4 Nd3_2 1_555 1_555
H11_4 O12_4 1_555 1_555
H12_4 O12_4 1_555 1_555
O23_2 Nd3_2 1_555 1_555
C7_4 O19_2 1_555 1_555
C12_4 C6_4 1_555 1_555
O23_2 C12_4 1_555 1_555
O24 C12_4 1_555 1_555
H13_3 O10_3 1_555 1_555
H14_3 O10_3 1_555 1_555
H7_3 C9_3 1_555 1_555
C10_3 C9_3 1_555 1_555
H8_3 C10_3 1_555 1_555
C11_3 C10_3 1_555 1_555
H13_4 O10_4 1_555 1_555
H14_4 O10_4 1_555 1_555
H7_4 C9_4 1_555 1_555
C10_4 C9_4 1_555 1_555
H8_4 C10_4 1_555 1_555
C11_4 C10_4 1_555 1_555

#END
