
###############################################################################
#
# This file contains modified crystal structure data generated from the
# MOF subset of the Cambridge Structural Database (CSD) v543 
# hosted by the Cambridge Crystallographic Data Centre (CCDC).
#
# This work is licensed under the Creative Commons
# Attribution-NonCommercial-ShareAlike 4.0 International License.
# To view a copy of this license, visit
# http://creativecommons.org/licenses/by-nc-sa/4.0/
# or send a letter to
# Creative Commons, PO Box 1866, Mountain View, CA 94042, USA.
#
# CIF created using the CSD Python API on 29 September 2022
# The structure has been converted into the P1 space group
# The structure has a 3D framework
# The original CSD entry IDECUT is in the triclinic crystal system
# The framework has been calculated to contain at least 10.0% void space
# The void calculation uses a probe of radius 1.32A, grid spacing 0.4
#
###############################################################################

data_IDECUT
_chemical_formula_moiety         '(C108 H68 N16 O24 Zn6)n'
_symmetry_cell_setting           triclinic
_symmetry_space_group_name_H-M   'P 1'
_symmetry_Int_Tables_number      1
_space_group_name_Hall           'P 1'
loop_
_symmetry_equiv_pos_site_id
_symmetry_equiv_pos_as_xyz
1 x,y,z
_cell_length_a                   13.7019(13)
_cell_length_b                   13.9995(12)
_cell_length_c                   21.143(2)
_cell_angle_alpha                74.258(5)
_cell_angle_beta                 79.162(5)
_cell_angle_gamma                63.495(4)
_cell_volume                     3482.68
loop_
_atom_site_label
_atom_site_type_symbol
_atom_site_fract_x
_atom_site_fract_y
_atom_site_fract_z
O20 O 0.1196(2) 0.1775(2) 0.09508(17)
O21 O 0.1042(2) 0.0325(2) 0.09739(19)
N6 N 0.0445(3) 0.2963(3) 0.66847(15)
C22 C 0.0195(3) 0.2429(3) 0.55494(18)
H5 H 0.076016 0.262951 0.553941
H9 H 0.032025 0.251803 0.459094
N7 N 0.0481(3) 0.3044(3) 0.73119(15)
C49 C 0.0087(4) 0.2964(4) 0.9336(2)
H29 H 0.030665 0.339637 0.948827
C52 C 0.0155(4) 0.3053(4) 0.8675(2)
H32 H 0.042683 0.352751 0.838912
O13 O 0.03749(17) 0.09889(19) 0.27246(12)
O17 O 0.00920(17) 0.1704(2) 0.35929(14)
O3 O 0.87457(19) 0.07214(18) 0.20663(12)
O4 O 0.85476(18) 0.15503(19) 0.10099(12)
C1 C 0.8433(2) 0.0874(2) 0.15134(17)
C4 C 0.7876(2) 0.0209(2) 0.14399(16)
C8 C 0.2798(3) 0.0156(3) 0.10776(17)
C26 C 0.3411(3) 0.0662(3) 0.1165(2)
H8 H 0.306770 0.139838 0.118079
C35 C 0.1609(3) 0.0768(3) 0.10065(18)
C39 C 0.7565(3) 0.0298(3) 0.08409(18)
H19 H 0.771212 0.077226 0.047356
C45 C 0.4514(3) 0.0107(3) 0.1229(2)
H25 H 0.490585 0.046933 0.128837
Zn8 Zn 0.89035(3) 0.17631(3) 0.24502(2)
Zn10 Zn 0.97127(3) 0.20824(3) 0.07652(2)
O5 O 0.89301(19) 0.35727(19) 0.09206(14)
O7 O 0.8464(2) 0.32593(19) 0.19938(14)
C3 C 0.6793(2) 0.9020(2) 0.13198(18)
C5 C 0.7879(2) 0.5074(2) 0.14044(16)
C6 C 0.5054(3) 0.9003(3) 0.12064(17)
N4 N 0.6177(2) 0.8453(2) 0.12657(17)
C13 C 0.8473(2) 0.3872(3) 0.14450(19)
C16 C 0.6743(2) 0.7300(2) 0.13176(18)
C19 C 0.7659(3) 0.9504(3) 0.19828(18)
H3 H 0.787819 0.942160 0.239194
C28 C 0.4439(3) 0.8483(3) 0.11254(19)
H10 H 0.477995 0.774641 0.111095
C31 C 0.3335(3) 0.9047(3) 0.10669(18)
H15 H 0.293654 0.868350 0.101912
C36 C 0.7038(3) 0.9698(3) 0.07731(19)
H17 H 0.684803 0.975087 0.036106
C41 C 0.7111(3) 0.8921(3) 0.1911(2)
H21 H 0.695790 0.845066 0.227811
C43 C 0.7834(3) 0.5796(3) 0.08120(19)
H23 H 0.818626 0.553339 0.043321
C46 C 0.7278(4) 0.6895(3) 0.0772(2)
H26 H 0.726496 0.737363 0.036767
C53 C 0.6798(4) 0.6587(3) 0.1909(2)
H33 H 0.645024 0.685066 0.228808
C54 C 0.7367(4) 0.5475(3) 0.1948(2)
H34 H 0.739746 0.499642 0.235481
Zn1 Zn 0.86013(3) 0.23013(3) 0.40541(2)
O1 O 0.8008(2) 0.1182(2) 0.42166(14)
N1 N 0.9531(2) 0.2109(2) 0.73706(13)
C2 C 0.0696(2) 0.1127(2) 0.32010(17)
O6 O 0.77542(18) 0.19773(19) 0.31724(13)
N2 N 0.9727(2) 0.2297(2) 0.97754(14)
N3 N 0.9126(2) 0.2066(2) 0.49578(14)
C9 C 0.1894(2) 0.0563(2) 0.32906(16)
C10 C 0.7626(3) 0.1312(3) 0.3693(2)
C15 C 0.3399(3) 0.0219(3) 0.3876(2)
H2 H 0.365807 0.036148 0.420061
C17 C 0.9820(3) 0.2439(3) 0.84264(17)
C18 C 0.6976(2) 0.0707(3) 0.36813(18)
C21 C 0.9931(3) 0.2528(3) 0.77183(17)
C24 C 0.9626(3) 0.2203(3) 0.61425(17)
C25 C 0.6287(3) 0.1034(3) 0.31971(19)
H7 H 0.622195 0.165012 0.286851
C27 C 0.9928(3) 0.2357(3) 0.49827(19)
N8 N 0.8871(3) 0.1534(3) 0.76074(14)
H11 H 0.867139 0.140935 0.802101
H12 H 0.866681 0.130668 0.733864
C30 C 0.2304(3) 0.0757(3) 0.3762(2)
H14 H 0.183258 0.126397 0.401188
C32 C 0.9858(3) 0.2410(3) 0.67216(17)
C38 C 0.9490(3) 0.1715(3) 0.88816(18)
H18 H 0.928945 0.125505 0.874360
C40 C 0.5683(3) 0.0466(3) 0.31856(19)
H20 H 0.520094 0.071179 0.286124
C44 C 0.9456(3) 0.1669(3) 0.95359(19)
H24 H 0.922936 0.116885 0.983391
C50 C 0.8602(4) 0.1817(4) 0.5524(2)
H30 H 0.805874 0.159114 0.552121
C51 C 0.8814(4) 0.1873(4) 0.6096(2)
H31 H 0.841517 0.168937 0.647790
O18 O 0.8258(2) 0.3861(2) 0.37055(14)
O19 O 0.6833(3) 0.3703(2) 0.43082(19)
C7 C 0.5749(3) 0.7757(3) 0.3735(2)
C11 C 0.4103(2) 0.9476(3) 0.35093(19)
C12 C 0.5807(2) 0.9524(3) 0.36650(19)
N5 N 0.5230(2) 0.8908(2) 0.36382(18)
C14 C 0.2611(2) 0.9817(3) 0.29145(17)
H1 H 0.235410 0.967999 0.258676
C20 C 0.6863(3) 0.7231(3) 0.35720(18)
H4 H 0.727829 0.763424 0.341773
C23 C 0.7072(3) 0.9775(3) 0.41740(19)
H6 H 0.751998 0.955442 0.451378
C29 C 0.7357(3) 0.6109(3) 0.36387(18)
H13 H 0.809883 0.576309 0.351652
C33 C 0.6757(3) 0.5500(3) 0.3885(2)
C34 C 0.6505(3) 0.9189(3) 0.4155(2)
H16 H 0.659013 0.855826 0.447466
C37 C 0.7310(4) 0.4272(3) 0.3973(2)
C42 C 0.3697(3) 0.9285(3) 0.3028(2)
H22 H 0.417132 0.878406 0.277574
C47 C 0.5155(3) 0.7136(3) 0.3994(3)
H27 H 0.441324 0.747604 0.411878
C48 C 0.5656(3) 0.6029(3) 0.4066(3)
H28 H 0.524858 0.562106 0.423949
Zn4 Zn 0.13987(3) 0.76987(3) 0.59459(2)
Zn6 Zn 0.10965(3) 0.82369(3) 0.75498(2)
Zn9 Zn 0.02873(3) 0.79176(3) 0.92348(2)
O9 O 0.1742(2) 0.6139(2) 0.62945(14)
C7_2 C 0.4251(3) 0.2243(3) 0.6265(2)
C11_2 C 0.5897(2) 0.0524(3) 0.64907(19)
C12_2 C 0.4193(2) 0.0476(3) 0.63350(19)
N5_2 N 0.4770(2) 0.1092(2) 0.63618(18)
C14_2 C 0.7389(2) 0.0183(3) 0.70855(17)
H1_2 H 0.764590 0.032001 0.741324
C20_2 C 0.3137(3) 0.2769(3) 0.64280(18)
H4_2 H 0.272171 0.236576 0.658227
C23_2 C 0.2928(3) 0.0225(3) 0.58260(19)
H6_2 H 0.248002 0.044558 0.548622
O10 O 0.3167(3) 0.6297(2) 0.56918(19)
C29_2 C 0.2643(3) 0.3891(3) 0.63613(18)
H13_2 H 0.190117 0.423691 0.648348
C33_2 C 0.3243(3) 0.4500(3) 0.6115(2)
C34_2 C 0.3495(3) 0.0811(3) 0.5845(2)
H16_2 H 0.340987 0.144174 0.552534
C37_2 C 0.2690(4) 0.5728(3) 0.6027(2)
C42_2 C 0.6303(3) 0.0715(3) 0.6972(2)
H22_2 H 0.582868 0.121594 0.722426
C47_2 C 0.4845(3) 0.2864(3) 0.6006(3)
H27_2 H 0.558676 0.252396 0.588122
C48_2 C 0.4344(3) 0.3971(3) 0.5934(3)
H28_2 H 0.475142 0.437894 0.576051
O1_2 O 0.1992(2) 0.8818(2) 0.57834(14)
O2 O 0.96251(17) 0.90111(19) 0.72754(12)
N1_2 N 0.0469(2) 0.7891(2) 0.26294(13)
C2_2 C 0.9304(2) 0.8873(2) 0.67990(17)
O6_2 O 0.22458(18) 0.80227(19) 0.68276(13)
N2_2 N 0.0273(2) 0.7703(2) 0.02246(14)
N3_2 N 0.0874(2) 0.7934(2) 0.50422(14)
O8 O 0.99080(17) 0.8296(2) 0.64071(14)
C9_2 C 0.8106(2) 0.9437(2) 0.67094(16)
C10_2 C 0.2374(3) 0.8688(3) 0.6307(2)
C15_2 C 0.6601(3) 0.9781(3) 0.6124(2)
H2_2 H 0.634193 0.963852 0.579939
C17_2 C 0.0180(3) 0.7561(3) 0.15736(17)
C18_2 C 0.3024(2) 0.9293(3) 0.63187(18)
C21_2 C 0.0069(3) 0.7472(3) 0.22817(17)
C24_2 C 0.0374(3) 0.7797(3) 0.38575(17)
C25_2 C 0.3713(3) 0.8966(3) 0.68029(19)
H7_2 H 0.377805 0.834988 0.713149
C27_2 C 0.0072(3) 0.7643(3) 0.50173(19)
N8_2 N 0.1129(3) 0.8466(3) 0.23926(14)
H11_2 H 0.132861 0.859065 0.197899
H12_2 H 0.133319 0.869332 0.266136
C30_2 C 0.7696(3) 0.9243(3) 0.6238(2)
H14_2 H 0.816742 0.873603 0.598812
C32_2 C 0.0142(3) 0.7590(3) 0.32784(17)
C38_2 C 0.0510(3) 0.8285(3) 0.11184(18)
H18_2 H 0.071055 0.874495 0.125640
C40_2 C 0.4317(3) 0.9534(3) 0.68144(19)
H20_2 H 0.479906 0.928821 0.713876
C44_2 C 0.0544(3) 0.8331(3) 0.04641(19)
H24_2 H 0.077064 0.883115 0.016609
C50_2 C 0.1398(4) 0.8183(4) 0.4476(2)
H30_2 H 0.194126 0.840886 0.447879
C51_2 C 0.1186(4) 0.8127(4) 0.3904(2)
H31_2 H 0.158483 0.831063 0.352210
O14 O 0.12543(19) 0.92786(18) 0.79337(12)
O16 O 0.1536(2) 0.67407(19) 0.80062(14)
O5_2 O 0.10699(19) 0.64273(19) 0.90794(14)
C3_2 C 0.3207(2) 0.0980(2) 0.86802(18)
C5_2 C 0.2121(2) 0.4926(2) 0.85956(16)
C6_2 C 0.4946(3) 0.0997(3) 0.87936(17)
N4_2 N 0.3823(2) 0.1547(2) 0.87343(17)
C13_2 C 0.1527(2) 0.6128(3) 0.85550(19)
C16_2 C 0.3257(2) 0.2700(2) 0.86824(18)
C19_2 C 0.2341(3) 0.0496(3) 0.80172(18)
H3_2 H 0.212181 0.057840 0.760806
C28_2 C 0.5561(3) 0.1517(3) 0.88746(19)
H10_2 H 0.522005 0.225359 0.888905
C31_2 C 0.6665(3) 0.0953(3) 0.89331(18)
H15_2 H 0.706346 0.131650 0.898088
C36_2 C 0.2962(3) 0.0302(3) 0.92269(19)
H17_2 H 0.315197 0.024913 0.963894
C41_2 C 0.2889(3) 0.1079(3) 0.8089(2)
H21_2 H 0.304210 0.154934 0.772189
C43_2 C 0.2166(3) 0.4204(3) 0.91880(19)
H23_2 H 0.181374 0.446661 0.956679
C46_2 C 0.2722(4) 0.3105(3) 0.9228(2)
H26_2 H 0.273504 0.262637 0.963233
C53_2 C 0.3202(4) 0.3413(3) 0.8091(2)
H33_2 H 0.354976 0.314934 0.771192
C54_2 C 0.2633(4) 0.4525(3) 0.8052(2)
H34_2 H 0.260254 0.500358 0.764519
O15 O 0.14524(18) 0.84497(19) 0.89901(12)
C1_2 C 0.1567(2) 0.9126(2) 0.84866(17)
C4_2 C 0.2124(2) 0.9791(2) 0.85601(16)
C8_2 C 0.7202(3) 0.9844(3) 0.89224(17)
C26_2 C 0.6589(3) 0.9338(3) 0.8835(2)
H8_2 H 0.693230 0.860162 0.881921
C35_2 C 0.8391(3) 0.9232(3) 0.89935(18)
C39_2 C 0.2435(3) 0.9702(3) 0.91591(18)
H19_2 H 0.228788 0.922774 0.952644
C45_2 C 0.5486(3) 0.9893(3) 0.8771(2)
H25_2 H 0.509415 0.953067 0.871163
O11 O 0.8804(2) 0.8225(2) 0.90492(17)
O12 O 0.8958(2) 0.9675(2) 0.90261(19)
N6_2 N 0.9555(3) 0.7037(3) 0.33153(15)
C22_2 C 0.9805(3) 0.7571(3) 0.44506(18)
H5_2 H 0.923984 0.737049 0.446059
H9_2 H 0.967975 0.748197 0.540906
N7_2 N 0.9519(3) 0.6956(3) 0.26881(15)
C49_2 C 0.9913(4) 0.7036(4) 0.0664(2)
H29_2 H 0.969335 0.660363 0.051173
C52_2 C 0.9845(4) 0.6947(4) 0.1325(2)
H32_2 H 0.957317 0.647249 0.161088
loop_
_geom_bond_atom_site_label_1
_geom_bond_atom_site_label_2
_geom_bond_site_symmetry_1
_geom_bond_site_symmetry_2
N6 N7 1_555 1_555
C22 H5 1_555 1_555
H29 C49 1_555 1_555
H32 C52 1_555 1_555
C49 C52 1_555 1_555
O3 C1 1_555 1_555
O4 C1 1_555 1_555
C1 C4 1_555 1_555
C8 C26 1_555 1_555
C26 H8 1_555 1_555
C35 C8 1_555 1_555
C39 C4 1_555 1_555
H19 C39 1_555 1_555
H25 C45 1_555 1_555
O20 C35 1_555 1_555
O21 C35 1_555 1_555
Zn8 O3 1_555 1_555
Zn10 O4 1_555 1_555
C26 C45 1_555 1_555
Zn10 O5 1_555 1_555
O5 C13 1_555 1_555
O7 C13 1_555 1_555
C3 N4 1_555 1_555
C5 C13 1_555 1_555
C6 N4 1_555 1_555
N4 C16 1_555 1_555
C16 C46 1_555 1_555
C19 H3 1_555 1_555
C28 C6 1_555 1_555
H10 C28 1_555 1_555
H15 C31 1_555 1_555
C36 C3 1_555 1_555
H17 C36 1_555 1_555
C41 C3 1_555 1_555
H21 C41 1_555 1_555
C43 C5 1_555 1_555
H23 C43 1_555 1_555
C46 C43 1_555 1_555
H26 C46 1_555 1_555
C53 C16 1_555 1_555
H33 C53 1_555 1_555
C54 C5 1_555 1_555
H34 C54 1_555 1_555
Zn8 O7 1_555 1_555
C19 C41 1_555 1_555
C28 C31 1_555 1_555
C53 C54 1_555 1_555
Zn1 O1 1_555 1_555
Zn8 O6 1_555 1_555
O1 C10 1_555 1_555
O13 C2 1_555 1_555
N1 C21 1_555 1_555
C2 O17 1_555 1_555
O6 C10 1_555 1_555
N3 Zn1 1_555 1_555
C9 C2 1_555 1_555
C10 C18 1_555 1_555
H2 C15 1_555 1_555
C17 C21 1_555 1_555
C25 C18 1_555 1_555
H7 C25 1_555 1_555
C27 N3 1_555 1_555
N8 N1 1_555 1_555
H11 N8 1_555 1_555
H12 N8 1_555 1_555
C30 C9 1_555 1_555
H14 C30 1_555 1_555
C32 N1 1_555 1_555
C38 C17 1_555 1_555
H18 C38 1_555 1_555
H20 C40 1_555 1_555
C44 N2 1_555 1_555
H24 C44 1_555 1_555
C50 N3 1_555 1_555
H30 C50 1_555 1_555
C51 C24 1_555 1_555
H31 C51 1_555 1_555
O18 Zn1 1_555 1_555
O19 Zn1 1_555 1_555
C15 C30 1_555 1_555
C24 C32 1_555 1_555
C25 C40 1_555 1_555
C38 C44 1_555 1_555
C50 C51 1_555 1_555
O18 C37 1_555 1_555
C7 N5 1_555 1_555
C11 N5 1_555 1_555
C12 N5 1_555 1_555
H1 C14 1_555 1_555
C20 C7 1_555 1_555
H4 C20 1_555 1_555
C23 H6 1_555 1_555
O19 C37 1_555 1_555
C29 C20 1_555 1_555
H13 C29 1_555 1_555
C33 C29 1_555 1_555
C34 C12 1_555 1_555
H16 C34 1_555 1_555
C37 C33 1_555 1_555
C42 C11 1_555 1_555
H22 C42 1_555 1_555
C47 C7 1_555 1_555
H27 C47 1_555 1_555
C48 C33 1_555 1_555
H28 C48 1_555 1_555
C14 C42 1_555 1_555
C23 C34 1_555 1_555
C47 C48 1_555 1_555
O9 C37_2 1_555 1_555
C7_2 N5_2 1_555 1_555
C11_2 N5_2 1_555 1_555
C12_2 N5_2 1_555 1_555
H1_2 C14_2 1_555 1_555
C20_2 C7_2 1_555 1_555
H4_2 C20_2 1_555 1_555
C23_2 H6_2 1_555 1_555
O10 C37_2 1_555 1_555
C29_2 C20_2 1_555 1_555
H13_2 C29_2 1_555 1_555
C33_2 C29_2 1_555 1_555
C34_2 C12_2 1_555 1_555
H16_2 C34_2 1_555 1_555
C37_2 C33_2 1_555 1_555
C42_2 C11_2 1_555 1_555
H22_2 C42_2 1_555 1_555
C47_2 C7_2 1_555 1_555
H27_2 C47_2 1_555 1_555
C48_2 C33_2 1_555 1_555
H28_2 C48_2 1_555 1_555
Zn4 O9 1_555 1_555
C14_2 C42_2 1_555 1_555
C23_2 C34_2 1_555 1_555
O10 Zn4 1_555 1_555
C47_2 C48_2 1_555 1_555
Zn4 O1_2 1_555 1_555
Zn6 O6_2 1_555 1_555
O1_2 C10_2 1_555 1_555
O2 C2_2 1_555 1_555
N1_2 C21_2 1_555 1_555
C2_2 O8 1_555 1_555
O6_2 C10_2 1_555 1_555
N3_2 Zn4 1_555 1_555
C9_2 C2_2 1_555 1_555
C10_2 C18_2 1_555 1_555
H2_2 C15_2 1_555 1_555
C17_2 C21_2 1_555 1_555
C25_2 C18_2 1_555 1_555
H7_2 C25_2 1_555 1_555
C27_2 N3_2 1_555 1_555
N8_2 N1_2 1_555 1_555
H11_2 N8_2 1_555 1_555
H12_2 N8_2 1_555 1_555
C30_2 C9_2 1_555 1_555
H14_2 C30_2 1_555 1_555
C32_2 N1_2 1_555 1_555
C38_2 C17_2 1_555 1_555
H18_2 C38_2 1_555 1_555
H20_2 C40_2 1_555 1_555
C44_2 N2_2 1_555 1_555
H24_2 C44_2 1_555 1_555
C50_2 N3_2 1_555 1_555
H30_2 C50_2 1_555 1_555
C51_2 C24_2 1_555 1_555
H31_2 C51_2 1_555 1_555
O14 Zn6 1_555 1_555
O16 Zn6 1_555 1_555
C15_2 C30_2 1_555 1_555
C24_2 C32_2 1_555 1_555
C25_2 C40_2 1_555 1_555
C38_2 C44_2 1_555 1_555
C50_2 C51_2 1_555 1_555
Zn9 O5_2 1_555 1_555
O5_2 C13_2 1_555 1_555
O16 C13_2 1_555 1_555
C3_2 N4_2 1_555 1_555
C5_2 C13_2 1_555 1_555
C6_2 N4_2 1_555 1_555
N4_2 C16_2 1_555 1_555
C16_2 C46_2 1_555 1_555
C19_2 H3_2 1_555 1_555
C28_2 C6_2 1_555 1_555
H10_2 C28_2 1_555 1_555
H15_2 C31_2 1_555 1_555
C36_2 C3_2 1_555 1_555
H17_2 C36_2 1_555 1_555
C41_2 C3_2 1_555 1_555
H21_2 C41_2 1_555 1_555
C43_2 C5_2 1_555 1_555
H23_2 C43_2 1_555 1_555
C46_2 C43_2 1_555 1_555
H26_2 C46_2 1_555 1_555
C53_2 C16_2 1_555 1_555
H33_2 C53_2 1_555 1_555
C54_2 C5_2 1_555 1_555
H34_2 C54_2 1_555 1_555
O15 Zn9 1_555 1_555
C19_2 C41_2 1_555 1_555
C28_2 C31_2 1_555 1_555
C53_2 C54_2 1_555 1_555
O14 C1_2 1_555 1_555
O15 C1_2 1_555 1_555
C1_2 C4_2 1_555 1_555
C8_2 C26_2 1_555 1_555
C26_2 H8_2 1_555 1_555
C35_2 C8_2 1_555 1_555
C39_2 C4_2 1_555 1_555
H19_2 C39_2 1_555 1_555
H25_2 C45_2 1_555 1_555
O11 C35_2 1_555 1_555
O12 C35_2 1_555 1_555
C26_2 C45_2 1_555 1_555
N6_2 N7_2 1_555 1_555
C22_2 H5_2 1_555 1_555
H29_2 C49_2 1_555 1_555
H32_2 C52_2 1_555 1_555
C49_2 C52_2 1_555 1_555

#END
