
###############################################################################
#
# This file contains modified crystal structure data generated from the
# MOF subset of the Cambridge Structural Database (CSD) v543 
# hosted by the Cambridge Crystallographic Data Centre (CCDC).
#
# This work is licensed under the Creative Commons
# Attribution-NonCommercial-ShareAlike 4.0 International License.
# To view a copy of this license, visit
# http://creativecommons.org/licenses/by-nc-sa/4.0/
# or send a letter to
# Creative Commons, PO Box 1866, Mountain View, CA 94042, USA.
#
# CIF created using the CSD Python API on 29 September 2022
# The structure has been converted into the P1 space group
# The structure has a 3D framework
# The original CSD entry IDEWUM is in the monoclinic crystal system
# The original CSD entry IDEWUM is in a Sohncke space group
# The framework has been calculated to contain at least 10.0% void space
# The void calculation uses a probe of radius 1.32A, grid spacing 0.4
#
###############################################################################

data_IDEWUM
_chemical_formula_moiety         '(C74 H82 Cd4 N6 O26)n'
_symmetry_cell_setting           triclinic
_symmetry_space_group_name_H-M   'P 1'
_symmetry_Int_Tables_number      1
_space_group_name_Hall           'P 1'
loop_
_symmetry_equiv_pos_site_id
_symmetry_equiv_pos_as_xyz
1 x,y,z
_cell_length_a                   9.1561(5)
_cell_length_b                   27.2784(13)
_cell_length_c                   9.9846(5)
_cell_angle_alpha                90
_cell_angle_beta                 114.209(2)
_cell_angle_gamma                90
_cell_volume                     2274.48
loop_
_atom_site_label
_atom_site_type_symbol
_atom_site_fract_x
_atom_site_fract_y
_atom_site_fract_z
H29 H 0.0372 0.5624 0.4744
H31 H 0.0386 0.5791 0.6252
C37 C 0.3556(14) 0.5993(6) 0.1034(12)
H39 H 0.3180 0.6184 0.1638
H40 H 0.4702 0.5971 0.1498
H41 H 0.3103 0.5670 0.0906
O15 O 0.9118(6) 0.58934(18) 0.0367(5)
Cd1 Cd 0.31053(6) 0.67524(2) 0.45777(5)
Cd2 Cd 0.68154(6) 0.60612(2) 0.82013(5)
O1 O 0.4571(8) 0.7057(2) 0.3415(7)
O2 O 0.0947(7) 0.6649(2) 0.2276(6)
H1 H 0.0198 0.6861 0.2163
H2 H 0.0487 0.6368 0.2239
O3 O 0.3513(7) 0.59648(18) 0.4340(6)
O4 O 0.4397(7) 0.57122(19) 0.6667(6)
O5 O 0.5517(6) 0.6219(2) 0.9648(6)
O6 O 0.7752(11) 0.5864(5) 0.6526(10)
O7 O 0.5843(10) 0.3957(2) 0.6235(9)
O8 O 0.5513(7) 0.3676(2) 0.3030(8)
O13 O 0.2052(6) 0.18504(19) 0.1824(6)
O14 O 0.4607(6) 0.17919(19) 0.3230(6)
N1 N 0.5319(16) 0.7657(4) 0.2270(11)
N2 N 0.3061(10) 0.6234(5) 0.9570(10)
N3 N 0.8293(18) 0.5874(6) 0.4589(16)
C1 C 0.3851(9) 0.5638(2) 0.5299(8)
C2 C 0.3702(9) 0.5109(2) 0.4795(8)
C3 C 0.4823(11) 0.4788(3) 0.5724(10)
H3 H 0.5619 0.4902 0.6595
C4 C 0.4763(12) 0.4282(3) 0.5350(10)
C5 C 0.7466(19) 0.4125(5) 0.6981(18)
H4 H 0.8098 0.3845 0.7506
H5 H 0.7480 0.4359 0.7718
C6 C 0.837(4) 0.4364(12) 0.614(4)
H6 H 0.7744 0.4629 0.5551
H7 H 0.8546 0.4124 0.5518
H8 H 0.9382 0.4487 0.6829
C7 C 0.3535(9) 0.4103(2) 0.4107(8)
C8 C 0.2356(9) 0.4434(2) 0.3139(9)
C9 C 0.1130(10) 0.4264(2) 0.1845(8)
H9 H 0.1069 0.3931 0.1630
C11 C 0.0092(9) 0.5080(2) 0.1207(8)
C13 C 0.1302(9) 0.5256(2) 0.2478(8)
H11 H 0.1359 0.5591 0.2670
C14 C 0.2450(9) 0.4944(2) 0.3488(8)
C15 C 0.3467(9) 0.3565(2) 0.3793(8)
C16 C 0.4470(10) 0.3365(2) 0.3275(9)
C17 C 0.6441(12) 0.3490(4) 0.2286(13)
H12 H 0.5746 0.3352 0.1344
H13 H 0.7164 0.3236 0.2868
C18 C 0.7371(15) 0.3915(5) 0.2078(19)
H14 H 0.6641 0.4155 0.1453
H15 H 0.8062 0.3802 0.1634
H16 H 0.8003 0.4060 0.3014
C19 C 0.4450(10) 0.2855(2) 0.2981(8)
H17 H 0.5178 0.2724 0.2647
C20 C 0.3368(8) 0.2560(2) 0.3187(8)
C21 C 0.3319(9) 0.2033(2) 0.2733(7)
C22 C 0.2247(9) 0.2747(2) 0.3707(8)
C23 C 0.1088(9) 0.2450(3) 0.3947(8)
H18 H 0.0985 0.2121 0.3676
C24 C 0.0132(9) 0.2640(3) 0.4567(7)
C26 C 0.0253(11) 0.3146(3) 0.4933(9)
C27 C 0.1318(10) 0.3443(3) 0.4696(9)
H20 H 0.1382 0.3772 0.4957
C28 C 0.2335(9) 0.3256(2) 0.4053(7)
C29 C 0.4659(13) 0.7493(4) 0.3144(11)
H21 H 0.4237 0.7721 0.3578
C30 C 0.607(3) 0.7335(9) 0.171(2)
H22 H 0.6772 0.7128 0.2483
H23 H 0.6677 0.7514 0.1287
H24 H 0.5282 0.7137 0.0968
C31 C 0.539(2) 0.8179(5) 0.1980(15)
H25 H 0.4888 0.8363 0.2493
H26 H 0.4845 0.8238 0.0945
H27 H 0.6490 0.8278 0.2312
C32 C 0.7540(18) 0.5935(7) 0.5338(15)
H28 H 0.6543 0.6076 0.4805
C33 C 0.978(3) 0.5625(11) 0.534(3)
H30 H 0.9575 0.5294 0.5544
C34 C 0.810(2) 0.6165(7) 0.3351(18)
H32 H 0.7307 0.6413 0.3217
H33 H 0.7758 0.5961 0.2493
H34 H 0.9100 0.6317 0.3505
C35 C 0.4066(11) 0.6301(4) 0.9011(9)
H35 H 0.3684 0.6421 0.8055
C36 C 0.140(2) 0.6373(8) 0.882(2)
H36 H 0.1042 0.6313 0.7788
H37 H 0.1282 0.6715 0.8984
H38 H 0.0765 0.6183 0.9195
Cd4 Cd 0.68947(6) 0.17524(2) 0.54223(5)
Cd6 Cd 0.31846(6) 0.10612(2) 0.17987(5)
O16 O 0.7704(8) 0.5260(2) 0.9097(7)
O17 O 0.1881(7) 0.75151(19) 0.4516(6)
O18 O 0.1311(7) 0.68955(19) 0.5654(6)
O19 O 0.7948(6) 0.68504(19) 0.8176(6)
O20 O 0.5393(6) 0.67919(19) 0.6770(6)
O11 O 0.8119(7) 0.25151(19) 0.5484(6)
O12 O 0.8689(7) 0.18955(19) 0.4346(6)
C10 C 0.9995(10) 0.4580(3) 0.0868(9)
H10 H 0.9190 0.4461 0.0010
C12 C 0.8906(9) 0.5436(3) 0.0163(8)
C25 C 0.8901(9) 0.2338(2) 0.4802(7)
H19 H 0.9592 0.3277 0.5344
O10 O 0.2296(8) 0.0260(2) 0.0903(7)
C10_2 C 0.0005(10) 0.9580(3) 0.9132(9)
H10_2 H 0.0810 0.9461 0.9990
C25_2 C 0.1099(9) 0.7338(2) 0.5198(7)
H19_2 H 0.0408 0.8277 0.4656
O1_2 O 0.5429(8) 0.2057(2) 0.6585(7)
O2_2 O 0.9053(7) 0.1649(2) 0.7724(6)
H1_2 H 0.9802 0.1861 0.7837
H2_2 H 0.9513 0.1368 0.7761
O3_2 O 0.6487(7) 0.09648(18) 0.5660(6)
O4_2 O 0.5603(7) 0.07122(19) 0.3333(6)
O5_2 O 0.4483(6) 0.1219(2) 0.0352(6)
O6_2 O 0.2248(11) 0.0864(5) 0.3474(10)
N1_2 N 0.4681(16) 0.2657(4) 0.7730(11)
N2_2 N 0.6939(10) 0.1234(5) 0.0430(10)
N3_2 N 0.1707(18) 0.0874(6) 0.5411(16)
C1_2 C 0.6149(9) 0.0638(2) 0.4701(8)
C2_2 C 0.6298(9) 0.0109(2) 0.5205(8)
C11_2 C 0.9908(9) 0.0080(2) 0.8793(8)
C13_2 C 0.8698(9) 0.0256(2) 0.7522(8)
H11_2 H 0.8641 0.0591 0.7330
C29_2 C 0.5341(13) 0.2493(4) 0.6856(11)
H21_2 H 0.5763 0.2721 0.6422
C30_2 C 0.393(3) 0.2335(9) 0.829(2)
H22_2 H 0.3228 0.2128 0.7517
H23_2 H 0.3323 0.2514 0.8713
H24_2 H 0.4718 0.2137 0.9032
C31_2 C 0.461(2) 0.3179(5) 0.8020(15)
H25_2 H 0.5112 0.3363 0.7507
H26_2 H 0.5155 0.3238 0.9055
H27_2 H 0.3510 0.3278 0.7688
C32_2 C 0.2460(18) 0.0935(7) 0.4662(15)
H28_2 H 0.3457 0.1076 0.5195
C33_2 C 0.022(3) 0.0625(11) 0.466(3)
H30_2 H 0.0425 0.0294 0.4456
C34_2 C 0.190(2) 0.1165(7) 0.6649(18)
H32_2 H 0.2693 0.1413 0.6783
H33_2 H 0.2242 0.0961 0.7507
H34_2 H 0.0900 0.1317 0.6495
C35_2 C 0.5934(11) 0.1301(4) 0.0989(9)
H35_2 H 0.6316 0.1421 0.1945
C36_2 C 0.860(2) 0.1373(8) 0.118(2)
H36_2 H 0.8958 0.1313 0.2212
H37_2 H 0.8718 0.1715 0.1016
H38_2 H 0.9235 0.1183 0.0805
O7_2 O 0.4157(10) 0.8957(2) 0.3765(9)
O8_2 O 0.4487(7) 0.8676(2) 0.6970(8)
C3_2 C 0.5177(11) 0.9788(3) 0.4276(10)
H3_2 H 0.4381 0.9902 0.3405
C4_2 C 0.5237(12) 0.9282(3) 0.4650(10)
C5_2 C 0.2534(19) 0.9125(5) 0.3019(18)
H4_2 H 0.1902 0.8845 0.2494
H5_2 H 0.2520 0.9359 0.2282
C6_2 C 0.163(4) 0.9364(12) 0.386(4)
H6_2 H 0.2256 0.9629 0.4449
H7_2 H 0.1454 0.9124 0.4482
H8_2 H 0.0618 0.9487 0.3171
C7_2 C 0.6465(9) 0.9103(2) 0.5893(8)
C8_2 C 0.7644(9) 0.9434(2) 0.6861(9)
C9_2 C 0.8870(10) 0.9264(2) 0.8155(8)
H9_2 H 0.8931 0.8931 0.8370
C14_2 C 0.7550(9) 0.9944(2) 0.6512(8)
C15_2 C 0.6533(9) 0.8565(2) 0.6207(8)
C16_2 C 0.5530(10) 0.8365(2) 0.6725(9)
C17_2 C 0.3559(12) 0.8490(4) 0.7714(13)
H12_2 H 0.4254 0.8352 0.8656
H13_2 H 0.2836 0.8236 0.7132
C18_2 C 0.2629(15) 0.8915(5) 0.7922(19)
H14_2 H 0.3359 0.9155 0.8547
H15_2 H 0.1938 0.8802 0.8366
H16_2 H 0.1997 0.9060 0.6986
C19_2 C 0.5550(10) 0.7855(2) 0.7019(8)
H17_2 H 0.4822 0.7724 0.7353
C20_2 C 0.6632(8) 0.7560(2) 0.6813(8)
C21_2 C 0.6681(9) 0.7033(2) 0.7267(7)
C22_2 C 0.7753(9) 0.7747(2) 0.6293(8)
C23_2 C 0.8912(9) 0.7450(3) 0.6053(8)
H18_2 H 0.9015 0.7121 0.6324
C24_2 C 0.9868(9) 0.7640(3) 0.5433(7)
C26_2 C 0.9747(11) 0.8146(3) 0.5067(9)
C27_2 C 0.8682(10) 0.8443(3) 0.5304(9)
H20_2 H 0.8618 0.8772 0.5043
C28_2 C 0.7665(9) 0.8256(2) 0.5947(7)
O9 O 0.0882(6) 0.08934(18) 0.9633(5)
C12_2 C 0.1094(9) 0.0436(3) 0.9837(8)
C37_2 C 0.6444(14) 0.0993(6) 0.8966(12)
H39_2 H 0.6820 0.1184 0.8362
H40_2 H 0.5298 0.0971 0.8502
H41_2 H 0.6897 0.0670 0.9094
H29_2 H 0.9628 0.0624 0.5256
H31_2 H 0.9614 0.0791 0.3748
loop_
_geom_bond_atom_site_label_1
_geom_bond_atom_site_label_2
_geom_bond_site_symmetry_1
_geom_bond_site_symmetry_2
H39 C37 1_555 1_555
H40 C37 1_555 1_555
H41 C37 1_555 1_555
Cd1 O1 1_555 1_555
Cd2 O4 1_555 1_555
O1 C29 1_555 1_555
O2 Cd1 1_555 1_555
H1 O2 1_555 1_555
H2 O2 1_555 1_555
O3 Cd1 1_555 1_555
O4 C1 1_555 1_555
O5 Cd2 1_555 1_555
O6 Cd2 1_555 1_555
O7 C4 1_555 1_555
O8 C16 1_555 1_555
O13 C21 1_555 1_555
O14 C21 1_555 1_555
N1 C29 1_555 1_555
N2 C35 1_555 1_555
N3 C32 1_555 1_555
C1 O3 1_555 1_555
C2 C1 1_555 1_555
C3 C2 1_555 1_555
H3 C3 1_555 1_555
C4 C3 1_555 1_555
C5 O7 1_555 1_555
H4 C5 1_555 1_555
H5 C5 1_555 1_555
C6 C5 1_555 1_555
H6 C6 1_555 1_555
H7 C6 1_555 1_555
H8 C6 1_555 1_555
C7 C4 1_555 1_555
C8 C7 1_555 1_555
C9 C8 1_555 1_555
H9 C9 1_555 1_555
C13 C11 1_555 1_555
H11 C13 1_555 1_555
C14 C2 1_555 1_555
C15 C7 1_555 1_555
C16 C15 1_555 1_555
C17 O8 1_555 1_555
H12 C17 1_555 1_555
H13 C17 1_555 1_555
C18 C17 1_555 1_555
H14 C18 1_555 1_555
H15 C18 1_555 1_555
H16 C18 1_555 1_555
C19 C16 1_555 1_555
H17 C19 1_555 1_555
C20 C19 1_555 1_555
C21 C20 1_555 1_555
C22 C20 1_555 1_555
C23 C22 1_555 1_555
H18 C23 1_555 1_555
C24 C23 1_555 1_555
C26 C24 1_555 1_555
C27 C26 1_555 1_555
H20 C27 1_555 1_555
C28 C15 1_555 1_555
C29 H21 1_555 1_555
C30 N1 1_555 1_555
H22 C30 1_555 1_555
H23 C30 1_555 1_555
H24 C30 1_555 1_555
C31 N1 1_555 1_555
H25 C31 1_555 1_555
H26 C31 1_555 1_555
H27 C31 1_555 1_555
C32 O6 1_555 1_555
H28 C32 1_555 1_555
C33 N3 1_555 1_555
H30 C33 1_555 1_555
C34 N3 1_555 1_555
H32 C34 1_555 1_555
H33 C34 1_555 1_555
H34 C34 1_555 1_555
C35 O5 1_555 1_555
H35 C35 1_555 1_555
C36 N2 1_555 1_555
H36 C36 1_555 1_555
H37 C36 1_555 1_555
H38 C36 1_555 1_555
Cd4 O14 1_555 1_555
Cd6 O13 1_555 1_555
O16 Cd2 1_555 1_555
O17 Cd1 1_555 1_555
O18 Cd1 1_555 1_555
O19 Cd2 1_555 1_555
O20 Cd1 1_555 1_555
Cd2 O20 1_555 1_555
O14 Cd6 1_555 1_555
C8 C14 1_555 1_555
C13 C14 1_555 1_555
C22 C28 1_555 1_555
C27 C28 1_555 1_555
O15 C12 1_555 1_555
O11 C25 1_555 1_555
O12 C25 1_555 1_555
H10 C10 1_555 1_555
Cd4 O11 1_555 1_555
O12 Cd4 1_555 1_555
O10 Cd6 1_555 1_555
O17 C25_2 1_555 1_555
O18 C25_2 1_555 1_555
H10_2 C10_2 1_555 1_555
Cd4 O1_2 1_555 1_555
Cd6 O4_2 1_555 1_555
O1_2 C29_2 1_555 1_555
O2_2 Cd4 1_555 1_555
H1_2 O2_2 1_555 1_555
H2_2 O2_2 1_555 1_555
O3_2 Cd4 1_555 1_555
O4_2 C1_2 1_555 1_555
O5_2 Cd6 1_555 1_555
O6_2 Cd6 1_555 1_555
N1_2 C29_2 1_555 1_555
N2_2 C35_2 1_555 1_555
N3_2 C32_2 1_555 1_555
C1_2 O3_2 1_555 1_555
C2_2 C1_2 1_555 1_555
C13_2 C11_2 1_555 1_555
H11_2 C13_2 1_555 1_555
C29_2 H21_2 1_555 1_555
C30_2 N1_2 1_555 1_555
H22_2 C30_2 1_555 1_555
H23_2 C30_2 1_555 1_555
H24_2 C30_2 1_555 1_555
C31_2 N1_2 1_555 1_555
H25_2 C31_2 1_555 1_555
H26_2 C31_2 1_555 1_555
H27_2 C31_2 1_555 1_555
C32_2 O6_2 1_555 1_555
H28_2 C32_2 1_555 1_555
C33_2 N3_2 1_555 1_555
H30_2 C33_2 1_555 1_555
C34_2 N3_2 1_555 1_555
H32_2 C34_2 1_555 1_555
H33_2 C34_2 1_555 1_555
H34_2 C34_2 1_555 1_555
C35_2 O5_2 1_555 1_555
H35_2 C35_2 1_555 1_555
C36_2 N2_2 1_555 1_555
H36_2 C36_2 1_555 1_555
H37_2 C36_2 1_555 1_555
H38_2 C36_2 1_555 1_555
O7_2 C4_2 1_555 1_555
O8_2 C16_2 1_555 1_555
O19 C21_2 1_555 1_555
O20 C21_2 1_555 1_555
H3_2 C3_2 1_555 1_555
C4_2 C3_2 1_555 1_555
C5_2 O7_2 1_555 1_555
H4_2 C5_2 1_555 1_555
H5_2 C5_2 1_555 1_555
C6_2 C5_2 1_555 1_555
H6_2 C6_2 1_555 1_555
H7_2 C6_2 1_555 1_555
H8_2 C6_2 1_555 1_555
C7_2 C4_2 1_555 1_555
C8_2 C7_2 1_555 1_555
C9_2 C8_2 1_555 1_555
H9_2 C9_2 1_555 1_555
C15_2 C7_2 1_555 1_555
C16_2 C15_2 1_555 1_555
C17_2 O8_2 1_555 1_555
H12_2 C17_2 1_555 1_555
H13_2 C17_2 1_555 1_555
C18_2 C17_2 1_555 1_555
H14_2 C18_2 1_555 1_555
H15_2 C18_2 1_555 1_555
H16_2 C18_2 1_555 1_555
C19_2 C16_2 1_555 1_555
H17_2 C19_2 1_555 1_555
C20_2 C19_2 1_555 1_555
C21_2 C20_2 1_555 1_555
C22_2 C20_2 1_555 1_555
C23_2 C22_2 1_555 1_555
H18_2 C23_2 1_555 1_555
C24_2 C23_2 1_555 1_555
C26_2 C24_2 1_555 1_555
C27_2 C26_2 1_555 1_555
H20_2 C27_2 1_555 1_555
C28_2 C15_2 1_555 1_555
C8_2 C14_2 1_555 1_555
C22_2 C28_2 1_555 1_555
C27_2 C28_2 1_555 1_555
O9 C12_2 1_555 1_555
H39_2 C37_2 1_555 1_555
H40_2 C37_2 1_555 1_555
H41_2 C37_2 1_555 1_555

#END
