
###############################################################################
#
# This file contains modified crystal structure data generated from the
# MOF subset of the Cambridge Structural Database (CSD) v543 
# hosted by the Cambridge Crystallographic Data Centre (CCDC).
#
# This work is licensed under the Creative Commons
# Attribution-NonCommercial-ShareAlike 4.0 International License.
# To view a copy of this license, visit
# http://creativecommons.org/licenses/by-nc-sa/4.0/
# or send a letter to
# Creative Commons, PO Box 1866, Mountain View, CA 94042, USA.
#
# CIF created using the CSD Python API on 29 September 2022
# The structure has been converted into the P1 space group
# The structure has a 3D framework
# The original CSD entry IDIWOH02 is in the triclinic crystal system
# The original CSD entry IDIWOH02 is in a Sohncke space group
# The framework has been calculated to contain at least 10.0% void space
# The void calculation uses a probe of radius 1.32A, grid spacing 0.4
#
###############################################################################

data_IDIWOH02
_chemical_formula_moiety         '(C32 H16 O16 V4)n'
_symmetry_cell_setting           triclinic
_symmetry_space_group_name_H-M   'P 1'
_symmetry_Int_Tables_number      1
_space_group_name_Hall           'P 1'
loop_
_symmetry_equiv_pos_site_id
_symmetry_equiv_pos_as_xyz
1 x,y,z
_cell_length_a                   16.40819
_cell_length_b                   13.83627
_cell_length_c                   6.84223
_cell_angle_alpha                90.00011
_cell_angle_beta                 90.17879
_cell_angle_gamma                90.00002
_cell_volume                     1553.37
loop_
_atom_site_label
_atom_site_type_symbol
_atom_site_fract_x
_atom_site_fract_y
_atom_site_fract_z
_atom_site_U_iso_or_equiv
_atom_site_thermal_displace_type
O16 O 0.163706 0.161140 0.162582 0.0127 Uiso
C16 C 0.036995 0.025378 0.180162 0.0127 Uiso
C19 C 0.064865 0.063904 0.002728 0.0127 Uiso
H16 H 0.067849 0.045839 0.315189 0.0127 Uiso
V11 V 0.249009 0.261230 0.218505 0.0127 Uiso
O2 O 0.161314 0.156676 0.830497 0.0127 Uiso
C2 C 0.026314 0.038431 0.826663 0.0127 Uiso
C20 C 0.135091 0.132065 0.998750 0.0127 Uiso
H2 H 0.048702 0.069269 0.690594 0.0127 Uiso
V14 V 0.249009 0.238728 0.718505 0.0127 Uiso
O5 O 0.163703 0.338814 0.662583 0.0127 Uiso
O11 O 0.161310 0.343278 0.330497 0.0127 Uiso
C5 C 0.036994 0.474578 0.680160 0.0127 Uiso
C11 C 0.026303 0.461509 0.326665 0.0127 Uiso
C25 C 0.064859 0.436045 0.502728 0.0127 Uiso
C26 C 0.135087 0.367888 0.498749 0.0127 Uiso
H5 H 0.067852 0.454124 0.815186 0.0127 Uiso
H11 H 0.048686 0.430666 0.190598 0.0127 Uiso
V6 V 0.749009 0.738727 0.218503 0.0127 Uiso
V2 V 0.749010 0.761231 0.718503 0.0127 Uiso
O1 O 0.661311 0.656679 0.330495 0.0127 Uiso
O3 O 0.838802 0.666154 0.667122 0.0127 Uiso
O4 O 0.338804 0.166157 0.167124 0.0127 Uiso
O7 O 0.331879 0.348165 0.336593 0.0127 Uiso
O9 O 0.338802 0.333803 0.667125 0.0127 Uiso
O10 O 0.838804 0.833800 0.167124 0.0127 Uiso
O13 O 0.831878 0.651791 0.336591 0.0127 Uiso
O15 O 0.663704 0.661144 0.662581 0.0127 Uiso
O17 O 0.748923 0.695474 0.992716 0.0127 Uiso
O18 O 0.248925 0.195474 0.492718 0.0127 Uiso
O19 O 0.248923 0.304484 0.992718 0.0127 Uiso
O20 O 0.748925 0.804484 0.492716 0.0127 Uiso
C1 C 0.526308 0.538440 0.326663 0.0127 Uiso
C3 C 0.971397 0.538312 0.681284 0.0127 Uiso
C4 C 0.471395 0.038308 0.181286 0.0127 Uiso
C7 C 0.460560 0.475312 0.327914 0.0127 Uiso
C9 C 0.471397 0.461648 0.681286 0.0127 Uiso
C10 C 0.971399 0.961645 0.181286 0.0127 Uiso
C13 C 0.960555 0.524637 0.327915 0.0127 Uiso
C15 C 0.536993 0.525381 0.680161 0.0127 Uiso
C17 C 0.564861 0.563909 0.502728 0.0127 Uiso
C18 C 0.635088 0.632069 0.498749 0.0127 Uiso
C21 C 0.932832 0.563594 0.505128 0.0127 Uiso
C22 C 0.862786 0.632042 0.503368 0.0127 Uiso
C23 C 0.432836 0.063601 0.005129 0.0127 Uiso
C24 C 0.362790 0.132046 0.003369 0.0127 Uiso
C29 C 0.432834 0.436360 0.505129 0.0127 Uiso
C30 C 0.362787 0.367914 0.503369 0.0127 Uiso
C31 C 0.932838 0.936355 0.005129 0.0127 Uiso
C32 C 0.862791 0.867910 0.003368 0.0127 Uiso
H1 H 0.548694 0.569279 0.190595 0.0127 Uiso
H3 H 0.949163 0.569501 0.817246 0.0127 Uiso
H4 H 0.449155 0.069488 0.317252 0.0127 Uiso
H7 H 0.429598 0.455177 0.192916 0.0127 Uiso
H9 H 0.449159 0.430463 0.817250 0.0127 Uiso
H10 H 0.949160 0.930462 0.317251 0.0127 Uiso
H13 H 0.929589 0.544767 0.192917 0.0127 Uiso
H15 H 0.567848 0.545840 0.815188 0.0127 Uiso
O23 O 0.663705 0.838817 0.162582 0.0127 Uiso
O24 O 0.831882 0.848161 0.836592 0.0127 Uiso
O26 O 0.661314 0.843283 0.830496 0.0127 Uiso
O27 O 0.331881 0.151796 0.836592 0.0127 Uiso
C8 C 0.960567 0.975304 0.827913 0.0127 Uiso
C14 C 0.460567 0.024654 0.827912 0.0127 Uiso
H8 H 0.929605 0.955167 0.692914 0.0127 Uiso
H14 H 0.429607 0.044793 0.692912 0.0127 Uiso
C6 C 0.536992 0.974575 0.180162 0.0127 Uiso
C27 C 0.564864 0.936052 0.002727 0.0127 Uiso
H6 H 0.567844 0.954112 0.315190 0.0127 Uiso
C12 C 0.526314 0.961527 0.826662 0.0127 Uiso
C28 C 0.635091 0.867892 0.998748 0.0127 Uiso
H12 H 0.548704 0.930691 0.690592 0.0127 Uiso
loop_
_geom_bond_atom_site_label_1
_geom_bond_atom_site_label_2
_geom_bond_site_symmetry_1
_geom_bond_site_symmetry_2
C16 C19 1_555 1_555
H16 C16 1_555 1_555
V11 O16 1_555 1_555
O2 C20 1_555 1_555
H2 C2 1_555 1_555
V14 O2 1_555 1_555
O5 C26 1_555 1_555
O11 C26 1_555 1_555
C5 C25 1_555 1_555
C25 C11 1_555 1_555
C26 C25 1_555 1_555
H5 C5 1_555 1_555
H11 C11 1_555 1_555
V11 O11 1_555 1_555
V14 O5 1_555 1_555
V6 O1 1_555 1_555
V2 O3 1_555 1_555
V11 O4 1_555 1_555
V14 O9 1_555 1_555
O1 C18 1_555 1_555
O3 C22 1_555 1_555
O4 C24 1_555 1_555
O7 V11 1_555 1_555
O9 C30 1_555 1_555
O10 V6 1_555 1_555
O13 V6 1_555 1_555
O15 V2 1_555 1_555
O17 V2 1_555 1_555
O18 V11 1_555 1_555
O19 V14 1_555 1_555
O20 V6 1_555 1_555
C1 C7 1_555 1_555
C7 C29 1_555 1_555
C9 C15 1_555 1_555
C13 C21 1_555 1_555
C15 C17 1_555 1_555
C17 C1 1_555 1_555
C18 O15 1_555 1_555
C21 C3 1_555 1_555
C22 O13 1_555 1_555
C23 C4 1_555 1_555
C24 C23 1_555 1_555
C29 C9 1_555 1_555
C30 O7 1_555 1_555
C31 C10 1_555 1_555
C32 O10 1_555 1_555
H1 C1 1_555 1_555
H3 C3 1_555 1_555
H4 C4 1_555 1_555
H7 C7 1_555 1_555
H9 C9 1_555 1_555
H10 C10 1_555 1_555
H13 C13 1_555 1_555
H15 C15 1_555 1_555
O23 V6 1_555 1_555
O24 V2 1_555 1_555
O26 V2 1_555 1_555
O27 V14 1_555 1_555
V2 O20 1_555 1_555
V14 O18 1_555 1_555
C17 C18 1_555 1_555
C21 C22 1_555 1_555
C29 C30 1_555 1_555
C31 C32 1_555 1_555
H8 C8 1_555 1_555
H14 C14 1_555 1_555
C6 C27 1_555 1_555
H6 C6 1_555 1_555
O26 C28 1_555 1_555
H12 C12 1_555 1_555

#END
