
###############################################################################
#
# This file contains modified crystal structure data generated from the
# MOF subset of the Cambridge Structural Database (CSD) v543 
# hosted by the Cambridge Crystallographic Data Centre (CCDC).
#
# This work is licensed under the Creative Commons
# Attribution-NonCommercial-ShareAlike 4.0 International License.
# To view a copy of this license, visit
# http://creativecommons.org/licenses/by-nc-sa/4.0/
# or send a letter to
# Creative Commons, PO Box 1866, Mountain View, CA 94042, USA.
#
# CIF created using the CSD Python API on 29 September 2022
# The structure has been converted into the P1 space group
# The structure has a 3D framework
# The original CSD entry IDUSIM is in the monoclinic crystal system
# The framework has been calculated to contain at least 10.0% void space
# The void calculation uses a probe of radius 1.32A, grid spacing 0.4
#
###############################################################################

data_IDUSIM
_chemical_formula_moiety         '(C56 H32 Cu4 N8 O18)n'
_symmetry_cell_setting           triclinic
_symmetry_space_group_name_H-M   'P 1'
_symmetry_Int_Tables_number      1
_space_group_name_Hall           'P 1'
loop_
_symmetry_equiv_pos_site_id
_symmetry_equiv_pos_as_xyz
1 x,y,z
_cell_length_a                   8.5188(12)
_cell_length_b                   10.2071(14)
_cell_length_c                   17.775(3)
_cell_angle_alpha                90
_cell_angle_beta                 103.329(3)
_cell_angle_gamma                90
_cell_volume                     1503.94
loop_
_atom_site_label
_atom_site_type_symbol
_atom_site_fract_x
_atom_site_fract_y
_atom_site_fract_z
H2 H 0.3566 0.0905 0.0147
O4 O 0.5327(2) 0.28582(17) 0.05490(9)
Cu4 Cu 0.67520(4) 0.44465(3) 0.06679(2)
H1 H 0.1897 0.9464 0.7982
N1 N 0.1737(2) 0.8992(2) 0.93614(12)
H8 H 0.1393 0.8360 0.9027
N3 N 0.3313(2) 0.9239(2) 0.54692(12)
C13 C 0.9310(3) 0.6403(3) 0.10508(14)
H6 H 0.9307 0.6176 0.1569
N2 N 0.8313(2) 0.5761(2) 0.04692(12)
C11 C 0.9332(3) 0.7050(3) 0.95696(14)
H4 H 0.9317 0.7256 0.9047
C12 C 0.8344(3) 0.6084(3) 0.97424(14)
H5 H 0.7655 0.5628 0.9329
O6 O 0.9209(2) 0.89362(18) 0.54322(10)
O7 O 0.4209(2) 0.60638(18) 0.04322(10)
Cu3 Cu 0.82480(4) 0.94465(3) 0.43321(2)
C8 C 0.9841(3) 0.7944(2) 0.51730(13)
O4_2 O 0.9673(2) 0.78582(17) 0.44510(9)
C1 C 0.6905(3) 0.8802(2) 0.28463(14)
C2 C 0.6738(3) 0.8892(2) 0.19873(13)
C3 C 0.7508(3) 0.9896(2) 0.16818(14)
C4 C 0.7420(3) 0.9976(2) 0.08925(14)
C5 C 0.6520(3) 0.9046(2) 0.03952(14)
C6 C 0.5752(3) 0.8049(2) 0.07071(13)
C7 C 0.5851(3) 0.7955(2) 0.14987(14)
H3 H 0.5324 0.7265 0.1701
C8_2 C 0.4841(3) 0.7056(2) 0.01730(13)
O1 O 0.7847(2) 0.96650(17) 0.32454(9)
O2 O 0.6173(2) 0.79561(18) 0.31246(10)
C1_2 C 0.8095(3) 0.3802(2) 0.21537(14)
C2_2 C 0.8262(3) 0.3892(2) 0.30127(13)
C3_2 C 0.7492(3) 0.4896(2) 0.33182(14)
H1_2 H 0.6897 0.5536 0.2982
C4_2 C 0.7580(3) 0.4976(2) 0.41075(14)
C5_2 C 0.8480(3) 0.4046(2) 0.46048(14)
H2_2 H 0.8566 0.4095 0.5147
C6_2 C 0.9248(3) 0.3049(2) 0.42929(13)
C7_2 C 0.9149(3) 0.2955(2) 0.35013(14)
H3_2 H 0.9676 0.2265 0.3299
C9 C 0.6398(3) 0.6132(2) 0.50651(14)
C10 C 0.5349(3) 0.7279(2) 0.51665(14)
C11_2 C 0.4332(3) 0.7950(3) 0.45696(14)
H4_2 H 0.4317 0.7744 0.4047
C12_2 C 0.3344(3) 0.8916(3) 0.47424(14)
H5_2 H 0.2655 0.9372 0.4329
C13_2 C 0.4310(3) 0.8597(3) 0.60508(14)
H6_2 H 0.4307 0.8824 0.6569
C14 C 0.5331(3) 0.7628(3) 0.59208(15)
H7 H 0.6022 0.7197 0.6344
N1_2 N 0.6737(2) 0.6008(2) 0.43614(12)
H8_2 H 0.6393 0.6640 0.4027
O1_2 O 0.7153(2) 0.46650(17) 0.17546(9)
O2_2 O 0.8827(2) 0.29561(18) 0.18754(10)
O5 O 0.6870(3) 0.5381(2) 0.56014(11)
Cu1 Cu 0.17520(4) 0.05535(3) 0.56679(2)
C1_3 C 0.3095(3) 0.1198(2) 0.71537(14)
C2_3 C 0.3262(3) 0.1108(2) 0.80127(13)
C3_3 C 0.2492(3) 0.0104(2) 0.83182(14)
C4_3 C 0.2580(3) 0.0024(2) 0.91075(14)
C5_3 C 0.3480(3) 0.0954(2) 0.96048(14)
C6_3 C 0.4248(3) 0.1951(2) 0.92929(13)
C7_3 C 0.4149(3) 0.2045(2) 0.85013(14)
H3_3 H 0.4676 0.2735 0.8299
C8_3 C 0.5159(3) 0.2944(2) 0.98270(13)
O1_3 O 0.2153(2) 0.03350(17) 0.67546(9)
O2_3 O 0.3827(2) 0.20439(18) 0.68754(10)
O3 O 0.5791(2) 0.39362(18) 0.95678(10)
Cu2 Cu 0.32480(4) 0.55535(3) 0.93321(2)
O7_2 O 0.0791(2) 0.10638(18) 0.45678(10)
O8 O 0.0327(2) 0.21418(17) 0.55490(9)
C1_4 C 0.1905(3) 0.6198(2) 0.78463(14)
C2_4 C 0.1738(3) 0.6108(2) 0.69873(13)
C3_4 C 0.2508(3) 0.5104(2) 0.66818(14)
H1_3 H 0.3103 0.4464 0.7018
C4_4 C 0.2420(3) 0.5024(2) 0.58925(14)
C5_4 C 0.1520(3) 0.5954(2) 0.53952(14)
H2_3 H 0.1434 0.5905 0.4853
C6_4 C 0.0752(3) 0.6951(2) 0.57071(13)
C7_4 C 0.0851(3) 0.7045(2) 0.64987(14)
H3_4 H 0.0324 0.7735 0.6701
C9_2 C 0.3602(3) 0.3868(2) 0.49349(14)
C10_2 C 0.4651(3) 0.2721(2) 0.48335(14)
C11_3 C 0.5668(3) 0.2050(3) 0.54304(14)
H4_3 H 0.5683 0.2256 0.5953
C12_3 C 0.6656(3) 0.1084(3) 0.52576(14)
H5_3 H 0.7345 0.0628 0.5671
C13_3 C 0.5690(3) 0.1403(3) 0.39492(14)
H6_3 H 0.5693 0.1176 0.3431
C14_2 C 0.4669(3) 0.2372(3) 0.40792(15)
H7_2 H 0.3978 0.2803 0.3656
N1_3 N 0.3263(2) 0.3992(2) 0.56386(12)
H8_3 H 0.3607 0.3360 0.5973
N2_2 N 0.6687(2) 0.0761(2) 0.45308(12)
O1_4 O 0.2847(2) 0.53350(17) 0.82454(9)
O2_4 O 0.1173(2) 0.70439(18) 0.81246(10)
O5_2 O 0.3130(3) 0.4619(2) 0.43986(11)
N3_2 N 0.1687(2) 0.4239(2) 0.95308(12)
O8_2 O 0.4673(2) 0.71418(17) 0.94510(9)
C11_4 C 0.0668(3) 0.2950(3) 0.04304(14)
H4_4 H 0.0683 0.2744 0.0953
C12_4 C 0.1656(3) 0.3916(3) 0.02576(14)
H5_4 H 0.2345 0.4372 0.0671
C13_4 C 0.0690(3) 0.3597(3) 0.89492(14)
H6_4 H 0.0693 0.3824 0.8431
H1_4 H 0.8103 0.0536 0.2018
N1_4 N 0.8263(2) 0.1008(2) 0.06386(12)
H8_4 H 0.8607 0.1640 0.0973
H2_4 H 0.6434 0.9095 0.9853
C8_4 C 0.0159(3) 0.2056(2) 0.48270(13)
C9_3 C 0.1398(3) 0.8868(2) 0.00651(14)
C10_3 C 0.0349(3) 0.7721(2) 0.01665(14)
C14_3 C 0.0331(3) 0.7372(3) 0.09208(15)
H7_3 H 0.1022 0.7803 0.1344
O5_3 O 0.1870(3) 0.9619(2) 0.06014(11)
C9_4 C 0.8602(3) 0.1132(2) 0.99349(14)
C10_4 C 0.9651(3) 0.2279(2) 0.98335(14)
C14_4 C 0.9669(3) 0.2628(3) 0.90792(15)
H7_4 H 0.8978 0.2197 0.8656
O5_4 O 0.8130(3) 0.0381(2) 0.93986(11)
loop_
_geom_bond_atom_site_label_1
_geom_bond_atom_site_label_2
_geom_bond_site_symmetry_1
_geom_bond_site_symmetry_2
O4 Cu4 1_555 1_555
H8 N1 1_555 1_555
C13 H6 1_555 1_555
Cu4 N2 1_555 1_555
C13 N2 1_555 1_555
C11 H4 1_555 1_555
C12 C11 1_555 1_555
H5 C12 1_555 1_555
O6 C8 1_555 1_555
O4_2 C8 1_555 1_555
Cu3 O6 1_555 1_555
O4_2 Cu3 1_555 1_555
Cu3 O1 1_555 1_555
C1 C2 1_555 1_555
C2 C3 1_555 1_555
C4 C3 1_555 1_555
C5 C4 1_555 1_555
C6 C5 1_555 1_555
C7 C2 1_555 1_555
H3 C7 1_555 1_555
C8_2 C6 1_555 1_555
O1 C1 1_555 1_555
O2 C1 1_555 1_555
O7 C8_2 1_555 1_555
Cu4 O7 1_555 1_555
C6 C7 1_555 1_555
Cu4 O1_2 1_555 1_555
C1_2 C2_2 1_555 1_555
C2_2 C3_2 1_555 1_555
C3_2 H1_2 1_555 1_555
C4_2 C3_2 1_555 1_555
C5_2 C4_2 1_555 1_555
H2_2 C5_2 1_555 1_555
C6_2 C5_2 1_555 1_555
C7_2 C2_2 1_555 1_555
H3_2 C7_2 1_555 1_555
C9 C10 1_555 1_555
C10 C11_2 1_555 1_555
C11_2 H4_2 1_555 1_555
C12_2 C11_2 1_555 1_555
H5_2 C12_2 1_555 1_555
C13_2 H6_2 1_555 1_555
C14 C10 1_555 1_555
H7 C14 1_555 1_555
N1_2 C4_2 1_555 1_555
H8_2 N1_2 1_555 1_555
N3 C12_2 1_555 1_555
O1_2 C1_2 1_555 1_555
O2_2 C1_2 1_555 1_555
O5 C9 1_555 1_555
C6_2 C7_2 1_555 1_555
C9 N1_2 1_555 1_555
C13_2 C14 1_555 1_555
C13_2 N3 1_555 1_555
Cu1 O1_3 1_555 1_555
C1_3 C2_3 1_555 1_555
C2_3 C3_3 1_555 1_555
C4_3 C3_3 1_555 1_555
C5_3 C4_3 1_555 1_555
C6_3 C5_3 1_555 1_555
C7_3 C2_3 1_555 1_555
H3_3 C7_3 1_555 1_555
C8_3 C6_3 1_555 1_555
O1_3 C1_3 1_555 1_555
O2_3 C1_3 1_555 1_555
O3 C8_3 1_555 1_555
Cu2 O3 1_555 1_555
O7_2 Cu1 1_555 1_555
O8 Cu1 1_555 1_555
C6_3 C7_3 1_555 1_555
Cu2 O1_4 1_555 1_555
C1_4 C2_4 1_555 1_555
C2_4 C3_4 1_555 1_555
C3_4 H1_3 1_555 1_555
C4_4 C3_4 1_555 1_555
C5_4 C4_4 1_555 1_555
H2_3 C5_4 1_555 1_555
C6_4 C5_4 1_555 1_555
C7_4 C2_4 1_555 1_555
H3_4 C7_4 1_555 1_555
C9_2 C10_2 1_555 1_555
C10_2 C11_3 1_555 1_555
C11_3 H4_3 1_555 1_555
C12_3 C11_3 1_555 1_555
H5_3 C12_3 1_555 1_555
C13_3 H6_3 1_555 1_555
C14_2 C10_2 1_555 1_555
H7_2 C14_2 1_555 1_555
N1_3 C4_4 1_555 1_555
H8_3 N1_3 1_555 1_555
N2_2 C12_3 1_555 1_555
O1_4 C1_4 1_555 1_555
O2_4 C1_4 1_555 1_555
O5_2 C9_2 1_555 1_555
N3_2 Cu2 1_555 1_555
O8_2 Cu2 1_555 1_555
C6_4 C7_4 1_555 1_555
C9_2 N1_3 1_555 1_555
C13_3 C14_2 1_555 1_555
C13_3 N2_2 1_555 1_555
C11_4 H4_4 1_555 1_555
C12_4 C11_4 1_555 1_555
H5_4 C12_4 1_555 1_555
C13_4 H6_4 1_555 1_555
C13_4 N3_2 1_555 1_555
H8_4 N1_4 1_555 1_555
O7_2 C8_4 1_555 1_555
O8 C8_4 1_555 1_555
C9_3 C10_3 1_555 1_555
C14_3 C10_3 1_555 1_555
H7_3 C14_3 1_555 1_555
O5_3 C9_3 1_555 1_555
C9_4 C10_4 1_555 1_555
C14_4 C10_4 1_555 1_555
H7_4 C14_4 1_555 1_555
O5_4 C9_4 1_555 1_555

#END
