
###############################################################################
#
# This file contains modified crystal structure data generated from the
# MOF subset of the Cambridge Structural Database (CSD) v543 
# hosted by the Cambridge Crystallographic Data Centre (CCDC).
#
# This work is licensed under the Creative Commons
# Attribution-NonCommercial-ShareAlike 4.0 International License.
# To view a copy of this license, visit
# http://creativecommons.org/licenses/by-nc-sa/4.0/
# or send a letter to
# Creative Commons, PO Box 1866, Mountain View, CA 94042, USA.
#
# CIF created using the CSD Python API on 29 September 2022
# The structure has been converted into the P1 space group
# The structure has a 3D framework
# The original CSD entry IDUTEJ is in the monoclinic crystal system
# The framework has been calculated to contain at least 10.0% void space
# The void calculation uses a probe of radius 1.32A, grid spacing 0.4
#
###############################################################################

data_IDUTEJ
_chemical_formula_moiety         '(C56 H32 Cu4 N8 O18)n'
_symmetry_cell_setting           triclinic
_symmetry_space_group_name_H-M   'P 1'
_symmetry_Int_Tables_number      1
_space_group_name_Hall           'P 1'
loop_
_symmetry_equiv_pos_site_id
_symmetry_equiv_pos_as_xyz
1 x,y,z
_cell_length_a                   7.9968(16)
_cell_length_b                   10.6693(19)
_cell_length_c                   17.695(3)
_cell_angle_alpha                90
_cell_angle_beta                 103.904(5)
_cell_angle_gamma                90
_cell_volume                     1465.51
loop_
_atom_site_label
_atom_site_type_symbol
_atom_site_fract_x
_atom_site_fract_y
_atom_site_fract_z
C1 C 0.1654(3) 0.6427(2) 0.60677(13)
H1 H 0.2180 0.6179 0.6586
N1 N 0.2061(2) 0.58055(18) 0.54731(11)
C12 C 0.0503(3) 0.7410(2) 0.59503(13)
H5 H 0.0235 0.7825 0.6381
C13 C 0.1309(3) 0.6162(2) 0.47402(13)
H6 H 0.1582 0.5720 0.4319
C14 C 0.0152(3) 0.7149(2) 0.45766(13)
Cu4 Cu 0.38522(3) 0.44823(2) 0.567054(14)
O1 O 0.5187(2) 0.29430(15) 0.55629(9)
O2 O 0.3761(2) 0.40103(15) 0.45630(9)
C2 C 0.4640(3) 0.3036(2) 0.48309(12)
Cu1 Cu 0.38522(3) 0.05177(2) 0.067054(14)
O4 O 0.4391(2) 0.03925(15) 0.17641(9)
O5 O 0.3139(2) 0.22453(16) 0.18646(9)
C3 C 0.5014(3) 0.2054(2) 0.43019(12)
C4 C 0.6433(3) 0.0123(2) 0.41294(12)
C5 C 0.4698(3) 0.1229(2) 0.30187(12)
C6 C 0.5734(3) 0.0211(2) 0.33315(12)
C7 C 0.4000(3) 0.1331(2) 0.21500(12)
C8 C 0.6063(3) 0.1051(2) 0.46278(12)
H3 H 0.6517 0.0997 0.5175
C10 C 0.4329(3) 0.2161(2) 0.35033(12)
H4 H 0.3626 0.2856 0.3294
O6 O 0.5187(2) 0.20570(15) 0.05629(9)
Cu2 Cu 0.61478(3) 0.55177(2) 0.432946(14)
O8 O 0.3761(2) 0.09897(15) 0.95630(9)
O3 O 0.8791(2) 0.96989(16) 0.56335(9)
N2 N 0.7497(2) 0.90838(19) 0.43939(11)
H2 H 0.5963 0.9573 0.2996
C9 C 0.8616(3) 0.8949(2) 0.50952(12)
C11 C 0.9735(3) 0.7788(2) 0.51924(13)
H7 H 0.9653 0.7385 0.4053
H8 H 0.743(4) 0.860(3) 0.4133(18)
N3 N 0.2061(2) 0.91945(18) 0.04731(11)
O7 O 0.6239(2) 0.90103(15) 0.04370(9)
C2_2 C 0.5360(3) 0.8036(2) 0.01691(12)
O4_2 O 0.5609(2) 0.53925(15) 0.32359(9)
N2_2 N 0.2503(2) 0.40838(19) 0.06061(11)
O5_2 O 0.6861(2) 0.72453(16) 0.31354(9)
C3_2 C 0.4986(3) 0.7054(2) 0.06981(12)
C4_2 C 0.3567(3) 0.5123(2) 0.08706(12)
C5_2 C 0.5302(3) 0.6229(2) 0.19813(12)
C6_2 C 0.4266(3) 0.5211(2) 0.16685(12)
H2_2 H 0.4037 0.4573 0.2004
C7_2 C 0.6000(3) 0.6331(2) 0.28500(12)
C8_2 C 0.3937(3) 0.6051(2) 0.03722(12)
C10_2 C 0.5671(3) 0.7161(2) 0.14967(12)
H4_2 H 0.6374 0.7856 0.1706
H7_2 H 0.0347 0.2385 0.0947
H8_2 H 0.257(4) 0.360(3) 0.0867(18)
N3_2 N 0.7939(2) 0.41945(18) 0.45269(11)
O6_2 O 0.4813(2) 0.70570(15) 0.44371(9)
O8_2 O 0.6239(2) 0.59897(15) 0.54370(9)
O1_2 O 0.4813(2) 0.79430(15) 0.94371(9)
O3_2 O 0.1209(2) 0.46989(16) 0.93665(9)
H3_2 H 0.3483 0.5997 0.9825
C9_2 C 0.1384(3) 0.3949(2) 0.99048(12)
C11_2 C 0.0265(3) 0.2788(2) 0.98076(13)
Cu3 Cu 0.61478(3) 0.94823(2) 0.932946(14)
C1_2 C 0.8346(3) 0.1427(2) 0.89323(13)
H1_2 H 0.7820 0.1179 0.8414
N1_2 N 0.7939(2) 0.08055(18) 0.95269(11)
C12_2 C 0.9497(3) 0.2410(2) 0.90497(13)
H5_2 H 0.9765 0.2825 0.8619
O3_3 O 0.1209(2) 0.03011(16) 0.43665(9)
N2_3 N 0.2503(2) 0.09162(19) 0.56061(11)
H2_3 H 0.4037 0.0427 0.7004
C9_3 C 0.1384(3) 0.1051(2) 0.49048(12)
C11_3 C 0.0265(3) 0.2212(2) 0.48076(13)
H7_3 H 0.0347 0.2615 0.5947
H8_3 H 0.257(4) 0.140(3) 0.5867(18)
C2_3 C 0.5360(3) 0.6964(2) 0.51691(12)
O4_3 O 0.5609(2) 0.96075(15) 0.82359(9)
O5_3 O 0.6861(2) 0.77547(16) 0.81354(9)
C3_3 C 0.4986(3) 0.7946(2) 0.56981(12)
C4_3 C 0.3567(3) 0.9877(2) 0.58706(12)
C5_3 C 0.5302(3) 0.8771(2) 0.69813(12)
C6_3 C 0.4266(3) 0.9789(2) 0.66685(12)
C7_3 C 0.6000(3) 0.8669(2) 0.78500(12)
C8_3 C 0.3937(3) 0.8949(2) 0.53722(12)
H3_3 H 0.3483 0.9003 0.4825
C10_3 C 0.5671(3) 0.7839(2) 0.64967(12)
H4_3 H 0.6374 0.7144 0.6706
C1_3 C 0.8346(3) 0.3573(2) 0.39323(13)
H1_3 H 0.7820 0.3821 0.3414
C12_3 C 0.9497(3) 0.2590(2) 0.40497(13)
H5_3 H 0.9765 0.2175 0.3619
C13_2 C 0.8691(3) 0.3838(2) 0.52598(13)
H6_2 H 0.8418 0.4280 0.5681
C14_2 C 0.9848(3) 0.2851(2) 0.54234(13)
C1_4 C 0.1654(3) 0.8573(2) 0.10677(13)
H1_4 H 0.2180 0.8821 0.1586
C12_4 C 0.0503(3) 0.7590(2) 0.09503(13)
H5_4 H 0.0235 0.7175 0.1381
O3_4 O 0.8791(2) 0.53011(16) 0.06335(9)
H3_4 H 0.6517 0.4003 0.0175
C9_4 C 0.8616(3) 0.6051(2) 0.00952(12)
C11_4 C 0.9735(3) 0.7212(2) 0.01924(13)
C2_4 C 0.4640(3) 0.1964(2) 0.98309(12)
O4_4 O 0.4391(2) 0.46075(15) 0.67641(9)
N2_4 N 0.7497(2) 0.59162(19) 0.93939(11)
O5_4 O 0.3139(2) 0.27547(16) 0.68646(9)
C3_4 C 0.5014(3) 0.2946(2) 0.93019(12)
C4_4 C 0.6433(3) 0.4877(2) 0.91294(12)
C5_4 C 0.4698(3) 0.3771(2) 0.80187(12)
C6_4 C 0.5734(3) 0.4789(2) 0.83315(12)
H2_4 H 0.5963 0.5427 0.7996
C7_4 C 0.4000(3) 0.3669(2) 0.71500(12)
C8_4 C 0.6063(3) 0.3949(2) 0.96278(12)
C10_4 C 0.4329(3) 0.2839(2) 0.85033(12)
H4_4 H 0.3626 0.2144 0.8294
H7_4 H 0.9653 0.7615 0.9053
H8_4 H 0.743(4) 0.640(3) 0.9133(18)
C13_3 C 0.8691(3) 0.1162(2) 0.02598(13)
H6_3 H 0.8418 0.0720 0.0681
C14_3 C 0.9848(3) 0.2149(2) 0.04234(13)
C13_4 C 0.1309(3) 0.8838(2) 0.97402(13)
H6_4 H 0.1582 0.9280 0.9319
C14_4 C 0.0152(3) 0.7851(2) 0.95766(13)
loop_
_geom_bond_atom_site_label_1
_geom_bond_atom_site_label_2
_geom_bond_site_symmetry_1
_geom_bond_site_symmetry_2
C1 H1 1_555 1_555
N1 C1 1_555 1_555
C12 C1 1_555 1_555
H5 C12 1_555 1_555
C13 N1 1_555 1_555
H6 C13 1_555 1_555
Cu4 N1 1_555 1_555
C13 C14 1_555 1_555
O1 C2 1_555 1_555
O2 C2 1_555 1_555
C2 C3 1_555 1_555
Cu1 O4 1_555 1_555
O4 C7 1_555 1_555
O5 C7 1_555 1_555
C3 C8 1_555 1_555
C4 C6 1_555 1_555
C5 C6 1_555 1_555
C7 C5 1_555 1_555
C8 C4 1_555 1_555
H3 C8 1_555 1_555
C10 C3 1_555 1_555
H4 C10 1_555 1_555
O6 Cu1 1_555 1_555
Cu2 O2 1_555 1_555
Cu4 O1 1_555 1_555
O2 Cu4 1_555 1_555
C5 C10 1_555 1_555
O3 C9 1_555 1_555
C9 N2 1_555 1_555
C11 C9 1_555 1_555
H8 N2 1_555 1_555
O7 C2_2 1_555 1_555
C2_2 C3_2 1_555 1_555
Cu2 O4_2 1_555 1_555
O4_2 C7_2 1_555 1_555
N2_2 C4_2 1_555 1_555
O5_2 C7_2 1_555 1_555
C3_2 C8_2 1_555 1_555
C4_2 C6_2 1_555 1_555
C5_2 C6_2 1_555 1_555
C6_2 H2_2 1_555 1_555
C7_2 C5_2 1_555 1_555
C8_2 C4_2 1_555 1_555
C10_2 C3_2 1_555 1_555
H4_2 C10_2 1_555 1_555
H8_2 N2_2 1_555 1_555
N3_2 Cu2 1_555 1_555
O6_2 Cu2 1_555 1_555
O8_2 Cu2 1_555 1_555
C5_2 C10_2 1_555 1_555
O3_2 C9_2 1_555 1_555
C11_2 C9_2 1_555 1_555
Cu3 O1_2 1_555 1_555
C1_2 H1_2 1_555 1_555
N1_2 C1_2 1_555 1_555
C12_2 C1_2 1_555 1_555
H5_2 C12_2 1_555 1_555
O3_3 C9_3 1_555 1_555
C9_3 N2_3 1_555 1_555
C11_3 C9_3 1_555 1_555
H8_3 N2_3 1_555 1_555
O6_2 C2_3 1_555 1_555
O8_2 C2_3 1_555 1_555
C2_3 C3_3 1_555 1_555
Cu3 O4_3 1_555 1_555
O4_3 C7_3 1_555 1_555
O5_3 C7_3 1_555 1_555
C3_3 C8_3 1_555 1_555
C4_3 C6_3 1_555 1_555
C5_3 C6_3 1_555 1_555
C7_3 C5_3 1_555 1_555
C8_3 C4_3 1_555 1_555
H3_3 C8_3 1_555 1_555
C10_3 C3_3 1_555 1_555
H4_3 C10_3 1_555 1_555
Cu4 O8_2 1_555 1_555
C5_3 C10_3 1_555 1_555
C1_3 H1_3 1_555 1_555
N3_2 C1_3 1_555 1_555
C12_3 C1_3 1_555 1_555
H5_3 C12_3 1_555 1_555
C13_2 N3_2 1_555 1_555
H6_2 C13_2 1_555 1_555
C13_2 C14_2 1_555 1_555
C1_4 H1_4 1_555 1_555
N3 C1_4 1_555 1_555
C12_4 C1_4 1_555 1_555
H5_4 C12_4 1_555 1_555
O3_4 C9_4 1_555 1_555
C11_4 C9_4 1_555 1_555
O8 C2_4 1_555 1_555
C2_4 C3_4 1_555 1_555
Cu4 O4_4 1_555 1_555
O4_4 C7_4 1_555 1_555
N2_4 C4_4 1_555 1_555
O5_4 C7_4 1_555 1_555
C3_4 C8_4 1_555 1_555
C4_4 C6_4 1_555 1_555
C5_4 C6_4 1_555 1_555
C6_4 H2_4 1_555 1_555
C7_4 C5_4 1_555 1_555
C8_4 C4_4 1_555 1_555
C10_4 C3_4 1_555 1_555
H4_4 C10_4 1_555 1_555
H8_4 N2_4 1_555 1_555
C5_4 C10_4 1_555 1_555
H6_3 C13_3 1_555 1_555
C13_3 C14_3 1_555 1_555
H6_4 C13_4 1_555 1_555
C13_4 C14_4 1_555 1_555

#END
