
###############################################################################
#
# This file contains modified crystal structure data generated from the
# MOF subset of the Cambridge Structural Database (CSD) v543 
# hosted by the Cambridge Crystallographic Data Centre (CCDC).
#
# This work is licensed under the Creative Commons
# Attribution-NonCommercial-ShareAlike 4.0 International License.
# To view a copy of this license, visit
# http://creativecommons.org/licenses/by-nc-sa/4.0/
# or send a letter to
# Creative Commons, PO Box 1866, Mountain View, CA 94042, USA.
#
# CIF created using the CSD Python API on 29 September 2022
# The structure has been converted into the P1 space group
# The structure has a 3D framework
# The original CSD entry IDUTIN is in the monoclinic crystal system
# The framework has been calculated to contain at least 10.0% void space
# The void calculation uses a probe of radius 1.32A, grid spacing 0.4
#
###############################################################################

data_IDUTIN
_chemical_formula_moiety         '(C56 H32 Cu4 N8 O18)n'
_symmetry_cell_setting           triclinic
_symmetry_space_group_name_H-M   'P 1'
_symmetry_Int_Tables_number      1
_space_group_name_Hall           'P 1'
loop_
_symmetry_equiv_pos_site_id
_symmetry_equiv_pos_as_xyz
1 x,y,z
_cell_length_a                   8.1456(13)
_cell_length_b                   10.5280(16)
_cell_length_c                   17.657(3)
_cell_angle_alpha                90
_cell_angle_beta                 103.218(5)
_cell_angle_gamma                90
_cell_volume                     1474.09
loop_
_atom_site_label
_atom_site_type_symbol
_atom_site_fract_x
_atom_site_fract_y
_atom_site_fract_z
O1 O 0.2273(2) 0.46528(18) 0.17677(10)
O2 O 0.5793(2) 0.10127(18) 0.45700(10)
C1 C 0.3132(3) 0.3741(2) 0.21564(15)
C2 C 0.3296(3) 0.3823(2) 0.30195(15)
O3 O 0.3790(2) 0.28603(18) 0.18689(10)
C3 C 0.2552(3) 0.4833(3) 0.33292(15)
C4 C 0.4158(3) 0.2884(2) 0.35066(15)
H1 H 0.1971 0.5473 0.2993
C5 C 0.2651(3) 0.4914(2) 0.41244(15)
C6 C 0.4267(3) 0.2981(2) 0.43031(15)
H2 H 0.4663 0.2191 0.3300
C7 C 0.3531(3) 0.3983(2) 0.46235(15)
N2 N 0.1846(3) 0.5957(2) 0.43888(12)
C8 C 0.5172(3) 0.1992(2) 0.48357(14)
H3 H 0.3625 0.4032 0.5169
C9 C 0.1450(3) 0.6073(3) 0.50881(15)
H4 H 0.1575 0.6598 0.4065
O4 O 0.5344(2) 0.20759(17) 0.55630(10)
C10 C 0.0428(3) 0.7232(2) 0.51884(15)
O5 O 0.1837(2) 0.53117(19) 0.56216(10)
C12 C 0.0450(3) 0.7611(3) 0.59472(16)
H6 H 0.1167 0.7195 0.6376
Cu1 Cu 0.17872(5) 0.44820(4) 0.06759(2)
N3 N 0.3395(3) 0.5789(2) 0.04792(13)
O8 O 0.0344(2) 0.29241(17) 0.05630(10)
Cu4 Cu 0.67872(5) 0.05180(4) 0.56759(2)
O7 O 0.0793(2) 0.39873(18) 0.95700(10)
Cu2 Cu 0.32128(5) 0.94820(4) 0.43241(2)
N1 N 0.8395(3) 0.9211(2) 0.54792(13)
C11 C 0.9378(3) 0.7881(3) 0.45811(15)
H5 H 0.9339 0.7653 0.4057
C13 C 0.8391(3) 0.8861(3) 0.47488(15)
C14 C 0.9424(3) 0.8592(3) 0.60704(15)
H7 H 0.7681 0.9304 0.4330
H8 H 0.9443 0.8841 0.6589
O6 O 0.9207(2) 0.60127(18) 0.04300(10)
H1_2 H 0.3029 0.0473 0.2007
N2_2 N 0.3154(3) 0.0957(2) 0.06112(12)
H4_2 H 0.3425 0.1598 0.0935
C11_2 C 0.5622(3) 0.2881(3) 0.04189(15)
H5_2 H 0.5661 0.2653 0.0943
C13_2 C 0.6609(3) 0.3861(3) 0.02512(15)
H7_2 H 0.7319 0.4304 0.0670
N3_2 N 0.1605(3) 0.0789(2) 0.45208(13)
N1_2 N 0.6605(3) 0.4211(2) 0.95208(13)
C9_2 C 0.3550(3) 0.1073(3) 0.99119(15)
C10_2 C 0.4572(3) 0.2232(2) 0.98116(15)
O5_2 O 0.3163(2) 0.03117(19) 0.93784(10)
C12_2 C 0.4550(3) 0.2611(3) 0.90528(16)
C14_2 C 0.5576(3) 0.3592(3) 0.89296(15)
H6_2 H 0.3833 0.2195 0.8624
H8_2 H 0.5557 0.3841 0.8411
Cu3 Cu 0.82128(5) 0.55180(4) 0.93241(2)
O1_2 O 0.2727(2) 0.96528(18) 0.32323(10)
C1_2 C 0.1868(3) 0.8741(2) 0.28436(15)
C2_2 C 0.1704(3) 0.8823(2) 0.19805(15)
O3_2 O 0.1210(2) 0.78603(18) 0.31311(10)
C3_2 C 0.2448(3) 0.9833(3) 0.16708(15)
C4_2 C 0.0842(3) 0.7884(2) 0.14934(15)
C5_2 C 0.2349(3) 0.9914(2) 0.08756(15)
C6_2 C 0.0733(3) 0.7981(2) 0.06969(15)
H2_2 H 0.0337 0.7191 0.1700
C7_2 C 0.1469(3) 0.8983(2) 0.03765(15)
O7_2 O 0.4207(2) 0.89873(18) 0.54300(10)
O8_2 O 0.4656(2) 0.79241(17) 0.44370(10)
C8_2 C 0.9828(3) 0.6992(2) 0.01643(14)
O4_2 O 0.9656(2) 0.70759(17) 0.94370(10)
C11_3 C 0.0622(3) 0.2119(3) 0.54189(15)
H5_3 H 0.0661 0.2347 0.5943
C13_3 C 0.1609(3) 0.1139(3) 0.52512(15)
C14_3 C 0.0576(3) 0.1408(3) 0.39296(15)
H7_3 H 0.2319 0.0696 0.5670
H8_3 H 0.0557 0.1159 0.3411
O1_3 O 0.7727(2) 0.53472(18) 0.82323(10)
C1_3 C 0.6868(3) 0.6259(2) 0.78436(15)
C2_3 C 0.6704(3) 0.6177(2) 0.69805(15)
O3_3 O 0.6210(2) 0.71397(18) 0.81311(10)
C3_3 C 0.7448(3) 0.5167(3) 0.66708(15)
C4_3 C 0.5842(3) 0.7116(2) 0.64934(15)
H1_3 H 0.8029 0.4527 0.7007
C5_3 C 0.7349(3) 0.5086(2) 0.58756(15)
C6_3 C 0.5733(3) 0.7019(2) 0.56969(15)
H2_3 H 0.5337 0.7809 0.6700
C7_3 C 0.6469(3) 0.6017(2) 0.53765(15)
N2_3 N 0.8154(3) 0.4043(2) 0.56112(12)
C8_3 C 0.4828(3) 0.8008(2) 0.51643(14)
H3_2 H 0.6375 0.5968 0.4831
C9_3 C 0.8550(3) 0.3927(3) 0.49119(15)
H4_3 H 0.8425 0.3402 0.5935
C10_3 C 0.9572(3) 0.2768(2) 0.48116(15)
O5_3 O 0.8163(2) 0.46883(19) 0.43784(10)
C12_3 C 0.9550(3) 0.2389(3) 0.40528(16)
H6_3 H 0.8833 0.2805 0.3624
C8_4 C 0.0172(3) 0.3008(2) 0.98357(14)
O1_4 O 0.7273(2) 0.03472(18) 0.67677(10)
C1_4 C 0.8132(3) 0.1259(2) 0.71564(15)
C2_4 C 0.8296(3) 0.1177(2) 0.80195(15)
O3_4 O 0.8790(2) 0.21397(18) 0.68689(10)
C3_4 C 0.7552(3) 0.0167(3) 0.83292(15)
C4_4 C 0.9158(3) 0.2116(2) 0.85066(15)
C5_4 C 0.7651(3) 0.0086(2) 0.91244(15)
C6_4 C 0.9267(3) 0.2019(2) 0.93031(15)
H2_4 H 0.9663 0.2809 0.8300
C7_4 C 0.8531(3) 0.1017(2) 0.96235(15)
C9_4 C 0.6450(3) 0.8927(3) 0.00881(15)
C10_4 C 0.5428(3) 0.7768(2) 0.01884(15)
O5_4 O 0.6837(2) 0.96883(19) 0.06216(10)
C12_4 C 0.5450(3) 0.7389(3) 0.09472(16)
C14_4 C 0.4424(3) 0.6408(3) 0.10704(15)
H6_4 H 0.6167 0.7805 0.1376
H8_4 H 0.4443 0.6159 0.1589
H1_4 H 0.6971 0.9527 0.7993
N2_4 N 0.6846(3) 0.9043(2) 0.93888(12)
H4_4 H 0.6575 0.8402 0.9065
C11_4 C 0.4378(3) 0.7119(3) 0.95811(15)
H5_4 H 0.4339 0.7347 0.9057
C13_4 C 0.3391(3) 0.6139(3) 0.97488(15)
H7_4 H 0.2681 0.5696 0.9330
H3_3 H 0.1375 0.9032 0.9831
H3_4 H 0.8625 0.0968 0.0169
loop_
_geom_bond_atom_site_label_1
_geom_bond_atom_site_label_2
_geom_bond_site_symmetry_1
_geom_bond_site_symmetry_2
O1 C1 1_555 1_555
O2 C8 1_555 1_555
C1 C2 1_555 1_555
C2 C3 1_555 1_555
O3 C1 1_555 1_555
C3 H1 1_555 1_555
C4 C2 1_555 1_555
C5 C3 1_555 1_555
C6 C4 1_555 1_555
H2 C4 1_555 1_555
C7 C5 1_555 1_555
N2 C5 1_555 1_555
C8 C6 1_555 1_555
H3 C7 1_555 1_555
C9 N2 1_555 1_555
H4 N2 1_555 1_555
O4 C8 1_555 1_555
C10 C9 1_555 1_555
O5 C9 1_555 1_555
C12 C10 1_555 1_555
H6 C12 1_555 1_555
Cu1 O1 1_555 1_555
N3 Cu1 1_555 1_555
O8 Cu1 1_555 1_555
Cu4 O2 1_555 1_555
C6 C7 1_555 1_555
O4 Cu4 1_555 1_555
N1 C13 1_555 1_555
H5 C11 1_555 1_555
C13 C11 1_555 1_555
C14 N1 1_555 1_555
H7 C13 1_555 1_555
H8 C14 1_555 1_555
H4_2 N2_2 1_555 1_555
H5_2 C11_2 1_555 1_555
C13_2 C11_2 1_555 1_555
H7_2 C13_2 1_555 1_555
C10_2 C9_2 1_555 1_555
O5_2 C9_2 1_555 1_555
C12_2 C10_2 1_555 1_555
C14_2 N1_2 1_555 1_555
H6_2 C12_2 1_555 1_555
H8_2 C14_2 1_555 1_555
Cu3 N1_2 1_555 1_555
C12_2 C14_2 1_555 1_555
O1_2 C1_2 1_555 1_555
C1_2 C2_2 1_555 1_555
C2_2 C3_2 1_555 1_555
O3_2 C1_2 1_555 1_555
C4_2 C2_2 1_555 1_555
C5_2 C3_2 1_555 1_555
C6_2 C4_2 1_555 1_555
H2_2 C4_2 1_555 1_555
C7_2 C5_2 1_555 1_555
Cu2 O1_2 1_555 1_555
O7_2 Cu2 1_555 1_555
O8_2 Cu2 1_555 1_555
C6_2 C7_2 1_555 1_555
O6 C8_2 1_555 1_555
O4_2 Cu3 1_555 1_555
N3_2 C13_3 1_555 1_555
H5_3 C11_3 1_555 1_555
C13_3 C11_3 1_555 1_555
C14_3 N3_2 1_555 1_555
H7_3 C13_3 1_555 1_555
H8_3 C14_3 1_555 1_555
O1_3 C1_3 1_555 1_555
O7_2 C8_3 1_555 1_555
C1_3 C2_3 1_555 1_555
C2_3 C3_3 1_555 1_555
O3_3 C1_3 1_555 1_555
C3_3 H1_3 1_555 1_555
C4_3 C2_3 1_555 1_555
C5_3 C3_3 1_555 1_555
C6_3 C4_3 1_555 1_555
H2_3 C4_3 1_555 1_555
C7_3 C5_3 1_555 1_555
N2_3 C5_3 1_555 1_555
C8_3 C6_3 1_555 1_555
H3_2 C7_3 1_555 1_555
C9_3 N2_3 1_555 1_555
H4_3 N2_3 1_555 1_555
O8_2 C8_3 1_555 1_555
C10_3 C9_3 1_555 1_555
O5_3 C9_3 1_555 1_555
C12_3 C10_3 1_555 1_555
H6_3 C12_3 1_555 1_555
Cu3 O1_3 1_555 1_555
C6_3 C7_3 1_555 1_555
O7 C8_4 1_555 1_555
O1_4 C1_4 1_555 1_555
C1_4 C2_4 1_555 1_555
C2_4 C3_4 1_555 1_555
O3_4 C1_4 1_555 1_555
C4_4 C2_4 1_555 1_555
C5_4 C3_4 1_555 1_555
C6_4 C4_4 1_555 1_555
H2_4 C4_4 1_555 1_555
C7_4 C5_4 1_555 1_555
Cu4 O1_4 1_555 1_555
C6_4 C7_4 1_555 1_555
C10_4 C9_4 1_555 1_555
O5_4 C9_4 1_555 1_555
C12_4 C10_4 1_555 1_555
C14_4 N3 1_555 1_555
H6_4 C12_4 1_555 1_555
H8_4 C14_4 1_555 1_555
C12_4 C14_4 1_555 1_555
H4_4 N2_4 1_555 1_555
H5_4 C11_4 1_555 1_555
C13_4 C11_4 1_555 1_555
H7_4 C13_4 1_555 1_555

#END
