
###############################################################################
#
# This file contains modified crystal structure data generated from the
# MOF subset of the Cambridge Structural Database (CSD) v543 
# hosted by the Cambridge Crystallographic Data Centre (CCDC).
#
# This work is licensed under the Creative Commons
# Attribution-NonCommercial-ShareAlike 4.0 International License.
# To view a copy of this license, visit
# http://creativecommons.org/licenses/by-nc-sa/4.0/
# or send a letter to
# Creative Commons, PO Box 1866, Mountain View, CA 94042, USA.
#
# CIF created using the CSD Python API on 29 September 2022
# The structure has been converted into the P1 space group
# The structure has a 3D framework
# The original CSD entry IFANOV is in the tetragonal crystal system
# The framework has been calculated to contain at least 10.0% void space
# The void calculation uses a probe of radius 1.32A, grid spacing 0.4
# H atom positions have been added when not included in the experimental data
# Generated hydrogen atom positions removed from atoms on special positions
#
###############################################################################

data_IFANOV
_chemical_formula_moiety         '(C96 H264 O66 Zr18)n'
_symmetry_cell_setting           triclinic
_symmetry_space_group_name_H-M   'P 1'
_symmetry_Int_Tables_number      1
_space_group_name_Hall           'P 1'
loop_
_symmetry_equiv_pos_site_id
_symmetry_equiv_pos_as_xyz
1 x,y,z
_cell_length_a                   17.540(5)
_cell_length_b                   17.540(5)
_cell_length_c                   22.850(5)
_cell_angle_alpha                90
_cell_angle_beta                 90
_cell_angle_gamma                90
_cell_volume                     7029.84
loop_
_atom_site_label
_atom_site_type_symbol
_atom_site_fract_x
_atom_site_fract_y
_atom_site_fract_z
Zr6 Zr -0.000000 -0.000000 0.89229(5)
Zr6_2 Zr -0.000000 1.000000 0.89229(5)
Zr6_3 Zr 1.000000 -0.000000 0.89229(5)
Zr9 Zr 0.89909(4) 0.89909(4) 0.000000
Zr10 Zr 0.10091(4) 0.10091(4) 0.000000
Zr1 Zr 0.500000 0.500000 0.60771(5)
Zr2 Zr 0.39909(4) 0.39909(4) 0.500000
O1 O 0.5762(2) 0.5762(2) 0.6563(2)
O2 O 0.6413(2) 0.6413(2) 0.5881(2)
O3 O 0.4054(5) 0.2732(4) 0.500000
O4 O 0.500000 0.3978(5) 0.5526(3)
C1 C 0.6663(4) 0.6663(4) 0.6872(4)
C2 C 0.7425(4) 0.7425(4) 0.7788(4)
C3 C 0.6250(3) 0.6250(3) 0.6397(4)
C4 C 0.6493(5) 0.6493(5) 0.7462(6)
H1 H 0.612745 0.612745 0.755109
C5 C 0.6855(5) 0.6855(5) 0.7888(5)
H2 H 0.673201 0.673201 0.827287
C6 C 0.7193(4) 0.7193(4) 0.6761(4)
O5 O 0.9238(2) 0.9238(2) 0.8437(2)
O6 O 0.8587(2) 0.8587(2) 0.9119(2)
C7 C 0.8337(4) 0.8337(4) 0.8128(4)
C8 C 0.7575(4) 0.7575(4) 0.7212(4)
C9 C 0.8750(3) 0.8750(3) 0.8603(4)
C10 C 0.8507(5) 0.8507(5) 0.7538(6)
H3 H 0.887255 0.887255 0.744891
C11 C 0.8145(5) 0.8145(5) 0.7112(5)
H4 H 0.826799 0.826799 0.672713
C12 C 0.7807(4) 0.7807(4) 0.8239(4)
Zr3 Zr 0.60091(4) 0.60091(4) 0.500000
O7 O 0.4238(2) 0.4238(2) 0.6563(2)
O8 O 0.3587(2) 0.3587(2) 0.5881(2)
O9 O 0.5946(5) 0.7268(4) 0.500000
O10 O 0.500000 0.6022(5) 0.5526(3)
C13 C 0.3337(4) 0.3337(4) 0.6872(4)
C14 C 0.2575(4) 0.2575(4) 0.7788(4)
C15 C 0.3750(3) 0.3750(3) 0.6397(4)
C16 C 0.3507(5) 0.3507(5) 0.7462(6)
H5 H 0.387255 0.387255 0.755109
C17 C 0.3145(5) 0.3145(5) 0.7888(5)
H6 H 0.326799 0.326799 0.827287
C18 C 0.2807(4) 0.2807(4) 0.6761(4)
O11 O 0.0762(2) 0.0762(2) 0.8437(2)
O12 O 0.1413(2) 0.1413(2) 0.9119(2)
C19 C 0.1663(4) 0.1663(4) 0.8128(4)
C20 C 0.2425(4) 0.2425(4) 0.7212(4)
C21 C 0.1250(3) 0.1250(3) 0.8603(4)
C22 C 0.1493(5) 0.1493(5) 0.7538(6)
H7 H 0.112745 0.112745 0.744891
C23 C 0.1855(5) 0.1855(5) 0.7112(5)
H8 H 0.173201 0.173201 0.672713
C24 C 0.2193(4) 0.2193(4) 0.8239(4)
O13 O 0.500000 0.6022(5) 0.4474(3)
O14 O 0.500000 0.3978(5) 0.4474(3)
O15 O 0.2732(4) 0.4054(5) 0.500000
O16 O 0.7268(4) 0.5946(5) 0.500000
Zr4 Zr 0.500000 0.500000 0.39229(5)
Zr6_4 Zr 1.000000 1.000000 0.89229(5)
Zr7 Zr 0.39909(4) 0.60091(4) 0.500000
Zr8 Zr 0.60091(4) 0.39909(4) 0.500000
Zr9_2 Zr 0.89909(4) 0.89909(4) 1.000000
Zr10_2 Zr 0.10091(4) 0.10091(4) 1.000000
O17 O 0.5762(2) 0.4238(2) 0.6563(2)
O18 O 0.4238(2) 0.5762(2) 0.6563(2)
O19 O 0.3587(2) 0.3587(2) 0.4119(2)
O20 O 0.6413(2) 0.6413(2) 0.4119(2)
O21 O 0.6022(5) 0.500000 0.4474(3)
O22 O 0.3978(5) 0.500000 0.4474(3)
O23 O 0.3978(5) 0.500000 0.5526(3)
O24 O 0.6022(5) 0.500000 0.5526(3)
H9 H 0.266958 0.266958 0.630836
H12 H 0.766958 0.766958 0.869164
H17 H 0.733042 0.733042 0.630836
H18 H 0.233042 0.233042 0.869164
Zr6_5 Zr -0.000000 0.000000 0.10771(5)
Zr6_6 Zr -0.000000 1.000000 0.10771(5)
O1_2 O 0.5762(2) 0.4238(2) 0.3437(2)
O2_2 O 0.6413(2) 0.3587(2) 0.4119(2)
O3_2 O 0.4054(5) 0.7268(4) 0.500000
C1_2 C 0.6663(4) 0.3337(4) 0.3128(4)
C2_2 C 0.7425(4) 0.2575(4) 0.2212(4)
C3_2 C 0.6250(3) 0.3750(3) 0.3603(4)
C4_2 C 0.6493(5) 0.3507(5) 0.2538(6)
H1_2 H 0.612745 0.387255 0.244891
C5_2 C 0.6855(5) 0.3145(5) 0.2112(5)
H2_2 H 0.673201 0.326799 0.172713
C6_2 C 0.7193(4) 0.2807(4) 0.3239(4)
O5_2 O 0.9238(2) 0.0762(2) 0.1563(2)
O6_2 O 0.8587(2) 0.1413(2) 0.0881(2)
C7_2 C 0.8337(4) 0.1663(4) 0.1872(4)
C8_2 C 0.7575(4) 0.2425(4) 0.2788(4)
C9_2 C 0.8750(3) 0.1250(3) 0.1397(4)
C10_2 C 0.8507(5) 0.1493(5) 0.2462(6)
H3_2 H 0.887255 0.112745 0.255109
C11_2 C 0.8145(5) 0.1855(5) 0.2888(5)
H4_2 H 0.826799 0.173201 0.327287
C12_2 C 0.7807(4) 0.2193(4) 0.1761(4)
O7_2 O 0.4238(2) 0.5762(2) 0.3437(2)
O8_2 O 0.3587(2) 0.6413(2) 0.4119(2)
O9_2 O 0.5946(5) 0.2732(4) 0.500000
C13_2 C 0.3337(4) 0.6663(4) 0.3128(4)
C14_2 C 0.2575(4) 0.7425(4) 0.2212(4)
C15_2 C 0.3750(3) 0.6250(3) 0.3603(4)
C16_2 C 0.3507(5) 0.6493(5) 0.2538(6)
H5_2 H 0.387255 0.612745 0.244891
C17_2 C 0.3145(5) 0.6855(5) 0.2112(5)
H6_2 H 0.326799 0.673201 0.172713
C18_2 C 0.2807(4) 0.7193(4) 0.3239(4)
O11_2 O 0.0762(2) 0.9238(2) 0.1563(2)
O12_2 O 0.1413(2) 0.8587(2) 0.0881(2)
C19_2 C 0.1663(4) 0.8337(4) 0.1872(4)
C20_2 C 0.2425(4) 0.7575(4) 0.2788(4)
C21_2 C 0.1250(3) 0.8750(3) 0.1397(4)
C22_2 C 0.1493(5) 0.8507(5) 0.2462(6)
H7_2 H 0.112745 0.887255 0.255109
C23_2 C 0.1855(5) 0.8145(5) 0.2888(5)
H8_2 H 0.173201 0.826799 0.327287
C24_2 C 0.2193(4) 0.7807(4) 0.1761(4)
O15_2 O 0.2732(4) 0.5946(5) 0.500000
O16_2 O 0.7268(4) 0.4054(5) 0.500000
Zr6_7 Zr 1.000000 0.000000 0.10771(5)
Zr9_3 Zr 0.89909(4) 0.10091(4) 0.000000
Zr10_3 Zr 0.10091(4) 0.89909(4) 0.000000
O17_2 O 0.5762(2) 0.5762(2) 0.3437(2)
O18_2 O 0.4238(2) 0.4238(2) 0.3437(2)
O19_2 O 0.3587(2) 0.6413(2) 0.5881(2)
O20_2 O 0.6413(2) 0.3587(2) 0.5881(2)
H9_2 H 0.266958 0.733042 0.369164
H12_2 H 0.766958 0.233042 0.130836
H17_2 H 0.733042 0.266958 0.369164
H18_2 H 0.233042 0.766958 0.130836
Zr9_4 Zr 0.89909(4) 0.10091(4) 1.000000
Zr10_4 Zr 0.10091(4) 0.89909(4) 1.000000
Zr6_8 Zr 1.000000 1.000000 0.10771(5)
C1_3 C 0.3337(4) 0.3337(4) 0.3128(4)
C2_3 C 0.2575(4) 0.2575(4) 0.2212(4)
C3_3 C 0.3750(3) 0.3750(3) 0.3603(4)
C4_3 C 0.3507(5) 0.3507(5) 0.2538(6)
H1_3 H 0.387255 0.387255 0.244891
C5_3 C 0.3145(5) 0.3145(5) 0.2112(5)
H2_3 H 0.326799 0.326799 0.172713
C6_3 C 0.2807(4) 0.2807(4) 0.3239(4)
O5_3 O 0.0762(2) 0.0762(2) 0.1563(2)
O6_3 O 0.1413(2) 0.1413(2) 0.0881(2)
C7_3 C 0.1663(4) 0.1663(4) 0.1872(4)
C8_3 C 0.2425(4) 0.2425(4) 0.2788(4)
C9_3 C 0.1250(3) 0.1250(3) 0.1397(4)
C10_3 C 0.1493(5) 0.1493(5) 0.2462(6)
H3_3 H 0.112745 0.112745 0.255109
C11_3 C 0.1855(5) 0.1855(5) 0.2888(5)
H4_3 H 0.173201 0.173201 0.327287
C12_3 C 0.2193(4) 0.2193(4) 0.1761(4)
C13_3 C 0.6663(4) 0.6663(4) 0.3128(4)
C14_3 C 0.7425(4) 0.7425(4) 0.2212(4)
C15_3 C 0.6250(3) 0.6250(3) 0.3603(4)
C16_3 C 0.6493(5) 0.6493(5) 0.2538(6)
H5_3 H 0.612745 0.612745 0.244891
C17_3 C 0.6855(5) 0.6855(5) 0.2112(5)
H6_3 H 0.673201 0.673201 0.172713
C18_3 C 0.7193(4) 0.7193(4) 0.3239(4)
O11_3 O 0.9238(2) 0.9238(2) 0.1563(2)
O12_3 O 0.8587(2) 0.8587(2) 0.0881(2)
C19_3 C 0.8337(4) 0.8337(4) 0.1872(4)
C20_3 C 0.7575(4) 0.7575(4) 0.2788(4)
C21_3 C 0.8750(3) 0.8750(3) 0.1397(4)
C22_3 C 0.8507(5) 0.8507(5) 0.2462(6)
H7_3 H 0.887255 0.887255 0.255109
C23_3 C 0.8145(5) 0.8145(5) 0.2888(5)
H8_3 H 0.826799 0.826799 0.327287
C24_3 C 0.7807(4) 0.7807(4) 0.1761(4)
H9_3 H 0.733042 0.733042 0.369164
H12_3 H 0.233042 0.233042 0.130836
H17_3 H 0.266958 0.266958 0.369164
H18_3 H 0.766958 0.766958 0.130836
C1_4 C 0.6663(4) 0.3337(4) 0.6872(4)
C2_4 C 0.7425(4) 0.2575(4) 0.7788(4)
C3_4 C 0.6250(3) 0.3750(3) 0.6397(4)
C4_4 C 0.6493(5) 0.3507(5) 0.7462(6)
H1_4 H 0.612745 0.387255 0.755109
C5_4 C 0.6855(5) 0.3145(5) 0.7888(5)
H2_4 H 0.673201 0.326799 0.827287
C6_4 C 0.7193(4) 0.2807(4) 0.6761(4)
O5_4 O 0.9238(2) 0.0762(2) 0.8437(2)
O6_4 O 0.8587(2) 0.1413(2) 0.9119(2)
C7_4 C 0.8337(4) 0.1663(4) 0.8128(4)
C8_4 C 0.7575(4) 0.2425(4) 0.7212(4)
C9_4 C 0.8750(3) 0.1250(3) 0.8603(4)
C10_4 C 0.8507(5) 0.1493(5) 0.7538(6)
H3_4 H 0.887255 0.112745 0.744891
C11_4 C 0.8145(5) 0.1855(5) 0.7112(5)
H4_4 H 0.826799 0.173201 0.672713
C12_4 C 0.7807(4) 0.2193(4) 0.8239(4)
C13_4 C 0.3337(4) 0.6663(4) 0.6872(4)
C14_4 C 0.2575(4) 0.7425(4) 0.7788(4)
C15_4 C 0.3750(3) 0.6250(3) 0.6397(4)
C16_4 C 0.3507(5) 0.6493(5) 0.7462(6)
H5_4 H 0.387255 0.612745 0.755109
C17_4 C 0.3145(5) 0.6855(5) 0.7888(5)
H6_4 H 0.326799 0.673201 0.827287
C18_4 C 0.2807(4) 0.7193(4) 0.6761(4)
O11_4 O 0.0762(2) 0.9238(2) 0.8437(2)
O12_4 O 0.1413(2) 0.8587(2) 0.9119(2)
C19_4 C 0.1663(4) 0.8337(4) 0.8128(4)
C20_4 C 0.2425(4) 0.7575(4) 0.7212(4)
C21_4 C 0.1250(3) 0.8750(3) 0.8603(4)
C22_4 C 0.1493(5) 0.8507(5) 0.7538(6)
H7_4 H 0.112745 0.887255 0.744891
C23_4 C 0.1855(5) 0.8145(5) 0.7112(5)
H8_4 H 0.173201 0.826799 0.672713
C24_4 C 0.2193(4) 0.7807(4) 0.8239(4)
H9_4 H 0.266958 0.733042 0.630836
H12_4 H 0.766958 0.233042 0.869164
H17_4 H 0.733042 0.266958 0.630836
H18_4 H 0.233042 0.766958 0.869164
O9_3 O 0.0946(5) 0.2268(4) 0.000000
O10_2 O -0.000000 0.1022(5) 0.0526(3)
O16_3 O 0.2268(4) 0.0946(5) 0.000000
O24_2 O 0.1022(5) -0.000000 0.0526(3)
O9_4 O 0.0946(5) 0.2268(4) 1.000000
O13_2 O -0.000000 0.1022(5) 0.9474(3)
O16_4 O 0.2268(4) 0.0946(5) 1.000000
O21_2 O 0.1022(5) -0.000000 0.9474(3)
O4_2 O -0.000000 0.8978(5) 0.0526(3)
O24_3 O 0.1022(5) 1.000000 0.0526(3)
O14_2 O -0.000000 0.8978(5) 0.9474(3)
O21_3 O 0.1022(5) 1.000000 0.9474(3)
O10_3 O 1.000000 0.1022(5) 0.0526(3)
O23_2 O 0.8978(5) -0.000000 0.0526(3)
O13_3 O 1.000000 0.1022(5) 0.9474(3)
O22_2 O 0.8978(5) -0.000000 0.9474(3)
O3_3 O 0.9054(5) 0.7732(4) 0.000000
O4_3 O 1.000000 0.8978(5) 0.0526(3)
O15_3 O 0.7732(4) 0.9054(5) 0.000000
O23_3 O 0.8978(5) 1.000000 0.0526(3)
O3_4 O 0.9054(5) 0.7732(4) 1.000000
O14_3 O 1.000000 0.8978(5) 0.9474(3)
O15_4 O 0.7732(4) 0.9054(5) 1.000000
O22_3 O 0.8978(5) 1.000000 0.9474(3)
O9_5 O 0.0946(5) 0.7732(4) 0.000000
O16_5 O 0.2268(4) 0.9054(5) 0.000000
O9_6 O 0.0946(5) 0.7732(4) 1.000000
O16_6 O 0.2268(4) 0.9054(5) 1.000000
O3_5 O 0.9054(5) 0.2268(4) 0.000000
O15_5 O 0.7732(4) 0.0946(5) 0.000000
O3_6 O 0.9054(5) 0.2268(4) 1.000000
O15_6 O 0.7732(4) 0.0946(5) 1.000000
loop_
_geom_bond_atom_site_label_1
_geom_bond_atom_site_label_2
_geom_bond_site_symmetry_1
_geom_bond_site_symmetry_2
Zr1 O1 1_555 1_555
Zr2 O3 1_555 1_555
O1 C3 1_555 1_555
O2 C3 1_555 1_555
O4 Zr1 1_555 1_555
C1 C3 1_555 1_555
C2 C5 1_555 1_555
C4 C1 1_555 1_555
H1 C4 1_555 1_555
C5 C4 1_555 1_555
H2 C5 1_555 1_555
C6 C1 1_555 1_555
O5 C9 1_555 1_555
O6 C9 1_555 1_555
C7 C9 1_555 1_555
C8 C2 1_555 1_555
C10 C7 1_555 1_555
H3 C10 1_555 1_555
C11 C8 1_555 1_555
H4 C11 1_555 1_555
C12 C2 1_555 1_555
Zr3 O2 1_555 1_555
O7 Zr1 1_555 1_555
O8 Zr2 1_555 1_555
O9 Zr3 1_555 1_555
O10 Zr1 1_555 1_555
C13 C15 1_555 1_555
C14 C17 1_555 1_555
C15 O7 1_555 1_555
C16 C13 1_555 1_555
H5 C16 1_555 1_555
C17 C16 1_555 1_555
H6 C17 1_555 1_555
C18 C13 1_555 1_555
O11 C21 1_555 1_555
O12 C21 1_555 1_555
C19 C21 1_555 1_555
C20 C14 1_555 1_555
C22 C19 1_555 1_555
H7 C22 1_555 1_555
C23 C20 1_555 1_555
H8 C23 1_555 1_555
C24 C14 1_555 1_555
O13 Zr3 1_555 1_555
O14 Zr2 1_555 1_555
O15 Zr2 1_555 1_555
O16 Zr3 1_555 1_555
Zr4 O13 1_555 1_555
Zr6 O11 1_555 1_555
Zr6_4 O5 1_555 1_555
Zr7 O10 1_555 1_555
Zr8 O4 1_555 1_555
Zr9_2 O6 1_555 1_555
Zr10_2 O12 1_555 1_555
O17 Zr1 1_555 1_555
O18 Zr1 1_555 1_555
O19 Zr2 1_555 1_555
O20 Zr3 1_555 1_555
O21 Zr3 1_555 1_555
O22 Zr2 1_555 1_555
O23 Zr1 1_555 1_555
O24 Zr1 1_555 1_555
Zr2 O4 1_555 1_555
Zr2 O23 1_555 1_555
C6 C8 1_555 1_555
C7 C12 1_555 1_555
C10 C11 1_555 1_555
Zr3 O10 1_555 1_555
Zr3 O24 1_555 1_555
O8 C15 1_555 1_555
C18 C20 1_555 1_555
C19 C24 1_555 1_555
C22 C23 1_555 1_555
O13 Zr7 1_555 1_555
O14 Zr4 1_555 1_555
O14 Zr8 1_555 1_555
Zr4 O21 1_555 1_555
Zr4 O22 1_555 1_555
Zr7 O22 1_555 1_555
Zr7 O23 1_555 1_555
Zr8 O21 1_555 1_555
Zr8 O24 1_555 1_555
C18 H9 1_555 1_555
C12 H12 1_555 1_555
C6 H17 1_555 1_555
C24 H18 1_555 1_555
Zr4 O1_2 1_555 1_555
Zr7 O3_2 1_555 1_555
O1_2 C3_2 1_555 1_555
O2_2 C3_2 1_555 1_555
C1_2 C3_2 1_555 1_555
C2_2 C5_2 1_555 1_555
C4_2 C1_2 1_555 1_555
H1_2 C4_2 1_555 1_555
C5_2 C4_2 1_555 1_555
H2_2 C5_2 1_555 1_555
C6_2 C1_2 1_555 1_555
O5_2 C9_2 1_555 1_555
O6_2 C9_2 1_555 1_555
C7_2 C9_2 1_555 1_555
C8_2 C2_2 1_555 1_555
C10_2 C7_2 1_555 1_555
H3_2 C10_2 1_555 1_555
C11_2 C8_2 1_555 1_555
H4_2 C11_2 1_555 1_555
C12_2 C2_2 1_555 1_555
Zr8 O2_2 1_555 1_555
O7_2 Zr4 1_555 1_555
O8_2 Zr7 1_555 1_555
O9_2 Zr8 1_555 1_555
C13_2 C15_2 1_555 1_555
C14_2 C17_2 1_555 1_555
C15_2 O7_2 1_555 1_555
C16_2 C13_2 1_555 1_555
H5_2 C16_2 1_555 1_555
C17_2 C16_2 1_555 1_555
H6_2 C17_2 1_555 1_555
C18_2 C13_2 1_555 1_555
O11_2 C21_2 1_555 1_555
O12_2 C21_2 1_555 1_555
C19_2 C21_2 1_555 1_555
C20_2 C14_2 1_555 1_555
C22_2 C19_2 1_555 1_555
H7_2 C22_2 1_555 1_555
C23_2 C20_2 1_555 1_555
H8_2 C23_2 1_555 1_555
C24_2 C14_2 1_555 1_555
O15_2 Zr7 1_555 1_555
O16_2 Zr8 1_555 1_555
Zr6_6 O11_2 1_555 1_555
Zr6_7 O5_2 1_555 1_555
Zr9_3 O6_2 1_555 1_555
Zr10_3 O12_2 1_555 1_555
O17_2 Zr4 1_555 1_555
O18_2 Zr4 1_555 1_555
O19_2 Zr7 1_555 1_555
O20_2 Zr8 1_555 1_555
C6_2 C8_2 1_555 1_555
C7_2 C12_2 1_555 1_555
C10_2 C11_2 1_555 1_555
O8_2 C15_2 1_555 1_555
C18_2 C20_2 1_555 1_555
C19_2 C24_2 1_555 1_555
C22_2 C23_2 1_555 1_555
C18_2 H9_2 1_555 1_555
C12_2 H12_2 1_555 1_555
C6_2 H17_2 1_555 1_555
C24_2 H18_2 1_555 1_555
O18_2 C3_3 1_555 1_555
O19 C3_3 1_555 1_555
C1_3 C3_3 1_555 1_555
C2_3 C5_3 1_555 1_555
C4_3 C1_3 1_555 1_555
H1_3 C4_3 1_555 1_555
C5_3 C4_3 1_555 1_555
H2_3 C5_3 1_555 1_555
C6_3 C1_3 1_555 1_555
O5_3 C9_3 1_555 1_555
O6_3 C9_3 1_555 1_555
C7_3 C9_3 1_555 1_555
C8_3 C2_3 1_555 1_555
C10_3 C7_3 1_555 1_555
H3_3 C10_3 1_555 1_555
C11_3 C8_3 1_555 1_555
H4_3 C11_3 1_555 1_555
C12_3 C2_3 1_555 1_555
C13_3 C15_3 1_555 1_555
C14_3 C17_3 1_555 1_555
C15_3 O17_2 1_555 1_555
C16_3 C13_3 1_555 1_555
H5_3 C16_3 1_555 1_555
C17_3 C16_3 1_555 1_555
H6_3 C17_3 1_555 1_555
C18_3 C13_3 1_555 1_555
O11_3 C21_3 1_555 1_555
O12_3 C21_3 1_555 1_555
C19_3 C21_3 1_555 1_555
C20_3 C14_3 1_555 1_555
C22_3 C19_3 1_555 1_555
H7_3 C22_3 1_555 1_555
C23_3 C20_3 1_555 1_555
H8_3 C23_3 1_555 1_555
C24_3 C14_3 1_555 1_555
Zr6_8 O11_3 1_555 1_555
Zr6_5 O5_3 1_555 1_555
Zr10 O6_3 1_555 1_555
Zr9 O12_3 1_555 1_555
C6_3 C8_3 1_555 1_555
C7_3 C12_3 1_555 1_555
C10_3 C11_3 1_555 1_555
O20 C15_3 1_555 1_555
C18_3 C20_3 1_555 1_555
C19_3 C24_3 1_555 1_555
C22_3 C23_3 1_555 1_555
C18_3 H9_3 1_555 1_555
C12_3 H12_3 1_555 1_555
C6_3 H17_3 1_555 1_555
C24_3 H18_3 1_555 1_555
O17 C3_4 1_555 1_555
O20_2 C3_4 1_555 1_555
C1_4 C3_4 1_555 1_555
C2_4 C5_4 1_555 1_555
C4_4 C1_4 1_555 1_555
H1_4 C4_4 1_555 1_555
C5_4 C4_4 1_555 1_555
H2_4 C5_4 1_555 1_555
C6_4 C1_4 1_555 1_555
O5_4 C9_4 1_555 1_555
O6_4 C9_4 1_555 1_555
C7_4 C9_4 1_555 1_555
C8_4 C2_4 1_555 1_555
C10_4 C7_4 1_555 1_555
H3_4 C10_4 1_555 1_555
C11_4 C8_4 1_555 1_555
H4_4 C11_4 1_555 1_555
C12_4 C2_4 1_555 1_555
C13_4 C15_4 1_555 1_555
C14_4 C17_4 1_555 1_555
C15_4 O18 1_555 1_555
C16_4 C13_4 1_555 1_555
H5_4 C16_4 1_555 1_555
C17_4 C16_4 1_555 1_555
H6_4 C17_4 1_555 1_555
C18_4 C13_4 1_555 1_555
O11_4 C21_4 1_555 1_555
O12_4 C21_4 1_555 1_555
C19_4 C21_4 1_555 1_555
C20_4 C14_4 1_555 1_555
C22_4 C19_4 1_555 1_555
H7_4 C22_4 1_555 1_555
C23_4 C20_4 1_555 1_555
H8_4 C23_4 1_555 1_555
C24_4 C14_4 1_555 1_555
Zr6_2 O11_4 1_555 1_555
Zr6_3 O5_4 1_555 1_555
Zr9_4 O6_4 1_555 1_555
Zr10_4 O12_4 1_555 1_555
C6_4 C8_4 1_555 1_555
C7_4 C12_4 1_555 1_555
C10_4 C11_4 1_555 1_555
O19_2 C15_4 1_555 1_555
C18_4 C20_4 1_555 1_555
C19_4 C24_4 1_555 1_555
C22_4 C23_4 1_555 1_555
C18_4 H9_4 1_555 1_555
C12_4 H12_4 1_555 1_555
C6_4 H17_4 1_555 1_555
C24_4 H18_4 1_555 1_555
O9_3 Zr10 1_555 1_555
O10_2 Zr6_5 1_555 1_555
O16_3 Zr10 1_555 1_555
O24_2 Zr6_5 1_555 1_555
Zr10 O10_2 1_555 1_555
Zr10 O24_2 1_555 1_555
O9_4 Zr10_2 1_555 1_555
O13_2 Zr10_2 1_555 1_555
O16_4 Zr10_2 1_555 1_555
Zr6 O13_2 1_555 1_555
O21_2 Zr10_2 1_555 1_555
Zr6 O21_2 1_555 1_555
O4_2 Zr6_6 1_555 1_555
Zr10_3 O4_2 1_555 1_555
O24_3 Zr6_6 1_555 1_555
Zr10_3 O24_3 1_555 1_555
O14_2 Zr6_2 1_555 1_555
O14_2 Zr10_4 1_555 1_555
Zr6_2 O21_3 1_555 1_555
Zr10_4 O21_3 1_555 1_555
O10_3 Zr6_7 1_555 1_555
Zr9_3 O10_3 1_555 1_555
O23_2 Zr6_7 1_555 1_555
Zr9_3 O23_2 1_555 1_555
Zr6_3 O13_3 1_555 1_555
O13_3 Zr9_4 1_555 1_555
Zr6_3 O22_2 1_555 1_555
Zr9_4 O22_2 1_555 1_555
Zr9 O3_3 1_555 1_555
O4_3 Zr6_8 1_555 1_555
O15_3 Zr9 1_555 1_555
O23_3 Zr6_8 1_555 1_555
Zr9 O4_3 1_555 1_555
Zr9 O23_3 1_555 1_555
Zr9_2 O3_4 1_555 1_555
O14_3 Zr9_2 1_555 1_555
O15_4 Zr9_2 1_555 1_555
O22_3 Zr9_2 1_555 1_555
O14_3 Zr6_4 1_555 1_555
Zr6_4 O22_3 1_555 1_555
O9_5 Zr10_3 1_555 1_555
O16_5 Zr10_3 1_555 1_555
O9_6 Zr10_4 1_555 1_555
O16_6 Zr10_4 1_555 1_555
Zr9_3 O3_5 1_555 1_555
O15_5 Zr9_3 1_555 1_555
Zr9_4 O3_6 1_555 1_555
O15_6 Zr9_4 1_555 1_555

#END
