
###############################################################################
#
# This file contains modified crystal structure data generated from the
# MOF subset of the Cambridge Structural Database (CSD) v543 
# hosted by the Cambridge Crystallographic Data Centre (CCDC).
#
# This work is licensed under the Creative Commons
# Attribution-NonCommercial-ShareAlike 4.0 International License.
# To view a copy of this license, visit
# http://creativecommons.org/licenses/by-nc-sa/4.0/
# or send a letter to
# Creative Commons, PO Box 1866, Mountain View, CA 94042, USA.
#
# CIF created using the CSD Python API on 29 September 2022
# The structure has been converted into the P1 space group
# The structure has a 3D framework
# The original CSD entry IFANUB is in the tetragonal crystal system
# The framework has been calculated to contain at least 10.0% void space
# The void calculation uses a probe of radius 1.32A, grid spacing 0.4
# H atom positions have been added when not included in the experimental data
# Generated hydrogen atom positions removed from atoms on special positions
#
###############################################################################

data_IFANUB
_chemical_formula_moiety         '(C48 H128 O66 Zr19)n'
_symmetry_cell_setting           triclinic
_symmetry_space_group_name_H-M   'P 1'
_symmetry_Int_Tables_number      1
_space_group_name_Hall           'P 1'
loop_
_symmetry_equiv_pos_site_id
_symmetry_equiv_pos_as_xyz
1 x,y,z
_cell_length_a                   16.680
_cell_length_b                   16.680
_cell_length_c                   17.940
_cell_angle_alpha                90
_cell_angle_beta                 90
_cell_angle_gamma                90
_cell_volume                     4991.31
loop_
_atom_site_label
_atom_site_type_symbol
_atom_site_fract_x
_atom_site_fract_y
_atom_site_fract_z
Zr1 Zr 0.000000 0.000000 0.13655(10)
Zr2 Zr 0.10585(5) 0.10585(5) 0.000000
O1 O 0.0797(3) 0.0797(3) 0.2022(5)
O2 O 0.1056(7) 0.000000 0.0665(6)
O3 O 0.1461(4) 0.1461(4) 0.1173(6)
O4 O 0.2382(8) 0.1007(12) 0.000000
C1 C 0.1300(7) 0.1300(7) 0.1830(7)
C2 C 0.1750(8) 0.1750(8) 0.2381(10)
H1 H 0.164835 0.164835 0.288205
C3 C 0.2277(6) 0.2277(6) 0.2218(10)
H2 H 0.238096 0.238096 0.171841
O5 O 0.4203(3) 0.4203(3) 0.2978(5)
O6 O 0.3539(4) 0.3539(4) 0.3827(6)
C4 C 0.3700(7) 0.3700(7) 0.3170(7)
C5 C 0.3250(8) 0.3250(8) 0.2619(10)
H3 H 0.335165 0.335165 0.211795
C6 C 0.2723(6) 0.2723(6) 0.2782(10)
H4 H 0.261904 0.261904 0.328159
O15 O 0.1007(12) 0.2382(8) 0.000000
Zr6 Zr 0.500000 0.500000 0.36345(10)
Zr10 Zr 0.39415(5) 0.39415(5) 0.500000
O22 O 0.000000 0.1056(7) 0.0665(6)
Zr2_2 Zr 0.10585(5) 0.10585(5) 1.000000
O4_2 O 0.2382(8) 0.1007(12) 1.000000
O13 O 0.1056(7) 0.000000 0.9335(6)
O15_2 O 0.1007(12) 0.2382(8) 1.000000
Zr4 Zr 0.000000 0.000000 0.86345(10)
O20 O 0.000000 0.1056(7) 0.9335(6)
O24 O 0.1461(4) 0.1461(4) 0.8827(6)
Zr1_2 Zr 0.000000 1.000000 0.13655(10)
O2_2 O 0.1056(7) 1.000000 0.0665(6)
Zr7 Zr 0.10585(5) 0.89415(5) 0.000000
O17 O 0.0797(3) 0.9203(3) 0.2022(5)
O21 O 0.000000 0.8944(7) 0.0665(6)
O13_2 O 0.1056(7) 1.000000 0.9335(6)
Zr4_2 Zr 0.000000 1.000000 0.86345(10)
Zr7_2 Zr 0.10585(5) 0.89415(5) 1.000000
O19 O 0.000000 0.8944(7) 0.9335(6)
Zr1_3 Zr 1.000000 0.000000 0.13655(10)
O8 O 0.8944(7) 0.000000 0.0665(6)
Zr8 Zr 0.89415(5) 0.10585(5) 0.000000
O18 O 0.9203(3) 0.0797(3) 0.2022(5)
O22_2 O 1.000000 0.1056(7) 0.0665(6)
O14 O 0.8944(7) 0.000000 0.9335(6)
Zr4_3 Zr 1.000000 0.000000 0.86345(10)
Zr8_2 Zr 0.89415(5) 0.10585(5) 1.000000
O20_2 O 1.000000 0.1056(7) 0.9335(6)
Zr1_4 Zr 1.000000 1.000000 0.13655(10)
Zr3 Zr 0.89415(5) 0.89415(5) 0.000000
O7 O 0.9203(3) 0.9203(3) 0.2022(5)
O8_2 O 0.8944(7) 1.000000 0.0665(6)
O9 O 0.8539(4) 0.8539(4) 0.1173(6)
O10 O 0.7618(8) 0.8993(12) 0.000000
C7 C 0.8700(7) 0.8700(7) 0.1830(7)
C8 C 0.8250(8) 0.8250(8) 0.2381(10)
H5 H 0.835165 0.835165 0.288205
C9 C 0.7723(6) 0.7723(6) 0.2218(10)
H6 H 0.761904 0.761904 0.171841
O11 O 0.5797(3) 0.5797(3) 0.2978(5)
O12 O 0.6461(4) 0.6461(4) 0.3827(6)
C10 C 0.6300(7) 0.6300(7) 0.3170(7)
C11 C 0.6750(8) 0.6750(8) 0.2619(10)
H7 H 0.664835 0.664835 0.211795
C12 C 0.7277(6) 0.7277(6) 0.2782(10)
H8 H 0.738096 0.738096 0.328159
O16 O 0.8993(12) 0.7618(8) 0.000000
Zr9 Zr 0.60585(5) 0.60585(5) 0.500000
O21_2 O 1.000000 0.8944(7) 0.0665(6)
Zr3_2 Zr 0.89415(5) 0.89415(5) 1.000000
O10_2 O 0.7618(8) 0.8993(12) 1.000000
O14_2 O 0.8944(7) 1.000000 0.9335(6)
O16_2 O 0.8993(12) 0.7618(8) 1.000000
Zr4_4 Zr 1.000000 1.000000 0.86345(10)
O19_2 O 1.000000 0.8944(7) 0.9335(6)
O23 O 0.8539(4) 0.8539(4) 0.8827(6)
O17_2 O 0.0797(3) 0.0797(3) 0.7978(5)
O4_3 O 0.2382(8) 0.8993(12) 0.000000
O15_3 O 0.1007(12) 0.7618(8) 0.000000
O24_2 O 0.1461(4) 0.8539(4) 0.1173(6)
O1_2 O 0.0797(3) 0.9203(3) 0.7978(5)
O3_2 O 0.1461(4) 0.8539(4) 0.8827(6)
O4_4 O 0.2382(8) 0.8993(12) 1.000000
C1_2 C 0.1300(7) 0.8700(7) 0.8170(7)
C2_2 C 0.1750(8) 0.8250(8) 0.7619(10)
H1_2 H 0.164835 0.835165 0.711795
C3_2 C 0.2277(6) 0.7723(6) 0.7782(10)
H2_2 H 0.238096 0.761904 0.828159
O5_2 O 0.4203(3) 0.5797(3) 0.7022(5)
O6_2 O 0.3539(4) 0.6461(4) 0.6173(6)
C4_2 C 0.3700(7) 0.6300(7) 0.6830(7)
C5_2 C 0.3250(8) 0.6750(8) 0.7381(10)
H3_2 H 0.335165 0.664835 0.788205
C6_2 C 0.2723(6) 0.7277(6) 0.7218(10)
H4_2 H 0.261904 0.738096 0.671841
O15_4 O 0.1007(12) 0.7618(8) 1.000000
Zr6_2 Zr 0.500000 0.500000 0.63655(10)
Zr10_2 Zr 0.39415(5) 0.60585(5) 0.500000
O10_3 O 0.7618(8) 0.1007(12) 0.000000
O16_3 O 0.8993(12) 0.2382(8) 0.000000
O23_2 O 0.8539(4) 0.1461(4) 0.1173(6)
O7_2 O 0.9203(3) 0.0797(3) 0.7978(5)
O9_2 O 0.8539(4) 0.1461(4) 0.8827(6)
O10_4 O 0.7618(8) 0.1007(12) 1.000000
C7_2 C 0.8700(7) 0.1300(7) 0.8170(7)
C8_2 C 0.8250(8) 0.1750(8) 0.7619(10)
H5_2 H 0.835165 0.164835 0.711795
C9_2 C 0.7723(6) 0.2277(6) 0.7782(10)
H6_2 H 0.761904 0.238096 0.828159
O11_2 O 0.5797(3) 0.4203(3) 0.7022(5)
O12_2 O 0.6461(4) 0.3539(4) 0.6173(6)
C10_2 C 0.6300(7) 0.3700(7) 0.6830(7)
C11_2 C 0.6750(8) 0.3250(8) 0.7381(10)
H7_2 H 0.664835 0.335165 0.788205
C12_2 C 0.7277(6) 0.2723(6) 0.7218(10)
H8_2 H 0.738096 0.261904 0.671841
O16_4 O 0.8993(12) 0.2382(8) 1.000000
Zr9_2 Zr 0.60585(5) 0.39415(5) 0.500000
O18_2 O 0.9203(3) 0.9203(3) 0.7978(5)
C7_3 C 0.1300(7) 0.1300(7) 0.8170(7)
C8_3 C 0.1750(8) 0.1750(8) 0.7619(10)
H5_3 H 0.164835 0.164835 0.711795
C9_3 C 0.2277(6) 0.2277(6) 0.7782(10)
H6_3 H 0.238096 0.238096 0.828159
O11_3 O 0.4203(3) 0.4203(3) 0.7022(5)
O12_3 O 0.3539(4) 0.3539(4) 0.6173(6)
C10_3 C 0.3700(7) 0.3700(7) 0.6830(7)
C11_3 C 0.3250(8) 0.3250(8) 0.7381(10)
H7_3 H 0.335165 0.335165 0.788205
C12_3 C 0.2723(6) 0.2723(6) 0.7218(10)
H8_3 H 0.261904 0.261904 0.671841
C1_3 C 0.8700(7) 0.8700(7) 0.8170(7)
C2_3 C 0.8250(8) 0.8250(8) 0.7619(10)
H1_3 H 0.835165 0.835165 0.711795
C3_3 C 0.7723(6) 0.7723(6) 0.7782(10)
H2_3 H 0.761904 0.761904 0.828159
O5_3 O 0.5797(3) 0.5797(3) 0.7022(5)
O6_3 O 0.6461(4) 0.6461(4) 0.6173(6)
C4_3 C 0.6300(7) 0.6300(7) 0.6830(7)
C5_3 C 0.6750(8) 0.6750(8) 0.7381(10)
H3_3 H 0.664835 0.664835 0.788205
C6_3 C 0.7277(6) 0.7277(6) 0.7218(10)
H4_3 H 0.738096 0.738096 0.671841
C1_4 C 0.1300(7) 0.8700(7) 0.1830(7)
C2_4 C 0.1750(8) 0.8250(8) 0.2381(10)
H1_4 H 0.164835 0.835165 0.288205
C3_4 C 0.2277(6) 0.7723(6) 0.2218(10)
H2_4 H 0.238096 0.761904 0.171841
O5_4 O 0.4203(3) 0.5797(3) 0.2978(5)
O6_4 O 0.3539(4) 0.6461(4) 0.3827(6)
C4_4 C 0.3700(7) 0.6300(7) 0.3170(7)
C5_4 C 0.3250(8) 0.6750(8) 0.2619(10)
H3_4 H 0.335165 0.664835 0.211795
C6_4 C 0.2723(6) 0.7277(6) 0.2782(10)
H4_4 H 0.261904 0.738096 0.328159
C7_4 C 0.8700(7) 0.1300(7) 0.1830(7)
C8_4 C 0.8250(8) 0.1750(8) 0.2381(10)
H5_4 H 0.835165 0.164835 0.288205
C9_4 C 0.7723(6) 0.2277(6) 0.2218(10)
H6_4 H 0.761904 0.238096 0.171841
O11_4 O 0.5797(3) 0.4203(3) 0.2978(5)
O12_4 O 0.6461(4) 0.3539(4) 0.3827(6)
C10_4 C 0.6300(7) 0.3700(7) 0.3170(7)
C11_4 C 0.6750(8) 0.3250(8) 0.2619(10)
H7_4 H 0.664835 0.335165 0.211795
C12_4 C 0.7277(6) 0.2723(6) 0.2782(10)
H8_4 H 0.738096 0.261904 0.328159
O2_3 O 0.6056(7) 0.500000 0.5665(6)
O4_5 O 0.7382(8) 0.6007(12) 0.500000
O8_3 O 0.3944(7) 0.500000 0.5665(6)
O10_5 O 0.2618(8) 0.3993(12) 0.500000
O13_3 O 0.6056(7) 0.500000 0.4335(6)
O14_3 O 0.3944(7) 0.500000 0.4335(6)
O15_5 O 0.6007(12) 0.7382(8) 0.500000
O16_5 O 0.3993(12) 0.2618(8) 0.500000
O19_3 O 0.500000 0.3944(7) 0.4335(6)
O20_3 O 0.500000 0.6056(7) 0.4335(6)
O21_3 O 0.500000 0.3944(7) 0.5665(6)
O22_3 O 0.500000 0.6056(7) 0.5665(6)
O4_6 O 0.7382(8) 0.3993(12) 0.500000
O10_6 O 0.2618(8) 0.6007(12) 0.500000
O15_6 O 0.6007(12) 0.2618(8) 0.500000
O16_6 O 0.3993(12) 0.7382(8) 0.500000
loop_
_geom_bond_atom_site_label_1
_geom_bond_atom_site_label_2
_geom_bond_site_symmetry_1
_geom_bond_site_symmetry_2
Zr1 O1 1_555 1_555
Zr2 O2 1_555 1_555
O1 C1 1_555 1_555
O2 Zr1 1_555 1_555
O3 Zr2 1_555 1_555
O4 Zr2 1_555 1_555
C1 O3 1_555 1_555
C2 C1 1_555 1_555
H1 C2 1_555 1_555
C3 C2 1_555 1_555
H2 C3 1_555 1_555
O5 C4 1_555 1_555
O6 C4 1_555 1_555
C4 C5 1_555 1_555
C5 H3 1_555 1_555
C6 C3 1_555 1_555
H4 C6 1_555 1_555
O15 Zr2 1_555 1_555
Zr6 O5 1_555 1_555
Zr10 O6 1_555 1_555
O22 Zr1 1_555 1_555
Zr2 O22 1_555 1_555
C5 C6 1_555 1_555
O4_2 Zr2_2 1_555 1_555
O13 Zr2_2 1_555 1_555
O15_2 Zr2_2 1_555 1_555
Zr4 O13 1_555 1_555
O20 Zr2_2 1_555 1_555
O24 Zr2_2 1_555 1_555
Zr4 O20 1_555 1_555
O2_2 Zr1_2 1_555 1_555
Zr7 O2_2 1_555 1_555
O17 Zr1_2 1_555 1_555
O21 Zr1_2 1_555 1_555
Zr7 O21 1_555 1_555
Zr4_2 O13_2 1_555 1_555
O13_2 Zr7_2 1_555 1_555
Zr4_2 O19 1_555 1_555
Zr7_2 O19 1_555 1_555
O8 Zr1_3 1_555 1_555
Zr8 O8 1_555 1_555
O18 Zr1_3 1_555 1_555
O22_2 Zr1_3 1_555 1_555
Zr8 O22_2 1_555 1_555
O14 Zr4_3 1_555 1_555
O14 Zr8_2 1_555 1_555
Zr4_3 O20_2 1_555 1_555
Zr8_2 O20_2 1_555 1_555
Zr3 O8_2 1_555 1_555
O7 Zr1_4 1_555 1_555
O8_2 Zr1_4 1_555 1_555
O9 Zr3 1_555 1_555
O10 Zr3 1_555 1_555
C7 O7 1_555 1_555
C8 C7 1_555 1_555
H5 C8 1_555 1_555
C9 C8 1_555 1_555
H6 C9 1_555 1_555
O11 C10 1_555 1_555
O12 C10 1_555 1_555
C10 C11 1_555 1_555
C11 H7 1_555 1_555
C12 C9 1_555 1_555
H8 C12 1_555 1_555
O16 Zr3 1_555 1_555
Zr6 O11 1_555 1_555
Zr9 O12 1_555 1_555
O21_2 Zr1_4 1_555 1_555
Zr3 O21_2 1_555 1_555
O9 C7 1_555 1_555
C11 C12 1_555 1_555
O10_2 Zr3_2 1_555 1_555
O14_2 Zr3_2 1_555 1_555
O16_2 Zr3_2 1_555 1_555
O19_2 Zr3_2 1_555 1_555
O23 Zr3_2 1_555 1_555
O14_2 Zr4_4 1_555 1_555
Zr4_4 O19_2 1_555 1_555
O17_2 Zr4 1_555 1_555
O4_3 Zr7 1_555 1_555
O15_3 Zr7 1_555 1_555
O24_2 Zr7 1_555 1_555
Zr4_2 O1_2 1_555 1_555
O1_2 C1_2 1_555 1_555
O3_2 Zr7_2 1_555 1_555
O4_4 Zr7_2 1_555 1_555
C1_2 O3_2 1_555 1_555
C2_2 C1_2 1_555 1_555
H1_2 C2_2 1_555 1_555
C3_2 C2_2 1_555 1_555
H2_2 C3_2 1_555 1_555
O5_2 C4_2 1_555 1_555
O6_2 C4_2 1_555 1_555
C4_2 C5_2 1_555 1_555
C5_2 H3_2 1_555 1_555
C6_2 C3_2 1_555 1_555
H4_2 C6_2 1_555 1_555
O15_4 Zr7_2 1_555 1_555
Zr6_2 O5_2 1_555 1_555
Zr10_2 O6_2 1_555 1_555
C5_2 C6_2 1_555 1_555
O10_3 Zr8 1_555 1_555
O16_3 Zr8 1_555 1_555
O23_2 Zr8 1_555 1_555
O7_2 Zr4_3 1_555 1_555
O9_2 Zr8_2 1_555 1_555
O10_4 Zr8_2 1_555 1_555
C7_2 O7_2 1_555 1_555
C8_2 C7_2 1_555 1_555
H5_2 C8_2 1_555 1_555
C9_2 C8_2 1_555 1_555
H6_2 C9_2 1_555 1_555
O11_2 C10_2 1_555 1_555
O12_2 C10_2 1_555 1_555
C10_2 C11_2 1_555 1_555
C11_2 H7_2 1_555 1_555
C12_2 C9_2 1_555 1_555
H8_2 C12_2 1_555 1_555
O16_4 Zr8_2 1_555 1_555
Zr6_2 O11_2 1_555 1_555
Zr9_2 O12_2 1_555 1_555
O9_2 C7_2 1_555 1_555
C11_2 C12_2 1_555 1_555
O18_2 Zr4_4 1_555 1_555
C7_3 O17_2 1_555 1_555
C8_3 C7_3 1_555 1_555
H5_3 C8_3 1_555 1_555
C9_3 C8_3 1_555 1_555
H6_3 C9_3 1_555 1_555
O11_3 C10_3 1_555 1_555
O12_3 C10_3 1_555 1_555
C10_3 C11_3 1_555 1_555
C11_3 H7_3 1_555 1_555
C12_3 C9_3 1_555 1_555
H8_3 C12_3 1_555 1_555
Zr6_2 O11_3 1_555 1_555
Zr10 O12_3 1_555 1_555
O24 C7_3 1_555 1_555
C11_3 C12_3 1_555 1_555
O18_2 C1_3 1_555 1_555
C1_3 O23 1_555 1_555
C2_3 C1_3 1_555 1_555
H1_3 C2_3 1_555 1_555
C3_3 C2_3 1_555 1_555
H2_3 C3_3 1_555 1_555
O5_3 C4_3 1_555 1_555
O6_3 C4_3 1_555 1_555
C4_3 C5_3 1_555 1_555
C5_3 H3_3 1_555 1_555
C6_3 C3_3 1_555 1_555
H4_3 C6_3 1_555 1_555
Zr6_2 O5_3 1_555 1_555
Zr9 O6_3 1_555 1_555
C5_3 C6_3 1_555 1_555
O17 C1_4 1_555 1_555
C1_4 O24_2 1_555 1_555
C2_4 C1_4 1_555 1_555
H1_4 C2_4 1_555 1_555
C3_4 C2_4 1_555 1_555
H2_4 C3_4 1_555 1_555
O5_4 C4_4 1_555 1_555
O6_4 C4_4 1_555 1_555
C4_4 C5_4 1_555 1_555
C5_4 H3_4 1_555 1_555
C6_4 C3_4 1_555 1_555
H4_4 C6_4 1_555 1_555
Zr6 O5_4 1_555 1_555
Zr10_2 O6_4 1_555 1_555
C5_4 C6_4 1_555 1_555
C7_4 O18 1_555 1_555
C8_4 C7_4 1_555 1_555
H5_4 C8_4 1_555 1_555
C9_4 C8_4 1_555 1_555
H6_4 C9_4 1_555 1_555
O11_4 C10_4 1_555 1_555
O12_4 C10_4 1_555 1_555
C10_4 C11_4 1_555 1_555
C11_4 H7_4 1_555 1_555
C12_4 C9_4 1_555 1_555
H8_4 C12_4 1_555 1_555
Zr6 O11_4 1_555 1_555
Zr9_2 O12_4 1_555 1_555
O23_2 C7_4 1_555 1_555
C11_4 C12_4 1_555 1_555
Zr9 O2_3 1_555 1_555
O2_3 Zr6_2 1_555 1_555
O4_5 Zr9 1_555 1_555
Zr10 O8_3 1_555 1_555
O8_3 Zr6_2 1_555 1_555
O10_5 Zr10 1_555 1_555
O13_3 Zr9 1_555 1_555
O14_3 Zr10 1_555 1_555
O15_5 Zr9 1_555 1_555
O16_5 Zr10 1_555 1_555
Zr6 O13_3 1_555 1_555
Zr9_2 O2_3 1_555 1_555
Zr10_2 O8_3 1_555 1_555
O19_3 Zr10 1_555 1_555
O20_3 Zr9 1_555 1_555
O21_3 Zr6_2 1_555 1_555
O22_3 Zr6_2 1_555 1_555
Zr9 O22_3 1_555 1_555
Zr10 O21_3 1_555 1_555
O13_3 Zr9_2 1_555 1_555
O14_3 Zr6 1_555 1_555
O14_3 Zr10_2 1_555 1_555
Zr6 O19_3 1_555 1_555
Zr6 O20_3 1_555 1_555
Zr9_2 O19_3 1_555 1_555
Zr9_2 O21_3 1_555 1_555
Zr10_2 O20_3 1_555 1_555
Zr10_2 O22_3 1_555 1_555
O4_6 Zr9_2 1_555 1_555
O10_6 Zr10_2 1_555 1_555
O15_6 Zr9_2 1_555 1_555
O16_6 Zr10_2 1_555 1_555

#END
