
###############################################################################
#
# This file contains modified crystal structure data generated from the
# MOF subset of the Cambridge Structural Database (CSD) v543 
# hosted by the Cambridge Crystallographic Data Centre (CCDC).
#
# This work is licensed under the Creative Commons
# Attribution-NonCommercial-ShareAlike 4.0 International License.
# To view a copy of this license, visit
# http://creativecommons.org/licenses/by-nc-sa/4.0/
# or send a letter to
# Creative Commons, PO Box 1866, Mountain View, CA 94042, USA.
#
# CIF created using the CSD Python API on 29 September 2022
# The structure has been converted into the P1 space group
# The structure has a 3D framework
# The original CSD entry IFAPAJ is in the tetragonal crystal system
# The framework has been calculated to contain at least 10.0% void space
# The void calculation uses a probe of radius 1.32A, grid spacing 0.4
# H atom positions have been added when not included in the experimental data
# Generated hydrogen atom positions removed from atoms on special positions
#
###############################################################################

data_IFAPAJ
_chemical_formula_moiety         '(C96 H176 N16 O66 Zr19)n'
_symmetry_cell_setting           triclinic
_symmetry_space_group_name_H-M   'P 1'
_symmetry_Int_Tables_number      1
_space_group_name_Hall           'P 1'
loop_
_symmetry_equiv_pos_site_id
_symmetry_equiv_pos_as_xyz
1 x,y,z
_cell_length_a                   21.190(5)
_cell_length_b                   21.190(5)
_cell_length_c                   18.910(5)
_cell_angle_alpha                90
_cell_angle_beta                 90
_cell_angle_gamma                90
_cell_volume                     8490.89
loop_
_atom_site_label
_atom_site_type_symbol
_atom_site_fract_x
_atom_site_fract_y
_atom_site_fract_z
O13 O -0.000000 0.0864(4) 0.0624(3)
Zr4 Zr -0.000000 -0.000000 0.12976(5)
O19 O 0.0864(4) -0.000000 0.0624(3)
Zr7 Zr 0.08746(3) 0.08746(3) 0.000000
Zr1 Zr -0.000000 -0.000000 0.87024(5)
O8 O -0.000000 0.0864(4) 0.9376(3)
O18 O 0.06586(17) 0.06586(17) 0.8096(3)
O22 O 0.0864(4) -0.000000 0.9376(3)
Zr7_2 Zr 0.08746(3) 0.08746(3) 1.000000
Zr2 Zr 0.08746(3) 0.91254(3) 0.000000
O4 O 0.0828(7) 0.8047(4) 0.000000
O14 O -0.000000 0.9136(4) 0.0624(3)
O15 O 0.1953(4) 0.9172(7) 0.000000
Zr4_2 Zr -0.000000 1.000000 0.12976(5)
O19_2 O 0.0864(4) 1.000000 0.0624(3)
O23 O 0.1224(2) 0.8776(2) 0.1066(3)
Zr1_2 Zr -0.000000 1.000000 0.87024(5)
O1 O 0.06586(17) 0.93414(17) 0.8096(3)
O2 O -0.000000 0.9136(4) 0.9376(3)
C1 C 0.1072(3) 0.8928(3) 0.8302(5)
C2 C 0.1442(4) 0.8558(4) 0.7755(5)
N1 N 0.2133(4) 0.7867(4) 0.6729(5)
C3 C 0.1911(4) 0.8089(4) 0.7925(5)
H1 H 0.199298 0.800702 0.839953
C4 C 0.1316(4) 0.8684(4) 0.7024(6)
H2 H 0.102168 0.897832 0.686649
C5 C 0.1693(5) 0.8307(5) 0.6568(6)
H3 H 0.162703 0.837297 0.608714
C6 C 0.2251(4) 0.7749(4) 0.7410(7)
O3 O 0.1224(2) 0.8776(2) 0.8934(3)
Zr2_2 Zr 0.08746(3) 0.91254(3) 1.000000
O4_2 O 0.0828(7) 0.8047(4) 1.000000
O5 O 0.43414(17) 0.56586(17) 0.6904(3)
C7 C 0.3928(3) 0.6072(3) 0.6698(5)
C8 C 0.3558(4) 0.6442(4) 0.7245(5)
N2 N 0.2867(4) 0.7133(4) 0.8271(5)
C9 C 0.3089(4) 0.6911(4) 0.7075(5)
H4 H 0.300702 0.699298 0.660047
C10 C 0.3684(4) 0.6316(4) 0.7976(6)
H5 H 0.397832 0.602168 0.813351
C11 C 0.3307(5) 0.6693(5) 0.8432(6)
H6 H 0.337297 0.662703 0.891286
C12 C 0.2749(4) 0.7251(4) 0.7590(7)
O6 O 0.3776(2) 0.6224(2) 0.6066(3)
O15_2 O 0.1953(4) 0.9172(7) 1.000000
Zr6 Zr 0.500000 0.500000 0.62976(5)
O22_2 O 0.0864(4) 1.000000 0.9376(3)
Zr10 Zr 0.41254(3) 0.58746(3) 0.500000
Zr3 Zr 0.91254(3) 0.08746(3) 0.000000
O12 O 0.9172(7) 0.1953(4) 0.000000
O13_2 O 1.000000 0.0864(4) 0.0624(3)
O16 O 0.8047(4) 0.0828(7) 0.000000
Zr4_3 Zr 1.000000 -0.000000 0.12976(5)
O20 O 0.9136(4) -0.000000 0.0624(3)
O24 O 0.8776(2) 0.1224(2) 0.1066(3)
Zr1_3 Zr 1.000000 -0.000000 0.87024(5)
O7 O 0.93414(17) 0.06586(17) 0.8096(3)
O8_2 O 1.000000 0.0864(4) 0.9376(3)
C13 C 0.8928(3) 0.1072(3) 0.8302(5)
C14 C 0.8558(4) 0.1442(4) 0.7755(5)
N3 N 0.7867(4) 0.2133(4) 0.6729(5)
C15 C 0.8089(4) 0.1911(4) 0.7925(5)
H7 H 0.800702 0.199298 0.839953
C16 C 0.8684(4) 0.1316(4) 0.7024(6)
H8 H 0.897832 0.102168 0.686649
C17 C 0.8307(5) 0.1693(5) 0.6568(6)
H9 H 0.837297 0.162703 0.608714
C18 C 0.7749(4) 0.2251(4) 0.7410(7)
O9 O 0.8776(2) 0.1224(2) 0.8934(3)
O10 O 0.56586(17) 0.43414(17) 0.6904(3)
C19 C 0.6072(3) 0.3928(3) 0.6698(5)
C20 C 0.6442(4) 0.3558(4) 0.7245(5)
N4 N 0.7133(4) 0.2867(4) 0.8271(5)
C21 C 0.6911(4) 0.3089(4) 0.7075(5)
H10 H 0.699298 0.300702 0.660047
C22 C 0.6316(4) 0.3684(4) 0.7976(6)
H11 H 0.602168 0.397832 0.813351
C23 C 0.6693(5) 0.3307(5) 0.8432(6)
H12 H 0.662703 0.337297 0.891286
C24 C 0.7251(4) 0.2749(4) 0.7590(7)
O11 O 0.6224(2) 0.3776(2) 0.6066(3)
Zr3_2 Zr 0.91254(3) 0.08746(3) 1.000000
O12_2 O 0.9172(7) 0.1953(4) 1.000000
O16_2 O 0.8047(4) 0.0828(7) 1.000000
O21 O 0.9136(4) -0.000000 0.9376(3)
Zr9 Zr 0.58746(3) 0.41254(3) 0.500000
O14_2 O 1.000000 0.9136(4) 0.0624(3)
Zr4_4 Zr 1.000000 1.000000 0.12976(5)
O20_2 O 0.9136(4) 1.000000 0.0624(3)
Zr8 Zr 0.91254(3) 0.91254(3) 0.000000
Zr1_4 Zr 1.000000 1.000000 0.87024(5)
O2_2 O 1.000000 0.9136(4) 0.9376(3)
O17 O 0.93414(17) 0.93414(17) 0.8096(3)
O21_2 O 0.9136(4) 1.000000 0.9376(3)
Zr8_2 Zr 0.91254(3) 0.91254(3) 1.000000
O1_2 O 0.06586(17) 0.06586(17) 0.1904(3)
C1_2 C 0.1072(3) 0.1072(3) 0.1698(5)
C2_2 C 0.1442(4) 0.1442(4) 0.2245(5)
N1_2 N 0.2133(4) 0.2133(4) 0.3271(5)
C3_2 C 0.1911(4) 0.1911(4) 0.2075(5)
H1_2 H 0.199298 0.199298 0.160047
C4_2 C 0.1316(4) 0.1316(4) 0.2976(6)
H2_2 H 0.102168 0.102168 0.313351
C5_2 C 0.1693(5) 0.1693(5) 0.3432(6)
H3_2 H 0.162703 0.162703 0.391286
C6_2 C 0.2251(4) 0.2251(4) 0.2590(7)
O3_2 O 0.1224(2) 0.1224(2) 0.1066(3)
O4_3 O 0.0828(7) 0.1953(4) 0.000000
O5_2 O 0.43414(17) 0.43414(17) 0.3096(3)
C7_2 C 0.3928(3) 0.3928(3) 0.3302(5)
C8_2 C 0.3558(4) 0.3558(4) 0.2755(5)
N2_2 N 0.2867(4) 0.2867(4) 0.1729(5)
C9_2 C 0.3089(4) 0.3089(4) 0.2925(5)
H4_2 H 0.300702 0.300702 0.339953
C10_2 C 0.3684(4) 0.3684(4) 0.2024(6)
H5_2 H 0.397832 0.397832 0.186649
C11_2 C 0.3307(5) 0.3307(5) 0.1568(6)
H6_2 H 0.337297 0.337297 0.108714
C12_2 C 0.2749(4) 0.2749(4) 0.2410(7)
O6_2 O 0.3776(2) 0.3776(2) 0.3934(3)
O15_3 O 0.1953(4) 0.0828(7) 0.000000
Zr6_2 Zr 0.500000 0.500000 0.37024(5)
Zr10_2 Zr 0.41254(3) 0.41254(3) 0.500000
O4_4 O 0.0828(7) 0.1953(4) 1.000000
O15_4 O 0.1953(4) 0.0828(7) 1.000000
O23_2 O 0.1224(2) 0.1224(2) 0.8934(3)
O18_2 O 0.06586(17) 0.93414(17) 0.1904(3)
O17_2 O 0.93414(17) 0.06586(17) 0.1904(3)
O7_2 O 0.93414(17) 0.93414(17) 0.1904(3)
C13_2 C 0.8928(3) 0.8928(3) 0.1698(5)
C14_2 C 0.8558(4) 0.8558(4) 0.2245(5)
N3_2 N 0.7867(4) 0.7867(4) 0.3271(5)
C15_2 C 0.8089(4) 0.8089(4) 0.2075(5)
H7_2 H 0.800702 0.800702 0.160047
C16_2 C 0.8684(4) 0.8684(4) 0.2976(6)
H8_2 H 0.897832 0.897832 0.313351
C17_2 C 0.8307(5) 0.8307(5) 0.3432(6)
H9_2 H 0.837297 0.837297 0.391286
C18_2 C 0.7749(4) 0.7749(4) 0.2590(7)
O9_2 O 0.8776(2) 0.8776(2) 0.1066(3)
O10_2 O 0.56586(17) 0.56586(17) 0.3096(3)
C19_2 C 0.6072(3) 0.6072(3) 0.3302(5)
C20_2 C 0.6442(4) 0.6442(4) 0.2755(5)
N4_2 N 0.7133(4) 0.7133(4) 0.1729(5)
C21_2 C 0.6911(4) 0.6911(4) 0.2925(5)
H10_2 H 0.699298 0.699298 0.339953
C22_2 C 0.6316(4) 0.6316(4) 0.2024(6)
H11_2 H 0.602168 0.602168 0.186649
C23_2 C 0.6693(5) 0.6693(5) 0.1568(6)
H12_2 H 0.662703 0.662703 0.108714
C24_2 C 0.7251(4) 0.7251(4) 0.2410(7)
O11_2 O 0.6224(2) 0.6224(2) 0.3934(3)
O12_3 O 0.9172(7) 0.8047(4) 0.000000
O16_3 O 0.8047(4) 0.9172(7) 0.000000
Zr9_2 Zr 0.58746(3) 0.58746(3) 0.500000
O12_4 O 0.9172(7) 0.8047(4) 1.000000
O16_4 O 0.8047(4) 0.9172(7) 1.000000
O24_2 O 0.8776(2) 0.8776(2) 0.8934(3)
C1_3 C 0.1072(3) 0.8928(3) 0.1698(5)
C2_3 C 0.1442(4) 0.8558(4) 0.2245(5)
N1_3 N 0.2133(4) 0.7867(4) 0.3271(5)
C3_3 C 0.1911(4) 0.8089(4) 0.2075(5)
H1_3 H 0.199298 0.800702 0.160047
C4_3 C 0.1316(4) 0.8684(4) 0.2976(6)
H2_3 H 0.102168 0.897832 0.313351
C5_3 C 0.1693(5) 0.8307(5) 0.3432(6)
H3_3 H 0.162703 0.837297 0.391286
C6_3 C 0.2251(4) 0.7749(4) 0.2590(7)
O5_3 O 0.43414(17) 0.56586(17) 0.3096(3)
C7_3 C 0.3928(3) 0.6072(3) 0.3302(5)
C8_3 C 0.3558(4) 0.6442(4) 0.2755(5)
N2_3 N 0.2867(4) 0.7133(4) 0.1729(5)
C9_3 C 0.3089(4) 0.6911(4) 0.2925(5)
H4_3 H 0.300702 0.699298 0.339953
C10_3 C 0.3684(4) 0.6316(4) 0.2024(6)
H5_3 H 0.397832 0.602168 0.186649
C11_3 C 0.3307(5) 0.6693(5) 0.1568(6)
H6_3 H 0.337297 0.662703 0.108714
C12_3 C 0.2749(4) 0.7251(4) 0.2410(7)
O6_3 O 0.3776(2) 0.6224(2) 0.3934(3)
C13_3 C 0.8928(3) 0.1072(3) 0.1698(5)
C14_3 C 0.8558(4) 0.1442(4) 0.2245(5)
N3_3 N 0.7867(4) 0.2133(4) 0.3271(5)
C15_3 C 0.8089(4) 0.1911(4) 0.2075(5)
H7_3 H 0.800702 0.199298 0.160047
C16_3 C 0.8684(4) 0.1316(4) 0.2976(6)
H8_3 H 0.897832 0.102168 0.313351
C17_3 C 0.8307(5) 0.1693(5) 0.3432(6)
H9_3 H 0.837297 0.162703 0.391286
C18_3 C 0.7749(4) 0.2251(4) 0.2590(7)
O10_3 O 0.56586(17) 0.43414(17) 0.3096(3)
C19_3 C 0.6072(3) 0.3928(3) 0.3302(5)
C20_3 C 0.6442(4) 0.3558(4) 0.2755(5)
N4_3 N 0.7133(4) 0.2867(4) 0.1729(5)
C21_3 C 0.6911(4) 0.3089(4) 0.2925(5)
H10_3 H 0.699298 0.300702 0.339953
C22_3 C 0.6316(4) 0.3684(4) 0.2024(6)
H11_3 H 0.602168 0.397832 0.186649
C23_3 C 0.6693(5) 0.3307(5) 0.1568(6)
H12_3 H 0.662703 0.337297 0.108714
C24_3 C 0.7251(4) 0.2749(4) 0.2410(7)
O11_3 O 0.6224(2) 0.3776(2) 0.3934(3)
C13_4 C 0.1072(3) 0.1072(3) 0.8302(5)
C14_4 C 0.1442(4) 0.1442(4) 0.7755(5)
N3_4 N 0.2133(4) 0.2133(4) 0.6729(5)
C15_4 C 0.1911(4) 0.1911(4) 0.7925(5)
H7_4 H 0.199298 0.199298 0.839953
C16_4 C 0.1316(4) 0.1316(4) 0.7024(6)
H8_4 H 0.102168 0.102168 0.686649
C17_4 C 0.1693(5) 0.1693(5) 0.6568(6)
H9_4 H 0.162703 0.162703 0.608714
C18_4 C 0.2251(4) 0.2251(4) 0.7410(7)
O10_4 O 0.43414(17) 0.43414(17) 0.6904(3)
C19_4 C 0.3928(3) 0.3928(3) 0.6698(5)
C20_4 C 0.3558(4) 0.3558(4) 0.7245(5)
N4_4 N 0.2867(4) 0.2867(4) 0.8271(5)
C21_4 C 0.3089(4) 0.3089(4) 0.7075(5)
H10_4 H 0.300702 0.300702 0.660047
C22_4 C 0.3684(4) 0.3684(4) 0.7976(6)
H11_4 H 0.397832 0.397832 0.813351
C23_4 C 0.3307(5) 0.3307(5) 0.8432(6)
H12_4 H 0.337297 0.337297 0.891286
C24_4 C 0.2749(4) 0.2749(4) 0.7590(7)
O11_4 O 0.3776(2) 0.3776(2) 0.6066(3)
C1_4 C 0.8928(3) 0.8928(3) 0.8302(5)
C2_4 C 0.8558(4) 0.8558(4) 0.7755(5)
N1_4 N 0.7867(4) 0.7867(4) 0.6729(5)
C3_4 C 0.8089(4) 0.8089(4) 0.7925(5)
H1_4 H 0.800702 0.800702 0.839953
C4_4 C 0.8684(4) 0.8684(4) 0.7024(6)
H2_4 H 0.897832 0.897832 0.686649
C5_4 C 0.8307(5) 0.8307(5) 0.6568(6)
H3_4 H 0.837297 0.837297 0.608714
C6_4 C 0.7749(4) 0.7749(4) 0.7410(7)
O5_4 O 0.56586(17) 0.56586(17) 0.6904(3)
C7_4 C 0.6072(3) 0.6072(3) 0.6698(5)
C8_4 C 0.6442(4) 0.6442(4) 0.7245(5)
N2_4 N 0.7133(4) 0.7133(4) 0.8271(5)
C9_4 C 0.6911(4) 0.6911(4) 0.7075(5)
H4_4 H 0.699298 0.699298 0.660047
C10_4 C 0.6316(4) 0.6316(4) 0.7976(6)
H5_4 H 0.602168 0.602168 0.813351
C11_4 C 0.6693(5) 0.6693(5) 0.8432(6)
H6_4 H 0.662703 0.662703 0.891286
C12_4 C 0.7251(4) 0.7251(4) 0.7590(7)
O6_4 O 0.6224(2) 0.6224(2) 0.6066(3)
O2_3 O 0.500000 0.4136(4) 0.4376(3)
O4_5 O 0.5828(7) 0.3047(4) 0.500000
O8_3 O 0.500000 0.5864(4) 0.4376(3)
O12_5 O 0.4172(7) 0.6953(4) 0.500000
O13_3 O 0.500000 0.5864(4) 0.5624(3)
O14_3 O 0.500000 0.4136(4) 0.5624(3)
O15_5 O 0.6953(4) 0.4172(7) 0.500000
O16_5 O 0.3047(4) 0.5828(7) 0.500000
O19_3 O 0.5864(4) 0.500000 0.5624(3)
O20_3 O 0.4136(4) 0.500000 0.5624(3)
O21_3 O 0.4136(4) 0.500000 0.4376(3)
O22_3 O 0.5864(4) 0.500000 0.4376(3)
O4_6 O 0.5828(7) 0.6953(4) 0.500000
O12_6 O 0.4172(7) 0.3047(4) 0.500000
O15_6 O 0.6953(4) 0.5828(7) 0.500000
O16_6 O 0.3047(4) 0.4172(7) 0.500000
loop_
_geom_bond_atom_site_label_1
_geom_bond_atom_site_label_2
_geom_bond_site_symmetry_1
_geom_bond_site_symmetry_2
Zr4 O13 1_555 1_555
O13 Zr7 1_555 1_555
Zr4 O19 1_555 1_555
O19 Zr7 1_555 1_555
O8 Zr1 1_555 1_555
O18 Zr1 1_555 1_555
O22 Zr1 1_555 1_555
Zr7_2 O8 1_555 1_555
O22 Zr7_2 1_555 1_555
O4 Zr2 1_555 1_555
O14 Zr2 1_555 1_555
O15 Zr2 1_555 1_555
O19_2 Zr2 1_555 1_555
O23 Zr2 1_555 1_555
O14 Zr4_2 1_555 1_555
Zr4_2 O19_2 1_555 1_555
Zr1_2 O1 1_555 1_555
O1 C1 1_555 1_555
O2 Zr1_2 1_555 1_555
C1 C2 1_555 1_555
C2 C3 1_555 1_555
N1 C5 1_555 1_555
C3 H1 1_555 1_555
C4 C2 1_555 1_555
H2 C4 1_555 1_555
C5 C4 1_555 1_555
H3 C5 1_555 1_555
C6 N1 1_555 1_555
O3 C1 1_555 1_555
Zr2_2 O2 1_555 1_555
O4_2 Zr2_2 1_555 1_555
O5 C7 1_555 1_555
C7 C8 1_555 1_555
C8 C9 1_555 1_555
N2 C11 1_555 1_555
C9 H4 1_555 1_555
C10 C8 1_555 1_555
H5 C10 1_555 1_555
C11 C10 1_555 1_555
H6 C11 1_555 1_555
C12 C6 1_555 1_555
O6 C7 1_555 1_555
O15_2 Zr2_2 1_555 1_555
Zr6 O5 1_555 1_555
O22_2 Zr1_2 1_555 1_555
Zr10 O6 1_555 1_555
C3 C6 1_555 1_555
O3 Zr2_2 1_555 1_555
Zr2_2 O22_2 1_555 1_555
N2 C12 1_555 1_555
C9 C12 1_555 1_555
O12 Zr3 1_555 1_555
O13_2 Zr3 1_555 1_555
O16 Zr3 1_555 1_555
Zr4_3 O13_2 1_555 1_555
O20 Zr3 1_555 1_555
O24 Zr3 1_555 1_555
Zr4_3 O20 1_555 1_555
O7 Zr1_3 1_555 1_555
O8_2 Zr1_3 1_555 1_555
C13 O7 1_555 1_555
C14 C13 1_555 1_555
N3 C17 1_555 1_555
C15 C14 1_555 1_555
H7 C15 1_555 1_555
C16 C14 1_555 1_555
H8 C16 1_555 1_555
C17 C16 1_555 1_555
H9 C17 1_555 1_555
C18 N3 1_555 1_555
O9 C13 1_555 1_555
O10 C19 1_555 1_555
C19 C20 1_555 1_555
C20 C21 1_555 1_555
N4 C23 1_555 1_555
C21 H10 1_555 1_555
C22 C20 1_555 1_555
H11 C22 1_555 1_555
C23 C22 1_555 1_555
H12 C23 1_555 1_555
C24 C18 1_555 1_555
O11 C19 1_555 1_555
Zr3_2 O8_2 1_555 1_555
O12_2 Zr3_2 1_555 1_555
O16_2 Zr3_2 1_555 1_555
Zr6 O10 1_555 1_555
O21 Zr1_3 1_555 1_555
Zr9 O11 1_555 1_555
C15 C18 1_555 1_555
O9 Zr3_2 1_555 1_555
N4 C24 1_555 1_555
C21 C24 1_555 1_555
Zr3_2 O21 1_555 1_555
O14_2 Zr4_4 1_555 1_555
O14_2 Zr8 1_555 1_555
Zr4_4 O20_2 1_555 1_555
O20_2 Zr8 1_555 1_555
O2_2 Zr1_4 1_555 1_555
O17 Zr1_4 1_555 1_555
O21_2 Zr1_4 1_555 1_555
Zr8_2 O2_2 1_555 1_555
O21_2 Zr8_2 1_555 1_555
Zr4 O1_2 1_555 1_555
O1_2 C1_2 1_555 1_555
C1_2 C2_2 1_555 1_555
C2_2 C3_2 1_555 1_555
N1_2 C5_2 1_555 1_555
C3_2 H1_2 1_555 1_555
C4_2 C2_2 1_555 1_555
H2_2 C4_2 1_555 1_555
C5_2 C4_2 1_555 1_555
H3_2 C5_2 1_555 1_555
C6_2 N1_2 1_555 1_555
O3_2 C1_2 1_555 1_555
O4_3 Zr7 1_555 1_555
O5_2 C7_2 1_555 1_555
C7_2 C8_2 1_555 1_555
C8_2 C9_2 1_555 1_555
N2_2 C11_2 1_555 1_555
C9_2 H4_2 1_555 1_555
C10_2 C8_2 1_555 1_555
H5_2 C10_2 1_555 1_555
C11_2 C10_2 1_555 1_555
H6_2 C11_2 1_555 1_555
C12_2 C6_2 1_555 1_555
O6_2 C7_2 1_555 1_555
O15_3 Zr7 1_555 1_555
Zr6_2 O5_2 1_555 1_555
Zr10_2 O6_2 1_555 1_555
C3_2 C6_2 1_555 1_555
O3_2 Zr7 1_555 1_555
N2_2 C12_2 1_555 1_555
C9_2 C12_2 1_555 1_555
O4_4 Zr7_2 1_555 1_555
O15_4 Zr7_2 1_555 1_555
O23_2 Zr7_2 1_555 1_555
O18_2 Zr4_2 1_555 1_555
O17_2 Zr4_3 1_555 1_555
O7_2 Zr4_4 1_555 1_555
C13_2 O7_2 1_555 1_555
C14_2 C13_2 1_555 1_555
N3_2 C17_2 1_555 1_555
C15_2 C14_2 1_555 1_555
H7_2 C15_2 1_555 1_555
C16_2 C14_2 1_555 1_555
H8_2 C16_2 1_555 1_555
C17_2 C16_2 1_555 1_555
H9_2 C17_2 1_555 1_555
C18_2 N3_2 1_555 1_555
O9_2 C13_2 1_555 1_555
O10_2 C19_2 1_555 1_555
C19_2 C20_2 1_555 1_555
C20_2 C21_2 1_555 1_555
N4_2 C23_2 1_555 1_555
C21_2 H10_2 1_555 1_555
C22_2 C20_2 1_555 1_555
H11_2 C22_2 1_555 1_555
C23_2 C22_2 1_555 1_555
H12_2 C23_2 1_555 1_555
C24_2 C18_2 1_555 1_555
O11_2 C19_2 1_555 1_555
O12_3 Zr8 1_555 1_555
O16_3 Zr8 1_555 1_555
Zr6_2 O10_2 1_555 1_555
Zr9_2 O11_2 1_555 1_555
C15_2 C18_2 1_555 1_555
O9_2 Zr8 1_555 1_555
N4_2 C24_2 1_555 1_555
C21_2 C24_2 1_555 1_555
O12_4 Zr8_2 1_555 1_555
O16_4 Zr8_2 1_555 1_555
O24_2 Zr8_2 1_555 1_555
O18_2 C1_3 1_555 1_555
C1_3 C2_3 1_555 1_555
C2_3 C3_3 1_555 1_555
N1_3 C5_3 1_555 1_555
C3_3 H1_3 1_555 1_555
C4_3 C2_3 1_555 1_555
H2_3 C4_3 1_555 1_555
C5_3 C4_3 1_555 1_555
H3_3 C5_3 1_555 1_555
C6_3 N1_3 1_555 1_555
O23 C1_3 1_555 1_555
O5_3 C7_3 1_555 1_555
C7_3 C8_3 1_555 1_555
C8_3 C9_3 1_555 1_555
N2_3 C11_3 1_555 1_555
C9_3 H4_3 1_555 1_555
C10_3 C8_3 1_555 1_555
H5_3 C10_3 1_555 1_555
C11_3 C10_3 1_555 1_555
H6_3 C11_3 1_555 1_555
C12_3 C6_3 1_555 1_555
O6_3 C7_3 1_555 1_555
Zr6_2 O5_3 1_555 1_555
Zr10 O6_3 1_555 1_555
C3_3 C6_3 1_555 1_555
N2_3 C12_3 1_555 1_555
C9_3 C12_3 1_555 1_555
C13_3 O17_2 1_555 1_555
C14_3 C13_3 1_555 1_555
N3_3 C17_3 1_555 1_555
C15_3 C14_3 1_555 1_555
H7_3 C15_3 1_555 1_555
C16_3 C14_3 1_555 1_555
H8_3 C16_3 1_555 1_555
C17_3 C16_3 1_555 1_555
H9_3 C17_3 1_555 1_555
C18_3 N3_3 1_555 1_555
O24 C13_3 1_555 1_555
O10_3 C19_3 1_555 1_555
C19_3 C20_3 1_555 1_555
C20_3 C21_3 1_555 1_555
N4_3 C23_3 1_555 1_555
C21_3 H10_3 1_555 1_555
C22_3 C20_3 1_555 1_555
H11_3 C22_3 1_555 1_555
C23_3 C22_3 1_555 1_555
H12_3 C23_3 1_555 1_555
C24_3 C18_3 1_555 1_555
O11_3 C19_3 1_555 1_555
Zr6_2 O10_3 1_555 1_555
Zr9 O11_3 1_555 1_555
C15_3 C18_3 1_555 1_555
N4_3 C24_3 1_555 1_555
C21_3 C24_3 1_555 1_555
C13_4 O18 1_555 1_555
C14_4 C13_4 1_555 1_555
N3_4 C17_4 1_555 1_555
C15_4 C14_4 1_555 1_555
H7_4 C15_4 1_555 1_555
C16_4 C14_4 1_555 1_555
H8_4 C16_4 1_555 1_555
C17_4 C16_4 1_555 1_555
H9_4 C17_4 1_555 1_555
C18_4 N3_4 1_555 1_555
O23_2 C13_4 1_555 1_555
O10_4 C19_4 1_555 1_555
C19_4 C20_4 1_555 1_555
C20_4 C21_4 1_555 1_555
N4_4 C23_4 1_555 1_555
C21_4 H10_4 1_555 1_555
C22_4 C20_4 1_555 1_555
H11_4 C22_4 1_555 1_555
C23_4 C22_4 1_555 1_555
H12_4 C23_4 1_555 1_555
C24_4 C18_4 1_555 1_555
O11_4 C19_4 1_555 1_555
Zr6 O10_4 1_555 1_555
Zr10_2 O11_4 1_555 1_555
C15_4 C18_4 1_555 1_555
N4_4 C24_4 1_555 1_555
C21_4 C24_4 1_555 1_555
O17 C1_4 1_555 1_555
C1_4 C2_4 1_555 1_555
C2_4 C3_4 1_555 1_555
N1_4 C5_4 1_555 1_555
C3_4 H1_4 1_555 1_555
C4_4 C2_4 1_555 1_555
H2_4 C4_4 1_555 1_555
C5_4 C4_4 1_555 1_555
H3_4 C5_4 1_555 1_555
C6_4 N1_4 1_555 1_555
O24_2 C1_4 1_555 1_555
O5_4 C7_4 1_555 1_555
C7_4 C8_4 1_555 1_555
C8_4 C9_4 1_555 1_555
N2_4 C11_4 1_555 1_555
C9_4 H4_4 1_555 1_555
C10_4 C8_4 1_555 1_555
H5_4 C10_4 1_555 1_555
C11_4 C10_4 1_555 1_555
H6_4 C11_4 1_555 1_555
C12_4 C6_4 1_555 1_555
O6_4 C7_4 1_555 1_555
Zr6 O5_4 1_555 1_555
Zr9_2 O6_4 1_555 1_555
C3_4 C6_4 1_555 1_555
N2_4 C12_4 1_555 1_555
C9_4 C12_4 1_555 1_555
O2_3 Zr6_2 1_555 1_555
Zr9 O2_3 1_555 1_555
O4_5 Zr9 1_555 1_555
O8_3 Zr6_2 1_555 1_555
Zr10 O8_3 1_555 1_555
O12_5 Zr10 1_555 1_555
O13_3 Zr10 1_555 1_555
O14_3 Zr9 1_555 1_555
O15_5 Zr9 1_555 1_555
O16_5 Zr10 1_555 1_555
Zr6 O13_3 1_555 1_555
O19_3 Zr9 1_555 1_555
O20_3 Zr10 1_555 1_555
O21_3 Zr6_2 1_555 1_555
O22_3 Zr6_2 1_555 1_555
Zr9_2 O8_3 1_555 1_555
Zr10_2 O2_3 1_555 1_555
Zr9 O22_3 1_555 1_555
Zr10 O21_3 1_555 1_555
O13_3 Zr9_2 1_555 1_555
O14_3 Zr6 1_555 1_555
O14_3 Zr10_2 1_555 1_555
Zr6 O19_3 1_555 1_555
Zr6 O20_3 1_555 1_555
O19_3 Zr9_2 1_555 1_555
O20_3 Zr10_2 1_555 1_555
O21_3 Zr10_2 1_555 1_555
O22_3 Zr9_2 1_555 1_555
O4_6 Zr9_2 1_555 1_555
O12_6 Zr10_2 1_555 1_555
O15_6 Zr9_2 1_555 1_555
O16_6 Zr10_2 1_555 1_555

#END
