
###############################################################################
#
# This file contains modified crystal structure data generated from the
# MOF subset of the Cambridge Structural Database (CSD) v543 
# hosted by the Cambridge Crystallographic Data Centre (CCDC).
#
# This work is licensed under the Creative Commons
# Attribution-NonCommercial-ShareAlike 4.0 International License.
# To view a copy of this license, visit
# http://creativecommons.org/licenses/by-nc-sa/4.0/
# or send a letter to
# Creative Commons, PO Box 1866, Mountain View, CA 94042, USA.
#
# CIF created using the CSD Python API on 29 September 2022
# The structure has been converted into the P1 space group
# The structure has a 3D framework
# The original CSD entry IGINIX02 is in the monoclinic crystal system
# The framework has been calculated to contain at least 10.0% void space
# The void calculation uses a probe of radius 1.32A, grid spacing 0.4
#
###############################################################################

data_IGINIX02
_chemical_formula_moiety         '(C68 H52 N12 O36 Zn8)n'
_symmetry_cell_setting           triclinic
_symmetry_space_group_name_H-M   'P 1'
_symmetry_Int_Tables_number      1
_space_group_name_Hall           'P 1'
loop_
_symmetry_equiv_pos_site_id
_symmetry_equiv_pos_as_xyz
1 x,y,z
_cell_length_a                   14.0774(10)
_cell_length_b                   12.1211(9)
_cell_length_c                   14.6325(10)
_cell_angle_alpha                90
_cell_angle_beta                 106.079(2)
_cell_angle_gamma                90
_cell_volume                     2399.12
loop_
_atom_site_label
_atom_site_type_symbol
_atom_site_fract_x
_atom_site_fract_y
_atom_site_fract_z
O2 O 0.71031(11) 0.43044(12) 0.09682(10)
O7 O 0.67502(13) 0.58874(13) 0.01594(12)
C10 C 0.66044(16) 0.49107(18) 0.02685(15)
Zn4 Zn 0.696783(17) 0.256043(19) 0.073952(16)
Zn6 Zn 0.850375(18) 0.47866(2) 0.155776(17)
Zn1 Zn 0.196783(17) 0.243957(19) 0.573952(16)
Zn2 Zn 0.350375(18) 0.02134(2) 0.655776(17)
O1 O 0.60906(12) 0.25282(12) 0.17215(11)
O3 O 0.67138(11) 0.09845(13) 0.25085(11)
O4 O 0.15626(11) 0.40242(12) 0.52604(11)
O5 O 0.28776(12) 0.23408(13) 0.47550(11)
O6 O 0.32374(11) 0.28808(13) 0.67480(10)
O8 O 0.39824(12) 0.13724(13) 0.75227(11)
N1 N 0.58159(13) 0.32014(15) 0.96114(12)
O9 O 0.38486(13) 0.09049(15) 0.53911(12)
N2 N 0.18096(15) 0.58691(16) 0.54154(14)
N3 N 0.53636(14) 0.09254(15) 0.34265(13)
C1 C 0.45121(15) 0.31113(18) 0.81630(14)
C2 C 0.61201(15) 0.17826(17) 0.23238(15)
C3 C 0.58112(15) 0.43061(17) 0.95348(15)
C4 C 0.51806(16) 0.26146(18) 0.89374(15)
C5 C 0.51439(16) 0.48661(18) 0.88046(15)
C6 C 0.19784(16) 0.48432(18) 0.57080(15)
C7 C 0.44815(16) 0.42574(18) 0.81091(15)
C8 C 0.53682(16) 0.18351(18) 0.28973(15)
C9 C 0.41357(17) 0.26952(19) 0.35046(16)
C11 C 0.47469(17) 0.27195(19) 0.29065(16)
C12 C 0.38508(16) 0.24022(18) 0.74117(15)
C13 C 0.23912(19) 0.6768(2) 0.59584(19)
C14 C 0.41397(16) 0.17653(19) 0.40637(15)
C15 C 0.35588(16) 0.16709(18) 0.47941(15)
C16 C 0.47444(17) 0.08857(18) 0.39721(15)
C17 C 0.1130(2) 0.6141(2) 0.4498(2)
H1 H 0.47149(17) 0.02262(18) 0.43141(15)
H2 H 0.47396(17) 0.33381(19) 0.25059(16)
H3 H 0.37202(17) 0.33047(19) 0.35322(16)
H4 H 0.51854(16) 0.18332(18) 0.89885(15)
H5 H 0.51411(16) 0.56494(18) 0.87820(15)
H6 H 0.40136(16) 0.46179(18) 0.76032(15)
H7 H 0.24513(16) 0.47195(18) 0.63029(15)
H8 H 0.2749(11) 0.6501(5) 0.6593(5)
H9 H 0.2865(10) 0.7033(11) 0.5629(7)
H10 H 0.1950(2) 0.7372(7) 0.6018(12)
H11 H 0.1493(4) 0.6174(18) 0.4016(4)
H12 H 0.0616(9) 0.5574(10) 0.4321(7)
H13 H 0.0824(12) 0.6859(9) 0.4539(5)
O10 O 0.10906(12) 0.24718(12) 0.67215(11)
O11 O 0.21031(11) 0.06956(12) 0.59682(10)
N4 N 0.08159(13) 0.17986(15) 0.46114(12)
Zn5 Zn 0.649625(18) 0.97866(2) 0.344224(17)
O12 O 0.32862(11) 0.90155(13) 0.74915(11)
N5 N 0.46364(14) 0.90746(15) 0.65735(13)
O5_2 O 0.21224(12) 0.73408(13) 0.02450(11)
C9_2 C 0.08643(17) 0.76952(19) 0.14954(16)
C11_2 C 0.02531(17) 0.77195(19) 0.20935(16)
C14_2 C 0.08603(16) 0.67653(19) 0.09363(15)
C15_2 C 0.14412(16) 0.66709(18) 0.02059(15)
C16_2 C 0.02556(17) 0.58857(18) 0.10279(15)
H1_2 H 0.02851(17) 0.52262(18) 0.06859(15)
H2_2 H 0.02604(17) 0.83381(19) 0.24941(16)
H3_2 H 0.12798(17) 0.83047(19) 0.14678(16)
N4_2 N 0.41841(13) 0.67986(15) 0.03886(12)
Zn1_2 Zn 0.303217(17) 0.743957(19) 0.926048(16)
Zn2_2 Zn 0.149625(18) 0.52134(2) 0.844224(17)
O4_2 O 0.34374(11) 0.90242(12) 0.97396(11)
O6_2 O 0.17626(11) 0.78808(13) 0.82520(10)
O8_2 O 0.10176(12) 0.63724(13) 0.74773(11)
O9_2 O 0.11514(13) 0.59049(15) 0.96089(12)
C1_2 C 0.04879(15) 0.81113(18) 0.68370(14)
C6_2 C 0.30216(16) 0.98432(18) 0.92920(15)
C7_2 C 0.05185(16) 0.92574(18) 0.68909(15)
C12_2 C 0.11492(16) 0.74022(18) 0.75883(15)
H6_2 H 0.09864(16) 0.96179(18) 0.73968(15)
H7_2 H 0.25487(16) 0.97195(18) 0.86971(15)
O10_2 O 0.39094(12) 0.74718(12) 0.82785(11)
O11_2 O 0.28969(11) 0.56956(12) 0.90318(10)
O12_2 O 0.17138(11) 0.40155(13) 0.75085(11)
N5_2 N 0.03636(14) 0.40746(15) 0.84265(13)
O1_2 O 0.89094(12) 0.75282(12) 0.32785(11)
O3_2 O 0.82862(11) 0.59845(13) 0.24915(11)
N3_2 N 0.96364(14) 0.59254(15) 0.15735(13)
C2_2 C 0.88799(15) 0.67826(17) 0.26762(15)
C8_2 C 0.96318(16) 0.68351(18) 0.21027(15)
Zn3 Zn 0.803217(17) 0.756043(19) 0.426048(16)
O2_2 O 0.78969(11) 0.93044(12) 0.40318(10)
N1_2 N 0.91841(13) 0.82014(15) 0.53886(12)
C3_2 C 0.91888(15) 0.93061(17) 0.54652(15)
C4_2 C 0.98194(16) 0.76146(18) 0.60626(15)
C5_2 C 0.98561(16) 0.98661(18) 0.61954(15)
C10_2 C 0.83956(16) 0.99107(18) 0.47315(15)
H4_2 H 0.98146(16) 0.68332(18) 0.60115(15)
O4_3 O 0.84374(11) 0.59758(12) 0.47396(11)
O5_3 O 0.71224(12) 0.76592(13) 0.52450(11)
O6_3 O 0.67626(11) 0.71192(13) 0.32520(10)
O8_3 O 0.60176(12) 0.86276(13) 0.24773(11)
O9_3 O 0.61514(13) 0.90951(15) 0.46089(12)
N2_2 N 0.81904(15) 0.41309(16) 0.45846(14)
C1_3 C 0.54879(15) 0.68887(18) 0.18370(14)
C2_3 C 0.38799(15) 0.82174(17) 0.76762(15)
C3_3 C 0.41888(15) 0.56939(17) 0.04652(15)
C4_3 C 0.48194(16) 0.73854(18) 0.10626(15)
C5_3 C 0.48561(16) 0.51339(18) 0.11954(15)
C6_3 C 0.80216(16) 0.51568(18) 0.42920(15)
C7_3 C 0.55185(16) 0.57426(18) 0.18909(15)
C8_3 C 0.46318(16) 0.81649(18) 0.71027(15)
C9_3 C 0.58643(17) 0.73048(19) 0.64954(16)
C11_3 C 0.52531(17) 0.72805(19) 0.70935(16)
C12_3 C 0.61492(16) 0.75978(18) 0.25883(15)
C13_2 C 0.76088(19) 0.3232(2) 0.40416(19)
C14_3 C 0.58603(16) 0.82347(19) 0.59363(15)
C15_3 C 0.64412(16) 0.83291(18) 0.52059(15)
C16_3 C 0.52556(17) 0.91143(18) 0.60279(15)
C17_2 C 0.8870(2) 0.3859(2) 0.5502(2)
H1_3 H 0.52851(17) 0.97738(18) 0.56859(15)
H2_3 H 0.52604(17) 0.66619(19) 0.74941(16)
H3_3 H 0.62798(17) 0.66953(19) 0.64678(16)
H4_3 H 0.48146(16) 0.81668(18) 0.10115(15)
H5_2 H 0.48589(16) 0.43506(18) 0.12180(15)
H6_3 H 0.59864(16) 0.53821(18) 0.23968(15)
H7_3 H 0.75487(16) 0.52805(18) 0.36971(15)
H8_2 H 0.7251(11) 0.3499(5) 0.3407(5)
H9_2 H 0.7135(10) 0.2967(11) 0.4371(7)
H10_2 H 0.8050(2) 0.2628(7) 0.3982(12)
H11_2 H 0.8507(4) 0.3826(18) 0.5984(4)
H12_2 H 0.9384(9) 0.4426(10) 0.5679(7)
H13_2 H 0.9176(12) 0.3141(9) 0.5461(5)
O7_2 O 0.32498(13) 0.41126(13) 0.98406(12)
C10_3 C 0.33956(16) 0.50893(18) 0.97315(15)
C3_4 C 0.08112(15) 0.06939(17) 0.45348(15)
C4_4 C 0.01806(16) 0.23854(18) 0.39374(15)
C5_4 C 0.01439(16) 0.01339(18) 0.38046(15)
C10_4 C 0.16044(16) 0.00893(18) 0.52685(15)
H4_4 H 0.01854(16) 0.31668(18) 0.39885(15)
C2_4 C 0.11201(15) 0.32174(17) 0.73238(15)
C8_4 C 0.03682(16) 0.31649(18) 0.78973(15)
O4_4 O 0.65626(11) 0.09758(12) 0.02604(11)
O6_4 O 0.82374(11) 0.21192(13) 0.17480(10)
O8_4 O 0.89824(12) 0.36276(13) 0.25227(11)
O9_4 O 0.88486(13) 0.40951(15) 0.03911(12)
C1_4 C 0.95121(15) 0.18887(18) 0.31630(14)
C6_4 C 0.69784(16) 0.01568(18) 0.07080(15)
C7_4 C 0.94815(16) 0.07426(18) 0.31091(15)
C12_4 C 0.88508(16) 0.25978(18) 0.24117(15)
H6_4 H 0.90136(16) 0.03821(18) 0.26032(15)
H7_4 H 0.74513(16) 0.02805(18) 0.13029(15)
O5_4 O 0.78776(12) 0.26592(13) 0.97550(11)
C9_4 C 0.91357(17) 0.23048(19) 0.85046(16)
C11_4 C 0.97469(17) 0.22805(19) 0.79065(16)
C14_4 C 0.91397(16) 0.32347(19) 0.90637(15)
C15_4 C 0.85588(16) 0.33291(18) 0.97941(15)
C16_4 C 0.97444(17) 0.41143(18) 0.89721(15)
H1_4 H 0.97149(17) 0.47738(18) 0.93141(15)
H2_4 H 0.97396(17) 0.16619(19) 0.75059(16)
H3_4 H 0.87202(17) 0.16953(19) 0.85322(16)
C17_3 C 0.3870(2) 0.1141(2) 0.0502(2)
H11_3 H 0.3507(4) 0.1174(18) 0.0984(4)
H12_3 H 0.4384(9) 0.0574(10) 0.0679(7)
H13_3 H 0.4176(12) 0.1859(9) 0.0461(5)
N2_3 N 0.31904(15) 0.08691(16) 0.95846(14)
C13_3 C 0.26088(19) 0.1768(2) 0.90416(19)
H8_3 H 0.2251(11) 0.1501(5) 0.8407(5)
H9_3 H 0.2135(10) 0.2033(11) 0.9371(7)
H10_3 H 0.3050(2) 0.2372(7) 0.8982(12)
O7_3 O 0.82498(13) 0.08874(13) 0.48406(12)
H5_3 H 0.98589(16) 0.06494(18) 0.62180(15)
O7_4 O 0.17502(13) 0.91126(13) 0.51594(12)
H5_4 H 0.01411(16) 0.93506(18) 0.37820(15)
N2_4 N 0.68096(15) 0.91309(16) 0.04154(14)
C13_4 C 0.73912(19) 0.8232(2) 0.09584(19)
H8_4 H 0.7749(11) 0.8499(5) 0.1593(5)
H9_4 H 0.7865(10) 0.7967(11) 0.0629(7)
H10_4 H 0.6950(2) 0.7628(7) 0.1018(12)
C17_4 C 0.6130(2) 0.8859(2) 0.9498(2)
H11_4 H 0.6493(4) 0.8826(18) 0.9016(4)
H12_4 H 0.5616(9) 0.9426(10) 0.9321(7)
H13_4 H 0.5824(12) 0.8141(9) 0.9539(5)
loop_
_geom_bond_atom_site_label_1
_geom_bond_atom_site_label_2
_geom_bond_site_symmetry_1
_geom_bond_site_symmetry_2
O2 C10 1_555 1_555
O7 C10 1_555 1_555
Zn4 O2 1_555 1_555
Zn6 O2 1_555 1_555
Zn1 O4 1_555 1_555
Zn2 O8 1_555 1_555
O1 C2 1_555 1_555
O3 C2 1_555 1_555
O4 C6 1_555 1_555
O5 Zn1 1_555 1_555
O6 Zn1 1_555 1_555
O8 C12 1_555 1_555
N1 C3 1_555 1_555
O9 Zn2 1_555 1_555
N2 C6 1_555 1_555
N3 C8 1_555 1_555
C1 C4 1_555 1_555
C2 C8 1_555 1_555
C3 C5 1_555 1_555
C4 N1 1_555 1_555
C5 C7 1_555 1_555
C6 H7 1_555 1_555
C7 C1 1_555 1_555
C8 C11 1_555 1_555
C9 C11 1_555 1_555
C11 H2 1_555 1_555
C12 O6 1_555 1_555
C13 N2 1_555 1_555
C14 C9 1_555 1_555
C15 O5 1_555 1_555
C16 N3 1_555 1_555
C17 N2 1_555 1_555
H1 C16 1_555 1_555
H3 C9 1_555 1_555
H4 C4 1_555 1_555
H5 C5 1_555 1_555
H6 C7 1_555 1_555
H8 C13 1_555 1_555
H9 C13 1_555 1_555
H10 C13 1_555 1_555
H11 C17 1_555 1_555
H12 C17 1_555 1_555
H13 C17 1_555 1_555
Zn4 O1 1_555 1_555
O10 Zn1 1_555 1_555
O11 Zn1 1_555 1_555
N4 Zn1 1_555 1_555
Zn2 O11 1_555 1_555
O9 C15 1_555 1_555
C1 C12 1_555 1_555
C14 C15 1_555 1_555
C14 C16 1_555 1_555
C9_2 C11_2 1_555 1_555
C11_2 H2_2 1_555 1_555
C14_2 C9_2 1_555 1_555
C15_2 O5_2 1_555 1_555
H1_2 C16_2 1_555 1_555
H3_2 C9_2 1_555 1_555
C14_2 C15_2 1_555 1_555
C14_2 C16_2 1_555 1_555
Zn1_2 O4_2 1_555 1_555
Zn2_2 O8_2 1_555 1_555
O4_2 C6_2 1_555 1_555
O6_2 Zn1_2 1_555 1_555
O8_2 C12_2 1_555 1_555
O9_2 Zn2_2 1_555 1_555
C6_2 H7_2 1_555 1_555
C7_2 C1_2 1_555 1_555
C12_2 O6_2 1_555 1_555
H6_2 C7_2 1_555 1_555
O10_2 Zn1_2 1_555 1_555
O11_2 Zn1_2 1_555 1_555
O12_2 Zn2_2 1_555 1_555
N5_2 Zn2_2 1_555 1_555
Zn2_2 O11_2 1_555 1_555
C1_2 C12_2 1_555 1_555
O1_2 C2_2 1_555 1_555
O3_2 C2_2 1_555 1_555
N3_2 C8_2 1_555 1_555
C2_2 C8_2 1_555 1_555
Zn3 O1_2 1_555 1_555
Zn6 O3_2 1_555 1_555
N3_2 Zn6 1_555 1_555
O2_2 C10_2 1_555 1_555
N1_2 C3_2 1_555 1_555
C3_2 C5_2 1_555 1_555
C4_2 N1_2 1_555 1_555
C10_2 C3_2 1_555 1_555
H4_2 C4_2 1_555 1_555
Zn3 O2_2 1_555 1_555
Zn5 O2_2 1_555 1_555
N1_2 Zn3 1_555 1_555
Zn3 O4_3 1_555 1_555
Zn5 O8_3 1_555 1_555
O10_2 C2_3 1_555 1_555
O12 C2_3 1_555 1_555
O4_3 C6_3 1_555 1_555
O5_3 Zn3 1_555 1_555
O6_3 Zn3 1_555 1_555
O8_3 C12_3 1_555 1_555
N4_2 C3_3 1_555 1_555
O9_3 Zn5 1_555 1_555
N2_2 C6_3 1_555 1_555
N5 C8_3 1_555 1_555
C1_3 C4_3 1_555 1_555
C2_3 C8_3 1_555 1_555
C3_3 C5_3 1_555 1_555
C4_3 N4_2 1_555 1_555
C5_3 C7_3 1_555 1_555
C6_3 H7_3 1_555 1_555
C7_3 C1_3 1_555 1_555
C8_3 C11_3 1_555 1_555
C9_3 C11_3 1_555 1_555
C11_3 H2_3 1_555 1_555
C12_3 O6_3 1_555 1_555
C13_2 N2_2 1_555 1_555
C14_3 C9_3 1_555 1_555
C15_3 O5_3 1_555 1_555
C16_3 N5 1_555 1_555
C17_2 N2_2 1_555 1_555
H1_3 C16_3 1_555 1_555
H3_3 C9_3 1_555 1_555
H4_3 C4_3 1_555 1_555
H5_2 C5_3 1_555 1_555
H6_3 C7_3 1_555 1_555
H8_2 C13_2 1_555 1_555
H9_2 C13_2 1_555 1_555
H10_2 C13_2 1_555 1_555
H11_2 C17_2 1_555 1_555
H12_2 C17_2 1_555 1_555
H13_2 C17_2 1_555 1_555
O9_3 C15_3 1_555 1_555
C1_3 C12_3 1_555 1_555
C14_3 C15_3 1_555 1_555
C14_3 C16_3 1_555 1_555
O11_2 C10_3 1_555 1_555
O7_2 C10_3 1_555 1_555
O11 C10_4 1_555 1_555
N4 C3_4 1_555 1_555
C3_4 C5_4 1_555 1_555
C4_4 N4 1_555 1_555
C10_4 C3_4 1_555 1_555
H4_4 C4_4 1_555 1_555
O10 C2_4 1_555 1_555
O12_2 C2_4 1_555 1_555
N5_2 C8_4 1_555 1_555
C2_4 C8_4 1_555 1_555
Zn4 O4_4 1_555 1_555
Zn6 O8_4 1_555 1_555
O4_4 C6_4 1_555 1_555
O6_4 Zn4 1_555 1_555
O8_4 C12_4 1_555 1_555
O9_4 Zn6 1_555 1_555
C6_4 H7_4 1_555 1_555
C7_4 C1_4 1_555 1_555
C12_4 O6_4 1_555 1_555
H6_4 C7_4 1_555 1_555
C1_4 C12_4 1_555 1_555
C9_4 C11_4 1_555 1_555
C11_4 H2_4 1_555 1_555
C14_4 C9_4 1_555 1_555
C15_4 O5_4 1_555 1_555
H1_4 C16_4 1_555 1_555
H3_4 C9_4 1_555 1_555
C14_4 C15_4 1_555 1_555
C14_4 C16_4 1_555 1_555
H11_3 C17_3 1_555 1_555
H12_3 C17_3 1_555 1_555
H13_3 C17_3 1_555 1_555
C13_3 N2_3 1_555 1_555
H8_3 C13_3 1_555 1_555
H9_3 C13_3 1_555 1_555
H10_3 C13_3 1_555 1_555
C13_4 N2_4 1_555 1_555
H8_4 C13_4 1_555 1_555
H9_4 C13_4 1_555 1_555
H10_4 C13_4 1_555 1_555
H11_4 C17_4 1_555 1_555
H12_4 C17_4 1_555 1_555
H13_4 C17_4 1_555 1_555

#END
