
###############################################################################
#
# This file contains modified crystal structure data generated from the
# MOF subset of the Cambridge Structural Database (CSD) v543 
# hosted by the Cambridge Crystallographic Data Centre (CCDC).
#
# This work is licensed under the Creative Commons
# Attribution-NonCommercial-ShareAlike 4.0 International License.
# To view a copy of this license, visit
# http://creativecommons.org/licenses/by-nc-sa/4.0/
# or send a letter to
# Creative Commons, PO Box 1866, Mountain View, CA 94042, USA.
#
# CIF created using the CSD Python API on 29 September 2022
# The structure has been converted into the P1 space group
# The structure has a 3D framework
# The original CSD entry IGUTUB01 is in the monoclinic crystal system
# The framework has been calculated to contain at least 10.0% void space
# The void calculation uses a probe of radius 1.32A, grid spacing 0.4
#
###############################################################################

data_IGUTUB01
_chemical_formula_moiety         '(C96 H64 Cd4 N8 O16)n'
_symmetry_cell_setting           triclinic
_symmetry_space_group_name_H-M   'P 1'
_symmetry_Int_Tables_number      1
_space_group_name_Hall           'P 1'
loop_
_symmetry_equiv_pos_site_id
_symmetry_equiv_pos_as_xyz
1 x,y,z
_cell_length_a                   9.4420(3)
_cell_length_b                   17.6271(5)
_cell_length_c                   14.8977(4)
_cell_angle_alpha                90
_cell_angle_beta                 96.085(3)
_cell_angle_gamma                90
_cell_volume                     2465.53
loop_
_atom_site_label
_atom_site_type_symbol
_atom_site_fract_x
_atom_site_fract_y
_atom_site_fract_z
C8 C 0.0005(6) 0.1803(3) 0.1385(3)
H5 H 0.0634 0.1486 0.1756
Cd4 Cd 0.12961(3) 0.415717(15) 0.483004(17)
O5 O 0.0755(3) 0.5370(2) 0.5948(2)
N3 N 0.0147(4) 0.6679(2) 0.4514(2)
Cd3 Cd 0.12961(3) 0.084283(15) 0.983004(17)
H13 H 0.1509 0.0171 0.7874
Cd1 Cd 0.87039(3) 0.584283(15) 0.516996(17)
O1 O 0.7577(3) 0.55018(17) 0.37937(19)
O2 O 0.6899(3) 0.67424(19) 0.52996(19)
O3 O 0.8495(3) 0.66288(17) 0.64943(19)
O4 O 0.9245(3) 0.4630(2) 0.4052(2)
N1 N 0.9853(4) 0.1679(2) 0.0486(2)
N2 N 0.2453(4) 0.9923(2) 0.9092(2)
C1 C 0.8182(4) 0.4900(2) 0.3594(3)
C2 C 0.7533(5) 0.4477(3) 0.2776(3)
C3 C 0.8213(4) 0.3858(2) 0.2433(3)
H1 H 0.9109 0.3697 0.2720
C4 C 0.7601(5) 0.3471(3) 0.1673(3)
C5 C 0.6272(6) 0.3720(4) 0.1265(4)
H2 H 0.5827 0.3454 0.0756
C6 C 0.5605(7) 0.4338(4) 0.1587(5)
H3 H 0.4712 0.4501 0.1297
C7 C 0.6236(6) 0.4727(4) 0.2339(4)
H4 H 0.5785 0.5163 0.2555
C9 C 0.9290(5) 0.2368(3) 0.1789(3)
H6 H 0.9435 0.2432 0.2425
C10 C 0.8360(5) 0.2841(3) 0.1273(3)
C11 C 0.8206(5) 0.2708(3) 0.0351(3)
C13 C 0.7333(5) 0.6878(2) 0.6124(3)
C14 C 0.6414(4) 0.7362(2) 0.6654(3)
C15 C 0.5212(7) 0.7710(4) 0.6241(3)
H9 H 0.4937 0.7624 0.5617
C16 C 0.4397(7) 0.8184(4) 0.6722(4)
H10 H 0.3583 0.8425 0.6418
C17 C 0.4743(4) 0.8313(2) 0.7633(3)
C18 C 0.5939(5) 0.7942(3) 0.8046(3)
H11 H 0.6205 0.8012 0.8674
C19 C 0.6747(5) 0.7474(3) 0.7560(3)
H12 H 0.7553 0.7224 0.7861
C20 C 0.2202(5) 0.9850(3) 0.8189(3)
C21 C 0.2896(5) 0.9336(3) 0.7701(3)
H14 H 0.2687 0.9311 0.7063
C22 C 0.3912(4) 0.8848(2) 0.8140(3)
C23 C 0.4162(5) 0.8926(3) 0.9072(3)
H15 H 0.4841 0.8609 0.9406
C24 C 0.3433(5) 0.9456(3) 0.9510(3)
N4 N 0.7547(4) 0.4923(2) 0.5908(2)
O2_2 O 0.3101(3) 0.17424(19) 0.97004(19)
O3_2 O 0.1505(3) 0.16288(17) 0.85057(19)
C13_2 C 0.2667(5) 0.1878(2) 0.8876(3)
C14_2 C 0.3586(4) 0.2362(2) 0.8346(3)
C15_2 C 0.4788(7) 0.2710(4) 0.8759(3)
H9_2 H 0.5063 0.2624 0.9383
C16_2 C 0.5603(7) 0.3184(4) 0.8278(4)
H10_2 H 0.6417 0.3425 0.8582
C17_2 C 0.5257(4) 0.3313(2) 0.7367(3)
C18_2 C 0.4061(5) 0.2942(3) 0.6954(3)
H11_2 H 0.3795 0.3012 0.6326
C19_2 C 0.3253(5) 0.2474(3) 0.7440(3)
H12_2 H 0.2447 0.2224 0.7139
C20_2 C 0.7798(5) 0.4850(3) 0.6811(3)
H13_2 H 0.8491 0.5171 0.7126
C21_2 C 0.7104(5) 0.4336(3) 0.7299(3)
H14_2 H 0.7313 0.4311 0.7937
C22_2 C 0.6088(4) 0.3848(2) 0.6860(3)
C23_2 C 0.5838(5) 0.3926(3) 0.5928(3)
H15_2 H 0.5159 0.3609 0.5594
C24_2 C 0.6567(5) 0.4456(3) 0.5490(3)
H16 H 0.6368 0.4496 0.4853
O4_2 O 0.0755(3) 0.9630(2) 0.0948(2)
C1_2 C 0.1818(4) 0.9900(2) 0.1406(3)
C2_2 C 0.2467(5) 0.9477(3) 0.2224(3)
C3_2 C 0.1787(4) 0.8858(2) 0.2567(3)
H1_2 H 0.0891 0.8697 0.2280
C4_2 C 0.2399(5) 0.8471(3) 0.3327(3)
C5_2 C 0.3728(6) 0.8720(4) 0.3735(4)
H2_2 H 0.4173 0.8454 0.4244
C6_2 C 0.4395(7) 0.9338(4) 0.3413(5)
H3_2 H 0.5288 0.9501 0.3703
C7_2 C 0.3764(6) 0.9727(4) 0.2661(4)
C9_2 C 0.0710(5) 0.7368(3) 0.3211(3)
H6_2 H 0.0565 0.7432 0.2575
C10_2 C 0.1640(5) 0.7841(3) 0.3727(3)
C11_2 C 0.1794(5) 0.7708(3) 0.4649(3)
H7 H 0.2412 0.8018 0.5036
C12 C 0.1056(5) 0.7127(3) 0.5005(3)
H8 H 0.1205 0.7041 0.5638
O5_2 O 0.9245(3) 0.0370(2) 0.9052(2)
C8_2 C 0.9995(6) 0.6803(3) 0.3615(3)
H5_2 H 0.9366 0.6486 0.3244
Cd4_2 Cd 0.87039(3) 0.915717(15) 0.016996(17)
O1_2 O 0.2423(3) 0.44982(17) 0.62063(19)
O2_3 O 0.3101(3) 0.32576(19) 0.47004(19)
O3_3 O 0.1505(3) 0.33712(17) 0.35057(19)
N1_2 N 0.0147(4) 0.8321(2) 0.9514(2)
N2_2 N 0.7547(4) 0.0077(2) 0.0908(2)
C1_3 C 0.1818(4) 0.5100(2) 0.6406(3)
C2_3 C 0.2467(5) 0.5523(3) 0.7224(3)
C3_3 C 0.1787(4) 0.6142(2) 0.7567(3)
H1_3 H 0.0891 0.6303 0.7280
C4_3 C 0.2399(5) 0.6529(3) 0.8327(3)
C5_3 C 0.3728(6) 0.6280(4) 0.8735(4)
H2_3 H 0.4173 0.6546 0.9244
C6_3 C 0.4395(7) 0.5662(4) 0.8413(5)
H3_3 H 0.5288 0.5499 0.8703
C7_3 C 0.3764(6) 0.5273(4) 0.7661(4)
H4_2 H 0.4215 0.4837 0.7445
C9_3 C 0.0710(5) 0.7632(3) 0.8211(3)
H6_3 H 0.0565 0.7568 0.7575
C10_3 C 0.1640(5) 0.7159(3) 0.8727(3)
C11_3 C 0.1794(5) 0.7292(3) 0.9649(3)
C13_3 C 0.2667(5) 0.3122(2) 0.3876(3)
C14_3 C 0.3586(4) 0.2638(2) 0.3346(3)
C15_3 C 0.4788(7) 0.2290(4) 0.3759(3)
H9_3 H 0.5063 0.2376 0.4383
C16_3 C 0.5603(7) 0.1816(4) 0.3278(4)
H10_3 H 0.6417 0.1575 0.3582
C17_3 C 0.5257(4) 0.1687(2) 0.2367(3)
C18_3 C 0.4061(5) 0.2058(3) 0.1954(3)
H11_3 H 0.3795 0.1988 0.1326
C19_3 C 0.3253(5) 0.2526(3) 0.2440(3)
H12_3 H 0.2447 0.2776 0.2139
C20_3 C 0.7798(5) 0.0150(3) 0.1811(3)
C21_3 C 0.7104(5) 0.0664(3) 0.2299(3)
H14_3 H 0.7313 0.0689 0.2937
C22_3 C 0.6088(4) 0.1152(2) 0.1860(3)
C23_3 C 0.5838(5) 0.1074(3) 0.0928(3)
H15_3 H 0.5159 0.1391 0.0594
C24_3 C 0.6567(5) 0.0544(3) 0.0490(3)
N4_2 N 0.2453(4) 0.5077(2) 0.4092(2)
H13_3 H 0.8491 0.9829 0.2126
C8_3 C 0.9995(6) 0.8197(3) 0.8615(3)
H5_3 H 0.9366 0.8514 0.8244
N3_2 N 0.9853(4) 0.3321(2) 0.5486(2)
C8_4 C 0.0005(6) 0.3197(3) 0.6385(3)
H5_4 H 0.0634 0.3514 0.6756
C1_4 C 0.8182(4) 0.0100(2) 0.8594(3)
C2_4 C 0.7533(5) 0.0523(3) 0.7776(3)
C3_4 C 0.8213(4) 0.1142(2) 0.7433(3)
H1_4 H 0.9109 0.1303 0.7720
C4_4 C 0.7601(5) 0.1529(3) 0.6673(3)
C5_4 C 0.6272(6) 0.1280(4) 0.6265(4)
H2_4 H 0.5827 0.1546 0.5756
C6_4 C 0.5605(7) 0.0662(4) 0.6587(5)
H3_4 H 0.4712 0.0499 0.6297
C7_4 C 0.6236(6) 0.0273(4) 0.7339(4)
C9_4 C 0.9290(5) 0.2632(3) 0.6789(3)
H6_4 H 0.9435 0.2568 0.7425
C10_4 C 0.8360(5) 0.2159(3) 0.6273(3)
C11_4 C 0.8206(5) 0.2292(3) 0.5351(3)
H7_2 H 0.7588 0.1982 0.4964
C12_2 C 0.8944(5) 0.2873(3) 0.4995(3)
H8_2 H 0.8795 0.2959 0.4362
O2_4 O 0.6899(3) 0.82576(19) 0.02996(19)
O3_4 O 0.8495(3) 0.83712(17) 0.14943(19)
C13_4 C 0.7333(5) 0.8122(2) 0.1124(3)
C14_4 C 0.6414(4) 0.7638(2) 0.1654(3)
C15_4 C 0.5212(7) 0.7290(4) 0.1241(3)
H9_4 H 0.4937 0.7376 0.0617
C16_4 C 0.4397(7) 0.6816(4) 0.1722(4)
H10_4 H 0.3583 0.6575 0.1418
C17_4 C 0.4743(4) 0.6687(2) 0.2633(3)
C18_4 C 0.5939(5) 0.7058(3) 0.3046(3)
H11_4 H 0.6205 0.6988 0.3674
C19_4 C 0.6747(5) 0.7526(3) 0.2560(3)
H12_4 H 0.7553 0.7776 0.2861
C20_4 C 0.2202(5) 0.5150(3) 0.3189(3)
H13_4 H 0.1509 0.4829 0.2874
C21_4 C 0.2896(5) 0.5664(3) 0.2701(3)
H14_4 H 0.2687 0.5689 0.2063
C22_4 C 0.3912(4) 0.6152(2) 0.3140(3)
C23_4 C 0.4162(5) 0.6074(3) 0.4072(3)
H15_4 H 0.4841 0.6391 0.4406
C24_4 C 0.3433(5) 0.5544(3) 0.4510(3)
H16_2 H 0.3632 0.5504 0.5147
H16_3 H 0.3632 0.9496 0.0147
H7_3 H 0.7588 0.3018 0.9964
C12_3 C 0.8944(5) 0.2127(3) 0.9995(3)
H8_3 H 0.8795 0.2041 0.9362
O1_3 O 0.2423(3) 0.05018(17) 0.12063(19)
H4_3 H 0.4215 0.0163 0.2445
H7_4 H 0.2412 0.6982 0.0036
C12_4 C 0.1056(5) 0.7873(3) 0.0005(3)
H8_4 H 0.1205 0.7959 0.0638
H16_4 H 0.6368 0.0504 0.9853
O1_4 O 0.7577(3) 0.94982(17) 0.87937(19)
H4_4 H 0.5785 0.9837 0.7555
loop_
_geom_bond_atom_site_label_1
_geom_bond_atom_site_label_2
_geom_bond_site_symmetry_1
_geom_bond_site_symmetry_2
C8 H5 1_555 1_555
Cd1 O1 1_555 1_555
O1 C1 1_555 1_555
O2 Cd1 1_555 1_555
O3 Cd1 1_555 1_555
O4 C1 1_555 1_555
N2 C20 1_555 1_555
C1 C2 1_555 1_555
C2 C3 1_555 1_555
C3 H1 1_555 1_555
C4 C3 1_555 1_555
C5 C4 1_555 1_555
H2 C5 1_555 1_555
C6 C5 1_555 1_555
H3 C6 1_555 1_555
C7 C2 1_555 1_555
H4 C7 1_555 1_555
H6 C9 1_555 1_555
C10 C4 1_555 1_555
C11 C10 1_555 1_555
C13 O2 1_555 1_555
C14 C13 1_555 1_555
C15 C14 1_555 1_555
H9 C15 1_555 1_555
C16 C15 1_555 1_555
H10 C16 1_555 1_555
C17 C16 1_555 1_555
C18 C17 1_555 1_555
H11 C18 1_555 1_555
C19 C14 1_555 1_555
H12 C19 1_555 1_555
C21 C20 1_555 1_555
H14 C21 1_555 1_555
C22 C17 1_555 1_555
C23 C22 1_555 1_555
H15 C23 1_555 1_555
C24 N2 1_555 1_555
N4 Cd1 1_555 1_555
O3 C13 1_555 1_555
C6 C7 1_555 1_555
C9 C10 1_555 1_555
C18 C19 1_555 1_555
C21 C22 1_555 1_555
C23 C24 1_555 1_555
O2_2 Cd3 1_555 1_555
O3_2 Cd3 1_555 1_555
N4 C20_2 1_555 1_555
C13_2 O2_2 1_555 1_555
C14_2 C13_2 1_555 1_555
C15_2 C14_2 1_555 1_555
H9_2 C15_2 1_555 1_555
C16_2 C15_2 1_555 1_555
H10_2 C16_2 1_555 1_555
C17_2 C16_2 1_555 1_555
C18_2 C17_2 1_555 1_555
H11_2 C18_2 1_555 1_555
C19_2 C14_2 1_555 1_555
H12_2 C19_2 1_555 1_555
C20_2 H13_2 1_555 1_555
C21_2 C20_2 1_555 1_555
H14_2 C21_2 1_555 1_555
C22_2 C17_2 1_555 1_555
C23_2 C22_2 1_555 1_555
H15_2 C23_2 1_555 1_555
C24_2 N4 1_555 1_555
H16 C24_2 1_555 1_555
O3_2 C13_2 1_555 1_555
C18_2 C19_2 1_555 1_555
C21_2 C22_2 1_555 1_555
C23_2 C24_2 1_555 1_555
O4_2 C1_2 1_555 1_555
C1_2 C2_2 1_555 1_555
C2_2 C3_2 1_555 1_555
C3_2 H1_2 1_555 1_555
C4_2 C3_2 1_555 1_555
C5_2 C4_2 1_555 1_555
H2_2 C5_2 1_555 1_555
C6_2 C5_2 1_555 1_555
H3_2 C6_2 1_555 1_555
C7_2 C2_2 1_555 1_555
H6_2 C9_2 1_555 1_555
C10_2 C4_2 1_555 1_555
C11_2 C10_2 1_555 1_555
H7 C11_2 1_555 1_555
C12 N3 1_555 1_555
H8 C12 1_555 1_555
C6_2 C7_2 1_555 1_555
C9_2 C10_2 1_555 1_555
C11_2 C12 1_555 1_555
C8_2 H5_2 1_555 1_555
Cd4 O1_2 1_555 1_555
O1_2 C1_3 1_555 1_555
O2_3 Cd4 1_555 1_555
O3_3 Cd4 1_555 1_555
O5 C1_3 1_555 1_555
N2_2 C20_3 1_555 1_555
C1_3 C2_3 1_555 1_555
C2_3 C3_3 1_555 1_555
C3_3 H1_3 1_555 1_555
C4_3 C3_3 1_555 1_555
C5_3 C4_3 1_555 1_555
H2_3 C5_3 1_555 1_555
C6_3 C5_3 1_555 1_555
H3_3 C6_3 1_555 1_555
C7_3 C2_3 1_555 1_555
H4_2 C7_3 1_555 1_555
H6_3 C9_3 1_555 1_555
C10_3 C4_3 1_555 1_555
C11_3 C10_3 1_555 1_555
C13_3 O2_3 1_555 1_555
C14_3 C13_3 1_555 1_555
C15_3 C14_3 1_555 1_555
H9_3 C15_3 1_555 1_555
C16_3 C15_3 1_555 1_555
H10_3 C16_3 1_555 1_555
C17_3 C16_3 1_555 1_555
C18_3 C17_3 1_555 1_555
H11_3 C18_3 1_555 1_555
C19_3 C14_3 1_555 1_555
H12_3 C19_3 1_555 1_555
C21_3 C20_3 1_555 1_555
H14_3 C21_3 1_555 1_555
C22_3 C17_3 1_555 1_555
C23_3 C22_3 1_555 1_555
H15_3 C23_3 1_555 1_555
C24_3 N2_2 1_555 1_555
N4_2 Cd4 1_555 1_555
O3_3 C13_3 1_555 1_555
C6_3 C7_3 1_555 1_555
C9_3 C10_3 1_555 1_555
C18_3 C19_3 1_555 1_555
C21_3 C22_3 1_555 1_555
C23_3 C24_3 1_555 1_555
C8_3 H5_3 1_555 1_555
C8_4 H5_4 1_555 1_555
O5_2 C1_4 1_555 1_555
C1_4 C2_4 1_555 1_555
C2_4 C3_4 1_555 1_555
C3_4 H1_4 1_555 1_555
C4_4 C3_4 1_555 1_555
C5_4 C4_4 1_555 1_555
H2_4 C5_4 1_555 1_555
C6_4 C5_4 1_555 1_555
H3_4 C6_4 1_555 1_555
C7_4 C2_4 1_555 1_555
H6_4 C9_4 1_555 1_555
C10_4 C4_4 1_555 1_555
C11_4 C10_4 1_555 1_555
H7_2 C11_4 1_555 1_555
C12_2 N3_2 1_555 1_555
H8_2 C12_2 1_555 1_555
C6_4 C7_4 1_555 1_555
C9_4 C10_4 1_555 1_555
C11_4 C12_2 1_555 1_555
O2_4 Cd4_2 1_555 1_555
O3_4 Cd4_2 1_555 1_555
N4_2 C20_4 1_555 1_555
C13_4 O2_4 1_555 1_555
C14_4 C13_4 1_555 1_555
C15_4 C14_4 1_555 1_555
H9_4 C15_4 1_555 1_555
C16_4 C15_4 1_555 1_555
H10_4 C16_4 1_555 1_555
C17_4 C16_4 1_555 1_555
C18_4 C17_4 1_555 1_555
H11_4 C18_4 1_555 1_555
C19_4 C14_4 1_555 1_555
H12_4 C19_4 1_555 1_555
C20_4 H13_4 1_555 1_555
C21_4 C20_4 1_555 1_555
H14_4 C21_4 1_555 1_555
C22_4 C17_4 1_555 1_555
C23_4 C22_4 1_555 1_555
H15_4 C23_4 1_555 1_555
C24_4 N4_2 1_555 1_555
H16_2 C24_4 1_555 1_555
O3_4 C13_4 1_555 1_555
C18_4 C19_4 1_555 1_555
C21_4 C22_4 1_555 1_555
C23_4 C24_4 1_555 1_555
H8_3 C12_3 1_555 1_555
H8_4 C12_4 1_555 1_555

#END
