
###############################################################################
#
# This file contains modified crystal structure data generated from the
# MOF subset of the Cambridge Structural Database (CSD) v543 
# hosted by the Cambridge Crystallographic Data Centre (CCDC).
#
# This work is licensed under the Creative Commons
# Attribution-NonCommercial-ShareAlike 4.0 International License.
# To view a copy of this license, visit
# http://creativecommons.org/licenses/by-nc-sa/4.0/
# or send a letter to
# Creative Commons, PO Box 1866, Mountain View, CA 94042, USA.
#
# CIF created using the CSD Python API on 29 September 2022
# The structure has been converted into the P1 space group
# The structure has a 3D framework
# The original CSD entry IGUVIR01 is in the monoclinic crystal system
# The framework has been calculated to contain at least 10.0% void space
# The void calculation uses a probe of radius 1.32A, grid spacing 0.4
#
###############################################################################

data_IGUVIR01
_chemical_formula_moiety         '(C96 H64 Cd4 N8 O16)n'
_symmetry_cell_setting           triclinic
_symmetry_space_group_name_H-M   'P 1'
_symmetry_Int_Tables_number      1
_space_group_name_Hall           'P 1'
loop_
_symmetry_equiv_pos_site_id
_symmetry_equiv_pos_as_xyz
1 x,y,z
_cell_length_a                   9.79040(15)
_cell_length_b                   17.3660(3)
_cell_length_c                   15.2569(2)
_cell_angle_alpha                90
_cell_angle_beta                 95.4829(13)
_cell_angle_gamma                90
_cell_volume                     2582.11
loop_
_atom_site_label
_atom_site_type_symbol
_atom_site_fract_x
_atom_site_fract_y
_atom_site_fract_z
C8 C 0.0133(4) 0.1713(2) 0.1397(2)
H5 H 0.0758 0.1394 0.1719
Cd4 Cd 0.13550(2) 0.419151(11) 0.480713(12)
O5 O 0.0632(3) 0.53812(16) 0.59785(17)
N3 N 0.0019(3) 0.66348(16) 0.44711(18)
Cd3 Cd 0.13550(2) 0.080849(11) 0.980713(12)
H13 H 0.1523 0.0114 0.7904
Cd1 Cd 0.86450(2) 0.580849(11) 0.519287(12)
O1 O 0.7539(2) 0.53452(14) 0.39227(15)
O2 O 0.6783(3) 0.66685(17) 0.52914(17)
O3 O 0.8387(2) 0.66548(15) 0.64016(16)
O4 O 0.9368(3) 0.46188(16) 0.40215(17)
N1 N 0.9981(3) 0.16348(16) 0.05289(18)
N2 N 0.2478(3) 0.98740(16) 0.90510(18)
C1 C 0.8216(3) 0.47784(17) 0.36912(19)
C2 C 0.7533(3) 0.42788(18) 0.2965(2)
C3 C 0.8275(3) 0.37218(19) 0.2557(2)
H1 H 0.9192 0.3639 0.2752
C4 C 0.7657(3) 0.3286(2) 0.1859(2)
C5 C 0.6269(4) 0.3403(2) 0.1592(3)
H2 H 0.5847 0.3119 0.1125
C6 C 0.5514(4) 0.3937(3) 0.2018(3)
H3 H 0.4582 0.3998 0.1848
C7 C 0.6143(4) 0.4381(2) 0.2696(3)
H4 H 0.5638 0.4747 0.2972
C9 C 0.9414(4) 0.2241(2) 0.1850(2)
H6 H 0.9576 0.2279 0.2459
C10 C 0.8457(3) 0.2712(2) 0.1398(2)
C11 C 0.8275(4) 0.2622(2) 0.0489(2)
H7 H 0.7632 0.2922 0.0155
C12 C 0.9045(4) 0.2092(2) 0.0083(2)
C13 C 0.7236(3) 0.6867(2) 0.6054(2)
C14 C 0.6374(3) 0.7380(2) 0.6571(2)
C15 C 0.5080(4) 0.7623(3) 0.6227(3)
H9 H 0.4725 0.7458 0.5672
C16 C 0.4316(4) 0.8110(3) 0.6709(3)
H10 H 0.3456 0.8273 0.6467
C17 C 0.4803(3) 0.83583(19) 0.7540(2)
C18 C 0.6079(4) 0.8100(2) 0.7884(2)
H11 H 0.6426 0.8257 0.8445
C19 C 0.6847(4) 0.7611(2) 0.7406(3)
H12 H 0.7695 0.7437 0.7655
C20 C 0.2221(4) 0.9813(3) 0.8182(2)
C21 C 0.2928(4) 0.9329(2) 0.7668(2)
H14 H 0.2698 0.9306 0.7063
C22 C 0.3987(3) 0.88769(19) 0.8059(2)
C23 C 0.4250(4) 0.8943(2) 0.8965(2)
H15 H 0.4942 0.8650 0.9262
C24 C 0.3497(4) 0.9437(2) 0.9422(2)
N4 N 0.7522(3) 0.48740(16) 0.59490(18)
O2_2 O 0.3217(3) 0.16685(17) 0.97086(17)
O3_2 O 0.1613(2) 0.16548(15) 0.85984(16)
C13_2 C 0.2764(3) 0.1867(2) 0.8946(2)
C14_2 C 0.3626(3) 0.2380(2) 0.8429(2)
C15_2 C 0.4920(4) 0.2623(3) 0.8773(3)
H9_2 H 0.5275 0.2458 0.9328
C16_2 C 0.5684(4) 0.3110(3) 0.8291(3)
H10_2 H 0.6544 0.3273 0.8533
C17_2 C 0.5197(3) 0.33583(19) 0.7460(2)
C18_2 C 0.3921(4) 0.3100(2) 0.7116(2)
H11_2 H 0.3574 0.3257 0.6555
C19_2 C 0.3153(4) 0.2611(2) 0.7594(3)
H12_2 H 0.2305 0.2437 0.7345
C20_2 C 0.7779(4) 0.4813(3) 0.6818(2)
H13_2 H 0.8477 0.5114 0.7096
C21_2 C 0.7072(4) 0.4329(2) 0.7332(2)
H14_2 H 0.7302 0.4306 0.7937
C22_2 C 0.6013(3) 0.38769(19) 0.6941(2)
C23_2 C 0.5750(4) 0.3943(2) 0.6035(2)
H15_2 H 0.5058 0.3650 0.5738
C24_2 C 0.6503(4) 0.4437(2) 0.5578(2)
H16 H 0.6294 0.4471 0.4972
O4_2 O 0.0632(3) 0.96188(16) 0.09785(17)
C1_2 C 0.1784(3) 0.97784(17) 0.13088(19)
C2_2 C 0.2467(3) 0.92788(18) 0.2035(2)
C3_2 C 0.1725(3) 0.87218(19) 0.2443(2)
H1_2 H 0.0808 0.8639 0.2248
C4_2 C 0.2343(3) 0.8286(2) 0.3141(2)
C5_2 C 0.3731(4) 0.8403(2) 0.3408(3)
H2_2 H 0.4153 0.8119 0.3875
C6_2 C 0.4486(4) 0.8937(3) 0.2982(3)
H3_2 H 0.5418 0.8998 0.3152
C7_2 C 0.3857(4) 0.9381(2) 0.2304(3)
H4_2 H 0.4362 0.9747 0.2028
C9_2 C 0.0586(4) 0.7241(2) 0.3150(2)
H6_2 H 0.0424 0.7279 0.2541
C10_2 C 0.1543(3) 0.7712(2) 0.3602(2)
C11_2 C 0.1725(4) 0.7622(2) 0.4511(2)
H7_2 H 0.2368 0.7922 0.4845
C12_2 C 0.0955(4) 0.7092(2) 0.4917(2)
H8 H 0.1087 0.7047 0.5526
O5_2 O 0.9368(3) 0.03812(16) 0.90215(17)
C8_2 C 0.9867(4) 0.6713(2) 0.3603(2)
H5_2 H 0.9242 0.6394 0.3281
Cd4_2 Cd 0.86450(2) 0.919151(11) 0.019287(12)
O1_2 O 0.2461(2) 0.46548(14) 0.60773(15)
O2_3 O 0.3217(3) 0.33315(17) 0.47086(17)
O3_3 O 0.1613(2) 0.33452(15) 0.35984(16)
N1_2 N 0.0019(3) 0.83652(16) 0.94711(18)
N2_2 N 0.7522(3) 0.01260(16) 0.09490(18)
C1_3 C 0.1784(3) 0.52216(17) 0.63088(19)
C2_3 C 0.2467(3) 0.57212(18) 0.7035(2)
C3_3 C 0.1725(3) 0.62782(19) 0.7443(2)
H1_3 H 0.0808 0.6361 0.7248
C4_3 C 0.2343(3) 0.6714(2) 0.8141(2)
C5_3 C 0.3731(4) 0.6597(2) 0.8408(3)
H2_3 H 0.4153 0.6881 0.8875
C6_3 C 0.4486(4) 0.6063(3) 0.7982(3)
H3_3 H 0.5418 0.6002 0.8152
C7_3 C 0.3857(4) 0.5619(2) 0.7304(3)
H4_3 H 0.4362 0.5253 0.7028
C9_3 C 0.0586(4) 0.7759(2) 0.8150(2)
H6_3 H 0.0424 0.7721 0.7541
C10_3 C 0.1543(3) 0.7288(2) 0.8602(2)
C11_3 C 0.1725(4) 0.7378(2) 0.9511(2)
H7_3 H 0.2368 0.7078 0.9845
C12_3 C 0.0955(4) 0.7908(2) 0.9917(2)
C13_3 C 0.2764(3) 0.3133(2) 0.3946(2)
C14_3 C 0.3626(3) 0.2620(2) 0.3429(2)
C15_3 C 0.4920(4) 0.2377(3) 0.3773(3)
H9_3 H 0.5275 0.2542 0.4328
C16_3 C 0.5684(4) 0.1890(3) 0.3291(3)
H10_3 H 0.6544 0.1727 0.3533
C17_3 C 0.5197(3) 0.16417(19) 0.2460(2)
C18_3 C 0.3921(4) 0.1900(2) 0.2116(2)
H11_3 H 0.3574 0.1743 0.1555
C19_3 C 0.3153(4) 0.2389(2) 0.2594(3)
H12_3 H 0.2305 0.2563 0.2345
C20_3 C 0.7779(4) 0.0187(3) 0.1818(2)
C21_3 C 0.7072(4) 0.0671(2) 0.2332(2)
H14_3 H 0.7302 0.0694 0.2937
C22_3 C 0.6013(3) 0.11231(19) 0.1941(2)
C23_3 C 0.5750(4) 0.1057(2) 0.1035(2)
H15_3 H 0.5058 0.1350 0.0738
C24_3 C 0.6503(4) 0.0563(2) 0.0578(2)
N4_2 N 0.2478(3) 0.51260(16) 0.40510(18)
H13_3 H 0.8477 0.9886 0.2096
C8_3 C 0.9867(4) 0.8287(2) 0.8603(2)
H5_3 H 0.9242 0.8606 0.8281
N3_2 N 0.9981(3) 0.33652(16) 0.55289(18)
C8_4 C 0.0133(4) 0.3287(2) 0.6397(2)
H5_4 H 0.0758 0.3606 0.6719
C1_4 C 0.8216(3) 0.02216(17) 0.86912(19)
C2_4 C 0.7533(3) 0.07212(18) 0.7965(2)
C3_4 C 0.8275(3) 0.12782(19) 0.7557(2)
H1_4 H 0.9192 0.1361 0.7752
C4_4 C 0.7657(3) 0.1714(2) 0.6859(2)
C5_4 C 0.6269(4) 0.1597(2) 0.6592(3)
H2_4 H 0.5847 0.1881 0.6125
C6_4 C 0.5514(4) 0.1063(3) 0.7018(3)
H3_4 H 0.4582 0.1002 0.6848
C7_4 C 0.6143(4) 0.0619(2) 0.7696(3)
H4_4 H 0.5638 0.0253 0.7972
C9_4 C 0.9414(4) 0.2759(2) 0.6850(2)
H6_4 H 0.9576 0.2721 0.7459
C10_4 C 0.8457(3) 0.2288(2) 0.6398(2)
C11_4 C 0.8275(4) 0.2378(2) 0.5489(2)
H7_4 H 0.7632 0.2078 0.5155
C12_4 C 0.9045(4) 0.2908(2) 0.5083(2)
H8_2 H 0.8913 0.2953 0.4474
O2_4 O 0.6783(3) 0.83315(17) 0.02914(17)
O3_4 O 0.8387(2) 0.83452(15) 0.14016(16)
C13_4 C 0.7236(3) 0.8133(2) 0.1054(2)
C14_4 C 0.6374(3) 0.7620(2) 0.1571(2)
C15_4 C 0.5080(4) 0.7377(3) 0.1227(3)
H9_4 H 0.4725 0.7542 0.0672
C16_4 C 0.4316(4) 0.6890(3) 0.1709(3)
H10_4 H 0.3456 0.6727 0.1467
C17_4 C 0.4803(3) 0.66417(19) 0.2540(2)
C18_4 C 0.6079(4) 0.6900(2) 0.2884(2)
H11_4 H 0.6426 0.6743 0.3445
C19_4 C 0.6847(4) 0.7389(2) 0.2406(3)
H12_4 H 0.7695 0.7563 0.2655
C20_4 C 0.2221(4) 0.5187(3) 0.3182(2)
H13_4 H 0.1523 0.4886 0.2904
C21_4 C 0.2928(4) 0.5671(2) 0.2668(2)
H14_4 H 0.2698 0.5694 0.2063
C22_4 C 0.3987(3) 0.61231(19) 0.3059(2)
C23_4 C 0.4250(4) 0.6057(2) 0.3965(2)
H15_4 H 0.4942 0.6350 0.4262
C24_4 C 0.3497(4) 0.5563(2) 0.4422(2)
H16_2 H 0.3706 0.5529 0.5028
H16_3 H 0.3706 0.9471 0.0028
H8_3 H 0.8913 0.2047 0.9474
O1_3 O 0.2461(2) 0.03452(14) 0.10773(15)
H8_4 H 0.1087 0.7953 0.0526
H16_4 H 0.6294 0.0529 0.9972
O1_4 O 0.7539(2) 0.96548(14) 0.89227(15)
loop_
_geom_bond_atom_site_label_1
_geom_bond_atom_site_label_2
_geom_bond_site_symmetry_1
_geom_bond_site_symmetry_2
C8 H5 1_555 1_555
Cd1 O1 1_555 1_555
O1 C1 1_555 1_555
O2 Cd1 1_555 1_555
O3 Cd1 1_555 1_555
O4 C1 1_555 1_555
N2 C20 1_555 1_555
C1 C2 1_555 1_555
C2 C3 1_555 1_555
C3 H1 1_555 1_555
C4 C3 1_555 1_555
C5 C4 1_555 1_555
H2 C5 1_555 1_555
C6 C5 1_555 1_555
H3 C6 1_555 1_555
C7 C2 1_555 1_555
H4 C7 1_555 1_555
H6 C9 1_555 1_555
C10 C4 1_555 1_555
C11 C10 1_555 1_555
H7 C11 1_555 1_555
C12 N1 1_555 1_555
C13 O2 1_555 1_555
C14 C13 1_555 1_555
C15 C14 1_555 1_555
H9 C15 1_555 1_555
C16 C15 1_555 1_555
H10 C16 1_555 1_555
C17 C16 1_555 1_555
C18 C17 1_555 1_555
H11 C18 1_555 1_555
C19 C14 1_555 1_555
H12 C19 1_555 1_555
C21 C20 1_555 1_555
H14 C21 1_555 1_555
C22 C17 1_555 1_555
C23 C22 1_555 1_555
H15 C23 1_555 1_555
C24 N2 1_555 1_555
N4 Cd1 1_555 1_555
O3 C13 1_555 1_555
C6 C7 1_555 1_555
C9 C10 1_555 1_555
C11 C12 1_555 1_555
C18 C19 1_555 1_555
C21 C22 1_555 1_555
C23 C24 1_555 1_555
O2_2 Cd3 1_555 1_555
O3_2 Cd3 1_555 1_555
N4 C20_2 1_555 1_555
C13_2 O2_2 1_555 1_555
C14_2 C13_2 1_555 1_555
C15_2 C14_2 1_555 1_555
H9_2 C15_2 1_555 1_555
C16_2 C15_2 1_555 1_555
H10_2 C16_2 1_555 1_555
C17_2 C16_2 1_555 1_555
C18_2 C17_2 1_555 1_555
H11_2 C18_2 1_555 1_555
C19_2 C14_2 1_555 1_555
H12_2 C19_2 1_555 1_555
C20_2 H13_2 1_555 1_555
C21_2 C20_2 1_555 1_555
H14_2 C21_2 1_555 1_555
C22_2 C17_2 1_555 1_555
C23_2 C22_2 1_555 1_555
H15_2 C23_2 1_555 1_555
C24_2 N4 1_555 1_555
H16 C24_2 1_555 1_555
O3_2 C13_2 1_555 1_555
C18_2 C19_2 1_555 1_555
C21_2 C22_2 1_555 1_555
C23_2 C24_2 1_555 1_555
O4_2 C1_2 1_555 1_555
C1_2 C2_2 1_555 1_555
C2_2 C3_2 1_555 1_555
C3_2 H1_2 1_555 1_555
C4_2 C3_2 1_555 1_555
C5_2 C4_2 1_555 1_555
H2_2 C5_2 1_555 1_555
C6_2 C5_2 1_555 1_555
H3_2 C6_2 1_555 1_555
C7_2 C2_2 1_555 1_555
H4_2 C7_2 1_555 1_555
H6_2 C9_2 1_555 1_555
C10_2 C4_2 1_555 1_555
C11_2 C10_2 1_555 1_555
H7_2 C11_2 1_555 1_555
C12_2 N3 1_555 1_555
H8 C12_2 1_555 1_555
C6_2 C7_2 1_555 1_555
C9_2 C10_2 1_555 1_555
C11_2 C12_2 1_555 1_555
C8_2 H5_2 1_555 1_555
Cd4 O1_2 1_555 1_555
O1_2 C1_3 1_555 1_555
O2_3 Cd4 1_555 1_555
O3_3 Cd4 1_555 1_555
O5 C1_3 1_555 1_555
N2_2 C20_3 1_555 1_555
C1_3 C2_3 1_555 1_555
C2_3 C3_3 1_555 1_555
C3_3 H1_3 1_555 1_555
C4_3 C3_3 1_555 1_555
C5_3 C4_3 1_555 1_555
H2_3 C5_3 1_555 1_555
C6_3 C5_3 1_555 1_555
H3_3 C6_3 1_555 1_555
C7_3 C2_3 1_555 1_555
H4_3 C7_3 1_555 1_555
H6_3 C9_3 1_555 1_555
C10_3 C4_3 1_555 1_555
C11_3 C10_3 1_555 1_555
H7_3 C11_3 1_555 1_555
C12_3 N1_2 1_555 1_555
C13_3 O2_3 1_555 1_555
C14_3 C13_3 1_555 1_555
C15_3 C14_3 1_555 1_555
H9_3 C15_3 1_555 1_555
C16_3 C15_3 1_555 1_555
H10_3 C16_3 1_555 1_555
C17_3 C16_3 1_555 1_555
C18_3 C17_3 1_555 1_555
H11_3 C18_3 1_555 1_555
C19_3 C14_3 1_555 1_555
H12_3 C19_3 1_555 1_555
C21_3 C20_3 1_555 1_555
H14_3 C21_3 1_555 1_555
C22_3 C17_3 1_555 1_555
C23_3 C22_3 1_555 1_555
H15_3 C23_3 1_555 1_555
C24_3 N2_2 1_555 1_555
N4_2 Cd4 1_555 1_555
O3_3 C13_3 1_555 1_555
C6_3 C7_3 1_555 1_555
C9_3 C10_3 1_555 1_555
C11_3 C12_3 1_555 1_555
C18_3 C19_3 1_555 1_555
C21_3 C22_3 1_555 1_555
C23_3 C24_3 1_555 1_555
C8_3 H5_3 1_555 1_555
C8_4 H5_4 1_555 1_555
O5_2 C1_4 1_555 1_555
C1_4 C2_4 1_555 1_555
C2_4 C3_4 1_555 1_555
C3_4 H1_4 1_555 1_555
C4_4 C3_4 1_555 1_555
C5_4 C4_4 1_555 1_555
H2_4 C5_4 1_555 1_555
C6_4 C5_4 1_555 1_555
H3_4 C6_4 1_555 1_555
C7_4 C2_4 1_555 1_555
H4_4 C7_4 1_555 1_555
H6_4 C9_4 1_555 1_555
C10_4 C4_4 1_555 1_555
C11_4 C10_4 1_555 1_555
H7_4 C11_4 1_555 1_555
C12_4 N3_2 1_555 1_555
H8_2 C12_4 1_555 1_555
C6_4 C7_4 1_555 1_555
C9_4 C10_4 1_555 1_555
C11_4 C12_4 1_555 1_555
O2_4 Cd4_2 1_555 1_555
O3_4 Cd4_2 1_555 1_555
N4_2 C20_4 1_555 1_555
C13_4 O2_4 1_555 1_555
C14_4 C13_4 1_555 1_555
C15_4 C14_4 1_555 1_555
H9_4 C15_4 1_555 1_555
C16_4 C15_4 1_555 1_555
H10_4 C16_4 1_555 1_555
C17_4 C16_4 1_555 1_555
C18_4 C17_4 1_555 1_555
H11_4 C18_4 1_555 1_555
C19_4 C14_4 1_555 1_555
H12_4 C19_4 1_555 1_555
C20_4 H13_4 1_555 1_555
C21_4 C20_4 1_555 1_555
H14_4 C21_4 1_555 1_555
C22_4 C17_4 1_555 1_555
C23_4 C22_4 1_555 1_555
H15_4 C23_4 1_555 1_555
C24_4 N4_2 1_555 1_555
H16_2 C24_4 1_555 1_555
O3_4 C13_4 1_555 1_555
C18_4 C19_4 1_555 1_555
C21_4 C22_4 1_555 1_555
C23_4 C24_4 1_555 1_555

#END
