
###############################################################################
#
# This file contains modified crystal structure data generated from the
# MOF subset of the Cambridge Structural Database (CSD) v543 
# hosted by the Cambridge Crystallographic Data Centre (CCDC).
#
# This work is licensed under the Creative Commons
# Attribution-NonCommercial-ShareAlike 4.0 International License.
# To view a copy of this license, visit
# http://creativecommons.org/licenses/by-nc-sa/4.0/
# or send a letter to
# Creative Commons, PO Box 1866, Mountain View, CA 94042, USA.
#
# CIF created using the CSD Python API on 29 September 2022
# The structure has been converted into the P1 space group
# The structure has a 3D framework
# The original CSD entry IGUVIR is in the monoclinic crystal system
# The framework has been calculated to contain at least 10.0% void space
# The void calculation uses a probe of radius 1.32A, grid spacing 0.4
#
###############################################################################

data_IGUVIR
_chemical_formula_moiety         '(C96 H64 Cd4 N8 O16)n'
_symmetry_cell_setting           triclinic
_symmetry_space_group_name_H-M   'P 1'
_symmetry_Int_Tables_number      1
_space_group_name_Hall           'P 1'
loop_
_symmetry_equiv_pos_site_id
_symmetry_equiv_pos_as_xyz
1 x,y,z
_cell_length_a                   9.72700(18)
_cell_length_b                   17.0204(3)
_cell_length_c                   15.2959(2)
_cell_angle_alpha                90
_cell_angle_beta                 96.8477(17)
_cell_angle_gamma                90
_cell_volume                     2514.29
loop_
_atom_site_label
_atom_site_type_symbol
_atom_site_fract_x
_atom_site_fract_y
_atom_site_fract_z
C8 C 0.0133(3) 0.17459(19) 0.1357(2)
H5 H 0.0793 0.1421 0.1692
Cd4 Cd 0.133143(19) 0.419737(11) 0.480682(12)
O5 O 0.0687(2) 0.53398(14) 0.59884(14)
N3 N 0.0034(3) 0.66606(15) 0.45165(16)
Cd3 Cd 0.133143(19) 0.080263(11) 0.980682(12)
H13 H 0.1406 0.0059 0.7931
Cd1 Cd 0.866857(19) 0.580263(11) 0.519318(12)
O1 O 0.7446(2) 0.53890(13) 0.38993(13)
O2 O 0.6838(2) 0.66776(13) 0.53282(13)
O3 O 0.8455(2) 0.66152(13) 0.64735(13)
O4 O 0.9313(2) 0.46602(14) 0.40116(14)
N1 N 0.9966(3) 0.16606(15) 0.04835(16)
N2 N 0.2445(3) 0.98427(15) 0.90926(16)
C1 C 0.8138(3) 0.48267(17) 0.36599(18)
C2 C 0.7469(3) 0.43295(18) 0.29057(19)
C3 C 0.8232(3) 0.37753(18) 0.25005(19)
H1 H 0.9178 0.3693 0.2715
C4 C 0.7625(3) 0.33374(18) 0.1781(2)
C5 C 0.6215(3) 0.3455(2) 0.1489(2)
H2 H 0.5785 0.3162 0.1003
C6 C 0.5442(3) 0.3996(2) 0.1907(2)
H3 H 0.4485 0.4062 0.1712
C7 C 0.6064(3) 0.4441(2) 0.2608(2)
H4 H 0.5539 0.4819 0.2883
C9 C 0.9405(3) 0.22767(19) 0.1804(2)
H6 H 0.9564 0.2310 0.2428
C10 C 0.8435(3) 0.27636(18) 0.13300(19)
C11 C 0.8258(3) 0.2673(2) 0.0417(2)
H7 H 0.7604 0.2990 0.0067
C12 C 0.9020(4) 0.2131(2) 0.0023(2)
C13 C 0.7291(3) 0.68460(17) 0.61153(19)
C14 C 0.6408(3) 0.73380(18) 0.66350(19)
C15 C 0.5102(4) 0.7596(2) 0.6272(2)
H9 H 0.4752 0.7443 0.5690
C16 C 0.4312(3) 0.8072(2) 0.6749(2)
H10 H 0.3427 0.8243 0.6488
C17 C 0.4793(3) 0.83037(17) 0.76071(19)
C18 C 0.6090(3) 0.8026(2) 0.7974(2)
H11 H 0.6439 0.8169 0.8559
C19 C 0.6867(3) 0.7548(2) 0.7497(2)
H12 H 0.7736 0.7358 0.7763
C20 C 0.2154(3) 0.9763(2) 0.8220(2)
C21 C 0.2869(3) 0.92782(19) 0.7715(2)
H14 H 0.2621 0.9252 0.7096
C22 C 0.3966(3) 0.88240(17) 0.81185(19)
C23 C 0.4252(3) 0.8900(2) 0.90286(19)
H15 H 0.4977 0.8600 0.9338
C24 C 0.3498(3) 0.9401(2) 0.94801(19)
N4 N 0.7555(3) 0.48427(15) 0.59074(16)
O2_2 O 0.3162(2) 0.16776(13) 0.96718(13)
O3_2 O 0.1545(2) 0.16152(13) 0.85265(13)
C13_2 C 0.2709(3) 0.18460(17) 0.88847(19)
C14_2 C 0.3592(3) 0.23380(18) 0.83650(19)
C15_2 C 0.4898(4) 0.2596(2) 0.8728(2)
H9_2 H 0.5248 0.2443 0.9310
C16_2 C 0.5688(3) 0.3072(2) 0.8251(2)
H10_2 H 0.6573 0.3243 0.8512
C17_2 C 0.5207(3) 0.33037(17) 0.73929(19)
C18_2 C 0.3910(3) 0.3026(2) 0.7026(2)
H11_2 H 0.3561 0.3169 0.6441
C19_2 C 0.3133(3) 0.2548(2) 0.7503(2)
H12_2 H 0.2264 0.2358 0.7237
C20_2 C 0.7846(3) 0.4763(2) 0.6780(2)
H13_2 H 0.8594 0.5059 0.7069
C21_2 C 0.7131(3) 0.42782(19) 0.7285(2)
H14_2 H 0.7379 0.4252 0.7904
C22_2 C 0.6034(3) 0.38240(17) 0.68815(19)
C23_2 C 0.5748(3) 0.3900(2) 0.59714(19)
H15_2 H 0.5023 0.3600 0.5662
C24_2 C 0.6502(3) 0.4401(2) 0.55199(19)
H16 H 0.6273 0.4442 0.4900
O4_2 O 0.0687(2) 0.96602(14) 0.09884(14)
C1_2 C 0.1862(3) 0.98267(17) 0.13401(18)
C2_2 C 0.2531(3) 0.93295(18) 0.20943(19)
C3_2 C 0.1768(3) 0.87753(18) 0.24995(19)
H1_2 H 0.0822 0.8693 0.2285
C4_2 C 0.2375(3) 0.83374(18) 0.3219(2)
C5_2 C 0.3785(3) 0.8455(2) 0.3511(2)
H2_2 H 0.4215 0.8162 0.3997
C6_2 C 0.4558(3) 0.8996(2) 0.3093(2)
H3_2 H 0.5515 0.9062 0.3288
C7_2 C 0.3936(3) 0.9441(2) 0.2392(2)
H4_2 H 0.4461 0.9819 0.2117
C9_2 C 0.0595(3) 0.72767(19) 0.3196(2)
H6_2 H 0.0436 0.7310 0.2572
C10_2 C 0.1565(3) 0.77636(18) 0.36700(19)
C11_2 C 0.1742(3) 0.7673(2) 0.4583(2)
H7_2 H 0.2396 0.7990 0.4933
C12_2 C 0.0980(4) 0.7131(2) 0.4977(2)
H8 H 0.1121 0.7083 0.5600
O5_2 O 0.9313(2) 0.03398(14) 0.90116(14)
C8_2 C 0.9867(3) 0.67459(19) 0.3643(2)
H5_2 H 0.9207 0.6421 0.3308
Cd4_2 Cd 0.866857(19) 0.919737(11) 0.019318(12)
O1_2 O 0.2554(2) 0.46110(13) 0.61007(13)
O2_3 O 0.3162(2) 0.33224(13) 0.46718(13)
O3_3 O 0.1545(2) 0.33848(13) 0.35265(13)
N1_2 N 0.0034(3) 0.83394(15) 0.95165(16)
N2_2 N 0.7555(3) 0.01573(15) 0.09074(16)
C1_3 C 0.1862(3) 0.51733(17) 0.63401(18)
C2_3 C 0.2531(3) 0.56705(18) 0.70943(19)
C3_3 C 0.1768(3) 0.62247(18) 0.74995(19)
H1_3 H 0.0822 0.6307 0.7285
C4_3 C 0.2375(3) 0.66626(18) 0.8219(2)
C5_3 C 0.3785(3) 0.6545(2) 0.8511(2)
H2_3 H 0.4215 0.6838 0.8997
C6_3 C 0.4558(3) 0.6004(2) 0.8093(2)
H3_3 H 0.5515 0.5938 0.8288
C7_3 C 0.3936(3) 0.5559(2) 0.7392(2)
H4_3 H 0.4461 0.5181 0.7117
C9_3 C 0.0595(3) 0.77233(19) 0.8196(2)
H6_3 H 0.0436 0.7690 0.7572
C10_3 C 0.1565(3) 0.72364(18) 0.86700(19)
C11_3 C 0.1742(3) 0.7327(2) 0.9583(2)
H7_3 H 0.2396 0.7010 0.9933
C12_3 C 0.0980(4) 0.7869(2) 0.9977(2)
C13_3 C 0.2709(3) 0.31540(17) 0.38847(19)
C14_3 C 0.3592(3) 0.26620(18) 0.33650(19)
C15_3 C 0.4898(4) 0.2404(2) 0.3728(2)
H9_3 H 0.5248 0.2557 0.4310
C16_3 C 0.5688(3) 0.1928(2) 0.3251(2)
H10_3 H 0.6573 0.1757 0.3512
C17_3 C 0.5207(3) 0.16963(17) 0.23929(19)
C18_3 C 0.3910(3) 0.1974(2) 0.2026(2)
H11_3 H 0.3561 0.1831 0.1441
C19_3 C 0.3133(3) 0.2452(2) 0.2503(2)
H12_3 H 0.2264 0.2642 0.2237
C20_3 C 0.7846(3) 0.0237(2) 0.1780(2)
C21_3 C 0.7131(3) 0.07218(19) 0.2285(2)
H14_3 H 0.7379 0.0748 0.2904
C22_3 C 0.6034(3) 0.11760(17) 0.18815(19)
C23_3 C 0.5748(3) 0.1100(2) 0.09714(19)
H15_3 H 0.5023 0.1400 0.0662
C24_3 C 0.6502(3) 0.0599(2) 0.05199(19)
N4_2 N 0.2445(3) 0.51573(15) 0.40926(16)
H13_3 H 0.8594 0.9941 0.2069
C8_3 C 0.9867(3) 0.82541(19) 0.8643(2)
H5_3 H 0.9207 0.8579 0.8308
N3_2 N 0.9966(3) 0.33394(15) 0.54835(16)
C8_4 C 0.0133(3) 0.32541(19) 0.6357(2)
H5_4 H 0.0793 0.3579 0.6692
C1_4 C 0.8138(3) 0.01733(17) 0.86599(18)
C2_4 C 0.7469(3) 0.06705(18) 0.79057(19)
C3_4 C 0.8232(3) 0.12247(18) 0.75005(19)
H1_4 H 0.9178 0.1307 0.7715
C4_4 C 0.7625(3) 0.16626(18) 0.6781(2)
C5_4 C 0.6215(3) 0.1545(2) 0.6489(2)
H2_4 H 0.5785 0.1838 0.6003
C6_4 C 0.5442(3) 0.1004(2) 0.6907(2)
H3_4 H 0.4485 0.0938 0.6712
C7_4 C 0.6064(3) 0.0559(2) 0.7608(2)
H4_4 H 0.5539 0.0181 0.7883
C9_4 C 0.9405(3) 0.27233(19) 0.6804(2)
H6_4 H 0.9564 0.2690 0.7428
C10_4 C 0.8435(3) 0.22364(18) 0.63300(19)
C11_4 C 0.8258(3) 0.2327(2) 0.5417(2)
H7_4 H 0.7604 0.2010 0.5067
C12_4 C 0.9020(4) 0.2869(2) 0.5023(2)
H8_2 H 0.8879 0.2917 0.4400
O2_4 O 0.6838(2) 0.83224(13) 0.03282(13)
O3_4 O 0.8455(2) 0.83848(13) 0.14735(13)
C13_4 C 0.7291(3) 0.81540(17) 0.11153(19)
C14_4 C 0.6408(3) 0.76620(18) 0.16350(19)
C15_4 C 0.5102(4) 0.7404(2) 0.1272(2)
H9_4 H 0.4752 0.7557 0.0690
C16_4 C 0.4312(3) 0.6928(2) 0.1749(2)
H10_4 H 0.3427 0.6757 0.1488
C17_4 C 0.4793(3) 0.66963(17) 0.26071(19)
C18_4 C 0.6090(3) 0.6974(2) 0.2974(2)
H11_4 H 0.6439 0.6831 0.3559
C19_4 C 0.6867(3) 0.7452(2) 0.2497(2)
H12_4 H 0.7736 0.7642 0.2763
C20_4 C 0.2154(3) 0.5237(2) 0.3220(2)
H13_4 H 0.1406 0.4941 0.2931
C21_4 C 0.2869(3) 0.57218(19) 0.2715(2)
H14_4 H 0.2621 0.5748 0.2096
C22_4 C 0.3966(3) 0.61760(17) 0.31185(19)
C23_4 C 0.4252(3) 0.6100(2) 0.40286(19)
H15_4 H 0.4977 0.6400 0.4338
C24_4 C 0.3498(3) 0.5599(2) 0.44801(19)
H16_2 H 0.3727 0.5558 0.5100
H16_3 H 0.3727 0.9442 0.0100
H8_3 H 0.8879 0.2083 0.9400
O1_3 O 0.2554(2) 0.03890(13) 0.11007(13)
H8_4 H 0.1121 0.7917 0.0600
H16_4 H 0.6273 0.0558 0.9900
O1_4 O 0.7446(2) 0.96110(13) 0.88993(13)
loop_
_geom_bond_atom_site_label_1
_geom_bond_atom_site_label_2
_geom_bond_site_symmetry_1
_geom_bond_site_symmetry_2
C8 H5 1_555 1_555
Cd1 O1 1_555 1_555
O1 C1 1_555 1_555
O2 Cd1 1_555 1_555
O3 Cd1 1_555 1_555
O4 C1 1_555 1_555
N2 C20 1_555 1_555
C1 C2 1_555 1_555
C2 C3 1_555 1_555
C3 H1 1_555 1_555
C4 C3 1_555 1_555
C5 C4 1_555 1_555
H2 C5 1_555 1_555
C6 C5 1_555 1_555
H3 C6 1_555 1_555
C7 C2 1_555 1_555
H4 C7 1_555 1_555
H6 C9 1_555 1_555
C10 C4 1_555 1_555
C11 C10 1_555 1_555
H7 C11 1_555 1_555
C12 N1 1_555 1_555
C13 O2 1_555 1_555
C14 C13 1_555 1_555
C15 C14 1_555 1_555
H9 C15 1_555 1_555
C16 C15 1_555 1_555
H10 C16 1_555 1_555
C17 C16 1_555 1_555
C18 C17 1_555 1_555
H11 C18 1_555 1_555
C19 C14 1_555 1_555
H12 C19 1_555 1_555
C21 C20 1_555 1_555
H14 C21 1_555 1_555
C22 C17 1_555 1_555
C23 C22 1_555 1_555
H15 C23 1_555 1_555
C24 N2 1_555 1_555
N4 Cd1 1_555 1_555
O3 C13 1_555 1_555
C6 C7 1_555 1_555
C9 C10 1_555 1_555
C11 C12 1_555 1_555
C18 C19 1_555 1_555
C21 C22 1_555 1_555
C23 C24 1_555 1_555
O2_2 Cd3 1_555 1_555
O3_2 Cd3 1_555 1_555
N4 C20_2 1_555 1_555
C13_2 O2_2 1_555 1_555
C14_2 C13_2 1_555 1_555
C15_2 C14_2 1_555 1_555
H9_2 C15_2 1_555 1_555
C16_2 C15_2 1_555 1_555
H10_2 C16_2 1_555 1_555
C17_2 C16_2 1_555 1_555
C18_2 C17_2 1_555 1_555
H11_2 C18_2 1_555 1_555
C19_2 C14_2 1_555 1_555
H12_2 C19_2 1_555 1_555
C20_2 H13_2 1_555 1_555
C21_2 C20_2 1_555 1_555
H14_2 C21_2 1_555 1_555
C22_2 C17_2 1_555 1_555
C23_2 C22_2 1_555 1_555
H15_2 C23_2 1_555 1_555
C24_2 N4 1_555 1_555
H16 C24_2 1_555 1_555
O3_2 C13_2 1_555 1_555
C18_2 C19_2 1_555 1_555
C21_2 C22_2 1_555 1_555
C23_2 C24_2 1_555 1_555
O4_2 C1_2 1_555 1_555
C1_2 C2_2 1_555 1_555
C2_2 C3_2 1_555 1_555
C3_2 H1_2 1_555 1_555
C4_2 C3_2 1_555 1_555
C5_2 C4_2 1_555 1_555
H2_2 C5_2 1_555 1_555
C6_2 C5_2 1_555 1_555
H3_2 C6_2 1_555 1_555
C7_2 C2_2 1_555 1_555
H4_2 C7_2 1_555 1_555
H6_2 C9_2 1_555 1_555
C10_2 C4_2 1_555 1_555
C11_2 C10_2 1_555 1_555
H7_2 C11_2 1_555 1_555
C12_2 N3 1_555 1_555
H8 C12_2 1_555 1_555
C6_2 C7_2 1_555 1_555
C9_2 C10_2 1_555 1_555
C11_2 C12_2 1_555 1_555
C8_2 H5_2 1_555 1_555
Cd4 O1_2 1_555 1_555
O1_2 C1_3 1_555 1_555
O2_3 Cd4 1_555 1_555
O3_3 Cd4 1_555 1_555
O5 C1_3 1_555 1_555
N2_2 C20_3 1_555 1_555
C1_3 C2_3 1_555 1_555
C2_3 C3_3 1_555 1_555
C3_3 H1_3 1_555 1_555
C4_3 C3_3 1_555 1_555
C5_3 C4_3 1_555 1_555
H2_3 C5_3 1_555 1_555
C6_3 C5_3 1_555 1_555
H3_3 C6_3 1_555 1_555
C7_3 C2_3 1_555 1_555
H4_3 C7_3 1_555 1_555
H6_3 C9_3 1_555 1_555
C10_3 C4_3 1_555 1_555
C11_3 C10_3 1_555 1_555
H7_3 C11_3 1_555 1_555
C12_3 N1_2 1_555 1_555
C13_3 O2_3 1_555 1_555
C14_3 C13_3 1_555 1_555
C15_3 C14_3 1_555 1_555
H9_3 C15_3 1_555 1_555
C16_3 C15_3 1_555 1_555
H10_3 C16_3 1_555 1_555
C17_3 C16_3 1_555 1_555
C18_3 C17_3 1_555 1_555
H11_3 C18_3 1_555 1_555
C19_3 C14_3 1_555 1_555
H12_3 C19_3 1_555 1_555
C21_3 C20_3 1_555 1_555
H14_3 C21_3 1_555 1_555
C22_3 C17_3 1_555 1_555
C23_3 C22_3 1_555 1_555
H15_3 C23_3 1_555 1_555
C24_3 N2_2 1_555 1_555
N4_2 Cd4 1_555 1_555
O3_3 C13_3 1_555 1_555
C6_3 C7_3 1_555 1_555
C9_3 C10_3 1_555 1_555
C11_3 C12_3 1_555 1_555
C18_3 C19_3 1_555 1_555
C21_3 C22_3 1_555 1_555
C23_3 C24_3 1_555 1_555
C8_3 H5_3 1_555 1_555
C8_4 H5_4 1_555 1_555
O5_2 C1_4 1_555 1_555
C1_4 C2_4 1_555 1_555
C2_4 C3_4 1_555 1_555
C3_4 H1_4 1_555 1_555
C4_4 C3_4 1_555 1_555
C5_4 C4_4 1_555 1_555
H2_4 C5_4 1_555 1_555
C6_4 C5_4 1_555 1_555
H3_4 C6_4 1_555 1_555
C7_4 C2_4 1_555 1_555
H4_4 C7_4 1_555 1_555
H6_4 C9_4 1_555 1_555
C10_4 C4_4 1_555 1_555
C11_4 C10_4 1_555 1_555
H7_4 C11_4 1_555 1_555
C12_4 N3_2 1_555 1_555
H8_2 C12_4 1_555 1_555
C6_4 C7_4 1_555 1_555
C9_4 C10_4 1_555 1_555
C11_4 C12_4 1_555 1_555
O2_4 Cd4_2 1_555 1_555
O3_4 Cd4_2 1_555 1_555
N4_2 C20_4 1_555 1_555
C13_4 O2_4 1_555 1_555
C14_4 C13_4 1_555 1_555
C15_4 C14_4 1_555 1_555
H9_4 C15_4 1_555 1_555
C16_4 C15_4 1_555 1_555
H10_4 C16_4 1_555 1_555
C17_4 C16_4 1_555 1_555
C18_4 C17_4 1_555 1_555
H11_4 C18_4 1_555 1_555
C19_4 C14_4 1_555 1_555
H12_4 C19_4 1_555 1_555
C20_4 H13_4 1_555 1_555
C21_4 C20_4 1_555 1_555
H14_4 C21_4 1_555 1_555
C22_4 C17_4 1_555 1_555
C23_4 C22_4 1_555 1_555
H15_4 C23_4 1_555 1_555
C24_4 N4_2 1_555 1_555
H16_2 C24_4 1_555 1_555
O3_4 C13_4 1_555 1_555
C18_4 C19_4 1_555 1_555
C21_4 C22_4 1_555 1_555
C23_4 C24_4 1_555 1_555

#END
