
###############################################################################
#
# This file contains modified crystal structure data generated from the
# MOF subset of the Cambridge Structural Database (CSD) v543 
# hosted by the Cambridge Crystallographic Data Centre (CCDC).
#
# This work is licensed under the Creative Commons
# Attribution-NonCommercial-ShareAlike 4.0 International License.
# To view a copy of this license, visit
# http://creativecommons.org/licenses/by-nc-sa/4.0/
# or send a letter to
# Creative Commons, PO Box 1866, Mountain View, CA 94042, USA.
#
# CIF created using the CSD Python API on 29 September 2022
# The structure has been converted into the P1 space group
# The structure has a 3D framework
# The original CSD entry IHOTUX is in the monoclinic crystal system
# The framework has been calculated to contain at least 10.0% void space
# The void calculation uses a probe of radius 1.32A, grid spacing 0.4
#
###############################################################################

data_IHOTUX
_chemical_formula_moiety         '(C32 H28 Eu4 O30)n'
_symmetry_cell_setting           triclinic
_symmetry_space_group_name_H-M   'P 1'
_symmetry_Int_Tables_number      1
_space_group_name_Hall           'P 1'
loop_
_symmetry_equiv_pos_site_id
_symmetry_equiv_pos_as_xyz
1 x,y,z
_cell_length_a                   16.9478(5)
_cell_length_b                   10.0236(2)
_cell_length_c                   8.8751(3)
_cell_angle_alpha                90
_cell_angle_beta                 103.236(2)
_cell_angle_gamma                90
_cell_volume                     1467.63
loop_
_atom_site_label
_atom_site_type_symbol
_atom_site_fract_x
_atom_site_fract_y
_atom_site_fract_z
O4 O 0.3219(6) 0.0313(10) 0.0359(10)
H2 H 0.300262 0.046216 0.111081
O12 O 0.6455(5) 0.5999(9) 0.1706(9)
O13 O 0.3306(5) 0.3061(9) 0.0995(11)
O14 O 0.4052(5) 0.3953(12) 0.3045(10)
C13 C 0.4458(7) 0.4388(13) 0.0762(14)
C14 C 0.5752(7) 0.5542(12) 0.0836(15)
C15 C 0.3931(6) 0.3775(13) 0.1661(13)
C16 C 0.5192(7) 0.4929(13) 0.1546(12)
H10 H 0.531883 0.488066 0.262059
Eu5 Eu 0.71221(3) 0.79004(6) 0.14430(7)
Eu7 Eu 0.28779(3) 0.29004(6) 0.35570(7)
Eu1 Eu 0.28779(3) 0.20996(6) 0.85570(7)
O1 O 0.1727(5) 0.2992(9) 0.4553(10)
O2 O 0.3545(5) 0.4001(9) 0.8294(9)
O3 O 0.6694(5) 0.6939(9) 0.9005(11)
O5 O 0.1852(5) 0.3309(9) 0.7040(9)
O6 O 0.5948(5) 0.6047(12) 0.6955(10)
O7 O 0.0570(7) 0.4196(15) 0.7958(12)
H3 H 0.091651 0.361467 0.802244
C1 C 0.5542(7) 0.5612(13) 0.9238(14)
C2 C 0.1480(6) 0.3438(13) 0.5633(13)
C3 C 0.0320(7) 0.4573(14) 0.6494(13)
C4 C 0.0712(6) 0.4232(12) 0.5354(13)
C5 C 0.4248(7) 0.4458(12) 0.9164(15)
C6 C 0.6069(6) 0.6225(13) 0.8339(13)
C8 C 0.4808(7) 0.5071(13) 0.8454(12)
H5 H 0.468117 0.511934 0.737941
O8 O 0.2237(7) 0.0227(11) 0.7228(12)
H7 H 0.200656 0.017782 0.628962
C12 C 0.0381(7) 0.4643(14) 0.3847(14)
H9 H 0.062783 0.439296 0.305682
Eu4 Eu 0.71221(3) 0.70996(6) 0.64430(7)
O18 O 0.1727(5) 0.2008(9) 0.9553(10)
O21 O 0.3306(5) 0.1939(9) 0.5995(11)
O23 O 0.4052(5) 0.1047(12) 0.8045(10)
C7 C 0.9619(7) 0.5357(14) 0.6153(14)
H4 H 0.937217 0.560704 0.694318
O9 O 0.8273(5) 0.7008(9) 0.5447(10)
O10 O 0.8148(5) 0.6691(9) 0.2960(9)
O11 O 0.9430(7) 0.5804(15) 0.2042(12)
H8 H 0.908349 0.638533 0.197756
C9 C 0.8520(6) 0.6562(13) 0.4367(13)
C10 C 0.9680(7) 0.5427(14) 0.3506(13)
C11 C 0.9288(6) 0.5768(12) 0.4646(13)
O16 O 0.7763(7) 0.9773(11) 0.2772(12)
H14 H 0.799344 0.982218 0.371038
O17 O 0.8273(5) 0.7992(9) 0.0447(10)
O22 O 0.6694(5) 0.8061(9) 0.4005(11)
O24 O 0.5948(5) 0.8953(12) 0.1955(10)
O15 O 0.6781(6) 0.9687(10) 0.9641(10)
H12 H 0.699738 0.953784 0.888919
O10_2 O 0.1852(5) 0.1691(9) 0.2040(9)
O11_2 O 0.0570(7) 0.0804(15) 0.2958(12)
H8_2 H 0.091651 0.138533 0.302244
C9_2 C 0.1480(6) 0.1562(13) 0.0633(13)
C10_2 C 0.0320(7) 0.0427(14) 0.1494(13)
C11_2 C 0.0712(6) 0.0768(12) 0.0354(13)
O15_2 O 0.3219(6) 0.4687(10) 0.5359(10)
H11 H 0.299897 0.542466 0.497510
H12_2 H 0.300262 0.453784 0.611081
O16_2 O 0.2237(7) 0.4773(11) 0.2228(12)
H13 H 0.218230 0.556081 0.257360
H14_2 H 0.200656 0.482218 0.128962
O19 O 0.3545(5) 0.0999(9) 0.3294(9)
C7_2 C 0.0381(7) 0.0357(14) 0.8847(14)
H4_2 H 0.062783 0.060704 0.805682
C1_2 C 0.4458(7) 0.0612(13) 0.5762(14)
C6_2 C 0.3931(6) 0.1225(13) 0.6661(13)
C8_2 C 0.5192(7) 0.0071(13) 0.6546(12)
H5_2 H 0.531883 0.011934 0.762059
C14_2 C 0.4248(7) 0.0542(12) 0.4164(15)
C12_2 C 0.9619(7) 0.9643(14) 0.1153(14)
H9_2 H 0.937217 0.939296 0.194318
O2_2 O 0.6455(5) 0.9001(9) 0.6706(9)
O4_2 O 0.6781(6) 0.5313(10) 0.4641(10)
H1 H 0.700103 0.457534 0.502490
H2_2 H 0.699738 0.546216 0.388919
O5_2 O 0.8148(5) 0.8309(9) 0.7960(9)
O7_2 O 0.9430(7) 0.9196(15) 0.7042(12)
H3_2 H 0.908349 0.861467 0.697756
C2_2 C 0.8520(6) 0.8438(13) 0.9367(13)
C3_2 C 0.9680(7) 0.9573(14) 0.8506(13)
C4_2 C 0.9288(6) 0.9232(12) 0.9646(13)
C5_2 C 0.5752(7) 0.9458(12) 0.5836(15)
O8_2 O 0.7763(7) 0.5227(11) 0.7772(12)
H6 H 0.781770 0.443919 0.742640
H7_2 H 0.799344 0.517782 0.871038
C13_2 C 0.5542(7) 0.9388(13) 0.4238(14)
C15_2 C 0.6069(6) 0.8775(13) 0.3339(13)
C16_2 C 0.4808(7) 0.9929(13) 0.3454(12)
H10_2 H 0.468117 0.988066 0.237941
H1_2 H 0.299897 0.957534 0.997510
H6_2 H 0.218230 0.943919 0.757360
H11_2 H 0.700103 0.042466 0.002490
H13_2 H 0.781770 0.056081 0.242640
loop_
_geom_bond_atom_site_label_1
_geom_bond_atom_site_label_2
_geom_bond_site_symmetry_1
_geom_bond_site_symmetry_2
H2 O4 1_555 1_555
O12 C14 1_555 1_555
O14 C15 1_555 1_555
C15 O13 1_555 1_555
C16 C13 1_555 1_555
H10 C16 1_555 1_555
Eu7 O13 1_555 1_555
O12 Eu5 1_555 1_555
O14 Eu7 1_555 1_555
C13 C15 1_555 1_555
C14 C16 1_555 1_555
Eu1 O2 1_555 1_555
O1 C2 1_555 1_555
O2 C5 1_555 1_555
O3 C6 1_555 1_555
O5 Eu1 1_555 1_555
O6 C6 1_555 1_555
O7 H3 1_555 1_555
C1 C6 1_555 1_555
C2 O5 1_555 1_555
C3 O7 1_555 1_555
C4 C2 1_555 1_555
C5 C8 1_555 1_555
C8 C1 1_555 1_555
H5 C8 1_555 1_555
O8 Eu1 1_555 1_555
H7 O8 1_555 1_555
C12 C4 1_555 1_555
H9 C12 1_555 1_555
Eu4 O3 1_555 1_555
Eu7 O1 1_555 1_555
O18 Eu1 1_555 1_555
O21 Eu1 1_555 1_555
O23 Eu1 1_555 1_555
O6 Eu4 1_555 1_555
C3 C4 1_555 1_555
Eu7 O21 1_555 1_555
H4 C7 1_555 1_555
O9 C9 1_555 1_555
O10 C9 1_555 1_555
O11 H8 1_555 1_555
C9 C11 1_555 1_555
C10 O11 1_555 1_555
C11 C7 1_555 1_555
Eu5 O10 1_555 1_555
O16 Eu5 1_555 1_555
H14 O16 1_555 1_555
Eu4 O9 1_555 1_555
O17 Eu5 1_555 1_555
O22 Eu5 1_555 1_555
O24 Eu5 1_555 1_555
C10 C11 1_555 1_555
Eu4 O22 1_555 1_555
H12 O15 1_555 1_555
O10_2 C9_2 1_555 1_555
O11_2 H8_2 1_555 1_555
C9_2 C11_2 1_555 1_555
C10_2 O11_2 1_555 1_555
Eu7 O10_2 1_555 1_555
O15_2 Eu7 1_555 1_555
H11 O15_2 1_555 1_555
H12_2 O15_2 1_555 1_555
O16_2 Eu7 1_555 1_555
H13 O16_2 1_555 1_555
H14_2 O16_2 1_555 1_555
O19 Eu7 1_555 1_555
C10_2 C11_2 1_555 1_555
H4_2 C7_2 1_555 1_555
O21 C6_2 1_555 1_555
O23 C6_2 1_555 1_555
C1_2 C6_2 1_555 1_555
C8_2 C1_2 1_555 1_555
H5_2 C8_2 1_555 1_555
O19 C14_2 1_555 1_555
C14_2 C1_2 1_555 1_555
H9_2 C12_2 1_555 1_555
Eu4 O2_2 1_555 1_555
O2_2 C5_2 1_555 1_555
O4_2 Eu4 1_555 1_555
H1 O4_2 1_555 1_555
H2_2 O4_2 1_555 1_555
O5_2 Eu4 1_555 1_555
O7_2 H3_2 1_555 1_555
C2_2 O5_2 1_555 1_555
C3_2 O7_2 1_555 1_555
C4_2 C2_2 1_555 1_555
O8_2 Eu4 1_555 1_555
H6 O8_2 1_555 1_555
H7_2 O8_2 1_555 1_555
O24 C15_2 1_555 1_555
C13_2 C5_2 1_555 1_555
C15_2 O22 1_555 1_555
C16_2 C13_2 1_555 1_555
H10_2 C16_2 1_555 1_555
C3_2 C4_2 1_555 1_555
C13_2 C15_2 1_555 1_555

#END
