
###############################################################################
#
# This file contains modified crystal structure data generated from the
# MOF subset of the Cambridge Structural Database (CSD) v543 
# hosted by the Cambridge Crystallographic Data Centre (CCDC).
#
# This work is licensed under the Creative Commons
# Attribution-NonCommercial-ShareAlike 4.0 International License.
# To view a copy of this license, visit
# http://creativecommons.org/licenses/by-nc-sa/4.0/
# or send a letter to
# Creative Commons, PO Box 1866, Mountain View, CA 94042, USA.
#
# CIF created using the CSD Python API on 29 September 2022
# The structure has been converted into the P1 space group
# The structure has a 3D framework
# The original CSD entry IJASOC is in the triclinic crystal system
# The framework has been calculated to contain at least 10.0% void space
# The void calculation uses a probe of radius 1.32A, grid spacing 0.4
#
###############################################################################

data_IJASOC
_chemical_formula_moiety         '(C42 H54 N2 O16 Tm2)n'
_symmetry_cell_setting           triclinic
_symmetry_space_group_name_H-M   'P 1'
_symmetry_Int_Tables_number      1
_space_group_name_Hall           'P 1'
loop_
_symmetry_equiv_pos_site_id
_symmetry_equiv_pos_as_xyz
1 x,y,z
_cell_length_a                   9.955(3)
_cell_length_b                   12.795(3)
_cell_length_c                   13.801(4)
_cell_angle_alpha                69.415(4)
_cell_angle_beta                 82.562(4)
_cell_angle_gamma                83.117(4)
_cell_volume                     1626.57
loop_
_atom_site_label
_atom_site_type_symbol
_atom_site_fract_x
_atom_site_fract_y
_atom_site_fract_z
_atom_site_U_iso_or_equiv
_atom_site_thermal_displace_type
Tm3 Tm 0.469822(18) 0.359646(14) 0.625217(14) 0.0231 Uani
Tm6 Tm 0.530178(18) 0.640354(14) 0.374783(14) 0.0231 Uani
O11 O 0.2901(4) 0.6641(3) 0.3823(3) 0.0442 Uani
O13 O 0.3669(3) 0.5133(3) 0.4968(2) 0.0277 Uani
C28 C 0.2689(4) 0.5732(4) 0.4516(4) 0.0267 Uani
C30 C 0.1283(4) 0.5344(4) 0.4780(4) 0.0278 Uani
C31 C 0.0852(5) 0.4802(4) 0.4183(4) 0.0294 Uani
C32 C 0.1793(6) 0.4616(5) 0.3310(5) 0.0447 Uani
H36 H 0.1346 0.4231 0.2974 0.0660 Uiso
H37 H 0.2037 0.5325 0.2817 0.0660 Uiso
H38 H 0.2597 0.4173 0.3580 0.0660 Uiso
C33 C 0.0460(5) 0.5553(4) 0.5599(4) 0.0303 Uani
C34 C 0.0974(6) 0.6144(6) 0.6224(5) 0.0501 Uani
H39 H 0.0950 0.5669 0.6940 0.0750 Uiso
H40 H 0.1891 0.6323 0.5966 0.0750 Uiso
H41 H 0.0407 0.6822 0.6167 0.0750 Uiso
H18 H 0.1911 0.1317 0.0135 0.1210 Uiso
H42 H 0.2449 0.0329 0.1715 0.1170 Uiso
O1 O 0.4709(4) 0.2847(3) 0.5054(3) 0.0410 Uani
O2 O 0.5881(7) 0.2846(4) 0.3607(4) 0.0770 Uani
O3 O 0.7099(4) 0.3359(3) 0.6177(3) 0.0442 Uani
O4 O 0.6331(3) 0.4867(3) 0.5032(2) 0.0277 Uani
O5 O 0.4922(4) 0.1636(3) 0.7236(3) 0.0426 Uani
O6 O 0.4952(5) 0.2801(3) 0.8039(3) 0.0519 Uani
O7 O 0.2499(4) 0.3204(3) 0.6725(3) 0.0426 Uani
O8 O 0.4401(5) 0.4965(3) 0.6957(3) 0.0446 Uani
H1 H 0.4030 0.4817 0.7576 0.0530 Uiso
H2 H 0.4646 0.5629 0.6716 0.0530 Uiso
N1 N 0.0691(5) 0.2240(5) 0.6880(5) 0.0583 Uani
C1 C 0.5253(6) 0.2355(4) 0.4440(4) 0.0375 Uani
C2 C 0.5114(6) 0.1117(4) 0.4738(4) 0.0358 Uani
C3 C 0.6117(6) 0.0375(4) 0.5265(4) 0.0383 Uani
C4 C 0.7295(7) 0.0806(5) 0.5529(6) 0.0556 Uani
H3 H 0.7898 0.0186 0.5889 0.0830 Uiso
H4 H 0.6978 0.1244 0.5965 0.0830 Uiso
H5 H 0.7771 0.1264 0.4901 0.0830 Uiso
C5 C 0.3999(6) 0.0762(4) 0.4467(4) 0.0403 Uani
C6 C 0.2938(8) 0.1598(6) 0.3873(6) 0.0651 Uani
H6 H 0.2892 0.1494 0.3222 0.0970 Uiso
H7 H 0.3175 0.2343 0.3745 0.0970 Uiso
H8 H 0.2070 0.1488 0.4273 0.0970 Uiso
C7 C 0.7311(4) 0.4268(4) 0.5484(4) 0.0267 Uani
C8 C 0.8717(4) 0.4656(4) 0.5220(4) 0.0278 Uani
C9 C 0.9148(5) 0.5198(4) 0.5817(4) 0.0294 Uani
C10 C 0.8207(6) 0.5384(5) 0.6690(5) 0.0447 Uani
H9 H 0.8654 0.5769 0.7026 0.0660 Uiso
H10 H 0.7963 0.4675 0.7183 0.0660 Uiso
H11 H 0.7403 0.5827 0.6420 0.0660 Uiso
C11 C 0.9540(5) 0.4447(4) 0.4401(4) 0.0303 Uani
C12 C 0.9026(6) 0.3856(6) 0.3776(5) 0.0501 Uani
H12 H 0.9050 0.4331 0.3060 0.0750 Uiso
H13 H 0.8109 0.3677 0.4034 0.0750 Uiso
H14 H 0.9593 0.3178 0.3833 0.0750 Uiso
C13 C 0.4951(6) 0.1829(5) 0.8057(4) 0.0390 Uani
C14 C 0.4979(6) 0.0868(4) 0.9080(4) 0.0372 Uani
C15 C 0.6133(6) 0.0145(5) 0.9266(4) 0.0438 Uani
C16 C 0.7361(7) 0.0314(7) 0.8501(6) 0.0780 Uani
H16 H 0.8126 0.0401 0.8817 0.1170 Uiso
H17 H 0.7197 0.0970 0.7908 0.1170 Uiso
C17 C 0.3854(6) 0.0743(5) 0.9789(4) 0.0442 Uani
C18 C 0.2591(8) 0.1531(7) 0.9556(6) 0.0808 Uani
H19 H 0.2251 0.1495 0.8949 0.1210 Uiso
H20 H 0.2806 0.2282 0.9430 0.1210 Uiso
C19 C 0.1903(6) 0.2603(6) 0.6463(5) 0.0525 Uani
H21 H 0.2323 0.2370 0.5923 0.0630 Uiso
H22 H 0.0016 0.1945 0.8324 0.1010 Uiso
H24 H 0.0364 0.3186 0.7730 0.1010 Uiso
C21 C 0.0063(9) 0.1536(9) 0.6504(9) 0.0955 Uani
H25 H 0.0691 0.1315 0.6008 0.1430 Uiso
O17 O 0.5078(4) 0.8364(3) 0.2764(3) 0.0426 Uani
O19 O 0.5048(5) 0.7199(3) 0.1961(3) 0.0519 Uani
C35 C 0.5049(6) 0.8171(5) 0.1943(4) 0.0390 Uani
C37 C 0.5021(6) 0.9132(4) 0.0920(4) 0.0372 Uani
C38 C 0.3867(6) 0.9855(5) 0.0734(4) 0.0438 Uani
C39 C 0.2639(7) 0.9686(7) 0.1499(6) 0.0780 Uani
H43 H 0.1874 0.9599 0.1183 0.1170 Uiso
H44 H 0.2803 0.9030 0.2092 0.1170 Uiso
C40 C 0.6146(6) 0.9257(5) 0.0211(4) 0.0442 Uani
C41 C 0.7409(8) 0.8469(7) 0.0444(6) 0.0808 Uani
H46 H 0.7749 0.8505 0.1051 0.1210 Uiso
H47 H 0.7194 0.7718 0.0570 0.1210 Uiso
H15 H 0.7551 0.9671 0.8285 0.1170 Uiso
O9 O 0.5291(4) 0.7153(3) 0.4946(3) 0.0410 Uani
O10 O 0.4119(7) 0.7154(4) 0.6393(4) 0.0770 Uani
O21 O 0.7501(4) 0.6796(3) 0.3275(3) 0.0426 Uani
O22 O 0.5599(5) 0.5035(3) 0.3043(3) 0.0446 Uani
H28 H 0.5970 0.5183 0.2424 0.0530 Uiso
H29 H 0.5354 0.4371 0.3284 0.0530 Uiso
N2 N 0.9309(5) 0.7760(5) 0.3120(5) 0.0583 Uani
C22 C 0.4747(6) 0.7645(4) 0.5560(4) 0.0375 Uani
C23 C 0.4886(6) 0.8883(4) 0.5262(4) 0.0358 Uani
C24 C 0.3883(6) 0.9625(4) 0.4735(4) 0.0383 Uani
C25 C 0.2705(7) 0.9194(5) 0.4471(6) 0.0556 Uani
H30 H 0.2102 0.9814 0.4111 0.0830 Uiso
H31 H 0.3022 0.8756 0.4035 0.0830 Uiso
H32 H 0.2229 0.8736 0.5099 0.0830 Uiso
C26 C 0.6001(6) 0.9238(4) 0.5533(4) 0.0403 Uani
C27 C 0.7062(8) 0.8402(6) 0.6127(6) 0.0651 Uani
H33 H 0.7108 0.8506 0.6778 0.0970 Uiso
H34 H 0.6825 0.7657 0.6255 0.0970 Uiso
H35 H 0.7930 0.8512 0.5727 0.0970 Uiso
H45 H 0.8089 0.8683 0.9865 0.1210 Uiso
C42 C 0.8097(6) 0.7397(6) 0.3537(5) 0.0525 Uani
H48 H 0.7677 0.7630 0.4077 0.0630 Uiso
H49 H 0.9984 0.8055 0.1676 0.1010 Uiso
H51 H 0.9636 0.6814 0.2270 0.1010 Uiso
C44 C 0.9937(9) 0.8464(9) 0.3496(9) 0.0955 Uani
H52 H 0.9309 0.8685 0.3992 0.1430 Uiso
C43 C 0.0028(7) 0.7441(7) 0.2321(6) 0.0675 Uani
H50 H 0.0960 0.7233 0.2464 0.1010 Uiso
H53 H 0.0729 0.8065 0.3825 0.1430 Uiso
H54 H 0.0197 0.9118 0.2926 0.1430 Uiso
C20 C 0.9972(7) 0.2559(7) 0.7679(6) 0.0675 Uani
H23 H 0.9040 0.2767 0.7536 0.1010 Uiso
H26 H 0.9271 0.1935 0.6175 0.1430 Uiso
H27 H 0.9803 0.0882 0.7074 0.1430 Uiso
loop_
_atom_site_aniso_label
_atom_site_aniso_U_11
_atom_site_aniso_U_22
_atom_site_aniso_U_33
_atom_site_aniso_U_23
_atom_site_aniso_U_13
_atom_site_aniso_U_12
Tm3 0.02231 0.01727 0.02392 0.00249 -0.00481 -0.00602
Tm6 0.02231 0.01727 0.02392 0.00249 -0.00481 -0.00602
O11 0.0251 0.0299 0.056 0.017 -0.0128 -0.0078
O13 0.0215 0.0223 0.0324 0.0017 -0.008 -0.0036
C28 0.019 0.022 0.034 -0.0022 -0.0031 -0.0042
C30 0.016 0.023 0.038 -0.0002 -0.008 -0.0031
C31 0.02 0.028 0.035 -0.0033 -0.0052 -0.0022
C32 0.033 0.045 0.054 -0.017 0.005 -0.005
C33 0.023 0.028 0.038 -0.007 -0.0073 -0.0032
C34 0.038 0.064 0.058 -0.029 -0.001 -0.02
O1 0.066 0.0206 0.0356 -0.0071 -0.0088 -0.0035
O2 0.121 0.034 0.066 -0.014 0.033 -0.022
O3 0.0251 0.0299 0.056 0.017 -0.0128 -0.0078
O4 0.0215 0.0223 0.0324 0.0017 -0.008 -0.0036
O5 0.054 0.03 0.0334 0.0044 -0.0092 -0.005
O6 0.088 0.0252 0.033 0.0073 -0.017 -0.009
O7 0.03 0.042 0.047 -0.0007 -0.0034 -0.014
O8 0.071 0.0297 0.03 -0.005 -0.0063 -0.0065
N1 0.033 0.062 0.068 -0.002 -0.006 -0.019
C1 0.044 0.022 0.043 -0.003 -0.008 -0.01
C2 0.051 0.02 0.038 -0.01 -0.006 -0.007
C3 0.044 0.026 0.045 -0.009 -0.007 -0.01
C4 0.058 0.041 0.074 -0.019 -0.021 -0.014
C5 0.049 0.027 0.045 -0.01 -0.011 -0.003
C6 0.072 0.037 0.088 -0.016 -0.039 0.006
C7 0.019 0.022 0.034 -0.0022 -0.0031 -0.0042
C8 0.016 0.023 0.038 -0.0002 -0.008 -0.0031
C9 0.02 0.028 0.035 -0.0033 -0.0052 -0.0022
C10 0.033 0.045 0.054 -0.017 0.005 -0.005
C11 0.023 0.028 0.038 -0.007 -0.0073 -0.0032
C12 0.038 0.064 0.058 -0.029 -0.001 -0.02
C13 0.036 0.033 0.035 0.006 -0.004 -0.007
C14 0.037 0.029 0.033 0.008 -0.008 -0.007
C15 0.036 0.042 0.032 0.012 0.001 -0.002
C16 0.044 0.09 0.054 0.027 0.006 0
C17 0.039 0.037 0.033 0.016 -0.007 0.005
C18 0.05 0.073 0.067 0.028 0.005 0.024
C19 0.037 0.054 0.058 -0.006 0 -0.016
C21 0.06 0.113 0.124 -0.046 0.005 -0.045
O17 0.054 0.03 0.0334 0.0044 -0.0092 -0.005
O19 0.088 0.0252 0.033 0.0073 -0.017 -0.009
C35 0.036 0.033 0.035 0.006 -0.004 -0.007
C37 0.037 0.029 0.033 0.008 -0.008 -0.007
C38 0.036 0.042 0.032 0.012 0.001 -0.002
C39 0.044 0.09 0.054 0.027 0.006 0
C40 0.039 0.037 0.033 0.016 -0.007 0.005
C41 0.05 0.073 0.067 0.028 0.005 0.024
O9 0.066 0.0206 0.0356 -0.0071 -0.0088 -0.0035
O10 0.121 0.034 0.066 -0.014 0.033 -0.022
O21 0.03 0.042 0.047 -0.0007 -0.0034 -0.014
O22 0.071 0.0297 0.03 -0.005 -0.0063 -0.0065
N2 0.033 0.062 0.068 -0.002 -0.006 -0.019
C22 0.044 0.022 0.043 -0.003 -0.008 -0.01
C23 0.051 0.02 0.038 -0.01 -0.006 -0.007
C24 0.044 0.026 0.045 -0.009 -0.007 -0.01
C25 0.058 0.041 0.074 -0.019 -0.021 -0.014
C26 0.049 0.027 0.045 -0.01 -0.011 -0.003
C27 0.072 0.037 0.088 -0.016 -0.039 0.006
C42 0.037 0.054 0.058 -0.006 0 -0.016
C44 0.06 0.113 0.124 -0.046 0.005 -0.045
C43 0.045 0.067 0.077 -0.005 -0.01 -0.009
C20 0.045 0.067 0.077 -0.005 -0.01 -0.009
loop_
_geom_bond_atom_site_label_1
_geom_bond_atom_site_label_2
_geom_bond_site_symmetry_1
_geom_bond_site_symmetry_2
Tm3 O13 1_555 1_555
Tm6 O11 1_555 1_555
O11 C28 1_555 1_555
O13 Tm6 1_555 1_555
C28 O13 1_555 1_555
C30 C28 1_555 1_555
C32 C31 1_555 1_555
H36 C32 1_555 1_555
H37 C32 1_555 1_555
H38 C32 1_555 1_555
C34 C33 1_555 1_555
H39 C34 1_555 1_555
H40 C34 1_555 1_555
H41 C34 1_555 1_555
C30 C31 1_555 1_555
C30 C33 1_555 1_555
Tm3 O1 1_555 1_555
O1 C1 1_555 1_555
O2 C1 1_555 1_555
O3 Tm3 1_555 1_555
O4 Tm3 1_555 1_555
O5 Tm3 1_555 1_555
O6 Tm3 1_555 1_555
O7 Tm3 1_555 1_555
O8 Tm3 1_555 1_555
H1 O8 1_555 1_555
H2 O8 1_555 1_555
N1 C19 1_555 1_555
C1 C2 1_555 1_555
C2 C3 1_555 1_555
C3 C4 1_555 1_555
C4 H3 1_555 1_555
H4 C4 1_555 1_555
H5 C4 1_555 1_555
C5 C2 1_555 1_555
C6 C5 1_555 1_555
H6 C6 1_555 1_555
H7 C6 1_555 1_555
H8 C6 1_555 1_555
C7 O3 1_555 1_555
C8 C7 1_555 1_555
C9 C8 1_555 1_555
C10 C9 1_555 1_555
H9 C10 1_555 1_555
H10 C10 1_555 1_555
H11 C10 1_555 1_555
C11 C8 1_555 1_555
C12 C11 1_555 1_555
H12 C12 1_555 1_555
H13 C12 1_555 1_555
H14 C12 1_555 1_555
C13 O5 1_555 1_555
C14 C13 1_555 1_555
C15 C14 1_555 1_555
C16 C15 1_555 1_555
H16 C16 1_555 1_555
H17 C16 1_555 1_555
C17 C14 1_555 1_555
C18 C17 1_555 1_555
H19 C18 1_555 1_555
H20 C18 1_555 1_555
C19 O7 1_555 1_555
H21 C19 1_555 1_555
C21 N1 1_555 1_555
H25 C21 1_555 1_555
Tm6 O4 1_555 1_555
O4 C7 1_555 1_555
O6 C13 1_555 1_555
Tm6 O17 1_555 1_555
O17 C35 1_555 1_555
O19 Tm6 1_555 1_555
C35 O19 1_555 1_555
C37 C35 1_555 1_555
C39 C38 1_555 1_555
H43 C39 1_555 1_555
H44 C39 1_555 1_555
C41 C40 1_555 1_555
H46 C41 1_555 1_555
H47 C41 1_555 1_555
C37 C38 1_555 1_555
C37 C40 1_555 1_555
Tm6 O9 1_555 1_555
O9 C22 1_555 1_555
O10 C22 1_555 1_555
O21 Tm6 1_555 1_555
O22 Tm6 1_555 1_555
H28 O22 1_555 1_555
H29 O22 1_555 1_555
N2 C42 1_555 1_555
C22 C23 1_555 1_555
C23 C24 1_555 1_555
C25 C24 1_555 1_555
H30 C25 1_555 1_555
H31 C25 1_555 1_555
H32 C25 1_555 1_555
C27 C26 1_555 1_555
H33 C27 1_555 1_555
H34 C27 1_555 1_555
H35 C27 1_555 1_555
C42 O21 1_555 1_555
H48 C42 1_555 1_555
C44 N2 1_555 1_555
H52 C44 1_555 1_555
C23 C26 1_555 1_555
H50 C43 1_555 1_555
H23 C20 1_555 1_555

#END
