
###############################################################################
#
# This file contains modified crystal structure data generated from the
# MOF subset of the Cambridge Structural Database (CSD) v543 
# hosted by the Cambridge Crystallographic Data Centre (CCDC).
#
# This work is licensed under the Creative Commons
# Attribution-NonCommercial-ShareAlike 4.0 International License.
# To view a copy of this license, visit
# http://creativecommons.org/licenses/by-nc-sa/4.0/
# or send a letter to
# Creative Commons, PO Box 1866, Mountain View, CA 94042, USA.
#
# CIF created using the CSD Python API on 29 September 2022
# The structure has been converted into the P1 space group
# The structure has a 3D framework
# The original CSD entry IJEXAX is in the monoclinic crystal system
# The framework has been calculated to contain at least 10.0% void space
# The void calculation uses a probe of radius 1.32A, grid spacing 0.4
# H atom positions have been added when not included in the experimental data
#
###############################################################################

data_IJEXAX
_chemical_formula_moiety         '(C88 H64 N12 O40 Zn8)n'
_symmetry_cell_setting           triclinic
_symmetry_space_group_name_H-M   'P 1'
_symmetry_Int_Tables_number      1
_space_group_name_Hall           'P 1'
loop_
_symmetry_equiv_pos_site_id
_symmetry_equiv_pos_as_xyz
1 x,y,z
_cell_length_a                   12.3267(5)
_cell_length_b                   15.0656(6)
_cell_length_c                   14.5968(6)
_cell_angle_alpha                90
_cell_angle_beta                 108.6310(10)
_cell_angle_gamma                90
_cell_volume                     2568.7
loop_
_atom_site_label
_atom_site_type_symbol
_atom_site_fract_x
_atom_site_fract_y
_atom_site_fract_z
O4 O 0.12101(19) 0.10597(16) 0.42424(19)
C3 C 0.0891(3) 0.1796(2) 0.3893(2)
H7 H 0.3178 0.0303 0.4090
C13 C 0.6511(3) 0.1708(2) 0.3555(2)
C14 C 0.5580(2) 0.2304(2) 0.3667(2)
C15 C 0.4572(3) 0.1919(2) 0.3669(3)
H8 H 0.4474 0.1308 0.3596
C16 C 0.3699(3) 0.2445(2) 0.3781(3)
C17 C 0.3834(3) 0.3356(2) 0.3887(2)
H9 H 0.3246 0.3710 0.3954
C18 C 0.4862(3) 0.37299(19) 0.3890(2)
C19 C 0.5739(2) 0.3212(2) 0.3774(2)
H10 H 0.6422 0.3470 0.3768
C20 C 0.1782(3) 0.2464(2) 0.3830(3)
H11 H 0.1486 0.2824 0.3253
H12 H 0.1983 0.2853 0.4389
C21 C 0.5906(3) 0.5100(2) 0.3994(3)
H13 H 0.6589 0.4764 0.4329
H14 H 0.5949 0.5666 0.4320
C22 C 0.5873(3) 0.5259(2) 0.2964(2)
O5 O 0.74449(19) 0.20887(17) 0.35820(19)
O6 O 0.6350(2) 0.09075(17) 0.3451(2)
O7 O 0.2746(2) 0.19874(17) 0.3799(3)
O8 O 0.4923(2) 0.46281(14) 0.40394(18)
O9 O 0.6630(2) 0.57741(17) 0.28577(18)
O10 O 0.5096(2) 0.49044(18) 0.23171(18)
H15 H 0.1562 0.0122 0.5849
Zn3 Zn 0.85630(3) 0.12493(2) 0.34504(3)
Zn4 Zn 0.64370(3) 0.62493(2) 0.15496(3)
Zn6 Zn 0.44868(3) 0.47885(2) 0.08255(3)
N1 N 0.3339(11) 0.6420(7) 0.3605(5)
O1 O 0.2780(6) 0.5635(8) 0.3539(6)
C1 C 0.0437(6) 0.6445(3) 0.3769(4)
H1 H 0.0522 0.5838 0.3696
C2 C 0.2470(5) 0.6974(3) 0.3742(3)
Zn2 Zn 0.05132(3) 0.97885(2) 0.41745(3)
C6 C 0.1314(5) 0.7027(3) 0.3816(3)
C7 C 0.2937(4) 0.7891(3) 0.3822(3)
C8 C 0.3933(4) 0.8303(4) 0.3809(4)
H5 H 0.4541 0.7976 0.3736
C9 C 0.3998(4) 0.9207(4) 0.3908(4)
H6 H 0.4658 0.9500 0.3897
C10 C 0.3103(4) 0.9690(3) 0.4024(4)
C11 C 0.2076(3) 0.8440(3) 0.3947(3)
C12 C 0.1093(4) 0.7931(2) 0.3938(3)
N2 N 0.0140(3) 0.8286(2) 0.4018(2)
N3 N 0.2121(3) 0.9311(2) 0.4047(2)
O11 O 0.10158(17) 0.97667(13) 0.56724(16)
H16 H 0.412796 0.656567 0.356821
H17 H 0.205853 0.565538 0.298515
O2 O 0.89842(17) 0.02333(13) 0.43276(16)
O3 O 0.98692(19) 0.20658(17) 0.3598(2)
Zn5 Zn 0.94868(3) 0.02115(2) 0.58255(3)
O13 O 0.8370(2) 0.07741(17) 0.21423(18)
H2 H 0.8438 0.9878 0.4151
C4 C 0.9300(5) 0.7708(3) 0.3954(3)
H3 H 0.8604 0.7916 0.3991
C5 C 0.9435(6) 0.6788(4) 0.3833(4)
H4 H 0.8830 0.6406 0.3796
O14 O 0.9904(2) 0.99044(18) 0.26829(18)
N1_2 N 0.1661(11) 0.1420(7) 0.1395(5)
O1_2 O 0.2220(6) 0.0635(8) 0.1461(6)
C1_2 C 0.4563(6) 0.1445(3) 0.1231(4)
H1_2 H 0.4478 0.0838 0.1304
C2_2 C 0.2530(5) 0.1974(3) 0.1258(3)
H2_2 H 0.6562 0.4878 0.0849
O2_2 O 0.60158(17) 0.52333(13) 0.06724(16)
O3_2 O 0.51308(19) 0.70658(17) 0.1402(2)
O4_2 O 0.37899(19) 0.60597(16) 0.07576(19)
C3_2 C 0.4109(3) 0.6796(2) 0.1107(2)
C4_2 C 0.5700(5) 0.2708(3) 0.1046(3)
H3_2 H 0.6396 0.2916 0.1009
C5_2 C 0.5565(6) 0.1788(4) 0.1167(4)
H4_2 H 0.6170 0.1406 0.1204
C6_2 C 0.3686(5) 0.2027(3) 0.1184(3)
C7_2 C 0.2063(4) 0.2891(3) 0.1178(3)
C8_2 C 0.1067(4) 0.3303(4) 0.1191(4)
H5_2 H 0.0459 0.2976 0.1264
C9_2 C 0.1002(4) 0.4207(4) 0.1092(4)
H6_2 H 0.0342 0.4500 0.1103
C10_2 C 0.1897(4) 0.4690(3) 0.0976(4)
H7_2 H 0.1822 0.5303 0.0910
C11_2 C 0.2924(3) 0.3440(3) 0.1053(3)
C12_2 C 0.3907(4) 0.2931(2) 0.1062(3)
C15_2 C 0.0428(3) 0.6919(2) 0.1331(3)
H8_2 H 0.0526 0.6308 0.1404
C16_2 C 0.1301(3) 0.7445(2) 0.1219(3)
C17_2 C 0.1166(3) 0.8356(2) 0.1113(2)
H9_2 H 0.1754 0.8710 0.1046
C18_2 C 0.0138(3) 0.87299(19) 0.1110(2)
C20_2 C 0.3218(3) 0.7464(2) 0.1170(3)
H11_2 H 0.3514 0.7824 0.1747
H12_2 H 0.3017 0.7853 0.0611
N2_2 N 0.4860(3) 0.3286(2) 0.0982(2)
N3_2 N 0.2879(3) 0.4311(2) 0.0953(2)
O7_2 O 0.2254(2) 0.69874(17) 0.1201(3)
O8_2 O 0.0077(2) 0.96281(14) 0.09606(18)
O12 O 0.75551(19) 0.70887(17) 0.14180(19)
H16_2 H 0.0872042 0.156567 0.143179
H17_2 H 0.294147 0.0655384 0.201485
H15_2 H 0.3438 0.5122 0.9151
O11_2 O 0.39842(17) 0.47667(13) 0.93276(16)
Zn5_2 Zn 0.55132(3) 0.52115(2) 0.91745(3)
C21_2 C 0.9094(3) 0.0100(2) 0.1006(3)
H14_2 H 0.9051 0.0666 0.0680
C22_2 C 0.9127(3) 0.0259(2) 0.2036(2)
C13_2 C 0.8489(3) 0.6708(2) 0.1445(2)
C14_2 C 0.9420(2) 0.7304(2) 0.1333(2)
C19_2 C 0.9261(2) 0.8212(2) 0.1226(2)
H10_2 H 0.8578 0.8470 0.1232
H13_2 H 0.8411 0.9764 0.0671
O6_2 O 0.8650(2) 0.59075(17) 0.1549(2)
C4_3 C 0.0700(5) 0.2292(3) 0.6046(3)
H3_3 H 0.1396 0.2084 0.6009
C5_3 C 0.0565(6) 0.3212(4) 0.6167(4)
H4_3 H 0.1170 0.3594 0.6204
O14_2 O 0.0096(2) 0.00956(18) 0.73171(18)
Zn1 Zn 0.14370(3) 0.87507(2) 0.65496(3)
O3_3 O 0.01308(19) 0.79342(17) 0.6402(2)
O12_2 O 0.25551(19) 0.79113(17) 0.64180(19)
O13_2 O 0.1630(2) 0.92259(17) 0.78577(18)
N1_3 N 0.6661(11) 0.3580(7) 0.6395(5)
O1_3 O 0.7220(6) 0.4365(8) 0.6461(6)
C1_3 C 0.9563(6) 0.3555(3) 0.6231(4)
H1_3 H 0.9478 0.4162 0.6304
C2_3 C 0.7530(5) 0.3026(3) 0.6258(3)
C6_3 C 0.8686(5) 0.2973(3) 0.6184(3)
C7_3 C 0.7063(4) 0.2109(3) 0.6178(3)
C8_3 C 0.6067(4) 0.1697(4) 0.6191(4)
H5_3 H 0.5459 0.2024 0.6264
C9_3 C 0.6002(4) 0.0793(4) 0.6092(4)
H6_3 H 0.5342 0.0500 0.6103
C10_3 C 0.6897(4) 0.0310(3) 0.5976(4)
C11_3 C 0.7924(3) 0.1560(3) 0.6053(3)
C12_3 C 0.8907(4) 0.2069(2) 0.6062(3)
N2_3 N 0.9860(3) 0.1714(2) 0.5982(2)
N3_3 N 0.7879(3) 0.0689(2) 0.5953(2)
H16_3 H 0.587204 0.343433 0.643179
H17_3 H 0.794147 0.434462 0.701485
O4_3 O 0.87899(19) 0.89403(16) 0.57576(19)
C3_3 C 0.9109(3) 0.8204(2) 0.6107(2)
H7_3 H 0.6822 0.9697 0.5910
C13_3 C 0.3489(3) 0.8292(2) 0.6445(2)
C14_3 C 0.4420(2) 0.7696(2) 0.6333(2)
C15_3 C 0.5428(3) 0.8081(2) 0.6331(3)
H8_3 H 0.5526 0.8692 0.6404
C16_3 C 0.6301(3) 0.7555(2) 0.6219(3)
C17_3 C 0.6166(3) 0.6644(2) 0.6113(2)
H9_3 H 0.6754 0.6290 0.6046
C18_3 C 0.5138(3) 0.62701(19) 0.6110(2)
C19_3 C 0.4261(2) 0.6788(2) 0.6226(2)
H10_3 H 0.3578 0.6530 0.6232
C20_3 C 0.8218(3) 0.7536(2) 0.6170(3)
H11_3 H 0.8514 0.7176 0.6747
H12_3 H 0.8017 0.7147 0.5611
C21_3 C 0.4094(3) 0.4900(2) 0.6006(3)
H13_3 H 0.3411 0.5236 0.5671
H14_3 H 0.4051 0.4334 0.5680
C22_3 C 0.4127(3) 0.4741(2) 0.7036(2)
O6_3 O 0.3650(2) 0.90925(17) 0.6549(2)
O7_3 O 0.7254(2) 0.80126(17) 0.6201(3)
O8_3 O 0.5077(2) 0.53719(14) 0.59606(18)
O9_2 O 0.3370(2) 0.42259(17) 0.71423(18)
O10_2 O 0.4904(2) 0.50956(18) 0.76829(18)
Zn4_2 Zn 0.35630(3) 0.37507(2) 0.84504(3)
C13_4 C 0.1511(3) 0.3292(2) 0.8555(2)
C14_4 C 0.0580(2) 0.2696(2) 0.8667(2)
C19_4 C 0.0739(2) 0.1788(2) 0.8774(2)
H10_4 H 0.1422 0.1530 0.8768
H13_4 H 0.1589 0.0236 0.9329
O5_2 O 0.24449(19) 0.29113(17) 0.85820(19)
O6_4 O 0.1350(2) 0.40925(17) 0.8451(2)
C21_4 C 0.0906(3) 0.9900(2) 0.8994(3)
H14_4 H 0.0949 0.9334 0.9320
C22_4 C 0.0873(3) 0.9741(2) 0.7964(2)
N1_4 N 0.8339(11) 0.8580(7) 0.8605(5)
O1_4 O 0.7780(6) 0.9365(8) 0.8539(6)
C1_4 C 0.5437(6) 0.8555(3) 0.8769(4)
H1_4 H 0.5522 0.9162 0.8696
C2_4 C 0.7470(5) 0.8026(3) 0.8742(3)
O3_4 O 0.48692(19) 0.29342(17) 0.8598(2)
O4_4 O 0.62101(19) 0.39403(16) 0.92424(19)
C3_4 C 0.5891(3) 0.3204(2) 0.8893(2)
C4_4 C 0.4300(5) 0.7292(3) 0.8954(3)
H3_4 H 0.3604 0.7084 0.8991
C5_4 C 0.4435(6) 0.8212(4) 0.8833(4)
H4_4 H 0.3830 0.8594 0.8796
C6_4 C 0.6314(5) 0.7973(3) 0.8816(3)
C7_4 C 0.7937(4) 0.7109(3) 0.8822(3)
C8_4 C 0.8933(4) 0.6697(4) 0.8809(4)
H5_4 H 0.9541 0.7024 0.8736
C9_4 C 0.8998(4) 0.5793(4) 0.8908(4)
H6_4 H 0.9658 0.5500 0.8897
C10_4 C 0.8103(4) 0.5310(3) 0.9024(4)
H7_4 H 0.8178 0.4697 0.9090
C11_4 C 0.7076(3) 0.6560(3) 0.8947(3)
C12_4 C 0.6093(4) 0.7069(2) 0.8938(3)
C15_4 C 0.9572(3) 0.3081(2) 0.8669(3)
H8_4 H 0.9474 0.3692 0.8596
C16_4 C 0.8699(3) 0.2555(2) 0.8781(3)
C17_4 C 0.8834(3) 0.1644(2) 0.8887(2)
H9_4 H 0.8246 0.1290 0.8954
C18_4 C 0.9862(3) 0.12701(19) 0.8890(2)
C20_4 C 0.6782(3) 0.2536(2) 0.8830(3)
H11_4 H 0.6486 0.2176 0.8253
H12_4 H 0.6983 0.2147 0.9389
N2_4 N 0.5140(3) 0.6714(2) 0.9018(2)
N3_4 N 0.7121(3) 0.5689(2) 0.9047(2)
O7_4 O 0.7746(2) 0.30126(17) 0.8799(3)
O8_4 O 0.9923(2) 0.03719(14) 0.90394(18)
H16_4 H 0.912796 0.843433 0.856821
H17_4 H 0.705853 0.934462 0.798515
loop_
_geom_bond_atom_site_label_1
_geom_bond_atom_site_label_2
_geom_bond_site_symmetry_1
_geom_bond_site_symmetry_2
C3 O4 1_555 1_555
C13 C14 1_555 1_555
C14 C15 1_555 1_555
C15 H8 1_555 1_555
C16 C15 1_555 1_555
C17 C16 1_555 1_555
H9 C17 1_555 1_555
C18 C17 1_555 1_555
C19 C14 1_555 1_555
H10 C19 1_555 1_555
C20 C3 1_555 1_555
H11 C20 1_555 1_555
H12 C20 1_555 1_555
C21 H13 1_555 1_555
H14 C21 1_555 1_555
C22 C21 1_555 1_555
O5 C13 1_555 1_555
O6 C13 1_555 1_555
O7 C16 1_555 1_555
O8 C18 1_555 1_555
O9 C22 1_555 1_555
O10 C22 1_555 1_555
Zn3 O5 1_555 1_555
Zn4 O9 1_555 1_555
Zn6 O10 1_555 1_555
C18 C19 1_555 1_555
C20 O7 1_555 1_555
C21 O8 1_555 1_555
N1 O1 1_555 1_555
C1 H1 1_555 1_555
C2 N1 1_555 1_555
C6 C1 1_555 1_555
C7 C2 1_555 1_555
C8 C7 1_555 1_555
H5 C8 1_555 1_555
C9 C8 1_555 1_555
H6 C9 1_555 1_555
C10 C9 1_555 1_555
C11 C7 1_555 1_555
C12 C6 1_555 1_555
N2 Zn2 1_555 1_555
N3 Zn2 1_555 1_555
O11 Zn2 1_555 1_555
C2 C6 1_555 1_555
C10 N3 1_555 1_555
C11 C12 1_555 1_555
C11 N3 1_555 1_555
C12 N2 1_555 1_555
N1 H16 1_555 1_555
O1 H17 1_555 1_555
O2 Zn3 1_555 1_555
Zn3 O3 1_555 1_555
Zn5 O2 1_555 1_555
O13 Zn3 1_555 1_555
C4 H3 1_555 1_555
H4 C5 1_555 1_555
C4 C5 1_555 1_555
N1_2 O1_2 1_555 1_555
C1_2 H1_2 1_555 1_555
C2_2 N1_2 1_555 1_555
H2_2 O2_2 1_555 1_555
O2_2 Zn4 1_555 1_555
Zn4 O3_2 1_555 1_555
Zn6 O2_2 1_555 1_555
O3_2 C3_2 1_555 1_555
O4_2 Zn6 1_555 1_555
C3_2 O4_2 1_555 1_555
C4_2 H3_2 1_555 1_555
C5_2 C1_2 1_555 1_555
H4_2 C5_2 1_555 1_555
C6_2 C1_2 1_555 1_555
C7_2 C2_2 1_555 1_555
C8_2 C7_2 1_555 1_555
H5_2 C8_2 1_555 1_555
C9_2 C8_2 1_555 1_555
H6_2 C9_2 1_555 1_555
C10_2 C9_2 1_555 1_555
H7_2 C10_2 1_555 1_555
C11_2 C7_2 1_555 1_555
C12_2 C6_2 1_555 1_555
C15_2 H8_2 1_555 1_555
C16_2 C15_2 1_555 1_555
C17_2 C16_2 1_555 1_555
H9_2 C17_2 1_555 1_555
C18_2 C17_2 1_555 1_555
C20_2 C3_2 1_555 1_555
H11_2 C20_2 1_555 1_555
H12_2 C20_2 1_555 1_555
N2_2 Zn6 1_555 1_555
N3_2 Zn6 1_555 1_555
O7_2 C16_2 1_555 1_555
O8_2 C18_2 1_555 1_555
O12 Zn4 1_555 1_555
C2_2 C6_2 1_555 1_555
C4_2 C5_2 1_555 1_555
C4_2 N2_2 1_555 1_555
C10_2 N3_2 1_555 1_555
C11_2 C12_2 1_555 1_555
C11_2 N3_2 1_555 1_555
C12_2 N2_2 1_555 1_555
C20_2 O7_2 1_555 1_555
N1_2 H16_2 1_555 1_555
O1_2 H17_2 1_555 1_555
H15_2 O11_2 1_555 1_555
O11_2 Zn5_2 1_555 1_555
H14_2 C21_2 1_555 1_555
C22_2 C21_2 1_555 1_555
O13 C22_2 1_555 1_555
C13_2 C14_2 1_555 1_555
C19_2 C14_2 1_555 1_555
H10_2 C19_2 1_555 1_555
O12 C13_2 1_555 1_555
O6_2 C13_2 1_555 1_555
C4_3 H3_3 1_555 1_555
H4_3 C5_3 1_555 1_555
C4_3 C5_3 1_555 1_555
O11 Zn1 1_555 1_555
Zn1 O3_3 1_555 1_555
O12_2 Zn1 1_555 1_555
O13_2 Zn1 1_555 1_555
N1_3 O1_3 1_555 1_555
C1_3 H1_3 1_555 1_555
C2_3 N1_3 1_555 1_555
C6_3 C1_3 1_555 1_555
C7_3 C2_3 1_555 1_555
C8_3 C7_3 1_555 1_555
H5_3 C8_3 1_555 1_555
C9_3 C8_3 1_555 1_555
H6_3 C9_3 1_555 1_555
C10_3 C9_3 1_555 1_555
C11_3 C7_3 1_555 1_555
C12_3 C6_3 1_555 1_555
N2_3 Zn5 1_555 1_555
N3_3 Zn5 1_555 1_555
C2_3 C6_3 1_555 1_555
C10_3 N3_3 1_555 1_555
C11_3 C12_3 1_555 1_555
C11_3 N3_3 1_555 1_555
C12_3 N2_3 1_555 1_555
N1_3 H16_3 1_555 1_555
O1_3 H17_3 1_555 1_555
C3_3 O4_3 1_555 1_555
C13_3 C14_3 1_555 1_555
C14_3 C15_3 1_555 1_555
C15_3 H8_3 1_555 1_555
C16_3 C15_3 1_555 1_555
C17_3 C16_3 1_555 1_555
H9_3 C17_3 1_555 1_555
C18_3 C17_3 1_555 1_555
C19_3 C14_3 1_555 1_555
H10_3 C19_3 1_555 1_555
C20_3 C3_3 1_555 1_555
H11_3 C20_3 1_555 1_555
H12_3 C20_3 1_555 1_555
C21_3 H13_3 1_555 1_555
H14_3 C21_3 1_555 1_555
C22_3 C21_3 1_555 1_555
O12_2 C13_3 1_555 1_555
O6_3 C13_3 1_555 1_555
O7_3 C16_3 1_555 1_555
O8_3 C18_3 1_555 1_555
O9_2 C22_3 1_555 1_555
O10_2 C22_3 1_555 1_555
Zn4_2 O9_2 1_555 1_555
Zn5_2 O10_2 1_555 1_555
C18_3 C19_3 1_555 1_555
C20_3 O7_3 1_555 1_555
C21_3 O8_3 1_555 1_555
C13_4 C14_4 1_555 1_555
C19_4 C14_4 1_555 1_555
H10_4 C19_4 1_555 1_555
O5_2 C13_4 1_555 1_555
O6_4 C13_4 1_555 1_555
Zn4_2 O5_2 1_555 1_555
H14_4 C21_4 1_555 1_555
C22_4 C21_4 1_555 1_555
O13_2 C22_4 1_555 1_555
N1_4 O1_4 1_555 1_555
C1_4 H1_4 1_555 1_555
C2_4 N1_4 1_555 1_555
O11_2 Zn4_2 1_555 1_555
Zn4_2 O3_4 1_555 1_555
O3_4 C3_4 1_555 1_555
O4_4 Zn5_2 1_555 1_555
C3_4 O4_4 1_555 1_555
C4_4 H3_4 1_555 1_555
C5_4 C1_4 1_555 1_555
H4_4 C5_4 1_555 1_555
C6_4 C1_4 1_555 1_555
C7_4 C2_4 1_555 1_555
C8_4 C7_4 1_555 1_555
H5_4 C8_4 1_555 1_555
C9_4 C8_4 1_555 1_555
H6_4 C9_4 1_555 1_555
C10_4 C9_4 1_555 1_555
H7_4 C10_4 1_555 1_555
C11_4 C7_4 1_555 1_555
C12_4 C6_4 1_555 1_555
C15_4 H8_4 1_555 1_555
C16_4 C15_4 1_555 1_555
C17_4 C16_4 1_555 1_555
H9_4 C17_4 1_555 1_555
C18_4 C17_4 1_555 1_555
C20_4 C3_4 1_555 1_555
H11_4 C20_4 1_555 1_555
H12_4 C20_4 1_555 1_555
N2_4 Zn5_2 1_555 1_555
N3_4 Zn5_2 1_555 1_555
O7_4 C16_4 1_555 1_555
O8_4 C18_4 1_555 1_555
C2_4 C6_4 1_555 1_555
C4_4 C5_4 1_555 1_555
C4_4 N2_4 1_555 1_555
C10_4 N3_4 1_555 1_555
C11_4 C12_4 1_555 1_555
C11_4 N3_4 1_555 1_555
C12_4 N2_4 1_555 1_555
C20_4 O7_4 1_555 1_555
N1_4 H16_4 1_555 1_555
O1_4 H17_4 1_555 1_555

#END
