
###############################################################################
#
# This file contains modified crystal structure data generated from the
# MOF subset of the Cambridge Structural Database (CSD) v543 
# hosted by the Cambridge Crystallographic Data Centre (CCDC).
#
# This work is licensed under the Creative Commons
# Attribution-NonCommercial-ShareAlike 4.0 International License.
# To view a copy of this license, visit
# http://creativecommons.org/licenses/by-nc-sa/4.0/
# or send a letter to
# Creative Commons, PO Box 1866, Mountain View, CA 94042, USA.
#
# CIF created using the CSD Python API on 29 September 2022
# The structure has been converted into the P1 space group
# The structure has a 3D framework
# The original CSD entry IJIGEQ is in the monoclinic crystal system
# The framework has been calculated to contain at least 10.0% void space
# The void calculation uses a probe of radius 1.32A, grid spacing 0.4
# The framework is charged, counterions have been retained in the structure
#
###############################################################################

data_IJIGEQ
_chemical_formula_moiety         '(C116 H56 Cd10 O34 2+)n'
_symmetry_cell_setting           triclinic
_symmetry_space_group_name_H-M   'P 1'
_symmetry_Int_Tables_number      1
_space_group_name_Hall           'P 1'
loop_
_symmetry_equiv_pos_site_id
_symmetry_equiv_pos_as_xyz
1 x,y,z
_cell_length_a                   9.7809(10)
_cell_length_b                   19.5833(18)
_cell_length_c                   18.5053(19)
_cell_angle_alpha                90
_cell_angle_beta                 106.144(6)
_cell_angle_gamma                90
_cell_volume                     3404.77
loop_
_atom_site_label
_atom_site_type_symbol
_atom_site_fract_x
_atom_site_fract_y
_atom_site_fract_z
Cd13 Cd -0.000000 0.500000 0.500000
Cd2 Cd 0.000000 0.000000 0.000000
O5 O 0.6291(17) 0.1203(5) 0.4612(9)
O6 O 0.1161(8) 0.5182(5) 0.4214(5)
O7 O 0.1785(8) 0.6241(5) 0.4067(4)
O8 O 0.7005(7) 0.6523(3) 0.3993(5)
O9 O 0.8288(6) 0.5608(3) 0.4145(3)
C11 C 0.378(2) 0.0361(9) 0.4211(10)
H5 H 0.436542 0.031956 0.469886
C12 C 0.407(2) 0.0913(6) 0.3798(8)
C13 C 0.3210(14) 0.0981(5) 0.3076(6)
H6 H 0.322815 0.138093 0.280859
C14 C 0.2325(14) 0.0453(5) 0.2751(6)
H7 H 0.173769 0.050882 0.226459
C15 C 0.522(2) 0.1417(7) 0.4163(8)
C16 C 0.5080(14) 0.2147(6) 0.4049(7)
C17 C 0.3805(15) 0.2478(7) 0.3760(10)
H8 H 0.299013 0.221694 0.357093
C18 C 0.3679(13) 0.3169(7) 0.3738(11)
H9 H 0.278232 0.336590 0.356573
C19 C 0.4871(10) 0.3584(5) 0.3969(6)
C20 C 0.6166(12) 0.3252(6) 0.4228(8)
H10 H 0.700195 0.350555 0.436560
C21 C 0.6231(14) 0.2573(6) 0.4281(8)
H11 H 0.711693 0.237452 0.449108
C22 C 0.4761(9) 0.4333(5) 0.3963(6)
C23 C 0.5913(9) 0.4760(5) 0.3979(5)
H12 H 0.676971 0.456414 0.396140
C24 C 0.5827(8) 0.5462(4) 0.4021(5)
C25 C 0.4539(9) 0.5768(5) 0.4045(5)
H13 H 0.446205 0.623981 0.407030
C26 C 0.3383(9) 0.5349(5) 0.4031(5)
C27 C 0.3510(10) 0.4644(5) 0.3995(6)
H14 H 0.272804 0.437306 0.399177
C28 C 0.7091(8) 0.5899(4) 0.4057(4)
C29 C 0.1998(9) 0.5618(6) 0.4102(5)
Cd5 Cd 0.96546(6) 0.66127(3) 0.42373(3)
Cd6 Cd 0.03454(6) 0.16127(3) 0.07627(3)
Cd13_2 Cd 1.000000 0.500000 0.500000
O30 O 0.1712(6) 0.0608(3) 0.0855(3)
Cd2_2 Cd 0.000000 -0.000000 1.000000
Cd3 Cd 0.03454(6) 0.33873(3) 0.57627(3)
O11 O 0.0719(8) 0.2915(4) 0.7006(4)
O12 O 0.0436(9) 0.2015(4) 0.9515(4)
C30 C 0.0144(10) 0.2386(4) 0.6698(5)
H15 H 0.043846 0.230794 0.816830
O19 O 0.0436(9) 0.2985(4) 0.4515(4)
O28 O 0.2995(7) 0.3477(3) 0.6007(5)
O31 O 0.1712(6) 0.4392(3) 0.5855(3)
Cd2_3 Cd 0.000000 1.000000 0.000000
O1 O 0.0154(10) 0.7700(3) 0.3986(4)
O4 O 0.0600(6) 0.8953(3) 0.0441(3)
C2 C 0.0265(9) 0.8162(4) 0.2825(5)
C3 C 0.0011(8) 0.8086(4) 0.2062(5)
C4 C 0.0410(8) 0.8583(4) 0.1628(4)
C5 C 0.1123(10) 0.9164(4) 0.1983(4)
H2 H 0.139610 0.949994 0.169613
C6 C 0.1428(12) 0.9246(5) 0.2753(5)
C7 C 0.0974(12) 0.8749(5) 0.3167(5)
H3 H 0.114432 0.880665 0.368362
C8 C 0.0170(8) 0.8493(4) 0.0806(4)
C9 C 0.2274(16) 0.9844(5) 0.3117(5)
C10 C 0.2961(19) 0.9828(9) 0.3874(10)
H4 H 0.307054 0.940461 0.411000
O22 O 0.0600(6) 0.6047(3) 0.5441(3)
Cd2_4 Cd 0.000000 1.000000 1.000000
O24 O 0.1161(8) 0.9818(5) 0.9214(5)
Cd2_5 Cd 1.000000 0.000000 0.000000
O23 O 0.8839(8) 0.0182(5) 0.0786(5)
Cd2_6 Cd 1.000000 -0.000000 1.000000
O10 O 0.9846(10) 0.2300(3) 0.6014(4)
O13 O 0.9400(6) 0.1047(3) 0.9559(3)
C31 C 0.9735(9) 0.1838(4) 0.7175(5)
C32 C 0.9989(8) 0.1914(4) 0.7938(5)
C33 C 0.9590(8) 0.1417(4) 0.8372(4)
C34 C 0.8877(10) 0.0836(4) 0.8017(4)
H16 H 0.860390 0.050006 0.830387
C35 C 0.8572(12) 0.0754(5) 0.7247(5)
C36 C 0.9026(12) 0.1251(5) 0.6833(5)
H17 H 0.885568 0.119335 0.631638
C37 C 0.9830(8) 0.1507(4) 0.9194(4)
C38 C 0.7726(16) 0.0156(5) 0.6883(5)
C39 C 0.7039(19) 0.0172(9) 0.6126(10)
H18 H 0.692946 0.059539 0.589000
O21 O 0.9400(6) 0.3953(3) 0.4559(3)
O26 O 0.8215(8) 0.3759(5) 0.5933(4)
Cd2_7 Cd 1.000000 1.000000 0.000000
O2 O 0.9281(8) 0.7085(4) 0.2994(4)
O3 O 0.9564(9) 0.7985(4) 0.0485(4)
C1 C 0.9856(10) 0.7614(4) 0.3302(5)
H1 H 0.956154 0.769206 0.183170
O20 O 0.9564(9) 0.7015(4) 0.5485(4)
Cd2_8 Cd 1.000000 1.000000 1.000000
O14 O 0.3709(17) 0.8797(5) 0.5388(9)
O15 O 0.8839(8) 0.4818(5) 0.5786(5)
C40 C 0.622(2) 0.9639(9) 0.5789(10)
H19 H 0.563458 0.968044 0.530114
C41 C 0.593(2) 0.9087(6) 0.6202(8)
C42 C 0.6790(14) 0.9019(5) 0.6924(6)
H20 H 0.677185 0.861907 0.719141
C43 C 0.7675(14) 0.9547(5) 0.7249(6)
H21 H 0.826231 0.949118 0.773541
C44 C 0.478(2) 0.8583(7) 0.5837(8)
C45 C 0.4920(14) 0.7853(6) 0.5951(7)
C46 C 0.6195(15) 0.7522(7) 0.6240(10)
H22 H 0.700987 0.778306 0.642907
C47 C 0.6321(13) 0.6831(7) 0.6262(11)
H23 H 0.721768 0.663410 0.643427
C48 C 0.5129(10) 0.6416(5) 0.6031(6)
C49 C 0.3834(12) 0.6748(6) 0.5772(8)
H24 H 0.299805 0.649445 0.563440
C50 C 0.3769(14) 0.7427(6) 0.5719(8)
H25 H 0.288307 0.762548 0.550892
C51 C 0.5239(9) 0.5667(5) 0.6037(6)
C52 C 0.4087(9) 0.5240(5) 0.6021(5)
H26 H 0.323029 0.543586 0.603860
C53 C 0.4173(8) 0.4538(4) 0.5979(5)
C54 C 0.5461(9) 0.4232(5) 0.5955(5)
H27 H 0.553795 0.376019 0.592970
C55 C 0.6617(9) 0.4651(5) 0.5969(5)
C56 C 0.6490(10) 0.5356(5) 0.6005(6)
H28 H 0.727196 0.562694 0.600823
C57 C 0.2909(8) 0.4101(4) 0.5943(4)
C58 C 0.8002(9) 0.4382(6) 0.5898(5)
Cd9 Cd 0.96546(6) 0.83873(3) 0.92373(3)
O32 O 0.8288(6) 0.9392(3) 0.9145(3)
O2_2 O 0.0719(8) 0.2085(4) 0.2006(4)
C1_2 C 0.0144(10) 0.2614(4) 0.1698(5)
H1_2 H 0.043846 0.269206 0.316830
O10_2 O 0.0154(10) 0.7300(3) 0.8986(4)
O14_2 O 0.6291(17) 0.3797(5) 0.9612(9)
C31_2 C 0.0265(9) 0.6838(4) 0.7825(5)
C32_2 C 0.0011(8) 0.6914(4) 0.7062(5)
C33_2 C 0.0410(8) 0.6417(4) 0.6628(4)
C34_2 C 0.1123(10) 0.5836(4) 0.6983(4)
H16_2 H 0.139610 0.550006 0.669613
C35_2 C 0.1428(12) 0.5754(5) 0.7753(5)
C36_2 C 0.0974(12) 0.6251(5) 0.8167(5)
H17_2 H 0.114432 0.619335 0.868362
C37_2 C 0.0170(8) 0.6507(4) 0.5806(4)
C38_2 C 0.2274(16) 0.5156(5) 0.8117(5)
C39_2 C 0.2961(19) 0.5172(9) 0.8874(10)
H18_2 H 0.307054 0.559539 0.911000
C40_2 C 0.378(2) 0.4639(9) 0.9211(10)
H19_2 H 0.436542 0.468044 0.969886
C41_2 C 0.407(2) 0.4087(6) 0.8798(8)
C42_2 C 0.3210(14) 0.4019(5) 0.8076(6)
H20_2 H 0.322815 0.361907 0.780859
C43_2 C 0.2325(14) 0.4547(5) 0.7751(6)
H21_2 H 0.173769 0.449118 0.726459
C44_2 C 0.522(2) 0.3583(7) 0.9163(8)
C45_2 C 0.5080(14) 0.2853(6) 0.9049(7)
C46_2 C 0.3805(15) 0.2522(7) 0.8760(10)
H22_2 H 0.299013 0.278306 0.857093
C47_2 C 0.3679(13) 0.1831(7) 0.8738(11)
H23_2 H 0.278232 0.163410 0.856573
C48_2 C 0.4871(10) 0.1416(5) 0.8969(6)
C49_2 C 0.6166(12) 0.1748(6) 0.9228(8)
H24_2 H 0.700195 0.149445 0.936560
C50_2 C 0.6231(14) 0.2427(6) 0.9281(8)
H25_2 H 0.711693 0.262548 0.949108
C51_2 C 0.4761(9) 0.0667(5) 0.8963(6)
C52_2 C 0.5913(9) 0.0240(5) 0.8979(5)
H26_2 H 0.676971 0.043586 0.896140
C56_2 C 0.3510(10) 0.0356(5) 0.8995(6)
H28_2 H 0.272804 0.062694 0.899177
O26_2 O 0.1785(8) 0.8759(5) 0.9067(4)
O27 O 0.2995(7) 0.1523(3) 0.1007(5)
O17 O 0.7005(7) 0.8477(3) 0.8993(5)
C53_2 C 0.5827(8) 0.9538(4) 0.9021(5)
C54_2 C 0.4539(9) 0.9232(5) 0.9045(5)
H27_2 H 0.446205 0.876019 0.907030
C55_2 C 0.3383(9) 0.9651(5) 0.9031(5)
C57_2 C 0.7091(8) 0.9101(4) 0.9057(4)
C58_2 C 0.1998(9) 0.9382(6) 0.9102(5)
O7_2 O 0.8215(8) 0.1241(5) 0.0933(4)
C24_2 C 0.4173(8) 0.0462(4) 0.0979(5)
C25_2 C 0.5461(9) 0.0768(5) 0.0955(5)
H13_2 H 0.553795 0.123981 0.092970
C26_2 C 0.6617(9) 0.0349(5) 0.0969(5)
C28_2 C 0.2909(8) 0.0899(4) 0.0943(4)
C29_2 C 0.8002(9) 0.0618(6) 0.0898(5)
O1_2 O 0.9846(10) 0.2700(3) 0.1014(4)
O5_2 O 0.3709(17) 0.6203(5) 0.0388(9)
C2_2 C 0.9735(9) 0.3162(4) 0.2175(5)
C3_2 C 0.9989(8) 0.3086(4) 0.2938(5)
C4_2 C 0.9590(8) 0.3583(4) 0.3372(4)
C5_2 C 0.8877(10) 0.4164(4) 0.3017(4)
H2_2 H 0.860390 0.449994 0.330387
C6_2 C 0.8572(12) 0.4246(5) 0.2247(5)
C7_2 C 0.9026(12) 0.3749(5) 0.1833(5)
H3_2 H 0.885568 0.380665 0.131638
C8_2 C 0.9830(8) 0.3493(4) 0.4194(4)
C9_2 C 0.7726(16) 0.4844(5) 0.1883(5)
C10_2 C 0.7039(19) 0.4828(9) 0.1126(10)
H4_2 H 0.692946 0.440461 0.089000
C11_2 C 0.622(2) 0.5361(9) 0.0789(10)
H5_2 H 0.563458 0.531956 0.030114
C12_2 C 0.593(2) 0.5913(6) 0.1202(8)
C13_2 C 0.6790(14) 0.5981(5) 0.1924(6)
H6_2 H 0.677185 0.638093 0.219141
C14_2 C 0.7675(14) 0.5453(5) 0.2249(6)
H7_2 H 0.826231 0.550882 0.273541
C15_2 C 0.478(2) 0.6417(7) 0.0837(8)
C16_2 C 0.4920(14) 0.7147(6) 0.0951(7)
C17_2 C 0.6195(15) 0.7478(7) 0.1240(10)
H8_2 H 0.700987 0.721694 0.142907
C18_2 C 0.6321(13) 0.8169(7) 0.1262(11)
H9_2 H 0.721768 0.836590 0.143427
C19_2 C 0.5129(10) 0.8584(5) 0.1031(6)
C20_2 C 0.3834(12) 0.8252(6) 0.0772(8)
H10_2 H 0.299805 0.850555 0.063440
C21_2 C 0.3769(14) 0.7573(6) 0.0719(8)
H11_2 H 0.288307 0.737452 0.050892
C22_2 C 0.5239(9) 0.9333(5) 0.1037(6)
C23_2 C 0.4087(9) 0.9760(5) 0.1021(5)
H12_2 H 0.323029 0.956414 0.103860
C27_2 C 0.6490(10) 0.9644(5) 0.1005(6)
H14_2 H 0.727196 0.937306 0.100823
O11_2 O 0.9281(8) 0.7915(4) 0.7994(4)
C30_2 C 0.9856(10) 0.7386(4) 0.8302(5)
H15_2 H 0.956154 0.730794 0.683170
loop_
_geom_bond_atom_site_label_1
_geom_bond_atom_site_label_2
_geom_bond_site_symmetry_1
_geom_bond_site_symmetry_2
O5 C15 1_555 1_555
O6 C29 1_555 1_555
O7 C29 1_555 1_555
O8 C28 1_555 1_555
O9 C28 1_555 1_555
H5 C11 1_555 1_555
C12 C11 1_555 1_555
C13 C12 1_555 1_555
H6 C13 1_555 1_555
H7 C14 1_555 1_555
C15 C12 1_555 1_555
C16 C15 1_555 1_555
C17 C16 1_555 1_555
H8 C17 1_555 1_555
C18 C17 1_555 1_555
H9 C18 1_555 1_555
C19 C18 1_555 1_555
C20 C19 1_555 1_555
H10 C20 1_555 1_555
C21 C16 1_555 1_555
H11 C21 1_555 1_555
C22 C19 1_555 1_555
C23 C22 1_555 1_555
H12 C23 1_555 1_555
C24 C23 1_555 1_555
C25 C24 1_555 1_555
H13 C25 1_555 1_555
C26 C25 1_555 1_555
C27 C22 1_555 1_555
H14 C27 1_555 1_555
C28 C24 1_555 1_555
C29 C26 1_555 1_555
Cd5 O8 1_555 1_555
Cd13 O6 1_555 1_555
Cd13_2 O9 1_555 1_555
O30 Cd2 1_555 1_555
O9 Cd5 1_555 1_555
C13 C14 1_555 1_555
C20 C21 1_555 1_555
C26 C27 1_555 1_555
Cd6 O30 1_555 1_555
O11 Cd3 1_555 1_555
C30 O11 1_555 1_555
O19 Cd3 1_555 1_555
O28 Cd3 1_555 1_555
O31 Cd3 1_555 1_555
Cd2_3 O4 1_555 1_555
O4 C8 1_555 1_555
C3 C2 1_555 1_555
C4 C3 1_555 1_555
C5 C4 1_555 1_555
H2 C5 1_555 1_555
C6 C5 1_555 1_555
C7 C2 1_555 1_555
H3 C7 1_555 1_555
C8 C4 1_555 1_555
C9 C6 1_555 1_555
C10 C9 1_555 1_555
H4 C10 1_555 1_555
C6 C7 1_555 1_555
O24 Cd2_4 1_555 1_555
O23 Cd2_5 1_555 1_555
O13 Cd2_6 1_555 1_555
C32 C31 1_555 1_555
C33 C32 1_555 1_555
C34 C33 1_555 1_555
H16 C34 1_555 1_555
C35 C34 1_555 1_555
C36 C31 1_555 1_555
H17 C36 1_555 1_555
C37 O13 1_555 1_555
C38 C35 1_555 1_555
C39 C38 1_555 1_555
H18 C39 1_555 1_555
C33 C37 1_555 1_555
C35 C36 1_555 1_555
O2 Cd5 1_555 1_555
C1 O2 1_555 1_555
O20 Cd5 1_555 1_555
O14 C44 1_555 1_555
O15 C58 1_555 1_555
O26 C58 1_555 1_555
O28 C57 1_555 1_555
O31 C57 1_555 1_555
H19 C40 1_555 1_555
C41 C40 1_555 1_555
C42 C41 1_555 1_555
H20 C42 1_555 1_555
H21 C43 1_555 1_555
C44 C41 1_555 1_555
C45 C44 1_555 1_555
C46 C45 1_555 1_555
H22 C46 1_555 1_555
C47 C46 1_555 1_555
H23 C47 1_555 1_555
C48 C47 1_555 1_555
C49 C48 1_555 1_555
H24 C49 1_555 1_555
C50 C45 1_555 1_555
H25 C50 1_555 1_555
C51 C48 1_555 1_555
C52 C51 1_555 1_555
H26 C52 1_555 1_555
C53 C52 1_555 1_555
C54 C53 1_555 1_555
H27 C54 1_555 1_555
C55 C54 1_555 1_555
C56 C51 1_555 1_555
H28 C56 1_555 1_555
C57 C53 1_555 1_555
C58 C55 1_555 1_555
Cd13 O31 1_555 1_555
Cd13_2 O15 1_555 1_555
O32 Cd2_8 1_555 1_555
C42 C43 1_555 1_555
C49 C50 1_555 1_555
C55 C56 1_555 1_555
Cd9 O32 1_555 1_555
O2_2 Cd6 1_555 1_555
C1_2 O2_2 1_555 1_555
O22 Cd13 1_555 1_555
O14_2 C44_2 1_555 1_555
C32_2 C31_2 1_555 1_555
C33_2 C32_2 1_555 1_555
C34_2 C33_2 1_555 1_555
H16_2 C34_2 1_555 1_555
C35_2 C34_2 1_555 1_555
C36_2 C31_2 1_555 1_555
H17_2 C36_2 1_555 1_555
C37_2 O22 1_555 1_555
C38_2 C35_2 1_555 1_555
C39_2 C38_2 1_555 1_555
H18_2 C39_2 1_555 1_555
C40_2 C39_2 1_555 1_555
H19_2 C40_2 1_555 1_555
C41_2 C40_2 1_555 1_555
C42_2 C41_2 1_555 1_555
H20_2 C42_2 1_555 1_555
C43_2 C38_2 1_555 1_555
H21_2 C43_2 1_555 1_555
C44_2 C41_2 1_555 1_555
C45_2 C44_2 1_555 1_555
C46_2 C45_2 1_555 1_555
H22_2 C46_2 1_555 1_555
C47_2 C46_2 1_555 1_555
H23_2 C47_2 1_555 1_555
C48_2 C47_2 1_555 1_555
C49_2 C48_2 1_555 1_555
H24_2 C49_2 1_555 1_555
C50_2 C45_2 1_555 1_555
H25_2 C50_2 1_555 1_555
C51_2 C48_2 1_555 1_555
C52_2 C51_2 1_555 1_555
H26_2 C52_2 1_555 1_555
C56_2 C51_2 1_555 1_555
H28_2 C56_2 1_555 1_555
O27 Cd6 1_555 1_555
C33_2 C37_2 1_555 1_555
C35_2 C36_2 1_555 1_555
C42_2 C43_2 1_555 1_555
C49_2 C50_2 1_555 1_555
O24 C58_2 1_555 1_555
O26_2 C58_2 1_555 1_555
O17 C57_2 1_555 1_555
O32 C57_2 1_555 1_555
C54_2 C53_2 1_555 1_555
H27_2 C54_2 1_555 1_555
C55_2 C54_2 1_555 1_555
C57_2 C53_2 1_555 1_555
C58_2 C55_2 1_555 1_555
Cd9 O17 1_555 1_555
O23 C29_2 1_555 1_555
O7_2 C29_2 1_555 1_555
O27 C28_2 1_555 1_555
O30 C28_2 1_555 1_555
C25_2 C24_2 1_555 1_555
H13_2 C25_2 1_555 1_555
C26_2 C25_2 1_555 1_555
C28_2 C24_2 1_555 1_555
C29_2 C26_2 1_555 1_555
Cd13_2 O21 1_555 1_555
O21 C8_2 1_555 1_555
O5_2 C15_2 1_555 1_555
C3_2 C2_2 1_555 1_555
C4_2 C3_2 1_555 1_555
C5_2 C4_2 1_555 1_555
H2_2 C5_2 1_555 1_555
C6_2 C5_2 1_555 1_555
C7_2 C2_2 1_555 1_555
H3_2 C7_2 1_555 1_555
C8_2 C4_2 1_555 1_555
C9_2 C6_2 1_555 1_555
C10_2 C9_2 1_555 1_555
H4_2 C10_2 1_555 1_555
C11_2 C10_2 1_555 1_555
H5_2 C11_2 1_555 1_555
C12_2 C11_2 1_555 1_555
C13_2 C12_2 1_555 1_555
H6_2 C13_2 1_555 1_555
C14_2 C9_2 1_555 1_555
H7_2 C14_2 1_555 1_555
C15_2 C12_2 1_555 1_555
C16_2 C15_2 1_555 1_555
C17_2 C16_2 1_555 1_555
H8_2 C17_2 1_555 1_555
C18_2 C17_2 1_555 1_555
H9_2 C18_2 1_555 1_555
C19_2 C18_2 1_555 1_555
C20_2 C19_2 1_555 1_555
H10_2 C20_2 1_555 1_555
C21_2 C16_2 1_555 1_555
H11_2 C21_2 1_555 1_555
C22_2 C19_2 1_555 1_555
C23_2 C22_2 1_555 1_555
H12_2 C23_2 1_555 1_555
C27_2 C22_2 1_555 1_555
H14_2 C27_2 1_555 1_555
O11_2 Cd9 1_555 1_555
C30_2 O11_2 1_555 1_555
C6_2 C7_2 1_555 1_555
C13_2 C14_2 1_555 1_555
C20_2 C21_2 1_555 1_555

#END
