
###############################################################################
#
# This file contains modified crystal structure data generated from the
# MOF subset of the Cambridge Structural Database (CSD) v543 
# hosted by the Cambridge Crystallographic Data Centre (CCDC).
#
# This work is licensed under the Creative Commons
# Attribution-NonCommercial-ShareAlike 4.0 International License.
# To view a copy of this license, visit
# http://creativecommons.org/licenses/by-nc-sa/4.0/
# or send a letter to
# Creative Commons, PO Box 1866, Mountain View, CA 94042, USA.
#
# CIF created using the CSD Python API on 29 September 2022
# The structure has been converted into the P1 space group
# The structure has a 3D framework
# The original CSD entry IJOMOJ02 is in the monoclinic crystal system
# The framework has been calculated to contain at least 10.0% void space
# The void calculation uses a probe of radius 1.32A, grid spacing 0.4
#
###############################################################################

data_IJOMOJ02
_chemical_formula_moiety         '(C24 H24 Mn21 O46)n'
_symmetry_cell_setting           triclinic
_symmetry_space_group_name_H-M   'P 1'
_symmetry_Int_Tables_number      1
_space_group_name_Hall           'P 1'
loop_
_symmetry_equiv_pos_site_id
_symmetry_equiv_pos_as_xyz
1 x,y,z
_cell_length_a                   11.7203(12)
_cell_length_b                   10.2070(11)
_cell_length_c                   14.9556(15)
_cell_angle_alpha                90
_cell_angle_beta                 91.439(2)
_cell_angle_gamma                90
_cell_volume                     1788.56
loop_
_atom_site_label
_atom_site_type_symbol
_atom_site_fract_x
_atom_site_fract_y
_atom_site_fract_z
Mn3 Mn 0.0000 -0.0000 0.0000
Mn4 Mn 0.5000 -0.0000 0.0000
O1 O 0.3512(2) 0.0808(2) 0.19585(16)
O4 O 0.1859(2) 0.0290(2) 0.02059(16)
O6 O 0.12778(19) 0.0074(2) 0.21772(16)
O12 O 0.5124(2) 0.1094(3) 0.12303(19)
C1 C 0.4481(3) 0.1313(4) 0.1843(3)
H1 H 0.4735 0.1924 0.2274
C5 C 0.0206(3) 0.0144(4) 0.2095(2)
Mn9 Mn 0.23978(4) 0.10714(5) 0.31304(3)
Mn3_2 Mn 0.0000 -0.0000 1.0000
Mn4_2 Mn 0.5000 -0.0000 1.0000
O11 O 0.3464(2) 0.1053(3) 0.9648(2)
C6 C 0.2422(3) 0.1001(4) 0.9676(2)
H6 H 0.2003 0.1530 0.9272
Mn7 Mn 0.74315(4) 0.07935(4) 0.86888(3)
Mn12 Mn 0.73978(4) 0.39286(5) 0.81304(3)
O25 O 0.5992(2) 0.1587(2) 0.93837(16)
O28 O 0.6074(2) 0.3722(2) 0.90578(18)
O30 O 0.0357(2) 0.0016(3) 0.85901(18)
C8 C 0.5673(3) 0.2774(4) 0.9448(3)
H8 H 0.5068 0.2944 0.9832
Mn1 Mn 0.25685(4) 0.92065(4) 0.13112(3)
Mn2 Mn 0.26022(4) 0.60714(5) 0.18696(3)
Mn3_3 Mn 0.0000 1.0000 0.0000
Mn4_3 Mn 0.5000 1.0000 0.0000
O2 O 0.3156(2) 0.9340(2) 0.36588(16)
O3 O 0.1542(2) 0.7423(2) 0.10734(15)
O5 O 0.3048(2) 0.7995(2) 0.24826(15)
O7 O 0.4008(2) 0.8413(2) 0.06163(16)
O8 O 0.0211(2) 0.7903(3) 0.00299(19)
O9 O 0.3926(2) 0.6278(2) 0.09422(18)
C2 C 0.4327(3) 0.7226(4) 0.0552(3)
H2 H 0.4932 0.7056 0.0168
C3 C 0.3289(3) 0.8266(3) 0.3291(2)
H3 H 0.3598 0.7588 0.3646
C4 C 0.0776(3) 0.7132(3) 0.0489(3)
H4 H 0.0628 0.6235 0.0400
Mn6 Mn 0.24315(4) 0.42065(4) 0.36888(3)
Mn14 Mn -0.0000 0.5000 0.5000
O13 O 0.1488(2) 0.5808(2) 0.30415(16)
O16 O 0.1844(2) 0.4340(2) 0.13412(16)
O20 O 0.1952(2) 0.2995(2) 0.25174(15)
O23 O 0.37222(19) 0.5074(2) 0.28228(16)
O32 O 0.6536(2) 0.8947(3) 0.0352(2)
C7 C 0.0519(3) 0.6313(4) 0.3157(3)
H7 H 0.0265 0.6924 0.2726
C9 C 0.1711(3) 0.3266(3) 0.1709(2)
H9 H 0.1402 0.2588 0.1354
Mn3_4 Mn -0.0000 1.0000 1.0000
Mn4_4 Mn 0.5000 1.0000 1.0000
O34 O 0.4876(2) 0.8906(3) 0.87697(19)
H11 H 0.0197 0.9662 0.7385
Mn3_5 Mn 1.0000 -0.0000 0.0000
H5 H 0.9803 0.0338 0.2615
Mn3_6 Mn 1.0000 -0.0000 1.0000
O15 O 0.8512(2) 0.4192(2) 0.69585(16)
O17 O 0.8156(2) 0.5660(2) 0.86588(16)
O18 O 0.8458(2) 0.2577(2) 0.89266(15)
O21 O 0.6952(2) 0.2005(2) 0.75174(15)
O24 O 0.62778(19) 0.4926(2) 0.71772(16)
O27 O 0.9789(2) 0.2097(3) 0.99701(19)
C10 C 0.9224(3) 0.2868(3) 0.9511(3)
H10 H 0.9372 0.3765 0.9600
Mn3_7 Mn 1.0000 1.0000 0.0000
O10 O 0.9643(2) 0.9984(3) 0.14099(18)
Mn14_2 Mn 1.0000 0.5000 0.5000
O33 O 0.9876(2) 0.6094(3) 0.37697(19)
C12 C 0.7578(3) 0.8999(4) 0.0324(2)
H12 H 0.7997 0.8470 0.0728
Mn3_8 Mn 1.0000 1.0000 1.0000
Mn10 Mn 0.76022(4) 0.89286(5) 0.68696(3)
O14 O 0.6488(2) 0.9192(2) 0.80415(16)
O19 O 0.8141(2) 0.9710(2) 0.97941(16)
O22 O 0.87222(19) 0.9926(2) 0.78228(16)
C11 C 0.9794(3) 0.9856(4) 0.7905(2)
O17_2 O 0.6844(2) 0.0660(2) 0.63412(16)
Mn3_9 Mn 0.5000 0.5000 0.5000
O3_2 O 0.3458(2) 0.2423(2) 0.39266(15)
O4_2 O 0.3141(2) 0.5290(2) 0.47941(16)
O7_2 O 0.0992(2) 0.3413(2) 0.43837(16)
O8_2 O 0.4789(2) 0.2903(3) 0.49701(19)
O9_2 O 0.1074(2) 0.1278(2) 0.40578(18)
O10_2 O 0.5357(2) 0.4984(3) 0.35901(18)
O11_2 O 0.1536(2) 0.6053(3) 0.5352(2)
C2_2 C 0.0673(3) 0.2226(4) 0.4448(3)
H2_2 H 0.0068 0.2056 0.4832
C4_2 C 0.4224(3) 0.2132(3) 0.4511(3)
H4_2 H 0.4372 0.1235 0.4600
C5_2 C 0.4794(3) 0.5144(4) 0.2905(2)
H5_2 H 0.5197 0.5338 0.2385
C6_2 C 0.2578(3) 0.6001(4) 0.5324(2)
H6_2 H 0.2997 0.6530 0.5728
Mn5 Mn 0.75685(4) 0.57935(4) 0.63112(3)
O18_2 O 0.6542(2) 0.7577(2) 0.60734(15)
O19_2 O 0.6859(2) 0.4710(2) 0.52059(16)
O21_2 O 0.8048(2) 0.7005(2) 0.74826(15)
O26 O 0.9008(2) 0.6587(2) 0.56163(16)
O27_2 O 0.5211(2) 0.7097(3) 0.50299(19)
O29 O 0.8926(2) 0.8722(2) 0.59422(18)
O30_2 O 0.4643(2) 0.5016(3) 0.64099(18)
O31 O 0.8464(2) 0.3947(3) 0.4648(2)
O34_2 O 0.0124(2) 0.3906(3) 0.62303(19)
C10_2 C 0.5776(3) 0.7868(3) 0.5489(3)
H10_2 H 0.5628 0.8765 0.5400
C11_2 C 0.5206(3) 0.4856(4) 0.7095(2)
H11_2 H 0.4803 0.4662 0.7615
C12_2 C 0.7422(3) 0.3999(4) 0.4676(2)
H12_2 H 0.7003 0.3470 0.4272
C8_2 C 0.9327(3) 0.7774(4) 0.5552(3)
H8_2 H 0.9932 0.7944 0.5168
C3_2 C 0.6711(3) 0.1734(3) 0.6709(2)
H3_2 H 0.6402 0.2412 0.6354
C7_2 C 0.9481(3) 0.3687(4) 0.6843(3)
H7_2 H 0.9735 0.3076 0.7274
C9_2 C 0.8289(3) 0.6734(3) 0.8291(2)
H9_2 H 0.8598 0.7412 0.8646
C1_2 C 0.5519(3) 0.8687(4) 0.8157(3)
H1_2 H 0.5265 0.8076 0.7726
loop_
_geom_bond_atom_site_label_1
_geom_bond_atom_site_label_2
_geom_bond_site_symmetry_1
_geom_bond_site_symmetry_2
Mn3 O4 1_555 1_555
O1 C1 1_555 1_555
O12 Mn4 1_555 1_555
C1 O12 1_555 1_555
H1 C1 1_555 1_555
C5 O6 1_555 1_555
Mn9 O1 1_555 1_555
O6 Mn9 1_555 1_555
O11 Mn4_2 1_555 1_555
H6 C6 1_555 1_555
Mn7 O25 1_555 1_555
Mn12 O28 1_555 1_555
O25 Mn4_2 1_555 1_555
O28 C8 1_555 1_555
O30 Mn3_2 1_555 1_555
C8 O25 1_555 1_555
H8 C8 1_555 1_555
O11 C6 1_555 1_555
Mn2 O3 1_555 1_555
Mn4_3 O7 1_555 1_555
O2 C3 1_555 1_555
O3 Mn1 1_555 1_555
O5 Mn1 1_555 1_555
O7 Mn1 1_555 1_555
O8 Mn3_3 1_555 1_555
O9 Mn2 1_555 1_555
C2 O7 1_555 1_555
H2 C2 1_555 1_555
C3 O5 1_555 1_555
H3 C3 1_555 1_555
C4 O3 1_555 1_555
H4 C4 1_555 1_555
Mn6 O13 1_555 1_555
Mn9 O20 1_555 1_555
O13 Mn2 1_555 1_555
O16 Mn2 1_555 1_555
O20 Mn6 1_555 1_555
O23 Mn2 1_555 1_555
O32 Mn4_3 1_555 1_555
C7 O13 1_555 1_555
H7 C7 1_555 1_555
C9 O16 1_555 1_555
H9 C9 1_555 1_555
Mn2 O5 1_555 1_555
O8 C4 1_555 1_555
O9 C2 1_555 1_555
Mn6 O23 1_555 1_555
O20 C9 1_555 1_555
O34 Mn4_4 1_555 1_555
Mn12 O15 1_555 1_555
O17 Mn12 1_555 1_555
O18 Mn7 1_555 1_555
O21 Mn7 1_555 1_555
O24 Mn12 1_555 1_555
O27 Mn3_6 1_555 1_555
C10 O18 1_555 1_555
H10 C10 1_555 1_555
Mn12 O18 1_555 1_555
Mn12 O21 1_555 1_555
O27 C10 1_555 1_555
O10 Mn3_7 1_555 1_555
Mn14_2 O33 1_555 1_555
H12 C12 1_555 1_555
O32 C12 1_555 1_555
Mn10 O14 1_555 1_555
O19 Mn3_8 1_555 1_555
C11 O22 1_555 1_555
Mn10 O22 1_555 1_555
Mn9 O3_2 1_555 1_555
Mn3_9 O4_2 1_555 1_555
Mn14 O7_2 1_555 1_555
O3_2 Mn6 1_555 1_555
O4_2 Mn6 1_555 1_555
O7_2 Mn6 1_555 1_555
O8_2 Mn3_9 1_555 1_555
O9_2 Mn9 1_555 1_555
O10_2 Mn3_9 1_555 1_555
O11_2 Mn14 1_555 1_555
C2_2 O7_2 1_555 1_555
H2_2 C2_2 1_555 1_555
C4_2 O3_2 1_555 1_555
H4_2 C4_2 1_555 1_555
C5_2 O23 1_555 1_555
H5_2 C5_2 1_555 1_555
C6_2 O4_2 1_555 1_555
H6_2 C6_2 1_555 1_555
Mn5 O15 1_555 1_555
Mn14_2 O26 1_555 1_555
O18_2 Mn5 1_555 1_555
O19_2 Mn3_9 1_555 1_555
O21_2 Mn5 1_555 1_555
O24 Mn5 1_555 1_555
O26 Mn5 1_555 1_555
O27_2 Mn3_9 1_555 1_555
O29 Mn10 1_555 1_555
O30_2 Mn3_9 1_555 1_555
O31 Mn14_2 1_555 1_555
O34_2 Mn14 1_555 1_555
C10_2 O18_2 1_555 1_555
H10_2 C10_2 1_555 1_555
C11_2 O24 1_555 1_555
H11_2 C11_2 1_555 1_555
C12_2 O19_2 1_555 1_555
H12_2 C12_2 1_555 1_555
O8_2 C4_2 1_555 1_555
O9_2 C2_2 1_555 1_555
O10_2 C5_2 1_555 1_555
O11_2 C6_2 1_555 1_555
Mn5 O19_2 1_555 1_555
Mn10 O18_2 1_555 1_555
Mn10 O21_2 1_555 1_555
O27_2 C10_2 1_555 1_555
O30_2 C11_2 1_555 1_555
O31 C12_2 1_555 1_555
O29 C8_2 1_555 1_555
C8_2 O26 1_555 1_555
H8_2 C8_2 1_555 1_555
O17_2 C3_2 1_555 1_555
C3_2 O21 1_555 1_555
H3_2 C3_2 1_555 1_555
C7_2 O15 1_555 1_555
H7_2 C7_2 1_555 1_555
C9_2 O17 1_555 1_555
H9_2 C9_2 1_555 1_555
O21_2 C9_2 1_555 1_555
O14 C1_2 1_555 1_555
C1_2 O34 1_555 1_555
H1_2 C1_2 1_555 1_555

#END
