
###############################################################################
#
# This file contains modified crystal structure data generated from the
# MOF subset of the Cambridge Structural Database (CSD) v543 
# hosted by the Cambridge Crystallographic Data Centre (CCDC).
#
# This work is licensed under the Creative Commons
# Attribution-NonCommercial-ShareAlike 4.0 International License.
# To view a copy of this license, visit
# http://creativecommons.org/licenses/by-nc-sa/4.0/
# or send a letter to
# Creative Commons, PO Box 1866, Mountain View, CA 94042, USA.
#
# CIF created using the CSD Python API on 29 September 2022
# The structure has been converted into the P1 space group
# The structure has a 3D framework
# The original CSD entry IJOQEG is in the monoclinic crystal system
# The framework has been calculated to contain at least 10.0% void space
# The void calculation uses a probe of radius 1.32A, grid spacing 0.4
#
###############################################################################

data_IJOQEG
_chemical_formula_moiety         '(C84 H44 Ce3 O24)n'
_symmetry_cell_setting           triclinic
_symmetry_space_group_name_H-M   'P 1'
_symmetry_Int_Tables_number      1
_space_group_name_Hall           'P 1'
loop_
_symmetry_equiv_pos_site_id
_symmetry_equiv_pos_as_xyz
1 x,y,z
_cell_length_a                   18.4509(3)
_cell_length_b                   13.7416(3)
_cell_length_c                   8.04450(10)
_cell_angle_alpha                90
_cell_angle_beta                 92.370(2)
_cell_angle_gamma                90
_cell_volume                     2037.9
loop_
_atom_site_label
_atom_site_type_symbol
_atom_site_fract_x
_atom_site_fract_y
_atom_site_fract_z
Ce2 Ce 0.55279(5) 0.01701(2) 0.37810(6)
O2 O 0.5437(3) 0.8134(5) 0.7734(8)
O3 O 0.5934(3) 0.1656(5) 0.8331(8)
O4 O 0.5145(3) 0.1066(5) 0.6452(8)
C1 C 0.5479(4) 0.1792(6) 0.7147(11)
C2 C 0.4900(4) 0.6491(7) 0.6043(10)
H1 H 0.529254 0.641017 0.679462
C3 C 0.5461(5) 0.4528(8) 0.6703(11)
H2 H 0.573019 0.506307 0.707528
O5 O 0.4944(3) 0.9110(5) 0.5808(8)
C4 C 0.3919(5) 0.5798(6) 0.4310(10)
C5 C 0.4667(5) 0.7417(7) 0.5621(10)
C6 C 0.4074(5) 0.7548(6) 0.4523(11)
H3 H 0.393053 0.817209 0.420440
C7 C 0.4435(5) 0.3866(7) 0.5067(11)
C8 C 0.2859(6) 0.5081(7) 0.2747(15)
H4 H 0.267434 0.570311 0.256809
C9 C 0.3383(5) 0.3208(7) 0.3325(11)
H5 H 0.354683 0.257932 0.354190
C10 C 0.5696(5) 0.3604(7) 0.7146(11)
H6 H 0.611435 0.351841 0.781402
C11 C 0.3777(6) 0.4000(8) 0.4007(12)
C12 C 0.5042(4) 0.8267(7) 0.6432(11)
C13 C 0.4680(5) 0.2941(7) 0.5498(11)
H7 H 0.443127 0.240284 0.506458
C14 C 0.3704(5) 0.6765(7) 0.3918(11)
H8 H 0.329593 0.686382 0.322253
O6 O 0.1403(5) 0.5173(4) 0.1379(11)
C15 C 0.1812(4) 0.4431(7) 0.1059(10)
C16 C 0.4549(5) 0.5668(7) 0.5346(12)
C17 C 0.2767(4) 0.3337(7) 0.2358(10)
H9 H 0.253174 0.280310 0.187403
C18 C 0.5289(5) 0.2792(7) 0.6566(11)
C19 C 0.4831(6) 0.4682(7) 0.5714(13)
C20 C 0.3502(6) 0.4954(7) 0.3663(13)
C21 C 0.2489(5) 0.4277(7) 0.2091(10)
O7 O 0.4152(4) 0.0515(5) 0.3703(8)
H10 H 0.395810 0.036070 0.466337
H11 H 0.391558 0.012691 0.297991
Ce4 Ce 0.55279(5) 0.98299(2) 0.87810(6)
Ce5 Ce 0.05279(5) 0.51701(2) 0.37810(6)
O8 O 0.6636(3) 0.1139(5) 0.4886(8)
O9 O 0.5437(3) 0.1866(5) 0.2734(8)
O13 O 0.4944(3) 0.0890(5) 0.0808(8)
O14 O 0.6403(5) 0.0173(4) 0.1379(11)
O1 O 0.1636(3) 0.3861(5) 0.9886(8)
Ce6 Ce 0.05279(5) 0.48299(2) 0.87810(6)
O10 O 0.5934(3) 0.8344(5) 0.3331(8)
O11 O 0.5145(3) 0.8934(5) 0.1452(8)
O15 O 0.6403(5) 0.9827(4) 0.6379(11)
C1_2 C 0.5479(4) 0.8208(6) 0.2147(11)
C2_2 C 0.4900(4) 0.3509(7) 0.1043(10)
H1_2 H 0.529254 0.358983 0.179462
C3_2 C 0.5461(5) 0.5472(8) 0.1703(11)
H2_2 H 0.573019 0.493693 0.207528
C5_2 C 0.4667(5) 0.2583(7) 0.0621(10)
C7_2 C 0.4435(5) 0.6134(7) 0.0067(11)
C10_2 C 0.5696(5) 0.6396(7) 0.2146(11)
H6_2 H 0.611435 0.648159 0.281402
C12_2 C 0.5042(4) 0.1733(7) 0.1432(11)
C13_2 C 0.4680(5) 0.7059(7) 0.0498(11)
H7_2 H 0.443127 0.759716 0.006458
C16_2 C 0.4549(5) 0.4332(7) 0.0346(12)
C18_2 C 0.5289(5) 0.7208(7) 0.1566(11)
C19_2 C 0.4831(6) 0.5318(7) 0.0714(13)
O1_2 O 0.1636(3) 0.6139(5) 0.4886(8)
C4_2 C 0.3919(5) 0.4202(6) 0.9310(10)
C6_2 C 0.4074(5) 0.2452(6) 0.9523(11)
H3_2 H 0.393053 0.182791 0.920440
C8_2 C 0.2859(6) 0.4919(7) 0.7747(15)
H4_2 H 0.267434 0.429689 0.756809
C9_2 C 0.3383(5) 0.6792(7) 0.8325(11)
H5_2 H 0.354683 0.742068 0.854190
C11_2 C 0.3777(6) 0.6000(8) 0.9007(12)
C14_2 C 0.3704(5) 0.3235(7) 0.8918(11)
H8_2 H 0.329593 0.313618 0.822253
O6_2 O 0.1403(5) 0.4827(4) 0.6379(11)
C15_2 C 0.1812(4) 0.5569(7) 0.6059(10)
C17_2 C 0.2767(4) 0.6663(7) 0.7358(10)
H9_2 H 0.253174 0.719690 0.687403
C20_2 C 0.3502(6) 0.5046(7) 0.8663(13)
C21_2 C 0.2489(5) 0.5723(7) 0.7091(10)
O7_2 O 0.4152(4) 0.9485(5) 0.8703(8)
H10_2 H 0.395810 0.963930 0.966337
H11_2 H 0.391558 0.987309 0.797991
O8_2 O 0.6636(3) 0.8861(5) 0.9886(8)
O2_2 O 0.0437(3) 0.3134(5) 0.7734(8)
H1_3 H 0.029254 0.141017 0.679462
H2_3 H 0.073019 0.006307 0.707528
C12_3 C 0.0042(4) 0.3267(7) 0.6432(11)
O3_2 O 0.0934(3) 0.6656(5) 0.8331(8)
O4_2 O 0.0145(3) 0.6066(5) 0.6452(8)
C1_3 C 0.0479(4) 0.6792(6) 0.7147(11)
C3_3 C 0.0461(5) 0.9528(8) 0.6703(11)
C10_3 C 0.0696(5) 0.8604(7) 0.7146(11)
H6_3 H 0.111435 0.851841 0.781402
C18_3 C 0.0289(5) 0.7792(7) 0.6566(11)
O9_2 O 0.0437(3) 0.6866(5) 0.2734(8)
O10_2 O 0.0934(3) 0.3344(5) 0.3331(8)
O11_2 O 0.0145(3) 0.3934(5) 0.1452(8)
C2_3 C 0.9900(4) 0.1491(7) 0.6043(10)
O5_2 O 0.9944(3) 0.4110(5) 0.5808(8)
C4_3 C 0.8919(5) 0.0798(6) 0.4310(10)
C5_3 C 0.9667(5) 0.2417(7) 0.5621(10)
C6_3 C 0.9074(5) 0.2548(6) 0.4523(11)
H3_3 H 0.893053 0.317209 0.420440
C8_3 C 0.7859(6) 0.0081(7) 0.2747(15)
H4_3 H 0.767434 0.070311 0.256809
C14_3 C 0.8704(5) 0.1765(7) 0.3918(11)
H8_3 H 0.829593 0.186382 0.322253
C16_3 C 0.9549(5) 0.0668(7) 0.5346(12)
C7_3 C 0.9435(5) 0.8866(7) 0.5067(11)
C9_3 C 0.8383(5) 0.8208(7) 0.3325(11)
H5_3 H 0.854683 0.757932 0.354190
C11_3 C 0.8777(6) 0.9000(8) 0.4007(12)
C13_3 C 0.9680(5) 0.7941(7) 0.5498(11)
H7_3 H 0.943127 0.740284 0.506458
C15_3 C 0.6812(4) 0.9431(7) 0.1059(10)
C17_3 C 0.7767(4) 0.8337(7) 0.2358(10)
H9_3 H 0.753174 0.780310 0.187403
C19_3 C 0.9831(6) 0.9682(7) 0.5714(13)
C20_3 C 0.8502(6) 0.9954(7) 0.3663(13)
C21_3 C 0.7489(5) 0.9277(7) 0.2091(10)
O7_3 O 0.9152(4) 0.5515(5) 0.3703(8)
H10_3 H 0.895810 0.536070 0.466337
H11_3 H 0.891558 0.512691 0.297991
O13_2 O 0.9944(3) 0.5890(5) 0.0808(8)
C1_4 C 0.0479(4) 0.3208(6) 0.2147(11)
C3_4 C 0.0461(5) 0.0472(8) 0.1703(11)
C10_4 C 0.0696(5) 0.1396(7) 0.2146(11)
H6_4 H 0.111435 0.148159 0.281402
C18_4 C 0.0289(5) 0.2208(7) 0.1566(11)
H1_4 H 0.029254 0.858983 0.179462
H2_4 H 0.073019 0.993693 0.207528
C12_4 C 0.0042(4) 0.6733(7) 0.1432(11)
C7_4 C 0.9435(5) 0.1134(7) 0.0067(11)
C13_4 C 0.9680(5) 0.2059(7) 0.0498(11)
H7_4 H 0.943127 0.259716 0.006458
C19_4 C 0.9831(6) 0.0318(7) 0.0714(13)
C9_4 C 0.8383(5) 0.1792(7) 0.8325(11)
H5_4 H 0.854683 0.242068 0.854190
C11_4 C 0.8777(6) 0.1000(8) 0.9007(12)
C15_4 C 0.6812(4) 0.0569(7) 0.6059(10)
C17_4 C 0.7767(4) 0.1663(7) 0.7358(10)
H9_4 H 0.753174 0.219690 0.687403
C20_4 C 0.8502(6) 0.0046(7) 0.8663(13)
C21_4 C 0.7489(5) 0.0723(7) 0.7091(10)
O7_4 O 0.9152(4) 0.4485(5) 0.8703(8)
H10_4 H 0.895810 0.463930 0.966337
H11_4 H 0.891558 0.487309 0.797991
C2_4 C 0.9900(4) 0.8509(7) 0.1043(10)
C5_4 C 0.9667(5) 0.7583(7) 0.0621(10)
C16_4 C 0.9549(5) 0.9332(7) 0.0346(12)
C4_4 C 0.8919(5) 0.9202(6) 0.9310(10)
C6_4 C 0.9074(5) 0.7452(6) 0.9523(11)
H3_4 H 0.893053 0.682791 0.920440
C8_4 C 0.7859(6) 0.9919(7) 0.7747(15)
H4_4 H 0.767434 0.929689 0.756809
C14_4 C 0.8704(5) 0.8235(7) 0.8918(11)
H8_4 H 0.829593 0.813618 0.822253
loop_
_geom_bond_atom_site_label_1
_geom_bond_atom_site_label_2
_geom_bond_site_symmetry_1
_geom_bond_site_symmetry_2
Ce2 O4 1_555 1_555
O2 C12 1_555 1_555
O3 C1 1_555 1_555
O4 C1 1_555 1_555
C1 C18 1_555 1_555
C2 H1 1_555 1_555
C3 H2 1_555 1_555
O5 C12 1_555 1_555
C4 C14 1_555 1_555
C5 C2 1_555 1_555
C6 C5 1_555 1_555
H3 C6 1_555 1_555
C7 C11 1_555 1_555
C8 H4 1_555 1_555
C9 H5 1_555 1_555
C10 C3 1_555 1_555
H6 C10 1_555 1_555
C11 C9 1_555 1_555
C12 C5 1_555 1_555
C13 C7 1_555 1_555
H7 C13 1_555 1_555
C14 C6 1_555 1_555
H8 C14 1_555 1_555
O6 C15 1_555 1_555
C15 C21 1_555 1_555
C16 C2 1_555 1_555
C17 C9 1_555 1_555
H9 C17 1_555 1_555
C18 C10 1_555 1_555
C19 C3 1_555 1_555
C20 C4 1_555 1_555
C21 C8 1_555 1_555
O7 Ce2 1_555 1_555
H10 O7 1_555 1_555
H11 O7 1_555 1_555
Ce4 O2 1_555 1_555
Ce5 O6 1_555 1_555
O8 Ce2 1_555 1_555
O9 Ce2 1_555 1_555
O13 Ce2 1_555 1_555
O14 Ce2 1_555 1_555
O5 Ce4 1_555 1_555
C4 C16 1_555 1_555
C7 C19 1_555 1_555
C8 C20 1_555 1_555
C11 C20 1_555 1_555
C13 C18 1_555 1_555
C16 C19 1_555 1_555
C17 C21 1_555 1_555
Ce6 O1 1_555 1_555
Ce4 O15 1_555 1_555
O9 C12_2 1_555 1_555
O10 C1_2 1_555 1_555
O11 C1_2 1_555 1_555
C1_2 C18_2 1_555 1_555
C2_2 H1_2 1_555 1_555
C3_2 H2_2 1_555 1_555
O13 C12_2 1_555 1_555
C5_2 C2_2 1_555 1_555
C10_2 C3_2 1_555 1_555
H6_2 C10_2 1_555 1_555
C12_2 C5_2 1_555 1_555
C13_2 C7_2 1_555 1_555
H7_2 C13_2 1_555 1_555
C16_2 C2_2 1_555 1_555
C18_2 C10_2 1_555 1_555
C19_2 C3_2 1_555 1_555
C7_2 C19_2 1_555 1_555
C13_2 C18_2 1_555 1_555
C16_2 C19_2 1_555 1_555
O1_2 C15_2 1_555 1_555
C4_2 C14_2 1_555 1_555
H3_2 C6_2 1_555 1_555
C8_2 H4_2 1_555 1_555
C9_2 H5_2 1_555 1_555
C11_2 C9_2 1_555 1_555
C14_2 C6_2 1_555 1_555
H8_2 C14_2 1_555 1_555
O6_2 C15_2 1_555 1_555
C15_2 C21_2 1_555 1_555
C17_2 C9_2 1_555 1_555
H9_2 C17_2 1_555 1_555
C20_2 C4_2 1_555 1_555
C21_2 C8_2 1_555 1_555
O7_2 Ce4 1_555 1_555
H10_2 O7_2 1_555 1_555
H11_2 O7_2 1_555 1_555
Ce6 O6_2 1_555 1_555
Ce5 O1_2 1_555 1_555
O8_2 Ce4 1_555 1_555
C8_2 C20_2 1_555 1_555
C11_2 C20_2 1_555 1_555
O6_2 Ce5 1_555 1_555
C17_2 C21_2 1_555 1_555
O2_2 C12_3 1_555 1_555
Ce6 O2_2 1_555 1_555
Ce5 O4_2 1_555 1_555
O3_2 C1_3 1_555 1_555
O4_2 C1_3 1_555 1_555
C1_3 C18_3 1_555 1_555
C10_3 C3_3 1_555 1_555
H6_3 C10_3 1_555 1_555
C18_3 C10_3 1_555 1_555
Ce6 O3_2 1_555 1_555
O9_2 Ce5 1_555 1_555
O10_2 Ce5 1_555 1_555
O11_2 Ce5 1_555 1_555
O4_2 Ce6 1_555 1_555
C4_3 C14_3 1_555 1_555
C5_3 C2_3 1_555 1_555
C6_3 C5_3 1_555 1_555
H3_3 C6_3 1_555 1_555
C8_3 H4_3 1_555 1_555
C14_3 C6_3 1_555 1_555
H8_3 C14_3 1_555 1_555
C16_3 C2_3 1_555 1_555
C4_3 C16_3 1_555 1_555
C7_3 C11_3 1_555 1_555
C9_3 H5_3 1_555 1_555
C11_3 C9_3 1_555 1_555
C13_3 C7_3 1_555 1_555
H7_3 C13_3 1_555 1_555
C15_3 C21_3 1_555 1_555
C17_3 C9_3 1_555 1_555
H9_3 C17_3 1_555 1_555
H10_3 O7_3 1_555 1_555
H11_3 O7_3 1_555 1_555
C7_3 C19_3 1_555 1_555
C11_3 C20_3 1_555 1_555
C17_3 C21_3 1_555 1_555
O10_2 C1_4 1_555 1_555
O11_2 C1_4 1_555 1_555
C1_4 C18_4 1_555 1_555
C10_4 C3_4 1_555 1_555
H6_4 C10_4 1_555 1_555
C18_4 C10_4 1_555 1_555
O9_2 C12_4 1_555 1_555
C13_4 C7_4 1_555 1_555
H7_4 C13_4 1_555 1_555
C7_4 C19_4 1_555 1_555
O8 C15_4 1_555 1_555
C9_4 H5_4 1_555 1_555
C11_4 C9_4 1_555 1_555
C15_4 C21_4 1_555 1_555
C17_4 C9_4 1_555 1_555
H9_4 C17_4 1_555 1_555
H10_4 O7_4 1_555 1_555
H11_4 O7_4 1_555 1_555
C11_4 C20_4 1_555 1_555
C17_4 C21_4 1_555 1_555
C5_4 C2_4 1_555 1_555
C16_4 C2_4 1_555 1_555
C4_4 C14_4 1_555 1_555
H3_4 C6_4 1_555 1_555
C8_4 H4_4 1_555 1_555
C14_4 C6_4 1_555 1_555
H8_4 C14_4 1_555 1_555

#END
