
###############################################################################
#
# This file contains modified crystal structure data generated from the
# MOF subset of the Cambridge Structural Database (CSD) v543 
# hosted by the Cambridge Crystallographic Data Centre (CCDC).
#
# This work is licensed under the Creative Commons
# Attribution-NonCommercial-ShareAlike 4.0 International License.
# To view a copy of this license, visit
# http://creativecommons.org/licenses/by-nc-sa/4.0/
# or send a letter to
# Creative Commons, PO Box 1866, Mountain View, CA 94042, USA.
#
# CIF created using the CSD Python API on 29 September 2022
# The structure has been converted into the P1 space group
# The structure has a 3D framework
# The original CSD entry IKEVEC is in the triclinic crystal system
# The framework has been calculated to contain at least 10.0% void space
# The void calculation uses a probe of radius 1.32A, grid spacing 0.4
#
###############################################################################

data_IKEVEC
_chemical_formula_moiety         '(C32 H10 Br8 Li1 O16 Zn2)n'
_symmetry_cell_setting           triclinic
_symmetry_space_group_name_H-M   'P 1'
_symmetry_Int_Tables_number      1
_space_group_name_Hall           'P 1'
loop_
_symmetry_equiv_pos_site_id
_symmetry_equiv_pos_as_xyz
1 x,y,z
_cell_length_a                   9.675(5)
_cell_length_b                   12.346(3)
_cell_length_c                   12.523(2)
_cell_angle_alpha                80.897(16)
_cell_angle_beta                 71.847(16)
_cell_angle_gamma                70.278(16)
_cell_volume                     1335.66
loop_
_atom_site_label
_atom_site_type_symbol
_atom_site_fract_x
_atom_site_fract_y
_atom_site_fract_z
_atom_site_U_iso_or_equiv
_atom_site_thermal_displace_type
C27 C 0.1159(7) 0.0485(5) 0.4596(5) 0.0227 Uani
Br7 Br 0.26516(7) 0.12854(6) 0.40614(6) 0.0273 Uani
C12 C 0.0216(7) 0.8987(5) 0.5658(5) 0.0235 Uani
H4 H 0.034269 0.829120 0.611875 0.0280 Uiso
O13 O 0.2632(5) 0.8318(4) 0.6550(4) 0.0256 Uani
O14 O 0.4132(5) 0.8746(5) 0.4904(4) 0.0360 Uani
H8 H 0.482(7) 0.886(8) 0.433(4) 0.0430 Uiso
C25 C 0.2887(7) 0.8798(5) 0.5565(5) 0.0245 Uani
C26 C 0.1417(7) 0.9453(5) 0.5254(5) 0.0225 Uani
Zn6 Zn 0.40910(7) 0.72801(6) 0.72989(5) 0.0203 Uani
Zn1 Zn 0.59090(7) 0.27199(6) 0.27011(5) 0.0203 Uani
Li1 Li 0.4231(12) 0.4451(10) 0.0875(9) 0.0278 Uani
O1 O 0.4485(6) 0.2883(4) 0.0814(4) 0.0325 Uani
O2 O 0.5817(5) 0.1546(4) 0.1832(4) 0.0247 Uani
C1 C 0.5123(7) 0.1871(5) 0.1072(5) 0.0248 Uani
C2 C 0.5066(7) 0.0917(6) 0.0501(6) 0.0280 Uani
O3 O 0.3918(5) 0.3539(4) 0.3625(4) 0.0280 Uani
O4 O 0.3036(6) 0.4860(5) 0.2345(4) 0.0354 Uani
C5 C 0.2908(7) 0.4367(5) 0.3285(5) 0.0253 Uani
C6 C 0.1396(7) 0.4718(5) 0.4174(5) 0.0251 Uani
C7 C 0.0217(7) 0.4354(6) 0.4119(5) 0.0269 Uani
H2 H 0.035716 0.392048 0.350974 0.0320 Uiso
C8 C 0.1164(7) 0.5383(6) 0.5056(5) 0.0263 Uani
Br2 Br 0.27686(8) 0.58736(7) 0.51557(7) 0.0408 Uani
O5 O 0.7368(5) 0.1682(4) 0.3450(4) 0.0256 Uani
O6 O 0.5868(5) 0.1254(5) 0.5096(4) 0.0360 Uani
H3 H 0.518(7) 0.114(8) 0.567(4) 0.0430 Uiso
C9 C 0.7113(7) 0.1202(5) 0.4435(5) 0.0245 Uani
C10 C 0.8583(7) 0.0547(5) 0.4746(5) 0.0225 Uani
C28 C 0.9784(7) 0.1013(5) 0.4342(5) 0.0235 Uani
H9 H 0.965731 0.170880 0.388125 0.0280 Uiso
C31 C 0.0181(7) 0.3875(6) 0.0421(5) 0.0266 Uani
Br8 Br 0.05742(8) 0.22869(6) 0.09175(7) 0.0389 Uani
O23 O 0.6274(5) 0.4625(4) 0.0416(4) 0.0250 Uani
O24 O 0.7202(5) 0.3651(4) 0.1848(4) 0.0275 Uani
C4 C 0.5370(8) 0.0926(6) 0.9330(6) 0.0304 Uani
Br1 Br 0.59068(11) 0.21380(7) 0.83392(6) 0.0444 Uani
O7 O 0.3726(5) 0.5375(4) 0.9584(4) 0.0250 Uani
O8 O 0.2798(5) 0.6349(4) 0.8152(4) 0.0275 Uani
C13 C 0.2714(7) 0.5736(5) 0.9061(5) 0.0229 Uani
C14 C 0.1270(7) 0.5398(6) 0.9547(5) 0.0248 Uani
C19 C 0.5295(7) 0.0010(6) 0.8852(6) 0.0283 Uani
H6 H 0.549755 0.002668 0.805810 0.0330 Uiso
C32 C 0.1446(7) 0.4259(6) 0.9968(5) 0.0274 Uani
H10 H 0.243742 0.374373 0.994476 0.0330 Uiso
Li6 Li 0.5769(12) 0.5549(10) 0.9125(9) 0.0278 Uani
O18 O 0.4183(5) 0.8454(4) 0.8168(4) 0.0247 Uani
O19 O 0.6082(5) 0.6461(4) 0.6375(4) 0.0280 Uani
C3 C 0.4705(7) 0.9990(6) 0.1148(6) 0.0283 Uani
H1 H 0.450245 0.997332 0.194190 0.0330 Uiso
C11 C 0.8841(7) 0.9515(5) 0.5404(5) 0.0227 Uani
Br3 Br 0.73484(7) 0.87146(6) 0.59386(6) 0.0273 Uani
C20 C 0.4630(8) 0.9074(6) 0.0670(6) 0.0304 Uani
Br5 Br 0.40932(11) 0.78620(7) 0.16608(6) 0.0444 Uani
O9 O 0.5515(6) 0.7117(4) 0.9186(4) 0.0325 Uani
C17 C 0.4877(7) 0.8129(5) 0.8928(5) 0.0248 Uani
C18 C 0.4934(7) 0.9083(6) 0.9499(6) 0.0280 Uani
C16 C 0.8554(7) 0.5741(6) 0.0032(5) 0.0274 Uani
H5 H 0.756258 0.625627 0.005524 0.0330 Uiso
O12 O 0.6964(6) 0.5140(5) 0.7655(4) 0.0354 Uani
C21 C 0.7092(7) 0.5633(5) 0.6715(5) 0.0253 Uani
C22 C 0.8604(7) 0.5282(5) 0.5826(5) 0.0251 Uani
C23 C 0.9783(7) 0.5646(6) 0.5881(5) 0.0269 Uani
H7 H 0.964284 0.607952 0.649026 0.0320 Uiso
C24 C 0.8836(7) 0.4617(6) 0.4944(5) 0.0263 Uani
Br6 Br 0.72314(8) 0.41264(7) 0.48443(7) 0.0408 Uani
C29 C 0.7286(7) 0.4264(5) 0.0939(5) 0.0229 Uani
C30 C 0.8730(7) 0.4602(6) 0.0453(5) 0.0248 Uani
C15 C 0.9819(7) 0.6125(6) 0.9579(5) 0.0266 Uani
Br4 Br 0.94258(8) 0.77131(6) 0.90825(7) 0.0389 Uani
loop_
_atom_site_aniso_label
_atom_site_aniso_U_11
_atom_site_aniso_U_22
_atom_site_aniso_U_33
_atom_site_aniso_U_23
_atom_site_aniso_U_13
_atom_site_aniso_U_12
C27 0.02 0.028 0.023 0.003 -0.008 -0.011
Br7 0.0228 0.0301 0.0315 0.0117 -0.0111 -0.0142
C12 0.022 0.023 0.025 0.009 -0.011 -0.007
O13 0.023 0.031 0.022 0.0108 -0.0113 -0.0081
O14 0.024 0.043 0.035 0.015 -0.0077 -0.011
C25 0.023 0.024 0.031 0.007 -0.017 -0.008
C26 0.021 0.029 0.02 0.006 -0.008 -0.012
Zn6 0.0184 0.0241 0.019 0.0068 -0.0077 -0.0087
Zn1 0.0184 0.0241 0.019 0.0068 -0.0077 -0.0087
Li1 0.024 0.032 0.026 0.005 -0.01 -0.007
O1 0.041 0.024 0.039 0.008 -0.025 -0.01
O2 0.027 0.024 0.027 0.0052 -0.0158 -0.0083
C1 0.024 0.025 0.028 0.005 -0.009 -0.012
C2 0.029 0.03 0.028 0.002 -0.015 -0.008
O3 0.023 0.032 0.025 0.0078 -0.0061 -0.0081
O4 0.031 0.037 0.023 0.009 0 -0.003
C5 0.024 0.022 0.027 0.004 -0.007 -0.006
C6 0.025 0.024 0.022 0.006 -0.007 -0.005
C7 0.023 0.031 0.023 0.003 -0.007 -0.005
C8 0.022 0.028 0.023 0.007 -0.004 -0.006
Br2 0.0261 0.0447 0.0543 -0.0145 -0.0061 -0.0137
O5 0.023 0.031 0.022 0.0108 -0.0113 -0.0081
O6 0.024 0.043 0.035 0.015 -0.0077 -0.011
C9 0.023 0.024 0.031 0.007 -0.017 -0.008
C10 0.021 0.029 0.02 0.006 -0.008 -0.012
C28 0.022 0.023 0.025 0.009 -0.011 -0.007
C31 0.023 0.028 0.029 0.012 -0.012 -0.01
Br8 0.0262 0.0282 0.0605 0.0204 -0.016 -0.0126
O23 0.0201 0.034 0.024 0.0131 -0.0127 -0.0128
O24 0.024 0.037 0.025 0.0167 -0.0124 -0.017
C4 0.032 0.032 0.031 0.005 -0.014 -0.013
Br1 0.0726 0.0397 0.0314 0.0128 -0.0167 -0.035
O7 0.0201 0.034 0.024 0.0131 -0.0127 -0.0128
O8 0.024 0.037 0.025 0.0167 -0.0124 -0.017
C13 0.019 0.024 0.027 0.01 -0.011 -0.009
C14 0.018 0.032 0.023 0.01 -0.007 -0.01
C19 0.03 0.031 0.027 0.006 -0.012 -0.013
C32 0.021 0.033 0.028 0.011 -0.01 -0.011
Li6 0.024 0.032 0.026 0.005 -0.01 -0.007
O18 0.027 0.024 0.027 0.0052 -0.0158 -0.0083
O19 0.023 0.032 0.025 0.0078 -0.0061 -0.0081
C3 0.03 0.031 0.027 0.006 -0.012 -0.013
C11 0.02 0.028 0.023 0.003 -0.008 -0.011
Br3 0.0228 0.0301 0.0315 0.0117 -0.0111 -0.0142
C20 0.032 0.032 0.031 0.005 -0.014 -0.013
Br5 0.0726 0.0397 0.0314 0.0128 -0.0167 -0.035
O9 0.041 0.024 0.039 0.008 -0.025 -0.01
C17 0.024 0.025 0.028 0.005 -0.009 -0.012
C18 0.029 0.03 0.028 0.002 -0.015 -0.008
C16 0.021 0.033 0.028 0.011 -0.01 -0.011
O12 0.031 0.037 0.023 0.009 0 -0.003
C21 0.024 0.022 0.027 0.004 -0.007 -0.006
C22 0.025 0.024 0.022 0.006 -0.007 -0.005
C23 0.023 0.031 0.023 0.003 -0.007 -0.005
C24 0.022 0.028 0.023 0.007 -0.004 -0.006
Br6 0.0261 0.0447 0.0543 -0.0145 -0.0061 -0.0137
C29 0.019 0.024 0.027 0.01 -0.011 -0.009
C30 0.018 0.032 0.023 0.01 -0.007 -0.01
C15 0.023 0.028 0.029 0.012 -0.012 -0.01
Br4 0.0262 0.0282 0.0605 0.0204 -0.016 -0.0126
loop_
_geom_bond_atom_site_label_1
_geom_bond_atom_site_label_2
_geom_bond_site_symmetry_1
_geom_bond_site_symmetry_2
Br7 C27 1_555 1_555
H4 C12 1_555 1_555
O13 C25 1_555 1_555
O14 H8 1_555 1_555
C25 O14 1_555 1_555
C26 C12 1_555 1_555
Zn6 O13 1_555 1_555
C25 C26 1_555 1_555
Zn1 O2 1_555 1_555
Li1 O1 1_555 1_555
O1 C1 1_555 1_555
O2 C1 1_555 1_555
C1 C2 1_555 1_555
O3 Zn1 1_555 1_555
O4 Li1 1_555 1_555
C5 O3 1_555 1_555
C6 C5 1_555 1_555
C7 C6 1_555 1_555
H2 C7 1_555 1_555
C8 C6 1_555 1_555
Br2 C8 1_555 1_555
O5 Zn1 1_555 1_555
O6 H3 1_555 1_555
C9 O5 1_555 1_555
C10 C9 1_555 1_555
C28 C10 1_555 1_555
H9 C28 1_555 1_555
Br8 C31 1_555 1_555
O23 Li1 1_555 1_555
O24 Zn1 1_555 1_555
O4 C5 1_555 1_555
O6 C9 1_555 1_555
Br1 C4 1_555 1_555
O8 C13 1_555 1_555
C13 O7 1_555 1_555
C14 C13 1_555 1_555
C19 C4 1_555 1_555
H6 C19 1_555 1_555
C32 C14 1_555 1_555
H10 C32 1_555 1_555
Zn6 O8 1_555 1_555
Li6 O7 1_555 1_555
O18 Zn6 1_555 1_555
O19 Zn6 1_555 1_555
C3 H1 1_555 1_555
Br3 C11 1_555 1_555
C20 C3 1_555 1_555
Br5 C20 1_555 1_555
O9 C17 1_555 1_555
O18 C17 1_555 1_555
C17 C18 1_555 1_555
Li6 O9 1_555 1_555
H5 C16 1_555 1_555
O19 C21 1_555 1_555
O12 C21 1_555 1_555
C21 C22 1_555 1_555
C22 C23 1_555 1_555
H7 C23 1_555 1_555
Br6 C24 1_555 1_555
O23 C29 1_555 1_555
O24 C29 1_555 1_555
C29 C30 1_555 1_555
C30 C16 1_555 1_555
Li6 O12 1_555 1_555
C22 C24 1_555 1_555
Br4 C15 1_555 1_555

#END
