
###############################################################################
#
# This file contains modified crystal structure data generated from the
# MOF subset of the Cambridge Structural Database (CSD) v543 
# hosted by the Cambridge Crystallographic Data Centre (CCDC).
#
# This work is licensed under the Creative Commons
# Attribution-NonCommercial-ShareAlike 4.0 International License.
# To view a copy of this license, visit
# http://creativecommons.org/licenses/by-nc-sa/4.0/
# or send a letter to
# Creative Commons, PO Box 1866, Mountain View, CA 94042, USA.
#
# CIF created using the CSD Python API on 29 September 2022
# The structure has been converted into the P1 space group
# The structure has a 3D framework
# The original CSD entry IKILIA is in the triclinic crystal system
# The framework has been calculated to contain at least 10.0% void space
# The void calculation uses a probe of radius 1.32A, grid spacing 0.4
# H atom positions have been added when not included in the experimental data
# Generated hydrogen atom positions removed from atoms on special positions
#
###############################################################################

data_IKILIA
_chemical_formula_moiety         '(C18 H30 Co8 Mo8 N14 O26)n'
_symmetry_cell_setting           triclinic
_symmetry_space_group_name_H-M   'P 1'
_symmetry_Int_Tables_number      1
_space_group_name_Hall           'P 1'
loop_
_symmetry_equiv_pos_site_id
_symmetry_equiv_pos_as_xyz
1 x,y,z
_cell_length_a                   9.7092(7)
_cell_length_b                   10.4791(7)
_cell_length_c                   12.4386(9)
_cell_angle_alpha                104.2320(10)
_cell_angle_beta                 91.9600(10)
_cell_angle_gamma                92.5720(10)
_cell_volume                     1224.13
loop_
_atom_site_label
_atom_site_type_symbol
_atom_site_fract_x
_atom_site_fract_y
_atom_site_fract_z
Co2 Co -0.0000 0.0000 0.0000
O7 O 0.3199(3) 0.0861(3) 0.4265(3)
O15 O 0.2019(4) 0.0586(4) 0.0516(3)
Mo12 Mo 0.31625(3) 0.12191(3) 0.57405(3)
O41 O 0.0976(3) 0.0922(3) 0.5568(2)
H16 H 0.207806 0.153657 0.0905691
Co2_2 Co -0.0000 0.0000 1.0000
O37 O 0.0263(3) 0.0569(3) 0.8510(2)
H15 H 0.260274 0.0441142 0.986125
Co1 Co -0.0000 0.5000 0.5000
Co2_3 Co -0.0000 1.0000 0.0000
Mo1 Mo 0.31849(4) 0.87873(4) 0.33139(3)
Mo4 Mo 0.07684(3) 0.85359(3) 0.50468(3)
N1 N 0.1162(4) 0.4245(4) 0.3579(3)
N2 N 0.2199(4) 0.4008(4) 0.2022(3)
N4 N 0.2714(5) 0.3069(5) 0.2501(4)
N7 N 0.2025(4) 0.5059(4) 0.0599(3)
H1 H 0.0799 0.7244 0.0627
C4 C 0.3625(5) 0.3340(5) 0.0410(4)
H4 H 0.4050 0.2723 0.0715
C5 C 0.1293(5) 0.4686(4) 0.2674(4)
H5 H 0.0815 0.5375 0.2518
C7 C 0.2635(5) 0.4131(5) 0.0975(4)
C8 C 0.2054(6) 0.3261(5) 0.3422(4)
H7 H 0.2186 0.2758 0.3933
O1 O 0.0486(3) 0.6857(3) 0.4634(3)
O3 O 0.3253(4) 0.9148(4) 0.2059(3)
O4 O 0.3280(4) 0.7125(3) 0.3041(3)
O8 O 0.2646(3) 0.8868(3) 0.5124(3)
O11 O 0.5101(3) 0.9164(3) 0.3865(3)
O13 O 0.1172(3) 0.8903(3) 0.3450(2)
Mo6 Mo 0.06472(4) 0.11603(4) 0.73674(3)
O20 O 0.3222(4) 0.2881(3) 0.6099(3)
O21 O 0.0682(3) 0.2826(3) 0.7850(3)
O25 O 0.2500(3) 0.0861(3) 0.7176(2)
O29 O 0.1794(4) 0.5266(4) 0.5937(3)
Mo10 Mo 0.68375(3) 0.87809(3) 0.42595(3)
O32 O 0.0346(3) 0.8928(3) 0.6431(2)
O39 O 0.4899(3) 0.0836(3) 0.6135(3)
Co2_4 Co -0.0000 1.0000 1.0000
N3 N 0.1753(4) 0.6250(4) 0.9288(3)
N5 N 0.0730(4) 0.8065(4) 0.9325(3)
N6 N 0.1921(5) 0.6480(5) 0.8267(3)
C1 C 0.1042(6) 0.7197(5) 0.9902(4)
C2 C 0.3951(6) 0.3506(5) 0.9385(4)
H2 H 0.4596 0.2983 0.8978
C3 C 0.1276(6) 0.7578(5) 0.8341(4)
H3 H 0.1205 0.7982 0.7756
C6 C 0.3326(5) 0.4447(5) 0.8952(4)
H6 H 0.3522 0.4568 0.8257
C9 C 0.2388(5) 0.5197(4) 0.9621(4)
Co2_5 Co 1.0000 0.0000 0.0000
O2 O 0.9654(3) 0.1072(3) 0.3569(2)
Mo14 Mo 0.92316(3) 0.14641(3) 0.49532(3)
N15 N 0.9270(4) 0.1935(4) 0.0675(3)
O36 O 0.7354(3) 0.1132(3) 0.4876(3)
Co2_6 Co 1.0000 0.0000 1.0000
H20 H 0.739125 0.0176262 0.970787
N10 N 0.8247(4) 0.3750(4) 0.0712(3)
N13 N 0.8079(5) 0.3520(5) 0.1733(3)
C10 C 0.8958(6) 0.2803(5) 0.0098(4)
C11 C 0.6049(6) 0.6494(5) 0.0615(4)
H9 H 0.5404 0.7017 0.1022
C12 C 0.8724(6) 0.2422(5) 0.1659(4)
H10 H 0.8795 0.2018 0.2244
C15 C 0.6674(5) 0.5553(5) 0.1048(4)
H13 H 0.6478 0.5432 0.1743
C18 C 0.7612(5) 0.4803(4) 0.0379(4)
Co1_2 Co 1.0000 0.5000 0.5000
Co2_7 Co 1.0000 1.0000 0.0000
Mo2 Mo 0.93528(4) 0.88397(4) 0.26326(3)
O5 O 0.6778(4) 0.7119(3) 0.3901(3)
O6 O 0.9318(3) 0.7174(3) 0.2150(3)
O9 O 0.9737(3) 0.9431(3) 0.1490(2)
O10 O 0.7500(3) 0.9139(3) 0.2824(2)
O12 O 0.9024(3) 0.9078(3) 0.4432(2)
O14 O 0.8206(4) 0.4734(4) 0.4063(3)
Mo5 Mo 0.68151(4) 0.12127(4) 0.66861(3)
N8 N 0.8838(4) 0.5755(4) 0.6421(3)
N9 N 0.7801(4) 0.5992(4) 0.7978(3)
N11 N 0.7286(5) 0.6931(5) 0.7499(4)
N14 N 0.7975(4) 0.4941(4) 0.9401(3)
H8 H 0.9201 0.2756 0.9373
C13 C 0.6375(5) 0.6660(5) 0.9590(4)
H11 H 0.5950 0.7277 0.9285
C14 C 0.8707(5) 0.5314(4) 0.7326(4)
H12 H 0.9185 0.4625 0.7482
C16 C 0.7365(5) 0.5869(5) 0.9025(4)
C17 C 0.7946(6) 0.6739(5) 0.6578(4)
H14 H 0.7814 0.7242 0.6067
O16 O 0.9514(3) 0.3143(3) 0.5366(3)
O18 O 0.6747(4) 0.0852(4) 0.7941(3)
O19 O 0.6720(4) 0.2875(3) 0.6959(3)
O28 O 0.8828(3) 0.1097(3) 0.6550(2)
O34 O 0.6801(3) 0.9139(3) 0.5735(3)
Co2_8 Co 1.0000 1.0000 1.0000
O30 O 0.7981(4) 0.9414(4) 0.9484(3)
H19 H 0.766261 0.870244 0.983197
H19_2 H 0.233739 0.129756 0.0168031
H20_2 H 0.260875 0.982374 0.0292125
H15_2 H 0.739726 0.955886 0.0138752
H16_2 H 0.792194 0.846343 0.909431
loop_
_geom_bond_atom_site_label_1
_geom_bond_atom_site_label_2
_geom_bond_site_symmetry_1
_geom_bond_site_symmetry_2
O15 Co2 1_555 1_555
Mo12 O7 1_555 1_555
Mo12 O41 1_555 1_555
O15 H16 1_555 1_555
O37 Co2_2 1_555 1_555
Co1 N1 1_555 1_555
Mo1 O3 1_555 1_555
Mo4 O1 1_555 1_555
N1 C5 1_555 1_555
N2 N4 1_555 1_555
N4 C8 1_555 1_555
N7 C7 1_555 1_555
H4 C4 1_555 1_555
C5 N2 1_555 1_555
H5 C5 1_555 1_555
C7 N2 1_555 1_555
C8 N1 1_555 1_555
H7 C8 1_555 1_555
O1 Co1 1_555 1_555
O4 Mo1 1_555 1_555
O8 Mo1 1_555 1_555
O11 Mo1 1_555 1_555
O13 Mo1 1_555 1_555
Mo12 O20 1_555 1_555
O21 Mo6 1_555 1_555
O37 Mo6 1_555 1_555
O25 Mo6 1_555 1_555
O41 Mo6 1_555 1_555
O29 Co1 1_555 1_555
Mo10 O11 1_555 1_555
O32 Mo4 1_555 1_555
O39 Mo12 1_555 1_555
Mo4 O8 1_555 1_555
Mo4 O13 1_555 1_555
C4 C7 1_555 1_555
Mo12 O25 1_555 1_555
Co2_4 N5 1_555 1_555
N3 N6 1_555 1_555
N5 C1 1_555 1_555
N6 C3 1_555 1_555
C1 N3 1_555 1_555
C2 H2 1_555 1_555
C3 N5 1_555 1_555
H3 C3 1_555 1_555
C6 C2 1_555 1_555
H6 C6 1_555 1_555
C9 N3 1_555 1_555
C6 C9 1_555 1_555
O2 Mo14 1_555 1_555
N15 Co2_5 1_555 1_555
Mo14 O36 1_555 1_555
N10 N13 1_555 1_555
N15 C10 1_555 1_555
N13 C12 1_555 1_555
C10 N10 1_555 1_555
C11 H9 1_555 1_555
C12 N15 1_555 1_555
H10 C12 1_555 1_555
C15 C11 1_555 1_555
H13 C15 1_555 1_555
C18 N10 1_555 1_555
C15 C18 1_555 1_555
Mo10 O5 1_555 1_555
O6 Mo2 1_555 1_555
O9 Co2_7 1_555 1_555
O10 Mo2 1_555 1_555
O12 Mo2 1_555 1_555
O14 Co1_2 1_555 1_555
Mo5 O18 1_555 1_555
Mo14 O16 1_555 1_555
N8 Co1_2 1_555 1_555
N9 N11 1_555 1_555
N11 C17 1_555 1_555
N14 C16 1_555 1_555
H11 C13 1_555 1_555
C14 N8 1_555 1_555
H12 C14 1_555 1_555
C16 N9 1_555 1_555
C17 N8 1_555 1_555
H14 C17 1_555 1_555
O16 Co1_2 1_555 1_555
O19 Mo5 1_555 1_555
O36 Mo5 1_555 1_555
O39 Mo5 1_555 1_555
O28 Mo5 1_555 1_555
O34 Mo10 1_555 1_555
Mo2 O9 1_555 1_555
Mo10 O10 1_555 1_555
Mo10 O12 1_555 1_555
Mo14 O28 1_555 1_555
N9 C14 1_555 1_555
C13 C16 1_555 1_555
O30 Co2_8 1_555 1_555
O30 H19 1_555 1_555
O15 H19_2 1_555 1_555
O30 H16_2 1_555 1_555

#END
