
###############################################################################
#
# This file contains modified crystal structure data generated from the
# MOF subset of the Cambridge Structural Database (CSD) v543 
# hosted by the Cambridge Crystallographic Data Centre (CCDC).
#
# This work is licensed under the Creative Commons
# Attribution-NonCommercial-ShareAlike 4.0 International License.
# To view a copy of this license, visit
# http://creativecommons.org/licenses/by-nc-sa/4.0/
# or send a letter to
# Creative Commons, PO Box 1866, Mountain View, CA 94042, USA.
#
# CIF created using the CSD Python API on 29 September 2022
# The structure has been converted into the P1 space group
# The structure has a 3D framework
# The original CSD entry IKOZOZ is in the triclinic crystal system
# The original CSD entry IKOZOZ is in a Sohncke space group
# The framework has been calculated to contain at least 10.0% void space
# The void calculation uses a probe of radius 1.32A, grid spacing 0.4
#
###############################################################################

data_IKOZOZ
_chemical_formula_moiety         '(C46 H46 Cd1 N8 O9)n'
_symmetry_cell_setting           triclinic
_symmetry_space_group_name_H-M   'P 1'
_symmetry_Int_Tables_number      1
_space_group_name_Hall           'P 1'
loop_
_symmetry_equiv_pos_site_id
_symmetry_equiv_pos_as_xyz
1 x,y,z
_cell_length_a                   10.0425(5)
_cell_length_b                   10.7819(5)
_cell_length_c                   15.1215(7)
_cell_angle_alpha                74.980(2)
_cell_angle_beta                 77.163(2)
_cell_angle_gamma                64.873(2)
_cell_volume                     1419.91
loop_
_atom_site_label
_atom_site_type_symbol
_atom_site_fract_x
_atom_site_fract_y
_atom_site_fract_z
_atom_site_U_iso_or_equiv
_atom_site_thermal_displace_type
C1 C 0.0728(11) 0.4200(10) 0.2408(7) 0.0497 Uani
H1 H 0.1658 0.3970 0.2058 0.0600 Uiso
C2 C 0.4284(7) 0.1875(6) 0.0003(6) 0.0355 Uani
C4 C 0.0986(12) 0.0595(10) 0.1913(7) 0.0577 Uani
H4 H 0.1902 0.0317 0.1550 0.0700 Uiso
C7 C 0.0685(10) 0.3862(10) 0.3367(7) 0.0539 Uani
H9 H 0.1557 0.3435 0.3637 0.0640 Uiso
C9 C 0.0908(13) 0.0357(10) 0.2893(7) 0.0674 Uani
N4 N 0.4437(5) 0.2792(4) 0.0545(4) 0.0425 Uani
H14 H 0.3661 0.3359 0.0821 0.0510 Uiso
H15 H 0.5301 0.2747 0.0577 0.0510 Uiso
C11 C 0.1271(11) 0.2589(10) 0.7814(7) 0.0451 Uani
H16 H 0.2136 0.2230 0.8086 0.0540 Uiso
C13 C 0.2694(5) 0.2144(5) 0.0051(3) 0.0274 Uani
H21 H 0.6891 0.0374 0.0856 0.0530 Uiso
C18 C 0.5235(5) 0.0362(5) 0.0331(5) 0.0433 Uani
H23 H 0.4802 0.0069 0.0947 0.0520 Uiso
C20 C 0.0299(10) 0.3528(8) 0.5416(6) 0.0432 Uani
H25 H 0.1240 0.3395 0.5097 0.0520 Uiso
C22 C 0.0477(15) 0.0117(11) 0.4945(8) 0.0763 Uani
C23 C 0.0208(18) 0.0005(11) 0.5982(8) 0.0860 Uani
C30 C 0.0117(10) 0.3332(8) 0.6418(6) 0.0398 Uani
C31 C 0.1361(12) 0.2874(11) 0.6844(7) 0.0549 Uani
H34 H 0.2275 0.2752 0.6487 0.0650 Uiso
O7 O 0.1703(5) 0.3171(4) 0.0339(3) 0.0417 Uani
O10 O 0.2186(4) 0.5601(3) 0.0309(3) 0.0340 Uani
H12 H 0.1777 0.9898 0.3165 0.0810 Uiso
C17 C 0.6815(6) 0.9999(5) 0.0360(5) 0.0444 Uani
H27 H 0.1458 0.9776 0.4675 0.0920 Uiso
N7 N 0.0103(12) 0.9805(8) 0.7870(6) 0.0620 Uani
C24 C 0.1541(15) 0.9571(11) 0.6363(8) 0.0726 Uani
H28 H 0.2466 0.9376 0.6009 0.0870 Uiso
C25 C 0.1334(16) 0.9465(11) 0.7307(8) 0.0755 Uani
H29 H 0.2197 0.9097 0.7582 0.0900 Uiso
O8 O 0.7328(4) 0.7578(4) 0.0418(3) 0.0505 Uani
C34 C 0.7792(5) 0.8442(5) 0.0501(3) 0.0298 Uani
O9 O 0.9104(5) 0.8070(5) 0.0660(4) 0.0416 Uani
Cd5 Cd 0.97968(3) 0.56498(2) 0.04482(2) 0.0240 Uani
N1 N 0.9748(8) 0.1212(6) 0.1522(5) 0.0368 Uani
N2 N 0.9590(8) 0.4802(7) 0.1971(5) 0.0309 Uani
C3 C 0.8428(11) 0.1621(10) 0.2081(6) 0.0494 Uani
H3 H 0.7553 0.2073 0.1813 0.0590 Uiso
C5 C 0.8349(11) 0.1390(8) 0.3020(6) 0.0511 Uani
H5 H 0.7421 0.1655 0.3371 0.0610 Uiso
C6 C 0.8093(12) 0.4817(12) 0.3443(7) 0.0560 Uani
H6 H 0.7153 0.5073 0.3781 0.0680 Uiso
N3 N 0.9996(9) 0.2817(7) 0.8342(5) 0.0340 Uani
C10 C 0.8244(12) 0.5078(11) 0.2493(7) 0.0504 Uani
H13 H 0.7398 0.5455 0.2199 0.0610 Uiso
C12 C 0.9548(12) 0.0803(9) 0.3446(6) 0.0493 Uani
O2 O 0.8416(4) 0.4304(4) 0.0270(3) 0.0287 Uani
C14 C 0.9540(18) 0.0604(12) 0.4439(8) 0.1016 Uani
H19 H 0.8586 0.0932 0.4752 0.1220 Uiso
C15 C 0.2450(5) 0.6614(5) 0.0397(3) 0.0272 Uani
O4 O 0.7199(4) 0.3126(3) 0.0094(2) 0.0308 Uani
C19 C 0.9349(9) 0.4168(8) 0.3897(5) 0.0346 Uani
C21 C 0.9190(12) 0.3889(9) 0.4928(6) 0.0489 Uani
H26 H 0.8261 0.3972 0.5250 0.0590 Uiso
C26 C 0.8897(14) 0.0325(10) 0.6553(7) 0.0688 Uani
H30 H 0.7992 0.0634 0.6335 0.0830 Uiso
C27 C 0.8999(14) 0.0163(10) 0.7471(7) 0.0738 Uani
H31 H 0.8102 0.0350 0.7856 0.0880 Uiso
C28 C 0.8750(10) 0.3347(10) 0.7927(7) 0.0407 Uani
H32 H 0.7839 0.3530 0.8298 0.0490 Uiso
C29 C 0.8769(11) 0.3625(10) 0.6992(6) 0.0482 Uani
H33 H 0.7884 0.4008 0.6738 0.0580 Uiso
C32 C 0.7222(5) 0.4224(5) 0.0233(3) 0.0253 Uani
C33 C 0.5752(7) 0.5446(6) 0.0358(5) 0.0342 Uani
H35 H 0.5917 0.6198 0.0493 0.0410 Uiso
H36 H 0.5108 0.5162 0.0874 0.0410 Uiso
O6 O 0.1990(4) 0.7214(4) 0.1055(3) 0.0470 Uani
Cd3 Cd 0.99172(2) 0.20663(2) 0.99366(2) 0.0247 Uani
C8 C 0.5006(5) 0.5959(5) 0.9471(4) 0.0322 Uani
H10 H 0.5612 0.6321 0.8970 0.0380 Uiso
H11 H 0.4938 0.5179 0.9304 0.0380 Uiso
N6 N 0.3551(5) 0.8332(4) 0.9781(4) 0.0518 Uani
H17 H 0.4392 0.8348 0.9805 0.0620 Uiso
H18 H 0.2746 0.9047 0.9866 0.0620 Uiso
C16 C 0.3491(5) 0.7069(5) 0.9595(4) 0.0305 Uani
H20 H 0.3049 0.7330 0.9024 0.0370 Uiso
C35 C 0.8884(9) 0.6867(8) 0.7528(6) 0.0443 Uani
H37 H 0.8005 0.7265 0.7268 0.0530 Uiso
C37 C 0.8853(10) 0.6674(9) 0.8444(6) 0.0442 Uani
H38 H 0.7927 0.6981 0.8794 0.0530 Uiso
C40 C 0.9365(11) 0.7133(9) 0.5454(6) 0.0494 Uani
H41 H 0.8406 0.7351 0.5762 0.0590 Uiso
C41 C 0.9522(10) 0.7315(8) 0.4459(5) 0.0406 Uani
N8 N 0.9905(12) 0.7574(9) 0.2577(5) 0.0620 Uani
C44 C 0.8401(14) 0.7793(11) 0.3969(8) 0.0680 Uani
H44 H 0.7449 0.8062 0.4291 0.0820 Uiso
C46 C 0.8519(15) 0.7924(11) 0.3040(8) 0.0711 Uani
H46 H 0.7690 0.8237 0.2738 0.0850 Uiso
H2 H 0.4653 0.2136 0.9355 0.0430 Uiso
N5 N 0.0022(7) 0.6087(6) 0.8890(5) 0.0318 Uani
H22 H 0.7206 0.0456 0.9787 0.0530 Uiso
O5 O 0.2445(4) 0.1250(4) 0.9772(3) 0.0364 Uani
C36 C 0.0236(11) 0.6468(8) 0.6975(6) 0.0441 Uani
C38 C 0.1510(10) 0.5851(8) 0.7447(6) 0.0472 Uani
H39 H 0.2455 0.5546 0.7120 0.0570 Uiso
C39 C 0.1334(10) 0.5712(9) 0.8376(6) 0.0442 Uani
H40 H 0.2179 0.5333 0.8670 0.0530 Uiso
C42 C 0.0928(14) 0.6867(10) 0.3959(7) 0.0722 Uani
H42 H 0.1755 0.6451 0.4273 0.0870 Uiso
C43 C 0.0431(8) 0.6696(8) 0.5969(5) 0.0438 Uani
H43 H 0.1390 0.6515 0.5668 0.0520 Uiso
C45 C 0.1137(12) 0.7028(11) 0.2981(7) 0.0725 Uani
H45 H 0.2076 0.6769 0.2643 0.0870 Uiso
O1 O 0.0335(6) 0.9909(5) 0.9608(3) 0.0315 Uani
H7 H 0.1299 0.9266 0.9496 0.0380 Uiso
H24 H 0.5174 0.9817 0.9933 0.0520 Uiso
H8 H 0.9536 0.9698 0.9590 0.0380 Uiso
loop_
_atom_site_aniso_label
_atom_site_aniso_U_11
_atom_site_aniso_U_22
_atom_site_aniso_U_33
_atom_site_aniso_U_23
_atom_site_aniso_U_13
_atom_site_aniso_U_12
C1 0.039 0.066 0.026 -0.005 -0.003 -0.006
C2 0.03 0.025 0.056 -0.003 -0.017 -0.012
C4 0.045 0.073 0.037 -0.006 -0.008 -0.007
C7 0.035 0.067 0.037 -0.006 -0.01 0.002
C9 0.079 0.073 0.051 0.017 -0.047 -0.028
N4 0.0156 0.027 0.086 -0.022 -0.014 0.0009
C11 0.035 0.065 0.031 -0.004 -0.013 -0.014
C13 0.019 0.025 0.037 0.001 -0.0083 -0.009
C18 0.023 0.021 0.087 -0.009 -0.016 -0.006
C20 0.056 0.038 0.025 -0.003 0.005 -0.015
C22 0.101 0.066 0.06 -0.013 -0.021 -0.025
C23 0.178 0.062 0.047 -0.002 -0.018 -0.077
C30 0.052 0.04 0.032 -0.004 -0.011 -0.021
C31 0.046 0.08 0.028 -0.002 0.003 -0.023
O7 0.029 0.029 0.064 -0.012 -0.011 -0.0041
O10 0.0234 0.0269 0.052 -0.0075 -0.0063 -0.0094
C17 0.032 0.028 0.078 -0.009 -0.025 -0.008
N7 0.112 0.049 0.029 -0.004 -0.015 -0.034
C24 0.094 0.078 0.042 -0.012 -0.02 -0.024
C25 0.114 0.066 0.049 0.001 -0.029 -0.035
O8 0.04 0.027 0.083 -0.015 -0.009 -0.0083
C34 0.027 0.027 0.031 -0.005 -0.007 -0.005
O9 0.028 0.034 0.052 -0.006 -0.011 -0.0001
Cd5 0.0231 0.024 0.0235 -0.00398 -0.0037 -0.00765
N1 0.044 0.036 0.03 -0.002 -0.012 -0.014
N2 0.034 0.027 0.031 -0.005 -0.009 -0.009
C3 0.049 0.062 0.031 -0.004 -0.004 -0.019
C5 0.057 0.047 0.028 -0.004 0.003 -0.006
C6 0.037 0.095 0.03 -0.006 -0.001 -0.025
N3 0.042 0.034 0.024 -0.007 -0.002 -0.013
C10 0.04 0.079 0.036 -0.005 0.001 -0.033
C12 0.086 0.042 0.028 -0.008 -0.007 -0.032
O2 0.023 0.026 0.039 -0.0062 -0.0062 -0.0102
C14 0.183 0.086 0.051 0 -0.042 -0.061
C15 0.019 0.029 0.028 -0.006 -0.0056 -0.0024
O4 0.0238 0.028 0.043 -0.014 -0.0052 -0.0076
C19 0.041 0.039 0.024 -0.004 -0.004 -0.017
C21 0.07 0.05 0.026 -0.005 -0.004 -0.025
C26 0.108 0.072 0.046 -0.006 -0.025 -0.049
C27 0.1 0.08 0.042 -0.022 -0.004 -0.032
C28 0.027 0.056 0.031 -0.008 -0.009 -0.006
C29 0.043 0.067 0.029 -0.003 -0.008 -0.018
C32 0.017 0.028 0.029 -0.0074 -0.0024 -0.006
C33 0.032 0.032 0.044 -0.017 -0.009 -0.01
O6 0.041 0.062 0.039 -0.023 0.0003 -0.016
Cd3 0.0194 0.0245 0.0256 -0.00578 -0.0056 -0.00214
C8 0.02 0.028 0.041 -0.003 -0.001 -0.0056
N6 0.029 0.026 0.099 -0.022 0.003 -0.009
C16 0.03 0.02 0.04 -0.008 -0.006 -0.0063
C35 0.038 0.053 0.032 0.002 -0.005 -0.014
C37 0.033 0.064 0.029 -0.008 -0.002 -0.014
C40 0.067 0.055 0.023 -0.011 -0.005 -0.019
C41 0.068 0.045 0.019 -0.003 -0.004 -0.034
N8 0.104 0.064 0.034 -0.009 -0.017 -0.044
C44 0.087 0.068 0.043 -0.007 -0.005 -0.028
C46 0.102 0.066 0.047 -0.013 -0.024 -0.026
N5 0.029 0.032 0.032 -0.006 -0.001 -0.011
O5 0.0281 0.0349 0.05 -0.011 -0.01 -0.0117
C36 0.062 0.04 0.035 -0.004 -0.006 -0.026
C38 0.038 0.048 0.041 -0.004 -0.002 -0.007
C39 0.032 0.058 0.039 -0.007 -0.001 -0.017
C42 0.109 0.078 0.04 -0.006 -0.014 -0.047
C43 0.033 0.066 0.022 -0.01 0.006 -0.013
C45 0.08 0.097 0.045 -0.024 0.003 -0.038
O1 0.033 0.031 0.037 -0.0054 -0.0105 -0.0161
loop_
_geom_bond_atom_site_label_1
_geom_bond_atom_site_label_2
_geom_bond_site_symmetry_1
_geom_bond_site_symmetry_2
C1 H1 1_555 1_555
H4 C4 1_555 1_555
C7 C1 1_555 1_555
H9 C7 1_555 1_555
C9 C4 1_555 1_555
N4 C2 1_555 1_555
H14 N4 1_555 1_555
H15 N4 1_555 1_555
C11 H16 1_555 1_555
C13 C2 1_555 1_555
C18 C2 1_555 1_555
H23 C18 1_555 1_555
C20 H25 1_555 1_555
C23 C22 1_555 1_555
C30 C20 1_555 1_555
C31 C11 1_555 1_555
H34 C31 1_555 1_555
C13 O7 1_555 1_555
C30 C31 1_555 1_555
N7 C25 1_555 1_555
H28 C24 1_555 1_555
C25 C24 1_555 1_555
H29 C25 1_555 1_555
O8 C34 1_555 1_555
C34 C17 1_555 1_555
O9 C34 1_555 1_555
Cd5 O8 1_555 1_555
O9 Cd5 1_555 1_555
Cd5 N2 1_555 1_555
N1 C3 1_555 1_555
C3 H3 1_555 1_555
C5 C3 1_555 1_555
H5 C5 1_555 1_555
C6 H6 1_555 1_555
C10 N2 1_555 1_555
H13 C10 1_555 1_555
C12 C5 1_555 1_555
C14 C12 1_555 1_555
H19 C14 1_555 1_555
O10 C15 1_555 1_555
C19 C6 1_555 1_555
C21 C19 1_555 1_555
H26 C21 1_555 1_555
H30 C26 1_555 1_555
H31 C27 1_555 1_555
C28 N3 1_555 1_555
H32 C28 1_555 1_555
C29 C28 1_555 1_555
H33 C29 1_555 1_555
C32 O2 1_555 1_555
H35 C33 1_555 1_555
H36 C33 1_555 1_555
O6 C15 1_555 1_555
Cd3 N3 1_555 1_555
Cd5 O2 1_555 1_555
C6 C10 1_555 1_555
O4 C32 1_555 1_555
C26 C27 1_555 1_555
C32 C33 1_555 1_555
C8 H10 1_555 1_555
H11 C8 1_555 1_555
N6 H17 1_555 1_555
H18 N6 1_555 1_555
C16 C8 1_555 1_555
H20 C16 1_555 1_555
C35 H37 1_555 1_555
H38 C37 1_555 1_555
C40 H41 1_555 1_555
C41 C40 1_555 1_555
C44 C41 1_555 1_555
H44 C44 1_555 1_555
C46 N8 1_555 1_555
H46 C46 1_555 1_555
N6 C16 1_555 1_555
C35 C37 1_555 1_555
C44 C46 1_555 1_555
C38 C36 1_555 1_555
H39 C38 1_555 1_555
C39 N5 1_555 1_555
H40 C39 1_555 1_555
H42 C42 1_555 1_555
C43 C36 1_555 1_555
H43 C43 1_555 1_555
C45 C42 1_555 1_555
H45 C45 1_555 1_555
C38 C39 1_555 1_555
H7 O1 1_555 1_555

#END
