
###############################################################################
#
# This file contains modified crystal structure data generated from the
# MOF subset of the Cambridge Structural Database (CSD) v543 
# hosted by the Cambridge Crystallographic Data Centre (CCDC).
#
# This work is licensed under the Creative Commons
# Attribution-NonCommercial-ShareAlike 4.0 International License.
# To view a copy of this license, visit
# http://creativecommons.org/licenses/by-nc-sa/4.0/
# or send a letter to
# Creative Commons, PO Box 1866, Mountain View, CA 94042, USA.
#
# CIF created using the CSD Python API on 29 September 2022
# The structure has been converted into the P1 space group
# The structure has a 3D framework
# The original CSD entry IKUHUT is in the hexagonal crystal system
# The original CSD entry IKUHUT is in a Sohncke space group
# The framework has been calculated to contain at least 10.0% void space
# The void calculation uses a probe of radius 1.32A, grid spacing 0.4
#
###############################################################################

data_IKUHUT
_chemical_formula_moiety         '(C18 H36 Cu18 N82)n'
_symmetry_cell_setting           triclinic
_symmetry_space_group_name_H-M   'P 1'
_symmetry_Int_Tables_number      1
_space_group_name_Hall           'P 1'
loop_
_symmetry_equiv_pos_site_id
_symmetry_equiv_pos_as_xyz
1 x,y,z
_cell_length_a                   11.4719(3)
_cell_length_b                   11.4719(3)
_cell_length_c                   18.4685(10)
_cell_angle_alpha                90
_cell_angle_beta                 90
_cell_angle_gamma                120
_cell_volume                     2104.91
loop_
_atom_site_label
_atom_site_type_symbol
_atom_site_fract_x
_atom_site_fract_y
_atom_site_fract_z
N7 N 0.0819(4) 0.6873(5) 0.0975(3)
N14 N 0.0819(4) 0.3946(6) 0.0692(3)
Cu4 Cu 0.10139(8) 0.69142(6) 0.22774(3)
Cu7 Cu 0.18164(7) 0.59082(4) 0.0833
Cu5 Cu 0.10139(8) 0.40997(5) 0.93893(3)
Cu6 Cu 0.69142(6) 0.10139(8) 0.10560(3)
Cu1 Cu 0.69142(6) 0.59003(5) 0.06107(3)
N1 N 0.5917(3) 0.6926(3) 0.07918(19)
N2 N 0.3842(4) 0.6921(2) 0.0833
N3 N 0.5961(6) 0.2981(3) 0.0833
N4 N 0.5913(6) 0.3935(5) 0.0677(3)
N5 N 0.7894(5) 0.8947(2) 0.0833
H1 H 0.8347 0.8502 0.0805
C1 C 0.6567(5) 0.8283(3) 0.0833
N6 N 0.9829(4) 0.6833(4) 0.0808(2)
C2 C 0.4569(3) 0.6298(4) 0.08008(19)
N8 N 0.3905(4) 0.4963(3) 0.0773(2)
H2 H 0.4340 0.4534 0.0751
H3 H 0.3039 0.4527 0.0778
N9 N 0.8871(5) 0.6886(6) 0.0661(3)
N10 N 0.5917(3) 0.8991(4) 0.08749(19)
H4 H 0.8347 0.9845 0.0862
C3 C 0.4569(3) 0.8271(5) 0.08659(19)
N11 N 0.3905(4) 0.8942(5) 0.0894(2)
H5 H 0.4340 0.9806 0.0916
H6 H 0.3039 0.8512 0.0889
N12 N 0.5913(6) 0.1978(8) 0.0990(3)
N13 N 0.9829(4) 0.2996(6) 0.0859(2)
N15 N 0.8871(5) 0.1985(8) 0.1006(3)
N19 N 0.6873(5) 0.0819(4) 0.2358(3)
N18 N 0.6873(5) 0.6054(6) 0.9308(3)
N16 N 0.1009(4) 0.6926(5) 0.42082(19)
Cu1_2 Cu 0.40997(5) 0.10139(8) 0.39440(3)
N3_2 N 0.7019(3) 0.2980(7) 0.4166
N4_2 N 0.6065(5) 0.1978(8) 0.4010(3)
N6_2 N 0.3167(4) 0.2996(6) 0.4141(2)
N7_2 N 0.3127(5) 0.3946(6) 0.4308(3)
N9_2 N 0.3114(6) 0.1985(8) 0.3994(3)
N12_2 N 0.8022(8) 0.3935(10) 0.4323(3)
Cu3 Cu 0.89861(8) 0.59003(10) 0.43893(3)
N13_2 N 0.7004(6) 0.6833(7) 0.4192(2)
N14_2 N 0.6054(6) 0.6873(7) 0.4025(3)
N15_2 N 0.8015(8) 0.6886(9) 0.4339(3)
Cu4_2 Cu 0.30858(6) 0.40997(10) 0.56107(3)
Cu5_2 Cu 0.59003(5) 0.69142(9) 0.27226(3)
Cu7_2 Cu 0.40918(4) 0.59082(8) 0.4166
N18_2 N 0.3946(6) 0.0819(8) 0.2642(3)
N19_2 N 0.9181(4) 0.6054(6) 0.5692(3)
N1_2 N 0.3074(3) 0.8991(4) 0.41251(19)
N2_2 N 0.3079(2) 0.6921(4) 0.4166
N5_2 N 0.1053(2) 0.8947(5) 0.4166
H1_2 H 0.1498 0.9845 0.4138
C1_2 C 0.1717(3) 0.8284(6) 0.4166
C2_2 C 0.3702(4) 0.8271(5) 0.41341(19)
N8_2 N 0.5037(3) 0.8942(5) 0.4106(2)
H2_2 H 0.5466 0.9806 0.4084
H3_2 H 0.5473 0.8512 0.4111
H4_2 H 0.0155 0.8502 0.4195
C3_2 C 0.1729(5) 0.6298(6) 0.41992(19)
N11_2 N 0.1058(5) 0.4963(6) 0.4227(2)
H5_2 H 0.0194 0.4534 0.4249
H6_2 H 0.1488 0.4527 0.4222
Cu2 Cu 0.40918(8) 0.81836(7) 0.7500
N1_3 N 0.1009(4) 0.4083(3) 0.74585(19)
N2_3 N 0.3079(4) 0.6158(4) 0.7500
N5_3 N 0.1053(5) 0.2106(5) 0.7500
H1_3 H 0.0155 0.1653 0.7472
C1_3 C 0.1716(6) 0.3433(5) 0.7500
C2_3 C 0.1729(5) 0.5431(3) 0.74675(19)
N8_3 N 0.1058(5) 0.6095(4) 0.7440(2)
H2_3 H 0.0194 0.5660 0.7418
H3_3 H 0.1488 0.6961 0.7445
N10_2 N 0.3074(5) 0.4083(3) 0.75415(19)
H4_3 H 0.1498 0.1653 0.7528
C3_3 C 0.3702(6) 0.5431(3) 0.75325(19)
N11_3 N 0.5037(6) 0.6095(4) 0.7560(2)
H5_3 H 0.5466 0.5660 0.7582
H6_3 H 0.5473 0.6961 0.7555
Cu6_2 Cu 0.40997(10) 0.30858(6) 0.77226(3)
N17 N 0.6054(6) 0.9181(4) 0.7642(3)
N20 N 0.3127(7) 0.9181(4) 0.7358(3)
Cu1_3 Cu 0.89861(8) 0.30858(6) 0.72774(3)
N3_3 N 0.7020(7) 0.4039(6) 0.7500
N4_3 N 0.8022(8) 0.4087(6) 0.7344(3)
N6_3 N 0.7004(6) 0.0171(4) 0.7475(2)
N9_3 N 0.8015(8) 0.1129(5) 0.7328(3)
N12_3 N 0.6065(10) 0.4087(6) 0.7656(3)
N13_3 N 0.3167(7) 0.0171(4) 0.7525(2)
N15_3 N 0.3114(9) 0.1129(5) 0.7672(3)
N18_3 N 0.9181(8) 0.3127(5) 0.5975(3)
N19_3 N 0.3946(6) 0.3127(5) 0.9025(3)
Cu4_3 Cu 0.59003(10) 0.89861(8) 0.89440(3)
Cu5_3 Cu 0.30858(9) 0.89861(8) 0.60560(3)
N16_2 N 0.4083(3) 0.1009(4) 0.58749(19)
Cu2_2 Cu 0.81836(7) 0.40918(4) 0.5833
N1_4 N 0.4083(3) 0.3074(3) 0.57918(19)
N2_4 N 0.6158(4) 0.3079(2) 0.5833
N3_4 N 0.4039(6) 0.7019(3) 0.5833
N4_4 N 0.4087(6) 0.6065(5) 0.5677(3)
N5_4 N 0.2106(5) 0.1053(2) 0.5833
H1_4 H 0.1653 0.1498 0.5805
C1_4 C 0.3433(5) 0.1717(3) 0.5833
N6_4 N 0.0171(4) 0.3167(4) 0.5808(2)
C2_4 C 0.5431(3) 0.3702(4) 0.58008(19)
N8_4 N 0.6095(4) 0.5037(3) 0.5773(2)
H2_4 H 0.5660 0.5466 0.5751
H3_4 H 0.6961 0.5473 0.5778
N9_4 N 0.1129(5) 0.3114(6) 0.5661(3)
H4_4 H 0.1653 0.0155 0.5862
C3_4 C 0.5431(3) 0.1729(5) 0.58659(19)
N11_4 N 0.6095(4) 0.1058(5) 0.5894(2)
H5_4 H 0.5660 0.0194 0.5916
H6_4 H 0.6961 0.1488 0.5889
N12_4 N 0.4087(6) 0.8022(8) 0.5990(3)
N13_4 N 0.0171(4) 0.7004(6) 0.5859(2)
N15_4 N 0.1129(5) 0.8015(8) 0.6006(3)
Cu2_3 Cu 0.59082(4) 0.40918(8) 0.9166
N1_5 N 0.6926(3) 0.1009(4) 0.91251(19)
N2_5 N 0.6921(2) 0.3079(4) 0.9166
N5_5 N 0.8947(2) 0.1053(5) 0.9166
H1_5 H 0.8502 0.0155 0.9138
C1_5 C 0.8283(3) 0.1716(6) 0.9166
C2_5 C 0.6298(4) 0.1729(5) 0.91341(19)
N8_5 N 0.4963(3) 0.1058(5) 0.9106(2)
H2_5 H 0.4534 0.0194 0.9084
H3_5 H 0.4527 0.1488 0.9111
N10_3 N 0.8991(4) 0.3074(5) 0.92082(19)
H4_5 H 0.9845 0.1498 0.9195
C3_5 C 0.8271(5) 0.3702(6) 0.91992(19)
N11_5 N 0.8942(5) 0.5037(6) 0.9227(2)
H5_5 H 0.9806 0.5466 0.9249
H6_5 H 0.8512 0.5473 0.9222
N3_5 N 0.2981(3) 0.7020(7) 0.9166
N4_5 N 0.3935(5) 0.8022(8) 0.9010(3)
N6_5 N 0.6833(4) 0.7004(6) 0.9141(2)
N9_5 N 0.6886(6) 0.8015(8) 0.8994(3)
N12_5 N 0.1978(8) 0.6065(10) 0.9323(3)
N13_5 N 0.2996(6) 0.3167(7) 0.9192(2)
N15_5 N 0.1985(8) 0.3114(9) 0.9339(3)
Cu7_3 Cu 0.59082(8) 0.18164(7) 0.2500
N3_6 N 0.2980(7) 0.5961(6) 0.2500
N4_6 N 0.1978(8) 0.5913(6) 0.2344(3)
N6_6 N 0.2996(6) 0.9829(4) 0.2475(2)
N9_6 N 0.1985(8) 0.8871(5) 0.2328(3)
N12_6 N 0.3935(10) 0.5913(6) 0.2656(3)
N13_6 N 0.6833(7) 0.9829(4) 0.2525(2)
N15_6 N 0.6886(9) 0.8871(5) 0.2672(3)
N16_3 N 0.6926(5) 0.5917(3) 0.25415(19)
N1_6 N 0.8991(4) 0.5917(3) 0.24585(19)
N2_6 N 0.6921(4) 0.3842(4) 0.2500
N5_6 N 0.8947(5) 0.7894(5) 0.2500
H1_6 H 0.9845 0.8347 0.2472
C1_6 C 0.8284(6) 0.6567(5) 0.2500
C2_6 C 0.8271(5) 0.4569(3) 0.24675(19)
N8_6 N 0.8942(5) 0.3905(4) 0.2440(2)
H2_6 H 0.9806 0.4340 0.2418
H3_6 H 0.8512 0.3039 0.2445
H4_6 H 0.8502 0.8347 0.2528
C3_6 C 0.6298(6) 0.4569(3) 0.25325(19)
N11_6 N 0.4963(6) 0.3905(4) 0.2560(2)
H5_6 H 0.4534 0.4340 0.2582
H6_6 H 0.4527 0.3039 0.2555
loop_
_geom_bond_atom_site_label_1
_geom_bond_atom_site_label_2
_geom_bond_site_symmetry_1
_geom_bond_site_symmetry_2
N7 Cu4 1_555 1_555
Cu7 N7 1_555 1_555
N14 Cu7 1_555 1_555
Cu1 N1 1_555 1_555
Cu7 N2 1_555 1_555
N1 C1 1_555 1_555
N2 C2 1_555 1_555
N3 N4 1_555 1_555
N4 Cu1 1_555 1_555
N5 H1 1_555 1_555
C1 N5 1_555 1_555
C2 N1 1_555 1_555
N8 C2 1_555 1_555
H2 N8 1_555 1_555
H3 N8 1_555 1_555
N9 Cu1 1_555 1_555
N10 C1 1_555 1_555
H4 N5 1_555 1_555
C3 N2 1_555 1_555
N11 C3 1_555 1_555
H5 N11 1_555 1_555
H6 N11 1_555 1_555
N12 N3 1_555 1_555
Cu6 N12 1_555 1_555
N15 Cu6 1_555 1_555
N19 Cu6 1_555 1_555
N6 N9 1_555 1_555
N10 C3 1_555 1_555
N13 N15 1_555 1_555
N3_2 N4_2 1_555 1_555
N4_2 Cu1_2 1_555 1_555
N6_2 N7_2 1_555 1_555
N7_2 Cu4_2 1_555 1_555
N9_2 Cu1_2 1_555 1_555
N12_2 N3_2 1_555 1_555
Cu3 N12_2 1_555 1_555
N13_2 N14_2 1_555 1_555
N14_2 Cu5_2 1_555 1_555
N15_2 Cu3 1_555 1_555
Cu7_2 N7_2 1_555 1_555
N18_2 Cu1_2 1_555 1_555
N19_2 Cu3 1_555 1_555
N6_2 N9_2 1_555 1_555
N13_2 N15_2 1_555 1_555
N14_2 Cu7_2 1_555 1_555
Cu7_2 N2_2 1_555 1_555
N1_2 C1_2 1_555 1_555
N2_2 C2_2 1_555 1_555
N5_2 H1_2 1_555 1_555
C1_2 N5_2 1_555 1_555
C2_2 N1_2 1_555 1_555
N8_2 C2_2 1_555 1_555
H2_2 N8_2 1_555 1_555
H3_2 N8_2 1_555 1_555
N16 C1_2 1_555 1_555
H4_2 N5_2 1_555 1_555
C3_2 N2_2 1_555 1_555
N11_2 C3_2 1_555 1_555
H5_2 N11_2 1_555 1_555
H6_2 N11_2 1_555 1_555
N16 C3_2 1_555 1_555
Cu2 N2_3 1_555 1_555
N1_3 C1_3 1_555 1_555
N2_3 C2_3 1_555 1_555
N5_3 H1_3 1_555 1_555
C1_3 N5_3 1_555 1_555
C2_3 N1_3 1_555 1_555
N8_3 C2_3 1_555 1_555
H2_3 N8_3 1_555 1_555
H3_3 N8_3 1_555 1_555
N10_2 C1_3 1_555 1_555
H4_3 N5_3 1_555 1_555
C3_3 N2_3 1_555 1_555
N11_3 C3_3 1_555 1_555
H5_3 N11_3 1_555 1_555
H6_3 N11_3 1_555 1_555
Cu6_2 N10_2 1_555 1_555
N17 Cu2 1_555 1_555
N20 Cu2 1_555 1_555
N10_2 C3_3 1_555 1_555
N3_3 N4_3 1_555 1_555
N4_3 Cu1_3 1_555 1_555
N9_3 Cu1_3 1_555 1_555
N12_3 N3_3 1_555 1_555
Cu6_2 N12_3 1_555 1_555
N15_3 Cu6_2 1_555 1_555
N18_3 Cu1_3 1_555 1_555
N19_3 Cu6_2 1_555 1_555
N6_3 N9_3 1_555 1_555
N13_3 N15_3 1_555 1_555
N17 Cu4_3 1_555 1_555
N20 Cu5_3 1_555 1_555
Cu4_2 N1_4 1_555 1_555
Cu2_2 N2_4 1_555 1_555
N1_4 C1_4 1_555 1_555
N2_4 C2_4 1_555 1_555
N3_4 N4_4 1_555 1_555
N4_4 Cu4_2 1_555 1_555
N5_4 H1_4 1_555 1_555
C1_4 N5_4 1_555 1_555
C2_4 N1_4 1_555 1_555
N8_4 C2_4 1_555 1_555
H2_4 N8_4 1_555 1_555
H3_4 N8_4 1_555 1_555
N9_4 Cu4_2 1_555 1_555
N16_2 C1_4 1_555 1_555
H4_4 N5_4 1_555 1_555
C3_4 N2_4 1_555 1_555
N11_4 C3_4 1_555 1_555
H5_4 N11_4 1_555 1_555
H6_4 N11_4 1_555 1_555
N12_4 N3_4 1_555 1_555
Cu5_3 N12_4 1_555 1_555
N15_4 Cu5_3 1_555 1_555
N18_3 Cu2_2 1_555 1_555
N19_2 Cu2_2 1_555 1_555
N6_4 N9_4 1_555 1_555
N16_2 C3_4 1_555 1_555
N13_4 N15_4 1_555 1_555
Cu2_3 N2_5 1_555 1_555
N1_5 C1_5 1_555 1_555
N2_5 C2_5 1_555 1_555
N5_5 H1_5 1_555 1_555
C1_5 N5_5 1_555 1_555
C2_5 N1_5 1_555 1_555
N8_5 C2_5 1_555 1_555
H2_5 N8_5 1_555 1_555
H3_5 N8_5 1_555 1_555
N10_3 C1_5 1_555 1_555
H4_5 N5_5 1_555 1_555
C3_5 N2_5 1_555 1_555
N11_5 C3_5 1_555 1_555
H5_5 N11_5 1_555 1_555
H6_5 N11_5 1_555 1_555
N18 Cu2_3 1_555 1_555
N19_3 Cu2_3 1_555 1_555
N10_3 C3_5 1_555 1_555
N3_5 N4_5 1_555 1_555
N4_5 Cu4_3 1_555 1_555
N6_5 N18 1_555 1_555
N9_5 Cu4_3 1_555 1_555
N12_5 N3_5 1_555 1_555
Cu5 N12_5 1_555 1_555
N13_5 N19_3 1_555 1_555
N15_5 Cu5 1_555 1_555
N6_5 N9_5 1_555 1_555
N13_5 N15_5 1_555 1_555
Cu7_3 N18_2 1_555 1_555
N19 Cu7_3 1_555 1_555
N3_6 N4_6 1_555 1_555
N4_6 Cu4 1_555 1_555
N9_6 Cu4 1_555 1_555
N12_6 N3_6 1_555 1_555
Cu5_2 N12_6 1_555 1_555
N15_6 Cu5_2 1_555 1_555
N16_3 Cu5_2 1_555 1_555
N6_6 N9_6 1_555 1_555
N13_6 N15_6 1_555 1_555
Cu7_3 N2_6 1_555 1_555
N1_6 C1_6 1_555 1_555
N2_6 C2_6 1_555 1_555
N5_6 H1_6 1_555 1_555
C1_6 N5_6 1_555 1_555
C2_6 N1_6 1_555 1_555
N8_6 C2_6 1_555 1_555
H2_6 N8_6 1_555 1_555
H3_6 N8_6 1_555 1_555
N16_3 C1_6 1_555 1_555
H4_6 N5_6 1_555 1_555
C3_6 N2_6 1_555 1_555
N11_6 C3_6 1_555 1_555
H5_6 N11_6 1_555 1_555
H6_6 N11_6 1_555 1_555
N16_3 C3_6 1_555 1_555

#END
