
###############################################################################
#
# This file contains modified crystal structure data generated from the
# MOF subset of the Cambridge Structural Database (CSD) v543 
# hosted by the Cambridge Crystallographic Data Centre (CCDC).
#
# This work is licensed under the Creative Commons
# Attribution-NonCommercial-ShareAlike 4.0 International License.
# To view a copy of this license, visit
# http://creativecommons.org/licenses/by-nc-sa/4.0/
# or send a letter to
# Creative Commons, PO Box 1866, Mountain View, CA 94042, USA.
#
# CIF created using the CSD Python API on 29 September 2022
# The structure has been converted into the P1 space group
# The structure has a 3D framework
# The original CSD entry IKUTIT is in the triclinic crystal system
# The framework has been calculated to contain at least 10.0% void space
# The void calculation uses a probe of radius 1.32A, grid spacing 0.4
#
###############################################################################

data_IKUTIT
_chemical_formula_moiety         '(C36 H46 Dy1 N10 O15)n'
_symmetry_cell_setting           triclinic
_symmetry_space_group_name_H-M   'P 1'
_symmetry_Int_Tables_number      1
_space_group_name_Hall           'P 1'
loop_
_symmetry_equiv_pos_site_id
_symmetry_equiv_pos_as_xyz
1 x,y,z
_cell_length_a                   10.5851(4)
_cell_length_b                   10.7883(5)
_cell_length_c                   12.8727(8)
_cell_angle_alpha                73.878(2)
_cell_angle_beta                 67.677(2)
_cell_angle_gamma                81.160(2)
_cell_volume                     1304.43
loop_
_atom_site_label
_atom_site_type_symbol
_atom_site_fract_x
_atom_site_fract_y
_atom_site_fract_z
_atom_site_U_iso_or_equiv
_atom_site_thermal_displace_type
Dy4 Dy 0.06145(2) 0.03411(2) 0.31558(2) 0.0075 Uani
C2 C 0.0370(3) 0.2563(3) 0.1522(2) 0.0156 Uani
C5 C 0.0190(3) 0.3825(3) 0.0742(2) 0.0152 Uani
C9 C 0.0689(3) 0.4620(3) 0.3960(2) 0.0186 Uani
C10 C 0.1282(3) 0.4646(3) 0.0119(2) 0.0166 Uani
N1 N 0.1386(3) 0.4309(2) 0.29271(18) 0.0190 Uani
H18 H 0.1894 0.4862 0.2356 0.0230 Uiso
H19 H 0.1319 0.3560 0.2845 0.0230 Uiso
N2 N 0.2540(2) 0.4351(2) 0.0189(2) 0.0154 Uani
H21 H 0.2699 0.3637 0.0636 0.0180 Uiso
O1 O 0.0204(2) 0.21249(18) 0.39423(16) 0.0178 Uani
O2 O 0.1534(2) 0.22296(19) 0.16249(17) 0.0184 Uani
C19 C 0.0327(3) 0.7579(3) 0.5087(2) 0.0141 Uani
C20 C 0.0153(3) 0.6238(3) 0.5071(2) 0.0159 Uani
C22 C 0.0832(3) 0.5838(3) 0.4046(2) 0.0192 Uani
H24 H 0.1395 0.6403 0.3406 0.0230 Uiso
O10 O 0.0993(2) 0.83202(18) 0.41549(16) 0.0167 Uani
O23 O 0.25670(19) 0.04913(19) 0.34986(16) 0.0174 Uani
H20 H 0.3182 0.4877 0.9787 0.0180 Uiso
C26 C 0.1082(3) 0.5814(3) 0.9383(2) 0.0167 Uani
H27 H 0.1801 0.6359 0.8970 0.0200 Uiso
O12 O 0.0622(2) 0.81613(19) 0.79085(17) 0.0211 Uani
C7 C 0.3109(3) 0.8539(3) 0.1861(3) 0.0261 Uani
H1 H 0.3541 0.8446 0.2389 0.0310 Uiso
C15 C 0.2651(5) 0.7648(4) 0.0512(4) 0.0487 Uani
H6 H 0.1947 0.8329 0.0570 0.0730 Uiso
H7 H 0.2250 0.6835 0.0713 0.0730 Uiso
C17 C 0.4270(4) 0.6494(4) 0.1501(4) 0.0542 Uani
H12 H 0.4605 0.6550 0.2082 0.0810 Uiso
H13 H 0.5026 0.6473 0.0794 0.0810 Uiso
H14 H 0.3783 0.5720 0.1757 0.0810 Uiso
N4 N 0.3346(3) 0.7624(3) 0.1302(3) 0.0341 Uani
O4 O 0.2344(2) 0.9521(2) 0.17269(17) 0.0222 Uani
C1 C 0.9673(3) 0.2421(3) 0.4913(2) 0.0141 Uani
C4 C 0.9847(3) 0.3762(3) 0.4929(2) 0.0159 Uani
H2 H 0.8558 0.0091 0.1686 0.0290 Uiso
C12 C 0.9168(3) 0.4162(3) 0.5954(2) 0.0192 Uani
H3 H 0.8605 0.3597 0.6594 0.0230 Uiso
C13 C 0.8918(3) 0.4186(3) 0.0617(2) 0.0167 Uani
H4 H 0.8199 0.3641 0.1030 0.0200 Uiso
C14 C 0.6220(3) 0.0348(3) 0.4106(2) 0.0176 Uani
H5 H 0.7042 0.0584 0.3508 0.0210 Uiso
O3 O 0.86011(19) 0.00018(19) 0.46072(17) 0.0189 Uani
O6 O 0.9007(2) 0.16798(18) 0.58451(16) 0.0167 Uani
O7 O 0.9378(2) 0.18387(19) 0.20915(17) 0.0211 Uani
C21 C 0.9311(3) 0.5380(3) 0.6040(2) 0.0186 Uani
N6 N 0.8614(3) 0.5691(2) 0.70729(18) 0.0190 Uani
H25 H 0.8106 0.5138 0.7644 0.0230 Uiso
H26 H 0.8681 0.6440 0.7155 0.0230 Uiso
O9 O 0.9796(2) 0.78751(18) 0.60577(16) 0.0178 Uani
H28 H 0.6818 0.5123 0.0213 0.0180 Uiso
C27 C 0.2499(3) 0.0202(3) 0.4548(2) 0.0153 Uani
C28 C 0.3802(3) 0.0101(3) 0.4761(2) 0.0152 Uani
C29 C 0.5041(3) 0.0451(3) 0.3854(2) 0.0170 Uani
N8 N 0.5141(2) 0.0900(2) 0.27339(18) 0.0149 Uani
H31 H 0.5920 0.1111 0.2205 0.0180 Uiso
H32 H 0.4426 0.0974 0.2552 0.0180 Uiso
C32 C 0.1175(3) 0.0756(3) 0.8028(3) 0.0246 Uani
C34 C 0.1314(4) 0.3041(3) 0.7815(3) 0.0323 Uani
H38 H 0.0714 0.3387 0.8455 0.0490 Uiso
H39 H 0.2135 0.3506 0.7441 0.0490 Uiso
H40 H 0.0866 0.3127 0.7273 0.0490 Uiso
C36 C 0.2623(4) 0.1385(4) 0.8852(3) 0.0362 Uani
H44 H 0.3445 0.1832 0.8382 0.0540 Uiso
H45 H 0.2217 0.1655 0.9565 0.0540 Uiso
H46 H 0.2839 0.0471 0.9014 0.0540 Uiso
N10 N 0.1653(3) 0.1691(3) 0.8231(2) 0.0263 Uani
O16 O 0.0392(2) 0.0936(2) 0.74806(19) 0.0268 Uani
Dy7 Dy 0.93855(2) 0.96589(2) 0.68442(2) 0.0075 Uani
C23 C 0.9630(3) 0.7437(3) 0.8478(2) 0.0156 Uani
C24 C 0.9810(3) 0.6175(3) 0.9258(2) 0.0152 Uani
C25 C 0.8718(3) 0.5354(3) 0.9881(2) 0.0166 Uani
N7 N 0.7460(2) 0.5649(2) 0.9811(2) 0.0154 Uani
H29 H 0.7301 0.6363 0.9364 0.0180 Uiso
O11 O 0.8466(2) 0.77704(19) 0.83751(17) 0.0184 Uani
C3 C 0.7501(3) 0.9798(3) 0.5452(2) 0.0153 Uani
C6 C 0.6198(3) 0.9899(3) 0.5239(2) 0.0152 Uani
C8 C 0.8825(3) 0.9244(3) 0.1972(3) 0.0246 Uani
C11 C 0.4959(3) 0.9549(3) 0.6146(2) 0.0170 Uani
C16 C 0.8686(4) 0.6959(3) 0.2185(3) 0.0323 Uani
H9 H 0.9286 0.6613 0.1545 0.0490 Uiso
H10 H 0.7865 0.6494 0.2559 0.0490 Uiso
H11 H 0.9134 0.6873 0.2727 0.0490 Uiso
C18 C 0.7377(4) 0.8615(4) 0.1148(3) 0.0362 Uani
H15 H 0.6555 0.8168 0.1618 0.0540 Uiso
H16 H 0.7783 0.8345 0.0435 0.0540 Uiso
H17 H 0.7161 0.9529 0.0986 0.0540 Uiso
N3 N 0.4859(2) 0.9100(2) 0.72661(18) 0.0149 Uani
H22 H 0.4080 0.8889 0.7795 0.0180 Uiso
H23 H 0.5574 0.9026 0.7448 0.0180 Uiso
N5 N 0.8347(3) 0.8309(3) 0.1769(2) 0.0263 Uani
O5 O 0.9608(2) 0.9064(2) 0.25194(19) 0.0268 Uani
O8 O 0.74330(19) 0.95087(19) 0.65014(16) 0.0174 Uani
C30 C 0.3780(3) 0.9652(3) 0.5894(2) 0.0176 Uani
H30 H 0.2958 0.9416 0.6492 0.0210 Uiso
O13 O 0.13989(19) 0.99982(19) 0.53928(17) 0.0189 Uani
H34 H 0.1442 0.9909 0.8314 0.0290 Uiso
C31 C 0.6891(3) 0.1461(3) 0.8139(3) 0.0261 Uani
H33 H 0.6459 0.1554 0.7611 0.0310 Uiso
C33 C 0.7349(5) 0.2352(4) 0.9488(4) 0.0487 Uani
H35 H 0.8053 0.1671 0.9430 0.0730 Uiso
H36 H 0.7750 0.3165 0.9287 0.0730 Uiso
C35 C 0.5730(4) 0.3506(4) 0.8499(4) 0.0542 Uani
H41 H 0.5395 0.3450 0.7918 0.0810 Uiso
H42 H 0.4974 0.3527 0.9206 0.0810 Uiso
H43 H 0.6217 0.4280 0.8243 0.0810 Uiso
N9 N 0.6654(3) 0.2376(3) 0.8698(3) 0.0341 Uani
O15 O 0.7656(2) 0.0479(2) 0.82731(17) 0.0222 Uani
H8 H 0.3298 0.7795 0.9734 0.0730 Uiso
H37 H 0.6702 0.2205 0.0266 0.0730 Uiso
loop_
_atom_site_aniso_label
_atom_site_aniso_U_11
_atom_site_aniso_U_22
_atom_site_aniso_U_33
_atom_site_aniso_U_23
_atom_site_aniso_U_13
_atom_site_aniso_U_12
Dy4 0.00948 0.00562 0.00866 -0.00068 -0.00537 -0.00063
C2 0.0196 0.0148 0.0119 -0.0034 -0.0055 0.0002
C5 0.0193 0.0149 0.0117 -0.0012 -0.0071 -0.0012
C9 0.0241 0.0145 0.0159 -0.0042 -0.0052 -0.0013
C10 0.0166 0.0179 0.015 -0.0018 -0.0074 0.0005
N1 0.0325 0.0081 0.008 -0.0052 0.0085 -0.0121
N2 0.0091 0.0143 0.0183 0.0065 -0.0068 -0.002
O1 0.0247 0.0122 0.0171 -0.0035 -0.008 -0.0013
O2 0.0189 0.0163 0.0176 -0.0012 -0.0074 0.0028
C19 0.0148 0.0126 0.0149 -0.0012 -0.0071 0.0002
C20 0.0189 0.0134 0.0162 -0.0018 -0.0087 -0.0001
C22 0.026 0.0132 0.0156 -0.0026 -0.0036 -0.0046
O10 0.02 0.0114 0.0179 -0.002 -0.007 -0.0005
O23 0.018 0.0187 0.0179 -0.0014 -0.0102 -0.0031
C26 0.0176 0.0158 0.0137 -0.0005 -0.0039 -0.0026
O12 0.0243 0.0178 0.0208 0.004 -0.0127 -0.004
C7 0.0216 0.0263 0.027 -0.0073 -0.0039 -0.0019
C15 0.062 0.046 0.049 -0.026 -0.022 -0.001
C17 0.042 0.037 0.077 -0.024 -0.012 0.0116
N4 0.033 0.0301 0.0414 -0.0195 -0.0103 0.0047
O4 0.0263 0.0183 0.0195 -0.0047 -0.0061 0.001
C1 0.0148 0.0126 0.0149 -0.0012 -0.0071 0.0002
C4 0.0189 0.0134 0.0162 -0.0018 -0.0087 -0.0001
C12 0.026 0.0132 0.0156 -0.0026 -0.0036 -0.0046
C13 0.0176 0.0158 0.0137 -0.0005 -0.0039 -0.0026
C14 0.0136 0.021 0.0163 -0.0018 -0.0042 -0.0031
O3 0.0131 0.0188 0.0233 -0.004 -0.0051 -0.0024
O6 0.02 0.0114 0.0179 -0.002 -0.007 -0.0005
O7 0.0243 0.0178 0.0208 0.004 -0.0127 -0.004
C21 0.0241 0.0145 0.0159 -0.0042 -0.0052 -0.0013
N6 0.0325 0.0081 0.008 -0.0052 0.0085 -0.0121
O9 0.0247 0.0122 0.0171 -0.0035 -0.008 -0.0013
C27 0.0156 0.0119 0.0198 -0.0031 -0.008 -0.0019
C28 0.0142 0.0165 0.0172 -0.0029 -0.0089 -0.001
C29 0.0158 0.0221 0.0136 -0.0021 -0.0069 -0.0018
N8 0.0093 0.0287 0.0053 0.0023 -0.0042 -0.0047
C32 0.0272 0.0255 0.0253 -0.0085 -0.0116 -0.0032
C34 0.0378 0.0302 0.0345 -0.0098 -0.0162 -0.0051
C36 0.04 0.043 0.0374 -0.0139 -0.0225 -0.0053
N10 0.0304 0.0303 0.0237 -0.0096 -0.0109 -0.0085
O16 0.0297 0.0284 0.0314 -0.0105 -0.0179 -0.0034
Dy7 0.00948 0.00562 0.00866 -0.00068 -0.00537 -0.00063
C23 0.0196 0.0148 0.0119 -0.0034 -0.0055 0.0002
C24 0.0193 0.0149 0.0117 -0.0012 -0.0071 -0.0012
C25 0.0166 0.0179 0.015 -0.0018 -0.0074 0.0005
N7 0.0091 0.0143 0.0183 0.0065 -0.0068 -0.002
O11 0.0189 0.0163 0.0176 -0.0012 -0.0074 0.0028
C3 0.0156 0.0119 0.0198 -0.0031 -0.008 -0.0019
C6 0.0142 0.0165 0.0172 -0.0029 -0.0089 -0.001
C8 0.0272 0.0255 0.0253 -0.0085 -0.0116 -0.0032
C11 0.0158 0.0221 0.0136 -0.0021 -0.0069 -0.0018
C16 0.0378 0.0302 0.0345 -0.0098 -0.0162 -0.0051
C18 0.04 0.043 0.0374 -0.0139 -0.0225 -0.0053
N3 0.0093 0.0287 0.0053 0.0023 -0.0042 -0.0047
N5 0.0304 0.0303 0.0237 -0.0096 -0.0109 -0.0085
O5 0.0297 0.0284 0.0314 -0.0105 -0.0179 -0.0034
O8 0.018 0.0187 0.0179 -0.0014 -0.0102 -0.0031
C30 0.0136 0.021 0.0163 -0.0018 -0.0042 -0.0031
O13 0.0131 0.0188 0.0233 -0.004 -0.0051 -0.0024
C31 0.0216 0.0263 0.027 -0.0073 -0.0039 -0.0019
C33 0.062 0.046 0.049 -0.026 -0.022 -0.001
C35 0.042 0.037 0.077 -0.024 -0.012 0.0116
N9 0.033 0.0301 0.0414 -0.0195 -0.0103 0.0047
O15 0.0263 0.0183 0.0195 -0.0047 -0.0061 0.001
loop_
_geom_bond_atom_site_label_1
_geom_bond_atom_site_label_2
_geom_bond_site_symmetry_1
_geom_bond_site_symmetry_2
Dy4 O1 1_555 1_555
C2 C5 1_555 1_555
C5 C10 1_555 1_555
C9 N1 1_555 1_555
C10 N2 1_555 1_555
N1 H18 1_555 1_555
H19 N1 1_555 1_555
H21 N2 1_555 1_555
O2 Dy4 1_555 1_555
C19 C20 1_555 1_555
C22 C9 1_555 1_555
H24 C22 1_555 1_555
O10 C19 1_555 1_555
O23 Dy4 1_555 1_555
C2 O2 1_555 1_555
C20 C22 1_555 1_555
H27 C26 1_555 1_555
C7 H1 1_555 1_555
C15 H6 1_555 1_555
H7 C15 1_555 1_555
C17 H12 1_555 1_555
H13 C17 1_555 1_555
H14 C17 1_555 1_555
N4 C7 1_555 1_555
C7 O4 1_555 1_555
C15 N4 1_555 1_555
C17 N4 1_555 1_555
C1 C4 1_555 1_555
C12 C4 1_555 1_555
H3 C12 1_555 1_555
H4 C13 1_555 1_555
H5 C14 1_555 1_555
O6 C1 1_555 1_555
C21 C12 1_555 1_555
N6 C21 1_555 1_555
H25 N6 1_555 1_555
H26 N6 1_555 1_555
C27 C28 1_555 1_555
C28 C29 1_555 1_555
C29 C14 1_555 1_555
N8 C29 1_555 1_555
H31 N8 1_555 1_555
H32 N8 1_555 1_555
O23 C27 1_555 1_555
C34 H38 1_555 1_555
H39 C34 1_555 1_555
H40 C34 1_555 1_555
C36 H44 1_555 1_555
H45 C36 1_555 1_555
H46 C36 1_555 1_555
N10 C32 1_555 1_555
Dy7 O9 1_555 1_555
C32 O16 1_555 1_555
C34 N10 1_555 1_555
C36 N10 1_555 1_555
C23 C24 1_555 1_555
C24 C25 1_555 1_555
N7 C25 1_555 1_555
H29 N7 1_555 1_555
O11 C23 1_555 1_555
Dy7 O11 1_555 1_555
C3 C6 1_555 1_555
C6 C11 1_555 1_555
C11 N3 1_555 1_555
C16 H9 1_555 1_555
H10 C16 1_555 1_555
H11 C16 1_555 1_555
C18 H15 1_555 1_555
H16 C18 1_555 1_555
H17 C18 1_555 1_555
N3 H22 1_555 1_555
H23 N3 1_555 1_555
N5 C8 1_555 1_555
O8 C3 1_555 1_555
C30 C11 1_555 1_555
H30 C30 1_555 1_555
C8 O5 1_555 1_555
C16 N5 1_555 1_555
C18 N5 1_555 1_555
O8 Dy7 1_555 1_555
C31 H33 1_555 1_555
C33 H35 1_555 1_555
H36 C33 1_555 1_555
C35 H41 1_555 1_555
H42 C35 1_555 1_555
H43 C35 1_555 1_555
N9 C31 1_555 1_555
C31 O15 1_555 1_555
C33 N9 1_555 1_555
C35 N9 1_555 1_555

#END
