
###############################################################################
#
# This file contains modified crystal structure data generated from the
# MOF subset of the Cambridge Structural Database (CSD) v543 
# hosted by the Cambridge Crystallographic Data Centre (CCDC).
#
# This work is licensed under the Creative Commons
# Attribution-NonCommercial-ShareAlike 4.0 International License.
# To view a copy of this license, visit
# http://creativecommons.org/licenses/by-nc-sa/4.0/
# or send a letter to
# Creative Commons, PO Box 1866, Mountain View, CA 94042, USA.
#
# CIF created using the CSD Python API on 29 September 2022
# The structure has been converted into the P1 space group
# The structure has a 3D framework
# The original CSD entry ILALUF is in the triclinic crystal system
# The framework has been calculated to contain at least 10.0% void space
# The void calculation uses a probe of radius 1.32A, grid spacing 0.4
#
###############################################################################

data_ILALUF
_chemical_formula_moiety         '(C30 H10 Ba1 N2 O12)n'
_symmetry_cell_setting           triclinic
_symmetry_space_group_name_H-M   'P 1'
_symmetry_Int_Tables_number      1
_space_group_name_Hall           'P 1'
loop_
_symmetry_equiv_pos_site_id
_symmetry_equiv_pos_as_xyz
1 x,y,z
_cell_length_a                   8.2703(9)
_cell_length_b                   8.4850(8)
_cell_length_c                   13.5087(13)
_cell_angle_alpha                81.400(8)
_cell_angle_beta                 74.519(9)
_cell_angle_gamma                75.950(8)
_cell_volume                     882.582
loop_
_atom_site_label
_atom_site_type_symbol
_atom_site_fract_x
_atom_site_fract_y
_atom_site_fract_z
_atom_site_U_iso_or_equiv
_atom_site_thermal_displace_type
Ba6 Ba 0.23071(9) 0.58020(8) 0.49714(6) 0.0250 Uani
O1 O 0.4881(12) 0.3016(11) 0.5348(7) 0.0264 Uani
C2 C 0.4416(16) 0.0539(14) 0.6334(11) 0.0234 Uani
H1 H 0.6963 0.0323 0.5651 0.0250 Uiso
H5 H 0.2107 0.0135 0.7139 0.0280 Uiso
C14 C 0.3779(15) 0.2187(16) 0.5833(10) 0.0210 Uiso
O6 O 0.2185(12) 0.2670(12) 0.5937(7) 0.0270 Uiso
Ba10 Ba 0.76929(9) 0.41980(8) 0.50286(6) 0.0250 Uani
O15 O 0.5119(12) 0.6984(11) 0.4652(7) 0.0264 Uani
O18 O 0.1043(11) 0.4130(10) 0.3867(8) 0.0267 Uani
O19 O 0.2828(13) 0.5643(12) 0.6955(7) 0.0308 Uani
N1 N 0.2632(14) 0.7267(13) 0.8171(10) 0.0290 Uani
O2 O 0.2414(17) 0.8962(14) 0.9373(10) 0.0490 Uani
C1 C 0.6729(19) 0.8220(16) 0.6482(12) 0.0303 Uani
C3 C 0.0538(16) 0.5447(15) 0.9613(11) 0.0255 Uani
C4 C 0.6172(14) 0.9762(15) 0.6090(10) 0.0210 Uani
C5 C 0.2032(19) 0.7775(17) 0.9164(12) 0.0307 Uani
C6 C 0.2261(19) 0.5978(16) 0.7827(12) 0.0322 Uani
C7 C 0.5567(17) 0.7366(17) 0.7191(11) 0.0282 Uani
H2 H 0.5941 0.6323 0.7485 0.0340 Uiso
C8 C 0.1103(18) 0.5040(17) 0.8605(12) 0.0321 Uani
C9 C 0.0933(19) 0.6802(17) 0.9942(12) 0.0315 Uani
C10 C 0.064(2) 0.3740(19) 0.8327(13) 0.0366 Uani
H3 H 0.1007 0.3473 0.7648 0.0440 Uiso
O3 O 0.8957(11) 0.5870(10) 0.6133(8) 0.0267 Uani
O5 O 0.9701(13) 0.8234(12) 0.6026(11) 0.0429 Uani
C12 C 0.8657(17) 0.7366(17) 0.6203(11) 0.0263 Uani
C13 C 0.3277(16) 0.9675(16) 0.6991(10) 0.0230 Uiso
C15 C 0.3856(16) 0.8143(16) 0.7428(10) 0.0230 Uiso
N2 N 0.7368(14) 0.2733(13) 0.1829(10) 0.0290 Uani
O8 O 0.7586(17) 0.1038(14) 0.0627(10) 0.0490 Uani
C16 C 0.3271(19) 0.1780(16) 0.3518(12) 0.0303 Uani
C18 C 0.9462(16) 0.4553(15) 0.0387(11) 0.0255 Uani
C19 C 0.3828(14) 0.0238(15) 0.3910(10) 0.0210 Uani
C20 C 0.7968(19) 0.2225(17) 0.0836(12) 0.0307 Uani
C21 C 0.7739(19) 0.4022(16) 0.2173(12) 0.0322 Uani
C22 C 0.4433(17) 0.2634(17) 0.2809(11) 0.0282 Uani
H7 H 0.4059 0.3677 0.2515 0.0340 Uiso
C23 C 0.8897(18) 0.4960(17) 0.1395(12) 0.0321 Uani
C24 C 0.9067(19) 0.3198(17) 0.0058(12) 0.0315 Uani
C25 C 0.936(2) 0.6260(19) 0.1673(13) 0.0366 Uani
H8 H 0.8993 0.6527 0.2352 0.0440 Uiso
O10 O 0.7172(13) 0.4357(12) 0.3045(7) 0.0308 Uani
O11 O 0.0299(13) 0.1766(12) 0.3974(11) 0.0429 Uani
C27 C 0.1343(17) 0.2634(17) 0.3797(11) 0.0263 Uani
C28 C 0.6723(16) 0.0325(16) 0.3009(10) 0.0230 Uiso
C30 C 0.6144(16) 0.1857(16) 0.2572(10) 0.0230 Uiso
C17 C 0.5584(16) 0.9461(14) 0.3666(11) 0.0234 Uani
H6 H 0.3037 0.9677 0.4349 0.0250 Uiso
H10 H 0.7893 0.9865 0.2861 0.0280 Uiso
C29 C 0.6221(15) 0.7813(16) 0.4167(10) 0.0210 Uiso
O12 O 0.7815(12) 0.7330(12) 0.4063(7) 0.0270 Uiso
C11 C 0.038(2) 0.717(2) 0.0927(12) 0.0405 Uani
H4 H 0.0684 0.8050 0.1116 0.0480 Uiso
C26 C 0.962(2) 0.283(2) 0.9073(12) 0.0405 Uani
H9 H 0.9316 0.1950 0.8884 0.0480 Uiso
loop_
_atom_site_aniso_label
_atom_site_aniso_U_11
_atom_site_aniso_U_22
_atom_site_aniso_U_33
_atom_site_aniso_U_23
_atom_site_aniso_U_13
_atom_site_aniso_U_12
Ba6 0.024 0.0089 0.041 0.0054 -0.003 -0.0113
O1 0.028 0.016 0.033 0.005 -0.002 -0.011
C2 0.022 0.004 0.042 0.005 -0.005 -0.006
Ba10 0.024 0.0089 0.041 0.0054 -0.003 -0.0113
O15 0.028 0.016 0.033 0.005 -0.002 -0.011
O18 0.015 0.012 0.052 0.012 -0.015 -0.002
O19 0.04 0.021 0.029 -0.002 0.008 -0.02
N1 0.025 0.016 0.042 0.006 0.002 -0.013
O2 0.07 0.033 0.052 0.002 0.001 -0.047
C1 0.036 0.011 0.045 0.002 -0.004 -0.016
C3 0.026 0.015 0.033 0.004 -0.001 -0.01
C4 0.011 0.016 0.033 0.004 0.002 -0.009
C5 0.033 0.02 0.039 0.005 0.002 -0.022
C6 0.038 0.013 0.042 0.017 -0.011 -0.009
C7 0.027 0.02 0.034 0.002 -0.003 -0.006
C8 0.028 0.018 0.047 0.008 -0.001 -0.014
C9 0.038 0.017 0.039 0.004 -0.001 -0.018
C10 0.041 0.032 0.038 -0.002 -0.001 -0.02
O3 0.015 0.012 0.052 0.012 -0.015 -0.002
O5 0.027 0.016 0.084 0.005 -0.008 -0.013
C12 0.027 0.024 0.035 -0.004 -0.011 -0.014
N2 0.025 0.016 0.042 0.006 0.002 -0.013
O8 0.07 0.033 0.052 0.002 0.001 -0.047
C16 0.036 0.011 0.045 0.002 -0.004 -0.016
C18 0.026 0.015 0.033 0.004 -0.001 -0.01
C19 0.011 0.016 0.033 0.004 0.002 -0.009
C20 0.033 0.02 0.039 0.005 0.002 -0.022
C21 0.038 0.013 0.042 0.017 -0.011 -0.009
C22 0.027 0.02 0.034 0.002 -0.003 -0.006
C23 0.028 0.018 0.047 0.008 -0.001 -0.014
C24 0.038 0.017 0.039 0.004 -0.001 -0.018
C25 0.041 0.032 0.038 -0.002 -0.001 -0.02
O10 0.04 0.021 0.029 -0.002 0.008 -0.02
O11 0.027 0.016 0.084 0.005 -0.008 -0.013
C27 0.027 0.024 0.035 -0.004 -0.011 -0.014
C17 0.022 0.004 0.042 0.005 -0.005 -0.006
C11 0.059 0.031 0.037 0.002 0 -0.036
C26 0.059 0.031 0.037 0.002 0 -0.036
loop_
_geom_bond_atom_site_label_1
_geom_bond_atom_site_label_2
_geom_bond_site_symmetry_1
_geom_bond_site_symmetry_2
Ba6 O1 1_555 1_555
O1 C14 1_555 1_555
C14 C2 1_555 1_555
O6 Ba6 1_555 1_555
Ba10 O1 1_555 1_555
O15 Ba6 1_555 1_555
O18 Ba6 1_555 1_555
O19 Ba6 1_555 1_555
C14 O6 1_555 1_555
Ba10 O15 1_555 1_555
N1 C5 1_555 1_555
O2 C5 1_555 1_555
C1 C4 1_555 1_555
C3 C8 1_555 1_555
C5 C9 1_555 1_555
C6 N1 1_555 1_555
C7 C1 1_555 1_555
H2 C7 1_555 1_555
C8 C6 1_555 1_555
C9 C3 1_555 1_555
C10 C8 1_555 1_555
H3 C10 1_555 1_555
O3 C12 1_555 1_555
O19 C6 1_555 1_555
O5 C12 1_555 1_555
C12 C1 1_555 1_555
C15 N1 1_555 1_555
Ba10 O3 1_555 1_555
C7 C15 1_555 1_555
C13 C15 1_555 1_555
N2 C20 1_555 1_555
O8 C20 1_555 1_555
C16 C19 1_555 1_555
C20 C24 1_555 1_555
C21 N2 1_555 1_555
C22 C16 1_555 1_555
H7 C22 1_555 1_555
C23 C18 1_555 1_555
C24 C18 1_555 1_555
H8 C25 1_555 1_555
O18 C27 1_555 1_555
O10 C21 1_555 1_555
O11 C27 1_555 1_555
C27 C16 1_555 1_555
C30 N2 1_555 1_555
Ba10 O10 1_555 1_555
C21 C23 1_555 1_555
C22 C30 1_555 1_555
C23 C25 1_555 1_555
C28 C30 1_555 1_555
O15 C29 1_555 1_555
C29 C17 1_555 1_555
O12 C29 1_555 1_555
O12 Ba10 1_555 1_555
H4 C11 1_555 1_555
H9 C26 1_555 1_555

#END
