
###############################################################################
#
# This file contains modified crystal structure data generated from the
# MOF subset of the Cambridge Structural Database (CSD) v543 
# hosted by the Cambridge Crystallographic Data Centre (CCDC).
#
# This work is licensed under the Creative Commons
# Attribution-NonCommercial-ShareAlike 4.0 International License.
# To view a copy of this license, visit
# http://creativecommons.org/licenses/by-nc-sa/4.0/
# or send a letter to
# Creative Commons, PO Box 1866, Mountain View, CA 94042, USA.
#
# CIF created using the CSD Python API on 29 September 2022
# The structure has been converted into the P1 space group
# The structure has a 3D framework
# The original CSD entry ILIFUE is in the trigonal crystal system
# The framework has been calculated to contain at least 10.0% void space
# The void calculation uses a probe of radius 1.32A, grid spacing 0.4
# H atom positions have been added when not included in the experimental data
#
###############################################################################

data_ILIFUE
_chemical_formula_moiety         '(C18 H24 Ce2 O22)n'
_symmetry_cell_setting           triclinic
_symmetry_space_group_name_H-M   'P 1'
_symmetry_Int_Tables_number      1
_space_group_name_Hall           'P 1'
loop_
_symmetry_equiv_pos_site_id
_symmetry_equiv_pos_as_xyz
1 x,y,z
_cell_length_a                   10.2880(15)
_cell_length_b                   10.2880(15)
_cell_length_c                   8.9427(18)
_cell_angle_alpha                90
_cell_angle_beta                 90
_cell_angle_gamma                120
_cell_volume                     819.712
loop_
_atom_site_label
_atom_site_type_symbol
_atom_site_fract_x
_atom_site_fract_y
_atom_site_fract_z
_atom_site_U_iso_or_equiv
_atom_site_thermal_displace_type
O19 O 0.1595(4) 0.4813(3) 0.1371(3) 0.0248 Uani
C13 C 0.0253(6) 0.4455(4) 0.1562(4) 0.0185 Uani
C14 C 0.0122(6) 0.4619(4) 0.4334(4) 0.0203 Uani
H9 H 0.1151 0.4799 0.4376 0.0360 Uiso
H10 H 0.0589 0.6298 0.2793 0.0430 Uiso
O21 O 0.0889(4) 0.6965(3) 0.5591(3) 0.0318 Uani
C17 C 0.0089(6) 0.4790(4) 0.7156(4) 0.0195 Uani
O22 O 0.0828(4) 0.6491(3) 0.9218(3) 0.0232 Uani
O24 O 0.1610(5) 0.5120(4) 0.7346(3) 0.0284 Uani
Ce8 Ce 0.3333 0.6667 0.95012(3) 0.0150 Uani
H16 H 0.0704876 0.736811 0.465568 . .
Ce4 Ce 0.6667 0.3333 0.04988(3) 0.0150 Uani
O30 O 0.5187(3) 0.6782(3) 0.1371(3) 0.0248 Uani
O31 O 0.3218(3) 0.8405(4) 0.1371(3) 0.0248 Uani
O1 O 0.6965(3) 0.6076(3) 0.4409(3) 0.0318 Uani
O2 O 0.6491(3) 0.5663(3) 0.0782(3) 0.0232 Uani
C1 C 0.5545(4) 0.5798(4) 0.1562(4) 0.0185 Uani
O4 O 0.5120(4) 0.3510(3) 0.2654(3) 0.0284 Uani
C2 C 0.5381(4) 0.5503(4) 0.4334(4) 0.0203 Uani
H1 H 0.5201 0.6352 0.4376 0.0360 Uiso
C3 C 0.4790(4) 0.4701(4) 0.2844(4) 0.0195 Uani
H2 H 0.3702 0.4291 0.2793 0.0430 Uiso
C4 C 0.4619(4) 0.4497(4) 0.5666(4) 0.0203 Uani
O5 O 0.3035(3) 0.3924(3) 0.5591(3) 0.0318 Uani
H3 H 0.4799 0.3648 0.5624 0.0360 Uiso
C5 C 0.5210(4) 0.5299(4) 0.7156(4) 0.0195 Uani
C6 C 0.4455(4) 0.4202(4) 0.8438(4) 0.0185 Uani
O6 O 0.3509(3) 0.4337(3) 0.9218(3) 0.0232 Uani
O7 O 0.4813(3) 0.3218(3) 0.8629(3) 0.0248 Uani
O8 O 0.4880(4) 0.6490(3) 0.7346(3) 0.0284 Uani
H4 H 0.6298 0.5709 0.7207 0.0430 Uiso
O9 O 0.3924(3) 0.0889(4) 0.4409(3) 0.0318 Uani
O10 O 0.4337(3) 0.0828(4) 0.0782(3) 0.0232 Uani
O12 O 0.6490(3) 0.1610(5) 0.2654(3) 0.0284 Uani
C9 C 0.5299(4) 0.0089(6) 0.2844(4) 0.0195 Uani
C10 C 0.5503(4) 0.0122(6) 0.5666(4) 0.0203 Uani
H7 H 0.6352 0.1151 0.5624 0.0360 Uiso
C12 C 0.5798(4) 0.0253(6) 0.8438(4) 0.0185 Uani
O15 O 0.6782(3) 0.1595(4) 0.8629(3) 0.0248 Uani
H8 H 0.4291 0.0589 0.7207 0.0430 Uiso
O17 O 0.9111(4) 0.3035(3) 0.4409(3) 0.0318 Uani
O18 O 0.9172(4) 0.3509(3) 0.0782(3) 0.0232 Uani
O20 O 0.8390(5) 0.4880(4) 0.2654(3) 0.0284 Uani
C15 C 0.9911(6) 0.5210(4) 0.2844(4) 0.0195 Uani
C16 C 0.9878(6) 0.5381(4) 0.5666(4) 0.0203 Uani
H11 H 0.8849 0.5201 0.5624 0.0360 Uiso
C18 C 0.9747(6) 0.5545(4) 0.8438(4) 0.0185 Uani
O23 O 0.8405(4) 0.5187(3) 0.8629(3) 0.0248 Uani
H12 H 0.9411 0.3702 0.7207 0.0430 Uiso
O28 O 0.5663(3) 0.9172(4) 0.9218(3) 0.0232 Uani
O33 O 0.3510(3) 0.8390(5) 0.7346(3) 0.0284 Uani
H13 H 0.336478 0.0727482 0.535985 . .
H14 H 0.263189 0.333677 0.465568 . .
H15 H 0.73627 0.663522 0.535985 . .
H18 H 0.927252 0.26373 0.535985 . .
C7 C 0.4202(4) 0.9747(6) 0.1562(4) 0.0185 Uani
C8 C 0.4497(4) 0.9878(6) 0.4334(4) 0.0203 Uani
H5 H 0.3648 0.8849 0.4376 0.0360 Uiso
H6 H 0.5709 0.9411 0.2793 0.0430 Uiso
O13 O 0.6076(3) 0.9111(4) 0.5591(3) 0.0318 Uani
C11 C 0.4701(4) 0.9911(6) 0.7156(4) 0.0195 Uani
H17 H 0.666323 0.929512 0.465568 . .
H17_2 H 0.333677 0.0704876 0.534432 . .
H13_2 H 0.663522 0.927252 0.464015 . .
H14_2 H 0.736811 0.666323 0.534432 . .
H15_2 H 0.26373 0.336478 0.464015 . .
H18_2 H 0.0727482 0.73627 0.464015 . .
H16_2 H 0.929512 0.263189 0.534432 . .
loop_
_atom_site_aniso_label
_atom_site_aniso_U_11
_atom_site_aniso_U_22
_atom_site_aniso_U_33
_atom_site_aniso_U_23
_atom_site_aniso_U_13
_atom_site_aniso_U_12
O19 0.0188 0.0268 0.0247 0.0059 0.0034 0.0083
C13 0.0201 0.0213 0.0136 0.0029 0.0013 0.0099
C14 0.02 0.0275 0.0146 -0.0023 -0.0027 0.0127
O21 0.0431 0.0241 0.0242 0.0006 -0.004 0.0138
C17 0.0196 0.0211 0.0161 -0.0022 -0.0018 0.0088
O22 0.0195 0.0279 0.0225 -0.0048 -0.0036 0.0121
O24 0.0284 0.0465 0.0216 -0.0109 -0.0079 0.0273
Ce8 0.01619 0.01619 0.01257 0 0 0.00809
Ce4 0.01619 0.01619 0.01257 0 0 0.00809
O30 0.0268 0.029 0.0247 -0.0025 -0.0059 0.0185
O31 0.029 0.0188 0.0247 -0.0034 0.0025 0.0105
O1 0.0241 0.0396 0.0242 -0.0046 -0.0006 0.0103
O2 0.0279 0.0232 0.0225 0.0012 0.0048 0.0158
C1 0.0213 0.0216 0.0136 -0.0016 -0.0029 0.0114
O4 0.0465 0.0203 0.0216 0.003 0.0109 0.0192
C2 0.0275 0.0221 0.0146 -0.0004 0.0023 0.0148
C3 0.0211 0.0231 0.0161 0.0004 0.0022 0.0123
C4 0.0275 0.0221 0.0146 -0.0004 0.0023 0.0148
O5 0.0241 0.0396 0.0242 -0.0046 -0.0006 0.0103
C5 0.0211 0.0231 0.0161 0.0004 0.0022 0.0123
C6 0.0213 0.0216 0.0136 -0.0016 -0.0029 0.0114
O6 0.0279 0.0232 0.0225 0.0012 0.0048 0.0158
O7 0.0268 0.029 0.0247 -0.0025 -0.0059 0.0185
O8 0.0465 0.0203 0.0216 0.003 0.0109 0.0192
O9 0.0396 0.0431 0.0242 0.004 0.0046 0.0293
O10 0.0232 0.0195 0.0225 0.0036 -0.0012 0.0074
O12 0.0203 0.0284 0.0216 0.0079 -0.003 0.0011
C9 0.0231 0.0196 0.0161 0.0018 -0.0004 0.0108
C10 0.0221 0.02 0.0146 0.0027 0.0004 0.0073
C12 0.0216 0.0201 0.0136 -0.0013 0.0016 0.0102
O15 0.029 0.0188 0.0247 -0.0034 0.0025 0.0105
O17 0.0431 0.0241 0.0242 0.0006 -0.004 0.0138
O18 0.0195 0.0279 0.0225 -0.0048 -0.0036 0.0121
O20 0.0284 0.0465 0.0216 -0.0109 -0.0079 0.0273
C15 0.0196 0.0211 0.0161 -0.0022 -0.0018 0.0088
C16 0.02 0.0275 0.0146 -0.0023 -0.0027 0.0127
C18 0.0201 0.0213 0.0136 0.0029 0.0013 0.0099
O23 0.0188 0.0268 0.0247 0.0059 0.0034 0.0083
O28 0.0232 0.0195 0.0225 0.0036 -0.0012 0.0074
O33 0.0203 0.0284 0.0216 0.0079 -0.003 0.0011
C7 0.0216 0.0201 0.0136 -0.0013 0.0016 0.0102
C8 0.0221 0.02 0.0146 0.0027 0.0004 0.0073
O13 0.0396 0.0431 0.0242 0.004 0.0046 0.0293
C11 0.0231 0.0196 0.0161 0.0018 -0.0004 0.0108
loop_
_geom_bond_atom_site_label_1
_geom_bond_atom_site_label_2
_geom_bond_site_symmetry_1
_geom_bond_site_symmetry_2
O19 C13 1_555 1_555
C14 H9 1_555 1_555
O24 C17 1_555 1_555
Ce8 O22 1_555 1_555
O24 Ce8 1_555 1_555
O21 H16 1_555 1_555
O1 C2 1_555 1_555
O2 C1 1_555 1_555
O30 C1 1_555 1_555
C1 C3 1_555 1_555
Ce4 O2 1_555 1_555
O4 Ce4 1_555 1_555
C2 H1 1_555 1_555
C3 O4 1_555 1_555
H2 C3 1_555 1_555
C4 C2 1_555 1_555
O5 C4 1_555 1_555
H3 C4 1_555 1_555
C5 C4 1_555 1_555
C6 C5 1_555 1_555
O6 C6 1_555 1_555
O7 C6 1_555 1_555
O8 C5 1_555 1_555
H4 C5 1_555 1_555
O10 Ce4 1_555 1_555
O12 Ce4 1_555 1_555
H7 C10 1_555 1_555
O15 C12 1_555 1_555
O18 Ce4 1_555 1_555
O20 Ce4 1_555 1_555
H11 C16 1_555 1_555
O23 C18 1_555 1_555
Ce8 O6 1_555 1_555
O28 Ce8 1_555 1_555
O33 Ce8 1_555 1_555
C2 C3 1_555 1_555
O8 Ce8 1_555 1_555
O12 C9 1_555 1_555
O20 C15 1_555 1_555
O9 H13 1_555 1_555
O5 H14 1_555 1_555
O1 H15 1_555 1_555
O17 H18 1_555 1_555
O31 C7 1_555 1_555
C8 H5 1_555 1_555
O33 C11 1_555 1_555
O13 H17 1_555 1_555
O9 H17_2 1_555 1_555
O13 H13_2 1_555 1_555
O1 H14_2 1_555 1_555
O5 H15_2 1_555 1_555
O21 H18_2 1_555 1_555
O17 H16_2 1_555 1_555

#END
