
###############################################################################
#
# This file contains modified crystal structure data generated from the
# MOF subset of the Cambridge Structural Database (CSD) v543 
# hosted by the Cambridge Crystallographic Data Centre (CCDC).
#
# This work is licensed under the Creative Commons
# Attribution-NonCommercial-ShareAlike 4.0 International License.
# To view a copy of this license, visit
# http://creativecommons.org/licenses/by-nc-sa/4.0/
# or send a letter to
# Creative Commons, PO Box 1866, Mountain View, CA 94042, USA.
#
# CIF created using the CSD Python API on 29 September 2022
# The structure has been converted into the P1 space group
# The structure has a 3D framework
# The original CSD entry ILIQEB is in the triclinic crystal system
# The framework has been calculated to contain at least 10.0% void space
# The void calculation uses a probe of radius 1.32A, grid spacing 0.4
#
###############################################################################

data_ILIQEB
_chemical_formula_moiety         '(C28 H24 Cd2 N2 O8)n'
_symmetry_cell_setting           triclinic
_symmetry_space_group_name_H-M   'P 1'
_symmetry_Int_Tables_number      1
_space_group_name_Hall           'P 1'
loop_
_symmetry_equiv_pos_site_id
_symmetry_equiv_pos_as_xyz
1 x,y,z
_cell_length_a                   9.75(2)
_cell_length_b                   9.88(2)
_cell_length_c                   9.88(1)
_cell_angle_alpha                90.36(3)
_cell_angle_beta                 92.73(3)
_cell_angle_gamma                117.33(5)
_cell_volume                     844.12
loop_
_atom_site_label
_atom_site_type_symbol
_atom_site_fract_x
_atom_site_fract_y
_atom_site_fract_z
_atom_site_U_iso_or_equiv
_atom_site_thermal_displace_type
Cd6 Cd 0.55663(3) 0.72525(3) 0.02187(2) 0.0200 Uani
O8 O 0.3603(2) 0.4761(3) 0.0791(2) 0.0273 Uani
C19 C 0.2347(3) 0.3972(4) 0.0119(3) 0.0227 Uani
C20 C 0.1110(3) 0.4483(3) 0.0069(3) 0.0193 Uani
C21 C 0.1197(3) 0.5585(3) 0.0989(3) 0.0211 Uani
C22 C 0.0100(3) 0.6108(3) 0.0925(3) 0.0228 Uani
H15 H 0.2069 0.6000 0.1703 0.0912 Uiso
H16 H 0.0031 0.6736 0.1604 0.0912 Uiso
N2 N 0.4079(3) 0.6765(3) 0.8246(2) 0.0210 Uani
C23 C 0.3941(4) 0.5716(4) 0.7309(3) 0.0292 Uani
C24 C 0.2908(4) 0.5325(4) 0.6182(3) 0.0341 Uani
C25 C 0.1983(4) 0.6031(4) 0.5995(3) 0.0281 Uani
C26 C 0.2132(4) 0.7117(4) 0.6952(3) 0.0296 Uani
C27 C 0.3179(4) 0.7453(4) 0.8058(3) 0.0268 Uani
C28 C 0.0807(4) 0.5600(4) 0.4804(3) 0.0361 Uani
H17 H 0.4571 0.5219 0.7421 0.0354 Uiso
H18 H 0.2980 0.4573 0.5567 0.0912 Uiso
H19 H 0.1552 0.7665 0.6933 0.0912 Uiso
H20 H 0.3263 0.8202 0.8708 0.0319 Uiso
H21 H 0.0654 0.6585 0.4573 0.0912 Uiso
H22 H 0.1060 0.5086 0.4075 0.0912 Uiso
O9 O 0.2102(3) 0.2770(3) 0.9481(2) 0.0321 Uani
Cd3 Cd 0.44337(3) 0.27475(3) 0.97813(2) 0.0200 Uani
O1 O 0.2910(2) 0.0259(2) 0.0401(2) 0.0292 Uani
O5 O 0.7898(3) 0.7230(3) 0.0519(2) 0.0321 Uani
N1 N 0.5921(3) 0.3235(3) 0.1754(2) 0.0210 Uani
C9 C 0.6059(4) 0.4284(4) 0.2691(3) 0.0292 Uani
C10 C 0.7092(4) 0.4675(4) 0.3818(3) 0.0341 Uani
C11 C 0.8017(4) 0.3969(4) 0.4005(3) 0.0281 Uani
C12 C 0.7868(4) 0.2883(4) 0.3048(3) 0.0296 Uani
C13 C 0.6821(4) 0.2547(4) 0.1942(3) 0.0268 Uani
C14 C 0.9193(4) 0.4400(4) 0.5196(3) 0.0361 Uani
H2 H 0.2124 0.0227 0.0689 0.0912 Uiso
H7 H 0.5429 0.4781 0.2579 0.0354 Uiso
H8 H 0.7020 0.5427 0.4433 0.0912 Uiso
H9 H 0.8448 0.2335 0.3067 0.0912 Uiso
H10 H 0.6737 0.1798 0.1292 0.0319 Uiso
H11 H 0.9346 0.3415 0.5427 0.0912 Uiso
H12 H 0.8940 0.4914 0.5925 0.0912 Uiso
O2 O 0.4176(3) 0.2215(3) 0.7514(2) 0.0343 Uani
O3 O 0.5644(2) 0.1366(2) 0.8579(2) 0.0251 Uani
O4 O 0.6397(2) 0.5239(3) 0.9209(2) 0.0273 Uani
C1 C 0.4949(4) 0.1493(3) 0.7523(3) 0.0225 Uani
C2 C 0.5016(4) 0.0747(3) 0.6210(3) 0.0215 Uani
C3 C 0.4021(4) 0.0647(4) 0.5118(3) 0.0293 Uani
C4 C 0.5989(4) 0.0092(4) 0.6082(3) 0.0285 Uani
C5 C 0.7653(3) 0.6028(4) 0.9881(3) 0.0227 Uani
C6 C 0.8890(3) 0.5517(3) 0.9931(3) 0.0193 Uani
C7 C 0.8803(3) 0.4415(3) 0.9011(3) 0.0211 Uani
C8 C 0.9900(3) 0.3892(3) 0.9075(3) 0.0228 Uani
H3 H 0.3277 0.1123 0.5178 0.0912 Uiso
H4 H 0.6623 0.0127 0.6872 0.0912 Uiso
H5 H 0.7931 0.4000 0.8297 0.0912 Uiso
H6 H 0.9969 0.3264 0.8396 0.0912 Uiso
O6 O 0.5824(3) 0.7785(3) 0.2486(2) 0.0343 Uani
O7 O 0.4356(2) 0.8634(2) 0.1421(2) 0.0251 Uani
C15 C 0.5051(4) 0.8507(3) 0.2477(3) 0.0225 Uani
C16 C 0.4984(4) 0.9253(3) 0.3790(3) 0.0215 Uani
C17 C 0.5979(4) 0.9353(4) 0.4882(3) 0.0293 Uani
C18 C 0.4011(4) 0.9908(4) 0.3918(3) 0.0285 Uani
H13 H 0.6723 0.8877 0.4822 0.0912 Uiso
H14 H 0.3377 0.9873 0.3128 0.0912 Uiso
O10 O 0.7090(2) 0.9741(2) 0.9599(2) 0.0292 Uani
H24 H 0.7876 0.9773 0.9311 0.0912 Uiso
H23 H 0.6652 0.0311 0.9243 0.0912 Uiso
H1 H 0.3348 0.9689 0.0757 0.0912 Uiso
loop_
_atom_site_aniso_label
_atom_site_aniso_U_11
_atom_site_aniso_U_22
_atom_site_aniso_U_33
_atom_site_aniso_U_23
_atom_site_aniso_U_13
_atom_site_aniso_U_12
Cd6 0.0207 0.024 0.0192 -0.00646 -0.00528 0.01434
O8 0.017 0.031 0.036 0.005 -0.0014 0.013
C19 0.021 0.025 0.028 0.009 0.007 0.015
C20 0.018 0.019 0.024 0.003 0.002 0.011
C21 0.018 0.023 0.024 -0.001 0 0.011
C22 0.02 0.021 0.028 -0.003 0.002 0.01
N2 0.023 0.022 0.019 -0.002 -0.006 0.012
C23 0.031 0.036 0.027 -0.009 -0.009 0.022
C24 0.039 0.04 0.025 -0.012 -0.011 0.021
C25 0.023 0.031 0.024 0 -0.008 0.008
C26 0.028 0.029 0.033 0 -0.008 0.015
C27 0.027 0.023 0.029 -0.005 -0.006 0.011
C28 0.033 0.045 0.025 -0.002 -0.016 0.015
O9 0.03 0.033 0.045 -0.007 -0.002 0.025
Cd3 0.0207 0.024 0.0192 -0.00646 -0.00528 0.01434
O1 0.029 0.023 0.038 0.0022 0.001 0.014
O5 0.03 0.033 0.045 -0.007 -0.002 0.025
N1 0.023 0.022 0.019 -0.002 -0.006 0.012
C9 0.031 0.036 0.027 -0.009 -0.009 0.022
C10 0.039 0.04 0.025 -0.012 -0.011 0.021
C11 0.023 0.031 0.024 0 -0.008 0.008
C12 0.028 0.029 0.033 0 -0.008 0.015
C13 0.027 0.023 0.029 -0.005 -0.006 0.011
C14 0.033 0.045 0.025 -0.002 -0.016 0.015
O2 0.053 0.047 0.022 -0.009 -0.002 0.04
O3 0.03 0.031 0.018 -0.0073 -0.0052 0.018
O4 0.017 0.031 0.036 0.005 -0.0014 0.013
C1 0.025 0.021 0.021 -0.003 0.004 0.01
C2 0.027 0.021 0.019 -0.002 0.003 0.013
C3 0.035 0.04 0.025 -0.007 -0.001 0.028
C4 0.034 0.04 0.019 -0.005 -0.003 0.024
C5 0.021 0.025 0.028 0.009 0.007 0.015
C6 0.018 0.019 0.024 0.003 0.002 0.011
C7 0.018 0.023 0.024 -0.001 0 0.011
C8 0.02 0.021 0.028 -0.003 0.002 0.01
O6 0.053 0.047 0.022 -0.009 -0.002 0.04
O7 0.03 0.031 0.018 -0.0073 -0.0052 0.018
C15 0.025 0.021 0.021 -0.003 0.004 0.01
C16 0.027 0.021 0.019 -0.002 0.003 0.013
C17 0.035 0.04 0.025 -0.007 -0.001 0.028
C18 0.034 0.04 0.019 -0.005 -0.003 0.024
O10 0.029 0.023 0.038 0.0022 0.001 0.014
loop_
_geom_bond_atom_site_label_1
_geom_bond_atom_site_label_2
_geom_bond_site_symmetry_1
_geom_bond_site_symmetry_2
O8 C19 1_555 1_555
C19 C20 1_555 1_555
C21 C20 1_555 1_555
H15 C21 1_555 1_555
H16 C22 1_555 1_555
N2 C23 1_555 1_555
C23 C24 1_555 1_555
C24 C25 1_555 1_555
C25 C26 1_555 1_555
C26 C27 1_555 1_555
C27 N2 1_555 1_555
H17 C23 1_555 1_555
H18 C24 1_555 1_555
H19 C26 1_555 1_555
H20 C27 1_555 1_555
H21 C28 1_555 1_555
H22 C28 1_555 1_555
Cd6 O8 1_555 1_555
C21 C22 1_555 1_555
C25 C28 1_555 1_555
O9 Cd3 1_555 1_555
C9 N1 1_555 1_555
C10 C9 1_555 1_555
C11 C10 1_555 1_555
C12 C11 1_555 1_555
C13 N1 1_555 1_555
C14 C11 1_555 1_555
H2 O1 1_555 1_555
H7 C9 1_555 1_555
H8 C10 1_555 1_555
H9 C12 1_555 1_555
H10 C13 1_555 1_555
H11 C14 1_555 1_555
H12 C14 1_555 1_555
O5 Cd6 1_555 1_555
C12 C13 1_555 1_555
O2 Cd3 1_555 1_555
O3 Cd3 1_555 1_555
O4 Cd3 1_555 1_555
C1 O2 1_555 1_555
C2 C1 1_555 1_555
C3 C2 1_555 1_555
C4 C2 1_555 1_555
C5 O4 1_555 1_555
C6 C5 1_555 1_555
C7 C6 1_555 1_555
C8 C7 1_555 1_555
H3 C3 1_555 1_555
H4 C4 1_555 1_555
H5 C7 1_555 1_555
H6 C8 1_555 1_555
O3 C1 1_555 1_555
O6 C15 1_555 1_555
O7 C15 1_555 1_555
C15 C16 1_555 1_555
C16 C17 1_555 1_555
H13 C17 1_555 1_555
H14 C18 1_555 1_555
Cd6 O6 1_555 1_555
O7 Cd6 1_555 1_555
C16 C18 1_555 1_555
H24 O10 1_555 1_555

#END
