
###############################################################################
#
# This file contains modified crystal structure data generated from the
# MOF subset of the Cambridge Structural Database (CSD) v543 
# hosted by the Cambridge Crystallographic Data Centre (CCDC).
#
# This work is licensed under the Creative Commons
# Attribution-NonCommercial-ShareAlike 4.0 International License.
# To view a copy of this license, visit
# http://creativecommons.org/licenses/by-nc-sa/4.0/
# or send a letter to
# Creative Commons, PO Box 1866, Mountain View, CA 94042, USA.
#
# CIF created using the CSD Python API on 29 September 2022
# The structure has been converted into the P1 space group
# The structure has a 3D framework
# The original CSD entry ILOJEZ is in the monoclinic crystal system
# The framework has been calculated to contain at least 10.0% void space
# The void calculation uses a probe of radius 1.32A, grid spacing 0.4
#
###############################################################################

data_ILOJEZ
_chemical_formula_moiety         '(C92 H68 N24 O15 Zn4)n'
_symmetry_cell_setting           triclinic
_symmetry_space_group_name_H-M   'P 1'
_symmetry_Int_Tables_number      1
_space_group_name_Hall           'P 1'
loop_
_symmetry_equiv_pos_site_id
_symmetry_equiv_pos_as_xyz
1 x,y,z
_cell_length_a                   14.967(5)
_cell_length_b                   14.962(5)
_cell_length_c                   10.836(4)
_cell_angle_alpha                90
_cell_angle_beta                 92.494(5)
_cell_angle_gamma                90
_cell_volume                     2424.27
loop_
_atom_site_label
_atom_site_type_symbol
_atom_site_fract_x
_atom_site_fract_y
_atom_site_fract_z
C22 C 0.0091(5) 0.0629(5) 0.5920(8)
H17 H 0.0149 0.1054 0.6543
O11 O 0.1408(4) 0.0048(4) 0.7888(6)
Zn5 Zn 0.12123(7) 0.65761(6) 0.42952(10)
Zn6 Zn 0.12123(7) 0.84239(6) 0.92952(10)
C42 C 0.0881(6) 0.8273(5) 0.5242(8)
C43 C 0.0364(5) 0.9152(5) 0.5172(8)
C44 C 0.0466(5) 0.9780(5) 0.6112(8)
C46 C 0.0851(6) 0.9554(7) 0.7387(9)
O5 O 0.0490(4) 0.7622(4) 0.4630(6)
O7 O 0.1607(4) 0.8230(3) 0.5770(5)
O8 O 0.0537(4) 0.8848(4) 0.7853(6)
Zn1 Zn 0.87877(7) 0.34239(6) 0.57048(10)
C1 C 0.7084(7) 0.3623(7) 0.7053(10)
H1 H 0.7341 0.4102 0.7485
C2 C 0.6930(6) 0.2543(6) 0.5859(9)
H2 H 0.7024 0.2095 0.5284
C3 C 0.5363(6) 0.2117(7) 0.6430(10)
H3 H 0.5339 0.1742 0.5699
H4 H 0.4857 0.2522 0.6366
C4 C 0.5268(8) 0.1534(7) 0.7546(10)
C5 C 0.5983(8) 0.1165(8) 0.8146(12)
H5 H 0.6554 0.1306 0.7899
C6 C 0.5888(7) 0.0583(8) 0.9119(11)
H6 H 0.6397 0.0355 0.9529
C7 C 0.5056(8) 0.0332(6) 0.9500(10)
C8 C 0.4336(8) 0.0748(8) 0.8921(14)
H7 H 0.3762 0.0628 0.9174
C9 C 0.4453(8) 0.1346(8) 0.7963(14)
H8 H 0.3954 0.1627 0.7597
C10 C 0.5439(6) 0.5153(6) 0.0241(9)
C11 C 0.5553(6) 0.5689(7) 0.1261(10)
H9 H 0.5051 0.5903 0.1644
C12 C 0.6398(7) 0.5922(7) 0.1739(9)
H10 H 0.6443 0.6282 0.2439
C13 C 0.7156(7) 0.5646(6) 0.1226(10)
C14 C 0.7057(7) 0.5150(7) 0.0161(10)
C16 C 0.8077(6) 0.5802(6) 0.1827(9)
H13 H 0.8516 0.5869 0.1201
H14 H 0.8078 0.6341 0.2324
C17 C 0.8524(6) 0.4959(6) 0.3808(9)
H15 H 0.8579 0.5439 0.4350
C18 C 0.8497(6) 0.3669(6) 0.3041(9)
H16 H 0.8541 0.3051 0.2980
C19 C 0.9119(6) 0.1727(5) 0.4758(8)
C20 C 0.9636(5) 0.0848(5) 0.4828(8)
C21 C 0.9534(5) 0.0220(5) 0.3888(8)
C23 C 0.9149(6) 0.0446(7) 0.2613(9)
N1 N 0.7535(5) 0.3172(5) 0.6205(7)
N2 N 0.6280(6) 0.3362(6) 0.7241(8)
N3 N 0.6196(6) 0.2649(5) 0.6442(8)
N4 N 0.8662(5) 0.4110(5) 0.4115(7)
N5 N 0.8271(5) 0.4180(5) 0.2089(8)
N6 N 0.8295(4) 0.5023(5) 0.2608(7)
O1 O 0.9510(4) 0.2378(4) 0.5370(6)
O2 O 0.8393(4) 0.1770(3) 0.4230(5)
O3 O 0.9463(4) 0.1152(4) 0.2147(6)
Zn3 Zn 0.87877(7) 0.15761(6) 0.07048(10)
H28 H 0.2438 0.5028 0.0245
C38 C 0.3799(7) 0.5094(7) 0.0326(9)
H29 H 0.3846 0.5430 0.1048
O9 O 0.9463(4) 0.3848(4) 0.7147(6)
H11 H 0.7562 0.4972 0.9755
C15 C 0.6201(7) 0.4906(7) 0.9674(9)
H12 H 0.6154 0.4570 0.8952
C33 C 0.4561(6) 0.4847(6) 0.9759(9)
C34 C 0.4447(6) 0.4311(7) 0.8739(10)
H26 H 0.4949 0.4097 0.8356
C35 C 0.3602(7) 0.4078(7) 0.8261(9)
H27 H 0.3557 0.3718 0.7561
C36 C 0.2844(7) 0.4354(6) 0.8774(10)
C37 C 0.2943(7) 0.4850(7) 0.9839(10)
C39 C 0.1923(6) 0.4198(6) 0.8173(9)
H30 H 0.1484 0.4131 0.8799
H31 H 0.1922 0.3659 0.7676
C40 C 0.1476(6) 0.5041(6) 0.6192(9)
H32 H 0.1421 0.4561 0.5650
C41 C 0.1503(6) 0.6331(6) 0.6959(9)
H33 H 0.1459 0.6949 0.7020
N10 N 0.1338(5) 0.5890(5) 0.5885(7)
N12 N 0.1729(5) 0.5820(5) 0.7911(8)
N13 N 0.1705(4) 0.4977(5) 0.7392(7)
C24 C 0.2916(7) 0.6377(7) 0.2947(10)
H18 H 0.2659 0.5898 0.2515
C25 C 0.3070(6) 0.7457(6) 0.4141(9)
H19 H 0.2976 0.7905 0.4716
C26 C 0.4637(6) 0.7883(7) 0.3570(10)
H20 H 0.4661 0.8258 0.4301
H21 H 0.5143 0.7478 0.3634
C27 C 0.4732(8) 0.8466(7) 0.2454(10)
C28 C 0.4017(8) 0.8835(8) 0.1854(12)
H22 H 0.3446 0.8694 0.2101
C29 C 0.4112(7) 0.9417(8) 0.0881(11)
H23 H 0.3603 0.9645 0.0471
C30 C 0.4944(8) 0.9668(6) 0.0500(10)
C31 C 0.5664(8) 0.9252(8) 0.1079(14)
H24 H 0.6238 0.9372 0.0826
C32 C 0.5547(8) 0.8654(8) 0.2037(14)
H25 H 0.6046 0.8373 0.2403
N7 N 0.2465(5) 0.6828(5) 0.3795(7)
N8 N 0.3720(6) 0.6638(6) 0.2759(8)
N9 N 0.3804(6) 0.7351(5) 0.3558(8)
O10 O 0.0537(4) 0.6152(4) 0.2853(6)
C10_2 C 0.4561(6) 0.0153(6) 0.4759(9)
C11_2 C 0.4447(6) 0.0689(7) 0.3739(10)
H9_2 H 0.4949 0.0903 0.3356
C12_2 C 0.3602(7) 0.0922(7) 0.3261(9)
H10_2 H 0.3557 0.1282 0.2561
C13_2 C 0.2844(7) 0.0646(6) 0.3774(10)
C14_2 C 0.2943(7) 0.0150(7) 0.4839(10)
C16_2 C 0.1923(6) 0.0802(6) 0.3173(9)
H13_2 H 0.1484 0.0869 0.3799
H14_2 H 0.1922 0.1341 0.2676
H15_2 H 0.1421 0.0439 0.0650
N6_2 N 0.1705(4) 0.0023(5) 0.2392(7)
H28_2 H 0.7562 0.0028 0.4755
C38_2 C 0.6201(7) 0.0094(7) 0.4674(9)
H29_2 H 0.6154 0.0430 0.3952
C40_2 C 0.8524(6) 0.0041(6) 0.8808(9)
C41_2 C 0.8497(6) 0.1331(6) 0.8041(9)
H33_2 H 0.8541 0.1949 0.7980
N10_2 N 0.8662(5) 0.0890(5) 0.9115(7)
N12_2 N 0.8271(5) 0.0820(5) 0.7089(8)
H11_2 H 0.2438 0.9972 0.5245
C15_2 C 0.3799(7) 0.9906(7) 0.5326(9)
H12_2 H 0.3846 0.9570 0.6048
C17_2 C 0.1476(6) 0.9959(6) 0.1192(9)
C18_2 C 0.1503(6) 0.8669(6) 0.1959(9)
H16_2 H 0.1459 0.8051 0.2020
C19_2 C 0.0881(6) 0.6727(5) 0.0242(8)
C20_2 C 0.0364(5) 0.5848(5) 0.0172(8)
C21_2 C 0.0466(5) 0.5220(5) 0.1112(8)
C23_2 C 0.0851(6) 0.5446(7) 0.2387(9)
N4_2 N 0.1338(5) 0.9110(5) 0.0885(7)
N5_2 N 0.1729(5) 0.9180(5) 0.2911(8)
O2_2 O 0.1607(4) 0.6770(3) 0.0770(5)
O4 O 0.1408(4) 0.4952(4) 0.2888(6)
C33_2 C 0.5439(6) 0.9847(6) 0.5241(9)
C34_2 C 0.5553(6) 0.9311(7) 0.6261(10)
H26_2 H 0.5051 0.9097 0.6644
C35_2 C 0.6398(7) 0.9078(7) 0.6739(9)
H27_2 H 0.6443 0.8718 0.7439
C36_2 C 0.7156(7) 0.9354(6) 0.6226(10)
C37_2 C 0.7057(7) 0.9850(7) 0.5161(10)
C39_2 C 0.8077(6) 0.9198(6) 0.6827(9)
H30_2 H 0.8516 0.9131 0.6201
H31_2 H 0.8078 0.8659 0.7324
H32_2 H 0.8579 0.9561 0.9350
C45 C 0.0091(5) 0.4371(5) 0.0920(8)
H34 H 0.0149 0.3946 0.1543
N13_2 N 0.8295(4) 0.9977(5) 0.7608(7)
C1_2 C 0.2916(7) 0.8623(7) 0.7947(10)
H1_2 H 0.2659 0.9102 0.7515
C2_2 C 0.3070(6) 0.7543(6) 0.9141(9)
H2_2 H 0.2976 0.7095 0.9716
C3_2 C 0.4637(6) 0.7117(7) 0.8570(10)
H3_2 H 0.4661 0.6742 0.9301
H4_2 H 0.5143 0.7522 0.8634
C4_2 C 0.4732(8) 0.6534(7) 0.7454(10)
C5_2 C 0.4017(8) 0.6165(8) 0.6854(12)
H5_2 H 0.3446 0.6306 0.7101
C6_2 C 0.4112(7) 0.5583(8) 0.5881(11)
H6_2 H 0.3603 0.5355 0.5471
C7_2 C 0.4944(8) 0.5332(6) 0.5500(10)
C8_2 C 0.5664(8) 0.5748(8) 0.6079(14)
H7_2 H 0.6238 0.5628 0.5826
C9_2 C 0.5547(8) 0.6346(8) 0.7037(14)
H8_2 H 0.6046 0.6627 0.7403
N1_2 N 0.2465(5) 0.8172(5) 0.8795(7)
N2_2 N 0.3720(6) 0.8362(6) 0.7759(8)
N3_2 N 0.3804(6) 0.7649(5) 0.8558(8)
O1_2 O 0.0490(4) 0.7378(4) 0.9630(6)
C24_2 C 0.7084(7) 0.1377(7) 0.2053(10)
H18_2 H 0.7341 0.0898 0.2485
C25_2 C 0.6930(6) 0.2457(6) 0.0859(9)
H19_2 H 0.7024 0.2905 0.0284
C26_2 C 0.5363(6) 0.2883(7) 0.1430(10)
H20_2 H 0.5339 0.3258 0.0699
H21_2 H 0.4857 0.2478 0.1366
C27_2 C 0.5268(8) 0.3466(7) 0.2546(10)
C28_2 C 0.5983(8) 0.3835(8) 0.3146(12)
H22_2 H 0.6554 0.3694 0.2899
C29_2 C 0.5888(7) 0.4417(8) 0.4119(11)
H23_2 H 0.6397 0.4645 0.4529
C30_2 C 0.5056(8) 0.4668(6) 0.4500(10)
C31_2 C 0.4336(8) 0.4252(8) 0.3921(14)
H24_2 H 0.3762 0.4372 0.4174
C32_2 C 0.4453(8) 0.3654(8) 0.2963(14)
H25_2 H 0.3954 0.3373 0.2597
N7_2 N 0.7535(5) 0.1828(5) 0.1205(7)
N8_2 N 0.6280(6) 0.1638(6) 0.2241(8)
N9_2 N 0.6196(6) 0.2351(5) 0.1442(8)
O6 O 0.9510(4) 0.2622(4) 0.0370(6)
C22_2 C 0.9909(5) 0.5629(5) 0.9080(8)
H17_2 H 0.9851 0.6054 0.8457
C42_2 C 0.9119(6) 0.3273(5) 0.9758(8)
C43_2 C 0.9636(5) 0.4152(5) 0.9828(8)
C44_2 C 0.9534(5) 0.4780(5) 0.8888(8)
C46_2 C 0.9149(6) 0.4554(7) 0.7613(9)
O7_2 O 0.8393(4) 0.3230(3) 0.9230(5)
O11_2 O 0.8592(4) 0.5048(4) 0.7112(6)
O4_2 O 0.8592(4) 0.9952(4) 0.2112(6)
C45_2 C 0.9909(5) 0.9371(5) 0.4080(8)
H34_2 H 0.9851 0.8946 0.3457
loop_
_geom_bond_atom_site_label_1
_geom_bond_atom_site_label_2
_geom_bond_site_symmetry_1
_geom_bond_site_symmetry_2
H17 C22 1_555 1_555
Zn5 O5 1_555 1_555
Zn6 O8 1_555 1_555
C42 C43 1_555 1_555
C43 C44 1_555 1_555
C46 C44 1_555 1_555
O5 C42 1_555 1_555
O7 C42 1_555 1_555
O8 C46 1_555 1_555
Zn1 N1 1_555 1_555
C1 H1 1_555 1_555
C2 H2 1_555 1_555
C3 H3 1_555 1_555
H4 C3 1_555 1_555
C4 C3 1_555 1_555
C5 C4 1_555 1_555
H5 C5 1_555 1_555
C6 C5 1_555 1_555
H6 C6 1_555 1_555
C7 C6 1_555 1_555
C8 C7 1_555 1_555
H7 C8 1_555 1_555
C9 C4 1_555 1_555
H8 C9 1_555 1_555
C10 C11 1_555 1_555
C11 H9 1_555 1_555
C12 C11 1_555 1_555
H10 C12 1_555 1_555
C13 C12 1_555 1_555
C14 C13 1_555 1_555
C16 C13 1_555 1_555
H13 C16 1_555 1_555
H14 C16 1_555 1_555
C17 H15 1_555 1_555
C18 H16 1_555 1_555
C19 C20 1_555 1_555
C20 C21 1_555 1_555
C21 C23 1_555 1_555
C23 O3 1_555 1_555
N1 C1 1_555 1_555
N2 C1 1_555 1_555
N3 C2 1_555 1_555
N4 Zn1 1_555 1_555
N5 C18 1_555 1_555
N6 C16 1_555 1_555
O1 Zn1 1_555 1_555
O2 C19 1_555 1_555
O3 Zn3 1_555 1_555
H29 C38 1_555 1_555
O9 Zn1 1_555 1_555
C2 N1 1_555 1_555
C3 N3 1_555 1_555
C8 C9 1_555 1_555
C17 N4 1_555 1_555
C17 N6 1_555 1_555
C18 N4 1_555 1_555
C19 O1 1_555 1_555
N2 N3 1_555 1_555
N5 N6 1_555 1_555
H12 C15 1_555 1_555
Zn5 N10 1_555 1_555
C34 C33 1_555 1_555
H26 C34 1_555 1_555
C35 C34 1_555 1_555
H27 C35 1_555 1_555
C36 C35 1_555 1_555
C37 C36 1_555 1_555
C39 C36 1_555 1_555
H30 C39 1_555 1_555
H31 C39 1_555 1_555
C40 H32 1_555 1_555
C41 H33 1_555 1_555
N10 C40 1_555 1_555
N12 C41 1_555 1_555
N13 C39 1_555 1_555
C40 N13 1_555 1_555
C41 N10 1_555 1_555
N12 N13 1_555 1_555
Zn5 N7 1_555 1_555
C24 H18 1_555 1_555
C25 H19 1_555 1_555
C26 H20 1_555 1_555
H21 C26 1_555 1_555
C27 C26 1_555 1_555
C28 C27 1_555 1_555
H22 C28 1_555 1_555
C29 C28 1_555 1_555
H23 C29 1_555 1_555
C31 C30 1_555 1_555
H24 C31 1_555 1_555
C32 C27 1_555 1_555
H25 C32 1_555 1_555
N7 C24 1_555 1_555
N8 C24 1_555 1_555
N9 C25 1_555 1_555
O10 Zn5 1_555 1_555
C25 N7 1_555 1_555
C26 N9 1_555 1_555
C29 C30 1_555 1_555
C31 C32 1_555 1_555
N8 N9 1_555 1_555
C10_2 C11_2 1_555 1_555
C11_2 H9_2 1_555 1_555
C12_2 C11_2 1_555 1_555
H10_2 C12_2 1_555 1_555
C13_2 C12_2 1_555 1_555
C14_2 C13_2 1_555 1_555
C16_2 C13_2 1_555 1_555
H13_2 C16_2 1_555 1_555
H14_2 C16_2 1_555 1_555
N6_2 C16_2 1_555 1_555
H29_2 C38_2 1_555 1_555
C41_2 H33_2 1_555 1_555
N10_2 C40_2 1_555 1_555
N12_2 C41_2 1_555 1_555
C41_2 N10_2 1_555 1_555
H12_2 C15_2 1_555 1_555
C18_2 H16_2 1_555 1_555
C19_2 C20_2 1_555 1_555
C20_2 C21_2 1_555 1_555
C21_2 C23_2 1_555 1_555
C23_2 O10 1_555 1_555
N5_2 C18_2 1_555 1_555
O2_2 C19_2 1_555 1_555
O4 C23_2 1_555 1_555
C34_2 C33_2 1_555 1_555
H26_2 C34_2 1_555 1_555
C35_2 C34_2 1_555 1_555
H27_2 C35_2 1_555 1_555
C36_2 C35_2 1_555 1_555
C37_2 C36_2 1_555 1_555
C39_2 C36_2 1_555 1_555
H30_2 C39_2 1_555 1_555
H31_2 C39_2 1_555 1_555
C45 C21_2 1_555 1_555
H34 C45 1_555 1_555
N13_2 C39_2 1_555 1_555
C17_2 N4_2 1_555 1_555
C18_2 N4_2 1_555 1_555
Zn6 N1_2 1_555 1_555
C1_2 H1_2 1_555 1_555
C2_2 H2_2 1_555 1_555
C3_2 H3_2 1_555 1_555
H4_2 C3_2 1_555 1_555
C4_2 C3_2 1_555 1_555
C5_2 C4_2 1_555 1_555
H5_2 C5_2 1_555 1_555
C6_2 C5_2 1_555 1_555
H6_2 C6_2 1_555 1_555
C7_2 C6_2 1_555 1_555
C8_2 C7_2 1_555 1_555
H7_2 C8_2 1_555 1_555
C9_2 C4_2 1_555 1_555
H8_2 C9_2 1_555 1_555
N1_2 C1_2 1_555 1_555
N2_2 C1_2 1_555 1_555
N3_2 C2_2 1_555 1_555
O1_2 Zn6 1_555 1_555
Zn3 N7_2 1_555 1_555
C24_2 H18_2 1_555 1_555
C25_2 H19_2 1_555 1_555
C26_2 H20_2 1_555 1_555
H21_2 C26_2 1_555 1_555
C27_2 C26_2 1_555 1_555
C28_2 C27_2 1_555 1_555
H22_2 C28_2 1_555 1_555
C29_2 C28_2 1_555 1_555
H23_2 C29_2 1_555 1_555
C30_2 C7_2 1_555 1_555
C31_2 C30_2 1_555 1_555
H24_2 C31_2 1_555 1_555
C32_2 C27_2 1_555 1_555
H25_2 C32_2 1_555 1_555
N7_2 C24_2 1_555 1_555
N8_2 C24_2 1_555 1_555
N9_2 C25_2 1_555 1_555
O6 Zn3 1_555 1_555
C2_2 N1_2 1_555 1_555
C3_2 N3_2 1_555 1_555
C8_2 C9_2 1_555 1_555
N2_2 N3_2 1_555 1_555
C25_2 N7_2 1_555 1_555
C26_2 N9_2 1_555 1_555
C29_2 C30_2 1_555 1_555
C31_2 C32_2 1_555 1_555
N8_2 N9_2 1_555 1_555
H17_2 C22_2 1_555 1_555
C42_2 C43_2 1_555 1_555
C43_2 C44_2 1_555 1_555
C44_2 C22_2 1_555 1_555
C46_2 C44_2 1_555 1_555
O7_2 C42_2 1_555 1_555
O9 C46_2 1_555 1_555
O11_2 C46_2 1_555 1_555
H34_2 C45_2 1_555 1_555

#END
