
###############################################################################
#
# This file contains modified crystal structure data generated from the
# MOF subset of the Cambridge Structural Database (CSD) v543 
# hosted by the Cambridge Crystallographic Data Centre (CCDC).
#
# This work is licensed under the Creative Commons
# Attribution-NonCommercial-ShareAlike 4.0 International License.
# To view a copy of this license, visit
# http://creativecommons.org/licenses/by-nc-sa/4.0/
# or send a letter to
# Creative Commons, PO Box 1866, Mountain View, CA 94042, USA.
#
# CIF created using the CSD Python API on 29 September 2022
# The structure has been converted into the P1 space group
# The structure has a 3D framework
# The original CSD entry ILOSIO is in the hexagonal crystal system
# The original CSD entry ILOSIO is in a Sohncke space group
# The framework has been calculated to contain at least 10.0% void space
# The void calculation uses a probe of radius 1.32A, grid spacing 0.4
#
###############################################################################

data_ILOSIO
_chemical_formula_moiety         '(C60 H72 Cu9 N12 O38 S12 Sr2)n'
_symmetry_cell_setting           triclinic
_symmetry_space_group_name_H-M   'P 1'
_symmetry_Int_Tables_number      1
_space_group_name_Hall           'P 1'
loop_
_symmetry_equiv_pos_site_id
_symmetry_equiv_pos_as_xyz
1 x,y,z
_cell_length_a                   18.057(4)
_cell_length_b                   18.057(4)
_cell_length_c                   12.800(3)
_cell_angle_alpha                90
_cell_angle_beta                 90
_cell_angle_gamma                120
_cell_volume                     3614.36
loop_
_atom_site_label
_atom_site_type_symbol
_atom_site_fract_x
_atom_site_fract_y
_atom_site_fract_z
O17 O 0.2923(14) 0.4936(8) 0.6607(10)
O19 O 0.0237(14) 0.5758(10) 0.5757(12)
O20 O 0.2352(13) 0.5621(10) 0.5756(11)
N6 N 0.0923(16) 0.4939(12) 0.6718(12)
C21 C 0.1503(19) 0.4699(13) 0.7165(17)
H25 H 0.168471 0.495176 0.787827
C22 C 0.0214(18) 0.4829(13) 0.7085(19)
C26 C 0.2324(18) 0.5042(14) 0.6404(19)
C29 C 0.1166(21) 0.3727(14) 0.7197(17)
H32 H 0.065918 0.344827 0.765833
H33 H 0.161213 0.362152 0.749127
C30 C 0.1530(28) 0.3670(19) 0.4697(17)
H34 H 0.121962 0.329718 0.410535
H35 H 0.163472 0.424950 0.455482
H36 H 0.207141 0.368481 0.479616
S6 S 0.0874(13) 0.3256(9) 0.5886(15)
Cu8 Cu 0.4186(2) 0.55358(18) 0.56555(17)
Cu12 Cu 0.13498(27) 0.5814(2) 0.56555(17)
Sr4 Sr 0.333333 0.666667 0.4320(4)
Cu1 Cu 0.5814(2) 0.44642(18) 0.06555(17)
Cu3 Cu 0.55358(18) 0.13498(27) 0.06555(17)
Cu5 Cu 0.86502(27) 0.4186(2) 0.06555(17)
O22 O 0.4936(8) 0.2013(11) 0.1607(10)
O23 O 0.7987(11) 0.2923(14) 0.1607(10)
O24 O 0.7077(14) 0.5064(8) 0.1607(10)
O25 O 0.5758(10) 0.5521(10) 0.0757(12)
O26 O 0.4479(10) 0.0237(14) 0.0757(12)
O27 O 0.9763(14) 0.4242(10) 0.0757(12)
O28 O 0.5621(10) 0.3269(9) 0.0756(11)
O29 O 0.6731(9) 0.2352(13) 0.0756(11)
O30 O 0.7648(13) 0.4379(10) 0.0756(11)
N7 N 0.4939(12) 0.4016(11) 0.1718(12)
N8 N 0.5984(11) 0.0923(16) 0.1718(12)
N9 N 0.9077(16) 0.5061(12) 0.1718(12)
Cu2 Cu 0.58344(17) 0.44439(17) 0.80053(14)
Sr1 Sr 0.666667 0.333333 0.9320(4)
O1 O 0.6414(5) 0.4685(5) 0.9337(13)
O2 O 0.5584(8) 0.3220(9) 0.7947(12)
O3 O 0.5064(8) 0.7987(11) 0.6607(10)
O4 O 0.5785(9) 0.5566(8) 0.7764(15)
O5 O 0.4242(10) 0.4479(10) 0.5757(12)
O6 O 0.4379(10) 0.6731(9) 0.5756(11)
O7 O 0.4836(13) 0.2035(12) 0.7041(15)
N1 N 0.5039(12) 0.4022(11) 0.6896(16)
N2 N 0.5061(12) 0.5984(11) 0.6718(12)
C1 C 0.5301(13) 0.6804(14) 0.7165(17)
H1 H 0.504824 0.673295 0.787827
C2 C 0.5171(13) 0.5385(13) 0.7085(19)
C3 C 0.4673(14) 0.4507(14) 0.648(2)
C4 C 0.4561(18) 0.3129(15) 0.659(2)
H2 H 0.395610 0.283390 0.684600
C5 C 0.5140(17) 0.2831(14) 0.720(2)
C6 C 0.4958(14) 0.7282(12) 0.6404(19)
C7 C 0.4638(14) 0.2971(18) 0.541(3)
H3 H 0.430485 0.316614 0.499657
H4 H 0.439163 0.235045 0.528822
C8 C 0.597(2) 0.441(2) 0.402(2)
H5 H 0.657020 0.470794 0.379317
H6 H 0.559911 0.416294 0.340778
H7 H 0.584275 0.482449 0.435369
C9 C 0.6273(14) 0.7439(16) 0.7197(17)
H8 H 0.655173 0.721091 0.765833
H9 H 0.637848 0.799061 0.749127
C10 C 0.6330(19) 0.786(2) 0.4697(17)
H10 H 0.670282 0.792244 0.410535
H11 H 0.575050 0.738522 0.455482
H12 H 0.631519 0.838660 0.479616
S1 S 0.5783(10) 0.3553(12) 0.4960(12)
S2 S 0.6744(9) 0.7618(10) 0.5886(15)
Cu4 Cu 0.55561(17) 0.13905(24) 0.80053(14)
O8 O 0.5315(5) 0.1729(7) 0.9337(13)
O9 O 0.6780(9) 0.2364(12) 0.7947(12)
O11 O 0.4434(8) 0.0219(12) 0.7764(15)
O14 O 0.7965(12) 0.2801(18) 0.7041(15)
N3 N 0.5978(11) 0.1017(16) 0.6896(16)
C13 C 0.5493(14) 0.0166(20) 0.648(2)
C14 C 0.6871(15) 0.1432(23) 0.659(2)
H14 H 0.716610 0.112220 0.684600
C15 C 0.7169(14) 0.2309(22) 0.720(2)
C17 C 0.7029(18) 0.1667(23) 0.541(3)
H15 H 0.683386 0.113871 0.499657
H16 H 0.764955 0.204118 0.528822
C18 C 0.559(2) 0.156(3) 0.402(2)
H17 H 0.529206 0.186226 0.379317
H18 H 0.583706 0.143617 0.340778
H19 H 0.517551 0.101826 0.435369
S3 S 0.6447(12) 0.2230(16) 0.4960(12)
Cu6 Cu 0.86095(24) 0.41656(17) 0.80053(14)
O15 O 0.8271(7) 0.3586(5) 0.9337(13)
O16 O 0.7636(12) 0.4416(8) 0.7947(12)
O18 O 0.9781(12) 0.4215(9) 0.7764(15)
O21 O 0.7199(18) 0.5164(13) 0.7041(15)
N5 N 0.8983(16) 0.4961(12) 0.6896(16)
C23 C 0.9834(20) 0.5327(14) 0.648(2)
C24 C 0.8568(23) 0.5439(18) 0.659(2)
H26 H 0.887780 0.604390 0.684600
C25 C 0.7691(22) 0.4860(17) 0.720(2)
C27 C 0.8333(23) 0.5362(14) 0.541(3)
H27 H 0.886129 0.569515 0.499657
H28 H 0.795882 0.560837 0.528822
C28 C 0.844(3) 0.403(2) 0.402(2)
H29 H 0.813774 0.342980 0.379317
H30 H 0.856383 0.440089 0.340778
H31 H 0.898174 0.415725 0.435369
S5 S 0.7770(16) 0.4217(10) 0.4960(12)
Cu10 Cu 0.44642(18) 0.86502(27) 0.56555(17)
O10 O 0.2013(11) 0.7077(14) 0.6607(10)
O12 O 0.5521(10) 0.9763(14) 0.5757(12)
O13 O 0.3269(9) 0.7648(13) 0.5756(11)
N4 N 0.4016(11) 0.9077(16) 0.6718(12)
C11 C 0.3196(14) 0.8497(19) 0.7165(17)
H13 H 0.326705 0.831529 0.787827
C12 C 0.4615(13) 0.9786(18) 0.7085(19)
C16 C 0.2718(12) 0.7676(18) 0.6404(19)
C19 C 0.2561(16) 0.8834(21) 0.7197(17)
H20 H 0.278909 0.934082 0.765833
H21 H 0.200939 0.838787 0.749127
C20 C 0.214(2) 0.8470(28) 0.4697(17)
H22 H 0.207756 0.878038 0.410535
H23 H 0.261478 0.836528 0.455482
H24 H 0.161340 0.792859 0.479616
S4 S 0.2382(10) 0.9126(13) 0.5886(15)
C11_2 C 0.6804(14) 0.1503(19) 0.2165(17)
H13_2 H 0.673295 0.168471 0.287827
C12_2 C 0.5385(13) 0.0214(18) 0.2085(19)
C16_2 C 0.7282(12) 0.2324(18) 0.1404(19)
C19_2 C 0.7439(16) 0.1166(21) 0.2197(17)
H20_2 H 0.721091 0.065918 0.265833
H21_2 H 0.799061 0.161213 0.249127
S4_2 S 0.7618(10) 0.0874(13) 0.0886(15)
C20_2 C 0.786(2) 0.1530(28) 0.9697(17)
H22_2 H 0.792244 0.121962 0.910535
H23_2 H 0.738522 0.163472 0.955482
H24_2 H 0.838660 0.207141 0.979616
Cu2_2 Cu 0.41656(17) 0.55561(17) 0.30053(14)
O1_2 O 0.3586(5) 0.5315(5) 0.4337(13)
O2_2 O 0.4416(8) 0.6780(9) 0.2947(12)
O4_2 O 0.4215(9) 0.4434(8) 0.2764(15)
O7_2 O 0.5164(13) 0.7965(12) 0.2041(15)
N1_2 N 0.4961(12) 0.5978(11) 0.1896(16)
C1_2 C 0.4699(13) 0.3196(14) 0.2165(17)
H1_2 H 0.495176 0.326705 0.287827
C2_2 C 0.4829(13) 0.4615(13) 0.2085(19)
C3_2 C 0.5327(14) 0.5493(14) 0.148(2)
C4_2 C 0.5439(18) 0.6871(15) 0.159(2)
H2_2 H 0.604390 0.716610 0.184600
C5_2 C 0.4860(17) 0.7169(14) 0.220(2)
C6_2 C 0.5042(14) 0.2718(12) 0.1404(19)
C7_2 C 0.5362(14) 0.7029(18) 0.041(3)
H4_2 H 0.560837 0.764955 0.028822
C9_2 C 0.3727(14) 0.2561(16) 0.2197(17)
H8_2 H 0.344827 0.278909 0.265833
H9_2 H 0.362152 0.200939 0.249127
S2_2 S 0.3256(9) 0.2382(10) 0.0886(15)
Cu4_2 Cu 0.44439(17) 0.86095(24) 0.30053(14)
O8_2 O 0.4685(5) 0.8271(7) 0.4337(13)
O9_2 O 0.3220(9) 0.7636(12) 0.2947(12)
O11_2 O 0.5566(8) 0.9781(12) 0.2764(15)
O14_2 O 0.2035(12) 0.7199(18) 0.2041(15)
N3_2 N 0.4022(11) 0.8983(16) 0.1896(16)
C13_2 C 0.4507(14) 0.9834(20) 0.148(2)
C14_2 C 0.3129(15) 0.8568(23) 0.159(2)
H14_2 H 0.283390 0.887780 0.184600
C15_2 C 0.2831(14) 0.7691(22) 0.220(2)
C17_2 C 0.2971(18) 0.8333(23) 0.041(3)
H16_2 H 0.235045 0.795882 0.028822
Cu6_2 Cu 0.13905(24) 0.58344(17) 0.30053(14)
O15_2 O 0.1729(7) 0.6414(5) 0.4337(13)
O16_2 O 0.2364(12) 0.5584(8) 0.2947(12)
O18_2 O 0.0219(12) 0.5785(9) 0.2764(15)
O21_2 O 0.2801(18) 0.4836(13) 0.2041(15)
N5_2 N 0.1017(16) 0.5039(12) 0.1896(16)
C23_2 C 0.0166(20) 0.4673(14) 0.148(2)
C24_2 C 0.1432(23) 0.4561(18) 0.159(2)
H26_2 H 0.112220 0.395610 0.184600
C25_2 C 0.2309(22) 0.5140(17) 0.220(2)
C27_2 C 0.1667(23) 0.4638(14) 0.041(3)
H28_2 H 0.204118 0.439163 0.028822
H3_2 H 0.569515 0.683386 0.999657
C8_2 C 0.403(2) 0.559(2) 0.902(2)
H5_2 H 0.342980 0.529206 0.879317
H6_2 H 0.440089 0.583706 0.840778
H7_2 H 0.415725 0.517551 0.935369
C10_2 C 0.3670(19) 0.214(2) 0.9697(17)
H10_2 H 0.329718 0.207756 0.910535
H11_2 H 0.424950 0.261478 0.955482
H12_2 H 0.368481 0.161340 0.979616
S1_2 S 0.4217(10) 0.6447(12) 0.9960(12)
H15_2 H 0.316614 0.886129 0.999657
C18_2 C 0.441(2) 0.844(3) 0.902(2)
H17_2 H 0.470794 0.813774 0.879317
H18_2 H 0.416294 0.856383 0.840778
H19_2 H 0.482449 0.898174 0.935369
S3_2 S 0.3553(12) 0.7770(16) 0.9960(12)
H27_2 H 0.113871 0.430485 0.999657
C28_2 C 0.156(3) 0.597(2) 0.902(2)
H29_2 H 0.186226 0.657020 0.879317
H30_2 H 0.143617 0.559911 0.840778
H31_2 H 0.101826 0.584275 0.935369
S5_2 S 0.2230(16) 0.5783(10) 0.9960(12)
C21_2 C 0.8497(19) 0.5301(13) 0.2165(17)
H25_2 H 0.831529 0.504824 0.287827
C22_2 C 0.9786(18) 0.5171(13) 0.2085(19)
C26_2 C 0.7676(18) 0.4958(14) 0.1404(19)
C29_2 C 0.8834(21) 0.6273(14) 0.2197(17)
H32_2 H 0.934082 0.655173 0.265833
H33_2 H 0.838787 0.637848 0.249127
S6_2 S 0.9126(13) 0.6744(9) 0.0886(15)
C30_2 C 0.8470(28) 0.6330(19) 0.9697(17)
H34_2 H 0.878038 0.670282 0.910535
H35_2 H 0.836528 0.575050 0.955482
H36_2 H 0.792859 0.631519 0.979616
loop_
_geom_bond_atom_site_label_1
_geom_bond_atom_site_label_2
_geom_bond_site_symmetry_1
_geom_bond_site_symmetry_2
O17 C26 1_555 1_555
O20 C26 1_555 1_555
N6 C21 1_555 1_555
C21 H25 1_555 1_555
C26 C21 1_555 1_555
C29 C21 1_555 1_555
H32 C29 1_555 1_555
H33 C29 1_555 1_555
C30 H34 1_555 1_555
H35 C30 1_555 1_555
H36 C30 1_555 1_555
S6 C29 1_555 1_555
Cu8 O17 1_555 1_555
Cu12 O19 1_555 1_555
Sr4 O20 1_555 1_555
O20 Cu12 1_555 1_555
N6 C22 1_555 1_555
N6 Cu12 1_555 1_555
C30 S6 1_555 1_555
O22 Cu3 1_555 1_555
O23 Cu5 1_555 1_555
O24 Cu1 1_555 1_555
O25 Cu1 1_555 1_555
O26 Cu3 1_555 1_555
O27 Cu5 1_555 1_555
O28 Cu1 1_555 1_555
N7 Cu1 1_555 1_555
N8 Cu3 1_555 1_555
N9 Cu5 1_555 1_555
Cu3 O29 1_555 1_555
Cu5 O30 1_555 1_555
Cu2 O1 1_555 1_555
Sr1 O1 1_555 1_555
O2 Cu2 1_555 1_555
O3 C6 1_555 1_555
O4 Cu2 1_555 1_555
O5 C3 1_555 1_555
O6 C6 1_555 1_555
O7 C5 1_555 1_555
N1 Cu2 1_555 1_555
N2 C1 1_555 1_555
C1 H1 1_555 1_555
C2 O4 1_555 1_555
C3 N1 1_555 1_555
C4 N1 1_555 1_555
H2 C4 1_555 1_555
C5 O2 1_555 1_555
C6 C1 1_555 1_555
C7 C4 1_555 1_555
H3 C7 1_555 1_555
H4 C7 1_555 1_555
C8 H5 1_555 1_555
H6 C8 1_555 1_555
H7 C8 1_555 1_555
C9 C1 1_555 1_555
H8 C9 1_555 1_555
H9 C9 1_555 1_555
C10 H10 1_555 1_555
H11 C10 1_555 1_555
H12 C10 1_555 1_555
S1 C7 1_555 1_555
S2 C9 1_555 1_555
Cu4 O7 1_555 1_555
O8 Sr1 1_555 1_555
O9 Sr1 1_555 1_555
O11 Cu4 1_555 1_555
O14 C15 1_555 1_555
N3 Cu4 1_555 1_555
C13 N3 1_555 1_555
C14 N3 1_555 1_555
H14 C14 1_555 1_555
C15 O9 1_555 1_555
C17 C14 1_555 1_555
H15 C17 1_555 1_555
H16 C17 1_555 1_555
C18 H17 1_555 1_555
H18 C18 1_555 1_555
H19 C18 1_555 1_555
S3 C17 1_555 1_555
Cu6 O14 1_555 1_555
O15 Sr1 1_555 1_555
O16 Sr1 1_555 1_555
O18 Cu6 1_555 1_555
O21 Cu2 1_555 1_555
N5 Cu6 1_555 1_555
C23 N5 1_555 1_555
C24 N5 1_555 1_555
H26 C24 1_555 1_555
C25 O16 1_555 1_555
C27 C24 1_555 1_555
H27 C27 1_555 1_555
H28 C27 1_555 1_555
C28 H29 1_555 1_555
H30 C28 1_555 1_555
H31 C28 1_555 1_555
S5 C27 1_555 1_555
Cu8 O5 1_555 1_555
Cu10 O3 1_555 1_555
Sr4 O6 1_555 1_555
Sr1 O2 1_555 1_555
O6 Cu8 1_555 1_555
N2 C2 1_555 1_555
N2 Cu8 1_555 1_555
C2 C3 1_555 1_555
C4 C5 1_555 1_555
C8 S1 1_555 1_555
C10 S2 1_555 1_555
Cu4 O8 1_555 1_555
Cu4 O9 1_555 1_555
C14 C15 1_555 1_555
C18 S3 1_555 1_555
Cu6 O15 1_555 1_555
Cu6 O16 1_555 1_555
O21 C25 1_555 1_555
C24 C25 1_555 1_555
C28 S5 1_555 1_555
O10 C16 1_555 1_555
O13 C16 1_555 1_555
N4 C11 1_555 1_555
C11 H13 1_555 1_555
C16 C11 1_555 1_555
C19 C11 1_555 1_555
H20 C19 1_555 1_555
H21 C19 1_555 1_555
C20 H22 1_555 1_555
H23 C20 1_555 1_555
H24 C20 1_555 1_555
S4 C19 1_555 1_555
Cu10 O12 1_555 1_555
Cu12 O10 1_555 1_555
Sr4 O13 1_555 1_555
O13 Cu10 1_555 1_555
N4 C12 1_555 1_555
N4 Cu10 1_555 1_555
C20 S4 1_555 1_555
O23 C16_2 1_555 1_555
O29 C16_2 1_555 1_555
N8 C11_2 1_555 1_555
C11_2 H13_2 1_555 1_555
C16_2 C11_2 1_555 1_555
C19_2 C11_2 1_555 1_555
H20_2 C19_2 1_555 1_555
H21_2 C19_2 1_555 1_555
S4_2 C19_2 1_555 1_555
N8 C12_2 1_555 1_555
C20_2 H22_2 1_555 1_555
H23_2 C20_2 1_555 1_555
H24_2 C20_2 1_555 1_555
Cu8 O1_2 1_555 1_555
Cu2_2 O1_2 1_555 1_555
Sr4 O1_2 1_555 1_555
O2_2 Cu2_2 1_555 1_555
O22 C6_2 1_555 1_555
O4_2 Cu2_2 1_555 1_555
O25 C3_2 1_555 1_555
O28 C6_2 1_555 1_555
O7_2 C5_2 1_555 1_555
N1_2 Cu2_2 1_555 1_555
N7 C1_2 1_555 1_555
C1_2 H1_2 1_555 1_555
C2_2 O4_2 1_555 1_555
C3_2 N1_2 1_555 1_555
C4_2 N1_2 1_555 1_555
H2_2 C4_2 1_555 1_555
C5_2 O2_2 1_555 1_555
C6_2 C1_2 1_555 1_555
C7_2 C4_2 1_555 1_555
H4_2 C7_2 1_555 1_555
C9_2 C1_2 1_555 1_555
H8_2 C9_2 1_555 1_555
H9_2 C9_2 1_555 1_555
S2_2 C9_2 1_555 1_555
Cu10 O8_2 1_555 1_555
Cu4_2 O7_2 1_555 1_555
O8_2 Sr4 1_555 1_555
O9_2 Sr4 1_555 1_555
O11_2 Cu4_2 1_555 1_555
O14_2 C15_2 1_555 1_555
N3_2 Cu4_2 1_555 1_555
C13_2 N3_2 1_555 1_555
C14_2 N3_2 1_555 1_555
H14_2 C14_2 1_555 1_555
C15_2 O9_2 1_555 1_555
C17_2 C14_2 1_555 1_555
H16_2 C17_2 1_555 1_555
Cu12 O15_2 1_555 1_555
Cu6_2 O14_2 1_555 1_555
O15_2 Sr4 1_555 1_555
O16_2 Sr4 1_555 1_555
O18_2 Cu6_2 1_555 1_555
O21_2 Cu2_2 1_555 1_555
N5_2 Cu6_2 1_555 1_555
C23_2 N5_2 1_555 1_555
C24_2 N5_2 1_555 1_555
H26_2 C24_2 1_555 1_555
C25_2 O16_2 1_555 1_555
C27_2 C24_2 1_555 1_555
H28_2 C27_2 1_555 1_555
Sr4 O2_2 1_555 1_555
N7 C2_2 1_555 1_555
C2_2 C3_2 1_555 1_555
C4_2 C5_2 1_555 1_555
Cu4_2 O8_2 1_555 1_555
Cu4_2 O9_2 1_555 1_555
C14_2 C15_2 1_555 1_555
Cu6_2 O15_2 1_555 1_555
Cu6_2 O16_2 1_555 1_555
O21_2 C25_2 1_555 1_555
C24_2 C25_2 1_555 1_555
C8_2 H5_2 1_555 1_555
H6_2 C8_2 1_555 1_555
H7_2 C8_2 1_555 1_555
C10_2 H10_2 1_555 1_555
H11_2 C10_2 1_555 1_555
H12_2 C10_2 1_555 1_555
C18_2 H17_2 1_555 1_555
H18_2 C18_2 1_555 1_555
H19_2 C18_2 1_555 1_555
C28_2 H29_2 1_555 1_555
H30_2 C28_2 1_555 1_555
H31_2 C28_2 1_555 1_555
C8_2 S1_2 1_555 1_555
C18_2 S3_2 1_555 1_555
C28_2 S5_2 1_555 1_555
O24 C26_2 1_555 1_555
O30 C26_2 1_555 1_555
N9 C21_2 1_555 1_555
C21_2 H25_2 1_555 1_555
C26_2 C21_2 1_555 1_555
C29_2 C21_2 1_555 1_555
H32_2 C29_2 1_555 1_555
H33_2 C29_2 1_555 1_555
S6_2 C29_2 1_555 1_555
N9 C22_2 1_555 1_555
C30_2 H34_2 1_555 1_555
H35_2 C30_2 1_555 1_555
H36_2 C30_2 1_555 1_555

#END
