
###############################################################################
#
# This file contains modified crystal structure data generated from the
# MOF subset of the Cambridge Structural Database (CSD) v543 
# hosted by the Cambridge Crystallographic Data Centre (CCDC).
#
# This work is licensed under the Creative Commons
# Attribution-NonCommercial-ShareAlike 4.0 International License.
# To view a copy of this license, visit
# http://creativecommons.org/licenses/by-nc-sa/4.0/
# or send a letter to
# Creative Commons, PO Box 1866, Mountain View, CA 94042, USA.
#
# CIF created using the CSD Python API on 29 September 2022
# The structure has been converted into the P1 space group
# The structure has a 3D framework
# The original CSD entry ILOTEJ04 is in the trigonal crystal system
# The framework has been calculated to contain at least 10.0% void space
# The void calculation uses a probe of radius 1.32A, grid spacing 0.4
# The framework is charged, counterions have been retained in the structure
#
###############################################################################

data_ILOTEJ04
_chemical_formula_moiety         '(C12 H12 Fe4 Mn2 O18)n'
_symmetry_cell_setting           triclinic
_symmetry_space_group_name_H-M   'P 1'
_symmetry_Int_Tables_number      1
_space_group_name_Hall           'P 1'
loop_
_symmetry_equiv_pos_site_id
_symmetry_equiv_pos_as_xyz
1 x,y,z
_cell_length_a                   8.27550(10)
_cell_length_b                   8.27550(10)
_cell_length_c                   13.8942(2)
_cell_angle_alpha                90
_cell_angle_beta                 90
_cell_angle_gamma                120
_cell_volume                     824.048
loop_
_atom_site_label
_atom_site_type_symbol
_atom_site_fract_x
_atom_site_fract_y
_atom_site_fract_z
Fe3 Fe 0.0000 0.0000 0.0000
Fe3_2 Fe 0.0000 0.0000 1.0000
O2 O 0.01604(12) 0.20795(13) 0.08174(7)
O9 O 0.45326(20) 0.11074(14) 0.16593(8)
C5 C 0.33308(25) 0.12156(17) 0.11806(8)
H5 H 0.3479 0.2394 0.1082
Mn3 Mn 0.6667 0.3333 0.2500
Fe3_3 Fe 0.0000 1.0000 0.0000
Fe4 Fe -0.0000 0.0000 0.5000
Fe3_4 Fe 0.0000 1.0000 1.0000
O16 O 0.20795(13) 0.19191(18) 0.91826(7)
O10 O 0.19191(18) 0.98396(12) 0.08174(7)
Fe4_2 Fe -0.0000 1.0000 0.5000
Fe3_5 Fe 1.0000 0.0000 0.0000
Fe3_6 Fe 1.0000 0.0000 1.0000
O1 O 0.88926(14) 0.34252(14) 0.16593(8)
C1 C 0.87844(17) 0.21152(18) 0.11806(8)
H1 H 0.7606 0.1085 0.1082
O5 O 0.65748(14) 0.54674(20) 0.16593(8)
O6 O 0.79205(13) 0.80809(18) 0.08174(7)
C3 C 0.78848(18) 0.66692(25) 0.11806(8)
H3 H 0.8915 0.6521 0.1082
O11 O 0.65748(14) 0.11074(14) 0.33407(8)
C6 C 0.78848(18) 0.12156(17) 0.38194(8)
H6 H 0.8915 0.2394 0.3918
Fe3_7 Fe 1.0000 1.0000 0.0000
Fe4_3 Fe 1.0000 0.0000 0.5000
O13 O 0.45326(20) 0.34252(14) 0.33407(8)
O14 O 0.88926(14) 0.54674(20) 0.33407(8)
Fe3_8 Fe 1.0000 1.0000 1.0000
O17 O 0.80809(18) 0.01604(12) 0.91826(7)
O12 O 0.79205(13) 0.98396(12) 0.41826(7)
Fe4_4 Fe 1.0000 1.0000 0.5000
O15 O 0.98396(12) 0.79205(13) 0.91826(7)
O12_2 O 0.01604(12) 0.80809(18) 0.41826(7)
C6_2 C 0.87844(17) 0.66692(25) 0.38194(8)
H6_2 H 0.7606 0.6521 0.3918
O12_3 O 0.19191(18) 0.20795(13) 0.41826(7)
C6_3 C 0.33308(25) 0.21152(18) 0.38194(8)
H6_3 H 0.3479 0.1085 0.3918
O15_2 O 0.20795(13) 0.01604(12) 0.58174(7)
O17_2 O 0.98396(12) 0.19191(18) 0.58174(7)
O16_2 O 0.80809(18) 0.79205(13) 0.58174(7)
O3 O 0.34252(14) 0.45326(20) 0.83407(8)
C2 C 0.21152(18) 0.33308(25) 0.88194(8)
H2 H 0.1085 0.3479 0.8918
Mn2 Mn 0.3333 0.6667 0.7500
O1_2 O 0.11074(14) 0.65748(14) 0.83407(8)
C1_2 C 0.12156(17) 0.78848(18) 0.88194(8)
H1_2 H 0.2394 0.8915 0.8918
O7 O 0.54674(20) 0.88926(14) 0.83407(8)
C4 C 0.66692(25) 0.87844(17) 0.88194(8)
H4 H 0.6521 0.7606 0.8918
O11_2 O 0.34252(14) 0.88926(14) 0.66593(8)
C6_4 C 0.21152(18) 0.87844(17) 0.61806(8)
H6_4 H 0.1085 0.7606 0.6082
O13_2 O 0.54674(20) 0.65748(14) 0.66593(8)
O14_2 O 0.11074(14) 0.45326(20) 0.66593(8)
C6_5 C 0.12156(17) 0.33308(25) 0.61806(8)
H6_5 H 0.2394 0.3479 0.6082
C6_6 C 0.66692(25) 0.78848(18) 0.61806(8)
H6_6 H 0.6521 0.8915 0.6082
loop_
_geom_bond_atom_site_label_1
_geom_bond_atom_site_label_2
_geom_bond_site_symmetry_1
_geom_bond_site_symmetry_2
Fe3 O2 1_555 1_555
O9 C5 1_555 1_555
H5 C5 1_555 1_555
Mn3 O9 1_555 1_555
O16 Fe3_2 1_555 1_555
O10 Fe3_3 1_555 1_555
Mn3 O1 1_555 1_555
O1 C1 1_555 1_555
C1 H1 1_555 1_555
O5 Mn3 1_555 1_555
O6 C3 1_555 1_555
C3 O5 1_555 1_555
H3 C3 1_555 1_555
O11 Mn3 1_555 1_555
C6 O11 1_555 1_555
H6 C6 1_555 1_555
Fe3_7 O6 1_555 1_555
O13 Mn3 1_555 1_555
O14 Mn3 1_555 1_555
O17 Fe3_6 1_555 1_555
Fe4_4 O12 1_555 1_555
O15 Fe3_8 1_555 1_555
Fe4_2 O12_2 1_555 1_555
C6_2 O14 1_555 1_555
H6_2 C6_2 1_555 1_555
O12_3 C6_3 1_555 1_555
C6_3 O13 1_555 1_555
H6_3 C6_3 1_555 1_555
Fe4 O12_3 1_555 1_555
O15_2 Fe4 1_555 1_555
O17_2 Fe4_3 1_555 1_555
O16_2 Fe4_4 1_555 1_555
O3 C2 1_555 1_555
C2 O16 1_555 1_555
H2 C2 1_555 1_555
Mn2 O3 1_555 1_555
Mn2 O1_2 1_555 1_555
O1_2 C1_2 1_555 1_555
C1_2 H1_2 1_555 1_555
O7 Mn2 1_555 1_555
C4 O7 1_555 1_555
H4 C4 1_555 1_555
O11_2 Mn2 1_555 1_555
C6_4 O11_2 1_555 1_555
H6_4 C6_4 1_555 1_555
O13_2 Mn2 1_555 1_555
O14_2 Mn2 1_555 1_555
C6_5 O14_2 1_555 1_555
H6_5 C6_5 1_555 1_555
O16_2 C6_6 1_555 1_555
C6_6 O13_2 1_555 1_555
H6_6 C6_6 1_555 1_555

#END
