
###############################################################################
#
# This file contains modified crystal structure data generated from the
# MOF subset of the Cambridge Structural Database (CSD) v543 
# hosted by the Cambridge Crystallographic Data Centre (CCDC).
#
# This work is licensed under the Creative Commons
# Attribution-NonCommercial-ShareAlike 4.0 International License.
# To view a copy of this license, visit
# http://creativecommons.org/licenses/by-nc-sa/4.0/
# or send a letter to
# Creative Commons, PO Box 1866, Mountain View, CA 94042, USA.
#
# CIF created using the CSD Python API on 29 September 2022
# The structure has been converted into the P1 space group
# The structure has a 3D framework
# The original CSD entry ILOTIN02 is in the trigonal crystal system
# The framework has been calculated to contain at least 10.0% void space
# The void calculation uses a probe of radius 1.32A, grid spacing 0.4
# The framework is charged, counterions have been retained in the structure
#
###############################################################################

data_ILOTIN02
_chemical_formula_moiety         '(C12 H12 Co2 Fe4 O18)n'
_symmetry_cell_setting           triclinic
_symmetry_space_group_name_H-M   'P 1'
_symmetry_Int_Tables_number      1
_space_group_name_Hall           'P 1'
loop_
_symmetry_equiv_pos_site_id
_symmetry_equiv_pos_as_xyz
1 x,y,z
_cell_length_a                   8.21630(10)
_cell_length_b                   8.21630(10)
_cell_length_c                   13.6768(2)
_cell_angle_alpha                90
_cell_angle_beta                 90
_cell_angle_gamma                120
_cell_volume                     799.591
loop_
_atom_site_label
_atom_site_type_symbol
_atom_site_fract_x
_atom_site_fract_y
_atom_site_fract_z
Fe3 Fe 0.0000 0.0000 0.0000
Fe3_2 Fe -0.0000 -0.0000 1.0000
O2 O 0.01323(8) 0.20887(9) 0.08294(5)
O9 O 0.46021(13) 0.11663(10) 0.16805(5)
C5 C 0.33693(17) 0.12675(12) 0.12015(6)
H5 H 0.3495 0.2447 0.1112
Co3 Co 0.6667 0.3333 0.2500
Fe3_3 Fe 0.0000 1.0000 0.0000
Fe4 Fe -0.0000 -0.0000 0.5000
Fe3_4 Fe 0.0000 1.0000 1.0000
O16 O 0.20887(9) 0.19564(12) 0.91706(5)
O10 O 0.19564(12) 0.98677(8) 0.08294(5)
Fe4_2 Fe -0.0000 1.0000 0.5000
Fe3_5 Fe 1.0000 0.0000 0.0000
Fe3_6 Fe 1.0000 -0.0000 1.0000
O1 O 0.88337(10) 0.34358(9) 0.16805(5)
C1 C 0.87325(12) 0.21018(12) 0.12015(6)
H1 H 0.7553 0.1048 0.1112
O5 O 0.65642(9) 0.53979(13) 0.16805(5)
O6 O 0.79113(9) 0.80436(12) 0.08294(5)
C3 C 0.78982(12) 0.66307(17) 0.12015(6)
H3 H 0.8952 0.6505 0.1112
O11 O 0.65642(9) 0.11663(10) 0.33195(5)
C6 C 0.78982(12) 0.12675(12) 0.37985(6)
H6 H 0.8952 0.2447 0.3888
Fe3_7 Fe 1.0000 1.0000 0.0000
Fe4_3 Fe 1.0000 -0.0000 0.5000
O13 O 0.46021(13) 0.34358(9) 0.33195(5)
O14 O 0.88337(10) 0.53979(13) 0.33195(5)
Fe3_8 Fe 1.0000 1.0000 1.0000
O17 O 0.80436(12) 0.01323(8) 0.91706(5)
O12 O 0.79113(9) 0.98677(8) 0.41706(5)
Fe4_4 Fe 1.0000 1.0000 0.5000
O15 O 0.98677(8) 0.79113(9) 0.91706(5)
O12_2 O 0.01323(8) 0.80436(12) 0.41706(5)
C6_2 C 0.87325(12) 0.66307(17) 0.37985(6)
H6_2 H 0.7553 0.6505 0.3888
O12_3 O 0.19564(12) 0.20887(9) 0.41706(5)
C6_3 C 0.33693(17) 0.21018(12) 0.37985(6)
H6_3 H 0.3495 0.1048 0.3888
O15_2 O 0.20887(9) 0.01323(8) 0.58294(5)
O17_2 O 0.98677(8) 0.19564(12) 0.58294(5)
O16_2 O 0.80436(12) 0.79113(9) 0.58294(5)
O3 O 0.34358(9) 0.46021(13) 0.83195(5)
C2 C 0.21018(12) 0.33693(17) 0.87985(6)
H2 H 0.1048 0.3495 0.8888
Co2 Co 0.3333 0.6667 0.7500
O1_2 O 0.11663(10) 0.65642(9) 0.83195(5)
C1_2 C 0.12675(12) 0.78982(12) 0.87985(6)
H1_2 H 0.2447 0.8952 0.8888
O7 O 0.53979(13) 0.88337(10) 0.83195(5)
C4 C 0.66307(17) 0.87325(12) 0.87985(6)
H4 H 0.6505 0.7553 0.8888
O11_2 O 0.34358(9) 0.88337(10) 0.66805(5)
C6_4 C 0.21018(12) 0.87325(12) 0.62015(6)
H6_4 H 0.1048 0.7553 0.6112
O13_2 O 0.53979(13) 0.65642(9) 0.66805(5)
O14_2 O 0.11663(10) 0.46021(13) 0.66805(5)
C6_5 C 0.12675(12) 0.33693(17) 0.62015(6)
H6_5 H 0.2447 0.3495 0.6112
C6_6 C 0.66307(17) 0.78982(12) 0.62015(6)
H6_6 H 0.6505 0.8952 0.6112
loop_
_geom_bond_atom_site_label_1
_geom_bond_atom_site_label_2
_geom_bond_site_symmetry_1
_geom_bond_site_symmetry_2
Fe3 O2 1_555 1_555
O9 C5 1_555 1_555
H5 C5 1_555 1_555
Co3 O9 1_555 1_555
O16 Fe3_2 1_555 1_555
O10 Fe3_3 1_555 1_555
Co3 O1 1_555 1_555
O1 C1 1_555 1_555
C1 H1 1_555 1_555
O5 Co3 1_555 1_555
O6 C3 1_555 1_555
C3 O5 1_555 1_555
H3 C3 1_555 1_555
O11 Co3 1_555 1_555
C6 O11 1_555 1_555
H6 C6 1_555 1_555
Fe3_7 O6 1_555 1_555
O13 Co3 1_555 1_555
O14 Co3 1_555 1_555
O17 Fe3_6 1_555 1_555
Fe4_4 O12 1_555 1_555
O15 Fe3_8 1_555 1_555
Fe4_2 O12_2 1_555 1_555
C6_2 O14 1_555 1_555
H6_2 C6_2 1_555 1_555
O12_3 C6_3 1_555 1_555
C6_3 O13 1_555 1_555
H6_3 C6_3 1_555 1_555
Fe4 O12_3 1_555 1_555
O15_2 Fe4 1_555 1_555
O17_2 Fe4_3 1_555 1_555
O16_2 Fe4_4 1_555 1_555
O3 C2 1_555 1_555
C2 O16 1_555 1_555
H2 C2 1_555 1_555
Co2 O3 1_555 1_555
Co2 O1_2 1_555 1_555
O1_2 C1_2 1_555 1_555
C1_2 H1_2 1_555 1_555
O7 Co2 1_555 1_555
C4 O7 1_555 1_555
H4 C4 1_555 1_555
O11_2 Co2 1_555 1_555
C6_4 O11_2 1_555 1_555
H6_4 C6_4 1_555 1_555
O13_2 Co2 1_555 1_555
O14_2 Co2 1_555 1_555
C6_5 O14_2 1_555 1_555
H6_5 C6_5 1_555 1_555
O16_2 C6_6 1_555 1_555
C6_6 O13_2 1_555 1_555
H6_6 C6_6 1_555 1_555

#END
