
###############################################################################
#
# This file contains modified crystal structure data generated from the
# MOF subset of the Cambridge Structural Database (CSD) v543 
# hosted by the Cambridge Crystallographic Data Centre (CCDC).
#
# This work is licensed under the Creative Commons
# Attribution-NonCommercial-ShareAlike 4.0 International License.
# To view a copy of this license, visit
# http://creativecommons.org/licenses/by-nc-sa/4.0/
# or send a letter to
# Creative Commons, PO Box 1866, Mountain View, CA 94042, USA.
#
# CIF created using the CSD Python API on 29 September 2022
# The structure has been converted into the P1 space group
# The structure has a 3D framework
# The original CSD entry ILOTOT is in the monoclinic crystal system
# The framework has been calculated to contain at least 10.0% void space
# The void calculation uses a probe of radius 1.32A, grid spacing 0.4
#
###############################################################################

data_ILOTOT
_chemical_formula_moiety         '(C136 H112 Co4 O44)n'
_symmetry_cell_setting           triclinic
_symmetry_space_group_name_H-M   'P 1'
_symmetry_Int_Tables_number      1
_space_group_name_Hall           'P 1'
loop_
_symmetry_equiv_pos_site_id
_symmetry_equiv_pos_as_xyz
1 x,y,z
_cell_length_a                   13.842(2)
_cell_length_b                   24.652(4)
_cell_length_c                   10.5305(17)
_cell_angle_alpha                90
_cell_angle_beta                 105.241(3)
_cell_angle_gamma                90
_cell_volume                     3466.97
loop_
_atom_site_label
_atom_site_type_symbol
_atom_site_fract_x
_atom_site_fract_y
_atom_site_fract_z
Co2 Co -0.0000 0.5000 0.5000
O1 O 0.0459(2) 0.42177(9) 0.4727(3)
O4 O 0.0574(3) 0.36603(11) 0.6399(3)
O5 O 0.0216(2) 0.07935(11) 0.0955(3)
O6 O 0.1627(2) 0.20818(10) 0.2210(3)
C3 C 0.0651(3) 0.37641(14) 0.5259(4)
C6 C 0.1418(3) 0.24617(13) 0.3044(4)
C7 C 0.0965(2) 0.33137(13) 0.4519(4)
C8 C 0.1145(3) 0.34121(14) 0.3301(4)
H3 H 0.1107 0.3765 0.2981
C10 C 0.1025(3) 0.27890(14) 0.4981(4)
H4 H 0.0913 0.2720 0.5799
C13 C 0.1378(3) 0.29987(14) 0.2562(4)
H7 H 0.1508 0.3071 0.1756
C14 C 0.1251(3) 0.23616(13) 0.4251(4)
H8 H 0.1290 0.2010 0.4578
C15 C 0.1811(3) 0.11916(16) 0.1488(5)
H9 H 0.2306 0.1363 0.1116
H10 H 0.2066 0.0837 0.1811
C16 C 0.0850(3) 0.11209(16) 0.0416(4)
H11 H 0.0541 0.1470 0.0149
C17 C 0.1682(3) 0.15293(14) 0.2632(4)
H13 H 0.1073 0.1427 0.2863
H14 H 0.2245 0.1477 0.3395
Co3 Co -0.0000 0.41717(3) 0.7500
O11 O 0.09994(16) 0.52906(8) 0.3699(2)
O13 O 0.11732(18) 0.50905(10) 0.6856(2)
Co2_2 Co 1.0000 0.5000 0.5000
C2 C 0.9305(3) 0.06360(15) 0.0198(4)
C11 C 0.8768(3) 0.03052(15) 0.0808(4)
H5 H 0.9035 0.0207 0.1682
C12 C 0.7830(3) 0.01162(14) 0.0131(4)
Co3_2 Co 1.0000 0.41717(3) 0.7500
Co5 Co 0.5000 0.0000 0.0000
O8 O 0.9541(2) 0.57823(9) 0.5273(3)
O10 O 0.90006(16) 0.47094(8) 0.6301(2)
O14 O 0.88268(18) 0.49095(10) 0.3144(2)
O3 O 0.61732(18) 0.00905(10) 0.6856(2)
C1 C 0.7434(2) 0.02556(12) 0.8815(3)
C4 C 0.7971(2) 0.05986(14) 0.8220(3)
H1 H 0.7701 0.0700 0.7348
C5 C 0.8912(3) 0.07972(14) 0.8898(4)
H2 H 0.9265 0.1031 0.8491
C9 C 0.6473(2) 0.00151(12) 0.8069(3)
Co5_2 Co 0.5000 0.0000 1.0000
Co6 Co 0.5000 -0.0000 0.5000
Co7 Co -0.0000 0.5000 0.0000
O12 O 0.38268(18) 0.00905(10) 0.8144(2)
C18 C 0.2566(2) 0.02556(12) 0.6185(3)
C19 C 0.0695(3) 0.06360(15) 0.4802(4)
C21 C 0.2029(2) 0.05986(14) 0.6780(3)
H15 H 0.2299 0.0700 0.7652
C22 C 0.1088(3) 0.07972(14) 0.6102(4)
H16 H 0.0735 0.1031 0.6509
C26 C 0.3527(2) 0.00151(12) 0.6931(3)
C28 C 0.1232(3) 0.03052(15) 0.4192(4)
H19 H 0.0965 0.0207 0.3318
C29 C 0.2170(3) 0.01162(14) 0.4869(4)
Co7_2 Co -0.0000 0.5000 1.0000
H6 H 0.7466 0.9897 0.0556
Co5_3 Co 0.5000 1.0000 0.0000
Co1 Co 0.5000 0.91717(3) 0.7500
O2 O 0.59994(16) 0.97094(8) 0.8699(2)
Co5_4 Co 0.5000 1.0000 1.0000
Co6_2 Co 0.5000 1.0000 0.5000
O9 O 0.40006(16) 0.97094(8) 0.6301(2)
O16 O 0.5574(3) 0.86603(11) 0.6399(3)
O17 O 0.4426(3) 0.86603(11) 0.8601(3)
H20 H 0.2534 0.9897 0.4444
Co7_3 Co 1.0000 0.5000 0.0000
O7 O 0.9541(2) 0.42177(9) 0.0273(3)
O18 O 0.9784(2) 0.07935(11) 0.4045(3)
O19 O 0.8373(2) 0.20818(10) 0.2790(3)
C23 C 0.8582(3) 0.24617(13) 0.1956(4)
C24 C 0.9035(2) 0.33137(13) 0.0481(4)
C25 C 0.8855(3) 0.34121(14) 0.1699(4)
H17 H 0.8893 0.3765 0.2019
C27 C 0.8975(3) 0.27890(14) 0.0019(4)
C30 C 0.8622(3) 0.29987(14) 0.2438(4)
H21 H 0.8492 0.3071 0.3244
C31 C 0.8749(3) 0.23616(13) 0.0749(4)
H22 H 0.8710 0.2010 0.0422
C32 C 0.8189(3) 0.11916(16) 0.3512(5)
H23 H 0.7694 0.1363 0.3884
H24 H 0.7934 0.0837 0.3189
C33 C 0.9150(3) 0.11209(16) 0.4584(4)
H25 H 0.9459 0.1470 0.4851
H26 H 0.9018 0.0946 0.5346
C34 C 0.8318(3) 0.15293(14) 0.2368(4)
H27 H 0.8927 0.1427 0.2137
H28 H 0.7755 0.1477 0.1605
Co7_4 Co 1.0000 0.5000 1.0000
O15 O 0.9426(3) 0.36603(11) 0.8601(3)
C20 C 0.9349(3) 0.37641(14) 0.9741(4)
H18 H 0.9087 0.2720 0.9201
O14_2 O 0.11732(18) 0.49095(10) 0.1856(2)
O8_2 O 0.0459(2) 0.57823(9) 0.9727(3)
O10_2 O 0.09994(16) 0.47094(8) 0.8699(2)
O11_2 O 0.90006(16) 0.52906(8) 0.1301(2)
O13_2 O 0.88268(18) 0.50905(10) 0.8144(2)
O8_3 O 0.4541(2) 0.07823(9) 0.5273(3)
O11_3 O 0.59994(16) 0.02906(8) 0.3699(2)
O1_2 O 0.5459(2) 0.92177(9) 0.4727(3)
O5_2 O 0.5216(2) 0.57935(11) 0.0955(3)
O6_2 O 0.6627(2) 0.70818(10) 0.2210(3)
C2_2 C 0.4305(3) 0.56360(15) 0.0198(4)
C3_2 C 0.5651(3) 0.87641(14) 0.5259(4)
C6_2 C 0.6418(3) 0.74617(13) 0.3044(4)
C7_2 C 0.5965(2) 0.83137(13) 0.4519(4)
C8_2 C 0.6145(3) 0.84121(14) 0.3301(4)
H3_2 H 0.6107 0.8765 0.2981
C10_2 C 0.6025(3) 0.77890(14) 0.4981(4)
H4_2 H 0.5913 0.7720 0.5799
C11_2 C 0.3768(3) 0.53052(15) 0.0808(4)
H5_2 H 0.4035 0.5207 0.1682
C12_2 C 0.2830(3) 0.51162(14) 0.0131(4)
H6_2 H 0.2466 0.4897 0.0556
C13_2 C 0.6378(3) 0.79987(14) 0.2562(4)
H7_2 H 0.6508 0.8071 0.1756
C14_2 C 0.6251(3) 0.73616(13) 0.4251(4)
H8_2 H 0.6290 0.7010 0.4578
C15_2 C 0.6811(3) 0.61916(16) 0.1488(5)
H9_2 H 0.7306 0.6363 0.1116
H10_2 H 0.7066 0.5837 0.1811
C16_2 C 0.5850(3) 0.61209(16) 0.0416(4)
H11_2 H 0.5541 0.6470 0.0149
C17_2 C 0.6682(3) 0.65293(14) 0.2632(4)
H13_2 H 0.6073 0.6427 0.2863
H14_2 H 0.7245 0.6477 0.3395
O14_3 O 0.38268(18) 0.99095(10) 0.3144(2)
C1_2 C 0.2434(2) 0.52556(12) 0.8815(3)
C4_2 C 0.2971(2) 0.55986(14) 0.8220(3)
H1_2 H 0.2701 0.5700 0.7348
C5_2 C 0.3912(3) 0.57972(14) 0.8898(4)
H2_2 H 0.4265 0.6031 0.8491
C9_2 C 0.1473(2) 0.50151(12) 0.8069(3)
H12 H 0.5982 0.5946 0.9654
O7_2 O 0.4541(2) 0.92177(9) 0.0273(3)
O18_2 O 0.4784(2) 0.57935(11) 0.4045(3)
O19_2 O 0.3373(2) 0.70818(10) 0.2790(3)
C18_2 C 0.7566(2) 0.52556(12) 0.6185(3)
C19_2 C 0.5695(3) 0.56360(15) 0.4802(4)
C21_2 C 0.7029(2) 0.55986(14) 0.6780(3)
H15_2 H 0.7299 0.5700 0.7652
C22_2 C 0.6088(3) 0.57972(14) 0.6102(4)
H16_2 H 0.5735 0.6031 0.6509
C23_2 C 0.3582(3) 0.74617(13) 0.1956(4)
C24_2 C 0.4035(2) 0.83137(13) 0.0481(4)
C25_2 C 0.3855(3) 0.84121(14) 0.1699(4)
H17_2 H 0.3893 0.8765 0.2019
C26_2 C 0.8527(2) 0.50151(12) 0.6931(3)
C27_2 C 0.3975(3) 0.77890(14) 0.0019(4)
C28_2 C 0.6232(3) 0.53052(15) 0.4192(4)
H19_2 H 0.5965 0.5207 0.3318
C29_2 C 0.7170(3) 0.51162(14) 0.4869(4)
H20_2 H 0.7534 0.4897 0.4444
C30_2 C 0.3622(3) 0.79987(14) 0.2438(4)
H21_2 H 0.3492 0.8071 0.3244
C31_2 C 0.3749(3) 0.73616(13) 0.0749(4)
H22_2 H 0.3710 0.7010 0.0422
C32_2 C 0.3189(3) 0.61916(16) 0.3512(5)
H23_2 H 0.2694 0.6363 0.3884
H24_2 H 0.2934 0.5837 0.3189
C33_2 C 0.4150(3) 0.61209(16) 0.4584(4)
H25_2 H 0.4459 0.6470 0.4851
H26_2 H 0.4018 0.5946 0.5346
C34_2 C 0.3318(3) 0.65293(14) 0.2368(4)
H27_2 H 0.3927 0.6427 0.2137
H28_2 H 0.2755 0.6477 0.1605
C20_2 C 0.4349(3) 0.87641(14) 0.9741(4)
H18_2 H 0.4087 0.7720 0.9201
O11_4 O 0.40006(16) 0.02906(8) 0.1301(2)
O8_4 O 0.5459(2) 0.07823(9) 0.9727(3)
O14_4 O 0.61732(18) 0.99095(10) 0.1856(2)
Co4 Co 0.0000 0.58283(3) 0.2500
O15_2 O 0.0574(3) 0.63397(11) 0.1399(3)
C20_3 C 0.0651(3) 0.62359(14) 0.0259(4)
H18_3 H 0.0913 0.7280 0.0799
O18_3 O 0.0216(2) 0.92065(11) 0.5955(3)
O19_3 O 0.1627(2) 0.79182(10) 0.7210(3)
C23_3 C 0.1418(3) 0.75383(13) 0.8044(4)
C24_3 C 0.0965(2) 0.66863(13) 0.9519(4)
C25_3 C 0.1145(3) 0.65879(14) 0.8301(4)
H17_3 H 0.1107 0.6235 0.7981
C27_3 C 0.1025(3) 0.72110(14) 0.9981(4)
C30_3 C 0.1378(3) 0.70013(14) 0.7562(4)
H21_3 H 0.1508 0.6929 0.6756
C31_3 C 0.1251(3) 0.76384(13) 0.9251(4)
H22_3 H 0.1290 0.7990 0.9578
C32_3 C 0.1811(3) 0.88084(16) 0.6488(5)
H23_3 H 0.2306 0.8637 0.6116
H24_3 H 0.2066 0.9163 0.6811
C33_3 C 0.0850(3) 0.88791(16) 0.5416(4)
H25_3 H 0.0541 0.8530 0.5149
H26_3 H 0.0982 0.9054 0.4654
C34_3 C 0.1682(3) 0.84707(14) 0.7632(4)
H27_3 H 0.1073 0.8573 0.7863
H28_3 H 0.2245 0.8523 0.8395
Co1_2 Co 0.5000 0.08283(3) 0.2500
O16_2 O 0.4426(3) 0.13397(11) 0.3601(3)
O17_2 O 0.5574(3) 0.13397(11) 0.1399(3)
H20_3 H 0.7466 0.0103 0.5556
H6_3 H 0.2534 0.0103 0.9444
Co4_2 Co 1.0000 0.58283(3) 0.2500
C1_3 C 0.2566(2) 0.97444(12) 0.1185(3)
C4_3 C 0.2029(2) 0.94014(14) 0.1780(3)
H1_3 H 0.2299 0.9300 0.2652
C5_3 C 0.1088(3) 0.92028(14) 0.1102(4)
H2_3 H 0.0735 0.8969 0.1509
C9_3 C 0.3527(2) 0.99849(12) 0.1931(3)
C18_3 C 0.7434(2) 0.97444(12) 0.3815(3)
C19_3 C 0.9305(3) 0.93640(15) 0.5198(4)
C21_3 C 0.7971(2) 0.94014(14) 0.3220(3)
H15_3 H 0.7701 0.9300 0.2348
C22_3 C 0.8912(3) 0.92028(14) 0.3898(4)
H16_3 H 0.9265 0.8969 0.3491
C26_3 C 0.6473(2) 0.99849(12) 0.3069(3)
C28_3 C 0.8768(3) 0.96948(15) 0.5808(4)
H19_3 H 0.9035 0.9793 0.6682
C29_3 C 0.7830(3) 0.98838(14) 0.5131(4)
C2_3 C 0.0695(3) 0.93640(15) 0.9802(4)
C11_3 C 0.1232(3) 0.96948(15) 0.9192(4)
H5_3 H 0.0965 0.9793 0.8318
C12_3 C 0.2170(3) 0.98838(14) 0.9869(4)
O4_2 O 0.9426(3) 0.63397(11) 0.3601(3)
O5_3 O 0.9784(2) 0.92065(11) 0.9045(3)
O6_3 O 0.8373(2) 0.79182(10) 0.7790(3)
C3_3 C 0.9349(3) 0.62359(14) 0.4741(4)
C6_3 C 0.8582(3) 0.75383(13) 0.6956(4)
C7_3 C 0.9035(2) 0.66863(13) 0.5481(4)
C8_3 C 0.8855(3) 0.65879(14) 0.6699(4)
H3_3 H 0.8893 0.6235 0.7019
C10_3 C 0.8975(3) 0.72110(14) 0.5019(4)
H4_3 H 0.9087 0.7280 0.4201
C13_3 C 0.8622(3) 0.70013(14) 0.7438(4)
H7_3 H 0.8492 0.6929 0.8244
C14_3 C 0.8749(3) 0.76384(13) 0.5749(4)
H8_3 H 0.8710 0.7990 0.5422
C15_3 C 0.8189(3) 0.88084(16) 0.8512(5)
H9_3 H 0.7694 0.8637 0.8884
H10_3 H 0.7934 0.9163 0.8189
C16_3 C 0.9150(3) 0.88791(16) 0.9584(4)
H11_3 H 0.9459 0.8530 0.9851
C17_3 C 0.8318(3) 0.84707(14) 0.7368(4)
H13_3 H 0.8927 0.8573 0.7137
H14_3 H 0.7755 0.8523 0.6605
C20_4 C 0.5651(3) 0.12359(14) 0.0259(4)
H18_4 H 0.5913 0.2280 0.0799
O18_4 O 0.5216(2) 0.42065(11) 0.5955(3)
O19_4 O 0.6627(2) 0.29182(10) 0.7210(3)
C18_4 C 0.2434(2) 0.47444(12) 0.3815(3)
C19_4 C 0.4305(3) 0.43640(15) 0.5198(4)
C21_4 C 0.2971(2) 0.44014(14) 0.3220(3)
H15_4 H 0.2701 0.4300 0.2348
C22_4 C 0.3912(3) 0.42028(14) 0.3898(4)
H16_4 H 0.4265 0.3969 0.3491
C23_4 C 0.6418(3) 0.25383(13) 0.8044(4)
C24_4 C 0.5965(2) 0.16863(13) 0.9519(4)
C25_4 C 0.6145(3) 0.15879(14) 0.8301(4)
H17_4 H 0.6107 0.1235 0.7981
C26_4 C 0.1473(2) 0.49849(12) 0.3069(3)
C27_4 C 0.6025(3) 0.22110(14) 0.9981(4)
C28_4 C 0.3768(3) 0.46948(15) 0.5808(4)
H19_4 H 0.4035 0.4793 0.6682
C29_4 C 0.2830(3) 0.48838(14) 0.5131(4)
H20_4 H 0.2466 0.5103 0.5556
C30_4 C 0.6378(3) 0.20013(14) 0.7562(4)
H21_4 H 0.6508 0.1929 0.6756
C31_4 C 0.6251(3) 0.26384(13) 0.9251(4)
H22_4 H 0.6290 0.2990 0.9578
C32_4 C 0.6811(3) 0.38084(16) 0.6488(5)
H23_4 H 0.7306 0.3637 0.6116
H24_4 H 0.7066 0.4163 0.6811
C33_4 C 0.5850(3) 0.38791(16) 0.5416(4)
H25_4 H 0.5541 0.3530 0.5149
H26_4 H 0.5982 0.4054 0.4654
C34_4 C 0.6682(3) 0.34707(14) 0.7632(4)
H27_4 H 0.6073 0.3573 0.7863
H28_4 H 0.7245 0.3523 0.8395
C1_4 C 0.7566(2) 0.47444(12) 0.1185(3)
C4_4 C 0.7029(2) 0.44014(14) 0.1780(3)
H1_4 H 0.7299 0.4300 0.2652
C5_4 C 0.6088(3) 0.42028(14) 0.1102(4)
H2_4 H 0.5735 0.3969 0.1509
C9_4 C 0.8527(2) 0.49849(12) 0.1931(3)
H12_2 H 0.4018 0.4054 0.0346
O5_4 O 0.4784(2) 0.42065(11) 0.9045(3)
O6_4 O 0.3373(2) 0.29182(10) 0.7790(3)
C2_4 C 0.5695(3) 0.43640(15) 0.9802(4)
C3_4 C 0.4349(3) 0.12359(14) 0.4741(4)
C6_4 C 0.3582(3) 0.25383(13) 0.6956(4)
C7_4 C 0.4035(2) 0.16863(13) 0.5481(4)
C8_4 C 0.3855(3) 0.15879(14) 0.6699(4)
H3_4 H 0.3893 0.1235 0.7019
C10_4 C 0.3975(3) 0.22110(14) 0.5019(4)
H4_4 H 0.4087 0.2280 0.4201
C11_4 C 0.6232(3) 0.46948(15) 0.9192(4)
H5_4 H 0.5965 0.4793 0.8318
C12_4 C 0.7170(3) 0.48838(14) 0.9869(4)
H6_4 H 0.7534 0.5103 0.9444
C13_4 C 0.3622(3) 0.20013(14) 0.7438(4)
H7_4 H 0.3492 0.1929 0.8244
C14_4 C 0.3749(3) 0.26384(13) 0.5749(4)
H8_4 H 0.3710 0.2990 0.5422
C15_4 C 0.3189(3) 0.38084(16) 0.8512(5)
H9_4 H 0.2694 0.3637 0.8884
H10_4 H 0.2934 0.4163 0.8189
C16_4 C 0.4150(3) 0.38791(16) 0.9584(4)
H11_4 H 0.4459 0.3530 0.9851
C17_4 C 0.3318(3) 0.34707(14) 0.7368(4)
H13_4 H 0.3927 0.3573 0.7137
H14_4 H 0.2755 0.3523 0.6605
H12_3 H 0.0982 0.0946 0.9654
H12_4 H 0.9018 0.9054 0.0346
loop_
_geom_bond_atom_site_label_1
_geom_bond_atom_site_label_2
_geom_bond_site_symmetry_1
_geom_bond_site_symmetry_2
Co2 O1 1_555 1_555
O1 C3 1_555 1_555
O4 C3 1_555 1_555
O6 C6 1_555 1_555
C3 C7 1_555 1_555
C6 C13 1_555 1_555
C7 C8 1_555 1_555
C8 H3 1_555 1_555
C10 C7 1_555 1_555
H4 C10 1_555 1_555
C13 C8 1_555 1_555
H7 C13 1_555 1_555
C14 C6 1_555 1_555
H8 C14 1_555 1_555
C15 H9 1_555 1_555
H10 C15 1_555 1_555
C16 O5 1_555 1_555
H11 C16 1_555 1_555
C17 O6 1_555 1_555
H13 C17 1_555 1_555
H14 C17 1_555 1_555
Co3 O4 1_555 1_555
O11 Co2 1_555 1_555
O13 Co2 1_555 1_555
C10 C14 1_555 1_555
C15 C16 1_555 1_555
C15 C17 1_555 1_555
C11 C2 1_555 1_555
H5 C11 1_555 1_555
O8 Co2_2 1_555 1_555
O10 Co2_2 1_555 1_555
O14 Co2_2 1_555 1_555
C11 C12 1_555 1_555
Co3_2 O10 1_555 1_555
O3 C9 1_555 1_555
C1 C4 1_555 1_555
C4 H1 1_555 1_555
C5 C4 1_555 1_555
H2 C5 1_555 1_555
C9 C1 1_555 1_555
Co6 O3 1_555 1_555
O12 Co5_2 1_555 1_555
C18 C21 1_555 1_555
C19 C22 1_555 1_555
C21 H15 1_555 1_555
C22 C21 1_555 1_555
H16 C22 1_555 1_555
C28 C19 1_555 1_555
H19 C28 1_555 1_555
C29 C18 1_555 1_555
O12 C26 1_555 1_555
C18 C26 1_555 1_555
C28 C29 1_555 1_555
Co1 O2 1_555 1_555
Co5_4 O2 1_555 1_555
O9 Co1 1_555 1_555
O16 Co1 1_555 1_555
O17 Co1 1_555 1_555
Co6_2 O9 1_555 1_555
Co7_3 O7 1_555 1_555
O19 C23 1_555 1_555
C23 C30 1_555 1_555
C24 C25 1_555 1_555
C25 H17 1_555 1_555
C27 C24 1_555 1_555
C30 C25 1_555 1_555
H21 C30 1_555 1_555
C31 C23 1_555 1_555
H22 C31 1_555 1_555
C32 H23 1_555 1_555
H24 C32 1_555 1_555
C33 O18 1_555 1_555
H25 C33 1_555 1_555
H26 C33 1_555 1_555
C34 O19 1_555 1_555
H27 C34 1_555 1_555
H28 C34 1_555 1_555
C27 C31 1_555 1_555
C32 C33 1_555 1_555
C32 C34 1_555 1_555
Co3_2 O15 1_555 1_555
O15 C20 1_555 1_555
O14_2 Co7 1_555 1_555
O8_2 Co7_2 1_555 1_555
O10_2 Co7_2 1_555 1_555
Co3 O10_2 1_555 1_555
O11_2 Co7_3 1_555 1_555
O13_2 Co7_4 1_555 1_555
O8_3 Co6 1_555 1_555
O11_3 Co6 1_555 1_555
Co6_2 O1_2 1_555 1_555
O1_2 C3_2 1_555 1_555
O16 C3_2 1_555 1_555
O5_2 C2_2 1_555 1_555
O6_2 C6_2 1_555 1_555
C3_2 C7_2 1_555 1_555
C6_2 C13_2 1_555 1_555
C7_2 C8_2 1_555 1_555
C8_2 H3_2 1_555 1_555
C10_2 C7_2 1_555 1_555
H4_2 C10_2 1_555 1_555
C11_2 C2_2 1_555 1_555
H5_2 C11_2 1_555 1_555
H6_2 C12_2 1_555 1_555
C13_2 C8_2 1_555 1_555
H7_2 C13_2 1_555 1_555
C14_2 C6_2 1_555 1_555
H8_2 C14_2 1_555 1_555
C15_2 H9_2 1_555 1_555
H10_2 C15_2 1_555 1_555
C16_2 O5_2 1_555 1_555
H11_2 C16_2 1_555 1_555
C17_2 O6_2 1_555 1_555
H13_2 C17_2 1_555 1_555
H14_2 C17_2 1_555 1_555
O14_3 Co6_2 1_555 1_555
C10_2 C14_2 1_555 1_555
C11_2 C12_2 1_555 1_555
C15_2 C16_2 1_555 1_555
C15_2 C17_2 1_555 1_555
O10_2 C9_2 1_555 1_555
O13 C9_2 1_555 1_555
C1_2 C4_2 1_555 1_555
C4_2 H1_2 1_555 1_555
C5_2 C4_2 1_555 1_555
H2_2 C5_2 1_555 1_555
C9_2 C1_2 1_555 1_555
Co5_3 O7_2 1_555 1_555
O18_2 C19_2 1_555 1_555
O19_2 C23_2 1_555 1_555
C18_2 C21_2 1_555 1_555
C19_2 C22_2 1_555 1_555
C21_2 H15_2 1_555 1_555
C22_2 C21_2 1_555 1_555
H16_2 C22_2 1_555 1_555
C23_2 C30_2 1_555 1_555
C24_2 C25_2 1_555 1_555
C25_2 H17_2 1_555 1_555
C26_2 O10 1_555 1_555
C27_2 C24_2 1_555 1_555
C28_2 C19_2 1_555 1_555
H19_2 C28_2 1_555 1_555
C29_2 C18_2 1_555 1_555
H20_2 C29_2 1_555 1_555
C30_2 C25_2 1_555 1_555
H21_2 C30_2 1_555 1_555
C31_2 C23_2 1_555 1_555
H22_2 C31_2 1_555 1_555
C32_2 H23_2 1_555 1_555
H24_2 C32_2 1_555 1_555
C33_2 O18_2 1_555 1_555
H25_2 C33_2 1_555 1_555
H26_2 C33_2 1_555 1_555
C34_2 O19_2 1_555 1_555
H27_2 C34_2 1_555 1_555
H28_2 C34_2 1_555 1_555
O13_2 C26_2 1_555 1_555
C18_2 C26_2 1_555 1_555
C27_2 C31_2 1_555 1_555
C28_2 C29_2 1_555 1_555
C32_2 C33_2 1_555 1_555
C32_2 C34_2 1_555 1_555
O17 C20_2 1_555 1_555
O11_4 Co5 1_555 1_555
O8_4 Co5_2 1_555 1_555
O14_4 Co5_3 1_555 1_555
Co4 O15_2 1_555 1_555
O15_2 C20_3 1_555 1_555
O19_3 C23_3 1_555 1_555
C23_3 C30_3 1_555 1_555
C24_3 C25_3 1_555 1_555
C25_3 H17_3 1_555 1_555
C27_3 C24_3 1_555 1_555
C30_3 C25_3 1_555 1_555
H21_3 C30_3 1_555 1_555
C31_3 C23_3 1_555 1_555
H22_3 C31_3 1_555 1_555
C32_3 H23_3 1_555 1_555
H24_3 C32_3 1_555 1_555
C33_3 O18_3 1_555 1_555
H25_3 C33_3 1_555 1_555
H26_3 C33_3 1_555 1_555
C34_3 O19_3 1_555 1_555
H27_3 C34_3 1_555 1_555
H28_3 C34_3 1_555 1_555
C27_3 C31_3 1_555 1_555
C32_3 C33_3 1_555 1_555
C32_3 C34_3 1_555 1_555
Co1_2 O11_4 1_555 1_555
O11_3 Co1_2 1_555 1_555
O16_2 Co1_2 1_555 1_555
O17_2 Co1_2 1_555 1_555
O14_3 C9_3 1_555 1_555
C1_3 C4_3 1_555 1_555
C4_3 H1_3 1_555 1_555
C5_3 C4_3 1_555 1_555
H2_3 C5_3 1_555 1_555
C9_3 C1_3 1_555 1_555
C18_3 C21_3 1_555 1_555
C19_3 C22_3 1_555 1_555
C21_3 H15_3 1_555 1_555
C22_3 C21_3 1_555 1_555
H16_3 C22_3 1_555 1_555
C28_3 C19_3 1_555 1_555
H19_3 C28_3 1_555 1_555
C29_3 C18_3 1_555 1_555
O14_4 C26_3 1_555 1_555
C18_3 C26_3 1_555 1_555
C28_3 C29_3 1_555 1_555
C11_3 C2_3 1_555 1_555
H5_3 C11_3 1_555 1_555
C11_3 C12_3 1_555 1_555
Co4 O11 1_555 1_555
O8 C3_3 1_555 1_555
O4_2 C3_3 1_555 1_555
O6_3 C6_3 1_555 1_555
C3_3 C7_3 1_555 1_555
C6_3 C13_3 1_555 1_555
C7_3 C8_3 1_555 1_555
C8_3 H3_3 1_555 1_555
C10_3 C7_3 1_555 1_555
H4_3 C10_3 1_555 1_555
C13_3 C8_3 1_555 1_555
H7_3 C13_3 1_555 1_555
C14_3 C6_3 1_555 1_555
H8_3 C14_3 1_555 1_555
C15_3 H9_3 1_555 1_555
H10_3 C15_3 1_555 1_555
C16_3 O5_3 1_555 1_555
H11_3 C16_3 1_555 1_555
C17_3 O6_3 1_555 1_555
H13_3 C17_3 1_555 1_555
H14_3 C17_3 1_555 1_555
Co4_2 O4_2 1_555 1_555
C10_3 C14_3 1_555 1_555
C15_3 C16_3 1_555 1_555
C15_3 C17_3 1_555 1_555
Co4_2 O11_2 1_555 1_555
O17_2 C20_4 1_555 1_555
O18_4 C19_4 1_555 1_555
O19_4 C23_4 1_555 1_555
C18_4 C21_4 1_555 1_555
C19_4 C22_4 1_555 1_555
C21_4 H15_4 1_555 1_555
C22_4 C21_4 1_555 1_555
H16_4 C22_4 1_555 1_555
C23_4 C30_4 1_555 1_555
C24_4 C25_4 1_555 1_555
C25_4 H17_4 1_555 1_555
C26_4 O11 1_555 1_555
C27_4 C24_4 1_555 1_555
C28_4 C19_4 1_555 1_555
H19_4 C28_4 1_555 1_555
C29_4 C18_4 1_555 1_555
H20_4 C29_4 1_555 1_555
C30_4 C25_4 1_555 1_555
H21_4 C30_4 1_555 1_555
C31_4 C23_4 1_555 1_555
H22_4 C31_4 1_555 1_555
C32_4 H23_4 1_555 1_555
H24_4 C32_4 1_555 1_555
C33_4 O18_4 1_555 1_555
H25_4 C33_4 1_555 1_555
H26_4 C33_4 1_555 1_555
C34_4 O19_4 1_555 1_555
H27_4 C34_4 1_555 1_555
H28_4 C34_4 1_555 1_555
O14_2 C26_4 1_555 1_555
C18_4 C26_4 1_555 1_555
C27_4 C31_4 1_555 1_555
C28_4 C29_4 1_555 1_555
C32_4 C33_4 1_555 1_555
C32_4 C34_4 1_555 1_555
O11_2 C9_4 1_555 1_555
O14 C9_4 1_555 1_555
C1_4 C4_4 1_555 1_555
C4_4 H1_4 1_555 1_555
C5_4 C4_4 1_555 1_555
H2_4 C5_4 1_555 1_555
C9_4 C1_4 1_555 1_555
O8_3 C3_4 1_555 1_555
O16_2 C3_4 1_555 1_555
O5_4 C2_4 1_555 1_555
O6_4 C6_4 1_555 1_555
C3_4 C7_4 1_555 1_555
C6_4 C13_4 1_555 1_555
C7_4 C8_4 1_555 1_555
C8_4 H3_4 1_555 1_555
C10_4 C7_4 1_555 1_555
H4_4 C10_4 1_555 1_555
C11_4 C2_4 1_555 1_555
H5_4 C11_4 1_555 1_555
H6_4 C12_4 1_555 1_555
C13_4 C8_4 1_555 1_555
H7_4 C13_4 1_555 1_555
C14_4 C6_4 1_555 1_555
H8_4 C14_4 1_555 1_555
C15_4 H9_4 1_555 1_555
H10_4 C15_4 1_555 1_555
C16_4 O5_4 1_555 1_555
H11_4 C16_4 1_555 1_555
C17_4 O6_4 1_555 1_555
H13_4 C17_4 1_555 1_555
H14_4 C17_4 1_555 1_555
C10_4 C14_4 1_555 1_555
C11_4 C12_4 1_555 1_555
C15_4 C16_4 1_555 1_555
C15_4 C17_4 1_555 1_555

#END
