
###############################################################################
#
# This file contains modified crystal structure data generated from the
# MOF subset of the Cambridge Structural Database (CSD) v543 
# hosted by the Cambridge Crystallographic Data Centre (CCDC).
#
# This work is licensed under the Creative Commons
# Attribution-NonCommercial-ShareAlike 4.0 International License.
# To view a copy of this license, visit
# http://creativecommons.org/licenses/by-nc-sa/4.0/
# or send a letter to
# Creative Commons, PO Box 1866, Mountain View, CA 94042, USA.
#
# CIF created using the CSD Python API on 29 September 2022
# The structure has been converted into the P1 space group
# The structure has a 3D framework
# The original CSD entry ILOTEJ03 is in the trigonal crystal system
# The framework has been calculated to contain at least 10.0% void space
# The void calculation uses a probe of radius 1.32A, grid spacing 0.4
# The framework is charged, counterions have been retained in the structure
#
###############################################################################

data_ILOTEJ03
_chemical_formula_moiety         '(C12 H12 Fe4 Mn2 O18 1-)n'
_symmetry_cell_setting           triclinic
_symmetry_space_group_name_H-M   'P 1'
_symmetry_Int_Tables_number      1
_space_group_name_Hall           'P 1'
loop_
_symmetry_equiv_pos_site_id
_symmetry_equiv_pos_as_xyz
1 x,y,z
_cell_length_a                   8.27620(10)
_cell_length_b                   8.27620(10)
_cell_length_c                   13.8975(2)
_cell_angle_alpha                90
_cell_angle_beta                 90
_cell_angle_gamma                120
_cell_volume                     824.383
loop_
_atom_site_label
_atom_site_type_symbol
_atom_site_fract_x
_atom_site_fract_y
_atom_site_fract_z
Fe3 Fe 0.0000 0.0000 0.0000
Fe3_2 Fe 0.0000 0.0000 1.0000
O2 O 0.01616(11) 0.20787(12) 0.08170(6)
O9 O 0.45319(18) 0.11057(13) 0.16589(7)
C5 C 0.33333(23) 0.12175(16) 0.11777(8)
H5 H 0.3487 0.2397 0.1075
Mn3 Mn 0.6667 0.3333 0.2500
Fe3_3 Fe 0.0000 1.0000 0.0000
Fe4 Fe -0.0000 0.0000 0.5000
Fe3_4 Fe 0.0000 1.0000 1.0000
O16 O 0.20787(12) 0.19171(16) 0.91830(6)
O10 O 0.19171(16) 0.98384(11) 0.08170(6)
Fe4_2 Fe -0.0000 1.0000 0.5000
Fe3_5 Fe 1.0000 0.0000 0.0000
Fe3_6 Fe 1.0000 0.0000 1.0000
O1 O 0.88943(13) 0.34262(13) 0.16589(7)
C1 C 0.87825(16) 0.21158(16) 0.11777(8)
H1 H 0.7603 0.1090 0.1075
O5 O 0.65738(13) 0.54681(18) 0.16589(7)
O6 O 0.79213(12) 0.80829(16) 0.08170(6)
C3 C 0.78842(16) 0.66667(23) 0.11777(8)
H3 H 0.8910 0.6513 0.1075
O11 O 0.65738(13) 0.11057(13) 0.33411(7)
C6 C 0.78842(16) 0.12175(16) 0.38223(8)
H6 H 0.8910 0.2397 0.3925
Fe3_7 Fe 1.0000 1.0000 0.0000
Fe4_3 Fe 1.0000 0.0000 0.5000
O13 O 0.45319(18) 0.34262(13) 0.33411(7)
O14 O 0.88943(13) 0.54681(18) 0.33411(7)
Fe3_8 Fe 1.0000 1.0000 1.0000
O17 O 0.80829(16) 0.01616(11) 0.91830(6)
O12 O 0.79213(12) 0.98384(11) 0.41830(6)
Fe4_4 Fe 1.0000 1.0000 0.5000
O15 O 0.98384(11) 0.79213(12) 0.91830(6)
O12_2 O 0.01616(11) 0.80829(16) 0.41830(6)
C6_2 C 0.87825(16) 0.66667(23) 0.38223(8)
H6_2 H 0.7603 0.6513 0.3925
O12_3 O 0.19171(16) 0.20787(12) 0.41830(6)
C6_3 C 0.33333(23) 0.21158(16) 0.38223(8)
H6_3 H 0.3487 0.1090 0.3925
O15_2 O 0.20787(12) 0.01616(11) 0.58170(6)
O17_2 O 0.98384(11) 0.19171(16) 0.58170(6)
O16_2 O 0.80829(16) 0.79213(12) 0.58170(6)
O3 O 0.34262(13) 0.45319(18) 0.83411(7)
C2 C 0.21158(16) 0.33333(23) 0.88223(8)
H2 H 0.1090 0.3487 0.8925
Mn2 Mn 0.3333 0.6667 0.7500
O1_2 O 0.11057(13) 0.65738(13) 0.83411(7)
C1_2 C 0.12175(16) 0.78842(16) 0.88223(8)
H1_2 H 0.2397 0.8910 0.8925
O7 O 0.54681(18) 0.88943(13) 0.83411(7)
C4 C 0.66667(23) 0.87825(16) 0.88223(8)
H4 H 0.6513 0.7603 0.8925
O11_2 O 0.34262(13) 0.88943(13) 0.66589(7)
C6_4 C 0.21158(16) 0.87825(16) 0.61777(8)
H6_4 H 0.1090 0.7603 0.6075
O13_2 O 0.54681(18) 0.65738(13) 0.66589(7)
O14_2 O 0.11057(13) 0.45319(18) 0.66589(7)
C6_5 C 0.12175(16) 0.33333(23) 0.61777(8)
H6_5 H 0.2397 0.3487 0.6075
C6_6 C 0.66667(23) 0.78842(16) 0.61777(8)
H6_6 H 0.6513 0.8910 0.6075
loop_
_geom_bond_atom_site_label_1
_geom_bond_atom_site_label_2
_geom_bond_site_symmetry_1
_geom_bond_site_symmetry_2
Fe3 O2 1_555 1_555
O9 C5 1_555 1_555
H5 C5 1_555 1_555
Mn3 O9 1_555 1_555
O16 Fe3_2 1_555 1_555
O10 Fe3_3 1_555 1_555
Mn3 O1 1_555 1_555
O1 C1 1_555 1_555
C1 H1 1_555 1_555
O5 Mn3 1_555 1_555
O6 C3 1_555 1_555
C3 O5 1_555 1_555
H3 C3 1_555 1_555
O11 Mn3 1_555 1_555
C6 O11 1_555 1_555
H6 C6 1_555 1_555
Fe3_7 O6 1_555 1_555
O13 Mn3 1_555 1_555
O14 Mn3 1_555 1_555
O17 Fe3_6 1_555 1_555
Fe4_4 O12 1_555 1_555
O15 Fe3_8 1_555 1_555
Fe4_2 O12_2 1_555 1_555
C6_2 O14 1_555 1_555
H6_2 C6_2 1_555 1_555
O12_3 C6_3 1_555 1_555
C6_3 O13 1_555 1_555
H6_3 C6_3 1_555 1_555
Fe4 O12_3 1_555 1_555
O15_2 Fe4 1_555 1_555
O17_2 Fe4_3 1_555 1_555
O16_2 Fe4_4 1_555 1_555
O3 C2 1_555 1_555
C2 O16 1_555 1_555
H2 C2 1_555 1_555
Mn2 O3 1_555 1_555
Mn2 O1_2 1_555 1_555
O1_2 C1_2 1_555 1_555
C1_2 H1_2 1_555 1_555
O7 Mn2 1_555 1_555
C4 O7 1_555 1_555
H4 C4 1_555 1_555
O11_2 Mn2 1_555 1_555
C6_4 O11_2 1_555 1_555
H6_4 C6_4 1_555 1_555
O13_2 Mn2 1_555 1_555
O14_2 Mn2 1_555 1_555
C6_5 O14_2 1_555 1_555
H6_5 C6_5 1_555 1_555
O16_2 C6_6 1_555 1_555
C6_6 O13_2 1_555 1_555
H6_6 C6_6 1_555 1_555

#END
