
###############################################################################
#
# This file contains modified crystal structure data generated from the
# MOF subset of the Cambridge Structural Database (CSD) v543 
# hosted by the Cambridge Crystallographic Data Centre (CCDC).
#
# This work is licensed under the Creative Commons
# Attribution-NonCommercial-ShareAlike 4.0 International License.
# To view a copy of this license, visit
# http://creativecommons.org/licenses/by-nc-sa/4.0/
# or send a letter to
# Creative Commons, PO Box 1866, Mountain View, CA 94042, USA.
#
# CIF created using the CSD Python API on 29 September 2022
# The structure has been converted into the P1 space group
# The structure has a 3D framework
# The original CSD entry ILOTEJ05 is in the trigonal crystal system
# The framework has been calculated to contain at least 10.0% void space
# The void calculation uses a probe of radius 1.32A, grid spacing 0.4
# The framework is charged, counterions have been retained in the structure
#
###############################################################################

data_ILOTEJ05
_chemical_formula_moiety         '(C12 H12 Fe4 Mn2 O18 1-)n'
_symmetry_cell_setting           triclinic
_symmetry_space_group_name_H-M   'P 1'
_symmetry_Int_Tables_number      1
_space_group_name_Hall           'P 1'
loop_
_symmetry_equiv_pos_site_id
_symmetry_equiv_pos_as_xyz
1 x,y,z
_cell_length_a                   8.27610(10)
_cell_length_b                   8.27610(10)
_cell_length_c                   13.8917(2)
_cell_angle_alpha                90
_cell_angle_beta                 90
_cell_angle_gamma                120
_cell_volume                     824.019
loop_
_atom_site_label
_atom_site_type_symbol
_atom_site_fract_x
_atom_site_fract_y
_atom_site_fract_z
Fe3 Fe -0.0000 0.0000 0.0000
Fe3_2 Fe -0.0000 0.0000 1.0000
O2 O 0.01598(14) 0.20798(15) 0.08183(7)
O9 O 0.45322(22) 0.11093(16) 0.16597(9)
C5 C 0.3328(3) 0.1216(2) 0.11824(10)
H5 H 0.3474 0.2394 0.1086
Mn3 Mn 0.6667 0.3333 0.2500
Fe3_3 Fe 0.0000 1.0000 0.0000
Fe4 Fe -0.0000 0.0000 0.5000
Fe3_4 Fe -0.0000 1.0000 1.0000
O16 O 0.20798(15) 0.19200(21) 0.91817(7)
O10 O 0.19200(21) 0.98402(14) 0.08183(7)
Fe4_2 Fe -0.0000 1.0000 0.5000
Fe3_5 Fe 1.0000 0.0000 0.0000
Fe3_6 Fe 1.0000 0.0000 1.0000
O1 O 0.88907(16) 0.34229(15) 0.16597(9)
C1 C 0.8784(2) 0.2112(2) 0.11824(10)
H1 H 0.7606 0.1080 0.1086
O5 O 0.65771(15) 0.54678(22) 0.16597(9)
O6 O 0.79202(15) 0.80800(21) 0.08183(7)
C3 C 0.7888(2) 0.6672(3) 0.11824(10)
H3 H 0.8920 0.6526 0.1086
O11 O 0.65771(15) 0.11093(16) 0.33403(9)
C6 C 0.7888(2) 0.1216(2) 0.38176(10)
H6 H 0.8920 0.2394 0.3914
Fe3_7 Fe 1.0000 1.0000 0.0000
Fe4_3 Fe 1.0000 0.0000 0.5000
O13 O 0.45322(22) 0.34229(15) 0.33403(9)
O14 O 0.88907(16) 0.54678(22) 0.33403(9)
Fe3_8 Fe 1.0000 1.0000 1.0000
O17 O 0.80800(21) 0.01598(14) 0.91817(7)
O12 O 0.79202(15) 0.98402(14) 0.41817(7)
Fe4_4 Fe 1.0000 1.0000 0.5000
O15 O 0.98402(14) 0.79202(15) 0.91817(7)
O12_2 O 0.01598(14) 0.80800(21) 0.41817(7)
C6_2 C 0.8784(2) 0.6672(3) 0.38176(10)
H6_2 H 0.7606 0.6526 0.3914
O12_3 O 0.19200(21) 0.20798(15) 0.41817(7)
C6_3 C 0.3328(3) 0.2112(2) 0.38176(10)
H6_3 H 0.3474 0.1080 0.3914
O15_2 O 0.20798(15) 0.01598(14) 0.58183(7)
O17_2 O 0.98402(14) 0.19200(21) 0.58183(7)
O16_2 O 0.80800(21) 0.79202(15) 0.58183(7)
O3 O 0.34229(15) 0.45322(22) 0.83403(9)
C2 C 0.2112(2) 0.3328(3) 0.88176(10)
H2 H 0.1080 0.3474 0.8914
Mn2 Mn 0.3333 0.6667 0.7500
O1_2 O 0.11093(16) 0.65771(15) 0.83403(9)
C1_2 C 0.1216(2) 0.7888(2) 0.88176(10)
H1_2 H 0.2394 0.8920 0.8914
O7 O 0.54678(22) 0.88907(16) 0.83403(9)
C4 C 0.6672(3) 0.8784(2) 0.88176(10)
H4 H 0.6526 0.7606 0.8914
O11_2 O 0.34229(15) 0.88907(16) 0.66597(9)
C6_4 C 0.2112(2) 0.8784(2) 0.61824(10)
H6_4 H 0.1080 0.7606 0.6086
O13_2 O 0.54678(22) 0.65771(15) 0.66597(9)
O14_2 O 0.11093(16) 0.45322(22) 0.66597(9)
C6_5 C 0.1216(2) 0.3328(3) 0.61824(10)
H6_5 H 0.2394 0.3474 0.6086
C6_6 C 0.6672(3) 0.7888(2) 0.61824(10)
H6_6 H 0.6526 0.8920 0.6086
loop_
_geom_bond_atom_site_label_1
_geom_bond_atom_site_label_2
_geom_bond_site_symmetry_1
_geom_bond_site_symmetry_2
Fe3 O2 1_555 1_555
O9 C5 1_555 1_555
H5 C5 1_555 1_555
Mn3 O9 1_555 1_555
O16 Fe3_2 1_555 1_555
O10 Fe3_3 1_555 1_555
Mn3 O1 1_555 1_555
O1 C1 1_555 1_555
C1 H1 1_555 1_555
O5 Mn3 1_555 1_555
O6 C3 1_555 1_555
C3 O5 1_555 1_555
H3 C3 1_555 1_555
O11 Mn3 1_555 1_555
C6 O11 1_555 1_555
H6 C6 1_555 1_555
Fe3_7 O6 1_555 1_555
O13 Mn3 1_555 1_555
O14 Mn3 1_555 1_555
O17 Fe3_6 1_555 1_555
Fe4_4 O12 1_555 1_555
O15 Fe3_8 1_555 1_555
Fe4_2 O12_2 1_555 1_555
C6_2 O14 1_555 1_555
H6_2 C6_2 1_555 1_555
O12_3 C6_3 1_555 1_555
C6_3 O13 1_555 1_555
H6_3 C6_3 1_555 1_555
Fe4 O12_3 1_555 1_555
O15_2 Fe4 1_555 1_555
O17_2 Fe4_3 1_555 1_555
O16_2 Fe4_4 1_555 1_555
O3 C2 1_555 1_555
C2 O16 1_555 1_555
H2 C2 1_555 1_555
Mn2 O3 1_555 1_555
Mn2 O1_2 1_555 1_555
O1_2 C1_2 1_555 1_555
C1_2 H1_2 1_555 1_555
O7 Mn2 1_555 1_555
C4 O7 1_555 1_555
H4 C4 1_555 1_555
O11_2 Mn2 1_555 1_555
C6_4 O11_2 1_555 1_555
H6_4 C6_4 1_555 1_555
O13_2 Mn2 1_555 1_555
O14_2 Mn2 1_555 1_555
C6_5 O14_2 1_555 1_555
H6_5 C6_5 1_555 1_555
O16_2 C6_6 1_555 1_555
C6_6 O13_2 1_555 1_555
H6_6 C6_6 1_555 1_555

#END
