
###############################################################################
#
# This file contains modified crystal structure data generated from the
# MOF subset of the Cambridge Structural Database (CSD) v543 
# hosted by the Cambridge Crystallographic Data Centre (CCDC).
#
# This work is licensed under the Creative Commons
# Attribution-NonCommercial-ShareAlike 4.0 International License.
# To view a copy of this license, visit
# http://creativecommons.org/licenses/by-nc-sa/4.0/
# or send a letter to
# Creative Commons, PO Box 1866, Mountain View, CA 94042, USA.
#
# CIF created using the CSD Python API on 29 September 2022
# The structure has been converted into the P1 space group
# The structure has a 3D framework
# The original CSD entry ILOTIN07 is in the trigonal crystal system
# The framework has been calculated to contain at least 10.0% void space
# The void calculation uses a probe of radius 1.32A, grid spacing 0.4
# The framework is charged, counterions have been retained in the structure
#
###############################################################################

data_ILOTIN07
_chemical_formula_moiety         '(C12 H12 Co2 Fe4 O18)n'
_symmetry_cell_setting           triclinic
_symmetry_space_group_name_H-M   'P 1'
_symmetry_Int_Tables_number      1
_space_group_name_Hall           'P 1'
loop_
_symmetry_equiv_pos_site_id
_symmetry_equiv_pos_as_xyz
1 x,y,z
_cell_length_a                   8.21360(10)
_cell_length_b                   8.21360(10)
_cell_length_c                   13.6935(2)
_cell_angle_alpha                90
_cell_angle_beta                 90
_cell_angle_gamma                120
_cell_volume                     800.041
loop_
_atom_site_label
_atom_site_type_symbol
_atom_site_fract_x
_atom_site_fract_y
_atom_site_fract_z
Fe3 Fe 0.0000 0.0000 0.0000
Fe3_2 Fe 0.0000 0.0000 1.0000
O2 O 0.01280(14) 0.20881(16) 0.08292(8)
O9 O 0.45993(22) 0.11681(17) 0.16817(10)
C5 C 0.3362(3) 0.1265(2) 0.12072(12)
H5 H 0.3478 0.2442 0.1126
Co3 Co 0.6667 0.3333 0.2500
Fe3_3 Fe 0.0000 1.0000 0.0000
Fe4 Fe -0.0000 0.0000 0.5000
Fe3_4 Fe 0.0000 1.0000 1.0000
O16 O 0.20881(16) 0.19601(21) 0.91708(8)
O10 O 0.19601(21) 0.98720(14) 0.08292(8)
Fe4_2 Fe -0.0000 1.0000 0.5000
Fe3_5 Fe 1.0000 0.0000 0.0000
Fe3_6 Fe 1.0000 0.0000 1.0000
O1 O 0.88319(17) 0.34312(14) 0.16817(10)
C1 C 0.8735(2) 0.2097(2) 0.12072(12)
H1 H 0.7558 0.1036 0.1126
O5 O 0.65688(14) 0.54007(22) 0.16817(10)
O6 O 0.79119(16) 0.80399(21) 0.08292(8)
C3 C 0.7903(2) 0.6638(3) 0.12072(12)
H3 H 0.8964 0.6522 0.1126
O11 O 0.65688(14) 0.11681(17) 0.33183(10)
C6 C 0.7903(2) 0.1265(2) 0.37928(12)
H6 H 0.8964 0.2442 0.3874
Fe3_7 Fe 1.0000 1.0000 0.0000
Fe4_3 Fe 1.0000 0.0000 0.5000
O13 O 0.45993(22) 0.34312(14) 0.33183(10)
O14 O 0.88319(17) 0.54007(22) 0.33183(10)
Fe3_8 Fe 1.0000 1.0000 1.0000
O17 O 0.80399(21) 0.01280(14) 0.91708(8)
O12 O 0.79119(16) 0.98720(14) 0.41708(8)
Fe4_4 Fe 1.0000 1.0000 0.5000
O15 O 0.98720(14) 0.79119(16) 0.91708(8)
O12_2 O 0.01280(14) 0.80399(21) 0.41708(8)
C6_2 C 0.8735(2) 0.6638(3) 0.37928(12)
H6_2 H 0.7558 0.6522 0.3874
O12_3 O 0.19601(21) 0.20881(16) 0.41708(8)
C6_3 C 0.3362(3) 0.2097(2) 0.37928(12)
H6_3 H 0.3478 0.1036 0.3874
O15_2 O 0.20881(16) 0.01280(14) 0.58292(8)
O17_2 O 0.98720(14) 0.19601(21) 0.58292(8)
O16_2 O 0.80399(21) 0.79119(16) 0.58292(8)
O3 O 0.34312(14) 0.45993(22) 0.83183(10)
C2 C 0.2097(2) 0.3362(3) 0.87928(12)
H2 H 0.1036 0.3478 0.8874
Co2 Co 0.3333 0.6667 0.7500
O1_2 O 0.11681(17) 0.65688(14) 0.83183(10)
C1_2 C 0.1265(2) 0.7903(2) 0.87928(12)
H1_2 H 0.2442 0.8964 0.8874
O7 O 0.54007(22) 0.88319(17) 0.83183(10)
C4 C 0.6638(3) 0.8735(2) 0.87928(12)
H4 H 0.6522 0.7558 0.8874
O11_2 O 0.34312(14) 0.88319(17) 0.66817(10)
C6_4 C 0.2097(2) 0.8735(2) 0.62072(12)
H6_4 H 0.1036 0.7558 0.6126
O13_2 O 0.54007(22) 0.65688(14) 0.66817(10)
O14_2 O 0.11681(17) 0.45993(22) 0.66817(10)
C6_5 C 0.1265(2) 0.3362(3) 0.62072(12)
H6_5 H 0.2442 0.3478 0.6126
C6_6 C 0.6638(3) 0.7903(2) 0.62072(12)
H6_6 H 0.6522 0.8964 0.6126
loop_
_geom_bond_atom_site_label_1
_geom_bond_atom_site_label_2
_geom_bond_site_symmetry_1
_geom_bond_site_symmetry_2
Fe3 O2 1_555 1_555
O9 C5 1_555 1_555
H5 C5 1_555 1_555
Co3 O9 1_555 1_555
O16 Fe3_2 1_555 1_555
O10 Fe3_3 1_555 1_555
Co3 O1 1_555 1_555
O1 C1 1_555 1_555
C1 H1 1_555 1_555
O5 Co3 1_555 1_555
O6 C3 1_555 1_555
C3 O5 1_555 1_555
H3 C3 1_555 1_555
O11 Co3 1_555 1_555
C6 O11 1_555 1_555
H6 C6 1_555 1_555
Fe3_7 O6 1_555 1_555
O13 Co3 1_555 1_555
O14 Co3 1_555 1_555
O17 Fe3_6 1_555 1_555
Fe4_4 O12 1_555 1_555
O15 Fe3_8 1_555 1_555
Fe4_2 O12_2 1_555 1_555
C6_2 O14 1_555 1_555
H6_2 C6_2 1_555 1_555
O12_3 C6_3 1_555 1_555
C6_3 O13 1_555 1_555
H6_3 C6_3 1_555 1_555
Fe4 O12_3 1_555 1_555
O15_2 Fe4 1_555 1_555
O17_2 Fe4_3 1_555 1_555
O16_2 Fe4_4 1_555 1_555
O3 C2 1_555 1_555
C2 O16 1_555 1_555
H2 C2 1_555 1_555
Co2 O3 1_555 1_555
Co2 O1_2 1_555 1_555
O1_2 C1_2 1_555 1_555
C1_2 H1_2 1_555 1_555
O7 Co2 1_555 1_555
C4 O7 1_555 1_555
H4 C4 1_555 1_555
O11_2 Co2 1_555 1_555
C6_4 O11_2 1_555 1_555
H6_4 C6_4 1_555 1_555
O13_2 Co2 1_555 1_555
O14_2 Co2 1_555 1_555
C6_5 O14_2 1_555 1_555
H6_5 C6_5 1_555 1_555
O16_2 C6_6 1_555 1_555
C6_6 O13_2 1_555 1_555
H6_6 C6_6 1_555 1_555

#END
