
###############################################################################
#
# This file contains modified crystal structure data generated from the
# MOF subset of the Cambridge Structural Database (CSD) v543 
# hosted by the Cambridge Crystallographic Data Centre (CCDC).
#
# This work is licensed under the Creative Commons
# Attribution-NonCommercial-ShareAlike 4.0 International License.
# To view a copy of this license, visit
# http://creativecommons.org/licenses/by-nc-sa/4.0/
# or send a letter to
# Creative Commons, PO Box 1866, Mountain View, CA 94042, USA.
#
# CIF created using the CSD Python API on 29 September 2022
# The structure has been converted into the P1 space group
# The structure has a 3D framework
# The original CSD entry ILOTIN01 is in the trigonal crystal system
# The framework has been calculated to contain at least 10.0% void space
# The void calculation uses a probe of radius 1.32A, grid spacing 0.4
# The framework is charged, counterions have been retained in the structure
#
###############################################################################

data_ILOTIN01
_chemical_formula_moiety         '(C12 H12 Co2 Fe4 O18)n'
_symmetry_cell_setting           triclinic
_symmetry_space_group_name_H-M   'P 1'
_symmetry_Int_Tables_number      1
_space_group_name_Hall           'P 1'
loop_
_symmetry_equiv_pos_site_id
_symmetry_equiv_pos_as_xyz
1 x,y,z
_cell_length_a                   8.21840(10)
_cell_length_b                   8.21840(10)
_cell_length_c                   13.6756(2)
_cell_angle_alpha                90
_cell_angle_beta                 90
_cell_angle_gamma                120
_cell_volume                     799.929
loop_
_atom_site_label
_atom_site_type_symbol
_atom_site_fract_x
_atom_site_fract_y
_atom_site_fract_z
Fe3 Fe 0.0000 0.0000 0.0000
Fe3_2 Fe -0.0000 0.0000 1.0000
O2 O 0.01329(8) 0.20882(9) 0.08300(5)
O9 O 0.46026(13) 0.11657(10) 0.16801(5)
C5 C 0.33711(17) 0.12690(12) 0.11995(6)
H5 H 0.3501 0.2449 0.1107
Co3 Co 0.6667 0.3333 0.2500
Fe3_3 Fe -0.0000 1.0000 0.0000
Fe4 Fe -0.0000 0.0000 0.5000
Fe3_4 Fe -0.0000 1.0000 1.0000
O16 O 0.20882(9) 0.19553(12) 0.91700(5)
O10 O 0.19553(12) 0.98671(8) 0.08300(5)
Fe4_2 Fe -0.0000 1.0000 0.5000
Fe3_5 Fe 1.0000 0.0000 0.0000
Fe3_6 Fe 1.0000 0.0000 1.0000
O1 O 0.88343(10) 0.34369(9) 0.16801(5)
C1 C 0.87310(12) 0.21021(12) 0.11995(6)
H1 H 0.7551 0.1052 0.1107
O5 O 0.65631(9) 0.53974(13) 0.16801(5)
O6 O 0.79118(9) 0.80447(12) 0.08300(5)
C3 C 0.78979(12) 0.66289(17) 0.11995(6)
H3 H 0.8948 0.6499 0.1107
O11 O 0.65631(9) 0.11657(10) 0.33199(5)
C6 C 0.78979(12) 0.12690(12) 0.38005(6)
H6 H 0.8948 0.2449 0.3893
Fe3_7 Fe 1.0000 1.0000 0.0000
Fe4_3 Fe 1.0000 0.0000 0.5000
O13 O 0.46026(13) 0.34369(9) 0.33199(5)
O14 O 0.88343(10) 0.53974(13) 0.33199(5)
Fe3_8 Fe 1.0000 1.0000 1.0000
O17 O 0.80447(12) 0.01329(8) 0.91700(5)
O12 O 0.79118(9) 0.98671(8) 0.41700(5)
Fe4_4 Fe 1.0000 1.0000 0.5000
O15 O 0.98671(8) 0.79118(9) 0.91700(5)
O12_2 O 0.01329(8) 0.80447(12) 0.41700(5)
C6_2 C 0.87310(12) 0.66289(17) 0.38005(6)
H6_2 H 0.7551 0.6499 0.3893
O12_3 O 0.19553(12) 0.20882(9) 0.41700(5)
C6_3 C 0.33711(17) 0.21021(12) 0.38005(6)
H6_3 H 0.3501 0.1052 0.3893
O15_2 O 0.20882(9) 0.01329(8) 0.58300(5)
O17_2 O 0.98671(8) 0.19553(12) 0.58300(5)
O16_2 O 0.80447(12) 0.79118(9) 0.58300(5)
O3 O 0.34369(9) 0.46026(13) 0.83199(5)
C2 C 0.21021(12) 0.33711(17) 0.88005(6)
H2 H 0.1052 0.3501 0.8893
Co2 Co 0.3333 0.6667 0.7500
O1_2 O 0.11657(10) 0.65631(9) 0.83199(5)
C1_2 C 0.12690(12) 0.78979(12) 0.88005(6)
H1_2 H 0.2449 0.8948 0.8893
O7 O 0.53974(13) 0.88343(10) 0.83199(5)
C4 C 0.66289(17) 0.87310(12) 0.88005(6)
H4 H 0.6499 0.7551 0.8893
O11_2 O 0.34369(9) 0.88343(10) 0.66801(5)
C6_4 C 0.21021(12) 0.87310(12) 0.61995(6)
H6_4 H 0.1052 0.7551 0.6107
O13_2 O 0.53974(13) 0.65631(9) 0.66801(5)
O14_2 O 0.11657(10) 0.46026(13) 0.66801(5)
C6_5 C 0.12690(12) 0.33711(17) 0.61995(6)
H6_5 H 0.2449 0.3501 0.6107
C6_6 C 0.66289(17) 0.78979(12) 0.61995(6)
H6_6 H 0.6499 0.8948 0.6107
loop_
_geom_bond_atom_site_label_1
_geom_bond_atom_site_label_2
_geom_bond_site_symmetry_1
_geom_bond_site_symmetry_2
Fe3 O2 1_555 1_555
O9 C5 1_555 1_555
H5 C5 1_555 1_555
Co3 O9 1_555 1_555
O16 Fe3_2 1_555 1_555
O10 Fe3_3 1_555 1_555
Co3 O1 1_555 1_555
O1 C1 1_555 1_555
C1 H1 1_555 1_555
O5 Co3 1_555 1_555
O6 C3 1_555 1_555
C3 O5 1_555 1_555
H3 C3 1_555 1_555
O11 Co3 1_555 1_555
C6 O11 1_555 1_555
H6 C6 1_555 1_555
Fe3_7 O6 1_555 1_555
O13 Co3 1_555 1_555
O14 Co3 1_555 1_555
O17 Fe3_6 1_555 1_555
Fe4_4 O12 1_555 1_555
O15 Fe3_8 1_555 1_555
Fe4_2 O12_2 1_555 1_555
C6_2 O14 1_555 1_555
H6_2 C6_2 1_555 1_555
O12_3 C6_3 1_555 1_555
C6_3 O13 1_555 1_555
H6_3 C6_3 1_555 1_555
Fe4 O12_3 1_555 1_555
O15_2 Fe4 1_555 1_555
O17_2 Fe4_3 1_555 1_555
O16_2 Fe4_4 1_555 1_555
O3 C2 1_555 1_555
C2 O16 1_555 1_555
H2 C2 1_555 1_555
Co2 O3 1_555 1_555
Co2 O1_2 1_555 1_555
O1_2 C1_2 1_555 1_555
C1_2 H1_2 1_555 1_555
O7 Co2 1_555 1_555
C4 O7 1_555 1_555
H4 C4 1_555 1_555
O11_2 Co2 1_555 1_555
C6_4 O11_2 1_555 1_555
H6_4 C6_4 1_555 1_555
O13_2 Co2 1_555 1_555
O14_2 Co2 1_555 1_555
C6_5 O14_2 1_555 1_555
H6_5 C6_5 1_555 1_555
O16_2 C6_6 1_555 1_555
C6_6 O13_2 1_555 1_555
H6_6 C6_6 1_555 1_555

#END
