
###############################################################################
#
# This file contains modified crystal structure data generated from the
# MOF subset of the Cambridge Structural Database (CSD) v543 
# hosted by the Cambridge Crystallographic Data Centre (CCDC).
#
# This work is licensed under the Creative Commons
# Attribution-NonCommercial-ShareAlike 4.0 International License.
# To view a copy of this license, visit
# http://creativecommons.org/licenses/by-nc-sa/4.0/
# or send a letter to
# Creative Commons, PO Box 1866, Mountain View, CA 94042, USA.
#
# CIF created using the CSD Python API on 29 September 2022
# The structure has been converted into the P1 space group
# The structure has a 3D framework
# The original CSD entry ILUGOM is in the hexagonal crystal system
# The framework has been calculated to contain at least 10.0% void space
# The void calculation uses a probe of radius 1.32A, grid spacing 0.4
# H atom positions have been added when not included in the experimental data
# Generated hydrogen atom positions removed from atoms on special positions
#
###############################################################################

data_ILUGOM
_chemical_formula_moiety         '(C84 H132 Er4 Fe15 N12 O66)n'
_symmetry_cell_setting           triclinic
_symmetry_space_group_name_H-M   'P 1'
_symmetry_Int_Tables_number      1
_space_group_name_Hall           'P 1'
loop_
_symmetry_equiv_pos_site_id
_symmetry_equiv_pos_as_xyz
1 x,y,z
_cell_length_a                   15.165(7)
_cell_length_b                   15.165(7)
_cell_length_c                   15.713(8)
_cell_angle_alpha                90
_cell_angle_beta                 90
_cell_angle_gamma                120
_cell_volume                     3129.5
loop_
_atom_site_label
_atom_site_type_symbol
_atom_site_fract_x
_atom_site_fract_y
_atom_site_fract_z
Fe3 Fe 0.5000 -0.0000 0.0000
Fe9 Fe 0.5000 -0.0000 0.5000
O28 O 0.6157(2) 0.0649(3) 0.0912(2)
O37 O 0.4875(3) 0.1399(4) 0.0000
Fe3_2 Fe 0.5000 -0.0000 1.0000
O29 O 0.6157(2) 0.0649(3) 0.9088(2)
O37_2 O 0.4875(3) 0.1399(4) 1.0000
Er1 Er 0.3333 0.6667 0.2500
Fe1 Fe 0.5000 0.5000 0.0000
O1 O 0.4107(2) 0.6104(2) 0.1445(2)
O2 O 0.5508(2) 0.6157(2) 0.0912(2)
O3 O 0.6524(3) 0.5125(3) 0.0000
N1 N 0.5209(3) 0.76047(17) 0.2500
C1 C 0.7293(5) 0.8647(2) 0.2500
H1 H 0.8001 0.9001 0.2500
C2 C 0.6771(3) 0.7860(4) 0.1934(4)
H2 H 0.7115 0.7680 0.1544
C3 C 0.5727(3) 0.7351(3) 0.1964(3)
C4 C 0.5066(4) 0.6466(3) 0.1393(3)
Fe2 Fe 0.0000 0.5000 0.0000
Fe3_3 Fe 0.5000 1.0000 0.0000
Fe5 Fe 0.5000 0.5000 0.5000
Fe6 Fe 0.0000 0.5000 0.5000
Fe9_2 Fe 0.5000 1.0000 0.5000
O4 O 0.4107(2) 0.8003(3) 0.3555(2)
O7 O 0.1997(3) 0.5893(2) 0.1445(2)
O8 O 0.3896(2) 0.5893(2) 0.3555(2)
O11 O 0.3896(2) 0.8003(3) 0.1445(2)
O12 O 0.1997(3) 0.6104(2) 0.3555(2)
O17 O 0.5508(2) 0.9351(3) 0.4088(2)
O20 O 0.0649(3) 0.4492(2) 0.0912(2)
O21 O 0.3843(2) 0.4492(2) 0.4088(2)
O24 O 0.3843(2) 0.9351(3) 0.0912(2)
O25 O 0.0649(3) 0.6157(2) 0.4088(2)
O31 O 0.4492(2) 0.3843(2) 0.0912(2)
O34 O 0.3476(3) 0.4875(3) 0.0000
O35 O 0.1399(4) 0.6524(3) 0.0000
O38 O 0.5125(3) 0.8601(4) 0.0000
N3 N 0.23957(34) 0.4791(3) 0.2500
N5 N 0.23953(17) 0.76043(34) 0.2500
C6 C 0.1354(5) 0.2707(5) 0.2500
C8 C 0.1353(2) 0.8646(5) 0.2500
H4 H 0.1000 0.1999 0.2500
H6 H 0.0999 0.9000 0.2500
C10 C 0.6771(3) 0.8911(5) 0.3066(4)
C13 C 0.1089(5) 0.3229(3) 0.1934(4)
C14 C 0.2140(4) 0.3229(3) 0.3066(4)
C17 C 0.2140(4) 0.8911(5) 0.1934(4)
C18 C 0.1089(5) 0.7860(4) 0.3066(4)
H8 H 0.7115 0.9435 0.3456
H11 H 0.0565 0.2885 0.1544
H12 H 0.2320 0.2885 0.3456
H15 H 0.2320 0.9435 0.1544
H16 H 0.0565 0.7680 0.3456
C21 C 0.5727(3) 0.8376(4) 0.3036(3)
C24 C 0.1624(4) 0.4273(3) 0.1964(3)
C25 C 0.2649(3) 0.4273(3) 0.3036(3)
C28 C 0.2649(3) 0.8376(4) 0.1964(3)
C29 C 0.1624(4) 0.7351(3) 0.3036(3)
C32 C 0.5066(4) 0.8600(5) 0.3607(3)
C35 C 0.1400(5) 0.4934(4) 0.1393(3)
C36 C 0.3534(3) 0.4934(4) 0.3607(3)
C39 C 0.3534(3) 0.8600(5) 0.1393(3)
C40 C 0.1400(5) 0.6466(3) 0.3607(3)
Fe1_2 Fe 0.5000 0.5000 1.0000
O3_2 O 0.6524(3) 0.5125(3) 1.0000
Er2 Er 0.3334 0.6667 0.7500
Er3 Er 0.6666 0.3333 0.7500
Fe2_2 Fe 0.0000 0.5000 1.0000
Fe3_4 Fe 0.5000 1.0000 1.0000
O5 O 0.4107(2) 0.6104(2) 0.8555(2)
O6 O 0.4107(2) 0.8003(3) 0.6445(2)
O9 O 0.1997(3) 0.5893(2) 0.8555(2)
O10 O 0.3896(2) 0.5893(2) 0.6445(2)
O13 O 0.5893(2) 0.3896(2) 0.8555(2)
O14 O 0.5893(2) 0.1997(3) 0.6445(2)
O15 O 0.1997(3) 0.6104(2) 0.6445(2)
O16 O 0.3896(2) 0.8003(3) 0.8555(2)
O18 O 0.5508(2) 0.6157(2) 0.9088(2)
O19 O 0.5508(2) 0.9351(3) 0.5912(2)
O22 O 0.0649(3) 0.4492(2) 0.9088(2)
O23 O 0.3843(2) 0.4492(2) 0.5912(2)
O26 O 0.4492(2) 0.3843(2) 0.9088(2)
O27 O 0.4492(2) 0.0649(3) 0.5912(2)
O33 O 0.3843(2) 0.9351(3) 0.9088(2)
O34_2 O 0.3476(3) 0.4875(3) 1.0000
O35_2 O 0.1399(4) 0.6524(3) 1.0000
O38_2 O 0.5125(3) 0.8601(4) 1.0000
N2 N 0.5209(3) 0.76047(17) 0.7500
N4 N 0.23957(34) 0.4791(3) 0.7500
N6 N 0.4791(3) 0.23953(17) 0.7500
N7 N 0.23957(34) 0.76047(17) 0.7500
C5 C 0.7293(5) 0.8647(2) 0.7500
C7 C 0.1354(5) 0.2707(5) 0.7500
C9 C 0.2707(5) 0.1353(2) 0.7500
H3 H 0.8001 0.9001 0.7500
H5 H 0.1000 0.1999 0.7500
H7 H 0.1999 0.0999 0.7500
C11 C 0.6771(3) 0.7860(4) 0.8066(4)
C12 C 0.6771(3) 0.8911(5) 0.6934(4)
C15 C 0.1089(5) 0.3229(3) 0.8066(4)
C16 C 0.2140(4) 0.3229(3) 0.6934(4)
C19 C 0.3229(3) 0.2140(4) 0.8066(4)
C20 C 0.3229(3) 0.1089(5) 0.6934(4)
H9 H 0.7115 0.7680 0.8456
H10 H 0.7115 0.9435 0.6544
H13 H 0.0565 0.2885 0.8456
H14 H 0.2320 0.2885 0.6544
H17 H 0.2885 0.2320 0.8456
H18 H 0.2885 0.0565 0.6544
C22 C 0.5727(3) 0.7351(3) 0.8036(3)
C23 C 0.5727(3) 0.8376(4) 0.6964(3)
C26 C 0.1624(4) 0.4273(3) 0.8036(3)
C27 C 0.2649(3) 0.4273(3) 0.6964(3)
C30 C 0.4273(3) 0.2649(3) 0.8036(3)
C31 C 0.4273(3) 0.1624(4) 0.6964(3)
C33 C 0.5066(4) 0.6466(3) 0.8607(3)
C34 C 0.5066(4) 0.8600(5) 0.6393(3)
C37 C 0.1400(5) 0.4934(4) 0.8607(3)
C38 C 0.3534(3) 0.4934(4) 0.6393(3)
C41 C 0.4934(4) 0.3534(3) 0.8607(3)
C42 C 0.4934(4) 0.1400(5) 0.6393(3)
Fe2_3 Fe 1.0000 0.5000 0.0000
Fe6_2 Fe 1.0000 0.5000 0.5000
O30 O 0.9351(3) 0.5508(2) 0.0912(2)
O36 O 0.8601(4) 0.3476(3) 0.0000
Fe2_4 Fe 1.0000 0.5000 1.0000
O32 O 0.9351(3) 0.5508(2) 0.9088(2)
O36_2 O 0.8601(4) 0.3476(3) 1.0000
Er1_2 Er 0.6666 0.3333 0.2500
O1_2 O 0.8003(3) 0.4107(2) 0.1445(2)
N1_2 N 0.76043(34) 0.5209(3) 0.2500
C1_2 C 0.8646(5) 0.7293(5) 0.2500
H1_2 H 0.9000 0.8001 0.2500
C2_2 C 0.8911(5) 0.6771(3) 0.1934(4)
H2_2 H 0.9435 0.7115 0.1544
C3_2 C 0.8376(4) 0.5727(3) 0.1964(3)
C4_2 C 0.8600(5) 0.5066(4) 0.1393(3)
O4_2 O 0.6104(4) 0.4107(2) 0.3555(2)
O7_2 O 0.6104(4) 0.1997(3) 0.1445(2)
O8_2 O 0.8003(3) 0.3896(2) 0.3555(2)
O11_2 O 0.5893(4) 0.3896(2) 0.1445(2)
O12_2 O 0.5893(4) 0.1997(3) 0.3555(2)
O17_2 O 0.6157(4) 0.5508(2) 0.4088(2)
O21_2 O 0.9351(3) 0.3843(2) 0.4088(2)
O25_2 O 0.4492(4) 0.0649(3) 0.4088(2)
N3_2 N 0.76047(45) 0.23957(34) 0.2500
N5_2 N 0.47910(38) 0.23953(17) 0.2500
C6_2 C 0.8647(7) 0.1354(5) 0.2500
C8_2 C 0.2707(5) 0.1353(2) 0.2500
H4_2 H 0.9001 0.1000 0.2500
H6_2 H 0.1999 0.0999 0.2500
C10_2 C 0.7860(6) 0.6771(3) 0.3066(4)
C13_2 C 0.7860(6) 0.1089(5) 0.1934(4)
C14_2 C 0.8911(5) 0.2140(4) 0.3066(4)
C17_2 C 0.3229(6) 0.2140(4) 0.1934(4)
C18_2 C 0.3229(6) 0.1089(5) 0.3066(4)
H8_2 H 0.7680 0.7115 0.3456
H11_2 H 0.7680 0.0565 0.1544
H12_2 H 0.9435 0.2320 0.3456
H15_2 H 0.2885 0.2320 0.1544
H16_2 H 0.2885 0.0565 0.3456
C21_2 C 0.7351(5) 0.5727(3) 0.3036(3)
C24_2 C 0.7351(5) 0.1624(4) 0.1964(3)
C25_2 C 0.8376(4) 0.2649(3) 0.3036(3)
C28_2 C 0.4273(5) 0.2649(3) 0.1964(3)
C29_2 C 0.4273(5) 0.1624(4) 0.3036(3)
C32_2 C 0.6466(6) 0.5066(4) 0.3607(3)
C35_2 C 0.6466(6) 0.1400(5) 0.1393(3)
C36_2 C 0.8600(5) 0.3534(3) 0.3607(3)
C39_2 C 0.4934(6) 0.3534(3) 0.1393(3)
C40_2 C 0.4934(6) 0.1400(5) 0.3607(3)
O5_2 O 0.8003(3) 0.4107(2) 0.8555(2)
O6_2 O 0.6104(4) 0.4107(2) 0.6445(2)
O9_2 O 0.6104(4) 0.1997(3) 0.8555(2)
O10_2 O 0.8003(3) 0.3896(2) 0.6445(2)
O19_2 O 0.6157(4) 0.5508(2) 0.5912(2)
O23_2 O 0.9351(3) 0.3843(2) 0.5912(2)
N2_2 N 0.76043(34) 0.5209(3) 0.7500
N4_2 N 0.76047(45) 0.23957(34) 0.7500
C5_2 C 0.8646(5) 0.7293(5) 0.7500
C7_2 C 0.8647(7) 0.1354(5) 0.7500
H3_2 H 0.9000 0.8001 0.7500
H5_2 H 0.9001 0.1000 0.7500
C11_2 C 0.8911(5) 0.6771(3) 0.8066(4)
C12_2 C 0.7860(6) 0.6771(3) 0.6934(4)
C15_2 C 0.7860(6) 0.1089(5) 0.8066(4)
C16_2 C 0.8911(5) 0.2140(4) 0.6934(4)
H9_2 H 0.9435 0.7115 0.8456
H10_2 H 0.7680 0.7115 0.6544
H13_2 H 0.7680 0.0565 0.8456
H14_2 H 0.9435 0.2320 0.6544
C22_2 C 0.8376(4) 0.5727(3) 0.8036(3)
C23_2 C 0.7351(5) 0.5727(3) 0.6964(3)
C26_2 C 0.7351(5) 0.1624(4) 0.8036(3)
C27_2 C 0.8376(4) 0.2649(3) 0.6964(3)
C33_2 C 0.8600(5) 0.5066(4) 0.8607(3)
C34_2 C 0.6466(6) 0.5066(4) 0.6393(3)
C37_2 C 0.6466(6) 0.1400(5) 0.8607(3)
C38_2 C 0.8600(5) 0.3534(3) 0.6393(3)
O19_3 O 0.0649(3) 0.6157(4) 0.5912(2)
C5_3 C 0.1353(2) 0.8646(5) 0.7500
H3_3 H 0.0999 0.9000 0.7500
C11_3 C 0.2140(4) 0.8911(5) 0.8066(4)
C12_3 C 0.1089(5) 0.7860(6) 0.6934(4)
H9_3 H 0.2320 0.9435 0.8456
H10_3 H 0.0565 0.7680 0.6544
C22_3 C 0.2649(3) 0.8376(4) 0.8036(3)
C23_3 C 0.1624(4) 0.7351(5) 0.6964(3)
C33_3 C 0.3534(3) 0.8600(5) 0.8607(3)
C34_3 C 0.1400(5) 0.6466(6) 0.6393(3)
O36_3 O 0.6524(3) 0.1399(4) 0.5000
O3_3 O 0.4875(3) 0.3476(3) 0.5000
O34_3 O 0.5125(3) 0.6524(3) 0.5000
O35_3 O 0.3476(3) 0.8601(4) 0.5000
O38_3 O 0.1399(4) 0.4875(3) 0.5000
O37_3 O 0.8601(4) 0.5125(3) 0.5000
loop_
_geom_bond_atom_site_label_1
_geom_bond_atom_site_label_2
_geom_bond_site_symmetry_1
_geom_bond_site_symmetry_2
O28 Fe3 1_555 1_555
O37 Fe3 1_555 1_555
O29 Fe3_2 1_555 1_555
O37_2 Fe3_2 1_555 1_555
Er1 O1 1_555 1_555
Fe1 O2 1_555 1_555
O1 C4 1_555 1_555
O2 C4 1_555 1_555
O3 Fe1 1_555 1_555
N1 Er1 1_555 1_555
C1 H1 1_555 1_555
C2 C1 1_555 1_555
H2 C2 1_555 1_555
C3 N1 1_555 1_555
C4 C3 1_555 1_555
Fe2 O20 1_555 1_555
Fe3_3 O24 1_555 1_555
Fe5 O21 1_555 1_555
Fe6 O25 1_555 1_555
Fe9_2 O17 1_555 1_555
O4 Er1 1_555 1_555
O7 Er1 1_555 1_555
O8 Er1 1_555 1_555
O11 Er1 1_555 1_555
O12 Er1 1_555 1_555
O17 C32 1_555 1_555
O20 C35 1_555 1_555
O21 C36 1_555 1_555
O24 C39 1_555 1_555
O25 C40 1_555 1_555
O31 Fe1 1_555 1_555
O34 Fe1 1_555 1_555
O35 Fe2 1_555 1_555
O38 Fe3_3 1_555 1_555
N3 Er1 1_555 1_555
N5 Er1 1_555 1_555
C6 H4 1_555 1_555
C8 H6 1_555 1_555
C10 C1 1_555 1_555
C13 C6 1_555 1_555
C14 C6 1_555 1_555
C17 C8 1_555 1_555
C18 C8 1_555 1_555
H8 C10 1_555 1_555
H11 C13 1_555 1_555
H12 C14 1_555 1_555
H15 C17 1_555 1_555
H16 C18 1_555 1_555
C21 N1 1_555 1_555
C24 N3 1_555 1_555
C25 N3 1_555 1_555
C28 N5 1_555 1_555
C29 N5 1_555 1_555
C32 O4 1_555 1_555
C35 O7 1_555 1_555
C36 O8 1_555 1_555
C39 O11 1_555 1_555
C40 O12 1_555 1_555
C2 C3 1_555 1_555
C10 C21 1_555 1_555
C13 C24 1_555 1_555
C14 C25 1_555 1_555
C17 C28 1_555 1_555
C18 C29 1_555 1_555
C21 C32 1_555 1_555
C24 C35 1_555 1_555
C25 C36 1_555 1_555
C28 C39 1_555 1_555
C29 C40 1_555 1_555
O3_2 Fe1_2 1_555 1_555
Er2 O5 1_555 1_555
Er3 O13 1_555 1_555
Fe5 O23 1_555 1_555
Fe9 O27 1_555 1_555
Fe9_2 O19 1_555 1_555
O5 C33 1_555 1_555
O6 Er2 1_555 1_555
O9 Er2 1_555 1_555
O10 Er2 1_555 1_555
O13 C41 1_555 1_555
O14 Er3 1_555 1_555
O15 Er2 1_555 1_555
O16 Er2 1_555 1_555
O18 Fe1_2 1_555 1_555
O19 C34 1_555 1_555
O22 Fe2_2 1_555 1_555
O23 C38 1_555 1_555
O26 Fe1_2 1_555 1_555
O27 C42 1_555 1_555
O33 Fe3_4 1_555 1_555
O34_2 Fe1_2 1_555 1_555
O35_2 Fe2_2 1_555 1_555
O38_2 Fe3_4 1_555 1_555
N2 Er2 1_555 1_555
N4 Er2 1_555 1_555
N6 Er3 1_555 1_555
N7 Er2 1_555 1_555
C5 H3 1_555 1_555
C7 H5 1_555 1_555
C9 H7 1_555 1_555
C11 C5 1_555 1_555
C12 C5 1_555 1_555
C15 C7 1_555 1_555
C16 C7 1_555 1_555
C19 C9 1_555 1_555
C20 C9 1_555 1_555
H9 C11 1_555 1_555
H10 C12 1_555 1_555
H13 C15 1_555 1_555
H14 C16 1_555 1_555
H17 C19 1_555 1_555
H18 C20 1_555 1_555
C22 N2 1_555 1_555
C23 N2 1_555 1_555
C26 N4 1_555 1_555
C27 N4 1_555 1_555
C30 N6 1_555 1_555
C31 N6 1_555 1_555
C33 O18 1_555 1_555
C34 O6 1_555 1_555
C37 O9 1_555 1_555
C38 O10 1_555 1_555
C41 O26 1_555 1_555
C42 O14 1_555 1_555
O22 C37 1_555 1_555
C11 C22 1_555 1_555
C12 C23 1_555 1_555
C15 C26 1_555 1_555
C16 C27 1_555 1_555
C19 C30 1_555 1_555
C20 C31 1_555 1_555
C22 C33 1_555 1_555
C23 C34 1_555 1_555
C26 C37 1_555 1_555
C27 C38 1_555 1_555
C30 C41 1_555 1_555
C31 C42 1_555 1_555
O30 Fe2_3 1_555 1_555
O36 Fe2_3 1_555 1_555
O32 Fe2_4 1_555 1_555
O36_2 Fe2_4 1_555 1_555
Er1_2 O1_2 1_555 1_555
O1_2 C4_2 1_555 1_555
O30 C4_2 1_555 1_555
N1_2 Er1_2 1_555 1_555
C1_2 H1_2 1_555 1_555
C2_2 C1_2 1_555 1_555
H2_2 C2_2 1_555 1_555
C3_2 N1_2 1_555 1_555
C4_2 C3_2 1_555 1_555
Fe6_2 O21_2 1_555 1_555
Fe9 O25_2 1_555 1_555
Fe5 O17_2 1_555 1_555
O4_2 Er1_2 1_555 1_555
O7_2 Er1_2 1_555 1_555
O8_2 Er1_2 1_555 1_555
O11_2 Er1_2 1_555 1_555
O12_2 Er1_2 1_555 1_555
O17_2 C32_2 1_555 1_555
O28 C35_2 1_555 1_555
O21_2 C36_2 1_555 1_555
O31 C39_2 1_555 1_555
O25_2 C40_2 1_555 1_555
N3_2 Er1_2 1_555 1_555
N5_2 Er1_2 1_555 1_555
C6_2 H4_2 1_555 1_555
C8_2 H6_2 1_555 1_555
C10_2 C1_2 1_555 1_555
C13_2 C6_2 1_555 1_555
C14_2 C6_2 1_555 1_555
C17_2 C8_2 1_555 1_555
C18_2 C8_2 1_555 1_555
H8_2 C10_2 1_555 1_555
H11_2 C13_2 1_555 1_555
H12_2 C14_2 1_555 1_555
H15_2 C17_2 1_555 1_555
H16_2 C18_2 1_555 1_555
C21_2 N1_2 1_555 1_555
C24_2 N3_2 1_555 1_555
C25_2 N3_2 1_555 1_555
C28_2 N5_2 1_555 1_555
C29_2 N5_2 1_555 1_555
C32_2 O4_2 1_555 1_555
C35_2 O7_2 1_555 1_555
C36_2 O8_2 1_555 1_555
C39_2 O11_2 1_555 1_555
C40_2 O12_2 1_555 1_555
C2_2 C3_2 1_555 1_555
C10_2 C21_2 1_555 1_555
C13_2 C24_2 1_555 1_555
C14_2 C25_2 1_555 1_555
C17_2 C28_2 1_555 1_555
C18_2 C29_2 1_555 1_555
C21_2 C32_2 1_555 1_555
C24_2 C35_2 1_555 1_555
C25_2 C36_2 1_555 1_555
C28_2 C39_2 1_555 1_555
C29_2 C40_2 1_555 1_555
Er3 O5_2 1_555 1_555
Fe6_2 O23_2 1_555 1_555
Fe5 O19_2 1_555 1_555
O5_2 C33_2 1_555 1_555
O6_2 Er3 1_555 1_555
O9_2 Er3 1_555 1_555
O10_2 Er3 1_555 1_555
O19_2 C34_2 1_555 1_555
O23_2 C38_2 1_555 1_555
N2_2 Er3 1_555 1_555
N4_2 Er3 1_555 1_555
C5_2 H3_2 1_555 1_555
C7_2 H5_2 1_555 1_555
C11_2 C5_2 1_555 1_555
C12_2 C5_2 1_555 1_555
C15_2 C7_2 1_555 1_555
C16_2 C7_2 1_555 1_555
H9_2 C11_2 1_555 1_555
H10_2 C12_2 1_555 1_555
H13_2 C15_2 1_555 1_555
H14_2 C16_2 1_555 1_555
C22_2 N2_2 1_555 1_555
C23_2 N2_2 1_555 1_555
C26_2 N4_2 1_555 1_555
C27_2 N4_2 1_555 1_555
C33_2 O32 1_555 1_555
C34_2 O6_2 1_555 1_555
C37_2 O9_2 1_555 1_555
C38_2 O10_2 1_555 1_555
O29 C37_2 1_555 1_555
C11_2 C22_2 1_555 1_555
C12_2 C23_2 1_555 1_555
C15_2 C26_2 1_555 1_555
C16_2 C27_2 1_555 1_555
C22_2 C33_2 1_555 1_555
C23_2 C34_2 1_555 1_555
C26_2 C37_2 1_555 1_555
C27_2 C38_2 1_555 1_555
Fe6 O19_3 1_555 1_555
O16 C33_3 1_555 1_555
O19_3 C34_3 1_555 1_555
C5_3 H3_3 1_555 1_555
C11_3 C5_3 1_555 1_555
C12_3 C5_3 1_555 1_555
H9_3 C11_3 1_555 1_555
H10_3 C12_3 1_555 1_555
C22_3 N7 1_555 1_555
C23_3 N7 1_555 1_555
C33_3 O33 1_555 1_555
C34_3 O15 1_555 1_555
C11_3 C22_3 1_555 1_555
C12_3 C23_3 1_555 1_555
C22_3 C33_3 1_555 1_555
C23_3 C34_3 1_555 1_555
O36_3 Fe9 1_555 1_555
O3_3 Fe5 1_555 1_555
O34_3 Fe5 1_555 1_555
O35_3 Fe9_2 1_555 1_555
O38_3 Fe6 1_555 1_555
O37_3 Fe6_2 1_555 1_555

#END
