
###############################################################################
#
# This file contains modified crystal structure data generated from the
# MOF subset of the Cambridge Structural Database (CSD) v543 
# hosted by the Cambridge Crystallographic Data Centre (CCDC).
#
# This work is licensed under the Creative Commons
# Attribution-NonCommercial-ShareAlike 4.0 International License.
# To view a copy of this license, visit
# http://creativecommons.org/licenses/by-nc-sa/4.0/
# or send a letter to
# Creative Commons, PO Box 1866, Mountain View, CA 94042, USA.
#
# CIF created using the CSD Python API on 29 September 2022
# The structure has been converted into the P1 space group
# The structure has a 3D framework
# The original CSD entry ILUHON is in the hexagonal crystal system
# The framework has been calculated to contain at least 10.0% void space
# The void calculation uses a probe of radius 1.32A, grid spacing 0.4
# H atom positions have been added when not included in the experimental data
# Generated hydrogen atom positions removed from atoms on special positions
#
###############################################################################

data_ILUHON
_chemical_formula_moiety         '(C84 H132 Fe15 N12 Nd4 O66)n'
_symmetry_cell_setting           triclinic
_symmetry_space_group_name_H-M   'P 1'
_symmetry_Int_Tables_number      1
_space_group_name_Hall           'P 1'
loop_
_symmetry_equiv_pos_site_id
_symmetry_equiv_pos_as_xyz
1 x,y,z
_cell_length_a                   15.329(3)
_cell_length_b                   15.329(3)
_cell_length_c                   15.403(6)
_cell_angle_alpha                90
_cell_angle_beta                 90
_cell_angle_gamma                120
_cell_volume                     3134.47
loop_
_atom_site_label
_atom_site_type_symbol
_atom_site_fract_x
_atom_site_fract_y
_atom_site_fract_z
Fe1 Fe 0.0000 0.5000 0.0000
O3 O 0.1378(4) 0.6481(4) 0.0000
Fe8 Fe -0.0000 0.5000 0.5000
O27 O 0.0603(3) 0.4442(3) 0.0927(3)
Fe1_2 Fe 0.0000 0.5000 1.0000
O3_2 O 0.1378(4) 0.6481(4) 1.0000
O32 O 0.0603(3) 0.4442(3) 0.9073(3)
Fe5 Fe 0.5000 -0.0000 0.5000
Nd1 Nd 0.6667 0.3333 0.2500
Fe1_3 Fe 1.0000 0.5000 0.0000
O1 O 0.8037(3) 0.4183(3) 0.1419(2)
O2 O 0.9397(3) 0.5558(3) 0.0927(3)
N1 N 0.7628(2) 0.5256(4) 0.2500
C1 C 0.8635(4) 0.5123(4) 0.1387(3)
C2 C 0.8400(4) 0.5769(4) 0.1961(3)
C3 C 0.8928(5) 0.6796(4) 0.1941(4)
H1 H 0.9460 0.7137 0.1555
C4 C 0.8657(3) 0.7315(6) 0.2500
H2 H 0.9008 0.8015 0.2500
Nd3 Nd 0.3334 0.6667 0.2500
Fe2 Fe 0.5000 0.0000 0.0000
Fe3 Fe 0.5000 0.5000 0.0000
Fe5_2 Fe 0.5000 1.0000 0.5000
Fe6 Fe 0.5000 0.5000 0.5000
Fe8_2 Fe 1.0000 0.5000 0.5000
O4 O 0.6146(4) 0.4183(3) 0.3581(2)
O7 O 0.6146(4) 0.1963(3) 0.1419(2)
O8 O 0.8037(3) 0.3854(4) 0.3581(2)
O11 O 0.5817(3) 0.3854(4) 0.1419(2)
O12 O 0.5817(3) 0.1963(3) 0.3581(2)
O13 O 0.4183(3) 0.6146(4) 0.1419(2)
O14 O 0.4183(3) 0.8037(3) 0.3581(2)
O17 O 0.6161(4) 0.5558(3) 0.4073(3)
O19 O 0.6161(4) 0.0603(3) 0.0927(3)
O20 O 0.9397(3) 0.3839(4) 0.4073(3)
O23 O 0.4442(3) 0.3839(4) 0.0927(3)
O24 O 0.4442(3) 0.0603(3) 0.4073(3)
O25 O 0.5558(3) 0.6161(4) 0.0927(3)
O26 O 0.5558(3) 0.9397(3) 0.4073(3)
O34 O 0.8622(4) 0.3519(4) 0.0000
O35 O 0.4897(6) 0.1378(4) 0.0000
O37 O 0.6481(4) 0.5103(6) 0.0000
O38 O 0.3519(4) 0.4897(6) 0.0000
N3 N 0.7628(4) 0.2372(2) 0.2500
N5 N 0.4744(4) 0.2372(4) 0.2500
N6 N 0.5256(4) 0.7628(4) 0.2500
C5 C 0.6488(6) 0.5123(4) 0.3613(3)
C6 C 0.6488(6) 0.1365(4) 0.1387(3)
C7 C 0.8635(4) 0.3512(6) 0.3613(3)
C10 C 0.4877(4) 0.3512(6) 0.1387(3)
C11 C 0.4877(4) 0.1365(4) 0.3613(3)
C12 C 0.5123(4) 0.6488(6) 0.1387(3)
C13 C 0.5123(4) 0.8635(4) 0.3613(3)
C16 C 0.7369(6) 0.5769(4) 0.3039(3)
C17 C 0.7369(6) 0.1600(4) 0.1961(3)
C18 C 0.8400(4) 0.2631(6) 0.3039(3)
C21 C 0.4231(4) 0.2631(6) 0.1961(3)
C22 C 0.4231(4) 0.1600(4) 0.3039(3)
C23 C 0.5769(4) 0.7369(6) 0.1961(3)
C24 C 0.5769(4) 0.8400(4) 0.3039(3)
C27 C 0.7868(6) 0.6796(4) 0.3059(4)
C28 C 0.7868(6) 0.1072(5) 0.1941(4)
C29 C 0.8928(5) 0.2132(6) 0.3059(4)
C32 C 0.3204(4) 0.2132(6) 0.1941(4)
C33 C 0.3204(4) 0.1072(5) 0.3059(4)
C34 C 0.6796(4) 0.7868(6) 0.1941(4)
C35 C 0.6796(4) 0.8928(5) 0.3059(4)
H3 H 0.7677 0.7137 0.3445
H4 H 0.7677 0.0540 0.1555
H5 H 0.9460 0.2323 0.3445
H8 H 0.2863 0.2323 0.1555
H9 H 0.2863 0.0540 0.3445
H10 H 0.7137 0.7677 0.1555
H11 H 0.7137 0.9460 0.3445
C38 C 0.8658(7) 0.1343(3) 0.2500
C40 C 0.2685(6) 0.1342(7) 0.2500
C41 C 0.7315(6) 0.8658(7) 0.2500
H14 H 0.9007 0.0992 0.2500
H16 H 0.1985 0.0993 0.2500
H17 H 0.8015 0.9007 0.2500
Fe1_4 Fe 1.0000 0.5000 1.0000
Nd2 Nd 0.6666 0.3333 0.7500
Fe2_2 Fe 0.5000 -0.0000 1.0000
Fe3_2 Fe 0.5000 0.5000 1.0000
O5 O 0.8037(3) 0.4183(3) 0.8581(2)
O6 O 0.6146(4) 0.4183(3) 0.6419(2)
O9 O 0.6146(4) 0.1963(3) 0.8581(2)
O10 O 0.8037(3) 0.3854(4) 0.6419(2)
O15 O 0.5817(3) 0.1963(3) 0.6419(2)
O16 O 0.5817(3) 0.3854(4) 0.8581(2)
O18 O 0.9397(3) 0.5558(3) 0.9073(3)
O21 O 0.6161(4) 0.0603(3) 0.9073(3)
O22 O 0.9397(3) 0.3839(4) 0.5927(3)
O29 O 0.5558(3) 0.6161(4) 0.9073(3)
O31 O 0.4442(3) 0.3839(4) 0.9073(3)
O33 O 0.4442(3) 0.0603(3) 0.5927(3)
O34_2 O 0.8622(4) 0.3519(4) 1.0000
O35_2 O 0.4897(6) 0.1378(4) 1.0000
O37_2 O 0.6481(4) 0.5103(6) 1.0000
O38_2 O 0.3519(4) 0.4897(6) 1.0000
N2 N 0.7628(2) 0.5256(4) 0.7500
N4 N 0.7628(4) 0.2372(2) 0.7500
N7 N 0.4744(4) 0.2372(4) 0.7500
C8 C 0.6488(6) 0.1365(4) 0.8613(3)
C9 C 0.8635(4) 0.3512(6) 0.6387(3)
C14 C 0.4877(4) 0.1365(4) 0.6387(3)
C15 C 0.4877(4) 0.3512(6) 0.8613(3)
C19 C 0.7369(6) 0.1600(4) 0.8039(3)
C20 C 0.8400(4) 0.2631(6) 0.6961(3)
C25 C 0.4231(4) 0.2631(6) 0.8039(3)
C26 C 0.4231(4) 0.1600(4) 0.6961(3)
C30 C 0.7868(6) 0.1072(5) 0.8059(4)
C31 C 0.8928(5) 0.2132(6) 0.6941(4)
C36 C 0.3204(4) 0.2132(6) 0.8059(4)
C37 C 0.3204(4) 0.1072(5) 0.6941(4)
H6 H 0.7677 0.0540 0.8445
H7 H 0.9460 0.2323 0.6555
H12 H 0.2863 0.2323 0.8445
H13 H 0.2863 0.0540 0.6555
C39 C 0.8658(7) 0.1343(3) 0.7500
C42 C 0.2685(6) 0.1342(7) 0.7500
H15 H 0.9007 0.0992 0.7500
H18 H 0.1985 0.0993 0.7500
Fe2_3 Fe 0.5000 1.0000 0.0000
O28 O 0.3839(4) 0.9397(3) 0.0927(3)
O36 O 0.5103(6) 0.8622(4) 0.0000
Fe2_4 Fe 0.5000 1.0000 1.0000
O30 O 0.3839(4) 0.9397(3) 0.9073(3)
O36_2 O 0.5103(6) 0.8622(4) 1.0000
O1_2 O 0.3854(4) 0.8037(3) 0.1419(2)
N1_2 N 0.2372(4) 0.7628(2) 0.2500
C1_2 C 0.3512(6) 0.8635(4) 0.1387(3)
C2_2 C 0.2631(6) 0.8400(4) 0.1961(3)
C3_2 C 0.2132(6) 0.8928(5) 0.1941(4)
H1_2 H 0.2323 0.9460 0.1555
C4_2 C 0.1342(7) 0.8657(3) 0.2500
H2_2 H 0.0993 0.9008 0.2500
O4_2 O 0.1963(5) 0.6146(4) 0.3581(2)
O11_2 O 0.1963(5) 0.5817(3) 0.1419(2)
O12_2 O 0.3854(4) 0.5817(3) 0.3581(2)
O17_2 O 0.0603(5) 0.6161(4) 0.4073(3)
O24_2 O 0.3839(4) 0.4442(3) 0.4073(3)
N5_2 N 0.2372(6) 0.4744(4) 0.2500
C5_2 C 0.1365(7) 0.6488(6) 0.3613(3)
C10_2 C 0.1365(7) 0.4877(4) 0.1387(3)
C11_2 C 0.3512(6) 0.4877(4) 0.3613(3)
C16_2 C 0.1600(7) 0.7369(6) 0.3039(3)
C21_2 C 0.1600(7) 0.4231(4) 0.1961(3)
C22_2 C 0.2631(6) 0.4231(4) 0.3039(3)
C27_2 C 0.1072(7) 0.7868(6) 0.3059(4)
C32_2 C 0.1072(7) 0.3204(4) 0.1941(4)
C33_2 C 0.2132(6) 0.3204(4) 0.3059(4)
H3_2 H 0.0540 0.7677 0.3445
H8_2 H 0.0540 0.2863 0.1555
H9_2 H 0.2323 0.2863 0.3445
C40_2 C 0.1343(9) 0.2685(6) 0.2500
H16_2 H 0.0992 0.1985 0.2500
Nd2_2 Nd 0.3333 0.6666 0.7500
O5_2 O 0.3854(4) 0.8037(3) 0.8581(2)
O6_2 O 0.1963(5) 0.6146(4) 0.6419(2)
O9_2 O 0.4183(5) 0.6146(4) 0.8581(2)
O10_2 O 0.4183(5) 0.8037(3) 0.6419(2)
O15_2 O 0.3854(4) 0.5817(3) 0.6419(2)
O16_2 O 0.1963(5) 0.5817(3) 0.8581(2)
O22_2 O 0.5558(5) 0.9397(3) 0.5927(3)
O33_2 O 0.3839(4) 0.4442(3) 0.5927(3)
N2_2 N 0.2372(4) 0.7628(2) 0.7500
N4_2 N 0.5256(4) 0.7628(4) 0.7500
N7_2 N 0.2372(6) 0.4744(4) 0.7500
C8_2 C 0.5123(7) 0.6488(6) 0.8613(3)
C9_2 C 0.5123(7) 0.8635(4) 0.6387(3)
C14_2 C 0.3512(6) 0.4877(4) 0.6387(3)
C15_2 C 0.1365(7) 0.4877(4) 0.8613(3)
C19_2 C 0.5769(7) 0.7369(6) 0.8039(3)
C20_2 C 0.5769(7) 0.8400(4) 0.6961(3)
C25_2 C 0.1600(7) 0.4231(4) 0.8039(3)
C26_2 C 0.2631(6) 0.4231(4) 0.6961(3)
C30_2 C 0.6796(8) 0.7868(6) 0.8059(4)
C31_2 C 0.6796(8) 0.8928(5) 0.6941(4)
C36_2 C 0.1072(7) 0.3204(4) 0.8059(4)
C37_2 C 0.2132(6) 0.3204(4) 0.6941(4)
H6_2 H 0.7137 0.7677 0.8445
H7_2 H 0.7137 0.9460 0.6555
H12_2 H 0.0540 0.2863 0.8445
H13_2 H 0.2323 0.2863 0.6555
C39_2 C 0.7315(8) 0.8658(7) 0.7500
C42_2 C 0.1343(9) 0.2685(6) 0.7500
H15_2 H 0.8015 0.9007 0.7500
H18_2 H 0.0992 0.1985 0.7500
O22_3 O 0.6161(4) 0.5558(5) 0.5927(3)
C8_3 C 0.8635(4) 0.5123(7) 0.8613(3)
C9_3 C 0.6488(6) 0.5123(7) 0.6387(3)
C19_3 C 0.8400(4) 0.5769(7) 0.8039(3)
C20_3 C 0.7369(6) 0.5769(7) 0.6961(3)
C30_3 C 0.8928(5) 0.6796(8) 0.8059(4)
C31_3 C 0.7868(6) 0.6796(8) 0.6941(4)
H6_3 H 0.9460 0.7137 0.8445
H7_3 H 0.7677 0.7137 0.6555
C39_3 C 0.8657(3) 0.7315(8) 0.7500
H15_3 H 0.9008 0.8015 0.7500
O22_4 O 0.0603(3) 0.6161(4) 0.5927(3)
C8_4 C 0.3512(6) 0.8635(4) 0.8613(3)
C9_4 C 0.1365(4) 0.6488(6) 0.6387(3)
C19_4 C 0.2631(6) 0.8400(4) 0.8039(3)
C20_4 C 0.1600(4) 0.7369(6) 0.6961(3)
C30_4 C 0.2132(6) 0.8928(5) 0.8059(4)
C31_4 C 0.1072(5) 0.7868(6) 0.6941(4)
H6_4 H 0.2323 0.9460 0.8445
H7_4 H 0.0540 0.7677 0.6555
C39_4 C 0.1342(7) 0.8657(3) 0.7500
H15_4 H 0.0993 0.9008 0.7500
O36_3 O 0.1378(4) 0.4897(6) 0.5000
O34_3 O 0.6481(4) 0.1378(4) 0.5000
O35_3 O 0.8622(4) 0.5103(6) 0.5000
O37_3 O 0.4897(6) 0.3519(4) 0.5000
O38_3 O 0.5103(6) 0.6481(4) 0.5000
O3_3 O 0.3519(4) 0.8622(4) 0.5000
loop_
_geom_bond_atom_site_label_1
_geom_bond_atom_site_label_2
_geom_bond_site_symmetry_1
_geom_bond_site_symmetry_2
O3 Fe1 1_555 1_555
O27 Fe1 1_555 1_555
O3_2 Fe1_2 1_555 1_555
O32 Fe1_2 1_555 1_555
Nd1 O1 1_555 1_555
Fe1_3 O2 1_555 1_555
O1 C1 1_555 1_555
O2 C1 1_555 1_555
N1 Nd1 1_555 1_555
C1 C2 1_555 1_555
C2 N1 1_555 1_555
C3 C2 1_555 1_555
H1 C3 1_555 1_555
C4 C3 1_555 1_555
H2 C4 1_555 1_555
Nd3 O13 1_555 1_555
Fe2 O19 1_555 1_555
Fe3 O23 1_555 1_555
Fe5 O24 1_555 1_555
Fe5_2 O26 1_555 1_555
Fe6 O17 1_555 1_555
Fe8_2 O20 1_555 1_555
O4 Nd1 1_555 1_555
O7 Nd1 1_555 1_555
O8 Nd1 1_555 1_555
O11 Nd1 1_555 1_555
O12 Nd1 1_555 1_555
O13 C12 1_555 1_555
O14 Nd3 1_555 1_555
O17 C5 1_555 1_555
O19 C6 1_555 1_555
O20 C7 1_555 1_555
O23 C10 1_555 1_555
O24 C11 1_555 1_555
O25 Fe3 1_555 1_555
O26 C13 1_555 1_555
O34 Fe1_3 1_555 1_555
O35 Fe2 1_555 1_555
O37 Fe3 1_555 1_555
O38 Fe3 1_555 1_555
N3 Nd1 1_555 1_555
N5 Nd1 1_555 1_555
N6 Nd3 1_555 1_555
C5 O4 1_555 1_555
C6 O7 1_555 1_555
C7 O8 1_555 1_555
C10 O11 1_555 1_555
C11 O12 1_555 1_555
C12 O25 1_555 1_555
C13 O14 1_555 1_555
C16 N1 1_555 1_555
C17 N3 1_555 1_555
C18 N3 1_555 1_555
C21 N5 1_555 1_555
C22 N5 1_555 1_555
C23 N6 1_555 1_555
C24 N6 1_555 1_555
C27 C4 1_555 1_555
C28 C17 1_555 1_555
C29 C18 1_555 1_555
C32 C21 1_555 1_555
C33 C22 1_555 1_555
C34 C23 1_555 1_555
C35 C24 1_555 1_555
H3 C27 1_555 1_555
H4 C28 1_555 1_555
H5 C29 1_555 1_555
H8 C32 1_555 1_555
H9 C33 1_555 1_555
H10 C34 1_555 1_555
H11 C35 1_555 1_555
C38 C28 1_555 1_555
C40 C32 1_555 1_555
C41 C34 1_555 1_555
H14 C38 1_555 1_555
H16 C40 1_555 1_555
H17 C41 1_555 1_555
C5 C16 1_555 1_555
C6 C17 1_555 1_555
C7 C18 1_555 1_555
C10 C21 1_555 1_555
C11 C22 1_555 1_555
C12 C23 1_555 1_555
C13 C24 1_555 1_555
C16 C27 1_555 1_555
C29 C38 1_555 1_555
C33 C40 1_555 1_555
C35 C41 1_555 1_555
Nd2 O5 1_555 1_555
Fe8_2 O22 1_555 1_555
Fe5 O33 1_555 1_555
O6 Nd2 1_555 1_555
O9 Nd2 1_555 1_555
O10 Nd2 1_555 1_555
O15 Nd2 1_555 1_555
O16 Nd2 1_555 1_555
O18 Fe1_4 1_555 1_555
O21 Fe2_2 1_555 1_555
O22 C9 1_555 1_555
O29 Fe3_2 1_555 1_555
O31 Fe3_2 1_555 1_555
O33 C14 1_555 1_555
O34_2 Fe1_4 1_555 1_555
O35_2 Fe2_2 1_555 1_555
O37_2 Fe3_2 1_555 1_555
O38_2 Fe3_2 1_555 1_555
N2 Nd2 1_555 1_555
N4 Nd2 1_555 1_555
N7 Nd2 1_555 1_555
C8 O9 1_555 1_555
C9 O10 1_555 1_555
C14 O15 1_555 1_555
C15 O16 1_555 1_555
C19 N4 1_555 1_555
C20 N4 1_555 1_555
C25 N7 1_555 1_555
C26 N7 1_555 1_555
C30 C19 1_555 1_555
C31 C20 1_555 1_555
C36 C25 1_555 1_555
C37 C26 1_555 1_555
H6 C30 1_555 1_555
H7 C31 1_555 1_555
H12 C36 1_555 1_555
H13 C37 1_555 1_555
C39 C30 1_555 1_555
C42 C36 1_555 1_555
H15 C39 1_555 1_555
H18 C42 1_555 1_555
O21 C8 1_555 1_555
O31 C15 1_555 1_555
C8 C19 1_555 1_555
C9 C20 1_555 1_555
C14 C26 1_555 1_555
C15 C25 1_555 1_555
C31 C39 1_555 1_555
C37 C42 1_555 1_555
O28 Fe2_3 1_555 1_555
O36 Fe2_3 1_555 1_555
O30 Fe2_4 1_555 1_555
O36_2 Fe2_4 1_555 1_555
Nd3 O1_2 1_555 1_555
O1_2 C1_2 1_555 1_555
O28 C1_2 1_555 1_555
N1_2 Nd3 1_555 1_555
C1_2 C2_2 1_555 1_555
C2_2 N1_2 1_555 1_555
C3_2 C2_2 1_555 1_555
H1_2 C3_2 1_555 1_555
C4_2 C3_2 1_555 1_555
H2_2 C4_2 1_555 1_555
Fe6 O24_2 1_555 1_555
Fe8 O17_2 1_555 1_555
O4_2 Nd3 1_555 1_555
O11_2 Nd3 1_555 1_555
O12_2 Nd3 1_555 1_555
O17_2 C5_2 1_555 1_555
O27 C10_2 1_555 1_555
O24_2 C11_2 1_555 1_555
N5_2 Nd3 1_555 1_555
C5_2 O4_2 1_555 1_555
C10_2 O11_2 1_555 1_555
C11_2 O12_2 1_555 1_555
C16_2 N1_2 1_555 1_555
C21_2 N5_2 1_555 1_555
C22_2 N5_2 1_555 1_555
C27_2 C4_2 1_555 1_555
C32_2 C21_2 1_555 1_555
C33_2 C22_2 1_555 1_555
H3_2 C27_2 1_555 1_555
H8_2 C32_2 1_555 1_555
H9_2 C33_2 1_555 1_555
C40_2 C32_2 1_555 1_555
H16_2 C40_2 1_555 1_555
C5_2 C16_2 1_555 1_555
C10_2 C21_2 1_555 1_555
C11_2 C22_2 1_555 1_555
C16_2 C27_2 1_555 1_555
C33_2 C40_2 1_555 1_555
Nd2_2 O5_2 1_555 1_555
Fe5_2 O22_2 1_555 1_555
Fe6 O33_2 1_555 1_555
O6_2 Nd2_2 1_555 1_555
O9_2 Nd2_2 1_555 1_555
O10_2 Nd2_2 1_555 1_555
O15_2 Nd2_2 1_555 1_555
O16_2 Nd2_2 1_555 1_555
O22_2 C9_2 1_555 1_555
O33_2 C14_2 1_555 1_555
N2_2 Nd2_2 1_555 1_555
N4_2 Nd2_2 1_555 1_555
N7_2 Nd2_2 1_555 1_555
C8_2 O9_2 1_555 1_555
C9_2 O10_2 1_555 1_555
C14_2 O15_2 1_555 1_555
C15_2 O16_2 1_555 1_555
C19_2 N4_2 1_555 1_555
C20_2 N4_2 1_555 1_555
C25_2 N7_2 1_555 1_555
C26_2 N7_2 1_555 1_555
C30_2 C19_2 1_555 1_555
C31_2 C20_2 1_555 1_555
C36_2 C25_2 1_555 1_555
C37_2 C26_2 1_555 1_555
H6_2 C30_2 1_555 1_555
H7_2 C31_2 1_555 1_555
H12_2 C36_2 1_555 1_555
H13_2 C37_2 1_555 1_555
C39_2 C30_2 1_555 1_555
C42_2 C36_2 1_555 1_555
H15_2 C39_2 1_555 1_555
H18_2 C42_2 1_555 1_555
O29 C8_2 1_555 1_555
O32 C15_2 1_555 1_555
C8_2 C19_2 1_555 1_555
C9_2 C20_2 1_555 1_555
C14_2 C26_2 1_555 1_555
C15_2 C25_2 1_555 1_555
C31_2 C39_2 1_555 1_555
C37_2 C42_2 1_555 1_555
Fe6 O22_3 1_555 1_555
O22_3 C9_3 1_555 1_555
C8_3 O5 1_555 1_555
C9_3 O6 1_555 1_555
C19_3 N2 1_555 1_555
C20_3 N2 1_555 1_555
C30_3 C19_3 1_555 1_555
C31_3 C20_3 1_555 1_555
H6_3 C30_3 1_555 1_555
H7_3 C31_3 1_555 1_555
C39_3 C30_3 1_555 1_555
H15_3 C39_3 1_555 1_555
O18 C8_3 1_555 1_555
C8_3 C19_3 1_555 1_555
C9_3 C20_3 1_555 1_555
C31_3 C39_3 1_555 1_555
Fe8 O22_4 1_555 1_555
O22_4 C9_4 1_555 1_555
C8_4 O5_2 1_555 1_555
C9_4 O6_2 1_555 1_555
C19_4 N2_2 1_555 1_555
C20_4 N2_2 1_555 1_555
C30_4 C19_4 1_555 1_555
C31_4 C20_4 1_555 1_555
H6_4 C30_4 1_555 1_555
H7_4 C31_4 1_555 1_555
C39_4 C30_4 1_555 1_555
H15_4 C39_4 1_555 1_555
O30 C8_4 1_555 1_555
C8_4 C19_4 1_555 1_555
C9_4 C20_4 1_555 1_555
C31_4 C39_4 1_555 1_555
O36_3 Fe8 1_555 1_555
O34_3 Fe5 1_555 1_555
O35_3 Fe8_2 1_555 1_555
O37_3 Fe6 1_555 1_555
O38_3 Fe6 1_555 1_555
O3_3 Fe5_2 1_555 1_555

#END
