
###############################################################################
#
# This file contains modified crystal structure data generated from the
# MOF subset of the Cambridge Structural Database (CSD) v543 
# hosted by the Cambridge Crystallographic Data Centre (CCDC).
#
# This work is licensed under the Creative Commons
# Attribution-NonCommercial-ShareAlike 4.0 International License.
# To view a copy of this license, visit
# http://creativecommons.org/licenses/by-nc-sa/4.0/
# or send a letter to
# Creative Commons, PO Box 1866, Mountain View, CA 94042, USA.
#
# CIF created using the CSD Python API on 29 September 2022
# The structure has been converted into the P1 space group
# The structure has a 3D framework
# The original CSD entry ILUJIJ is in the hexagonal crystal system
# The framework has been calculated to contain at least 10.0% void space
# The void calculation uses a probe of radius 1.32A, grid spacing 0.4
# H atom positions have been added when not included in the experimental data
# Generated hydrogen atom positions removed from atoms on special positions
#
###############################################################################

data_ILUJIJ
_chemical_formula_moiety         '(C84 H180 Fe15 N12 O66 Sm3)n'
_symmetry_cell_setting           triclinic
_symmetry_space_group_name_H-M   'P 1'
_symmetry_Int_Tables_number      1
_space_group_name_Hall           'P 1'
loop_
_symmetry_equiv_pos_site_id
_symmetry_equiv_pos_as_xyz
1 x,y,z
_cell_length_a                   15.4050(14)
_cell_length_b                   15.4050(14)
_cell_length_c                   15.456(3)
_cell_angle_alpha                90
_cell_angle_beta                 90
_cell_angle_gamma                120
_cell_volume                     3176.52
loop_
_atom_site_label
_atom_site_type_symbol
_atom_site_fract_x
_atom_site_fract_y
_atom_site_fract_z
Fe2 Fe 0.0000 0.5000 0.0000
Fe6 Fe -0.0000 0.5000 0.5000
O15 O 0.0594(5) 0.4466(3) 0.0934(3)
O36 O 0.1345(6) 0.6470(4) 0.0000
Fe2_2 Fe -0.0000 0.5000 1.0000
O16 O 0.0594(5) 0.4466(3) 0.9066(3)
O36_2 O 0.1345(6) 0.6470(4) 1.0000
Fe8 Fe 0.5000 -0.0000 0.5000
Sm1 Sm 0.6667 0.3333 0.2500
Fe1 Fe 0.5000 0.5000 0.0000
N1 N 0.4757(5) 0.2379(2) 0.2500
O1 O 0.4466(3) 0.3872(4) 0.0934(3)
O2 O 0.5846(3) 0.3879(3) 0.1429(3)
O3 O 0.6470(4) 0.5125(5) 0.0000
C1 C 0.4900(5) 0.3540(5) 0.1384(4)
C2 C 0.4247(4) 0.2648(4) 0.1965(4)
C3 C 0.3212(5) 0.2144(5) 0.1938(5)
H1 H 0.2872 0.2335 0.1555
C4 C 0.2696(7) 0.1348(3) 0.2500
H2 H 0.1999 0.1000 0.2500
Fe2_3 Fe 1.0000 0.5000 0.0000
Fe4 Fe 0.5000 0.5000 0.5000
Fe6_2 Fe 1.0000 0.5000 0.5000
Fe9 Fe 0.5000 0.0000 0.0000
N5 N 0.7622(5) 0.5243(5) 0.2500
N6 N 0.7621(2) 0.2378(5) 0.2500
O4 O 0.4466(3) 0.0594(5) 0.4066(3)
O11 O 0.9406(5) 0.5534(3) 0.0934(3)
O12 O 0.6128(4) 0.5534(3) 0.4066(3)
O13 O 0.6128(4) 0.0594(5) 0.0934(3)
O14 O 0.9406(5) 0.3872(4) 0.4066(3)
O17 O 0.5534(3) 0.6128(4) 0.0934(3)
O21 O 0.5846(3) 0.1967(4) 0.3571(3)
O28 O 0.8033(4) 0.4154(3) 0.1429(3)
O29 O 0.6121(3) 0.4154(3) 0.3571(3)
O30 O 0.6121(3) 0.1967(4) 0.1429(3)
O31 O 0.8033(4) 0.3879(3) 0.3571(3)
O34 O 0.3530(4) 0.4875(5) 0.0000
O35 O 0.8655(6) 0.3530(4) 0.0000
O37 O 0.4875(5) 0.1345(6) 0.0000
C5 C 0.4900(5) 0.1360(7) 0.3616(4)
C12 C 0.8640(7) 0.5100(5) 0.1384(4)
C13 C 0.6460(5) 0.5100(5) 0.3616(4)
C14 C 0.6460(5) 0.1360(7) 0.1384(4)
C15 C 0.8640(7) 0.3540(5) 0.3616(4)
C16 C 0.4247(4) 0.1599(6) 0.3035(4)
C23 C 0.8401(6) 0.5753(4) 0.1965(4)
C24 C 0.7352(4) 0.5753(4) 0.3035(4)
C25 C 0.7352(4) 0.1599(6) 0.1965(4)
C26 C 0.8401(6) 0.2648(4) 0.3035(4)
C27 C 0.3212(5) 0.1068(7) 0.3062(5)
C34 C 0.8932(7) 0.6788(5) 0.1938(5)
C35 C 0.7856(5) 0.6788(5) 0.3062(5)
C36 C 0.7856(5) 0.1068(7) 0.1938(5)
C37 C 0.8932(7) 0.2144(5) 0.3062(5)
H3 H 0.2872 0.0537 0.3445
H10 H 0.9463 0.7128 0.1555
H11 H 0.7665 0.7128 0.3445
H12 H 0.7665 0.0537 0.1555
H13 H 0.9463 0.2335 0.3445
C41 C 0.8652(8) 0.7304(7) 0.2500
C42 C 0.8652(3) 0.1348(8) 0.2500
H17 H 0.9001 0.8001 0.2500
H18 H 0.9000 0.0999 0.2500
Fe1_2 Fe 0.5000 0.5000 1.0000
O3_2 O 0.6470(4) 0.5125(5) 1.0000
Sm2 Sm 0.6667 0.3333 0.7500
Sm3 Sm 0.3333 0.6666 0.7500
Fe2_4 Fe 1.0000 0.5000 1.0000
Fe8_2 Fe 0.5000 1.0000 0.5000
Fe9_2 Fe 0.5000 -0.0000 1.0000
N2 N 0.5243(5) 0.7621(2) 0.7500
N3 N 0.4757(5) 0.2379(2) 0.7500
N4 N 0.7621(2) 0.2378(5) 0.7500
N7 N 0.7621(2) 0.5243(5) 0.7500
O5 O 0.5534(3) 0.6128(4) 0.9066(3)
O6 O 0.5534(3) 0.9406(5) 0.5934(3)
O7 O 0.4466(3) 0.3872(4) 0.9066(3)
O8 O 0.4466(3) 0.0594(5) 0.5934(3)
O9 O 0.6128(4) 0.0594(5) 0.9066(3)
O10 O 0.9406(5) 0.3872(4) 0.5934(3)
O18 O 0.9406(5) 0.5534(3) 0.9066(3)
O22 O 0.4154(3) 0.6121(3) 0.8571(3)
O23 O 0.4154(3) 0.8033(4) 0.6429(3)
O24 O 0.5846(3) 0.3879(3) 0.8571(3)
O25 O 0.5846(3) 0.1967(4) 0.6429(3)
O26 O 0.6121(3) 0.1967(4) 0.8571(3)
O27 O 0.8033(4) 0.3879(3) 0.6429(3)
O32 O 0.6121(3) 0.4154(3) 0.6429(3)
O33 O 0.8033(4) 0.4154(3) 0.8571(3)
O34_2 O 0.3530(4) 0.4875(5) 1.0000
O35_2 O 0.8655(6) 0.3530(4) 1.0000
O37_2 O 0.4875(5) 0.1345(6) 1.0000
C6 C 0.5100(5) 0.6460(5) 0.8616(4)
C7 C 0.5100(5) 0.8640(7) 0.6384(4)
C8 C 0.4900(5) 0.3540(5) 0.8616(4)
C9 C 0.4900(5) 0.1360(7) 0.6384(4)
C10 C 0.6460(5) 0.1360(7) 0.8616(4)
C11 C 0.8640(7) 0.3540(5) 0.6384(4)
C17 C 0.5753(4) 0.7352(4) 0.8035(4)
C18 C 0.5753(4) 0.8401(6) 0.6965(4)
C19 C 0.4247(4) 0.2648(4) 0.8035(4)
C20 C 0.4247(4) 0.1599(6) 0.6965(4)
C21 C 0.7352(4) 0.1599(6) 0.8035(4)
C22 C 0.8401(6) 0.2648(4) 0.6965(4)
C28 C 0.6788(5) 0.7856(5) 0.8062(5)
C29 C 0.6788(5) 0.8932(7) 0.6938(5)
C30 C 0.3212(5) 0.2144(5) 0.8062(5)
C31 C 0.3212(5) 0.1068(7) 0.6938(5)
C32 C 0.7856(5) 0.1068(7) 0.8062(5)
C33 C 0.8932(7) 0.2144(5) 0.6938(5)
H4 H 0.7128 0.7665 0.8445
H5 H 0.7128 0.9463 0.6555
H6 H 0.2872 0.2335 0.8445
H7 H 0.2872 0.0537 0.6555
H8 H 0.7665 0.0537 0.8445
H9 H 0.9463 0.2335 0.6555
C38 C 0.7304(7) 0.8652(3) 0.7500
C39 C 0.2696(7) 0.1348(3) 0.7500
C40 C 0.8652(3) 0.1348(8) 0.7500
H14 H 0.8001 0.9000 0.7500
H15 H 0.1999 0.1000 0.7500
H16 H 0.9000 0.0999 0.7500
Fe9_3 Fe 0.5000 1.0000 0.0000
O19 O 0.3872(4) 0.9406(5) 0.0934(3)
O38 O 0.5125(5) 0.8655(6) 0.0000
Fe9_4 Fe 0.5000 1.0000 1.0000
O20 O 0.3872(4) 0.9406(5) 0.9066(3)
O38_2 O 0.5125(5) 0.8655(6) 1.0000
O10_2 O 0.6128(4) 0.5534(6) 0.5934(3)
C10_2 C 0.8640(7) 0.5100(9) 0.8616(4)
C11_2 C 0.6460(5) 0.5100(9) 0.6384(4)
C21_2 C 0.8401(6) 0.5753(7) 0.8035(4)
C22_2 C 0.7352(4) 0.5753(7) 0.6965(4)
C32_2 C 0.8932(7) 0.6788(9) 0.8062(5)
C33_2 C 0.7856(5) 0.6788(9) 0.6938(5)
H8_2 H 0.9463 0.7128 0.8445
H9_2 H 0.7665 0.7128 0.6555
C40_2 C 0.8652(8) 0.7304(9) 0.7500
H16_2 H 0.9001 0.8001 0.7500
N2_2 N 0.2379(2) 0.7622(5) 0.7500
O6_2 O 0.0594(5) 0.6128(6) 0.5934(3)
O22_2 O 0.3879(3) 0.8033(4) 0.8571(3)
O23_2 O 0.1967(4) 0.6121(5) 0.6429(3)
C6_2 C 0.3540(5) 0.8640(7) 0.8616(4)
C7_2 C 0.1360(7) 0.6460(9) 0.6384(4)
C17_2 C 0.2648(4) 0.8401(6) 0.8035(4)
C18_2 C 0.1599(6) 0.7352(7) 0.6965(4)
C28_2 C 0.2144(5) 0.8932(7) 0.8062(5)
C29_2 C 0.1068(7) 0.7856(9) 0.6938(5)
H4_2 H 0.2335 0.9463 0.8445
H5_2 H 0.0537 0.7665 0.6555
C38_2 C 0.1348(3) 0.8652(8) 0.7500
H14_2 H 0.1000 0.9001 0.7500
N2_3 N 0.2378(5) 0.4757(5) 0.7500
O6_3 O 0.3872(6) 0.4466(3) 0.5934(3)
O22_3 O 0.1967(4) 0.5846(3) 0.8571(3)
O23_3 O 0.3879(5) 0.5846(3) 0.6429(3)
C6_3 C 0.1360(7) 0.4900(5) 0.8616(4)
C7_3 C 0.3540(9) 0.4900(5) 0.6384(4)
C17_3 C 0.1599(6) 0.4247(4) 0.8035(4)
C18_3 C 0.2648(7) 0.4247(4) 0.6965(4)
C28_3 C 0.1068(7) 0.3212(5) 0.8062(5)
C29_3 C 0.2144(9) 0.3212(5) 0.6938(5)
H4_3 H 0.0537 0.2872 0.8445
H5_3 H 0.2335 0.2872 0.6555
C38_3 C 0.1348(8) 0.2696(7) 0.7500
H14_3 H 0.0999 0.1999 0.7500
Sm1_2 Sm 0.3333 0.6667 0.2500
N1_2 N 0.5243(5) 0.7621(2) 0.2500
O2_2 O 0.4154(3) 0.6121(3) 0.1429(3)
C1_2 C 0.5100(5) 0.6460(5) 0.1384(4)
C2_2 C 0.5753(4) 0.7352(4) 0.1965(4)
C3_2 C 0.6788(5) 0.7856(5) 0.1938(5)
H1_2 H 0.7128 0.7665 0.1555
C4_2 C 0.7304(7) 0.8652(3) 0.2500
H2_2 H 0.8001 0.9000 0.2500
N5_2 N 0.2378(5) 0.4757(5) 0.2500
N6_2 N 0.2379(2) 0.7622(5) 0.2500
O4_2 O 0.5534(3) 0.9406(5) 0.4066(3)
O12_2 O 0.3872(4) 0.4466(3) 0.4066(3)
O14_2 O 0.0594(5) 0.6128(4) 0.4066(3)
O21_2 O 0.4154(3) 0.8033(4) 0.3571(3)
O28_2 O 0.1967(4) 0.5846(3) 0.1429(3)
O29_2 O 0.3879(3) 0.5846(3) 0.3571(3)
O30_2 O 0.3879(3) 0.8033(4) 0.1429(3)
O31_2 O 0.1967(4) 0.6121(3) 0.3571(3)
C5_2 C 0.5100(5) 0.8640(7) 0.3616(4)
C12_2 C 0.1360(7) 0.4900(5) 0.1384(4)
C13_2 C 0.3540(5) 0.4900(5) 0.3616(4)
C14_2 C 0.3540(5) 0.8640(7) 0.1384(4)
C15_2 C 0.1360(7) 0.6460(5) 0.3616(4)
C16_2 C 0.5753(4) 0.8401(6) 0.3035(4)
C23_2 C 0.1599(6) 0.4247(4) 0.1965(4)
C24_2 C 0.2648(4) 0.4247(4) 0.3035(4)
C25_2 C 0.2648(4) 0.8401(6) 0.1965(4)
C26_2 C 0.1599(6) 0.7352(4) 0.3035(4)
C27_2 C 0.6788(5) 0.8932(7) 0.3062(5)
C34_2 C 0.1068(7) 0.3212(5) 0.1938(5)
C35_2 C 0.2144(5) 0.3212(5) 0.3062(5)
C36_2 C 0.2144(5) 0.8932(7) 0.1938(5)
C37_2 C 0.1068(7) 0.7856(5) 0.3062(5)
H3_2 H 0.7128 0.9463 0.3445
H10_2 H 0.0537 0.2872 0.1555
H11_2 H 0.2335 0.2872 0.3445
H12_2 H 0.2335 0.9463 0.1555
H13_2 H 0.0537 0.7665 0.3445
C41_2 C 0.1348(8) 0.2696(7) 0.2500
C42_2 C 0.1348(3) 0.8652(8) 0.2500
H17_2 H 0.0999 0.1999 0.2500
H18_2 H 0.1000 0.9001 0.2500
O36_3 O 0.6470(4) 0.1345(6) 0.5000
O3_3 O 0.5125(5) 0.6470(4) 0.5000
O34_3 O 0.4875(5) 0.3530(4) 0.5000
O35_3 O 0.3530(4) 0.8655(6) 0.5000
O37_3 O 0.1345(6) 0.4875(5) 0.5000
O38_3 O 0.8655(6) 0.5125(5) 0.5000
loop_
_geom_bond_atom_site_label_1
_geom_bond_atom_site_label_2
_geom_bond_site_symmetry_1
_geom_bond_site_symmetry_2
O15 Fe2 1_555 1_555
O36 Fe2 1_555 1_555
O16 Fe2_2 1_555 1_555
O36_2 Fe2_2 1_555 1_555
Sm1 N1 1_555 1_555
Fe1 O1 1_555 1_555
N1 C2 1_555 1_555
O1 C1 1_555 1_555
O2 Sm1 1_555 1_555
O3 Fe1 1_555 1_555
C1 O2 1_555 1_555
C2 C1 1_555 1_555
C3 C2 1_555 1_555
H1 C3 1_555 1_555
C4 C3 1_555 1_555
H2 C4 1_555 1_555
Fe2_3 O11 1_555 1_555
Fe8 O4 1_555 1_555
Fe4 O12 1_555 1_555
Fe6_2 O14 1_555 1_555
N5 Sm1 1_555 1_555
N6 Sm1 1_555 1_555
O4 C5 1_555 1_555
O11 C12 1_555 1_555
O12 C13 1_555 1_555
O13 Fe9 1_555 1_555
O14 C15 1_555 1_555
O17 Fe1 1_555 1_555
O21 Sm1 1_555 1_555
O28 Sm1 1_555 1_555
O29 Sm1 1_555 1_555
O30 Sm1 1_555 1_555
O31 Sm1 1_555 1_555
O34 Fe1 1_555 1_555
O35 Fe2_3 1_555 1_555
O37 Fe9 1_555 1_555
C5 O21 1_555 1_555
C12 O28 1_555 1_555
C13 O29 1_555 1_555
C14 O13 1_555 1_555
C15 O31 1_555 1_555
C16 N1 1_555 1_555
C23 N5 1_555 1_555
C24 N5 1_555 1_555
C25 N6 1_555 1_555
C26 N6 1_555 1_555
C27 C4 1_555 1_555
C34 C23 1_555 1_555
C35 C24 1_555 1_555
C36 C25 1_555 1_555
C37 C26 1_555 1_555
H3 C27 1_555 1_555
H10 C34 1_555 1_555
H11 C35 1_555 1_555
H12 C36 1_555 1_555
H13 C37 1_555 1_555
C41 C34 1_555 1_555
C42 C36 1_555 1_555
H17 C41 1_555 1_555
H18 C42 1_555 1_555
O30 C14 1_555 1_555
C5 C16 1_555 1_555
C12 C23 1_555 1_555
C13 C24 1_555 1_555
C14 C25 1_555 1_555
C15 C26 1_555 1_555
C16 C27 1_555 1_555
C35 C41 1_555 1_555
C37 C42 1_555 1_555
O3_2 Fe1_2 1_555 1_555
Sm2 N3 1_555 1_555
Sm3 N2 1_555 1_555
Fe6_2 O10 1_555 1_555
Fe8 O8 1_555 1_555
Fe8_2 O6 1_555 1_555
Fe9_2 O9 1_555 1_555
N2 C17 1_555 1_555
N3 C19 1_555 1_555
N4 Sm2 1_555 1_555
N7 Sm2 1_555 1_555
O5 Fe1_2 1_555 1_555
O6 C7 1_555 1_555
O7 Fe1_2 1_555 1_555
O8 C9 1_555 1_555
O9 C10 1_555 1_555
O10 C11 1_555 1_555
O18 Fe2_4 1_555 1_555
O22 Sm3 1_555 1_555
O23 Sm3 1_555 1_555
O24 Sm2 1_555 1_555
O25 Sm2 1_555 1_555
O26 Sm2 1_555 1_555
O27 Sm2 1_555 1_555
O32 Sm2 1_555 1_555
O33 Sm2 1_555 1_555
O34_2 Fe1_2 1_555 1_555
O35_2 Fe2_4 1_555 1_555
O37_2 Fe9_2 1_555 1_555
C6 O5 1_555 1_555
C7 O23 1_555 1_555
C8 O7 1_555 1_555
C9 O25 1_555 1_555
C10 O26 1_555 1_555
C11 O27 1_555 1_555
C17 C6 1_555 1_555
C18 N2 1_555 1_555
C19 C8 1_555 1_555
C20 N3 1_555 1_555
C21 N4 1_555 1_555
C22 N4 1_555 1_555
C28 C17 1_555 1_555
C29 C18 1_555 1_555
C30 C19 1_555 1_555
C31 C20 1_555 1_555
C32 C21 1_555 1_555
C33 C22 1_555 1_555
H4 C28 1_555 1_555
H5 C29 1_555 1_555
H6 C30 1_555 1_555
H7 C31 1_555 1_555
H8 C32 1_555 1_555
H9 C33 1_555 1_555
C38 C28 1_555 1_555
C39 C30 1_555 1_555
C40 C32 1_555 1_555
H14 C38 1_555 1_555
H15 C39 1_555 1_555
H16 C40 1_555 1_555
O22 C6 1_555 1_555
O24 C8 1_555 1_555
C7 C18 1_555 1_555
C9 C20 1_555 1_555
C10 C21 1_555 1_555
C11 C22 1_555 1_555
C29 C38 1_555 1_555
C31 C39 1_555 1_555
C33 C40 1_555 1_555
O19 Fe9_3 1_555 1_555
O38 Fe9_3 1_555 1_555
O20 Fe9_4 1_555 1_555
O38_2 Fe9_4 1_555 1_555
Fe4 O10_2 1_555 1_555
O18 C10_2 1_555 1_555
O10_2 C11_2 1_555 1_555
C10_2 O33 1_555 1_555
C11_2 O32 1_555 1_555
C21_2 N7 1_555 1_555
C22_2 N7 1_555 1_555
C32_2 C21_2 1_555 1_555
C33_2 C22_2 1_555 1_555
H8_2 C32_2 1_555 1_555
H9_2 C33_2 1_555 1_555
C40_2 C32_2 1_555 1_555
H16_2 C40_2 1_555 1_555
C10_2 C21_2 1_555 1_555
C11_2 C22_2 1_555 1_555
C33_2 C40_2 1_555 1_555
Sm3 N2_2 1_555 1_555
Fe6 O6_2 1_555 1_555
N2_2 C17_2 1_555 1_555
O6_2 C7_2 1_555 1_555
O22_2 Sm3 1_555 1_555
O23_2 Sm3 1_555 1_555
C6_2 O20 1_555 1_555
C7_2 O23_2 1_555 1_555
C17_2 C6_2 1_555 1_555
C18_2 N2_2 1_555 1_555
C28_2 C17_2 1_555 1_555
C29_2 C18_2 1_555 1_555
H4_2 C28_2 1_555 1_555
H5_2 C29_2 1_555 1_555
C38_2 C28_2 1_555 1_555
H14_2 C38_2 1_555 1_555
O22_2 C6_2 1_555 1_555
C7_2 C18_2 1_555 1_555
C29_2 C38_2 1_555 1_555
Sm3 N2_3 1_555 1_555
Fe4 O6_3 1_555 1_555
N2_3 C17_3 1_555 1_555
O6_3 C7_3 1_555 1_555
O22_3 Sm3 1_555 1_555
O23_3 Sm3 1_555 1_555
C6_3 O16 1_555 1_555
C7_3 O23_3 1_555 1_555
C17_3 C6_3 1_555 1_555
C18_3 N2_3 1_555 1_555
C28_3 C17_3 1_555 1_555
C29_3 C18_3 1_555 1_555
H4_3 C28_3 1_555 1_555
H5_3 C29_3 1_555 1_555
C38_3 C28_3 1_555 1_555
H14_3 C38_3 1_555 1_555
O22_3 C6_3 1_555 1_555
C7_3 C18_3 1_555 1_555
C29_3 C38_3 1_555 1_555
Sm1_2 N1_2 1_555 1_555
N1_2 C2_2 1_555 1_555
O17 C1_2 1_555 1_555
O2_2 Sm1_2 1_555 1_555
C1_2 O2_2 1_555 1_555
C2_2 C1_2 1_555 1_555
C3_2 C2_2 1_555 1_555
H1_2 C3_2 1_555 1_555
C4_2 C3_2 1_555 1_555
H2_2 C4_2 1_555 1_555
Fe8_2 O4_2 1_555 1_555
Fe4 O12_2 1_555 1_555
Fe6 O14_2 1_555 1_555
N5_2 Sm1_2 1_555 1_555
N6_2 Sm1_2 1_555 1_555
O4_2 C5_2 1_555 1_555
O15 C12_2 1_555 1_555
O12_2 C13_2 1_555 1_555
O14_2 C15_2 1_555 1_555
O21_2 Sm1_2 1_555 1_555
O28_2 Sm1_2 1_555 1_555
O29_2 Sm1_2 1_555 1_555
O30_2 Sm1_2 1_555 1_555
O31_2 Sm1_2 1_555 1_555
C5_2 O21_2 1_555 1_555
C12_2 O28_2 1_555 1_555
C13_2 O29_2 1_555 1_555
C14_2 O19 1_555 1_555
C15_2 O31_2 1_555 1_555
C16_2 N1_2 1_555 1_555
C23_2 N5_2 1_555 1_555
C24_2 N5_2 1_555 1_555
C25_2 N6_2 1_555 1_555
C26_2 N6_2 1_555 1_555
C27_2 C4_2 1_555 1_555
C34_2 C23_2 1_555 1_555
C35_2 C24_2 1_555 1_555
C36_2 C25_2 1_555 1_555
C37_2 C26_2 1_555 1_555
H3_2 C27_2 1_555 1_555
H10_2 C34_2 1_555 1_555
H11_2 C35_2 1_555 1_555
H12_2 C36_2 1_555 1_555
H13_2 C37_2 1_555 1_555
C41_2 C34_2 1_555 1_555
C42_2 C36_2 1_555 1_555
H17_2 C41_2 1_555 1_555
H18_2 C42_2 1_555 1_555
O30_2 C14_2 1_555 1_555
C5_2 C16_2 1_555 1_555
C12_2 C23_2 1_555 1_555
C13_2 C24_2 1_555 1_555
C14_2 C25_2 1_555 1_555
C15_2 C26_2 1_555 1_555
C16_2 C27_2 1_555 1_555
C35_2 C41_2 1_555 1_555
C37_2 C42_2 1_555 1_555
O36_3 Fe8 1_555 1_555
O3_3 Fe4 1_555 1_555
O34_3 Fe4 1_555 1_555
O35_3 Fe8_2 1_555 1_555
O37_3 Fe6 1_555 1_555
O38_3 Fe6_2 1_555 1_555

#END
