
###############################################################################
#
# This file contains modified crystal structure data generated from the
# MOF subset of the Cambridge Structural Database (CSD) v543 
# hosted by the Cambridge Crystallographic Data Centre (CCDC).
#
# This work is licensed under the Creative Commons
# Attribution-NonCommercial-ShareAlike 4.0 International License.
# To view a copy of this license, visit
# http://creativecommons.org/licenses/by-nc-sa/4.0/
# or send a letter to
# Creative Commons, PO Box 1866, Mountain View, CA 94042, USA.
#
# CIF created using the CSD Python API on 29 September 2022
# The structure has been converted into the P1 space group
# The structure has a 3D framework
# The original CSD entry ILUJAB is in the hexagonal crystal system
# The framework has been calculated to contain at least 10.0% void space
# The void calculation uses a probe of radius 1.32A, grid spacing 0.4
# H atom positions have been added when not included in the experimental data
# Generated hydrogen atom positions removed from atoms on special positions
#
###############################################################################

data_ILUJAB
_chemical_formula_moiety         '(C84 H132 Fe15 N12 O66 Pr3)n'
_symmetry_cell_setting           triclinic
_symmetry_space_group_name_H-M   'P 1'
_symmetry_Int_Tables_number      1
_space_group_name_Hall           'P 1'
loop_
_symmetry_equiv_pos_site_id
_symmetry_equiv_pos_as_xyz
1 x,y,z
_cell_length_a                   15.514(2)
_cell_length_b                   15.514(2)
_cell_length_c                   15.354(4)
_cell_angle_alpha                90
_cell_angle_beta                 90
_cell_angle_gamma                120
_cell_volume                     3200.37
loop_
_atom_site_label
_atom_site_type_symbol
_atom_site_fract_x
_atom_site_fract_y
_atom_site_fract_z
Fe1 Fe 0.5000 -0.0000 0.0000
O3 O 0.4892(3) 0.1339(3) 0.0000
Fe6 Fe 0.5000 -0.0000 0.5000
O28 O 0.6126(2) 0.0576(2) 0.0943(2)
Fe1_2 Fe 0.5000 -0.0000 1.0000
O3_2 O 0.4892(3) 0.1339(3) 1.0000
O31 O 0.6126(2) 0.0576(2) 0.9057(2)
Pr1 Pr 0.3333 0.6667 0.2500
Fe1_3 Fe 0.5000 1.0000 0.0000
N1 N 0.23709(17) 0.76291(17) 0.2500
O1 O 0.3860(2) 0.8046(2) 0.14102(19)
O2 O 0.3874(2) 0.9424(2) 0.0943(2)
C1 C 0.2643(3) 0.8408(3) 0.1964(3)
C2 C 0.2144(4) 0.8935(3) 0.1939(4)
H1 H 0.2337 0.9465 0.1556
C3 C 0.1347(2) 0.8653(2) 0.2500
H2 H 0.1001 0.8999 0.2500
C4 C 0.3530(3) 0.8654(3) 0.1390(3)
Fe2 Fe -0.0000 0.5000 0.0000
Fe3 Fe 0.5000 0.5000 0.0000
Fe4 Fe -0.0000 0.5000 0.5000
Fe6_2 Fe 0.5000 1.0000 0.5000
Fe9 Fe 0.5000 0.5000 0.5000
N2 N 0.23709(17) 0.47418(24) 0.2500
N3 N 0.52582(24) 0.76291(17) 0.2500
O4 O 0.1954(2) 0.6140(2) 0.35898(19)
O5 O 0.1954(2) 0.5814(3) 0.14102(19)
O6 O 0.3860(2) 0.5814(3) 0.35898(19)
O7 O 0.4186(3) 0.6140(2) 0.14102(19)
O8 O 0.4186(3) 0.8046(2) 0.35898(19)
O17 O 0.0576(2) 0.6126(2) 0.4057(2)
O18 O 0.0576(2) 0.4450(3) 0.0943(2)
O19 O 0.3874(2) 0.4450(3) 0.4057(2)
O20 O 0.5550(3) 0.6126(2) 0.0943(2)
O21 O 0.5550(3) 0.9424(2) 0.4057(2)
O29 O 0.4450(3) 0.3874(2) 0.0943(2)
O35 O 0.6447(4) 0.5108(3) 0.0000
O36 O 0.5108(3) 0.8661(3) 0.0000
O37 O 0.1339(3) 0.6447(4) 0.0000
O38 O 0.3553(4) 0.4892(3) 0.0000
C5 C 0.1592(3) 0.7357(3) 0.3036(3)
C6 C 0.1592(3) 0.4235(4) 0.1964(3)
C7 C 0.2643(3) 0.4235(4) 0.3036(3)
C8 C 0.5765(4) 0.7357(3) 0.1964(3)
C9 C 0.5765(4) 0.8408(3) 0.3036(3)
C16 C 0.1065(3) 0.7856(4) 0.3061(4)
C17 C 0.1065(3) 0.3209(5) 0.1939(4)
C18 C 0.2144(4) 0.3209(5) 0.3061(4)
C19 C 0.6791(5) 0.7856(4) 0.1939(4)
C20 C 0.6791(5) 0.8935(3) 0.3061(4)
H3 H 0.0535 0.7663 0.3444
H4 H 0.0535 0.2872 0.1556
H5 H 0.2337 0.2872 0.3444
H6 H 0.7128 0.7663 0.1556
H7 H 0.7128 0.9465 0.3444
C27 C 0.1347(2) 0.2694(3) 0.2500
C28 C 0.7306(3) 0.8653(2) 0.2500
H14 H 0.1001 0.2002 0.2500
H15 H 0.7998 0.8999 0.2500
C32 C 0.1346(3) 0.6470(3) 0.3610(3)
C33 C 0.1346(3) 0.4876(4) 0.1390(3)
C34 C 0.3530(3) 0.4876(4) 0.3610(3)
C35 C 0.5124(4) 0.6470(3) 0.1390(3)
C36 C 0.5124(4) 0.8654(3) 0.3610(3)
Fe1_4 Fe 0.5000 1.0000 1.0000
Pr2 Pr 0.3333 0.6667 0.7500
Fe2_2 Fe -0.0000 0.5000 1.0000
Fe3_2 Fe 0.5000 0.5000 1.0000
N5 N 0.23709(17) 0.47418(24) 0.7500
N6 N 0.52582(24) 0.76291(17) 0.7500
N7 N 0.23709(17) 0.76291(17) 0.7500
O11 O 0.1954(2) 0.5814(3) 0.85898(19)
O12 O 0.3860(2) 0.5814(3) 0.64102(19)
O13 O 0.4186(3) 0.6140(2) 0.85898(19)
O14 O 0.4186(3) 0.8046(2) 0.64102(19)
O15 O 0.1954(2) 0.6140(2) 0.64102(19)
O16 O 0.3860(2) 0.8046(2) 0.85898(19)
O24 O 0.0576(2) 0.4450(3) 0.9057(2)
O25 O 0.3874(2) 0.4450(3) 0.5943(2)
O26 O 0.5550(3) 0.6126(2) 0.9057(2)
O27 O 0.5550(3) 0.9424(2) 0.5943(2)
O30 O 0.3874(2) 0.9424(2) 0.9057(2)
O32 O 0.4450(3) 0.3874(2) 0.9057(2)
O35_2 O 0.6447(4) 0.5108(3) 1.0000
O36_2 O 0.5108(3) 0.8661(3) 1.0000
O37_2 O 0.1339(3) 0.6447(4) 1.0000
O38_2 O 0.3553(4) 0.4892(3) 1.0000
C12 C 0.1592(3) 0.4235(4) 0.8036(3)
C13 C 0.2643(3) 0.4235(4) 0.6964(3)
C14 C 0.5765(4) 0.7357(3) 0.8036(3)
C15 C 0.5765(4) 0.8408(3) 0.6964(3)
C23 C 0.1065(3) 0.3209(5) 0.8061(4)
C24 C 0.2144(4) 0.3209(5) 0.6939(4)
C25 C 0.6791(5) 0.7856(4) 0.8061(4)
C26 C 0.6791(5) 0.8935(3) 0.6939(4)
H10 H 0.0535 0.2872 0.8444
H11 H 0.2337 0.2872 0.6556
H12 H 0.7128 0.7663 0.8444
H13 H 0.7128 0.9465 0.6556
C30 C 0.1347(2) 0.2694(3) 0.7500
C31 C 0.7306(3) 0.8653(2) 0.7500
H17 H 0.1001 0.2002 0.7500
H18 H 0.7998 0.8999 0.7500
C39 C 0.1346(3) 0.4876(4) 0.8610(3)
C40 C 0.3530(3) 0.4876(4) 0.6390(3)
C41 C 0.5124(4) 0.6470(3) 0.8610(3)
C42 C 0.5124(4) 0.8654(3) 0.6390(3)
Pr3 Pr 0.6667 0.3333 0.2500
Fe2_3 Fe 1.0000 0.5000 0.0000
Fe4_2 Fe 1.0000 0.5000 0.5000
N4 N 0.76291(17) 0.52582(24) 0.2500
O9 O 0.8046(2) 0.4186(3) 0.14102(19)
O10 O 0.6140(2) 0.4186(3) 0.35898(19)
O22 O 0.9424(2) 0.5550(3) 0.0943(2)
O23 O 0.6126(2) 0.5550(3) 0.4057(2)
O34 O 0.8661(3) 0.3553(4) 0.0000
C10 C 0.8408(3) 0.5765(4) 0.1964(3)
C11 C 0.7357(3) 0.5765(4) 0.3036(3)
C21 C 0.8935(3) 0.6791(5) 0.1939(4)
C22 C 0.7856(4) 0.6791(5) 0.3061(4)
H8 H 0.9465 0.7128 0.1556
H9 H 0.7663 0.7128 0.3444
C29 C 0.8653(2) 0.7306(3) 0.2500
H16 H 0.8999 0.7998 0.2500
C37 C 0.8654(3) 0.5124(4) 0.1390(3)
C38 C 0.6470(3) 0.5124(4) 0.3610(3)
Fe2_4 Fe 1.0000 0.5000 1.0000
O33 O 0.9424(2) 0.5550(3) 0.9057(2)
O34_2 O 0.8661(3) 0.3553(4) 1.0000
N4_2 N 0.47418(24) 0.23709(29) 0.2500
O9_2 O 0.5814(3) 0.3860(4) 0.14102(19)
O10_2 O 0.5814(3) 0.1954(4) 0.35898(19)
O23_2 O 0.4450(3) 0.0576(4) 0.4057(2)
C10_2 C 0.4235(4) 0.2643(5) 0.1964(3)
C11_2 C 0.4235(4) 0.1592(5) 0.3036(3)
C21_2 C 0.3209(5) 0.2144(6) 0.1939(4)
C22_2 C 0.3209(5) 0.1065(6) 0.3061(4)
H8_2 H 0.2872 0.2337 0.1556
H9_2 H 0.2872 0.0535 0.3444
C29_2 C 0.2694(3) 0.1347(4) 0.2500
H16_2 H 0.2002 0.1001 0.2500
C37_2 C 0.4876(4) 0.3530(5) 0.1390(3)
C38_2 C 0.4876(4) 0.1346(5) 0.3610(3)
O27_2 O 0.0576(2) 0.6126(4) 0.5943(2)
C14_2 C 0.2643(3) 0.8408(5) 0.8036(3)
C15_2 C 0.1592(3) 0.7357(5) 0.6964(3)
C25_2 C 0.2144(4) 0.8935(6) 0.8061(4)
C26_2 C 0.1065(3) 0.7856(6) 0.6939(4)
H12_2 H 0.2337 0.9465 0.8444
H13_2 H 0.0535 0.7663 0.6556
C31_2 C 0.1347(2) 0.8653(4) 0.7500
H18_2 H 0.1001 0.8999 0.7500
C41_2 C 0.3530(3) 0.8654(5) 0.8610(3)
C42_2 C 0.1346(3) 0.6470(5) 0.6390(3)
N4_3 N 0.76291(29) 0.23709(17) 0.2500
O9_3 O 0.6140(4) 0.1954(2) 0.14102(19)
O10_3 O 0.8046(4) 0.3860(2) 0.35898(19)
O23_3 O 0.9424(4) 0.3874(2) 0.4057(2)
C10_3 C 0.7357(5) 0.1592(3) 0.1964(3)
C11_3 C 0.8408(5) 0.2643(3) 0.3036(3)
C21_3 C 0.7856(6) 0.1065(3) 0.1939(4)
C22_3 C 0.8935(6) 0.2144(4) 0.3061(4)
H8_3 H 0.7663 0.0535 0.1556
H9_3 H 0.9465 0.2337 0.3444
C29_3 C 0.8653(4) 0.1347(2) 0.2500
H16_3 H 0.8999 0.1001 0.2500
C37_3 C 0.6470(5) 0.1346(3) 0.1390(3)
C38_3 C 0.8654(5) 0.3530(3) 0.3610(3)
Pr2_2 Pr 0.6667 0.3333 0.7500
N5_2 N 0.76291(17) 0.52582(24) 0.7500
N6_2 N 0.47418(24) 0.23709(17) 0.7500
N7_2 N 0.76291(17) 0.23709(17) 0.7500
O11_2 O 0.8046(2) 0.4186(3) 0.85898(19)
O12_2 O 0.6140(2) 0.4186(3) 0.64102(19)
O13_2 O 0.5814(3) 0.3860(2) 0.85898(19)
O14_2 O 0.5814(3) 0.1954(2) 0.64102(19)
O15_2 O 0.8046(2) 0.3860(2) 0.64102(19)
O16_2 O 0.6140(2) 0.1954(2) 0.85898(19)
O25_2 O 0.6126(2) 0.5550(3) 0.5943(2)
O27_3 O 0.4450(3) 0.0576(2) 0.5943(2)
C12_2 C 0.8408(3) 0.5765(4) 0.8036(3)
C13_2 C 0.7357(3) 0.5765(4) 0.6964(3)
C14_3 C 0.4235(4) 0.2643(3) 0.8036(3)
C15_3 C 0.4235(4) 0.1592(3) 0.6964(3)
C23_2 C 0.8935(3) 0.6791(5) 0.8061(4)
C24_2 C 0.7856(4) 0.6791(5) 0.6939(4)
C25_3 C 0.3209(5) 0.2144(4) 0.8061(4)
C26_3 C 0.3209(5) 0.1065(3) 0.6939(4)
H10_2 H 0.9465 0.7128 0.8444
H11_2 H 0.7663 0.7128 0.6556
H12_3 H 0.2872 0.2337 0.8444
H13_3 H 0.2872 0.0535 0.6556
C30_2 C 0.8653(2) 0.7306(3) 0.7500
C31_3 C 0.2694(3) 0.1347(2) 0.7500
H17_2 H 0.8999 0.7998 0.7500
H18_3 H 0.2002 0.1001 0.7500
C39_2 C 0.8654(3) 0.5124(4) 0.8610(3)
C40_2 C 0.6470(3) 0.5124(4) 0.6390(3)
C41_3 C 0.4876(4) 0.3530(3) 0.8610(3)
C42_3 C 0.4876(4) 0.1346(3) 0.6390(3)
O27_4 O 0.9424(2) 0.3874(4) 0.5943(2)
C14_4 C 0.7357(3) 0.1592(5) 0.8036(3)
C15_4 C 0.8408(3) 0.2643(5) 0.6964(3)
C25_4 C 0.7856(4) 0.1065(6) 0.8061(4)
C26_4 C 0.8935(3) 0.2144(6) 0.6939(4)
H12_4 H 0.7663 0.0535 0.8444
H13_4 H 0.9465 0.2337 0.6556
C31_4 C 0.8653(2) 0.1347(4) 0.7500
H18_4 H 0.8999 0.1001 0.7500
C41_4 C 0.6470(3) 0.1346(5) 0.8610(3)
C42_4 C 0.8654(3) 0.3530(5) 0.6390(3)
O3_3 O 0.1339(3) 0.4892(3) 0.5000
O35_3 O 0.5108(3) 0.6447(4) 0.5000
O36_3 O 0.8661(3) 0.5108(3) 0.5000
O37_3 O 0.6447(4) 0.1339(3) 0.5000
O38_3 O 0.4892(3) 0.3553(4) 0.5000
O34_3 O 0.3553(4) 0.8661(3) 0.5000
loop_
_geom_bond_atom_site_label_1
_geom_bond_atom_site_label_2
_geom_bond_site_symmetry_1
_geom_bond_site_symmetry_2
O3 Fe1 1_555 1_555
O28 Fe1 1_555 1_555
O3_2 Fe1_2 1_555 1_555
O31 Fe1_2 1_555 1_555
Pr1 N1 1_555 1_555
Fe1_3 O2 1_555 1_555
N1 C1 1_555 1_555
O1 Pr1 1_555 1_555
O2 C4 1_555 1_555
C1 C2 1_555 1_555
C2 H1 1_555 1_555
C3 C2 1_555 1_555
H2 C3 1_555 1_555
C4 O1 1_555 1_555
Fe2 O18 1_555 1_555
Fe3 O20 1_555 1_555
Fe4 O17 1_555 1_555
Fe6_2 O21 1_555 1_555
Fe9 O19 1_555 1_555
N2 Pr1 1_555 1_555
N3 Pr1 1_555 1_555
O4 Pr1 1_555 1_555
O5 Pr1 1_555 1_555
O6 Pr1 1_555 1_555
O7 Pr1 1_555 1_555
O8 Pr1 1_555 1_555
O17 C32 1_555 1_555
O18 C33 1_555 1_555
O19 C34 1_555 1_555
O20 C35 1_555 1_555
O21 C36 1_555 1_555
O29 Fe3 1_555 1_555
O35 Fe3 1_555 1_555
O36 Fe1_3 1_555 1_555
O37 Fe2 1_555 1_555
O38 Fe3 1_555 1_555
C5 N1 1_555 1_555
C6 N2 1_555 1_555
C7 N2 1_555 1_555
C8 N3 1_555 1_555
C9 N3 1_555 1_555
C16 C3 1_555 1_555
C17 C6 1_555 1_555
C18 C7 1_555 1_555
C19 C8 1_555 1_555
C20 C9 1_555 1_555
H3 C16 1_555 1_555
H4 C17 1_555 1_555
H5 C18 1_555 1_555
H6 C19 1_555 1_555
H7 C20 1_555 1_555
C27 C17 1_555 1_555
C28 C19 1_555 1_555
H14 C27 1_555 1_555
H15 C28 1_555 1_555
C32 O4 1_555 1_555
C33 O5 1_555 1_555
C34 O6 1_555 1_555
C35 O7 1_555 1_555
C36 O8 1_555 1_555
C1 C4 1_555 1_555
C5 C16 1_555 1_555
C5 C32 1_555 1_555
C6 C33 1_555 1_555
C7 C34 1_555 1_555
C8 C35 1_555 1_555
C9 C36 1_555 1_555
C18 C27 1_555 1_555
C20 C28 1_555 1_555
Pr2 N5 1_555 1_555
Fe6_2 O27 1_555 1_555
Fe9 O25 1_555 1_555
N5 C12 1_555 1_555
N6 Pr2 1_555 1_555
N7 Pr2 1_555 1_555
O11 Pr2 1_555 1_555
O12 Pr2 1_555 1_555
O13 Pr2 1_555 1_555
O14 Pr2 1_555 1_555
O15 Pr2 1_555 1_555
O16 Pr2 1_555 1_555
O24 Fe2_2 1_555 1_555
O25 C40 1_555 1_555
O26 Fe3_2 1_555 1_555
O27 C42 1_555 1_555
O30 Fe1_4 1_555 1_555
O32 Fe3_2 1_555 1_555
O35_2 Fe3_2 1_555 1_555
O36_2 Fe1_4 1_555 1_555
O37_2 Fe2_2 1_555 1_555
O38_2 Fe3_2 1_555 1_555
C12 C23 1_555 1_555
C13 N5 1_555 1_555
C14 N6 1_555 1_555
C15 N6 1_555 1_555
C23 H10 1_555 1_555
C24 C13 1_555 1_555
C25 C14 1_555 1_555
C26 C15 1_555 1_555
H11 C24 1_555 1_555
H12 C25 1_555 1_555
H13 C26 1_555 1_555
C30 C23 1_555 1_555
C31 C25 1_555 1_555
H17 C30 1_555 1_555
H18 C31 1_555 1_555
C39 O11 1_555 1_555
C40 O12 1_555 1_555
C41 O13 1_555 1_555
C42 O14 1_555 1_555
O24 C39 1_555 1_555
O26 C41 1_555 1_555
C12 C39 1_555 1_555
C13 C40 1_555 1_555
C14 C41 1_555 1_555
C15 C42 1_555 1_555
C24 C30 1_555 1_555
C26 C31 1_555 1_555
Pr3 N4 1_555 1_555
Fe9 O23 1_555 1_555
N4 C10 1_555 1_555
O9 Pr3 1_555 1_555
O10 Pr3 1_555 1_555
O22 Fe2_3 1_555 1_555
O23 C38 1_555 1_555
O34 Fe2_3 1_555 1_555
C10 C21 1_555 1_555
C11 N4 1_555 1_555
C21 H8 1_555 1_555
C22 C11 1_555 1_555
H9 C22 1_555 1_555
C29 C21 1_555 1_555
H16 C29 1_555 1_555
C37 O9 1_555 1_555
C38 O10 1_555 1_555
O22 C37 1_555 1_555
C10 C37 1_555 1_555
C11 C38 1_555 1_555
C22 C29 1_555 1_555
O33 Fe2_4 1_555 1_555
O34_2 Fe2_4 1_555 1_555
Pr3 N4_2 1_555 1_555
Fe6 O23_2 1_555 1_555
N4_2 C10_2 1_555 1_555
O9_2 Pr3 1_555 1_555
O10_2 Pr3 1_555 1_555
O23_2 C38_2 1_555 1_555
C10_2 C21_2 1_555 1_555
C11_2 N4_2 1_555 1_555
C21_2 H8_2 1_555 1_555
C22_2 C11_2 1_555 1_555
H9_2 C22_2 1_555 1_555
C29_2 C21_2 1_555 1_555
H16_2 C29_2 1_555 1_555
C37_2 O9_2 1_555 1_555
C38_2 O10_2 1_555 1_555
O29 C37_2 1_555 1_555
C10_2 C37_2 1_555 1_555
C11_2 C38_2 1_555 1_555
C22_2 C29_2 1_555 1_555
Fe4 O27_2 1_555 1_555
O27_2 C42_2 1_555 1_555
C14_2 N7 1_555 1_555
C15_2 N7 1_555 1_555
C25_2 C14_2 1_555 1_555
C26_2 C15_2 1_555 1_555
H12_2 C25_2 1_555 1_555
H13_2 C26_2 1_555 1_555
C31_2 C25_2 1_555 1_555
H18_2 C31_2 1_555 1_555
C41_2 O16 1_555 1_555
C42_2 O15 1_555 1_555
O30 C41_2 1_555 1_555
C14_2 C41_2 1_555 1_555
C15_2 C42_2 1_555 1_555
C26_2 C31_2 1_555 1_555
Pr3 N4_3 1_555 1_555
Fe4_2 O23_3 1_555 1_555
N4_3 C10_3 1_555 1_555
O9_3 Pr3 1_555 1_555
O10_3 Pr3 1_555 1_555
O23_3 C38_3 1_555 1_555
C10_3 C21_3 1_555 1_555
C11_3 N4_3 1_555 1_555
C21_3 H8_3 1_555 1_555
C22_3 C11_3 1_555 1_555
H9_3 C22_3 1_555 1_555
C29_3 C21_3 1_555 1_555
H16_3 C29_3 1_555 1_555
C37_3 O9_3 1_555 1_555
C38_3 O10_3 1_555 1_555
O28 C37_3 1_555 1_555
C10_3 C37_3 1_555 1_555
C11_3 C38_3 1_555 1_555
C22_3 C29_3 1_555 1_555
Pr2_2 N5_2 1_555 1_555
Fe6 O27_3 1_555 1_555
Fe9 O25_2 1_555 1_555
N5_2 C12_2 1_555 1_555
N6_2 Pr2_2 1_555 1_555
N7_2 Pr2_2 1_555 1_555
O11_2 Pr2_2 1_555 1_555
O12_2 Pr2_2 1_555 1_555
O13_2 Pr2_2 1_555 1_555
O14_2 Pr2_2 1_555 1_555
O15_2 Pr2_2 1_555 1_555
O16_2 Pr2_2 1_555 1_555
O25_2 C40_2 1_555 1_555
O27_3 C42_3 1_555 1_555
C12_2 C23_2 1_555 1_555
C13_2 N5_2 1_555 1_555
C14_3 N6_2 1_555 1_555
C15_3 N6_2 1_555 1_555
C23_2 H10_2 1_555 1_555
C24_2 C13_2 1_555 1_555
C25_3 C14_3 1_555 1_555
C26_3 C15_3 1_555 1_555
H11_2 C24_2 1_555 1_555
H12_3 C25_3 1_555 1_555
H13_3 C26_3 1_555 1_555
C30_2 C23_2 1_555 1_555
C31_3 C25_3 1_555 1_555
H17_2 C30_2 1_555 1_555
H18_3 C31_3 1_555 1_555
C39_2 O11_2 1_555 1_555
C40_2 O12_2 1_555 1_555
C41_3 O13_2 1_555 1_555
C42_3 O14_2 1_555 1_555
O33 C39_2 1_555 1_555
O32 C41_3 1_555 1_555
C12_2 C39_2 1_555 1_555
C13_2 C40_2 1_555 1_555
C14_3 C41_3 1_555 1_555
C15_3 C42_3 1_555 1_555
C24_2 C30_2 1_555 1_555
C26_3 C31_3 1_555 1_555
Fe4_2 O27_4 1_555 1_555
O27_4 C42_4 1_555 1_555
C14_4 N7_2 1_555 1_555
C15_4 N7_2 1_555 1_555
C25_4 C14_4 1_555 1_555
C26_4 C15_4 1_555 1_555
H12_4 C25_4 1_555 1_555
H13_4 C26_4 1_555 1_555
C31_4 C25_4 1_555 1_555
H18_4 C31_4 1_555 1_555
C41_4 O16_2 1_555 1_555
C42_4 O15_2 1_555 1_555
O31 C41_4 1_555 1_555
C14_4 C41_4 1_555 1_555
C15_4 C42_4 1_555 1_555
C26_4 C31_4 1_555 1_555
O3_3 Fe4 1_555 1_555
O35_3 Fe9 1_555 1_555
O36_3 Fe4_2 1_555 1_555
O37_3 Fe6 1_555 1_555
O38_3 Fe9 1_555 1_555
O34_3 Fe6_2 1_555 1_555

#END
