
###############################################################################
#
# This file contains modified crystal structure data generated from the
# MOF subset of the Cambridge Structural Database (CSD) v543 
# hosted by the Cambridge Crystallographic Data Centre (CCDC).
#
# This work is licensed under the Creative Commons
# Attribution-NonCommercial-ShareAlike 4.0 International License.
# To view a copy of this license, visit
# http://creativecommons.org/licenses/by-nc-sa/4.0/
# or send a letter to
# Creative Commons, PO Box 1866, Mountain View, CA 94042, USA.
#
# CIF created using the CSD Python API on 29 September 2022
# The structure has been converted into the P1 space group
# The structure has a 3D framework
# The original CSD entry IMEZUY is in the monoclinic crystal system
# The framework has been calculated to contain at least 10.0% void space
# The void calculation uses a probe of radius 1.32A, grid spacing 0.4
#
###############################################################################

data_IMEZUY
_chemical_formula_moiety         '(C60 H36 Ca4 N4 O24)n'
_symmetry_cell_setting           triclinic
_symmetry_space_group_name_H-M   'P 1'
_symmetry_Int_Tables_number      1
_space_group_name_Hall           'P 1'
loop_
_symmetry_equiv_pos_site_id
_symmetry_equiv_pos_as_xyz
1 x,y,z
_cell_length_a                   11.0555(2)
_cell_length_b                   16.4352(2)
_cell_length_c                   8.60040(10)
_cell_angle_alpha                90
_cell_angle_beta                 107.470(2)
_cell_angle_gamma                90
_cell_volume                     1490.61
loop_
_atom_site_label
_atom_site_type_symbol
_atom_site_fract_x
_atom_site_fract_y
_atom_site_fract_z
O1 O 0.13218(11) 0.65959(7) 0.06276(15)
O2 O 0.10337(13) 0.71999(8) 0.28323(17)
C1 C 0.06594(15) 0.68631(10) 0.1470(2)
Ca2 Ca 0.28682(3) 0.77939(2) 0.46215(4)
Ca6 Ca 0.28682(3) 0.72061(2) 0.96215(4)
O3 O 0.73508(12) 0.32861(7) 0.36744(16)
O4 O 0.70898(12) 0.41156(7) 0.15752(15)
O5 O 0.45038(12) 0.71110(7) 0.40686(15)
O6 O 0.45135(11) 0.65841(7) 0.16760(14)
N1 N 0.75488(13) 0.58813(8) 0.93624(16)
C3 C 0.87894(15) 0.60782(10) 0.97876(19)
H1 H 0.935365 0.576830 0.938028
C4 C 0.71235(16) 0.51226(10) 0.8416(2)
H2 H 0.635250 0.491853 0.864661
H3 H 0.779208 0.470386 0.878581
C5 C 0.68372(15) 0.52373(10) 0.66009(19)
C6 C 0.71950(15) 0.46271(10) 0.5709(2)
H4 H 0.767891 0.417784 0.625781
C7 C 0.68475(15) 0.46714(10) 0.4016(2)
C8 C 0.71200(14) 0.39750(10) 0.3031(2)
C9 C 0.61527(15) 0.53349(10) 0.32159(19)
H5 H 0.594628 0.537611 0.206388
C10 C 0.57566(14) 0.59403(9) 0.40913(19)
C11 C 0.48568(14) 0.66012(9) 0.3206(2)
C12 C 0.61038(15) 0.58868(10) 0.5783(2)
H6 H 0.583893 0.629690 0.638836
C13 C 0.67060(15) 0.63380(11) 0.9847(2)
H7 H 0.583503 0.619042 0.952297
Ca3 Ca 0.71318(3) 0.27939(2) 0.03785(4)
Ca4 Ca 0.71318(3) 0.22061(2) 0.53785(4)
O7 O 0.13218(11) 0.84041(7) 0.56276(15)
O9 O 0.26492(12) 0.67139(7) 0.63256(16)
O10 O 0.29102(12) 0.91156(7) 0.34248(15)
O11 O 0.45135(11) 0.84159(7) 0.66760(14)
O5_2 O 0.54962(12) 0.21110(7) 0.09314(15)
O6_2 O 0.54865(11) 0.15841(7) 0.33240(14)
C9_2 C 0.38473(15) 0.03349(10) 0.17841(19)
H5_2 H 0.405372 0.037611 0.293612
C10_2 C 0.42434(14) 0.09403(9) 0.09087(19)
C11_2 C 0.51432(14) 0.16012(9) 0.1794(2)
O8 O 0.89663(13) 0.21999(8) 0.21677(17)
N1_2 N 0.24512(13) 0.08813(8) 0.56376(16)
C2 C 0.07570(15) 0.17295(10) 0.41858(19)
C3_2 C 0.12106(15) 0.10782(10) 0.52124(19)
H1_2 H 0.064635 0.076830 0.561972
C4_2 C 0.28765(16) 0.01226(10) 0.6584(2)
C5_2 C 0.31628(15) 0.02373(10) 0.83991(19)
C12_2 C 0.38962(15) 0.08868(10) 0.9217(2)
H6_2 H 0.416107 0.129690 0.861164
C13_2 C 0.32940(15) 0.13380(11) 0.5153(2)
H7_2 H 0.416497 0.119042 0.547703
C14 C 0.28934(17) 0.20130(11) 0.4196(2)
H8 H 0.348833 0.234691 0.389584
C15 C 0.16092(18) 0.22031(10) 0.3671(2)
H9 H 0.131478 0.265300 0.296489
O7_2 O 0.86782(11) 0.34041(7) 0.93724(15)
O9_2 O 0.73508(12) 0.17139(7) 0.86744(16)
O11_2 O 0.54865(11) 0.34159(7) 0.83240(14)
O3_2 O 0.26492(12) 0.82861(7) 0.13256(16)
C7_2 C 0.31525(15) 0.96714(10) 0.0984(2)
C8_2 C 0.28800(14) 0.89750(10) 0.1969(2)
H2_2 H 0.364750 0.991853 0.635339
H3_2 H 0.220792 0.970386 0.621419
C6_2 C 0.28050(15) 0.96271(10) 0.9291(2)
H4_2 H 0.232109 0.917784 0.874219
O1_2 O 0.86782(11) 0.15959(7) 0.43724(15)
C1_2 C 0.93406(15) 0.18631(10) 0.3530(2)
O4_2 O 0.29102(12) 0.58844(7) 0.84248(15)
O5_3 O 0.54962(12) 0.28890(7) 0.59314(15)
N1_3 N 0.24512(13) 0.41187(8) 0.06376(16)
C3_3 C 0.12106(15) 0.39218(10) 0.02124(19)
H1_3 H 0.064635 0.423170 0.061972
C4_3 C 0.28765(16) 0.48774(10) 0.1584(2)
H2_3 H 0.364750 0.508147 0.135339
H3_3 H 0.220792 0.529614 0.121419
C5_3 C 0.31628(15) 0.47627(10) 0.33991(19)
C6_3 C 0.28050(15) 0.53729(10) 0.4291(2)
H4_3 H 0.232109 0.582216 0.374219
C7_3 C 0.31525(15) 0.53286(10) 0.5984(2)
C8_3 C 0.28800(14) 0.60250(10) 0.6969(2)
C9_3 C 0.38473(15) 0.46651(10) 0.67841(19)
H5_3 H 0.405372 0.462389 0.793612
C10_3 C 0.42434(14) 0.40597(9) 0.59087(19)
C11_3 C 0.51432(14) 0.33988(9) 0.6794(2)
C12_3 C 0.38962(15) 0.41132(10) 0.4217(2)
H6_3 H 0.416107 0.370310 0.361164
C13_3 C 0.32940(15) 0.36620(11) 0.0153(2)
H7_3 H 0.416497 0.380958 0.047703
O8_2 O 0.89663(13) 0.28001(8) 0.71677(17)
O10_2 O 0.70898(12) 0.08844(7) 0.65752(15)
C1_3 C 0.93406(15) 0.31369(10) 0.8530(2)
O2_2 O 0.10337(13) 0.78001(8) 0.78323(17)
C1_4 C 0.06594(15) 0.81369(10) 0.6470(2)
H2_4 H 0.635250 0.008147 0.364661
H3_4 H 0.779208 0.029614 0.378581
C6_4 C 0.71950(15) 0.03729(10) 0.0709(2)
H4_4 H 0.767891 0.082216 0.125781
C7_4 C 0.68475(15) 0.03286(10) 0.9016(2)
C8_4 C 0.71200(14) 0.10250(10) 0.8031(2)
N1_4 N 0.75488(13) 0.91187(8) 0.43624(16)
C2_2 C 0.92430(15) 0.82705(10) 0.58142(19)
C3_4 C 0.87894(15) 0.89218(10) 0.47876(19)
H1_4 H 0.935365 0.923170 0.438028
C4_4 C 0.71235(16) 0.98774(10) 0.3416(2)
C5_4 C 0.68372(15) 0.97627(10) 0.16009(19)
C12_4 C 0.61038(15) 0.91132(10) 0.0783(2)
H6_4 H 0.583893 0.870310 0.138836
C13_4 C 0.67060(15) 0.86620(11) 0.4847(2)
H7_4 H 0.583503 0.880958 0.452297
C14_2 C 0.71066(17) 0.79870(11) 0.5804(2)
H8_2 H 0.651167 0.765309 0.610416
C15_2 C 0.83908(18) 0.77969(10) 0.6329(2)
H9_2 H 0.868522 0.734700 0.703511
O5_4 O 0.45038(12) 0.78890(7) 0.90686(15)
C9_4 C 0.61527(15) 0.96651(10) 0.82159(19)
H5_4 H 0.594628 0.962389 0.706388
C10_4 C 0.57566(14) 0.90597(9) 0.90913(19)
C11_4 C 0.48568(14) 0.83988(9) 0.8206(2)
C2_3 C 0.92430(15) 0.67295(10) 0.08142(19)
C14_3 C 0.71066(17) 0.70130(11) 0.0804(2)
H8_3 H 0.651167 0.734691 0.110416
C15_3 C 0.83908(18) 0.72031(10) 0.1329(2)
H9_3 H 0.868522 0.765300 0.203511
C2_4 C 0.07570(15) 0.32705(10) 0.91858(19)
C14_4 C 0.28934(17) 0.29870(11) 0.9196(2)
H8_4 H 0.348833 0.265309 0.889584
C15_4 C 0.16092(18) 0.27969(10) 0.8671(2)
H9_4 H 0.131478 0.234700 0.796489
loop_
_geom_bond_atom_site_label_1
_geom_bond_atom_site_label_2
_geom_bond_site_symmetry_1
_geom_bond_site_symmetry_2
O1 C1 1_555 1_555
O2 C1 1_555 1_555
Ca2 O2 1_555 1_555
Ca2 O5 1_555 1_555
O3 C8 1_555 1_555
O4 C8 1_555 1_555
O5 C11 1_555 1_555
O6 C11 1_555 1_555
N1 C3 1_555 1_555
C3 H1 1_555 1_555
C4 N1 1_555 1_555
H2 C4 1_555 1_555
H3 C4 1_555 1_555
C5 C4 1_555 1_555
C6 C5 1_555 1_555
H4 C6 1_555 1_555
C7 C6 1_555 1_555
C8 C7 1_555 1_555
C9 C7 1_555 1_555
H5 C9 1_555 1_555
C10 C9 1_555 1_555
C11 C10 1_555 1_555
C12 C5 1_555 1_555
H6 C12 1_555 1_555
C13 N1 1_555 1_555
H7 C13 1_555 1_555
Ca3 O4 1_555 1_555
Ca4 O3 1_555 1_555
O7 Ca2 1_555 1_555
O9 Ca2 1_555 1_555
O10 Ca2 1_555 1_555
O11 Ca2 1_555 1_555
C10 C12 1_555 1_555
Ca3 O5_2 1_555 1_555
O5_2 C11_2 1_555 1_555
O6_2 C11_2 1_555 1_555
H5_2 C9_2 1_555 1_555
C10_2 C9_2 1_555 1_555
C11_2 C10_2 1_555 1_555
Ca4 O6_2 1_555 1_555
O8 Ca3 1_555 1_555
N1_2 C3_2 1_555 1_555
C2 C3_2 1_555 1_555
C3_2 H1_2 1_555 1_555
C4_2 N1_2 1_555 1_555
C5_2 C4_2 1_555 1_555
C12_2 C5_2 1_555 1_555
H6_2 C12_2 1_555 1_555
C13_2 N1_2 1_555 1_555
H7_2 C13_2 1_555 1_555
C14 C13_2 1_555 1_555
H8 C14 1_555 1_555
C15 C2 1_555 1_555
H9 C15 1_555 1_555
C14 C15 1_555 1_555
O3_2 C8_2 1_555 1_555
O10 C8_2 1_555 1_555
C8_2 C7_2 1_555 1_555
H4_2 C6_2 1_555 1_555
O1_2 C1_2 1_555 1_555
O8 C1_2 1_555 1_555
Ca4 O1_2 1_555 1_555
Ca4 O5_3 1_555 1_555
O9 C8_3 1_555 1_555
O4_2 C8_3 1_555 1_555
O5_3 C11_3 1_555 1_555
O11_2 C11_3 1_555 1_555
N1_3 C3_3 1_555 1_555
C3_3 H1_3 1_555 1_555
C4_3 N1_3 1_555 1_555
H2_3 C4_3 1_555 1_555
H3_3 C4_3 1_555 1_555
C5_3 C4_3 1_555 1_555
C6_3 C5_3 1_555 1_555
H4_3 C6_3 1_555 1_555
C7_3 C6_3 1_555 1_555
C8_3 C7_3 1_555 1_555
C9_3 C7_3 1_555 1_555
H5_3 C9_3 1_555 1_555
C10_3 C9_3 1_555 1_555
C11_3 C10_3 1_555 1_555
C12_3 C5_3 1_555 1_555
H6_3 C12_3 1_555 1_555
C13_3 N1_3 1_555 1_555
H7_3 C13_3 1_555 1_555
Ca6 O4_2 1_555 1_555
O8_2 Ca4 1_555 1_555
O10_2 Ca4 1_555 1_555
C10_3 C12_3 1_555 1_555
O7_2 C1_3 1_555 1_555
O8_2 C1_3 1_555 1_555
O7 C1_4 1_555 1_555
O2_2 C1_4 1_555 1_555
Ca6 O2_2 1_555 1_555
H4_4 C6_4 1_555 1_555
O9_2 C8_4 1_555 1_555
O10_2 C8_4 1_555 1_555
C8_4 C7_4 1_555 1_555
N1_4 C3_4 1_555 1_555
C2_2 C3_4 1_555 1_555
C3_4 H1_4 1_555 1_555
C4_4 N1_4 1_555 1_555
C5_4 C4_4 1_555 1_555
C12_4 C5_4 1_555 1_555
H6_4 C12_4 1_555 1_555
C13_4 N1_4 1_555 1_555
H7_4 C13_4 1_555 1_555
C14_2 C13_4 1_555 1_555
H8_2 C14_2 1_555 1_555
C15_2 C2_2 1_555 1_555
H9_2 C15_2 1_555 1_555
C14_2 C15_2 1_555 1_555
Ca6 O5_4 1_555 1_555
O5_4 C11_4 1_555 1_555
O11 C11_4 1_555 1_555
H5_4 C9_4 1_555 1_555
C10_4 C9_4 1_555 1_555
C11_4 C10_4 1_555 1_555
H8_3 C14_3 1_555 1_555
C15_3 C2_3 1_555 1_555
H9_3 C15_3 1_555 1_555
C14_3 C15_3 1_555 1_555
H8_4 C14_4 1_555 1_555
C15_4 C2_4 1_555 1_555
H9_4 C15_4 1_555 1_555
C14_4 C15_4 1_555 1_555

#END
