
###############################################################################
#
# This file contains modified crystal structure data generated from the
# MOF subset of the Cambridge Structural Database (CSD) v543 
# hosted by the Cambridge Crystallographic Data Centre (CCDC).
#
# This work is licensed under the Creative Commons
# Attribution-NonCommercial-ShareAlike 4.0 International License.
# To view a copy of this license, visit
# http://creativecommons.org/licenses/by-nc-sa/4.0/
# or send a letter to
# Creative Commons, PO Box 1866, Mountain View, CA 94042, USA.
#
# CIF created using the CSD Python API on 29 September 2022
# The structure has been converted into the P1 space group
# The structure has a 3D framework
# The original CSD entry IMIDZB11 is in the orthorhombic crystal system
# The framework has been calculated to contain at least 10.0% void space
# The void calculation uses a probe of radius 1.32A, grid spacing 0.4
# H atom positions have been added when not included in the experimental data
#
###############################################################################

data_IMIDZB11
_chemical_formula_moiety         '(C96 H96 N64 Zn12)n'
_symmetry_cell_setting           triclinic
_symmetry_space_group_name_H-M   'P 1'
_symmetry_Int_Tables_number      1
_space_group_name_Hall           'P 1'
loop_
_symmetry_equiv_pos_site_id
_symmetry_equiv_pos_as_xyz
1 x,y,z
_cell_length_a                   15.50051(15)
_cell_length_b                   15.52013(14)
_cell_length_c                   18.05823(17)
_cell_angle_alpha                90
_cell_angle_beta                 90
_cell_angle_gamma                90
_cell_volume                     4344.27
loop_
_atom_site_label
_atom_site_type_symbol
_atom_site_fract_x
_atom_site_fract_y
_atom_site_fract_z
_atom_site_U_iso_or_equiv
_atom_site_thermal_displace_type
Zn1 Zn 0.3002(3) 0.3543(3) 0.0912(2) 0.0593 Uiso
N1 N 0.175(2) 0.3291(18) 0.1199(13) 0.0633 Uiso
N2 N 0.0578(16) 0.263(3) 0.1601(17) 0.0633 Uiso
C1 C 0.1450(16) 0.2668(13) 0.1615(9) 0.0633 Uiso
C2 C 0.029(2) 0.321(3) 0.116(2) 0.0633 Uiso
C3 C 0.101(3) 0.366(2) 0.0886(18) 0.0633 Uiso
N3 N 0.329(4) 0.457(5) 0.1568(17) 0.0633 Uiso
N4 N 0.425(4) 0.558(3) 0.1851(14) 0.0633 Uiso
C4 C 0.3961(16) 0.5006(18) 0.1349(6) 0.0633 Uiso
C5 C 0.370(3) 0.550(4) 0.2490(12) 0.0633 Uiso
C6 C 0.311(4) 0.486(7) 0.2287(18) 0.0633 Uiso
N5 N 0.3648(18) 0.249(2) 0.1252(15) 0.0633 Uiso
N6 N 0.439(2) 0.1945(15) 0.220(2) 0.0633 Uiso
C7 C 0.4009(14) 0.2649(9) 0.1891(14) 0.0633 Uiso
C8 C 0.428(3) 0.1335(11) 0.173(4) 0.0633 Uiso
C9 C 0.381(3) 0.165(3) 0.112(3) 0.0633 Uiso
Zn3 Zn 0.5054(3) 0.6562(3) 0.1877(2) 0.0593 Uiso
Zn5 Zn 0.4946(3) 0.1562(3) 0.3123(2) 0.0593 Uiso
N9 N 0.075(4) 0.058(3) 0.1851(14) 0.0633 Uiso
H1 H 0.440272 0.335441 0.0103324 . .
H2 H 0.426118 0.491503 0.0809403 . .
H4 H 0.361426 0.128439 0.0633482 . .
H5 H 0.400564 0.328209 0.215101 . .
H6 H 0.0995017 0.419868 0.0499788 . .
H8 H 0.37351 0.585458 0.300951 . .
H9 H 0.451332 0.0677206 0.179284 . .
H10 H 0.185493 0.223166 0.193473 . .
H11 H 0.258843 0.462236 0.26356 . .
N7 N 0.317(3) 0.381(8) 0.9827(19) 0.0633 Uiso
N8 N 0.417(2) 0.367(3) 0.8962(13) 0.0633 Uiso
C10 C 0.3956(15) 0.3587(9) 0.9683(12) 0.0633 Uiso
C11 C 0.343(4) 0.402(5) 0.8596(18) 0.0633 Uiso
C12 C 0.281(5) 0.410(11) 0.916(3) 0.0633 Uiso
Zn4 Zn 0.4946(3) 0.3438(3) 0.8123(2) 0.0593 Uiso
H3 H 0.336246 0.418654 0.801306 . .
H7 H 0.215735 0.434671 0.909018 . .
Zn2 Zn 0.9946(3) 0.1562(3) 0.1877(2) 0.0593 Uiso
N10 N 0.939(2) 0.1945(15) 0.280(2) 0.0633 Uiso
N11 N 0.917(2) 0.133(3) 0.1038(13) 0.0633 Uiso
H12 H 0.961647 0.33311 0.102361 . .
Zn2_2 Zn 0.0054(3) 0.6562(3) 0.3123(2) 0.0593 Uiso
N10_2 N 0.061(2) 0.6945(15) 0.220(2) 0.0633 Uiso
N11_2 N 0.083(2) 0.633(3) 0.3962(13) 0.0633 Uiso
H12_2 H 0.0383527 0.83311 0.397639 . .
N4_2 N 0.575(4) 0.058(3) 0.3149(14) 0.0633 Uiso
C4_2 C 0.6039(16) 0.0006(18) 0.3651(6) 0.0633 Uiso
C5_2 C 0.630(3) 0.050(4) 0.2510(12) 0.0633 Uiso
H8_2 H 0.62649 0.0854583 0.199049 . .
Zn1_2 Zn 0.6998(3) 0.8543(3) 0.4088(2) 0.0593 Uiso
N1_2 N 0.825(2) 0.8291(18) 0.3801(13) 0.0633 Uiso
N2_2 N 0.9422(16) 0.763(3) 0.3399(17) 0.0633 Uiso
C1_2 C 0.8550(16) 0.7668(13) 0.3385(9) 0.0633 Uiso
C2_2 C 0.971(2) 0.821(3) 0.384(2) 0.0633 Uiso
C3_2 C 0.899(3) 0.866(2) 0.4114(18) 0.0633 Uiso
N3_2 N 0.671(4) 0.957(5) 0.3432(17) 0.0633 Uiso
C6_2 C 0.689(4) 0.986(7) 0.2713(18) 0.0633 Uiso
N5_2 N 0.6352(18) 0.749(2) 0.3748(15) 0.0633 Uiso
N6_2 N 0.561(2) 0.6945(15) 0.280(2) 0.0633 Uiso
C7_2 C 0.5991(14) 0.7649(9) 0.3109(14) 0.0633 Uiso
C8_2 C 0.572(3) 0.6335(11) 0.327(4) 0.0633 Uiso
C9_2 C 0.619(3) 0.665(3) 0.388(3) 0.0633 Uiso
N7_2 N 0.683(3) 0.881(8) 0.5173(19) 0.0633 Uiso
N8_2 N 0.583(2) 0.867(3) 0.6038(13) 0.0633 Uiso
C10_2 C 0.6044(15) 0.8587(9) 0.5317(12) 0.0633 Uiso
C11_2 C 0.657(4) 0.902(5) 0.6404(18) 0.0633 Uiso
C12_2 C 0.719(5) 0.910(11) 0.584(3) 0.0633 Uiso
Zn4_2 Zn 0.5054(3) 0.8438(3) 0.6877(2) 0.0593 Uiso
N9_2 N 0.925(4) 0.558(3) 0.3149(14) 0.0633 Uiso
H1_2 H 0.559728 0.835441 0.489668 . .
H2_2 H 0.573882 0.991503 0.41906 . .
H3_2 H 0.663754 0.918654 0.698694 . .
H4_2 H 0.638574 0.628439 0.436652 . .
H5_2 H 0.599436 0.828209 0.284899 . .
H6_2 H 0.900498 0.919868 0.450021 . .
H7_2 H 0.784265 0.934671 0.590982 . .
H9_2 H 0.548668 0.567721 0.320716 . .
H10_2 H 0.814507 0.723166 0.306527 . .
H11_2 H 0.741157 0.962236 0.23644 . .
Zn1_3 Zn 0.1998(3) 0.6457(3) 0.5912(2) 0.0593 Uiso
N1_3 N 0.325(2) 0.6709(18) 0.6199(13) 0.0633 Uiso
N2_3 N 0.4422(16) 0.737(3) 0.6601(17) 0.0633 Uiso
C1_3 C 0.3550(16) 0.7332(13) 0.6615(9) 0.0633 Uiso
C2_3 C 0.471(2) 0.679(3) 0.616(2) 0.0633 Uiso
C3_3 C 0.399(3) 0.634(2) 0.5886(18) 0.0633 Uiso
N3_3 N 0.171(4) 0.543(5) 0.6568(17) 0.0633 Uiso
N4_3 N 0.075(4) 0.442(3) 0.6851(14) 0.0633 Uiso
C4_3 C 0.1039(16) 0.4994(18) 0.6349(6) 0.0633 Uiso
C5_3 C 0.130(3) 0.450(4) 0.7490(12) 0.0633 Uiso
C6_3 C 0.189(4) 0.514(7) 0.7287(18) 0.0633 Uiso
N5_3 N 0.1352(18) 0.751(2) 0.6252(15) 0.0633 Uiso
N6_3 N 0.061(2) 0.8055(15) 0.720(2) 0.0633 Uiso
C7_3 C 0.0991(14) 0.7351(9) 0.6891(14) 0.0633 Uiso
C8_3 C 0.072(3) 0.8665(11) 0.673(4) 0.0633 Uiso
C9_3 C 0.119(3) 0.835(3) 0.612(3) 0.0633 Uiso
N7_3 N 0.183(3) 0.619(8) 0.4827(19) 0.0633 Uiso
C10_3 C 0.1044(15) 0.6413(9) 0.4683(12) 0.0633 Uiso
C11_3 C 0.157(4) 0.598(5) 0.3596(18) 0.0633 Uiso
C12_3 C 0.219(5) 0.590(11) 0.416(3) 0.0633 Uiso
Zn5_2 Zn 0.0054(3) 0.8438(3) 0.8123(2) 0.0593 Uiso
N9_3 N 0.425(4) 0.942(3) 0.6851(14) 0.0633 Uiso
N10_3 N 0.561(2) 0.8055(15) 0.780(2) 0.0633 Uiso
H1_3 H 0.0597275 0.664559 0.510332 . .
H2_3 H 0.0738819 0.508497 0.58094 . .
H3_3 H 0.163754 0.581346 0.301306 . .
H4_3 H 0.138574 0.871561 0.563348 . .
H5_3 H 0.0994364 0.671791 0.715101 . .
H6_3 H 0.400498 0.580132 0.549979 . .
H7_3 H 0.284265 0.565329 0.409018 . .
H8_3 H 0.12649 0.414542 0.800951 . .
H9_3 H 0.048668 0.932279 0.679284 . .
H10_3 H 0.314507 0.776834 0.693473 . .
H11_3 H 0.241157 0.537764 0.76356 . .
H12_3 H 0.538353 0.66689 0.602361 . .
Zn3_2 Zn 0.9946(3) 0.3438(3) 0.6877(2) 0.0593 Uiso
N7_4 N 0.817(3) 0.119(8) 0.0173(19) 0.0633 Uiso
C10_4 C 0.8956(15) 0.1413(9) 0.0317(12) 0.0633 Uiso
C11_4 C 0.843(4) 0.098(5) 0.1404(18) 0.0633 Uiso
C12_4 C 0.781(5) 0.090(11) 0.084(3) 0.0633 Uiso
H3_4 H 0.836246 0.0813461 0.198694 . .
H7_4 H 0.715735 0.0653291 0.0909825 . .
Zn1_4 Zn 0.8002(3) 0.1457(3) 0.9088(2) 0.0593 Uiso
N1_4 N 0.675(2) 0.1709(18) 0.8801(13) 0.0633 Uiso
N2_4 N 0.5578(16) 0.237(3) 0.8399(17) 0.0633 Uiso
C1_4 C 0.6450(16) 0.2332(13) 0.8385(9) 0.0633 Uiso
C2_4 C 0.529(2) 0.179(3) 0.884(2) 0.0633 Uiso
C3_4 C 0.601(3) 0.134(2) 0.9114(18) 0.0633 Uiso
N3_4 N 0.829(4) 0.043(5) 0.8432(17) 0.0633 Uiso
C6_4 C 0.811(4) 0.014(7) 0.7713(18) 0.0633 Uiso
N5_4 N 0.8648(18) 0.251(2) 0.8748(15) 0.0633 Uiso
N6_4 N 0.939(2) 0.3055(15) 0.780(2) 0.0633 Uiso
C7_4 C 0.9009(14) 0.2351(9) 0.8109(14) 0.0633 Uiso
C8_4 C 0.928(3) 0.3665(11) 0.827(4) 0.0633 Uiso
C9_4 C 0.881(3) 0.335(3) 0.888(3) 0.0633 Uiso
N9_4 N 0.575(4) 0.442(3) 0.8149(14) 0.0633 Uiso
N10_4 N 0.439(2) 0.3055(15) 0.720(2) 0.0633 Uiso
H1_4 H 0.940272 0.164559 0.989668 . .
H2_4 H 0.926118 0.00849713 0.91906 . .
H4_4 H 0.861426 0.371561 0.936652 . .
H5_4 H 0.900564 0.171791 0.784899 . .
H6_4 H 0.599502 0.0801315 0.950021 . .
H9_4 H 0.951332 0.432279 0.820716 . .
H10_4 H 0.685493 0.276834 0.806527 . .
H11_4 H 0.758843 0.0377644 0.73644 . .
H12_4 H 0.461647 0.16689 0.897639 . .
N4_4 N 0.925(4) 0.942(3) 0.8149(14) 0.0633 Uiso
C4_4 C 0.8961(16) 0.9994(18) 0.8651(6) 0.0633 Uiso
C5_4 C 0.870(3) 0.950(4) 0.7510(12) 0.0633 Uiso
H8_4 H 0.87351 0.914542 0.699049 . .
N11_3 N 0.083(2) 0.867(3) 0.8962(13) 0.0633 Uiso
H12_5 H 0.0383527 0.66689 0.897639 . .
N7_5 N 0.683(3) 0.619(8) 0.0173(19) 0.0633 Uiso
N8_3 N 0.583(2) 0.633(3) 0.1038(13) 0.0633 Uiso
C10_5 C 0.6044(15) 0.6413(9) 0.0317(12) 0.0633 Uiso
C11_5 C 0.657(4) 0.598(5) 0.1404(18) 0.0633 Uiso
C12_5 C 0.719(5) 0.590(11) 0.084(3) 0.0633 Uiso
H3_5 H 0.663754 0.581346 0.198694 . .
H7_5 H 0.784265 0.565329 0.0909825 . .
Zn1_5 Zn 0.6998(3) 0.6457(3) 0.9088(2) 0.0593 Uiso
N1_5 N 0.825(2) 0.6709(18) 0.8801(13) 0.0633 Uiso
N2_5 N 0.9422(16) 0.737(3) 0.8399(17) 0.0633 Uiso
C1_5 C 0.8550(16) 0.7332(13) 0.8385(9) 0.0633 Uiso
C2_5 C 0.971(2) 0.679(3) 0.884(2) 0.0633 Uiso
C3_5 C 0.899(3) 0.634(2) 0.9114(18) 0.0633 Uiso
N3_5 N 0.671(4) 0.543(5) 0.8432(17) 0.0633 Uiso
C4_5 C 0.6039(16) 0.4994(18) 0.8651(6) 0.0633 Uiso
C5_5 C 0.630(3) 0.450(4) 0.7510(12) 0.0633 Uiso
C6_5 C 0.689(4) 0.514(7) 0.7713(18) 0.0633 Uiso
N5_5 N 0.6352(18) 0.751(2) 0.8748(15) 0.0633 Uiso
C7_5 C 0.5991(14) 0.7351(9) 0.8109(14) 0.0633 Uiso
C8_5 C 0.572(3) 0.8665(11) 0.827(4) 0.0633 Uiso
C9_5 C 0.619(3) 0.835(3) 0.888(3) 0.0633 Uiso
H1_5 H 0.559728 0.664559 0.989668 . .
H2_5 H 0.573882 0.508497 0.91906 . .
H4_5 H 0.638574 0.871561 0.936652 . .
H5_5 H 0.599436 0.671791 0.784899 . .
H6_5 H 0.900498 0.580132 0.950021 . .
H8_5 H 0.62649 0.414542 0.699049 . .
H9_5 H 0.548668 0.932279 0.820716 . .
H10_5 H 0.814507 0.776834 0.806527 . .
H11_5 H 0.741157 0.537764 0.73644 . .
Zn1_6 Zn 0.3002(3) 0.1457(3) 0.5912(2) 0.0593 Uiso
N1_6 N 0.175(2) 0.1709(18) 0.6199(13) 0.0633 Uiso
N2_6 N 0.0578(16) 0.237(3) 0.6601(17) 0.0633 Uiso
C1_6 C 0.1450(16) 0.2332(13) 0.6615(9) 0.0633 Uiso
C2_6 C 0.029(2) 0.179(3) 0.616(2) 0.0633 Uiso
C3_6 C 0.101(3) 0.134(2) 0.5886(18) 0.0633 Uiso
N3_6 N 0.329(4) 0.043(5) 0.6568(17) 0.0633 Uiso
C6_6 C 0.311(4) 0.014(7) 0.7287(18) 0.0633 Uiso
N5_6 N 0.3648(18) 0.251(2) 0.6252(15) 0.0633 Uiso
C7_6 C 0.4009(14) 0.2351(9) 0.6891(14) 0.0633 Uiso
C8_6 C 0.428(3) 0.3665(11) 0.673(4) 0.0633 Uiso
C9_6 C 0.381(3) 0.335(3) 0.612(3) 0.0633 Uiso
N7_6 N 0.317(3) 0.119(8) 0.4827(19) 0.0633 Uiso
N8_4 N 0.417(2) 0.133(3) 0.3962(13) 0.0633 Uiso
C10_6 C 0.3956(15) 0.1413(9) 0.4683(12) 0.0633 Uiso
C11_6 C 0.343(4) 0.098(5) 0.3596(18) 0.0633 Uiso
C12_6 C 0.281(5) 0.090(11) 0.416(3) 0.0633 Uiso
H1_6 H 0.440272 0.164559 0.510332 . .
H2_6 H 0.426118 0.00849713 0.58094 . .
H3_6 H 0.336246 0.0813461 0.301306 . .
H4_6 H 0.361426 0.371561 0.563348 . .
H5_6 H 0.400564 0.171791 0.715101 . .
H6_6 H 0.0995017 0.0801315 0.549979 . .
H7_6 H 0.215735 0.0653291 0.409018 . .
H9_6 H 0.451332 0.432279 0.679284 . .
H10_6 H 0.185493 0.276834 0.693473 . .
H11_6 H 0.258843 0.0377644 0.76356 . .
C4_6 C 0.3961(16) 0.9994(18) 0.6349(6) 0.0633 Uiso
C5_6 C 0.370(3) 0.950(4) 0.7490(12) 0.0633 Uiso
H8_6 H 0.37351 0.914542 0.800951 . .
N11_4 N 0.917(2) 0.367(3) 0.6038(13) 0.0633 Uiso
H12_6 H 0.961647 0.16689 0.602361 . .
Zn1_7 Zn 0.8002(3) 0.3543(3) 0.4088(2) 0.0593 Uiso
N1_7 N 0.675(2) 0.3291(18) 0.3801(13) 0.0633 Uiso
N2_7 N 0.5578(16) 0.263(3) 0.3399(17) 0.0633 Uiso
C1_7 C 0.6450(16) 0.2668(13) 0.3385(9) 0.0633 Uiso
C2_7 C 0.529(2) 0.321(3) 0.384(2) 0.0633 Uiso
C3_7 C 0.601(3) 0.366(2) 0.4114(18) 0.0633 Uiso
N3_7 N 0.829(4) 0.457(5) 0.3432(17) 0.0633 Uiso
C4_7 C 0.8961(16) 0.5006(18) 0.3651(6) 0.0633 Uiso
C5_7 C 0.870(3) 0.550(4) 0.2510(12) 0.0633 Uiso
C6_7 C 0.811(4) 0.486(7) 0.2713(18) 0.0633 Uiso
N5_7 N 0.8648(18) 0.249(2) 0.3748(15) 0.0633 Uiso
C7_7 C 0.9009(14) 0.2649(9) 0.3109(14) 0.0633 Uiso
C8_7 C 0.928(3) 0.1335(11) 0.327(4) 0.0633 Uiso
C9_7 C 0.881(3) 0.165(3) 0.388(3) 0.0633 Uiso
N7_7 N 0.817(3) 0.381(8) 0.5173(19) 0.0633 Uiso
C10_7 C 0.8956(15) 0.3587(9) 0.5317(12) 0.0633 Uiso
C11_7 C 0.843(4) 0.402(5) 0.6404(18) 0.0633 Uiso
C12_7 C 0.781(5) 0.410(11) 0.584(3) 0.0633 Uiso
H1_7 H 0.940272 0.335441 0.489668 . .
H2_7 H 0.926118 0.491503 0.41906 . .
H3_7 H 0.836246 0.418654 0.698694 . .
H4_7 H 0.861426 0.128439 0.436652 . .
H5_7 H 0.900564 0.328209 0.284899 . .
H6_7 H 0.599502 0.419868 0.450021 . .
H7_7 H 0.715735 0.434671 0.590982 . .
H8_7 H 0.87351 0.585458 0.199049 . .
H9_7 H 0.951332 0.0677206 0.320716 . .
H10_7 H 0.685493 0.223166 0.306527 . .
H11_7 H 0.758843 0.462236 0.23644 . .
H12_7 H 0.461647 0.33311 0.397639 . .
C4_8 C 0.1039(16) 0.0006(18) 0.1349(6) 0.0633 Uiso
C5_8 C 0.130(3) 0.050(4) 0.2490(12) 0.0633 Uiso
H8_8 H 0.12649 0.0854583 0.300951 . .
Zn1_8 Zn 0.1998(3) 0.8543(3) 0.0912(2) 0.0593 Uiso
N1_8 N 0.325(2) 0.8291(18) 0.1199(13) 0.0633 Uiso
N2_8 N 0.4422(16) 0.763(3) 0.1601(17) 0.0633 Uiso
C1_8 C 0.3550(16) 0.7668(13) 0.1615(9) 0.0633 Uiso
C2_8 C 0.471(2) 0.821(3) 0.116(2) 0.0633 Uiso
C3_8 C 0.399(3) 0.866(2) 0.0886(18) 0.0633 Uiso
N3_8 N 0.171(4) 0.957(5) 0.1568(17) 0.0633 Uiso
C6_8 C 0.189(4) 0.986(7) 0.2287(18) 0.0633 Uiso
N5_8 N 0.1352(18) 0.749(2) 0.1252(15) 0.0633 Uiso
C7_8 C 0.0991(14) 0.7649(9) 0.1891(14) 0.0633 Uiso
C8_8 C 0.072(3) 0.6335(11) 0.173(4) 0.0633 Uiso
C9_8 C 0.119(3) 0.665(3) 0.112(3) 0.0633 Uiso
H1_8 H 0.0597275 0.835441 0.0103324 . .
H2_8 H 0.0738819 0.991503 0.0809403 . .
H4_8 H 0.138574 0.628439 0.0633482 . .
H5_8 H 0.0994364 0.828209 0.215101 . .
H6_8 H 0.400498 0.919868 0.0499788 . .
H9_8 H 0.048668 0.567721 0.179284 . .
H10_8 H 0.314507 0.723166 0.193473 . .
H11_8 H 0.241157 0.962236 0.26356 . .
H12_8 H 0.538353 0.83311 0.102361 . .
N7_8 N 0.183(3) 0.881(8) 0.9827(19) 0.0633 Uiso
C10_8 C 0.1044(15) 0.8587(9) 0.9683(12) 0.0633 Uiso
C11_8 C 0.157(4) 0.902(5) 0.8596(18) 0.0633 Uiso
C12_8 C 0.219(5) 0.910(11) 0.916(3) 0.0633 Uiso
H3_8 H 0.163754 0.918654 0.801306 . .
H7_8 H 0.284265 0.934671 0.909018 . .
loop_
_geom_bond_atom_site_label_1
_geom_bond_atom_site_label_2
_geom_bond_site_symmetry_1
_geom_bond_site_symmetry_2
Zn1 N1 1_555 1_555
N1 C1 1_555 1_555
N2 C1 1_555 1_555
C2 N2 1_555 1_555
C3 N1 1_555 1_555
N3 Zn1 1_555 1_555
N4 C4 1_555 1_555
C4 N3 1_555 1_555
C5 N4 1_555 1_555
C6 N3 1_555 1_555
N5 Zn1 1_555 1_555
N6 C7 1_555 1_555
C7 N5 1_555 1_555
C8 N6 1_555 1_555
C9 N5 1_555 1_555
Zn3 N4 1_555 1_555
Zn5 N6 1_555 1_555
C2 C3 1_555 1_555
C5 C6 1_555 1_555
C8 C9 1_555 1_555
C4 H2 1_555 1_555
C9 H4 1_555 1_555
C7 H5 1_555 1_555
C3 H6 1_555 1_555
C5 H8 1_555 1_555
C8 H9 1_555 1_555
C1 H10 1_555 1_555
C6 H11 1_555 1_555
N8 C10 1_555 1_555
C10 N7 1_555 1_555
C11 N8 1_555 1_555
C12 N7 1_555 1_555
Zn4 N8 1_555 1_555
C11 C12 1_555 1_555
C11 H3 1_555 1_555
C12 H7 1_555 1_555
N10 Zn2 1_555 1_555
N11 Zn2 1_555 1_555
N10_2 Zn2_2 1_555 1_555
N11_2 Zn2_2 1_555 1_555
N4_2 C4_2 1_555 1_555
C5_2 N4_2 1_555 1_555
Zn5 N4_2 1_555 1_555
C5_2 H8_2 1_555 1_555
Zn1_2 N1_2 1_555 1_555
N1_2 C1_2 1_555 1_555
N2_2 C1_2 1_555 1_555
C2_2 N2_2 1_555 1_555
C3_2 N1_2 1_555 1_555
N3_2 Zn1_2 1_555 1_555
C6_2 N3_2 1_555 1_555
N5_2 Zn1_2 1_555 1_555
N6_2 C7_2 1_555 1_555
C7_2 N5_2 1_555 1_555
C8_2 N6_2 1_555 1_555
C9_2 N5_2 1_555 1_555
N7_2 Zn1_2 1_555 1_555
N8_2 C10_2 1_555 1_555
C10_2 N7_2 1_555 1_555
C11_2 N8_2 1_555 1_555
C12_2 N7_2 1_555 1_555
Zn4_2 N8_2 1_555 1_555
Zn3 N6_2 1_555 1_555
C2_2 C3_2 1_555 1_555
C8_2 C9_2 1_555 1_555
C11_2 C12_2 1_555 1_555
C10_2 H1_2 1_555 1_555
C11_2 H3_2 1_555 1_555
C9_2 H4_2 1_555 1_555
C7_2 H5_2 1_555 1_555
C3_2 H6_2 1_555 1_555
C12_2 H7_2 1_555 1_555
C8_2 H9_2 1_555 1_555
C1_2 H10_2 1_555 1_555
C6_2 H11_2 1_555 1_555
Zn1_3 N1_3 1_555 1_555
Zn4_2 N2_3 1_555 1_555
N1_3 C1_3 1_555 1_555
N2_3 C1_3 1_555 1_555
C2_3 N2_3 1_555 1_555
C3_3 N1_3 1_555 1_555
N3_3 Zn1_3 1_555 1_555
N4_3 C4_3 1_555 1_555
C4_3 N3_3 1_555 1_555
C5_3 N4_3 1_555 1_555
C6_3 N3_3 1_555 1_555
N5_3 Zn1_3 1_555 1_555
N6_3 C7_3 1_555 1_555
C7_3 N5_3 1_555 1_555
C8_3 N6_3 1_555 1_555
C9_3 N5_3 1_555 1_555
N7_3 Zn1_3 1_555 1_555
N11_2 C10_3 1_555 1_555
C10_3 N7_3 1_555 1_555
C11_3 N11_2 1_555 1_555
C12_3 N7_3 1_555 1_555
Zn5_2 N6_3 1_555 1_555
N9_3 Zn4_2 1_555 1_555
N10_3 Zn4_2 1_555 1_555
C2_3 C3_3 1_555 1_555
C5_3 C6_3 1_555 1_555
C8_3 C9_3 1_555 1_555
C11_3 C12_3 1_555 1_555
C10_3 H1_3 1_555 1_555
C4_3 H2_3 1_555 1_555
C11_3 H3_3 1_555 1_555
C9_3 H4_3 1_555 1_555
C7_3 H5_3 1_555 1_555
C3_3 H6_3 1_555 1_555
C12_3 H7_3 1_555 1_555
C5_3 H8_3 1_555 1_555
C8_3 H9_3 1_555 1_555
C1_3 H10_3 1_555 1_555
C6_3 H11_3 1_555 1_555
C2_3 H12_3 1_555 1_555
N11 C10_4 1_555 1_555
C10_4 N7_4 1_555 1_555
C11_4 N11 1_555 1_555
C12_4 N7_4 1_555 1_555
C11_4 C12_4 1_555 1_555
C11_4 H3_4 1_555 1_555
C12_4 H7_4 1_555 1_555
Zn1_4 N1_4 1_555 1_555
Zn4 N2_4 1_555 1_555
N1_4 C1_4 1_555 1_555
N2_4 C1_4 1_555 1_555
C2_4 N2_4 1_555 1_555
C3_4 N1_4 1_555 1_555
N3_4 Zn1_4 1_555 1_555
C6_4 N3_4 1_555 1_555
N5_4 Zn1_4 1_555 1_555
N6_4 C7_4 1_555 1_555
C7_4 N5_4 1_555 1_555
C8_4 N6_4 1_555 1_555
C9_4 N5_4 1_555 1_555
Zn3_2 N6_4 1_555 1_555
N9_4 Zn4 1_555 1_555
N10_4 Zn4 1_555 1_555
C2_4 C3_4 1_555 1_555
C8_4 C9_4 1_555 1_555
C9_4 H4_4 1_555 1_555
C7_4 H5_4 1_555 1_555
C3_4 H6_4 1_555 1_555
C8_4 H9_4 1_555 1_555
C1_4 H10_4 1_555 1_555
C6_4 H11_4 1_555 1_555
C2_4 H12_4 1_555 1_555
N4_4 C4_4 1_555 1_555
C5_4 N4_4 1_555 1_555
C5_4 H8_4 1_555 1_555
N11_3 Zn5_2 1_555 1_555
N8_3 C10_5 1_555 1_555
C10_5 N7_5 1_555 1_555
C11_5 N8_3 1_555 1_555
C12_5 N7_5 1_555 1_555
Zn3 N8_3 1_555 1_555
C11_5 C12_5 1_555 1_555
C11_5 H3_5 1_555 1_555
C12_5 H7_5 1_555 1_555
Zn1_5 N1_5 1_555 1_555
N1_5 C1_5 1_555 1_555
N2_5 C1_5 1_555 1_555
C2_5 N2_5 1_555 1_555
C3_5 N1_5 1_555 1_555
N3_5 Zn1_5 1_555 1_555
N9_4 C4_5 1_555 1_555
C4_5 N3_5 1_555 1_555
C5_5 N9_4 1_555 1_555
C6_5 N3_5 1_555 1_555
N5_5 Zn1_5 1_555 1_555
N10_3 C7_5 1_555 1_555
C7_5 N5_5 1_555 1_555
C8_5 N10_3 1_555 1_555
C9_5 N5_5 1_555 1_555
C2_5 C3_5 1_555 1_555
C5_5 C6_5 1_555 1_555
C8_5 C9_5 1_555 1_555
C4_5 H2_5 1_555 1_555
C9_5 H4_5 1_555 1_555
C7_5 H5_5 1_555 1_555
C3_5 H6_5 1_555 1_555
C5_5 H8_5 1_555 1_555
C8_5 H9_5 1_555 1_555
C1_5 H10_5 1_555 1_555
C6_5 H11_5 1_555 1_555
Zn1_6 N1_6 1_555 1_555
N1_6 C1_6 1_555 1_555
N2_6 C1_6 1_555 1_555
C2_6 N2_6 1_555 1_555
C3_6 N1_6 1_555 1_555
N3_6 Zn1_6 1_555 1_555
C6_6 N3_6 1_555 1_555
N5_6 Zn1_6 1_555 1_555
N10_4 C7_6 1_555 1_555
C7_6 N5_6 1_555 1_555
C8_6 N10_4 1_555 1_555
C9_6 N5_6 1_555 1_555
N7_6 Zn1_6 1_555 1_555
N8_4 C10_6 1_555 1_555
C10_6 N7_6 1_555 1_555
C11_6 N8_4 1_555 1_555
C12_6 N7_6 1_555 1_555
Zn5 N8_4 1_555 1_555
C2_6 C3_6 1_555 1_555
C8_6 C9_6 1_555 1_555
C11_6 C12_6 1_555 1_555
C10_6 H1_6 1_555 1_555
C11_6 H3_6 1_555 1_555
C9_6 H4_6 1_555 1_555
C7_6 H5_6 1_555 1_555
C3_6 H6_6 1_555 1_555
C12_6 H7_6 1_555 1_555
C8_6 H9_6 1_555 1_555
C1_6 H10_6 1_555 1_555
C6_6 H11_6 1_555 1_555
N9_3 C4_6 1_555 1_555
C5_6 N9_3 1_555 1_555
C5_6 H8_6 1_555 1_555
N11_4 Zn3_2 1_555 1_555
Zn1_7 N1_7 1_555 1_555
Zn5 N2_7 1_555 1_555
N1_7 C1_7 1_555 1_555
N2_7 C1_7 1_555 1_555
C2_7 N2_7 1_555 1_555
C3_7 N1_7 1_555 1_555
N3_7 Zn1_7 1_555 1_555
N9_2 C4_7 1_555 1_555
C4_7 N3_7 1_555 1_555
C5_7 N9_2 1_555 1_555
C6_7 N3_7 1_555 1_555
N5_7 Zn1_7 1_555 1_555
N10 C7_7 1_555 1_555
C7_7 N5_7 1_555 1_555
C8_7 N10 1_555 1_555
C9_7 N5_7 1_555 1_555
N7_7 Zn1_7 1_555 1_555
N11_4 C10_7 1_555 1_555
C10_7 N7_7 1_555 1_555
C11_7 N11_4 1_555 1_555
C12_7 N7_7 1_555 1_555
C2_7 C3_7 1_555 1_555
C5_7 C6_7 1_555 1_555
C8_7 C9_7 1_555 1_555
C11_7 C12_7 1_555 1_555
C10_7 H1_7 1_555 1_555
C4_7 H2_7 1_555 1_555
C11_7 H3_7 1_555 1_555
C9_7 H4_7 1_555 1_555
C7_7 H5_7 1_555 1_555
C3_7 H6_7 1_555 1_555
C12_7 H7_7 1_555 1_555
C5_7 H8_7 1_555 1_555
C8_7 H9_7 1_555 1_555
C1_7 H10_7 1_555 1_555
C6_7 H11_7 1_555 1_555
C2_7 H12_7 1_555 1_555
N9 C4_8 1_555 1_555
C5_8 N9 1_555 1_555
C5_8 H8_8 1_555 1_555
Zn1_8 N1_8 1_555 1_555
Zn3 N2_8 1_555 1_555
N1_8 C1_8 1_555 1_555
N2_8 C1_8 1_555 1_555
C2_8 N2_8 1_555 1_555
C3_8 N1_8 1_555 1_555
N3_8 Zn1_8 1_555 1_555
C6_8 N3_8 1_555 1_555
N5_8 Zn1_8 1_555 1_555
N10_2 C7_8 1_555 1_555
C7_8 N5_8 1_555 1_555
C8_8 N10_2 1_555 1_555
C9_8 N5_8 1_555 1_555
C2_8 C3_8 1_555 1_555
C8_8 C9_8 1_555 1_555
C9_8 H4_8 1_555 1_555
C7_8 H5_8 1_555 1_555
C3_8 H6_8 1_555 1_555
C8_8 H9_8 1_555 1_555
C1_8 H10_8 1_555 1_555
C6_8 H11_8 1_555 1_555
C2_8 H12_8 1_555 1_555
N11_3 C10_8 1_555 1_555
C10_8 N7_8 1_555 1_555
C11_8 N11_3 1_555 1_555
C12_8 N7_8 1_555 1_555
C11_8 C12_8 1_555 1_555
C11_8 H3_8 1_555 1_555
C12_8 H7_8 1_555 1_555

#END
