
###############################################################################
#
# This file contains modified crystal structure data generated from the
# MOF subset of the Cambridge Structural Database (CSD) v543 
# hosted by the Cambridge Crystallographic Data Centre (CCDC).
#
# This work is licensed under the Creative Commons
# Attribution-NonCommercial-ShareAlike 4.0 International License.
# To view a copy of this license, visit
# http://creativecommons.org/licenses/by-nc-sa/4.0/
# or send a letter to
# Creative Commons, PO Box 1866, Mountain View, CA 94042, USA.
#
# CIF created using the CSD Python API on 29 September 2022
# The structure has been converted into the P1 space group
# The structure has a 3D framework
# The original CSD entry INECOV is in the monoclinic crystal system
# The original CSD entry INECOV is in a Sohncke space group
# The framework has been calculated to contain at least 10.0% void space
# The void calculation uses a probe of radius 1.32A, grid spacing 0.4
#
###############################################################################

data_INECOV
_chemical_formula_moiety         '(C96 H76 N4 O28 Pr4)n'
_symmetry_cell_setting           triclinic
_symmetry_space_group_name_H-M   'P 1'
_symmetry_Int_Tables_number      1
_space_group_name_Hall           'P 1'
loop_
_symmetry_equiv_pos_site_id
_symmetry_equiv_pos_as_xyz
1 x,y,z
_cell_length_a                   28.8960(9)
_cell_length_b                   8.6749(3)
_cell_length_c                   14.2513(4)
_cell_angle_alpha                90
_cell_angle_beta                 116.0560(10)
_cell_angle_gamma                90
_cell_volume                     3209.29
loop_
_atom_site_label
_atom_site_type_symbol
_atom_site_fract_x
_atom_site_fract_y
_atom_site_fract_z
H22 H 0.0313 0.0003 0.0695
Pr7 Pr 0.22699(2) 0.09698(6) 0.49427(2)
C39 C 0.1980(2) 0.3183(6) 0.3240(4)
C40 C 0.1943(2) 0.3600(6) 0.2197(4)
C41 C 0.2325(2) 0.4458(7) 0.2108(4)
H28 H 0.2587 0.4925 0.2710
C42 C 0.2325(2) 0.4640(7) 0.1131(5)
H29 H 0.2594 0.5212 0.1079
C43 C 0.1941(2) 0.4000(7) 0.0243(4)
C44 C 0.1542(2) 0.3183(7) 0.0324(4)
C45 C 0.1549(2) 0.2981(7) 0.1306(4)
H31 H 0.1280 0.2416 0.1362
O12 O 0.23882(14) 0.3581(4) 0.4065(3)
O13 O 0.16459(15) 0.2322(5) 0.3297(3)
Pr4 Pr 0.27301(2) 0.59698(6) 0.50573(2)
C25 C 0.1644(2) 0.7697(7) 0.3348(4)
C26 C 0.1155(2) 0.7691(7) 0.2352(4)
C27 C 0.0929(2) 0.6321(7) 0.1916(5)
H20 H 0.1083 0.5374 0.2237
C28 C 0.0470(3) 0.6320(7) 0.0996(6)
H21 H 0.0313 0.5364 0.0703
C29 C 0.0236(2) 0.7693(8) 0.0494(5)
C30 C 0.0471(3) 0.9045(8) 0.0982(6)
C31 C 0.0932(3) 0.9036(8) 0.1880(5)
H23 H 0.1095 0.9986 0.2172
O8 O 0.18033(16) 0.8998(5) 0.3747(4)
O9 O 0.18604(14) 0.6447(4) 0.3723(3)
C32 C 0.2156(2) 0.4190(7) 0.6383(4)
C33 C 0.2082(2) 0.4180(6) 0.7362(4)
C34 C 0.1829(2) 0.2938(6) 0.7563(4)
H24 H 0.1703 0.2111 0.7080
C35 C 0.1764(2) 0.2919(6) 0.8472(4)
H25 H 0.1574 0.2106 0.8586
C36 C 0.1974(2) 0.4082(7) 0.9222(4)
C37 C 0.2211(2) 0.5334(7) 0.8998(5)
H26 H 0.2340 0.6162 0.9480
C38 C 0.2261(2) 0.5377(7) 0.8068(4)
H27 H 0.2420 0.6241 0.7919
H30 H 0.1269 0.2767 0.9717
O10 O 0.22593(15) 0.5447(4) 0.6089(3)
O11 O 0.21076(16) 0.2910(5) 0.5923(3)
O14 O 0.3417(12) 0.505(3) 0.455(2)
N2 N 0.3973(5) 0.3034(15) 0.5021(9)
C46 C 0.3510(6) 0.367(2) 0.4517(17)
H32 H 0.3231 0.3011 0.4104
C47 C 0.4380(7) 0.399(2) 0.5624(18)
H33 H 0.4698 0.3394 0.5983
H34 H 0.4299 0.4520 0.6141
H35 H 0.4425 0.4749 0.5163
C48 C 0.4039(7) 0.138(2) 0.4932(17)
H36 H 0.4258 0.0946 0.5621
H37 H 0.4198 0.1190 0.4460
H38 H 0.3699 0.0889 0.4651
O15 O 0.31967(16) 0.3998(5) 0.6253(4)
O17 O 0.28924(16) 0.7910(5) 0.4077(3)
O21 O 0.26118(14) 0.8581(4) 0.5935(3)
O23 O 0.33541(15) 0.7322(5) 0.6703(3)
C1 C 0.3356(2) 0.2697(7) 0.6652(4)
C2 C 0.3845(2) 0.2691(7) 0.7648(4)
C3 C 0.4071(2) 0.1321(7) 0.8084(5)
H1 H 0.3917 0.0374 0.7763
C4 C 0.4530(3) 0.1320(7) 0.9004(6)
H2 H 0.4687 0.0364 0.9297
C5 C 0.4764(2) 0.2693(8) 0.9506(5)
C6 C 0.4529(3) 0.4045(8) 0.9018(6)
H3 H 0.4687 0.5003 0.9305
C7 C 0.4068(3) 0.4036(8) 0.8120(5)
H4 H 0.3905 0.4986 0.7828
C13 C 0.2789(2) 0.0334(7) 0.1002(5)
H7 H 0.2660 0.1162 0.0520
C14 C 0.2739(2) 0.0377(7) 0.1932(4)
H8 H 0.2580 0.1241 0.2081
O2 O 0.31396(14) 0.1447(4) 0.6277(3)
O3 O 0.27407(15) 0.0447(4) 0.3911(3)
O7 O 0.1583(12) 0.005(3) 0.545(2)
H10 H 0.2406 0.0212 0.8921
C8 C 0.2844(2) 0.9190(7) 0.3617(4)
C9 C 0.2918(2) 0.9180(6) 0.2638(4)
C10 C 0.3171(2) 0.7938(6) 0.2437(4)
H5 H 0.3297 0.7111 0.2920
C11 C 0.3236(2) 0.7919(6) 0.1528(4)
H6 H 0.3426 0.7106 0.1414
C12 C 0.3026(2) 0.9082(7) 0.0778(4)
H11 H 0.3731 0.7767 0.0283
N1 N 0.1027(5) 0.8034(15) 0.4979(9)
C22 C 0.1490(6) 0.867(2) 0.5483(17)
H13 H 0.1769 0.8011 0.5896
C23 C 0.0620(7) 0.899(2) 0.4376(18)
H14 H 0.0302 0.8394 0.4017
H15 H 0.0701 0.9520 0.3859
H16 H 0.0575 0.9749 0.4837
C24 C 0.0961(7) 0.638(2) 0.5068(17)
H17 H 0.0742 0.5946 0.4379
H18 H 0.0802 0.6190 0.5540
H19 H 0.1301 0.5889 0.5349
C15 C 0.3020(2) 0.8183(6) 0.6760(4)
C16 C 0.3057(2) 0.8600(6) 0.7803(4)
C17 C 0.2675(2) 0.9458(7) 0.7892(4)
H9 H 0.2413 0.9925 0.7290
C18 C 0.2675(2) 0.9640(7) 0.8869(5)
C19 C 0.3059(2) 0.9000(7) 0.9757(4)
C20 C 0.3458(2) 0.8183(7) 0.9676(4)
C21 C 0.3451(2) 0.7981(7) 0.8694(4)
H12 H 0.3720 0.7416 0.8638
H3_2 H 0.9687 0.0003 0.9305
Pr10 Pr 0.77301(2) 0.09698(6) 0.50573(2)
C1_2 C 0.8356(2) 0.7697(7) 0.6652(4)
C2_2 C 0.8845(2) 0.7691(7) 0.7648(4)
C3_2 C 0.9071(2) 0.6321(7) 0.8084(5)
H1_2 H 0.8917 0.5374 0.7763
C4_2 C 0.9530(3) 0.6320(7) 0.9004(6)
H2_2 H 0.9687 0.5364 0.9297
C5_2 C 0.9764(2) 0.7693(8) 0.9506(5)
C6_2 C 0.9529(3) 0.9045(8) 0.9018(6)
C7_2 C 0.9068(3) 0.9036(8) 0.8120(5)
H4_2 H 0.8905 0.9986 0.7828
C8_2 C 0.7844(2) 0.4190(7) 0.3617(4)
C9_2 C 0.7918(2) 0.4180(6) 0.2638(4)
C10_2 C 0.8171(2) 0.2938(6) 0.2437(4)
H5_2 H 0.8297 0.2111 0.2920
C11_2 C 0.8236(2) 0.2919(6) 0.1528(4)
H6_2 H 0.8426 0.2106 0.1414
C12_2 C 0.8026(2) 0.4082(7) 0.0778(4)
C13_2 C 0.7789(2) 0.5334(7) 0.1002(5)
H7_2 H 0.7660 0.6162 0.0520
C14_2 C 0.7739(2) 0.5377(7) 0.1932(4)
H8_2 H 0.7580 0.6241 0.2081
H11_2 H 0.8731 0.2767 0.0283
O1 O 0.81967(16) 0.8998(5) 0.6253(4)
O2_2 O 0.81396(14) 0.6447(4) 0.6277(3)
O3_2 O 0.77407(15) 0.5447(4) 0.3911(3)
O4 O 0.78924(16) 0.2910(5) 0.4077(3)
Pr1 Pr 0.72699(2) 0.59698(6) 0.49427(2)
O7_2 O 0.6583(12) 0.505(3) 0.545(2)
N1_2 N 0.6027(5) 0.3034(15) 0.4979(9)
C22_2 C 0.6490(6) 0.367(2) 0.5483(17)
H13_2 H 0.6769 0.3011 0.5896
C23_2 C 0.5620(7) 0.399(2) 0.4376(18)
H14_2 H 0.5302 0.3394 0.4017
H15_2 H 0.5701 0.4520 0.3859
H16_2 H 0.5575 0.4749 0.4837
C24_2 C 0.5961(7) 0.138(2) 0.5068(17)
H17_2 H 0.5742 0.0946 0.4379
H18_2 H 0.5802 0.1190 0.5540
H19_2 H 0.6301 0.0889 0.5349
O16 O 0.68033(16) 0.3998(5) 0.3747(4)
O18 O 0.71076(16) 0.7910(5) 0.5923(3)
O19 O 0.76118(14) 0.3581(4) 0.5935(3)
O22 O 0.73882(14) 0.8581(4) 0.4065(3)
O24 O 0.66459(15) 0.7322(5) 0.3297(3)
C15_2 C 0.8020(2) 0.3183(6) 0.6760(4)
C16_2 C 0.8057(2) 0.3600(6) 0.7803(4)
C17_2 C 0.7675(2) 0.4458(7) 0.7892(4)
H9_2 H 0.7413 0.4925 0.7290
C18_2 C 0.7675(2) 0.4640(7) 0.8869(5)
H10_2 H 0.7406 0.5212 0.8921
C19_2 C 0.8059(2) 0.4000(7) 0.9757(4)
C20_2 C 0.8458(2) 0.3183(7) 0.9676(4)
C21_2 C 0.8451(2) 0.2981(7) 0.8694(4)
H12_2 H 0.8720 0.2416 0.8638
O6 O 0.83541(15) 0.2322(5) 0.6703(3)
H29_2 H 0.7594 0.0212 0.1079
C25_2 C 0.6644(2) 0.2697(7) 0.3348(4)
C26_2 C 0.6155(2) 0.2691(7) 0.2352(4)
C27_2 C 0.5929(2) 0.1321(7) 0.1916(5)
H20_2 H 0.6083 0.0374 0.2237
C28_2 C 0.5470(3) 0.1320(7) 0.0996(6)
H21_2 H 0.5313 0.0364 0.0703
C29_2 C 0.5236(2) 0.2693(8) 0.0494(5)
C30_2 C 0.5471(3) 0.4045(8) 0.0982(6)
H22_2 H 0.5313 0.5003 0.0695
C31_2 C 0.5932(3) 0.4036(8) 0.1880(5)
H23_2 H 0.6095 0.4986 0.2172
O9_2 O 0.68604(14) 0.1447(4) 0.3723(3)
C37_2 C 0.7211(2) 0.0334(7) 0.8998(5)
H26_2 H 0.7340 0.1162 0.9480
C38_2 C 0.7261(2) 0.0377(7) 0.8068(4)
H27_2 H 0.7420 0.1241 0.7919
O10_2 O 0.72593(15) 0.0447(4) 0.6089(3)
O14_2 O 0.8417(12) 0.005(3) 0.455(2)
C39_2 C 0.6980(2) 0.8183(6) 0.3240(4)
C40_2 C 0.6943(2) 0.8600(6) 0.2197(4)
C41_2 C 0.7325(2) 0.9458(7) 0.2108(4)
H28_2 H 0.7587 0.9925 0.2710
C42_2 C 0.7325(2) 0.9640(7) 0.1131(5)
C43_2 C 0.6941(2) 0.9000(7) 0.0243(4)
C44_2 C 0.6542(2) 0.8183(7) 0.0324(4)
C45_2 C 0.6549(2) 0.7981(7) 0.1306(4)
H31_2 H 0.6280 0.7416 0.1362
C32_2 C 0.7156(2) 0.9190(7) 0.6383(4)
C33_2 C 0.7082(2) 0.9180(6) 0.7362(4)
C34_2 C 0.6829(2) 0.7938(6) 0.7563(4)
H24_2 H 0.6703 0.7111 0.7080
C35_2 C 0.6764(2) 0.7919(6) 0.8472(4)
H25_2 H 0.6574 0.7106 0.8586
C36_2 C 0.6974(2) 0.9082(7) 0.9222(4)
H30_2 H 0.6269 0.7767 0.9717
N2_2 N 0.8973(5) 0.8034(15) 0.5021(9)
C46_2 C 0.8510(6) 0.867(2) 0.4517(17)
H32_2 H 0.8231 0.8011 0.4104
C47_2 C 0.9380(7) 0.899(2) 0.5624(18)
H33_2 H 0.9698 0.8394 0.5983
H34_2 H 0.9299 0.9520 0.6141
H35_2 H 0.9425 0.9749 0.5163
C48_2 C 0.9039(7) 0.638(2) 0.4932(17)
H36_2 H 0.9258 0.5946 0.5621
H37_2 H 0.9198 0.6190 0.4460
H38_2 H 0.8699 0.5889 0.4651
loop_
_geom_bond_atom_site_label_1
_geom_bond_atom_site_label_2
_geom_bond_site_symmetry_1
_geom_bond_site_symmetry_2
C39 C40 1_555 1_555
C40 C41 1_555 1_555
C41 H28 1_555 1_555
C42 C41 1_555 1_555
H29 C42 1_555 1_555
C44 C43 1_555 1_555
C45 C40 1_555 1_555
H31 C45 1_555 1_555
O12 C39 1_555 1_555
O13 C39 1_555 1_555
Pr4 O12 1_555 1_555
Pr7 O12 1_555 1_555
C42 C43 1_555 1_555
C44 C45 1_555 1_555
O13 Pr7 1_555 1_555
C25 C26 1_555 1_555
C26 C27 1_555 1_555
C27 H20 1_555 1_555
C28 C27 1_555 1_555
H21 C28 1_555 1_555
C30 C29 1_555 1_555
C31 C26 1_555 1_555
H23 C31 1_555 1_555
O8 C25 1_555 1_555
O9 C25 1_555 1_555
C32 C33 1_555 1_555
C33 C34 1_555 1_555
C34 H24 1_555 1_555
C35 C34 1_555 1_555
H25 C35 1_555 1_555
C36 C35 1_555 1_555
C37 C36 1_555 1_555
H26 C37 1_555 1_555
C38 C33 1_555 1_555
H27 C38 1_555 1_555
O10 C32 1_555 1_555
O11 C32 1_555 1_555
Pr4 O9 1_555 1_555
O14 Pr4 1_555 1_555
N2 C46 1_555 1_555
C46 O14 1_555 1_555
H32 C46 1_555 1_555
C47 N2 1_555 1_555
H33 C47 1_555 1_555
H34 C47 1_555 1_555
H35 C47 1_555 1_555
C48 N2 1_555 1_555
H36 C48 1_555 1_555
H37 C48 1_555 1_555
H38 C48 1_555 1_555
O15 Pr4 1_555 1_555
O17 Pr4 1_555 1_555
O21 Pr4 1_555 1_555
O23 Pr4 1_555 1_555
Pr7 O11 1_555 1_555
C28 C29 1_555 1_555
C30 C31 1_555 1_555
C37 C38 1_555 1_555
O10 Pr4 1_555 1_555
C1 C2 1_555 1_555
C2 C3 1_555 1_555
C3 H1 1_555 1_555
C4 C3 1_555 1_555
H2 C4 1_555 1_555
C5 C4 1_555 1_555
C6 C5 1_555 1_555
H3 C6 1_555 1_555
C7 C2 1_555 1_555
H4 C7 1_555 1_555
H7 C13 1_555 1_555
H8 C14 1_555 1_555
O15 C1 1_555 1_555
O2 C1 1_555 1_555
Pr7 O2 1_555 1_555
O7 Pr7 1_555 1_555
C6 C7 1_555 1_555
C13 C14 1_555 1_555
O3 Pr7 1_555 1_555
C8 C9 1_555 1_555
C9 C10 1_555 1_555
C10 H5 1_555 1_555
C11 C10 1_555 1_555
H6 C11 1_555 1_555
C12 C11 1_555 1_555
O17 C8 1_555 1_555
N1 C22 1_555 1_555
H13 C22 1_555 1_555
C23 N1 1_555 1_555
H14 C23 1_555 1_555
H15 C23 1_555 1_555
H16 C23 1_555 1_555
C24 N1 1_555 1_555
H17 C24 1_555 1_555
H18 C24 1_555 1_555
H19 C24 1_555 1_555
C15 C16 1_555 1_555
C16 C17 1_555 1_555
C17 H9 1_555 1_555
C18 C17 1_555 1_555
C20 C19 1_555 1_555
C21 C16 1_555 1_555
H12 C21 1_555 1_555
O21 C15 1_555 1_555
O23 C15 1_555 1_555
C18 C19 1_555 1_555
C20 C21 1_555 1_555
C1_2 C2_2 1_555 1_555
C2_2 C3_2 1_555 1_555
C3_2 H1_2 1_555 1_555
C4_2 C3_2 1_555 1_555
H2_2 C4_2 1_555 1_555
C5_2 C4_2 1_555 1_555
C6_2 C5_2 1_555 1_555
C7_2 C2_2 1_555 1_555
H4_2 C7_2 1_555 1_555
C8_2 C9_2 1_555 1_555
C9_2 C10_2 1_555 1_555
C10_2 H5_2 1_555 1_555
C11_2 C10_2 1_555 1_555
H6_2 C11_2 1_555 1_555
C12_2 C11_2 1_555 1_555
C13_2 C12_2 1_555 1_555
H7_2 C13_2 1_555 1_555
C14_2 C9_2 1_555 1_555
H8_2 C14_2 1_555 1_555
O1 C1_2 1_555 1_555
O2_2 C1_2 1_555 1_555
O3_2 C8_2 1_555 1_555
O4 C8_2 1_555 1_555
Pr1 O2_2 1_555 1_555
O7_2 Pr1 1_555 1_555
N1_2 C22_2 1_555 1_555
C22_2 O7_2 1_555 1_555
H13_2 C22_2 1_555 1_555
C23_2 N1_2 1_555 1_555
H14_2 C23_2 1_555 1_555
H15_2 C23_2 1_555 1_555
H16_2 C23_2 1_555 1_555
C24_2 N1_2 1_555 1_555
H17_2 C24_2 1_555 1_555
H18_2 C24_2 1_555 1_555
H19_2 C24_2 1_555 1_555
O16 Pr1 1_555 1_555
O18 Pr1 1_555 1_555
O19 Pr1 1_555 1_555
O22 Pr1 1_555 1_555
O24 Pr1 1_555 1_555
Pr10 O4 1_555 1_555
C6_2 C7_2 1_555 1_555
C13_2 C14_2 1_555 1_555
O3_2 Pr1 1_555 1_555
O19 Pr10 1_555 1_555
C15_2 C16_2 1_555 1_555
C16_2 C17_2 1_555 1_555
C17_2 H9_2 1_555 1_555
C18_2 C17_2 1_555 1_555
H10_2 C18_2 1_555 1_555
C20_2 C19_2 1_555 1_555
C21_2 C16_2 1_555 1_555
H12_2 C21_2 1_555 1_555
O19 C15_2 1_555 1_555
O6 C15_2 1_555 1_555
C18_2 C19_2 1_555 1_555
C20_2 C21_2 1_555 1_555
O6 Pr10 1_555 1_555
C25_2 C26_2 1_555 1_555
C26_2 C27_2 1_555 1_555
C27_2 H20_2 1_555 1_555
C28_2 C27_2 1_555 1_555
H21_2 C28_2 1_555 1_555
C30_2 C29_2 1_555 1_555
H22_2 C30_2 1_555 1_555
C31_2 C26_2 1_555 1_555
H23_2 C31_2 1_555 1_555
O16 C25_2 1_555 1_555
O9_2 C25_2 1_555 1_555
H26_2 C37_2 1_555 1_555
H27_2 C38_2 1_555 1_555
Pr10 O9_2 1_555 1_555
O14_2 Pr10 1_555 1_555
C28_2 C29_2 1_555 1_555
C30_2 C31_2 1_555 1_555
C37_2 C38_2 1_555 1_555
O10_2 Pr10 1_555 1_555
C39_2 C40_2 1_555 1_555
C40_2 C41_2 1_555 1_555
C41_2 H28_2 1_555 1_555
C42_2 C41_2 1_555 1_555
C44_2 C43_2 1_555 1_555
C45_2 C40_2 1_555 1_555
H31_2 C45_2 1_555 1_555
O22 C39_2 1_555 1_555
O24 C39_2 1_555 1_555
C42_2 C43_2 1_555 1_555
C44_2 C45_2 1_555 1_555
C32_2 C33_2 1_555 1_555
C33_2 C34_2 1_555 1_555
C34_2 H24_2 1_555 1_555
C35_2 C34_2 1_555 1_555
H25_2 C35_2 1_555 1_555
C36_2 C35_2 1_555 1_555
O18 C32_2 1_555 1_555
N2_2 C46_2 1_555 1_555
H32_2 C46_2 1_555 1_555
C47_2 N2_2 1_555 1_555
H33_2 C47_2 1_555 1_555
H34_2 C47_2 1_555 1_555
H35_2 C47_2 1_555 1_555
C48_2 N2_2 1_555 1_555
H36_2 C48_2 1_555 1_555
H37_2 C48_2 1_555 1_555
H38_2 C48_2 1_555 1_555

#END
