
###############################################################################
#
# This file contains modified crystal structure data generated from the
# MOF subset of the Cambridge Structural Database (CSD) v543 
# hosted by the Cambridge Crystallographic Data Centre (CCDC).
#
# This work is licensed under the Creative Commons
# Attribution-NonCommercial-ShareAlike 4.0 International License.
# To view a copy of this license, visit
# http://creativecommons.org/licenses/by-nc-sa/4.0/
# or send a letter to
# Creative Commons, PO Box 1866, Mountain View, CA 94042, USA.
#
# CIF created using the CSD Python API on 29 September 2022
# The structure has been converted into the P1 space group
# The structure has a 3D framework
# The original CSD entry INIQAZ is in the triclinic crystal system
# The framework has been calculated to contain at least 10.0% void space
# The void calculation uses a probe of radius 1.32A, grid spacing 0.4
#
###############################################################################

data_INIQAZ
_chemical_formula_moiety         '(C56 H36 N2 O11 Zn5)n'
_symmetry_cell_setting           triclinic
_symmetry_space_group_name_H-M   'P 1'
_symmetry_Int_Tables_number      1
_space_group_name_Hall           'P 1'
loop_
_symmetry_equiv_pos_site_id
_symmetry_equiv_pos_as_xyz
1 x,y,z
_cell_length_a                   9.405(3)
_cell_length_b                   13.541(3)
_cell_length_c                   14.045(2)
_cell_angle_alpha                116.75(2)
_cell_angle_beta                 90.123(10)
_cell_angle_gamma                106.568(18)
_cell_volume                     1513.04
loop_
_atom_site_label
_atom_site_type_symbol
_atom_site_fract_x
_atom_site_fract_y
_atom_site_fract_z
Zn14 Zn 0.0000 0.0000 0.0000
Zn14_2 Zn 0.0000 0.0000 1.0000
Zn14_3 Zn -0.0000 1.0000 0.0000
H1 H 0.0377 0.1345 0.4172
H7 H 0.0286 0.1944 0.8457
H8 H 0.0838 0.3016 0.7545
H11 H 0.0234 0.6648 0.6908
H12 H 0.0718 0.4884 0.5991
O7 O 0.0999(4) 0.3159(3) 0.5865(3)
H18 H 0.1496 0.3077 0.5344
O23 O 0.0574(3) 0.1908(3) 0.1377(2)
Zn14_4 Zn -0.0000 1.0000 1.0000
O15 O 0.2139(3) 0.0441(2) 0.9281(2)
O21 O 0.1234(4) 0.9451(3) 0.0946(3)
Zn14_5 Zn 1.0000 0.0000 0.0000
Zn14_6 Zn 1.0000 0.0000 1.0000
Zn14_7 Zn 1.0000 1.0000 0.0000
C1 C 0.9400(5) 0.2828(4) 0.5799(4)
C2 C 0.8771(5) 0.2118(4) 0.4619(4)
C3 C 0.9504(5) 0.1396(4) 0.3914(4)
C4 C 0.8924(5) 0.0743(4) 0.2811(3)
H2 H 0.9403 0.0248 0.2340
C5 C 0.7634(5) 0.0836(4) 0.2422(3)
C6 C 0.6906(5) 0.1554(4) 0.3138(4)
H3 H 0.6027 0.1604 0.2888
C7 C 0.7481(5) 0.2186(4) 0.4211(3)
H4 H 0.6993 0.2675 0.4679
C8 C 0.7034(5) 0.0159(4) 0.1255(4)
C9 C 0.8942(5) 0.2146(4) 0.6460(4)
C10 C 0.7614(5) 0.1242(4) 0.6147(4)
H5 H 0.6955 0.1054 0.5551
C11 C 0.7246(5) 0.0606(4) 0.6712(4)
H6 H 0.6329 0.0015 0.6509
C12 C 0.8248(5) 0.0853(4) 0.7580(4)
C13 C 0.9603(5) 0.1767(4) 0.7878(4)
C14 C 0.9939(5) 0.2407(4) 0.7331(4)
C15 C 0.7890(5) 0.0240(4) 0.8244(4)
C16 C 0.9061(5) 0.3976(4) 0.6500(4)
C17 C 0.7892(5) 0.4080(4) 0.7083(4)
H9 H 0.7291 0.3436 0.7137
C18 C 0.7599(5) 0.5106(3) 0.7580(3)
H10 H 0.6789 0.5152 0.7958
C19 C 0.8491(5) 0.6085(4) 0.7532(4)
C20 C 0.9637(5) 0.5994(4) 0.6948(4)
C21 C 0.9946(5) 0.4941(4) 0.6405(3)
C22 C 0.8239(5) 0.7228(4) 0.8225(4)
O2 O 0.5865(3) 0.0259(2) 0.0960(2)
O4 O 0.8766(4) 0.0549(3) 0.9054(3)
O5 O 0.9426(3) 0.8092(3) 0.8623(2)
O6 O 0.6920(3) 0.7277(2) 0.8353(2)
Zn6 Zn 0.59862(4) 0.88086(3) 0.91558(3)
Zn9 Zn 0.40138(4) 0.11914(3) 0.08442(3)
Zn14_8 Zn 1.0000 1.0000 1.0000
C26 C 0.3391(5) 0.6057(4) 0.0004(4)
H15 H 0.3671 0.5638 0.0301
H17 H 0.1023 0.4493 0.0135
O1 O 0.7861(3) 0.9559(2) 0.0719(2)
O3 O 0.6666(3) 0.9424(3) 0.7965(3)
C23 C 0.2571(5) 0.7301(4) 0.9145(4)
H13 H 0.2297 0.7737 0.8866
C24 C 0.1462(5) 0.6528(4) 0.9344(4)
H14 H 0.0456 0.6435 0.9191
C25 C 0.1877(5) 0.5895(4) 0.9775(4)
C27 C 0.4470(5) 0.6824(4) 0.9797(4)
H16 H 0.5478 0.6929 0.9960
C28 C 0.0724(4) 0.5020(4) 0.9997(4)
N1 N 0.4064(4) 0.7447(3) 0.9346(3)
O17 O 0.4135(3) 0.9741(2) 0.9040(2)
C29 C 0.7429(5) 0.2699(4) 0.0855(4)
H19 H 0.7703 0.2263 0.1134
C30 C 0.8538(5) 0.3472(4) 0.0656(4)
H20 H 0.9544 0.3565 0.0809
C31 C 0.8123(5) 0.4105(4) 0.0225(4)
C33 C 0.5530(5) 0.3176(4) 0.0203(4)
H22 H 0.4522 0.3071 0.0040
C34 C 0.9276(4) 0.4980(4) 0.0003(4)
N2 N 0.5936(4) 0.2553(3) 0.0654(3)
O19 O 0.3334(3) 0.0576(3) 0.2035(3)
O25 O 0.3080(3) 0.2723(2) 0.1647(2)
C32 C 0.6609(5) 0.3943(4) 0.9996(4)
H21 H 0.6329 0.4362 0.9699
H23 H 0.8977 0.5507 0.9865
C35 C 0.0600(5) 0.7172(4) 0.4201(4)
C36 C 0.1229(5) 0.7882(4) 0.5381(4)
C37 C 0.0496(5) 0.8604(4) 0.6086(4)
C38 C 0.1076(5) 0.9257(4) 0.7189(3)
H25 H 0.0597 0.9752 0.7660
C39 C 0.2366(5) 0.9164(4) 0.7578(3)
C40 C 0.3094(5) 0.8446(4) 0.6862(4)
H26 H 0.3973 0.8396 0.7112
C41 C 0.2519(5) 0.7814(4) 0.5789(3)
H27 H 0.3007 0.7325 0.5321
C42 C 0.2966(5) 0.9841(4) 0.8745(4)
C43 C 0.1058(5) 0.7854(4) 0.3540(4)
C44 C 0.2386(5) 0.8758(4) 0.3853(4)
H28 H 0.3045 0.8946 0.4449
C45 C 0.2754(5) 0.9394(4) 0.3288(4)
H29 H 0.3671 0.9985 0.3491
C46 C 0.1752(5) 0.9147(4) 0.2420(4)
C47 C 0.0397(5) 0.8233(4) 0.2122(4)
C48 C 0.0061(5) 0.7593(4) 0.2669(4)
C49 C 0.2110(5) 0.9760(4) 0.1756(4)
C50 C 0.0939(5) 0.6024(4) 0.3500(4)
C51 C 0.2108(5) 0.5920(4) 0.2917(4)
H32 H 0.2709 0.6564 0.2863
C52 C 0.2401(5) 0.4894(3) 0.2420(3)
H33 H 0.3211 0.4848 0.2042
C53 C 0.1509(5) 0.3915(4) 0.2468(4)
C54 C 0.0363(5) 0.4006(4) 0.3052(4)
C55 C 0.0054(5) 0.5059(4) 0.3595(3)
C56 C 0.1761(5) 0.2772(4) 0.1775(4)
H24 H 0.9623 0.8655 0.5828
H30 H 0.9714 0.8056 0.1543
H31 H 0.9162 0.6984 0.2455
H34 H 0.9766 0.3352 0.3092
H35 H 0.9282 0.5116 0.4009
O14 O 0.9001(4) 0.6841(3) 0.4135(3)
H36 H 0.8504 0.6923 0.4656
loop_
_geom_bond_atom_site_label_1
_geom_bond_atom_site_label_2
_geom_bond_site_symmetry_1
_geom_bond_site_symmetry_2
H18 O7 1_555 1_555
O23 Zn14 1_555 1_555
O15 Zn14_2 1_555 1_555
O21 Zn14_3 1_555 1_555
C1 C2 1_555 1_555
C2 C3 1_555 1_555
C4 C3 1_555 1_555
H2 C4 1_555 1_555
C5 C4 1_555 1_555
C6 C5 1_555 1_555
H3 C6 1_555 1_555
C7 C2 1_555 1_555
H4 C7 1_555 1_555
C8 C5 1_555 1_555
C9 C1 1_555 1_555
C10 C9 1_555 1_555
H5 C10 1_555 1_555
C11 C10 1_555 1_555
H6 C11 1_555 1_555
C12 C11 1_555 1_555
C13 C12 1_555 1_555
C14 C9 1_555 1_555
C15 C12 1_555 1_555
C16 C1 1_555 1_555
C17 C16 1_555 1_555
H9 C17 1_555 1_555
C18 C17 1_555 1_555
H10 C18 1_555 1_555
C19 C18 1_555 1_555
C20 C19 1_555 1_555
C21 C16 1_555 1_555
C22 C19 1_555 1_555
O2 C8 1_555 1_555
O4 C15 1_555 1_555
O5 C22 1_555 1_555
O6 C22 1_555 1_555
Zn6 O6 1_555 1_555
Zn9 O2 1_555 1_555
Zn14_6 O4 1_555 1_555
Zn14_8 O5 1_555 1_555
C6 C7 1_555 1_555
C13 C14 1_555 1_555
C20 C21 1_555 1_555
H15 C26 1_555 1_555
Zn14_7 O1 1_555 1_555
Zn6 O3 1_555 1_555
C23 H13 1_555 1_555
C24 C23 1_555 1_555
H14 C24 1_555 1_555
C25 C24 1_555 1_555
H16 C27 1_555 1_555
C28 C25 1_555 1_555
N1 C23 1_555 1_555
Zn6 N1 1_555 1_555
O17 Zn6 1_555 1_555
C27 N1 1_555 1_555
C29 H19 1_555 1_555
C30 C29 1_555 1_555
H20 C30 1_555 1_555
C31 C30 1_555 1_555
H22 C33 1_555 1_555
N2 C29 1_555 1_555
Zn9 N2 1_555 1_555
O19 Zn9 1_555 1_555
O25 Zn9 1_555 1_555
C31 C34 1_555 1_555
C33 N2 1_555 1_555
H21 C32 1_555 1_555
C35 C36 1_555 1_555
C36 C37 1_555 1_555
C38 C37 1_555 1_555
H25 C38 1_555 1_555
C39 C38 1_555 1_555
C40 C39 1_555 1_555
H26 C40 1_555 1_555
C41 C36 1_555 1_555
H27 C41 1_555 1_555
C42 C39 1_555 1_555
C43 C35 1_555 1_555
C44 C43 1_555 1_555
H28 C44 1_555 1_555
C45 C44 1_555 1_555
H29 C45 1_555 1_555
C46 C45 1_555 1_555
C47 C46 1_555 1_555
C48 C43 1_555 1_555
C49 C46 1_555 1_555
C50 C35 1_555 1_555
C51 C50 1_555 1_555
H32 C51 1_555 1_555
C52 C51 1_555 1_555
H33 C52 1_555 1_555
C53 C52 1_555 1_555
C54 C53 1_555 1_555
C55 C50 1_555 1_555
C56 C53 1_555 1_555
O17 C42 1_555 1_555
O21 C49 1_555 1_555
O23 C56 1_555 1_555
O25 C56 1_555 1_555
C40 C41 1_555 1_555
C47 C48 1_555 1_555
C54 C55 1_555 1_555
H36 O14 1_555 1_555

#END
