
###############################################################################
#
# This file contains modified crystal structure data generated from the
# MOF subset of the Cambridge Structural Database (CSD) v543 
# hosted by the Cambridge Crystallographic Data Centre (CCDC).
#
# This work is licensed under the Creative Commons
# Attribution-NonCommercial-ShareAlike 4.0 International License.
# To view a copy of this license, visit
# http://creativecommons.org/licenses/by-nc-sa/4.0/
# or send a letter to
# Creative Commons, PO Box 1866, Mountain View, CA 94042, USA.
#
# CIF created using the CSD Python API on 29 September 2022
# The structure has been converted into the P1 space group
# The structure has a 3D framework
# The original CSD entry INODEX is in the orthorhombic crystal system
# The framework has been calculated to contain at least 10.0% void space
# The void calculation uses a probe of radius 1.32A, grid spacing 0.4
# H atom positions have been added when not included in the experimental data
#
###############################################################################

data_INODEX
_chemical_formula_moiety         '(C32 H12 Ga4 N4 O26)n'
_symmetry_cell_setting           triclinic
_symmetry_space_group_name_H-M   'P 1'
_symmetry_Int_Tables_number      1
_space_group_name_Hall           'P 1'
loop_
_symmetry_equiv_pos_site_id
_symmetry_equiv_pos_as_xyz
1 x,y,z
_cell_length_a                   14.6255(5)
_cell_length_b                   6.7674(2)
_cell_length_c                   10.5282(5)
_cell_angle_alpha                90
_cell_angle_beta                 90
_cell_angle_gamma                90
_cell_volume                     1042.05
loop_
_atom_site_label
_atom_site_type_symbol
_atom_site_fract_x
_atom_site_fract_y
_atom_site_fract_z
_atom_site_U_iso_or_equiv
_atom_site_thermal_displace_type
Ga5 Ga 0.0 0.000 0.500 0.0451 Uiso
Ga4 Ga -0.0 0.500 0.500 0.0451 Uiso
Ga5_2 Ga 0.0 1.000 0.500 0.0451 Uiso
H3 H 0.0376055 0.75 0.0382191 . .
Ga3 Ga 0.5 0.000 0.000 0.0451 Uiso
Ga5_3 Ga 1.0 0.000 0.500 0.0451 Uiso
Ga3_2 Ga 0.5 0.000 1.000 0.0451 Uiso
O1 O 0.7434(8) 0.9061(12) 0.3034(13) 0.0451 Uiso
C2 C 0.7719(6) 0.750 0.0242(6) 0.0451 Uiso
C3 C 0.8165(5) 0.750 0.1418(7) 0.0451 Uiso
C4 C 0.9122(5) 0.750 0.1469(7) 0.0451 Uiso
C5 C 0.9632(6) 0.750 0.0343(6) 0.0451 Uiso
C7 C 0.6698(9) 0.750 0.0188(8) 0.0451 Uiso
O2 O 0.6263(9) 0.5870(8) 0.0165(9) 0.0451 Uiso
C8 C 0.9599(7) 0.750 0.2723(11) 0.0451 Uiso
O3 O 0.9802(8) 0.5870(8) 0.3258(12) 0.0451 Uiso
N1 N 0.7656(8) 0.750 0.2544(13) 0.0451 Uiso
Ga1 Ga 0.5 0.500 0.000 0.0451 Uiso
O4 O 0.5583(10) 0.250 0.0664(15) 0.0451 Uiso
O5 O 0.7434(8) 0.5939(12) 0.3034(13) 0.0451 Uiso
O6 O 0.6263(9) 0.9130(8) 0.0165(9) 0.0451 Uiso
O7 O 0.9802(8) 0.9130(8) 0.3258(12) 0.0451 Uiso
O10 O 0.4802(8) 0.5870(8) 0.1742(12) 0.0451 Uiso
Ga3_3 Ga 0.5 1.000 0.000 0.0451 Uiso
Ga4_2 Ga 1.0 0.500 0.500 0.0451 Uiso
Ga5_4 Ga 1.0 1.000 0.500 0.0451 Uiso
C1 C 0.8228(5) 0.750 0.9117(7) 0.0451 Uiso
C6 C 0.9185(5) 0.750 0.9167(7) 0.0451 Uiso
Ga1_2 Ga 0.5 0.500 1.000 0.0451 Uiso
O8 O 0.3737(9) 0.4130(8) 0.9835(9) 0.0451 Uiso
O9 O 0.5198(8) 0.4130(8) 0.8258(12) 0.0451 Uiso
Ga3_4 Ga 0.5 1.000 1.000 0.0451 Uiso
O11 O 0.4417(10) 0.750 0.9336(15) 0.0451 Uiso
H1 H 0.788018 0.75 0.820242 . .
H2 H 0.958133 0.75 0.829134 . .
C1_2 C 0.1772(5) 0.250 0.0883(7) 0.0451 Uiso
C6_2 C 0.0815(5) 0.250 0.0833(7) 0.0451 Uiso
H1_2 H 0.211982 0.25 0.179758 . .
H2_2 H 0.0418674 0.25 0.170866 . .
O1_2 O 0.2566(8) 0.4061(12) 0.6966(13) 0.0451 Uiso
C2_2 C 0.2281(6) 0.250 0.9758(6) 0.0451 Uiso
C3_2 C 0.1835(5) 0.250 0.8582(7) 0.0451 Uiso
C4_2 C 0.0878(5) 0.250 0.8531(7) 0.0451 Uiso
C5_2 C 0.0368(6) 0.250 0.9657(6) 0.0451 Uiso
C7_2 C 0.3302(9) 0.250 0.9812(8) 0.0451 Uiso
O2_2 O 0.3737(9) 0.0870(8) 0.9835(9) 0.0451 Uiso
C8_2 C 0.0401(7) 0.250 0.7277(11) 0.0451 Uiso
O3_2 O 0.0198(8) 0.0870(8) 0.6742(12) 0.0451 Uiso
N1_2 N 0.2344(8) 0.250 0.7456(13) 0.0451 Uiso
O5_2 O 0.2566(8) 0.0939(12) 0.6966(13) 0.0451 Uiso
O7_2 O 0.0198(8) 0.4130(8) 0.6742(12) 0.0451 Uiso
O10_2 O 0.5198(8) 0.0870(8) 0.8258(12) 0.0451 Uiso
O9_2 O 0.4802(8) 0.9130(8) 0.1742(12) 0.0451 Uiso
H3_2 H 0.962394 0.25 0.961781 . .
O8_2 O 0.1263(9) 0.5870(8) 0.4835(9) 0.0451 Uiso
O11_2 O 0.0583(10) 0.250 0.4336(15) 0.0451 Uiso
O1_3 O 0.7566(8) 0.0939(12) 0.8034(13) 0.0451 Uiso
C1_3 C 0.6772(5) 0.250 0.4117(7) 0.0451 Uiso
C2_3 C 0.7281(6) 0.250 0.5242(6) 0.0451 Uiso
C3_3 C 0.6835(5) 0.250 0.6418(7) 0.0451 Uiso
C4_3 C 0.5878(5) 0.250 0.6469(7) 0.0451 Uiso
C5_3 C 0.5368(6) 0.250 0.5343(6) 0.0451 Uiso
C6_3 C 0.5815(5) 0.250 0.4167(7) 0.0451 Uiso
C7_3 C 0.8302(9) 0.250 0.5188(8) 0.0451 Uiso
O2_3 O 0.8737(9) 0.4130(8) 0.5165(9) 0.0451 Uiso
C8_3 C 0.5401(7) 0.250 0.7723(11) 0.0451 Uiso
N1_3 N 0.7344(8) 0.250 0.7544(13) 0.0451 Uiso
O4_2 O 0.9417(10) 0.750 0.5664(15) 0.0451 Uiso
O5_3 O 0.7566(8) 0.4061(12) 0.8034(13) 0.0451 Uiso
O6_2 O 0.8737(9) 0.0870(8) 0.5165(9) 0.0451 Uiso
H1_3 H 0.711982 0.25 0.320242 . .
H2_3 H 0.541867 0.25 0.329134 . .
H3_3 H 0.462394 0.25 0.538219 . .
O1_4 O 0.2434(8) 0.5939(12) 0.1966(13) 0.0451 Uiso
C1_4 C 0.3228(5) 0.750 0.5883(7) 0.0451 Uiso
C2_4 C 0.2719(6) 0.750 0.4758(6) 0.0451 Uiso
C3_4 C 0.3165(5) 0.750 0.3582(7) 0.0451 Uiso
C4_4 C 0.4122(5) 0.750 0.3531(7) 0.0451 Uiso
C5_4 C 0.4632(6) 0.750 0.4657(6) 0.0451 Uiso
C6_4 C 0.4185(5) 0.750 0.5833(7) 0.0451 Uiso
C7_4 C 0.1698(9) 0.750 0.4812(8) 0.0451 Uiso
O2_4 O 0.1263(9) 0.9130(8) 0.4835(9) 0.0451 Uiso
C8_4 C 0.4599(7) 0.750 0.2277(11) 0.0451 Uiso
N1_4 N 0.2656(8) 0.750 0.2456(13) 0.0451 Uiso
O5_4 O 0.2434(8) 0.9061(12) 0.1966(13) 0.0451 Uiso
H1_4 H 0.288018 0.75 0.679758 . .
H2_4 H 0.458133 0.75 0.670866 . .
H3_4 H 0.537606 0.75 0.461781 . .
loop_
_geom_bond_atom_site_label_1
_geom_bond_atom_site_label_2
_geom_bond_site_symmetry_1
_geom_bond_site_symmetry_2
O1 N1 1_555 1_555
C2 C3 1_555 1_555
C3 C4 1_555 1_555
C4 C5 1_555 1_555
C7 C2 1_555 1_555
O2 C7 1_555 1_555
C8 C4 1_555 1_555
O3 C8 1_555 1_555
N1 C3 1_555 1_555
Ga1 O2 1_555 1_555
O4 Ga1 1_555 1_555
O5 N1 1_555 1_555
O6 C7 1_555 1_555
O7 C8 1_555 1_555
O10 Ga1 1_555 1_555
Ga3 O4 1_555 1_555
Ga3_3 O6 1_555 1_555
Ga4_2 O3 1_555 1_555
Ga5_4 O7 1_555 1_555
C6 C1 1_555 1_555
O8 Ga1_2 1_555 1_555
O9 Ga1_2 1_555 1_555
O11 Ga1_2 1_555 1_555
Ga3_4 O11 1_555 1_555
C1 H1 1_555 1_555
C6 H2 1_555 1_555
C6_2 C1_2 1_555 1_555
C1_2 H1_2 1_555 1_555
C6_2 H2_2 1_555 1_555
O1_2 N1_2 1_555 1_555
C2_2 C3_2 1_555 1_555
C3_2 C4_2 1_555 1_555
C4_2 C5_2 1_555 1_555
C7_2 C2_2 1_555 1_555
O2_2 C7_2 1_555 1_555
C8_2 C4_2 1_555 1_555
O3_2 C8_2 1_555 1_555
N1_2 C3_2 1_555 1_555
Ga3_2 O2_2 1_555 1_555
O5_2 N1_2 1_555 1_555
O8 C7_2 1_555 1_555
O7_2 C8_2 1_555 1_555
O10_2 Ga3_2 1_555 1_555
Ga5 O3_2 1_555 1_555
Ga4 O7_2 1_555 1_555
O9_2 Ga3_3 1_555 1_555
O8_2 Ga4 1_555 1_555
O11_2 Ga4 1_555 1_555
Ga5 O11_2 1_555 1_555
O1_3 N1_3 1_555 1_555
C1_3 C2_3 1_555 1_555
C2_3 C3_3 1_555 1_555
C3_3 C4_3 1_555 1_555
C4_3 C5_3 1_555 1_555
C5_3 C6_3 1_555 1_555
C6_3 C1_3 1_555 1_555
C7_3 C2_3 1_555 1_555
O2_3 C7_3 1_555 1_555
C8_3 C4_3 1_555 1_555
O9 C8_3 1_555 1_555
N1_3 C3_3 1_555 1_555
Ga4_2 O2_3 1_555 1_555
O4_2 Ga4_2 1_555 1_555
O5_3 N1_3 1_555 1_555
O6_2 C7_3 1_555 1_555
O10_2 C8_3 1_555 1_555
Ga5_4 O4_2 1_555 1_555
Ga5_3 O6_2 1_555 1_555
C1_3 H1_3 1_555 1_555
C6_3 H2_3 1_555 1_555
C5_3 H3_3 1_555 1_555
O1_4 N1_4 1_555 1_555
C1_4 C2_4 1_555 1_555
C2_4 C3_4 1_555 1_555
C3_4 C4_4 1_555 1_555
C4_4 C5_4 1_555 1_555
C5_4 C6_4 1_555 1_555
C6_4 C1_4 1_555 1_555
C7_4 C2_4 1_555 1_555
O2_4 C7_4 1_555 1_555
C8_4 C4_4 1_555 1_555
O9_2 C8_4 1_555 1_555
N1_4 C3_4 1_555 1_555
Ga5_2 O2_4 1_555 1_555
O5_4 N1_4 1_555 1_555
O8_2 C7_4 1_555 1_555
O10 C8_4 1_555 1_555
C1_4 H1_4 1_555 1_555
C6_4 H2_4 1_555 1_555
C5_4 H3_4 1_555 1_555

#END
