
###############################################################################
#
# This file contains modified crystal structure data generated from the
# MOF subset of the Cambridge Structural Database (CSD) v543 
# hosted by the Cambridge Crystallographic Data Centre (CCDC).
#
# This work is licensed under the Creative Commons
# Attribution-NonCommercial-ShareAlike 4.0 International License.
# To view a copy of this license, visit
# http://creativecommons.org/licenses/by-nc-sa/4.0/
# or send a letter to
# Creative Commons, PO Box 1866, Mountain View, CA 94042, USA.
#
# CIF created using the CSD Python API on 29 September 2022
# The structure has been converted into the P1 space group
# The structure has a 3D framework
# The original CSD entry IPANAR is in the monoclinic crystal system
# The framework has been calculated to contain at least 10.0% void space
# The void calculation uses a probe of radius 1.32A, grid spacing 0.4
#
###############################################################################

data_IPANAR
_chemical_formula_moiety         '(C84 H60 Co3 N8 O18)n'
_symmetry_cell_setting           triclinic
_symmetry_space_group_name_H-M   'P 1'
_symmetry_Int_Tables_number      1
_space_group_name_Hall           'P 1'
loop_
_symmetry_equiv_pos_site_id
_symmetry_equiv_pos_as_xyz
1 x,y,z
_cell_length_a                   10.494(18)
_cell_length_b                   10.310(18)
_cell_length_c                   22.35(4)
_cell_angle_alpha                90
_cell_angle_beta                 92.853(18)
_cell_angle_gamma                90
_cell_volume                     2415.12
loop_
_atom_site_label
_atom_site_type_symbol
_atom_site_fract_x
_atom_site_fract_y
_atom_site_fract_z
H16 H 0.0669 0.1637 0.9303
C24 C 0.8504(5) 0.9437(5) 0.9252(3)
H18 H 0.8351 0.8591 0.9124
C27 C 0.6308(4) 0.9578(4) 0.96369(19)
C28 C 0.5929(6) 0.8290(6) 0.9356(3)
H20 H 0.5076 0.8074 0.9458
H21 H 0.5963 0.8351 0.8928
H22 H 0.6506 0.7627 0.9503
C29 C 0.2264(3) 0.4500(4) 0.95771(15)
C30 C 0.3386(3) 0.3915(4) 0.92878(15)
C31 C 0.4530(3) 0.4578(4) 0.92754(16)
H23 H 0.4608 0.5393 0.9452
C32 C 0.5558(4) 0.4037(5) 0.90034(17)
H24 H 0.6332 0.4476 0.9003
C33 C 0.5426(3) 0.2851(5) 0.87343(16)
C34 C 0.4320(4) 0.2155(5) 0.8747(2)
H25 H 0.4260 0.1336 0.8573
C35 C 0.3289(4) 0.2685(4) 0.9024(2)
H26 H 0.2530 0.2223 0.9034
C36 C 0.6276(3) 0.1972(5) 0.78681(16)
C37 C 0.6945(4) 0.0909(6) 0.76676(18)
H27 H 0.7508 0.0463 0.7928
C38 C 0.6767(4) 0.0521(5) 0.70791(17)
C39 C 0.5941(3) 0.1189(4) 0.66895(16)
C40 C 0.5303(4) 0.2267(4) 0.69004(16)
H29 H 0.4757 0.2731 0.6639
C41 C 0.5462(4) 0.2656(4) 0.74831(17)
H30 H 0.5025 0.3375 0.7618
C42 C 0.5695(3) 0.0758(4) 0.60586(15)
O6 O 0.1271(2) 0.3824(3) 0.96070(13)
O7 O 0.2366(3) 0.5639(3) 0.97785(12)
O8 O 0.6477(3) 0.2318(4) 0.84578(12)
O9 O 0.5048(3) 0.1515(3) 0.57179(11)
Co4 Co 0.43148(4) 0.11528(4) 0.488888(18)
H6 H 0.2793 0.0195 0.3057
H10 H 0.9715 0.0447 0.1019
O5 O 0.3877(2) 0.0336(3) 0.40891(11)
C1 C 0.7264(3) 0.0500(4) 0.45771(15)
C2 C 0.8386(3) 0.1085(4) 0.42878(15)
C3 C 0.9530(3) 0.0422(4) 0.42754(16)
C6 C 0.9320(4) 0.2845(5) 0.3747(2)
H3 H 0.9260 0.3664 0.3573
C7 C 0.8289(4) 0.2315(4) 0.4024(2)
H4 H 0.7530 0.2777 0.4034
H7 H 0.9757 0.2269 0.1639
C15 C 0.4877(5) 0.3736(5) 0.4358(3)
H9 H 0.5669 0.3363 0.4303
C16 C 0.4652(5) 0.4990(6) 0.4168(4)
H10_2 H 0.5285 0.5447 0.3981
C17 C 0.3504(5) 0.5563(5) 0.4252(3)
H11 H 0.3351 0.6409 0.4124
C18 C 0.2571(4) 0.4879(4) 0.45295(18)
C19 C 0.2863(3) 0.3612(3) 0.47050(16)
H12 H 0.2243 0.3136 0.4892
C20 C 0.1308(4) 0.5422(4) 0.46369(19)
C21 C 0.0929(6) 0.6710(6) 0.4356(3)
H13 H 0.0076 0.6926 0.4458
H14 H 0.0963 0.6649 0.3928
H15 H 0.1506 0.7373 0.4503
N1 N 0.3982(3) 0.3041(3) 0.46206(14)
N2 N 0.0609(3) 0.4736(4) 0.4963(2)
O1 O 0.6271(2) 0.1176(3) 0.46070(13)
H23_2 H 0.0392 0.0393 0.5548
O7_2 O 0.2634(3) 0.0639(3) 0.52215(12)
H17 H 0.0285 0.9553 0.8981
C17_2 C 0.1496(5) 0.0563(5) 0.0748(3)
H11_2 H 0.1649 0.1409 0.0876
C20_2 C 0.3692(4) 0.0422(4) 0.03631(19)
C21_2 C 0.4071(6) 0.1710(6) 0.0644(3)
H13_2 H 0.4924 0.1926 0.0542
H14_2 H 0.4037 0.1649 0.1072
H15_2 H 0.3494 0.2373 0.0497
H28 H 0.7207 0.9805 0.6943
O10 O 0.6123(2) 0.9664(3) 0.59109(11)
Co7 Co 0.56852(4) 0.88472(4) 0.511112(18)
C1_2 C 0.7736(3) 0.5500(4) 0.04229(15)
C2_2 C 0.6614(3) 0.6085(4) 0.07122(15)
C3_2 C 0.5470(3) 0.5422(4) 0.07246(16)
H1 H 0.5392 0.4607 0.0548
C4 C 0.4442(4) 0.5963(5) 0.09966(17)
H2 H 0.3668 0.5524 0.0997
C5 C 0.4574(3) 0.7149(5) 0.12657(16)
C6_2 C 0.5680(4) 0.7845(5) 0.1253(2)
H3_2 H 0.5740 0.8664 0.1427
C7_2 C 0.6711(4) 0.7315(4) 0.0976(2)
H4_2 H 0.7470 0.7777 0.0966
C8 C 0.3724(3) 0.8028(5) 0.21319(16)
C9 C 0.3055(4) 0.9091(6) 0.23324(18)
H5 H 0.2492 0.9537 0.2072
C10 C 0.3233(4) 0.9479(5) 0.29209(17)
C11 C 0.4059(3) 0.8811(4) 0.33105(16)
C12 C 0.4697(4) 0.7733(4) 0.30996(16)
H7_2 H 0.5243 0.7269 0.3361
C13 C 0.4538(4) 0.7344(4) 0.25169(17)
H8 H 0.4975 0.6625 0.2382
C14 C 0.4305(3) 0.9242(4) 0.39414(15)
H9_2 H 0.9331 0.8363 0.0697
O1_2 O 0.8729(2) 0.6176(3) 0.03930(13)
O2 O 0.7634(3) 0.4361(3) 0.02215(12)
O3 O 0.3523(3) 0.7682(4) 0.15422(12)
O4 O 0.4952(3) 0.8485(3) 0.42821(11)
H1_2 H 0.9608 0.9607 0.4452
O2_2 O 0.7366(3) 0.9361(3) 0.47785(12)
C29_2 C 0.2736(3) 0.9500(4) 0.54229(15)
C30_2 C 0.1614(3) 0.8915(4) 0.57122(15)
C31_2 C 0.0470(3) 0.9578(4) 0.57246(16)
C34_2 C 0.0680(4) 0.7155(5) 0.6253(2)
H25_2 H 0.0740 0.6336 0.6427
C35_2 C 0.1711(4) 0.7685(4) 0.5976(2)
H26_2 H 0.2470 0.7223 0.5966
H29_2 H 0.0243 0.7731 0.8361
O6_2 O 0.3729(2) 0.8824(3) 0.53930(13)
N5 N 0.6018(3) 0.6959(3) 0.53794(14)
C22 C 0.5123(5) 0.6264(5) 0.5642(3)
H16_2 H 0.4331 0.6637 0.5697
C23 C 0.5348(5) 0.5010(6) 0.5832(4)
H17_2 H 0.4715 0.4553 0.6019
C24_2 C 0.6496(5) 0.4437(5) 0.5748(3)
H18_2 H 0.6649 0.3591 0.5876
C25 C 0.7429(4) 0.5121(4) 0.54705(18)
C26 C 0.7137(3) 0.6388(3) 0.52950(16)
H19 H 0.7757 0.6864 0.5108
C27_2 C 0.8692(4) 0.4578(4) 0.53631(19)
C28_2 C 0.9071(6) 0.3290(6) 0.5644(3)
H20_2 H 0.9924 0.3074 0.5542
H21_2 H 0.9037 0.3351 0.6072
H22_2 H 0.8494 0.2627 0.5497
N4 N 0.9391(3) 0.5264(4) 0.5037(2)
C22_2 C 0.9877(5) 0.1264(5) 0.9358(3)
C23_2 C 0.9652(5) 0.0010(6) 0.9168(4)
C25_2 C 0.7571(4) 0.0121(4) 0.95295(18)
C26_2 C 0.7863(3) 0.1388(3) 0.97050(16)
H19_2 H 0.7243 0.1864 0.9892
N3 N 0.8982(3) 0.1959(3) 0.96206(14)
N4_2 N 0.5609(3) 0.0264(4) 0.9963(2)
Co5 Co 0.93148(4) 0.38472(4) 0.988888(18)
O12 O 0.9952(3) 0.6515(3) 0.92821(11)
O14 O 0.8877(2) 0.4664(3) 0.90891(11)
C32_2 C 0.9442(4) 0.9037(5) 0.59966(17)
H24_2 H 0.8668 0.9476 0.5997
C33_2 C 0.9574(3) 0.7851(5) 0.62657(16)
C36_2 C 0.8724(3) 0.6972(5) 0.71319(16)
C37_2 C 0.8055(4) 0.5909(6) 0.73324(18)
H27_2 H 0.7492 0.5463 0.7072
C38_2 C 0.8233(4) 0.5521(5) 0.79209(17)
H28_2 H 0.7793 0.4805 0.8057
C39_2 C 0.9059(3) 0.6189(4) 0.83105(16)
C40_2 C 0.9697(4) 0.7267(4) 0.80996(16)
C41_2 C 0.9538(4) 0.7656(4) 0.75169(17)
H30_2 H 0.9975 0.8375 0.7382
C42_2 C 0.9305(3) 0.5758(4) 0.89414(15)
O8_2 O 0.8523(3) 0.7318(4) 0.65422(12)
Co1 Co 0.06852(4) 0.61528(4) 0.011112(18)
C15_2 C 0.0123(5) 0.8736(5) 0.0642(3)
C16_2 C 0.0348(5) 0.9990(6) 0.0832(4)
C18_2 C 0.2429(4) 0.9879(4) 0.04705(18)
C19_2 C 0.2137(3) 0.8612(3) 0.02950(16)
H12_2 H 0.2757 0.8136 0.0108
N1_2 N 0.1018(3) 0.8041(3) 0.03794(14)
N2_2 N 0.4391(3) 0.9736(4) 0.0037(2)
O11 O 0.0048(3) 0.3485(3) 0.07179(11)
O13 O 0.1123(2) 0.5336(3) 0.09109(11)
C4_2 C 0.0558(4) 0.0963(5) 0.40034(17)
H2_2 H 0.1332 0.0524 0.4003
C5_2 C 0.0426(3) 0.2149(5) 0.37343(16)
C8_2 C 0.1276(3) 0.3028(5) 0.28681(16)
C9_2 C 0.1945(4) 0.4091(6) 0.26676(18)
H5_2 H 0.2508 0.4537 0.2928
C10_2 C 0.1767(4) 0.4479(5) 0.20791(17)
H6_2 H 0.2207 0.5195 0.1943
C11_2 C 0.0941(3) 0.3811(4) 0.16895(16)
C12_2 C 0.0303(4) 0.2733(4) 0.19004(16)
C13_2 C 0.0462(4) 0.2344(4) 0.24831(17)
H8_2 H 0.0025 0.1625 0.2618
C14_2 C 0.0695(3) 0.4242(4) 0.10586(15)
O3_2 O 0.1477(3) 0.2682(4) 0.34578(12)
loop_
_geom_bond_atom_site_label_1
_geom_bond_atom_site_label_2
_geom_bond_site_symmetry_1
_geom_bond_site_symmetry_2
H18 C24 1_555 1_555
C28 C27 1_555 1_555
H20 C28 1_555 1_555
H21 C28 1_555 1_555
H22 C28 1_555 1_555
C29 C30 1_555 1_555
C30 C31 1_555 1_555
C31 H23 1_555 1_555
C32 C31 1_555 1_555
H24 C32 1_555 1_555
C33 C32 1_555 1_555
C34 C33 1_555 1_555
H25 C34 1_555 1_555
C35 C30 1_555 1_555
H26 C35 1_555 1_555
C36 C37 1_555 1_555
C37 H27 1_555 1_555
C38 C37 1_555 1_555
C39 C38 1_555 1_555
C40 C39 1_555 1_555
H29 C40 1_555 1_555
C41 C36 1_555 1_555
H30 C41 1_555 1_555
C42 C39 1_555 1_555
O8 C33 1_555 1_555
O9 C42 1_555 1_555
Co4 O9 1_555 1_555
C29 O6 1_555 1_555
C29 O7 1_555 1_555
C34 C35 1_555 1_555
C36 O8 1_555 1_555
C40 C41 1_555 1_555
Co4 O5 1_555 1_555
Co4 N1 1_555 1_555
C1 C2 1_555 1_555
C2 C3 1_555 1_555
H3 C6 1_555 1_555
C7 C2 1_555 1_555
H4 C7 1_555 1_555
C15 H9 1_555 1_555
C16 C15 1_555 1_555
H10_2 C16 1_555 1_555
C17 C16 1_555 1_555
H11 C17 1_555 1_555
C18 C17 1_555 1_555
C19 C18 1_555 1_555
H12 C19 1_555 1_555
C20 C18 1_555 1_555
C21 C20 1_555 1_555
H13 C21 1_555 1_555
H14 C21 1_555 1_555
H15 C21 1_555 1_555
N1 C15 1_555 1_555
N2 C20 1_555 1_555
O1 Co4 1_555 1_555
O7_2 Co4 1_555 1_555
C1 O1 1_555 1_555
C6 C7 1_555 1_555
C19 N1 1_555 1_555
H11_2 C17_2 1_555 1_555
C21_2 C20_2 1_555 1_555
H13_2 C21_2 1_555 1_555
H14_2 C21_2 1_555 1_555
H15_2 C21_2 1_555 1_555
Co7 O10 1_555 1_555
C1_2 C2_2 1_555 1_555
C2_2 C3_2 1_555 1_555
C3_2 H1 1_555 1_555
C4 C3_2 1_555 1_555
H2 C4 1_555 1_555
C5 C4 1_555 1_555
C6_2 C5 1_555 1_555
H3_2 C6_2 1_555 1_555
C7_2 C2_2 1_555 1_555
H4_2 C7_2 1_555 1_555
C8 C9 1_555 1_555
C9 H5 1_555 1_555
C10 C9 1_555 1_555
C11 C10 1_555 1_555
C12 C11 1_555 1_555
H7_2 C12 1_555 1_555
C13 C8 1_555 1_555
H8 C13 1_555 1_555
C14 C11 1_555 1_555
O2 C1_2 1_555 1_555
O3 C5 1_555 1_555
O4 C14 1_555 1_555
Co7 O4 1_555 1_555
C1_2 O1_2 1_555 1_555
C6_2 C7_2 1_555 1_555
C8 O3 1_555 1_555
C12 C13 1_555 1_555
Co7 O2_2 1_555 1_555
C29_2 C30_2 1_555 1_555
C30_2 C31_2 1_555 1_555
H25_2 C34_2 1_555 1_555
C35_2 C30_2 1_555 1_555
H26_2 C35_2 1_555 1_555
O6_2 Co7 1_555 1_555
N5 Co7 1_555 1_555
C29_2 O6_2 1_555 1_555
C34_2 C35_2 1_555 1_555
C22 H16_2 1_555 1_555
C23 C22 1_555 1_555
H17_2 C23 1_555 1_555
C24_2 C23 1_555 1_555
H18_2 C24_2 1_555 1_555
C25 C24_2 1_555 1_555
C26 C25 1_555 1_555
H19 C26 1_555 1_555
C27_2 C25 1_555 1_555
C28_2 C27_2 1_555 1_555
H20_2 C28_2 1_555 1_555
H21_2 C28_2 1_555 1_555
H22_2 C28_2 1_555 1_555
N5 C22 1_555 1_555
C26 N5 1_555 1_555
C27_2 N4 1_555 1_555
C23_2 C22_2 1_555 1_555
C26_2 C25_2 1_555 1_555
H19_2 C26_2 1_555 1_555
N3 C22_2 1_555 1_555
Co5 N3 1_555 1_555
C26_2 N3 1_555 1_555
O14 Co5 1_555 1_555
H24_2 C32_2 1_555 1_555
C33_2 C32_2 1_555 1_555
C36_2 C37_2 1_555 1_555
C37_2 H27_2 1_555 1_555
C38_2 C37_2 1_555 1_555
H28_2 C38_2 1_555 1_555
C39_2 C38_2 1_555 1_555
C40_2 C39_2 1_555 1_555
C41_2 C36_2 1_555 1_555
H30_2 C41_2 1_555 1_555
C42_2 C39_2 1_555 1_555
O8_2 C33_2 1_555 1_555
O12 C42_2 1_555 1_555
O14 C42_2 1_555 1_555
C36_2 O8_2 1_555 1_555
C40_2 C41_2 1_555 1_555
Co1 N1_2 1_555 1_555
C16_2 C15_2 1_555 1_555
C19_2 C18_2 1_555 1_555
H12_2 C19_2 1_555 1_555
N1_2 C15_2 1_555 1_555
O13 Co1 1_555 1_555
C19_2 N1_2 1_555 1_555
H2_2 C4_2 1_555 1_555
C5_2 C4_2 1_555 1_555
C8_2 C9_2 1_555 1_555
C9_2 H5_2 1_555 1_555
C10_2 C9_2 1_555 1_555
H6_2 C10_2 1_555 1_555
C11_2 C10_2 1_555 1_555
C12_2 C11_2 1_555 1_555
C13_2 C8_2 1_555 1_555
H8_2 C13_2 1_555 1_555
C14_2 C11_2 1_555 1_555
O3_2 C5_2 1_555 1_555
O11 C14_2 1_555 1_555
O13 C14_2 1_555 1_555
C8_2 O3_2 1_555 1_555
C12_2 C13_2 1_555 1_555

#END
