
###############################################################################
#
# This file contains modified crystal structure data generated from the
# MOF subset of the Cambridge Structural Database (CSD) v543 
# hosted by the Cambridge Crystallographic Data Centre (CCDC).
#
# This work is licensed under the Creative Commons
# Attribution-NonCommercial-ShareAlike 4.0 International License.
# To view a copy of this license, visit
# http://creativecommons.org/licenses/by-nc-sa/4.0/
# or send a letter to
# Creative Commons, PO Box 1866, Mountain View, CA 94042, USA.
#
# CIF created using the CSD Python API on 29 September 2022
# The structure has been converted into the P1 space group
# The structure has a 3D framework
# The original CSD entry IPEWOS is in the orthorhombic crystal system
# The framework has been calculated to contain at least 10.0% void space
# The void calculation uses a probe of radius 1.32A, grid spacing 0.4
#
###############################################################################

data_IPEWOS
_chemical_formula_moiety         '(C12 H12 Mn9 O24)n'
_symmetry_cell_setting           triclinic
_symmetry_space_group_name_H-M   'P 1'
_symmetry_Int_Tables_number      1
_space_group_name_Hall           'P 1'
loop_
_symmetry_equiv_pos_site_id
_symmetry_equiv_pos_as_xyz
1 x,y,z
_cell_length_a                   8.4006(5)
_cell_length_b                   11.7108(7)
_cell_length_c                   8.1082(5)
_cell_angle_alpha                90
_cell_angle_beta                 90
_cell_angle_gamma                90
_cell_volume                     797.666
loop_
_atom_site_label
_atom_site_type_symbol
_atom_site_fract_x
_atom_site_fract_y
_atom_site_fract_z
Mn1 Mn 0.0000 -0.0000 0.5000
H1 H 0.2783 0.0315 0.2844
H2 H 0.0114 0.2500 0.5662
Mn3 Mn 0.5000 0.0000 0.0000
Mn4 Mn 0.0000 0.5000 0.5000
O8 O 0.2233(2) 0.06077(16) 0.5834(2)
Mn3_2 Mn 0.5000 -0.0000 1.0000
Mn1_2 Mn 0.0000 1.0000 0.5000
O1 O 0.0979(2) 0.93224(15) 0.2835(2)
O3 O 0.2767(2) 0.93923(16) 0.0834(2)
C1 C 0.2202(3) 0.9706(2) 0.2192(3)
Mn3_3 Mn 0.5000 1.0000 0.0000
O7 O 0.0288(2) 0.84424(15) 0.6259(2)
Mn3_4 Mn 0.5000 1.0000 1.0000
Mn1_3 Mn 1.0000 -0.0000 0.5000
O2 O 0.9712(2) 0.15576(15) 0.3741(2)
C2 C 0.9873(4) 0.2500 0.4441(5)
O4 O 0.9712(2) 0.34424(15) 0.3741(2)
O5 O 0.9021(2) 0.06776(15) 0.7165(2)
O6 O 0.7233(2) 0.06077(16) 0.9166(2)
C3 C 0.7798(3) 0.0294(2) 0.7808(3)
Mn4_2 Mn 1.0000 0.5000 0.5000
Mn1_4 Mn 1.0000 1.0000 0.5000
H3 H 0.7217 0.9685 0.7156
O9 O 0.7767(2) 0.93923(16) 0.4166(2)
H3_2 H 0.7783 0.0315 0.2156
O7_2 O 0.4712(2) 0.15576(15) 0.1259(2)
O1_2 O 0.4021(2) 0.06776(15) 0.7835(2)
C1_2 C 0.2798(3) 0.0294(2) 0.7192(3)
H2_2 H 0.4886 0.7500 0.0662
O5_2 O 0.5979(2) 0.93224(15) 0.2165(2)
C3_2 C 0.7202(3) 0.9706(2) 0.2808(3)
Mn4_3 Mn 0.5000 0.5000 0.0000
O2_2 O 0.5288(2) 0.84424(15) 0.8741(2)
H1_2 H 0.2217 0.9685 0.7844
C2_2 C 0.5127(4) 0.7500 0.9441(5)
O4_2 O 0.5288(2) 0.65576(15) 0.8741(2)
Mn4_4 Mn 0.5000 0.5000 1.0000
O1_3 O 0.5979(2) 0.56776(15) 0.2165(2)
O2_3 O 0.4712(2) 0.34424(15) 0.1259(2)
O3_2 O 0.7767(2) 0.56077(16) 0.4166(2)
C1_3 C 0.7202(3) 0.5294(2) 0.2808(3)
H1_3 H 0.7783 0.4685 0.2156
C2_3 C 0.4873(4) 0.2500 0.0559(5)
O9_2 O 0.2767(2) 0.56077(16) 0.0834(2)
H2_3 H 0.5114 0.2500 0.9338
O5_3 O 0.4021(2) 0.43224(15) 0.7835(2)
O6_2 O 0.2233(2) 0.43923(16) 0.5834(2)
C3_3 C 0.2798(3) 0.4706(2) 0.7192(3)
H3_3 H 0.2217 0.5315 0.7844
O8_2 O 0.7233(2) 0.43923(16) 0.9166(2)
O2_4 O 0.0288(2) 0.65576(15) 0.6259(2)
C2_4 C 0.0127(4) 0.7500 0.5559(5)
O5_4 O 0.0979(2) 0.56776(15) 0.2835(2)
C3_4 C 0.2202(3) 0.5294(2) 0.2192(3)
H3_4 H 0.2783 0.4685 0.2844
O1_4 O 0.9021(2) 0.43224(15) 0.7165(2)
C1_4 C 0.7798(3) 0.4706(2) 0.7808(3)
H1_4 H 0.7217 0.5315 0.7156
H2_4 H 0.9886 0.7500 0.4338
loop_
_geom_bond_atom_site_label_1
_geom_bond_atom_site_label_2
_geom_bond_site_symmetry_1
_geom_bond_site_symmetry_2
O8 Mn1 1_555 1_555
Mn1_2 O1 1_555 1_555
O1 C1 1_555 1_555
O3 C1 1_555 1_555
Mn3_3 O3 1_555 1_555
O7 Mn1_2 1_555 1_555
O2 Mn1_3 1_555 1_555
C2 O2 1_555 1_555
O4 C2 1_555 1_555
O5 Mn1_3 1_555 1_555
O6 C3 1_555 1_555
C3 O5 1_555 1_555
Mn3_2 O6 1_555 1_555
Mn4_2 O4 1_555 1_555
O9 Mn1_4 1_555 1_555
O7_2 Mn3 1_555 1_555
Mn3_2 O1_2 1_555 1_555
O1_2 C1_2 1_555 1_555
O8 C1_2 1_555 1_555
O5_2 Mn3_3 1_555 1_555
O9 C3_2 1_555 1_555
C3_2 O5_2 1_555 1_555
O2_2 Mn3_4 1_555 1_555
C2_2 O2_2 1_555 1_555
O4_2 C2_2 1_555 1_555
Mn4_4 O4_2 1_555 1_555
Mn4_3 O1_3 1_555 1_555
O1_3 C1_3 1_555 1_555
O2_3 Mn4_3 1_555 1_555
O3_2 C1_3 1_555 1_555
C1_3 H1_3 1_555 1_555
C2_3 O2_3 1_555 1_555
O7_2 C2_3 1_555 1_555
Mn4_2 O3_2 1_555 1_555
O9_2 Mn4_3 1_555 1_555
O5_3 Mn4_4 1_555 1_555
O6_2 C3_3 1_555 1_555
C3_3 O5_3 1_555 1_555
H3_3 C3_3 1_555 1_555
Mn4 O6_2 1_555 1_555
O8_2 Mn4_4 1_555 1_555
O2_4 Mn4 1_555 1_555
C2_4 O2_4 1_555 1_555
O7 C2_4 1_555 1_555
O5_4 Mn4 1_555 1_555
O9_2 C3_4 1_555 1_555
C3_4 O5_4 1_555 1_555
H3_4 C3_4 1_555 1_555
Mn4_2 O1_4 1_555 1_555
O1_4 C1_4 1_555 1_555
O8_2 C1_4 1_555 1_555
C1_4 H1_4 1_555 1_555

#END
