
###############################################################################
#
# This file contains modified crystal structure data generated from the
# MOF subset of the Cambridge Structural Database (CSD) v543 
# hosted by the Cambridge Crystallographic Data Centre (CCDC).
#
# This work is licensed under the Creative Commons
# Attribution-NonCommercial-ShareAlike 4.0 International License.
# To view a copy of this license, visit
# http://creativecommons.org/licenses/by-nc-sa/4.0/
# or send a letter to
# Creative Commons, PO Box 1866, Mountain View, CA 94042, USA.
#
# CIF created using the CSD Python API on 29 September 2022
# The structure has been converted into the P1 space group
# The structure has a 3D framework
# The original CSD entry IPEXUZ is in the orthorhombic crystal system
# The framework has been calculated to contain at least 10.0% void space
# The void calculation uses a probe of radius 1.32A, grid spacing 0.4
# H atom positions have been added when not included in the experimental data
#
###############################################################################

data_IPEXUZ
_chemical_formula_moiety         '(C84 H28 O62 Zr12)n'
_symmetry_cell_setting           triclinic
_symmetry_space_group_name_H-M   'P 1'
_symmetry_Int_Tables_number      1
_space_group_name_Hall           'P 1'
loop_
_symmetry_equiv_pos_site_id
_symmetry_equiv_pos_as_xyz
1 x,y,z
_cell_length_a                   21.5158(6)
_cell_length_b                   6.7672(2)
_cell_length_c                   15.6894(4)
_cell_angle_alpha                90
_cell_angle_beta                 90
_cell_angle_gamma                90
_cell_volume                     2284.4
loop_
_atom_site_label
_atom_site_type_symbol
_atom_site_fract_x
_atom_site_fract_y
_atom_site_fract_z
O5 O 0.6251(8) 0.015(2) 0.500
C4 C 0.5648(14) 0.019(8) 0.500
O8 O 0.4351(10) 0.332(3) 0.500
C11 C 0.4655(19) 0.166(6) 0.500
C12 C 0.527(2) 0.179(5) 0.500
Zr2 Zr 0.33207(17) 0.2948(4) 0.500
O10 O 0.2574(11) 0.110(3) 0.500
O11 O 0.3374(8) 0.1996(17) 0.3628(5)
O12 O 0.3405(6) 0.5554(14) 0.4228(6)
C13 C 0.3385(15) 0.345(4) 0.3083(14)
C14 C 0.3412(12) 0.543(4) 0.3344(10)
C15 C 0.3376(14) 0.700(3) 0.2808(18)
O13 O 0.3374(8) 0.8004(17) 0.1372(5)
O14 O 0.3405(6) 0.4446(14) 0.0772(6)
C16 C 0.3385(15) 0.655(4) 0.1917(14)
C17 C 0.3412(12) 0.457(4) 0.1656(10)
C18 C 0.3376(14) 0.300(3) 0.2192(18)
Zr3 Zr 0.33207(17) 0.7052(4) 0.000
Zr5 Zr 0.16793(17) 0.2052(4) 0.500
O15 O 0.2426(11) 0.390(3) 0.500
O18 O 0.3374(8) 0.1996(17) 0.6372(5)
O20 O 0.3405(6) 0.5554(14) 0.5772(6)
H4 H 0.334229 0.851126 0.304197
H5 H 0.334229 0.148874 0.195803
H6 H 0.548104 0.325268 0.5
Zr3_2 Zr 0.33207(17) 0.7052(4) 1.000
O1 O 0.2574(11) 0.890(3) 0.000
O4 O 0.4351(10) 0.668(3) 0.000
C5 C 0.4655(19) 0.834(6) 0.000
C6 C 0.527(2) 0.821(5) 0.000
O9 O 0.6251(8) 0.985(2) 0.000
C10 C 0.5648(14) 0.981(8) 0.000
Zr6 Zr 0.16793(17) 0.7948(4) 0.000
O16 O 0.2426(11) 0.610(3) 0.000
H1 H 0.548104 0.674732 1.11022e-16
O1_2 O 0.2574(11) 0.890(3) 1.000
O4_2 O 0.4351(10) 0.668(3) 1.000
C5_2 C 0.4655(19) 0.834(6) 1.000
C6_2 C 0.527(2) 0.821(5) 1.000
O9_2 O 0.6251(8) 0.985(2) 1.000
C10_2 C 0.5648(14) 0.981(8) 1.000
Zr6_2 Zr 0.16793(17) 0.7948(4) 1.000
O16_2 O 0.2426(11) 0.610(3) 1.000
O17 O 0.3374(8) 0.8004(17) 0.8628(5)
O19 O 0.3405(6) 0.4446(14) 0.9228(6)
H1_2 H 0.548104 0.674732 1
O2 O 0.1626(8) 0.3004(17) 0.3628(5)
C1 C 0.1615(15) 0.155(4) 0.3083(14)
O4_3 O 0.0649(10) 0.168(3) 0.500
O5_2 O 0.1251(8) 0.515(2) 0.500
C4_2 C 0.0648(14) 0.519(8) 0.500
C5_3 C 0.0345(19) 0.334(6) 0.500
O7 O 0.1595(6) 0.0554(14) 0.0772(6)
C8 C 0.1588(12) 0.043(4) 0.1656(10)
C9 C 0.1624(14) 0.200(3) 0.2192(18)
C12_2 C 0.027(2) 0.679(5) 0.500
O17_2 O 0.1626(8) 0.3004(17) 0.6372(5)
H3 H 0.165771 0.351126 0.195803
H6_2 H 0.0481036 0.825268 0.5
O3 O 0.1595(6) 0.9446(14) 0.4228(6)
C2 C 0.1588(12) 0.957(4) 0.3344(10)
C3 C 0.1624(14) 0.800(3) 0.2808(18)
O6 O 0.1626(8) 0.6996(17) 0.1372(5)
C7 C 0.1615(15) 0.845(4) 0.1917(14)
O19_2 O 0.1595(6) 0.9446(14) 0.5772(6)
H2 H 0.165771 0.648874 0.304197
O20_2 O 0.1595(6) 0.0554(14) 0.9228(6)
C6_3 C 0.027(2) 0.321(5) 0.000
O8_2 O 0.0649(10) 0.832(3) 0.000
O9_3 O 0.1251(8) 0.485(2) 0.000
C10_3 C 0.0648(14) 0.481(8) 0.000
C11_2 C 0.0345(19) 0.666(6) 0.000
H1_3 H 0.0481036 0.174732 1.11022e-16
C6_4 C 0.027(2) 0.321(5) 1.000
O8_3 O 0.0649(10) 0.832(3) 1.000
O9_4 O 0.1251(8) 0.485(2) 1.000
C10_4 C 0.0648(14) 0.481(8) 1.000
C11_3 C 0.0345(19) 0.666(6) 1.000
O18_2 O 0.1626(8) 0.6996(17) 0.8628(5)
H1_4 H 0.0481036 0.174732 1
C1_2 C 0.3385(15) 0.345(4) 0.6917(14)
C2_2 C 0.3412(12) 0.543(4) 0.6656(10)
C3_2 C 0.3376(14) 0.700(3) 0.7192(18)
C7_2 C 0.3385(15) 0.655(4) 0.8083(14)
C8_2 C 0.3412(12) 0.457(4) 0.8344(10)
C9_2 C 0.3376(14) 0.300(3) 0.7808(18)
H2_2 H 0.334229 0.851126 0.695803
H3_2 H 0.334229 0.148874 0.804197
C13_2 C 0.1615(15) 0.155(4) 0.6917(14)
C17_2 C 0.1588(12) 0.043(4) 0.8344(10)
C18_2 C 0.1624(14) 0.200(3) 0.7808(18)
H5_2 H 0.165771 0.351126 0.804197
C14_2 C 0.1588(12) 0.957(4) 0.6656(10)
C15_2 C 0.1624(14) 0.800(3) 0.7192(18)
C16_2 C 0.1615(15) 0.845(4) 0.8083(14)
H4_2 H 0.165771 0.648874 0.695803
Zr1 Zr 0.66793(17) 0.7052(4) 0.500
O1_3 O 0.7426(11) 0.890(3) 0.500
O2_2 O 0.6626(8) 0.8004(17) 0.3628(5)
O3_2 O 0.6595(6) 0.4446(14) 0.4228(6)
C1_3 C 0.6615(15) 0.655(4) 0.3083(14)
C2_3 C 0.6588(12) 0.457(4) 0.3344(10)
C3_3 C 0.6624(14) 0.300(3) 0.2808(18)
O4_4 O 0.5649(10) 0.668(3) 0.500
C5_4 C 0.5345(19) 0.834(6) 0.500
C6_5 C 0.473(2) 0.821(5) 0.500
O6_2 O 0.6626(8) 0.1996(17) 0.1372(5)
O7_2 O 0.6595(6) 0.5554(14) 0.0772(6)
C7_3 C 0.6615(15) 0.345(4) 0.1917(14)
C8_3 C 0.6588(12) 0.543(4) 0.1656(10)
C9_3 C 0.6624(14) 0.700(3) 0.2192(18)
O9_5 O 0.3749(8) 0.985(2) 0.500
C10_5 C 0.4352(14) 0.981(8) 0.500
Zr4 Zr 0.66793(17) 0.2948(4) 0.000
Zr6_3 Zr 0.83207(17) 0.7948(4) 0.500
O16_3 O 0.7574(11) 0.610(3) 0.500
O17_3 O 0.6626(8) 0.8004(17) 0.6372(5)
O19_3 O 0.6595(6) 0.4446(14) 0.5772(6)
H1_5 H 0.451896 0.674732 0.5
H2_3 H 0.665771 0.148874 0.304197
H3_3 H 0.665771 0.851126 0.195803
Zr4_2 Zr 0.66793(17) 0.2948(4) 1.000
O5_3 O 0.3749(8) 0.015(2) 0.000
C4_3 C 0.4352(14) 0.019(8) 0.000
O8_4 O 0.5649(10) 0.332(3) 0.000
C11_4 C 0.5345(19) 0.166(6) 0.000
C12_3 C 0.473(2) 0.179(5) 0.000
O10_2 O 0.7426(11) 0.110(3) 0.000
Zr5_2 Zr 0.83207(17) 0.2052(4) 0.000
O15_2 O 0.7574(11) 0.390(3) 0.000
H6_3 H 0.451896 0.325268 1.11022e-16
O5_4 O 0.3749(8) 0.015(2) 1.000
C4_4 C 0.4352(14) 0.019(8) 1.000
O8_5 O 0.5649(10) 0.332(3) 1.000
C11_5 C 0.5345(19) 0.166(6) 1.000
C12_4 C 0.473(2) 0.179(5) 1.000
O10_3 O 0.7426(11) 0.110(3) 1.000
Zr5_3 Zr 0.83207(17) 0.2052(4) 1.000
O15_3 O 0.7574(11) 0.390(3) 1.000
O18_3 O 0.6626(8) 0.1996(17) 0.8628(5)
O20_3 O 0.6595(6) 0.5554(14) 0.9228(6)
H6_4 H 0.451896 0.325268 1
O12_2 O 0.8405(6) 0.0554(14) 0.4228(6)
C14_3 C 0.8412(12) 0.043(4) 0.3344(10)
C15_3 C 0.8376(14) 0.200(3) 0.2808(18)
O13_2 O 0.8374(8) 0.3004(17) 0.1372(5)
C16_3 C 0.8385(15) 0.155(4) 0.1917(14)
O20_4 O 0.8405(6) 0.0554(14) 0.5772(6)
H4_3 H 0.834229 0.351126 0.304197
C6_6 C 0.973(2) 0.321(5) 0.500
O8_6 O 0.9351(10) 0.832(3) 0.500
O9_6 O 0.8749(8) 0.485(2) 0.500
C10_6 C 0.9352(14) 0.481(8) 0.500
C11_6 C 0.9655(19) 0.666(6) 0.500
O11_2 O 0.8374(8) 0.6996(17) 0.3628(5)
C13_3 C 0.8385(15) 0.845(4) 0.3083(14)
O14_2 O 0.8405(6) 0.9446(14) 0.0772(6)
C17_3 C 0.8412(12) 0.957(4) 0.1656(10)
C18_3 C 0.8376(14) 0.800(3) 0.2192(18)
O18_4 O 0.8374(8) 0.6996(17) 0.6372(5)
H1_6 H 0.951896 0.174732 0.5
H5_3 H 0.834229 0.648874 0.195803
O4_5 O 0.9351(10) 0.168(3) 0.000
O5_5 O 0.8749(8) 0.515(2) 0.000
C4_5 C 0.9352(14) 0.519(8) 0.000
C5_5 C 0.9655(19) 0.334(6) 0.000
C12_5 C 0.973(2) 0.679(5) 0.000
H6_5 H 0.951896 0.825268 1.11022e-16
O4_6 O 0.9351(10) 0.168(3) 1.000
O5_6 O 0.8749(8) 0.515(2) 1.000
C4_6 C 0.9352(14) 0.519(8) 1.000
C5_6 C 0.9655(19) 0.334(6) 1.000
C12_6 C 0.973(2) 0.679(5) 1.000
O17_4 O 0.8374(8) 0.3004(17) 0.8628(5)
H6_6 H 0.951896 0.825268 1
O19_4 O 0.8405(6) 0.9446(14) 0.9228(6)
C13_4 C 0.6615(15) 0.655(4) 0.6917(14)
C14_4 C 0.6588(12) 0.457(4) 0.6656(10)
C15_4 C 0.6624(14) 0.300(3) 0.7192(18)
C16_4 C 0.6615(15) 0.345(4) 0.8083(14)
C17_4 C 0.6588(12) 0.543(4) 0.8344(10)
C18_4 C 0.6624(14) 0.700(3) 0.7808(18)
H4_4 H 0.665771 0.148874 0.695803
H5_4 H 0.665771 0.851126 0.804197
C2_4 C 0.8412(12) 0.043(4) 0.6656(10)
C3_4 C 0.8376(14) 0.200(3) 0.7192(18)
C7_4 C 0.8385(15) 0.155(4) 0.8083(14)
H2_4 H 0.834229 0.351126 0.695803
C1_4 C 0.8385(15) 0.845(4) 0.6917(14)
C8_4 C 0.8412(12) 0.957(4) 0.8344(10)
C9_4 C 0.8376(14) 0.800(3) 0.7808(18)
H3_4 H 0.834229 0.648874 0.804197
loop_
_geom_bond_atom_site_label_1
_geom_bond_atom_site_label_2
_geom_bond_site_symmetry_1
_geom_bond_site_symmetry_2
C4 O5 1_555 1_555
O8 C11 1_555 1_555
C12 C4 1_555 1_555
Zr2 O8 1_555 1_555
O10 Zr2 1_555 1_555
O11 Zr2 1_555 1_555
O12 Zr2 1_555 1_555
C13 O11 1_555 1_555
C14 O12 1_555 1_555
C15 C14 1_555 1_555
O13 C16 1_555 1_555
O14 C17 1_555 1_555
C16 C15 1_555 1_555
C17 C16 1_555 1_555
C18 C13 1_555 1_555
Zr3 O13 1_555 1_555
Zr5 O10 1_555 1_555
O15 Zr2 1_555 1_555
O18 Zr2 1_555 1_555
O20 Zr2 1_555 1_555
C11 C12 1_555 1_555
C13 C14 1_555 1_555
O14 Zr3 1_555 1_555
C17 C18 1_555 1_555
Zr5 O15 1_555 1_555
C15 H4 1_555 1_555
C18 H5 1_555 1_555
C12 H6 1_555 1_555
Zr3 O1 1_555 1_555
O1 Zr6 1_555 1_555
O4 Zr3 1_555 1_555
C5 O4 1_555 1_555
C6 C5 1_555 1_555
O9 C10 1_555 1_555
C10 C6 1_555 1_555
Zr6 O16 1_555 1_555
O16 Zr3 1_555 1_555
C6 H1 1_555 1_555
Zr3_2 O1_2 1_555 1_555
O1_2 Zr6_2 1_555 1_555
O4_2 Zr3_2 1_555 1_555
C5_2 O4_2 1_555 1_555
C6_2 C5_2 1_555 1_555
O9_2 C10_2 1_555 1_555
C10_2 C6_2 1_555 1_555
Zr6_2 O16_2 1_555 1_555
O16_2 Zr3_2 1_555 1_555
O17 Zr3_2 1_555 1_555
O19 Zr3_2 1_555 1_555
C6_2 H1_2 1_555 1_555
O2 Zr5 1_555 1_555
C1 O2 1_555 1_555
O4_3 Zr5 1_555 1_555
O5_2 Zr5 1_555 1_555
C4_2 O5_2 1_555 1_555
C5_3 O4_3 1_555 1_555
O7 C8 1_555 1_555
C9 C1 1_555 1_555
C12_2 C4_2 1_555 1_555
O17_2 Zr5 1_555 1_555
C4_2 C5_3 1_555 1_555
C8 C9 1_555 1_555
C9 H3 1_555 1_555
C12_2 H6_2 1_555 1_555
C2 O3 1_555 1_555
C3 C2 1_555 1_555
O6 C7 1_555 1_555
C7 C3 1_555 1_555
Zr6 O6 1_555 1_555
C3 H2 1_555 1_555
O8_2 C11_2 1_555 1_555
O9_3 C10_3 1_555 1_555
C10_3 C6_3 1_555 1_555
C11_2 C10_3 1_555 1_555
Zr6 O8_2 1_555 1_555
O9_3 Zr6 1_555 1_555
C6_3 H1_3 1_555 1_555
O8_3 C11_3 1_555 1_555
O9_4 C10_4 1_555 1_555
C10_4 C6_4 1_555 1_555
C11_3 C10_4 1_555 1_555
Zr6_2 O8_3 1_555 1_555
O18_2 Zr6_2 1_555 1_555
O9_4 Zr6_2 1_555 1_555
C6_4 H1_4 1_555 1_555
C1_2 O18 1_555 1_555
C2_2 O20 1_555 1_555
C3_2 C2_2 1_555 1_555
O17 C7_2 1_555 1_555
O19 C8_2 1_555 1_555
C7_2 C3_2 1_555 1_555
C8_2 C7_2 1_555 1_555
C9_2 C1_2 1_555 1_555
C1_2 C2_2 1_555 1_555
C8_2 C9_2 1_555 1_555
C3_2 H2_2 1_555 1_555
C9_2 H3_2 1_555 1_555
C13_2 O17_2 1_555 1_555
O20_2 C17_2 1_555 1_555
C18_2 C13_2 1_555 1_555
C17_2 C18_2 1_555 1_555
C18_2 H5_2 1_555 1_555
C14_2 O19_2 1_555 1_555
C15_2 C14_2 1_555 1_555
O18_2 C16_2 1_555 1_555
C16_2 C15_2 1_555 1_555
C15_2 H4_2 1_555 1_555
Zr1 O1_3 1_555 1_555
O1_3 Zr6_3 1_555 1_555
O2_2 Zr1 1_555 1_555
O3_2 Zr1 1_555 1_555
C1_3 O2_2 1_555 1_555
C2_3 O3_2 1_555 1_555
C3_3 C2_3 1_555 1_555
O4_4 Zr1 1_555 1_555
C5_4 O4_4 1_555 1_555
C6_5 C5_4 1_555 1_555
O6_2 C7_3 1_555 1_555
O7_2 C8_3 1_555 1_555
C7_3 C3_3 1_555 1_555
C8_3 C7_3 1_555 1_555
C9_3 C1_3 1_555 1_555
O9_5 C10_5 1_555 1_555
C10_5 C6_5 1_555 1_555
Zr4 O6_2 1_555 1_555
Zr6_3 O16_3 1_555 1_555
O16_3 Zr1 1_555 1_555
O17_3 Zr1 1_555 1_555
O19_3 Zr1 1_555 1_555
C1_3 C2_3 1_555 1_555
O7_2 Zr4 1_555 1_555
C8_3 C9_3 1_555 1_555
C6_5 H1_5 1_555 1_555
C3_3 H2_3 1_555 1_555
C9_3 H3_3 1_555 1_555
C4_3 O5_3 1_555 1_555
O8_4 C11_4 1_555 1_555
C12_3 C4_3 1_555 1_555
Zr4 O8_4 1_555 1_555
O10_2 Zr4 1_555 1_555
Zr5_2 O10_2 1_555 1_555
O15_2 Zr4 1_555 1_555
C11_4 C12_3 1_555 1_555
Zr5_2 O15_2 1_555 1_555
C12_3 H6_3 1_555 1_555
C4_4 O5_4 1_555 1_555
O8_5 C11_5 1_555 1_555
C12_4 C4_4 1_555 1_555
Zr4_2 O8_5 1_555 1_555
O10_3 Zr4_2 1_555 1_555
Zr5_3 O10_3 1_555 1_555
O15_3 Zr4_2 1_555 1_555
O18_3 Zr4_2 1_555 1_555
O20_3 Zr4_2 1_555 1_555
C11_5 C12_4 1_555 1_555
Zr5_3 O15_3 1_555 1_555
C12_4 H6_4 1_555 1_555
C14_3 O12_2 1_555 1_555
C15_3 C14_3 1_555 1_555
O13_2 C16_3 1_555 1_555
C16_3 C15_3 1_555 1_555
Zr5_2 O13_2 1_555 1_555
C15_3 H4_3 1_555 1_555
O8_6 C11_6 1_555 1_555
O9_6 C10_6 1_555 1_555
C10_6 C6_6 1_555 1_555
C11_6 C10_6 1_555 1_555
Zr6_3 O8_6 1_555 1_555
O11_2 Zr6_3 1_555 1_555
C13_3 O11_2 1_555 1_555
O14_2 C17_3 1_555 1_555
C18_3 C13_3 1_555 1_555
O18_4 Zr6_3 1_555 1_555
O9_6 Zr6_3 1_555 1_555
C17_3 C18_3 1_555 1_555
C6_6 H1_6 1_555 1_555
C18_3 H5_3 1_555 1_555
O4_5 Zr5_2 1_555 1_555
O5_5 Zr5_2 1_555 1_555
C4_5 O5_5 1_555 1_555
C5_5 O4_5 1_555 1_555
C12_5 C4_5 1_555 1_555
C4_5 C5_5 1_555 1_555
C12_5 H6_5 1_555 1_555
O4_6 Zr5_3 1_555 1_555
O5_6 Zr5_3 1_555 1_555
C4_6 O5_6 1_555 1_555
C5_6 O4_6 1_555 1_555
C12_6 C4_6 1_555 1_555
O17_4 Zr5_3 1_555 1_555
C4_6 C5_6 1_555 1_555
C12_6 H6_6 1_555 1_555
C13_4 O17_3 1_555 1_555
C14_4 O19_3 1_555 1_555
C15_4 C14_4 1_555 1_555
O18_3 C16_4 1_555 1_555
O20_3 C17_4 1_555 1_555
C16_4 C15_4 1_555 1_555
C17_4 C16_4 1_555 1_555
C18_4 C13_4 1_555 1_555
C13_4 C14_4 1_555 1_555
C17_4 C18_4 1_555 1_555
C15_4 H4_4 1_555 1_555
C18_4 H5_4 1_555 1_555
C2_4 O20_4 1_555 1_555
C3_4 C2_4 1_555 1_555
O17_4 C7_4 1_555 1_555
C7_4 C3_4 1_555 1_555
C3_4 H2_4 1_555 1_555
C1_4 O18_4 1_555 1_555
O19_4 C8_4 1_555 1_555
C9_4 C1_4 1_555 1_555
C8_4 C9_4 1_555 1_555
C9_4 H3_4 1_555 1_555

#END
