
###############################################################################
#
# This file contains modified crystal structure data generated from the
# MOF subset of the Cambridge Structural Database (CSD) v543 
# hosted by the Cambridge Crystallographic Data Centre (CCDC).
#
# This work is licensed under the Creative Commons
# Attribution-NonCommercial-ShareAlike 4.0 International License.
# To view a copy of this license, visit
# http://creativecommons.org/licenses/by-nc-sa/4.0/
# or send a letter to
# Creative Commons, PO Box 1866, Mountain View, CA 94042, USA.
#
# CIF created using the CSD Python API on 29 September 2022
# The structure has been converted into the P1 space group
# The structure has a 3D framework
# The original CSD entry IPEXOT is in the orthorhombic crystal system
# The framework has been calculated to contain at least 10.0% void space
# The void calculation uses a probe of radius 1.32A, grid spacing 0.4
# H atom positions have been added when not included in the experimental data
#
###############################################################################

data_IPEXOT
_chemical_formula_moiety         '(C84 H28 Hf12 O62)n'
_symmetry_cell_setting           triclinic
_symmetry_space_group_name_H-M   'P 1'
_symmetry_Int_Tables_number      1
_space_group_name_Hall           'P 1'
loop_
_symmetry_equiv_pos_site_id
_symmetry_equiv_pos_as_xyz
1 x,y,z
_cell_length_a                   21.4455(6)
_cell_length_b                   6.7348(2)
_cell_length_c                   15.6205(5)
_cell_angle_alpha                90
_cell_angle_beta                 90
_cell_angle_gamma                90
_cell_volume                     2256.09
loop_
_atom_site_label
_atom_site_type_symbol
_atom_site_fract_x
_atom_site_fract_y
_atom_site_fract_z
O4 O 0.6254(9) 0.002(3) 0.500
C4 C 0.5636(18) 0.003(11) 0.500
C6 C 0.531(3) 0.186(8) 0.500
O9 O 0.4387(12) 0.340(4) 0.500
C11 C 0.469(3) 0.177(9) 0.500
O10 O 0.2569(16) 0.114(3) 0.500
O11 O 0.3383(8) 0.5666(18) 0.4232(7)
O12 O 0.3363(9) 0.202(2) 0.3622(7)
C13 C 0.3409(15) 0.543(6) 0.3314(13)
C14 C 0.3388(16) 0.350(4) 0.3093(17)
C15 C 0.3418(13) 0.698(3) 0.284(2)
Hf2 Hf 0.33137(12) 0.2961(3) 0.500
O13 O 0.3383(8) 0.4334(18) 0.0768(7)
O14 O 0.3363(9) 0.798(2) 0.1378(7)
C16 C 0.3409(15) 0.457(6) 0.1686(13)
C17 C 0.3388(16) 0.650(4) 0.1907(17)
C18 C 0.3418(13) 0.302(3) 0.216(2)
O15 O 0.2431(16) 0.386(3) 0.500
O18 O 0.3383(8) 0.5666(18) 0.5768(7)
O20 O 0.3363(9) 0.202(2) 0.6378(7)
Hf3 Hf 0.33137(12) 0.7039(3) 0.000
Hf5 Hf 0.16863(12) 0.2039(3) 0.500
H2 H 0.555551 0.327543 0.5
H4 H 0.344466 0.848711 0.308993
H6 H 0.344466 0.151289 0.191007
Hf3_2 Hf 0.33137(12) 0.7039(3) 1.000
O1 O 0.2569(16) 0.886(3) 0.000
O5 O 0.4387(12) 0.660(4) 0.000
C5 C 0.469(3) 0.823(9) 0.000
O8 O 0.6254(9) 0.998(3) 0.000
C10 C 0.5636(18) 0.997(11) 0.000
C12 C 0.531(3) 0.814(8) 0.000
O16 O 0.2431(16) 0.614(3) 0.000
Hf6 Hf 0.16863(12) 0.7961(3) 0.000
H5 H 0.555551 0.672457 0
O1_2 O 0.2569(16) 0.886(3) 1.000
O5_2 O 0.4387(12) 0.660(4) 1.000
C5_2 C 0.469(3) 0.823(9) 1.000
O8_2 O 0.6254(9) 0.998(3) 1.000
C10_2 C 0.5636(18) 0.997(11) 1.000
C12_2 C 0.531(3) 0.814(8) 1.000
O16_2 O 0.2431(16) 0.614(3) 1.000
O17 O 0.3383(8) 0.4334(18) 0.9232(7)
O19 O 0.3363(9) 0.798(2) 0.8622(7)
Hf6_2 Hf 0.16863(12) 0.7961(3) 1.000
H5_2 H 0.555551 0.672457 1
O3 O 0.1637(9) 0.298(2) 0.3622(7)
C2 C 0.1612(16) 0.150(4) 0.3093(17)
O4_2 O 0.1254(9) 0.502(3) 0.500
O5_3 O 0.0613(12) 0.160(4) 0.500
C4_2 C 0.0636(18) 0.503(11) 0.500
C5_3 C 0.031(3) 0.323(9) 0.500
C6_2 C 0.031(3) 0.686(8) 0.500
O6 O 0.1617(8) 0.0666(18) 0.0768(7)
C7 C 0.1591(15) 0.043(6) 0.1686(13)
C9 C 0.1582(13) 0.198(3) 0.216(2)
O19_2 O 0.1637(9) 0.298(2) 0.6378(7)
H2_2 H 0.055551 0.827543 0.5
H3 H 0.155534 0.348711 0.191007
O2 O 0.1617(8) 0.9334(18) 0.4232(7)
C1 C 0.1591(15) 0.957(6) 0.3314(13)
C3 C 0.1582(13) 0.802(3) 0.284(2)
O7 O 0.1637(9) 0.702(2) 0.1378(7)
C8 C 0.1612(16) 0.850(4) 0.1907(17)
O17_2 O 0.1617(8) 0.9334(18) 0.5768(7)
H1 H 0.155534 0.651289 0.308993
O18_2 O 0.1617(8) 0.0666(18) 0.9232(7)
O8_3 O 0.1254(9) 0.498(3) 0.000
O9_2 O 0.0613(12) 0.840(4) 0.000
C10_3 C 0.0636(18) 0.497(11) 0.000
C11_2 C 0.031(3) 0.677(9) 0.000
C12_3 C 0.031(3) 0.314(8) 0.000
H5_3 H 0.055551 0.172457 0
O8_4 O 0.1254(9) 0.498(3) 1.000
O9_3 O 0.0613(12) 0.840(4) 1.000
C10_4 C 0.0636(18) 0.497(11) 1.000
C11_3 C 0.031(3) 0.677(9) 1.000
C12_4 C 0.031(3) 0.314(8) 1.000
O20_2 O 0.1637(9) 0.702(2) 0.8622(7)
H5_4 H 0.055551 0.172457 1
C1_2 C 0.3409(15) 0.543(6) 0.6686(13)
C2_2 C 0.3388(16) 0.350(4) 0.6907(17)
C3_2 C 0.3418(13) 0.698(3) 0.716(2)
C7_2 C 0.3409(15) 0.457(6) 0.8314(13)
C8_2 C 0.3388(16) 0.650(4) 0.8093(17)
C9_2 C 0.3418(13) 0.302(3) 0.784(2)
H1_2 H 0.344466 0.848711 0.691007
H3_2 H 0.344466 0.151289 0.808993
C14_2 C 0.1612(16) 0.150(4) 0.6907(17)
C16_2 C 0.1591(15) 0.043(6) 0.8314(13)
C18_2 C 0.1582(13) 0.198(3) 0.784(2)
H6_2 H 0.155534 0.348711 0.808993
C13_2 C 0.1591(15) 0.957(6) 0.6686(13)
C15_2 C 0.1582(13) 0.802(3) 0.716(2)
C17_2 C 0.1612(16) 0.850(4) 0.8093(17)
H4_2 H 0.155534 0.651289 0.691007
O1_3 O 0.7431(16) 0.886(3) 0.500
O2_2 O 0.6617(8) 0.4334(18) 0.4232(7)
O3_2 O 0.6637(9) 0.798(2) 0.3622(7)
C1_3 C 0.6591(15) 0.457(6) 0.3314(13)
C2_3 C 0.6612(16) 0.650(4) 0.3093(17)
C3_3 C 0.6582(13) 0.302(3) 0.284(2)
O5_4 O 0.5613(12) 0.660(4) 0.500
C5_4 C 0.531(3) 0.823(9) 0.500
Hf1 Hf 0.66863(12) 0.7039(3) 0.500
O6_2 O 0.6617(8) 0.5666(18) 0.0768(7)
O7_2 O 0.6637(9) 0.202(2) 0.1378(7)
C7_3 C 0.6591(15) 0.543(6) 0.1686(13)
C8_3 C 0.6612(16) 0.350(4) 0.1907(17)
C9_3 C 0.6582(13) 0.698(3) 0.216(2)
O8_5 O 0.3746(9) 0.998(3) 0.500
C10_5 C 0.4364(18) 0.997(11) 0.500
C12_5 C 0.469(3) 0.814(8) 0.500
O16_3 O 0.7569(16) 0.614(3) 0.500
O17_3 O 0.6617(8) 0.4334(18) 0.5768(7)
O19_3 O 0.6637(9) 0.798(2) 0.6378(7)
Hf4 Hf 0.66863(12) 0.2961(3) 0.000
Hf6_3 Hf 0.83137(12) 0.7961(3) 0.500
H1_3 H 0.655534 0.151289 0.308993
H3_3 H 0.655534 0.848711 0.191007
H5_5 H 0.444449 0.672457 0.5
Hf4_2 Hf 0.66863(12) 0.2961(3) 1.000
O4_3 O 0.3746(9) 0.002(3) 0.000
C4_3 C 0.4364(18) 0.003(11) 0.000
C6_3 C 0.469(3) 0.186(8) 0.000
O9_4 O 0.5613(12) 0.340(4) 0.000
C11_4 C 0.531(3) 0.177(9) 0.000
O10_2 O 0.7431(16) 0.114(3) 0.000
O15_2 O 0.7569(16) 0.386(3) 0.000
Hf5_2 Hf 0.83137(12) 0.2039(3) 0.000
H2_3 H 0.444449 0.327543 0
O4_4 O 0.3746(9) 0.002(3) 1.000
C4_4 C 0.4364(18) 0.003(11) 1.000
C6_4 C 0.469(3) 0.186(8) 1.000
O9_5 O 0.5613(12) 0.340(4) 1.000
C11_5 C 0.531(3) 0.177(9) 1.000
O10_3 O 0.7431(16) 0.114(3) 1.000
O15_3 O 0.7569(16) 0.386(3) 1.000
O18_3 O 0.6617(8) 0.5666(18) 0.9232(7)
O20_3 O 0.6637(9) 0.202(2) 0.8622(7)
Hf5_3 Hf 0.83137(12) 0.2039(3) 1.000
H2_4 H 0.444449 0.327543 1
O11_2 O 0.8383(8) 0.0666(18) 0.4232(7)
C13_3 C 0.8409(15) 0.043(6) 0.3314(13)
C15_3 C 0.8418(13) 0.198(3) 0.284(2)
O14_2 O 0.8363(9) 0.298(2) 0.1378(7)
C17_3 C 0.8388(16) 0.150(4) 0.1907(17)
O18_4 O 0.8383(8) 0.0666(18) 0.5768(7)
H4_3 H 0.844466 0.348711 0.308993
O8_6 O 0.8746(9) 0.498(3) 0.500
O9_6 O 0.9387(12) 0.840(4) 0.500
C10_6 C 0.9364(18) 0.497(11) 0.500
C11_6 C 0.969(3) 0.677(9) 0.500
C12_6 C 0.969(3) 0.314(8) 0.500
O12_2 O 0.8363(9) 0.702(2) 0.3622(7)
C14_3 C 0.8388(16) 0.850(4) 0.3093(17)
O13_2 O 0.8383(8) 0.9334(18) 0.0768(7)
C16_3 C 0.8409(15) 0.957(6) 0.1686(13)
C18_3 C 0.8418(13) 0.802(3) 0.216(2)
O20_4 O 0.8363(9) 0.702(2) 0.6378(7)
H5_6 H 0.944449 0.172457 0.5
H6_3 H 0.844466 0.651289 0.191007
O4_5 O 0.8746(9) 0.502(3) 0.000
O5_5 O 0.9387(12) 0.160(4) 0.000
C4_5 C 0.9364(18) 0.503(11) 0.000
C5_5 C 0.969(3) 0.323(9) 0.000
C6_5 C 0.969(3) 0.686(8) 0.000
H2_5 H 0.944449 0.827543 0
O4_6 O 0.8746(9) 0.502(3) 1.000
O5_6 O 0.9387(12) 0.160(4) 1.000
C4_6 C 0.9364(18) 0.503(11) 1.000
C5_6 C 0.969(3) 0.323(9) 1.000
C6_6 C 0.969(3) 0.686(8) 1.000
O19_4 O 0.8363(9) 0.298(2) 0.8622(7)
H2_6 H 0.944449 0.827543 1
O17_4 O 0.8383(8) 0.9334(18) 0.9232(7)
C13_4 C 0.6591(15) 0.457(6) 0.6686(13)
C14_4 C 0.6612(16) 0.650(4) 0.6907(17)
C15_4 C 0.6582(13) 0.302(3) 0.716(2)
C16_4 C 0.6591(15) 0.543(6) 0.8314(13)
C17_4 C 0.6612(16) 0.350(4) 0.8093(17)
C18_4 C 0.6582(13) 0.698(3) 0.784(2)
H4_4 H 0.655534 0.151289 0.691007
H6_4 H 0.655534 0.848711 0.808993
C1_4 C 0.8409(15) 0.043(6) 0.6686(13)
C3_4 C 0.8418(13) 0.198(3) 0.716(2)
C8_4 C 0.8388(16) 0.150(4) 0.8093(17)
H1_4 H 0.844466 0.348711 0.691007
C2_4 C 0.8388(16) 0.850(4) 0.6907(17)
C7_4 C 0.8409(15) 0.957(6) 0.8314(13)
C9_4 C 0.8418(13) 0.802(3) 0.784(2)
H3_4 H 0.844466 0.651289 0.808993
loop_
_geom_bond_atom_site_label_1
_geom_bond_atom_site_label_2
_geom_bond_site_symmetry_1
_geom_bond_site_symmetry_2
O4 C4 1_555 1_555
C6 C4 1_555 1_555
O9 C11 1_555 1_555
C11 C6 1_555 1_555
O10 Hf2 1_555 1_555
O11 C13 1_555 1_555
O12 C14 1_555 1_555
C13 C14 1_555 1_555
C14 C18 1_555 1_555
C15 C13 1_555 1_555
O13 C16 1_555 1_555
O14 C17 1_555 1_555
C16 C17 1_555 1_555
C17 C15 1_555 1_555
C18 C16 1_555 1_555
O15 Hf2 1_555 1_555
O18 Hf2 1_555 1_555
O20 Hf2 1_555 1_555
Hf3 O13 1_555 1_555
Hf5 O10 1_555 1_555
O9 Hf2 1_555 1_555
O11 Hf2 1_555 1_555
O12 Hf2 1_555 1_555
O14 Hf3 1_555 1_555
O15 Hf5 1_555 1_555
C6 H2 1_555 1_555
C15 H4 1_555 1_555
C18 H6 1_555 1_555
O1 Hf3 1_555 1_555
O5 C5 1_555 1_555
C5 C12 1_555 1_555
O8 C10 1_555 1_555
C12 C10 1_555 1_555
O16 Hf3 1_555 1_555
Hf6 O1 1_555 1_555
O5 Hf3 1_555 1_555
O16 Hf6 1_555 1_555
C12 H5 1_555 1_555
O1_2 Hf3_2 1_555 1_555
O5_2 C5_2 1_555 1_555
C5_2 C12_2 1_555 1_555
O8_2 C10_2 1_555 1_555
C12_2 C10_2 1_555 1_555
O16_2 Hf3_2 1_555 1_555
O17 Hf3_2 1_555 1_555
O19 Hf3_2 1_555 1_555
Hf6_2 O1_2 1_555 1_555
O5_2 Hf3_2 1_555 1_555
O16_2 Hf6_2 1_555 1_555
C12_2 H5_2 1_555 1_555
O3 C2 1_555 1_555
C2 C9 1_555 1_555
O4_2 C4_2 1_555 1_555
O5_3 C5_3 1_555 1_555
C4_2 C5_3 1_555 1_555
C6_2 C4_2 1_555 1_555
O6 C7 1_555 1_555
C9 C7 1_555 1_555
O19_2 Hf5 1_555 1_555
O3 Hf5 1_555 1_555
O4_2 Hf5 1_555 1_555
O5_3 Hf5 1_555 1_555
C6_2 H2_2 1_555 1_555
C9 H3 1_555 1_555
O2 C1 1_555 1_555
C3 C1 1_555 1_555
O7 C8 1_555 1_555
C8 C3 1_555 1_555
O7 Hf6 1_555 1_555
C3 H1 1_555 1_555
O8_3 C10_3 1_555 1_555
O9_2 C11_2 1_555 1_555
C10_3 C11_2 1_555 1_555
C12_3 C10_3 1_555 1_555
Hf6 O8_3 1_555 1_555
O9_2 Hf6 1_555 1_555
C12_3 H5_3 1_555 1_555
O8_4 C10_4 1_555 1_555
O9_3 C11_3 1_555 1_555
C10_4 C11_3 1_555 1_555
C12_4 C10_4 1_555 1_555
Hf6_2 O8_4 1_555 1_555
O20_2 Hf6_2 1_555 1_555
O9_3 Hf6_2 1_555 1_555
C12_4 H5_4 1_555 1_555
O18 C1_2 1_555 1_555
O20 C2_2 1_555 1_555
C1_2 C2_2 1_555 1_555
C2_2 C9_2 1_555 1_555
C3_2 C1_2 1_555 1_555
O17 C7_2 1_555 1_555
O19 C8_2 1_555 1_555
C7_2 C8_2 1_555 1_555
C8_2 C3_2 1_555 1_555
C9_2 C7_2 1_555 1_555
C3_2 H1_2 1_555 1_555
C9_2 H3_2 1_555 1_555
O19_2 C14_2 1_555 1_555
C14_2 C18_2 1_555 1_555
O18_2 C16_2 1_555 1_555
C18_2 C16_2 1_555 1_555
C18_2 H6_2 1_555 1_555
O17_2 C13_2 1_555 1_555
C15_2 C13_2 1_555 1_555
O20_2 C17_2 1_555 1_555
C17_2 C15_2 1_555 1_555
C15_2 H4_2 1_555 1_555
O1_3 Hf1 1_555 1_555
O2_2 C1_3 1_555 1_555
O3_2 C2_3 1_555 1_555
C1_3 C2_3 1_555 1_555
C2_3 C9_3 1_555 1_555
C3_3 C1_3 1_555 1_555
O5_4 C5_4 1_555 1_555
C5_4 C12_5 1_555 1_555
Hf1 O2_2 1_555 1_555
O6_2 C7_3 1_555 1_555
O7_2 C8_3 1_555 1_555
C7_3 C8_3 1_555 1_555
C8_3 C3_3 1_555 1_555
C9_3 C7_3 1_555 1_555
O8_5 C10_5 1_555 1_555
C12_5 C10_5 1_555 1_555
O16_3 Hf1 1_555 1_555
O17_3 Hf1 1_555 1_555
O19_3 Hf1 1_555 1_555
Hf4 O6_2 1_555 1_555
Hf6_3 O1_3 1_555 1_555
O3_2 Hf1 1_555 1_555
O5_4 Hf1 1_555 1_555
O7_2 Hf4 1_555 1_555
O16_3 Hf6_3 1_555 1_555
C3_3 H1_3 1_555 1_555
C9_3 H3_3 1_555 1_555
C12_5 H5_5 1_555 1_555
O4_3 C4_3 1_555 1_555
C6_3 C4_3 1_555 1_555
O9_4 C11_4 1_555 1_555
C11_4 C6_3 1_555 1_555
O10_2 Hf4 1_555 1_555
O15_2 Hf4 1_555 1_555
Hf5_2 O10_2 1_555 1_555
O9_4 Hf4 1_555 1_555
O15_2 Hf5_2 1_555 1_555
C6_3 H2_3 1_555 1_555
O4_4 C4_4 1_555 1_555
C6_4 C4_4 1_555 1_555
O9_5 C11_5 1_555 1_555
C11_5 C6_4 1_555 1_555
O10_3 Hf4_2 1_555 1_555
O15_3 Hf4_2 1_555 1_555
O18_3 Hf4_2 1_555 1_555
O20_3 Hf4_2 1_555 1_555
Hf5_3 O10_3 1_555 1_555
O9_5 Hf4_2 1_555 1_555
O15_3 Hf5_3 1_555 1_555
C6_4 H2_4 1_555 1_555
O11_2 C13_3 1_555 1_555
C15_3 C13_3 1_555 1_555
O14_2 C17_3 1_555 1_555
C17_3 C15_3 1_555 1_555
O14_2 Hf5_2 1_555 1_555
C15_3 H4_3 1_555 1_555
O8_6 C10_6 1_555 1_555
O9_6 C11_6 1_555 1_555
C10_6 C11_6 1_555 1_555
C12_6 C10_6 1_555 1_555
O12_2 C14_3 1_555 1_555
C14_3 C18_3 1_555 1_555
Hf6_3 O8_6 1_555 1_555
O13_2 C16_3 1_555 1_555
C18_3 C16_3 1_555 1_555
O20_4 Hf6_3 1_555 1_555
O9_6 Hf6_3 1_555 1_555
O12_2 Hf6_3 1_555 1_555
C12_6 H5_6 1_555 1_555
C18_3 H6_3 1_555 1_555
O4_5 C4_5 1_555 1_555
O5_5 C5_5 1_555 1_555
C4_5 C5_5 1_555 1_555
C6_5 C4_5 1_555 1_555
O4_5 Hf5_2 1_555 1_555
O5_5 Hf5_2 1_555 1_555
C6_5 H2_5 1_555 1_555
O4_6 C4_6 1_555 1_555
O5_6 C5_6 1_555 1_555
C4_6 C5_6 1_555 1_555
C6_6 C4_6 1_555 1_555
O19_4 Hf5_3 1_555 1_555
O4_6 Hf5_3 1_555 1_555
O5_6 Hf5_3 1_555 1_555
C6_6 H2_6 1_555 1_555
O17_3 C13_4 1_555 1_555
O19_3 C14_4 1_555 1_555
C13_4 C14_4 1_555 1_555
C14_4 C18_4 1_555 1_555
C15_4 C13_4 1_555 1_555
O18_3 C16_4 1_555 1_555
O20_3 C17_4 1_555 1_555
C16_4 C17_4 1_555 1_555
C17_4 C15_4 1_555 1_555
C18_4 C16_4 1_555 1_555
C15_4 H4_4 1_555 1_555
C18_4 H6_4 1_555 1_555
O18_4 C1_4 1_555 1_555
C3_4 C1_4 1_555 1_555
O19_4 C8_4 1_555 1_555
C8_4 C3_4 1_555 1_555
C3_4 H1_4 1_555 1_555
O20_4 C2_4 1_555 1_555
C2_4 C9_4 1_555 1_555
O17_4 C7_4 1_555 1_555
C9_4 C7_4 1_555 1_555
C9_4 H3_4 1_555 1_555

#END
