
###############################################################################
#
# This file contains modified crystal structure data generated from the
# MOF subset of the Cambridge Structural Database (CSD) v543 
# hosted by the Cambridge Crystallographic Data Centre (CCDC).
#
# This work is licensed under the Creative Commons
# Attribution-NonCommercial-ShareAlike 4.0 International License.
# To view a copy of this license, visit
# http://creativecommons.org/licenses/by-nc-sa/4.0/
# or send a letter to
# Creative Commons, PO Box 1866, Mountain View, CA 94042, USA.
#
# CIF created using the CSD Python API on 29 September 2022
# The structure has been converted into the P1 space group
# The structure has a 3D framework
# The original CSD entry IPIJUM is in the triclinic crystal system
# The framework has been calculated to contain at least 10.0% void space
# The void calculation uses a probe of radius 1.32A, grid spacing 0.4
# H atom positions have been added when not included in the experimental data
# Generated hydrogen atom positions removed from atoms on special positions
#
###############################################################################

data_IPIJUM
_chemical_formula_moiety         '(C30 H54 Er4 O33)n'
_symmetry_cell_setting           triclinic
_symmetry_space_group_name_H-M   'P 1'
_symmetry_Int_Tables_number      1
_space_group_name_Hall           'P 1'
loop_
_symmetry_equiv_pos_site_id
_symmetry_equiv_pos_as_xyz
1 x,y,z
_cell_length_a                   10.4005(2)
_cell_length_b                   10.6486(2)
_cell_length_c                   13.6321(3)
_cell_angle_alpha                105.3070(7)
_cell_angle_beta                 93.8350(8)
_cell_angle_gamma                108.9350(12)
_cell_volume                     1358.02
loop_
_atom_site_label
_atom_site_type_symbol
_atom_site_fract_x
_atom_site_fract_y
_atom_site_fract_z
C27 C 0.0938(5) 0.0566(6) 0.5925(4)
C28 C 0.0590(6) 0.1415(6) 0.5424(4)
H6 H 0.0996 0.2376 0.5712
C29 C 0.1978(5) 0.1261(6) 0.6896(4)
O27 O 0.1799(4) 0.0763(4) 0.7636(3)
O28 O 0.2980(4) 0.2326(4) 0.6923(3)
Er7 Er 0.01863(2) 0.05028(2) 0.186580(18)
Er13 Er 0.47639(2) 0.41994(2) 0.811921(18)
C26 C 0.0345(5) 0.9113(6) 0.5496(4)
C30 C 0.0662(6) 0.8077(6) 0.5948(5)
O29 O 0.0324(4) 0.7989(4) 0.6800(3)
O30 O 0.1166(7) 0.7301(7) 0.5393(5)
O35 O 0.1053(4) 0.2756(5) 0.1584(4)
O36 O 0.2218(4) 0.1405(6) 0.3078(3)
O44 O 0.1953(4) 0.0555(5) 0.0936(3)
O46 O 0.0611(4) 0.8409(4) 0.1971(3)
O17 O 0.9676(4) 0.2011(4) 0.3200(3)
O18 O 0.8834(7) 0.2699(7) 0.4607(5)
C13 C 0.9655(5) 0.0887(6) 0.4504(4)
C15 C 0.9338(6) 0.1923(6) 0.4052(5)
Er1 Er 0.52361(2) 0.58006(2) 0.188079(18)
O1 O 0.5868(4) 0.7482(4) 0.0993(3)
O4 O 0.6193(6) 0.5077(5) 0.3170(4)
O5 O 0.3432(5) 0.4840(6) 0.2723(4)
O6 O 0.4271(5) 0.7481(6) 0.2622(5)
O9 O 0.4610(4) 0.3309(4) 0.1170(3)
O10 O 0.4805(4) 0.2367(4) 0.2432(3)
C1 C 0.4798(5) 0.1088(6) 0.0727(4)
C2 C 0.3668(5) 0.0012(5) 0.0056(4)
C4 C 0.4694(5) 0.2340(6) 0.1508(4)
O11 O 0.3560(4) 0.5099(5) 0.0513(4)
C8 C 0.1209(5) 0.6111(5) 0.0487(4)
H2 H 0.2019 0.6854 0.0816
O15 O 0.8201(4) 0.9237(4) 0.2364(3)
O16 O 0.7020(4) 0.7674(4) 0.3077(3)
C11 C 0.9062(5) 0.9434(6) 0.4075(4)
C12 C 0.9410(6) 0.8585(6) 0.4576(4)
H3 H 0.9004 0.7624 0.4288
C14 C 0.8022(5) 0.8739(6) 0.3104(4)
C16 C 0.6119(5) 0.1055(6) 0.0658(5)
O21 O 0.8610(4) 0.0616(4) 0.0736(3)
H4 H 0.6871 0.1769 0.1103
O37 O 0.7144(4) 0.5545(5) 0.1172(3)
Er12 Er 0.98137(2) 0.94972(2) 0.813420(18)
O12 O 0.2856(4) 0.4455(5) 0.8828(3)
O13 O 0.0779(4) 0.1832(4) 0.9404(3)
C6 C 0.0057(5) 0.3728(6) 0.9418(4)
C7 C 0.1278(5) 0.4867(5) 0.9911(4)
C9 C 0.0097(5) 0.2316(5) 0.8904(5)
C10 C 0.2671(5) 0.4783(5) 0.9738(4)
C20 C 0.7769(5) 0.0004(5) 0.9904(4)
C5 C 0.2231(5) 0.9996(5) 0.0096(4)
O45 O 0.9221(4) 0.8168(4) 0.0596(3)
O7 O 0.1390(4) 0.9384(4) 0.9264(3)
C3 C 0.3881(5) 0.8945(6) 0.9342(5)
H1 H 0.3129 0.8231 0.8897
C17 C 0.6332(5) 0.9988(5) 0.9944(4)
C18 C 0.5202(5) 0.8912(6) 0.9273(4)
C19 C 0.5306(5) 0.7660(6) 0.8492(4)
O19 O 0.5390(4) 0.6691(4) 0.8830(3)
O20 O 0.5195(4) 0.7633(4) 0.7568(3)
O22 O 0.8047(4) 0.9445(5) 0.9064(3)
O31 O 0.4132(4) 0.2518(4) 0.9007(3)
O32 O 0.3807(6) 0.4923(5) 0.6830(4)
O33 O 0.6568(5) 0.5160(6) 0.7277(4)
O34 O 0.5729(5) 0.2519(6) 0.7378(5)
O41 O 0.6440(4) 0.4901(5) 0.9487(4)
C22 C 0.8722(5) 0.5133(5) 0.0089(4)
C23 C 0.9943(5) 0.6272(6) 0.0582(4)
C24 C 0.9903(5) 0.7684(5) 0.1096(5)
C25 C 0.7329(5) 0.5217(5) 0.0262(4)
O14 O 0.9389(4) 0.1591(4) 0.8029(3)
C21 C 0.8791(5) 0.3889(5) 0.9513(4)
H5 H 0.7981 0.3146 0.9184
O2 O 0.8947(4) 0.7244(5) 0.8416(4)
O3 O 0.7782(4) 0.8595(6) 0.6922(3)
loop_
_geom_bond_atom_site_label_1
_geom_bond_atom_site_label_2
_geom_bond_site_symmetry_1
_geom_bond_site_symmetry_2
H6 C28 1_555 1_555
C29 C27 1_555 1_555
O27 C29 1_555 1_555
O28 C29 1_555 1_555
Er13 O28 1_555 1_555
C27 C28 1_555 1_555
C30 C26 1_555 1_555
O29 C30 1_555 1_555
O30 C30 1_555 1_555
O35 Er7 1_555 1_555
O36 Er7 1_555 1_555
O44 Er7 1_555 1_555
O17 C15 1_555 1_555
O18 C15 1_555 1_555
C15 C13 1_555 1_555
Er1 O1 1_555 1_555
O4 Er1 1_555 1_555
O5 Er1 1_555 1_555
O6 Er1 1_555 1_555
O9 Er1 1_555 1_555
O10 C4 1_555 1_555
C1 C2 1_555 1_555
C4 O9 1_555 1_555
O11 Er1 1_555 1_555
C8 H2 1_555 1_555
O15 C14 1_555 1_555
O16 Er1 1_555 1_555
C11 C12 1_555 1_555
C12 H3 1_555 1_555
C14 O16 1_555 1_555
C16 C1 1_555 1_555
H4 C16 1_555 1_555
O37 Er1 1_555 1_555
C1 C4 1_555 1_555
C11 C14 1_555 1_555
O12 C10 1_555 1_555
C6 C7 1_555 1_555
C9 O13 1_555 1_555
Er13 O12 1_555 1_555
C6 C9 1_555 1_555
C7 C10 1_555 1_555
C3 H1 1_555 1_555
C18 C3 1_555 1_555
C19 C18 1_555 1_555
O19 C19 1_555 1_555
O20 C19 1_555 1_555
Er13 O19 1_555 1_555
O31 Er13 1_555 1_555
O32 Er13 1_555 1_555
O33 Er13 1_555 1_555
O34 Er13 1_555 1_555
Er12 O22 1_555 1_555
O41 Er13 1_555 1_555
C17 C18 1_555 1_555
C24 C23 1_555 1_555
O45 C24 1_555 1_555
C25 C22 1_555 1_555
O37 C25 1_555 1_555
C22 C23 1_555 1_555
H5 C21 1_555 1_555
Er12 O2 1_555 1_555
O3 Er12 1_555 1_555

#END
