
###############################################################################
#
# This file contains modified crystal structure data generated from the
# MOF subset of the Cambridge Structural Database (CSD) v543 
# hosted by the Cambridge Crystallographic Data Centre (CCDC).
#
# This work is licensed under the Creative Commons
# Attribution-NonCommercial-ShareAlike 4.0 International License.
# To view a copy of this license, visit
# http://creativecommons.org/licenses/by-nc-sa/4.0/
# or send a letter to
# Creative Commons, PO Box 1866, Mountain View, CA 94042, USA.
#
# CIF created using the CSD Python API on 29 September 2022
# The structure has been converted into the P1 space group
# The structure has a 3D framework
# The original CSD entry IPOCEY is in the orthorhombic crystal system
# The framework has been calculated to contain at least 10.0% void space
# The void calculation uses a probe of radius 1.32A, grid spacing 0.4
# The framework is charged, counterions have been retained in the structure
# H atom positions have been added when not included in the experimental data
# Generated hydrogen atom positions removed from atoms on special positions
#
###############################################################################

data_IPOCEY
_chemical_formula_moiety         '(C32 H178 Cl12 O75 U20)n'
_symmetry_cell_setting           triclinic
_symmetry_space_group_name_H-M   'P 1'
_symmetry_Int_Tables_number      1
_space_group_name_Hall           'P 1'
loop_
_symmetry_equiv_pos_site_id
_symmetry_equiv_pos_as_xyz
1 x,y,z
_cell_length_a                   12.9755(5)
_cell_length_b                   16.0185(6)
_cell_length_c                   16.1802(6)
_cell_angle_alpha                90
_cell_angle_beta                 90
_cell_angle_gamma                90
_cell_volume                     3363.02
loop_
_atom_site_label
_atom_site_type_symbol
_atom_site_fract_x
_atom_site_fract_y
_atom_site_fract_z
Cl1 Cl 0.500000 0.3394(2) 0.1423(2)
Cl1_2 Cl 0.500000 0.6606(2) 0.8577(2)
Cl1_3 Cl 0.500000 0.3394(2) 0.8577(2)
Cl1_4 Cl 0.500000 0.6606(2) 0.1423(2)
Cl1_5 Cl -0.000000 0.8394(2) 0.6423(2)
Cl1_6 Cl 1.000000 0.8394(2) 0.6423(2)
Cl1_7 Cl -0.000000 0.1606(2) 0.3577(2)
Cl1_8 Cl 1.000000 0.1606(2) 0.3577(2)
Cl1_9 Cl -0.000000 0.8394(2) 0.3577(2)
Cl1_10 Cl 1.000000 0.8394(2) 0.3577(2)
Cl1_11 Cl -0.000000 0.1606(2) 0.6423(2)
Cl1_12 Cl 1.000000 0.1606(2) 0.6423(2)
U5 U 0.500000 0.000000 0.67264(2)
U1 U -0.000000 0.500000 0.17264(2)
U2 U 0.14855(2) 0.38348(2) 0.000000
O1 O 0.1187(3) 0.4020(3) 0.2322(3)
O2 O 0.2060(4) 0.3376(3) 0.1311(3)
C1 C 0.1797(5) 0.3468(4) 0.2058(4)
C2 C 0.2273(5) 0.2891(4) 0.2687(4)
H1 H 0.174062 0.273079 0.309556
H2 H 0.282287 0.319541 0.298656
O3 O -0.000000 0.3994(8) 0.0694(8)
O4 O 0.1638(11) 0.500000 0.0886(8)
H3 H 0.211(18) 0.500000 0.102(13)
O5 O 0.1198(6) 0.2298(4) 0.000000
O6 O 0.3277(6) 0.3209(7) 0.000000
O7 O -0.000000 0.500000 0.3352(5)
H4 H -0.000000 0.547(3) 0.363(6)
O8 O 0.3813(3) 0.0980(3) 0.2678(3)
O9 O 0.2940(4) 0.1624(3) 0.3689(3)
C3 C 0.3203(5) 0.1532(4) 0.2942(4)
C4 C 0.2727(5) 0.2109(4) 0.2313(4)
H5 H 0.325938 0.226921 0.190444
H6 H 0.217713 0.180459 0.201344
H7 H -0.000000 0.453(3) 0.363(6)
U3 U 0.14855(2) 0.61652(2) 0.000000
O14 O 0.1198(6) 0.7702(4) 0.000000
O15 O 0.3277(6) 0.6791(7) 0.000000
U6 U 0.500000 0.000000 0.32736(2)
U10 U 0.35145(2) 0.11652(2) 0.500000
O20 O 0.1187(3) 0.5980(3) 0.2322(3)
O21 O 0.2060(4) 0.6624(3) 0.1311(3)
O24 O -0.000000 0.6006(8) 0.0694(8)
U2_2 U 0.14855(2) 0.38348(2) 1.000000
O5_2 O 0.1198(6) 0.2298(4) 1.000000
O6_2 O 0.3277(6) 0.3209(7) 1.000000
U3_2 U 0.14855(2) 0.61652(2) 1.000000
O10 O 0.1187(3) 0.5980(3) 0.7678(3)
O11 O 0.2060(4) 0.6624(3) 0.8689(3)
C5 C 0.1797(5) 0.6532(4) 0.7942(4)
C6 C 0.2273(5) 0.7109(4) 0.7313(4)
H8 H 0.174062 0.726921 0.690444
H9 H 0.282287 0.680459 0.701344
O12 O -0.000000 0.6006(8) 0.9306(8)
O13 O 0.1638(11) 0.500000 0.9114(8)
H10 H 0.211(18) 0.500000 0.898(13)
O14_2 O 0.1198(6) 0.7702(4) 1.000000
O15_2 O 0.3277(6) 0.6791(7) 1.000000
O16 O 0.3813(3) 0.9020(3) 0.7322(3)
O17 O 0.2940(4) 0.8376(3) 0.6311(3)
C7 C 0.3203(5) 0.8468(4) 0.7058(4)
C8 C 0.2727(5) 0.7891(4) 0.7687(4)
H11 H 0.325938 0.773079 0.809556
H12 H 0.217713 0.819541 0.798656
U4 U -0.000000 0.500000 0.82736(2)
U5_2 U 0.500000 1.000000 0.67264(2)
U9 U 0.35145(2) 0.88348(2) 0.500000
O22 O 0.2060(4) 0.3376(3) 0.8689(3)
O23 O -0.000000 0.3994(8) 0.9306(8)
U6_2 U 0.500000 1.000000 0.32736(2)
U1_2 U 1.000000 0.500000 0.17264(2)
O3_2 O 1.000000 0.3994(8) 0.0694(8)
O7_2 O 1.000000 0.500000 0.3352(5)
H4_2 H 1.000000 0.547(3) 0.363(6)
H7_2 H 1.000000 0.453(3) 0.363(6)
U7 U 0.85145(2) 0.38348(2) 0.000000
U8 U 0.85145(2) 0.61652(2) 0.000000
O18 O 0.8813(3) 0.5980(3) 0.2322(3)
O19 O 0.8813(3) 0.4020(3) 0.2322(3)
O24_2 O 1.000000 0.6006(8) 0.0694(8)
O25 O 0.8362(11) 0.500000 0.0886(8)
O12_2 O 1.000000 0.6006(8) 0.9306(8)
U4_2 U 1.000000 0.500000 0.82736(2)
U7_2 U 0.85145(2) 0.38348(2) 1.000000
U8_2 U 0.85145(2) 0.61652(2) 1.000000
O23_2 O 1.000000 0.3994(8) 0.9306(8)
O7_3 O -0.000000 0.500000 0.6648(5)
H4_3 H -0.000000 0.453(3) 0.637(6)
H7_3 H -0.000000 0.547(3) 0.637(6)
O20_2 O 0.1187(3) 0.4020(3) 0.7678(3)
O7_4 O 1.000000 0.500000 0.6648(5)
H4_4 H 1.000000 0.453(3) 0.637(6)
H7_4 H 1.000000 0.547(3) 0.637(6)
O18_2 O 0.8813(3) 0.4020(3) 0.7678(3)
O19_2 O 0.8813(3) 0.5980(3) 0.7678(3)
O25_2 O 0.8362(11) 0.500000 0.9114(8)
O5_3 O 0.8802(6) 0.2298(4) 0.000000
O6_3 O 0.6723(6) 0.3209(7) 0.000000
O11_2 O 0.7940(4) 0.6624(3) 0.1311(3)
C5_2 C 0.8203(5) 0.6532(4) 0.2058(4)
C6_2 C 0.7727(5) 0.7109(4) 0.2687(4)
H8_2 H 0.825938 0.726921 0.309556
H9_2 H 0.717713 0.680459 0.298656
H10_2 H 0.789(18) 0.500000 0.102(13)
O14_3 O 0.8802(6) 0.7702(4) 0.000000
O15_3 O 0.6723(6) 0.6791(7) 0.000000
O16_2 O 0.6187(3) 0.9020(3) 0.2678(3)
O17_2 O 0.7060(4) 0.8376(3) 0.3689(3)
C7_2 C 0.6797(5) 0.8468(4) 0.2942(4)
C8_2 C 0.7273(5) 0.7891(4) 0.2313(4)
H11_2 H 0.674062 0.773079 0.190444
H12_2 H 0.782287 0.819541 0.201344
U9_2 U 0.64855(2) 0.88348(2) 0.500000
O22_2 O 0.7940(4) 0.3376(3) 0.1311(3)
O2_2 O 0.7940(4) 0.3376(3) 0.8689(3)
C1_2 C 0.8203(5) 0.3468(4) 0.7942(4)
C2_2 C 0.7727(5) 0.2891(4) 0.7313(4)
H1_2 H 0.825938 0.273079 0.690444
H2_2 H 0.717713 0.319541 0.701344
H3_2 H 0.789(18) 0.500000 0.898(13)
O5_4 O 0.8802(6) 0.2298(4) 1.000000
O6_4 O 0.6723(6) 0.3209(7) 1.000000
O8_2 O 0.6187(3) 0.0980(3) 0.7322(3)
O9_2 O 0.7060(4) 0.1624(3) 0.6311(3)
C3_2 C 0.6797(5) 0.1532(4) 0.7058(4)
C4_2 C 0.7273(5) 0.2109(4) 0.7687(4)
H5_2 H 0.674062 0.226921 0.809556
H6_2 H 0.782287 0.180459 0.798656
O14_4 O 0.8802(6) 0.7702(4) 1.000000
O15_4 O 0.6723(6) 0.6791(7) 1.000000
U10_2 U 0.64855(2) 0.11652(2) 0.500000
O21_2 O 0.7940(4) 0.6624(3) 0.8689(3)
O4_2 O 0.6638(11) 0.000000 0.5886(8)
H3_3 H 0.711(18) 0.000000 0.602(13)
O7_5 O 0.500000 0.000000 0.8352(5)
H4_5 H 0.500000 0.047(3) 0.863(6)
O10_2 O 0.6187(3) 0.0980(3) 0.2678(3)
O11_3 O 0.7060(4) 0.1624(3) 0.3689(3)
C5_3 C 0.6797(5) 0.1532(4) 0.2942(4)
C6_3 C 0.7273(5) 0.2109(4) 0.2313(4)
H8_3 H 0.674062 0.226921 0.190444
H9_3 H 0.782287 0.180459 0.201344
O12_3 O 0.500000 0.1006(8) 0.4306(8)
O13_2 O 0.6638(11) 0.000000 0.4114(8)
H10_3 H 0.711(18) 0.000000 0.398(13)
O14_5 O 0.6198(6) 0.2702(4) 0.500000
O15_5 O 0.8277(6) 0.1791(7) 0.500000
C7_3 C 0.8203(5) 0.3468(4) 0.2058(4)
C8_3 C 0.7727(5) 0.2891(4) 0.2687(4)
H11_3 H 0.825938 0.273079 0.309556
H12_3 H 0.717713 0.319541 0.298656
O18_3 O 0.3813(3) 0.0980(3) 0.7322(3)
O24_3 O 0.500000 0.1006(8) 0.5694(8)
O25_3 O 0.3362(11) 0.000000 0.5886(8)
O1_2 O 0.6187(3) 0.9020(3) 0.7322(3)
O2_3 O 0.7060(4) 0.8376(3) 0.6311(3)
C1_3 C 0.6797(5) 0.8468(4) 0.7058(4)
C2_3 C 0.7273(5) 0.7891(4) 0.7687(4)
H1_3 H 0.674062 0.773079 0.809556
H2_3 H 0.782287 0.819541 0.798656
O3_3 O 0.500000 0.8994(8) 0.5694(8)
O4_3 O 0.6638(11) 1.000000 0.5886(8)
H3_4 H 0.711(18) 1.000000 0.602(13)
O5_5 O 0.6198(6) 0.7298(4) 0.500000
O6_5 O 0.8277(6) 0.8209(7) 0.500000
O7_6 O 0.500000 1.000000 0.8352(5)
C3_3 C 0.8203(5) 0.6532(4) 0.7942(4)
C4_3 C 0.7727(5) 0.7109(4) 0.7313(4)
H5_3 H 0.825938 0.726921 0.690444
H6_3 H 0.717713 0.680459 0.701344
H7_5 H 0.500000 0.953(3) 0.863(6)
O13_3 O 0.6638(11) 1.000000 0.4114(8)
H10_4 H 0.711(18) 1.000000 0.398(13)
O23_3 O 0.500000 0.8994(8) 0.4306(8)
O25_4 O 0.3362(11) 1.000000 0.5886(8)
O7_7 O 0.500000 -0.000000 0.1648(5)
H7_6 H 0.500000 0.047(3) 0.137(6)
O25_5 O 0.3362(11) -0.000000 0.4114(8)
O7_8 O 0.500000 1.000000 0.1648(5)
H4_6 H 0.500000 0.953(3) 0.137(6)
O18_4 O 0.3813(3) 0.9020(3) 0.2678(3)
O25_6 O 0.3362(11) 1.000000 0.4114(8)
H3_5 H 0.289(18) 0.000000 0.398(13)
O11_4 O 0.2940(4) 0.1624(3) 0.6311(3)
C5_4 C 0.3203(5) 0.1532(4) 0.7058(4)
C6_4 C 0.2727(5) 0.2109(4) 0.7687(4)
H8_4 H 0.325938 0.226921 0.809556
H9_4 H 0.217713 0.180459 0.798656
H10_5 H 0.289(18) 0.000000 0.602(13)
O14_6 O 0.3802(6) 0.2702(4) 0.500000
O15_6 O 0.1723(6) 0.1791(7) 0.500000
C7_4 C 0.1797(5) 0.3468(4) 0.7942(4)
C8_4 C 0.2273(5) 0.2891(4) 0.7313(4)
H11_4 H 0.174062 0.273079 0.690444
H12_4 H 0.282287 0.319541 0.701344
O2_4 O 0.2940(4) 0.8376(3) 0.3689(3)
C1_4 C 0.3203(5) 0.8468(4) 0.2942(4)
C2_4 C 0.2727(5) 0.7891(4) 0.2313(4)
H1_4 H 0.325938 0.773079 0.190444
H2_4 H 0.217713 0.819541 0.201344
H3_6 H 0.289(18) 1.000000 0.398(13)
O5_6 O 0.3802(6) 0.7298(4) 0.500000
O6_6 O 0.1723(6) 0.8209(7) 0.500000
C3_4 C 0.1797(5) 0.6532(4) 0.2058(4)
C4_4 C 0.2273(5) 0.7109(4) 0.2687(4)
H5_4 H 0.174062 0.726921 0.309556
H6_4 H 0.282287 0.680459 0.298656
H10_6 H 0.289(18) 1.000000 0.602(13)
loop_
_geom_bond_atom_site_label_1
_geom_bond_atom_site_label_2
_geom_bond_site_symmetry_1
_geom_bond_site_symmetry_2
U1 O1 1_555 1_555
U2 O2 1_555 1_555
O1 C1 1_555 1_555
O2 C1 1_555 1_555
C1 C2 1_555 1_555
C2 H1 1_555 1_555
H2 C2 1_555 1_555
O3 U1 1_555 1_555
O4 U1 1_555 1_555
H3 O4 1_555 1_555
O5 U2 1_555 1_555
O6 U2 1_555 1_555
O7 U1 1_555 1_555
H4 O7 1_555 1_555
O8 C3 1_555 1_555
O9 C3 1_555 1_555
C3 C4 1_555 1_555
C4 C2 1_555 1_555
H5 C4 1_555 1_555
H6 C4 1_555 1_555
H7 O7 1_555 1_555
U3 O4 1_555 1_555
O14 U3 1_555 1_555
O15 U3 1_555 1_555
U6 O8 1_555 1_555
U10 O9 1_555 1_555
O20 U1 1_555 1_555
O21 U3 1_555 1_555
O24 U1 1_555 1_555
U2 O3 1_555 1_555
U2 O4 1_555 1_555
U3 O24 1_555 1_555
O5_2 U2_2 1_555 1_555
O6_2 U2_2 1_555 1_555
O10 C5 1_555 1_555
O11 U3_2 1_555 1_555
C5 O11 1_555 1_555
C6 C5 1_555 1_555
H8 C6 1_555 1_555
H9 C6 1_555 1_555
O12 U3_2 1_555 1_555
O13 U2_2 1_555 1_555
H10 O13 1_555 1_555
O14_2 U3_2 1_555 1_555
O15_2 U3_2 1_555 1_555
O16 C7 1_555 1_555
O17 C7 1_555 1_555
C7 C8 1_555 1_555
C8 C6 1_555 1_555
H11 C8 1_555 1_555
H12 C8 1_555 1_555
U4 O10 1_555 1_555
U5_2 O16 1_555 1_555
U9 O17 1_555 1_555
O22 U2_2 1_555 1_555
O23 U2_2 1_555 1_555
U3_2 O13 1_555 1_555
O12 U4 1_555 1_555
O13 U4 1_555 1_555
U4 O23 1_555 1_555
O3_2 U1_2 1_555 1_555
O7_2 U1_2 1_555 1_555
H4_2 O7_2 1_555 1_555
H7_2 O7_2 1_555 1_555
U7 O3_2 1_555 1_555
O18 U1_2 1_555 1_555
O19 U1_2 1_555 1_555
O24_2 U1_2 1_555 1_555
O25 U1_2 1_555 1_555
U7 O25 1_555 1_555
U8 O24_2 1_555 1_555
U8 O25 1_555 1_555
U8_2 O12_2 1_555 1_555
O12_2 U4_2 1_555 1_555
U4_2 O23_2 1_555 1_555
U7_2 O23_2 1_555 1_555
O7_3 U4 1_555 1_555
H4_3 O7_3 1_555 1_555
H7_3 O7_3 1_555 1_555
O20_2 U4 1_555 1_555
O7_4 U4_2 1_555 1_555
H4_4 O7_4 1_555 1_555
H7_4 O7_4 1_555 1_555
O18_2 U4_2 1_555 1_555
O19_2 U4_2 1_555 1_555
O25_2 U4_2 1_555 1_555
U8_2 O25_2 1_555 1_555
U7_2 O25_2 1_555 1_555
O5_3 U7 1_555 1_555
O6_3 U7 1_555 1_555
O18 C5_2 1_555 1_555
O11_2 U8 1_555 1_555
C5_2 O11_2 1_555 1_555
C6_2 C5_2 1_555 1_555
H8_2 C6_2 1_555 1_555
H9_2 C6_2 1_555 1_555
H10_2 O25 1_555 1_555
O14_3 U8 1_555 1_555
O15_3 U8 1_555 1_555
O16_2 C7_2 1_555 1_555
O17_2 C7_2 1_555 1_555
C7_2 C8_2 1_555 1_555
C8_2 C6_2 1_555 1_555
H11_2 C8_2 1_555 1_555
H12_2 C8_2 1_555 1_555
U6_2 O16_2 1_555 1_555
U9_2 O17_2 1_555 1_555
O22_2 U7 1_555 1_555
U7_2 O2_2 1_555 1_555
O18_2 C1_2 1_555 1_555
O2_2 C1_2 1_555 1_555
C1_2 C2_2 1_555 1_555
C2_2 H1_2 1_555 1_555
H2_2 C2_2 1_555 1_555
H3_2 O25_2 1_555 1_555
O5_4 U7_2 1_555 1_555
O6_4 U7_2 1_555 1_555
O8_2 C3_2 1_555 1_555
O9_2 C3_2 1_555 1_555
C3_2 C4_2 1_555 1_555
C4_2 C2_2 1_555 1_555
H5_2 C4_2 1_555 1_555
H6_2 C4_2 1_555 1_555
O14_4 U8_2 1_555 1_555
O15_4 U8_2 1_555 1_555
U5 O8_2 1_555 1_555
U10_2 O9_2 1_555 1_555
O21_2 U8_2 1_555 1_555
O4_2 U5 1_555 1_555
H3_3 O4_2 1_555 1_555
O7_5 U5 1_555 1_555
H4_5 O7_5 1_555 1_555
U10_2 O4_2 1_555 1_555
O10_2 C5_3 1_555 1_555
O11_3 U10_2 1_555 1_555
C5_3 O11_3 1_555 1_555
C6_3 C5_3 1_555 1_555
H8_3 C6_3 1_555 1_555
H9_3 C6_3 1_555 1_555
O12_3 U10_2 1_555 1_555
H10_3 O13_2 1_555 1_555
O14_5 U10_2 1_555 1_555
O15_5 U10_2 1_555 1_555
O19 C7_3 1_555 1_555
O22_2 C7_3 1_555 1_555
C7_3 C8_3 1_555 1_555
C8_3 C6_3 1_555 1_555
H11_3 C8_3 1_555 1_555
H12_3 C8_3 1_555 1_555
U6 O10_2 1_555 1_555
U10 O12_3 1_555 1_555
O18_3 U5 1_555 1_555
O24_3 U5 1_555 1_555
O25_3 U5 1_555 1_555
U10_2 O13_2 1_555 1_555
U10_2 O24_3 1_555 1_555
O12_3 U6 1_555 1_555
O13_2 U6 1_555 1_555
U10 O24_3 1_555 1_555
U10 O25_3 1_555 1_555
U5_2 O1_2 1_555 1_555
U9_2 O2_3 1_555 1_555
O1_2 C1_3 1_555 1_555
O2_3 C1_3 1_555 1_555
C1_3 C2_3 1_555 1_555
C2_3 H1_3 1_555 1_555
H2_3 C2_3 1_555 1_555
O3_3 U5_2 1_555 1_555
O4_3 U5_2 1_555 1_555
H3_4 O4_3 1_555 1_555
O5_5 U9_2 1_555 1_555
O6_5 U9_2 1_555 1_555
O7_6 U5_2 1_555 1_555
O19_2 C3_3 1_555 1_555
O21_2 C3_3 1_555 1_555
C3_3 C4_3 1_555 1_555
C4_3 C2_3 1_555 1_555
H5_3 C4_3 1_555 1_555
H6_3 C4_3 1_555 1_555
H7_5 O7_6 1_555 1_555
O13_3 U9_2 1_555 1_555
H10_4 O13_3 1_555 1_555
U9 O3_3 1_555 1_555
O23_3 U9_2 1_555 1_555
O25_4 U5_2 1_555 1_555
U9_2 O3_3 1_555 1_555
U9_2 O4_3 1_555 1_555
O13_3 U6_2 1_555 1_555
U6_2 O23_3 1_555 1_555
U9 O23_3 1_555 1_555
U9 O25_4 1_555 1_555
O7_7 U6 1_555 1_555
H7_6 O7_7 1_555 1_555
O25_5 U6 1_555 1_555
U10 O25_5 1_555 1_555
O7_8 U6_2 1_555 1_555
H4_6 O7_8 1_555 1_555
O18_4 U6_2 1_555 1_555
O25_6 U6_2 1_555 1_555
U9 O25_6 1_555 1_555
H3_5 O25_5 1_555 1_555
O18_3 C5_4 1_555 1_555
O11_4 U10 1_555 1_555
C5_4 O11_4 1_555 1_555
C6_4 C5_4 1_555 1_555
H8_4 C6_4 1_555 1_555
H9_4 C6_4 1_555 1_555
H10_5 O25_3 1_555 1_555
O14_6 U10 1_555 1_555
O15_6 U10 1_555 1_555
O20_2 C7_4 1_555 1_555
O22 C7_4 1_555 1_555
C7_4 C8_4 1_555 1_555
C8_4 C6_4 1_555 1_555
H11_4 C8_4 1_555 1_555
H12_4 C8_4 1_555 1_555
U9 O2_4 1_555 1_555
O18_4 C1_4 1_555 1_555
O2_4 C1_4 1_555 1_555
C1_4 C2_4 1_555 1_555
C2_4 H1_4 1_555 1_555
H2_4 C2_4 1_555 1_555
H3_6 O25_6 1_555 1_555
O5_6 U9 1_555 1_555
O6_6 U9 1_555 1_555
O20 C3_4 1_555 1_555
O21 C3_4 1_555 1_555
C3_4 C4_4 1_555 1_555
C4_4 C2_4 1_555 1_555
H5_4 C4_4 1_555 1_555
H6_4 C4_4 1_555 1_555
H10_6 O25_4 1_555 1_555

#END
