
###############################################################################
#
# This file contains modified crystal structure data generated from the
# MOF subset of the Cambridge Structural Database (CSD) v543 
# hosted by the Cambridge Crystallographic Data Centre (CCDC).
#
# This work is licensed under the Creative Commons
# Attribution-NonCommercial-ShareAlike 4.0 International License.
# To view a copy of this license, visit
# http://creativecommons.org/licenses/by-nc-sa/4.0/
# or send a letter to
# Creative Commons, PO Box 1866, Mountain View, CA 94042, USA.
#
# CIF created using the CSD Python API on 29 September 2022
# The structure has been converted into the P1 space group
# The structure has a 3D framework
# The original CSD entry IPOMOR is in the monoclinic crystal system
# The framework has been calculated to contain at least 10.0% void space
# The void calculation uses a probe of radius 1.32A, grid spacing 0.4
#
###############################################################################

data_IPOMOR
_chemical_formula_moiety         '(C80 H64 Cu4 F24 N48 Si4)n'
_symmetry_cell_setting           triclinic
_symmetry_space_group_name_H-M   'P 1'
_symmetry_Int_Tables_number      1
_space_group_name_Hall           'P 1'
loop_
_symmetry_equiv_pos_site_id
_symmetry_equiv_pos_as_xyz
1 x,y,z
_cell_length_a                   12.697(8)
_cell_length_b                   25.099(15)
_cell_length_c                   12.664(8)
_cell_angle_alpha                90
_cell_angle_beta                 117.423(8)
_cell_angle_gamma                90
_cell_volume                     3582.29
loop_
_atom_site_label
_atom_site_type_symbol
_atom_site_fract_x
_atom_site_fract_y
_atom_site_fract_z
C6 C 0.0794(4) 0.36052(15) 0.2516(4)
H5 H 0.0400 0.3739 0.2922
C7 C 0.1567(5) 0.30747(17) 0.1791(6)
H6 H 0.1827 0.2761 0.1596
C8 C 0.1808(5) 0.35748(17) 0.1529(6)
H7 H 0.2220 0.3667 0.1109
C9 C 0.1274(4) 0.44761(16) 0.1995(4)
C10 C 0.1460(4) 0.46993(15) 0.1191(4)
H8 H 0.1645 0.4495 0.0687
C11 C 0.1387(4) 0.52317(15) 0.1077(4)
H9 H 0.1525 0.5402 0.0501
C12 C 0.1125(4) 0.54954(16) 0.1777(4)
C13 C 0.1298(5) 0.63505(18) 0.0849(6)
H10 H 0.1682 0.6233 0.0419
C19 C 0.0922(5) 0.68511(19) 0.0907(5)
H15 H 0.0986 0.7141 0.0482
C20 C 0.0480(4) 0.63859(16) 0.2017(4)
H16 H 0.0186 0.6277 0.2533
Cu1 Cu 0.02329(4) 0.249609(19) 0.28647(5)
F1 F 0.0372(2) 0.19356(9) 0.1284(2)
F3 F 0.0525(2) 0.09871(9) 0.1310(2)
F5 F 0.1645(2) 0.14959(10) 0.0626(3)
N3 N 0.0912(3) 0.30959(12) 0.2360(3)
N4 N 0.1309(3) 0.39072(13) 0.2022(3)
N5 N 0.1072(5) 0.47466(18) 0.2846(5)
N6 N 0.0972(5) 0.52936(17) 0.2733(5)
N7 N 0.0983(3) 0.60601(13) 0.1570(3)
N12 N 0.0436(3) 0.68743(12) 0.1668(3)
Si1 Si 0.02052(12) 0.14619(4) 0.02737(12)
N13 N 0.1881(3) 0.22560(13) 0.3961(3)
Cu4 Cu 0.02329(4) 0.250391(19) 0.78647(5)
C14 C 0.7956(4) 0.31725(18) 0.1591(4)
H11 H 0.8187 0.3444 0.2153
C15 C 0.6959(4) 0.31719(18) 0.0563(5)
H12 H 0.6385 0.3438 0.0279
C16 C 0.7963(3) 0.24497(17) 0.0743(4)
H13 H 0.8179 0.2120 0.0569
N8 N 0.8600(3) 0.27116(13) 0.1703(3)
N9 N 0.6948(3) 0.27039(15) 0.0015(3)
Cu3 Cu 0.97671(4) 0.749609(19) 0.21353(5)
F7 F 0.9915(2) 0.30618(9) 0.4245(2)
N14 N 0.9564(3) 0.18743(12) 0.3332(3)
C1 C 0.2444(4) 0.17991(19) 0.3866(5)
H1 H 0.2141 0.1566 0.3223
C2 C 0.3494(4) 0.17447(19) 0.4843(4)
H2 H 0.4055 0.1478 0.5001
C3 C 0.2597(3) 0.24672(16) 0.5004(4)
H3 H 0.2444 0.2781 0.5300
C4 C 0.4494(4) 0.2270(2) 0.6736(4)
C5 C 0.5382(5) 0.1926(2) 0.7294(5)
H4 H 0.5430 0.1613 0.6925
C17 C 0.6114(3) 0.25252(18) 0.8858(4)
C18 C 0.6206(5) 0.2046(2) 0.8406(5)
H14 H 0.6815 0.1810 0.8849
F2 F 0.8767(2) 0.14240(10) 0.9913(3)
F4 F 0.9915(2) 0.19382(9) 0.9245(2)
F6 F 0.9970(3) 0.09880(10) 0.9248(2)
N1 N 0.3559(3) 0.21743(14) 0.5567(3)
N10 N 0.5260(4) 0.28386(19) 0.8316(4)
N11 N 0.4402(4) 0.2721(2) 0.7166(4)
C1_2 C 0.7556(4) 0.67991(19) 0.1134(5)
H1_2 H 0.7859 0.6566 0.1777
C2_2 C 0.6506(4) 0.67447(19) 0.0157(4)
N2 N 0.8119(3) 0.72560(13) 0.1039(3)
H2_2 H 0.5945 0.6478 0.9999
C3_2 C 0.7403(3) 0.74672(16) 0.9996(4)
H3_2 H 0.7556 0.7781 0.9700
C4_2 C 0.5506(4) 0.7270(2) 0.8264(4)
C5_2 C 0.4618(5) 0.6926(2) 0.7706(5)
H4_2 H 0.4570 0.6613 0.8075
C14_2 C 0.2044(4) 0.81725(18) 0.3409(4)
H11_2 H 0.1813 0.8444 0.2847
C15_2 C 0.3041(4) 0.81719(18) 0.4437(5)
H12_2 H 0.3615 0.8438 0.4721
C16_2 C 0.2037(3) 0.74497(17) 0.4257(4)
H13_2 H 0.1821 0.7120 0.4431
C17_2 C 0.3886(3) 0.75252(18) 0.6142(4)
C18_2 C 0.3794(5) 0.7046(2) 0.6594(5)
H14_2 H 0.3185 0.6810 0.6151
F2_2 F 0.1233(2) 0.64240(10) 0.5087(3)
F4_2 F 0.0085(2) 0.69382(9) 0.5755(2)
F6_2 F 0.0030(3) 0.59880(10) 0.5752(2)
N1_2 N 0.6441(3) 0.71743(14) 0.9433(3)
N8_2 N 0.1400(3) 0.77116(13) 0.3297(3)
N9_2 N 0.3052(3) 0.77039(15) 0.4985(3)
N10_2 N 0.4740(4) 0.78386(19) 0.6684(4)
N11_2 N 0.5598(4) 0.7721(2) 0.7834(4)
F7_2 F 0.0085(2) 0.80618(9) 0.0755(2)
C11_2 C 0.8613(4) 0.02317(15) 0.3923(4)
H9_2 H 0.8475 0.0402 0.4499
C12_2 C 0.8875(4) 0.04954(16) 0.3223(4)
C13_2 C 0.8702(5) 0.13505(18) 0.4151(6)
H10_2 H 0.8318 0.1233 0.4581
C19_2 C 0.9078(5) 0.18511(19) 0.4093(5)
H15_2 H 0.9014 0.2141 0.4518
C20_2 C 0.9520(4) 0.13859(16) 0.2983(4)
H16_2 H 0.9814 0.1277 0.2467
N6_2 N 0.9028(5) 0.02936(17) 0.2267(5)
N7_2 N 0.9017(3) 0.10601(13) 0.3430(3)
C6_2 C 0.9206(4) 0.86052(15) 0.2484(4)
H5_2 H 0.9600 0.8739 0.2078
C7_2 C 0.8433(5) 0.80747(17) 0.3209(6)
H6_2 H 0.8173 0.7761 0.3404
C8_2 C 0.8192(5) 0.85748(17) 0.3471(6)
H7_2 H 0.7780 0.8667 0.3891
C9_2 C 0.8726(4) 0.94761(16) 0.3005(4)
C10_2 C 0.8540(4) 0.96993(15) 0.3809(4)
H8_2 H 0.8355 0.9495 0.4313
F1_2 F 0.9628(2) 0.69356(9) 0.3716(2)
F3_2 F 0.9475(2) 0.59871(9) 0.3690(2)
F5_2 F 0.8355(2) 0.64959(10) 0.4374(3)
N3_2 N 0.9088(3) 0.80959(12) 0.2640(3)
N4_2 N 0.8691(3) 0.89072(13) 0.2978(3)
N5_2 N 0.8928(5) 0.97466(18) 0.2154(5)
Si1_2 Si 0.97948(12) 0.64619(4) 0.47263(12)
Cu4_2 Cu 0.97671(4) 0.750391(19) 0.71353(5)
C1_3 C 0.7556(4) 0.82009(19) 0.6134(5)
H1_3 H 0.7859 0.8434 0.6777
C2_3 C 0.6506(4) 0.82553(19) 0.5157(4)
H2_3 H 0.5945 0.8522 0.4999
C3_3 C 0.7403(3) 0.75328(16) 0.4996(4)
H3_3 H 0.7556 0.7219 0.4700
C4_3 C 0.5506(4) 0.7730(2) 0.3264(4)
C5_3 C 0.4618(5) 0.8074(2) 0.2706(5)
H4_3 H 0.4570 0.8387 0.3075
C17_3 C 0.3886(3) 0.74748(18) 0.1142(4)
C18_3 C 0.3794(5) 0.7954(2) 0.1594(5)
H14_3 H 0.3185 0.8190 0.1151
F2_3 F 0.1233(2) 0.85760(10) 0.0087(3)
F6_3 F 0.0030(3) 0.90120(10) 0.0752(2)
N1_3 N 0.6441(3) 0.78257(14) 0.4433(3)
N2_2 N 0.8119(3) 0.77440(13) 0.6039(3)
N10_3 N 0.4740(4) 0.71614(19) 0.1684(4)
N11_3 N 0.5598(4) 0.7279(2) 0.2834(4)
C14_3 C 0.2044(4) 0.68275(18) 0.8409(4)
H11_3 H 0.1813 0.6556 0.7847
C15_3 C 0.3041(4) 0.68281(18) 0.9437(5)
H12_3 H 0.3615 0.6562 0.9721
C16_3 C 0.2037(3) 0.75503(17) 0.9257(4)
H13_3 H 0.1821 0.7880 0.9431
N8_3 N 0.1400(3) 0.72884(13) 0.8297(3)
N9_3 N 0.3052(3) 0.72961(15) 0.9985(3)
N14_2 N 0.0436(3) 0.81257(12) 0.6668(3)
C6_3 C 0.9206(4) 0.63948(15) 0.7484(4)
H5_3 H 0.9600 0.6261 0.7078
C7_3 C 0.8433(5) 0.69253(17) 0.8209(6)
H6_3 H 0.8173 0.7239 0.8404
C8_3 C 0.8192(5) 0.64252(17) 0.8471(6)
H7_3 H 0.7780 0.6333 0.8891
C9_3 C 0.8726(4) 0.55239(16) 0.8005(4)
C10_3 C 0.8540(4) 0.53007(15) 0.8809(4)
H8_3 H 0.8355 0.5505 0.9313
C11_3 C 0.8613(4) 0.47683(15) 0.8923(4)
H9_3 H 0.8475 0.4598 0.9499
C12_3 C 0.8875(4) 0.45046(16) 0.8223(4)
C13_3 C 0.8702(5) 0.36495(18) 0.9151(6)
H10_3 H 0.8318 0.3767 0.9581
C19_3 C 0.9078(5) 0.31489(19) 0.9093(5)
H15_3 H 0.9014 0.2859 0.9518
C20_3 C 0.9520(4) 0.36141(16) 0.7983(4)
H16_3 H 0.9814 0.3723 0.7467
F1_3 F 0.9628(2) 0.80644(9) 0.8716(2)
F3_3 F 0.9475(2) 0.90129(9) 0.8690(2)
F5_3 F 0.8355(2) 0.85041(10) 0.9374(3)
N3_3 N 0.9088(3) 0.69041(12) 0.7640(3)
N4_3 N 0.8691(3) 0.60928(13) 0.7978(3)
N5_3 N 0.8928(5) 0.52534(18) 0.7154(5)
N6_3 N 0.9028(5) 0.47064(17) 0.7267(5)
N7_3 N 0.9017(3) 0.39399(13) 0.8430(3)
N12_2 N 0.9564(3) 0.31257(12) 0.8332(3)
Si1_3 Si 0.97948(12) 0.85381(4) 0.97263(12)
C6_4 C 0.0794(4) 0.13948(15) 0.7516(4)
H5_4 H 0.0400 0.1261 0.7922
C7_4 C 0.1567(5) 0.19253(17) 0.6791(6)
H6_4 H 0.1827 0.2239 0.6596
C8_4 C 0.1808(5) 0.14252(17) 0.6529(6)
H7_4 H 0.2220 0.1333 0.6109
C9_4 C 0.1274(4) 0.05239(16) 0.6995(4)
C10_4 C 0.1460(4) 0.03007(15) 0.6191(4)
H8_4 H 0.1645 0.0505 0.5687
F1_4 F 0.0372(2) 0.30644(9) 0.6284(2)
F3_4 F 0.0525(2) 0.40129(9) 0.6310(2)
F5_4 F 0.1645(2) 0.35041(10) 0.5626(3)
N3_4 N 0.0912(3) 0.19041(12) 0.7360(3)
N4_4 N 0.1309(3) 0.10928(13) 0.7022(3)
N5_4 N 0.1072(5) 0.02534(18) 0.7846(5)
Si1_4 Si 0.02052(12) 0.35381(4) 0.52737(12)
N13_2 N 0.1881(3) 0.27440(13) 0.8961(3)
C11_4 C 0.1387(4) 0.97683(15) 0.6077(4)
H9_4 H 0.1525 0.9598 0.5501
C12_4 C 0.1125(4) 0.95046(16) 0.6777(4)
C13_4 C 0.1298(5) 0.86495(18) 0.5849(6)
H10_4 H 0.1682 0.8767 0.5419
C19_4 C 0.0922(5) 0.81489(19) 0.5907(5)
H15_4 H 0.0986 0.7859 0.5482
C20_4 C 0.0480(4) 0.86141(16) 0.7017(4)
H16_4 H 0.0186 0.8723 0.7533
N6_4 N 0.0972(5) 0.97064(17) 0.7733(5)
N7_4 N 0.0983(3) 0.89399(13) 0.6570(3)
H2_4 H 0.4055 0.3522 0.0001
C3_4 C 0.2597(3) 0.25328(16) 0.0004(4)
H3_4 H 0.2444 0.2219 0.0300
C4_4 C 0.4494(4) 0.2730(2) 0.1736(4)
C5_4 C 0.5382(5) 0.3074(2) 0.2294(5)
H4_4 H 0.5430 0.3387 0.1925
C14_4 C 0.7956(4) 0.18275(18) 0.6591(4)
H11_4 H 0.8187 0.1556 0.7153
C15_4 C 0.6959(4) 0.18281(18) 0.5563(5)
H12_4 H 0.6385 0.1562 0.5279
C16_4 C 0.7963(3) 0.25503(17) 0.5743(4)
H13_4 H 0.8179 0.2880 0.5569
C17_4 C 0.6114(3) 0.24748(18) 0.3858(4)
C18_4 C 0.6206(5) 0.2954(2) 0.3406(5)
H14_4 H 0.6815 0.3190 0.3849
F2_4 F 0.8767(2) 0.35760(10) 0.4913(3)
F6_4 F 0.9970(3) 0.40120(10) 0.4248(2)
N1_4 N 0.3559(3) 0.28257(14) 0.0567(3)
N8_4 N 0.8600(3) 0.22884(13) 0.6703(3)
N9_4 N 0.6948(3) 0.22961(15) 0.5015(3)
N10_4 N 0.5260(4) 0.21614(19) 0.3316(4)
N11_4 N 0.4402(4) 0.2279(2) 0.2166(4)
C1_4 C 0.2444(4) 0.32009(19) 0.8866(5)
H1_4 H 0.2141 0.3434 0.8223
C2_4 C 0.3494(4) 0.32553(19) 0.9843(4)
loop_
_geom_bond_atom_site_label_1
_geom_bond_atom_site_label_2
_geom_bond_site_symmetry_1
_geom_bond_site_symmetry_2
C6 H5 1_555 1_555
C7 H6 1_555 1_555
C8 C7 1_555 1_555
H7 C8 1_555 1_555
C9 C10 1_555 1_555
C10 H8 1_555 1_555
C11 C10 1_555 1_555
H9 C11 1_555 1_555
C12 C11 1_555 1_555
C13 H10 1_555 1_555
C19 C13 1_555 1_555
H15 C19 1_555 1_555
C20 H16 1_555 1_555
Cu1 F1 1_555 1_555
F1 Si1 1_555 1_555
F3 Si1 1_555 1_555
F5 Si1 1_555 1_555
N3 C6 1_555 1_555
N4 C6 1_555 1_555
N5 C9 1_555 1_555
N6 C12 1_555 1_555
N7 C12 1_555 1_555
N12 C19 1_555 1_555
N13 Cu1 1_555 1_555
C7 N3 1_555 1_555
C8 N4 1_555 1_555
C9 N4 1_555 1_555
C13 N7 1_555 1_555
C20 N7 1_555 1_555
C20 N12 1_555 1_555
Cu1 N3 1_555 1_555
N5 N6 1_555 1_555
C14 H11 1_555 1_555
C15 C14 1_555 1_555
H12 C15 1_555 1_555
C16 H13 1_555 1_555
N8 C14 1_555 1_555
N9 C15 1_555 1_555
C16 N8 1_555 1_555
C16 N9 1_555 1_555
C1 H1 1_555 1_555
C2 C1 1_555 1_555
H2 C2 1_555 1_555
C3 H3 1_555 1_555
C4 C5 1_555 1_555
C5 H4 1_555 1_555
C17 C18 1_555 1_555
C18 C5 1_555 1_555
H14 C18 1_555 1_555
N1 C2 1_555 1_555
N13 C1 1_555 1_555
N10 C17 1_555 1_555
N11 C4 1_555 1_555
C3 N1 1_555 1_555
C3 N13 1_555 1_555
C4 N1 1_555 1_555
N10 N11 1_555 1_555
C1_2 H1_2 1_555 1_555
C2_2 C1_2 1_555 1_555
N2 C1_2 1_555 1_555
Cu3 N2 1_555 1_555
C3_2 H3_2 1_555 1_555
C4_2 C5_2 1_555 1_555
C5_2 H4_2 1_555 1_555
C14_2 H11_2 1_555 1_555
C15_2 C14_2 1_555 1_555
H12_2 C15_2 1_555 1_555
C16_2 H13_2 1_555 1_555
C17_2 C18_2 1_555 1_555
C18_2 C5_2 1_555 1_555
H14_2 C18_2 1_555 1_555
N8_2 C14_2 1_555 1_555
N9_2 C15_2 1_555 1_555
N10_2 C17_2 1_555 1_555
N11_2 C4_2 1_555 1_555
C3_2 N1_2 1_555 1_555
C4_2 N1_2 1_555 1_555
C16_2 N8_2 1_555 1_555
C16_2 N9_2 1_555 1_555
C17_2 N9_2 1_555 1_555
N10_2 N11_2 1_555 1_555
H9_2 C11_2 1_555 1_555
C12_2 C11_2 1_555 1_555
C13_2 H10_2 1_555 1_555
C19_2 C13_2 1_555 1_555
H15_2 C19_2 1_555 1_555
C20_2 H16_2 1_555 1_555
N6_2 C12_2 1_555 1_555
N7_2 C12_2 1_555 1_555
N14 C19_2 1_555 1_555
C13_2 N7_2 1_555 1_555
C20_2 N7_2 1_555 1_555
C20_2 N14 1_555 1_555
C6_2 H5_2 1_555 1_555
C7_2 H6_2 1_555 1_555
C8_2 C7_2 1_555 1_555
H7_2 C8_2 1_555 1_555
C9_2 C10_2 1_555 1_555
C10_2 H8_2 1_555 1_555
Cu3 F1_2 1_555 1_555
F1_2 Si1_2 1_555 1_555
F3_2 Si1_2 1_555 1_555
F5_2 Si1_2 1_555 1_555
N3_2 C6_2 1_555 1_555
N4_2 C6_2 1_555 1_555
N5_2 C9_2 1_555 1_555
C7_2 N3_2 1_555 1_555
C8_2 N4_2 1_555 1_555
C9_2 N4_2 1_555 1_555
Cu3 N3_2 1_555 1_555
C1_3 H1_3 1_555 1_555
C2_3 C1_3 1_555 1_555
H2_3 C2_3 1_555 1_555
C3_3 H3_3 1_555 1_555
C4_3 C5_3 1_555 1_555
C5_3 H4_3 1_555 1_555
C17_3 C18_3 1_555 1_555
C18_3 C5_3 1_555 1_555
H14_3 C18_3 1_555 1_555
N1_3 C2_3 1_555 1_555
N2_2 C1_3 1_555 1_555
N10_3 C17_3 1_555 1_555
N11_3 C4_3 1_555 1_555
Cu4_2 N2_2 1_555 1_555
C3_3 N1_3 1_555 1_555
C3_3 N2_2 1_555 1_555
C4_3 N1_3 1_555 1_555
N10_3 N11_3 1_555 1_555
C14_3 H11_3 1_555 1_555
C15_3 C14_3 1_555 1_555
H12_3 C15_3 1_555 1_555
C16_3 H13_3 1_555 1_555
N8_3 C14_3 1_555 1_555
N9_3 C15_3 1_555 1_555
C16_3 N8_3 1_555 1_555
C16_3 N9_3 1_555 1_555
C6_3 H5_3 1_555 1_555
C7_3 H6_3 1_555 1_555
C8_3 C7_3 1_555 1_555
H7_3 C8_3 1_555 1_555
C9_3 C10_3 1_555 1_555
C10_3 H8_3 1_555 1_555
C11_3 C10_3 1_555 1_555
H9_3 C11_3 1_555 1_555
C12_3 C11_3 1_555 1_555
C13_3 H10_3 1_555 1_555
C19_3 C13_3 1_555 1_555
H15_3 C19_3 1_555 1_555
C20_3 H16_3 1_555 1_555
Cu4_2 F1_3 1_555 1_555
F1_3 Si1_3 1_555 1_555
F3_3 Si1_3 1_555 1_555
F5_3 Si1_3 1_555 1_555
N3_3 C6_3 1_555 1_555
N4_3 C6_3 1_555 1_555
N5_3 C9_3 1_555 1_555
N6_3 C12_3 1_555 1_555
N7_3 C12_3 1_555 1_555
N12_2 C19_3 1_555 1_555
C7_3 N3_3 1_555 1_555
C8_3 N4_3 1_555 1_555
C9_3 N4_3 1_555 1_555
C13_3 N7_3 1_555 1_555
C20_3 N7_3 1_555 1_555
C20_3 N12_2 1_555 1_555
Cu4_2 N3_3 1_555 1_555
N5_3 N6_3 1_555 1_555
C6_4 H5_4 1_555 1_555
C7_4 H6_4 1_555 1_555
C8_4 C7_4 1_555 1_555
H7_4 C8_4 1_555 1_555
C9_4 C10_4 1_555 1_555
C10_4 H8_4 1_555 1_555
Cu4 F1_4 1_555 1_555
F1_4 Si1_4 1_555 1_555
F3_4 Si1_4 1_555 1_555
F5_4 Si1_4 1_555 1_555
N3_4 C6_4 1_555 1_555
N4_4 C6_4 1_555 1_555
N5_4 C9_4 1_555 1_555
N13_2 Cu4 1_555 1_555
C7_4 N3_4 1_555 1_555
C8_4 N4_4 1_555 1_555
C9_4 N4_4 1_555 1_555
Cu4 N3_4 1_555 1_555
H9_4 C11_4 1_555 1_555
C12_4 C11_4 1_555 1_555
C13_4 H10_4 1_555 1_555
C19_4 C13_4 1_555 1_555
H15_4 C19_4 1_555 1_555
C20_4 H16_4 1_555 1_555
N6_4 C12_4 1_555 1_555
N7_4 C12_4 1_555 1_555
N14_2 C19_4 1_555 1_555
C13_4 N7_4 1_555 1_555
C20_4 N7_4 1_555 1_555
C20_4 N14_2 1_555 1_555
C3_4 H3_4 1_555 1_555
C4_4 C5_4 1_555 1_555
C5_4 H4_4 1_555 1_555
C14_4 H11_4 1_555 1_555
C15_4 C14_4 1_555 1_555
H12_4 C15_4 1_555 1_555
C16_4 H13_4 1_555 1_555
C17_4 C18_4 1_555 1_555
C18_4 C5_4 1_555 1_555
H14_4 C18_4 1_555 1_555
N8_4 C14_4 1_555 1_555
N9_4 C15_4 1_555 1_555
N10_4 C17_4 1_555 1_555
N11_4 C4_4 1_555 1_555
C3_4 N1_4 1_555 1_555
C4_4 N1_4 1_555 1_555
C16_4 N8_4 1_555 1_555
C16_4 N9_4 1_555 1_555
C17_4 N9_4 1_555 1_555
N10_4 N11_4 1_555 1_555
C1_4 H1_4 1_555 1_555
C2_4 C1_4 1_555 1_555
N13_2 C1_4 1_555 1_555

#END
