
###############################################################################
#
# This file contains modified crystal structure data generated from the
# MOF subset of the Cambridge Structural Database (CSD) v543 
# hosted by the Cambridge Crystallographic Data Centre (CCDC).
#
# This work is licensed under the Creative Commons
# Attribution-NonCommercial-ShareAlike 4.0 International License.
# To view a copy of this license, visit
# http://creativecommons.org/licenses/by-nc-sa/4.0/
# or send a letter to
# Creative Commons, PO Box 1866, Mountain View, CA 94042, USA.
#
# CIF created using the CSD Python API on 29 September 2022
# The structure has been converted into the P1 space group
# The structure has a 3D framework
# The original CSD entry IPOVOA is in the monoclinic crystal system
# The framework has been calculated to contain at least 10.0% void space
# The void calculation uses a probe of radius 1.32A, grid spacing 0.4
#
###############################################################################

data_IPOVOA
_chemical_formula_moiety         '(C56 H24 Co9 N24 O24)n'
_symmetry_cell_setting           triclinic
_symmetry_space_group_name_H-M   'P 1'
_symmetry_Int_Tables_number      1
_space_group_name_Hall           'P 1'
loop_
_symmetry_equiv_pos_site_id
_symmetry_equiv_pos_as_xyz
1 x,y,z
_cell_length_a                   18.1246(10)
_cell_length_b                   12.1526(9)
_cell_length_c                   11.0558(6)
_cell_angle_alpha                90
_cell_angle_beta                 94.177(5)
_cell_angle_gamma                90
_cell_volume                     2428.69
loop_
_atom_site_label
_atom_site_type_symbol
_atom_site_fract_x
_atom_site_fract_y
_atom_site_fract_z
Co1 Co 0.0000 0.40118(15) 0.2500
O3 O 0.0209(3) 0.4156(5) 0.4348(5)
C8 C 0.1884(5) 0.5795(8) 0.1689(8)
C9 C 0.1909(5) 0.6048(7) 0.2950(8)
C10 C 0.2452(5) 0.6110(9) 0.0987(9)
H4 H 0.2447 0.5927 0.0170
C11 C 0.2508(5) 0.6607(8) 0.3528(8)
H5 H 0.2532 0.6750 0.4356
C12 C 0.3016(5) 0.6698(9) 0.1547(8)
H6 H 0.3388 0.6955 0.1084
C13 C 0.3715(5) 0.7613(8) 0.3338(8)
C14 C 0.3063(5) 0.6939(8) 0.2814(8)
N4 N 0.1272(4) 0.5612(6) 0.3350(7)
N5 N 0.0887(3) 0.5159(6) 0.2413(6)
N6 N 0.1243(4) 0.5253(6) 0.1410(6)
O4 O 0.3684(3) 0.7958(5) 0.4419(5)
O5 O 0.4210(3) 0.7786(5) 0.2651(6)
Co5 Co 0.5000 0.90118(15) 0.2500
Co6 Co 0.42246(7) 0.93422(11) 0.50339(11)
Co8 Co 0.07754(7) 0.56578(11) 0.49661(11)
O7 O 0.1316(3) 0.2958(5) 0.0581(5)
O9 O 0.0790(3) 0.2786(5) 0.2349(6)
Co3 Co 0.07754(7) 0.43422(11) 0.99661(11)
N7 N 0.1272(4) 0.4388(6) 0.8350(7)
O12 O 0.0209(3) 0.5844(5) 0.9348(5)
Co1_2 Co 1.0000 0.40118(15) 0.2500
Co2 Co 0.92246(7) 0.43422(11) 0.50339(11)
C1 C 0.8116(5) 0.5795(8) 0.3311(8)
C2 C 0.8091(5) 0.6048(7) 0.2050(8)
C3 C 0.7548(5) 0.6110(9) 0.4013(9)
H1 H 0.7553 0.5927 0.4830
C4 C 0.7492(5) 0.6607(8) 0.1472(8)
H2 H 0.7468 0.6750 0.0644
C5 C 0.6984(5) 0.6698(9) 0.3453(8)
H3 H 0.6612 0.6955 0.3916
C6 C 0.6285(5) 0.7613(8) 0.1662(8)
C7 C 0.6937(5) 0.6939(8) 0.2186(8)
N1 N 0.8728(4) 0.5612(6) 0.1650(7)
N2 N 0.9113(3) 0.5159(6) 0.2587(6)
N3 N 0.8757(4) 0.5253(6) 0.3590(6)
O1 O 0.6316(3) 0.7958(5) 0.0581(5)
O2 O 0.5790(3) 0.7786(5) 0.2349(6)
O6 O 0.9791(3) 0.4156(5) 0.0652(5)
Co9 Co 0.92246(7) 0.56578(11) 0.00339(11)
N8 N 0.8728(4) 0.4388(6) 0.6650(7)
O8 O 0.8684(3) 0.2958(5) 0.4419(5)
O10 O 0.9210(3) 0.2786(5) 0.2651(6)
O11 O 0.9791(3) 0.5844(5) 0.5652(5)
Co7 Co 0.57754(7) 0.93422(11) 0.99661(11)
C1_2 C 0.3116(5) 0.0795(8) 0.3311(8)
C2_2 C 0.3091(5) 0.1048(7) 0.2050(8)
C3_2 C 0.2548(5) 0.1110(9) 0.4013(9)
H1_2 H 0.2553 0.0927 0.4830
C4_2 C 0.2492(5) 0.1607(8) 0.1472(8)
H2_2 H 0.2468 0.1750 0.0644
C5_2 C 0.1984(5) 0.1698(9) 0.3453(8)
H3_2 H 0.1612 0.1955 0.3916
C6_2 C 0.1285(5) 0.2613(8) 0.1662(8)
C7_2 C 0.1937(5) 0.1939(8) 0.2186(8)
N1_2 N 0.3728(4) 0.0612(6) 0.1650(7)
N2_2 N 0.4113(3) 0.0159(6) 0.2587(6)
N3_2 N 0.3757(4) 0.0253(6) 0.3590(6)
C8_2 C 0.6884(5) 0.0795(8) 0.1689(8)
C9_2 C 0.6909(5) 0.1048(7) 0.2950(8)
C10_2 C 0.7452(5) 0.1110(9) 0.0987(9)
H4_2 H 0.7447 0.0927 0.0170
C11_2 C 0.7508(5) 0.1607(8) 0.3528(8)
H5_2 H 0.7532 0.1750 0.4356
C12_2 C 0.8016(5) 0.1698(9) 0.1547(8)
H6_2 H 0.8388 0.1955 0.1084
C13_2 C 0.8715(5) 0.2613(8) 0.3338(8)
C14_2 C 0.8063(5) 0.1939(8) 0.2814(8)
N4_2 N 0.6272(4) 0.0612(6) 0.3350(7)
N5_2 N 0.5887(3) 0.0159(6) 0.2413(6)
N6_2 N 0.6243(4) 0.0253(6) 0.1410(6)
Co8_2 Co 0.57754(7) 0.06578(11) 0.49661(11)
Co9_2 Co 0.42246(7) 0.06578(11) 0.00339(11)
O11_2 O 0.4791(3) 0.0844(5) 0.5652(5)
O12_2 O 0.5209(3) 0.0844(5) 0.9348(5)
O3_2 O 0.5209(3) 0.9156(5) 0.4348(5)
O6_2 O 0.4791(3) 0.9156(5) 0.0652(5)
N8_2 N 0.3728(4) 0.9388(6) 0.6650(7)
N7_2 N 0.6272(4) 0.9388(6) 0.8350(7)
Co1_3 Co -0.0000 0.59882(15) 0.7500
C1_3 C 0.1884(5) 0.4205(8) 0.6689(8)
C2_3 C 0.1909(5) 0.3952(7) 0.7950(8)
C3_3 C 0.2452(5) 0.3890(9) 0.5987(9)
H1_3 H 0.2447 0.4073 0.5170
C4_3 C 0.2508(5) 0.3393(8) 0.8528(8)
H2_3 H 0.2532 0.3250 0.9356
C5_3 C 0.3016(5) 0.3302(9) 0.6547(8)
H3_3 H 0.3388 0.3045 0.6084
C6_3 C 0.3715(5) 0.2387(8) 0.8338(8)
C7_3 C 0.3063(5) 0.3061(8) 0.7814(8)
N2_3 N 0.0887(3) 0.4841(6) 0.7413(6)
N3_3 N 0.1243(4) 0.4747(6) 0.6410(6)
O1_2 O 0.3684(3) 0.2042(5) 0.9419(5)
O2_2 O 0.4210(3) 0.2214(5) 0.7651(6)
Co4 Co 0.5000 0.09882(15) 0.7500
O8_2 O 0.1316(3) 0.7042(5) 0.5581(5)
O10_2 O 0.0790(3) 0.7214(5) 0.7349(6)
Co1_4 Co 1.0000 0.59882(15) 0.7500
C8_3 C 0.8116(5) 0.4205(8) 0.8311(8)
C9_3 C 0.8091(5) 0.3952(7) 0.7050(8)
C10_3 C 0.7548(5) 0.3890(9) 0.9013(9)
H4_3 H 0.7553 0.4073 0.9830
C11_3 C 0.7492(5) 0.3393(8) 0.6472(8)
H5_3 H 0.7468 0.3250 0.5644
C12_3 C 0.6984(5) 0.3302(9) 0.8453(8)
H6_3 H 0.6612 0.3045 0.8916
C13_3 C 0.6285(5) 0.2387(8) 0.6662(8)
C14_3 C 0.6937(5) 0.3061(8) 0.7186(8)
N5_3 N 0.9113(3) 0.4841(6) 0.7587(6)
N6_3 N 0.8757(4) 0.4747(6) 0.8590(6)
O4_2 O 0.6316(3) 0.2042(5) 0.5581(5)
O5_2 O 0.5790(3) 0.2214(5) 0.7349(6)
O7_2 O 0.8684(3) 0.7042(5) 0.9419(5)
O9_2 O 0.9210(3) 0.7214(5) 0.7651(6)
C1_4 C 0.6884(5) 0.9205(8) 0.6689(8)
C2_4 C 0.6909(5) 0.8952(7) 0.7950(8)
C3_4 C 0.7452(5) 0.8890(9) 0.5987(9)
H1_4 H 0.7447 0.9073 0.5170
C4_4 C 0.7508(5) 0.8393(8) 0.8528(8)
H2_4 H 0.7532 0.8250 0.9356
C5_4 C 0.8016(5) 0.8302(9) 0.6547(8)
H3_4 H 0.8388 0.8045 0.6084
C6_4 C 0.8715(5) 0.7387(8) 0.8338(8)
C7_4 C 0.8063(5) 0.8061(8) 0.7814(8)
N2_4 N 0.5887(3) 0.9841(6) 0.7413(6)
N3_4 N 0.6243(4) 0.9747(6) 0.6410(6)
C8_4 C 0.3116(5) 0.9205(8) 0.8311(8)
C9_4 C 0.3091(5) 0.8952(7) 0.7050(8)
C10_4 C 0.2548(5) 0.8890(9) 0.9013(9)
H4_4 H 0.2553 0.9073 0.9830
C11_4 C 0.2492(5) 0.8393(8) 0.6472(8)
H5_4 H 0.2468 0.8250 0.5644
C12_4 C 0.1984(5) 0.8302(9) 0.8453(8)
H6_4 H 0.1612 0.8045 0.8916
C13_4 C 0.1285(5) 0.7387(8) 0.6662(8)
C14_4 C 0.1937(5) 0.8061(8) 0.7186(8)
N5_4 N 0.4113(3) 0.9841(6) 0.7587(6)
N6_4 N 0.3757(4) 0.9747(6) 0.8590(6)
loop_
_geom_bond_atom_site_label_1
_geom_bond_atom_site_label_2
_geom_bond_site_symmetry_1
_geom_bond_site_symmetry_2
O3 Co1 1_555 1_555
C8 C9 1_555 1_555
C9 C11 1_555 1_555
C10 C8 1_555 1_555
H4 C10 1_555 1_555
C11 H5 1_555 1_555
C12 C10 1_555 1_555
H6 C12 1_555 1_555
C13 C14 1_555 1_555
C14 C11 1_555 1_555
N4 C9 1_555 1_555
N5 Co1 1_555 1_555
N6 C8 1_555 1_555
O4 C13 1_555 1_555
O5 C13 1_555 1_555
Co5 O5 1_555 1_555
Co6 O4 1_555 1_555
Co8 O3 1_555 1_555
O9 Co1 1_555 1_555
C12 C14 1_555 1_555
N4 N5 1_555 1_555
N4 Co8 1_555 1_555
N5 N6 1_555 1_555
N7 Co3 1_555 1_555
O12 Co3 1_555 1_555
Co1_2 N2 1_555 1_555
Co2 N3 1_555 1_555
C1 C2 1_555 1_555
C2 C4 1_555 1_555
C3 C1 1_555 1_555
H1 C3 1_555 1_555
C4 H2 1_555 1_555
C5 C3 1_555 1_555
H3 C5 1_555 1_555
C6 C7 1_555 1_555
C7 C4 1_555 1_555
N1 C2 1_555 1_555
N2 N1 1_555 1_555
N3 C1 1_555 1_555
O1 C6 1_555 1_555
O2 C6 1_555 1_555
O6 Co1_2 1_555 1_555
Co5 O2 1_555 1_555
Co9 N1 1_555 1_555
N8 Co2 1_555 1_555
O8 Co2 1_555 1_555
O10 Co1_2 1_555 1_555
O11 Co2 1_555 1_555
C5 C7 1_555 1_555
N2 N3 1_555 1_555
O6 Co9 1_555 1_555
C1_2 C2_2 1_555 1_555
C2_2 C4_2 1_555 1_555
C3_2 C1_2 1_555 1_555
H1_2 C3_2 1_555 1_555
C4_2 H2_2 1_555 1_555
C5_2 C3_2 1_555 1_555
H3_2 C5_2 1_555 1_555
C6_2 C7_2 1_555 1_555
C7_2 C4_2 1_555 1_555
N1_2 C2_2 1_555 1_555
N2_2 N1_2 1_555 1_555
N3_2 C1_2 1_555 1_555
O7 C6_2 1_555 1_555
O9 C6_2 1_555 1_555
C8_2 C9_2 1_555 1_555
C9_2 C11_2 1_555 1_555
C10_2 C8_2 1_555 1_555
H4_2 C10_2 1_555 1_555
C11_2 H5_2 1_555 1_555
C12_2 C10_2 1_555 1_555
H6_2 C12_2 1_555 1_555
C13_2 C14_2 1_555 1_555
C14_2 C11_2 1_555 1_555
N4_2 C9_2 1_555 1_555
N6_2 C8_2 1_555 1_555
O8 C13_2 1_555 1_555
O10 C13_2 1_555 1_555
Co9_2 N1_2 1_555 1_555
C5_2 C7_2 1_555 1_555
N2_2 N3_2 1_555 1_555
C12_2 C14_2 1_555 1_555
N4_2 N5_2 1_555 1_555
N4_2 Co8_2 1_555 1_555
N5_2 N6_2 1_555 1_555
Co8_2 O11_2 1_555 1_555
O3_2 Co5 1_555 1_555
O6_2 Co5 1_555 1_555
N8_2 Co6 1_555 1_555
Co6 O3_2 1_555 1_555
N7_2 Co7 1_555 1_555
Co1_3 N2_3 1_555 1_555
Co8 N3_3 1_555 1_555
C1_3 C2_3 1_555 1_555
C2_3 C4_3 1_555 1_555
C3_3 C1_3 1_555 1_555
H1_3 C3_3 1_555 1_555
C4_3 H2_3 1_555 1_555
C5_3 C3_3 1_555 1_555
H3_3 C5_3 1_555 1_555
C6_3 C7_3 1_555 1_555
C7_3 C4_3 1_555 1_555
N7 C2_3 1_555 1_555
N2_3 N7 1_555 1_555
N3_3 C1_3 1_555 1_555
O1_2 C6_3 1_555 1_555
O2_2 C6_3 1_555 1_555
O12 Co1_3 1_555 1_555
Co4 O2_2 1_555 1_555
O8_2 Co8 1_555 1_555
O10_2 Co1_3 1_555 1_555
C5_3 C7_3 1_555 1_555
N2_3 N3_3 1_555 1_555
O11 Co1_4 1_555 1_555
C8_3 C9_3 1_555 1_555
C9_3 C11_3 1_555 1_555
C10_3 C8_3 1_555 1_555
H4_3 C10_3 1_555 1_555
C11_3 H5_3 1_555 1_555
C12_3 C10_3 1_555 1_555
H6_3 C12_3 1_555 1_555
C13_3 C14_3 1_555 1_555
C14_3 C11_3 1_555 1_555
N8 C9_3 1_555 1_555
N5_3 Co1_4 1_555 1_555
N6_3 C8_3 1_555 1_555
O4_2 C13_3 1_555 1_555
O5_2 C13_3 1_555 1_555
Co4 O5_2 1_555 1_555
Co8_2 O4_2 1_555 1_555
O9_2 Co1_4 1_555 1_555
C12_3 C14_3 1_555 1_555
N8 N5_3 1_555 1_555
N5_3 N6_3 1_555 1_555
O11_2 Co4 1_555 1_555
O12_2 Co4 1_555 1_555
C1_4 C2_4 1_555 1_555
C2_4 C4_4 1_555 1_555
C3_4 C1_4 1_555 1_555
H1_4 C3_4 1_555 1_555
C4_4 H2_4 1_555 1_555
C5_4 C3_4 1_555 1_555
H3_4 C5_4 1_555 1_555
C6_4 C7_4 1_555 1_555
C7_4 C4_4 1_555 1_555
N7_2 C2_4 1_555 1_555
N2_4 N7_2 1_555 1_555
N3_4 C1_4 1_555 1_555
O7_2 C6_4 1_555 1_555
O9_2 C6_4 1_555 1_555
C8_4 C9_4 1_555 1_555
C9_4 C11_4 1_555 1_555
C10_4 C8_4 1_555 1_555
H4_4 C10_4 1_555 1_555
C11_4 H5_4 1_555 1_555
C12_4 C10_4 1_555 1_555
H6_4 C12_4 1_555 1_555
C13_4 C14_4 1_555 1_555
C14_4 C11_4 1_555 1_555
N8_2 C9_4 1_555 1_555
N6_4 C8_4 1_555 1_555
O8_2 C13_4 1_555 1_555
O10_2 C13_4 1_555 1_555
C5_4 C7_4 1_555 1_555
N2_4 N3_4 1_555 1_555
C12_4 C14_4 1_555 1_555
N8_2 N5_4 1_555 1_555
N5_4 N6_4 1_555 1_555

#END
