
###############################################################################
#
# This file contains modified crystal structure data generated from the
# MOF subset of the Cambridge Structural Database (CSD) v543 
# hosted by the Cambridge Crystallographic Data Centre (CCDC).
#
# This work is licensed under the Creative Commons
# Attribution-NonCommercial-ShareAlike 4.0 International License.
# To view a copy of this license, visit
# http://creativecommons.org/licenses/by-nc-sa/4.0/
# or send a letter to
# Creative Commons, PO Box 1866, Mountain View, CA 94042, USA.
#
# CIF created using the CSD Python API on 29 September 2022
# The structure has been converted into the P1 space group
# The structure has a 3D framework
# The original CSD entry IQIDUK is in the hexagonal crystal system
# The framework has been calculated to contain at least 10.0% void space
# The void calculation uses a probe of radius 1.32A, grid spacing 0.4
# The framework is charged, counterions have been retained in the structure
#
###############################################################################

data_IQIDUK
_chemical_formula_moiety         '(C72 H84 Er6 N24 O47 S15 2-)n'
_symmetry_cell_setting           triclinic
_symmetry_space_group_name_H-M   'P 1'
_symmetry_Int_Tables_number      1
_space_group_name_Hall           'P 1'
loop_
_symmetry_equiv_pos_site_id
_symmetry_equiv_pos_as_xyz
1 x,y,z
_cell_length_a                   14.528(8)
_cell_length_b                   14.528(8)
_cell_length_c                   16.985(9)
_cell_angle_alpha                90
_cell_angle_beta                 90
_cell_angle_gamma                120
_cell_volume                     3104.62
loop_
_atom_site_label
_atom_site_type_symbol
_atom_site_fract_x
_atom_site_fract_y
_atom_site_fract_z
C1 C 0.0068(5) 0.2534(6) 0.750000
N1 N 0.0460(4) 0.2421(5) 0.8176(3)
C2 C 0.0064(9) 0.2564(10) 0.8920(4)
H1 H 0.044153 0.330295 0.906091
H2 H 0.016765 0.215760 0.931930
C3 C 0.1382(9) 0.2246(13) 0.8214(7)
H4 H 0.200597 0.290426 0.837158
H5 H 0.124720 0.171960 0.861624
C4 C 0.1600(17) 0.190(2) 0.750000
H6 H 0.234918 0.212031 0.749999
H7 H 0.120624 0.113370 0.750000
N2 N 0.0460(4) 0.2421(5) 0.6824(3)
C8 C 0.0064(9) 0.2564(10) 0.6080(4)
H9 H 0.044153 0.330295 0.593909
H10 H 0.016765 0.215760 0.568070
C9 C 0.1382(9) 0.2246(13) 0.6786(7)
H12 H 0.200597 0.290426 0.662842
H13 H 0.124720 0.171960 0.638376
S2 S -0.000000 0.504860(90) 0.500000
C22 C 0.0339(3) 0.6909(3) 0.4673(2)
H28 H 0.059834 0.756986 0.443580
C23 C 0.0576(3) 0.6161(3) 0.4424(2)
O10 O 0.1240(3) 0.5427(3) 0.3509(2)
O11 O 0.1717(3) 0.7135(3) 0.34004(18)
C24 C 0.1232(3) 0.6244(3) 0.3724(2)
Er5 Er 0.30180(2) 0.79678(2) 0.250000
Er9 Er 0.20322(2) 0.50502(3) 0.250000
Er1 Er 0.79678(2) 0.30180(2) 0.750000
H3 H 0.931973 0.232724 0.887255
O1 O 0.9305(3) 0.2690(4) 0.750000
C5 C 0.6909(3) 0.0339(3) 0.5327(2)
H8 H 0.756986 0.059834 0.556420
C6 C 0.6161(3) 0.0576(3) 0.5576(2)
O2 O 0.5427(3) 0.1240(3) 0.6491(2)
O3 O 0.7135(3) 0.1717(3) 0.65996(18)
S1 S 0.50486(9) 0.000000 0.500000
C7 C 0.6244(3) 0.1232(3) 0.6276(2)
O4 O 0.666667 0.333333 0.750000
H11 H 0.931973 0.232724 0.612745
Er2 Er 0.69820(2) 0.49498(3) 0.750000
C13 C 0.7466(6) 0.7534(8) 0.750000
N3 N 0.7579(5) 0.8039(6) 0.8176(3)
C14 C 0.7436(10) 0.7500(13) 0.8920(4)
H15 H 0.669705 0.713858 0.906091
H16 H 0.784240 0.801005 0.931930
H17 H 0.767276 0.699249 0.887255
C15 C 0.7754(13) 0.9136(16) 0.8214(7)
H18 H 0.709574 0.910171 0.837158
H19 H 0.828040 0.952760 0.861624
C16 C 0.810(2) 0.9700(26) 0.750000
O7 O 0.7310(4) 0.6615(5) 0.750000
C17 C 0.9661(3) 0.6570(4) 0.5327(2)
H22 H 0.940166 0.697152 0.556420
C18 C 0.9424(3) 0.5585(4) 0.5576(2)
O8 O 0.8760(3) 0.4187(4) 0.6491(2)
O9 O 0.8283(3) 0.5418(4) 0.65996(18)
S2_2 S 1.000000 0.504860(90) 0.500000
C19 C 0.8768(3) 0.5012(4) 0.6276(2)
N4 N 0.7579(5) 0.8039(6) 0.6824(3)
C20 C 0.7436(10) 0.7500(13) 0.6080(4)
H23 H 0.669705 0.713858 0.593909
H24 H 0.784240 0.801005 0.568070
H25 H 0.767276 0.699249 0.612745
C21 C 0.7754(13) 0.9136(16) 0.6786(7)
H26 H 0.709574 0.910171 0.662842
H27 H 0.828040 0.952760 0.638376
Er3 Er 0.50502(3) 0.20322(2) 0.750000
H31 H 0.300751 0.068027 0.887255
O12 O 0.3385(5) 0.0695(3) 0.750000
C29 C 0.3430(4) 0.3091(3) 0.5327(2)
H36 H 0.302848 0.243014 0.556420
C30 C 0.4415(4) 0.3839(3) 0.5576(2)
O13 O 0.5813(4) 0.4573(3) 0.6491(2)
O14 O 0.4582(4) 0.2865(3) 0.65996(18)
S3 S 0.495140(90) 0.49514(9) 0.500000
C31 C 0.4988(4) 0.3756(3) 0.6276(2)
H39 H 0.300751 0.068027 0.612745
C34 C 0.3091(3) 0.3430(4) 0.4673(2)
H42 H 0.243014 0.302848 0.443580
C35 C 0.3839(3) 0.4415(4) 0.4424(2)
O15 O 0.4573(3) 0.5813(4) 0.3509(2)
O16 O 0.2865(3) 0.4582(4) 0.34004(18)
C36 C 0.3756(3) 0.4988(4) 0.3724(2)
Er7 Er 0.49498(3) 0.69820(2) 0.250000
O17 O 0.5427(3) 0.1240(3) 0.8509(2)
O18 O 0.8760(3) 0.4187(4) 0.8509(2)
O19 O 0.5813(4) 0.4573(3) 0.8509(2)
O20 O 0.7135(3) 0.1717(3) 0.84004(18)
O21 O 0.8283(3) 0.5418(4) 0.84004(18)
O22 O 0.4582(4) 0.2865(3) 0.84004(18)
S1_2 S 0.50486(9) 1.000000 0.500000
C10 C 0.6570(4) 0.9661(3) 0.4673(2)
H14 H 0.697152 0.940166 0.443580
C11 C 0.5585(4) 0.9424(3) 0.4424(2)
O5 O 0.4187(4) 0.8760(3) 0.3509(2)
O6 O 0.5418(4) 0.8283(3) 0.34004(18)
C12 C 0.5012(4) 0.8768(3) 0.3724(2)
C25 C 0.2466(8) 0.9932(5) 0.750000
N5 N 0.1961(6) 0.9540(4) 0.8176(3)
C26 C 0.2500(13) 0.9936(9) 0.8920(4)
H29 H 0.286142 0.955847 0.906091
H30 H 0.198995 0.983235 0.931930
C27 C 0.0864(16) 0.8618(9) 0.8214(7)
H32 H 0.089829 0.799403 0.837158
H33 H 0.047240 0.875280 0.861624
C28 C 0.0300(26) 0.8400(17) 0.750000
N6 N 0.1961(6) 0.9540(4) 0.6824(3)
C32 C 0.2500(13) 0.9936(9) 0.6080(4)
H37 H 0.286142 0.955847 0.593909
H38 H 0.198995 0.983235 0.568070
C33 C 0.0864(16) 0.8618(9) 0.6786(7)
H40 H 0.089829 0.799403 0.662842
H41 H 0.047240 0.875280 0.638376
S2_3 S -0.000000 0.504860(90) 0.000000
C22_2 C 0.0339(3) 0.6909(3) 0.0327(2)
H28_2 H 0.059834 0.756986 0.056420
C23_2 C 0.0576(3) 0.6161(3) 0.0576(2)
O10_2 O 0.1240(3) 0.5427(3) 0.1491(2)
O11_2 O 0.1717(3) 0.7135(3) 0.15996(18)
C24_2 C 0.1232(3) 0.6244(3) 0.1276(2)
S2_4 S -0.000000 0.504860(90) 1.000000
S1_3 S 0.50486(9) 0.000000 0.000000
S2_5 S 1.000000 0.504860(90) 0.000000
S3_2 S 0.495140(90) 0.49514(9) 0.000000
C34_2 C 0.3091(3) 0.3430(4) 0.0327(2)
H42_2 H 0.243014 0.302848 0.056420
C35_2 C 0.3839(3) 0.4415(4) 0.0576(2)
O15_2 O 0.4573(3) 0.5813(4) 0.1491(2)
O16_2 O 0.2865(3) 0.4582(4) 0.15996(18)
C36_2 C 0.3756(3) 0.4988(4) 0.1276(2)
C5_2 C 0.6909(3) 0.0339(3) 0.9673(2)
H8_2 H 0.756986 0.059834 0.943580
C6_2 C 0.6161(3) 0.0576(3) 0.9424(2)
S1_4 S 0.50486(9) 0.000000 1.000000
C7_2 C 0.6244(3) 0.1232(3) 0.8724(2)
C17_2 C 0.9661(3) 0.6570(4) 0.9673(2)
H22_2 H 0.940166 0.697152 0.943580
C18_2 C 0.9424(3) 0.5585(4) 0.9424(2)
S2_6 S 1.000000 0.504860(90) 1.000000
C19_2 C 0.8768(3) 0.5012(4) 0.8724(2)
C29_2 C 0.3430(4) 0.3091(3) 0.9673(2)
H36_2 H 0.302848 0.243014 0.943580
C30_2 C 0.4415(4) 0.3839(3) 0.9424(2)
S3_3 S 0.495140(90) 0.49514(9) 1.000000
C31_2 C 0.4988(4) 0.3756(3) 0.8724(2)
S1_5 S 0.50486(9) 1.000000 0.000000
C10_2 C 0.6570(4) 0.9661(3) 0.0327(2)
H14_2 H 0.697152 0.940166 0.056420
C11_2 C 0.5585(4) 0.9424(3) 0.0576(2)
O5_2 O 0.4187(4) 0.8760(3) 0.1491(2)
O6_2 O 0.5418(4) 0.8283(3) 0.15996(18)
C12_2 C 0.5012(4) 0.8768(3) 0.1276(2)
S1_6 S 0.50486(9) 1.000000 1.000000
C1_2 C 0.2534(6) 0.0068(5) 0.250000
N1_2 N 0.2421(5) 0.0460(4) 0.1824(3)
C2_2 C 0.2564(10) 0.0064(9) 0.1080(4)
H1_2 H 0.330295 0.044153 0.093909
H2_2 H 0.215760 0.016765 0.068070
C3_2 C 0.2246(13) 0.1382(9) 0.1786(7)
H4_2 H 0.290426 0.200597 0.162842
H5_2 H 0.171960 0.124720 0.138376
C4_2 C 0.190(2) 0.1600(17) 0.250000
H6_2 H 0.212031 0.234918 0.250001
H7_2 H 0.113370 0.120624 0.250000
N2_2 N 0.2421(5) 0.0460(4) 0.3176(3)
C8_2 C 0.2564(10) 0.0064(9) 0.3920(4)
H9_2 H 0.330295 0.044153 0.406091
H10_2 H 0.215760 0.016765 0.431930
C9_2 C 0.2246(13) 0.1382(9) 0.3214(7)
H12_2 H 0.290426 0.200597 0.337158
H13_2 H 0.171960 0.124720 0.361624
H3_2 H 0.232724 0.931973 0.112745
O1_2 O 0.2690(4) 0.9305(3) 0.250000
O4_2 O 0.333333 0.666667 0.250000
H11_2 H 0.232724 0.931973 0.387255
C13_2 C 0.7534(8) 0.7466(6) 0.250000
N3_2 N 0.8039(6) 0.7579(5) 0.1824(3)
C14_2 C 0.7500(13) 0.7436(10) 0.1080(4)
H15_2 H 0.713858 0.669705 0.093909
H16_2 H 0.801005 0.784240 0.068070
H17_2 H 0.699249 0.767276 0.112745
C15_2 C 0.9136(16) 0.7754(13) 0.1786(7)
H18_2 H 0.910171 0.709574 0.162842
H19_2 H 0.952760 0.828040 0.138376
C16_2 C 0.9700(26) 0.810(2) 0.250000
O7_2 O 0.6615(5) 0.7310(4) 0.250000
N4_2 N 0.8039(6) 0.7579(5) 0.3176(3)
C20_2 C 0.7500(13) 0.7436(10) 0.3920(4)
H23_2 H 0.713858 0.669705 0.406091
H24_2 H 0.801005 0.784240 0.431930
H25_2 H 0.699249 0.767276 0.387255
C21_2 C 0.9136(16) 0.7754(13) 0.3214(7)
H26_2 H 0.910171 0.709574 0.337158
H27_2 H 0.952760 0.828040 0.361624
H31_2 H 0.068027 0.300751 0.112745
O12_2 O 0.0695(3) 0.3385(5) 0.250000
H39_2 H 0.068027 0.300751 0.387255
C25_2 C 0.9932(5) 0.2466(8) 0.250000
N5_2 N 0.9540(4) 0.1961(6) 0.1824(3)
C26_2 C 0.9936(9) 0.2500(13) 0.1080(4)
H29_2 H 0.955847 0.286142 0.093909
H30_2 H 0.983235 0.198995 0.068070
C27_2 C 0.8618(9) 0.0864(16) 0.1786(7)
H32_2 H 0.799403 0.089829 0.162842
H33_2 H 0.875280 0.047240 0.138376
C28_2 C 0.8400(17) 0.0300(26) 0.250000
N6_2 N 0.9540(4) 0.1961(6) 0.3176(3)
C32_2 C 0.9936(9) 0.2500(13) 0.3920(4)
H37_2 H 0.955847 0.286142 0.406091
H38_2 H 0.983235 0.198995 0.431930
C33_2 C 0.8618(9) 0.0864(16) 0.3214(7)
H40_2 H 0.799403 0.089829 0.337158
H41_2 H 0.875280 0.047240 0.361624
H20 H 0.787969 0.022887 0.749999
H21 H 0.886630 0.007254 0.750000
H34 H 0.977113 0.765082 0.749999
H35 H 0.992746 0.879376 0.750000
H20_2 H 0.022887 0.787969 0.250001
H21_2 H 0.007254 0.886630 0.250000
H34_2 H 0.765082 0.977113 0.250001
H35_2 H 0.879376 0.992746 0.250000
N7 N -0.000000 0.000000 0.500000
O25 O 0.0851(10) 0.0851(10) 0.500000
N7_2 N -0.000000 1.000000 0.500000
O24 O 0.000000 0.9149(10) 0.500000
N7_3 N 1.000000 0.000000 0.500000
O23 O 0.9149(10) 0.000000 0.500000
N7_4 N 1.000000 1.000000 0.500000
O23_2 O 0.9149(10) 1.000000 0.500000
O24_2 O 1.000000 0.9149(10) 0.500000
N7_5 N -0.000000 0.000000 0.000000
O25_2 O 0.0851(10) 0.0851(10) 0.000000
N7_6 N -0.000000 0.000000 1.000000
O25_3 O 0.0851(10) 0.0851(10) 1.000000
N7_7 N -0.000000 1.000000 0.000000
O24_3 O -0.000000 0.9149(10) 0.000000
N7_8 N -0.000000 1.000000 1.000000
O24_4 O -0.000000 0.9149(10) 1.000000
N7_9 N 1.000000 0.000000 0.000000
O23_3 O 0.9149(10) 0.000000 0.000000
N7_10 N 1.000000 0.000000 1.000000
O23_4 O 0.9149(10) 0.000000 1.000000
N7_11 N 1.000000 1.000000 0.000000
O23_5 O 0.9149(10) 1.000000 0.000000
O24_5 O 1.000000 0.9149(10) 0.000000
N7_12 N 1.000000 1.000000 1.000000
O23_6 O 0.9149(10) 1.000000 1.000000
O24_6 O 1.000000 0.9149(10) 1.000000
loop_
_geom_bond_atom_site_label_1
_geom_bond_atom_site_label_2
_geom_bond_site_symmetry_1
_geom_bond_site_symmetry_2
C1 N1 1_555 1_555
N1 C2 1_555 1_555
C2 H1 1_555 1_555
H2 C2 1_555 1_555
C3 N1 1_555 1_555
H4 C3 1_555 1_555
H5 C3 1_555 1_555
C4 C3 1_555 1_555
H6 C4 1_555 1_555
H7 C4 1_555 1_555
N2 C1 1_555 1_555
C8 N2 1_555 1_555
H9 C8 1_555 1_555
H10 C8 1_555 1_555
C9 C4 1_555 1_555
H12 C9 1_555 1_555
H13 C9 1_555 1_555
H28 C22 1_555 1_555
C23 S2 1_555 1_555
O10 C24 1_555 1_555
O11 C24 1_555 1_555
C24 C23 1_555 1_555
Er5 O11 1_555 1_555
Er9 O10 1_555 1_555
N2 C9 1_555 1_555
C22 C23 1_555 1_555
Er1 O1 1_555 1_555
C5 H8 1_555 1_555
C6 C5 1_555 1_555
O2 C7 1_555 1_555
O3 Er1 1_555 1_555
S1 C6 1_555 1_555
C7 C6 1_555 1_555
O4 Er1 1_555 1_555
Er2 O4 1_555 1_555
C13 N3 1_555 1_555
N3 C14 1_555 1_555
C14 H15 1_555 1_555
H16 C14 1_555 1_555
H17 C14 1_555 1_555
C15 N3 1_555 1_555
H18 C15 1_555 1_555
H19 C15 1_555 1_555
C16 C15 1_555 1_555
O7 Er2 1_555 1_555
C17 H22 1_555 1_555
C18 C17 1_555 1_555
O8 Er1 1_555 1_555
O9 Er2 1_555 1_555
S2_2 C18 1_555 1_555
C19 C18 1_555 1_555
N4 C13 1_555 1_555
C20 N4 1_555 1_555
H23 C20 1_555 1_555
H24 C20 1_555 1_555
H25 C20 1_555 1_555
C21 C16 1_555 1_555
H26 C21 1_555 1_555
H27 C21 1_555 1_555
Er3 O2 1_555 1_555
O12 Er3 1_555 1_555
C29 H36 1_555 1_555
C30 C29 1_555 1_555
O13 Er2 1_555 1_555
O14 Er3 1_555 1_555
S3 C30 1_555 1_555
C31 C30 1_555 1_555
C34 C29 1_555 1_555
H42 C34 1_555 1_555
C35 S3 1_555 1_555
O15 C36 1_555 1_555
O16 C36 1_555 1_555
C36 C35 1_555 1_555
Er7 O15 1_555 1_555
Er9 O16 1_555 1_555
O17 Er3 1_555 1_555
O18 Er1 1_555 1_555
O19 Er2 1_555 1_555
O20 Er1 1_555 1_555
O21 Er2 1_555 1_555
O22 Er3 1_555 1_555
O3 C7 1_555 1_555
O4 Er3 1_555 1_555
C13 O7 1_555 1_555
O8 C19 1_555 1_555
O9 C19 1_555 1_555
N4 C21 1_555 1_555
O13 C31 1_555 1_555
O14 C31 1_555 1_555
C34 C35 1_555 1_555
H14 C10 1_555 1_555
C11 S1_2 1_555 1_555
O5 C12 1_555 1_555
O6 C12 1_555 1_555
C12 C11 1_555 1_555
C25 N5 1_555 1_555
N5 C26 1_555 1_555
C26 H29 1_555 1_555
H30 C26 1_555 1_555
C27 N5 1_555 1_555
H32 C27 1_555 1_555
H33 C27 1_555 1_555
C28 C27 1_555 1_555
N6 C25 1_555 1_555
C32 N6 1_555 1_555
H37 C32 1_555 1_555
H38 C32 1_555 1_555
C33 C28 1_555 1_555
H40 C33 1_555 1_555
H41 C33 1_555 1_555
Er5 O5 1_555 1_555
Er7 O6 1_555 1_555
C10 C11 1_555 1_555
N6 C33 1_555 1_555
H28_2 C22_2 1_555 1_555
C23_2 S2_3 1_555 1_555
O10_2 C24_2 1_555 1_555
O11_2 C24_2 1_555 1_555
C24_2 C23_2 1_555 1_555
Er5 O11_2 1_555 1_555
Er9 O10_2 1_555 1_555
C22_2 C23_2 1_555 1_555
H42_2 C34_2 1_555 1_555
C35_2 S3_2 1_555 1_555
O15_2 C36_2 1_555 1_555
O16_2 C36_2 1_555 1_555
C36_2 C35_2 1_555 1_555
Er7 O15_2 1_555 1_555
Er9 O16_2 1_555 1_555
C34_2 C35_2 1_555 1_555
C5_2 H8_2 1_555 1_555
C6_2 C5_2 1_555 1_555
O17 C7_2 1_555 1_555
S1_4 C6_2 1_555 1_555
C7_2 C6_2 1_555 1_555
C17_2 H22_2 1_555 1_555
C18_2 C17_2 1_555 1_555
S2_6 C18_2 1_555 1_555
C19_2 C18_2 1_555 1_555
C29_2 H36_2 1_555 1_555
C30_2 C29_2 1_555 1_555
S3_3 C30_2 1_555 1_555
C31_2 C30_2 1_555 1_555
O20 C7_2 1_555 1_555
O18 C19_2 1_555 1_555
O21 C19_2 1_555 1_555
O19 C31_2 1_555 1_555
O22 C31_2 1_555 1_555
H14_2 C10_2 1_555 1_555
C11_2 S1_5 1_555 1_555
O5_2 C12_2 1_555 1_555
O6_2 C12_2 1_555 1_555
C12_2 C11_2 1_555 1_555
Er5 O5_2 1_555 1_555
Er7 O6_2 1_555 1_555
C10_2 C11_2 1_555 1_555
C1_2 N1_2 1_555 1_555
N1_2 C2_2 1_555 1_555
C2_2 H1_2 1_555 1_555
H2_2 C2_2 1_555 1_555
C3_2 N1_2 1_555 1_555
H4_2 C3_2 1_555 1_555
H5_2 C3_2 1_555 1_555
C4_2 C3_2 1_555 1_555
H6_2 C4_2 1_555 1_555
H7_2 C4_2 1_555 1_555
N2_2 C1_2 1_555 1_555
C8_2 N2_2 1_555 1_555
H9_2 C8_2 1_555 1_555
H10_2 C8_2 1_555 1_555
C9_2 C4_2 1_555 1_555
H12_2 C9_2 1_555 1_555
H13_2 C9_2 1_555 1_555
N2_2 C9_2 1_555 1_555
Er5 O1_2 1_555 1_555
O4_2 Er5 1_555 1_555
Er7 O4_2 1_555 1_555
C13_2 N3_2 1_555 1_555
N3_2 C14_2 1_555 1_555
C14_2 H15_2 1_555 1_555
H16_2 C14_2 1_555 1_555
H17_2 C14_2 1_555 1_555
C15_2 N3_2 1_555 1_555
H18_2 C15_2 1_555 1_555
H19_2 C15_2 1_555 1_555
C16_2 C15_2 1_555 1_555
O7_2 Er7 1_555 1_555
N4_2 C13_2 1_555 1_555
C20_2 N4_2 1_555 1_555
H23_2 C20_2 1_555 1_555
H24_2 C20_2 1_555 1_555
H25_2 C20_2 1_555 1_555
C21_2 C16_2 1_555 1_555
H26_2 C21_2 1_555 1_555
H27_2 C21_2 1_555 1_555
O12_2 Er9 1_555 1_555
O4_2 Er9 1_555 1_555
C13_2 O7_2 1_555 1_555
N4_2 C21_2 1_555 1_555
C25_2 N5_2 1_555 1_555
N5_2 C26_2 1_555 1_555
C26_2 H29_2 1_555 1_555
H30_2 C26_2 1_555 1_555
C27_2 N5_2 1_555 1_555
H32_2 C27_2 1_555 1_555
H33_2 C27_2 1_555 1_555
C28_2 C27_2 1_555 1_555
N6_2 C25_2 1_555 1_555
C32_2 N6_2 1_555 1_555
H37_2 C32_2 1_555 1_555
H38_2 C32_2 1_555 1_555
C33_2 C28_2 1_555 1_555
H40_2 C33_2 1_555 1_555
H41_2 C33_2 1_555 1_555
N6_2 C33_2 1_555 1_555
O25 N7 1_555 1_555
O24 N7_2 1_555 1_555
N7_3 O23 1_555 1_555
N7_4 O23_2 1_555 1_555
O24_2 N7_4 1_555 1_555
O25_2 N7_5 1_555 1_555
O25_3 N7_6 1_555 1_555
O24_3 N7_7 1_555 1_555
O24_4 N7_8 1_555 1_555
N7_9 O23_3 1_555 1_555
N7_10 O23_4 1_555 1_555
N7_11 O23_5 1_555 1_555
O24_5 N7_11 1_555 1_555
N7_12 O23_6 1_555 1_555
O24_6 N7_12 1_555 1_555

#END
