
###############################################################################
#
# This file contains modified crystal structure data generated from the
# MOF subset of the Cambridge Structural Database (CSD) v543 
# hosted by the Cambridge Crystallographic Data Centre (CCDC).
#
# This work is licensed under the Creative Commons
# Attribution-NonCommercial-ShareAlike 4.0 International License.
# To view a copy of this license, visit
# http://creativecommons.org/licenses/by-nc-sa/4.0/
# or send a letter to
# Creative Commons, PO Box 1866, Mountain View, CA 94042, USA.
#
# CIF created using the CSD Python API on 29 September 2022
# The structure has been converted into the P1 space group
# The structure has a 3D framework
# The original CSD entry IQIJOK is in the hexagonal crystal system
# The framework has been calculated to contain at least 10.0% void space
# The void calculation uses a probe of radius 1.32A, grid spacing 0.4
# The framework is charged, counterions have been retained in the structure
#
###############################################################################

data_IQIJOK
_chemical_formula_moiety         '(C66 H72 N24 O47 S15 Sc6 1+)n'
_symmetry_cell_setting           triclinic
_symmetry_space_group_name_H-M   'P 1'
_symmetry_Int_Tables_number      1
_space_group_name_Hall           'P 1'
loop_
_symmetry_equiv_pos_site_id
_symmetry_equiv_pos_as_xyz
1 x,y,z
_cell_length_a                   13.938(4)
_cell_length_b                   13.938(4)
_cell_length_c                   16.598(6)
_cell_angle_alpha                90
_cell_angle_beta                 90
_cell_angle_gamma                120
_cell_volume                     2792.46
loop_
_atom_site_label
_atom_site_type_symbol
_atom_site_fract_x
_atom_site_fract_y
_atom_site_fract_z
N1 N 0.000000 -0.000000 0.500000
O1 O 0.0806(10) -0.000000 0.500000
O2 O 0.000000 0.0806(10) 0.500000
N1_2 N 0.000000 1.000000 0.500000
O1_2 O 0.0806(10) 1.000000 0.500000
N1_3 N 1.000000 -0.000000 0.500000
O2_2 O 1.000000 0.0806(10) 0.500000
N1_4 N 1.000000 1.000000 0.500000
O3 O 0.9194(10) 0.9194(10) 0.500000
N1_5 N 0.000000 -0.000000 0.000000
O1_3 O 0.0806(10) -0.000000 0.000000
O2_3 O 0.000000 0.0806(10) 0.000000
N1_6 N 0.000000 -0.000000 1.000000
O1_4 O 0.0806(10) -0.000000 1.000000
O2_4 O 0.000000 0.0806(10) 1.000000
N1_7 N 0.000000 1.000000 0.000000
O1_5 O 0.0806(10) 1.000000 0.000000
N1_8 N 0.000000 1.000000 1.000000
O1_6 O 0.0806(10) 1.000000 1.000000
N1_9 N 1.000000 -0.000000 0.000000
O2_5 O 1.000000 0.0806(10) 0.000000
N1_10 N 1.000000 -0.000000 1.000000
O2_6 O 1.000000 0.0806(10) 1.000000
N1_11 N 1.000000 1.000000 0.000000
O3_2 O 0.9194(10) 0.9194(10) 0.000000
N1_12 N 1.000000 1.000000 1.000000
O3_3 O 0.9194(10) 0.9194(10) 1.000000
S1 S 0.49184(17) -0.000000 0.500000
C9 C 0.3336(7) 0.0343(5) 0.5335(3)
H12 H 0.291240 0.060729 0.557903
O8 O 0.5784(6) 0.1248(4) 0.6547(3)
C10 C 0.4352(7) 0.0587(5) 0.5596(3)
O9 O 0.4560(4) 0.1814(3) 0.6624(2)
C11 C 0.4955(8) 0.1269(5) 0.6303(3)
C23 C 0.7682(12) 0.0245(8) 0.1058(5)
H25 H 0.828181 0.064549 0.068697
H27 H 0.714237 0.047477 0.099221
N6 N 0.8097(10) 0.0468(7) 0.1862(5)
C24 C 0.7469(12) 0.0036(8) 0.250000
C28 C 0.9215(13) 0.1318(9) 0.2052(5)
H29 H 0.937478 0.203194 0.184012
H30 H 0.975189 0.113428 0.184013
C29 C 0.7682(12) 0.0245(8) 0.3942(5)
H31 H 0.828181 0.064549 0.431303
H33 H 0.714237 0.047477 0.400779
N7 N 0.8097(10) 0.0468(7) 0.3138(5)
C30 C 0.9215(13) 0.1318(9) 0.2948(5)
H34 H 0.937478 0.203194 0.315988
H35 H 0.975189 0.113428 0.315987
Sc5 Sc 0.69376(13) 0.20364(13) 0.750000
Sc7 Sc 0.50988(18) 0.30624(13) 0.750000
Sc1 Sc 0.20364(13) 0.69376(13) 0.250000
O4 O 0.333333 0.666667 0.250000
H2 H 0.053446 0.787855 0.095242
O5 O 0.0670(5) 0.7158(5) 0.250000
C3 C 0.2993(5) 0.9657(5) 0.4665(3)
H4 H 0.230511 0.939271 0.442097
O6 O 0.4536(4) 0.8752(4) 0.3453(3)
C4 C 0.3765(5) 0.9413(5) 0.4404(3)
O7 O 0.2746(3) 0.8186(3) 0.3376(2)
S1_2 S 0.49184(17) 1.000000 0.500000
C5 C 0.3686(6) 0.8731(5) 0.3697(3)
H8 H 0.053446 0.787855 0.404758
Sc2 Sc 0.30624(13) 0.50988(18) 0.250000
C12 C 0.2563(9) 0.2318(12) 0.1058(5)
H13 H 0.236368 0.171819 0.068697
H14 H 0.212145 0.265591 0.095242
H15 H 0.333240 0.285763 0.099221
O10 O 0.2842(5) 0.3512(7) 0.250000
N4 N 0.2371(7) 0.1903(10) 0.1862(5)
C13 C 0.2567(9) 0.2531(12) 0.250000
C14 C 0.0343(5) 0.3336(7) 0.4665(3)
H16 H 0.060729 0.291240 0.442097
O11 O 0.1248(4) 0.5784(6) 0.3453(3)
C15 C 0.0587(5) 0.4352(7) 0.4404(3)
O12 O 0.1814(3) 0.4560(4) 0.3376(2)
S2 S 0.000000 0.49184(17) 0.500000
C16 C 0.1269(5) 0.4955(8) 0.3697(3)
C17 C 0.2103(10) 0.0785(13) 0.2052(5)
H17 H 0.265716 0.062522 0.184012
H18 H 0.138239 0.024811 0.184013
C18 C 0.2563(9) 0.2318(12) 0.3942(5)
H19 H 0.236368 0.171819 0.431303
H20 H 0.212145 0.265591 0.404758
H21 H 0.333240 0.285763 0.400779
N5 N 0.2371(7) 0.1903(10) 0.3138(5)
C19 C 0.2103(10) 0.0785(13) 0.2948(5)
H22 H 0.265716 0.062522 0.315988
H23 H 0.138239 0.024811 0.315987
Sc3 Sc 0.49012(18) 0.79636(13) 0.250000
H26 H 0.734409 0.946554 0.095242
O15 O 0.6488(7) 0.9330(5) 0.250000
C25 C 0.6664(7) 0.7007(5) 0.4665(3)
H28 H 0.708760 0.769489 0.442097
O16 O 0.4216(6) 0.5464(4) 0.3453(3)
C26 C 0.5648(7) 0.6235(5) 0.4404(3)
O17 O 0.5440(4) 0.7254(3) 0.3376(2)
S3 S 0.50816(17) 0.50816(17) 0.500000
C27 C 0.5045(8) 0.6314(6) 0.3697(3)
H32 H 0.734409 0.946554 0.404758
C31 C 0.7007(5) 0.6664(7) 0.5335(3)
H36 H 0.769489 0.708760 0.557903
O18 O 0.5464(4) 0.4216(6) 0.6547(3)
C32 C 0.6235(5) 0.5648(7) 0.5596(3)
O19 O 0.7254(3) 0.5440(4) 0.6624(2)
C33 C 0.6314(6) 0.5045(8) 0.6303(3)
Sc9 Sc 0.79636(13) 0.49012(18) 0.750000
O20 O 0.4536(4) 0.8752(4) 0.1547(3)
O21 O 0.1248(4) 0.5784(6) 0.1547(3)
O22 O 0.4216(6) 0.5464(4) 0.1547(3)
O23 O 0.2746(3) 0.8186(3) 0.1624(2)
O24 O 0.1814(3) 0.4560(4) 0.1624(2)
O25 O 0.5440(4) 0.7254(3) 0.1624(2)
C1 C 0.9755(8) 0.7437(9) 0.1058(5)
H1 H 0.935451 0.763632 0.068697
H3 H 0.952523 0.666760 0.099221
N2 N 0.9532(7) 0.7629(7) 0.1862(5)
C2 C 0.9964(8) 0.7433(9) 0.250000
C6 C 0.8682(9) 0.7897(10) 0.2052(5)
H5 H 0.796806 0.734284 0.184012
H6 H 0.886572 0.861761 0.184013
C7 C 0.9755(8) 0.7437(9) 0.3942(5)
H7 H 0.935451 0.763632 0.431303
H9 H 0.952523 0.666760 0.400779
N3 N 0.9532(7) 0.7629(7) 0.3138(5)
C8 C 0.8682(9) 0.7897(10) 0.2948(5)
H10 H 0.796806 0.734284 0.315988
H11 H 0.886572 0.861761 0.315987
S2_2 S 1.000000 0.49184(17) 0.500000
C20 C 0.9657(5) 0.2993(5) 0.5335(3)
H24 H 0.939271 0.230511 0.557903
O13 O 0.8752(4) 0.4536(4) 0.6547(3)
C21 C 0.9413(5) 0.3765(5) 0.5596(3)
O14 O 0.8186(3) 0.2746(3) 0.6624(2)
C22 C 0.8731(5) 0.3686(6) 0.6303(3)
S1_3 S 0.49184(17) -0.000000 0.000000
S1_4 S 0.49184(17) -0.000000 1.000000
C9_2 C 0.3336(7) 0.0343(5) 0.9665(3)
H12_2 H 0.291240 0.060729 0.942097
O8_2 O 0.5784(6) 0.1248(4) 0.8453(3)
C10_2 C 0.4352(7) 0.0587(5) 0.9404(3)
O9_2 O 0.4560(4) 0.1814(3) 0.8376(2)
C11_2 C 0.4955(8) 0.1269(5) 0.8697(3)
C3_2 C 0.2993(5) 0.9657(5) 0.0335(3)
H4_2 H 0.230511 0.939271 0.057903
C4_2 C 0.3765(5) 0.9413(5) 0.0596(3)
S1_5 S 0.49184(17) 1.000000 0.000000
C5_2 C 0.3686(6) 0.8731(5) 0.1303(3)
C14_2 C 0.0343(5) 0.3336(7) 0.0335(3)
H16_2 H 0.060729 0.291240 0.057903
C15_2 C 0.0587(5) 0.4352(7) 0.0596(3)
S2_3 S 0.000000 0.49184(17) 0.000000
C16_2 C 0.1269(5) 0.4955(8) 0.1303(3)
C25_2 C 0.6664(7) 0.7007(5) 0.0335(3)
H28_2 H 0.708760 0.769489 0.057903
C26_2 C 0.5648(7) 0.6235(5) 0.0596(3)
S3_2 S 0.50816(17) 0.50816(17) 0.000000
C27_2 C 0.5045(8) 0.6314(6) 0.1303(3)
S1_6 S 0.49184(17) 1.000000 1.000000
S2_4 S -0.000000 0.49184(17) 1.000000
S3_3 S 0.50816(17) 0.50816(17) 1.000000
C31_2 C 0.7007(5) 0.6664(7) 0.9665(3)
H36_2 H 0.769489 0.708760 0.942097
O18_2 O 0.5464(4) 0.4216(6) 0.8453(3)
C32_2 C 0.6235(5) 0.5648(7) 0.9404(3)
O19_2 O 0.7254(3) 0.5440(4) 0.8376(2)
C33_2 C 0.6314(6) 0.5045(8) 0.8697(3)
S2_5 S 1.000000 0.49184(17) 0.000000
S2_6 S 1.000000 0.49184(17) 1.000000
C20_2 C 0.9657(5) 0.2993(5) 0.9665(3)
H24_2 H 0.939271 0.230511 0.942097
O13_2 O 0.8752(4) 0.4536(4) 0.8453(3)
C21_2 C 0.9413(5) 0.3765(5) 0.9404(3)
O14_2 O 0.8186(3) 0.2746(3) 0.8376(2)
C22_2 C 0.8731(5) 0.3686(6) 0.8697(3)
C23_2 C 0.0245(8) 0.7682(12) 0.8942(5)
H25_2 H 0.064549 0.828181 0.931303
H27_2 H 0.047477 0.714237 0.900779
N6_2 N 0.0468(7) 0.8097(10) 0.8138(5)
C24_2 C 0.0036(8) 0.7469(12) 0.750000
C28_2 C 0.1318(9) 0.9215(13) 0.7948(5)
H29_2 H 0.203194 0.937478 0.815988
H30_2 H 0.113428 0.975189 0.815987
C29_2 C 0.0245(8) 0.7682(12) 0.6058(5)
H31_2 H 0.064549 0.828181 0.568697
H33_2 H 0.047477 0.714237 0.599221
N7_2 N 0.0468(7) 0.8097(10) 0.6862(5)
C30_2 C 0.1318(9) 0.9215(13) 0.7052(5)
H34_2 H 0.203194 0.937478 0.684012
H35_2 H 0.113428 0.975189 0.684013
O4_2 O 0.666667 0.333333 0.750000
H2_2 H 0.787855 0.053446 0.904758
O5_2 O 0.7158(5) 0.0670(5) 0.750000
H8_2 H 0.787855 0.053446 0.595242
C12_2 C 0.2318(12) 0.2563(9) 0.8942(5)
H13_2 H 0.171819 0.236368 0.931303
H14_2 H 0.265591 0.212145 0.904758
H15_2 H 0.285763 0.333240 0.900779
O10_2 O 0.3512(7) 0.2842(5) 0.750000
N4_2 N 0.1903(10) 0.2371(7) 0.8138(5)
C13_2 C 0.2531(12) 0.2567(9) 0.750000
C17_2 C 0.0785(13) 0.2103(10) 0.7948(5)
H17_2 H 0.062522 0.265716 0.815988
H18_2 H 0.024811 0.138239 0.815987
C18_2 C 0.2318(12) 0.2563(9) 0.6058(5)
H19_2 H 0.171819 0.236368 0.568697
H20_2 H 0.265591 0.212145 0.595242
H21_2 H 0.285763 0.333240 0.599221
N5_2 N 0.1903(10) 0.2371(7) 0.6862(5)
C19_2 C 0.0785(13) 0.2103(10) 0.7052(5)
H22_2 H 0.062522 0.265716 0.684012
H23_2 H 0.024811 0.138239 0.684013
H26_2 H 0.946554 0.734409 0.904758
O15_2 O 0.9330(5) 0.6488(7) 0.750000
H32_2 H 0.946554 0.734409 0.595242
C1_2 C 0.7437(9) 0.9755(8) 0.8942(5)
H1_2 H 0.763632 0.935451 0.931303
H3_2 H 0.666760 0.952523 0.900779
N2_2 N 0.7629(7) 0.9532(7) 0.8138(5)
C2_2 C 0.7433(9) 0.9964(8) 0.750000
C6_2 C 0.7897(10) 0.8682(9) 0.7948(5)
H5_2 H 0.734284 0.796806 0.815988
H6_2 H 0.861761 0.886572 0.815987
C7_2 C 0.7437(9) 0.9755(8) 0.6058(5)
H7_2 H 0.763632 0.935451 0.568697
H9_2 H 0.666760 0.952523 0.599221
N3_2 N 0.7629(7) 0.9532(7) 0.6862(5)
C8_2 C 0.7897(10) 0.8682(9) 0.7052(5)
H10_2 H 0.734284 0.796806 0.684012
H11_2 H 0.861761 0.886572 0.684013
loop_
_geom_bond_atom_site_label_1
_geom_bond_atom_site_label_2
_geom_bond_site_symmetry_1
_geom_bond_site_symmetry_2
N1 O1 1_555 1_555
O2 N1 1_555 1_555
N1_2 O1_2 1_555 1_555
O2_2 N1_3 1_555 1_555
O3 N1_4 1_555 1_555
N1_5 O1_3 1_555 1_555
O2_3 N1_5 1_555 1_555
N1_6 O1_4 1_555 1_555
O2_4 N1_6 1_555 1_555
N1_7 O1_5 1_555 1_555
N1_8 O1_6 1_555 1_555
O2_5 N1_9 1_555 1_555
O2_6 N1_10 1_555 1_555
O3_2 N1_11 1_555 1_555
O3_3 N1_12 1_555 1_555
H12 C9 1_555 1_555
O8 C11 1_555 1_555
C10 S1 1_555 1_555
O9 C11 1_555 1_555
C11 C10 1_555 1_555
C23 H25 1_555 1_555
H27 C23 1_555 1_555
N6 C23 1_555 1_555
C28 N6 1_555 1_555
H29 C28 1_555 1_555
H30 C28 1_555 1_555
C29 H31 1_555 1_555
H33 C29 1_555 1_555
N7 C24 1_555 1_555
C30 C28 1_555 1_555
H34 C30 1_555 1_555
H35 C30 1_555 1_555
Sc5 O8 1_555 1_555
Sc7 O9 1_555 1_555
C9 C10 1_555 1_555
N6 C24 1_555 1_555
C29 N7 1_555 1_555
N7 C30 1_555 1_555
Sc1 O4 1_555 1_555
O4 Sc2 1_555 1_555
O5 Sc1 1_555 1_555
C3 H4 1_555 1_555
O6 C5 1_555 1_555
C4 C3 1_555 1_555
O7 Sc1 1_555 1_555
S1_2 C4 1_555 1_555
C5 C4 1_555 1_555
Sc2 O10 1_555 1_555
C12 H13 1_555 1_555
H14 C12 1_555 1_555
H15 C12 1_555 1_555
O10 C13 1_555 1_555
N4 C12 1_555 1_555
C13 N4 1_555 1_555
C14 H16 1_555 1_555
O11 Sc1 1_555 1_555
C15 C14 1_555 1_555
O12 Sc2 1_555 1_555
S2 C15 1_555 1_555
C16 O11 1_555 1_555
C17 N4 1_555 1_555
H17 C17 1_555 1_555
H18 C17 1_555 1_555
C18 H19 1_555 1_555
H20 C18 1_555 1_555
H21 C18 1_555 1_555
N5 C13 1_555 1_555
C19 C17 1_555 1_555
H22 C19 1_555 1_555
H23 C19 1_555 1_555
Sc3 O4 1_555 1_555
O15 Sc3 1_555 1_555
C25 H28 1_555 1_555
O16 Sc2 1_555 1_555
C26 C25 1_555 1_555
O17 Sc3 1_555 1_555
S3 C26 1_555 1_555
C27 O16 1_555 1_555
C31 C25 1_555 1_555
H36 C31 1_555 1_555
O18 C33 1_555 1_555
C32 S3 1_555 1_555
O19 C33 1_555 1_555
C33 C32 1_555 1_555
Sc7 O18 1_555 1_555
Sc9 O19 1_555 1_555
O20 Sc3 1_555 1_555
O21 Sc1 1_555 1_555
O22 Sc2 1_555 1_555
O23 Sc1 1_555 1_555
O24 Sc2 1_555 1_555
O25 Sc3 1_555 1_555
O6 Sc3 1_555 1_555
O7 C5 1_555 1_555
C15 C16 1_555 1_555
O12 C16 1_555 1_555
C18 N5 1_555 1_555
N5 C19 1_555 1_555
C26 C27 1_555 1_555
O17 C27 1_555 1_555
C31 C32 1_555 1_555
C1 H1 1_555 1_555
H3 C1 1_555 1_555
N2 C1 1_555 1_555
C6 N2 1_555 1_555
H5 C6 1_555 1_555
H6 C6 1_555 1_555
C7 H7 1_555 1_555
H9 C7 1_555 1_555
N3 C2 1_555 1_555
C8 C6 1_555 1_555
H10 C8 1_555 1_555
H11 C8 1_555 1_555
H24 C20 1_555 1_555
O13 C22 1_555 1_555
C21 S2_2 1_555 1_555
O14 C22 1_555 1_555
C22 C21 1_555 1_555
Sc5 O14 1_555 1_555
Sc9 O13 1_555 1_555
N2 C2 1_555 1_555
C7 N3 1_555 1_555
N3 C8 1_555 1_555
C20 C21 1_555 1_555
H12_2 C9_2 1_555 1_555
O8_2 C11_2 1_555 1_555
C10_2 S1_4 1_555 1_555
O9_2 C11_2 1_555 1_555
C11_2 C10_2 1_555 1_555
Sc5 O8_2 1_555 1_555
Sc7 O9_2 1_555 1_555
C9_2 C10_2 1_555 1_555
C3_2 H4_2 1_555 1_555
O20 C5_2 1_555 1_555
C4_2 C3_2 1_555 1_555
S1_5 C4_2 1_555 1_555
C5_2 C4_2 1_555 1_555
C14_2 H16_2 1_555 1_555
C15_2 C14_2 1_555 1_555
S2_3 C15_2 1_555 1_555
C16_2 O21 1_555 1_555
C25_2 H28_2 1_555 1_555
C26_2 C25_2 1_555 1_555
S3_2 C26_2 1_555 1_555
C27_2 O22 1_555 1_555
O23 C5_2 1_555 1_555
C15_2 C16_2 1_555 1_555
O24 C16_2 1_555 1_555
C26_2 C27_2 1_555 1_555
O25 C27_2 1_555 1_555
H36_2 C31_2 1_555 1_555
O18_2 C33_2 1_555 1_555
C32_2 S3_3 1_555 1_555
O19_2 C33_2 1_555 1_555
C33_2 C32_2 1_555 1_555
Sc7 O18_2 1_555 1_555
Sc9 O19_2 1_555 1_555
C31_2 C32_2 1_555 1_555
H24_2 C20_2 1_555 1_555
O13_2 C22_2 1_555 1_555
C21_2 S2_6 1_555 1_555
O14_2 C22_2 1_555 1_555
C22_2 C21_2 1_555 1_555
Sc5 O14_2 1_555 1_555
Sc9 O13_2 1_555 1_555
C20_2 C21_2 1_555 1_555
C23_2 H25_2 1_555 1_555
H27_2 C23_2 1_555 1_555
N6_2 C23_2 1_555 1_555
C28_2 N6_2 1_555 1_555
H29_2 C28_2 1_555 1_555
H30_2 C28_2 1_555 1_555
C29_2 H31_2 1_555 1_555
H33_2 C29_2 1_555 1_555
N7_2 C24_2 1_555 1_555
C30_2 C28_2 1_555 1_555
H34_2 C30_2 1_555 1_555
H35_2 C30_2 1_555 1_555
N6_2 C24_2 1_555 1_555
C29_2 N7_2 1_555 1_555
N7_2 C30_2 1_555 1_555
Sc5 O4_2 1_555 1_555
O4_2 Sc7 1_555 1_555
O5_2 Sc5 1_555 1_555
Sc7 O10_2 1_555 1_555
C12_2 H13_2 1_555 1_555
H14_2 C12_2 1_555 1_555
H15_2 C12_2 1_555 1_555
O10_2 C13_2 1_555 1_555
N4_2 C12_2 1_555 1_555
C13_2 N4_2 1_555 1_555
C17_2 N4_2 1_555 1_555
H17_2 C17_2 1_555 1_555
H18_2 C17_2 1_555 1_555
C18_2 H19_2 1_555 1_555
H20_2 C18_2 1_555 1_555
H21_2 C18_2 1_555 1_555
N5_2 C13_2 1_555 1_555
C19_2 C17_2 1_555 1_555
H22_2 C19_2 1_555 1_555
H23_2 C19_2 1_555 1_555
Sc9 O4_2 1_555 1_555
O15_2 Sc9 1_555 1_555
C18_2 N5_2 1_555 1_555
N5_2 C19_2 1_555 1_555
C1_2 H1_2 1_555 1_555
H3_2 C1_2 1_555 1_555
N2_2 C1_2 1_555 1_555
C6_2 N2_2 1_555 1_555
H5_2 C6_2 1_555 1_555
H6_2 C6_2 1_555 1_555
C7_2 H7_2 1_555 1_555
H9_2 C7_2 1_555 1_555
N3_2 C2_2 1_555 1_555
C8_2 C6_2 1_555 1_555
H10_2 C8_2 1_555 1_555
H11_2 C8_2 1_555 1_555
N2_2 C2_2 1_555 1_555
C7_2 N3_2 1_555 1_555
N3_2 C8_2 1_555 1_555

#END
