
###############################################################################
#
# This file contains modified crystal structure data generated from the
# MOF subset of the Cambridge Structural Database (CSD) v543 
# hosted by the Cambridge Crystallographic Data Centre (CCDC).
#
# This work is licensed under the Creative Commons
# Attribution-NonCommercial-ShareAlike 4.0 International License.
# To view a copy of this license, visit
# http://creativecommons.org/licenses/by-nc-sa/4.0/
# or send a letter to
# Creative Commons, PO Box 1866, Mountain View, CA 94042, USA.
#
# CIF created using the CSD Python API on 29 September 2022
# The structure has been converted into the P1 space group
# The structure has a 3D framework
# The original CSD entry IQIJUQ is in the hexagonal crystal system
# The framework has been calculated to contain at least 10.0% void space
# The void calculation uses a probe of radius 1.32A, grid spacing 0.4
# The framework is charged, counterions have been retained in the structure
#
###############################################################################

data_IQIJUQ
_chemical_formula_moiety         '(C66 H72 In6 N24 O47 S15 1+)n'
_symmetry_cell_setting           triclinic
_symmetry_space_group_name_H-M   'P 1'
_symmetry_Int_Tables_number      1
_space_group_name_Hall           'P 1'
loop_
_symmetry_equiv_pos_site_id
_symmetry_equiv_pos_as_xyz
1 x,y,z
_cell_length_a                   14.1146(3)
_cell_length_b                   14.1146(3)
_cell_length_c                   16.5367(4)
_cell_angle_alpha                90
_cell_angle_beta                 90
_cell_angle_gamma                120
_cell_volume                     2853.1
loop_
_atom_site_label
_atom_site_type_symbol
_atom_site_fract_x
_atom_site_fract_y
_atom_site_fract_z
S2 S 0.48027(10) 0.00000(14) 0.000000
C20 C 0.3241(3) 0.0363(4) 0.0335(2)
H24 H 0.283265 0.063992 0.057330
O10 O 0.4474(2) 0.1848(3) 0.16006(16)
C21 C 0.4255(3) 0.0609(4) 0.0588(2)
O11 O 0.5698(2) 0.1270(3) 0.15142(15)
C22 C 0.4865(3) 0.1302(4) 0.1292(2)
In5 In 0.51334(3) 0.31316(3) 0.250000
In9 In 0.68684(3) 0.20018(4) 0.250000
C12 C 0.9082(5) 0.1110(8) 0.7037(4)
H13 H 0.932405 0.183551 0.682391
H14 H 0.954572 0.084267 0.682393
C13 C 0.7548(6) 0.0223(9) 0.6028(3)
H16 H 0.800872 0.008864 0.567570
H17 H 0.753839 0.086620 0.585081
N3 N 0.7974(3) 0.0389(5) 0.6854(3)
C14 C 0.7363(5) 0.0057(7) 0.750000
S2_2 S 0.48027(10) 0.00000(14) 1.000000
C18 C 0.9082(5) 0.1110(8) 0.7963(4)
H19 H 0.932405 0.183551 0.817609
H20 H 0.954572 0.084267 0.817607
C19 C 0.7548(6) 0.0223(9) 0.8972(3)
H22 H 0.800872 0.008864 0.932430
H23 H 0.753839 0.086620 0.914919
N4 N 0.7974(3) 0.0389(5) 0.8146(3)
S1 S 0.51973(10) 0.51973(10) 0.000000
C9 C 0.7122(3) 0.6759(3) 0.0335(2)
H12 H 0.780727 0.716735 0.057330
O5 O 0.7374(2) 0.5526(2) 0.16006(16)
C10 C 0.6354(3) 0.5745(3) 0.0588(2)
O6 O 0.5572(2) 0.4302(2) 0.15142(15)
C11 C 0.6437(3) 0.5135(3) 0.1292(2)
S2_3 S 0.48027(10) 1.00000(14) 0.000000
S3 S 0.00000(14) 0.48027(10) 0.000000
In7 In 0.79982(4) 0.48666(3) 0.250000
In1 In 0.31316(3) 0.51334(3) 0.750000
O1 O 0.333333 0.666667 0.750000
C1 C 0.2028(6) 0.0918(5) 0.7037(4)
H1 H 0.251146 0.067595 0.682391
H2 H 0.129695 0.045428 0.682393
C2 C 0.2675(7) 0.2452(6) 0.6028(3)
H3 H 0.278882 0.318130 0.601553
H4 H 0.207992 0.199128 0.567570
H5 H 0.332781 0.246161 0.585081
O2 O 0.3139(4) 0.3656(3) 0.750000
N1 N 0.2415(4) 0.2026(3) 0.6854(3)
C3 C 0.2694(5) 0.2637(5) 0.750000
C4 C 0.6759(3) 0.7122(3) 0.9665(2)
H6 H 0.716735 0.780727 0.942670
O3 O 0.5526(2) 0.7374(2) 0.83994(16)
C5 C 0.5745(3) 0.6354(3) 0.9412(2)
O4 O 0.4302(2) 0.5572(2) 0.84858(15)
S1_2 S 0.51973(10) 0.51973(10) 1.000000
C6 C 0.5135(3) 0.6437(3) 0.8708(2)
C7 C 0.2028(6) 0.0918(5) 0.7963(4)
H7 H 0.251146 0.067595 0.817609
H8 H 0.129695 0.045428 0.817607
C8 C 0.2675(7) 0.2452(6) 0.8972(3)
H9 H 0.278882 0.318130 0.898447
H10 H 0.207992 0.199128 0.932430
H11 H 0.332781 0.246161 0.914919
N2 N 0.2415(4) 0.2026(3) 0.8146(3)
In2 In 0.48666(3) 0.79982(4) 0.750000
H15 H 0.681870 0.960752 0.601553
O7 O 0.6344(3) 0.9483(5) 0.750000
C15 C 0.2878(3) 0.9637(4) 0.9665(2)
H18 H 0.219273 0.936008 0.942670
O8 O 0.2626(2) 0.8152(3) 0.83994(16)
C16 C 0.3646(3) 0.9391(4) 0.9412(2)
O9 O 0.4428(2) 0.8730(3) 0.84858(15)
S2_4 S 0.48027(10) 1.00000(14) 1.000000
C17 C 0.3563(3) 0.8698(4) 0.8708(2)
H21 H 0.681870 0.960752 0.898447
In3 In 0.20018(4) 0.68684(3) 0.750000
H27 H 0.039248 0.721118 0.601553
O12 O 0.0517(5) 0.6861(4) 0.750000
C26 C 0.0363(4) 0.3241(3) 0.9665(2)
H30 H 0.063992 0.283265 0.942670
O13 O 0.1848(3) 0.4474(2) 0.83994(16)
C27 C 0.0609(4) 0.4255(3) 0.9412(2)
O14 O 0.1270(3) 0.5698(2) 0.84858(15)
S3_2 S 0.00000(14) 0.48027(10) 1.000000
C28 C 0.1302(4) 0.4865(3) 0.8708(2)
H33 H 0.039248 0.721118 0.898447
O17 O 0.5526(2) 0.7374(2) 0.66006(16)
O18 O 0.2626(2) 0.8152(3) 0.66006(16)
O19 O 0.1848(3) 0.4474(2) 0.66006(16)
O20 O 0.4302(2) 0.5572(2) 0.65142(15)
O21 O 0.4428(2) 0.8730(3) 0.65142(15)
O22 O 0.1270(3) 0.5698(2) 0.65142(15)
S3_3 S 1.00000(14) 0.48027(10) 0.000000
C31 C 0.9637(4) 0.2878(3) 0.0335(2)
H36 H 0.936008 0.219273 0.057330
O15 O 0.8152(3) 0.2626(2) 0.16006(16)
C32 C 0.9391(4) 0.3646(3) 0.0588(2)
O16 O 0.8730(3) 0.4428(2) 0.15142(15)
C33 C 0.8698(4) 0.3563(3) 0.1292(2)
C23 C 0.8890(8) 0.7972(6) 0.7037(4)
H25 H 0.816449 0.748854 0.682391
H26 H 0.915733 0.870305 0.682393
C24 C 0.9777(9) 0.7325(7) 0.6028(3)
H28 H 0.991136 0.792008 0.567570
H29 H 0.913380 0.667219 0.585081
N5 N 0.9611(5) 0.7585(4) 0.6854(3)
C25 C 0.9943(7) 0.7306(5) 0.750000
S3_4 S 1.00000(14) 0.48027(10) 1.000000
C29 C 0.8890(8) 0.7972(6) 0.7963(4)
H31 H 0.816449 0.748854 0.817609
H32 H 0.915733 0.870305 0.817607
C30 C 0.9777(9) 0.7325(7) 0.8972(3)
H34 H 0.991136 0.792008 0.932430
H35 H 0.913380 0.667219 0.914919
N6 N 0.9611(5) 0.7585(4) 0.8146(3)
S2_5 S 0.48027(10) 0.00000(14) 0.500000
C20_2 C 0.3241(3) 0.0363(4) 0.4665(2)
H24_2 H 0.283265 0.063992 0.442670
O10_2 O 0.4474(2) 0.1848(3) 0.33994(16)
C21_2 C 0.4255(3) 0.0609(4) 0.4412(2)
O11_2 O 0.5698(2) 0.1270(3) 0.34858(15)
C22_2 C 0.4865(3) 0.1302(4) 0.3708(2)
C4_2 C 0.6759(3) 0.7122(3) 0.5335(2)
H6_2 H 0.716735 0.780727 0.557330
C5_2 C 0.5745(3) 0.6354(3) 0.5588(2)
S1_3 S 0.51973(10) 0.51973(10) 0.500000
C6_2 C 0.5135(3) 0.6437(3) 0.6292(2)
C9_2 C 0.7122(3) 0.6759(3) 0.4665(2)
H12_2 H 0.780727 0.716735 0.442670
O5_2 O 0.7374(2) 0.5526(2) 0.33994(16)
C10_2 C 0.6354(3) 0.5745(3) 0.4412(2)
O6_2 O 0.5572(2) 0.4302(2) 0.34858(15)
C11_2 C 0.6437(3) 0.5135(3) 0.3708(2)
C15_2 C 0.2878(3) 0.9637(4) 0.5335(2)
H18_2 H 0.219273 0.936008 0.557330
C16_2 C 0.3646(3) 0.9391(4) 0.5588(2)
S2_6 S 0.48027(10) 1.00000(14) 0.500000
C17_2 C 0.3563(3) 0.8698(4) 0.6292(2)
C26_2 C 0.0363(4) 0.3241(3) 0.5335(2)
H30_2 H 0.063992 0.283265 0.557330
C27_2 C 0.0609(4) 0.4255(3) 0.5588(2)
S3_5 S 0.00000(14) 0.48027(10) 0.500000
C28_2 C 0.1302(4) 0.4865(3) 0.6292(2)
S3_6 S 1.00000(14) 0.48027(10) 0.500000
C31_2 C 0.9637(4) 0.2878(3) 0.4665(2)
H36_2 H 0.936008 0.219273 0.442670
O15_2 O 0.8152(3) 0.2626(2) 0.33994(16)
C32_2 C 0.9391(4) 0.3646(3) 0.4412(2)
O16_2 O 0.8730(3) 0.4428(2) 0.34858(15)
C33_2 C 0.8698(4) 0.3563(3) 0.3708(2)
C12_2 C 0.1110(8) 0.9082(5) 0.2963(4)
H13_2 H 0.183551 0.932405 0.317609
H14_2 H 0.084267 0.954572 0.317607
C13_2 C 0.0223(9) 0.7548(6) 0.3972(3)
H16_2 H 0.008864 0.800872 0.432430
H17_2 H 0.086620 0.753839 0.414919
N3_2 N 0.0389(5) 0.7974(3) 0.3146(3)
C14_2 C 0.0057(7) 0.7363(5) 0.250000
C18_2 C 0.1110(8) 0.9082(5) 0.2037(4)
H19_2 H 0.183551 0.932405 0.182391
H20_2 H 0.084267 0.954572 0.182393
C19_2 C 0.0223(9) 0.7548(6) 0.1028(3)
H22_2 H 0.008864 0.800872 0.067570
H23_2 H 0.086620 0.753839 0.085081
N4_2 N 0.0389(5) 0.7974(3) 0.1854(3)
O1_2 O 0.666667 0.333333 0.250000
C1_2 C 0.0918(5) 0.2028(6) 0.2963(4)
H1_2 H 0.067595 0.251146 0.317609
H2_2 H 0.045428 0.129695 0.317607
C2_2 C 0.2452(6) 0.2675(7) 0.3972(3)
H3_2 H 0.318130 0.278882 0.398447
H4_2 H 0.199128 0.207992 0.432430
H5_2 H 0.246161 0.332781 0.414919
O2_2 O 0.3656(3) 0.3139(4) 0.250000
N1_2 N 0.2026(3) 0.2415(4) 0.3146(3)
C3_2 C 0.2637(5) 0.2694(5) 0.250000
C7_2 C 0.0918(5) 0.2028(6) 0.2037(4)
H7_2 H 0.067595 0.251146 0.182391
H8_2 H 0.045428 0.129695 0.182393
C8_2 C 0.2452(6) 0.2675(7) 0.1028(3)
H9_2 H 0.318130 0.278882 0.101553
H10_2 H 0.199128 0.207992 0.067570
H11_2 H 0.246161 0.332781 0.085081
N2_2 N 0.2026(3) 0.2415(4) 0.1854(3)
H15_2 H 0.960752 0.681870 0.398447
O7_2 O 0.9483(5) 0.6344(3) 0.250000
H21_2 H 0.960752 0.681870 0.101553
H27_2 H 0.721118 0.039248 0.398447
O12_2 O 0.6861(4) 0.0517(5) 0.250000
H33_2 H 0.721118 0.039248 0.101553
C23_2 C 0.7972(6) 0.8890(8) 0.2963(4)
H25_2 H 0.748854 0.816449 0.317609
H26_2 H 0.870305 0.915733 0.317607
C24_2 C 0.7325(7) 0.9777(9) 0.3972(3)
H28_2 H 0.792008 0.991136 0.432430
H29_2 H 0.667219 0.913380 0.414919
N5_2 N 0.7585(4) 0.9611(5) 0.3146(3)
C25_2 C 0.7306(5) 0.9943(7) 0.250000
C29_2 C 0.7972(6) 0.8890(8) 0.2037(4)
H31_2 H 0.748854 0.816449 0.182391
H32_2 H 0.870305 0.915733 0.182393
C30_2 C 0.7325(7) 0.9777(9) 0.1028(3)
H34_2 H 0.792008 0.991136 0.067570
H35_2 H 0.667219 0.913380 0.085081
N6_2 N 0.7585(4) 0.9611(5) 0.1854(3)
O23 O 0.0825(6) 0.000000 0.500000
N7 N -0.000000 0.000000 0.500000
O24 O 0.000000 0.08250(60) 0.500000
O23_2 O 0.0825(6) 1.000000 0.500000
N7_2 N -0.000000 1.000000 0.500000
N7_3 N 1.000000 0.000000 0.500000
O24_2 O 1.000000 0.08250(60) 0.500000
N7_4 N 1.000000 1.000000 0.500000
O25 O 0.91750(60) 0.9175(6) 0.500000
O23_3 O 0.0825(6) 0.000000 -0.000000
N7_5 N 0.000000 0.000000 -0.000000
O24_3 O 0.000000 0.08250(60) -0.000000
O23_4 O 0.0825(6) 0.000000 1.000000
N7_6 N 0.000000 0.000000 1.000000
O24_4 O 0.000000 0.08250(60) 1.000000
O23_5 O 0.0825(6) 1.000000 -0.000000
N7_7 N 0.000000 1.000000 -0.000000
O23_6 O 0.0825(6) 1.000000 1.000000
N7_8 N -0.000000 1.000000 1.000000
N7_9 N 1.000000 0.000000 -0.000000
O24_5 O 1.000000 0.08250(60) -0.000000
N7_10 N 1.000000 0.000000 1.000000
O24_6 O 1.000000 0.08250(60) 1.000000
N7_11 N 1.000000 1.000000 -0.000000
O25_2 O 0.91750(60) 0.9175(6) -0.000000
N7_12 N 1.000000 1.000000 1.000000
O25_3 O 0.91750(60) 0.9175(6) 1.000000
loop_
_geom_bond_atom_site_label_1
_geom_bond_atom_site_label_2
_geom_bond_site_symmetry_1
_geom_bond_site_symmetry_2
H24 C20 1_555 1_555
O10 C22 1_555 1_555
C21 S2 1_555 1_555
O11 C22 1_555 1_555
C22 C21 1_555 1_555
In5 O10 1_555 1_555
In9 O11 1_555 1_555
C20 C21 1_555 1_555
C12 H13 1_555 1_555
H14 C12 1_555 1_555
H16 C13 1_555 1_555
H17 C13 1_555 1_555
N3 C12 1_555 1_555
C18 C12 1_555 1_555
H19 C18 1_555 1_555
H20 C18 1_555 1_555
H22 C19 1_555 1_555
H23 C19 1_555 1_555
N4 C14 1_555 1_555
C13 N3 1_555 1_555
N3 C14 1_555 1_555
C18 N4 1_555 1_555
C19 N4 1_555 1_555
H12 C9 1_555 1_555
O5 C11 1_555 1_555
C10 S1 1_555 1_555
O6 C11 1_555 1_555
C11 C10 1_555 1_555
In5 O6 1_555 1_555
In7 O5 1_555 1_555
C9 C10 1_555 1_555
In1 O1 1_555 1_555
O1 In2 1_555 1_555
C1 H1 1_555 1_555
H2 C1 1_555 1_555
C2 H3 1_555 1_555
H4 C2 1_555 1_555
H5 C2 1_555 1_555
O2 In1 1_555 1_555
N1 C1 1_555 1_555
C3 O2 1_555 1_555
C4 H6 1_555 1_555
O3 C6 1_555 1_555
C5 C4 1_555 1_555
O4 In1 1_555 1_555
S1_2 C5 1_555 1_555
C6 C5 1_555 1_555
C7 C1 1_555 1_555
H7 C7 1_555 1_555
H8 C7 1_555 1_555
C8 H9 1_555 1_555
H10 C8 1_555 1_555
H11 C8 1_555 1_555
N2 C3 1_555 1_555
In2 O3 1_555 1_555
O7 In2 1_555 1_555
C15 H18 1_555 1_555
O8 C17 1_555 1_555
C16 C15 1_555 1_555
O9 In2 1_555 1_555
S2_4 C16 1_555 1_555
C17 C16 1_555 1_555
In3 O1 1_555 1_555
O12 In3 1_555 1_555
C26 H30 1_555 1_555
O13 In1 1_555 1_555
C27 C26 1_555 1_555
O14 In3 1_555 1_555
S3_2 C27 1_555 1_555
C28 O13 1_555 1_555
O17 In2 1_555 1_555
O18 In3 1_555 1_555
O19 In1 1_555 1_555
O20 In1 1_555 1_555
O21 In2 1_555 1_555
O22 In3 1_555 1_555
C2 N1 1_555 1_555
N1 C3 1_555 1_555
O4 C6 1_555 1_555
C7 N2 1_555 1_555
C8 N2 1_555 1_555
O8 In3 1_555 1_555
O9 C17 1_555 1_555
C27 C28 1_555 1_555
O14 C28 1_555 1_555
H36 C31 1_555 1_555
O15 C33 1_555 1_555
C32 S3_3 1_555 1_555
O16 C33 1_555 1_555
C33 C32 1_555 1_555
In7 O16 1_555 1_555
In9 O15 1_555 1_555
C31 C32 1_555 1_555
C23 H25 1_555 1_555
H26 C23 1_555 1_555
H28 C24 1_555 1_555
H29 C24 1_555 1_555
N5 C23 1_555 1_555
C29 C23 1_555 1_555
H31 C29 1_555 1_555
H32 C29 1_555 1_555
H34 C30 1_555 1_555
H35 C30 1_555 1_555
N6 C25 1_555 1_555
C24 N5 1_555 1_555
N5 C25 1_555 1_555
C29 N6 1_555 1_555
C30 N6 1_555 1_555
H24_2 C20_2 1_555 1_555
O10_2 C22_2 1_555 1_555
C21_2 S2_5 1_555 1_555
O11_2 C22_2 1_555 1_555
C22_2 C21_2 1_555 1_555
In5 O10_2 1_555 1_555
In9 O11_2 1_555 1_555
C20_2 C21_2 1_555 1_555
C4_2 H6_2 1_555 1_555
O17 C6_2 1_555 1_555
C5_2 C4_2 1_555 1_555
S1_3 C5_2 1_555 1_555
C6_2 C5_2 1_555 1_555
C9_2 C4_2 1_555 1_555
H12_2 C9_2 1_555 1_555
O5_2 C11_2 1_555 1_555
C10_2 S1_3 1_555 1_555
O6_2 C11_2 1_555 1_555
C11_2 C10_2 1_555 1_555
C15_2 H18_2 1_555 1_555
O18 C17_2 1_555 1_555
C16_2 C15_2 1_555 1_555
S2_6 C16_2 1_555 1_555
C17_2 C16_2 1_555 1_555
C26_2 H30_2 1_555 1_555
C27_2 C26_2 1_555 1_555
S3_5 C27_2 1_555 1_555
C28_2 O19 1_555 1_555
In5 O6_2 1_555 1_555
In7 O5_2 1_555 1_555
O20 C6_2 1_555 1_555
C9_2 C10_2 1_555 1_555
O21 C17_2 1_555 1_555
C27_2 C28_2 1_555 1_555
O22 C28_2 1_555 1_555
H36_2 C31_2 1_555 1_555
O15_2 C33_2 1_555 1_555
C32_2 S3_6 1_555 1_555
O16_2 C33_2 1_555 1_555
C33_2 C32_2 1_555 1_555
In7 O16_2 1_555 1_555
In9 O15_2 1_555 1_555
C31_2 C32_2 1_555 1_555
C12_2 H13_2 1_555 1_555
H14_2 C12_2 1_555 1_555
H16_2 C13_2 1_555 1_555
H17_2 C13_2 1_555 1_555
N3_2 C12_2 1_555 1_555
C18_2 C12_2 1_555 1_555
H19_2 C18_2 1_555 1_555
H20_2 C18_2 1_555 1_555
H22_2 C19_2 1_555 1_555
H23_2 C19_2 1_555 1_555
N4_2 C14_2 1_555 1_555
C13_2 N3_2 1_555 1_555
N3_2 C14_2 1_555 1_555
C18_2 N4_2 1_555 1_555
C19_2 N4_2 1_555 1_555
In5 O1_2 1_555 1_555
O1_2 In7 1_555 1_555
C1_2 H1_2 1_555 1_555
H2_2 C1_2 1_555 1_555
C2_2 H3_2 1_555 1_555
H4_2 C2_2 1_555 1_555
H5_2 C2_2 1_555 1_555
O2_2 In5 1_555 1_555
N1_2 C1_2 1_555 1_555
C3_2 O2_2 1_555 1_555
C7_2 C1_2 1_555 1_555
H7_2 C7_2 1_555 1_555
H8_2 C7_2 1_555 1_555
C8_2 H9_2 1_555 1_555
H10_2 C8_2 1_555 1_555
H11_2 C8_2 1_555 1_555
N2_2 C3_2 1_555 1_555
O7_2 In7 1_555 1_555
In9 O1_2 1_555 1_555
O12_2 In9 1_555 1_555
C2_2 N1_2 1_555 1_555
N1_2 C3_2 1_555 1_555
C7_2 N2_2 1_555 1_555
C8_2 N2_2 1_555 1_555
C23_2 H25_2 1_555 1_555
H26_2 C23_2 1_555 1_555
H28_2 C24_2 1_555 1_555
H29_2 C24_2 1_555 1_555
N5_2 C23_2 1_555 1_555
C29_2 C23_2 1_555 1_555
H31_2 C29_2 1_555 1_555
H32_2 C29_2 1_555 1_555
H34_2 C30_2 1_555 1_555
H35_2 C30_2 1_555 1_555
N6_2 C25_2 1_555 1_555
C24_2 N5_2 1_555 1_555
N5_2 C25_2 1_555 1_555
C29_2 N6_2 1_555 1_555
C30_2 N6_2 1_555 1_555
O23 N7 1_555 1_555
N7 O24 1_555 1_555
O23_2 N7_2 1_555 1_555
N7_3 O24_2 1_555 1_555
O25 N7_4 1_555 1_555
O23_3 N7_5 1_555 1_555
N7_5 O24_3 1_555 1_555
O23_4 N7_6 1_555 1_555
N7_6 O24_4 1_555 1_555
O23_5 N7_7 1_555 1_555
O23_6 N7_8 1_555 1_555
N7_9 O24_5 1_555 1_555
N7_10 O24_6 1_555 1_555
O25_2 N7_11 1_555 1_555
O25_3 N7_12 1_555 1_555

#END
