
###############################################################################
#
# This file contains modified crystal structure data generated from the
# MOF subset of the Cambridge Structural Database (CSD) v543 
# hosted by the Cambridge Crystallographic Data Centre (CCDC).
#
# This work is licensed under the Creative Commons
# Attribution-NonCommercial-ShareAlike 4.0 International License.
# To view a copy of this license, visit
# http://creativecommons.org/licenses/by-nc-sa/4.0/
# or send a letter to
# Creative Commons, PO Box 1866, Mountain View, CA 94042, USA.
#
# CIF created using the CSD Python API on 29 September 2022
# The structure has been converted into the P1 space group
# The structure has a 3D framework
# The original CSD entry IQIKAX is in the hexagonal crystal system
# The framework has been calculated to contain at least 10.0% void space
# The void calculation uses a probe of radius 1.32A, grid spacing 0.4
# The framework is charged, counterions have been retained in the structure
#
###############################################################################

data_IQIKAX
_chemical_formula_moiety         '(C72 H84 Lu6 N24 O47 S15 2-)n'
_symmetry_cell_setting           triclinic
_symmetry_space_group_name_H-M   'P 1'
_symmetry_Int_Tables_number      1
_space_group_name_Hall           'P 1'
loop_
_symmetry_equiv_pos_site_id
_symmetry_equiv_pos_as_xyz
1 x,y,z
_cell_length_a                   14.490(3)
_cell_length_b                   14.490(3)
_cell_length_c                   16.944(3)
_cell_angle_alpha                90
_cell_angle_beta                 90
_cell_angle_gamma                120
_cell_volume                     3080.94
loop_
_atom_site_label
_atom_site_type_symbol
_atom_site_fract_x
_atom_site_fract_y
_atom_site_fract_z
H34 H 0.001974 0.115102 0.250000
H35 H 0.024521 0.232375 0.250001
S1 S 0.49638(9) -0.000000 0.500000
C10 C 0.3443(4) 0.0352(3) 0.5331(2)
H14 H 0.304449 0.061894 0.556565
C11 C 0.4430(4) 0.0585(3) 0.55798(19)
O5 O 0.5826(3) 0.1247(2) 0.65065(18)
O6 O 0.4594(4) 0.1740(3) 0.65994(17)
C12 C 0.4998(4) 0.1240(3) 0.6282(2)
C25 C 0.7509(8) 0.0053(5) 0.250000
N5 N 0.8011(6) 0.0438(4) 0.1816(3)
C26 C 0.7479(10) 0.0023(6) 0.1079(4)
H29 H 0.727958 0.050706 0.085529
C27 C 0.9089(13) 0.1382(8) 0.1766(5)
H32 H 0.948043 0.127721 0.134493
H33 H 0.902829 0.200129 0.163479
C28 C 0.9682(20) 0.1584(12) 0.250000
N6 N 0.8011(6) 0.0438(4) 0.3184(3)
C32 C 0.7479(10) 0.0023(6) 0.3921(4)
H37 H 0.727958 0.050706 0.414471
C33 C 0.9089(13) 0.1382(8) 0.3234(5)
H40 H 0.948043 0.127721 0.365507
H41 H 0.902829 0.200129 0.336521
Lu5 Lu 0.69865(2) 0.20493(2) 0.750000
Lu7 Lu 0.50628(3) 0.30135(2) 0.750000
Lu1 Lu 0.20493(2) 0.69865(2) 0.250000
H2 H 0.065678 0.750923 0.116446
H3 H 0.005858 0.800757 0.072321
O1 O 0.0729(3) 0.7308(4) 0.250000
C5 C 0.3091(3) 0.9648(3) 0.4669(2)
H8 H 0.242555 0.938106 0.443435
C6 C 0.3845(3) 0.9415(3) 0.44202(19)
O2 O 0.4579(2) 0.8753(2) 0.34935(18)
O3 O 0.2854(2) 0.8260(3) 0.34006(17)
S1_2 S 0.49638(9) 1.000000 0.500000
C7 C 0.3758(3) 0.8760(3) 0.3718(2)
O4 O 0.333333 0.666667 0.250000
H10 H 0.065678 0.750923 0.383554
H11 H 0.005858 0.800757 0.427679
Lu2 Lu 0.30135(2) 0.50628(3) 0.250000
C13 C 0.2544(6) 0.2491(8) 0.250000
N3 N 0.2427(4) 0.1989(6) 0.1816(3)
C14 C 0.2544(8) 0.2521(10) 0.1079(4)
H15 H 0.322748 0.272042 0.085529
H16 H 0.249077 0.314755 0.116446
H17 H 0.199243 0.205101 0.072321
C15 C 0.2293(10) 0.0911(13) 0.1766(5)
H18 H 0.179678 0.051957 0.134493
H19 H 0.297300 0.097171 0.163479
C16 C 0.1902(16) 0.0318(20) 0.250000
O7 O 0.2692(4) 0.3421(5) 0.250000
C17 C 0.0352(3) 0.3443(4) 0.4669(2)
H22 H 0.061894 0.304449 0.443435
C18 C 0.0585(3) 0.4430(4) 0.44202(19)
O8 O 0.1247(2) 0.5826(3) 0.34935(18)
O9 O 0.1740(3) 0.4594(4) 0.34006(17)
S2 S -0.000000 0.496380(90) 0.500000
C19 C 0.1240(3) 0.4998(4) 0.3718(2)
N4 N 0.2427(4) 0.1989(6) 0.3184(3)
C20 C 0.2544(8) 0.2521(10) 0.3921(4)
H23 H 0.322748 0.272042 0.414471
H24 H 0.249077 0.314755 0.383554
H25 H 0.199243 0.205101 0.427679
C21 C 0.2293(10) 0.0911(13) 0.3234(5)
H26 H 0.179678 0.051957 0.365507
H27 H 0.297300 0.097171 0.336521
Lu3 Lu 0.49372(3) 0.79507(2) 0.250000
H30 H 0.685245 0.934322 0.116446
H31 H 0.794899 0.994142 0.072321
O12 O 0.6579(5) 0.9271(3) 0.250000
C29 C 0.6557(4) 0.6909(3) 0.4669(2)
H36 H 0.695551 0.757445 0.443435
C30 C 0.5570(4) 0.6155(3) 0.44202(19)
O13 O 0.4174(3) 0.5421(2) 0.34935(18)
O14 O 0.5406(4) 0.7146(2) 0.34006(17)
S3 S 0.503620(90) 0.50362(9) 0.500000
C31 C 0.5002(4) 0.6242(3) 0.3718(2)
H38 H 0.685245 0.934322 0.383554
H39 H 0.794899 0.994142 0.427679
C34 C 0.6909(3) 0.6557(4) 0.5331(2)
H42 H 0.757445 0.695551 0.556565
C35 C 0.6155(3) 0.5570(4) 0.55798(19)
O15 O 0.5421(2) 0.4174(3) 0.65065(18)
O16 O 0.7146(2) 0.5406(4) 0.65994(17)
C36 C 0.6242(3) 0.5002(4) 0.6282(2)
Lu9 Lu 0.79507(2) 0.49372(3) 0.750000
O17 O 0.4579(2) 0.8753(2) 0.15065(18)
O18 O 0.1247(2) 0.5826(3) 0.15065(18)
O19 O 0.4174(3) 0.5421(2) 0.15065(18)
O20 O 0.2854(2) 0.8260(3) 0.15994(17)
O21 O 0.1740(3) 0.4594(4) 0.15994(17)
O22 O 0.5406(4) 0.7146(2) 0.15994(17)
C1 C 0.9947(5) 0.7456(6) 0.250000
N1 N 0.9562(4) 0.7573(4) 0.1816(3)
C2 C 0.9977(6) 0.7456(8) 0.1079(4)
H1 H 0.949294 0.677252 0.085529
C3 C 0.8618(8) 0.7707(10) 0.1766(5)
H4 H 0.872279 0.820322 0.134493
H5 H 0.799871 0.702700 0.163479
C4 C 0.8416(12) 0.8098(16) 0.250000
H6 H 0.884898 0.886872 0.250000
H7 H 0.767625 0.792146 0.250001
N2 N 0.9562(4) 0.7573(4) 0.3184(3)
C8 C 0.9977(6) 0.7456(8) 0.3921(4)
H9 H 0.949294 0.677252 0.414471
C9 C 0.8618(8) 0.7707(10) 0.3234(5)
H12 H 0.872279 0.820322 0.365507
H13 H 0.799871 0.702700 0.336521
S2_2 S 1.000000 0.496380(90) 0.500000
C22 C 0.9648(3) 0.3091(3) 0.5331(2)
H28 H 0.938106 0.242555 0.556565
C23 C 0.9415(3) 0.3845(3) 0.55798(19)
O10 O 0.8753(2) 0.4579(2) 0.65065(18)
O11 O 0.8260(3) 0.2854(2) 0.65994(17)
C24 C 0.8760(3) 0.3758(3) 0.6282(2)
S1_3 S 0.49638(9) -0.000000 0.000000
S1_4 S 0.49638(9) -0.000000 1.000000
C10_2 C 0.3443(4) 0.0352(3) 0.9669(2)
H14_2 H 0.304449 0.061894 0.943435
C11_2 C 0.4430(4) 0.0585(3) 0.94202(19)
O5_2 O 0.5826(3) 0.1247(2) 0.84935(18)
O6_2 O 0.4594(4) 0.1740(3) 0.84006(17)
C12_2 C 0.4998(4) 0.1240(3) 0.8718(2)
C5_2 C 0.3091(3) 0.9648(3) 0.0331(2)
H8_2 H 0.242555 0.938106 0.056565
C6_2 C 0.3845(3) 0.9415(3) 0.05798(19)
S1_5 S 0.49638(9) 1.000000 0.000000
C7_2 C 0.3758(3) 0.8760(3) 0.1282(2)
C17_2 C 0.0352(3) 0.3443(4) 0.0331(2)
H22_2 H 0.061894 0.304449 0.056565
C18_2 C 0.0585(3) 0.4430(4) 0.05798(19)
S2_3 S -0.000000 0.496380(90) 0.000000
C19_2 C 0.1240(3) 0.4998(4) 0.1282(2)
C29_2 C 0.6557(4) 0.6909(3) 0.0331(2)
H36_2 H 0.695551 0.757445 0.056565
C30_2 C 0.5570(4) 0.6155(3) 0.05798(19)
S3_2 S 0.503620(90) 0.50362(9) 0.000000
C31_2 C 0.5002(4) 0.6242(3) 0.1282(2)
S1_6 S 0.49638(9) 1.000000 1.000000
S2_4 S -0.000000 0.496380(90) 1.000000
S3_3 S 0.503620(90) 0.50362(9) 1.000000
C34_2 C 0.6909(3) 0.6557(4) 0.9669(2)
H42_2 H 0.757445 0.695551 0.943435
C35_2 C 0.6155(3) 0.5570(4) 0.94202(19)
O15_2 O 0.5421(2) 0.4174(3) 0.84935(18)
O16_2 O 0.7146(2) 0.5406(4) 0.84006(17)
C36_2 C 0.6242(3) 0.5002(4) 0.8718(2)
S2_5 S 1.000000 0.496380(90) 0.000000
S2_6 S 1.000000 0.496380(90) 1.000000
C22_2 C 0.9648(3) 0.3091(3) 0.9669(2)
H28_2 H 0.938106 0.242555 0.943435
C23_2 C 0.9415(3) 0.3845(3) 0.94202(19)
O10_2 O 0.8753(2) 0.4579(2) 0.84935(18)
O11_2 O 0.8260(3) 0.2854(2) 0.84006(17)
C24_2 C 0.8760(3) 0.3758(3) 0.8718(2)
C25_2 C 0.0053(5) 0.7509(8) 0.750000
N5_2 N 0.0438(4) 0.8011(6) 0.8184(3)
C26_2 C 0.0023(6) 0.7479(10) 0.8921(4)
H29_2 H 0.050706 0.727958 0.914471
C27_2 C 0.1382(8) 0.9089(13) 0.8234(5)
H32_2 H 0.127721 0.948043 0.865507
H33_2 H 0.200129 0.902829 0.836521
C28_2 C 0.1584(12) 0.9682(20) 0.750000
N6_2 N 0.0438(4) 0.8011(6) 0.6816(3)
C32_2 C 0.0023(6) 0.7479(10) 0.6079(4)
H37_2 H 0.050706 0.727958 0.585529
C33_2 C 0.1382(8) 0.9089(13) 0.6766(5)
H40_2 H 0.127721 0.948043 0.634493
H41_2 H 0.200129 0.902829 0.663479
H2_2 H 0.750923 0.065678 0.883554
H3_2 H 0.800757 0.005858 0.927679
O1_2 O 0.7308(4) 0.0729(3) 0.750000
O4_2 O 0.666667 0.333333 0.750000
H10_2 H 0.750923 0.065678 0.616446
H11_2 H 0.800757 0.005858 0.572321
C13_2 C 0.2491(8) 0.2544(6) 0.750000
N3_2 N 0.1989(6) 0.2427(4) 0.8184(3)
C14_2 C 0.2521(10) 0.2544(8) 0.8921(4)
H15_2 H 0.272042 0.322748 0.914471
H16_2 H 0.314755 0.249077 0.883554
H17_2 H 0.205101 0.199243 0.927679
C15_2 C 0.0911(13) 0.2293(10) 0.8234(5)
H18_2 H 0.051957 0.179678 0.865507
H19_2 H 0.097171 0.297300 0.836521
C16_2 C 0.0318(20) 0.1902(16) 0.750000
O7_2 O 0.3421(5) 0.2692(4) 0.750000
N4_2 N 0.1989(6) 0.2427(4) 0.6816(3)
C20_2 C 0.2521(10) 0.2544(8) 0.6079(4)
H23_2 H 0.272042 0.322748 0.585529
H24_2 H 0.314755 0.249077 0.616446
H25_2 H 0.205101 0.199243 0.572321
C21_2 C 0.0911(13) 0.2293(10) 0.6766(5)
H26_2 H 0.051957 0.179678 0.634493
H27_2 H 0.097171 0.297300 0.663479
H30_2 H 0.934322 0.685245 0.883554
H31_2 H 0.994142 0.794899 0.927679
O12_2 O 0.9271(3) 0.6579(5) 0.750000
H38_2 H 0.934322 0.685245 0.616446
H39_2 H 0.994142 0.794899 0.572321
C1_2 C 0.7456(6) 0.9947(5) 0.750000
N1_2 N 0.7573(4) 0.9562(4) 0.8184(3)
C2_2 C 0.7456(8) 0.9977(6) 0.8921(4)
H1_2 H 0.677252 0.949294 0.914471
C3_2 C 0.7707(10) 0.8618(8) 0.8234(5)
H4_2 H 0.820322 0.872279 0.865507
H5_2 H 0.702700 0.799871 0.836521
C4_2 C 0.8098(16) 0.8416(12) 0.750000
H6_2 H 0.886872 0.884898 0.750000
H7_2 H 0.792146 0.767625 0.749999
N2_2 N 0.7573(4) 0.9562(4) 0.6816(3)
C8_2 C 0.7456(8) 0.9977(6) 0.6079(4)
H9_2 H 0.677252 0.949294 0.585529
C9_2 C 0.7707(10) 0.8618(8) 0.6766(5)
H12_2 H 0.820322 0.872279 0.634493
H13_2 H 0.702700 0.799871 0.663479
H20 H 0.113128 0.998026 0.250000
H21 H 0.207854 0.975479 0.250001
H34_2 H 0.115102 0.001974 0.750000
H35_2 H 0.232375 0.024521 0.749999
H20_2 H 0.998026 0.113128 0.750000
H21_2 H 0.975479 0.207854 0.749999
N7 N -0.000000 -0.000000 0.500000
O23 O 0.0823(8) -0.000000 0.500000
O24 O 0.000000 0.08230(80) 0.500000
N7_2 N 0.000000 1.000000 0.500000
O23_2 O 0.0823(8) 1.000000 0.500000
N7_3 N 1.000000 -0.000000 0.500000
O24_2 O 1.000000 0.08230(80) 0.500000
N7_4 N 1.000000 1.000000 0.500000
O25 O 0.91770(80) 0.9177(8) 0.500000
N7_5 N -0.000000 -0.000000 0.000000
O23_3 O 0.0823(8) -0.000000 0.000000
O24_3 O 0.000000 0.08230(80) 0.000000
N7_6 N -0.000000 -0.000000 1.000000
O23_4 O 0.0823(8) -0.000000 1.000000
O24_4 O 0.000000 0.08230(80) 1.000000
N7_7 N -0.000000 1.000000 0.000000
O23_5 O 0.0823(8) 1.000000 0.000000
N7_8 N -0.000000 1.000000 1.000000
O23_6 O 0.0823(8) 1.000000 1.000000
N7_9 N 1.000000 -0.000000 0.000000
O24_5 O 1.000000 0.08230(80) 0.000000
N7_10 N 1.000000 -0.000000 1.000000
O24_6 O 1.000000 0.08230(80) 1.000000
N7_11 N 1.000000 1.000000 0.000000
O25_2 O 0.91770(80) 0.9177(8) 0.000000
N7_12 N 1.000000 1.000000 1.000000
O25_3 O 0.91770(80) 0.9177(8) 1.000000
loop_
_geom_bond_atom_site_label_1
_geom_bond_atom_site_label_2
_geom_bond_site_symmetry_1
_geom_bond_site_symmetry_2
H14 C10 1_555 1_555
C11 S1 1_555 1_555
O5 C12 1_555 1_555
O6 C12 1_555 1_555
C12 C11 1_555 1_555
C25 N5 1_555 1_555
N5 C26 1_555 1_555
C26 H29 1_555 1_555
C27 N5 1_555 1_555
H32 C27 1_555 1_555
H33 C27 1_555 1_555
C28 C27 1_555 1_555
N6 C25 1_555 1_555
C32 N6 1_555 1_555
H37 C32 1_555 1_555
C33 C28 1_555 1_555
H40 C33 1_555 1_555
H41 C33 1_555 1_555
Lu5 O5 1_555 1_555
Lu7 O6 1_555 1_555
C10 C11 1_555 1_555
N6 C33 1_555 1_555
Lu1 O1 1_555 1_555
C5 H8 1_555 1_555
C6 C5 1_555 1_555
O2 C7 1_555 1_555
O3 Lu1 1_555 1_555
S1_2 C6 1_555 1_555
C7 C6 1_555 1_555
O4 Lu1 1_555 1_555
Lu2 O4 1_555 1_555
C13 N3 1_555 1_555
N3 C14 1_555 1_555
C14 H15 1_555 1_555
H16 C14 1_555 1_555
H17 C14 1_555 1_555
C15 N3 1_555 1_555
H18 C15 1_555 1_555
H19 C15 1_555 1_555
C16 C15 1_555 1_555
O7 Lu2 1_555 1_555
C17 H22 1_555 1_555
C18 C17 1_555 1_555
O8 Lu1 1_555 1_555
O9 Lu2 1_555 1_555
S2 C18 1_555 1_555
C19 C18 1_555 1_555
N4 C13 1_555 1_555
C20 N4 1_555 1_555
H23 C20 1_555 1_555
H24 C20 1_555 1_555
H25 C20 1_555 1_555
C21 C16 1_555 1_555
H26 C21 1_555 1_555
H27 C21 1_555 1_555
Lu3 O2 1_555 1_555
O12 Lu3 1_555 1_555
C29 H36 1_555 1_555
C30 C29 1_555 1_555
O13 Lu2 1_555 1_555
O14 Lu3 1_555 1_555
S3 C30 1_555 1_555
C31 C30 1_555 1_555
C34 C29 1_555 1_555
H42 C34 1_555 1_555
C35 S3 1_555 1_555
O15 C36 1_555 1_555
O16 C36 1_555 1_555
C36 C35 1_555 1_555
Lu7 O15 1_555 1_555
Lu9 O16 1_555 1_555
O17 Lu3 1_555 1_555
O18 Lu1 1_555 1_555
O19 Lu2 1_555 1_555
O20 Lu1 1_555 1_555
O21 Lu2 1_555 1_555
O22 Lu3 1_555 1_555
O3 C7 1_555 1_555
O4 Lu3 1_555 1_555
C13 O7 1_555 1_555
O8 C19 1_555 1_555
O9 C19 1_555 1_555
N4 C21 1_555 1_555
O13 C31 1_555 1_555
O14 C31 1_555 1_555
C34 C35 1_555 1_555
C1 N1 1_555 1_555
N1 C2 1_555 1_555
C2 H1 1_555 1_555
C3 N1 1_555 1_555
H4 C3 1_555 1_555
H5 C3 1_555 1_555
C4 C3 1_555 1_555
H6 C4 1_555 1_555
H7 C4 1_555 1_555
N2 C1 1_555 1_555
C8 N2 1_555 1_555
H9 C8 1_555 1_555
C9 C4 1_555 1_555
H12 C9 1_555 1_555
H13 C9 1_555 1_555
H28 C22 1_555 1_555
C23 S2_2 1_555 1_555
O10 C24 1_555 1_555
O11 C24 1_555 1_555
C24 C23 1_555 1_555
Lu5 O11 1_555 1_555
Lu9 O10 1_555 1_555
N2 C9 1_555 1_555
C22 C23 1_555 1_555
H14_2 C10_2 1_555 1_555
C11_2 S1_4 1_555 1_555
O5_2 C12_2 1_555 1_555
O6_2 C12_2 1_555 1_555
C12_2 C11_2 1_555 1_555
Lu5 O5_2 1_555 1_555
Lu7 O6_2 1_555 1_555
C10_2 C11_2 1_555 1_555
C5_2 H8_2 1_555 1_555
C6_2 C5_2 1_555 1_555
O17 C7_2 1_555 1_555
S1_5 C6_2 1_555 1_555
C7_2 C6_2 1_555 1_555
C17_2 H22_2 1_555 1_555
C18_2 C17_2 1_555 1_555
S2_3 C18_2 1_555 1_555
C19_2 C18_2 1_555 1_555
C29_2 H36_2 1_555 1_555
C30_2 C29_2 1_555 1_555
S3_2 C30_2 1_555 1_555
C31_2 C30_2 1_555 1_555
O20 C7_2 1_555 1_555
O18 C19_2 1_555 1_555
O21 C19_2 1_555 1_555
O19 C31_2 1_555 1_555
O22 C31_2 1_555 1_555
H42_2 C34_2 1_555 1_555
C35_2 S3_3 1_555 1_555
O15_2 C36_2 1_555 1_555
O16_2 C36_2 1_555 1_555
C36_2 C35_2 1_555 1_555
Lu7 O15_2 1_555 1_555
Lu9 O16_2 1_555 1_555
C34_2 C35_2 1_555 1_555
H28_2 C22_2 1_555 1_555
C23_2 S2_6 1_555 1_555
O10_2 C24_2 1_555 1_555
O11_2 C24_2 1_555 1_555
C24_2 C23_2 1_555 1_555
Lu5 O11_2 1_555 1_555
Lu9 O10_2 1_555 1_555
C22_2 C23_2 1_555 1_555
C25_2 N5_2 1_555 1_555
N5_2 C26_2 1_555 1_555
C26_2 H29_2 1_555 1_555
C27_2 N5_2 1_555 1_555
H32_2 C27_2 1_555 1_555
H33_2 C27_2 1_555 1_555
C28_2 C27_2 1_555 1_555
N6_2 C25_2 1_555 1_555
C32_2 N6_2 1_555 1_555
H37_2 C32_2 1_555 1_555
C33_2 C28_2 1_555 1_555
H40_2 C33_2 1_555 1_555
H41_2 C33_2 1_555 1_555
N6_2 C33_2 1_555 1_555
Lu5 O1_2 1_555 1_555
O4_2 Lu5 1_555 1_555
Lu7 O4_2 1_555 1_555
C13_2 N3_2 1_555 1_555
N3_2 C14_2 1_555 1_555
C14_2 H15_2 1_555 1_555
H16_2 C14_2 1_555 1_555
H17_2 C14_2 1_555 1_555
C15_2 N3_2 1_555 1_555
H18_2 C15_2 1_555 1_555
H19_2 C15_2 1_555 1_555
C16_2 C15_2 1_555 1_555
O7_2 Lu7 1_555 1_555
N4_2 C13_2 1_555 1_555
C20_2 N4_2 1_555 1_555
H23_2 C20_2 1_555 1_555
H24_2 C20_2 1_555 1_555
H25_2 C20_2 1_555 1_555
C21_2 C16_2 1_555 1_555
H26_2 C21_2 1_555 1_555
H27_2 C21_2 1_555 1_555
O12_2 Lu9 1_555 1_555
O4_2 Lu9 1_555 1_555
C13_2 O7_2 1_555 1_555
N4_2 C21_2 1_555 1_555
C1_2 N1_2 1_555 1_555
N1_2 C2_2 1_555 1_555
C2_2 H1_2 1_555 1_555
C3_2 N1_2 1_555 1_555
H4_2 C3_2 1_555 1_555
H5_2 C3_2 1_555 1_555
C4_2 C3_2 1_555 1_555
H6_2 C4_2 1_555 1_555
H7_2 C4_2 1_555 1_555
N2_2 C1_2 1_555 1_555
C8_2 N2_2 1_555 1_555
H9_2 C8_2 1_555 1_555
C9_2 C4_2 1_555 1_555
H12_2 C9_2 1_555 1_555
H13_2 C9_2 1_555 1_555
N2_2 C9_2 1_555 1_555
N7 O23 1_555 1_555
O24 N7 1_555 1_555
N7_2 O23_2 1_555 1_555
O24_2 N7_3 1_555 1_555
O25 N7_4 1_555 1_555
N7_5 O23_3 1_555 1_555
O24_3 N7_5 1_555 1_555
N7_6 O23_4 1_555 1_555
O24_4 N7_6 1_555 1_555
N7_7 O23_5 1_555 1_555
N7_8 O23_6 1_555 1_555
O24_5 N7_9 1_555 1_555
O24_6 N7_10 1_555 1_555
O25_2 N7_11 1_555 1_555
O25_3 N7_12 1_555 1_555

#END
