
###############################################################################
#
# This file contains modified crystal structure data generated from the
# MOF subset of the Cambridge Structural Database (CSD) v543 
# hosted by the Cambridge Crystallographic Data Centre (CCDC).
#
# This work is licensed under the Creative Commons
# Attribution-NonCommercial-ShareAlike 4.0 International License.
# To view a copy of this license, visit
# http://creativecommons.org/licenses/by-nc-sa/4.0/
# or send a letter to
# Creative Commons, PO Box 1866, Mountain View, CA 94042, USA.
#
# CIF created using the CSD Python API on 29 September 2022
# The structure has been converted into the P1 space group
# The structure has a 3D framework
# The original CSD entry IQIKEB is in the hexagonal crystal system
# The framework has been calculated to contain at least 10.0% void space
# The void calculation uses a probe of radius 1.32A, grid spacing 0.4
# The framework is charged, counterions have been retained in the structure
#
###############################################################################

data_IQIKEB
_chemical_formula_moiety         '(C72 H84 N24 O47 S15 Tm6 2-)n'
_symmetry_cell_setting           triclinic
_symmetry_space_group_name_H-M   'P 1'
_symmetry_Int_Tables_number      1
_space_group_name_Hall           'P 1'
loop_
_symmetry_equiv_pos_site_id
_symmetry_equiv_pos_as_xyz
1 x,y,z
_cell_length_a                   14.495(5)
_cell_length_b                   14.495(5)
_cell_length_c                   16.998(6)
_cell_angle_alpha                90
_cell_angle_beta                 90
_cell_angle_gamma                120
_cell_volume                     3092.89
loop_
_atom_site_label
_atom_site_type_symbol
_atom_site_fract_x
_atom_site_fract_y
_atom_site_fract_z
H34 H 0.023684 0.231953 0.250001
H35 H 0.003361 0.115674 0.250000
S1 S 0.49579(10) 0.000000 0.500000
C10 C 0.3431(4) 0.0341(3) 0.5329(3)
H14 H 0.302675 0.059794 0.556784
C11 C 0.4419(4) 0.0579(3) 0.5577(2)
O5 O 0.5820(4) 0.1244(3) 0.6494(2)
O6 O 0.4587(4) 0.1727(3) 0.66018(19)
C12 C 0.4993(4) 0.1233(3) 0.6279(2)
C25 C 0.7523(8) 0.0064(5) 0.250000
N5 N 0.8029(6) 0.0455(4) 0.1822(3)
C26 C 0.7495(13) 0.0060(9) 0.1075(5)
H29 H 0.722528 0.050651 0.089299
H31 H 0.799008 0.006526 0.069756
C27 C 0.9116(16) 0.1375(10) 0.1776(7)
H32 H 0.950615 0.124631 0.136775
H33 H 0.907924 0.200213 0.162857
C28 C 0.9682(25) 0.1577(16) 0.250000
N6 N 0.8029(6) 0.0455(4) 0.3178(3)
C32 C 0.7495(13) 0.0060(9) 0.3925(5)
H37 H 0.722528 0.050651 0.410701
H39 H 0.799008 0.006526 0.430244
C33 C 0.9116(16) 0.1375(10) 0.3224(7)
H40 H 0.950615 0.124631 0.363225
H41 H 0.907924 0.200213 0.337143
Tm5 Tm 0.69841(2) 0.20384(2) 0.750000
Tm7 Tm 0.50543(3) 0.30159(2) 0.750000
Tm1 Tm 0.20384(2) 0.69841(2) 0.250000
H2 H 0.065540 0.757033 0.113997
O1 O 0.0707(3) 0.7308(4) 0.250000
C5 C 0.3090(3) 0.9659(3) 0.4671(3)
H8 H 0.242881 0.940206 0.443216
C6 C 0.3840(3) 0.9421(3) 0.4423(2)
O2 O 0.4576(3) 0.8756(3) 0.3506(2)
O3 O 0.2860(3) 0.8273(3) 0.33982(19)
S1_2 S 0.49579(10) 1.000000 0.500000
C7 C 0.3760(3) 0.8767(3) 0.3721(2)
O4 O 0.333333 0.666667 0.250000
H10 H 0.065540 0.757033 0.386003
Tm2 Tm 0.30159(2) 0.50543(3) 0.250000
C13 C 0.2541(6) 0.2477(8) 0.250000
N3 N 0.2426(5) 0.1971(6) 0.1822(3)
C14 C 0.2565(10) 0.2505(13) 0.1075(5)
H15 H 0.328123 0.277472 0.089299
H16 H 0.242967 0.308507 0.113997
H17 H 0.207518 0.200992 0.069756
C15 C 0.2259(13) 0.0884(16) 0.1776(7)
H18 H 0.174016 0.049385 0.136775
H19 H 0.292289 0.092076 0.162857
C16 C 0.1895(19) 0.0318(25) 0.250000
O7 O 0.2692(4) 0.3399(5) 0.250000
C17 C 0.0341(3) 0.3431(4) 0.4671(3)
H22 H 0.059794 0.302675 0.443216
C18 C 0.0579(3) 0.4419(4) 0.4423(2)
O8 O 0.1244(3) 0.5820(4) 0.3506(2)
O9 O 0.1727(3) 0.4587(4) 0.33982(19)
S2 S -0.000000 0.49579(10) 0.500000
C19 C 0.1233(3) 0.4993(4) 0.3721(2)
N4 N 0.2426(5) 0.1971(6) 0.3178(3)
C20 C 0.2565(10) 0.2505(13) 0.3925(5)
H23 H 0.328123 0.277472 0.410701
H24 H 0.242967 0.308507 0.386003
H25 H 0.207518 0.200992 0.430244
C21 C 0.2259(13) 0.0884(16) 0.3224(7)
H26 H 0.174016 0.049385 0.363225
H27 H 0.292289 0.092076 0.337143
Tm3 Tm 0.49457(3) 0.79616(2) 0.250000
H30 H 0.691493 0.934460 0.113997
O12 O 0.6601(5) 0.9293(3) 0.250000
C29 C 0.6569(4) 0.6910(3) 0.4671(3)
H36 H 0.697325 0.757119 0.443216
C30 C 0.5581(4) 0.6160(3) 0.4423(2)
O13 O 0.4180(4) 0.5424(3) 0.3506(2)
O14 O 0.5413(4) 0.7140(3) 0.33982(19)
S3 S 0.50421(10) 0.50421(10) 0.500000
C31 C 0.5007(4) 0.6240(3) 0.3721(2)
H38 H 0.691493 0.934460 0.386003
C34 C 0.6910(3) 0.6569(4) 0.5329(3)
H42 H 0.757119 0.697325 0.556784
C35 C 0.6160(3) 0.5581(4) 0.5577(2)
O15 O 0.5424(3) 0.4180(4) 0.6494(2)
O16 O 0.7140(3) 0.5413(4) 0.66018(19)
C36 C 0.6240(3) 0.5007(4) 0.6279(2)
Tm9 Tm 0.79616(2) 0.49457(3) 0.750000
O17 O 0.4576(3) 0.8756(3) 0.1494(2)
O18 O 0.1244(3) 0.5820(4) 0.1494(2)
O19 O 0.4180(4) 0.5424(3) 0.1494(2)
O20 O 0.2860(3) 0.8273(3) 0.16018(19)
O21 O 0.1727(3) 0.4587(4) 0.16018(19)
O22 O 0.5413(4) 0.7140(3) 0.16018(19)
C1 C 0.9936(5) 0.7459(6) 0.250000
N1 N 0.9545(4) 0.7574(5) 0.1822(3)
C2 C 0.9940(9) 0.7435(10) 0.1075(5)
H1 H 0.949349 0.671877 0.089299
H3 H 0.993474 0.792482 0.069756
C3 C 0.8625(10) 0.7741(13) 0.1776(7)
H4 H 0.875369 0.825984 0.136775
H5 H 0.799787 0.707711 0.162857
C4 C 0.8423(16) 0.8105(19) 0.250000
H6 H 0.768047 0.791731 0.250001
H7 H 0.884326 0.887687 0.250000
N2 N 0.9545(4) 0.7574(5) 0.3178(3)
C8 C 0.9940(9) 0.7435(10) 0.3925(5)
H9 H 0.949349 0.671877 0.410701
H11 H 0.993474 0.792482 0.430244
C9 C 0.8625(10) 0.7741(13) 0.3224(7)
H12 H 0.875369 0.825984 0.363225
H13 H 0.799787 0.707711 0.337143
S2_2 S 1.000000 0.49579(10) 0.500000
C22 C 0.9659(3) 0.3090(3) 0.5329(3)
H28 H 0.940206 0.242881 0.556784
C23 C 0.9421(3) 0.3840(3) 0.5577(2)
O10 O 0.8756(3) 0.4576(3) 0.6494(2)
O11 O 0.8273(3) 0.2860(3) 0.66018(19)
C24 C 0.8767(3) 0.3760(3) 0.6279(2)
S1_3 S 0.49579(10) 0.000000 0.000000
S1_4 S 0.49579(10) 0.000000 1.000000
C10_2 C 0.3431(4) 0.0341(3) 0.9671(3)
H14_2 H 0.302675 0.059794 0.943216
C11_2 C 0.4419(4) 0.0579(3) 0.9423(2)
O5_2 O 0.5820(4) 0.1244(3) 0.8506(2)
O6_2 O 0.4587(4) 0.1727(3) 0.83982(19)
C12_2 C 0.4993(4) 0.1233(3) 0.8721(2)
C5_2 C 0.3090(3) 0.9659(3) 0.0329(3)
H8_2 H 0.242881 0.940206 0.056784
C6_2 C 0.3840(3) 0.9421(3) 0.0577(2)
S1_5 S 0.49579(10) 1.000000 0.000000
C7_2 C 0.3760(3) 0.8767(3) 0.1279(2)
C17_2 C 0.0341(3) 0.3431(4) 0.0329(3)
H22_2 H 0.059794 0.302675 0.056784
C18_2 C 0.0579(3) 0.4419(4) 0.0577(2)
S2_3 S -0.000000 0.49579(10) 0.000000
C19_2 C 0.1233(3) 0.4993(4) 0.1279(2)
C29_2 C 0.6569(4) 0.6910(3) 0.0329(3)
H36_2 H 0.697325 0.757119 0.056784
C30_2 C 0.5581(4) 0.6160(3) 0.0577(2)
S3_2 S 0.50421(10) 0.50421(10) 0.000000
C31_2 C 0.5007(4) 0.6240(3) 0.1279(2)
S1_6 S 0.49579(10) 1.000000 1.000000
S2_4 S -0.000000 0.49579(10) 1.000000
S3_3 S 0.50421(10) 0.50421(10) 1.000000
C34_2 C 0.6910(3) 0.6569(4) 0.9671(3)
H42_2 H 0.757119 0.697325 0.943216
C35_2 C 0.6160(3) 0.5581(4) 0.9423(2)
O15_2 O 0.5424(3) 0.4180(4) 0.8506(2)
O16_2 O 0.7140(3) 0.5413(4) 0.83982(19)
C36_2 C 0.6240(3) 0.5007(4) 0.8721(2)
S2_5 S 1.000000 0.49579(10) 0.000000
S2_6 S 1.000000 0.49579(10) 1.000000
C22_2 C 0.9659(3) 0.3090(3) 0.9671(3)
H28_2 H 0.940206 0.242881 0.943216
C23_2 C 0.9421(3) 0.3840(3) 0.9423(2)
O10_2 O 0.8756(3) 0.4576(3) 0.8506(2)
O11_2 O 0.8273(3) 0.2860(3) 0.83982(19)
C24_2 C 0.8767(3) 0.3760(3) 0.8721(2)
C25_2 C 0.0064(5) 0.7523(8) 0.750000
N5_2 N 0.0455(4) 0.8029(6) 0.8178(3)
C26_2 C 0.0060(9) 0.7495(13) 0.8925(5)
H29_2 H 0.050651 0.722528 0.910701
H31_2 H 0.006526 0.799008 0.930244
C27_2 C 0.1375(10) 0.9116(16) 0.8224(7)
H32_2 H 0.124631 0.950615 0.863225
H33_2 H 0.200213 0.907924 0.837143
C28_2 C 0.1577(16) 0.9682(25) 0.750000
N6_2 N 0.0455(4) 0.8029(6) 0.6822(3)
C32_2 C 0.0060(9) 0.7495(13) 0.6075(5)
H37_2 H 0.050651 0.722528 0.589299
H39_2 H 0.006526 0.799008 0.569756
C33_2 C 0.1375(10) 0.9116(16) 0.6776(7)
H40_2 H 0.124631 0.950615 0.636775
H41_2 H 0.200213 0.907924 0.662857
H2_2 H 0.757033 0.065540 0.886003
O1_2 O 0.7308(4) 0.0707(3) 0.750000
O4_2 O 0.666667 0.333333 0.750000
H10_2 H 0.757033 0.065540 0.613997
C13_2 C 0.2477(8) 0.2541(6) 0.750000
N3_2 N 0.1971(6) 0.2426(5) 0.8178(3)
C14_2 C 0.2505(13) 0.2565(10) 0.8925(5)
H15_2 H 0.277472 0.328123 0.910701
H16_2 H 0.308507 0.242967 0.886003
H17_2 H 0.200992 0.207518 0.930244
C15_2 C 0.0884(16) 0.2259(13) 0.8224(7)
H18_2 H 0.049385 0.174016 0.863225
H19_2 H 0.092076 0.292289 0.837143
C16_2 C 0.0318(25) 0.1895(19) 0.750000
O7_2 O 0.3399(5) 0.2692(4) 0.750000
N4_2 N 0.1971(6) 0.2426(5) 0.6822(3)
C20_2 C 0.2505(13) 0.2565(10) 0.6075(5)
H23_2 H 0.277472 0.328123 0.589299
H24_2 H 0.308507 0.242967 0.613997
H25_2 H 0.200992 0.207518 0.569756
C21_2 C 0.0884(16) 0.2259(13) 0.6776(7)
H26_2 H 0.049385 0.174016 0.636775
H27_2 H 0.092076 0.292289 0.662857
H30_2 H 0.934460 0.691493 0.886003
O12_2 O 0.9293(3) 0.6601(5) 0.750000
H38_2 H 0.934460 0.691493 0.613997
C1_2 C 0.7459(6) 0.9936(5) 0.750000
N1_2 N 0.7574(5) 0.9545(4) 0.8178(3)
C2_2 C 0.7435(10) 0.9940(9) 0.8925(5)
H1_2 H 0.671877 0.949349 0.910701
H3_2 H 0.792482 0.993474 0.930244
C3_2 C 0.7741(13) 0.8625(10) 0.8224(7)
H4_2 H 0.825984 0.875369 0.863225
H5_2 H 0.707711 0.799787 0.837143
C4_2 C 0.8105(19) 0.8423(16) 0.750000
H6_2 H 0.791731 0.768047 0.749999
H7_2 H 0.887687 0.884326 0.750000
N2_2 N 0.7574(5) 0.9545(4) 0.6822(3)
C8_2 C 0.7435(10) 0.9940(9) 0.6075(5)
H9_2 H 0.671877 0.949349 0.589299
H11_2 H 0.792482 0.993474 0.569756
C9_2 C 0.7741(13) 0.8625(10) 0.6776(7)
H12_2 H 0.825984 0.875369 0.636775
H13_2 H 0.707711 0.799787 0.662857
H20 H 0.208269 0.976316 0.250001
H21 H 0.112313 0.996639 0.250000
H34_2 H 0.231953 0.023684 0.749999
H35_2 H 0.115674 0.003361 0.750000
H20_2 H 0.976316 0.208269 0.749999
H21_2 H 0.996639 0.112313 0.750000
N7 N -0.000000 0.000000 0.500000
O23 O 0.0849(10) 0.000000 0.500000
O24 O 0.000000 0.0849(10) 0.500000
N7_2 N -0.000000 1.000000 0.500000
O23_2 O 0.0849(10) 1.000000 0.500000
N7_3 N 1.000000 0.000000 0.500000
O24_2 O 1.000000 0.0849(10) 0.500000
N7_4 N 1.000000 1.000000 0.500000
O25 O 0.9151(10) 0.9151(10) 0.500000
N7_5 N -0.000000 0.000000 0.000000
O23_3 O 0.0849(10) 0.000000 0.000000
O24_3 O 0.000000 0.0849(10) 0.000000
N7_6 N -0.000000 0.000000 1.000000
O23_4 O 0.0849(10) 0.000000 1.000000
O24_4 O 0.000000 0.0849(10) 1.000000
N7_7 N -0.000000 1.000000 0.000000
O23_5 O 0.0849(10) 1.000000 0.000000
N7_8 N -0.000000 1.000000 1.000000
O23_6 O 0.0849(10) 1.000000 1.000000
N7_9 N 1.000000 0.000000 0.000000
O24_5 O 1.000000 0.0849(10) 0.000000
N7_10 N 1.000000 0.000000 1.000000
O24_6 O 1.000000 0.0849(10) 1.000000
N7_11 N 1.000000 1.000000 0.000000
O25_2 O 0.9151(10) 0.9151(10) 0.000000
N7_12 N 1.000000 1.000000 1.000000
O25_3 O 0.9151(10) 0.9151(10) 1.000000
loop_
_geom_bond_atom_site_label_1
_geom_bond_atom_site_label_2
_geom_bond_site_symmetry_1
_geom_bond_site_symmetry_2
H14 C10 1_555 1_555
C11 S1 1_555 1_555
O5 C12 1_555 1_555
O6 C12 1_555 1_555
C12 C11 1_555 1_555
C25 N5 1_555 1_555
N5 C26 1_555 1_555
C26 H29 1_555 1_555
H31 C26 1_555 1_555
C27 N5 1_555 1_555
H32 C27 1_555 1_555
H33 C27 1_555 1_555
C28 C27 1_555 1_555
N6 C25 1_555 1_555
C32 N6 1_555 1_555
H37 C32 1_555 1_555
H39 C32 1_555 1_555
C33 C28 1_555 1_555
H40 C33 1_555 1_555
H41 C33 1_555 1_555
Tm5 O5 1_555 1_555
Tm7 O6 1_555 1_555
C10 C11 1_555 1_555
N6 C33 1_555 1_555
Tm1 O1 1_555 1_555
C5 H8 1_555 1_555
C6 C5 1_555 1_555
O2 C7 1_555 1_555
O3 Tm1 1_555 1_555
S1_2 C6 1_555 1_555
C7 C6 1_555 1_555
O4 Tm1 1_555 1_555
Tm2 O4 1_555 1_555
C13 N3 1_555 1_555
N3 C14 1_555 1_555
C14 H15 1_555 1_555
H16 C14 1_555 1_555
H17 C14 1_555 1_555
C15 N3 1_555 1_555
H18 C15 1_555 1_555
H19 C15 1_555 1_555
C16 C15 1_555 1_555
O7 Tm2 1_555 1_555
C17 H22 1_555 1_555
C18 C17 1_555 1_555
O8 Tm1 1_555 1_555
O9 Tm2 1_555 1_555
S2 C18 1_555 1_555
C19 C18 1_555 1_555
N4 C13 1_555 1_555
C20 N4 1_555 1_555
H23 C20 1_555 1_555
H24 C20 1_555 1_555
H25 C20 1_555 1_555
C21 C16 1_555 1_555
H26 C21 1_555 1_555
H27 C21 1_555 1_555
Tm3 O2 1_555 1_555
O12 Tm3 1_555 1_555
C29 H36 1_555 1_555
C30 C29 1_555 1_555
O13 Tm2 1_555 1_555
O14 Tm3 1_555 1_555
S3 C30 1_555 1_555
C31 C30 1_555 1_555
C34 C29 1_555 1_555
H42 C34 1_555 1_555
C35 S3 1_555 1_555
O15 C36 1_555 1_555
O16 C36 1_555 1_555
C36 C35 1_555 1_555
Tm7 O15 1_555 1_555
Tm9 O16 1_555 1_555
O17 Tm3 1_555 1_555
O18 Tm1 1_555 1_555
O19 Tm2 1_555 1_555
O20 Tm1 1_555 1_555
O21 Tm2 1_555 1_555
O22 Tm3 1_555 1_555
O3 C7 1_555 1_555
O4 Tm3 1_555 1_555
C13 O7 1_555 1_555
O8 C19 1_555 1_555
O9 C19 1_555 1_555
N4 C21 1_555 1_555
O13 C31 1_555 1_555
O14 C31 1_555 1_555
C34 C35 1_555 1_555
C1 N1 1_555 1_555
N1 C2 1_555 1_555
C2 H1 1_555 1_555
H3 C2 1_555 1_555
C3 N1 1_555 1_555
H4 C3 1_555 1_555
H5 C3 1_555 1_555
C4 C3 1_555 1_555
H6 C4 1_555 1_555
H7 C4 1_555 1_555
N2 C1 1_555 1_555
C8 N2 1_555 1_555
H9 C8 1_555 1_555
H11 C8 1_555 1_555
C9 C4 1_555 1_555
H12 C9 1_555 1_555
H13 C9 1_555 1_555
H28 C22 1_555 1_555
C23 S2_2 1_555 1_555
O10 C24 1_555 1_555
O11 C24 1_555 1_555
C24 C23 1_555 1_555
Tm5 O11 1_555 1_555
Tm9 O10 1_555 1_555
N2 C9 1_555 1_555
C22 C23 1_555 1_555
H14_2 C10_2 1_555 1_555
C11_2 S1_4 1_555 1_555
O5_2 C12_2 1_555 1_555
O6_2 C12_2 1_555 1_555
C12_2 C11_2 1_555 1_555
Tm5 O5_2 1_555 1_555
Tm7 O6_2 1_555 1_555
C10_2 C11_2 1_555 1_555
C5_2 H8_2 1_555 1_555
C6_2 C5_2 1_555 1_555
O17 C7_2 1_555 1_555
S1_5 C6_2 1_555 1_555
C7_2 C6_2 1_555 1_555
C17_2 H22_2 1_555 1_555
C18_2 C17_2 1_555 1_555
S2_3 C18_2 1_555 1_555
C19_2 C18_2 1_555 1_555
C29_2 H36_2 1_555 1_555
C30_2 C29_2 1_555 1_555
S3_2 C30_2 1_555 1_555
C31_2 C30_2 1_555 1_555
O20 C7_2 1_555 1_555
O18 C19_2 1_555 1_555
O21 C19_2 1_555 1_555
O19 C31_2 1_555 1_555
O22 C31_2 1_555 1_555
H42_2 C34_2 1_555 1_555
C35_2 S3_3 1_555 1_555
O15_2 C36_2 1_555 1_555
O16_2 C36_2 1_555 1_555
C36_2 C35_2 1_555 1_555
Tm7 O15_2 1_555 1_555
Tm9 O16_2 1_555 1_555
C34_2 C35_2 1_555 1_555
H28_2 C22_2 1_555 1_555
C23_2 S2_6 1_555 1_555
O10_2 C24_2 1_555 1_555
O11_2 C24_2 1_555 1_555
C24_2 C23_2 1_555 1_555
Tm5 O11_2 1_555 1_555
Tm9 O10_2 1_555 1_555
C22_2 C23_2 1_555 1_555
C25_2 N5_2 1_555 1_555
N5_2 C26_2 1_555 1_555
C26_2 H29_2 1_555 1_555
H31_2 C26_2 1_555 1_555
C27_2 N5_2 1_555 1_555
H32_2 C27_2 1_555 1_555
H33_2 C27_2 1_555 1_555
C28_2 C27_2 1_555 1_555
N6_2 C25_2 1_555 1_555
C32_2 N6_2 1_555 1_555
H37_2 C32_2 1_555 1_555
H39_2 C32_2 1_555 1_555
C33_2 C28_2 1_555 1_555
H40_2 C33_2 1_555 1_555
H41_2 C33_2 1_555 1_555
N6_2 C33_2 1_555 1_555
Tm5 O1_2 1_555 1_555
O4_2 Tm5 1_555 1_555
Tm7 O4_2 1_555 1_555
C13_2 N3_2 1_555 1_555
N3_2 C14_2 1_555 1_555
C14_2 H15_2 1_555 1_555
H16_2 C14_2 1_555 1_555
H17_2 C14_2 1_555 1_555
C15_2 N3_2 1_555 1_555
H18_2 C15_2 1_555 1_555
H19_2 C15_2 1_555 1_555
C16_2 C15_2 1_555 1_555
O7_2 Tm7 1_555 1_555
N4_2 C13_2 1_555 1_555
C20_2 N4_2 1_555 1_555
H23_2 C20_2 1_555 1_555
H24_2 C20_2 1_555 1_555
H25_2 C20_2 1_555 1_555
C21_2 C16_2 1_555 1_555
H26_2 C21_2 1_555 1_555
H27_2 C21_2 1_555 1_555
O12_2 Tm9 1_555 1_555
O4_2 Tm9 1_555 1_555
C13_2 O7_2 1_555 1_555
N4_2 C21_2 1_555 1_555
C1_2 N1_2 1_555 1_555
N1_2 C2_2 1_555 1_555
C2_2 H1_2 1_555 1_555
H3_2 C2_2 1_555 1_555
C3_2 N1_2 1_555 1_555
H4_2 C3_2 1_555 1_555
H5_2 C3_2 1_555 1_555
C4_2 C3_2 1_555 1_555
H6_2 C4_2 1_555 1_555
H7_2 C4_2 1_555 1_555
N2_2 C1_2 1_555 1_555
C8_2 N2_2 1_555 1_555
H9_2 C8_2 1_555 1_555
H11_2 C8_2 1_555 1_555
C9_2 C4_2 1_555 1_555
H12_2 C9_2 1_555 1_555
H13_2 C9_2 1_555 1_555
N2_2 C9_2 1_555 1_555
N7 O23 1_555 1_555
O24 N7 1_555 1_555
N7_2 O23_2 1_555 1_555
O24_2 N7_3 1_555 1_555
O25 N7_4 1_555 1_555
N7_5 O23_3 1_555 1_555
O24_3 N7_5 1_555 1_555
N7_6 O23_4 1_555 1_555
O24_4 N7_6 1_555 1_555
N7_7 O23_5 1_555 1_555
N7_8 O23_6 1_555 1_555
O24_5 N7_9 1_555 1_555
O24_6 N7_10 1_555 1_555
O25_2 N7_11 1_555 1_555
O25_3 N7_12 1_555 1_555

#END
