
###############################################################################
#
# This file contains modified crystal structure data generated from the
# MOF subset of the Cambridge Structural Database (CSD) v543 
# hosted by the Cambridge Crystallographic Data Centre (CCDC).
#
# This work is licensed under the Creative Commons
# Attribution-NonCommercial-ShareAlike 4.0 International License.
# To view a copy of this license, visit
# http://creativecommons.org/licenses/by-nc-sa/4.0/
# or send a letter to
# Creative Commons, PO Box 1866, Mountain View, CA 94042, USA.
#
# CIF created using the CSD Python API on 29 September 2022
# The structure has been converted into the P1 space group
# The structure has a 3D framework
# The original CSD entry IQIMOM is in the monoclinic crystal system
# The framework has been calculated to contain at least 10.0% void space
# The void calculation uses a probe of radius 1.32A, grid spacing 0.4
#
###############################################################################

data_IQIMOM
_chemical_formula_moiety         '(C96 H60 Cd2 N8 O16)n'
_symmetry_cell_setting           triclinic
_symmetry_space_group_name_H-M   'P 1'
_symmetry_Int_Tables_number      1
_space_group_name_Hall           'P 1'
loop_
_symmetry_equiv_pos_site_id
_symmetry_equiv_pos_as_xyz
1 x,y,z
_cell_length_a                   7.6268(4)
_cell_length_b                   18.5423(9)
_cell_length_c                   17.2482(8)
_cell_angle_alpha                90
_cell_angle_beta                 100.0690(10)
_cell_angle_gamma                90
_cell_volume                     2401.64
loop_
_atom_site_label
_atom_site_type_symbol
_atom_site_fract_x
_atom_site_fract_y
_atom_site_fract_z
H27 H 0.0260 0.8191 0.1765
C44 C 0.1281(4) 0.73799(18) 0.2468(2)
H28 H 0.2446 0.7437 0.2385
C45 C 0.0882(4) 0.68417(17) 0.29725(18)
C48 C 0.2356(4) 0.63471(18) 0.33585(18)
O7 O 0.1933(3) 0.57943(13) 0.37088(14)
O8 O 0.3916(3) 0.64871(13) 0.33141(17)
Cd3 Cd 0.47708(3) 0.53763(2) 0.39670(2)
H5 H 0.9740 0.1809 0.8235
C10 C 0.8719(4) 0.26201(18) 0.7532(2)
H6 H 0.7554 0.2563 0.7615
C11 C 0.9118(4) 0.31583(17) 0.70275(18)
C14 C 0.7644(4) 0.36529(18) 0.66415(18)
O3 O 0.8067(3) 0.42057(13) 0.62912(14)
O4 O 0.6084(3) 0.35129(13) 0.66859(17)
Cd5 Cd 0.52292(3) 0.46237(2) 0.60330(2)
C1 C 0.7386(4) 0.57727(16) 0.52411(19)
C2 C 0.8962(4) 0.60743(15) 0.57837(16)
C7 C 0.8856(4) 0.62610(15) 0.65511(17)
H4 H 0.7843 0.6145 0.6757
C15 C 0.4867(5) 0.49476(19) 0.21811(19)
H9 H 0.3631 0.4940 0.2052
C16 C 0.7679(5) 0.49663(19) 0.20559(19)
H10 H 0.8721 0.4972 0.1846
C17 C 0.7521(5) 0.49864(18) 0.28298(19)
H11 H 0.8469 0.5008 0.3249
C18 C 0.6385(5) 0.3089(2) 0.0284(2)
H12 H 0.6786 0.2658 0.0527
C19 C 0.6245(5) 0.36750(18) 0.0726(2)
H13 H 0.6543 0.3641 0.1271
C20 C 0.5653(4) 0.43453(17) 0.03781(18)
C21 C 0.5455(4) 0.49643(18) 0.08065(18)
C22 C 0.4831(5) 0.56164(18) 0.04729(18)
C23 C 0.4650(5) 0.62581(19) 0.0910(2)
H14 H 0.4939 0.6247 0.1457
C24 C 0.4071(5) 0.6879(2) 0.0549(2)
H15 H 0.3969 0.7290 0.0848
N1 N 0.5751(4) 0.49704(15) 0.28983(13)
N2 N 0.5960(4) 0.49357(15) 0.16538(14)
O1 O 0.5933(3) 0.56657(11) 0.54874(13)
O2 O 0.7527(3) 0.56700(14) 0.45392(13)
C35 C 0.2614(4) 0.42273(16) 0.47589(19)
C36 C 0.1038(4) 0.39257(15) 0.42163(16)
C41 C 0.1144(4) 0.37390(15) 0.34489(17)
H26 H 0.2157 0.3855 0.3243
O5 O 0.4067(3) 0.43343(11) 0.45126(13)
O6 O 0.2473(3) 0.43300(14) 0.54608(13)
N5 N 0.4249(4) 0.50296(15) 0.71017(13)
C25 C 0.5133(5) 0.50524(19) 0.78189(19)
H16 H 0.6369 0.5060 0.7948
C26 C 0.2321(5) 0.50337(19) 0.79441(19)
H17 H 0.1279 0.5028 0.8154
C27 C 0.2479(5) 0.50136(18) 0.71702(19)
H18 H 0.1531 0.4992 0.6751
C28 C 0.3615(5) 0.6911(2) 0.9716(2)
H19 H 0.3214 0.7342 0.9473
C29 C 0.3755(5) 0.63250(18) 0.9274(2)
H20 H 0.3457 0.6359 0.8729
C30 C 0.4347(4) 0.56547(17) 0.96219(18)
C31 C 0.4545(4) 0.50357(18) 0.91935(18)
C32 C 0.5169(5) 0.43836(18) 0.95271(18)
C33 C 0.5350(5) 0.37419(19) 0.9090(2)
H21 H 0.5061 0.3753 0.8543
C34 C 0.5929(5) 0.3121(2) 0.9451(2)
H22 H 0.6031 0.2710 0.9152
N4 N 0.4040(4) 0.50643(15) 0.83462(14)
Cd1 Cd 0.02292(3) 0.03763(2) 0.10330(2)
C22_2 C 0.0169(5) 0.06164(18) 0.45271(18)
C23_2 C 0.0350(5) 0.12581(19) 0.4090(2)
H14_2 H 0.0061 0.1247 0.3543
C24_2 C 0.0929(5) 0.1879(2) 0.4451(2)
H15_2 H 0.1031 0.2290 0.4152
C26_2 C 0.2679(5) 0.00337(19) 0.70559(19)
H17_2 H 0.3721 0.0028 0.6846
C27_2 C 0.2521(5) 0.00136(18) 0.78298(19)
C28_2 C 0.1385(5) 0.1911(2) 0.5284(2)
H19_2 H 0.1786 0.2342 0.5527
C29_2 C 0.1245(5) 0.13250(18) 0.5726(2)
H20_2 H 0.1543 0.1359 0.6271
C30_2 C 0.0653(4) 0.06547(17) 0.53781(18)
C31_2 C 0.0455(4) 0.00357(18) 0.58065(18)
N3 N 0.0751(4) 0.00296(15) 0.78983(13)
N4_2 N 0.0960(4) 0.00643(15) 0.66538(14)
O10 O 0.3067(3) 0.07943(13) 0.12912(14)
O12 O 0.1084(3) 0.14871(13) 0.16859(17)
C37 C 0.9478(4) 0.37941(16) 0.44923(17)
H23 H 0.9367 0.3943 0.4996
C38 C 0.8077(4) 0.34433(17) 0.40282(17)
H24 H 0.7026 0.3366 0.4219
C39 C 0.8227(4) 0.32030(15) 0.32717(17)
C40 C 0.9748(4) 0.33799(16) 0.29860(18)
H25 H 0.9839 0.3256 0.2472
C42 C 0.6783(4) 0.27507(16) 0.28102(18)
C43 C 0.5034(4) 0.28284(18) 0.2908(2)
H27_2 H 0.4740 0.3191 0.3235
C44_2 C 0.3719(4) 0.23799(18) 0.2532(2)
H28_2 H 0.2554 0.2437 0.2615
C45_2 C 0.4118(4) 0.18417(17) 0.20275(18)
C46 C 0.5846(4) 0.17661(16) 0.19189(18)
H29 H 0.6131 0.1408 0.1584
C47 C 0.7181(4) 0.22160(16) 0.23022(18)
H30 H 0.8345 0.2159 0.2219
C48_2 C 0.2644(4) 0.13471(18) 0.16415(18)
C15_2 C 0.0133(5) 0.99476(19) 0.28189(19)
H9_2 H 0.1369 0.9940 0.2948
H18_2 H 0.3469 0.9992 0.8249
C35_2 C 0.2386(4) 0.92273(16) 0.02411(19)
C36_2 C 0.3962(4) 0.89257(15) 0.07837(16)
C37_2 C 0.5522(4) 0.87941(16) 0.05077(17)
H23_2 H 0.5633 0.8943 0.0004
C38_2 C 0.6923(4) 0.84433(17) 0.09718(17)
H24_2 H 0.7974 0.8366 0.0781
C39_2 C 0.6773(4) 0.82030(15) 0.17283(17)
C40_2 C 0.5252(4) 0.83799(16) 0.20140(18)
H25_2 H 0.5161 0.8256 0.2528
C41_2 C 0.3856(4) 0.87390(15) 0.15511(17)
H26_2 H 0.2843 0.8855 0.1757
C42_2 C 0.8217(4) 0.77507(16) 0.21898(18)
C43_2 C 0.9966(4) 0.78284(18) 0.2092(2)
C46_2 C 0.9154(4) 0.67661(16) 0.30811(18)
H29_2 H 0.8869 0.6408 0.3416
C47_2 C 0.7819(4) 0.72160(16) 0.26978(18)
H30_2 H 0.6655 0.7159 0.2781
O5_2 O 0.0933(3) 0.93343(11) 0.04874(13)
O6_2 O 0.2527(3) 0.93300(14) 0.95392(13)
H11_2 H 0.6531 0.0008 0.1751
O2_2 O 0.7473(3) 0.06700(14) 0.04608(13)
C25_2 C 0.9867(5) 0.00524(19) 0.71811(19)
H16_2 H 0.8631 0.0060 0.7052
C1_2 C 0.7614(4) 0.07727(16) 0.97589(19)
C2_2 C 0.6038(4) 0.10743(15) 0.92163(16)
C3 C 0.4478(4) 0.12059(16) 0.94923(17)
H1 H 0.4367 0.1057 0.9996
C4 C 0.3077(4) 0.15567(17) 0.90282(17)
H2 H 0.2026 0.1634 0.9219
C5 C 0.3227(4) 0.17970(15) 0.82717(17)
C6 C 0.4748(4) 0.16201(16) 0.79860(18)
H3 H 0.4839 0.1744 0.7472
C7_2 C 0.6144(4) 0.12610(15) 0.84489(17)
H4_2 H 0.7157 0.1145 0.8243
C8 C 0.1783(4) 0.22493(16) 0.78102(18)
C9 C 0.0034(4) 0.21716(18) 0.7908(2)
C12 C 0.0846(4) 0.32339(16) 0.69189(18)
H7 H 0.1131 0.3592 0.6584
C13 C 0.2181(4) 0.27840(16) 0.73022(18)
H8 H 0.3345 0.2841 0.7219
O1_2 O 0.9067(3) 0.06657(11) 0.95126(13)
C16_2 C 0.7321(5) 0.99663(19) 0.29441(19)
H10_2 H 0.6279 0.9972 0.3154
C17_2 C 0.7479(5) 0.99864(18) 0.21702(19)
C18_2 C 0.8615(5) 0.8089(2) 0.4716(2)
H12_2 H 0.8214 0.7658 0.4473
C19_2 C 0.8755(5) 0.86750(18) 0.4274(2)
H13_2 H 0.8457 0.8641 0.3729
C20_2 C 0.9347(4) 0.93453(17) 0.46219(18)
C21_2 C 0.9545(4) 0.99643(18) 0.41935(18)
N1_2 N 0.9249(4) 0.99704(15) 0.21017(13)
N2_2 N 0.9040(4) 0.99357(15) 0.33462(14)
C32_2 C 0.9831(5) 0.93836(18) 0.54729(18)
C33_2 C 0.9650(5) 0.87419(19) 0.5910(2)
H21_2 H 0.9939 0.8753 0.6457
C34_2 C 0.9071(5) 0.8121(2) 0.5549(2)
H22_2 H 0.8969 0.7710 0.5848
Cd4 Cd 0.97708(3) 0.96237(2) 0.89670(2)
O9 O 0.6933(3) 0.92057(13) 0.87088(14)
O11 O 0.8916(3) 0.85129(13) 0.83141(17)
C3_2 C 0.0522(4) 0.62059(16) 0.55077(17)
H1_2 H 0.0633 0.6057 0.5004
C4_2 C 0.1923(4) 0.65567(17) 0.59718(17)
H2_2 H 0.2974 0.6634 0.5781
C5_2 C 0.1773(4) 0.67970(15) 0.67283(17)
C6_2 C 0.0252(4) 0.66201(16) 0.70140(18)
H3_2 H 0.0161 0.6744 0.7528
C8_2 C 0.3217(4) 0.72493(16) 0.71898(18)
C9_2 C 0.4966(4) 0.71716(18) 0.7092(2)
H5_2 H 0.5260 0.6809 0.6765
C10_2 C 0.6281(4) 0.76201(18) 0.7468(2)
H6_2 H 0.7446 0.7563 0.7385
C11_2 C 0.5882(4) 0.81583(17) 0.79725(18)
C12_2 C 0.4154(4) 0.82339(16) 0.80811(18)
H7_2 H 0.3869 0.8592 0.8416
C13_2 C 0.2819(4) 0.77840(16) 0.76978(18)
H8_2 H 0.1655 0.7841 0.7781
C14_2 C 0.7356(4) 0.86529(18) 0.83585(18)
loop_
_geom_bond_atom_site_label_1
_geom_bond_atom_site_label_2
_geom_bond_site_symmetry_1
_geom_bond_site_symmetry_2
H28 C44 1_555 1_555
C45 C44 1_555 1_555
C48 C45 1_555 1_555
O7 C48 1_555 1_555
O8 C48 1_555 1_555
Cd3 O7 1_555 1_555
O8 Cd3 1_555 1_555
H6 C10 1_555 1_555
C11 C10 1_555 1_555
C14 C11 1_555 1_555
O3 C14 1_555 1_555
O4 C14 1_555 1_555
Cd5 O3 1_555 1_555
O4 Cd5 1_555 1_555
Cd3 N1 1_555 1_555
C1 C2 1_555 1_555
C7 C2 1_555 1_555
H4 C7 1_555 1_555
C15 H9 1_555 1_555
C16 H10 1_555 1_555
C17 C16 1_555 1_555
H11 C17 1_555 1_555
C18 H12 1_555 1_555
C19 C18 1_555 1_555
H13 C19 1_555 1_555
C20 C19 1_555 1_555
C21 C20 1_555 1_555
C22 C21 1_555 1_555
C23 C22 1_555 1_555
H14 C23 1_555 1_555
C24 C23 1_555 1_555
H15 C24 1_555 1_555
N1 C15 1_555 1_555
N2 C15 1_555 1_555
O1 Cd3 1_555 1_555
O2 Cd3 1_555 1_555
Cd5 O1 1_555 1_555
C35 C36 1_555 1_555
C41 C36 1_555 1_555
H26 C41 1_555 1_555
O5 Cd3 1_555 1_555
O6 Cd5 1_555 1_555
N5 Cd5 1_555 1_555
C1 O1 1_555 1_555
C1 O2 1_555 1_555
C16 N2 1_555 1_555
C17 N1 1_555 1_555
C21 N2 1_555 1_555
Cd5 O5 1_555 1_555
C35 O5 1_555 1_555
C35 O6 1_555 1_555
C25 H16 1_555 1_555
C26 H17 1_555 1_555
C27 C26 1_555 1_555
H18 C27 1_555 1_555
H19 C28 1_555 1_555
C29 C28 1_555 1_555
H20 C29 1_555 1_555
C31 C30 1_555 1_555
C33 C32 1_555 1_555
H21 C33 1_555 1_555
H22 C34 1_555 1_555
N5 C25 1_555 1_555
N4 C25 1_555 1_555
C26 N4 1_555 1_555
C27 N5 1_555 1_555
C29 C30 1_555 1_555
C31 C32 1_555 1_555
C31 N4 1_555 1_555
C33 C34 1_555 1_555
C23_2 C22_2 1_555 1_555
H14_2 C23_2 1_555 1_555
C24_2 C23_2 1_555 1_555
H15_2 C24_2 1_555 1_555
C26_2 H17_2 1_555 1_555
C27_2 C26_2 1_555 1_555
C28_2 C24_2 1_555 1_555
H19_2 C28_2 1_555 1_555
C29_2 C28_2 1_555 1_555
H20_2 C29_2 1_555 1_555
C30_2 C22_2 1_555 1_555
C31_2 C30_2 1_555 1_555
O10 Cd1 1_555 1_555
O12 Cd1 1_555 1_555
C26_2 N4_2 1_555 1_555
C27_2 N3 1_555 1_555
C29_2 C30_2 1_555 1_555
C31_2 N4_2 1_555 1_555
C37 H23 1_555 1_555
C38 C37 1_555 1_555
H24 C38 1_555 1_555
C39 C38 1_555 1_555
C40 C39 1_555 1_555
H25 C40 1_555 1_555
C42 C39 1_555 1_555
C43 C42 1_555 1_555
H27_2 C43 1_555 1_555
C44_2 C43 1_555 1_555
H28_2 C44_2 1_555 1_555
C45_2 C44_2 1_555 1_555
C46 C45_2 1_555 1_555
H29 C46 1_555 1_555
C47 C42 1_555 1_555
H30 C47 1_555 1_555
C48_2 C45_2 1_555 1_555
O10 C48_2 1_555 1_555
O12 C48_2 1_555 1_555
C46 C47 1_555 1_555
C15_2 H9_2 1_555 1_555
C35_2 C36_2 1_555 1_555
C36_2 C37_2 1_555 1_555
C37_2 H23_2 1_555 1_555
C38_2 C37_2 1_555 1_555
H24_2 C38_2 1_555 1_555
C39_2 C38_2 1_555 1_555
C40_2 C39_2 1_555 1_555
H25_2 C40_2 1_555 1_555
C41_2 C36_2 1_555 1_555
H26_2 C41_2 1_555 1_555
C42_2 C39_2 1_555 1_555
C43_2 C42_2 1_555 1_555
H29_2 C46_2 1_555 1_555
C47_2 C42_2 1_555 1_555
H30_2 C47_2 1_555 1_555
C35_2 O5_2 1_555 1_555
C40_2 C41_2 1_555 1_555
C46_2 C47_2 1_555 1_555
C25_2 H16_2 1_555 1_555
C1_2 C2_2 1_555 1_555
C2_2 C3 1_555 1_555
C3 H1 1_555 1_555
C4 C3 1_555 1_555
H2 C4 1_555 1_555
C5 C4 1_555 1_555
C6 C5 1_555 1_555
H3 C6 1_555 1_555
C7_2 C2_2 1_555 1_555
H4_2 C7_2 1_555 1_555
C8 C5 1_555 1_555
C9 C8 1_555 1_555
H7 C12 1_555 1_555
C13 C8 1_555 1_555
H8 C13 1_555 1_555
C1_2 O1_2 1_555 1_555
C6 C7_2 1_555 1_555
C12 C13 1_555 1_555
C16_2 H10_2 1_555 1_555
C17_2 C16_2 1_555 1_555
C18_2 H12_2 1_555 1_555
C19_2 C18_2 1_555 1_555
H13_2 C19_2 1_555 1_555
C20_2 C19_2 1_555 1_555
C21_2 C20_2 1_555 1_555
C32_2 C20_2 1_555 1_555
C33_2 C32_2 1_555 1_555
H21_2 C33_2 1_555 1_555
C34_2 C18_2 1_555 1_555
H22_2 C34_2 1_555 1_555
C16_2 N2_2 1_555 1_555
C17_2 N1_2 1_555 1_555
C21_2 N2_2 1_555 1_555
C33_2 C34_2 1_555 1_555
O9 Cd4 1_555 1_555
O11 Cd4 1_555 1_555
C3_2 H1_2 1_555 1_555
C4_2 C3_2 1_555 1_555
H2_2 C4_2 1_555 1_555
C5_2 C4_2 1_555 1_555
C6_2 C5_2 1_555 1_555
H3_2 C6_2 1_555 1_555
C8_2 C5_2 1_555 1_555
C9_2 C8_2 1_555 1_555
H5_2 C9_2 1_555 1_555
C10_2 C9_2 1_555 1_555
H6_2 C10_2 1_555 1_555
C11_2 C10_2 1_555 1_555
C12_2 C11_2 1_555 1_555
H7_2 C12_2 1_555 1_555
C13_2 C8_2 1_555 1_555
H8_2 C13_2 1_555 1_555
C14_2 C11_2 1_555 1_555
O9 C14_2 1_555 1_555
O11 C14_2 1_555 1_555
C12_2 C13_2 1_555 1_555

#END
