
###############################################################################
#
# This file contains modified crystal structure data generated from the
# MOF subset of the Cambridge Structural Database (CSD) v543 
# hosted by the Cambridge Crystallographic Data Centre (CCDC).
#
# This work is licensed under the Creative Commons
# Attribution-NonCommercial-ShareAlike 4.0 International License.
# To view a copy of this license, visit
# http://creativecommons.org/licenses/by-nc-sa/4.0/
# or send a letter to
# Creative Commons, PO Box 1866, Mountain View, CA 94042, USA.
#
# CIF created using the CSD Python API on 29 September 2022
# The structure has been converted into the P1 space group
# The structure has a 3D framework
# The original CSD entry IRATAZ is in the triclinic crystal system
# The original CSD entry IRATAZ is in a Sohncke space group
# The framework has been calculated to contain at least 10.0% void space
# The void calculation uses a probe of radius 1.32A, grid spacing 0.4
# H atom positions have been added when not included in the experimental data
#
###############################################################################

data_IRATAZ
_chemical_formula_moiety         '(C48 H38 Er4 N24 O24)n'
_symmetry_cell_setting           triclinic
_symmetry_space_group_name_H-M   'P 1'
_symmetry_Int_Tables_number      1
_space_group_name_Hall           'P 1'
loop_
_symmetry_equiv_pos_site_id
_symmetry_equiv_pos_as_xyz
1 x,y,z
_cell_length_a                   10.6022(15)
_cell_length_b                   11.3341(15)
_cell_length_c                   16.421(2)
_cell_angle_alpha                99.804(4)
_cell_angle_beta                 105.196(4)
_cell_angle_gamma                108.425(5)
_cell_volume                     1736.22
loop_
_atom_site_label
_atom_site_type_symbol
_atom_site_fract_x
_atom_site_fract_y
_atom_site_fract_z
Er1 Er 0.0935(2) 0.0438(2) 0.37646(13)
O11 O 0.022(4) 0.250(4) 0.819(2)
O12 O 0.045(4) 0.085(4) 0.498(2)
C21 C 0.053(5) 0.215(3) 0.748(2)
C22 C 0.124(5) 0.138(4) 0.728(3)
H13 H 0.174802 0.111910 0.773205
C23 C 0.123(6) 0.100(6) 0.648(3)
H14 H 0.169968 0.044445 0.635936
C24 C 0.052(5) 0.141(6) 0.579(3)
Er11 Er 0.1460(2) 0.6242(2) 0.89654(14)
O30 O 0.321(4) 0.208(4) 0.463(2)
O32 O 0.147(4) 0.217(4) 0.308(3)
O34 O 0.079(3) 0.464(4) 0.963(2)
H28 H 0.035712 0.0606503 0.997672
O10 O 0.047(5) 0.755(4) 0.816(3)
N2 N 0.036(6) 0.912(5) 0.910(3)
N3 N 0.008(6) 0.716(5) 0.183(3)
N4 N 0.026(5) 0.677(5) 0.108(3)
C20 C 0.001(6) 0.830(5) 0.828(3)
O27 O 0.268(4) 0.997(4) 0.313(2)
O31 O 0.164(4) 0.910(4) 0.451(2)
H27 H 0.0926045 0.629257 0.109002
H35 H 0.198451 0.0690227 0.186086
N21 N 0.228(5) 0.950(5) 0.084(3)
N22 N 0.237(4) 0.999(4) 0.174(3)
C9 C 0.291(5) 0.960(4) 0.241(3)
C10 C 0.359(6) 0.878(5) 0.229(3)
H7 H 0.404052 0.852730 0.277073
C11 C 0.364(7) 0.840(8) 0.163(4)
H8 H 0.417588 0.786879 0.161006
C12 C 0.298(5) 0.860(5) 0.079(3)
C14 C 0.539(6) 0.525(5) 0.006(3)
H9 H 0.557093 0.566583 0.065417
H10 H 0.688895 0.457154 0.033548
O35 O 0.874(4) 0.324(3) 0.032(2)
Er3 Er 0.3814(2) 0.3749(2) 0.39464(15)
Er4 Er 0.8606(2) 0.2944(2) 0.87779(12)
O1 O 0.920(5) 0.462(4) 0.810(2)
O3 O 0.285(4) 0.819(4) 0.997(2)
O4 O 0.184(6) 0.550(5) 0.775(3)
O5 O 0.359(5) 0.582(5) 0.956(3)
O6 O 0.673(6) 0.334(5) 0.876(3)
O7 O 0.627(5) 0.097(5) 0.890(3)
H1 H 0.607475 0.085525 0.937929
H2 H 0.557685 0.034205 0.847044
O8 O 0.711(4) 0.167(4) 0.732(2)
O9 O 0.834(7) 0.096(5) 0.896(4)
O14 O 0.887(4) 0.071(4) 0.314(3)
O16 O 0.571(5) 0.328(6) 0.396(3)
O18 O 0.538(4) 0.491(4) 0.537(2)
O19 O 0.225(5) 0.442(5) 0.463(3)
O20 O 0.411(4) 0.573(4) 0.380(3)
O23 O 0.383(4) 0.372(4) 0.250(2)
N1 N 0.991(8) 0.003(6) 0.935(3)
N5 N 0.835(3) 0.206(4) 0.4116(18)
C1 C 0.804(4) 0.145(4) 0.324(2)
C2 C 0.690(4) 0.147(4) 0.2597(15)
H3 H 0.669124 0.105480 0.199794
C3 C 0.607(4) 0.211(5) 0.2833(18)
H4 H 0.528879 0.212261 0.239419
C4 C 0.637(4) 0.272(4) 0.371(2)
N6 N 0.751(3) 0.269(4) 0.4351(15)
N7 N 0.988(5) 0.249(4) 0.676(2)
N8 N 0.984(4) 0.215(5) 0.594(2)
N9 N 0.419(5) 0.244(4) 0.611(3)
N10 N 0.518(4) 0.234(4) 0.673(3)
N11 N 0.656(5) 0.560(4) 0.692(3)
N12 N 0.750(5) 0.557(4) 0.760(3)
N13 N 0.416(4) 0.463(3) 0.861(2)
N14 N 0.497(5) 0.398(5) 0.839(3)
N15 N 0.284(3) 0.434(4) 0.605(2)
C5 C 0.214(4) 0.468(4) 0.5337(17)
C6 C 0.128(4) 0.537(5) 0.544(2)
H5 H 0.080946 0.559893 0.495199
C7 C 0.112(4) 0.571(4) 0.625(2)
H6 H 0.053282 0.617078 0.631359
C8 C 0.181(4) 0.536(4) 0.6955(19)
N16 N 0.267(4) 0.468(4) 0.6855(19)
N17 N 0.186(6) 0.742(6) 0.360(4)
N18 N 0.250(7) 0.661(5) 0.341(4)
N19 N 0.193(4) 0.505(4) 0.111(2)
N20 N 0.272(4) 0.476(4) 0.178(2)
C13 C 0.429(4) 0.535(5) 0.938(3)
C15 C 0.616(5) 0.461(4) 0.988(3)
C16 C 0.588(5) 0.394(5) 0.893(3)
C17 C 0.879(7) 0.021(6) 0.874(4)
C29 C 0.326(6) 0.384(5) 0.185(3)
C30 C 0.298(3) 0.314(3) 0.091(3)
H17 H 0.330684 0.245807 0.080467
C31 C 0.232(4) 0.341(4) 0.024(3)
C32 C 0.172(5) 0.432(6) 0.033(3)
C33 C 0.033(4) 0.334(3) 0.2567(15)
H19 H 0.055182 0.386417 0.314296
C34 C 0.074(3) 0.229(3) 0.2449(17)
N23 N 0.041(3) 0.153(3) 0.161(2)
C37 C 0.339(6) 0.657(6) 0.399(4)
C38 C 0.401(5) 0.724(5) 0.491(3)
H21 H 0.472868 0.714213 0.534613
C39 C 0.322(8) 0.816(7) 0.503(5)
H22 H 0.347019 0.868724 0.561091
C40 C 0.220(6) 0.830(6) 0.440(4)
C41 C 0.425(6) 0.195(6) 0.530(4)
C42 C 0.503(6) 0.125(6) 0.509(4)
H23 H 0.487749 0.086240 0.449758
C43 C 0.603(5) 0.110(6) 0.575(3)
H24 H 0.660395 0.064217 0.562730
C44 C 0.617(6) 0.167(5) 0.661(4)
C45 C 0.636(6) 0.498(6) 0.604(3)
C46 C 0.711(5) 0.443(5) 0.594(3)
H25 H 0.705488 0.410250 0.535636
C47 C 0.809(6) 0.423(6) 0.663(3)
H26 H 0.853296 0.364141 0.650039
C48 C 0.837(5) 0.487(5) 0.745(3)
H29 H 0.77294 0.312921 0.499213
H30 H 0.593769 0.609029 0.702206
H31 H 0.347972 0.282308 0.621044
H32 H 0.317594 0.44311 0.737348
H33 H 0.103329 0.738421 0.310141
H34 H 0.29631 0.538629 0.237079
H36 H 0.332182 0.454778 0.810023
H37 H 0.93635 0.308137 0.687819
H38 H 0.0705344 0.0761754 0.152245
H18 H 0.224063 0.298315 0.967036
O15 O 0.990(4) 0.659(4) 0.962(2)
H16 H 0.803723 0.768496 0.981030
N24 N 0.967(3) 0.182(3) 0.0883(15)
C35 C 0.926(3) 0.286(3) 0.1002(16)
C36 C 0.959(4) 0.363(3) 0.184(2)
H20 H 0.930819 0.434316 0.192451
O13 O 0.950(6) 0.861(5) 0.267(3)
C18 C 0.862(8) 0.940(7) 0.784(4)
H11 H 0.800678 0.953949 0.736216
C19 C 0.907(5) 0.866(5) 0.764(3)
H12 H 0.883597 0.827286 0.703009
C25 C 0.953(6) 0.790(5) 0.194(3)
C26 C 0.866(5) 0.829(4) 0.125(3)
H15 H 0.818180 0.884774 0.135619
C27 C 0.865(6) 0.764(6) 0.033(3)
C28 C 0.965(6) 0.694(6) 0.030(3)
loop_
_geom_bond_atom_site_label_1
_geom_bond_atom_site_label_2
_geom_bond_site_symmetry_1
_geom_bond_site_symmetry_2
Er1 O12 1_555 1_555
O12 C24 1_555 1_555
C21 O11 1_555 1_555
C22 C21 1_555 1_555
H13 C22 1_555 1_555
C23 C22 1_555 1_555
H14 C23 1_555 1_555
C24 C23 1_555 1_555
O30 Er1 1_555 1_555
O32 Er1 1_555 1_555
Er11 O34 1_555 1_555
O10 C20 1_555 1_555
N2 C20 1_555 1_555
N3 N4 1_555 1_555
Er11 O10 1_555 1_555
N4 H27 1_555 1_555
O27 C9 1_555 1_555
N21 N22 1_555 1_555
N22 C9 1_555 1_555
C9 C10 1_555 1_555
C10 H7 1_555 1_555
C11 C10 1_555 1_555
H8 C11 1_555 1_555
C12 N21 1_555 1_555
H9 C14 1_555 1_555
C11 C12 1_555 1_555
Er11 O3 1_555 1_555
Er3 O16 1_555 1_555
Er4 O1 1_555 1_555
O1 C48 1_555 1_555
O4 Er11 1_555 1_555
O5 Er11 1_555 1_555
O6 Er4 1_555 1_555
O7 Er4 1_555 1_555
H1 O7 1_555 1_555
H2 O7 1_555 1_555
O8 Er4 1_555 1_555
O9 Er4 1_555 1_555
O16 C4 1_555 1_555
O30 Er3 1_555 1_555
O18 Er3 1_555 1_555
O19 Er3 1_555 1_555
O20 Er3 1_555 1_555
O31 C40 1_555 1_555
O32 Er3 1_555 1_555
O23 Er3 1_555 1_555
N5 C1 1_555 1_555
C1 O14 1_555 1_555
C2 C1 1_555 1_555
H3 C2 1_555 1_555
C3 C2 1_555 1_555
H4 C3 1_555 1_555
C4 C3 1_555 1_555
N6 N5 1_555 1_555
N7 N8 1_555 1_555
N9 N10 1_555 1_555
N10 C44 1_555 1_555
N11 N12 1_555 1_555
N12 C48 1_555 1_555
N13 N14 1_555 1_555
N14 C16 1_555 1_555
N15 C5 1_555 1_555
C5 O19 1_555 1_555
C6 C5 1_555 1_555
H5 C6 1_555 1_555
C7 C6 1_555 1_555
H6 C7 1_555 1_555
C8 O4 1_555 1_555
N16 N15 1_555 1_555
N17 N18 1_555 1_555
N18 C37 1_555 1_555
N19 N20 1_555 1_555
N20 C29 1_555 1_555
C13 O5 1_555 1_555
C16 O6 1_555 1_555
C17 O9 1_555 1_555
C29 O23 1_555 1_555
C30 C29 1_555 1_555
H17 C30 1_555 1_555
C31 C30 1_555 1_555
C32 N19 1_555 1_555
C33 H19 1_555 1_555
C34 O32 1_555 1_555
N23 C34 1_555 1_555
C37 O20 1_555 1_555
C38 C37 1_555 1_555
H21 C38 1_555 1_555
C39 C38 1_555 1_555
H22 C39 1_555 1_555
C40 N17 1_555 1_555
C41 O30 1_555 1_555
C42 C41 1_555 1_555
H23 C42 1_555 1_555
C43 C42 1_555 1_555
H24 C43 1_555 1_555
C44 O8 1_555 1_555
C45 O18 1_555 1_555
C46 C45 1_555 1_555
H25 C46 1_555 1_555
C47 C46 1_555 1_555
H26 C47 1_555 1_555
C48 C47 1_555 1_555
N1 C17 1_555 1_555
C4 N6 1_555 1_555
N9 C41 1_555 1_555
N11 C45 1_555 1_555
N13 C13 1_555 1_555
C7 C8 1_555 1_555
C8 N16 1_555 1_555
C15 C16 1_555 1_555
C31 C32 1_555 1_555
C33 C34 1_555 1_555
C39 C40 1_555 1_555
C43 C44 1_555 1_555
N6 H29 1_555 1_555
N11 H30 1_555 1_555
N9 H31 1_555 1_555
N16 H32 1_555 1_555
N17 H33 1_555 1_555
N20 H34 1_555 1_555
N13 H36 1_555 1_555
N7 H37 1_555 1_555
N23 H38 1_555 1_555
O35 C35 1_555 1_555
C35 N24 1_555 1_555
H20 C36 1_555 1_555
C35 C36 1_555 1_555
H11 C18 1_555 1_555
C19 C18 1_555 1_555
H12 C19 1_555 1_555
C25 O13 1_555 1_555
C26 C25 1_555 1_555
H15 C26 1_555 1_555
C27 C26 1_555 1_555
C28 C27 1_555 1_555

#END
