
###############################################################################
#
# This file contains modified crystal structure data generated from the
# MOF subset of the Cambridge Structural Database (CSD) v543 
# hosted by the Cambridge Crystallographic Data Centre (CCDC).
#
# This work is licensed under the Creative Commons
# Attribution-NonCommercial-ShareAlike 4.0 International License.
# To view a copy of this license, visit
# http://creativecommons.org/licenses/by-nc-sa/4.0/
# or send a letter to
# Creative Commons, PO Box 1866, Mountain View, CA 94042, USA.
#
# CIF created using the CSD Python API on 29 September 2022
# The structure has been converted into the P1 space group
# The structure has a 3D framework
# The original CSD entry IRISAD01 is in the tetragonal crystal system
# The framework has been calculated to contain at least 10.0% void space
# The void calculation uses a probe of radius 1.32A, grid spacing 0.4
# The framework is charged, counterions have been retained in the structure
#
###############################################################################

data_IRISAD01
_chemical_formula_moiety         '(C20 H20 Bi6 N6 O37 5-)n'
_symmetry_cell_setting           triclinic
_symmetry_space_group_name_H-M   'P 1'
_symmetry_Int_Tables_number      1
_space_group_name_Hall           'P 1'
loop_
_symmetry_equiv_pos_site_id
_symmetry_equiv_pos_as_xyz
1 x,y,z
_cell_length_a                   11.6740(10)
_cell_length_b                   11.6740(10)
_cell_length_c                   9.2545(8)
_cell_angle_alpha                90
_cell_angle_beta                 90
_cell_angle_gamma                90
_cell_volume                     1261.22
loop_
_atom_site_label
_atom_site_type_symbol
_atom_site_fract_x
_atom_site_fract_y
_atom_site_fract_z
Bi1 Bi 0.5000 0.2500 0.6250
O1 O 0.2966(5) 0.2500 0.5729(7)
O2 O 0.1202(5) 0.2500 0.6607(6)
C1 C 0.2260(7) 0.2500 0.6738(8)
Bi2 Bi -0.0000 0.2500 0.8750
O3 O 0.2034(5) 0.2500 0.9271(7)
O4 O 0.5000 0.0466(5) 0.6771(7)
O6 O 0.7034(5) 0.2500 0.5729(7)
O7 O 0.5000 0.4534(5) 0.6771(7)
O8 O 0.3798(5) 0.2500 0.8393(6)
O10 O 0.5000 0.1298(5) 0.4107(6)
O11 O 0.5000 0.3702(5) 0.4107(6)
O12 O 0.6202(5) 0.2500 0.8393(6)
C2 C 0.2740(7) 0.2500 0.8262(8)
C4 C 0.5000 0.0240(7) 0.4238(8)
Bi3 Bi 0.5000 0.7500 0.3750
O5 O 0.5000 0.9534(5) 0.3229(7)
O9 O 0.5000 0.8702(5) 0.5893(6)
C3 C 0.5000 0.9760(7) 0.5762(8)
Bi2_2 Bi 1.0000 0.2500 0.8750
Bi3_2 Bi -0.0000 0.7500 0.1250
O4_2 O 0.2966(5) 0.7500 0.4271(7)
O5_2 O 0.2034(5) 0.7500 0.0729(7)
O6_2 O 0.5000 0.5466(5) 0.3229(7)
O7_2 O 0.7034(5) 0.7500 0.4271(7)
O9_2 O 0.1202(5) 0.7500 0.3393(6)
O10_2 O 0.3798(5) 0.7500 0.1607(6)
O11_2 O 0.6202(5) 0.7500 0.1607(6)
O12_2 O 0.5000 0.6298(5) 0.5893(6)
C3_2 C 0.2260(7) 0.7500 0.3262(8)
C4_2 C 0.2740(7) 0.7500 0.1738(8)
Bi3_3 Bi 1.0000 0.7500 0.1250
O8_2 O 0.0000 0.1298(5) 0.0893(6)
O12_3 O 0.0000 0.3702(5) 0.0893(6)
C2_2 C 0.0000 0.0240(7) 0.0762(8)
O1_2 O 0.0000 0.0466(5) 0.8229(7)
O6_3 O 0.0000 0.4534(5) 0.8229(7)
O3_2 O 0.0000 0.9534(5) 0.1771(7)
O2_2 O 0.0000 0.8702(5) 0.9107(6)
C1_2 C 0.0000 0.9760(7) 0.9238(8)
O8_3 O 1.0000 0.1298(5) 0.0893(6)
O12_4 O 1.0000 0.3702(5) 0.0893(6)
C2_3 C 1.0000 0.0240(7) 0.0762(8)
O1_3 O 1.0000 0.0466(5) 0.8229(7)
O6_4 O 1.0000 0.4534(5) 0.8229(7)
O7_3 O 0.7966(5) 0.2500 0.9271(7)
O11_3 O 0.8798(5) 0.2500 0.6607(6)
O3_3 O 1.0000 0.9534(5) 0.1771(7)
O2_3 O 1.0000 0.8702(5) 0.9107(6)
C1_3 C 1.0000 0.9760(7) 0.9238(8)
O4_3 O -0.0000 0.5466(5) 0.1771(7)
C3_3 C -0.0000 0.4760(7) 0.0762(8)
O10_3 O -0.0000 0.6298(5) 0.9107(6)
C4_3 C -0.0000 0.5240(7) 0.9238(8)
O1_4 O 0.7966(5) 0.7500 0.0729(7)
C1_4 C 0.7260(7) 0.7500 0.1738(8)
O4_4 O 1.0000 0.5466(5) 0.1771(7)
O8_4 O 0.8798(5) 0.7500 0.3393(6)
C2_4 C 0.7740(7) 0.7500 0.3262(8)
C3_4 C 1.0000 0.4760(7) 0.0762(8)
O10_4 O 1.0000 0.6298(5) 0.9107(6)
C4_4 C 1.0000 0.5240(7) 0.9238(8)
C3_5 C 0.7260(7) 0.2500 0.8262(8)
C4_5 C 0.7740(7) 0.2500 0.6738(8)
C1_5 C 0.5000 0.4760(7) 0.4238(8)
C2_5 C 0.5000 0.5240(7) 0.5762(8)
N1 N -0.0000 0.2500 0.3750
H1 H 0.0596(4) 0.2500 0.427(2)
H2 H -0.0000 0.3096(4) 0.323(2)
H4 H -0.0000 0.1904(4) 0.323(2)
N1_2 N 1.0000 0.2500 0.3750
H2_2 H 1.0000 0.3096(4) 0.323(2)
H3 H 0.9404(4) 0.2500 0.427(2)
H4_2 H 1.0000 0.1904(4) 0.323(2)
N1_3 N 0.5000 0.7500 0.8750
H1_2 H 0.5000 0.8096(4) 0.823(2)
H2_3 H 0.5596(4) 0.7500 0.927(2)
H3_2 H 0.5000 0.6904(4) 0.823(2)
H4_3 H 0.4404(4) 0.7500 0.927(2)
N1_4 N 0.5000 0.2500 0.1250
H1_3 H 0.5000 0.1904(4) 0.177(2)
H2_4 H 0.5596(4) 0.2500 0.073(2)
H3_3 H 0.5000 0.3096(4) 0.177(2)
H4_4 H 0.4404(4) 0.2500 0.073(2)
N1_5 N 0.0000 0.7500 0.6250
H1_4 H 0.0000 0.8096(4) 0.677(2)
H3_4 H 0.0000 0.6904(4) 0.677(2)
H4_5 H 0.0596(4) 0.7500 0.573(2)
N1_6 N 1.0000 0.7500 0.6250
H1_5 H 1.0000 0.8096(4) 0.677(2)
H2_5 H 0.9404(4) 0.7500 0.573(2)
H3_5 H 1.0000 0.6904(4) 0.677(2)
loop_
_geom_bond_atom_site_label_1
_geom_bond_atom_site_label_2
_geom_bond_site_symmetry_1
_geom_bond_site_symmetry_2
Bi1 O1 1_555 1_555
O1 C1 1_555 1_555
O2 C1 1_555 1_555
C1 C2 1_555 1_555
Bi2 O2 1_555 1_555
O3 Bi2 1_555 1_555
O4 Bi1 1_555 1_555
O6 Bi1 1_555 1_555
O7 Bi1 1_555 1_555
O8 Bi1 1_555 1_555
O10 Bi1 1_555 1_555
O11 Bi1 1_555 1_555
O12 Bi1 1_555 1_555
C2 O3 1_555 1_555
C4 O10 1_555 1_555
O8 C2 1_555 1_555
Bi3 O5 1_555 1_555
O9 Bi3 1_555 1_555
O9 C3 1_555 1_555
Bi3_2 O5_2 1_555 1_555
O4_2 Bi3 1_555 1_555
O5_2 C4_2 1_555 1_555
O6_2 Bi3 1_555 1_555
O7_2 Bi3 1_555 1_555
O9_2 Bi3_2 1_555 1_555
O10_2 Bi3 1_555 1_555
O11_2 Bi3 1_555 1_555
O12_2 Bi3 1_555 1_555
C3_2 O4_2 1_555 1_555
C4_2 O10_2 1_555 1_555
O9_2 C3_2 1_555 1_555
C3_2 C4_2 1_555 1_555
O8_2 C2_2 1_555 1_555
Bi2 O1_2 1_555 1_555
O6_3 Bi2 1_555 1_555
O3_2 Bi3_2 1_555 1_555
O2_2 C1_2 1_555 1_555
O8_3 C2_3 1_555 1_555
Bi2_2 O1_3 1_555 1_555
O6_4 Bi2_2 1_555 1_555
O7_3 Bi2_2 1_555 1_555
O11_3 Bi2_2 1_555 1_555
O3_3 Bi3_3 1_555 1_555
O2_3 C1_3 1_555 1_555
O4_3 Bi3_2 1_555 1_555
C3_3 O4_3 1_555 1_555
O12_3 C3_3 1_555 1_555
O6_3 C4_3 1_555 1_555
C4_3 O10_3 1_555 1_555
Bi3_3 O1_4 1_555 1_555
O1_4 C1_4 1_555 1_555
O11_2 C1_4 1_555 1_555
C1_4 C2_4 1_555 1_555
O4_4 Bi3_3 1_555 1_555
O8_4 Bi3_3 1_555 1_555
C2_4 O7_2 1_555 1_555
C3_4 O4_4 1_555 1_555
O8_4 C2_4 1_555 1_555
O12_4 C3_4 1_555 1_555
O6_4 C4_4 1_555 1_555
C4_4 O10_4 1_555 1_555
O6 C4_5 1_555 1_555
C3_5 O7_3 1_555 1_555
C4_5 O11_3 1_555 1_555
O12 C3_5 1_555 1_555
C3_5 C4_5 1_555 1_555
O6_2 C1_5 1_555 1_555
O11 C1_5 1_555 1_555
C1_5 C2_5 1_555 1_555
C2_5 O7 1_555 1_555
O12_2 C2_5 1_555 1_555
N1 H1 1_555 1_555
H2 N1 1_555 1_555
H4 N1 1_555 1_555
H2_2 N1_2 1_555 1_555
H3 N1_2 1_555 1_555
H4_2 N1_2 1_555 1_555
N1_3 H1_2 1_555 1_555
H2_3 N1_3 1_555 1_555
H3_2 N1_3 1_555 1_555
H4_3 N1_3 1_555 1_555
N1_4 H1_3 1_555 1_555
H2_4 N1_4 1_555 1_555
H3_3 N1_4 1_555 1_555
H4_4 N1_4 1_555 1_555
N1_5 H1_4 1_555 1_555
H3_4 N1_5 1_555 1_555
H4_5 N1_5 1_555 1_555
N1_6 H1_5 1_555 1_555
H2_5 N1_6 1_555 1_555
H3_5 N1_6 1_555 1_555

#END
