
###############################################################################
#
# This file contains modified crystal structure data generated from the
# MOF subset of the Cambridge Structural Database (CSD) v543 
# hosted by the Cambridge Crystallographic Data Centre (CCDC).
#
# This work is licensed under the Creative Commons
# Attribution-NonCommercial-ShareAlike 4.0 International License.
# To view a copy of this license, visit
# http://creativecommons.org/licenses/by-nc-sa/4.0/
# or send a letter to
# Creative Commons, PO Box 1866, Mountain View, CA 94042, USA.
#
# CIF created using the CSD Python API on 29 September 2022
# The structure has been converted into the P1 space group
# The structure has a 3D framework
# The original CSD entry IROROY is in the monoclinic crystal system
# The framework has been calculated to contain at least 10.0% void space
# The void calculation uses a probe of radius 1.32A, grid spacing 0.4
#
###############################################################################

data_IROROY
_chemical_formula_moiety         '(C96 H72 Cd8 N16 O40)n'
_symmetry_cell_setting           triclinic
_symmetry_space_group_name_H-M   'P 1'
_symmetry_Int_Tables_number      1
_space_group_name_Hall           'P 1'
loop_
_symmetry_equiv_pos_site_id
_symmetry_equiv_pos_as_xyz
1 x,y,z
_cell_length_a                   7.6297(2)
_cell_length_b                   26.8079(5)
_cell_length_c                   15.0922(3)
_cell_angle_alpha                90
_cell_angle_beta                 90.8380(10)
_cell_angle_gamma                90
_cell_volume                     3086.57
loop_
_atom_site_label
_atom_site_type_symbol
_atom_site_fract_x
_atom_site_fract_y
_atom_site_fract_z
C1 C 0.0127(5) 0.09409(15) 0.5273(3)
C7 C 0.0881(5) 0.12841(16) 0.3391(3)
C8 C 0.0568(5) 0.19894(15) 0.7210(3)
H4 H 0.1715 0.2107 0.7210
C15 C 0.1489(8) 0.07596(18) 0.8697(3)
H7 H 0.1899 0.1086 0.8669
C16 C 0.0895(7) 0.05893(18) 0.9496(3)
H8 H 0.0886 0.0799 0.9987
C17 C 0.0305(5) 0.00989(17) 0.9565(3)
C19 C 0.0958(8) 0.00199(19) 0.8025(3)
C20 C 0.4338(7) 0.05095(17) 0.1783(3)
H11 H 0.4091 0.0440 0.2372
C21 C 0.4525(7) 0.01151(17) 0.1203(3)
C22 C 0.4929(5) 0.02064(15) 0.0323(3)
C23 C 0.5162(7) 0.07010(18) 0.0083(3)
C24 C 0.4931(7) 0.10726(17) 0.0706(3)
H14 H 0.5091 0.1402 0.0532
N2 N 0.0297(4) 0.14996(12) 0.7198(2)
N3 N 0.1514(5) 0.04888(13) 0.7968(2)
N4 N 0.4493(5) 0.09846(13) 0.1540(3)
O2 O 0.1507(4) 0.11913(13) 0.5255(2)
O3 O 0.3705(4) 0.02352(13) 0.6020(2)
H15 H 0.4860 0.0270 0.6017
H16 H 0.3349 0.0206 0.5459
O4 O 0.1749(4) 0.09084(12) 0.3241(2)
O5 O 0.2206(5) 0.19375(15) 0.1235(3)
H17 H 0.1588 0.1695 0.0990
H18 H 0.2901 0.2060 0.0828
O6 O 0.1376(4) 0.17181(13) 0.3216(3)
Cd1 Cd 0.24169(3) 0.090308(10) 0.670636(17)
Cd2 Cd 0.38320(3) 0.164737(10) 0.244873(19)
N9 N 0.5977(4) 0.13547(13) 0.3460(2)
O22 O 0.6202(4) 0.20825(11) 0.1710(2)
O24 O 0.4838(4) 0.24894(12) 0.2746(3)
O25 O 0.5157(5) 0.10133(14) 0.7545(3)
O27 O 0.4366(4) 0.15744(13) 0.6584(2)
C36 C 0.1308(5) 0.89355(14) 0.5394(3)
C37 C 0.0944(5) 0.87650(14) 0.6235(3)
C38 C 0.2340(5) 0.86335(16) 0.6783(3)
H27 H 0.2094 0.8530 0.7356
C39 C 0.4360(5) 0.88048(16) 0.5716(3)
H28 H 0.5517 0.8814 0.5530
C40 C 0.3052(5) 0.89545(16) 0.5137(3)
H29 H 0.3333 0.9068 0.4574
C43 C 0.0787(5) 0.76706(15) 0.2779(3)
H31 H 0.0546 0.7331 0.2757
C44 C 0.2510(5) 0.78356(15) 0.2800(3)
C45 C 0.2804(5) 0.83493(14) 0.2782(3)
C46 C 0.1358(5) 0.86631(15) 0.2773(3)
H32 H 0.1551 0.9005 0.2745
C47 C 0.4565(5) 0.85977(15) 0.2874(3)
C48 C 0.3949(5) 0.74501(15) 0.2790(3)
N7 N 0.4023(4) 0.86453(13) 0.6540(2)
O11 O 0.0158(4) 0.93916(12) 0.41581(19)
O17 O 0.3798(4) 0.70825(11) 0.3290(2)
O18 O 0.5162(4) 0.74894(12) 0.2254(3)
O19 O 0.4843(5) 0.89867(14) 0.2455(3)
O20 O 0.5634(4) 0.84256(13) 0.3416(2)
Cd6 Cd 0.75831(3) 0.909692(10) 0.329364(17)
Cd8 Cd 0.61680(3) 0.664737(10) 0.255127(19)
Cd10 Cd 0.61680(3) 0.835263(10) 0.755127(19)
C30 C 0.5662(7) 0.94905(17) 0.8217(3)
H23 H 0.5909 0.9560 0.7628
C31 C 0.5475(7) 0.98849(17) 0.8797(3)
C32 C 0.5071(5) 0.97936(15) 0.9677(3)
C33 C 0.4838(7) 0.92990(18) 0.9917(3)
C34 C 0.5069(7) 0.89274(17) 0.9294(3)
H26 H 0.4909 0.8598 0.9468
N6 N 0.5507(5) 0.90154(13) 0.8460(3)
C2 C 0.8692(5) 0.10645(14) 0.4606(3)
C3 C 0.9056(5) 0.12350(14) 0.3765(3)
C4 C 0.7660(5) 0.13665(16) 0.3217(3)
H1 H 0.7906 0.1470 0.2644
C5 C 0.5640(5) 0.11952(16) 0.4284(3)
H2 H 0.4483 0.1186 0.4470
C6 C 0.6948(5) 0.10455(16) 0.4863(3)
H3 H 0.6667 0.0932 0.5426
C9 C 0.9213(5) 0.23294(15) 0.7221(3)
H5 H 0.9454 0.2669 0.7243
C10 C 0.7490(5) 0.21644(15) 0.7200(3)
C11 C 0.7196(5) 0.16507(14) 0.7218(3)
C12 C 0.8642(5) 0.13369(15) 0.7227(3)
H6 H 0.8449 0.0995 0.7255
C13 C 0.5435(5) 0.14023(15) 0.7126(3)
C14 C 0.6051(5) 0.25499(15) 0.7210(3)
O1 O 0.9842(4) 0.06084(12) 0.58419(19)
O7 O 0.6202(4) 0.29175(11) 0.6710(2)
O8 O 0.4838(4) 0.25106(12) 0.7746(3)
Cd11 Cd 0.38320(3) 0.335263(10) 0.744873(19)
C25 C 0.8511(8) 0.92404(18) 0.1303(3)
H19 H 0.8101 0.8914 0.1331
C26 C 0.9105(7) 0.94107(18) 0.0504(3)
H20 H 0.9114 0.9201 0.0013
C27 C 0.9695(5) 0.99011(17) 0.0435(3)
C29 C 0.9042(8) 0.99801(19) 0.1975(3)
N5 N 0.8486(5) 0.95112(13) 0.2032(2)
C35 C 0.9873(5) 0.90591(15) 0.4727(3)
C41 C 0.9119(5) 0.87159(16) 0.6609(3)
C42 C 0.9432(5) 0.80106(15) 0.2790(3)
H30 H 0.8285 0.7893 0.2790
N8 N 0.9703(4) 0.85004(12) 0.2802(2)
O12 O 0.8493(4) 0.88087(13) 0.4745(2)
O13 O 0.6295(4) 0.97648(13) 0.3980(2)
H33 H 0.5140 0.9730 0.3983
H34 H 0.6651 0.9794 0.4541
O14 O 0.8251(4) 0.90916(12) 0.6759(2)
O15 O 0.7794(5) 0.80625(15) 0.8765(3)
H35 H 0.8412 0.8305 0.9010
H36 H 0.7099 0.7940 0.9172
O16 O 0.8624(4) 0.82819(13) 0.6784(3)
O21 O 0.3798(4) 0.79175(11) 0.8290(2)
O23 O 0.5162(4) 0.75106(12) 0.7254(3)
C2_2 C 0.1308(5) 0.60645(14) 0.0394(3)
C3_2 C 0.0944(5) 0.62350(14) 0.1235(3)
C4_2 C 0.2340(5) 0.63665(16) 0.1783(3)
H1_2 H 0.2094 0.6470 0.2356
C5_2 C 0.4360(5) 0.61952(16) 0.0716(3)
H2_2 H 0.5517 0.6186 0.0530
C6_2 C 0.3052(5) 0.60455(16) 0.0137(3)
N1 N 0.4023(4) 0.63547(13) 0.1540(2)
H3_2 H 0.3333 0.5932 0.9574
C9_2 C 0.0787(5) 0.73294(15) 0.7779(3)
H5_2 H 0.0546 0.7669 0.7757
C10_2 C 0.2510(5) 0.71644(15) 0.7800(3)
C11_2 C 0.2804(5) 0.66507(14) 0.7782(3)
C12_2 C 0.1358(5) 0.63369(15) 0.7773(3)
H6_2 H 0.1551 0.5995 0.7745
C13_2 C 0.4565(5) 0.64023(15) 0.7874(3)
C14_2 C 0.3949(5) 0.75499(15) 0.7790(3)
O1_2 O 0.0158(4) 0.56084(12) 0.91581(19)
O9 O 0.4843(5) 0.60133(14) 0.7455(3)
O10 O 0.5634(4) 0.65744(13) 0.8416(2)
C25_2 C 0.1489(8) 0.42404(18) 0.3697(3)
H19_2 H 0.1899 0.3914 0.3669
C26_2 C 0.0895(7) 0.44107(18) 0.4496(3)
H20_2 H 0.0886 0.4201 0.4987
C27_2 C 0.0305(5) 0.49011(17) 0.4565(3)
C28 C 0.0369(8) 0.5188(2) 0.3808(3)
H21 H 0.0018 0.5520 0.3822
C29_2 C 0.0958(8) 0.49801(19) 0.3025(3)
H22 H 0.0964 0.5177 0.2518
N5_2 N 0.1514(5) 0.45112(13) 0.2968(2)
C35_2 C 0.0127(5) 0.40591(15) 0.0273(3)
C42_2 C 0.0568(5) 0.30106(15) 0.2210(3)
H30_2 H 0.1715 0.2893 0.2210
N8_2 N 0.0297(4) 0.35004(12) 0.2198(2)
O12_2 O 0.1507(4) 0.38087(13) 0.0255(2)
O13_2 O 0.3705(4) 0.47648(13) 0.1020(2)
H33_2 H 0.4860 0.4730 0.1017
H34_2 H 0.3349 0.4794 0.0459
Cd3 Cd 0.24169(3) 0.409692(10) 0.170636(17)
O26 O 0.5157(5) 0.39867(14) 0.2545(3)
O28 O 0.4366(4) 0.34256(13) 0.1584(2)
Cd5 Cd 0.75831(3) 0.590308(10) 0.829364(17)
C41_2 C 0.0881(5) 0.37159(16) 0.8391(3)
O14_2 O 0.1749(4) 0.40916(12) 0.8241(2)
O15_2 O 0.2206(5) 0.30625(15) 0.6235(3)
H35_2 H 0.1588 0.3305 0.5990
H36_2 H 0.2901 0.2940 0.5828
O16_2 O 0.1376(4) 0.32819(13) 0.8216(3)
N10 N 0.5977(4) 0.36453(13) 0.8460(2)
N11 N 0.4493(5) 0.40154(13) 0.6540(3)
C7_2 C 0.9119(5) 0.62841(16) 0.1609(3)
C20_2 C 0.5662(7) 0.55095(17) 0.3217(3)
H11_2 H 0.5909 0.5440 0.2628
C21_2 C 0.5475(7) 0.51151(17) 0.3797(3)
H12 H 0.5619 0.4789 0.3599
C22_2 C 0.5071(5) 0.52064(15) 0.4677(3)
C23_2 C 0.4838(7) 0.57010(18) 0.4917(3)
H13 H 0.4528 0.5782 0.5493
C24_2 C 0.5069(7) 0.60726(17) 0.4294(3)
H14_2 H 0.4909 0.6402 0.4468
N4_2 N 0.5507(5) 0.59846(13) 0.3460(3)
O4_2 O 0.8251(4) 0.59084(12) 0.1759(2)
O5_2 O 0.7794(5) 0.69375(15) 0.3765(3)
H17_2 H 0.8412 0.6695 0.4010
H18_2 H 0.7099 0.7060 0.4172
O6_2 O 0.8624(4) 0.67181(13) 0.1784(3)
C30_2 C 0.4338(7) 0.44905(17) 0.6783(3)
H23_2 H 0.4091 0.4560 0.7372
C31_2 C 0.4525(7) 0.48849(17) 0.6203(3)
H24 H 0.4381 0.5211 0.6401
C32_2 C 0.4929(5) 0.47936(15) 0.5323(3)
C33_2 C 0.5162(7) 0.42990(18) 0.5083(3)
H25 H 0.5472 0.4218 0.4507
C34_2 C 0.4931(7) 0.39274(17) 0.5706(3)
H26_2 H 0.5091 0.3598 0.5532
C1_2 C 0.9873(5) 0.59409(15) 0.9727(3)
C8_2 C 0.9432(5) 0.69894(15) 0.7790(3)
H4_2 H 0.8285 0.7107 0.7790
C15_2 C 0.8511(8) 0.57596(18) 0.6303(3)
H7_2 H 0.8101 0.6086 0.6331
C16_2 C 0.9105(7) 0.55893(18) 0.5504(3)
H8_2 H 0.9114 0.5799 0.5013
C17_2 C 0.9695(5) 0.50989(17) 0.5435(3)
C18 C 0.9631(8) 0.4812(2) 0.6192(3)
H9 H 0.9982 0.4480 0.6178
C19_2 C 0.9042(8) 0.50199(19) 0.6975(3)
H10 H 0.9036 0.4823 0.7482
N2_2 N 0.9703(4) 0.64996(12) 0.7802(2)
N3_2 N 0.8486(5) 0.54888(13) 0.7032(2)
O2_2 O 0.8493(4) 0.61913(13) 0.9745(2)
O3_2 O 0.6295(4) 0.52352(13) 0.8980(2)
H15_2 H 0.5140 0.5270 0.8983
H16_2 H 0.6651 0.5206 0.9541
H29_2 H 0.6667 0.4068 0.0426
C43_2 C 0.9213(5) 0.26706(15) 0.2221(3)
H31_2 H 0.9454 0.2331 0.2243
C44_2 C 0.7490(5) 0.28356(15) 0.2200(3)
C45_2 C 0.7196(5) 0.33493(14) 0.2218(3)
C46_2 C 0.8642(5) 0.36631(15) 0.2227(3)
H32_2 H 0.8449 0.4005 0.2255
C47_2 C 0.5435(5) 0.35977(15) 0.2126(3)
C48_2 C 0.6051(5) 0.24501(15) 0.2210(3)
O11_2 O 0.9842(4) 0.43916(12) 0.08419(19)
C36_2 C 0.8692(5) 0.39355(14) 0.9606(3)
C37_2 C 0.9056(5) 0.37650(14) 0.8765(3)
C38_2 C 0.7660(5) 0.36335(16) 0.8217(3)
H27_2 H 0.7906 0.3530 0.7644
C39_2 C 0.5640(5) 0.38048(16) 0.9284(3)
H28_2 H 0.4483 0.3814 0.9470
C40_2 C 0.6948(5) 0.39545(16) 0.9863(3)
H13_2 H 0.5472 0.0782 0.9507
H24_2 H 0.5619 0.0211 0.8599
C28_2 C 0.9631(8) 0.0188(2) 0.1192(3)
H21_2 H 0.9982 0.0520 0.1178
H22_2 H 0.9036 0.0177 0.2482
C18_2 C 0.0369(8) 0.9812(2) 0.8808(3)
H9_2 H 0.0018 0.9480 0.8822
H10_2 H 0.0964 0.9823 0.7518
H12_2 H 0.4381 0.9789 0.1401
H25_2 H 0.4528 0.9218 0.0493
loop_
_geom_bond_atom_site_label_1
_geom_bond_atom_site_label_2
_geom_bond_site_symmetry_1
_geom_bond_site_symmetry_2
C8 H4 1_555 1_555
C15 H7 1_555 1_555
C16 C15 1_555 1_555
H8 C16 1_555 1_555
C17 C16 1_555 1_555
C20 H11 1_555 1_555
C21 C20 1_555 1_555
C22 C21 1_555 1_555
C23 C22 1_555 1_555
C24 C23 1_555 1_555
H14 C24 1_555 1_555
N2 C8 1_555 1_555
N3 C15 1_555 1_555
N4 C20 1_555 1_555
O2 C1 1_555 1_555
O3 H15 1_555 1_555
H16 O3 1_555 1_555
O4 C7 1_555 1_555
O5 H17 1_555 1_555
H18 O5 1_555 1_555
O6 C7 1_555 1_555
Cd1 N2 1_555 1_555
Cd2 N4 1_555 1_555
N9 Cd2 1_555 1_555
O22 Cd2 1_555 1_555
O24 Cd2 1_555 1_555
O25 Cd1 1_555 1_555
O27 Cd1 1_555 1_555
C19 N3 1_555 1_555
C24 N4 1_555 1_555
N3 Cd1 1_555 1_555
O2 Cd1 1_555 1_555
O3 Cd1 1_555 1_555
O4 Cd2 1_555 1_555
O5 Cd2 1_555 1_555
O6 Cd2 1_555 1_555
C36 C37 1_555 1_555
C37 C38 1_555 1_555
C38 H27 1_555 1_555
C39 H28 1_555 1_555
C40 C36 1_555 1_555
H29 C40 1_555 1_555
H31 C43 1_555 1_555
C44 C43 1_555 1_555
C45 C44 1_555 1_555
C46 C45 1_555 1_555
H32 C46 1_555 1_555
C47 C45 1_555 1_555
C48 C44 1_555 1_555
N7 C38 1_555 1_555
O17 C48 1_555 1_555
O18 C48 1_555 1_555
O19 C47 1_555 1_555
O20 C47 1_555 1_555
Cd6 O19 1_555 1_555
Cd8 O17 1_555 1_555
Cd10 N7 1_555 1_555
C39 C40 1_555 1_555
C39 N7 1_555 1_555
O18 Cd8 1_555 1_555
O20 Cd6 1_555 1_555
C30 H23 1_555 1_555
C31 C30 1_555 1_555
C33 C32 1_555 1_555
C34 C33 1_555 1_555
H26 C34 1_555 1_555
N6 C30 1_555 1_555
Cd10 N6 1_555 1_555
C31 C32 1_555 1_555
C34 N6 1_555 1_555
C2 C3 1_555 1_555
C3 C4 1_555 1_555
C4 H1 1_555 1_555
C5 H2 1_555 1_555
C6 C2 1_555 1_555
H3 C6 1_555 1_555
H5 C9 1_555 1_555
C10 C9 1_555 1_555
C11 C10 1_555 1_555
C12 C11 1_555 1_555
H6 C12 1_555 1_555
C13 C11 1_555 1_555
C14 C10 1_555 1_555
N9 C4 1_555 1_555
O7 C14 1_555 1_555
O8 C14 1_555 1_555
O25 C13 1_555 1_555
O27 C13 1_555 1_555
Cd11 O7 1_555 1_555
C5 C6 1_555 1_555
C5 N9 1_555 1_555
O8 Cd11 1_555 1_555
C25 H19 1_555 1_555
C26 C25 1_555 1_555
H20 C26 1_555 1_555
N5 C25 1_555 1_555
C42 H30 1_555 1_555
N8 C42 1_555 1_555
O12 C35 1_555 1_555
O13 H33 1_555 1_555
H34 O13 1_555 1_555
O14 C41 1_555 1_555
O15 H35 1_555 1_555
H36 O15 1_555 1_555
O16 C41 1_555 1_555
Cd6 N5 1_555 1_555
Cd10 O14 1_555 1_555
O21 Cd10 1_555 1_555
O23 Cd10 1_555 1_555
C26 C27 1_555 1_555
C29 N5 1_555 1_555
N8 Cd6 1_555 1_555
O12 Cd6 1_555 1_555
O13 Cd6 1_555 1_555
O15 Cd10 1_555 1_555
O16 Cd10 1_555 1_555
C2_2 C3_2 1_555 1_555
C3_2 C4_2 1_555 1_555
C4_2 H1_2 1_555 1_555
C5_2 H2_2 1_555 1_555
C6_2 C2_2 1_555 1_555
N1 C4_2 1_555 1_555
Cd8 N1 1_555 1_555
C5_2 C6_2 1_555 1_555
C5_2 N1 1_555 1_555
H5_2 C9_2 1_555 1_555
C10_2 C9_2 1_555 1_555
C11_2 C10_2 1_555 1_555
C12_2 C11_2 1_555 1_555
H6_2 C12_2 1_555 1_555
C13_2 C11_2 1_555 1_555
C14_2 C10_2 1_555 1_555
O21 C14_2 1_555 1_555
O23 C14_2 1_555 1_555
O9 C13_2 1_555 1_555
O10 C13_2 1_555 1_555
C25_2 H19_2 1_555 1_555
C26_2 C25_2 1_555 1_555
H20_2 C26_2 1_555 1_555
C28 C27_2 1_555 1_555
H21 C28 1_555 1_555
C29_2 C28 1_555 1_555
H22 C29_2 1_555 1_555
N5_2 C25_2 1_555 1_555
C42_2 H30_2 1_555 1_555
N8_2 C42_2 1_555 1_555
O12_2 C35_2 1_555 1_555
O13_2 H33_2 1_555 1_555
H34_2 O13_2 1_555 1_555
Cd3 N5_2 1_555 1_555
O26 Cd3 1_555 1_555
O28 Cd3 1_555 1_555
Cd5 O9 1_555 1_555
O10 Cd5 1_555 1_555
C26_2 C27_2 1_555 1_555
C29_2 N5_2 1_555 1_555
N8_2 Cd3 1_555 1_555
O12_2 Cd3 1_555 1_555
O13_2 Cd3 1_555 1_555
O14_2 C41_2 1_555 1_555
O15_2 H35_2 1_555 1_555
H36_2 O15_2 1_555 1_555
O16_2 C41_2 1_555 1_555
Cd11 O14_2 1_555 1_555
N10 Cd11 1_555 1_555
N11 Cd11 1_555 1_555
O15_2 Cd11 1_555 1_555
O16_2 Cd11 1_555 1_555
C20_2 H11_2 1_555 1_555
C21_2 C20_2 1_555 1_555
H12 C21_2 1_555 1_555
C22_2 C21_2 1_555 1_555
C23_2 C22_2 1_555 1_555
H13 C23_2 1_555 1_555
C24_2 C23_2 1_555 1_555
H14_2 C24_2 1_555 1_555
N4_2 C20_2 1_555 1_555
O4_2 C7_2 1_555 1_555
O5_2 H17_2 1_555 1_555
H18_2 O5_2 1_555 1_555
O6_2 C7_2 1_555 1_555
Cd8 N4_2 1_555 1_555
C30_2 H23_2 1_555 1_555
C31_2 C30_2 1_555 1_555
H24 C31_2 1_555 1_555
C32_2 C22_2 1_555 1_555
C33_2 C32_2 1_555 1_555
H25 C33_2 1_555 1_555
C34_2 C33_2 1_555 1_555
H26_2 C34_2 1_555 1_555
N11 C30_2 1_555 1_555
C24_2 N4_2 1_555 1_555
O4_2 Cd8 1_555 1_555
O5_2 Cd8 1_555 1_555
O6_2 Cd8 1_555 1_555
C31_2 C32_2 1_555 1_555
C34_2 N11 1_555 1_555
C8_2 H4_2 1_555 1_555
C15_2 H7_2 1_555 1_555
C16_2 C15_2 1_555 1_555
H8_2 C16_2 1_555 1_555
C17_2 C16_2 1_555 1_555
C18 C17_2 1_555 1_555
H9 C18 1_555 1_555
C19_2 C18 1_555 1_555
H10 C19_2 1_555 1_555
N2_2 C8_2 1_555 1_555
N3_2 C15_2 1_555 1_555
O2_2 C1_2 1_555 1_555
O3_2 H15_2 1_555 1_555
H16_2 O3_2 1_555 1_555
Cd5 N2_2 1_555 1_555
H31_2 C43_2 1_555 1_555
C44_2 C43_2 1_555 1_555
C45_2 C44_2 1_555 1_555
C46_2 C45_2 1_555 1_555
H32_2 C46_2 1_555 1_555
C47_2 C45_2 1_555 1_555
C48_2 C44_2 1_555 1_555
O22 C48_2 1_555 1_555
O24 C48_2 1_555 1_555
O26 C47_2 1_555 1_555
O28 C47_2 1_555 1_555
C19_2 N3_2 1_555 1_555
N3_2 Cd5 1_555 1_555
O2_2 Cd5 1_555 1_555
O3_2 Cd5 1_555 1_555
C36_2 C37_2 1_555 1_555
C37_2 C38_2 1_555 1_555
C38_2 H27_2 1_555 1_555
C39_2 H28_2 1_555 1_555
C40_2 C36_2 1_555 1_555
N10 C38_2 1_555 1_555
C39_2 C40_2 1_555 1_555
C39_2 N10 1_555 1_555
H21_2 C28_2 1_555 1_555
H9_2 C18_2 1_555 1_555

#END
