
###############################################################################
#
# This file contains modified crystal structure data generated from the
# MOF subset of the Cambridge Structural Database (CSD) v543 
# hosted by the Cambridge Crystallographic Data Centre (CCDC).
#
# This work is licensed under the Creative Commons
# Attribution-NonCommercial-ShareAlike 4.0 International License.
# To view a copy of this license, visit
# http://creativecommons.org/licenses/by-nc-sa/4.0/
# or send a letter to
# Creative Commons, PO Box 1866, Mountain View, CA 94042, USA.
#
# CIF created using the CSD Python API on 29 September 2022
# The structure has been converted into the P1 space group
# The structure has a 3D framework
# The original CSD entry IRUVUP is in the orthorhombic crystal system
# The original CSD entry IRUVUP is in a Sohncke space group
# The framework has been calculated to contain at least 10.0% void space
# The void calculation uses a probe of radius 1.32A, grid spacing 0.4
# The framework is charged, counterions have been retained in the structure
#
###############################################################################

data_IRUVUP
_chemical_formula_moiety         '(C76 H76 N12 O24 Zn3 1-)n'
_symmetry_cell_setting           triclinic
_symmetry_space_group_name_H-M   'P 1'
_symmetry_Int_Tables_number      1
_space_group_name_Hall           'P 1'
loop_
_symmetry_equiv_pos_site_id
_symmetry_equiv_pos_as_xyz
1 x,y,z
_cell_length_a                   15.000
_cell_length_b                   15.360
_cell_length_c                   9.980
_cell_angle_alpha                90
_cell_angle_beta                 90
_cell_angle_gamma                90
_cell_volume                     2299.39
loop_
_atom_site_label
_atom_site_type_symbol
_atom_site_fract_x
_atom_site_fract_y
_atom_site_fract_z
N1 N 0.11142(10) 0.69489(10) 0.18470(16)
C1 C 0.29083(11) 0.30725(11) 0.28931(19)
H1 H 0.237917 0.301844 0.241463
Zn1 Zn 0.45917(2) 0.30778(2) 0.50692(2)
O1 O 0.37225(9) 0.40175(8) 0.43391(16)
C2 C 0.30786(10) 0.38725(11) 0.35421(19)
O2 O 0.41969(9) 0.22948(9) 0.36274(16)
C3 C 0.24774(11) 0.46047(11) 0.3206(2)
H2 H 0.199858 0.450769 0.263301
O3 O 0.53642(9) 0.19913(8) 0.57409(15)
H3 H 0.553(2) 0.196(2) 0.653(4)
C4 C 0.26068(11) 0.54050(11) 0.3708(2)
H4 H 0.304291 0.546222 0.436407
C5 C 0.21273(11) 0.61986(11) 0.3322(2)
C6 C 0.23327(12) 0.69911(12) 0.3943(2)
H5 H 0.274629 0.700934 0.463651
C7 C 0.19146(13) 0.77515(12) 0.3517(2)
H6 H 0.203621 0.828067 0.393085
C8 C 0.13151(12) 0.77059(12) 0.2466(2)
H7 H 0.104044 0.821474 0.217502
C9 C 0.15035(12) 0.62117(11) 0.2283(2)
H8 H 0.135051 0.568847 0.187408
C10 C 0.34855(11) 0.23544(11) 0.2923(2)
C11 C 0.32527(12) 0.16076(12) 0.2067(2)
H9 H 0.269433 0.158406 0.166327
C12 C 0.38396(12) 0.09596(11) 0.1863(2)
H10 H 0.440218 0.102189 0.224237
C13 C 0.36709(12) 0.01648(11) 0.1095(2)
H11 H 0.232355 0.024597 0.085660
C18 C 0.54587(12) 0.11540(12) 0.5105(2)
H15 H 0.488264 0.095767 0.478338
H16 H 0.567522 0.073262 0.575211
C19 C 0.61005(17) 0.12135(18) 0.3952(3)
H17 H 0.615330 0.065386 0.353119
H18 H 0.667376 0.139491 0.427597
H19 H 0.588425 0.162977 0.331229
N3 N 0.38858(10) 0.30511(10) 0.68470(16)
Zn2 Zn 0.04083(2) 0.69222(2) 0.00692(2)
N4 N 0.56966(10) 0.38523(9) 0.48338(18)
N2 N 0.43034(10) 0.88523(9) 0.01662(18)
C14 C 0.28191(13) 0.98988(13) 0.0689(3)
C15 C 0.27291(12) 0.91079(14) 0.0032(3)
C17 C 0.43909(11) 0.96204(11) 0.0801(2)
H14 H 0.495884 0.979774 0.105641
C1_2 C 0.20917(11) 0.69275(11) 0.78931(19)
H1_2 H 0.262083 0.698156 0.741463
O1_2 O 0.12775(9) 0.59825(8) 0.93391(16)
C2_2 C 0.19214(10) 0.61275(11) 0.85421(19)
O2_2 O 0.08031(9) 0.77052(9) 0.86274(16)
C3_2 C 0.25226(11) 0.53953(11) 0.8206(2)
H2_2 H 0.300142 0.549231 0.763301
C4_2 C 0.23932(11) 0.45950(11) 0.8708(2)
H4_2 H 0.195709 0.453778 0.936407
C5_2 C 0.28727(11) 0.38014(11) 0.8322(2)
C6_2 C 0.26673(12) 0.30089(12) 0.8943(2)
H5_2 H 0.225371 0.299066 0.963651
C7_2 C 0.30854(13) 0.22485(12) 0.8517(2)
H6_2 H 0.296379 0.171933 0.893085
C8_2 C 0.36849(12) 0.22941(12) 0.7466(2)
H7_2 H 0.395956 0.178526 0.717502
C9_2 C 0.34965(12) 0.37883(11) 0.7283(2)
H8_2 H 0.364949 0.431153 0.687408
C10_2 C 0.15145(11) 0.76456(11) 0.7923(2)
C11_2 C 0.17473(12) 0.83924(12) 0.7067(2)
H9_2 H 0.230567 0.841594 0.666327
C12_2 C 0.11604(12) 0.90404(11) 0.6863(2)
H10_2 H 0.059782 0.897811 0.724237
C13_2 C 0.13291(12) 0.98352(11) 0.6095(2)
H11_2 H 0.267645 0.975403 0.585660
H15_2 H 0.011736 0.904233 0.978338
C1_3 C 0.70917(11) 0.80725(11) 0.21069(19)
H1_3 H 0.762083 0.801844 0.258537
O1_3 O 0.62775(9) 0.90175(8) 0.06609(16)
C2_3 C 0.69214(10) 0.88725(11) 0.14579(19)
O2_3 O 0.58031(9) 0.72948(9) 0.13726(16)
C3_3 C 0.75226(11) 0.96047(11) 0.1794(2)
H2_3 H 0.800142 0.950769 0.236699
C10_3 C 0.65145(11) 0.73544(11) 0.2077(2)
C11_3 C 0.67473(12) 0.66076(12) 0.2933(2)
H9_3 H 0.730567 0.658406 0.333673
C12_3 C 0.61604(12) 0.59596(11) 0.3137(2)
H10_3 H 0.559782 0.602189 0.275763
C13_3 C 0.63291(12) 0.51648(11) 0.3905(2)
C14_2 C 0.71809(13) 0.48988(13) 0.4311(3)
H11_3 H 0.767645 0.524597 0.414340
C15_2 C 0.72709(12) 0.41079(14) 0.4968(3)
H12 H 0.783062 0.391693 0.524081
C16 C 0.65205(13) 0.36022(13) 0.5218(2)
H13 H 0.658836 0.307456 0.566306
C17_2 C 0.56091(11) 0.46204(11) 0.4199(2)
H14_2 H 0.504116 0.479774 0.394359
H15_3 H 0.511736 0.595767 0.021662
C19_2 C 0.38995(17) 0.62135(18) 0.1048(3)
H17_2 H 0.384670 0.565386 0.146881
H18_2 H 0.332624 0.639491 0.072403
H19_2 H 0.411575 0.662977 0.168771
H12_2 H 0.216938 0.891693 0.975919
C16_2 C 0.34795(13) 0.86022(13) 0.9782(2)
H13_2 H 0.341164 0.807456 0.933694
Zn3 Zn 0.54083(2) 0.80778(2) 0.99308(2)
O3_2 O 0.46358(9) 0.69913(8) 0.92591(15)
H3_2 H 0.447(2) 0.696(2) 0.847(4)
C18_2 C 0.45413(12) 0.61540(12) 0.9895(2)
H16_2 H 0.432478 0.573262 0.924789
N3_2 N 0.61142(10) 0.80511(10) 0.81530(16)
C4_3 C 0.76068(11) 0.95950(11) 0.6292(2)
H4_3 H 0.804291 0.953778 0.563593
C5_3 C 0.71273(11) 0.88014(11) 0.6678(2)
C6_3 C 0.73327(12) 0.80089(12) 0.6057(2)
H5_3 H 0.774629 0.799066 0.536349
C7_3 C 0.69146(13) 0.72485(12) 0.6483(2)
H6_3 H 0.703621 0.671933 0.606915
C8_3 C 0.63151(12) 0.72941(12) 0.7534(2)
H7_3 H 0.604044 0.678526 0.782498
C9_3 C 0.65035(12) 0.87883(11) 0.7717(2)
H8_3 H 0.635051 0.931153 0.812592
N2_2 N 0.06966(10) 0.11477(9) 0.51662(18)
C14_3 C 0.21809(13) 0.01012(13) 0.5689(3)
C15_3 C 0.22709(12) 0.08921(14) 0.5032(3)
H12_3 H 0.283062 0.108307 0.475919
C16_3 C 0.15205(13) 0.13978(13) 0.4782(2)
H13_3 H 0.158836 0.192544 0.433694
C17_3 C 0.06091(11) 0.03796(11) 0.5801(2)
H14_3 H 0.004116 0.020226 0.605641
O3_3 O 0.03642(9) 0.30087(8) 0.42591(15)
H3_3 H 0.053(2) 0.304(2) 0.347(4)
C18_3 C 0.04587(12) 0.38460(12) 0.4895(2)
H16_3 H 0.067522 0.426738 0.424789
C19_3 C 0.11005(17) 0.37865(18) 0.6048(3)
H17_3 H 0.115330 0.434614 0.646881
H18_3 H 0.167376 0.360509 0.572403
H19_3 H 0.088425 0.337023 0.668771
Zn3_2 Zn 0.95917(2) 0.19222(2) 0.49308(2)
C19_4 C 0.88995(17) 0.87865(18) 0.8952(3)
H17_4 H 0.884670 0.934614 0.853119
H18_4 H 0.832624 0.860509 0.927597
H19_4 H 0.911575 0.837023 0.831229
N4_2 N 0.93034(10) 0.61477(9) 0.98338(18)
N1_2 N 0.88858(10) 0.19489(10) 0.31530(16)
C4_4 C 0.73932(11) 0.04050(11) 0.1292(2)
H4_4 H 0.695709 0.046222 0.063593
C5_4 C 0.78727(11) 0.11986(11) 0.1678(2)
C6_4 C 0.76673(12) 0.19911(12) 0.1057(2)
H5_4 H 0.725371 0.200934 0.036349
C7_4 C 0.80854(13) 0.27515(12) 0.1483(2)
H6_4 H 0.796379 0.328067 0.106915
C8_4 C 0.86849(12) 0.27059(12) 0.2534(2)
H7_4 H 0.895956 0.321474 0.282498
C9_4 C 0.84965(12) 0.12117(11) 0.2717(2)
H8_4 H 0.864949 0.068847 0.312592
C1_4 C 0.79083(11) 0.19275(11) 0.71069(19)
H1_4 H 0.737917 0.198156 0.758537
O1_4 O 0.87225(9) 0.09825(8) 0.56609(16)
C2_4 C 0.80786(10) 0.11275(11) 0.64579(19)
O2_4 O 0.91969(9) 0.27052(9) 0.63726(16)
C3_4 C 0.74774(11) 0.03953(11) 0.6794(2)
H2_4 H 0.699858 0.049231 0.736699
C10_4 C 0.84855(11) 0.26456(11) 0.7077(2)
C11_4 C 0.82527(12) 0.33924(12) 0.7933(2)
H9_4 H 0.769433 0.341594 0.833673
C12_4 C 0.88396(12) 0.40404(11) 0.8137(2)
H10_4 H 0.940218 0.397811 0.775763
C13_4 C 0.86709(12) 0.48352(11) 0.8905(2)
C14_4 C 0.78191(13) 0.51012(13) 0.9311(3)
H11_4 H 0.732355 0.475403 0.914340
C15_4 C 0.77291(12) 0.58921(14) 0.9968(3)
C17_4 C 0.93909(11) 0.53796(11) 0.9199(2)
H14_4 H 0.995884 0.520226 0.894359
H15_4 H 0.988264 0.404233 0.521662
O3_4 O 0.96358(9) 0.80087(8) 0.07409(15)
H3_4 H 0.947(2) 0.804(2) 0.153(4)
C18_4 C 0.95413(12) 0.88460(12) 0.0105(2)
H16_4 H 0.932478 0.926738 0.075211
H12_4 H 0.716938 0.608307 0.024081
C16_4 C 0.84795(13) 0.63978(13) 0.0218(2)
H13_4 H 0.841164 0.692544 0.066306
O5 O 0.55558(12) 0.14469(12) 0.0246(2)
N5 N 0.55373(11) 0.13843(11) 0.9016(2)
O4 O 0.57907(11) 0.20363(10) 0.83055(17)
O6 O 0.52855(15) 0.07163(11) 0.8424(2)
N5_2 N 0.94627(11) 0.86157(11) 0.4016(2)
O4_2 O 0.92093(11) 0.79637(10) 0.33055(17)
O5_2 O 0.94442(12) 0.85531(12) 0.5246(2)
O6_2 O 0.97145(15) 0.92837(11) 0.3424(2)
N5_3 N 0.44627(11) 0.63843(11) 0.5984(2)
O4_3 O 0.42093(11) 0.70363(10) 0.66945(17)
O5_3 O 0.44442(12) 0.64469(12) 0.4754(2)
O6_3 O 0.47145(15) 0.57163(11) 0.6576(2)
N5_4 N 0.05373(11) 0.36157(11) 0.0984(2)
O4_4 O 0.07907(11) 0.29637(10) 0.16945(17)
O6_4 O 0.02855(15) 0.42837(11) 0.1576(2)
O5_4 O 0.05558(12) 0.35531(12) 0.9754(2)
loop_
_geom_bond_atom_site_label_1
_geom_bond_atom_site_label_2
_geom_bond_site_symmetry_1
_geom_bond_site_symmetry_2
N1 C8 1_555 1_555
C1 H1 1_555 1_555
Zn1 O1 1_555 1_555
O1 C2 1_555 1_555
C2 C1 1_555 1_555
O2 Zn1 1_555 1_555
C3 C2 1_555 1_555
H2 C3 1_555 1_555
O3 Zn1 1_555 1_555
H3 O3 1_555 1_555
C4 C3 1_555 1_555
H4 C4 1_555 1_555
C5 C4 1_555 1_555
C6 C5 1_555 1_555
H5 C6 1_555 1_555
C7 C6 1_555 1_555
H6 C7 1_555 1_555
C8 C7 1_555 1_555
H7 C8 1_555 1_555
C9 N1 1_555 1_555
H8 C9 1_555 1_555
C10 C1 1_555 1_555
C11 C10 1_555 1_555
H9 C11 1_555 1_555
C12 C11 1_555 1_555
H10 C12 1_555 1_555
C13 C12 1_555 1_555
C18 O3 1_555 1_555
H15 C18 1_555 1_555
H16 C18 1_555 1_555
C19 C18 1_555 1_555
H17 C19 1_555 1_555
H18 C19 1_555 1_555
H19 C19 1_555 1_555
N3 Zn1 1_555 1_555
Zn2 N1 1_555 1_555
N4 Zn1 1_555 1_555
O2 C10 1_555 1_555
C5 C9 1_555 1_555
C15 C14 1_555 1_555
C17 N2 1_555 1_555
H14 C17 1_555 1_555
N3 C8_2 1_555 1_555
C1_2 H1_2 1_555 1_555
O1_2 C2_2 1_555 1_555
C2_2 C1_2 1_555 1_555
C3_2 C2_2 1_555 1_555
H2_2 C3_2 1_555 1_555
C4_2 C3_2 1_555 1_555
H4_2 C4_2 1_555 1_555
C5_2 C4_2 1_555 1_555
C6_2 C5_2 1_555 1_555
H5_2 C6_2 1_555 1_555
C7_2 C6_2 1_555 1_555
H6_2 C7_2 1_555 1_555
C8_2 C7_2 1_555 1_555
H7_2 C8_2 1_555 1_555
C9_2 N3 1_555 1_555
H8_2 C9_2 1_555 1_555
C10_2 C1_2 1_555 1_555
C11_2 C10_2 1_555 1_555
H9_2 C11_2 1_555 1_555
C12_2 C11_2 1_555 1_555
H10_2 C12_2 1_555 1_555
C13_2 C12_2 1_555 1_555
O2_2 C10_2 1_555 1_555
C5_2 C9_2 1_555 1_555
C1_3 H1_3 1_555 1_555
O1_3 C2_3 1_555 1_555
N4 C16 1_555 1_555
C2_3 C1_3 1_555 1_555
C3_3 C2_3 1_555 1_555
H2_3 C3_3 1_555 1_555
C10_3 C1_3 1_555 1_555
C11_3 C10_3 1_555 1_555
H9_3 C11_3 1_555 1_555
C12_3 C11_3 1_555 1_555
H10_3 C12_3 1_555 1_555
C13_3 C12_3 1_555 1_555
C14_2 C13_3 1_555 1_555
H11_3 C14_2 1_555 1_555
C15_2 C14_2 1_555 1_555
H12 C15_2 1_555 1_555
C16 C15_2 1_555 1_555
H13 C16 1_555 1_555
C17_2 N4 1_555 1_555
H14_2 C17_2 1_555 1_555
H17_2 C19_2 1_555 1_555
H18_2 C19_2 1_555 1_555
H19_2 C19_2 1_555 1_555
O2_3 C10_3 1_555 1_555
C13_3 C17_2 1_555 1_555
H13_2 C16_2 1_555 1_555
O3_2 Zn3 1_555 1_555
H3_2 O3_2 1_555 1_555
C18_2 O3_2 1_555 1_555
H16_2 C18_2 1_555 1_555
N3_2 Zn3 1_555 1_555
N3_2 C8_3 1_555 1_555
H4_3 C4_3 1_555 1_555
C5_3 C4_3 1_555 1_555
C6_3 C5_3 1_555 1_555
H5_3 C6_3 1_555 1_555
C7_3 C6_3 1_555 1_555
H6_3 C7_3 1_555 1_555
C8_3 C7_3 1_555 1_555
H7_3 C8_3 1_555 1_555
C9_3 N3_2 1_555 1_555
H8_3 C9_3 1_555 1_555
C5_3 C9_3 1_555 1_555
N2_2 C16_3 1_555 1_555
C15_3 C14_3 1_555 1_555
H12_3 C15_3 1_555 1_555
C16_3 C15_3 1_555 1_555
H13_3 C16_3 1_555 1_555
C17_3 N2_2 1_555 1_555
H14_3 C17_3 1_555 1_555
H3_3 O3_3 1_555 1_555
C18_3 O3_3 1_555 1_555
H16_3 C18_3 1_555 1_555
C19_3 C18_3 1_555 1_555
H17_3 C19_3 1_555 1_555
H18_3 C19_3 1_555 1_555
H19_3 C19_3 1_555 1_555
H17_4 C19_4 1_555 1_555
H18_4 C19_4 1_555 1_555
H19_4 C19_4 1_555 1_555
N1_2 C8_4 1_555 1_555
H4_4 C4_4 1_555 1_555
C5_4 C4_4 1_555 1_555
C6_4 C5_4 1_555 1_555
H5_4 C6_4 1_555 1_555
C7_4 C6_4 1_555 1_555
H6_4 C7_4 1_555 1_555
C8_4 C7_4 1_555 1_555
H7_4 C8_4 1_555 1_555
C9_4 N1_2 1_555 1_555
H8_4 C9_4 1_555 1_555
Zn3_2 N1_2 1_555 1_555
C5_4 C9_4 1_555 1_555
C1_4 H1_4 1_555 1_555
Zn3_2 O1_4 1_555 1_555
O1_4 C2_4 1_555 1_555
C2_4 C1_4 1_555 1_555
O2_4 Zn3_2 1_555 1_555
C3_4 C2_4 1_555 1_555
H2_4 C3_4 1_555 1_555
C10_4 C1_4 1_555 1_555
C11_4 C10_4 1_555 1_555
H9_4 C11_4 1_555 1_555
C12_4 C11_4 1_555 1_555
H10_4 C12_4 1_555 1_555
C13_4 C12_4 1_555 1_555
C14_4 C13_4 1_555 1_555
H11_4 C14_4 1_555 1_555
C15_4 C14_4 1_555 1_555
C17_4 N4_2 1_555 1_555
H14_4 C17_4 1_555 1_555
O2_4 C10_4 1_555 1_555
C13_4 C17_4 1_555 1_555
H3_4 O3_4 1_555 1_555
C18_4 O3_4 1_555 1_555
H16_4 C18_4 1_555 1_555
H13_4 C16_4 1_555 1_555
N5 O4 1_555 1_555
O6 N5 1_555 1_555
N5_2 O4_2 1_555 1_555
O5_2 N5_2 1_555 1_555
O6_2 N5_2 1_555 1_555
N5_3 O4_3 1_555 1_555
O5_3 N5_3 1_555 1_555
O6_3 N5_3 1_555 1_555
N5_4 O4_4 1_555 1_555
O6_4 N5_4 1_555 1_555

#END
