
###############################################################################
#
# This file contains modified crystal structure data generated from the
# MOF subset of the Cambridge Structural Database (CSD) v543 
# hosted by the Cambridge Crystallographic Data Centre (CCDC).
#
# This work is licensed under the Creative Commons
# Attribution-NonCommercial-ShareAlike 4.0 International License.
# To view a copy of this license, visit
# http://creativecommons.org/licenses/by-nc-sa/4.0/
# or send a letter to
# Creative Commons, PO Box 1866, Mountain View, CA 94042, USA.
#
# CIF created using the CSD Python API on 29 September 2022
# The structure has been converted into the P1 space group
# The structure has a 3D framework
# The original CSD entry ISALOG is in the monoclinic crystal system
# The framework has been calculated to contain at least 10.0% void space
# The void calculation uses a probe of radius 1.32A, grid spacing 0.4
#
###############################################################################

data_ISALOG
_chemical_formula_moiety         '(C48 H56 N4 O32 Pr4)n'
_symmetry_cell_setting           triclinic
_symmetry_space_group_name_H-M   'P 1'
_symmetry_Int_Tables_number      1
_space_group_name_Hall           'P 1'
loop_
_symmetry_equiv_pos_site_id
_symmetry_equiv_pos_as_xyz
1 x,y,z
_cell_length_a                   6.2123(8)
_cell_length_b                   22.161(3)
_cell_length_c                   11.4967(15)
_cell_angle_alpha                90
_cell_angle_beta                 99.387(2)
_cell_angle_gamma                90
_cell_volume                     1561.57
loop_
_atom_site_label
_atom_site_type_symbol
_atom_site_fract_x
_atom_site_fract_y
_atom_site_fract_z
Pr4 Pr 0.93208(4) 0.74734(2) 0.08425(3)
Pr1 Pr 0.43208(4) 0.75266(2) 0.58425(3)
N1 N 0.3287(6) 0.6439(2) 0.6753(4)
O1 O 0.3047(6) 0.31826(18) 0.7852(4)
O3 O 0.0498(6) 0.71926(18) 0.5412(3)
O4 O 0.5620(7) 0.7339(2) 0.7938(3)
O5 O 0.7261(6) 0.67459(17) 0.9369(3)
O6 O 0.7313(7) 0.8050(2) 0.5017(4)
H1 H 0.835173 0.779815 0.501313
H2 H 0.780293 0.833205 0.549093
O7 O 0.4167(7) 0.6988(2) 0.3917(3)
H3 H 0.543793 0.696170 0.372790
H4 H 0.333053 0.717540 0.337260
C1 C 0.1985(9) 0.4180(3) 0.7195(5)
C2 C 0.4038(10) 0.4350(3) 0.6979(6)
H5 H 0.519532 0.407945 0.712167
C3 C 0.4357(9) 0.4917(3) 0.6554(6)
H6 H 0.575275 0.502883 0.644368
C4 C 0.2660(9) 0.5329(2) 0.6285(5)
C5 C 0.0584(9) 0.5139(3) 0.6445(6)
C6 C 0.0266(9) 0.4587(3) 0.6903(6)
C7 C 0.3086(8) 0.5949(2) 0.5850(5)
H9 H 0.442245 0.593638 0.551728
H10 H 0.191013 0.605270 0.521855
C8 C 0.1619(9) 0.3589(3) 0.7761(5)
C9 C 0.1160(8) 0.6571(3) 0.7124(5)
H11 H 0.138551 0.682830 0.781687
H12 H 0.049640 0.619828 0.732934
C11 C 0.4928(8) 0.6280(2) 0.7790(5)
H13 H 0.604105 0.602756 0.753852
H14 H 0.422869 0.604938 0.834083
C12 C 0.5999(8) 0.6834(2) 0.8412(4)
Pr3 Pr 0.06792(4) 0.25266(2) 0.91575(3)
O9 O 0.1953(6) 0.81826(18) 0.7148(4)
O10 O 0.5138(7) 0.85174(19) 0.6823(4)
O11 O 0.2261(6) 0.82541(17) 0.4369(3)
O12 O 0.7616(6) 0.68426(19) 0.6104(4)
O2 O 0.9862(7) 0.35174(19) 0.8177(4)
H7 H 0.939748 0.539497 0.623414
H8 H 0.887476 0.447825 0.702558
C10 C 0.9629(8) 0.6888(2) 0.6122(5)
O7_2 O 0.0833(7) 0.1988(2) 0.1083(3)
H4_2 H 0.166947 0.217540 0.162740
O11_2 O 0.2739(6) 0.32541(17) 0.0631(3)
N1_2 N 0.1713(6) 0.1439(2) 0.8247(4)
O3_2 O 0.4502(6) 0.21926(18) 0.9588(3)
O8 O 0.7384(6) 0.18426(19) 0.8896(4)
C4_2 C 0.2340(9) 0.0329(2) 0.8715(5)
C5_2 C 0.4416(9) 0.0139(3) 0.8555(6)
H7_2 H 0.560252 0.039497 0.876586
C7_2 C 0.1914(8) 0.0949(2) 0.9150(5)
H9_2 H 0.057755 0.093638 0.948272
H10_2 H 0.308987 0.105270 0.978145
C9_2 C 0.3840(8) 0.1571(3) 0.7876(5)
H11_2 H 0.361449 0.182830 0.718313
H12_2 H 0.450360 0.119828 0.767066
C10_2 C 0.5371(8) 0.1888(2) 0.8878(5)
C11_2 C 0.0072(8) 0.1280(2) 0.7210(5)
H14_2 H 0.077131 0.104938 0.665917
C1_2 C 0.3015(9) 0.9180(3) 0.7805(5)
C2_2 C 0.0962(10) 0.9350(3) 0.8021(6)
C3_2 C 0.0643(9) 0.9917(3) 0.8446(6)
C6_2 C 0.4734(9) 0.9587(3) 0.8097(6)
H8_2 H 0.612524 0.947825 0.797442
C8_2 C 0.3381(9) 0.8589(3) 0.7239(5)
O4_2 O 0.9380(7) 0.2339(2) 0.7062(3)
O5_2 O 0.7739(6) 0.17459(17) 0.5631(3)
O6_2 O 0.7687(7) 0.3050(2) 0.9983(4)
H1_2 H 0.664827 0.279815 0.998687
H2_2 H 0.719707 0.333205 0.950907
H6_2 H 0.924725 0.002883 0.855632
H13_2 H 0.895895 0.102756 0.746148
C12_2 C 0.9001(8) 0.1834(2) 0.6588(4)
Pr4_2 Pr 0.56792(4) 0.24734(2) 0.41575(3)
O2_2 O 0.0138(7) 0.64826(19) 0.1823(4)
O8_2 O 0.2384(6) 0.31574(19) 0.3896(4)
H7_3 H 0.060252 0.460503 0.376586
H8_3 H 0.112524 0.552175 0.297442
C10_3 C 0.0371(8) 0.3112(2) 0.3878(5)
N1_3 N 0.6713(6) 0.3561(2) 0.3247(4)
O1_2 O 0.6953(6) 0.68174(18) 0.2148(4)
O3_3 O 0.9502(6) 0.28074(18) 0.4588(3)
O4_3 O 0.4380(7) 0.2661(2) 0.2062(3)
O6_3 O 0.2687(7) 0.1950(2) 0.4983(4)
H1_3 H 0.164827 0.220185 0.498687
H2_3 H 0.219707 0.166795 0.450907
O7_3 O 0.5833(7) 0.3012(2) 0.6083(3)
H3_2 H 0.456207 0.303830 0.627210
H4_3 H 0.666947 0.282460 0.662740
C1_3 C 0.8015(9) 0.5820(3) 0.2805(5)
C2_3 C 0.5962(10) 0.5650(3) 0.3021(6)
H5_2 H 0.480468 0.592055 0.287833
C3_3 C 0.5643(9) 0.5083(3) 0.3446(6)
H6_3 H 0.424725 0.497117 0.355632
C4_3 C 0.7340(9) 0.4671(2) 0.3715(5)
C5_3 C 0.9416(9) 0.4861(3) 0.3555(6)
C6_3 C 0.9734(9) 0.5413(3) 0.3097(6)
C7_3 C 0.6914(8) 0.4051(2) 0.4150(5)
H9_3 H 0.557755 0.406362 0.448272
H10_3 H 0.808987 0.394730 0.478145
C8_3 C 0.8381(9) 0.6411(3) 0.2239(5)
C9_3 C 0.8840(8) 0.3429(3) 0.2876(5)
H11_3 H 0.861449 0.317170 0.218313
H12_3 H 0.950360 0.380172 0.267066
C11_3 C 0.5072(8) 0.3720(2) 0.2210(5)
H13_3 H 0.395895 0.397244 0.246148
H14_3 H 0.577131 0.395062 0.165917
C12_3 C 0.4001(8) 0.3166(2) 0.1588(4)
O9_2 O 0.8047(6) 0.18174(18) 0.2852(4)
O10_2 O 0.4862(7) 0.14826(19) 0.3177(4)
O4_4 O 0.0620(7) 0.7661(2) 0.2938(3)
O6_4 O 0.2313(7) 0.6950(2) 0.0017(4)
H1_4 H 0.335173 0.720185 0.001313
H2_4 H 0.280293 0.666795 0.049093
H6_4 H 0.075275 0.997117 0.144368
H13_4 H 0.104105 0.897244 0.253852
C12_4 C 0.0999(8) 0.8166(2) 0.3412(4)
O12_2 O 0.2616(6) 0.81574(19) 0.1104(4)
C1_4 C 0.6985(9) 0.0820(3) 0.2195(5)
C2_4 C 0.9038(10) 0.0650(3) 0.1979(6)
C3_4 C 0.9357(9) 0.0083(3) 0.1554(6)
C6_4 C 0.5266(9) 0.0413(3) 0.1903(6)
H8_4 H 0.387476 0.052175 0.202558
C8_4 C 0.6619(9) 0.1411(3) 0.2761(5)
N1_4 N 0.8287(6) 0.8561(2) 0.1753(4)
O3_4 O 0.5498(6) 0.78074(18) 0.0412(3)
C4_4 C 0.7660(9) 0.9671(2) 0.1285(5)
C5_4 C 0.5584(9) 0.9861(3) 0.1445(6)
H7_4 H 0.439748 0.960503 0.123414
C7_4 C 0.8086(8) 0.9051(2) 0.0850(5)
H9_4 H 0.942245 0.906362 0.051728
H10_4 H 0.691013 0.894730 0.021855
C9_4 C 0.6160(8) 0.8429(3) 0.2124(5)
H11_4 H 0.638551 0.817170 0.281687
H12_4 H 0.549640 0.880172 0.232934
C10_4 C 0.4629(8) 0.8112(2) 0.1122(5)
C11_4 C 0.9928(8) 0.8720(2) 0.2790(5)
H14_4 H 0.922869 0.895062 0.334083
O7_4 O 0.9167(7) 0.8012(2) 0.8917(3)
H4_4 H 0.833053 0.782460 0.837260
H3_3 H 0.956207 0.196170 0.127210
H5_3 H 0.980468 0.907945 0.787833
H5_4 H 0.019532 0.092055 0.212167
H3_4 H 0.043793 0.803830 0.872790
loop_
_geom_bond_atom_site_label_1
_geom_bond_atom_site_label_2
_geom_bond_site_symmetry_1
_geom_bond_site_symmetry_2
Pr1 N1 1_555 1_555
N1 C7 1_555 1_555
O1 C8 1_555 1_555
O3 Pr1 1_555 1_555
O4 Pr1 1_555 1_555
O5 C12 1_555 1_555
O6 Pr1 1_555 1_555
H1 O6 1_555 1_555
H2 O6 1_555 1_555
O7 Pr1 1_555 1_555
H3 O7 1_555 1_555
H4 O7 1_555 1_555
C1 C2 1_555 1_555
C2 H5 1_555 1_555
C3 C2 1_555 1_555
H6 C3 1_555 1_555
C4 C3 1_555 1_555
C5 C4 1_555 1_555
C6 C1 1_555 1_555
C7 C4 1_555 1_555
H9 C7 1_555 1_555
H10 C7 1_555 1_555
C8 C1 1_555 1_555
C9 N1 1_555 1_555
H11 C9 1_555 1_555
H12 C9 1_555 1_555
C11 N1 1_555 1_555
H13 C11 1_555 1_555
H14 C11 1_555 1_555
C12 O4 1_555 1_555
Pr3 O1 1_555 1_555
O9 Pr1 1_555 1_555
O10 Pr1 1_555 1_555
O11 Pr1 1_555 1_555
O12 Pr1 1_555 1_555
C5 C6 1_555 1_555
C11 C12 1_555 1_555
O12 C10 1_555 1_555
H4_2 O7_2 1_555 1_555
Pr3 N1_2 1_555 1_555
N1_2 C7_2 1_555 1_555
O3_2 Pr3 1_555 1_555
O8 C10_2 1_555 1_555
C5_2 C4_2 1_555 1_555
H7_2 C5_2 1_555 1_555
C7_2 C4_2 1_555 1_555
H9_2 C7_2 1_555 1_555
H10_2 C7_2 1_555 1_555
C9_2 N1_2 1_555 1_555
H11_2 C9_2 1_555 1_555
H12_2 C9_2 1_555 1_555
C10_2 O3_2 1_555 1_555
C11_2 N1_2 1_555 1_555
H14_2 C11_2 1_555 1_555
C9_2 C10_2 1_555 1_555
O9 C8_2 1_555 1_555
O10 C8_2 1_555 1_555
C1_2 C2_2 1_555 1_555
C3_2 C2_2 1_555 1_555
C6_2 C1_2 1_555 1_555
H8_2 C6_2 1_555 1_555
C8_2 C1_2 1_555 1_555
O5_2 C12_2 1_555 1_555
H1_2 O6_2 1_555 1_555
H2_2 O6_2 1_555 1_555
C12_2 O4_2 1_555 1_555
Pr4_2 O5_2 1_555 1_555
O8_2 C10_3 1_555 1_555
Pr4_2 O8_2 1_555 1_555
Pr4_2 N1_3 1_555 1_555
N1_3 C7_3 1_555 1_555
O1_2 C8_3 1_555 1_555
O3_3 Pr4_2 1_555 1_555
O4_3 Pr4_2 1_555 1_555
O11_2 C12_3 1_555 1_555
O6_3 Pr4_2 1_555 1_555
H1_3 O6_3 1_555 1_555
H2_3 O6_3 1_555 1_555
O7_3 Pr4_2 1_555 1_555
H3_2 O7_3 1_555 1_555
H4_3 O7_3 1_555 1_555
C1_3 C2_3 1_555 1_555
C2_3 H5_2 1_555 1_555
C3_3 C2_3 1_555 1_555
H6_3 C3_3 1_555 1_555
C4_3 C3_3 1_555 1_555
C5_3 C4_3 1_555 1_555
C6_3 C1_3 1_555 1_555
C7_3 C4_3 1_555 1_555
H9_3 C7_3 1_555 1_555
H10_3 C7_3 1_555 1_555
C8_3 C1_3 1_555 1_555
C9_3 N1_3 1_555 1_555
H11_3 C9_3 1_555 1_555
H12_3 C9_3 1_555 1_555
C11_3 N1_3 1_555 1_555
H13_3 C11_3 1_555 1_555
H14_3 C11_3 1_555 1_555
C12_3 O4_3 1_555 1_555
Pr4 O1_2 1_555 1_555
O9_2 Pr4_2 1_555 1_555
O10_2 Pr4_2 1_555 1_555
C5_3 C6_3 1_555 1_555
C11_3 C12_3 1_555 1_555
O11 C12_4 1_555 1_555
H1_4 O6_4 1_555 1_555
H2_4 O6_4 1_555 1_555
C12_4 O4_4 1_555 1_555
O9_2 C8_4 1_555 1_555
O10_2 C8_4 1_555 1_555
C1_4 C2_4 1_555 1_555
C3_4 C2_4 1_555 1_555
C6_4 C1_4 1_555 1_555
H8_4 C6_4 1_555 1_555
C8_4 C1_4 1_555 1_555
Pr4 N1_4 1_555 1_555
N1_4 C7_4 1_555 1_555
O3_4 Pr4 1_555 1_555
O12_2 C10_4 1_555 1_555
C5_4 C4_4 1_555 1_555
H7_4 C5_4 1_555 1_555
C7_4 C4_4 1_555 1_555
H9_4 C7_4 1_555 1_555
H10_4 C7_4 1_555 1_555
C9_4 N1_4 1_555 1_555
H11_4 C9_4 1_555 1_555
H12_4 C9_4 1_555 1_555
C10_4 O3_4 1_555 1_555
C11_4 N1_4 1_555 1_555
H14_4 C11_4 1_555 1_555
C9_4 C10_4 1_555 1_555
H4_4 O7_4 1_555 1_555

#END
