
###############################################################################
#
# This file contains modified crystal structure data generated from the
# MOF subset of the Cambridge Structural Database (CSD) v543 
# hosted by the Cambridge Crystallographic Data Centre (CCDC).
#
# This work is licensed under the Creative Commons
# Attribution-NonCommercial-ShareAlike 4.0 International License.
# To view a copy of this license, visit
# http://creativecommons.org/licenses/by-nc-sa/4.0/
# or send a letter to
# Creative Commons, PO Box 1866, Mountain View, CA 94042, USA.
#
# CIF created using the CSD Python API on 29 September 2022
# The structure has been converted into the P1 space group
# The structure has a 3D framework
# The original CSD entry ISALUM is in the monoclinic crystal system
# The framework has been calculated to contain at least 10.0% void space
# The void calculation uses a probe of radius 1.32A, grid spacing 0.4
#
###############################################################################

data_ISALUM
_chemical_formula_moiety         '(C48 H56 N4 Nd4 O32)n'
_symmetry_cell_setting           triclinic
_symmetry_space_group_name_H-M   'P 1'
_symmetry_Int_Tables_number      1
_space_group_name_Hall           'P 1'
loop_
_symmetry_equiv_pos_site_id
_symmetry_equiv_pos_as_xyz
1 x,y,z
_cell_length_a                   6.1774(18)
_cell_length_b                   22.134(7)
_cell_length_c                   11.445(4)
_cell_angle_alpha                90
_cell_angle_beta                 99.446(4)
_cell_angle_gamma                90
_cell_volume                     1543.66
loop_
_atom_site_label
_atom_site_type_symbol
_atom_site_fract_x
_atom_site_fract_y
_atom_site_fract_z
Nd4 Nd 0.93332(3) 0.74811(2) 0.08627(2)
Nd1 Nd 0.43332(3) 0.75189(2) 0.58627(2)
N1 N 0.3314(5) 0.64386(15) 0.6774(3)
O1 O 0.3056(5) 0.31677(14) 0.7846(3)
O3 O 0.0523(5) 0.71902(14) 0.5418(3)
O4 O 0.5649(5) 0.73412(13) 0.7953(3)
O5 O 0.7283(5) 0.67523(14) 0.9399(3)
O6 O 0.7303(5) 0.80376(16) 0.5027(3)
H1 H 0.834140 0.778612 0.502262
H2 H 0.779260 0.832002 0.550042
O7 O 0.4157(5) 0.69847(15) 0.3937(3)
H3 H 0.542792 0.695875 0.374749
H4 H 0.332052 0.717245 0.339219
C1 C 0.1996(7) 0.41728(19) 0.7201(4)
C2 C 0.4070(8) 0.4344(2) 0.7021(5)
H5 H 0.524068 0.407719 0.719325
C3 C 0.4402(8) 0.4916(2) 0.6582(5)
H6 H 0.580678 0.502872 0.647431
C4 C 0.2698(7) 0.53226(19) 0.6301(4)
C5 C 0.0607(7) 0.5134(2) 0.6449(4)
C6 C 0.0275(8) 0.4573(2) 0.6909(5)
C7 C 0.3130(7) 0.59484(18) 0.5869(4)
H9 H 0.448165 0.593780 0.554106
H10 H 0.195508 0.605221 0.522915
C8 C 0.1623(7) 0.3579(2) 0.7762(4)
C9 C 0.1177(7) 0.6572(2) 0.7131(4)
H11 H 0.139950 0.683058 0.782420
H12 H 0.051468 0.619830 0.734134
C11 C 0.4958(7) 0.62818(18) 0.7816(4)
H13 H 0.607638 0.602722 0.756694
H14 H 0.425181 0.605249 0.837034
C12 C 0.6038(7) 0.68365(19) 0.8436(4)
Nd3 Nd 0.06668(3) 0.25189(2) 0.91373(2)
O9 O 0.1944(5) 0.81677(14) 0.7154(3)
O10 O 0.5137(5) 0.85104(14) 0.6822(3)
O11 O 0.2283(5) 0.82477(14) 0.4399(3)
O12 O 0.7621(5) 0.68386(14) 0.6119(3)
O2 O 0.9863(5) 0.35104(14) 0.8178(3)
H7 H 0.941767 0.539085 0.623315
H8 H 0.887381 0.446243 0.702531
C10 C 0.9637(7) 0.68816(19) 0.6138(4)
O7_2 O 0.0843(5) 0.19847(15) 0.1063(3)
H4_2 H 0.167948 0.217245 0.160781
O11_2 O 0.2717(5) 0.32477(14) 0.0601(3)
N1_2 N 0.1686(5) 0.14386(15) 0.8226(3)
O3_2 O 0.4477(5) 0.21902(14) 0.9582(3)
O8 O 0.7379(5) 0.18386(14) 0.8881(3)
C4_2 C 0.2302(7) 0.03226(19) 0.8699(4)
C5_2 C 0.4393(7) 0.0134(2) 0.8551(4)
H7_2 H 0.558233 0.039085 0.876685
C7_2 C 0.1870(7) 0.09484(18) 0.9131(4)
H9_2 H 0.051835 0.093780 0.945894
H10_2 H 0.304492 0.105221 0.977085
C9_2 C 0.3823(7) 0.1572(2) 0.7869(4)
H11_2 H 0.360050 0.183058 0.717580
H12_2 H 0.448532 0.119830 0.765866
C10_2 C 0.5363(7) 0.18816(19) 0.8862(4)
C11_2 C 0.0042(7) 0.12818(18) 0.7184(4)
H14_2 H 0.074819 0.105249 0.662966
C1_2 C 0.3004(7) 0.91728(19) 0.7799(4)
C2_2 C 0.0930(8) 0.9344(2) 0.7979(5)
C3_2 C 0.0598(8) 0.9916(2) 0.8418(5)
C6_2 C 0.4725(8) 0.9573(2) 0.8091(5)
H8_2 H 0.612619 0.946243 0.797469
C8_2 C 0.3377(7) 0.8579(2) 0.7238(4)
O4_2 O 0.9351(5) 0.23412(13) 0.7047(3)
O5_2 O 0.7717(5) 0.17523(14) 0.5601(3)
O6_2 O 0.7697(5) 0.30376(16) 0.9973(3)
H1_2 H 0.665860 0.278612 0.997738
H2_2 H 0.720740 0.332002 0.949958
H6_2 H 0.919322 0.002872 0.852569
H13_2 H 0.892362 0.102722 0.743306
C12_2 C 0.8962(7) 0.18365(19) 0.6564(4)
Nd4_2 Nd 0.56668(3) 0.24811(2) 0.41373(2)
O2_2 O 0.0137(5) 0.64896(14) 0.1822(3)
O8_2 O 0.2379(5) 0.31614(14) 0.3881(3)
H7_3 H 0.058233 0.460915 0.376685
H8_3 H 0.112619 0.553757 0.297469
C10_3 C 0.0363(7) 0.31184(19) 0.3862(4)
N1_3 N 0.6686(5) 0.35614(15) 0.3226(3)
O1_2 O 0.6944(5) 0.68323(14) 0.2154(3)
O3_3 O 0.9477(5) 0.28098(14) 0.4582(3)
O4_3 O 0.4351(5) 0.26588(13) 0.2047(3)
O6_3 O 0.2697(5) 0.19624(16) 0.4973(3)
H1_3 H 0.165860 0.221388 0.497738
H2_3 H 0.220740 0.167998 0.449958
O7_3 O 0.5843(5) 0.30153(15) 0.6063(3)
H3_2 H 0.457208 0.304125 0.625251
H4_3 H 0.667948 0.282755 0.660781
C1_3 C 0.8004(7) 0.58272(19) 0.2799(4)
C2_3 C 0.5930(8) 0.5656(2) 0.2979(5)
H5_2 H 0.475932 0.592281 0.280675
C3_3 C 0.5598(8) 0.5084(2) 0.3418(5)
H6_3 H 0.419322 0.497128 0.352569
C4_3 C 0.7302(7) 0.46774(19) 0.3699(4)
C5_3 C 0.9393(7) 0.4866(2) 0.3551(4)
C6_3 C 0.9725(8) 0.5427(2) 0.3091(5)
C7_3 C 0.6870(7) 0.40516(18) 0.4131(4)
H9_3 H 0.551835 0.406220 0.445894
H10_3 H 0.804492 0.394779 0.477085
C8_3 C 0.8377(7) 0.6421(2) 0.2238(4)
C9_3 C 0.8823(7) 0.3428(2) 0.2869(4)
H11_3 H 0.860050 0.316942 0.217580
H12_3 H 0.948532 0.380170 0.265866
C11_3 C 0.5042(7) 0.37182(18) 0.2184(4)
H13_3 H 0.392362 0.397278 0.243306
H14_3 H 0.574819 0.394751 0.162966
C12_3 C 0.3962(7) 0.31635(19) 0.1564(4)
O9_2 O 0.8056(5) 0.18323(14) 0.2846(3)
O10_2 O 0.4863(5) 0.14896(14) 0.3178(3)
O4_4 O 0.0649(5) 0.76588(13) 0.2953(3)
O6_4 O 0.2303(5) 0.69624(16) 0.0027(3)
H1_4 H 0.334140 0.721388 0.002262
H2_4 H 0.279260 0.667998 0.050042
H6_4 H 0.080678 0.997128 0.147431
H13_4 H 0.107638 0.897278 0.256694
C12_4 C 0.1038(7) 0.81635(19) 0.3436(4)
O12_2 O 0.2621(5) 0.81614(14) 0.1119(3)
C1_4 C 0.6996(7) 0.08272(19) 0.2201(4)
C2_4 C 0.9070(8) 0.0656(2) 0.2021(5)
C3_4 C 0.9402(8) 0.0084(2) 0.1582(5)
C6_4 C 0.5275(8) 0.0427(2) 0.1909(5)
H8_4 H 0.387381 0.053757 0.202531
C8_4 C 0.6623(7) 0.1421(2) 0.2762(4)
N1_4 N 0.8314(5) 0.85614(15) 0.1774(3)
O3_4 O 0.5523(5) 0.78098(14) 0.0418(3)
C4_4 C 0.7698(7) 0.96774(19) 0.1301(4)
C5_4 C 0.5607(7) 0.9866(2) 0.1449(4)
H7_4 H 0.441767 0.960915 0.123315
C7_4 C 0.8130(7) 0.90516(18) 0.0869(4)
H9_4 H 0.948165 0.906220 0.054106
H10_4 H 0.695508 0.894779 0.022915
C9_4 C 0.6177(7) 0.8428(2) 0.2131(4)
H11_4 H 0.639950 0.816942 0.282420
H12_4 H 0.551468 0.880170 0.234134
C10_4 C 0.4637(7) 0.81184(19) 0.1138(4)
C11_4 C 0.9958(7) 0.87182(18) 0.2816(4)
H14_4 H 0.925181 0.894751 0.337034
O7_4 O 0.9157(5) 0.80153(15) 0.8937(3)
H4_4 H 0.832052 0.782755 0.839219
H3_3 H 0.957208 0.195875 0.125251
H5_3 H 0.975932 0.907719 0.780675
H5_4 H 0.024068 0.092281 0.219325
H3_4 H 0.042792 0.804125 0.874749
loop_
_geom_bond_atom_site_label_1
_geom_bond_atom_site_label_2
_geom_bond_site_symmetry_1
_geom_bond_site_symmetry_2
Nd1 N1 1_555 1_555
N1 C7 1_555 1_555
O1 C8 1_555 1_555
O3 Nd1 1_555 1_555
O4 Nd1 1_555 1_555
O5 C12 1_555 1_555
O6 Nd1 1_555 1_555
H1 O6 1_555 1_555
H2 O6 1_555 1_555
O7 Nd1 1_555 1_555
H3 O7 1_555 1_555
H4 O7 1_555 1_555
C1 C2 1_555 1_555
C2 H5 1_555 1_555
C3 C2 1_555 1_555
H6 C3 1_555 1_555
C4 C3 1_555 1_555
C5 C4 1_555 1_555
C6 C1 1_555 1_555
C7 C4 1_555 1_555
H9 C7 1_555 1_555
H10 C7 1_555 1_555
C8 C1 1_555 1_555
C9 N1 1_555 1_555
H11 C9 1_555 1_555
H12 C9 1_555 1_555
C11 N1 1_555 1_555
H13 C11 1_555 1_555
H14 C11 1_555 1_555
C12 O4 1_555 1_555
Nd3 O1 1_555 1_555
O9 Nd1 1_555 1_555
O10 Nd1 1_555 1_555
O11 Nd1 1_555 1_555
O12 Nd1 1_555 1_555
C5 C6 1_555 1_555
C11 C12 1_555 1_555
O12 C10 1_555 1_555
H4_2 O7_2 1_555 1_555
Nd3 N1_2 1_555 1_555
N1_2 C7_2 1_555 1_555
O3_2 Nd3 1_555 1_555
O8 C10_2 1_555 1_555
C5_2 C4_2 1_555 1_555
H7_2 C5_2 1_555 1_555
C7_2 C4_2 1_555 1_555
H9_2 C7_2 1_555 1_555
H10_2 C7_2 1_555 1_555
C9_2 N1_2 1_555 1_555
H11_2 C9_2 1_555 1_555
H12_2 C9_2 1_555 1_555
C10_2 O3_2 1_555 1_555
C11_2 N1_2 1_555 1_555
H14_2 C11_2 1_555 1_555
C9_2 C10_2 1_555 1_555
O9 C8_2 1_555 1_555
O10 C8_2 1_555 1_555
C1_2 C2_2 1_555 1_555
C3_2 C2_2 1_555 1_555
C6_2 C1_2 1_555 1_555
H8_2 C6_2 1_555 1_555
C8_2 C1_2 1_555 1_555
O5_2 C12_2 1_555 1_555
H1_2 O6_2 1_555 1_555
H2_2 O6_2 1_555 1_555
C12_2 O4_2 1_555 1_555
Nd4_2 O5_2 1_555 1_555
O8_2 C10_3 1_555 1_555
Nd4_2 O8_2 1_555 1_555
Nd4_2 N1_3 1_555 1_555
N1_3 C7_3 1_555 1_555
O1_2 C8_3 1_555 1_555
O3_3 Nd4_2 1_555 1_555
O4_3 Nd4_2 1_555 1_555
O11_2 C12_3 1_555 1_555
O6_3 Nd4_2 1_555 1_555
H1_3 O6_3 1_555 1_555
H2_3 O6_3 1_555 1_555
O7_3 Nd4_2 1_555 1_555
H3_2 O7_3 1_555 1_555
H4_3 O7_3 1_555 1_555
C1_3 C2_3 1_555 1_555
C2_3 H5_2 1_555 1_555
C3_3 C2_3 1_555 1_555
H6_3 C3_3 1_555 1_555
C4_3 C3_3 1_555 1_555
C5_3 C4_3 1_555 1_555
C6_3 C1_3 1_555 1_555
C7_3 C4_3 1_555 1_555
H9_3 C7_3 1_555 1_555
H10_3 C7_3 1_555 1_555
C8_3 C1_3 1_555 1_555
C9_3 N1_3 1_555 1_555
H11_3 C9_3 1_555 1_555
H12_3 C9_3 1_555 1_555
C11_3 N1_3 1_555 1_555
H13_3 C11_3 1_555 1_555
H14_3 C11_3 1_555 1_555
C12_3 O4_3 1_555 1_555
Nd4 O1_2 1_555 1_555
O9_2 Nd4_2 1_555 1_555
O10_2 Nd4_2 1_555 1_555
C5_3 C6_3 1_555 1_555
C11_3 C12_3 1_555 1_555
O11 C12_4 1_555 1_555
H1_4 O6_4 1_555 1_555
H2_4 O6_4 1_555 1_555
C12_4 O4_4 1_555 1_555
O9_2 C8_4 1_555 1_555
O10_2 C8_4 1_555 1_555
C1_4 C2_4 1_555 1_555
C3_4 C2_4 1_555 1_555
C6_4 C1_4 1_555 1_555
H8_4 C6_4 1_555 1_555
C8_4 C1_4 1_555 1_555
Nd4 N1_4 1_555 1_555
N1_4 C7_4 1_555 1_555
O3_4 Nd4 1_555 1_555
O12_2 C10_4 1_555 1_555
C5_4 C4_4 1_555 1_555
H7_4 C5_4 1_555 1_555
C7_4 C4_4 1_555 1_555
H9_4 C7_4 1_555 1_555
H10_4 C7_4 1_555 1_555
C9_4 N1_4 1_555 1_555
H11_4 C9_4 1_555 1_555
H12_4 C9_4 1_555 1_555
C10_4 O3_4 1_555 1_555
C11_4 N1_4 1_555 1_555
H14_4 C11_4 1_555 1_555
C9_4 C10_4 1_555 1_555
H4_4 O7_4 1_555 1_555

#END
