
###############################################################################
#
# This file contains modified crystal structure data generated from the
# MOF subset of the Cambridge Structural Database (CSD) v543 
# hosted by the Cambridge Crystallographic Data Centre (CCDC).
#
# This work is licensed under the Creative Commons
# Attribution-NonCommercial-ShareAlike 4.0 International License.
# To view a copy of this license, visit
# http://creativecommons.org/licenses/by-nc-sa/4.0/
# or send a letter to
# Creative Commons, PO Box 1866, Mountain View, CA 94042, USA.
#
# CIF created using the CSD Python API on 29 September 2022
# The structure has been converted into the P1 space group
# The structure has a 3D framework
# The original CSD entry ISAMAT is in the monoclinic crystal system
# The framework has been calculated to contain at least 10.0% void space
# The void calculation uses a probe of radius 1.32A, grid spacing 0.4
#
###############################################################################

data_ISAMAT
_chemical_formula_moiety         '(C48 H56 N4 O32 Sm4)n'
_symmetry_cell_setting           triclinic
_symmetry_space_group_name_H-M   'P 1'
_symmetry_Int_Tables_number      1
_space_group_name_Hall           'P 1'
loop_
_symmetry_equiv_pos_site_id
_symmetry_equiv_pos_as_xyz
1 x,y,z
_cell_length_a                   6.1775(4)
_cell_length_b                   22.1665(13)
_cell_length_c                   11.4573(8)
_cell_angle_alpha                90
_cell_angle_beta                 99.4350(10)
_cell_angle_gamma                90
_cell_volume                     1547.67
loop_
_atom_site_label
_atom_site_type_symbol
_atom_site_fract_x
_atom_site_fract_y
_atom_site_fract_z
Sm4 Sm 0.93452(6) 0.74842(2) 0.08709(3)
Sm1 Sm 0.43452(6) 0.75158(2) 0.58709(3)
N1 N 0.3330(9) 0.6436(3) 0.6782(5)
O1 O 0.3053(10) 0.3166(3) 0.7842(5)
O3 O 0.0530(8) 0.7185(2) 0.5427(5)
O4 O 0.5663(9) 0.7338(2) 0.7959(5)
O5 O 0.7302(9) 0.6754(2) 0.9413(5)
O6 O 0.7331(10) 0.8038(3) 0.5036(6)
H1 H 0.837004 0.778644 0.503173
H2 H 0.782124 0.832034 0.550953
O7 O 0.4176(10) 0.6982(3) 0.3954(5)
H3 H 0.544727 0.695611 0.376420
H4 H 0.333987 0.716981 0.340890
C1 C 0.1997(13) 0.4174(3) 0.7209(7)
C2 C 0.4086(14) 0.4348(4) 0.7030(9)
H5 H 0.526024 0.408285 0.720884
C3 C 0.4411(14) 0.4914(4) 0.6586(9)
H6 H 0.581255 0.502384 0.647073
C4 C 0.2706(13) 0.5321(3) 0.6308(7)
C5 C 0.0626(13) 0.5134(4) 0.6449(8)
C6 C 0.0276(14) 0.4568(4) 0.6899(8)
C7 C 0.3142(12) 0.5945(3) 0.5869(6)
H9 H 0.449244 0.593346 0.554122
H10 H 0.196565 0.604892 0.523098
C8 C 0.1623(13) 0.3579(4) 0.7761(7)
C9 C 0.1183(12) 0.6565(4) 0.7137(7)
H11 H 0.139556 0.681958 0.783567
H12 H 0.051693 0.619059 0.733532
C11 C 0.4973(12) 0.6280(3) 0.7828(7)
H13 H 0.609377 0.602555 0.758199
H14 H 0.426356 0.605172 0.838134
C12 C 0.6048(12) 0.6836(3) 0.8446(7)
Sm3 Sm 0.06548(6) 0.25158(2) 0.91291(3)
O9 O 0.1947(10) 0.8166(3) 0.7158(5)
O10 O 0.5152(9) 0.8506(3) 0.6833(5)
O11 O 0.2302(9) 0.8246(2) 0.4413(5)
O12 O 0.7628(9) 0.6838(3) 0.6127(5)
O2 O 0.9848(9) 0.3506(3) 0.8167(5)
H7 H 0.944172 0.539342 0.623899
H8 H 0.886588 0.445364 0.699172
C10 C 0.9665(12) 0.6879(3) 0.6148(7)
O7_2 O 0.0824(10) 0.1982(3) 0.1046(5)
H4_2 H 0.166013 0.216981 0.159110
O11_2 O 0.2698(9) 0.3246(2) 0.0587(5)
N1_2 N 0.1670(9) 0.1436(3) 0.8218(5)
O3_2 O 0.4470(8) 0.2185(2) 0.9573(5)
O8 O 0.7372(9) 0.1838(3) 0.8873(5)
C4_2 C 0.2294(13) 0.0321(3) 0.8692(7)
C5_2 C 0.4374(13) 0.0134(4) 0.8551(8)
H7_2 H 0.555828 0.039342 0.876101
C7_2 C 0.1858(12) 0.0945(3) 0.9131(6)
H9_2 H 0.050756 0.093346 0.945878
H10_2 H 0.303435 0.104892 0.976902
C9_2 C 0.3817(12) 0.1565(4) 0.7863(7)
H11_2 H 0.360444 0.181958 0.716433
H12_2 H 0.448307 0.119059 0.766468
C10_2 C 0.5335(12) 0.1879(3) 0.8852(7)
C11_2 C 0.0027(12) 0.1280(3) 0.7172(7)
H14_2 H 0.073644 0.105172 0.661866
C1_2 C 0.3003(13) 0.9174(3) 0.7791(7)
C2_2 C 0.0914(14) 0.9348(4) 0.7970(9)
C3_2 C 0.0589(14) 0.9914(4) 0.8414(9)
C6_2 C 0.4724(14) 0.9568(4) 0.8101(8)
H8_2 H 0.613412 0.945364 0.800828
C8_2 C 0.3377(13) 0.8579(4) 0.7239(7)
O4_2 O 0.9337(9) 0.2338(2) 0.7041(5)
O5_2 O 0.7698(9) 0.1754(2) 0.5587(5)
O6_2 O 0.7669(10) 0.3038(3) 0.9964(6)
H1_2 H 0.662996 0.278644 0.996827
H2_2 H 0.717876 0.332034 0.949047
H6_2 H 0.918745 0.002384 0.852927
H13_2 H 0.890623 0.102555 0.741801
C12_2 C 0.8952(12) 0.1836(3) 0.6554(7)
Sm4_2 Sm 0.56548(6) 0.24842(2) 0.41291(3)
O2_2 O 0.0152(9) 0.6494(3) 0.1833(5)
O8_2 O 0.2372(9) 0.3162(3) 0.3873(5)
H7_3 H 0.055828 0.460658 0.376101
H8_3 H 0.113412 0.554636 0.300828
C10_3 C 0.0335(12) 0.3121(3) 0.3852(7)
N1_3 N 0.6670(9) 0.3564(3) 0.3218(5)
O1_2 O 0.6947(10) 0.6834(3) 0.2158(5)
O3_3 O 0.9470(8) 0.2815(2) 0.4573(5)
O4_3 O 0.4337(9) 0.2662(2) 0.2041(5)
O6_3 O 0.2669(10) 0.1962(3) 0.4964(6)
H1_3 H 0.162996 0.221356 0.496827
H2_3 H 0.217876 0.167966 0.449047
O7_3 O 0.5824(10) 0.3018(3) 0.6046(5)
H3_2 H 0.455273 0.304389 0.623580
H4_3 H 0.666013 0.283019 0.659110
C1_3 C 0.8003(13) 0.5826(3) 0.2791(7)
C2_3 C 0.5914(14) 0.5652(4) 0.2970(9)
H5_2 H 0.473976 0.591715 0.279116
C3_3 C 0.5589(14) 0.5086(4) 0.3414(9)
H6_3 H 0.418745 0.497616 0.352927
C4_3 C 0.7294(13) 0.4679(3) 0.3692(7)
C5_3 C 0.9374(13) 0.4866(4) 0.3551(8)
C6_3 C 0.9724(14) 0.5432(4) 0.3101(8)
C7_3 C 0.6858(12) 0.4055(3) 0.4131(6)
H9_3 H 0.550756 0.406654 0.445878
H10_3 H 0.803435 0.395108 0.476902
C8_3 C 0.8377(13) 0.6421(4) 0.2239(7)
C9_3 C 0.8817(12) 0.3435(4) 0.2863(7)
H11_3 H 0.860444 0.318042 0.216433
H12_3 H 0.948307 0.380941 0.266468
C11_3 C 0.5027(12) 0.3720(3) 0.2172(7)
H13_3 H 0.390623 0.397445 0.241801
H14_3 H 0.573644 0.394828 0.161866
C12_3 C 0.3952(12) 0.3164(3) 0.1554(7)
O9_2 O 0.8053(10) 0.1834(3) 0.2842(5)
O10_2 O 0.4848(9) 0.1494(3) 0.3167(5)
O4_4 O 0.0663(9) 0.7662(2) 0.2959(5)
O6_4 O 0.2331(10) 0.6962(3) 0.0036(6)
H1_4 H 0.337004 0.721356 0.003173
H2_4 H 0.282124 0.667966 0.050953
H6_4 H 0.081255 0.997616 0.147073
H13_4 H 0.109377 0.897445 0.258199
C12_4 C 0.1048(12) 0.8164(3) 0.3446(7)
O12_2 O 0.2628(9) 0.8162(3) 0.1127(5)
C1_4 C 0.6997(13) 0.0826(3) 0.2209(7)
C2_4 C 0.9086(14) 0.0652(4) 0.2030(9)
C3_4 C 0.9411(14) 0.0086(4) 0.1586(9)
C6_4 C 0.5276(14) 0.0432(4) 0.1899(8)
H8_4 H 0.386588 0.054636 0.199172
C8_4 C 0.6623(13) 0.1421(4) 0.2761(7)
N1_4 N 0.8330(9) 0.8564(3) 0.1782(5)
O3_4 O 0.5530(8) 0.7815(2) 0.0427(5)
C4_4 C 0.7706(13) 0.9679(3) 0.1308(7)
C5_4 C 0.5626(13) 0.9866(4) 0.1449(8)
H7_4 H 0.444172 0.960658 0.123899
C7_4 C 0.8142(12) 0.9055(3) 0.0869(6)
H9_4 H 0.949244 0.906654 0.054122
H10_4 H 0.696565 0.895108 0.023098
C9_4 C 0.6183(12) 0.8435(4) 0.2137(7)
H11_4 H 0.639556 0.818042 0.283567
H12_4 H 0.551693 0.880941 0.233532
C10_4 C 0.4665(12) 0.8121(3) 0.1148(7)
C11_4 C 0.9973(12) 0.8720(3) 0.2828(7)
H14_4 H 0.926356 0.894828 0.338134
O7_4 O 0.9176(10) 0.8018(3) 0.8954(5)
H4_4 H 0.833987 0.783019 0.840890
H3_3 H 0.955273 0.195611 0.123580
H5_3 H 0.973976 0.908285 0.779116
H5_4 H 0.026024 0.091715 0.220884
H3_4 H 0.044727 0.804389 0.876420
loop_
_geom_bond_atom_site_label_1
_geom_bond_atom_site_label_2
_geom_bond_site_symmetry_1
_geom_bond_site_symmetry_2
Sm1 N1 1_555 1_555
N1 C7 1_555 1_555
O1 C8 1_555 1_555
O3 Sm1 1_555 1_555
O4 Sm1 1_555 1_555
O5 C12 1_555 1_555
O6 Sm1 1_555 1_555
H1 O6 1_555 1_555
H2 O6 1_555 1_555
O7 Sm1 1_555 1_555
H3 O7 1_555 1_555
H4 O7 1_555 1_555
C1 C2 1_555 1_555
C2 H5 1_555 1_555
C3 C2 1_555 1_555
H6 C3 1_555 1_555
C4 C3 1_555 1_555
C5 C4 1_555 1_555
C6 C1 1_555 1_555
C7 C4 1_555 1_555
H9 C7 1_555 1_555
H10 C7 1_555 1_555
C8 C1 1_555 1_555
C9 N1 1_555 1_555
H11 C9 1_555 1_555
H12 C9 1_555 1_555
C11 N1 1_555 1_555
H13 C11 1_555 1_555
H14 C11 1_555 1_555
C12 O4 1_555 1_555
Sm3 O1 1_555 1_555
O9 Sm1 1_555 1_555
O10 Sm1 1_555 1_555
O11 Sm1 1_555 1_555
O12 Sm1 1_555 1_555
C5 C6 1_555 1_555
C11 C12 1_555 1_555
O12 C10 1_555 1_555
H4_2 O7_2 1_555 1_555
Sm3 N1_2 1_555 1_555
N1_2 C7_2 1_555 1_555
O3_2 Sm3 1_555 1_555
O8 C10_2 1_555 1_555
C5_2 C4_2 1_555 1_555
H7_2 C5_2 1_555 1_555
C7_2 C4_2 1_555 1_555
H9_2 C7_2 1_555 1_555
H10_2 C7_2 1_555 1_555
C9_2 N1_2 1_555 1_555
H11_2 C9_2 1_555 1_555
H12_2 C9_2 1_555 1_555
C10_2 O3_2 1_555 1_555
C11_2 N1_2 1_555 1_555
H14_2 C11_2 1_555 1_555
C9_2 C10_2 1_555 1_555
O9 C8_2 1_555 1_555
O10 C8_2 1_555 1_555
C1_2 C2_2 1_555 1_555
C3_2 C2_2 1_555 1_555
C6_2 C1_2 1_555 1_555
H8_2 C6_2 1_555 1_555
C8_2 C1_2 1_555 1_555
O5_2 C12_2 1_555 1_555
H1_2 O6_2 1_555 1_555
H2_2 O6_2 1_555 1_555
C12_2 O4_2 1_555 1_555
Sm4_2 O5_2 1_555 1_555
O8_2 C10_3 1_555 1_555
Sm4_2 O8_2 1_555 1_555
Sm4_2 N1_3 1_555 1_555
N1_3 C7_3 1_555 1_555
O1_2 C8_3 1_555 1_555
O3_3 Sm4_2 1_555 1_555
O4_3 Sm4_2 1_555 1_555
O11_2 C12_3 1_555 1_555
O6_3 Sm4_2 1_555 1_555
H1_3 O6_3 1_555 1_555
H2_3 O6_3 1_555 1_555
O7_3 Sm4_2 1_555 1_555
H3_2 O7_3 1_555 1_555
H4_3 O7_3 1_555 1_555
C1_3 C2_3 1_555 1_555
C2_3 H5_2 1_555 1_555
C3_3 C2_3 1_555 1_555
H6_3 C3_3 1_555 1_555
C4_3 C3_3 1_555 1_555
C5_3 C4_3 1_555 1_555
C6_3 C1_3 1_555 1_555
C7_3 C4_3 1_555 1_555
H9_3 C7_3 1_555 1_555
H10_3 C7_3 1_555 1_555
C8_3 C1_3 1_555 1_555
C9_3 N1_3 1_555 1_555
H11_3 C9_3 1_555 1_555
H12_3 C9_3 1_555 1_555
C11_3 N1_3 1_555 1_555
H13_3 C11_3 1_555 1_555
H14_3 C11_3 1_555 1_555
C12_3 O4_3 1_555 1_555
Sm4 O1_2 1_555 1_555
O9_2 Sm4_2 1_555 1_555
O10_2 Sm4_2 1_555 1_555
C5_3 C6_3 1_555 1_555
C11_3 C12_3 1_555 1_555
O11 C12_4 1_555 1_555
H1_4 O6_4 1_555 1_555
H2_4 O6_4 1_555 1_555
C12_4 O4_4 1_555 1_555
O9_2 C8_4 1_555 1_555
O10_2 C8_4 1_555 1_555
C1_4 C2_4 1_555 1_555
C3_4 C2_4 1_555 1_555
C6_4 C1_4 1_555 1_555
H8_4 C6_4 1_555 1_555
C8_4 C1_4 1_555 1_555
Sm4 N1_4 1_555 1_555
N1_4 C7_4 1_555 1_555
O3_4 Sm4 1_555 1_555
O12_2 C10_4 1_555 1_555
C5_4 C4_4 1_555 1_555
H7_4 C5_4 1_555 1_555
C7_4 C4_4 1_555 1_555
H9_4 C7_4 1_555 1_555
H10_4 C7_4 1_555 1_555
C9_4 N1_4 1_555 1_555
H11_4 C9_4 1_555 1_555
H12_4 C9_4 1_555 1_555
C10_4 O3_4 1_555 1_555
C11_4 N1_4 1_555 1_555
H14_4 C11_4 1_555 1_555
C9_4 C10_4 1_555 1_555
H4_4 O7_4 1_555 1_555

#END
