
###############################################################################
#
# This file contains modified crystal structure data generated from the
# MOF subset of the Cambridge Structural Database (CSD) v543 
# hosted by the Cambridge Crystallographic Data Centre (CCDC).
#
# This work is licensed under the Creative Commons
# Attribution-NonCommercial-ShareAlike 4.0 International License.
# To view a copy of this license, visit
# http://creativecommons.org/licenses/by-nc-sa/4.0/
# or send a letter to
# Creative Commons, PO Box 1866, Mountain View, CA 94042, USA.
#
# CIF created using the CSD Python API on 29 September 2022
# The structure has been converted into the P1 space group
# The structure has a 3D framework
# The original CSD entry ISASIF is in the monoclinic crystal system
# The framework has been calculated to contain at least 10.0% void space
# The void calculation uses a probe of radius 1.32A, grid spacing 0.4
# The framework is charged, counterions have been retained in the structure
#
###############################################################################

data_ISASIF
_chemical_formula_moiety         '(C144 H160 Ag2 N16 O16 2+)n'
_symmetry_cell_setting           triclinic
_symmetry_space_group_name_H-M   'P 1'
_symmetry_Int_Tables_number      1
_space_group_name_Hall           'P 1'
loop_
_symmetry_equiv_pos_site_id
_symmetry_equiv_pos_as_xyz
1 x,y,z
_cell_length_a                   21.6760(3)
_cell_length_b                   11.3410(1)
_cell_length_c                   15.7510(2)
_cell_angle_alpha                90
_cell_angle_beta                 93.566(1)
_cell_angle_gamma                90
_cell_volume                     3864.53
loop_
_atom_site_label
_atom_site_type_symbol
_atom_site_fract_x
_atom_site_fract_y
_atom_site_fract_z
Ag2 Ag -0.0000 0.57050(3) 0.7500
O3 O 0.06870(10) 0.46873(19) 0.59690(13)
N3 N 0.01763(12) 0.4392(2) 0.64331(16)
C21 C 0.01475(14) 0.3331(3) 0.52192(19)
C22 C 0.06536(14) 0.4021(3) 0.52451(19)
C23 C 0.11659(15) 0.4198(3) 0.4678(2)
H24 H 0.1441 0.3512 0.4716
H25 H 0.1399 0.4907 0.4854
H26 H 0.0997 0.4292 0.4091
H27 H 0.0156 0.2618 0.4027
C26 C 0.04836(16) 0.0747(3) 0.5202(2)
H29 H 0.0822 0.1256 0.5345
C19 C 0.07021(17) 0.3048(3) 0.8682(2)
H21 H 0.0814 0.3478 0.8174
H22 H 0.0621 0.2221 0.8535
H23 H 0.1043 0.3094 0.9119
C20 C 0.01373(15) 0.3585(3) 0.9012(2)
O4 O 0.06780(10) 0.81641(19) 0.75728(14)
N5 N 0.08296(12) 0.6966(2) 0.74674(16)
C28 C 0.17459(15) 0.5726(3) 0.7577(2)
H31 H 0.1451 0.5140 0.7339
H32 H 0.1908 0.5469 0.8141
H33 H 0.2088 0.5808 0.7202
C29 C 0.14282(14) 0.6883(3) 0.76493(19)
C30 C 0.16879(15) 0.7995(3) 0.7886(2)
C31 C 0.12056(16) 0.8750(3) 0.7827(2)
C33 C 0.23434(16) 0.8227(4) 0.8214(2)
H37 H 0.2437 0.9078 0.8160
H38 H 0.2631 0.7782 0.7869
C34 C 0.24403(15) 0.7857(3) 0.9147(2)
C35 C 0.22020(16) 0.8541(3) 0.9776(2)
H39 H 0.1995 0.9258 0.9630
C36 C 0.27364(16) 0.6816(3) 0.9379(2)
H40 H 0.2900 0.6335 0.8953
Ag1 Ag 0.0000 0.42950(3) 0.2500
C1 C 0.07021(17) 0.6952(3) 0.3682(2)
H1 H 0.0814 0.6522 0.3174
H2 H 0.0621 0.7779 0.3535
H3 H 0.1043 0.6906 0.4119
C2 C 0.01373(15) 0.6415(3) 0.4012(2)
C6 C 0.00853(17) 0.7503(3) 0.5467(2)
H8 H 0.0522 0.7309 0.5631
C7 C 0.00447(15) 0.8796(3) 0.52102(19)
C9 C 0.05315(16) 0.9560(3) 0.5411(2)
H10 H 0.0900 0.9269 0.5694
N4 N 0.01763(12) 0.5608(2) 0.14331(16)
N6 N 0.08296(12) 0.3034(2) 0.24674(16)
Ag3 Ag 0.5000 0.07050(3) 0.7500
O4_2 O 0.56780(10) 0.31641(19) 0.75728(14)
N5_2 N 0.58296(12) 0.1966(2) 0.74674(16)
C28_2 C 0.67459(15) 0.0726(3) 0.7577(2)
H31_2 H 0.6451 0.0140 0.7339
H32_2 H 0.6908 0.0469 0.8141
H33_2 H 0.7088 0.0808 0.7202
C29_2 C 0.64282(14) 0.1883(3) 0.76493(19)
C30_2 C 0.66879(15) 0.2995(3) 0.7886(2)
C31_2 C 0.62056(16) 0.3750(3) 0.7827(2)
C32 C 0.6120(2) 0.5035(3) 0.7971(3)
H34 H 0.6522 0.5401 0.8120
H35 H 0.5847 0.5152 0.8436
H36 H 0.5935 0.5399 0.7451
C33_2 C 0.73434(16) 0.3227(4) 0.8214(2)
H37_2 H 0.7437 0.4078 0.8160
H38_2 H 0.7631 0.2782 0.7869
C34_2 C 0.74403(15) 0.2857(3) 0.9147(2)
C35_2 C 0.72020(16) 0.3541(3) 0.9776(2)
H39_2 H 0.6995 0.4258 0.9630
C36_2 C 0.77364(16) 0.1816(3) 0.9379(2)
H40_2 H 0.7900 0.1335 0.8953
O1 O 0.06870(10) 0.53127(19) 0.09690(13)
O2 O 0.06780(10) 0.18359(19) 0.25728(14)
C3 C 0.01475(14) 0.6669(3) 0.02192(19)
C4 C 0.06536(14) 0.5979(3) 0.02451(19)
C8 C 0.04836(16) 0.9253(3) 0.0202(2)
H9 H 0.0822 0.8744 0.0345
C10 C 0.17459(15) 0.4274(3) 0.2577(2)
H11 H 0.1451 0.4860 0.2339
H12 H 0.1908 0.4531 0.3141
H13 H 0.2088 0.4192 0.2202
C11 C 0.14282(14) 0.3117(3) 0.26493(19)
C12 C 0.16879(15) 0.2005(3) 0.2886(2)
C13 C 0.12056(16) 0.1250(3) 0.2827(2)
C15 C 0.23434(16) 0.1773(4) 0.3214(2)
H17 H 0.2437 0.0922 0.3160
H18 H 0.2631 0.2218 0.2869
C16 C 0.24403(15) 0.2143(3) 0.4147(2)
C17 C 0.22020(16) 0.1459(3) 0.4776(2)
H19 H 0.1995 0.0742 0.4630
C18 C 0.27364(16) 0.3184(3) 0.4379(2)
H20 H 0.2900 0.3665 0.3953
O4_3 O 0.43220(10) 0.31641(19) 0.74272(14)
N5_3 N 0.41704(12) 0.1966(2) 0.75326(16)
C28_3 C 0.32541(15) 0.0726(3) 0.7423(2)
H31_3 H 0.3549 0.0140 0.7661
H32_3 H 0.3092 0.0469 0.6859
H33_3 H 0.2912 0.0808 0.7798
C29_3 C 0.35718(14) 0.1883(3) 0.73507(19)
C30_3 C 0.33121(15) 0.2995(3) 0.7114(2)
C31_3 C 0.37944(16) 0.3750(3) 0.7173(2)
C32_2 C 0.3880(2) 0.5035(3) 0.7029(3)
H34_2 H 0.3478 0.5401 0.6880
H35_2 H 0.4153 0.5152 0.6564
H36_2 H 0.4065 0.5399 0.7549
C33_3 C 0.26566(16) 0.3227(4) 0.6786(2)
H37_3 H 0.2563 0.4078 0.6840
H38_3 H 0.2369 0.2782 0.7131
C34_3 C 0.25597(15) 0.2857(3) 0.5853(2)
C35_3 C 0.27980(16) 0.3541(3) 0.5224(2)
H39_3 H 0.3005 0.4258 0.5370
C36_3 C 0.22636(16) 0.1816(3) 0.5621(2)
H40_3 H 0.2100 0.1335 0.6047
Ag2_2 Ag 1.0000 0.57050(3) 0.7500
C19_2 C 0.92979(17) 0.3048(3) 0.6318(2)
H21_2 H 0.9186 0.3478 0.6826
H22_2 H 0.9379 0.2221 0.6465
H23_2 H 0.8957 0.3094 0.5881
C20_2 C 0.98627(15) 0.3585(3) 0.5988(2)
C24 C 0.99147(17) 0.2497(3) 0.4533(2)
H28 H 0.9478 0.2691 0.4369
C25 C 0.99553(15) 0.1204(3) 0.47898(19)
C27 C 0.94685(16) 0.0440(3) 0.4589(2)
H30 H 0.9100 0.0731 0.4306
O3_2 O 0.93130(10) 0.46873(19) 0.90310(13)
N3_2 N 0.98237(12) 0.4392(2) 0.85669(16)
C21_2 C 0.98525(14) 0.3331(3) 0.97808(19)
C22_2 C 0.93464(14) 0.4021(3) 0.97549(19)
C26_2 C 0.95164(16) 0.0747(3) 0.9798(2)
H29_2 H 0.9178 0.1256 0.9655
Ag1_2 Ag 0.5000 0.92950(3) 0.2500
O2_2 O 0.43220(10) 0.68359(19) 0.24272(14)
N2 N 0.41704(12) 0.8034(2) 0.25326(16)
C10_2 C 0.32541(15) 0.9274(3) 0.2423(2)
H11_2 H 0.3549 0.9860 0.2661
H12_2 H 0.3092 0.9531 0.1859
H13_2 H 0.2912 0.9192 0.2798
C11_2 C 0.35718(14) 0.8117(3) 0.23507(19)
C12_2 C 0.33121(15) 0.7005(3) 0.2114(2)
C13_2 C 0.37944(16) 0.6250(3) 0.2173(2)
C14 C 0.3880(2) 0.4965(3) 0.2029(3)
H14 H 0.3478 0.4599 0.1880
H15 H 0.4153 0.4848 0.1564
H16 H 0.4065 0.4601 0.2549
C15_2 C 0.26566(16) 0.6773(4) 0.1786(2)
H17_2 H 0.2563 0.5922 0.1840
H18_2 H 0.2369 0.7218 0.2131
C16_2 C 0.25597(15) 0.7143(3) 0.0853(2)
C17_2 C 0.27980(16) 0.6459(3) 0.0224(2)
H19_2 H 0.3005 0.5742 0.0370
C18_2 C 0.22636(16) 0.8184(3) 0.0621(2)
H20_2 H 0.2100 0.8665 0.1047
N6_2 N 0.58296(12) 0.8034(2) 0.24674(16)
O2_3 O 0.56780(10) 0.68359(19) 0.25728(14)
C10_3 C 0.67459(15) 0.9274(3) 0.2577(2)
H11_3 H 0.6451 0.9860 0.2339
H12_3 H 0.6908 0.9531 0.3141
H13_3 H 0.7088 0.9192 0.2202
C11_3 C 0.64282(14) 0.8117(3) 0.26493(19)
C12_3 C 0.66879(15) 0.7005(3) 0.2886(2)
C13_3 C 0.62056(16) 0.6250(3) 0.2827(2)
C14_2 C 0.6120(2) 0.4965(3) 0.2971(3)
H14_2 H 0.6522 0.4599 0.3120
H15_2 H 0.5847 0.4848 0.3436
H16_2 H 0.5935 0.4601 0.2451
C15_3 C 0.73434(16) 0.6773(4) 0.3214(2)
H17_3 H 0.7437 0.5922 0.3160
H18_3 H 0.7631 0.7218 0.2869
C16_3 C 0.74403(15) 0.7143(3) 0.4147(2)
C17_3 C 0.72020(16) 0.6459(3) 0.4776(2)
H19_3 H 0.6995 0.5742 0.4630
C18_3 C 0.77364(16) 0.8184(3) 0.4379(2)
H20_3 H 0.7900 0.8665 0.3953
O4_4 O 0.93220(10) 0.81641(19) 0.74272(14)
N5_4 N 0.91704(12) 0.6966(2) 0.75326(16)
C28_4 C 0.82541(15) 0.5726(3) 0.7423(2)
H31_4 H 0.8549 0.5140 0.7661
H32_4 H 0.8092 0.5469 0.6859
H33_4 H 0.7912 0.5808 0.7798
C29_4 C 0.85718(14) 0.6883(3) 0.73507(19)
C30_4 C 0.83121(15) 0.7995(3) 0.7114(2)
C31_4 C 0.87944(16) 0.8750(3) 0.7173(2)
C33_4 C 0.76566(16) 0.8227(4) 0.6786(2)
H37_4 H 0.7563 0.9078 0.6840
H38_4 H 0.7369 0.7782 0.7131
C34_4 C 0.75597(15) 0.7857(3) 0.5853(2)
C35_4 C 0.77980(16) 0.8541(3) 0.5224(2)
H39_4 H 0.8005 0.9258 0.5370
C36_4 C 0.72636(16) 0.6816(3) 0.5621(2)
H40_4 H 0.7100 0.6335 0.6047
Ag1_3 Ag 1.0000 0.42950(3) 0.2500
O1_2 O 0.93130(10) 0.53127(19) 0.40310(13)
O2_4 O 0.93220(10) 0.18359(19) 0.24272(14)
N1 N 0.98237(12) 0.5608(2) 0.35669(16)
N2_2 N 0.91704(12) 0.3034(2) 0.25326(16)
C3_2 C 0.98525(14) 0.6669(3) 0.47808(19)
C4_2 C 0.93464(14) 0.5979(3) 0.47549(19)
C5 C 0.88341(15) 0.5802(3) 0.5322(2)
H4 H 0.8559 0.6488 0.5284
H5 H 0.8601 0.5093 0.5146
H6 H 0.9003 0.5708 0.5909
H7 H 0.9844 0.7382 0.5973
C8_2 C 0.95164(16) 0.9253(3) 0.4798(2)
H9_2 H 0.9178 0.8744 0.4655
C10_4 C 0.82541(15) 0.4274(3) 0.2423(2)
H11_4 H 0.8549 0.4860 0.2661
H12_4 H 0.8092 0.4531 0.1859
H13_4 H 0.7912 0.4192 0.2798
C11_4 C 0.85718(14) 0.3117(3) 0.23507(19)
C12_4 C 0.83121(15) 0.2005(3) 0.2114(2)
C13_4 C 0.87944(16) 0.1250(3) 0.2173(2)
C15_4 C 0.76566(16) 0.1773(4) 0.1786(2)
H17_4 H 0.7563 0.0922 0.1840
H18_4 H 0.7369 0.2218 0.2131
C16_4 C 0.75597(15) 0.2143(3) 0.0853(2)
C17_4 C 0.77980(16) 0.1459(3) 0.0224(2)
H19_4 H 0.8005 0.0742 0.0370
C18_4 C 0.72636(16) 0.3184(3) 0.0621(2)
H20_4 H 0.7100 0.3665 0.1047
C1_2 C 0.92979(17) 0.6952(3) 0.1318(2)
H1_2 H 0.9186 0.6522 0.1826
H2_2 H 0.9379 0.7779 0.1465
H3_2 H 0.8957 0.6906 0.0881
C2_2 C 0.98627(15) 0.6415(3) 0.0988(2)
C14_3 C 0.8880(2) 0.9965(3) 0.2029(3)
H14_3 H 0.8478 0.9599 0.1880
H15_3 H 0.9153 0.9848 0.1564
H16_3 H 0.9065 0.9601 0.2549
C24_2 C 0.00853(17) 0.2497(3) 0.0467(2)
H28_2 H 0.0522 0.2691 0.0631
C25_2 C 0.00447(15) 0.1204(3) 0.02102(19)
C27_2 C 0.05315(16) 0.0440(3) 0.0411(2)
H30_2 H 0.0900 0.0731 0.0694
C5_2 C 0.11659(15) 0.5802(3) 0.9678(2)
H4_2 H 0.1441 0.6488 0.9716
H5_2 H 0.1399 0.5093 0.9854
H6_2 H 0.0997 0.5708 0.9091
H7_2 H 0.0156 0.7382 0.9027
C14_4 C 0.1120(2) 0.9965(3) 0.2971(3)
H14_4 H 0.1522 0.9599 0.3120
H15_4 H 0.0847 0.9848 0.3436
H16_4 H 0.0935 0.9601 0.2451
O1_3 O 0.43130(10) 0.03127(19) 0.40310(13)
N1_2 N 0.48237(12) 0.0608(2) 0.35669(16)
C1_3 C 0.57021(17) 0.1952(3) 0.3682(2)
H1_3 H 0.5814 0.1522 0.3174
H2_3 H 0.5621 0.2779 0.3535
H3_3 H 0.6043 0.1906 0.4119
C2_3 C 0.51373(15) 0.1415(3) 0.4012(2)
C3_3 C 0.48525(14) 0.1669(3) 0.47808(19)
C4_3 C 0.43464(14) 0.0979(3) 0.47549(19)
C5_3 C 0.38341(15) 0.0802(3) 0.5322(2)
H4_3 H 0.3559 0.1488 0.5284
H5_3 H 0.3601 0.0093 0.5146
H6_3 H 0.4003 0.0708 0.5909
C6_2 C 0.50853(17) 0.2503(3) 0.5467(2)
H7_3 H 0.4844 0.2382 0.5973
H8_2 H 0.5522 0.2309 0.5631
C7_2 C 0.50447(15) 0.3796(3) 0.52102(19)
C8_3 C 0.45164(16) 0.4253(3) 0.4798(2)
H9_3 H 0.4178 0.3744 0.4655
C9_2 C 0.55315(16) 0.4560(3) 0.5411(2)
H10_2 H 0.5900 0.4269 0.5694
O3_3 O 0.56870(10) 0.96873(19) 0.59690(13)
N3_3 N 0.51763(12) 0.9392(2) 0.64331(16)
N4_2 N 0.51763(12) 0.0608(2) 0.14331(16)
C19_3 C 0.42979(17) 0.8048(3) 0.6318(2)
H21_3 H 0.4186 0.8478 0.6826
H22_3 H 0.4379 0.7221 0.6465
H23_3 H 0.3957 0.8094 0.5881
C20_3 C 0.48627(15) 0.8585(3) 0.5988(2)
C21_3 C 0.51475(14) 0.8331(3) 0.52192(19)
C22_3 C 0.56536(14) 0.9021(3) 0.52451(19)
C23_2 C 0.61659(15) 0.9198(3) 0.4678(2)
H24_2 H 0.6441 0.8512 0.4716
H25_2 H 0.6399 0.9907 0.4854
H26_2 H 0.5997 0.9292 0.4091
C24_3 C 0.49147(17) 0.7497(3) 0.4533(2)
H27_2 H 0.5156 0.7618 0.4027
H28_3 H 0.4478 0.7691 0.4369
C25_3 C 0.49553(15) 0.6204(3) 0.47898(19)
C26_3 C 0.54836(16) 0.5747(3) 0.5202(2)
H29_3 H 0.5822 0.6256 0.5345
C27_3 C 0.44685(16) 0.5440(3) 0.4589(2)
H30_3 H 0.4100 0.5731 0.4306
O1_4 O 0.56870(10) 0.03127(19) 0.09690(13)
C1_4 C 0.42979(17) 0.1952(3) 0.1318(2)
H1_4 H 0.4186 0.1522 0.1826
H2_4 H 0.4379 0.2779 0.1465
H3_4 H 0.3957 0.1906 0.0881
C2_4 C 0.48627(15) 0.1415(3) 0.0988(2)
C3_4 C 0.51475(14) 0.1669(3) 0.02192(19)
C4_4 C 0.56536(14) 0.0979(3) 0.02451(19)
C8_4 C 0.54836(16) 0.4253(3) 0.0202(2)
H9_4 H 0.5822 0.3744 0.0345
C23_3 C 0.38341(15) 0.9198(3) 0.0322(2)
H24_3 H 0.3559 0.8512 0.0284
H25_3 H 0.3601 0.9907 0.0146
H26_3 H 0.4003 0.9292 0.0909
C24_4 C 0.50853(17) 0.7497(3) 0.0467(2)
H27_3 H 0.4844 0.7618 0.0973
H28_4 H 0.5522 0.7691 0.0631
C25_4 C 0.50447(15) 0.6204(3) 0.02102(19)
C27_4 C 0.55315(16) 0.5440(3) 0.0411(2)
H30_4 H 0.5900 0.5731 0.0694
C32_3 C 0.8880(2) 0.0035(3) 0.7029(3)
H34_3 H 0.8478 0.0401 0.6880
H35_3 H 0.9153 0.0152 0.6564
H36_3 H 0.9065 0.0399 0.7549
C5_4 C 0.61659(15) 0.0802(3) 0.9678(2)
H4_4 H 0.6441 0.1488 0.9716
H5_4 H 0.6399 0.0093 0.9854
H6_4 H 0.5997 0.0708 0.9091
C6_3 C 0.49147(17) 0.2503(3) 0.9533(2)
H7_4 H 0.5156 0.2382 0.9027
H8_3 H 0.4478 0.2309 0.9369
C7_3 C 0.49553(15) 0.3796(3) 0.97898(19)
C9_3 C 0.44685(16) 0.4560(3) 0.9589(2)
H10_3 H 0.4100 0.4269 0.9306
O3_4 O 0.43130(10) 0.96873(19) 0.90310(13)
N3_4 N 0.48237(12) 0.9392(2) 0.85669(16)
C19_4 C 0.57021(17) 0.8048(3) 0.8682(2)
H21_4 H 0.5814 0.8478 0.8174
H22_4 H 0.5621 0.7221 0.8535
H23_4 H 0.6043 0.8094 0.9119
C20_4 C 0.51373(15) 0.8585(3) 0.9012(2)
C21_4 C 0.48525(14) 0.8331(3) 0.97808(19)
C22_4 C 0.43464(14) 0.9021(3) 0.97549(19)
C26_4 C 0.45164(16) 0.5747(3) 0.9798(2)
H29_4 H 0.4178 0.6256 0.9655
C23_4 C 0.88341(15) 0.4198(3) 0.0322(2)
H24_4 H 0.8559 0.3512 0.0284
H25_4 H 0.8601 0.4907 0.0146
H26_4 H 0.9003 0.4292 0.0909
H27_4 H 0.9844 0.2618 0.0973
C6_4 C 0.99147(17) 0.7503(3) 0.9533(2)
H8_4 H 0.9478 0.7309 0.9369
C7_4 C 0.99553(15) 0.8796(3) 0.97898(19)
C9_4 C 0.94685(16) 0.9560(3) 0.9589(2)
H10_4 H 0.9100 0.9269 0.9306
C32_4 C 0.1120(2) 0.0035(3) 0.7971(3)
H34_4 H 0.1522 0.0401 0.8120
H35_4 H 0.0847 0.0152 0.8436
H36_4 H 0.0935 0.0399 0.7451
loop_
_geom_bond_atom_site_label_1
_geom_bond_atom_site_label_2
_geom_bond_site_symmetry_1
_geom_bond_site_symmetry_2
Ag2 N3 1_555 1_555
O3 N3 1_555 1_555
C22 O3 1_555 1_555
C23 C22 1_555 1_555
H24 C23 1_555 1_555
H25 C23 1_555 1_555
H26 C23 1_555 1_555
H29 C26 1_555 1_555
C21 C22 1_555 1_555
C19 H21 1_555 1_555
H22 C19 1_555 1_555
H23 C19 1_555 1_555
C20 C19 1_555 1_555
Ag2 N5 1_555 1_555
O4 N5 1_555 1_555
N5 C29 1_555 1_555
C28 H31 1_555 1_555
H32 C28 1_555 1_555
H33 C28 1_555 1_555
C29 C28 1_555 1_555
C30 C29 1_555 1_555
C31 O4 1_555 1_555
C33 C30 1_555 1_555
H37 C33 1_555 1_555
H38 C33 1_555 1_555
C34 C33 1_555 1_555
H39 C35 1_555 1_555
H40 C36 1_555 1_555
C30 C31 1_555 1_555
C34 C35 1_555 1_555
C34 C36 1_555 1_555
C1 H1 1_555 1_555
H2 C1 1_555 1_555
H3 C1 1_555 1_555
C2 C1 1_555 1_555
H8 C6 1_555 1_555
C7 C6 1_555 1_555
C9 C7 1_555 1_555
H10 C9 1_555 1_555
N4 Ag1 1_555 1_555
N6 Ag1 1_555 1_555
Ag3 N5_2 1_555 1_555
O4_2 N5_2 1_555 1_555
N5_2 C29_2 1_555 1_555
C28_2 H31_2 1_555 1_555
H32_2 C28_2 1_555 1_555
H33_2 C28_2 1_555 1_555
C29_2 C28_2 1_555 1_555
C30_2 C29_2 1_555 1_555
C31_2 O4_2 1_555 1_555
C32 C31_2 1_555 1_555
H34 C32 1_555 1_555
H35 C32 1_555 1_555
H36 C32 1_555 1_555
C33_2 C30_2 1_555 1_555
H37_2 C33_2 1_555 1_555
H38_2 C33_2 1_555 1_555
C34_2 C33_2 1_555 1_555
H39_2 C35_2 1_555 1_555
H40_2 C36_2 1_555 1_555
C30_2 C31_2 1_555 1_555
C34_2 C35_2 1_555 1_555
C34_2 C36_2 1_555 1_555
O1 N4 1_555 1_555
O2 N6 1_555 1_555
C4 O1 1_555 1_555
H9 C8 1_555 1_555
C10 H11 1_555 1_555
H12 C10 1_555 1_555
H13 C10 1_555 1_555
C11 N6 1_555 1_555
C12 C11 1_555 1_555
C13 O2 1_555 1_555
C15 C12 1_555 1_555
H17 C15 1_555 1_555
H18 C15 1_555 1_555
C16 C15 1_555 1_555
C17 C16 1_555 1_555
H19 C17 1_555 1_555
C18 C16 1_555 1_555
H20 C18 1_555 1_555
Ag3 N5_3 1_555 1_555
O4_3 N5_3 1_555 1_555
N5_3 C29_3 1_555 1_555
C28_3 H31_3 1_555 1_555
H32_3 C28_3 1_555 1_555
H33_3 C28_3 1_555 1_555
C29_3 C28_3 1_555 1_555
C30_3 C29_3 1_555 1_555
C31_3 O4_3 1_555 1_555
C32_2 C31_3 1_555 1_555
H34_2 C32_2 1_555 1_555
H35_2 C32_2 1_555 1_555
H36_2 C32_2 1_555 1_555
C33_3 C30_3 1_555 1_555
H37_3 C33_3 1_555 1_555
H38_3 C33_3 1_555 1_555
C34_3 C33_3 1_555 1_555
C35_3 C18 1_555 1_555
H39_3 C35_3 1_555 1_555
C36_3 C17 1_555 1_555
H40_3 C36_3 1_555 1_555
C3 C4 1_555 1_555
C10 C11 1_555 1_555
C12 C13 1_555 1_555
C30_3 C31_3 1_555 1_555
C34_3 C35_3 1_555 1_555
C34_3 C36_3 1_555 1_555
C19_2 H21_2 1_555 1_555
H22_2 C19_2 1_555 1_555
H23_2 C19_2 1_555 1_555
C20_2 C19_2 1_555 1_555
H28 C24 1_555 1_555
C25 C24 1_555 1_555
H30 C27 1_555 1_555
C25 C27 1_555 1_555
Ag2_2 N3_2 1_555 1_555
O3_2 N3_2 1_555 1_555
C22_2 O3_2 1_555 1_555
H29_2 C26_2 1_555 1_555
C21_2 C22_2 1_555 1_555
O2_2 N2 1_555 1_555
N2 Ag1_2 1_555 1_555
C10_2 H11_2 1_555 1_555
H12_2 C10_2 1_555 1_555
H13_2 C10_2 1_555 1_555
C11_2 N2 1_555 1_555
C12_2 C11_2 1_555 1_555
C13_2 O2_2 1_555 1_555
C14 C13_2 1_555 1_555
H14 C14 1_555 1_555
H15 C14 1_555 1_555
H16 C14 1_555 1_555
C15_2 C12_2 1_555 1_555
H17_2 C15_2 1_555 1_555
H18_2 C15_2 1_555 1_555
C16_2 C15_2 1_555 1_555
C17_2 C16_2 1_555 1_555
H19_2 C17_2 1_555 1_555
C18_2 C16_2 1_555 1_555
H20_2 C18_2 1_555 1_555
N6_2 Ag1_2 1_555 1_555
C10_2 C11_2 1_555 1_555
C12_2 C13_2 1_555 1_555
O2_3 N6_2 1_555 1_555
C10_3 H11_3 1_555 1_555
H12_3 C10_3 1_555 1_555
H13_3 C10_3 1_555 1_555
C11_3 N6_2 1_555 1_555
C12_3 C11_3 1_555 1_555
C13_3 O2_3 1_555 1_555
C14_2 C13_3 1_555 1_555
H14_2 C14_2 1_555 1_555
H15_2 C14_2 1_555 1_555
H16_2 C14_2 1_555 1_555
C15_3 C12_3 1_555 1_555
H17_3 C15_3 1_555 1_555
H18_3 C15_3 1_555 1_555
C16_3 C15_3 1_555 1_555
C17_3 C16_3 1_555 1_555
H19_3 C17_3 1_555 1_555
C18_3 C16_3 1_555 1_555
H20_3 C18_3 1_555 1_555
Ag2_2 N5_4 1_555 1_555
O4_4 N5_4 1_555 1_555
N5_4 C29_4 1_555 1_555
C28_4 H31_4 1_555 1_555
H32_4 C28_4 1_555 1_555
H33_4 C28_4 1_555 1_555
C29_4 C28_4 1_555 1_555
C30_4 C29_4 1_555 1_555
C31_4 O4_4 1_555 1_555
C33_4 C30_4 1_555 1_555
H37_4 C33_4 1_555 1_555
H38_4 C33_4 1_555 1_555
C34_4 C33_4 1_555 1_555
C35_4 C18_3 1_555 1_555
H39_4 C35_4 1_555 1_555
C36_4 C17_3 1_555 1_555
H40_4 C36_4 1_555 1_555
C10_3 C11_3 1_555 1_555
C12_3 C13_3 1_555 1_555
C30_4 C31_4 1_555 1_555
C34_4 C35_4 1_555 1_555
C34_4 C36_4 1_555 1_555
Ag1_3 N1 1_555 1_555
O1_2 N1 1_555 1_555
O2_4 N2_2 1_555 1_555
N2_2 Ag1_3 1_555 1_555
C4_2 O1_2 1_555 1_555
C5 C4_2 1_555 1_555
H4 C5 1_555 1_555
H5 C5 1_555 1_555
H6 C5 1_555 1_555
H9_2 C8_2 1_555 1_555
C10_4 H11_4 1_555 1_555
H12_4 C10_4 1_555 1_555
H13_4 C10_4 1_555 1_555
C11_4 N2_2 1_555 1_555
C12_4 C11_4 1_555 1_555
C13_4 O2_4 1_555 1_555
C15_4 C12_4 1_555 1_555
H17_4 C15_4 1_555 1_555
H18_4 C15_4 1_555 1_555
C16_4 C15_4 1_555 1_555
C17_4 C16_4 1_555 1_555
H19_4 C17_4 1_555 1_555
C18_4 C16_4 1_555 1_555
H20_4 C18_4 1_555 1_555
C3_2 C4_2 1_555 1_555
C10_4 C11_4 1_555 1_555
C12_4 C13_4 1_555 1_555
C1_2 H1_2 1_555 1_555
H2_2 C1_2 1_555 1_555
H3_2 C1_2 1_555 1_555
C2_2 C1_2 1_555 1_555
H14_3 C14_3 1_555 1_555
H15_3 C14_3 1_555 1_555
H16_3 C14_3 1_555 1_555
H28_2 C24_2 1_555 1_555
C25_2 C24_2 1_555 1_555
H30_2 C27_2 1_555 1_555
C25_2 C27_2 1_555 1_555
H4_2 C5_2 1_555 1_555
H5_2 C5_2 1_555 1_555
H6_2 C5_2 1_555 1_555
H14_4 C14_4 1_555 1_555
H15_4 C14_4 1_555 1_555
H16_4 C14_4 1_555 1_555
O1_3 N1_2 1_555 1_555
N1_2 C2_3 1_555 1_555
C1_3 H1_3 1_555 1_555
H2_3 C1_3 1_555 1_555
H3_3 C1_3 1_555 1_555
C2_3 C1_3 1_555 1_555
C3_3 C2_3 1_555 1_555
C4_3 O1_3 1_555 1_555
C5_3 C4_3 1_555 1_555
H4_3 C5_3 1_555 1_555
H5_3 C5_3 1_555 1_555
H6_3 C5_3 1_555 1_555
C6_2 C3_3 1_555 1_555
H7_3 C6_2 1_555 1_555
H8_2 C6_2 1_555 1_555
C7_2 C6_2 1_555 1_555
C8_3 C7_2 1_555 1_555
H9_3 C8_3 1_555 1_555
C9_2 C7_2 1_555 1_555
H10_2 C9_2 1_555 1_555
O3_3 N3_3 1_555 1_555
N3_3 C20_3 1_555 1_555
C19_3 H21_3 1_555 1_555
H22_3 C19_3 1_555 1_555
H23_3 C19_3 1_555 1_555
C20_3 C19_3 1_555 1_555
C21_3 C20_3 1_555 1_555
C22_3 O3_3 1_555 1_555
C23_2 C22_3 1_555 1_555
H24_2 C23_2 1_555 1_555
H25_2 C23_2 1_555 1_555
H26_2 C23_2 1_555 1_555
C24_3 C21_3 1_555 1_555
H27_2 C24_3 1_555 1_555
H28_3 C24_3 1_555 1_555
C25_3 C24_3 1_555 1_555
C26_3 C9_2 1_555 1_555
H29_3 C26_3 1_555 1_555
C27_3 C8_3 1_555 1_555
H30_3 C27_3 1_555 1_555
C3_3 C4_3 1_555 1_555
C21_3 C22_3 1_555 1_555
C25_3 C26_3 1_555 1_555
C25_3 C27_3 1_555 1_555
O1_4 N4_2 1_555 1_555
N4_2 C2_4 1_555 1_555
C1_4 H1_4 1_555 1_555
H2_4 C1_4 1_555 1_555
H3_4 C1_4 1_555 1_555
C2_4 C1_4 1_555 1_555
C3_4 C2_4 1_555 1_555
C4_4 O1_4 1_555 1_555
H9_4 C8_4 1_555 1_555
H24_3 C23_3 1_555 1_555
H25_3 C23_3 1_555 1_555
H26_3 C23_3 1_555 1_555
H27_3 C24_4 1_555 1_555
H28_4 C24_4 1_555 1_555
C25_4 C24_4 1_555 1_555
C27_4 C8_4 1_555 1_555
H30_4 C27_4 1_555 1_555
H34_3 C32_3 1_555 1_555
H35_3 C32_3 1_555 1_555
H36_3 C32_3 1_555 1_555
C3_4 C4_4 1_555 1_555
C25_4 C27_4 1_555 1_555
H4_4 C5_4 1_555 1_555
H5_4 C5_4 1_555 1_555
H6_4 C5_4 1_555 1_555
H7_4 C6_3 1_555 1_555
H8_3 C6_3 1_555 1_555
C7_3 C6_3 1_555 1_555
C9_3 C7_3 1_555 1_555
H10_3 C9_3 1_555 1_555
O3_4 N3_4 1_555 1_555
N3_4 C20_4 1_555 1_555
C19_4 H21_4 1_555 1_555
H22_4 C19_4 1_555 1_555
H23_4 C19_4 1_555 1_555
C20_4 C19_4 1_555 1_555
C21_4 C20_4 1_555 1_555
C22_4 O3_4 1_555 1_555
C26_4 C9_3 1_555 1_555
H29_4 C26_4 1_555 1_555
C21_4 C22_4 1_555 1_555
H24_4 C23_4 1_555 1_555
H25_4 C23_4 1_555 1_555
H26_4 C23_4 1_555 1_555
H8_4 C6_4 1_555 1_555
C7_4 C6_4 1_555 1_555
C9_4 C7_4 1_555 1_555
H10_4 C9_4 1_555 1_555
H34_4 C32_4 1_555 1_555
H35_4 C32_4 1_555 1_555
H36_4 C32_4 1_555 1_555

#END
