
###############################################################################
#
# This file contains modified crystal structure data generated from the
# MOF subset of the Cambridge Structural Database (CSD) v543 
# hosted by the Cambridge Crystallographic Data Centre (CCDC).
#
# This work is licensed under the Creative Commons
# Attribution-NonCommercial-ShareAlike 4.0 International License.
# To view a copy of this license, visit
# http://creativecommons.org/licenses/by-nc-sa/4.0/
# or send a letter to
# Creative Commons, PO Box 1866, Mountain View, CA 94042, USA.
#
# CIF created using the CSD Python API on 29 September 2022
# The structure has been converted into the P1 space group
# The structure has a 3D framework
# The original CSD entry ISEGIY is in the rhombohedral crystal system
# The framework has been calculated to contain at least 10.0% void space
# The void calculation uses a probe of radius 1.32A, grid spacing 0.4
#
###############################################################################

data_ISEGIY
_chemical_formula_moiety         '(C36 H36 Cu11 O50)n'
_symmetry_cell_setting           triclinic
_symmetry_space_group_name_H-M   'P 1'
_symmetry_Int_Tables_number      1
_space_group_name_Hall           'P 1'
loop_
_symmetry_equiv_pos_site_id
_symmetry_equiv_pos_as_xyz
1 x,y,z
_cell_length_a                   11.7555(3)
_cell_length_b                   11.7555(3)
_cell_length_c                   14.8987(7)
_cell_angle_alpha                90
_cell_angle_beta                 90
_cell_angle_gamma                120
_cell_volume                     1783.04
loop_
_atom_site_label
_atom_site_type_symbol
_atom_site_fract_x
_atom_site_fract_y
_atom_site_fract_z
Cu1 Cu 0.3333 0.1667 0.1667
C1 C 0.4938(8) 0.4385(8) 0.0516(5)
C2 C 0.5935(12) 0.5694(8) 0.0207(6)
O1 O 0.4886(6) 0.3649(6) 0.1138(4)
O2 O 0.7080(9) 0.6517(6) 0.0431(4)
O3 O 0.1687(6) 0.1606(7) 0.0886(4)
H1 H 0.184(8) 0.207(9) 0.030(4)
H2 H 0.116(7) 0.186(10) 0.120(5)
O6 O 0.4980(6) 0.1727(7) 0.2447(4)
H3 H 0.483(8) 0.126(9) 0.303(4)
H4 H 0.551(7) 0.147(10) 0.213(5)
Cu2 Cu 0.8334 0.6667 0.1667
O8 O 0.3483(6) 0.0563(11) 0.0431(4)
O9 O 0.3184(6) 0.2770(11) 0.2902(4)
C3 C 0.5062(8) 0.5615(8) 0.9484(5)
O4 O 0.5114(6) 0.6351(6) 0.8862(4)
C4 C 0.4065(12) 0.4306(8) 0.9793(6)
O5 O 0.2920(9) 0.3483(6) 0.9569(4)
Cu3 Cu 0.6666 0.8334 0.8334
Cu4 Cu 0.1667 0.3334 0.8334
O7 O 0.1781(6) 0.9684(6) 0.2195(4)
O7_2 O 0.0316(6) 0.2096(8) 0.2195(4)
Cu1_2 Cu 0.8333 0.1666 0.1667
C1_2 C 0.5615(8) 0.0553(11) 0.0516(5)
C2_2 C 0.4306(8) 0.0241(14) 0.0207(6)
O1_2 O 0.6351(6) 0.1237(8) 0.1138(4)
O3_2 O 0.8394(7) 0.0081(9) 0.0886(4)
O6_2 O 0.8273(7) 0.3252(9) 0.2447(4)
H3_2 H 0.874(9) 0.356(12) 0.303(4)
H4_2 H 0.853(10) 0.403(12) 0.213(5)
O8_2 O 0.9437(11) 0.2920(13) 0.0431(4)
O9_2 O 0.7230(11) 0.0413(13) 0.2902(4)
C3_2 C 0.4385(8) 0.9447(11) 0.9484(5)
O4_2 O 0.3649(6) 0.8763(8) 0.8862(4)
C4_2 C 0.5694(8) 0.9759(14) 0.9793(6)
O5_2 O 0.6517(6) 0.9437(11) 0.9569(4)
Cu3_2 Cu 0.1666 0.8333 0.8334
C3_3 C 0.0553(11) 0.4938(8) 0.9484(5)
O4_3 O 0.1237(8) 0.4886(6) 0.8862(4)
C4_3 C 0.0241(14) 0.5935(12) 0.9793(6)
O5_3 O 0.0563(11) 0.7080(9) 0.9569(4)
C1_3 C 0.9447(11) 0.5062(8) 0.0516(5)
C2_3 C 0.9759(14) 0.4065(12) 0.0207(6)
O1_3 O 0.8763(8) 0.5114(6) 0.1138(4)
O3_3 O 0.9919(9) 0.8313(6) 0.0886(4)
O6_3 O 0.6748(9) 0.5020(6) 0.2447(4)
H3_3 H 0.644(12) 0.517(8) 0.303(4)
H4_3 H 0.597(12) 0.449(7) 0.213(5)
O7_3 O 0.7904(8) 0.8219(6) 0.2195(4)
O9_3 O 0.9587(13) 0.6816(6) 0.2902(4)
Cu2_2 Cu 0.5001 0.0000 0.5000
Cu1_3 Cu -0.0000 0.5000 0.5000
C1_4 C 0.1605(8) 0.7718(8) 0.3849(5)
C2_4 C 0.2602(12) 0.9027(8) 0.3540(6)
O1_4 O 0.1553(6) 0.6982(6) 0.4471(4)
O2_2 O 0.3747(9) 0.9850(6) 0.3764(4)
C3_4 C 0.1729(8) 0.8948(8) 0.2817(5)
C4_4 C 0.0732(12) 0.7639(8) 0.3126(6)
O6_4 O 0.1646(6) 0.5061(7) 0.5781(4)
H3_4 H 0.149(8) 0.460(9) 0.637(4)
H4_4 H 0.217(7) 0.481(10) 0.547(5)
Cu2_3 Cu 0.5001 1.0000 0.5000
O8_3 O 0.0150(6) 0.3896(11) 0.3764(4)
Cu1_4 Cu 1.0000 0.5000 0.5000
O3_4 O 0.8354(6) 0.4939(7) 0.4219(4)
H1_2 H 0.851(8) 0.540(9) 0.363(4)
H2_2 H 0.783(7) 0.519(10) 0.453(5)
O7_4 O 0.8447(6) 0.3018(6) 0.5529(4)
O9_4 O 0.9850(6) 0.6104(11) 0.6236(4)
Cu1_5 Cu 0.5000 0.4999 0.5000
C1_5 C 0.2282(8) 0.3886(11) 0.3849(5)
C2_5 C 0.0973(8) 0.3574(14) 0.3540(6)
O1_5 O 0.3018(6) 0.4570(8) 0.4471(4)
O3_5 O 0.5061(7) 0.3414(9) 0.4219(4)
H1_3 H 0.460(9) 0.310(12) 0.363(4)
H2_3 H 0.481(10) 0.263(12) 0.453(5)
C3_5 C 0.1052(8) 0.2780(11) 0.2817(5)
C4_5 C 0.2361(8) 0.3092(14) 0.3126(6)
O6_5 O 0.4939(7) 0.6586(9) 0.5781(4)
H3_5 H 0.540(9) 0.690(12) 0.637(4)
H4_5 H 0.519(10) 0.737(12) 0.547(5)
O7_5 O 0.6982(6) 0.5430(8) 0.5529(4)
O8_4 O 0.6104(11) 0.6253(13) 0.3764(4)
O9_5 O 0.3896(11) 0.3747(13) 0.6236(4)
O3_6 O 0.6586(9) 0.1646(6) 0.4219(4)
H1_4 H 0.690(12) 0.149(8) 0.363(4)
H2_4 H 0.737(12) 0.217(7) 0.453(5)
O7_6 O 0.4570(8) 0.1553(6) 0.5529(4)
O9_6 O 0.6253(13) 0.0150(6) 0.6236(4)
C1_6 C 0.6114(11) 0.8395(8) 0.3849(5)
C2_6 C 0.6426(14) 0.7398(12) 0.3540(6)
O1_6 O 0.5430(8) 0.8447(6) 0.4471(4)
C3_6 C 0.7220(11) 0.8271(8) 0.2817(5)
C4_6 C 0.6908(14) 0.9268(12) 0.3126(6)
O6_6 O 0.3414(9) 0.8354(6) 0.5781(4)
H3_6 H 0.310(12) 0.851(8) 0.637(4)
H4_6 H 0.263(12) 0.783(7) 0.547(5)
O2_3 O 0.0413(9) 0.3184(6) 0.7098(4)
C1_7 C 0.8271(8) 0.1052(8) 0.7183(5)
C2_7 C 0.9268(12) 0.2361(8) 0.6874(6)
O1_7 O 0.8219(6) 0.0316(6) 0.7805(4)
C3_7 C 0.8395(8) 0.2282(8) 0.6151(5)
C4_7 C 0.7398(12) 0.0973(8) 0.6460(6)
O3_7 O 0.5020(6) 0.8273(7) 0.7553(4)
H1_5 H 0.517(8) 0.874(9) 0.697(4)
H2_5 H 0.449(7) 0.853(10) 0.787(5)
O6_7 O 0.8313(6) 0.8394(7) 0.9114(4)
H3_7 H 0.816(8) 0.793(9) 0.970(4)
H4_7 H 0.884(7) 0.814(10) 0.880(5)
O8_5 O 0.6816(6) 0.7230(11) 0.7098(4)
O3_8 O 0.1727(7) 0.6748(9) 0.7553(4)
H1_6 H 0.126(9) 0.644(12) 0.697(4)
H2_6 H 0.147(10) 0.597(12) 0.787(5)
O6_8 O 0.1606(7) 0.9919(9) 0.9114(4)
O8_6 O 0.2770(11) 0.9587(13) 0.7098(4)
C1_8 C 0.8948(8) 0.7220(11) 0.7183(5)
C2_8 C 0.7639(8) 0.6908(14) 0.6874(6)
O1_8 O 0.9684(6) 0.7904(8) 0.7805(4)
C3_8 C 0.7718(8) 0.6114(11) 0.6151(5)
C4_8 C 0.9027(8) 0.6426(14) 0.6460(6)
C1_9 C 0.2780(11) 0.1729(8) 0.7183(5)
C2_9 C 0.3092(14) 0.0732(12) 0.6874(6)
O1_9 O 0.2096(8) 0.1781(6) 0.7805(4)
O3_9 O 0.3252(9) 0.4980(6) 0.7553(4)
H1_7 H 0.356(12) 0.483(8) 0.697(4)
H2_7 H 0.403(12) 0.551(7) 0.787(5)
C3_9 C 0.3886(11) 0.1605(8) 0.6151(5)
C4_9 C 0.3574(14) 0.2602(12) 0.6460(6)
O6_9 O 0.0081(9) 0.1687(6) 0.9114(4)
H1_8 H 0.793(9) 0.977(12) 0.030(4)
H2_8 H 0.814(10) 0.930(12) 0.120(5)
H1_9 H 0.023(12) 0.816(8) 0.030(4)
H2_9 H 0.070(12) 0.884(7) 0.120(5)
H3_8 H 0.207(9) 0.023(12) 0.970(4)
H4_8 H 0.186(10) 0.070(12) 0.880(5)
H3_9 H 0.977(12) 0.184(8) 0.970(4)
H4_9 H 0.930(12) 0.116(7) 0.880(5)
loop_
_geom_bond_atom_site_label_1
_geom_bond_atom_site_label_2
_geom_bond_site_symmetry_1
_geom_bond_site_symmetry_2
Cu1 O1 1_555 1_555
C1 C2 1_555 1_555
C2 O2 1_555 1_555
O1 C1 1_555 1_555
O2 Cu2 1_555 1_555
O3 Cu1 1_555 1_555
H1 O3 1_555 1_555
H2 O3 1_555 1_555
O6 Cu1 1_555 1_555
H3 O6 1_555 1_555
H4 O6 1_555 1_555
O8 Cu1 1_555 1_555
O9 Cu1 1_555 1_555
O4 C3 1_555 1_555
O5 C4 1_555 1_555
Cu3 O4 1_555 1_555
Cu4 O5 1_555 1_555
C3 C4 1_555 1_555
Cu1_2 O1_2 1_555 1_555
C1_2 C2_2 1_555 1_555
C2_2 O8 1_555 1_555
O1_2 C1_2 1_555 1_555
O3_2 Cu1_2 1_555 1_555
O6_2 Cu1_2 1_555 1_555
H3_2 O6_2 1_555 1_555
H4_2 O6_2 1_555 1_555
O8_2 Cu1_2 1_555 1_555
O9_2 Cu1_2 1_555 1_555
O4_2 C3_2 1_555 1_555
O5_2 C4_2 1_555 1_555
Cu3_2 O4_2 1_555 1_555
Cu3 O5_2 1_555 1_555
C3_2 C4_2 1_555 1_555
O4_3 C3_3 1_555 1_555
O5_3 C4_3 1_555 1_555
Cu4 O4_3 1_555 1_555
Cu3_2 O5_3 1_555 1_555
C3_3 C4_3 1_555 1_555
Cu2 O1_3 1_555 1_555
C1_3 C2_3 1_555 1_555
C2_3 O8_2 1_555 1_555
O1_3 C1_3 1_555 1_555
O3_3 Cu2 1_555 1_555
O6_3 Cu2 1_555 1_555
H3_3 O6_3 1_555 1_555
H4_3 O6_3 1_555 1_555
O7_3 Cu2 1_555 1_555
O9_3 Cu2 1_555 1_555
Cu1_3 O1_4 1_555 1_555
C1_4 C2_4 1_555 1_555
C2_4 O2_2 1_555 1_555
O1_4 C1_4 1_555 1_555
O2_2 Cu2_3 1_555 1_555
C3_4 C2_4 1_555 1_555
O7 C3_4 1_555 1_555
C4_4 C1_4 1_555 1_555
O6_4 Cu1_3 1_555 1_555
H3_4 O6_4 1_555 1_555
H4_4 O6_4 1_555 1_555
O8_3 Cu1_3 1_555 1_555
C3_4 C4_4 1_555 1_555
O3_4 Cu1_4 1_555 1_555
H1_2 O3_4 1_555 1_555
H2_2 O3_4 1_555 1_555
O7_4 Cu1_4 1_555 1_555
O9_4 Cu1_4 1_555 1_555
Cu1_5 O1_5 1_555 1_555
C1_5 C2_5 1_555 1_555
C2_5 O8_3 1_555 1_555
O1_5 C1_5 1_555 1_555
O3_5 Cu1_5 1_555 1_555
H1_3 O3_5 1_555 1_555
H2_3 O3_5 1_555 1_555
C3_5 C2_5 1_555 1_555
O7_2 C3_5 1_555 1_555
C4_5 C1_5 1_555 1_555
O9 C4_5 1_555 1_555
O6_5 Cu1_5 1_555 1_555
H3_5 O6_5 1_555 1_555
H4_5 O6_5 1_555 1_555
O7_5 Cu1_5 1_555 1_555
O8_4 Cu1_5 1_555 1_555
O9_5 Cu1_5 1_555 1_555
C3_5 C4_5 1_555 1_555
O3_6 Cu2_2 1_555 1_555
H1_4 O3_6 1_555 1_555
H2_4 O3_6 1_555 1_555
O7_6 Cu2_2 1_555 1_555
O9_6 Cu2_2 1_555 1_555
Cu2_3 O1_6 1_555 1_555
C1_6 C2_6 1_555 1_555
C2_6 O8_4 1_555 1_555
O1_6 C1_6 1_555 1_555
C3_6 C2_6 1_555 1_555
O7_3 C3_6 1_555 1_555
C4_6 C1_6 1_555 1_555
O6_6 Cu2_3 1_555 1_555
H3_6 O6_6 1_555 1_555
H4_6 O6_6 1_555 1_555
C3_6 C4_6 1_555 1_555
O2_3 Cu4 1_555 1_555
C1_7 C2_7 1_555 1_555
O1_7 C1_7 1_555 1_555
C3_7 C2_7 1_555 1_555
O7_4 C3_7 1_555 1_555
C4_7 C1_7 1_555 1_555
O9_6 C4_7 1_555 1_555
C3_7 C4_7 1_555 1_555
O3_7 Cu3 1_555 1_555
H1_5 O3_7 1_555 1_555
H2_5 O3_7 1_555 1_555
O6_7 Cu3 1_555 1_555
H3_7 O6_7 1_555 1_555
H4_7 O6_7 1_555 1_555
O8_5 Cu3 1_555 1_555
O3_8 Cu3_2 1_555 1_555
H1_6 O3_8 1_555 1_555
H2_6 O3_8 1_555 1_555
O6_8 Cu3_2 1_555 1_555
O8_6 Cu3_2 1_555 1_555
C1_8 C2_8 1_555 1_555
C2_8 O8_5 1_555 1_555
O1_8 C1_8 1_555 1_555
C3_8 C2_8 1_555 1_555
O7_5 C3_8 1_555 1_555
C4_8 C1_8 1_555 1_555
O9_4 C4_8 1_555 1_555
C3_8 C4_8 1_555 1_555
Cu4 O1_9 1_555 1_555
C1_9 C2_9 1_555 1_555
O1_9 C1_9 1_555 1_555
O3_9 Cu4 1_555 1_555
H1_7 O3_9 1_555 1_555
H2_7 O3_9 1_555 1_555
C3_9 C2_9 1_555 1_555
O7_6 C3_9 1_555 1_555
C4_9 C1_9 1_555 1_555
O9_5 C4_9 1_555 1_555
O6_9 Cu4 1_555 1_555
C3_9 C4_9 1_555 1_555

#END
