
###############################################################################
#
# This file contains modified crystal structure data generated from the
# MOF subset of the Cambridge Structural Database (CSD) v543 
# hosted by the Cambridge Crystallographic Data Centre (CCDC).
#
# This work is licensed under the Creative Commons
# Attribution-NonCommercial-ShareAlike 4.0 International License.
# To view a copy of this license, visit
# http://creativecommons.org/licenses/by-nc-sa/4.0/
# or send a letter to
# Creative Commons, PO Box 1866, Mountain View, CA 94042, USA.
#
# CIF created using the CSD Python API on 29 September 2022
# The structure has been converted into the P1 space group
# The structure has a 3D framework
# The original CSD entry ISEGET is in the rhombohedral crystal system
# The framework has been calculated to contain at least 10.0% void space
# The void calculation uses a probe of radius 1.32A, grid spacing 0.4
#
###############################################################################

data_ISEGET
_chemical_formula_moiety         '(C108 H72 Co12 K12 N18 O50)n'
_symmetry_cell_setting           triclinic
_symmetry_space_group_name_H-M   'P 1'
_symmetry_Int_Tables_number      1
_space_group_name_Hall           'P 1'
loop_
_symmetry_equiv_pos_site_id
_symmetry_equiv_pos_as_xyz
1 x,y,z
_cell_length_a                   10.3579(14)
_cell_length_b                   10.3579(14)
_cell_length_c                   38.158(3)
_cell_angle_alpha                90
_cell_angle_beta                 90
_cell_angle_gamma                120
_cell_volume                     3545.35
loop_
_atom_site_label
_atom_site_type_symbol
_atom_site_fract_x
_atom_site_fract_y
_atom_site_fract_z
K3 K 0.0000 0.0001 0.91288(3)
K3_2 K 0.0000 1.0001 0.91288(3)
N2 N 0.0447(4) 0.6233(6) 0.77468(8)
H5 H 0.0261 0.5612 0.7578
C11 C 0.1024(5) 0.8217(8) 0.82549(13)
H7 H 0.1233 0.8921 0.8430
C13 C 0.1978(6) 0.8653(9) 0.79607(14)
H9 H 0.2802 0.9605 0.7942
C15 C 0.1632(5) 0.7616(8) 0.77080(13)
H11 H 0.2213 0.7856 0.7507
K3_3 K 1.0000 0.0001 0.91288(3)
Co1 Co 0.6667 0.3333 0.83700(2)
K1 K 0.6667 0.3333 0.74621(3)
O1 O 0.5875(3) 0.1501(3) 0.80333(7)
C1 C 0.6221(5) 0.0494(5) 0.80343(10)
C2 C 0.7016(5) 0.0180(4) 0.82996(10)
O2 O 0.7470(4) 0.2244(4) 0.86738(6)
O3 O 0.8132(4) 0.0668(4) 0.88601(8)
C6 C 0.7560(5) 0.1105(6) 0.86305(12)
K3_4 K 1.0000 1.0001 0.91288(3)
N3 N 0.3767(6) 0.4214(4) 0.77468(8)
H6 H 0.4388 0.4649 0.7578
O4 O 0.8499(3) 0.4374(4) 0.80333(7)
O5 O 0.5626(4) 0.4125(3) 0.80333(7)
C7 C 0.9506(5) 0.5727(7) 0.80343(10)
C8 C 0.4273(7) 0.3779(5) 0.80343(10)
C9 C 0.9820(4) 0.6836(6) 0.82996(10)
C10 C 0.3164(6) 0.2984(5) 0.82996(10)
C12 C 0.1783(8) 0.2807(6) 0.82549(13)
H8 H 0.1079 0.2312 0.8430
C14 C 0.1347(9) 0.3325(7) 0.79607(14)
H10 H 0.0395 0.3197 0.7942
C16 C 0.2384(8) 0.4016(6) 0.77080(13)
H12 H 0.2144 0.4357 0.7507
O6 O 0.7756(4) 0.5226(6) 0.86738(6)
O7 O 0.4774(6) 0.2530(4) 0.86738(6)
O8 O 0.9332(4) 0.7464(6) 0.88601(8)
O9 O 0.2536(6) 0.1868(4) 0.88601(8)
O10 O 0.5999(4) 0.5201(4) 0.71934(8)
O11 O 0.9203(6) 0.4001(4) 0.71934(8)
O12 O 0.4799(4) 0.0797(6) 0.71934(8)
C17 C 0.8895(6) 0.6455(8) 0.86305(12)
C18 C 0.3545(8) 0.2440(5) 0.86305(12)
N1 N 0.5786(4) 0.9553(4) 0.77468(8)
H1 H 0.5351 0.9739 0.7578
C3 C 0.7193(6) 0.8976(5) 0.82549(13)
H2 H 0.7688 0.8767 0.8430
C4 C 0.6675(7) 0.8022(6) 0.79607(14)
H3 H 0.6803 0.7198 0.7942
C5 C 0.5984(6) 0.8368(5) 0.77080(13)
H4 H 0.5643 0.7787 0.7507
K4 K 0.0000 0.0001 0.41288(3)
N1_2 N 0.0447(4) 0.4214(4) 0.27468(8)
H1_2 H 0.0261 0.4649 0.2578
C3_2 C 0.1024(5) 0.2807(6) 0.32549(13)
H2_2 H 0.1233 0.2312 0.3430
C4_2 C 0.1978(6) 0.3325(7) 0.29607(14)
H3_2 H 0.2802 0.3197 0.2942
C5_2 C 0.1632(5) 0.4016(6) 0.27080(13)
H4_2 H 0.2213 0.4357 0.2507
K4_2 K 0.0000 1.0001 0.41288(3)
K4_3 K 1.0000 0.0001 0.41288(3)
Co1_2 Co 0.6667 0.3333 0.33700(2)
K1_2 K 0.6667 0.3333 0.24621(3)
O1_2 O 0.8499(3) 0.4125(3) 0.30333(7)
C1_2 C 0.9506(5) 0.3779(5) 0.30343(10)
C2_2 C 0.9820(4) 0.2984(5) 0.32996(10)
O2_2 O 0.7756(4) 0.2530(4) 0.36738(6)
O3_2 O 0.9332(4) 0.1868(4) 0.38601(8)
C6_2 C 0.8895(6) 0.2440(5) 0.36305(12)
K4_4 K 1.0000 1.0001 0.41288(3)
N3_2 N 0.5786(4) 0.6233(6) 0.27468(8)
H6_2 H 0.5351 0.5612 0.2578
O4_2 O 0.5626(4) 0.1501(3) 0.30333(7)
O5_2 O 0.5875(3) 0.4374(4) 0.30333(7)
C7_2 C 0.4273(7) 0.0494(5) 0.30343(10)
C8_2 C 0.6221(5) 0.5727(7) 0.30343(10)
C9_2 C 0.3164(6) 0.0180(4) 0.32996(10)
C10_2 C 0.7016(5) 0.6836(6) 0.32996(10)
C12_2 C 0.7193(6) 0.8217(8) 0.32549(13)
H8_2 H 0.7688 0.8921 0.3430
C14_2 C 0.6675(7) 0.8653(9) 0.29607(14)
H10_2 H 0.6803 0.9605 0.2942
C16_2 C 0.5984(6) 0.7616(8) 0.27080(13)
H12_2 H 0.5643 0.7856 0.2507
O6_2 O 0.4774(6) 0.2244(4) 0.36738(6)
O7_2 O 0.7470(4) 0.5226(6) 0.36738(6)
O8_2 O 0.2536(6) 0.0668(4) 0.38601(8)
O9_2 O 0.8132(4) 0.7464(6) 0.38601(8)
O10_2 O 0.4799(4) 0.4001(4) 0.21934(8)
O11_2 O 0.5999(4) 0.0797(6) 0.21934(8)
O12_2 O 0.9203(6) 0.5201(4) 0.21934(8)
C17_2 C 0.3545(8) 0.1105(6) 0.36305(12)
C18_2 C 0.7560(5) 0.6455(8) 0.36305(12)
N2_2 N 0.3767(6) 0.9553(4) 0.27468(8)
H5_2 H 0.4388 0.9739 0.2578
C11_2 C 0.1783(8) 0.8976(5) 0.32549(13)
H7_2 H 0.1079 0.8767 0.3430
C13_2 C 0.1347(9) 0.8022(6) 0.29607(14)
H9_2 H 0.0395 0.7198 0.2942
C15_2 C 0.2384(8) 0.8368(5) 0.27080(13)
H11_2 H 0.2144 0.7787 0.2507
C9_3 C 0.6487(4) 0.0169(6) 0.16329(10)
C11_3 C 0.7691(5) 0.1550(8) 0.15882(13)
H7_3 H 0.7900 0.2254 0.1763
C13_3 C 0.8645(6) 0.1986(9) 0.12940(14)
H9_3 H 0.9469 0.2938 0.1275
C15_3 C 0.8299(5) 0.0949(8) 0.10413(13)
H11_3 H 0.8880 0.1189 0.0840
Co1_3 Co 0.3334 0.6666 0.17033(2)
K1_3 K 0.3334 0.6666 0.07954(3)
N1_3 N 0.2453(4) 0.2886(4) 0.10801(8)
H1_3 H 0.2018 0.3072 0.0911
O1_3 O 0.2542(3) 0.4834(3) 0.13666(7)
C1_3 C 0.2888(5) 0.3827(5) 0.13676(10)
C2_3 C 0.3683(5) 0.3513(4) 0.16329(10)
C3_3 C 0.3860(6) 0.2309(5) 0.15882(13)
H2_3 H 0.4355 0.2100 0.1763
C4_3 C 0.3342(7) 0.1355(6) 0.12940(14)
H3_3 H 0.3470 0.0531 0.1275
C5_3 C 0.2651(6) 0.1701(5) 0.10413(13)
H4_3 H 0.2310 0.1120 0.0840
O2_3 O 0.4137(4) 0.5577(4) 0.20071(6)
C6_3 C 0.4227(5) 0.4438(6) 0.19638(12)
N2_3 N 0.7114(4) 0.9566(6) 0.10801(8)
N3_3 N 0.0434(6) 0.7547(4) 0.10801(8)
H5_3 H 0.6928 0.8945 0.0911
H6_3 H 0.1055 0.7982 0.0911
O4_3 O 0.5166(3) 0.7707(4) 0.13666(7)
O5_3 O 0.2293(4) 0.7458(3) 0.13666(7)
C7_3 C 0.6173(5) 0.9060(7) 0.13676(10)
C8_3 C 0.0940(7) 0.7112(5) 0.13676(10)
O6_3 O 0.4423(4) 0.8559(6) 0.20071(6)
O7_3 O 0.1441(6) 0.5863(4) 0.20071(6)
O10_3 O 0.2665(4) 0.8535(4) 0.05268(8)
O11_3 O 0.5869(6) 0.7335(4) 0.05268(8)
O12_3 O 0.1465(4) 0.4131(6) 0.05268(8)
C17_3 C 0.5562(6) 0.9788(8) 0.19638(12)
C18_3 C 0.0212(8) 0.5773(5) 0.19638(12)
C10_3 C 0.9831(6) 0.6317(5) 0.16329(10)
C12_3 C 0.8450(8) 0.6140(6) 0.15882(13)
H8_3 H 0.7746 0.5645 0.1763
C14_3 C 0.8014(9) 0.6658(7) 0.12940(14)
H10_3 H 0.7062 0.6530 0.1275
C16_3 C 0.9051(8) 0.7349(6) 0.10413(13)
H12_3 H 0.8811 0.7690 0.0840
C10_4 C 0.3683(5) 0.0169(6) 0.66329(10)
C12_4 C 0.3860(6) 0.1550(8) 0.65882(13)
H8_4 H 0.4355 0.2254 0.6763
C14_4 C 0.3342(7) 0.1986(9) 0.62940(14)
H10_4 H 0.3470 0.2938 0.6275
C16_4 C 0.2651(6) 0.0949(8) 0.60413(13)
H12_4 H 0.2310 0.1189 0.5840
Co1_4 Co 0.3334 0.6666 0.67033(2)
K1_4 K 0.3334 0.6666 0.57954(3)
N1_4 N 0.7114(4) 0.7547(4) 0.60801(8)
H1_4 H 0.6928 0.7982 0.5911
O1_4 O 0.5166(3) 0.7458(3) 0.63666(7)
C1_4 C 0.6173(5) 0.7112(5) 0.63676(10)
C2_4 C 0.6487(4) 0.6317(5) 0.66329(10)
C3_4 C 0.7691(5) 0.6140(6) 0.65882(13)
H2_4 H 0.7900 0.5645 0.6763
C4_4 C 0.8645(6) 0.6658(7) 0.62940(14)
H3_4 H 0.9469 0.6530 0.6275
C5_4 C 0.8299(5) 0.7349(6) 0.60413(13)
H4_4 H 0.8880 0.7690 0.5840
O2_4 O 0.4423(4) 0.5863(4) 0.70071(6)
C6_4 C 0.5562(6) 0.5773(5) 0.69638(12)
N2_4 N 0.0434(6) 0.2886(4) 0.60801(8)
N3_4 N 0.2453(4) 0.9566(6) 0.60801(8)
H5_4 H 0.1055 0.3072 0.5911
H6_4 H 0.2018 0.8945 0.5911
O4_4 O 0.2293(4) 0.4834(3) 0.63666(7)
O5_4 O 0.2542(3) 0.7707(4) 0.63666(7)
C7_4 C 0.0940(7) 0.3827(5) 0.63676(10)
C8_4 C 0.2888(5) 0.9060(7) 0.63676(10)
O6_4 O 0.1441(6) 0.5577(4) 0.70071(6)
O7_4 O 0.4137(4) 0.8559(6) 0.70071(6)
O10_4 O 0.1465(4) 0.7335(4) 0.55268(8)
O11_4 O 0.2665(4) 0.4131(6) 0.55268(8)
O12_4 O 0.5869(6) 0.8535(4) 0.55268(8)
C17_4 C 0.0212(8) 0.4438(6) 0.69638(12)
C18_4 C 0.4227(5) 0.9788(8) 0.69638(12)
C9_4 C 0.9831(6) 0.3513(4) 0.66329(10)
C11_4 C 0.8450(8) 0.2309(5) 0.65882(13)
H7_4 H 0.7746 0.2100 0.6763
C13_4 C 0.8014(9) 0.1355(6) 0.62940(14)
H9_4 H 0.7062 0.0531 0.6275
C15_4 C 0.9051(8) 0.1701(5) 0.60413(13)
H11_4 H 0.8811 0.1120 0.5840
Co1_5 Co 0.0000 -0.0000 0.50367(2)
N2_5 N 0.3780(4) 0.2900(6) 0.44135(8)
H5_5 H 0.3594 0.2279 0.4245
O4_5 O 0.1832(3) 0.1041(4) 0.47000(7)
C7_5 C 0.2839(5) 0.2394(7) 0.47010(10)
C9_5 C 0.3153(4) 0.3503(6) 0.49663(10)
C11_5 C 0.4357(5) 0.4884(8) 0.49216(13)
H7_5 H 0.4566 0.5588 0.5097
C13_5 C 0.5311(6) 0.5320(9) 0.46274(14)
H9_5 H 0.6135 0.6272 0.4609
C15_5 C 0.4965(5) 0.4283(8) 0.43747(13)
H11_5 H 0.5546 0.4523 0.4174
O6_5 O 0.1089(4) 0.1893(6) 0.53405(6)
C17_5 C 0.2228(6) 0.3122(8) 0.52972(12)
Co1_6 Co 0.0000 1.0000 0.50367(2)
C2_5 C 0.0349(5) 0.6847(4) 0.49663(10)
C3_5 C 0.0526(6) 0.5643(5) 0.49216(13)
H2_5 H 0.1021 0.5434 0.5097
C4_5 C 0.0008(7) 0.4689(6) 0.46274(14)
H3_5 H 0.0136 0.3865 0.4609
O2_5 O 0.0803(4) 0.8911(4) 0.53405(6)
C6_5 C 0.0893(5) 0.7772(6) 0.52972(12)
Co1_7 Co 1.0000 -0.0000 0.50367(2)
N3_5 N 0.7100(6) 0.0881(4) 0.44135(8)
H6_5 H 0.7721 0.1316 0.4245
O5_5 O 0.8959(4) 0.0792(3) 0.47000(7)
C8_5 C 0.7606(7) 0.0446(5) 0.47010(10)
C16_5 C 0.5717(8) 0.0683(6) 0.43747(13)
H12_5 H 0.5477 0.1024 0.4174
Co1_8 Co 1.0000 1.0000 0.50367(2)
N1_5 N 0.9119(4) 0.6220(4) 0.44135(8)
H1_5 H 0.8684 0.6406 0.4245
O1_5 O 0.9208(3) 0.8168(3) 0.47000(7)
C1_5 C 0.9554(5) 0.7161(5) 0.47010(10)
C5_5 C 0.9317(6) 0.5035(5) 0.43747(13)
H4_5 H 0.8976 0.4454 0.4174
C10_5 C 0.6497(6) 0.9651(5) 0.49663(10)
C12_5 C 0.5116(8) 0.9474(6) 0.49216(13)
H8_5 H 0.4412 0.8979 0.5097
C14_5 C 0.4680(9) 0.9992(7) 0.46274(14)
H10_5 H 0.3728 0.9864 0.4609
O7_5 O 0.8107(6) 0.9197(4) 0.53405(6)
C18_5 C 0.6878(8) 0.9107(5) 0.52972(12)
Co1_9 Co 0.0000 -0.0000 0.00367(2)
H8_6 H 0.1021 0.5588 0.0097
O7_6 O 0.0803(4) 0.1893(6) 0.03405(6)
C18_6 C 0.0893(5) 0.3122(8) 0.02972(12)
N1_6 N 0.3780(4) 0.0881(4) 0.94135(8)
H1_6 H 0.3594 0.1316 0.9245
O1_6 O 0.1832(3) 0.0792(3) 0.97000(7)
C1_6 C 0.2839(5) 0.0446(5) 0.97010(10)
C5_6 C 0.4965(5) 0.0683(6) 0.93747(13)
H4_6 H 0.5546 0.1024 0.9174
C10_6 C 0.0349(5) 0.3503(6) 0.99663(10)
C12_6 C 0.0526(6) 0.4884(8) 0.99216(13)
C14_6 C 0.0008(7) 0.5320(9) 0.96274(14)
H10_6 H 0.0136 0.6272 0.9609
Co1_10 Co 0.0000 1.0000 0.00367(2)
H2_6 H 0.4566 0.8979 0.0097
O2_6 O 0.1089(4) 0.9197(4) 0.03405(6)
C6_6 C 0.2228(6) 0.9107(5) 0.02972(12)
C2_6 C 0.3153(4) 0.9651(5) 0.99663(10)
C3_6 C 0.4357(5) 0.9474(6) 0.99216(13)
C4_6 C 0.5311(6) 0.9992(7) 0.96274(14)
H3_6 H 0.6135 0.9864 0.9609
N3_6 N 0.9119(4) 0.2900(6) 0.94135(8)
H6_6 H 0.8684 0.2279 0.9245
O5_6 O 0.9208(3) 0.1041(4) 0.97000(7)
C8_6 C 0.9554(5) 0.2394(7) 0.97010(10)
C16_6 C 0.9317(6) 0.4283(8) 0.93747(13)
H12_6 H 0.8976 0.4523 0.9174
Co1_11 Co 1.0000 1.0000 0.00367(2)
H7_6 H 0.4412 0.5434 0.0097
O6_6 O 0.8107(6) 0.8911(4) 0.03405(6)
C17_6 C 0.6878(8) 0.7772(6) 0.02972(12)
N2_6 N 0.7100(6) 0.6220(4) 0.94135(8)
H5_6 H 0.7721 0.6406 0.9245
O4_6 O 0.8959(4) 0.8168(3) 0.97000(7)
C7_6 C 0.7606(7) 0.7161(5) 0.97010(10)
C9_6 C 0.6497(6) 0.6847(4) 0.99663(10)
C11_6 C 0.5116(8) 0.5643(5) 0.99216(13)
C13_6 C 0.4680(9) 0.4689(6) 0.96274(14)
H9_6 H 0.3728 0.3865 0.9609
C15_6 C 0.5717(8) 0.5035(5) 0.93747(13)
H11_6 H 0.5477 0.4454 0.9174
Co1_12 Co 1.0000 -0.0000 0.00367(2)
loop_
_geom_bond_atom_site_label_1
_geom_bond_atom_site_label_2
_geom_bond_site_symmetry_1
_geom_bond_site_symmetry_2
N2 H5 1_555 1_555
H7 C11 1_555 1_555
C13 C11 1_555 1_555
H9 C13 1_555 1_555
C15 N2 1_555 1_555
H11 C15 1_555 1_555
C13 C15 1_555 1_555
Co1 O1 1_555 1_555
K1 O1 1_555 1_555
O1 C1 1_555 1_555
C2 C1 1_555 1_555
O2 Co1 1_555 1_555
O3 C6 1_555 1_555
C6 C2 1_555 1_555
K3_3 O3 1_555 1_555
K3_4 O8 1_555 1_555
K3 O9 1_555 1_555
N3 H6 1_555 1_555
O4 Co1 1_555 1_555
O5 Co1 1_555 1_555
C8 N3 1_555 1_555
C9 C7 1_555 1_555
C10 C8 1_555 1_555
C12 C10 1_555 1_555
H8 C12 1_555 1_555
C14 C12 1_555 1_555
H10 C14 1_555 1_555
C16 N3 1_555 1_555
H12 C16 1_555 1_555
O6 Co1 1_555 1_555
O7 Co1 1_555 1_555
O8 C17 1_555 1_555
O9 C18 1_555 1_555
O10 K1 1_555 1_555
O11 K1 1_555 1_555
O12 K1 1_555 1_555
C17 C9 1_555 1_555
C18 C10 1_555 1_555
K1 O4 1_555 1_555
K1 O5 1_555 1_555
O2 C6 1_555 1_555
O4 C7 1_555 1_555
O5 C8 1_555 1_555
C14 C16 1_555 1_555
O6 C17 1_555 1_555
O7 C18 1_555 1_555
N1 H1 1_555 1_555
H2 C3 1_555 1_555
C4 C3 1_555 1_555
H3 C4 1_555 1_555
C5 N1 1_555 1_555
H4 C5 1_555 1_555
C4 C5 1_555 1_555
N1_2 H1_2 1_555 1_555
H2_2 C3_2 1_555 1_555
C4_2 C3_2 1_555 1_555
H3_2 C4_2 1_555 1_555
C5_2 N1_2 1_555 1_555
H4_2 C5_2 1_555 1_555
C4_2 C5_2 1_555 1_555
Co1_2 O1_2 1_555 1_555
K1_2 O1_2 1_555 1_555
O1_2 C1_2 1_555 1_555
C2_2 C1_2 1_555 1_555
O2_2 Co1_2 1_555 1_555
O3_2 C6_2 1_555 1_555
C6_2 C2_2 1_555 1_555
K4_3 O3_2 1_555 1_555
K4 O8_2 1_555 1_555
K4_4 O9_2 1_555 1_555
N3_2 H6_2 1_555 1_555
O4_2 Co1_2 1_555 1_555
O5_2 Co1_2 1_555 1_555
C8_2 N3_2 1_555 1_555
C9_2 C7_2 1_555 1_555
C10_2 C8_2 1_555 1_555
C12_2 C10_2 1_555 1_555
H8_2 C12_2 1_555 1_555
C14_2 C12_2 1_555 1_555
H10_2 C14_2 1_555 1_555
C16_2 N3_2 1_555 1_555
H12_2 C16_2 1_555 1_555
O6_2 Co1_2 1_555 1_555
O7_2 Co1_2 1_555 1_555
O8_2 C17_2 1_555 1_555
O9_2 C18_2 1_555 1_555
O10_2 K1_2 1_555 1_555
O11_2 K1_2 1_555 1_555
O12_2 K1_2 1_555 1_555
C17_2 C9_2 1_555 1_555
C18_2 C10_2 1_555 1_555
K1_2 O4_2 1_555 1_555
K1_2 O5_2 1_555 1_555
O2_2 C6_2 1_555 1_555
O4_2 C7_2 1_555 1_555
O5_2 C8_2 1_555 1_555
C14_2 C16_2 1_555 1_555
O6_2 C17_2 1_555 1_555
O7_2 C18_2 1_555 1_555
N2_2 H5_2 1_555 1_555
H7_2 C11_2 1_555 1_555
C13_2 C11_2 1_555 1_555
H9_2 C13_2 1_555 1_555
C15_2 N2_2 1_555 1_555
H11_2 C15_2 1_555 1_555
C13_2 C15_2 1_555 1_555
C11_3 C9_3 1_555 1_555
H7_3 C11_3 1_555 1_555
C13_3 C11_3 1_555 1_555
H9_3 C13_3 1_555 1_555
H11_3 C15_3 1_555 1_555
C13_3 C15_3 1_555 1_555
Co1_3 O1_3 1_555 1_555
K1_3 O1_3 1_555 1_555
N1_3 H1_3 1_555 1_555
O1_3 C1_3 1_555 1_555
C1_3 N1_3 1_555 1_555
C2_3 C1_3 1_555 1_555
C3_3 C2_3 1_555 1_555
H2_3 C3_3 1_555 1_555
C4_3 C3_3 1_555 1_555
H3_3 C4_3 1_555 1_555
C5_3 N1_3 1_555 1_555
H4_3 C5_3 1_555 1_555
O2_3 Co1_3 1_555 1_555
O10_2 C6_3 1_555 1_555
C6_3 C2_3 1_555 1_555
N2_3 H5_3 1_555 1_555
N3_3 H6_3 1_555 1_555
O4_3 Co1_3 1_555 1_555
O5_3 Co1_3 1_555 1_555
C7_3 N2_3 1_555 1_555
C8_3 N3_3 1_555 1_555
O6_3 Co1_3 1_555 1_555
O7_3 Co1_3 1_555 1_555
O10_3 K1_3 1_555 1_555
O11_3 K1_3 1_555 1_555
O12_3 K1_3 1_555 1_555
K1_3 O4_3 1_555 1_555
K1_3 O5_3 1_555 1_555
C4_3 C5_3 1_555 1_555
O2_3 C6_3 1_555 1_555
O4_3 C7_3 1_555 1_555
O5_3 C8_3 1_555 1_555
O6_3 C17_3 1_555 1_555
O7_3 C18_3 1_555 1_555
C12_3 C10_3 1_555 1_555
H8_3 C12_3 1_555 1_555
C14_3 C12_3 1_555 1_555
H10_3 C14_3 1_555 1_555
H12_3 C16_3 1_555 1_555
C14_3 C16_3 1_555 1_555
C12_4 C10_4 1_555 1_555
H8_4 C12_4 1_555 1_555
C14_4 C12_4 1_555 1_555
H10_4 C14_4 1_555 1_555
H12_4 C16_4 1_555 1_555
C14_4 C16_4 1_555 1_555
Co1_4 O1_4 1_555 1_555
K1_4 O1_4 1_555 1_555
N1_4 H1_4 1_555 1_555
O1_4 C1_4 1_555 1_555
C1_4 N1_4 1_555 1_555
C2_4 C1_4 1_555 1_555
C3_4 C2_4 1_555 1_555
H2_4 C3_4 1_555 1_555
C4_4 C3_4 1_555 1_555
H3_4 C4_4 1_555 1_555
C5_4 N1_4 1_555 1_555
H4_4 C5_4 1_555 1_555
O2_4 Co1_4 1_555 1_555
O10 C6_4 1_555 1_555
C6_4 C2_4 1_555 1_555
N2_4 H5_4 1_555 1_555
N3_4 H6_4 1_555 1_555
O4_4 Co1_4 1_555 1_555
O5_4 Co1_4 1_555 1_555
C7_4 N2_4 1_555 1_555
C8_4 N3_4 1_555 1_555
O6_4 Co1_4 1_555 1_555
O7_4 Co1_4 1_555 1_555
O10_4 K1_4 1_555 1_555
O11_4 K1_4 1_555 1_555
O12_4 K1_4 1_555 1_555
K1_4 O4_4 1_555 1_555
K1_4 O5_4 1_555 1_555
C4_4 C5_4 1_555 1_555
O2_4 C6_4 1_555 1_555
O4_4 C7_4 1_555 1_555
O5_4 C8_4 1_555 1_555
O6_4 C17_4 1_555 1_555
O7_4 C18_4 1_555 1_555
C11_4 C9_4 1_555 1_555
H7_4 C11_4 1_555 1_555
C13_4 C11_4 1_555 1_555
H9_4 C13_4 1_555 1_555
H11_4 C15_4 1_555 1_555
C13_4 C15_4 1_555 1_555
N2_5 H5_5 1_555 1_555
O4_5 Co1_5 1_555 1_555
C7_5 N2_5 1_555 1_555
C9_5 C7_5 1_555 1_555
C11_5 C9_5 1_555 1_555
H7_5 C11_5 1_555 1_555
C13_5 C11_5 1_555 1_555
H9_5 C13_5 1_555 1_555
C15_5 N2_5 1_555 1_555
H11_5 C15_5 1_555 1_555
O6_5 Co1_5 1_555 1_555
O11_4 C17_5 1_555 1_555
C17_5 C9_5 1_555 1_555
K4 O4_5 1_555 1_555
O4_5 C7_5 1_555 1_555
C13_5 C15_5 1_555 1_555
O6_5 C17_5 1_555 1_555
C3_5 C2_5 1_555 1_555
H2_5 C3_5 1_555 1_555
C4_5 C3_5 1_555 1_555
H3_5 C4_5 1_555 1_555
O2_5 Co1_6 1_555 1_555
O10_4 C6_5 1_555 1_555
C6_5 C2_5 1_555 1_555
O2_5 C6_5 1_555 1_555
N3_5 H6_5 1_555 1_555
O5_5 Co1_7 1_555 1_555
C8_5 N3_5 1_555 1_555
C16_5 N3_5 1_555 1_555
H12_5 C16_5 1_555 1_555
K4_3 O5_5 1_555 1_555
O5_5 C8_5 1_555 1_555
Co1_8 O1_5 1_555 1_555
K4_4 O1_5 1_555 1_555
N1_5 H1_5 1_555 1_555
O1_5 C1_5 1_555 1_555
C1_5 N1_5 1_555 1_555
C5_5 N1_5 1_555 1_555
H4_5 C5_5 1_555 1_555
C12_5 C10_5 1_555 1_555
H8_5 C12_5 1_555 1_555
C14_5 C12_5 1_555 1_555
H10_5 C14_5 1_555 1_555
O7_5 Co1_8 1_555 1_555
O12_4 C18_5 1_555 1_555
C18_5 C10_5 1_555 1_555
O7_5 C18_5 1_555 1_555
O7_6 Co1_9 1_555 1_555
O12_3 C18_6 1_555 1_555
O7_6 C18_6 1_555 1_555
K3 O1_6 1_555 1_555
N1_6 H1_6 1_555 1_555
O1_6 C1_6 1_555 1_555
C1_6 N1_6 1_555 1_555
C5_6 N1_6 1_555 1_555
H4_6 C5_6 1_555 1_555
C12_6 C10_6 1_555 1_555
C14_6 C12_6 1_555 1_555
H10_6 C14_6 1_555 1_555
O2_6 Co1_10 1_555 1_555
O10_3 C6_6 1_555 1_555
O2_6 C6_6 1_555 1_555
C3_6 C2_6 1_555 1_555
C4_6 C3_6 1_555 1_555
H3_6 C4_6 1_555 1_555
N3_6 H6_6 1_555 1_555
C8_6 N3_6 1_555 1_555
C16_6 N3_6 1_555 1_555
H12_6 C16_6 1_555 1_555
K3_3 O5_6 1_555 1_555
O5_6 C8_6 1_555 1_555
O6_6 Co1_11 1_555 1_555
O11_3 C17_6 1_555 1_555
O6_6 C17_6 1_555 1_555
N2_6 H5_6 1_555 1_555
C7_6 N2_6 1_555 1_555
C9_6 C7_6 1_555 1_555
C11_6 C9_6 1_555 1_555
C13_6 C11_6 1_555 1_555
H9_6 C13_6 1_555 1_555
C15_6 N2_6 1_555 1_555
H11_6 C15_6 1_555 1_555
K3_4 O4_6 1_555 1_555
O4_6 C7_6 1_555 1_555
C13_6 C15_6 1_555 1_555

#END
