
###############################################################################
#
# This file contains modified crystal structure data generated from the
# MOF subset of the Cambridge Structural Database (CSD) v543 
# hosted by the Cambridge Crystallographic Data Centre (CCDC).
#
# This work is licensed under the Creative Commons
# Attribution-NonCommercial-ShareAlike 4.0 International License.
# To view a copy of this license, visit
# http://creativecommons.org/licenses/by-nc-sa/4.0/
# or send a letter to
# Creative Commons, PO Box 1866, Mountain View, CA 94042, USA.
#
# CIF created using the CSD Python API on 29 September 2022
# The structure has been converted into the P1 space group
# The structure has a 3D framework
# The original CSD entry ISEGAP is in the rhombohedral crystal system
# The framework has been calculated to contain at least 10.0% void space
# The void calculation uses a probe of radius 1.32A, grid spacing 0.4
#
###############################################################################

data_ISEGAP
_chemical_formula_moiety         '(C108 H72 K12 N18 Ni12 O50)n'
_symmetry_cell_setting           triclinic
_symmetry_space_group_name_H-M   'P 1'
_symmetry_Int_Tables_number      1
_space_group_name_Hall           'P 1'
loop_
_symmetry_equiv_pos_site_id
_symmetry_equiv_pos_as_xyz
1 x,y,z
_cell_length_a                   10.2398(14)
_cell_length_b                   10.2398(14)
_cell_length_c                   38.089(8)
_cell_angle_alpha                90
_cell_angle_beta                 90
_cell_angle_gamma                120
_cell_volume                     3458.7
loop_
_atom_site_label
_atom_site_type_symbol
_atom_site_fract_x
_atom_site_fract_y
_atom_site_fract_z
K3 K 0.0000 0.0001 0.91322(4)
K3_2 K 0.0000 1.0001 0.91322(4)
N2 N 0.0428(4) 0.6173(6) 0.77555(11)
H5 H 0.0249 0.5536 0.7589
C11 C 0.1007(6) 0.8219(9) 0.82604(16)
H7 H 0.1213 0.8937 0.8434
C13 C 0.1927(8) 0.8630(13) 0.79633(18)
H9 H 0.2738 0.9604 0.7938
C15 C 0.1607(7) 0.7577(10) 0.77153(17)
H11 H 0.2203 0.7821 0.7515
K3_3 K 1.0000 0.0001 0.91322(4)
Ni1 Ni 0.6667 0.3333 0.836654(19)
K1 K 0.6667 0.3333 0.74655(4)
O1 O 0.5813(3) 0.1508(4) 0.80447(7)
C1 C 0.6188(5) 0.0500(4) 0.80401(12)
C2 C 0.6980(5) 0.0190(5) 0.83047(13)
O2 O 0.7503(3) 0.2307(3) 0.86768(7)
O3 O 0.8088(5) 0.0665(5) 0.88668(11)
C6 C 0.7563(5) 0.1125(5) 0.86338(12)
K3_4 K 1.0000 1.0001 0.91322(4)
N3 N 0.3827(6) 0.4255(4) 0.77555(11)
H6 H 0.4464 0.4713 0.7589
O4 O 0.8492(4) 0.4305(5) 0.80447(7)
O5 O 0.5695(5) 0.4187(3) 0.80447(7)
C7 C 0.9500(4) 0.5688(6) 0.80401(12)
C8 C 0.4312(6) 0.3812(5) 0.80401(12)
C9 C 0.9810(5) 0.6790(7) 0.83047(13)
C10 C 0.3210(7) 0.3020(5) 0.83047(13)
C12 C 0.1781(9) 0.2788(7) 0.82604(16)
H8 H 0.1063 0.2276 0.8434
C14 C 0.1370(13) 0.3297(10) 0.79633(18)
H10 H 0.0396 0.3134 0.7938
C16 C 0.2423(10) 0.4030(7) 0.77153(17)
H12 H 0.2179 0.4382 0.7515
O6 O 0.7693(3) 0.5196(4) 0.86768(7)
O7 O 0.4804(4) 0.2497(3) 0.86768(7)
O8 O 0.9335(5) 0.7423(7) 0.88668(11)
O9 O 0.2577(7) 0.1912(5) 0.88668(11)
O10 O 0.6002(5) 0.5245(5) 0.72001(11)
O11 O 0.9244(7) 0.3998(5) 0.72001(11)
O12 O 0.4755(5) 0.0756(7) 0.72001(11)
C17 C 0.8875(5) 0.6438(7) 0.86338(12)
C18 C 0.3562(7) 0.2437(5) 0.86338(12)
N1 N 0.5745(4) 0.9572(4) 0.77555(11)
H1 H 0.5287 0.9751 0.7589
C3 C 0.7212(7) 0.8993(6) 0.82604(16)
H2 H 0.7724 0.8787 0.8434
C4 C 0.6703(10) 0.8073(8) 0.79633(18)
H3 H 0.6866 0.7262 0.7938
C5 C 0.5970(7) 0.8393(7) 0.77153(17)
H4 H 0.5618 0.7797 0.7515
K4 K 0.0000 0.0001 0.41322(4)
N1_2 N 0.0428(4) 0.4255(4) 0.27555(11)
H1_2 H 0.0249 0.4713 0.2589
C3_2 C 0.1007(6) 0.2788(7) 0.32604(16)
H2_2 H 0.1213 0.2276 0.3434
C4_2 C 0.1927(8) 0.3297(10) 0.29633(18)
H3_2 H 0.2738 0.3134 0.2938
C5_2 C 0.1607(7) 0.4030(7) 0.27153(17)
H4_2 H 0.2203 0.4382 0.2515
K4_2 K 0.0000 1.0001 0.41322(4)
K4_3 K 1.0000 0.0001 0.41322(4)
Ni1_2 Ni 0.6667 0.3333 0.336654(19)
K1_2 K 0.6667 0.3333 0.24655(4)
O1_2 O 0.8492(4) 0.4187(3) 0.30447(7)
C1_2 C 0.9500(4) 0.3812(5) 0.30401(12)
C2_2 C 0.9810(5) 0.3020(5) 0.33047(13)
O2_2 O 0.7693(3) 0.2497(3) 0.36768(7)
O3_2 O 0.9335(5) 0.1912(5) 0.38668(11)
C6_2 C 0.8875(5) 0.2437(5) 0.36338(12)
K4_4 K 1.0000 1.0001 0.41322(4)
N3_2 N 0.5745(4) 0.6173(6) 0.27555(11)
H6_2 H 0.5287 0.5536 0.2589
O4_2 O 0.5695(5) 0.1508(4) 0.30447(7)
O5_2 O 0.5813(3) 0.4305(5) 0.30447(7)
C7_2 C 0.4312(6) 0.0500(4) 0.30401(12)
C8_2 C 0.6188(5) 0.5688(6) 0.30401(12)
C9_2 C 0.3210(7) 0.0190(5) 0.33047(13)
C10_2 C 0.6980(5) 0.6790(7) 0.33047(13)
C12_2 C 0.7212(7) 0.8219(9) 0.32604(16)
H8_2 H 0.7724 0.8937 0.3434
C14_2 C 0.6703(10) 0.8630(13) 0.29633(18)
H10_2 H 0.6866 0.9604 0.2938
C16_2 C 0.5970(7) 0.7577(10) 0.27153(17)
H12_2 H 0.5618 0.7821 0.2515
O6_2 O 0.4804(4) 0.2307(3) 0.36768(7)
O7_2 O 0.7503(3) 0.5196(4) 0.36768(7)
O8_2 O 0.2577(7) 0.0665(5) 0.38668(11)
O9_2 O 0.8088(5) 0.7423(7) 0.38668(11)
O10_2 O 0.4755(5) 0.3998(5) 0.22001(11)
O11_2 O 0.6002(5) 0.0756(7) 0.22001(11)
O12_2 O 0.9244(7) 0.5245(5) 0.22001(11)
C17_2 C 0.3562(7) 0.1125(5) 0.36338(12)
C18_2 C 0.7563(5) 0.6438(7) 0.36338(12)
N2_2 N 0.3827(6) 0.9572(4) 0.27555(11)
H5_2 H 0.4464 0.9751 0.2589
C11_2 C 0.1781(9) 0.8993(6) 0.32604(16)
H7_2 H 0.1063 0.8787 0.3434
C13_2 C 0.1370(13) 0.8073(8) 0.29633(18)
H9_2 H 0.0396 0.7262 0.2938
C15_2 C 0.2423(10) 0.8393(7) 0.27153(17)
H11_2 H 0.2179 0.7797 0.2515
C9_3 C 0.6477(5) 0.0123(7) 0.16380(13)
C11_3 C 0.7674(6) 0.1552(9) 0.15937(16)
H7_3 H 0.7880 0.2270 0.1767
C13_3 C 0.8594(8) 0.1963(13) 0.12966(18)
H9_3 H 0.9405 0.2937 0.1271
C15_3 C 0.8274(7) 0.0910(10) 0.10486(17)
H11_3 H 0.8870 0.1154 0.0848
Ni1_3 Ni 0.3334 0.6666 0.169987(19)
K1_3 K 0.3334 0.6666 0.07988(4)
N1_3 N 0.2412(4) 0.2905(4) 0.10888(11)
H1_3 H 0.1954 0.3084 0.0922
O1_3 O 0.2480(3) 0.4841(4) 0.13780(7)
C1_3 C 0.2855(5) 0.3833(4) 0.13734(12)
C2_3 C 0.3647(5) 0.3523(5) 0.16380(13)
C3_3 C 0.3879(7) 0.2326(6) 0.15937(16)
H2_3 H 0.4391 0.2120 0.1767
C4_3 C 0.3370(10) 0.1406(8) 0.12966(18)
H3_3 H 0.3533 0.0595 0.1271
C5_3 C 0.2637(7) 0.1726(7) 0.10486(17)
H4_3 H 0.2285 0.1130 0.0848
O2_3 O 0.4170(3) 0.5640(3) 0.20101(7)
C6_3 C 0.4230(5) 0.4458(5) 0.19671(12)
N2_3 N 0.7095(4) 0.9506(6) 0.10888(11)
N3_3 N 0.0494(6) 0.7588(4) 0.10888(11)
H5_3 H 0.6916 0.8869 0.0922
H6_3 H 0.1131 0.8046 0.0922
O4_3 O 0.5159(4) 0.7638(5) 0.13780(7)
O5_3 O 0.2362(5) 0.7520(3) 0.13780(7)
C7_3 C 0.6167(4) 0.9021(6) 0.13734(12)
C8_3 C 0.0979(6) 0.7145(5) 0.13734(12)
O6_3 O 0.4360(3) 0.8529(4) 0.20101(7)
O7_3 O 0.1471(4) 0.5830(3) 0.20101(7)
O10_3 O 0.2668(5) 0.8579(5) 0.05335(11)
O11_3 O 0.5910(7) 0.7332(5) 0.05335(11)
O12_3 O 0.1421(5) 0.4090(7) 0.05335(11)
C17_3 C 0.5542(5) 0.9771(7) 0.19671(12)
C18_3 C 0.0229(7) 0.5770(5) 0.19671(12)
C10_3 C 0.9877(7) 0.6353(5) 0.16380(13)
C12_3 C 0.8448(9) 0.6121(7) 0.15937(16)
H8_3 H 0.7730 0.5609 0.1767
C14_3 C 0.8037(13) 0.6630(10) 0.12966(18)
H10_3 H 0.7063 0.6467 0.1271
C16_3 C 0.9090(10) 0.7363(7) 0.10486(17)
H12_3 H 0.8846 0.7715 0.0848
C10_4 C 0.3647(5) 0.0123(7) 0.66380(13)
C12_4 C 0.3879(7) 0.1552(9) 0.65937(16)
H8_4 H 0.4391 0.2270 0.6767
C14_4 C 0.3370(10) 0.1963(13) 0.62966(18)
H10_4 H 0.3533 0.2937 0.6271
C16_4 C 0.2637(7) 0.0910(10) 0.60486(17)
H12_4 H 0.2285 0.1154 0.5848
Ni1_4 Ni 0.3334 0.6666 0.669987(19)
K1_4 K 0.3334 0.6666 0.57988(4)
N1_4 N 0.7095(4) 0.7588(4) 0.60888(11)
H1_4 H 0.6916 0.8046 0.5922
O1_4 O 0.5159(4) 0.7520(3) 0.63780(7)
C1_4 C 0.6167(4) 0.7145(5) 0.63734(12)
C2_4 C 0.6477(5) 0.6353(5) 0.66380(13)
C3_4 C 0.7674(6) 0.6121(7) 0.65937(16)
H2_4 H 0.7880 0.5609 0.6767
C4_4 C 0.8594(8) 0.6630(10) 0.62966(18)
H3_4 H 0.9405 0.6467 0.6271
C5_4 C 0.8274(7) 0.7363(7) 0.60486(17)
H4_4 H 0.8870 0.7715 0.5848
O2_4 O 0.4360(3) 0.5830(3) 0.70101(7)
C6_4 C 0.5542(5) 0.5770(5) 0.69671(12)
N2_4 N 0.0494(6) 0.2905(4) 0.60888(11)
N3_4 N 0.2412(4) 0.9506(6) 0.60888(11)
H5_4 H 0.1131 0.3084 0.5922
H6_4 H 0.1954 0.8869 0.5922
O4_4 O 0.2362(5) 0.4841(4) 0.63780(7)
O5_4 O 0.2480(3) 0.7638(5) 0.63780(7)
C7_4 C 0.0979(6) 0.3833(4) 0.63734(12)
C8_4 C 0.2855(5) 0.9021(6) 0.63734(12)
O6_4 O 0.1471(4) 0.5640(3) 0.70101(7)
O7_4 O 0.4170(3) 0.8529(4) 0.70101(7)
O10_4 O 0.1421(5) 0.7332(5) 0.55335(11)
O11_4 O 0.2668(5) 0.4090(7) 0.55335(11)
O12_4 O 0.5910(7) 0.8579(5) 0.55335(11)
C17_4 C 0.0229(7) 0.4458(5) 0.69671(12)
C18_4 C 0.4230(5) 0.9771(7) 0.69671(12)
C9_4 C 0.9877(7) 0.3523(5) 0.66380(13)
C11_4 C 0.8448(9) 0.2326(6) 0.65937(16)
H7_4 H 0.7730 0.2120 0.6767
C13_4 C 0.8037(13) 0.1406(8) 0.62966(18)
H9_4 H 0.7063 0.0595 0.6271
C15_4 C 0.9090(10) 0.1726(7) 0.60486(17)
H11_4 H 0.8846 0.1130 0.5848
Ni1_5 Ni 0.0000 -0.0000 0.503321(19)
N2_5 N 0.3761(4) 0.2840(6) 0.44222(11)
H5_5 H 0.3582 0.2203 0.4256
O4_5 O 0.1825(4) 0.0972(5) 0.47114(7)
C7_5 C 0.2833(4) 0.2355(6) 0.47068(12)
C9_5 C 0.3143(5) 0.3457(7) 0.49714(13)
C11_5 C 0.4340(6) 0.4886(9) 0.49271(16)
H7_5 H 0.4546 0.5604 0.5101
C13_5 C 0.5260(8) 0.5297(13) 0.46300(18)
H9_5 H 0.6071 0.6271 0.4605
C15_5 C 0.4940(7) 0.4244(10) 0.43820(17)
H11_5 H 0.5536 0.4488 0.4182
O6_5 O 0.1026(3) 0.1863(4) 0.53435(7)
C17_5 C 0.2208(5) 0.3105(7) 0.53005(12)
Ni1_6 Ni 0.0000 1.0000 0.503321(19)
C2_5 C 0.0313(5) 0.6857(5) 0.49714(13)
C3_5 C 0.0545(7) 0.5660(6) 0.49271(16)
H2_5 H 0.1057 0.5454 0.5101
C4_5 C 0.0036(10) 0.4740(8) 0.46300(18)
H3_5 H 0.0199 0.3929 0.4605
O2_5 O 0.0836(3) 0.8974(3) 0.53435(7)
C6_5 C 0.0896(5) 0.7792(5) 0.53005(12)
Ni1_7 Ni 1.0000 -0.0000 0.503321(19)
N3_5 N 0.7160(6) 0.0922(4) 0.44222(11)
H6_5 H 0.7797 0.1380 0.4256
O5_5 O 0.9028(5) 0.0854(3) 0.47114(7)
C8_5 C 0.7645(6) 0.0479(5) 0.47068(12)
C16_5 C 0.5756(10) 0.0697(7) 0.43820(17)
H12_5 H 0.5512 0.1049 0.4182
Ni1_8 Ni 1.0000 1.0000 0.503321(19)
N1_5 N 0.9078(4) 0.6239(4) 0.44222(11)
H1_5 H 0.8620 0.6418 0.4256
O1_5 O 0.9146(3) 0.8175(4) 0.47114(7)
C1_5 C 0.9521(5) 0.7167(4) 0.47068(12)
C5_5 C 0.9303(7) 0.5060(7) 0.43820(17)
H4_5 H 0.8951 0.4464 0.4182
C10_5 C 0.6543(7) 0.9687(5) 0.49714(13)
C12_5 C 0.5114(9) 0.9455(7) 0.49271(16)
H8_5 H 0.4396 0.8943 0.5101
C14_5 C 0.4703(13) 0.9964(10) 0.46300(18)
H10_5 H 0.3729 0.9801 0.4605
O7_5 O 0.8137(4) 0.9164(3) 0.53435(7)
C18_5 C 0.6895(7) 0.9104(5) 0.53005(12)
Ni1_9 Ni 0.0000 -0.0000 0.003321(19)
H8_6 H 0.1057 0.5604 0.0101
O7_6 O 0.0836(3) 0.1863(4) 0.03435(7)
C18_6 C 0.0896(5) 0.3105(7) 0.03005(12)
N1_6 N 0.3761(4) 0.0922(4) 0.94222(11)
H1_6 H 0.3582 0.1380 0.9256
O1_6 O 0.1825(4) 0.0854(3) 0.97114(7)
C1_6 C 0.2833(4) 0.0479(5) 0.97068(12)
C5_6 C 0.4940(7) 0.0697(7) 0.93820(17)
H4_6 H 0.5536 0.1049 0.9182
C10_6 C 0.0313(5) 0.3457(7) 0.99714(13)
C12_6 C 0.0545(7) 0.4886(9) 0.99271(16)
C14_6 C 0.0036(10) 0.5297(13) 0.96300(18)
H10_6 H 0.0199 0.6271 0.9605
Ni1_10 Ni 0.0000 1.0000 0.003321(19)
H2_6 H 0.4546 0.8943 0.0101
O2_6 O 0.1026(3) 0.9164(3) 0.03435(7)
C6_6 C 0.2208(5) 0.9104(5) 0.03005(12)
C2_6 C 0.3143(5) 0.9687(5) 0.99714(13)
C3_6 C 0.4340(6) 0.9455(7) 0.99271(16)
C4_6 C 0.5260(8) 0.9964(10) 0.96300(18)
H3_6 H 0.6071 0.9801 0.9605
N3_6 N 0.9078(4) 0.2840(6) 0.94222(11)
H6_6 H 0.8620 0.2203 0.9256
O5_6 O 0.9146(3) 0.0972(5) 0.97114(7)
C8_6 C 0.9521(5) 0.2355(6) 0.97068(12)
C16_6 C 0.9303(7) 0.4244(10) 0.93820(17)
H12_6 H 0.8951 0.4488 0.9182
Ni1_11 Ni 1.0000 1.0000 0.003321(19)
H7_6 H 0.4396 0.5454 0.0101
O6_6 O 0.8137(4) 0.8974(3) 0.03435(7)
C17_6 C 0.6895(7) 0.7792(5) 0.03005(12)
N2_6 N 0.7160(6) 0.6239(4) 0.94222(11)
H5_6 H 0.7797 0.6418 0.9256
O4_6 O 0.9028(5) 0.8175(4) 0.97114(7)
C7_6 C 0.7645(6) 0.7167(4) 0.97068(12)
C9_6 C 0.6543(7) 0.6857(5) 0.99714(13)
C11_6 C 0.5114(9) 0.5660(6) 0.99271(16)
C13_6 C 0.4703(13) 0.4740(8) 0.96300(18)
H9_6 H 0.3729 0.3929 0.9605
C15_6 C 0.5756(10) 0.5060(7) 0.93820(17)
H11_6 H 0.5512 0.4464 0.9182
Ni1_12 Ni 1.0000 -0.0000 0.003321(19)
loop_
_geom_bond_atom_site_label_1
_geom_bond_atom_site_label_2
_geom_bond_site_symmetry_1
_geom_bond_site_symmetry_2
N2 H5 1_555 1_555
H7 C11 1_555 1_555
C13 C11 1_555 1_555
H9 C13 1_555 1_555
C15 N2 1_555 1_555
H11 C15 1_555 1_555
C13 C15 1_555 1_555
Ni1 O1 1_555 1_555
K1 O1 1_555 1_555
O1 C1 1_555 1_555
C2 C1 1_555 1_555
O2 Ni1 1_555 1_555
O3 C6 1_555 1_555
C6 C2 1_555 1_555
K3_3 O3 1_555 1_555
K3_4 O8 1_555 1_555
K3 O9 1_555 1_555
N3 H6 1_555 1_555
O4 Ni1 1_555 1_555
O5 Ni1 1_555 1_555
C8 N3 1_555 1_555
C9 C7 1_555 1_555
C10 C8 1_555 1_555
C12 C10 1_555 1_555
H8 C12 1_555 1_555
C14 C12 1_555 1_555
H10 C14 1_555 1_555
C16 N3 1_555 1_555
H12 C16 1_555 1_555
O6 Ni1 1_555 1_555
O7 Ni1 1_555 1_555
O8 C17 1_555 1_555
O9 C18 1_555 1_555
O10 K1 1_555 1_555
O11 K1 1_555 1_555
O12 K1 1_555 1_555
C17 C9 1_555 1_555
C18 C10 1_555 1_555
K1 O4 1_555 1_555
K1 O5 1_555 1_555
O2 C6 1_555 1_555
O4 C7 1_555 1_555
O5 C8 1_555 1_555
C14 C16 1_555 1_555
O6 C17 1_555 1_555
O7 C18 1_555 1_555
N1 H1 1_555 1_555
H2 C3 1_555 1_555
C4 C3 1_555 1_555
H3 C4 1_555 1_555
C5 N1 1_555 1_555
H4 C5 1_555 1_555
C4 C5 1_555 1_555
N1_2 H1_2 1_555 1_555
H2_2 C3_2 1_555 1_555
C4_2 C3_2 1_555 1_555
H3_2 C4_2 1_555 1_555
C5_2 N1_2 1_555 1_555
H4_2 C5_2 1_555 1_555
C4_2 C5_2 1_555 1_555
Ni1_2 O1_2 1_555 1_555
K1_2 O1_2 1_555 1_555
O1_2 C1_2 1_555 1_555
C2_2 C1_2 1_555 1_555
O2_2 Ni1_2 1_555 1_555
O3_2 C6_2 1_555 1_555
C6_2 C2_2 1_555 1_555
K4_3 O3_2 1_555 1_555
K4 O8_2 1_555 1_555
K4_4 O9_2 1_555 1_555
N3_2 H6_2 1_555 1_555
O4_2 Ni1_2 1_555 1_555
O5_2 Ni1_2 1_555 1_555
C8_2 N3_2 1_555 1_555
C9_2 C7_2 1_555 1_555
C10_2 C8_2 1_555 1_555
C12_2 C10_2 1_555 1_555
H8_2 C12_2 1_555 1_555
C14_2 C12_2 1_555 1_555
H10_2 C14_2 1_555 1_555
C16_2 N3_2 1_555 1_555
H12_2 C16_2 1_555 1_555
O6_2 Ni1_2 1_555 1_555
O7_2 Ni1_2 1_555 1_555
O8_2 C17_2 1_555 1_555
O9_2 C18_2 1_555 1_555
O10_2 K1_2 1_555 1_555
O11_2 K1_2 1_555 1_555
O12_2 K1_2 1_555 1_555
C17_2 C9_2 1_555 1_555
C18_2 C10_2 1_555 1_555
K1_2 O4_2 1_555 1_555
K1_2 O5_2 1_555 1_555
O2_2 C6_2 1_555 1_555
O4_2 C7_2 1_555 1_555
O5_2 C8_2 1_555 1_555
C14_2 C16_2 1_555 1_555
O6_2 C17_2 1_555 1_555
O7_2 C18_2 1_555 1_555
N2_2 H5_2 1_555 1_555
H7_2 C11_2 1_555 1_555
C13_2 C11_2 1_555 1_555
H9_2 C13_2 1_555 1_555
C15_2 N2_2 1_555 1_555
H11_2 C15_2 1_555 1_555
C13_2 C15_2 1_555 1_555
C11_3 C9_3 1_555 1_555
H7_3 C11_3 1_555 1_555
C13_3 C11_3 1_555 1_555
H9_3 C13_3 1_555 1_555
H11_3 C15_3 1_555 1_555
C13_3 C15_3 1_555 1_555
Ni1_3 O1_3 1_555 1_555
K1_3 O1_3 1_555 1_555
N1_3 H1_3 1_555 1_555
O1_3 C1_3 1_555 1_555
C1_3 N1_3 1_555 1_555
C2_3 C1_3 1_555 1_555
C3_3 C2_3 1_555 1_555
H2_3 C3_3 1_555 1_555
C4_3 C3_3 1_555 1_555
H3_3 C4_3 1_555 1_555
C5_3 N1_3 1_555 1_555
H4_3 C5_3 1_555 1_555
O2_3 Ni1_3 1_555 1_555
O10_2 C6_3 1_555 1_555
C6_3 C2_3 1_555 1_555
N2_3 H5_3 1_555 1_555
N3_3 H6_3 1_555 1_555
O4_3 Ni1_3 1_555 1_555
O5_3 Ni1_3 1_555 1_555
C7_3 N2_3 1_555 1_555
C8_3 N3_3 1_555 1_555
O6_3 Ni1_3 1_555 1_555
O7_3 Ni1_3 1_555 1_555
O10_3 K1_3 1_555 1_555
O11_3 K1_3 1_555 1_555
O12_3 K1_3 1_555 1_555
K1_3 O4_3 1_555 1_555
K1_3 O5_3 1_555 1_555
C4_3 C5_3 1_555 1_555
O2_3 C6_3 1_555 1_555
O4_3 C7_3 1_555 1_555
O5_3 C8_3 1_555 1_555
O6_3 C17_3 1_555 1_555
O7_3 C18_3 1_555 1_555
C12_3 C10_3 1_555 1_555
H8_3 C12_3 1_555 1_555
C14_3 C12_3 1_555 1_555
H10_3 C14_3 1_555 1_555
H12_3 C16_3 1_555 1_555
C14_3 C16_3 1_555 1_555
C12_4 C10_4 1_555 1_555
H8_4 C12_4 1_555 1_555
C14_4 C12_4 1_555 1_555
H10_4 C14_4 1_555 1_555
H12_4 C16_4 1_555 1_555
C14_4 C16_4 1_555 1_555
Ni1_4 O1_4 1_555 1_555
K1_4 O1_4 1_555 1_555
N1_4 H1_4 1_555 1_555
O1_4 C1_4 1_555 1_555
C1_4 N1_4 1_555 1_555
C2_4 C1_4 1_555 1_555
C3_4 C2_4 1_555 1_555
H2_4 C3_4 1_555 1_555
C4_4 C3_4 1_555 1_555
H3_4 C4_4 1_555 1_555
C5_4 N1_4 1_555 1_555
H4_4 C5_4 1_555 1_555
O2_4 Ni1_4 1_555 1_555
O10 C6_4 1_555 1_555
C6_4 C2_4 1_555 1_555
N2_4 H5_4 1_555 1_555
N3_4 H6_4 1_555 1_555
O4_4 Ni1_4 1_555 1_555
O5_4 Ni1_4 1_555 1_555
C7_4 N2_4 1_555 1_555
C8_4 N3_4 1_555 1_555
O6_4 Ni1_4 1_555 1_555
O7_4 Ni1_4 1_555 1_555
O10_4 K1_4 1_555 1_555
O11_4 K1_4 1_555 1_555
O12_4 K1_4 1_555 1_555
K1_4 O4_4 1_555 1_555
K1_4 O5_4 1_555 1_555
C4_4 C5_4 1_555 1_555
O2_4 C6_4 1_555 1_555
O4_4 C7_4 1_555 1_555
O5_4 C8_4 1_555 1_555
O6_4 C17_4 1_555 1_555
O7_4 C18_4 1_555 1_555
C11_4 C9_4 1_555 1_555
H7_4 C11_4 1_555 1_555
C13_4 C11_4 1_555 1_555
H9_4 C13_4 1_555 1_555
H11_4 C15_4 1_555 1_555
C13_4 C15_4 1_555 1_555
N2_5 H5_5 1_555 1_555
O4_5 Ni1_5 1_555 1_555
C7_5 N2_5 1_555 1_555
C9_5 C7_5 1_555 1_555
C11_5 C9_5 1_555 1_555
H7_5 C11_5 1_555 1_555
C13_5 C11_5 1_555 1_555
H9_5 C13_5 1_555 1_555
C15_5 N2_5 1_555 1_555
H11_5 C15_5 1_555 1_555
O6_5 Ni1_5 1_555 1_555
O11_4 C17_5 1_555 1_555
C17_5 C9_5 1_555 1_555
K4 O4_5 1_555 1_555
O4_5 C7_5 1_555 1_555
C13_5 C15_5 1_555 1_555
O6_5 C17_5 1_555 1_555
C3_5 C2_5 1_555 1_555
H2_5 C3_5 1_555 1_555
C4_5 C3_5 1_555 1_555
H3_5 C4_5 1_555 1_555
O2_5 Ni1_6 1_555 1_555
O10_4 C6_5 1_555 1_555
C6_5 C2_5 1_555 1_555
O2_5 C6_5 1_555 1_555
N3_5 H6_5 1_555 1_555
O5_5 Ni1_7 1_555 1_555
C8_5 N3_5 1_555 1_555
C16_5 N3_5 1_555 1_555
H12_5 C16_5 1_555 1_555
K4_3 O5_5 1_555 1_555
O5_5 C8_5 1_555 1_555
Ni1_8 O1_5 1_555 1_555
K4_4 O1_5 1_555 1_555
N1_5 H1_5 1_555 1_555
O1_5 C1_5 1_555 1_555
C1_5 N1_5 1_555 1_555
C5_5 N1_5 1_555 1_555
H4_5 C5_5 1_555 1_555
C12_5 C10_5 1_555 1_555
H8_5 C12_5 1_555 1_555
C14_5 C12_5 1_555 1_555
H10_5 C14_5 1_555 1_555
O7_5 Ni1_8 1_555 1_555
O12_4 C18_5 1_555 1_555
C18_5 C10_5 1_555 1_555
O7_5 C18_5 1_555 1_555
O7_6 Ni1_9 1_555 1_555
O12_3 C18_6 1_555 1_555
O7_6 C18_6 1_555 1_555
K3 O1_6 1_555 1_555
N1_6 H1_6 1_555 1_555
O1_6 C1_6 1_555 1_555
C1_6 N1_6 1_555 1_555
C5_6 N1_6 1_555 1_555
H4_6 C5_6 1_555 1_555
C12_6 C10_6 1_555 1_555
C14_6 C12_6 1_555 1_555
H10_6 C14_6 1_555 1_555
O2_6 Ni1_10 1_555 1_555
O10_3 C6_6 1_555 1_555
O2_6 C6_6 1_555 1_555
C3_6 C2_6 1_555 1_555
C4_6 C3_6 1_555 1_555
H3_6 C4_6 1_555 1_555
N3_6 H6_6 1_555 1_555
C8_6 N3_6 1_555 1_555
C16_6 N3_6 1_555 1_555
H12_6 C16_6 1_555 1_555
K3_3 O5_6 1_555 1_555
O5_6 C8_6 1_555 1_555
O6_6 Ni1_11 1_555 1_555
O11_3 C17_6 1_555 1_555
O6_6 C17_6 1_555 1_555
N2_6 H5_6 1_555 1_555
C7_6 N2_6 1_555 1_555
C9_6 C7_6 1_555 1_555
C11_6 C9_6 1_555 1_555
C13_6 C11_6 1_555 1_555
H9_6 C13_6 1_555 1_555
C15_6 N2_6 1_555 1_555
H11_6 C15_6 1_555 1_555
K3_4 O4_6 1_555 1_555
O4_6 C7_6 1_555 1_555
C13_6 C15_6 1_555 1_555

#END
