
###############################################################################
#
# This file contains modified crystal structure data generated from the
# MOF subset of the Cambridge Structural Database (CSD) v543 
# hosted by the Cambridge Crystallographic Data Centre (CCDC).
#
# This work is licensed under the Creative Commons
# Attribution-NonCommercial-ShareAlike 4.0 International License.
# To view a copy of this license, visit
# http://creativecommons.org/licenses/by-nc-sa/4.0/
# or send a letter to
# Creative Commons, PO Box 1866, Mountain View, CA 94042, USA.
#
# CIF created using the CSD Python API on 29 September 2022
# The structure has been converted into the P1 space group
# The structure has a 3D framework
# The original CSD entry ISEPAA is in the triclinic crystal system
# The framework has been calculated to contain at least 10.0% void space
# The void calculation uses a probe of radius 1.32A, grid spacing 0.4
#
###############################################################################

data_ISEPAA
_chemical_formula_moiety         '(C68 H44 Cd6 N4 O12)n'
_symmetry_cell_setting           triclinic
_symmetry_space_group_name_H-M   'P 1'
_symmetry_Int_Tables_number      1
_space_group_name_Hall           'P 1'
loop_
_symmetry_equiv_pos_site_id
_symmetry_equiv_pos_as_xyz
1 x,y,z
_cell_length_a                   12.0541(15)
_cell_length_b                   12.5825(13)
_cell_length_c                   13.7766(16)
_cell_angle_alpha                79.249(5)
_cell_angle_beta                 81.329(6)
_cell_angle_gamma                83.791(6)
_cell_volume                     2022.46
loop_
_atom_site_label
_atom_site_type_symbol
_atom_site_fract_x
_atom_site_fract_y
_atom_site_fract_z
Cd2 Cd 0.000000 0.000000 0.000000
N1 N 0.1455(2) 0.1271(2) 0.3200(2)
N2 N 0.0757(3) 0.2202(3) 0.4377(3)
C28 C 0.0539(3) 0.1599(3) 0.3752(3)
C29 C 0.2296(3) 0.1685(3) 0.3527(3)
H17 H 0.305639 0.158477 0.328790
C30 C 0.1872(4) 0.2258(4) 0.4240(4)
H18 H 0.227620 0.262538 0.457766
C31 C 0.0006(4) 0.3862(4) 0.5077(4)
H19 H 0.010525 0.227612 0.580170
C33 C 0.0012(5) 0.4292(4) 0.5899(4)
H21 H 0.000257 0.384635 0.651908
H23 H 0.017950 0.857469 0.629392
C39 C 0.0052(4) 0.7354(4) 0.4852(4)
H27 H 0.080859 0.749256 0.492677
C41 C 0.0032(6) 0.5435(5) 0.5812(5)
H29 H 0.007236 0.571809 0.638204
O13 O 0.14633(18) 0.06488(18) 0.06085(15)
O20 O 0.3165(2) 0.0539(2) 0.09935(18)
Cd2_2 Cd -0.000000 1.000000 1.000000
O15 O 0.1046(2) 0.9683(2) 0.86308(18)
Cd8 Cd 0.84009(2) 0.00188(2) 0.77514(2)
C10 C 0.2509(3) 0.0761(2) 0.0358(2)
Cd2_3 Cd 1.000000 0.000000 1.000000
Cd2_4 Cd 1.000000 1.000000 0.000000
O3 O 0.97899(19) 0.96569(19) 0.27180(18)
H4 H 0.844706 0.991887 0.426195
O10 O 0.7559(2) 0.13066(18) 0.66827(19)
O11 O 0.7922(2) 0.19236(19) 0.7960(2)
C42 C 0.2089(3) 0.9578(2) 0.7075(2)
C43 C 0.5936(2) 0.7737(2) 0.3794(2)
C44 C 0.6013(3) 0.6356(2) 0.5278(2)
C45 C 0.6312(3) 0.8105(2) 0.2723(2)
C46 C 0.6332(3) 0.6717(2) 0.4269(2)
H30 H 0.682112 0.627055 0.390059
C47 C 0.3947(3) 0.8673(2) 0.5932(2)
C48 C 0.5194(3) 0.8385(2) 0.4352(2)
H31 H 0.492511 0.906622 0.404457
C49 C 0.1029(3) 0.9914(3) 0.7709(3)
C50 C 0.5269(3) 0.7028(2) 0.5815(2)
H32 H 0.505307 0.679608 0.649205
C52 C 0.7577(3) 0.2069(3) 0.7137(3)
C53 C 0.4842(3) 0.8040(2) 0.5361(2)
C54 C 0.6422(3) 0.5262(2) 0.5764(2)
C55 C 0.7164(3) 0.3190(2) 0.6671(2)
C56 C 0.2141(3) 0.9694(2) 0.6051(2)
C57 C 0.6538(3) 0.4392(2) 0.5263(2)
H34 H 0.636932 0.449911 0.461265
C58 C 0.7065(3) 0.8827(3) 0.0706(2)
C59 C 0.6901(3) 0.3366(2) 0.5717(2)
H35 H 0.696781 0.278871 0.537122
C60 C 0.3054(3) 0.9242(2) 0.5485(2)
H36 H 0.306771 0.932034 0.479868
C61 C 0.5583(3) 0.8704(3) 0.2092(2)
H37 H 0.483769 0.887112 0.234393
C62 C 0.5954(3) 0.9054(3) 0.1097(2)
H38 H 0.545288 0.944518 0.068421
C63 C 0.7418(3) 0.7859(3) 0.2316(2)
H39 H 0.791367 0.744050 0.271860
C64 C 0.7791(3) 0.8223(3) 0.1326(2)
H40 H 0.853753 0.806195 0.107264
C65 C 0.3012(3) 0.9072(3) 0.7510(3)
H41 H 0.301213 0.902940 0.819117
C66 C 0.3928(3) 0.8631(3) 0.6954(2)
H42 H 0.454329 0.829976 0.726244
C67 C 0.6684(3) 0.5076(3) 0.6731(3)
H43 H 0.660392 0.564563 0.708593
C68 C 0.7061(3) 0.4050(3) 0.7169(3)
H44 H 0.724933 0.394086 0.781231
Cd2_5 Cd -0.000000 0.000000 1.000000
Cd1 Cd 0.15991(2) 0.99812(2) 0.22486(2)
Cd2_6 Cd 0.000000 1.000000 0.000000
O16 O 0.2441(2) 0.86934(18) 0.33173(19)
O18 O 0.2078(2) 0.80764(19) 0.2040(2)
Cd2_7 Cd 1.000000 0.000000 0.000000
O2 O 0.8954(2) 0.0317(2) 0.13692(18)
C1 C 0.7911(3) 0.0422(2) 0.2925(2)
C2 C 0.4064(2) 0.2263(2) 0.6206(2)
C3 C 0.3987(3) 0.3644(2) 0.4722(2)
C4 C 0.3688(3) 0.1895(2) 0.7277(2)
C5 C 0.3668(3) 0.3283(2) 0.5731(2)
H1 H 0.317888 0.372945 0.609941
C6 C 0.6053(3) 0.1327(2) 0.4068(2)
C7 C 0.4806(3) 0.1615(2) 0.5648(2)
H2 H 0.507489 0.093378 0.595543
C8 C 0.8971(3) 0.0086(3) 0.2291(3)
C9 C 0.4731(3) 0.2972(2) 0.4185(2)
H3 H 0.494693 0.320392 0.350795
C11 C 0.2423(3) 0.7931(3) 0.2863(3)
C12 C 0.5158(3) 0.1960(2) 0.4639(2)
C13 C 0.3578(3) 0.4738(2) 0.4236(2)
C14 C 0.2836(3) 0.6810(2) 0.3329(2)
C15 C 0.7859(3) 0.0306(2) 0.3949(2)
C16 C 0.3462(3) 0.5608(2) 0.4737(2)
H5 H 0.363068 0.550089 0.538735
C17 C 0.2935(3) 0.1173(3) 0.9294(2)
C18 C 0.3099(3) 0.6634(2) 0.4283(2)
H6 H 0.303219 0.721129 0.462878
C19 C 0.6946(3) 0.0758(2) 0.4515(2)
H7 H 0.693229 0.067966 0.520132
C20 C 0.4417(3) 0.1296(3) 0.7908(2)
H8 H 0.516231 0.112888 0.765607
C21 C 0.4046(3) 0.0946(3) 0.8903(2)
H9 H 0.454712 0.055482 0.931579
C22 C 0.2582(3) 0.2141(3) 0.7684(2)
H10 H 0.208633 0.255950 0.728140
C23 C 0.2209(3) 0.1777(3) 0.8674(2)
H11 H 0.146247 0.193805 0.892736
C24 C 0.6988(3) 0.0928(3) 0.2490(3)
H12 H 0.698787 0.097060 0.180883
C25 C 0.6072(3) 0.1369(3) 0.3046(2)
H13 H 0.545671 0.170024 0.273756
C26 C 0.3316(3) 0.4924(3) 0.3269(3)
H14 H 0.339608 0.435437 0.291407
C27 C 0.2939(3) 0.5950(3) 0.2831(3)
H15 H 0.275067 0.605914 0.218769
H16 H 0.982050 0.142531 0.370608
C32 C 0.9948(4) 0.2646(4) 0.5148(4)
H20 H 0.919141 0.250744 0.507323
C34 C 0.9968(6) 0.4565(5) 0.4188(5)
H22 H 0.992764 0.428191 0.361796
N3 N 0.8545(2) 0.8729(2) 0.6800(2)
N4 N 0.9243(3) 0.7798(3) 0.5623(3)
C35 C 0.9461(3) 0.8401(3) 0.6248(3)
C36 C 0.7704(3) 0.8315(3) 0.6473(3)
H24 H 0.694361 0.841523 0.671210
C37 C 0.8128(4) 0.7742(4) 0.5760(4)
H25 H 0.772380 0.737462 0.542234
C38 C 0.9994(4) 0.6138(4) 0.4923(4)
H26 H 0.989475 0.772388 0.419830
C40 C 0.9988(5) 0.5708(4) 0.4101(4)
H28 H 0.999743 0.615365 0.348092
O9 O 0.02101(19) 0.03431(19) 0.72820(18)
H33 H 0.155294 0.008113 0.573805
Cd2_8 Cd 1.000000 1.000000 1.000000
O7 O 0.85367(18) 0.93512(18) 0.93915(15)
O12 O 0.6835(2) 0.9461(2) 0.90065(18)
C51 C 0.7491(3) 0.9239(2) 0.9642(2)
loop_
_geom_bond_atom_site_label_1
_geom_bond_atom_site_label_2
_geom_bond_site_symmetry_1
_geom_bond_site_symmetry_2
N2 C28 1_555 1_555
C28 N1 1_555 1_555
C29 N1 1_555 1_555
H17 C29 1_555 1_555
C30 N2 1_555 1_555
H18 C30 1_555 1_555
C33 C31 1_555 1_555
H21 C33 1_555 1_555
H27 C39 1_555 1_555
C41 C33 1_555 1_555
H29 C41 1_555 1_555
Cd2 O13 1_555 1_555
C29 C30 1_555 1_555
O15 Cd2_2 1_555 1_555
O13 C10 1_555 1_555
O20 C10 1_555 1_555
O15 C49 1_555 1_555
O10 C52 1_555 1_555
O11 C52 1_555 1_555
C42 C49 1_555 1_555
C43 C45 1_555 1_555
C44 C46 1_555 1_555
C45 C61 1_555 1_555
C46 C43 1_555 1_555
H30 C46 1_555 1_555
C47 C53 1_555 1_555
C48 C43 1_555 1_555
H31 C48 1_555 1_555
C50 C44 1_555 1_555
H32 C50 1_555 1_555
C52 C55 1_555 1_555
C53 C48 1_555 1_555
C54 C44 1_555 1_555
C55 C59 1_555 1_555
C56 C42 1_555 1_555
C57 C54 1_555 1_555
H34 C57 1_555 1_555
C59 C57 1_555 1_555
H35 C59 1_555 1_555
C60 C47 1_555 1_555
H36 C60 1_555 1_555
C61 H37 1_555 1_555
C62 C58 1_555 1_555
H38 C62 1_555 1_555
C63 C45 1_555 1_555
H39 C63 1_555 1_555
C64 C58 1_555 1_555
H40 C64 1_555 1_555
C65 C42 1_555 1_555
H41 C65 1_555 1_555
C66 C47 1_555 1_555
H42 C66 1_555 1_555
C67 C54 1_555 1_555
H43 C67 1_555 1_555
C68 C55 1_555 1_555
H44 C68 1_555 1_555
Cd8 O10 1_555 1_555
O11 Cd8 1_555 1_555
C50 C53 1_555 1_555
C56 C60 1_555 1_555
C61 C62 1_555 1_555
C63 C64 1_555 1_555
C65 C66 1_555 1_555
C67 C68 1_555 1_555
O16 Cd1 1_555 1_555
O18 Cd1 1_555 1_555
Cd2_7 O2 1_555 1_555
O2 C8 1_555 1_555
O16 C11 1_555 1_555
O18 C11 1_555 1_555
C1 C8 1_555 1_555
C2 C4 1_555 1_555
C3 C5 1_555 1_555
C4 C20 1_555 1_555
C5 C2 1_555 1_555
H1 C5 1_555 1_555
C6 C12 1_555 1_555
C7 C2 1_555 1_555
H2 C7 1_555 1_555
C9 C3 1_555 1_555
H3 C9 1_555 1_555
C11 C14 1_555 1_555
C12 C7 1_555 1_555
C13 C3 1_555 1_555
C14 C18 1_555 1_555
C15 C1 1_555 1_555
C16 C13 1_555 1_555
H5 C16 1_555 1_555
C17 C21 1_555 1_555
C18 C16 1_555 1_555
H6 C18 1_555 1_555
C19 C6 1_555 1_555
H7 C19 1_555 1_555
C20 H8 1_555 1_555
C21 C20 1_555 1_555
H9 C21 1_555 1_555
C22 C4 1_555 1_555
H10 C22 1_555 1_555
C23 C17 1_555 1_555
H11 C23 1_555 1_555
C24 C1 1_555 1_555
H12 C24 1_555 1_555
C25 C6 1_555 1_555
H13 C25 1_555 1_555
C26 C13 1_555 1_555
H14 C26 1_555 1_555
C27 C14 1_555 1_555
H15 C27 1_555 1_555
H20 C32 1_555 1_555
H22 C34 1_555 1_555
N3 C35 1_555 1_555
N4 C35 1_555 1_555
C36 N3 1_555 1_555
H24 C36 1_555 1_555
C37 N4 1_555 1_555
H25 C37 1_555 1_555
C40 C34 1_555 1_555
H28 C40 1_555 1_555
C9 C12 1_555 1_555
C15 C19 1_555 1_555
C22 C23 1_555 1_555
C24 C25 1_555 1_555
C26 C27 1_555 1_555
C36 C37 1_555 1_555
C38 C40 1_555 1_555
O7 Cd2_8 1_555 1_555
O12 C51 1_555 1_555
C51 O7 1_555 1_555

#END
