
###############################################################################
#
# This file contains modified crystal structure data generated from the
# MOF subset of the Cambridge Structural Database (CSD) v543 
# hosted by the Cambridge Crystallographic Data Centre (CCDC).
#
# This work is licensed under the Creative Commons
# Attribution-NonCommercial-ShareAlike 4.0 International License.
# To view a copy of this license, visit
# http://creativecommons.org/licenses/by-nc-sa/4.0/
# or send a letter to
# Creative Commons, PO Box 1866, Mountain View, CA 94042, USA.
#
# CIF created using the CSD Python API on 29 September 2022
# The structure has been converted into the P1 space group
# The structure has a 3D framework
# The original CSD entry ISISUZ is in the monoclinic crystal system
# The framework has been calculated to contain at least 10.0% void space
# The void calculation uses a probe of radius 1.32A, grid spacing 0.4
#
###############################################################################

data_ISISUZ
_chemical_formula_moiety         '(C56 H32 Cu4 N8 O18)n'
_symmetry_cell_setting           triclinic
_symmetry_space_group_name_H-M   'P 1'
_symmetry_Int_Tables_number      1
_space_group_name_Hall           'P 1'
loop_
_symmetry_equiv_pos_site_id
_symmetry_equiv_pos_as_xyz
1 x,y,z
_cell_length_a                   8.4070(17)
_cell_length_b                   10.280(2)
_cell_length_c                   17.655(4)
_cell_angle_alpha                90
_cell_angle_beta                 102.80(3)
_cell_angle_gamma                90
_cell_volume                     1487.9
loop_
_atom_site_label
_atom_site_type_symbol
_atom_site_fract_x
_atom_site_fract_y
_atom_site_fract_z
N1 N 0.1666(4) 0.5729(3) 0.4510(2)
C3 C 0.1651(5) 0.6083(4) 0.5240(2)
H2 H 0.2335 0.5652 0.5649
C4 C 0.0663(5) 0.7057(4) 0.5406(2)
H3 H 0.0694 0.7286 0.5918
C9 C 0.0649(6) 0.6346(4) 0.3927(2)
H6 H 0.0642 0.6105 0.3419
Cu3 Cu 0.32566(6) 0.44282(5) 0.43193(3)
O1 O 0.4698(4) 0.2855(3) 0.44375(16)
O2 O 0.4201(4) 0.3915(3) 0.54183(17)
C1 C 0.4848(5) 0.2937(4) 0.5160(2)
C5 C 0.5767(5) 0.1953(4) 0.5697(2)
C6 C 0.5876(5) 0.2047(4) 0.6491(2)
H4 H 0.5358 0.2720 0.6694
Cu1 Cu 0.82566(6) 0.05718(5) 0.93193(3)
O3 O 0.7906(4) 0.0360(3) 0.82336(16)
O4 O 0.6199(4) 0.2032(3) 0.81307(18)
C7 C 0.6937(5) 0.1211(4) 0.7839(2)
C8 C 0.7536(5) 0.0129(4) 0.6665(2)
C10 C 0.6527(5) 0.0951(4) 0.5375(2)
H7 H 0.6429 0.0894 0.4841
C11 C 0.6769(5) 0.1123(4) 0.6976(2)
C13 C 0.7435(5) 0.0038(4) 0.5876(2)
O6 O 0.9698(4) 0.2145(3) 0.94375(16)
C3_2 C 0.6651(5) 0.8917(4) 0.0240(2)
H2_2 H 0.7335 0.9348 0.0649
C4_2 C 0.5663(5) 0.7943(4) 0.0406(2)
H3_2 H 0.5694 0.7714 0.0918
C5_2 C 0.0767(5) 0.3047(4) 0.0697(2)
C6_2 C 0.0876(5) 0.2953(4) 0.1491(2)
H4_2 H 0.0358 0.2280 0.1694
O3_2 O 0.2906(4) 0.4640(3) 0.32336(16)
O4_2 O 0.1199(4) 0.2968(3) 0.31307(18)
C7_2 C 0.1937(5) 0.3789(4) 0.2839(2)
C8_2 C 0.2536(5) 0.4871(4) 0.1665(2)
H5 H 0.3133 0.5489 0.1995
N2 N 0.3252(4) 0.6010(4) 0.0613(2)
C10_2 C 0.1527(5) 0.4049(4) 0.0375(2)
C11_2 C 0.1769(5) 0.3877(4) 0.1976(2)
C13_2 C 0.2435(5) 0.4962(4) 0.0876(2)
H8 H 0.360(6) 0.655(5) 0.092(3)
O7 O 0.9201(4) 0.1085(3) 0.04183(17)
C1_2 C 0.9848(5) 0.2063(4) 0.0160(2)
C2 C 0.9625(6) 0.7313(5) 0.4052(3)
H1 H 0.8930 0.7714 0.3634
H5_2 H 0.8133 0.9511 0.6995
N2_2 N 0.8252(4) 0.8990(4) 0.5613(2)
O5 O 0.8125(4) 0.9592(3) 0.43678(18)
C12 C 0.8589(5) 0.8849(4) 0.4909(2)
C14 C 0.9623(5) 0.7696(4) 0.4804(2)
H8_2 H 0.860(6) 0.845(5) 0.592(3)
N3 N 0.6666(4) 0.9271(3) 0.9510(2)
C2_2 C 0.4625(6) 0.7687(5) 0.9052(3)
H1_2 H 0.3930 0.7286 0.8634
C9_2 C 0.5649(6) 0.8654(4) 0.8927(2)
H6_2 H 0.5642 0.8895 0.8419
H7_2 H 0.1429 0.4106 0.9841
O5_2 O 0.3125(4) 0.5408(3) 0.93678(18)
C12_2 C 0.3589(5) 0.6151(4) 0.9909(2)
C14_2 C 0.4623(5) 0.7304(4) 0.9804(2)
O1_2 O 0.0302(4) 0.7855(3) 0.05625(16)
Cu2 Cu 0.17434(6) 0.94282(5) 0.06807(3)
C3_3 C 0.3349(5) 0.1083(4) 0.9760(2)
H2_3 H 0.2665 0.0652 0.9351
C4_3 C 0.4337(5) 0.2057(4) 0.9594(2)
H3_3 H 0.4306 0.2286 0.9082
C5_3 C 0.9233(5) 0.6953(4) 0.9303(2)
C6_3 C 0.9124(5) 0.7047(4) 0.8509(2)
H4_3 H 0.9642 0.7720 0.8306
Cu1_2 Cu 0.67434(6) 0.55718(5) 0.56807(3)
O3_3 O 0.7094(4) 0.5360(3) 0.67664(16)
O4_3 O 0.8801(4) 0.7032(3) 0.68693(18)
C7_3 C 0.8063(5) 0.6211(4) 0.7161(2)
C8_3 C 0.7464(5) 0.5129(4) 0.8335(2)
H5_3 H 0.6867 0.4511 0.8005
N2_3 N 0.6748(4) 0.3990(4) 0.9387(2)
C10_3 C 0.8473(5) 0.5951(4) 0.9625(2)
C11_3 C 0.8231(5) 0.6123(4) 0.8024(2)
C13_3 C 0.7565(5) 0.5038(4) 0.9124(2)
H8_3 H 0.640(6) 0.345(5) 0.908(3)
N3_2 N 0.8334(4) 0.4271(3) 0.5490(2)
O6_2 O 0.5302(4) 0.7145(3) 0.55625(16)
O7_2 O 0.5799(4) 0.6085(3) 0.45817(17)
C1_3 C 0.5152(5) 0.7063(4) 0.4840(2)
C5_4 C 0.4233(5) 0.8047(4) 0.4303(2)
C6_4 C 0.4124(5) 0.7953(4) 0.3509(2)
H4_4 H 0.4642 0.7280 0.3306
O3_4 O 0.2094(4) 0.9640(3) 0.17664(16)
O4_4 O 0.3801(4) 0.7968(3) 0.18693(18)
C7_4 C 0.3063(5) 0.8789(4) 0.2161(2)
C8_4 C 0.2464(5) 0.9871(4) 0.3335(2)
C10_4 C 0.3473(5) 0.9049(4) 0.4625(2)
H7_3 H 0.3571 0.9106 0.5159
C11_4 C 0.3231(5) 0.8877(4) 0.3024(2)
C13_4 C 0.2565(5) 0.9962(4) 0.4124(2)
C3_4 C 0.8349(5) 0.3917(4) 0.4760(2)
H2_4 H 0.7665 0.4348 0.4351
C4_4 C 0.9337(5) 0.2943(4) 0.4594(2)
H3_4 H 0.9306 0.2714 0.4082
C9_3 C 0.9351(6) 0.3654(4) 0.6073(2)
H6_3 H 0.9358 0.3895 0.6581
O2_2 O 0.0799(4) 0.8915(3) 0.95817(17)
C1_4 C 0.0152(5) 0.7937(4) 0.9840(2)
N1_2 N 0.3334(4) 0.0729(3) 0.0490(2)
C2_3 C 0.5375(6) 0.2313(5) 0.0948(3)
H1_3 H 0.6070 0.2714 0.1366
C9_4 C 0.4351(6) 0.1346(4) 0.1073(2)
H6_4 H 0.4358 0.1105 0.1581
H7_4 H 0.8571 0.5894 0.0159
O5_3 O 0.6875(4) 0.4592(3) 0.06322(18)
C12_3 C 0.6411(5) 0.3849(4) 0.0091(2)
C14_3 C 0.5377(5) 0.2696(4) 0.0196(2)
C2_4 C 0.0375(6) 0.2687(5) 0.5948(3)
H1_4 H 0.1070 0.2286 0.6366
H5_4 H 0.1867 0.0489 0.3005
N2_4 N 0.1748(4) 0.1010(4) 0.4387(2)
O5_4 O 0.1875(4) 0.0408(3) 0.56322(18)
C12_4 C 0.1411(5) 0.1151(4) 0.5091(2)
C14_4 C 0.0377(5) 0.2304(4) 0.5196(2)
H8_4 H 0.140(6) 0.155(5) 0.408(3)
loop_
_geom_bond_atom_site_label_1
_geom_bond_atom_site_label_2
_geom_bond_site_symmetry_1
_geom_bond_site_symmetry_2
N1 C3 1_555 1_555
C3 H2 1_555 1_555
C4 C3 1_555 1_555
H3 C4 1_555 1_555
C9 N1 1_555 1_555
H6 C9 1_555 1_555
Cu3 N1 1_555 1_555
O1 C1 1_555 1_555
O2 C1 1_555 1_555
C1 C5 1_555 1_555
C5 C6 1_555 1_555
C6 H4 1_555 1_555
Cu1 O3 1_555 1_555
O3 C7 1_555 1_555
O4 C7 1_555 1_555
C7 C11 1_555 1_555
C10 C5 1_555 1_555
H7 C10 1_555 1_555
C11 C6 1_555 1_555
C13 C8 1_555 1_555
O6 Cu1 1_555 1_555
Cu3 O1 1_555 1_555
O2 Cu3 1_555 1_555
C8 C11 1_555 1_555
C10 C13 1_555 1_555
C3_2 H2_2 1_555 1_555
C4_2 C3_2 1_555 1_555
H3_2 C4_2 1_555 1_555
C5_2 C6_2 1_555 1_555
C6_2 H4_2 1_555 1_555
Cu3 O3_2 1_555 1_555
O3_2 C7_2 1_555 1_555
O4_2 C7_2 1_555 1_555
C7_2 C11_2 1_555 1_555
C8_2 H5 1_555 1_555
C10_2 C5_2 1_555 1_555
C11_2 C6_2 1_555 1_555
C13_2 C8_2 1_555 1_555
H8 N2 1_555 1_555
C8_2 C11_2 1_555 1_555
N2 C13_2 1_555 1_555
C10_2 C13_2 1_555 1_555
O7 C1_2 1_555 1_555
C2 H1 1_555 1_555
N2_2 C12 1_555 1_555
O5 C12 1_555 1_555
C12 C14 1_555 1_555
C14 C2 1_555 1_555
H8_2 N2_2 1_555 1_555
C2_2 H1_2 1_555 1_555
C9_2 N3 1_555 1_555
H6_2 C9_2 1_555 1_555
O5_2 C12_2 1_555 1_555
C12_2 C14_2 1_555 1_555
C14_2 C2_2 1_555 1_555
C2_2 C9_2 1_555 1_555
Cu2 O1_2 1_555 1_555
C3_3 H2_3 1_555 1_555
C4_3 C3_3 1_555 1_555
H3_3 C4_3 1_555 1_555
C5_3 C6_3 1_555 1_555
C6_3 H4_3 1_555 1_555
Cu1_2 O3_3 1_555 1_555
O3_3 C7_3 1_555 1_555
O4_3 C7_3 1_555 1_555
C7_3 C11_3 1_555 1_555
C8_3 H5_3 1_555 1_555
C10_3 C5_3 1_555 1_555
C11_3 C6_3 1_555 1_555
C13_3 C8_3 1_555 1_555
H8_3 N2_3 1_555 1_555
N3_2 Cu1_2 1_555 1_555
O6_2 Cu1_2 1_555 1_555
O7_2 Cu1_2 1_555 1_555
C8_3 C11_3 1_555 1_555
N2_3 C13_3 1_555 1_555
C10_3 C13_3 1_555 1_555
O6_2 C1_3 1_555 1_555
O7_2 C1_3 1_555 1_555
C1_3 C5_4 1_555 1_555
C5_4 C6_4 1_555 1_555
C6_4 H4_4 1_555 1_555
Cu2 O3_4 1_555 1_555
O3_4 C7_4 1_555 1_555
O4_4 C7_4 1_555 1_555
C7_4 C11_4 1_555 1_555
C10_4 C5_4 1_555 1_555
H7_3 C10_4 1_555 1_555
C11_4 C6_4 1_555 1_555
C13_4 C8_4 1_555 1_555
C8_4 C11_4 1_555 1_555
C10_4 C13_4 1_555 1_555
N3_2 C3_4 1_555 1_555
C3_4 H2_4 1_555 1_555
C4_4 C3_4 1_555 1_555
H3_4 C4_4 1_555 1_555
C9_3 N3_2 1_555 1_555
H6_3 C9_3 1_555 1_555
O2_2 C1_4 1_555 1_555
C2_3 H1_3 1_555 1_555
C9_4 N1_2 1_555 1_555
H6_4 C9_4 1_555 1_555
O5_3 C12_3 1_555 1_555
C12_3 C14_3 1_555 1_555
C14_3 C2_3 1_555 1_555
C2_3 C9_4 1_555 1_555
C2_4 H1_4 1_555 1_555
N2_4 C12_4 1_555 1_555
O5_4 C12_4 1_555 1_555
C12_4 C14_4 1_555 1_555
C14_4 C2_4 1_555 1_555
H8_4 N2_4 1_555 1_555

#END
