
###############################################################################
#
# This file contains modified crystal structure data generated from the
# MOF subset of the Cambridge Structural Database (CSD) v543 
# hosted by the Cambridge Crystallographic Data Centre (CCDC).
#
# This work is licensed under the Creative Commons
# Attribution-NonCommercial-ShareAlike 4.0 International License.
# To view a copy of this license, visit
# http://creativecommons.org/licenses/by-nc-sa/4.0/
# or send a letter to
# Creative Commons, PO Box 1866, Mountain View, CA 94042, USA.
#
# CIF created using the CSD Python API on 29 September 2022
# The structure has been converted into the P1 space group
# The structure has a 3D framework
# The original CSD entry ITAFIU is in the monoclinic crystal system
# The framework has been calculated to contain at least 10.0% void space
# The void calculation uses a probe of radius 1.32A, grid spacing 0.4
#
###############################################################################

data_ITAFIU
_chemical_formula_moiety         '(C68 H44 N16 O16 Zn4)n'
_symmetry_cell_setting           triclinic
_symmetry_space_group_name_H-M   'P 1'
_symmetry_Int_Tables_number      1
_space_group_name_Hall           'P 1'
loop_
_symmetry_equiv_pos_site_id
_symmetry_equiv_pos_as_xyz
1 x,y,z
_cell_length_a                   15.2246(8)
_cell_length_b                   7.3657(4)
_cell_length_c                   16.7773(9)
_cell_angle_alpha                90
_cell_angle_beta                 106.831(2)
_cell_angle_gamma                90
_cell_volume                     1800.81
loop_
_atom_site_label
_atom_site_type_symbol
_atom_site_fract_x
_atom_site_fract_y
_atom_site_fract_z
C4 C 0.0251(3) 0.6398(5) 0.2934(2)
C5 C 0.0340(3) 0.4942(6) 0.2446(2)
H3 H 0.0920 0.4453 0.2509
C10 C 0.1068(3) 0.7074(5) 0.3610(3)
O3 O 0.09027(19) 0.7585(4) 0.42711(17)
O4 O 0.1838(2) 0.7047(5) 0.3509(2)
Zn5 Zn 0.19197(3) 0.85234(6) 0.51495(3)
C24 C 0.0762(4) 0.8636(6) 0.6384(3)
H17 H 0.0654 0.7393 0.6337
N7 N 0.1250(2) 0.9516(4) 0.5946(2)
C34 C 0.0459(3) 0.9654(5) 0.6873(3)
H22 H 0.0108 0.9325 0.7220
O10 O 0.30250(19) 0.7368(4) 0.58061(18)
C20 C 0.1728(3) 0.1399(5) 0.9924(3)
H14 H 0.1299 0.0933 0.9456
C25 C 0.3770(3) 0.1218(5) 0.8802(2)
H18 H 0.3502 0.2202 0.8990
C26 C 0.4381(3) 0.2864(5) 0.7792(2)
C27 C 0.5251(3) 0.3602(5) 0.7934(2)
C28 C 0.5340(3) 0.5058(6) 0.7446(2)
H19 H 0.5920 0.5547 0.7509
C29 C 0.4597(3) 0.5807(6) 0.6868(2)
H20 H 0.4678 0.6802 0.6555
C30 C 0.3733(3) 0.5092(5) 0.6750(2)
C31 C 0.3634(3) 0.3578(6) 0.7205(2)
H21 H 0.3060 0.3042 0.7114
C32 C 0.2894(3) 0.5899(6) 0.6146(3)
C33 C 0.6068(3) 0.2926(5) 0.8610(3)
N8 N 0.4226(2) 0.1302(4) 0.8244(2)
O5 O 0.2139(2) 0.5172(5) 0.6027(2)
O7 O 0.59027(19) 0.2415(4) 0.92711(17)
O8 O 0.6838(2) 0.2953(5) 0.8509(2)
C1 C 0.9238(4) 0.1364(6) 0.3616(3)
H1 H 0.9346 0.2607 0.3663
N1 N 0.8750(2) 0.0484(4) 0.4054(2)
C17 C 0.9541(3) 0.0346(5) 0.3127(3)
H11 H 0.9892 0.0675 0.2780
Zn1 Zn 0.80803(3) 0.14766(6) 0.48505(3)
O9 O 0.69750(19) 0.2632(4) 0.41939(18)
O12 O 0.90973(19) 0.2415(4) 0.57289(17)
C27_2 C 0.9749(3) 0.3602(5) 0.7066(2)
C28_2 C 0.9660(3) 0.5058(6) 0.7554(2)
H19_2 H 0.9080 0.5547 0.7491
C33_2 C 0.8932(3) 0.2926(5) 0.6390(3)
O8_2 O 0.8162(2) 0.2953(5) 0.6491(2)
O11 O 0.40973(19) 0.7585(4) 0.07289(17)
C2 C 0.6230(3) 0.8782(5) 0.1198(2)
H2 H 0.6498 0.7798 0.1010
C3 C 0.5619(3) 0.7136(5) 0.2208(2)
C4_2 C 0.4749(3) 0.6398(5) 0.2066(2)
C5_2 C 0.4660(3) 0.4942(6) 0.2554(2)
H3_2 H 0.4080 0.4453 0.2491
C6 C 0.5403(3) 0.4193(6) 0.3132(2)
H4 H 0.5322 0.3198 0.3445
C7 C 0.6267(3) 0.4908(5) 0.3250(2)
C8 C 0.6366(3) 0.6422(6) 0.2795(2)
H5 H 0.6940 0.6958 0.2886
C9 C 0.7106(3) 0.4101(6) 0.3854(3)
C10_2 C 0.3932(3) 0.7074(5) 0.1390(3)
C13 C 0.8272(3) 0.8601(5) 0.0076(3)
H8 H 0.8701 0.9067 0.0544
N2 N 0.5774(2) 0.8698(4) 0.1756(2)
O1 O 0.7861(2) 0.4828(5) 0.3973(2)
O4_2 O 0.3162(2) 0.7047(5) 0.1491(2)
C2_2 C 0.8770(3) 0.8782(5) 0.3802(2)
H2_2 H 0.8502 0.7798 0.3990
C3_2 C 0.9381(3) 0.7136(5) 0.2792(2)
C6_2 C 0.9597(3) 0.4193(6) 0.1868(2)
H4_2 H 0.9678 0.3198 0.1555
C7_2 C 0.8733(3) 0.4908(5) 0.1750(2)
C8_2 C 0.8634(3) 0.6422(6) 0.2205(2)
H5_2 H 0.8060 0.6958 0.2114
C9_2 C 0.7894(3) 0.4101(6) 0.1146(3)
C11 C 0.7958(3) 0.8213(6) 0.5919(3)
H6 H 0.8550 0.8368 0.6269
C12 C 0.7370(3) 0.6916(6) 0.5997(3)
H7 H 0.7476 0.6025 0.6407
C13_2 C 0.6728(3) 0.8601(5) 0.4924(3)
H8_2 H 0.6299 0.9067 0.4456
C14 C 0.5774(3) 0.6059(5) 0.5178(2)
C15 C 0.5843(3) 0.4254(6) 0.5397(2)
H9 H 0.6414 0.3756 0.5666
C16 C 0.4932(3) 0.6819(5) 0.4780(3)
H10 H 0.4888 0.8041 0.4633
N2_2 N 0.9226(2) 0.8698(4) 0.3244(2)
N3 N 0.7551(2) 0.9267(5) 0.5246(2)
N4 N 0.6584(2) 0.7159(4) 0.5358(2)
O1_2 O 0.7139(2) 0.4828(5) 0.1027(2)
O2 O 0.80250(19) 0.2632(4) 0.08061(18)
C18 C 0.2042(3) 0.1787(6) 0.4081(3)
H12 H 0.1450 0.1632 0.3731
C19 C 0.2630(3) 0.3084(6) 0.4003(3)
H13 H 0.2524 0.3975 0.3593
C20_2 C 0.3272(3) 0.1399(5) 0.5076(3)
H14_2 H 0.3701 0.0933 0.5544
C21 C 0.4226(3) 0.3941(5) 0.4822(2)
C22 C 0.4157(3) 0.5746(6) 0.4603(2)
H15 H 0.3586 0.6244 0.4334
C23 C 0.5068(3) 0.3181(5) 0.5220(3)
H16 H 0.5112 0.1959 0.5367
N5 N 0.2449(2) 0.0733(5) 0.4754(2)
N6 N 0.3416(2) 0.2841(4) 0.4642(2)
C25_2 C 0.1230(3) 0.1218(5) 0.6198(2)
H18_2 H 0.1498 0.2202 0.6010
C26_2 C 0.0619(3) 0.2864(5) 0.7208(2)
C29_2 C 0.0403(3) 0.5807(6) 0.8132(2)
H20_2 H 0.0322 0.6802 0.8445
C30_2 C 0.1267(3) 0.5092(5) 0.8250(2)
C31_2 C 0.1366(3) 0.3578(6) 0.7795(2)
H21_2 H 0.1940 0.3042 0.7886
C32_2 C 0.2106(3) 0.5899(6) 0.8854(3)
N8_2 N 0.0774(2) 0.1302(4) 0.6756(2)
O5_2 O 0.2861(2) 0.5172(5) 0.8973(2)
O6 O 0.19750(19) 0.7368(4) 0.91939(18)
Zn4 Zn 0.69197(3) 0.14766(6) 0.01495(3)
Zn6 Zn 0.30803(3) 0.85234(6) 0.98505(3)
C16_2 C 0.0068(3) 0.6819(5) 0.0220(3)
H10_2 H 0.0112 0.8041 0.0367
C18_2 C 0.2958(3) 0.1787(6) 0.0919(3)
H12_2 H 0.3550 0.1632 0.1269
C19_2 C 0.2370(3) 0.3084(6) 0.0997(3)
H13_2 H 0.2476 0.3975 0.1407
C21_2 C 0.0774(3) 0.3941(5) 0.0178(2)
C22_2 C 0.0843(3) 0.5746(6) 0.0397(2)
H15_2 H 0.1414 0.6244 0.0666
N5_2 N 0.2551(2) 0.0733(5) 0.0246(2)
N6_2 N 0.1584(2) 0.2841(4) 0.0358(2)
C24_2 C 0.4238(4) 0.8636(6) 0.8616(3)
H17_2 H 0.4346 0.7393 0.8663
N7_2 N 0.3750(2) 0.9516(4) 0.9054(2)
C34_2 C 0.4541(3) 0.9654(5) 0.8127(3)
H22_2 H 0.4892 0.9325 0.7780
C1_2 C 0.5762(4) 0.1364(6) 0.1384(3)
H1_2 H 0.5654 0.2607 0.1337
N1_2 N 0.6250(2) 0.0484(4) 0.0946(2)
C17_2 C 0.5459(3) 0.0346(5) 0.1873(3)
H11_2 H 0.5108 0.0675 0.2220
C11_2 C 0.7042(3) 0.8213(6) 0.9081(3)
H6_2 H 0.6450 0.8368 0.8731
C12_2 C 0.7630(3) 0.6916(6) 0.9003(3)
H7_2 H 0.7524 0.6025 0.8593
C14_2 C 0.9226(3) 0.6059(5) 0.9822(2)
C15_2 C 0.9157(3) 0.4254(6) 0.9603(2)
H9_2 H 0.8586 0.3756 0.9334
N3_2 N 0.7449(2) 0.9267(5) 0.9754(2)
N4_2 N 0.8416(2) 0.7159(4) 0.9642(2)
C23_2 C 0.9932(3) 0.3181(5) 0.9780(3)
H16_2 H 0.9888 0.1959 0.9633
loop_
_geom_bond_atom_site_label_1
_geom_bond_atom_site_label_2
_geom_bond_site_symmetry_1
_geom_bond_site_symmetry_2
C4 C5 1_555 1_555
C5 H3 1_555 1_555
C10 C4 1_555 1_555
O3 C10 1_555 1_555
O4 C10 1_555 1_555
Zn5 O3 1_555 1_555
C24 H17 1_555 1_555
N7 C24 1_555 1_555
C34 C24 1_555 1_555
H22 C34 1_555 1_555
O10 Zn5 1_555 1_555
N7 Zn5 1_555 1_555
C20 H14 1_555 1_555
C25 H18 1_555 1_555
C26 C27 1_555 1_555
C27 C28 1_555 1_555
C28 H19 1_555 1_555
C29 C28 1_555 1_555
H20 C29 1_555 1_555
C30 C29 1_555 1_555
C31 C26 1_555 1_555
H21 C31 1_555 1_555
C32 C30 1_555 1_555
C33 C27 1_555 1_555
N8 C25 1_555 1_555
O5 C32 1_555 1_555
O10 C32 1_555 1_555
O7 C33 1_555 1_555
O8 C33 1_555 1_555
C26 N8 1_555 1_555
C30 C31 1_555 1_555
C1 H1 1_555 1_555
N1 C1 1_555 1_555
C17 C1 1_555 1_555
H11 C17 1_555 1_555
Zn1 N1 1_555 1_555
O9 Zn1 1_555 1_555
O12 Zn1 1_555 1_555
C27_2 C28_2 1_555 1_555
C28_2 H19_2 1_555 1_555
C33_2 C27_2 1_555 1_555
O12 C33_2 1_555 1_555
O8_2 C33_2 1_555 1_555
C2 H2 1_555 1_555
C3 C4_2 1_555 1_555
C4_2 C5_2 1_555 1_555
C5_2 H3_2 1_555 1_555
C6 C5_2 1_555 1_555
H4 C6 1_555 1_555
C7 C6 1_555 1_555
C8 C3 1_555 1_555
H5 C8 1_555 1_555
C9 C7 1_555 1_555
C10_2 C4_2 1_555 1_555
C13 H8 1_555 1_555
N2 C2 1_555 1_555
O1 C9 1_555 1_555
O9 C9 1_555 1_555
O11 C10_2 1_555 1_555
O4_2 C10_2 1_555 1_555
C3 N2 1_555 1_555
C7 C8 1_555 1_555
C2_2 H2_2 1_555 1_555
H4_2 C6_2 1_555 1_555
C7_2 C6_2 1_555 1_555
C8_2 C3_2 1_555 1_555
H5_2 C8_2 1_555 1_555
C9_2 C7_2 1_555 1_555
C11 H6 1_555 1_555
C12 C11 1_555 1_555
H7 C12 1_555 1_555
C13_2 H8_2 1_555 1_555
C14 C15 1_555 1_555
C15 H9 1_555 1_555
C16 C14 1_555 1_555
H10 C16 1_555 1_555
N2_2 C2_2 1_555 1_555
N3 C11 1_555 1_555
N4 C12 1_555 1_555
O1_2 C9_2 1_555 1_555
O2 C9_2 1_555 1_555
C18 H12 1_555 1_555
C19 C18 1_555 1_555
H13 C19 1_555 1_555
C20_2 H14_2 1_555 1_555
C21 C22 1_555 1_555
C22 C16 1_555 1_555
H15 C22 1_555 1_555
C23 C15 1_555 1_555
H16 C23 1_555 1_555
N5 C18 1_555 1_555
N6 C19 1_555 1_555
C25_2 H18_2 1_555 1_555
H20_2 C29_2 1_555 1_555
C30_2 C29_2 1_555 1_555
C31_2 C26_2 1_555 1_555
H21_2 C31_2 1_555 1_555
C32_2 C30_2 1_555 1_555
N8_2 C25_2 1_555 1_555
O5_2 C32_2 1_555 1_555
O6 C32_2 1_555 1_555
Zn4 O2 1_555 1_555
Zn6 O6 1_555 1_555
C3_2 N2_2 1_555 1_555
C7_2 C8_2 1_555 1_555
C13_2 N3 1_555 1_555
C13_2 N4 1_555 1_555
C14 N4 1_555 1_555
C20_2 N5 1_555 1_555
C20_2 N6 1_555 1_555
C21 C23 1_555 1_555
C21 N6 1_555 1_555
C26_2 N8_2 1_555 1_555
C30_2 C31_2 1_555 1_555
H10_2 C16_2 1_555 1_555
C18_2 H12_2 1_555 1_555
C19_2 C18_2 1_555 1_555
H13_2 C19_2 1_555 1_555
C21_2 C22_2 1_555 1_555
C22_2 C16_2 1_555 1_555
H15_2 C22_2 1_555 1_555
N5_2 C18_2 1_555 1_555
N6_2 C19_2 1_555 1_555
C21_2 N6_2 1_555 1_555
C24_2 H17_2 1_555 1_555
N7_2 C24_2 1_555 1_555
C34_2 C24_2 1_555 1_555
H22_2 C34_2 1_555 1_555
N7_2 Zn6 1_555 1_555
C1_2 H1_2 1_555 1_555
N1_2 C1_2 1_555 1_555
C17_2 C1_2 1_555 1_555
H11_2 C17_2 1_555 1_555
Zn4 N1_2 1_555 1_555
C11_2 H6_2 1_555 1_555
C12_2 C11_2 1_555 1_555
H7_2 C12_2 1_555 1_555
C14_2 C15_2 1_555 1_555
C15_2 H9_2 1_555 1_555
N3_2 C11_2 1_555 1_555
N4_2 C12_2 1_555 1_555
C23_2 C15_2 1_555 1_555
H16_2 C23_2 1_555 1_555
C14_2 N4_2 1_555 1_555

#END
