
###############################################################################
#
# This file contains modified crystal structure data generated from the
# MOF subset of the Cambridge Structural Database (CSD) v543 
# hosted by the Cambridge Crystallographic Data Centre (CCDC).
#
# This work is licensed under the Creative Commons
# Attribution-NonCommercial-ShareAlike 4.0 International License.
# To view a copy of this license, visit
# http://creativecommons.org/licenses/by-nc-sa/4.0/
# or send a letter to
# Creative Commons, PO Box 1866, Mountain View, CA 94042, USA.
#
# CIF created using the CSD Python API on 29 September 2022
# The structure has been converted into the P1 space group
# The structure has a 3D framework
# The original CSD entry ITAWEI is in the orthorhombic crystal system
# The framework has been calculated to contain at least 10.0% void space
# The void calculation uses a probe of radius 1.32A, grid spacing 0.4
#
###############################################################################

data_ITAWEI
_chemical_formula_moiety         '(C80 H56 N16 Ni6 O16)n'
_symmetry_cell_setting           triclinic
_symmetry_space_group_name_H-M   'P 1'
_symmetry_Int_Tables_number      1
_space_group_name_Hall           'P 1'
loop_
_symmetry_equiv_pos_site_id
_symmetry_equiv_pos_as_xyz
1 x,y,z
_cell_length_a                   12.0404(9)
_cell_length_b                   10.8946(7)
_cell_length_c                   17.4538(12)
_cell_angle_alpha                90
_cell_angle_beta                 90
_cell_angle_gamma                90
_cell_volume                     2289.51
loop_
_atom_site_label
_atom_site_type_symbol
_atom_site_fract_x
_atom_site_fract_y
_atom_site_fract_z
C12 C 0.0262(9) 0.0447(8) 0.1831(5)
H9 H 0.0907 0.0847 0.1677
C1 C 0.6136(5) 0.0816(5) 0.1919(3)
H1 H 0.6619 0.1461 0.1816
C4 C 0.4760(4) 0.1285(4) 0.0892(3)
C5 C 0.3940(5) 0.0806(5) 0.0416(3)
H4 H 0.3678 0.0013 0.0495
C6 C 0.5144(5) 0.2463(5) 0.0775(3)
H5 H 0.5691 0.2788 0.1092
C7 C 0.4712(6) 0.3148(5) 0.0190(4)
H6 H 0.4985 0.3936 0.0109
N1 N 0.6272(4) 0.0037(4) 0.2471(2)
N2 N 0.5202(4) 0.0575(4) 0.1508(2)
C14 C 0.0240(4) 0.8715(4) 0.0892(3)
C15 C 0.1060(5) 0.9194(5) 0.0416(3)
H11 H 0.1322 0.9987 0.0495
C17 C 0.0288(6) 0.6852(5) 0.0190(4)
H13 H 0.0015 0.6064 0.0109
Ni3 Ni 0.7500 0.0000 0.32690(5)
C13 C 0.9592(9) 0.0753(8) 0.2416(5)
H10 H 0.9706 0.1419 0.2740
C12_2 C 0.9738(9) 0.5447(8) 0.6831(5)
H9_2 H 0.9093 0.5847 0.6677
C14_2 C 0.9760(4) 0.3715(4) 0.5892(3)
C15_2 C 0.8940(5) 0.4194(5) 0.5416(3)
H11_2 H 0.8678 0.4987 0.5495
C17_2 C 0.9712(6) 0.1852(5) 0.5190(4)
H13_2 H 0.9985 0.1064 0.5109
C18 C 0.8885(5) 0.2293(5) 0.4716(3)
C19 C 0.8515(5) 0.3493(4) 0.4826(3)
H14 H 0.7980 0.3822 0.4502
C20 C 0.8410(5) 0.1476(5) 0.4115(3)
O3 O 0.7728(3) 0.1885(3) 0.36204(18)
O4 O 0.8666(3) 0.0357(3) 0.41255(19)
C8 C 0.3885(5) 0.2707(5) 0.9716(3)
C9 C 0.3515(5) 0.1507(4) 0.9826(3)
H7 H 0.2980 0.1178 0.9502
C10 C 0.3410(5) 0.3524(5) 0.9115(3)
Ni1 Ni 0.2500 0.5000 0.82690(5)
O1 O 0.2728(3) 0.3115(3) 0.86204(18)
O2 O 0.3666(3) 0.4643(3) 0.91255(19)
C18_2 C 0.1115(5) 0.7293(5) 0.9716(3)
C19_2 C 0.1485(5) 0.8493(4) 0.9826(3)
H14_2 H 0.2020 0.8822 0.9502
C20_2 C 0.1590(5) 0.6476(5) 0.9115(3)
O3_2 O 0.2272(3) 0.6885(3) 0.86204(18)
O4_2 O 0.1334(3) 0.5357(3) 0.91255(19)
N5 N 0.3728(4) 0.5037(4) 0.7471(2)
N6 N 0.1272(4) 0.4963(4) 0.7471(2)
C2 C 0.4738(9) 0.9553(8) 0.1831(5)
H2 H 0.4093 0.9153 0.1677
C3 C 0.5408(9) 0.9247(8) 0.2416(5)
H3 H 0.5294 0.8581 0.2740
Ni3_2 Ni 0.7500 1.0000 0.32690(5)
C11 C 0.8864(5) 0.9184(5) 0.1919(3)
H8 H 0.8381 0.8539 0.1816
C16 C 0.9856(5) 0.7537(5) 0.0775(3)
H12 H 0.9309 0.7212 0.1092
N3 N 0.8728(4) 0.9963(4) 0.2471(2)
N4 N 0.9798(4) 0.9425(4) 0.1508(2)
C11_2 C 0.1136(5) 0.4184(5) 0.6919(3)
H8_2 H 0.1619 0.3539 0.6816
C13_2 C 0.0408(9) 0.5753(8) 0.7416(5)
H10_2 H 0.0294 0.6419 0.7740
C16_2 C 0.0144(5) 0.2537(5) 0.5775(3)
H12_2 H 0.0691 0.2212 0.6092
N4_2 N 0.0202(4) 0.4425(4) 0.6508(2)
C1_2 C 0.3864(5) 0.5816(5) 0.6919(3)
H1_2 H 0.3381 0.6461 0.6816
C2_2 C 0.5262(9) 0.4553(8) 0.6831(5)
H2_2 H 0.5907 0.4153 0.6677
C3_2 C 0.4592(9) 0.4247(8) 0.7416(5)
H3_2 H 0.4706 0.3581 0.7740
C4_2 C 0.5240(4) 0.6285(4) 0.5892(3)
C5_2 C 0.6060(5) 0.5806(5) 0.5416(3)
H4_2 H 0.6322 0.5013 0.5495
C6_2 C 0.4856(5) 0.7463(5) 0.5775(3)
H5_2 H 0.4309 0.7788 0.6092
C7_2 C 0.5288(6) 0.8148(5) 0.5190(4)
H6_2 H 0.5015 0.8936 0.5109
C8_2 C 0.6115(5) 0.7707(5) 0.4716(3)
C9_2 C 0.6485(5) 0.6507(4) 0.4826(3)
H7_2 H 0.7020 0.6178 0.4502
C10_2 C 0.6590(5) 0.8524(5) 0.4115(3)
N2_2 N 0.4798(4) 0.5575(4) 0.6508(2)
O1_2 O 0.7272(3) 0.8115(3) 0.36204(18)
O2_2 O 0.6334(3) 0.9643(3) 0.41255(19)
C1_3 C 0.6136(5) 0.4184(5) 0.3081(3)
H1_3 H 0.6619 0.3539 0.3184
C2_3 C 0.4738(9) 0.5447(8) 0.3169(5)
H2_3 H 0.4093 0.5847 0.3323
C3_3 C 0.5408(9) 0.5753(8) 0.2584(5)
H3_3 H 0.5294 0.6419 0.2260
C4_3 C 0.4760(4) 0.3715(4) 0.4108(3)
C5_3 C 0.3940(5) 0.4194(5) 0.4584(3)
H4_3 H 0.3678 0.4987 0.4505
C6_3 C 0.5144(5) 0.2537(5) 0.4225(3)
H5_3 H 0.5691 0.2212 0.3908
C7_3 C 0.4712(6) 0.1852(5) 0.4810(4)
H6_3 H 0.4985 0.1064 0.4891
C8_3 C 0.3885(5) 0.2293(5) 0.5284(3)
C9_3 C 0.3515(5) 0.3493(4) 0.5174(3)
H7_3 H 0.2980 0.3822 0.5498
C10_3 C 0.3410(5) 0.1476(5) 0.5885(3)
N1_2 N 0.6272(4) 0.4963(4) 0.2529(2)
N2_3 N 0.5202(4) 0.4425(4) 0.3492(2)
Ni1_2 Ni 0.2500 0.0000 0.67310(5)
O1_3 O 0.2728(3) 0.1885(3) 0.63796(18)
O2_3 O 0.3666(3) 0.0357(3) 0.58745(19)
N6_2 N 0.1272(4) 0.0037(4) 0.7529(2)
Ni3_3 Ni 0.7500 0.5000 0.17310(5)
C11_3 C 0.8864(5) 0.5816(5) 0.3081(3)
H8_3 H 0.8381 0.6461 0.3184
C13_3 C 0.9592(9) 0.4247(8) 0.2584(5)
H10_3 H 0.9706 0.3581 0.2260
C16_3 C 0.9856(5) 0.7463(5) 0.4225(3)
H12_3 H 0.9309 0.7788 0.3908
N3_2 N 0.8728(4) 0.5037(4) 0.2529(2)
N4_3 N 0.9798(4) 0.5575(4) 0.3492(2)
C11_4 C 0.1136(5) 0.0816(5) 0.8081(3)
H8_4 H 0.1619 0.1461 0.8184
C16_4 C 0.0144(5) 0.2463(5) 0.9225(3)
H12_4 H 0.0691 0.2788 0.8908
N4_4 N 0.0202(4) 0.0575(4) 0.8492(2)
C2_4 C 0.5262(9) 0.0447(8) 0.8169(5)
H2_4 H 0.5907 0.0847 0.8323
C3_4 C 0.4592(9) 0.0753(8) 0.7584(5)
H3_4 H 0.4706 0.1419 0.7260
C8_4 C 0.6115(5) 0.7293(5) 0.0284(3)
C9_4 C 0.6485(5) 0.8493(4) 0.0174(3)
H7_4 H 0.7020 0.8822 0.0498
C10_4 C 0.6590(5) 0.6476(5) 0.0885(3)
O1_4 O 0.7272(3) 0.6885(3) 0.13796(18)
O2_4 O 0.6334(3) 0.5357(3) 0.08745(19)
C18_3 C 0.8885(5) 0.2707(5) 0.0284(3)
C19_3 C 0.8515(5) 0.1507(4) 0.0174(3)
H14_3 H 0.7980 0.1178 0.0498
C20_3 C 0.8410(5) 0.3524(5) 0.0885(3)
O3_3 O 0.7728(3) 0.3115(3) 0.13796(18)
O4_3 O 0.8666(3) 0.4643(3) 0.08745(19)
Ni1_3 Ni 0.2500 1.0000 0.67310(5)
C12_3 C 0.0262(9) 0.4553(8) 0.3169(5)
H9_3 H 0.0907 0.4153 0.3323
C14_3 C 0.0240(4) 0.6285(4) 0.4108(3)
C15_3 C 0.1060(5) 0.5806(5) 0.4584(3)
H11_3 H 0.1322 0.5013 0.4505
C17_3 C 0.0288(6) 0.8148(5) 0.4810(4)
H13_3 H 0.0015 0.8936 0.4891
C18_4 C 0.1115(5) 0.7707(5) 0.5284(3)
C19_4 C 0.1485(5) 0.6507(4) 0.5174(3)
H14_4 H 0.2020 0.6178 0.5498
C20_4 C 0.1590(5) 0.8524(5) 0.5885(3)
O3_4 O 0.2272(3) 0.8115(3) 0.63796(18)
O4_4 O 0.1334(3) 0.9643(3) 0.58745(19)
N5_2 N 0.3728(4) 0.9963(4) 0.7529(2)
C13_4 C 0.0408(9) 0.9247(8) 0.7584(5)
H10_4 H 0.0294 0.8581 0.7260
C1_4 C 0.3864(5) 0.9184(5) 0.8081(3)
H1_4 H 0.3381 0.8539 0.8184
C4_4 C 0.5240(4) 0.8715(4) 0.9108(3)
C5_4 C 0.6060(5) 0.9194(5) 0.9584(3)
H4_4 H 0.6322 0.9987 0.9505
C6_4 C 0.4856(5) 0.7537(5) 0.9225(3)
H5_4 H 0.4309 0.7212 0.8908
C7_4 C 0.5288(6) 0.6852(5) 0.9810(4)
H6_4 H 0.5015 0.6064 0.9891
N2_4 N 0.4798(4) 0.9425(4) 0.8492(2)
C14_4 C 0.9760(4) 0.1285(4) 0.9108(3)
C15_4 C 0.8940(5) 0.0806(5) 0.9584(3)
H11_4 H 0.8678 0.0013 0.9505
C17_4 C 0.9712(6) 0.3148(5) 0.9810(4)
H13_4 H 0.9985 0.3936 0.9891
C12_4 C 0.9738(9) 0.9553(8) 0.8169(5)
H9_4 H 0.9093 0.9153 0.8323
loop_
_geom_bond_atom_site_label_1
_geom_bond_atom_site_label_2
_geom_bond_site_symmetry_1
_geom_bond_site_symmetry_2
C12 H9 1_555 1_555
C1 H1 1_555 1_555
C4 C5 1_555 1_555
C5 H4 1_555 1_555
C6 C4 1_555 1_555
H5 C6 1_555 1_555
C7 C6 1_555 1_555
H6 C7 1_555 1_555
N1 C1 1_555 1_555
N2 C1 1_555 1_555
C14 C15 1_555 1_555
C15 H11 1_555 1_555
H13 C17 1_555 1_555
Ni3 N1 1_555 1_555
C4 N2 1_555 1_555
H10 C13 1_555 1_555
C12_2 H9_2 1_555 1_555
C14_2 C15_2 1_555 1_555
C15_2 H11_2 1_555 1_555
H13_2 C17_2 1_555 1_555
C18 C17_2 1_555 1_555
C19 C15_2 1_555 1_555
H14 C19 1_555 1_555
C20 C18 1_555 1_555
O3 Ni3 1_555 1_555
O4 Ni3 1_555 1_555
C18 C19 1_555 1_555
C20 O3 1_555 1_555
C20 O4 1_555 1_555
H7 C9 1_555 1_555
C10 C8 1_555 1_555
Ni1 O1 1_555 1_555
O1 C10 1_555 1_555
O2 C10 1_555 1_555
H14_2 C19_2 1_555 1_555
C20_2 C18_2 1_555 1_555
O3_2 Ni1 1_555 1_555
O4_2 Ni1 1_555 1_555
N5 Ni1 1_555 1_555
N6 Ni1 1_555 1_555
C8 C9 1_555 1_555
Ni1 O2 1_555 1_555
C18_2 C19_2 1_555 1_555
C20_2 O3_2 1_555 1_555
C20_2 O4_2 1_555 1_555
C2 H2 1_555 1_555
C3 C2 1_555 1_555
H3 C3 1_555 1_555
C11 H8 1_555 1_555
H12 C16 1_555 1_555
N3 C11 1_555 1_555
N4 C11 1_555 1_555
Ni3_2 N3 1_555 1_555
C11_2 H8_2 1_555 1_555
H10_2 C13_2 1_555 1_555
H12_2 C16_2 1_555 1_555
N6 C11_2 1_555 1_555
N4_2 C11_2 1_555 1_555
C13_2 N6 1_555 1_555
C1_2 H1_2 1_555 1_555
C2_2 H2_2 1_555 1_555
C3_2 C2_2 1_555 1_555
H3_2 C3_2 1_555 1_555
C4_2 C5_2 1_555 1_555
C5_2 H4_2 1_555 1_555
C6_2 C4_2 1_555 1_555
H5_2 C6_2 1_555 1_555
C7_2 C6_2 1_555 1_555
H6_2 C7_2 1_555 1_555
C8_2 C7_2 1_555 1_555
C9_2 C5_2 1_555 1_555
H7_2 C9_2 1_555 1_555
C10_2 C8_2 1_555 1_555
N5 C1_2 1_555 1_555
N2_2 C1_2 1_555 1_555
Ni3_2 O1_2 1_555 1_555
O1_2 C10_2 1_555 1_555
O2_2 C10_2 1_555 1_555
C2_2 N2_2 1_555 1_555
C3_2 N5 1_555 1_555
C4_2 N2_2 1_555 1_555
C8_2 C9_2 1_555 1_555
Ni3_2 O2_2 1_555 1_555
C1_3 H1_3 1_555 1_555
C2_3 H2_3 1_555 1_555
C3_3 C2_3 1_555 1_555
H3_3 C3_3 1_555 1_555
C4_3 C5_3 1_555 1_555
C5_3 H4_3 1_555 1_555
C6_3 C4_3 1_555 1_555
H5_3 C6_3 1_555 1_555
C7_3 C6_3 1_555 1_555
H6_3 C7_3 1_555 1_555
C8_3 C7_3 1_555 1_555
C9_3 C5_3 1_555 1_555
H7_3 C9_3 1_555 1_555
C10_3 C8_3 1_555 1_555
N1_2 C1_3 1_555 1_555
N2_3 C1_3 1_555 1_555
Ni1_2 O1_3 1_555 1_555
O1_3 C10_3 1_555 1_555
O2_3 C10_3 1_555 1_555
N6_2 Ni1_2 1_555 1_555
Ni3_3 N1_2 1_555 1_555
C2_3 N2_3 1_555 1_555
C3_3 N1_2 1_555 1_555
C4_3 N2_3 1_555 1_555
C8_3 C9_3 1_555 1_555
Ni1_2 O2_3 1_555 1_555
C11_3 H8_3 1_555 1_555
H10_3 C13_3 1_555 1_555
H12_3 C16_3 1_555 1_555
N3_2 C11_3 1_555 1_555
N4_3 C11_3 1_555 1_555
Ni3_3 N3_2 1_555 1_555
C13_3 N3_2 1_555 1_555
C11_4 H8_4 1_555 1_555
H12_4 C16_4 1_555 1_555
N6_2 C11_4 1_555 1_555
N4_4 C11_4 1_555 1_555
C2_4 H2_4 1_555 1_555
C3_4 C2_4 1_555 1_555
H3_4 C3_4 1_555 1_555
H7_4 C9_4 1_555 1_555
C10_4 C8_4 1_555 1_555
Ni3_3 O1_4 1_555 1_555
O1_4 C10_4 1_555 1_555
O2_4 C10_4 1_555 1_555
H14_3 C19_3 1_555 1_555
C20_3 C18_3 1_555 1_555
O3_3 Ni3_3 1_555 1_555
O4_3 Ni3_3 1_555 1_555
C8_4 C9_4 1_555 1_555
Ni3_3 O2_4 1_555 1_555
C18_3 C19_3 1_555 1_555
C20_3 O3_3 1_555 1_555
C20_3 O4_3 1_555 1_555
C12_3 H9_3 1_555 1_555
C14_3 C15_3 1_555 1_555
C15_3 H11_3 1_555 1_555
H13_3 C17_3 1_555 1_555
C18_4 C17_3 1_555 1_555
C19_4 C15_3 1_555 1_555
H14_4 C19_4 1_555 1_555
C20_4 C18_4 1_555 1_555
O3_4 Ni1_3 1_555 1_555
O4_4 Ni1_3 1_555 1_555
N5_2 Ni1_3 1_555 1_555
C18_4 C19_4 1_555 1_555
C20_4 O3_4 1_555 1_555
C20_4 O4_4 1_555 1_555
H10_4 C13_4 1_555 1_555
C1_4 H1_4 1_555 1_555
C4_4 C5_4 1_555 1_555
C5_4 H4_4 1_555 1_555
C6_4 C4_4 1_555 1_555
H5_4 C6_4 1_555 1_555
C7_4 C6_4 1_555 1_555
H6_4 C7_4 1_555 1_555
N5_2 C1_4 1_555 1_555
N2_4 C1_4 1_555 1_555
C14_4 C15_4 1_555 1_555
C15_4 H11_4 1_555 1_555
H13_4 C17_4 1_555 1_555
C4_4 N2_4 1_555 1_555
C12_4 H9_4 1_555 1_555

#END
