
###############################################################################
#
# This file contains modified crystal structure data generated from the
# MOF subset of the Cambridge Structural Database (CSD) v543 
# hosted by the Cambridge Crystallographic Data Centre (CCDC).
#
# This work is licensed under the Creative Commons
# Attribution-NonCommercial-ShareAlike 4.0 International License.
# To view a copy of this license, visit
# http://creativecommons.org/licenses/by-nc-sa/4.0/
# or send a letter to
# Creative Commons, PO Box 1866, Mountain View, CA 94042, USA.
#
# CIF created using the CSD Python API on 29 September 2022
# The structure has been converted into the P1 space group
# The structure has a 3D framework
# The original CSD entry ITIPOS is in the hexagonal crystal system
# The original CSD entry ITIPOS is in a Sohncke space group
# The framework has been calculated to contain at least 10.0% void space
# The void calculation uses a probe of radius 1.32A, grid spacing 0.4
#
###############################################################################

data_ITIPOS
_chemical_formula_moiety         '(C48 H54 Ca2 Cu12 N12 O38)n'
_symmetry_cell_setting           triclinic
_symmetry_space_group_name_H-M   'P 1'
_symmetry_Int_Tables_number      1
_space_group_name_Hall           'P 1'
loop_
_symmetry_equiv_pos_site_id
_symmetry_equiv_pos_as_xyz
1 x,y,z
_cell_length_a                   17.6943(10)
_cell_length_b                   17.6943(10)
_cell_length_c                   13.2921(8)
_cell_angle_alpha                90
_cell_angle_beta                 90
_cell_angle_gamma                120
_cell_volume                     3604.05
loop_
_atom_site_label
_atom_site_type_symbol
_atom_site_fract_x
_atom_site_fract_y
_atom_site_fract_z
N5 N 0.6008(5) 0.0971(3) 0.2932(4)
O16 O 0.4487(4) 0.0151(3) 0.2005(4)
O17 O 0.8015(5) 0.3005(3) 0.2774(4)
O21 O 0.6785(4) 0.2375(2) 0.1855(4)
C18 C 0.5463(6) 0.0238(4) 0.3352(5)
C22 C 0.7260(6) 0.2376(4) 0.2591(5)
C23 C 0.7489(6) 0.1130(4) 0.3088(5)
H24 H 0.7277 0.0613 0.3518
H25 H 0.8093 0.1553 0.3267
H26 H 0.7462 0.0958 0.2382
C24 C 0.6903(6) 0.1553(4) 0.3243(6)
H27 H 0.6914 0.1712 0.3967
Cu8 Cu 0.86691(4) 0.42474(4) 0.18047(4)
Cu12 Cu 0.55783(6) 0.13309(4) 0.18047(4)
Ca4 Ca 0.6667 0.3333 0.0563(2)
Cu1 Cu 0.13309(4) 0.57526(4) 0.68047(4)
Cu2 Cu 0.13363(4) 0.58025(4) 0.43051(4)
Ca1 Ca 0.3333 0.6667 0.5563(2)
N2 N 0.0993(3) 0.5059(4) 0.3150(5)
O1 O 0.17244(18) 0.63846(18) 0.5575(4)
H1 H 0.178(5) 0.685(3) 0.559(10)
O4 O 0.0146(3) 0.5706(3) 0.4117(3)
O5 O 0.2962(3) 0.4988(4) 0.3336(4)
O6 O 0.2367(3) 0.5611(3) 0.4255(4)
C1 C 0.0226(4) 0.4824(4) 0.2782(5)
C3 C 0.1624(4) 0.4848(4) 0.2729(5)
H2 H 0.1344 0.4203 0.2636
C4 C 0.2377(4) 0.5159(4) 0.3506(5)
C5 C 0.1990(4) 0.5313(4) 0.1711(4)
H3 H 0.1507 0.5159 0.1242
H4 H 0.2385 0.5129 0.1431
H5 H 0.2310 0.5946 0.1816
Cu3 Cu 0.42474(4) 0.55783(6) 0.68047(4)
Cu4 Cu 0.41975(4) 0.55338(6) 0.43051(4)
N3 N 0.4963(4) 0.3992(5) 0.2932(4)
N4 N 0.4941(4) 0.5934(5) 0.3150(5)
O8 O 0.36154(18) 0.53398(25) 0.5575(4)
H10 H 0.315(3) 0.493(6) 0.559(10)
O9 O 0.5664(3) 0.5513(4) 0.2005(4)
O10 O 0.4990(4) 0.1985(5) 0.2774(4)
O11 O 0.4294(3) 0.4440(4) 0.4117(3)
O12 O 0.5012(4) 0.7974(5) 0.3336(4)
O13 O 0.4389(3) 0.6756(4) 0.4255(4)
O14 O 0.5590(3) 0.3215(4) 0.1855(4)
C9 C 0.5176(4) 0.5402(6) 0.2782(5)
C10 C 0.4775(4) 0.4537(6) 0.3352(5)
C11 C 0.5152(4) 0.6776(6) 0.2729(5)
H11 H 0.5797 0.7141 0.2636
C12 C 0.4841(4) 0.7218(6) 0.3506(5)
C13 C 0.4687(4) 0.6677(6) 0.1711(4)
H12 H 0.4841 0.6348 0.1242
H13 H 0.4871 0.7256 0.1431
H14 H 0.4054 0.6364 0.1816
C14 C 0.5116(4) 0.2740(6) 0.2591(5)
C15 C 0.3641(4) 0.2511(6) 0.3088(5)
H15 H 0.3336 0.2723 0.3518
H16 H 0.3460 0.1907 0.3267
H17 H 0.3496 0.2538 0.2382
C16 C 0.4650(4) 0.3097(6) 0.3243(6)
H18 H 0.4798 0.3086 0.3967
Cu5 Cu 0.44217(6) 0.86691(4) 0.68047(4)
Cu6 Cu 0.44662(6) 0.86637(4) 0.43051(4)
N6 N 0.4066(5) 0.9007(3) 0.3150(5)
O15 O 0.46602(25) 0.82756(18) 0.5575(4)
H19 H 0.507(6) 0.822(5) 0.559(10)
O18 O 0.5560(4) 0.9854(3) 0.4117(3)
O19 O 0.2026(5) 0.7038(3) 0.3336(4)
O20 O 0.3244(4) 0.7633(3) 0.4255(4)
C17 C 0.4598(6) 0.9774(4) 0.2782(5)
C19 C 0.3224(6) 0.8376(4) 0.2729(5)
H20 H 0.2859 0.8656 0.2636
C20 C 0.2782(6) 0.7623(4) 0.3506(5)
C21 C 0.3323(6) 0.8010(4) 0.1711(4)
H21 H 0.3652 0.8493 0.1242
H22 H 0.2744 0.7615 0.1431
H23 H 0.3636 0.7690 0.1816
Cu10 Cu 0.57526(4) 0.44217(6) 0.18047(4)
N7 N 0.0971(3) 0.4963(4) 0.7932(4)
N8 N 0.5037(4) 0.6008(5) 0.7932(4)
N9 N 0.3992(5) 0.9029(3) 0.7932(4)
O22 O 0.0151(3) 0.5664(3) 0.7005(4)
O23 O 0.4336(3) 0.4487(4) 0.7005(4)
O24 O 0.5513(4) 0.9849(3) 0.7005(4)
O25 O 0.3005(3) 0.4990(4) 0.7774(4)
O26 O 0.5010(4) 0.8015(5) 0.7774(4)
O27 O 0.1985(5) 0.6995(3) 0.7774(4)
O28 O 0.2375(2) 0.5590(3) 0.6855(4)
O29 O 0.4410(3) 0.6785(4) 0.6855(4)
O30 O 0.3215(4) 0.7625(2) 0.6855(4)
N1 N 0.9029(3) 0.5037(4) 0.2932(4)
O2 O 0.9849(3) 0.4336(3) 0.2005(4)
O3 O 0.6995(3) 0.5010(4) 0.2774(4)
O7 O 0.7625(2) 0.4410(3) 0.1855(4)
C2 C 0.9762(4) 0.5225(4) 0.3352(5)
C6 C 0.7624(4) 0.4884(4) 0.2591(5)
C7 C 0.8870(4) 0.6359(4) 0.3088(5)
H6 H 0.9387 0.6664 0.3518
H7 H 0.8447 0.6540 0.3267
H8 H 0.9042 0.6504 0.2382
C8 C 0.8447(4) 0.5350(4) 0.3243(6)
H9 H 0.8288 0.5202 0.3967
C2_2 C 0.0238(4) 0.4775(4) 0.8352(5)
C6_2 C 0.2376(4) 0.5116(4) 0.7591(5)
C7_2 C 0.1130(4) 0.3641(4) 0.8088(5)
H6_2 H 0.0613 0.3336 0.8518
H7_2 H 0.1553 0.3460 0.8267
H8_2 H 0.0958 0.3496 0.7382
C8_2 C 0.1553(4) 0.4650(4) 0.8243(6)
H9_2 H 0.1712 0.4798 0.8967
O1_2 O 0.82756(18) 0.36154(18) 0.0575(4)
H1_2 H 0.822(5) 0.315(3) 0.059(10)
O8_2 O 0.63846(18) 0.46602(25) 0.0575(4)
H10_2 H 0.685(3) 0.507(6) 0.059(10)
O15_2 O 0.53398(25) 0.17244(18) 0.0575(4)
H19_2 H 0.493(6) 0.178(5) 0.059(10)
Cu2_2 Cu 0.86637(4) 0.41975(4) 0.93051(4)
N2_2 N 0.9007(3) 0.4941(4) 0.8150(5)
O4_2 O 0.9854(3) 0.4294(3) 0.9117(3)
O5_2 O 0.7038(3) 0.5012(4) 0.8336(4)
O6_2 O 0.7633(3) 0.4389(3) 0.9255(4)
C1_2 C 0.9774(4) 0.5176(4) 0.7782(5)
C3_2 C 0.8376(4) 0.5152(4) 0.7729(5)
H2_2 H 0.8656 0.5797 0.7636
C4_2 C 0.7623(4) 0.4841(4) 0.8506(5)
C5_2 C 0.8010(4) 0.4687(4) 0.6711(4)
H3_2 H 0.8493 0.4841 0.6242
H4_2 H 0.7615 0.4871 0.6431
H5_2 H 0.7690 0.4054 0.6816
Cu4_2 Cu 0.58025(4) 0.44662(6) 0.93051(4)
N4_2 N 0.5059(4) 0.4066(5) 0.8150(5)
O11_2 O 0.5706(3) 0.5560(4) 0.9117(3)
O12_2 O 0.4988(4) 0.2026(5) 0.8336(4)
O13_2 O 0.5611(3) 0.3244(4) 0.9255(4)
C9_2 C 0.4824(4) 0.4598(6) 0.7782(5)
C10_2 C 0.5225(4) 0.5463(6) 0.8352(5)
C11_2 C 0.4848(4) 0.3224(6) 0.7729(5)
H11_2 H 0.4203 0.2859 0.7636
C12_2 C 0.5159(4) 0.2782(6) 0.8506(5)
C13_2 C 0.5313(4) 0.3323(6) 0.6711(4)
H12_2 H 0.5159 0.3652 0.6242
H13_2 H 0.5129 0.2744 0.6431
H14_2 H 0.5946 0.3636 0.6816
C14_2 C 0.4884(4) 0.7260(6) 0.7591(5)
C15_2 C 0.6359(4) 0.7489(6) 0.8088(5)
H15_2 H 0.6664 0.7277 0.8518
H16_2 H 0.6540 0.8093 0.8267
H17_2 H 0.6504 0.7462 0.7382
C16_2 C 0.5350(4) 0.6903(6) 0.8243(6)
H18_2 H 0.5202 0.6914 0.8967
Cu6_2 Cu 0.55338(6) 0.13363(4) 0.93051(4)
N6_2 N 0.5934(5) 0.0993(3) 0.8150(5)
O18_2 O 0.4440(4) 0.0146(3) 0.9117(3)
O19_2 O 0.7974(5) 0.2962(3) 0.8336(4)
O20_2 O 0.6756(4) 0.2367(3) 0.9255(4)
C17_2 C 0.5402(6) 0.0226(4) 0.7782(5)
C19_2 C 0.6776(6) 0.1624(4) 0.7729(5)
H20_2 H 0.7141 0.1344 0.7636
C20_2 C 0.7218(6) 0.2377(4) 0.8506(5)
C21_2 C 0.6677(6) 0.1990(4) 0.6711(4)
H21_2 H 0.6348 0.1507 0.6242
H22_2 H 0.7256 0.2385 0.6431
H23_2 H 0.6364 0.2310 0.6816
C18_2 C 0.4537(6) 0.9762(4) 0.8352(5)
C22_2 C 0.2740(6) 0.7624(4) 0.7591(5)
C23_2 C 0.2511(6) 0.8870(4) 0.8088(5)
H24_2 H 0.2723 0.9387 0.8518
H25_2 H 0.1907 0.8447 0.8267
H26_2 H 0.2538 0.9042 0.7382
C24_2 C 0.3097(6) 0.8447(4) 0.8243(6)
H27_2 H 0.3086 0.8288 0.8967
loop_
_geom_bond_atom_site_label_1
_geom_bond_atom_site_label_2
_geom_bond_site_symmetry_1
_geom_bond_site_symmetry_2
N5 C18 1_555 1_555
O17 C22 1_555 1_555
O21 C22 1_555 1_555
C22 C24 1_555 1_555
C23 H24 1_555 1_555
H25 C23 1_555 1_555
H26 C23 1_555 1_555
C24 N5 1_555 1_555
H27 C24 1_555 1_555
Cu8 O17 1_555 1_555
Cu12 N5 1_555 1_555
Ca4 O21 1_555 1_555
O16 Cu12 1_555 1_555
O21 Cu12 1_555 1_555
C23 C24 1_555 1_555
Cu1 O1 1_555 1_555
Cu2 N2 1_555 1_555
Ca1 O1 1_555 1_555
N2 C1 1_555 1_555
O1 Cu2 1_555 1_555
H1 O1 1_555 1_555
O4 Cu2 1_555 1_555
O5 C4 1_555 1_555
O6 Cu2 1_555 1_555
C3 N2 1_555 1_555
H2 C3 1_555 1_555
C4 O6 1_555 1_555
C5 C3 1_555 1_555
H3 C5 1_555 1_555
H4 C5 1_555 1_555
H5 C5 1_555 1_555
Cu3 O8 1_555 1_555
Cu4 O5 1_555 1_555
N3 C10 1_555 1_555
N4 Cu4 1_555 1_555
O8 Ca1 1_555 1_555
H10 O8 1_555 1_555
O9 C9 1_555 1_555
O10 C14 1_555 1_555
O11 Cu4 1_555 1_555
O12 C12 1_555 1_555
O13 Ca1 1_555 1_555
O14 C14 1_555 1_555
C9 N4 1_555 1_555
C10 O11 1_555 1_555
C11 N4 1_555 1_555
H11 C11 1_555 1_555
C12 O13 1_555 1_555
C13 C11 1_555 1_555
H12 C13 1_555 1_555
H13 C13 1_555 1_555
H14 C13 1_555 1_555
C14 C16 1_555 1_555
C15 H15 1_555 1_555
H16 C15 1_555 1_555
H17 C15 1_555 1_555
C16 N3 1_555 1_555
H18 C16 1_555 1_555
Cu5 O15 1_555 1_555
Cu6 O12 1_555 1_555
N6 Cu6 1_555 1_555
O15 Ca1 1_555 1_555
H19 O15 1_555 1_555
O18 Cu6 1_555 1_555
O19 Cu2 1_555 1_555
O20 Ca1 1_555 1_555
C17 N6 1_555 1_555
C19 N6 1_555 1_555
H20 C19 1_555 1_555
C20 O19 1_555 1_555
C21 C19 1_555 1_555
H21 C21 1_555 1_555
H22 C21 1_555 1_555
H23 C21 1_555 1_555
Cu10 N3 1_555 1_555
Cu12 O10 1_555 1_555
Ca4 O14 1_555 1_555
N7 Cu1 1_555 1_555
N8 Cu3 1_555 1_555
N9 Cu5 1_555 1_555
O22 Cu1 1_555 1_555
O23 Cu3 1_555 1_555
O24 Cu5 1_555 1_555
O25 Cu3 1_555 1_555
O26 Cu5 1_555 1_555
O27 Cu1 1_555 1_555
O28 Cu1 1_555 1_555
O29 Ca1 1_555 1_555
O30 Ca1 1_555 1_555
Ca1 O6 1_555 1_555
Ca1 O28 1_555 1_555
C3 C4 1_555 1_555
Cu3 O29 1_555 1_555
Cu4 O8 1_555 1_555
Cu4 O13 1_555 1_555
O9 Cu10 1_555 1_555
O14 Cu10 1_555 1_555
C9 C10 1_555 1_555
C11 C12 1_555 1_555
C15 C16 1_555 1_555
Cu5 O30 1_555 1_555
Cu6 O15 1_555 1_555
Cu6 O20 1_555 1_555
O20 C20 1_555 1_555
C19 C20 1_555 1_555
N1 C2 1_555 1_555
O3 C6 1_555 1_555
O7 C6 1_555 1_555
C6 C8 1_555 1_555
C7 H6 1_555 1_555
H7 C7 1_555 1_555
H8 C7 1_555 1_555
C8 N1 1_555 1_555
H9 C8 1_555 1_555
Cu8 N1 1_555 1_555
Cu10 O3 1_555 1_555
Ca4 O7 1_555 1_555
O2 Cu8 1_555 1_555
O7 Cu8 1_555 1_555
C7 C8 1_555 1_555
N7 C2_2 1_555 1_555
O25 C6_2 1_555 1_555
O28 C6_2 1_555 1_555
C6_2 C8_2 1_555 1_555
C7_2 H6_2 1_555 1_555
H7_2 C7_2 1_555 1_555
H8_2 C7_2 1_555 1_555
C8_2 N7 1_555 1_555
H9_2 C8_2 1_555 1_555
C7_2 C8_2 1_555 1_555
Cu8 O1_2 1_555 1_555
Ca4 O1_2 1_555 1_555
H1_2 O1_2 1_555 1_555
Cu10 O8_2 1_555 1_555
O8_2 Ca4 1_555 1_555
H10_2 O8_2 1_555 1_555
Cu12 O15_2 1_555 1_555
O15_2 Ca4 1_555 1_555
H19_2 O15_2 1_555 1_555
Cu2_2 N2_2 1_555 1_555
N2_2 C1_2 1_555 1_555
O4_2 Cu2_2 1_555 1_555
O5_2 C4_2 1_555 1_555
O6_2 Cu2_2 1_555 1_555
C3_2 N2_2 1_555 1_555
H2_2 C3_2 1_555 1_555
C4_2 O6_2 1_555 1_555
C5_2 C3_2 1_555 1_555
H3_2 C5_2 1_555 1_555
H4_2 C5_2 1_555 1_555
H5_2 C5_2 1_555 1_555
Cu4_2 O5_2 1_555 1_555
N8 C10_2 1_555 1_555
N4_2 Cu4_2 1_555 1_555
O23 C9_2 1_555 1_555
O26 C14_2 1_555 1_555
O11_2 Cu4_2 1_555 1_555
O12_2 C12_2 1_555 1_555
O29 C14_2 1_555 1_555
C9_2 N4_2 1_555 1_555
C10_2 O11_2 1_555 1_555
C11_2 N4_2 1_555 1_555
H11_2 C11_2 1_555 1_555
C12_2 O13_2 1_555 1_555
C13_2 C11_2 1_555 1_555
H12_2 C13_2 1_555 1_555
H13_2 C13_2 1_555 1_555
H14_2 C13_2 1_555 1_555
C14_2 C16_2 1_555 1_555
C15_2 H15_2 1_555 1_555
H16_2 C15_2 1_555 1_555
H17_2 C15_2 1_555 1_555
C16_2 N8 1_555 1_555
H18_2 C16_2 1_555 1_555
Cu6_2 O12_2 1_555 1_555
N6_2 Cu6_2 1_555 1_555
O18_2 Cu6_2 1_555 1_555
O19_2 Cu2_2 1_555 1_555
C17_2 N6_2 1_555 1_555
C19_2 N6_2 1_555 1_555
H20_2 C19_2 1_555 1_555
C20_2 O19_2 1_555 1_555
C21_2 C19_2 1_555 1_555
H21_2 C21_2 1_555 1_555
H22_2 C21_2 1_555 1_555
H23_2 C21_2 1_555 1_555
C3_2 C4_2 1_555 1_555
Cu4_2 O13_2 1_555 1_555
C9_2 C10_2 1_555 1_555
C11_2 C12_2 1_555 1_555
C15_2 C16_2 1_555 1_555
Cu6_2 O20_2 1_555 1_555
O20_2 C20_2 1_555 1_555
C19_2 C20_2 1_555 1_555
N9 C18_2 1_555 1_555
O27 C22_2 1_555 1_555
O30 C22_2 1_555 1_555
C22_2 C24_2 1_555 1_555
C23_2 H24_2 1_555 1_555
H25_2 C23_2 1_555 1_555
H26_2 C23_2 1_555 1_555
C24_2 N9 1_555 1_555
H27_2 C24_2 1_555 1_555
C23_2 C24_2 1_555 1_555

#END
