
###############################################################################
#
# This file contains modified crystal structure data generated from the
# MOF subset of the Cambridge Structural Database (CSD) v543 
# hosted by the Cambridge Crystallographic Data Centre (CCDC).
#
# This work is licensed under the Creative Commons
# Attribution-NonCommercial-ShareAlike 4.0 International License.
# To view a copy of this license, visit
# http://creativecommons.org/licenses/by-nc-sa/4.0/
# or send a letter to
# Creative Commons, PO Box 1866, Mountain View, CA 94042, USA.
#
# CIF created using the CSD Python API on 29 September 2022
# The structure has been converted into the P1 space group
# The structure has a 3D framework
# The original CSD entry IVAPON is in the orthorhombic crystal system
# The framework has been calculated to contain at least 10.0% void space
# The void calculation uses a probe of radius 1.32A, grid spacing 0.4
#
###############################################################################

data_IVAPON
_chemical_formula_moiety         '(C20 Br4 Cu2 N16)n'
_symmetry_cell_setting           triclinic
_symmetry_space_group_name_H-M   'P 1'
_symmetry_Int_Tables_number      1
_space_group_name_Hall           'P 1'
loop_
_symmetry_equiv_pos_site_id
_symmetry_equiv_pos_as_xyz
1 x,y,z
_cell_length_a                   10.9745(13)
_cell_length_b                   8.6056(11)
_cell_length_c                   10.0876(14)
_cell_angle_alpha                90
_cell_angle_beta                 90
_cell_angle_gamma                90
_cell_volume                     952.695
loop_
_atom_site_label
_atom_site_type_symbol
_atom_site_fract_x
_atom_site_fract_y
_atom_site_fract_z
Br1 Br 0.07953(6) 0.250000 0.250000
Cu1 Cu 0.750000 0.500000 0.53276(8)
N1 N 0.3138(4) 0.3359(5) 0.3360(4)
N2 N 0.6161(4) 0.4173(5) 0.4240(4)
C1 C 0.5339(5) 0.3660(6) 0.3695(5)
C2 C 0.4322(4) 0.3021(7) 0.3017(6)
C3 C 0.2518(6) 0.250000 0.250000
N3 N 0.3138(4) 0.1641(5) 0.1640(4)
N4 N 0.6161(4) 0.0827(5) 0.0760(4)
C4 C 0.5339(5) 0.1340(6) 0.1305(5)
C5 C 0.4322(4) 0.1979(7) 0.1983(6)
Cu3 Cu 0.250000 0.500000 0.46724(8)
Cu4 Cu 0.250000 0.000000 0.03276(8)
N5 N 0.6862(4) 0.6641(5) 0.6640(4)
N6 N 0.8138(4) 0.3359(5) 0.6640(4)
N7 N 0.8839(4) 0.5827(5) 0.4240(4)
Cu2 Cu 0.750000 0.000000 0.96724(8)
Cu4_2 Cu 0.250000 1.000000 0.03276(8)
Cu2_2 Cu 0.750000 1.000000 0.96724(8)
Br1_2 Br 0.42047(6) 0.750000 0.250000
N1_2 N 0.1862(4) 0.6641(5) 0.3360(4)
C2_2 C 0.0678(4) 0.6979(7) 0.3017(6)
C3_2 C 0.2482(6) 0.750000 0.250000
N3_2 N 0.1862(4) 0.8359(5) 0.1640(4)
C5_2 C 0.0678(4) 0.8021(7) 0.1983(6)
C1_2 C 0.9661(5) 0.6340(6) 0.3695(5)
N4_2 N 0.8839(4) 0.9173(5) 0.0760(4)
C4_2 C 0.9661(5) 0.8660(6) 0.1305(5)
N5_2 N 0.8138(4) 0.1641(5) 0.8360(4)
N6_2 N 0.6862(4) 0.8359(5) 0.8360(4)
Br1_3 Br 0.92047(6) 0.750000 0.750000
N2_2 N 0.3839(4) 0.5827(5) 0.5760(4)
C1_3 C 0.4661(5) 0.6340(6) 0.6305(5)
C2_3 C 0.5678(4) 0.6979(7) 0.6983(6)
C3_3 C 0.7482(6) 0.750000 0.750000
N4_3 N 0.3839(4) 0.9173(5) 0.9240(4)
C4_3 C 0.4661(5) 0.8660(6) 0.8695(5)
C5_3 C 0.5678(4) 0.8021(7) 0.8017(6)
N7_2 N 0.1161(4) 0.4173(5) 0.5760(4)
C1_4 C 0.0339(5) 0.3660(6) 0.6305(5)
N4_4 N 0.1161(4) 0.0827(5) 0.9240(4)
C4_4 C 0.0339(5) 0.1340(6) 0.8695(5)
Br1_4 Br 0.57953(6) 0.250000 0.750000
C2_4 C 0.9322(4) 0.3021(7) 0.6983(6)
C3_4 C 0.7518(6) 0.250000 0.750000
C5_4 C 0.9322(4) 0.1979(7) 0.8017(6)
loop_
_geom_bond_atom_site_label_1
_geom_bond_atom_site_label_2
_geom_bond_site_symmetry_1
_geom_bond_site_symmetry_2
Br1 C3 1_555 1_555
Cu1 N2 1_555 1_555
N1 C2 1_555 1_555
N2 C1 1_555 1_555
C1 C2 1_555 1_555
C2 C5 1_555 1_555
C3 N1 1_555 1_555
N3 C3 1_555 1_555
N4 C4 1_555 1_555
C4 C5 1_555 1_555
C5 N3 1_555 1_555
Cu3 N1 1_555 1_555
Cu4 N3 1_555 1_555
N5 Cu1 1_555 1_555
N6 Cu1 1_555 1_555
N7 Cu1 1_555 1_555
Br1_2 C3_2 1_555 1_555
N1_2 C2_2 1_555 1_555
C2_2 C5_2 1_555 1_555
C3_2 N1_2 1_555 1_555
N3_2 C3_2 1_555 1_555
C5_2 N3_2 1_555 1_555
Cu3 N1_2 1_555 1_555
Cu4_2 N3_2 1_555 1_555
N7 C1_2 1_555 1_555
N4_2 C4_2 1_555 1_555
N5_2 Cu2 1_555 1_555
N6_2 Cu2_2 1_555 1_555
Br1_3 C3_3 1_555 1_555
Cu3 N2_2 1_555 1_555
N5 C2_3 1_555 1_555
N2_2 C1_3 1_555 1_555
C1_3 C2_3 1_555 1_555
C2_3 C5_3 1_555 1_555
C3_3 N5 1_555 1_555
N6_2 C3_3 1_555 1_555
N4_3 C4_3 1_555 1_555
C4_3 C5_3 1_555 1_555
C5_3 N6_2 1_555 1_555
N7_2 Cu3 1_555 1_555
N7_2 C1_4 1_555 1_555
N4_4 C4_4 1_555 1_555
Br1_4 C3_4 1_555 1_555
N6 C2_4 1_555 1_555
C2_4 C5_4 1_555 1_555
C3_4 N6 1_555 1_555
N5_2 C3_4 1_555 1_555
C5_4 N5_2 1_555 1_555

#END
