
###############################################################################
#
# This file contains modified crystal structure data generated from the
# MOF subset of the Cambridge Structural Database (CSD) v543 
# hosted by the Cambridge Crystallographic Data Centre (CCDC).
#
# This work is licensed under the Creative Commons
# Attribution-NonCommercial-ShareAlike 4.0 International License.
# To view a copy of this license, visit
# http://creativecommons.org/licenses/by-nc-sa/4.0/
# or send a letter to
# Creative Commons, PO Box 1866, Mountain View, CA 94042, USA.
#
# CIF created using the CSD Python API on 29 September 2022
# The structure has been converted into the P1 space group
# The structure has a 3D framework
# The original CSD entry IVAPIH is in the orthorhombic crystal system
# The framework has been calculated to contain at least 10.0% void space
# The void calculation uses a probe of radius 1.32A, grid spacing 0.4
#
###############################################################################

data_IVAPIH
_chemical_formula_moiety         '(C20 Br4 Cu2 N16)n'
_symmetry_cell_setting           triclinic
_symmetry_space_group_name_H-M   'P 1'
_symmetry_Int_Tables_number      1
_space_group_name_Hall           'P 1'
loop_
_symmetry_equiv_pos_site_id
_symmetry_equiv_pos_as_xyz
1 x,y,z
_cell_length_a                   10.9748(3)
_cell_length_b                   8.5812(3)
_cell_length_c                   10.0596(4)
_cell_angle_alpha                90
_cell_angle_beta                 90
_cell_angle_gamma                90
_cell_volume                     947.382
loop_
_atom_site_label
_atom_site_type_symbol
_atom_site_fract_x
_atom_site_fract_y
_atom_site_fract_z
Cu2 Cu 0.250000 -0.000000 0.03193(4)
Cu4 Cu 0.750000 -0.000000 0.96807(4)
Cu2_2 Cu 0.250000 1.000000 0.03193(4)
Br1 Br 0.92052(3) 0.750000 0.750000
Cu1 Cu 0.250000 0.500000 0.46807(4)
N1 N 0.68684(18) 0.6644(2) 0.6635(2)
N2 N 0.38311(19) 0.5824(2) 0.5762(2)
C1 C 0.5684(2) 0.6976(3) 0.6974(3)
C2 C 0.7501(3) 0.750000 0.750000
C3 C 0.4661(2) 0.6336(3) 0.6303(2)
N3 N 0.68684(18) 0.8356(2) 0.8365(2)
N4 N 0.38311(19) 0.9176(2) 0.9238(2)
C4 C 0.5684(2) 0.8024(3) 0.8026(3)
C5 C 0.4661(2) 0.8664(3) 0.8697(2)
Cu3 Cu 0.750000 0.500000 0.53193(4)
Cu4_2 Cu 0.750000 1.000000 0.96807(4)
N5 N 0.31316(18) 0.3356(2) 0.3365(2)
N6 N 0.18684(18) 0.6644(2) 0.3365(2)
N7 N 0.11689(19) 0.4176(2) 0.5762(2)
C3_2 C 0.0339(2) 0.3664(3) 0.6303(2)
N4_2 N 0.11689(19) 0.0824(2) 0.9238(2)
C5_2 C 0.0339(2) 0.1336(3) 0.8697(2)
Br1_2 Br 0.57948(3) 0.250000 0.750000
N1_2 N 0.81316(18) 0.3356(2) 0.6635(2)
C1_2 C 0.9316(2) 0.3024(3) 0.6974(3)
C2_2 C 0.7499(3) 0.250000 0.750000
N3_2 N 0.81316(18) 0.1644(2) 0.8365(2)
C4_2 C 0.9316(2) 0.1976(3) 0.8026(3)
N6_2 N 0.31316(18) 0.1644(2) 0.1635(2)
N5_2 N 0.18684(18) 0.8356(2) 0.1635(2)
Br1_3 Br 0.07948(3) 0.250000 0.250000
N2_2 N 0.61689(19) 0.4176(2) 0.4238(2)
C1_3 C 0.4316(2) 0.3024(3) 0.3026(3)
C2_3 C 0.2499(3) 0.250000 0.250000
C3_3 C 0.5339(2) 0.3664(3) 0.3697(2)
N4_3 N 0.61689(19) 0.0824(2) 0.0762(2)
C4_3 C 0.4316(2) 0.1976(3) 0.1974(3)
C5_3 C 0.5339(2) 0.1336(3) 0.1303(2)
N7_2 N 0.88311(19) 0.5824(2) 0.4238(2)
Br1_4 Br 0.42052(3) 0.750000 0.250000
C1_4 C 0.0684(2) 0.6976(3) 0.3026(3)
C2_4 C 0.2501(3) 0.750000 0.250000
C4_4 C 0.0684(2) 0.8024(3) 0.1974(3)
C3_4 C 0.9661(2) 0.6336(3) 0.3697(2)
N4_4 N 0.88311(19) 0.9176(2) 0.0762(2)
C5_4 C 0.9661(2) 0.8664(3) 0.1303(2)
loop_
_geom_bond_atom_site_label_1
_geom_bond_atom_site_label_2
_geom_bond_site_symmetry_1
_geom_bond_site_symmetry_2
Br1 C2 1_555 1_555
Cu1 N2 1_555 1_555
N1 C1 1_555 1_555
N2 C3 1_555 1_555
C1 C3 1_555 1_555
C2 N1 1_555 1_555
N3 C2 1_555 1_555
N4 C5 1_555 1_555
C4 C1 1_555 1_555
C5 C4 1_555 1_555
Cu3 N1 1_555 1_555
Cu4_2 N3 1_555 1_555
N5 Cu1 1_555 1_555
N6 Cu1 1_555 1_555
N7 Cu1 1_555 1_555
N3 C4 1_555 1_555
N7 C3_2 1_555 1_555
N4_2 C5_2 1_555 1_555
Br1_2 C2_2 1_555 1_555
N1_2 C1_2 1_555 1_555
C2_2 N1_2 1_555 1_555
N3_2 C2_2 1_555 1_555
C4_2 C1_2 1_555 1_555
Cu3 N1_2 1_555 1_555
Cu4 N3_2 1_555 1_555
N3_2 C4_2 1_555 1_555
N6_2 Cu2 1_555 1_555
N5_2 Cu2_2 1_555 1_555
Br1_3 C2_3 1_555 1_555
Cu3 N2_2 1_555 1_555
N5 C1_3 1_555 1_555
N2_2 C3_3 1_555 1_555
C1_3 C3_3 1_555 1_555
C2_3 N5 1_555 1_555
N6_2 C2_3 1_555 1_555
N4_3 C5_3 1_555 1_555
C4_3 C1_3 1_555 1_555
C5_3 C4_3 1_555 1_555
N7_2 Cu3 1_555 1_555
N6_2 C4_3 1_555 1_555
Br1_4 C2_4 1_555 1_555
N6 C1_4 1_555 1_555
C2_4 N6 1_555 1_555
N5_2 C2_4 1_555 1_555
C4_4 C1_4 1_555 1_555
N5_2 C4_4 1_555 1_555
N7_2 C3_4 1_555 1_555
N4_4 C5_4 1_555 1_555

#END
