
###############################################################################
#
# This file contains modified crystal structure data generated from the
# MOF subset of the Cambridge Structural Database (CSD) v543 
# hosted by the Cambridge Crystallographic Data Centre (CCDC).
#
# This work is licensed under the Creative Commons
# Attribution-NonCommercial-ShareAlike 4.0 International License.
# To view a copy of this license, visit
# http://creativecommons.org/licenses/by-nc-sa/4.0/
# or send a letter to
# Creative Commons, PO Box 1866, Mountain View, CA 94042, USA.
#
# CIF created using the CSD Python API on 29 September 2022
# The structure has been converted into the P1 space group
# The structure has a 3D framework
# The original CSD entry IVAPAZ is in the orthorhombic crystal system
# The framework has been calculated to contain at least 10.0% void space
# The void calculation uses a probe of radius 1.32A, grid spacing 0.4
#
###############################################################################

data_IVAPAZ
_chemical_formula_moiety         '(C20 Br4 Cu2 N16)n'
_symmetry_cell_setting           triclinic
_symmetry_space_group_name_H-M   'P 1'
_symmetry_Int_Tables_number      1
_space_group_name_Hall           'P 1'
loop_
_symmetry_equiv_pos_site_id
_symmetry_equiv_pos_as_xyz
1 x,y,z
_cell_length_a                   11.0306(13)
_cell_length_b                   8.6572(14)
_cell_length_c                   10.0114(19)
_cell_angle_alpha                90
_cell_angle_beta                 90
_cell_angle_gamma                90
_cell_volume                     956.03
loop_
_atom_site_label
_atom_site_type_symbol
_atom_site_fract_x
_atom_site_fract_y
_atom_site_fract_z
Cu2 Cu 0.250000 -0.000000 0.03189(7)
Cu1 Cu 0.250000 0.500000 0.46811(7)
Br1 Br 0.91741(6) 0.250000 0.750000
N1 N 0.6852(3) 0.3357(4) 0.6637(3)
N2 N 0.3831(3) 0.4170(4) 0.5774(4)
C1 C 0.5679(3) 0.3028(5) 0.6983(4)
C2 C 0.4660(4) 0.3673(5) 0.6310(4)
C3 C 0.7485(5) 0.250000 0.750000
N3 N 0.6852(3) 0.1643(4) 0.8363(3)
N4 N 0.3831(3) 0.0830(4) 0.9226(4)
C4 C 0.5679(3) 0.1972(5) 0.8017(4)
C5 C 0.4660(4) 0.1327(5) 0.8690(4)
Cu3 Cu 0.750000 0.500000 0.53189(7)
Cu4 Cu 0.750000 -0.000000 0.96811(7)
N5 N 0.3148(3) 0.6643(4) 0.3363(3)
N6 N 0.1852(3) 0.3357(4) 0.3363(3)
N7 N 0.1169(3) 0.5830(4) 0.5774(4)
Cu2_2 Cu 0.250000 1.000000 0.03189(7)
Cu4_2 Cu 0.750000 1.000000 0.96811(7)
C2_2 C 0.0340(4) 0.6327(5) 0.6310(4)
N4_2 N 0.1169(3) 0.9170(4) 0.9226(4)
C5_2 C 0.0340(4) 0.8673(5) 0.8690(4)
Br1_2 Br 0.58259(6) 0.750000 0.750000
N1_2 N 0.8148(3) 0.6643(4) 0.6637(3)
C1_2 C 0.9321(3) 0.6972(5) 0.6983(4)
C3_2 C 0.7515(5) 0.750000 0.750000
N3_2 N 0.8148(3) 0.8357(4) 0.8363(3)
C4_2 C 0.9321(3) 0.8028(5) 0.8017(4)
N5_2 N 0.1852(3) 0.1643(4) 0.1637(3)
N6_2 N 0.3148(3) 0.8357(4) 0.1637(3)
Br1_3 Br 0.08259(6) 0.750000 0.250000
N2_2 N 0.6169(3) 0.5830(4) 0.4226(4)
C1_3 C 0.4321(3) 0.6972(5) 0.3017(4)
C2_3 C 0.5340(4) 0.6327(5) 0.3690(4)
C3_3 C 0.2515(5) 0.750000 0.250000
N4_3 N 0.6169(3) 0.9170(4) 0.0774(4)
C4_3 C 0.4321(3) 0.8028(5) 0.1983(4)
C5_3 C 0.5340(4) 0.8673(5) 0.1310(4)
N7_2 N 0.8831(3) 0.4170(4) 0.4226(4)
Br1_4 Br 0.41741(6) 0.250000 0.250000
C1_4 C 0.0679(3) 0.3028(5) 0.3017(4)
C3_4 C 0.2485(5) 0.250000 0.250000
C4_4 C 0.0679(3) 0.1972(5) 0.1983(4)
C2_4 C 0.9660(4) 0.3673(5) 0.3690(4)
N4_4 N 0.8831(3) 0.0830(4) 0.0774(4)
C5_4 C 0.9660(4) 0.1327(5) 0.1310(4)
loop_
_geom_bond_atom_site_label_1
_geom_bond_atom_site_label_2
_geom_bond_site_symmetry_1
_geom_bond_site_symmetry_2
Cu1 N2 1_555 1_555
Br1 C3 1_555 1_555
N1 C1 1_555 1_555
N2 C2 1_555 1_555
C1 C2 1_555 1_555
C3 N1 1_555 1_555
N3 C3 1_555 1_555
N4 C5 1_555 1_555
C4 C1 1_555 1_555
C5 C4 1_555 1_555
Cu3 N1 1_555 1_555
Cu4 N3 1_555 1_555
N5 Cu1 1_555 1_555
N6 Cu1 1_555 1_555
N7 Cu1 1_555 1_555
N3 C4 1_555 1_555
N7 C2_2 1_555 1_555
N4_2 C5_2 1_555 1_555
Br1_2 C3_2 1_555 1_555
N1_2 C1_2 1_555 1_555
C3_2 N1_2 1_555 1_555
N3_2 C3_2 1_555 1_555
C4_2 C1_2 1_555 1_555
Cu3 N1_2 1_555 1_555
Cu4_2 N3_2 1_555 1_555
N3_2 C4_2 1_555 1_555
N5_2 Cu2 1_555 1_555
N6_2 Cu2_2 1_555 1_555
Cu3 N2_2 1_555 1_555
Br1_3 C3_3 1_555 1_555
N5 C1_3 1_555 1_555
N2_2 C2_3 1_555 1_555
C1_3 C2_3 1_555 1_555
C3_3 N5 1_555 1_555
N6_2 C3_3 1_555 1_555
N4_3 C5_3 1_555 1_555
C4_3 C1_3 1_555 1_555
C5_3 C4_3 1_555 1_555
N7_2 Cu3 1_555 1_555
N6_2 C4_3 1_555 1_555
Br1_4 C3_4 1_555 1_555
N6 C1_4 1_555 1_555
C3_4 N6 1_555 1_555
N5_2 C3_4 1_555 1_555
C4_4 C1_4 1_555 1_555
N5_2 C4_4 1_555 1_555
N7_2 C2_4 1_555 1_555
N4_4 C5_4 1_555 1_555

#END
