
###############################################################################
#
# This file contains modified crystal structure data generated from the
# MOF subset of the Cambridge Structural Database (CSD) v543 
# hosted by the Cambridge Crystallographic Data Centre (CCDC).
#
# This work is licensed under the Creative Commons
# Attribution-NonCommercial-ShareAlike 4.0 International License.
# To view a copy of this license, visit
# http://creativecommons.org/licenses/by-nc-sa/4.0/
# or send a letter to
# Creative Commons, PO Box 1866, Mountain View, CA 94042, USA.
#
# CIF created using the CSD Python API on 29 September 2022
# The structure has been converted into the P1 space group
# The structure has a 3D framework
# The original CSD entry IVARUT is in the triclinic crystal system
# The framework has been calculated to contain at least 10.0% void space
# The void calculation uses a probe of radius 1.32A, grid spacing 0.4
#
###############################################################################

data_IVARUT
_chemical_formula_moiety         '(C56 H64 Cd2 N8 O8)n'
_symmetry_cell_setting           triclinic
_symmetry_space_group_name_H-M   'P 1'
_symmetry_Int_Tables_number      1
_space_group_name_Hall           'P 1'
loop_
_symmetry_equiv_pos_site_id
_symmetry_equiv_pos_as_xyz
1 x,y,z
_cell_length_a                   11.3356(15)
_cell_length_b                   12.1513(16)
_cell_length_c                   12.8611(17)
_cell_angle_alpha                87.543(1)
_cell_angle_beta                 68.761(1)
_cell_angle_gamma                71.799(1)
_cell_volume                     1563.63
loop_
_atom_site_label
_atom_site_type_symbol
_atom_site_fract_x
_atom_site_fract_y
_atom_site_fract_z
_atom_site_U_iso_or_equiv
_atom_site_thermal_displace_type
C32 C 0.3049(2) 0.1794(2) 0.0047(2) 0.0363 Uani
H35 H 0.2351 0.2310 0.0617 0.0440 Uiso
C34 C 0.1984(2) 0.0224(2) 0.07200(19) 0.0317 Uani
H37 H 0.1366 0.0834 0.1300 0.0380 Uiso
H41 H 0.0034 0.1502 0.0174 0.0320 Uiso
C20 C 0.9907(4) 0.4824(3) 0.1065(2) 0.0590 Uani
H22 H 0.9846 0.4686 0.1797 0.0710 Uiso
C47 C 0.9333(3) 0.4272(3) 0.0567(2) 0.0536 Uani
H53 H 0.8872 0.3786 0.0975 0.0640 Uiso
Cd4 Cd 0.652524(15) 0.217545(13) 0.709918(13) 0.0214 Uani
N5 N 0.50845(18) 0.14565(16) 0.84753(16) 0.0272 Uani
C29 C 0.5140(2) 0.0344(2) 0.83892(19) 0.0274 Uani
C31 C 0.3081(2) 0.0653(2) 0.99421(19) 0.0282 Uani
C33 C 0.4050(2) 0.2162(2) 0.9309(2) 0.0364 Uani
H36 H 0.4009 0.2931 0.9390 0.0440 Uiso
C36 C 0.0610(2) 0.0868(2) 0.96066(19) 0.0263 Uani
H42 H 0.1286 0.1137 0.9054 0.0320 Uiso
N7 N 0.12526(17) 0.98783(16) 0.01228(15) 0.0240 Uani
N8 N 0.50036(18) 0.32983(16) 0.63717(16) 0.0258 Uani
N10 N 0.13626(17) 0.49615(15) 0.47663(15) 0.0211 Uani
H38 H 0.2369 0.9565 0.1078 0.0380 Uiso
C35 C 0.0206(2) 0.9480(2) 0.09481(18) 0.0253 Uani
H39 H 0.0615 0.8822 0.1294 0.0300 Uiso
C49 C 0.4954(2) 0.2949(2) 0.5418(2) 0.0340 Uani
H55 H 0.5523 0.2221 0.5075 0.0410 Uiso
C50 C 0.4111(2) 0.3607(2) 0.4922(2) 0.0348 Uani
H56 H 0.4118 0.3324 0.4258 0.0420 Uiso
C51 C 0.3250(2) 0.46920(19) 0.54136(19) 0.0243 Uani
C52 C 0.3289(2) 0.5051(2) 0.6398(2) 0.0329 Uani
H57 H 0.2723 0.5773 0.6760 0.0400 Uiso
C53 C 0.4163(2) 0.4343(2) 0.6851(2) 0.0329 Uani
H58 H 0.4168 0.4605 0.7518 0.0390 Uiso
C54 C 0.2325(2) 0.54772(19) 0.4893(2) 0.0270 Uani
H59 H 0.2855 0.5651 0.4163 0.0320 Uiso
H60 H 0.1838 0.6204 0.5355 0.0320 Uiso
C55 C 0.0537(2) 0.46674(19) 0.58423(18) 0.0229 Uani
H61 H 0.1102 0.4100 0.6159 0.0280 Uiso
H62 H 0.0072 0.5358 0.6359 0.0280 Uiso
C56 C 0.0470(2) 0.58244(19) 0.43118(18) 0.0242 Uani
H63 H 0.0005 0.6521 0.4820 0.0290 Uiso
H64 H 0.0995 0.6034 0.3598 0.0290 Uiso
H1 H 0.4137 0.0162 0.2172 0.0330 Uiso
C2 C 0.5835(2) 0.0083(2) 0.09005(19) 0.0293 Uani
H2 H 0.5763 0.0860 0.0988 0.0350 Uiso
C10 C 0.1316(2) 0.0493(2) 0.5539(2) 0.0323 Uani
H11 H 0.1202 0.0127 0.6238 0.0390 Uiso
H12 H 0.0441 0.0968 0.5561 0.0390 Uiso
C11 C 0.2190(2) 0.1273(2) 0.5420(2) 0.0326 Uani
H13 H 0.2145 0.1757 0.4806 0.0390 Uiso
H14 H 0.1823 0.1784 0.6098 0.0390 Uiso
C12 C 0.3642(2) 0.06149(19) 0.5210(2) 0.0290 Uani
C13 C 0.4634(2) 0.0648(2) 0.4201(2) 0.0316 Uani
H15 H 0.4400 0.1083 0.3652 0.0380 Uiso
O5 O 0.78035(16) 0.14934(13) 0.52195(14) 0.0316 Uani
O6 O 0.77837(16) 0.01522(14) 0.64137(14) 0.0326 Uani
O8 O 0.78211(16) 0.26228(14) 0.78443(14) 0.0309 Uani
O10 O 0.58955(17) 0.40211(15) 0.83308(15) 0.0379 Uani
H40 H 0.9625 0.0099 0.1530 0.0300 Uiso
C37 C 0.8066(2) 0.0437(2) 0.54229(19) 0.0264 Uani
C42 C 0.5972(2) 0.0047(2) 0.3987(2) 0.0321 Uani
H48 H 0.6616 0.0087 0.3301 0.0380 Uiso
C43 C 0.7036(2) 0.3589(2) 0.83620(19) 0.0295 Uani
C44 C 0.7527(3) 0.4261(2) 0.8995(3) 0.0461 Uani
H49 H 0.6924 0.4396 0.9771 0.0550 Uiso
H50 H 0.7469 0.5014 0.8695 0.0550 Uiso
C45 C 0.8868(3) 0.3723(3) 0.8964(4) 0.0762 Uani
H51 H 0.8900 0.3004 0.9328 0.0920 Uiso
H52 H 0.9457 0.3518 0.8187 0.0920 Uiso
C46 C 0.9427(3) 0.4422(2) 0.9497(2) 0.0395 Uani
H8 H 0.0375 0.9901 0.8470 0.0300 Uiso
H33 H 0.5863 0.9838 0.7828 0.0330 Uiso
C30 C 0.4165(2) 0.9917(2) 0.90995(19) 0.0293 Uani
H34 H 0.4237 0.9140 0.9012 0.0350 Uiso
N2 N 0.87474(17) 0.01217(16) 0.98772(15) 0.0240 Uani
H6 H 0.7631 0.0435 0.8922 0.0380 Uiso
C7 C 0.9794(2) 0.0520(2) 0.90519(18) 0.0253 Uani
H7 H 0.9385 0.1178 0.8706 0.0300 Uiso
Cd1 Cd 0.347476(15) 0.782455(13) 0.290082(13) 0.0214 Uani
O1 O 0.21965(16) 0.85066(13) 0.47805(14) 0.0316 Uani
O2 O 0.22163(16) 0.98478(14) 0.35863(14) 0.0326 Uani
O3 O 0.21789(16) 0.73772(14) 0.21557(14) 0.0309 Uani
O4 O 0.41045(17) 0.59789(15) 0.16692(15) 0.0379 Uani
N1 N 0.49155(18) 0.85435(16) 0.15247(16) 0.0272 Uani
N3 N 0.49964(18) 0.67017(16) 0.36283(16) 0.0258 Uani
N4 N 0.86374(17) 0.50385(15) 0.52337(15) 0.0211 Uani
C1 C 0.4860(2) 0.9656(2) 0.16108(19) 0.0274 Uani
C3 C 0.6919(2) 0.9347(2) 0.00579(19) 0.0282 Uani
C5 C 0.5950(2) 0.7838(2) 0.0691(2) 0.0364 Uani
H4 H 0.5991 0.7069 0.0610 0.0440 Uiso
C8 C 0.9390(2) 0.9132(2) 0.03934(19) 0.0263 Uani
H10 H 0.8714 0.8863 0.0946 0.0320 Uiso
C9 C 0.1934(2) 0.9563(2) 0.45771(19) 0.0264 Uani
C14 C 0.4028(2) 0.9953(2) 0.6013(2) 0.0321 Uani
H16 H 0.3384 0.9913 0.6699 0.0380 Uiso
C15 C 0.2964(2) 0.6411(2) 0.16380(19) 0.0295 Uani
C16 C 0.2473(3) 0.5739(2) 0.1005(3) 0.0461 Uani
H17 H 0.3076 0.5604 0.0229 0.0550 Uiso
H18 H 0.2531 0.4986 0.1305 0.0550 Uiso
C17 C 0.1132(3) 0.6277(3) 0.1036(4) 0.0762 Uani
H19 H 0.1100 0.6996 0.0672 0.0920 Uiso
H20 H 0.0543 0.6482 0.1813 0.0920 Uiso
C18 C 0.0573(3) 0.5578(2) 0.0503(2) 0.0395 Uani
C21 C 0.5046(2) 0.7051(2) 0.4582(2) 0.0340 Uani
H23 H 0.4477 0.7779 0.4925 0.0410 Uiso
C22 C 0.5889(2) 0.6393(2) 0.5078(2) 0.0348 Uani
H24 H 0.5882 0.6676 0.5742 0.0420 Uiso
C23 C 0.6750(2) 0.53080(19) 0.45864(19) 0.0243 Uani
C24 C 0.6711(2) 0.4949(2) 0.3602(2) 0.0329 Uani
H25 H 0.7277 0.4227 0.3240 0.0400 Uiso
C25 C 0.5837(2) 0.5657(2) 0.3149(2) 0.0329 Uani
H26 H 0.5832 0.5395 0.2482 0.0390 Uiso
C26 C 0.7675(2) 0.45228(19) 0.5107(2) 0.0270 Uani
H27 H 0.7145 0.4349 0.5837 0.0320 Uiso
H28 H 0.8162 0.3796 0.4645 0.0320 Uiso
C27 C 0.9463(2) 0.53326(19) 0.41577(18) 0.0229 Uani
H29 H 0.8898 0.5900 0.3841 0.0280 Uiso
H30 H 0.9928 0.4642 0.3641 0.0280 Uiso
C28 C 0.9530(2) 0.41756(19) 0.56882(18) 0.0242 Uani
H31 H 0.9995 0.3479 0.5180 0.0290 Uiso
H32 H 0.9005 0.3966 0.6402 0.0290 Uiso
C38 C 0.8684(2) 0.9507(2) 0.4461(2) 0.0323 Uani
H43 H 0.8798 0.9873 0.3762 0.0390 Uiso
H44 H 0.9559 0.9032 0.4439 0.0390 Uiso
C39 C 0.7810(2) 0.8727(2) 0.4580(2) 0.0326 Uani
H45 H 0.7855 0.8243 0.5194 0.0390 Uiso
H46 H 0.8177 0.8216 0.3902 0.0390 Uiso
C40 C 0.6358(2) 0.93851(19) 0.4790(2) 0.0290 Uani
C41 C 0.5366(2) 0.9352(2) 0.5799(2) 0.0316 Uani
H47 H 0.5600 0.8917 0.6348 0.0380 Uiso
C4 C 0.6951(2) 0.8206(2) 0.9953(2) 0.0363 Uani
H3 H 0.7649 0.7690 0.9383 0.0440 Uiso
C6 C 0.8016(2) 0.9776(2) 0.92800(19) 0.0317 Uani
H5 H 0.8634 0.9166 0.8700 0.0380 Uiso
H9 H 0.9966 0.8498 0.9826 0.0320 Uiso
C19 C 0.0667(3) 0.5728(3) 0.9433(2) 0.0536 Uani
H21 H 0.1128 0.6214 0.9025 0.0640 Uiso
C48 C 0.0093(4) 0.5176(3) 0.8935(2) 0.0590 Uani
H54 H 0.0154 0.5314 0.8203 0.0710 Uiso
loop_
_atom_site_aniso_label
_atom_site_aniso_U_11
_atom_site_aniso_U_22
_atom_site_aniso_U_33
_atom_site_aniso_U_23
_atom_site_aniso_U_13
_atom_site_aniso_U_12
C32 0.0288 0.0392 0.0353 -0.003 -0.0057 -0.0099
C34 0.0273 0.049 0.0274 0.0063 -0.0144 -0.0189
C20 0.092 0.076 0.0306 0.0122 -0.034 -0.043
C47 0.074 0.0566 0.0436 0.0067 -0.0152 -0.0468
Cd4 0.02165 0.02188 0.02659 0.00241 -0.01395 -0.00903
N5 0.0245 0.0309 0.0305 0.0034 -0.0118 -0.0129
C29 0.0249 0.0319 0.0296 -0.0005 -0.0121 -0.0119
C31 0.0233 0.0425 0.0273 0.006 -0.0155 -0.015
C33 0.0344 0.0304 0.0412 -0.002 -0.0085 -0.0119
C36 0.0227 0.0313 0.0278 0.0073 -0.0101 -0.0123
N7 0.0188 0.0323 0.0241 0.0056 -0.0098 -0.0106
N8 0.0223 0.0265 0.0337 0.002 -0.016 -0.0077
N10 0.0181 0.0235 0.0261 0.0052 -0.0128 -0.0076
C35 0.0231 0.0309 0.0251 0.0078 -0.0105 -0.0116
C49 0.0334 0.0278 0.0451 -0.0065 -0.0254 -0.0013
C50 0.0342 0.0345 0.0421 -0.0061 -0.0262 -0.004
C51 0.0191 0.0267 0.0339 0.0058 -0.0141 -0.0115
C52 0.0269 0.0302 0.0396 -0.0059 -0.017 0.0003
C53 0.0299 0.0363 0.0331 -0.0058 -0.0184 -0.0022
C54 0.0241 0.0249 0.0409 0.0084 -0.0199 -0.0112
C55 0.0213 0.026 0.0258 0.0063 -0.0142 -0.0073
C56 0.0226 0.0261 0.0282 0.0095 -0.0137 -0.0095
C2 0.0282 0.0329 0.0352 0.0031 -0.0161 -0.0158
C10 0.0254 0.0318 0.0357 -0.0043 -0.0097 -0.0045
C11 0.0332 0.0237 0.043 -0.0041 -0.0211 -0.0026
C12 0.0344 0.0204 0.0391 -0.0038 -0.0218 -0.0075
C13 0.0401 0.0274 0.0373 0.0032 -0.0256 -0.0106
O5 0.0336 0.0267 0.0355 -0.0002 -0.0169 -0.0055
O6 0.0327 0.0323 0.0328 -0.0006 -0.0101 -0.0124
O8 0.0328 0.0324 0.0387 -0.0008 -0.0219 -0.0144
O10 0.0369 0.0358 0.0552 0.0021 -0.0312 -0.0134
C37 0.0151 0.0326 0.0343 -0.0031 -0.011 -0.0083
C42 0.0354 0.031 0.0331 -0.0009 -0.0159 -0.0107
C43 0.036 0.0312 0.0309 0.0059 -0.0183 -0.0169
C44 0.0386 0.0474 0.0587 -0.0189 -0.0274 -0.0081
C45 0.056 0.085 0.101 -0.042 -0.044 -0.0161
C46 0.0344 0.047 0.0442 -0.0134 -0.0195 -0.0142
C30 0.0282 0.0329 0.0352 0.0031 -0.0161 -0.0158
N2 0.0188 0.0323 0.0241 0.0056 -0.0098 -0.0106
C7 0.0231 0.0309 0.0251 0.0078 -0.0105 -0.0116
Cd1 0.02165 0.02188 0.02659 0.00241 -0.01395 -0.00903
O1 0.0336 0.0267 0.0355 -0.0002 -0.0169 -0.0055
O2 0.0327 0.0323 0.0328 -0.0006 -0.0101 -0.0124
O3 0.0328 0.0324 0.0387 -0.0008 -0.0219 -0.0144
O4 0.0369 0.0358 0.0552 0.0021 -0.0312 -0.0134
N1 0.0245 0.0309 0.0305 0.0034 -0.0118 -0.0129
N3 0.0223 0.0265 0.0337 0.002 -0.016 -0.0077
N4 0.0181 0.0235 0.0261 0.0052 -0.0128 -0.0076
C1 0.0249 0.0319 0.0296 -0.0005 -0.0121 -0.0119
C3 0.0233 0.0425 0.0273 0.006 -0.0155 -0.015
C5 0.0344 0.0304 0.0412 -0.002 -0.0085 -0.0119
C8 0.0227 0.0313 0.0278 0.0073 -0.0101 -0.0123
C9 0.0151 0.0326 0.0343 -0.0031 -0.011 -0.0083
C14 0.0354 0.031 0.0331 -0.0009 -0.0159 -0.0107
C15 0.036 0.0312 0.0309 0.0059 -0.0183 -0.0169
C16 0.0386 0.0474 0.0587 -0.0189 -0.0274 -0.0081
C17 0.056 0.085 0.101 -0.042 -0.044 -0.0161
C18 0.0344 0.047 0.0442 -0.0134 -0.0195 -0.0142
C21 0.0334 0.0278 0.0451 -0.0065 -0.0254 -0.0013
C22 0.0342 0.0345 0.0421 -0.0061 -0.0262 -0.004
C23 0.0191 0.0267 0.0339 0.0058 -0.0141 -0.0115
C24 0.0269 0.0302 0.0396 -0.0059 -0.017 0.0003
C25 0.0299 0.0363 0.0331 -0.0058 -0.0184 -0.0022
C26 0.0241 0.0249 0.0409 0.0084 -0.0199 -0.0112
C27 0.0213 0.026 0.0258 0.0063 -0.0142 -0.0073
C28 0.0226 0.0261 0.0282 0.0095 -0.0137 -0.0095
C38 0.0254 0.0318 0.0357 -0.0043 -0.0097 -0.0045
C39 0.0332 0.0237 0.043 -0.0041 -0.0211 -0.0026
C40 0.0344 0.0204 0.0391 -0.0038 -0.0218 -0.0075
C41 0.0401 0.0274 0.0373 0.0032 -0.0256 -0.0106
C4 0.0288 0.0392 0.0353 -0.003 -0.0057 -0.0099
C6 0.0273 0.049 0.0274 0.0063 -0.0144 -0.0189
C19 0.074 0.0566 0.0436 0.0067 -0.0152 -0.0468
C48 0.092 0.076 0.0306 0.0122 -0.034 -0.043
loop_
_geom_bond_atom_site_label_1
_geom_bond_atom_site_label_2
_geom_bond_site_symmetry_1
_geom_bond_site_symmetry_2
H35 C32 1_555 1_555
H37 C34 1_555 1_555
H22 C20 1_555 1_555
C47 C20 1_555 1_555
H53 C47 1_555 1_555
Cd4 N5 1_555 1_555
N5 C29 1_555 1_555
C33 N5 1_555 1_555
H36 C33 1_555 1_555
H42 C36 1_555 1_555
Cd4 N8 1_555 1_555
N8 C49 1_555 1_555
N10 C54 1_555 1_555
H39 C35 1_555 1_555
C49 H55 1_555 1_555
C50 C49 1_555 1_555
H56 C50 1_555 1_555
C51 C50 1_555 1_555
C52 C51 1_555 1_555
H57 C52 1_555 1_555
C53 N8 1_555 1_555
H58 C53 1_555 1_555
C54 C51 1_555 1_555
H59 C54 1_555 1_555
H60 C54 1_555 1_555
H61 C55 1_555 1_555
H62 C55 1_555 1_555
H63 C56 1_555 1_555
H64 C56 1_555 1_555
N7 C35 1_555 1_555
N10 C55 1_555 1_555
N10 C56 1_555 1_555
C52 C53 1_555 1_555
H2 C2 1_555 1_555
H11 C10 1_555 1_555
H12 C10 1_555 1_555
C11 C10 1_555 1_555
H13 C11 1_555 1_555
H14 C11 1_555 1_555
C12 C11 1_555 1_555
C13 C12 1_555 1_555
H15 C13 1_555 1_555
Cd4 O5 1_555 1_555
O5 C37 1_555 1_555
O6 Cd4 1_555 1_555
O8 Cd4 1_555 1_555
O10 Cd4 1_555 1_555
C37 O6 1_555 1_555
C42 C13 1_555 1_555
H48 C42 1_555 1_555
O8 C43 1_555 1_555
C43 O10 1_555 1_555
C44 C43 1_555 1_555
H49 C44 1_555 1_555
H50 C44 1_555 1_555
C45 C44 1_555 1_555
H51 C45 1_555 1_555
H52 C45 1_555 1_555
C46 C45 1_555 1_555
H34 C30 1_555 1_555
C7 N2 1_555 1_555
H7 C7 1_555 1_555
Cd1 O1 1_555 1_555
O1 C9 1_555 1_555
O2 Cd1 1_555 1_555
O3 Cd1 1_555 1_555
O4 Cd1 1_555 1_555
N1 Cd1 1_555 1_555
N3 Cd1 1_555 1_555
N4 C26 1_555 1_555
C1 N1 1_555 1_555
C5 N1 1_555 1_555
H4 C5 1_555 1_555
H10 C8 1_555 1_555
C9 O2 1_555 1_555
H16 C14 1_555 1_555
C15 O3 1_555 1_555
C16 C15 1_555 1_555
H17 C16 1_555 1_555
H18 C16 1_555 1_555
C17 C16 1_555 1_555
H19 C17 1_555 1_555
H20 C17 1_555 1_555
C18 C17 1_555 1_555
C21 N3 1_555 1_555
H23 C21 1_555 1_555
C22 C21 1_555 1_555
H24 C22 1_555 1_555
C23 C22 1_555 1_555
C24 C23 1_555 1_555
H25 C24 1_555 1_555
C25 N3 1_555 1_555
H26 C25 1_555 1_555
C26 C23 1_555 1_555
H27 C26 1_555 1_555
H28 C26 1_555 1_555
C27 N4 1_555 1_555
H29 C27 1_555 1_555
H30 C27 1_555 1_555
C28 N4 1_555 1_555
H31 C28 1_555 1_555
H32 C28 1_555 1_555
H43 C38 1_555 1_555
H44 C38 1_555 1_555
C39 C38 1_555 1_555
H45 C39 1_555 1_555
H46 C39 1_555 1_555
C40 C39 1_555 1_555
C41 C14 1_555 1_555
H47 C41 1_555 1_555
O4 C15 1_555 1_555
C24 C25 1_555 1_555
C40 C41 1_555 1_555
H3 C4 1_555 1_555
H5 C6 1_555 1_555
H21 C19 1_555 1_555
C48 C19 1_555 1_555
H54 C48 1_555 1_555

#END
