
###############################################################################
#
# This file contains modified crystal structure data generated from the
# MOF subset of the Cambridge Structural Database (CSD) v543 
# hosted by the Cambridge Crystallographic Data Centre (CCDC).
#
# This work is licensed under the Creative Commons
# Attribution-NonCommercial-ShareAlike 4.0 International License.
# To view a copy of this license, visit
# http://creativecommons.org/licenses/by-nc-sa/4.0/
# or send a letter to
# Creative Commons, PO Box 1866, Mountain View, CA 94042, USA.
#
# CIF created using the CSD Python API on 29 September 2022
# The structure has been converted into the P1 space group
# The structure has a 3D framework
# The original CSD entry IVEKAY is in the triclinic crystal system
# The framework has been calculated to contain at least 10.0% void space
# The void calculation uses a probe of radius 1.32A, grid spacing 0.4
# The framework is charged, counterions have been retained in the structure
#
###############################################################################

data_IVEKAY
_chemical_formula_moiety         '(C30 H38 Eu4 O40)n'
_symmetry_cell_setting           triclinic
_symmetry_space_group_name_H-M   'P 1'
_symmetry_Int_Tables_number      1
_space_group_name_Hall           'P 1'
loop_
_symmetry_equiv_pos_site_id
_symmetry_equiv_pos_as_xyz
1 x,y,z
_cell_length_a                   10.1221(9)
_cell_length_b                   11.5005(11)
_cell_length_c                   12.8600(12)
_cell_angle_alpha                108.557(2)
_cell_angle_beta                 97.049(2)
_cell_angle_gamma                96.625(2)
_cell_volume                     1389.36
loop_
_atom_site_label
_atom_site_type_symbol
_atom_site_fract_x
_atom_site_fract_y
_atom_site_fract_z
_atom_site_U_iso_or_equiv
_atom_site_thermal_displace_type
O34 O 0.0137(2) 0.7234(2) 0.45276(16) 0.0325 Uani
H24 H 0.066681 0.785199 0.500439 0.0490 Uiso
O35 O 0.0784(2) 0.79370(18) 0.25380(18) 0.0286 Uani
H25 H 0.152482 0.779856 0.229491 0.0430 Uiso
H26 H 0.098262 0.867666 0.301661 0.0430 Uiso
O37 O 0.0100(2) 0.4237(2) 0.31624(19) 0.0305 Uani
H30 H 0.076242 0.397490 0.343942 0.0460 Uiso
Eu5 Eu 0.04816(2) 0.40310(2) 0.74163(2) 0.0119 Uani
O46 O 0.21245(18) 0.60901(17) 0.30148(15) 0.0187 Uani
O48 O 0.10612(17) 0.50632(17) 0.13112(15) 0.0195 Uani
H14 H 0.396144 0.039603 0.354692 0.0480 Uiso
O20 O 0.6658(2) 0.03467(19) 0.19384(17) 0.0291 Uani
H15 H 0.719892 0.057854 0.255328 0.0440 Uiso
H16 H 0.680372 0.093704 0.168178 0.0440 Uiso
O50 O 0.42560(17) 0.09659(15) 0.02707(14) 0.0146 Uani
O52 O 0.4233(2) 0.14736(16) 0.20593(15) 0.0237 Uani
Eu10 Eu 0.56785(2) 0.07727(2) 0.88352(2) 0.0113 Uani
Eu2 Eu 0.43215(2) 0.92273(2) 0.11648(2) 0.0113 Uani
O18 O 0.1999(2) 0.9421(2) 0.10412(18) 0.0314 Uani
H11 H 0.137474 0.900775 0.049877 0.0470 Uiso
H12 H 0.158474 0.974775 0.156958 0.0470 Uiso
O19 O 0.4234(3) 0.97588(18) 0.31422(16) 0.0321 Uani
H13 H 0.416654 0.924513 0.349173 0.0480 Uiso
O42 O 0.55463(18) 0.76049(16) 0.15339(17) 0.0198 Uani
O44 O 0.33504(18) 0.72924(16) 0.14725(16) 0.0189 Uani
O1 O 0.21941(18) 0.44641(16) 0.64018(15) 0.0194 Uani
O2 O 0.2334(2) 0.63971(19) 0.6390(2) 0.0364 Uani
O3 O 0.17617(18) 0.28887(17) 0.40627(16) 0.0214 Uani
O4 O 0.3242(2) 0.19369(19) 0.4759(2) 0.0324 Uani
O5 O 0.19406(17) 0.59526(16) 0.86770(15) 0.0165 Uani
O6 O 0.31487(17) 0.78495(15) 0.93647(15) 0.0163 Uani
O7 O 0.44537(18) 0.23951(16) 0.84661(17) 0.0198 Uani
O8 O 0.66496(18) 0.27076(16) 0.85275(16) 0.0189 Uani
O9 O 0.78755(18) 0.39099(17) 0.69852(15) 0.0187 Uani
O10 O 0.89388(17) 0.49368(17) 0.86888(15) 0.0195 Uani
O11 O 0.57440(17) 0.90341(15) 0.97293(14) 0.0146 Uani
O12 O 0.5767(2) 0.85264(16) 0.79407(15) 0.0237 Uani
O13 O 0.2011(2) 0.23900(19) 0.70789(17) 0.0284 Uani
H1 H 0.271488 0.263816 0.758451 0.0430 Uiso
H2 H 0.231788 0.232276 0.647431 0.0430 Uiso
H3 H 0.046919 0.294261 0.511751 0.0490 Uiso
O16 O 0.1328(2) 0.37536(18) 0.91632(15) 0.0236 Uani
H7 H 0.093215 0.416506 0.967786 0.0350 Uiso
H8 H 0.109989 0.299535 0.911378 0.0350 Uiso
H9 H 0.058488 0.609850 0.665278 0.0460 Uiso
C1 C 0.2698(2) 0.5356(2) 0.6131(2) 0.0180 Uani
C2 C 0.3862(2) 0.5158(2) 0.5510(2) 0.0150 Uani
C3 C 0.3993(2) 0.3982(2) 0.48112(19) 0.0132 Uani
C4 C 0.2908(2) 0.2860(2) 0.4531(2) 0.0157 Uani
C5 C 0.5130(2) 0.3835(2) 0.4315(2) 0.0153 Uani
H17 H 0.522121 0.305018 0.385661 0.0180 Uiso
C6 C 0.4320(2) 0.6151(2) 0.87513(19) 0.0103 Uani
C7 C 0.4349(2) 0.4912(2) 0.86591(19) 0.0116 Uani
H18 H 0.358668 0.443779 0.874256 0.0140 Uiso
C8 C 0.5490(2) 0.4367(2) 0.84455(19) 0.0115 Uani
C9 C 0.6615(2) 0.5066(2) 0.82761(19) 0.0116 Uani
C10 C 0.6597(2) 0.6301(2) 0.8367(2) 0.0130 Uani
H19 H 0.734287 0.676036 0.824334 0.0160 Uiso
C11 C 0.5480(2) 0.6860(2) 0.86391(19) 0.0106 Uani
C12 C 0.3036(2) 0.6678(2) 0.89432(19) 0.0113 Uani
C13 C 0.5530(2) 0.3078(2) 0.84648(19) 0.0123 Uani
C14 C 0.7879(2) 0.4573(2) 0.7966(2) 0.0127 Uani
C15 C 0.5642(2) 0.8215(2) 0.8767(2) 0.0120 Uani
O21 O 0.78059(18) 0.55359(16) 0.35982(15) 0.0194 Uani
O22 O 0.7666(2) 0.36029(19) 0.3610(2) 0.0364 Uani
O23 O 0.82383(18) 0.71113(17) 0.59373(16) 0.0214 Uani
O24 O 0.6758(2) 0.80631(19) 0.5241(2) 0.0324 Uani
C16 C 0.7302(2) 0.4644(2) 0.3869(2) 0.0180 Uani
C17 C 0.6138(2) 0.4842(2) 0.4490(2) 0.0150 Uani
C18 C 0.6007(2) 0.6018(2) 0.51888(19) 0.0132 Uani
C19 C 0.7092(2) 0.7140(2) 0.5469(2) 0.0157 Uani
C20 C 0.4870(2) 0.6165(2) 0.5685(2) 0.0153 Uani
H20 H 0.477879 0.694982 0.614339 0.0180 Uiso
Eu3 Eu 0.95184(2) 0.59690(2) 0.25837(2) 0.0119 Uani
O25 O 0.80594(17) 0.40474(16) 0.13230(15) 0.0165 Uani
O26 O 0.68513(17) 0.21505(15) 0.06353(15) 0.0163 Uani
O33 O 0.7989(2) 0.76100(19) 0.29211(17) 0.0284 Uani
H21 H 0.728512 0.736184 0.241549 0.0430 Uiso
H22 H 0.768212 0.767724 0.352569 0.0430 Uiso
H23 H 0.953081 0.705739 0.488249 0.0490 Uiso
O36 O 0.8672(2) 0.62464(18) 0.08368(15) 0.0236 Uani
H27 H 0.906785 0.583494 0.032214 0.0350 Uiso
H28 H 0.890011 0.700465 0.088622 0.0350 Uiso
H29 H 0.941512 0.390150 0.334722 0.0460 Uiso
C21 C 0.5680(2) 0.3849(2) 0.12487(19) 0.0103 Uani
C22 C 0.5651(2) 0.5088(2) 0.13409(19) 0.0116 Uani
H37 H 0.641332 0.556221 0.125744 0.0140 Uiso
C23 C 0.4510(2) 0.5633(2) 0.15545(19) 0.0115 Uani
C24 C 0.3385(2) 0.4934(2) 0.17239(19) 0.0116 Uani
C25 C 0.3403(2) 0.3699(2) 0.1633(2) 0.0130 Uani
H38 H 0.265713 0.323964 0.175666 0.0160 Uiso
C26 C 0.4520(2) 0.3140(2) 0.13609(19) 0.0106 Uani
C27 C 0.6964(2) 0.3322(2) 0.10568(19) 0.0113 Uani
C28 C 0.4470(2) 0.6922(2) 0.15352(19) 0.0123 Uani
C29 C 0.2121(2) 0.5427(2) 0.2034(2) 0.0127 Uani
C30 C 0.4358(2) 0.1785(2) 0.1233(2) 0.0120 Uani
O38 O 0.8001(2) 0.0579(2) 0.89588(18) 0.0314 Uani
H31 H 0.862526 0.099225 0.950123 0.0470 Uiso
H32 H 0.841526 0.025225 0.843042 0.0470 Uiso
O39 O 0.5766(3) 0.02412(18) 0.68578(16) 0.0321 Uani
H33 H 0.583346 0.075487 0.650827 0.0480 Uiso
H34 H 0.603856 0.960397 0.645308 0.0480 Uiso
O40 O 0.3342(2) 0.96533(19) 0.80616(17) 0.0291 Uani
H35 H 0.280108 0.942146 0.744672 0.0440 Uiso
H36 H 0.319628 0.906296 0.831822 0.0440 Uiso
O14 O 0.9863(2) 0.2766(2) 0.54724(16) 0.0325 Uani
H4 H 0.933319 0.214801 0.499561 0.0490 Uiso
O15 O 0.9216(2) 0.20630(18) 0.74620(18) 0.0286 Uani
H5 H 0.847518 0.220144 0.770509 0.0430 Uiso
H6 H 0.901738 0.132334 0.698339 0.0430 Uiso
O17 O 0.9900(2) 0.5763(2) 0.68376(19) 0.0305 Uani
H10 H 0.923758 0.602510 0.656058 0.0460 Uiso
loop_
_atom_site_aniso_label
_atom_site_aniso_U_11
_atom_site_aniso_U_22
_atom_site_aniso_U_33
_atom_site_aniso_U_23
_atom_site_aniso_U_13
_atom_site_aniso_U_12
O34 0.0241 0.0429 0.0185 -0.0011 0.0057 -0.0112
O35 0.0237 0.0193 0.0426 0.0111 0.009 -0.0024
O37 0.0158 0.0378 0.0546 0.0347 0.0122 0.0088
Eu5 0.00986 0.01115 0.01472 0.00369 0.00443 0.00145
O46 0.0151 0.0195 0.0192 0.0019 0.0059 0.0034
O48 0.0118 0.026 0.0185 0.003 0.0041 0.0059
O20 0.0246 0.0282 0.027 0.0045 -0.0026 -0.0045
O50 0.0194 0.0083 0.0154 0.0023 0.0061 0.0011
O52 0.0461 0.0098 0.0157 0.0052 0.0063 0.0032
Eu10 0.01443 0.00714 0.01319 0.00412 0.00343 0.00149
Eu2 0.01443 0.00714 0.01319 0.00412 0.00343 0.00149
O18 0.0183 0.0328 0.0334 -0.0034 0.0054 0.0068
O19 0.0643 0.0188 0.0187 0.0098 0.0146 0.0111
O42 0.0149 0.0126 0.037 0.0148 0.006 0.0021
O44 0.0153 0.0137 0.0335 0.014 0.0066 0.0053
O1 0.0184 0.0178 0.023 0.0063 0.0119 -0.0006
O2 0.0343 0.0226 0.0648 0.0195 0.035 0.0117
O3 0.0144 0.0217 0.0243 0.0054 -0.0003 -0.0012
O4 0.022 0.0221 0.0557 0.0226 -0.0025 -0.0038
O5 0.0098 0.0144 0.022 0.0022 0.0023 0.0002
O6 0.0133 0.0095 0.0219 -0.0003 0.0015 0.0035
O7 0.0149 0.0126 0.037 0.0148 0.006 0.0021
O8 0.0153 0.0137 0.0335 0.014 0.0066 0.0053
O9 0.0151 0.0195 0.0192 0.0019 0.0059 0.0034
O10 0.0118 0.026 0.0185 0.003 0.0041 0.0059
O11 0.0194 0.0083 0.0154 0.0023 0.0061 0.0011
O12 0.0461 0.0098 0.0157 0.0052 0.0063 0.0032
O13 0.028 0.0303 0.0275 0.0072 0.0059 0.0136
O16 0.0317 0.0211 0.0183 0.0063 0.0046 0.0062
C1 0.0137 0.019 0.0199 0.0043 0.007 -0.0007
C2 0.0133 0.0166 0.0159 0.006 0.0061 0.0002
C3 0.0118 0.0137 0.0135 0.0051 0.0031 -0.0025
C4 0.0135 0.0162 0.0163 0.0046 0.0047 -0.0019
C5 0.0156 0.0129 0.0158 0.0026 0.0056 -0.0008
C6 0.0099 0.0087 0.0113 0.0021 0.0013 0.0023
C7 0.0102 0.0086 0.0158 0.004 0.0032 -0.0001
C8 0.0118 0.0087 0.0149 0.0047 0.003 0.0022
C9 0.0102 0.0111 0.0146 0.0048 0.0033 0.004
C10 0.0102 0.0098 0.0196 0.0054 0.005 0
C11 0.0133 0.0065 0.0117 0.0027 0.0018 0.0022
C12 0.0117 0.0119 0.0099 0.0031 0.0007 0.0028
C13 0.0156 0.009 0.0138 0.005 0.0034 0.0035
C14 0.0116 0.0108 0.0198 0.0083 0.0069 0.004
C15 0.0111 0.0079 0.0173 0.0047 0.0027 0.0014
O21 0.0184 0.0178 0.023 0.0063 0.0119 -0.0006
O22 0.0343 0.0226 0.0648 0.0195 0.035 0.0117
O23 0.0144 0.0217 0.0243 0.0054 -0.0003 -0.0012
O24 0.022 0.0221 0.0557 0.0226 -0.0025 -0.0038
C16 0.0137 0.019 0.0199 0.0043 0.007 -0.0007
C17 0.0133 0.0166 0.0159 0.006 0.0061 0.0002
C18 0.0118 0.0137 0.0135 0.0051 0.0031 -0.0025
C19 0.0135 0.0162 0.0163 0.0046 0.0047 -0.0019
C20 0.0156 0.0129 0.0158 0.0026 0.0056 -0.0008
Eu3 0.00986 0.01115 0.01472 0.00369 0.00443 0.00145
O25 0.0098 0.0144 0.022 0.0022 0.0023 0.0002
O26 0.0133 0.0095 0.0219 -0.0003 0.0015 0.0035
O33 0.028 0.0303 0.0275 0.0072 0.0059 0.0136
O36 0.0317 0.0211 0.0183 0.0063 0.0046 0.0062
C21 0.0099 0.0087 0.0113 0.0021 0.0013 0.0023
C22 0.0102 0.0086 0.0158 0.004 0.0032 -0.0001
C23 0.0118 0.0087 0.0149 0.0047 0.003 0.0022
C24 0.0102 0.0111 0.0146 0.0048 0.0033 0.004
C25 0.0102 0.0098 0.0196 0.0054 0.005 0
C26 0.0133 0.0065 0.0117 0.0027 0.0018 0.0022
C27 0.0117 0.0119 0.0099 0.0031 0.0007 0.0028
C28 0.0156 0.009 0.0138 0.005 0.0034 0.0035
C29 0.0116 0.0108 0.0198 0.0083 0.0069 0.004
C30 0.0111 0.0079 0.0173 0.0047 0.0027 0.0014
O38 0.0183 0.0328 0.0334 -0.0034 0.0054 0.0068
O39 0.0643 0.0188 0.0187 0.0098 0.0146 0.0111
O40 0.0246 0.0282 0.027 0.0045 -0.0026 -0.0045
O14 0.0241 0.0429 0.0185 -0.0011 0.0057 -0.0112
O15 0.0237 0.0193 0.0426 0.0111 0.009 -0.0024
O17 0.0158 0.0378 0.0546 0.0347 0.0122 0.0088
loop_
_geom_bond_atom_site_label_1
_geom_bond_atom_site_label_2
_geom_bond_site_symmetry_1
_geom_bond_site_symmetry_2
H24 O34 1_555 1_555
H25 O35 1_555 1_555
H26 O35 1_555 1_555
H30 O37 1_555 1_555
H15 O20 1_555 1_555
H16 O20 1_555 1_555
O18 Eu2 1_555 1_555
H11 O18 1_555 1_555
H12 O18 1_555 1_555
O19 Eu2 1_555 1_555
H13 O19 1_555 1_555
O42 Eu2 1_555 1_555
O44 Eu2 1_555 1_555
Eu5 O1 1_555 1_555
O1 C1 1_555 1_555
O2 C1 1_555 1_555
O3 C4 1_555 1_555
O4 C4 1_555 1_555
O5 Eu5 1_555 1_555
O6 C12 1_555 1_555
O7 C13 1_555 1_555
O8 C13 1_555 1_555
O9 C14 1_555 1_555
O10 C14 1_555 1_555
O12 C15 1_555 1_555
O13 Eu5 1_555 1_555
H1 O13 1_555 1_555
H2 O13 1_555 1_555
O16 Eu5 1_555 1_555
H7 O16 1_555 1_555
H8 O16 1_555 1_555
C1 C2 1_555 1_555
C2 C3 1_555 1_555
C3 C4 1_555 1_555
C5 C3 1_555 1_555
H17 C5 1_555 1_555
C6 C7 1_555 1_555
C7 H18 1_555 1_555
C8 C7 1_555 1_555
C9 C8 1_555 1_555
C10 C9 1_555 1_555
H19 C10 1_555 1_555
C11 C6 1_555 1_555
C12 O5 1_555 1_555
C13 C8 1_555 1_555
C14 C9 1_555 1_555
C15 O11 1_555 1_555
O21 C16 1_555 1_555
O22 C16 1_555 1_555
O23 C19 1_555 1_555
O24 C19 1_555 1_555
C16 C17 1_555 1_555
C17 C5 1_555 1_555
C18 C17 1_555 1_555
C19 C18 1_555 1_555
C20 C2 1_555 1_555
H20 C20 1_555 1_555
Eu3 O21 1_555 1_555
O25 Eu3 1_555 1_555
O26 C27 1_555 1_555
O42 C28 1_555 1_555
O44 C28 1_555 1_555
O46 C29 1_555 1_555
O48 C29 1_555 1_555
O52 C30 1_555 1_555
O33 Eu3 1_555 1_555
H21 O33 1_555 1_555
H22 O33 1_555 1_555
O36 Eu3 1_555 1_555
H27 O36 1_555 1_555
H28 O36 1_555 1_555
C21 C22 1_555 1_555
C22 H37 1_555 1_555
C23 C22 1_555 1_555
C24 C23 1_555 1_555
C25 C24 1_555 1_555
H38 C25 1_555 1_555
C26 C21 1_555 1_555
C27 O25 1_555 1_555
C28 C23 1_555 1_555
C29 C24 1_555 1_555
C30 O50 1_555 1_555
Eu10 O7 1_555 1_555
O8 Eu10 1_555 1_555
C6 C12 1_555 1_555
C10 C11 1_555 1_555
C11 C15 1_555 1_555
C18 C20 1_555 1_555
C21 C27 1_555 1_555
C25 C26 1_555 1_555
C26 C30 1_555 1_555
O38 Eu10 1_555 1_555
H31 O38 1_555 1_555
H32 O38 1_555 1_555
O39 Eu10 1_555 1_555
H33 O39 1_555 1_555
H35 O40 1_555 1_555
H36 O40 1_555 1_555
H4 O14 1_555 1_555
H5 O15 1_555 1_555
H6 O15 1_555 1_555
H10 O17 1_555 1_555

#END
