
###############################################################################
#
# This file contains modified crystal structure data generated from the
# MOF subset of the Cambridge Structural Database (CSD) v543 
# hosted by the Cambridge Crystallographic Data Centre (CCDC).
#
# This work is licensed under the Creative Commons
# Attribution-NonCommercial-ShareAlike 4.0 International License.
# To view a copy of this license, visit
# http://creativecommons.org/licenses/by-nc-sa/4.0/
# or send a letter to
# Creative Commons, PO Box 1866, Mountain View, CA 94042, USA.
#
# CIF created using the CSD Python API on 29 September 2022
# The structure has been converted into the P1 space group
# The structure has a 3D framework
# The original CSD entry IVELUS is in the monoclinic crystal system
# The framework has been calculated to contain at least 10.0% void space
# The void calculation uses a probe of radius 1.32A, grid spacing 0.4
#
###############################################################################

data_IVELUS
_chemical_formula_moiety         '(C48 H32 Mn10 N8 O16)n'
_symmetry_cell_setting           triclinic
_symmetry_space_group_name_H-M   'P 1'
_symmetry_Int_Tables_number      1
_space_group_name_Hall           'P 1'
loop_
_symmetry_equiv_pos_site_id
_symmetry_equiv_pos_as_xyz
1 x,y,z
_cell_length_a                   10.037(3)
_cell_length_b                   13.388(5)
_cell_length_c                   10.695(4)
_cell_angle_alpha                90
_cell_angle_beta                 103.989(5)
_cell_angle_gamma                90
_cell_volume                     1394.52
loop_
_atom_site_label
_atom_site_type_symbol
_atom_site_fract_x
_atom_site_fract_y
_atom_site_fract_z
Mn1 Mn 0.0000 0.0000 0.0000
O1 O 0.12442(10) 0.45866(7) 0.36989(10)
O2 O 0.34080(10) 0.41077(7) 0.38128(10)
N1 N 0.07347(12) 0.13593(9) 0.12268(12)
C1 C 0.20656(14) 0.16148(11) 0.15495(16)
H1 H 0.2705 0.1205 0.1262
C2 C 0.25489(14) 0.24505(10) 0.22837(15)
H2 H 0.3502 0.2602 0.2499
C3 C 0.16302(14) 0.30641(10) 0.27021(14)
C4 C 0.02477(14) 0.28032(11) 0.23753(16)
C6 C 0.21270(14) 0.39971(10) 0.34783(13)
Mn4 Mn 0.0000 0.5000 0.5000
Mn7 Mn 0.5000 0.5000 0.5000
Mn9 Mn 0.5000 0.0000 0.0000
Mn1_2 Mn 0.0000 0.0000 1.0000
Mn9_2 Mn 0.5000 0.0000 1.0000
O10 O 0.12442(10) 0.04134(7) 0.86989(10)
Mn1_3 Mn -0.0000 1.0000 0.0000
O3 O 0.16575(10) 0.90580(8) 0.10461(11)
O4 O 0.38149(10) 0.96428(8) 0.13900(10)
N2 N 0.43006(12) 0.64098(9) 0.38300(12)
C7 C 0.46761(16) 0.73303(11) 0.42690(15)
H5 H 0.5240 0.7399 0.5116
C8 C 0.42810(16) 0.81884(11) 0.35461(16)
H6 H 0.4595 0.8825 0.3884
C9 C 0.34223(14) 0.81025(10) 0.23242(14)
C10 C 0.30136(16) 0.71535(11) 0.18703(16)
H7 H 0.2411 0.7067 0.1043
C11 C 0.34926(16) 0.63341(11) 0.26349(16)
H8 H 0.3237 0.5687 0.2298
C12 C 0.29240(14) 0.90165(10) 0.15083(14)
Mn9_3 Mn 0.5000 1.0000 0.0000
O12 O 0.65920(10) 0.58923(7) 0.61872(10)
O13 O 0.61851(10) 0.46428(8) 0.36100(10)
O14 O 0.38149(10) 0.53572(8) 0.63900(10)
N5 N 0.56994(12) 0.35902(9) 0.61700(12)
Mn1_4 Mn 0.0000 1.0000 1.0000
H11 H 0.0413 0.6798 0.7352
C17 C 0.01478(15) 0.80493(11) 0.83553(17)
H12 H 0.1093 0.8224 0.8572
Mn9_4 Mn 0.5000 1.0000 1.0000
Mn1_5 Mn 1.0000 0.0000 0.0000
H3 H 0.9587 0.3202 0.2648
C5 C 0.98522(15) 0.19507(11) 0.16447(17)
H4 H 0.8907 0.1776 0.1428
Mn4_2 Mn 1.0000 0.5000 0.5000
Mn1_6 Mn 1.0000 0.0000 1.0000
O7 O 0.83425(10) 0.09420(8) 0.89539(11)
O8 O 0.61851(10) 0.03572(8) 0.86100(10)
C19 C 0.53239(16) 0.26697(11) 0.57310(15)
H13 H 0.4760 0.2601 0.4884
C20 C 0.57190(16) 0.18116(11) 0.64539(16)
H14 H 0.5405 0.1175 0.6116
C21 C 0.65777(14) 0.18975(10) 0.76758(14)
C22 C 0.69864(16) 0.28465(11) 0.81297(16)
H15 H 0.7589 0.2933 0.8957
C23 C 0.65074(16) 0.36659(11) 0.73651(16)
H16 H 0.6763 0.4313 0.7702
C24 C 0.70760(14) 0.09835(10) 0.84917(14)
Mn1_7 Mn 1.0000 1.0000 0.0000
O9 O 0.87558(10) 0.95866(7) 0.13011(10)
Mn1_8 Mn 1.0000 1.0000 1.0000
O5 O 0.87558(10) 0.54134(7) 0.63011(10)
N3 N 0.92653(12) 0.86407(9) 0.87732(12)
C13 C 0.79344(14) 0.83852(11) 0.84505(16)
H9 H 0.7295 0.8795 0.8738
C14 C 0.74511(14) 0.75495(10) 0.77163(15)
H10 H 0.6498 0.7398 0.7501
C15 C 0.83698(14) 0.69359(10) 0.72979(14)
C16 C 0.97523(14) 0.71968(11) 0.76247(16)
C18 C 0.78730(14) 0.60029(10) 0.65217(13)
H13_2 H 0.5240 0.7601 0.0116
H3_2 H 0.0413 0.8202 0.2352
C5_2 C 0.01478(15) 0.69507(11) 0.33553(17)
H4_2 H 0.1093 0.6776 0.3572
O6 O 0.34080(10) 0.08923(7) 0.88128(10)
N3_2 N 0.07347(12) 0.36407(9) 0.62268(12)
C13_2 C 0.20656(14) 0.33852(11) 0.65495(16)
H9_2 H 0.2705 0.3795 0.6262
C14_2 C 0.25489(14) 0.25495(10) 0.72837(15)
H10_2 H 0.3502 0.2398 0.7499
C15_2 C 0.16302(14) 0.19359(10) 0.77021(14)
C16_2 C 0.02477(14) 0.21968(11) 0.73753(16)
C18_2 C 0.21270(14) 0.10029(10) 0.84783(13)
O7_2 O 0.16575(10) 0.59420(8) 0.60461(11)
N4 N 0.43006(12) 0.85902(9) 0.88300(12)
C19_2 C 0.46761(16) 0.76697(11) 0.92690(15)
C20_2 C 0.42810(16) 0.68116(11) 0.85461(16)
H14_2 H 0.4595 0.6175 0.8884
C21_2 C 0.34223(14) 0.68975(10) 0.73242(14)
C22_2 C 0.30136(16) 0.78465(11) 0.68703(16)
H15_2 H 0.2411 0.7933 0.6043
C23_2 C 0.34926(16) 0.86659(11) 0.76349(16)
H16_2 H 0.3237 0.9313 0.7298
C24_2 C 0.29240(14) 0.59835(10) 0.65083(14)
O2_2 O 0.65920(10) 0.91077(7) 0.11872(10)
N1_2 N 0.92653(12) 0.63593(9) 0.37732(12)
C1_2 C 0.79344(14) 0.66148(11) 0.34505(16)
H1_2 H 0.7295 0.6205 0.3738
C2_2 C 0.74511(14) 0.74505(10) 0.27163(15)
H2_2 H 0.6498 0.7602 0.2501
C3_2 C 0.83698(14) 0.80641(10) 0.22979(14)
C4_2 C 0.97523(14) 0.78032(11) 0.26247(16)
C6_2 C 0.78730(14) 0.89971(10) 0.15217(13)
O3_2 O 0.83425(10) 0.40580(8) 0.39539(11)
N2_2 N 0.56994(12) 0.14098(9) 0.11700(12)
C7_2 C 0.53239(16) 0.23303(11) 0.07310(15)
C8_2 C 0.57190(16) 0.31884(11) 0.14539(16)
H6_2 H 0.5405 0.3825 0.1116
C9_2 C 0.65777(14) 0.31025(10) 0.26758(14)
C10_2 C 0.69864(16) 0.21535(11) 0.31297(16)
H7_2 H 0.7589 0.2067 0.3957
C11_2 C 0.65074(16) 0.13341(11) 0.23651(16)
H8_2 H 0.6763 0.0687 0.2702
C12_2 C 0.70760(14) 0.40165(10) 0.34917(14)
H11_2 H 0.9587 0.1798 0.7648
C17_2 C 0.98522(15) 0.30493(11) 0.66447(17)
H12_2 H 0.8907 0.3224 0.6428
H5_2 H 0.4760 0.2399 0.9884
loop_
_geom_bond_atom_site_label_1
_geom_bond_atom_site_label_2
_geom_bond_site_symmetry_1
_geom_bond_site_symmetry_2
Mn1 N1 1_555 1_555
O1 C6 1_555 1_555
O2 C6 1_555 1_555
N1 C1 1_555 1_555
C1 H1 1_555 1_555
C2 C1 1_555 1_555
H2 C2 1_555 1_555
C3 C2 1_555 1_555
C4 C3 1_555 1_555
C6 C3 1_555 1_555
Mn4 O1 1_555 1_555
Mn7 O2 1_555 1_555
O10 Mn1_2 1_555 1_555
Mn7 N2 1_555 1_555
O3 Mn1_3 1_555 1_555
O4 C12 1_555 1_555
N2 C7 1_555 1_555
C7 H5 1_555 1_555
C8 C7 1_555 1_555
H6 C8 1_555 1_555
C9 C8 1_555 1_555
C10 C9 1_555 1_555
H7 C10 1_555 1_555
C11 N2 1_555 1_555
H8 C11 1_555 1_555
C12 O3 1_555 1_555
Mn9_3 O4 1_555 1_555
O12 Mn7 1_555 1_555
O13 Mn7 1_555 1_555
O14 Mn7 1_555 1_555
N5 Mn7 1_555 1_555
C9 C12 1_555 1_555
C10 C11 1_555 1_555
H12 C17 1_555 1_555
H4 C5 1_555 1_555
O7 Mn1_6 1_555 1_555
O8 C24 1_555 1_555
N5 C19 1_555 1_555
C19 H13 1_555 1_555
C20 C19 1_555 1_555
H14 C20 1_555 1_555
C21 C20 1_555 1_555
C22 C21 1_555 1_555
H15 C22 1_555 1_555
C23 N5 1_555 1_555
H16 C23 1_555 1_555
C24 O7 1_555 1_555
Mn9_2 O8 1_555 1_555
C21 C24 1_555 1_555
C22 C23 1_555 1_555
O9 Mn1_7 1_555 1_555
O5 C18 1_555 1_555
O12 C18 1_555 1_555
N3 Mn1_8 1_555 1_555
C13 N3 1_555 1_555
H9 C13 1_555 1_555
C14 C13 1_555 1_555
H10 C14 1_555 1_555
C15 C14 1_555 1_555
C16 C15 1_555 1_555
C18 C15 1_555 1_555
Mn4_2 O5 1_555 1_555
H4_2 C5_2 1_555 1_555
O10 C18_2 1_555 1_555
O6 C18_2 1_555 1_555
N3_2 Mn4 1_555 1_555
C13_2 N3_2 1_555 1_555
H9_2 C13_2 1_555 1_555
C14_2 C13_2 1_555 1_555
H10_2 C14_2 1_555 1_555
C15_2 C14_2 1_555 1_555
C16_2 C15_2 1_555 1_555
C18_2 C15_2 1_555 1_555
O7_2 Mn4 1_555 1_555
O14 C24_2 1_555 1_555
N4 C19_2 1_555 1_555
C20_2 C19_2 1_555 1_555
H14_2 C20_2 1_555 1_555
C21_2 C20_2 1_555 1_555
C22_2 C21_2 1_555 1_555
H15_2 C22_2 1_555 1_555
C23_2 N4 1_555 1_555
H16_2 C23_2 1_555 1_555
C24_2 O7_2 1_555 1_555
Mn9_2 O6 1_555 1_555
Mn9_4 N4 1_555 1_555
C21_2 C24_2 1_555 1_555
C22_2 C23_2 1_555 1_555
Mn4_2 N1_2 1_555 1_555
Mn9 N2_2 1_555 1_555
O9 C6_2 1_555 1_555
O2_2 C6_2 1_555 1_555
N1_2 C1_2 1_555 1_555
C1_2 H1_2 1_555 1_555
C2_2 C1_2 1_555 1_555
H2_2 C2_2 1_555 1_555
C3_2 C2_2 1_555 1_555
C4_2 C3_2 1_555 1_555
C6_2 C3_2 1_555 1_555
O3_2 Mn4_2 1_555 1_555
O13 C12_2 1_555 1_555
N2_2 C7_2 1_555 1_555
C8_2 C7_2 1_555 1_555
H6_2 C8_2 1_555 1_555
C9_2 C8_2 1_555 1_555
C10_2 C9_2 1_555 1_555
H7_2 C10_2 1_555 1_555
C11_2 N2_2 1_555 1_555
H8_2 C11_2 1_555 1_555
C12_2 O3_2 1_555 1_555
H12_2 C17_2 1_555 1_555
Mn9_3 O2_2 1_555 1_555
C9_2 C12_2 1_555 1_555
C10_2 C11_2 1_555 1_555

#END
