
###############################################################################
#
# This file contains modified crystal structure data generated from the
# MOF subset of the Cambridge Structural Database (CSD) v543 
# hosted by the Cambridge Crystallographic Data Centre (CCDC).
#
# This work is licensed under the Creative Commons
# Attribution-NonCommercial-ShareAlike 4.0 International License.
# To view a copy of this license, visit
# http://creativecommons.org/licenses/by-nc-sa/4.0/
# or send a letter to
# Creative Commons, PO Box 1866, Mountain View, CA 94042, USA.
#
# CIF created using the CSD Python API on 29 September 2022
# The structure has been converted into the P1 space group
# The structure has a 3D framework
# The original CSD entry IVEMED is in the monoclinic crystal system
# The framework has been calculated to contain at least 10.0% void space
# The void calculation uses a probe of radius 1.32A, grid spacing 0.4
#
###############################################################################

data_IVEMED
_chemical_formula_moiety         '(C48 H32 Mn10 N8 O16)n'
_symmetry_cell_setting           triclinic
_symmetry_space_group_name_H-M   'P 1'
_symmetry_Int_Tables_number      1
_space_group_name_Hall           'P 1'
loop_
_symmetry_equiv_pos_site_id
_symmetry_equiv_pos_as_xyz
1 x,y,z
_cell_length_a                   10.0471(6)
_cell_length_b                   13.4729(8)
_cell_length_c                   10.6788(6)
_cell_angle_alpha                90
_cell_angle_beta                 104.5533(11)
_cell_angle_gamma                90
_cell_volume                     1399.14
loop_
_atom_site_label
_atom_site_type_symbol
_atom_site_fract_x
_atom_site_fract_y
_atom_site_fract_z
Mn1 Mn 0.0000 0.0000 0.0000
O1 O 0.11995(13) 0.45753(9) 0.36579(13)
O2 O 0.33733(12) 0.41162(9) 0.38198(12)
N1 N 0.07492(15) 0.13451(11) 0.12537(15)
C1 C 0.20709(18) 0.16124(14) 0.1574(2)
H1 H 0.2717 0.1209 0.1295
C2 C 0.25388(17) 0.24522(13) 0.22940(19)
H2 H 0.3489 0.2616 0.2500
C3 C 0.16226(16) 0.30534(12) 0.27144(16)
C4 C 0.02506(18) 0.27700(15) 0.2393(2)
C6 C 0.20974(16) 0.39930(12) 0.34711(15)
Mn4 Mn 0.0000 0.5000 0.5000
Mn7 Mn 0.5000 0.5000 0.5000
Mn9 Mn 0.5000 0.0000 0.0000
Mn1_2 Mn 0.0000 0.0000 1.0000
Mn9_2 Mn 0.5000 0.0000 1.0000
O10 O 0.11995(13) 0.04247(9) 0.86579(13)
Mn1_3 Mn 0.0000 1.0000 0.0000
O3 O 0.16558(12) 0.90559(10) 0.10428(13)
O4 O 0.38112(13) 0.96097(10) 0.13688(13)
N2 N 0.43071(15) 0.63935(11) 0.38006(14)
C7 C 0.4658(2) 0.73046(14) 0.42458(19)
H5 H 0.5213 0.7372 0.5104
C8 C 0.4261(2) 0.81580(13) 0.35320(19)
H6 H 0.4565 0.8790 0.3886
C9 C 0.34176(16) 0.80807(12) 0.22970(17)
C10 C 0.3027(2) 0.71431(14) 0.1831(2)
H7 H 0.2429 0.7059 0.0994
C11 C 0.3514(2) 0.63257(14) 0.2594(2)
H8 H 0.3272 0.5684 0.2242
C12 C 0.29234(16) 0.89971(12) 0.14918(16)
Mn9_3 Mn 0.5000 1.0000 0.0000
O12 O 0.66267(12) 0.58838(9) 0.61802(12)
O13 O 0.61888(13) 0.46097(10) 0.36312(13)
O14 O 0.38112(13) 0.53903(10) 0.63688(13)
N5 N 0.56929(15) 0.36065(11) 0.61994(14)
Mn1_4 Mn 0.0000 1.0000 1.0000
H11 H 0.0415 0.6845 0.7330
C17 C 0.01335(19) 0.80788(15) 0.8333(2)
H12 H 0.1077 0.8262 0.8551
Mn9_4 Mn 0.5000 1.0000 1.0000
Mn1_5 Mn 1.0000 0.0000 0.0000
H3 H 0.9585 0.3155 0.2670
C5 C 0.98665(19) 0.19212(15) 0.1667(2)
H4 H 0.8923 0.1738 0.1449
Mn4_2 Mn 1.0000 0.5000 0.5000
Mn1_6 Mn 1.0000 0.0000 1.0000
O7 O 0.83442(12) 0.09441(10) 0.89572(13)
O8 O 0.61888(13) 0.03903(10) 0.86312(13)
C19 C 0.5342(2) 0.26954(14) 0.57542(19)
H13 H 0.4787 0.2628 0.4896
C20 C 0.5739(2) 0.18420(13) 0.64680(19)
H14 H 0.5435 0.1210 0.6114
C21 C 0.65824(16) 0.19193(12) 0.77030(17)
C22 C 0.6973(2) 0.28569(14) 0.8169(2)
H15 H 0.7571 0.2941 0.9006
C23 C 0.6486(2) 0.36743(14) 0.7406(2)
H16 H 0.6728 0.4316 0.7758
C24 C 0.70766(16) 0.10029(12) 0.85082(16)
Mn1_7 Mn 1.0000 1.0000 0.0000
O9 O 0.88005(13) 0.95753(9) 0.13421(13)
Mn1_8 Mn 1.0000 1.0000 1.0000
O5 O 0.88005(13) 0.54247(9) 0.63421(13)
N3 N 0.92508(15) 0.86549(11) 0.87463(15)
C13 C 0.79291(18) 0.83876(14) 0.8426(2)
H9 H 0.7283 0.8791 0.8705
C14 C 0.74612(17) 0.75478(13) 0.77060(19)
H10 H 0.6511 0.7384 0.7500
C15 C 0.83774(16) 0.69466(12) 0.72856(16)
C16 C 0.97494(18) 0.72300(15) 0.7607(2)
C18 C 0.79026(16) 0.60070(12) 0.65289(15)
H13_2 H 0.5213 0.7628 0.0104
H3_2 H 0.0415 0.8155 0.2330
C5_2 C 0.01335(19) 0.69212(15) 0.3333(2)
H4_2 H 0.1077 0.6738 0.3551
O6 O 0.33733(12) 0.08838(9) 0.88198(12)
N3_2 N 0.07492(15) 0.36549(11) 0.62537(15)
C13_2 C 0.20709(18) 0.33876(14) 0.6574(2)
H9_2 H 0.2717 0.3791 0.6295
C14_2 C 0.25388(17) 0.25478(13) 0.72940(19)
H10_2 H 0.3489 0.2384 0.7500
C15_2 C 0.16226(16) 0.19466(12) 0.77144(16)
C16_2 C 0.02506(18) 0.22300(15) 0.7393(2)
C18_2 C 0.20974(16) 0.10070(12) 0.84711(15)
O7_2 O 0.16558(12) 0.59441(10) 0.60428(13)
N4 N 0.43071(15) 0.86065(11) 0.88006(14)
C19_2 C 0.4658(2) 0.76954(14) 0.92458(19)
C20_2 C 0.4261(2) 0.68420(13) 0.85320(19)
H14_2 H 0.4565 0.6210 0.8886
C21_2 C 0.34176(16) 0.69193(12) 0.72970(17)
C22_2 C 0.3027(2) 0.78569(14) 0.6831(2)
H15_2 H 0.2429 0.7941 0.5994
C23_2 C 0.3514(2) 0.86743(14) 0.7594(2)
H16_2 H 0.3272 0.9316 0.7242
C24_2 C 0.29234(16) 0.60029(12) 0.64918(16)
O2_2 O 0.66267(12) 0.91162(9) 0.11802(12)
N1_2 N 0.92508(15) 0.63451(11) 0.37463(15)
C1_2 C 0.79291(18) 0.66124(14) 0.3426(2)
H1_2 H 0.7283 0.6209 0.3705
C2_2 C 0.74612(17) 0.74522(13) 0.27060(19)
H2_2 H 0.6511 0.7616 0.2500
C3_2 C 0.83774(16) 0.80534(12) 0.22856(16)
C4_2 C 0.97494(18) 0.77700(15) 0.2607(2)
C6_2 C 0.79026(16) 0.89930(12) 0.15289(15)
O3_2 O 0.83442(12) 0.40559(10) 0.39572(13)
N2_2 N 0.56929(15) 0.13935(11) 0.11994(14)
C7_2 C 0.5342(2) 0.23046(14) 0.07542(19)
C8_2 C 0.5739(2) 0.31580(13) 0.14680(19)
H6_2 H 0.5435 0.3790 0.1114
C9_2 C 0.65824(16) 0.30807(12) 0.27030(17)
C10_2 C 0.6973(2) 0.21431(14) 0.3169(2)
H7_2 H 0.7571 0.2059 0.4006
C11_2 C 0.6486(2) 0.13257(14) 0.2406(2)
H8_2 H 0.6728 0.0684 0.2758
C12_2 C 0.70766(16) 0.39971(12) 0.35082(16)
H11_2 H 0.9585 0.1845 0.7670
C17_2 C 0.98665(19) 0.30788(15) 0.6667(2)
H12_2 H 0.8923 0.3262 0.6449
H5_2 H 0.4787 0.2372 0.9896
loop_
_geom_bond_atom_site_label_1
_geom_bond_atom_site_label_2
_geom_bond_site_symmetry_1
_geom_bond_site_symmetry_2
Mn1 N1 1_555 1_555
O1 C6 1_555 1_555
O2 C6 1_555 1_555
N1 C1 1_555 1_555
C1 H1 1_555 1_555
C2 C1 1_555 1_555
H2 C2 1_555 1_555
C3 C2 1_555 1_555
C4 C3 1_555 1_555
C6 C3 1_555 1_555
Mn4 O1 1_555 1_555
Mn7 O2 1_555 1_555
O10 Mn1_2 1_555 1_555
Mn7 N2 1_555 1_555
O3 Mn1_3 1_555 1_555
O4 C12 1_555 1_555
N2 C7 1_555 1_555
C7 H5 1_555 1_555
C8 C7 1_555 1_555
H6 C8 1_555 1_555
C9 C8 1_555 1_555
C10 C9 1_555 1_555
H7 C10 1_555 1_555
C11 N2 1_555 1_555
H8 C11 1_555 1_555
C12 O3 1_555 1_555
Mn9_3 O4 1_555 1_555
O12 Mn7 1_555 1_555
O13 Mn7 1_555 1_555
O14 Mn7 1_555 1_555
N5 Mn7 1_555 1_555
C9 C12 1_555 1_555
C10 C11 1_555 1_555
H12 C17 1_555 1_555
H4 C5 1_555 1_555
O7 Mn1_6 1_555 1_555
O8 C24 1_555 1_555
N5 C19 1_555 1_555
C19 H13 1_555 1_555
C20 C19 1_555 1_555
H14 C20 1_555 1_555
C21 C20 1_555 1_555
C22 C21 1_555 1_555
H15 C22 1_555 1_555
C23 N5 1_555 1_555
H16 C23 1_555 1_555
C24 O7 1_555 1_555
Mn9_2 O8 1_555 1_555
C21 C24 1_555 1_555
C22 C23 1_555 1_555
O9 Mn1_7 1_555 1_555
O5 C18 1_555 1_555
O12 C18 1_555 1_555
N3 Mn1_8 1_555 1_555
C13 N3 1_555 1_555
H9 C13 1_555 1_555
C14 C13 1_555 1_555
H10 C14 1_555 1_555
C15 C14 1_555 1_555
C16 C15 1_555 1_555
C18 C15 1_555 1_555
Mn4_2 O5 1_555 1_555
H4_2 C5_2 1_555 1_555
O10 C18_2 1_555 1_555
O6 C18_2 1_555 1_555
N3_2 Mn4 1_555 1_555
C13_2 N3_2 1_555 1_555
H9_2 C13_2 1_555 1_555
C14_2 C13_2 1_555 1_555
H10_2 C14_2 1_555 1_555
C15_2 C14_2 1_555 1_555
C16_2 C15_2 1_555 1_555
C18_2 C15_2 1_555 1_555
O7_2 Mn4 1_555 1_555
O14 C24_2 1_555 1_555
N4 C19_2 1_555 1_555
C20_2 C19_2 1_555 1_555
H14_2 C20_2 1_555 1_555
C21_2 C20_2 1_555 1_555
C22_2 C21_2 1_555 1_555
H15_2 C22_2 1_555 1_555
C23_2 N4 1_555 1_555
H16_2 C23_2 1_555 1_555
C24_2 O7_2 1_555 1_555
Mn9_2 O6 1_555 1_555
Mn9_4 N4 1_555 1_555
C21_2 C24_2 1_555 1_555
C22_2 C23_2 1_555 1_555
Mn4_2 N1_2 1_555 1_555
Mn9 N2_2 1_555 1_555
O9 C6_2 1_555 1_555
O2_2 C6_2 1_555 1_555
N1_2 C1_2 1_555 1_555
C1_2 H1_2 1_555 1_555
C2_2 C1_2 1_555 1_555
H2_2 C2_2 1_555 1_555
C3_2 C2_2 1_555 1_555
C4_2 C3_2 1_555 1_555
C6_2 C3_2 1_555 1_555
O3_2 Mn4_2 1_555 1_555
O13 C12_2 1_555 1_555
N2_2 C7_2 1_555 1_555
C8_2 C7_2 1_555 1_555
H6_2 C8_2 1_555 1_555
C9_2 C8_2 1_555 1_555
C10_2 C9_2 1_555 1_555
H7_2 C10_2 1_555 1_555
C11_2 N2_2 1_555 1_555
H8_2 C11_2 1_555 1_555
C12_2 O3_2 1_555 1_555
H12_2 C17_2 1_555 1_555
Mn9_3 O2_2 1_555 1_555
C9_2 C12_2 1_555 1_555
C10_2 C11_2 1_555 1_555

#END
