
###############################################################################
#
# This file contains modified crystal structure data generated from the
# MOF subset of the Cambridge Structural Database (CSD) v543 
# hosted by the Cambridge Crystallographic Data Centre (CCDC).
#
# This work is licensed under the Creative Commons
# Attribution-NonCommercial-ShareAlike 4.0 International License.
# To view a copy of this license, visit
# http://creativecommons.org/licenses/by-nc-sa/4.0/
# or send a letter to
# Creative Commons, PO Box 1866, Mountain View, CA 94042, USA.
#
# CIF created using the CSD Python API on 29 September 2022
# The structure has been converted into the P1 space group
# The structure has a 3D framework
# The original CSD entry IVEQEG01 is in the triclinic crystal system
# The framework has been calculated to contain at least 10.0% void space
# The void calculation uses a probe of radius 1.32A, grid spacing 0.4
# H atom positions have been added when not included in the experimental data
#
###############################################################################

data_IVEQEG01
_chemical_formula_moiety         '(C12 H32 Al3 N4 O14 P4)n'
_symmetry_cell_setting           triclinic
_symmetry_space_group_name_H-M   'P 1'
_symmetry_Int_Tables_number      1
_space_group_name_Hall           'P 1'
loop_
_symmetry_equiv_pos_site_id
_symmetry_equiv_pos_as_xyz
1 x,y,z
_cell_length_a                   6.921408(17)
_cell_length_b                   10.05342(3)
_cell_length_c                   11.27829(4)
_cell_angle_alpha                89.6820(4)
_cell_angle_beta                 89.9141(3)
_cell_angle_gamma                70.0966(3)
_cell_volume                     737.898
loop_
_atom_site_label
_atom_site_type_symbol
_atom_site_fract_x
_atom_site_fract_y
_atom_site_fract_z
_atom_site_U_iso_or_equiv
_atom_site_thermal_displace_type
Al4 Al 0.000 0.500 0.500 0.0074 Uiso
H3 H 0.234292 0.33039 0.0150321 . .
H8 H 0.223583 0.561315 0.0380892 . .
Al2 Al 0.500 0.500 0.500 0.0074 Uiso
O1 O 0.2069(7) 0.5836(4) 0.5007(4) 0.0074 Uiso
P1 P 0.3293(4) 0.3340(2) 0.69258(18) 0.0074 Uiso
O2 O 0.1308(7) 0.3661(4) 0.6236(4) 0.0074 Uiso
O3 O 0.4953(7) 0.3602(4) 0.6177(4) 0.0074 Uiso
O4 O 0.3986(7) 0.1844(4) 0.7501(3) 0.0074 Uiso
C1 C 0.2857(10) 0.4748(6) 0.8122(5) 0.0074 Uiso
N1 N 0.0956(8) 0.4918(6) 0.8866(5) 0.0074 Uiso
C2 C 0.1043(10) 0.3608(6) 0.9542(6) 0.0074 Uiso
C3 C 0.0938(9) 0.6031(6) 0.9779(6) 0.0074 Uiso
P2 P 0.3283(4) 0.3400(2) 0.30750(18) 0.0074 Uiso
O5 O 0.1482(7) 0.3577(4) 0.3887(4) 0.0074 Uiso
O6 O 0.4964(7) 0.3710(4) 0.3739(4) 0.0074 Uiso
O7 O 0.2754(7) 0.4190(4) 0.1899(3) 0.0074 Uiso
C4 C 0.4291(11) 0.1445(6) 0.2718(5) 0.0074 Uiso
N2 N 0.4750(10) 0.0442(5) 0.3764(4) 0.0074 Uiso
C5 C 0.2901(9) 0.0514(7) 0.4528(7) 0.0074 Uiso
C12 C 0.6464(11) 0.0601(6) 0.4523(7) 0.0074 Uiso
O15 O 0.7931(7) 0.4164(4) 0.4993(4) 0.0074 Uiso
O17 O 0.5047(7) 0.6398(4) 0.3823(4) 0.0074 Uiso
O19 O 0.5036(7) 0.6290(4) 0.6261(4) 0.0074 Uiso
H1 H 0.211729 0.521978 0.204982 . .
H2 H 0.420618 0.111982 0.687222 . .
H4 H 0.118845 0.274326 0.89321 . .
H5 H 0.26838 0.575655 0.76954 . .
H6 H 0.419185 0.445037 0.870435 . .
H7 H 0.103104 0.697194 0.933495 . .
H9 H 0.570688 0.123421 0.221457 . .
H10 H 0.31471 0.121731 0.217125 . .
H11 H 0.172117 0.033947 0.397571 . .
H12 H 0.229157 0.155278 0.493677 . .
H26 H 0.593261 0.163883 0.493737 . .
H27 H 0.778348 0.050929 0.396098 . .
C6 C 0.3536(11) 0.9399(6) 0.5477(7) 0.0074 Uiso
P4 P 0.6717(4) 0.6600(2) 0.69250(18) 0.0074 Uiso
O11 O 0.8518(7) 0.6423(4) 0.6113(4) 0.0074 Uiso
O13 O 0.7246(7) 0.5810(4) 0.8101(3) 0.0074 Uiso
C10 C 0.5709(11) 0.8555(6) 0.7282(5) 0.0074 Uiso
N4 N 0.5250(10) 0.9558(5) 0.6236(4) 0.0074 Uiso
C11 C 0.7099(9) 0.9486(7) 0.5472(7) 0.0074 Uiso
Al4_2 Al 1.000 0.500 0.500 0.0074 Uiso
H15 H 0.68529 0.878269 0.782875 . .
H16 H 0.429312 0.876579 0.778543 . .
H17 H 0.406739 0.836117 0.506263 . .
H18 H 0.221652 0.949071 0.603902 . .
H23 H 0.770843 0.844722 0.506323 . .
H24 H 0.827883 0.966053 0.602429 . .
H28 H 0.822654 0.614751 0.854488 . .
P3 P 0.6707(4) 0.6660(2) 0.30742(18) 0.0074 Uiso
O8 O 0.8692(7) 0.6339(4) 0.3764(4) 0.0074 Uiso
O10 O 0.6014(7) 0.8156(4) 0.2499(3) 0.0074 Uiso
C7 C 0.7143(10) 0.5252(6) 0.1878(5) 0.0074 Uiso
N3 N 0.9044(8) 0.5082(6) 0.1134(5) 0.0074 Uiso
C8 C 0.8957(10) 0.6392(6) 0.0458(6) 0.0074 Uiso
C9 C 0.9062(9) 0.3969(6) 0.0221(6) 0.0074 Uiso
H14 H 0.881155 0.725674 0.10679 . .
H19 H 0.580815 0.554963 0.129565 . .
H20 H 0.73162 0.424345 0.23046 . .
H21 H 0.896896 0.302806 0.0665048 . .
H25 H 0.709302 0.822248 0.194408 . .
H13 H 0.765708 0.66961 0.984968 . .
H22 H 0.776417 0.438685 0.961911 . .
H25_2 H 0.290698 0.177752 0.805592 . .
H28_2 H 0.177346 0.385249 0.145512 . .
H1_2 H 0.788271 0.478022 0.795018 . .
H2_2 H 0.579382 0.888018 0.312778 . .
loop_
_geom_bond_atom_site_label_1
_geom_bond_atom_site_label_2
_geom_bond_site_symmetry_1
_geom_bond_site_symmetry_2
Al4 O1 1_555 1_555
Al2 O1 1_555 1_555
P1 O2 1_555 1_555
O2 Al4 1_555 1_555
O3 Al2 1_555 1_555
O4 P1 1_555 1_555
C1 P1 1_555 1_555
N1 C1 1_555 1_555
C2 N1 1_555 1_555
C3 N1 1_555 1_555
P2 O5 1_555 1_555
O5 Al4 1_555 1_555
O6 Al2 1_555 1_555
O7 P2 1_555 1_555
C4 P2 1_555 1_555
N2 C4 1_555 1_555
C5 N2 1_555 1_555
C12 N2 1_555 1_555
O15 Al2 1_555 1_555
O17 Al2 1_555 1_555
O19 Al2 1_555 1_555
P1 O3 1_555 1_555
P2 O6 1_555 1_555
O7 H1 1_555 1_555
O4 H2 1_555 1_555
C2 H4 1_555 1_555
C1 H5 1_555 1_555
C1 H6 1_555 1_555
C3 H7 1_555 1_555
C4 H9 1_555 1_555
C4 H10 1_555 1_555
C5 H11 1_555 1_555
C5 H12 1_555 1_555
C12 H26 1_555 1_555
C12 H27 1_555 1_555
P4 O11 1_555 1_555
O11 Al4_2 1_555 1_555
O19 P4 1_555 1_555
O13 P4 1_555 1_555
C10 P4 1_555 1_555
N4 C6 1_555 1_555
C11 N4 1_555 1_555
C10 N4 1_555 1_555
C10 H15 1_555 1_555
C10 H16 1_555 1_555
C6 H17 1_555 1_555
C6 H18 1_555 1_555
C11 H23 1_555 1_555
C11 H24 1_555 1_555
O13 H28 1_555 1_555
P3 O8 1_555 1_555
O8 Al4_2 1_555 1_555
O17 P3 1_555 1_555
O10 P3 1_555 1_555
C7 P3 1_555 1_555
N3 C7 1_555 1_555
N3 C8 1_555 1_555
N3 C9 1_555 1_555
C8 H14 1_555 1_555
C7 H19 1_555 1_555
C7 H20 1_555 1_555
C9 H21 1_555 1_555
O10 H25 1_555 1_555
O15 Al4_2 1_555 1_555
O4 H25_2 1_555 1_555
O7 H28_2 1_555 1_555
O13 H1_2 1_555 1_555
O10 H2_2 1_555 1_555

#END
