
###############################################################################
#
# This file contains modified crystal structure data generated from the
# MOF subset of the Cambridge Structural Database (CSD) v543 
# hosted by the Cambridge Crystallographic Data Centre (CCDC).
#
# This work is licensed under the Creative Commons
# Attribution-NonCommercial-ShareAlike 4.0 International License.
# To view a copy of this license, visit
# http://creativecommons.org/licenses/by-nc-sa/4.0/
# or send a letter to
# Creative Commons, PO Box 1866, Mountain View, CA 94042, USA.
#
# CIF created using the CSD Python API on 29 September 2022
# The structure has been converted into the P1 space group
# The structure has a 3D framework
# The original CSD entry IVITOY is in the monoclinic crystal system
# The framework has been calculated to contain at least 10.0% void space
# The void calculation uses a probe of radius 1.32A, grid spacing 0.4
#
###############################################################################

data_IVITOY
_chemical_formula_moiety         '(C96 H68 N12 O16 Zn4)n'
_symmetry_cell_setting           triclinic
_symmetry_space_group_name_H-M   'P 1'
_symmetry_Int_Tables_number      1
_space_group_name_Hall           'P 1'
loop_
_symmetry_equiv_pos_site_id
_symmetry_equiv_pos_as_xyz
1 x,y,z
_cell_length_a                   23.8794(15)
_cell_length_b                   6.2664(3)
_cell_length_c                   19.9154(9)
_cell_angle_alpha                90
_cell_angle_beta                 121.788(6)
_cell_angle_gamma                90
_cell_volume                     2533.09
loop_
_atom_site_label
_atom_site_type_symbol
_atom_site_fract_x
_atom_site_fract_y
_atom_site_fract_z
C1 C 0.1629(7) 0.1255(15) 0.8052(8)
O2 O 0.1713(4) 0.1742(12) 0.6921(5)
O4 O 0.1319(5) 0.4500(15) 0.7275(5)
C3 C 0.1552(6) 0.258(2) 0.7364(7)
C8 C 0.1560(7) 0.085(2) 0.9179(8)
H3 H 0.1466 0.1451 0.9537
C19 C 0.1449(6) 0.2057(19) 0.8545(7)
H10 H 0.1255 0.3397 0.8454
Zn2 Zn 0.16892(6) 0.37305(9) 0.61411(7)
O1 O 0.1691(4) 0.1787(13) 0.5387(5)
C2 C 0.1810(6) 0.1256(15) 0.4314(8)
O3 O 0.2077(5) 0.4411(15) 0.5026(5)
N1 N 0.2447(5) 0.5797(15) 0.6830(6)
C4 C 0.1894(6) 0.266(2) 0.4949(7)
C6 C 0.2796(5) 0.5598(19) 0.7591(6)
H2 H 0.2755 0.4378 0.7827
C7 C 0.3332(6) 0.910(2) 0.7699(8)
C10 C 0.1851(5) 0.0796(19) 0.3118(7)
H5 H 0.1950 0.1325 0.2756
C16 C 0.3250(6) 0.7270(19) 0.8075(7)
H7 H 0.3485 0.7162 0.8623
C18 C 0.1925(7) 0.206(2) 0.3720(8)
H9 H 0.2054 0.3469 0.3746
C21 C 0.2549(7) 0.759(2) 0.6507(7)
H12 H 0.2299 0.7717 0.5960
C24 C 0.2956(5) 0.9090(19) 0.6891(6)
N4 N 0.0943(5) 0.5810(16) 0.5506(5)
C5 C 0.0548(6) 0.577(2) 0.4673(7)
H1 H 0.0580 0.4570 0.4420
C11 C 0.0088(5) 0.9049(18) 0.4554(6)
C12 C 0.0149(6) 0.725(2) 0.4232(7)
C17 C 0.0463(6) 0.927(2) 0.5388(8)
C20 C 0.0884(6) 0.7519(18) 0.5845(7)
H11 H 0.1119 0.7601 0.6394
H17 H 0.0280 0.9767 0.3359
Zn1 Zn 0.16892(6) 0.62695(9) 0.11411(7)
O1_2 O 0.1691(4) 0.8213(13) 0.0387(5)
O3_2 O 0.2077(5) 0.5589(15) 0.0026(5)
N1_2 N 0.2447(5) 0.4203(15) 0.1830(6)
C6_2 C 0.2796(5) 0.4402(19) 0.2591(6)
H2_2 H 0.2755 0.5622 0.2827
C7_2 C 0.3332(6) 0.090(2) 0.2699(8)
C16_2 C 0.3250(6) 0.2730(19) 0.3075(7)
H7_2 H 0.3485 0.2838 0.3623
C21_2 C 0.2549(7) 0.241(2) 0.1507(7)
H12_2 H 0.2299 0.2283 0.0960
C24_2 C 0.2956(5) 0.0910(19) 0.1891(6)
O5 O 0.1713(4) 0.8258(12) 0.1921(5)
N4_2 N 0.0943(5) 0.4190(16) 0.0506(5)
C1_2 C 0.1629(7) 0.8745(15) 0.3052(8)
O4_2 O 0.1319(5) 0.5500(15) 0.2275(5)
C3_2 C 0.1552(6) 0.742(2) 0.2364(7)
C8_2 C 0.1560(7) 0.915(2) 0.4179(8)
H3_2 H 0.1466 0.8549 0.4537
C19_2 C 0.1449(6) 0.7943(19) 0.3545(7)
H10_2 H 0.1255 0.6603 0.3454
C17_2 C 0.0463(6) 0.073(2) 0.0388(8)
C20_2 C 0.0884(6) 0.2481(18) 0.0845(7)
H11_2 H 0.1119 0.2399 0.1394
C2_2 C 0.1810(6) 0.8744(15) 0.9314(8)
C4_2 C 0.1894(6) 0.734(2) 0.9949(7)
C10_2 C 0.1851(5) 0.9204(19) 0.8118(7)
H5_2 H 0.1950 0.8675 0.7756
C18_2 C 0.1925(7) 0.794(2) 0.8720(8)
H9_2 H 0.2054 0.6531 0.8746
N2 N 0.5943(5) 0.0810(16) 0.5506(5)
C5_2 C 0.5548(6) 0.077(2) 0.4673(7)
C9 C 0.3804(7) 0.8551(17) 0.3872(9)
H4 H 0.3544 0.9203 0.4034
C11_2 C 0.5088(5) 0.4049(18) 0.4554(6)
C12_2 C 0.5149(6) 0.225(2) 0.4232(7)
H6 H 0.4902 0.2074 0.3687
C13 C 0.4626(6) 0.588(2) 0.4107(8)
C14 C 0.3762(6) 0.918(2) 0.3202(7)
C15 C 0.4554(7) 0.6516(19) 0.3363(7)
C17_3 C 0.5463(6) 0.427(2) 0.5388(8)
H8 H 0.5438 0.5500 0.5631
C20_3 C 0.5884(6) 0.2519(18) 0.5845(7)
H11_3 H 0.6119 0.2601 0.6394
C22 C 0.4136(6) 0.811(2) 0.2945(8)
H13 H 0.4093 0.8520 0.2471
C23 C 0.4252(6) 0.686(2) 0.4340(7)
H14 H 0.4285 0.6449 0.4808
H15 H 0.2999 0.9792 0.1614
N3 N 0.5005(6) 0.5782(17) 0.3108(7)
H16 H 0.4991 0.6371 0.2710
H17_2 H 0.5280 0.4767 0.3359
N1_3 N 0.7447(5) 0.0797(15) 0.6830(6)
C6_3 C 0.7796(5) 0.0598(19) 0.7591(6)
C7_3 C 0.8332(6) 0.410(2) 0.7699(8)
C9_2 C 0.8804(7) 0.6449(17) 0.8872(9)
H4_2 H 0.8544 0.5797 0.9034
C13_2 C 0.9626(6) 0.912(2) 0.9107(8)
C14_2 C 0.8762(6) 0.582(2) 0.8202(7)
C15_2 C 0.9554(7) 0.8484(19) 0.8363(7)
C16_3 C 0.8250(6) 0.2270(19) 0.8075(7)
H7_3 H 0.8485 0.2162 0.8623
C21_3 C 0.7549(7) 0.259(2) 0.6507(7)
H12_3 H 0.7299 0.2717 0.5960
C22_2 C 0.9136(6) 0.689(2) 0.7945(8)
H13_2 H 0.9093 0.6480 0.7471
C23_2 C 0.9252(6) 0.814(2) 0.9340(7)
H14_2 H 0.9285 0.8551 0.9808
C24_3 C 0.7956(5) 0.4090(19) 0.6891(6)
H15_2 H 0.7999 0.5208 0.6614
H16_2 H 0.9991 0.8629 0.7710
H1_2 H 0.5580 0.9570 0.4420
Zn3 Zn 0.66892(6) 0.87305(9) 0.61411(7)
Zn3_2 Zn 0.66892(6) 0.12695(9) 0.11411(7)
O1_3 O 0.6691(4) 0.3213(13) 0.0387(5)
O3_3 O 0.7077(5) 0.0589(15) 0.0026(5)
H2_3 H 0.7755 0.0622 0.2827
O5_2 O 0.6713(4) 0.3258(12) 0.1921(5)
C1_3 C 0.6629(7) 0.6255(15) 0.8052(8)
O2_2 O 0.6713(4) 0.6742(12) 0.6921(5)
C2_3 C 0.6810(6) 0.3744(15) 0.9314(8)
O4_3 O 0.6319(5) 0.9500(15) 0.7275(5)
C3_3 C 0.6552(6) 0.758(2) 0.7364(7)
C4_3 C 0.6894(6) 0.234(2) 0.9949(7)
C8_3 C 0.6560(7) 0.585(2) 0.9179(8)
H3_3 H 0.6466 0.6451 0.9537
C10_3 C 0.6851(5) 0.4204(19) 0.8118(7)
H5_3 H 0.6950 0.3675 0.7756
C18_3 C 0.6925(7) 0.294(2) 0.8720(8)
H9_3 H 0.7054 0.1531 0.8746
C19_3 C 0.6449(6) 0.7057(19) 0.8545(7)
H10_3 H 0.6255 0.8397 0.8454
O1_4 O 0.6691(4) 0.6787(13) 0.5387(5)
C1_4 C 0.6629(7) 0.3745(15) 0.3052(8)
C2_4 C 0.6810(6) 0.6256(15) 0.4314(8)
O3_4 O 0.7077(5) 0.9411(15) 0.5026(5)
O4_4 O 0.6319(5) 0.0500(15) 0.2275(5)
C3_4 C 0.6552(6) 0.242(2) 0.2364(7)
C4_4 C 0.6894(6) 0.766(2) 0.4949(7)
H2_4 H 0.7755 0.9378 0.7827
C8_4 C 0.6560(7) 0.415(2) 0.4179(8)
H3_4 H 0.6466 0.3549 0.4537
C10_4 C 0.6851(5) 0.5796(19) 0.3118(7)
H5_4 H 0.6950 0.6325 0.2756
C18_4 C 0.6925(7) 0.706(2) 0.3720(8)
H9_4 H 0.7054 0.8469 0.3746
C19_4 C 0.6449(6) 0.2943(19) 0.3545(7)
H10_4 H 0.6255 0.1603 0.3454
H1_3 H 0.5580 0.0430 0.9420
N2_2 N 0.5943(5) 0.9190(16) 0.0506(5)
C17_4 C 0.5463(6) 0.573(2) 0.0388(8)
H8_2 H 0.5438 0.4500 0.0631
C20_4 C 0.5884(6) 0.7481(18) 0.0845(7)
H11_4 H 0.6119 0.7399 0.1394
N1_4 N 0.7447(5) 0.9203(15) 0.1830(6)
C6_4 C 0.7796(5) 0.9402(19) 0.2591(6)
C7_4 C 0.8332(6) 0.590(2) 0.2699(8)
C9_3 C 0.8804(7) 0.3551(17) 0.3872(9)
H4_3 H 0.8544 0.4203 0.4034
C13_3 C 0.9626(6) 0.088(2) 0.4107(8)
C14_3 C 0.8762(6) 0.418(2) 0.3202(7)
C15_3 C 0.9554(7) 0.1516(19) 0.3363(7)
C16_4 C 0.8250(6) 0.7730(19) 0.3075(7)
H7_4 H 0.8485 0.7838 0.3623
C21_4 C 0.7549(7) 0.741(2) 0.1507(7)
H12_4 H 0.7299 0.7283 0.0960
C22_3 C 0.9136(6) 0.311(2) 0.2945(8)
H13_3 H 0.9093 0.3520 0.2471
C23_3 C 0.9252(6) 0.186(2) 0.4340(7)
H14_3 H 0.9285 0.1449 0.4808
C24_4 C 0.7956(5) 0.5910(19) 0.1891(6)
H15_3 H 0.7999 0.4792 0.1614
H16_3 H 0.9991 0.1371 0.2710
C5_3 C 0.5548(6) 0.923(2) 0.9673(7)
C9_4 C 0.3804(7) 0.1449(17) 0.8872(9)
H4_4 H 0.3544 0.0797 0.9034
C11_3 C 0.5088(5) 0.5951(18) 0.9554(6)
C12_3 C 0.5149(6) 0.775(2) 0.9232(7)
H6_2 H 0.4902 0.7926 0.8687
C13_4 C 0.4626(6) 0.412(2) 0.9107(8)
C14_4 C 0.3762(6) 0.082(2) 0.8202(7)
C15_4 C 0.4554(7) 0.3484(19) 0.8363(7)
C22_4 C 0.4136(6) 0.189(2) 0.7945(8)
H13_4 H 0.4093 0.1480 0.7471
C23_4 C 0.4252(6) 0.314(2) 0.9340(7)
H14_4 H 0.4285 0.3551 0.9808
H15_4 H 0.2999 0.0208 0.6614
N3_2 N 0.5005(6) 0.4218(17) 0.8108(7)
H16_4 H 0.4991 0.3629 0.7710
H17_3 H 0.5280 0.5233 0.8359
H8_3 H 0.0438 0.0500 0.5631
N3_3 N 0.0005(6) 0.0782(17) 0.3108(7)
H6_3 H 0.9902 0.7074 0.3687
C5_4 C 0.0548(6) 0.423(2) 0.9673(7)
H1_4 H 0.0580 0.5430 0.9420
C11_4 C 0.0088(5) 0.0951(18) 0.9554(6)
C12_4 C 0.0149(6) 0.275(2) 0.9232(7)
H17_4 H 0.0280 0.0233 0.8359
H8_4 H 0.0438 0.9500 0.0631
N3_4 N 0.0005(6) 0.9218(17) 0.8108(7)
H6_4 H 0.9902 0.2926 0.8687
loop_
_geom_bond_atom_site_label_1
_geom_bond_atom_site_label_2
_geom_bond_site_symmetry_1
_geom_bond_site_symmetry_2
C1 C3 1_555 1_555
O2 C3 1_555 1_555
O4 C3 1_555 1_555
H3 C8 1_555 1_555
C19 C1 1_555 1_555
H10 C19 1_555 1_555
Zn2 O2 1_555 1_555
C8 C19 1_555 1_555
Zn2 O1 1_555 1_555
O1 C4 1_555 1_555
C2 C4 1_555 1_555
O3 C4 1_555 1_555
N1 Zn2 1_555 1_555
C6 N1 1_555 1_555
H2 C6 1_555 1_555
H5 C10 1_555 1_555
C16 C6 1_555 1_555
H7 C16 1_555 1_555
C18 C2 1_555 1_555
H9 C18 1_555 1_555
C21 N1 1_555 1_555
H12 C21 1_555 1_555
C24 C7 1_555 1_555
N4 Zn2 1_555 1_555
C7 C16 1_555 1_555
C10 C18 1_555 1_555
C21 C24 1_555 1_555
N4 C5 1_555 1_555
C5 H1 1_555 1_555
C11 C12 1_555 1_555
C12 C5 1_555 1_555
C17 C11 1_555 1_555
C20 N4 1_555 1_555
H11 C20 1_555 1_555
C17 C20 1_555 1_555
Zn1 O1_2 1_555 1_555
N1_2 Zn1 1_555 1_555
C6_2 N1_2 1_555 1_555
H2_2 C6_2 1_555 1_555
C16_2 C6_2 1_555 1_555
H7_2 C16_2 1_555 1_555
C21_2 N1_2 1_555 1_555
H12_2 C21_2 1_555 1_555
C24_2 C7_2 1_555 1_555
O5 Zn1 1_555 1_555
N4_2 Zn1 1_555 1_555
C7_2 C16_2 1_555 1_555
C21_2 C24_2 1_555 1_555
C1_2 C3_2 1_555 1_555
O5 C3_2 1_555 1_555
O4_2 C3_2 1_555 1_555
H3_2 C8_2 1_555 1_555
C19_2 C1_2 1_555 1_555
H10_2 C19_2 1_555 1_555
C8_2 C19_2 1_555 1_555
C20_2 N4_2 1_555 1_555
H11_2 C20_2 1_555 1_555
C17_2 C20_2 1_555 1_555
C2_2 C4_2 1_555 1_555
H5_2 C10_2 1_555 1_555
C18_2 C2_2 1_555 1_555
H9_2 C18_2 1_555 1_555
C10_2 C18_2 1_555 1_555
N2 C5_2 1_555 1_555
C9 H4 1_555 1_555
C11_2 C12_2 1_555 1_555
C12_2 C5_2 1_555 1_555
H6 C12_2 1_555 1_555
C13 C11_2 1_555 1_555
C14 C9 1_555 1_555
C15 C13 1_555 1_555
C17_3 C11_2 1_555 1_555
H8 C17_3 1_555 1_555
C20_3 N2 1_555 1_555
H11_3 C20_3 1_555 1_555
C22 C14 1_555 1_555
H13 C22 1_555 1_555
C23 C9 1_555 1_555
H14 C23 1_555 1_555
N3 C15 1_555 1_555
H16 N3 1_555 1_555
H17_2 N3 1_555 1_555
C13 C23 1_555 1_555
C15 C22 1_555 1_555
C17_3 C20_3 1_555 1_555
C6_3 N1_3 1_555 1_555
C7_3 C14_2 1_555 1_555
C9_2 H4_2 1_555 1_555
C14_2 C9_2 1_555 1_555
C15_2 C13_2 1_555 1_555
C16_3 C6_3 1_555 1_555
H7_3 C16_3 1_555 1_555
C21_3 N1_3 1_555 1_555
H12_3 C21_3 1_555 1_555
C22_2 C14_2 1_555 1_555
H13_2 C22_2 1_555 1_555
C23_2 C9_2 1_555 1_555
H14_2 C23_2 1_555 1_555
C24_3 C7_3 1_555 1_555
H15_2 C24_3 1_555 1_555
C7_3 C16_3 1_555 1_555
C13_2 C23_2 1_555 1_555
C15_2 C22_2 1_555 1_555
C21_3 C24_3 1_555 1_555
Zn3_2 O1_3 1_555 1_555
O5_2 Zn3_2 1_555 1_555
C1_3 C3_3 1_555 1_555
O2_2 C3_3 1_555 1_555
C2_3 C4_3 1_555 1_555
O4_3 C3_3 1_555 1_555
C8_3 C2_3 1_555 1_555
H3_3 C8_3 1_555 1_555
C10_3 C1_3 1_555 1_555
H5_3 C10_3 1_555 1_555
C18_3 C2_3 1_555 1_555
H9_3 C18_3 1_555 1_555
C19_3 C1_3 1_555 1_555
H10_3 C19_3 1_555 1_555
Zn3 O2_2 1_555 1_555
C8_3 C19_3 1_555 1_555
C10_3 C18_3 1_555 1_555
Zn3 O1_4 1_555 1_555
O1_4 C4_4 1_555 1_555
C1_4 C3_4 1_555 1_555
O5_2 C3_4 1_555 1_555
C2_4 C4_4 1_555 1_555
O3_4 C4_4 1_555 1_555
O4_4 C3_4 1_555 1_555
C8_4 C2_4 1_555 1_555
H3_4 C8_4 1_555 1_555
C10_4 C1_4 1_555 1_555
H5_4 C10_4 1_555 1_555
C18_4 C2_4 1_555 1_555
H9_4 C18_4 1_555 1_555
C19_4 C1_4 1_555 1_555
H10_4 C19_4 1_555 1_555
C8_4 C19_4 1_555 1_555
C10_4 C18_4 1_555 1_555
H8_2 C17_4 1_555 1_555
C20_4 N2_2 1_555 1_555
H11_4 C20_4 1_555 1_555
C17_4 C20_4 1_555 1_555
C6_4 N1_4 1_555 1_555
C7_4 C14_3 1_555 1_555
C9_3 H4_3 1_555 1_555
C14_3 C9_3 1_555 1_555
C15_3 C13_3 1_555 1_555
C16_4 C6_4 1_555 1_555
H7_4 C16_4 1_555 1_555
C21_4 N1_4 1_555 1_555
H12_4 C21_4 1_555 1_555
C22_3 C14_3 1_555 1_555
H13_3 C22_3 1_555 1_555
C23_3 C9_3 1_555 1_555
H14_3 C23_3 1_555 1_555
C24_4 C7_4 1_555 1_555
H15_3 C24_4 1_555 1_555
C7_4 C16_4 1_555 1_555
C13_3 C23_3 1_555 1_555
C15_3 C22_3 1_555 1_555
C21_4 C24_4 1_555 1_555
C9_4 H4_4 1_555 1_555
C11_3 C12_3 1_555 1_555
C12_3 C5_3 1_555 1_555
H6_2 C12_3 1_555 1_555
C13_4 C11_3 1_555 1_555
C14_4 C9_4 1_555 1_555
C15_4 C13_4 1_555 1_555
C22_4 C14_4 1_555 1_555
H13_4 C22_4 1_555 1_555
C23_4 C9_4 1_555 1_555
H14_4 C23_4 1_555 1_555
N3_2 C15_4 1_555 1_555
H16_4 N3_2 1_555 1_555
H17_3 N3_2 1_555 1_555
C13_4 C23_4 1_555 1_555
C15_4 C22_4 1_555 1_555
C5_4 H1_4 1_555 1_555
C11_4 C12_4 1_555 1_555
C12_4 C5_4 1_555 1_555

#END
