
###############################################################################
#
# This file contains modified crystal structure data generated from the
# MOF subset of the Cambridge Structural Database (CSD) v543 
# hosted by the Cambridge Crystallographic Data Centre (CCDC).
#
# This work is licensed under the Creative Commons
# Attribution-NonCommercial-ShareAlike 4.0 International License.
# To view a copy of this license, visit
# http://creativecommons.org/licenses/by-nc-sa/4.0/
# or send a letter to
# Creative Commons, PO Box 1866, Mountain View, CA 94042, USA.
#
# CIF created using the CSD Python API on 29 September 2022
# The structure has been converted into the P1 space group
# The structure has a 3D framework
# The original CSD entry IVIWES is in the monoclinic crystal system
# The framework has been calculated to contain at least 10.0% void space
# The void calculation uses a probe of radius 1.32A, grid spacing 0.4
#
###############################################################################

data_IVIWES
_chemical_formula_moiety         '(C128 H112 Cu12 O44)n'
_symmetry_cell_setting           triclinic
_symmetry_space_group_name_H-M   'P 1'
_symmetry_Int_Tables_number      1
_space_group_name_Hall           'P 1'
loop_
_symmetry_equiv_pos_site_id
_symmetry_equiv_pos_as_xyz
1 x,y,z
_cell_length_a                   14.7290(11)
_cell_length_b                   26.9239(13)
_cell_length_c                   10.5870(8)
_cell_angle_alpha                90
_cell_angle_beta                 108.457(8)
_cell_angle_gamma                90
_cell_volume                     3982.44
loop_
_atom_site_label
_atom_site_type_symbol
_atom_site_fract_x
_atom_site_fract_y
_atom_site_fract_z
O10 O 0.21041(16) 0.72853(11) 0.3408(2)
O11 O 0.14176(17) 0.69095(10) 0.1458(3)
C11 C 0.0297(3) 0.74285(19) 0.3720(4)
H12 H 0.080718 0.761176 0.426179
C12 C 0.0427(2) 0.71266(14) 0.2746(3)
C16 C 0.1396(2) 0.71090(13) 0.2541(3)
Cu4 Cu 0.30784(3) 0.79245(2) 0.30330(5)
Cu8 Cu 0.24999(3) 0.69457(2) 0.08287(5)
Cu9 Cu 0.36598(3) 0.72128(2) 0.53248(5)
Cu2 Cu 0.24999(3) 0.80543(2) 0.58287(5)
O1 O 0.34879(16) 0.79409(9) 0.4990(2)
H1 H 0.396(2) 0.8090(17) 0.534(5)
O2 O 0.26866(15) 0.73016(9) 0.6196(2)
H2 H 0.2268(17) 0.7174(10) 0.569(3)
O5 O 0.34537(19) 0.65113(9) 0.5038(3)
O6 O 0.3740(3) 0.62039(13) 0.7077(4)
O7 O 0.3427(2) 0.85250(11) 0.7361(3)
H3 H 0.326365 0.847455 0.807347
H4 H 0.399729 0.865182 0.734331
O8 O 0.47877(16) 0.71804(9) 0.4785(2)
O9 O 0.43333(16) 0.76905(10) 0.3009(2)
C1 C 0.4938(2) 0.74153(12) 0.3841(3)
C2 C 0.5897(2) 0.73622(13) 0.3665(3)
C3 C 0.6181(2) 0.76886(16) 0.2841(4)
H5 H 0.578055 0.794447 0.240246
C4 C 0.7081(3) 0.76234(18) 0.2686(4)
H6 H 0.727891 0.784105 0.214302
C5 C 0.7685(2) 0.72431(15) 0.3321(4)
C6 C 0.7410(3) 0.69225(15) 0.4178(4)
C7 C 0.6510(3) 0.69863(14) 0.4329(4)
H7 H 0.631627 0.677293 0.488580
C8 C 0.8070(3) 0.6524(2) 0.4937(6)
H8 H 0.864059 0.667279 0.552311
H9 H 0.823592 0.630709 0.432382
H10 H 0.775679 0.633623 0.544969
C9 C 0.8641(2) 0.71863(16) 0.3108(4)
C10 C 0.9404(3) 0.7461(2) 0.3898(4)
H11 H 0.931846 0.766843 0.455350
C13 C 0.9663(2) 0.68577(14) 0.1945(4)
H13 H 0.975395 0.665525 0.128419
C14 C 0.8758(3) 0.68804(16) 0.2098(4)
C15 C 0.7936(3) 0.6596(2) 0.1182(6)
H14 H 0.816270 0.639043 0.060471
H15 H 0.746629 0.682448 0.065791
H16 H 0.765213 0.639132 0.169841
C17 C 0.3375(3) 0.61754(14) 0.5843(4)
C18 C 0.2750(3) 0.57446(14) 0.5220(4)
C19 C 0.2817(3) 0.52920(17) 0.5858(5)
H17 H 0.328158 0.524514 0.668063
C20 C 0.2200(3) 0.49083(17) 0.5287(5)
H18 H 0.226282 0.460487 0.572584
C21 C 0.1489(3) 0.49667(15) 0.4070(4)
C22 C 0.1395(3) 0.54295(15) 0.3429(4)
C23 C 0.2036(3) 0.58041(14) 0.4016(4)
H19 H 0.198370 0.610792 0.358018
C24 C 0.0584(4) 0.5542(2) 0.2176(5)
H20 H 0.039302 0.588272 0.219034
H21 H 0.005210 0.532900 0.212580
H22 H 0.079231 0.548763 0.141467
C25 C 0.0775(3) 0.45620(14) 0.3502(4)
C26 C 0.0149(3) 0.44229(15) 0.4189(4)
H23 H 0.022898 0.455678 0.502728
C30 C 0.0697(3) 0.43322(15) 0.2279(4)
C31 C 0.1433(4) 0.4414(2) 0.1571(5)
H26 H 0.165266 0.475194 0.169356
H27 H 0.114751 0.434844 0.063723
H28 H 0.196511 0.419413 0.193247
Cu6 Cu 0.30784(3) 0.70755(2) 0.80330(5)
Cu10 Cu 0.36598(3) 0.77872(2) 0.03248(5)
O12 O 0.26866(15) 0.76984(9) 0.1196(2)
O13 O 0.19547(19) 0.83457(11) 0.2564(3)
O14 O 0.18369(19) 0.85778(11) 0.4542(2)
O15 O 0.43333(16) 0.73095(10) 0.8009(2)
O17 O 0.14176(17) 0.80905(10) 0.6458(3)
C27 C 0.0588(3) 0.90897(15) 0.1349(4)
H24 H 0.098638 0.899264 0.086555
C28 C 0.0727(3) 0.89017(14) 0.2619(4)
C29 C 0.0067(3) 0.90152(15) 0.3271(4)
H25 H 0.014077 0.887396 0.409888
C32 C 0.1567(3) 0.85829(13) 0.3294(4)
O3 O 0.19547(19) 0.66543(11) 0.7564(3)
O4 O 0.18369(19) 0.64222(11) 0.9542(2)
C27_2 C 0.0588(3) 0.59103(15) 0.6349(4)
H24_2 H 0.098638 0.600736 0.586555
C28_2 C 0.0727(3) 0.60983(14) 0.7619(4)
C29_2 C 0.0067(3) 0.59848(15) 0.8271(4)
H25_2 H 0.014077 0.612604 0.909888
C32_2 C 0.1567(3) 0.64171(13) 0.8294(4)
O10_2 O 0.21041(16) 0.77147(11) 0.8408(2)
C11_2 C 0.0297(3) 0.75715(19) 0.8720(4)
H12_2 H 0.080718 0.738824 0.926179
C12_2 C 0.0427(2) 0.78734(14) 0.7746(3)
C16_2 C 0.1396(2) 0.78910(13) 0.7541(3)
H1_2 H 0.396(2) 0.6910(17) 0.034(5)
H2_2 H 0.2268(17) 0.7826(10) 0.069(3)
O5_2 O 0.34537(19) 0.84887(9) 0.0038(3)
O6_2 O 0.3740(3) 0.87961(13) 0.2077(4)
O7_2 O 0.3427(2) 0.64750(11) 0.2361(3)
H3_2 H 0.326365 0.652545 0.307347
H4_2 H 0.399729 0.634818 0.234331
H8_2 H 0.864059 0.832721 0.052311
H10_2 H 0.775679 0.866377 0.044969
C17_2 C 0.3375(3) 0.88246(14) 0.0843(4)
C18_2 C 0.2750(3) 0.92554(14) 0.0220(4)
C19_2 C 0.2817(3) 0.97080(17) 0.0858(5)
H17_2 H 0.328158 0.975486 0.168063
O1_2 O 0.34879(16) 0.70591(9) 0.9990(2)
O8_2 O 0.47877(16) 0.78196(9) 0.9785(2)
C1_2 C 0.4938(2) 0.75847(12) 0.8841(3)
C2_2 C 0.5897(2) 0.76378(13) 0.8665(3)
C3_2 C 0.6181(2) 0.73114(16) 0.7841(4)
H5_2 H 0.578055 0.705553 0.740246
C4_2 C 0.7081(3) 0.73766(18) 0.7686(4)
H6_2 H 0.727891 0.715895 0.714302
C5_2 C 0.7685(2) 0.77569(15) 0.8321(4)
C6_2 C 0.7410(3) 0.80775(15) 0.9178(4)
C7_2 C 0.6510(3) 0.80137(14) 0.9329(4)
H7_2 H 0.631627 0.822707 0.988580
C8_2 C 0.8070(3) 0.8476(2) 0.9937(6)
H9_2 H 0.823592 0.869291 0.932382
C9_2 C 0.8641(2) 0.78137(16) 0.8108(4)
C10_2 C 0.9404(3) 0.7539(2) 0.8898(4)
H11_2 H 0.931846 0.733157 0.955350
C13_2 C 0.9663(2) 0.81423(14) 0.6945(4)
H13_2 H 0.975395 0.834475 0.628419
C14_2 C 0.8758(3) 0.81196(16) 0.7098(4)
C15_2 C 0.7936(3) 0.8404(2) 0.6182(6)
H14_2 H 0.816270 0.860957 0.560471
H15_2 H 0.746629 0.817552 0.565791
H16_2 H 0.765213 0.860868 0.669841
C22_2 C 0.1395(3) 0.95705(15) 0.8429(4)
C23_2 C 0.2036(3) 0.91959(14) 0.9016(4)
H19_2 H 0.198370 0.889208 0.858018
C24_2 C 0.0584(4) 0.9458(2) 0.7176(5)
H20_2 H 0.039302 0.911728 0.719034
H21_2 H 0.005210 0.967100 0.712580
H22_2 H 0.079231 0.951237 0.641467
O3_2 O 0.80453(19) 0.33457(11) 0.2436(3)
O4_2 O 0.81631(19) 0.35778(11) 0.0458(2)
C27_3 C 0.9412(3) 0.40897(15) 0.3651(4)
H24_3 H 0.901362 0.399264 0.413445
C28_3 C 0.9273(3) 0.39017(14) 0.2381(4)
C29_3 C 0.9933(3) 0.40152(15) 0.1729(4)
H25_3 H 0.985923 0.387396 0.090112
C32_3 C 0.8433(3) 0.35829(13) 0.1706(4)
Cu5 Cu 0.69216(3) 0.29245(2) 0.19670(5)
Cu7 Cu 0.75001(3) 0.30543(2) 0.91713(5)
O1_3 O 0.65121(16) 0.29409(9) 0.0010(2)
O8_3 O 0.52123(16) 0.21804(9) 0.0215(2)
O9_2 O 0.56667(16) 0.26905(10) 0.1991(2)
C1_3 C 0.5062(2) 0.24153(12) 0.1159(3)
C2_3 C 0.4103(2) 0.23622(13) 0.1335(3)
C3_3 C 0.3819(2) 0.26886(16) 0.2159(4)
H5_3 H 0.421945 0.294447 0.259754
C4_3 C 0.2919(3) 0.26234(18) 0.2314(4)
H6_3 H 0.272109 0.284105 0.285698
C5_3 C 0.2315(2) 0.22431(15) 0.1679(4)
C6_3 C 0.2590(3) 0.19225(15) 0.0822(4)
C7_3 C 0.3490(3) 0.19863(14) 0.0671(4)
H7_3 H 0.368373 0.177293 0.011420
C8_3 C 0.1930(3) 0.1524(2) 0.0063(6)
H9_3 H 0.176408 0.130709 0.067618
C9_3 C 0.1359(2) 0.21863(16) 0.1892(4)
C10_3 C 0.0596(3) 0.2461(2) 0.1102(4)
H11_3 H 0.068154 0.266843 0.044650
C13_3 C 0.0337(2) 0.18577(14) 0.3055(4)
H13_3 H 0.024605 0.165525 0.371581
C14_3 C 0.1242(3) 0.18804(16) 0.2902(4)
C15_3 C 0.2064(3) 0.1596(2) 0.3818(6)
H14_3 H 0.183730 0.139043 0.439529
H15_3 H 0.253371 0.182448 0.434209
H16_3 H 0.234787 0.139132 0.330159
C22_3 C 0.8605(3) 0.04295(15) 0.1571(4)
C23_3 C 0.7964(3) 0.08041(14) 0.0984(4)
H19_3 H 0.801630 0.110792 0.141982
C24_3 C 0.9416(4) 0.0542(2) 0.2824(5)
H20_3 H 0.960698 0.088272 0.280966
H21_3 H 0.994790 0.032900 0.287420
H22_3 H 0.920769 0.048763 0.358533
Cu10_2 Cu 0.63402(3) 0.27872(2) 0.46752(5)
O12_2 O 0.73134(15) 0.26984(9) 0.3804(2)
O16 O 0.78959(16) 0.22853(11) 0.1592(2)
Cu3 Cu 0.63402(3) 0.22128(2) 0.96752(5)
H1_3 H 0.604(2) 0.3090(17) 0.966(5)
O2_2 O 0.73134(15) 0.23016(9) 0.8804(2)
H2_3 H 0.7732(17) 0.2174(10) 0.931(3)
O5_3 O 0.65463(19) 0.15113(9) 0.9962(3)
O6_3 O 0.6260(3) 0.12039(13) 0.7923(4)
O7_3 O 0.6573(2) 0.35250(11) 0.7639(3)
H3_3 H 0.673635 0.347455 0.692653
H4_3 H 0.600271 0.365182 0.765669
H8_3 H 0.135941 0.167279 0.947689
H10_3 H 0.224321 0.133623 0.955031
C17_3 C 0.6625(3) 0.11754(14) 0.9157(4)
C18_3 C 0.7250(3) 0.07446(14) 0.9780(4)
C19_3 C 0.7183(3) 0.02920(17) 0.9142(5)
H17_3 H 0.671842 0.024514 0.831937
Cu6_2 Cu 0.69216(3) 0.20755(2) 0.69670(5)
O15_2 O 0.56667(16) 0.23095(10) 0.6991(2)
O17_2 O 0.85824(17) 0.30905(10) 0.8542(3)
O11_2 O 0.85824(17) 0.19095(10) 0.3542(3)
C11_3 C 0.9703(3) 0.24285(19) 0.1280(4)
H12_3 H 0.919282 0.261176 0.073821
C12_3 C 0.9573(2) 0.21266(14) 0.2254(3)
C16_3 C 0.8604(2) 0.21090(13) 0.2459(3)
Cu8_2 Cu 0.75001(3) 0.19457(2) 0.41713(5)
O1_4 O 0.65121(16) 0.20591(9) 0.5010(2)
H1_4 H 0.604(2) 0.1910(17) 0.466(5)
H2_4 H 0.7732(17) 0.2826(10) 0.431(3)
O5_4 O 0.65463(19) 0.34887(9) 0.4962(3)
O6_4 O 0.6260(3) 0.37961(13) 0.2923(4)
O7_4 O 0.6573(2) 0.14750(11) 0.2639(3)
H3_4 H 0.673635 0.152545 0.192653
H4_4 H 0.600271 0.134818 0.265669
O8_4 O 0.52123(16) 0.28196(9) 0.5215(2)
C1_4 C 0.5062(2) 0.25847(12) 0.6159(3)
C2_4 C 0.4103(2) 0.26378(13) 0.6335(3)
C3_4 C 0.3819(2) 0.23114(16) 0.7159(4)
H5_4 H 0.421945 0.205553 0.759754
C4_4 C 0.2919(3) 0.23766(18) 0.7314(4)
H6_4 H 0.272109 0.215895 0.785698
C5_4 C 0.2315(2) 0.27569(15) 0.6679(4)
C6_4 C 0.2590(3) 0.30775(15) 0.5822(4)
C7_4 C 0.3490(3) 0.30137(14) 0.5671(4)
H7_4 H 0.368373 0.322707 0.511420
C8_4 C 0.1930(3) 0.3476(2) 0.5063(6)
H8_4 H 0.135941 0.332721 0.447689
H9_4 H 0.176408 0.369291 0.567618
H10_4 H 0.224321 0.366377 0.455031
C9_4 C 0.1359(2) 0.28137(16) 0.6892(4)
C10_4 C 0.0596(3) 0.2539(2) 0.6102(4)
H11_4 H 0.068154 0.233157 0.544650
C13_4 C 0.0337(2) 0.31423(14) 0.8055(4)
H13_4 H 0.024605 0.334475 0.871581
C14_4 C 0.1242(3) 0.31196(16) 0.7902(4)
C15_4 C 0.2064(3) 0.3404(2) 0.8818(6)
H14_4 H 0.183730 0.360957 0.939529
H15_4 H 0.253371 0.317552 0.934209
H16_4 H 0.234787 0.360868 0.830159
C17_4 C 0.6625(3) 0.38246(14) 0.4157(4)
C18_4 C 0.7250(3) 0.42554(14) 0.4780(4)
C19_4 C 0.7183(3) 0.47080(17) 0.4142(5)
H17_4 H 0.671842 0.475486 0.331937
C20_2 C 0.7800(3) 0.50917(17) 0.4713(5)
H18_2 H 0.773718 0.539513 0.427416
C21_2 C 0.8511(3) 0.50333(15) 0.5930(4)
C22_4 C 0.8605(3) 0.45705(15) 0.6571(4)
C23_4 C 0.7964(3) 0.41959(14) 0.5984(4)
H19_4 H 0.801630 0.389208 0.641982
C24_4 C 0.9416(4) 0.4458(2) 0.7824(5)
H20_4 H 0.960698 0.411728 0.780966
H21_4 H 0.994790 0.467100 0.787420
H22_4 H 0.920769 0.451237 0.858533
C25_2 C 0.9225(3) 0.54380(14) 0.6498(4)
C26_2 C 0.9851(3) 0.55771(15) 0.5811(4)
H23_2 H 0.977102 0.544322 0.497272
C30_2 C 0.9303(3) 0.56678(15) 0.7721(4)
C31_2 C 0.8567(4) 0.5586(2) 0.8429(5)
H26_2 H 0.834734 0.524806 0.830644
H27_2 H 0.885249 0.565156 0.936277
H28_2 H 0.803489 0.580587 0.806753
O13_2 O 0.80453(19) 0.16543(11) 0.7436(3)
O14_2 O 0.81631(19) 0.14222(11) 0.5458(2)
O16_2 O 0.78959(16) 0.27147(11) 0.6592(2)
C11_4 C 0.9703(3) 0.25715(19) 0.6280(4)
H12_4 H 0.919282 0.238824 0.573821
C12_4 C 0.9573(2) 0.28734(14) 0.7254(3)
C16_4 C 0.8604(2) 0.28910(13) 0.7459(3)
C27_4 C 0.9412(3) 0.09103(15) 0.8651(4)
H24_4 H 0.901362 0.100736 0.913445
C28_4 C 0.9273(3) 0.10983(14) 0.7381(4)
C29_4 C 0.9933(3) 0.09848(15) 0.6729(4)
H25_4 H 0.985923 0.112604 0.590112
C32_4 C 0.8433(3) 0.14171(13) 0.6706(4)
C21_3 C 0.8511(3) 0.99667(15) 0.0930(4)
C25_3 C 0.9225(3) 0.95620(14) 0.1498(4)
C26_3 C 0.9851(3) 0.94229(15) 0.0811(4)
C30_3 C 0.9303(3) 0.93322(15) 0.2721(4)
C31_3 C 0.8567(4) 0.9414(2) 0.3429(5)
H26_3 H 0.834734 0.975194 0.330644
H27_3 H 0.885249 0.934844 0.436277
H28_3 H 0.803489 0.919413 0.306753
C20_3 C 0.7800(3) 0.99083(17) 0.9713(5)
H18_3 H 0.773718 0.960487 0.927416
H23_3 H 0.977102 0.955678 0.997272
C20_4 C 0.2200(3) 0.00917(17) 0.0287(5)
H18_4 H 0.226282 0.039513 0.072584
H23_4 H 0.022898 0.044322 0.002728
C21_4 C 0.1489(3) 0.00333(15) 0.9070(4)
C25_4 C 0.0775(3) 0.04380(14) 0.8502(4)
C26_4 C 0.0149(3) 0.05771(15) 0.9189(4)
C30_4 C 0.0697(3) 0.06678(15) 0.7279(4)
C31_4 C 0.1433(4) 0.0586(2) 0.6571(5)
H26_4 H 0.165266 0.024806 0.669356
H27_4 H 0.114751 0.065156 0.563723
H28_4 H 0.196511 0.080587 0.693247
loop_
_geom_bond_atom_site_label_1
_geom_bond_atom_site_label_2
_geom_bond_site_symmetry_1
_geom_bond_site_symmetry_2
O10 C16 1_555 1_555
O11 C16 1_555 1_555
H12 C11 1_555 1_555
C12 C11 1_555 1_555
C16 C12 1_555 1_555
Cu4 O10 1_555 1_555
Cu8 O11 1_555 1_555
Cu9 O10 1_555 1_555
Cu4 O1 1_555 1_555
Cu2 O1 1_555 1_555
Cu9 O1 1_555 1_555
O1 H1 1_555 1_555
O2 Cu2 1_555 1_555
H2 O2 1_555 1_555
O5 Cu9 1_555 1_555
O6 C17 1_555 1_555
O7 Cu2 1_555 1_555
H3 O7 1_555 1_555
H4 O7 1_555 1_555
O8 Cu9 1_555 1_555
O9 Cu4 1_555 1_555
C1 O8 1_555 1_555
C2 C1 1_555 1_555
C3 C2 1_555 1_555
H5 C3 1_555 1_555
C4 C3 1_555 1_555
H6 C4 1_555 1_555
C5 C4 1_555 1_555
C6 C5 1_555 1_555
C7 C2 1_555 1_555
H7 C7 1_555 1_555
C8 C6 1_555 1_555
H8 C8 1_555 1_555
H9 C8 1_555 1_555
H10 C8 1_555 1_555
C9 C5 1_555 1_555
C10 C9 1_555 1_555
H11 C10 1_555 1_555
H13 C13 1_555 1_555
C14 C9 1_555 1_555
C15 C14 1_555 1_555
H14 C15 1_555 1_555
H15 C15 1_555 1_555
H16 C15 1_555 1_555
C17 O5 1_555 1_555
C18 C17 1_555 1_555
C19 C18 1_555 1_555
H17 C19 1_555 1_555
C20 C19 1_555 1_555
H18 C20 1_555 1_555
C21 C20 1_555 1_555
C22 C21 1_555 1_555
C23 C18 1_555 1_555
H19 C23 1_555 1_555
C24 C22 1_555 1_555
H20 C24 1_555 1_555
H21 C24 1_555 1_555
H22 C24 1_555 1_555
C25 C21 1_555 1_555
C26 C25 1_555 1_555
H23 C26 1_555 1_555
C30 C25 1_555 1_555
C31 C30 1_555 1_555
H26 C31 1_555 1_555
H27 C31 1_555 1_555
H28 C31 1_555 1_555
Cu6 O2 1_555 1_555
Cu10 O9 1_555 1_555
O12 Cu4 1_555 1_555
O13 Cu4 1_555 1_555
O14 Cu2 1_555 1_555
O15 Cu9 1_555 1_555
O17 Cu2 1_555 1_555
Cu9 O2 1_555 1_555
O9 C1 1_555 1_555
C6 C7 1_555 1_555
C13 C14 1_555 1_555
C22 C23 1_555 1_555
Cu6 O15 1_555 1_555
Cu10 O12 1_555 1_555
O13 C32 1_555 1_555
O14 C32 1_555 1_555
H24 C27 1_555 1_555
C28 C27 1_555 1_555
C29 C28 1_555 1_555
H25 C29 1_555 1_555
C32 C28 1_555 1_555
O3 C32_2 1_555 1_555
O4 C32_2 1_555 1_555
H24_2 C27_2 1_555 1_555
C28_2 C27_2 1_555 1_555
C29_2 C28_2 1_555 1_555
H25_2 C29_2 1_555 1_555
C32_2 C28_2 1_555 1_555
Cu6 O3 1_555 1_555
O10_2 C16_2 1_555 1_555
O17 C16_2 1_555 1_555
H12_2 C11_2 1_555 1_555
C12_2 C11_2 1_555 1_555
C16_2 C12_2 1_555 1_555
Cu6 O10_2 1_555 1_555
O12 Cu8 1_555 1_555
H2_2 O12 1_555 1_555
O5_2 Cu10 1_555 1_555
O6_2 C17_2 1_555 1_555
O7_2 Cu8 1_555 1_555
H3_2 O7_2 1_555 1_555
H4_2 O7_2 1_555 1_555
C17_2 O5_2 1_555 1_555
C18_2 C17_2 1_555 1_555
C19_2 C18_2 1_555 1_555
H17_2 C19_2 1_555 1_555
Cu6 O1_2 1_555 1_555
C1_2 O8_2 1_555 1_555
C2_2 C1_2 1_555 1_555
C3_2 C2_2 1_555 1_555
H5_2 C3_2 1_555 1_555
C4_2 C3_2 1_555 1_555
H6_2 C4_2 1_555 1_555
C5_2 C4_2 1_555 1_555
C6_2 C5_2 1_555 1_555
C7_2 C2_2 1_555 1_555
H7_2 C7_2 1_555 1_555
C8_2 C6_2 1_555 1_555
H9_2 C8_2 1_555 1_555
C9_2 C5_2 1_555 1_555
C10_2 C9_2 1_555 1_555
H11_2 C10_2 1_555 1_555
H13_2 C13_2 1_555 1_555
C14_2 C9_2 1_555 1_555
C15_2 C14_2 1_555 1_555
H14_2 C15_2 1_555 1_555
H15_2 C15_2 1_555 1_555
H16_2 C15_2 1_555 1_555
H19_2 C23_2 1_555 1_555
C24_2 C22_2 1_555 1_555
H20_2 C24_2 1_555 1_555
H21_2 C24_2 1_555 1_555
H22_2 C24_2 1_555 1_555
O15 C1_2 1_555 1_555
C6_2 C7_2 1_555 1_555
C13_2 C14_2 1_555 1_555
C22_2 C23_2 1_555 1_555
O3_2 C32_3 1_555 1_555
O4_2 C32_3 1_555 1_555
H24_3 C27_3 1_555 1_555
C28_3 C27_3 1_555 1_555
C29_3 C28_3 1_555 1_555
H25_3 C29_3 1_555 1_555
C32_3 C28_3 1_555 1_555
Cu5 O3_2 1_555 1_555
Cu5 O1_3 1_555 1_555
O9_2 Cu5 1_555 1_555
C1_3 O8_3 1_555 1_555
C2_3 C1_3 1_555 1_555
C3_3 C2_3 1_555 1_555
H5_3 C3_3 1_555 1_555
C4_3 C3_3 1_555 1_555
H6_3 C4_3 1_555 1_555
C5_3 C4_3 1_555 1_555
C6_3 C5_3 1_555 1_555
C7_3 C2_3 1_555 1_555
H7_3 C7_3 1_555 1_555
C8_3 C6_3 1_555 1_555
H9_3 C8_3 1_555 1_555
C9_3 C5_3 1_555 1_555
C10_3 C9_3 1_555 1_555
H11_3 C10_3 1_555 1_555
H13_3 C13_3 1_555 1_555
C14_3 C9_3 1_555 1_555
C15_3 C14_3 1_555 1_555
H14_3 C15_3 1_555 1_555
H15_3 C15_3 1_555 1_555
H16_3 C15_3 1_555 1_555
H19_3 C23_3 1_555 1_555
C24_3 C22_3 1_555 1_555
H20_3 C24_3 1_555 1_555
H21_3 C24_3 1_555 1_555
H22_3 C24_3 1_555 1_555
Cu10_2 O9_2 1_555 1_555
O12_2 Cu5 1_555 1_555
O16 Cu5 1_555 1_555
O9_2 C1_3 1_555 1_555
C6_3 C7_3 1_555 1_555
C13_3 C14_3 1_555 1_555
C22_3 C23_3 1_555 1_555
Cu10_2 O12_2 1_555 1_555
O2_2 Cu7 1_555 1_555
H2_3 O2_2 1_555 1_555
O5_3 Cu3 1_555 1_555
O6_3 C17_3 1_555 1_555
O7_3 Cu7 1_555 1_555
H3_3 O7_3 1_555 1_555
H4_3 O7_3 1_555 1_555
C17_3 O5_3 1_555 1_555
C18_3 C17_3 1_555 1_555
C19_3 C18_3 1_555 1_555
H17_3 C19_3 1_555 1_555
Cu6_2 O2_2 1_555 1_555
O15_2 Cu3 1_555 1_555
O17_2 Cu7 1_555 1_555
Cu3 O2_2 1_555 1_555
Cu6_2 O15_2 1_555 1_555
O16 C16_3 1_555 1_555
O11_2 C16_3 1_555 1_555
H12_3 C11_3 1_555 1_555
C12_3 C11_3 1_555 1_555
C16_3 C12_3 1_555 1_555
Cu8_2 O11_2 1_555 1_555
Cu6_2 O1_4 1_555 1_555
Cu8_2 O1_4 1_555 1_555
Cu10_2 O1_4 1_555 1_555
O1_4 H1_4 1_555 1_555
O12_2 Cu8_2 1_555 1_555
H2_4 O12_2 1_555 1_555
O5_4 Cu10_2 1_555 1_555
O6_4 C17_4 1_555 1_555
O7_4 Cu8_2 1_555 1_555
H3_4 O7_4 1_555 1_555
H4_4 O7_4 1_555 1_555
O8_4 Cu10_2 1_555 1_555
C1_4 O8_4 1_555 1_555
C2_4 C1_4 1_555 1_555
C3_4 C2_4 1_555 1_555
H5_4 C3_4 1_555 1_555
C4_4 C3_4 1_555 1_555
H6_4 C4_4 1_555 1_555
C5_4 C4_4 1_555 1_555
C6_4 C5_4 1_555 1_555
C7_4 C2_4 1_555 1_555
H7_4 C7_4 1_555 1_555
C8_4 C6_4 1_555 1_555
H8_4 C8_4 1_555 1_555
H9_4 C8_4 1_555 1_555
H10_4 C8_4 1_555 1_555
C9_4 C5_4 1_555 1_555
C10_4 C9_4 1_555 1_555
H11_4 C10_4 1_555 1_555
H13_4 C13_4 1_555 1_555
C14_4 C9_4 1_555 1_555
C15_4 C14_4 1_555 1_555
H14_4 C15_4 1_555 1_555
H15_4 C15_4 1_555 1_555
H16_4 C15_4 1_555 1_555
C17_4 O5_4 1_555 1_555
C18_4 C17_4 1_555 1_555
C19_4 C18_4 1_555 1_555
H17_4 C19_4 1_555 1_555
C20_2 C19_4 1_555 1_555
H18_2 C20_2 1_555 1_555
C21_2 C20_2 1_555 1_555
C22_4 C21_2 1_555 1_555
C23_4 C18_4 1_555 1_555
H19_4 C23_4 1_555 1_555
C24_4 C22_4 1_555 1_555
H20_4 C24_4 1_555 1_555
H21_4 C24_4 1_555 1_555
H22_4 C24_4 1_555 1_555
C25_2 C21_2 1_555 1_555
C26_2 C25_2 1_555 1_555
H23_2 C26_2 1_555 1_555
C30_2 C25_2 1_555 1_555
C31_2 C30_2 1_555 1_555
H26_2 C31_2 1_555 1_555
H27_2 C31_2 1_555 1_555
H28_2 C31_2 1_555 1_555
O13_2 Cu6_2 1_555 1_555
O14_2 Cu8_2 1_555 1_555
O16_2 Cu6_2 1_555 1_555
Cu10_2 O16_2 1_555 1_555
O15_2 C1_4 1_555 1_555
C6_4 C7_4 1_555 1_555
C13_4 C14_4 1_555 1_555
C22_4 C23_4 1_555 1_555
O16_2 C16_4 1_555 1_555
O17_2 C16_4 1_555 1_555
H12_4 C11_4 1_555 1_555
C12_4 C11_4 1_555 1_555
C16_4 C12_4 1_555 1_555
O13_2 C32_4 1_555 1_555
O14_2 C32_4 1_555 1_555
H24_4 C27_4 1_555 1_555
C28_4 C27_4 1_555 1_555
C29_4 C28_4 1_555 1_555
H25_4 C29_4 1_555 1_555
C32_4 C28_4 1_555 1_555
C25_3 C21_3 1_555 1_555
C26_3 C25_3 1_555 1_555
C30_3 C25_3 1_555 1_555
C31_3 C30_3 1_555 1_555
H26_3 C31_3 1_555 1_555
H27_3 C31_3 1_555 1_555
H28_3 C31_3 1_555 1_555
H18_3 C20_3 1_555 1_555
H18_4 C20_4 1_555 1_555
C25_4 C21_4 1_555 1_555
C26_4 C25_4 1_555 1_555
C30_4 C25_4 1_555 1_555
C31_4 C30_4 1_555 1_555
H26_4 C31_4 1_555 1_555
H27_4 C31_4 1_555 1_555
H28_4 C31_4 1_555 1_555

#END
