
###############################################################################
#
# This file contains modified crystal structure data generated from the
# MOF subset of the Cambridge Structural Database (CSD) v543 
# hosted by the Cambridge Crystallographic Data Centre (CCDC).
#
# This work is licensed under the Creative Commons
# Attribution-NonCommercial-ShareAlike 4.0 International License.
# To view a copy of this license, visit
# http://creativecommons.org/licenses/by-nc-sa/4.0/
# or send a letter to
# Creative Commons, PO Box 1866, Mountain View, CA 94042, USA.
#
# CIF created using the CSD Python API on 29 September 2022
# The structure has been converted into the P1 space group
# The structure has a 3D framework
# The original CSD entry IVOCIH is in the hexagonal crystal system
# The framework has been calculated to contain at least 10.0% void space
# The void calculation uses a probe of radius 1.32A, grid spacing 0.4
# H atom positions have been added when not included in the experimental data
#
###############################################################################

data_IVOCIH
_chemical_formula_moiety         '(C24 H48 N8 O18 P6 Zn6)n'
_symmetry_cell_setting           triclinic
_symmetry_space_group_name_H-M   'P 1'
_symmetry_Int_Tables_number      1
_space_group_name_Hall           'P 1'
loop_
_symmetry_equiv_pos_site_id
_symmetry_equiv_pos_as_xyz
1 x,y,z
_cell_length_a                   10.00882(19)
_cell_length_b                   10.00882(19)
_cell_length_c                   17.3270(3)
_cell_angle_alpha                90
_cell_angle_beta                 90
_cell_angle_gamma                120
_cell_volume                     1503.21
loop_
_atom_site_label
_atom_site_type_symbol
_atom_site_fract_x
_atom_site_fract_y
_atom_site_fract_z
P1 P 0.5178(2) 0.0356(4) 0.2500
O2 O 0.5601(4) 0.1202(6) 0.1775(3)
O3 O 0.5601(7) 0.1202(6) 0.3225(3)
Zn6 Zn 0.6667 0.3333 0.14986(8)
Zn9 Zn 0.6667 0.3333 0.35014(8)
Zn1 Zn 0.3333 0.6667 0.2500
Zn2 Zn 0.3333 0.6667 0.64986(8)
O1 O 0.4404(6) 0.8809(12) 0.2500
N1 N 0.3333 0.6667 0.5320(6)
N2 N 0.3333 0.6667 0.3834(5)
C1 C 0.2528(4) 0.5056(8) 0.5020(4)
C2 C 0.2535(4) 0.5069(9) 0.4126(4)
C3 C 0.4944(8) 0.7472(9) 0.5020(4)
C4 C 0.4931(9) 0.7466(10) 0.4126(4)
C5 C 0.2528(9) 0.7472(4) 0.5020(4)
C6 C 0.2534(10) 0.7465(4) 0.4126(4)
O4 O 0.1191(12) 0.5595(13) 0.2500
P3 P 0.5178(4) 0.4822(2) 0.2500
O7 O 0.4405(13) 0.5596(6) 0.2500
O8 O 0.5601(7) 0.4399(4) 0.1775(3)
O9 O 0.5601(4) 0.4399(7) 0.3225(3)
N4 N 0.3333 0.6667 0.1166(5)
C8 C 0.4931(9) 0.7465(4) 0.0874(4)
C10 C 0.2534(10) 0.5069(9) 0.0874(4)
C12 C 0.2535(4) 0.7466(10) 0.0874(4)
O10 O 0.4399(4) 0.8798(6) 0.6775(3)
O11 O 0.1202(6) 0.5601(7) 0.6775(3)
O12 O 0.4399(7) 0.5601(4) 0.6775(3)
H1 H 0.134091 0.445856 0.522579
H2 H 0.311791 0.445905 0.522613
H3 H 0.134905 0.447622 0.108287
H4 H 0.312569 0.447598 0.108321
H5 H 0.312752 0.865097 0.108284
H6 H 0.135026 0.68747 0.108318
H9 H 0.134903 0.687248 0.391716
H10 H 0.31253 0.864974 0.391682
H11 H 0.3118 0.865911 0.522576
H12 H 0.134112 0.688248 0.522609
H15 H 0.552378 0.865095 0.391713
H16 H 0.552402 0.687431 0.391679
H17 H 0.552304 0.687209 0.108287
H18 H 0.552477 0.864971 0.108321
H19 H 0.312791 0.447696 0.391713
H20 H 0.135029 0.447523 0.391679
H23 H 0.55407 0.688161 0.52258
H24 H 0.554168 0.865886 0.522612
Zn3 Zn 0.3333 0.6667 0.85014(8)
N3 N 0.3333 0.6667 0.9680(6)
C7 C 0.4944(8) 0.7472(4) 0.9980(4)
C9 C 0.2528(9) 0.5056(8) 0.9980(4)
C11 C 0.2528(4) 0.7472(9) 0.9980(4)
O13 O 0.1202(6) 0.5601(4) 0.8225(3)
O14 O 0.4399(7) 0.8798(6) 0.8225(3)
O15 O 0.4399(4) 0.5601(7) 0.8225(3)
H7 H 0.554144 0.865909 0.977421
H8 H 0.554095 0.688209 0.977387
H13 H 0.134089 0.6882 0.977424
H14 H 0.311752 0.865888 0.977391
H21 H 0.311839 0.44593 0.97742
H22 H 0.134114 0.445832 0.977388
P2 P 0.9644(4) 0.4822(4) 0.2500
O5 O 0.8798(6) 0.4399(7) 0.1775(3)
O6 O 0.8798(6) 0.4399(4) 0.3225(3)
P2_2 P 0.0356(4) 0.5178(4) 0.7500
N1_2 N 0.6667 0.3333 0.0320(6)
C1_2 C 0.7472(4) 0.4944(8) 0.0020(4)
C3_2 C 0.5056(8) 0.2528(9) 0.0020(4)
C5_2 C 0.7472(9) 0.2528(4) 0.0020(4)
H1_2 H 0.865909 0.554144 0.0225793
H2_2 H 0.688209 0.554095 0.0226127
H11_2 H 0.6882 0.134089 0.0225764
H12_2 H 0.865888 0.311752 0.0226095
H23_2 H 0.44593 0.311839 0.0225796
H24_2 H 0.445832 0.134114 0.0226124
Zn1_2 Zn 0.6667 0.3333 0.7500
O1_2 O 0.5596(6) 0.1191(12) 0.7500
N2_2 N 0.6667 0.3333 0.8834(5)
C2_2 C 0.7465(4) 0.4931(9) 0.9126(4)
C4_2 C 0.5069(9) 0.2534(10) 0.9126(4)
C6_2 C 0.7466(10) 0.2535(4) 0.9126(4)
O4_2 O 0.8809(12) 0.4405(13) 0.7500
P3_2 P 0.4822(4) 0.5178(2) 0.7500
O7_2 O 0.5595(13) 0.4404(6) 0.7500
N3_2 N 0.6667 0.3333 0.4680(6)
N4_2 N 0.6667 0.3333 0.6166(5)
C7_2 C 0.5056(8) 0.2528(4) 0.4980(4)
C8_2 C 0.5069(9) 0.2535(4) 0.5874(4)
C9_2 C 0.7472(9) 0.4944(8) 0.4980(4)
C10_2 C 0.7466(10) 0.4931(9) 0.5874(4)
C11_2 C 0.7472(4) 0.2528(9) 0.4980(4)
C12_2 C 0.7465(4) 0.2534(10) 0.5874(4)
H3_2 H 0.865095 0.552378 0.608287
H4_2 H 0.687431 0.552402 0.608321
H5_2 H 0.687248 0.134903 0.608284
H6_2 H 0.864974 0.31253 0.608318
H7_2 H 0.445856 0.134091 0.477421
H8_2 H 0.445905 0.311791 0.477387
H9_2 H 0.865097 0.312752 0.891716
H10_2 H 0.68747 0.135026 0.891682
H13_2 H 0.865911 0.3118 0.477424
H14_2 H 0.688248 0.134112 0.477391
H15_2 H 0.447622 0.134905 0.891713
H16_2 H 0.447598 0.312569 0.891679
H17_2 H 0.447696 0.312791 0.608287
H18_2 H 0.447523 0.135029 0.608321
H19_2 H 0.687209 0.552304 0.891713
H20_2 H 0.864971 0.552477 0.891679
H21_2 H 0.688161 0.55407 0.47742
H22_2 H 0.865886 0.554168 0.477388
P1_2 P 0.4822(2) 0.9644(4) 0.7500
loop_
_geom_bond_atom_site_label_1
_geom_bond_atom_site_label_2
_geom_bond_site_symmetry_1
_geom_bond_site_symmetry_2
O2 P1 1_555 1_555
O3 P1 1_555 1_555
Zn6 O2 1_555 1_555
Zn9 O3 1_555 1_555
Zn1 O1 1_555 1_555
Zn2 N1 1_555 1_555
N1 C1 1_555 1_555
N2 Zn1 1_555 1_555
C1 C2 1_555 1_555
C2 N2 1_555 1_555
C3 N1 1_555 1_555
C4 N2 1_555 1_555
C5 N1 1_555 1_555
C6 N2 1_555 1_555
O4 Zn1 1_555 1_555
P3 O7 1_555 1_555
O7 Zn1 1_555 1_555
O8 P3 1_555 1_555
O9 P3 1_555 1_555
N4 Zn1 1_555 1_555
C8 N4 1_555 1_555
C10 N4 1_555 1_555
C12 N4 1_555 1_555
Zn6 O8 1_555 1_555
Zn9 O9 1_555 1_555
O10 Zn2 1_555 1_555
O11 Zn2 1_555 1_555
O12 Zn2 1_555 1_555
C3 C4 1_555 1_555
C5 C6 1_555 1_555
C1 H1 1_555 1_555
C1 H2 1_555 1_555
C10 H3 1_555 1_555
C10 H4 1_555 1_555
C12 H5 1_555 1_555
C12 H6 1_555 1_555
C6 H9 1_555 1_555
C6 H10 1_555 1_555
C5 H11 1_555 1_555
C5 H12 1_555 1_555
C4 H15 1_555 1_555
C4 H16 1_555 1_555
C8 H17 1_555 1_555
C8 H18 1_555 1_555
C2 H19 1_555 1_555
C2 H20 1_555 1_555
C3 H23 1_555 1_555
C3 H24 1_555 1_555
Zn3 N3 1_555 1_555
N3 C7 1_555 1_555
C9 N3 1_555 1_555
C11 N3 1_555 1_555
O13 Zn3 1_555 1_555
O14 Zn3 1_555 1_555
O15 Zn3 1_555 1_555
C7 H7 1_555 1_555
C7 H8 1_555 1_555
C11 H13 1_555 1_555
C11 H14 1_555 1_555
C9 H21 1_555 1_555
C9 H22 1_555 1_555
O5 P2 1_555 1_555
O6 P2 1_555 1_555
Zn6 O5 1_555 1_555
Zn9 O6 1_555 1_555
O11 P2_2 1_555 1_555
O13 P2_2 1_555 1_555
Zn6 N1_2 1_555 1_555
N1_2 C1_2 1_555 1_555
C3_2 N1_2 1_555 1_555
C5_2 N1_2 1_555 1_555
C1_2 H1_2 1_555 1_555
C1_2 H2_2 1_555 1_555
C5_2 H11_2 1_555 1_555
C5_2 H12_2 1_555 1_555
C3_2 H23_2 1_555 1_555
C3_2 H24_2 1_555 1_555
Zn1_2 O1_2 1_555 1_555
N2_2 Zn1_2 1_555 1_555
C2_2 N2_2 1_555 1_555
C4_2 N2_2 1_555 1_555
C6_2 N2_2 1_555 1_555
O4_2 Zn1_2 1_555 1_555
P3_2 O7_2 1_555 1_555
O7_2 Zn1_2 1_555 1_555
O12 P3_2 1_555 1_555
O15 P3_2 1_555 1_555
Zn9 N3_2 1_555 1_555
N3_2 C7_2 1_555 1_555
N4_2 Zn1_2 1_555 1_555
C7_2 C8_2 1_555 1_555
C8_2 N4_2 1_555 1_555
C9_2 N3_2 1_555 1_555
C10_2 N4_2 1_555 1_555
C11_2 N3_2 1_555 1_555
C12_2 N4_2 1_555 1_555
C9_2 C10_2 1_555 1_555
C11_2 C12_2 1_555 1_555
C10_2 H3_2 1_555 1_555
C10_2 H4_2 1_555 1_555
C12_2 H5_2 1_555 1_555
C12_2 H6_2 1_555 1_555
C7_2 H7_2 1_555 1_555
C7_2 H8_2 1_555 1_555
C6_2 H9_2 1_555 1_555
C6_2 H10_2 1_555 1_555
C11_2 H13_2 1_555 1_555
C11_2 H14_2 1_555 1_555
C4_2 H15_2 1_555 1_555
C4_2 H16_2 1_555 1_555
C8_2 H17_2 1_555 1_555
C8_2 H18_2 1_555 1_555
C2_2 H19_2 1_555 1_555
C2_2 H20_2 1_555 1_555
C9_2 H21_2 1_555 1_555
C9_2 H22_2 1_555 1_555
O10 P1_2 1_555 1_555
O14 P1_2 1_555 1_555

#END
