
###############################################################################
#
# This file contains modified crystal structure data generated from the
# MOF subset of the Cambridge Structural Database (CSD) v543 
# hosted by the Cambridge Crystallographic Data Centre (CCDC).
#
# This work is licensed under the Creative Commons
# Attribution-NonCommercial-ShareAlike 4.0 International License.
# To view a copy of this license, visit
# http://creativecommons.org/licenses/by-nc-sa/4.0/
# or send a letter to
# Creative Commons, PO Box 1866, Mountain View, CA 94042, USA.
#
# CIF created using the CSD Python API on 29 September 2022
# The structure has been converted into the P1 space group
# The structure has a 3D framework
# The original CSD entry IVOLOW is in the orthorhombic crystal system
# The framework has been calculated to contain at least 10.0% void space
# The void calculation uses a probe of radius 1.32A, grid spacing 0.4
#
###############################################################################

data_IVOLOW
_chemical_formula_moiety         '(C56 H32 O24 Pb2 S4)n'
_symmetry_cell_setting           triclinic
_symmetry_space_group_name_H-M   'P 1'
_symmetry_Int_Tables_number      1
_space_group_name_Hall           'P 1'
loop_
_symmetry_equiv_pos_site_id
_symmetry_equiv_pos_as_xyz
1 x,y,z
_cell_length_a                   5.8815(16)
_cell_length_b                   13.035(3)
_cell_length_c                   19.371(4)
_cell_angle_alpha                90
_cell_angle_beta                 90
_cell_angle_gamma                90
_cell_volume                     1485.08
loop_
_atom_site_label
_atom_site_type_symbol
_atom_site_fract_x
_atom_site_fract_y
_atom_site_fract_z
O5 O 0.33672(19) 0.13779(8) 0.28431(6)
C8 C 0.2199(2) 0.10235(11) 0.33415(8)
C9 C 0.3274(2) 0.01610(10) 0.37478(7)
H5 H 0.0691 0.0045 0.4446
H6 H 0.6173 0.0033 0.3174
O6 O 0.02601(18) 0.13057(9) 0.35196(6)
Pb2 Pb 0.23690(2) 0.2500 0.18792(2)
Pb7 Pb 0.73690(2) 0.2500 0.31208(2)
O1 O 0.33672(19) 0.36221(8) 0.28431(6)
O2 O 0.02601(18) 0.36943(9) 0.35196(6)
O3 O 0.5294(2) 0.7500 0.56334(8)
C1 C 0.2199(2) 0.39765(11) 0.33415(8)
C2 C 0.3274(2) 0.48390(10) 0.37478(7)
C3 C 0.2118(2) 0.52369(11) 0.43165(7)
C4 C 0.5380(2) 0.52429(11) 0.35588(8)
H1 H 0.0691 0.4955 0.4446
C5 C 0.3037(2) 0.60427(10) 0.46954(7)
C6 C 0.6322(2) 0.60472(10) 0.39324(8)
H2 H 0.6173 0.4967 0.3174
H3 H 0.2253 0.6317 0.5082
C7 C 0.5130(2) 0.64380(10) 0.44950(7)
H4 H 0.7755 0.6326 0.3806
S1 S 0.62610(8) 0.7500 0.49466(2)
O4 O 0.8693(2) 0.7500 0.48613(8)
C10 C 0.2118(2) 0.97631(11) 0.43165(7)
C11 C 0.5380(2) 0.97571(11) 0.35588(8)
C12 C 0.3037(2) 0.89573(10) 0.46954(7)
C13 C 0.6322(2) 0.89528(10) 0.39324(8)
H7 H 0.2253 0.8683 0.5082
C14 C 0.5130(2) 0.85620(10) 0.44950(7)
H8 H 0.7755 0.8674 0.3806
Pb3 Pb 0.26310(2) 0.7500 0.68792(2)
O10 O 0.52601(18) 0.13057(9) 0.14804(6)
O11 O 0.52601(18) 0.36943(9) 0.14804(6)
O7 O 0.83672(19) 0.13779(8) 0.21569(6)
O8 O 0.83672(19) 0.36221(8) 0.21569(6)
O12 O 0.9706(2) 0.2500 0.06334(8)
H3_2 H 0.2747 0.3683 0.0082
H7_2 H 0.2747 0.1317 0.0082
O1_2 O 0.16328(19) 0.63779(8) 0.78431(6)
O2_2 O 0.47399(18) 0.63057(9) 0.85196(6)
C1_2 C 0.2801(2) 0.60235(11) 0.83415(8)
C2_2 C 0.1726(2) 0.51610(10) 0.87478(7)
C3_2 C 0.2882(2) 0.47631(11) 0.93165(7)
H1_2 H 0.4309 0.5045 0.9446
C5_2 C 0.1963(2) 0.39573(10) 0.96954(7)
C10_2 C 0.2882(2) 0.02369(11) 0.93165(7)
C12_2 C 0.1963(2) 0.10427(10) 0.96954(7)
Pb4 Pb 0.76310(2) 0.7500 0.81208(2)
O7_2 O 0.66328(19) 0.86221(8) 0.71569(6)
O8_2 O 0.66328(19) 0.63779(8) 0.71569(6)
O9 O 0.16328(19) 0.86221(8) 0.78431(6)
C8_2 C 0.2801(2) 0.89765(11) 0.83415(8)
C9_2 C 0.1726(2) 0.98390(10) 0.87478(7)
H5_2 H 0.4309 0.9955 0.9446
O6_2 O 0.47399(18) 0.86943(9) 0.85196(6)
C4_2 C 0.9620(2) 0.47571(11) 0.85588(8)
C6_2 C 0.8678(2) 0.39528(10) 0.89324(8)
H2_2 H 0.8827 0.5033 0.8174
C7_2 C 0.9870(2) 0.35620(10) 0.94950(7)
H4_2 H 0.7245 0.3674 0.8806
S1_2 S 0.87390(8) 0.2500 0.99466(2)
O4_2 O 0.6307(2) 0.2500 0.98613(8)
C11_2 C 0.9620(2) 0.02429(11) 0.85588(8)
C13_2 C 0.8678(2) 0.10472(10) 0.89324(8)
C14_2 C 0.9870(2) 0.14380(10) 0.94950(7)
H8_2 H 0.7245 0.1326 0.8806
O10_2 O 0.97399(18) 0.86943(9) 0.64804(6)
O11_2 O 0.97399(18) 0.63057(9) 0.64804(6)
H6_2 H 0.8827 0.9967 0.8174
O12_2 O 0.0294(2) 0.7500 0.93666(8)
O3_2 O 0.4706(2) 0.2500 0.43666(8)
C3_3 C 0.7882(2) 0.02369(11) 0.56835(7)
C4_3 C 0.4620(2) 0.02429(11) 0.64412(8)
C5_3 C 0.6963(2) 0.10427(10) 0.53046(7)
C6_3 C 0.3678(2) 0.10472(10) 0.60676(8)
H3_3 H 0.7747 0.1317 0.4918
C7_3 C 0.4870(2) 0.14380(10) 0.55050(7)
H4_3 H 0.2245 0.1326 0.6194
S1_3 S 0.37390(8) 0.2500 0.50534(2)
O4_3 O 0.1307(2) 0.2500 0.51387(8)
C8_3 C 0.7801(2) 0.60235(11) 0.66585(8)
C9_3 C 0.6726(2) 0.51610(10) 0.62522(7)
C10_3 C 0.7882(2) 0.47631(11) 0.56835(7)
C11_3 C 0.4620(2) 0.47571(11) 0.64412(8)
H5_3 H 0.9309 0.5045 0.5554
C12_3 C 0.6963(2) 0.39573(10) 0.53046(7)
C13_3 C 0.3678(2) 0.39528(10) 0.60676(8)
H6_3 H 0.3827 0.5033 0.6826
H7_3 H 0.7747 0.3683 0.4918
C14_3 C 0.4870(2) 0.35620(10) 0.55050(7)
H8_3 H 0.2245 0.3674 0.6194
C1_3 C 0.7801(2) 0.89765(11) 0.66585(8)
C2_3 C 0.6726(2) 0.98390(10) 0.62522(7)
H1_3 H 0.9309 0.9955 0.5554
H2_3 H 0.3827 0.9967 0.6826
H2_4 H 0.1173 0.0033 0.1826
C4_4 C 0.0380(2) 0.97571(11) 0.14412(8)
C6_4 C 0.1322(2) 0.89528(10) 0.10676(8)
C7_4 C 0.0130(2) 0.85620(10) 0.05050(7)
H4_4 H 0.2755 0.8674 0.1194
S1_4 S 0.12610(8) 0.7500 0.00534(2)
O4_4 O 0.3693(2) 0.7500 0.01387(8)
C11_4 C 0.0380(2) 0.52429(11) 0.14412(8)
C13_4 C 0.1322(2) 0.60472(10) 0.10676(8)
H6_4 H 0.1173 0.4967 0.1826
C14_4 C 0.0130(2) 0.64380(10) 0.05050(7)
H8_4 H 0.2755 0.6326 0.1194
C1_4 C 0.7199(2) 0.10235(11) 0.16585(8)
C2_4 C 0.8274(2) 0.01610(10) 0.12522(7)
H1_4 H 0.5691 0.0045 0.0554
C3_4 C 0.7118(2) 0.97631(11) 0.06835(7)
C5_4 C 0.8037(2) 0.89573(10) 0.03046(7)
C8_4 C 0.7199(2) 0.39765(11) 0.16585(8)
C9_4 C 0.8274(2) 0.48390(10) 0.12522(7)
C10_4 C 0.7118(2) 0.52369(11) 0.06835(7)
H5_4 H 0.5691 0.4955 0.0554
C12_4 C 0.8037(2) 0.60427(10) 0.03046(7)
H3_4 H 0.7253 0.8683 0.9918
H7_4 H 0.7253 0.6317 0.9918
loop_
_geom_bond_atom_site_label_1
_geom_bond_atom_site_label_2
_geom_bond_site_symmetry_1
_geom_bond_site_symmetry_2
O5 C8 1_555 1_555
C8 C9 1_555 1_555
O6 C8 1_555 1_555
Pb2 O5 1_555 1_555
Pb7 O5 1_555 1_555
Pb2 O1 1_555 1_555
O1 C1 1_555 1_555
O2 C1 1_555 1_555
O3 S1 1_555 1_555
C1 C2 1_555 1_555
C2 C3 1_555 1_555
C3 H1 1_555 1_555
C4 C2 1_555 1_555
C5 C3 1_555 1_555
C6 C4 1_555 1_555
H2 C4 1_555 1_555
H3 C5 1_555 1_555
C7 C5 1_555 1_555
H4 C6 1_555 1_555
S1 C7 1_555 1_555
O4 S1 1_555 1_555
C12 C10 1_555 1_555
C13 C11 1_555 1_555
H7 C12 1_555 1_555
C14 S1 1_555 1_555
H8 C13 1_555 1_555
Pb3 O3 1_555 1_555
Pb7 O1 1_555 1_555
O10 Pb2 1_555 1_555
O11 Pb2 1_555 1_555
C6 C7 1_555 1_555
C12 C14 1_555 1_555
C13 C14 1_555 1_555
Pb7 O7 1_555 1_555
Pb7 O8 1_555 1_555
Pb3 O1_2 1_555 1_555
O1_2 C1_2 1_555 1_555
O2_2 C1_2 1_555 1_555
C1_2 C2_2 1_555 1_555
C2_2 C3_2 1_555 1_555
C3_2 H1_2 1_555 1_555
C5_2 C3_2 1_555 1_555
C12_2 C10_2 1_555 1_555
Pb4 O2_2 1_555 1_555
O7_2 Pb3 1_555 1_555
O8_2 Pb3 1_555 1_555
O9 Pb3 1_555 1_555
Pb4 O7_2 1_555 1_555
Pb4 O8_2 1_555 1_555
O9 C8_2 1_555 1_555
C8_2 C9_2 1_555 1_555
O6_2 C8_2 1_555 1_555
Pb4 O6_2 1_555 1_555
C6_2 C4_2 1_555 1_555
H2_2 C4_2 1_555 1_555
H4_2 C6_2 1_555 1_555
S1_2 C7_2 1_555 1_555
O4_2 S1_2 1_555 1_555
C13_2 C11_2 1_555 1_555
C14_2 S1_2 1_555 1_555
H8_2 C13_2 1_555 1_555
C6_2 C7_2 1_555 1_555
C13_2 C14_2 1_555 1_555
O3_2 S1_3 1_555 1_555
C5_3 C3_3 1_555 1_555
C6_3 C4_3 1_555 1_555
H3_3 C5_3 1_555 1_555
C7_3 C5_3 1_555 1_555
H4_3 C6_3 1_555 1_555
S1_3 C7_3 1_555 1_555
O4_3 S1_3 1_555 1_555
O8_2 C8_3 1_555 1_555
C8_3 C9_3 1_555 1_555
C9_3 C10_3 1_555 1_555
C10_3 H5_3 1_555 1_555
C11_3 C9_3 1_555 1_555
C12_3 C10_3 1_555 1_555
C13_3 C11_3 1_555 1_555
H6_3 C11_3 1_555 1_555
H7_3 C12_3 1_555 1_555
C14_3 S1_3 1_555 1_555
H8_3 C13_3 1_555 1_555
O11_2 C8_3 1_555 1_555
Pb7 O3_2 1_555 1_555
C6_3 C7_3 1_555 1_555
C12_3 C14_3 1_555 1_555
C13_3 C14_3 1_555 1_555
O7_2 C1_3 1_555 1_555
O10_2 C1_3 1_555 1_555
C1_3 C2_3 1_555 1_555
C6_4 C4_4 1_555 1_555
H4_4 C6_4 1_555 1_555
S1_4 C7_4 1_555 1_555
O4_4 S1_4 1_555 1_555
C13_4 C11_4 1_555 1_555
H6_4 C11_4 1_555 1_555
C14_4 S1_4 1_555 1_555
H8_4 C13_4 1_555 1_555
C6_4 C7_4 1_555 1_555
C13_4 C14_4 1_555 1_555
O7 C1_4 1_555 1_555
O10 C1_4 1_555 1_555
C1_4 C2_4 1_555 1_555
C5_4 C3_4 1_555 1_555
O8 C8_4 1_555 1_555
C8_4 C9_4 1_555 1_555
C9_4 C10_4 1_555 1_555
C10_4 H5_4 1_555 1_555
C12_4 C10_4 1_555 1_555
O11 C8_4 1_555 1_555

#END
