
###############################################################################
#
# This file contains modified crystal structure data generated from the
# MOF subset of the Cambridge Structural Database (CSD) v543 
# hosted by the Cambridge Crystallographic Data Centre (CCDC).
#
# This work is licensed under the Creative Commons
# Attribution-NonCommercial-ShareAlike 4.0 International License.
# To view a copy of this license, visit
# http://creativecommons.org/licenses/by-nc-sa/4.0/
# or send a letter to
# Creative Commons, PO Box 1866, Mountain View, CA 94042, USA.
#
# CIF created using the CSD Python API on 29 September 2022
# The structure has been converted into the P1 space group
# The structure has a 3D framework
# The original CSD entry IWEJUS is in the tetragonal crystal system
# The framework has been calculated to contain at least 10.0% void space
# The void calculation uses a probe of radius 1.32A, grid spacing 0.4
#
###############################################################################

data_IWEJUS
_chemical_formula_moiety         '(C34 H8 N10 O16 Zn10)n'
_symmetry_cell_setting           triclinic
_symmetry_space_group_name_H-M   'P 1'
_symmetry_Int_Tables_number      1
_space_group_name_Hall           'P 1'
loop_
_symmetry_equiv_pos_site_id
_symmetry_equiv_pos_as_xyz
1 x,y,z
_cell_length_a                   7.0536(16)
_cell_length_b                   7.0536(16)
_cell_length_c                   19.790(6)
_cell_angle_alpha                90
_cell_angle_beta                 90
_cell_angle_gamma                90
_cell_volume                     984.617
loop_
_atom_site_label
_atom_site_type_symbol
_atom_site_fract_x
_atom_site_fract_y
_atom_site_fract_z
Zn4 Zn -0.000000 -0.000000 0.72237(6)
Zn6 Zn -0.000000 -0.000000 0.27763(6)
Zn4_2 Zn -0.000000 1.000000 0.72237(6)
Zn6_2 Zn -0.000000 1.000000 0.27763(6)
Zn1 Zn 0.500000 0.500000 0.22237(6)
N1 N 0.500000 0.500000 0.3242(6)
O1 O 0.1498(11) 0.8502(11) 0.3391(3)
O2 O 0.2857(10) 0.7143(10) 0.2491(3)
C1 C 0.3847(13) 0.6153(13) 0.3562(4)
C2 C 0.2631(17) 0.7369(17) 0.3117(5)
C3 C 0.3814(13) 0.6186(13) 0.4269(4)
H1 H 0.299891 0.700109 0.449686
C4 C 0.500000 0.500000 0.4624(6)
O3 O 0.8502(11) 0.1498(11) 0.3391(3)
O4 O 0.7143(10) 0.2857(10) 0.2491(3)
C5 C 0.6153(13) 0.3847(13) 0.3562(4)
C6 C 0.7369(17) 0.2631(17) 0.3117(5)
C7 C 0.6186(13) 0.3814(13) 0.4269(4)
H2 H 0.700109 0.299891 0.449686
N2 N 0.500000 0.500000 0.6758(6)
O5 O 0.8502(11) 0.1498(11) 0.6609(3)
O6 O 0.7143(10) 0.2857(10) 0.7509(3)
C8 C 0.6153(13) 0.3847(13) 0.6438(4)
C9 C 0.7369(17) 0.2631(17) 0.6883(5)
C10 C 0.6186(13) 0.3814(13) 0.5731(4)
H3 H 0.700109 0.299891 0.550314
C11 C 0.500000 0.500000 0.5376(6)
O7 O 0.1498(11) 0.8502(11) 0.6609(3)
O8 O 0.2857(10) 0.7143(10) 0.7509(3)
C12 C 0.3847(13) 0.6153(13) 0.6438(4)
C13 C 0.2631(17) 0.7369(17) 0.6883(5)
C14 C 0.3814(13) 0.6186(13) 0.5731(4)
H4 H 0.299891 0.700109 0.550314
Zn2 Zn 0.500000 0.500000 0.77763(6)
Zn4_3 Zn 1.000000 -0.000000 0.72237(6)
Zn6_3 Zn 1.000000 -0.000000 0.27763(6)
O9 O 0.6498(11) 0.6498(11) 0.8391(3)
O10 O 0.3502(11) 0.3502(11) 0.8391(3)
O11 O 0.3502(11) 0.3502(11) 0.1609(3)
O12 O 0.6498(11) 0.6498(11) 0.1609(3)
Zn4_4 Zn 1.000000 1.000000 0.72237(6)
Zn6_4 Zn 1.000000 1.000000 0.27763(6)
N2_2 N -0.000000 -0.000000 0.1758(6)
O6_2 O 0.2143(10) 0.2143(10) 0.2509(3)
C8_2 C 0.1153(13) 0.1153(13) 0.1438(4)
C9_2 C 0.2369(17) 0.2369(17) 0.1883(5)
C10_2 C 0.1186(13) 0.1186(13) 0.0731(4)
H3_2 H 0.200109 0.200109 0.050314
C11_2 C -0.000000 0.000000 0.0376(6)
N1_2 N -0.000000 -0.000000 0.8242(6)
C4_2 C 0.000000 0.000000 0.9624(6)
O4_2 O 0.2143(10) 0.2143(10) 0.7491(3)
C5_2 C 0.1153(13) 0.1153(13) 0.8562(4)
C6_2 C 0.2369(17) 0.2369(17) 0.8117(5)
C7_2 C 0.1186(13) 0.1186(13) 0.9269(4)
H2_2 H 0.200109 0.200109 0.949686
N2_3 N 0.000000 1.000000 0.1758(6)
C11_3 C -0.000000 1.000000 0.0376(6)
N1_3 N -0.000000 1.000000 0.8242(6)
C4_3 C 0.000000 1.000000 0.9624(6)
N2_4 N 1.000000 -0.000000 0.1758(6)
C11_4 C 1.000000 0.000000 0.0376(6)
N1_4 N 1.000000 -0.000000 0.8242(6)
C4_4 C 1.000000 0.000000 0.9624(6)
N2_5 N 1.000000 1.000000 0.1758(6)
C11_5 C 1.000000 1.000000 0.0376(6)
O8_2 O 0.7857(10) 0.7857(10) 0.2509(3)
C12_2 C 0.8847(13) 0.8847(13) 0.1438(4)
C13_2 C 0.7631(17) 0.7631(17) 0.1883(5)
C14_2 C 0.8814(13) 0.8814(13) 0.0731(4)
H4_2 H 0.799891 0.799891 0.050314
N1_5 N 1.000000 1.000000 0.8242(6)
O2_2 O 0.7857(10) 0.7857(10) 0.7491(3)
C1_2 C 0.8847(13) 0.8847(13) 0.8562(4)
C2_2 C 0.7631(17) 0.7631(17) 0.8117(5)
C3_2 C 0.8814(13) 0.8814(13) 0.9269(4)
H1_2 H 0.799891 0.799891 0.949686
C4_5 C 1.000000 1.000000 0.9624(6)
loop_
_geom_bond_atom_site_label_1
_geom_bond_atom_site_label_2
_geom_bond_site_symmetry_1
_geom_bond_site_symmetry_2
Zn1 N1 1_555 1_555
N1 C1 1_555 1_555
O1 C2 1_555 1_555
O2 Zn1 1_555 1_555
C1 C2 1_555 1_555
C2 O2 1_555 1_555
C3 C1 1_555 1_555
H1 C3 1_555 1_555
C4 C3 1_555 1_555
O3 C6 1_555 1_555
O4 Zn1 1_555 1_555
C5 N1 1_555 1_555
C6 O4 1_555 1_555
C7 C4 1_555 1_555
H2 C7 1_555 1_555
N2 C8 1_555 1_555
O5 C9 1_555 1_555
O6 C9 1_555 1_555
C8 C9 1_555 1_555
C10 C8 1_555 1_555
H3 C10 1_555 1_555
C11 C4 1_555 1_555
O7 C13 1_555 1_555
O8 C13 1_555 1_555
C12 N2 1_555 1_555
C13 C12 1_555 1_555
C14 C11 1_555 1_555
H4 C14 1_555 1_555
Zn2 N2 1_555 1_555
Zn4_2 O7 1_555 1_555
Zn4_3 O5 1_555 1_555
Zn6_2 O1 1_555 1_555
Zn6_3 O3 1_555 1_555
O9 Zn2 1_555 1_555
O10 Zn2 1_555 1_555
O11 Zn1 1_555 1_555
O12 Zn1 1_555 1_555
C5 C6 1_555 1_555
C5 C7 1_555 1_555
O6 Zn2 1_555 1_555
C10 C11 1_555 1_555
O8 Zn2 1_555 1_555
C12 C14 1_555 1_555
N2_2 C8_2 1_555 1_555
O11 C9_2 1_555 1_555
O6_2 C9_2 1_555 1_555
C8_2 C9_2 1_555 1_555
C10_2 C8_2 1_555 1_555
H3_2 C10_2 1_555 1_555
Zn6 N2_2 1_555 1_555
O6_2 Zn6 1_555 1_555
C10_2 C11_2 1_555 1_555
Zn4 N1_2 1_555 1_555
O10 C6_2 1_555 1_555
O4_2 Zn4 1_555 1_555
C5_2 N1_2 1_555 1_555
C6_2 O4_2 1_555 1_555
C7_2 C4_2 1_555 1_555
H2_2 C7_2 1_555 1_555
C5_2 C6_2 1_555 1_555
C5_2 C7_2 1_555 1_555
Zn6_2 N2_3 1_555 1_555
Zn4_2 N1_3 1_555 1_555
Zn6_3 N2_4 1_555 1_555
Zn4_3 N1_4 1_555 1_555
O12 C13_2 1_555 1_555
O8_2 C13_2 1_555 1_555
C12_2 N2_5 1_555 1_555
C13_2 C12_2 1_555 1_555
C14_2 C11_5 1_555 1_555
H4_2 C14_2 1_555 1_555
Zn6_4 N2_5 1_555 1_555
O8_2 Zn6_4 1_555 1_555
C12_2 C14_2 1_555 1_555
Zn4_4 N1_5 1_555 1_555
N1_5 C1_2 1_555 1_555
O9 C2_2 1_555 1_555
O2_2 Zn4_4 1_555 1_555
C1_2 C2_2 1_555 1_555
C2_2 O2_2 1_555 1_555
C3_2 C1_2 1_555 1_555
H1_2 C3_2 1_555 1_555
C4_5 C3_2 1_555 1_555

#END
