
###############################################################################
#
# This file contains modified crystal structure data generated from the
# MOF subset of the Cambridge Structural Database (CSD) v543 
# hosted by the Cambridge Crystallographic Data Centre (CCDC).
#
# This work is licensed under the Creative Commons
# Attribution-NonCommercial-ShareAlike 4.0 International License.
# To view a copy of this license, visit
# http://creativecommons.org/licenses/by-nc-sa/4.0/
# or send a letter to
# Creative Commons, PO Box 1866, Mountain View, CA 94042, USA.
#
# CIF created using the CSD Python API on 29 September 2022
# The structure has been converted into the P1 space group
# The structure has a 3D framework
# The original CSD entry IWELII01 is in the triclinic crystal system
# The framework has been calculated to contain at least 10.0% void space
# The void calculation uses a probe of radius 1.32A, grid spacing 0.4
#
###############################################################################

data_IWELII01
_chemical_formula_moiety         '(C16 H8 Fe1 N6 Pt4)n'
_symmetry_cell_setting           triclinic
_symmetry_space_group_name_H-M   'P 1'
_symmetry_Int_Tables_number      1
_space_group_name_Hall           'P 1'
loop_
_symmetry_equiv_pos_site_id
_symmetry_equiv_pos_as_xyz
1 x,y,z
_cell_length_a                   6.9483(3)
_cell_length_b                   7.5509(3)
_cell_length_c                   13.0859(5)
_cell_angle_alpha                77.715(3)
_cell_angle_beta                 82.604(3)
_cell_angle_gamma                88.873(3)
_cell_volume                     665.24
loop_
_atom_site_label
_atom_site_type_symbol
_atom_site_fract_x
_atom_site_fract_y
_atom_site_fract_z
Pt1 Pt -0.000000 0.000000 0.500000
C2 C 0.1931(14) 0.1999(13) 0.4739(8)
N2 N 0.3005(13) 0.3163(12) 0.4621(7)
Fe2 Fe 0.500000 0.500000 0.500000
Pt1_2 Pt -0.000000 1.000000 0.500000
C9 C 0.2016(14) 0.8266(14) 0.4624(8)
N4 N 0.3170(12) 0.7228(12) 0.4476(7)
Pt1_3 Pt 1.000000 0.000000 0.500000
C1 C 0.7984(14) 0.1734(14) 0.5376(8)
N1 N 0.6830(12) 0.2772(12) 0.5524(7)
N3 N 0.3340(13) 0.4597(12) 0.6598(7)
C3 C 0.1420(17) 0.4911(16) 0.6733(9)
C4 C 0.4278(19) 0.4304(17) 0.7439(9)
H1 H 0.073913 0.508610 0.613505
C5 C 0.0397(17) 0.4990(18) 0.7692(9)
C6 C 0.3342(19) 0.4336(18) 0.8447(9)
H2 H 0.562941 0.406390 0.735345
C7 C 0.1422(19) 0.4736(16) 0.8577(8)
H4 H 0.404428 0.408045 0.903699
C8 C 0.042(2) 0.4914(17) 0.9591(10)
N8 N 0.6995(13) 0.6837(12) 0.5379(7)
N9 N 0.6660(13) 0.5403(12) 0.3402(7)
Pt1_4 Pt 1.000000 1.000000 0.500000
C10 C 0.8069(14) 0.8001(13) 0.5261(8)
C11 C 0.958(2) 0.5086(17) 0.0409(10)
C12 C 0.8578(19) 0.5264(16) 0.1423(8)
C13 C 0.9603(17) 0.5010(18) 0.2308(9)
C14 C 0.6658(19) 0.5664(18) 0.1553(9)
C15 C 0.8580(17) 0.5089(16) 0.3267(9)
H6 H 0.595572 0.591955 0.096301
C16 C 0.5722(19) 0.5696(17) 0.2561(9)
H7 H 0.926087 0.491390 0.386495
H8 H 0.437059 0.593610 0.264655
H5 H 0.095941 0.479013 0.224086
H3 H 0.904059 0.520987 0.775914
loop_
_geom_bond_atom_site_label_1
_geom_bond_atom_site_label_2
_geom_bond_site_symmetry_1
_geom_bond_site_symmetry_2
C2 Pt1 1_555 1_555
N2 C2 1_555 1_555
Fe2 N2 1_555 1_555
C9 Pt1_2 1_555 1_555
N4 C9 1_555 1_555
Fe2 N4 1_555 1_555
Pt1_3 C1 1_555 1_555
C1 N1 1_555 1_555
N1 Fe2 1_555 1_555
Fe2 N3 1_555 1_555
N3 C3 1_555 1_555
C3 H1 1_555 1_555
C4 N3 1_555 1_555
C5 C3 1_555 1_555
C6 C4 1_555 1_555
H2 C4 1_555 1_555
C7 C5 1_555 1_555
H4 C6 1_555 1_555
C8 C7 1_555 1_555
N8 Fe2 1_555 1_555
N9 Fe2 1_555 1_555
C6 C7 1_555 1_555
C10 Pt1_4 1_555 1_555
N8 C10 1_555 1_555
C12 C11 1_555 1_555
C13 C12 1_555 1_555
C14 C12 1_555 1_555
C15 C13 1_555 1_555
H6 C14 1_555 1_555
C16 C14 1_555 1_555
N9 C15 1_555 1_555
H7 C15 1_555 1_555
H8 C16 1_555 1_555
C16 N9 1_555 1_555

#END
