
###############################################################################
#
# This file contains modified crystal structure data generated from the
# MOF subset of the Cambridge Structural Database (CSD) v543 
# hosted by the Cambridge Crystallographic Data Centre (CCDC).
#
# This work is licensed under the Creative Commons
# Attribution-NonCommercial-ShareAlike 4.0 International License.
# To view a copy of this license, visit
# http://creativecommons.org/licenses/by-nc-sa/4.0/
# or send a letter to
# Creative Commons, PO Box 1866, Mountain View, CA 94042, USA.
#
# CIF created using the CSD Python API on 29 September 2022
# The structure has been converted into the P1 space group
# The structure has a 3D framework
# The original CSD entry IWELOM is in the tetragonal crystal system
# The framework has been calculated to contain at least 10.0% void space
# The void calculation uses a probe of radius 1.32A, grid spacing 0.4
#
###############################################################################

data_IWELOM
_chemical_formula_moiety         '(C80 H48 Co30 N64 O46)n'
_symmetry_cell_setting           triclinic
_symmetry_space_group_name_H-M   'P 1'
_symmetry_Int_Tables_number      1
_space_group_name_Hall           'P 1'
loop_
_symmetry_equiv_pos_site_id
_symmetry_equiv_pos_as_xyz
1 x,y,z
_cell_length_a                   20.7546(12)
_cell_length_b                   20.7546(12)
_cell_length_c                   8.4502(9)
_cell_angle_alpha                90
_cell_angle_beta                 90
_cell_angle_gamma                90
_cell_volume                     3639.95
loop_
_atom_site_label
_atom_site_type_symbol
_atom_site_fract_x
_atom_site_fract_y
_atom_site_fract_z
Co1 Co 0.0000 0.0000 0.0000
O9 O 0.0421(2) 0.0319(2) 0.2125(5)
Co1_2 Co -0.0000 -0.0000 1.0000
Co2 Co 0.00587(4) 0.04444(4) 0.63986(9)
O2 O 0.05779(19) 0.04834(19) 0.8502(5)
N9 N 0.0660(3) 0.1100(3) 0.5252(6)
Co1_3 Co 0.0000 1.0000 0.0000
O6 O 0.05380(19) 0.96973(19) 0.5476(5)
N12 N 0.0589(3) 0.8902(3) 0.2665(6)
Co1_4 Co -0.0000 1.0000 1.0000
N7 N 0.0656(3) 0.9207(3) 0.9913(6)
Co1_5 Co 1.0000 0.0000 0.0000
Co4 Co 0.7500 0.2500 0.2500
O5 O 0.94620(19) 0.03027(19) 0.4524(5)
O8 O 0.7819(2) 0.2079(2) 0.0375(5)
N5 N 0.8541(3) 0.1370(3) 0.1440(6)
H4 H 0.8369 0.1441 0.2349
N6 N 0.9344(3) 0.0793(3) 0.0087(6)
C6 C 0.9028(3) 0.0933(4) 0.1385(8)
H5 H 0.9143 0.0723 0.2315
C9 C 0.8294(3) 0.1713(3) 0.0156(8)
Co1_6 Co 1.0000 -0.0000 1.0000
Co8 Co 0.70556(4) 0.25587(4) 0.88986(9)
Co9 Co 0.79444(4) 0.24413(4) 0.61014(9)
N8 N 0.8600(3) 0.1840(3) 0.7248(6)
N11 N 0.9411(3) 0.1098(3) 0.7335(6)
C7 C 0.9151(3) 0.1141(3) 0.8791(7)
C8 C 0.8649(3) 0.1594(3) 0.8769(7)
C10 C 0.9065(3) 0.1529(3) 0.6484(8)
H6 H 0.9148 0.1604 0.5419
Co1_7 Co 1.0000 1.0000 0.0000
Co5 Co 0.99413(4) 0.95556(4) 0.36014(9)
O7 O 0.94221(19) 0.95166(19) 0.1498(5)
N10 N 0.9340(3) 0.8900(3) 0.4748(6)
Co1_8 Co 1.0000 1.0000 1.0000
O3 O 0.9579(2) 0.9681(2) 0.7875(5)
N1 N 0.8870(3) 0.8959(3) 0.8940(6)
H1 H 0.8941 0.9131 0.9849
N2 N 0.8293(3) 0.8156(3) 0.7587(6)
N4 N 0.8598(3) 0.8089(3) 0.4835(6)
C1 C 0.8433(4) 0.8472(3) 0.8885(8)
H2 H 0.8223 0.8357 0.9815
C2 C 0.8641(3) 0.8349(3) 0.6291(7)
C3 C 0.9094(3) 0.8851(3) 0.6269(7)
C4 C 0.9213(3) 0.9206(3) 0.7656(8)
C5 C 0.9029(3) 0.8435(3) 0.3984(8)
H3 H 0.9104 0.8352 0.2919
Co3 Co 0.7500 0.7500 0.7500
Co7 Co 0.79444(4) 0.74413(4) 0.38986(9)
O6_2 O 0.44620(19) 0.03027(19) 0.0476(5)
Co1_9 Co 0.5000 -0.0000 0.5000
O3_2 O 0.5421(2) 0.0319(2) 0.2875(5)
N1_2 N 0.6130(3) 0.1041(3) 0.3940(6)
H1_2 H 0.6059 0.0869 0.4849
N2_2 N 0.6707(3) 0.1844(3) 0.2587(6)
C1_2 C 0.6567(4) 0.1528(3) 0.3885(8)
H2_2 H 0.6777 0.1643 0.4815
C2_2 C 0.6359(3) 0.1651(3) 0.1291(7)
C3_2 C 0.5906(3) 0.1149(3) 0.1269(7)
C4_2 C 0.5787(3) 0.0794(3) 0.2656(8)
Co5_2 Co 0.50587(4) 0.04444(4) 0.86014(9)
O7_2 O 0.55779(19) 0.04834(19) 0.6498(5)
N7_2 N 0.4344(3) 0.0793(3) 0.4913(6)
N10_2 N 0.5660(3) 0.1100(3) 0.9748(6)
N12_2 N 0.4411(3) 0.1098(3) 0.7665(6)
N4_2 N 0.6402(3) 0.1911(3) 0.9835(6)
C5_2 C 0.5971(3) 0.1565(3) 0.8984(8)
H3_2 H 0.5896 0.1648 0.7919
Co1_10 Co 0.5000 1.0000 0.5000
Co2_2 Co 0.49413(4) 0.95556(4) 0.13986(9)
O2_2 O 0.44221(19) 0.95166(19) 0.3502(5)
Co9_2 Co 0.70556(4) 0.75587(4) 0.11014(9)
O5_2 O 0.55380(19) 0.96973(19) 0.9524(5)
O8_2 O 0.7181(2) 0.7921(2) 0.5375(5)
O9_2 O 0.4579(2) 0.9681(2) 0.7125(5)
N5_2 N 0.6459(3) 0.8630(3) 0.6440(6)
H4_2 H 0.6631 0.8559 0.7349
N6_2 N 0.5656(3) 0.9207(3) 0.5087(6)
N8_2 N 0.6400(3) 0.8160(3) 0.2248(6)
N9_2 N 0.4340(3) 0.8900(3) 0.0252(6)
N11_2 N 0.5589(3) 0.8902(3) 0.2335(6)
C6_2 C 0.5972(3) 0.9067(4) 0.6385(8)
H5_2 H 0.5857 0.9277 0.7315
C7_2 C 0.5849(3) 0.8859(3) 0.3791(7)
C8_2 C 0.6351(3) 0.8406(3) 0.3769(7)
C9_2 C 0.6706(3) 0.8287(3) 0.5156(8)
C10_2 C 0.5935(3) 0.8471(3) 0.1484(8)
H6_2 H 0.5852 0.8396 0.0419
O2_3 O 0.70166(19) 0.30779(19) 0.1002(5)
O5_3 O 0.71973(19) 0.19620(19) 0.7024(5)
O6_3 O 0.78027(19) 0.30380(19) 0.7976(5)
O7_3 O 0.79834(19) 0.19221(19) 0.3998(5)
O9_3 O 0.7181(2) 0.2921(2) 0.4625(5)
N7_3 N 0.8293(3) 0.3156(3) 0.2413(6)
N12_3 N 0.8598(3) 0.3089(3) 0.5165(6)
N9_3 N 0.6400(3) 0.3160(3) 0.7752(6)
O5_4 O 0.78027(19) 0.80380(19) 0.2024(5)
O6_4 O 0.71973(19) 0.69620(19) 0.2976(5)
N12_4 N 0.6402(3) 0.6911(3) 0.0165(6)
O2_4 O 0.79834(19) 0.69221(19) 0.6002(5)
O7_4 O 0.70166(19) 0.80779(19) 0.8998(5)
O9_4 O 0.7819(2) 0.7079(2) 0.9625(5)
N7_4 N 0.6707(3) 0.6844(3) 0.7413(6)
N9_4 N 0.8600(3) 0.6840(3) 0.2752(6)
O6_5 O 0.55380(19) 0.46973(19) 0.0476(5)
Co1_11 Co 0.5000 0.5000 0.5000
Co2_3 Co 0.50587(4) 0.54444(4) 0.13986(9)
O2_5 O 0.55779(19) 0.54834(19) 0.3502(5)
O3_3 O 0.4579(2) 0.4681(2) 0.2875(5)
N1_3 N 0.3870(3) 0.3959(3) 0.3940(6)
H1_3 H 0.3941 0.4131 0.4849
N2_3 N 0.3293(3) 0.3156(3) 0.2587(6)
C1_3 C 0.3433(4) 0.3472(3) 0.3885(8)
H2_3 H 0.3223 0.3357 0.4815
C2_3 C 0.3641(3) 0.3349(3) 0.1291(7)
C3_3 C 0.4094(3) 0.3851(3) 0.1269(7)
C4_3 C 0.4213(3) 0.4206(3) 0.2656(8)
Co3_2 Co 0.2500 0.2500 0.2500
Co4_2 Co 0.2500 0.7500 0.7500
Co5_3 Co 0.49413(4) 0.45556(4) 0.86014(9)
Co8_2 Co 0.20556(4) 0.75587(4) 0.38986(9)
Co9_3 Co 0.29444(4) 0.74413(4) 0.11014(9)
O5_5 O 0.44620(19) 0.53027(19) 0.9524(5)
O7_5 O 0.44221(19) 0.45166(19) 0.6498(5)
O8_3 O 0.2819(2) 0.7079(2) 0.5375(5)
O9_5 O 0.5421(2) 0.5319(2) 0.7125(5)
N5_3 N 0.3541(3) 0.6370(3) 0.6440(6)
H4_3 H 0.3369 0.6441 0.7349
N6_3 N 0.4344(3) 0.5793(3) 0.5087(6)
N7_5 N 0.5656(3) 0.4207(3) 0.4913(6)
N8_3 N 0.3600(3) 0.6840(3) 0.2248(6)
N9_5 N 0.5660(3) 0.6100(3) 0.0252(6)
N10_3 N 0.4340(3) 0.3900(3) 0.9748(6)
N11_3 N 0.4411(3) 0.6098(3) 0.2335(6)
N12_5 N 0.5589(3) 0.3902(3) 0.7665(6)
C6_3 C 0.4028(3) 0.5933(4) 0.6385(8)
H5_3 H 0.4143 0.5723 0.7315
C7_3 C 0.4151(3) 0.6141(3) 0.3791(7)
C8_3 C 0.3649(3) 0.6594(3) 0.3769(7)
C9_3 C 0.3294(3) 0.6713(3) 0.5156(8)
C10_3 C 0.4065(3) 0.6529(3) 0.1484(8)
H6_3 H 0.4148 0.6604 0.0419
N4_3 N 0.3598(3) 0.3089(3) 0.9835(6)
C5_3 C 0.4029(3) 0.3435(3) 0.8984(8)
H3_3 H 0.4104 0.3352 0.7919
Co7_2 Co 0.29444(4) 0.24413(4) 0.88986(9)
Co1_12 Co 0.0000 0.5000 0.0000
Co5_4 Co 0.00587(4) 0.54444(4) 0.36014(9)
O5_6 O 0.05380(19) 0.46973(19) 0.4524(5)
O7_6 O 0.05779(19) 0.54834(19) 0.1498(5)
O8_4 O 0.2181(2) 0.2921(2) 0.0375(5)
N5_4 N 0.1459(3) 0.3630(3) 0.1440(6)
H4_4 H 0.1631 0.3559 0.2349
N6_4 N 0.0656(3) 0.4207(3) 0.0087(6)
N10_4 N 0.0660(3) 0.6100(3) 0.4748(6)
C6_4 C 0.0972(3) 0.4067(4) 0.1385(8)
H5_4 H 0.0857 0.4277 0.2315
C9_4 C 0.1706(3) 0.3287(3) 0.0156(8)
Co1_13 Co -0.0000 0.5000 1.0000
O3_4 O 0.0421(2) 0.5319(2) 0.7875(5)
N1_4 N 0.1130(3) 0.6041(3) 0.8940(6)
H1_4 H 0.1059 0.5869 0.9849
N2_4 N 0.1707(3) 0.6844(3) 0.7587(6)
N4_4 N 0.1402(3) 0.6911(3) 0.4835(6)
C1_4 C 0.1567(4) 0.6528(3) 0.8885(8)
H2_4 H 0.1777 0.6643 0.9815
C2_4 C 0.1359(3) 0.6651(3) 0.6291(7)
C3_4 C 0.0906(3) 0.6149(3) 0.6269(7)
C4_4 C 0.0787(3) 0.5794(3) 0.7656(8)
C5_4 C 0.0971(3) 0.6565(3) 0.3984(8)
H3_4 H 0.0896 0.6648 0.2919
Co9_4 Co 0.20556(4) 0.25587(4) 0.61014(9)
N8_4 N 0.1400(3) 0.3160(3) 0.7248(6)
N11_4 N 0.0589(3) 0.3902(3) 0.7335(6)
C7_4 C 0.0849(3) 0.3859(3) 0.8791(7)
C8_4 C 0.1351(3) 0.3406(3) 0.8769(7)
C10_4 C 0.0935(3) 0.3471(3) 0.6484(8)
H6_4 H 0.0852 0.3396 0.5419
Co1_14 Co 1.0000 0.5000 0.0000
O6_6 O 0.94620(19) 0.53027(19) 0.5476(5)
O9_6 O 0.9579(2) 0.4681(2) 0.2125(5)
N12_6 N 0.9411(3) 0.6098(3) 0.2665(6)
Co1_15 Co 1.0000 0.5000 1.0000
Co2_4 Co 0.99413(4) 0.45556(4) 0.63986(9)
O2_6 O 0.94221(19) 0.45166(19) 0.8502(5)
N7_6 N 0.9344(3) 0.5793(3) 0.9913(6)
N9_6 N 0.9340(3) 0.3900(3) 0.5252(6)
O5_7 O 0.21973(19) 0.69620(19) 0.2024(5)
O6_7 O 0.28027(19) 0.80380(19) 0.2976(5)
N12_7 N 0.3598(3) 0.8089(3) 0.0165(6)
O2_7 O 0.20166(19) 0.80779(19) 0.6002(5)
O7_7 O 0.29834(19) 0.69221(19) 0.8998(5)
O9_7 O 0.2181(2) 0.7921(2) 0.9625(5)
N7_7 N 0.3293(3) 0.8156(3) 0.7413(6)
N9_7 N 0.1400(3) 0.8160(3) 0.2752(6)
O2_8 O 0.29834(19) 0.19221(19) 0.1002(5)
O5_8 O 0.28027(19) 0.30380(19) 0.7024(5)
O6_8 O 0.21973(19) 0.19620(19) 0.7976(5)
O7_8 O 0.20166(19) 0.30779(19) 0.3998(5)
O9_8 O 0.2819(2) 0.2079(2) 0.4625(5)
N7_8 N 0.1707(3) 0.1844(3) 0.2413(6)
N12_8 N 0.1402(3) 0.1911(3) 0.5165(6)
N9_8 N 0.3600(3) 0.1840(3) 0.7752(6)
N1_5 N 0.1130(3) 0.1041(3) 0.1060(6)
H1_5 H 0.1059 0.0869 0.0151
C1_5 C 0.1567(4) 0.1528(3) 0.1115(8)
H2_5 H 0.1777 0.1643 0.0185
C2_5 C 0.1359(3) 0.1651(3) 0.3709(7)
C3_5 C 0.0906(3) 0.1149(3) 0.3731(7)
C4_5 C 0.0787(3) 0.0794(3) 0.2344(8)
C5_5 C 0.0971(3) 0.1565(3) 0.6016(8)
H3_5 H 0.0896 0.1648 0.7081
C7_5 C 0.0849(3) 0.8859(3) 0.1209(7)
C8_5 C 0.1351(3) 0.8406(3) 0.1231(7)
C10_5 C 0.0935(3) 0.8471(3) 0.3516(8)
H6_5 H 0.0852 0.8396 0.4581
N5_5 N 0.1459(3) 0.8630(3) 0.8560(6)
H4_5 H 0.1631 0.8559 0.7651
C6_5 C 0.0972(3) 0.9067(4) 0.8615(8)
H5_5 H 0.0857 0.9277 0.7685
C9_5 C 0.1706(3) 0.8287(3) 0.9844(8)
N5_6 N 0.3541(3) 0.1370(3) 0.3560(6)
H4_6 H 0.3369 0.1441 0.2651
C6_6 C 0.4028(3) 0.0933(4) 0.3615(8)
H5_6 H 0.4143 0.0723 0.2685
C7_6 C 0.4151(3) 0.1141(3) 0.6209(7)
C8_6 C 0.3649(3) 0.1594(3) 0.6231(7)
C9_6 C 0.3294(3) 0.1713(3) 0.4844(8)
C10_6 C 0.4065(3) 0.1529(3) 0.8516(8)
H6_6 H 0.4148 0.1604 0.9581
C5_6 C 0.4029(3) 0.8435(3) 0.1016(8)
H3_6 H 0.4104 0.8352 0.2081
N1_6 N 0.3870(3) 0.8959(3) 0.6060(6)
H1_6 H 0.3941 0.9131 0.5151
C1_6 C 0.3433(4) 0.8472(3) 0.6115(8)
H2_6 H 0.3223 0.8357 0.5185
C2_6 C 0.3641(3) 0.8349(3) 0.8709(7)
C3_6 C 0.4094(3) 0.8851(3) 0.8731(7)
C4_6 C 0.4213(3) 0.9206(3) 0.7344(8)
C5_7 C 0.5971(3) 0.6565(3) 0.1016(8)
H3_7 H 0.5896 0.6648 0.2081
N1_7 N 0.6130(3) 0.6041(3) 0.6060(6)
H1_7 H 0.6059 0.5869 0.5151
C1_7 C 0.6567(4) 0.6528(3) 0.6115(8)
H2_7 H 0.6777 0.6643 0.5185
C2_7 C 0.6359(3) 0.6651(3) 0.8709(7)
C3_7 C 0.5906(3) 0.6149(3) 0.8731(7)
C4_7 C 0.5787(3) 0.5794(3) 0.7344(8)
N5_7 N 0.6459(3) 0.3630(3) 0.3560(6)
H4_7 H 0.6631 0.3559 0.2651
C6_7 C 0.5972(3) 0.4067(4) 0.3615(8)
H5_7 H 0.5857 0.4277 0.2685
C7_7 C 0.5849(3) 0.3859(3) 0.6209(7)
C8_7 C 0.6351(3) 0.3406(3) 0.6231(7)
C9_7 C 0.6706(3) 0.3287(3) 0.4844(8)
C10_7 C 0.5935(3) 0.3471(3) 0.8516(8)
H6_7 H 0.5852 0.3396 0.9581
N1_8 N 0.8870(3) 0.3959(3) 0.1060(6)
H1_8 H 0.8941 0.4131 0.0151
C1_8 C 0.8433(4) 0.3472(3) 0.1115(8)
H2_8 H 0.8223 0.3357 0.0185
C2_8 C 0.8641(3) 0.3349(3) 0.3709(7)
C3_8 C 0.9094(3) 0.3851(3) 0.3731(7)
C4_8 C 0.9213(3) 0.4206(3) 0.2344(8)
C5_8 C 0.9029(3) 0.3435(3) 0.6016(8)
H3_8 H 0.9104 0.3352 0.7081
C7_8 C 0.9151(3) 0.6141(3) 0.1209(7)
C8_8 C 0.8649(3) 0.6594(3) 0.1231(7)
C10_8 C 0.9065(3) 0.6529(3) 0.3516(8)
H6_8 H 0.9148 0.6604 0.4581
N5_8 N 0.8541(3) 0.6370(3) 0.8560(6)
H4_8 H 0.8369 0.6441 0.7651
C6_8 C 0.9028(3) 0.5933(4) 0.8615(8)
H5_8 H 0.9143 0.5723 0.7685
C9_8 C 0.8294(3) 0.6713(3) 0.9844(8)
loop_
_geom_bond_atom_site_label_1
_geom_bond_atom_site_label_2
_geom_bond_site_symmetry_1
_geom_bond_site_symmetry_2
O9 Co1 1_555 1_555
Co1_2 O2 1_555 1_555
O2 Co2 1_555 1_555
N9 Co2 1_555 1_555
N7 Co1_4 1_555 1_555
Co4 O8 1_555 1_555
O8 C9 1_555 1_555
N5 H4 1_555 1_555
N6 Co1_5 1_555 1_555
C6 N5 1_555 1_555
H5 C6 1_555 1_555
C9 N5 1_555 1_555
N6 C6 1_555 1_555
Co9 N8 1_555 1_555
N8 C8 1_555 1_555
C8 C7 1_555 1_555
C10 N8 1_555 1_555
H6 C10 1_555 1_555
N11 C7 1_555 1_555
N11 C10 1_555 1_555
O7 Co1_7 1_555 1_555
N10 Co5 1_555 1_555
Co5 O7 1_555 1_555
O3 Co1_8 1_555 1_555
N1 H1 1_555 1_555
N2 C1 1_555 1_555
N10 C3 1_555 1_555
N4 C2 1_555 1_555
C1 N1 1_555 1_555
H2 C1 1_555 1_555
C2 N2 1_555 1_555
C3 C2 1_555 1_555
C4 O3 1_555 1_555
C5 N10 1_555 1_555
H3 C5 1_555 1_555
Co3 N2 1_555 1_555
Co7 N4 1_555 1_555
N1 C4 1_555 1_555
N4 C5 1_555 1_555
C3 C4 1_555 1_555
O3_2 Co1_9 1_555 1_555
N1_2 H1_2 1_555 1_555
N2_2 C1_2 1_555 1_555
C1_2 N1_2 1_555 1_555
H2_2 C1_2 1_555 1_555
C2_2 N2_2 1_555 1_555
C3_2 C2_2 1_555 1_555
C4_2 O3_2 1_555 1_555
Co4 N2_2 1_555 1_555
O7_2 Co1_9 1_555 1_555
N7_2 Co1_9 1_555 1_555
N10_2 Co5_2 1_555 1_555
N12_2 Co5_2 1_555 1_555
N1_2 C4_2 1_555 1_555
C3_2 C4_2 1_555 1_555
Co5_2 O7_2 1_555 1_555
C5_2 N10_2 1_555 1_555
H3_2 C5_2 1_555 1_555
Co8 N4_2 1_555 1_555
N4_2 C5_2 1_555 1_555
Co1_10 O2_2 1_555 1_555
O2_2 Co2_2 1_555 1_555
Co3 O8_2 1_555 1_555
Co7 O8_2 1_555 1_555
Co9_2 N8_2 1_555 1_555
O8_2 C9_2 1_555 1_555
O9_2 Co1_10 1_555 1_555
N5_2 H4_2 1_555 1_555
N6_2 Co1_10 1_555 1_555
N8_2 C8_2 1_555 1_555
N9_2 Co2_2 1_555 1_555
N11_2 Co2_2 1_555 1_555
C6_2 N5_2 1_555 1_555
H5_2 C6_2 1_555 1_555
C7_2 N6_2 1_555 1_555
C8_2 C7_2 1_555 1_555
C9_2 N5_2 1_555 1_555
C10_2 N8_2 1_555 1_555
H6_2 C10_2 1_555 1_555
N6_2 C6_2 1_555 1_555
N11_2 C7_2 1_555 1_555
N11_2 C10_2 1_555 1_555
C8_2 C9_2 1_555 1_555
Co4 O2_3 1_555 1_555
Co9 O5_3 1_555 1_555
O6_3 Co9 1_555 1_555
O7_3 Co4 1_555 1_555
O9_3 Co4 1_555 1_555
N7_3 Co4 1_555 1_555
N12_3 Co9 1_555 1_555
Co9 O7_3 1_555 1_555
Co9 O9_3 1_555 1_555
Co8 O6_3 1_555 1_555
O5_3 Co8 1_555 1_555
N9_3 Co8 1_555 1_555
Co9_2 O5_4 1_555 1_555
O6_4 Co9_2 1_555 1_555
N12_4 Co9_2 1_555 1_555
Co3 O2_4 1_555 1_555
Co7 O6_4 1_555 1_555
O2_4 Co7 1_555 1_555
O5_4 Co7 1_555 1_555
O7_4 Co3 1_555 1_555
O9_4 Co3 1_555 1_555
N7_4 Co3 1_555 1_555
N9_4 Co7 1_555 1_555
Co1_11 O2_5 1_555 1_555
Co2_3 O6_5 1_555 1_555
O2_5 Co2_3 1_555 1_555
O3_3 Co1_11 1_555 1_555
N1_3 H1_3 1_555 1_555
N2_3 C1_3 1_555 1_555
C1_3 N1_3 1_555 1_555
H2_3 C1_3 1_555 1_555
C2_3 N2_3 1_555 1_555
C3_3 C2_3 1_555 1_555
C4_3 O3_3 1_555 1_555
Co3_2 N2_3 1_555 1_555
Co4_2 O8_3 1_555 1_555
Co5_3 O5_5 1_555 1_555
Co8_2 O8_3 1_555 1_555
Co9_3 N8_3 1_555 1_555
O7_5 Co1_11 1_555 1_555
O8_3 C9_3 1_555 1_555
O9_5 Co1_11 1_555 1_555
N5_3 H4_3 1_555 1_555
N6_3 Co1_11 1_555 1_555
N7_5 Co1_11 1_555 1_555
N8_3 C8_3 1_555 1_555
N9_5 Co2_3 1_555 1_555
N10_3 Co5_3 1_555 1_555
N11_3 Co2_3 1_555 1_555
N12_5 Co5_3 1_555 1_555
C6_3 N5_3 1_555 1_555
H5_3 C6_3 1_555 1_555
C7_3 N6_3 1_555 1_555
C8_3 C7_3 1_555 1_555
C9_3 N5_3 1_555 1_555
C10_3 N8_3 1_555 1_555
H6_3 C10_3 1_555 1_555
Co2_3 O3_3 1_555 1_555
N1_3 C4_3 1_555 1_555
C3_3 C4_3 1_555 1_555
Co5_3 O7_5 1_555 1_555
Co5_3 O9_5 1_555 1_555
N6_3 C6_3 1_555 1_555
N11_3 C7_3 1_555 1_555
N11_3 C10_3 1_555 1_555
C8_3 C9_3 1_555 1_555
C5_3 N10_3 1_555 1_555
H3_3 C5_3 1_555 1_555
Co7_2 N4_3 1_555 1_555
N4_3 C5_3 1_555 1_555
Co3_2 O8_4 1_555 1_555
Co5_4 O5_6 1_555 1_555
O7_6 Co1_12 1_555 1_555
O8_4 C9_4 1_555 1_555
N5_4 H4_4 1_555 1_555
N6_4 Co1_12 1_555 1_555
N10_4 Co5_4 1_555 1_555
C6_4 N5_4 1_555 1_555
H5_4 C6_4 1_555 1_555
C9_4 N5_4 1_555 1_555
Co5_4 O7_6 1_555 1_555
N6_4 C6_4 1_555 1_555
O3_4 Co1_13 1_555 1_555
N1_4 H1_4 1_555 1_555
N2_4 C1_4 1_555 1_555
N10_4 C3_4 1_555 1_555
N4_4 C2_4 1_555 1_555
C1_4 N1_4 1_555 1_555
H2_4 C1_4 1_555 1_555
C2_4 N2_4 1_555 1_555
C3_4 C2_4 1_555 1_555
C4_4 O3_4 1_555 1_555
C5_4 N10_4 1_555 1_555
H3_4 C5_4 1_555 1_555
Co4_2 N2_4 1_555 1_555
Co8_2 N4_4 1_555 1_555
Co9_4 N8_4 1_555 1_555
N8_4 C8_4 1_555 1_555
C8_4 C7_4 1_555 1_555
C10_4 N8_4 1_555 1_555
H6_4 C10_4 1_555 1_555
N1_4 C4_4 1_555 1_555
N4_4 C5_4 1_555 1_555
C3_4 C4_4 1_555 1_555
N11_4 C7_4 1_555 1_555
N11_4 C10_4 1_555 1_555
O9_6 Co1_14 1_555 1_555
Co1_15 O2_6 1_555 1_555
Co2_4 O6_6 1_555 1_555
O2_6 Co2_4 1_555 1_555
N7_6 Co1_15 1_555 1_555
N9_6 Co2_4 1_555 1_555
Co9_3 O5_7 1_555 1_555
O6_7 Co9_3 1_555 1_555
N12_7 Co9_3 1_555 1_555
Co4_2 O2_7 1_555 1_555
Co8_2 O6_7 1_555 1_555
O2_7 Co8_2 1_555 1_555
O5_7 Co8_2 1_555 1_555
O7_7 Co4_2 1_555 1_555
O9_7 Co4_2 1_555 1_555
N7_7 Co4_2 1_555 1_555
N9_7 Co8_2 1_555 1_555
Co3_2 O2_8 1_555 1_555
Co9_4 O5_8 1_555 1_555
O6_8 Co9_4 1_555 1_555
O7_8 Co3_2 1_555 1_555
O9_8 Co3_2 1_555 1_555
N7_8 Co3_2 1_555 1_555
N12_8 Co9_4 1_555 1_555
Co9_4 O7_8 1_555 1_555
Co9_4 O9_8 1_555 1_555
Co7_2 O6_8 1_555 1_555
O5_8 Co7_2 1_555 1_555
N9_8 Co7_2 1_555 1_555
N1_5 H1_5 1_555 1_555
N7_8 C1_5 1_555 1_555
N9 C3_5 1_555 1_555
N12_8 C2_5 1_555 1_555
C1_5 N1_5 1_555 1_555
H2_5 C1_5 1_555 1_555
C2_5 N7_8 1_555 1_555
C3_5 C2_5 1_555 1_555
C4_5 O9 1_555 1_555
C5_5 N9 1_555 1_555
H3_5 C5_5 1_555 1_555
N1_5 C4_5 1_555 1_555
N12_8 C5_5 1_555 1_555
C3_5 C4_5 1_555 1_555
N9_7 C8_5 1_555 1_555
C8_5 C7_5 1_555 1_555
C10_5 N9_7 1_555 1_555
H6_5 C10_5 1_555 1_555
N12 C7_5 1_555 1_555
N12 C10_5 1_555 1_555
O9_7 C9_5 1_555 1_555
N5_5 H4_5 1_555 1_555
C6_5 N5_5 1_555 1_555
H5_5 C6_5 1_555 1_555
C9_5 N5_5 1_555 1_555
N7 C6_5 1_555 1_555
O9_8 C9_6 1_555 1_555
N5_6 H4_6 1_555 1_555
N9_8 C8_6 1_555 1_555
C6_6 N5_6 1_555 1_555
H5_6 C6_6 1_555 1_555
C7_6 N7_2 1_555 1_555
C8_6 C7_6 1_555 1_555
C9_6 N5_6 1_555 1_555
C10_6 N9_8 1_555 1_555
H6_6 C10_6 1_555 1_555
N7_2 C6_6 1_555 1_555
N12_2 C7_6 1_555 1_555
N12_2 C10_6 1_555 1_555
C8_6 C9_6 1_555 1_555
C5_6 N9_2 1_555 1_555
H3_6 C5_6 1_555 1_555
N12_7 C5_6 1_555 1_555
N1_6 H1_6 1_555 1_555
N7_7 C1_6 1_555 1_555
C1_6 N1_6 1_555 1_555
H2_6 C1_6 1_555 1_555
C2_6 N7_7 1_555 1_555
C3_6 C2_6 1_555 1_555
C4_6 O9_2 1_555 1_555
N1_6 C4_6 1_555 1_555
C3_6 C4_6 1_555 1_555
C5_7 N9_5 1_555 1_555
H3_7 C5_7 1_555 1_555
N12_4 C5_7 1_555 1_555
N1_7 H1_7 1_555 1_555
N7_4 C1_7 1_555 1_555
C1_7 N1_7 1_555 1_555
H2_7 C1_7 1_555 1_555
C2_7 N7_4 1_555 1_555
C3_7 C2_7 1_555 1_555
C4_7 O9_5 1_555 1_555
O9_3 C9_7 1_555 1_555
N5_7 H4_7 1_555 1_555
N9_3 C8_7 1_555 1_555
C6_7 N5_7 1_555 1_555
H5_7 C6_7 1_555 1_555
C7_7 N7_5 1_555 1_555
C8_7 C7_7 1_555 1_555
C9_7 N5_7 1_555 1_555
C10_7 N9_3 1_555 1_555
H6_7 C10_7 1_555 1_555
N1_7 C4_7 1_555 1_555
C3_7 C4_7 1_555 1_555
N7_5 C6_7 1_555 1_555
N12_5 C7_7 1_555 1_555
N12_5 C10_7 1_555 1_555
C8_7 C9_7 1_555 1_555
N1_8 H1_8 1_555 1_555
N7_3 C1_8 1_555 1_555
N9_6 C3_8 1_555 1_555
N12_3 C2_8 1_555 1_555
C1_8 N1_8 1_555 1_555
H2_8 C1_8 1_555 1_555
C2_8 N7_3 1_555 1_555
C3_8 C2_8 1_555 1_555
C4_8 O9_6 1_555 1_555
C5_8 N9_6 1_555 1_555
H3_8 C5_8 1_555 1_555
N9_4 C8_8 1_555 1_555
C8_8 C7_8 1_555 1_555
C10_8 N9_4 1_555 1_555
H6_8 C10_8 1_555 1_555
N1_8 C4_8 1_555 1_555
N12_3 C5_8 1_555 1_555
C3_8 C4_8 1_555 1_555
N12_6 C7_8 1_555 1_555
N12_6 C10_8 1_555 1_555
O9_4 C9_8 1_555 1_555
N5_8 H4_8 1_555 1_555
C6_8 N5_8 1_555 1_555
H5_8 C6_8 1_555 1_555
C9_8 N5_8 1_555 1_555
N7_6 C6_8 1_555 1_555

#END
