
###############################################################################
#
# This file contains modified crystal structure data generated from the
# MOF subset of the Cambridge Structural Database (CSD) v543 
# hosted by the Cambridge Crystallographic Data Centre (CCDC).
#
# This work is licensed under the Creative Commons
# Attribution-NonCommercial-ShareAlike 4.0 International License.
# To view a copy of this license, visit
# http://creativecommons.org/licenses/by-nc-sa/4.0/
# or send a letter to
# Creative Commons, PO Box 1866, Mountain View, CA 94042, USA.
#
# CIF created using the CSD Python API on 29 September 2022
# The structure has been converted into the P1 space group
# The structure has a 3D framework
# The original CSD entry IWELII is in the triclinic crystal system
# The framework has been calculated to contain at least 10.0% void space
# The void calculation uses a probe of radius 1.32A, grid spacing 0.4
#
###############################################################################

data_IWELII
_chemical_formula_moiety         '(C16 H8 Fe1 N6 Pt2)n'
_symmetry_cell_setting           triclinic
_symmetry_space_group_name_H-M   'P 1'
_symmetry_Int_Tables_number      1
_space_group_name_Hall           'P 1'
loop_
_symmetry_equiv_pos_site_id
_symmetry_equiv_pos_as_xyz
1 x,y,z
_cell_length_a                   6.8681(2)
_cell_length_b                   7.3161(2)
_cell_length_c                   13.4430(5)
_cell_angle_alpha                79.253(3)
_cell_angle_beta                 76.780(3)
_cell_angle_gamma                89.413(3)
_cell_volume                     645.674
loop_
_atom_site_label
_atom_site_type_symbol
_atom_site_fract_x
_atom_site_fract_y
_atom_site_fract_z
Fe1 Fe 0.500000 0.000000 0.500000
N7 N 0.6855(9) 0.1800(8) 0.5180(4)
N8 N 0.3268(9) 0.2013(8) 0.4700(4)
N9 N 0.6492(8) 0.0323(7) 0.3505(4)
H5 H 0.094807 0.998569 0.209067
Pt1 Pt 0.000000 0.500000 0.500000
C1 C 0.1996(10) 0.7001(10) 0.4864(5)
C2 C 0.2119(10) 0.3173(9) 0.4751(5)
N1 N 0.3145(9) 0.8200(8) 0.4820(4)
Fe1_2 Fe 0.500000 1.000000 0.500000
N3 N 0.3508(8) 0.9677(7) 0.6495(4)
C3 C 0.1527(11) 0.9843(10) 0.6749(5)
C4 C 0.4502(11) 0.9420(10) 0.7271(5)
H1 H 0.081068 0.993573 0.621560
C5 C 0.0461(12) 0.9886(11) 0.7760(6)
C6 C 0.3546(12) 0.9447(11) 0.8300(5)
H2 H 0.589730 0.921542 0.710738
C7 C 0.1506(12) 0.9736(11) 0.8550(5)
H4 H 0.428330 0.926887 0.882634
C8 C 0.0465(12) 0.9895(11) 0.9586(6)
N6 N 0.6732(9) 0.7987(8) 0.5300(4)
C11 C 0.9535(12) 0.0105(11) 0.0414(6)
C12 C 0.8494(12) 0.0264(11) 0.1450(5)
C13 C 0.9539(12) 0.0114(11) 0.2240(6)
C14 C 0.6454(12) 0.0553(11) 0.1700(5)
C15 C 0.8473(11) 0.0157(10) 0.3251(5)
H6 H 0.571670 0.073113 0.117366
C16 C 0.5498(11) 0.0580(10) 0.2729(5)
H7 H 0.918932 0.006427 0.378440
H8 H 0.410270 0.078458 0.289262
H3 H 0.905193 0.001431 0.790933
Pt1_2 Pt 1.000000 0.500000 0.500000
C9 C 0.8004(10) 0.2999(10) 0.5136(5)
C10 C 0.7881(10) 0.6827(9) 0.5249(5)
loop_
_geom_bond_atom_site_label_1
_geom_bond_atom_site_label_2
_geom_bond_site_symmetry_1
_geom_bond_site_symmetry_2
N7 Fe1 1_555 1_555
N8 Fe1 1_555 1_555
N9 Fe1 1_555 1_555
Pt1 C1 1_555 1_555
C1 N1 1_555 1_555
C2 Pt1 1_555 1_555
N1 Fe1_2 1_555 1_555
N8 C2 1_555 1_555
Fe1_2 N3 1_555 1_555
N3 C3 1_555 1_555
C3 H1 1_555 1_555
C4 N3 1_555 1_555
C5 C3 1_555 1_555
C6 C4 1_555 1_555
H2 C4 1_555 1_555
C7 C5 1_555 1_555
H4 C6 1_555 1_555
C8 C7 1_555 1_555
N6 Fe1_2 1_555 1_555
C6 C7 1_555 1_555
C12 C11 1_555 1_555
C13 C12 1_555 1_555
C14 C12 1_555 1_555
C15 C13 1_555 1_555
H6 C14 1_555 1_555
C16 C14 1_555 1_555
N9 C15 1_555 1_555
H7 C15 1_555 1_555
H8 C16 1_555 1_555
C16 N9 1_555 1_555
C9 Pt1_2 1_555 1_555
C10 Pt1_2 1_555 1_555
N7 C9 1_555 1_555
N6 C10 1_555 1_555

#END
