
###############################################################################
#
# This file contains modified crystal structure data generated from the
# MOF subset of the Cambridge Structural Database (CSD) v543 
# hosted by the Cambridge Crystallographic Data Centre (CCDC).
#
# This work is licensed under the Creative Commons
# Attribution-NonCommercial-ShareAlike 4.0 International License.
# To view a copy of this license, visit
# http://creativecommons.org/licenses/by-nc-sa/4.0/
# or send a letter to
# Creative Commons, PO Box 1866, Mountain View, CA 94042, USA.
#
# CIF created using the CSD Python API on 29 September 2022
# The structure has been converted into the P1 space group
# The structure has a 3D framework
# The original CSD entry IWENOO is in the monoclinic crystal system
# The framework has been calculated to contain at least 10.0% void space
# The void calculation uses a probe of radius 1.32A, grid spacing 0.4
#
###############################################################################

data_IWENOO
_chemical_formula_moiety         '(C112 H96 N16 O13 Zn2)n'
_symmetry_cell_setting           triclinic
_symmetry_space_group_name_H-M   'P 1'
_symmetry_Int_Tables_number      1
_space_group_name_Hall           'P 1'
loop_
_symmetry_equiv_pos_site_id
_symmetry_equiv_pos_as_xyz
1 x,y,z
_cell_length_a                   20.821(4)
_cell_length_b                   10.684(2)
_cell_length_c                   15.656(3)
_cell_angle_alpha                90
_cell_angle_beta                 127.10(3)
_cell_angle_gamma                90
_cell_volume                     2777.75
loop_
_atom_site_label
_atom_site_type_symbol
_atom_site_fract_x
_atom_site_fract_y
_atom_site_fract_z
H15 H 0.1332 0.1783 0.0351
C23 C 0.26641(17) 0.0184(2) 0.03942(19)
H20 H 0.3207 0.0436 0.0679
H21 H 0.2589 0.0350 0.0938
Zn3 Zn 0.0000 0.31185(3) 0.7500
N3 N 0.10001(13) 0.20064(19) 0.81904(17)
N5 N 0.20903(13) 0.09352(19) 0.94455(16)
C15 C 0.1045(2) 0.1249(3) 0.9733(3)
H13 H 0.0484 0.1465 0.9287
H14 H 0.1108 0.0393 0.9958
C16 C 0.13723(16) 0.1410(2) 0.9120(2)
C17 C 0.15036(16) 0.1892(2) 0.7885(2)
C18 C 0.1417(2) 0.2322(3) 0.6981(2)
H16 H 0.0964 0.2772 0.6450
C19 C 0.2031(2) 0.2052(4) 0.6905(3)
H17 H 0.1990 0.2330 0.6311
C20 C 0.2712(2) 0.1372(4) 0.7700(3)
H18 H 0.3114 0.1213 0.7624
C21 C 0.28010(18) 0.0935(3) 0.8584(3)
H19 H 0.3250 0.0471 0.9106
C22 C 0.21857(15) 0.1217(2) 0.8667(2)
Zn1 Zn 0.0000 0.68815(3) 0.2500
O2 O 0.07053(18) 0.4798(3) 0.22550(18)
C13 C 0.01867(15) 0.5195(3) 0.13635(18)
C14 C 0.01231(15) 0.4669(2) 0.04280(18)
H12 H 0.0264 0.3837 0.0454
O4 O 0.02489(11) 0.61176(17) 0.37998(13)
N4 N 0.10001(13) 0.79936(19) 0.31904(17)
O3 O 0.02489(11) 0.38824(17) 0.87998(13)
N2 N 0.20903(13) 0.90648(19) 0.44455(16)
C1 C 0.1045(2) 0.8751(3) 0.4733(3)
H1 H 0.0484 0.8535 0.4287
H2 H 0.1108 0.9607 0.4958
H3 H 0.1332 0.8217 0.5351
C2 C 0.13723(16) 0.8590(2) 0.4120(2)
C3 C 0.15036(16) 0.8108(2) 0.2885(2)
C4 C 0.1417(2) 0.7678(3) 0.1981(2)
H4 H 0.0964 0.7228 0.1450
C5 C 0.2031(2) 0.7948(4) 0.1905(3)
H5 H 0.1990 0.7670 0.1311
C6 C 0.2712(2) 0.8628(4) 0.2700(3)
H6 H 0.3114 0.8787 0.2624
C7 C 0.28010(18) 0.9065(3) 0.3584(3)
H7 H 0.3250 0.9529 0.4106
C8 C 0.21857(15) 0.8783(2) 0.3667(2)
C9 C 0.26641(17) 0.9816(2) 0.53942(19)
H8 H 0.3207 0.9564 0.5679
H9 H 0.2589 0.9650 0.5938
O5 O 0.07053(18) 0.5202(3) 0.72550(18)
C27 C 0.01867(15) 0.4805(3) 0.63635(18)
C28 C 0.01231(15) 0.5331(2) 0.54280(18)
H24 H 0.0264 0.6163 0.5454
Zn1_2 Zn 0.5000 0.18815(3) 0.2500
O1 O 0.47511(11) 0.11176(17) 0.12002(13)
N1 N 0.39999(13) 0.29936(19) 0.18096(17)
N2_2 N 0.29097(13) 0.40648(19) 0.05545(16)
C1_2 C 0.3955(2) 0.3751(3) 0.0267(3)
H1_2 H 0.4516 0.3535 0.0713
H2_2 H 0.3892 0.4607 0.0042
C2_2 C 0.36277(16) 0.3590(2) 0.0880(2)
C3_2 C 0.34964(16) 0.3108(2) 0.2115(2)
C4_2 C 0.3583(2) 0.2678(3) 0.3019(2)
H4_2 H 0.4036 0.2228 0.3550
C5_2 C 0.2969(2) 0.2948(4) 0.3095(3)
H5_2 H 0.3010 0.2670 0.3689
C6_2 C 0.2288(2) 0.3628(4) 0.2300(3)
H6_2 H 0.1886 0.3787 0.2376
C7_2 C 0.21990(18) 0.4065(3) 0.1416(3)
H7_2 H 0.1750 0.4529 0.0894
C8_2 C 0.28143(15) 0.3783(2) 0.1333(2)
C11 C 0.31601(17) 0.6743(2) 0.0630(2)
H10 H 0.3610 0.6236 0.1063
C13_2 C 0.51867(15) 0.0195(3) 0.13635(18)
O4_2 O 0.52489(11) 0.11176(17) 0.37998(13)
N4_2 N 0.60001(13) 0.29936(19) 0.31904(17)
C24 C 0.25727(15) 0.8795(2) 0.01630(18)
C26 C 0.32314(16) 0.8028(2) 0.0788(2)
H23 H 0.3730 0.8374 0.1321
N2_3 N 0.70903(13) 0.40648(19) 0.44455(16)
C1_3 C 0.6045(2) 0.3751(3) 0.4733(3)
H1_3 H 0.5484 0.3535 0.4287
H2_3 H 0.6108 0.4607 0.4958
H3_2 H 0.6332 0.3217 0.5351
C2_3 C 0.63723(16) 0.3590(2) 0.4120(2)
C3_3 C 0.65036(16) 0.3108(2) 0.2885(2)
C4_3 C 0.6417(2) 0.2678(3) 0.1981(2)
H4_3 H 0.5964 0.2228 0.1450
C5_3 C 0.7031(2) 0.2948(4) 0.1905(3)
H5_3 H 0.6990 0.2670 0.1311
C6_3 C 0.7712(2) 0.3628(4) 0.2700(3)
H6_3 H 0.8114 0.3787 0.2624
C7_3 C 0.78010(18) 0.4065(3) 0.3584(3)
H7_3 H 0.8250 0.4529 0.4106
C8_3 C 0.71857(15) 0.3783(2) 0.3667(2)
C9_2 C 0.76641(17) 0.4816(2) 0.53942(19)
H8_2 H 0.8207 0.4564 0.5679
H9_2 H 0.7589 0.4650 0.5938
C10 C 0.75727(15) 0.6205(2) 0.51630(18)
C11_2 C 0.68399(17) 0.6743(2) 0.4370(2)
H10_2 H 0.6390 0.6236 0.3937
C12 C 0.82314(16) 0.6972(2) 0.5788(2)
H11 H 0.8730 0.6626 0.6321
C13_3 C 0.48133(15) 0.0195(3) 0.36365(18)
O5_2 O 0.57053(18) 0.0202(3) 0.72550(18)
C24_2 C 0.74273(15) 0.8795(2) 0.48370(18)
C25 C 0.81601(17) 0.8257(2) 0.5630(2)
H22 H 0.8610 0.8764 0.6063
C26_2 C 0.67686(16) 0.8028(2) 0.4212(2)
H23_2 H 0.6270 0.8374 0.3679
C28_2 C 0.51231(15) 0.0331(2) 0.54280(18)
H24_2 H 0.5264 0.1163 0.5454
H3_3 H 0.3668 0.3217 0.9649
C9_3 C 0.23359(17) 0.4816(2) 0.96058(19)
H8_3 H 0.1793 0.4564 0.9321
H9_3 H 0.2411 0.4650 0.9062
C10_2 C 0.24273(15) 0.6205(2) 0.98370(18)
C12_2 C 0.17686(16) 0.6972(2) 0.9212(2)
H11_2 H 0.1270 0.6626 0.8679
O5_3 O 0.42947(18) 0.0202(3) 0.77450(18)
C25_2 C 0.18399(17) 0.8257(2) 0.9370(2)
H22_2 H 0.1390 0.8764 0.8937
C28_3 C 0.48769(15) 0.0331(2) 0.95720(18)
H24_3 H 0.4736 0.1163 0.9546
O2_2 O 0.57053(18) 0.9798(3) 0.22550(18)
C14_2 C 0.51231(15) 0.9669(2) 0.04280(18)
H12_2 H 0.5264 0.8837 0.0454
C11_3 C 0.81601(17) 0.1743(2) 0.0630(2)
H10_3 H 0.8610 0.1236 0.1063
H15_2 H 0.6332 0.6783 0.0351
C23_2 C 0.76641(17) 0.5184(2) 0.03942(19)
H20_2 H 0.8207 0.5436 0.0679
H21_2 H 0.7589 0.5350 0.0938
C24_3 C 0.75727(15) 0.3795(2) 0.01630(18)
C26_3 C 0.82314(16) 0.3028(2) 0.0788(2)
H23_3 H 0.8730 0.3374 0.1321
Zn2 Zn 0.5000 0.81185(3) 0.7500
O3_2 O 0.52489(11) 0.88824(17) 0.87998(13)
C27_2 C 0.48133(15) 0.9805(3) 0.86365(18)
O2_3 O 0.42947(18) 0.9798(3) 0.27450(18)
C14_3 C 0.48769(15) 0.9669(2) 0.45720(18)
H12_3 H 0.4736 0.8837 0.4546
O3_3 O 0.47511(11) 0.88824(17) 0.62002(13)
C27_3 C 0.51867(15) 0.9805(3) 0.63635(18)
C10_3 C 0.74273(15) 0.1205(2) 0.98370(18)
C12_3 C 0.67686(16) 0.1972(2) 0.9212(2)
H11_3 H 0.6270 0.1626 0.8679
N3_2 N 0.60001(13) 0.70064(19) 0.81904(17)
N5_2 N 0.70903(13) 0.59352(19) 0.94455(16)
C15_2 C 0.6045(2) 0.6249(3) 0.9733(3)
H13_2 H 0.5484 0.6465 0.9287
H14_2 H 0.6108 0.5393 0.9958
C16_2 C 0.63723(16) 0.6410(2) 0.9120(2)
C17_2 C 0.65036(16) 0.6892(2) 0.7885(2)
C18_2 C 0.6417(2) 0.7322(3) 0.6981(2)
H16_2 H 0.5964 0.7772 0.6450
C19_2 C 0.7031(2) 0.7052(4) 0.6905(3)
H17_2 H 0.6990 0.7330 0.6311
C20_2 C 0.7712(2) 0.6372(4) 0.7700(3)
H18_2 H 0.8114 0.6213 0.7624
C21_2 C 0.78010(18) 0.5935(3) 0.8584(3)
H19_2 H 0.8250 0.5471 0.9106
C22_2 C 0.71857(15) 0.6217(2) 0.8667(2)
C25_3 C 0.68399(17) 0.3257(2) 0.9370(2)
H22_3 H 0.6390 0.3764 0.8937
C10_4 C 0.25727(15) 0.1205(2) 0.51630(18)
C11_4 C 0.18399(17) 0.1743(2) 0.4370(2)
H10_4 H 0.1390 0.1236 0.3937
C12_4 C 0.32314(16) 0.1972(2) 0.5788(2)
H11_4 H 0.3730 0.1626 0.6321
N3_3 N 0.39999(13) 0.70064(19) 0.68096(17)
N5_3 N 0.29097(13) 0.59352(19) 0.55545(16)
C15_3 C 0.3955(2) 0.6249(3) 0.5267(3)
H13_3 H 0.4516 0.6465 0.5713
H14_3 H 0.3892 0.5393 0.5042
H15_3 H 0.3668 0.6783 0.4649
C16_3 C 0.36277(16) 0.6410(2) 0.5880(2)
C17_3 C 0.34964(16) 0.6892(2) 0.7115(2)
C18_3 C 0.3583(2) 0.7322(3) 0.8019(2)
H16_3 H 0.4036 0.7772 0.8550
C19_3 C 0.2969(2) 0.7052(4) 0.8095(3)
H17_3 H 0.3010 0.7330 0.8689
C20_3 C 0.2288(2) 0.6372(4) 0.7300(3)
H18_3 H 0.1886 0.6213 0.7376
C21_3 C 0.21990(18) 0.5935(3) 0.6416(3)
H19_3 H 0.1750 0.5471 0.5894
C22_3 C 0.28143(15) 0.6217(2) 0.6333(2)
C23_3 C 0.23359(17) 0.5184(2) 0.46058(19)
H20_3 H 0.1793 0.5436 0.4321
H21_3 H 0.2411 0.5350 0.4062
C24_4 C 0.24273(15) 0.3795(2) 0.48370(18)
C25_4 C 0.31601(17) 0.3257(2) 0.5630(2)
H22_4 H 0.3610 0.3764 0.6063
C26_4 C 0.17686(16) 0.3028(2) 0.4212(2)
H23_4 H 0.1270 0.3374 0.3679
Zn3_2 Zn 1.0000 0.31185(3) 0.7500
N3_4 N 0.89999(13) 0.20064(19) 0.68096(17)
N5_4 N 0.79097(13) 0.09352(19) 0.55545(16)
C15_4 C 0.8955(2) 0.1249(3) 0.5267(3)
H13_4 H 0.9516 0.1465 0.5713
H14_4 H 0.8892 0.0393 0.5042
H15_4 H 0.8668 0.1783 0.4649
C16_4 C 0.86277(16) 0.1410(2) 0.5880(2)
C17_4 C 0.84964(16) 0.1892(2) 0.7115(2)
C18_4 C 0.8583(2) 0.2322(3) 0.8019(2)
H16_4 H 0.9036 0.2772 0.8550
C19_4 C 0.7969(2) 0.2052(4) 0.8095(3)
H17_4 H 0.8010 0.2330 0.8689
C20_4 C 0.7288(2) 0.1372(4) 0.7300(3)
H18_4 H 0.6886 0.1213 0.7376
C21_4 C 0.71990(18) 0.0935(3) 0.6416(3)
H19_4 H 0.6750 0.0471 0.5894
C22_4 C 0.78143(15) 0.1217(2) 0.6333(2)
C23_4 C 0.73359(17) 0.0184(2) 0.46058(19)
H20_4 H 0.6793 0.0436 0.4321
H21_4 H 0.7411 0.0350 0.4062
Zn1_3 Zn 1.0000 0.68815(3) 0.2500
O1_2 O 0.97511(11) 0.61176(17) 0.12002(13)
N1_2 N 0.89999(13) 0.79936(19) 0.18096(17)
N2_4 N 0.79097(13) 0.90648(19) 0.05545(16)
C1_4 C 0.8955(2) 0.8751(3) 0.0267(3)
H1_4 H 0.9516 0.8535 0.0713
H2_4 H 0.8892 0.9607 0.0042
C2_4 C 0.86277(16) 0.8590(2) 0.0880(2)
C3_4 C 0.84964(16) 0.8108(2) 0.2115(2)
C4_4 C 0.8583(2) 0.7678(3) 0.3019(2)
H4_4 H 0.9036 0.7228 0.3550
C5_4 C 0.7969(2) 0.7948(4) 0.3095(3)
H5_4 H 0.8010 0.7670 0.3689
C6_4 C 0.7288(2) 0.8628(4) 0.2300(3)
H6_4 H 0.6886 0.8787 0.2376
C7_4 C 0.71990(18) 0.9065(3) 0.1416(3)
H7_4 H 0.6750 0.9529 0.0894
C8_4 C 0.78143(15) 0.8783(2) 0.1333(2)
H3_4 H 0.8668 0.8217 0.9649
C9_4 C 0.73359(17) 0.9816(2) 0.96058(19)
H8_4 H 0.6793 0.9564 0.9321
H9_4 H 0.7411 0.9650 0.9062
O5_4 O 0.92947(18) 0.5202(3) 0.77450(18)
C27_4 C 0.98133(15) 0.4805(3) 0.86365(18)
C28_4 C 0.98769(15) 0.5331(2) 0.95720(18)
H24_4 H 0.9736 0.6163 0.9546
O2_4 O 0.92947(18) 0.4798(3) 0.27450(18)
C13_4 C 0.98133(15) 0.5195(3) 0.36365(18)
C14_4 C 0.98769(15) 0.4669(2) 0.45720(18)
H12_4 H 0.9736 0.3837 0.4546
O3_4 O 0.97511(11) 0.38824(17) 0.62002(13)
loop_
_geom_bond_atom_site_label_1
_geom_bond_atom_site_label_2
_geom_bond_site_symmetry_1
_geom_bond_site_symmetry_2
H20 C23 1_555 1_555
H21 C23 1_555 1_555
Zn3 N3 1_555 1_555
N3 C16 1_555 1_555
N5 C16 1_555 1_555
C15 H13 1_555 1_555
H14 C15 1_555 1_555
C16 C15 1_555 1_555
C17 N3 1_555 1_555
C18 C17 1_555 1_555
H16 C18 1_555 1_555
C19 C18 1_555 1_555
H17 C19 1_555 1_555
C20 C19 1_555 1_555
H18 C20 1_555 1_555
C21 C20 1_555 1_555
H19 C21 1_555 1_555
C22 N5 1_555 1_555
C17 C22 1_555 1_555
C21 C22 1_555 1_555
O2 C13 1_555 1_555
C13 C14 1_555 1_555
C14 H12 1_555 1_555
O4 Zn1 1_555 1_555
N4 Zn1 1_555 1_555
Zn3 O3 1_555 1_555
N2 C2 1_555 1_555
C1 H1 1_555 1_555
H2 C1 1_555 1_555
H3 C1 1_555 1_555
C2 N4 1_555 1_555
C3 N4 1_555 1_555
C4 C3 1_555 1_555
H4 C4 1_555 1_555
C5 C4 1_555 1_555
H5 C5 1_555 1_555
C6 C5 1_555 1_555
H6 C6 1_555 1_555
C7 C6 1_555 1_555
H7 C7 1_555 1_555
C8 N2 1_555 1_555
C9 N2 1_555 1_555
H8 C9 1_555 1_555
H9 C9 1_555 1_555
O5 C27 1_555 1_555
C27 C28 1_555 1_555
H24 C28 1_555 1_555
C1 C2 1_555 1_555
C3 C8 1_555 1_555
C7 C8 1_555 1_555
Zn1_2 O1 1_555 1_555
O1 C13_2 1_555 1_555
N1 Zn1_2 1_555 1_555
N2_2 C2_2 1_555 1_555
C1_2 H1_2 1_555 1_555
H2_2 C1_2 1_555 1_555
C2_2 N1 1_555 1_555
C3_2 N1 1_555 1_555
C4_2 C3_2 1_555 1_555
H4_2 C4_2 1_555 1_555
C5_2 C4_2 1_555 1_555
H5_2 C5_2 1_555 1_555
C6_2 C5_2 1_555 1_555
H6_2 C6_2 1_555 1_555
C7_2 C6_2 1_555 1_555
H7_2 C7_2 1_555 1_555
C8_2 N2_2 1_555 1_555
H10 C11 1_555 1_555
O4_2 Zn1_2 1_555 1_555
N4_2 Zn1_2 1_555 1_555
C26 C11 1_555 1_555
H23 C26 1_555 1_555
C1_2 C2_2 1_555 1_555
C3_2 C8_2 1_555 1_555
C7_2 C8_2 1_555 1_555
C24 C26 1_555 1_555
O4_2 C13_3 1_555 1_555
N2_3 C2_3 1_555 1_555
C1_3 H1_3 1_555 1_555
H2_3 C1_3 1_555 1_555
H3_2 C1_3 1_555 1_555
C2_3 N4_2 1_555 1_555
C3_3 N4_2 1_555 1_555
C4_3 C3_3 1_555 1_555
H4_3 C4_3 1_555 1_555
C5_3 C4_3 1_555 1_555
H5_3 C5_3 1_555 1_555
C6_3 C5_3 1_555 1_555
H6_3 C6_3 1_555 1_555
C7_3 C6_3 1_555 1_555
H7_3 C7_3 1_555 1_555
C8_3 N2_3 1_555 1_555
C9_2 N2_3 1_555 1_555
H8_2 C9_2 1_555 1_555
H9_2 C9_2 1_555 1_555
C10 C9_2 1_555 1_555
C11_2 C10 1_555 1_555
H10_2 C11_2 1_555 1_555
C12 C10 1_555 1_555
H11 C12 1_555 1_555
C25 C12 1_555 1_555
H22 C25 1_555 1_555
C26_2 C11_2 1_555 1_555
H23_2 C26_2 1_555 1_555
H24_2 C28_2 1_555 1_555
C1_3 C2_3 1_555 1_555
C3_3 C8_3 1_555 1_555
C7_3 C8_3 1_555 1_555
C24_2 C25 1_555 1_555
C24_2 C26_2 1_555 1_555
H8_3 C9_3 1_555 1_555
H9_3 C9_3 1_555 1_555
C10_2 C9_3 1_555 1_555
C12_2 C10_2 1_555 1_555
H11_2 C12_2 1_555 1_555
C25_2 C12_2 1_555 1_555
H22_2 C25_2 1_555 1_555
H24_3 C28_3 1_555 1_555
C14_2 H12_2 1_555 1_555
H10_3 C11_3 1_555 1_555
H20_2 C23_2 1_555 1_555
H21_2 C23_2 1_555 1_555
C24_3 C23_2 1_555 1_555
C26_3 C11_3 1_555 1_555
H23_3 C26_3 1_555 1_555
C24_3 C26_3 1_555 1_555
Zn2 O3_2 1_555 1_555
O3_2 C27_2 1_555 1_555
C14_3 H12_3 1_555 1_555
Zn2 O3_3 1_555 1_555
O3_3 C27_3 1_555 1_555
C12_3 C10_3 1_555 1_555
H11_3 C12_3 1_555 1_555
Zn2 N3_2 1_555 1_555
N3_2 C16_2 1_555 1_555
N5_2 C16_2 1_555 1_555
C15_2 H13_2 1_555 1_555
H14_2 C15_2 1_555 1_555
C16_2 C15_2 1_555 1_555
C17_2 N3_2 1_555 1_555
C18_2 C17_2 1_555 1_555
H16_2 C18_2 1_555 1_555
C19_2 C18_2 1_555 1_555
H17_2 C19_2 1_555 1_555
C20_2 C19_2 1_555 1_555
H18_2 C20_2 1_555 1_555
C21_2 C20_2 1_555 1_555
H19_2 C21_2 1_555 1_555
C22_2 N5_2 1_555 1_555
C25_3 C12_3 1_555 1_555
H22_3 C25_3 1_555 1_555
C17_2 C22_2 1_555 1_555
C21_2 C22_2 1_555 1_555
C11_4 C10_4 1_555 1_555
H10_4 C11_4 1_555 1_555
C12_4 C10_4 1_555 1_555
H11_4 C12_4 1_555 1_555
Zn2 N3_3 1_555 1_555
N3_3 C16_3 1_555 1_555
N5_3 C16_3 1_555 1_555
C15_3 H13_3 1_555 1_555
H14_3 C15_3 1_555 1_555
H15_3 C15_3 1_555 1_555
C16_3 C15_3 1_555 1_555
C17_3 N3_3 1_555 1_555
C18_3 C17_3 1_555 1_555
H16_3 C18_3 1_555 1_555
C19_3 C18_3 1_555 1_555
H17_3 C19_3 1_555 1_555
C20_3 C19_3 1_555 1_555
H18_3 C20_3 1_555 1_555
C21_3 C20_3 1_555 1_555
H19_3 C21_3 1_555 1_555
C22_3 N5_3 1_555 1_555
C23_3 N5_3 1_555 1_555
H20_3 C23_3 1_555 1_555
H21_3 C23_3 1_555 1_555
C24_4 C23_3 1_555 1_555
C25_4 C12_4 1_555 1_555
H22_4 C25_4 1_555 1_555
C26_4 C11_4 1_555 1_555
H23_4 C26_4 1_555 1_555
C17_3 C22_3 1_555 1_555
C21_3 C22_3 1_555 1_555
C24_4 C25_4 1_555 1_555
C24_4 C26_4 1_555 1_555
Zn3_2 N3_4 1_555 1_555
N3_4 C16_4 1_555 1_555
N5_4 C16_4 1_555 1_555
C15_4 H13_4 1_555 1_555
H14_4 C15_4 1_555 1_555
H15_4 C15_4 1_555 1_555
C16_4 C15_4 1_555 1_555
C17_4 N3_4 1_555 1_555
C18_4 C17_4 1_555 1_555
H16_4 C18_4 1_555 1_555
C19_4 C18_4 1_555 1_555
H17_4 C19_4 1_555 1_555
C20_4 C19_4 1_555 1_555
H18_4 C20_4 1_555 1_555
C21_4 C20_4 1_555 1_555
H19_4 C21_4 1_555 1_555
C22_4 N5_4 1_555 1_555
C23_4 N5_4 1_555 1_555
H20_4 C23_4 1_555 1_555
H21_4 C23_4 1_555 1_555
C17_4 C22_4 1_555 1_555
C21_4 C22_4 1_555 1_555
Zn1_3 O1_2 1_555 1_555
N1_2 Zn1_3 1_555 1_555
N2_4 C2_4 1_555 1_555
C1_4 H1_4 1_555 1_555
H2_4 C1_4 1_555 1_555
C2_4 N1_2 1_555 1_555
C3_4 N1_2 1_555 1_555
C4_4 C3_4 1_555 1_555
H4_4 C4_4 1_555 1_555
C5_4 C4_4 1_555 1_555
H5_4 C5_4 1_555 1_555
C6_4 C5_4 1_555 1_555
H6_4 C6_4 1_555 1_555
C7_4 C6_4 1_555 1_555
H7_4 C7_4 1_555 1_555
C8_4 N2_4 1_555 1_555
C1_4 C2_4 1_555 1_555
C3_4 C8_4 1_555 1_555
C7_4 C8_4 1_555 1_555
H8_4 C9_4 1_555 1_555
H9_4 C9_4 1_555 1_555
O5_4 C27_4 1_555 1_555
C27_4 C28_4 1_555 1_555
H24_4 C28_4 1_555 1_555
O2_4 C13_4 1_555 1_555
C13_4 C14_4 1_555 1_555
C14_4 H12_4 1_555 1_555
Zn3_2 O3_4 1_555 1_555

#END
