
###############################################################################
#
# This file contains modified crystal structure data generated from the
# MOF subset of the Cambridge Structural Database (CSD) v543 
# hosted by the Cambridge Crystallographic Data Centre (CCDC).
#
# This work is licensed under the Creative Commons
# Attribution-NonCommercial-ShareAlike 4.0 International License.
# To view a copy of this license, visit
# http://creativecommons.org/licenses/by-nc-sa/4.0/
# or send a letter to
# Creative Commons, PO Box 1866, Mountain View, CA 94042, USA.
#
# CIF created using the CSD Python API on 29 September 2022
# The structure has been converted into the P1 space group
# The structure has a 3D framework
# The original CSD entry IWEPIJ is in the triclinic crystal system
# The framework has been calculated to contain at least 10.0% void space
# The void calculation uses a probe of radius 1.32A, grid spacing 0.4
# H atom positions have been added when not included in the experimental data
#
###############################################################################

data_IWEPIJ
_chemical_formula_moiety         '(C48 H32 N4 O8 Zn2)n'
_symmetry_cell_setting           triclinic
_symmetry_space_group_name_H-M   'P 1'
_symmetry_Int_Tables_number      1
_space_group_name_Hall           'P 1'
loop_
_symmetry_equiv_pos_site_id
_symmetry_equiv_pos_as_xyz
1 x,y,z
_cell_length_a                   11.1844(6)
_cell_length_b                   14.0497(7)
_cell_length_c                   7.7198(3)
_cell_angle_alpha                96.917(2)
_cell_angle_beta                 109.527(2)
_cell_angle_gamma                89.115(3)
_cell_volume                     1134.58
loop_
_atom_site_label
_atom_site_type_symbol
_atom_site_fract_x
_atom_site_fract_y
_atom_site_fract_z
O9 O 0.0372(18) 0.1716(11) 0.4791(21)
C44 C 0.0031(27) 0.4622(16) 0.062(4)
C45 C 0.0247(22) 0.3655(16) 0.0665(33)
H19 H 0.04113 0.247095 0.227994
C12 C 0.6727(30) 0.0070(13) 0.5785(33)
C32 C 0.4488(20) 0.0317(20) 0.517(4)
C33 C 0.4694(16) 0.1248(20) 0.6096(35)
C34 C 0.3658(30) 0.1746(10) 0.6295(32)
C35 C 0.2455(21) 0.1304(20) 0.558(4)
C36 C 0.2234(14) 0.0476(21) 0.430(4)
C38 C 0.1441(16) 0.1937(13) 0.6018(29)
O8 O 0.1564(16) 0.2808(11) 0.6741(22)
H8 H 0.564366 0.157481 0.664788
H13 H 0.127621 0.0262403 0.339267
H15 H 0.686352 0.0779368 0.657696
H31 H 0.378222 0.247511 0.700259
C39 C 0.5511(23) 0.0382(19) 0.058(4)
C40 C 0.5237(13) 0.1221(20) 0.155(4)
C41 C 0.6224(27) 0.1835(15) 0.2717(35)
N3 N 0.7433(20) 0.1662(16) 0.2752(32)
C42 C 0.7760(13) 0.0819(22) 0.199(4)
C43 C 0.6791(29) 0.0207(13) 0.0781(35)
Zn4 Zn 0.8930(5) 0.2553(4) 0.4596(7)
H11 H 0.297291 0.0414757 0.00187278
H17 H 0.602917 0.244435 0.358785
H18 H 0.875104 0.0626563 0.231421
H26 H 0.425619 0.139257 0.139237
C25 C 0.5323(25) 0.4663(19) 0.943(4)
C26 C 0.5702(25) 0.3731(20) 0.9842(29)
C27 C 0.6694(24) 0.3315(12) 0.935(4)
C28 C 0.6939(24) 0.3616(20) 0.782(4)
C29 C 0.6604(26) 0.4544(22) 0.7407(32)
C30 C 0.5737(30) 0.5046(12) 0.809(4)
C31 C 0.7783(29) 0.3100(14) 0.679(4)
O5 O 0.8008(18) 0.3586(12) 0.5639(26)
O6 O 0.8064(16) 0.2264(10) 0.7315(23)
N6 N 0.9216(23) 0.3574(15) 0.2883(28)
H16 H 0.478608 0.666399 0.945053
H25 H 0.70246 0.488072 0.654057
H28 H 0.273362 0.722775 0.987784
H30 H 0.537886 0.572523 0.760388
C46 C 0.9996(26) 0.3164(10) 0.198(4)
C47 C 0.8991(22) 0.4536(16) 0.2944(27)
C48 C 0.9193(25) 0.5032(10) 0.1580(34)
H10 H 0.937973 0.673312 0.0343618
H20 H 0.866461 0.490803 0.401799
H32 H 0.873082 0.570726 0.125429
Zn1 Zn 0.1070(5) 0.7447(4) 0.5404(7)
O1 O 0.1992(18) 0.6414(12) 0.4361(26)
O2 O 0.1936(16) 0.7736(10) 0.2685(23)
N1 N 0.2567(20) 0.8338(16) 0.7248(32)
N2 N 0.0784(23) 0.6426(15) 0.7117(28)
C1 C 0.3061(24) 0.6384(20) 0.218(4)
C2 C 0.3306(24) 0.6685(12) 0.065(4)
C3 C 0.4298(25) 0.6269(20) 0.0158(29)
C4 C 0.4677(25) 0.5337(19) 0.057(4)
C5 C 0.4263(30) 0.4954(12) 0.191(4)
C6 C 0.3396(26) 0.5456(22) 0.2593(32)
C7 C 0.2217(29) 0.6900(14) 0.321(4)
C15 C 0.3776(27) 0.8165(15) 0.7283(35)
C16 C 0.4763(13) 0.8779(20) 0.845(4)
C17 C 0.4489(23) 0.9618(19) 0.942(4)
C18 C 0.3209(29) 0.9793(13) 0.9219(35)
C19 C 0.2240(13) 0.9181(22) 0.801(4)
C20 C 0.0004(26) 0.6836(10) 0.802(4)
C23 C 0.0807(25) 0.4968(10) 0.8420(34)
C24 C 0.1009(22) 0.5464(16) 0.7056(27)
H2 H 0.0620271 0.326688 0.965638
H3 H 0.29754 0.511928 0.345943
H4 H 0.124896 0.937344 0.768579
H5 H 0.126918 0.429274 0.874571
H6 H 0.726638 0.277225 0.0122163
H7 H 0.574381 0.860743 0.860763
H14 H 0.133539 0.509197 0.598201
H23 H 0.397083 0.755565 0.641215
H24 H 0.521392 0.333601 0.0549474
H27 H 0.702709 0.958524 0.998127
H29 H 0.462114 0.427477 0.239612
O3 O 0.9628(18) 0.8284(11) 0.5209(21)
O4 O 0.8436(16) 0.7192(11) 0.3259(22)
C8 C 0.7545(21) 0.8696(20) 0.442(4)
C9 C 0.6342(30) 0.8254(10) 0.3705(32)
C10 C 0.5306(16) 0.8752(20) 0.3904(35)
C11 C 0.5512(20) 0.9683(20) 0.483(4)
C13 C 0.7766(14) 0.9524(21) 0.570(4)
C14 C 0.8559(16) 0.8063(13) 0.3982(29)
C21 C 0.9753(22) 0.6345(16) 0.9335(33)
C22 C 0.9969(27) 0.5378(16) 0.938(4)
C37 C 0.3273(30) 0.9930(13) 0.4215(33)
H1 H 0.313648 0.922063 0.342304
H9 H 0.435634 0.842519 0.335212
H12 H 0.95887 0.752905 0.772006
H21 H 0.872379 0.97376 0.660733
H22 H 0.621778 0.752489 0.299741
loop_
_geom_bond_atom_site_label_1
_geom_bond_atom_site_label_2
_geom_bond_site_symmetry_1
_geom_bond_site_symmetry_2
C45 C44 1_555 1_555
C33 C32 1_555 1_555
C34 C33 1_555 1_555
C35 C34 1_555 1_555
C36 C35 1_555 1_555
C38 C35 1_555 1_555
O9 C38 1_555 1_555
O8 C38 1_555 1_555
C33 H8 1_555 1_555
C36 H13 1_555 1_555
C12 H15 1_555 1_555
C34 H31 1_555 1_555
C40 C39 1_555 1_555
C41 C40 1_555 1_555
N3 C41 1_555 1_555
C42 N3 1_555 1_555
C43 C39 1_555 1_555
Zn4 N3 1_555 1_555
C42 C43 1_555 1_555
C41 H17 1_555 1_555
C42 H18 1_555 1_555
C40 H26 1_555 1_555
C26 C25 1_555 1_555
C27 C26 1_555 1_555
C28 C27 1_555 1_555
C29 C28 1_555 1_555
C30 C25 1_555 1_555
C31 C28 1_555 1_555
O5 C31 1_555 1_555
O6 C31 1_555 1_555
Zn4 O5 1_555 1_555
N6 Zn4 1_555 1_555
C29 C30 1_555 1_555
C29 H25 1_555 1_555
C30 H30 1_555 1_555
N6 C46 1_555 1_555
C47 N6 1_555 1_555
C47 C48 1_555 1_555
C47 H20 1_555 1_555
C48 H32 1_555 1_555
Zn1 O1 1_555 1_555
O1 C7 1_555 1_555
O2 C7 1_555 1_555
N1 Zn1 1_555 1_555
N2 Zn1 1_555 1_555
C1 C2 1_555 1_555
C2 C3 1_555 1_555
C3 C4 1_555 1_555
C4 C5 1_555 1_555
C5 C6 1_555 1_555
C6 C1 1_555 1_555
C7 C1 1_555 1_555
C15 N1 1_555 1_555
C16 C15 1_555 1_555
C17 C16 1_555 1_555
C18 C17 1_555 1_555
C19 N1 1_555 1_555
C20 N2 1_555 1_555
C24 N2 1_555 1_555
C18 C19 1_555 1_555
C23 C24 1_555 1_555
C6 H3 1_555 1_555
C19 H4 1_555 1_555
C23 H5 1_555 1_555
C16 H7 1_555 1_555
C24 H14 1_555 1_555
C15 H23 1_555 1_555
C5 H29 1_555 1_555
O4 C14 1_555 1_555
C8 C9 1_555 1_555
C9 C10 1_555 1_555
C10 C11 1_555 1_555
C13 C8 1_555 1_555
C14 O3 1_555 1_555
C22 C21 1_555 1_555
C8 C14 1_555 1_555
C37 H1 1_555 1_555
C10 H9 1_555 1_555
C13 H21 1_555 1_555
C9 H22 1_555 1_555

#END
