
###############################################################################
#
# This file contains modified crystal structure data generated from the
# MOF subset of the Cambridge Structural Database (CSD) v543 
# hosted by the Cambridge Crystallographic Data Centre (CCDC).
#
# This work is licensed under the Creative Commons
# Attribution-NonCommercial-ShareAlike 4.0 International License.
# To view a copy of this license, visit
# http://creativecommons.org/licenses/by-nc-sa/4.0/
# or send a letter to
# Creative Commons, PO Box 1866, Mountain View, CA 94042, USA.
#
# CIF created using the CSD Python API on 29 September 2022
# The structure has been converted into the P1 space group
# The structure has a 3D framework
# The original CSD entry IWILOS is in the triclinic crystal system
# The framework has been calculated to contain at least 10.0% void space
# The void calculation uses a probe of radius 1.32A, grid spacing 0.4
#
###############################################################################

data_IWILOS
_chemical_formula_moiety         '(C88 H62 Cd5 N6 O14)n'
_symmetry_cell_setting           triclinic
_symmetry_space_group_name_H-M   'P 1'
_symmetry_Int_Tables_number      1
_space_group_name_Hall           'P 1'
loop_
_symmetry_equiv_pos_site_id
_symmetry_equiv_pos_as_xyz
1 x,y,z
_cell_length_a                   11.9036(11)
_cell_length_b                   15.0960(15)
_cell_length_c                   15.5727(16)
_cell_angle_alpha                66.726(5)
_cell_angle_beta                 72.215(5)
_cell_angle_gamma                81.668(5)
_cell_volume                     2446.86
loop_
_atom_site_label
_atom_site_type_symbol
_atom_site_fract_x
_atom_site_fract_y
_atom_site_fract_z
Cd1 Cd 0.000000 0.500000 0.000000
O7 O 0.0311(9) 0.3812(6) 0.1321(7)
C42 C 0.1316(12) 0.3493(10) 0.1513(9)
H25 H 0.206901 0.365484 0.109818
N3 N 0.0998(12) 0.2821(8) 0.2530(8)
H27 H 0.015770 0.221746 0.394371
C44 C 0.2091(17) 0.2470(12) 0.2612(13)
H29 H 0.241690 0.212357 0.218559
H30 H 0.203932 0.204247 0.326998
H31 H 0.258997 0.299428 0.243691
O17 O 0.0189(5) 0.6259(4) 0.0466(3)
O10 O 0.1608(5) 0.6614(4) 0.0891(4)
C60 C 0.0093(7) 0.5658(5) 0.2153(5)
C62 C 0.0681(7) 0.6190(5) 0.1105(5)
C63 C 0.0743(7) 0.5253(6) 0.2819(6)
H41 H 0.155635 0.532517 0.261423
C81 C 0.0201(7) 0.4739(6) 0.3793(5)
H51 H 0.065332 0.446410 0.423192
H32 H 0.294620 0.818470 0.013540
C46 C 0.6033(11) 0.9748(8) 0.0315(9)
C49 C 0.7090(11) 0.9432(10) 0.0610(10)
H33 H 0.733028 0.976739 0.090850
C55 C 0.7412(14) 0.8158(10) 0.0008(12)
C56 C 0.7754(12) 0.8677(11) 0.0479(11)
H38 H 0.843239 0.849173 0.069170
Cd1_2 Cd 0.000000 0.500000 1.000000
C87 C 0.0058(13) 0.7523(11) 0.6657(11)
H57 H 0.061493 0.699513 0.665428
H59 H 0.040835 0.801566 0.672691
O20 O 0.1937(5) 0.4988(4) 0.9301(4)
Cd10 Cd 0.15396(5) 0.73208(4) 0.92049(4)
O12 O 0.0693(7) 0.8457(4) 0.8130(5)
O13 O 0.0568(6) 0.8814(4) 0.9390(4)
C80 C 0.0383(8) 0.9010(6) 0.8597(7)
Cd1_3 Cd 1.000000 0.500000 0.000000
Cd2 Cd 0.84604(5) 0.26792(4) 0.07951(4)
O2 O 0.7436(5) 0.3530(4) 0.1647(4)
O4 O 0.8063(5) 0.5012(4) 0.0699(4)
C1 C 0.6234(6) 0.4834(6) 0.1893(5)
C3 C 0.4185(7) 0.5606(6) 0.2846(5)
C6 C 0.1584(7) 0.5891(6) 0.4848(5)
C7 C 0.3126(7) 0.6010(6) 0.3357(5)
C8 C 0.7342(7) 0.4419(6) 0.1371(6)
C9 C 0.6117(7) 0.5816(5) 0.1686(6)
H2 H 0.671670 0.622247 0.122910
C10 C 0.2589(7) 0.5525(6) 0.4357(5)
H3 H 0.292245 0.494391 0.469346
C11 C 0.1137(7) 0.8243(5) 0.2820(5)
N1 N 0.6788(8) 0.1921(6) 0.1122(6)
C12 C 0.0974(7) 0.8459(6) 0.1926(6)
H4 H 0.118497 0.800693 0.163206
C13 C 0.4321(7) 0.4619(6) 0.3026(6)
H5 H 0.371889 0.420798 0.347270
C14 C 0.5327(7) 0.4245(6) 0.2557(6)
H6 H 0.539645 0.358554 0.268799
C15 C 0.1003(7) 0.5365(6) 0.5891(5)
C16 C 0.1643(7) 0.7281(6) 0.3347(5)
C17 C 0.0481(8) 0.9371(6) 0.1447(6)
H7 H 0.035867 0.951458 0.084341
C18 C 0.2624(7) 0.6883(6) 0.2876(5)
H8 H 0.296065 0.720819 0.221550
C19 C 0.1095(7) 0.4471(6) 0.7539(5)
H9 H 0.153531 0.422637 0.798836
C21 C 0.1660(7) 0.4961(6) 0.6563(6)
H10 H 0.247509 0.501958 0.636130
C24 C 0.5112(7) 0.6187(6) 0.2159(6)
H12 H 0.504621 0.684795 0.201644
C25 C 0.1119(7) 0.6779(6) 0.4324(5)
H13 H 0.044106 0.703810 0.464063
N2 N 0.5656(8) 0.1059(7) 0.0872(7)
C26 C 0.6593(10) 0.1638(8) 0.0505(9)
C27 C 0.0828(10) 0.8922(6) 0.3247(7)
H15 H 0.093616 0.877805 0.385515
C28 C 0.0358(10) 0.9820(6) 0.2775(7)
C30 C 0.4306(11) 0.0800(8) 0.0131(9)
C31 C 0.5957(10) 0.1498(7) 0.1998(8)
C33 C 0.3574(12) 0.1594(9) 0.0270(10)
H18 H 0.379238 0.194674 0.056255
C34 C 0.5236(10) 0.0945(9) 0.1856(9)
C35 C 0.5346(11) 0.0521(8) 0.0425(9)
C36 C 0.4299(12) 0.0448(10) 0.2585(12)
H19 H 0.379410 0.010756 0.248314
C37 C 0.5767(13) 0.1540(9) 0.2896(9)
H20 H 0.625487 0.190447 0.298617
H21 H 0.211814 0.235503 0.010392
C40 C 0.4159(18) 0.0494(14) 0.3512(14)
H23 H 0.357247 0.014009 0.404476
C41 C 0.4890(17) 0.1062(12) 0.3638(12)
H24 H 0.475860 0.110367 0.424085
C43 C 0.9942(13) 0.2477(11) 0.3343(11)
H26 H 0.938507 0.300487 0.334572
H28 H 0.959165 0.198434 0.327309
O21 O 0.9307(7) 0.1543(4) 0.1870(5)
O23 O 0.9432(6) 0.1186(4) 0.0610(4)
N4 N 0.3212(8) 0.8079(6) 0.8878(6)
N5 N 0.4344(8) 0.8941(7) 0.9128(7)
C45 C 0.3407(10) 0.8362(8) 0.9495(9)
C47 C 0.5694(11) 0.9200(8) 0.9869(9)
C48 C 0.4043(10) 0.8502(7) 0.8002(8)
C50 C 0.6426(12) 0.8406(9) 0.9730(10)
H34 H 0.620762 0.805326 0.943745
C51 C 0.4764(10) 0.9055(9) 0.8144(9)
C52 C 0.4654(11) 0.9479(8) 0.9575(9)
C53 C 0.5701(12) 0.9552(10) 0.7415(12)
H35 H 0.620590 0.989244 0.751686
C54 C 0.4233(13) 0.8460(9) 0.7104(9)
H36 H 0.374513 0.809553 0.701383
H37 H 0.788186 0.764497 0.989608
C57 C 0.5841(18) 0.9506(14) 0.6488(14)
H39 H 0.642753 0.985991 0.595524
C58 C 0.5110(17) 0.8938(12) 0.6362(12)
H40 H 0.524140 0.889633 0.575915
O9 O 0.2564(5) 0.6470(4) 0.8353(4)
C59 C 0.3766(6) 0.5166(6) 0.8107(5)
C61 C 0.5815(7) 0.4394(6) 0.7154(5)
C64 C 0.8416(7) 0.4109(6) 0.5152(5)
C65 C 0.6874(7) 0.3990(6) 0.6643(5)
C66 C 0.2658(7) 0.5581(6) 0.8629(6)
C67 C 0.3883(7) 0.4184(5) 0.8314(6)
H42 H 0.328330 0.377753 0.877090
C68 C 0.7411(7) 0.4475(6) 0.5643(5)
H43 H 0.707755 0.505609 0.530654
C69 C 0.8863(7) 0.1757(5) 0.7180(5)
C70 C 0.9026(7) 0.1541(6) 0.8074(6)
H44 H 0.881503 0.199307 0.836794
C71 C 0.5679(7) 0.5381(6) 0.6974(6)
H45 H 0.628111 0.579202 0.652730
C72 C 0.4673(7) 0.5755(6) 0.7443(6)
H46 H 0.460355 0.641446 0.731201
C73 C 0.8997(7) 0.4635(6) 0.4109(5)
C74 C 0.8357(7) 0.2719(6) 0.6653(5)
C75 C 0.9519(8) 0.0629(6) 0.8553(6)
H47 H 0.964133 0.048542 0.915659
C76 C 0.7376(7) 0.3117(6) 0.7124(5)
H48 H 0.703935 0.279181 0.778450
C77 C 0.8905(7) 0.5529(6) 0.2461(5)
H49 H 0.846469 0.577363 0.201164
C79 C 0.8340(7) 0.5039(6) 0.3437(6)
H50 H 0.752491 0.498042 0.363870
C82 C 0.4888(7) 0.3813(6) 0.7841(6)
H52 H 0.495379 0.315205 0.798356
C83 C 0.8881(7) 0.3221(6) 0.5676(5)
H53 H 0.955894 0.296190 0.535937
C84 C 0.9172(10) 0.1078(6) 0.6753(7)
H54 H 0.906384 0.122195 0.614485
C85 C 0.9642(10) 0.0180(6) 0.7225(7)
C22 C 0.9617(8) 0.0990(6) 0.1403(7)
C20 C 0.0186(8) 0.0042(6) 0.1880(6)
H16 H 0.015819 0.027247 0.306828
Cd1_4 Cd 1.000000 0.500000 1.000000
H14 H 0.705380 0.181530 0.986460
C29 C 0.3967(11) 0.0252(8) 0.9685(9)
C32 C 0.2910(11) 0.0568(10) 0.9390(10)
H17 H 0.266972 0.023261 0.909150
C38 C 0.2588(14) 0.1842(10) 0.9992(12)
C39 C 0.2246(12) 0.1323(11) 0.9521(11)
H22 H 0.156761 0.150827 0.930830
O14 O 0.9689(9) 0.6188(6) 0.8679(7)
C86 C 0.8684(12) 0.6507(10) 0.8487(9)
H56 H 0.793099 0.634516 0.890182
N6 N 0.9002(12) 0.7179(8) 0.7470(8)
H58 H 0.984230 0.778254 0.605629
C88 C 0.7909(17) 0.7530(12) 0.7388(13)
H60 H 0.758310 0.787643 0.781441
H61 H 0.796068 0.795753 0.673002
H62 H 0.741003 0.700572 0.756309
O15 O 0.9811(5) 0.3741(4) 0.9534(3)
O18 O 0.8392(5) 0.3386(4) 0.9109(4)
C2 C 0.9907(7) 0.4342(5) 0.7847(5)
C4 C 0.9319(7) 0.3810(5) 0.8895(5)
C5 C 0.9257(7) 0.4747(6) 0.7181(6)
H1 H 0.844365 0.467483 0.738577
C23 C 0.9799(7) 0.5261(6) 0.6207(5)
H11 H 0.934668 0.553590 0.576808
C78 C 0.9814(8) 0.9958(6) 0.8120(6)
H55 H 0.984181 0.972753 0.693172
loop_
_geom_bond_atom_site_label_1
_geom_bond_atom_site_label_2
_geom_bond_site_symmetry_1
_geom_bond_site_symmetry_2
O7 Cd1 1_555 1_555
C42 O7 1_555 1_555
H25 C42 1_555 1_555
N3 C42 1_555 1_555
C44 N3 1_555 1_555
H29 C44 1_555 1_555
H30 C44 1_555 1_555
H31 C44 1_555 1_555
O17 Cd1 1_555 1_555
O17 C62 1_555 1_555
O10 C62 1_555 1_555
C60 C62 1_555 1_555
C63 C60 1_555 1_555
H41 C63 1_555 1_555
C81 C63 1_555 1_555
H51 C81 1_555 1_555
C49 C46 1_555 1_555
H33 C49 1_555 1_555
C56 C49 1_555 1_555
H38 C56 1_555 1_555
C55 C56 1_555 1_555
H57 C87 1_555 1_555
H59 C87 1_555 1_555
O20 Cd1_2 1_555 1_555
O12 C80 1_555 1_555
O13 C80 1_555 1_555
Cd10 O12 1_555 1_555
O13 Cd10 1_555 1_555
Cd1_3 O4 1_555 1_555
Cd2 O2 1_555 1_555
O2 C8 1_555 1_555
O4 C8 1_555 1_555
C1 C8 1_555 1_555
C3 C7 1_555 1_555
C6 C10 1_555 1_555
C7 C10 1_555 1_555
C9 C1 1_555 1_555
H2 C9 1_555 1_555
C10 H3 1_555 1_555
C11 C12 1_555 1_555
N1 Cd2 1_555 1_555
C12 H4 1_555 1_555
C13 C3 1_555 1_555
H5 C13 1_555 1_555
C14 C1 1_555 1_555
H6 C14 1_555 1_555
C15 C6 1_555 1_555
C16 C11 1_555 1_555
C17 C12 1_555 1_555
H7 C17 1_555 1_555
C18 C7 1_555 1_555
H8 C18 1_555 1_555
H9 C19 1_555 1_555
C21 C15 1_555 1_555
H10 C21 1_555 1_555
C24 C3 1_555 1_555
H12 C24 1_555 1_555
C25 C6 1_555 1_555
H13 C25 1_555 1_555
N2 C26 1_555 1_555
C26 N1 1_555 1_555
C27 C11 1_555 1_555
H15 C27 1_555 1_555
C30 C33 1_555 1_555
C31 N1 1_555 1_555
C33 H18 1_555 1_555
C34 N2 1_555 1_555
C35 N2 1_555 1_555
C36 C34 1_555 1_555
H19 C36 1_555 1_555
C37 C31 1_555 1_555
H20 C37 1_555 1_555
C40 C36 1_555 1_555
H23 C40 1_555 1_555
C41 C37 1_555 1_555
H24 C41 1_555 1_555
H26 C43 1_555 1_555
H28 C43 1_555 1_555
O21 Cd2 1_555 1_555
O23 Cd2 1_555 1_555
C9 C24 1_555 1_555
C13 C14 1_555 1_555
C16 C18 1_555 1_555
C16 C25 1_555 1_555
C19 C21 1_555 1_555
C27 C28 1_555 1_555
C30 C35 1_555 1_555
C31 C34 1_555 1_555
C40 C41 1_555 1_555
N4 C45 1_555 1_555
N5 C45 1_555 1_555
C48 N4 1_555 1_555
C50 C47 1_555 1_555
H34 C50 1_555 1_555
C51 N5 1_555 1_555
C53 C51 1_555 1_555
H35 C53 1_555 1_555
C54 C48 1_555 1_555
H36 C54 1_555 1_555
C57 C53 1_555 1_555
H39 C57 1_555 1_555
C58 C54 1_555 1_555
H40 C58 1_555 1_555
Cd10 N4 1_555 1_555
O9 Cd10 1_555 1_555
O20 C66 1_555 1_555
C59 C66 1_555 1_555
C61 C65 1_555 1_555
C64 C68 1_555 1_555
C65 C68 1_555 1_555
C66 O9 1_555 1_555
C67 C59 1_555 1_555
H42 C67 1_555 1_555
C68 H43 1_555 1_555
C69 C70 1_555 1_555
C70 H44 1_555 1_555
C71 C61 1_555 1_555
H45 C71 1_555 1_555
C72 C59 1_555 1_555
H46 C72 1_555 1_555
C73 C64 1_555 1_555
C74 C69 1_555 1_555
C75 C70 1_555 1_555
H47 C75 1_555 1_555
C76 C65 1_555 1_555
H48 C76 1_555 1_555
H49 C77 1_555 1_555
C79 C73 1_555 1_555
H50 C79 1_555 1_555
C82 C61 1_555 1_555
H52 C82 1_555 1_555
C83 C64 1_555 1_555
H53 C83 1_555 1_555
C84 C69 1_555 1_555
H54 C84 1_555 1_555
N5 C52 1_555 1_555
C47 C52 1_555 1_555
C48 C51 1_555 1_555
C57 C58 1_555 1_555
C67 C82 1_555 1_555
C71 C72 1_555 1_555
C74 C76 1_555 1_555
C74 C83 1_555 1_555
C77 C79 1_555 1_555
C84 C85 1_555 1_555
O21 C22 1_555 1_555
O23 C22 1_555 1_555
C32 C29 1_555 1_555
H17 C32 1_555 1_555
C39 C32 1_555 1_555
H22 C39 1_555 1_555
O14 Cd1_4 1_555 1_555
C86 O14 1_555 1_555
H56 C86 1_555 1_555
N6 C86 1_555 1_555
C88 N6 1_555 1_555
H60 C88 1_555 1_555
H61 C88 1_555 1_555
H62 C88 1_555 1_555
O15 Cd1_4 1_555 1_555
C38 C39 1_555 1_555
O15 C4 1_555 1_555
O18 C4 1_555 1_555
C2 C4 1_555 1_555
C5 C2 1_555 1_555
H1 C5 1_555 1_555
C23 C5 1_555 1_555
H11 C23 1_555 1_555

#END
