
###############################################################################
#
# This file contains modified crystal structure data generated from the
# MOF subset of the Cambridge Structural Database (CSD) v543 
# hosted by the Cambridge Crystallographic Data Centre (CCDC).
#
# This work is licensed under the Creative Commons
# Attribution-NonCommercial-ShareAlike 4.0 International License.
# To view a copy of this license, visit
# http://creativecommons.org/licenses/by-nc-sa/4.0/
# or send a letter to
# Creative Commons, PO Box 1866, Mountain View, CA 94042, USA.
#
# CIF created using the CSD Python API on 29 September 2022
# The structure has been converted into the P1 space group
# The structure has a 3D framework
# The original CSD entry IXIXUL is in the triclinic crystal system
# The framework has been calculated to contain at least 10.0% void space
# The void calculation uses a probe of radius 1.32A, grid spacing 0.4
# The framework is charged, counterions have been retained in the structure
#
###############################################################################

data_IXIXUL
_chemical_formula_moiety         '(C72 H80 N30 O39 U4)n'
_symmetry_cell_setting           triclinic
_symmetry_space_group_name_H-M   'P 1'
_symmetry_Int_Tables_number      1
_space_group_name_Hall           'P 1'
loop_
_symmetry_equiv_pos_site_id
_symmetry_equiv_pos_as_xyz
1 x,y,z
_cell_length_a                   12.6937(3)
_cell_length_b                   16.8729(4)
_cell_length_c                   18.3064(3)
_cell_angle_alpha                91.7037(17)
_cell_angle_beta                 102.7208(16)
_cell_angle_gamma                107.4163(19)
_cell_volume                     3629.96
loop_
_atom_site_label
_atom_site_type_symbol
_atom_site_fract_x
_atom_site_fract_y
_atom_site_fract_z
N1 N 0.6878(9) 0.8542(6) 0.5421(6)
O1 O 0.6567(15) 0.8298(12) 0.6026(11)
O2 O 0.7967(16) 0.8816(14) 0.5350(13)
O3 O 0.6111(16) 0.8430(13) 0.4757(10)
N1_2 N 0.3122(9) 0.1458(6) 0.4579(6)
O1_2 O 0.3433(15) 0.1702(12) 0.3974(11)
O2_2 O 0.2033(16) 0.1184(14) 0.4650(13)
O3_2 O 0.3889(16) 0.1570(13) 0.5243(10)
H32 H 0.0955 0.0401 0.9740
U1 U 0.46991(2) 0.53662(2) 0.08738(2)
O6 O 0.3578(6) 0.4308(5) 0.2488(4)
O7 O 0.3275(6) 0.4660(4) 0.0607(4)
O8 O 0.4137(6) 0.5567(5) 0.2067(4)
O13 O 0.4078(8) 0.6575(5) 0.0862(4)
N4 N 0.0672(8) 0.4830(6) 0.2755(5)
O15 O 0.6085(7) 0.6118(5) 0.1183(4)
C2 C 0.3444(8) 0.4979(6) 0.2286(5)
C3 C 0.2775(9) 0.8154(7) 0.0327(6)
C4 C 0.3460(10) 0.7762(7) 0.0750(6)
N8 N 0.2724(10) 0.8883(6) 0.0594(6)
C5 C 0.0483(11) 0.5065(8) 0.4063(6)
H6 H 0.1284 0.5145 0.4272
H7 H 0.0396 0.5604 0.3954
C7 C 0.1685(8) 0.4723(7) 0.2772(5)
H10 H 0.1968 0.4402 0.3121
C9 C 0.2308(9) 0.5094(7) 0.2268(5)
C12 C 0.2069(12) 0.9328(9) 0.0104(8)
H15 H 0.2582 0.9854 0.0021
C16 C 0.0217(13) 0.5274(11) 0.2249(8)
C17 C 0.0062(10) 0.4472(9) 0.3341(6)
H21 H 0.0183 0.3943 0.3449
C18 C 0.1836(13) 0.5556(11) 0.1758(8)
H23 H 0.2238 0.5805 0.1413
C29 C 0.1156(11) 0.9497(8) 0.0432(7)
H34 H 0.1503 0.9868 0.0894
H35 H 0.0670 0.8978 0.0550
C31 C 0.3574(10) 0.6959(6) 0.0428(6)
C33 C 0.0818(14) 0.5660(13) 0.1739(9)
H37 H 0.0527 0.5981 0.1395
C34 C 0.4178(15) 0.8156(10) 0.1427(8)
H38 H 0.4671 0.7907 0.1711
C35 C 0.4147(18) 0.8935(12) 0.1676(10)
H39 H 0.4600 0.9203 0.2141
C36 C 0.3464(17) 0.9299(11) 0.1244(10)
H40 H 0.3496 0.9840 0.1390
C39 C 0.0194(11) 0.5297(9) 0.5370(7)
H43 H 0.0097 0.5832 0.5258
H44 H 0.0996 0.5388 0.5586
H46 H 0.0496 0.4679 0.7759
H48 H 0.0748 0.5630 0.6850
O39 O 0.5381(5) 0.4397(4) 0.0347(3)
O41 O 0.5411(7) 0.4582(5) 0.1794(4)
O30 O 0.6858(10) 0.3247(7) 0.0266(5)
H69 H 0.7659 0.2090 0.0150
H70 H 0.8281 0.1001 0.0380
C67 C 0.9548(11) 0.0105(8) 0.0133(7)
H73 H 0.9891 0.0485 0.0590
U9 U 0.64837(3) 0.39805(2) 0.12656(2)
O14 O 0.8221(7) 0.2705(6) 0.3137(4)
N7 N 0.6912(9) 0.2663(7) 0.3849(5)
N11 N 0.8367(8) 0.2214(6) 0.4302(5)
C10 C 0.9361(11) 0.1966(8) 0.4303(7)
H11 H 0.9494 0.1984 0.3801
H12 H 0.9213 0.1393 0.4424
C23 C 0.7688(11) 0.1994(7) 0.4834(6)
H28 H 0.7441 0.1389 0.4864
C24 C 0.6650(11) 0.2318(8) 0.4530(6)
H29 H 0.5923 0.1867 0.4424
C25 C 0.7867(9) 0.2547(6) 0.3704(6)
N17 N 0.6172(9) 0.3793(7) 0.3448(5)
N18 N 0.6768(8) 0.5175(7) 0.3423(5)
O23 O 0.6577(9) 0.5000(8) 0.5811(5)
O24 O 0.8707(8) 0.6886(7) 0.6060(5)
O25 O 0.7353(7) 0.4325(5) 0.2682(4)
N19 N 0.8183(9) 0.2460(6) 0.5585(5)
C46 C 0.7123(11) 0.5933(9) 0.3070(6)
H51 H 0.6495 0.6160 0.2951
H52 H 0.7294 0.5796 0.2601
N20 N 0.8089(10) 0.6556(8) 0.3520(6)
O27 O 0.9346(9) 0.6459(6) 0.2838(5)
O28 O 0.7682(10) 0.3304(7) 0.6372(5)
N22 N 0.7800(9) 0.6738(8) 0.4794(5)
N23 N 0.6043(10) 0.4076(8) 0.4751(5)
C47 C 0.6816(9) 0.4424(8) 0.3142(5)
N25 N 0.9618(9) 0.7514(7) 0.5166(5)
C49 C 0.5591(9) 0.4110(8) 0.3937(6)
H55 H 0.4766 0.3840 0.3784
N26 N 0.6320(9) 0.5415(8) 0.4625(5)
N27 N 0.9871(10) 0.7410(7) 0.3883(6)
C50 C 0.6109(10) 0.2940(8) 0.3312(5)
H56 H 0.5346 0.2591 0.3309
H57 H 0.6229 0.2854 0.2814
C51 C 0.5905(10) 0.5036(8) 0.3863(6)
H58 H 0.5245 0.5190 0.3603
C52 C 0.9306(11) 0.7696(8) 0.4389(6)
H59 H 0.9367 0.8287 0.4358
N28 N 0.6736(10) 0.2933(9) 0.5127(6)
C53 C 0.5873(13) 0.3301(11) 0.5119(7)
H60 H 0.5148 0.2904 0.4860
H61 H 0.5839 0.3420 0.5634
C54 C 0.8726(11) 0.7043(8) 0.5408(6)
C55 C 0.6363(10) 0.4852(10) 0.5132(6)
C56 C 0.6684(10) 0.6291(9) 0.4860(7)
H62 H 0.6652 0.6366 0.5381
H63 H 0.6151 0.6535 0.4562
C60 C 0.8978(12) 0.2214(9) 0.6152(7)
H66 H 0.8797 0.1612 0.6089
H67 H 0.8894 0.2369 0.6645
C61 C 0.9114(11) 0.6760(8) 0.3352(6)
C62 C 0.8053(12) 0.7122(9) 0.4127(7)
H68 H 0.7543 0.7446 0.3942
C63 C 0.7556(11) 0.2940(8) 0.5765(6)
O34 O 0.7631(7) 0.4928(6) 0.1229(5)
O36 O 0.5458(8) 0.2995(5) 0.1355(5)
O37 O 0.7967(9) 0.3292(7) 0.1744(5)
H79 H 0.8192 0.3301 0.2307
H80 H 0.7755 0.2678 0.1566
U2 U 0.35163(3) 0.60195(2) 0.87344(2)
O4 O 0.4619(5) 0.5603(4) 0.9653(3)
O5 O 0.4589(7) 0.5418(5) 0.8206(4)
N2 N 0.3828(9) 0.6207(7) 0.6552(5)
N3 N 0.3232(8) 0.4825(7) 0.6577(5)
O9 O 0.3423(9) 0.5000(8) 0.4189(5)
O10 O 0.2369(7) 0.5072(6) 0.8771(5)
O11 O 0.1293(8) 0.3114(7) 0.3940(5)
O12 O 0.2647(7) 0.5675(5) 0.7318(4)
N5 N 0.1817(9) 0.7540(6) 0.4415(5)
C1 C 0.2877(11) 0.4067(9) 0.6930(6)
H1 H 0.3505 0.3840 0.7049
H2 H 0.2706 0.4204 0.7399
O16 O 0.3142(10) 0.6753(7) 0.9734(5)
O17 O 0.4542(8) 0.7005(5) 0.8645(5)
H3 H 0.2341 0.7910 0.9850
N6 N 0.1911(10) 0.3444(8) 0.6480(6)
O18 O 0.0654(9) 0.3541(6) 0.7162(5)
O19 O 0.2033(9) 0.6708(7) 0.8256(5)
H4 H 0.1808 0.6699 0.7693
H5 H 0.2245 0.7322 0.8434
O20 O 0.2318(10) 0.6696(7) 0.3628(5)
N9 N 0.2200(9) 0.3262(8) 0.5206(5)
N10 N 0.3957(10) 0.5924(8) 0.5249(5)
C8 C 0.3184(9) 0.5576(8) 0.6858(5)
N12 N 0.0382(9) 0.2486(7) 0.4834(5)
C11 C 0.4409(9) 0.5890(8) 0.6063(6)
H13 H 0.5234 0.6160 0.6216
N13 N 0.3680(9) 0.4585(8) 0.5375(5)
N14 N 0.0129(10) 0.2590(7) 0.6117(6)
H14 H 0.1719 0.8999 0.9620
C13 C 0.3891(10) 0.7060(8) 0.6688(5)
H16 H 0.4654 0.7409 0.6691
H17 H 0.3771 0.7146 0.7186
C14 C 0.4095(10) 0.4964(8) 0.6137(6)
H18 H 0.4755 0.4810 0.6397
C15 C 0.0694(11) 0.2304(8) 0.5611(6)
H19 H 0.0633 0.1713 0.5642
N15 N 0.3264(10) 0.7067(9) 0.4873(6)
C19 C 0.4127(13) 0.6699(11) 0.4881(7)
H24 H 0.4852 0.7096 0.5140
H25 H 0.4161 0.6580 0.4366
C20 C 0.1274(11) 0.2957(8) 0.4592(6)
C21 C 0.3637(10) 0.5148(10) 0.4868(6)
C22 C 0.3316(10) 0.3709(9) 0.5140(7)
H26 H 0.3348 0.3634 0.4619
H27 H 0.3849 0.3465 0.5438
C26 C 0.1022(12) 0.7786(9) 0.3848(7)
H30 H 0.1203 0.8388 0.3911
H31 H 0.1106 0.7631 0.3355
C27 C 0.0886(11) 0.3240(8) 0.6648(6)
C28 C 0.0452(11) 0.9895(8) 0.9867(7)
H33 H 0.0109 0.9515 0.9410
C30 C 0.1947(12) 0.2878(9) 0.5873(7)
H36 H 0.2457 0.2554 0.6058
C32 C 0.2444(11) 0.7060(8) 0.4235(6)
O26 O 0.1779(7) 0.7295(6) 0.6863(4)
N21 N 0.3088(9) 0.7337(7) 0.6151(5)
N24 N 0.1633(8) 0.7786(6) 0.5698(5)
C48 C 0.0639(11) 0.8034(8) 0.5697(7)
H53 H 0.0506 0.8016 0.6199
H54 H 0.0787 0.8607 0.5576
C57 C 0.2312(11) 0.8006(7) 0.5166(6)
H64 H 0.2559 0.8611 0.5136
C58 C 0.3350(11) 0.7682(8) 0.5470(6)
H65 H 0.4077 0.8133 0.5576
C59 C 0.2133(9) 0.7453(6) 0.6296(6)
U8 U 0.53009(2) 0.46338(2) 0.91262(2)
O29 O 0.5922(8) 0.3425(5) 0.9138(4)
C64 C 0.7225(9) 0.1846(7) 0.9673(6)
C65 C 0.6540(10) 0.2238(7) 0.9250(6)
N29 N 0.7276(10) 0.1117(6) 0.9406(6)
C66 C 0.7931(12) 0.0672(9) 0.9896(8)
H71 H 0.7418 0.0146 0.9979
C68 C 0.8844(11) 0.0503(8) 0.9568(7)
H74 H 0.8497 0.0132 0.9106
H75 H 0.9330 0.1022 0.9450
C69 C 0.6426(10) 0.3041(6) 0.9572(6)
C70 C 0.5822(15) 0.1844(10) 0.8573(8)
H76 H 0.5329 0.2093 0.8289
C71 C 0.5853(18) 0.1065(12) 0.8324(10)
H77 H 0.5400 0.0797 0.7859
C72 C 0.6536(17) 0.0701(11) 0.8756(10)
H78 H 0.6504 0.0160 0.8610
C6 C 0.9806(11) 0.4703(9) 0.4630(7)
H8 H 0.9903 0.4168 0.4742
H9 H 0.9004 0.4612 0.4414
H20 H 0.9504 0.5321 0.2241
H22 H 0.9252 0.4370 0.3150
O21 O 0.6422(6) 0.5692(5) 0.7512(4)
O22 O 0.5863(6) 0.4433(5) 0.7933(4)
N16 N 0.9328(8) 0.5170(6) 0.7245(5)
C37 C 0.6556(8) 0.5021(6) 0.7714(5)
C38 C 0.9517(11) 0.4935(8) 0.5937(6)
H41 H 0.8716 0.4855 0.5728
H42 H 0.9604 0.4396 0.6046
C40 C 0.8315(8) 0.5277(7) 0.7228(5)
H45 H 0.8032 0.5598 0.6879
C41 C 0.7692(9) 0.4906(7) 0.7732(5)
C42 C 0.9783(13) 0.4726(11) 0.7751(8)
C43 C 0.9938(10) 0.5528(9) 0.6659(6)
H47 H 0.9817 0.6057 0.6551
C44 C 0.8164(13) 0.4444(11) 0.8242(8)
H49 H 0.7762 0.4195 0.8587
C45 C 0.9182(14) 0.4340(13) 0.8261(9)
H50 H 0.9473 0.4019 0.8605
H72 H 0.9045 0.9599 0.0260
O33 O 0.6725(6) 0.5340(4) 0.9393(4)
O35 O 0.3915(7) 0.3882(5) 0.8817(4)
loop_
_geom_bond_atom_site_label_1
_geom_bond_atom_site_label_2
_geom_bond_site_symmetry_1
_geom_bond_site_symmetry_2
N1 O1 1_555 1_555
O2 N1 1_555 1_555
O3 N1 1_555 1_555
N1_2 O1_2 1_555 1_555
O2_2 N1_2 1_555 1_555
O3_2 N1_2 1_555 1_555
O6 C2 1_555 1_555
O7 U1 1_555 1_555
O8 U1 1_555 1_555
O13 U1 1_555 1_555
N4 C7 1_555 1_555
O15 U1 1_555 1_555
C2 O8 1_555 1_555
C4 C3 1_555 1_555
N8 C3 1_555 1_555
C5 H6 1_555 1_555
H7 C5 1_555 1_555
C7 H10 1_555 1_555
C9 C2 1_555 1_555
C12 N8 1_555 1_555
H15 C12 1_555 1_555
C16 N4 1_555 1_555
C17 N4 1_555 1_555
H21 C17 1_555 1_555
C18 C9 1_555 1_555
H23 C18 1_555 1_555
C29 C12 1_555 1_555
H34 C29 1_555 1_555
H35 C29 1_555 1_555
C31 O13 1_555 1_555
C33 C16 1_555 1_555
H37 C33 1_555 1_555
C34 C4 1_555 1_555
H38 C34 1_555 1_555
C35 C34 1_555 1_555
H39 C35 1_555 1_555
C36 N8 1_555 1_555
H40 C36 1_555 1_555
H43 C39 1_555 1_555
H44 C39 1_555 1_555
O39 U1 1_555 1_555
O41 U1 1_555 1_555
C4 C31 1_555 1_555
C5 C17 1_555 1_555
C7 C9 1_555 1_555
C18 C33 1_555 1_555
C35 C36 1_555 1_555
H73 C67 1_555 1_555
U9 O30 1_555 1_555
O14 C25 1_555 1_555
N7 C24 1_555 1_555
N11 C10 1_555 1_555
C10 H11 1_555 1_555
H12 C10 1_555 1_555
C23 N11 1_555 1_555
H28 C23 1_555 1_555
C24 C23 1_555 1_555
H29 C24 1_555 1_555
C25 N7 1_555 1_555
N17 C47 1_555 1_555
N18 C46 1_555 1_555
O23 C55 1_555 1_555
O24 C54 1_555 1_555
O25 C47 1_555 1_555
N19 C23 1_555 1_555
C46 H51 1_555 1_555
H52 C46 1_555 1_555
N20 C46 1_555 1_555
O27 C61 1_555 1_555
O28 C63 1_555 1_555
N22 C54 1_555 1_555
N23 C49 1_555 1_555
C47 N18 1_555 1_555
C49 N17 1_555 1_555
H55 C49 1_555 1_555
N26 C51 1_555 1_555
C50 N7 1_555 1_555
H56 C50 1_555 1_555
H57 C50 1_555 1_555
C51 N18 1_555 1_555
H58 C51 1_555 1_555
C52 N25 1_555 1_555
H59 C52 1_555 1_555
N28 C24 1_555 1_555
C53 N23 1_555 1_555
H60 C53 1_555 1_555
H61 C53 1_555 1_555
C54 N25 1_555 1_555
C55 N23 1_555 1_555
C56 N22 1_555 1_555
H62 C56 1_555 1_555
H63 C56 1_555 1_555
H66 C60 1_555 1_555
H67 C60 1_555 1_555
C61 N20 1_555 1_555
C62 N20 1_555 1_555
H68 C62 1_555 1_555
C63 N19 1_555 1_555
U9 O25 1_555 1_555
O39 U9 1_555 1_555
O41 U9 1_555 1_555
O34 U9 1_555 1_555
O36 U9 1_555 1_555
O37 U9 1_555 1_555
H79 O37 1_555 1_555
H80 O37 1_555 1_555
N11 C25 1_555 1_555
N17 C50 1_555 1_555
N19 C60 1_555 1_555
N22 C62 1_555 1_555
C49 C51 1_555 1_555
N26 C55 1_555 1_555
N26 C56 1_555 1_555
N27 C52 1_555 1_555
N27 C61 1_555 1_555
C52 C62 1_555 1_555
N28 C53 1_555 1_555
N28 C63 1_555 1_555
U2 O4 1_555 1_555
O4 U8 1_555 1_555
O5 U2 1_555 1_555
N2 C8 1_555 1_555
N3 C1 1_555 1_555
O9 C21 1_555 1_555
O10 U2 1_555 1_555
O11 C20 1_555 1_555
O12 U2 1_555 1_555
N5 C26 1_555 1_555
C1 H1 1_555 1_555
H2 C1 1_555 1_555
O16 U2 1_555 1_555
O17 U2 1_555 1_555
N6 C1 1_555 1_555
O18 C27 1_555 1_555
O19 U2 1_555 1_555
H4 O19 1_555 1_555
H5 O19 1_555 1_555
O20 C32 1_555 1_555
N9 C20 1_555 1_555
N10 C11 1_555 1_555
C8 N3 1_555 1_555
C11 N2 1_555 1_555
H13 C11 1_555 1_555
N13 C14 1_555 1_555
N14 C15 1_555 1_555
C13 N2 1_555 1_555
H16 C13 1_555 1_555
H17 C13 1_555 1_555
C14 N3 1_555 1_555
H18 C14 1_555 1_555
C15 N12 1_555 1_555
H19 C15 1_555 1_555
N15 C19 1_555 1_555
C19 N10 1_555 1_555
H24 C19 1_555 1_555
H25 C19 1_555 1_555
C20 N12 1_555 1_555
C21 N10 1_555 1_555
C22 N9 1_555 1_555
H26 C22 1_555 1_555
H27 C22 1_555 1_555
C26 H30 1_555 1_555
H31 C26 1_555 1_555
C27 N6 1_555 1_555
H33 C28 1_555 1_555
C30 N6 1_555 1_555
H36 C30 1_555 1_555
C32 N5 1_555 1_555
O26 C59 1_555 1_555
N21 C13 1_555 1_555
N24 C48 1_555 1_555
C48 H53 1_555 1_555
H54 C48 1_555 1_555
C57 N5 1_555 1_555
H64 C57 1_555 1_555
C58 N15 1_555 1_555
H65 C58 1_555 1_555
C59 N21 1_555 1_555
U8 O5 1_555 1_555
O12 C8 1_555 1_555
N9 C30 1_555 1_555
C11 C14 1_555 1_555
N13 C21 1_555 1_555
N13 C22 1_555 1_555
N14 C27 1_555 1_555
C15 C30 1_555 1_555
N15 C32 1_555 1_555
N21 C58 1_555 1_555
N24 C57 1_555 1_555
N24 C59 1_555 1_555
C57 C58 1_555 1_555
O29 C69 1_555 1_555
C65 C64 1_555 1_555
N29 C64 1_555 1_555
C66 N29 1_555 1_555
H71 C66 1_555 1_555
C68 C66 1_555 1_555
H74 C68 1_555 1_555
H75 C68 1_555 1_555
C69 C65 1_555 1_555
C70 C65 1_555 1_555
H76 C70 1_555 1_555
C71 C70 1_555 1_555
H77 C71 1_555 1_555
C72 N29 1_555 1_555
H78 C72 1_555 1_555
U8 O29 1_555 1_555
C71 C72 1_555 1_555
H8 C6 1_555 1_555
H9 C6 1_555 1_555
O21 C37 1_555 1_555
O22 C37 1_555 1_555
N16 C40 1_555 1_555
C37 C41 1_555 1_555
C38 H41 1_555 1_555
H42 C38 1_555 1_555
C40 H45 1_555 1_555
C41 C40 1_555 1_555
C42 N16 1_555 1_555
C43 N16 1_555 1_555
H47 C43 1_555 1_555
C44 C41 1_555 1_555
H49 C44 1_555 1_555
C45 C42 1_555 1_555
H50 C45 1_555 1_555
U8 O22 1_555 1_555
C38 C43 1_555 1_555
C44 C45 1_555 1_555
O33 U8 1_555 1_555
O35 U8 1_555 1_555

#END
