
###############################################################################
#
# This file contains modified crystal structure data generated from the
# MOF subset of the Cambridge Structural Database (CSD) v543 
# hosted by the Cambridge Crystallographic Data Centre (CCDC).
#
# This work is licensed under the Creative Commons
# Attribution-NonCommercial-ShareAlike 4.0 International License.
# To view a copy of this license, visit
# http://creativecommons.org/licenses/by-nc-sa/4.0/
# or send a letter to
# Creative Commons, PO Box 1866, Mountain View, CA 94042, USA.
#
# CIF created using the CSD Python API on 29 September 2022
# The structure has been converted into the P1 space group
# The structure has a 3D framework
# The original CSD entry IXODUV is in the orthorhombic crystal system
# The original CSD entry IXODUV is in a Sohncke space group
# The framework has been calculated to contain at least 10.0% void space
# The void calculation uses a probe of radius 1.32A, grid spacing 0.4
#
###############################################################################

data_IXODUV
_chemical_formula_moiety         '(C32 H16 O18 V3)n'
_symmetry_cell_setting           triclinic
_symmetry_space_group_name_H-M   'P 1'
_symmetry_Int_Tables_number      1
_space_group_name_Hall           'P 1'
loop_
_symmetry_equiv_pos_site_id
_symmetry_equiv_pos_as_xyz
1 x,y,z
_cell_length_a                   6.8050(3)
_cell_length_b                   13.9793(7)
_cell_length_c                   15.9447(8)
_cell_angle_alpha                90
_cell_angle_beta                 90
_cell_angle_gamma                90
_cell_volume                     1516.81
loop_
_atom_site_label
_atom_site_type_symbol
_atom_site_fract_x
_atom_site_fract_y
_atom_site_fract_z
H1 H 0.0322 0.0468 0.8206
H3 H 0.0531 0.9385 0.7116
O1 O 0.28306(15) 0.80870(7) 0.50722(8)
V1 V 0.06503(3) 0.763892(16) 0.501199(19)
O8 O 0.1163(2) 0.65493(11) 0.57724(9)
O9 O 0.1161(2) 0.68297(11) 0.40193(8)
V2 V 0.56503(3) 0.736108(16) 0.498801(19)
V3 V 0.43497(3) 0.236108(16) 0.001199(19)
C1 C 0.7243(3) 0.11905(13) 0.89809(11)
C2 C 0.7381(3) 0.04426(15) 0.83133(12)
C3 C 0.9184(3) 0.0197(2) 0.79869(16)
C4 C 0.5704(3) 0.00149(18) 0.80034(15)
H2 H 0.4487 0.0165 0.8233
O2 O 0.5558(2) 0.14114(10) 0.92392(9)
O4 O 0.8837(2) 0.15493(11) 0.92276(9)
V4 V 0.93497(3) 0.263892(16) 0.998801(19)
C5 C 0.7755(3) 0.84904(13) 0.62674(10)
C6 C 0.7631(3) 0.91411(15) 0.70089(11)
C7 C 0.9309(3) 0.9548(2) 0.73353(16)
C8 C 0.5826(3) 0.93637(18) 0.73527(15)
H4 H 0.4692 0.9076 0.7147
O3 O 0.9437(2) 0.83166(11) 0.59804(9)
O5 O 0.6161(2) 0.81703(11) 0.59807(8)
O6 O 0.78306(15) 0.69130(7) 0.49278(8)
O7 O 0.9442(2) 0.85886(10) 0.42392(9)
H2_2 H 0.0513 0.9835 0.3233
C5_2 C 0.7245(3) 0.15096(13) 0.12674(10)
C6_2 C 0.7369(3) 0.08589(15) 0.20089(11)
C7_2 C 0.5691(3) 0.0452(2) 0.23353(16)
H3_2 H 0.4469 0.0615 0.2116
C8_2 C 0.9174(3) 0.06363(18) 0.23527(15)
O1_2 O 0.21694(15) 0.19130(7) 0.00722(8)
O3_2 O 0.5563(2) 0.16834(11) 0.09804(9)
O5_2 O 0.8839(2) 0.18297(11) 0.09807(8)
O8_2 O 0.3837(2) 0.34507(11) 0.07724(9)
O6_2 O 0.71694(15) 0.30870(7) 0.99278(8)
O9_2 O 0.3839(2) 0.31703(11) 0.90193(8)
C1_2 C 0.7757(3) 0.88095(13) 0.39809(11)
C2_2 C 0.7619(3) 0.95574(15) 0.33133(12)
C3_2 C 0.5816(3) 0.9803(2) 0.29869(16)
H1_2 H 0.4678 0.9532 0.3206
C4_2 C 0.9296(3) 0.99851(18) 0.30034(15)
O4_2 O 0.6163(2) 0.84507(11) 0.42276(9)
O7_2 O 0.0558(2) 0.35886(10) 0.07608(9)
C1_3 C 0.2757(3) 0.61905(13) 0.60191(11)
C2_3 C 0.2619(3) 0.54426(15) 0.66867(12)
C3_3 C 0.0816(3) 0.5197(2) 0.70131(16)
C4_3 C 0.4296(3) 0.50149(18) 0.69966(15)
H2_3 H 0.5513 0.5165 0.6767
C5_3 C 0.2245(3) 0.34904(13) 0.87326(10)
C6_3 C 0.2369(3) 0.41411(15) 0.79911(11)
C7_3 C 0.0691(3) 0.4548(2) 0.76647(16)
C8_3 C 0.4174(3) 0.43637(18) 0.76473(15)
H4_2 H 0.5308 0.4076 0.7853
O2_2 O 0.4442(2) 0.64114(10) 0.57608(9)
O3_3 O 0.0563(2) 0.33166(11) 0.90196(9)
H1_3 H 0.9678 0.5468 0.6794
H3_3 H 0.9469 0.4385 0.7884
C1_4 C 0.2243(3) 0.38095(13) 0.10191(11)
C2_4 C 0.2381(3) 0.45574(15) 0.16867(12)
C3_4 C 0.4184(3) 0.4803(2) 0.20131(16)
H1_4 H 0.5322 0.4532 0.1794
C4_4 C 0.0704(3) 0.49851(18) 0.19966(15)
C5_4 C 0.2755(3) 0.65096(13) 0.37326(10)
C6_4 C 0.2631(3) 0.58589(15) 0.29911(11)
C7_4 C 0.4309(3) 0.5452(2) 0.26647(16)
H3_4 H 0.5531 0.5615 0.2884
C8_4 C 0.0826(3) 0.56363(18) 0.26473(15)
O3_4 O 0.4437(2) 0.66834(11) 0.40196(9)
H4_3 H 0.0308 0.0924 0.2147
H2_4 H 0.9487 0.4835 0.1767
H4_4 H 0.9692 0.5924 0.2853
loop_
_geom_bond_atom_site_label_1
_geom_bond_atom_site_label_2
_geom_bond_site_symmetry_1
_geom_bond_site_symmetry_2
O1 V1 1_555 1_555
O8 V1 1_555 1_555
O9 V1 1_555 1_555
V2 O1 1_555 1_555
C1 C2 1_555 1_555
C2 C3 1_555 1_555
C4 C2 1_555 1_555
H2 C4 1_555 1_555
O2 C1 1_555 1_555
O4 C1 1_555 1_555
V4 O4 1_555 1_555
C5 C6 1_555 1_555
C6 C7 1_555 1_555
H4 C8 1_555 1_555
O3 C5 1_555 1_555
O5 C5 1_555 1_555
V2 O5 1_555 1_555
C6 C8 1_555 1_555
O6 V2 1_555 1_555
C5_2 C6_2 1_555 1_555
C6_2 C7_2 1_555 1_555
H3_2 C7_2 1_555 1_555
O1_2 V3 1_555 1_555
O3_2 C5_2 1_555 1_555
O5_2 C5_2 1_555 1_555
V3 O3_2 1_555 1_555
O8_2 V3 1_555 1_555
C6_2 C8_2 1_555 1_555
O6_2 V4 1_555 1_555
C1_2 C2_2 1_555 1_555
C2_2 C3_2 1_555 1_555
C3_2 H1_2 1_555 1_555
C4_2 C2_2 1_555 1_555
O7 C1_2 1_555 1_555
O4_2 C1_2 1_555 1_555
V2 O4_2 1_555 1_555
C1_3 C2_3 1_555 1_555
C2_3 C3_3 1_555 1_555
C4_3 C2_3 1_555 1_555
H2_3 C4_3 1_555 1_555
C5_3 C6_3 1_555 1_555
C6_3 C7_3 1_555 1_555
C7_3 C3_3 1_555 1_555
C8_3 C4_3 1_555 1_555
H4_2 C8_3 1_555 1_555
O2_2 C1_3 1_555 1_555
O3_3 C5_3 1_555 1_555
O8 C1_3 1_555 1_555
O9_2 C5_3 1_555 1_555
V2 O2_2 1_555 1_555
C6_3 C8_3 1_555 1_555
C1_4 C2_4 1_555 1_555
C2_4 C3_4 1_555 1_555
C3_4 H1_4 1_555 1_555
C4_4 C2_4 1_555 1_555
C5_4 C6_4 1_555 1_555
C6_4 C7_4 1_555 1_555
C7_4 C3_4 1_555 1_555
H3_4 C7_4 1_555 1_555
C8_4 C4_4 1_555 1_555
O7_2 C1_4 1_555 1_555
O3_4 C5_4 1_555 1_555
O8_2 C1_4 1_555 1_555
O9 C5_4 1_555 1_555
V2 O3_4 1_555 1_555
C6_4 C8_4 1_555 1_555

#END
