
###############################################################################
#
# This file contains modified crystal structure data generated from the
# MOF subset of the Cambridge Structural Database (CSD) v543 
# hosted by the Cambridge Crystallographic Data Centre (CCDC).
#
# This work is licensed under the Creative Commons
# Attribution-NonCommercial-ShareAlike 4.0 International License.
# To view a copy of this license, visit
# http://creativecommons.org/licenses/by-nc-sa/4.0/
# or send a letter to
# Creative Commons, PO Box 1866, Mountain View, CA 94042, USA.
#
# CIF created using the CSD Python API on 29 September 2022
# The structure has been converted into the P1 space group
# The structure has a 3D framework
# The original CSD entry IXOFUX is in the orthorhombic crystal system
# The original CSD entry IXOFUX is in a Sohncke space group
# The framework has been calculated to contain at least 10.0% void space
# The void calculation uses a probe of radius 1.32A, grid spacing 0.4
#
###############################################################################

data_IXOFUX
_chemical_formula_moiety         '(C32 H16 O18 V3)n'
_symmetry_cell_setting           triclinic
_symmetry_space_group_name_H-M   'P 1'
_symmetry_Int_Tables_number      1
_space_group_name_Hall           'P 1'
loop_
_symmetry_equiv_pos_site_id
_symmetry_equiv_pos_as_xyz
1 x,y,z
_cell_length_a                   6.827(8)
_cell_length_b                   13.965(16)
_cell_length_c                   16.073(18)
_cell_angle_alpha                90
_cell_angle_beta                 90
_cell_angle_gamma                90
_cell_volume                     1532.38
loop_
_atom_site_label
_atom_site_type_symbol
_atom_site_fract_x
_atom_site_fract_y
_atom_site_fract_z
H4 H 0.0311 0.0477 0.8188
H3 H 0.0518 0.9479 0.7068
O1 O 0.2823(4) 0.8088(2) 0.5058(3)
V1 V 0.06512(11) 0.76415(5) 0.50089(10)
O8 O 0.1164(8) 0.6574(4) 0.5762(3)
O9 O 0.1172(8) 0.6807(4) 0.4031(3)
V2 V 0.56512(11) 0.73585(5) 0.49911(10)
V3 V 0.43488(11) 0.23585(5) 0.00089(10)
C1 C 0.7221(12) 0.1205(5) 0.8954(4)
C2 C 0.7385(11) 0.0474(5) 0.8296(4)
C3 C 0.5698(13) 0.0040(6) 0.7975(5)
H1 H 0.4481 0.0185 0.8202
C8 C 0.9171(13) 0.0223(6) 0.7961(5)
O2 O 0.5563(8) 0.1428(4) 0.9215(3)
O4 O 0.8836(8) 0.1574(4) 0.9238(3)
V4 V 0.93488(11) 0.26415(5) 0.99911(10)
C4 C 0.5823(12) 0.9406(6) 0.7335(5)
H2 H 0.4687 0.9122 0.7132
C5 C 0.7758(12) 0.8538(5) 0.6242(4)
C6 C 0.7622(11) 0.9174(5) 0.6975(4)
C7 C 0.9301(13) 0.9609(7) 0.7302(6)
O3 O 0.9441(9) 0.8340(4) 0.5947(3)
O5 O 0.6172(8) 0.8193(4) 0.5969(3)
O6 O 0.7823(4) 0.6912(2) 0.4942(3)
O7 O 0.9437(8) 0.8572(4) 0.4215(3)
H1_2 H 0.0519 0.9815 0.3202
C4_2 C 0.9177(12) 0.0594(6) 0.2335(5)
C5_2 C 0.7242(12) 0.1462(5) 0.1242(4)
C6_2 C 0.7378(11) 0.0826(5) 0.1975(4)
C7_2 C 0.5699(13) 0.0391(7) 0.2302(6)
H3_2 H 0.4482 0.0521 0.2068
O1_2 O 0.2177(4) 0.1912(2) 0.0058(3)
O3_2 O 0.5559(9) 0.1660(4) 0.0947(3)
O5_2 O 0.8828(8) 0.1807(4) 0.0969(3)
O8_2 O 0.3836(8) 0.3426(4) 0.0762(3)
O6_2 O 0.7177(4) 0.3088(2) 0.9942(3)
O9_2 O 0.3828(8) 0.3193(4) 0.9031(3)
C1_2 C 0.7779(12) 0.8795(5) 0.3954(4)
C2_2 C 0.7615(11) 0.9526(5) 0.3296(4)
C3_2 C 0.9302(13) 0.9960(6) 0.2975(5)
C8_2 C 0.5829(13) 0.9777(6) 0.2961(5)
H4_2 H 0.4689 0.9523 0.3188
O4_2 O 0.6164(8) 0.8426(4) 0.4238(3)
O7_2 O 0.0563(8) 0.3572(4) 0.0785(3)
C1_3 C 0.2779(12) 0.6205(5) 0.6046(4)
C2_3 C 0.2615(11) 0.5474(5) 0.6704(4)
C3_3 C 0.4302(13) 0.5040(6) 0.7025(5)
H1_3 H 0.5519 0.5185 0.6798
C4_3 C 0.4177(12) 0.4406(6) 0.7665(5)
H2_2 H 0.5313 0.4122 0.7868
C5_3 C 0.2242(12) 0.3538(5) 0.8758(4)
C6_3 C 0.2378(11) 0.4174(5) 0.8025(4)
C7_3 C 0.0699(13) 0.4609(7) 0.7698(6)
C8_3 C 0.0829(13) 0.5223(6) 0.7039(5)
O2_2 O 0.4437(8) 0.6428(4) 0.5785(3)
O3_3 O 0.0559(9) 0.3340(4) 0.9053(3)
H3_3 H 0.9482 0.4479 0.7932
H4_3 H 0.9689 0.5477 0.6812
C1_4 C 0.2221(12) 0.3795(5) 0.1046(4)
C2_4 C 0.2385(11) 0.4526(5) 0.1704(4)
C3_4 C 0.0698(13) 0.4960(6) 0.2025(5)
C4_4 C 0.0823(12) 0.5594(6) 0.2665(5)
C5_4 C 0.2758(12) 0.6462(5) 0.3758(4)
C6_4 C 0.2622(11) 0.5826(5) 0.3025(4)
C7_4 C 0.4301(13) 0.5391(7) 0.2698(6)
H3_4 H 0.5518 0.5521 0.2932
C8_4 C 0.4171(13) 0.4777(6) 0.2039(5)
H4_4 H 0.5311 0.4523 0.1812
O3_4 O 0.4441(9) 0.6660(4) 0.4053(3)
H2_3 H 0.0313 0.0878 0.2132
H1_4 H 0.9481 0.4815 0.1798
H2_4 H 0.9687 0.5878 0.2868
loop_
_geom_bond_atom_site_label_1
_geom_bond_atom_site_label_2
_geom_bond_site_symmetry_1
_geom_bond_site_symmetry_2
O1 V1 1_555 1_555
O8 V1 1_555 1_555
O9 V1 1_555 1_555
V2 O1 1_555 1_555
C1 C2 1_555 1_555
C2 C3 1_555 1_555
C3 H1 1_555 1_555
C8 C2 1_555 1_555
O2 C1 1_555 1_555
O4 C1 1_555 1_555
V4 O4 1_555 1_555
H2 C4 1_555 1_555
C5 C6 1_555 1_555
C6 C4 1_555 1_555
C7 C6 1_555 1_555
O3 C5 1_555 1_555
O5 C5 1_555 1_555
V2 O5 1_555 1_555
O6 V2 1_555 1_555
C5_2 C6_2 1_555 1_555
C6_2 C4_2 1_555 1_555
C7_2 C6_2 1_555 1_555
H3_2 C7_2 1_555 1_555
O1_2 V3 1_555 1_555
O3_2 C5_2 1_555 1_555
O5_2 C5_2 1_555 1_555
V3 O3_2 1_555 1_555
O8_2 V3 1_555 1_555
O6_2 V4 1_555 1_555
C1_2 C2_2 1_555 1_555
C2_2 C3_2 1_555 1_555
C8_2 C2_2 1_555 1_555
H4_2 C8_2 1_555 1_555
O7 C1_2 1_555 1_555
O4_2 C1_2 1_555 1_555
V2 O4_2 1_555 1_555
C1_3 C2_3 1_555 1_555
C2_3 C3_3 1_555 1_555
C3_3 H1_3 1_555 1_555
C4_3 C3_3 1_555 1_555
H2_2 C4_3 1_555 1_555
C5_3 C6_3 1_555 1_555
C6_3 C4_3 1_555 1_555
C7_3 C6_3 1_555 1_555
C8_3 C2_3 1_555 1_555
O2_2 C1_3 1_555 1_555
O3_3 C5_3 1_555 1_555
O8 C1_3 1_555 1_555
O9_2 C5_3 1_555 1_555
V2 O2_2 1_555 1_555
C7_3 C8_3 1_555 1_555
C1_4 C2_4 1_555 1_555
C2_4 C3_4 1_555 1_555
C4_4 C3_4 1_555 1_555
C5_4 C6_4 1_555 1_555
C6_4 C4_4 1_555 1_555
C7_4 C6_4 1_555 1_555
H3_4 C7_4 1_555 1_555
C8_4 C2_4 1_555 1_555
H4_4 C8_4 1_555 1_555
O7_2 C1_4 1_555 1_555
O3_4 C5_4 1_555 1_555
O8_2 C1_4 1_555 1_555
O9 C5_4 1_555 1_555
V2 O3_4 1_555 1_555
C7_4 C8_4 1_555 1_555

#END
