
###############################################################################
#
# This file contains modified crystal structure data generated from the
# MOF subset of the Cambridge Structural Database (CSD) v543 
# hosted by the Cambridge Crystallographic Data Centre (CCDC).
#
# This work is licensed under the Creative Commons
# Attribution-NonCommercial-ShareAlike 4.0 International License.
# To view a copy of this license, visit
# http://creativecommons.org/licenses/by-nc-sa/4.0/
# or send a letter to
# Creative Commons, PO Box 1866, Mountain View, CA 94042, USA.
#
# CIF created using the CSD Python API on 29 September 2022
# The structure has been converted into the P1 space group
# The structure has a 3D framework
# The original CSD entry IYAZAL is in the monoclinic crystal system
# The framework has been calculated to contain at least 10.0% void space
# The void calculation uses a probe of radius 1.32A, grid spacing 0.4
#
###############################################################################

data_IYAZAL
_chemical_formula_moiety         '(C60 H44 Cd12 O28)n'
_symmetry_cell_setting           triclinic
_symmetry_space_group_name_H-M   'P 1'
_symmetry_Int_Tables_number      1
_space_group_name_Hall           'P 1'
loop_
_symmetry_equiv_pos_site_id
_symmetry_equiv_pos_as_xyz
1 x,y,z
_cell_length_a                   14.0147(4)
_cell_length_b                   18.3152(5)
_cell_length_c                   7.8630(3)
_cell_angle_alpha                90
_cell_angle_beta                 105.464(4)
_cell_angle_gamma                90
_cell_volume                     1945.23
loop_
_atom_site_label
_atom_site_type_symbol
_atom_site_fract_x
_atom_site_fract_y
_atom_site_fract_z
Cd9 Cd -0.0000 0.0000 0.5000
Cd2 Cd 0.0000 0.5000 0.0000
O5 O 0.0772(3) 0.8449(3) 0.2372(9)
O11 O 0.1770(2) 0.55206(19) 0.0924(4)
H21 H 0.2217 0.5208 0.1574
H22 H 0.1812 0.5959 0.1455
Cd5 Cd 0.18189(3) 0.94108(2) 0.27207(6)
Cd9_2 Cd -0.0000 1.0000 0.5000
O19 O 0.0262(3) 0.4352(2) 0.2568(6)
Cd2_2 Cd -0.0000 0.5000 1.0000
Cd3 Cd 0.18189(3) 0.55892(2) 0.77207(6)
C16 C 0.1368(4) 0.3125(3) 0.7777(7)
C17 C 0.0673(4) 0.2608(3) 0.7883(8)
H12 H 0.0074 0.2748 0.8079
C18 C 0.0877(4) 0.1869(3) 0.7694(8)
C19 C 0.1778(4) 0.1660(3) 0.7486(7)
H13 H 0.1916 0.1166 0.7416
C20 C 0.2496(4) 0.2179(3) 0.7379(7)
C21 C 0.2263(4) 0.2916(3) 0.7505(8)
H14 H 0.2718 0.3272 0.7405
C22 C 0.1147(4) 0.3929(3) 0.8036(8)
C23 C 0.0084(5) 0.1315(3) 0.7646(9)
C24 C 0.3491(4) 0.1948(3) 0.7215(7)
C25 C 0.3610(4) 0.1303(3) 0.6332(8)
H15 H 0.3056 0.1027 0.5789
C26 C 0.4527(5) 0.1074(3) 0.6252(8)
H16 H 0.4587 0.0643 0.5662
C27 C 0.5372(4) 0.1477(4) 0.7045(8)
C28 C 0.5236(5) 0.2134(4) 0.7885(10)
H17 H 0.5782 0.2427 0.8371
C29 C 0.4331(4) 0.2350(4) 0.8007(9)
H18 H 0.4274 0.2772 0.8628
C30 C 0.6374(5) 0.1209(4) 0.7016(10)
O9 O 0.1732(4) 0.4381(2) 0.7710(8)
O10 O 0.1398(6) 0.5442(4) 0.4734(8)
H19 H 0.0840 0.5197 0.4205
H20 H 0.1781 0.5626 0.4085
O12 O 0.0416(3) 0.4062(2) 0.8589(7)
O14 O 0.0262(3) 0.0648(2) 0.7568(6)
O15 O 0.6478(4) 0.0601(3) 0.6468(8)
O16 O 0.7096(4) 0.1584(4) 0.7648(13)
Cd7 Cd 0.81811(3) 0.05892(2) 0.72793(6)
O18 O 0.0772(3) 0.6551(3) 0.7372(9)
O22 O 0.3522(4) 0.5601(3) 0.8532(8)
O24 O 0.2904(4) 0.6584(4) 0.7352(13)
Cd9_3 Cd 1.0000 0.0000 0.5000
Cd1 Cd 0.81811(3) 0.44108(2) 0.22793(6)
Cd2_3 Cd 1.0000 0.5000 0.0000
C1 C 0.8632(4) 0.6875(3) 0.2223(7)
C2 C 0.9327(4) 0.7392(3) 0.2117(8)
H1 H 0.9926 0.7252 0.1921
C3 C 0.9123(4) 0.8131(3) 0.2306(8)
C4 C 0.8222(4) 0.8340(3) 0.2514(7)
H2 H 0.8084 0.8834 0.2584
C5 C 0.7504(4) 0.7821(3) 0.2621(7)
C6 C 0.7737(4) 0.7084(3) 0.2495(8)
H3 H 0.7282 0.6728 0.2595
C7 C 0.8853(4) 0.6071(3) 0.1964(8)
C8 C 0.9916(5) 0.8685(3) 0.2354(9)
C9 C 0.6509(4) 0.8052(3) 0.2785(7)
C10 C 0.6390(4) 0.8697(3) 0.3668(8)
H4 H 0.6944 0.8973 0.4211
C11 C 0.5473(5) 0.8926(3) 0.3748(8)
H5 H 0.5413 0.9357 0.4338
C12 C 0.4628(4) 0.8523(4) 0.2955(8)
C13 C 0.4764(5) 0.7866(4) 0.2115(10)
H6 H 0.4218 0.7573 0.1629
C14 C 0.5669(4) 0.7650(4) 0.1993(9)
H7 H 0.5726 0.7228 0.1372
C15 C 0.3626(5) 0.8791(4) 0.2984(10)
O1 O 0.8268(4) 0.5619(2) 0.2290(8)
O2 O 0.8602(6) 0.4558(4) 0.5266(8)
H8 H 0.9160 0.4803 0.5795
H9 H 0.8219 0.4374 0.5915
O4 O 0.9584(3) 0.5938(2) 0.1411(7)
O6 O 0.9738(3) 0.9352(2) 0.2432(6)
O7 O 0.3522(4) 0.9399(3) 0.3532(8)
O8 O 0.2904(4) 0.8416(4) 0.2352(13)
Cd9_4 Cd 1.0000 1.0000 0.5000
O17 O 0.9228(3) 0.3449(3) 0.2628(9)
O21 O 0.6478(4) 0.4399(3) 0.1468(8)
O23 O 0.7096(4) 0.3416(4) 0.2648(13)
Cd2_4 Cd 1.0000 0.5000 1.0000
O3 O 0.8230(2) 0.44794(19) 0.9076(4)
H10 H 0.7783 0.4792 0.8426
H11 H 0.8188 0.4041 0.8545
O13 O 0.9228(3) 0.1551(3) 0.7628(9)
O20 O 0.9738(3) 0.5648(2) 0.7432(6)
C1_2 C 0.1368(4) 0.1875(3) 0.2777(7)
C2_2 C 0.0673(4) 0.2392(3) 0.2883(8)
H1_2 H 0.0074 0.2252 0.3079
C3_2 C 0.0877(4) 0.3131(3) 0.2694(8)
C4_2 C 0.1778(4) 0.3340(3) 0.2486(7)
H2_2 H 0.1916 0.3834 0.2416
C5_2 C 0.2496(4) 0.2821(3) 0.2379(7)
C6_2 C 0.2263(4) 0.2084(3) 0.2505(8)
H3_2 H 0.2718 0.1728 0.2405
C7_2 C 0.1147(4) 0.1071(3) 0.3036(8)
C8_2 C 0.0084(5) 0.3685(3) 0.2646(9)
C9_2 C 0.3491(4) 0.3052(3) 0.2215(7)
C10_2 C 0.3610(4) 0.3697(3) 0.1332(8)
H4_2 H 0.3056 0.3973 0.0789
C11_2 C 0.4527(5) 0.3926(3) 0.1252(8)
H5_2 H 0.4587 0.4357 0.0662
C12_2 C 0.5372(4) 0.3523(4) 0.2045(8)
C13_2 C 0.5236(5) 0.2866(4) 0.2885(10)
H6_2 H 0.5782 0.2573 0.3371
C14_2 C 0.4331(4) 0.2650(4) 0.3007(9)
H7_2 H 0.4274 0.2228 0.3628
C15_2 C 0.6374(5) 0.3791(4) 0.2016(10)
O1_2 O 0.1732(4) 0.0619(2) 0.2710(8)
O4_2 O 0.0416(3) 0.0938(2) 0.3589(7)
O3_2 O 0.1770(2) 0.94794(19) 0.5924(4)
H10_2 H 0.2217 0.9792 0.6574
H11_2 H 0.1812 0.9041 0.6455
O11_2 O 0.8230(2) 0.05206(19) 0.4076(4)
H21_2 H 0.7783 0.0208 0.3426
H22_2 H 0.8188 0.0959 0.3545
C16_2 C 0.8632(4) 0.8125(3) 0.7223(7)
C17_2 C 0.9327(4) 0.7608(3) 0.7117(8)
H12_2 H 0.9926 0.7748 0.6921
C18_2 C 0.9123(4) 0.6869(3) 0.7306(8)
C19_2 C 0.8222(4) 0.6660(3) 0.7514(7)
H13_2 H 0.8084 0.6166 0.7584
C20_2 C 0.7504(4) 0.7179(3) 0.7621(7)
C21_2 C 0.7737(4) 0.7916(3) 0.7495(8)
H14_2 H 0.7282 0.8272 0.7595
C22_2 C 0.8853(4) 0.8929(3) 0.6964(8)
C23_2 C 0.9916(5) 0.6315(3) 0.7354(9)
C24_2 C 0.6509(4) 0.6948(3) 0.7785(7)
C25_2 C 0.6390(4) 0.6303(3) 0.8668(8)
H15_2 H 0.6944 0.6027 0.9211
C26_2 C 0.5473(5) 0.6074(3) 0.8748(8)
H16_2 H 0.5413 0.5643 0.9338
C27_2 C 0.4628(4) 0.6477(4) 0.7955(8)
C28_2 C 0.4764(5) 0.7134(4) 0.7115(10)
H17_2 H 0.4218 0.7427 0.6629
C29_2 C 0.5669(4) 0.7350(4) 0.6993(9)
H18_2 H 0.5726 0.7772 0.6372
C30_2 C 0.3626(5) 0.6209(4) 0.7984(10)
O9_2 O 0.8268(4) 0.9381(2) 0.7290(8)
O12_2 O 0.9584(3) 0.9062(2) 0.6411(7)
O2_2 O 0.1398(6) 0.9558(4) 0.9734(8)
H8_2 H 0.0840 0.9803 0.9205
H9_2 H 0.1781 0.9374 0.9085
O10_2 O 0.8602(6) 0.0442(4) 0.0266(8)
H19_2 H 0.9160 0.0197 0.0795
H20_2 H 0.8219 0.0626 0.0915
loop_
_geom_bond_atom_site_label_1
_geom_bond_atom_site_label_2
_geom_bond_site_symmetry_1
_geom_bond_site_symmetry_2
O11 Cd2 1_555 1_555
H21 O11 1_555 1_555
H22 O11 1_555 1_555
Cd5 O5 1_555 1_555
O19 Cd2 1_555 1_555
Cd3 O9 1_555 1_555
C16 C17 1_555 1_555
C17 H12 1_555 1_555
C18 C17 1_555 1_555
C19 C18 1_555 1_555
H13 C19 1_555 1_555
C20 C19 1_555 1_555
C21 C16 1_555 1_555
H14 C21 1_555 1_555
C22 C16 1_555 1_555
C23 C18 1_555 1_555
C24 C20 1_555 1_555
C25 C24 1_555 1_555
H15 C25 1_555 1_555
C26 C25 1_555 1_555
H16 C26 1_555 1_555
C27 C26 1_555 1_555
C28 C27 1_555 1_555
H17 C28 1_555 1_555
C29 C24 1_555 1_555
H18 C29 1_555 1_555
C30 C27 1_555 1_555
O9 C22 1_555 1_555
O10 Cd3 1_555 1_555
H19 O10 1_555 1_555
H20 O10 1_555 1_555
O12 Cd2_2 1_555 1_555
O14 C23 1_555 1_555
O15 C30 1_555 1_555
O16 C30 1_555 1_555
Cd7 O15 1_555 1_555
Cd9 O14 1_555 1_555
O18 Cd3 1_555 1_555
O22 Cd3 1_555 1_555
O24 Cd3 1_555 1_555
C20 C21 1_555 1_555
C22 O12 1_555 1_555
C28 C29 1_555 1_555
O16 Cd7 1_555 1_555
Cd1 O1 1_555 1_555
C1 C2 1_555 1_555
C2 H1 1_555 1_555
C3 C2 1_555 1_555
C4 C3 1_555 1_555
H2 C4 1_555 1_555
C5 C4 1_555 1_555
C6 C1 1_555 1_555
H3 C6 1_555 1_555
C7 C1 1_555 1_555
C8 C3 1_555 1_555
C9 C5 1_555 1_555
C10 C9 1_555 1_555
H4 C10 1_555 1_555
C11 C10 1_555 1_555
H5 C11 1_555 1_555
C12 C11 1_555 1_555
C13 C12 1_555 1_555
H6 C13 1_555 1_555
C14 C9 1_555 1_555
H7 C14 1_555 1_555
C15 C12 1_555 1_555
O1 C7 1_555 1_555
O2 Cd1 1_555 1_555
H8 O2 1_555 1_555
H9 O2 1_555 1_555
O4 Cd2_3 1_555 1_555
O6 C8 1_555 1_555
O7 C15 1_555 1_555
O8 C15 1_555 1_555
Cd5 O7 1_555 1_555
Cd9_4 O6 1_555 1_555
O17 Cd1 1_555 1_555
O21 Cd1 1_555 1_555
O23 Cd1 1_555 1_555
C5 C6 1_555 1_555
C7 O4 1_555 1_555
C13 C14 1_555 1_555
O8 Cd5 1_555 1_555
Cd2_4 O3 1_555 1_555
H10 O3 1_555 1_555
H11 O3 1_555 1_555
Cd7 O13 1_555 1_555
O20 Cd2_4 1_555 1_555
C1_2 C2_2 1_555 1_555
C2_2 H1_2 1_555 1_555
C3_2 C2_2 1_555 1_555
C4_2 C3_2 1_555 1_555
H2_2 C4_2 1_555 1_555
C5_2 C4_2 1_555 1_555
C6_2 C1_2 1_555 1_555
H3_2 C6_2 1_555 1_555
C7_2 C1_2 1_555 1_555
C8_2 C3_2 1_555 1_555
C9_2 C5_2 1_555 1_555
C10_2 C9_2 1_555 1_555
H4_2 C10_2 1_555 1_555
C11_2 C10_2 1_555 1_555
H5_2 C11_2 1_555 1_555
C12_2 C11_2 1_555 1_555
C13_2 C12_2 1_555 1_555
H6_2 C13_2 1_555 1_555
C14_2 C9_2 1_555 1_555
H7_2 C14_2 1_555 1_555
C15_2 C12_2 1_555 1_555
O1_2 C7_2 1_555 1_555
O4_2 Cd9 1_555 1_555
O19 C8_2 1_555 1_555
O21 C15_2 1_555 1_555
O23 C15_2 1_555 1_555
C5_2 C6_2 1_555 1_555
C7_2 O4_2 1_555 1_555
C13_2 C14_2 1_555 1_555
Cd9_2 O3_2 1_555 1_555
O3_2 Cd5 1_555 1_555
H10_2 O3_2 1_555 1_555
H11_2 O3_2 1_555 1_555
O11_2 Cd9_3 1_555 1_555
H21_2 O11_2 1_555 1_555
H22_2 O11_2 1_555 1_555
Cd7 O11_2 1_555 1_555
C16_2 C17_2 1_555 1_555
C17_2 H12_2 1_555 1_555
C18_2 C17_2 1_555 1_555
C19_2 C18_2 1_555 1_555
H13_2 C19_2 1_555 1_555
C20_2 C19_2 1_555 1_555
C21_2 C16_2 1_555 1_555
H14_2 C21_2 1_555 1_555
C22_2 C16_2 1_555 1_555
C23_2 C18_2 1_555 1_555
C24_2 C20_2 1_555 1_555
C25_2 C24_2 1_555 1_555
H15_2 C25_2 1_555 1_555
C26_2 C25_2 1_555 1_555
H16_2 C26_2 1_555 1_555
C27_2 C26_2 1_555 1_555
C28_2 C27_2 1_555 1_555
H17_2 C28_2 1_555 1_555
C29_2 C24_2 1_555 1_555
H18_2 C29_2 1_555 1_555
C30_2 C27_2 1_555 1_555
O9_2 C22_2 1_555 1_555
O12_2 Cd9_4 1_555 1_555
O20 C23_2 1_555 1_555
O22 C30_2 1_555 1_555
O24 C30_2 1_555 1_555
C20_2 C21_2 1_555 1_555
C22_2 O12_2 1_555 1_555
C28_2 C29_2 1_555 1_555
H8_2 O2_2 1_555 1_555
H9_2 O2_2 1_555 1_555
H19_2 O10_2 1_555 1_555
H20_2 O10_2 1_555 1_555

#END
