
###############################################################################
#
# This file contains modified crystal structure data generated from the
# MOF subset of the Cambridge Structural Database (CSD) v543 
# hosted by the Cambridge Crystallographic Data Centre (CCDC).
#
# This work is licensed under the Creative Commons
# Attribution-NonCommercial-ShareAlike 4.0 International License.
# To view a copy of this license, visit
# http://creativecommons.org/licenses/by-nc-sa/4.0/
# or send a letter to
# Creative Commons, PO Box 1866, Mountain View, CA 94042, USA.
#
# CIF created using the CSD Python API on 29 September 2022
# The structure has been converted into the P1 space group
# The structure has a 3D framework
# The original CSD entry IYESIQ is in the triclinic crystal system
# The framework has been calculated to contain at least 10.0% void space
# The void calculation uses a probe of radius 1.32A, grid spacing 0.4
#
###############################################################################

data_IYESIQ
_chemical_formula_moiety         '(C48 H70 Cd2 N12 O8)n'
_symmetry_cell_setting           triclinic
_symmetry_space_group_name_H-M   'P 1'
_symmetry_Int_Tables_number      1
_space_group_name_Hall           'P 1'
loop_
_symmetry_equiv_pos_site_id
_symmetry_equiv_pos_as_xyz
1 x,y,z
_cell_length_a                   8.3519(3)
_cell_length_b                   10.8757(8)
_cell_length_c                   18.0060(10)
_cell_angle_alpha                106.753(6)
_cell_angle_beta                 91.980(4)
_cell_angle_gamma                94.345(4)
_cell_volume                     1558.89
loop_
_atom_site_label
_atom_site_type_symbol
_atom_site_fract_x
_atom_site_fract_y
_atom_site_fract_z
_atom_site_U_iso_or_equiv
_atom_site_thermal_displace_type
H37 H 0.2844 0.2868 0.0189 0.0820 Uiso
C28 C 0.2174(9) 0.0466(9) 0.0471(4) 0.0490 Uani
H40 H 0.2475 0.1071 0.0978 0.0590 Uiso
C29 C 0.0403(11) 0.0331(14) 0.0347(5) 0.0921 Uani
H41 H 0.0069 0.1199 0.0480 0.1110 Uiso
C35 C 0.3029(9) 0.2176(7) 0.7012(4) 0.0453 Uani
H50 H 0.3871 0.2816 0.7195 0.0540 Uiso
C36 C 0.1634(9) 0.2326(8) 0.6652(4) 0.0450 Uani
H51 H 0.1348 0.3068 0.6542 0.0540 Uiso
C37 C 0.1584(9) 0.0390(8) 0.6746(4) 0.0465 Uani
N11 N 0.3013(7) 0.0960(6) 0.7067(3) 0.0423 Uani
N12 N 0.0739(7) 0.1174(6) 0.6484(4) 0.0432 Uani
H21 H 0.0014 0.0054 0.9268 0.1110 Uiso
C25 C 0.3897(12) 0.2076(8) 0.9163(5) 0.0637 Uani
H36 H 0.4177 0.2778 0.8982 0.0760 Uiso
C26 C 0.3162(12) 0.2135(9) 0.9834(6) 0.0681 Uani
C27 C 0.3583(9) 0.0175(7) 0.9237(4) 0.0420 Uani
N7 N 0.4158(7) 0.0842(6) 0.8799(3) 0.0414 Uani
N8 N 0.2989(7) 0.0913(6) 0.9879(3) 0.0410 Uani
C23 C 0.0780(9) 0.9180(9) 0.3986(5) 0.0555 Uani
H32 H 0.1430 0.8454 0.3860 0.0670 Uiso
H33 H 0.1364 0.9890 0.3857 0.0670 Uiso
C24 C 0.0537(11) 0.9557(12) 0.4814(6) 0.0879 Uani
H34 H 0.0238 0.8765 0.4940 0.1050 Uiso
H35 H 0.1587 0.9882 0.5072 0.1050 Uiso
H39 H 0.2535 0.9639 0.0471 0.0590 Uiso
H52 H 0.1225 0.9543 0.6711 0.0560 Uiso
Cd5 Cd 0.50047(6) 0.99874(5) 0.75611(3) 0.0389 Uani
H38 H 0.3584 0.9284 0.9119 0.0500 Uiso
Cd1 Cd 0.49953(6) 0.00126(5) 0.24389(3) 0.0389 Uani
C1 C 0.6363(10) 0.2563(9) 0.2461(5) 0.0561 Uani
C2 C 0.6847(13) 0.3959(9) 0.2518(6) 0.0707 Uani
H1 H 0.6192 0.4494 0.2893 0.0850 Uiso
H2 H 0.7955 0.4162 0.2723 0.0850 Uiso
C3 C 0.6708(15) 0.4328(11) 0.1792(7) 0.0884 Uani
H3 H 0.5578 0.4207 0.1621 0.1060 Uiso
H4 H 0.7030 0.5244 0.1920 0.1060 Uiso
C4 C 0.7578(17) 0.3696(12) 0.1146(7) 0.1045 Uani
H5 H 0.7216 0.2785 0.0985 0.1250 Uiso
H6 H 0.8709 0.3781 0.1310 0.1250 Uiso
C5 C 0.7380(16) 0.4257(12) 0.0397(7) 0.1020 Uani
H7 H 0.6250 0.4280 0.0262 0.1230 Uiso
H8 H 0.7900 0.5125 0.0519 0.1230 Uiso
H17 H 0.6416 0.0716 0.0881 0.0500 Uiso
C15 C 0.5025(10) 0.0952(8) 0.4343(5) 0.0501 Uani
H22 H 0.5664 0.0304 0.4377 0.0600 Uiso
C16 C 0.4643(10) 0.1920(8) 0.4956(5) 0.0540 Uani
H23 H 0.4967 0.2064 0.5476 0.0650 Uiso
C17 C 0.3542(9) 0.2092(8) 0.3879(5) 0.0447 Uani
H24 H 0.2953 0.2400 0.3534 0.0540 Uiso
C18 C 0.3139(9) 0.3875(8) 0.5065(5) 0.0534 Uani
H25 H 0.2585 0.3790 0.5515 0.0640 Uiso
H26 H 0.2380 0.4129 0.4729 0.0640 Uiso
C19 C 0.4524(10) 0.4910(8) 0.5328(5) 0.0545 Uani
H27 H 0.4105 0.5720 0.5592 0.0660 Uiso
H28 H 0.5232 0.4687 0.5698 0.0660 Uiso
H31 H 0.8775 0.0457 0.3289 0.0560 Uiso
O1 O 0.7284(7) 0.1945(6) 0.2747(4) 0.0627 Uani
O2 O 0.5013(6) 0.2064(5) 0.2143(3) 0.0539 Uani
N3 N 0.4343(7) 0.1061(6) 0.3672(4) 0.0420 Uani
N4 N 0.3681(7) 0.2646(6) 0.4654(4) 0.0438 Uani
C30 C 0.4975(10) 0.9048(8) 0.5657(5) 0.0501 Uani
H43 H 0.4336 0.9696 0.5623 0.0600 Uiso
C31 C 0.5357(10) 0.8080(8) 0.5044(5) 0.0540 Uani
H44 H 0.5033 0.7936 0.4524 0.0650 Uiso
C32 C 0.6458(9) 0.7908(8) 0.6121(5) 0.0447 Uani
H45 H 0.7047 0.7600 0.6466 0.0540 Uiso
C33 C 0.6861(9) 0.6125(8) 0.4935(5) 0.0534 Uani
H46 H 0.7415 0.6210 0.4485 0.0640 Uiso
H47 H 0.7620 0.5871 0.5271 0.0640 Uiso
C34 C 0.5476(10) 0.5090(8) 0.4672(5) 0.0545 Uani
H48 H 0.5895 0.4280 0.4408 0.0660 Uiso
H49 H 0.4768 0.5313 0.4302 0.0660 Uiso
N9 N 0.5657(7) 0.8939(6) 0.6328(4) 0.0420 Uani
N10 N 0.6319(7) 0.7354(6) 0.5346(4) 0.0438 Uani
C38 C 0.9220(9) 0.0820(9) 0.6014(5) 0.0555 Uani
H53 H 0.8570 0.1546 0.6140 0.0670 Uiso
H54 H 0.8636 0.0110 0.6143 0.0670 Uiso
C39 C 0.9463(11) 0.0443(12) 0.5186(6) 0.0879 Uani
H55 H 0.9762 0.1235 0.5060 0.1050 Uiso
H56 H 0.8413 0.0118 0.4928 0.1050 Uiso
C6 C 0.8170(16) 0.3354(12) 0.9714(7) 0.0970 Uani
H9 H 0.9207 0.3184 0.9903 0.1160 Uiso
H10 H 0.7509 0.2539 0.9544 0.1160 Uiso
C7 C 0.8425(14) 0.3846(11) 0.9007(6) 0.0887 Uani
H11 H 0.9176 0.4613 0.9146 0.1070 Uiso
H12 H 0.7413 0.4060 0.8816 0.1070 Uiso
C8 C 0.9132(12) 0.2710(11) 0.8351(6) 0.0833 Uani
H13 H 0.9590 0.3051 0.7955 0.1000 Uiso
H14 H 0.9975 0.2347 0.8582 0.1000 Uiso
C9 C 0.7790(11) 0.1682(10) 0.7992(5) 0.0608 Uani
H18 H 0.7465 0.0361 0.9529 0.0590 Uiso
O3 O 0.7811(6) 0.0541(6) 0.8018(3) 0.0570 Uani
O4 O 0.6596(7) 0.2030(6) 0.7690(4) 0.0611 Uani
C10 C 0.6103(12) 0.7924(8) 0.0837(5) 0.0637 Uani
H15 H 0.5823 0.7222 0.1018 0.0760 Uiso
C11 C 0.6838(12) 0.7865(9) 0.0166(6) 0.0681 Uani
C12 C 0.6417(9) 0.9825(7) 0.0763(4) 0.0420 Uani
C20 C 0.6971(9) 0.7824(7) 0.2988(4) 0.0453 Uani
H29 H 0.6129 0.7184 0.2805 0.0540 Uiso
C21 C 0.8366(9) 0.7674(8) 0.3348(4) 0.0450 Uani
H30 H 0.8652 0.6932 0.3458 0.0540 Uiso
C22 C 0.8416(9) 0.9610(8) 0.3254(4) 0.0465 Uani
N1 N 0.5842(7) 0.9158(6) 0.1201(3) 0.0414 Uani
N2 N 0.7011(7) 0.9087(6) 0.0121(3) 0.0410 Uani
N5 N 0.6987(7) 0.9040(6) 0.2933(3) 0.0423 Uani
N6 N 0.9261(7) 0.8826(6) 0.3516(4) 0.0432 Uani
H42 H 0.9986 0.9946 0.0732 0.1110 Uiso
C45 C 0.1830(16) 0.6646(12) 0.0286(7) 0.0970 Uani
H65 H 0.0793 0.6816 0.0097 0.1160 Uiso
H66 H 0.2491 0.7461 0.0456 0.1160 Uiso
C46 C 0.1575(14) 0.6154(11) 0.0993(6) 0.0887 Uani
H67 H 0.0824 0.5387 0.0854 0.1070 Uiso
H68 H 0.2587 0.5940 0.1184 0.1070 Uiso
C47 C 0.0868(12) 0.7290(11) 0.1649(6) 0.0833 Uani
H69 H 0.0410 0.6949 0.2045 0.1000 Uiso
H70 H 0.0025 0.7653 0.1418 0.1000 Uiso
C48 C 0.2210(11) 0.8318(10) 0.2008(5) 0.0608 Uani
O7 O 0.2189(6) 0.9459(6) 0.1982(3) 0.0570 Uani
O8 O 0.3404(7) 0.7970(6) 0.2310(4) 0.0611 Uani
H16 H 0.7156 0.7132 0.9811 0.0820 Uiso
C13 C 0.7826(9) 0.9534(9) 0.9529(4) 0.0490 Uani
H19 H 0.7525 0.8929 0.9022 0.0590 Uiso
C14 C 0.9597(11) 0.9669(14) 0.9653(5) 0.0921 Uani
H20 H 0.9931 0.8801 0.9520 0.1110 Uiso
C40 C 0.3637(10) 0.7437(9) 0.7539(5) 0.0561 Uani
C41 C 0.3153(13) 0.6041(9) 0.7482(6) 0.0707 Uani
H57 H 0.3808 0.5506 0.7107 0.0850 Uiso
H58 H 0.2045 0.5838 0.7277 0.0850 Uiso
C42 C 0.3292(15) 0.5672(11) 0.8208(7) 0.0884 Uani
H59 H 0.4422 0.5793 0.8379 0.1060 Uiso
H60 H 0.2970 0.4756 0.8080 0.1060 Uiso
C43 C 0.2422(17) 0.6304(12) 0.8854(7) 0.1045 Uani
H61 H 0.2784 0.7215 0.9015 0.1250 Uiso
H62 H 0.1291 0.6219 0.8690 0.1250 Uiso
C44 C 0.2620(16) 0.5743(12) 0.9603(7) 0.1020 Uani
H63 H 0.3750 0.5720 0.9738 0.1230 Uiso
H64 H 0.2100 0.4875 0.9481 0.1230 Uiso
O5 O 0.2716(7) 0.8055(6) 0.7253(4) 0.0627 Uani
O6 O 0.4987(6) 0.7936(5) 0.7857(3) 0.0539 Uani
loop_
_atom_site_aniso_label
_atom_site_aniso_U_11
_atom_site_aniso_U_22
_atom_site_aniso_U_33
_atom_site_aniso_U_23
_atom_site_aniso_U_13
_atom_site_aniso_U_12
C28 0.048 0.066 0.036 0.02 0.005 0.002
C29 0.052 0.177 0.059 0.065 -0.005 -0.034
C35 0.044 0.038 0.05 0.008 0.002 -0.002
C36 0.044 0.039 0.055 0.018 0.002 0.006
C37 0.049 0.044 0.05 0.02 0 0.002
N11 0.049 0.036 0.042 0.012 -0.002 0.004
N12 0.036 0.049 0.047 0.018 0.001 0.003
C25 0.09 0.037 0.062 0.01 0.036 -0.004
C26 0.085 0.043 0.069 0.002 0.029 0.005
C27 0.046 0.038 0.04 0.008 0.005 0.004
N7 0.038 0.043 0.043 0.011 0.01 0.005
N8 0.036 0.048 0.038 0.011 0.005 0.002
C23 0.036 0.073 0.058 0.021 -0.003 0.004
C24 0.056 0.123 0.066 -0.003 -0.018 0.022
Cd5 0.0378 0.039 0.0377 0.0073 0.0024 0.0046
Cd1 0.0378 0.039 0.0377 0.0073 0.0024 0.0046
C1 0.05 0.046 0.071 0.016 0.002 0.001
C2 0.08 0.045 0.083 0.016 -0.001 -0.006
C3 0.114 0.06 0.089 0.021 0.016 -0.007
C4 0.131 0.079 0.097 0.017 0.026 -0.006
C5 0.123 0.086 0.088 0.014 0.022 -0.01
C15 0.059 0.049 0.049 0.021 0.003 0.02
C16 0.07 0.057 0.042 0.021 0.008 0.022
C17 0.041 0.046 0.049 0.017 0.003 0.003
C18 0.05 0.046 0.062 0.008 0.025 0.011
C19 0.06 0.042 0.059 0.008 0.018 0.009
O1 0.048 0.056 0.088 0.028 0.002 0.002
O2 0.046 0.044 0.067 0.01 0 0
N3 0.048 0.034 0.042 0.007 0.006 0.006
N4 0.044 0.042 0.045 0.01 0.013 0.007
C30 0.059 0.049 0.049 0.021 0.003 0.02
C31 0.07 0.057 0.042 0.021 0.008 0.022
C32 0.041 0.046 0.049 0.017 0.003 0.003
C33 0.05 0.046 0.062 0.008 0.025 0.011
C34 0.06 0.042 0.059 0.008 0.018 0.009
N9 0.048 0.034 0.042 0.007 0.006 0.006
N10 0.044 0.042 0.045 0.01 0.013 0.007
C38 0.036 0.073 0.058 0.021 -0.003 0.004
C39 0.056 0.123 0.066 -0.003 -0.018 0.022
C6 0.106 0.09 0.085 0.013 0.011 -0.007
C7 0.088 0.086 0.079 0.009 0.001 -0.012
C8 0.068 0.09 0.076 0.005 0.008 -0.019
C9 0.053 0.07 0.057 0.018 0.011 -0.011
O3 0.047 0.069 0.056 0.021 0.004 0
O4 0.059 0.057 0.068 0.022 0.006 -0.006
C10 0.09 0.037 0.062 0.01 0.036 -0.004
C11 0.085 0.043 0.069 0.002 0.029 0.005
C12 0.046 0.038 0.04 0.008 0.005 0.004
C20 0.044 0.038 0.05 0.008 0.002 -0.002
C21 0.044 0.039 0.055 0.018 0.002 0.006
C22 0.049 0.044 0.05 0.02 0 0.002
N1 0.038 0.043 0.043 0.011 0.01 0.005
N2 0.036 0.048 0.038 0.011 0.005 0.002
N5 0.049 0.036 0.042 0.012 -0.002 0.004
N6 0.036 0.049 0.047 0.018 0.001 0.003
C45 0.106 0.09 0.085 0.013 0.011 -0.007
C46 0.088 0.086 0.079 0.009 0.001 -0.012
C47 0.068 0.09 0.076 0.005 0.008 -0.019
C48 0.053 0.07 0.057 0.018 0.011 -0.011
O7 0.047 0.069 0.056 0.021 0.004 0
O8 0.059 0.057 0.068 0.022 0.006 -0.006
C13 0.048 0.066 0.036 0.02 0.005 0.002
C14 0.052 0.177 0.059 0.065 -0.005 -0.034
C40 0.05 0.046 0.071 0.016 0.002 0.001
C41 0.08 0.045 0.083 0.016 -0.001 -0.006
C42 0.114 0.06 0.089 0.021 0.016 -0.007
C43 0.131 0.079 0.097 0.017 0.026 -0.006
C44 0.123 0.086 0.088 0.014 0.022 -0.01
O5 0.048 0.056 0.088 0.028 0.002 0.002
O6 0.046 0.044 0.067 0.01 0 0
loop_
_geom_bond_atom_site_label_1
_geom_bond_atom_site_label_2
_geom_bond_site_symmetry_1
_geom_bond_site_symmetry_2
H40 C28 1_555 1_555
H41 C29 1_555 1_555
C35 H50 1_555 1_555
C36 C35 1_555 1_555
H51 C36 1_555 1_555
N11 C35 1_555 1_555
N12 C36 1_555 1_555
C28 C29 1_555 1_555
C37 N11 1_555 1_555
C37 N12 1_555 1_555
C25 H36 1_555 1_555
C26 C25 1_555 1_555
N7 C25 1_555 1_555
N8 C26 1_555 1_555
C27 N7 1_555 1_555
C27 N8 1_555 1_555
C23 H32 1_555 1_555
H33 C23 1_555 1_555
C24 C23 1_555 1_555
H34 C24 1_555 1_555
H35 C24 1_555 1_555
Cd1 O1 1_555 1_555
C1 C2 1_555 1_555
C2 H1 1_555 1_555
H2 C2 1_555 1_555
C3 C2 1_555 1_555
H3 C3 1_555 1_555
H4 C3 1_555 1_555
C4 C3 1_555 1_555
H5 C4 1_555 1_555
H6 C4 1_555 1_555
C5 C4 1_555 1_555
H7 C5 1_555 1_555
H8 C5 1_555 1_555
C15 H22 1_555 1_555
C16 C15 1_555 1_555
H23 C16 1_555 1_555
C17 H24 1_555 1_555
C18 H25 1_555 1_555
H26 C18 1_555 1_555
C19 C18 1_555 1_555
H27 C19 1_555 1_555
H28 C19 1_555 1_555
O1 C1 1_555 1_555
O2 Cd1 1_555 1_555
N3 Cd1 1_555 1_555
N4 C16 1_555 1_555
C30 H43 1_555 1_555
C31 C30 1_555 1_555
H44 C31 1_555 1_555
C32 H45 1_555 1_555
C33 H46 1_555 1_555
H47 C33 1_555 1_555
C34 C19 1_555 1_555
H48 C34 1_555 1_555
H49 C34 1_555 1_555
N9 C30 1_555 1_555
N10 C31 1_555 1_555
C38 H53 1_555 1_555
H54 C38 1_555 1_555
H55 C39 1_555 1_555
H56 C39 1_555 1_555
Cd5 N9 1_555 1_555
C1 O2 1_555 1_555
C15 N3 1_555 1_555
C17 N3 1_555 1_555
C17 N4 1_555 1_555
C18 N4 1_555 1_555
C32 N9 1_555 1_555
C32 N10 1_555 1_555
C33 C34 1_555 1_555
C33 N10 1_555 1_555
C38 C39 1_555 1_555
H9 C6 1_555 1_555
H10 C6 1_555 1_555
C7 C6 1_555 1_555
H11 C7 1_555 1_555
H12 C7 1_555 1_555
C8 C7 1_555 1_555
H13 C8 1_555 1_555
H14 C8 1_555 1_555
C9 C8 1_555 1_555
O3 C9 1_555 1_555
O4 C9 1_555 1_555
C10 H15 1_555 1_555
C11 C10 1_555 1_555
C20 H29 1_555 1_555
C21 C20 1_555 1_555
H30 C21 1_555 1_555
N2 C11 1_555 1_555
N6 C21 1_555 1_555
H65 C45 1_555 1_555
H66 C45 1_555 1_555
C46 C45 1_555 1_555
H67 C46 1_555 1_555
H68 C46 1_555 1_555
C47 C46 1_555 1_555
H69 C47 1_555 1_555
H70 C47 1_555 1_555
C48 C47 1_555 1_555
C10 N1 1_555 1_555
C12 N1 1_555 1_555
C12 N2 1_555 1_555
C20 N5 1_555 1_555
C22 N5 1_555 1_555
C22 N6 1_555 1_555
C48 O7 1_555 1_555
C48 O8 1_555 1_555
H19 C13 1_555 1_555
C14 C13 1_555 1_555
H20 C14 1_555 1_555
C40 C41 1_555 1_555
C41 H57 1_555 1_555
H58 C41 1_555 1_555
C42 C41 1_555 1_555
H59 C42 1_555 1_555
H60 C42 1_555 1_555
C43 C42 1_555 1_555
H61 C43 1_555 1_555
H62 C43 1_555 1_555
C44 C43 1_555 1_555
H63 C44 1_555 1_555
H64 C44 1_555 1_555
O5 Cd5 1_555 1_555
O6 Cd5 1_555 1_555
C40 O5 1_555 1_555
C40 O6 1_555 1_555

#END
