
###############################################################################
#
# This file contains modified crystal structure data generated from the
# MOF subset of the Cambridge Structural Database (CSD) v543 
# hosted by the Cambridge Crystallographic Data Centre (CCDC).
#
# This work is licensed under the Creative Commons
# Attribution-NonCommercial-ShareAlike 4.0 International License.
# To view a copy of this license, visit
# http://creativecommons.org/licenses/by-nc-sa/4.0/
# or send a letter to
# Creative Commons, PO Box 1866, Mountain View, CA 94042, USA.
#
# CIF created using the CSD Python API on 29 September 2022
# The structure has been converted into the P1 space group
# The structure has a 3D framework
# The original CSD entry IYOBEG is in the triclinic crystal system
# The framework has been calculated to contain at least 10.0% void space
# The void calculation uses a probe of radius 1.32A, grid spacing 0.4
#
###############################################################################

data_IYOBEG
_chemical_formula_moiety         '(C60 H46 N8 O35 Zn6)n'
_symmetry_cell_setting           triclinic
_symmetry_space_group_name_H-M   'P 1'
_symmetry_Int_Tables_number      1
_space_group_name_Hall           'P 1'
loop_
_symmetry_equiv_pos_site_id
_symmetry_equiv_pos_as_xyz
1 x,y,z
_cell_length_a                   16.6706(12)
_cell_length_b                   16.6706(13)
_cell_length_c                   17.7165(12)
_cell_angle_alpha                65.501(3)
_cell_angle_beta                 65.445(3)
_cell_angle_gamma                69.980(4)
_cell_volume                     3988.2
loop_
_atom_site_label
_atom_site_type_symbol
_atom_site_fract_x
_atom_site_fract_y
_atom_site_fract_z
_atom_site_U_iso_or_equiv
_atom_site_thermal_displace_type
Zn18 Zn 0.01243(16) 0.08646(11) 0.99504(9) 0.0743 Uani
Zn8 Zn 0.00808(8) 0.50836(8) 0.57655(7) 0.0326 Uani
O24 O 0.0065(6) 0.3585(5) 0.4884(5) 0.0485 Uani
O25 O 0.0211(6) 0.3729(5) 0.6013(5) 0.0547 Uani
O27 O 0.0224(9) 0.1176(7) 0.8682(6) 0.0844 Uani
C40 C 0.0112(10) 0.3293(8) 0.5655(8) 0.0520 Uani
C41 C 0.0159(9) 0.2299(8) 0.6125(7) 0.0462 Uani
N6 N 0.0087(12) 0.0243(8) 0.5825(8) 0.0903 Uani
C42 C 0.0204(10) 0.1930(8) 0.6974(8) 0.0543 Uani
H29 H 0.0254 0.2300 0.7233 0.0650 Uiso
C43 C 0.0122(11) 0.1747(8) 0.5720(8) 0.0615 Uani
H30 H 0.0105 0.1985 0.5137 0.0740 Uiso
C44 C 0.0178(11) 0.1049(9) 0.7436(8) 0.0604 Uani
C45 C 0.0138(12) 0.0657(9) 0.8385(8) 0.0654 Uani
C47 C 0.0128(12) 0.0493(9) 0.7048(9) 0.0739 Uani
C48 C 0.0112(12) 0.0852(9) 0.6195(8) 0.0648 Uani
O29 O 0.6217(8) 0.3752(9) 0.0229(8) 0.0966 Uani
O30 O 0.8760(10) 0.1211(9) 0.0234(7) 0.0982 Uani
O31 O 0.4908(9) 0.3597(10) 0.0302(8) 0.1022 Uani
C49 C 0.5702(13) 0.3354(15) 0.0274(11) 0.0918 Uani
C50 C 0.6076(14) 0.2374(15) 0.0363(11) 0.0953 Uani
C51 C 0.6980(14) 0.1978(14) 0.0353(10) 0.0913 Uani
H32 H 0.7335 0.2330 0.0335 0.1100 Uiso
C52 C 0.7363(16) 0.1086(16) 0.0369(12) 0.1028 Uani
C53 C 0.8322(16) 0.0703(15) 0.0297(11) 0.0958 Uani
C54 C 0.5582(17) 0.1781(18) 0.0413(15) 0.1209 Uani
H33 H 0.4968 0.2007 0.0437 0.1450 Uiso
C55 C 0.6811(18) 0.0558(18) 0.0415(15) 0.1234 Uani
C56 C 0.594(2) 0.095(2) 0.043(3) 0.1803 Uani
N7 N 0.5347(19) 0.0458(18) 0.045(2) 0.1870 Uani
H35 H 0.4875 0.0341 0.0921 0.2240 Uiso
H46 H 0.0310 0.2096 0.0442 0.1450 Uiso
Zn14 Zn 0.41356(11) 0.48759(15) 0.00504(9) 0.0742 Uani
O14 O 0.1394(11) 0.0103(10) 0.9690(10) 0.1162 Uani
H16 H 0.2953 0.0054 0.9563 0.1480 Uiso
O33 O 0.499(3) 0.111(2) 0.955(3) 0.3016 Uani
C57 C 0.549(3) 0.020(2) 0.982(3) 0.1935 Uani
O36 O 0.0430(9) 0.1926(8) 0.9930(8) 0.0966 Uani
H45 H 0.0743 0.2382 0.9416 0.1450 Uiso
Zn12 Zn 0.58644(11) 0.51241(15) 0.99496(9) 0.0742 Uani
O1 O 0.1417(5) 0.4933(6) 0.5110(5) 0.0476 Uani
O4 O 0.1270(5) 0.4795(7) 0.3988(5) 0.0546 Uani
O6 O 0.5136(7) 0.4942(9) 0.1229(6) 0.0798 Uani
O7 O 0.3826(7) 0.4774(10) 0.1318(6) 0.0976 Uani
C1 C 0.1707(8) 0.4880(9) 0.4355(7) 0.0476 Uani
C2 C 0.2716(8) 0.4827(9) 0.3875(7) 0.0440 Uani
C3 C 0.4321(9) 0.4887(12) 0.1622(8) 0.0667 Uani
C4 C 0.3069(8) 0.4796(10) 0.3025(7) 0.0525 Uani
H1 H 0.2697 0.4744 0.2768 0.0630 Uiso
C7 C 0.3951(8) 0.4841(10) 0.2556(8) 0.0567 Uani
C8 C 0.3244(8) 0.4871(11) 0.4278(8) 0.0601 Uani
H2 H 0.2990 0.4911 0.4854 0.0720 Uiso
N2 N 0.4758(8) 0.4905(12) 0.4175(8) 0.0877 Uani
H5 H 0.5324 0.4876 0.3837 0.1050 Uiso
C10 C 0.4494(9) 0.4848(12) 0.2965(8) 0.0693 Uani
H8 H 0.5115 0.4847 0.2649 0.0830 Uiso
H9 H 0.6899 0.5797 0.0219 0.1530 Uiso
C13 C 0.4161(9) 0.4855(12) 0.3823(8) 0.0638 Uani
C15 C 0.4584(10) 0.4989(15) 0.4933(10) 0.0872 Uani
C17 C 0.0008(15) 0.9587(10) 0.4920(10) 0.0901 Uani
O16 O 0.3876(8) 0.5004(17) 0.5485(9) 0.1821 Uani
O17 O 0.0014(17) 0.8877(9) 0.5475(9) 0.1772 Uani
H20 H 0.0156 0.4675 0.8388 0.3320 Uiso
O18 O 0.501(3) 0.889(2) 0.045(3) 0.3016 Uani
C30 C 0.451(3) 0.980(2) 0.018(3) 0.1935 Uani
O19 O 0.8583(5) 0.5067(6) 0.4890(5) 0.0476 Uani
O20 O 0.8730(5) 0.5205(7) 0.6012(5) 0.0546 Uani
O21 O 0.4864(7) 0.5058(9) 0.8771(6) 0.0798 Uani
O22 O 0.6174(7) 0.5226(10) 0.8682(6) 0.0976 Uani
C31 C 0.8293(8) 0.5120(9) 0.5645(7) 0.0476 Uani
C32 C 0.7284(8) 0.5173(9) 0.6125(7) 0.0440 Uani
C33 C 0.5679(9) 0.5113(12) 0.8378(8) 0.0667 Uani
C34 C 0.6931(8) 0.5204(10) 0.6975(7) 0.0525 Uani
H24 H 0.7303 0.5256 0.7232 0.0630 Uiso
C35 C 0.6049(8) 0.5159(10) 0.7444(8) 0.0567 Uani
C36 C 0.6756(8) 0.5129(11) 0.5722(8) 0.0601 Uani
H25 H 0.7010 0.5089 0.5146 0.0720 Uiso
N5 N 0.5242(8) 0.5095(12) 0.5825(8) 0.0877 Uani
H26 H 0.4676 0.5124 0.6163 0.1050 Uiso
C37 C 0.5506(9) 0.5152(12) 0.7035(8) 0.0693 Uani
H27 H 0.4885 0.5153 0.7351 0.0830 Uiso
C38 C 0.5839(9) 0.5145(12) 0.6177(8) 0.0638 Uani
C39 C 0.5416(10) 0.5011(15) 0.5067(10) 0.0872 Uani
O23 O 0.6124(8) 0.4996(17) 0.4515(9) 0.1821 Uani
O26 O 0.0060(9) 0.9865(6) 0.8772(6) 0.0830 Uani
H28 H 0.0144 0.9673 0.6151 0.1080 Uiso
H31 H 0.0107 0.9877 0.7367 0.0880 Uiso
O32 O 0.8606(11) 0.9897(10) 0.0310(10) 0.1162 Uani
H34 H 0.7047 0.9946 0.0437 0.1480 Uiso
O34 O 0.0068(6) 0.5079(6) 0.3016(5) 0.0525 Uani
C58 C 0.0585(12) 0.5584(12) 0.2414(9) 0.0776 Uani
H36 H 0.0856 0.5848 0.2606 0.0930 Uiso
N8 N 0.0799(12) 0.5794(12) 0.1604(8) 0.1062 Uani
C59 C 0.137(2) 0.638(2) 0.0963(12) 0.1902 Uani
H37 H 0.1957 0.6180 0.1053 0.2870 Uiso
H38 H 0.1444 0.6394 0.0381 0.2870 Uiso
H39 H 0.1100 0.6993 0.1008 0.2870 Uiso
C60 C 0.044(3) 0.545(3) 0.1216(13) 0.2175 Uani
H41 H 0.0382 0.5897 0.0658 0.3320 Uiso
H42 H 0.0844 0.4893 0.1113 0.3320 Uiso
O35 O 0.3083(8) 0.4581(10) 0.0062(7) 0.1023 Uani
H44 H 0.2474 0.4790 0.0345 0.1530 Uiso
Zn10 Zn 0.99192(8) 0.49164(8) 0.42345(7) 0.0326 Uani
Zn16 Zn 0.98757(16) 0.91354(11) 0.00496(9) 0.0743 Uani
O9 O 0.3783(8) 0.6248(9) 0.9771(8) 0.0966 Uani
O10 O 0.1240(10) 0.8789(9) 0.9766(7) 0.0982 Uani
O12 O 0.5092(9) 0.6403(10) 0.9698(8) 0.1022 Uani
C11 C 0.4298(13) 0.6646(15) 0.9726(11) 0.0918 Uani
O15 O 0.6917(8) 0.5419(10) 0.9938(7) 0.1023 Uani
H10 H 0.7526 0.5210 0.9655 0.1530 Uiso
C19 C 0.3924(14) 0.7626(15) 0.9637(11) 0.0953 Uani
C21 C 0.3020(14) 0.8022(14) 0.9647(10) 0.0913 Uani
H14 H 0.2665 0.7670 0.9665 0.1100 Uiso
C22 C 0.2637(16) 0.8914(16) 0.9631(12) 0.1028 Uani
C24 C 0.1678(16) 0.9297(15) 0.9703(11) 0.0958 Uani
C25 C 0.4418(17) 0.8219(18) 0.9587(15) 0.1209 Uani
H15 H 0.5032 0.7993 0.9563 0.1450 Uiso
C26 C 0.3189(18) 0.9442(18) 0.9585(15) 0.1234 Uani
C28 C 0.406(2) 0.905(2) 0.957(3) 0.1803 Uani
N4 N 0.4653(19) 0.9542(18) 0.955(2) 0.1870 Uani
H23 H 0.5125 0.9659 0.9079 0.2240 Uiso
H43 H 0.3101 0.4203 0.9781 0.1530 Uiso
O8 O 0.9940(9) 0.0135(6) 0.1228(6) 0.0830 Uani
H3 H 0.9856 0.0327 0.3849 0.1080 Uiso
H12 H 0.9893 0.0123 0.2633 0.0880 Uiso
C46 C 0.9992(15) 0.0413(10) 0.5080(10) 0.0901 Uani
O28 O 0.9986(17) 0.1123(9) 0.4525(9) 0.1772 Uani
O2 O 0.9932(6) 0.4921(6) 0.6984(5) 0.0525 Uani
O3 O 0.9935(6) 0.6415(5) 0.5116(5) 0.0485 Uani
O5 O 0.9789(6) 0.6271(5) 0.3987(5) 0.0547 Uani
O11 O 0.9776(9) 0.8824(7) 0.1318(6) 0.0844 Uani
C5 C 0.9888(10) 0.6707(8) 0.4345(8) 0.0520 Uani
C6 C 0.9841(9) 0.7701(8) 0.3875(7) 0.0462 Uani
N1 N 0.9913(12) 0.9757(8) 0.4175(8) 0.0903 Uani
C9 C 0.9796(10) 0.8070(8) 0.3026(8) 0.0543 Uani
H4 H 0.9746 0.7700 0.2767 0.0650 Uiso
O13 O 0.9570(9) 0.8074(8) 0.0070(8) 0.0966 Uani
H6 H 0.9257 0.7618 0.0584 0.1450 Uiso
C12 C 0.9878(11) 0.8253(8) 0.4280(8) 0.0615 Uani
H11 H 0.9895 0.8015 0.4863 0.0740 Uiso
C14 C 0.9822(11) 0.8951(9) 0.2564(8) 0.0604 Uani
C16 C 0.9862(12) 0.9343(9) 0.1615(8) 0.0654 Uani
C18 C 0.9872(12) 0.9507(9) 0.2952(9) 0.0739 Uani
C20 C 0.9415(12) 0.4416(12) 0.7586(9) 0.0776 Uani
H13 H 0.9144 0.4152 0.7394 0.0930 Uiso
N3 N 0.9201(12) 0.4206(12) 0.8396(8) 0.1062 Uani
C23 C 0.9888(12) 0.9148(9) 0.3805(8) 0.0648 Uani
C27 C 0.863(2) 0.362(2) 0.9037(12) 0.1902 Uani
H17 H 0.8043 0.3820 0.8947 0.2870 Uiso
H18 H 0.8556 0.3606 0.9619 0.2870 Uiso
H19 H 0.8900 0.3007 0.8992 0.2870 Uiso
C29 C 0.956(3) 0.455(3) 0.8784(13) 0.2175 Uani
H21 H 0.9618 0.4103 0.9342 0.3320 Uiso
H22 H 0.9156 0.5107 0.8887 0.3320 Uiso
H40 H 0.9844 0.5325 0.1612 0.3320 Uiso
H7 H 0.9690 0.7904 0.9558 0.1450 Uiso
loop_
_atom_site_aniso_label
_atom_site_aniso_U_11
_atom_site_aniso_U_22
_atom_site_aniso_U_33
_atom_site_aniso_U_23
_atom_site_aniso_U_13
_atom_site_aniso_U_12
Zn18 0.1556 0.0565 0.0387 0.0039 -0.0404 -0.0661
Zn8 0.0406 0.0429 0.0194 -0.0083 -0.0054 -0.0218
O24 0.06 0.048 0.038 -0.0074 -0.014 -0.0215
O25 0.088 0.039 0.043 -0.005 -0.025 -0.025
O27 0.168 0.063 0.048 0 -0.044 -0.064
C40 0.081 0.04 0.04 -0.0046 -0.022 -0.025
C41 0.066 0.04 0.035 -0.0074 -0.014 -0.022
N6 0.195 0.047 0.057 0 -0.066 -0.046
C42 0.089 0.042 0.038 -0.005 -0.022 -0.028
C43 0.111 0.042 0.041 -0.004 -0.031 -0.03
C44 0.108 0.043 0.042 -0.0028 -0.031 -0.034
C45 0.122 0.049 0.042 0.001 -0.036 -0.044
C47 0.148 0.045 0.047 0.001 -0.046 -0.042
C48 0.122 0.043 0.044 -0.003 -0.038 -0.033
O29 0.088 0.136 0.088 -0.04 -0.015 -0.06
O30 0.152 0.107 0.067 -0.016 -0.041 -0.07
O31 0.094 0.157 0.077 -0.035 -0.015 -0.069
C49 0.094 0.141 0.062 -0.03 -0.01 -0.071
C50 0.116 0.139 0.056 -0.028 -0.018 -0.071
C51 0.119 0.129 0.055 -0.028 -0.019 -0.072
C52 0.141 0.13 0.071 -0.033 -0.032 -0.068
C53 0.143 0.114 0.06 -0.023 -0.029 -0.071
C54 0.138 0.148 0.115 -0.038 -0.041 -0.078
C55 0.154 0.142 0.119 -0.043 -0.048 -0.075
C56 0.167 0.161 0.28 -0.087 -0.095 -0.061
N7 0.187 0.173 0.275 -0.076 -0.105 -0.078
Zn14 0.0586 0.1578 0.0344 -0.0377 0.005 -0.0711
O14 0.144 0.119 0.117 -0.04 -0.035 -0.069
O33 0.47 0.191 0.369 -0.113 -0.27 -0.013
C57 0.23 0.159 0.264 -0.06 -0.107 -0.098
O36 0.161 0.077 0.086 -0.022 -0.042 -0.066
Zn12 0.0586 0.1578 0.0344 -0.0377 0.005 -0.0711
O1 0.046 0.063 0.034 -0.014 -0.0057 -0.0223
O4 0.042 0.089 0.039 -0.023 -0.003 -0.03
O6 0.063 0.151 0.046 -0.042 0.0045 -0.06
O7 0.073 0.208 0.041 -0.049 0.008 -0.084
C1 0.042 0.07 0.034 -0.016 -0.0032 -0.027
C2 0.042 0.063 0.03 -0.012 -0.0058 -0.025
C3 0.058 0.122 0.035 -0.029 0.0004 -0.05
C4 0.046 0.086 0.032 -0.019 -0.0045 -0.031
C7 0.047 0.097 0.035 -0.023 -0.0033 -0.035
C8 0.044 0.111 0.037 -0.03 -0.003 -0.034
N2 0.049 0.189 0.052 -0.06 0.001 -0.05
C10 0.047 0.135 0.041 -0.039 0 -0.04
C13 0.045 0.119 0.04 -0.034 -0.002 -0.035
C15 0.049 0.185 0.053 -0.06 -0.001 -0.045
C17 0.189 0.05 0.058 -0.004 -0.065 -0.04
O16 0.064 0.46 0.092 -0.159 0.023 -0.106
O17 0.44 0.066 0.096 0.02 -0.159 -0.099
O18 0.47 0.191 0.369 -0.113 -0.27 -0.013
C30 0.23 0.159 0.264 -0.06 -0.107 -0.098
O19 0.046 0.063 0.034 -0.014 -0.0057 -0.0223
O20 0.042 0.089 0.039 -0.023 -0.003 -0.03
O21 0.063 0.151 0.046 -0.042 0.0045 -0.06
O22 0.073 0.208 0.041 -0.049 0.008 -0.084
C31 0.042 0.07 0.034 -0.016 -0.0032 -0.027
C32 0.042 0.063 0.03 -0.012 -0.0058 -0.025
C33 0.058 0.122 0.035 -0.029 0.0004 -0.05
C34 0.046 0.086 0.032 -0.019 -0.0045 -0.031
C35 0.047 0.097 0.035 -0.023 -0.0033 -0.035
C36 0.044 0.111 0.037 -0.03 -0.003 -0.034
N5 0.049 0.189 0.052 -0.06 0.001 -0.05
C37 0.047 0.135 0.041 -0.039 0 -0.04
C38 0.045 0.119 0.04 -0.034 -0.002 -0.035
C39 0.049 0.185 0.053 -0.06 -0.001 -0.045
O23 0.064 0.46 0.092 -0.159 0.023 -0.106
O26 0.169 0.055 0.05 0.007 -0.053 -0.059
O32 0.144 0.119 0.117 -0.04 -0.035 -0.069
O34 0.063 0.067 0.0258 -0.0145 -0.0117 -0.015
C58 0.095 0.099 0.033 -0.01 -0.007 -0.044
N8 0.141 0.146 0.033 -0.011 -0.007 -0.079
C59 0.29 0.29 0.04 -0.005 -0.01 -0.23
C60 0.34 0.35 0.041 -0.016 -0.013 -0.28
O35 0.076 0.184 0.079 -0.045 -0.009 -0.08
Zn10 0.0406 0.0429 0.0194 -0.0083 -0.0054 -0.0218
Zn16 0.1556 0.0565 0.0387 0.0039 -0.0404 -0.0661
O9 0.088 0.136 0.088 -0.04 -0.015 -0.06
O10 0.152 0.107 0.067 -0.016 -0.041 -0.07
O12 0.094 0.157 0.077 -0.035 -0.015 -0.069
C11 0.094 0.141 0.062 -0.03 -0.01 -0.071
O15 0.076 0.184 0.079 -0.045 -0.009 -0.08
C19 0.116 0.139 0.056 -0.028 -0.018 -0.071
C21 0.119 0.129 0.055 -0.028 -0.019 -0.072
C22 0.141 0.13 0.071 -0.033 -0.032 -0.068
C24 0.143 0.114 0.06 -0.023 -0.029 -0.071
C25 0.138 0.148 0.115 -0.038 -0.041 -0.078
C26 0.154 0.142 0.119 -0.043 -0.048 -0.075
C28 0.167 0.161 0.28 -0.087 -0.095 -0.061
N4 0.187 0.173 0.275 -0.076 -0.105 -0.078
O8 0.169 0.055 0.05 0.007 -0.053 -0.059
C46 0.189 0.05 0.058 -0.004 -0.065 -0.04
O28 0.44 0.066 0.096 0.02 -0.159 -0.099
O2 0.063 0.067 0.0258 -0.0145 -0.0117 -0.015
O3 0.06 0.048 0.038 -0.0074 -0.014 -0.0215
O5 0.088 0.039 0.043 -0.005 -0.025 -0.025
O11 0.168 0.063 0.048 0 -0.044 -0.064
C5 0.081 0.04 0.04 -0.0046 -0.022 -0.025
C6 0.066 0.04 0.035 -0.0074 -0.014 -0.022
N1 0.195 0.047 0.057 0 -0.066 -0.046
C9 0.089 0.042 0.038 -0.005 -0.022 -0.028
O13 0.161 0.077 0.086 -0.022 -0.042 -0.066
C12 0.111 0.042 0.041 -0.004 -0.031 -0.03
C14 0.108 0.043 0.042 -0.0028 -0.031 -0.034
C16 0.122 0.049 0.042 0.001 -0.036 -0.044
C18 0.148 0.045 0.047 0.001 -0.046 -0.042
C20 0.095 0.099 0.033 -0.01 -0.007 -0.044
N3 0.141 0.146 0.033 -0.011 -0.007 -0.079
C23 0.122 0.043 0.044 -0.003 -0.038 -0.033
C27 0.29 0.29 0.04 -0.005 -0.01 -0.23
C29 0.34 0.35 0.041 -0.016 -0.013 -0.28
loop_
_geom_bond_atom_site_label_1
_geom_bond_atom_site_label_2
_geom_bond_site_symmetry_1
_geom_bond_site_symmetry_2
O24 C40 1_555 1_555
O25 C40 1_555 1_555
O27 C45 1_555 1_555
C40 C41 1_555 1_555
C41 C42 1_555 1_555
C42 H29 1_555 1_555
C43 C41 1_555 1_555
H30 C43 1_555 1_555
C44 C42 1_555 1_555
C45 C44 1_555 1_555
C47 C44 1_555 1_555
C48 N6 1_555 1_555
O29 C49 1_555 1_555
O30 C53 1_555 1_555
O31 C49 1_555 1_555
C49 C50 1_555 1_555
C50 C51 1_555 1_555
C51 H32 1_555 1_555
C52 C51 1_555 1_555
C53 C52 1_555 1_555
C54 C50 1_555 1_555
H33 C54 1_555 1_555
C55 C52 1_555 1_555
C56 C54 1_555 1_555
N7 C56 1_555 1_555
H35 N7 1_555 1_555
Zn8 O25 1_555 1_555
Zn14 O31 1_555 1_555
Zn18 O27 1_555 1_555
C43 C48 1_555 1_555
C47 C48 1_555 1_555
C55 C56 1_555 1_555
O33 C57 1_555 1_555
O36 Zn18 1_555 1_555
H45 O36 1_555 1_555
O14 Zn18 1_555 1_555
Zn8 O1 1_555 1_555
O1 C1 1_555 1_555
O4 C1 1_555 1_555
O6 C3 1_555 1_555
O7 C3 1_555 1_555
C1 C2 1_555 1_555
C2 C4 1_555 1_555
C3 C7 1_555 1_555
C4 H1 1_555 1_555
C7 C4 1_555 1_555
C8 C2 1_555 1_555
H2 C8 1_555 1_555
N2 H5 1_555 1_555
C10 C7 1_555 1_555
H8 C10 1_555 1_555
C13 C8 1_555 1_555
C15 N2 1_555 1_555
O16 C15 1_555 1_555
O17 C17 1_555 1_555
O18 C30 1_555 1_555
O19 C31 1_555 1_555
O20 C31 1_555 1_555
O21 C33 1_555 1_555
O22 C33 1_555 1_555
C31 C32 1_555 1_555
C32 C34 1_555 1_555
C33 C35 1_555 1_555
C34 H24 1_555 1_555
C35 C34 1_555 1_555
C36 C32 1_555 1_555
H25 C36 1_555 1_555
N5 H26 1_555 1_555
C37 C35 1_555 1_555
H27 C37 1_555 1_555
C38 C36 1_555 1_555
C39 C15 1_555 1_555
O23 C39 1_555 1_555
C58 O34 1_555 1_555
H36 C58 1_555 1_555
N8 C58 1_555 1_555
C59 N8 1_555 1_555
H37 C59 1_555 1_555
H38 C59 1_555 1_555
H39 C59 1_555 1_555
C60 N8 1_555 1_555
H41 C60 1_555 1_555
H42 C60 1_555 1_555
Zn14 O7 1_555 1_555
O35 Zn14 1_555 1_555
H44 O35 1_555 1_555
Zn10 O19 1_555 1_555
Zn12 O22 1_555 1_555
Zn16 O32 1_555 1_555
N2 C13 1_555 1_555
C10 C13 1_555 1_555
N5 C38 1_555 1_555
N5 C39 1_555 1_555
C37 C38 1_555 1_555
O9 C11 1_555 1_555
O10 C24 1_555 1_555
O12 Zn12 1_555 1_555
C11 O12 1_555 1_555
O15 Zn12 1_555 1_555
H10 O15 1_555 1_555
C19 C11 1_555 1_555
C21 C19 1_555 1_555
H14 C21 1_555 1_555
C22 C21 1_555 1_555
C24 C22 1_555 1_555
C25 C19 1_555 1_555
H15 C25 1_555 1_555
C26 C22 1_555 1_555
C28 C25 1_555 1_555
N4 C28 1_555 1_555
H23 N4 1_555 1_555
C26 C28 1_555 1_555
O28 C46 1_555 1_555
O5 C5 1_555 1_555
O11 Zn16 1_555 1_555
C5 O3 1_555 1_555
C6 C5 1_555 1_555
C9 C6 1_555 1_555
H4 C9 1_555 1_555
O13 Zn16 1_555 1_555
H6 O13 1_555 1_555
C12 C6 1_555 1_555
H11 C12 1_555 1_555
C14 C9 1_555 1_555
C16 O11 1_555 1_555
C18 C14 1_555 1_555
C20 O2 1_555 1_555
H13 C20 1_555 1_555
N3 C20 1_555 1_555
C23 N1 1_555 1_555
C27 N3 1_555 1_555
H17 C27 1_555 1_555
H18 C27 1_555 1_555
H19 C27 1_555 1_555
C29 N3 1_555 1_555
H21 C29 1_555 1_555
H22 C29 1_555 1_555
O5 Zn10 1_555 1_555
C12 C23 1_555 1_555
C14 C16 1_555 1_555
C18 C23 1_555 1_555

#END
