
###############################################################################
#
# This file contains modified crystal structure data generated from the
# MOF subset of the Cambridge Structural Database (CSD) v543 
# hosted by the Cambridge Crystallographic Data Centre (CCDC).
#
# This work is licensed under the Creative Commons
# Attribution-NonCommercial-ShareAlike 4.0 International License.
# To view a copy of this license, visit
# http://creativecommons.org/licenses/by-nc-sa/4.0/
# or send a letter to
# Creative Commons, PO Box 1866, Mountain View, CA 94042, USA.
#
# CIF created using the CSD Python API on 29 September 2022
# The structure has been converted into the P1 space group
# The structure has a 3D framework
# The original CSD entry IYOBIK is in the triclinic crystal system
# The framework has been calculated to contain at least 10.0% void space
# The void calculation uses a probe of radius 1.32A, grid spacing 0.4
# The framework is charged, counterions have been retained in the structure
#
###############################################################################

data_IYOBIK
_chemical_formula_moiety         '(C40 H34 Cd2 N6 O20)n'
_symmetry_cell_setting           triclinic
_symmetry_space_group_name_H-M   'P 1'
_symmetry_Int_Tables_number      1
_space_group_name_Hall           'P 1'
loop_
_symmetry_equiv_pos_site_id
_symmetry_equiv_pos_as_xyz
1 x,y,z
_cell_length_a                   10.2148(5)
_cell_length_b                   10.2225(5)
_cell_length_c                   14.6050(9)
_cell_angle_alpha                74.713(2)
_cell_angle_beta                 73.547(2)
_cell_angle_gamma                84.3220(10)
_cell_volume                     1410.38
loop_
_atom_site_label
_atom_site_type_symbol
_atom_site_fract_x
_atom_site_fract_y
_atom_site_fract_z
C1 C 0.3379(11) 0.5167(13) 0.0035(9)
H2 H 0.3723 0.5239 0.0566
H3 H 0.3396 0.4231 0.0022
C2 C 0.1124(15) 0.4893(17) 0.1143(11)
H4 H 0.0196 0.5229 0.1254
H5 H 0.1156 0.3959 0.1122
H6 H 0.1482 0.4967 0.1667
N1 N 0.1967(11) 0.5711(10) 0.0179(8)
H8 H 0.1942 0.6580 0.0190
H1 H 0.3940 0.5674 0.9422
H7 H 0.1641 0.5651 0.9688
H1_2 H 0.6060 0.4326 0.0578
H7_2 H 0.8359 0.4349 0.0312
C1_2 C 0.6621(11) 0.4833(13) 0.9965(9)
H2_2 H 0.6277 0.4761 0.9434
H3_2 H 0.6604 0.5769 0.9978
C2_2 C 0.8876(15) 0.5107(17) 0.8857(11)
H4_2 H 0.9804 0.4771 0.8746
H5_2 H 0.8844 0.6041 0.8878
H6_2 H 0.8518 0.5033 0.8333
N1_2 N 0.8033(11) 0.4289(10) 0.9821(8)
H8_2 H 0.8058 0.3420 0.9810
Cd4 Cd 0.17516(3) 0.91612(3) 0.78909(2)
O11 O 0.1693(4) 0.1502(3) 0.7893(2)
O12 O 0.2236(4) 0.1083(3) 0.6440(2)
C3 C 0.3238(5) 0.5138(4) 0.5055(3)
C4 C 0.3017(5) 0.6074(4) 0.5633(3)
H9 H 0.3226 0.6981 0.5340
C5 C 0.2486(4) 0.5646(4) 0.6644(3)
C6 C 0.2192(4) 0.4282(4) 0.7091(3)
H10 H 0.1861 0.3993 0.7772
C7 C 0.2397(4) 0.3358(4) 0.6511(3)
C8 C 0.2919(5) 0.3782(4) 0.5503(3)
H11 H 0.3059 0.3159 0.5119
C9 C 0.2220(5) 0.6678(4) 0.7255(3)
C10 C 0.2089(4) 0.1888(4) 0.6978(3)
C11 C 0.4240(5) 0.6699(4) 0.3452(3)
C12 C 0.4666(5) 0.6730(4) 0.2349(3)
C13 C 0.5704(4) 0.8168(4) 0.0740(3)
C14 C 0.4730(4) 0.8265(4) 0.0231(3)
H12 H 0.3824 0.8086 0.0575
C18 C 0.7070(4) 0.8397(4) 0.0240(3)
H14 H 0.7720 0.8328 0.0587
N2 N 0.3761(4) 0.5502(4) 0.4027(3)
H15 H 0.3776 0.4875 0.3730
N3 N 0.5291(3) 0.7861(3) 0.1791(2)
H16 H 0.5455 0.8438 0.2077
O1 O 0.2413(5) 0.7894(3) 0.6807(2)
O2 O 0.1780(7) 0.6304(4) 0.8153(3)
H17 H 0.2352 0.5809 0.8381
O5 O 0.4366(5) 0.7703(3) 0.3718(2)
O6 O 0.4429(5) 0.5797(4) 0.2051(3)
O13 O 0.2838(3) 0.8467(4) 0.9134(2)
O14 O 0.4336(4) 0.9365(5) 0.7769(3)
C15 C 0.5103(4) 0.8627(4) 0.9210(3)
C16 C 0.6469(4) 0.8866(4) 0.8700(3)
H13 H 0.6723 0.9115 0.8015
C17 C 0.7453(4) 0.8733(4) 0.9213(3)
C19 C 0.4022(4) 0.8825(4) 0.8661(3)
C20 C 0.8945(4) 0.8938(4) 0.8666(3)
O9 O 0.9287(4) 0.9266(5) 0.7750(3)
O10 O 0.9794(3) 0.8753(4) 0.9151(2)
O15 O 0.0713(4) 0.0734(5) 0.2250(3)
O16 O 0.0206(3) 0.1247(4) 0.0849(2)
Cd2 Cd 0.82484(3) 0.08388(3) 0.21091(2)
C15_2 C 0.4897(4) 0.1373(4) 0.0790(3)
C16_2 C 0.3531(4) 0.1134(4) 0.1300(3)
H13_2 H 0.3277 0.0885 0.1985
C17_2 C 0.2547(4) 0.1267(4) 0.0787(3)
C19_2 C 0.5978(4) 0.1175(4) 0.1339(3)
C20_2 C 0.1055(4) 0.1062(4) 0.1334(3)
O7 O 0.7162(3) 0.1533(4) 0.0866(2)
O8 O 0.5664(4) 0.0635(5) 0.2231(3)
C3_2 C 0.6762(5) 0.4862(4) 0.4945(3)
C4_2 C 0.6983(5) 0.3926(4) 0.4367(3)
H9_2 H 0.6774 0.3019 0.4660
C5_2 C 0.7514(4) 0.4354(4) 0.3356(3)
C6_2 C 0.7808(4) 0.5718(4) 0.2909(3)
H10_2 H 0.8139 0.6007 0.2228
C7_2 C 0.7603(4) 0.6642(4) 0.3489(3)
C8_2 C 0.7081(5) 0.6218(4) 0.4497(3)
H11_2 H 0.6941 0.6841 0.4881
C9_2 C 0.7780(5) 0.3322(4) 0.2745(3)
C10_2 C 0.7911(4) 0.8112(4) 0.3022(3)
C11_2 C 0.5760(5) 0.3301(4) 0.6548(3)
C12_2 C 0.5334(5) 0.3270(4) 0.7651(3)
C13_2 C 0.4296(4) 0.1832(4) 0.9260(3)
C14_2 C 0.5270(4) 0.1735(4) 0.9769(3)
H12_2 H 0.6176 0.1914 0.9425
C18_2 C 0.2930(4) 0.1603(4) 0.9760(3)
H14_2 H 0.2280 0.1672 0.9413
N2_2 N 0.6239(4) 0.4498(4) 0.5973(3)
H15_2 H 0.6224 0.5125 0.6270
N3_2 N 0.4709(3) 0.2139(3) 0.8209(2)
H16_2 H 0.4545 0.1562 0.7923
O1_2 O 0.7587(5) 0.2106(3) 0.3193(2)
O2_2 O 0.8220(7) 0.3696(4) 0.1847(3)
H17_2 H 0.7648 0.4191 0.1619
O3 O 0.8307(4) 0.8498(3) 0.2107(2)
O4 O 0.7764(4) 0.8917(3) 0.3560(2)
O5_2 O 0.5634(5) 0.2297(3) 0.6282(2)
O6_2 O 0.5571(5) 0.4203(4) 0.7949(3)
loop_
_geom_bond_atom_site_label_1
_geom_bond_atom_site_label_2
_geom_bond_site_symmetry_1
_geom_bond_site_symmetry_2
H2 C1 1_555 1_555
H3 C1 1_555 1_555
C2 H4 1_555 1_555
H5 C2 1_555 1_555
H6 C2 1_555 1_555
N1 C1 1_555 1_555
H8 N1 1_555 1_555
C2 N1 1_555 1_555
H2_2 C1_2 1_555 1_555
H3_2 C1_2 1_555 1_555
C2_2 H4_2 1_555 1_555
H5_2 C2_2 1_555 1_555
H6_2 C2_2 1_555 1_555
N1_2 C1_2 1_555 1_555
H8_2 N1_2 1_555 1_555
C2_2 N1_2 1_555 1_555
C3 C4 1_555 1_555
C4 H9 1_555 1_555
C5 C4 1_555 1_555
C6 C5 1_555 1_555
H10 C6 1_555 1_555
C7 C6 1_555 1_555
C8 C3 1_555 1_555
H11 C8 1_555 1_555
C9 C5 1_555 1_555
C10 C7 1_555 1_555
C11 C12 1_555 1_555
C12 N3 1_555 1_555
C13 C14 1_555 1_555
C14 H12 1_555 1_555
C18 C13 1_555 1_555
H14 C18 1_555 1_555
Cd4 O1 1_555 1_555
N2 C3 1_555 1_555
H15 N2 1_555 1_555
N3 C13 1_555 1_555
H16 N3 1_555 1_555
O1 C9 1_555 1_555
O2 C9 1_555 1_555
H17 O2 1_555 1_555
O11 C10 1_555 1_555
O12 C10 1_555 1_555
O5 C11 1_555 1_555
O6 C12 1_555 1_555
O13 Cd4 1_555 1_555
O14 Cd4 1_555 1_555
C7 C8 1_555 1_555
C11 N2 1_555 1_555
C16 C15 1_555 1_555
H13 C16 1_555 1_555
C17 C16 1_555 1_555
C19 C15 1_555 1_555
C20 C17 1_555 1_555
O13 C19 1_555 1_555
O14 C19 1_555 1_555
O9 C20 1_555 1_555
O10 C20 1_555 1_555
C16_2 C15_2 1_555 1_555
H13_2 C16_2 1_555 1_555
C17_2 C16_2 1_555 1_555
C19_2 C15_2 1_555 1_555
C20_2 C17_2 1_555 1_555
O7 C19_2 1_555 1_555
O8 C19_2 1_555 1_555
O15 C20_2 1_555 1_555
O16 C20_2 1_555 1_555
Cd2 O7 1_555 1_555
O8 Cd2 1_555 1_555
C3_2 C4_2 1_555 1_555
C4_2 H9_2 1_555 1_555
C5_2 C4_2 1_555 1_555
C6_2 C5_2 1_555 1_555
H10_2 C6_2 1_555 1_555
C7_2 C6_2 1_555 1_555
C8_2 C3_2 1_555 1_555
H11_2 C8_2 1_555 1_555
C9_2 C5_2 1_555 1_555
C10_2 C7_2 1_555 1_555
C11_2 C12_2 1_555 1_555
C12_2 N3_2 1_555 1_555
C13_2 C14_2 1_555 1_555
C14_2 H12_2 1_555 1_555
C18_2 C13_2 1_555 1_555
H14_2 C18_2 1_555 1_555
Cd2 O1_2 1_555 1_555
N2_2 C3_2 1_555 1_555
H15_2 N2_2 1_555 1_555
N3_2 C13_2 1_555 1_555
H16_2 N3_2 1_555 1_555
O1_2 C9_2 1_555 1_555
O2_2 C9_2 1_555 1_555
H17_2 O2_2 1_555 1_555
O3 C10_2 1_555 1_555
O4 C10_2 1_555 1_555
O5_2 C11_2 1_555 1_555
O6_2 C12_2 1_555 1_555
C7_2 C8_2 1_555 1_555
C11_2 N2_2 1_555 1_555

#END
