
###############################################################################
#
# This file contains modified crystal structure data generated from the
# MOF subset of the Cambridge Structural Database (CSD) v543 
# hosted by the Cambridge Crystallographic Data Centre (CCDC).
#
# This work is licensed under the Creative Commons
# Attribution-NonCommercial-ShareAlike 4.0 International License.
# To view a copy of this license, visit
# http://creativecommons.org/licenses/by-nc-sa/4.0/
# or send a letter to
# Creative Commons, PO Box 1866, Mountain View, CA 94042, USA.
#
# CIF created using the CSD Python API on 29 September 2022
# The structure has been converted into the P1 space group
# The structure has a 3D framework
# The original CSD entry IYOVEA01 is in the monoclinic crystal system
# The framework has been calculated to contain at least 10.0% void space
# The void calculation uses a probe of radius 1.32A, grid spacing 0.4
#
###############################################################################

data_IYOVEA01
_chemical_formula_moiety         '(C80 H48 N16 O16 Zn8)n'
_symmetry_cell_setting           triclinic
_symmetry_space_group_name_H-M   'P 1'
_symmetry_Int_Tables_number      1
_space_group_name_Hall           'P 1'
loop_
_symmetry_equiv_pos_site_id
_symmetry_equiv_pos_as_xyz
1 x,y,z
_cell_length_a                   10.2098(7)
_cell_length_b                   19.6476(11)
_cell_length_c                   13.2368(7)
_cell_angle_alpha                90
_cell_angle_beta                 108.476(3)
_cell_angle_gamma                90
_cell_volume                     2518.41
loop_
_atom_site_label
_atom_site_type_symbol
_atom_site_fract_x
_atom_site_fract_y
_atom_site_fract_z
Zn4 Zn 0.02545(4) 0.44755(2) 0.39987(2)
N4 N 0.4767(3) 0.08567(11) 0.02418(17)
Zn1 Zn 0.52545(4) 0.05245(2) 0.89987(2)
O1 O 0.6424(3) 0.12368(11) 0.87071(16)
O2 O 0.6429(2) 0.06232(9) 0.73070(16)
N1 N 0.9256(3) 0.45579(11) 0.58537(18)
N2 N 0.9767(3) 0.41433(11) 0.52418(17)
C1 C 0.6702(3) 0.11662(15) 0.7851(2)
C2 C 0.7324(3) 0.17550(14) 0.7467(2)
C3 C 0.8008(3) 0.16748(14) 0.6724(2)
H1 H 0.8131 0.1241 0.6489
C4 C 0.8509(3) 0.22295(14) 0.6330(2)
H2 H 0.8980 0.2163 0.5841
C5 C 0.8327(3) 0.28873(13) 0.6648(2)
C6 C 0.7656(4) 0.29617(14) 0.7405(2)
H3 H 0.7527 0.3395 0.7639
C7 C 0.7177(4) 0.24035(16) 0.7818(2)
H4 H 0.6751 0.2465 0.8337
C8 C 0.8808(3) 0.34856(13) 0.6198(2)
C9 C 0.8692(3) 0.41654(14) 0.6428(2)
H5 H 0.8280 0.4326 0.6915
C10 C 0.9499(3) 0.35018(13) 0.5453(2)
H6 H 0.9743 0.3119 0.5141
Zn2 Zn 0.47455(4) 0.05245(2) 0.60013(2)
Zn3 Zn 0.97455(4) 0.55245(2) 0.60013(2)
O3 O 0.3571(2) 0.06232(9) 0.76930(16)
N3 N 0.5744(3) 0.95579(11) 0.91463(18)
O1_2 O 0.3576(3) 0.12368(11) 0.62929(16)
N1_2 N 0.0744(3) 0.45579(11) 0.91463(18)
N2_2 N 0.0233(3) 0.41433(11) 0.97582(17)
C1_2 C 0.3298(3) 0.11662(15) 0.7149(2)
C2_2 C 0.2676(3) 0.17550(14) 0.7533(2)
C3_2 C 0.1992(3) 0.16748(14) 0.8276(2)
H1_2 H 0.1869 0.1241 0.8511
C4_2 C 0.1491(3) 0.22295(14) 0.8670(2)
H2_2 H 0.1020 0.2163 0.9159
C5_2 C 0.1673(3) 0.28873(13) 0.8352(2)
C6_2 C 0.2344(4) 0.29617(14) 0.7595(2)
H3_2 H 0.2473 0.3395 0.7361
C7_2 C 0.2823(4) 0.24035(16) 0.7182(2)
H4_2 H 0.3249 0.2465 0.6663
C8_2 C 0.1192(3) 0.34856(13) 0.8802(2)
C9_2 C 0.1308(3) 0.41654(14) 0.8572(2)
H5_2 H 0.1720 0.4326 0.8085
C10_2 C 0.0501(3) 0.35018(13) 0.9547(2)
H6_2 H 0.0257 0.3119 0.9859
Zn3_2 Zn 0.02545(4) 0.55245(2) 0.89987(2)
N4_2 N 0.5233(3) 0.08567(11) 0.47582(17)
N3_2 N 0.4256(3) 0.95579(11) 0.58537(18)
Zn4_2 Zn 0.97455(4) 0.44755(2) 0.10013(2)
O1_3 O 0.1424(3) 0.62368(11) 0.87071(16)
O2_2 O 0.1429(2) 0.56232(9) 0.73070(16)
N2_3 N 0.4767(3) 0.91433(11) 0.52418(17)
C1_3 C 0.1702(3) 0.61662(15) 0.7851(2)
C2_3 C 0.2324(3) 0.67550(14) 0.7467(2)
C3_3 C 0.3008(3) 0.66748(14) 0.6724(2)
H1_3 H 0.3131 0.6241 0.6489
C4_3 C 0.3509(3) 0.72295(14) 0.6330(2)
H2_3 H 0.3980 0.7163 0.5841
C5_3 C 0.3327(3) 0.78873(13) 0.6648(2)
C6_3 C 0.2656(4) 0.79617(14) 0.7405(2)
H3_3 H 0.2527 0.8395 0.7639
C7_3 C 0.2177(4) 0.74035(16) 0.7818(2)
H4_3 H 0.1751 0.7465 0.8337
C8_3 C 0.3808(3) 0.84856(13) 0.6198(2)
C9_3 C 0.3692(3) 0.91654(14) 0.6428(2)
H5_3 H 0.3280 0.9326 0.6915
C10_3 C 0.4499(3) 0.85018(13) 0.5453(2)
H6_3 H 0.4743 0.8119 0.5141
Zn4_3 Zn 0.52545(4) 0.94755(2) 0.39987(2)
N4_3 N 0.9767(3) 0.58567(11) 0.02418(17)
O3_2 O 0.8571(2) 0.56232(9) 0.76930(16)
N4_4 N 0.0233(3) 0.58567(11) 0.47582(17)
Zn4_4 Zn 0.47455(4) 0.94755(2) 0.10013(2)
O1_4 O 0.8576(3) 0.62368(11) 0.62929(16)
N2_4 N 0.5233(3) 0.91433(11) 0.97582(17)
C1_4 C 0.8298(3) 0.61662(15) 0.7149(2)
C2_4 C 0.7676(3) 0.67550(14) 0.7533(2)
C3_4 C 0.6992(3) 0.66748(14) 0.8276(2)
H1_4 H 0.6869 0.6241 0.8511
C4_4 C 0.6491(3) 0.72295(14) 0.8670(2)
H2_4 H 0.6020 0.7163 0.9159
C5_4 C 0.6673(3) 0.78873(13) 0.8352(2)
C6_4 C 0.7344(4) 0.79617(14) 0.7595(2)
H3_4 H 0.7473 0.8395 0.7361
C7_4 C 0.7823(4) 0.74035(16) 0.7182(2)
H4_4 H 0.8249 0.7465 0.6663
C8_4 C 0.6192(3) 0.84856(13) 0.8802(2)
C9_4 C 0.6308(3) 0.91654(14) 0.8572(2)
H5_4 H 0.6720 0.9326 0.8085
C10_4 C 0.5501(3) 0.85018(13) 0.9547(2)
H6_4 H 0.5257 0.8119 0.9859
N3_3 N 0.4256(3) 0.04421(11) 0.08537(18)
O1_5 O 0.3576(3) 0.87632(11) 0.12929(16)
O2_3 O 0.3571(2) 0.93768(9) 0.26930(16)
N1_3 N 0.0744(3) 0.54421(11) 0.41463(18)
C1_5 C 0.3298(3) 0.88338(15) 0.2149(2)
C2_5 C 0.2676(3) 0.82450(14) 0.2533(2)
C3_5 C 0.1992(3) 0.83252(14) 0.3276(2)
H1_5 H 0.1869 0.8759 0.3511
C4_5 C 0.1491(3) 0.77705(14) 0.3670(2)
H2_5 H 0.1020 0.7837 0.4159
C5_5 C 0.1673(3) 0.71127(13) 0.3352(2)
C6_5 C 0.2344(4) 0.70383(14) 0.2595(2)
H3_5 H 0.2473 0.6605 0.2361
C7_5 C 0.2823(4) 0.75965(16) 0.2182(2)
H4_5 H 0.3249 0.7535 0.1663
C8_5 C 0.1192(3) 0.65144(13) 0.3802(2)
C9_5 C 0.1308(3) 0.58346(14) 0.3572(2)
H5_5 H 0.1720 0.5674 0.3085
C10_5 C 0.0501(3) 0.64982(13) 0.4547(2)
H6_5 H 0.0257 0.6881 0.4859
O3_3 O 0.6429(2) 0.93768(9) 0.23070(16)
N3_4 N 0.5744(3) 0.04421(11) 0.41463(18)
O1_6 O 0.6424(3) 0.87632(11) 0.37071(16)
N1_4 N 0.9256(3) 0.54421(11) 0.08537(18)
C1_6 C 0.6702(3) 0.88338(15) 0.2851(2)
C2_6 C 0.7324(3) 0.82450(14) 0.2467(2)
C3_6 C 0.8008(3) 0.83252(14) 0.1724(2)
H1_6 H 0.8131 0.8759 0.1489
C4_6 C 0.8509(3) 0.77705(14) 0.1330(2)
H2_6 H 0.8980 0.7837 0.0841
C5_6 C 0.8327(3) 0.71127(13) 0.1648(2)
C6_6 C 0.7656(4) 0.70383(14) 0.2405(2)
H3_6 H 0.7527 0.6605 0.2639
C7_6 C 0.7177(4) 0.75965(16) 0.2818(2)
H4_6 H 0.6751 0.7535 0.3337
C8_6 C 0.8808(3) 0.65144(13) 0.1198(2)
C9_6 C 0.8692(3) 0.58346(14) 0.1428(2)
H5_6 H 0.8280 0.5674 0.1915
C10_6 C 0.9499(3) 0.64982(13) 0.0453(2)
H6_6 H 0.9743 0.6881 0.0141
O3_4 O 0.1429(2) 0.43768(9) 0.23070(16)
O1_7 O 0.8576(3) 0.37632(11) 0.12929(16)
O2_4 O 0.8571(2) 0.43768(9) 0.26930(16)
C1_7 C 0.8298(3) 0.38338(15) 0.2149(2)
C2_7 C 0.7676(3) 0.32450(14) 0.2533(2)
C3_7 C 0.6992(3) 0.33252(14) 0.3276(2)
H1_7 H 0.6869 0.3759 0.3511
C4_7 C 0.6491(3) 0.27705(14) 0.3670(2)
H2_7 H 0.6020 0.2837 0.4159
C5_7 C 0.6673(3) 0.21127(13) 0.3352(2)
C6_7 C 0.7344(4) 0.20383(14) 0.2595(2)
H3_7 H 0.7473 0.1605 0.2361
C7_7 C 0.7823(4) 0.25965(16) 0.2182(2)
H4_7 H 0.8249 0.2535 0.1663
C8_7 C 0.6192(3) 0.15144(13) 0.3802(2)
C9_7 C 0.6308(3) 0.08346(14) 0.3572(2)
H5_7 H 0.6720 0.0674 0.3085
C10_7 C 0.5501(3) 0.14982(13) 0.4547(2)
H6_7 H 0.5257 0.1881 0.4859
O1_8 O 0.1424(3) 0.37632(11) 0.37071(16)
C1_8 C 0.1702(3) 0.38338(15) 0.2851(2)
C2_8 C 0.2324(3) 0.32450(14) 0.2467(2)
C3_8 C 0.3008(3) 0.33252(14) 0.1724(2)
H1_8 H 0.3131 0.3759 0.1489
C4_8 C 0.3509(3) 0.27705(14) 0.1330(2)
H2_8 H 0.3980 0.2837 0.0841
C5_8 C 0.3327(3) 0.21127(13) 0.1648(2)
C6_8 C 0.2656(4) 0.20383(14) 0.2405(2)
H3_8 H 0.2527 0.1605 0.2639
C7_8 C 0.2177(4) 0.25965(16) 0.2818(2)
H4_8 H 0.1751 0.2535 0.3337
C8_8 C 0.3808(3) 0.15144(13) 0.1198(2)
C9_8 C 0.3692(3) 0.08346(14) 0.1428(2)
H5_8 H 0.3280 0.0674 0.1915
C10_8 C 0.4499(3) 0.14982(13) 0.0453(2)
H6_8 H 0.4743 0.1881 0.0141
loop_
_geom_bond_atom_site_label_1
_geom_bond_atom_site_label_2
_geom_bond_site_symmetry_1
_geom_bond_site_symmetry_2
Zn1 O1 1_555 1_555
O1 C1 1_555 1_555
O2 C1 1_555 1_555
N1 N2 1_555 1_555
N2 C10 1_555 1_555
C1 C2 1_555 1_555
C2 C3 1_555 1_555
C3 H1 1_555 1_555
C4 C3 1_555 1_555
H2 C4 1_555 1_555
C5 C4 1_555 1_555
C6 C5 1_555 1_555
H3 C6 1_555 1_555
C7 C2 1_555 1_555
H4 C7 1_555 1_555
C8 C5 1_555 1_555
C9 N1 1_555 1_555
H5 C9 1_555 1_555
C10 C8 1_555 1_555
H6 C10 1_555 1_555
Zn2 O2 1_555 1_555
Zn3 N1 1_555 1_555
O3 Zn1 1_555 1_555
C6 C7 1_555 1_555
C8 C9 1_555 1_555
Zn2 O1_2 1_555 1_555
O1_2 C1_2 1_555 1_555
O3 C1_2 1_555 1_555
N1_2 N2_2 1_555 1_555
N2_2 C10_2 1_555 1_555
C1_2 C2_2 1_555 1_555
C2_2 C3_2 1_555 1_555
C3_2 H1_2 1_555 1_555
C4_2 C3_2 1_555 1_555
H2_2 C4_2 1_555 1_555
C5_2 C4_2 1_555 1_555
C6_2 C5_2 1_555 1_555
H3_2 C6_2 1_555 1_555
C7_2 C2_2 1_555 1_555
H4_2 C7_2 1_555 1_555
C8_2 C5_2 1_555 1_555
C9_2 N1_2 1_555 1_555
H5_2 C9_2 1_555 1_555
C10_2 C8_2 1_555 1_555
H6_2 C10_2 1_555 1_555
Zn3_2 N1_2 1_555 1_555
N4_2 Zn2 1_555 1_555
C6_2 C7_2 1_555 1_555
C8_2 C9_2 1_555 1_555
Zn3_2 O1_3 1_555 1_555
O1_3 C1_3 1_555 1_555
O2_2 C1_3 1_555 1_555
N3_2 N2_3 1_555 1_555
N2_3 C10_3 1_555 1_555
C1_3 C2_3 1_555 1_555
C2_3 C3_3 1_555 1_555
C3_3 H1_3 1_555 1_555
C4_3 C3_3 1_555 1_555
H2_3 C4_3 1_555 1_555
C5_3 C4_3 1_555 1_555
C6_3 C5_3 1_555 1_555
H3_3 C6_3 1_555 1_555
C7_3 C2_3 1_555 1_555
H4_3 C7_3 1_555 1_555
C8_3 C5_3 1_555 1_555
C9_3 N3_2 1_555 1_555
H5_3 C9_3 1_555 1_555
C10_3 C8_3 1_555 1_555
H6_3 C10_3 1_555 1_555
Zn4_3 N2_3 1_555 1_555
C6_3 C7_3 1_555 1_555
C8_3 C9_3 1_555 1_555
Zn3 O1_4 1_555 1_555
O1_4 C1_4 1_555 1_555
O3_2 C1_4 1_555 1_555
N3 N2_4 1_555 1_555
N2_4 C10_4 1_555 1_555
C1_4 C2_4 1_555 1_555
C2_4 C3_4 1_555 1_555
C3_4 H1_4 1_555 1_555
C4_4 C3_4 1_555 1_555
H2_4 C4_4 1_555 1_555
C5_4 C4_4 1_555 1_555
C6_4 C5_4 1_555 1_555
H3_4 C6_4 1_555 1_555
C7_4 C2_4 1_555 1_555
H4_4 C7_4 1_555 1_555
C8_4 C5_4 1_555 1_555
C9_4 N3 1_555 1_555
H5_4 C9_4 1_555 1_555
C10_4 C8_4 1_555 1_555
H6_4 C10_4 1_555 1_555
C6_4 C7_4 1_555 1_555
C8_4 C9_4 1_555 1_555
Zn4_4 O1_5 1_555 1_555
O1_5 C1_5 1_555 1_555
O2_3 C1_5 1_555 1_555
N1_3 N4_4 1_555 1_555
N4_4 C10_5 1_555 1_555
C1_5 C2_5 1_555 1_555
C2_5 C3_5 1_555 1_555
C3_5 H1_5 1_555 1_555
C4_5 C3_5 1_555 1_555
H2_5 C4_5 1_555 1_555
C5_5 C4_5 1_555 1_555
C6_5 C5_5 1_555 1_555
H3_5 C6_5 1_555 1_555
C7_5 C2_5 1_555 1_555
H4_5 C7_5 1_555 1_555
C8_5 C5_5 1_555 1_555
C9_5 N1_3 1_555 1_555
H5_5 C9_5 1_555 1_555
C10_5 C8_5 1_555 1_555
H6_5 C10_5 1_555 1_555
Zn4_3 O2_3 1_555 1_555
Zn4 N1_3 1_555 1_555
O3_3 Zn4_4 1_555 1_555
C6_5 C7_5 1_555 1_555
C8_5 C9_5 1_555 1_555
Zn4_3 O1_6 1_555 1_555
O1_6 C1_6 1_555 1_555
O3_3 C1_6 1_555 1_555
N1_4 N4_3 1_555 1_555
N4_3 C10_6 1_555 1_555
C1_6 C2_6 1_555 1_555
C2_6 C3_6 1_555 1_555
C3_6 H1_6 1_555 1_555
C4_6 C3_6 1_555 1_555
H2_6 C4_6 1_555 1_555
C5_6 C4_6 1_555 1_555
C6_6 C5_6 1_555 1_555
H3_6 C6_6 1_555 1_555
C7_6 C2_6 1_555 1_555
H4_6 C7_6 1_555 1_555
C8_6 C5_6 1_555 1_555
C9_6 N1_4 1_555 1_555
H5_6 C9_6 1_555 1_555
C10_6 C8_6 1_555 1_555
H6_6 C10_6 1_555 1_555
Zn4_2 N1_4 1_555 1_555
C6_6 C7_6 1_555 1_555
C8_6 C9_6 1_555 1_555
Zn4_2 O1_7 1_555 1_555
O1_7 C1_7 1_555 1_555
O2_4 C1_7 1_555 1_555
N3_4 N4_2 1_555 1_555
N4_2 C10_7 1_555 1_555
C1_7 C2_7 1_555 1_555
C2_7 C3_7 1_555 1_555
C3_7 H1_7 1_555 1_555
C4_7 C3_7 1_555 1_555
H2_7 C4_7 1_555 1_555
C5_7 C4_7 1_555 1_555
C6_7 C5_7 1_555 1_555
H3_7 C6_7 1_555 1_555
C7_7 C2_7 1_555 1_555
H4_7 C7_7 1_555 1_555
C8_7 C5_7 1_555 1_555
C9_7 N3_4 1_555 1_555
H5_7 C9_7 1_555 1_555
C10_7 C8_7 1_555 1_555
H6_7 C10_7 1_555 1_555
C6_7 C7_7 1_555 1_555
C8_7 C9_7 1_555 1_555
Zn4 O1_8 1_555 1_555
O1_8 C1_8 1_555 1_555
O3_4 C1_8 1_555 1_555
N3_3 N4 1_555 1_555
N4 C10_8 1_555 1_555
C1_8 C2_8 1_555 1_555
C2_8 C3_8 1_555 1_555
C3_8 H1_8 1_555 1_555
C4_8 C3_8 1_555 1_555
H2_8 C4_8 1_555 1_555
C5_8 C4_8 1_555 1_555
C6_8 C5_8 1_555 1_555
H3_8 C6_8 1_555 1_555
C7_8 C2_8 1_555 1_555
H4_8 C7_8 1_555 1_555
C8_8 C5_8 1_555 1_555
C9_8 N3_3 1_555 1_555
H5_8 C9_8 1_555 1_555
C10_8 C8_8 1_555 1_555
H6_8 C10_8 1_555 1_555
C6_8 C7_8 1_555 1_555
C8_8 C9_8 1_555 1_555

#END
