
###############################################################################
#
# This file contains modified crystal structure data generated from the
# MOF subset of the Cambridge Structural Database (CSD) v543 
# hosted by the Cambridge Crystallographic Data Centre (CCDC).
#
# This work is licensed under the Creative Commons
# Attribution-NonCommercial-ShareAlike 4.0 International License.
# To view a copy of this license, visit
# http://creativecommons.org/licenses/by-nc-sa/4.0/
# or send a letter to
# Creative Commons, PO Box 1866, Mountain View, CA 94042, USA.
#
# CIF created using the CSD Python API on 29 September 2022
# The structure has been converted into the P1 space group
# The structure has a 3D framework
# The original CSD entry IYOVEA is in the monoclinic crystal system
# The framework has been calculated to contain at least 10.0% void space
# The void calculation uses a probe of radius 1.32A, grid spacing 0.4
#
###############################################################################

data_IYOVEA
_chemical_formula_moiety         '(C80 H48 N16 O16 Zn8)n'
_symmetry_cell_setting           triclinic
_symmetry_space_group_name_H-M   'P 1'
_symmetry_Int_Tables_number      1
_space_group_name_Hall           'P 1'
loop_
_symmetry_equiv_pos_site_id
_symmetry_equiv_pos_as_xyz
1 x,y,z
_cell_length_a                   9.7597(4)
_cell_length_b                   19.8289(7)
_cell_length_c                   13.3794(4)
_cell_angle_alpha                90
_cell_angle_beta                 108.657(2)
_cell_angle_gamma                90
_cell_volume                     2453.17
loop_
_atom_site_label
_atom_site_type_symbol
_atom_site_fract_x
_atom_site_fract_y
_atom_site_fract_z
Zn4 Zn 0.02660(3) 0.44901(2) 0.39972(2)
N4 N 0.4783(2) 0.08539(8) 0.02309(13)
Zn1 Zn 0.52660(3) 0.05099(2) 0.89972(2)
O1 O 0.64867(19) 0.12115(8) 0.86953(11)
O2 O 0.64884(18) 0.06063(7) 0.73011(11)
N1 N 0.9239(2) 0.45516(8) 0.58450(13)
N2 N 0.9783(2) 0.41461(8) 0.52309(13)
C1 C 0.6761(3) 0.11460(11) 0.78385(16)
C2 C 0.7369(3) 0.17403(10) 0.74492(16)
C3 C 0.8066(3) 0.16679(10) 0.66956(16)
H1 H 0.8209 0.1231 0.6456
C4 C 0.8550(3) 0.22290(10) 0.62950(16)
H2 H 0.9034 0.2172 0.5787
C5 C 0.8339(2) 0.28777(10) 0.66254(15)
C6 C 0.7649(3) 0.29425(10) 0.73884(17)
H3 H 0.7497 0.3379 0.7625
C7 C 0.7185(3) 0.23821(11) 0.78043(17)
H4 H 0.6738 0.2436 0.8335
C8 C 0.8815(2) 0.34767(10) 0.61826(15)
C9 C 0.8668(3) 0.41515(10) 0.64155(16)
H5 H 0.8224 0.4307 0.6910
C10 C 0.9529(3) 0.35070(10) 0.54350(16)
H6 H 0.9799 0.3125 0.5113
Zn2 Zn 0.47340(3) 0.05099(2) 0.60028(2)
Zn3 Zn 0.97340(3) 0.55099(2) 0.60028(2)
O3 O 0.35116(18) 0.06063(7) 0.76989(11)
N3 N 0.5761(2) 0.95516(8) 0.91550(13)
O1_2 O 0.35133(19) 0.12115(8) 0.63047(11)
N1_2 N 0.0761(2) 0.45516(8) 0.91550(13)
N2_2 N 0.0217(2) 0.41461(8) 0.97691(13)
C1_2 C 0.3239(3) 0.11460(11) 0.71615(16)
C2_2 C 0.2631(3) 0.17403(10) 0.75508(16)
C3_2 C 0.1934(3) 0.16679(10) 0.83044(16)
H1_2 H 0.1791 0.1231 0.8544
C4_2 C 0.1450(3) 0.22290(10) 0.87050(16)
H2_2 H 0.0966 0.2172 0.9213
C5_2 C 0.1661(2) 0.28777(10) 0.83746(15)
C6_2 C 0.2351(3) 0.29425(10) 0.76116(17)
H3_2 H 0.2503 0.3379 0.7375
C7_2 C 0.2815(3) 0.23821(11) 0.71957(17)
H4_2 H 0.3262 0.2436 0.6665
C8_2 C 0.1185(2) 0.34767(10) 0.88174(15)
C9_2 C 0.1332(3) 0.41515(10) 0.85845(16)
H5_2 H 0.1776 0.4307 0.8090
C10_2 C 0.0471(3) 0.35070(10) 0.95650(16)
H6_2 H 0.0201 0.3125 0.9887
Zn3_2 Zn 0.02660(3) 0.55099(2) 0.89972(2)
N4_2 N 0.5217(2) 0.08539(8) 0.47691(13)
N3_2 N 0.4239(2) 0.95516(8) 0.58450(13)
Zn4_2 Zn 0.97340(3) 0.44901(2) 0.10028(2)
O1_3 O 0.14867(19) 0.62115(8) 0.86953(11)
O2_2 O 0.14884(18) 0.56063(7) 0.73011(11)
N2_3 N 0.4783(2) 0.91461(8) 0.52309(13)
C1_3 C 0.1761(3) 0.61460(11) 0.78385(16)
C2_3 C 0.2369(3) 0.67403(10) 0.74492(16)
C3_3 C 0.3066(3) 0.66679(10) 0.66956(16)
H1_3 H 0.3209 0.6231 0.6456
C4_3 C 0.3550(3) 0.72290(10) 0.62950(16)
H2_3 H 0.4034 0.7172 0.5787
C5_3 C 0.3339(2) 0.78777(10) 0.66254(15)
C6_3 C 0.2649(3) 0.79425(10) 0.73884(17)
H3_3 H 0.2497 0.8379 0.7625
C7_3 C 0.2185(3) 0.73821(11) 0.78043(17)
H4_3 H 0.1738 0.7436 0.8335
C8_3 C 0.3815(2) 0.84767(10) 0.61826(15)
C9_3 C 0.3668(3) 0.91515(10) 0.64155(16)
H5_3 H 0.3224 0.9307 0.6910
C10_3 C 0.4529(3) 0.85070(10) 0.54350(16)
H6_3 H 0.4799 0.8125 0.5113
Zn4_3 Zn 0.52660(3) 0.94901(2) 0.39972(2)
N4_3 N 0.9783(2) 0.58539(8) 0.02309(13)
O3_2 O 0.85116(18) 0.56063(7) 0.76989(11)
N4_4 N 0.0217(2) 0.58539(8) 0.47691(13)
Zn4_4 Zn 0.47340(3) 0.94901(2) 0.10028(2)
O1_4 O 0.85133(19) 0.62115(8) 0.63047(11)
N2_4 N 0.5217(2) 0.91461(8) 0.97691(13)
C1_4 C 0.8239(3) 0.61460(11) 0.71615(16)
C2_4 C 0.7631(3) 0.67403(10) 0.75508(16)
C3_4 C 0.6934(3) 0.66679(10) 0.83044(16)
H1_4 H 0.6791 0.6231 0.8544
C4_4 C 0.6450(3) 0.72290(10) 0.87050(16)
H2_4 H 0.5966 0.7172 0.9213
C5_4 C 0.6661(2) 0.78777(10) 0.83746(15)
C6_4 C 0.7351(3) 0.79425(10) 0.76116(17)
H3_4 H 0.7503 0.8379 0.7375
C7_4 C 0.7815(3) 0.73821(11) 0.71957(17)
H4_4 H 0.8262 0.7436 0.6665
C8_4 C 0.6185(2) 0.84767(10) 0.88174(15)
C9_4 C 0.6332(3) 0.91515(10) 0.85845(16)
H5_4 H 0.6776 0.9307 0.8090
C10_4 C 0.5471(3) 0.85070(10) 0.95650(16)
H6_4 H 0.5201 0.8125 0.9887
N3_3 N 0.4239(2) 0.04484(8) 0.08450(13)
O1_5 O 0.35133(19) 0.87885(8) 0.13047(11)
O2_3 O 0.35116(18) 0.93937(7) 0.26989(11)
N1_3 N 0.0761(2) 0.54484(8) 0.41550(13)
C1_5 C 0.3239(3) 0.88540(11) 0.21615(16)
C2_5 C 0.2631(3) 0.82597(10) 0.25508(16)
C3_5 C 0.1934(3) 0.83321(10) 0.33044(16)
H1_5 H 0.1791 0.8769 0.3544
C4_5 C 0.1450(3) 0.77710(10) 0.37050(16)
H2_5 H 0.0966 0.7828 0.4213
C5_5 C 0.1661(2) 0.71223(10) 0.33746(15)
C6_5 C 0.2351(3) 0.70575(10) 0.26116(17)
H3_5 H 0.2503 0.6621 0.2375
C7_5 C 0.2815(3) 0.76179(11) 0.21957(17)
H4_5 H 0.3262 0.7564 0.1665
C8_5 C 0.1185(2) 0.65233(10) 0.38174(15)
C9_5 C 0.1332(3) 0.58485(10) 0.35845(16)
H5_5 H 0.1776 0.5693 0.3090
C10_5 C 0.0471(3) 0.64930(10) 0.45650(16)
H6_5 H 0.0201 0.6875 0.4887
O3_3 O 0.64884(18) 0.93937(7) 0.23011(11)
N3_4 N 0.5761(2) 0.04484(8) 0.41550(13)
O1_6 O 0.64867(19) 0.87885(8) 0.36953(11)
N1_4 N 0.9239(2) 0.54484(8) 0.08450(13)
C1_6 C 0.6761(3) 0.88540(11) 0.28385(16)
C2_6 C 0.7369(3) 0.82597(10) 0.24492(16)
C3_6 C 0.8066(3) 0.83321(10) 0.16956(16)
H1_6 H 0.8209 0.8769 0.1456
C4_6 C 0.8550(3) 0.77710(10) 0.12950(16)
H2_6 H 0.9034 0.7828 0.0787
C5_6 C 0.8339(2) 0.71223(10) 0.16254(15)
C6_6 C 0.7649(3) 0.70575(10) 0.23884(17)
H3_6 H 0.7497 0.6621 0.2625
C7_6 C 0.7185(3) 0.76179(11) 0.28043(17)
H4_6 H 0.6738 0.7564 0.3335
C8_6 C 0.8815(2) 0.65233(10) 0.11826(15)
C9_6 C 0.8668(3) 0.58485(10) 0.14155(16)
H5_6 H 0.8224 0.5693 0.1910
C10_6 C 0.9529(3) 0.64930(10) 0.04350(16)
H6_6 H 0.9799 0.6875 0.0113
O3_4 O 0.14884(18) 0.43937(7) 0.23011(11)
O1_7 O 0.85133(19) 0.37885(8) 0.13047(11)
O2_4 O 0.85116(18) 0.43937(7) 0.26989(11)
C1_7 C 0.8239(3) 0.38540(11) 0.21615(16)
C2_7 C 0.7631(3) 0.32597(10) 0.25508(16)
C3_7 C 0.6934(3) 0.33321(10) 0.33044(16)
H1_7 H 0.6791 0.3769 0.3544
C4_7 C 0.6450(3) 0.27710(10) 0.37050(16)
H2_7 H 0.5966 0.2828 0.4213
C5_7 C 0.6661(2) 0.21223(10) 0.33746(15)
C6_7 C 0.7351(3) 0.20575(10) 0.26116(17)
H3_7 H 0.7503 0.1621 0.2375
C7_7 C 0.7815(3) 0.26179(11) 0.21957(17)
H4_7 H 0.8262 0.2564 0.1665
C8_7 C 0.6185(2) 0.15233(10) 0.38174(15)
C9_7 C 0.6332(3) 0.08485(10) 0.35845(16)
H5_7 H 0.6776 0.0693 0.3090
C10_7 C 0.5471(3) 0.14930(10) 0.45650(16)
H6_7 H 0.5201 0.1875 0.4887
O1_8 O 0.14867(19) 0.37885(8) 0.36953(11)
C1_8 C 0.1761(3) 0.38540(11) 0.28385(16)
C2_8 C 0.2369(3) 0.32597(10) 0.24492(16)
C3_8 C 0.3066(3) 0.33321(10) 0.16956(16)
H1_8 H 0.3209 0.3769 0.1456
C4_8 C 0.3550(3) 0.27710(10) 0.12950(16)
H2_8 H 0.4034 0.2828 0.0787
C5_8 C 0.3339(2) 0.21223(10) 0.16254(15)
C6_8 C 0.2649(3) 0.20575(10) 0.23884(17)
H3_8 H 0.2497 0.1621 0.2625
C7_8 C 0.2185(3) 0.26179(11) 0.28043(17)
H4_8 H 0.1738 0.2564 0.3335
C8_8 C 0.3815(2) 0.15233(10) 0.11826(15)
C9_8 C 0.3668(3) 0.08485(10) 0.14155(16)
H5_8 H 0.3224 0.0693 0.1910
C10_8 C 0.4529(3) 0.14930(10) 0.04350(16)
H6_8 H 0.4799 0.1875 0.0113
loop_
_geom_bond_atom_site_label_1
_geom_bond_atom_site_label_2
_geom_bond_site_symmetry_1
_geom_bond_site_symmetry_2
Zn1 O1 1_555 1_555
O1 C1 1_555 1_555
O2 C1 1_555 1_555
N1 N2 1_555 1_555
N2 C10 1_555 1_555
C1 C2 1_555 1_555
C2 C3 1_555 1_555
C3 H1 1_555 1_555
C4 C3 1_555 1_555
H2 C4 1_555 1_555
C5 C4 1_555 1_555
C6 C5 1_555 1_555
H3 C6 1_555 1_555
C7 C2 1_555 1_555
H4 C7 1_555 1_555
C8 C5 1_555 1_555
C9 N1 1_555 1_555
H5 C9 1_555 1_555
C10 C8 1_555 1_555
H6 C10 1_555 1_555
Zn2 O2 1_555 1_555
Zn3 N1 1_555 1_555
O3 Zn1 1_555 1_555
C6 C7 1_555 1_555
C8 C9 1_555 1_555
Zn2 O1_2 1_555 1_555
O1_2 C1_2 1_555 1_555
O3 C1_2 1_555 1_555
N1_2 N2_2 1_555 1_555
N2_2 C10_2 1_555 1_555
C1_2 C2_2 1_555 1_555
C2_2 C3_2 1_555 1_555
C3_2 H1_2 1_555 1_555
C4_2 C3_2 1_555 1_555
H2_2 C4_2 1_555 1_555
C5_2 C4_2 1_555 1_555
C6_2 C5_2 1_555 1_555
H3_2 C6_2 1_555 1_555
C7_2 C2_2 1_555 1_555
H4_2 C7_2 1_555 1_555
C8_2 C5_2 1_555 1_555
C9_2 N1_2 1_555 1_555
H5_2 C9_2 1_555 1_555
C10_2 C8_2 1_555 1_555
H6_2 C10_2 1_555 1_555
Zn3_2 N1_2 1_555 1_555
N4_2 Zn2 1_555 1_555
C6_2 C7_2 1_555 1_555
C8_2 C9_2 1_555 1_555
Zn3_2 O1_3 1_555 1_555
O1_3 C1_3 1_555 1_555
O2_2 C1_3 1_555 1_555
N3_2 N2_3 1_555 1_555
N2_3 C10_3 1_555 1_555
C1_3 C2_3 1_555 1_555
C2_3 C3_3 1_555 1_555
C3_3 H1_3 1_555 1_555
C4_3 C3_3 1_555 1_555
H2_3 C4_3 1_555 1_555
C5_3 C4_3 1_555 1_555
C6_3 C5_3 1_555 1_555
H3_3 C6_3 1_555 1_555
C7_3 C2_3 1_555 1_555
H4_3 C7_3 1_555 1_555
C8_3 C5_3 1_555 1_555
C9_3 N3_2 1_555 1_555
H5_3 C9_3 1_555 1_555
C10_3 C8_3 1_555 1_555
H6_3 C10_3 1_555 1_555
Zn4_3 N2_3 1_555 1_555
C6_3 C7_3 1_555 1_555
C8_3 C9_3 1_555 1_555
Zn3 O1_4 1_555 1_555
O1_4 C1_4 1_555 1_555
O3_2 C1_4 1_555 1_555
N3 N2_4 1_555 1_555
N2_4 C10_4 1_555 1_555
C1_4 C2_4 1_555 1_555
C2_4 C3_4 1_555 1_555
C3_4 H1_4 1_555 1_555
C4_4 C3_4 1_555 1_555
H2_4 C4_4 1_555 1_555
C5_4 C4_4 1_555 1_555
C6_4 C5_4 1_555 1_555
H3_4 C6_4 1_555 1_555
C7_4 C2_4 1_555 1_555
H4_4 C7_4 1_555 1_555
C8_4 C5_4 1_555 1_555
C9_4 N3 1_555 1_555
H5_4 C9_4 1_555 1_555
C10_4 C8_4 1_555 1_555
H6_4 C10_4 1_555 1_555
C6_4 C7_4 1_555 1_555
C8_4 C9_4 1_555 1_555
Zn4_4 O1_5 1_555 1_555
O1_5 C1_5 1_555 1_555
O2_3 C1_5 1_555 1_555
N1_3 N4_4 1_555 1_555
N4_4 C10_5 1_555 1_555
C1_5 C2_5 1_555 1_555
C2_5 C3_5 1_555 1_555
C3_5 H1_5 1_555 1_555
C4_5 C3_5 1_555 1_555
H2_5 C4_5 1_555 1_555
C5_5 C4_5 1_555 1_555
C6_5 C5_5 1_555 1_555
H3_5 C6_5 1_555 1_555
C7_5 C2_5 1_555 1_555
H4_5 C7_5 1_555 1_555
C8_5 C5_5 1_555 1_555
C9_5 N1_3 1_555 1_555
H5_5 C9_5 1_555 1_555
C10_5 C8_5 1_555 1_555
H6_5 C10_5 1_555 1_555
Zn4_3 O2_3 1_555 1_555
Zn4 N1_3 1_555 1_555
O3_3 Zn4_4 1_555 1_555
C6_5 C7_5 1_555 1_555
C8_5 C9_5 1_555 1_555
Zn4_3 O1_6 1_555 1_555
O1_6 C1_6 1_555 1_555
O3_3 C1_6 1_555 1_555
N1_4 N4_3 1_555 1_555
N4_3 C10_6 1_555 1_555
C1_6 C2_6 1_555 1_555
C2_6 C3_6 1_555 1_555
C3_6 H1_6 1_555 1_555
C4_6 C3_6 1_555 1_555
H2_6 C4_6 1_555 1_555
C5_6 C4_6 1_555 1_555
C6_6 C5_6 1_555 1_555
H3_6 C6_6 1_555 1_555
C7_6 C2_6 1_555 1_555
H4_6 C7_6 1_555 1_555
C8_6 C5_6 1_555 1_555
C9_6 N1_4 1_555 1_555
H5_6 C9_6 1_555 1_555
C10_6 C8_6 1_555 1_555
H6_6 C10_6 1_555 1_555
Zn4_2 N1_4 1_555 1_555
C6_6 C7_6 1_555 1_555
C8_6 C9_6 1_555 1_555
Zn4_2 O1_7 1_555 1_555
O1_7 C1_7 1_555 1_555
O2_4 C1_7 1_555 1_555
N3_4 N4_2 1_555 1_555
N4_2 C10_7 1_555 1_555
C1_7 C2_7 1_555 1_555
C2_7 C3_7 1_555 1_555
C3_7 H1_7 1_555 1_555
C4_7 C3_7 1_555 1_555
H2_7 C4_7 1_555 1_555
C5_7 C4_7 1_555 1_555
C6_7 C5_7 1_555 1_555
H3_7 C6_7 1_555 1_555
C7_7 C2_7 1_555 1_555
H4_7 C7_7 1_555 1_555
C8_7 C5_7 1_555 1_555
C9_7 N3_4 1_555 1_555
H5_7 C9_7 1_555 1_555
C10_7 C8_7 1_555 1_555
H6_7 C10_7 1_555 1_555
C6_7 C7_7 1_555 1_555
C8_7 C9_7 1_555 1_555
Zn4 O1_8 1_555 1_555
O1_8 C1_8 1_555 1_555
O3_4 C1_8 1_555 1_555
N3_3 N4 1_555 1_555
N4 C10_8 1_555 1_555
C1_8 C2_8 1_555 1_555
C2_8 C3_8 1_555 1_555
C3_8 H1_8 1_555 1_555
C4_8 C3_8 1_555 1_555
H2_8 C4_8 1_555 1_555
C5_8 C4_8 1_555 1_555
C6_8 C5_8 1_555 1_555
H3_8 C6_8 1_555 1_555
C7_8 C2_8 1_555 1_555
H4_8 C7_8 1_555 1_555
C8_8 C5_8 1_555 1_555
C9_8 N3_3 1_555 1_555
H5_8 C9_8 1_555 1_555
C10_8 C8_8 1_555 1_555
H6_8 C10_8 1_555 1_555
C6_8 C7_8 1_555 1_555
C8_8 C9_8 1_555 1_555

#END
