
###############################################################################
#
# This file contains modified crystal structure data generated from the
# MOF subset of the Cambridge Structural Database (CSD) v543 
# hosted by the Cambridge Crystallographic Data Centre (CCDC).
#
# This work is licensed under the Creative Commons
# Attribution-NonCommercial-ShareAlike 4.0 International License.
# To view a copy of this license, visit
# http://creativecommons.org/licenses/by-nc-sa/4.0/
# or send a letter to
# Creative Commons, PO Box 1866, Mountain View, CA 94042, USA.
#
# CIF created using the CSD Python API on 29 September 2022
# The structure has been converted into the P1 space group
# The structure has a 3D framework
# The original CSD entry IYOVEA02 is in the monoclinic crystal system
# The framework has been calculated to contain at least 10.0% void space
# The void calculation uses a probe of radius 1.32A, grid spacing 0.4
#
###############################################################################

data_IYOVEA02
_chemical_formula_moiety         '(C80 H48 N16 O16 Zn8)n'
_symmetry_cell_setting           triclinic
_symmetry_space_group_name_H-M   'P 1'
_symmetry_Int_Tables_number      1
_space_group_name_Hall           'P 1'
loop_
_symmetry_equiv_pos_site_id
_symmetry_equiv_pos_as_xyz
1 x,y,z
_cell_length_a                   10.7561(9)
_cell_length_b                   19.4423(15)
_cell_length_c                   13.0721(9)
_cell_angle_alpha                90
_cell_angle_beta                 108.065(4)
_cell_angle_gamma                90
_cell_volume                     2598.93
loop_
_atom_site_label
_atom_site_type_symbol
_atom_site_fract_x
_atom_site_fract_y
_atom_site_fract_z
Zn4 Zn 0.02449(5) 0.44579(2) 0.40004(3)
N4 N 0.4757(3) 0.08637(12) 0.0256(2)
Zn1 Zn 0.52449(5) 0.05421(2) 0.90004(3)
O1 O 0.6359(3) 0.12693(12) 0.8719(2)
O2 O 0.6362(3) 0.06466(11) 0.7305(2)
N1 N 0.9272(3) 0.45671(12) 0.5865(2)
N2 N 0.9757(3) 0.41363(12) 0.5256(2)
C1 C 0.6641(4) 0.11898(17) 0.7862(3)
C2 C 0.7276(4) 0.17750(16) 0.7485(3)
C3 C 0.7947(4) 0.16781(16) 0.6759(3)
H1 H 0.8055 0.1236 0.6529
C4 C 0.8464(4) 0.22332(16) 0.6365(3)
H2 H 0.8924 0.2157 0.5879
C5 C 0.8309(4) 0.28958(15) 0.6677(3)
C6 C 0.7659(5) 0.29870(17) 0.7427(3)
H3 H 0.7558 0.3428 0.7664
C7 C 0.7157(4) 0.24313(18) 0.7832(3)
H4 H 0.6734 0.2503 0.8345
C8 C 0.8804(4) 0.34905(15) 0.6221(3)
C9 C 0.8705(4) 0.41786(16) 0.6433(3)
H5 H 0.8295 0.4350 0.6910
C10 C 0.9461(4) 0.34976(15) 0.5476(3)
H6 H 0.9674 0.3105 0.5160
Zn2 Zn 0.47551(5) 0.05421(2) 0.59996(3)
Zn3 Zn 0.97551(5) 0.55421(2) 0.59996(3)
O3 O 0.3638(3) 0.06466(11) 0.7695(2)
N3 N 0.5728(3) 0.95671(12) 0.9135(2)
O1_2 O 0.3641(3) 0.12693(12) 0.6281(2)
N1_2 N 0.0728(3) 0.45671(12) 0.9135(2)
N2_2 N 0.0243(3) 0.41363(12) 0.9744(2)
C1_2 C 0.3359(4) 0.11898(17) 0.7138(3)
C2_2 C 0.2724(4) 0.17750(16) 0.7515(3)
C3_2 C 0.2053(4) 0.16781(16) 0.8241(3)
H1_2 H 0.1945 0.1236 0.8471
C4_2 C 0.1536(4) 0.22332(16) 0.8635(3)
H2_2 H 0.1076 0.2157 0.9121
C5_2 C 0.1691(4) 0.28958(15) 0.8323(3)
C6_2 C 0.2341(5) 0.29870(17) 0.7573(3)
H3_2 H 0.2442 0.3428 0.7336
C7_2 C 0.2843(4) 0.24313(18) 0.7168(3)
H4_2 H 0.3266 0.2503 0.6655
C8_2 C 0.1196(4) 0.34905(15) 0.8779(3)
C9_2 C 0.1295(4) 0.41786(16) 0.8567(3)
H5_2 H 0.1705 0.4350 0.8090
C10_2 C 0.0539(4) 0.34976(15) 0.9524(3)
H6_2 H 0.0326 0.3105 0.9840
Zn3_2 Zn 0.02449(5) 0.55421(2) 0.90004(3)
N4_2 N 0.5243(3) 0.08637(12) 0.4744(2)
N3_2 N 0.4272(3) 0.95671(12) 0.5865(2)
Zn4_2 Zn 0.97551(5) 0.44579(2) 0.09996(3)
O1_3 O 0.1359(3) 0.62693(12) 0.8719(2)
O2_2 O 0.1362(3) 0.56466(11) 0.7305(2)
N2_3 N 0.4757(3) 0.91363(12) 0.5256(2)
C1_3 C 0.1641(4) 0.61898(17) 0.7862(3)
C2_3 C 0.2276(4) 0.67750(16) 0.7485(3)
C3_3 C 0.2947(4) 0.66781(16) 0.6759(3)
H1_3 H 0.3055 0.6236 0.6529
C4_3 C 0.3464(4) 0.72332(16) 0.6365(3)
H2_3 H 0.3924 0.7157 0.5879
C5_3 C 0.3309(4) 0.78958(15) 0.6677(3)
C6_3 C 0.2659(5) 0.79870(17) 0.7427(3)
H3_3 H 0.2558 0.8428 0.7664
C7_3 C 0.2157(4) 0.74313(18) 0.7832(3)
H4_3 H 0.1734 0.7503 0.8345
C8_3 C 0.3804(4) 0.84905(15) 0.6221(3)
C9_3 C 0.3705(4) 0.91786(16) 0.6433(3)
H5_3 H 0.3295 0.9350 0.6910
C10_3 C 0.4461(4) 0.84976(15) 0.5476(3)
H6_3 H 0.4674 0.8105 0.5160
Zn4_3 Zn 0.52449(5) 0.94579(2) 0.40004(3)
N4_3 N 0.9757(3) 0.58637(12) 0.0256(2)
O3_2 O 0.8638(3) 0.56466(11) 0.7695(2)
N4_4 N 0.0243(3) 0.58637(12) 0.4744(2)
Zn4_4 Zn 0.47551(5) 0.94579(2) 0.09996(3)
O1_4 O 0.8641(3) 0.62693(12) 0.6281(2)
N2_4 N 0.5243(3) 0.91363(12) 0.9744(2)
C1_4 C 0.8359(4) 0.61898(17) 0.7138(3)
C2_4 C 0.7724(4) 0.67750(16) 0.7515(3)
C3_4 C 0.7053(4) 0.66781(16) 0.8241(3)
H1_4 H 0.6945 0.6236 0.8471
C4_4 C 0.6536(4) 0.72332(16) 0.8635(3)
H2_4 H 0.6076 0.7157 0.9121
C5_4 C 0.6691(4) 0.78958(15) 0.8323(3)
C6_4 C 0.7341(5) 0.79870(17) 0.7573(3)
H3_4 H 0.7442 0.8428 0.7336
C7_4 C 0.7843(4) 0.74313(18) 0.7168(3)
H4_4 H 0.8266 0.7503 0.6655
C8_4 C 0.6196(4) 0.84905(15) 0.8779(3)
C9_4 C 0.6295(4) 0.91786(16) 0.8567(3)
H5_4 H 0.6705 0.9350 0.8090
C10_4 C 0.5539(4) 0.84976(15) 0.9524(3)
H6_4 H 0.5326 0.8105 0.9840
N3_3 N 0.4272(3) 0.04329(12) 0.0865(2)
O1_5 O 0.3641(3) 0.87307(12) 0.1281(2)
O2_3 O 0.3638(3) 0.93534(11) 0.2695(2)
N1_3 N 0.0728(3) 0.54329(12) 0.4135(2)
C1_5 C 0.3359(4) 0.88102(17) 0.2138(3)
C2_5 C 0.2724(4) 0.82250(16) 0.2515(3)
C3_5 C 0.2053(4) 0.83219(16) 0.3241(3)
H1_5 H 0.1945 0.8764 0.3471
C4_5 C 0.1536(4) 0.77668(16) 0.3635(3)
H2_5 H 0.1076 0.7843 0.4121
C5_5 C 0.1691(4) 0.71042(15) 0.3323(3)
C6_5 C 0.2341(5) 0.70130(17) 0.2573(3)
H3_5 H 0.2442 0.6572 0.2336
C7_5 C 0.2843(4) 0.75687(18) 0.2168(3)
H4_5 H 0.3266 0.7497 0.1655
C8_5 C 0.1196(4) 0.65095(15) 0.3779(3)
C9_5 C 0.1295(4) 0.58214(16) 0.3567(3)
H5_5 H 0.1705 0.5650 0.3090
C10_5 C 0.0539(4) 0.65024(15) 0.4524(3)
H6_5 H 0.0326 0.6895 0.4840
O3_3 O 0.6362(3) 0.93534(11) 0.2305(2)
N3_4 N 0.5728(3) 0.04329(12) 0.4135(2)
O1_6 O 0.6359(3) 0.87307(12) 0.3719(2)
N1_4 N 0.9272(3) 0.54329(12) 0.0865(2)
C1_6 C 0.6641(4) 0.88102(17) 0.2862(3)
C2_6 C 0.7276(4) 0.82250(16) 0.2485(3)
C3_6 C 0.7947(4) 0.83219(16) 0.1759(3)
H1_6 H 0.8055 0.8764 0.1529
C4_6 C 0.8464(4) 0.77668(16) 0.1365(3)
H2_6 H 0.8924 0.7843 0.0879
C5_6 C 0.8309(4) 0.71042(15) 0.1677(3)
C6_6 C 0.7659(5) 0.70130(17) 0.2427(3)
H3_6 H 0.7558 0.6572 0.2664
C7_6 C 0.7157(4) 0.75687(18) 0.2832(3)
H4_6 H 0.6734 0.7497 0.3345
C8_6 C 0.8804(4) 0.65095(15) 0.1221(3)
C9_6 C 0.8705(4) 0.58214(16) 0.1433(3)
H5_6 H 0.8295 0.5650 0.1910
C10_6 C 0.9461(4) 0.65024(15) 0.0476(3)
H6_6 H 0.9674 0.6895 0.0160
O3_4 O 0.1362(3) 0.43534(11) 0.2305(2)
O1_7 O 0.8641(3) 0.37307(12) 0.1281(2)
O2_4 O 0.8638(3) 0.43534(11) 0.2695(2)
C1_7 C 0.8359(4) 0.38102(17) 0.2138(3)
C2_7 C 0.7724(4) 0.32250(16) 0.2515(3)
C3_7 C 0.7053(4) 0.33219(16) 0.3241(3)
H1_7 H 0.6945 0.3764 0.3471
C4_7 C 0.6536(4) 0.27668(16) 0.3635(3)
H2_7 H 0.6076 0.2843 0.4121
C5_7 C 0.6691(4) 0.21042(15) 0.3323(3)
C6_7 C 0.7341(5) 0.20130(17) 0.2573(3)
H3_7 H 0.7442 0.1572 0.2336
C7_7 C 0.7843(4) 0.25687(18) 0.2168(3)
H4_7 H 0.8266 0.2497 0.1655
C8_7 C 0.6196(4) 0.15095(15) 0.3779(3)
C9_7 C 0.6295(4) 0.08214(16) 0.3567(3)
H5_7 H 0.6705 0.0650 0.3090
C10_7 C 0.5539(4) 0.15024(15) 0.4524(3)
H6_7 H 0.5326 0.1895 0.4840
O1_8 O 0.1359(3) 0.37307(12) 0.3719(2)
C1_8 C 0.1641(4) 0.38102(17) 0.2862(3)
C2_8 C 0.2276(4) 0.32250(16) 0.2485(3)
C3_8 C 0.2947(4) 0.33219(16) 0.1759(3)
H1_8 H 0.3055 0.3764 0.1529
C4_8 C 0.3464(4) 0.27668(16) 0.1365(3)
H2_8 H 0.3924 0.2843 0.0879
C5_8 C 0.3309(4) 0.21042(15) 0.1677(3)
C6_8 C 0.2659(5) 0.20130(17) 0.2427(3)
H3_8 H 0.2558 0.1572 0.2664
C7_8 C 0.2157(4) 0.25687(18) 0.2832(3)
H4_8 H 0.1734 0.2497 0.3345
C8_8 C 0.3804(4) 0.15095(15) 0.1221(3)
C9_8 C 0.3705(4) 0.08214(16) 0.1433(3)
H5_8 H 0.3295 0.0650 0.1910
C10_8 C 0.4461(4) 0.15024(15) 0.0476(3)
H6_8 H 0.4674 0.1895 0.0160
loop_
_geom_bond_atom_site_label_1
_geom_bond_atom_site_label_2
_geom_bond_site_symmetry_1
_geom_bond_site_symmetry_2
Zn1 O1 1_555 1_555
O1 C1 1_555 1_555
O2 C1 1_555 1_555
N1 N2 1_555 1_555
N2 C10 1_555 1_555
C1 C2 1_555 1_555
C2 C3 1_555 1_555
C3 H1 1_555 1_555
C4 C3 1_555 1_555
H2 C4 1_555 1_555
C5 C4 1_555 1_555
C6 C5 1_555 1_555
H3 C6 1_555 1_555
C7 C2 1_555 1_555
H4 C7 1_555 1_555
C8 C5 1_555 1_555
C9 N1 1_555 1_555
H5 C9 1_555 1_555
C10 C8 1_555 1_555
H6 C10 1_555 1_555
Zn2 O2 1_555 1_555
Zn3 N1 1_555 1_555
O3 Zn1 1_555 1_555
C6 C7 1_555 1_555
C8 C9 1_555 1_555
Zn2 O1_2 1_555 1_555
O1_2 C1_2 1_555 1_555
O3 C1_2 1_555 1_555
N1_2 N2_2 1_555 1_555
N2_2 C10_2 1_555 1_555
C1_2 C2_2 1_555 1_555
C2_2 C3_2 1_555 1_555
C3_2 H1_2 1_555 1_555
C4_2 C3_2 1_555 1_555
H2_2 C4_2 1_555 1_555
C5_2 C4_2 1_555 1_555
C6_2 C5_2 1_555 1_555
H3_2 C6_2 1_555 1_555
C7_2 C2_2 1_555 1_555
H4_2 C7_2 1_555 1_555
C8_2 C5_2 1_555 1_555
C9_2 N1_2 1_555 1_555
H5_2 C9_2 1_555 1_555
C10_2 C8_2 1_555 1_555
H6_2 C10_2 1_555 1_555
Zn3_2 N1_2 1_555 1_555
N4_2 Zn2 1_555 1_555
C6_2 C7_2 1_555 1_555
C8_2 C9_2 1_555 1_555
Zn3_2 O1_3 1_555 1_555
O1_3 C1_3 1_555 1_555
O2_2 C1_3 1_555 1_555
N3_2 N2_3 1_555 1_555
N2_3 C10_3 1_555 1_555
C1_3 C2_3 1_555 1_555
C2_3 C3_3 1_555 1_555
C3_3 H1_3 1_555 1_555
C4_3 C3_3 1_555 1_555
H2_3 C4_3 1_555 1_555
C5_3 C4_3 1_555 1_555
C6_3 C5_3 1_555 1_555
H3_3 C6_3 1_555 1_555
C7_3 C2_3 1_555 1_555
H4_3 C7_3 1_555 1_555
C8_3 C5_3 1_555 1_555
C9_3 N3_2 1_555 1_555
H5_3 C9_3 1_555 1_555
C10_3 C8_3 1_555 1_555
H6_3 C10_3 1_555 1_555
Zn4_3 N2_3 1_555 1_555
C6_3 C7_3 1_555 1_555
C8_3 C9_3 1_555 1_555
Zn3 O1_4 1_555 1_555
O1_4 C1_4 1_555 1_555
O3_2 C1_4 1_555 1_555
N3 N2_4 1_555 1_555
N2_4 C10_4 1_555 1_555
C1_4 C2_4 1_555 1_555
C2_4 C3_4 1_555 1_555
C3_4 H1_4 1_555 1_555
C4_4 C3_4 1_555 1_555
H2_4 C4_4 1_555 1_555
C5_4 C4_4 1_555 1_555
C6_4 C5_4 1_555 1_555
H3_4 C6_4 1_555 1_555
C7_4 C2_4 1_555 1_555
H4_4 C7_4 1_555 1_555
C8_4 C5_4 1_555 1_555
C9_4 N3 1_555 1_555
H5_4 C9_4 1_555 1_555
C10_4 C8_4 1_555 1_555
H6_4 C10_4 1_555 1_555
C6_4 C7_4 1_555 1_555
C8_4 C9_4 1_555 1_555
Zn4_4 O1_5 1_555 1_555
O1_5 C1_5 1_555 1_555
O2_3 C1_5 1_555 1_555
N1_3 N4_4 1_555 1_555
N4_4 C10_5 1_555 1_555
C1_5 C2_5 1_555 1_555
C2_5 C3_5 1_555 1_555
C3_5 H1_5 1_555 1_555
C4_5 C3_5 1_555 1_555
H2_5 C4_5 1_555 1_555
C5_5 C4_5 1_555 1_555
C6_5 C5_5 1_555 1_555
H3_5 C6_5 1_555 1_555
C7_5 C2_5 1_555 1_555
H4_5 C7_5 1_555 1_555
C8_5 C5_5 1_555 1_555
C9_5 N1_3 1_555 1_555
H5_5 C9_5 1_555 1_555
C10_5 C8_5 1_555 1_555
H6_5 C10_5 1_555 1_555
Zn4_3 O2_3 1_555 1_555
Zn4 N1_3 1_555 1_555
O3_3 Zn4_4 1_555 1_555
C6_5 C7_5 1_555 1_555
C8_5 C9_5 1_555 1_555
Zn4_3 O1_6 1_555 1_555
O1_6 C1_6 1_555 1_555
O3_3 C1_6 1_555 1_555
N1_4 N4_3 1_555 1_555
N4_3 C10_6 1_555 1_555
C1_6 C2_6 1_555 1_555
C2_6 C3_6 1_555 1_555
C3_6 H1_6 1_555 1_555
C4_6 C3_6 1_555 1_555
H2_6 C4_6 1_555 1_555
C5_6 C4_6 1_555 1_555
C6_6 C5_6 1_555 1_555
H3_6 C6_6 1_555 1_555
C7_6 C2_6 1_555 1_555
H4_6 C7_6 1_555 1_555
C8_6 C5_6 1_555 1_555
C9_6 N1_4 1_555 1_555
H5_6 C9_6 1_555 1_555
C10_6 C8_6 1_555 1_555
H6_6 C10_6 1_555 1_555
Zn4_2 N1_4 1_555 1_555
C6_6 C7_6 1_555 1_555
C8_6 C9_6 1_555 1_555
Zn4_2 O1_7 1_555 1_555
O1_7 C1_7 1_555 1_555
O2_4 C1_7 1_555 1_555
N3_4 N4_2 1_555 1_555
N4_2 C10_7 1_555 1_555
C1_7 C2_7 1_555 1_555
C2_7 C3_7 1_555 1_555
C3_7 H1_7 1_555 1_555
C4_7 C3_7 1_555 1_555
H2_7 C4_7 1_555 1_555
C5_7 C4_7 1_555 1_555
C6_7 C5_7 1_555 1_555
H3_7 C6_7 1_555 1_555
C7_7 C2_7 1_555 1_555
H4_7 C7_7 1_555 1_555
C8_7 C5_7 1_555 1_555
C9_7 N3_4 1_555 1_555
H5_7 C9_7 1_555 1_555
C10_7 C8_7 1_555 1_555
H6_7 C10_7 1_555 1_555
C6_7 C7_7 1_555 1_555
C8_7 C9_7 1_555 1_555
Zn4 O1_8 1_555 1_555
O1_8 C1_8 1_555 1_555
O3_4 C1_8 1_555 1_555
N3_3 N4 1_555 1_555
N4 C10_8 1_555 1_555
C1_8 C2_8 1_555 1_555
C2_8 C3_8 1_555 1_555
C3_8 H1_8 1_555 1_555
C4_8 C3_8 1_555 1_555
H2_8 C4_8 1_555 1_555
C5_8 C4_8 1_555 1_555
C6_8 C5_8 1_555 1_555
H3_8 C6_8 1_555 1_555
C7_8 C2_8 1_555 1_555
H4_8 C7_8 1_555 1_555
C8_8 C5_8 1_555 1_555
C9_8 N3_3 1_555 1_555
H5_8 C9_8 1_555 1_555
C10_8 C8_8 1_555 1_555
H6_8 C10_8 1_555 1_555
C6_8 C7_8 1_555 1_555
C8_8 C9_8 1_555 1_555

#END
