
###############################################################################
#
# This file contains modified crystal structure data generated from the
# MOF subset of the Cambridge Structural Database (CSD) v543 
# hosted by the Cambridge Crystallographic Data Centre (CCDC).
#
# This work is licensed under the Creative Commons
# Attribution-NonCommercial-ShareAlike 4.0 International License.
# To view a copy of this license, visit
# http://creativecommons.org/licenses/by-nc-sa/4.0/
# or send a letter to
# Creative Commons, PO Box 1866, Mountain View, CA 94042, USA.
#
# CIF created using the CSD Python API on 29 September 2022
# The structure has been converted into the P1 space group
# The structure has a 3D framework
# The original CSD entry IZAVUC is in the triclinic crystal system
# The framework has been calculated to contain at least 10.0% void space
# The void calculation uses a probe of radius 1.32A, grid spacing 0.4
#
###############################################################################

data_IZAVUC
_chemical_formula_moiety         '(C64 H80 Cu6 Mo2 N16 O8)n'
_symmetry_cell_setting           triclinic
_symmetry_space_group_name_H-M   'P 1'
_symmetry_Int_Tables_number      1
_space_group_name_Hall           'P 1'
loop_
_symmetry_equiv_pos_site_id
_symmetry_equiv_pos_as_xyz
1 x,y,z
_cell_length_a                   12.136(2)
_cell_length_b                   13.869(2)
_cell_length_c                   15.746(3)
_cell_angle_alpha                104.756(2)
_cell_angle_beta                 110.017(2)
_cell_angle_gamma                102.602(2)
_cell_volume                     2267.98
loop_
_atom_site_label
_atom_site_type_symbol
_atom_site_fract_x
_atom_site_fract_y
_atom_site_fract_z
Cu4 Cu 0.0000 -0.0000 0.5000
Cu4_2 Cu -0.0000 1.0000 0.5000
Cu4_3 Cu 1.0000 -0.0000 0.5000
N1 N 0.1542(3) 0.0951(3) 0.4998(3)
N4 N 0.4593(3) 0.3862(3) 0.4725(3)
C1 C 0.0549(5) 0.0165(4) 0.0997(4)
H2 H 0.0561 0.0395 0.1651
C3 C 0.5734(5) 0.4467(4) 0.4704(4)
H5 H 0.5897 0.4023 0.4191
H6 H 0.6450 0.4659 0.5333
C4 C 0.4753(5) 0.2911(4) 0.4919(5)
H7 H 0.5465 0.3125 0.5554
H8 H 0.4956 0.2494 0.4418
C6 C 0.3611(4) 0.2224(3) 0.4925(4)
C8 C 0.3743(4) 0.1705(4) 0.5580(4)
H11 H 0.4549 0.1783 0.6021
C12 C 0.4389(4) 0.4540(4) 0.5487(4)
H16 H 0.5097 0.4732 0.6119
H17 H 0.3623 0.4153 0.5517
C14 C 0.2411(4) 0.2076(4) 0.4299(3)
H18 H 0.2279 0.2404 0.3828
C15 C 0.2704(4) 0.1078(3) 0.5589(3)
H19 H 0.2814 0.0719 0.6034
C16 C 0.1414(4) 0.1453(3) 0.4360(3)
H20 H 0.0597 0.1374 0.3934
Cu2 Cu 0.0000 0.5000 0.5000
N5 N 0.0621(4) 0.4764(4) 0.3949(3)
N7 N 0.0520(3) 0.4552(3) 0.0707(3)
C17 C 0.0515(5) 0.3724(4) 0.2447(4)
H21 H 0.0211 0.3051 0.1948
H23 H 0.1642 0.5180 0.0150
C19 C 0.1562(4) 0.4542(4) 0.1534(3)
H24 H 0.2310 0.5154 0.1727
H25 H 0.1759 0.3888 0.1334
C20 C 0.0131(5) 0.5464(4) 0.0955(3)
H26 H 0.0850 0.6122 0.1208
C21 C 0.1341(5) 0.5596(4) 0.3895(4)
H28 H 0.1645 0.6259 0.4407
C22 C 0.1666(5) 0.5542(4) 0.3139(4)
H29 H 0.2180 0.6162 0.3132
C23 C 0.0221(5) 0.3831(4) 0.3228(4)
C26 C 0.1250(4) 0.4594(4) 0.2388(3)
N9 N 0.8458(3) 0.9049(3) 0.5002(3)
N10 N 0.5407(3) 0.6138(3) 0.5275(3)
C33 C 0.4266(5) 0.5533(4) 0.5296(4)
H41 H 0.4103 0.5977 0.5809
H42 H 0.3550 0.5341 0.4667
C34 C 0.5247(5) 0.7089(4) 0.5081(5)
H43 H 0.4535 0.6875 0.4446
H44 H 0.5044 0.7506 0.5582
C35 C 0.6389(4) 0.7776(3) 0.5075(4)
C36 C 0.6257(4) 0.8295(4) 0.4420(4)
H45 H 0.5451 0.8217 0.3979
C37 C 0.5611(4) 0.5460(4) 0.4513(4)
H46 H 0.4903 0.5268 0.3881
H47 H 0.6377 0.5847 0.4483
C38 C 0.7589(4) 0.7924(4) 0.5701(3)
H48 H 0.7721 0.7596 0.6172
C39 C 0.7296(4) 0.8922(3) 0.4411(3)
H49 H 0.7186 0.9281 0.3966
C40 C 0.8586(4) 0.8547(3) 0.5640(3)
H50 H 0.9403 0.8626 0.6066
C42 C 0.0543(6) 0.1068(4) 0.0609(4)
H53 H 0.1290 0.1694 0.1056
Cu4_4 Cu 1.0000 1.0000 0.5000
O9 O 0.1417(3) 0.7017(2) 0.5789(2)
N18 N 0.0417(3) 0.0825(3) 0.6434(3)
N20 N 0.1375(4) 0.4667(4) 0.5898(3)
C18 C 0.0905(4) 0.4545(4) 0.9923(3)
H22 H 0.1146 0.3912 0.9742
N12 N 0.0533(5) 0.0748(3) 0.9638(3)
C45 C 0.1330(4) 0.0762(4) 0.7171(3)
H57 H 0.1946 0.0507 0.7046
C46 C 0.0549(5) 0.1646(4) 0.9303(3)
H59 H 0.1306 0.2255 0.9768
C47 C 0.1417(4) 0.1047(4) 0.8098(3)
H60 H 0.2090 0.0999 0.8598
C48 C 0.0529(4) 0.1406(3) 0.8309(3)
H67 H 0.0159 0.4545 0.8531
H70 H 0.0282 0.6778 0.6741
H1 H 0.1309 0.9982 0.1054
C5 C 0.0387(5) 0.8491(4) 0.2444(3)
H9 H 0.0999 0.8221 0.2331
C7 C 0.0416(4) 0.8779(4) 0.3360(3)
H10 H 0.1050 0.8695 0.3863
H13 H 0.0183 0.8145 0.0704
Mo2 Mo 0.22170(3) 0.83153(3) 0.59368(3)
O5 O 0.1114(3) 0.8909(2) 0.5507(2)
O7 O 0.3223(3) 0.9073(3) 0.7162(2)
O8 O 0.3099(3) 0.8265(3) 0.5255(3)
H4 H 0.0202 0.8732 0.9426
Mo1 Mo 0.77830(3) 0.16847(3) 0.40632(3)
O1 O 0.8886(3) 0.1091(2) 0.4493(2)
O2 O 0.8583(3) 0.2983(2) 0.4211(2)
O3 O 0.6777(3) 0.0927(3) 0.2838(2)
O4 O 0.6901(3) 0.1735(3) 0.4745(3)
Cu2_2 Cu 1.0000 0.5000 0.5000
N6 N 0.8625(4) 0.5333(4) 0.4102(3)
N8 N 0.5346(3) 0.5301(3) 0.1029(2)
H27 H 0.9841 0.5455 0.1469
H30 H 0.9718 0.3222 0.3259
C24 C 0.5974(4) 0.6102(4) 0.2007(3)
H31 H 0.5338 0.6225 0.2241
H32 H 0.6413 0.6776 0.1977
C25 C 0.8763(4) 0.6344(4) 0.4149(4)
H33 H 0.9460 0.6900 0.4671
C27 C 0.7943(4) 0.6592(4) 0.3479(3)
H34 H 0.8090 0.7310 0.3528
C28 C 0.4425(4) 0.5648(4) 0.0405(3)
H35 H 0.4851 0.6339 0.0397
H36 H 0.3810 0.5742 0.0671
C29 C 0.6894(4) 0.5810(3) 0.2723(3)
C30 C 0.7631(4) 0.4572(4) 0.3369(3)
H37 H 0.7527 0.3857 0.3318
C31 C 0.6750(4) 0.4776(4) 0.2683(3)
H38 H 0.6042 0.4210 0.2182
C32 C 0.6238(4) 0.5152(4) 0.0614(3)
H39 H 0.6856 0.4907 0.1020
H40 H 0.6690 0.5837 0.0610
H54 H 0.9798 0.1268 0.0574
C50 C 0.9095(4) 0.5455(4) 0.0077(3)
H62 H 0.8854 0.6088 0.0258
N19 N 0.9379(4) 0.5236(4) 0.6051(3)
H51 H 0.8691 0.0018 0.8946
C43 C 0.9613(5) 0.1509(4) 0.7556(3)
H55 H 0.9001 0.1779 0.7669
C44 C 0.9584(4) 0.1221(4) 0.6640(3)
H56 H 0.8950 0.1305 0.6137
H58 H 0.9817 0.1855 0.9296
N14 N 0.9480(3) 0.5448(3) 0.9293(3)
C49 C 0.9485(5) 0.6276(4) 0.7553(4)
H61 H 0.9789 0.6949 0.8052
H63 H 0.8358 0.4820 0.9850
C51 C 0.8438(4) 0.5458(4) 0.8466(3)
H64 H 0.7690 0.4846 0.8273
H65 H 0.8241 0.6112 0.8666
C52 C 0.9869(5) 0.4536(4) 0.9045(3)
H66 H 0.9150 0.3878 0.8792
C53 C 0.8659(5) 0.4404(4) 0.6105(4)
H68 H 0.8355 0.3741 0.5593
C54 C 0.8334(5) 0.4458(4) 0.6861(4)
H69 H 0.7820 0.3838 0.6868
C55 C 0.9779(5) 0.6169(4) 0.6772(4)
C56 C 0.8750(4) 0.5406(4) 0.7612(3)
N16 N 0.4654(3) 0.4699(3) 0.8971(2)
C57 C 0.4026(4) 0.3898(4) 0.7993(3)
H71 H 0.4662 0.3775 0.7759
H72 H 0.3587 0.3224 0.8023
C58 C 0.1237(4) 0.3656(4) 0.5851(4)
H73 H 0.0540 0.3100 0.5329
C59 C 0.2057(4) 0.3408(4) 0.6521(3)
H74 H 0.1910 0.2690 0.6472
C60 C 0.5575(4) 0.4352(4) 0.9595(3)
H75 H 0.5149 0.3661 0.9603
H76 H 0.6190 0.4258 0.9329
C61 C 0.3106(4) 0.4190(3) 0.7277(3)
C62 C 0.2369(4) 0.5428(4) 0.6631(3)
H77 H 0.2473 0.6143 0.6682
C63 C 0.3250(4) 0.5224(4) 0.7317(3)
H78 H 0.3958 0.5790 0.7818
C64 C 0.3762(4) 0.4848(4) 0.9386(3)
H79 H 0.3144 0.5093 0.8980
H80 H 0.3310 0.4163 0.9390
N2 N 0.9583(3) 0.9175(3) 0.3566(3)
N3 N 0.9467(5) 0.9252(3) 0.0362(3)
C9 C 0.8670(4) 0.9238(4) 0.2829(3)
H12 H 0.8054 0.9493 0.2954
C10 C 0.9451(5) 0.8354(4) 0.0697(3)
H14 H 0.8694 0.7745 0.0232
C11 C 0.8583(4) 0.8953(4) 0.1902(3)
H15 H 0.7910 0.9001 0.1402
C13 C 0.9471(4) 0.8594(3) 0.1691(3)
C2 C 0.9457(6) 0.8932(4) 0.9391(4)
H3 H 0.8710 0.8306 0.8944
C41 C 0.9451(5) 0.9835(4) 0.9003(4)
H52 H 0.9439 0.9605 0.8349
loop_
_geom_bond_atom_site_label_1
_geom_bond_atom_site_label_2
_geom_bond_site_symmetry_1
_geom_bond_site_symmetry_2
N1 Cu4 1_555 1_555
N4 C3 1_555 1_555
H2 C1 1_555 1_555
C3 H5 1_555 1_555
H6 C3 1_555 1_555
C4 N4 1_555 1_555
H7 C4 1_555 1_555
H8 C4 1_555 1_555
C6 C4 1_555 1_555
C8 C6 1_555 1_555
H11 C8 1_555 1_555
C12 N4 1_555 1_555
H16 C12 1_555 1_555
H17 C12 1_555 1_555
C14 C6 1_555 1_555
H18 C14 1_555 1_555
C15 N1 1_555 1_555
H19 C15 1_555 1_555
C16 N1 1_555 1_555
H20 C16 1_555 1_555
N5 Cu2 1_555 1_555
C17 H21 1_555 1_555
C19 N7 1_555 1_555
H24 C19 1_555 1_555
H25 C19 1_555 1_555
C20 N7 1_555 1_555
H26 C20 1_555 1_555
C21 N5 1_555 1_555
H28 C21 1_555 1_555
C22 C21 1_555 1_555
H29 C22 1_555 1_555
C23 N5 1_555 1_555
C26 C17 1_555 1_555
N9 C39 1_555 1_555
N10 C33 1_555 1_555
C33 C12 1_555 1_555
H41 C33 1_555 1_555
H42 C33 1_555 1_555
C34 N10 1_555 1_555
H43 C34 1_555 1_555
H44 C34 1_555 1_555
C35 C34 1_555 1_555
C36 C35 1_555 1_555
H45 C36 1_555 1_555
C37 C3 1_555 1_555
H46 C37 1_555 1_555
H47 C37 1_555 1_555
C38 C35 1_555 1_555
H48 C38 1_555 1_555
C39 C36 1_555 1_555
H49 C39 1_555 1_555
C40 N9 1_555 1_555
H50 C40 1_555 1_555
C42 C1 1_555 1_555
H53 C42 1_555 1_555
Cu4_4 N9 1_555 1_555
O9 Cu2 1_555 1_555
N18 Cu4 1_555 1_555
N20 Cu2 1_555 1_555
C8 C15 1_555 1_555
C14 C16 1_555 1_555
C17 C23 1_555 1_555
C19 C26 1_555 1_555
C22 C26 1_555 1_555
N10 C37 1_555 1_555
C38 C40 1_555 1_555
C18 H22 1_555 1_555
C45 N18 1_555 1_555
H57 C45 1_555 1_555
C46 N12 1_555 1_555
H59 C46 1_555 1_555
C47 C45 1_555 1_555
H60 C47 1_555 1_555
C46 C48 1_555 1_555
C47 C48 1_555 1_555
C5 H9 1_555 1_555
H10 C7 1_555 1_555
Mo2 O5 1_555 1_555
O5 Cu4_2 1_555 1_555
O9 Mo2 1_555 1_555
O7 Mo2 1_555 1_555
O8 Mo2 1_555 1_555
C5 C7 1_555 1_555
Mo1 O1 1_555 1_555
Cu4_3 O1 1_555 1_555
O2 Mo1 1_555 1_555
O3 Mo1 1_555 1_555
O4 Mo1 1_555 1_555
Cu2_2 O2 1_555 1_555
N6 Cu2_2 1_555 1_555
N8 C24 1_555 1_555
C24 H31 1_555 1_555
H32 C24 1_555 1_555
C25 N6 1_555 1_555
H33 C25 1_555 1_555
C27 C25 1_555 1_555
H34 C27 1_555 1_555
C28 N8 1_555 1_555
H35 C28 1_555 1_555
H36 C28 1_555 1_555
C29 C24 1_555 1_555
C30 N6 1_555 1_555
H37 C30 1_555 1_555
C31 C29 1_555 1_555
H38 C31 1_555 1_555
C32 N8 1_555 1_555
H39 C32 1_555 1_555
H40 C32 1_555 1_555
H62 C50 1_555 1_555
N19 Cu2_2 1_555 1_555
C27 C29 1_555 1_555
C30 C31 1_555 1_555
C43 H55 1_555 1_555
C44 C43 1_555 1_555
H56 C44 1_555 1_555
N19 C53 1_555 1_555
C49 H61 1_555 1_555
C51 N14 1_555 1_555
H64 C51 1_555 1_555
H65 C51 1_555 1_555
H66 C52 1_555 1_555
C53 H68 1_555 1_555
C54 C53 1_555 1_555
H69 C54 1_555 1_555
C55 N19 1_555 1_555
C56 C49 1_555 1_555
N20 C58 1_555 1_555
N16 C57 1_555 1_555
C57 H71 1_555 1_555
H72 C57 1_555 1_555
C58 H73 1_555 1_555
C59 C58 1_555 1_555
H74 C59 1_555 1_555
H75 C60 1_555 1_555
H76 C60 1_555 1_555
C61 C57 1_555 1_555
C62 N20 1_555 1_555
H77 C62 1_555 1_555
C63 C61 1_555 1_555
H78 C63 1_555 1_555
H79 C64 1_555 1_555
H80 C64 1_555 1_555
N14 C52 1_555 1_555
C49 C55 1_555 1_555
C51 C56 1_555 1_555
C54 C56 1_555 1_555
N16 C60 1_555 1_555
N16 C64 1_555 1_555
C59 C61 1_555 1_555
C62 C63 1_555 1_555
N2 Cu4_4 1_555 1_555
C9 N2 1_555 1_555
H12 C9 1_555 1_555
C10 N3 1_555 1_555
H14 C10 1_555 1_555
C11 C9 1_555 1_555
H15 C11 1_555 1_555
C10 C13 1_555 1_555
C11 C13 1_555 1_555
H3 C2 1_555 1_555
C41 C2 1_555 1_555
H52 C41 1_555 1_555

#END
