
###############################################################################
#
# This file contains modified crystal structure data generated from the
# MOF subset of the Cambridge Structural Database (CSD) v543 
# hosted by the Cambridge Crystallographic Data Centre (CCDC).
#
# This work is licensed under the Creative Commons
# Attribution-NonCommercial-ShareAlike 4.0 International License.
# To view a copy of this license, visit
# http://creativecommons.org/licenses/by-nc-sa/4.0/
# or send a letter to
# Creative Commons, PO Box 1866, Mountain View, CA 94042, USA.
#
# CIF created using the CSD Python API on 29 September 2022
# The structure has been converted into the P1 space group
# The structure has a 3D framework
# The original CSD entry IZEBEV is in the monoclinic crystal system
# The framework has been calculated to contain at least 10.0% void space
# The void calculation uses a probe of radius 1.32A, grid spacing 0.4
#
###############################################################################

data_IZEBEV
_chemical_formula_moiety         '(C64 H44 Cd10 O26)n'
_symmetry_cell_setting           triclinic
_symmetry_space_group_name_H-M   'P 1'
_symmetry_Int_Tables_number      1
_space_group_name_Hall           'P 1'
loop_
_symmetry_equiv_pos_site_id
_symmetry_equiv_pos_as_xyz
1 x,y,z
_cell_length_a                   14.465(6)
_cell_length_b                   17.773(8)
_cell_length_c                   6.770(3)
_cell_angle_alpha                90
_cell_angle_beta                 91.276(8)
_cell_angle_gamma                90
_cell_volume                     1740.04
loop_
_atom_site_label
_atom_site_type_symbol
_atom_site_fract_x
_atom_site_fract_y
_atom_site_fract_z
Cd3 Cd 0.0000 0.0000 0.5000
Cd11 Cd 0.86316(5) 0.03255(4) 0.05700(11)
O24 O 0.7125(6) 0.0790(6) 0.0362(13)
Cd1 Cd 0.0000 0.5000 0.0000
Cd2 Cd 0.13684(5) 0.53255(4) 0.44300(11)
O2 O 0.1336(5) 0.5717(4) 0.0778(11)
H10 H 0.1130 0.6114 0.0224
C17 C 0.1475(6) 0.2989(5) 0.2374(13)
C18 C 0.0802(6) 0.2449(5) 0.1812(13)
H12 H 0.0226 0.2604 0.1327
C19 C 0.1000(6) 0.1691(5) 0.1983(14)
C20 C 0.1868(6) 0.1455(5) 0.2643(14)
H13 H 0.2000 0.0944 0.2734
C21 C 0.2536(7) 0.1978(6) 0.3163(15)
C22 C 0.2328(7) 0.2753(5) 0.3030(14)
H14 H 0.2775 0.3106 0.3390
C23 C 0.1225(6) 0.3800(5) 0.2269(13)
C24 C 0.0281(6) 0.1141(5) 0.1432(14)
C25 C 0.7090(9) 0.0730(8) 0.852(2)
C26 C 0.6201(10) 0.0881(9) 0.741(2)
C27 C 0.3602(9) 0.1028(8) 0.422(2)
H15 H 0.3120 0.0796 0.4988
H16 H 0.3644 0.0763 0.2978
C28 C 0.4510(10) 0.0989(9) 0.534(2)
C29 C 0.4502(10) 0.0831(10) 0.742(2)
H17 H 0.3947 0.0772 0.8069
C30 C 0.5359(10) 0.0766(10) 0.844(2)
H18 H 0.5378 0.0649 0.9778
C31 C 0.6187(10) 0.1006(9) 0.544(2)
H19 H 0.6736 0.1015 0.4747
C32 C 0.5343(10) 0.1124(10) 0.444(2)
H20 H 0.5340 0.1296 0.3146
O9 O 0.0492(5) 0.3967(4) 0.1342(11)
O11 O 0.1762(5) 0.4251(4) 0.3155(11)
O12 O 0.0409(5) 0.0420(3) 0.1806(10)
O15 O 0.0409(5) 0.4580(3) 0.6806(10)
O18 O 0.0473(5) 0.6351(4) 0.4348(11)
O20 O 0.3395(5) 0.1786(4) 0.3887(12)
O21 O 0.7778(5) 0.0481(5) 0.7630(12)
O22 O 0.2222(5) 0.5481(5) 0.7370(12)
O25 O 0.2875(6) 0.5790(6) 0.4638(13)
Cd1_2 Cd -0.0000 0.5000 1.0000
H11 H 0.1694 0.5628 0.9827
O5 O 0.0473(5) 0.8649(4) 0.9348(11)
Cd3_2 Cd 0.0000 1.0000 0.5000
Cd7 Cd 0.13684(5) 0.96745(4) 0.94300(11)
Cd3_3 Cd 1.0000 0.0000 0.5000
Cd1_3 Cd 1.0000 0.5000 0.0000
H22 H 0.8306 0.4372 0.0173
O14 O 0.9591(5) 0.5420(3) 0.3194(10)
O17 O 0.9527(5) 0.1351(4) 0.0652(11)
Cd1_4 Cd 1.0000 0.5000 1.0000
C1 C 0.8525(6) 0.7011(5) 0.7626(13)
C2 C 0.9198(6) 0.7551(5) 0.8188(13)
H1 H 0.9774 0.7396 0.8673
C3 C 0.9000(6) 0.8309(5) 0.8017(14)
C4 C 0.8132(6) 0.8545(5) 0.7357(14)
H2 H 0.8000 0.9056 0.7266
C5 C 0.7464(7) 0.8022(6) 0.6837(15)
C6 C 0.7672(7) 0.7247(5) 0.6970(14)
H3 H 0.7225 0.6894 0.6610
C7 C 0.8775(6) 0.6200(5) 0.7731(13)
C8 C 0.9719(6) 0.8859(5) 0.8568(14)
C9 C 0.2910(9) 0.9270(8) 0.148(2)
C10 C 0.3799(10) 0.9119(9) 0.259(2)
C11 C 0.6398(9) 0.8972(8) 0.578(2)
H4 H 0.6880 0.9204 0.5012
H5 H 0.6356 0.9237 0.7022
C12 C 0.5490(10) 0.9011(9) 0.466(2)
C13 C 0.5498(10) 0.9169(10) 0.258(2)
H6 H 0.6053 0.9228 0.1931
C14 C 0.4641(10) 0.9234(10) 0.156(2)
H7 H 0.4622 0.9351 0.0222
C15 C 0.3813(10) 0.8994(9) 0.456(2)
H8 H 0.3264 0.8985 0.5253
C16 C 0.4657(10) 0.8876(10) 0.556(2)
H9 H 0.4660 0.8704 0.6854
O1 O 0.9508(5) 0.6033(4) 0.8658(11)
O3 O 0.8238(5) 0.5749(4) 0.6845(11)
O4 O 0.9591(5) 0.9580(3) 0.8194(10)
O6 O 0.6605(5) 0.8214(4) 0.6113(12)
O7 O 0.2222(5) 0.9519(5) 0.2370(12)
Cd3_4 Cd 1.0000 1.0000 0.5000
Cd5 Cd 0.86316(5) 0.46745(4) 0.55700(11)
O10 O 0.8664(5) 0.4283(4) 0.9222(11)
H21 H 0.8870 0.3886 0.9776
O19 O 0.9527(5) 0.3649(4) 0.5652(11)
O23 O 0.7778(5) 0.4519(5) 0.2630(12)
O26 O 0.7125(6) 0.4210(6) 0.5362(13)
O8 O 0.2875(6) 0.9210(6) 0.9638(13)
C9_2 C 0.7090(9) 0.4270(8) 0.352(2)
C10_2 C 0.6201(10) 0.4119(9) 0.241(2)
C12_2 C 0.4510(10) 0.4011(9) 0.034(2)
C13_2 C 0.4502(10) 0.4169(10) 0.242(2)
H6_2 H 0.3947 0.4228 0.3069
C14_2 C 0.5359(10) 0.4234(10) 0.344(2)
H7_2 H 0.5378 0.4351 0.4778
C15_2 C 0.6187(10) 0.3994(9) 0.044(2)
C1_2 C 0.1475(6) 0.2011(5) 0.7374(13)
C2_2 C 0.0802(6) 0.2551(5) 0.6812(13)
H1_2 H 0.0226 0.2396 0.6327
C3_2 C 0.1000(6) 0.3309(5) 0.6983(14)
C4_2 C 0.1868(6) 0.3545(5) 0.7643(14)
H2_2 H 0.2000 0.4056 0.7734
C5_2 C 0.2536(7) 0.3022(6) 0.8163(15)
C6_2 C 0.2328(7) 0.2247(5) 0.8030(14)
H3_2 H 0.2775 0.1894 0.8390
C7_2 C 0.1225(6) 0.1200(5) 0.7269(13)
C8_2 C 0.0281(6) 0.3859(5) 0.6432(14)
C11_2 C 0.3602(9) 0.3972(8) 0.922(2)
H4_2 H 0.3120 0.4204 0.9988
H5_2 H 0.3644 0.4237 0.7978
H8_2 H 0.6736 0.3985 0.9747
C16_2 C 0.5343(10) 0.3876(10) 0.944(2)
H9_2 H 0.5340 0.3704 0.8146
O1_2 O 0.0492(5) 0.1033(4) 0.6342(11)
O3_2 O 0.1762(5) 0.0749(4) 0.8155(11)
O6_2 O 0.3395(5) 0.3214(4) 0.8887(12)
O10_2 O 0.1336(5) 0.9283(4) 0.5778(11)
H21_2 H 0.1130 0.8886 0.5224
H22_2 H 0.1694 0.9372 0.4827
O2_2 O 0.8664(5) 0.0717(4) 0.4222(11)
H10_2 H 0.8870 0.1114 0.4776
H11_2 H 0.8306 0.0628 0.5173
C17_2 C 0.8525(6) 0.7989(5) 0.2626(13)
C18_2 C 0.9198(6) 0.7449(5) 0.3188(13)
H12_2 H 0.9774 0.7604 0.3673
C19_2 C 0.9000(6) 0.6691(5) 0.3017(14)
C20_2 C 0.8132(6) 0.6455(5) 0.2357(14)
H13_2 H 0.8000 0.5944 0.2266
C21_2 C 0.7464(7) 0.6978(6) 0.1837(15)
C22_2 C 0.7672(7) 0.7753(5) 0.1970(14)
H14_2 H 0.7225 0.8106 0.1610
C23_2 C 0.8775(6) 0.8800(5) 0.2731(13)
C24_2 C 0.9719(6) 0.6141(5) 0.3568(14)
C27_2 C 0.6398(9) 0.6028(8) 0.078(2)
H15_2 H 0.6880 0.5796 0.0012
H16_2 H 0.6356 0.5763 0.2022
H19_2 H 0.3264 0.6015 0.0253
C32_2 C 0.4657(10) 0.6124(10) 0.056(2)
H20_2 H 0.4660 0.6296 0.1854
O9_2 O 0.9508(5) 0.8967(4) 0.3658(11)
O11_2 O 0.8238(5) 0.9251(4) 0.1845(11)
O20_2 O 0.6605(5) 0.6786(4) 0.1113(12)
C25_2 C 0.2910(9) 0.5730(8) 0.648(2)
C26_2 C 0.3799(10) 0.5881(9) 0.759(2)
C28_2 C 0.5490(10) 0.5989(9) 0.966(2)
C29_2 C 0.5498(10) 0.5831(10) 0.758(2)
H17_2 H 0.6053 0.5772 0.6931
C30_2 C 0.4641(10) 0.5766(10) 0.656(2)
H18_2 H 0.4622 0.5649 0.5222
C31_2 C 0.3813(10) 0.6006(9) 0.956(2)
loop_
_geom_bond_atom_site_label_1
_geom_bond_atom_site_label_2
_geom_bond_site_symmetry_1
_geom_bond_site_symmetry_2
O24 Cd11 1_555 1_555
Cd2 O2 1_555 1_555
O2 Cd1 1_555 1_555
H10 O2 1_555 1_555
Cd3 O12 1_555 1_555
C17 C18 1_555 1_555
C18 H12 1_555 1_555
C19 C18 1_555 1_555
C20 C19 1_555 1_555
H13 C20 1_555 1_555
C21 C20 1_555 1_555
C22 C17 1_555 1_555
H14 C22 1_555 1_555
C23 C17 1_555 1_555
C24 C19 1_555 1_555
C25 C26 1_555 1_555
C26 C30 1_555 1_555
C27 H15 1_555 1_555
H16 C27 1_555 1_555
C28 C27 1_555 1_555
C29 C28 1_555 1_555
H17 C29 1_555 1_555
C30 C29 1_555 1_555
H18 C30 1_555 1_555
C31 C26 1_555 1_555
H19 C31 1_555 1_555
C32 C28 1_555 1_555
H20 C32 1_555 1_555
O9 Cd1 1_555 1_555
O11 Cd2 1_555 1_555
O12 C24 1_555 1_555
O15 Cd2 1_555 1_555
O18 Cd2 1_555 1_555
O20 C21 1_555 1_555
O21 C25 1_555 1_555
O22 Cd2 1_555 1_555
O25 Cd2 1_555 1_555
C21 C22 1_555 1_555
C23 O9 1_555 1_555
C23 O11 1_555 1_555
C27 O20 1_555 1_555
C31 C32 1_555 1_555
Cd7 O5 1_555 1_555
O15 Cd1_2 1_555 1_555
Cd11 O17 1_555 1_555
O14 Cd1_3 1_555 1_555
Cd1_4 O1 1_555 1_555
C1 C2 1_555 1_555
C2 H1 1_555 1_555
C3 C2 1_555 1_555
C4 C3 1_555 1_555
H2 C4 1_555 1_555
C5 C4 1_555 1_555
C6 C1 1_555 1_555
H3 C6 1_555 1_555
C7 C1 1_555 1_555
C8 C3 1_555 1_555
C9 C10 1_555 1_555
C10 C14 1_555 1_555
C11 H4 1_555 1_555
H5 C11 1_555 1_555
C12 C11 1_555 1_555
C13 C12 1_555 1_555
H6 C13 1_555 1_555
C14 C13 1_555 1_555
H7 C14 1_555 1_555
C15 C10 1_555 1_555
H8 C15 1_555 1_555
C16 C12 1_555 1_555
H9 C16 1_555 1_555
O1 C7 1_555 1_555
O3 C7 1_555 1_555
O4 C8 1_555 1_555
O6 C5 1_555 1_555
O7 C9 1_555 1_555
Cd3_4 O4 1_555 1_555
Cd5 O3 1_555 1_555
O10 Cd1_4 1_555 1_555
H21 O10 1_555 1_555
O14 Cd5 1_555 1_555
O19 Cd5 1_555 1_555
O23 Cd5 1_555 1_555
O26 Cd5 1_555 1_555
C5 C6 1_555 1_555
C11 O6 1_555 1_555
C15 C16 1_555 1_555
Cd5 O10 1_555 1_555
O8 Cd7 1_555 1_555
C9_2 C10_2 1_555 1_555
C10_2 C14_2 1_555 1_555
C13_2 C12_2 1_555 1_555
H6_2 C13_2 1_555 1_555
C14_2 C13_2 1_555 1_555
H7_2 C14_2 1_555 1_555
C15_2 C10_2 1_555 1_555
O23 C9_2 1_555 1_555
O26 C9_2 1_555 1_555
Cd3 O1_2 1_555 1_555
C1_2 C2_2 1_555 1_555
C2_2 H1_2 1_555 1_555
C3_2 C2_2 1_555 1_555
C4_2 C3_2 1_555 1_555
H2_2 C4_2 1_555 1_555
C5_2 C4_2 1_555 1_555
C6_2 C1_2 1_555 1_555
H3_2 C6_2 1_555 1_555
C7_2 C1_2 1_555 1_555
C8_2 C3_2 1_555 1_555
C11_2 H4_2 1_555 1_555
H5_2 C11_2 1_555 1_555
H9_2 C16_2 1_555 1_555
O1_2 C7_2 1_555 1_555
O3_2 C7_2 1_555 1_555
O15 C8_2 1_555 1_555
O6_2 C5_2 1_555 1_555
C5_2 C6_2 1_555 1_555
C11_2 O6_2 1_555 1_555
O10_2 Cd3_2 1_555 1_555
H21_2 O10_2 1_555 1_555
H22_2 O10_2 1_555 1_555
Cd7 O10_2 1_555 1_555
Cd11 O2_2 1_555 1_555
O2_2 Cd3_3 1_555 1_555
H10_2 O2_2 1_555 1_555
H11_2 O2_2 1_555 1_555
C17_2 C18_2 1_555 1_555
C18_2 H12_2 1_555 1_555
C19_2 C18_2 1_555 1_555
C20_2 C19_2 1_555 1_555
H13_2 C20_2 1_555 1_555
C21_2 C20_2 1_555 1_555
C22_2 C17_2 1_555 1_555
H14_2 C22_2 1_555 1_555
C23_2 C17_2 1_555 1_555
C24_2 C19_2 1_555 1_555
C27_2 H15_2 1_555 1_555
H16_2 C27_2 1_555 1_555
H20_2 C32_2 1_555 1_555
O9_2 Cd3_4 1_555 1_555
O14 C24_2 1_555 1_555
O20_2 C21_2 1_555 1_555
C21_2 C22_2 1_555 1_555
C23_2 O9_2 1_555 1_555
C23_2 O11_2 1_555 1_555
C27_2 O20_2 1_555 1_555
C25_2 C26_2 1_555 1_555
C26_2 C30_2 1_555 1_555
C29_2 C28_2 1_555 1_555
H17_2 C29_2 1_555 1_555
C30_2 C29_2 1_555 1_555
H18_2 C30_2 1_555 1_555
C31_2 C26_2 1_555 1_555
O22 C25_2 1_555 1_555
C25_2 O25 1_555 1_555

#END
