
###############################################################################
#
# This file contains modified crystal structure data generated from the
# MOF subset of the Cambridge Structural Database (CSD) v543 
# hosted by the Cambridge Crystallographic Data Centre (CCDC).
#
# This work is licensed under the Creative Commons
# Attribution-NonCommercial-ShareAlike 4.0 International License.
# To view a copy of this license, visit
# http://creativecommons.org/licenses/by-nc-sa/4.0/
# or send a letter to
# Creative Commons, PO Box 1866, Mountain View, CA 94042, USA.
#
# CIF created using the CSD Python API on 29 September 2022
# The structure has been converted into the P1 space group
# The structure has a 3D framework
# The original CSD entry IZORIB is in the monoclinic crystal system
# The framework has been calculated to contain at least 10.0% void space
# The void calculation uses a probe of radius 1.32A, grid spacing 0.4
#
###############################################################################

data_IZORIB
_chemical_formula_moiety         '(C148 H92 Cd8 N20 O32)n'
_symmetry_cell_setting           triclinic
_symmetry_space_group_name_H-M   'P 1'
_symmetry_Int_Tables_number      1
_space_group_name_Hall           'P 1'
loop_
_symmetry_equiv_pos_site_id
_symmetry_equiv_pos_as_xyz
1 x,y,z
_cell_length_a                   18.7384(8)
_cell_length_b                   20.6651(8)
_cell_length_c                   12.0896(4)
_cell_angle_alpha                90
_cell_angle_beta                 103.421(4)
_cell_angle_gamma                90
_cell_volume                     4553.62
loop_
_atom_site_label
_atom_site_type_symbol
_atom_site_fract_x
_atom_site_fract_y
_atom_site_fract_z
Cd1 Cd 0.28634(2) 0.40773(2) 0.12610(3)
Cd2 Cd 0.03939(2) 0.42447(2) 0.60448(3)
O2 O 0.19882(17) 0.48292(17) 0.0994(3)
O3 O 0.3551(2) 0.4824(2) 0.2405(3)
O4 O 0.3887(2) 0.3841(2) 0.3023(3)
O5 O 0.0302(2) 0.51219(16) 0.7011(3)
O6 O 0.06084(19) 0.55280(16) 0.5484(3)
O8 O 0.0450(2) 0.86308(17) 0.7890(3)
O9 O 0.1532(3) 0.41599(19) 0.7415(3)
H1 H 0.184371 0.440461 0.718639
H2 H 0.148801 0.430251 0.807359
N3 N 0.3052(2) 0.3021(2) 0.0847(3)
N4 N 0.2260(2) 0.33843(19) 0.2340(3)
N5 N 0.1118(2) 0.39931(19) 0.4744(3)
H3 H 0.332878 0.524653 0.022729
C9 C 0.3484(3) 0.2884(3) 0.0118(4)
C10 C 0.2777(3) 0.2545(3) 0.1370(4)
C11 C 0.2910(3) 0.1900(3) 0.1168(4)
H8 H 0.271164 0.157115 0.152942
C12 C 0.3345(3) 0.1756(3) 0.0412(5)
H9 H 0.344571 0.132760 0.027074
C14 C 0.2327(2) 0.2754(2) 0.2178(4)
C15 C 0.1884(2) 0.3584(2) 0.3125(4)
C16 C 0.1808(3) 0.4245(2) 0.3346(4)
H11 H 0.201079 0.455637 0.295506
C17 C 0.1434(3) 0.4424(2) 0.4140(4)
H12 H 0.139148 0.486331 0.427844
C18 C 0.1188(3) 0.3373(2) 0.4542(4)
H13 H 0.098084 0.307607 0.495340
C19 C 0.1558(2) 0.3136(2) 0.3738(4)
C20 C 0.1622(3) 0.2471(2) 0.3534(4)
H14 H 0.140762 0.216540 0.392079
C21 C 0.2007(3) 0.2282(3) 0.2757(4)
H15 H 0.205828 0.184488 0.260995
C22 C 0.1486(2) 0.4541(2) 0.0276(4)
C23 C 0.0718(2) 0.4780(2) 0.0121(4)
C25 C 0.0561(2) 0.5291(2) 0.0786(4)
H17 H 0.093913 0.548665 0.131668
C26 C 0.3935(3) 0.4448(3) 0.3115(4)
C27 C 0.4488(2) 0.4737(3) 0.4097(4)
C28 C 0.4604(3) 0.5392(3) 0.4156(4)
H18 H 0.433881 0.565837 0.358697
C29 C 0.5112(3) 0.5659(3) 0.5057(4)
H19 H 0.518487 0.610438 0.509464
C30 C 0.0463(3) 0.5590(2) 0.6454(4)
C31 C 0.0465(3) 0.6245(2) 0.6969(4)
C32 C 0.0689(3) 0.6793(2) 0.6445(4)
H20 H 0.088302 0.674560 0.580812
C33 C 0.0621(3) 0.7399(2) 0.6880(4)
H21 H 0.077533 0.775977 0.653912
C34 C 0.0323(3) 0.7480(2) 0.7822(4)
C35 C 0.0121(3) 0.6936(2) 0.8357(4)
C36 C 0.0199(3) 0.6324(2) 0.7943(4)
H23 H 0.007361 0.596341 0.831616
C37 C 0.0172(3) 0.8145(2) 0.8209(4)
O12 O 0.6449(2) 0.5176(2) 0.7595(3)
O13 O 0.6113(2) 0.6159(2) 0.6977(3)
C42 C 0.6065(3) 0.5552(3) 0.6885(4)
C43 C 0.5512(2) 0.5263(3) 0.5903(4)
C44 C 0.5396(3) 0.4608(3) 0.5844(4)
H26 H 0.566119 0.434163 0.641303
C45 C 0.4888(3) 0.4341(3) 0.4943(4)
H27 H 0.481513 0.389562 0.490536
Cd5 Cd 0.71366(2) 0.59227(2) 0.87390(3)
O23 O 0.0269(2) 0.31780(18) 0.6146(3)
O1 O 0.16221(18) 0.40568(17) 0.9729(3)
N1 N 0.4391(3) 0.5676(3) 0.8590(5)
N2 N 0.3581(2) 0.4031(2) 0.9899(3)
C1 C 0.3771(3) 0.3454(3) 0.9606(4)
C2 C 0.3838(3) 0.4570(3) 0.9462(4)
C3 C 0.3645(3) 0.5190(3) 0.9746(5)
C4 C 0.3929(4) 0.5713(4) 0.9305(6)
H4 H 0.379696 0.612218 0.950742
C5 C 0.4572(4) 0.5099(4) 0.8329(6)
H5 H 0.489314 0.506575 0.784924
C6 C 0.4316(4) 0.4512(4) 0.8720(5)
C7 C 0.4511(4) 0.3889(4) 0.8413(6)
H6 H 0.481598 0.383793 0.791196
C8 C 0.4249(3) 0.3371(4) 0.8862(5)
H7 H 0.438043 0.295638 0.868334
C13 C 0.3627(3) 0.2243(3) 0.9876(5)
H10 H 0.390901 0.214870 0.935797
C24 C 0.0154(3) 0.4492(2) 0.9341(4)
H16 H 0.025366 0.415092 0.889794
O16 O 0.0269(2) 0.18220(18) 0.1146(3)
H45 H 0.006785 0.301430 0.100093
Cd9 Cd 0.03939(2) 0.07553(2) 0.10448(3)
O26 O 0.0450(2) 0.63692(17) 0.2890(3)
O7 O 0.9731(2) 0.81780(18) 0.8854(3)
H22 H 0.993215 0.698570 0.899907
O10 O 0.83779(18) 0.59432(17) 0.0271(3)
C40 C 0.9846(3) 0.5508(2) 0.0659(4)
H24 H 0.974634 0.584908 0.110206
N6 N 0.5609(3) 0.4324(3) 0.1410(5)
N7 N 0.6419(2) 0.5969(2) 0.0101(3)
C46 C 0.6229(3) 0.6546(3) 0.0394(4)
C47 C 0.6162(3) 0.5430(3) 0.0538(4)
C48 C 0.6355(3) 0.4810(3) 0.0254(5)
C49 C 0.6071(4) 0.4287(4) 0.0695(6)
H31 H 0.620304 0.387782 0.049258
C50 C 0.5428(4) 0.4901(4) 0.1671(6)
H32 H 0.510686 0.493425 0.215076
C51 C 0.5684(4) 0.5488(4) 0.1280(5)
C52 C 0.5489(4) 0.6111(4) 0.1587(6)
H33 H 0.518402 0.616207 0.208804
C53 C 0.5751(3) 0.6629(4) 0.1138(5)
H34 H 0.561957 0.704362 0.131666
C58 C 0.6373(3) 0.7757(3) 0.0124(5)
H37 H 0.609099 0.785130 0.064203
Cd7 Cd 0.96061(2) 0.92447(2) 0.89552(3)
Cd8 Cd 0.96061(2) 0.57553(2) 0.39552(3)
O22 O 0.93916(19) 0.44720(16) 0.4516(3)
O25 O 0.9550(2) 0.36308(17) 0.7110(3)
O11 O 0.80118(17) 0.51708(17) 0.9006(3)
C38 C 0.8514(2) 0.5459(2) 0.9724(4)
C39 C 0.9282(2) 0.5220(2) 0.9879(4)
C41 C 0.9439(2) 0.4709(2) 0.9214(4)
H25 H 0.906087 0.451335 0.868332
O14 O 0.9698(2) 0.48781(16) 0.2989(3)
O17 O 0.9550(2) 0.13692(17) 0.2110(3)
O18 O 0.8468(3) 0.58401(19) 0.2585(3)
H28 H 0.815629 0.559539 0.281361
H29 H 0.851199 0.569749 0.192641
N8 N 0.6948(2) 0.6979(2) 0.9153(3)
N9 N 0.7740(2) 0.66157(19) 0.7660(3)
N10 N 0.8882(2) 0.60069(19) 0.5256(3)
H30 H 0.667122 0.475347 0.977271
C54 C 0.6516(3) 0.7116(3) 0.9882(4)
C55 C 0.7223(3) 0.7455(3) 0.8630(4)
C56 C 0.7090(3) 0.8100(3) 0.8832(4)
H35 H 0.728836 0.842885 0.847058
C57 C 0.6655(3) 0.8244(3) 0.9588(5)
H36 H 0.655429 0.867240 0.972926
C59 C 0.7673(2) 0.7246(2) 0.7822(4)
C60 C 0.8116(2) 0.6416(2) 0.6875(4)
C61 C 0.8192(3) 0.5755(2) 0.6654(4)
H38 H 0.798921 0.544363 0.704494
C62 C 0.8566(3) 0.5576(2) 0.5860(4)
H39 H 0.860852 0.513669 0.572156
C63 C 0.8812(3) 0.6627(2) 0.5458(4)
H40 H 0.901916 0.692393 0.504660
C64 C 0.8442(2) 0.6864(2) 0.6262(4)
C65 C 0.8378(3) 0.7529(2) 0.6466(4)
H41 H 0.859238 0.783460 0.607921
C66 C 0.7993(3) 0.7718(3) 0.7243(4)
H42 H 0.794172 0.815512 0.739005
C67 C 0.9537(3) 0.4410(2) 0.3546(4)
C68 C 0.9535(3) 0.3755(2) 0.3031(4)
C69 C 0.9311(3) 0.3207(2) 0.3555(4)
H43 H 0.911698 0.325440 0.419188
C70 C 0.9379(3) 0.2601(2) 0.3120(4)
H44 H 0.922467 0.224023 0.346088
C71 C 0.9677(3) 0.2520(2) 0.2178(4)
C72 C 0.9879(3) 0.3064(2) 0.1643(4)
C73 C 0.9801(3) 0.3676(2) 0.2057(4)
H46 H 0.992639 0.403659 0.168384
C74 C 0.9828(3) 0.1855(2) 0.1791(4)
O24 O 0.9731(2) 0.68220(18) 0.3854(3)
O18_2 O 0.1532(3) 0.08401(19) 0.2415(3)
H28_2 H 0.184371 0.059539 0.218639
H29_2 H 0.148801 0.069749 0.307359
O10_2 O 0.16221(18) 0.09432(17) 0.4729(3)
O11_2 O 0.19882(17) 0.01708(17) 0.5994(3)
C38_2 C 0.1486(2) 0.0459(2) 0.5276(4)
C39_2 C 0.0718(2) 0.0220(2) 0.5121(4)
C40_2 C 0.0154(3) 0.0508(2) 0.4341(4)
H24_2 H 0.025366 0.084908 0.389794
Cd3 Cd 0.28634(2) 0.09227(2) 0.62610(3)
N7_2 N 0.3581(2) 0.0969(2) 0.4899(3)
N8_2 N 0.3052(2) 0.1979(2) 0.5847(3)
N9_2 N 0.2260(2) 0.16157(19) 0.7340(3)
N10_2 N 0.1118(2) 0.10069(19) 0.9744(3)
C46_2 C 0.3771(3) 0.1546(3) 0.4606(4)
C47_2 C 0.3838(3) 0.0430(3) 0.4462(4)
C51_2 C 0.4316(4) 0.0488(4) 0.3720(5)
C52_2 C 0.4511(4) 0.1111(4) 0.3413(6)
H33_2 H 0.481598 0.116207 0.291196
C53_2 C 0.4249(3) 0.1629(4) 0.3862(5)
H34_2 H 0.438043 0.204362 0.368334
C54_2 C 0.3484(3) 0.2116(3) 0.5118(4)
C55_2 C 0.2777(3) 0.2455(3) 0.6370(4)
C56_2 C 0.2910(3) 0.3100(3) 0.6168(4)
H35_2 H 0.271164 0.342885 0.652942
C57_2 C 0.3345(3) 0.3244(3) 0.5412(5)
H36_2 H 0.344571 0.367240 0.527074
C58_2 C 0.3627(3) 0.2757(3) 0.4876(5)
H37_2 H 0.390901 0.285130 0.435797
C59_2 C 0.2327(2) 0.2246(2) 0.7178(4)
C60_2 C 0.1884(2) 0.1416(2) 0.8125(4)
C61_2 C 0.1808(3) 0.0755(2) 0.8346(4)
H38_2 H 0.201079 0.044363 0.795506
C62_2 C 0.1434(3) 0.0576(2) 0.9140(4)
H39_2 H 0.139148 0.013669 0.927844
C63_2 C 0.1188(3) 0.1627(2) 0.9542(4)
H40_2 H 0.098084 0.192393 0.995340
C64_2 C 0.1558(2) 0.1864(2) 0.8738(4)
C65_2 C 0.1622(3) 0.2529(2) 0.8534(4)
H41_2 H 0.140762 0.283460 0.892079
C66_2 C 0.2007(3) 0.2718(3) 0.7757(4)
H42_2 H 0.205828 0.315512 0.760995
O19 O 0.3551(2) 0.0176(2) 0.7405(3)
O20 O 0.3887(2) 0.1159(2) 0.8023(3)
H22_2 H 0.006785 0.198570 0.600093
O14_2 O 0.0302(2) 0.98781(16) 0.2011(3)
O15 O 0.06084(19) 0.94720(16) 0.0484(3)
C67_2 C 0.0463(3) 0.9410(2) 0.1454(4)
C68_2 C 0.0465(3) 0.8755(2) 0.1969(4)
C69_2 C 0.0689(3) 0.8207(2) 0.1445(4)
H43_2 H 0.088302 0.825440 0.080812
C70_2 C 0.0621(3) 0.7601(2) 0.1880(4)
H44_2 H 0.077533 0.724023 0.153912
C71_2 C 0.0323(3) 0.7520(2) 0.2822(4)
C72_2 C 0.0121(3) 0.8064(2) 0.3357(4)
C73_2 C 0.0199(3) 0.8676(2) 0.2943(4)
H46_2 H 0.007361 0.903659 0.331616
C74_2 C 0.0172(3) 0.6855(2) 0.3209(4)
C41_2 C 0.0561(2) 0.9709(2) 0.5786(4)
H25_2 H 0.093913 0.951335 0.631668
N6_2 N 0.4391(3) 0.9324(3) 0.3590(5)
C48_2 C 0.3645(3) 0.9810(3) 0.4746(5)
H30_2 H 0.332878 0.975347 0.522729
C49_2 C 0.3929(4) 0.9287(4) 0.4305(6)
H31_2 H 0.379696 0.887782 0.450742
C50_2 C 0.4572(4) 0.9901(4) 0.3329(6)
H32_2 H 0.489314 0.993425 0.284924
N1_2 N 0.5609(3) 0.0676(3) 0.6410(5)
C3_2 C 0.6355(3) 0.0190(3) 0.5254(5)
H3_2 H 0.667122 0.024653 0.477271
C4_2 C 0.6071(4) 0.0713(4) 0.5695(6)
H4_2 H 0.620304 0.112218 0.549258
C5_2 C 0.5428(4) 0.0099(4) 0.6671(6)
H5_2 H 0.510686 0.006575 0.715076
C25_2 C 0.9439(2) 0.0291(2) 0.4214(4)
H17_2 H 0.906087 0.048665 0.368332
C28_2 C 0.5396(3) 0.0392(3) 0.0844(4)
H18_2 H 0.566119 0.065837 0.141303
O21 O 0.93916(19) 0.05280(16) 0.9516(3)
O5_2 O 0.9698(2) 0.01219(16) 0.7989(3)
C29_2 C 0.4888(3) 0.0659(3) 0.9943(4)
H19_2 H 0.481513 0.110438 0.990536
C30_2 C 0.9537(3) 0.0590(2) 0.8546(4)
C31_2 C 0.9535(3) 0.1245(2) 0.8031(4)
C32_2 C 0.9311(3) 0.1793(2) 0.8555(4)
H20_2 H 0.911698 0.174560 0.919188
C33_2 C 0.9379(3) 0.2399(2) 0.8120(4)
H21_2 H 0.922467 0.275977 0.846088
C34_2 C 0.9677(3) 0.2480(2) 0.7178(4)
C35_2 C 0.9879(3) 0.1936(2) 0.6643(4)
C36_2 C 0.9801(3) 0.1324(2) 0.7057(4)
H23_2 H 0.992639 0.096341 0.668384
C37_2 C 0.9828(3) 0.3145(2) 0.6791(4)
C42_2 C 0.3935(3) 0.0552(3) 0.8115(4)
C43_2 C 0.4488(2) 0.0263(3) 0.9097(4)
H45_2 H 0.993215 0.801430 0.399907
Cd1_2 Cd 0.71366(2) 0.90773(2) 0.37390(3)
O1_2 O 0.83779(18) 0.90568(17) 0.5271(3)
O2_2 O 0.80118(17) 0.98292(17) 0.4006(3)
O3_2 O 0.6449(2) 0.9824(2) 0.2595(3)
O4_2 O 0.6113(2) 0.8841(2) 0.1977(3)
N2_2 N 0.6419(2) 0.9031(2) 0.5101(3)
N3_2 N 0.6948(2) 0.8021(2) 0.4153(3)
N4_2 N 0.7740(2) 0.83843(19) 0.2660(3)
N5_2 N 0.8882(2) 0.89931(19) 0.0256(3)
C1_2 C 0.6229(3) 0.8454(3) 0.5394(4)
C2_2 C 0.6162(3) 0.9570(3) 0.5538(4)
C6_2 C 0.5684(4) 0.9512(4) 0.6280(5)
C7_2 C 0.5489(4) 0.8889(4) 0.6587(6)
H6_2 H 0.518402 0.883793 0.708804
C8_2 C 0.5751(3) 0.8371(4) 0.6138(5)
H7_2 H 0.561957 0.795638 0.631666
C9_2 C 0.6516(3) 0.7884(3) 0.4882(4)
C10_2 C 0.7223(3) 0.7545(3) 0.3630(4)
C11_2 C 0.7090(3) 0.6900(3) 0.3832(4)
H8_2 H 0.728836 0.657115 0.347058
C12_2 C 0.6655(3) 0.6756(3) 0.4588(5)
H9_2 H 0.655429 0.632760 0.472926
C13_2 C 0.6373(3) 0.7243(3) 0.5124(5)
H10_2 H 0.609099 0.714870 0.564203
C14_2 C 0.7673(2) 0.7754(2) 0.2822(4)
C15_2 C 0.8116(2) 0.8584(2) 0.1875(4)
C16_2 C 0.8192(3) 0.9245(2) 0.1654(4)
H11_2 H 0.798921 0.955637 0.204494
C17_2 C 0.8566(3) 0.9424(2) 0.0860(4)
H12_2 H 0.860852 0.986331 0.072156
C18_2 C 0.8812(3) 0.8373(2) 0.0458(4)
H13_2 H 0.901916 0.807607 0.004660
C19_2 C 0.8442(2) 0.8136(2) 0.1262(4)
C20_2 C 0.8378(3) 0.7471(2) 0.1466(4)
H14_2 H 0.859238 0.716540 0.107921
C21_2 C 0.7993(3) 0.7282(3) 0.2243(4)
H15_2 H 0.794172 0.684488 0.239005
C22_2 C 0.8514(2) 0.9541(2) 0.4724(4)
C23_2 C 0.9282(2) 0.9780(2) 0.4879(4)
C24_2 C 0.9846(3) 0.9492(2) 0.5659(4)
H16_2 H 0.974634 0.915092 0.610206
C26_2 C 0.6065(3) 0.9448(3) 0.1885(4)
C27_2 C 0.5512(2) 0.9737(3) 0.0903(4)
C45_2 C 0.5112(3) 0.9341(3) 0.0057(4)
H27_2 H 0.518487 0.889562 0.009464
O9_2 O 0.8468(3) 0.91599(19) 0.7585(3)
H1_2 H 0.815629 0.940461 0.781361
H2_2 H 0.851199 0.930251 0.692641
C44_2 C 0.4604(3) 0.9608(3) 0.9156(4)
H26_2 H 0.433881 0.934163 0.858697
loop_
_geom_bond_atom_site_label_1
_geom_bond_atom_site_label_2
_geom_bond_site_symmetry_1
_geom_bond_site_symmetry_2
Cd2 O5 1_555 1_555
O2 Cd1 1_555 1_555
O3 Cd1 1_555 1_555
O4 Cd1 1_555 1_555
O5 C30 1_555 1_555
O6 Cd2 1_555 1_555
O8 C37 1_555 1_555
O9 Cd2 1_555 1_555
H1 O9 1_555 1_555
H2 O9 1_555 1_555
N3 Cd1 1_555 1_555
N4 Cd1 1_555 1_555
N5 Cd2 1_555 1_555
C9 N3 1_555 1_555
C10 N3 1_555 1_555
C11 C10 1_555 1_555
H8 C11 1_555 1_555
C12 C11 1_555 1_555
H9 C12 1_555 1_555
C14 N4 1_555 1_555
C15 N4 1_555 1_555
C16 C15 1_555 1_555
H11 C16 1_555 1_555
C17 N5 1_555 1_555
H12 C17 1_555 1_555
C18 N5 1_555 1_555
H13 C18 1_555 1_555
C19 C15 1_555 1_555
C20 C19 1_555 1_555
H14 C20 1_555 1_555
C21 C14 1_555 1_555
H15 C21 1_555 1_555
C22 O2 1_555 1_555
C23 C22 1_555 1_555
C25 C23 1_555 1_555
H17 C25 1_555 1_555
C26 O3 1_555 1_555
C27 C26 1_555 1_555
C28 C27 1_555 1_555
H18 C28 1_555 1_555
C29 C28 1_555 1_555
H19 C29 1_555 1_555
C30 O6 1_555 1_555
C31 C30 1_555 1_555
C32 C31 1_555 1_555
H20 C32 1_555 1_555
C33 C32 1_555 1_555
H21 C33 1_555 1_555
C34 C33 1_555 1_555
C35 C34 1_555 1_555
C36 C31 1_555 1_555
H23 C36 1_555 1_555
C37 C34 1_555 1_555
O12 C42 1_555 1_555
O13 C42 1_555 1_555
C42 C43 1_555 1_555
C43 C29 1_555 1_555
C44 C43 1_555 1_555
H26 C44 1_555 1_555
C45 C27 1_555 1_555
H27 C45 1_555 1_555
Cd5 O12 1_555 1_555
O23 Cd2 1_555 1_555
O4 C26 1_555 1_555
C10 C14 1_555 1_555
C16 C17 1_555 1_555
C18 C19 1_555 1_555
C20 C21 1_555 1_555
C35 C36 1_555 1_555
O13 Cd5 1_555 1_555
C44 C45 1_555 1_555
N1 C4 1_555 1_555
C1 N2 1_555 1_555
C2 N2 1_555 1_555
C3 C2 1_555 1_555
C4 C3 1_555 1_555
H4 C4 1_555 1_555
C5 N1 1_555 1_555
H5 C5 1_555 1_555
C6 C2 1_555 1_555
C7 C6 1_555 1_555
H6 C7 1_555 1_555
C8 C1 1_555 1_555
H7 C8 1_555 1_555
H10 C13 1_555 1_555
H16 C24 1_555 1_555
Cd9 O16 1_555 1_555
C5 C6 1_555 1_555
C7 C8 1_555 1_555
H24 C40 1_555 1_555
N6 C49 1_555 1_555
C46 N7 1_555 1_555
C47 N7 1_555 1_555
C48 C47 1_555 1_555
C49 C48 1_555 1_555
H31 C49 1_555 1_555
C50 N6 1_555 1_555
H32 C50 1_555 1_555
C51 C47 1_555 1_555
C52 C51 1_555 1_555
H33 C52 1_555 1_555
C53 C46 1_555 1_555
H34 C53 1_555 1_555
H37 C58 1_555 1_555
Cd7 O7 1_555 1_555
C50 C51 1_555 1_555
C52 C53 1_555 1_555
Cd8 O22 1_555 1_555
O11 C38 1_555 1_555
C38 C39 1_555 1_555
H25 C41 1_555 1_555
Cd8 O14 1_555 1_555
O14 C67 1_555 1_555
O17 C74 1_555 1_555
O18 Cd8 1_555 1_555
H28 O18 1_555 1_555
H29 O18 1_555 1_555
N8 Cd5 1_555 1_555
N9 Cd5 1_555 1_555
N10 Cd8 1_555 1_555
C54 N8 1_555 1_555
C55 N8 1_555 1_555
C56 C55 1_555 1_555
H35 C56 1_555 1_555
C57 C56 1_555 1_555
H36 C57 1_555 1_555
C59 N9 1_555 1_555
C60 N9 1_555 1_555
C61 C60 1_555 1_555
H38 C61 1_555 1_555
C62 N10 1_555 1_555
H39 C62 1_555 1_555
C63 N10 1_555 1_555
H40 C63 1_555 1_555
C64 C60 1_555 1_555
C65 C64 1_555 1_555
H41 C65 1_555 1_555
C66 C59 1_555 1_555
H42 C66 1_555 1_555
C67 O22 1_555 1_555
C68 C67 1_555 1_555
C69 C68 1_555 1_555
H43 C69 1_555 1_555
C70 C69 1_555 1_555
H44 C70 1_555 1_555
C71 C70 1_555 1_555
C72 C71 1_555 1_555
C73 C68 1_555 1_555
H46 C73 1_555 1_555
C74 C71 1_555 1_555
O24 Cd8 1_555 1_555
O11 Cd5 1_555 1_555
C39 C41 1_555 1_555
C55 C59 1_555 1_555
C61 C62 1_555 1_555
C63 C64 1_555 1_555
C65 C66 1_555 1_555
C72 C73 1_555 1_555
O18_2 Cd9 1_555 1_555
H28_2 O18_2 1_555 1_555
H29_2 O18_2 1_555 1_555
O10_2 C38_2 1_555 1_555
O11_2 C38_2 1_555 1_555
C38_2 C39_2 1_555 1_555
C39_2 C40_2 1_555 1_555
H24_2 C40_2 1_555 1_555
Cd3 O10_2 1_555 1_555
N7_2 Cd3 1_555 1_555
N8_2 Cd3 1_555 1_555
N9_2 Cd3 1_555 1_555
C46_2 N7_2 1_555 1_555
C47_2 N7_2 1_555 1_555
C51_2 C47_2 1_555 1_555
C52_2 C51_2 1_555 1_555
H33_2 C52_2 1_555 1_555
C53_2 C46_2 1_555 1_555
H34_2 C53_2 1_555 1_555
C54_2 N8_2 1_555 1_555
C55_2 N8_2 1_555 1_555
C56_2 C55_2 1_555 1_555
H35_2 C56_2 1_555 1_555
C57_2 C56_2 1_555 1_555
H36_2 C57_2 1_555 1_555
C58_2 C54_2 1_555 1_555
H37_2 C58_2 1_555 1_555
C59_2 N9_2 1_555 1_555
C60_2 N9_2 1_555 1_555
C61_2 C60_2 1_555 1_555
H38_2 C61_2 1_555 1_555
C62_2 N10_2 1_555 1_555
H39_2 C62_2 1_555 1_555
C63_2 N10_2 1_555 1_555
H40_2 C63_2 1_555 1_555
C64_2 C60_2 1_555 1_555
C65_2 C64_2 1_555 1_555
H41_2 C65_2 1_555 1_555
C66_2 C59_2 1_555 1_555
H42_2 C66_2 1_555 1_555
O19 Cd3 1_555 1_555
O20 Cd3 1_555 1_555
O11_2 Cd3 1_555 1_555
C46_2 C54_2 1_555 1_555
C52_2 C53_2 1_555 1_555
C55_2 C59_2 1_555 1_555
C57_2 C58_2 1_555 1_555
C61_2 C62_2 1_555 1_555
C63_2 C64_2 1_555 1_555
C65_2 C66_2 1_555 1_555
O14_2 C67_2 1_555 1_555
O26 C74_2 1_555 1_555
C67_2 O15 1_555 1_555
C68_2 C67_2 1_555 1_555
C69_2 C68_2 1_555 1_555
H43_2 C69_2 1_555 1_555
C70_2 C69_2 1_555 1_555
H44_2 C70_2 1_555 1_555
C71_2 C70_2 1_555 1_555
C72_2 C71_2 1_555 1_555
C73_2 C68_2 1_555 1_555
H46_2 C73_2 1_555 1_555
C74_2 C71_2 1_555 1_555
C72_2 C73_2 1_555 1_555
H25_2 C41_2 1_555 1_555
N6_2 C49_2 1_555 1_555
H30_2 C48_2 1_555 1_555
C49_2 C48_2 1_555 1_555
H31_2 C49_2 1_555 1_555
C50_2 N6_2 1_555 1_555
H32_2 C50_2 1_555 1_555
N1_2 C4_2 1_555 1_555
H3_2 C3_2 1_555 1_555
C4_2 C3_2 1_555 1_555
H4_2 C4_2 1_555 1_555
C5_2 N1_2 1_555 1_555
H5_2 C5_2 1_555 1_555
H17_2 C25_2 1_555 1_555
H18_2 C28_2 1_555 1_555
O5_2 C30_2 1_555 1_555
O25 C37_2 1_555 1_555
H19_2 C29_2 1_555 1_555
C30_2 O21 1_555 1_555
C31_2 C30_2 1_555 1_555
C32_2 C31_2 1_555 1_555
H20_2 C32_2 1_555 1_555
C33_2 C32_2 1_555 1_555
H21_2 C33_2 1_555 1_555
C34_2 C33_2 1_555 1_555
C35_2 C34_2 1_555 1_555
C36_2 C31_2 1_555 1_555
H23_2 C36_2 1_555 1_555
C37_2 C34_2 1_555 1_555
O19 C42_2 1_555 1_555
O20 C42_2 1_555 1_555
C42_2 C43_2 1_555 1_555
C43_2 C29_2 1_555 1_555
C35_2 C36_2 1_555 1_555
Cd1_2 O1_2 1_555 1_555
O1_2 C22_2 1_555 1_555
O2_2 Cd1_2 1_555 1_555
O3_2 Cd1_2 1_555 1_555
O4_2 Cd1_2 1_555 1_555
N2_2 Cd1_2 1_555 1_555
N3_2 Cd1_2 1_555 1_555
N4_2 Cd1_2 1_555 1_555
C1_2 N2_2 1_555 1_555
C2_2 N2_2 1_555 1_555
C6_2 C2_2 1_555 1_555
C7_2 C6_2 1_555 1_555
H6_2 C7_2 1_555 1_555
C8_2 C1_2 1_555 1_555
H7_2 C8_2 1_555 1_555
C9_2 N3_2 1_555 1_555
C10_2 N3_2 1_555 1_555
C11_2 C10_2 1_555 1_555
H8_2 C11_2 1_555 1_555
C12_2 C11_2 1_555 1_555
H9_2 C12_2 1_555 1_555
C13_2 C9_2 1_555 1_555
H10_2 C13_2 1_555 1_555
C14_2 N4_2 1_555 1_555
C15_2 N4_2 1_555 1_555
C16_2 C15_2 1_555 1_555
H11_2 C16_2 1_555 1_555
C17_2 N5_2 1_555 1_555
H12_2 C17_2 1_555 1_555
C18_2 N5_2 1_555 1_555
H13_2 C18_2 1_555 1_555
C19_2 C15_2 1_555 1_555
C20_2 C19_2 1_555 1_555
H14_2 C20_2 1_555 1_555
C21_2 C14_2 1_555 1_555
H15_2 C21_2 1_555 1_555
C22_2 O2_2 1_555 1_555
C23_2 C22_2 1_555 1_555
C24_2 C23_2 1_555 1_555
H16_2 C24_2 1_555 1_555
C26_2 O3_2 1_555 1_555
C27_2 C26_2 1_555 1_555
C45_2 C27_2 1_555 1_555
H27_2 C45_2 1_555 1_555
O4_2 C26_2 1_555 1_555
C1_2 C9_2 1_555 1_555
C7_2 C8_2 1_555 1_555
C10_2 C14_2 1_555 1_555
C12_2 C13_2 1_555 1_555
C16_2 C17_2 1_555 1_555
C18_2 C19_2 1_555 1_555
C20_2 C21_2 1_555 1_555
O9_2 Cd7 1_555 1_555
H1_2 O9_2 1_555 1_555
H2_2 O9_2 1_555 1_555
H26_2 C44_2 1_555 1_555

#END
