
###############################################################################
#
# This file contains modified crystal structure data generated from the
# MOF subset of the Cambridge Structural Database (CSD) v543 
# hosted by the Cambridge Crystallographic Data Centre (CCDC).
#
# This work is licensed under the Creative Commons
# Attribution-NonCommercial-ShareAlike 4.0 International License.
# To view a copy of this license, visit
# http://creativecommons.org/licenses/by-nc-sa/4.0/
# or send a letter to
# Creative Commons, PO Box 1866, Mountain View, CA 94042, USA.
#
# CIF created using the CSD Python API on 29 September 2022
# The structure has been converted into the P1 space group
# The structure has a 3D framework
# The original CSD entry IZUJEV is in the orthorhombic crystal system
# The original CSD entry IZUJEV is in a Sohncke space group
# The framework has been calculated to contain at least 10.0% void space
# The void calculation uses a probe of radius 1.32A, grid spacing 0.4
# H atom positions have been added when not included in the experimental data
#
###############################################################################

data_IZUJEV
_chemical_formula_moiety         '(C52 H52 Cu4 N20 O20 S4)n'
_symmetry_cell_setting           triclinic
_symmetry_space_group_name_H-M   'P 1'
_symmetry_Int_Tables_number      1
_space_group_name_Hall           'P 1'
loop_
_symmetry_equiv_pos_site_id
_symmetry_equiv_pos_as_xyz
1 x,y,z
_cell_length_a                   5.6204(3)
_cell_length_b                   10.4506(6)
_cell_length_c                   28.7654(16)
_cell_angle_alpha                90
_cell_angle_beta                 90
_cell_angle_gamma                90
_cell_volume                     1689.58
loop_
_atom_site_label
_atom_site_type_symbol
_atom_site_fract_x
_atom_site_fract_y
_atom_site_fract_z
Cu4 Cu 0.25472(17) 0.00674(8) 0.23786(3)
H1 H 0.0191 0.5276 0.1764
H10 H 0.0019 0.5308 0.0382
O6 O 0.0671(9) 0.4310(5) 0.26330(19)
C1 C 0.8809(14) 0.4904(9) 0.1648(3)
C2 C 0.8583(16) 0.4750(9) 0.1172(3)
H2 H 0.9798 0.5008 0.0974
C3 C 0.6528(15) 0.4208(7) 0.0995(3)
C4 C 0.4844(16) 0.3771(9) 0.1309(3)
H3 H 0.3494 0.3344 0.1205
C5 C 0.5187(17) 0.3975(9) 0.1775(3)
H4 H 0.4010 0.3704 0.1979
C6 C 0.5992(15) 0.4034(9) 0.0496(3)
C13 C 0.7249(12) 0.4421(6) 0.0122(2)
Cu1 Cu 0.74528(17) 0.50674(8) 0.26214(3)
N2 N 0.7111(12) 0.4539(6) 0.1950(2)
N3 N 0.4088(17) 0.3433(9) 0.0361(3)
N5 N 0.9356(18) 0.5105(11) 0.0123(4)
O1 O 0.9314(10) 0.7003(5) 0.2419(2)
O2 O 0.9329(9) 0.9310(5) 0.23670(19)
O3 O 0.5791(9) 0.8153(6) 0.2178(2)
O4 O 0.4364(10) 0.5999(5) 0.2614(2)
O5 O 0.9183(13) 0.8036(7) 0.1668(2)
S1 S 0.8415(3) 0.80877(19) 0.21478(7)
H11 H 0.4598 0.6540 0.2398
H12 H 0.3034 0.5618 0.2597
N6 N 0.7728(13) 0.5488(6) 0.32950(19)
O7 O 0.4209(9) 0.3153(6) 0.2822(2)
H13 H 0.283557 0.303355 0.0569718
C7 C 0.6026(15) 0.4041(8) 0.9747(3)
C8 C 0.6575(15) 0.4199(8) 0.9252(3)
C9 C 0.4892(15) 0.3773(8) 0.8926(3)
H5 H 0.3496 0.3384 0.9027
C10 C 0.5304(15) 0.3932(8) 0.8461(3)
H6 H 0.4183 0.3627 0.8250
C11 C 0.8896(15) 0.4886(9) 0.8606(3)
C12 C 0.8634(16) 0.4759(9) 0.9078(3)
H8 H 0.9817 0.5044 0.9279
N1 N 0.7272(13) 0.4512(6) 0.82950(19)
N4 N 0.4086(17) 0.3439(9) 0.9882(3)
Cu2 Cu 0.75472(17) 0.49326(8) 0.76214(3)
C4_2 C 0.0156(16) 0.6229(9) 0.6309(3)
H3_2 H 0.1506 0.6656 0.6205
H4_2 H 0.0990 0.6296 0.6979
C9_2 C 0.0108(15) 0.6227(8) 0.3926(3)
H5_2 H 0.1504 0.6616 0.4027
H6_2 H 0.0817 0.6373 0.3250
N3_2 N 0.0912(17) 0.6567(9) 0.5361(3)
N4_2 N 0.0914(17) 0.6561(9) 0.4882(3)
O4_2 O 0.0636(10) 0.4001(5) 0.7614(2)
H11_2 H 0.0402 0.3460 0.7398
H12_2 H 0.1966 0.4382 0.7597
O7_2 O 0.0791(9) 0.6847(6) 0.7822(2)
H13_2 H 0.216443 0.696645 0.556972
Cu3 Cu 0.24528(17) 0.99326(8) 0.73786(3)
C1_2 C 0.6191(14) 0.5096(9) 0.6648(3)
H1_2 H 0.4809 0.4724 0.6764
C2_2 C 0.6417(16) 0.5250(9) 0.6172(3)
H2_2 H 0.5202 0.4992 0.5974
C3_2 C 0.8472(15) 0.5792(7) 0.5995(3)
C5_2 C 0.9813(17) 0.6025(9) 0.6775(3)
C6_2 C 0.9008(15) 0.5966(9) 0.5496(3)
C7_2 C 0.8974(15) 0.5959(8) 0.4747(3)
C8_2 C 0.8425(15) 0.5801(8) 0.4252(3)
C10_2 C 0.9696(15) 0.6068(8) 0.3461(3)
C11_2 C 0.6104(15) 0.5114(9) 0.3606(3)
H7 H 0.4709 0.4744 0.3496
C12_2 C 0.6366(16) 0.5241(9) 0.4078(3)
H8_2 H 0.5183 0.4956 0.4279
C13_2 C 0.7751(12) 0.5579(6) 0.5122(2)
N2_2 N 0.7889(12) 0.5461(6) 0.6950(2)
N5_2 N 0.5644(18) 0.4895(11) 0.5123(4)
H9 H 0.4997 0.4673 0.4864
H10_2 H 0.4981 0.4692 0.5382
O1_2 O 0.5686(10) 0.2997(5) 0.7419(2)
O2_2 O 0.5671(9) 0.0690(5) 0.73670(19)
O3_2 O 0.9209(9) 0.1847(6) 0.7178(2)
O5_2 O 0.5817(13) 0.1964(7) 0.6668(2)
S1_2 S 0.6585(3) 0.19123(19) 0.71478(7)
O6_2 O 0.4329(9) 0.5690(5) 0.76330(19)
H2_3 H 0.0202 0.0008 0.4026
H8_3 H 0.0183 0.0044 0.5721
N5_3 N 0.0644(18) 0.0105(11) 0.4877(4)
O1_3 O 0.0686(10) 0.2003(5) 0.2581(2)
O4_3 O 0.5636(10) 0.0999(5) 0.2386(2)
O5_3 O 0.0817(13) 0.3036(7) 0.3332(2)
S1_3 S 0.1585(3) 0.30877(19) 0.28522(7)
H11_3 H 0.5402 0.1540 0.2602
H12_3 H 0.6966 0.0618 0.2403
N6_2 N 0.2272(13) 0.0488(6) 0.17050(19)
C1_3 C 0.1191(14) 0.9904(9) 0.3352(3)
C2_3 C 0.1417(16) 0.9750(9) 0.3828(3)
C3_3 C 0.3472(15) 0.9208(7) 0.4005(3)
C4_3 C 0.5156(16) 0.8771(9) 0.3691(3)
H3_3 H 0.6506 0.8344 0.3795
C5_3 C 0.4813(17) 0.8975(9) 0.3225(3)
H4_3 H 0.5990 0.8704 0.3021
C6_3 C 0.4008(15) 0.9034(9) 0.4504(3)
C7_3 C 0.3974(15) 0.9041(8) 0.5253(3)
C8_3 C 0.3425(15) 0.9199(8) 0.5748(3)
C9_3 C 0.5108(15) 0.8773(8) 0.6074(3)
H5_3 H 0.6504 0.8384 0.5973
C10_3 C 0.4696(15) 0.8932(8) 0.6539(3)
H6_3 H 0.5817 0.8627 0.6750
C11_3 C 0.1104(15) 0.9886(9) 0.6394(3)
C12_3 C 0.1366(16) 0.9759(9) 0.5922(3)
C13_3 C 0.2751(12) 0.9421(6) 0.4878(2)
N1_2 N 0.2728(13) 0.9512(6) 0.67050(19)
N2_3 N 0.2889(12) 0.9539(6) 0.3050(2)
N3_3 N 0.5912(17) 0.8433(9) 0.4639(3)
N4_3 N 0.5914(17) 0.8439(9) 0.5118(3)
H13_3 H 0.716443 0.803355 0.443028
H1_3 H 0.9809 0.0276 0.3236
H7_2 H 0.9709 0.0256 0.6504
H9_2 H 0.9997 0.0327 0.5136
H10_3 H 0.9981 0.0308 0.4618
C7_4 C 0.1026(15) 0.0959(8) 0.0253(3)
C8_4 C 0.1575(15) 0.0801(8) 0.0748(3)
C10_4 C 0.0304(15) 0.1068(8) 0.1539(3)
C11_4 C 0.3896(15) 0.0114(9) 0.1394(3)
C12_4 C 0.3634(16) 0.0241(9) 0.0922(3)
C1_4 C 0.3809(14) 0.0096(9) 0.8352(3)
C2_4 C 0.3583(16) 0.0250(9) 0.8828(3)
C3_4 C 0.1528(15) 0.0792(7) 0.9005(3)
C5_4 C 0.0187(17) 0.1025(9) 0.8225(3)
C6_4 C 0.0992(15) 0.0966(9) 0.9504(3)
C13_4 C 0.2249(12) 0.0579(6) 0.9878(2)
N2_4 N 0.2111(12) 0.0461(6) 0.8050(2)
H1_4 H 0.5191 0.9724 0.8236
H2_4 H 0.4798 0.9992 0.9026
N5_4 N 0.4356(18) 0.9895(11) 0.9877(4)
H10_4 H 0.5019 0.9692 0.9618
O1_4 O 0.4314(10) 0.7997(5) 0.7581(2)
O5_4 O 0.4183(13) 0.6964(7) 0.8332(2)
S1_4 S 0.3415(3) 0.69123(19) 0.78522(7)
C4_4 C 0.9844(16) 0.1229(9) 0.8691(3)
H3_4 H 0.8494 0.1656 0.8795
H4_4 H 0.9010 0.1296 0.8021
N3_4 N 0.9088(17) 0.1567(9) 0.9639(3)
H13_4 H 0.783557 0.196645 0.943028
O4_4 O 0.9364(10) 0.9001(5) 0.7386(2)
H11_4 H 0.9598 0.8460 0.7602
H12_4 H 0.8034 0.9382 0.7403
H7_3 H 0.0291 0.5256 0.8496
H9_3 H 0.0003 0.5327 0.9864
H7_4 H 0.5291 0.9744 0.1504
H8_4 H 0.4817 0.9956 0.0721
H9_4 H 0.5003 0.9673 0.0136
C9_4 C 0.9892(15) 0.1227(8) 0.1074(3)
H5_4 H 0.8496 0.1616 0.0973
H6_4 H 0.9183 0.1373 0.1750
N4_4 N 0.9086(17) 0.1561(9) 0.0118(3)
loop_
_geom_bond_atom_site_label_1
_geom_bond_atom_site_label_2
_geom_bond_site_symmetry_1
_geom_bond_site_symmetry_2
C2 C1 1_555 1_555
H2 C2 1_555 1_555
C3 C2 1_555 1_555
C4 C3 1_555 1_555
H3 C4 1_555 1_555
C5 C4 1_555 1_555
H4 C5 1_555 1_555
C6 C3 1_555 1_555
C13 C6 1_555 1_555
Cu1 N2 1_555 1_555
N2 C1 1_555 1_555
N3 C6 1_555 1_555
N5 C13 1_555 1_555
O1 Cu1 1_555 1_555
O2 S1 1_555 1_555
O3 S1 1_555 1_555
O4 Cu1 1_555 1_555
O5 S1 1_555 1_555
S1 O1 1_555 1_555
H11 O4 1_555 1_555
H12 O4 1_555 1_555
N6 Cu1 1_555 1_555
O7 Cu1 1_555 1_555
C5 N2 1_555 1_555
N3 H13 1_555 1_555
C7 C8 1_555 1_555
C8 C9 1_555 1_555
C9 H5 1_555 1_555
C10 C9 1_555 1_555
H6 C10 1_555 1_555
C12 C8 1_555 1_555
H8 C12 1_555 1_555
N1 C10 1_555 1_555
N4 C7 1_555 1_555
Cu2 N1 1_555 1_555
C11 C12 1_555 1_555
C11 N1 1_555 1_555
H3_2 C4_2 1_555 1_555
C9_2 H5_2 1_555 1_555
H11_2 O4_2 1_555 1_555
H12_2 O4_2 1_555 1_555
N3_2 N4_2 1_555 1_555
N3_2 H13_2 1_555 1_555
C1_2 H1_2 1_555 1_555
C2_2 C1_2 1_555 1_555
H2_2 C2_2 1_555 1_555
C3_2 C2_2 1_555 1_555
C6_2 C3_2 1_555 1_555
C7_2 C8_2 1_555 1_555
C11_2 H7 1_555 1_555
C12_2 C8_2 1_555 1_555
H8_2 C12_2 1_555 1_555
C13_2 C6_2 1_555 1_555
Cu2 N2_2 1_555 1_555
N6 C10_2 1_555 1_555
N2_2 C1_2 1_555 1_555
N5_2 C13_2 1_555 1_555
H9 N5_2 1_555 1_555
H10_2 N5_2 1_555 1_555
O1_2 Cu2 1_555 1_555
O2_2 S1_2 1_555 1_555
O3_2 S1_2 1_555 1_555
O5_2 S1_2 1_555 1_555
S1_2 O1_2 1_555 1_555
O6_2 Cu2 1_555 1_555
C5_2 N2_2 1_555 1_555
C7_2 C13_2 1_555 1_555
C11_2 C12_2 1_555 1_555
C11_2 N6 1_555 1_555
O1_3 Cu4 1_555 1_555
O6 S1_3 1_555 1_555
O7 S1_3 1_555 1_555
O4_3 Cu4 1_555 1_555
O5_3 S1_3 1_555 1_555
S1_3 O1_3 1_555 1_555
H11_3 O4_3 1_555 1_555
H12_3 O4_3 1_555 1_555
N6_2 Cu4 1_555 1_555
C2_3 C1_3 1_555 1_555
C3_3 C2_3 1_555 1_555
C4_3 C3_3 1_555 1_555
H3_3 C4_3 1_555 1_555
C5_3 C4_3 1_555 1_555
H4_3 C5_3 1_555 1_555
C6_3 C3_3 1_555 1_555
C7_3 C8_3 1_555 1_555
C8_3 C9_3 1_555 1_555
C9_3 H5_3 1_555 1_555
C10_3 C9_3 1_555 1_555
H6_3 C10_3 1_555 1_555
C12_3 C8_3 1_555 1_555
C13_3 C6_3 1_555 1_555
N1_2 C10_3 1_555 1_555
N2_3 C1_3 1_555 1_555
N3_3 C6_3 1_555 1_555
N4_3 C7_3 1_555 1_555
Cu3 N1_2 1_555 1_555
C5_3 N2_3 1_555 1_555
C7_3 C13_3 1_555 1_555
C11_3 C12_3 1_555 1_555
C11_3 N1_2 1_555 1_555
N3_3 N4_3 1_555 1_555
N3_3 H13_3 1_555 1_555
C7_4 C8_4 1_555 1_555
C12_4 C8_4 1_555 1_555
N6_2 C10_4 1_555 1_555
C11_4 C12_4 1_555 1_555
C11_4 N6_2 1_555 1_555
C2_4 C1_4 1_555 1_555
C3_4 C2_4 1_555 1_555
C6_4 C3_4 1_555 1_555
C13_4 C6_4 1_555 1_555
N2_4 C1_4 1_555 1_555
C5_4 N2_4 1_555 1_555
H10_4 N5_4 1_555 1_555
O1_4 Cu3 1_555 1_555
O6_2 S1_4 1_555 1_555
O7_2 S1_4 1_555 1_555
O5_4 S1_4 1_555 1_555
S1_4 O1_4 1_555 1_555
H3_4 C4_4 1_555 1_555
N3_4 H13_4 1_555 1_555
H11_4 O4_4 1_555 1_555
H12_4 O4_4 1_555 1_555
C9_4 H5_4 1_555 1_555

#END
