
###############################################################################
#
# This file contains modified crystal structure data generated from the
# MOF subset of the Cambridge Structural Database (CSD) v543 
# hosted by the Cambridge Crystallographic Data Centre (CCDC).
#
# This work is licensed under the Creative Commons
# Attribution-NonCommercial-ShareAlike 4.0 International License.
# To view a copy of this license, visit
# http://creativecommons.org/licenses/by-nc-sa/4.0/
# or send a letter to
# Creative Commons, PO Box 1866, Mountain View, CA 94042, USA.
#
# CIF created using the CSD Python API on 29 September 2022
# The structure has been converted into the P1 space group
# The structure has a 3D framework
# The original CSD entry IZUKIZ is in the orthorhombic crystal system
# The framework has been calculated to contain at least 10.0% void space
# The void calculation uses a probe of radius 1.32A, grid spacing 0.4
# H atom positions have been added when not included in the experimental data
#
###############################################################################

data_IZUKIZ
_chemical_formula_moiety         '(C108 H60 Bi4 O24)n'
_symmetry_cell_setting           triclinic
_symmetry_space_group_name_H-M   'P 1'
_symmetry_Int_Tables_number      1
_space_group_name_Hall           'P 1'
loop_
_symmetry_equiv_pos_site_id
_symmetry_equiv_pos_as_xyz
1 x,y,z
_cell_length_a                   32.366(10)
_cell_length_b                   28.0847(72)
_cell_length_c                   3.91323(99)
_cell_angle_alpha                90
_cell_angle_beta                 90
_cell_angle_gamma                90
_cell_volume                     3557.08
loop_
_atom_site_label
_atom_site_type_symbol
_atom_site_fract_x
_atom_site_fract_y
_atom_site_fract_z
C1 C 0.620040(12) 0.255909(8) 0.061535(6)
C2 C 0.654056(12) 0.284361(8) 0.129602(6)
C4 C 0.653942(12) 0.332549(8) 0.051893(6)
C7 C 0.610116(33) 0.204439(74) 0.22884(72)
C8 C 0.580606(33) 0.184479(74) 0.44485(72)
C9 C 0.644410(33) 0.177154(74) 0.13856(72)
C10 C 0.585130(33) 0.138440(74) 0.56627(72)
C11 C 0.64895(33) 0.131250(74) 0.26133(72)
C12 C 0.619298(33) 0.111821(74) 0.47431(72)
C13 C 0.688995(33) 0.355070(74) 0.19570(72)
C14 C 0.689552(7) 0.393399(8) 0.421293(6)
C15 C 0.725195(7) 0.343404(8) 0.022936(6)
C16 C 0.725408(7) 0.419266(8) 0.474640(6)
C17 C 0.761041(7) 0.369385(8) 0.075986(6)
C18 C 0.761128(7) 0.407177(8) 0.302890(6)
C25 C 0.624219(10) 0.063100(1) 0.601838(6)
O1 O 0.65448(33) 0.040248(7) 0.52382(72)
O2 O 0.594913(33) 0.043855(7) 0.80945(72)
C26 C 0.799196(33) 0.43437(74) 0.36228(72)
O3 O 0.801981(33) 0.460037(74) 0.61022(72)
O4 O 0.831190(33) 0.430561(74) 0.13919(72)
Bi4 Bi 0.86444(38) 0.4636(16) 0.8052(18)
H3 H 0.661455 0.403157 0.55744
H4 H 0.56312 0.423744 0.0419484
H10 H 0.725408 0.449136 0.652085
H11 H 0.561773 0.123216 0.734154
H12 H 0.55368 0.205304 0.51908
H14 H 0.681369 0.268591 0.246224
H15 H 0.67595 0.110352 0.190065
C3 C 0.585348(12) 0.276455(8) 0.912589(6)
C5 C 0.584341(12) 0.324670(8) 0.833022(55)
C6 C 0.61892(12) 0.352310(8) 0.903660(55)
C19 C 0.547653(10) 0.355122(8) 0.833965(6)
C20 C 0.540336(10) 0.403095(8) 0.900631(1)
C21 C 0.517858(10) 0.329537(8) 0.652499(6)
C22 C 0.504321(10) 0.424822(8) 0.788811(6)
C23 C 0.481849(10) 0.351348(8) 0.542424(6)
C24 C 0.475029(10) 0.398997(8) 0.610041(6)
C27 C 0.436819(10) 0.421943(8) 0.492510(6)
O5 O 0.410093(10) 0.398637(82) 0.356197(6)
O6 O 0.431732(10) 0.469589(8) 0.535355(6)
Bi1 Bi 0.36444(38) 0.4636(16) 0.1948(18)
O7 O 0.34552(33) 0.540248(7) 0.47618(72)
O8 O 0.405087(33) 0.543855(7) 0.19055(72)
O9 O 0.301981(33) 0.460037(74) 0.38978(72)
H1 H 0.789176 0.360041 0.938889
H2 H 0.499065 0.462399 0.84196
H5 H 0.522992 0.292007 0.596889
H6 H 0.458846 0.33088 0.402177
H7 H 0.618551 0.390111 0.841728
H8 H 0.667825 0.192102 0.969955
H9 H 0.72536 0.313629 0.84467
H13 H 0.558502 0.254385 0.857326
O10 O 0.331190(33) 0.430561(74) 0.86081(72)
Bi2 Bi 0.63556(38) 0.9636(16) 0.8052(18)
O10_2 O 0.668810(33) 0.930561(74) 0.13919(72)
C3_2 C 0.414652(12) 0.776455(8) 0.087411(6)
C5_2 C 0.415659(12) 0.824670(8) 0.166978(55)
C6_2 C 0.38108(12) 0.852310(8) 0.096340(55)
C19_2 C 0.452347(10) 0.855122(8) 0.166035(6)
C20_2 C 0.459664(10) 0.903095(8) 0.099369(1)
C21_2 C 0.482142(10) 0.829537(8) 0.347501(6)
C22_2 C 0.495679(10) 0.924822(8) 0.211189(6)
C23_2 C 0.518151(10) 0.851348(8) 0.457576(6)
C24_2 C 0.524971(10) 0.898997(8) 0.389959(6)
C27_2 C 0.563181(10) 0.921943(8) 0.507490(6)
O5_2 O 0.589907(10) 0.898637(82) 0.643803(6)
O6_2 O 0.568268(10) 0.969589(8) 0.464645(6)
O9_2 O 0.698019(33) 0.960037(74) 0.61022(72)
Bi3 Bi 0.13556(38) 0.9636(16) 0.1948(18)
H1_2 H 0.210824 0.860041 0.0611105
H2_2 H 0.500935 0.962399 0.15804
H5_2 H 0.477008 0.792007 0.403111
H6_2 H 0.541154 0.83088 0.597823
H7_2 H 0.381449 0.890111 0.158272
H8_2 H 0.332175 0.692102 0.0300448
H9_2 H 0.27464 0.813629 0.15533
H13_2 H 0.441498 0.754385 0.142674
C1_2 C 0.379960(12) 0.755909(8) 0.938465(6)
C2_2 C 0.345944(12) 0.784361(8) 0.870398(6)
C4_2 C 0.346058(12) 0.832549(8) 0.948107(6)
C7_2 C 0.389884(33) 0.704439(74) 0.77116(72)
C8_2 C 0.419394(33) 0.684479(74) 0.55515(72)
C9_2 C 0.355590(33) 0.677154(74) 0.86144(72)
C10_2 C 0.414870(33) 0.638440(74) 0.43373(72)
C11_2 C 0.35105(33) 0.631250(74) 0.73867(72)
C12_2 C 0.380702(33) 0.611821(74) 0.52569(72)
C13_2 C 0.311005(33) 0.855070(74) 0.80430(72)
C14_2 C 0.310448(7) 0.893399(8) 0.578707(6)
C15_2 C 0.274805(7) 0.843404(8) 0.977064(6)
C16_2 C 0.274592(7) 0.919266(8) 0.525360(6)
C17_2 C 0.238959(7) 0.869385(8) 0.924014(6)
C18_2 C 0.238872(7) 0.907177(8) 0.697110(6)
C25_2 C 0.375781(10) 0.563100(1) 0.398162(6)
C26_2 C 0.200804(33) 0.93437(74) 0.63772(72)
O3_2 O 0.198019(33) 0.960037(74) 0.38978(72)
O4_2 O 0.168810(33) 0.930561(74) 0.86081(72)
H3_2 H 0.338545 0.903157 0.44256
H4_2 H 0.43688 0.923744 0.958052
H10_2 H 0.274592 0.949136 0.347915
H11_2 H 0.438227 0.623216 0.265846
H12_2 H 0.44632 0.705304 0.48092
H14_2 H 0.318631 0.768591 0.753776
H15_2 H 0.32405 0.610352 0.809935
O7_2 O 0.15448(33) 0.040248(7) 0.47618(72)
O8_2 O 0.094913(33) 0.043855(7) 0.19055(72)
C23_3 C 0.018151(10) 0.851348(8) 0.542424(6)
C24_3 C 0.024971(10) 0.898997(8) 0.610041(6)
C27_3 C 0.063181(10) 0.921943(8) 0.492510(6)
O5_3 O 0.089907(10) 0.898637(82) 0.356197(6)
O6_3 O 0.068268(10) 0.969589(8) 0.535355(6)
H2_3 H 0.000935252 0.962399 0.84196
H6_3 H 0.0411538 0.83088 0.402177
C1_3 C 0.879960(12) 0.755909(8) 0.061535(6)
C2_3 C 0.845944(12) 0.784361(8) 0.129602(6)
C4_3 C 0.846058(12) 0.832549(8) 0.051893(6)
C7_3 C 0.889884(33) 0.704439(74) 0.22884(72)
C8_3 C 0.919394(33) 0.684479(74) 0.44485(72)
C9_3 C 0.855590(33) 0.677154(74) 0.13856(72)
C10_3 C 0.914870(33) 0.638440(74) 0.56627(72)
C11_3 C 0.85105(33) 0.631250(74) 0.26133(72)
C12_3 C 0.880702(33) 0.611821(74) 0.47431(72)
C13_3 C 0.811005(33) 0.855070(74) 0.19570(72)
C14_3 C 0.810448(7) 0.893399(8) 0.421293(6)
C15_3 C 0.774805(7) 0.843404(8) 0.022936(6)
C16_3 C 0.774592(7) 0.919266(8) 0.474640(6)
C17_3 C 0.738959(7) 0.869385(8) 0.075986(6)
C18_3 C 0.738872(7) 0.907177(8) 0.302890(6)
C25_3 C 0.875781(10) 0.563100(1) 0.601838(6)
O1_2 O 0.84552(33) 0.540248(7) 0.52382(72)
O2_2 O 0.905087(33) 0.543855(7) 0.80945(72)
C26_3 C 0.700804(33) 0.93437(74) 0.36228(72)
H3_3 H 0.838545 0.903157 0.55744
H4_3 H 0.93688 0.923744 0.0419484
H10_3 H 0.774592 0.949136 0.652085
H11_3 H 0.938227 0.623216 0.734154
H12_3 H 0.94632 0.705304 0.51908
H14_3 H 0.818631 0.768591 0.246224
H15_3 H 0.82405 0.610352 0.190065
C3_3 C 0.914652(12) 0.776455(8) 0.912589(6)
C5_3 C 0.915659(12) 0.824670(8) 0.833022(55)
C6_3 C 0.88108(12) 0.852310(8) 0.903660(55)
C19_3 C 0.952347(10) 0.855122(8) 0.833965(6)
C20_3 C 0.959664(10) 0.903095(8) 0.900631(1)
C21_3 C 0.982142(10) 0.829537(8) 0.652499(6)
C22_3 C 0.995679(10) 0.924822(8) 0.788811(6)
H1_3 H 0.710824 0.860041 0.938889
H5_3 H 0.977008 0.792007 0.596889
H7_3 H 0.881449 0.890111 0.841728
H8_3 H 0.832175 0.692102 0.969955
H9_3 H 0.77464 0.813629 0.84467
H13_3 H 0.941498 0.754385 0.857326
C3_4 C 0.085348(12) 0.276455(8) 0.087411(6)
C5_4 C 0.084341(12) 0.324670(8) 0.166978(55)
C6_4 C 0.11892(12) 0.352310(8) 0.096340(55)
C19_4 C 0.047653(10) 0.355122(8) 0.166035(6)
C20_4 C 0.040336(10) 0.403095(8) 0.099369(1)
C21_4 C 0.017858(10) 0.329537(8) 0.347501(6)
C22_4 C 0.004321(10) 0.424822(8) 0.211189(6)
H1_4 H 0.289176 0.360041 0.0611105
H5_4 H 0.0229919 0.292007 0.403111
H7_4 H 0.118551 0.390111 0.158272
H8_4 H 0.167825 0.192102 0.0300448
H9_4 H 0.22536 0.313629 0.15533
H13_4 H 0.0585023 0.254385 0.142674
C1_4 C 0.120040(12) 0.255909(8) 0.938465(6)
C2_4 C 0.154056(12) 0.284361(8) 0.870398(6)
C4_4 C 0.153942(12) 0.332549(8) 0.948107(6)
C7_4 C 0.110116(33) 0.204439(74) 0.77116(72)
C8_4 C 0.080606(33) 0.184479(74) 0.55515(72)
C9_4 C 0.144410(33) 0.177154(74) 0.86144(72)
C10_4 C 0.085130(33) 0.138440(74) 0.43373(72)
C11_4 C 0.14895(33) 0.131250(74) 0.73867(72)
C12_4 C 0.119298(33) 0.111821(74) 0.52569(72)
C13_4 C 0.188995(33) 0.355070(74) 0.80430(72)
C14_4 C 0.189552(7) 0.393399(8) 0.578707(6)
C15_4 C 0.225195(7) 0.343404(8) 0.977064(6)
C16_4 C 0.225408(7) 0.419266(8) 0.525360(6)
C17_4 C 0.261041(7) 0.369385(8) 0.924014(6)
C18_4 C 0.261128(7) 0.407177(8) 0.697110(6)
C25_4 C 0.124219(10) 0.063100(1) 0.398162(6)
C26_4 C 0.299196(33) 0.43437(74) 0.63772(72)
H3_4 H 0.161455 0.403157 0.44256
H4_4 H 0.0631199 0.423744 0.958052
H10_4 H 0.225408 0.449136 0.347915
H11_4 H 0.0617729 0.123216 0.265846
H12_4 H 0.05368 0.205304 0.48092
H14_4 H 0.181369 0.268591 0.753776
H15_4 H 0.17595 0.110352 0.809935
C23_4 C 0.981849(10) 0.351348(8) 0.457576(6)
C24_4 C 0.975029(10) 0.398997(8) 0.389959(6)
C27_4 C 0.936819(10) 0.421943(8) 0.507490(6)
O5_4 O 0.910093(10) 0.398637(82) 0.643803(6)
O6_4 O 0.931732(10) 0.469589(8) 0.464645(6)
H2_4 H 0.999065 0.462399 0.15804
H6_4 H 0.958846 0.33088 0.597823
loop_
_geom_bond_atom_site_label_1
_geom_bond_atom_site_label_2
_geom_bond_site_symmetry_1
_geom_bond_site_symmetry_2
C1 C2 1_555 1_555
C2 C4 1_555 1_555
C7 C1 1_555 1_555
C8 C7 1_555 1_555
C9 C7 1_555 1_555
C10 C8 1_555 1_555
C11 C9 1_555 1_555
C12 C10 1_555 1_555
C13 C4 1_555 1_555
C14 C13 1_555 1_555
C15 C13 1_555 1_555
C16 C14 1_555 1_555
C17 C15 1_555 1_555
C18 C16 1_555 1_555
C25 C12 1_555 1_555
O1 C25 1_555 1_555
O2 C25 1_555 1_555
C26 C18 1_555 1_555
O3 C26 1_555 1_555
O4 C26 1_555 1_555
Bi4 O3 1_555 1_555
C11 C12 1_555 1_555
C17 C18 1_555 1_555
C14 H3 1_555 1_555
C16 H10 1_555 1_555
C10 H11 1_555 1_555
C8 H12 1_555 1_555
C2 H14 1_555 1_555
C11 H15 1_555 1_555
C5 C3 1_555 1_555
C6 C5 1_555 1_555
C19 C5 1_555 1_555
C20 C19 1_555 1_555
C21 C19 1_555 1_555
C22 C20 1_555 1_555
C23 C21 1_555 1_555
C24 C22 1_555 1_555
C27 C24 1_555 1_555
O5 C27 1_555 1_555
O6 C27 1_555 1_555
Bi1 O5 1_555 1_555
O7 Bi1 1_555 1_555
O8 Bi1 1_555 1_555
O9 Bi1 1_555 1_555
C23 C24 1_555 1_555
O6 Bi1 1_555 1_555
C22 H2 1_555 1_555
C21 H5 1_555 1_555
C23 H6 1_555 1_555
C6 H7 1_555 1_555
C3 H13 1_555 1_555
C5_2 C3_2 1_555 1_555
C6_2 C5_2 1_555 1_555
C19_2 C5_2 1_555 1_555
C20_2 C19_2 1_555 1_555
C21_2 C19_2 1_555 1_555
C22_2 C20_2 1_555 1_555
C23_2 C21_2 1_555 1_555
C24_2 C22_2 1_555 1_555
C27_2 C24_2 1_555 1_555
O5_2 C27_2 1_555 1_555
O6_2 C27_2 1_555 1_555
Bi2 O5_2 1_555 1_555
O9_2 Bi2 1_555 1_555
C23_2 C24_2 1_555 1_555
O6_2 Bi2 1_555 1_555
C22_2 H2_2 1_555 1_555
C21_2 H5_2 1_555 1_555
C23_2 H6_2 1_555 1_555
C6_2 H7_2 1_555 1_555
C3_2 H13_2 1_555 1_555
C1_2 C2_2 1_555 1_555
C2_2 C4_2 1_555 1_555
C7_2 C1_2 1_555 1_555
C8_2 C7_2 1_555 1_555
C9_2 C7_2 1_555 1_555
C10_2 C8_2 1_555 1_555
C11_2 C9_2 1_555 1_555
C12_2 C10_2 1_555 1_555
C13_2 C4_2 1_555 1_555
C14_2 C13_2 1_555 1_555
C15_2 C13_2 1_555 1_555
C16_2 C14_2 1_555 1_555
C17_2 C15_2 1_555 1_555
C18_2 C16_2 1_555 1_555
C25_2 C12_2 1_555 1_555
O7 C25_2 1_555 1_555
O8 C25_2 1_555 1_555
C26_2 C18_2 1_555 1_555
O3_2 C26_2 1_555 1_555
O4_2 C26_2 1_555 1_555
Bi3 O3_2 1_555 1_555
C11_2 C12_2 1_555 1_555
C17_2 C18_2 1_555 1_555
C14_2 H3_2 1_555 1_555
C16_2 H10_2 1_555 1_555
C10_2 H11_2 1_555 1_555
C8_2 H12_2 1_555 1_555
C2_2 H14_2 1_555 1_555
C11_2 H15_2 1_555 1_555
C27_3 C24_3 1_555 1_555
O5_3 C27_3 1_555 1_555
O6_3 C27_3 1_555 1_555
Bi3 O5_3 1_555 1_555
C23_3 C24_3 1_555 1_555
O6_3 Bi3 1_555 1_555
C23_3 H6_3 1_555 1_555
C1_3 C2_3 1_555 1_555
C2_3 C4_3 1_555 1_555
C7_3 C1_3 1_555 1_555
C8_3 C7_3 1_555 1_555
C9_3 C7_3 1_555 1_555
C10_3 C8_3 1_555 1_555
C11_3 C9_3 1_555 1_555
C12_3 C10_3 1_555 1_555
C13_3 C4_3 1_555 1_555
C14_3 C13_3 1_555 1_555
C15_3 C13_3 1_555 1_555
C16_3 C14_3 1_555 1_555
C17_3 C15_3 1_555 1_555
C18_3 C16_3 1_555 1_555
C25_3 C12_3 1_555 1_555
O1_2 C25_3 1_555 1_555
O2_2 C25_3 1_555 1_555
C26_3 C18_3 1_555 1_555
O9_2 C26_3 1_555 1_555
O10_2 C26_3 1_555 1_555
Bi4 O1_2 1_555 1_555
C11_3 C12_3 1_555 1_555
C17_3 C18_3 1_555 1_555
O2_2 Bi4 1_555 1_555
C14_3 H3_3 1_555 1_555
C16_3 H10_3 1_555 1_555
C10_3 H11_3 1_555 1_555
C8_3 H12_3 1_555 1_555
C2_3 H14_3 1_555 1_555
C11_3 H15_3 1_555 1_555
C5_3 C3_3 1_555 1_555
C6_3 C5_3 1_555 1_555
C19_3 C5_3 1_555 1_555
C20_3 C19_3 1_555 1_555
C21_3 C19_3 1_555 1_555
C22_3 C20_3 1_555 1_555
C21_3 H5_3 1_555 1_555
C6_3 H7_3 1_555 1_555
C3_3 H13_3 1_555 1_555
C5_4 C3_4 1_555 1_555
C6_4 C5_4 1_555 1_555
C19_4 C5_4 1_555 1_555
C20_4 C19_4 1_555 1_555
C21_4 C19_4 1_555 1_555
C22_4 C20_4 1_555 1_555
C21_4 H5_4 1_555 1_555
C6_4 H7_4 1_555 1_555
C3_4 H13_4 1_555 1_555
C1_4 C2_4 1_555 1_555
C2_4 C4_4 1_555 1_555
C7_4 C1_4 1_555 1_555
C8_4 C7_4 1_555 1_555
C9_4 C7_4 1_555 1_555
C10_4 C8_4 1_555 1_555
C11_4 C9_4 1_555 1_555
C12_4 C10_4 1_555 1_555
C13_4 C4_4 1_555 1_555
C14_4 C13_4 1_555 1_555
C15_4 C13_4 1_555 1_555
C16_4 C14_4 1_555 1_555
C17_4 C15_4 1_555 1_555
C18_4 C16_4 1_555 1_555
C25_4 C12_4 1_555 1_555
O7_2 C25_4 1_555 1_555
O8_2 C25_4 1_555 1_555
C26_4 C18_4 1_555 1_555
O9 C26_4 1_555 1_555
O10 C26_4 1_555 1_555
C11_4 C12_4 1_555 1_555
C17_4 C18_4 1_555 1_555
C14_4 H3_4 1_555 1_555
C16_4 H10_4 1_555 1_555
C10_4 H11_4 1_555 1_555
C8_4 H12_4 1_555 1_555
C2_4 H14_4 1_555 1_555
C11_4 H15_4 1_555 1_555
C27_4 C24_4 1_555 1_555
O5_4 C27_4 1_555 1_555
O6_4 C27_4 1_555 1_555
Bi4 O5_4 1_555 1_555
C23_4 C24_4 1_555 1_555
O6_4 Bi4 1_555 1_555
C23_4 H6_4 1_555 1_555

#END
