
###############################################################################
#
# This file contains modified crystal structure data generated from the
# MOF subset of the Cambridge Structural Database (CSD) v543 
# hosted by the Cambridge Crystallographic Data Centre (CCDC).
#
# This work is licensed under the Creative Commons
# Attribution-NonCommercial-ShareAlike 4.0 International License.
# To view a copy of this license, visit
# http://creativecommons.org/licenses/by-nc-sa/4.0/
# or send a letter to
# Creative Commons, PO Box 1866, Mountain View, CA 94042, USA.
#
# CIF created using the CSD Python API on 29 September 2022
# The structure has been converted into the P1 space group
# The structure has a 3D framework
# The original CSD entry JAFHOR is in the monoclinic crystal system
# The framework has been calculated to contain at least 10.0% void space
# The void calculation uses a probe of radius 1.32A, grid spacing 0.4
#
###############################################################################

data_JAFHOR
_chemical_formula_moiety         '(C40 H24 In8 N32 O20)n'
_symmetry_cell_setting           triclinic
_symmetry_space_group_name_H-M   'P 1'
_symmetry_Int_Tables_number      1
_space_group_name_Hall           'P 1'
loop_
_symmetry_equiv_pos_site_id
_symmetry_equiv_pos_as_xyz
1 x,y,z
_cell_length_a                   20.458(5)
_cell_length_b                   7.487(4)
_cell_length_c                   12.583(3)
_cell_angle_alpha                90
_cell_angle_beta                 102.821(7)
_cell_angle_gamma                90
_cell_volume                     1879.27
loop_
_atom_site_label
_atom_site_type_symbol
_atom_site_fract_x
_atom_site_fract_y
_atom_site_fract_z
C2 C 0.06706(10) 0.5318(3) 0.04822(17)
O2 O 0.15556(8) 0.7160(2) 0.13807(14)
C5 C 0.13764(10) 0.5597(3) 0.11170(16)
O3 O 0.17254(8) 0.4232(2) 0.13526(14)
C8 C 0.01724(10) 0.6429(3) 0.06981(17)
H5 H 0.0293 0.7417 0.1175
In7 In 0.24326(2) 0.81349(2) 0.25028(2)
In8 In 0.25674(2) 0.31349(2) 0.24972(2)
In1 In 0.24326(2) 0.18651(2) 0.75028(2)
N1 N 0.17958(10) 0.1886(2) 0.87358(17)
C1 C 0.10108(10) 0.2739(3) 0.94382(17)
N2 N 0.14579(10) 0.3350(3) 0.89179(17)
N3 N 0.10594(12) 0.0975(3) 0.9594(2)
N4 N 0.15634(11) 0.0477(3) 0.91329(19)
C4 C 0.04994(10) 0.3876(3) 0.97693(17)
O4 O 0.30065(10) 0.1878(2) 0.62291(16)
H3 H 0.3216 0.0900 0.6223
H4 H 0.3213 0.2826 0.6127
O10 O 0.28656(7) 0.43062(18) 0.80212(12)
O11 O 0.15556(8) 0.2840(2) 0.63807(14)
O12 O 0.32746(8) 0.0768(2) 0.86474(14)
O1 O 0.21344(7) 0.93062(18) 0.69788(12)
H2 H 0.1794 0.9251 0.6492
In5 In 0.25674(2) 0.68651(2) 0.74972(2)
N5 N 0.82042(10) 0.8114(2) 0.12642(17)
C6 C 0.89892(10) 0.7261(3) 0.05618(17)
N6 N 0.85421(10) 0.6650(3) 0.10821(17)
N7 N 0.89406(12) 0.9025(3) 0.0406(2)
N8 N 0.84366(11) 0.9523(3) 0.08671(19)
C9 C 0.95006(10) 0.6124(3) 0.02307(17)
In6 In 0.75674(2) 0.81349(2) 0.24972(2)
C3 C 0.98276(10) 0.3571(3) 0.93019(17)
H1 H 0.9707 0.2583 0.8825
C7 C 0.93294(10) 0.4682(3) 0.95178(17)
O5 O 0.84444(8) 0.2840(2) 0.86193(14)
C10 C 0.86236(10) 0.4403(3) 0.88830(16)
O6 O 0.82746(8) 0.5768(2) 0.86474(14)
In2 In 0.75674(2) 0.18651(2) 0.74972(2)
O8 O 0.69935(10) 0.1878(2) 0.87709(16)
H7 H 0.6784 0.0900 0.8777
H8 H 0.6787 0.2826 0.8873
In4 In 0.74326(2) 0.68651(2) 0.75028(2)
N9 N 0.82042(10) 0.1886(2) 0.62642(17)
O9 O 0.71344(7) 0.43062(18) 0.69788(12)
O13 O 0.67254(8) 0.0768(2) 0.63526(14)
O7 O 0.78656(7) 0.93062(18) 0.80212(12)
H6 H 0.8206 0.9251 0.8508
C3_2 C 0.01724(10) 0.3571(3) 0.56981(17)
H1_2 H 0.0293 0.2583 0.6175
N5_2 N 0.17958(10) 0.8114(2) 0.37358(17)
C6_2 C 0.10108(10) 0.7261(3) 0.44382(17)
N6_2 N 0.14579(10) 0.6650(3) 0.39179(17)
N7_2 N 0.10594(12) 0.9025(3) 0.4594(2)
N8_2 N 0.15634(11) 0.9523(3) 0.41329(19)
C7_2 C 0.06706(10) 0.4682(3) 0.54822(17)
C9_2 C 0.04994(10) 0.6124(3) 0.47693(17)
C10_2 C 0.13764(10) 0.4403(3) 0.61170(16)
O6_2 O 0.17254(8) 0.5768(2) 0.63526(14)
C1_2 C 0.89892(10) 0.2739(3) 0.55618(17)
N2_2 N 0.85421(10) 0.3350(3) 0.60821(17)
N3_2 N 0.89406(12) 0.0975(3) 0.5406(2)
N4_2 N 0.84366(11) 0.0477(3) 0.58671(19)
C2_2 C 0.93294(10) 0.5318(3) 0.45178(17)
C4_2 C 0.95006(10) 0.3876(3) 0.52307(17)
O2_2 O 0.84444(8) 0.7160(2) 0.36193(14)
C5_2 C 0.86236(10) 0.5597(3) 0.38830(16)
O3_2 O 0.82746(8) 0.4232(2) 0.36474(14)
C8_2 C 0.98276(10) 0.6429(3) 0.43019(17)
H5_2 H 0.9707 0.7417 0.3825
In8_2 In 0.74326(2) 0.31349(2) 0.25028(2)
C2_3 C 0.56706(10) 0.0318(3) 0.04822(17)
O2_3 O 0.65556(8) 0.2160(2) 0.13807(14)
C5_3 C 0.63764(10) 0.0597(3) 0.11170(16)
N5_3 N 0.32042(10) 0.3114(2) 0.12642(17)
C6_3 C 0.39892(10) 0.2261(3) 0.05618(17)
N6_3 N 0.35421(10) 0.1650(3) 0.10821(17)
N7_3 N 0.39406(12) 0.4025(3) 0.0406(2)
N8_3 N 0.34366(11) 0.4523(3) 0.08671(19)
C8_3 C 0.51724(10) 0.1429(3) 0.06981(17)
H5_3 H 0.5293 0.2417 0.1175
C9_3 C 0.45006(10) 0.1124(3) 0.02307(17)
O3_3 O 0.67254(8) 0.9232(2) 0.13526(14)
N1_2 N 0.67958(10) 0.6886(2) 0.87358(17)
C1_3 C 0.60108(10) 0.7739(3) 0.94382(17)
N2_3 N 0.64579(10) 0.8350(3) 0.89179(17)
N3_3 N 0.60594(12) 0.5975(3) 0.9594(2)
N4_3 N 0.65634(11) 0.5477(3) 0.91329(19)
C3_3 C 0.48276(10) 0.8571(3) 0.93019(17)
H1_3 H 0.4707 0.7583 0.8825
C4_3 C 0.54994(10) 0.8876(3) 0.97693(17)
H2_2 H 0.6794 0.4251 0.6492
O4_2 O 0.80065(10) 0.6878(2) 0.62291(16)
H3_2 H 0.8216 0.5900 0.6223
H4_2 H 0.8213 0.7826 0.6127
C7_3 C 0.43294(10) 0.9682(3) 0.95178(17)
O5_2 O 0.34444(8) 0.7840(2) 0.86193(14)
C10_3 C 0.36236(10) 0.9403(3) 0.88830(16)
H6_2 H 0.3206 0.4251 0.8508
O8_2 O 0.19935(10) 0.6878(2) 0.87709(16)
H7_2 H 0.1784 0.5900 0.8777
H8_2 H 0.1787 0.7826 0.8873
N9_2 N 0.32042(10) 0.6886(2) 0.62642(17)
O11_2 O 0.65556(8) 0.7840(2) 0.63807(14)
C2_4 C 0.43294(10) 0.0318(3) 0.45178(17)
O2_4 O 0.34444(8) 0.2160(2) 0.36193(14)
C5_4 C 0.36236(10) 0.0597(3) 0.38830(16)
N5_4 N 0.67958(10) 0.3114(2) 0.37358(17)
C6_4 C 0.60108(10) 0.2261(3) 0.44382(17)
N6_4 N 0.64579(10) 0.1650(3) 0.39179(17)
N7_4 N 0.60594(12) 0.4025(3) 0.4594(2)
N8_4 N 0.65634(11) 0.4523(3) 0.41329(19)
C8_4 C 0.48276(10) 0.1429(3) 0.43019(17)
H5_4 H 0.4707 0.2417 0.3825
C9_4 C 0.54994(10) 0.1124(3) 0.47693(17)
C1_4 C 0.39892(10) 0.7739(3) 0.55618(17)
N2_4 N 0.35421(10) 0.8350(3) 0.60821(17)
N3_4 N 0.39406(12) 0.5975(3) 0.5406(2)
N4_4 N 0.34366(11) 0.5477(3) 0.58671(19)
C3_4 C 0.51724(10) 0.8571(3) 0.56981(17)
H1_4 H 0.5293 0.7583 0.6175
C4_4 C 0.45006(10) 0.8876(3) 0.52307(17)
O3_4 O 0.32746(8) 0.9232(2) 0.36474(14)
C7_4 C 0.56706(10) 0.9682(3) 0.54822(17)
C10_4 C 0.63764(10) 0.9403(3) 0.61170(16)
O7_2 O 0.21344(7) 0.06938(18) 0.19788(12)
H6_3 H 0.1794 0.0749 0.1492
O8_3 O 0.30065(10) 0.8122(2) 0.12291(16)
H7_3 H 0.3216 0.9100 0.1223
H8_3 H 0.3213 0.7174 0.1127
O9_2 O 0.28656(7) 0.56938(18) 0.30212(12)
O1_2 O 0.78656(7) 0.06938(18) 0.30212(12)
H2_3 H 0.8206 0.0749 0.3508
O4_3 O 0.69935(10) 0.8122(2) 0.37709(16)
H3_3 H 0.6784 0.9100 0.3777
H4_3 H 0.6787 0.7174 0.3873
O10_2 O 0.71344(7) 0.56938(18) 0.19788(12)
H2_4 H 0.3206 0.5749 0.3508
O4_4 O 0.19935(10) 0.3122(2) 0.37709(16)
H3_4 H 0.1784 0.4100 0.3777
H4_4 H 0.1787 0.2174 0.3873
H6_4 H 0.6794 0.5749 0.1492
O8_4 O 0.80065(10) 0.3122(2) 0.12291(16)
H7_4 H 0.8216 0.4100 0.1223
H8_4 H 0.8213 0.2174 0.1127
loop_
_geom_bond_atom_site_label_1
_geom_bond_atom_site_label_2
_geom_bond_site_symmetry_1
_geom_bond_site_symmetry_2
O2 C5 1_555 1_555
C5 C2 1_555 1_555
O3 C5 1_555 1_555
C8 C2 1_555 1_555
H5 C8 1_555 1_555
In7 O2 1_555 1_555
In8 O3 1_555 1_555
In1 N1 1_555 1_555
N1 N2 1_555 1_555
C1 N2 1_555 1_555
N3 C1 1_555 1_555
N4 N1 1_555 1_555
C4 C1 1_555 1_555
O4 In1 1_555 1_555
H3 O4 1_555 1_555
H4 O4 1_555 1_555
O10 In1 1_555 1_555
O11 In1 1_555 1_555
O12 In1 1_555 1_555
N3 N4 1_555 1_555
H2 O1 1_555 1_555
In5 O1 1_555 1_555
N5 N6 1_555 1_555
C6 N6 1_555 1_555
N7 C6 1_555 1_555
N8 N5 1_555 1_555
C9 C6 1_555 1_555
In6 N5 1_555 1_555
N7 N8 1_555 1_555
C3 H1 1_555 1_555
C7 C3 1_555 1_555
O5 C10 1_555 1_555
C10 C7 1_555 1_555
O6 C10 1_555 1_555
In2 O5 1_555 1_555
O8 In2 1_555 1_555
H7 O8 1_555 1_555
H8 O8 1_555 1_555
In4 O6 1_555 1_555
N9 In2 1_555 1_555
O9 In2 1_555 1_555
O13 In2 1_555 1_555
In4 O9 1_555 1_555
H6 O7 1_555 1_555
In4 O7 1_555 1_555
C3_2 H1_2 1_555 1_555
N5_2 N6_2 1_555 1_555
C6_2 N6_2 1_555 1_555
N7_2 C6_2 1_555 1_555
N8_2 N5_2 1_555 1_555
C7_2 C3_2 1_555 1_555
C9_2 C6_2 1_555 1_555
O11 C10_2 1_555 1_555
C10_2 C7_2 1_555 1_555
O6_2 C10_2 1_555 1_555
In5 O6_2 1_555 1_555
In7 N5_2 1_555 1_555
N7_2 N8_2 1_555 1_555
C7_2 C9_2 1_555 1_555
In5 O10 1_555 1_555
N9 N2_2 1_555 1_555
C1_2 N2_2 1_555 1_555
N3_2 C1_2 1_555 1_555
N4_2 N9 1_555 1_555
C2_2 C4_2 1_555 1_555
C4_2 C1_2 1_555 1_555
O2_2 C5_2 1_555 1_555
C5_2 C2_2 1_555 1_555
O3_2 C5_2 1_555 1_555
C8_2 C2_2 1_555 1_555
H5_2 C8_2 1_555 1_555
In6 O2_2 1_555 1_555
In8_2 O3_2 1_555 1_555
N3_2 N4_2 1_555 1_555
O2_3 C5_3 1_555 1_555
C5_3 C2_3 1_555 1_555
N5_3 N6_3 1_555 1_555
C6_3 N6_3 1_555 1_555
N7_3 C6_3 1_555 1_555
N8_3 N5_3 1_555 1_555
C8_3 C2_3 1_555 1_555
H5_3 C8_3 1_555 1_555
C9_3 C6_3 1_555 1_555
In8 N5_3 1_555 1_555
In8_2 O2_3 1_555 1_555
N7_3 N8_3 1_555 1_555
C8_3 C9_3 1_555 1_555
In6 O3_3 1_555 1_555
In4 N1_2 1_555 1_555
N1_2 N2_3 1_555 1_555
C1_3 N2_3 1_555 1_555
N3_3 C1_3 1_555 1_555
N4_3 N1_2 1_555 1_555
C3_3 H1_3 1_555 1_555
C4_3 C1_3 1_555 1_555
H2_2 O9 1_555 1_555
O4_2 In4 1_555 1_555
H3_2 O4_2 1_555 1_555
H4_2 O4_2 1_555 1_555
C7_3 C3_3 1_555 1_555
O5_2 C10_3 1_555 1_555
C10_3 C7_3 1_555 1_555
In5 O5_2 1_555 1_555
H6_2 O10 1_555 1_555
O8_2 In5 1_555 1_555
H7_2 O8_2 1_555 1_555
H8_2 O8_2 1_555 1_555
N9_2 In5 1_555 1_555
O11_2 In4 1_555 1_555
N3_3 N4_3 1_555 1_555
C3_3 C4_3 1_555 1_555
O2_4 C5_4 1_555 1_555
C5_4 C2_4 1_555 1_555
N5_4 N6_4 1_555 1_555
C6_4 N6_4 1_555 1_555
N7_4 C6_4 1_555 1_555
N8_4 N5_4 1_555 1_555
C8_4 C2_4 1_555 1_555
H5_4 C8_4 1_555 1_555
C9_4 C6_4 1_555 1_555
In8_2 N5_4 1_555 1_555
In8 O2_4 1_555 1_555
N7_4 N8_4 1_555 1_555
C8_4 C9_4 1_555 1_555
N9_2 N2_4 1_555 1_555
C1_4 N2_4 1_555 1_555
N3_4 C1_4 1_555 1_555
N4_4 N9_2 1_555 1_555
C3_4 H1_4 1_555 1_555
C4_4 C1_4 1_555 1_555
C7_4 C3_4 1_555 1_555
O11_2 C10_4 1_555 1_555
C10_4 C7_4 1_555 1_555
In7 O3_4 1_555 1_555
N3_4 N4_4 1_555 1_555
C3_4 C4_4 1_555 1_555
H6_3 O7_2 1_555 1_555
In8 O7_2 1_555 1_555
O8_3 In7 1_555 1_555
H7_3 O8_3 1_555 1_555
H8_3 O8_3 1_555 1_555
O9_2 In7 1_555 1_555
In8 O9_2 1_555 1_555
H2_3 O1_2 1_555 1_555
In8_2 O1_2 1_555 1_555
O4_3 In6 1_555 1_555
H3_3 O4_3 1_555 1_555
H4_3 O4_3 1_555 1_555
O10_2 In6 1_555 1_555
In8_2 O10_2 1_555 1_555
H2_4 O9_2 1_555 1_555
O4_4 In8 1_555 1_555
H3_4 O4_4 1_555 1_555
H4_4 O4_4 1_555 1_555
H6_4 O10_2 1_555 1_555
O8_4 In8_2 1_555 1_555
H7_4 O8_4 1_555 1_555
H8_4 O8_4 1_555 1_555

#END
