
###############################################################################
#
# This file contains modified crystal structure data generated from the
# MOF subset of the Cambridge Structural Database (CSD) v543 
# hosted by the Cambridge Crystallographic Data Centre (CCDC).
#
# This work is licensed under the Creative Commons
# Attribution-NonCommercial-ShareAlike 4.0 International License.
# To view a copy of this license, visit
# http://creativecommons.org/licenses/by-nc-sa/4.0/
# or send a letter to
# Creative Commons, PO Box 1866, Mountain View, CA 94042, USA.
#
# CIF created using the CSD Python API on 29 September 2022
# The structure has been converted into the P1 space group
# The structure has a 3D framework
# The original CSD entry JAHTAR is in the orthorhombic crystal system
# The framework has been calculated to contain at least 10.0% void space
# The void calculation uses a probe of radius 1.32A, grid spacing 0.4
#
###############################################################################

data_JAHTAR
_chemical_formula_moiety         '(C26 H12 Co3 N18 O8)n'
_symmetry_cell_setting           triclinic
_symmetry_space_group_name_H-M   'P 1'
_symmetry_Int_Tables_number      1
_space_group_name_Hall           'P 1'
loop_
_symmetry_equiv_pos_site_id
_symmetry_equiv_pos_as_xyz
1 x,y,z
_cell_length_a                   9.529(2)
_cell_length_b                   10.157(2)
_cell_length_c                   7.903(2)
_cell_angle_alpha                90
_cell_angle_beta                 90
_cell_angle_gamma                90
_cell_volume                     764.9
loop_
_atom_site_label
_atom_site_type_symbol
_atom_site_fract_x
_atom_site_fract_y
_atom_site_fract_z
Co4 Co 0.000000 0.000000 -0.000000
Co4_2 Co -0.000000 0.000000 1.000000
Co4_3 Co 0.000000 1.000000 -0.000000
Co4_4 Co 0.000000 1.000000 1.000000
H2 H 0.339405 0.033965 -0.000000
H2_2 H 0.339405 0.033965 1.000000
N1 N 0.1902(9) 0.8966(7) -0.000000
N2 N 0.3506(8) 0.7441(8) -0.000000
C2 C 0.4231(11) 0.6196(9) -0.000000
N3 N 0.4159(11) 0.8597(10) -0.000000
C3 C 0.2148(12) 0.7676(9) -0.000000
H1 H 0.145576 0.703075 -0.000000
C4 C 0.3207(13) 0.9441(11) -0.000000
N4 N 0.8098(9) 0.1034(7) -0.000000
N5 N 0.6494(8) 0.2559(8) -0.000000
C6 C 0.5769(11) 0.3804(9) -0.000000
N6 N 0.5841(11) 0.1403(10) -0.000000
C7 C 0.7852(12) 0.2324(9) -0.000000
H3 H 0.854424 0.296925 -0.000000
C8 C 0.6793(13) 0.0559(11) -0.000000
O3 O 0.5713(6) 0.3886(5) 0.2955(6)
C9 C 0.5426(8) 0.4345(7) 0.1519(9)
O4 O 0.4287(6) 0.6114(5) 0.2955(6)
C10 C 0.4574(8) 0.5655(7) 0.1519(9)
Co2 Co 0.500000 0.500000 0.500000
Co4_5 Co 1.000000 0.000000 -0.000000
O1 O 0.4287(6) 0.6114(5) 0.7045(6)
N1_2 N 0.1902(9) 0.8966(7) 1.000000
N2_2 N 0.3506(8) 0.7441(8) 1.000000
C1 C 0.4574(8) 0.5655(7) 0.8481(9)
C2_2 C 0.4231(11) 0.6196(9) 1.000000
N3_2 N 0.4159(11) 0.8597(10) 1.000000
C3_2 C 0.2148(12) 0.7676(9) 1.000000
H1_2 H 0.145576 0.703075 1.000000
C4_2 C 0.3207(13) 0.9441(11) 1.000000
O2 O 0.5713(6) 0.3886(5) 0.7045(6)
N4_2 N 0.8098(9) 0.1034(7) 1.000000
N5_2 N 0.6494(8) 0.2559(8) 1.000000
C5 C 0.5426(8) 0.4345(7) 0.8481(9)
C6_2 C 0.5769(11) 0.3804(9) 1.000000
N6_2 N 0.5841(11) 0.1403(10) 1.000000
C7_2 C 0.7852(12) 0.2324(9) 1.000000
H3_2 H 0.854424 0.296925 1.000000
C8_2 C 0.6793(13) 0.0559(11) 1.000000
Co4_6 Co 1.000000 0.000000 1.000000
N7 N 0.3098(9) 0.3966(7) 0.500000
N8 N 0.6902(9) 0.6034(7) 0.500000
H4 H 0.660595 0.966035 -0.000000
Co4_7 Co 1.000000 1.000000 -0.000000
H4_2 H 0.660595 0.966035 1.000000
Co4_8 Co 1.000000 1.000000 1.000000
O6 O 0.0713(6) 0.1114(5) 0.2045(6)
O1_2 O 0.0713(6) 0.1114(5) 0.7955(6)
N2_3 N 0.1494(8) 0.2441(8) 0.500000
C1_2 C 0.0426(8) 0.0655(7) 0.6519(9)
C2_3 C 0.0769(11) 0.1196(9) 0.500000
N3_3 N 0.0841(11) 0.3597(10) 0.500000
C3_3 C 0.2852(12) 0.2676(9) 0.500000
H1_3 H 0.354424 0.203075 0.500000
C4_3 C 0.1793(13) 0.4441(11) 0.500000
H2_3 H 0.160595 0.533965 0.500000
C10_2 C 0.0426(8) 0.0655(7) 0.3481(9)
O5 O 0.9287(6) 0.8886(5) 0.2045(6)
O2_2 O 0.9287(6) 0.8886(5) 0.7955(6)
N5_3 N 0.8506(8) 0.7559(8) 0.500000
C5_2 C 0.9574(8) 0.9345(7) 0.6519(9)
C6_3 C 0.9231(11) 0.8804(9) 0.500000
N6_3 N 0.9159(11) 0.6403(10) 0.500000
C7_3 C 0.7148(12) 0.7324(9) 0.500000
H3_3 H 0.645576 0.796925 0.500000
C8_3 C 0.8207(13) 0.5559(11) 0.500000
H4_3 H 0.839405 0.466035 0.500000
C9_2 C 0.9574(8) 0.9345(7) 0.3481(9)
loop_
_geom_bond_atom_site_label_1
_geom_bond_atom_site_label_2
_geom_bond_site_symmetry_1
_geom_bond_site_symmetry_2
N1 C3 1_555 1_555
N2 C2 1_555 1_555
C2 C10 1_555 1_555
N3 N2 1_555 1_555
C3 N2 1_555 1_555
H1 C3 1_555 1_555
C4 N1 1_555 1_555
N4 C7 1_555 1_555
N5 C6 1_555 1_555
N6 N5 1_555 1_555
C7 N5 1_555 1_555
H3 C7 1_555 1_555
C8 N4 1_555 1_555
O3 C9 1_555 1_555
C9 C6 1_555 1_555
O4 C10 1_555 1_555
C10 C9 1_555 1_555
Co2 O3 1_555 1_555
Co4_3 N1 1_555 1_555
Co4_5 N4 1_555 1_555
N3 C4 1_555 1_555
N6 C8 1_555 1_555
O4 Co2 1_555 1_555
Co2 O1 1_555 1_555
O1 C1 1_555 1_555
N1_2 C3_2 1_555 1_555
N2_2 C2_2 1_555 1_555
C1 C2_2 1_555 1_555
N3_2 N2_2 1_555 1_555
C3_2 N2_2 1_555 1_555
H1_2 C3_2 1_555 1_555
C4_2 N1_2 1_555 1_555
O2 Co2 1_555 1_555
N4_2 C7_2 1_555 1_555
N5_2 C6_2 1_555 1_555
C5 C1 1_555 1_555
C6_2 C5 1_555 1_555
N6_2 N5_2 1_555 1_555
C7_2 N5_2 1_555 1_555
H3_2 C7_2 1_555 1_555
C8_2 N4_2 1_555 1_555
Co4_4 N1_2 1_555 1_555
Co4_6 N4_2 1_555 1_555
N7 Co2 1_555 1_555
N8 Co2 1_555 1_555
N3_2 C4_2 1_555 1_555
O2 C5 1_555 1_555
N6_2 C8_2 1_555 1_555
O6 Co4 1_555 1_555
Co4_2 O1_2 1_555 1_555
O1_2 C1_2 1_555 1_555
N7 C3_3 1_555 1_555
N2_3 C2_3 1_555 1_555
C1_2 C2_3 1_555 1_555
C2_3 C10_2 1_555 1_555
N3_3 N2_3 1_555 1_555
C3_3 N2_3 1_555 1_555
H1_3 C3_3 1_555 1_555
C4_3 N7 1_555 1_555
H2_3 C4_3 1_555 1_555
O6 C10_2 1_555 1_555
N3_3 C4_3 1_555 1_555
O5 Co4_7 1_555 1_555
O2_2 Co4_8 1_555 1_555
N8 C7_3 1_555 1_555
N5_3 C6_3 1_555 1_555
C6_3 C5_2 1_555 1_555
N6_3 N5_3 1_555 1_555
C7_3 N5_3 1_555 1_555
H3_3 C7_3 1_555 1_555
C8_3 N8 1_555 1_555
H4_3 C8_3 1_555 1_555
O5 C9_2 1_555 1_555
C9_2 C6_3 1_555 1_555
O2_2 C5_2 1_555 1_555
N6_3 C8_3 1_555 1_555

#END
