
###############################################################################
#
# This file contains modified crystal structure data generated from the
# MOF subset of the Cambridge Structural Database (CSD) v543 
# hosted by the Cambridge Crystallographic Data Centre (CCDC).
#
# This work is licensed under the Creative Commons
# Attribution-NonCommercial-ShareAlike 4.0 International License.
# To view a copy of this license, visit
# http://creativecommons.org/licenses/by-nc-sa/4.0/
# or send a letter to
# Creative Commons, PO Box 1866, Mountain View, CA 94042, USA.
#
# CIF created using the CSD Python API on 29 September 2022
# The structure has been converted into the P1 space group
# The structure has a 3D framework
# The original CSD entry JAHYIE is in the orthorhombic crystal system
# The framework has been calculated to contain at least 10.0% void space
# The void calculation uses a probe of radius 1.32A, grid spacing 0.4
#
###############################################################################

data_JAHYIE
_chemical_formula_moiety         '(C56 H40 F2 N16 Ni4 O4)n'
_symmetry_cell_setting           triclinic
_symmetry_space_group_name_H-M   'P 1'
_symmetry_Int_Tables_number      1
_space_group_name_Hall           'P 1'
loop_
_symmetry_equiv_pos_site_id
_symmetry_equiv_pos_as_xyz
1 x,y,z
_cell_length_a                   11.343(3)
_cell_length_b                   12.587(3)
_cell_length_c                   13.755(3)
_cell_angle_alpha                90
_cell_angle_beta                 90
_cell_angle_gamma                90
_cell_volume                     1963.86
loop_
_atom_site_label
_atom_site_type_symbol
_atom_site_fract_x
_atom_site_fract_y
_atom_site_fract_z
N7 N 0.3141(5) 0.0052(8) 0.6115(12)
C21 C 0.0643(6) 0.0050(10) 0.6164(13)
C22 C 0.1392(16) 0.0954(8) 0.6241(15)
H15 H 0.1032 0.1617 0.6274
C23 C 0.2542(12) 0.0928(8) 0.6270(13)
H16 H 0.2951 0.1551 0.6404
Ni4 Ni 0.5000 0.0032(2) 0.6095(2)
C19 C 0.2471(16) 0.9188(9) 0.5973(17)
H13 H 0.2875 0.8553 0.5881
C20 C 0.1231(14) 0.9125(8) 0.5944(15)
H14 H 0.0837 0.8500 0.5787
N8 N 0.3137(5) 0.0893(4) 0.3602(12)
C24 C 0.2505(6) 0.0005(6) 0.3620(18)
C26 C 0.0661(6) 0.0906(5) 0.3615(14)
C27 C 0.1321(6) 0.1840(6) 0.3603(17)
H19 H 0.0935 0.2491 0.3582
C28 C 0.2529(6) 0.1815(6) 0.3622(15)
H20 H 0.2942 0.2452 0.3651
Ni7 Ni 0.5000 0.08627(9) 0.3594(2)
H17 H 0.2897 0.9360 0.3686
C25 C 0.1308(7) 0.9999(6) 0.3546(18)
H18 H 0.0921 0.9356 0.3446
N4 N 0.6859(5) 0.0052(8) 0.6115(12)
C11 C 0.9357(6) 0.0050(10) 0.6164(13)
C12 C 0.8608(16) 0.0954(8) 0.6241(15)
H7 H 0.8968 0.1617 0.6274
C13 C 0.7458(12) 0.0928(8) 0.6270(13)
H8 H 0.7049 0.1551 0.6404
F4 F 0.5000 0.0224(7) 0.7559(7)
O3 O 0.5000 0.1648(10) 0.5968(10)
F1 F 0.5000 0.9715(7) 0.4645(6)
O1 O 0.5000 0.2135(7) 0.4479(7)
N1 N 0.5000 0.7629(7) 0.5860(7)
N2 N 0.5000 0.8377(11) 0.6386(10)
N3 N 0.5000 0.7047(8) 0.7369(10)
N5 N 0.6863(5) 0.0893(4) 0.3602(12)
N6 N 0.5000 0.8085(9) 0.7366(12)
C1 C 0.5000 0.6739(11) 0.6447(10)
C2 C 0.5000 0.5620(10) 0.6183(9)
C3 C 0.5000 0.5319(12) 0.5225(11)
H1 H 0.5000 0.5848 0.4752
C4 C 0.5000 0.4262(9) 0.4922(9)
H2 H 0.5000 0.4095 0.4264
C5 C 0.5000 0.3458(12) 0.5622(10)
C6 C 0.5000 0.3804(10) 0.6557(10)
H3 H 0.5000 0.3273 0.7027
C7 C 0.5000 0.4813(9) 0.6902(12)
H4 H 0.5000 0.4966 0.7564
C8 C 0.5000 0.2336(11) 0.5313(12)
C9 C 0.7529(16) 0.9188(9) 0.5973(17)
H5 H 0.7125 0.8553 0.5881
C10 C 0.8769(14) 0.9125(8) 0.5944(15)
H6 H 0.9163 0.8500 0.5787
C14 C 0.7495(6) 0.0005(6) 0.3620(18)
C16 C 0.9339(6) 0.0906(5) 0.3615(14)
C17 C 0.8679(6) 0.1840(6) 0.3603(17)
H11 H 0.9065 0.2491 0.3582
C18 C 0.7471(6) 0.1815(6) 0.3622(15)
H12 H 0.7058 0.2452 0.3651
Ni8 Ni 0.5000 0.91373(9) 0.8594(2)
N11 N 0.5000 0.1915(9) 0.2366(12)
F2 F 0.5000 0.9776(7) 0.2559(7)
H9 H 0.7103 0.9360 0.3686
C15 C 0.8692(7) 0.9999(6) 0.3546(18)
H10 H 0.9079 0.9356 0.3446
Ni5 Ni 0.5000 0.9968(2) 0.1095(2)
H9_2 H 0.2897 0.0640 0.8686
C15_2 C 0.1308(7) 0.0001(6) 0.8546(18)
H10_2 H 0.0921 0.0644 0.8446
F3 F 0.5000 0.0285(7) 0.9645(6)
O2 O 0.5000 0.8352(10) 0.0968(10)
N1_2 N 0.5000 0.2371(7) 0.0860(7)
N2_2 N 0.5000 0.1623(11) 0.1386(10)
N3_2 N 0.5000 0.2953(8) 0.2369(10)
C1_2 C 0.5000 0.3261(11) 0.1447(10)
C2_2 C 0.5000 0.4380(10) 0.1183(9)
C3_2 C 0.5000 0.4681(12) 0.0225(11)
C5_2 C 0.5000 0.6542(12) 0.0622(10)
C6_2 C 0.5000 0.6196(10) 0.1557(10)
H3_2 H 0.5000 0.6727 0.2027
C7_2 C 0.5000 0.5187(9) 0.1902(12)
H4_2 H 0.5000 0.5034 0.2564
C8_2 C 0.5000 0.7664(11) 0.0313(12)
C9_2 C 0.2471(16) 0.0812(9) 0.0973(17)
H5_2 H 0.2875 0.1447 0.0881
C10_2 C 0.1231(14) 0.0875(8) 0.0944(15)
H6_2 H 0.0837 0.1500 0.0787
O1_2 O 0.5000 0.7865(7) 0.9479(7)
N5_2 N 0.3137(5) 0.9107(4) 0.8602(12)
H1_2 H 0.5000 0.4152 0.9752
C4_2 C 0.5000 0.5738(9) 0.9922(9)
H2_2 H 0.5000 0.5905 0.9264
C14_2 C 0.2505(6) 0.9995(6) 0.8620(18)
C16_2 C 0.0661(6) 0.9094(5) 0.8615(14)
C17_2 C 0.1321(6) 0.8160(6) 0.8603(17)
H11_2 H 0.0935 0.7509 0.8582
C18_2 C 0.2529(6) 0.8185(6) 0.8622(15)
H12_2 H 0.2942 0.7548 0.8651
N10 N 0.6863(5) 0.9107(4) 0.8602(12)
N4_2 N 0.3141(5) 0.9948(8) 0.1115(12)
C11_2 C 0.0643(6) 0.9950(10) 0.1164(13)
C12_2 C 0.1392(16) 0.9046(8) 0.1241(15)
H7_2 H 0.1032 0.8383 0.1274
C13_2 C 0.2542(12) 0.9072(8) 0.1270(13)
H8_2 H 0.2951 0.8449 0.1404
N9 N 0.6859(5) 0.9948(8) 0.1115(12)
H17_2 H 0.7103 0.0640 0.8686
C25_2 C 0.8692(7) 0.0001(6) 0.8546(18)
H18_2 H 0.9079 0.0644 0.8446
C19_2 C 0.7529(16) 0.0812(9) 0.0973(17)
H13_2 H 0.7125 0.1447 0.0881
C20_2 C 0.8769(14) 0.0875(8) 0.0944(15)
H14_2 H 0.9163 0.1500 0.0787
C24_2 C 0.7495(6) 0.9995(6) 0.8620(18)
C26_2 C 0.9339(6) 0.9094(5) 0.8615(14)
C27_2 C 0.8679(6) 0.8160(6) 0.8603(17)
H19_2 H 0.9065 0.7509 0.8582
C28_2 C 0.7471(6) 0.8185(6) 0.8622(15)
H20_2 H 0.7058 0.7548 0.8651
C21_2 C 0.9357(6) 0.9950(10) 0.1164(13)
C22_2 C 0.8608(16) 0.9046(8) 0.1241(15)
H15_2 H 0.8968 0.8383 0.1274
C23_2 C 0.7458(12) 0.9072(8) 0.1270(13)
H16_2 H 0.7049 0.8449 0.1404
loop_
_geom_bond_atom_site_label_1
_geom_bond_atom_site_label_2
_geom_bond_site_symmetry_1
_geom_bond_site_symmetry_2
C22 C21 1_555 1_555
H15 C22 1_555 1_555
C23 N7 1_555 1_555
H16 C23 1_555 1_555
Ni4 N7 1_555 1_555
C22 C23 1_555 1_555
C19 H13 1_555 1_555
C20 C19 1_555 1_555
H14 C20 1_555 1_555
N8 C24 1_555 1_555
C27 C26 1_555 1_555
H19 C27 1_555 1_555
C28 N8 1_555 1_555
H20 C28 1_555 1_555
Ni7 N8 1_555 1_555
C27 C28 1_555 1_555
H18 C25 1_555 1_555
N4 Ni4 1_555 1_555
C12 C11 1_555 1_555
H7 C12 1_555 1_555
C13 N4 1_555 1_555
H8 C13 1_555 1_555
F4 Ni4 1_555 1_555
O3 Ni4 1_555 1_555
C12 C13 1_555 1_555
Ni7 O1 1_555 1_555
O1 C8 1_555 1_555
O3 C8 1_555 1_555
N1 N2 1_555 1_555
N3 N6 1_555 1_555
N5 Ni7 1_555 1_555
N6 N2 1_555 1_555
C1 N1 1_555 1_555
C2 C1 1_555 1_555
C3 C2 1_555 1_555
H1 C3 1_555 1_555
C4 C3 1_555 1_555
H2 C4 1_555 1_555
C5 C4 1_555 1_555
C6 C5 1_555 1_555
H3 C6 1_555 1_555
C7 C2 1_555 1_555
H4 C7 1_555 1_555
C8 C5 1_555 1_555
H5 C9 1_555 1_555
C10 C9 1_555 1_555
H6 C10 1_555 1_555
C14 N5 1_555 1_555
C17 C16 1_555 1_555
H11 C17 1_555 1_555
C18 N5 1_555 1_555
H12 C18 1_555 1_555
Ni8 N6 1_555 1_555
N11 Ni7 1_555 1_555
N3 C1 1_555 1_555
C6 C7 1_555 1_555
C17 C18 1_555 1_555
H10 C15 1_555 1_555
Ni5 F2 1_555 1_555
H10_2 C15_2 1_555 1_555
O2 C8_2 1_555 1_555
N1_2 N2_2 1_555 1_555
N3_2 N11 1_555 1_555
N11 N2_2 1_555 1_555
C1_2 N1_2 1_555 1_555
C2_2 C1_2 1_555 1_555
C3_2 C2_2 1_555 1_555
C6_2 C5_2 1_555 1_555
H3_2 C6_2 1_555 1_555
C7_2 C2_2 1_555 1_555
H4_2 C7_2 1_555 1_555
C8_2 C5_2 1_555 1_555
H5_2 C9_2 1_555 1_555
C10_2 C9_2 1_555 1_555
H6_2 C10_2 1_555 1_555
Ni5 O2 1_555 1_555
N3_2 C1_2 1_555 1_555
C6_2 C7_2 1_555 1_555
Ni8 O1_2 1_555 1_555
N5_2 Ni8 1_555 1_555
H2_2 C4_2 1_555 1_555
C14_2 N5_2 1_555 1_555
C17_2 C16_2 1_555 1_555
H11_2 C17_2 1_555 1_555
C18_2 N5_2 1_555 1_555
H12_2 C18_2 1_555 1_555
N10 Ni8 1_555 1_555
C17_2 C18_2 1_555 1_555
N4_2 Ni5 1_555 1_555
C12_2 C11_2 1_555 1_555
H7_2 C12_2 1_555 1_555
C13_2 N4_2 1_555 1_555
H8_2 C13_2 1_555 1_555
N9 Ni5 1_555 1_555
C12_2 C13_2 1_555 1_555
H18_2 C25_2 1_555 1_555
C19_2 H13_2 1_555 1_555
C20_2 C19_2 1_555 1_555
H14_2 C20_2 1_555 1_555
N10 C24_2 1_555 1_555
C27_2 C26_2 1_555 1_555
H19_2 C27_2 1_555 1_555
C28_2 N10 1_555 1_555
H20_2 C28_2 1_555 1_555
C27_2 C28_2 1_555 1_555
C22_2 C21_2 1_555 1_555
H15_2 C22_2 1_555 1_555
C23_2 N9 1_555 1_555
H16_2 C23_2 1_555 1_555
C22_2 C23_2 1_555 1_555

#END
