
###############################################################################
#
# This file contains modified crystal structure data generated from the
# MOF subset of the Cambridge Structural Database (CSD) v543 
# hosted by the Cambridge Crystallographic Data Centre (CCDC).
#
# This work is licensed under the Creative Commons
# Attribution-NonCommercial-ShareAlike 4.0 International License.
# To view a copy of this license, visit
# http://creativecommons.org/licenses/by-nc-sa/4.0/
# or send a letter to
# Creative Commons, PO Box 1866, Mountain View, CA 94042, USA.
#
# CIF created using the CSD Python API on 29 September 2022
# The structure has been converted into the P1 space group
# The structure has a 3D framework
# The original CSD entry JANQAT is in the trigonal crystal system
# The framework has been calculated to contain at least 10.0% void space
# The void calculation uses a probe of radius 1.32A, grid spacing 0.4
# The framework is charged, counterions have been retained in the structure
#
###############################################################################

data_JANQAT
_chemical_formula_moiety         '(C12 H12 Fe4 Mn2 O18 3-)n'
_symmetry_cell_setting           triclinic
_symmetry_space_group_name_H-M   'P 1'
_symmetry_Int_Tables_number      1
_space_group_name_Hall           'P 1'
loop_
_symmetry_equiv_pos_site_id
_symmetry_equiv_pos_as_xyz
1 x,y,z
_cell_length_a                   8.26740(10)
_cell_length_b                   8.26740(10)
_cell_length_c                   13.8761(2)
_cell_angle_alpha                90
_cell_angle_beta                 90
_cell_angle_gamma                120
_cell_volume                     821.365
loop_
_atom_site_label
_atom_site_type_symbol
_atom_site_fract_x
_atom_site_fract_y
_atom_site_fract_z
Fe3 Fe 0.0000 0.0000 0.0000
Fe3_2 Fe 0.0000 0.0000 1.0000
O2 O 0.0153(2) 0.2084(2) 0.08210(12)
O9 O 0.4531(4) 0.1110(3) 0.16637(14)
C5 C 0.3323(4) 0.1210(3) 0.11901(16)
H5 H 0.3457 0.2386 0.1101
Mn3 Mn 0.6667 0.3333 0.2500
Fe3_3 Fe 0.0000 1.0000 0.0000
Fe4 Fe -0.0000 0.0000 0.5000
Fe3_4 Fe 0.0000 1.0000 1.0000
O16 O 0.2084(2) 0.1931(3) 0.91790(12)
O10 O 0.1931(3) 0.9847(2) 0.08210(12)
Fe4_2 Fe -0.0000 1.0000 0.5000
Fe3_5 Fe 1.0000 0.0000 0.0000
Fe3_6 Fe 1.0000 0.0000 1.0000
O1 O 0.8890(3) 0.3421(2) 0.16637(14)
C1 C 0.8790(3) 0.2113(3) 0.11901(16)
H1 H 0.7614 0.1071 0.1101
O5 O 0.6579(2) 0.5469(4) 0.16637(14)
O6 O 0.7916(2) 0.8069(3) 0.08210(12)
C3 C 0.7887(3) 0.6677(4) 0.11901(16)
H3 H 0.8929 0.6543 0.1101
O11 O 0.6579(2) 0.1110(3) 0.33363(14)
C6 C 0.7887(3) 0.1210(3) 0.38099(16)
H6 H 0.8929 0.2386 0.3899
Fe3_7 Fe 1.0000 1.0000 0.0000
Fe4_3 Fe 1.0000 0.0000 0.5000
O13 O 0.4531(4) 0.3421(2) 0.33363(14)
O14 O 0.8890(3) 0.5469(4) 0.33363(14)
Fe3_8 Fe 1.0000 1.0000 1.0000
O17 O 0.8069(3) 0.0153(2) 0.91790(12)
O12 O 0.7916(2) 0.9847(2) 0.41790(12)
Fe4_4 Fe 1.0000 1.0000 0.5000
O15 O 0.9847(2) 0.7916(2) 0.91790(12)
O12_2 O 0.0153(2) 0.8069(3) 0.41790(12)
C6_2 C 0.8790(3) 0.6677(4) 0.38099(16)
H6_2 H 0.7614 0.6543 0.3899
O12_3 O 0.1931(3) 0.2084(2) 0.41790(12)
C6_3 C 0.3323(4) 0.2113(3) 0.38099(16)
H6_3 H 0.3457 0.1071 0.3899
O15_2 O 0.2084(2) 0.0153(2) 0.58210(12)
O17_2 O 0.9847(2) 0.1931(3) 0.58210(12)
O16_2 O 0.8069(3) 0.7916(2) 0.58210(12)
O3 O 0.3421(2) 0.4531(4) 0.83363(14)
C2 C 0.2113(3) 0.3323(4) 0.88099(16)
H2 H 0.1071 0.3457 0.8899
Mn2 Mn 0.3333 0.6667 0.7500
O1_2 O 0.1110(3) 0.6579(2) 0.83363(14)
C1_2 C 0.1210(3) 0.7887(3) 0.88099(16)
H1_2 H 0.2386 0.8929 0.8899
O7 O 0.5469(4) 0.8890(3) 0.83363(14)
C4 C 0.6677(4) 0.8790(3) 0.88099(16)
H4 H 0.6543 0.7614 0.8899
O11_2 O 0.3421(2) 0.8890(3) 0.66637(14)
C6_4 C 0.2113(3) 0.8790(3) 0.61901(16)
H6_4 H 0.1071 0.7614 0.6101
O13_2 O 0.5469(4) 0.6579(2) 0.66637(14)
O14_2 O 0.1110(3) 0.4531(4) 0.66637(14)
C6_5 C 0.1210(3) 0.3323(4) 0.61901(16)
H6_5 H 0.2386 0.3457 0.6101
C6_6 C 0.6677(4) 0.7887(3) 0.61901(16)
H6_6 H 0.6543 0.8929 0.6101
loop_
_geom_bond_atom_site_label_1
_geom_bond_atom_site_label_2
_geom_bond_site_symmetry_1
_geom_bond_site_symmetry_2
Fe3 O2 1_555 1_555
O9 C5 1_555 1_555
H5 C5 1_555 1_555
Mn3 O9 1_555 1_555
O16 Fe3_2 1_555 1_555
O10 Fe3_3 1_555 1_555
Mn3 O1 1_555 1_555
O1 C1 1_555 1_555
C1 H1 1_555 1_555
O5 Mn3 1_555 1_555
O6 C3 1_555 1_555
C3 O5 1_555 1_555
H3 C3 1_555 1_555
O11 Mn3 1_555 1_555
C6 O11 1_555 1_555
H6 C6 1_555 1_555
Fe3_7 O6 1_555 1_555
O13 Mn3 1_555 1_555
O14 Mn3 1_555 1_555
O17 Fe3_6 1_555 1_555
Fe4_4 O12 1_555 1_555
O15 Fe3_8 1_555 1_555
Fe4_2 O12_2 1_555 1_555
C6_2 O14 1_555 1_555
H6_2 C6_2 1_555 1_555
O12_3 C6_3 1_555 1_555
C6_3 O13 1_555 1_555
H6_3 C6_3 1_555 1_555
Fe4 O12_3 1_555 1_555
O15_2 Fe4 1_555 1_555
O17_2 Fe4_3 1_555 1_555
O16_2 Fe4_4 1_555 1_555
O3 C2 1_555 1_555
C2 O16 1_555 1_555
H2 C2 1_555 1_555
Mn2 O3 1_555 1_555
Mn2 O1_2 1_555 1_555
O1_2 C1_2 1_555 1_555
C1_2 H1_2 1_555 1_555
O7 Mn2 1_555 1_555
C4 O7 1_555 1_555
H4 C4 1_555 1_555
O11_2 Mn2 1_555 1_555
C6_4 O11_2 1_555 1_555
H6_4 C6_4 1_555 1_555
O13_2 Mn2 1_555 1_555
O14_2 Mn2 1_555 1_555
C6_5 O14_2 1_555 1_555
H6_5 C6_5 1_555 1_555
O16_2 C6_6 1_555 1_555
C6_6 O13_2 1_555 1_555
H6_6 C6_6 1_555 1_555

#END
