
###############################################################################
#
# This file contains modified crystal structure data generated from the
# MOF subset of the Cambridge Structural Database (CSD) v543 
# hosted by the Cambridge Crystallographic Data Centre (CCDC).
#
# This work is licensed under the Creative Commons
# Attribution-NonCommercial-ShareAlike 4.0 International License.
# To view a copy of this license, visit
# http://creativecommons.org/licenses/by-nc-sa/4.0/
# or send a letter to
# Creative Commons, PO Box 1866, Mountain View, CA 94042, USA.
#
# CIF created using the CSD Python API on 29 September 2022
# The structure has been converted into the P1 space group
# The structure has a 3D framework
# The original CSD entry JAPNOH is in the monoclinic crystal system
# The framework has been calculated to contain at least 10.0% void space
# The void calculation uses a probe of radius 1.32A, grid spacing 0.4
#
###############################################################################

data_JAPNOH
_chemical_formula_moiety         '(C168 H112 Cd4 N8 O14)n'
_symmetry_cell_setting           triclinic
_symmetry_space_group_name_H-M   'P 1'
_symmetry_Int_Tables_number      1
_space_group_name_Hall           'P 1'
loop_
_symmetry_equiv_pos_site_id
_symmetry_equiv_pos_as_xyz
1 x,y,z
_cell_length_a                   14.4126(2)
_cell_length_b                   20.6834(4)
_cell_length_c                   16.4770(3)
_cell_angle_alpha                90
_cell_angle_beta                 104.140(2)
_cell_angle_gamma                90
_cell_volume                     4763
loop_
_atom_site_label
_atom_site_type_symbol
_atom_site_fract_x
_atom_site_fract_y
_atom_site_fract_z
O8 O 0.2832(3) 0.8319(2) 0.0624(2)
Cd7 Cd 0.44227(2) 0.84008(2) 0.13125(2)
C1 C 0.2542(3) 0.8271(2) 0.3014(3)
C2 C 0.3605(3) 0.8350(3) 0.3233(3)
C3 C 0.9563(4) 0.8439(3) 0.7150(3)
C4 C 0.7914(4) 0.8441(3) 0.5812(3)
C5 C 0.7045(4) 0.8438(3) 0.5097(3)
C6 C 0.0534(3) 0.8172(3) 0.2609(3)
C9 C 0.5228(4) 0.0566(3) 0.3935(4)
H3 H 0.485739 0.081594 0.420349
C10 C 0.5855(4) 0.0863(3) 0.3521(3)
C11 C 0.8665(4) 0.8578(3) 0.7283(3)
H4 H 0.860916 0.867380 0.782061
C12 C 0.7849(4) 0.8575(3) 0.6621(3)
H5 H 0.725471 0.866388 0.672268
C13 C 0.5679(6) 0.2710(3) 0.3820(4)
C14 C 0.9624(4) 0.8306(3) 0.6336(4)
C15 C 0.2015(4) 0.8326(4) 0.2199(4)
H7 H 0.232879 0.839160 0.177518
C16 C 0.6379(5) 0.0453(3) 0.3135(4)
H8 H 0.680477 0.062554 0.284971
C17 C 0.1069(4) 0.8093(4) 0.3422(4)
H9 H 0.075842 0.800199 0.384124
C18 C 0.8807(4) 0.8308(3) 0.5678(3)
H10 H 0.886188 0.821950 0.513792
C19 C 0.5960(5) 0.1562(3) 0.3465(4)
H11 H 0.630493 0.171378 0.309488
C20 C 0.4823(6) 0.3071(3) 0.3640(4)
C21 C 0.2062(4) 0.8146(4) 0.3628(4)
H12 H 0.240368 0.809710 0.418167
C22 C 0.4855(6) 0.3762(4) 0.3559(4)
C23 C 0.5611(5) 0.1999(3) 0.3893(4)
H13 H 0.528933 0.184455 0.427851
C24 C 0.1026(4) 0.8287(4) 0.2000(4)
H14 H 0.068672 0.833807 0.144683
C25 C 0.5742(7) 0.4081(4) 0.3669(5)
C26 C 0.4971(6) 0.6994(3) 0.4179(4)
H15 H 0.460728 0.725049 0.444671
C27 C 0.6563(6) 0.3024(3) 0.3925(4)
C28 C 0.6588(7) 0.3714(4) 0.3838(5)
C29 C 0.3921(6) 0.2758(4) 0.3520(5)
H16 H 0.389750 0.231188 0.357831
C30 C 0.5451(7) 0.5930(3) 0.3870(5)
C31 C 0.6006(7) 0.6899(4) 0.3337(6)
H17 H 0.637298 0.709168 0.301165
C32 C 0.3952(7) 0.4089(4) 0.3334(5)
H18 H 0.394716 0.453481 0.326248
C33 C 0.7461(7) 0.2685(4) 0.4140(5)
H19 H 0.746107 0.223965 0.421585
C34 C 0.6002(7) 0.6238(3) 0.3384(6)
H20 H 0.635940 0.599432 0.309647
C35 C 0.4924(7) 0.6330(3) 0.4262(5)
H21 H 0.453843 0.615210 0.458150
C36 C 0.5400(8) 0.5220(4) 0.3954(5)
H22 H 0.503790 0.506408 0.430730
C37 C 0.5813(7) 0.4793(4) 0.3579(5)
H23 H 0.618141 0.494455 0.322765
C38 C 0.3115(8) 0.3778(4) 0.3222(7)
H24 H 0.254456 0.400970 0.307776
C39 C 0.3095(7) 0.3101(5) 0.3322(6)
H25 H 0.251182 0.288841 0.325146
C40 C 0.8296(7) 0.2995(4) 0.4235(7)
H26 H 0.886132 0.275751 0.436629
C41 C 0.8342(8) 0.3669(5) 0.4141(9)
H27 H 0.892918 0.387475 0.420475
C42 C 0.7531(8) 0.4010(4) 0.3958(7)
H28 H 0.756926 0.445587 0.390536
Cd1 Cd 0.55773(2) 0.84008(2) 0.36875(2)
N2 N 0.5510(4) 0.7285(2) 0.3737(3)
O1 O 0.4039(2) 0.83427(18) 0.2648(2)
O2 O 0.4045(2) 0.8417(2) 0.3981(2)
O3 O 0.6238(2) 0.85535(19) 0.5221(2)
O4 O 0.7168(3) 0.8319(2) 0.4376(2)
H35 H 0.978415 0.821410 0.876819
N5 N 0.5674(3) 0.9505(2) 0.3569(3)
O10 O 0.5961(2) 0.83427(18) 0.2352(2)
C7 C 0.6272(4) 0.9790(3) 0.3172(4)
H1 H 0.663299 0.952850 0.290657
C8 C 0.5165(4) 0.9907(3) 0.3940(4)
H2 H 0.474158 0.972228 0.421890
C43 C 0.7458(3) 0.8271(2) 0.1986(3)
C44 C 0.6395(3) 0.8350(3) 0.1767(3)
C45 C 0.9466(3) 0.8172(3) 0.2391(3)
C46 C 0.7985(4) 0.8326(4) 0.2801(4)
H29 H 0.767121 0.839160 0.322482
C47 C 0.8931(4) 0.8093(4) 0.1578(4)
H30 H 0.924158 0.800199 0.115876
C48 C 0.7938(4) 0.8146(4) 0.1372(4)
H31 H 0.759632 0.809710 0.081833
C49 C 0.8974(4) 0.8287(4) 0.3000(4)
H32 H 0.931328 0.833807 0.355317
O6 O 0.5955(2) 0.8417(2) 0.1019(2)
C59 C 0.4772(4) 0.0566(3) 0.1065(4)
H39 H 0.514261 0.081594 0.079651
C60 C 0.4145(4) 0.0863(3) 0.1479(3)
C61 C 0.4321(6) 0.2710(3) 0.1180(4)
C62 C 0.3621(5) 0.0453(3) 0.1865(4)
H40 H 0.319523 0.062554 0.215029
C63 C 0.4040(5) 0.1562(3) 0.1535(4)
H41 H 0.369507 0.171378 0.190512
C64 C 0.5177(6) 0.3071(3) 0.1360(4)
C65 C 0.5145(6) 0.3762(4) 0.1441(4)
C66 C 0.4389(5) 0.1999(3) 0.1107(4)
H42 H 0.471067 0.184455 0.072149
C67 C 0.4258(7) 0.4081(4) 0.1331(5)
C68 C 0.5029(6) 0.6994(3) 0.0821(4)
H43 H 0.539272 0.725049 0.055329
C69 C 0.3437(6) 0.3024(3) 0.1075(4)
C70 C 0.3412(7) 0.3714(4) 0.1162(5)
C71 C 0.6079(6) 0.2758(4) 0.1480(5)
H44 H 0.610250 0.231188 0.142169
C72 C 0.4549(7) 0.5930(3) 0.1130(5)
C73 C 0.3994(7) 0.6899(4) 0.1663(6)
H45 H 0.362702 0.709168 0.198835
C74 C 0.6048(7) 0.4089(4) 0.1666(5)
H46 H 0.605284 0.453481 0.173752
C75 C 0.2539(7) 0.2685(4) 0.0860(5)
H47 H 0.253893 0.223965 0.078415
C76 C 0.3998(7) 0.6238(3) 0.1616(6)
H48 H 0.364060 0.599432 0.190353
C77 C 0.5076(7) 0.6330(3) 0.0738(5)
H49 H 0.546157 0.615210 0.041850
C78 C 0.4600(8) 0.5220(4) 0.1046(5)
H50 H 0.496210 0.506408 0.069270
C79 C 0.4187(7) 0.4793(4) 0.1421(5)
H51 H 0.381859 0.494455 0.177235
C80 C 0.6885(8) 0.3778(4) 0.1778(7)
H52 H 0.745544 0.400970 0.192224
C81 C 0.6905(7) 0.3101(5) 0.1678(6)
H53 H 0.748818 0.288841 0.174854
C82 C 0.1704(7) 0.2995(4) 0.0765(7)
H54 H 0.113868 0.275751 0.063371
C83 C 0.1658(8) 0.3669(5) 0.0859(9)
H55 H 0.107082 0.387475 0.079525
C84 C 0.2469(8) 0.4010(4) 0.1042(7)
H56 H 0.243074 0.445587 0.109464
N4 N 0.4490(4) 0.7285(2) 0.1263(3)
N6 N 0.4326(3) 0.9505(2) 0.1431(3)
C57 C 0.3728(4) 0.9790(3) 0.1828(4)
H37 H 0.336701 0.952850 0.209343
C58 C 0.4835(4) 0.9907(3) 0.1060(4)
H38 H 0.525842 0.972228 0.078110
H6 H 0.021585 0.821410 0.623181
C50 C 0.0437(4) 0.8439(3) 0.7850(3)
C51 C 0.2086(4) 0.8441(3) 0.9188(3)
C52 C 0.2955(4) 0.8438(3) 0.9903(3)
C53 C 0.1335(4) 0.8578(3) 0.7717(3)
H33 H 0.139084 0.867380 0.717939
C54 C 0.2151(4) 0.8575(3) 0.8379(3)
H34 H 0.274529 0.866388 0.827732
C55 C 0.0376(4) 0.8306(3) 0.8664(4)
C56 C 0.1193(4) 0.8308(3) 0.9322(3)
H36 H 0.113812 0.821950 0.986208
O7 O 0.3762(2) 0.85535(19) 0.9779(2)
C57_2 C 0.6272(4) 0.0210(3) 0.8172(4)
H37_2 H 0.663299 0.047150 0.790657
C58_2 C 0.5165(4) 0.0093(3) 0.8940(4)
H38_2 H 0.474158 0.027772 0.921890
N3 N 0.5674(3) 0.0495(2) 0.8569(3)
Cd5 Cd 0.55773(2) 0.15992(2) 0.86875(2)
C43_2 C 0.2542(3) 0.1729(2) 0.8014(3)
C44_2 C 0.3605(3) 0.1650(3) 0.8233(3)
C45_2 C 0.0534(3) 0.1828(3) 0.7609(3)
C46_2 C 0.2015(4) 0.1674(4) 0.7199(4)
H29_2 H 0.232879 0.160840 0.677518
C47_2 C 0.1069(4) 0.1907(4) 0.8422(4)
H30_2 H 0.075842 0.199801 0.884124
C48_2 C 0.2062(4) 0.1854(4) 0.8628(4)
H31_2 H 0.240368 0.190290 0.918167
C49_2 C 0.1026(4) 0.1713(4) 0.7000(4)
H32_2 H 0.068672 0.166193 0.644683
O5 O 0.4039(2) 0.16573(18) 0.7648(2)
O6_2 O 0.4045(2) 0.1583(2) 0.8981(2)
C59_2 C 0.5228(4) 0.9434(3) 0.8935(4)
H39_2 H 0.485739 0.918406 0.920349
C60_2 C 0.5855(4) 0.9137(3) 0.8521(3)
C61_2 C 0.5679(6) 0.7290(3) 0.8820(4)
C62_2 C 0.6379(5) 0.9547(3) 0.8135(4)
H40_2 H 0.680477 0.937446 0.784971
C63_2 C 0.5960(5) 0.8438(3) 0.8465(4)
H41_2 H 0.630493 0.828622 0.809488
C64_2 C 0.4823(6) 0.6929(3) 0.8640(4)
C65_2 C 0.4855(6) 0.6238(4) 0.8559(4)
C66_2 C 0.5611(5) 0.8001(3) 0.8893(4)
H42_2 H 0.528933 0.815545 0.927851
C67_2 C 0.5742(7) 0.5919(4) 0.8669(5)
C68_2 C 0.4971(6) 0.3006(3) 0.9179(4)
H43_2 H 0.460728 0.274951 0.944671
C69_2 C 0.6563(6) 0.6976(3) 0.8925(4)
C70_2 C 0.6588(7) 0.6286(4) 0.8838(5)
C71_2 C 0.3921(6) 0.7242(4) 0.8520(5)
H44_2 H 0.389750 0.768812 0.857831
C72_2 C 0.5451(7) 0.4070(3) 0.8870(5)
C73_2 C 0.6006(7) 0.3101(4) 0.8337(6)
H45_2 H 0.637298 0.290832 0.801165
C74_2 C 0.3952(7) 0.5911(4) 0.8334(5)
H46_2 H 0.394716 0.546519 0.826248
C75_2 C 0.7461(7) 0.7315(4) 0.9140(5)
H47_2 H 0.746107 0.776035 0.921585
C76_2 C 0.6002(7) 0.3762(3) 0.8384(6)
H48_2 H 0.635940 0.400568 0.809647
C77_2 C 0.4924(7) 0.3670(3) 0.9262(5)
H49_2 H 0.453843 0.384790 0.958150
C78_2 C 0.5400(8) 0.4780(4) 0.8954(5)
H50_2 H 0.503790 0.493592 0.930730
C79_2 C 0.5813(7) 0.5207(4) 0.8579(5)
H51_2 H 0.618141 0.505545 0.822765
C80_2 C 0.3115(8) 0.6222(4) 0.8222(7)
H52_2 H 0.254456 0.599030 0.807776
C81_2 C 0.3095(7) 0.6899(5) 0.8322(6)
H53_2 H 0.251182 0.711159 0.825146
C82_2 C 0.8296(7) 0.7005(4) 0.9235(7)
H54_2 H 0.886132 0.724249 0.936629
C83_2 C 0.8342(8) 0.6331(5) 0.9141(9)
H55_2 H 0.892918 0.612525 0.920475
C84_2 C 0.7531(8) 0.5990(4) 0.8958(7)
H56_2 H 0.756926 0.554413 0.890536
N4_2 N 0.5510(4) 0.2715(2) 0.8737(3)
Cd3 Cd 0.44227(2) 0.15992(2) 0.63125(2)
O9 O 0.5961(2) 0.16573(18) 0.7352(2)
O12 O 0.7168(3) 0.1681(2) 0.9376(2)
C7_2 C 0.3728(4) 0.0210(3) 0.6828(4)
H1_2 H 0.336701 0.047150 0.709343
C8_2 C 0.4835(4) 0.0093(3) 0.6060(4)
H2_2 H 0.525842 0.027772 0.578110
N1 N 0.4326(3) 0.0495(2) 0.6431(3)
C1_2 C 0.7458(3) 0.1729(2) 0.6986(3)
C2_2 C 0.6395(3) 0.1650(3) 0.6767(3)
C3_2 C 0.0437(4) 0.1561(3) 0.2850(3)
C4_2 C 0.2086(4) 0.1559(3) 0.4188(3)
C5_2 C 0.2955(4) 0.1562(3) 0.4903(3)
C6_2 C 0.9466(3) 0.1828(3) 0.7391(3)
C9_2 C 0.4772(4) 0.9434(3) 0.6065(4)
H3_2 H 0.514261 0.918406 0.579651
C10_2 C 0.4145(4) 0.9137(3) 0.6479(3)
C11_2 C 0.1335(4) 0.1422(3) 0.2717(3)
H4_2 H 0.139084 0.132620 0.217939
C12_2 C 0.2151(4) 0.1425(3) 0.3379(3)
H5_2 H 0.274529 0.133612 0.327732
C13_2 C 0.4321(6) 0.7290(3) 0.6180(4)
C14_2 C 0.0376(4) 0.1694(3) 0.3664(4)
C15_2 C 0.7985(4) 0.1674(4) 0.7801(4)
H7_2 H 0.767121 0.160840 0.822482
C16_2 C 0.3621(5) 0.9547(3) 0.6865(4)
H8_2 H 0.319523 0.937446 0.715029
C17_2 C 0.8931(4) 0.1907(4) 0.6578(4)
H9_2 H 0.924158 0.199801 0.615876
C18_2 C 0.1193(4) 0.1692(3) 0.4322(3)
H10_2 H 0.113812 0.178050 0.486208
C19_2 C 0.4040(5) 0.8438(3) 0.6535(4)
H11_2 H 0.369507 0.828622 0.690512
C20_2 C 0.5177(6) 0.6929(3) 0.6360(4)
C21_2 C 0.7938(4) 0.1854(4) 0.6372(4)
H12_2 H 0.759632 0.190290 0.581833
C22_2 C 0.5145(6) 0.6238(4) 0.6441(4)
C23_2 C 0.4389(5) 0.8001(3) 0.6107(4)
H13_2 H 0.471067 0.815545 0.572149
C24_2 C 0.8974(4) 0.1713(4) 0.8000(4)
H14_2 H 0.931328 0.166193 0.855317
C25_2 C 0.4258(7) 0.5919(4) 0.6331(5)
C26_2 C 0.5029(6) 0.3006(3) 0.5821(4)
H15_2 H 0.539272 0.274951 0.555329
C27_2 C 0.3437(6) 0.6976(3) 0.6075(4)
C28_2 C 0.3412(7) 0.6286(4) 0.6162(5)
C29_2 C 0.6079(6) 0.7242(4) 0.6480(5)
H16_2 H 0.610250 0.768812 0.642169
C30_2 C 0.4549(7) 0.4070(3) 0.6130(5)
C31_2 C 0.3994(7) 0.3101(4) 0.6663(6)
H17_2 H 0.362702 0.290832 0.698835
C32_2 C 0.6048(7) 0.5911(4) 0.6666(5)
H18_2 H 0.605284 0.546519 0.673752
C33_2 C 0.2539(7) 0.7315(4) 0.5860(5)
H19_2 H 0.253893 0.776035 0.578415
C34_2 C 0.3998(7) 0.3762(3) 0.6616(6)
H20_2 H 0.364060 0.400568 0.690353
C35_2 C 0.5076(7) 0.3670(3) 0.5738(5)
H21_2 H 0.546157 0.384790 0.541850
C36_2 C 0.4600(8) 0.4780(4) 0.6046(5)
H22_2 H 0.496210 0.493592 0.569270
C37_2 C 0.4187(7) 0.5207(4) 0.6421(5)
H23_2 H 0.381859 0.505545 0.677235
C38_2 C 0.6885(8) 0.6222(4) 0.6778(7)
H24_2 H 0.745544 0.599030 0.692224
C39_2 C 0.6905(7) 0.6899(5) 0.6678(6)
H25_2 H 0.748818 0.711159 0.674854
C40_2 C 0.1704(7) 0.7005(4) 0.5765(7)
H26_2 H 0.113868 0.724249 0.563371
C41_2 C 0.1658(8) 0.6331(5) 0.5859(9)
H27_2 H 0.107082 0.612525 0.579525
C42_2 C 0.2469(8) 0.5990(4) 0.6042(7)
H28_2 H 0.243074 0.554413 0.609464
N2_2 N 0.4490(4) 0.2715(2) 0.6263(3)
O2_2 O 0.5955(2) 0.1583(2) 0.6019(2)
O3_2 O 0.3762(2) 0.14465(19) 0.4779(2)
O4_2 O 0.2832(3) 0.1681(2) 0.5624(2)
H35_2 H 0.021585 0.178590 0.123181
O11 O 0.6238(2) 0.14465(19) 0.0221(2)
H6_2 H 0.978415 0.178590 0.376819
C50_2 C 0.9563(4) 0.1561(3) 0.2150(3)
C51_2 C 0.7914(4) 0.1559(3) 0.0812(3)
C52_2 C 0.7045(4) 0.1562(3) 0.0097(3)
C53_2 C 0.8665(4) 0.1422(3) 0.2283(3)
H33_2 H 0.860916 0.132620 0.282061
C54_2 C 0.7849(4) 0.1425(3) 0.1621(3)
H34_2 H 0.725471 0.133612 0.172268
C55_2 C 0.9624(4) 0.1694(3) 0.1336(4)
C56_2 C 0.8807(4) 0.1692(3) 0.0678(3)
H36_2 H 0.886188 0.178050 0.013792
loop_
_geom_bond_atom_site_label_1
_geom_bond_atom_site_label_2
_geom_bond_site_symmetry_1
_geom_bond_site_symmetry_2
Cd7 O8 1_555 1_555
C1 C2 1_555 1_555
C2 O1 1_555 1_555
C3 C11 1_555 1_555
C4 C5 1_555 1_555
C5 O3 1_555 1_555
C6 C17 1_555 1_555
H3 C9 1_555 1_555
C10 C9 1_555 1_555
C11 H4 1_555 1_555
C12 C4 1_555 1_555
H5 C12 1_555 1_555
C13 C20 1_555 1_555
C14 C3 1_555 1_555
C15 C1 1_555 1_555
H7 C15 1_555 1_555
H8 C16 1_555 1_555
C17 H9 1_555 1_555
C18 C4 1_555 1_555
H10 C18 1_555 1_555
C19 C10 1_555 1_555
H11 C19 1_555 1_555
C20 C22 1_555 1_555
C21 C1 1_555 1_555
H12 C21 1_555 1_555
C22 C25 1_555 1_555
C23 C13 1_555 1_555
H13 C23 1_555 1_555
C24 C6 1_555 1_555
H14 C24 1_555 1_555
C25 C28 1_555 1_555
C26 H15 1_555 1_555
C27 C13 1_555 1_555
C28 C27 1_555 1_555
C29 C20 1_555 1_555
H16 C29 1_555 1_555
C30 C34 1_555 1_555
C31 H17 1_555 1_555
C32 C22 1_555 1_555
H18 C32 1_555 1_555
C33 C27 1_555 1_555
H19 C33 1_555 1_555
C34 C31 1_555 1_555
H20 C34 1_555 1_555
C35 C26 1_555 1_555
H21 C35 1_555 1_555
C36 C30 1_555 1_555
H22 C36 1_555 1_555
C37 C25 1_555 1_555
H23 C37 1_555 1_555
C38 C32 1_555 1_555
H24 C38 1_555 1_555
C39 C29 1_555 1_555
H25 C39 1_555 1_555
C40 C33 1_555 1_555
H26 C40 1_555 1_555
C41 C40 1_555 1_555
H27 C41 1_555 1_555
C42 C28 1_555 1_555
H28 C42 1_555 1_555
Cd1 N2 1_555 1_555
N2 C26 1_555 1_555
O1 Cd1 1_555 1_555
O2 C2 1_555 1_555
O3 Cd1 1_555 1_555
O4 C5 1_555 1_555
Cd7 O1 1_555 1_555
N5 Cd1 1_555 1_555
O10 Cd1 1_555 1_555
C10 C16 1_555 1_555
C11 C12 1_555 1_555
C14 C18 1_555 1_555
C15 C24 1_555 1_555
C17 C21 1_555 1_555
C19 C23 1_555 1_555
C30 C35 1_555 1_555
C31 N2 1_555 1_555
C36 C37 1_555 1_555
C38 C39 1_555 1_555
C41 C42 1_555 1_555
Cd1 O2 1_555 1_555
Cd1 O4 1_555 1_555
Cd7 O10 1_555 1_555
C7 H1 1_555 1_555
C8 H2 1_555 1_555
N5 C7 1_555 1_555
C8 N5 1_555 1_555
C43 C44 1_555 1_555
C44 O10 1_555 1_555
C46 C43 1_555 1_555
H29 C46 1_555 1_555
C47 C45 1_555 1_555
H30 C47 1_555 1_555
C48 C43 1_555 1_555
H31 C48 1_555 1_555
C49 C45 1_555 1_555
H32 C49 1_555 1_555
O6 C44 1_555 1_555
H39 C59 1_555 1_555
C60 C59 1_555 1_555
C61 C64 1_555 1_555
H40 C62 1_555 1_555
C63 C60 1_555 1_555
H41 C63 1_555 1_555
C64 C65 1_555 1_555
C65 C67 1_555 1_555
C66 C61 1_555 1_555
H42 C66 1_555 1_555
C67 C70 1_555 1_555
C68 H43 1_555 1_555
C69 C61 1_555 1_555
C70 C69 1_555 1_555
C71 C64 1_555 1_555
H44 C71 1_555 1_555
C72 C76 1_555 1_555
C73 H45 1_555 1_555
C74 C65 1_555 1_555
H46 C74 1_555 1_555
C75 C69 1_555 1_555
H47 C75 1_555 1_555
C76 C73 1_555 1_555
H48 C76 1_555 1_555
C77 C68 1_555 1_555
H49 C77 1_555 1_555
C78 C72 1_555 1_555
H50 C78 1_555 1_555
C79 C67 1_555 1_555
H51 C79 1_555 1_555
C80 C74 1_555 1_555
H52 C80 1_555 1_555
C81 C71 1_555 1_555
H53 C81 1_555 1_555
C82 C75 1_555 1_555
H54 C82 1_555 1_555
C83 C82 1_555 1_555
H55 C83 1_555 1_555
C84 C70 1_555 1_555
H56 C84 1_555 1_555
Cd7 O6 1_555 1_555
N4 C68 1_555 1_555
N6 Cd7 1_555 1_555
C46 C49 1_555 1_555
C47 C48 1_555 1_555
C60 C62 1_555 1_555
C63 C66 1_555 1_555
C72 C77 1_555 1_555
C73 N4 1_555 1_555
C78 C79 1_555 1_555
C80 C81 1_555 1_555
C83 C84 1_555 1_555
Cd7 N4 1_555 1_555
C57 H37 1_555 1_555
C58 H38 1_555 1_555
N6 C57 1_555 1_555
C58 N6 1_555 1_555
C51 C52 1_555 1_555
C52 O7 1_555 1_555
C53 C50 1_555 1_555
H33 C53 1_555 1_555
C54 C51 1_555 1_555
H34 C54 1_555 1_555
C55 C50 1_555 1_555
C56 C51 1_555 1_555
H36 C56 1_555 1_555
C53 C54 1_555 1_555
C55 C56 1_555 1_555
C57_2 H37_2 1_555 1_555
C58_2 H38_2 1_555 1_555
N3 C57_2 1_555 1_555
Cd5 N3 1_555 1_555
C58_2 N3 1_555 1_555
C43_2 C44_2 1_555 1_555
C44_2 O5 1_555 1_555
C46_2 C43_2 1_555 1_555
H29_2 C46_2 1_555 1_555
C47_2 C45_2 1_555 1_555
H30_2 C47_2 1_555 1_555
C48_2 C43_2 1_555 1_555
H31_2 C48_2 1_555 1_555
C49_2 C45_2 1_555 1_555
H32_2 C49_2 1_555 1_555
O5 Cd5 1_555 1_555
O6_2 C44_2 1_555 1_555
H39_2 C59_2 1_555 1_555
C60_2 C59_2 1_555 1_555
C61_2 C64_2 1_555 1_555
H40_2 C62_2 1_555 1_555
C63_2 C60_2 1_555 1_555
H41_2 C63_2 1_555 1_555
C64_2 C65_2 1_555 1_555
C65_2 C67_2 1_555 1_555
C66_2 C61_2 1_555 1_555
H42_2 C66_2 1_555 1_555
C67_2 C70_2 1_555 1_555
C68_2 H43_2 1_555 1_555
C69_2 C61_2 1_555 1_555
C70_2 C69_2 1_555 1_555
C71_2 C64_2 1_555 1_555
H44_2 C71_2 1_555 1_555
C72_2 C76_2 1_555 1_555
C73_2 H45_2 1_555 1_555
C74_2 C65_2 1_555 1_555
H46_2 C74_2 1_555 1_555
C75_2 C69_2 1_555 1_555
H47_2 C75_2 1_555 1_555
C76_2 C73_2 1_555 1_555
H48_2 C76_2 1_555 1_555
C77_2 C68_2 1_555 1_555
H49_2 C77_2 1_555 1_555
C78_2 C72_2 1_555 1_555
H50_2 C78_2 1_555 1_555
C79_2 C67_2 1_555 1_555
H51_2 C79_2 1_555 1_555
C80_2 C74_2 1_555 1_555
H52_2 C80_2 1_555 1_555
C81_2 C71_2 1_555 1_555
H53_2 C81_2 1_555 1_555
C82_2 C75_2 1_555 1_555
H54_2 C82_2 1_555 1_555
C83_2 C82_2 1_555 1_555
H55_2 C83_2 1_555 1_555
C84_2 C70_2 1_555 1_555
H56_2 C84_2 1_555 1_555
Cd5 O6_2 1_555 1_555
N4_2 C68_2 1_555 1_555
Cd3 O5 1_555 1_555
O9 Cd5 1_555 1_555
O12 Cd5 1_555 1_555
C46_2 C49_2 1_555 1_555
C47_2 C48_2 1_555 1_555
C60_2 C62_2 1_555 1_555
C63_2 C66_2 1_555 1_555
C72_2 C77_2 1_555 1_555
C73_2 N4_2 1_555 1_555
C78_2 C79_2 1_555 1_555
C80_2 C81_2 1_555 1_555
C83_2 C84_2 1_555 1_555
Cd5 N4_2 1_555 1_555
Cd3 O9 1_555 1_555
C7_2 H1_2 1_555 1_555
C8_2 H2_2 1_555 1_555
N1 C7_2 1_555 1_555
Cd3 N1 1_555 1_555
C8_2 N1 1_555 1_555
C1_2 C2_2 1_555 1_555
C2_2 O9 1_555 1_555
C3_2 C11_2 1_555 1_555
C4_2 C5_2 1_555 1_555
C5_2 O3_2 1_555 1_555
C6_2 C17_2 1_555 1_555
H3_2 C9_2 1_555 1_555
C10_2 C9_2 1_555 1_555
C11_2 H4_2 1_555 1_555
C12_2 C4_2 1_555 1_555
H5_2 C12_2 1_555 1_555
C13_2 C20_2 1_555 1_555
C14_2 C3_2 1_555 1_555
C15_2 C1_2 1_555 1_555
H7_2 C15_2 1_555 1_555
H8_2 C16_2 1_555 1_555
C17_2 H9_2 1_555 1_555
C18_2 C4_2 1_555 1_555
H10_2 C18_2 1_555 1_555
C19_2 C10_2 1_555 1_555
H11_2 C19_2 1_555 1_555
C20_2 C22_2 1_555 1_555
C21_2 C1_2 1_555 1_555
H12_2 C21_2 1_555 1_555
C22_2 C25_2 1_555 1_555
C23_2 C13_2 1_555 1_555
H13_2 C23_2 1_555 1_555
C24_2 C6_2 1_555 1_555
H14_2 C24_2 1_555 1_555
C25_2 C28_2 1_555 1_555
C26_2 H15_2 1_555 1_555
C27_2 C13_2 1_555 1_555
C28_2 C27_2 1_555 1_555
C29_2 C20_2 1_555 1_555
H16_2 C29_2 1_555 1_555
C30_2 C34_2 1_555 1_555
C31_2 H17_2 1_555 1_555
C32_2 C22_2 1_555 1_555
H18_2 C32_2 1_555 1_555
C33_2 C27_2 1_555 1_555
H19_2 C33_2 1_555 1_555
C34_2 C31_2 1_555 1_555
H20_2 C34_2 1_555 1_555
C35_2 C26_2 1_555 1_555
H21_2 C35_2 1_555 1_555
C36_2 C30_2 1_555 1_555
H22_2 C36_2 1_555 1_555
C37_2 C25_2 1_555 1_555
H23_2 C37_2 1_555 1_555
C38_2 C32_2 1_555 1_555
H24_2 C38_2 1_555 1_555
C39_2 C29_2 1_555 1_555
H25_2 C39_2 1_555 1_555
C40_2 C33_2 1_555 1_555
H26_2 C40_2 1_555 1_555
C41_2 C40_2 1_555 1_555
H27_2 C41_2 1_555 1_555
C42_2 C28_2 1_555 1_555
H28_2 C42_2 1_555 1_555
Cd3 N2_2 1_555 1_555
N2_2 C26_2 1_555 1_555
O2_2 C2_2 1_555 1_555
O3_2 Cd3 1_555 1_555
O4_2 C5_2 1_555 1_555
C10_2 C16_2 1_555 1_555
C11_2 C12_2 1_555 1_555
C14_2 C18_2 1_555 1_555
C15_2 C24_2 1_555 1_555
C17_2 C21_2 1_555 1_555
C19_2 C23_2 1_555 1_555
C30_2 C35_2 1_555 1_555
C31_2 N2_2 1_555 1_555
C36_2 C37_2 1_555 1_555
C38_2 C39_2 1_555 1_555
C41_2 C42_2 1_555 1_555
Cd3 O2_2 1_555 1_555
Cd3 O4_2 1_555 1_555
C51_2 C52_2 1_555 1_555
C52_2 O11 1_555 1_555
C53_2 C50_2 1_555 1_555
H33_2 C53_2 1_555 1_555
C54_2 C51_2 1_555 1_555
H34_2 C54_2 1_555 1_555
C55_2 C50_2 1_555 1_555
C56_2 C51_2 1_555 1_555
H36_2 C56_2 1_555 1_555
C53_2 C54_2 1_555 1_555
C55_2 C56_2 1_555 1_555

#END
