
###############################################################################
#
# This file contains modified crystal structure data generated from the
# MOF subset of the Cambridge Structural Database (CSD) v543 
# hosted by the Cambridge Crystallographic Data Centre (CCDC).
#
# This work is licensed under the Creative Commons
# Attribution-NonCommercial-ShareAlike 4.0 International License.
# To view a copy of this license, visit
# http://creativecommons.org/licenses/by-nc-sa/4.0/
# or send a letter to
# Creative Commons, PO Box 1866, Mountain View, CA 94042, USA.
#
# CIF created using the CSD Python API on 29 September 2022
# The structure has been converted into the P1 space group
# The structure has a 3D framework
# The original CSD entry JARKOG is in the tetragonal crystal system
# The framework has been calculated to contain at least 10.0% void space
# The void calculation uses a probe of radius 1.32A, grid spacing 0.4
#
###############################################################################

data_JARKOG
_chemical_formula_moiety         '(C96 H64 N46 O32 Zn14)n'
_symmetry_cell_setting           triclinic
_symmetry_space_group_name_H-M   'P 1'
_symmetry_Int_Tables_number      1
_space_group_name_Hall           'P 1'
loop_
_symmetry_equiv_pos_site_id
_symmetry_equiv_pos_as_xyz
1 x,y,z
_cell_length_a                   13.4249(4)
_cell_length_b                   13.4249(4)
_cell_length_c                   27.3617(12)
_cell_angle_alpha                90
_cell_angle_beta                 90
_cell_angle_gamma                90
_cell_volume                     4931.34
loop_
_atom_site_label
_atom_site_type_symbol
_atom_site_fract_x
_atom_site_fract_y
_atom_site_fract_z
Zn1 Zn 0.52206(3) 0.41291(3) 0.44678(2)
O1 O 0.5739(3) 0.4536(3) 0.38253(12)
O2 O 0.4426(3) 0.3628(3) 0.36676(11)
N1 N 0.3921(2) 0.4775(2) 0.46476(11)
N2 N 0.3739(2) 0.5366(2) 0.50516(10)
N3 N 0.2316(2) 0.5157(2) 0.46555(10)
C1 C 0.3055(3) 0.4667(3) 0.44277(12)
H1 H 0.296419 0.429237 0.414531
C2 C 0.5132(5) 0.4135(4) 0.35283(16)
C3 C 0.2784(3) 0.5571(3) 0.50374(13)
H2 H 0.246327 0.596344 0.526904
C4 C 0.5315(4) 0.4340(5) 0.29907(16)
C5 C 0.6003(5) 0.5020(5) 0.28470(18)
H3 H 0.636639 0.536628 0.308118
C6 C 0.4789(5) 0.3826(5) 0.26570(18)
H4 H 0.430939 0.336697 0.275423
O3 O 0.5464(3) 0.4261(3) 0.11747(12)
O4 O 0.6372(3) 0.5574(3) 0.13324(11)
C7 C 0.5865(4) 0.4868(5) 0.14717(16)
C8 C 0.5660(5) 0.4685(4) 0.20093(16)
C9 C 0.4980(5) 0.3997(5) 0.21530(18)
H5 H 0.463372 0.363361 0.191882
C10 C 0.6174(5) 0.5211(5) 0.23430(18)
H6 H 0.663303 0.569061 0.224577
Zn2 Zn 0.08709(3) 0.52206(3) 0.44678(2)
N4 N 0.0225(2) 0.3921(2) 0.46476(11)
C11 C 0.0333(3) 0.3055(3) 0.44277(12)
H7 H 0.070763 0.296419 0.414531
Zn4 Zn 0.58709(3) 0.47794(3) 0.05322(2)
Zn5 Zn 0.47794(3) 0.58709(3) 0.55322(2)
O5 O 0.0464(3) 0.5739(3) 0.38253(12)
O6 O 0.1372(3) 0.4426(3) 0.36676(11)
N7 N 0.6261(2) 0.4634(2) 0.49484(10)
N8 N 0.0366(2) 0.6261(2) 0.49484(10)
N9 N 0.5157(2) 0.2684(2) 0.46555(10)
N5 N 0.9634(2) 0.3739(2) 0.50516(10)
N6 N 0.9843(2) 0.2316(2) 0.46555(10)
C12 C 0.9429(3) 0.2784(3) 0.50374(13)
H8 H 0.903656 0.246327 0.526904
Zn3 Zn 0.97794(3) 0.08709(3) 0.44678(2)
Zn6 Zn 0.91291(3) 0.47794(3) 0.55322(2)
O2_2 O 0.0574(3) 0.1372(3) 0.36676(11)
N1_2 N 0.1079(2) 0.0225(2) 0.46476(11)
C1_2 C 0.1945(3) 0.0333(3) 0.44277(12)
H1_2 H 0.203581 0.070763 0.414531
C6_2 C 0.0211(5) 0.1174(5) 0.26570(18)
H4_2 H 0.069061 0.163303 0.275423
C9_2 C 0.0020(5) 0.1003(5) 0.21530(18)
H5_2 H 0.036628 0.136639 0.191882
N4_2 N 0.4775(2) 0.1079(2) 0.46476(11)
N5_2 N 0.5366(2) 0.1261(2) 0.50516(10)
C11_2 C 0.4667(3) 0.1945(3) 0.44277(12)
H7_2 H 0.429237 0.203581 0.414531
C12_2 C 0.5571(3) 0.2216(3) 0.50374(13)
H8_2 H 0.596344 0.253673 0.526904
Zn6_2 Zn 0.58709(3) 0.02206(3) 0.55322(2)
O6_2 O 0.3628(3) 0.0574(3) 0.36676(11)
N2_2 N 0.1261(2) 0.9634(2) 0.50516(10)
N3_2 N 0.2684(2) 0.9843(2) 0.46555(10)
C3_2 C 0.2216(3) 0.9429(3) 0.50374(13)
H2_2 H 0.253673 0.903656 0.526904
Zn2_2 Zn 0.41291(3) 0.97794(3) 0.44678(2)
Zn5_2 Zn 0.02206(3) 0.91291(3) 0.55322(2)
O5_2 O 0.4536(3) 0.9261(3) 0.38253(12)
N8_2 N 0.4634(2) 0.8739(2) 0.49484(10)
O1_2 O 0.9261(3) 0.0464(3) 0.38253(12)
C2_2 C 0.9868(5) 0.0865(4) 0.35283(16)
C4_2 C 0.9685(4) 0.0660(5) 0.29907(16)
O3_2 O 0.9536(3) 0.0739(3) 0.11747(12)
C7_2 C 0.9135(4) 0.0132(5) 0.14717(16)
C8_2 C 0.9340(5) 0.0315(4) 0.20093(16)
Zn4_2 Zn 0.91291(3) 0.02206(3) 0.05322(2)
N7_2 N 0.8739(2) 0.0366(2) 0.49484(10)
C5_2 C 0.8997(5) 0.9980(5) 0.28470(18)
H3_2 H 0.863361 0.963372 0.308118
O4_2 O 0.8628(3) 0.9426(3) 0.13324(11)
C10_2 C 0.8826(5) 0.9789(5) 0.23430(18)
H6_2 H 0.836697 0.930939 0.224577
C2_3 C 0.0865(4) 0.5132(5) 0.35283(16)
C4_3 C 0.0660(5) 0.5315(4) 0.29907(16)
C6_3 C 0.1174(5) 0.4789(5) 0.26570(18)
H4_3 H 0.163303 0.430939 0.275423
O3_3 O 0.0739(3) 0.5464(3) 0.11747(12)
C7_3 C 0.0132(5) 0.5865(4) 0.14717(16)
C8_3 C 0.0315(4) 0.5660(5) 0.20093(16)
C9_3 C 0.1003(5) 0.4980(5) 0.21530(18)
H5_3 H 0.136639 0.463372 0.191882
Zn4_3 Zn 0.02206(3) 0.58709(3) 0.05322(2)
C5_3 C 0.9980(5) 0.6003(5) 0.28470(18)
H3_3 H 0.963372 0.636639 0.308118
O4_3 O 0.9426(3) 0.6372(3) 0.13324(11)
C10_3 C 0.9789(5) 0.6174(5) 0.23430(18)
H6_3 H 0.930939 0.663303 0.224577
C6_4 C 0.3826(5) 0.0211(5) 0.26570(18)
H4_4 H 0.336697 0.069061 0.275423
C9_4 C 0.3997(5) 0.0020(5) 0.21530(18)
H5_4 H 0.363361 0.036628 0.191882
C2_4 C 0.4135(4) 0.9868(5) 0.35283(16)
C4_4 C 0.4340(5) 0.9685(4) 0.29907(16)
C5_4 C 0.5020(5) 0.8997(5) 0.28470(18)
H3_4 H 0.536628 0.863361 0.308118
O3_4 O 0.4261(3) 0.9536(3) 0.11747(12)
O4_4 O 0.5574(3) 0.8628(3) 0.13324(11)
C7_4 C 0.4868(5) 0.9135(4) 0.14717(16)
C8_4 C 0.4685(4) 0.9340(5) 0.20093(16)
C10_4 C 0.5211(5) 0.8826(5) 0.23430(18)
H6_4 H 0.569061 0.836697 0.224577
Zn4_4 Zn 0.47794(3) 0.91291(3) 0.05322(2)
N6_2 N 0.0157(2) 0.7316(2) 0.03445(10)
N5_3 N 0.0366(2) 0.8739(2) 0.99484(10)
C12_3 C 0.0571(3) 0.7784(3) 0.99626(13)
H8_3 H 0.096344 0.746327 0.973096
Zn6_3 Zn 0.08709(3) 0.97794(3) 0.94678(2)
N3_3 N 0.7684(2) 0.0157(2) 0.03445(10)
N8_3 N 0.9634(2) 0.1261(2) 0.00516(10)
N2_3 N 0.6261(2) 0.0366(2) 0.99484(10)
C3_3 C 0.7216(3) 0.0571(3) 0.99626(13)
H2_3 H 0.753673 0.096344 0.973096
Zn5_3 Zn 0.52206(3) 0.08709(3) 0.94678(2)
N1_3 N 0.6079(2) 0.9775(2) 0.03524(11)
C1_3 C 0.6945(3) 0.9667(3) 0.05723(12)
H1_3 H 0.703581 0.929237 0.085469
N4_3 N 0.9775(2) 0.8921(2) 0.03524(11)
C11_3 C 0.9667(3) 0.8055(3) 0.05723(12)
H7_3 H 0.929237 0.796419 0.085469
N7_3 N 0.3739(2) 0.9634(2) 0.00516(10)
N9_2 N 0.4843(2) 0.7684(2) 0.03445(10)
N7_4 N 0.1261(2) 0.5366(2) 0.00516(10)
N1_4 N 0.8921(2) 0.5225(2) 0.03524(11)
N3_4 N 0.7316(2) 0.4843(2) 0.03445(10)
C1_4 C 0.8055(3) 0.5333(3) 0.05723(12)
H1_4 H 0.796419 0.570763 0.085469
N4_4 N 0.5225(2) 0.6079(2) 0.03524(11)
C11_4 C 0.5333(3) 0.6945(3) 0.05723(12)
H7_4 H 0.570763 0.703581 0.085469
N8_4 N 0.5366(2) 0.3739(2) 0.00516(10)
N2_4 N 0.8739(2) 0.4634(2) 0.99484(10)
C3_4 C 0.7784(3) 0.4429(3) 0.99626(13)
H2_4 H 0.746327 0.403656 0.973096
N5_4 N 0.4634(2) 0.6261(2) 0.99484(10)
C12_4 C 0.4429(3) 0.7216(3) 0.99626(13)
H8_4 H 0.403656 0.753673 0.973096
Zn5_4 Zn 0.97794(3) 0.41291(3) 0.94678(2)
Zn6_4 Zn 0.41291(3) 0.52206(3) 0.94678(2)
N6_3 N 0.0157(2) 0.7684(2) 0.53445(10)
C12_5 C 0.0571(3) 0.7216(3) 0.49626(13)
H8_5 H 0.096344 0.753673 0.473096
O1_3 O 0.4261(3) 0.5464(3) 0.61747(12)
O2_3 O 0.5574(3) 0.6372(3) 0.63324(11)
N1_5 N 0.6079(2) 0.5225(2) 0.53524(11)
N3_5 N 0.7684(2) 0.4843(2) 0.53445(10)
C1_5 C 0.6945(3) 0.5333(3) 0.55723(12)
H1_5 H 0.703581 0.570763 0.585469
C2_5 C 0.4868(5) 0.5865(4) 0.64717(16)
C3_5 C 0.7216(3) 0.4429(3) 0.49626(13)
H2_5 H 0.753673 0.403656 0.473096
C4_5 C 0.4685(4) 0.5660(5) 0.70093(16)
C5_5 C 0.3997(5) 0.4980(5) 0.71530(18)
H3_5 H 0.363361 0.463372 0.691882
C6_5 C 0.5211(5) 0.6174(5) 0.73430(18)
H4_5 H 0.569061 0.663303 0.724577
O3_5 O 0.4536(3) 0.5739(3) 0.88253(12)
O4_5 O 0.3628(3) 0.4426(3) 0.86676(11)
C7_5 C 0.4135(4) 0.5132(5) 0.85283(16)
C8_5 C 0.4340(5) 0.5315(4) 0.79907(16)
C9_5 C 0.5020(5) 0.6003(5) 0.78470(18)
H5_5 H 0.536628 0.636639 0.808118
C10_5 C 0.3826(5) 0.4789(5) 0.76570(18)
H6_5 H 0.336697 0.430939 0.775423
N4_5 N 0.9775(2) 0.6079(2) 0.53524(11)
C11_5 C 0.9667(3) 0.6945(3) 0.55723(12)
H7_5 H 0.929237 0.703581 0.585469
O5_3 O 0.9536(3) 0.4261(3) 0.61747(12)
O6_3 O 0.8628(3) 0.5574(3) 0.63324(11)
N9_3 N 0.4843(2) 0.7316(2) 0.53445(10)
C5_6 C 0.1003(5) 0.0020(5) 0.71530(18)
H3_6 H 0.136639 0.036628 0.691882
O4_6 O 0.1372(3) 0.0574(3) 0.86676(11)
C10_6 C 0.1174(5) 0.0211(5) 0.76570(18)
H6_6 H 0.163303 0.069061 0.775423
O1_4 O 0.0739(3) 0.9536(3) 0.61747(12)
C2_6 C 0.0132(5) 0.9135(4) 0.64717(16)
C4_6 C 0.0315(4) 0.9340(5) 0.70093(16)
O3_6 O 0.0464(3) 0.9261(3) 0.88253(12)
C7_6 C 0.0865(4) 0.9868(5) 0.85283(16)
C8_6 C 0.0660(5) 0.9685(4) 0.79907(16)
N3_6 N 0.7316(2) 0.0157(2) 0.53445(10)
C3_6 C 0.7784(3) 0.0571(3) 0.49626(13)
H2_6 H 0.746327 0.096344 0.473096
O5_4 O 0.5464(3) 0.0739(3) 0.61747(12)
O2_4 O 0.9426(3) 0.8628(3) 0.63324(11)
N1_6 N 0.8921(2) 0.9775(2) 0.53524(11)
C1_6 C 0.8055(3) 0.9667(3) 0.55723(12)
H1_6 H 0.796419 0.929237 0.585469
C6_6 C 0.9789(5) 0.8826(5) 0.73430(18)
H4_6 H 0.930939 0.836697 0.724577
C9_6 C 0.9980(5) 0.8997(5) 0.78470(18)
H5_6 H 0.963372 0.863361 0.808118
N4_6 N 0.5225(2) 0.8921(2) 0.53524(11)
C11_6 C 0.5333(3) 0.8055(3) 0.55723(12)
H7_6 H 0.570763 0.796419 0.585469
C12_6 C 0.4429(3) 0.7784(3) 0.49626(13)
H8_6 H 0.403656 0.746327 0.473096
O6_4 O 0.6372(3) 0.9426(3) 0.63324(11)
C5_7 C 0.0020(5) 0.3997(5) 0.71530(18)
H3_7 H 0.036628 0.363361 0.691882
O4_7 O 0.0574(3) 0.3628(3) 0.86676(11)
C10_7 C 0.0211(5) 0.3826(5) 0.76570(18)
H6_7 H 0.069061 0.336697 0.775423
C2_7 C 0.9135(4) 0.4868(5) 0.64717(16)
C4_7 C 0.9340(5) 0.4685(4) 0.70093(16)
C6_7 C 0.8826(5) 0.5211(5) 0.73430(18)
H4_7 H 0.836697 0.569061 0.724577
O3_7 O 0.9261(3) 0.4536(3) 0.88253(12)
C7_7 C 0.9868(5) 0.4135(4) 0.85283(16)
C8_7 C 0.9685(4) 0.4340(5) 0.79907(16)
C9_7 C 0.8997(5) 0.5020(5) 0.78470(18)
H5_7 H 0.863361 0.536628 0.808118
C2_8 C 0.5865(4) 0.0132(5) 0.64717(16)
C4_8 C 0.5660(5) 0.0315(4) 0.70093(16)
C5_8 C 0.4980(5) 0.1003(5) 0.71530(18)
H3_8 H 0.463372 0.136639 0.691882
O3_8 O 0.5739(3) 0.0464(3) 0.88253(12)
O4_8 O 0.4426(3) 0.1372(3) 0.86676(11)
C7_8 C 0.5132(5) 0.0865(4) 0.85283(16)
C8_8 C 0.5315(4) 0.0660(5) 0.79907(16)
C10_8 C 0.4789(5) 0.1174(5) 0.76570(18)
H6_8 H 0.430939 0.163303 0.775423
C6_8 C 0.6174(5) 0.9789(5) 0.73430(18)
H4_8 H 0.663303 0.930939 0.724577
C9_8 C 0.6003(5) 0.9980(5) 0.78470(18)
H5_8 H 0.636639 0.963372 0.808118
N1_7 N 0.3921(2) 0.0225(2) 0.96476(11)
C1_7 C 0.3055(3) 0.0333(3) 0.94277(12)
H1_7 H 0.296419 0.070763 0.914531
N4_7 N 0.0225(2) 0.1079(2) 0.96476(11)
C11_7 C 0.0333(3) 0.1945(3) 0.94277(12)
H7_7 H 0.070763 0.203581 0.914531
N9_4 N 0.5157(2) 0.2316(2) 0.96555(10)
C3_7 C 0.2784(3) 0.9429(3) 0.00374(13)
H2_7 H 0.246327 0.903656 0.026904
N3_7 N 0.2316(2) 0.9843(2) 0.96555(10)
C12_7 C 0.9429(3) 0.2216(3) 0.00374(13)
H8_7 H 0.903656 0.253673 0.026904
N6_4 N 0.9843(2) 0.2684(2) 0.96555(10)
C3_8 C 0.2216(3) 0.5571(3) 0.00374(13)
H2_8 H 0.253673 0.596344 0.026904
C12_8 C 0.5571(3) 0.2784(3) 0.00374(13)
H8_8 H 0.596344 0.246327 0.026904
N1_8 N 0.1079(2) 0.4775(2) 0.96476(11)
N3_8 N 0.2684(2) 0.5157(2) 0.96555(10)
C1_8 C 0.1945(3) 0.4667(3) 0.94277(12)
H1_8 H 0.203581 0.429237 0.914531
N4_8 N 0.4775(2) 0.3921(2) 0.96476(11)
C11_8 C 0.4667(3) 0.3055(3) 0.94277(12)
H7_8 H 0.429237 0.296419 0.914531
loop_
_geom_bond_atom_site_label_1
_geom_bond_atom_site_label_2
_geom_bond_site_symmetry_1
_geom_bond_site_symmetry_2
Zn1 O1 1_555 1_555
O1 C2 1_555 1_555
O2 Zn1 1_555 1_555
N1 Zn1 1_555 1_555
N2 N1 1_555 1_555
N3 C1 1_555 1_555
C1 N1 1_555 1_555
H1 C1 1_555 1_555
C2 O2 1_555 1_555
C3 N2 1_555 1_555
H2 C3 1_555 1_555
C4 C2 1_555 1_555
C5 C4 1_555 1_555
H3 C5 1_555 1_555
C6 C4 1_555 1_555
H4 C6 1_555 1_555
O3 C7 1_555 1_555
O4 C7 1_555 1_555
C7 C8 1_555 1_555
C8 C9 1_555 1_555
C9 C6 1_555 1_555
H5 C9 1_555 1_555
C10 C5 1_555 1_555
H6 C10 1_555 1_555
Zn2 N3 1_555 1_555
N4 Zn2 1_555 1_555
C11 N4 1_555 1_555
H7 C11 1_555 1_555
Zn4 O3 1_555 1_555
Zn5 N2 1_555 1_555
O5 Zn2 1_555 1_555
O6 Zn2 1_555 1_555
N7 Zn1 1_555 1_555
N8 Zn2 1_555 1_555
N9 Zn1 1_555 1_555
N3 C3 1_555 1_555
O4 Zn4 1_555 1_555
C8 C10 1_555 1_555
C12 N5 1_555 1_555
H8 C12 1_555 1_555
Zn3 N6 1_555 1_555
Zn6 N5 1_555 1_555
N6 C12 1_555 1_555
C1_2 N1_2 1_555 1_555
H1_2 C1_2 1_555 1_555
H4_2 C6_2 1_555 1_555
C9_2 C6_2 1_555 1_555
H5_2 C9_2 1_555 1_555
N5_2 N4_2 1_555 1_555
N9 C11_2 1_555 1_555
C11_2 N4_2 1_555 1_555
H7_2 C11_2 1_555 1_555
C12_2 N5_2 1_555 1_555
H8_2 C12_2 1_555 1_555
Zn6_2 N5_2 1_555 1_555
N9 C12_2 1_555 1_555
C3_2 N2_2 1_555 1_555
H2_2 C3_2 1_555 1_555
Zn2_2 N3_2 1_555 1_555
Zn5_2 N2_2 1_555 1_555
O5_2 Zn2_2 1_555 1_555
N8_2 Zn2_2 1_555 1_555
N3_2 C3_2 1_555 1_555
Zn3 O1_2 1_555 1_555
O1_2 C2_2 1_555 1_555
C4_2 C2_2 1_555 1_555
O3_2 C7_2 1_555 1_555
C7_2 C8_2 1_555 1_555
Zn4_2 O3_2 1_555 1_555
N7_2 Zn3 1_555 1_555
H3_2 C5_2 1_555 1_555
C10_2 C5_2 1_555 1_555
H6_2 C10_2 1_555 1_555
O5 C2_3 1_555 1_555
C2_3 O6 1_555 1_555
C4_3 C2_3 1_555 1_555
C6_3 C4_3 1_555 1_555
H4_3 C6_3 1_555 1_555
O3_3 C7_3 1_555 1_555
C7_3 C8_3 1_555 1_555
C8_3 C9_3 1_555 1_555
C9_3 C6_3 1_555 1_555
H5_3 C9_3 1_555 1_555
Zn4_3 O3_3 1_555 1_555
H3_3 C5_3 1_555 1_555
C10_3 C5_3 1_555 1_555
H6_3 C10_3 1_555 1_555
H4_4 C6_4 1_555 1_555
C9_4 C6_4 1_555 1_555
H5_4 C9_4 1_555 1_555
O5_2 C2_4 1_555 1_555
C4_4 C2_4 1_555 1_555
C5_4 C4_4 1_555 1_555
H3_4 C5_4 1_555 1_555
O3_4 C7_4 1_555 1_555
O4_4 C7_4 1_555 1_555
C7_4 C8_4 1_555 1_555
C10_4 C5_4 1_555 1_555
H6_4 C10_4 1_555 1_555
Zn4_4 O3_4 1_555 1_555
O4_4 Zn4_4 1_555 1_555
C8_4 C10_4 1_555 1_555
Zn4_3 N6_2 1_555 1_555
C12_3 N5_3 1_555 1_555
H8_3 C12_3 1_555 1_555
Zn6_3 N5_3 1_555 1_555
Zn4_2 N3_3 1_555 1_555
N8_3 Zn4_2 1_555 1_555
C3_3 N2_3 1_555 1_555
H2_3 C3_3 1_555 1_555
Zn5_3 N2_3 1_555 1_555
N1_3 Zn4_4 1_555 1_555
C1_3 N1_3 1_555 1_555
H1_3 C1_3 1_555 1_555
C11_3 N4_3 1_555 1_555
H7_3 C11_3 1_555 1_555
N7_3 Zn4_4 1_555 1_555
N9_2 Zn4_4 1_555 1_555
N7_4 Zn4_3 1_555 1_555
N3_4 C1_4 1_555 1_555
C1_4 N1_4 1_555 1_555
H1_4 C1_4 1_555 1_555
Zn4 N3_4 1_555 1_555
N4_4 Zn4 1_555 1_555
N9_2 C11_4 1_555 1_555
C11_4 N4_4 1_555 1_555
H7_4 C11_4 1_555 1_555
N8_4 Zn4 1_555 1_555
C3_4 N2_4 1_555 1_555
H2_4 C3_4 1_555 1_555
C12_4 N5_4 1_555 1_555
H8_4 C12_4 1_555 1_555
Zn5_4 N2_4 1_555 1_555
Zn6_4 N5_4 1_555 1_555
C12_5 N8 1_555 1_555
H8_5 C12_5 1_555 1_555
Zn5_2 N6_3 1_555 1_555
N6_3 C12_5 1_555 1_555
Zn5 O1_3 1_555 1_555
O1_3 C2_5 1_555 1_555
O2_3 Zn5 1_555 1_555
N1_5 Zn5 1_555 1_555
N7 N1_5 1_555 1_555
N3_5 C1_5 1_555 1_555
C1_5 N1_5 1_555 1_555
H1_5 C1_5 1_555 1_555
C2_5 O2_3 1_555 1_555
C3_5 N7 1_555 1_555
H2_5 C3_5 1_555 1_555
C4_5 C2_5 1_555 1_555
C5_5 C4_5 1_555 1_555
H3_5 C5_5 1_555 1_555
C6_5 C4_5 1_555 1_555
H4_5 C6_5 1_555 1_555
O3_5 C7_5 1_555 1_555
O4_5 C7_5 1_555 1_555
C7_5 C8_5 1_555 1_555
C8_5 C9_5 1_555 1_555
C9_5 C6_5 1_555 1_555
H5_5 C9_5 1_555 1_555
C10_5 C5_5 1_555 1_555
H6_5 C10_5 1_555 1_555
Zn6 N3_5 1_555 1_555
N4_5 Zn6 1_555 1_555
C11_5 N4_5 1_555 1_555
H7_5 C11_5 1_555 1_555
Zn6_4 O3_5 1_555 1_555
O5_3 Zn6 1_555 1_555
O6_3 Zn6 1_555 1_555
N9_3 Zn5 1_555 1_555
N3_5 C3_5 1_555 1_555
O4_5 Zn6_4 1_555 1_555
C8_5 C10_5 1_555 1_555
H3_6 C5_6 1_555 1_555
C10_6 C5_6 1_555 1_555
H6_6 C10_6 1_555 1_555
Zn5_2 O1_4 1_555 1_555
O1_4 C2_6 1_555 1_555
C4_6 C2_6 1_555 1_555
O3_6 C7_6 1_555 1_555
C7_6 C8_6 1_555 1_555
Zn6_3 O3_6 1_555 1_555
C3_6 N7_2 1_555 1_555
H2_6 C3_6 1_555 1_555
Zn6_2 N3_6 1_555 1_555
O5_4 Zn6_2 1_555 1_555
N3_6 C3_6 1_555 1_555
C1_6 N1_6 1_555 1_555
H1_6 C1_6 1_555 1_555
H4_6 C6_6 1_555 1_555
C9_6 C6_6 1_555 1_555
H5_6 C9_6 1_555 1_555
N8_2 N4_6 1_555 1_555
N9_3 C11_6 1_555 1_555
C11_6 N4_6 1_555 1_555
H7_6 C11_6 1_555 1_555
C12_6 N8_2 1_555 1_555
H8_6 C12_6 1_555 1_555
N9_3 C12_6 1_555 1_555
H3_7 C5_7 1_555 1_555
C10_7 C5_7 1_555 1_555
H6_7 C10_7 1_555 1_555
O5_3 C2_7 1_555 1_555
C2_7 O6_3 1_555 1_555
C4_7 C2_7 1_555 1_555
C6_7 C4_7 1_555 1_555
H4_7 C6_7 1_555 1_555
O3_7 C7_7 1_555 1_555
C7_7 C8_7 1_555 1_555
C8_7 C9_7 1_555 1_555
C9_7 C6_7 1_555 1_555
H5_7 C9_7 1_555 1_555
Zn5_4 O3_7 1_555 1_555
O5_4 C2_8 1_555 1_555
C4_8 C2_8 1_555 1_555
C5_8 C4_8 1_555 1_555
H3_8 C5_8 1_555 1_555
O3_8 C7_8 1_555 1_555
O4_8 C7_8 1_555 1_555
C7_8 C8_8 1_555 1_555
C10_8 C5_8 1_555 1_555
H6_8 C10_8 1_555 1_555
Zn5_3 O3_8 1_555 1_555
O4_8 Zn5_3 1_555 1_555
C8_8 C10_8 1_555 1_555
H4_8 C6_8 1_555 1_555
C9_8 C6_8 1_555 1_555
H5_8 C9_8 1_555 1_555
N1_7 Zn5_3 1_555 1_555
C1_7 N1_7 1_555 1_555
H1_7 C1_7 1_555 1_555
C11_7 N4_7 1_555 1_555
H7_7 C11_7 1_555 1_555
N9_4 Zn5_3 1_555 1_555
C3_7 N7_3 1_555 1_555
H2_7 C3_7 1_555 1_555
Zn6_3 N3_7 1_555 1_555
C12_7 N8_3 1_555 1_555
H8_7 C12_7 1_555 1_555
Zn5_4 N6_4 1_555 1_555
C3_8 N7_4 1_555 1_555
H2_8 C3_8 1_555 1_555
C12_8 N8_4 1_555 1_555
H8_8 C12_8 1_555 1_555
N3_8 C1_8 1_555 1_555
C1_8 N1_8 1_555 1_555
H1_8 C1_8 1_555 1_555
Zn6_4 N3_8 1_555 1_555
N4_8 Zn6_4 1_555 1_555
N9_4 C11_8 1_555 1_555
C11_8 N4_8 1_555 1_555
H7_8 C11_8 1_555 1_555

#END
