
###############################################################################
#
# This file contains modified crystal structure data generated from the
# MOF subset of the Cambridge Structural Database (CSD) v543 
# hosted by the Cambridge Crystallographic Data Centre (CCDC).
#
# This work is licensed under the Creative Commons
# Attribution-NonCommercial-ShareAlike 4.0 International License.
# To view a copy of this license, visit
# http://creativecommons.org/licenses/by-nc-sa/4.0/
# or send a letter to
# Creative Commons, PO Box 1866, Mountain View, CA 94042, USA.
#
# CIF created using the CSD Python API on 29 September 2022
# The structure has been converted into the P1 space group
# The structure has a 3D framework
# The original CSD entry JATVUZ is in the rhombohedral crystal system
# The framework has been calculated to contain at least 10.0% void space
# The void calculation uses a probe of radius 1.32A, grid spacing 0.4
#
###############################################################################

data_JATVUZ
_chemical_formula_moiety         '(C90 H90 Cu18 F54 N54)n'
_symmetry_cell_setting           triclinic
_symmetry_space_group_name_H-M   'P 1'
_symmetry_Int_Tables_number      1
_space_group_name_Hall           'P 1'
loop_
_symmetry_equiv_pos_site_id
_symmetry_equiv_pos_as_xyz
1 x,y,z
_cell_length_a                   20.3065(5)
_cell_length_b                   20.3065(5)
_cell_length_c                   13.7304(5)
_cell_angle_alpha                90
_cell_angle_beta                 90
_cell_angle_gamma                120
_cell_volume                     4903.25
loop_
_atom_site_label
_atom_site_type_symbol
_atom_site_fract_x
_atom_site_fract_y
_atom_site_fract_z
Cu1 Cu 0.41754(3) 0.45676(4) 0.56217(4)
N1 N 0.5043(2) 0.5527(2) 0.6106(3)
N2 N 0.5724(2) 0.5857(2) 0.5616(3)
N3 N 0.5856(2) 0.6583(2) 0.6881(3)
C1 C 0.6188(3) 0.6474(2) 0.6105(3)
C2 C 0.6999(3) 0.7010(4) 0.5806(5)
H1 H 0.7098 0.6837 0.5193
H2 H 0.7063 0.7511 0.5699
C3 C 0.7550(6) 0.7068(10) 0.6518(9)
H3 H 0.8046 0.7307 0.6227
H4 H 0.7419 0.6569 0.6740
H5 H 0.7551 0.7367 0.7061
C4 C 0.5161(3) 0.5987(3) 0.6850(3)
C5 C 0.4575(4) 0.5851(4) 0.7590(5)
F1 F 0.4786(4) 0.6409(4) 0.8201(5)
F2 F 0.3936(3) 0.5740(4) 0.7216(5)
F3 F 0.4377(4) 0.5225(4) 0.8107(4)
Cu2 Cu 0.58246(3) 0.54324(4) 0.43783(4)
Cu3 Cu 0.62745(5) 0.75087(3) 0.77116(4)
N4 N 0.4276(2) 0.4143(2) 0.4384(3)
N5 N 0.3250(2) 0.4060(3) 0.6452(3)
H1_2 H 0.3163 0.0261 0.5193
C3_2 C 0.2932(10) 0.0482(12) 0.6518(9)
H3_2 H 0.2693 0.0739 0.6227
H4_2 H 0.3431 0.0850 0.6740
H5_2 H 0.2633 0.0184 0.7061
Cu2_2 Cu 0.45676(4) 0.03922(5) 0.43783(4)
N4_2 N 0.5857(2) 0.0133(3) 0.4384(3)
Cu1_2 Cu 0.54324(4) 0.96078(5) 0.56217(4)
N1_2 N 0.4473(2) 0.9516(3) 0.6106(3)
N2_2 N 0.4143(2) 0.9867(3) 0.5616(3)
N3_2 N 0.3417(2) 0.9273(3) 0.6881(3)
C1_2 C 0.3526(2) 0.9714(4) 0.6105(3)
C2_2 C 0.2990(4) 0.9989(5) 0.5806(5)
H2_2 H 0.2489 0.9552 0.5699
C4_2 C 0.4013(3) 0.9174(4) 0.6850(3)
C5_2 C 0.4149(4) 0.8724(6) 0.7590(5)
F1_2 F 0.3591(4) 0.8377(6) 0.8201(5)
F2_2 F 0.4260(4) 0.8196(5) 0.7216(5)
F3_2 F 0.4775(4) 0.9152(6) 0.8107(4)
Cu3_2 Cu 0.24913(3) 0.87657(6) 0.77116(4)
N5_2 N 0.5940(3) 0.9189(4) 0.6452(3)
Cu1_3 Cu 0.03922(5) 0.58246(3) 0.56217(4)
N1_3 N 0.0484(3) 0.4957(2) 0.6106(3)
N2_3 N 0.0133(3) 0.4276(2) 0.5616(3)
N3_3 N 0.0727(3) 0.4144(2) 0.6881(3)
C1_3 C 0.0286(4) 0.3812(3) 0.6105(3)
C2_3 C 0.0011(5) 0.3001(3) 0.5806(5)
H2_3 H 0.0448 0.2937 0.5699
C4_3 C 0.0826(4) 0.4839(3) 0.6850(3)
C5_3 C 0.1276(6) 0.5425(4) 0.7590(5)
F1_3 F 0.1623(6) 0.5214(4) 0.8201(5)
F2_3 F 0.1804(5) 0.6064(3) 0.7216(5)
F3_3 F 0.0848(6) 0.5623(4) 0.8107(4)
Cu3_3 Cu 0.12343(6) 0.37255(5) 0.77116(4)
N5_3 N 0.0811(4) 0.6750(2) 0.6452(3)
H1_3 H 0.9739 0.2902 0.5193
C3_3 C 0.9518(12) 0.2450(6) 0.6518(9)
H3_3 H 0.9261 0.1954 0.6227
H4_3 H 0.9150 0.2581 0.6740
H5_3 H 0.9816 0.2449 0.7061
Cu2_3 Cu 0.96078(5) 0.41754(3) 0.43783(4)
N4_3 N 0.9867(3) 0.5724(2) 0.4384(3)
H5_4 H 0.4218 0.0700 0.0394
Cu3_4 Cu 0.29411(5) 0.08421(3) 0.10450(4)
Cu1_4 Cu 0.08421(3) 0.79009(4) 0.89550(4)
N1_4 N 0.1710(2) 0.8860(2) 0.9439(3)
N2_4 N 0.2391(2) 0.9190(2) 0.8949(3)
C1_4 C 0.2855(3) 0.9807(2) 0.9438(3)
N4_4 N 0.0943(2) 0.7476(2) 0.7717(3)
Cu1_5 Cu 0.20991(4) 0.29411(5) 0.89550(4)
N1_5 N 0.1140(2) 0.2849(3) 0.9439(3)
N2_5 N 0.0810(2) 0.3200(3) 0.8949(3)
C1_5 C 0.0193(2) 0.3047(4) 0.9438(3)
N4_5 N 0.2524(2) 0.3466(3) 0.7717(3)
N5_4 N 0.2606(3) 0.2523(4) 0.9786(3)
H5_5 H 0.9300 0.3517 0.0394
Cu3_5 Cu 0.91579(3) 0.20991(6) 0.10450(4)
N3_4 N 0.7394(3) 0.7477(2) 0.0214(3)
H4_4 H 0.5817 0.5914 0.0073
H5_6 H 0.6483 0.5782 0.0394
C4_4 C 0.7493(4) 0.8172(3) 0.0183(3)
C5_4 C 0.7943(6) 0.8758(4) 0.0923(5)
F1_4 F 0.8290(6) 0.8547(4) 0.1534(5)
F2_4 F 0.8471(5) 0.9397(3) 0.0549(5)
F3_4 F 0.7515(6) 0.8956(4) 0.1440(4)
Cu3_6 Cu 0.79009(6) 0.70589(5) 0.10450(4)
Cu1_6 Cu 0.70589(5) 0.91579(3) 0.89550(4)
N1_6 N 0.7151(3) 0.8290(2) 0.9439(3)
N2_6 N 0.6800(3) 0.7609(2) 0.8949(3)
C1_6 C 0.6953(4) 0.7145(3) 0.9438(3)
C2_4 C 0.6678(5) 0.6334(3) 0.9139(5)
H1_4 H 0.6406 0.6235 0.8526
H2_4 H 0.7115 0.6270 0.9032
C3_4 C 0.6185(12) 0.5783(6) 0.9851(9)
H3_4 H 0.5928 0.5287 0.9560
N4_6 N 0.6534(3) 0.9057(2) 0.7717(3)
Cu1_7 Cu 0.75087(3) 0.12343(4) 0.22884(4)
N1_7 N 0.8376(2) 0.2194(2) 0.2773(3)
N2_7 N 0.9057(2) 0.2524(2) 0.2283(3)
N3_5 N 0.9189(2) 0.3250(2) 0.3548(3)
C1_7 C 0.9521(3) 0.3141(2) 0.2772(3)
C4_5 C 0.8494(3) 0.2654(3) 0.3517(3)
C5_5 C 0.7908(4) 0.2518(4) 0.4257(5)
F1_5 F 0.8119(4) 0.3076(4) 0.4868(5)
F2_5 F 0.7269(3) 0.2407(4) 0.3883(5)
F3_5 F 0.7710(4) 0.1892(4) 0.4774(4)
N4_7 N 0.7609(2) 0.0810(2) 0.1051(3)
N5_5 N 0.6583(2) 0.0727(3) 0.3119(3)
Cu1_8 Cu 0.87657(4) 0.62745(5) 0.22884(4)
N1_8 N 0.7806(2) 0.6183(3) 0.2773(3)
N2_8 N 0.7476(2) 0.6534(3) 0.2283(3)
N3_6 N 0.6750(2) 0.5940(3) 0.3548(3)
C1_8 C 0.6859(2) 0.6381(4) 0.2772(3)
C2_5 C 0.6323(4) 0.6656(5) 0.2473(5)
H1_5 H 0.6496 0.6928 0.1860
H2_5 H 0.5822 0.6219 0.2366
C3_5 C 0.6265(10) 0.7149(12) 0.3185(9)
H3_5 H 0.6026 0.7406 0.2894
H4_5 H 0.6764 0.7517 0.3407
H5_7 H 0.5966 0.6851 0.3728
C4_6 C 0.7346(3) 0.5841(4) 0.3517(3)
C5_6 C 0.7482(4) 0.5391(6) 0.4257(5)
F1_6 F 0.6924(4) 0.5044(6) 0.4868(5)
F2_6 F 0.7593(4) 0.4863(5) 0.3883(5)
F3_6 F 0.8108(4) 0.5819(6) 0.4774(4)
N4_8 N 0.9190(2) 0.6800(3) 0.1051(3)
N5_6 N 0.9273(3) 0.5856(4) 0.3119(3)
Cu1_9 Cu 0.37255(5) 0.24913(3) 0.22884(4)
N1_9 N 0.3817(3) 0.1624(2) 0.2773(3)
N2_9 N 0.3466(3) 0.0943(2) 0.2283(3)
N3_7 N 0.4060(3) 0.0811(2) 0.3548(3)
C1_9 C 0.3619(4) 0.0479(3) 0.2772(3)
C4_7 C 0.4159(4) 0.1506(3) 0.3517(3)
C5_7 C 0.4609(6) 0.2092(4) 0.4257(5)
F1_7 F 0.4956(6) 0.1881(4) 0.4868(5)
F2_7 F 0.5137(5) 0.2731(3) 0.3883(5)
F3_7 F 0.4181(6) 0.2290(4) 0.4774(4)
N4_9 N 0.3200(3) 0.2391(2) 0.1051(3)
N5_7 N 0.4144(4) 0.3417(2) 0.3119(3)
N1_10 N 0.4957(2) 0.4473(2) 0.3894(3)
C1_10 C 0.3812(3) 0.3526(2) 0.3895(3)
C2_6 C 0.3001(3) 0.2990(4) 0.4194(5)
H1_6 H 0.2902 0.3163 0.4807
H2_6 H 0.2937 0.2489 0.4301
C3_6 C 0.2450(6) 0.2932(10) 0.3482(9)
H3_6 H 0.1954 0.2693 0.3773
H4_6 H 0.2581 0.3431 0.3260
H5_8 H 0.2449 0.2633 0.2939
C4_8 C 0.4839(3) 0.4013(3) 0.3150(3)
C5_8 C 0.5425(4) 0.4149(4) 0.2410(5)
F1_8 F 0.5214(4) 0.3591(4) 0.1799(5)
F2_8 F 0.6064(3) 0.4260(4) 0.2784(5)
F3_8 F 0.5623(4) 0.4775(4) 0.1893(4)
N1_11 N 0.5527(2) 0.0484(3) 0.3894(3)
C1_11 C 0.6474(2) 0.0286(4) 0.3895(3)
C2_7 C 0.7010(4) 0.0011(5) 0.4194(5)
H2_7 H 0.7511 0.0448 0.4301
C4_9 C 0.5987(3) 0.0826(4) 0.3150(3)
C5_9 C 0.5851(4) 0.1276(6) 0.2410(5)
F1_9 F 0.6409(4) 0.1623(6) 0.1799(5)
F2_9 F 0.5740(4) 0.1804(5) 0.2784(5)
F3_9 F 0.5225(4) 0.0848(6) 0.1893(4)
H1_7 H 0.6837 0.9739 0.4807
C3_7 C 0.7068(10) 0.9518(12) 0.3482(9)
H3_7 H 0.7307 0.9261 0.3773
H4_7 H 0.6569 0.9150 0.3260
H5_9 H 0.7367 0.9816 0.2939
H1_8 H 0.0261 0.7098 0.4807
C3_8 C 0.0482(12) 0.7550(6) 0.3482(9)
H3_8 H 0.0739 0.8046 0.3773
H4_8 H 0.0850 0.7419 0.3260
H5_10 H 0.0184 0.7551 0.2939
N1_12 N 0.9516(3) 0.5043(2) 0.3894(3)
C1_12 C 0.9714(4) 0.6188(3) 0.3895(3)
C2_8 C 0.9989(5) 0.6999(3) 0.4194(5)
H2_8 H 0.9552 0.7063 0.4301
C4_10 C 0.9174(4) 0.5161(3) 0.3150(3)
C5_10 C 0.8724(6) 0.4575(4) 0.2410(5)
F1_10 F 0.8377(6) 0.4786(4) 0.1799(5)
F2_10 F 0.8196(5) 0.3936(3) 0.2784(5)
F3_10 F 0.9152(6) 0.4377(4) 0.1893(4)
N1_13 N 0.8290(2) 0.1140(2) 0.0561(3)
C1_13 C 0.7145(3) 0.0193(2) 0.0562(3)
H5_11 H 0.5782 0.9300 0.9606
H5_12 H 0.0700 0.6483 0.9606
N1_14 N 0.8860(2) 0.7151(3) 0.0561(3)
C1_14 C 0.9807(2) 0.6953(4) 0.0562(3)
N1_15 N 0.2849(3) 0.1710(2) 0.0561(3)
C1_15 C 0.3047(4) 0.2855(3) 0.0562(3)
C2_9 C 0.3322(5) 0.3666(3) 0.0861(5)
H1_9 H 0.3594 0.3765 0.1474
H2_9 H 0.2885 0.3730 0.0968
C3_9 C 0.3815(12) 0.4217(6) 0.0149(9)
H3_9 H 0.4072 0.4713 0.0440
H4_9 H 0.4183 0.4086 0.9927
H5_13 H 0.3517 0.4218 0.9606
C4_11 C 0.2507(4) 0.1828(3) 0.9817(3)
C5_11 C 0.2057(6) 0.1242(4) 0.9077(5)
F1_11 F 0.1710(6) 0.1453(4) 0.8466(5)
F2_11 F 0.1529(5) 0.0603(3) 0.9451(5)
F3_11 F 0.2485(6) 0.1044(4) 0.8560(4)
N1_16 N 0.1624(2) 0.7806(2) 0.7227(3)
C1_16 C 0.0479(3) 0.6859(2) 0.7228(3)
C4_12 C 0.1506(3) 0.7346(3) 0.6483(3)
C5_12 C 0.2092(4) 0.7482(4) 0.5743(5)
F1_12 F 0.1881(4) 0.6924(4) 0.5132(5)
F2_12 F 0.2731(3) 0.7593(4) 0.6117(5)
F3_12 F 0.2290(4) 0.8108(4) 0.5226(4)
N1_17 N 0.2194(2) 0.3817(3) 0.7227(3)
C1_17 C 0.3141(2) 0.3619(4) 0.7228(3)
C2_10 C 0.3677(4) 0.3344(5) 0.7527(5)
H1_10 H 0.3504 0.3072 0.8140
H2_10 H 0.4178 0.3781 0.7634
C3_10 C 0.3735(10) 0.2851(12) 0.6815(9)
H3_10 H 0.3974 0.2594 0.7106
H4_10 H 0.3236 0.2483 0.6593
H5_14 H 0.4034 0.3149 0.6272
C4_13 C 0.2654(3) 0.4159(4) 0.6483(3)
C5_13 C 0.2518(4) 0.4609(6) 0.5743(5)
F1_13 F 0.3076(4) 0.4956(6) 0.5132(5)
F2_13 F 0.2407(4) 0.5137(5) 0.6117(5)
F3_13 F 0.1892(4) 0.4181(6) 0.5226(4)
N1_18 N 0.6183(3) 0.8376(2) 0.7227(3)
C1_18 C 0.6381(4) 0.9521(3) 0.7228(3)
C4_14 C 0.5841(4) 0.8494(3) 0.6483(3)
C5_14 C 0.5391(6) 0.7908(4) 0.5743(5)
F1_14 F 0.5044(6) 0.8119(4) 0.5132(5)
F2_14 F 0.4863(5) 0.7269(3) 0.6117(5)
F3_14 F 0.5819(6) 0.7710(4) 0.5226(4)
C2_11 C 0.3666(3) 0.0343(4) 0.9139(5)
H1_11 H 0.3765 0.0170 0.8526
H2_11 H 0.3730 0.0844 0.9032
C3_11 C 0.4217(6) 0.0401(10) 0.9851(9)
H3_11 H 0.4713 0.0640 0.9560
N3_8 N 0.2523(2) 0.9916(2) 0.0214(3)
H4_11 H 0.4086 0.9902 0.0073
C4_15 C 0.1828(3) 0.9320(3) 0.0183(3)
C5_15 C 0.1242(4) 0.9184(4) 0.0923(5)
F1_15 F 0.1453(4) 0.9742(4) 0.1534(5)
F2_15 F 0.0603(3) 0.9073(4) 0.0549(5)
F3_15 F 0.1044(4) 0.8558(4) 0.1440(4)
N5_8 N 0.9916(2) 0.7394(3) 0.9786(3)
H4_12 H 0.9902 0.5817 0.9927
C4_16 C 0.9320(3) 0.7493(4) 0.9817(3)
C5_16 C 0.9184(4) 0.7943(6) 0.9077(5)
F1_16 F 0.9742(4) 0.8290(6) 0.8466(5)
F2_16 F 0.9073(4) 0.8471(5) 0.9451(5)
F3_16 F 0.8558(4) 0.7515(6) 0.8560(4)
N3_9 N 0.0084(2) 0.2606(3) 0.0214(3)
H4_13 H 0.0098 0.4183 0.0073
C4_17 C 0.0680(3) 0.2507(4) 0.0183(3)
C5_17 C 0.0816(4) 0.2057(6) 0.0923(5)
F1_17 F 0.0258(4) 0.1710(6) 0.1534(5)
F2_17 F 0.0927(4) 0.1529(5) 0.0549(5)
F3_17 F 0.1442(4) 0.2485(6) 0.1440(4)
C2_12 C 0.9657(4) 0.3322(5) 0.9139(5)
H1_12 H 0.9830 0.3594 0.8526
H2_12 H 0.9156 0.2885 0.9032
C3_12 C 0.9599(10) 0.3815(12) 0.9851(9)
H3_12 H 0.9360 0.4072 0.9560
N5_9 N 0.7477(4) 0.0084(2) 0.9786(3)
H4_14 H 0.5914 0.0098 0.9927
C4_18 C 0.8172(3) 0.0680(3) 0.9817(3)
C5_18 C 0.8758(4) 0.0816(4) 0.9077(5)
F1_18 F 0.8547(4) 0.0258(4) 0.8466(5)
F2_18 F 0.9397(3) 0.0927(4) 0.9451(5)
F3_18 F 0.8956(4) 0.1442(4) 0.8560(4)
C2_13 C 0.0332(3) 0.3677(4) 0.2473(5)
H1_13 H 0.0431 0.3504 0.1860
H2_13 H 0.0396 0.4178 0.2366
C3_13 C 0.0883(6) 0.3735(10) 0.3185(9)
H3_13 H 0.1379 0.3974 0.2894
H4_15 H 0.0752 0.3236 0.3407
H5_15 H 0.0884 0.4034 0.3728
C2_14 C 0.3344(5) 0.9668(3) 0.2473(5)
H1_14 H 0.3072 0.9569 0.1860
H2_14 H 0.3781 0.9604 0.2366
C3_14 C 0.2851(12) 0.9117(6) 0.3185(9)
H3_14 H 0.2594 0.8621 0.2894
H4_16 H 0.2483 0.9248 0.3407
H5_16 H 0.3149 0.9116 0.3728
C2_15 C 0.6334(3) 0.9657(4) 0.0861(5)
H1_15 H 0.6235 0.9830 0.1474
H2_15 H 0.6270 0.9156 0.0968
C3_15 C 0.5783(6) 0.9599(10) 0.0149(9)
H3_15 H 0.5287 0.9360 0.0440
C2_16 C 0.0343(4) 0.6678(5) 0.0861(5)
H1_16 H 0.0170 0.6406 0.1474
H2_16 H 0.0844 0.7115 0.0968
C3_16 C 0.0401(10) 0.6185(12) 0.0149(9)
H3_16 H 0.0640 0.5928 0.0440
C2_17 C 0.9668(3) 0.6323(4) 0.7527(5)
H1_17 H 0.9569 0.6496 0.8140
H2_17 H 0.9604 0.5822 0.7634
C3_17 C 0.9117(6) 0.6265(10) 0.6815(9)
H3_17 H 0.8621 0.6026 0.7106
H4_17 H 0.9248 0.6764 0.6593
H5_17 H 0.9116 0.5966 0.6272
C2_18 C 0.6656(5) 0.0332(3) 0.7527(5)
H1_18 H 0.6928 0.0431 0.8140
H2_18 H 0.6219 0.0396 0.7634
C3_18 C 0.7149(12) 0.0883(6) 0.6815(9)
H3_18 H 0.7406 0.1379 0.7106
H4_18 H 0.7517 0.0752 0.6593
H5_18 H 0.6851 0.0884 0.6272
loop_
_geom_bond_atom_site_label_1
_geom_bond_atom_site_label_2
_geom_bond_site_symmetry_1
_geom_bond_site_symmetry_2
Cu1 N1 1_555 1_555
N1 N2 1_555 1_555
N2 C1 1_555 1_555
N3 C1 1_555 1_555
C1 C2 1_555 1_555
C2 H1 1_555 1_555
H2 C2 1_555 1_555
C3 C2 1_555 1_555
H3 C3 1_555 1_555
H4 C3 1_555 1_555
H5 C3 1_555 1_555
C4 N1 1_555 1_555
C5 C4 1_555 1_555
F1 C5 1_555 1_555
F2 C5 1_555 1_555
F3 C5 1_555 1_555
Cu2 N2 1_555 1_555
Cu3 N3 1_555 1_555
N4 Cu1 1_555 1_555
N5 Cu1 1_555 1_555
N3 C4 1_555 1_555
H3_2 C3_2 1_555 1_555
H4_2 C3_2 1_555 1_555
H5_2 C3_2 1_555 1_555
Cu1_2 N1_2 1_555 1_555
N1_2 N2_2 1_555 1_555
N2_2 C1_2 1_555 1_555
N3_2 C1_2 1_555 1_555
C1_2 C2_2 1_555 1_555
H2_2 C2_2 1_555 1_555
C4_2 N1_2 1_555 1_555
C5_2 C4_2 1_555 1_555
F1_2 C5_2 1_555 1_555
F2_2 C5_2 1_555 1_555
F3_2 C5_2 1_555 1_555
Cu3_2 N3_2 1_555 1_555
N5_2 Cu1_2 1_555 1_555
N3_2 C4_2 1_555 1_555
Cu1_3 N1_3 1_555 1_555
N1_3 N2_3 1_555 1_555
N2_3 C1_3 1_555 1_555
N3_3 C1_3 1_555 1_555
C1_3 C2_3 1_555 1_555
H2_3 C2_3 1_555 1_555
C4_3 N1_3 1_555 1_555
C5_3 C4_3 1_555 1_555
F1_3 C5_3 1_555 1_555
F2_3 C5_3 1_555 1_555
F3_3 C5_3 1_555 1_555
Cu3_3 N3_3 1_555 1_555
N5_3 Cu1_3 1_555 1_555
N3_3 C4_3 1_555 1_555
H3_3 C3_3 1_555 1_555
H4_3 C3_3 1_555 1_555
H5_3 C3_3 1_555 1_555
Cu1_4 N1_4 1_555 1_555
N1_4 N2_4 1_555 1_555
N2_4 C1_4 1_555 1_555
Cu3_2 N2_4 1_555 1_555
N4_4 Cu1_4 1_555 1_555
Cu1_5 N1_5 1_555 1_555
N1_5 N2_5 1_555 1_555
N2_5 C1_5 1_555 1_555
Cu3_3 N2_5 1_555 1_555
N4_5 Cu1_5 1_555 1_555
N5_4 Cu1_5 1_555 1_555
C5_4 C4_4 1_555 1_555
F1_4 C5_4 1_555 1_555
F2_4 C5_4 1_555 1_555
F3_4 C5_4 1_555 1_555
Cu3_6 N3_4 1_555 1_555
N3_4 C4_4 1_555 1_555
Cu1_6 N1_6 1_555 1_555
N1_6 N2_6 1_555 1_555
N2_6 C1_6 1_555 1_555
C1_6 C2_4 1_555 1_555
C2_4 H1_4 1_555 1_555
H2_4 C2_4 1_555 1_555
C3_4 C2_4 1_555 1_555
H3_4 C3_4 1_555 1_555
Cu3 N2_6 1_555 1_555
N4_6 Cu1_6 1_555 1_555
Cu1_7 N1_7 1_555 1_555
N1_7 N2_7 1_555 1_555
N2_7 C1_7 1_555 1_555
N3_5 C1_7 1_555 1_555
C4_5 N1_7 1_555 1_555
C5_5 C4_5 1_555 1_555
F1_5 C5_5 1_555 1_555
F2_5 C5_5 1_555 1_555
F3_5 C5_5 1_555 1_555
Cu3_5 N2_7 1_555 1_555
Cu2_3 N3_5 1_555 1_555
N4_7 Cu1_7 1_555 1_555
N5_5 Cu1_7 1_555 1_555
N3_5 C4_5 1_555 1_555
Cu1_8 N1_8 1_555 1_555
N1_8 N2_8 1_555 1_555
N2_8 C1_8 1_555 1_555
N3_6 C1_8 1_555 1_555
C1_8 C2_5 1_555 1_555
C2_5 H1_5 1_555 1_555
H2_5 C2_5 1_555 1_555
C3_5 C2_5 1_555 1_555
H3_5 C3_5 1_555 1_555
H4_5 C3_5 1_555 1_555
H5_7 C3_5 1_555 1_555
C4_6 N1_8 1_555 1_555
C5_6 C4_6 1_555 1_555
F1_6 C5_6 1_555 1_555
F2_6 C5_6 1_555 1_555
F3_6 C5_6 1_555 1_555
Cu3_6 N2_8 1_555 1_555
Cu2 N3_6 1_555 1_555
N4_8 Cu1_8 1_555 1_555
N5_6 Cu1_8 1_555 1_555
N3_6 C4_6 1_555 1_555
Cu1_9 N1_9 1_555 1_555
N1_9 N2_9 1_555 1_555
N2_9 C1_9 1_555 1_555
N3_7 C1_9 1_555 1_555
C4_7 N1_9 1_555 1_555
C5_7 C4_7 1_555 1_555
F1_7 C5_7 1_555 1_555
F2_7 C5_7 1_555 1_555
F3_7 C5_7 1_555 1_555
Cu3_4 N2_9 1_555 1_555
Cu2_2 N3_7 1_555 1_555
N4_9 Cu1_9 1_555 1_555
N5_7 Cu1_9 1_555 1_555
N3_7 C4_7 1_555 1_555
Cu2 N1_10 1_555 1_555
N1_10 N4 1_555 1_555
N4 C1_10 1_555 1_555
N5_7 C1_10 1_555 1_555
C1_10 C2_6 1_555 1_555
C2_6 H1_6 1_555 1_555
H2_6 C2_6 1_555 1_555
C3_6 C2_6 1_555 1_555
H3_6 C3_6 1_555 1_555
H4_6 C3_6 1_555 1_555
H5_8 C3_6 1_555 1_555
C4_8 N1_10 1_555 1_555
C5_8 C4_8 1_555 1_555
F1_8 C5_8 1_555 1_555
F2_8 C5_8 1_555 1_555
F3_8 C5_8 1_555 1_555
N5_7 C4_8 1_555 1_555
Cu2_2 N1_11 1_555 1_555
N1_11 N4_2 1_555 1_555
N4_2 C1_11 1_555 1_555
N5_5 C1_11 1_555 1_555
C1_11 C2_7 1_555 1_555
H2_7 C2_7 1_555 1_555
C4_9 N1_11 1_555 1_555
C5_9 C4_9 1_555 1_555
F1_9 C5_9 1_555 1_555
F2_9 C5_9 1_555 1_555
F3_9 C5_9 1_555 1_555
N5_5 C4_9 1_555 1_555
H3_7 C3_7 1_555 1_555
H4_7 C3_7 1_555 1_555
H5_9 C3_7 1_555 1_555
H3_8 C3_8 1_555 1_555
H4_8 C3_8 1_555 1_555
H5_10 C3_8 1_555 1_555
Cu2_3 N1_12 1_555 1_555
N1_12 N4_3 1_555 1_555
N4_3 C1_12 1_555 1_555
N5_6 C1_12 1_555 1_555
C1_12 C2_8 1_555 1_555
H2_8 C2_8 1_555 1_555
C4_10 N1_12 1_555 1_555
C5_10 C4_10 1_555 1_555
F1_10 C5_10 1_555 1_555
F2_10 C5_10 1_555 1_555
F3_10 C5_10 1_555 1_555
N5_6 C4_10 1_555 1_555
Cu3_5 N1_13 1_555 1_555
N1_13 N4_7 1_555 1_555
N4_7 C1_13 1_555 1_555
Cu3_6 N1_14 1_555 1_555
N1_14 N4_8 1_555 1_555
N4_8 C1_14 1_555 1_555
Cu3_4 N1_15 1_555 1_555
N1_15 N4_9 1_555 1_555
N4_9 C1_15 1_555 1_555
C1_15 C2_9 1_555 1_555
C2_9 H1_9 1_555 1_555
H2_9 C2_9 1_555 1_555
C3_9 C2_9 1_555 1_555
H3_9 C3_9 1_555 1_555
C5_11 C4_11 1_555 1_555
F1_11 C5_11 1_555 1_555
F2_11 C5_11 1_555 1_555
F3_11 C5_11 1_555 1_555
N5_4 C4_11 1_555 1_555
Cu3_2 N1_16 1_555 1_555
N1_16 N4_4 1_555 1_555
N4_4 C1_16 1_555 1_555
N5_3 C1_16 1_555 1_555
C4_12 N1_16 1_555 1_555
C5_12 C4_12 1_555 1_555
F1_12 C5_12 1_555 1_555
F2_12 C5_12 1_555 1_555
F3_12 C5_12 1_555 1_555
N5_3 C4_12 1_555 1_555
Cu3_3 N1_17 1_555 1_555
N1_17 N4_5 1_555 1_555
N4_5 C1_17 1_555 1_555
N5 C1_17 1_555 1_555
C1_17 C2_10 1_555 1_555
C2_10 H1_10 1_555 1_555
H2_10 C2_10 1_555 1_555
C3_10 C2_10 1_555 1_555
H3_10 C3_10 1_555 1_555
H4_10 C3_10 1_555 1_555
H5_14 C3_10 1_555 1_555
C4_13 N1_17 1_555 1_555
C5_13 C4_13 1_555 1_555
F1_13 C5_13 1_555 1_555
F2_13 C5_13 1_555 1_555
F3_13 C5_13 1_555 1_555
N5 C4_13 1_555 1_555
Cu3 N1_18 1_555 1_555
N1_18 N4_6 1_555 1_555
N4_6 C1_18 1_555 1_555
N5_2 C1_18 1_555 1_555
C4_14 N1_18 1_555 1_555
C5_14 C4_14 1_555 1_555
F1_14 C5_14 1_555 1_555
F2_14 C5_14 1_555 1_555
F3_14 C5_14 1_555 1_555
N5_2 C4_14 1_555 1_555
C2_11 H1_11 1_555 1_555
H2_11 C2_11 1_555 1_555
C3_11 C2_11 1_555 1_555
H3_11 C3_11 1_555 1_555
C5_15 C4_15 1_555 1_555
F1_15 C5_15 1_555 1_555
F2_15 C5_15 1_555 1_555
F3_15 C5_15 1_555 1_555
N3_8 C4_15 1_555 1_555
C5_16 C4_16 1_555 1_555
F1_16 C5_16 1_555 1_555
F2_16 C5_16 1_555 1_555
F3_16 C5_16 1_555 1_555
N5_8 C4_16 1_555 1_555
C5_17 C4_17 1_555 1_555
F1_17 C5_17 1_555 1_555
F2_17 C5_17 1_555 1_555
F3_17 C5_17 1_555 1_555
N3_9 C4_17 1_555 1_555
C2_12 H1_12 1_555 1_555
H2_12 C2_12 1_555 1_555
C3_12 C2_12 1_555 1_555
H3_12 C3_12 1_555 1_555
C5_18 C4_18 1_555 1_555
F1_18 C5_18 1_555 1_555
F2_18 C5_18 1_555 1_555
F3_18 C5_18 1_555 1_555
N5_9 C4_18 1_555 1_555
C2_13 H1_13 1_555 1_555
H2_13 C2_13 1_555 1_555
C3_13 C2_13 1_555 1_555
H3_13 C3_13 1_555 1_555
H4_15 C3_13 1_555 1_555
H5_15 C3_13 1_555 1_555
C2_14 H1_14 1_555 1_555
H2_14 C2_14 1_555 1_555
C3_14 C2_14 1_555 1_555
H3_14 C3_14 1_555 1_555
H4_16 C3_14 1_555 1_555
H5_16 C3_14 1_555 1_555
C2_15 H1_15 1_555 1_555
H2_15 C2_15 1_555 1_555
C3_15 C2_15 1_555 1_555
H3_15 C3_15 1_555 1_555
C2_16 H1_16 1_555 1_555
H2_16 C2_16 1_555 1_555
C3_16 C2_16 1_555 1_555
H3_16 C3_16 1_555 1_555
C2_17 H1_17 1_555 1_555
H2_17 C2_17 1_555 1_555
C3_17 C2_17 1_555 1_555
H3_17 C3_17 1_555 1_555
H4_17 C3_17 1_555 1_555
H5_17 C3_17 1_555 1_555
C2_18 H1_18 1_555 1_555
H2_18 C2_18 1_555 1_555
C3_18 C2_18 1_555 1_555
H3_18 C3_18 1_555 1_555
H4_18 C3_18 1_555 1_555
H5_18 C3_18 1_555 1_555

#END
