
###############################################################################
#
# This file contains modified crystal structure data generated from the
# MOF subset of the Cambridge Structural Database (CSD) v543 
# hosted by the Cambridge Crystallographic Data Centre (CCDC).
#
# This work is licensed under the Creative Commons
# Attribution-NonCommercial-ShareAlike 4.0 International License.
# To view a copy of this license, visit
# http://creativecommons.org/licenses/by-nc-sa/4.0/
# or send a letter to
# Creative Commons, PO Box 1866, Mountain View, CA 94042, USA.
#
# CIF created using the CSD Python API on 29 September 2022
# The structure has been converted into the P1 space group
# The structure has a 3D framework
# The original CSD entry JATYUC is in the triclinic crystal system
# The framework has been calculated to contain at least 10.0% void space
# The void calculation uses a probe of radius 1.32A, grid spacing 0.4
#
###############################################################################

data_JATYUC
_chemical_formula_moiety         '(C124 H90 N8 O26 Zn6)n'
_symmetry_cell_setting           triclinic
_symmetry_space_group_name_H-M   'P 1'
_symmetry_Int_Tables_number      1
_space_group_name_Hall           'P 1'
loop_
_symmetry_equiv_pos_site_id
_symmetry_equiv_pos_as_xyz
1 x,y,z
_cell_length_a                   12.6898(5)
_cell_length_b                   14.5206(5)
_cell_length_c                   22.7147(8)
_cell_angle_alpha                85.0430(10)
_cell_angle_beta                 75.3070(10)
_cell_angle_gamma                64.9710(10)
_cell_volume                     3667.39
loop_
_atom_site_label
_atom_site_type_symbol
_atom_site_fract_x
_atom_site_fract_y
_atom_site_fract_z
O1 O 0.1291(2) 0.88858(17) 0.91810(11)
O2 O 0.1185(2) 0.91080(18) 0.82184(11)
O3 O 0.0495(2) 0.12931(16) 0.90689(11)
O7 O 0.2156(2) 0.14671(18) 0.89696(12)
C1 C 0.0384(3) 0.2968(2) 0.90150(15)
C5 C 0.0987(3) 0.3594(2) 0.89260(15)
H3 H 0.181238 0.330697 0.888050
C6 C 0.1006(3) 0.8716(2) 0.87207(15)
C9 C 0.0375(3) 0.4643(2) 0.89040(16)
H4 H 0.079759 0.504772 0.883672
C12 C 0.1051(3) 0.1862(2) 0.90185(15)
C13 C 0.0373(3) 0.8025(2) 0.87991(15)
C23 C 0.0011(3) 0.7847(3) 0.83075(15)
H10 H 0.017767 0.814186 0.793564
C34 C 0.0104(3) 0.7592(3) 0.93507(16)
H17 H 0.032602 0.772035 0.968401
Zn5 Zn 0.25824(4) 0.90490(3) 0.74785(2)
Zn8 Zn 0.19137(4) 0.99532(3) 0.90987(2)
O9 O 0.1694(2) 0.05416(17) 0.75013(12)
N5 N 0.1037(4) 0.2225(2) 0.74818(15)
C27 C 0.2858(3) 0.0173(3) 0.01475(16)
C31 C 0.2951(4) 0.0116(3) 0.07423(17)
H14 H 0.344759 0.036035 0.084900
C50 C 0.1936(4) 0.1298(3) 0.74583(17)
C59 C 0.3089(6) 0.0029(4) 0.4510(2)
H38 H 0.357848 0.027589 0.462224
C60 C 0.3127(5) 0.0011(4) 0.3902(2)
H39 H 0.363357 0.023417 0.361804
C61 C 0.3184(5) 0.1179(4) 0.7382(2)
H40 H 0.366802 0.050094 0.748391
H41 H 0.319104 0.165826 0.764501
H42 H 0.350159 0.130079 0.696643
C62 C 0.1219(6) 0.3164(3) 0.7429(2)
H43 H 0.084485 0.353881 0.780858
H44 H 0.086877 0.356913 0.711390
H45 H 0.206136 0.299804 0.732837
O20 O 0.2341(3) 0.12255(18) 0.58928(12)
O21 O 0.0551(3) 0.1293(2) 0.59726(15)
Zn3 Zn 0.24561(4) 0.98339(3) 0.58392(2)
O4 O 0.3877(2) 0.81139(17) 0.78689(12)
O5 O 0.2221(3) 0.81214(19) 0.70427(13)
O8 O 0.3497(2) 0.93211(17) 0.85326(13)
N2 N 0.8519(3) 0.61555(19) 0.89717(13)
O13 O 0.1543(3) 0.9120(2) 0.62941(18)
N3 N 0.2413(3) 0.9726(2) 0.49434(15)
C2 C 0.9141(3) 0.3428(2) 0.90962(16)
H1 H 0.871877 0.302382 0.916030
C3 C 0.9403(3) 0.7232(3) 0.83702(16)
H2 H 0.915772 0.711995 0.804087
C4 C 0.9159(3) 0.6786(2) 0.89179(15)
C7 C 0.4109(3) 0.8442(2) 0.82911(17)
C10 C 0.9140(3) 0.5093(2) 0.89813(15)
C11 C 0.7389(3) 0.6643(2) 0.88237(16)
C14 C 0.8524(3) 0.4474(2) 0.90833(16)
H5 H 0.769552 0.476397 0.914293
C15 C 0.1680(3) 0.8348(3) 0.66232(19)
C16 C 0.7100(3) 0.6306(2) 0.83583(17)
H6 H 0.762920 0.569356 0.815452
C17 C 0.5234(3) 0.7791(2) 0.84893(16)
C18 C 0.1471(4) 0.3359(3) 0.58767(16)
H7 H 0.229747 0.298768 0.576291
C20 C 0.6031(3) 0.6876(2) 0.81958(16)
H8 H 0.584639 0.663986 0.788492
C24 C 0.1007(4) 0.4403(2) 0.59361(16)
H11 H 0.151751 0.473046 0.584905
C25 C 0.9505(4) 0.6966(3) 0.94130(16)
H12 H 0.933606 0.667065 0.978424
C29 C 0.1237(4) 0.1720(3) 0.59414(17)
C30 C 0.2315(3) 0.9700(3) 0.11840(16)
C32 C 0.0685(4) 0.6221(3) 0.67134(17)
H15 H 0.078949 0.561815 0.691926
C33 C 0.6561(3) 0.7556(3) 0.91299(18)
H16 H 0.673047 0.778569 0.944906
C35 C 0.2392(4) 0.9648(3) 0.30616(18)
C36 C 0.1586(4) 0.9373(3) 0.03838(16)
H18 H 0.112193 0.910541 0.026378
C38 C 0.1257(4) 0.6800(3) 0.68115(17)
H20 H 0.175146 0.657807 0.708182
C39 C 0.0733(4) 0.2854(3) 0.59832(16)
C40 C 0.2349(4) 0.9685(3) 0.18306(17)
C42 C 0.5500(3) 0.8119(3) 0.89667(17)
H22 H 0.495790 0.872251 0.917690
C43 C 0.1385(4) 0.9692(3) 0.22883(17)
H23 H 0.071450 0.971041 0.218244
C45 C 0.1105(3) 0.7707(2) 0.65131(17)
C47 C 0.1685(4) 0.9341(3) 0.41654(17)
H26 H 0.118127 0.909460 0.406754
C48 C 0.1391(4) 0.9672(3) 0.28975(18)
H27 H 0.073354 0.967509 0.319568
C49 C 0.2401(4) 0.9654(3) 0.37135(18)
C51 C 0.3343(4) 0.9644(4) 0.26123(19)
H28 H 0.400765 0.963825 0.271766
C54 C 0.0371(4) 0.8015(3) 0.6115(2)
H31 H 0.025658 0.862380 0.591462
C55 C 0.1710(4) 0.9393(4) 0.47658(19)
H32 H 0.120774 0.918349 0.506283
C56 C 0.1633(4) 0.9312(3) 0.09840(17)
H33 H 0.120442 0.900795 0.125922
C58 C 0.3336(4) 0.9649(4) 0.19987(19)
H37 H 0.400282 0.962714 0.170087
O17 O 0.3801(3) 0.92056(19) 0.66928(13)
O19 O 0.4161(3) 0.8830(2) 0.57204(13)
N6 N 0.2181(3) 0.9801(2) 0.99644(13)
N4 N 0.9286(3) 0.6025(2) 0.62098(15)
C8 C 0.9784(3) 0.4962(2) 0.61248(16)
C19 C 0.5723(3) 0.7964(2) 0.62194(16)
C21 C 0.8063(3) 0.6642(2) 0.62177(17)
C22 C 0.7343(4) 0.7269(3) 0.67129(17)
H9 H 0.764707 0.725619 0.704668
C26 C 0.9952(3) 0.6544(2) 0.63060(16)
C28 C 0.4474(4) 0.8706(3) 0.62181(18)
C37 C 0.9028(4) 0.4459(3) 0.62315(19)
H19 H 0.820209 0.482694 0.635639
C41 C 0.6177(4) 0.7914(3) 0.67211(17)
H21 H 0.568970 0.831942 0.706477
C44 C 0.9798(4) 0.7446(3) 0.6003(2)
H24 H 0.931390 0.766576 0.572802
C46 C 0.9506(4) 0.3420(3) 0.6152(2)
H25 H 0.899625 0.309319 0.621187
C52 C 0.7615(4) 0.6659(3) 0.57212(19)
H29 H 0.809299 0.622561 0.538731
C53 C 0.6453(4) 0.7322(3) 0.57247(18)
H30 H 0.615443 0.733911 0.538818
H13 H 0.327515 0.047770 0.986431
C57 C 0.9814(5) 0.2298(3) 0.7571(2)
H34 H 0.979041 0.191461 0.725458
H35 H 0.926960 0.299752 0.755678
H36 H 0.958421 0.203032 0.795954
O6 O 0.6199(3) 0.07944(19) 0.33072(13)
O10 O 0.5839(3) 0.1170(2) 0.42796(13)
N4_2 N 0.0714(3) 0.3975(2) 0.37902(15)
C8_2 C 0.0216(3) 0.5038(2) 0.38752(16)
C19_2 C 0.4277(3) 0.2036(2) 0.37806(16)
C21_2 C 0.1937(3) 0.3358(2) 0.37823(17)
C22_2 C 0.2657(4) 0.2731(3) 0.32871(17)
H9_2 H 0.235293 0.274381 0.295332
C26_2 C 0.0048(3) 0.3456(2) 0.36940(16)
C28_2 C 0.5526(4) 0.1294(3) 0.37819(18)
C37_2 C 0.0972(4) 0.5541(3) 0.37685(19)
H19_2 H 0.179791 0.517306 0.364361
C41_2 C 0.3823(4) 0.2086(3) 0.32789(17)
H21_2 H 0.431030 0.168058 0.293523
C44_2 C 0.0202(4) 0.2554(3) 0.3997(2)
H24_2 H 0.068610 0.233424 0.427198
C46_2 C 0.0494(4) 0.6580(3) 0.3848(2)
H25_2 H 0.100375 0.690681 0.378813
C52_2 C 0.2385(4) 0.3341(3) 0.42788(19)
H29_2 H 0.190701 0.377439 0.461269
C53_2 C 0.3547(4) 0.2678(3) 0.42753(18)
H30_2 H 0.384557 0.266089 0.461182
Zn4 Zn 0.74176(4) 0.09510(3) 0.25215(2)
Zn9 Zn 0.75439(4) 0.01661(3) 0.41608(2)
N1 N 0.7819(3) 0.0199(2) 0.00356(13)
Zn6 Zn 0.80863(4) 0.00468(3) 0.09013(2)
O4_2 O 0.6123(2) 0.18861(17) 0.21311(12)
O5_2 O 0.7779(3) 0.18786(19) 0.29573(13)
O8_2 O 0.6503(2) 0.06789(17) 0.14674(13)
O11 O 0.7659(3) 0.87745(18) 0.41072(12)
N2_2 N 0.1481(3) 0.38445(19) 0.10283(13)
O12 O 0.9449(3) 0.8707(2) 0.40274(15)
O13_2 O 0.8457(3) 0.0880(2) 0.37059(18)
N3_2 N 0.7587(3) 0.0274(2) 0.50566(15)
C2_2 C 0.0859(3) 0.6572(2) 0.09038(16)
H1_2 H 0.128123 0.697618 0.083970
C3_2 C 0.0597(3) 0.2768(3) 0.16298(16)
H2_2 H 0.084228 0.288005 0.195913
C4_2 C 0.0841(3) 0.3214(2) 0.10821(15)
C7_2 C 0.5891(3) 0.1558(2) 0.17089(17)
C10_2 C 0.0860(3) 0.4907(2) 0.10187(15)
C11_2 C 0.2611(3) 0.3357(2) 0.11763(16)
C14_2 C 0.1476(3) 0.5526(2) 0.09167(16)
H5_2 H 0.230448 0.523603 0.085707
C15_2 C 0.8320(3) 0.1652(3) 0.33768(19)
C16_2 C 0.2900(3) 0.3694(2) 0.16417(17)
H6_2 H 0.237080 0.430644 0.184548
C17_2 C 0.4766(3) 0.2209(2) 0.15107(16)
C18_2 C 0.8529(4) 0.6641(3) 0.41233(16)
H7_2 H 0.770253 0.701232 0.423709
C20_2 C 0.3969(3) 0.3124(2) 0.18042(16)
H8_2 H 0.415361 0.336014 0.211508
C24_2 C 0.8993(4) 0.5597(2) 0.40639(16)
H11_2 H 0.848249 0.526954 0.415095
C25_2 C 0.0495(4) 0.3034(3) 0.05870(16)
H12_2 H 0.066394 0.332935 0.021576
C29_2 C 0.8763(4) 0.8280(3) 0.40586(17)
C30_2 C 0.7685(3) 0.0300(3) 0.88160(16)
C32_2 C 0.9315(4) 0.3779(3) 0.32866(17)
H15_2 H 0.921051 0.438185 0.308074
C33_2 C 0.3439(3) 0.2444(3) 0.08701(18)
H16_2 H 0.326953 0.221431 0.055094
C35_2 C 0.7608(4) 0.0352(3) 0.69384(18)
C36_2 C 0.8414(4) 0.0627(3) 0.96162(16)
H18_2 H 0.887807 0.089459 0.973622
C38_2 C 0.8743(4) 0.3200(3) 0.31885(17)
H20_2 H 0.824854 0.342193 0.291818
C39_2 C 0.9267(4) 0.7146(3) 0.40168(16)
C40_2 C 0.7651(4) 0.0315(3) 0.81694(17)
C42_2 C 0.4500(3) 0.1881(3) 0.10333(17)
H22_2 H 0.504210 0.127749 0.082310
C43_2 C 0.8615(4) 0.0308(3) 0.77117(17)
H23_2 H 0.928550 0.028959 0.781756
C45_2 C 0.8895(3) 0.2293(2) 0.34869(17)
C47_2 C 0.8315(4) 0.0659(3) 0.58346(17)
H26_2 H 0.881873 0.090540 0.593246
C48_2 C 0.8609(4) 0.0328(3) 0.71025(18)
H27_2 H 0.926646 0.032491 0.680432
C49_2 C 0.7599(4) 0.0346(3) 0.62865(18)
C51_2 C 0.6657(4) 0.0356(4) 0.73877(19)
H28_2 H 0.599235 0.036175 0.728234
C54_2 C 0.9629(4) 0.1985(3) 0.3885(2)
H31_2 H 0.974342 0.137620 0.408538
C55_2 C 0.8290(4) 0.0607(4) 0.52342(19)
H32_2 H 0.879226 0.081651 0.493717
C56_2 C 0.8367(4) 0.0688(3) 0.90160(17)
H33_2 H 0.879558 0.099205 0.874078
C58_2 C 0.6664(4) 0.0351(4) 0.80013(19)
H37_2 H 0.599718 0.037286 0.829913
O14 O 0.8709(2) 0.11142(17) 0.08190(11)
O15 O 0.8815(2) 0.08920(18) 0.17816(11)
O9_2 O 0.8306(2) 0.94584(17) 0.24987(12)
N5_2 N 0.8963(4) 0.7775(2) 0.25182(15)
C27_2 C 0.7142(3) 0.9827(3) 0.98525(16)
C31_2 C 0.7049(4) 0.9884(3) 0.92577(17)
H14_2 H 0.655241 0.963965 0.915100
C50_2 C 0.8064(4) 0.8702(3) 0.25417(17)
C59_2 C 0.6911(6) 0.9971(4) 0.5490(2)
H38_2 H 0.642152 0.972411 0.537776
C60_2 C 0.6873(5) 0.9989(4) 0.6098(2)
H39_2 H 0.636643 0.976583 0.638196
C61_2 C 0.6816(5) 0.8821(4) 0.2618(2)
H40_2 H 0.633198 0.949906 0.251609
H41_2 H 0.680896 0.834174 0.235499
H42_2 H 0.649841 0.869921 0.303357
C62_2 C 0.8781(6) 0.6836(3) 0.2571(2)
H43_2 H 0.915515 0.646119 0.219142
H44_2 H 0.913123 0.643087 0.288610
H45_2 H 0.793864 0.700196 0.267163
O16 O 0.9505(2) 0.87069(16) 0.09311(11)
O18 O 0.7844(2) 0.85329(18) 0.10304(12)
C1_2 C 0.9616(3) 0.7032(2) 0.09850(15)
C5_2 C 0.9013(3) 0.6406(2) 0.10740(15)
H3_2 H 0.818762 0.669303 0.111950
C6_2 C 0.8994(3) 0.1284(2) 0.12793(15)
C9_2 C 0.9625(3) 0.5357(2) 0.10960(16)
H4_2 H 0.920241 0.495228 0.116328
C12_2 C 0.8949(3) 0.8138(2) 0.09815(15)
C13_2 C 0.9627(3) 0.1975(2) 0.12009(15)
C23_2 C 0.9989(3) 0.2153(3) 0.16925(15)
H10_2 H 0.982233 0.185814 0.206436
C34_2 C 0.9896(3) 0.2408(3) 0.06493(16)
H17_2 H 0.967398 0.227965 0.031599
C57_2 C 0.0186(5) 0.7702(3) 0.2429(2)
H34_2 H 0.020959 0.808539 0.274542
H35_2 H 0.073040 0.700248 0.244322
H36_2 H 0.041579 0.796968 0.204046
H13_2 H 0.672485 0.952230 0.013569
loop_
_geom_bond_atom_site_label_1
_geom_bond_atom_site_label_2
_geom_bond_site_symmetry_1
_geom_bond_site_symmetry_2
O1 C6 1_555 1_555
O2 C6 1_555 1_555
O3 C12 1_555 1_555
O7 C12 1_555 1_555
C5 C1 1_555 1_555
H3 C5 1_555 1_555
C6 C13 1_555 1_555
C9 C5 1_555 1_555
H4 C9 1_555 1_555
C12 C1 1_555 1_555
C13 C23 1_555 1_555
H10 C23 1_555 1_555
C34 C13 1_555 1_555
H17 C34 1_555 1_555
Zn5 O2 1_555 1_555
Zn8 O1 1_555 1_555
N5 C50 1_555 1_555
C31 C27 1_555 1_555
H14 C31 1_555 1_555
C50 O9 1_555 1_555
H38 C59 1_555 1_555
H39 C60 1_555 1_555
C61 C50 1_555 1_555
H40 C61 1_555 1_555
H41 C61 1_555 1_555
H42 C61 1_555 1_555
C62 N5 1_555 1_555
H43 C62 1_555 1_555
H44 C62 1_555 1_555
H45 C62 1_555 1_555
C59 C60 1_555 1_555
Zn5 O4 1_555 1_555
Zn8 O8 1_555 1_555
Zn3 O13 1_555 1_555
O4 C7 1_555 1_555
O5 Zn5 1_555 1_555
O8 C7 1_555 1_555
O20 C29 1_555 1_555
N2 C4 1_555 1_555
O21 C29 1_555 1_555
O13 C15 1_555 1_555
N3 Zn3 1_555 1_555
C2 H1 1_555 1_555
C3 H2 1_555 1_555
C4 C3 1_555 1_555
C7 C17 1_555 1_555
C10 N2 1_555 1_555
C11 N2 1_555 1_555
C14 C2 1_555 1_555
H5 C14 1_555 1_555
C15 O5 1_555 1_555
C16 C11 1_555 1_555
H6 C16 1_555 1_555
C17 C20 1_555 1_555
C18 H7 1_555 1_555
C20 C16 1_555 1_555
H8 C20 1_555 1_555
C24 C18 1_555 1_555
H11 C24 1_555 1_555
C25 C4 1_555 1_555
H12 C25 1_555 1_555
C29 C39 1_555 1_555
H15 C32 1_555 1_555
C33 C11 1_555 1_555
H16 C33 1_555 1_555
C35 C48 1_555 1_555
H18 C36 1_555 1_555
C38 C32 1_555 1_555
H20 C38 1_555 1_555
C39 C18 1_555 1_555
C40 C30 1_555 1_555
C42 C17 1_555 1_555
H22 C42 1_555 1_555
C43 C40 1_555 1_555
H23 C43 1_555 1_555
C45 C15 1_555 1_555
C47 H26 1_555 1_555
C48 C43 1_555 1_555
H27 C48 1_555 1_555
C49 C35 1_555 1_555
C51 C35 1_555 1_555
H28 C51 1_555 1_555
H31 C54 1_555 1_555
C55 N3 1_555 1_555
H32 C55 1_555 1_555
C56 C30 1_555 1_555
H33 C56 1_555 1_555
C58 C40 1_555 1_555
H37 C58 1_555 1_555
O17 Zn5 1_555 1_555
O19 Zn3 1_555 1_555
N6 Zn8 1_555 1_555
C10 C14 1_555 1_555
C33 C42 1_555 1_555
C36 C56 1_555 1_555
C38 C45 1_555 1_555
C45 C54 1_555 1_555
C47 C49 1_555 1_555
C47 C55 1_555 1_555
C51 C58 1_555 1_555
O17 C28 1_555 1_555
O19 C28 1_555 1_555
N4 C8 1_555 1_555
C19 C28 1_555 1_555
C21 N4 1_555 1_555
C22 C21 1_555 1_555
H9 C22 1_555 1_555
C26 N4 1_555 1_555
C37 C8 1_555 1_555
H19 C37 1_555 1_555
C41 C19 1_555 1_555
H21 C41 1_555 1_555
C44 C26 1_555 1_555
H24 C44 1_555 1_555
C46 C37 1_555 1_555
H25 C46 1_555 1_555
C52 C21 1_555 1_555
H29 C52 1_555 1_555
C53 C19 1_555 1_555
H30 C53 1_555 1_555
C22 C41 1_555 1_555
C52 C53 1_555 1_555
H34 C57 1_555 1_555
H35 C57 1_555 1_555
H36 C57 1_555 1_555
O6 C28_2 1_555 1_555
O10 C28_2 1_555 1_555
N4_2 C8_2 1_555 1_555
C19_2 C28_2 1_555 1_555
C21_2 N4_2 1_555 1_555
C22_2 C21_2 1_555 1_555
H9_2 C22_2 1_555 1_555
C26_2 N4_2 1_555 1_555
C37_2 C8_2 1_555 1_555
H19_2 C37_2 1_555 1_555
C41_2 C19_2 1_555 1_555
H21_2 C41_2 1_555 1_555
C44_2 C26_2 1_555 1_555
H24_2 C44_2 1_555 1_555
C46_2 C37_2 1_555 1_555
H25_2 C46_2 1_555 1_555
C52_2 C21_2 1_555 1_555
H29_2 C52_2 1_555 1_555
C53_2 C19_2 1_555 1_555
H30_2 C53_2 1_555 1_555
Zn4 O6 1_555 1_555
Zn9 O10 1_555 1_555
C22_2 C41_2 1_555 1_555
C52_2 C53_2 1_555 1_555
Zn6 N1 1_555 1_555
Zn4 O4_2 1_555 1_555
Zn6 O8_2 1_555 1_555
Zn9 O13_2 1_555 1_555
O4_2 C7_2 1_555 1_555
O5_2 Zn4 1_555 1_555
O8_2 C7_2 1_555 1_555
O11 C29_2 1_555 1_555
N2_2 C4_2 1_555 1_555
O12 C29_2 1_555 1_555
O13_2 C15_2 1_555 1_555
N3_2 Zn9 1_555 1_555
C2_2 H1_2 1_555 1_555
C3_2 H2_2 1_555 1_555
C4_2 C3_2 1_555 1_555
C7_2 C17_2 1_555 1_555
C10_2 N2_2 1_555 1_555
C11_2 N2_2 1_555 1_555
C14_2 C2_2 1_555 1_555
H5_2 C14_2 1_555 1_555
C15_2 O5_2 1_555 1_555
C16_2 C11_2 1_555 1_555
H6_2 C16_2 1_555 1_555
C17_2 C20_2 1_555 1_555
C18_2 H7_2 1_555 1_555
C20_2 C16_2 1_555 1_555
H8_2 C20_2 1_555 1_555
C24_2 C18_2 1_555 1_555
H11_2 C24_2 1_555 1_555
C25_2 C4_2 1_555 1_555
H12_2 C25_2 1_555 1_555
C29_2 C39_2 1_555 1_555
H15_2 C32_2 1_555 1_555
C33_2 C11_2 1_555 1_555
H16_2 C33_2 1_555 1_555
C35_2 C48_2 1_555 1_555
H18_2 C36_2 1_555 1_555
C38_2 C32_2 1_555 1_555
H20_2 C38_2 1_555 1_555
C39_2 C18_2 1_555 1_555
C40_2 C30_2 1_555 1_555
C42_2 C17_2 1_555 1_555
H22_2 C42_2 1_555 1_555
C43_2 C40_2 1_555 1_555
H23_2 C43_2 1_555 1_555
C45_2 C15_2 1_555 1_555
C47_2 H26_2 1_555 1_555
C48_2 C43_2 1_555 1_555
H27_2 C48_2 1_555 1_555
C49_2 C35_2 1_555 1_555
C51_2 C35_2 1_555 1_555
H28_2 C51_2 1_555 1_555
H31_2 C54_2 1_555 1_555
C55_2 N3_2 1_555 1_555
H32_2 C55_2 1_555 1_555
C56_2 C30_2 1_555 1_555
H33_2 C56_2 1_555 1_555
C58_2 C40_2 1_555 1_555
H37_2 C58_2 1_555 1_555
O14 Zn6 1_555 1_555
O15 Zn4 1_555 1_555
C10_2 C14_2 1_555 1_555
C33_2 C42_2 1_555 1_555
C36_2 C56_2 1_555 1_555
C38_2 C45_2 1_555 1_555
C45_2 C54_2 1_555 1_555
C47_2 C49_2 1_555 1_555
C47_2 C55_2 1_555 1_555
C51_2 C58_2 1_555 1_555
N5_2 C50_2 1_555 1_555
C31_2 C27_2 1_555 1_555
H14_2 C31_2 1_555 1_555
C50_2 O9_2 1_555 1_555
H38_2 C59_2 1_555 1_555
H39_2 C60_2 1_555 1_555
C61_2 C50_2 1_555 1_555
H40_2 C61_2 1_555 1_555
H41_2 C61_2 1_555 1_555
H42_2 C61_2 1_555 1_555
C62_2 N5_2 1_555 1_555
H43_2 C62_2 1_555 1_555
H44_2 C62_2 1_555 1_555
H45_2 C62_2 1_555 1_555
C59_2 C60_2 1_555 1_555
O14 C6_2 1_555 1_555
O15 C6_2 1_555 1_555
O16 C12_2 1_555 1_555
O18 C12_2 1_555 1_555
C5_2 C1_2 1_555 1_555
H3_2 C5_2 1_555 1_555
C6_2 C13_2 1_555 1_555
C9_2 C5_2 1_555 1_555
H4_2 C9_2 1_555 1_555
C12_2 C1_2 1_555 1_555
C13_2 C23_2 1_555 1_555
H10_2 C23_2 1_555 1_555
C34_2 C13_2 1_555 1_555
H17_2 C34_2 1_555 1_555
H34_2 C57_2 1_555 1_555
H35_2 C57_2 1_555 1_555
H36_2 C57_2 1_555 1_555

#END
