
###############################################################################
#
# This file contains modified crystal structure data generated from the
# MOF subset of the Cambridge Structural Database (CSD) v543 
# hosted by the Cambridge Crystallographic Data Centre (CCDC).
#
# This work is licensed under the Creative Commons
# Attribution-NonCommercial-ShareAlike 4.0 International License.
# To view a copy of this license, visit
# http://creativecommons.org/licenses/by-nc-sa/4.0/
# or send a letter to
# Creative Commons, PO Box 1866, Mountain View, CA 94042, USA.
#
# CIF created using the CSD Python API on 29 September 2022
# The structure has been converted into the P1 space group
# The structure has a 3D framework
# The original CSD entry JAVGEW is in the triclinic crystal system
# The framework has been calculated to contain at least 10.0% void space
# The void calculation uses a probe of radius 1.32A, grid spacing 0.4
#
###############################################################################

data_JAVGEW
_chemical_formula_moiety         '(C4 H16 F4 Ga6 O13 P4)n'
_symmetry_cell_setting           triclinic
_symmetry_space_group_name_H-M   'P 1'
_symmetry_Int_Tables_number      1
_space_group_name_Hall           'P 1'
loop_
_symmetry_equiv_pos_site_id
_symmetry_equiv_pos_as_xyz
1 x,y,z
_cell_length_a                   5.0564(19)
_cell_length_b                   8.340(2)
_cell_length_c                   12.675(3)
_cell_angle_alpha                90.09(3)
_cell_angle_beta                 92.26(3)
_cell_angle_gamma                90.08(2)
_cell_volume                     534.093
loop_
_atom_site_label
_atom_site_type_symbol
_atom_site_fract_x
_atom_site_fract_y
_atom_site_fract_z
Ga10 Ga -0.000000 0.500000 0.000000
Ga10_2 Ga 0.000000 0.500000 1.000000
Ga13 Ga 0.000000 0.500000 0.500000
P4 P 0.50764(14) 0.26432(9) 0.01960(6)
O12 O 0.5416(4) 0.2610(3) 0.13973(16)
Ga6 Ga 0.73946(6) 0.35675(4) 0.25003(2)
Ga10_3 Ga 1.000000 0.500000 0.000000
P3 P 0.50774(14) 0.26430(9) 0.48048(6)
O9 O 0.5420(4) 0.2611(3) 0.36022(16)
O10 O 0.6962(4) 0.3753(2) 0.53681(16)
O11 O 0.2195(4) 0.3017(3) 0.51017(17)
C3 C 0.5839(6) 0.0635(4) 0.5263(3)
H9 H 0.770(7) 0.042(4) 0.511(3)
H10 H 0.562(7) 0.068(4) 0.597(3)
O13 O 0.6963(4) 0.3750(2) 0.96318(16)
O14 O 0.2191(4) 0.3017(3) 0.98994(17)
C4 C 0.5841(6) 0.0637(4) 0.9736(3)
H11 H 0.773(7) 0.043(4) 0.987(3)
H12 H 0.571(7) 0.069(5) 0.899(3)
Ga10_4 Ga 1.000000 0.500000 1.000000
Ga13_2 Ga 1.000000 0.500000 0.500000
O5 O 0.3037(4) 0.6250(2) 0.03682(16)
O6 O 0.7809(4) 0.6983(3) 0.01006(17)
C2 C 0.4159(6) 0.9363(4) 0.0264(3)
H3 H 0.227(7) 0.957(4) 0.013(3)
H4 H 0.429(7) 0.931(5) 0.101(3)
Ga1 Ga 0.26054(6) 0.64325(4) 0.74997(2)
P1 P 0.49226(14) 0.73570(9) 0.51952(6)
O1 O 0.4580(4) 0.7389(3) 0.63978(16)
O2 O 0.3038(4) 0.6247(2) 0.46319(16)
O3 O 0.7805(4) 0.6983(3) 0.48983(17)
C1 C 0.4161(6) 0.9365(4) 0.4737(3)
H1 H 0.230(7) 0.958(4) 0.489(3)
H2 H 0.438(7) 0.932(4) 0.403(3)
P2 P 0.49236(14) 0.73568(9) 0.98040(6)
O4 O 0.4584(4) 0.7390(3) 0.86027(16)
F1 F 0.0447(3) 0.5296(2) 0.85078(13)
F2 F 0.0445(3) 0.5296(2) 0.64936(13)
O8 O 0.5054(5) 0.4435(3) 0.7498(2)
H7 H 0.623(10) 0.438(6) 0.811(4)
H8 H 0.624(12) 0.430(7) 0.695(5)
O15 O 0.0219(5) 0.1774(3) 0.2503(2)
H13 H 0.146(9) 0.188(5) 0.189(3)
H14 H 0.155(10) 0.188(6) 0.313(4)
F5 F 0.9553(3) 0.4704(2) 0.14922(13)
O7 O 0.9781(5) 0.8226(3) 0.7497(2)
H5 H 0.854(9) 0.812(5) 0.811(3)
H6 H 0.845(10) 0.812(6) 0.687(4)
F4 F 0.9555(3) 0.4704(2) 0.35064(13)
O16 O 0.4946(5) 0.5565(3) 0.2502(2)
H15 H 0.377(10) 0.562(6) 0.189(4)
H16 H 0.376(12) 0.570(7) 0.305(5)
loop_
_geom_bond_atom_site_label_1
_geom_bond_atom_site_label_2
_geom_bond_site_symmetry_1
_geom_bond_site_symmetry_2
P4 O12 1_555 1_555
O12 Ga6 1_555 1_555
P3 O9 1_555 1_555
O9 Ga6 1_555 1_555
O10 P3 1_555 1_555
O11 P3 1_555 1_555
H9 C3 1_555 1_555
H10 C3 1_555 1_555
H11 C4 1_555 1_555
H12 C4 1_555 1_555
Ga10_2 O14 1_555 1_555
Ga10_4 O13 1_555 1_555
Ga13 O11 1_555 1_555
Ga13_2 O10 1_555 1_555
P3 C3 1_555 1_555
Ga10 O5 1_555 1_555
H3 C2 1_555 1_555
H4 C2 1_555 1_555
Ga10_3 O6 1_555 1_555
Ga1 O1 1_555 1_555
Ga13 O2 1_555 1_555
P1 O1 1_555 1_555
O2 P1 1_555 1_555
O3 P1 1_555 1_555
C1 P1 1_555 1_555
H1 C1 1_555 1_555
H2 C1 1_555 1_555
P2 O4 1_555 1_555
O4 Ga1 1_555 1_555
F1 Ga1 1_555 1_555
F2 Ga1 1_555 1_555
O8 Ga1 1_555 1_555
H7 O8 1_555 1_555
H8 O8 1_555 1_555
H13 O15 1_555 1_555
H14 O15 1_555 1_555
Ga13_2 O3 1_555 1_555
Ga10_2 F1 1_555 1_555
Ga13 F2 1_555 1_555
F5 Ga10_3 1_555 1_555
H5 O7 1_555 1_555
H6 O7 1_555 1_555
Ga6 F5 1_555 1_555
F4 Ga13_2 1_555 1_555
O16 Ga6 1_555 1_555
H15 O16 1_555 1_555
H16 O16 1_555 1_555
Ga6 F4 1_555 1_555

#END
