
###############################################################################
#
# This file contains modified crystal structure data generated from the
# MOF subset of the Cambridge Structural Database (CSD) v543 
# hosted by the Cambridge Crystallographic Data Centre (CCDC).
#
# This work is licensed under the Creative Commons
# Attribution-NonCommercial-ShareAlike 4.0 International License.
# To view a copy of this license, visit
# http://creativecommons.org/licenses/by-nc-sa/4.0/
# or send a letter to
# Creative Commons, PO Box 1866, Mountain View, CA 94042, USA.
#
# CIF created using the CSD Python API on 29 September 2022
# The structure has been converted into the P1 space group
# The structure has a 3D framework
# The original CSD entry JAVSEI is in the monoclinic crystal system
# The framework has been calculated to contain at least 10.0% void space
# The void calculation uses a probe of radius 1.32A, grid spacing 0.4
#
###############################################################################

data_JAVSEI
_chemical_formula_moiety         '(C80 H80 N32 O32 Zn8)n'
_symmetry_cell_setting           triclinic
_symmetry_space_group_name_H-M   'P 1'
_symmetry_Int_Tables_number      1
_space_group_name_Hall           'P 1'
loop_
_symmetry_equiv_pos_site_id
_symmetry_equiv_pos_as_xyz
1 x,y,z
_cell_length_a                   24.4357(10)
_cell_length_b                   9.0502(4)
_cell_length_c                   13.1766(4)
_cell_angle_alpha                90
_cell_angle_beta                 94.775(4)
_cell_angle_gamma                90
_cell_volume                     2903.86
loop_
_atom_site_label
_atom_site_type_symbol
_atom_site_fract_x
_atom_site_fract_y
_atom_site_fract_z
C9 C 0.67635(18) 0.3363(5) 0.0797(3)
H5 H 0.657092 0.254967 0.110595
H6 H 0.681231 0.418181 0.128242
H7 H 0.712365 0.301921 0.061886
H8 H 0.638823 0.602714 0.018275
H9 H 0.584275 0.512441 0.037134
Zn1 Zn 0.67978(2) 0.08155(5) 0.77401(3)
O1 O 0.66585(10) 0.1856(3) 0.90029(17)
O2 O 0.62243(10) 0.0044(3) 0.67710(18)
N1 N 0.77736(12) 0.4055(3) 0.67276(19)
N2 N 0.72552(12) 0.2155(3) 0.69557(19)
O3 O 0.58373(13) 0.2255(4) 0.6863(2)
N3 N 0.75145(12) 0.3306(3) 0.7400(2)
O4 O 0.49092(15) 0.2778(4) 0.5848(3)
H1 H 0.518176 0.295980 0.625973
N4 N 0.64401(14) 0.3866(4) 0.9875(3)
C1 C 0.76776(13) 0.3404(4) 0.5786(2)
C2 C 0.73393(14) 0.2162(4) 0.5933(2)
C3 C 0.78500(14) 0.3791(4) 0.4846(2)
H2 H 0.807514 0.462540 0.474475
C4 C 0.58537(16) 0.0980(5) 0.6503(3)
C5 C 0.54122(16) 0.0486(5) 0.5719(3)
C6 C 0.45539(17) 0.0908(5) 0.4735(3)
H3 H 0.424530 0.151951 0.455415
C7 C 0.64192(16) 0.3069(4) 0.9045(3)
H4 H 0.621406 0.342685 0.845145
C8 C 0.49635(18) 0.1410(5) 0.5446(3)
C10 C 0.6139(3) 0.5243(7) 0.9920(5)
H10 H 0.598172 0.550678 0.923514
N5 N 0.72264(12) 0.0945(3) 0.32724(19)
N6 N 0.77448(12) 0.2845(3) 0.30443(19)
N7 N 0.74855(12) 0.1694(3) 0.2600(2)
C15 C 0.73224(13) 0.1596(4) 0.4214(2)
C16 C 0.76607(14) 0.2838(4) 0.4067(2)
C17 C 0.71500(14) 0.1209(4) 0.5154(2)
H13 H 0.692486 0.037460 0.525525
Zn3 Zn 0.82022(2) 0.58155(5) 0.72599(3)
Zn5 Zn 0.82022(2) 0.41845(5) 0.22599(3)
N10 N 0.27736(12) 0.0945(3) 0.17276(19)
O5 O 0.37757(10) 0.9956(3) 0.32290(18)
O6 O 0.41627(13) 0.7745(4) 0.3137(2)
O7 O 0.50908(15) 0.7222(4) 0.4152(3)
H11 H 0.481824 0.704020 0.374027
C11 C 0.41463(16) 0.9020(5) 0.3497(3)
C12 C 0.45878(16) 0.9514(5) 0.4281(3)
C13 C 0.54461(17) 0.9092(5) 0.5265(3)
H12 H 0.575470 0.848049 0.544585
C14 C 0.50365(18) 0.8590(5) 0.4554(3)
Zn2 Zn 0.32022(2) 0.91845(5) 0.22599(3)
O8 O 0.33415(10) 0.8144(3) 0.09971(17)
N8 N 0.35599(14) 0.6134(4) 0.0125(3)
C18 C 0.35808(16) 0.6931(4) 0.0955(3)
H14 H 0.378594 0.657315 0.154855
C20 C 0.3861(3) 0.4757(7) 0.0080(5)
H20 H 0.401828 0.449322 0.076486
Zn4 Zn 0.67978(2) 0.91845(5) 0.27401(3)
N9 N 0.72264(12) 0.9055(3) 0.82724(19)
N11 N 0.27448(12) 0.7845(3) 0.30443(19)
C3_2 C 0.21500(14) 0.3791(4) 0.0154(2)
H2_2 H 0.192486 0.462540 0.025525
C6_2 C 0.54461(17) 0.0908(5) 0.0265(3)
H3_2 H 0.575470 0.151951 0.044585
N6_2 N 0.22552(12) 0.2845(3) 0.19557(19)
N7_2 N 0.25145(12) 0.1694(3) 0.2400(2)
C15_2 C 0.26776(13) 0.1596(4) 0.0786(2)
C16_2 C 0.23393(14) 0.2838(4) 0.0933(2)
Zn5_2 Zn 0.17978(2) 0.41845(5) 0.27401(3)
Zn1_2 Zn 0.32022(2) 0.08155(5) 0.72599(3)
O1_2 O 0.33415(10) 0.1856(3) 0.59971(17)
O2_2 O 0.37757(10) 0.0044(3) 0.82290(18)
N1_2 N 0.22264(12) 0.4055(3) 0.82724(19)
N2_2 N 0.27448(12) 0.2155(3) 0.80443(19)
O3_2 O 0.41627(13) 0.2255(4) 0.8137(2)
N3_2 N 0.24855(12) 0.3306(3) 0.7600(2)
O4_2 O 0.50908(15) 0.2778(4) 0.9152(3)
H1_2 H 0.481824 0.295980 0.874027
N4_2 N 0.35599(14) 0.3866(4) 0.5125(3)
C1_2 C 0.23224(13) 0.3404(4) 0.9214(2)
C2_2 C 0.26607(14) 0.2162(4) 0.9067(2)
C4_2 C 0.41463(16) 0.0980(5) 0.8497(3)
C5_2 C 0.45878(16) 0.0486(5) 0.9281(3)
C7_2 C 0.35808(16) 0.3069(4) 0.5955(3)
H4_2 H 0.378594 0.342685 0.654855
C8_2 C 0.50365(18) 0.1410(5) 0.9554(3)
C9_2 C 0.32365(18) 0.3363(5) 0.4203(3)
H5_2 H 0.342908 0.254967 0.389405
H6_2 H 0.318769 0.418181 0.371758
H7_2 H 0.287635 0.301921 0.438114
C10_2 C 0.3861(3) 0.5243(7) 0.5080(5)
H8_2 H 0.361177 0.602714 0.481725
H9_2 H 0.415725 0.512441 0.462866
H10_2 H 0.401828 0.550678 0.576486
C17_2 C 0.28500(14) 0.1209(4) 0.9846(2)
H13_2 H 0.307514 0.037460 0.974475
Zn3_2 Zn 0.17978(2) 0.58155(5) 0.77401(3)
O5_2 O 0.62243(10) 0.9956(3) 0.17710(18)
O6_2 O 0.58373(13) 0.7745(4) 0.1863(2)
O7_2 O 0.49092(15) 0.7222(4) 0.0848(3)
H11_2 H 0.518176 0.704020 0.125973
C11_2 C 0.58537(16) 0.9020(5) 0.1503(3)
C12_2 C 0.54122(16) 0.9514(5) 0.0719(3)
C14_2 C 0.49635(18) 0.8590(5) 0.0446(3)
O8_2 O 0.66585(10) 0.8144(3) 0.40029(17)
N8_2 N 0.64401(14) 0.6134(4) 0.4875(3)
C18_2 C 0.64192(16) 0.6931(4) 0.4045(3)
H14_2 H 0.621406 0.657315 0.345145
C19 C 0.67635(18) 0.6637(5) 0.5797(3)
H15 H 0.657092 0.745033 0.610595
H16 H 0.681231 0.581819 0.628242
H17 H 0.712365 0.698079 0.561886
C20_2 C 0.6139(3) 0.4757(7) 0.4920(5)
H18 H 0.638823 0.397286 0.518275
H19 H 0.584275 0.487559 0.537134
H20_2 H 0.598172 0.449322 0.423514
N11_2 N 0.72552(12) 0.7845(3) 0.19557(19)
C13_2 C 0.45539(17) 0.9092(5) 0.9735(3)
H12_2 H 0.424530 0.848049 0.955415
N9_2 N 0.27736(12) 0.9055(3) 0.67276(19)
C10_3 C 0.1139(3) 0.0243(7) 0.9920(5)
H10_3 H 0.098172 0.050678 0.923514
O1_3 O 0.16585(10) 0.6856(3) 0.90029(17)
O2_3 O 0.12243(10) 0.5044(3) 0.67710(18)
N2_3 N 0.22552(12) 0.7155(3) 0.69557(19)
O3_3 O 0.08373(13) 0.7255(4) 0.6863(2)
N3_3 N 0.25145(12) 0.8306(3) 0.7400(2)
H1_3 H 0.018176 0.795980 0.625973
N4_3 N 0.14401(14) 0.8866(4) 0.9875(3)
C1_3 C 0.26776(13) 0.8404(4) 0.5786(2)
C2_3 C 0.23393(14) 0.7162(4) 0.5933(2)
C3_3 C 0.28500(14) 0.8791(4) 0.4846(2)
H2_3 H 0.307514 0.962540 0.474475
C4_3 C 0.08537(16) 0.5980(5) 0.6503(3)
C5_3 C 0.04122(16) 0.5486(5) 0.5719(3)
C7_3 C 0.14192(16) 0.8069(4) 0.9045(3)
H4_3 H 0.121406 0.842685 0.845145
O7_3 O 0.00908(15) 0.2222(4) 0.4152(3)
C13_3 C 0.04461(17) 0.4092(5) 0.5265(3)
H12_3 H 0.075470 0.348049 0.544585
C14_3 C 0.00365(18) 0.3590(5) 0.4554(3)
N5_2 N 0.22264(12) 0.5945(3) 0.32724(19)
N7_3 N 0.24855(12) 0.6694(3) 0.2600(2)
C15_3 C 0.23224(13) 0.6596(4) 0.4214(2)
C16_3 C 0.26607(14) 0.7838(4) 0.4067(2)
C17_3 C 0.21500(14) 0.6209(4) 0.5154(2)
H13_3 H 0.192486 0.537460 0.525525
O4_3 O 0.99092(15) 0.7778(4) 0.5848(3)
C6_3 C 0.95539(17) 0.5908(5) 0.4735(3)
H3_3 H 0.924530 0.651951 0.455415
C8_3 C 0.99635(18) 0.6410(5) 0.5446(3)
O5_3 O 0.87757(10) 0.4956(3) 0.32290(18)
O6_3 O 0.91627(13) 0.2745(4) 0.3137(2)
H11_3 H 0.981824 0.204020 0.374027
C11_3 C 0.91463(16) 0.4020(5) 0.3497(3)
C12_3 C 0.95878(16) 0.4514(5) 0.4281(3)
O8_3 O 0.83415(10) 0.3144(3) 0.09971(17)
N8_3 N 0.85599(14) 0.1134(4) 0.0125(3)
C18_3 C 0.85808(16) 0.1931(4) 0.0955(3)
H14_3 H 0.878594 0.157315 0.154855
N10_2 N 0.77736(12) 0.5945(3) 0.17276(19)
C20_3 C 0.8861(3) 0.9757(7) 0.0080(5)
H20_3 H 0.901828 0.949322 0.076486
C6_4 C 0.04461(17) 0.5908(5) 0.0265(3)
H3_4 H 0.075470 0.651951 0.044585
O5_4 O 0.12243(10) 0.4956(3) 0.17710(18)
O6_4 O 0.08373(13) 0.2745(4) 0.1863(2)
H11_4 H 0.018176 0.204020 0.125973
C11_4 C 0.08537(16) 0.4020(5) 0.1503(3)
C12_4 C 0.04122(16) 0.4514(5) 0.0719(3)
O8_4 O 0.16585(10) 0.3144(3) 0.40029(17)
N8_4 N 0.14401(14) 0.1134(4) 0.4875(3)
C18_4 C 0.14192(16) 0.1931(4) 0.4045(3)
H14_4 H 0.121406 0.157315 0.345145
C19_2 C 0.17635(18) 0.1637(5) 0.5797(3)
H15_2 H 0.157092 0.245033 0.610595
H16_2 H 0.181231 0.081819 0.628242
H17_2 H 0.212365 0.198079 0.561886
O4_4 O 0.00908(15) 0.7778(4) 0.9152(3)
C8_4 C 0.00365(18) 0.6410(5) 0.9554(3)
C20_4 C 0.1139(3) 0.9757(7) 0.4920(5)
H18_2 H 0.138823 0.897286 0.518275
H19_2 H 0.084275 0.987559 0.537134
H20_4 H 0.098172 0.949322 0.423514
C10_4 C 0.8861(3) 0.0243(7) 0.5080(5)
H8_3 H 0.861177 0.102714 0.481725
H9_3 H 0.915725 0.012441 0.462866
H10_4 H 0.901828 0.050678 0.576486
C3_4 C 0.71500(14) 0.8791(4) 0.0154(2)
H2_4 H 0.692486 0.962540 0.025525
O7_4 O 0.99092(15) 0.2222(4) 0.0848(3)
C14_4 C 0.99635(18) 0.3590(5) 0.0446(3)
N7_4 N 0.75145(12) 0.6694(3) 0.2400(2)
C15_4 C 0.76776(13) 0.6596(4) 0.0786(2)
C16_4 C 0.73393(14) 0.7838(4) 0.0933(2)
O1_4 O 0.83415(10) 0.6856(3) 0.59971(17)
O2_4 O 0.87757(10) 0.5044(3) 0.82290(18)
N2_4 N 0.77448(12) 0.7155(3) 0.80443(19)
O3_4 O 0.91627(13) 0.7255(4) 0.8137(2)
N3_4 N 0.74855(12) 0.8306(3) 0.7600(2)
H1_4 H 0.981824 0.795980 0.874027
N4_4 N 0.85599(14) 0.8866(4) 0.5125(3)
C1_4 C 0.73224(13) 0.8404(4) 0.9214(2)
C2_4 C 0.76607(14) 0.7162(4) 0.9067(2)
C4_4 C 0.91463(16) 0.5980(5) 0.8497(3)
C5_4 C 0.95878(16) 0.5486(5) 0.9281(3)
C7_4 C 0.85808(16) 0.8069(4) 0.5955(3)
H4_4 H 0.878594 0.842685 0.654855
C9_3 C 0.82365(18) 0.8363(5) 0.4203(3)
H5_3 H 0.842908 0.754967 0.389405
H6_3 H 0.818769 0.918181 0.371758
H7_3 H 0.787635 0.801921 0.438114
C13_4 C 0.95539(17) 0.4092(5) 0.9735(3)
H12_4 H 0.924530 0.348049 0.955415
C17_4 C 0.78500(14) 0.6209(4) 0.9846(2)
H13_4 H 0.807514 0.537460 0.974475
C19_3 C 0.32365(18) 0.6637(5) 0.9203(3)
H15_3 H 0.342908 0.745033 0.889405
H16_3 H 0.318769 0.581819 0.871758
H17_3 H 0.287635 0.698079 0.938114
H18_3 H 0.361177 0.397286 0.981725
H19_3 H 0.415725 0.487559 0.962866
H8_4 H 0.138823 0.102714 0.018275
H9_4 H 0.084275 0.012441 0.037134
C9_4 C 0.17635(18) 0.8363(5) 0.0797(3)
H5_4 H 0.157092 0.754967 0.110595
H6_4 H 0.181231 0.918181 0.128242
H7_4 H 0.212365 0.801921 0.061886
C19_4 C 0.82365(18) 0.1637(5) 0.9203(3)
H15_4 H 0.842908 0.245033 0.889405
H16_4 H 0.818769 0.081819 0.871758
H17_4 H 0.787635 0.198079 0.938114
H18_4 H 0.861177 0.897286 0.981725
H19_4 H 0.915725 0.987559 0.962866
loop_
_geom_bond_atom_site_label_1
_geom_bond_atom_site_label_2
_geom_bond_site_symmetry_1
_geom_bond_site_symmetry_2
H5 C9 1_555 1_555
H6 C9 1_555 1_555
H7 C9 1_555 1_555
Zn1 O1 1_555 1_555
O1 C7 1_555 1_555
O2 Zn1 1_555 1_555
N1 N3 1_555 1_555
N2 Zn1 1_555 1_555
O3 C4 1_555 1_555
N3 N2 1_555 1_555
O4 H1 1_555 1_555
N4 C7 1_555 1_555
C1 N1 1_555 1_555
C2 N2 1_555 1_555
C3 C1 1_555 1_555
H2 C3 1_555 1_555
C4 O2 1_555 1_555
C5 C4 1_555 1_555
C6 H3 1_555 1_555
C7 H4 1_555 1_555
C8 O4 1_555 1_555
C10 N4 1_555 1_555
H10 C10 1_555 1_555
N5 N7 1_555 1_555
N6 N7 1_555 1_555
C15 N5 1_555 1_555
C16 C3 1_555 1_555
C17 C2 1_555 1_555
H13 C17 1_555 1_555
Zn3 N1 1_555 1_555
Zn5 N6 1_555 1_555
C1 C2 1_555 1_555
C5 C8 1_555 1_555
C6 C8 1_555 1_555
N6 C16 1_555 1_555
C15 C16 1_555 1_555
C15 C17 1_555 1_555
O5 C11 1_555 1_555
O6 C11 1_555 1_555
O7 H11 1_555 1_555
C11 C12 1_555 1_555
H12 C13 1_555 1_555
C14 O7 1_555 1_555
Zn2 O5 1_555 1_555
O8 Zn2 1_555 1_555
N8 C18 1_555 1_555
C18 O8 1_555 1_555
H14 C18 1_555 1_555
C20 N8 1_555 1_555
H20 C20 1_555 1_555
N11 Zn2 1_555 1_555
C12 C14 1_555 1_555
C13 C14 1_555 1_555
H2_2 C3_2 1_555 1_555
C6_2 H3_2 1_555 1_555
N10 N7_2 1_555 1_555
N6_2 N7_2 1_555 1_555
C15_2 N10 1_555 1_555
C16_2 C3_2 1_555 1_555
Zn5_2 N6_2 1_555 1_555
N6_2 C16_2 1_555 1_555
C15_2 C16_2 1_555 1_555
Zn1_2 O1_2 1_555 1_555
O1_2 C7_2 1_555 1_555
O2_2 Zn1_2 1_555 1_555
N1_2 N3_2 1_555 1_555
N2_2 Zn1_2 1_555 1_555
O3_2 C4_2 1_555 1_555
N3_2 N2_2 1_555 1_555
O4_2 H1_2 1_555 1_555
N4_2 C7_2 1_555 1_555
C1_2 N1_2 1_555 1_555
C2_2 N2_2 1_555 1_555
C4_2 O2_2 1_555 1_555
C5_2 C4_2 1_555 1_555
C7_2 H4_2 1_555 1_555
C8_2 O4_2 1_555 1_555
C9_2 N4_2 1_555 1_555
H5_2 C9_2 1_555 1_555
H6_2 C9_2 1_555 1_555
H7_2 C9_2 1_555 1_555
C10_2 N4_2 1_555 1_555
H8_2 C10_2 1_555 1_555
H9_2 C10_2 1_555 1_555
H10_2 C10_2 1_555 1_555
C17_2 C2_2 1_555 1_555
H13_2 C17_2 1_555 1_555
Zn3_2 N1_2 1_555 1_555
C1_2 C2_2 1_555 1_555
C5_2 C8_2 1_555 1_555
O5_2 C11_2 1_555 1_555
O6_2 C11_2 1_555 1_555
O7_2 H11_2 1_555 1_555
C11_2 C12_2 1_555 1_555
C14_2 O7_2 1_555 1_555
Zn4 O5_2 1_555 1_555
O8_2 Zn4 1_555 1_555
N8_2 C18_2 1_555 1_555
C18_2 O8_2 1_555 1_555
H14_2 C18_2 1_555 1_555
C19 N8_2 1_555 1_555
H15 C19 1_555 1_555
H16 C19 1_555 1_555
H17 C19 1_555 1_555
C20_2 N8_2 1_555 1_555
H18 C20_2 1_555 1_555
H19 C20_2 1_555 1_555
H20_2 C20_2 1_555 1_555
N11_2 Zn4 1_555 1_555
C12_2 C14_2 1_555 1_555
H12_2 C13_2 1_555 1_555
H10_3 C10_3 1_555 1_555
Zn3_2 O1_3 1_555 1_555
O1_3 C7_3 1_555 1_555
O2_3 Zn3_2 1_555 1_555
N9_2 N3_3 1_555 1_555
N2_3 Zn3_2 1_555 1_555
O3_3 C4_3 1_555 1_555
N3_3 N2_3 1_555 1_555
N4_3 C7_3 1_555 1_555
C1_3 N9_2 1_555 1_555
C2_3 N2_3 1_555 1_555
C3_3 C1_3 1_555 1_555
H2_3 C3_3 1_555 1_555
C4_3 O2_3 1_555 1_555
C5_3 C4_3 1_555 1_555
C7_3 H4_3 1_555 1_555
C13_3 C5_3 1_555 1_555
H12_3 C13_3 1_555 1_555
C14_3 O7_3 1_555 1_555
N5_2 N7_3 1_555 1_555
N11 N7_3 1_555 1_555
C15_3 N5_2 1_555 1_555
C16_3 C3_3 1_555 1_555
C17_3 C2_3 1_555 1_555
H13_3 C17_3 1_555 1_555
Zn5_2 N5_2 1_555 1_555
C1_3 C2_3 1_555 1_555
C13_3 C14_3 1_555 1_555
N11 C16_3 1_555 1_555
C15_3 C16_3 1_555 1_555
C15_3 C17_3 1_555 1_555
C6_3 H3_3 1_555 1_555
C8_3 O4_3 1_555 1_555
O5_3 C11_3 1_555 1_555
O6_3 C11_3 1_555 1_555
C11_3 C12_3 1_555 1_555
C12_3 C6_3 1_555 1_555
Zn5 O5_3 1_555 1_555
O8_3 Zn5 1_555 1_555
N8_3 C18_3 1_555 1_555
C18_3 O8_3 1_555 1_555
H14_3 C18_3 1_555 1_555
N10_2 Zn5 1_555 1_555
C6_3 C8_3 1_555 1_555
H20_3 C20_3 1_555 1_555
C6_4 H3_4 1_555 1_555
O5_4 C11_4 1_555 1_555
O6_4 C11_4 1_555 1_555
C11_4 C12_4 1_555 1_555
C12_4 C6_4 1_555 1_555
Zn5_2 O5_4 1_555 1_555
O8_4 Zn5_2 1_555 1_555
N8_4 C18_4 1_555 1_555
C18_4 O8_4 1_555 1_555
H14_4 C18_4 1_555 1_555
C19_2 N8_4 1_555 1_555
H15_2 C19_2 1_555 1_555
H16_2 C19_2 1_555 1_555
H17_2 C19_2 1_555 1_555
C8_4 O4_4 1_555 1_555
H18_2 C20_4 1_555 1_555
H19_2 C20_4 1_555 1_555
H20_4 C20_4 1_555 1_555
H8_3 C10_4 1_555 1_555
H9_3 C10_4 1_555 1_555
H10_4 C10_4 1_555 1_555
H2_4 C3_4 1_555 1_555
C14_4 O7_4 1_555 1_555
N10_2 N7_4 1_555 1_555
N11_2 N7_4 1_555 1_555
C15_4 N10_2 1_555 1_555
C16_4 C3_4 1_555 1_555
N11_2 C16_4 1_555 1_555
C15_4 C16_4 1_555 1_555
Zn3 O1_4 1_555 1_555
O1_4 C7_4 1_555 1_555
O2_4 Zn3 1_555 1_555
N9 N3_4 1_555 1_555
N2_4 Zn3 1_555 1_555
O3_4 C4_4 1_555 1_555
N3_4 N2_4 1_555 1_555
N4_4 C7_4 1_555 1_555
C1_4 N9 1_555 1_555
C2_4 N2_4 1_555 1_555
C4_4 O2_4 1_555 1_555
C5_4 C4_4 1_555 1_555
C7_4 H4_4 1_555 1_555
C9_3 N4_4 1_555 1_555
H5_3 C9_3 1_555 1_555
H6_3 C9_3 1_555 1_555
H7_3 C9_3 1_555 1_555
C13_4 C5_4 1_555 1_555
H12_4 C13_4 1_555 1_555
C17_4 C2_4 1_555 1_555
H13_4 C17_4 1_555 1_555
C1_4 C2_4 1_555 1_555
H15_3 C19_3 1_555 1_555
H16_3 C19_3 1_555 1_555
H17_3 C19_3 1_555 1_555
H5_4 C9_4 1_555 1_555
H6_4 C9_4 1_555 1_555
H7_4 C9_4 1_555 1_555
H15_4 C19_4 1_555 1_555
H16_4 C19_4 1_555 1_555
H17_4 C19_4 1_555 1_555

#END
