
###############################################################################
#
# This file contains modified crystal structure data generated from the
# MOF subset of the Cambridge Structural Database (CSD) v543 
# hosted by the Cambridge Crystallographic Data Centre (CCDC).
#
# This work is licensed under the Creative Commons
# Attribution-NonCommercial-ShareAlike 4.0 International License.
# To view a copy of this license, visit
# http://creativecommons.org/licenses/by-nc-sa/4.0/
# or send a letter to
# Creative Commons, PO Box 1866, Mountain View, CA 94042, USA.
#
# CIF created using the CSD Python API on 29 September 2022
# The structure has been converted into the P1 space group
# The structure has a 3D framework
# The original CSD entry JAWSIN is in the triclinic crystal system
# The framework has been calculated to contain at least 10.0% void space
# The void calculation uses a probe of radius 1.32A, grid spacing 0.4
#
###############################################################################

data_JAWSIN
_chemical_formula_moiety         '(C72 H64 Co6 N20 O20)n'
_symmetry_cell_setting           triclinic
_symmetry_space_group_name_H-M   'P 1'
_symmetry_Int_Tables_number      1
_space_group_name_Hall           'P 1'
loop_
_symmetry_equiv_pos_site_id
_symmetry_equiv_pos_as_xyz
1 x,y,z
_cell_length_a                   11.0686(4)
_cell_length_b                   15.4778(4)
_cell_length_c                   17.4148(2)
_cell_angle_alpha                64.292(4)
_cell_angle_beta                 81.548(7)
_cell_angle_gamma                89.247(7)
_cell_volume                     2654.66
loop_
_atom_site_label
_atom_site_type_symbol
_atom_site_fract_x
_atom_site_fract_y
_atom_site_fract_z
Co1 Co 0.30475(3) 0.15440(3) 0.34878(2)
Co2 Co 0.17844(3) 0.37343(3) 0.22817(2)
Co3 Co 0.44856(3) 0.35920(3) 0.28300(2)
O1 O 0.04976(18) 0.25991(15) 0.27167(14)
O2 O 0.12713(18) 0.11887(15) 0.34625(15)
O5 O 0.29354(19) 0.33681(16) 0.14127(14)
O6 O 0.3975(2) 0.2164(2) 0.22417(16)
O9 O 0.28232(18) 0.29747(13) 0.32842(12)
O10 O 0.0794(2) 0.4489(2) 0.12801(17)
N2 N 0.3530(2) 0.01801(18) 0.35602(17)
C1 C 0.0405(2) 0.1729(2) 0.32178(18)
C9 C 0.3794(3) 0.2816(2) 0.15349(19)
C10 C 0.4751(3) 0.2942(2) 0.0772(2)
C11 C 0.5587(5) 0.2244(3) 0.0863(3)
H6 H 0.551358 0.168374 0.137620
C12 C 0.6547(5) 0.2372(3) 0.0191(3)
C15 C 0.4857(3) 0.3786(2) 0.00166(17)
H10 H 0.534289 0.045054 0.300506
H23 H 0.042658 0.339420 0.066681
H30 H 0.033355 0.608818 0.132517
N10 N 0.7399(5) 0.1663(4) 0.0304(4)
H32 H 0.731969 0.114328 0.077698
O11 O 0.60069(19) 0.28965(15) 0.30243(15)
O12 O 0.48082(19) 0.15942(17) 0.39062(15)
O13 O 0.4853(2) 0.46060(15) 0.16173(14)
O14 O 0.2957(2) 0.49659(16) 0.19226(15)
N11 N 0.2443(2) 0.10965(17) 0.48918(16)
N12 N 0.4668(2) 0.44455(19) 0.34425(18)
N13 N 0.0647(2) 0.42086(19) 0.31227(18)
N3 N 0.3621(2) 0.86279(19) 0.39287(18)
N4 N 0.4231(2) 0.5533(2) 0.39164(19)
N6 N 0.0830(3) 0.5899(2) 0.58321(19)
C17 C 0.2916(3) 0.9348(2) 0.3934(2)
H9 H 0.209353 0.926069 0.417500
C18 C 0.4699(3) 0.9991(2) 0.3296(2)
C19 C 0.4774(3) 0.9050(2) 0.3518(2)
H11 H 0.546344 0.874188 0.341728
C20 C 0.3263(3) 0.7638(2) 0.4252(2)
C21 C 0.2242(3) 0.7251(2) 0.4882(2)
H12 H 0.181819 0.763001 0.511245
C22 C 0.1854(3) 0.6300(2) 0.5168(2)
C23 C 0.2504(3) 0.5723(2) 0.4843(2)
H13 H 0.224767 0.508333 0.503161
C24 C 0.3536(3) 0.6120(2) 0.4233(2)
C25 C 0.3927(3) 0.7078(2) 0.3925(2)
H14 H 0.461848 0.733505 0.350834
C26 C 0.0282(3) 0.6331(2) 0.6304(2)
H15 H 0.052711 0.693561 0.623552
C28 C 0.0208(4) 0.5016(3) 0.6122(3)
H17 H 0.037735 0.455203 0.592221
C29 C 0.3795(3) 0.4852(2) 0.3730(2)
H18 H 0.296752 0.469047 0.379778
C30 C 0.5734(3) 0.4869(3) 0.3457(3)
H19 H 0.651406 0.471443 0.329301
C31 C 0.5491(3) 0.5543(3) 0.3743(3)
H20 H 0.605505 0.593431 0.381066
C2 C 0.9117(2) 0.1278(2) 0.35936(18)
C3 C 0.8123(3) 0.1838(2) 0.33740(19)
H3 H 0.824270 0.248125 0.297975
C4 C 0.6941(2) 0.1431(2) 0.37476(18)
C5 C 0.6774(2) 0.0462(2) 0.43212(18)
H4 H 0.598709 0.019150 0.457488
C7 C 0.8943(3) 0.0307(2) 0.41648(18)
C8 C 0.5839(3) 0.2013(2) 0.35476(19)
C32 C 0.9739(4) 0.4544(4) 0.1190(3)
N8 N 0.9036(6) 0.4034(4) 0.1070(4)
N9 N 0.8987(5) 0.5289(5) 0.1249(4)
C33 C 0.9574(8) 0.3236(5) 0.0900(5)
H21 H 0.915727 0.314160 0.049421
H22 H 0.948701 0.265756 0.142977
C34 C 0.7817(5) 0.4290(5) 0.0907(4)
H24 H 0.720399 0.380091 0.131230
H25 H 0.771570 0.443386 0.032066
C35 C 0.7814(8) 0.5227(7) 0.1069(6)
H26 H 0.766563 0.579099 0.056064
H27 H 0.719637 0.515667 0.155272
C36 C 0.9460(9) 0.6099(7) 0.1366(6)
H28 H 0.910811 0.604696 0.192310
H29 H 0.924571 0.669089 0.092576
H1 H 0.175055 0.137901 0.494348
H2 H 0.299933 0.134358 0.507261
C6 C 0.2238(3) 0.01023(19) 0.54820(18)
H5 H 0.038611 0.006550 0.569024
C27 C 0.0693(4) 0.5031(3) 0.3247(3)
H16 H 0.126564 0.554417 0.293829
C13 C 0.3349(4) 0.6791(3) 0.0559(3)
H7 H 0.272057 0.669717 0.101028
C14 C 0.4183(3) 0.6078(2) 0.06476(19)
H8 H 0.570512 0.574524 0.004682
C16 C 0.3979(3) 0.5155(2) 0.14412(18)
H31 H 0.200058 0.825174 0.010097
O7 O 0.5147(2) 0.53940(15) 0.83827(14)
O8 O 0.7043(2) 0.50341(16) 0.80774(15)
C13_2 C 0.6651(4) 0.3209(3) 0.9441(3)
H7_2 H 0.727943 0.330283 0.898972
C14_2 C 0.5817(3) 0.3922(2) 0.93524(19)
H8_2 H 0.429488 0.425476 0.995318
C16_2 C 0.6021(3) 0.4845(2) 0.85588(18)
H31_2 H 0.799942 0.174826 0.989903
Co7 Co 0.82156(3) 0.62657(3) 0.77183(2)
Co10 Co 0.55144(3) 0.64080(3) 0.71700(2)
N1 N 0.7557(2) 0.89035(17) 0.51082(16)
H1_2 H 0.824945 0.862099 0.505652
H2_2 H 0.700067 0.865642 0.492739
N7 N 0.9353(2) 0.57914(19) 0.68773(18)
C6_2 C 0.7762(3) 0.98977(19) 0.45180(18)
H5_2 H 0.961389 0.993450 0.430976
C27_2 C 0.9307(4) 0.4969(3) 0.6753(3)
H16_2 H 0.873436 0.445583 0.706171
Co5 Co 0.69525(3) 0.84560(3) 0.65122(2)
O3 O 0.39931(19) 0.71035(15) 0.69757(15)
O4 O 0.51918(19) 0.84058(17) 0.60938(15)
C2_2 C 0.0883(2) 0.8722(2) 0.64064(18)
C3_2 C 0.1877(3) 0.8162(2) 0.66260(19)
H3_2 H 0.175730 0.751875 0.702025
C4_2 C 0.3059(2) 0.8569(2) 0.62524(18)
C5_2 C 0.3226(2) 0.9538(2) 0.56788(18)
H4_2 H 0.401291 0.980850 0.542512
C7_2 C 0.1057(3) 0.9693(2) 0.58352(18)
C8_2 C 0.4161(3) 0.7987(2) 0.64524(19)
C32_2 C 0.0261(4) 0.5456(4) 0.8810(3)
N8_2 N 0.0964(6) 0.5966(4) 0.8930(4)
N9_2 N 0.1013(5) 0.4711(5) 0.8751(4)
C33_2 C 0.0426(8) 0.6764(5) 0.9100(5)
H21_2 H 0.084273 0.685840 0.950579
H22_2 H 0.051299 0.734244 0.857023
C34_2 C 0.2183(5) 0.5710(5) 0.9093(4)
H24_2 H 0.279601 0.619909 0.868770
H25_2 H 0.228430 0.556614 0.967934
C35_2 C 0.2186(8) 0.4773(7) 0.8931(6)
H26_2 H 0.233437 0.420901 0.943936
H27_2 H 0.280363 0.484333 0.844728
C36_2 C 0.0540(9) 0.3901(7) 0.8634(6)
H28_2 H 0.089189 0.395304 0.807690
H29_2 H 0.075429 0.330911 0.907424
N3_2 N 0.6379(2) 0.13721(19) 0.60713(18)
N4_2 N 0.5769(2) 0.4467(2) 0.60836(19)
N5 N 0.5332(2) 0.55545(19) 0.65575(18)
N6_2 N 0.9170(3) 0.4101(2) 0.41679(19)
C17_2 C 0.7084(3) 0.0652(2) 0.6066(2)
H9_2 H 0.790647 0.073931 0.582500
C18_2 C 0.5301(3) 0.0009(2) 0.6704(2)
C19_2 C 0.5226(3) 0.0950(2) 0.6482(2)
H11_2 H 0.453656 0.125812 0.658272
C20_2 C 0.6737(3) 0.2362(2) 0.5748(2)
C21_2 C 0.7758(3) 0.2749(2) 0.5118(2)
H12_2 H 0.818181 0.236999 0.488755
C22_2 C 0.8146(3) 0.3700(2) 0.4832(2)
C23_2 C 0.7496(3) 0.4277(2) 0.5157(2)
H13_2 H 0.775233 0.491667 0.496839
C24_2 C 0.6464(3) 0.3880(2) 0.5767(2)
C25_2 C 0.6073(3) 0.2922(2) 0.6075(2)
H14_2 H 0.538152 0.266495 0.649166
C26_2 C 0.9718(3) 0.3669(2) 0.3696(2)
H15_2 H 0.947289 0.306439 0.376448
C28_2 C 0.9792(4) 0.4984(3) 0.3878(3)
H17_2 H 0.962265 0.544797 0.407779
C29_2 C 0.6205(3) 0.5148(2) 0.6270(2)
H18_2 H 0.703248 0.530953 0.620222
C30_2 C 0.4266(3) 0.5131(3) 0.6543(3)
H19_2 H 0.348594 0.528557 0.670699
C31_2 C 0.4509(3) 0.4457(3) 0.6257(3)
H20_2 H 0.394495 0.406569 0.618934
O1_2 O 0.95024(18) 0.74009(15) 0.72833(14)
O2_2 O 0.87287(18) 0.88113(15) 0.65375(15)
O5_2 O 0.70646(19) 0.66319(16) 0.85873(14)
O6_2 O 0.6025(2) 0.7836(2) 0.77583(16)
O9_2 O 0.71768(18) 0.70253(13) 0.67158(12)
O10_2 O 0.9206(2) 0.5511(2) 0.87199(17)
N2_2 N 0.6470(2) 0.98199(18) 0.64398(17)
C1_2 C 0.9595(2) 0.8271(2) 0.67822(18)
C9_2 C 0.6206(3) 0.7184(2) 0.84651(19)
C10_2 C 0.5249(3) 0.7058(2) 0.9228(2)
C11_2 C 0.4413(5) 0.7756(3) 0.9137(3)
H6_2 H 0.448642 0.831626 0.862380
C12_2 C 0.3453(5) 0.7628(3) 0.9809(3)
C15_2 C 0.5143(3) 0.6214(2) 0.99834(17)
H10_2 H 0.465711 0.954946 0.699494
H23_2 H 0.957342 0.660580 0.933319
H30_2 H 0.966645 0.391182 0.867483
N10_2 N 0.2601(5) 0.8337(4) 0.9696(4)
H32_2 H 0.268031 0.885672 0.922302
loop_
_geom_bond_atom_site_label_1
_geom_bond_atom_site_label_2
_geom_bond_site_symmetry_1
_geom_bond_site_symmetry_2
Co1 O2 1_555 1_555
Co2 O1 1_555 1_555
Co3 O9 1_555 1_555
O1 C1 1_555 1_555
O2 C1 1_555 1_555
O5 Co2 1_555 1_555
O6 Co1 1_555 1_555
O9 Co1 1_555 1_555
O10 Co2 1_555 1_555
N2 Co1 1_555 1_555
C9 O5 1_555 1_555
C10 C9 1_555 1_555
C11 C10 1_555 1_555
H6 C11 1_555 1_555
C12 C11 1_555 1_555
C15 C10 1_555 1_555
N10 C12 1_555 1_555
H32 N10 1_555 1_555
O11 Co3 1_555 1_555
O12 Co1 1_555 1_555
O13 Co3 1_555 1_555
O14 Co2 1_555 1_555
N11 Co1 1_555 1_555
N12 Co3 1_555 1_555
N13 Co2 1_555 1_555
Co2 O9 1_555 1_555
O6 C9 1_555 1_555
N3 C17 1_555 1_555
N4 C24 1_555 1_555
N12 C29 1_555 1_555
N6 C22 1_555 1_555
H9 C17 1_555 1_555
C19 N3 1_555 1_555
H11 C19 1_555 1_555
C20 N3 1_555 1_555
C21 C20 1_555 1_555
H12 C21 1_555 1_555
C22 C21 1_555 1_555
C23 C22 1_555 1_555
H13 C23 1_555 1_555
C24 C23 1_555 1_555
C25 C20 1_555 1_555
H14 C25 1_555 1_555
C26 N6 1_555 1_555
H15 C26 1_555 1_555
C28 N6 1_555 1_555
H17 C28 1_555 1_555
C29 N4 1_555 1_555
H18 C29 1_555 1_555
C30 N12 1_555 1_555
H19 C30 1_555 1_555
C31 N4 1_555 1_555
H20 C31 1_555 1_555
C18 C19 1_555 1_555
C24 C25 1_555 1_555
C30 C31 1_555 1_555
O11 C8 1_555 1_555
O12 C8 1_555 1_555
C2 C3 1_555 1_555
C3 H3 1_555 1_555
C4 C3 1_555 1_555
C5 C4 1_555 1_555
H4 C5 1_555 1_555
C7 C2 1_555 1_555
C8 C4 1_555 1_555
N8 C32 1_555 1_555
N9 C32 1_555 1_555
C33 N8 1_555 1_555
H21 C33 1_555 1_555
H22 C33 1_555 1_555
C34 N8 1_555 1_555
H24 C34 1_555 1_555
H25 C34 1_555 1_555
C35 N9 1_555 1_555
H26 C35 1_555 1_555
H27 C35 1_555 1_555
C36 N9 1_555 1_555
H28 C36 1_555 1_555
H29 C36 1_555 1_555
C34 C35 1_555 1_555
N11 H1 1_555 1_555
H2 N11 1_555 1_555
C6 N11 1_555 1_555
C27 N13 1_555 1_555
H16 C27 1_555 1_555
O13 C16 1_555 1_555
O14 C16 1_555 1_555
H7 C13 1_555 1_555
C14 C13 1_555 1_555
C16 C14 1_555 1_555
O7 C16_2 1_555 1_555
O8 C16_2 1_555 1_555
H7_2 C13_2 1_555 1_555
C14_2 C13_2 1_555 1_555
C16_2 C14_2 1_555 1_555
Co7 O8 1_555 1_555
Co10 O7 1_555 1_555
N1 H1_2 1_555 1_555
H2_2 N1 1_555 1_555
C6_2 N1 1_555 1_555
C27_2 N7 1_555 1_555
H16_2 C27_2 1_555 1_555
Co5 N1 1_555 1_555
Co7 N7 1_555 1_555
O3 C8_2 1_555 1_555
O4 C8_2 1_555 1_555
C2_2 C3_2 1_555 1_555
C3_2 H3_2 1_555 1_555
C4_2 C3_2 1_555 1_555
C5_2 C4_2 1_555 1_555
H4_2 C5_2 1_555 1_555
C7_2 C2_2 1_555 1_555
C8_2 C4_2 1_555 1_555
N8_2 C32_2 1_555 1_555
N9_2 C32_2 1_555 1_555
C33_2 N8_2 1_555 1_555
H21_2 C33_2 1_555 1_555
H22_2 C33_2 1_555 1_555
C34_2 N8_2 1_555 1_555
H24_2 C34_2 1_555 1_555
H25_2 C34_2 1_555 1_555
C35_2 N9_2 1_555 1_555
H26_2 C35_2 1_555 1_555
H27_2 C35_2 1_555 1_555
C36_2 N9_2 1_555 1_555
H28_2 C36_2 1_555 1_555
H29_2 C36_2 1_555 1_555
Co5 O4 1_555 1_555
Co10 O3 1_555 1_555
C34_2 C35_2 1_555 1_555
N3_2 C17_2 1_555 1_555
N4_2 C24_2 1_555 1_555
N5 C29_2 1_555 1_555
N6_2 C22_2 1_555 1_555
H9_2 C17_2 1_555 1_555
C19_2 N3_2 1_555 1_555
H11_2 C19_2 1_555 1_555
C20_2 N3_2 1_555 1_555
C21_2 C20_2 1_555 1_555
H12_2 C21_2 1_555 1_555
C22_2 C21_2 1_555 1_555
C23_2 C22_2 1_555 1_555
H13_2 C23_2 1_555 1_555
C24_2 C23_2 1_555 1_555
C25_2 C20_2 1_555 1_555
H14_2 C25_2 1_555 1_555
C26_2 N6_2 1_555 1_555
H15_2 C26_2 1_555 1_555
C28_2 N6_2 1_555 1_555
H17_2 C28_2 1_555 1_555
C29_2 N4_2 1_555 1_555
H18_2 C29_2 1_555 1_555
C30_2 N5 1_555 1_555
H19_2 C30_2 1_555 1_555
C31_2 N4_2 1_555 1_555
H20_2 C31_2 1_555 1_555
Co10 N5 1_555 1_555
C18_2 C19_2 1_555 1_555
C24_2 C25_2 1_555 1_555
C30_2 C31_2 1_555 1_555
Co5 O2_2 1_555 1_555
Co7 O1_2 1_555 1_555
Co10 O9_2 1_555 1_555
O1_2 C1_2 1_555 1_555
O2_2 C1_2 1_555 1_555
O5_2 Co7 1_555 1_555
O6_2 Co5 1_555 1_555
O9_2 Co5 1_555 1_555
O10_2 Co7 1_555 1_555
N2_2 Co5 1_555 1_555
C9_2 O5_2 1_555 1_555
C10_2 C9_2 1_555 1_555
C11_2 C10_2 1_555 1_555
H6_2 C11_2 1_555 1_555
C12_2 C11_2 1_555 1_555
C15_2 C10_2 1_555 1_555
N10_2 C12_2 1_555 1_555
H32_2 N10_2 1_555 1_555
Co7 O9_2 1_555 1_555
O6_2 C9_2 1_555 1_555

#END
