
###############################################################################
#
# This file contains modified crystal structure data generated from the
# MOF subset of the Cambridge Structural Database (CSD) v543 
# hosted by the Cambridge Crystallographic Data Centre (CCDC).
#
# This work is licensed under the Creative Commons
# Attribution-NonCommercial-ShareAlike 4.0 International License.
# To view a copy of this license, visit
# http://creativecommons.org/licenses/by-nc-sa/4.0/
# or send a letter to
# Creative Commons, PO Box 1866, Mountain View, CA 94042, USA.
#
# CIF created using the CSD Python API on 29 September 2022
# The structure has been converted into the P1 space group
# The structure has a 3D framework
# The original CSD entry JAWVEM is in the triclinic crystal system
# The framework has been calculated to contain at least 10.0% void space
# The void calculation uses a probe of radius 1.32A, grid spacing 0.4
#
###############################################################################

data_JAWVEM
_chemical_formula_moiety         '(C110 H72 I4 N24 O16 Zn6)n'
_symmetry_cell_setting           triclinic
_symmetry_space_group_name_H-M   'P 1'
_symmetry_Int_Tables_number      1
_space_group_name_Hall           'P 1'
loop_
_symmetry_equiv_pos_site_id
_symmetry_equiv_pos_as_xyz
1 x,y,z
_cell_length_a                   11.6710(18)
_cell_length_b                   15.111(2)
_cell_length_c                   20.142(3)
_cell_angle_alpha                88.674(4)
_cell_angle_beta                 75.755(3)
_cell_angle_gamma                79.393(5)
_cell_volume                     3383.28
loop_
_atom_site_label
_atom_site_type_symbol
_atom_site_fract_x
_atom_site_fract_y
_atom_site_fract_z
I2 I 0.30029(2) 0.63619(2) 0.45498(2)
Zn3 Zn 0.27707(2) 0.80460(2) 0.44065(2)
N12 N 0.12654(17) 0.86683(16) 0.50634(10)
C52 C 0.0187(2) 0.8502(2) 0.51068(13)
H34 H 0.000495 0.813246 0.479940
C53 C 0.1133(2) 0.9239(2) 0.56062(15)
H35 H 0.174918 0.947930 0.570921
C54 C -0.0000(2) 0.9398(2) 0.59614(16)
O10 O 0.30491(18) 0.84638(16) 0.34565(9)
N14 N 0.41760(18) 0.85018(16) 0.46174(10)
O5 O 0.1424(2) 0.97530(17) 0.02541(11)
O7 O 0.12298(17) 0.82166(16) 0.35142(10)
C28 C 0.2389(3) 0.92966(19) 0.03333(13)
C29 C 0.2470(2) 0.90551(18) 0.10593(12)
C30 C 0.1471(2) 0.93615(18) 0.15628(13)
H19 H 0.082163 0.973272 0.144882
C31 C 0.1390(2) 0.91351(18) 0.22485(12)
H20 H 0.068264 0.934062 0.257840
C32 C 0.2347(2) 0.86119(17) 0.24390(12)
C33 C 0.3418(2) 0.82809(19) 0.19368(13)
C34 C 0.3495(2) 0.85066(19) 0.12294(13)
C35 C 0.2188(2) 0.84141(18) 0.31899(12)
C36 C 0.4410(3) 0.7713(3) 0.21055(17)
H21 H 0.436261 0.754764 0.255771
C37 C 0.5444(4) 0.7401(4) 0.1607(2)
H22 H 0.609151 0.703447 0.172638
C38 C 0.5521(4) 0.7634(4) 0.0930(2)
H23 H 0.622399 0.742101 0.059848
C39 C 0.4579(3) 0.8171(3) 0.07393(16)
H24 H 0.465294 0.831670 0.028147
Zn2 Zn 0.26045(2) 0.93331(2) 0.90170(2)
O6 O 0.3201(2) 0.8969(2) 0.98406(11)
N7 N 0.42689(17) 0.91617(14) 0.83773(10)
N8 N 0.56978(17) 0.91505(13) 0.74328(10)
N10 N 0.56158(17) 0.87510(15) 0.50728(10)
N11 N 0.93806(17) 0.89272(15) 0.56463(10)
C40 C 0.5206(2) 0.9483(2) 0.85293(13)
H25 H 0.522254 0.967717 0.896113
C41 C 0.6097(2) 0.9474(2) 0.79559(13)
H26 H 0.683192 0.965031 0.791934
C42 C 0.4595(2) 0.89578(17) 0.77182(12)
H27 H 0.413195 0.871457 0.748039
C43 C 0.6317(2) 0.90223(16) 0.67308(12)
C44 C 0.5673(2) 0.89574(17) 0.62513(12)
H28 H 0.484236 0.899963 0.638439
C45 C 0.6280(2) 0.88287(18) 0.55691(12)
C46 C 0.7510(2) 0.88135(18) 0.53548(12)
H29 H 0.791117 0.874183 0.489385
C47 C 0.8118(2) 0.89083(18) 0.58492(12)
C48 C 0.7549(2) 0.89906(18) 0.65403(12)
H30 H 0.798051 0.902363 0.686735
C49 C 0.4571(2) 0.8457(2) 0.51770(13)
H31 H 0.417607 0.824867 0.559276
C50 C 0.5012(2) 0.8846(2) 0.41280(13)
H32 H 0.497127 0.895644 0.367741
C51 C 0.5902(3) 0.9001(2) 0.44040(14)
H33 H 0.657783 0.923165 0.418240
C54_2 C 1.0000(2) 0.9398(2) 0.59614(16)
H36 H 0.968280 0.976271 0.635333
O9 O 0.14019(17) 0.86088(13) 0.89622(9)
O3 O 0.1890(2) 0.88800(18) 0.78641(11)
C5 C 0.0188(2) 0.81715(18) 0.83007(13)
C6 C 0.0191(2) 0.76780(19) 0.76964(14)
C8 C 0.1244(2) 0.85754(18) 0.83632(14)
C9 C 0.1208(3) 0.7490(2) 0.71350(16)
H3 H 0.190286 0.769956 0.714758
C10 C 0.1190(4) 0.7011(3) 0.65811(19)
H4 H 0.187257 0.688892 0.621971
C11 C 0.0150(4) 0.6700(3) 0.6550(2)
H5 H 0.014322 0.638320 0.616055
N5 N 0.06174(18) 0.18327(14) 0.87885(10)
N6 N 0.19627(18) 0.06144(14) 0.88008(10)
C25 C 0.1530(3) 0.18474(19) 0.82139(14)
H16 H 0.157533 0.228532 0.788118
C26 C 0.2353(3) 0.1095(2) 0.82298(15)
H17 H 0.307487 0.092750 0.790244
C27 C 0.0919(2) 0.10720(16) 0.91214(12)
H18 H 0.044384 0.089726 0.952679
I1 I 0.50218(2) 0.34667(2) 0.34982(2)
Zn1 Zn 0.45131(2) 0.35892(2) 0.23334(2)
O1 O 0.33952(19) 0.28005(14) 0.22671(12)
O2 O 0.35178(19) 0.31886(17) 0.11808(13)
N1 N 0.60268(18) 0.34544(14) 0.15845(11)
N2 N 0.73336(18) 0.33179(14) 0.05877(10)
C1 C 0.3017(3) 0.2861(2) 0.17149(18)
C2 C 0.1881(2) 0.25086(19) 0.17515(15)
C3 C 0.1835(2) 0.2041(2) 0.11856(15)
H1 H 0.250212 0.194211 0.081344
C4 C 0.0802(2) 0.17080(19) 0.11579(14)
H2 H 0.079059 0.140102 0.076541
C7 C 0.0868(3) 0.2658(2) 0.23240(15)
C12 C 0.0849(3) 0.3152(3) 0.29265(18)
H6 H 0.152742 0.337174 0.295801
C13 C 0.6209(2) 0.32682(18) 0.09251(13)
H7 H 0.563154 0.312187 0.072251
C14 C 0.7104(2) 0.3622(2) 0.16672(14)
H8 H 0.724738 0.377100 0.208110
C15 C 0.7914(3) 0.3537(2) 0.10630(14)
H9 H 0.870995 0.361136 0.097980
H12 H 0.931437 0.226890 0.000591
N13 N 0.3586(2) 0.48407(15) 0.22323(11)
N3 N 0.2569(2) 0.59764(14) 0.17876(11)
C16 C 0.2125(2) 0.68317(17) 0.01285(12)
C17 C 0.2666(2) 0.63788(17) 0.06040(13)
H10 H 0.341651 0.600737 0.046779
C18 C 0.2066(2) 0.64889(16) 0.12919(13)
C19 C 0.0977(2) 0.70719(16) 0.15010(13)
H11 H 0.058418 0.714794 0.196298
C20 C 0.0485(2) 0.75383(16) 0.10106(13)
C21 C 0.1036(2) 0.74221(16) 0.03205(12)
C22 C 0.3314(2) 0.51743(18) 0.16715(13)
H13 H 0.360252 0.488827 0.124332
C23 C 0.2988(3) 0.5468(2) 0.27408(15)
H14 H 0.301736 0.542008 0.319766
C24 C 0.2352(3) 0.6163(2) 0.24789(14)
H15 H 0.186190 0.667012 0.271750
N3_2 N 0.7431(2) 0.40236(14) 0.82124(11)
N4 N 0.6414(2) 0.51593(15) 0.77677(11)
C16_2 C 0.7875(2) 0.31683(17) 0.98715(12)
C17_2 C 0.7334(2) 0.36212(17) 0.93960(13)
H10_2 H 0.658349 0.399263 0.953221
C18_2 C 0.7934(2) 0.35111(16) 0.87081(13)
C19_2 C 0.9023(2) 0.29281(16) 0.84990(13)
H11_2 H 0.941582 0.285206 0.803702
C20_2 C 0.9515(2) 0.24617(16) 0.89894(13)
C21_2 C 0.8964(2) 0.25779(16) 0.96795(12)
C22_2 C 0.6686(2) 0.48257(18) 0.83285(13)
H13_2 H 0.639748 0.511173 0.875668
C23_2 C 0.7012(3) 0.4532(2) 0.72592(15)
H14_2 H 0.698264 0.457992 0.680234
C24_2 C 0.7648(3) 0.3837(2) 0.75211(14)
H15_2 H 0.813810 0.332988 0.728250
Zn4 Zn 0.54869(2) 0.64108(2) 0.76666(2)
I1_2 I 0.49782(2) 0.65333(2) 0.65018(2)
O1_2 O 0.66048(19) 0.71995(14) 0.77329(12)
O2_2 O 0.64822(19) 0.68114(17) 0.88192(13)
N1_2 N 0.39732(18) 0.65456(14) 0.84155(11)
N2_2 N 0.26664(18) 0.66821(14) 0.94123(10)
C1_2 C 0.6983(3) 0.7139(2) 0.82851(18)
C2_2 C 0.8119(2) 0.74914(19) 0.82485(15)
C3_2 C 0.8165(2) 0.7959(2) 0.88144(15)
H1_2 H 0.749788 0.805789 0.918656
C4_2 C 0.9198(2) 0.82920(19) 0.88421(14)
H2_2 H 0.920941 0.859898 0.923459
C7_2 C 0.9132(3) 0.7342(2) 0.76760(15)
C12_2 C 0.9151(3) 0.6848(3) 0.70735(18)
H6_2 H 0.847258 0.662826 0.704199
C13_2 C 0.3791(2) 0.67318(18) 0.90749(13)
H7_2 H 0.436846 0.687813 0.927749
C14_2 C 0.2896(2) 0.6378(2) 0.83328(14)
H8_2 H 0.275262 0.622900 0.791890
C15_2 C 0.2086(3) 0.6463(2) 0.89370(14)
H9_2 H 0.129005 0.638864 0.902020
H12_2 H 0.068563 0.773110 0.999409
O3_2 O 0.8110(2) 0.11200(18) 0.21359(11)
O4 O 0.85981(17) 0.13912(13) 0.10378(9)
C5_2 C 0.9812(2) 0.18285(18) 0.16993(13)
C6_2 C 0.9809(2) 0.23220(19) 0.23036(14)
C8_2 C 0.8756(2) 0.14246(18) 0.16368(14)
C9_2 C 0.8792(3) 0.2510(2) 0.28650(16)
H3_2 H 0.809714 0.230044 0.285242
C10_2 C 0.8810(4) 0.2989(3) 0.34189(19)
H4_2 H 0.812743 0.311108 0.378029
C11_2 C 0.9850(4) 0.3300(3) 0.3450(2)
H5_2 H 0.985678 0.361680 0.383945
Zn5 Zn 0.73955(2) 0.06669(2) 0.09830(2)
O6_2 O 0.6799(2) 0.1031(2) 0.01594(11)
N7_2 N 0.57311(17) 0.08383(14) 0.16227(10)
N8_2 N 0.43022(17) 0.08495(13) 0.25672(10)
N9 N 0.58240(18) 0.14982(16) 0.53826(10)
N10_2 N 0.43842(17) 0.12490(15) 0.49272(10)
N11_2 N 0.06194(17) 0.10728(15) 0.43537(10)
C40_2 C 0.4794(2) 0.0517(2) 0.14707(13)
H25_2 H 0.477746 0.032283 0.103887
C41_2 C 0.3903(2) 0.0526(2) 0.20441(13)
H26_2 H 0.316808 0.034969 0.208066
C42_2 C 0.5405(2) 0.10422(17) 0.22818(12)
H27_2 H 0.586805 0.128543 0.251961
C43_2 C 0.3683(2) 0.09777(16) 0.32692(12)
C44_2 C 0.4327(2) 0.10426(17) 0.37487(12)
H28_2 H 0.515764 0.100037 0.361561
C45_2 C 0.3720(2) 0.11713(18) 0.44309(12)
C46_2 C 0.2490(2) 0.11865(18) 0.46452(12)
H29_2 H 0.208883 0.125817 0.510615
C47_2 C 0.1882(2) 0.10917(18) 0.41508(12)
C48_2 C 0.2451(2) 0.10094(18) 0.34597(12)
H30_2 H 0.201949 0.097637 0.313265
C49_2 C 0.5429(2) 0.1543(2) 0.48230(13)
H31_2 H 0.582393 0.175133 0.440724
C50_2 C 0.4988(2) 0.1154(2) 0.58720(13)
H32_2 H 0.502873 0.104356 0.632259
C51_2 C 0.4098(3) 0.0999(2) 0.55960(14)
H33_2 H 0.342217 0.076835 0.581760
C54_3 C 0.0000(2) 0.0602(2) 0.40386(16)
H36_2 H 0.031720 0.023729 0.364667
Zn6 Zn 0.72293(2) 0.19540(2) 0.55935(2)
O5_2 O 0.8576(2) 0.02470(17) 0.97459(11)
O7_2 O 0.87702(17) 0.17834(16) 0.64858(10)
O8 O 0.69509(18) 0.15362(16) 0.65435(9)
C28_2 C 0.7611(3) 0.07034(19) 0.96667(13)
C29_2 C 0.7530(2) 0.09449(18) 0.89407(12)
C30_2 C 0.8529(2) 0.06385(18) 0.84372(13)
H19_2 H 0.917837 0.026728 0.855118
C31_2 C 0.8610(2) 0.08649(18) 0.77515(12)
H20_2 H 0.931736 0.065938 0.742160
C32_2 C 0.7653(2) 0.13881(17) 0.75610(12)
C33_2 C 0.6582(2) 0.17191(19) 0.80632(13)
C34_2 C 0.6505(2) 0.14934(19) 0.87706(13)
C35_2 C 0.7812(2) 0.15859(18) 0.68101(12)
C36_2 C 0.5590(3) 0.2287(3) 0.78945(17)
H21_2 H 0.563739 0.245236 0.744229
C37_2 C 0.4556(4) 0.2599(4) 0.8393(2)
H22_2 H 0.390849 0.296553 0.827362
C38_2 C 0.4479(4) 0.2366(4) 0.9070(2)
H23_2 H 0.377601 0.257899 0.940152
C39_2 C 0.5421(3) 0.1829(3) 0.92607(16)
H24_2 H 0.534706 0.168330 0.971853
I2_2 I 0.69971(2) 0.36381(2) 0.54502(2)
N12_2 N 0.87346(17) 0.13317(16) 0.49366(10)
C52_2 C 0.9813(2) 0.1498(2) 0.48932(13)
H34_2 H 0.999505 0.186754 0.520060
C53_2 C 0.8867(2) 0.0761(2) 0.43938(15)
H35_2 H 0.825082 0.052070 0.429079
C54_4 C 1.0000(2) 0.0602(2) 0.40386(16)
N5_2 N 0.93826(18) 0.81673(14) 0.12115(10)
N6_2 N 0.80373(18) 0.93856(14) 0.11992(10)
C25_2 C 0.8470(3) 0.81526(19) 0.17861(14)
H16_2 H 0.842467 0.771468 0.211882
C26_2 C 0.7647(3) 0.8905(2) 0.17702(15)
H17_2 H 0.692513 0.907250 0.209756
C27_2 C 0.9081(2) 0.89280(16) 0.08786(12)
H18_2 H 0.955616 0.910274 0.047321
loop_
_geom_bond_atom_site_label_1
_geom_bond_atom_site_label_2
_geom_bond_site_symmetry_1
_geom_bond_site_symmetry_2
I2 Zn3 1_555 1_555
Zn3 N12 1_555 1_555
N12 C52 1_555 1_555
H34 C52 1_555 1_555
C53 N12 1_555 1_555
H35 C53 1_555 1_555
O10 Zn3 1_555 1_555
N14 Zn3 1_555 1_555
C53 C54 1_555 1_555
O5 C28 1_555 1_555
O7 C35 1_555 1_555
O10 C35 1_555 1_555
C29 C28 1_555 1_555
C30 C29 1_555 1_555
H19 C30 1_555 1_555
C31 C30 1_555 1_555
H20 C31 1_555 1_555
C32 C31 1_555 1_555
C33 C32 1_555 1_555
C34 C29 1_555 1_555
C35 C32 1_555 1_555
C36 C33 1_555 1_555
H21 C36 1_555 1_555
C37 C36 1_555 1_555
H22 C37 1_555 1_555
C38 C37 1_555 1_555
H23 C38 1_555 1_555
C39 C34 1_555 1_555
H24 C39 1_555 1_555
C33 C34 1_555 1_555
C38 C39 1_555 1_555
O6 Zn2 1_555 1_555
N7 Zn2 1_555 1_555
N8 C41 1_555 1_555
N14 C49 1_555 1_555
N10 C45 1_555 1_555
N11 C47 1_555 1_555
C40 N7 1_555 1_555
H25 C40 1_555 1_555
C41 C40 1_555 1_555
H26 C41 1_555 1_555
C42 N7 1_555 1_555
H27 C42 1_555 1_555
C43 N8 1_555 1_555
C44 C43 1_555 1_555
H28 C44 1_555 1_555
C45 C44 1_555 1_555
C46 C45 1_555 1_555
H29 C46 1_555 1_555
C47 C46 1_555 1_555
C48 C43 1_555 1_555
H30 C48 1_555 1_555
C49 N10 1_555 1_555
H31 C49 1_555 1_555
C50 N14 1_555 1_555
H32 C50 1_555 1_555
C51 N10 1_555 1_555
H33 C51 1_555 1_555
C54_2 N11 1_555 1_555
H36 C54_2 1_555 1_555
O9 Zn2 1_555 1_555
N8 C42 1_555 1_555
C47 C48 1_555 1_555
C50 C51 1_555 1_555
O3 C8 1_555 1_555
O9 C8 1_555 1_555
C6 C5 1_555 1_555
C8 C5 1_555 1_555
C9 C6 1_555 1_555
H3 C9 1_555 1_555
C10 C9 1_555 1_555
H4 C10 1_555 1_555
C11 C10 1_555 1_555
H5 C11 1_555 1_555
C25 N5 1_555 1_555
H16 C25 1_555 1_555
C26 N6 1_555 1_555
H17 C26 1_555 1_555
C27 N5 1_555 1_555
H18 C27 1_555 1_555
N6 C27 1_555 1_555
C25 C26 1_555 1_555
I1 Zn1 1_555 1_555
Zn1 O1 1_555 1_555
O1 C1 1_555 1_555
O2 C1 1_555 1_555
N1 Zn1 1_555 1_555
N2 C13 1_555 1_555
C1 C2 1_555 1_555
C2 C3 1_555 1_555
C3 H1 1_555 1_555
C4 C3 1_555 1_555
H2 C4 1_555 1_555
C7 C2 1_555 1_555
C12 C7 1_555 1_555
H6 C12 1_555 1_555
C13 N1 1_555 1_555
H7 C13 1_555 1_555
C14 N1 1_555 1_555
H8 C14 1_555 1_555
C15 N2 1_555 1_555
H9 C15 1_555 1_555
N13 Zn1 1_555 1_555
C14 C15 1_555 1_555
N3 C18 1_555 1_555
N13 C22 1_555 1_555
C17 C16 1_555 1_555
H10 C17 1_555 1_555
C18 C17 1_555 1_555
C19 C18 1_555 1_555
H11 C19 1_555 1_555
C20 C19 1_555 1_555
C21 C16 1_555 1_555
C22 N3 1_555 1_555
H13 C22 1_555 1_555
C23 N13 1_555 1_555
H14 C23 1_555 1_555
C24 N3 1_555 1_555
H15 C24 1_555 1_555
C20 C21 1_555 1_555
C23 C24 1_555 1_555
N3_2 C18_2 1_555 1_555
N4 C22_2 1_555 1_555
C17_2 C16_2 1_555 1_555
H10_2 C17_2 1_555 1_555
C18_2 C17_2 1_555 1_555
C19_2 C18_2 1_555 1_555
H11_2 C19_2 1_555 1_555
C20_2 C19_2 1_555 1_555
C21_2 C16_2 1_555 1_555
C22_2 N3_2 1_555 1_555
H13_2 C22_2 1_555 1_555
C23_2 N4 1_555 1_555
H14_2 C23_2 1_555 1_555
C24_2 N3_2 1_555 1_555
H15_2 C24_2 1_555 1_555
Zn4 N4 1_555 1_555
C20_2 C21_2 1_555 1_555
C23_2 C24_2 1_555 1_555
I1_2 Zn4 1_555 1_555
Zn4 O1_2 1_555 1_555
O1_2 C1_2 1_555 1_555
O2_2 C1_2 1_555 1_555
N1_2 Zn4 1_555 1_555
N2_2 C13_2 1_555 1_555
C1_2 C2_2 1_555 1_555
C2_2 C3_2 1_555 1_555
C3_2 H1_2 1_555 1_555
C4_2 C3_2 1_555 1_555
H2_2 C4_2 1_555 1_555
C7_2 C2_2 1_555 1_555
C12_2 C7_2 1_555 1_555
H6_2 C12_2 1_555 1_555
C13_2 N1_2 1_555 1_555
H7_2 C13_2 1_555 1_555
C14_2 N1_2 1_555 1_555
H8_2 C14_2 1_555 1_555
C15_2 N2_2 1_555 1_555
H9_2 C15_2 1_555 1_555
C14_2 C15_2 1_555 1_555
O3_2 C8_2 1_555 1_555
O4 C8_2 1_555 1_555
C6_2 C5_2 1_555 1_555
C8_2 C5_2 1_555 1_555
C9_2 C6_2 1_555 1_555
H3_2 C9_2 1_555 1_555
C10_2 C9_2 1_555 1_555
H4_2 C10_2 1_555 1_555
C11_2 C10_2 1_555 1_555
H5_2 C11_2 1_555 1_555
Zn5 O4 1_555 1_555
O6_2 Zn5 1_555 1_555
N7_2 Zn5 1_555 1_555
N8_2 C41_2 1_555 1_555
N9 C49_2 1_555 1_555
N10_2 C45_2 1_555 1_555
N11_2 C47_2 1_555 1_555
C40_2 N7_2 1_555 1_555
H25_2 C40_2 1_555 1_555
C41_2 C40_2 1_555 1_555
H26_2 C41_2 1_555 1_555
C42_2 N7_2 1_555 1_555
H27_2 C42_2 1_555 1_555
C43_2 N8_2 1_555 1_555
C44_2 C43_2 1_555 1_555
H28_2 C44_2 1_555 1_555
C45_2 C44_2 1_555 1_555
C46_2 C45_2 1_555 1_555
H29_2 C46_2 1_555 1_555
C47_2 C46_2 1_555 1_555
C48_2 C43_2 1_555 1_555
H30_2 C48_2 1_555 1_555
C49_2 N10_2 1_555 1_555
H31_2 C49_2 1_555 1_555
C50_2 N9 1_555 1_555
H32_2 C50_2 1_555 1_555
C51_2 N10_2 1_555 1_555
H33_2 C51_2 1_555 1_555
C54_3 N11_2 1_555 1_555
H36_2 C54_3 1_555 1_555
Zn6 N9 1_555 1_555
N8_2 C42_2 1_555 1_555
C47_2 C48_2 1_555 1_555
C50_2 C51_2 1_555 1_555
O5_2 C28_2 1_555 1_555
O7_2 C35_2 1_555 1_555
O8 C35_2 1_555 1_555
C29_2 C28_2 1_555 1_555
C30_2 C29_2 1_555 1_555
H19_2 C30_2 1_555 1_555
C31_2 C30_2 1_555 1_555
H20_2 C31_2 1_555 1_555
C32_2 C31_2 1_555 1_555
C33_2 C32_2 1_555 1_555
C34_2 C29_2 1_555 1_555
C35_2 C32_2 1_555 1_555
C36_2 C33_2 1_555 1_555
H21_2 C36_2 1_555 1_555
C37_2 C36_2 1_555 1_555
H22_2 C37_2 1_555 1_555
C38_2 C37_2 1_555 1_555
H23_2 C38_2 1_555 1_555
C39_2 C34_2 1_555 1_555
H24_2 C39_2 1_555 1_555
Zn6 O8 1_555 1_555
C33_2 C34_2 1_555 1_555
C38_2 C39_2 1_555 1_555
I2_2 Zn6 1_555 1_555
Zn6 N12_2 1_555 1_555
N12_2 C52_2 1_555 1_555
H34_2 C52_2 1_555 1_555
C53_2 N12_2 1_555 1_555
H35_2 C53_2 1_555 1_555
C53_2 C54_4 1_555 1_555
C25_2 N5_2 1_555 1_555
H16_2 C25_2 1_555 1_555
C26_2 N6_2 1_555 1_555
H17_2 C26_2 1_555 1_555
C27_2 N5_2 1_555 1_555
H18_2 C27_2 1_555 1_555
N6_2 C27_2 1_555 1_555
C25_2 C26_2 1_555 1_555

#END
