
###############################################################################
#
# This file contains modified crystal structure data generated from the
# MOF subset of the Cambridge Structural Database (CSD) v543 
# hosted by the Cambridge Crystallographic Data Centre (CCDC).
#
# This work is licensed under the Creative Commons
# Attribution-NonCommercial-ShareAlike 4.0 International License.
# To view a copy of this license, visit
# http://creativecommons.org/licenses/by-nc-sa/4.0/
# or send a letter to
# Creative Commons, PO Box 1866, Mountain View, CA 94042, USA.
#
# CIF created using the CSD Python API on 29 September 2022
# The structure has been converted into the P1 space group
# The structure has a 3D framework
# The original CSD entry JAWXEN01 is in the tetragonal crystal system
# The original CSD entry JAWXEN01 is in a Sohncke space group
# The framework has been calculated to contain at least 10.0% void space
# The void calculation uses a probe of radius 1.32A, grid spacing 0.4
#
###############################################################################

data_JAWXEN01
_chemical_formula_moiety         '(C50 H18 Cu4 N32)n'
_symmetry_cell_setting           triclinic
_symmetry_space_group_name_H-M   'P 1'
_symmetry_Int_Tables_number      1
_space_group_name_Hall           'P 1'
loop_
_symmetry_equiv_pos_site_id
_symmetry_equiv_pos_as_xyz
1 x,y,z
_cell_length_a                   9.2513(8)
_cell_length_b                   9.2513(8)
_cell_length_c                   22.2791(19)
_cell_angle_alpha                90
_cell_angle_beta                 90
_cell_angle_gamma                90
_cell_volume                     1906.79
loop_
_atom_site_label
_atom_site_type_symbol
_atom_site_fract_x
_atom_site_fract_y
_atom_site_fract_z
C1 C 0.500000 0.500000 0.1261(3)
H1 H 0.500003 0.499999 0.083488
C2 C 0.4496(4) 0.5552(4) 0.21622(17)
C3 C 0.3860(5) 0.6237(5) 0.26682(18)
Cu1 Cu 0.28486(7) 0.750000 0.125000
N1 N 0.4173(4) 0.5908(4) 0.15798(15)
N2 N 0.3347(4) 0.6748(4) 0.30875(14)
C4 C 0.5504(4) 0.4448(4) 0.21622(17)
N3 N 0.5827(4) 0.4092(4) 0.15798(15)
C5 C 0.6140(5) 0.3763(5) 0.26682(18)
N4 N 0.6653(4) 0.3252(4) 0.30875(14)
Cu2 Cu 0.250000 0.78486(7) 0.375000
Cu3 Cu 0.71514(7) 0.250000 0.125000
Cu4 Cu 0.750000 0.21514(7) 0.375000
N5 N 0.4173(4) 0.9092(4) 0.09202(15)
N6 N 0.1748(4) 0.6653(4) 0.05875(14)
N7 N 0.1748(4) 0.8347(4) 0.19125(14)
C1_2 C 0.500000 -0.000000 0.3761(3)
H1_2 H 0.500001 0.000003 0.333488
C4_2 C 0.5552(4) 0.0504(4) 0.46622(17)
N3_2 N 0.5908(4) 0.0827(4) 0.40798(15)
C5_2 C 0.6237(5) 0.1140(5) 0.51682(18)
N4_2 N 0.6748(4) 0.1653(4) 0.55875(14)
Cu4_2 Cu 0.78486(7) 0.250000 0.625000
C1_3 C 0.500000 1.000000 0.3761(3)
H1_3 H 0.500001 1.000003 0.333488
C2_2 C 0.4448(4) 0.9496(4) 0.46622(17)
C3_2 C 0.3763(5) 0.8860(5) 0.51682(18)
N1_2 N 0.4092(4) 0.9173(4) 0.40798(15)
N2_2 N 0.3252(4) 0.8347(4) 0.55875(14)
Cu2_2 Cu 0.21514(7) 0.750000 0.625000
N5_2 N 0.0908(4) 0.9173(4) 0.34202(15)
N7_2 N 0.1653(4) 0.6748(4) 0.44125(14)
C1_4 C 0.000000 1.000000 0.6261(3)
H1_4 H -0.000003 1.000001 0.583488
C2_3 C 0.0504(4) 0.9448(4) 0.71622(17)
C3_3 C 0.1140(5) 0.8763(5) 0.76682(18)
N1_3 N 0.0827(4) 0.9092(4) 0.65798(15)
N2_3 N 0.1653(4) 0.8252(4) 0.80875(14)
Cu2_3 Cu 0.250000 0.71514(7) 0.875000
N5_3 N 0.0827(4) 0.5908(4) 0.59202(15)
N7_3 N 0.3252(4) 0.6653(4) 0.69125(14)
C1_5 C 1.000000 0.000000 0.6261(3)
H1_5 H 0.999997 0.000001 0.583488
C4_3 C 0.9496(4) 0.0552(4) 0.71622(17)
N3_3 N 0.9173(4) 0.0908(4) 0.65798(15)
C5_3 C 0.8860(5) 0.1237(5) 0.76682(18)
N4_3 N 0.8347(4) 0.1748(4) 0.80875(14)
Cu4_3 Cu 0.750000 0.28486(7) 0.875000
C3_4 C 0.1237(5) 0.6140(5) 0.01682(18)
C1_6 C 0.000000 0.500000 0.8761(3)
H1_6 H -0.000001 0.499997 0.833488
C2_4 C 0.0552(4) 0.5504(4) 0.96622(17)
N1_4 N 0.0908(4) 0.5827(4) 0.90798(15)
N5_4 N 0.4092(4) 0.5827(4) 0.84202(15)
N7_4 N 0.3347(4) 0.8252(4) 0.94125(14)
C5_4 C 0.8763(5) 0.3860(5) 0.01682(18)
N4_4 N 0.8252(4) 0.3347(4) 0.05875(14)
C1_7 C 1.000000 0.500000 0.8761(3)
H1_7 H 0.999999 0.499997 0.833488
C4_4 C 0.9448(4) 0.4496(4) 0.96622(17)
N3_4 N 0.9092(4) 0.4173(4) 0.90798(15)
C1_8 C 0.500000 -0.000000 0.1239(3)
H1_8 H 0.500003 0.000001 0.166512
C4_5 C 0.5504(4) 0.0552(4) 0.03378(17)
N3_5 N 0.5827(4) 0.0908(4) 0.09202(15)
C5_5 C 0.6140(5) 0.1237(5) 0.98318(18)
N4_5 N 0.6653(4) 0.1748(4) 0.94125(14)
C1_9 C 0.500000 1.000000 0.1239(3)
H1_9 H 0.500003 1.000001 0.166512
C2_5 C 0.4496(4) 0.9448(4) 0.03378(17)
C3_5 C 0.3860(5) 0.8763(5) 0.98318(18)
C1_10 C 0.000000 1.000000 0.3739(3)
H1_10 H -0.000001 1.000003 0.416512
C2_6 C 0.0552(4) 0.9496(4) 0.28378(17)
C3_6 C 0.1237(5) 0.8860(5) 0.23318(18)
C1_11 C 1.000000 -0.000000 0.3739(3)
H1_11 H 0.999999 0.000003 0.416512
C4_6 C 0.9448(4) 0.0504(4) 0.28378(17)
N3_6 N 0.9092(4) 0.0827(4) 0.34202(15)
C5_6 C 0.8763(5) 0.1140(5) 0.23318(18)
N4_6 N 0.8252(4) 0.1653(4) 0.19125(14)
C1_12 C 0.000000 0.500000 0.6239(3)
H1_12 H -0.000003 0.499999 0.666512
C2_7 C 0.0504(4) 0.5552(4) 0.53378(17)
C3_7 C 0.1140(5) 0.6237(5) 0.48318(18)
C1_13 C 1.000000 0.500000 0.6239(3)
H1_13 H 0.999997 0.499999 0.666512
C4_7 C 0.9496(4) 0.4448(4) 0.53378(17)
N3_7 N 0.9173(4) 0.4092(4) 0.59202(15)
C5_7 C 0.8860(5) 0.3763(5) 0.48318(18)
N4_7 N 0.8347(4) 0.3252(4) 0.44125(14)
C1_14 C 0.500000 0.500000 0.8739(3)
H1_14 H 0.500001 0.499997 0.916512
C2_8 C 0.4448(4) 0.5504(4) 0.78378(17)
C3_8 C 0.3763(5) 0.6140(5) 0.73318(18)
C4_8 C 0.5552(4) 0.4496(4) 0.78378(17)
N3_8 N 0.5908(4) 0.4173(4) 0.84202(15)
C5_8 C 0.6237(5) 0.3860(5) 0.73318(18)
N4_8 N 0.6748(4) 0.3347(4) 0.69125(14)
C1_15 C 0.000000 0.000000 0.6261(3)
H1_15 H -0.000003 0.000001 0.583488
C1_16 C 1.000000 1.000000 0.6261(3)
H1_16 H 0.999997 1.000001 0.583488
C1_17 C 0.000000 -0.000000 0.3739(3)
H1_17 H -0.000001 0.000003 0.416512
C1_18 C 1.000000 1.000000 0.3739(3)
H1_18 H 0.999999 1.000003 0.416512
loop_
_geom_bond_atom_site_label_1
_geom_bond_atom_site_label_2
_geom_bond_site_symmetry_1
_geom_bond_site_symmetry_2
C1 H1 1_555 1_555
C2 C3 1_555 1_555
C3 N2 1_555 1_555
Cu1 N1 1_555 1_555
N1 C1 1_555 1_555
N2 Cu2 1_555 1_555
C4 C2 1_555 1_555
N3 C1 1_555 1_555
C5 C4 1_555 1_555
N4 C5 1_555 1_555
Cu3 N3 1_555 1_555
Cu4 N4 1_555 1_555
N5 Cu1 1_555 1_555
N6 Cu1 1_555 1_555
N7 Cu1 1_555 1_555
C2 N1 1_555 1_555
C4 N3 1_555 1_555
C1_2 H1_2 1_555 1_555
N3_2 C1_2 1_555 1_555
C5_2 C4_2 1_555 1_555
N4_2 C5_2 1_555 1_555
Cu4 N3_2 1_555 1_555
Cu4_2 N4_2 1_555 1_555
C4_2 N3_2 1_555 1_555
C1_3 H1_3 1_555 1_555
C2_2 C3_2 1_555 1_555
C3_2 N2_2 1_555 1_555
Cu2 N1_2 1_555 1_555
N1_2 C1_3 1_555 1_555
N2_2 Cu2_2 1_555 1_555
N5_2 Cu2 1_555 1_555
N7_2 Cu2 1_555 1_555
C2_2 N1_2 1_555 1_555
C1_4 H1_4 1_555 1_555
C2_3 C3_3 1_555 1_555
C3_3 N2_3 1_555 1_555
Cu2_2 N1_3 1_555 1_555
N1_3 C1_4 1_555 1_555
N2_3 Cu2_3 1_555 1_555
N5_3 Cu2_2 1_555 1_555
N7_3 Cu2_2 1_555 1_555
C2_3 N1_3 1_555 1_555
C1_5 H1_5 1_555 1_555
N3_3 C1_5 1_555 1_555
C5_3 C4_3 1_555 1_555
N4_3 C5_3 1_555 1_555
Cu4_2 N3_3 1_555 1_555
Cu4_3 N4_3 1_555 1_555
C4_3 N3_3 1_555 1_555
C3_4 N6 1_555 1_555
C1_6 H1_6 1_555 1_555
Cu2_3 N1_4 1_555 1_555
N1_4 C1_6 1_555 1_555
N5_4 Cu2_3 1_555 1_555
N7_4 Cu2_3 1_555 1_555
C2_4 N1_4 1_555 1_555
N4_4 C5_4 1_555 1_555
Cu3 N4_4 1_555 1_555
C1_7 H1_7 1_555 1_555
N3_4 C1_7 1_555 1_555
Cu4_3 N3_4 1_555 1_555
C4_4 N3_4 1_555 1_555
C1_8 H1_8 1_555 1_555
N3_5 C1_8 1_555 1_555
Cu3 N3_5 1_555 1_555
C4_5 N3_5 1_555 1_555
N4_5 C5_5 1_555 1_555
Cu4_3 N4_5 1_555 1_555
C1_9 H1_9 1_555 1_555
N5 C1_9 1_555 1_555
C2_5 N5 1_555 1_555
C3_5 N7_4 1_555 1_555
C1_10 H1_10 1_555 1_555
C2_6 C3_6 1_555 1_555
C3_6 N7 1_555 1_555
N5_2 C1_10 1_555 1_555
C2_6 N5_2 1_555 1_555
C1_11 H1_11 1_555 1_555
N3_6 C1_11 1_555 1_555
C5_6 C4_6 1_555 1_555
N4_6 C5_6 1_555 1_555
Cu4 N3_6 1_555 1_555
Cu3 N4_6 1_555 1_555
C4_6 N3_6 1_555 1_555
C1_12 H1_12 1_555 1_555
C2_7 C3_7 1_555 1_555
C3_7 N7_2 1_555 1_555
N5_3 C1_12 1_555 1_555
C2_7 N5_3 1_555 1_555
C1_13 H1_13 1_555 1_555
N3_7 C1_13 1_555 1_555
C5_7 C4_7 1_555 1_555
N4_7 C5_7 1_555 1_555
Cu4_2 N3_7 1_555 1_555
Cu4 N4_7 1_555 1_555
C4_7 N3_7 1_555 1_555
C1_14 H1_14 1_555 1_555
C2_8 C3_8 1_555 1_555
C3_8 N7_3 1_555 1_555
N5_4 C1_14 1_555 1_555
C4_8 C2_8 1_555 1_555
N3_8 C1_14 1_555 1_555
C5_8 C4_8 1_555 1_555
N4_8 C5_8 1_555 1_555
Cu4_3 N3_8 1_555 1_555
Cu4_2 N4_8 1_555 1_555
C2_8 N5_4 1_555 1_555
C4_8 N3_8 1_555 1_555
C1_15 H1_15 1_555 1_555
C1_16 H1_16 1_555 1_555
C1_17 H1_17 1_555 1_555
C1_18 H1_18 1_555 1_555

#END
