
###############################################################################
#
# This file contains modified crystal structure data generated from the
# MOF subset of the Cambridge Structural Database (CSD) v543 
# hosted by the Cambridge Crystallographic Data Centre (CCDC).
#
# This work is licensed under the Creative Commons
# Attribution-NonCommercial-ShareAlike 4.0 International License.
# To view a copy of this license, visit
# http://creativecommons.org/licenses/by-nc-sa/4.0/
# or send a letter to
# Creative Commons, PO Box 1866, Mountain View, CA 94042, USA.
#
# CIF created using the CSD Python API on 29 September 2022
# The structure has been converted into the P1 space group
# The structure has a 3D framework
# The original CSD entry JAXNUU is in the monoclinic crystal system
# The framework has been calculated to contain at least 10.0% void space
# The void calculation uses a probe of radius 1.32A, grid spacing 0.4
#
###############################################################################

data_JAXNUU
_chemical_formula_moiety         '(C24 H16 Cu2 N20)n'
_symmetry_cell_setting           triclinic
_symmetry_space_group_name_H-M   'P 1'
_symmetry_Int_Tables_number      1
_space_group_name_Hall           'P 1'
loop_
_symmetry_equiv_pos_site_id
_symmetry_equiv_pos_as_xyz
1 x,y,z
_cell_length_a                   5.8169(2)
_cell_length_b                   16.8804(6)
_cell_length_c                   9.0264(5)
_cell_angle_alpha                90
_cell_angle_beta                 94.070(5)
_cell_angle_gamma                90
_cell_volume                     884.081
loop_
_atom_site_label
_atom_site_type_symbol
_atom_site_fract_x
_atom_site_fract_y
_atom_site_fract_z
Cu1 Cu 0.25225(9) 0.06494(3) 0.47191(6)
N1 N 0.1729(7) 0.1613(2) 0.6080(4)
C4 C 0.1506(8) 0.3004(3) 0.6573(5)
H3 H 0.2115 0.3520 0.6450
C5 C 0.2528(8) 0.2354(3) 0.5951(5)
H4 H 0.3850 0.2436 0.5410
Cu4 Cu 0.25225(9) 0.43506(3) 0.97191(6)
N6 N 0.5595(6) 0.0825(2) 0.3918(4)
N7 N 0.2525(6) 0.9617(2) 0.5860(4)
Cu2 Cu 0.74775(9) 0.56494(3) 0.02809(6)
N2 N 0.5595(6) 0.4175(2) 0.8918(4)
N3 N 0.7475(6) 0.4617(2) 0.9140(4)
N4 N 0.6110(6) 0.3497(2) 0.8253(5)
N5 N 0.9272(6) 0.4227(2) 0.8601(4)
C1 C 0.9890(8) 0.1511(3) 0.6875(5)
H1 H 0.9328 0.0988 0.6994
C2 C 0.8773(8) 0.2124(3) 0.7528(5)
H2 H 0.7466 0.2023 0.8073
C3 C 0.9581(7) 0.2893(3) 0.7378(5)
C6 C 0.8355(7) 0.3547(3) 0.8058(5)
N8 N 0.9272(6) 0.0773(2) 0.3601(4)
N8_2 N 0.0728(6) 0.5773(2) 0.1399(4)
N2_2 N 0.4405(6) 0.9175(2) 0.6082(4)
N4_2 N 0.3890(6) 0.8497(2) 0.6747(5)
N5_2 N 0.0728(6) 0.9227(2) 0.6399(4)
C1_2 C 0.0110(8) 0.6511(3) 0.8125(5)
H1_2 H 0.0672 0.5988 0.8006
C2_2 C 0.1227(8) 0.7124(3) 0.7472(5)
H2_2 H 0.2534 0.7023 0.6927
C3_2 C 0.0419(7) 0.7893(3) 0.7622(5)
C6_2 C 0.1645(7) 0.8547(3) 0.6942(5)
Cu3 Cu 0.74775(9) 0.93506(3) 0.52809(6)
N6_2 N 0.4405(6) 0.5825(2) 0.1082(4)
N1_2 N 0.8271(7) 0.6613(2) 0.8920(4)
C4_2 C 0.8494(8) 0.8004(3) 0.8427(5)
H3_2 H 0.7885 0.8520 0.8550
C5_2 C 0.7472(8) 0.7354(3) 0.9049(5)
H4_2 H 0.6150 0.7436 0.9590
N3_2 N 0.2525(6) 0.5383(2) 0.0860(4)
N4_3 N 0.3890(6) 0.6503(2) 0.1747(5)
C1_3 C 0.0110(8) 0.8489(3) 0.3125(5)
H1_3 H 0.0672 0.9012 0.3006
C2_3 C 0.1227(8) 0.7876(3) 0.2472(5)
H2_3 H 0.2534 0.7977 0.1927
C3_3 C 0.0419(7) 0.7107(3) 0.2622(5)
C6_3 C 0.1645(7) 0.6453(3) 0.1942(5)
N7_2 N 0.7475(6) 0.0383(2) 0.4140(4)
N1_3 N 0.8271(7) 0.8387(2) 0.3920(4)
C4_3 C 0.8494(8) 0.6996(3) 0.3427(5)
H3_3 H 0.7885 0.6480 0.3550
C5_3 C 0.7472(8) 0.7646(3) 0.4049(5)
H4_3 H 0.6150 0.7564 0.4590
N1_4 N 0.1729(7) 0.3387(2) 0.1080(4)
C4_4 C 0.1506(8) 0.1996(3) 0.1573(5)
H3_4 H 0.2115 0.1480 0.1450
C5_4 C 0.2528(8) 0.2646(3) 0.0951(5)
H4_4 H 0.3850 0.2564 0.0410
N4_4 N 0.6110(6) 0.1503(2) 0.3253(5)
C1_4 C 0.9890(8) 0.3489(3) 0.1875(5)
H1_4 H 0.9328 0.4012 0.1994
C2_4 C 0.8773(8) 0.2876(3) 0.2528(5)
H2_4 H 0.7466 0.2977 0.3073
C3_4 C 0.9581(7) 0.2107(3) 0.2378(5)
C6_4 C 0.8355(7) 0.1453(3) 0.3058(5)
loop_
_geom_bond_atom_site_label_1
_geom_bond_atom_site_label_2
_geom_bond_site_symmetry_1
_geom_bond_site_symmetry_2
Cu1 N1 1_555 1_555
H3 C4 1_555 1_555
C5 N1 1_555 1_555
H4 C5 1_555 1_555
N6 Cu1 1_555 1_555
C4 C5 1_555 1_555
N2 N3 1_555 1_555
N3 N5 1_555 1_555
N4 N2 1_555 1_555
N5 C6 1_555 1_555
C1 H1 1_555 1_555
C2 C1 1_555 1_555
H2 C2 1_555 1_555
C3 C2 1_555 1_555
C6 N4 1_555 1_555
Cu4 N2 1_555 1_555
C3 C6 1_555 1_555
N2_2 N7 1_555 1_555
N7 N5_2 1_555 1_555
N4_2 N2_2 1_555 1_555
N5_2 C6_2 1_555 1_555
C1_2 H1_2 1_555 1_555
C2_2 C1_2 1_555 1_555
H2_2 C2_2 1_555 1_555
C3_2 C2_2 1_555 1_555
C6_2 N4_2 1_555 1_555
Cu3 N2_2 1_555 1_555
C3_2 C6_2 1_555 1_555
N6_2 Cu2 1_555 1_555
H3_2 C4_2 1_555 1_555
C5_2 N1_2 1_555 1_555
H4_2 C5_2 1_555 1_555
C4_2 C5_2 1_555 1_555
N6_2 N3_2 1_555 1_555
N3_2 N8_2 1_555 1_555
N4_3 N6_2 1_555 1_555
N8_2 C6_3 1_555 1_555
C1_3 H1_3 1_555 1_555
C2_3 C1_3 1_555 1_555
H2_3 C2_3 1_555 1_555
C3_3 C2_3 1_555 1_555
C6_3 N4_3 1_555 1_555
C3_3 C6_3 1_555 1_555
Cu3 N1_3 1_555 1_555
H3_3 C4_3 1_555 1_555
C5_3 N1_3 1_555 1_555
H4_3 C5_3 1_555 1_555
C4_3 C5_3 1_555 1_555
H3_4 C4_4 1_555 1_555
C5_4 N1_4 1_555 1_555
H4_4 C5_4 1_555 1_555
C4_4 C5_4 1_555 1_555
N6 N7_2 1_555 1_555
N7_2 N8 1_555 1_555
N4_4 N6 1_555 1_555
N8 C6_4 1_555 1_555
C1_4 H1_4 1_555 1_555
C2_4 C1_4 1_555 1_555
H2_4 C2_4 1_555 1_555
C3_4 C2_4 1_555 1_555
C6_4 N4_4 1_555 1_555
C3_4 C6_4 1_555 1_555

#END
