
###############################################################################
#
# This file contains modified crystal structure data generated from the
# MOF subset of the Cambridge Structural Database (CSD) v543 
# hosted by the Cambridge Crystallographic Data Centre (CCDC).
#
# This work is licensed under the Creative Commons
# Attribution-NonCommercial-ShareAlike 4.0 International License.
# To view a copy of this license, visit
# http://creativecommons.org/licenses/by-nc-sa/4.0/
# or send a letter to
# Creative Commons, PO Box 1866, Mountain View, CA 94042, USA.
#
# CIF created using the CSD Python API on 29 September 2022
# The structure has been converted into the P1 space group
# The structure has a 3D framework
# The original CSD entry JAXZUG is in the trigonal crystal system
# The framework has been calculated to contain at least 10.0% void space
# The void calculation uses a probe of radius 1.32A, grid spacing 0.4
#
###############################################################################

data_JAXZUG
_chemical_formula_moiety         '(C54 H24 N12 O24 Y1)n'
_symmetry_cell_setting           triclinic
_symmetry_space_group_name_H-M   'P 1'
_symmetry_Int_Tables_number      1
_space_group_name_Hall           'P 1'
loop_
_symmetry_equiv_pos_site_id
_symmetry_equiv_pos_as_xyz
1 x,y,z
_cell_length_a                   12.8501(18)
_cell_length_b                   12.8501(18)
_cell_length_c                   15.709(3)
_cell_angle_alpha                90
_cell_angle_beta                 90
_cell_angle_gamma                120
_cell_volume                     2246.43
loop_
_atom_site_label
_atom_site_type_symbol
_atom_site_fract_x
_atom_site_fract_y
_atom_site_fract_z
Y3 Y 0.6667 0.3333 0.03335(3)
C10 C 0.0604(2) 0.1167(3) 0.76995(17)
C11 C 0.2453(2) 0.3158(3) 0.77847(18)
C12 C 0.3076(2) 0.4128(3) 0.72279(17)
H5 H 0.2675 0.4247 0.6779
C13 C 0.4296(2) 0.4913(3) 0.73488(16)
C14 C 0.4892(2) 0.4730(3) 0.80219(17)
H6 H 0.5712 0.5248 0.8095
C15 C 0.4274(3) 0.3779(4) 0.85869(18)
C16 C 0.3049(2) 0.3006(4) 0.84709(18)
H7 H 0.2626 0.2384 0.8855
C17 C 0.4947(3) 0.3613(4) 0.93073(18)
N3 N 0.1251(2) 0.0606(3) 0.77025(16)
N4 N 0.11964(19) 0.23839(27) 0.76731(15)
H8 H 0.0772 0.2719 0.7580
O5 O 0.60700(19) 0.42693(27) 0.93083(13)
O6 O 0.4404(2) 0.2868(3) 0.98775(13)
C18 C 0.4999(2) 0.5953(3) 0.67472(16)
O7 O 0.44240(18) 0.62079(25) 0.62264(11)
O8 O 0.61196(18) 0.65024(26) 0.67992(15)
Y6 Y 0.3333 0.6667 0.53335(3)
C1 C 0.0563(2) 0.9396(2) 0.76995(17)
C2 C 0.0705(2) 0.7547(2) 0.77847(18)
C3 C 0.1052(2) 0.6924(2) 0.72279(17)
H1 H 0.1572 0.7325 0.6779
C4 C 0.0617(2) 0.5704(2) 0.73488(16)
N2 N 0.11875(19) 0.88036(19) 0.76731(15)
H4 H 0.1947 0.9228 0.7580
C9 C 0.0954(2) 0.5001(2) 0.67472(16)
O3 O 0.17839(18) 0.55760(18) 0.62264(11)
O4 O 0.03828(19) 0.38804(18) 0.67992(15)
C23 C 0.5270(3) 0.0162(2) 0.80219(17)
H10 H 0.4752 0.0464 0.8095
C24 C 0.6221(4) 0.0495(3) 0.85869(18)
C25 C 0.6994(4) 0.0043(3) 0.84709(18)
H11 H 0.7616 0.0242 0.8855
C26 C 0.6387(4) 0.1334(3) 0.93073(18)
N5 N 0.9394(3) 0.0645(2) 0.77025(16)
O9 O 0.57307(27) 0.18007(19) 0.93083(13)
O10 O 0.7132(3) 0.1536(2) 0.98775(13)
O17 O 0.55760(18) 0.17839(18) 0.12264(11)
O18 O 0.62079(25) 0.44240(18) 0.12264(11)
O19 O 0.82161(18) 0.37921(25) 0.12264(11)
C5 C 0.9838(2) 0.5108(2) 0.80219(17)
H2 H 0.9536 0.4288 0.8095
C6 C 0.9505(3) 0.5726(3) 0.85869(18)
C7 C 0.9957(3) 0.6951(2) 0.84709(18)
H3 H 0.9758 0.7374 0.8855
C8 C 0.8666(3) 0.5053(3) 0.93073(18)
N1 N 0.9355(2) 0.8749(2) 0.77025(16)
O1 O 0.81993(19) 0.39300(19) 0.93083(13)
O2 O 0.8464(2) 0.5596(2) 0.98775(13)
C19 C 0.8833(3) 0.9437(2) 0.76995(17)
C20 C 0.6842(3) 0.9295(2) 0.77847(18)
C21 C 0.5872(3) 0.8948(2) 0.72279(17)
H9 H 0.5753 0.8428 0.6779
C22 C 0.5087(3) 0.9383(2) 0.73488(16)
N6 N 0.76161(27) 0.88125(19) 0.76731(15)
H12 H 0.7281 0.8053 0.7580
C27 C 0.4047(3) 0.9046(2) 0.67472(16)
O11 O 0.37921(25) 0.82161(18) 0.62264(11)
O12 O 0.34976(26) 0.96172(19) 0.67992(15)
C10_2 C 0.1167(3) 0.0604(2) 0.26995(17)
C11_2 C 0.3158(3) 0.2453(2) 0.27847(18)
C12_2 C 0.4128(3) 0.3076(2) 0.22279(17)
H5_2 H 0.4247 0.2675 0.1779
C13_2 C 0.4913(3) 0.4296(2) 0.23488(16)
C14_2 C 0.4730(3) 0.4892(2) 0.30219(17)
H6_2 H 0.5248 0.5712 0.3095
C15_2 C 0.3779(4) 0.4274(3) 0.35869(18)
C16_2 C 0.3006(4) 0.3049(2) 0.34709(18)
H7_2 H 0.2384 0.2626 0.3855
C17_2 C 0.3613(4) 0.4947(3) 0.43073(18)
N3_2 N 0.0606(3) 0.1251(2) 0.27025(16)
N4_2 N 0.23839(27) 0.11964(19) 0.26731(15)
H8_2 H 0.2719 0.0772 0.2580
O5_2 O 0.42693(27) 0.60700(19) 0.43083(13)
O6_2 O 0.2868(3) 0.4404(2) 0.48775(13)
C18_2 C 0.5953(3) 0.4999(2) 0.17472(16)
O8_2 O 0.65024(26) 0.61196(18) 0.17992(15)
C23_2 C 0.0162(2) 0.5270(3) 0.30219(17)
H10_2 H 0.0464 0.4752 0.3095
C24_2 C 0.0495(3) 0.6221(4) 0.35869(18)
C25_2 C 0.0043(3) 0.6994(4) 0.34709(18)
H11_2 H 0.0242 0.7616 0.3855
C26_2 C 0.1334(3) 0.6387(4) 0.43073(18)
N5_2 N 0.0645(2) 0.9394(3) 0.27025(16)
O9_2 O 0.18007(19) 0.57307(27) 0.43083(13)
O10_2 O 0.1536(2) 0.7132(3) 0.48775(13)
C1_2 C 0.9396(2) 0.0563(2) 0.26995(17)
C2_2 C 0.7547(2) 0.0705(2) 0.27847(18)
C3_2 C 0.6924(2) 0.1052(2) 0.22279(17)
H1_2 H 0.7325 0.1572 0.1779
C4_2 C 0.5704(2) 0.0617(2) 0.23488(16)
N2_2 N 0.88036(19) 0.11875(19) 0.26731(15)
H4_2 H 0.9228 0.1947 0.2580
C9_2 C 0.5001(2) 0.0954(2) 0.17472(16)
O4_2 O 0.38804(18) 0.03828(19) 0.17992(15)
C5_2 C 0.5108(2) 0.9838(2) 0.30219(17)
H2_2 H 0.4288 0.9536 0.3095
C6_2 C 0.5726(3) 0.9505(3) 0.35869(18)
C7_2 C 0.6951(2) 0.9957(3) 0.34709(18)
H3_2 H 0.7374 0.9758 0.3855
C8_2 C 0.5053(3) 0.8666(3) 0.43073(18)
N1_2 N 0.8749(2) 0.9355(2) 0.27025(16)
O1_2 O 0.39300(19) 0.81993(19) 0.43083(13)
O2_2 O 0.5596(2) 0.8464(2) 0.48775(13)
C19_2 C 0.9437(2) 0.8833(3) 0.26995(17)
C20_2 C 0.9295(2) 0.6842(3) 0.27847(18)
C21_2 C 0.8948(2) 0.5872(3) 0.22279(17)
H9_2 H 0.8428 0.5753 0.1779
C22_2 C 0.9383(2) 0.5087(3) 0.23488(16)
N6_2 N 0.88125(19) 0.76161(27) 0.26731(15)
H12_2 H 0.8053 0.7281 0.2580
C27_2 C 0.9046(2) 0.4047(3) 0.17472(16)
O12_2 O 0.96172(19) 0.34976(26) 0.17992(15)
loop_
_geom_bond_atom_site_label_1
_geom_bond_atom_site_label_2
_geom_bond_site_symmetry_1
_geom_bond_site_symmetry_2
C10 N3 1_555 1_555
C11 C12 1_555 1_555
C12 H5 1_555 1_555
C13 C12 1_555 1_555
C14 C13 1_555 1_555
H6 C14 1_555 1_555
C15 C14 1_555 1_555
C16 C11 1_555 1_555
H7 C16 1_555 1_555
C17 C15 1_555 1_555
N4 C10 1_555 1_555
H8 N4 1_555 1_555
O5 C17 1_555 1_555
O6 C17 1_555 1_555
C18 C13 1_555 1_555
O7 C18 1_555 1_555
O8 C18 1_555 1_555
Y6 O7 1_555 1_555
C11 N4 1_555 1_555
C15 C16 1_555 1_555
C2 C3 1_555 1_555
C3 H1 1_555 1_555
C4 C3 1_555 1_555
N2 C1 1_555 1_555
H4 N2 1_555 1_555
C9 C4 1_555 1_555
O3 C9 1_555 1_555
O4 C9 1_555 1_555
Y6 O3 1_555 1_555
C2 N2 1_555 1_555
H10 C23 1_555 1_555
C24 C23 1_555 1_555
H11 C25 1_555 1_555
C26 C24 1_555 1_555
O9 C26 1_555 1_555
O10 C26 1_555 1_555
C24 C25 1_555 1_555
O17 Y3 1_555 1_555
O18 Y3 1_555 1_555
O19 Y3 1_555 1_555
H2 C5 1_555 1_555
C6 C5 1_555 1_555
H3 C7 1_555 1_555
C8 C6 1_555 1_555
N1 C19 1_555 1_555
O1 C8 1_555 1_555
C20 C21 1_555 1_555
C21 H9 1_555 1_555
C22 C21 1_555 1_555
N6 C19 1_555 1_555
H12 N6 1_555 1_555
C27 C22 1_555 1_555
O11 C27 1_555 1_555
O12 C27 1_555 1_555
Y6 O11 1_555 1_555
C6 C7 1_555 1_555
C8 O2 1_555 1_555
C20 N6 1_555 1_555
C10_2 N3_2 1_555 1_555
C11_2 C12_2 1_555 1_555
C12_2 H5_2 1_555 1_555
C13_2 C12_2 1_555 1_555
C14_2 C13_2 1_555 1_555
H6_2 C14_2 1_555 1_555
C15_2 C14_2 1_555 1_555
C16_2 C11_2 1_555 1_555
H7_2 C16_2 1_555 1_555
C17_2 C15_2 1_555 1_555
N4_2 C10_2 1_555 1_555
H8_2 N4_2 1_555 1_555
O5_2 C17_2 1_555 1_555
O6_2 C17_2 1_555 1_555
C18_2 C13_2 1_555 1_555
O18 C18_2 1_555 1_555
O8_2 C18_2 1_555 1_555
Y6 O5_2 1_555 1_555
C11_2 N4_2 1_555 1_555
C15_2 C16_2 1_555 1_555
O6_2 Y6 1_555 1_555
H10_2 C23_2 1_555 1_555
C24_2 C23_2 1_555 1_555
H11_2 C25_2 1_555 1_555
C26_2 C24_2 1_555 1_555
O9_2 C26_2 1_555 1_555
O10_2 C26_2 1_555 1_555
Y6 O9_2 1_555 1_555
C24_2 C25_2 1_555 1_555
O10_2 Y6 1_555 1_555
C2_2 C3_2 1_555 1_555
C3_2 H1_2 1_555 1_555
C4_2 C3_2 1_555 1_555
N2_2 C1_2 1_555 1_555
H4_2 N2_2 1_555 1_555
C9_2 C4_2 1_555 1_555
O17 C9_2 1_555 1_555
O4_2 C9_2 1_555 1_555
C2_2 N2_2 1_555 1_555
Y6 O1_2 1_555 1_555
H2_2 C5_2 1_555 1_555
C6_2 C5_2 1_555 1_555
H3_2 C7_2 1_555 1_555
C8_2 C6_2 1_555 1_555
N1_2 C19_2 1_555 1_555
O1_2 C8_2 1_555 1_555
O2_2 Y6 1_555 1_555
C20_2 C21_2 1_555 1_555
C21_2 H9_2 1_555 1_555
C22_2 C21_2 1_555 1_555
N6_2 C19_2 1_555 1_555
H12_2 N6_2 1_555 1_555
C27_2 C22_2 1_555 1_555
O19 C27_2 1_555 1_555
O12_2 C27_2 1_555 1_555
C6_2 C7_2 1_555 1_555
C8_2 O2_2 1_555 1_555
C20_2 N6_2 1_555 1_555

#END
