
###############################################################################
#
# This file contains modified crystal structure data generated from the
# MOF subset of the Cambridge Structural Database (CSD) v543 
# hosted by the Cambridge Crystallographic Data Centre (CCDC).
#
# This work is licensed under the Creative Commons
# Attribution-NonCommercial-ShareAlike 4.0 International License.
# To view a copy of this license, visit
# http://creativecommons.org/licenses/by-nc-sa/4.0/
# or send a letter to
# Creative Commons, PO Box 1866, Mountain View, CA 94042, USA.
#
# CIF created using the CSD Python API on 29 September 2022
# The structure has been converted into the P1 space group
# The structure has a 3D framework
# The original CSD entry JAZKII is in the monoclinic crystal system
# The framework has been calculated to contain at least 10.0% void space
# The void calculation uses a probe of radius 1.32A, grid spacing 0.4
#
###############################################################################

data_JAZKII
_chemical_formula_moiety         '(C68 H44 N12 O14 Zn2)n'
_symmetry_cell_setting           triclinic
_symmetry_space_group_name_H-M   'P 1'
_symmetry_Int_Tables_number      1
_space_group_name_Hall           'P 1'
loop_
_symmetry_equiv_pos_site_id
_symmetry_equiv_pos_as_xyz
1 x,y,z
_cell_length_a                   12.8616(15)
_cell_length_b                   19.2675(16)
_cell_length_c                   13.270(2)
_cell_angle_alpha                90
_cell_angle_beta                 98.947(13)
_cell_angle_gamma                90
_cell_volume                     3248.44
loop_
_atom_site_label
_atom_site_type_symbol
_atom_site_fract_x
_atom_site_fract_y
_atom_site_fract_z
Zn5 Zn 0.08770(6) 0.45060(4) 0.01267(6)
Zn1 Zn 0.58770(6) 0.04940(4) 0.51267(6)
O1 O 0.8404(4) 0.5026(2) 0.8578(4)
O2 O 0.9768(4) 0.4296(2) 0.8847(4)
O3 O 0.8515(3) 0.4781(2) 0.0719(4)
O4 O 0.9892(3) 0.4048(2) 0.0980(4)
N1 N 0.7289(4) 0.2347(2) 0.4645(4)
N2 N 0.8165(5) 0.1972(3) 0.4645(6)
N3 N 0.6818(4) 0.1305(2) 0.4922(4)
C1 C 0.7833(6) 0.1347(4) 0.4828(7)
H1 H 0.8274 0.0962 0.4887
C2 C 0.6489(5) 0.1949(3) 0.4815(5)
H2 H 0.5811 0.2102 0.4851
C3 C 0.7243(5) 0.3122(3) 0.4546(5)
H3 H 0.6496 0.3249 0.4415
C4 C 0.7728(5) 0.3379(3) 0.3635(5)
C5 C 0.7094(5) 0.3776(3) 0.2913(6)
H4 H 0.6389 0.3849 0.2963
C6 C 0.7527(5) 0.4058(3) 0.2124(6)
H5 H 0.7118 0.4345 0.1658
C7 C 0.8549(5) 0.3927(3) 0.2007(5)
C8 C 0.9157(5) 0.3538(3) 0.2718(5)
H6 H 0.9853 0.3449 0.2648
C9 C 0.8755(5) 0.3267(4) 0.3555(6)
H7 H 0.9185 0.3014 0.4052
C10 C 0.9018(5) 0.4269(3) 0.1167(5)
C11 C 0.7710(5) 0.3466(3) 0.5548(5)
C12 C 0.7189(6) 0.4025(4) 0.5855(6)
H8 H 0.6572 0.4182 0.5461
C13 C 0.7595(6) 0.4364(4) 0.6772(6)
H9 H 0.7236 0.4744 0.6980
C14 C 0.8491(5) 0.4150(3) 0.7359(5)
C15 C 0.9009(5) 0.3577(4) 0.7035(6)
H10 H 0.9625 0.3416 0.7426
C16 C 0.8604(6) 0.3240(4) 0.6115(6)
H11 H 0.8956 0.2860 0.5899
C17 C 0.8932(5) 0.4511(3) 0.8338(5)
Zn3 Zn 0.91230(6) 0.54940(4) 0.98733(6)
O5 O 0.6596(4) 0.0026(2) 0.6422(4)
O6 O 0.4768(4) 0.0704(2) 0.3847(4)
O8 O 0.4892(3) 0.0952(2) 0.5980(4)
O7 O 0.6485(3) 0.9781(2) 0.4281(4)
O6_2 O 0.0232(4) 0.5704(2) 0.1153(4)
O8_2 O 0.0108(3) 0.5952(2) 0.9020(4)
O4_2 O 0.5108(3) 0.9048(2) 0.4020(4)
N1_2 N 0.7711(4) 0.7347(2) 0.0355(4)
N2_2 N 0.6835(5) 0.6972(3) 0.0355(6)
N3_2 N 0.8182(4) 0.6305(2) 0.0078(4)
C1_2 C 0.7167(6) 0.6347(4) 0.0172(7)
H1_2 H 0.6726 0.5962 0.0113
C2_2 C 0.8511(5) 0.6949(3) 0.0185(5)
H2_2 H 0.9189 0.7102 0.0149
C3_2 C 0.7757(5) 0.8122(3) 0.0454(5)
H3_2 H 0.8504 0.8249 0.0585
C4_2 C 0.7272(5) 0.8379(3) 0.1365(5)
C5_2 C 0.7906(5) 0.8776(3) 0.2087(6)
H4_2 H 0.8611 0.8849 0.2037
C6_2 C 0.7473(5) 0.9058(3) 0.2876(6)
H5_2 H 0.7882 0.9345 0.3342
C7_2 C 0.6451(5) 0.8927(3) 0.2993(5)
C8_2 C 0.5843(5) 0.8538(3) 0.2282(5)
H6_2 H 0.5147 0.8449 0.2352
C9_2 C 0.6245(5) 0.8267(4) 0.1445(6)
H7_2 H 0.5815 0.8014 0.0948
C10_2 C 0.5982(5) 0.9269(3) 0.3833(5)
Zn4 Zn 0.41230(6) 0.95060(4) 0.48733(6)
O2_2 O 0.5232(4) 0.9296(2) 0.6153(4)
C11_2 C 0.7290(5) 0.8466(3) 0.9452(5)
C12_2 C 0.7811(6) 0.9025(4) 0.9145(6)
H8_2 H 0.8428 0.9182 0.9539
C13_2 C 0.7405(6) 0.9364(4) 0.8228(6)
H9_2 H 0.7764 0.9744 0.8020
C14_2 C 0.6509(5) 0.9150(3) 0.7641(5)
C15_2 C 0.5991(5) 0.8577(4) 0.7965(6)
H10_2 H 0.5375 0.8416 0.7574
C16_2 C 0.6396(6) 0.8240(4) 0.8885(6)
H11_2 H 0.6044 0.7860 0.9101
C17_2 C 0.6068(5) 0.9511(3) 0.6662(5)
O7_2 O 0.3515(3) 0.0219(2) 0.5719(4)
O1_2 O 0.1596(4) 0.4974(2) 0.1422(4)
O3_2 O 0.1485(3) 0.5219(2) 0.9281(4)
N1_3 N 0.2711(4) 0.7653(2) 0.5355(4)
N2_3 N 0.1835(5) 0.8028(3) 0.5355(6)
N3_3 N 0.3182(4) 0.8695(2) 0.5078(4)
C1_3 C 0.2167(6) 0.8653(4) 0.5172(7)
H1_3 H 0.1726 0.9038 0.5113
C2_3 C 0.3511(5) 0.8051(3) 0.5185(5)
H2_3 H 0.4189 0.7898 0.5149
C3_3 C 0.2757(5) 0.6878(3) 0.5454(5)
H3_3 H 0.3504 0.6751 0.5585
C4_3 C 0.2272(5) 0.6621(3) 0.6365(5)
C5_3 C 0.2906(5) 0.6224(3) 0.7087(6)
H4_3 H 0.3611 0.6151 0.7037
C6_3 C 0.2473(5) 0.5942(3) 0.7876(6)
H5_3 H 0.2882 0.5655 0.8342
C7_3 C 0.1451(5) 0.6073(3) 0.7993(5)
C8_3 C 0.0843(5) 0.6462(3) 0.7282(5)
H6_3 H 0.0147 0.6551 0.7352
C9_3 C 0.1245(5) 0.6733(4) 0.6445(6)
H7_3 H 0.0815 0.6986 0.5948
C10_3 C 0.0982(5) 0.5731(3) 0.8833(5)
C11_3 C 0.2290(5) 0.6534(3) 0.4452(5)
C12_3 C 0.2811(6) 0.5975(4) 0.4145(6)
H8_3 H 0.3428 0.5818 0.4539
C13_3 C 0.2405(6) 0.5636(4) 0.3228(6)
H9_3 H 0.2764 0.5256 0.3020
C14_3 C 0.1509(5) 0.5850(3) 0.2641(5)
C15_3 C 0.0991(5) 0.6423(4) 0.2965(6)
H10_3 H 0.0375 0.6584 0.2574
C16_3 C 0.1396(6) 0.6760(4) 0.3885(6)
H11_3 H 0.1044 0.7140 0.4101
C17_3 C 0.1068(5) 0.5489(3) 0.1662(5)
O5_2 O 0.3404(4) 0.9974(2) 0.3578(4)
C11_4 C 0.2710(5) 0.1534(3) 0.0548(5)
C12_4 C 0.2189(6) 0.0975(4) 0.0855(6)
H8_4 H 0.1572 0.0818 0.0461
C13_4 C 0.2595(6) 0.0636(4) 0.1772(6)
H9_4 H 0.2236 0.0256 0.1980
C14_4 C 0.3491(5) 0.0850(3) 0.2359(5)
C15_4 C 0.4009(5) 0.1423(4) 0.2035(6)
H10_4 H 0.4625 0.1584 0.2426
C16_4 C 0.3604(6) 0.1760(4) 0.1115(6)
H11_4 H 0.3956 0.2140 0.0899
C17_4 C 0.3932(5) 0.0489(3) 0.3338(5)
N1_4 N 0.2289(4) 0.2653(2) 0.9645(4)
N2_4 N 0.3165(5) 0.3028(3) 0.9645(6)
N3_4 N 0.1818(4) 0.3695(2) 0.9922(4)
C1_4 C 0.2833(6) 0.3653(4) 0.9828(7)
H1_4 H 0.3274 0.4038 0.9887
C2_4 C 0.1489(5) 0.3051(3) 0.9815(5)
H2_4 H 0.0811 0.2898 0.9851
C3_4 C 0.2243(5) 0.1878(3) 0.9546(5)
H3_4 H 0.1496 0.1751 0.9415
C4_4 C 0.2728(5) 0.1621(3) 0.8635(5)
C5_4 C 0.2094(5) 0.1224(3) 0.7913(6)
H4_4 H 0.1389 0.1151 0.7963
C6_4 C 0.2527(5) 0.0942(3) 0.7124(6)
H5_4 H 0.2118 0.0655 0.6658
C7_4 C 0.3549(5) 0.1073(3) 0.7007(5)
C8_4 C 0.4157(5) 0.1462(3) 0.7718(5)
H6_4 H 0.4853 0.1551 0.7648
C9_4 C 0.3755(5) 0.1733(4) 0.8555(6)
H7_4 H 0.4185 0.1986 0.9052
C10_4 C 0.4018(5) 0.0731(3) 0.6167(5)
loop_
_geom_bond_atom_site_label_1
_geom_bond_atom_site_label_2
_geom_bond_site_symmetry_1
_geom_bond_site_symmetry_2
Zn1 N3 1_555 1_555
O1 C17 1_555 1_555
O2 C17 1_555 1_555
O3 C10 1_555 1_555
O4 C10 1_555 1_555
N1 N2 1_555 1_555
N2 C1 1_555 1_555
N3 C1 1_555 1_555
C1 H1 1_555 1_555
C2 N1 1_555 1_555
H2 C2 1_555 1_555
C3 N1 1_555 1_555
H3 C3 1_555 1_555
C4 C3 1_555 1_555
C5 C4 1_555 1_555
H4 C5 1_555 1_555
C6 C5 1_555 1_555
H5 C6 1_555 1_555
C7 C6 1_555 1_555
C8 C7 1_555 1_555
H6 C8 1_555 1_555
C9 C4 1_555 1_555
H7 C9 1_555 1_555
C10 C7 1_555 1_555
C11 C3 1_555 1_555
C12 C11 1_555 1_555
H8 C12 1_555 1_555
C13 C12 1_555 1_555
H9 C13 1_555 1_555
C14 C13 1_555 1_555
C15 C14 1_555 1_555
H10 C15 1_555 1_555
C16 C11 1_555 1_555
H11 C16 1_555 1_555
C17 C14 1_555 1_555
Zn3 O1 1_555 1_555
O5 Zn1 1_555 1_555
O6 Zn1 1_555 1_555
O8 Zn1 1_555 1_555
N3 C2 1_555 1_555
C8 C9 1_555 1_555
C15 C16 1_555 1_555
O7 C10_2 1_555 1_555
O4_2 C10_2 1_555 1_555
N1_2 N2_2 1_555 1_555
N2_2 C1_2 1_555 1_555
N3_2 C1_2 1_555 1_555
C1_2 H1_2 1_555 1_555
C2_2 N1_2 1_555 1_555
H2_2 C2_2 1_555 1_555
C3_2 N1_2 1_555 1_555
H3_2 C3_2 1_555 1_555
C4_2 C3_2 1_555 1_555
C5_2 C4_2 1_555 1_555
H4_2 C5_2 1_555 1_555
C6_2 C5_2 1_555 1_555
H5_2 C6_2 1_555 1_555
C7_2 C6_2 1_555 1_555
C8_2 C7_2 1_555 1_555
H6_2 C8_2 1_555 1_555
C9_2 C4_2 1_555 1_555
H7_2 C9_2 1_555 1_555
C10_2 C7_2 1_555 1_555
Zn4 O4_2 1_555 1_555
N3_2 C2_2 1_555 1_555
C8_2 C9_2 1_555 1_555
O2_2 C17_2 1_555 1_555
C12_2 C11_2 1_555 1_555
H8_2 C12_2 1_555 1_555
C13_2 C12_2 1_555 1_555
H9_2 C13_2 1_555 1_555
C14_2 C13_2 1_555 1_555
C15_2 C14_2 1_555 1_555
H10_2 C15_2 1_555 1_555
C16_2 C11_2 1_555 1_555
H11_2 C16_2 1_555 1_555
C17_2 C14_2 1_555 1_555
Zn4 O2_2 1_555 1_555
C15_2 C16_2 1_555 1_555
Zn4 N3_3 1_555 1_555
O1_2 C17_3 1_555 1_555
O6_2 C17_3 1_555 1_555
O3_2 C10_3 1_555 1_555
O8_2 C10_3 1_555 1_555
N1_3 N2_3 1_555 1_555
N2_3 C1_3 1_555 1_555
N3_3 C1_3 1_555 1_555
C1_3 H1_3 1_555 1_555
C2_3 N1_3 1_555 1_555
H2_3 C2_3 1_555 1_555
C3_3 N1_3 1_555 1_555
H3_3 C3_3 1_555 1_555
C4_3 C3_3 1_555 1_555
C5_3 C4_3 1_555 1_555
H4_3 C5_3 1_555 1_555
C6_3 C5_3 1_555 1_555
H5_3 C6_3 1_555 1_555
C7_3 C6_3 1_555 1_555
C8_3 C7_3 1_555 1_555
H6_3 C8_3 1_555 1_555
C9_3 C4_3 1_555 1_555
H7_3 C9_3 1_555 1_555
C10_3 C7_3 1_555 1_555
C11_3 C3_3 1_555 1_555
C12_3 C11_3 1_555 1_555
H8_3 C12_3 1_555 1_555
C13_3 C12_3 1_555 1_555
H9_3 C13_3 1_555 1_555
C14_3 C13_3 1_555 1_555
C15_3 C14_3 1_555 1_555
H10_3 C15_3 1_555 1_555
C16_3 C11_3 1_555 1_555
H11_3 C16_3 1_555 1_555
C17_3 C14_3 1_555 1_555
Zn5 O1_2 1_555 1_555
O5_2 Zn4 1_555 1_555
N3_3 C2_3 1_555 1_555
C8_3 C9_3 1_555 1_555
C15_3 C16_3 1_555 1_555
O6 C17_4 1_555 1_555
C12_4 C11_4 1_555 1_555
H8_4 C12_4 1_555 1_555
C13_4 C12_4 1_555 1_555
H9_4 C13_4 1_555 1_555
C14_4 C13_4 1_555 1_555
C15_4 C14_4 1_555 1_555
H10_4 C15_4 1_555 1_555
C16_4 C11_4 1_555 1_555
H11_4 C16_4 1_555 1_555
C17_4 C14_4 1_555 1_555
C15_4 C16_4 1_555 1_555
O7_2 C10_4 1_555 1_555
O8 C10_4 1_555 1_555
N1_4 N2_4 1_555 1_555
N2_4 C1_4 1_555 1_555
N3_4 C1_4 1_555 1_555
C1_4 H1_4 1_555 1_555
C2_4 N1_4 1_555 1_555
H2_4 C2_4 1_555 1_555
C3_4 N1_4 1_555 1_555
H3_4 C3_4 1_555 1_555
C4_4 C3_4 1_555 1_555
C5_4 C4_4 1_555 1_555
H4_4 C5_4 1_555 1_555
C6_4 C5_4 1_555 1_555
H5_4 C6_4 1_555 1_555
C7_4 C6_4 1_555 1_555
C8_4 C7_4 1_555 1_555
H6_4 C8_4 1_555 1_555
C9_4 C4_4 1_555 1_555
H7_4 C9_4 1_555 1_555
C10_4 C7_4 1_555 1_555
N3_4 C2_4 1_555 1_555
C8_4 C9_4 1_555 1_555

#END
