
###############################################################################
#
# This file contains modified crystal structure data generated from the
# MOF subset of the Cambridge Structural Database (CSD) v543 
# hosted by the Cambridge Crystallographic Data Centre (CCDC).
#
# This work is licensed under the Creative Commons
# Attribution-NonCommercial-ShareAlike 4.0 International License.
# To view a copy of this license, visit
# http://creativecommons.org/licenses/by-nc-sa/4.0/
# or send a letter to
# Creative Commons, PO Box 1866, Mountain View, CA 94042, USA.
#
# CIF created using the CSD Python API on 29 September 2022
# The structure has been converted into the P1 space group
# The structure has a 3D framework
# The original CSD entry JEDVEW is in the orthorhombic crystal system
# The original CSD entry JEDVEW is in a Sohncke space group
# The framework has been calculated to contain at least 10.0% void space
# The void calculation uses a probe of radius 1.32A, grid spacing 0.4
#
###############################################################################

data_JEDVEW
_chemical_formula_moiety         '(C108 H40 Cd8 O68)n'
_symmetry_cell_setting           triclinic
_symmetry_space_group_name_H-M   'P 1'
_symmetry_Int_Tables_number      1
_space_group_name_Hall           'P 1'
loop_
_symmetry_equiv_pos_site_id
_symmetry_equiv_pos_as_xyz
1 x,y,z
_cell_length_a                   16.0672(13)
_cell_length_b                   17.2692(15)
_cell_length_c                   22.649(2)
_cell_angle_alpha                90
_cell_angle_beta                 90
_cell_angle_gamma                90
_cell_volume                     6284.37
loop_
_atom_site_label
_atom_site_type_symbol
_atom_site_fract_x
_atom_site_fract_y
_atom_site_fract_z
C14 C 0.3526(6) 0.0222(5) 0.5533(4)
O11 O 0.4045(4) 0.0670(3) 0.5222(3)
O12 O 0.3054(4) 0.0483(4) 0.5882(3)
Cd6 Cd 0.33859(4) 0.17658(4) 0.58495(3)
Cd1 Cd 0.11185(3) 0.68521(4) 0.65627(2)
C1 C 0.1278(5) 0.5286(5) 0.6895(4)
C2 C 0.1343(5) 0.4472(4) 0.7042(3)
C3 C 0.1933(5) 0.3974(5) 0.6807(3)
H1 H 0.2322 0.4171 0.6543
C4 C 0.1967(5) 0.3209(5) 0.6949(3)
C5 C 0.2538(5) 0.2678(6) 0.6653(4)
C6 C 0.1386(4) 0.2897(5) 0.7351(4)
H2 H 0.1409 0.2375 0.7450
C7 C 0.0781(5) 0.3370(5) 0.7598(4)
C8 C 0.0103(5) 0.3069(7) 0.8012(4)
C9 C 0.0754(5) 0.4170(5) 0.7444(4)
H3 H 0.0351 0.4491 0.7607
C10 C 0.2458(5) 0.7569(6) 0.5839(4)
C11 C 0.3039(5) 0.8066(5) 0.5544(3)
C12 C 0.3015(5) 0.8872(5) 0.5649(4)
H4 H 0.2606 0.9072 0.5897
C13 C 0.3572(5) 0.9365(5) 0.5398(4)
C15 C 0.4191(5) 0.9083(5) 0.5018(4)
H5 H 0.4558 0.9418 0.4830
C16 C 0.4239(5) 0.8277(5) 0.4932(3)
C17 C 0.4920(5) 0.7979(6) 0.4514(4)
C18 C 0.3646(5) 0.7771(5) 0.5195(3)
H6 H 0.3675 0.7241 0.5128
C19 C 0.5003(5) 0.2008(5) 0.6107(4)
C20 C 0.5940(5) 0.2152(4) 0.6236(4)
C21 C 0.6454(5) 0.2434(4) 0.5782(4)
H7 H 0.6229 0.2537 0.5412
C22 C 0.7274(5) 0.2559(5) 0.5879(4)
C23 C 0.7865(6) 0.2842(5) 0.5426(4)
C24 C 0.7600(5) 0.2411(5) 0.6448(4)
H8 H 0.8157 0.2514 0.6527
C25 C 0.7086(6) 0.2110(5) 0.6891(4)
C26 C 0.7420(5) 0.1939(6) 0.7497(4)
C27 C 0.6278(5) 0.2024(4) 0.6760(3)
H9 H 0.5926 0.1861 0.7061
O1 O 0.0682(4) 0.5704(4) 0.7063(3)
O2 O 0.1786(4) 0.5553(3) 0.6541(3)
O3 O 0.2990(4) 0.2984(4) 0.6248(3)
O4 O 0.2528(4) 0.1980(4) 0.6726(3)
O5 O 0.0026(4) 0.2352(4) 0.7971(3)
O7 O 0.1769(3) 0.7864(3) 0.6056(2)
O8 O 0.2588(4) 0.6830(4) 0.5862(3)
H10 H 0.3038 0.6729 0.5710
O9 O 0.5001(4) 0.7256(4) 0.4529(3)
O10 O 0.5299(4) 0.8444(4) 0.4214(3)
O13 O 0.4555(3) 0.1729(4) 0.6480(3)
O14 O 0.4734(3) 0.2187(3) 0.5591(3)
O15 O 0.7551(4) 0.2967(4) 0.4924(3)
O16 O 0.8629(4) 0.2937(3) 0.5537(3)
O17 O 0.8184(4) 0.2139(4) 0.7580(2)
O18 O 0.6964(4) 0.1614(5) 0.7846(3)
Cd4 Cd 0.88815(3) 0.18521(4) 0.84373(2)
Cd5 Cd 0.61185(3) 0.81479(4) 0.34373(2)
Cd7 Cd 0.83859(4) 0.32342(4) 0.41505(3)
O20 O 0.0299(4) 0.6556(4) 0.5786(3)
O23 O 0.2551(4) 0.2033(4) 0.5076(3)
O24 O 0.1816(4) 0.7139(4) 0.7420(2)
O6 O 0.9718(4) 0.3532(4) 0.8321(3)
O19 O 0.9974(4) 0.7352(4) 0.7029(3)
Cd1_2 Cd 0.38815(3) 0.31479(4) 0.15627(2)
Cd2 Cd 0.16141(4) 0.82342(4) 0.08495(3)
C1_2 C 0.3722(5) 0.4714(5) 0.1895(4)
C2_2 C 0.3657(5) 0.5528(4) 0.2042(3)
C3_2 C 0.3067(5) 0.6026(5) 0.1807(3)
H1_2 H 0.2678 0.5829 0.1543
C4_2 C 0.3033(5) 0.6791(5) 0.1949(3)
C5_2 C 0.2462(5) 0.7322(6) 0.1653(4)
C6_2 C 0.3614(4) 0.7103(5) 0.2351(4)
H2_2 H 0.3591 0.7625 0.2450
C7_2 C 0.4219(5) 0.6630(5) 0.2598(4)
C8_2 C 0.4897(5) 0.6931(7) 0.3012(4)
C9_2 C 0.4246(5) 0.5830(5) 0.2444(4)
H3_2 H 0.4649 0.5509 0.2607
C10_2 C 0.2542(5) 0.2431(6) 0.0839(4)
C11_2 C 0.1961(5) 0.1934(5) 0.0544(3)
C12_2 C 0.1985(5) 0.1128(5) 0.0649(4)
H4_2 H 0.2394 0.0928 0.0897
C13_2 C 0.1428(5) 0.0635(5) 0.0398(4)
C15_2 C 0.0809(5) 0.0917(5) 0.0018(4)
C18_2 C 0.1354(5) 0.2229(5) 0.0195(3)
H6_2 H 0.1325 0.2759 0.0128
O1_2 O 0.4318(4) 0.4296(4) 0.2063(3)
O2_2 O 0.3214(4) 0.4447(3) 0.1541(3)
O3_2 O 0.2010(4) 0.7016(4) 0.1248(3)
O4_2 O 0.2472(4) 0.8020(4) 0.1726(3)
O5_2 O 0.4974(4) 0.7648(4) 0.2971(3)
O6_2 O 0.5282(4) 0.6468(4) 0.3321(3)
O7_2 O 0.3231(3) 0.2136(3) 0.1056(2)
O8_2 O 0.2412(4) 0.3170(4) 0.0862(3)
H10_2 H 0.1962 0.3271 0.0710
O13_2 O 0.0445(3) 0.8271(4) 0.1480(3)
O14_2 O 0.0266(3) 0.7813(3) 0.0591(3)
O19_2 O 0.5026(4) 0.2648(4) 0.2029(3)
O20_2 O 0.4701(4) 0.3444(4) 0.0786(3)
O21 O 0.0955(4) 0.9330(3) 0.0222(3)
O22 O 0.1946(4) 0.9517(4) 0.0882(3)
O23_2 O 0.2449(4) 0.7967(4) 0.0076(3)
O24_2 O 0.3184(4) 0.2861(4) 0.2420(2)
C14_2 C 0.1474(6) 0.9778(5) 0.0533(4)
C19_2 C 0.9997(5) 0.7992(5) 0.1107(4)
C20_2 C 0.9060(5) 0.7848(4) 0.1236(4)
C21_2 C 0.8546(5) 0.7566(4) 0.0782(4)
H7_2 H 0.8771 0.7463 0.0412
C22_2 C 0.7726(5) 0.7441(5) 0.0879(4)
C23_2 C 0.7135(6) 0.7158(5) 0.0426(4)
C24_2 C 0.7400(5) 0.7589(5) 0.1448(4)
H8_2 H 0.6843 0.7486 0.1527
C25_2 C 0.7914(6) 0.7890(5) 0.1891(4)
C26_2 C 0.7580(5) 0.8061(6) 0.2497(4)
C27_2 C 0.8722(5) 0.7976(4) 0.1760(3)
H9_2 H 0.9074 0.8139 0.2061
O16_2 O 0.6371(4) 0.7063(3) 0.0537(3)
O17_2 O 0.6816(4) 0.7861(4) 0.2580(2)
O18_2 O 0.8036(4) 0.8386(5) 0.2846(3)
O9_2 O 0.9999(4) 0.2744(4) 0.9529(3)
O10_2 O 0.9701(4) 0.1556(4) 0.9214(3)
O15_2 O 0.7449(4) 0.7033(4) 0.9924(3)
Cd7_2 Cd 0.66141(4) 0.67658(4) 0.91505(3)
O6_3 O 0.0282(4) 0.8532(4) 0.6679(3)
H5_2 H 0.5442 0.4418 0.0170
C16_2 C 0.5761(5) 0.3277(5) 0.0068(3)
C17_2 C 0.5080(5) 0.2979(6) 0.0486(4)
O9_3 O 0.4999(4) 0.2256(4) 0.0471(3)
C1_3 C 0.8722(5) 0.0286(5) 0.8105(4)
C10_3 C 0.7542(5) 0.2569(6) 0.9161(4)
C11_3 C 0.6961(5) 0.3066(5) 0.9456(3)
C12_3 C 0.6985(5) 0.3872(5) 0.9351(4)
H4_3 H 0.7394 0.4072 0.9103
C13_3 C 0.6428(5) 0.4365(5) 0.9602(4)
C14_3 C 0.6474(6) 0.5222(5) 0.9467(4)
C15_3 C 0.5809(5) 0.4083(5) 0.9982(4)
C18_3 C 0.6354(5) 0.2771(5) 0.9805(3)
H6_3 H 0.6325 0.2241 0.9872
O1_3 O 0.9318(4) 0.0704(4) 0.7937(3)
O2_3 O 0.8214(4) 0.0553(3) 0.8459(3)
O7_3 O 0.8231(3) 0.2864(3) 0.8944(2)
O8_3 O 0.7412(4) 0.1830(4) 0.9138(3)
H10_3 H 0.6962 0.1729 0.9290
O11_2 O 0.5955(4) 0.5670(3) 0.9778(3)
O12_2 O 0.6946(4) 0.5483(4) 0.9118(3)
C2_3 C 0.8657(5) 0.9472(4) 0.7958(3)
C3_3 C 0.8067(5) 0.8974(5) 0.8193(3)
H1_3 H 0.7678 0.9171 0.8457
C4_3 C 0.8033(5) 0.8209(5) 0.8051(3)
C5_3 C 0.7462(5) 0.7678(6) 0.8347(4)
C6_3 C 0.8614(4) 0.7897(5) 0.7649(4)
H2_3 H 0.8591 0.7375 0.7550
C7_3 C 0.9219(5) 0.8370(5) 0.7402(4)
C8_3 C 0.9897(5) 0.8069(7) 0.6988(4)
C9_3 C 0.9246(5) 0.9170(5) 0.7556(4)
H3_3 H 0.9649 0.9491 0.7393
C19_3 C 0.4997(5) 0.7008(5) 0.8893(4)
C20_3 C 0.4060(5) 0.7152(4) 0.8764(4)
C21_3 C 0.3546(5) 0.7434(4) 0.9218(4)
H7_3 H 0.3771 0.7537 0.9588
C22_3 C 0.2726(5) 0.7559(5) 0.9121(4)
C23_3 C 0.2135(6) 0.7842(5) 0.9574(4)
C24_3 C 0.2400(5) 0.7411(5) 0.8552(4)
H8_3 H 0.1843 0.7514 0.8473
C25_3 C 0.2914(6) 0.7110(5) 0.8109(4)
C26_3 C 0.2580(5) 0.6939(6) 0.7503(4)
C27_3 C 0.3722(5) 0.7024(4) 0.8240(3)
H9_3 H 0.4074 0.6861 0.7939
O3_3 O 0.7010(4) 0.7984(4) 0.8752(3)
O4_3 O 0.7472(4) 0.6980(4) 0.8274(3)
O13_3 O 0.5445(3) 0.6729(4) 0.8520(3)
O14_3 O 0.5266(3) 0.7187(3) 0.9409(3)
O16_3 O 0.1371(4) 0.7937(3) 0.9463(3)
O18_3 O 0.3036(4) 0.6614(5) 0.7154(3)
C19_4 C 0.0003(5) 0.2992(5) 0.3893(4)
C20_4 C 0.0940(5) 0.2848(4) 0.3764(4)
C21_4 C 0.1454(5) 0.2566(4) 0.4218(4)
H7_4 H 0.1229 0.2463 0.4588
C22_4 C 0.2274(5) 0.2441(5) 0.4121(4)
C23_4 C 0.2865(6) 0.2158(5) 0.4574(4)
C24_4 C 0.2600(5) 0.2589(5) 0.3552(4)
H8_4 H 0.3157 0.2486 0.3473
C25_4 C 0.2086(6) 0.2890(5) 0.3109(4)
C26_4 C 0.2420(5) 0.3061(6) 0.2503(4)
C27_4 C 0.1278(5) 0.2976(4) 0.3240(3)
H9_4 H 0.0926 0.3139 0.2939
O16_4 O 0.3629(4) 0.2063(3) 0.4463(3)
O18_4 O 0.1964(4) 0.3386(5) 0.2154(3)
O9_4 O 0.0001(4) 0.7744(4) 0.5471(3)
C2_4 C 0.6343(5) 0.0528(4) 0.2958(3)
C3_4 C 0.6933(5) 0.1026(5) 0.3193(3)
H1_4 H 0.7322 0.0829 0.3457
C4_4 C 0.6967(5) 0.1791(5) 0.3051(3)
C5_4 C 0.7538(5) 0.2322(6) 0.3347(4)
C6_4 C 0.6386(4) 0.2103(5) 0.2649(4)
H2_4 H 0.6409 0.2625 0.2550
C7_4 C 0.5781(5) 0.1630(5) 0.2402(4)
C8_4 C 0.5103(5) 0.1931(7) 0.1988(4)
C9_4 C 0.5754(5) 0.0830(5) 0.2556(4)
H3_4 H 0.5351 0.0509 0.2393
O3_4 O 0.7990(4) 0.2016(4) 0.3752(3)
O4_4 O 0.7528(4) 0.3020(4) 0.3274(3)
O6_4 O 0.4718(4) 0.1468(4) 0.1679(3)
O13_4 O 0.9555(3) 0.3271(4) 0.3520(3)
O14_4 O 0.9734(3) 0.2813(3) 0.4409(3)
O21_2 O 0.9045(4) 0.4330(3) 0.4778(3)
O22_2 O 0.8054(4) 0.4517(4) 0.4118(3)
C1_4 C 0.6278(5) 0.9714(5) 0.3105(4)
C10_4 C 0.7458(5) 0.7431(6) 0.4161(4)
C11_4 C 0.8039(5) 0.6934(5) 0.4456(3)
C12_4 C 0.8015(5) 0.6128(5) 0.4351(4)
H4_4 H 0.7606 0.5928 0.4103
C13_4 C 0.8572(5) 0.5635(5) 0.4602(4)
C14_4 C 0.8526(6) 0.4778(5) 0.4467(4)
C15_4 C 0.9191(5) 0.5917(5) 0.4982(4)
H5_3 H 0.9558 0.5582 0.5170
C16_3 C 0.9239(5) 0.6723(5) 0.5068(3)
C17_3 C 0.9920(5) 0.7021(6) 0.5486(4)
C18_4 C 0.8646(5) 0.7229(5) 0.4805(3)
H6_4 H 0.8675 0.7759 0.4872
O1_4 O 0.5682(4) 0.9296(4) 0.2937(3)
O2_4 O 0.6786(4) 0.9447(3) 0.3459(3)
O7_4 O 0.6769(3) 0.7136(3) 0.3944(2)
O8_4 O 0.7588(4) 0.8170(4) 0.4138(3)
H10_4 H 0.8038 0.8271 0.4290
H5_4 H 0.0442 0.0582 0.9830
C16_4 C 0.0761(5) 0.1723(5) 0.9932(3)
C17_4 C 0.0080(5) 0.2021(6) 0.9514(4)
loop_
_geom_bond_atom_site_label_1
_geom_bond_atom_site_label_2
_geom_bond_site_symmetry_1
_geom_bond_site_symmetry_2
O11 C14 1_555 1_555
O12 C14 1_555 1_555
Cd6 O11 1_555 1_555
O12 Cd6 1_555 1_555
Cd1 O1 1_555 1_555
Cd6 O3 1_555 1_555
C1 C2 1_555 1_555
C2 C3 1_555 1_555
C3 H1 1_555 1_555
C4 C3 1_555 1_555
C5 C4 1_555 1_555
C6 C4 1_555 1_555
H2 C6 1_555 1_555
C7 C6 1_555 1_555
C8 C7 1_555 1_555
C9 C2 1_555 1_555
H3 C9 1_555 1_555
C10 C11 1_555 1_555
C11 C12 1_555 1_555
C12 H4 1_555 1_555
C13 C12 1_555 1_555
C15 C13 1_555 1_555
H5 C15 1_555 1_555
C16 C15 1_555 1_555
C17 C16 1_555 1_555
C18 C11 1_555 1_555
H6 C18 1_555 1_555
C19 C20 1_555 1_555
C20 C21 1_555 1_555
C21 H7 1_555 1_555
C22 C21 1_555 1_555
C23 C22 1_555 1_555
C24 C22 1_555 1_555
H8 C24 1_555 1_555
C25 C24 1_555 1_555
C26 C25 1_555 1_555
C27 C20 1_555 1_555
H9 C27 1_555 1_555
O1 C1 1_555 1_555
O2 Cd1 1_555 1_555
O3 C5 1_555 1_555
O4 Cd6 1_555 1_555
O5 C8 1_555 1_555
O7 Cd1 1_555 1_555
O8 C10 1_555 1_555
H10 O8 1_555 1_555
O9 C17 1_555 1_555
O10 C17 1_555 1_555
O13 Cd6 1_555 1_555
O14 Cd6 1_555 1_555
O15 C23 1_555 1_555
O16 C23 1_555 1_555
O17 C26 1_555 1_555
O18 C26 1_555 1_555
Cd4 O17 1_555 1_555
Cd5 O10 1_555 1_555
Cd7 O15 1_555 1_555
O20 Cd1 1_555 1_555
O23 Cd6 1_555 1_555
O24 Cd1 1_555 1_555
C1 O2 1_555 1_555
C5 O4 1_555 1_555
C7 C9 1_555 1_555
C10 O7 1_555 1_555
C16 C18 1_555 1_555
C19 O13 1_555 1_555
C19 O14 1_555 1_555
C25 C27 1_555 1_555
Cd1_2 O1_2 1_555 1_555
Cd2 O3_2 1_555 1_555
C1_2 C2_2 1_555 1_555
C2_2 C3_2 1_555 1_555
C3_2 H1_2 1_555 1_555
C4_2 C3_2 1_555 1_555
C5_2 C4_2 1_555 1_555
C6_2 C4_2 1_555 1_555
H2_2 C6_2 1_555 1_555
C7_2 C6_2 1_555 1_555
C8_2 C7_2 1_555 1_555
C9_2 C2_2 1_555 1_555
H3_2 C9_2 1_555 1_555
C10_2 C11_2 1_555 1_555
C11_2 C12_2 1_555 1_555
C12_2 H4_2 1_555 1_555
C13_2 C12_2 1_555 1_555
C15_2 C13_2 1_555 1_555
C18_2 C11_2 1_555 1_555
H6_2 C18_2 1_555 1_555
O1_2 C1_2 1_555 1_555
O2_2 Cd1_2 1_555 1_555
O3_2 C5_2 1_555 1_555
O4_2 Cd2 1_555 1_555
O5_2 C8_2 1_555 1_555
O6_2 C8_2 1_555 1_555
O7_2 Cd1_2 1_555 1_555
O8_2 C10_2 1_555 1_555
H10_2 O8_2 1_555 1_555
O13_2 Cd2 1_555 1_555
O14_2 Cd2 1_555 1_555
Cd5 O5_2 1_555 1_555
O19_2 Cd1_2 1_555 1_555
O20_2 Cd1_2 1_555 1_555
O21 Cd2 1_555 1_555
O22 Cd2 1_555 1_555
O23_2 Cd2 1_555 1_555
O24_2 Cd1_2 1_555 1_555
C1_2 O2_2 1_555 1_555
C5_2 O4_2 1_555 1_555
C7_2 C9_2 1_555 1_555
C10_2 O7_2 1_555 1_555
O21 C14_2 1_555 1_555
O22 C14_2 1_555 1_555
C19_2 C20_2 1_555 1_555
C20_2 C21_2 1_555 1_555
C21_2 H7_2 1_555 1_555
C22_2 C21_2 1_555 1_555
C23_2 C22_2 1_555 1_555
C24_2 C22_2 1_555 1_555
H8_2 C24_2 1_555 1_555
C25_2 C24_2 1_555 1_555
C26_2 C25_2 1_555 1_555
C27_2 C20_2 1_555 1_555
H9_2 C27_2 1_555 1_555
O16_2 C23_2 1_555 1_555
O17_2 C26_2 1_555 1_555
O18_2 C26_2 1_555 1_555
Cd5 O17_2 1_555 1_555
C25_2 C27_2 1_555 1_555
Cd4 O10_2 1_555 1_555
Cd7_2 O15_2 1_555 1_555
C17_2 C16_2 1_555 1_555
O9_3 C17_2 1_555 1_555
O20_2 C17_2 1_555 1_555
Cd4 O1_3 1_555 1_555
C10_3 C11_3 1_555 1_555
C11_3 C12_3 1_555 1_555
C12_3 H4_3 1_555 1_555
C13_3 C12_3 1_555 1_555
C14_3 C13_3 1_555 1_555
C15_3 C13_3 1_555 1_555
C18_3 C11_3 1_555 1_555
H6_3 C18_3 1_555 1_555
O1_3 C1_3 1_555 1_555
O2_3 Cd4 1_555 1_555
O7_3 Cd4 1_555 1_555
O8_3 C10_3 1_555 1_555
H10_3 O8_3 1_555 1_555
O11_2 C14_3 1_555 1_555
O12_2 C14_3 1_555 1_555
Cd7_2 O11_2 1_555 1_555
C1_3 O2_3 1_555 1_555
C10_3 O7_3 1_555 1_555
O12_2 Cd7_2 1_555 1_555
Cd7_2 O3_3 1_555 1_555
C2_3 C3_3 1_555 1_555
C3_3 H1_3 1_555 1_555
C4_3 C3_3 1_555 1_555
C5_3 C4_3 1_555 1_555
C6_3 C4_3 1_555 1_555
H2_3 C6_3 1_555 1_555
C7_3 C6_3 1_555 1_555
C8_3 C7_3 1_555 1_555
C9_3 C2_3 1_555 1_555
H3_3 C9_3 1_555 1_555
C19_3 C20_3 1_555 1_555
C20_3 C21_3 1_555 1_555
C21_3 H7_3 1_555 1_555
C22_3 C21_3 1_555 1_555
C23_3 C22_3 1_555 1_555
C24_3 C22_3 1_555 1_555
H8_3 C24_3 1_555 1_555
C25_3 C24_3 1_555 1_555
C26_3 C25_3 1_555 1_555
C27_3 C20_3 1_555 1_555
H9_3 C27_3 1_555 1_555
O3_3 C5_3 1_555 1_555
O4_3 Cd7_2 1_555 1_555
O19 C8_3 1_555 1_555
O13_3 Cd7_2 1_555 1_555
O14_3 Cd7_2 1_555 1_555
O16_3 C23_3 1_555 1_555
O24 C26_3 1_555 1_555
O18_3 C26_3 1_555 1_555
C5_3 O4_3 1_555 1_555
C7_3 C9_3 1_555 1_555
C19_3 O13_3 1_555 1_555
C19_3 O14_3 1_555 1_555
C25_3 C27_3 1_555 1_555
C19_4 C20_4 1_555 1_555
C20_4 C21_4 1_555 1_555
C21_4 H7_4 1_555 1_555
C22_4 C21_4 1_555 1_555
C23_4 C22_4 1_555 1_555
C24_4 C22_4 1_555 1_555
H8_4 C24_4 1_555 1_555
C25_4 C24_4 1_555 1_555
C26_4 C25_4 1_555 1_555
C27_4 C20_4 1_555 1_555
H9_4 C27_4 1_555 1_555
O23 C23_4 1_555 1_555
O16_4 C23_4 1_555 1_555
O24_2 C26_4 1_555 1_555
O18_4 C26_4 1_555 1_555
C25_4 C27_4 1_555 1_555
Cd7 O3_4 1_555 1_555
C2_4 C3_4 1_555 1_555
C3_4 H1_4 1_555 1_555
C4_4 C3_4 1_555 1_555
C5_4 C4_4 1_555 1_555
C6_4 C4_4 1_555 1_555
H2_4 C6_4 1_555 1_555
C7_4 C6_4 1_555 1_555
C8_4 C7_4 1_555 1_555
C9_4 C2_4 1_555 1_555
H3_4 C9_4 1_555 1_555
O3_4 C5_4 1_555 1_555
O4_4 Cd7 1_555 1_555
O19_2 C8_4 1_555 1_555
O6_4 C8_4 1_555 1_555
O13_4 Cd7 1_555 1_555
O14_4 Cd7 1_555 1_555
O21_2 Cd7 1_555 1_555
O22_2 Cd7 1_555 1_555
C5_4 O4_4 1_555 1_555
C7_4 C9_4 1_555 1_555
Cd5 O1_4 1_555 1_555
C10_4 C11_4 1_555 1_555
C11_4 C12_4 1_555 1_555
C12_4 H4_4 1_555 1_555
C13_4 C12_4 1_555 1_555
C14_4 C13_4 1_555 1_555
C15_4 C13_4 1_555 1_555
H5_3 C15_4 1_555 1_555
C16_3 C15_4 1_555 1_555
C17_3 C16_3 1_555 1_555
C18_4 C11_4 1_555 1_555
H6_4 C18_4 1_555 1_555
O1_4 C1_4 1_555 1_555
O2_4 Cd5 1_555 1_555
O7_4 Cd5 1_555 1_555
O8_4 C10_4 1_555 1_555
H10_4 O8_4 1_555 1_555
O21_2 C14_4 1_555 1_555
O22_2 C14_4 1_555 1_555
C1_4 O2_4 1_555 1_555
C10_4 O7_4 1_555 1_555
C16_3 C18_4 1_555 1_555
C17_4 C16_4 1_555 1_555

#END
