
###############################################################################
#
# This file contains modified crystal structure data generated from the
# MOF subset of the Cambridge Structural Database (CSD) v543 
# hosted by the Cambridge Crystallographic Data Centre (CCDC).
#
# This work is licensed under the Creative Commons
# Attribution-NonCommercial-ShareAlike 4.0 International License.
# To view a copy of this license, visit
# http://creativecommons.org/licenses/by-nc-sa/4.0/
# or send a letter to
# Creative Commons, PO Box 1866, Mountain View, CA 94042, USA.
#
# CIF created using the CSD Python API on 29 September 2022
# The structure has been converted into the P1 space group
# The structure has a 3D framework
# The original CSD entry JEJJUH is in the triclinic crystal system
# The framework has been calculated to contain at least 10.0% void space
# The void calculation uses a probe of radius 1.32A, grid spacing 0.4
#
###############################################################################

data_JEJJUH
_chemical_formula_moiety         '(C98 H70 Cd5 N14 O14)n'
_symmetry_cell_setting           triclinic
_symmetry_space_group_name_H-M   'P 1'
_symmetry_Int_Tables_number      1
_space_group_name_Hall           'P 1'
loop_
_symmetry_equiv_pos_site_id
_symmetry_equiv_pos_as_xyz
1 x,y,z
_cell_length_a                   13.6822(13)
_cell_length_b                   14.7830(15)
_cell_length_c                   16.3754(17)
_cell_angle_alpha                99.582(3)
_cell_angle_beta                 107.308(2)
_cell_angle_gamma                116.289(2)
_cell_volume                     2657.48
loop_
_atom_site_label
_atom_site_type_symbol
_atom_site_fract_x
_atom_site_fract_y
_atom_site_fract_z
O5 O 0.5081(7) 0.7967(6) 0.7144(7)
O6 O 0.4435(8) 0.6630(7) 0.5917(7)
C33 C -0.0000(9) 0.3562(8) 0.7429(8)
H24 H 0.083345 0.399148 0.772007
H27 H 0.002780 0.637449 0.612940
C42 C 0.4299(10) 0.7032(9) 0.6562(10)
C43 C 0.3174(9) 0.6449(7) 0.6724(8)
C44 C 0.3084(9) 0.6877(8) 0.7472(8)
H30 H 0.374638 0.750946 0.792650
C45 C 0.2022(9) 0.6391(8) 0.7576(8)
H31 H 0.196993 0.670388 0.809087
C46 C 0.1042(8) 0.5445(7) 0.6915(8)
C47 C 0.1152(10) 0.4977(9) 0.6169(9)
H32 H 0.050822 0.432010 0.573384
C48 C 0.2209(10) 0.5476(8) 0.6065(8)
H33 H 0.227386 0.516310 0.555741
Cd6 Cd 0.64247(6) 0.85209(5) 0.65531(5)
O1 O 0.6490(6) 0.0289(5) 0.6878(5)
O2 O 0.8164(6) 0.0269(5) 0.7112(4)
O3 O 0.7362(7) 0.7703(6) 0.7372(5)
O4 O 0.7608(7) 0.7859(6) 0.6149(5)
N7 N 0.9930(7) 0.5020(6) 0.6980(7)
C28 C 0.7570(9) 0.0740(7) 0.7011(6)
C29 C 0.8197(8) 0.1873(7) 0.7022(7)
C30 C 0.7535(9) 0.2271(8) 0.6578(8)
H22 H 0.670084 0.184659 0.630856
C31 C 0.8095(8) 0.3295(7) 0.6529(8)
H23 H 0.764309 0.353162 0.618963
C32 C 0.9342(9) 0.3964(7) 0.6993(8)
C33_2 C 1.0000(9) 0.3562(8) 0.7429(8)
C34 C 0.9425(9) 0.2519(7) 0.7437(7)
H25 H 0.988002 0.225560 0.772698
C35 C 0.7737(9) 0.7530(8) 0.6814(8)
C36 C 0.8351(8) 0.6908(7) 0.6886(6)
C37 C 0.9045(8) 0.6944(7) 0.6411(7)
H26 H 0.916274 0.738811 0.606427
C38 C 0.9557(10) 0.6332(8) 0.6447(7)
C39 C 0.9388(8) 0.5644(7) 0.6951(7)
C40 C 0.8742(10) 0.5640(9) 0.7461(8)
H28 H 0.865595 0.522530 0.783297
C41 C 0.8218(10) 0.6267(8) 0.7411(8)
H29 H 0.776670 0.624871 0.774211
N1 N 0.5810(7) 0.8467(6) 0.5081(6)
N2 N 0.5245(7) 0.7886(6) 0.3591(5)
C1 C 0.5422(10) 0.7644(8) 0.4356(7)
H1 H 0.528774 0.697476 0.437346
C2 C 0.5910(10) 0.9285(8) 0.4772(7)
H2 H 0.617526 0.997460 0.513433
C3 C 0.5572(9) 0.8956(8) 0.3867(7)
H3 H 0.555960 0.936672 0.349603
C4 C 0.4837(8) 0.7205(7) 0.2698(7)
C5 C 0.5072(14) 0.7646(9) 0.2056(8)
H4 H 0.547286 0.838847 0.220059
C6 C 0.4707(14) 0.6973(9) 0.1186(8)
H5 H 0.487838 0.728478 0.075992
C7 C 0.4107(8) 0.5875(7) 0.0925(6)
C8 C 0.3922(11) 0.5481(8) 0.1590(8)
H6 H 0.353573 0.473916 0.144967
C9 C 0.4277(12) 0.6120(9) 0.2467(7)
H7 H 0.413083 0.580521 0.289778
H11 H 0.318694 0.377744 0.023482
N8 N 0.8966(7) 0.0766(6) 0.4326(5)
N9 N 0.7673(7) 0.0845(6) 0.3189(5)
C49 C 0.8369(9) 0.0435(8) 0.3439(6)
C50 C 0.8624(10) 0.1425(8) 0.4661(7)
H37 H 0.889070 0.178138 0.527842
C51 C 0.7845(9) 0.1493(8) 0.3977(7)
H38 H 0.749614 0.190182 0.403302
C52 C 0.6900(9) 0.0607(8) 0.2277(7)
C53 C 0.7237(11) 0.0489(13) 0.1595(8)
H39 H 0.799020 0.057515 0.173446
C54 C 0.6513(12) 0.0244(14) 0.0683(8)
H40 H 0.677287 0.016094 0.022726
C55 C 0.5401(9) 0.0131(8) 0.0481(7)
C56 C 0.5055(10) 0.0234(8) 0.1181(7)
H41 H 0.430113 0.014291 0.105360
C57 C 0.5780(9) 0.0464(7) 0.2046(7)
H42 H 0.551323 0.052707 0.250024
Cd4 Cd 1.000000 0.000000 0.500000
Cd4_2 Cd -0.000000 0.000000 0.500000
N3 N 0.2498(7) 0.3141(6) 0.7320(5)
N4 N 0.1438(6) 0.1690(6) 0.6065(5)
C10 C 0.3705(8) 0.5167(7) 0.9995(6)
C11 C 0.3781(10) 0.5583(8) 0.9286(7)
H8 H 0.410539 0.631729 0.940566
C12 C 0.3379(10) 0.4909(8) 0.8421(7)
H9 H 0.341391 0.519525 0.795871
C13 C 0.2926(8) 0.3822(7) 0.8219(6)
C14 C 0.2849(9) 0.3403(8) 0.8897(7)
H10 H 0.253517 0.266858 0.877003
C15 C 0.3241(10) 0.4075(9) 0.9780(7)
C16 C 0.1658(8) 0.2087(7) 0.6921(6)
H12 H 0.126927 0.167850 0.722364
C17 C 0.2851(9) 0.3448(8) 0.6650(7)
H13 H 0.341911 0.413218 0.670678
C18 C 0.2200(9) 0.2546(8) 0.5896(7)
H14 H 0.226045 0.251281 0.534219
H15 H 0.157840 0.003571 0.697425
O7 O 0.0885(7) 0.0286(6) 0.3985(5)
H34 H 0.143608 0.007585 0.407852
H35 H 0.136673 0.100562 0.407569
Cd4_3 Cd -0.000000 1.000000 0.500000
N5 N 0.1034(7) 0.9234(6) 0.5674(5)
N6 N 0.2327(7) 0.9155(6) 0.6811(5)
C19 C 0.1631(9) 0.9565(8) 0.6561(6)
C20 C 0.1376(10) 0.8575(8) 0.5339(7)
H16 H 0.110930 0.821862 0.472158
C21 C 0.2155(9) 0.8507(8) 0.6023(7)
H17 H 0.250386 0.809818 0.596698
C22 C 0.3100(9) 0.9393(8) 0.7723(7)
C23 C 0.2763(11) 0.9511(13) 0.8405(8)
H18 H 0.200980 0.942485 0.826554
C24 C 0.3487(12) 0.9756(14) 0.9317(8)
H19 H 0.322713 0.983906 0.977274
C25 C 0.4599(9) 0.9869(8) 0.9519(7)
C26 C 0.4945(10) 0.9766(8) 0.8819(7)
H20 H 0.569887 0.985709 0.894640
C27 C 0.4220(9) 0.9536(7) 0.7954(7)
H21 H 0.448677 0.947293 0.749976
Cd3 Cd 0.35753(6) 0.14791(5) 0.34469(5)
N10 N 0.4190(7) 0.1533(6) 0.4919(6)
N11 N 0.4755(7) 0.2114(6) 0.6409(5)
C58 C 0.4578(10) 0.2356(8) 0.5644(7)
H43 H 0.471226 0.302524 0.562654
C59 C 0.4090(10) 0.0715(8) 0.5228(7)
H44 H 0.382474 0.002540 0.486567
C60 C 0.4428(9) 0.1044(8) 0.6133(7)
H45 H 0.444040 0.063328 0.650397
C61 C 0.5163(8) 0.2795(7) 0.7302(7)
C62 C 0.4928(14) 0.2354(9) 0.7944(8)
H46 H 0.452714 0.161153 0.779941
C63 C 0.5293(14) 0.3027(9) 0.8814(8)
H47 H 0.512162 0.271522 0.924008
C64 C 0.5893(8) 0.4125(7) 0.9075(6)
C65 C 0.6078(11) 0.4519(8) 0.8410(8)
H48 H 0.646427 0.526084 0.855033
C66 C 0.5723(12) 0.3880(9) 0.7533(7)
H49 H 0.586917 0.419479 0.710222
H53 H 0.681306 0.622256 0.976518
O16 O 0.2638(7) 0.2297(6) 0.2628(5)
O18 O 0.2392(7) 0.2141(6) 0.3851(5)
O20 O 0.4919(7) 0.2033(6) 0.2856(7)
O22 O 0.5565(8) 0.3370(7) 0.4083(7)
O8 O 0.3510(6) 0.9711(5) 0.3122(5)
O9 O 0.1836(6) 0.9731(5) 0.2888(4)
N14 N 0.0070(7) 0.4980(6) 0.3020(7)
C76 C 0.2430(9) 0.9260(7) 0.2989(6)
C77 C 0.1803(8) 0.8127(7) 0.2978(7)
C78 C 0.2465(9) 0.7729(8) 0.3422(8)
H57 H 0.329916 0.815341 0.369144
C79 C 0.1905(8) 0.6705(7) 0.3471(8)
H58 H 0.235691 0.646838 0.381037
C80 C 0.0658(9) 0.6036(7) 0.3007(8)
C81 C 0.0000(9) 0.6438(8) 0.2571(8)
C82 C 0.0575(9) 0.7481(7) 0.2563(7)
H60 H 0.011998 0.774440 0.227302
C83 C 0.2263(9) 0.2470(8) 0.3186(8)
C84 C 0.1649(8) 0.3092(7) 0.3114(6)
C85 C 0.0955(8) 0.3056(7) 0.3589(7)
H61 H 0.083726 0.261189 0.393573
C86 C 0.0443(10) 0.3668(8) 0.3553(7)
C87 C 0.0612(8) 0.4356(7) 0.3049(7)
C88 C 0.1258(10) 0.4360(9) 0.2539(8)
H63 H 0.134405 0.477470 0.216703
C89 C 0.1782(10) 0.3733(8) 0.2589(8)
H64 H 0.223330 0.375129 0.225789
C81_2 C 1.0000(9) 0.6438(8) 0.2571(8)
H59 H 0.916655 0.600852 0.227993
H62 H 0.997220 0.362551 0.387060
C90 C 0.5701(10) 0.2968(9) 0.3438(10)
C91 C 0.6826(9) 0.3551(7) 0.3276(8)
C92 C 0.6916(9) 0.3123(8) 0.2528(8)
H65 H 0.625362 0.249054 0.207350
C93 C 0.7978(9) 0.3609(8) 0.2424(8)
H66 H 0.803007 0.329612 0.190913
C94 C 0.8958(8) 0.4555(7) 0.3085(8)
C95 C 0.8848(10) 0.5023(9) 0.3831(9)
H67 H 0.949178 0.567990 0.426616
C96 C 0.7791(10) 0.4524(8) 0.3935(8)
H68 H 0.772614 0.483690 0.444259
H36 H 0.842160 0.996429 0.302575
Cd4_4 Cd 1.000000 1.000000 0.500000
N12 N 0.7502(7) 0.6859(6) 0.2680(5)
N13 N 0.8562(6) 0.8310(6) 0.3935(5)
C67 C 0.6295(8) 0.4833(7) 0.0005(6)
C68 C 0.6219(10) 0.4417(8) 0.0714(7)
H50 H 0.589461 0.368271 0.059434
C69 C 0.6621(10) 0.5091(8) 0.1579(7)
H51 H 0.658609 0.480475 0.204129
C70 C 0.7074(8) 0.6178(7) 0.1781(6)
C71 C 0.7151(9) 0.6597(8) 0.1103(7)
H52 H 0.746483 0.733142 0.122997
C72 C 0.6759(10) 0.5925(9) 0.0220(7)
C73 C 0.8342(8) 0.7913(7) 0.3079(6)
H54 H 0.873073 0.832150 0.277636
C74 C 0.7149(9) 0.6552(8) 0.3350(7)
H55 H 0.658089 0.586782 0.329322
C75 C 0.7800(9) 0.7454(8) 0.4104(7)
H56 H 0.773955 0.748719 0.465781
O14 O 0.9115(7) 0.9714(6) 0.6015(5)
H69 H 0.856392 0.992415 0.592148
H70 H 0.863327 0.899438 0.592431
loop_
_geom_bond_atom_site_label_1
_geom_bond_atom_site_label_2
_geom_bond_site_symmetry_1
_geom_bond_site_symmetry_2
O5 C42 1_555 1_555
O6 C42 1_555 1_555
H24 C33 1_555 1_555
C42 C43 1_555 1_555
C43 C44 1_555 1_555
C44 H30 1_555 1_555
C45 C44 1_555 1_555
H31 C45 1_555 1_555
C47 C46 1_555 1_555
H32 C47 1_555 1_555
C48 C43 1_555 1_555
H33 C48 1_555 1_555
Cd6 O5 1_555 1_555
O6 Cd6 1_555 1_555
C45 C46 1_555 1_555
C47 C48 1_555 1_555
O1 C28 1_555 1_555
O3 C35 1_555 1_555
O4 C35 1_555 1_555
N7 C32 1_555 1_555
C28 O2 1_555 1_555
C29 C28 1_555 1_555
C30 C29 1_555 1_555
H22 C30 1_555 1_555
C31 C30 1_555 1_555
H23 C31 1_555 1_555
C32 C31 1_555 1_555
C33_2 C32 1_555 1_555
C34 C29 1_555 1_555
H25 C34 1_555 1_555
C35 C36 1_555 1_555
C36 C37 1_555 1_555
C37 H26 1_555 1_555
C38 C37 1_555 1_555
C39 N7 1_555 1_555
C40 C39 1_555 1_555
H28 C40 1_555 1_555
C41 C36 1_555 1_555
H29 C41 1_555 1_555
Cd6 O3 1_555 1_555
O4 Cd6 1_555 1_555
C33_2 C34 1_555 1_555
C38 C39 1_555 1_555
C40 C41 1_555 1_555
N1 Cd6 1_555 1_555
N2 C1 1_555 1_555
C1 N1 1_555 1_555
H1 C1 1_555 1_555
C2 N1 1_555 1_555
H2 C2 1_555 1_555
C3 N2 1_555 1_555
H3 C3 1_555 1_555
C4 N2 1_555 1_555
C5 C4 1_555 1_555
H4 C5 1_555 1_555
C6 C5 1_555 1_555
H5 C6 1_555 1_555
C7 C6 1_555 1_555
C8 C7 1_555 1_555
H6 C8 1_555 1_555
C9 C4 1_555 1_555
H7 C9 1_555 1_555
N8 C49 1_555 1_555
N9 C49 1_555 1_555
C50 N8 1_555 1_555
H37 C50 1_555 1_555
C51 N9 1_555 1_555
H38 C51 1_555 1_555
C52 N9 1_555 1_555
C53 C52 1_555 1_555
H39 C53 1_555 1_555
C54 C53 1_555 1_555
H40 C54 1_555 1_555
C56 C55 1_555 1_555
H41 C56 1_555 1_555
C57 C52 1_555 1_555
H42 C57 1_555 1_555
Cd4 N8 1_555 1_555
C2 C3 1_555 1_555
C8 C9 1_555 1_555
C50 C51 1_555 1_555
C54 C55 1_555 1_555
C56 C57 1_555 1_555
Cd4_2 N4 1_555 1_555
N3 C13 1_555 1_555
N4 C16 1_555 1_555
C11 C10 1_555 1_555
H8 C11 1_555 1_555
C12 C11 1_555 1_555
H9 C12 1_555 1_555
C13 C12 1_555 1_555
C14 C13 1_555 1_555
H10 C14 1_555 1_555
C15 C10 1_555 1_555
C16 N3 1_555 1_555
H12 C16 1_555 1_555
C17 N3 1_555 1_555
H13 C17 1_555 1_555
C18 N4 1_555 1_555
H14 C18 1_555 1_555
O7 Cd4_2 1_555 1_555
H34 O7 1_555 1_555
H35 O7 1_555 1_555
C14 C15 1_555 1_555
C17 C18 1_555 1_555
N5 Cd4_3 1_555 1_555
N6 C19 1_555 1_555
C19 N5 1_555 1_555
C20 N5 1_555 1_555
H16 C20 1_555 1_555
C21 N6 1_555 1_555
H17 C21 1_555 1_555
C22 N6 1_555 1_555
C23 C22 1_555 1_555
H18 C23 1_555 1_555
C24 C23 1_555 1_555
H19 C24 1_555 1_555
C25 C24 1_555 1_555
C26 C25 1_555 1_555
H20 C26 1_555 1_555
C27 C22 1_555 1_555
H21 C27 1_555 1_555
C20 C21 1_555 1_555
C26 C27 1_555 1_555
N10 Cd3 1_555 1_555
N11 C58 1_555 1_555
C58 N10 1_555 1_555
H43 C58 1_555 1_555
C59 N10 1_555 1_555
H44 C59 1_555 1_555
C60 N11 1_555 1_555
H45 C60 1_555 1_555
C61 N11 1_555 1_555
C62 C61 1_555 1_555
H46 C62 1_555 1_555
C63 C62 1_555 1_555
H47 C63 1_555 1_555
C64 C63 1_555 1_555
C65 C64 1_555 1_555
H48 C65 1_555 1_555
C66 C61 1_555 1_555
H49 C66 1_555 1_555
O16 Cd3 1_555 1_555
O18 Cd3 1_555 1_555
O20 Cd3 1_555 1_555
O22 Cd3 1_555 1_555
C59 C60 1_555 1_555
C65 C66 1_555 1_555
O8 C76 1_555 1_555
O16 C83 1_555 1_555
O18 C83 1_555 1_555
N14 C80 1_555 1_555
C76 O9 1_555 1_555
C77 C76 1_555 1_555
C78 C77 1_555 1_555
H57 C78 1_555 1_555
C79 C78 1_555 1_555
H58 C79 1_555 1_555
C80 C79 1_555 1_555
C81 C80 1_555 1_555
C82 C77 1_555 1_555
H60 C82 1_555 1_555
C83 C84 1_555 1_555
C84 C85 1_555 1_555
C85 H61 1_555 1_555
C86 C85 1_555 1_555
C87 N14 1_555 1_555
C88 C87 1_555 1_555
H63 C88 1_555 1_555
C89 C84 1_555 1_555
H64 C89 1_555 1_555
C81 C82 1_555 1_555
C86 C87 1_555 1_555
C88 C89 1_555 1_555
O20 C90 1_555 1_555
O22 C90 1_555 1_555
H59 C81_2 1_555 1_555
C90 C91 1_555 1_555
C91 C92 1_555 1_555
C92 H65 1_555 1_555
C93 C92 1_555 1_555
H66 C93 1_555 1_555
C95 C94 1_555 1_555
H67 C95 1_555 1_555
C96 C91 1_555 1_555
H68 C96 1_555 1_555
C93 C94 1_555 1_555
C95 C96 1_555 1_555
N12 C70 1_555 1_555
N13 Cd4_4 1_555 1_555
C68 C67 1_555 1_555
H50 C68 1_555 1_555
C69 C68 1_555 1_555
H51 C69 1_555 1_555
C70 C69 1_555 1_555
C71 C70 1_555 1_555
H52 C71 1_555 1_555
C72 C67 1_555 1_555
C73 N12 1_555 1_555
H54 C73 1_555 1_555
C74 N12 1_555 1_555
H55 C74 1_555 1_555
C75 N13 1_555 1_555
H56 C75 1_555 1_555
O14 Cd4_4 1_555 1_555
H69 O14 1_555 1_555
H70 O14 1_555 1_555
N13 C73 1_555 1_555
C71 C72 1_555 1_555
C74 C75 1_555 1_555

#END
