
###############################################################################
#
# This file contains modified crystal structure data generated from the
# MOF subset of the Cambridge Structural Database (CSD) v543 
# hosted by the Cambridge Crystallographic Data Centre (CCDC).
#
# This work is licensed under the Creative Commons
# Attribution-NonCommercial-ShareAlike 4.0 International License.
# To view a copy of this license, visit
# http://creativecommons.org/licenses/by-nc-sa/4.0/
# or send a letter to
# Creative Commons, PO Box 1866, Mountain View, CA 94042, USA.
#
# CIF created using the CSD Python API on 29 September 2022
# The structure has been converted into the P1 space group
# The structure has a 3D framework
# The original CSD entry JEJYUV is in the orthorhombic crystal system
# The framework has been calculated to contain at least 10.0% void space
# The void calculation uses a probe of radius 1.32A, grid spacing 0.4
#
###############################################################################

data_JEJYUV
_chemical_formula_moiety         '(C92 H64 Co2 O29)n'
_symmetry_cell_setting           triclinic
_symmetry_space_group_name_H-M   'P 1'
_symmetry_Int_Tables_number      1
_space_group_name_Hall           'P 1'
loop_
_symmetry_equiv_pos_site_id
_symmetry_equiv_pos_as_xyz
1 x,y,z
_cell_length_a                   18.797(5)
_cell_length_b                   23.811(5)
_cell_length_c                   4.624(5)
_cell_angle_alpha                90
_cell_angle_beta                 90
_cell_angle_gamma                90
_cell_volume                     2069.59
loop_
_atom_site_label
_atom_site_type_symbol
_atom_site_fract_x
_atom_site_fract_y
_atom_site_fract_z
Co1 Co 0.05244(5) 0.04213(4) 0.0454(3)
O4 O 0.3904(3) 0.4922(2) 0.2878(13)
C13 C 0.2778(5) 0.4274(4) 0.1190(18)
H9 H 0.2691 0.4542 0.2611
C14 C 0.2276(4) 0.3861(3) 0.058(3)
H10 H 0.1847 0.3856 0.1580
C15 C 0.3977(3) 0.4698(3) 0.048(3)
Co4 Co 0.44756(5) 0.54213(4) 0.5454(3)
Co6 Co 0.55244(5) 0.45787(4) 0.0454(3)
O9 O 0.0080(3) 0.0979(2) 0.3303(14)
O13 O 0.1561(3) 0.0647(2) 0.2142(13)
O1 O 0.0628(3) 0.1138(2) 0.7507(13)
O3 O 0.1306(3) 0.3222(2) 0.6235(15)
O5 O 0.4519(3) 0.4772(2) 0.8783(12)
C1 C 0.0340(4) 0.1301(3) 0.517(2)
C2 C 0.0326(4) 0.1921(3) 0.4540(17)
C3 C 0.0821(4) 0.2280(3) 0.586(2)
H2 H 0.1145 0.2139 0.7195
C4 C 0.0823(4) 0.2841(3) 0.517(3)
C5 C 0.0324(4) 0.3060(4) 0.322(2)
H3 H 0.0325 0.3441 0.2778
C8 C 0.1872(4) 0.2993(4) 0.794(2)
H5 H 0.2093 0.2682 0.6929
H6 H 0.1687 0.2855 0.9769
C9 C 0.2412(4) 0.3452(3) 0.847(2)
C10 C 0.3037(5) 0.3477(4) 0.693(2)
H7 H 0.3123 0.3216 0.5472
C11 C 0.3548(4) 0.3893(3) 0.752(2)
H8 H 0.3972 0.3906 0.6481
C12 C 0.3413(4) 0.4279(3) 0.9629(19)
O11 O 0.0481(3) 0.9772(2) 0.3783(12)
O10 O 0.1096(3) 0.9922(2) 0.7878(13)
O6 O 0.9319(3) 0.2880(2) 0.0052(18)
C6 C 0.9832(4) 0.2708(3) 0.196(2)
C7 C 0.9844(4) 0.2135(3) 0.260(2)
H4 H 0.9521 0.1895 0.1705
H12 H 0.9210 0.3670 0.1274
O12 O 0.9519(3) 0.0228(2) 0.8783(12)
O7 O 0.6674(3) 0.3480(2) 0.0487(19)
O8 O 0.6561(3) 0.4353(2) 0.2142(13)
C16 C 0.9278(4) 0.3465(3) 0.9482(18)
H11 H 0.9717 0.3593 0.8594
C17 C 0.8658(5) 0.3568(4) 0.747(2)
C18 C 0.8364(5) 0.4095(4) 0.742(2)
H13 H 0.8556 0.4380 0.8550
C19 C 0.7776(5) 0.4202(3) 0.566(3)
H14 H 0.7567 0.4556 0.5659
C20 C 0.7504(4) 0.3779(3) 0.393(2)
C21 C 0.7798(4) 0.3249(4) 0.399(2)
H15 H 0.7622 0.2965 0.2805
C22 C 0.8364(4) 0.3149(3) 0.586(2)
H16 H 0.8545 0.2787 0.6014
C23 C 0.6866(4) 0.3903(4) 0.2128(18)
O7_2 O 0.3326(3) 0.6520(2) 0.5487(19)
H1 H 0.3665 0.6425 0.4485
O8_2 O 0.3439(3) 0.5647(2) 0.7142(13)
C20_2 C 0.2496(4) 0.6221(3) 0.893(2)
C21_2 C 0.2202(4) 0.6751(4) 0.899(2)
H15_2 H 0.2378 0.7035 0.7805
C23_2 C 0.3134(4) 0.6097(4) 0.7128(18)
O10_2 O 0.8904(3) 0.0078(2) 0.2878(13)
Co1_2 Co 0.94756(5) 0.95787(4) 0.5454(3)
O1_2 O 0.9372(3) 0.8862(2) 0.2507(13)
O3_2 O 0.8694(3) 0.6778(2) 0.1235(15)
O4_2 O 0.6096(3) 0.5078(2) 0.7878(13)
O5_2 O 0.5481(3) 0.5228(2) 0.3783(12)
C1_2 C 0.9660(4) 0.8699(3) 0.017(2)
C3_2 C 0.9179(4) 0.7720(3) 0.086(2)
H2_2 H 0.8855 0.7861 0.2195
C4_2 C 0.9177(4) 0.7159(3) 0.017(3)
C8_2 C 0.8128(4) 0.7007(4) 0.294(2)
H5_2 H 0.7907 0.7318 0.1929
H6_2 H 0.8313 0.7145 0.4769
C9_2 C 0.7588(4) 0.6548(3) 0.347(2)
C10_2 C 0.6963(5) 0.6523(4) 0.193(2)
H7_2 H 0.6877 0.6784 0.0472
C11_2 C 0.6452(4) 0.6107(3) 0.252(2)
H8_2 H 0.6028 0.6094 0.1481
C12_2 C 0.6587(4) 0.5721(3) 0.4629(19)
C13_2 C 0.7222(5) 0.5726(4) 0.6190(18)
H9_2 H 0.7309 0.5458 0.7611
C14_2 C 0.7724(4) 0.6139(3) 0.558(3)
H10_2 H 0.8153 0.6144 0.6580
C15_2 C 0.6023(3) 0.5302(3) 0.548(3)
O9_2 O 0.9920(3) 0.9021(2) 0.8303(14)
O13_2 O 0.8439(3) 0.9353(2) 0.7142(13)
C2_2 C 0.9674(4) 0.8079(3) 0.9540(17)
C5_2 C 0.9676(4) 0.6940(4) 0.822(2)
H3_2 H 0.9675 0.6559 0.7778
O1_3 O 0.4372(3) 0.6138(2) 0.2507(13)
O3_3 O 0.3694(3) 0.8222(2) 0.1235(15)
C1_3 C 0.4660(4) 0.6301(3) 0.017(2)
C3_3 C 0.4179(4) 0.7280(3) 0.086(2)
H2_3 H 0.3855 0.7139 0.2195
C4_3 C 0.4177(4) 0.7841(3) 0.017(3)
C8_3 C 0.3128(4) 0.7993(4) 0.294(2)
H5_3 H 0.2907 0.7682 0.1929
H6_3 H 0.3313 0.7855 0.4769
C9_3 C 0.2588(4) 0.8452(3) 0.347(2)
C10_3 C 0.1963(5) 0.8477(4) 0.193(2)
H7_3 H 0.1877 0.8216 0.0472
C11_3 C 0.1452(4) 0.8893(3) 0.252(2)
H8_3 H 0.1028 0.8906 0.1481
C12_3 C 0.1587(4) 0.9279(3) 0.4629(19)
C13_3 C 0.2222(5) 0.9274(4) 0.6190(18)
H9_3 H 0.2309 0.9542 0.7611
C14_3 C 0.2724(4) 0.8861(3) 0.558(3)
H10_3 H 0.3153 0.8856 0.6580
C15_3 C 0.1023(3) 0.9698(3) 0.548(3)
O9_3 O 0.4920(3) 0.5979(2) 0.8303(14)
O6_2 O 0.5681(3) 0.7880(2) 0.5052(18)
C2_3 C 0.4674(4) 0.6921(3) 0.9540(17)
C5_3 C 0.4676(4) 0.8060(4) 0.822(2)
H3_3 H 0.4675 0.8441 0.7778
C6_2 C 0.5168(4) 0.7708(3) 0.696(2)
C7_2 C 0.5156(4) 0.7135(3) 0.760(2)
H4_2 H 0.5479 0.6895 0.6705
C16_2 C 0.5722(4) 0.8465(3) 0.4482(18)
H11_2 H 0.5283 0.8593 0.3594
H12_2 H 0.5790 0.8670 0.6274
C17_2 C 0.6342(5) 0.8568(4) 0.247(2)
C18_2 C 0.6636(5) 0.9095(4) 0.242(2)
H13_2 H 0.6444 0.9380 0.3550
C19_2 C 0.7224(5) 0.9202(3) 0.066(3)
H14_2 H 0.7433 0.9556 0.0659
C22_2 C 0.6636(4) 0.8149(3) 0.086(2)
H16_2 H 0.6455 0.7787 0.1014
O7_3 O 0.8326(3) 0.8480(2) 0.5487(19)
H1_2 H 0.8665 0.8575 0.4485
C20_3 C 0.7496(4) 0.8779(3) 0.893(2)
C21_3 C 0.7202(4) 0.8249(4) 0.899(2)
H15_3 H 0.7378 0.7965 0.7805
C23_3 C 0.8134(4) 0.8903(4) 0.7128(18)
C13_4 C 0.7778(5) 0.0726(4) 0.1190(18)
H9_4 H 0.7691 0.0458 0.2611
C14_4 C 0.7276(4) 0.1139(3) 0.058(3)
H10_4 H 0.6847 0.1144 0.1580
C15_4 C 0.8977(3) 0.0302(3) 0.048(3)
O9_4 O 0.5080(3) 0.4021(2) 0.3303(14)
O1_4 O 0.5628(3) 0.3862(2) 0.7507(13)
O3_4 O 0.6306(3) 0.1778(2) 0.6235(15)
O6_3 O 0.4319(3) 0.2120(2) 0.0052(18)
C1_4 C 0.5340(4) 0.3699(3) 0.517(2)
C2_4 C 0.5326(4) 0.3079(3) 0.4540(17)
C3_4 C 0.5821(4) 0.2720(3) 0.586(2)
H2_4 H 0.6145 0.2861 0.7195
C4_4 C 0.5823(4) 0.2159(3) 0.517(3)
C5_4 C 0.5324(4) 0.1940(4) 0.322(2)
H3_4 H 0.5325 0.1559 0.2778
C6_3 C 0.4832(4) 0.2292(3) 0.196(2)
C7_3 C 0.4844(4) 0.2865(3) 0.260(2)
H4_3 H 0.4521 0.3105 0.1705
C8_4 C 0.6872(4) 0.2007(4) 0.794(2)
H5_4 H 0.7093 0.2318 0.6929
H6_4 H 0.6687 0.2145 0.9769
C9_4 C 0.7412(4) 0.1548(3) 0.847(2)
C10_4 C 0.8037(5) 0.1523(4) 0.693(2)
H7_4 H 0.8123 0.1784 0.5472
C11_4 C 0.8548(4) 0.1107(3) 0.752(2)
H8_4 H 0.8972 0.1094 0.6481
C12_4 C 0.8413(4) 0.0721(3) 0.9629(19)
H12_3 H 0.4210 0.1330 0.1274
O7_4 O 0.1674(3) 0.1520(2) 0.0487(19)
C16_3 C 0.4278(4) 0.1535(3) 0.9482(18)
H11_3 H 0.4717 0.1407 0.8594
C17_3 C 0.3658(5) 0.1432(4) 0.747(2)
C18_3 C 0.3364(5) 0.0905(4) 0.742(2)
H13_3 H 0.3556 0.0620 0.8550
C19_3 C 0.2776(5) 0.0798(3) 0.566(3)
H14_3 H 0.2567 0.0444 0.5659
C20_4 C 0.2504(4) 0.1221(3) 0.393(2)
C21_4 C 0.2798(4) 0.1751(4) 0.399(2)
H15_4 H 0.2622 0.2035 0.2805
C22_3 C 0.3364(4) 0.1851(3) 0.586(2)
H16_3 H 0.3545 0.2213 0.6014
C23_4 C 0.1866(4) 0.1097(4) 0.2128(18)
H1_3 H 0.6335 0.3575 0.9485
O6_4 O 0.0681(3) 0.7120(2) 0.5052(18)
C6_4 C 0.0168(4) 0.7292(3) 0.696(2)
C7_4 C 0.0156(4) 0.7865(3) 0.760(2)
H4_4 H 0.0479 0.8105 0.6705
C16_4 C 0.0722(4) 0.6535(3) 0.4482(18)
H11_4 H 0.0283 0.6407 0.3594
H12_4 H 0.0790 0.6330 0.6274
C17_4 C 0.1342(5) 0.6432(4) 0.247(2)
C18_4 C 0.1636(5) 0.5905(4) 0.242(2)
H13_4 H 0.1444 0.5620 0.3550
C19_4 C 0.2224(5) 0.5798(3) 0.066(3)
H14_4 H 0.2433 0.5444 0.0659
C22_4 C 0.1636(4) 0.6851(3) 0.086(2)
H16_4 H 0.1455 0.7213 0.1014
H1_4 H 0.1335 0.1425 0.9485
loop_
_geom_bond_atom_site_label_1
_geom_bond_atom_site_label_2
_geom_bond_site_symmetry_1
_geom_bond_site_symmetry_2
O4 C15 1_555 1_555
H9 C13 1_555 1_555
H10 C14 1_555 1_555
Co4 O4 1_555 1_555
O9 Co1 1_555 1_555
O13 Co1 1_555 1_555
C13 C14 1_555 1_555
O1 C1 1_555 1_555
O9 C1 1_555 1_555
O3 C4 1_555 1_555
C1 C2 1_555 1_555
C2 C3 1_555 1_555
C3 H2 1_555 1_555
C4 C3 1_555 1_555
C5 C4 1_555 1_555
H3 C5 1_555 1_555
C8 O3 1_555 1_555
H5 C8 1_555 1_555
H6 C8 1_555 1_555
C9 C8 1_555 1_555
C10 C9 1_555 1_555
H7 C10 1_555 1_555
C11 C10 1_555 1_555
H8 C11 1_555 1_555
C12 C11 1_555 1_555
Co4 O5 1_555 1_555
O6 C6 1_555 1_555
H4 C7 1_555 1_555
C6 C7 1_555 1_555
O8 C23 1_555 1_555
H11 C16 1_555 1_555
C17 C16 1_555 1_555
C18 C17 1_555 1_555
H13 C18 1_555 1_555
C19 C18 1_555 1_555
H14 C19 1_555 1_555
C20 C19 1_555 1_555
C21 C20 1_555 1_555
H15 C21 1_555 1_555
C22 C17 1_555 1_555
H16 C22 1_555 1_555
C23 O7 1_555 1_555
Co6 O8 1_555 1_555
C20 C23 1_555 1_555
C21 C22 1_555 1_555
O7_2 H1 1_555 1_555
O8_2 C23_2 1_555 1_555
C21_2 C20_2 1_555 1_555
H15_2 C21_2 1_555 1_555
C23_2 O7_2 1_555 1_555
Co4 O8_2 1_555 1_555
C20_2 C23_2 1_555 1_555
Co1_2 O1_2 1_555 1_555
O1_2 C1_2 1_555 1_555
O3_2 C4_2 1_555 1_555
O4_2 C15_2 1_555 1_555
O5_2 C15_2 1_555 1_555
C3_2 H2_2 1_555 1_555
C4_2 C3_2 1_555 1_555
C8_2 O3_2 1_555 1_555
H5_2 C8_2 1_555 1_555
H6_2 C8_2 1_555 1_555
C9_2 C8_2 1_555 1_555
C10_2 C9_2 1_555 1_555
H7_2 C10_2 1_555 1_555
C11_2 C10_2 1_555 1_555
H8_2 C11_2 1_555 1_555
C12_2 C11_2 1_555 1_555
C13_2 C12_2 1_555 1_555
H9_2 C13_2 1_555 1_555
C14_2 C9_2 1_555 1_555
H10_2 C14_2 1_555 1_555
C15_2 C12_2 1_555 1_555
Co6 O5_2 1_555 1_555
Co4 O5_2 1_555 1_555
O9_2 Co1_2 1_555 1_555
O13_2 Co1_2 1_555 1_555
C13_2 C14_2 1_555 1_555
H3_2 C5_2 1_555 1_555
Co4 O1_3 1_555 1_555
O1_3 C1_3 1_555 1_555
O3_3 C4_3 1_555 1_555
O10 C15_3 1_555 1_555
O11 C15_3 1_555 1_555
C3_3 H2_3 1_555 1_555
C4_3 C3_3 1_555 1_555
C8_3 O3_3 1_555 1_555
H5_3 C8_3 1_555 1_555
H6_3 C8_3 1_555 1_555
C9_3 C8_3 1_555 1_555
C10_3 C9_3 1_555 1_555
H7_3 C10_3 1_555 1_555
C11_3 C10_3 1_555 1_555
H8_3 C11_3 1_555 1_555
C12_3 C11_3 1_555 1_555
C13_3 C12_3 1_555 1_555
H9_3 C13_3 1_555 1_555
C14_3 C9_3 1_555 1_555
H10_3 C14_3 1_555 1_555
C15_3 C12_3 1_555 1_555
O9_3 Co4 1_555 1_555
C13_3 C14_3 1_555 1_555
O6_2 C6_2 1_555 1_555
H3_3 C5_3 1_555 1_555
C6_2 C5_3 1_555 1_555
C7_2 C2_3 1_555 1_555
H4_2 C7_2 1_555 1_555
C16_2 O6_2 1_555 1_555
H11_2 C16_2 1_555 1_555
H12_2 C16_2 1_555 1_555
C17_2 C16_2 1_555 1_555
C18_2 C17_2 1_555 1_555
H13_2 C18_2 1_555 1_555
C19_2 C18_2 1_555 1_555
H14_2 C19_2 1_555 1_555
C22_2 C17_2 1_555 1_555
H16_2 C22_2 1_555 1_555
C6_2 C7_2 1_555 1_555
O7_3 H1_2 1_555 1_555
O13_2 C23_3 1_555 1_555
C21_3 C20_3 1_555 1_555
H15_3 C21_3 1_555 1_555
C23_3 O7_3 1_555 1_555
C20_3 C23_3 1_555 1_555
O10_2 C15_4 1_555 1_555
H9_4 C13_4 1_555 1_555
H10_4 C14_4 1_555 1_555
O9_4 Co6 1_555 1_555
C13_4 C14_4 1_555 1_555
O1_4 C1_4 1_555 1_555
O9_4 C1_4 1_555 1_555
O3_4 C4_4 1_555 1_555
O6_3 C6_3 1_555 1_555
C1_4 C2_4 1_555 1_555
C2_4 C3_4 1_555 1_555
C3_4 H2_4 1_555 1_555
C4_4 C3_4 1_555 1_555
C5_4 C4_4 1_555 1_555
H3_4 C5_4 1_555 1_555
C6_3 C5_4 1_555 1_555
C7_3 C2_4 1_555 1_555
H4_3 C7_3 1_555 1_555
C8_4 O3_4 1_555 1_555
H5_4 C8_4 1_555 1_555
H6_4 C8_4 1_555 1_555
C9_4 C8_4 1_555 1_555
C10_4 C9_4 1_555 1_555
H7_4 C10_4 1_555 1_555
C11_4 C10_4 1_555 1_555
H8_4 C11_4 1_555 1_555
C12_4 C11_4 1_555 1_555
C6_3 C7_3 1_555 1_555
O13 C23_4 1_555 1_555
H11_3 C16_3 1_555 1_555
C17_3 C16_3 1_555 1_555
C18_3 C17_3 1_555 1_555
H13_3 C18_3 1_555 1_555
C19_3 C18_3 1_555 1_555
H14_3 C19_3 1_555 1_555
C20_4 C19_3 1_555 1_555
C21_4 C20_4 1_555 1_555
H15_4 C21_4 1_555 1_555
C22_3 C17_3 1_555 1_555
H16_3 C22_3 1_555 1_555
C23_4 O7_4 1_555 1_555
C20_4 C23_4 1_555 1_555
C21_4 C22_3 1_555 1_555
O6_4 C6_4 1_555 1_555
H4_4 C7_4 1_555 1_555
C16_4 O6_4 1_555 1_555
H11_4 C16_4 1_555 1_555
H12_4 C16_4 1_555 1_555
C17_4 C16_4 1_555 1_555
C18_4 C17_4 1_555 1_555
H13_4 C18_4 1_555 1_555
C19_4 C18_4 1_555 1_555
H14_4 C19_4 1_555 1_555
C22_4 C17_4 1_555 1_555
H16_4 C22_4 1_555 1_555
C6_4 C7_4 1_555 1_555

#END
