
###############################################################################
#
# This file contains modified crystal structure data generated from the
# MOF subset of the Cambridge Structural Database (CSD) v543 
# hosted by the Cambridge Crystallographic Data Centre (CCDC).
#
# This work is licensed under the Creative Commons
# Attribution-NonCommercial-ShareAlike 4.0 International License.
# To view a copy of this license, visit
# http://creativecommons.org/licenses/by-nc-sa/4.0/
# or send a letter to
# Creative Commons, PO Box 1866, Mountain View, CA 94042, USA.
#
# CIF created using the CSD Python API on 29 September 2022
# The structure has been converted into the P1 space group
# The structure has a 3D framework
# The original CSD entry JEJZAC is in the orthorhombic crystal system
# The framework has been calculated to contain at least 10.0% void space
# The void calculation uses a probe of radius 1.32A, grid spacing 0.4
#
###############################################################################

data_JEJZAC
_chemical_formula_moiety         '(C92 H64 Mn4 O32)n'
_symmetry_cell_setting           triclinic
_symmetry_space_group_name_H-M   'P 1'
_symmetry_Int_Tables_number      1
_space_group_name_Hall           'P 1'
loop_
_symmetry_equiv_pos_site_id
_symmetry_equiv_pos_as_xyz
1 x,y,z
_cell_length_a                   18.794(5)
_cell_length_b                   24.100(5)
_cell_length_c                   4.707(5)
_cell_angle_alpha                90
_cell_angle_beta                 90
_cell_angle_gamma                90
_cell_volume                     2131.97
loop_
_atom_site_label
_atom_site_type_symbol
_atom_site_fract_x
_atom_site_fract_y
_atom_site_fract_z
O7 O 0.33051(13) 0.34507(9) 0.8063(8)
H3 H 0.3642 0.3546 0.9057
O8 O 0.34188(13) 0.43113(10) 0.6433(5)
C9 C 0.1338(2) 0.35439(15) 0.1036(8)
C10 C 0.1642(2) 0.40672(16) 0.1144(10)
H7 H 0.1462 0.4352 0.0018
C11 C 0.2219(2) 0.41674(14) 0.2949(12)
H8 H 0.2424 0.4519 0.3007
C12 C 0.24881(18) 0.37504(14) 0.4642(9)
C13 C 0.2184(2) 0.32225(15) 0.4525(9)
H9 H 0.2358 0.2938 0.5665
C14 C 0.16187(19) 0.31252(14) 0.2697(10)
H10 H 0.1425 0.2771 0.2588
C15 C 0.31080(18) 0.38659(15) 0.6459(8)
Mn6 Mn 0.44843(2) 0.455874(18) 0.81507(14)
O4 O 0.06670(13) 0.28735(9) 0.8514(7)
C6 C 0.01616(19) 0.27080(14) 0.6574(8)
C7 C 0.01567(19) 0.21434(14) 0.5949(8)
H4 H 0.0477 0.1905 0.6831
C8 C 0.0716(2) 0.34502(14) 0.9089(9)
H5 H 0.0282 0.3580 0.9982
H6 H 0.0783 0.3654 0.7333
O12 O 0.05232(11) 0.02279(9) 0.9732(5)
O9 O 0.93630(12) 0.11770(10) 0.1028(5)
Mn1 Mn 0.94843(2) 0.044126(18) 0.81507(14)
C1 C 0.96534(14) 0.13276(12) 0.3340(10)
O2 O 0.99290(12) 0.10044(9) 0.5095(5)
C2 C 0.96740(18) 0.19426(13) 0.4014(7)
O3 O 0.87141(14) 0.32317(10) 0.2333(6)
C3 C 0.91910(18) 0.22977(13) 0.2674(8)
H1 H 0.8877 0.2163 0.1312
C4 C 0.91900(17) 0.28533(12) 0.3415(10)
C5 C 0.96810(19) 0.30631(14) 0.5342(9)
H2 H 0.9684 0.3439 0.5790
C16 C 0.8145(2) 0.30138(15) 0.0615(10)
H11 H 0.7916 0.2707 0.1586
C17 C 0.76198(19) 0.34663(14) 0.0102(9)
C21 C 0.6492(2) 0.39066(14) 0.1044(9)
H15 H 0.6073 0.3923 0.2088
C22 C 0.6991(2) 0.34968(15) 0.1602(9)
H16 H 0.6899 0.3237 0.3017
Mn4 Mn 0.55157(2) 0.544126(18) 0.31507(14)
O13 O 0.84188(13) 0.06887(10) 0.6433(5)
O5 O 0.61394(13) 0.49386(9) 0.5753(5)
O6 O 0.55232(11) 0.47721(9) 0.9732(5)
H12 H 0.8331 0.2879 0.8821
C18 C 0.77479(18) 0.38632(14) 0.8030(12)
H13 H 0.8176 0.3854 0.7040
C19 C 0.72570(18) 0.42705(16) 0.7400(8)
H14 H 0.7349 0.4528 0.5976
C20 C 0.66239(17) 0.42910(13) 0.8919(7)
C23 C 0.60594(15) 0.47009(11) 0.8077(9)
O10 O 0.88606(13) 0.99386(9) 0.0753(5)
O11 O 0.94768(11) 0.97721(9) 0.4732(5)
O10_2 O 0.11394(13) 0.00614(9) 0.5753(5)
Mn1_2 Mn 0.05157(2) 0.955874(18) 0.31507(14)
O2_2 O 0.00710(12) 0.89956(9) 0.0095(5)
C5_2 C 0.03190(19) 0.69369(14) 0.0342(9)
H2_2 H 0.0316 0.6561 0.0790
O9_2 O 0.06370(12) 0.88230(10) 0.6028(5)
O13_2 O 0.15812(13) 0.93113(10) 0.1433(5)
C1_2 C 0.03466(14) 0.86724(12) 0.8340(10)
C2_2 C 0.03260(18) 0.80574(13) 0.9014(7)
O3_2 O 0.12859(14) 0.67683(10) 0.7333(6)
C3_2 C 0.08090(18) 0.77023(13) 0.7674(8)
H1_2 H 0.1123 0.7837 0.6312
C4_2 C 0.08100(17) 0.71467(12) 0.8415(10)
O5_2 O 0.38606(13) 0.50614(9) 0.0753(5)
O6_2 O 0.44768(11) 0.52279(9) 0.4732(5)
C16_2 C 0.1855(2) 0.69862(15) 0.5615(10)
H11_2 H 0.2084 0.7293 0.6586
H12_2 H 0.1669 0.7121 0.3821
C17_2 C 0.23802(19) 0.65337(14) 0.5102(9)
C18_2 C 0.22521(18) 0.61368(14) 0.3030(12)
H13_2 H 0.1824 0.6146 0.2040
C19_2 C 0.27430(18) 0.57295(16) 0.2400(8)
H14_2 H 0.2651 0.5472 0.0976
C20_2 C 0.33761(17) 0.57090(13) 0.3919(7)
C21_2 C 0.3508(2) 0.60934(14) 0.6044(9)
H15_2 H 0.3927 0.6077 0.7088
C22_2 C 0.3009(2) 0.65032(15) 0.6602(9)
H16_2 H 0.3101 0.6763 0.8017
C23_2 C 0.39406(15) 0.52991(11) 0.3077(9)
O7_2 O 0.66949(13) 0.65493(9) 0.3063(8)
H3_2 H 0.6358 0.6454 0.4057
O8_2 O 0.65812(13) 0.56887(10) 0.1433(5)
H9_2 H 0.7642 0.7062 0.0665
C15_2 C 0.68920(18) 0.61341(15) 0.1459(8)
O4_2 O 0.93330(13) 0.71265(9) 0.3514(7)
C6_2 C 0.98384(19) 0.72920(14) 0.1574(8)
C7_2 C 0.98433(19) 0.78566(14) 0.0949(8)
H4_2 H 0.9523 0.8095 0.1831
C8_2 C 0.9284(2) 0.65498(14) 0.4089(9)
H5_2 H 0.9718 0.6420 0.4982
H6_2 H 0.9217 0.6346 0.2333
C9_2 C 0.8662(2) 0.64561(15) 0.6036(8)
C10_2 C 0.8358(2) 0.59328(16) 0.6144(10)
H7_2 H 0.8538 0.5648 0.5018
C11_2 C 0.7781(2) 0.58326(14) 0.7949(12)
H8_2 H 0.7576 0.5481 0.8007
C12_2 C 0.75119(18) 0.62496(14) 0.9642(9)
C13_2 C 0.7816(2) 0.67775(15) 0.9525(9)
C14_2 C 0.83813(19) 0.68748(14) 0.7697(10)
H10_2 H 0.8575 0.7229 0.7588
O7_3 O 0.16949(13) 0.84507(9) 0.3063(8)
H3_3 H 0.1358 0.8546 0.4057
H9_3 H 0.2642 0.7938 0.0665
C15_3 C 0.18920(18) 0.88659(15) 0.1459(8)
O2_3 O 0.50710(12) 0.60044(9) 0.0095(5)
O4_3 O 0.43330(13) 0.78735(9) 0.3514(7)
C5_3 C 0.53190(19) 0.80631(14) 0.0342(9)
H2_3 H 0.5316 0.8439 0.0790
C6_3 C 0.48384(19) 0.77080(14) 0.1574(8)
C7_3 C 0.48433(19) 0.71434(14) 0.0949(8)
H4_3 H 0.4523 0.6905 0.1831
C8_3 C 0.4284(2) 0.84502(14) 0.4089(9)
H5_3 H 0.4718 0.8580 0.4982
H6_3 H 0.4217 0.8654 0.2333
C9_3 C 0.3662(2) 0.85439(15) 0.6036(8)
C10_3 C 0.3358(2) 0.90672(16) 0.6144(10)
H7_3 H 0.3538 0.9352 0.5018
C11_3 C 0.2781(2) 0.91674(14) 0.7949(12)
H8_3 H 0.2576 0.9519 0.8007
C12_3 C 0.25119(18) 0.87504(14) 0.9642(9)
C13_3 C 0.2816(2) 0.82225(15) 0.9525(9)
C14_3 C 0.33813(19) 0.81252(14) 0.7697(10)
H10_3 H 0.3575 0.7771 0.7588
O9_3 O 0.56370(12) 0.61770(10) 0.6028(5)
C1_3 C 0.53466(14) 0.63276(12) 0.8340(10)
C2_3 C 0.53260(18) 0.69426(13) 0.9014(7)
O3_3 O 0.62859(14) 0.82317(10) 0.7333(6)
C3_3 C 0.58090(18) 0.72977(13) 0.7674(8)
H1_3 H 0.6123 0.7163 0.6312
C4_3 C 0.58100(17) 0.78533(12) 0.8415(10)
C16_3 C 0.6855(2) 0.80138(15) 0.5615(10)
H11_3 H 0.7084 0.7707 0.6586
H12_3 H 0.6669 0.7879 0.3821
C17_3 C 0.73802(19) 0.84663(14) 0.5102(9)
C18_3 C 0.72521(18) 0.88632(14) 0.3030(12)
H13_3 H 0.6824 0.8854 0.2040
C19_3 C 0.77430(18) 0.92705(16) 0.2400(8)
H14_3 H 0.7651 0.9528 0.0976
C20_3 C 0.83761(17) 0.92910(13) 0.3919(7)
C21_3 C 0.8508(2) 0.89066(14) 0.6044(9)
H15_3 H 0.8927 0.8923 0.7088
C22_3 C 0.8009(2) 0.84968(15) 0.6602(9)
H16_3 H 0.8101 0.8237 0.8017
C23_3 C 0.89406(15) 0.97009(11) 0.3077(9)
O7_4 O 0.83051(13) 0.15493(9) 0.8063(8)
H3_4 H 0.8642 0.1454 0.9057
C9_4 C 0.6338(2) 0.14561(15) 0.1036(8)
C10_4 C 0.6642(2) 0.09328(16) 0.1144(10)
H7_4 H 0.6462 0.0648 0.0018
C11_4 C 0.7219(2) 0.08326(14) 0.2949(12)
H8_4 H 0.7424 0.0481 0.3007
C12_4 C 0.74881(18) 0.12496(14) 0.4642(9)
C13_4 C 0.7184(2) 0.17775(15) 0.4525(9)
H9_4 H 0.7358 0.2062 0.5665
C14_4 C 0.66187(19) 0.18748(14) 0.2697(10)
H10_4 H 0.6425 0.2229 0.2588
C15_4 C 0.81080(18) 0.11341(15) 0.6459(8)
O9_4 O 0.43630(12) 0.38230(10) 0.1028(5)
C1_4 C 0.46534(14) 0.36724(12) 0.3340(10)
O2_4 O 0.49290(12) 0.39956(9) 0.5095(5)
C2_4 C 0.46740(18) 0.30574(13) 0.4014(7)
O3_4 O 0.37141(14) 0.17683(10) 0.2333(6)
C3_4 C 0.41910(18) 0.27023(13) 0.2674(8)
H1_4 H 0.3877 0.2837 0.1312
O4_4 O 0.56670(13) 0.21265(9) 0.8514(7)
C4_4 C 0.41900(17) 0.21467(12) 0.3415(10)
C5_4 C 0.46810(19) 0.19369(14) 0.5342(9)
H2_4 H 0.4684 0.1561 0.5790
C6_4 C 0.51616(19) 0.22920(14) 0.6574(8)
C7_4 C 0.51567(19) 0.28566(14) 0.5949(8)
H4_4 H 0.5477 0.3095 0.6831
C8_4 C 0.5716(2) 0.15498(14) 0.9089(9)
H5_4 H 0.5282 0.1420 0.9982
H6_4 H 0.5783 0.1346 0.7333
C16_4 C 0.3145(2) 0.19862(15) 0.0615(10)
H11_4 H 0.2916 0.2293 0.1586
C17_4 C 0.26198(19) 0.15337(14) 0.0102(9)
C21_4 C 0.1492(2) 0.10934(14) 0.1044(9)
H15_4 H 0.1073 0.1077 0.2088
C22_4 C 0.1991(2) 0.15032(15) 0.1602(9)
H16_4 H 0.1899 0.1763 0.3017
H12_4 H 0.3331 0.2121 0.8821
C18_4 C 0.27479(18) 0.11368(14) 0.8030(12)
H13_4 H 0.3176 0.1146 0.7040
C19_4 C 0.22570(18) 0.07295(16) 0.7400(8)
H14_4 H 0.2349 0.0472 0.5976
C20_4 C 0.16239(17) 0.07090(13) 0.8919(7)
C23_4 C 0.10594(15) 0.02991(11) 0.8077(9)
loop_
_geom_bond_atom_site_label_1
_geom_bond_atom_site_label_2
_geom_bond_site_symmetry_1
_geom_bond_site_symmetry_2
O7 H3 1_555 1_555
O8 C15 1_555 1_555
C10 C9 1_555 1_555
H7 C10 1_555 1_555
C11 C10 1_555 1_555
H8 C11 1_555 1_555
C12 C11 1_555 1_555
C13 C12 1_555 1_555
H9 C13 1_555 1_555
C14 C9 1_555 1_555
H10 C14 1_555 1_555
C15 O7 1_555 1_555
Mn6 O8 1_555 1_555
C12 C15 1_555 1_555
C13 C14 1_555 1_555
O4 C6 1_555 1_555
H4 C7 1_555 1_555
C8 O4 1_555 1_555
H5 C8 1_555 1_555
H6 C8 1_555 1_555
C6 C7 1_555 1_555
Mn1 O2 1_555 1_555
O9 C1 1_555 1_555
C1 O2 1_555 1_555
C2 C1 1_555 1_555
O3 C4 1_555 1_555
C3 C2 1_555 1_555
H1 C3 1_555 1_555
C4 C3 1_555 1_555
C5 C4 1_555 1_555
H2 C5 1_555 1_555
C16 O3 1_555 1_555
H11 C16 1_555 1_555
C17 C16 1_555 1_555
H15 C21 1_555 1_555
C22 C17 1_555 1_555
H16 C22 1_555 1_555
O13 Mn1 1_555 1_555
C21 C22 1_555 1_555
O5 C23 1_555 1_555
O6 C23 1_555 1_555
H13 C18 1_555 1_555
C19 C18 1_555 1_555
H14 C19 1_555 1_555
C20 C19 1_555 1_555
C23 C20 1_555 1_555
Mn4 O5 1_555 1_555
Mn6 O6 1_555 1_555
Mn1_2 O2_2 1_555 1_555
H2_2 C5_2 1_555 1_555
O9_2 Mn1_2 1_555 1_555
O13_2 Mn1_2 1_555 1_555
O9_2 C1_2 1_555 1_555
C2_2 C1_2 1_555 1_555
O3_2 C4_2 1_555 1_555
C3_2 C2_2 1_555 1_555
H1_2 C3_2 1_555 1_555
C4_2 C3_2 1_555 1_555
O5_2 C23_2 1_555 1_555
O6_2 C23_2 1_555 1_555
C16_2 O3_2 1_555 1_555
H11_2 C16_2 1_555 1_555
H12_2 C16_2 1_555 1_555
C17_2 C16_2 1_555 1_555
C18_2 C17_2 1_555 1_555
H13_2 C18_2 1_555 1_555
C19_2 C18_2 1_555 1_555
H14_2 C19_2 1_555 1_555
C20_2 C19_2 1_555 1_555
C21_2 C20_2 1_555 1_555
H15_2 C21_2 1_555 1_555
C22_2 C17_2 1_555 1_555
H16_2 C22_2 1_555 1_555
C23_2 C20_2 1_555 1_555
Mn6 O6_2 1_555 1_555
Mn4 O6_2 1_555 1_555
C21_2 C22_2 1_555 1_555
O7_2 H3_2 1_555 1_555
O8_2 C15_2 1_555 1_555
C15_2 O7_2 1_555 1_555
Mn4 O8_2 1_555 1_555
O4_2 C6_2 1_555 1_555
H4_2 C7_2 1_555 1_555
C8_2 O4_2 1_555 1_555
H5_2 C8_2 1_555 1_555
H6_2 C8_2 1_555 1_555
C9_2 C8_2 1_555 1_555
C10_2 C9_2 1_555 1_555
H7_2 C10_2 1_555 1_555
C11_2 C10_2 1_555 1_555
H8_2 C11_2 1_555 1_555
C12_2 C11_2 1_555 1_555
C13_2 C12_2 1_555 1_555
C14_2 C9_2 1_555 1_555
H10_2 C14_2 1_555 1_555
C6_2 C7_2 1_555 1_555
C13_2 C14_2 1_555 1_555
O7_3 H3_3 1_555 1_555
O13_2 C15_3 1_555 1_555
C15_3 O7_3 1_555 1_555
Mn4 O2_3 1_555 1_555
O4_3 C6_3 1_555 1_555
H2_3 C5_3 1_555 1_555
C6_3 C5_3 1_555 1_555
H4_3 C7_3 1_555 1_555
C8_3 O4_3 1_555 1_555
H5_3 C8_3 1_555 1_555
H6_3 C8_3 1_555 1_555
C9_3 C8_3 1_555 1_555
C10_3 C9_3 1_555 1_555
H7_3 C10_3 1_555 1_555
C11_3 C10_3 1_555 1_555
H8_3 C11_3 1_555 1_555
C12_3 C11_3 1_555 1_555
C13_3 C12_3 1_555 1_555
C14_3 C9_3 1_555 1_555
H10_3 C14_3 1_555 1_555
O9_3 Mn4 1_555 1_555
C6_3 C7_3 1_555 1_555
C13_3 C14_3 1_555 1_555
O9_3 C1_3 1_555 1_555
C2_3 C1_3 1_555 1_555
O3_3 C4_3 1_555 1_555
C3_3 C2_3 1_555 1_555
H1_3 C3_3 1_555 1_555
C4_3 C3_3 1_555 1_555
O10 C23_3 1_555 1_555
O11 C23_3 1_555 1_555
C16_3 O3_3 1_555 1_555
H11_3 C16_3 1_555 1_555
H12_3 C16_3 1_555 1_555
C17_3 C16_3 1_555 1_555
C18_3 C17_3 1_555 1_555
H13_3 C18_3 1_555 1_555
C19_3 C18_3 1_555 1_555
H14_3 C19_3 1_555 1_555
C20_3 C19_3 1_555 1_555
C21_3 C20_3 1_555 1_555
H15_3 C21_3 1_555 1_555
C22_3 C17_3 1_555 1_555
H16_3 C22_3 1_555 1_555
C23_3 C20_3 1_555 1_555
C21_3 C22_3 1_555 1_555
O7_4 H3_4 1_555 1_555
O13 C15_4 1_555 1_555
C10_4 C9_4 1_555 1_555
H7_4 C10_4 1_555 1_555
C11_4 C10_4 1_555 1_555
H8_4 C11_4 1_555 1_555
C12_4 C11_4 1_555 1_555
C13_4 C12_4 1_555 1_555
H9_4 C13_4 1_555 1_555
C14_4 C9_4 1_555 1_555
H10_4 C14_4 1_555 1_555
C15_4 O7_4 1_555 1_555
C12_4 C15_4 1_555 1_555
C13_4 C14_4 1_555 1_555
Mn6 O2_4 1_555 1_555
O9_4 C1_4 1_555 1_555
C1_4 O2_4 1_555 1_555
C2_4 C1_4 1_555 1_555
O3_4 C4_4 1_555 1_555
C3_4 C2_4 1_555 1_555
H1_4 C3_4 1_555 1_555
O4_4 C6_4 1_555 1_555
C4_4 C3_4 1_555 1_555
C5_4 C4_4 1_555 1_555
H2_4 C5_4 1_555 1_555
C6_4 C5_4 1_555 1_555
C7_4 C2_4 1_555 1_555
H4_4 C7_4 1_555 1_555
C8_4 O4_4 1_555 1_555
H5_4 C8_4 1_555 1_555
H6_4 C8_4 1_555 1_555
C16_4 O3_4 1_555 1_555
H11_4 C16_4 1_555 1_555
C17_4 C16_4 1_555 1_555
H15_4 C21_4 1_555 1_555
C22_4 C17_4 1_555 1_555
H16_4 C22_4 1_555 1_555
C6_4 C7_4 1_555 1_555
C21_4 C22_4 1_555 1_555
O10_2 C23_4 1_555 1_555
O12 C23_4 1_555 1_555
H13_4 C18_4 1_555 1_555
C19_4 C18_4 1_555 1_555
H14_4 C19_4 1_555 1_555
C20_4 C19_4 1_555 1_555
C23_4 C20_4 1_555 1_555

#END
