
###############################################################################
#
# This file contains modified crystal structure data generated from the
# MOF subset of the Cambridge Structural Database (CSD) v543 
# hosted by the Cambridge Crystallographic Data Centre (CCDC).
#
# This work is licensed under the Creative Commons
# Attribution-NonCommercial-ShareAlike 4.0 International License.
# To view a copy of this license, visit
# http://creativecommons.org/licenses/by-nc-sa/4.0/
# or send a letter to
# Creative Commons, PO Box 1866, Mountain View, CA 94042, USA.
#
# CIF created using the CSD Python API on 29 September 2022
# The structure has been converted into the P1 space group
# The structure has a 3D framework
# The original CSD entry JENJEU is in the triclinic crystal system
# The framework has been calculated to contain at least 10.0% void space
# The void calculation uses a probe of radius 1.32A, grid spacing 0.4
#
###############################################################################

data_JENJEU
_chemical_formula_moiety         '(C68 H58 Cd2 N12 O14)n'
_symmetry_cell_setting           triclinic
_symmetry_space_group_name_H-M   'P 1'
_symmetry_Int_Tables_number      1
_space_group_name_Hall           'P 1'
loop_
_symmetry_equiv_pos_site_id
_symmetry_equiv_pos_as_xyz
1 x,y,z
_cell_length_a                   9.4613(9)
_cell_length_b                   10.6889(10)
_cell_length_c                   20.2009(19)
_cell_angle_alpha                84.880(3)
_cell_angle_beta                 80.566(3)
_cell_angle_gamma                82.782(3)
_cell_volume                     1994.41
loop_
_atom_site_label
_atom_site_type_symbol
_atom_site_fract_x
_atom_site_fract_y
_atom_site_fract_z
_atom_site_U_iso_or_equiv
_atom_site_thermal_displace_type
N9 N 0.0059(3) 0.3466(2) 0.61866(13) 0.0376 Uani
C47 C 0.1289(4) 0.3722(3) 0.57938(18) 0.0459 Uani
H41 H 0.2041 0.3926 0.5994 0.0550 Uiso
C48 C 0.1480(4) 0.3695(3) 0.51053(18) 0.0490 Uani
H42 H 0.2351 0.3865 0.4846 0.0590 Uiso
C49 C 0.0367(4) 0.3414(3) 0.48048(17) 0.0434 Uani
H43 H 0.0478 0.3388 0.4340 0.0520 Uiso
N10 N 0.7952(3) 0.2892(2) 0.48889(13) 0.0426 Uani
H39 H 0.8187 0.2575 0.4504 0.0510 Uiso
C45 C 0.9080(3) 0.3170(3) 0.51995(16) 0.0348 Uani
C46 C 0.8988(3) 0.3194(3) 0.58866(16) 0.0364 Uani
H40 H 0.8133 0.3011 0.6156 0.0440 Uiso
O9 O 0.6088(3) 0.3539(4) 0.56613(16) 0.1248 Uani
C50 C 0.6549(4) 0.3069(4) 0.5128(2) 0.0670 Uani
C51 C 0.5574(4) 0.2627(5) 0.4694(2) 0.0828 Uani
H44 H 0.4664 0.3167 0.4746 0.0990 Uiso
H45 H 0.6014 0.2725 0.4227 0.0990 Uiso
C52 C 0.5273(4) 0.1262(5) 0.4860(2) 0.0656 Uani
C53 C 0.5247(4) 0.0495(5) 0.4348(2) 0.0730 Uani
H46 H 0.5412 0.0826 0.3904 0.0880 Uiso
C54 C 0.5017(4) 0.0744(5) 0.5522(2) 0.0703 Uani
H47 H 0.5025 0.1240 0.5876 0.0840 Uiso
Cd6 Cd 0.97103(2) 0.35182(2) 0.73661(2) 0.0313 Uani
C64 C 0.1021(4) 0.9627(3) 0.94792(18) 0.0521 Uani
H56 H 0.1736 0.9369 0.9129 0.0620 Uiso
N8 N 0.1455(3) 0.3053(3) 0.99299(13) 0.0451 Uani
C35 C 0.0304(3) 0.3376(3) 0.95639(16) 0.0355 Uani
C36 C 0.0482(4) 0.3372(3) 0.88737(16) 0.0410 Uani
H31 H 0.1409 0.3206 0.8639 0.0490 Uiso
O8 O 0.3311(3) 0.3664(3) 0.91624(13) 0.0671 Uani
C40 C 0.2862(4) 0.3176(3) 0.97155(19) 0.0465 Uani
C43 C 0.4856(4) 0.0847(3) 0.94547(17) 0.0457 Uani
H37 H 0.4766 0.1411 0.9082 0.0550 Uiso
O11 O 0.2201(2) 0.3700(2) 0.72987(11) 0.0403 Uani
O12 O 0.1647(2) 0.1745(2) 0.74339(11) 0.0421 Uani
O13 O 0.7506(2) 0.2921(2) 0.74515(12) 0.0547 Uani
O14 O 0.7040(3) 0.0994(2) 0.73300(15) 0.0728 Uani
C65 C 0.2562(3) 0.2527(3) 0.73620(15) 0.0330 Uani
C66 C 0.4102(3) 0.2025(3) 0.73578(16) 0.0399 Uani
H57 H 0.4330 0.1160 0.7319 0.0480 Uiso
C67 C 0.5140(3) 0.2640(3) 0.74010(18) 0.0462 Uani
H58 H 0.4921 0.3507 0.7436 0.0560 Uiso
C68 C 0.6687(3) 0.2114(3) 0.74020(16) 0.0365 Uani
N11 N 0.8534(3) 0.5605(2) 0.72974(12) 0.0342 Uani
N12 N 0.8438(3) 0.8800(2) 0.78828(13) 0.0375 Uani
H48 H 0.8184 0.9541 0.7709 0.0450 Uiso
C55 C 0.8124(3) 0.7769(3) 0.75663(15) 0.0309 Uani
C56 C 0.8829(3) 0.6558(3) 0.76222(15) 0.0341 Uani
H49 H 0.9539 0.6398 0.7897 0.0410 Uiso
C57 C 0.7490(3) 0.5834(3) 0.69158(16) 0.0404 Uani
H50 H 0.7260 0.5173 0.6698 0.0480 Uiso
C58 C 0.6749(4) 0.7004(3) 0.68341(17) 0.0471 Uani
H51 H 0.6031 0.7135 0.6563 0.0570 Uiso
C59 C 0.7075(3) 0.7989(3) 0.71563(16) 0.0415 Uani
H52 H 0.6592 0.8795 0.7098 0.0500 Uiso
O10 O 0.9527(3) 0.7758(2) 0.87187(11) 0.0502 Uani
C60 C 0.9096(3) 0.8747(3) 0.84326(16) 0.0364 Uani
N7 N 0.9372(3) 0.3595(2) 0.85268(13) 0.0408 Uani
C37 C 0.8056(4) 0.3851(3) 0.88628(18) 0.0507 Uani
H32 H 0.7282 0.4009 0.8625 0.0610 Uiso
C38 C 0.7797(4) 0.3891(4) 0.95514(19) 0.0601 Uani
H33 H 0.6862 0.4082 0.9772 0.0720 Uiso
C39 C 0.8924(4) 0.3648(3) 0.99116(18) 0.0494 Uani
Cd1 Cd 0.02897(2) 0.64818(2) 0.26339(2) 0.0313 Uani
N1 N 0.0628(3) 0.6405(2) 0.14732(13) 0.0408 Uani
C7 C 0.1944(4) 0.6149(3) 0.11372(18) 0.0507 Uani
H5 H 0.2718 0.5991 0.1375 0.0610 Uiso
C8 C 0.2203(4) 0.6109(4) 0.04486(19) 0.0601 Uani
H6 H 0.3138 0.5918 0.0228 0.0720 Uiso
C9 C 0.1076(4) 0.6352(3) 0.00884(18) 0.0494 Uani
N4 N 0.2048(3) 0.7108(2) 0.51111(13) 0.0426 Uani
H12 H 0.1813 0.7425 0.5496 0.0510 Uiso
C15 C 0.0920(3) 0.6830(3) 0.48005(16) 0.0348 Uani
C16 C 0.1012(3) 0.6806(3) 0.41134(16) 0.0364 Uani
H13 H 0.1867 0.6989 0.3844 0.0440 Uiso
O6 O 0.3912(3) 0.6461(4) 0.43387(16) 0.1248 Uani
C20 C 0.3451(4) 0.6931(4) 0.4872(2) 0.0670 Uani
C21 C 0.4426(4) 0.7373(5) 0.5306(2) 0.0828 Uani
H17 H 0.5336 0.6833 0.5254 0.0990 Uiso
H18 H 0.3986 0.7275 0.5773 0.0990 Uiso
C22 C 0.4727(4) 0.8738(5) 0.5140(2) 0.0656 Uani
C23 C 0.4753(4) 0.9505(5) 0.5652(2) 0.0730 Uani
H19 H 0.4588 0.9174 0.6096 0.0880 Uiso
C24 C 0.4983(4) 0.9256(5) 0.4478(2) 0.0703 Uani
H20 H 0.4975 0.8760 0.4124 0.0840 Uiso
N5 N 0.1466(3) 0.4395(2) 0.27026(12) 0.0342 Uani
N6 N 0.1562(3) 0.1200(2) 0.21172(13) 0.0375 Uani
H21 H 0.1816 0.0459 0.2291 0.0450 Uiso
C25 C 0.1876(3) 0.2231(3) 0.24337(15) 0.0309 Uani
C26 C 0.1171(3) 0.3442(3) 0.23778(15) 0.0341 Uani
H22 H 0.0461 0.3602 0.2103 0.0410 Uiso
C27 C 0.2510(3) 0.4166(3) 0.30842(16) 0.0404 Uani
H23 H 0.2740 0.4827 0.3302 0.0480 Uiso
C28 C 0.3251(4) 0.2996(3) 0.31659(17) 0.0471 Uani
H24 H 0.3969 0.2865 0.3437 0.0570 Uiso
C29 C 0.2925(3) 0.2011(3) 0.28437(16) 0.0415 Uani
H25 H 0.3408 0.1205 0.2902 0.0500 Uiso
O7 O 0.0473(3) 0.2242(2) 0.12813(11) 0.0502 Uani
C30 C 0.0904(3) 0.1253(3) 0.15674(16) 0.0364 Uani
O15 O 0.2494(2) 0.7079(2) 0.25485(12) 0.0547 Uani
O1 O 0.7799(2) 0.6300(2) 0.27013(11) 0.0403 Uani
O2 O 0.8353(2) 0.8255(2) 0.25661(11) 0.0421 Uani
O4 O 0.2960(3) 0.9006(2) 0.26700(15) 0.0728 Uani
C1 C 0.7438(3) 0.7473(3) 0.26380(15) 0.0330 Uani
C2 C 0.5898(3) 0.7975(3) 0.26422(16) 0.0399 Uani
H1 H 0.5670 0.8840 0.2681 0.0480 Uiso
C3 C 0.4860(3) 0.7360(3) 0.25990(18) 0.0462 Uani
H2 H 0.5079 0.6493 0.2564 0.0560 Uiso
C4 C 0.3313(3) 0.7886(3) 0.25980(16) 0.0365 Uani
N2 N 0.8545(3) 0.6947(3) 0.00701(13) 0.0451 Uani
C5 C 0.9696(3) 0.6624(3) 0.04361(16) 0.0355 Uani
C6 C 0.9518(4) 0.6628(3) 0.11263(16) 0.0410 Uani
H4 H 0.8591 0.6794 0.1361 0.0490 Uiso
O5 O 0.6689(3) 0.6336(3) 0.08376(13) 0.0671 Uani
C10 C 0.7138(4) 0.6824(3) 0.02845(19) 0.0465 Uani
C13 C 0.5144(4) 0.9153(3) 0.05453(17) 0.0457 Uani
H10 H 0.5234 0.8589 0.0918 0.0550 Uiso
N3 N 0.9941(3) 0.6534(2) 0.38134(13) 0.0376 Uani
C17 C 0.8711(4) 0.6278(3) 0.42062(18) 0.0459 Uani
H14 H 0.7959 0.6074 0.4006 0.0550 Uiso
C18 C 0.8520(4) 0.6305(3) 0.48947(18) 0.0490 Uani
H15 H 0.7649 0.6135 0.5154 0.0590 Uiso
C19 C 0.9633(4) 0.6586(3) 0.51952(17) 0.0434 Uani
H16 H 0.9522 0.6612 0.5660 0.0520 Uiso
C34 C 0.8979(4) 0.0373(3) 0.05208(18) 0.0521 Uani
H29 H 0.8264 0.0631 0.0871 0.0620 Uiso
H7 H 0.1234 0.6335 0.9622 0.0590 Uiso
H54 H 0.0002 0.0421 0.8333 0.0540 Uiso
C31 C 0.0739(4) 0.9951(3) 0.13484(16) 0.0444 Uani
H26 H 0.1638 0.9409 0.1364 0.0540 Uiso
C32 C 0.0350(4) 0.9980(3) 0.06539(16) 0.0371 Uani
C33 C 0.1364(4) 0.9606(3) 0.01182(18) 0.0489 Uani
H28 H 0.2304 0.9332 0.0188 0.0580 Uiso
H30 H 0.1238 0.2741 0.0336 0.0540 Uiso
C41 C 0.3876(4) 0.2638(3) 0.02059(17) 0.0468 Uani
H35 H 0.3368 0.2695 0.0662 0.0570 Uiso
H36 H 0.4678 0.3140 0.0154 0.0570 Uiso
C42 C 0.4453(3) 0.1268(3) 0.00963(17) 0.0404 Uani
C44 C 0.4613(3) 0.0401(3) 0.06381(17) 0.0441 Uani
H38 H 0.4358 0.0662 0.1073 0.0530 Uiso
H3 H 0.8762 0.7259 0.9664 0.0540 Uiso
C11 C 0.6124(4) 0.7362(3) 0.97941(17) 0.0468 Uani
H8 H 0.6632 0.7305 0.9338 0.0570 Uiso
H9 H 0.5322 0.6860 0.9846 0.0570 Uiso
C12 C 0.5547(3) 0.8732(3) 0.99037(17) 0.0404 Uani
C14 C 0.5387(3) 0.9599(3) 0.93619(17) 0.0441 Uani
H11 H 0.5642 0.9338 0.8927 0.0530 Uiso
C61 C 0.9261(4) 0.0049(3) 0.86516(16) 0.0444 Uani
H53 H 0.8362 0.0591 0.8636 0.0540 Uiso
C62 C 0.9650(4) 0.0020(3) 0.93461(16) 0.0371 Uani
C63 C 0.8636(4) 0.0394(3) 0.98818(18) 0.0489 Uani
H55 H 0.7696 0.0668 0.9812 0.0580 Uiso
H27 H 0.9998 0.9579 0.1667 0.0540 Uiso
H34 H 0.8766 0.3665 0.0378 0.0590 Uiso
loop_
_atom_site_aniso_label
_atom_site_aniso_U_11
_atom_site_aniso_U_22
_atom_site_aniso_U_33
_atom_site_aniso_U_23
_atom_site_aniso_U_13
_atom_site_aniso_U_12
N9 0.0395 0.0348 0.0401 -0.0053 -0.0111 -0.0016
C47 0.04 0.044 0.056 -0.0006 -0.0159 -0.0045
C48 0.039 0.055 0.05 0.0037 -0.0019 -0.005
C49 0.048 0.044 0.036 -0.0039 -0.0052 0.0025
N10 0.0446 0.0505 0.0354 -0.0109 -0.0103 -0.0049
C45 0.0414 0.0292 0.0341 -0.0048 -0.0084 -0.0002
C46 0.039 0.0327 0.038 -0.0033 -0.0077 -0.0033
O9 0.0517 0.254 0.068 -0.065 -0.0042 0.017
C50 0.048 0.106 0.047 -0.004 -0.015 0
C51 0.045 0.146 0.062 -0.002 -0.026 -0.009
C52 0.028 0.122 0.049 -0.001 -0.0134 -0.011
C53 0.039 0.141 0.042 0.003 -0.0153 -0.016
C54 0.04 0.135 0.038 -0.009 -0.0105 -0.01
Cd6 0.02825 0.03039 0.03808 -0.00566 -0.01362 -0.00049
C64 0.044 0.069 0.045 -0.0245 0.0007 -0.0089
N8 0.0521 0.0493 0.0347 0.0043 -0.0123 -0.0067
C35 0.043 0.0291 0.036 0.0028 -0.0126 -0.005
C36 0.0366 0.047 0.039 0.0006 -0.0074 -0.0032
O8 0.0628 0.073 0.0629 0.02 -0.0108 -0.0141
C40 0.053 0.037 0.051 -0.0009 -0.0133 -0.006
C43 0.05 0.046 0.044 0.0049 -0.0203 -0.0049
O11 0.0335 0.0328 0.058 -0.0072 -0.0159 -0.0022
O12 0.0359 0.0372 0.057 -0.0084 -0.0128 -0.0073
O13 0.0371 0.0575 0.0766 -0.0118 -0.0166 -0.0169
O14 0.0604 0.0359 0.126 -0.0068 -0.0352 0.0081
C65 0.0291 0.04 0.0325 -0.0081 -0.0101 -0.0027
C66 0.0337 0.0352 0.051 -0.0002 -0.0107 -0.0015
C67 0.0348 0.035 0.072 -0.0101 -0.013 -0.005
C68 0.0326 0.037 0.042 -0.0015 -0.0119 -0.0047
N11 0.0382 0.0276 0.0392 -0.0079 -0.0132 0.0009
N12 0.0532 0.0205 0.0425 -0.0016 -0.0191 -0.0031
C55 0.0353 0.0265 0.0321 -0.0044 -0.0076 -0.0035
C56 0.0353 0.0337 0.0367 -0.0032 -0.0147 -0.004
C57 0.049 0.0323 0.045 -0.0055 -0.022 -0.0028
C58 0.052 0.04 0.055 -0.0051 -0.031 0.0041
C59 0.047 0.0286 0.051 -0.0042 -0.0183 0.003
O10 0.0838 0.0346 0.0355 -0.0016 -0.0219 -0.0039
C60 0.045 0.034 0.0312 -0.003 -0.0055 -0.0078
N7 0.0376 0.0458 0.0394 -0.0042 -0.0107 0.0004
C37 0.04 0.065 0.048 -0.0097 -0.0141 0.0042
C38 0.037 0.086 0.055 -0.017 0.0005 0
C39 0.053 0.057 0.038 -0.0049 -0.0039 -0.008
Cd1 0.02825 0.03039 0.03808 -0.00566 -0.01362 -0.00049
N1 0.0376 0.0458 0.0394 -0.0042 -0.0107 0.0004
C7 0.04 0.065 0.048 -0.0097 -0.0141 0.0042
C8 0.037 0.086 0.055 -0.017 0.0005 0
C9 0.053 0.057 0.038 -0.0049 -0.0039 -0.008
N4 0.0446 0.0505 0.0354 -0.0109 -0.0103 -0.0049
C15 0.0414 0.0292 0.0341 -0.0048 -0.0084 -0.0002
C16 0.039 0.0327 0.038 -0.0033 -0.0077 -0.0033
O6 0.0517 0.254 0.068 -0.065 -0.0042 0.017
C20 0.048 0.106 0.047 -0.004 -0.015 0
C21 0.045 0.146 0.062 -0.002 -0.026 -0.009
C22 0.028 0.122 0.049 -0.001 -0.0134 -0.011
C23 0.039 0.141 0.042 0.003 -0.0153 -0.016
C24 0.04 0.135 0.038 -0.009 -0.0105 -0.01
N5 0.0382 0.0276 0.0392 -0.0079 -0.0132 0.0009
N6 0.0532 0.0205 0.0425 -0.0016 -0.0191 -0.0031
C25 0.0353 0.0265 0.0321 -0.0044 -0.0076 -0.0035
C26 0.0353 0.0337 0.0367 -0.0032 -0.0147 -0.004
C27 0.049 0.0323 0.045 -0.0055 -0.022 -0.0028
C28 0.052 0.04 0.055 -0.0051 -0.031 0.0041
C29 0.047 0.0286 0.051 -0.0042 -0.0183 0.003
O7 0.0838 0.0346 0.0355 -0.0016 -0.0219 -0.0039
C30 0.045 0.034 0.0312 -0.003 -0.0055 -0.0078
O15 0.0371 0.0575 0.0766 -0.0118 -0.0166 -0.0169
O1 0.0335 0.0328 0.058 -0.0072 -0.0159 -0.0022
O2 0.0359 0.0372 0.057 -0.0084 -0.0128 -0.0073
O4 0.0604 0.0359 0.126 -0.0068 -0.0352 0.0081
C1 0.0291 0.04 0.0325 -0.0081 -0.0101 -0.0027
C2 0.0337 0.0352 0.051 -0.0002 -0.0107 -0.0015
C3 0.0348 0.035 0.072 -0.0101 -0.013 -0.005
C4 0.0326 0.037 0.042 -0.0015 -0.0119 -0.0047
N2 0.0521 0.0493 0.0347 0.0043 -0.0123 -0.0067
C5 0.043 0.0291 0.036 0.0028 -0.0126 -0.005
C6 0.0366 0.047 0.039 0.0006 -0.0074 -0.0032
O5 0.0628 0.073 0.0629 0.02 -0.0108 -0.0141
C10 0.053 0.037 0.051 -0.0009 -0.0133 -0.006
C13 0.05 0.046 0.044 0.0049 -0.0203 -0.0049
N3 0.0395 0.0348 0.0401 -0.0053 -0.0111 -0.0016
C17 0.04 0.044 0.056 -0.0006 -0.0159 -0.0045
C18 0.039 0.055 0.05 0.0037 -0.0019 -0.005
C19 0.048 0.044 0.036 -0.0039 -0.0052 0.0025
C34 0.044 0.069 0.045 -0.0245 0.0007 -0.0089
C31 0.061 0.034 0.042 -0.0056 -0.0118 -0.0132
C32 0.047 0.0312 0.037 -0.0111 -0.0078 -0.0113
C33 0.04 0.057 0.054 -0.0157 -0.0143 -0.0042
C41 0.049 0.046 0.051 -0.0071 -0.0226 -0.0044
C42 0.0377 0.044 0.044 -0.0049 -0.0183 -0.0053
C44 0.046 0.051 0.039 -0.0034 -0.0172 -0.0055
C11 0.049 0.046 0.051 -0.0071 -0.0226 -0.0044
C12 0.0377 0.044 0.044 -0.0049 -0.0183 -0.0053
C14 0.046 0.051 0.039 -0.0034 -0.0172 -0.0055
C61 0.061 0.034 0.042 -0.0056 -0.0118 -0.0132
C62 0.047 0.0312 0.037 -0.0111 -0.0078 -0.0113
C63 0.04 0.057 0.054 -0.0157 -0.0143 -0.0042
loop_
_geom_bond_atom_site_label_1
_geom_bond_atom_site_label_2
_geom_bond_site_symmetry_1
_geom_bond_site_symmetry_2
C47 N9 1_555 1_555
H41 C47 1_555 1_555
C48 C47 1_555 1_555
H42 C48 1_555 1_555
H43 C49 1_555 1_555
C48 C49 1_555 1_555
N10 H39 1_555 1_555
C45 N10 1_555 1_555
C46 C45 1_555 1_555
H40 C46 1_555 1_555
O9 C50 1_555 1_555
C50 N10 1_555 1_555
C51 C50 1_555 1_555
H44 C51 1_555 1_555
H45 C51 1_555 1_555
C52 C51 1_555 1_555
H46 C53 1_555 1_555
H47 C54 1_555 1_555
C52 C53 1_555 1_555
C52 C54 1_555 1_555
H56 C64 1_555 1_555
C35 N8 1_555 1_555
C36 C35 1_555 1_555
H31 C36 1_555 1_555
O8 C40 1_555 1_555
C40 N8 1_555 1_555
H37 C43 1_555 1_555
O13 C68 1_555 1_555
O14 C68 1_555 1_555
C65 O11 1_555 1_555
C66 C65 1_555 1_555
H57 C66 1_555 1_555
C67 C66 1_555 1_555
H58 C67 1_555 1_555
C68 C67 1_555 1_555
Cd6 O13 1_555 1_555
O12 C65 1_555 1_555
N11 C56 1_555 1_555
N12 H48 1_555 1_555
C55 N12 1_555 1_555
C56 C55 1_555 1_555
H49 C56 1_555 1_555
C57 N11 1_555 1_555
H50 C57 1_555 1_555
C58 C57 1_555 1_555
H51 C58 1_555 1_555
C59 C55 1_555 1_555
H52 C59 1_555 1_555
O10 C60 1_555 1_555
C60 N12 1_555 1_555
Cd6 N11 1_555 1_555
C58 C59 1_555 1_555
C37 N7 1_555 1_555
H32 C37 1_555 1_555
C38 C37 1_555 1_555
H33 C38 1_555 1_555
Cd6 N7 1_555 1_555
C38 C39 1_555 1_555
N1 Cd1 1_555 1_555
C7 N1 1_555 1_555
H5 C7 1_555 1_555
C8 C7 1_555 1_555
H6 C8 1_555 1_555
N4 H12 1_555 1_555
C15 N4 1_555 1_555
H13 C16 1_555 1_555
O6 C20 1_555 1_555
C20 N4 1_555 1_555
C21 C20 1_555 1_555
H17 C21 1_555 1_555
H18 C21 1_555 1_555
C22 C21 1_555 1_555
C23 C22 1_555 1_555
H19 C23 1_555 1_555
C24 C22 1_555 1_555
H20 C24 1_555 1_555
N5 Cd1 1_555 1_555
N6 H21 1_555 1_555
C25 N6 1_555 1_555
C26 N5 1_555 1_555
H22 C26 1_555 1_555
C27 N5 1_555 1_555
H23 C27 1_555 1_555
C28 C27 1_555 1_555
H24 C28 1_555 1_555
C29 C25 1_555 1_555
H25 C29 1_555 1_555
O7 C30 1_555 1_555
C30 N6 1_555 1_555
O15 Cd1 1_555 1_555
C8 C9 1_555 1_555
C15 C16 1_555 1_555
C25 C26 1_555 1_555
C28 C29 1_555 1_555
O1 C1 1_555 1_555
O15 C4 1_555 1_555
O4 C4 1_555 1_555
C1 O2 1_555 1_555
C2 C1 1_555 1_555
H1 C2 1_555 1_555
C3 C2 1_555 1_555
H2 C3 1_555 1_555
C4 C3 1_555 1_555
C5 N2 1_555 1_555
H4 C6 1_555 1_555
O5 C10 1_555 1_555
C10 N2 1_555 1_555
H10 C13 1_555 1_555
C17 N3 1_555 1_555
H14 C17 1_555 1_555
C18 C17 1_555 1_555
H15 C18 1_555 1_555
H16 C19 1_555 1_555
H29 C34 1_555 1_555
C5 C6 1_555 1_555
C18 C19 1_555 1_555
H26 C31 1_555 1_555
C32 C31 1_555 1_555
C33 C32 1_555 1_555
H28 C33 1_555 1_555
H35 C41 1_555 1_555
H36 C41 1_555 1_555
C42 C41 1_555 1_555
H38 C44 1_555 1_555
C42 C44 1_555 1_555
H8 C11 1_555 1_555
H9 C11 1_555 1_555
C12 C11 1_555 1_555
C14 C12 1_555 1_555
H11 C14 1_555 1_555
H53 C61 1_555 1_555
C62 C61 1_555 1_555
H55 C63 1_555 1_555
C62 C63 1_555 1_555

#END
