
###############################################################################
#
# This file contains modified crystal structure data generated from the
# MOF subset of the Cambridge Structural Database (CSD) v543 
# hosted by the Cambridge Crystallographic Data Centre (CCDC).
#
# This work is licensed under the Creative Commons
# Attribution-NonCommercial-ShareAlike 4.0 International License.
# To view a copy of this license, visit
# http://creativecommons.org/licenses/by-nc-sa/4.0/
# or send a letter to
# Creative Commons, PO Box 1866, Mountain View, CA 94042, USA.
#
# CIF created using the CSD Python API on 29 September 2022
# The structure has been converted into the P1 space group
# The structure has a 3D framework
# The original CSD entry JENROM is in the triclinic crystal system
# The framework has been calculated to contain at least 10.0% void space
# The void calculation uses a probe of radius 1.32A, grid spacing 0.4
#
###############################################################################

data_JENROM
_chemical_formula_moiety         '(C176 H116 N6 O24 Zn6)n'
_symmetry_cell_setting           triclinic
_symmetry_space_group_name_H-M   'P 1'
_symmetry_Int_Tables_number      1
_space_group_name_Hall           'P 1'
loop_
_symmetry_equiv_pos_site_id
_symmetry_equiv_pos_as_xyz
1 x,y,z
_cell_length_a                   18.2797(7)
_cell_length_b                   21.2557(6)
_cell_length_c                   21.7570(8)
_cell_angle_alpha                61.587(3)
_cell_angle_beta                 78.504(4)
_cell_angle_gamma                82.525(3)
_cell_volume                     7280.05
loop_
_atom_site_label
_atom_site_type_symbol
_atom_site_fract_x
_atom_site_fract_y
_atom_site_fract_z
Zn6 Zn 0.87953(2) 0.00662(2) 0.12216(2)
Zn9 Zn 0.69453(2) 0.08169(2) 0.11213(3)
Zn2 Zn 0.48723(2) 0.11453(2) 0.03814(2)
O2 O 0.86350(13) 0.06433(14) 0.02144(13)
O3 O 0.51498(15) 0.01517(14) 0.09966(15)
H1 H 0.5625 0.0102 0.0994
O9 O 0.74855(16) 0.11574(18) 0.01769(16)
N1 N 0.37477(15) 0.09961(18) 0.04783(18)
C4 C 0.14284(19) 0.0624(2) 0.0789(2)
C6 C 0.10977(19) 0.0694(2) 0.0255(2)
C7 C 0.22380(19) 0.0748(2) 0.0686(2)
C22 C 0.03540(19) 0.0556(2) 0.0379(2)
H8 H 0.0142 0.0600 0.0006
C30 C 0.0975(2) 0.0433(3) 0.1451(2)
H13 H 0.1171 0.0406 0.1827
C46 C 0.0248(2) 0.0289(3) 0.1537(2)
C48 C 0.3506(2) 0.0667(4) 0.0184(4)
C59 C 0.3231(2) 0.1215(4) 0.0866(4)
H32 H 0.3385 0.1471 0.1061
C66 C 0.2756(2) 0.0530(4) 0.0281(3)
H37 H 0.2611 0.0288 0.0066
C70 C 0.2503(3) 0.1092(5) 0.0994(4)
H41 H 0.2174 0.1239 0.1292
O14 O 0.48108(13) 0.16792(16) 0.09325(16)
O15 O 0.84759(16) 0.06970(17) 0.16872(18)
N5 N 0.99208(15) 0.03639(18) 0.10056(16)
O1 O 0.53218(15) 0.17758(14) 0.94160(14)
O5 O 0.60130(14) 0.14199(14) 0.08314(16)
O6 O 0.51906(17) 0.07991(15) 0.93445(16)
O8 O 0.91356(19) 0.90451(16) 0.12586(16)
O10 O 0.89187(19) 0.91236(17) 0.22478(18)
O11 O 0.64555(18) 0.98883(16) 0.1474(2)
O12 O 0.72661(17) 0.1041(2) 0.17780(19)
C1 C 0.5754(2) 0.25619(19) 0.79474(19)
H3 H 0.5728 0.2796 0.8220
C2 C 0.81203(18) 0.10078(18) 0.9893(2)
C3 C 0.82230(19) 0.1311(2) 0.91163(19)
N3 N 0.6196(3) 0.42025(17) 0.37755(18)
C5 C 0.5636(2) 0.1829(2) 0.8284(2)
H4 H 0.1373 0.0835 0.9805
C8 C 0.68644(18) 0.86769(19) 0.1850(2)
C9 C 0.6547(2) 0.64222(19) 0.2785(2)
C10 C 0.5909(2) 0.2947(2) 0.7222(2)
H5 H 0.5980 0.3436 0.7014
C11 C 0.8425(2) 0.1937(2) 0.7630(2)
C12 C 0.53737(19) 0.14413(19) 0.9055(2)
C13 C 0.9023(2) 0.1614(2) 0.8000(2)
H6 H 0.9499 0.1607 0.7753
C14 C 0.6656(2) 0.7207(2) 0.2445(2)
O13 O 0.7625(2) 0.96656(18) 0.1432(3)
C15 C 0.54498(18) 0.17190(19) 0.1042(2)
C16 C 0.8561(2) 0.2303(2) 0.6848(2)
C17 C 0.8916(2) 0.1302(2) 0.8735(2)
H7 H 0.9321 0.1083 0.8972
C18 C 0.5960(3) 0.2616(2) 0.6794(2)
C19 C 0.6304(3) 0.49584(19) 0.3439(2)
C20 C 0.9105(2) 0.7951(2) 0.2342(2)
C21 C 0.9054(2) 0.8752(2) 0.1923(2)
C23 C 0.5738(3) 0.1484(2) 0.7859(2)
H9 H 0.5702 0.0991 0.8068
C24 C 0.7619(2) 0.1617(3) 0.8753(2)
H10 H 0.7143 0.1626 0.9000
C25 C 0.6038(3) 0.3033(2) 0.6006(2)
C26 C 0.5813(3) 0.5437(2) 0.3037(3)
H11 H 0.5394 0.5274 0.2982
N4 N 0.8933(3) 0.3409(2) 0.46051(19)
C27 C 0.9117(3) 0.6445(2) 0.3113(2)
C28 C 0.5534(2) 0.2150(2) 0.1393(2)
C29 C 0.5890(3) 0.1871(2) 0.7138(2)
H12 H 0.5948 0.1632 0.6867
C31 C 0.7002(2) 0.94546(19) 0.1549(2)
C32 C 0.6407(3) 0.4129(2) 0.2678(2)
H14 H 0.6728 0.4506 0.2480
C33 C 0.9091(3) 0.5658(2) 0.3505(2)
C34 C 0.6146(3) 0.3806(2) 0.4524(2)
C35 C 0.7922(2) 0.0990(2) 0.1907(2)
C36 C 0.6312(3) 0.2718(2) 0.5572(2)
H15 H 0.6455 0.2234 0.5777
C37 C 0.5925(2) 0.6166(2) 0.2707(3)
H16 H 0.5582 0.6486 0.2432
C38 C 0.8911(3) 0.7611(3) 0.3059(3)
H17 H 0.8766 0.7883 0.3297
C39 C 0.7731(3) 0.1911(3) 0.8012(2)
H18 H 0.7321 0.2091 0.7776
C40 C 0.6288(3) 0.3827(2) 0.2272(2)
H19 H 0.6538 0.3999 0.1810
C41 C 0.6379(3) 0.3094(2) 0.4853(2)
H20 H 0.6585 0.2867 0.4580
C42 C 0.5696(2) 0.2915(2) 0.2118(3)
C43 C 0.8046(3) 0.1292(3) 0.2364(3)
C44 C 0.6063(3) 0.3890(2) 0.3366(2)
C45 C 0.5806(3) 0.3272(2) 0.2532(2)
C47 C 0.5800(4) 0.3754(3) 0.5674(3)
H22 H 0.5598 0.3980 0.5949
H23 H 0.3851 0.0518 0.9898
C49 C 0.8976(3) 0.4156(2) 0.4254(2)
C50 C 0.8924(3) 0.6873(3) 0.3442(2)
H24 H 0.8800 0.6661 0.3932
C51 C 0.7040(3) 0.5931(2) 0.3195(3)
H25 H 0.7457 0.6090 0.3258
C52 C 0.9336(4) 0.6793(3) 0.2389(3)
H26 H 0.9495 0.6523 0.2150
C53 C 0.9326(4) 0.7538(3) 0.2005(3)
H27 H 0.9470 0.7755 0.1517
C54 C 0.6198(2) 0.2461(2) 0.1273(2)
H28 H 0.6598 0.2407 0.0960
C55 C 0.6280(3) 0.2855(2) 0.1617(3)
H29 H 0.6725 0.3080 0.1514
C56 C 0.5859(4) 0.4141(2) 0.4942(3)
H30 H 0.5707 0.4623 0.4732
C57 C 0.9183(3) 0.2720(3) 0.6477(3)
H31 H 0.9521 0.2761 0.6722
C58 C 0.8809(3) 0.3032(2) 0.5364(2)
C60 C 0.8768(4) 0.3039(2) 0.4248(2)
C61 C 0.6928(3) 0.5202(2) 0.3516(3)
H33 H 0.7273 0.4877 0.3783
C62 C 0.7473(3) 0.1604(3) 0.2639(3)
H34 H 0.6990 0.1600 0.2566
C63 C 0.9301(3) 0.3078(3) 0.5737(2)
H35 H 0.9720 0.3351 0.5496
C64 C 0.4938(3) 0.2254(3) 0.1841(3)
H36 H 0.4478 0.2068 0.1909
C65 C 0.8468(3) 0.2316(3) 0.3543(3)
C67 C 0.5562(4) 0.3340(3) 0.3635(3)
H38 H 0.5310 0.3174 0.4096
C68 C 0.8075(3) 0.2262(4) 0.6461(3)
H39 H 0.7658 0.1985 0.6699
C69 C 0.6174(3) 0.8411(3) 0.2121(4)
H40 H 0.5764 0.8723 0.2114
C71 C 0.8311(3) 0.1940(3) 0.3155(3)
C72 C 0.5437(3) 0.3041(3) 0.3225(3)
H42 H 0.5099 0.2678 0.3415
C73 C 0.7349(3) 0.7486(3) 0.2104(4)
H43 H 0.7752 0.7178 0.2080
C74 C 0.7454(3) 0.8206(3) 0.1799(4)
H44 H 0.7921 0.8383 0.1556
C75 C 0.7597(3) 0.1929(4) 0.3027(4)
H45 H 0.7196 0.2143 0.3206
C76 C 0.6063(3) 0.7687(3) 0.2407(4)
H46 H 0.5580 0.7523 0.2576
C77 C 0.8758(3) 0.1289(4) 0.2496(4)
H47 H 0.9155 0.1072 0.2316
C78 C 0.5023(3) 0.2631(4) 0.2188(4)
H48 H 0.4611 0.2699 0.2483
C79 C 0.8711(5) 0.5327(3) 0.4197(3)
H49 H 0.8488 0.5603 0.4416
C80 C 0.9366(5) 0.5225(3) 0.3196(3)
H50 H 0.9594 0.5434 0.2726
C81 C 0.8662(5) 0.4580(3) 0.4564(3)
H51 H 0.8411 0.4367 0.5027
C82 C 0.8189(4) 0.2622(4) 0.5729(3)
H52 H 0.7848 0.2588 0.5482
C83 C 0.8110(4) 0.2963(3) 0.3437(3)
H53 H 0.7769 0.3165 0.3121
C84 C 0.8962(4) 0.2036(3) 0.4009(4)
H54 H 0.9208 0.1597 0.4095
C85 C 0.8888(3) 0.1604(4) 0.2888(4)
H55 H 0.9369 0.1589 0.2975
C86 C 0.8247(4) 0.3316(3) 0.3789(3)
H56 H 0.7987 0.3745 0.3720
C87 C 0.9315(6) 0.4486(3) 0.3563(3)
H57 H 0.9514 0.4211 0.3336
C88 C 0.9104(5) 0.2409(3) 0.4366(4)
H58 H 0.9439 0.2208 0.4687
H2 H 0.5023 0.9877 0.0849
H21 H 0.9965 0.0130 0.1986
N2 N 0.00792(15) 0.96361(18) 0.89944(16)
H21_2 H 0.0035 0.9870 0.8014
Zn4 Zn 0.12047(2) 0.99338(2) 0.87784(2)
O19 O 0.35445(18) 0.01117(16) 0.8526(2)
O20 O 0.2375(2) 0.03344(18) 0.8568(3)
H2_2 H 0.4977 0.0123 0.9151
O16 O 0.08644(19) 0.09549(16) 0.87414(16)
O18 O 0.10813(19) 0.08764(17) 0.77522(18)
Zn3 Zn 0.30547(2) 0.91831(2) 0.88787(3)
O1_2 O 0.46782(15) 0.82242(14) 0.05840(14)
O4 O 0.51892(13) 0.83208(16) 0.90675(16)
O5_2 O 0.39870(14) 0.85801(14) 0.91686(16)
O6_2 O 0.48094(17) 0.92009(15) 0.06555(16)
O7 O 0.15241(16) 0.93030(17) 0.83128(18)
O12_2 O 0.27339(17) 0.8959(2) 0.82220(19)
C1_2 C 0.4246(2) 0.74381(19) 0.20526(19)
H3_2 H 0.4272 0.7204 0.1780
C2_2 C 0.18797(18) 0.89922(18) 0.0107(2)
C3_2 C 0.17770(19) 0.8689(2) 0.08837(19)
N3_2 N 0.3804(3) 0.57975(17) 0.62245(18)
C5_2 C 0.4364(2) 0.8171(2) 0.1716(2)
H4_2 H 0.8627 0.9165 0.0195
C8_2 C 0.31356(18) 0.13231(19) 0.8150(2)
C9_2 C 0.3453(2) 0.35778(19) 0.7215(2)
C10_2 C 0.4091(2) 0.7053(2) 0.2778(2)
H5_2 H 0.4020 0.6564 0.2986
C11_2 C 0.1575(2) 0.8063(2) 0.2370(2)
C12_2 C 0.46263(19) 0.85587(19) 0.0945(2)
C13_2 C 0.0977(2) 0.8386(2) 0.2000(2)
H6_2 H 0.0501 0.8393 0.2247
C14_2 C 0.3344(2) 0.2793(2) 0.7555(2)
C15_2 C 0.45502(18) 0.82810(19) 0.8958(2)
C16_2 C 0.1439(2) 0.7697(2) 0.3152(2)
C17_2 C 0.1084(2) 0.8698(2) 0.1265(2)
H7_2 H 0.0679 0.8917 0.1028
C18_2 C 0.4040(3) 0.7384(2) 0.3206(2)
C19_2 C 0.3696(3) 0.50416(19) 0.6561(2)
C20_2 C 0.0895(2) 0.2049(2) 0.7658(2)
C21_2 C 0.0946(2) 0.1248(2) 0.8077(2)
C23_2 C 0.4262(3) 0.8516(2) 0.2141(2)
H9_2 H 0.4298 0.9009 0.1932
C24_2 C 0.2381(2) 0.8383(3) 0.1247(2)
H10_2 H 0.2857 0.8374 0.1000
C25_2 C 0.3962(3) 0.6967(2) 0.3994(2)
C26_2 C 0.4187(3) 0.4563(2) 0.6963(3)
H11_2 H 0.4606 0.4726 0.7018
N4_2 N 0.1067(3) 0.6591(2) 0.53949(19)
C27_2 C 0.0883(3) 0.3555(2) 0.6887(2)
C28_2 C 0.4466(2) 0.7850(2) 0.8607(2)
C29_2 C 0.4110(3) 0.8129(2) 0.2862(2)
H12_2 H 0.4052 0.8368 0.3133
C31_2 C 0.2998(2) 0.05454(19) 0.8451(2)
C32_2 C 0.3593(3) 0.5871(2) 0.7322(2)
H14_2 H 0.3272 0.5494 0.7520
C33_2 C 0.0909(3) 0.4342(2) 0.6495(2)
C34_2 C 0.3854(3) 0.6194(2) 0.5476(2)
C35_2 C 0.2078(2) 0.9010(2) 0.8093(2)
C36_2 C 0.3688(3) 0.7282(2) 0.4428(2)
H15_2 H 0.3545 0.7766 0.4223
C37_2 C 0.4075(2) 0.3834(2) 0.7293(3)
H16_2 H 0.4418 0.3514 0.7568
C38_2 C 0.1089(3) 0.2389(3) 0.6941(3)
H17_2 H 0.1234 0.2117 0.6703
C39_2 C 0.2269(3) 0.8089(3) 0.1988(2)
H18_2 H 0.2679 0.7909 0.2224
C40_2 C 0.3712(3) 0.6173(2) 0.7728(2)
H19_2 H 0.3462 0.6001 0.8190
C41_2 C 0.3621(3) 0.6906(2) 0.5147(2)
H20_2 H 0.3415 0.7133 0.5420
C42_2 C 0.4304(2) 0.7085(2) 0.7882(3)
C43_2 C 0.1954(3) 0.8708(3) 0.7636(3)
C44_2 C 0.3937(3) 0.6110(2) 0.6634(2)
C45_2 C 0.4194(3) 0.6728(2) 0.7468(2)
C47_2 C 0.4200(4) 0.6246(3) 0.4326(3)
H22_2 H 0.4402 0.6020 0.4051
H23_2 H 0.6149 0.9482 0.0102
C49_2 C 0.1024(3) 0.5844(2) 0.5746(2)
C50_2 C 0.1076(3) 0.3127(3) 0.6558(2)
H24_2 H 0.1200 0.3339 0.6068
C51_2 C 0.2960(3) 0.4069(2) 0.6805(3)
H25_2 H 0.2543 0.3910 0.6742
C52_2 C 0.0664(4) 0.3207(3) 0.7611(3)
H26_2 H 0.0505 0.3477 0.7850
C53_2 C 0.0674(4) 0.2462(3) 0.7995(3)
H27_2 H 0.0530 0.2245 0.8483
C54_2 C 0.3802(2) 0.7539(2) 0.8727(2)
H28_2 H 0.3402 0.7593 0.9040
C55_2 C 0.3720(3) 0.7145(2) 0.8383(3)
H29_2 H 0.3275 0.6920 0.8486
C56_2 C 0.4141(4) 0.5859(2) 0.5058(3)
H30_2 H 0.4293 0.5377 0.5268
C57_2 C 0.0817(3) 0.7280(3) 0.3523(3)
H31_2 H 0.0479 0.7239 0.3278
C58_2 C 0.1191(3) 0.6968(2) 0.4636(2)
C60_2 C 0.1232(4) 0.6961(2) 0.5752(2)
C61_2 C 0.3072(3) 0.4798(2) 0.6484(3)
H33_2 H 0.2727 0.5123 0.6217
C62_2 C 0.2527(3) 0.8396(3) 0.7361(3)
H34_2 H 0.3010 0.8400 0.7434
C63_2 C 0.0699(3) 0.6922(3) 0.4263(2)
H35_2 H 0.0280 0.6649 0.4504
C64_2 C 0.5062(3) 0.7746(3) 0.8159(3)
H36_2 H 0.5522 0.7932 0.8091
C65_2 C 0.1532(3) 0.7684(3) 0.6457(3)
C67_2 C 0.4438(4) 0.6660(3) 0.6365(3)
H38_2 H 0.4690 0.6826 0.5904
C68_2 C 0.1925(3) 0.7738(4) 0.3539(3)
H39_2 H 0.2342 0.8015 0.3301
C69_2 C 0.3826(3) 0.1589(3) 0.7879(4)
H40_2 H 0.4236 0.1277 0.7886
C71_2 C 0.1689(3) 0.8060(3) 0.6845(3)
C72_2 C 0.4563(3) 0.6959(3) 0.6775(3)
H42_2 H 0.4901 0.7322 0.6585
C73_2 C 0.2651(3) 0.2514(3) 0.7896(4)
H43_2 H 0.2248 0.2822 0.7920
C74_2 C 0.2546(3) 0.1794(3) 0.8201(4)
H44_2 H 0.2079 0.1617 0.8444
C75_2 C 0.2403(3) 0.8071(4) 0.6973(4)
H45_2 H 0.2804 0.7857 0.6794
C76_2 C 0.3937(3) 0.2313(3) 0.7593(4)
H46_2 H 0.4420 0.2477 0.7424
C77_2 C 0.1242(3) 0.8711(4) 0.7504(4)
H47_2 H 0.0845 0.8928 0.7684
C78_2 C 0.4977(3) 0.7369(4) 0.7812(4)
H48_2 H 0.5389 0.7301 0.7517
C79_2 C 0.1289(5) 0.4673(3) 0.5803(3)
H49_2 H 0.1512 0.4397 0.5584
C80_2 C 0.0634(5) 0.4775(3) 0.6804(3)
H50_2 H 0.0406 0.4566 0.7274
C81_2 C 0.1338(5) 0.5420(3) 0.5436(3)
H51_2 H 0.1589 0.5633 0.4973
C82_2 C 0.1811(4) 0.7378(4) 0.4271(3)
H52_2 H 0.2152 0.7412 0.4518
C83_2 C 0.1890(4) 0.7037(3) 0.6563(3)
H53_2 H 0.2231 0.6835 0.6879
C84_2 C 0.1038(4) 0.7964(3) 0.5991(4)
H54_2 H 0.0792 0.8403 0.5905
C85_2 C 0.1112(3) 0.8396(4) 0.7112(4)
H55_2 H 0.0631 0.8411 0.7025
C86_2 C 0.1753(4) 0.6684(3) 0.6211(3)
H56_2 H 0.2013 0.6255 0.6280
C87_2 C 0.0685(6) 0.5514(3) 0.6437(3)
H57_2 H 0.0486 0.5789 0.6664
C88_2 C 0.0896(5) 0.7591(3) 0.5634(4)
H58_2 H 0.0561 0.7792 0.5313
Zn7 Zn 0.51277(2) 0.88547(2) 0.96186(2)
O17 O 0.25145(16) 0.88426(18) 0.98231(16)
O2_2 O 0.13650(13) 0.93567(14) 0.97856(13)
O3_2 O 0.48502(15) 0.98483(14) 0.90034(15)
H1_2 H 0.4375 0.9898 0.9006
N1_2 N 0.62523(15) 0.90039(18) 0.95217(18)
C4_2 C 0.85716(19) 0.9376(2) 0.9211(2)
C6_2 C 0.89023(19) 0.9306(2) 0.9745(2)
C7_2 C 0.77620(19) 0.9252(2) 0.9314(2)
C22_2 C 0.96460(19) 0.9444(2) 0.9621(2)
H8_2 H 0.9858 0.9400 0.9994
C30_2 C 0.9025(2) 0.9567(3) 0.8549(2)
H13_2 H 0.8829 0.9594 0.8173
C46_2 C 0.9752(2) 0.9711(3) 0.8463(2)
C48_2 C 0.6494(2) 0.9333(4) 0.9816(4)
C59_2 C 0.6769(2) 0.8785(4) 0.9134(4)
H32_2 H 0.6615 0.8529 0.8939
C66_2 C 0.7244(2) 0.9470(4) 0.9719(3)
H37_2 H 0.7389 0.9712 0.9934
C70_2 C 0.7497(3) 0.8908(5) 0.9006(4)
H41_2 H 0.7826 0.8761 0.8708
loop_
_geom_bond_atom_site_label_1
_geom_bond_atom_site_label_2
_geom_bond_site_symmetry_1
_geom_bond_site_symmetry_2
Zn6 O2 1_555 1_555
O3 Zn2 1_555 1_555
H1 O3 1_555 1_555
N1 Zn2 1_555 1_555
C4 C6 1_555 1_555
C7 C4 1_555 1_555
C22 C6 1_555 1_555
H8 C22 1_555 1_555
C30 C4 1_555 1_555
H13 C30 1_555 1_555
C48 N1 1_555 1_555
C59 N1 1_555 1_555
H32 C59 1_555 1_555
C66 C7 1_555 1_555
H37 C66 1_555 1_555
C70 C7 1_555 1_555
H41 C70 1_555 1_555
Zn9 O9 1_555 1_555
O14 Zn2 1_555 1_555
O15 Zn6 1_555 1_555
N5 Zn6 1_555 1_555
C30 C46 1_555 1_555
C48 C66 1_555 1_555
C59 C70 1_555 1_555
Zn9 O5 1_555 1_555
O1 C12 1_555 1_555
O14 C15 1_555 1_555
O5 C15 1_555 1_555
O6 C12 1_555 1_555
O15 C35 1_555 1_555
O8 C21 1_555 1_555
O10 C21 1_555 1_555
O11 C31 1_555 1_555
O12 Zn9 1_555 1_555
C1 H3 1_555 1_555
C2 C3 1_555 1_555
C3 C17 1_555 1_555
N3 C19 1_555 1_555
C5 C1 1_555 1_555
C8 C31 1_555 1_555
C9 C14 1_555 1_555
C10 C1 1_555 1_555
H5 C10 1_555 1_555
C11 C13 1_555 1_555
C12 C5 1_555 1_555
C13 H6 1_555 1_555
C14 C73 1_555 1_555
O13 C31 1_555 1_555
C15 C28 1_555 1_555
C16 C11 1_555 1_555
C17 C13 1_555 1_555
H7 C17 1_555 1_555
C18 C10 1_555 1_555
C19 C26 1_555 1_555
C20 C21 1_555 1_555
C23 C5 1_555 1_555
H9 C23 1_555 1_555
C24 C3 1_555 1_555
H10 C24 1_555 1_555
C25 C18 1_555 1_555
C26 H11 1_555 1_555
N4 C49 1_555 1_555
C27 C33 1_555 1_555
C28 C54 1_555 1_555
C29 C18 1_555 1_555
H12 C29 1_555 1_555
C32 H14 1_555 1_555
C33 C79 1_555 1_555
C34 N3 1_555 1_555
C35 O12 1_555 1_555
C36 C25 1_555 1_555
H15 C36 1_555 1_555
C37 C9 1_555 1_555
H16 C37 1_555 1_555
C38 C20 1_555 1_555
H17 C38 1_555 1_555
C39 C11 1_555 1_555
H18 C39 1_555 1_555
C40 C32 1_555 1_555
H19 C40 1_555 1_555
C41 C34 1_555 1_555
H20 C41 1_555 1_555
C42 C45 1_555 1_555
C43 C35 1_555 1_555
C44 N3 1_555 1_555
C45 C40 1_555 1_555
C47 C25 1_555 1_555
H22 C47 1_555 1_555
C49 C81 1_555 1_555
C50 C27 1_555 1_555
H24 C50 1_555 1_555
C51 C9 1_555 1_555
H25 C51 1_555 1_555
C52 C27 1_555 1_555
H26 C52 1_555 1_555
C53 C20 1_555 1_555
H27 C53 1_555 1_555
C54 H28 1_555 1_555
C55 C42 1_555 1_555
H29 C55 1_555 1_555
C56 C34 1_555 1_555
H30 C56 1_555 1_555
C57 C16 1_555 1_555
H31 C57 1_555 1_555
C58 N4 1_555 1_555
C60 N4 1_555 1_555
C61 C19 1_555 1_555
H33 C61 1_555 1_555
C62 C43 1_555 1_555
H34 C62 1_555 1_555
C63 C57 1_555 1_555
H35 C63 1_555 1_555
C64 C28 1_555 1_555
H36 C64 1_555 1_555
C65 C71 1_555 1_555
C67 C44 1_555 1_555
H38 C67 1_555 1_555
C68 C16 1_555 1_555
H39 C68 1_555 1_555
C69 C8 1_555 1_555
H40 C69 1_555 1_555
C71 C75 1_555 1_555
C72 C45 1_555 1_555
H42 C72 1_555 1_555
C73 H43 1_555 1_555
C74 C8 1_555 1_555
H44 C74 1_555 1_555
C75 C62 1_555 1_555
H45 C75 1_555 1_555
C76 C14 1_555 1_555
H46 C76 1_555 1_555
C77 C43 1_555 1_555
H47 C77 1_555 1_555
C78 C42 1_555 1_555
H48 C78 1_555 1_555
C79 H49 1_555 1_555
C80 C33 1_555 1_555
H50 C80 1_555 1_555
C81 C79 1_555 1_555
H51 C81 1_555 1_555
C82 C58 1_555 1_555
H52 C82 1_555 1_555
C83 C65 1_555 1_555
H53 C83 1_555 1_555
C84 C65 1_555 1_555
H54 C84 1_555 1_555
C85 C71 1_555 1_555
H55 C85 1_555 1_555
C86 C60 1_555 1_555
H56 C86 1_555 1_555
C87 C49 1_555 1_555
H57 C87 1_555 1_555
C88 C60 1_555 1_555
H58 C88 1_555 1_555
C23 C29 1_555 1_555
C24 C39 1_555 1_555
C26 C37 1_555 1_555
C32 C44 1_555 1_555
C36 C41 1_555 1_555
C38 C50 1_555 1_555
C47 C56 1_555 1_555
C51 C61 1_555 1_555
C52 C53 1_555 1_555
C54 C55 1_555 1_555
C58 C63 1_555 1_555
C64 C78 1_555 1_555
C67 C72 1_555 1_555
C68 C82 1_555 1_555
C69 C76 1_555 1_555
C73 C74 1_555 1_555
C77 C85 1_555 1_555
C80 C87 1_555 1_555
C83 C86 1_555 1_555
C84 C88 1_555 1_555
Zn4 N2 1_555 1_555
Zn3 O5_2 1_555 1_555
O1_2 C12_2 1_555 1_555
O4 C15_2 1_555 1_555
O5_2 C15_2 1_555 1_555
O6_2 C12_2 1_555 1_555
O7 C35_2 1_555 1_555
O16 C21_2 1_555 1_555
O18 C21_2 1_555 1_555
O19 C31_2 1_555 1_555
O12_2 Zn3 1_555 1_555
C1_2 H3_2 1_555 1_555
C2_2 C3_2 1_555 1_555
C3_2 C17_2 1_555 1_555
N3_2 C19_2 1_555 1_555
C5_2 C1_2 1_555 1_555
C8_2 C31_2 1_555 1_555
C9_2 C14_2 1_555 1_555
C10_2 C1_2 1_555 1_555
H5_2 C10_2 1_555 1_555
C11_2 C13_2 1_555 1_555
C12_2 C5_2 1_555 1_555
C13_2 H6_2 1_555 1_555
C14_2 C73_2 1_555 1_555
O20 C31_2 1_555 1_555
C15_2 C28_2 1_555 1_555
C16_2 C11_2 1_555 1_555
C17_2 C13_2 1_555 1_555
H7_2 C17_2 1_555 1_555
C18_2 C10_2 1_555 1_555
C19_2 C26_2 1_555 1_555
C20_2 C21_2 1_555 1_555
C23_2 C5_2 1_555 1_555
H9_2 C23_2 1_555 1_555
C24_2 C3_2 1_555 1_555
H10_2 C24_2 1_555 1_555
C25_2 C18_2 1_555 1_555
C26_2 H11_2 1_555 1_555
N4_2 C49_2 1_555 1_555
C27_2 C33_2 1_555 1_555
C28_2 C54_2 1_555 1_555
C29_2 C18_2 1_555 1_555
H12_2 C29_2 1_555 1_555
C32_2 H14_2 1_555 1_555
C33_2 C79_2 1_555 1_555
C34_2 N3_2 1_555 1_555
C35_2 O12_2 1_555 1_555
C36_2 C25_2 1_555 1_555
H15_2 C36_2 1_555 1_555
C37_2 C9_2 1_555 1_555
H16_2 C37_2 1_555 1_555
C38_2 C20_2 1_555 1_555
H17_2 C38_2 1_555 1_555
C39_2 C11_2 1_555 1_555
H18_2 C39_2 1_555 1_555
C40_2 C32_2 1_555 1_555
H19_2 C40_2 1_555 1_555
C41_2 C34_2 1_555 1_555
H20_2 C41_2 1_555 1_555
C42_2 C45_2 1_555 1_555
C43_2 C35_2 1_555 1_555
C44_2 N3_2 1_555 1_555
C45_2 C40_2 1_555 1_555
C47_2 C25_2 1_555 1_555
H22_2 C47_2 1_555 1_555
C49_2 C81_2 1_555 1_555
C50_2 C27_2 1_555 1_555
H24_2 C50_2 1_555 1_555
C51_2 C9_2 1_555 1_555
H25_2 C51_2 1_555 1_555
C52_2 C27_2 1_555 1_555
H26_2 C52_2 1_555 1_555
C53_2 C20_2 1_555 1_555
H27_2 C53_2 1_555 1_555
C54_2 H28_2 1_555 1_555
C55_2 C42_2 1_555 1_555
H29_2 C55_2 1_555 1_555
C56_2 C34_2 1_555 1_555
H30_2 C56_2 1_555 1_555
C57_2 C16_2 1_555 1_555
H31_2 C57_2 1_555 1_555
C58_2 N4_2 1_555 1_555
C60_2 N4_2 1_555 1_555
C61_2 C19_2 1_555 1_555
H33_2 C61_2 1_555 1_555
C62_2 C43_2 1_555 1_555
H34_2 C62_2 1_555 1_555
C63_2 C57_2 1_555 1_555
H35_2 C63_2 1_555 1_555
C64_2 C28_2 1_555 1_555
H36_2 C64_2 1_555 1_555
C65_2 C71_2 1_555 1_555
C67_2 C44_2 1_555 1_555
H38_2 C67_2 1_555 1_555
C68_2 C16_2 1_555 1_555
H39_2 C68_2 1_555 1_555
C69_2 C8_2 1_555 1_555
H40_2 C69_2 1_555 1_555
C71_2 C75_2 1_555 1_555
C72_2 C45_2 1_555 1_555
H42_2 C72_2 1_555 1_555
C73_2 H43_2 1_555 1_555
C74_2 C8_2 1_555 1_555
H44_2 C74_2 1_555 1_555
C75_2 C62_2 1_555 1_555
H45_2 C75_2 1_555 1_555
C76_2 C14_2 1_555 1_555
H46_2 C76_2 1_555 1_555
C77_2 C43_2 1_555 1_555
H47_2 C77_2 1_555 1_555
C78_2 C42_2 1_555 1_555
H48_2 C78_2 1_555 1_555
C79_2 H49_2 1_555 1_555
C80_2 C33_2 1_555 1_555
H50_2 C80_2 1_555 1_555
C81_2 C79_2 1_555 1_555
H51_2 C81_2 1_555 1_555
C82_2 C58_2 1_555 1_555
H52_2 C82_2 1_555 1_555
C83_2 C65_2 1_555 1_555
H53_2 C83_2 1_555 1_555
C84_2 C65_2 1_555 1_555
H54_2 C84_2 1_555 1_555
C85_2 C71_2 1_555 1_555
H55_2 C85_2 1_555 1_555
C86_2 C60_2 1_555 1_555
H56_2 C86_2 1_555 1_555
C87_2 C49_2 1_555 1_555
H57_2 C87_2 1_555 1_555
C88_2 C60_2 1_555 1_555
H58_2 C88_2 1_555 1_555
Zn4 O7 1_555 1_555
Zn7 O4 1_555 1_555
O17 Zn3 1_555 1_555
C23_2 C29_2 1_555 1_555
C24_2 C39_2 1_555 1_555
C26_2 C37_2 1_555 1_555
C32_2 C44_2 1_555 1_555
C36_2 C41_2 1_555 1_555
C38_2 C50_2 1_555 1_555
C47_2 C56_2 1_555 1_555
C51_2 C61_2 1_555 1_555
C52_2 C53_2 1_555 1_555
C54_2 C55_2 1_555 1_555
C58_2 C63_2 1_555 1_555
C64_2 C78_2 1_555 1_555
C67_2 C72_2 1_555 1_555
C68_2 C82_2 1_555 1_555
C69_2 C76_2 1_555 1_555
C73_2 C74_2 1_555 1_555
C77_2 C85_2 1_555 1_555
C80_2 C87_2 1_555 1_555
C83_2 C86_2 1_555 1_555
C84_2 C88_2 1_555 1_555
Zn4 O2_2 1_555 1_555
O3_2 Zn7 1_555 1_555
H1_2 O3_2 1_555 1_555
N1_2 Zn7 1_555 1_555
C4_2 C6_2 1_555 1_555
C7_2 C4_2 1_555 1_555
C22_2 C6_2 1_555 1_555
H8_2 C22_2 1_555 1_555
C30_2 C4_2 1_555 1_555
H13_2 C30_2 1_555 1_555
C48_2 N1_2 1_555 1_555
C59_2 N1_2 1_555 1_555
H32_2 C59_2 1_555 1_555
C66_2 C7_2 1_555 1_555
H37_2 C66_2 1_555 1_555
C70_2 C7_2 1_555 1_555
H41_2 C70_2 1_555 1_555
C30_2 C46_2 1_555 1_555
C48_2 C66_2 1_555 1_555
C59_2 C70_2 1_555 1_555

#END
