
###############################################################################
#
# This file contains modified crystal structure data generated from the
# MOF subset of the Cambridge Structural Database (CSD) v543 
# hosted by the Cambridge Crystallographic Data Centre (CCDC).
#
# This work is licensed under the Creative Commons
# Attribution-NonCommercial-ShareAlike 4.0 International License.
# To view a copy of this license, visit
# http://creativecommons.org/licenses/by-nc-sa/4.0/
# or send a letter to
# Creative Commons, PO Box 1866, Mountain View, CA 94042, USA.
#
# CIF created using the CSD Python API on 29 September 2022
# The structure has been converted into the P1 space group
# The structure has a 3D framework
# The original CSD entry JEPWIN01 is in the orthorhombic crystal system
# The framework has been calculated to contain at least 10.0% void space
# The void calculation uses a probe of radius 1.32A, grid spacing 0.4
#
###############################################################################

data_JEPWIN01
_chemical_formula_moiety         '(C112 H80 Cd8 N16 O32)n'
_symmetry_cell_setting           triclinic
_symmetry_space_group_name_H-M   'P 1'
_symmetry_Int_Tables_number      1
_space_group_name_Hall           'P 1'
loop_
_symmetry_equiv_pos_site_id
_symmetry_equiv_pos_as_xyz
1 x,y,z
_cell_length_a                   18.0991(6)
_cell_length_b                   14.9797(5)
_cell_length_c                   15.0611(12)
_cell_angle_alpha                90
_cell_angle_beta                 90
_cell_angle_gamma                90
_cell_volume                     4083.35
loop_
_atom_site_label
_atom_site_type_symbol
_atom_site_fract_x
_atom_site_fract_y
_atom_site_fract_z
Cd4 Cd 0.03499(3) 0.87697(3) 0.19916(6)
N2 N 0.6660(5) 0.0927(6) 0.1629(8)
H1 H 0.6964(5) 0.1364(6) 0.1690(8)
C2 C 0.5098(9) 0.1303(10) 0.0081(13)
H3 H 0.4737(9) 0.1485(10) 0.0482(13)
C3 C 0.5749(8) 0.1061(7) 0.0349(11)
C6 C 0.5925(8) 0.1132(8) 0.1382(11)
H6 H 0.5815(8) 0.1735(8) 0.1575(11)
H7 H 0.5595(8) 0.0733(8) 0.1698(11)
C7 C 0.6931(5) 0.0054(6) 0.1785(13)
H9 H 0.7989(4) 0.0462(6) 0.1907(12)
Cd3 Cd 0.96501(3) 0.12303(3) 0.19916(6)
Cd1 Cd 0.53499(3) 0.12303(3) 0.69916(6)
N1 N 0.5482(5) 0.1095(6) 0.8508(7)
C1 C 0.4950(12) 0.1279(9) 0.9096(13)
H2 H 0.4474(12) 0.1395(9) 0.8892(13)
C4 C 0.6294(7) 0.0734(15) 0.9745(14)
H4 H 0.6745(7) 0.0504(15) 0.9932(14)
C5 C 0.6087(10) 0.0789(16) 0.8811(11)
H5 H 0.6429(10) 0.0580(16) 0.8399(11)
O6 O 0.4233(3) 0.0271(4) 0.6963(9)
O7 O 0.4123(3) 0.1698(5) 0.6992(12)
O8 O 0.5635(3) 0.2752(4) 0.6962(10)
O9 O 0.6600(3) 0.1882(4) 0.6948(9)
O1 O 0.9233(3) 0.9729(4) 0.1963(9)
O2 O 0.9123(3) 0.8302(5) 0.1992(12)
O3 O 0.5635(3) 0.7752(4) 0.1962(10)
O4 O 0.6600(3) 0.6882(4) 0.1948(9)
C8 C 0.6479(5) 0.9284(7) 0.1776(7)
H8 H 0.5973(5) 0.9328(7) 0.1676(7)
C9 C 0.7692(4) 0.9956(6) 0.1890(12)
C10 C 0.8014(4) 0.9126(5) 0.1971(12)
C11 C 0.7572(5) 0.8356(5) 0.1933(11)
H10 H 0.7784(5) 0.7791(5) 0.1916(11)
C12 C 0.6808(4) 0.8464(5) 0.1921(13)
C13 C 0.8839(4) 0.9041(6) 0.2059(14)
C14 C 0.6315(4) 0.7643(5) 0.1971(11)
Cd2 Cd 0.53499(3) 0.62303(3) 0.19916(6)
O5 O 0.5767(3) 0.9729(4) 0.6963(9)
O1_2 O 0.0767(3) 0.0271(4) 0.1963(9)
O2_2 O 0.0877(3) 0.1698(5) 0.1992(12)
O3_2 O 0.4365(3) 0.2248(4) 0.1962(10)
O4_2 O 0.3400(3) 0.3118(4) 0.1948(9)
C8_2 C 0.3521(5) 0.0716(7) 0.1776(7)
H8_2 H 0.4027(5) 0.0672(7) 0.1676(7)
C9_2 C 0.2308(4) 0.0044(6) 0.1890(12)
C10_2 C 0.1986(4) 0.0874(5) 0.1971(12)
C11_2 C 0.2428(5) 0.1644(5) 0.1933(11)
H10_2 H 0.2216(5) 0.2209(5) 0.1916(11)
C12_2 C 0.3192(4) 0.1536(5) 0.1921(13)
C13_2 C 0.1161(4) 0.0959(6) 0.2059(14)
C14_2 C 0.3685(4) 0.2357(5) 0.1971(11)
Cd2_2 Cd 0.46501(3) 0.37697(3) 0.19916(6)
N2_2 N 0.3340(5) 0.9073(6) 0.1629(8)
H1_2 H 0.3036(5) 0.8636(6) 0.1690(8)
C2_2 C 0.4902(9) 0.8697(10) 0.0081(13)
H3_2 H 0.5263(9) 0.8515(10) 0.0482(13)
C3_2 C 0.4251(8) 0.8939(7) 0.0349(11)
C6_2 C 0.4075(8) 0.8868(8) 0.1382(11)
H6_2 H 0.4185(8) 0.8265(8) 0.1575(11)
H7_2 H 0.4405(8) 0.9267(8) 0.1698(11)
C7_2 C 0.3069(5) 0.9946(6) 0.1785(13)
H9_2 H 0.2011(4) 0.9538(6) 0.1907(12)
Cd1_2 Cd 0.46501(3) 0.87697(3) 0.69916(6)
N1_2 N 0.4518(5) 0.8905(6) 0.8508(7)
C1_2 C 0.5050(12) 0.8721(9) 0.9096(13)
H2_2 H 0.5526(12) 0.8605(9) 0.8892(13)
C4_2 C 0.3706(7) 0.9266(15) 0.9745(14)
H4_2 H 0.3255(7) 0.9496(15) 0.9932(14)
C5_2 C 0.3913(10) 0.9211(16) 0.8811(11)
H5_2 H 0.3571(10) 0.9420(16) 0.8399(11)
O7_2 O 0.5877(3) 0.8302(5) 0.6992(12)
O8_2 O 0.4365(3) 0.7248(4) 0.6962(10)
O9_2 O 0.3400(3) 0.8118(4) 0.6948(9)
C1_3 C 0.0050(12) 0.6279(9) 0.9096(13)
H2_3 H 0.0526(12) 0.6395(9) 0.8892(13)
O6_2 O 0.0767(3) 0.5271(4) 0.6963(9)
O7_3 O 0.0877(3) 0.6698(5) 0.6992(12)
O1_3 O 0.5767(3) 0.4729(4) 0.1963(9)
O2_3 O 0.5877(3) 0.3302(5) 0.1992(12)
O3_3 O 0.9365(3) 0.2752(4) 0.1962(10)
O4_3 O 0.8400(3) 0.1882(4) 0.1948(9)
N2_3 N 0.8340(5) 0.5927(6) 0.1629(8)
H1_3 H 0.8036(5) 0.6364(6) 0.1690(8)
C2_3 C 0.9902(9) 0.6303(10) 0.0081(13)
C3_3 C 0.9251(8) 0.6061(7) 0.0349(11)
C6_3 C 0.9075(8) 0.6132(8) 0.1382(11)
H6_3 H 0.9185(8) 0.6735(8) 0.1575(11)
H7_3 H 0.9405(8) 0.5733(8) 0.1698(11)
C7_3 C 0.8069(5) 0.5054(6) 0.1785(13)
C8_3 C 0.8521(5) 0.4284(7) 0.1776(7)
H8_3 H 0.9027(5) 0.4328(7) 0.1676(7)
C9_3 C 0.7308(4) 0.4956(6) 0.1890(12)
H9_3 H 0.7011(4) 0.5462(6) 0.1907(12)
C10_3 C 0.6986(4) 0.4126(5) 0.1971(12)
C11_3 C 0.7428(5) 0.3356(5) 0.1933(11)
H10_3 H 0.7216(5) 0.2791(5) 0.1916(11)
C12_3 C 0.8192(4) 0.3464(5) 0.1921(13)
C13_3 C 0.6161(4) 0.4041(6) 0.2059(14)
C14_3 C 0.8685(4) 0.2643(5) 0.1971(11)
Cd1_3 Cd 0.96501(3) 0.62303(3) 0.69916(6)
N1_3 N 0.9518(5) 0.6095(6) 0.8508(7)
C4_3 C 0.8706(7) 0.5734(15) 0.9745(14)
H4_3 H 0.8255(7) 0.5504(15) 0.9932(14)
C5_3 C 0.8913(10) 0.5789(16) 0.8811(11)
H5_3 H 0.8571(10) 0.5580(16) 0.8399(11)
O5_2 O 0.9233(3) 0.4729(4) 0.6963(9)
O8_3 O 0.9365(3) 0.7752(4) 0.6962(10)
O9_3 O 0.8400(3) 0.6882(4) 0.6948(9)
O1_4 O 0.4233(3) 0.5271(4) 0.1963(9)
O2_4 O 0.4123(3) 0.6698(5) 0.1992(12)
O3_4 O 0.0635(3) 0.7248(4) 0.1962(10)
O4_4 O 0.1600(3) 0.8118(4) 0.1948(9)
N2_4 N 0.1660(5) 0.4073(6) 0.1629(8)
H1_4 H 0.1964(5) 0.3636(6) 0.1690(8)
C2_4 C 0.0098(9) 0.3697(10) 0.0081(13)
C3_4 C 0.0749(8) 0.3939(7) 0.0349(11)
C6_4 C 0.0925(8) 0.3868(8) 0.1382(11)
H6_4 H 0.0815(8) 0.3265(8) 0.1575(11)
H7_4 H 0.0595(8) 0.4267(8) 0.1698(11)
C7_4 C 0.1931(5) 0.4946(6) 0.1785(13)
C8_4 C 0.1479(5) 0.5716(7) 0.1776(7)
H8_4 H 0.0973(5) 0.5672(7) 0.1676(7)
C9_4 C 0.2692(4) 0.5044(6) 0.1890(12)
H9_4 H 0.2989(4) 0.4538(6) 0.1907(12)
C10_4 C 0.3014(4) 0.5874(5) 0.1971(12)
C11_4 C 0.2572(5) 0.6644(5) 0.1933(11)
H10_4 H 0.2784(5) 0.7209(5) 0.1916(11)
C12_4 C 0.1808(4) 0.6536(5) 0.1921(13)
C13_4 C 0.3839(4) 0.5959(6) 0.2059(14)
C14_4 C 0.1315(4) 0.7357(5) 0.1971(11)
Cd1_4 Cd 0.03499(3) 0.37697(3) 0.69916(6)
N1_4 N 0.0482(5) 0.3905(6) 0.8508(7)
C4_4 C 0.1294(7) 0.4266(15) 0.9745(14)
H4_4 H 0.1745(7) 0.4496(15) 0.9932(14)
C5_4 C 0.1087(10) 0.4211(16) 0.8811(11)
H5_4 H 0.1429(10) 0.4420(16) 0.8399(11)
O8_4 O 0.0635(3) 0.2248(4) 0.6962(10)
O9_4 O 0.1600(3) 0.3118(4) 0.6948(9)
C1_4 C 0.9950(12) 0.3721(9) 0.9096(13)
H2_4 H 0.9474(12) 0.3605(9) 0.8892(13)
O7_4 O 0.9123(3) 0.3302(5) 0.6992(12)
N1_5 N 0.5482(5) 0.6095(6) 0.3508(7)
N2_5 N 0.6660(5) 0.5927(6) 0.6629(8)
H1_5 H 0.6964(5) 0.6364(6) 0.6690(8)
C1_5 C 0.4950(12) 0.6279(9) 0.4096(13)
H2_5 H 0.4474(12) 0.6395(9) 0.3892(13)
C2_5 C 0.5098(9) 0.6303(10) 0.5081(13)
H3_3 H 0.4737(9) 0.6485(10) 0.5482(13)
C3_5 C 0.5749(8) 0.6061(7) 0.5349(11)
C4_5 C 0.6294(7) 0.5734(15) 0.4745(14)
H4_5 H 0.6745(7) 0.5504(15) 0.4932(14)
C5_5 C 0.6087(10) 0.5789(16) 0.3811(11)
H5_5 H 0.6429(10) 0.5580(16) 0.3399(11)
C6_5 C 0.5925(8) 0.6132(8) 0.6382(11)
H6_5 H 0.5815(8) 0.6735(8) 0.6575(11)
H7_5 H 0.5595(8) 0.5733(8) 0.6698(11)
C7_5 C 0.6931(5) 0.5054(6) 0.6785(13)
C8_5 C 0.6479(5) 0.4284(7) 0.6776(7)
H8_5 H 0.5973(5) 0.4328(7) 0.6676(7)
C9_5 C 0.7692(4) 0.4956(6) 0.6890(12)
H9_5 H 0.7989(4) 0.5462(6) 0.6907(12)
C10_5 C 0.8014(4) 0.4126(5) 0.6971(12)
C11_5 C 0.7572(5) 0.3356(5) 0.6933(11)
H10_5 H 0.7784(5) 0.2791(5) 0.6916(11)
C12_5 C 0.6808(4) 0.3464(5) 0.6921(13)
C13_5 C 0.8839(4) 0.4041(6) 0.7059(14)
C14_5 C 0.6315(4) 0.2643(5) 0.6971(11)
N1_6 N 0.4518(5) 0.3905(6) 0.3508(7)
N2_6 N 0.3340(5) 0.4073(6) 0.6629(8)
H1_6 H 0.3036(5) 0.3636(6) 0.6690(8)
C1_6 C 0.5050(12) 0.3721(9) 0.4096(13)
H2_6 H 0.5526(12) 0.3605(9) 0.3892(13)
C2_6 C 0.4902(9) 0.3697(10) 0.5081(13)
H3_4 H 0.5263(9) 0.3515(10) 0.5482(13)
C3_6 C 0.4251(8) 0.3939(7) 0.5349(11)
C4_6 C 0.3706(7) 0.4266(15) 0.4745(14)
H4_6 H 0.3255(7) 0.4496(15) 0.4932(14)
C5_6 C 0.3913(10) 0.4211(16) 0.3811(11)
H5_6 H 0.3571(10) 0.4420(16) 0.3399(11)
C6_6 C 0.4075(8) 0.3868(8) 0.6382(11)
H6_6 H 0.4185(8) 0.3265(8) 0.6575(11)
H7_6 H 0.4405(8) 0.4267(8) 0.6698(11)
C7_6 C 0.3069(5) 0.4946(6) 0.6785(13)
C8_6 C 0.3521(5) 0.5716(7) 0.6776(7)
H8_6 H 0.4027(5) 0.5672(7) 0.6676(7)
C9_6 C 0.2308(4) 0.5044(6) 0.6890(12)
H9_6 H 0.2011(4) 0.4538(6) 0.6907(12)
C10_6 C 0.1986(4) 0.5874(5) 0.6971(12)
C11_6 C 0.2428(5) 0.6644(5) 0.6933(11)
H10_6 H 0.2216(5) 0.7209(5) 0.6916(11)
C12_6 C 0.3192(4) 0.6536(5) 0.6921(13)
C13_6 C 0.1161(4) 0.5959(6) 0.7059(14)
C14_6 C 0.3685(4) 0.7357(5) 0.6971(11)
C1_7 C 0.0050(12) 0.1279(9) 0.4096(13)
H2_7 H 0.0526(12) 0.1395(9) 0.3892(13)
H3_5 H 0.0263(9) 0.1485(10) 0.5482(13)
N1_7 N 0.9518(5) 0.1095(6) 0.3508(7)
N2_7 N 0.8340(5) 0.0927(6) 0.6629(8)
H1_7 H 0.8036(5) 0.1364(6) 0.6690(8)
C2_7 C 0.9902(9) 0.1303(10) 0.5081(13)
C3_7 C 0.9251(8) 0.1061(7) 0.5349(11)
C4_7 C 0.8706(7) 0.0734(15) 0.4745(14)
H4_7 H 0.8255(7) 0.0504(15) 0.4932(14)
C5_7 C 0.8913(10) 0.0789(16) 0.3811(11)
H5_7 H 0.8571(10) 0.0580(16) 0.3399(11)
C6_7 C 0.9075(8) 0.1132(8) 0.6382(11)
H6_7 H 0.9185(8) 0.1735(8) 0.6575(11)
H7_7 H 0.9405(8) 0.0733(8) 0.6698(11)
C7_7 C 0.8069(5) 0.0054(6) 0.6785(13)
H9_7 H 0.7011(4) 0.0462(6) 0.6907(12)
C8_7 C 0.8521(5) 0.9284(7) 0.6776(7)
H8_7 H 0.9027(5) 0.9328(7) 0.6676(7)
C9_7 C 0.7308(4) 0.9956(6) 0.6890(12)
C10_7 C 0.6986(4) 0.9126(5) 0.6971(12)
C11_7 C 0.7428(5) 0.8356(5) 0.6933(11)
H10_7 H 0.7216(5) 0.7791(5) 0.6916(11)
C12_7 C 0.8192(4) 0.8464(5) 0.6921(13)
C13_7 C 0.6161(4) 0.9041(6) 0.7059(14)
C14_7 C 0.8685(4) 0.7643(5) 0.6971(11)
C8_8 C 0.1479(5) 0.0716(7) 0.6776(7)
H8_8 H 0.0973(5) 0.0672(7) 0.6676(7)
C9_8 C 0.2692(4) 0.0044(6) 0.6890(12)
C10_8 C 0.3014(4) 0.0874(5) 0.6971(12)
C11_8 C 0.2572(5) 0.1644(5) 0.6933(11)
H10_8 H 0.2784(5) 0.2209(5) 0.6916(11)
C12_8 C 0.1808(4) 0.1536(5) 0.6921(13)
C13_8 C 0.3839(4) 0.0959(6) 0.7059(14)
C14_8 C 0.1315(4) 0.2357(5) 0.6971(11)
N1_8 N 0.0482(5) 0.8905(6) 0.3508(7)
N2_8 N 0.1660(5) 0.9073(6) 0.6629(8)
H1_8 H 0.1964(5) 0.8636(6) 0.6690(8)
C2_8 C 0.0098(9) 0.8697(10) 0.5081(13)
C3_8 C 0.0749(8) 0.8939(7) 0.5349(11)
C4_8 C 0.1294(7) 0.9266(15) 0.4745(14)
H4_8 H 0.1745(7) 0.9496(15) 0.4932(14)
C5_8 C 0.1087(10) 0.9211(16) 0.3811(11)
H5_8 H 0.1429(10) 0.9420(16) 0.3399(11)
C6_8 C 0.0925(8) 0.8868(8) 0.6382(11)
H6_8 H 0.0815(8) 0.8265(8) 0.6575(11)
H7_8 H 0.0595(8) 0.9267(8) 0.6698(11)
C7_8 C 0.1931(5) 0.9946(6) 0.6785(13)
H9_8 H 0.2989(4) 0.9538(6) 0.6907(12)
C1_8 C 0.9950(12) 0.8721(9) 0.4096(13)
H2_8 H 0.9474(12) 0.8605(9) 0.3892(13)
H3_6 H 0.9737(9) 0.8515(10) 0.5482(13)
H3_7 H 0.0263(9) 0.6485(10) 0.0482(13)
H3_8 H 0.9737(9) 0.3515(10) 0.0482(13)
loop_
_geom_bond_atom_site_label_1
_geom_bond_atom_site_label_2
_geom_bond_site_symmetry_1
_geom_bond_site_symmetry_2
N2 H1 1_555 1_555
H3 C2 1_555 1_555
C3 C2 1_555 1_555
C6 N2 1_555 1_555
H6 C6 1_555 1_555
H7 C6 1_555 1_555
C7 N2 1_555 1_555
C3 C6 1_555 1_555
Cd1 N1 1_555 1_555
N1 C1 1_555 1_555
C1 H2 1_555 1_555
H4 C4 1_555 1_555
C5 N1 1_555 1_555
H5 C5 1_555 1_555
O6 Cd1 1_555 1_555
O7 Cd1 1_555 1_555
O8 Cd1 1_555 1_555
O9 Cd1 1_555 1_555
C4 C5 1_555 1_555
O1 C13 1_555 1_555
O2 C13 1_555 1_555
O3 C14 1_555 1_555
O4 C14 1_555 1_555
H8 C8 1_555 1_555
C10 C9 1_555 1_555
C11 C10 1_555 1_555
H10 C11 1_555 1_555
C12 C8 1_555 1_555
C13 C10 1_555 1_555
C14 C12 1_555 1_555
Cd2 O3 1_555 1_555
O4 Cd2 1_555 1_555
C11 C12 1_555 1_555
O1_2 C13_2 1_555 1_555
O2_2 C13_2 1_555 1_555
O3_2 C14_2 1_555 1_555
O4_2 C14_2 1_555 1_555
H8_2 C8_2 1_555 1_555
C10_2 C9_2 1_555 1_555
C11_2 C10_2 1_555 1_555
H10_2 C11_2 1_555 1_555
C12_2 C8_2 1_555 1_555
C13_2 C10_2 1_555 1_555
C14_2 C12_2 1_555 1_555
Cd2_2 O3_2 1_555 1_555
O4_2 Cd2_2 1_555 1_555
C11_2 C12_2 1_555 1_555
N2_2 H1_2 1_555 1_555
H3_2 C2_2 1_555 1_555
C3_2 C2_2 1_555 1_555
C6_2 N2_2 1_555 1_555
H6_2 C6_2 1_555 1_555
H7_2 C6_2 1_555 1_555
C7_2 N2_2 1_555 1_555
C3_2 C6_2 1_555 1_555
Cd1_2 N1_2 1_555 1_555
N1_2 C1_2 1_555 1_555
C1_2 H2_2 1_555 1_555
H4_2 C4_2 1_555 1_555
C5_2 N1_2 1_555 1_555
H5_2 C5_2 1_555 1_555
O5 Cd1_2 1_555 1_555
O7_2 Cd1_2 1_555 1_555
O8_2 Cd1_2 1_555 1_555
O9_2 Cd1_2 1_555 1_555
C4_2 C5_2 1_555 1_555
C1_3 H2_3 1_555 1_555
O1_3 C13_3 1_555 1_555
O2_3 C13_3 1_555 1_555
O3_3 C14_3 1_555 1_555
O4_3 C14_3 1_555 1_555
N2_3 H1_3 1_555 1_555
C3_3 C2_3 1_555 1_555
C6_3 N2_3 1_555 1_555
H6_3 C6_3 1_555 1_555
H7_3 C6_3 1_555 1_555
C7_3 N2_3 1_555 1_555
C8_3 C7_3 1_555 1_555
H8_3 C8_3 1_555 1_555
C9_3 C7_3 1_555 1_555
H9_3 C9_3 1_555 1_555
C10_3 C9_3 1_555 1_555
C11_3 C10_3 1_555 1_555
H10_3 C11_3 1_555 1_555
C12_3 C8_3 1_555 1_555
C13_3 C10_3 1_555 1_555
C14_3 C12_3 1_555 1_555
Cd3 O3_3 1_555 1_555
Cd2 O1_3 1_555 1_555
Cd2_2 O1_3 1_555 1_555
O2_3 Cd2_2 1_555 1_555
O4_3 Cd3 1_555 1_555
C3_3 C6_3 1_555 1_555
C11_3 C12_3 1_555 1_555
Cd1_3 N1_3 1_555 1_555
H4_3 C4_3 1_555 1_555
C5_3 N1_3 1_555 1_555
H5_3 C5_3 1_555 1_555
O5_2 Cd1_3 1_555 1_555
O8_3 Cd1_3 1_555 1_555
O9_3 Cd1_3 1_555 1_555
C4_3 C5_3 1_555 1_555
O1_4 C13_4 1_555 1_555
O2_4 C13_4 1_555 1_555
O3_4 C14_4 1_555 1_555
O4_4 C14_4 1_555 1_555
N2_4 H1_4 1_555 1_555
C3_4 C2_4 1_555 1_555
C6_4 N2_4 1_555 1_555
H6_4 C6_4 1_555 1_555
H7_4 C6_4 1_555 1_555
C7_4 N2_4 1_555 1_555
C8_4 C7_4 1_555 1_555
H8_4 C8_4 1_555 1_555
C9_4 C7_4 1_555 1_555
H9_4 C9_4 1_555 1_555
C10_4 C9_4 1_555 1_555
C11_4 C10_4 1_555 1_555
H10_4 C11_4 1_555 1_555
C12_4 C8_4 1_555 1_555
C13_4 C10_4 1_555 1_555
C14_4 C12_4 1_555 1_555
Cd4 O3_4 1_555 1_555
Cd2_2 O1_4 1_555 1_555
Cd2 O1_4 1_555 1_555
O2_4 Cd2 1_555 1_555
O4_4 Cd4 1_555 1_555
C3_4 C6_4 1_555 1_555
C11_4 C12_4 1_555 1_555
Cd1_4 N1_4 1_555 1_555
H4_4 C4_4 1_555 1_555
C5_4 N1_4 1_555 1_555
H5_4 C5_4 1_555 1_555
O6_2 Cd1_4 1_555 1_555
O8_4 Cd1_4 1_555 1_555
O9_4 Cd1_4 1_555 1_555
C4_4 C5_4 1_555 1_555
C1_4 H2_4 1_555 1_555
Cd2 N1_5 1_555 1_555
O5_2 C13_5 1_555 1_555
O7_4 C13_5 1_555 1_555
O8 C14_5 1_555 1_555
O9 C14_5 1_555 1_555
N1_5 C1_5 1_555 1_555
N2_5 H1_5 1_555 1_555
C1_5 H2_5 1_555 1_555
C2_5 C1_5 1_555 1_555
H3_3 C2_5 1_555 1_555
C3_5 C2_5 1_555 1_555
C4_5 C3_5 1_555 1_555
H4_5 C4_5 1_555 1_555
C5_5 N1_5 1_555 1_555
H5_5 C5_5 1_555 1_555
C6_5 N2_5 1_555 1_555
H6_5 C6_5 1_555 1_555
H7_5 C6_5 1_555 1_555
C7_5 N2_5 1_555 1_555
C8_5 C7_5 1_555 1_555
H8_5 C8_5 1_555 1_555
C9_5 C7_5 1_555 1_555
H9_5 C9_5 1_555 1_555
C10_5 C9_5 1_555 1_555
C11_5 C10_5 1_555 1_555
H10_5 C11_5 1_555 1_555
C12_5 C8_5 1_555 1_555
C13_5 C10_5 1_555 1_555
C14_5 C12_5 1_555 1_555
C3_5 C6_5 1_555 1_555
C4_5 C5_5 1_555 1_555
C11_5 C12_5 1_555 1_555
Cd2_2 N1_6 1_555 1_555
O6_2 C13_6 1_555 1_555
O7_3 C13_6 1_555 1_555
O8_2 C14_6 1_555 1_555
O9_2 C14_6 1_555 1_555
N1_6 C1_6 1_555 1_555
N2_6 H1_6 1_555 1_555
C1_6 H2_6 1_555 1_555
C2_6 C1_6 1_555 1_555
H3_4 C2_6 1_555 1_555
C3_6 C2_6 1_555 1_555
C4_6 C3_6 1_555 1_555
H4_6 C4_6 1_555 1_555
C5_6 N1_6 1_555 1_555
H5_6 C5_6 1_555 1_555
C6_6 N2_6 1_555 1_555
H6_6 C6_6 1_555 1_555
H7_6 C6_6 1_555 1_555
C7_6 N2_6 1_555 1_555
C8_6 C7_6 1_555 1_555
H8_6 C8_6 1_555 1_555
C9_6 C7_6 1_555 1_555
H9_6 C9_6 1_555 1_555
C10_6 C9_6 1_555 1_555
C11_6 C10_6 1_555 1_555
H10_6 C11_6 1_555 1_555
C12_6 C8_6 1_555 1_555
C13_6 C10_6 1_555 1_555
C14_6 C12_6 1_555 1_555
C3_6 C6_6 1_555 1_555
C4_6 C5_6 1_555 1_555
C11_6 C12_6 1_555 1_555
C1_7 H2_7 1_555 1_555
Cd3 N1_7 1_555 1_555
N2_7 H1_7 1_555 1_555
C3_7 C2_7 1_555 1_555
C4_7 C3_7 1_555 1_555
H4_7 C4_7 1_555 1_555
C5_7 N1_7 1_555 1_555
H5_7 C5_7 1_555 1_555
C6_7 N2_7 1_555 1_555
H6_7 C6_7 1_555 1_555
H7_7 C6_7 1_555 1_555
C7_7 N2_7 1_555 1_555
C3_7 C6_7 1_555 1_555
C4_7 C5_7 1_555 1_555
O5 C13_7 1_555 1_555
O7_2 C13_7 1_555 1_555
O8_3 C14_7 1_555 1_555
O9_3 C14_7 1_555 1_555
H8_7 C8_7 1_555 1_555
C10_7 C9_7 1_555 1_555
C11_7 C10_7 1_555 1_555
H10_7 C11_7 1_555 1_555
C12_7 C8_7 1_555 1_555
C13_7 C10_7 1_555 1_555
C14_7 C12_7 1_555 1_555
C11_7 C12_7 1_555 1_555
O6 C13_8 1_555 1_555
O7 C13_8 1_555 1_555
O8_4 C14_8 1_555 1_555
O9_4 C14_8 1_555 1_555
H8_8 C8_8 1_555 1_555
C10_8 C9_8 1_555 1_555
C11_8 C10_8 1_555 1_555
H10_8 C11_8 1_555 1_555
C12_8 C8_8 1_555 1_555
C13_8 C10_8 1_555 1_555
C14_8 C12_8 1_555 1_555
C11_8 C12_8 1_555 1_555
Cd4 N1_8 1_555 1_555
N2_8 H1_8 1_555 1_555
C3_8 C2_8 1_555 1_555
C4_8 C3_8 1_555 1_555
H4_8 C4_8 1_555 1_555
C5_8 N1_8 1_555 1_555
H5_8 C5_8 1_555 1_555
C6_8 N2_8 1_555 1_555
H6_8 C6_8 1_555 1_555
H7_8 C6_8 1_555 1_555
C7_8 N2_8 1_555 1_555
C3_8 C6_8 1_555 1_555
C4_8 C5_8 1_555 1_555
C1_8 H2_8 1_555 1_555

#END
