
###############################################################################
#
# This file contains modified crystal structure data generated from the
# MOF subset of the Cambridge Structural Database (CSD) v543 
# hosted by the Cambridge Crystallographic Data Centre (CCDC).
#
# This work is licensed under the Creative Commons
# Attribution-NonCommercial-ShareAlike 4.0 International License.
# To view a copy of this license, visit
# http://creativecommons.org/licenses/by-nc-sa/4.0/
# or send a letter to
# Creative Commons, PO Box 1866, Mountain View, CA 94042, USA.
#
# CIF created using the CSD Python API on 29 September 2022
# The structure has been converted into the P1 space group
# The structure has a 3D framework
# The original CSD entry JESTIN is in the monoclinic crystal system
# The framework has been calculated to contain at least 10.0% void space
# The void calculation uses a probe of radius 1.32A, grid spacing 0.4
#
###############################################################################

data_JESTIN
_chemical_formula_moiety         '(C104 H72 Cd4 N16 O28 S6 2-)n'
_symmetry_cell_setting           triclinic
_symmetry_space_group_name_H-M   'P 1'
_symmetry_Int_Tables_number      1
_space_group_name_Hall           'P 1'
loop_
_symmetry_equiv_pos_site_id
_symmetry_equiv_pos_as_xyz
1 x,y,z
_cell_length_a                   12.7840(2)
_cell_length_b                   9.5272(2)
_cell_length_c                   26.6342(6)
_cell_angle_alpha                90
_cell_angle_beta                 97.133(2)
_cell_angle_gamma                90
_cell_volume                     3218.83
loop_
_atom_site_label
_atom_site_type_symbol
_atom_site_fract_x
_atom_site_fract_y
_atom_site_fract_z
S1 S 0.000000 0.06239(16) 0.250000
O5 O 0.0973(3) 0.1380(3) 0.25398(14)
Cd1 Cd 0.12380(2) 0.39403(3) 0.03392(2)
O1 O 0.2448(2) 0.1911(3) 0.05050(11)
O2 O 0.0656(2) 0.5790(3) 0.07451(12)
O4 O 0.1968(2) 0.3173(3) 0.11334(12)
C11 C 0.0831(3) 0.7812(5) 0.15010(18)
H7 H 0.145637 0.734717 0.143437
C14 C 0.2477(3) 0.2178(4) 0.09730(16)
C16 C 0.3134(3) 0.1270(4) 0.13494(16)
C18 C 0.0866(4) 0.8806(5) 0.18850(19)
H11 H 0.151687 0.904261 0.207863
C20 C 0.3524(4) 0.0468(6) 0.22029(19)
H12 H 0.339377 0.048064 0.254637
C22 C 0.3924(3) 0.0419(5) 0.12029(17)
H14 H 0.404981 0.040059 0.085880
C23 C 0.2949(4) 0.1315(6) 0.18557(18)
H15 H 0.242944 0.192750 0.195829
C27 C 0.0055(4) 0.9441(4) 0.30196(16)
C29 C 0.0128(3) 0.7503(4) 0.37849(15)
C31 C 0.1044(4) 0.8144(6) 0.36794(17)
H21 H 0.169711 0.791594 0.387232
C32 C 0.0164(3) 0.6476(4) 0.42150(16)
C33 C 0.1010(4) 0.9126(5) 0.32897(18)
H22 H 0.163704 0.956900 0.321268
O10 O 0.1014(2) 0.6391(4) 0.45053(12)
O11 O 0.7552(2) 0.1911(3) 0.44950(11)
O12 O 0.8032(2) 0.3173(3) 0.38666(12)
C34 C 0.7523(3) 0.2178(4) 0.40270(16)
C35 C 0.6866(3) 0.1270(4) 0.36506(16)
C38 C 0.6476(4) 0.0468(6) 0.27971(19)
H24 H 0.660623 0.048064 0.245363
C39 C 0.6076(3) 0.0419(5) 0.37971(17)
H25 H 0.595019 0.040059 0.414120
C40 C 0.7051(4) 0.1315(6) 0.31443(18)
H26 H 0.757056 0.192750 0.304171
O14 O 0.3496(3) 0.0627(4) 0.39926(17)
N7 N 0.0229(2) 0.2578(3) 0.45687(13)
C41 C 0.1531(3) 0.0881(4) 0.48686(16)
H27 H 0.179123 0.022823 0.512342
C42 C 0.3047(3) 0.0331(5) 0.43601(19)
C43 C 0.0718(3) 0.2753(5) 0.41613(17)
H28 H 0.043005 0.340021 0.391007
C45 C 0.0637(3) 0.1638(4) 0.49132(16)
H29 H 0.028799 0.148997 0.520349
C46 C 0.2049(3) 0.1077(4) 0.44489(17)
C50 C 0.1633(3) 0.2032(4) 0.40850(19)
H33 H 0.196510 0.219165 0.379017
Cd5 Cd 0.87620(2) 0.39403(3) 0.46608(2)
Cd7 Cd 0.12380(2) 0.60597(3) 0.53392(2)
N9 N 0.2650(3) 0.5301(4) 0.01955(14)
O16 O 0.1014(2) 0.3609(4) 0.95053(12)
S2 S 0.500000 0.8478(2) 0.250000
O7 O 0.4256(5) 0.7725(5) 0.27532(17)
C17 C 0.4530(4) 0.9596(5) 0.15564(18)
H10 H 0.509288 0.904532 0.146145
C19 C 0.4297(4) 0.9590(5) 0.20539(18)
O13 O 0.5744(5) 0.7725(5) 0.22468(17)
C36 C 0.5470(4) 0.9596(5) 0.34436(18)
H23 H 0.490712 0.904532 0.353855
C37 C 0.5703(4) 0.9590(5) 0.29461(18)
N5 N 0.3400(3) 0.9342(4) 0.47035(15)
N6 N 0.4301(3) 0.8626(4) 0.46329(16)
N8 N 0.7350(3) 0.5301(4) 0.48045(14)
C44 C 0.5571(3) 0.6901(4) 0.49164(18)
C47 C 0.6008(4) 0.6901(5) 0.4460(2)
H30 H 0.570713 0.745200 0.418118
C48 C 0.6928(3) 0.5306(5) 0.52375(17)
H31 H 0.724908 0.474949 0.550996
C49 C 0.6047(3) 0.6082(5) 0.53095(17)
H32 H 0.577132 0.605515 0.562448
C51 C 0.4621(3) 0.7721(4) 0.49714(18)
H34 H 0.424930 0.758065 0.525471
C52 C 0.6885(4) 0.6081(5) 0.4424(2)
H35 H 0.717414 0.607163 0.411168
H36 H 0.307(4) 0.895(5) 0.4995(14)
O3 O 0.8986(2) 0.6391(4) 0.04947(12)
O6 O 0.6504(3) 0.0627(4) 0.10074(17)
N3 N 0.9771(2) 0.2578(3) 0.04313(13)
C1 C 0.8469(3) 0.0881(4) 0.01314(16)
C2 C 0.6953(3) 0.0331(5) 0.06399(19)
C3 C 0.9282(3) 0.2753(5) 0.08387(17)
H2 H 0.956995 0.340021 0.108993
C5 C 0.9363(3) 0.1638(4) 0.00868(16)
C6 C 0.7951(3) 0.1077(4) 0.05511(17)
C8 C 0.9945(4) 0.9441(4) 0.19804(16)
C12 C 0.8367(3) 0.2032(4) 0.09150(19)
H8 H 0.803490 0.219165 0.120983
C15 C 0.9872(3) 0.7503(4) 0.12151(15)
C21 C 0.8956(4) 0.8144(6) 0.13206(17)
H13 H 0.830289 0.791594 0.112768
C25 C 0.9836(3) 0.6476(4) 0.07850(16)
C26 C 0.8990(4) 0.9126(5) 0.17103(18)
H17 H 0.836296 0.956900 0.178732
O8 O 0.9344(2) 0.5790(3) 0.42549(12)
C28 C 0.9169(3) 0.7812(5) 0.34990(18)
H19 H 0.854363 0.734717 0.356563
C30 C 0.9134(4) 0.8806(5) 0.31150(19)
H20 H 0.848313 0.904261 0.292137
O17 O 0.8986(2) 0.3609(4) 0.54947(12)
H1 H 0.820877 0.022823 0.987658
H3 H 0.971201 0.148997 0.979651
Cd6 Cd 0.87620(2) 0.60597(3) 0.96608(2)
N1 N 0.6600(3) 0.9342(4) 0.02965(15)
N2 N 0.5699(3) 0.8626(4) 0.03671(16)
C4 C 0.4429(3) 0.6901(4) 0.00836(18)
C7 C 0.3992(4) 0.6901(5) 0.0540(2)
H4 H 0.429287 0.745200 0.081882
C13 C 0.5379(3) 0.7721(4) 0.00286(18)
C24 C 0.3115(4) 0.6081(5) 0.0576(2)
H16 H 0.282586 0.607163 0.088832
H18 H 0.693(4) 0.895(5) 0.0005(14)
N1_2 N 0.3400(3) 0.0658(4) 0.97035(15)
N2_2 N 0.4301(3) 0.1374(4) 0.96329(16)
N4 N 0.7350(3) 0.4699(4) 0.98045(14)
C4_2 C 0.5571(3) 0.3099(4) 0.99164(18)
C7_2 C 0.6008(4) 0.3099(5) 0.9460(2)
H4_2 H 0.570713 0.254800 0.918118
C13_2 C 0.4621(3) 0.2279(4) 0.99714(18)
C24_2 C 0.6885(4) 0.3919(5) 0.9424(2)
H16_2 H 0.717414 0.392837 0.911168
H18_2 H 0.307(4) 0.105(5) 0.9995(14)
H1_2 H 0.179123 0.977177 0.012342
H3_2 H 0.028799 0.851003 0.020349
O6_2 O 0.3496(3) 0.9373(4) 0.89926(17)
N3_2 N 0.0229(2) 0.7422(3) 0.95687(13)
C1_2 C 0.1531(3) 0.9119(4) 0.98686(16)
C2_2 C 0.3047(3) 0.9669(5) 0.93601(19)
C3_2 C 0.0718(3) 0.7247(5) 0.91613(17)
H2_2 H 0.043005 0.659979 0.891007
C5_2 C 0.0637(3) 0.8362(4) 0.99132(16)
C6_2 C 0.2049(3) 0.8923(4) 0.94489(17)
C8_2 C 0.0055(4) 0.0559(4) 0.80196(16)
C12_2 C 0.1633(3) 0.7968(4) 0.90850(19)
H8_2 H 0.196510 0.780835 0.879017
C15_2 C 0.0128(3) 0.2497(4) 0.87849(15)
C21_2 C 0.1044(4) 0.1856(6) 0.86794(17)
H13_2 H 0.169711 0.208406 0.887232
C25_2 C 0.0164(3) 0.3524(4) 0.92150(16)
C26_2 C 0.1010(4) 0.0874(5) 0.82897(18)
H17_2 H 0.163704 0.043100 0.821268
O8_2 O 0.0656(2) 0.4210(3) 0.57451(12)
C28_2 C 0.0831(3) 0.2188(5) 0.65010(18)
H19_2 H 0.145637 0.265283 0.643437
C30_2 C 0.0866(4) 0.1194(5) 0.68850(19)
H20_2 H 0.151687 0.095739 0.707863
O15 O 0.2448(2) 0.8089(3) 0.55050(11)
O18 O 0.1968(2) 0.6827(3) 0.61334(12)
N10 N 0.2650(3) 0.4699(4) 0.51955(14)
S2_2 S 0.500000 0.1522(2) 0.750000
O7_2 O 0.5744(5) 0.2275(5) 0.72468(17)
C17_2 C 0.5470(4) 0.0404(5) 0.84436(18)
H10_2 H 0.490712 0.095468 0.853855
C19_2 C 0.5703(4) 0.0410(5) 0.79461(18)
O13_2 O 0.4256(5) 0.2275(5) 0.77532(17)
C36_2 C 0.4530(4) 0.0404(5) 0.65564(18)
H23_2 H 0.509288 0.095468 0.646145
C37_2 C 0.4297(4) 0.0410(5) 0.70539(18)
N5_2 N 0.6600(3) 0.0658(4) 0.52965(15)
N6_2 N 0.5699(3) 0.1374(4) 0.53671(16)
C44_2 C 0.4429(3) 0.3099(4) 0.50836(18)
C47_2 C 0.3992(4) 0.3099(5) 0.5540(2)
H30_2 H 0.429287 0.254800 0.581882
C48_2 C 0.3072(3) 0.4694(5) 0.47625(17)
H31_2 H 0.275092 0.525051 0.449004
C49_2 C 0.3953(3) 0.3918(5) 0.46905(17)
H32_2 H 0.422868 0.394485 0.437552
C51_2 C 0.5379(3) 0.2279(4) 0.50286(18)
H34_2 H 0.575070 0.241935 0.474529
C52_2 C 0.3115(4) 0.3919(5) 0.5576(2)
H35_2 H 0.282586 0.392837 0.588832
H36_2 H 0.693(4) 0.105(5) 0.5005(14)
O1_2 O 0.7552(2) 0.8089(3) 0.94950(11)
O2_2 O 0.9344(2) 0.4210(3) 0.92549(12)
O4_2 O 0.8032(2) 0.6827(3) 0.88666(12)
C11_2 C 0.9169(3) 0.2188(5) 0.84990(18)
H7_2 H 0.854363 0.265283 0.856563
C14_2 C 0.7523(3) 0.7822(4) 0.90270(16)
C16_2 C 0.6866(3) 0.8730(4) 0.86506(16)
C18_2 C 0.9134(4) 0.1194(5) 0.81150(19)
H11_2 H 0.848313 0.095739 0.792137
C20_2 C 0.6476(4) 0.9532(6) 0.77971(19)
H12_2 H 0.660623 0.951936 0.745363
C22_2 C 0.6076(3) 0.9581(5) 0.87971(17)
H14_2 H 0.595019 0.959941 0.914120
C23_2 C 0.7051(4) 0.8685(6) 0.81443(18)
H15_2 H 0.757056 0.807250 0.804171
C27_2 C 0.9945(4) 0.0559(4) 0.69804(16)
C29_2 C 0.9872(3) 0.2497(4) 0.62151(15)
C31_2 C 0.8956(4) 0.1856(6) 0.63206(17)
H21_2 H 0.830289 0.208406 0.612768
C32_2 C 0.9836(3) 0.3524(4) 0.57850(16)
C33_2 C 0.8990(4) 0.0874(5) 0.67103(18)
H22_2 H 0.836296 0.043100 0.678732
C34_2 C 0.2477(3) 0.7822(4) 0.59730(16)
C35_2 C 0.3134(3) 0.8730(4) 0.63494(16)
C38_2 C 0.3524(4) 0.9532(6) 0.72029(19)
H24_2 H 0.339377 0.951936 0.754637
C39_2 C 0.3924(3) 0.9581(5) 0.62029(17)
H25_2 H 0.404981 0.959941 0.585880
C40_2 C 0.2949(4) 0.8685(6) 0.68557(18)
H26_2 H 0.242944 0.807250 0.695829
O14_2 O 0.6504(3) 0.9373(4) 0.60074(17)
N7_2 N 0.9771(2) 0.7422(3) 0.54313(13)
C41_2 C 0.8469(3) 0.9119(4) 0.51314(16)
H27_2 H 0.820877 0.977177 0.487658
C42_2 C 0.6953(3) 0.9669(5) 0.56399(19)
C43_2 C 0.9282(3) 0.7247(5) 0.58387(17)
H28_2 H 0.956995 0.659979 0.608993
C45_2 C 0.9363(3) 0.8362(4) 0.50868(16)
H29_2 H 0.971201 0.851003 0.479651
C46_2 C 0.7951(3) 0.8923(4) 0.55511(17)
C50_2 C 0.8367(3) 0.7968(4) 0.59150(19)
H33_2 H 0.803490 0.780835 0.620983
S1_2 S 1.000000 0.06239(16) 0.250000
O9 O 0.9027(3) 0.1380(3) 0.24602(14)
C9 C 0.3072(3) 0.5306(5) 0.97625(17)
H5 H 0.275092 0.474949 0.949004
C10 C 0.3953(3) 0.6082(5) 0.96905(17)
H6 H 0.422868 0.605515 0.937552
H9 H 0.575070 0.758065 0.974529
C9_2 C 0.6928(3) 0.4694(5) 0.02375(17)
H5_2 H 0.724908 0.525051 0.050996
C10_2 C 0.6047(3) 0.3918(5) 0.03095(17)
H6_2 H 0.577132 0.394485 0.062448
H9_2 H 0.424930 0.241935 0.025471
S1_3 S -0.000000 0.93761(16) 0.750000
O9_2 O 0.0973(3) 0.8620(3) 0.75398(14)
S1_4 S 1.000000 0.93761(16) 0.750000
O5_2 O 0.9027(3) 0.8620(3) 0.74602(14)
loop_
_geom_bond_atom_site_label_1
_geom_bond_atom_site_label_2
_geom_bond_site_symmetry_1
_geom_bond_site_symmetry_2
S1 O5 1_555 1_555
Cd1 O1 1_555 1_555
O1 C14 1_555 1_555
O2 Cd1 1_555 1_555
O4 Cd1 1_555 1_555
C11 H7 1_555 1_555
C14 O4 1_555 1_555
C16 C14 1_555 1_555
H11 C18 1_555 1_555
H12 C20 1_555 1_555
C22 C16 1_555 1_555
H14 C22 1_555 1_555
C23 C16 1_555 1_555
H15 C23 1_555 1_555
C31 C29 1_555 1_555
H21 C31 1_555 1_555
C32 C29 1_555 1_555
C33 C27 1_555 1_555
H22 C33 1_555 1_555
O10 C32 1_555 1_555
O11 C34 1_555 1_555
O12 C34 1_555 1_555
C34 C35 1_555 1_555
C35 C39 1_555 1_555
H24 C38 1_555 1_555
H25 C39 1_555 1_555
C40 C35 1_555 1_555
H26 C40 1_555 1_555
O14 C42 1_555 1_555
C41 H27 1_555 1_555
C43 N7 1_555 1_555
H28 C43 1_555 1_555
C45 N7 1_555 1_555
H29 C45 1_555 1_555
C46 C41 1_555 1_555
C50 C43 1_555 1_555
H33 C50 1_555 1_555
Cd5 O11 1_555 1_555
Cd7 O10 1_555 1_555
N9 Cd1 1_555 1_555
C11 C18 1_555 1_555
C20 C23 1_555 1_555
C31 C33 1_555 1_555
O12 Cd5 1_555 1_555
C38 C40 1_555 1_555
C41 C45 1_555 1_555
C42 C46 1_555 1_555
C46 C50 1_555 1_555
S2 O7 1_555 1_555
C17 H10 1_555 1_555
C19 S2 1_555 1_555
O13 S2 1_555 1_555
C36 H23 1_555 1_555
C37 S2 1_555 1_555
N5 N6 1_555 1_555
N6 C51 1_555 1_555
N8 C48 1_555 1_555
C44 C47 1_555 1_555
C47 H30 1_555 1_555
C48 H31 1_555 1_555
C49 C44 1_555 1_555
H32 C49 1_555 1_555
C51 C44 1_555 1_555
H34 C51 1_555 1_555
C52 N8 1_555 1_555
H35 C52 1_555 1_555
H36 N5 1_555 1_555
Cd5 N8 1_555 1_555
C17 C19 1_555 1_555
C36 C37 1_555 1_555
C47 C52 1_555 1_555
C48 C49 1_555 1_555
O3 C25 1_555 1_555
O6 C2 1_555 1_555
C3 N3 1_555 1_555
H2 C3 1_555 1_555
C5 N3 1_555 1_555
C6 C1 1_555 1_555
C12 C3 1_555 1_555
H8 C12 1_555 1_555
C21 C15 1_555 1_555
H13 C21 1_555 1_555
C26 C8 1_555 1_555
H17 C26 1_555 1_555
C28 H19 1_555 1_555
H20 C30 1_555 1_555
Cd5 O8 1_555 1_555
O17 Cd5 1_555 1_555
C1 C5 1_555 1_555
C2 C6 1_555 1_555
C6 C12 1_555 1_555
C15 C25 1_555 1_555
C21 C26 1_555 1_555
C28 C30 1_555 1_555
N1 N2 1_555 1_555
N2 C13 1_555 1_555
C4 C7 1_555 1_555
C7 H4 1_555 1_555
C13 C4 1_555 1_555
C24 N9 1_555 1_555
H16 C24 1_555 1_555
H18 N1 1_555 1_555
C7 C24 1_555 1_555
N1_2 N2_2 1_555 1_555
N2_2 C13_2 1_555 1_555
C4_2 C7_2 1_555 1_555
C7_2 H4_2 1_555 1_555
C13_2 C4_2 1_555 1_555
C24_2 N4 1_555 1_555
H16_2 C24_2 1_555 1_555
H18_2 N1_2 1_555 1_555
Cd6 N4 1_555 1_555
C7_2 C24_2 1_555 1_555
O16 C25_2 1_555 1_555
O6_2 C2_2 1_555 1_555
C3_2 N3_2 1_555 1_555
H2_2 C3_2 1_555 1_555
C5_2 N3_2 1_555 1_555
C6_2 C1_2 1_555 1_555
C12_2 C3_2 1_555 1_555
H8_2 C12_2 1_555 1_555
C21_2 C15_2 1_555 1_555
H13_2 C21_2 1_555 1_555
C26_2 C8_2 1_555 1_555
H17_2 C26_2 1_555 1_555
C28_2 H19_2 1_555 1_555
H20_2 C30_2 1_555 1_555
Cd7 O8_2 1_555 1_555
O15 Cd7 1_555 1_555
O18 Cd7 1_555 1_555
N10 Cd7 1_555 1_555
C1_2 C5_2 1_555 1_555
C2_2 C6_2 1_555 1_555
C6_2 C12_2 1_555 1_555
C15_2 C25_2 1_555 1_555
C21_2 C26_2 1_555 1_555
C28_2 C30_2 1_555 1_555
S2_2 O7_2 1_555 1_555
C17_2 H10_2 1_555 1_555
C19_2 S2_2 1_555 1_555
O13_2 S2_2 1_555 1_555
C36_2 H23_2 1_555 1_555
C37_2 S2_2 1_555 1_555
N5_2 N6_2 1_555 1_555
N6_2 C51_2 1_555 1_555
N10 C48_2 1_555 1_555
C44_2 C47_2 1_555 1_555
C47_2 H30_2 1_555 1_555
C48_2 H31_2 1_555 1_555
C49_2 C44_2 1_555 1_555
H32_2 C49_2 1_555 1_555
C51_2 C44_2 1_555 1_555
H34_2 C51_2 1_555 1_555
C52_2 N10 1_555 1_555
H35_2 C52_2 1_555 1_555
H36_2 N5_2 1_555 1_555
C17_2 C19_2 1_555 1_555
C36_2 C37_2 1_555 1_555
C47_2 C52_2 1_555 1_555
C48_2 C49_2 1_555 1_555
Cd6 O1_2 1_555 1_555
O1_2 C14_2 1_555 1_555
O2_2 Cd6 1_555 1_555
O4_2 Cd6 1_555 1_555
C11_2 H7_2 1_555 1_555
C14_2 O4_2 1_555 1_555
C16_2 C14_2 1_555 1_555
H11_2 C18_2 1_555 1_555
H12_2 C20_2 1_555 1_555
C22_2 C16_2 1_555 1_555
H14_2 C22_2 1_555 1_555
C23_2 C16_2 1_555 1_555
H15_2 C23_2 1_555 1_555
C31_2 C29_2 1_555 1_555
H21_2 C31_2 1_555 1_555
C32_2 C29_2 1_555 1_555
C33_2 C27_2 1_555 1_555
H22_2 C33_2 1_555 1_555
O17 C32_2 1_555 1_555
O15 C34_2 1_555 1_555
O18 C34_2 1_555 1_555
C34_2 C35_2 1_555 1_555
C35_2 C39_2 1_555 1_555
H24_2 C38_2 1_555 1_555
H25_2 C39_2 1_555 1_555
C40_2 C35_2 1_555 1_555
H26_2 C40_2 1_555 1_555
O14_2 C42_2 1_555 1_555
C41_2 H27_2 1_555 1_555
C43_2 N7_2 1_555 1_555
H28_2 C43_2 1_555 1_555
C45_2 N7_2 1_555 1_555
H29_2 C45_2 1_555 1_555
C46_2 C41_2 1_555 1_555
C50_2 C43_2 1_555 1_555
H33_2 C50_2 1_555 1_555
C11_2 C18_2 1_555 1_555
C20_2 C23_2 1_555 1_555
C31_2 C33_2 1_555 1_555
C38_2 C40_2 1_555 1_555
C41_2 C45_2 1_555 1_555
C42_2 C46_2 1_555 1_555
C46_2 C50_2 1_555 1_555
O9 S1_2 1_555 1_555
C9 H5 1_555 1_555
H6 C10 1_555 1_555
C9 C10 1_555 1_555
C9_2 H5_2 1_555 1_555
H6_2 C10_2 1_555 1_555
C9_2 C10_2 1_555 1_555
O9_2 S1_3 1_555 1_555
S1_4 O5_2 1_555 1_555

#END
