
###############################################################################
#
# This file contains modified crystal structure data generated from the
# MOF subset of the Cambridge Structural Database (CSD) v543 
# hosted by the Cambridge Crystallographic Data Centre (CCDC).
#
# This work is licensed under the Creative Commons
# Attribution-NonCommercial-ShareAlike 4.0 International License.
# To view a copy of this license, visit
# http://creativecommons.org/licenses/by-nc-sa/4.0/
# or send a letter to
# Creative Commons, PO Box 1866, Mountain View, CA 94042, USA.
#
# CIF created using the CSD Python API on 29 September 2022
# The structure has been converted into the P1 space group
# The structure has a 3D framework
# The original CSD entry JESTEJ is in the monoclinic crystal system
# The framework has been calculated to contain at least 10.0% void space
# The void calculation uses a probe of radius 1.32A, grid spacing 0.4
#
###############################################################################

data_JESTEJ
_chemical_formula_moiety         '(C104 H72 Cd4 N16 O28 S6)n'
_symmetry_cell_setting           triclinic
_symmetry_space_group_name_H-M   'P 1'
_symmetry_Int_Tables_number      1
_space_group_name_Hall           'P 1'
loop_
_symmetry_equiv_pos_site_id
_symmetry_equiv_pos_as_xyz
1 x,y,z
_cell_length_a                   12.7710(4)
_cell_length_b                   9.5275(4)
_cell_length_c                   26.7963(18)
_cell_angle_alpha                90
_cell_angle_beta                 96.845(4)
_cell_angle_gamma                90
_cell_volume                     3237.22
loop_
_atom_site_label
_atom_site_type_symbol
_atom_site_fract_x
_atom_site_fract_y
_atom_site_fract_z
Cd3 Cd 0.12178(2) 0.39449(2) 0.03404(2)
S1 S 0.0000 0.06329(13) 0.2500
N2 N 0.97496(17) 0.2594(3) 0.04324(12)
O6 O 0.0980(2) 0.1392(2) 0.25333(11)
C2 C 0.6941(2) 0.0306(3) 0.06452(17)
C3 C 0.8477(2) 0.0841(3) 0.01444(14)
C4 C 0.7939(2) 0.1058(3) 0.05522(14)
C5 C 0.9365(2) 0.1621(3) 0.00960(14)
C7 C 0.8337(3) 0.2057(4) 0.09063(16)
H4 H 0.7992 0.2230 0.1196
C8 C 0.9238(2) 0.2793(4) 0.08304(16)
H5 H 0.9503 0.3470 0.1073
O7 O 0.64891(19) 0.0595(3) 0.10057(13)
O1 O 0.24472(15) 0.1915(2) 0.05066(10)
O2 O 0.19652(16) 0.3203(2) 0.11300(10)
O3 O 0.06163(17) 0.5806(2) 0.07440(10)
N1 N 0.65935(19) 0.9322(3) 0.02980(13)
N3 N 0.26147(18) 0.5324(3) 0.01900(12)
N4 N 0.56776(19) 0.8617(3) 0.03678(13)
C1 C 0.3127(2) 0.1298(3) 0.13499(14)
C6 C 0.3936(2) 0.6963(4) 0.05186(18)
H3 H 0.4215 0.7551 0.0788
C9 C 0.2473(2) 0.2198(3) 0.09718(14)
C10 C 0.2941(3) 0.1335(4) 0.18519(15)
H6 H 0.2415 0.1943 0.1952
C11 C 0.4402(2) 0.6911(3) 0.00872(15)
C13 C 0.0809(2) 0.7870(4) 0.14875(16)
H7 H 0.1436 0.7418 0.1414
C16 C 0.3921(2) 0.0445(3) 0.12059(14)
H8 H 0.4049 0.0416 0.0864
C18 C 0.0855(2) 0.8839(4) 0.18717(16)
H10 H 0.1512 0.9073 0.2058
C20 C 0.3051(2) 0.6151(4) 0.05601(16)
H12 H 0.2741 0.6183 0.0865
C21 C 0.3517(3) 0.0493(4) 0.22050(15)
H13 H 0.3381 0.0500 0.2546
C22 C 0.5362(2) 0.7724(3) 0.00297(16)
C27 C 0.0060(3) 0.9462(3) 0.30185(14)
C29 C 0.0146(2) 0.7548(3) 0.37931(13)
C31 C 0.0192(2) 0.6525(3) 0.42174(14)
C32 C 0.1059(3) 0.8165(4) 0.36706(16)
H21 H 0.1718 0.7934 0.3856
C33 C 0.1019(3) 0.9119(4) 0.32784(16)
H22 H 0.1648 0.9532 0.3190
O10 O 0.10340(16) 0.6501(3) 0.45195(10)
O11 O 0.75528(15) 0.1915(2) 0.44934(10)
O12 O 0.80348(16) 0.3203(2) 0.38700(10)
C34 C 0.6873(2) 0.1298(3) 0.36501(14)
C35 C 0.7527(2) 0.2198(3) 0.40282(14)
C36 C 0.7059(3) 0.1335(4) 0.31481(15)
H23 H 0.7585 0.1943 0.3048
C38 C 0.6079(2) 0.0445(3) 0.37941(14)
H24 H 0.5951 0.0416 0.4136
C40 C 0.6483(3) 0.0493(4) 0.27950(15)
H26 H 0.6619 0.0500 0.2454
Cd5 Cd 0.87822(2) 0.39449(2) 0.46596(2)
Cd7 Cd 0.12178(2) 0.60551(2) 0.53404(2)
N10 N 0.02504(17) 0.2594(3) 0.45676(12)
C17 C 0.3066(2) 0.5284(4) 0.97649(15)
H9 H 0.2764 0.4702 0.9498
H14 H 0.5735 0.7586 0.9748
C24 C 0.3956(2) 0.6061(4) 0.96992(15)
H15 H 0.4257 0.6012 0.9392
H18 H 0.692(2) 0.911(3) 0.9992(9)
O17 O 0.10340(16) 0.3499(3) 0.95195(10)
S1_2 S 1.0000 0.06329(13) 0.2500
O9 O 0.9020(2) 0.1392(2) 0.24667(11)
C41 C 0.3059(2) 0.0306(3) 0.43548(17)
C42 C 0.1523(2) 0.0841(3) 0.48556(14)
H27 H 0.1762 0.0158 0.5101
C43 C 0.2061(2) 0.1058(3) 0.44478(14)
C44 C 0.0635(2) 0.1621(3) 0.49040(14)
H28 H 0.0276 0.1466 0.5190
C46 C 0.1663(3) 0.2057(4) 0.40937(16)
H30 H 0.2008 0.2230 0.3804
C47 C 0.0762(2) 0.2793(4) 0.41696(16)
H31 H 0.0497 0.3470 0.3927
O14 O 0.35109(19) 0.0595(3) 0.39943(13)
O4 O 0.89660(16) 0.6501(3) 0.04805(10)
C12 C 0.9940(3) 0.9462(3) 0.19815(14)
C14 C 0.9854(2) 0.7548(3) 0.12069(13)
C23 C 0.9808(2) 0.6525(3) 0.07826(14)
C25 C 0.8941(3) 0.8165(4) 0.13294(16)
H16 H 0.8282 0.7934 0.1144
C26 C 0.8981(3) 0.9119(4) 0.17216(16)
H17 H 0.8352 0.9532 0.1810
O8 O 0.93837(17) 0.5806(2) 0.42560(10)
C28 C 0.9191(2) 0.7870(4) 0.35125(16)
H19 H 0.8564 0.7418 0.3586
C30 C 0.9145(2) 0.8839(4) 0.31283(16)
H20 H 0.8488 0.9073 0.2942
N5 N 0.34065(19) 0.9322(3) 0.47020(13)
N7 N 0.73853(18) 0.5324(3) 0.48100(12)
N8 N 0.43224(19) 0.8617(3) 0.46322(13)
C45 C 0.6064(2) 0.6963(4) 0.44814(18)
H29 H 0.5785 0.7551 0.4212
C48 C 0.5598(2) 0.6911(3) 0.49128(15)
C49 C 0.6934(2) 0.5284(4) 0.52351(15)
H32 H 0.7236 0.4702 0.5502
C50 C 0.6949(2) 0.6151(4) 0.44399(16)
H33 H 0.7259 0.6183 0.4135
C51 C 0.4638(2) 0.7724(3) 0.49703(16)
H34 H 0.4265 0.7586 0.5252
C52 C 0.6044(2) 0.6061(4) 0.53008(15)
H35 H 0.5743 0.6012 0.5608
H36 H 0.308(2) 0.911(3) 0.5008(9)
O18 O 0.89660(16) 0.3499(3) 0.54805(10)
Cd6 Cd 0.87822(2) 0.60551(2) 0.96596(2)
C12_2 C 0.0060(3) 0.0538(3) 0.80185(14)
C14_2 C 0.0146(2) 0.2452(3) 0.87931(13)
C23_2 C 0.0192(2) 0.3475(3) 0.92174(14)
C25_2 C 0.1059(3) 0.1835(4) 0.86706(16)
H16_2 H 0.1718 0.2066 0.8856
C26_2 C 0.1019(3) 0.0881(4) 0.82784(16)
H17_2 H 0.1648 0.0468 0.8190
O8_2 O 0.06163(17) 0.4194(2) 0.57440(10)
C28_2 C 0.0809(2) 0.2130(4) 0.64875(16)
H19_2 H 0.1436 0.2582 0.6414
C30_2 C 0.0855(2) 0.1161(4) 0.68717(16)
H20_2 H 0.1512 0.0927 0.7058
N5_2 N 0.65935(19) 0.0678(3) 0.52980(13)
N7_2 N 0.26147(18) 0.4676(3) 0.51900(12)
N8_2 N 0.56776(19) 0.1383(3) 0.53678(13)
C45_2 C 0.3936(2) 0.3037(4) 0.55186(18)
H29_2 H 0.4215 0.2449 0.5788
C48_2 C 0.4402(2) 0.3089(3) 0.50872(15)
C49_2 C 0.3066(2) 0.4716(4) 0.47649(15)
H32_2 H 0.2764 0.5298 0.4498
C50_2 C 0.3051(2) 0.3849(4) 0.55601(16)
H33_2 H 0.2741 0.3817 0.5865
C51_2 C 0.5362(2) 0.2276(3) 0.50297(16)
H34_2 H 0.5735 0.2414 0.4748
C52_2 C 0.3956(2) 0.3939(4) 0.46992(15)
H35_2 H 0.4257 0.3988 0.4392
H36_2 H 0.692(2) 0.089(3) 0.4992(9)
O15 O 0.24472(15) 0.8085(2) 0.55066(10)
O16 O 0.19652(16) 0.6797(2) 0.61300(10)
N9 N 0.02504(17) 0.7406(3) 0.95676(12)
S1_3 S -0.0000 0.93671(13) 0.7500
O9_2 O 0.0980(2) 0.8608(2) 0.75333(11)
N6 N 0.97496(17) 0.7406(3) 0.54324(12)
C41_2 C 0.6941(2) 0.9694(3) 0.56452(17)
C42_2 C 0.8477(2) 0.9159(3) 0.51444(14)
H27_2 H 0.8238 0.9842 0.4899
C43_2 C 0.7939(2) 0.8942(3) 0.55522(14)
C44_2 C 0.9365(2) 0.8379(3) 0.50960(14)
H28_2 H 0.9724 0.8534 0.4810
C46_2 C 0.8337(3) 0.7943(4) 0.59063(16)
H30_2 H 0.7992 0.7770 0.6196
C47_2 C 0.9238(2) 0.7207(4) 0.58304(16)
H31_2 H 0.9503 0.6530 0.6073
O14_2 O 0.64891(19) 0.9405(3) 0.60057(13)
C17_2 C 0.6934(2) 0.4716(4) 0.02351(15)
H9_2 H 0.7236 0.5298 0.0502
H14_2 H 0.4265 0.2414 0.0252
C24_2 C 0.6044(2) 0.3939(4) 0.03008(15)
H15_2 H 0.5743 0.3988 0.0608
H18_2 H 0.308(2) 0.089(3) 0.0008(9)
O1_2 O 0.75528(15) 0.8085(2) 0.94934(10)
O2_2 O 0.80348(16) 0.6797(2) 0.88700(10)
O3_2 O 0.93837(17) 0.4194(2) 0.92560(10)
N1_2 N 0.34065(19) 0.0678(3) 0.97020(13)
N3_2 N 0.73853(18) 0.4676(3) 0.98100(12)
N4_2 N 0.43224(19) 0.1383(3) 0.96322(13)
C1_2 C 0.6873(2) 0.8702(3) 0.86501(14)
C6_2 C 0.6064(2) 0.3037(4) 0.94814(18)
H3_2 H 0.5785 0.2449 0.9212
C9_2 C 0.7527(2) 0.7802(3) 0.90282(14)
C10_2 C 0.7059(3) 0.8665(4) 0.81481(15)
H6_2 H 0.7585 0.8057 0.8048
C11_2 C 0.5598(2) 0.3089(3) 0.99128(15)
C13_2 C 0.9191(2) 0.2130(4) 0.85125(16)
H7_2 H 0.8564 0.2582 0.8586
C16_2 C 0.6079(2) 0.9555(3) 0.87941(14)
H8_2 H 0.5951 0.9584 0.9136
C18_2 C 0.9145(2) 0.1161(4) 0.81283(16)
H10_2 H 0.8488 0.0927 0.7942
C20_2 C 0.6949(2) 0.3849(4) 0.94399(16)
H12_2 H 0.7259 0.3817 0.9135
C21_2 C 0.6483(3) 0.9507(4) 0.77950(15)
H13_2 H 0.6619 0.9500 0.7454
C22_2 C 0.4638(2) 0.2276(3) 0.99703(16)
C27_2 C 0.9940(3) 0.0538(3) 0.69815(14)
C29_2 C 0.9854(2) 0.2452(3) 0.62069(13)
C31_2 C 0.9808(2) 0.3475(3) 0.57826(14)
C32_2 C 0.8941(3) 0.1835(4) 0.63294(16)
H21_2 H 0.8282 0.2066 0.6144
C33_2 C 0.8981(3) 0.0881(4) 0.67216(16)
H22_2 H 0.8352 0.0468 0.6810
C34_2 C 0.3127(2) 0.8702(3) 0.63499(14)
C35_2 C 0.2473(2) 0.7802(3) 0.59718(14)
C36_2 C 0.2941(3) 0.8665(4) 0.68519(15)
H23_2 H 0.2415 0.8057 0.6952
C38_2 C 0.3921(2) 0.9555(3) 0.62059(14)
H24_2 H 0.4049 0.9584 0.5864
C40_2 C 0.3517(3) 0.9507(4) 0.72050(15)
H26_2 H 0.3381 0.9500 0.7546
S1_4 S 1.0000 0.93671(13) 0.7500
O6_2 O 0.9020(2) 0.8608(2) 0.74667(11)
C2_2 C 0.3059(2) 0.9694(3) 0.93548(17)
C3_2 C 0.1523(2) 0.9159(3) 0.98556(14)
C4_2 C 0.2061(2) 0.8942(3) 0.94478(14)
C5_2 C 0.0635(2) 0.8379(3) 0.99040(14)
C7_2 C 0.1663(3) 0.7943(4) 0.90937(16)
H4_2 H 0.2008 0.7770 0.8804
C8_2 C 0.0762(2) 0.7207(4) 0.91696(16)
H5_2 H 0.0497 0.6530 0.8927
O7_2 O 0.35109(19) 0.9405(3) 0.89943(13)
H1 H 0.8238 0.0158 0.9899
H2 H 0.9724 0.1466 0.9810
S2 S 0.5000 0.85205(14) 0.2500
O5 O 0.4245(2) 0.7748(3) 0.27522(12)
C15 C 0.4293(2) 0.9642(4) 0.20522(14)
C19 C 0.4527(2) 0.9636(4) 0.15620(15)
H11 H 0.5094 0.9086 0.1470
O13 O 0.5755(2) 0.7748(3) 0.22478(12)
C37 C 0.5707(2) 0.9642(4) 0.29478(14)
C39 C 0.5473(2) 0.9636(4) 0.34380(15)
H25 H 0.4906 0.9086 0.3530
S2_2 S 0.5000 0.14795(14) 0.7500
O5_2 O 0.5755(2) 0.2252(3) 0.72478(12)
C15_2 C 0.5707(2) 0.0358(4) 0.79478(14)
C19_2 C 0.5473(2) 0.0364(4) 0.84380(15)
H11_2 H 0.4906 0.0914 0.8530
O13_2 O 0.4245(2) 0.2252(3) 0.77522(12)
C37_2 C 0.4293(2) 0.0358(4) 0.70522(14)
C39_2 C 0.4527(2) 0.0364(4) 0.65620(15)
H25_2 H 0.5094 0.0914 0.6470
H1_2 H 0.1762 0.9842 0.0101
H2_2 H 0.0276 0.8534 0.0190
loop_
_geom_bond_atom_site_label_1
_geom_bond_atom_site_label_2
_geom_bond_site_symmetry_1
_geom_bond_site_symmetry_2
S1 O6 1_555 1_555
N2 C5 1_555 1_555
C4 C2 1_555 1_555
C5 C3 1_555 1_555
C7 C4 1_555 1_555
H4 C7 1_555 1_555
C8 N2 1_555 1_555
H5 C8 1_555 1_555
O7 C2 1_555 1_555
C3 C4 1_555 1_555
C7 C8 1_555 1_555
Cd3 O1 1_555 1_555
O1 C9 1_555 1_555
O2 Cd3 1_555 1_555
O3 Cd3 1_555 1_555
N1 N4 1_555 1_555
N3 Cd3 1_555 1_555
N4 C22 1_555 1_555
C1 C9 1_555 1_555
C6 H3 1_555 1_555
C9 O2 1_555 1_555
C10 C1 1_555 1_555
H6 C10 1_555 1_555
C11 C6 1_555 1_555
C13 H7 1_555 1_555
C16 C1 1_555 1_555
H8 C16 1_555 1_555
H10 C18 1_555 1_555
C20 N3 1_555 1_555
H12 C20 1_555 1_555
C21 C10 1_555 1_555
H13 C21 1_555 1_555
C22 C11 1_555 1_555
C31 C29 1_555 1_555
C32 C29 1_555 1_555
H21 C32 1_555 1_555
C33 C27 1_555 1_555
H22 C33 1_555 1_555
O10 C31 1_555 1_555
O11 C35 1_555 1_555
O12 C35 1_555 1_555
C34 C35 1_555 1_555
C36 C34 1_555 1_555
H23 C36 1_555 1_555
C38 C34 1_555 1_555
H24 C38 1_555 1_555
C40 C36 1_555 1_555
H26 C40 1_555 1_555
Cd5 O11 1_555 1_555
Cd7 O10 1_555 1_555
C6 C20 1_555 1_555
C13 C18 1_555 1_555
C32 C33 1_555 1_555
O12 Cd5 1_555 1_555
H9 C17 1_555 1_555
H15 C24 1_555 1_555
C17 C24 1_555 1_555
O9 S1_2 1_555 1_555
N10 C44 1_555 1_555
C42 H27 1_555 1_555
C43 C41 1_555 1_555
C44 C42 1_555 1_555
H28 C44 1_555 1_555
C46 C43 1_555 1_555
H30 C46 1_555 1_555
C47 N10 1_555 1_555
H31 C47 1_555 1_555
O14 C41 1_555 1_555
C42 C43 1_555 1_555
C46 C47 1_555 1_555
O4 C23 1_555 1_555
C25 C14 1_555 1_555
H16 C25 1_555 1_555
C26 C12 1_555 1_555
H17 C26 1_555 1_555
C28 H19 1_555 1_555
H20 C30 1_555 1_555
Cd5 O8 1_555 1_555
N5 N8 1_555 1_555
N7 Cd5 1_555 1_555
N8 C51 1_555 1_555
C45 H29 1_555 1_555
C48 C45 1_555 1_555
C49 N7 1_555 1_555
H32 C49 1_555 1_555
C50 N7 1_555 1_555
H33 C50 1_555 1_555
C51 C48 1_555 1_555
H34 C51 1_555 1_555
C52 C48 1_555 1_555
H35 C52 1_555 1_555
H36 N5 1_555 1_555
O18 Cd5 1_555 1_555
C14 C23 1_555 1_555
C25 C26 1_555 1_555
C28 C30 1_555 1_555
C45 C50 1_555 1_555
C49 C52 1_555 1_555
O17 C23_2 1_555 1_555
C25_2 C14_2 1_555 1_555
H16_2 C25_2 1_555 1_555
C26_2 C12_2 1_555 1_555
H17_2 C26_2 1_555 1_555
C28_2 H19_2 1_555 1_555
H20_2 C30_2 1_555 1_555
Cd7 O8_2 1_555 1_555
N5_2 N8_2 1_555 1_555
N7_2 Cd7 1_555 1_555
N8_2 C51_2 1_555 1_555
C45_2 H29_2 1_555 1_555
C48_2 C45_2 1_555 1_555
C49_2 N7_2 1_555 1_555
H32_2 C49_2 1_555 1_555
C50_2 N7_2 1_555 1_555
H33_2 C50_2 1_555 1_555
C51_2 C48_2 1_555 1_555
H34_2 C51_2 1_555 1_555
C52_2 C48_2 1_555 1_555
H35_2 C52_2 1_555 1_555
H36_2 N5_2 1_555 1_555
O15 Cd7 1_555 1_555
O16 Cd7 1_555 1_555
C14_2 C23_2 1_555 1_555
C25_2 C26_2 1_555 1_555
C28_2 C30_2 1_555 1_555
C45_2 C50_2 1_555 1_555
C49_2 C52_2 1_555 1_555
O9_2 S1_3 1_555 1_555
N6 C44_2 1_555 1_555
C42_2 H27_2 1_555 1_555
C43_2 C41_2 1_555 1_555
C44_2 C42_2 1_555 1_555
H28_2 C44_2 1_555 1_555
C46_2 C43_2 1_555 1_555
H30_2 C46_2 1_555 1_555
C47_2 N6 1_555 1_555
H31_2 C47_2 1_555 1_555
O14_2 C41_2 1_555 1_555
C42_2 C43_2 1_555 1_555
C46_2 C47_2 1_555 1_555
H9_2 C17_2 1_555 1_555
H15_2 C24_2 1_555 1_555
C17_2 C24_2 1_555 1_555
Cd6 O1_2 1_555 1_555
O1_2 C9_2 1_555 1_555
O2_2 Cd6 1_555 1_555
O3_2 Cd6 1_555 1_555
N1_2 N4_2 1_555 1_555
N3_2 Cd6 1_555 1_555
N4_2 C22_2 1_555 1_555
C1_2 C9_2 1_555 1_555
C6_2 H3_2 1_555 1_555
C9_2 O2_2 1_555 1_555
C10_2 C1_2 1_555 1_555
H6_2 C10_2 1_555 1_555
C11_2 C6_2 1_555 1_555
C13_2 H7_2 1_555 1_555
C16_2 C1_2 1_555 1_555
H8_2 C16_2 1_555 1_555
H10_2 C18_2 1_555 1_555
C20_2 N3_2 1_555 1_555
H12_2 C20_2 1_555 1_555
C21_2 C10_2 1_555 1_555
H13_2 C21_2 1_555 1_555
C22_2 C11_2 1_555 1_555
C31_2 C29_2 1_555 1_555
C32_2 C29_2 1_555 1_555
H21_2 C32_2 1_555 1_555
C33_2 C27_2 1_555 1_555
H22_2 C33_2 1_555 1_555
O18 C31_2 1_555 1_555
O15 C35_2 1_555 1_555
O16 C35_2 1_555 1_555
C34_2 C35_2 1_555 1_555
C36_2 C34_2 1_555 1_555
H23_2 C36_2 1_555 1_555
C38_2 C34_2 1_555 1_555
H24_2 C38_2 1_555 1_555
C40_2 C36_2 1_555 1_555
H26_2 C40_2 1_555 1_555
C6_2 C20_2 1_555 1_555
C13_2 C18_2 1_555 1_555
C32_2 C33_2 1_555 1_555
S1_4 O6_2 1_555 1_555
N9 C5_2 1_555 1_555
C4_2 C2_2 1_555 1_555
C5_2 C3_2 1_555 1_555
C7_2 C4_2 1_555 1_555
H4_2 C7_2 1_555 1_555
C8_2 N9 1_555 1_555
H5_2 C8_2 1_555 1_555
O7_2 C2_2 1_555 1_555
C3_2 C4_2 1_555 1_555
C7_2 C8_2 1_555 1_555
S2 O5 1_555 1_555
C15 S2 1_555 1_555
C19 C15 1_555 1_555
H11 C19 1_555 1_555
O13 S2 1_555 1_555
C37 S2 1_555 1_555
C39 C37 1_555 1_555
H25 C39 1_555 1_555
S2_2 O5_2 1_555 1_555
C15_2 S2_2 1_555 1_555
C19_2 C15_2 1_555 1_555
H11_2 C19_2 1_555 1_555
O13_2 S2_2 1_555 1_555
C37_2 S2_2 1_555 1_555
C39_2 C37_2 1_555 1_555
H25_2 C39_2 1_555 1_555

#END
