
###############################################################################
#
# This file contains modified crystal structure data generated from the
# MOF subset of the Cambridge Structural Database (CSD) v543 
# hosted by the Cambridge Crystallographic Data Centre (CCDC).
#
# This work is licensed under the Creative Commons
# Attribution-NonCommercial-ShareAlike 4.0 International License.
# To view a copy of this license, visit
# http://creativecommons.org/licenses/by-nc-sa/4.0/
# or send a letter to
# Creative Commons, PO Box 1866, Mountain View, CA 94042, USA.
#
# CIF created using the CSD Python API on 29 September 2022
# The structure has been converted into the P1 space group
# The structure has a 3D framework
# The original CSD entry JETLUS is in the monoclinic crystal system
# The framework has been calculated to contain at least 10.0% void space
# The void calculation uses a probe of radius 1.32A, grid spacing 0.4
# H atom positions have been added when not included in the experimental data
# Generated hydrogen atom positions removed from atoms on special positions
#
###############################################################################

data_JETLUS
_chemical_formula_moiety         '(C84 H68 Co10 N4 O32)n'
_symmetry_cell_setting           triclinic
_symmetry_space_group_name_H-M   'P 1'
_symmetry_Int_Tables_number      1
_space_group_name_Hall           'P 1'
loop_
_symmetry_equiv_pos_site_id
_symmetry_equiv_pos_as_xyz
1 x,y,z
_cell_length_a                   12.80(2)
_cell_length_b                   15.89(2)
_cell_length_c                   12.649(19)
_cell_angle_alpha                90
_cell_angle_beta                 92.076(18)
_cell_angle_gamma                90
_cell_volume                     2571.02
loop_
_atom_site_label
_atom_site_type_symbol
_atom_site_fract_x
_atom_site_fract_y
_atom_site_fract_z
Co1 Co 0.0000 0.0000 0.0000
C22 C 0.6034(7) 0.5952(6) 0.1925(6)
H14 H 0.6139 0.6489 0.2200
C23 C 0.5409(8) 0.5848(6) 0.0975(6)
H15 H 0.5067 0.6308 0.0670
C24 C 0.5313(6) 0.5069(5) 0.0513(5)
C25 C 0.5778(8) 0.4412(6) 0.1039(8)
H16 H 0.5719 0.3871 0.0764
C26 C 0.6334(8) 0.4547(5) 0.1971(7)
H17 H 0.6639 0.4086 0.2314
N2 N 0.6460(5) 0.5307(4) 0.2413(4)
Co9 Co 0.76555(8) 0.55018(6) 0.36220(7)
Co11 Co 0.23445(8) 0.05018(6) 0.13780(7)
O18 O 0.0933(4) 0.1039(3) 0.0676(3)
Co1_2 Co 0.0000 0.0000 1.0000
Co2 Co 0.23445(8) 0.44982(6) 0.63780(7)
C1 C 0.0223(6) 0.2659(4) 0.6282(5)
C6 C 0.0168(6) 0.2060(4) 0.7092(5)
H3 H 0.0617 0.2096 0.7685
C7 C 0.0974(6) 0.3344(4) 0.6352(5)
C17 C 0.3966(7) 0.4048(6) 0.8075(6)
H10 H 0.3861 0.3511 0.7800
C18 C 0.4591(8) 0.4152(6) 0.9025(6)
H11 H 0.4933 0.3692 0.9330
C19 C 0.4687(6) 0.4931(5) 0.9487(5)
C20 C 0.4222(8) 0.5588(6) 0.8961(8)
H12 H 0.4281 0.6129 0.9236
C21 C 0.3666(8) 0.5453(5) 0.8029(7)
H13 H 0.3361 0.5914 0.7686
N1 N 0.3540(5) 0.4693(4) 0.7587(4)
O1 O 0.1714(4) 0.3337(3) 0.7023(3)
O2 O 0.0933(4) 0.3961(3) 0.5676(3)
O8 O 0.3354(5) 0.3718(4) 0.5526(4)
Co6 Co 0.0000 0.5000 0.5000
O20 O 0.1471(4) 0.5277(3) 0.7257(4)
O23 O 0.2809(4) 0.5455(3) 0.5409(4)
Co1_3 Co 0.0000 1.0000 0.0000
O15 O 0.2809(4) 0.9545(3) 0.0409(4)
O19 O 0.0085(4) 0.9219(3) 0.1338(3)
Co1_4 Co 0.0000 1.0000 1.0000
C28 C 0.0461(6) 0.7389(4) 0.4617(5)
H18 H 0.0425 0.6995 0.5158
C29 C 0.1207(7) 0.8052(4) 0.4680(5)
C30 C 0.1242(6) 0.8641(4) 0.3872(5)
H19 H 0.1730 0.9074 0.3922
C31 C 0.0568(6) 0.8598(4) 0.2996(5)
C34 C 0.0709(6) 0.9237(4) 0.2121(5)
C35 C 0.1941(8) 0.7589(5) 0.6300(5)
H21 H 0.1239 0.7475 0.6524
H22 H 0.2235 0.7069 0.6042
C36 C 0.2601(6) 0.7915(4) 0.7219(5)
C37 C 0.2205(6) 0.8466(4) 0.7937(5)
H23 H 0.1535 0.8678 0.7810
C38 C 0.2752(5) 0.8720(4) 0.8831(5)
C39 C 0.3748(6) 0.8400(4) 0.9038(6)
H24 H 0.4119 0.8546 0.9656
C40 C 0.4184(7) 0.7860(5) 0.8309(6)
H25 H 0.4859 0.7659 0.8434
C41 C 0.3627(7) 0.7619(5) 0.7404(6)
H26 H 0.3930 0.7262 0.6918
C42 C 0.2266(6) 0.9298(4) 0.9605(5)
O12 O 0.1471(4) 0.9723(3) 0.2257(4)
O13 O 0.1910(5) 0.8188(3) 0.5501(4)
O14 O 0.1323(4) 0.9489(3) 0.9398(4)
Co1_5 Co 1.0000 0.0000 0.0000
O22 O 0.8677(4) 0.0511(3) 0.0602(4)
Co1_6 Co 1.0000 0.0000 1.0000
C2 C 0.9539(6) 0.2611(4) 0.5383(5)
H1 H 0.9575 0.3005 0.4842
C3 C 0.8793(7) 0.1948(4) 0.5320(5)
C4 C 0.8758(6) 0.1359(4) 0.6128(5)
H2 H 0.8270 0.0926 0.6078
C5 C 0.9432(6) 0.1402(4) 0.7004(5)
C8 C 0.9291(6) 0.0763(4) 0.7879(5)
C9 C 0.8059(8) 0.2411(5) 0.3700(5)
H4 H 0.8761 0.2525 0.3476
H5 H 0.7765 0.2931 0.3958
C10 C 0.7399(6) 0.2085(4) 0.2781(5)
C11 C 0.7795(6) 0.1534(4) 0.2063(5)
H6 H 0.8465 0.1322 0.2190
C12 C 0.7248(5) 0.1280(4) 0.1169(5)
C13 C 0.6252(6) 0.1600(4) 0.0962(6)
H7 H 0.5881 0.1454 0.0344
C14 C 0.5816(7) 0.2140(5) 0.1691(6)
H8 H 0.5141 0.2341 0.1566
C15 C 0.6373(7) 0.2381(5) 0.2596(6)
H9 H 0.6070 0.2738 0.3082
C16 C 0.7734(6) 0.0702(4) 0.0395(5)
O3 O 0.9915(4) 0.0781(3) 0.8662(3)
O4 O 0.8529(4) 0.0277(3) 0.7743(4)
O5 O 0.8090(5) 0.1812(3) 0.4499(4)
Co6_2 Co 1.0000 0.5000 0.5000
O7 O 0.7191(4) 0.0455(3) 0.9591(4)
Co1_7 Co 1.0000 1.0000 0.0000
Co1_8 Co 1.0000 1.0000 1.0000
C27 C 0.9777(6) 0.7341(4) 0.3718(5)
C32 C 0.9832(6) 0.7940(4) 0.2908(5)
H20 H 0.9383 0.7904 0.2315
C33 C 0.9026(6) 0.6656(4) 0.3648(5)
O9 O 0.8286(4) 0.6663(3) 0.2977(3)
O10 O 0.9067(4) 0.6039(3) 0.4324(3)
O16 O 0.6646(5) 0.6282(4) 0.4474(4)
Co8 Co 0.76555(8) 0.94982(6) 0.86220(7)
O17 O 0.9067(4) 0.8961(3) 0.9324(3)
O21 O 0.8529(4) 0.4723(3) 0.2743(4)
O24 O 0.7191(4) 0.4545(3) 0.4591(4)
H1_2 H 0.0425 0.8005 0.0158
C9_2 C 0.1941(8) 0.7411(5) 0.1300(5)
H4_2 H 0.1239 0.7525 0.1524
H5_2 H 0.2235 0.7931 0.1042
C10_2 C 0.2601(6) 0.7085(4) 0.2219(5)
C11_2 C 0.2205(6) 0.6534(4) 0.2937(5)
H6_2 H 0.1535 0.6322 0.2810
C12_2 C 0.2752(5) 0.6280(4) 0.3831(5)
C13_2 C 0.3748(6) 0.6600(4) 0.4038(6)
H7_2 H 0.4119 0.6454 0.4656
C14_2 C 0.4184(7) 0.7140(5) 0.3309(6)
H8_2 H 0.4859 0.7341 0.3434
C15_2 C 0.3627(7) 0.7381(5) 0.2404(6)
H9_2 H 0.3930 0.7738 0.1918
C16_2 C 0.2266(6) 0.5702(4) 0.4605(5)
O5_2 O 0.1910(5) 0.6812(3) 0.0501(4)
O6 O 0.1323(4) 0.5511(3) 0.4398(4)
C27_2 C 0.0223(6) 0.2341(4) 0.1282(5)
C32_2 C 0.0168(6) 0.2940(4) 0.2092(5)
H20_2 H 0.0617 0.2904 0.2685
C33_2 C 0.0974(6) 0.1656(4) 0.1352(5)
O9_2 O 0.1714(4) 0.1663(3) 0.2023(3)
O16_2 O 0.3354(5) 0.1282(4) 0.0526(4)
N3 N 0.3540(5) 0.0307(4) 0.2587(4)
C2_2 C 0.0461(6) 0.7611(4) 0.9617(5)
C3_2 C 0.1207(7) 0.6948(4) 0.9680(5)
C4_2 C 0.1242(6) 0.6359(4) 0.8872(5)
H2_2 H 0.1730 0.5926 0.8922
C5_2 C 0.0568(6) 0.6402(4) 0.7996(5)
C8_2 C 0.0709(6) 0.5763(4) 0.7121(5)
O3_2 O 0.0085(4) 0.5781(3) 0.6338(3)
C20_2 C 0.5778(8) 0.0588(6) 0.6039(8)
H12_2 H 0.5719 0.1129 0.5764
C21_2 C 0.6334(8) 0.0453(5) 0.6971(7)
H13_2 H 0.6639 0.0914 0.7314
C22_2 C 0.3966(7) 0.0952(6) 0.3075(6)
H14_2 H 0.3861 0.1489 0.2800
C23_2 C 0.4591(8) 0.0848(6) 0.4025(6)
H15_2 H 0.4933 0.1308 0.4330
C24_2 C 0.4687(6) 0.0069(5) 0.4487(5)
C28_2 C 0.9539(6) 0.2389(4) 0.0383(5)
C29_2 C 0.8793(7) 0.3052(4) 0.0320(5)
C30_2 C 0.8758(6) 0.3641(4) 0.1128(5)
H19_2 H 0.8270 0.4074 0.1078
C31_2 C 0.9432(6) 0.3598(4) 0.2004(5)
C34_2 C 0.9291(6) 0.4237(4) 0.2879(5)
O11 O 0.9915(4) 0.4219(3) 0.3662(3)
H28 H 0.701601 0.851591 0.0129306
C1_2 C 0.9777(6) 0.7659(4) 0.8718(5)
C6_2 C 0.9832(6) 0.7060(4) 0.7908(5)
H3_2 H 0.9383 0.7096 0.7315
C7_2 C 0.9026(6) 0.8344(4) 0.8648(5)
C17_2 C 0.6034(7) 0.9048(6) 0.6925(6)
H10_2 H 0.6139 0.8511 0.7200
C18_2 C 0.5409(8) 0.9152(6) 0.5975(6)
H11_2 H 0.5067 0.8692 0.5670
C19_2 C 0.5313(6) 0.9931(5) 0.5513(5)
N1_2 N 0.6460(5) 0.9693(4) 0.7413(4)
O1_2 O 0.8286(4) 0.8337(3) 0.7977(3)
O8_2 O 0.6646(5) 0.8718(4) 0.9474(4)
C25_2 C 0.4222(8) 0.9412(6) 0.3961(8)
H16_2 H 0.4281 0.8871 0.4236
C26_2 C 0.3666(8) 0.9547(5) 0.3029(7)
H17_2 H 0.3361 0.9086 0.2686
H18_2 H 0.9575 0.1995 0.9842
C35_2 C 0.8059(8) 0.2589(5) 0.8700(5)
H21_2 H 0.8761 0.2475 0.8476
H22_2 H 0.7765 0.2069 0.8958
C36_2 C 0.7399(6) 0.2915(4) 0.7781(5)
C37_2 C 0.7795(6) 0.3466(4) 0.7063(5)
H23_2 H 0.8465 0.3678 0.7190
C38_2 C 0.7248(5) 0.3720(4) 0.6169(5)
C39_2 C 0.6252(6) 0.3400(4) 0.5962(6)
H24_2 H 0.5881 0.3546 0.5344
C40_2 C 0.5816(7) 0.2860(5) 0.6691(6)
H25_2 H 0.5141 0.2659 0.6566
C41_2 C 0.6373(7) 0.2619(5) 0.7596(6)
H26_2 H 0.6070 0.2262 0.8082
C42_2 C 0.7734(6) 0.4298(4) 0.5395(5)
O13_2 O 0.8090(5) 0.3188(3) 0.9499(4)
O14_2 O 0.8677(4) 0.4489(3) 0.5602(4)
H28_2 H 0.298399 0.148409 0.987069
loop_
_geom_bond_atom_site_label_1
_geom_bond_atom_site_label_2
_geom_bond_site_symmetry_1
_geom_bond_site_symmetry_2
C22 H14 1_555 1_555
C23 C22 1_555 1_555
H15 C23 1_555 1_555
C25 C24 1_555 1_555
H16 C25 1_555 1_555
C26 C25 1_555 1_555
H17 C26 1_555 1_555
N2 C22 1_555 1_555
Co9 N2 1_555 1_555
O18 Co1 1_555 1_555
C23 C24 1_555 1_555
C26 N2 1_555 1_555
Co11 O18 1_555 1_555
Co2 N1 1_555 1_555
C6 C1 1_555 1_555
H3 C6 1_555 1_555
C7 C1 1_555 1_555
C17 H10 1_555 1_555
C18 C17 1_555 1_555
H11 C18 1_555 1_555
C19 C18 1_555 1_555
C20 C19 1_555 1_555
H12 C20 1_555 1_555
C21 C20 1_555 1_555
H13 C21 1_555 1_555
N1 C17 1_555 1_555
O1 Co2 1_555 1_555
O2 Co2 1_555 1_555
O8 Co2 1_555 1_555
Co6 O2 1_555 1_555
O20 Co2 1_555 1_555
O23 Co2 1_555 1_555
C7 O1 1_555 1_555
C7 O2 1_555 1_555
C21 N1 1_555 1_555
O19 Co1_3 1_555 1_555
C28 H18 1_555 1_555
C29 C28 1_555 1_555
C30 C29 1_555 1_555
H19 C30 1_555 1_555
C31 C30 1_555 1_555
C34 C31 1_555 1_555
C35 H21 1_555 1_555
H22 C35 1_555 1_555
C36 C35 1_555 1_555
C37 C36 1_555 1_555
H23 C37 1_555 1_555
C38 C37 1_555 1_555
C39 C38 1_555 1_555
H24 C39 1_555 1_555
C40 C39 1_555 1_555
H25 C40 1_555 1_555
C41 C36 1_555 1_555
H26 C41 1_555 1_555
C42 C38 1_555 1_555
O19 C34 1_555 1_555
O12 C34 1_555 1_555
O13 C29 1_555 1_555
O14 Co1_4 1_555 1_555
C35 O13 1_555 1_555
C40 C41 1_555 1_555
C42 O14 1_555 1_555
O22 Co1_5 1_555 1_555
Co1_6 O3 1_555 1_555
C2 H1 1_555 1_555
C3 C2 1_555 1_555
C4 C3 1_555 1_555
H2 C4 1_555 1_555
C5 C4 1_555 1_555
C8 C5 1_555 1_555
C9 H4 1_555 1_555
H5 C9 1_555 1_555
C10 C9 1_555 1_555
C11 C10 1_555 1_555
H6 C11 1_555 1_555
C12 C11 1_555 1_555
C13 C12 1_555 1_555
H7 C13 1_555 1_555
C14 C13 1_555 1_555
H8 C14 1_555 1_555
C15 C10 1_555 1_555
H9 C15 1_555 1_555
C16 C12 1_555 1_555
O3 C8 1_555 1_555
O4 C8 1_555 1_555
O5 C3 1_555 1_555
O22 C16 1_555 1_555
C9 O5 1_555 1_555
C14 C15 1_555 1_555
Co9 O9 1_555 1_555
C32 C27 1_555 1_555
H20 C32 1_555 1_555
C33 C27 1_555 1_555
O9 C33 1_555 1_555
O10 Co9 1_555 1_555
O16 Co9 1_555 1_555
Co6_2 O10 1_555 1_555
O17 Co1_8 1_555 1_555
O21 Co9 1_555 1_555
O24 Co9 1_555 1_555
C33 O10 1_555 1_555
Co8 O17 1_555 1_555
C9_2 H4_2 1_555 1_555
H5_2 C9_2 1_555 1_555
C10_2 C9_2 1_555 1_555
C11_2 C10_2 1_555 1_555
H6_2 C11_2 1_555 1_555
C12_2 C11_2 1_555 1_555
C13_2 C12_2 1_555 1_555
H7_2 C13_2 1_555 1_555
C14_2 C13_2 1_555 1_555
H8_2 C14_2 1_555 1_555
C15_2 C10_2 1_555 1_555
H9_2 C15_2 1_555 1_555
C16_2 C12_2 1_555 1_555
O6 C16_2 1_555 1_555
O23 C16_2 1_555 1_555
Co11 O9_2 1_555 1_555
C32_2 C27_2 1_555 1_555
H20_2 C32_2 1_555 1_555
C33_2 C27_2 1_555 1_555
O9_2 C33_2 1_555 1_555
O16_2 Co11 1_555 1_555
Co6 O6 1_555 1_555
N3 Co11 1_555 1_555
C9_2 O5_2 1_555 1_555
C14_2 C15_2 1_555 1_555
C33_2 O18 1_555 1_555
Co6 O3_2 1_555 1_555
C3_2 C2_2 1_555 1_555
C4_2 C3_2 1_555 1_555
H2_2 C4_2 1_555 1_555
C5_2 C4_2 1_555 1_555
C8_2 C5_2 1_555 1_555
O3_2 C8_2 1_555 1_555
O20 C8_2 1_555 1_555
H12_2 C20_2 1_555 1_555
C21_2 C20_2 1_555 1_555
H13_2 C21_2 1_555 1_555
C22_2 H14_2 1_555 1_555
C23_2 C22_2 1_555 1_555
H15_2 C23_2 1_555 1_555
N3 C22_2 1_555 1_555
C23_2 C24_2 1_555 1_555
C29_2 C28_2 1_555 1_555
C30_2 C29_2 1_555 1_555
H19_2 C30_2 1_555 1_555
C31_2 C30_2 1_555 1_555
C34_2 C31_2 1_555 1_555
O11 C34_2 1_555 1_555
O21 C34_2 1_555 1_555
O11 Co6_2 1_555 1_555
Co8 N1_2 1_555 1_555
C6_2 C1_2 1_555 1_555
H3_2 C6_2 1_555 1_555
C7_2 C1_2 1_555 1_555
C17_2 H10_2 1_555 1_555
C18_2 C17_2 1_555 1_555
H11_2 C18_2 1_555 1_555
C19_2 C18_2 1_555 1_555
N1_2 C17_2 1_555 1_555
O1_2 Co8 1_555 1_555
O8_2 Co8 1_555 1_555
H16_2 C25_2 1_555 1_555
C26_2 C25_2 1_555 1_555
H17_2 C26_2 1_555 1_555
C35_2 H21_2 1_555 1_555
H22_2 C35_2 1_555 1_555
C36_2 C35_2 1_555 1_555
C37_2 C36_2 1_555 1_555
H23_2 C37_2 1_555 1_555
C38_2 C37_2 1_555 1_555
C39_2 C38_2 1_555 1_555
H24_2 C39_2 1_555 1_555
C40_2 C39_2 1_555 1_555
H25_2 C40_2 1_555 1_555
C41_2 C36_2 1_555 1_555
H26_2 C41_2 1_555 1_555
C42_2 C38_2 1_555 1_555
O14_2 Co6_2 1_555 1_555
O24 C42_2 1_555 1_555
C7_2 O1_2 1_555 1_555
C7_2 O17 1_555 1_555
C35_2 O13_2 1_555 1_555
C40_2 C41_2 1_555 1_555
C42_2 O14_2 1_555 1_555

#END
