
###############################################################################
#
# This file contains modified crystal structure data generated from the
# MOF subset of the Cambridge Structural Database (CSD) v543 
# hosted by the Cambridge Crystallographic Data Centre (CCDC).
#
# This work is licensed under the Creative Commons
# Attribution-NonCommercial-ShareAlike 4.0 International License.
# To view a copy of this license, visit
# http://creativecommons.org/licenses/by-nc-sa/4.0/
# or send a letter to
# Creative Commons, PO Box 1866, Mountain View, CA 94042, USA.
#
# CIF created using the CSD Python API on 29 September 2022
# The structure has been converted into the P1 space group
# The structure has a 3D framework
# The original CSD entry JETVOW is in the trigonal crystal system
# The original CSD entry JETVOW is in a Sohncke space group
# The framework has been calculated to contain at least 10.0% void space
# The void calculation uses a probe of radius 1.32A, grid spacing 0.4
#
###############################################################################

data_JETVOW
_chemical_formula_moiety         '(C42 H18 O17 Zn5)n'
_symmetry_cell_setting           triclinic
_symmetry_space_group_name_H-M   'P 1'
_symmetry_Int_Tables_number      1
_space_group_name_Hall           'P 1'
loop_
_symmetry_equiv_pos_site_id
_symmetry_equiv_pos_as_xyz
1 x,y,z
_cell_length_a                   21.657(2)
_cell_length_b                   21.657(2)
_cell_length_c                   6.7666(7)
_cell_angle_alpha                90
_cell_angle_beta                 90
_cell_angle_gamma                120
_cell_volume                     2748.51
loop_
_atom_site_label
_atom_site_type_symbol
_atom_site_fract_x
_atom_site_fract_y
_atom_site_fract_z
Zn6 Zn 0.66221(2) 0.38083(2) 0.02098(5)
O1 O 0.34244(17) 0.58471(15) 0.7746(3)
O2 O 0.41287(18) 0.61843(18) 0.1824(4)
O3 O 0.35312(18) 0.63804(17) 0.4108(4)
C1 C 0.3764(2) 0.5539(2) 0.6915(5)
C2 C 0.3887(2) 0.6094(2) 0.3545(6)
C3 C 0.3993(2) 0.5637(2) 0.4920(6)
C4 C 0.4342(3) 0.5284(3) 0.4238(6)
H1 H 0.449778 0.535614 0.293360
C5 C 0.4468(3) 0.4836(3) 0.5385(6)
C6 C 0.3898(3) 0.5091(3) 0.8073(6)
H2 H 0.375613 0.502315 0.939009
C7 C 0.4232(3) 0.4745(3) 0.7344(6)
H3 H 0.430406 0.444279 0.816763
O4 O 0.58471(15) 0.34244(17) 0.2254(3)
O5 O 0.61843(18) 0.41287(18) 0.8176(4)
O6 O 0.63804(17) 0.35312(18) 0.5892(4)
C8 C 0.5539(2) 0.3764(2) 0.3085(5)
C9 C 0.6094(2) 0.3887(2) 0.6455(6)
C10 C 0.5637(2) 0.3993(2) 0.5080(6)
C11 C 0.5284(3) 0.4342(3) 0.5762(6)
H4 H 0.535614 0.449778 0.706640
C12 C 0.4836(3) 0.4468(3) 0.4615(6)
C13 C 0.5091(3) 0.3898(3) 0.1927(6)
H5 H 0.502315 0.375613 0.060991
C14 C 0.4745(3) 0.4232(3) 0.2656(6)
H6 H 0.444279 0.430406 0.183237
Zn3 Zn 0.38083(2) 0.66221(2) 0.97902(5)
Zn4 Zn 0.33779(2) 0.71862(3) 0.31235(5)
Zn5 Zn 0.28138(3) 0.61917(2) 0.64569(5)
Zn7 Zn 0.71862(3) 0.33779(2) 0.68765(5)
Zn8 Zn 0.61917(2) 0.28138(3) 0.35431(5)
O8 O 0.41529(15) 0.75773(23) 0.1079(3)
O12 O 0.28492(25) 0.64688(18) 0.0775(4)
O13 O 0.71508(25) 0.36196(17) 0.2559(4)
O9 O 0.75773(23) 0.41529(15) 0.8921(3)
O11 O 0.36196(17) 0.71508(25) 0.7441(4)
O14 O 0.64688(18) 0.28492(25) 0.9225(4)
O5_2 O 0.58713(18) 0.20556(25) 0.1509(4)
H4_2 H 0.550222 0.085836 0.039973
O4_2 O 0.65756(17) 0.24227(23) 0.5587(3)
C8_2 C 0.6236(2) 0.1775(3) 0.6418(5)
C9_2 C 0.6113(2) 0.2207(3) 0.9788(6)
C10_2 C 0.6007(2) 0.1644(3) 0.8413(6)
C11_2 C 0.5658(3) 0.0942(4) 0.9095(6)
C12_2 C 0.5532(3) 0.0368(4) 0.7948(6)
C13_2 C 0.6102(3) 0.1193(4) 0.5260(6)
H5_2 H 0.624387 0.126702 0.394324
C14_2 C 0.5768(3) 0.0513(4) 0.5989(6)
H6_2 H 0.569594 0.013873 0.516570
C1_2 C 0.4461(2) 0.8225(3) 0.0248(5)
C6_2 C 0.4909(3) 0.8807(4) 0.1406(6)
H2_2 H 0.497685 0.873298 0.272342
C7_2 C 0.5255(3) 0.9487(4) 0.0677(6)
H3_2 H 0.555721 0.986127 0.150096
O2_2 O 0.38157(18) 0.79444(25) 0.5157(4)
C2_2 C 0.3906(2) 0.7793(3) 0.6878(6)
C3_2 C 0.4363(2) 0.8356(3) 0.8253(6)
C4_2 C 0.4716(3) 0.9058(4) 0.7571(6)
H1_2 H 0.464386 0.914164 0.626693
C5_2 C 0.5164(3) 0.9632(4) 0.8718(6)
O8_2 O 0.24227(23) 0.65756(27) 0.4413(3)
C1_3 C 0.1775(3) 0.6236(2) 0.3582(5)
C2_3 C 0.2207(3) 0.6113(2) 0.0212(6)
C3_3 C 0.1644(3) 0.6007(2) 0.1587(6)
C4_3 C 0.0942(4) 0.5658(3) 0.0905(6)
C5_3 C 0.0368(4) 0.5532(3) 0.2052(6)
C6_3 C 0.1193(4) 0.6102(3) 0.4740(6)
H2_3 H 0.126702 0.624387 0.605676
C7_3 C 0.0513(4) 0.5768(3) 0.4011(6)
H3_3 H 0.013873 0.569594 0.483430
O2_3 O 0.20556(25) 0.58713(18) 0.8491(4)
H1_3 H 0.085836 0.550222 0.960027
O5_3 O 0.79444(25) 0.38157(18) 0.4843(4)
C9_3 C 0.7793(3) 0.3906(2) 0.3122(6)
C10_3 C 0.8356(3) 0.4363(2) 0.1747(6)
C11_3 C 0.9058(4) 0.4716(3) 0.2429(6)
H4_3 H 0.914164 0.464386 0.373307
C12_3 C 0.9632(4) 0.5164(3) 0.1282(6)
C8_3 C 0.8225(3) 0.4461(2) 0.9752(5)
C13_3 C 0.8807(4) 0.4909(3) 0.8594(6)
H5_3 H 0.873298 0.497685 0.727658
C14_3 C 0.9487(4) 0.5255(3) 0.9323(6)
H6_3 H 0.986127 0.555721 0.849904
loop_
_geom_bond_atom_site_label_1
_geom_bond_atom_site_label_2
_geom_bond_site_symmetry_1
_geom_bond_site_symmetry_2
O1 C1 1_555 1_555
O2 C2 1_555 1_555
O3 C2 1_555 1_555
C1 C3 1_555 1_555
C2 C3 1_555 1_555
C3 C4 1_555 1_555
C4 H1 1_555 1_555
C5 C4 1_555 1_555
C6 C1 1_555 1_555
H2 C6 1_555 1_555
C7 C5 1_555 1_555
H3 C7 1_555 1_555
O4 C8 1_555 1_555
O5 C9 1_555 1_555
O6 C9 1_555 1_555
C8 C10 1_555 1_555
C9 C10 1_555 1_555
C10 C11 1_555 1_555
C11 H4 1_555 1_555
C12 C5 1_555 1_555
C13 C8 1_555 1_555
H5 C13 1_555 1_555
C14 C12 1_555 1_555
H6 C14 1_555 1_555
Zn6 O4 1_555 1_555
Zn3 O1 1_555 1_555
Zn4 O3 1_555 1_555
Zn5 O1 1_555 1_555
Zn7 O6 1_555 1_555
Zn8 O4 1_555 1_555
O13 Zn6 1_555 1_555
O3 Zn5 1_555 1_555
C6 C7 1_555 1_555
O6 Zn8 1_555 1_555
C11 C12 1_555 1_555
C13 C14 1_555 1_555
Zn4 O8 1_555 1_555
Zn4 O12 1_555 1_555
Zn8 O13 1_555 1_555
O11 Zn3 1_555 1_555
Zn8 O5_2 1_555 1_555
O4_2 C8_2 1_555 1_555
O14 C9_2 1_555 1_555
C8_2 C10_2 1_555 1_555
C9_2 C10_2 1_555 1_555
C10_2 C11_2 1_555 1_555
C13_2 C8_2 1_555 1_555
H5_2 C13_2 1_555 1_555
C14_2 C12_2 1_555 1_555
H6_2 C14_2 1_555 1_555
Zn8 O4_2 1_555 1_555
Zn7 O4_2 1_555 1_555
O14 Zn7 1_555 1_555
C11_2 C12_2 1_555 1_555
C13_2 C14_2 1_555 1_555
O8 C1_2 1_555 1_555
C6_2 C1_2 1_555 1_555
H2_2 C6_2 1_555 1_555
H3_2 C7_2 1_555 1_555
C6_2 C7_2 1_555 1_555
Zn4 O2_2 1_555 1_555
O2_2 C2_2 1_555 1_555
O11 C2_2 1_555 1_555
C2_2 C3_2 1_555 1_555
C3_2 C4_2 1_555 1_555
C4_2 H1_2 1_555 1_555
C5_2 C4_2 1_555 1_555
Zn5 O11 1_555 1_555
O8_2 Zn4 1_555 1_555
Zn5 O8_2 1_555 1_555
O8_2 C1_3 1_555 1_555
O12 C2_3 1_555 1_555
C1_3 C3_3 1_555 1_555
C2_3 C3_3 1_555 1_555
C3_3 C4_3 1_555 1_555
C5_3 C4_3 1_555 1_555
C6_3 C1_3 1_555 1_555
H2_3 C6_3 1_555 1_555
C7_3 C5_3 1_555 1_555
H3_3 C7_3 1_555 1_555
C6_3 C7_3 1_555 1_555
Zn5 O2_3 1_555 1_555
O5_3 C9_3 1_555 1_555
O13 C9_3 1_555 1_555
C9_3 C10_3 1_555 1_555
C10_3 C11_3 1_555 1_555
C11_3 H4_3 1_555 1_555
Zn7 O5_3 1_555 1_555
C11_3 C12_3 1_555 1_555
O9 C8_3 1_555 1_555
C13_3 C8_3 1_555 1_555
H5_3 C13_3 1_555 1_555
H6_3 C14_3 1_555 1_555
Zn7 O9 1_555 1_555
C13_3 C14_3 1_555 1_555

#END
