
###############################################################################
#
# This file contains modified crystal structure data generated from the
# MOF subset of the Cambridge Structural Database (CSD) v543 
# hosted by the Cambridge Crystallographic Data Centre (CCDC).
#
# This work is licensed under the Creative Commons
# Attribution-NonCommercial-ShareAlike 4.0 International License.
# To view a copy of this license, visit
# http://creativecommons.org/licenses/by-nc-sa/4.0/
# or send a letter to
# Creative Commons, PO Box 1866, Mountain View, CA 94042, USA.
#
# CIF created using the CSD Python API on 29 September 2022
# The structure has been converted into the P1 space group
# The structure has a 3D framework
# The original CSD entry JETVUC is in the trigonal crystal system
# The original CSD entry JETVUC is in a Sohncke space group
# The framework has been calculated to contain at least 10.0% void space
# The void calculation uses a probe of radius 1.32A, grid spacing 0.4
#
###############################################################################

data_JETVUC
_chemical_formula_moiety         '(C42 H18 O17 Zn5)n'
_symmetry_cell_setting           triclinic
_symmetry_space_group_name_H-M   'P 1'
_symmetry_Int_Tables_number      1
_space_group_name_Hall           'P 1'
loop_
_symmetry_equiv_pos_site_id
_symmetry_equiv_pos_as_xyz
1 x,y,z
_cell_length_a                   21.640(2)
_cell_length_b                   21.640(2)
_cell_length_c                   6.7928(8)
_cell_angle_alpha                90
_cell_angle_beta                 90
_cell_angle_gamma                120
_cell_volume                     2754.82
loop_
_atom_site_label
_atom_site_type_symbol
_atom_site_fract_x
_atom_site_fract_y
_atom_site_fract_z
Zn3 Zn 0.66228(2) 0.38151(2) 0.02228(5)
O1 O 0.64125(15) 0.35612(15) 0.5835(3)
O2 O 0.61730(15) 0.41210(16) 0.8167(3)
O3 O 0.58411(14) 0.34176(15) 0.2245(3)
C1 C 0.5529(2) 0.3750(2) 0.3070(5)
C2 C 0.5629(2) 0.3984(2) 0.5059(5)
C3 C 0.6097(2) 0.3885(2) 0.6437(5)
C4 C 0.5272(2) 0.4327(2) 0.5755(5)
H1 H 0.534291 0.448072 0.705672
C5 C 0.4818(2) 0.4450(2) 0.4609(5)
C6 C 0.5078(3) 0.3887(3) 0.1921(5)
H2 H 0.501053 0.374643 0.060783
C7 C 0.4732(3) 0.4220(3) 0.2656(6)
H3 H 0.443177 0.429548 0.183413
O4 O 0.35612(15) 0.64125(15) 0.4165(3)
O5 O 0.41210(16) 0.61730(15) 0.1833(3)
O6 O 0.34176(15) 0.58411(14) 0.7755(3)
C8 C 0.3750(2) 0.5529(2) 0.6930(5)
C9 C 0.3984(2) 0.5629(2) 0.4941(5)
C10 C 0.3885(2) 0.6097(2) 0.3563(5)
C11 C 0.4327(2) 0.5272(2) 0.4245(5)
H4 H 0.448072 0.534291 0.294328
C12 C 0.4450(2) 0.4818(2) 0.5391(5)
C13 C 0.3887(3) 0.5078(3) 0.8079(5)
H5 H 0.374643 0.501053 0.939217
C14 C 0.4220(3) 0.4732(3) 0.7344(6)
H6 H 0.429548 0.443177 0.816587
Zn4 Zn 0.61849(2) 0.28077(3) 0.35561(5)
Zn5 Zn 0.71923(3) 0.33772(2) 0.68895(5)
Zn6 Zn 0.38151(2) 0.66228(2) 0.97772(5)
Zn7 Zn 0.28077(3) 0.61849(2) 0.64439(5)
Zn8 Zn 0.33772(2) 0.71923(3) 0.31105(5)
O8 O 0.71487(21) 0.35875(15) 0.2502(3)
O9 O 0.28513(21) 0.64388(15) 0.0832(3)
O14 O 0.41589(14) 0.75765(21) 0.1088(3)
O7 O 0.64388(15) 0.28513(21) 0.9168(3)
O10 O 0.35875(15) 0.71487(21) 0.7498(3)
O12 O 0.75765(21) 0.41589(14) 0.8912(3)
O2_2 O 0.58790(16) 0.20520(22) 0.1500(3)
H1_2 H 0.551928 0.086219 0.039005
O3_2 O 0.65824(15) 0.24235(21) 0.5578(3)
C1_2 C 0.6250(2) 0.1779(3) 0.6403(5)
C2_2 C 0.6016(2) 0.1645(3) 0.8392(5)
C3_2 C 0.6115(2) 0.2212(3) 0.9770(5)
C4_2 C 0.5673(2) 0.0945(3) 0.9088(5)
C5_2 C 0.5550(2) 0.0368(3) 0.7942(5)
C6_2 C 0.6113(3) 0.1191(4) 0.5254(5)
H2_2 H 0.625357 0.126410 0.394116
C7_2 C 0.5780(3) 0.0512(4) 0.5989(6)
H3_2 H 0.570452 0.013629 0.516746
C8_2 C 0.4471(2) 0.8221(3) 0.0263(5)
C13_2 C 0.4922(3) 0.8809(4) 0.1412(5)
H5_2 H 0.498947 0.873590 0.272550
C14_2 C 0.5268(3) 0.9488(4) 0.0677(6)
H6_2 H 0.556823 0.986371 0.149920
O5_2 O 0.38270(15) 0.79480(22) 0.5166(3)
C9_2 C 0.4371(2) 0.8355(3) 0.8274(5)
C10_2 C 0.3903(2) 0.7788(3) 0.6896(5)
C11_2 C 0.4728(2) 0.9055(3) 0.7578(5)
H4_2 H 0.465709 0.913781 0.627661
C12_2 C 0.5182(2) 0.9632(3) 0.8724(5)
O14_2 O 0.24235(21) 0.65824(25) 0.4422(3)
C8_3 C 0.1779(3) 0.6250(2) 0.3597(5)
C9_3 C 0.1645(3) 0.6016(2) 0.1608(5)
C10_3 C 0.2212(3) 0.6115(2) 0.0230(5)
C11_3 C 0.0945(3) 0.5673(2) 0.0912(5)
C12_3 C 0.0368(3) 0.5550(2) 0.2058(5)
C13_3 C 0.1191(4) 0.6113(3) 0.4746(5)
H5_3 H 0.126410 0.625357 0.605884
C14_3 C 0.0512(4) 0.5780(3) 0.4011(6)
H6_3 H 0.013629 0.570452 0.483254
O5_3 O 0.20520(22) 0.58790(16) 0.8500(3)
H4_3 H 0.086219 0.551928 0.960995
O2_3 O 0.79480(22) 0.38270(15) 0.4834(3)
C2_3 C 0.8355(3) 0.4371(2) 0.1726(5)
C3_3 C 0.7788(3) 0.3903(2) 0.3104(5)
C4_3 C 0.9055(3) 0.4728(2) 0.2422(5)
H1_3 H 0.913781 0.465709 0.372339
C5_3 C 0.9632(3) 0.5182(2) 0.1276(5)
C1_3 C 0.8221(3) 0.4471(2) 0.9737(5)
C6_3 C 0.8809(4) 0.4922(3) 0.8588(5)
H2_3 H 0.873590 0.498947 0.727450
C7_3 C 0.9488(4) 0.5268(3) 0.9323(6)
H3_3 H 0.986371 0.556823 0.850080
loop_
_geom_bond_atom_site_label_1
_geom_bond_atom_site_label_2
_geom_bond_site_symmetry_1
_geom_bond_site_symmetry_2
Zn3 O3 1_555 1_555
O1 C3 1_555 1_555
O2 C3 1_555 1_555
O3 C1 1_555 1_555
C1 C2 1_555 1_555
C2 C3 1_555 1_555
C4 C2 1_555 1_555
H1 C4 1_555 1_555
C5 C4 1_555 1_555
C6 C1 1_555 1_555
H2 C6 1_555 1_555
C7 C5 1_555 1_555
H3 C7 1_555 1_555
O4 C10 1_555 1_555
O5 C10 1_555 1_555
O6 C8 1_555 1_555
C8 C9 1_555 1_555
C9 C10 1_555 1_555
C11 C9 1_555 1_555
H4 C11 1_555 1_555
C12 C5 1_555 1_555
C13 C8 1_555 1_555
H5 C13 1_555 1_555
C14 C12 1_555 1_555
H6 C14 1_555 1_555
Zn4 O1 1_555 1_555
Zn5 O1 1_555 1_555
Zn6 O6 1_555 1_555
Zn7 O4 1_555 1_555
Zn8 O4 1_555 1_555
O8 Zn3 1_555 1_555
O3 Zn4 1_555 1_555
C6 C7 1_555 1_555
O6 Zn7 1_555 1_555
C11 C12 1_555 1_555
C13 C14 1_555 1_555
Zn4 O8 1_555 1_555
Zn8 O9 1_555 1_555
Zn8 O14 1_555 1_555
O10 Zn6 1_555 1_555
Zn4 O2_2 1_555 1_555
Zn4 O3_2 1_555 1_555
O7 C3_2 1_555 1_555
O3_2 C1_2 1_555 1_555
C1_2 C2_2 1_555 1_555
C2_2 C3_2 1_555 1_555
C4_2 C2_2 1_555 1_555
C5_2 C4_2 1_555 1_555
C6_2 C1_2 1_555 1_555
H2_2 C6_2 1_555 1_555
C7_2 C5_2 1_555 1_555
H3_2 C7_2 1_555 1_555
Zn5 O7 1_555 1_555
O3_2 Zn5 1_555 1_555
C6_2 C7_2 1_555 1_555
O14 C8_2 1_555 1_555
C13_2 C8_2 1_555 1_555
H5_2 C13_2 1_555 1_555
H6_2 C14_2 1_555 1_555
C13_2 C14_2 1_555 1_555
O10 C10_2 1_555 1_555
O5_2 C10_2 1_555 1_555
C9_2 C10_2 1_555 1_555
C11_2 C9_2 1_555 1_555
H4_2 C11_2 1_555 1_555
Zn8 O5_2 1_555 1_555
Zn7 O10 1_555 1_555
O14_2 Zn8 1_555 1_555
C11_2 C12_2 1_555 1_555
Zn7 O14_2 1_555 1_555
O9 C10_3 1_555 1_555
O14_2 C8_3 1_555 1_555
C8_3 C9_3 1_555 1_555
C9_3 C10_3 1_555 1_555
C11_3 C9_3 1_555 1_555
C13_3 C8_3 1_555 1_555
H5_3 C13_3 1_555 1_555
C14_3 C12_3 1_555 1_555
H6_3 C14_3 1_555 1_555
C11_3 C12_3 1_555 1_555
C13_3 C14_3 1_555 1_555
Zn7 O5_3 1_555 1_555
O8 C3_3 1_555 1_555
O2_3 C3_3 1_555 1_555
C2_3 C3_3 1_555 1_555
C4_3 C2_3 1_555 1_555
H1_3 C4_3 1_555 1_555
C5_3 C4_3 1_555 1_555
Zn5 O2_3 1_555 1_555
Zn5 O12 1_555 1_555
O12 C1_3 1_555 1_555
C6_3 C1_3 1_555 1_555
H2_3 C6_3 1_555 1_555
H3_3 C7_3 1_555 1_555
C6_3 C7_3 1_555 1_555

#END
