
###############################################################################
#
# This file contains modified crystal structure data generated from the
# MOF subset of the Cambridge Structural Database (CSD) v543 
# hosted by the Cambridge Crystallographic Data Centre (CCDC).
#
# This work is licensed under the Creative Commons
# Attribution-NonCommercial-ShareAlike 4.0 International License.
# To view a copy of this license, visit
# http://creativecommons.org/licenses/by-nc-sa/4.0/
# or send a letter to
# Creative Commons, PO Box 1866, Mountain View, CA 94042, USA.
#
# CIF created using the CSD Python API on 29 September 2022
# The structure has been converted into the P1 space group
# The structure has a 3D framework
# The original CSD entry JEWWUG is in the monoclinic crystal system
# The framework has been calculated to contain at least 10.0% void space
# The void calculation uses a probe of radius 1.32A, grid spacing 0.4
#
###############################################################################

data_JEWWUG
_chemical_formula_moiety         '(C48 H32 Co7 Er4 N16 O40)n'
_symmetry_cell_setting           triclinic
_symmetry_space_group_name_H-M   'P 1'
_symmetry_Int_Tables_number      1
_space_group_name_Hall           'P 1'
loop_
_symmetry_equiv_pos_site_id
_symmetry_equiv_pos_as_xyz
1 x,y,z
_cell_length_a                   6.1574(5)
_cell_length_b                   22.5934(19)
_cell_length_c                   11.9458(10)
_cell_angle_alpha                90
_cell_angle_beta                 91.917(2)
_cell_angle_gamma                90
_cell_volume                     1660.93
loop_
_atom_site_label
_atom_site_type_symbol
_atom_site_fract_x
_atom_site_fract_y
_atom_site_fract_z
Er3 Er 0.05017(4) 0.666885(13) 0.11107(2)
O1 O 0.4203(7) 0.65903(19) 0.0687(4)
O3 O 0.7258(6) 0.70417(19) 0.0257(3)
C5 C 0.5240(10) 0.6938(3) 0.0133(5)
O7 O 0.2093(7) 0.6183(2) 0.2548(4)
N4 N 0.0932(10) 0.6389(3) 0.4925(5)
O8 O 0.3836(8) 0.5547(2) 0.3635(5)
C7 C 0.0590(10) 0.5944(3) 0.4230(6)
C12 C 0.2277(10) 0.5878(3) 0.3402(6)
O24 O 0.2080(7) 0.7452(2) 0.1956(4)
Co3 Co 0.5000 0.5000 0.5000
N1 N 0.1827(8) 0.7417(2) 0.9621(4)
C1 C 0.3838(9) 0.7290(3) 0.9299(5)
C2 C 0.4531(9) 0.7498(3) 0.8311(5)
N2 N 0.3383(8) 0.7908(2) 0.7757(4)
O4 O 0.0261(10) 0.6197(3) 0.9443(6)
H4 H 0.1001 0.5912 0.9189
C3 C 0.1500(10) 0.8081(3) 0.8151(5)
H5 H 0.0747 0.8391 0.7804
C4 C 0.0665(10) 0.7814(3) 0.9045(5)
C6 C 0.6393(10) 0.7245(3) 0.7715(5)
O5 O 0.7080(7) 0.7548(2) 0.6956(4)
O6 O 0.7038(10) 0.6758(2) 0.7967(4)
Er6 Er 0.55017(4) 0.833115(13) 0.61107(2)
O2 O 0.7924(9) 0.5967(2) 0.1424(4)
H1 H 0.6605 0.6032 0.1573
H2 H 0.8443 0.5701 0.1861
N3 N 0.7545(9) 0.5608(2) 0.5160(5)
O9 O 0.7016(7) 0.46955(19) 0.3861(4)
O10 O 0.9318(9) 0.5046(2) 0.2698(4)
C8 C 0.8872(10) 0.5558(3) 0.4334(5)
C9 C 0.7923(13) 0.6039(3) 0.5849(6)
H7 H 0.7018 0.6084 0.6450
C10 C 0.9568(13) 0.6427(3) 0.5738(6)
H8 H 0.9737 0.6732 0.6257
C11 C 0.8397(10) 0.5064(3) 0.3554(5)
O12 O 0.2076(9) 0.4033(2) 0.8576(4)
H9 H 0.3395 0.3968 0.8427
H10 H 0.1557 0.4299 0.8139
N7 N 0.2455(9) 0.4392(2) 0.4840(5)
O19 O 0.2984(7) 0.53045(19) 0.6139(4)
O20 O 0.0682(9) 0.4954(2) 0.7302(4)
C20 C 0.1128(10) 0.4442(3) 0.5666(5)
C21 C 0.2077(13) 0.3961(3) 0.4151(6)
H15 H 0.2982 0.3916 0.3550
C22 C 0.0432(13) 0.3573(3) 0.4262(6)
H16 H 0.0263 0.3268 0.3743
C23 C 0.1603(10) 0.4936(3) 0.6446(5)
O22 O 0.2742(6) 0.29583(19) 0.9743(3)
N9 N 0.1617(8) 0.2908(2) 0.7243(4)
N10 N 0.8383(8) 0.7092(2) 0.2757(4)
O26 O 0.6164(8) 0.4453(2) 0.6365(5)
N5 N 0.8173(8) 0.2583(2) 0.0379(4)
C13 C 0.6162(9) 0.2710(3) 0.0701(5)
C14 C 0.5469(9) 0.2502(3) 0.1689(5)
N6 N 0.6617(8) 0.2092(2) 0.2243(4)
O14 O 0.9739(10) 0.3803(3) 0.0557(6)
H12 H 0.8999 0.4088 0.0811
C15 C 0.8500(10) 0.1919(3) 0.1849(5)
H13 H 0.9253 0.1609 0.2196
C16 C 0.9335(10) 0.2186(3) 0.0955(5)
C18 C 0.3607(10) 0.2755(3) 0.2285(5)
O15 O 0.2920(7) 0.2452(2) 0.3044(4)
O16 O 0.2962(10) 0.3242(2) 0.2033(4)
Er4 Er 0.44983(4) 0.166885(13) 0.38893(2)
Er2 Er 0.94983(4) 0.333115(13) 0.88893(2)
O11 O 0.5797(7) 0.34097(19) 0.9313(4)
C17 C 0.4760(10) 0.3062(3) 0.9867(5)
O17 O 0.7907(7) 0.3817(2) 0.7452(4)
N8 N 0.9068(10) 0.3611(3) 0.5075(5)
C19 C 0.9410(10) 0.4056(3) 0.5770(6)
C24 C 0.7723(10) 0.4122(3) 0.6598(6)
O23 O 0.7920(7) 0.2548(2) 0.8044(4)
Co2 Co 0.0000 0.0000 0.0000
O13 O 0.2258(6) 0.79583(19) 0.5257(3)
C17_2 C 0.0240(10) 0.8062(3) 0.5133(5)
C18_2 C 0.1393(10) 0.7755(3) 0.2715(5)
O16_2 O 0.2038(10) 0.8242(2) 0.2967(4)
Co2_2 Co 0.0000 1.0000 1.0000
Co2_3 Co 1.0000 0.0000 0.0000
O25 O 0.1164(8) 0.0547(2) 0.1365(5)
O11_2 O 0.9203(7) 0.84097(19) 0.5687(4)
N5_2 N 0.6827(8) 0.7583(2) 0.4621(4)
C13_2 C 0.8838(9) 0.7710(3) 0.4299(5)
O12_2 O 0.2924(9) 0.9033(2) 0.6424(4)
H9_2 H 0.1605 0.8968 0.6573
H10_2 H 0.3443 0.9299 0.6861
C14_2 C 0.9531(9) 0.7502(3) 0.3311(5)
O14_2 O 0.5261(10) 0.8803(3) 0.4443(6)
H11 H 0.4787 0.8813 0.3767
H12_2 H 0.6001 0.9088 0.4189
C15_2 C 0.6500(10) 0.6919(3) 0.3151(5)
H13_2 H 0.5747 0.6609 0.2804
C16_2 C 0.5665(10) 0.7186(3) 0.4045(5)
H14 H 0.4269 0.7092 0.4259
O17_2 O 0.7093(7) 0.8817(2) 0.7548(4)
N8_2 N 0.5932(10) 0.8611(3) 0.9925(5)
O18 O 0.8836(8) 0.9453(2) 0.8635(5)
O20_2 O 0.4318(9) 0.9954(2) 0.7698(4)
C19_2 C 0.5590(10) 0.9056(3) 0.9230(6)
C20_2 C 0.3872(10) 0.9442(3) 0.9334(5)
C23_2 C 0.3397(10) 0.9936(3) 0.8554(5)
C24_2 C 0.7277(10) 0.9122(3) 0.8402(6)
Co2_4 Co 1.0000 1.0000 1.0000
O1_2 O 0.0797(7) 0.15903(19) 0.4313(4)
N1_2 N 0.3173(8) 0.2417(2) 0.5379(4)
C1_2 C 0.1162(9) 0.2290(3) 0.5701(5)
O2_2 O 0.7076(9) 0.0967(2) 0.3576(4)
H1_2 H 0.8395 0.1032 0.3427
H2_2 H 0.6557 0.0701 0.3139
C2_2 C 0.0469(9) 0.2498(3) 0.6689(5)
O4_2 O 0.4739(10) 0.1197(3) 0.5557(6)
H3 H 0.5213 0.1187 0.6233
H4_2 H 0.3999 0.0912 0.5811
C3_2 C 0.3500(10) 0.3081(3) 0.6849(5)
H5_2 H 0.4253 0.3391 0.7196
C4_2 C 0.4335(10) 0.2814(3) 0.5955(5)
H6 H 0.5731 0.2908 0.5741
O7_2 O 0.2907(7) 0.1183(2) 0.2452(4)
N4_2 N 0.4068(10) 0.1389(3) 0.0075(5)
O10_2 O 0.5682(9) 0.0046(2) 0.2302(4)
C7_2 C 0.4410(10) 0.0944(3) 0.0770(6)
C8_2 C 0.6128(10) 0.0558(3) 0.0666(5)
C11_2 C 0.6603(10) 0.0064(3) 0.1446(5)
C12_2 C 0.2723(10) 0.0878(3) 0.1598(6)
O21 O 0.7742(6) 0.20417(19) 0.4743(3)
C5_2 C 0.9760(10) 0.1938(3) 0.4867(5)
C6_2 C 0.8607(10) 0.2245(3) 0.7285(5)
O6_2 O 0.7962(10) 0.1758(2) 0.7033(4)
H11_2 H 0.0213 0.3813 0.1233
H14_2 H 0.0731 0.2092 0.0741
H3_2 H 0.9787 0.6187 0.8767
H6_2 H 0.9269 0.7908 0.9259
Co2_5 Co 0.0000 0.0000 1.0000
O19_2 O 0.2016(7) 0.03045(19) 0.8861(4)
Co2_6 Co 1.0000 0.0000 1.0000
N3_2 N 0.7455(9) 0.0608(2) 0.9840(5)
C9_2 C 0.7077(13) 0.1039(3) 0.9151(6)
H7_2 H 0.7982 0.1084 0.8550
C10_2 C 0.5432(13) 0.1427(3) 0.9262(6)
H8_2 H 0.5263 0.1732 0.8743
Co2_7 Co 0.0000 1.0000 0.0000
N7_2 N 0.2545(9) 0.9392(2) 0.0160(5)
C21_2 C 0.2923(13) 0.8961(3) 0.0849(6)
H15_2 H 0.2018 0.8916 0.1450
C22_2 C 0.4568(13) 0.8573(3) 0.0738(6)
H16_2 H 0.4737 0.8268 0.1257
Co2_8 Co 1.0000 1.0000 0.0000
O9_2 O 0.7984(7) 0.96955(19) 0.1139(4)
loop_
_geom_bond_atom_site_label_1
_geom_bond_atom_site_label_2
_geom_bond_site_symmetry_1
_geom_bond_site_symmetry_2
Er3 O1 1_555 1_555
O1 C5 1_555 1_555
O3 C5 1_555 1_555
O7 Er3 1_555 1_555
N4 C7 1_555 1_555
O8 C12 1_555 1_555
C12 O7 1_555 1_555
O24 Er3 1_555 1_555
Co3 O8 1_555 1_555
C7 C12 1_555 1_555
C1 N1 1_555 1_555
C2 C1 1_555 1_555
N2 C2 1_555 1_555
H4 O4 1_555 1_555
C3 N2 1_555 1_555
H5 C3 1_555 1_555
C4 N1 1_555 1_555
C6 C2 1_555 1_555
O5 C6 1_555 1_555
O6 C6 1_555 1_555
Er6 N2 1_555 1_555
C3 C4 1_555 1_555
O5 Er6 1_555 1_555
H1 O2 1_555 1_555
H2 O2 1_555 1_555
Co3 N3 1_555 1_555
N3 C8 1_555 1_555
O9 Co3 1_555 1_555
O10 C11 1_555 1_555
C8 C11 1_555 1_555
C9 N3 1_555 1_555
H7 C9 1_555 1_555
H8 C10 1_555 1_555
C11 O9 1_555 1_555
H9 O12 1_555 1_555
H10 O12 1_555 1_555
N7 Co3 1_555 1_555
O19 Co3 1_555 1_555
O20 C23 1_555 1_555
C20 N7 1_555 1_555
C21 N7 1_555 1_555
H15 C21 1_555 1_555
H16 C22 1_555 1_555
C23 O19 1_555 1_555
O26 Co3 1_555 1_555
C9 C10 1_555 1_555
C20 C23 1_555 1_555
C21 C22 1_555 1_555
C13 N5 1_555 1_555
C14 C13 1_555 1_555
N6 C14 1_555 1_555
H12 O14 1_555 1_555
C15 N6 1_555 1_555
H13 C15 1_555 1_555
C16 N5 1_555 1_555
C18 C14 1_555 1_555
O15 C18 1_555 1_555
O16 C18 1_555 1_555
Er4 N6 1_555 1_555
C15 C16 1_555 1_555
O15 Er4 1_555 1_555
Er2 O11 1_555 1_555
O11 C17 1_555 1_555
O22 C17 1_555 1_555
O17 Er2 1_555 1_555
N8 C19 1_555 1_555
O26 C24 1_555 1_555
C24 O17 1_555 1_555
O23 Er2 1_555 1_555
C19 C24 1_555 1_555
O13 C17_2 1_555 1_555
O24 C18_2 1_555 1_555
O16_2 C18_2 1_555 1_555
Er6 O13 1_555 1_555
O25 Co2 1_555 1_555
Er6 O11_2 1_555 1_555
N5_2 Er6 1_555 1_555
C13_2 N5_2 1_555 1_555
O12_2 Er6 1_555 1_555
H9_2 O12_2 1_555 1_555
H10_2 O12_2 1_555 1_555
C14_2 C13_2 1_555 1_555
N10 C14_2 1_555 1_555
O14_2 Er6 1_555 1_555
H11 O14_2 1_555 1_555
H12_2 O14_2 1_555 1_555
C15_2 N10 1_555 1_555
H13_2 C15_2 1_555 1_555
C16_2 N5_2 1_555 1_555
H14 C16_2 1_555 1_555
O17_2 Er6 1_555 1_555
N8_2 C19_2 1_555 1_555
O18 C24_2 1_555 1_555
O20_2 C23_2 1_555 1_555
C19_2 C20_2 1_555 1_555
C24_2 O17_2 1_555 1_555
Co2_4 O18 1_555 1_555
C15_2 C16_2 1_555 1_555
C19_2 C24_2 1_555 1_555
C20_2 C23_2 1_555 1_555
Er4 O1_2 1_555 1_555
N1_2 Er4 1_555 1_555
C1_2 N1_2 1_555 1_555
O2_2 Er4 1_555 1_555
H1_2 O2_2 1_555 1_555
H2_2 O2_2 1_555 1_555
C2_2 C1_2 1_555 1_555
N9 C2_2 1_555 1_555
O4_2 Er4 1_555 1_555
H3 O4_2 1_555 1_555
H4_2 O4_2 1_555 1_555
C3_2 N9 1_555 1_555
H5_2 C3_2 1_555 1_555
C4_2 N1_2 1_555 1_555
H6 C4_2 1_555 1_555
O7_2 Er4 1_555 1_555
N4_2 C7_2 1_555 1_555
O25 C12_2 1_555 1_555
O10_2 C11_2 1_555 1_555
C7_2 C8_2 1_555 1_555
C8_2 C11_2 1_555 1_555
C12_2 O7_2 1_555 1_555
O21 Er4 1_555 1_555
C3_2 C4_2 1_555 1_555
C7_2 C12_2 1_555 1_555
O21 C5_2 1_555 1_555
O23 C6_2 1_555 1_555
O6_2 C6_2 1_555 1_555
O19_2 Co2_5 1_555 1_555
Co2_6 N3_2 1_555 1_555
C9_2 N3_2 1_555 1_555
H7_2 C9_2 1_555 1_555
H8_2 C10_2 1_555 1_555
C9_2 C10_2 1_555 1_555
N7_2 Co2_7 1_555 1_555
C21_2 N7_2 1_555 1_555
H15_2 C21_2 1_555 1_555
H16_2 C22_2 1_555 1_555
C21_2 C22_2 1_555 1_555
O9_2 Co2_8 1_555 1_555

#END
