
###############################################################################
#
# This file contains modified crystal structure data generated from the
# MOF subset of the Cambridge Structural Database (CSD) v543 
# hosted by the Cambridge Crystallographic Data Centre (CCDC).
#
# This work is licensed under the Creative Commons
# Attribution-NonCommercial-ShareAlike 4.0 International License.
# To view a copy of this license, visit
# http://creativecommons.org/licenses/by-nc-sa/4.0/
# or send a letter to
# Creative Commons, PO Box 1866, Mountain View, CA 94042, USA.
#
# CIF created using the CSD Python API on 29 September 2022
# The structure has been converted into the P1 space group
# The structure has a 3D framework
# The original CSD entry JEZLAE is in the triclinic crystal system
# The framework has been calculated to contain at least 10.0% void space
# The void calculation uses a probe of radius 1.32A, grid spacing 0.4
#
###############################################################################

data_JEZLAE
_chemical_formula_moiety         '(C40 H26 Mn2 N8 O8)n'
_symmetry_cell_setting           triclinic
_symmetry_space_group_name_H-M   'P 1'
_symmetry_Int_Tables_number      1
_space_group_name_Hall           'P 1'
loop_
_symmetry_equiv_pos_site_id
_symmetry_equiv_pos_as_xyz
1 x,y,z
_cell_length_a                   10.109(5)
_cell_length_b                   10.461(5)
_cell_length_c                   12.102(6)
_cell_angle_alpha                67.592(7)
_cell_angle_beta                 68.056(7)
_cell_angle_gamma                84.450(7)
_cell_volume                     1095.87
loop_
_atom_site_label
_atom_site_type_symbol
_atom_site_fract_x
_atom_site_fract_y
_atom_site_fract_z
_atom_site_U_iso_or_equiv
_atom_site_thermal_displace_type
O5 O 0.14878(13) 0.44380(13) 0.40076(12) 0.0296 Uani
O6 O 0.30788(13) 0.53040(15) 0.20478(13) 0.0360 Uani
C21 C 0.18174(18) 0.49208(19) 0.28065(18) 0.0249 Uani
C22 C 0.06510(18) 0.50644(19) 0.22880(17) 0.0247 Uani
C23 C 0.09322(18) 0.4963(2) 0.11121(17) 0.0283 Uani
H14 H 0.185734 0.481664 0.063906 0.0340 Uiso
Mn8 Mn 0.36999(3) 0.49651(3) 0.37953(3) 0.0238 Uani
O3 O 0.34876(14) 0.40387(15) 0.57318(12) 0.0354 Uani
O4 O 0.42072(13) 0.40816(14) 0.72326(12) 0.0314 Uani
C4 C 0.01448(18) 0.4924(2) 0.93775(17) 0.0267 Uani
C5 C 0.15067(18) 0.4647(2) 0.86584(17) 0.0272 Uani
H2 H 0.224162 0.455898 0.896512 0.0330 Uiso
C6 C 0.17922(18) 0.45006(19) 0.74965(17) 0.0237 Uani
C7 C 0.32749(18) 0.41851(18) 0.67617(17) 0.0242 Uani
C8 C 0.07112(18) 0.46703(18) 0.70123(17) 0.0232 Uani
H3 H 0.090027 0.460628 0.622222 0.0280 Uiso
C13 C 0.1030(2) 0.1200(2) 0.6388(3) 0.0507 Uani
H7 H 0.098181 0.212127 0.630924 0.0610 Uiso
C14 C 0.2269(2) 0.0516(2) 0.6408(3) 0.0527 Uani
H8 H 0.306274 0.098255 0.631911 0.0630 Uiso
Mn5 Mn 0.63001(3) 0.50349(3) 0.62047(3) 0.0238 Uani
N3 N 0.35809(18) 0.84268(18) 0.66398(18) 0.0379 Uani
N4 N 0.52808(17) 0.69502(18) 0.64577(17) 0.0351 Uani
C15 C 0.2321(2) 0.9150(2) 0.6558(2) 0.0371 Uani
C16 C 0.1169(2) 0.8466(2) 0.6656(3) 0.0518 Uani
H9 H 0.121183 0.753846 0.675349 0.0620 Uiso
C18 C 0.4332(3) 0.8484(3) 0.7349(3) 0.0779 Uani
H11 H 0.416361 0.904210 0.782471 0.0930 Uiso
C19 C 0.5364(3) 0.7578(3) 0.7228(3) 0.0694 Uani
H12 H 0.603702 0.740662 0.761516 0.0830 Uiso
C20 C 0.4190(2) 0.7481(2) 0.6137(2) 0.0386 Uani
H13 H 0.387308 0.722763 0.561594 0.0460 Uiso
O7 O 0.65124(14) 0.59613(15) 0.42682(12) 0.0354 Uani
O8 O 0.57928(13) 0.59184(14) 0.27674(12) 0.0314 Uani
C24 C 0.98552(18) 0.5076(2) 0.06225(17) 0.0267 Uani
C25 C 0.84933(18) 0.5353(2) 0.13416(17) 0.0272 Uani
H15 H 0.775838 0.544102 0.103488 0.0330 Uiso
C26 C 0.82078(18) 0.54994(19) 0.25035(17) 0.0237 Uani
C27 C 0.67251(18) 0.58149(18) 0.32383(17) 0.0242 Uani
C28 C 0.92888(18) 0.53297(18) 0.29877(17) 0.0232 Uani
H16 H 0.909973 0.539372 0.377778 0.0280 Uiso
N5 N 0.28502(17) 0.70503(17) 0.37829(17) 0.0341 Uani
N6 N 0.14106(17) 0.87680(17) 0.35172(19) 0.0391 Uani
C29 C 0.3634(2) 0.8278(2) 0.3160(3) 0.0590 Uani
H17 H 0.462246 0.836742 0.289183 0.0710 Uiso
C30 C 0.2773(2) 0.9343(3) 0.2988(3) 0.0704 Uani
C31 C 0.1512(2) 0.7388(2) 0.39886(19) 0.0328 Uani
H19 H 0.073506 0.675052 0.440794 0.0390 Uiso
C32 C 0.0125(2) 0.9482(2) 0.3514(2) 0.0366 Uani
N10 N 0.47192(17) 0.30498(18) 0.35423(17) 0.0351 Uani
O1 O 0.85122(13) 0.55620(13) 0.59924(12) 0.0296 Uani
O2 O 0.69212(13) 0.46960(15) 0.79522(13) 0.0360 Uani
N1 N 0.71498(17) 0.29497(17) 0.62171(17) 0.0341 Uani
N2 N 0.85894(17) 0.12320(17) 0.64828(19) 0.0391 Uani
C1 C 0.81826(18) 0.50792(19) 0.71935(18) 0.0249 Uani
C2 C 0.93490(18) 0.49356(19) 0.77120(17) 0.0247 Uani
C3 C 0.90678(18) 0.5037(2) 0.88879(17) 0.0283 Uani
H1 H 0.814266 0.518336 0.936094 0.0340 Uiso
C9 C 0.6366(2) 0.1722(2) 0.6840(3) 0.0590 Uani
H4 H 0.537754 0.163258 0.710817 0.0710 Uiso
C10 C 0.7227(2) 0.0657(3) 0.7012(3) 0.0704 Uani
C11 C 0.8488(2) 0.2612(2) 0.60114(19) 0.0328 Uani
H6 H 0.926494 0.324948 0.559206 0.0390 Uiso
C12 C 0.9875(2) 0.0518(2) 0.6486(2) 0.0366 Uani
N7 N 0.64191(18) 0.15732(18) 0.33602(18) 0.0379 Uani
C35 C 0.7679(2) 0.0850(2) 0.3442(2) 0.0371 Uani
C36 C 0.8831(2) 0.1534(2) 0.3344(3) 0.0518 Uani
H22 H 0.878817 0.246154 0.324651 0.0620 Uiso
C38 C 0.5668(3) 0.1516(3) 0.2651(3) 0.0779 Uani
H24 H 0.583639 0.095790 0.217529 0.0930 Uiso
C39 C 0.4636(3) 0.2422(3) 0.2772(3) 0.0694 Uani
H25 H 0.396298 0.259338 0.238484 0.0830 Uiso
C40 C 0.5810(2) 0.2519(2) 0.3863(2) 0.0386 Uani
H26 H 0.612692 0.277237 0.438406 0.0460 Uiso
C33 C 0.8970(2) 0.8800(2) 0.3612(3) 0.0507 Uani
H20 H 0.901819 0.787873 0.369076 0.0610 Uiso
C34 C 0.7731(2) 0.9484(2) 0.3592(3) 0.0527 Uani
H21 H 0.693726 0.901745 0.368089 0.0630 Uiso
H18 H 0.304768 0.028118 0.258939 0.0850 Uiso
C37 C 0.0061(2) 0.0839(2) 0.3392(3) 0.0551 Uani
H23 H 0.083951 0.129515 0.334105 0.0660 Uiso
H5 H 0.695232 0.971882 0.741061 0.0850 Uiso
C17 C 0.9939(2) 0.9161(2) 0.6608(3) 0.0551 Uani
H10 H 0.916049 0.870485 0.665895 0.0660 Uiso
loop_
_atom_site_aniso_label
_atom_site_aniso_U_11
_atom_site_aniso_U_22
_atom_site_aniso_U_33
_atom_site_aniso_U_23
_atom_site_aniso_U_13
_atom_site_aniso_U_12
O5 0.0239 0.0437 0.026 -0.0138 -0.0143 0.0051
O6 0.0169 0.0629 0.032 -0.0209 -0.0106 0.0056
C21 0.0176 0.0353 0.032 -0.0201 -0.0141 0.0094
C22 0.0183 0.0367 0.0252 -0.0158 -0.0116 0.0072
C23 0.0152 0.0495 0.0286 -0.0235 -0.0099 0.01
Mn8 0.01595 0.03625 0.02696 -0.0179 -0.01179 0.00984
O3 0.0286 0.0561 0.0258 -0.0219 -0.011 0.0151
O4 0.0163 0.0499 0.0334 -0.0204 -0.012 0.0098
C4 0.0197 0.0416 0.0265 -0.0193 -0.0119 0.0097
C5 0.0187 0.0444 0.0278 -0.0199 -0.0137 0.0092
C6 0.0171 0.0338 0.0237 -0.0144 -0.0084 0.0057
C7 0.0212 0.0285 0.0237 -0.01 -0.0101 0.0062
C8 0.0192 0.0327 0.0226 -0.0144 -0.0099 0.0058
C13 0.0387 0.0305 0.093 -0.0288 -0.0322 0.0146
C14 0.0352 0.0389 0.094 -0.0298 -0.0316 0.0115
Mn5 0.01595 0.03625 0.02696 -0.0179 -0.01179 0.00984
N3 0.0333 0.0381 0.0539 -0.0262 -0.0229 0.017
N4 0.0309 0.0429 0.0448 -0.0273 -0.0201 0.0159
C15 0.0284 0.0328 0.0533 -0.0198 -0.0175 0.0136
C16 0.0414 0.0331 0.092 -0.0316 -0.0313 0.0163
C18 0.09 0.093 0.123 -0.089 -0.08 0.0613
C19 0.0746 0.081 0.115 -0.0735 -0.0748 0.051
C20 0.0373 0.044 0.0513 -0.03 -0.0256 0.0192
O7 0.0286 0.0561 0.0258 -0.0219 -0.011 0.0151
O8 0.0163 0.0499 0.0334 -0.0204 -0.012 0.0098
C24 0.0197 0.0416 0.0265 -0.0193 -0.0119 0.0097
C25 0.0187 0.0444 0.0278 -0.0199 -0.0137 0.0092
C26 0.0171 0.0338 0.0237 -0.0144 -0.0084 0.0057
C27 0.0212 0.0285 0.0237 -0.01 -0.0101 0.0062
C28 0.0192 0.0327 0.0226 -0.0144 -0.0099 0.0058
N5 0.0242 0.0365 0.046 -0.0204 -0.0143 0.0095
N6 0.0261 0.0312 0.0616 -0.0202 -0.0168 0.0091
C29 0.0248 0.0423 0.107 -0.0281 -0.0217 0.0056
C30 0.031 0.0329 0.134 -0.0223 -0.0254 0.0033
C31 0.0247 0.0293 0.0456 -0.0166 -0.0135 0.0095
C32 0.028 0.0303 0.0523 -0.0168 -0.0169 0.0124
N10 0.0309 0.0429 0.0448 -0.0273 -0.0201 0.0159
O1 0.0239 0.0437 0.026 -0.0138 -0.0143 0.0051
O2 0.0169 0.0629 0.032 -0.0209 -0.0106 0.0056
N1 0.0242 0.0365 0.046 -0.0204 -0.0143 0.0095
N2 0.0261 0.0312 0.0616 -0.0202 -0.0168 0.0091
C1 0.0176 0.0353 0.032 -0.0201 -0.0141 0.0094
C2 0.0183 0.0367 0.0252 -0.0158 -0.0116 0.0072
C3 0.0152 0.0495 0.0286 -0.0235 -0.0099 0.01
C9 0.0248 0.0423 0.107 -0.0281 -0.0217 0.0056
C10 0.031 0.0329 0.134 -0.0223 -0.0254 0.0033
C11 0.0247 0.0293 0.0456 -0.0166 -0.0135 0.0095
C12 0.028 0.0303 0.0523 -0.0168 -0.0169 0.0124
N7 0.0333 0.0381 0.0539 -0.0262 -0.0229 0.017
C35 0.0284 0.0328 0.0533 -0.0198 -0.0175 0.0136
C36 0.0414 0.0331 0.092 -0.0316 -0.0313 0.0163
C38 0.09 0.093 0.123 -0.089 -0.08 0.0613
C39 0.0746 0.081 0.115 -0.0735 -0.0748 0.051
C40 0.0373 0.044 0.0513 -0.03 -0.0256 0.0192
C33 0.0387 0.0305 0.093 -0.0288 -0.0322 0.0146
C34 0.0352 0.0389 0.094 -0.0298 -0.0316 0.0115
C37 0.0364 0.0371 0.104 -0.0327 -0.0345 0.011
C17 0.0364 0.0371 0.104 -0.0327 -0.0345 0.011
loop_
_geom_bond_atom_site_label_1
_geom_bond_atom_site_label_2
_geom_bond_site_symmetry_1
_geom_bond_site_symmetry_2
O5 C21 1_555 1_555
O6 C21 1_555 1_555
C21 C22 1_555 1_555
C22 C23 1_555 1_555
C23 H14 1_555 1_555
Mn8 O5 1_555 1_555
O6 Mn8 1_555 1_555
O3 C7 1_555 1_555
O4 C7 1_555 1_555
C5 C4 1_555 1_555
H2 C5 1_555 1_555
C6 C5 1_555 1_555
C7 C6 1_555 1_555
H3 C8 1_555 1_555
H7 C13 1_555 1_555
C14 C13 1_555 1_555
H8 C14 1_555 1_555
Mn5 O4 1_555 1_555
Mn8 O3 1_555 1_555
C6 C8 1_555 1_555
N3 C15 1_555 1_555
N4 C19 1_555 1_555
C16 C15 1_555 1_555
H9 C16 1_555 1_555
C18 N3 1_555 1_555
H11 C18 1_555 1_555
C19 C18 1_555 1_555
H12 C19 1_555 1_555
C20 N3 1_555 1_555
H13 C20 1_555 1_555
Mn5 N4 1_555 1_555
N4 C20 1_555 1_555
O7 C27 1_555 1_555
O8 C27 1_555 1_555
C25 C24 1_555 1_555
H15 C25 1_555 1_555
C26 C25 1_555 1_555
C27 C26 1_555 1_555
H16 C28 1_555 1_555
Mn8 O8 1_555 1_555
N5 Mn8 1_555 1_555
N6 C30 1_555 1_555
C29 N5 1_555 1_555
H17 C29 1_555 1_555
C30 C29 1_555 1_555
C31 N5 1_555 1_555
H19 C31 1_555 1_555
C32 N6 1_555 1_555
Mn5 O7 1_555 1_555
N10 Mn8 1_555 1_555
C26 C28 1_555 1_555
N6 C31 1_555 1_555
O1 Mn5 1_555 1_555
Mn5 O2 1_555 1_555
O2 C1 1_555 1_555
N1 Mn5 1_555 1_555
N2 C10 1_555 1_555
C1 O1 1_555 1_555
C2 C1 1_555 1_555
C3 C2 1_555 1_555
H1 C3 1_555 1_555
C9 N1 1_555 1_555
H4 C9 1_555 1_555
C10 C9 1_555 1_555
C11 N1 1_555 1_555
H6 C11 1_555 1_555
C12 N2 1_555 1_555
N2 C11 1_555 1_555
N7 C35 1_555 1_555
N10 C39 1_555 1_555
C36 C35 1_555 1_555
H22 C36 1_555 1_555
C38 N7 1_555 1_555
H24 C38 1_555 1_555
C39 C38 1_555 1_555
H25 C39 1_555 1_555
C40 N7 1_555 1_555
H26 C40 1_555 1_555
N10 C40 1_555 1_555
H20 C33 1_555 1_555
C34 C33 1_555 1_555
H21 C34 1_555 1_555
H23 C37 1_555 1_555
H10 C17 1_555 1_555

#END
