
###############################################################################
#
# This file contains modified crystal structure data generated from the
# MOF subset of the Cambridge Structural Database (CSD) v543 
# hosted by the Cambridge Crystallographic Data Centre (CCDC).
#
# This work is licensed under the Creative Commons
# Attribution-NonCommercial-ShareAlike 4.0 International License.
# To view a copy of this license, visit
# http://creativecommons.org/licenses/by-nc-sa/4.0/
# or send a letter to
# Creative Commons, PO Box 1866, Mountain View, CA 94042, USA.
#
# CIF created using the CSD Python API on 29 September 2022
# The structure has been converted into the P1 space group
# The structure has a 3D framework
# The original CSD entry JICJAJ is in the triclinic crystal system
# The framework has been calculated to contain at least 10.0% void space
# The void calculation uses a probe of radius 1.32A, grid spacing 0.4
# H atom positions have been added when not included in the experimental data
# Generated hydrogen atom positions removed from atoms on special positions
#
###############################################################################

data_JICJAJ
_chemical_formula_moiety         '(C10 H16 Nd3 O24)n'
_symmetry_cell_setting           triclinic
_symmetry_space_group_name_H-M   'P 1'
_symmetry_Int_Tables_number      1
_space_group_name_Hall           'P 1'
loop_
_symmetry_equiv_pos_site_id
_symmetry_equiv_pos_as_xyz
1 x,y,z
_cell_length_a                   6.2596(5)
_cell_length_b                   8.6108(7)
_cell_length_c                   12.9187(7)
_cell_angle_alpha                105.366(6)
_cell_angle_beta                 90.451(5)
_cell_angle_gamma                105.115(6)
_cell_volume                     645.981
loop_
_atom_site_label
_atom_site_type_symbol
_atom_site_fract_x
_atom_site_fract_y
_atom_site_fract_z
_atom_site_U_iso_or_equiv
_atom_site_thermal_displace_type
C6 C 0.0948(17) 0.0820(12) 0.0227(7) 0.0298 Uani
O19 O 0.1411(12) 0.1304(9) 0.1199(5) 0.0333 Uani
Nd1 Nd 0.05777(7) 0.02794(5) 0.75760(3) 0.0114 Uani
O3 O 0.2674(11) 0.3159(8) 0.7824(5) 0.0214 Uani
O7 O 0.1832(12) 0.1509(8) 0.9532(5) 0.0331 Uani
C2 C 0.4425(14) 0.0508(10) 0.5454(6) 0.0124 Uani
O18 O 0.4796(10) 0.2020(7) 0.5549(5) 0.0157 Uani
O22 O 0.6734(10) 0.0295(7) 0.3966(4) 0.0146 Uani
Nd7 Nd 0.69088(7) 0.33323(5) 0.42494(3) 0.0101 Uani
O5 O 0.3597(11) 0.8982(8) 0.7949(5) 0.0244 Uani
O6 O 0.3266(10) 0.9705(7) 0.6034(4) 0.0146 Uani
Nd2 Nd 0.30912(7) 0.66677(5) 0.57506(3) 0.0101 Uani
O10 O 0.5204(10) 0.7980(7) 0.4451(5) 0.0157 Uani
O11 O 0.3387(10) 0.4331(7) 0.4251(4) 0.0165 Uani
O12 O 0.0052(10) 0.3841(7) 0.5658(4) 0.0155 Uani
O13 O 0.3376(11) 0.5428(8) 0.7228(5) 0.0236 Uani
C4 C 0.0444(15) 0.3029(11) 0.6275(6) 0.0164 Uani
C5 C 0.2297(15) 0.3949(11) 0.7194(7) 0.0171 Uani
O15 O 0.7020(9) 0.8332(7) 0.6627(4) 0.0180 Uani
O17 O 0.6613(10) 0.5669(7) 0.5749(4) 0.0165 Uani
C7 C 0.5575(14) 0.9492(10) 0.4546(6) 0.0124 Uani
C8 C 0.2152(13) 0.2922(10) 0.3693(6) 0.0125 Uani
O23 O 0.2980(9) 0.1668(7) 0.3373(4) 0.0180 Uani
O24 O 0.0109(9) 0.2690(7) 0.3404(4) 0.0154 Uani
O30 O 0.0564(10) 0.8433(7) 0.3739(5) 0.0175 Uani
Nd8 Nd 0.94223(7) 0.97206(5) 0.24240(3) 0.0114 Uani
O35 O 0.2295(11) 0.8282(8) 0.1623(5) 0.0309 Uani
O2 O 0.9436(10) 0.1567(7) 0.6261(5) 0.0175 Uani
O4 O 0.7705(11) 0.1718(8) 0.8377(5) 0.0309 Uani
O14 O 0.8168(12) 0.8491(8) 0.0468(5) 0.0331 Uani
O1 O 0.8589(12) 0.8696(9) 0.8801(5) 0.0333 Uani
O9 O 0.9891(9) 0.7310(7) 0.6596(4) 0.0154 Uani
C1 C 0.9052(17) 0.9180(12) 0.9773(7) 0.0298 Uani
C3 C 0.7848(13) 0.7078(10) 0.6307(6) 0.0125 Uani
O16 O 0.9948(10) 0.6159(7) 0.4342(4) 0.0155 Uani
C9 C 0.9556(15) 0.6971(11) 0.3725(6) 0.0164 Uani
O28 O 0.6624(11) 0.4572(8) 0.2772(5) 0.0236 Uani
C10 C 0.7703(15) 0.6051(11) 0.2806(7) 0.0171 Uani
O32 O 0.7326(11) 0.6841(8) 0.2176(5) 0.0214 Uani
O36 O 0.6403(11) 0.1018(8) 0.2051(5) 0.0244 Uani
loop_
_atom_site_aniso_label
_atom_site_aniso_U_11
_atom_site_aniso_U_22
_atom_site_aniso_U_33
_atom_site_aniso_U_23
_atom_site_aniso_U_13
_atom_site_aniso_U_12
C6 0.032 0.037 0.011 0.011 -0.005 -0.011
O19 0.0336 0.0337 0.0311 0.0099 0.0038 0.0054
Nd1 0.0117 0.0125 0.0099 0.00418 0.00037 0.00188
O3 0.026 0.022 0.018 0.012 -0.004 0.003
O7 0.038 0.039 0.011 0.007 -0.001 -0.009
C2 0.011 0.012 0.012 0.002 -0.004 0.001
O18 0.018 0.011 0.021 0.008 0.006 0.005
O22 0.016 0.015 0.016 0.008 0.003 0.006
Nd7 0.008 0.0102 0.0136 0.0052 0.00083 0.00297
O5 0.019 0.033 0.023 0.008 -0.003 0.01
O6 0.016 0.015 0.016 0.008 0.003 0.006
Nd2 0.008 0.0102 0.0136 0.0052 0.00083 0.00297
O10 0.018 0.011 0.021 0.008 0.006 0.005
O11 0.013 0.013 0.018 -0.005 -0.005 0.004
O12 0.018 0.017 0.011 0.007 0 0.001
O13 0.025 0.02 0.019 0.005 -0.007 -0.005
C4 0.017 0.023 0.009 -0.003 -0.004 0.013
C5 0.016 0.02 0.017 0.008 0.005 0.005
O15 0.012 0.022 0.023 0.009 0.001 0.007
O17 0.013 0.013 0.018 -0.005 -0.005 0.004
C7 0.011 0.012 0.012 0.002 -0.004 0.001
C8 0.007 0.017 0.016 0.01 0.004 0.002
O23 0.012 0.022 0.023 0.009 0.001 0.007
O24 0.0144 0.0154 0.0157 0.0036 0.0011 0.0038
O30 0.021 0.01 0.021 0.007 -0.006 0.001
Nd8 0.0117 0.0125 0.0099 0.00418 0.00037 0.00188
O35 0.026 0.028 0.034 -0.001 0.011 0.009
O2 0.021 0.01 0.021 0.007 -0.006 0.001
O4 0.026 0.028 0.034 -0.001 0.011 0.009
O14 0.038 0.039 0.011 0.007 -0.001 -0.009
O1 0.0336 0.0337 0.0311 0.0099 0.0038 0.0054
O9 0.0144 0.0154 0.0157 0.0036 0.0011 0.0038
C1 0.032 0.037 0.011 0.011 -0.005 -0.011
C3 0.007 0.017 0.016 0.01 0.004 0.002
O16 0.018 0.017 0.011 0.007 0 0.001
C9 0.017 0.023 0.009 -0.003 -0.004 0.013
O28 0.025 0.02 0.019 0.005 -0.007 -0.005
C10 0.016 0.02 0.017 0.008 0.005 0.005
O32 0.026 0.022 0.018 0.012 -0.004 0.003
O36 0.019 0.033 0.023 0.008 -0.003 0.01
loop_
_geom_bond_atom_site_label_1
_geom_bond_atom_site_label_2
_geom_bond_site_symmetry_1
_geom_bond_site_symmetry_2
O19 C6 1_555 1_555
O3 Nd1 1_555 1_555
O7 Nd1 1_555 1_555
O18 C2 1_555 1_555
Nd7 O18 1_555 1_555
O22 Nd7 1_555 1_555
Nd2 O6 1_555 1_555
O10 Nd2 1_555 1_555
O11 Nd2 1_555 1_555
O12 Nd2 1_555 1_555
O13 Nd2 1_555 1_555
C4 O12 1_555 1_555
C5 O13 1_555 1_555
O15 Nd2 1_555 1_555
O17 Nd2 1_555 1_555
C8 O11 1_555 1_555
Nd7 O11 1_555 1_555
O23 C8 1_555 1_555
O24 C8 1_555 1_555
O3 C5 1_555 1_555
O10 C7 1_555 1_555
C4 C5 1_555 1_555
O17 Nd7 1_555 1_555
Nd7 O23 1_555 1_555
Nd8 O14 1_555 1_555
O1 C1 1_555 1_555
C3 O15 1_555 1_555
O17 C3 1_555 1_555
C9 O16 1_555 1_555
O28 Nd7 1_555 1_555
C10 C9 1_555 1_555
O32 C10 1_555 1_555
O9 C3 1_555 1_555
O16 Nd7 1_555 1_555
O28 C10 1_555 1_555
Nd8 O32 1_555 1_555

#END
