
###############################################################################
#
# This file contains modified crystal structure data generated from the
# MOF subset of the Cambridge Structural Database (CSD) v543 
# hosted by the Cambridge Crystallographic Data Centre (CCDC).
#
# This work is licensed under the Creative Commons
# Attribution-NonCommercial-ShareAlike 4.0 International License.
# To view a copy of this license, visit
# http://creativecommons.org/licenses/by-nc-sa/4.0/
# or send a letter to
# Creative Commons, PO Box 1866, Mountain View, CA 94042, USA.
#
# CIF created using the CSD Python API on 29 September 2022
# The structure has been converted into the P1 space group
# The structure has a 3D framework
# The original CSD entry JICJEN is in the triclinic crystal system
# The framework has been calculated to contain at least 10.0% void space
# The void calculation uses a probe of radius 1.32A, grid spacing 0.4
# H atom positions have been added when not included in the experimental data
# Generated hydrogen atom positions removed from atoms on special positions
#
###############################################################################

data_JICJEN
_chemical_formula_moiety         '(C10 H16 O25 Pr4)n'
_symmetry_cell_setting           triclinic
_symmetry_space_group_name_H-M   'P 1'
_symmetry_Int_Tables_number      1
_space_group_name_Hall           'P 1'
loop_
_symmetry_equiv_pos_site_id
_symmetry_equiv_pos_as_xyz
1 x,y,z
_cell_length_a                   6.2596(5)
_cell_length_b                   8.6136(9)
_cell_length_c                   12.9309(19)
_cell_angle_alpha                105.430(11)
_cell_angle_beta                 90.422(9)
_cell_angle_gamma                105.069(8)
_cell_volume                     646.767
loop_
_atom_site_label
_atom_site_type_symbol
_atom_site_fract_x
_atom_site_fract_y
_atom_site_fract_z
_atom_site_U_iso_or_equiv
_atom_site_thermal_displace_type
Pr9 Pr 0.19086(10) 0.33350(8) 0.42496(5) 0.0125 Uani
O2 O 0.1396(14) 0.1015(13) 0.2046(8) 0.0293 Uani
O4 O 0.1737(13) 0.0284(10) 0.3957(7) 0.0155 Uani
O5 O 0.8000(13) 0.1678(11) 0.3379(7) 0.0217 Uani
O6 O 0.5097(13) 0.2689(11) 0.3408(7) 0.0224 Uani
O8 O 0.5564(15) 0.8432(11) 0.3738(8) 0.0278 Uani
O9 O 0.2339(15) 0.6832(11) 0.2173(8) 0.0261 Uani
C3 C 0.714(2) 0.2945(15) 0.3698(10) 0.0189 Uani
O11 O 0.4939(14) 0.6150(11) 0.4345(7) 0.0188 Uani
O12 O 0.1666(14) 0.4574(11) 0.2772(8) 0.0254 Uani
O13 O 0.8407(12) 0.4337(11) 0.4250(7) 0.0189 Uani
C4 C 0.4578(19) 0.6979(15) 0.3725(10) 0.0160 Uani
C5 C 0.268(2) 0.6056(17) 0.2819(10) 0.0200 Uani
O15 O 0.6425(17) 0.1333(15) 0.1214(8) 0.0507 Uani
C6 C 0.596(2) 0.081(2) 0.0205(12) 0.0350 Uani
Pr5 Pr 0.44229(10) 0.97171(8) 0.24225(5) 0.0136 Uani
Pr11 Pr 0.80914(10) 0.66650(8) 0.57504(5) 0.0125 Uani
O36 O 0.5061(14) 0.3850(11) 0.5655(7) 0.0188 Uani
O40 O 0.1593(12) 0.5663(11) 0.5750(7) 0.0189 Uani
H4 H 0.116182 0.181033 0.271959 . .
O14 O 0.6838(16) 0.1513(13) 0.9525(8) 0.0370 Uani
Pr7 Pr 0.55771(10) 0.02829(8) 0.75775(5) 0.0136 Uani
O1 O 0.3162(16) 0.8487(13) 0.0475(8) 0.0370 Uani
O3 O 0.7279(14) 0.8276(13) 0.1622(8) 0.0359 Uani
C2 C 0.0551(18) 0.9481(16) 0.4558(10) 0.0173 Uani
O10 O 0.0191(14) 0.7975(10) 0.4447(7) 0.0193 Uani
O29 O 0.2000(13) 0.8322(11) 0.6621(7) 0.0217 Uani
H5 H 0.00799648 0.974887 0.792397 . .
O7 O 0.3575(17) 0.8667(15) 0.8786(8) 0.0507 Uani
C1 C 0.404(2) 0.919(2) 0.9795(12) 0.0350 Uani
C7 C 0.9449(18) 0.0519(16) 0.5442(10) 0.0173 Uani
O17 O 0.9809(14) 0.2025(10) 0.5553(7) 0.0193 Uani
O19 O 0.2721(14) 0.1724(13) 0.8378(8) 0.0359 Uani
O32 O 0.4436(15) 0.1568(11) 0.6262(8) 0.0278 Uani
O34 O 0.7661(15) 0.3168(11) 0.7827(8) 0.0261 Uani
H3 H 0.999463 0.0120095 0.177659 . .
O16 O 0.8263(13) 0.9716(10) 0.6043(7) 0.0155 Uani
O18 O 0.8604(14) 0.8985(13) 0.7954(8) 0.0293 Uani
O21 O 0.4903(13) 0.7311(11) 0.6592(7) 0.0224 Uani
C8 C 0.286(2) 0.7055(15) 0.6302(10) 0.0189 Uani
O25 O 0.8334(14) 0.5426(11) 0.7228(8) 0.0254 Uani
C9 C 0.5422(19) 0.3021(15) 0.6275(10) 0.0160 Uani
C10 C 0.732(2) 0.3944(17) 0.7181(10) 0.0200 Uani
H6 H 0.848941 0.880233 0.868044 . .
H6_2 H 0.151059 0.119767 0.131956 . .
H3_2 H 0.000536925 0.98799 0.822341 . .
H5_2 H 0.992004 0.0251131 0.207603 . .
H4_2 H 0.883818 0.818967 0.728041 . .
loop_
_atom_site_aniso_label
_atom_site_aniso_U_11
_atom_site_aniso_U_22
_atom_site_aniso_U_33
_atom_site_aniso_U_23
_atom_site_aniso_U_13
_atom_site_aniso_U_12
Pr9 0.0096 0.009 0.019 0.0053 0.0021 0.0013
O2 0.02 0.045 0.03 0.021 -0.001 0.01
O4 0.019 0.011 0.02 0.009 0.01 0.005
O5 0.015 0.023 0.026 0.008 -0.003 0.002
O6 0.008 0.024 0.03 0.001 0.005 0.002
O8 0.026 0.021 0.035 0.013 -0.005 -0.001
O9 0.029 0.018 0.03 0.01 -0.006 0.001
C3 0.026 0.013 0.017 0.003 0.01 0.005
O11 0.021 0.018 0.021 0.01 -0.006 0.007
O12 0.024 0.013 0.038 0.012 -0.002 -0.002
O13 0.005 0.021 0.027 -0.001 -0.002 0.005
C4 0.014 0.01 0.024 0.002 -0.001 0.006
C5 0.024 0.024 0.009 0.01 -0.003 -0.004
O15 0.046 0.059 0.02 0.007 -0.011 -0.028
C6 0.035 0.039 0.021 0.013 0 -0.012
Pr5 0.0125 0.0126 0.0141 0.0042 0.0019 0.0001
Pr11 0.0096 0.009 0.019 0.0053 0.0021 0.0013
O36 0.021 0.018 0.021 0.01 -0.006 0.007
O40 0.005 0.021 0.027 -0.001 -0.002 0.005
O14 0.037 0.041 0.023 0.014 0.003 -0.012
Pr7 0.0125 0.0126 0.0141 0.0042 0.0019 0.0001
O1 0.037 0.041 0.023 0.014 0.003 -0.012
O3 0.016 0.043 0.04 -0.004 0.009 0.009
C2 0.007 0.017 0.022 0 -0.002 -0.001
O10 0.022 0.014 0.022 0.008 0.007 0.002
O29 0.015 0.023 0.026 0.008 -0.003 0.002
O7 0.046 0.059 0.02 0.007 -0.011 -0.028
C1 0.035 0.039 0.021 0.013 0 -0.012
C7 0.007 0.017 0.022 0 -0.002 -0.001
O17 0.022 0.014 0.022 0.008 0.007 0.002
O19 0.016 0.043 0.04 -0.004 0.009 0.009
O32 0.026 0.021 0.035 0.013 -0.005 -0.001
O34 0.029 0.018 0.03 0.01 -0.006 0.001
O16 0.019 0.011 0.02 0.009 0.01 0.005
O18 0.02 0.045 0.03 0.021 -0.001 0.01
O21 0.008 0.024 0.03 0.001 0.005 0.002
C8 0.026 0.013 0.017 0.003 0.01 0.005
O25 0.024 0.013 0.038 0.012 -0.002 -0.002
C9 0.014 0.01 0.024 0.002 -0.001 0.006
C10 0.024 0.024 0.009 0.01 -0.003 -0.004
loop_
_geom_bond_atom_site_label_1
_geom_bond_atom_site_label_2
_geom_bond_site_symmetry_1
_geom_bond_site_symmetry_2
O8 C4 1_555 1_555
O9 C5 1_555 1_555
Pr9 O4 1_555 1_555
C3 O5 1_555 1_555
O11 Pr9 1_555 1_555
O12 Pr9 1_555 1_555
O13 C3 1_555 1_555
C4 O11 1_555 1_555
C5 O12 1_555 1_555
C6 O15 1_555 1_555
Pr5 O8 1_555 1_555
Pr11 O11 1_555 1_555
O36 Pr9 1_555 1_555
O40 Pr9 1_555 1_555
O6 Pr9 1_555 1_555
O6 C3 1_555 1_555
O9 Pr5 1_555 1_555
O13 Pr11 1_555 1_555
C4 C5 1_555 1_555
Pr11 O36 1_555 1_555
O2 H4 1_555 1_555
O14 Pr7 1_555 1_555
Pr5 O1 1_555 1_555
O3 Pr5 1_555 1_555
O10 C2 1_555 1_555
O7 C1 1_555 1_555
O19 Pr7 1_555 1_555
O32 Pr7 1_555 1_555
O34 Pr7 1_555 1_555
C7 O17 1_555 1_555
O32 C9 1_555 1_555
O34 C10 1_555 1_555
C8 O29 1_555 1_555
O25 Pr11 1_555 1_555
O40 C8 1_555 1_555
C9 O36 1_555 1_555
C10 O25 1_555 1_555
O16 Pr11 1_555 1_555
O21 Pr11 1_555 1_555
O21 C8 1_555 1_555
C9 C10 1_555 1_555
O18 H6 1_555 1_555
O2 H6_2 1_555 1_555
O18 H4_2 1_555 1_555

#END
