
###############################################################################
#
# This file contains modified crystal structure data generated from the
# MOF subset of the Cambridge Structural Database (CSD) v543 
# hosted by the Cambridge Crystallographic Data Centre (CCDC).
#
# This work is licensed under the Creative Commons
# Attribution-NonCommercial-ShareAlike 4.0 International License.
# To view a copy of this license, visit
# http://creativecommons.org/licenses/by-nc-sa/4.0/
# or send a letter to
# Creative Commons, PO Box 1866, Mountain View, CA 94042, USA.
#
# CIF created using the CSD Python API on 29 September 2022
# The structure has been converted into the P1 space group
# The structure has a 3D framework
# The original CSD entry JIDKIT is in the monoclinic crystal system
# The framework has been calculated to contain at least 10.0% void space
# The void calculation uses a probe of radius 1.32A, grid spacing 0.4
#
###############################################################################

data_JIDKIT
_chemical_formula_moiety         '(C36 H20 N16 O16 Zn4)n'
_symmetry_cell_setting           triclinic
_symmetry_space_group_name_H-M   'P 1'
_symmetry_Int_Tables_number      1
_space_group_name_Hall           'P 1'
loop_
_symmetry_equiv_pos_site_id
_symmetry_equiv_pos_as_xyz
1 x,y,z
_cell_length_a                   12.345(5)
_cell_length_b                   9.502(5)
_cell_length_c                   18.610(5)
_cell_angle_alpha                90
_cell_angle_beta                 99.448(5)
_cell_angle_gamma                90
_cell_volume                     2153.38
loop_
_atom_site_label
_atom_site_type_symbol
_atom_site_fract_x
_atom_site_fract_y
_atom_site_fract_z
C18 C 0.0097(6) 0.0794(7) 0.7502(4)
N7 N 0.0204(4) 0.2150(6) 0.7455(3)
H10 H 0.049(6) 0.015(8) 0.760(4)
Zn6 Zn 0.15512(5) 0.34371(7) 0.75726(3)
C3 C 0.4499(5) 0.0400(7) 0.0051(3)
C4 C 0.4138(5) 0.0412(7) 0.0727(3)
C5 C 0.3213(5) 0.1177(7) 0.0828(3)
C6 C 0.2635(5) 0.1941(8) 0.0255(3)
H3 H 0.2029 0.2471 0.0327
C7 C 0.2843(5) 0.1139(8) 0.1562(3)
O1 O 0.3331(5) 0.0401(7) 0.2050(3)
O2 O 0.2007(4) 0.1854(5) 0.1625(2)
Zn1 Zn 0.15512(5) 0.15629(7) 0.25726(3)
O10 O 0.2592(4) 0.2421(5) 0.3343(2)
N9 N 0.0204(4) 0.2850(6) 0.2455(3)
C1 C 0.2952(5) 0.1920(7) 0.9580(3)
C2 C 0.3896(5) 0.1147(8) 0.9485(3)
H1 H 0.4117 0.1141 0.9031
C8 C 0.2289(6) 0.2674(8) 0.8958(3)
O3 O 0.1475(6) 0.3343(7) 0.9053(3)
O4 O 0.2592(4) 0.2579(5) 0.8343(2)
H7 H 0.5479 0.0099 0.8887
N5 N 0.9112(4) 0.0369(5) 0.7399(3)
N6 N 0.8535(7) 0.1500(8) 0.7214(10)
H9 H 0.7832 0.1524 0.7096
N8 N 0.9179(7) 0.2580(8) 0.7236(7)
H2 H 0.4521 0.9901 0.1113
N1 N 0.0888(4) 0.9631(5) 0.2601(3)
N2 N 0.1465(7) 0.8500(8) 0.2786(10)
H4 H 0.2168 0.8476 0.2904
N4 N 0.0821(7) 0.7420(8) 0.2764(7)
C10 C 0.7048(5) 0.8080(7) 0.0420(3)
C11 C 0.6104(5) 0.8853(8) 0.0515(3)
H6 H 0.5883 0.8859 0.0969
C17 C 0.7711(6) 0.7326(8) 0.1042(3)
O7 O 0.8525(6) 0.6657(7) 0.0947(3)
O8 O 0.7408(4) 0.7421(5) 0.1657(2)
Zn4 Zn 0.84488(5) 0.65629(7) 0.24274(3)
C12 C 0.5501(5) 0.9600(7) 0.9949(3)
C13 C 0.5862(5) 0.9588(7) 0.9273(3)
C14 C 0.6787(5) 0.8823(7) 0.9172(3)
C15 C 0.7365(5) 0.8059(8) 0.9745(3)
H8 H 0.7971 0.7529 0.9673
C16 C 0.7157(5) 0.8861(8) 0.8438(3)
O5 O 0.6669(5) 0.9599(7) 0.7950(3)
O6 O 0.7993(4) 0.8146(5) 0.8375(2)
Zn2 Zn 0.84488(5) 0.84371(7) 0.74274(3)
O9 O 0.7408(4) 0.7579(5) 0.6657(2)
N10 N 0.9796(4) 0.7150(6) 0.7545(3)
C9 C 0.9903(6) 0.9206(7) 0.2498(4)
N3 N 0.9796(4) 0.7850(6) 0.2545(3)
H5 H 0.951(6) 0.985(8) 0.240(4)
C9_2 C 0.0097(6) 0.4206(7) 0.2502(4)
H5_2 H 0.049(6) 0.485(8) 0.260(4)
C1_2 C 0.7048(5) 0.6920(7) 0.5420(3)
C2_2 C 0.6104(5) 0.6147(8) 0.5515(3)
H1_2 H 0.5883 0.6141 0.5969
C3_2 C 0.5501(5) 0.5400(7) 0.4949(3)
C4_2 C 0.5862(5) 0.5412(7) 0.4273(3)
H2_2 H 0.5479 0.4901 0.3887
C5_2 C 0.6787(5) 0.6177(7) 0.4172(3)
C6_2 C 0.7365(5) 0.6941(8) 0.4745(3)
H3_2 H 0.7971 0.7471 0.4673
C7_2 C 0.7157(5) 0.6139(8) 0.3438(3)
C8_2 C 0.7711(6) 0.7674(8) 0.6042(3)
N1_2 N 0.9112(4) 0.4631(5) 0.2399(3)
N2_2 N 0.8535(7) 0.3500(8) 0.2214(10)
H4_2 H 0.7832 0.3476 0.2096
O1_2 O 0.6669(5) 0.5401(7) 0.2950(3)
O2_2 O 0.7993(4) 0.6854(5) 0.3375(2)
O3_2 O 0.8525(6) 0.8343(7) 0.5947(3)
N4_2 N 0.9179(7) 0.2420(8) 0.2236(7)
C10_2 C 0.2952(5) 0.3080(7) 0.4580(3)
C11_2 C 0.3896(5) 0.3853(8) 0.4485(3)
H6_2 H 0.4117 0.3859 0.4031
C12_2 C 0.4499(5) 0.4600(7) 0.5051(3)
C13_2 C 0.4138(5) 0.4588(7) 0.5727(3)
H7_2 H 0.4521 0.5099 0.6113
C14_2 C 0.3213(5) 0.3823(7) 0.5828(3)
C15_2 C 0.2635(5) 0.3059(8) 0.5255(3)
H8_2 H 0.2029 0.2529 0.5327
C16_2 C 0.2843(5) 0.3861(8) 0.6562(3)
C17_2 C 0.2289(6) 0.2326(8) 0.3958(3)
O5_2 O 0.3331(5) 0.4599(7) 0.7050(3)
O6_2 O 0.2007(4) 0.3146(5) 0.6625(2)
O7_2 O 0.1475(6) 0.1657(7) 0.4053(3)
N5_2 N 0.0888(4) 0.5369(5) 0.7601(3)
N6_2 N 0.1465(7) 0.6500(8) 0.7786(10)
H9_2 H 0.2168 0.6524 0.7904
N8_2 N 0.0821(7) 0.7580(8) 0.7764(7)
C18_2 C 0.9903(6) 0.5794(7) 0.7498(4)
H10_2 H 0.951(6) 0.515(8) 0.740(4)
loop_
_geom_bond_atom_site_label_1
_geom_bond_atom_site_label_2
_geom_bond_site_symmetry_1
_geom_bond_site_symmetry_2
C18 N7 1_555 1_555
H10 C18 1_555 1_555
Zn6 N7 1_555 1_555
C4 C3 1_555 1_555
C5 C4 1_555 1_555
H3 C6 1_555 1_555
C7 C5 1_555 1_555
O1 C7 1_555 1_555
O2 C7 1_555 1_555
O10 Zn1 1_555 1_555
N9 Zn1 1_555 1_555
C5 C6 1_555 1_555
O2 Zn1 1_555 1_555
C1 C2 1_555 1_555
C2 H1 1_555 1_555
C8 C1 1_555 1_555
O3 C8 1_555 1_555
O4 C8 1_555 1_555
N6 N5 1_555 1_555
H9 N6 1_555 1_555
N8 N6 1_555 1_555
Zn6 O4 1_555 1_555
N2 N1 1_555 1_555
H4 N2 1_555 1_555
N4 N2 1_555 1_555
C10 C11 1_555 1_555
C11 H6 1_555 1_555
C17 C10 1_555 1_555
O7 C17 1_555 1_555
O8 C17 1_555 1_555
Zn4 O8 1_555 1_555
C13 C12 1_555 1_555
C14 C13 1_555 1_555
H8 C15 1_555 1_555
C16 C14 1_555 1_555
O5 C16 1_555 1_555
O6 C16 1_555 1_555
Zn2 O6 1_555 1_555
O9 Zn2 1_555 1_555
N10 Zn2 1_555 1_555
C14 C15 1_555 1_555
C9 N3 1_555 1_555
H5 C9 1_555 1_555
Zn4 N3 1_555 1_555
C9_2 N9 1_555 1_555
H5_2 C9_2 1_555 1_555
C1_2 C2_2 1_555 1_555
C2_2 H1_2 1_555 1_555
C3_2 C2_2 1_555 1_555
C4_2 C3_2 1_555 1_555
H2_2 C4_2 1_555 1_555
C5_2 C4_2 1_555 1_555
C6_2 C1_2 1_555 1_555
H3_2 C6_2 1_555 1_555
C7_2 C5_2 1_555 1_555
C8_2 C1_2 1_555 1_555
N2_2 N1_2 1_555 1_555
H4_2 N2_2 1_555 1_555
O1_2 C7_2 1_555 1_555
O2_2 C7_2 1_555 1_555
O3_2 C8_2 1_555 1_555
O9 C8_2 1_555 1_555
Zn4 N1_2 1_555 1_555
N4_2 N2_2 1_555 1_555
C10_2 C11_2 1_555 1_555
C11_2 H6_2 1_555 1_555
C12_2 C3_2 1_555 1_555
C13_2 C12_2 1_555 1_555
H7_2 C13_2 1_555 1_555
C14_2 C13_2 1_555 1_555
C15_2 C10_2 1_555 1_555
H8_2 C15_2 1_555 1_555
C16_2 C14_2 1_555 1_555
C17_2 C10_2 1_555 1_555
O5_2 C16_2 1_555 1_555
O6_2 C16_2 1_555 1_555
O7_2 C17_2 1_555 1_555
O10 C17_2 1_555 1_555
N6_2 N5_2 1_555 1_555
H9_2 N6_2 1_555 1_555
Zn6 O6_2 1_555 1_555
N8_2 N6_2 1_555 1_555
C5_2 C6_2 1_555 1_555
O2_2 Zn4 1_555 1_555
C11_2 C12_2 1_555 1_555
C14_2 C15_2 1_555 1_555
N5_2 Zn6 1_555 1_555
C18_2 N10 1_555 1_555
H10_2 C18_2 1_555 1_555

#END
