
###############################################################################
#
# This file contains modified crystal structure data generated from the
# MOF subset of the Cambridge Structural Database (CSD) v543 
# hosted by the Cambridge Crystallographic Data Centre (CCDC).
#
# This work is licensed under the Creative Commons
# Attribution-NonCommercial-ShareAlike 4.0 International License.
# To view a copy of this license, visit
# http://creativecommons.org/licenses/by-nc-sa/4.0/
# or send a letter to
# Creative Commons, PO Box 1866, Mountain View, CA 94042, USA.
#
# CIF created using the CSD Python API on 29 September 2022
# The structure has been converted into the P1 space group
# The structure has a 3D framework
# The original CSD entry JIDRUM is in the triclinic crystal system
# The framework has been calculated to contain at least 10.0% void space
# The void calculation uses a probe of radius 1.32A, grid spacing 0.4
# The framework is charged, counterions have been retained in the structure
# H atom positions have been added when not included in the experimental data
# Generated hydrogen atom positions removed from atoms on special positions
#
###############################################################################

data_JIDRUM
_chemical_formula_moiety         '(C84 H84 Eu5 N2 O44 1-)n'
_symmetry_cell_setting           triclinic
_symmetry_space_group_name_H-M   'P 1'
_symmetry_Int_Tables_number      1
_space_group_name_Hall           'P 1'
loop_
_symmetry_equiv_pos_site_id
_symmetry_equiv_pos_as_xyz
1 x,y,z
_cell_length_a                   12.4545(9)
_cell_length_b                   15.1760(11)
_cell_length_c                   17.4374(12)
_cell_angle_alpha                98.2990(10)
_cell_angle_beta                 109.5090(10)
_cell_angle_gamma                106.1760(10)
_cell_volume                     2879.23
loop_
_atom_site_label
_atom_site_type_symbol
_atom_site_fract_x
_atom_site_fract_y
_atom_site_fract_z
C41 C 0.0438(17) 0.6207(11) 0.1055(12)
H29 H 0.1027 0.6412 0.0817
H30 H 0.0696 0.6634 0.1597
C42 C 0.1540(12) 0.5078(13) 0.1214(15)
H31 H 0.1850 0.5415 0.0863
H32 H 0.1403 0.4415 0.1029
H33 H 0.2119 0.5326 0.1788
N1 N 0.0320(10) 0.5207(13) 0.1153(9)
O8 O 0.2594(7) 0.0495(4) 0.3904(4)
Eu13 Eu 0.32353(3) 0.21526(2) 0.419618(16)
Eu18 Eu 0.5000 -0.0000 0.5000
C13 C 0.0250(5) 0.9287(4) 0.2679(4)
H10 H 0.0494 0.9914 0.2649
C14 C 0.1042(5) 0.8973(4) 0.3243(4)
C15 C 0.0715(6) 0.8039(5) 0.3263(4)
H11 H 0.1264 0.7836 0.3636
C19 C 0.2289(6) 0.9643(5) 0.3848(4)
O9 O 0.2961(5) 0.9309(4) 0.4282(4)
Eu18_2 Eu 0.5000 1.0000 0.5000
H18 H 0.3092 0.0217 0.1082
H19 H 0.2141 0.0330 0.1455
O51 O 0.5315(5) 0.0595(3) 0.3917(3)
O58 O 0.7039(5) 0.0691(4) 0.5718(4)
O61 O 0.4916(5) 0.1384(3) 0.5633(3)
C1 C 0.6311(5) 0.3151(3) 0.1647(3)
C2 C 0.6079(5) 0.2253(4) 0.1931(3)
C3 C 0.5743(5) 0.2201(4) 0.2607(3)
H1 H 0.5637 0.2720 0.2886
C4 C 0.5564(5) 0.1360(4) 0.2870(3)
C5 C 0.5728(5) 0.0599(4) 0.2448(3)
H2 H 0.5658 0.0054 0.2642
C6 C 0.5994(5) 0.0635(4) 0.1746(3)
C7 C 0.6195(5) 0.1469(4) 0.1491(3)
H3 H 0.6405 0.1504 0.1029
C8 C 0.5184(5) 0.1269(4) 0.3598(3)
H4 H 0.7447 0.0282 0.1007
H5 H 0.6170 0.0045 0.0274
C20 C 0.5067(5) 0.6252(3) 0.1220(3)
C21 C 0.4755(5) 0.6967(3) 0.1701(3)
C22 C 0.5228(5) 0.7195(4) 0.2581(3)
H13 H 0.5763 0.6918 0.2868
C23 C 0.4906(5) 0.7832(4) 0.3028(3)
C24 C 0.4115(5) 0.8259(4) 0.2606(3)
H14 H 0.3861 0.8657 0.2907
C25 C 0.3703(5) 0.8085(4) 0.1726(3)
C26 C 0.4015(5) 0.7427(4) 0.1285(3)
H15 H 0.3721 0.7293 0.0700
C27 C 0.5422(5) 0.8064(4) 0.3969(3)
C28 C 0.2687(5) 0.9222(4) 0.1705(3)
H16 H 0.3349 0.9589 0.2240
H17 H 0.1989 0.8891 0.1815
C29 C 0.2373(5) 0.9870(4) 0.1161(4)
C30 C 0.1351(4) 0.9360(4) 0.0302(3)
H20 H 0.1130 0.9815 0.0001
C39 C 0.9204(14) 0.4487(11) 0.0960(12)
C40 C 0.9116(13) 0.3421(9) 0.0924(12)
H25 H 0.8358 0.3001 0.0488
H26 H 0.9162 0.3298 0.1456
H27 H 0.9777 0.3316 0.0805
H28 H 0.9665 0.6206 0.0690
Eu1 Eu 0.65158(2) 0.480442(15) 0.098886(13)
Eu2 Eu 0.67647(3) 0.78474(2) 0.580382(16)
O1 O 0.6260(4) 0.3102(3) 0.0914(2)
O2 O 0.4758(4) 0.1857(3) 0.3836(3)
O10 O 0.4475(4) 0.5945(3) 0.0440(2)
O11 O 0.5926(4) 0.5999(3) 0.1625(2)
O12 O 0.6165(5) 0.7715(4) 0.4331(2)
O13 O 0.5084(5) 0.8616(3) 0.4367(3)
O14 O 0.3044(4) 0.8546(3) 0.1268(2)
O15 O 0.0364(3) 0.8817(3) 0.0458(2)
O20 O 0.8256(5) 0.4624(4) 0.0771(5)
O21 O 0.4923(8) 0.6452(5) 0.5077(4)
O22 O 0.7314(14) 0.6513(11) 0.5380(9)
O23 O 0.8697(8) 0.8348(11) 0.5714(5)
O24 O 0.6561(4) 0.3934(3) 0.2155(2)
C73 C 0.0666(4) 0.1776(4) 0.0199(3)
C75 C 0.2554(4) 0.3077(3) 0.0591(3)
C76 C 0.2878(5) 0.3036(4) 0.1432(3)
H56 H 0.3621 0.3446 0.1842
C77 C 0.2082(4) 0.2378(4) 0.1649(3)
C78 C 0.0976(4) 0.1734(4) 0.1034(3)
H57 H 0.0457 0.1284 0.1182
C79 C 0.3403(4) 0.3768(3) 0.0339(3)
C80 C 0.2422(5) 0.2338(4) 0.2546(3)
O41 O 0.4495(3) 0.4095(3) 0.0831(3)
O42 O 0.1874(4) 0.1615(4) 0.2707(3)
O43 O 0.3267(4) 0.3021(3) 0.3116(3)
O50 O 0.5242(4) 0.8143(3) 0.6164(3)
O52 O 0.4685(5) 0.9405(3) 0.6083(3)
O53 O 0.8237(4) 0.5798(3) 0.2214(3)
O56 O 0.7406(7) 0.9505(4) 0.6096(4)
O62 O 0.7049(3) 0.6047(2) 0.0351(2)
O64 O 0.8126(4) 0.8385(4) 0.7293(3)
O66 O 0.6733(4) 0.6979(3) 0.6884(3)
H21 H 0.1597 0.8951 0.9967
C74 C 0.1435(4) 0.2460(4) 0.9983(3)
H55 H 0.1201 0.2506 0.9429
O40 O 0.2951(3) 0.3953(2) 0.9649(2)
Eu9 Eu 0.34842(2) 0.519558(15) 0.901114(13)
O60 O 0.5525(4) 0.4055(3) 0.9560(2)
C9 C 0.6613(6) 0.9843(4) 0.0746(4)
C10 C 0.6574(5) 0.8849(4) 0.0455(3)
H6 H 0.5732 0.8443 0.0134
H7 H 0.6996 0.8850 0.0077
C11 C 0.7125(5) 0.8426(4) 0.1145(3)
H8 H 0.6698 0.8396 0.1521
H9 H 0.7061 0.7786 0.0907
C12 C 0.9098(5) 0.8664(4) 0.2165(4)
C16 C 0.9584(6) 0.7401(5) 0.2739(4)
C17 C 0.8747(5) 0.7716(4) 0.2190(4)
H12 H 0.7967 0.7296 0.1847
C18 C 0.9195(7) 0.6374(5) 0.2740(5)
O4 O 0.6059(5) 0.9816(3) 0.1344(3)
O5 O 0.8381(4) 0.9016(3) 0.1602(3)
O7 O 0.9929(7) 0.6149(5) 0.3309(6)
C51 C 0.3387(6) 0.0157(4) 0.9254(4)
C52 C 0.3426(5) 0.1151(4) 0.9545(3)
H39 H 0.4268 0.1557 0.9866
H40 H 0.3004 0.1150 0.9923
C53 C 0.2875(5) 0.1574(4) 0.8855(3)
H41 H 0.3302 0.1604 0.8479
H42 H 0.2939 0.2214 0.9093
C54 C 0.0902(5) 0.1336(4) 0.7835(4)
C58 C 0.0416(6) 0.2599(5) 0.7261(4)
C59 C 0.1253(5) 0.2284(4) 0.7810(4)
H45 H 0.2033 0.2704 0.8153
C60 C 0.0805(7) 0.3626(5) 0.7260(5)
O28 O 0.3941(5) 0.0184(3) 0.8656(3)
O29 O 0.1619(4) 0.0984(3) 0.8398(3)
O30 O 0.1763(4) 0.4202(3) 0.7786(3)
O31 O 0.0071(7) 0.3851(5) 0.6691(6)
C32 C 0.8565(4) 0.7540(4) 0.0017(3)
H22 H 0.8799 0.7494 0.0571
H54 H 0.8403 0.1049 0.0033
C31 C 0.9334(4) 0.8224(4) 0.9801(3)
C33 C 0.7446(4) 0.6923(3) 0.9409(3)
C34 C 0.7122(5) 0.6964(4) 0.8568(3)
H23 H 0.6379 0.6554 0.8158
C35 C 0.7918(4) 0.7622(4) 0.8351(3)
C36 C 0.9024(4) 0.8266(4) 0.8966(3)
H24 H 0.9543 0.8716 0.8818
C37 C 0.6597(4) 0.6232(3) 0.9661(3)
C38 C 0.7578(5) 0.7662(4) 0.7454(3)
O17 O 0.5505(3) 0.5905(3) 0.9169(3)
C43 C 0.3689(5) 0.6849(3) 0.8353(3)
C44 C 0.3921(5) 0.7747(4) 0.8069(3)
C45 C 0.4257(5) 0.7799(4) 0.7393(3)
H34 H 0.4363 0.7280 0.7114
C46 C 0.4436(5) 0.8640(4) 0.7130(3)
C47 C 0.4272(5) 0.9401(4) 0.7552(3)
H35 H 0.4342 0.9946 0.7358
C48 C 0.4006(5) 0.9365(4) 0.8254(3)
C49 C 0.3805(5) 0.8531(4) 0.8509(3)
H36 H 0.3595 0.8496 0.8971
C50 C 0.4816(5) 0.8731(4) 0.6402(3)
H37 H 0.2553 0.9718 0.8993
H38 H 0.3830 0.9955 0.9726
C62 C 0.4933(5) 0.3748(3) 0.8780(3)
C63 C 0.5245(5) 0.3033(3) 0.8299(3)
C64 C 0.4772(5) 0.2805(4) 0.7419(3)
H46 H 0.4237 0.3082 0.7132
C65 C 0.5094(5) 0.2168(4) 0.6972(3)
C66 C 0.5885(5) 0.1741(4) 0.7394(3)
H47 H 0.6139 0.1343 0.7093
C67 C 0.6297(5) 0.1915(4) 0.8274(3)
C68 C 0.5985(5) 0.2573(4) 0.8715(3)
H48 H 0.6279 0.2707 0.9300
C69 C 0.4578(5) 0.1936(4) 0.6031(3)
C70 C 0.7313(5) 0.0778(4) 0.8295(3)
H49 H 0.6651 0.0411 0.7760
H50 H 0.8011 0.1109 0.8185
C71 C 0.7627(5) 0.0130(4) 0.8839(4)
C72 C 0.8649(4) 0.0640(4) 0.9698(3)
H53 H 0.8870 0.0185 0.9999
C81 C 0.0796(14) 0.5513(11) 0.9040(12)
C82 C 0.0884(13) 0.6579(9) 0.9076(12)
H58 H 0.1642 0.6999 0.9512
H59 H 0.0838 0.6702 0.8544
H60 H 0.0223 0.6684 0.9195
H61 H 0.0335 0.3794 0.9310
O25 O 0.3740(4) 0.6898(3) 0.9086(2)
O35 O 0.4074(4) 0.4001(3) 0.8375(2)
O36 O 0.3835(5) 0.2285(4) 0.5669(2)
O38 O 0.6956(4) 0.1454(3) 0.8732(2)
O39 O 0.9636(3) 0.1183(3) 0.9542(2)
O44 O 0.1744(5) 0.5376(4) 0.9229(5)
O45 O 0.5077(8) 0.3548(5) 0.4923(4)
O46 O 0.2686(14) 0.3487(11) 0.4620(9)
O47 O 0.1303(8) 0.1652(11) 0.4286(5)
O48 O 0.3439(4) 0.6066(3) 0.7845(2)
H51 H 0.6908 0.9783 0.8918
H52 H 0.7859 0.9670 0.8545
C55 C 0.9750(5) 0.0713(4) 0.7321(4)
H43 H 0.9506 0.0086 0.7351
C56 C 0.8958(5) 0.1027(4) 0.6757(4)
C57 C 0.9285(6) 0.1961(5) 0.6737(4)
H44 H 0.8736 0.2164 0.6364
C61 C 0.7711(6) 0.0357(5) 0.6152(4)
C83 C 0.9562(17) 0.3793(11) 0.8945(12)
H62 H 0.8973 0.3588 0.9183
H63 H 0.9304 0.3366 0.8403
C84 C 0.8460(12) 0.4922(13) 0.8786(15)
H64 H 0.8150 0.4585 0.9137
H65 H 0.8597 0.5585 0.8971
H66 H 0.7881 0.4674 0.8212
N2 N 0.9680(10) 0.4793(13) 0.8847(9)
loop_
_geom_bond_atom_site_label_1
_geom_bond_atom_site_label_2
_geom_bond_site_symmetry_1
_geom_bond_site_symmetry_2
H29 C41 1_555 1_555
H30 C41 1_555 1_555
C42 H31 1_555 1_555
H32 C42 1_555 1_555
H33 C42 1_555 1_555
Eu13 O8 1_555 1_555
C41 N1 1_555 1_555
C42 N1 1_555 1_555
C13 H10 1_555 1_555
C14 C13 1_555 1_555
C15 C14 1_555 1_555
H11 C15 1_555 1_555
C19 C14 1_555 1_555
O9 C19 1_555 1_555
Eu18_2 O9 1_555 1_555
O51 Eu18 1_555 1_555
O58 Eu18 1_555 1_555
O61 Eu18 1_555 1_555
C1 C2 1_555 1_555
C2 C3 1_555 1_555
C3 H1 1_555 1_555
C4 C3 1_555 1_555
C5 C4 1_555 1_555
H2 C5 1_555 1_555
C6 C5 1_555 1_555
C7 C2 1_555 1_555
H3 C7 1_555 1_555
C8 C4 1_555 1_555
C20 C21 1_555 1_555
C21 C22 1_555 1_555
C22 H13 1_555 1_555
C23 C22 1_555 1_555
C24 C23 1_555 1_555
H14 C24 1_555 1_555
C25 C24 1_555 1_555
C26 C21 1_555 1_555
H15 C26 1_555 1_555
C27 C23 1_555 1_555
C28 H16 1_555 1_555
H17 C28 1_555 1_555
C29 C28 1_555 1_555
C30 C29 1_555 1_555
H20 C30 1_555 1_555
C39 C40 1_555 1_555
C40 H25 1_555 1_555
H26 C40 1_555 1_555
H27 C40 1_555 1_555
Eu1 O1 1_555 1_555
Eu2 O12 1_555 1_555
Eu18_2 O13 1_555 1_555
O1 C1 1_555 1_555
O2 C8 1_555 1_555
O51 C8 1_555 1_555
O10 C20 1_555 1_555
O11 C20 1_555 1_555
O12 C27 1_555 1_555
O13 C27 1_555 1_555
O14 C25 1_555 1_555
O15 C30 1_555 1_555
O20 C39 1_555 1_555
O21 Eu2 1_555 1_555
O22 Eu2 1_555 1_555
O23 Eu2 1_555 1_555
O24 C1 1_555 1_555
C76 C75 1_555 1_555
H56 C76 1_555 1_555
C77 C76 1_555 1_555
C78 C73 1_555 1_555
H57 C78 1_555 1_555
C79 C75 1_555 1_555
C80 C77 1_555 1_555
O41 Eu1 1_555 1_555
O42 C80 1_555 1_555
O43 C80 1_555 1_555
Eu13 O2 1_555 1_555
O50 Eu2 1_555 1_555
O52 Eu18_2 1_555 1_555
O53 Eu1 1_555 1_555
O56 Eu2 1_555 1_555
O62 Eu1 1_555 1_555
O64 Eu2 1_555 1_555
O66 Eu2 1_555 1_555
C6 C7 1_555 1_555
C25 C26 1_555 1_555
C28 O14 1_555 1_555
Eu1 O11 1_555 1_555
Eu1 O20 1_555 1_555
Eu1 O24 1_555 1_555
C77 C78 1_555 1_555
C79 O41 1_555 1_555
O42 Eu13 1_555 1_555
O43 Eu13 1_555 1_555
C74 H55 1_555 1_555
O40 Eu9 1_555 1_555
C10 C9 1_555 1_555
H6 C10 1_555 1_555
H7 C10 1_555 1_555
C11 C10 1_555 1_555
H8 C11 1_555 1_555
H9 C11 1_555 1_555
C17 C12 1_555 1_555
H12 C17 1_555 1_555
C18 C16 1_555 1_555
O5 C11 1_555 1_555
O53 C18 1_555 1_555
O7 C18 1_555 1_555
C9 O4 1_555 1_555
C12 O5 1_555 1_555
C16 C17 1_555 1_555
C52 C51 1_555 1_555
H39 C52 1_555 1_555
H40 C52 1_555 1_555
C53 C52 1_555 1_555
H41 C53 1_555 1_555
H42 C53 1_555 1_555
C59 C54 1_555 1_555
H45 C59 1_555 1_555
C60 C58 1_555 1_555
O29 C53 1_555 1_555
O30 C60 1_555 1_555
O31 C60 1_555 1_555
Eu9 O30 1_555 1_555
C51 O28 1_555 1_555
C54 O29 1_555 1_555
C58 C59 1_555 1_555
C32 H22 1_555 1_555
C34 C33 1_555 1_555
H23 C34 1_555 1_555
C35 C34 1_555 1_555
C36 C31 1_555 1_555
H24 C36 1_555 1_555
C37 C33 1_555 1_555
C38 C35 1_555 1_555
O17 C37 1_555 1_555
O64 C38 1_555 1_555
O66 C38 1_555 1_555
C43 C44 1_555 1_555
C44 C45 1_555 1_555
C45 H34 1_555 1_555
C46 C45 1_555 1_555
C47 C46 1_555 1_555
H35 C47 1_555 1_555
C48 C47 1_555 1_555
C49 C44 1_555 1_555
H36 C49 1_555 1_555
C50 C46 1_555 1_555
C62 C63 1_555 1_555
C63 C64 1_555 1_555
C64 H46 1_555 1_555
C65 C64 1_555 1_555
C66 C65 1_555 1_555
H47 C66 1_555 1_555
C67 C66 1_555 1_555
C68 C63 1_555 1_555
H48 C68 1_555 1_555
C69 C65 1_555 1_555
C70 H49 1_555 1_555
H50 C70 1_555 1_555
C71 C70 1_555 1_555
C72 C71 1_555 1_555
H53 C72 1_555 1_555
C81 C82 1_555 1_555
C82 H58 1_555 1_555
H59 C82 1_555 1_555
H60 C82 1_555 1_555
Eu9 O17 1_555 1_555
Eu13 O36 1_555 1_555
O25 C43 1_555 1_555
O50 C50 1_555 1_555
O52 C50 1_555 1_555
O60 C62 1_555 1_555
O35 C62 1_555 1_555
O36 C69 1_555 1_555
O61 C69 1_555 1_555
O38 C67 1_555 1_555
O39 C72 1_555 1_555
O44 C81 1_555 1_555
O45 Eu13 1_555 1_555
O46 Eu13 1_555 1_555
O47 Eu13 1_555 1_555
O48 C43 1_555 1_555
C35 C36 1_555 1_555
C48 C49 1_555 1_555
C67 C68 1_555 1_555
C70 O38 1_555 1_555
Eu9 O25 1_555 1_555
Eu9 O35 1_555 1_555
Eu9 O44 1_555 1_555
Eu9 O48 1_555 1_555
C55 H43 1_555 1_555
C56 C55 1_555 1_555
C57 C56 1_555 1_555
H44 C57 1_555 1_555
C61 C56 1_555 1_555
O58 C61 1_555 1_555
H62 C83 1_555 1_555
H63 C83 1_555 1_555
C84 H64 1_555 1_555
H65 C84 1_555 1_555
H66 C84 1_555 1_555
C83 N2 1_555 1_555
C84 N2 1_555 1_555

#END
