
###############################################################################
#
# This file contains modified crystal structure data generated from the
# MOF subset of the Cambridge Structural Database (CSD) v543 
# hosted by the Cambridge Crystallographic Data Centre (CCDC).
#
# This work is licensed under the Creative Commons
# Attribution-NonCommercial-ShareAlike 4.0 International License.
# To view a copy of this license, visit
# http://creativecommons.org/licenses/by-nc-sa/4.0/
# or send a letter to
# Creative Commons, PO Box 1866, Mountain View, CA 94042, USA.
#
# CIF created using the CSD Python API on 29 September 2022
# The structure has been converted into the P1 space group
# The structure has a 3D framework
# The original CSD entry JIDXIG is in the monoclinic crystal system
# The framework has been calculated to contain at least 10.0% void space
# The void calculation uses a probe of radius 1.32A, grid spacing 0.4
#
###############################################################################

data_JIDXIG
_chemical_formula_moiety         '(C72 H59 Mg6 O50)n'
_symmetry_cell_setting           triclinic
_symmetry_space_group_name_H-M   'P 1'
_symmetry_Int_Tables_number      1
_space_group_name_Hall           'P 1'
loop_
_symmetry_equiv_pos_site_id
_symmetry_equiv_pos_as_xyz
1 x,y,z
_cell_length_a                   16.8934(15)
_cell_length_b                   14.1990(13)
_cell_length_c                   12.0673(11)
_cell_angle_alpha                90
_cell_angle_beta                 115.993(2)
_cell_angle_gamma                90
_cell_volume                     2601.78
loop_
_atom_site_label
_atom_site_type_symbol
_atom_site_fract_x
_atom_site_fract_y
_atom_site_fract_z
Mg1 Mg 0.40779(5) 0.81291(5) 0.60262(7)
O1 O 0.51026(12) 0.73384(14) 0.62453(17)
O2 O 0.63106(12) 0.71525(13) 0.79918(16)
O3 O 0.81221(11) 0.39884(14) 0.60219(18)
O4 O 0.86455(12) 0.49338(16) 0.76403(19)
O5 O 0.5000 0.90044(16) 0.7500
O6 O 0.43216(17) 0.90165(19) 0.4824(2)
H1 H 0.4873 0.9045 0.5044
H2 H 0.4178 0.9576 0.4913
O7 O 0.31820(12) 0.74562(14) 0.44355(16)
H3 H 0.3400 0.6937 0.4341
H4 H 0.3111 0.7781 0.3802
C1 C 0.58231(16) 0.69615(18) 0.6888(2)
C2 C 0.61198(15) 0.62345(17) 0.6236(2)
C3 C 0.69249(15) 0.57763(17) 0.6791(2)
H5 H 0.7304 0.5896 0.7613
C4 C 0.71663(15) 0.51369(17) 0.6118(2)
C5 C 0.66010(16) 0.49634(17) 0.4893(2)
H6 H 0.6761 0.4532 0.4446
C6 C 0.57973(16) 0.54273(18) 0.4324(2)
C7 C 0.55615(15) 0.60563(18) 0.5012(2)
H7 H 0.5020 0.6362 0.4644
C8 C 0.80467(16) 0.46549(18) 0.6652(2)
C9 C 0.52353(16) 0.53197(19) 0.3033(2)
H8 H 0.5283(7) 0.9361(11) 0.7242(11)
C14 C 0.33990(16) 0.49634(17) 0.0107(2)
H10 H 0.3239 0.4532 0.0554
C15 C 0.42027(16) 0.54273(18) 0.0676(2)
H11 H 0.4980 0.6362 0.0356
C18 C 0.47647(16) 0.53197(19) 0.1967(2)
H12 H 0.4717(7) 0.9361(11) 0.7758(11)
O12 O 0.56784(17) 0.90165(19) 0.0176(2)
H14 H 0.5822 0.9576 0.0087
O13 O 0.68180(12) 0.74562(14) 0.05645(16)
H15 H 0.6600 0.6937 0.0659
H16 H 0.6889 0.7781 0.1198
Mg4 Mg 0.59221(5) 0.81291(5) 0.89738(7)
Mg5 Mg 0.90779(5) 0.31291(5) 0.60262(7)
O15 O 0.36894(12) 0.71525(13) 0.70082(16)
O16 O 0.31221(11) 0.89884(14) 0.60219(18)
O8 O 0.48974(12) 0.73384(14) 0.87547(17)
O10 O 0.18779(11) 0.39884(14) 0.89781(18)
O11 O 0.13545(12) 0.49338(16) 0.73597(19)
C10 C 0.41769(16) 0.69615(18) 0.8112(2)
C11 C 0.38802(15) 0.62345(17) 0.8764(2)
C12 C 0.30751(15) 0.57763(17) 0.8209(2)
H9 H 0.2696 0.5896 0.7387
C13 C 0.28337(15) 0.51369(17) 0.8882(2)
C16 C 0.44385(15) 0.60563(18) 0.9988(2)
C17 C 0.19533(16) 0.46549(18) 0.8348(2)
H13 H 0.5127 0.9045 0.9956
Mg6 Mg 0.09221(5) 0.31291(5) 0.89738(7)
O17 O 0.68779(11) 0.89884(14) 0.89781(18)
O1_2 O 0.01026(12) 0.23384(14) 0.62453(17)
O2_2 O 0.13106(12) 0.21525(13) 0.79918(16)
O5_2 O -0.0000 0.40044(16) 0.7500
C1_2 C 0.08231(16) 0.19615(18) 0.6888(2)
C2_2 C 0.11198(15) 0.12345(17) 0.6236(2)
C3_2 C 0.19249(15) 0.07763(17) 0.6791(2)
H5_2 H 0.2304 0.0896 0.7613
C4_2 C 0.21663(15) 0.01369(17) 0.6118(2)
C6_2 C 0.07973(16) 0.04273(18) 0.4324(2)
C7_2 C 0.05615(15) 0.10563(18) 0.5012(2)
H7_2 H 0.0020 0.1362 0.4644
C9_2 C 0.02353(16) 0.03197(19) 0.3033(2)
H8_2 H 0.0283(7) 0.4361(11) 0.7242(11)
O12_2 O 0.06784(17) 0.40165(19) 0.0176(2)
H14_2 H 0.0822 0.4576 0.0087
O13_2 O 0.18180(12) 0.24562(14) 0.05645(16)
H15_2 H 0.1600 0.1937 0.0659
H16_2 H 0.1889 0.2781 0.1198
H13_2 H 0.0127 0.4045 0.9956
O4_2 O 0.36455(12) 0.99338(16) 0.76403(19)
C5_2 C 0.16010(16) 0.99634(17) 0.4893(2)
H6_2 H 0.1761 0.9532 0.4446
C8_2 C 0.30467(16) 0.96549(18) 0.6652(2)
O5_3 O 1.0000 0.40044(16) 0.7500
O6_2 O 0.93216(17) 0.40165(19) 0.4824(2)
H1_2 H 0.9873 0.4045 0.5044
H2_2 H 0.9178 0.4576 0.4913
O7_2 O 0.81820(12) 0.24562(14) 0.44355(16)
H3_2 H 0.8400 0.1937 0.4341
H4_2 H 0.8111 0.2781 0.3802
C15_2 C 0.92027(16) 0.04273(18) 0.0676(2)
H11_2 H 0.9980 0.1362 0.0356
C18_2 C 0.97647(16) 0.03197(19) 0.1967(2)
H12_2 H 0.9717(7) 0.4361(11) 0.7758(11)
O15_2 O 0.86894(12) 0.21525(13) 0.70082(16)
O8_2 O 0.98974(12) 0.23384(14) 0.87547(17)
C10_2 C 0.91769(16) 0.19615(18) 0.8112(2)
C11_2 C 0.88802(15) 0.12345(17) 0.8764(2)
C12_2 C 0.80751(15) 0.07763(17) 0.8209(2)
H9_2 H 0.7696 0.0896 0.7387
C13_2 C 0.78337(15) 0.01369(17) 0.8882(2)
C16_2 C 0.94385(15) 0.10563(18) 0.9988(2)
O11_2 O 0.63545(12) 0.99338(16) 0.73597(19)
C17_2 C 0.69533(16) 0.96549(18) 0.8348(2)
C14_2 C 0.83990(16) 0.99634(17) 0.0107(2)
H10_2 H 0.8239 0.9532 0.0554
O8_3 O 0.51026(12) 0.26616(14) 0.12453(17)
O9 O 0.63106(12) 0.28475(13) 0.29918(16)
O10_2 O 0.81221(11) 0.60116(14) 0.10219(18)
O11_3 O 0.86455(12) 0.50662(16) 0.26403(19)
C10_3 C 0.58231(16) 0.30385(18) 0.1888(2)
C11_3 C 0.61198(15) 0.37655(17) 0.1236(2)
C12_3 C 0.69249(15) 0.42237(17) 0.1791(2)
H9_3 H 0.7304 0.4104 0.2613
C13_3 C 0.71663(15) 0.48631(17) 0.1118(2)
C16_3 C 0.55615(15) 0.39437(18) 0.0012(2)
C17_3 C 0.80467(16) 0.53451(18) 0.1652(2)
Mg2 Mg 0.40779(5) 0.18709(5) 0.10262(7)
H13_3 H 0.4873 0.0955 0.0044
Mg3 Mg 0.59221(5) 0.18709(5) 0.39738(7)
Mg6_2 Mg 0.90779(5) 0.68709(5) 0.10262(7)
O14 O 0.36894(12) 0.28475(13) 0.20082(16)
O17_2 O 0.31221(11) 0.10116(14) 0.10219(18)
O18 O 0.5000 0.09956(16) 0.2500
O1_3 O 0.48974(12) 0.26616(14) 0.37547(17)
O3_2 O 0.18779(11) 0.60116(14) 0.39781(18)
O4_3 O 0.13545(12) 0.50662(16) 0.23597(19)
O6_3 O 0.56784(17) 0.09835(19) 0.5176(2)
H1_3 H 0.5127 0.0955 0.4956
H2_3 H 0.5822 0.0424 0.5087
O7_3 O 0.68180(12) 0.25438(14) 0.55645(16)
H3_3 H 0.6600 0.3063 0.5659
H4_3 H 0.6889 0.2219 0.6198
C1_3 C 0.41769(16) 0.30385(18) 0.3112(2)
C2_3 C 0.38802(15) 0.37655(17) 0.3764(2)
C3_3 C 0.30751(15) 0.42237(17) 0.3209(2)
H5_3 H 0.2696 0.4104 0.2387
C4_3 C 0.28337(15) 0.48631(17) 0.3882(2)
C5_3 C 0.33990(16) 0.50366(17) 0.5107(2)
H6_3 H 0.3239 0.5468 0.5554
C6_3 C 0.42027(16) 0.45727(18) 0.5676(2)
C7_3 C 0.44385(15) 0.39437(18) 0.4988(2)
H7_3 H 0.4980 0.3638 0.5356
C8_3 C 0.19533(16) 0.53451(18) 0.3348(2)
C9_3 C 0.47647(16) 0.46803(19) 0.6967(2)
H8_3 H 0.4717(7) 0.0639(11) 0.2758(11)
C14_3 C 0.66010(16) 0.50366(17) 0.9893(2)
H10_3 H 0.6761 0.5468 0.9446
C15_3 C 0.57973(16) 0.45727(18) 0.9324(2)
H11_3 H 0.5020 0.3638 0.9644
C18_3 C 0.52353(16) 0.46803(19) 0.8033(2)
H12_3 H 0.5283(7) 0.0639(11) 0.2242(11)
O12_3 O 0.43216(17) 0.09835(19) 0.9824(2)
H14_3 H 0.4178 0.0424 0.9913
O13_3 O 0.31820(12) 0.25438(14) 0.94355(16)
H15_3 H 0.3400 0.3063 0.9341
H16_3 H 0.3111 0.2219 0.8802
Mg5_2 Mg 0.09221(5) 0.68709(5) 0.39738(7)
O16_2 O 0.68779(11) 0.10116(14) 0.39781(18)
O11_4 O 0.36455(12) 0.00662(16) 0.26403(19)
C17_4 C 0.30467(16) 0.03451(18) 0.1652(2)
O8_4 O 0.01026(12) 0.76616(14) 0.12453(17)
O9_2 O 0.13106(12) 0.78475(13) 0.29918(16)
C10_4 C 0.08231(16) 0.80385(18) 0.1888(2)
C11_4 C 0.11198(15) 0.87655(17) 0.1236(2)
C12_4 C 0.19249(15) 0.92237(17) 0.1791(2)
H9_4 H 0.2304 0.9104 0.2613
C13_4 C 0.21663(15) 0.98631(17) 0.1118(2)
C16_4 C 0.05615(15) 0.89437(18) 0.0012(2)
O18_2 O -0.0000 0.59956(16) 0.2500
O6_4 O 0.06784(17) 0.59835(19) 0.5176(2)
H1_4 H 0.0127 0.5955 0.4956
H2_4 H 0.0822 0.5424 0.5087
O7_4 O 0.18180(12) 0.75438(14) 0.55645(16)
H3_4 H 0.1600 0.8063 0.5659
H4_4 H 0.1889 0.7219 0.6198
C15_4 C 0.07973(16) 0.95727(18) 0.9324(2)
H11_4 H 0.0020 0.8638 0.9644
C18_4 C 0.02353(16) 0.96803(19) 0.8033(2)
H12_4 H 0.0283(7) 0.5639(11) 0.2242(11)
O4_4 O 0.63545(12) 0.00662(16) 0.23597(19)
C5_4 C 0.83990(16) 0.00366(17) 0.5107(2)
H6_4 H 0.8239 0.0468 0.5554
C8_4 C 0.69533(16) 0.03451(18) 0.3348(2)
H13_4 H 0.9873 0.5955 0.0044
O14_2 O 0.86894(12) 0.78475(13) 0.20082(16)
O18_3 O 1.0000 0.59956(16) 0.2500
O1_4 O 0.98974(12) 0.76616(14) 0.37547(17)
C1_4 C 0.91769(16) 0.80385(18) 0.3112(2)
C2_4 C 0.88802(15) 0.87655(17) 0.3764(2)
C3_4 C 0.80751(15) 0.92237(17) 0.3209(2)
H5_4 H 0.7696 0.9104 0.2387
C4_4 C 0.78337(15) 0.98631(17) 0.3882(2)
C6_4 C 0.92027(16) 0.95727(18) 0.5676(2)
C7_4 C 0.94385(15) 0.89437(18) 0.4988(2)
H7_4 H 0.9980 0.8638 0.5356
C9_4 C 0.97647(16) 0.96803(19) 0.6967(2)
H8_4 H 0.9717(7) 0.5639(11) 0.2758(11)
O12_4 O 0.93216(17) 0.59835(19) 0.9824(2)
H14_4 H 0.9178 0.5424 0.9913
O13_4 O 0.81820(12) 0.75438(14) 0.94355(16)
H15_4 H 0.8400 0.8063 0.9341
H16_4 H 0.8111 0.7219 0.8802
C14_4 C 0.16010(16) 0.00366(17) 0.9893(2)
H10_4 H 0.1761 0.0468 0.9446
loop_
_geom_bond_atom_site_label_1
_geom_bond_atom_site_label_2
_geom_bond_site_symmetry_1
_geom_bond_site_symmetry_2
Mg1 O1 1_555 1_555
O1 C1 1_555 1_555
O2 C1 1_555 1_555
O3 C8 1_555 1_555
O4 C8 1_555 1_555
O5 Mg1 1_555 1_555
O6 Mg1 1_555 1_555
H1 O6 1_555 1_555
H2 O6 1_555 1_555
O7 Mg1 1_555 1_555
H3 O7 1_555 1_555
H4 O7 1_555 1_555
C1 C2 1_555 1_555
C2 C3 1_555 1_555
C3 H5 1_555 1_555
C4 C3 1_555 1_555
C5 C4 1_555 1_555
H6 C5 1_555 1_555
C6 C5 1_555 1_555
C7 C2 1_555 1_555
H7 C7 1_555 1_555
C8 C4 1_555 1_555
C9 C6 1_555 1_555
H8 O5 1_555 1_555
H10 C14 1_555 1_555
C15 C14 1_555 1_555
C18 C9 1_555 1_555
H12 O5 1_555 1_555
H14 O12 1_555 1_555
H15 O13 1_555 1_555
H16 O13 1_555 1_555
Mg4 O2 1_555 1_555
Mg5 O3 1_555 1_555
O15 Mg1 1_555 1_555
O16 Mg1 1_555 1_555
O5 Mg4 1_555 1_555
C6 C7 1_555 1_555
C15 C18 1_555 1_555
O8 C10 1_555 1_555
O15 C10 1_555 1_555
O10 C17 1_555 1_555
O11 C17 1_555 1_555
C10 C11 1_555 1_555
C11 C12 1_555 1_555
C12 H9 1_555 1_555
C13 C12 1_555 1_555
C16 C11 1_555 1_555
C17 C13 1_555 1_555
Mg4 O8 1_555 1_555
Mg6 O10 1_555 1_555
O17 Mg4 1_555 1_555
O1_2 C1_2 1_555 1_555
O2_2 C1_2 1_555 1_555
C1_2 C2_2 1_555 1_555
C2_2 C3_2 1_555 1_555
C3_2 H5_2 1_555 1_555
C4_2 C3_2 1_555 1_555
C7_2 C2_2 1_555 1_555
H7_2 C7_2 1_555 1_555
C9_2 C6_2 1_555 1_555
H8_2 O5_2 1_555 1_555
H14_2 O12_2 1_555 1_555
H15_2 O13_2 1_555 1_555
H16_2 O13_2 1_555 1_555
Mg6 O2_2 1_555 1_555
O5_2 Mg6 1_555 1_555
C6_2 C7_2 1_555 1_555
O16 C8_2 1_555 1_555
O4_2 C8_2 1_555 1_555
H6_2 C5_2 1_555 1_555
O5_3 Mg5 1_555 1_555
O6_2 Mg5 1_555 1_555
H1_2 O6_2 1_555 1_555
H2_2 O6_2 1_555 1_555
O7_2 Mg5 1_555 1_555
H3_2 O7_2 1_555 1_555
H4_2 O7_2 1_555 1_555
H12_2 O5_3 1_555 1_555
O15_2 Mg5 1_555 1_555
C15_2 C18_2 1_555 1_555
O8_2 C10_2 1_555 1_555
O15_2 C10_2 1_555 1_555
C10_2 C11_2 1_555 1_555
C11_2 C12_2 1_555 1_555
C12_2 H9_2 1_555 1_555
C13_2 C12_2 1_555 1_555
C16_2 C11_2 1_555 1_555
O17 C17_2 1_555 1_555
O11_2 C17_2 1_555 1_555
H10_2 C14_2 1_555 1_555
O8_3 C10_3 1_555 1_555
O9 C10_3 1_555 1_555
O10_2 C17_3 1_555 1_555
O11_3 C17_3 1_555 1_555
C10_3 C11_3 1_555 1_555
C11_3 C12_3 1_555 1_555
C12_3 H9_3 1_555 1_555
C13_3 C12_3 1_555 1_555
C16_3 C11_3 1_555 1_555
C17_3 C13_3 1_555 1_555
Mg2 O8_3 1_555 1_555
Mg3 O9 1_555 1_555
Mg6_2 O10_2 1_555 1_555
O14 Mg2 1_555 1_555
O17_2 Mg2 1_555 1_555
O18 Mg2 1_555 1_555
Mg3 O18 1_555 1_555
Mg3 O1_3 1_555 1_555
O1_3 C1_3 1_555 1_555
O14 C1_3 1_555 1_555
O3_2 C8_3 1_555 1_555
O4_3 C8_3 1_555 1_555
O6_3 Mg3 1_555 1_555
H1_3 O6_3 1_555 1_555
H2_3 O6_3 1_555 1_555
O7_3 Mg3 1_555 1_555
H3_3 O7_3 1_555 1_555
H4_3 O7_3 1_555 1_555
C1_3 C2_3 1_555 1_555
C2_3 C3_3 1_555 1_555
C3_3 H5_3 1_555 1_555
C4_3 C3_3 1_555 1_555
C5_3 C4_3 1_555 1_555
H6_3 C5_3 1_555 1_555
C6_3 C5_3 1_555 1_555
C7_3 C2_3 1_555 1_555
H7_3 C7_3 1_555 1_555
C8_3 C4_3 1_555 1_555
C9_3 C6_3 1_555 1_555
H8_3 O18 1_555 1_555
H10_3 C14_3 1_555 1_555
C15_3 C14_3 1_555 1_555
C18_3 C9_3 1_555 1_555
H12_3 O18 1_555 1_555
H14_3 O12_3 1_555 1_555
H15_3 O13_3 1_555 1_555
H16_3 O13_3 1_555 1_555
Mg5_2 O3_2 1_555 1_555
O16_2 Mg3 1_555 1_555
C6_3 C7_3 1_555 1_555
C15_3 C18_3 1_555 1_555
O17_2 C17_4 1_555 1_555
O11_4 C17_4 1_555 1_555
O8_4 C10_4 1_555 1_555
O9_2 C10_4 1_555 1_555
C10_4 C11_4 1_555 1_555
C11_4 C12_4 1_555 1_555
C12_4 H9_4 1_555 1_555
C13_4 C12_4 1_555 1_555
C16_4 C11_4 1_555 1_555
Mg5_2 O9_2 1_555 1_555
Mg5_2 O18_2 1_555 1_555
O6_4 Mg5_2 1_555 1_555
H1_4 O6_4 1_555 1_555
H2_4 O6_4 1_555 1_555
O7_4 Mg5_2 1_555 1_555
H3_4 O7_4 1_555 1_555
H4_4 O7_4 1_555 1_555
H12_4 O18_2 1_555 1_555
C15_4 C18_4 1_555 1_555
O16_2 C8_4 1_555 1_555
O4_4 C8_4 1_555 1_555
H6_4 C5_4 1_555 1_555
O14_2 Mg6_2 1_555 1_555
O18_3 Mg6_2 1_555 1_555
O1_4 C1_4 1_555 1_555
O14_2 C1_4 1_555 1_555
C1_4 C2_4 1_555 1_555
C2_4 C3_4 1_555 1_555
C3_4 H5_4 1_555 1_555
C4_4 C3_4 1_555 1_555
C7_4 C2_4 1_555 1_555
H7_4 C7_4 1_555 1_555
C9_4 C6_4 1_555 1_555
H8_4 O18_3 1_555 1_555
H14_4 O12_4 1_555 1_555
H15_4 O13_4 1_555 1_555
H16_4 O13_4 1_555 1_555
C6_4 C7_4 1_555 1_555
H10_4 C14_4 1_555 1_555

#END
