
###############################################################################
#
# This file contains modified crystal structure data generated from the
# MOF subset of the Cambridge Structural Database (CSD) v543 
# hosted by the Cambridge Crystallographic Data Centre (CCDC).
#
# This work is licensed under the Creative Commons
# Attribution-NonCommercial-ShareAlike 4.0 International License.
# To view a copy of this license, visit
# http://creativecommons.org/licenses/by-nc-sa/4.0/
# or send a letter to
# Creative Commons, PO Box 1866, Mountain View, CA 94042, USA.
#
# CIF created using the CSD Python API on 29 September 2022
# The structure has been converted into the P1 space group
# The structure has a 3D framework
# The original CSD entry JIFGAJ is in the triclinic crystal system
# The framework has been calculated to contain at least 10.0% void space
# The void calculation uses a probe of radius 1.32A, grid spacing 0.4
#
###############################################################################

data_JIFGAJ
_chemical_formula_moiety         '(C72 H58 Cd6 N20 O26)n'
_symmetry_cell_setting           triclinic
_symmetry_space_group_name_H-M   'P 1'
_symmetry_Int_Tables_number      1
_space_group_name_Hall           'P 1'
loop_
_symmetry_equiv_pos_site_id
_symmetry_equiv_pos_as_xyz
1 x,y,z
_cell_length_a                   10.3502(3)
_cell_length_b                   15.0971(3)
_cell_length_c                   17.5247(6)
_cell_angle_alpha                108.717(3)
_cell_angle_beta                 103.082(3)
_cell_angle_gamma                94.440(2)
_cell_volume                     2492.61
loop_
_atom_site_label
_atom_site_type_symbol
_atom_site_fract_x
_atom_site_fract_y
_atom_site_fract_z
Cd9 Cd 0.17726(7) 0.15609(6) 0.74639(5)
Cd1 Cd 0.49553(6) 0.03771(5) 0.82987(4)
O1 O 0.4438(8) 0.1484(5) 0.7701(5)
O2 O 0.8456(7) 0.4800(5) 0.8857(5)
O3 O 0.2424(8) 0.3020(5) 0.8438(6)
O4 O 0.1491(7) 0.4334(5) 0.8764(5)
O6 O 0.3119(8) 0.1749(8) 0.6659(5)
O7 O 0.9842(8) 0.1423(7) 0.6411(5)
O8 O 0.9482(7) 0.1867(5) 0.7662(5)
O9 O 0.7255(7) 0.3357(5) 0.8478(5)
O13 O 0.2002(8) 0.0878(6) 0.8442(6)
N1 N 0.5391(9) 0.1179(7) 0.4386(5)
N3 N 0.5933(10) 0.7668(6) 0.9480(6)
N4 N 0.5211(8) 0.7053(6) 0.9728(5)
N8 N 0.5139(10) 0.0661(7) 0.3029(6)
N9 N 0.4199(12) 0.1420(10) 0.4054(7)
C1 C 0.7196(11) 0.1398(8) 0.5627(7)
H1 H 0.7840 0.1357 0.5313
C2 C 0.6647(9) 0.1563(7) 0.6936(6)
H2 H 0.6926 0.1625 0.7508
C4 C 0.5285(9) 0.1508(7) 0.6547(6)
C6 C 0.5123(10) 0.6060(7) 0.9355(6)
H4 H 0.0293 0.6153 0.7297
H6 H 0.0674 0.5815 0.6424
C8 C 0.7359(10) 0.4259(8) 0.8717(7)
C10 C 0.5830(10) 0.1329(7) 0.5242(7)
C11 C 0.6255(10) 0.5672(7) 0.9216(6)
H10 H 0.7096 0.6070 0.9362
C12 C 0.4236(9) 0.1576(8) 0.7012(6)
C15 C 0.4885(10) 0.1382(7) 0.5707(6)
H13 H 0.3960 0.1332 0.5443
C18 C 0.3785(9) 0.4511(7) 0.8827(6)
C19 C 0.5908(11) 0.0726(8) 0.3746(7)
H16 H 0.6732 0.0487 0.3816
C22 C 0.4069(13) 0.1112(10) 0.3261(8)
H18 H 0.3323 0.1183 0.2868
C23 C 0.5741(12) 0.8510(7) 0.9947(7)
H19 H 0.6126 0.9092 0.9928
C28 C 0.3893(10) 0.5484(7) 0.9163(7)
H28 H 0.3127 0.5761 0.9263
C29 C 0.2091(10) 0.0062(8) 0.8470(7)
C32 C 0.7597(11) 0.1526(8) 0.6470(7)
C33 C 0.4910(10) 0.4124(7) 0.8666(6)
H29 H 0.4833 0.3457 0.8419
C34 C 0.2475(10) 0.3891(8) 0.8650(7)
C35 C 0.9082(10) 0.1603(8) 0.6877(7)
C36 C 0.6147(10) 0.4692(7) 0.8860(6)
Cd7 Cd 0.95097(6) 0.34283(5) 0.84466(4)
O20 O 0.7327(7) 0.0658(5) 0.8522(5)
N13 N 0.5064(9) 0.1542(7) 0.9541(6)
O5 O 0.9144(10) 0.3678(6) 0.7177(5)
N11 N 0.9546(19) 0.4766(11) 0.6600(10)
H3 H 0.9659 0.0456 0.8394
C7 C 0.996(3) 0.5774(16) 0.6701(14)
H5 H 0.9186 0.6017 0.6449
C25 C 0.9512(19) 0.4520(12) 0.7241(11)
H21 H 0.9776 0.4995 0.7782
C26 C 0.914(3) 0.4148(15) 0.5734(12)
H22 H 0.8386 0.3659 0.5653
H23 H 0.9893 0.3846 0.5586
H24 H 0.8850 0.4519 0.5377
N12 N 0.9871(9) 0.3123(6) 0.9667(5)
O11 O 0.3605(7) 0.0540(5) 0.1197(4)
N10 N 0.0081(16) 0.1408(11) 0.4207(10)
C3 C 0.0238(9) 0.0051(7) 0.1399(6)
C5 C 0.1294(9) 0.0439(7) 0.1169(6)
H8 H 0.0006 0.2145 0.3403
C13 C 0.1137(9) 0.1170(7) 0.0863(6)
H11 H 0.1856 0.1438 0.0710
C27 C 0.1194(19) 0.1866(14) 0.4960(12)
H25 H 0.1451 0.1403 0.5227
H26 H 0.1965 0.2110 0.4806
H27 H 0.0911 0.2391 0.5350
C31 C 0.2618(10) 0.0065(7) 0.1285(6)
O10 O 0.6936(7) 0.0367(5) 0.1626(5)
O14 O 0.8606(11) 0.0092(8) 0.3363(7)
N5 N 0.9779(8) 0.2245(6) 0.0433(5)
N7 N 0.9175(9) 0.2996(6) 0.0770(6)
C9 C 0.948(3) 0.2054(17) 0.3779(18)
H7 H 0.9483 0.2668 0.4198
H9 H 0.8550 0.1771 0.3455
C17 C 0.9274(11) 0.3504(8) 0.0281(7)
H15 H 0.8949 0.4090 0.0359
C20 C 0.9044(10) 0.0405(7) 0.1324(6)
C21 C 0.8858(9) 0.1146(7) 0.1012(7)
H17 H 0.8038 0.1392 0.0960
C24 C 0.9574(16) 0.0555(12) 0.3976(10)
H20 H 0.9977 0.0211 0.4309
C30 C 0.9940(9) 0.1511(6) 0.0780(6)
C16 C 0.5364(10) 0.2452(7) 0.9687(6)
H14 H 0.5904 0.2721 0.9420
N6 N 0.4936(9) 0.8458(7) 0.0459(6)
C16_2 C 0.4636(10) 0.7548(7) 0.0313(6)
H14_2 H 0.4096 0.7279 0.0580
Cd6 Cd 0.50447(6) 0.96229(5) 0.17013(4)
N2 N 0.0129(9) 0.6877(6) 0.0333(5)
Cd8 Cd 0.04903(6) 0.65717(5) 0.15534(4)
O10_2 O 0.3064(7) 0.9633(5) 0.8374(5)
O14_2 O 0.1394(11) 0.9908(8) 0.6637(7)
N5_2 N 0.0221(8) 0.7755(6) 0.9567(5)
N7_2 N 0.0825(9) 0.7004(6) 0.9230(6)
C9_2 C 0.052(3) 0.7946(17) 0.6221(18)
H7_2 H 0.0517 0.7332 0.5802
H9_2 H 0.1450 0.8229 0.6545
C17_2 C 0.0726(11) 0.6496(8) 0.9719(7)
H15_2 H 0.1051 0.5910 0.9641
C20_2 C 0.0956(10) 0.9595(7) 0.8676(6)
C21_2 C 0.1142(9) 0.8854(7) 0.8988(7)
H17_2 H 0.1962 0.8608 0.9040
C24_2 C 0.0426(16) 0.9445(12) 0.6024(10)
H20_2 H 0.0023 0.9789 0.5691
C30_2 C 0.0060(9) 0.8489(6) 0.9220(6)
O19 O 0.6395(7) 0.9460(5) 0.8803(4)
N14 N 0.4861(10) 0.9339(7) 0.6971(6)
N10_2 N 0.9919(16) 0.8592(11) 0.5793(10)
C3_2 C 0.9762(9) 0.9949(7) 0.8601(6)
C5_2 C 0.8706(9) 0.9561(7) 0.8831(6)
H8_2 H 0.9994 0.7855 0.6597
C13_2 C 0.8863(9) 0.8830(7) 0.9137(6)
H11_2 H 0.8144 0.8562 0.9290
C27_2 C 0.8806(19) 0.8134(14) 0.5040(12)
H25_2 H 0.8549 0.8597 0.4773
H26_2 H 0.8035 0.7890 0.5194
H27_2 H 0.9089 0.7609 0.4650
C31_2 C 0.7382(10) 0.9935(7) 0.8715(6)
O5_2 O 0.0856(10) 0.6322(6) 0.2823(5)
O12 O 0.2673(7) 0.9342(5) 0.1478(5)
N11_2 N 0.0454(19) 0.5234(11) 0.3400(10)
H3_2 H 0.0341 0.9544 0.1606
C7_2 C 0.004(3) 0.4226(16) 0.3299(14)
H5_2 H 0.0814 0.3983 0.3551
C25_2 C 0.0488(19) 0.5480(12) 0.2759(11)
H21_2 H 0.0224 0.5005 0.2218
C26_2 C 0.086(3) 0.5852(15) 0.4266(12)
H22_2 H 0.1614 0.6341 0.4347
H23_2 H 0.0107 0.6154 0.4414
H24_2 H 0.1150 0.5481 0.4623
O15 O 0.1544(7) 0.5200(5) 0.1143(5)
O16 O 0.0158(8) 0.8577(7) 0.3589(5)
O17 O 0.0518(7) 0.8133(5) 0.2338(5)
O18 O 0.2745(7) 0.6643(5) 0.1522(5)
Cd3 Cd 0.82274(7) 0.84391(6) 0.25361(5)
O1_2 O 0.5562(8) 0.8516(5) 0.2299(5)
O3_2 O 0.7576(8) 0.6980(5) 0.1562(6)
O4_2 O 0.8509(7) 0.5666(5) 0.1236(5)
O6_2 O 0.6881(8) 0.8251(8) 0.3341(5)
O13_2 O 0.7998(8) 0.9122(6) 0.1558(6)
N1_2 N 0.4609(9) 0.8821(7) 0.5614(5)
N3_2 N 0.4067(10) 0.2332(6) 0.0520(6)
N4_2 N 0.4789(8) 0.2947(6) 0.0272(5)
N9_2 N 0.5801(12) 0.8580(10) 0.5946(7)
C1_2 C 0.2804(11) 0.8602(8) 0.4373(7)
H1_2 H 0.2160 0.8643 0.4687
C2_2 C 0.3353(9) 0.8437(7) 0.3064(6)
H2_2 H 0.3074 0.8375 0.2492
C4_2 C 0.4715(9) 0.8492(7) 0.3453(6)
C6_2 C 0.4877(10) 0.3940(7) 0.0645(6)
H4_2 H 0.9707 0.3847 0.2703
H6_2 H 0.9326 0.4185 0.3576
C8_2 C 0.2641(10) 0.5741(8) 0.1283(7)
C10_2 C 0.4170(10) 0.8671(7) 0.4758(7)
C11_2 C 0.3745(10) 0.4328(7) 0.0784(6)
H10_2 H 0.2904 0.3930 0.0638
C12_2 C 0.5764(9) 0.8424(8) 0.2988(6)
C15_2 C 0.5115(10) 0.8618(7) 0.4293(6)
H13_2 H 0.6040 0.8668 0.4557
C18_2 C 0.6215(9) 0.5489(7) 0.1173(6)
C19_2 C 0.4092(11) 0.9274(8) 0.6254(7)
H16_2 H 0.3268 0.9513 0.6184
C22_2 C 0.5931(13) 0.8888(10) 0.6739(8)
H18_2 H 0.6677 0.8817 0.7132
C23_2 C 0.4259(12) 0.1490(7) 0.0053(7)
H19_2 H 0.3874 0.0908 0.0072
C28_2 C 0.6107(10) 0.4516(7) 0.0837(7)
H28_2 H 0.6873 0.4239 0.0737
C29_2 C 0.7909(10) 0.9938(8) 0.1530(7)
C32_2 C 0.2403(11) 0.8474(8) 0.3530(7)
C33_2 C 0.5090(10) 0.5876(7) 0.1334(6)
H29_2 H 0.5167 0.6543 0.1581
C34_2 C 0.7525(10) 0.6109(8) 0.1350(7)
C35_2 C 0.0918(10) 0.8397(8) 0.3123(7)
C36_2 C 0.3853(10) 0.5308(7) 0.1140(6)
C14 C 0.9807(10) 0.7658(7) 0.0212(6)
H12 H 0.9349 0.8090 0.0535
C14_2 C 0.0193(10) 0.2342(7) 0.9788(6)
H12_2 H 0.0651 0.1910 0.9465
loop_
_geom_bond_atom_site_label_1
_geom_bond_atom_site_label_2
_geom_bond_site_symmetry_1
_geom_bond_site_symmetry_2
Cd1 O1 1_555 1_555
Cd9 O1 1_555 1_555
O1 C12 1_555 1_555
O2 C8 1_555 1_555
O3 Cd9 1_555 1_555
O4 C34 1_555 1_555
O6 Cd9 1_555 1_555
O7 C35 1_555 1_555
O8 C35 1_555 1_555
O9 C8 1_555 1_555
O13 Cd9 1_555 1_555
N1 N9 1_555 1_555
N3 N4 1_555 1_555
N4 C6 1_555 1_555
N8 C19 1_555 1_555
N9 C22 1_555 1_555
C1 H1 1_555 1_555
C2 H2 1_555 1_555
C4 C2 1_555 1_555
C6 C11 1_555 1_555
C8 C36 1_555 1_555
C10 N1 1_555 1_555
C11 H10 1_555 1_555
C12 O6 1_555 1_555
C15 C4 1_555 1_555
H13 C15 1_555 1_555
C18 C28 1_555 1_555
C19 N1 1_555 1_555
H16 C19 1_555 1_555
C22 N8 1_555 1_555
H18 C22 1_555 1_555
C23 N3 1_555 1_555
H19 C23 1_555 1_555
C28 C6 1_555 1_555
H28 C28 1_555 1_555
C32 C1 1_555 1_555
C33 C18 1_555 1_555
H29 C33 1_555 1_555
C34 O3 1_555 1_555
C35 C32 1_555 1_555
C36 C11 1_555 1_555
Cd7 O2 1_555 1_555
O20 Cd1 1_555 1_555
N13 Cd1 1_555 1_555
O8 Cd7 1_555 1_555
O9 Cd7 1_555 1_555
O13 C29 1_555 1_555
C1 C10 1_555 1_555
C2 C32 1_555 1_555
C4 C12 1_555 1_555
C10 C15 1_555 1_555
C18 C34 1_555 1_555
C33 C36 1_555 1_555
O5 Cd7 1_555 1_555
N11 C7 1_555 1_555
H5 C7 1_555 1_555
C25 O5 1_555 1_555
H21 C25 1_555 1_555
C26 N11 1_555 1_555
H22 C26 1_555 1_555
H23 C26 1_555 1_555
H24 C26 1_555 1_555
N12 Cd7 1_555 1_555
N11 C25 1_555 1_555
O11 C31 1_555 1_555
C5 C3 1_555 1_555
C13 C5 1_555 1_555
H11 C13 1_555 1_555
C27 N10 1_555 1_555
H25 C27 1_555 1_555
H26 C27 1_555 1_555
H27 C27 1_555 1_555
C31 C5 1_555 1_555
N5 N7 1_555 1_555
N7 C17 1_555 1_555
C9 H7 1_555 1_555
H9 C9 1_555 1_555
H15 C17 1_555 1_555
C21 C20 1_555 1_555
H17 C21 1_555 1_555
C24 O14 1_555 1_555
H20 C24 1_555 1_555
C30 N5 1_555 1_555
C21 C30 1_555 1_555
N13 C16 1_555 1_555
H14 C16 1_555 1_555
N6 C16_2 1_555 1_555
H14_2 C16_2 1_555 1_555
Cd6 N6 1_555 1_555
Cd8 N2 1_555 1_555
N5_2 N7_2 1_555 1_555
N7_2 C17_2 1_555 1_555
C9_2 H7_2 1_555 1_555
H9_2 C9_2 1_555 1_555
H15_2 C17_2 1_555 1_555
C21_2 C20_2 1_555 1_555
H17_2 C21_2 1_555 1_555
C24_2 O14_2 1_555 1_555
H20_2 C24_2 1_555 1_555
C30_2 N5_2 1_555 1_555
C21_2 C30_2 1_555 1_555
O19 C31_2 1_555 1_555
C5_2 C3_2 1_555 1_555
C13_2 C5_2 1_555 1_555
H11_2 C13_2 1_555 1_555
C27_2 N10_2 1_555 1_555
H25_2 C27_2 1_555 1_555
H26_2 C27_2 1_555 1_555
H27_2 C27_2 1_555 1_555
C31_2 C5_2 1_555 1_555
O5_2 Cd8 1_555 1_555
N11_2 C7_2 1_555 1_555
H5_2 C7_2 1_555 1_555
C25_2 O5_2 1_555 1_555
H21_2 C25_2 1_555 1_555
C26_2 N11_2 1_555 1_555
H22_2 C26_2 1_555 1_555
H23_2 C26_2 1_555 1_555
H24_2 C26_2 1_555 1_555
O15 Cd8 1_555 1_555
O17 Cd8 1_555 1_555
O18 Cd8 1_555 1_555
O12 Cd6 1_555 1_555
N11_2 C25_2 1_555 1_555
Cd6 O1_2 1_555 1_555
Cd3 O1_2 1_555 1_555
O1_2 C12_2 1_555 1_555
O15 C8_2 1_555 1_555
O3_2 Cd3 1_555 1_555
O4_2 C34_2 1_555 1_555
O6_2 Cd3 1_555 1_555
O16 C35_2 1_555 1_555
O17 C35_2 1_555 1_555
O18 C8_2 1_555 1_555
O13_2 Cd3 1_555 1_555
N1_2 N9_2 1_555 1_555
N3_2 N4_2 1_555 1_555
N4_2 C6_2 1_555 1_555
N14 C19_2 1_555 1_555
N9_2 C22_2 1_555 1_555
C1_2 H1_2 1_555 1_555
C2_2 H2_2 1_555 1_555
C4_2 C2_2 1_555 1_555
C6_2 C11_2 1_555 1_555
C8_2 C36_2 1_555 1_555
C10_2 N1_2 1_555 1_555
C11_2 H10_2 1_555 1_555
C12_2 O6_2 1_555 1_555
C15_2 C4_2 1_555 1_555
H13_2 C15_2 1_555 1_555
C18_2 C28_2 1_555 1_555
C19_2 N1_2 1_555 1_555
H16_2 C19_2 1_555 1_555
C22_2 N14 1_555 1_555
H18_2 C22_2 1_555 1_555
C23_2 N3_2 1_555 1_555
H19_2 C23_2 1_555 1_555
C28_2 C6_2 1_555 1_555
H28_2 C28_2 1_555 1_555
C32_2 C1_2 1_555 1_555
C33_2 C18_2 1_555 1_555
H29_2 C33_2 1_555 1_555
C34_2 O3_2 1_555 1_555
C35_2 C32_2 1_555 1_555
C36_2 C11_2 1_555 1_555
O13_2 C29_2 1_555 1_555
C1_2 C10_2 1_555 1_555
C2_2 C32_2 1_555 1_555
C4_2 C12_2 1_555 1_555
C10_2 C15_2 1_555 1_555
C18_2 C34_2 1_555 1_555
C33_2 C36_2 1_555 1_555
H12 C14 1_555 1_555
H12_2 C14_2 1_555 1_555

#END
