
###############################################################################
#
# This file contains modified crystal structure data generated from the
# MOF subset of the Cambridge Structural Database (CSD) v543 
# hosted by the Cambridge Crystallographic Data Centre (CCDC).
#
# This work is licensed under the Creative Commons
# Attribution-NonCommercial-ShareAlike 4.0 International License.
# To view a copy of this license, visit
# http://creativecommons.org/licenses/by-nc-sa/4.0/
# or send a letter to
# Creative Commons, PO Box 1866, Mountain View, CA 94042, USA.
#
# CIF created using the CSD Python API on 29 September 2022
# The structure has been converted into the P1 space group
# The structure has a 3D framework
# The original CSD entry JIGQOI is in the orthorhombic crystal system
# The framework has been calculated to contain at least 10.0% void space
# The void calculation uses a probe of radius 1.32A, grid spacing 0.4
# The framework is charged, counterions have been retained in the structure
#
###############################################################################

data_JIGQOI
_chemical_formula_moiety         '(C48 H96 Na6 O24 6+)n'
_symmetry_cell_setting           triclinic
_symmetry_space_group_name_H-M   'P 1'
_symmetry_Int_Tables_number      1
_space_group_name_Hall           'P 1'
loop_
_symmetry_equiv_pos_site_id
_symmetry_equiv_pos_as_xyz
1 x,y,z
_cell_length_a                   9.8455(2)
_cell_length_b                   11.7044(3)
_cell_length_c                   15.0571(3)
_cell_angle_alpha                90
_cell_angle_beta                 90
_cell_angle_gamma                90
_cell_volume                     1735.12
loop_
_atom_site_label
_atom_site_type_symbol
_atom_site_fract_x
_atom_site_fract_y
_atom_site_fract_z
Na1 Na -0.0000 0.03658(11) 0.2500
O1 O 0.17307(17) 0.18452(15) 0.24115(12)
O2 O 0.31973(17) 0.39340(15) 0.25672(12)
C1 C 0.1527(3) 0.2776(2) 0.18048(17)
H1 H 0.0576 0.2770 0.1592
H2 H 0.2130 0.2680 0.1284
C2 C 0.1826(3) 0.3907(2) 0.22504(18)
H3 H 0.1684 0.4537 0.1822
H4 H 0.1194 0.4020 0.2754
C3 C 0.3398(3) 0.3007(2) 0.31773(17)
H5 H 0.2794 0.3107 0.3697
H6 H 0.4349 0.3013 0.3391
C4 C 0.3098(3) 0.1876(2) 0.27367(17)
H7 H 0.3736 0.1757 0.2237
H8 H 0.3234 0.1250 0.3170
C6 C 0.1119(3) 0.0494(2) 0.04017(16)
H11 H 0.1928 0.0434 0.0789
H12 H 0.1088 0.1279 0.0158
Na4 Na 0.5000 0.53658(11) 0.2500
O9 O 0.00787(18) 0.02886(17) 0.40824(12)
O8 O 0.18027(17) 0.89340(15) 0.25672(12)
O4 O 0.00787(18) 0.97114(17) 0.90824(12)
C7 C 0.1243(3) 0.9654(2) 0.96515(17)
H13 H 0.1330 0.8872 0.9895
H14 H 0.2072 0.9824 0.9304
Na2 Na -0.0000 0.96342(11) 0.7500
Na1_2 Na 1.0000 0.03658(11) 0.2500
O3 O 0.99213(18) 0.02886(17) 0.09176(12)
C5 C 0.8757(3) 0.0346(2) 0.03485(17)
H9 H 0.8670 0.1128 0.0105
H10 H 0.7928 0.0176 0.0696
O5 O 0.82693(17) 0.18452(15) 0.25885(12)
O6 O 0.68027(17) 0.39340(15) 0.24328(12)
C9 C 0.8473(3) 0.2776(2) 0.31952(17)
H17 H 0.9424 0.2770 0.3408
H18 H 0.7870 0.2680 0.3716
C10 C 0.8174(3) 0.3907(2) 0.27496(18)
H19 H 0.8316 0.4537 0.3178
H20 H 0.8806 0.4020 0.2246
C11 C 0.6602(3) 0.3007(2) 0.18227(17)
H21 H 0.7206 0.3107 0.1303
H22 H 0.5651 0.3013 0.1609
C12 C 0.6902(3) 0.1876(2) 0.22633(17)
H23 H 0.6264 0.1757 0.2763
H24 H 0.6766 0.1250 0.1830
O7 O 0.81973(17) 0.89340(15) 0.24328(12)
C8 C 0.8881(3) 0.9506(2) 0.95983(16)
H15 H 0.8072 0.9566 0.9211
H16 H 0.8912 0.8721 0.9842
Na2_2 Na 1.0000 0.96342(11) 0.7500
Na1_3 Na 0.5000 0.46342(11) 0.7500
O1_2 O 0.32693(17) 0.31548(15) 0.74115(12)
O2_2 O 0.18027(17) 0.10660(15) 0.75672(12)
O3_2 O 0.50787(18) 0.47114(17) 0.59176(12)
C1_2 C 0.3473(3) 0.2224(2) 0.68048(17)
H1_2 H 0.4424 0.2230 0.6592
H2_2 H 0.2870 0.2320 0.6284
C2_2 C 0.3174(3) 0.1093(2) 0.72504(18)
H3_2 H 0.3316 0.0463 0.6822
H4_2 H 0.3806 0.0980 0.7754
C3_2 C 0.1602(3) 0.1993(2) 0.81773(17)
H5_2 H 0.2206 0.1893 0.8697
H6_2 H 0.0651 0.1987 0.8391
C4_2 C 0.1902(3) 0.3124(2) 0.77367(17)
H7_2 H 0.1264 0.3243 0.7237
H8_2 H 0.1766 0.3750 0.8170
C5_2 C 0.6243(3) 0.4654(2) 0.53485(17)
H9_2 H 0.6330 0.3872 0.5105
H10_2 H 0.7072 0.4824 0.5696
C6_2 C 0.3881(3) 0.4506(2) 0.54017(16)
H11_2 H 0.3072 0.4566 0.5789
H12_2 H 0.3912 0.3721 0.5158
O4_2 O 0.49213(18) 0.52886(17) 0.40824(12)
C7_2 C 0.3757(3) 0.5346(2) 0.46515(17)
H13_2 H 0.3670 0.6128 0.4895
H14_2 H 0.2928 0.5176 0.4304
C8_2 C 0.6119(3) 0.5494(2) 0.45983(16)
H15_2 H 0.6928 0.5434 0.4211
H16_2 H 0.6088 0.6279 0.4842
O5_2 O 0.67307(17) 0.31548(15) 0.75885(12)
O6_2 O 0.81973(17) 0.10660(15) 0.74328(12)
C9_2 C 0.6527(3) 0.2224(2) 0.81952(17)
H17_2 H 0.5576 0.2230 0.8408
H18_2 H 0.7130 0.2320 0.8716
C10_2 C 0.6826(3) 0.1093(2) 0.77496(18)
H19_2 H 0.6684 0.0463 0.8178
H20_2 H 0.6194 0.0980 0.7246
C11_2 C 0.8398(3) 0.1993(2) 0.68227(17)
H21_2 H 0.7794 0.1893 0.6303
H22_2 H 0.9349 0.1987 0.6609
C12_2 C 0.8098(3) 0.3124(2) 0.72633(17)
H23_2 H 0.8736 0.3243 0.7763
H24_2 H 0.8234 0.3750 0.6830
O7_2 O 0.68027(17) 0.60660(15) 0.74328(12)
O8_2 O 0.31973(17) 0.60660(15) 0.75672(12)
O9_2 O 0.49213(18) 0.47114(17) 0.90824(12)
O4_3 O 0.50787(18) 0.52886(17) 0.09176(12)
C7_3 C 0.6243(3) 0.5346(2) 0.03485(17)
H13_3 H 0.6330 0.6128 0.0105
H14_3 H 0.7072 0.5176 0.0696
C8_3 C 0.3881(3) 0.5494(2) 0.04017(16)
H15_3 H 0.3072 0.5434 0.0789
H16_3 H 0.3912 0.6279 0.0158
C5_3 C 0.3757(3) 0.4654(2) 0.96515(17)
H9_3 H 0.3670 0.3872 0.9895
H10_3 H 0.2928 0.4824 0.9304
C6_3 C 0.6119(3) 0.4506(2) 0.95983(16)
H11_3 H 0.6928 0.4566 0.9211
H12_3 H 0.6088 0.3721 0.9842
C5_4 C 0.1243(3) 0.0346(2) 0.46515(17)
H9_4 H 0.1330 0.1128 0.4895
H10_4 H 0.2072 0.0176 0.4304
C8_4 C 0.1119(3) 0.9506(2) 0.54017(16)
H15_4 H 0.1928 0.9566 0.5789
H16_4 H 0.1088 0.8721 0.5158
C6_4 C 0.8881(3) 0.0494(2) 0.45983(16)
H11_4 H 0.8072 0.0434 0.4211
H12_4 H 0.8912 0.1279 0.4842
O4_4 O 0.99213(18) 0.97114(17) 0.59176(12)
C7_4 C 0.8757(3) 0.9654(2) 0.53485(17)
H13_4 H 0.8670 0.8872 0.5105
H14_4 H 0.7928 0.9824 0.5696
O5_3 O 0.17307(17) 0.81548(15) 0.74115(12)
C9_3 C 0.1527(3) 0.7224(2) 0.68048(17)
H17_3 H 0.0576 0.7230 0.6592
H18_3 H 0.2130 0.7320 0.6284
C10_3 C 0.1826(3) 0.6093(2) 0.72504(18)
H19_3 H 0.1684 0.5463 0.6822
H20_3 H 0.1194 0.5980 0.7754
C11_3 C 0.3398(3) 0.6993(2) 0.81773(17)
H21_3 H 0.2794 0.6893 0.8697
H22_3 H 0.4349 0.6987 0.8391
C12_3 C 0.3098(3) 0.8124(2) 0.77367(17)
H23_3 H 0.3736 0.8243 0.7237
H24_3 H 0.3234 0.8750 0.8170
O1_3 O 0.82693(17) 0.81548(15) 0.75885(12)
C1_3 C 0.8473(3) 0.7224(2) 0.81952(17)
H1_3 H 0.9424 0.7230 0.8408
H2_3 H 0.7870 0.7320 0.8716
C2_3 C 0.8174(3) 0.6093(2) 0.77496(18)
H3_3 H 0.8316 0.5463 0.8178
H4_3 H 0.8806 0.5980 0.7246
C3_3 C 0.6602(3) 0.6993(2) 0.68227(17)
H5_3 H 0.7206 0.6893 0.6303
H6_3 H 0.5651 0.6987 0.6609
C4_3 C 0.6902(3) 0.8124(2) 0.72633(17)
H7_3 H 0.6264 0.8243 0.7763
H8_3 H 0.6766 0.8750 0.6830
O1_4 O 0.67307(17) 0.68452(15) 0.25885(12)
C1_4 C 0.6527(3) 0.7776(2) 0.31952(17)
H1_4 H 0.5576 0.7770 0.3408
H2_4 H 0.7130 0.7680 0.3716
C2_4 C 0.6826(3) 0.8907(2) 0.27496(18)
H3_4 H 0.6684 0.9537 0.3178
H4_4 H 0.6194 0.9020 0.2246
C3_4 C 0.8398(3) 0.8007(2) 0.18227(17)
H5_4 H 0.7794 0.8107 0.1303
H6_4 H 0.9349 0.8013 0.1609
C4_4 C 0.8098(3) 0.6876(2) 0.22633(17)
H7_4 H 0.8736 0.6757 0.2763
H8_4 H 0.8234 0.6250 0.1830
O5_4 O 0.32693(17) 0.68452(15) 0.24115(12)
C9_4 C 0.3473(3) 0.7776(2) 0.18048(17)
H17_4 H 0.4424 0.7770 0.1592
H18_4 H 0.2870 0.7680 0.1284
C10_4 C 0.3174(3) 0.8907(2) 0.22504(18)
H19_4 H 0.3316 0.9537 0.1822
H20_4 H 0.3806 0.9020 0.2754
C11_4 C 0.1602(3) 0.8007(2) 0.31773(17)
H21_4 H 0.2206 0.8107 0.3697
H22_4 H 0.0651 0.8013 0.3391
C12_4 C 0.1902(3) 0.6876(2) 0.27367(17)
H23_4 H 0.1264 0.6757 0.2237
H24_4 H 0.1766 0.6250 0.3170
loop_
_geom_bond_atom_site_label_1
_geom_bond_atom_site_label_2
_geom_bond_site_symmetry_1
_geom_bond_site_symmetry_2
Na1 O1 1_555 1_555
O1 C1 1_555 1_555
O2 C2 1_555 1_555
C1 H1 1_555 1_555
H2 C1 1_555 1_555
C2 C1 1_555 1_555
H3 C2 1_555 1_555
H4 C2 1_555 1_555
C3 O2 1_555 1_555
H5 C3 1_555 1_555
H6 C3 1_555 1_555
C4 O1 1_555 1_555
H7 C4 1_555 1_555
H8 C4 1_555 1_555
H11 C6 1_555 1_555
H12 C6 1_555 1_555
Na4 O2 1_555 1_555
O9 Na1 1_555 1_555
C3 C4 1_555 1_555
O4 C7 1_555 1_555
H13 C7 1_555 1_555
H14 C7 1_555 1_555
Na2 O4 1_555 1_555
O3 Na1_2 1_555 1_555
C5 O3 1_555 1_555
H9 C5 1_555 1_555
H10 C5 1_555 1_555
O5 Na1_2 1_555 1_555
O6 C10 1_555 1_555
C9 O5 1_555 1_555
H17 C9 1_555 1_555
H18 C9 1_555 1_555
C10 C9 1_555 1_555
H19 C10 1_555 1_555
H20 C10 1_555 1_555
C11 O6 1_555 1_555
H21 C11 1_555 1_555
H22 C11 1_555 1_555
C12 O5 1_555 1_555
H23 C12 1_555 1_555
H24 C12 1_555 1_555
Na4 O6 1_555 1_555
C11 C12 1_555 1_555
H15 C8 1_555 1_555
H16 C8 1_555 1_555
Na1_3 O1_2 1_555 1_555
O1_2 C1_2 1_555 1_555
O2_2 C2_2 1_555 1_555
O3_2 Na1_3 1_555 1_555
C1_2 H1_2 1_555 1_555
H2_2 C1_2 1_555 1_555
C2_2 C1_2 1_555 1_555
H3_2 C2_2 1_555 1_555
H4_2 C2_2 1_555 1_555
C3_2 O2_2 1_555 1_555
H5_2 C3_2 1_555 1_555
H6_2 C3_2 1_555 1_555
C4_2 O1_2 1_555 1_555
H7_2 C4_2 1_555 1_555
H8_2 C4_2 1_555 1_555
C5_2 O3_2 1_555 1_555
H9_2 C5_2 1_555 1_555
H10_2 C5_2 1_555 1_555
C6_2 O3_2 1_555 1_555
H11_2 C6_2 1_555 1_555
H12_2 C6_2 1_555 1_555
O4_2 C7_2 1_555 1_555
C7_2 C6_2 1_555 1_555
H13_2 C7_2 1_555 1_555
H14_2 C7_2 1_555 1_555
C8_2 C5_2 1_555 1_555
H15_2 C8_2 1_555 1_555
H16_2 C8_2 1_555 1_555
O5_2 Na1_3 1_555 1_555
O6_2 C10_2 1_555 1_555
C9_2 O5_2 1_555 1_555
H17_2 C9_2 1_555 1_555
H18_2 C9_2 1_555 1_555
C10_2 C9_2 1_555 1_555
H19_2 C10_2 1_555 1_555
H20_2 C10_2 1_555 1_555
C11_2 O6_2 1_555 1_555
H21_2 C11_2 1_555 1_555
H22_2 C11_2 1_555 1_555
C12_2 O5_2 1_555 1_555
H23_2 C12_2 1_555 1_555
H24_2 C12_2 1_555 1_555
Na4 O4_2 1_555 1_555
O7_2 Na1_3 1_555 1_555
O8_2 Na1_3 1_555 1_555
O9_2 Na1_3 1_555 1_555
C3_2 C4_2 1_555 1_555
O4_2 C8_2 1_555 1_555
C11_2 C12_2 1_555 1_555
O4_3 C7_3 1_555 1_555
H13_3 C7_3 1_555 1_555
H14_3 C7_3 1_555 1_555
H15_3 C8_3 1_555 1_555
H16_3 C8_3 1_555 1_555
Na4 O4_3 1_555 1_555
O4_3 C8_3 1_555 1_555
C5_3 O9_2 1_555 1_555
H9_3 C5_3 1_555 1_555
H10_3 C5_3 1_555 1_555
C6_3 O9_2 1_555 1_555
H11_3 C6_3 1_555 1_555
H12_3 C6_3 1_555 1_555
C5_4 O9 1_555 1_555
H9_4 C5_4 1_555 1_555
H10_4 C5_4 1_555 1_555
H15_4 C8_4 1_555 1_555
H16_4 C8_4 1_555 1_555
H11_4 C6_4 1_555 1_555
H12_4 C6_4 1_555 1_555
O4_4 C7_4 1_555 1_555
H13_4 C7_4 1_555 1_555
H14_4 C7_4 1_555 1_555
Na2_2 O4_4 1_555 1_555
O5_3 Na2 1_555 1_555
O8_2 C10_3 1_555 1_555
C9_3 O5_3 1_555 1_555
H17_3 C9_3 1_555 1_555
H18_3 C9_3 1_555 1_555
C10_3 C9_3 1_555 1_555
H19_3 C10_3 1_555 1_555
H20_3 C10_3 1_555 1_555
C11_3 O8_2 1_555 1_555
H21_3 C11_3 1_555 1_555
H22_3 C11_3 1_555 1_555
C12_3 O5_3 1_555 1_555
H23_3 C12_3 1_555 1_555
H24_3 C12_3 1_555 1_555
C11_3 C12_3 1_555 1_555
Na2_2 O1_3 1_555 1_555
O1_3 C1_3 1_555 1_555
O7_2 C2_3 1_555 1_555
C1_3 H1_3 1_555 1_555
H2_3 C1_3 1_555 1_555
C2_3 C1_3 1_555 1_555
H3_3 C2_3 1_555 1_555
H4_3 C2_3 1_555 1_555
C3_3 O7_2 1_555 1_555
H5_3 C3_3 1_555 1_555
H6_3 C3_3 1_555 1_555
C4_3 O1_3 1_555 1_555
H7_3 C4_3 1_555 1_555
H8_3 C4_3 1_555 1_555
C3_3 C4_3 1_555 1_555
Na4 O1_4 1_555 1_555
O1_4 C1_4 1_555 1_555
O7 C2_4 1_555 1_555
C1_4 H1_4 1_555 1_555
H2_4 C1_4 1_555 1_555
C2_4 C1_4 1_555 1_555
H3_4 C2_4 1_555 1_555
H4_4 C2_4 1_555 1_555
C3_4 O7 1_555 1_555
H5_4 C3_4 1_555 1_555
H6_4 C3_4 1_555 1_555
C4_4 O1_4 1_555 1_555
H7_4 C4_4 1_555 1_555
H8_4 C4_4 1_555 1_555
O5_4 Na4 1_555 1_555
O8 C10_4 1_555 1_555
C9_4 O5_4 1_555 1_555
H17_4 C9_4 1_555 1_555
H18_4 C9_4 1_555 1_555
C10_4 C9_4 1_555 1_555
H19_4 C10_4 1_555 1_555
H20_4 C10_4 1_555 1_555
C11_4 O8 1_555 1_555
H21_4 C11_4 1_555 1_555
H22_4 C11_4 1_555 1_555
C12_4 O5_4 1_555 1_555
H23_4 C12_4 1_555 1_555
H24_4 C12_4 1_555 1_555
C3_4 C4_4 1_555 1_555
C11_4 C12_4 1_555 1_555

#END
