
###############################################################################
#
# This file contains modified crystal structure data generated from the
# MOF subset of the Cambridge Structural Database (CSD) v543 
# hosted by the Cambridge Crystallographic Data Centre (CCDC).
#
# This work is licensed under the Creative Commons
# Attribution-NonCommercial-ShareAlike 4.0 International License.
# To view a copy of this license, visit
# http://creativecommons.org/licenses/by-nc-sa/4.0/
# or send a letter to
# Creative Commons, PO Box 1866, Mountain View, CA 94042, USA.
#
# CIF created using the CSD Python API on 29 September 2022
# The structure has been converted into the P1 space group
# The structure has a 3D framework
# The original CSD entry JIJDOY is in the triclinic crystal system
# The framework has been calculated to contain at least 10.0% void space
# The void calculation uses a probe of radius 1.32A, grid spacing 0.4
# H atom positions have been added when not included in the experimental data
# Generated hydrogen atom positions removed from atoms on special positions
#
###############################################################################

data_JIJDOY
_chemical_formula_moiety         '(C44 H62 Eu2 O40 S4)n'
_symmetry_cell_setting           triclinic
_symmetry_space_group_name_H-M   'P 1'
_symmetry_Int_Tables_number      1
_space_group_name_Hall           'P 1'
loop_
_symmetry_equiv_pos_site_id
_symmetry_equiv_pos_as_xyz
1 x,y,z
_cell_length_a                   10.4060(5)
_cell_length_b                   11.0721(5)
_cell_length_c                   14.9186(5)
_cell_angle_alpha                72.552(4)
_cell_angle_beta                 80.225(3)
_cell_angle_gamma                79.695(4)
_cell_volume                     1600.93
loop_
_atom_site_label
_atom_site_type_symbol
_atom_site_fract_x
_atom_site_fract_y
_atom_site_fract_z
_atom_site_U_iso_or_equiv
_atom_site_thermal_displace_type
Eu12 Eu 0.00233(2) 0.55862(2) 0.35240(2) 0.0127 Uani
O23 O 0.0391(3) 0.3367(2) 0.41501(18) 0.0241 Uani
O24 O 0.0205(3) 0.2790(2) 0.57276(19) 0.0284 Uani
C28 C 0.0135(4) 0.1234(3) 0.4968(3) 0.0176 Uani
C29 C 0.0191(4) 0.0264(4) 0.5812(3) 0.0246 Uani
H14 H 0.0320 0.0443 0.6359 0.0290 Uiso
C30 C 0.0254(4) 0.2573(3) 0.4948(3) 0.0185 Uani
O2 O 0.2510(3) 0.1012(3) 0.0416(2) 0.0352 Uani
Eu8 Eu 0.65336(2) 0.07598(2) 0.03202(2) 0.0140 Uani
S1 S 0.70093(10) 0.24637(9) 0.20103(6) 0.0199 Uani
S2 S 0.27373(9) 0.22076(8) 0.78502(6) 0.0146 Uani
O1 O 0.4695(3) 0.1431(3) 0.12773(19) 0.0283 Uani
O3 O 0.3081(4) 0.2913(5) 0.1550(3) 0.0799 Uani
O5 O 0.7315(3) 0.1483(3) 0.15085(18) 0.0228 Uani
O7 O 0.6485(3) 0.3686(3) 0.1406(2) 0.0361 Uani
O8 O 0.1378(3) 0.5237(3) 0.7286(2) 0.0350 Uani
O9 O 0.8112(3) 0.2525(3) 0.2451(2) 0.0331 Uani
O11 O 0.4919(2) 0.0911(2) 0.91461(16) 0.0163 Uani
O13 O 0.6799(3) 0.1587(3) 0.85448(18) 0.0224 Uani
O14 O 0.1754(3) 0.2732(2) 0.72035(17) 0.0196 Uani
O15 O 0.2401(3) 0.1023(3) 0.85418(18) 0.0227 Uani
O16 O 0.3001(3) 0.3133(3) 0.82778(19) 0.0265 Uani
O17 O 0.1489(3) 0.4947(3) 0.5106(2) 0.0274 Uani
O18 O 0.2319(3) 0.5367(3) 0.3618(2) 0.0318 Uani
C1 C 0.4463(4) 0.1977(4) 0.2737(3) 0.0228 Uani
C2 C 0.5708(4) 0.2031(3) 0.2931(3) 0.0191 Uani
C3 C 0.5934(4) 0.1899(4) 0.3846(3) 0.0204 Uani
H1 H 0.6774 0.1940 0.3961 0.0250 Uiso
C4 C 0.4927(4) 0.1708(4) 0.4595(3) 0.0198 Uani
C5 C 0.3694(4) 0.1630(4) 0.4399(3) 0.0290 Uani
H2 H 0.3012 0.1467 0.4891 0.0350 Uiso
C6 C 0.3463(4) 0.1792(4) 0.3482(3) 0.0284 Uani
H3 H 0.2617 0.1775 0.3364 0.0340 Uiso
C7 C 0.4069(4) 0.2130(4) 0.1774(3) 0.0287 Uani
C8 C 0.5444(4) 0.1511(3) 0.7443(2) 0.0158 Uani
C9 C 0.4202(4) 0.1796(3) 0.7139(2) 0.0153 Uani
C10 C 0.4052(4) 0.1861(4) 0.6223(3) 0.0191 Uani
H4 H 0.3214 0.2062 0.6034 0.0230 Uiso
C11 C 0.5144(4) 0.1627(4) 0.5573(2) 0.0193 Uani
C12 C 0.6373(4) 0.1376(4) 0.5869(3) 0.0249 Uani
H5 H 0.7113 0.1238 0.5447 0.0300 Uiso
C13 C 0.6524(4) 0.1326(4) 0.6781(3) 0.0232 Uani
H6 H 0.7366 0.1165 0.6959 0.0280 Uiso
C14 C 0.5729(4) 0.1346(3) 0.8429(2) 0.0157 Uani
C15 C 0.3911(4) 0.5046(4) 0.5651(3) 0.0304 Uani
H7 H 0.3170 0.5080 0.6094 0.0370 Uiso
C16 C 0.3769(4) 0.5068(3) 0.4746(3) 0.0187 Uani
C17 C 0.4877(4) 0.5026(5) 0.4095(3) 0.0305 Uani
H8 H 0.4794 0.5046 0.3479 0.0370 Uiso
C18 C 0.2454(4) 0.5128(3) 0.4475(3) 0.0208 Uani
C19 C 0.0056(4) 0.9038(3) 0.5839(3) 0.0215 Uani
H9 H 0.0095 0.8391 0.6404 0.0260 Uiso
O21 O 0.8511(3) 0.5053(3) 0.4894(2) 0.0274 Uani
O22 O 0.7681(3) 0.4633(3) 0.6382(2) 0.0318 Uani
C23 C 0.6089(4) 0.4954(4) 0.4349(3) 0.0304 Uani
H11 H 0.6830 0.4920 0.3906 0.0370 Uiso
C24 C 0.6231(4) 0.4932(3) 0.5254(3) 0.0187 Uani
C25 C 0.5123(4) 0.4974(5) 0.5905(3) 0.0305 Uani
H12 H 0.5206 0.4954 0.6521 0.0370 Uiso
C26 C 0.7546(4) 0.4872(3) 0.5525(3) 0.0208 Uani
O34 O 0.0901(3) 0.7396(3) 0.2322(2) 0.0350 Uani
O36 O 0.1314(4) 0.4888(3) 0.2142(2) 0.0466 Uani
Eu10 Eu 0.99767(2) 0.44138(2) 0.64760(2) 0.0127 Uani
O4 O 0.1175(3) 0.8923(3) 0.0172(2) 0.0311 Uani
O6 O 0.3688(4) 0.6960(3) 0.0214(2) 0.0461 Uani
O46 O 0.5081(2) 0.9089(2) 0.08539(16) 0.0163 Uani
O48 O 0.3201(3) 0.8413(3) 0.14552(18) 0.0224 Uani
H22 H 0.10121 0.816678 0.000249493 . .
H23 H 0.280239 0.668333 0.0420631 . .
Eu1 Eu 0.34664(2) 0.92402(2) 0.96798(2) 0.0140 Uani
O42 O 0.5305(3) 0.8569(3) 0.87227(19) 0.0283 Uani
O44 O 0.2685(3) 0.8517(3) 0.84915(18) 0.0228 Uani
H21 H 0.0600927 0.969216 0.984688 . .
H24 H 0.413773 0.660066 0.96892 . .
C27 C 0.9944(4) 0.0962(3) 0.4161(3) 0.0215 Uani
H13 H 0.9905 0.1609 0.3596 0.0260 Uiso
H42 H 0.586227 0.339934 0.0310798 . .
O28 O 0.8825(3) 0.1077(3) 0.9828(2) 0.0311 Uani
O30 O 0.6312(4) 0.3040(3) 0.9786(2) 0.0461 Uani
H39 H 0.90249 0.121964 0.913213 . .
H40 H 0.89879 0.183322 0.999751 . .
H41 H 0.578404 0.335157 0.924584 . .
O10 O 0.9099(3) 0.2604(3) 0.7678(2) 0.0350 Uani
O12 O 0.8686(4) 0.5112(3) 0.7858(2) 0.0466 Uani
O19 O 0.9609(3) 0.6633(2) 0.58499(18) 0.0241 Uani
O20 O 0.9795(3) 0.7210(2) 0.42724(19) 0.0284 Uani
C20 C 0.9865(4) 0.8766(3) 0.5032(3) 0.0176 Uani
C21 C 0.9809(4) 0.9736(4) 0.4188(3) 0.0246 Uani
H10 H 0.9680 0.9557 0.3641 0.0290 Uiso
C22 C 0.9746(4) 0.7427(3) 0.5052(3) 0.0185 Uani
S3 S 0.29907(10) 0.75363(9) 0.79897(6) 0.0199 Uani
S4 S 0.72627(9) 0.77924(8) 0.21498(6) 0.0146 Uani
O27 O 0.6919(4) 0.7087(5) 0.8450(3) 0.0799 Uani
O31 O 0.3515(3) 0.6314(3) 0.8594(2) 0.0361 Uani
O32 O 0.8622(3) 0.4763(3) 0.2714(2) 0.0350 Uani
O33 O 0.1888(3) 0.7475(3) 0.7549(2) 0.0331 Uani
O38 O 0.8246(3) 0.7268(2) 0.27965(17) 0.0196 Uani
O39 O 0.7599(3) 0.8977(3) 0.14582(18) 0.0227 Uani
O40 O 0.6999(3) 0.6867(3) 0.17222(19) 0.0265 Uani
C31 C 0.5537(4) 0.8023(4) 0.7263(3) 0.0228 Uani
C32 C 0.4292(4) 0.7969(3) 0.7069(3) 0.0191 Uani
C33 C 0.4066(4) 0.8101(4) 0.6154(3) 0.0204 Uani
H15 H 0.3226 0.8060 0.6039 0.0250 Uiso
C34 C 0.5073(4) 0.8292(4) 0.5405(3) 0.0198 Uani
C35 C 0.6306(4) 0.8370(4) 0.5601(3) 0.0290 Uani
H16 H 0.6988 0.8533 0.5109 0.0350 Uiso
C36 C 0.6537(4) 0.8208(4) 0.6518(3) 0.0284 Uani
H17 H 0.7383 0.8225 0.6636 0.0340 Uiso
C37 C 0.5931(4) 0.7870(4) 0.8226(3) 0.0287 Uani
C38 C 0.4556(4) 0.8489(3) 0.2557(2) 0.0158 Uani
C39 C 0.5798(4) 0.8204(3) 0.2861(2) 0.0153 Uani
C40 C 0.5948(4) 0.8139(4) 0.3777(3) 0.0191 Uani
H18 H 0.6786 0.7938 0.3966 0.0230 Uiso
C41 C 0.4856(4) 0.8373(4) 0.4427(2) 0.0193 Uani
C42 C 0.3627(4) 0.8624(4) 0.4131(3) 0.0249 Uani
H19 H 0.2887 0.8762 0.4553 0.0300 Uiso
C43 C 0.3476(4) 0.8674(4) 0.3219(3) 0.0232 Uani
H20 H 0.2634 0.8835 0.3041 0.0280 Uiso
C44 C 0.4271(4) 0.8654(3) 0.1571(2) 0.0157 Uani
O26 O 0.7490(3) 0.8988(3) 0.9584(2) 0.0352 Uani
H39_2 H 0.0975105 0.878036 0.0867868 . .
H41_2 H 0.421596 0.664843 0.0754162 . .
H21_2 H 0.939907 0.0307837 0.015312 . .
H23_2 H 0.719761 0.331667 0.957937 . .
loop_
_atom_site_aniso_label
_atom_site_aniso_U_11
_atom_site_aniso_U_22
_atom_site_aniso_U_33
_atom_site_aniso_U_23
_atom_site_aniso_U_13
_atom_site_aniso_U_12
Eu12 0.0113 0.01236 0.01435 -0.00264 -0.00232 -0.00279
O23 0.037 0.0128 0.0209 -0.0017 -0.0033 -0.0044
O24 0.052 0.0155 0.0216 -0.007 -0.0127 -0.0041
C28 0.021 0.0139 0.0177 -0.0025 -0.0046 -0.0028
C29 0.038 0.0209 0.0189 -0.008 -0.0078 -0.0063
C30 0.021 0.0144 0.021 -0.0045 -0.008 -0.0006
O2 0.0324 0.0407 0.0379 -0.0236 -0.0047 0.0035
Eu8 0.0153 0.01769 0.00904 -0.00336 -0.00153 -0.00307
S1 0.0265 0.0218 0.0134 -0.0073 -0.0008 -0.0061
S2 0.0129 0.0191 0.011 -0.0042 -0.0024 0.0007
O1 0.0293 0.04 0.0205 -0.0191 -0.0024 0.0004
O3 0.08 0.116 0.046 -0.052 -0.043 0.065
O5 0.0276 0.0267 0.0177 -0.0119 -0.0002 -0.0055
O7 0.06 0.0225 0.0207 -0.0026 -0.0014 -0.0021
O8 0.0361 0.0291 0.0475 -0.017 -0.0205 0.0014
O9 0.0339 0.0471 0.0273 -0.0151 -0.0056 -0.0184
O11 0.0149 0.023 0.0102 -0.0031 0.0009 -0.0052
O13 0.0152 0.0381 0.0154 -0.0059 -0.0024 -0.0095
O14 0.0166 0.0234 0.0175 -0.0044 -0.0071 0.0034
O15 0.0179 0.0269 0.018 0.0032 -0.0042 -0.0042
O16 0.0276 0.029 0.0286 -0.0177 -0.0087 0.0032
O17 0.0129 0.034 0.0349 -0.0101 0.0049 -0.009
O18 0.0179 0.0517 0.0241 -0.0036 -0.0066 -0.0086
C1 0.026 0.026 0.0171 -0.0097 -0.006 0.0046
C2 0.022 0.0206 0.014 -0.0068 -0.0021 0.0021
C3 0.021 0.0247 0.0166 -0.0079 -0.0049 0.0002
C4 0.025 0.0213 0.0137 -0.0079 -0.0029 0.0011
C5 0.026 0.046 0.017 -0.0137 0 -0.0039
C6 0.021 0.049 0.021 -0.0178 -0.0055 -0.0029
C7 0.025 0.042 0.021 -0.0153 -0.0095 0.0081
C8 0.0162 0.0209 0.0101 -0.0042 -0.0019 -0.0021
C9 0.0167 0.0182 0.0094 -0.0025 -0.0001 -0.0017
C10 0.0158 0.026 0.017 -0.0075 -0.0052 -0.0007
C11 0.024 0.0231 0.0114 -0.0072 -0.0023 -0.0006
C12 0.018 0.04 0.0146 -0.0091 0.0016 0.0009
C13 0.018 0.036 0.0155 -0.0073 -0.0037 -0.0015
C14 0.018 0.0161 0.0121 -0.0038 -0.0011 -0.0012
C15 0.016 0.054 0.021 -0.0102 0.0026 -0.0089
C16 0.0118 0.0202 0.022 -0.0006 -0.0047 -0.0035
C17 0.019 0.056 0.018 -0.0088 -0.0017 -0.012
C18 0.0126 0.0188 0.029 -0.0032 -0.0028 -0.0024
C19 0.034 0.0141 0.0159 -0.0006 -0.0066 -0.0046
O21 0.0129 0.034 0.0349 -0.0101 0.0049 -0.009
O22 0.0179 0.0517 0.0241 -0.0036 -0.0066 -0.0086
C23 0.016 0.054 0.021 -0.0102 0.0026 -0.0089
C24 0.0118 0.0202 0.022 -0.0006 -0.0047 -0.0035
C25 0.019 0.056 0.018 -0.0088 -0.0017 -0.012
C26 0.0126 0.0188 0.029 -0.0032 -0.0028 -0.0024
O34 0.0253 0.0321 0.0364 0.0045 0.0059 -0.0087
O36 0.058 0.052 0.0292 -0.0191 0.0017 0.001
Eu10 0.0113 0.01236 0.01435 -0.00264 -0.00232 -0.00279
O4 0.0231 0.0469 0.0237 -0.0087 -0.0008 -0.01
O6 0.092 0.023 0.0222 -0.0033 -0.0122 -0.005
O46 0.0149 0.023 0.0102 -0.0031 0.0009 -0.0052
O48 0.0152 0.0381 0.0154 -0.0059 -0.0024 -0.0095
Eu1 0.0153 0.01769 0.00904 -0.00336 -0.00153 -0.00307
O42 0.0293 0.04 0.0205 -0.0191 -0.0024 0.0004
O44 0.0276 0.0267 0.0177 -0.0119 -0.0002 -0.0055
C27 0.034 0.0141 0.0159 -0.0006 -0.0066 -0.0046
O28 0.0231 0.0469 0.0237 -0.0087 -0.0008 -0.01
O30 0.092 0.023 0.0222 -0.0033 -0.0122 -0.005
O10 0.0253 0.0321 0.0364 0.0045 0.0059 -0.0087
O12 0.058 0.052 0.0292 -0.0191 0.0017 0.001
O19 0.037 0.0128 0.0209 -0.0017 -0.0033 -0.0044
O20 0.052 0.0155 0.0216 -0.007 -0.0127 -0.0041
C20 0.021 0.0139 0.0177 -0.0025 -0.0046 -0.0028
C21 0.038 0.0209 0.0189 -0.008 -0.0078 -0.0063
C22 0.021 0.0144 0.021 -0.0045 -0.008 -0.0006
S3 0.0265 0.0218 0.0134 -0.0073 -0.0008 -0.0061
S4 0.0129 0.0191 0.011 -0.0042 -0.0024 0.0007
O27 0.08 0.116 0.046 -0.052 -0.043 0.065
O31 0.06 0.0225 0.0207 -0.0026 -0.0014 -0.0021
O32 0.0361 0.0291 0.0475 -0.017 -0.0205 0.0014
O33 0.0339 0.0471 0.0273 -0.0151 -0.0056 -0.0184
O38 0.0166 0.0234 0.0175 -0.0044 -0.0071 0.0034
O39 0.0179 0.0269 0.018 0.0032 -0.0042 -0.0042
O40 0.0276 0.029 0.0286 -0.0177 -0.0087 0.0032
C31 0.026 0.026 0.0171 -0.0097 -0.006 0.0046
C32 0.022 0.0206 0.014 -0.0068 -0.0021 0.0021
C33 0.021 0.0247 0.0166 -0.0079 -0.0049 0.0002
C34 0.025 0.0213 0.0137 -0.0079 -0.0029 0.0011
C35 0.026 0.046 0.017 -0.0137 0 -0.0039
C36 0.021 0.049 0.021 -0.0178 -0.0055 -0.0029
C37 0.025 0.042 0.021 -0.0153 -0.0095 0.0081
C38 0.0162 0.0209 0.0101 -0.0042 -0.0019 -0.0021
C39 0.0167 0.0182 0.0094 -0.0025 -0.0001 -0.0017
C40 0.0158 0.026 0.017 -0.0075 -0.0052 -0.0007
C41 0.024 0.0231 0.0114 -0.0072 -0.0023 -0.0006
C42 0.018 0.04 0.0146 -0.0091 0.0016 0.0009
C43 0.018 0.036 0.0155 -0.0073 -0.0037 -0.0015
C44 0.018 0.0161 0.0121 -0.0038 -0.0011 -0.0012
O26 0.0324 0.0407 0.0379 -0.0236 -0.0047 0.0035
loop_
_geom_bond_atom_site_label_1
_geom_bond_atom_site_label_2
_geom_bond_site_symmetry_1
_geom_bond_site_symmetry_2
O23 C30 1_555 1_555
O24 C30 1_555 1_555
H14 C29 1_555 1_555
C30 C28 1_555 1_555
Eu12 O23 1_555 1_555
C28 C29 1_555 1_555
S1 O5 1_555 1_555
S2 O14 1_555 1_555
O1 C7 1_555 1_555
O3 C7 1_555 1_555
O5 Eu8 1_555 1_555
O7 S1 1_555 1_555
O9 S1 1_555 1_555
O13 C14 1_555 1_555
O16 S2 1_555 1_555
O18 C18 1_555 1_555
C1 C2 1_555 1_555
C2 S1 1_555 1_555
C3 C2 1_555 1_555
H1 C3 1_555 1_555
C4 C3 1_555 1_555
C5 C4 1_555 1_555
H2 C5 1_555 1_555
C6 C1 1_555 1_555
H3 C6 1_555 1_555
C7 C1 1_555 1_555
C8 C9 1_555 1_555
C9 S2 1_555 1_555
C10 C9 1_555 1_555
H4 C10 1_555 1_555
C11 C4 1_555 1_555
C12 C11 1_555 1_555
H5 C12 1_555 1_555
C13 C8 1_555 1_555
H6 C13 1_555 1_555
C14 O11 1_555 1_555
C15 H7 1_555 1_555
C16 C15 1_555 1_555
C17 C16 1_555 1_555
H8 C17 1_555 1_555
C18 O17 1_555 1_555
C19 H9 1_555 1_555
O21 C26 1_555 1_555
O22 C26 1_555 1_555
C23 C17 1_555 1_555
H11 C23 1_555 1_555
C24 C23 1_555 1_555
C25 C15 1_555 1_555
H12 C25 1_555 1_555
C26 C24 1_555 1_555
Eu12 O17 1_555 1_555
O34 Eu12 1_555 1_555
O36 Eu12 1_555 1_555
Eu8 O1 1_555 1_555
Eu10 O21 1_555 1_555
S2 O15 1_555 1_555
O18 Eu12 1_555 1_555
C5 C6 1_555 1_555
C8 C14 1_555 1_555
C10 C11 1_555 1_555
C12 C13 1_555 1_555
C16 C18 1_555 1_555
O22 Eu10 1_555 1_555
C24 C25 1_555 1_555
O4 H22 1_555 1_555
O6 H23 1_555 1_555
O42 Eu1 1_555 1_555
O44 Eu1 1_555 1_555
H13 C27 1_555 1_555
O28 H39 1_555 1_555
O28 H40 1_555 1_555
O30 H41 1_555 1_555
O10 Eu10 1_555 1_555
O12 Eu10 1_555 1_555
O19 Eu10 1_555 1_555
O20 C22 1_555 1_555
C21 C20 1_555 1_555
H10 C21 1_555 1_555
C22 O19 1_555 1_555
S3 O44 1_555 1_555
S4 O38 1_555 1_555
O42 C37 1_555 1_555
O27 C37 1_555 1_555
O31 S3 1_555 1_555
O33 S3 1_555 1_555
O48 C44 1_555 1_555
O40 S4 1_555 1_555
C31 C32 1_555 1_555
C32 S3 1_555 1_555
C33 C32 1_555 1_555
H15 C33 1_555 1_555
C34 C33 1_555 1_555
C35 C34 1_555 1_555
H16 C35 1_555 1_555
C36 C31 1_555 1_555
H17 C36 1_555 1_555
C37 C31 1_555 1_555
C38 C39 1_555 1_555
C39 S4 1_555 1_555
C40 C39 1_555 1_555
H18 C40 1_555 1_555
C41 C34 1_555 1_555
C42 C41 1_555 1_555
H19 C42 1_555 1_555
C43 C38 1_555 1_555
H20 C43 1_555 1_555
C44 O46 1_555 1_555
C20 C22 1_555 1_555
S4 O39 1_555 1_555
C35 C36 1_555 1_555
C38 C44 1_555 1_555
C40 C41 1_555 1_555
C42 C43 1_555 1_555
O4 H39_2 1_555 1_555
O6 H41_2 1_555 1_555
O30 H23_2 1_555 1_555

#END
