
###############################################################################
#
# This file contains modified crystal structure data generated from the
# MOF subset of the Cambridge Structural Database (CSD) v543 
# hosted by the Cambridge Crystallographic Data Centre (CCDC).
#
# This work is licensed under the Creative Commons
# Attribution-NonCommercial-ShareAlike 4.0 International License.
# To view a copy of this license, visit
# http://creativecommons.org/licenses/by-nc-sa/4.0/
# or send a letter to
# Creative Commons, PO Box 1866, Mountain View, CA 94042, USA.
#
# CIF created using the CSD Python API on 29 September 2022
# The structure has been converted into the P1 space group
# The structure has a 3D framework
# The original CSD entry JIJDIS is in the triclinic crystal system
# The framework has been calculated to contain at least 10.0% void space
# The void calculation uses a probe of radius 1.32A, grid spacing 0.4
# H atom positions have been added when not included in the experimental data
# Generated hydrogen atom positions removed from atoms on special positions
#
###############################################################################

data_JIJDIS
_chemical_formula_moiety         '(C44 H62 O40 S4 Tb2)n'
_symmetry_cell_setting           triclinic
_symmetry_space_group_name_H-M   'P 1'
_symmetry_Int_Tables_number      1
_space_group_name_Hall           'P 1'
loop_
_symmetry_equiv_pos_site_id
_symmetry_equiv_pos_as_xyz
1 x,y,z
_cell_length_a                   10.4693(2)
_cell_length_b                   11.0590(2)
_cell_length_c                   14.9262(3)
_cell_angle_alpha                72.580(2)
_cell_angle_beta                 80.777(2)
_cell_angle_gamma                80.196(2)
_cell_volume                     1613.8
loop_
_atom_site_label
_atom_site_type_symbol
_atom_site_fract_x
_atom_site_fract_y
_atom_site_fract_z
_atom_site_U_iso_or_equiv
_atom_site_thermal_displace_type
Tb12 Tb 0.00178(2) 0.55969(2) 0.35152(2) 0.0161 Uani
O23 O 0.0363(3) 0.3394(3) 0.4148(2) 0.0291 Uani
O24 O 0.0126(3) 0.2820(3) 0.5732(2) 0.0314 Uani
C28 C 0.0118(4) 0.1246(4) 0.4971(3) 0.0210 Uani
C29 C 0.0162(5) 0.0280(4) 0.5821(3) 0.0276 Uani
H14 H 0.0262 0.0469 0.6371 0.0330 Uiso
C30 C 0.0214(4) 0.2596(4) 0.4951(3) 0.0215 Uani
O2 O 0.2546(3) 0.1028(3) 0.0372(2) 0.0382 Uani
Tb8 Tb 0.65304(2) 0.07500(2) 0.03208(2) 0.0181 Uani
S1 S 0.70051(11) 0.24786(10) 0.20030(7) 0.0267 Uani
S2 S 0.27489(9) 0.21894(9) 0.78383(6) 0.0177 Uani
O1 O 0.4721(3) 0.1432(3) 0.1255(2) 0.0337 Uani
O3 O 0.3124(6) 0.2909(7) 0.1511(4) 0.1246 Uani
O5 O 0.7321(3) 0.1496(3) 0.1505(2) 0.0287 Uani
O7 O 0.6474(4) 0.3691(3) 0.1386(2) 0.0468 Uani
O8 O 0.1335(4) 0.5193(3) 0.7326(3) 0.0449 Uani
O9 O 0.8097(3) 0.2556(3) 0.2454(2) 0.0419 Uani
O11 O 0.4923(3) 0.0905(3) 0.91487(17) 0.0205 Uani
O13 O 0.6807(3) 0.1555(3) 0.85536(19) 0.0278 Uani
O14 O 0.1760(3) 0.2705(3) 0.71912(19) 0.0245 Uani
O15 O 0.2426(3) 0.0993(3) 0.85262(19) 0.0263 Uani
O16 O 0.3009(3) 0.3119(3) 0.8272(2) 0.0295 Uani
O17 O 0.1507(3) 0.4893(3) 0.5190(2) 0.0344 Uani
O18 O 0.2242(3) 0.5384(3) 0.3681(2) 0.0371 Uani
C1 C 0.4470(4) 0.1973(4) 0.2719(3) 0.0281 Uani
C2 C 0.5711(4) 0.2032(4) 0.2923(3) 0.0231 Uani
C3 C 0.5925(4) 0.1917(4) 0.3843(3) 0.0245 Uani
H1 H 0.6753 0.1975 0.3965 0.0300 Uiso
C4 C 0.4922(4) 0.1717(4) 0.4582(3) 0.0229 Uani
C5 C 0.3705(4) 0.1643(5) 0.4376(3) 0.0334 Uani
H2 H 0.3024 0.1493 0.4862 0.0400 Uiso
C6 C 0.3477(5) 0.1787(5) 0.3457(3) 0.0349 Uani
H3 H 0.2640 0.1758 0.3336 0.0420 Uiso
C7 C 0.4093(5) 0.2119(5) 0.1747(3) 0.0412 Uani
C8 C 0.5452(4) 0.1504(4) 0.7440(2) 0.0181 Uani
C9 C 0.4210(4) 0.1795(4) 0.7127(3) 0.0188 Uani
C10 C 0.4065(4) 0.1868(4) 0.6209(3) 0.0222 Uani
H4 H 0.3234 0.2070 0.6015 0.0270 Uiso
C11 C 0.5138(4) 0.1644(4) 0.5565(3) 0.0226 Uani
C12 C 0.6363(4) 0.1395(4) 0.5860(3) 0.0282 Uani
H5 H 0.7095 0.1267 0.5439 0.0340 Uiso
C13 C 0.6515(4) 0.1332(4) 0.6785(3) 0.0263 Uani
H6 H 0.7351 0.1171 0.6967 0.0320 Uiso
C14 C 0.5730(4) 0.1336(4) 0.8431(3) 0.0186 Uani
C15 C 0.3943(4) 0.5030(5) 0.5676(3) 0.0320 Uani
H7 H 0.3226 0.5053 0.6130 0.0380 Uiso
C16 C 0.3762(4) 0.5063(4) 0.4771(3) 0.0231 Uani
C17 C 0.4822(4) 0.5038(5) 0.4093(3) 0.0318 Uani
H8 H 0.4702 0.5067 0.3482 0.0380 Uiso
C18 C 0.2421(4) 0.5117(4) 0.4532(3) 0.0257 Uani
C19 C 0.0057(4) 0.9038(4) 0.5846(3) 0.0266 Uani
H9 H 0.0103 0.8392 0.6410 0.0320 Uiso
O21 O 0.8493(3) 0.5107(3) 0.4810(2) 0.0344 Uani
O22 O 0.7758(3) 0.4616(3) 0.6319(2) 0.0371 Uani
C23 C 0.6057(4) 0.4970(5) 0.4324(3) 0.0320 Uani
H11 H 0.6774 0.4947 0.3870 0.0380 Uiso
C24 C 0.6238(4) 0.4937(4) 0.5229(3) 0.0231 Uani
C25 C 0.5178(4) 0.4962(5) 0.5907(3) 0.0318 Uani
H12 H 0.5298 0.4933 0.6518 0.0380 Uiso
C26 C 0.7579(4) 0.4883(4) 0.5468(3) 0.0257 Uani
O34 O 0.0890(3) 0.7361(3) 0.2306(2) 0.0364 Uani
O36 O 0.1351(5) 0.4843(4) 0.2186(3) 0.0610 Uani
Tb10 Tb 0.99822(2) 0.44031(2) 0.64848(2) 0.0161 Uani
O4 O 0.1212(3) 0.8964(3) 0.0152(2) 0.0357 Uani
O6 O 0.3670(5) 0.6993(3) 0.0221(2) 0.0534 Uani
O46 O 0.5077(3) 0.9095(3) 0.08513(17) 0.0205 Uani
O48 O 0.3193(3) 0.8445(3) 0.14464(19) 0.0278 Uani
H23 H 0.278876 0.671758 0.0420982 . .
Tb1 Tb 0.34696(2) 0.92500(2) 0.96792(2) 0.0181 Uani
O42 O 0.5279(3) 0.8568(3) 0.8745(2) 0.0337 Uani
O44 O 0.2679(3) 0.8504(3) 0.8495(2) 0.0287 Uani
H24 H 0.411657 0.662755 0.970322 . .
H25 H 0.0655011 0.973244 0.981355 . .
H26 H 0.103699 0.820167 0.99936 . .
C27 C 0.9943(4) 0.0962(4) 0.4154(3) 0.0266 Uani
H13 H 0.9897 0.1608 0.3590 0.0320 Uiso
H36 H 0.588343 0.337245 0.0296777 . .
H40 H 0.896301 0.179833 0.00063956 . .
O28 O 0.8788(3) 0.1036(3) 0.9848(2) 0.0357 Uani
O30 O 0.6330(5) 0.3007(3) 0.9779(2) 0.0534 Uani
H35 H 0.58112 0.331359 0.923377 . .
H39 H 0.898922 0.116033 0.915571 . .
O10 O 0.9110(3) 0.2639(3) 0.7694(2) 0.0364 Uani
O12 O 0.8649(5) 0.5157(4) 0.7814(3) 0.0610 Uani
O19 O 0.9637(3) 0.6606(3) 0.5852(2) 0.0291 Uani
O20 O 0.9874(3) 0.7180(3) 0.4268(2) 0.0314 Uani
C20 C 0.9882(4) 0.8754(4) 0.5029(3) 0.0210 Uani
C21 C 0.9838(5) 0.9720(4) 0.4179(3) 0.0276 Uani
H10 H 0.9738 0.9531 0.3629 0.0330 Uiso
C22 C 0.9786(4) 0.7404(4) 0.5049(3) 0.0215 Uani
S3 S 0.29949(11) 0.75214(10) 0.79970(7) 0.0267 Uani
S4 S 0.72511(9) 0.78106(9) 0.21617(6) 0.0177 Uani
O27 O 0.6876(6) 0.7091(7) 0.8489(4) 0.1246 Uani
O31 O 0.3526(4) 0.6309(3) 0.8614(2) 0.0468 Uani
O32 O 0.8665(4) 0.4807(3) 0.2674(3) 0.0449 Uani
O33 O 0.1903(3) 0.7444(3) 0.7546(2) 0.0419 Uani
O38 O 0.8240(3) 0.7295(3) 0.28088(19) 0.0245 Uani
O39 O 0.7574(3) 0.9007(3) 0.14738(19) 0.0263 Uani
O40 O 0.6991(3) 0.6881(3) 0.1728(2) 0.0295 Uani
C31 C 0.5530(4) 0.8027(4) 0.7281(3) 0.0281 Uani
C32 C 0.4289(4) 0.7968(4) 0.7077(3) 0.0231 Uani
C33 C 0.4075(4) 0.8083(4) 0.6157(3) 0.0245 Uani
H15 H 0.3247 0.8025 0.6035 0.0300 Uiso
C34 C 0.5078(4) 0.8283(4) 0.5418(3) 0.0229 Uani
C35 C 0.6295(4) 0.8357(5) 0.5624(3) 0.0334 Uani
H16 H 0.6976 0.8507 0.5138 0.0400 Uiso
C36 C 0.6523(5) 0.8213(5) 0.6543(3) 0.0349 Uani
H17 H 0.7360 0.8242 0.6664 0.0420 Uiso
C37 C 0.5907(5) 0.7881(5) 0.8253(3) 0.0412 Uani
C38 C 0.4548(4) 0.8496(4) 0.2560(2) 0.0181 Uani
C39 C 0.5790(4) 0.8205(4) 0.2873(3) 0.0188 Uani
C40 C 0.5935(4) 0.8132(4) 0.3791(3) 0.0222 Uani
H18 H 0.6766 0.7930 0.3985 0.0270 Uiso
C41 C 0.4862(4) 0.8356(4) 0.4435(3) 0.0226 Uani
C42 C 0.3637(4) 0.8605(4) 0.4140(3) 0.0282 Uani
H19 H 0.2905 0.8733 0.4561 0.0340 Uiso
C43 C 0.3485(4) 0.8668(4) 0.3215(3) 0.0263 Uani
H20 H 0.2649 0.8829 0.3033 0.0320 Uiso
C44 C 0.4270(4) 0.8664(4) 0.1569(3) 0.0186 Uani
O26 O 0.7454(3) 0.8972(3) 0.9628(2) 0.0382 Uani
H35_2 H 0.41888 0.668641 0.0766234 . .
H39_2 H 0.101078 0.883967 0.0844286 . .
H25_2 H 0.934499 0.0267562 0.018645 . .
H23_2 H 0.721124 0.328242 0.957902 . .
loop_
_atom_site_aniso_label
_atom_site_aniso_U_11
_atom_site_aniso_U_22
_atom_site_aniso_U_33
_atom_site_aniso_U_23
_atom_site_aniso_U_13
_atom_site_aniso_U_12
Tb12 0.01647 0.01555 0.01656 -0.0026 -0.00489 -0.00327
O23 0.0455 0.0166 0.0243 -0.0025 -0.0074 -0.0041
O24 0.054 0.0203 0.0244 -0.0081 -0.0141 -0.0045
C28 0.026 0.0172 0.0209 -0.0047 -0.0053 -0.0047
C29 0.047 0.02 0.0198 -0.0053 -0.012 -0.008
C30 0.026 0.017 0.022 -0.0045 -0.0095 0.0006
O2 0.0377 0.043 0.0387 -0.0222 -0.0083 0.0049
Tb8 0.02127 0.02261 0.01048 -0.00324 -0.00357 -0.00398
S1 0.0401 0.0278 0.0151 -0.0078 -0.0034 -0.0089
S2 0.0173 0.0221 0.013 -0.0042 -0.0051 0.0013
O1 0.0385 0.045 0.0229 -0.0202 -0.003 -0.0007
O3 0.137 0.176 0.07 -0.084 -0.077 0.106
O5 0.0334 0.0358 0.0218 -0.0157 -0.0002 -0.0068
O7 0.083 0.0289 0.0245 -0.0029 -0.0065 -0.0048
O8 0.052 0.0363 0.057 -0.0199 -0.0308 0.0011
O9 0.05 0.056 0.0303 -0.0167 -0.006 -0.0263
O11 0.0217 0.0277 0.0115 -0.003 -0.002 -0.0058
O13 0.0213 0.0486 0.0163 -0.0088 -0.0023 -0.0128
O14 0.0214 0.0302 0.021 -0.0052 -0.0109 0.0033
O15 0.0248 0.0294 0.0192 0.005 -0.0072 -0.0054
O16 0.0299 0.0329 0.0316 -0.019 -0.0121 0.0062
O17 0.0177 0.0369 0.0456 -0.0083 0.002 -0.0067
O18 0.0233 0.052 0.0328 -0.0014 -0.0129 -0.0063
C1 0.036 0.033 0.019 -0.0135 -0.0123 0.0055
C2 0.031 0.023 0.0164 -0.0093 -0.0051 0.0025
C3 0.029 0.029 0.0179 -0.009 -0.0084 -0.0002
C4 0.029 0.025 0.0151 -0.0076 -0.0066 0.0031
C5 0.029 0.052 0.025 -0.019 -0.0028 -0.006
C6 0.027 0.056 0.028 -0.022 -0.0083 0.001
C7 0.041 0.059 0.028 -0.024 -0.018 0.016
C8 0.023 0.022 0.0094 -0.0044 -0.003 -0.0023
C9 0.021 0.0195 0.0144 -0.0027 -0.0036 -0.0008
C10 0.025 0.026 0.015 -0.0038 -0.0096 0.0013
C11 0.03 0.026 0.0125 -0.0061 -0.0054 -0.0018
C12 0.023 0.046 0.015 -0.0108 0.0001 -0.0006
C13 0.019 0.044 0.0157 -0.008 -0.0065 -0.0003
C14 0.023 0.0207 0.0135 -0.0063 -0.0062 -0.0003
C15 0.019 0.049 0.025 -0.007 0.0028 -0.0072
C16 0.0178 0.024 0.025 0.0011 -0.0081 -0.005
C17 0.024 0.049 0.022 -0.007 -0.0038 -0.008
C18 0.016 0.025 0.032 0.0001 -0.0055 -0.0033
C19 0.041 0.019 0.0185 -0.0003 -0.0084 -0.0047
O21 0.0177 0.0369 0.0456 -0.0083 0.002 -0.0067
O22 0.0233 0.052 0.0328 -0.0014 -0.0129 -0.0063
C23 0.019 0.049 0.025 -0.007 0.0028 -0.0072
C24 0.0178 0.024 0.025 0.0011 -0.0081 -0.005
C25 0.024 0.049 0.022 -0.007 -0.0038 -0.008
C26 0.016 0.025 0.032 0.0001 -0.0055 -0.0033
O34 0.0294 0.0351 0.0335 0.0055 0.0043 -0.0088
O36 0.083 0.057 0.04 -0.0212 0.003 0.003
Tb10 0.01647 0.01555 0.01656 -0.0026 -0.00489 -0.00327
O4 0.0297 0.056 0.0222 -0.0089 -0.0016 -0.0124
O6 0.106 0.0295 0.0248 -0.0041 -0.0185 -0.005
O46 0.0217 0.0277 0.0115 -0.003 -0.002 -0.0058
O48 0.0213 0.0486 0.0163 -0.0088 -0.0023 -0.0128
Tb1 0.02127 0.02261 0.01048 -0.00324 -0.00357 -0.00398
O42 0.0385 0.045 0.0229 -0.0202 -0.003 -0.0007
O44 0.0334 0.0358 0.0218 -0.0157 -0.0002 -0.0068
C27 0.041 0.019 0.0185 -0.0003 -0.0084 -0.0047
O28 0.0297 0.056 0.0222 -0.0089 -0.0016 -0.0124
O30 0.106 0.0295 0.0248 -0.0041 -0.0185 -0.005
O10 0.0294 0.0351 0.0335 0.0055 0.0043 -0.0088
O12 0.083 0.057 0.04 -0.0212 0.003 0.003
O19 0.0455 0.0166 0.0243 -0.0025 -0.0074 -0.0041
O20 0.054 0.0203 0.0244 -0.0081 -0.0141 -0.0045
C20 0.026 0.0172 0.0209 -0.0047 -0.0053 -0.0047
C21 0.047 0.02 0.0198 -0.0053 -0.012 -0.008
C22 0.026 0.017 0.022 -0.0045 -0.0095 0.0006
S3 0.0401 0.0278 0.0151 -0.0078 -0.0034 -0.0089
S4 0.0173 0.0221 0.013 -0.0042 -0.0051 0.0013
O27 0.137 0.176 0.07 -0.084 -0.077 0.106
O31 0.083 0.0289 0.0245 -0.0029 -0.0065 -0.0048
O32 0.052 0.0363 0.057 -0.0199 -0.0308 0.0011
O33 0.05 0.056 0.0303 -0.0167 -0.006 -0.0263
O38 0.0214 0.0302 0.021 -0.0052 -0.0109 0.0033
O39 0.0248 0.0294 0.0192 0.005 -0.0072 -0.0054
O40 0.0299 0.0329 0.0316 -0.019 -0.0121 0.0062
C31 0.036 0.033 0.019 -0.0135 -0.0123 0.0055
C32 0.031 0.023 0.0164 -0.0093 -0.0051 0.0025
C33 0.029 0.029 0.0179 -0.009 -0.0084 -0.0002
C34 0.029 0.025 0.0151 -0.0076 -0.0066 0.0031
C35 0.029 0.052 0.025 -0.019 -0.0028 -0.006
C36 0.027 0.056 0.028 -0.022 -0.0083 0.001
C37 0.041 0.059 0.028 -0.024 -0.018 0.016
C38 0.023 0.022 0.0094 -0.0044 -0.003 -0.0023
C39 0.021 0.0195 0.0144 -0.0027 -0.0036 -0.0008
C40 0.025 0.026 0.015 -0.0038 -0.0096 0.0013
C41 0.03 0.026 0.0125 -0.0061 -0.0054 -0.0018
C42 0.023 0.046 0.015 -0.0108 0.0001 -0.0006
C43 0.019 0.044 0.0157 -0.008 -0.0065 -0.0003
C44 0.023 0.0207 0.0135 -0.0063 -0.0062 -0.0003
O26 0.0377 0.043 0.0387 -0.0222 -0.0083 0.0049
loop_
_geom_bond_atom_site_label_1
_geom_bond_atom_site_label_2
_geom_bond_site_symmetry_1
_geom_bond_site_symmetry_2
O23 C30 1_555 1_555
O24 C30 1_555 1_555
H14 C29 1_555 1_555
C30 C28 1_555 1_555
Tb12 O23 1_555 1_555
C28 C29 1_555 1_555
S1 O5 1_555 1_555
S2 O14 1_555 1_555
O1 C7 1_555 1_555
O3 C7 1_555 1_555
O5 Tb8 1_555 1_555
O7 S1 1_555 1_555
O9 S1 1_555 1_555
O13 C14 1_555 1_555
O16 S2 1_555 1_555
O18 C18 1_555 1_555
C1 C2 1_555 1_555
C2 S1 1_555 1_555
C3 C2 1_555 1_555
H1 C3 1_555 1_555
C4 C3 1_555 1_555
C5 C4 1_555 1_555
H2 C5 1_555 1_555
C6 C1 1_555 1_555
H3 C6 1_555 1_555
C7 C1 1_555 1_555
C8 C9 1_555 1_555
C9 S2 1_555 1_555
C10 C9 1_555 1_555
H4 C10 1_555 1_555
C11 C4 1_555 1_555
C12 C11 1_555 1_555
H5 C12 1_555 1_555
C13 C8 1_555 1_555
H6 C13 1_555 1_555
C14 O11 1_555 1_555
C15 H7 1_555 1_555
C16 C15 1_555 1_555
C17 C16 1_555 1_555
H8 C17 1_555 1_555
C18 O17 1_555 1_555
C19 H9 1_555 1_555
O21 C26 1_555 1_555
O22 C26 1_555 1_555
C23 C17 1_555 1_555
H11 C23 1_555 1_555
C24 C23 1_555 1_555
C25 C15 1_555 1_555
H12 C25 1_555 1_555
C26 C24 1_555 1_555
Tb12 O18 1_555 1_555
O34 Tb12 1_555 1_555
O36 Tb12 1_555 1_555
Tb8 O1 1_555 1_555
Tb10 O22 1_555 1_555
S2 O15 1_555 1_555
C5 C6 1_555 1_555
C8 C14 1_555 1_555
C10 C11 1_555 1_555
C12 C13 1_555 1_555
C16 C18 1_555 1_555
C24 C25 1_555 1_555
O6 H23 1_555 1_555
O42 Tb1 1_555 1_555
O44 Tb1 1_555 1_555
H13 C27 1_555 1_555
O30 H35 1_555 1_555
O28 H39 1_555 1_555
O10 Tb10 1_555 1_555
O12 Tb10 1_555 1_555
O19 Tb10 1_555 1_555
O20 C22 1_555 1_555
C21 C20 1_555 1_555
H10 C21 1_555 1_555
C22 O19 1_555 1_555
S3 O44 1_555 1_555
S4 O38 1_555 1_555
O42 C37 1_555 1_555
O27 C37 1_555 1_555
O31 S3 1_555 1_555
O33 S3 1_555 1_555
O48 C44 1_555 1_555
O40 S4 1_555 1_555
C31 C32 1_555 1_555
C32 S3 1_555 1_555
C33 C32 1_555 1_555
H15 C33 1_555 1_555
C34 C33 1_555 1_555
C35 C34 1_555 1_555
H16 C35 1_555 1_555
C36 C31 1_555 1_555
H17 C36 1_555 1_555
C37 C31 1_555 1_555
C38 C39 1_555 1_555
C39 S4 1_555 1_555
C40 C39 1_555 1_555
H18 C40 1_555 1_555
C41 C34 1_555 1_555
C42 C41 1_555 1_555
H19 C42 1_555 1_555
C43 C38 1_555 1_555
H20 C43 1_555 1_555
C44 O46 1_555 1_555
C20 C22 1_555 1_555
S4 O39 1_555 1_555
C35 C36 1_555 1_555
C38 C44 1_555 1_555
C40 C41 1_555 1_555
C42 C43 1_555 1_555
O6 H35_2 1_555 1_555
O4 H39_2 1_555 1_555
O30 H23_2 1_555 1_555

#END
