
###############################################################################
#
# This file contains modified crystal structure data generated from the
# MOF subset of the Cambridge Structural Database (CSD) v543 
# hosted by the Cambridge Crystallographic Data Centre (CCDC).
#
# This work is licensed under the Creative Commons
# Attribution-NonCommercial-ShareAlike 4.0 International License.
# To view a copy of this license, visit
# http://creativecommons.org/licenses/by-nc-sa/4.0/
# or send a letter to
# Creative Commons, PO Box 1866, Mountain View, CA 94042, USA.
#
# CIF created using the CSD Python API on 29 September 2022
# The structure has been converted into the P1 space group
# The structure has a 3D framework
# The original CSD entry JIJLIA is in the triclinic crystal system
# The framework has been calculated to contain at least 10.0% void space
# The void calculation uses a probe of radius 1.32A, grid spacing 0.4
#
###############################################################################

data_JIJLIA
_chemical_formula_moiety         '(C56 H28 O32 S4 Zn9)n'
_symmetry_cell_setting           triclinic
_symmetry_space_group_name_H-M   'P 1'
_symmetry_Int_Tables_number      1
_space_group_name_Hall           'P 1'
loop_
_symmetry_equiv_pos_site_id
_symmetry_equiv_pos_as_xyz
1 x,y,z
_cell_length_a                   8.2668(17)
_cell_length_b                   14.552(3)
_cell_length_c                   15.947(3)
_cell_angle_alpha                116.68(3)
_cell_angle_beta                 93.37(3)
_cell_angle_gamma                95.08(3)
_cell_volume                     1696.91
loop_
_atom_site_label
_atom_site_type_symbol
_atom_site_fract_x
_atom_site_fract_y
_atom_site_fract_z
O38 O 0.2979(4) 0.0746(3) 0.0032(2)
Zn1 Zn 0.5000 -0.0000 0.0000
Zn4 Zn 0.00985(8) 0.20405(5) 0.97837(4)
O2 O 0.0544(6) 0.1301(3) 0.8363(3)
C5 C 0.1537(7) 0.0447(4) 0.6901(4)
C7 C 0.1159(7) 0.0518(4) 0.7834(4)
C10 C 0.1328(8) 0.1268(4) 0.6703(4)
H4 H 0.0963 0.1856 0.7159
C11 C 0.3135(8) 0.0509(5) 0.2928(4)
H5 H 0.3101 0.0937 0.2637
C13 C 0.2617(7) 0.0166(4) 0.4227(4)
C17 C 0.1645(7) 0.1241(5) 0.5848(4)
H7 H 0.1502 0.1801 0.5731
C21 C 0.2178(7) 0.0360(4) 0.5175(4)
C22 C 0.2594(8) 0.0819(5) 0.3808(4)
H9 H 0.2218 0.1460 0.4115
Zn12 Zn 0.90203(8) 0.03894(5) 0.08603(4)
O36 O 0.6467(5) 0.1374(3) 0.1096(3)
O43 O 0.2280(5) 0.2857(3) 0.9984(3)
Zn1_2 Zn 0.5000 -0.0000 1.0000
Zn13 Zn 0.39090(8) 0.19880(5) 0.99154(4)
O33 O 0.5945(5) 0.0246(3) 0.8902(3)
O34 O 0.9924(5) 0.2820(3) 0.1209(3)
S4 S 0.7023(2) 0.59284(11) 0.45922(10)
O23 O 0.9278(5) 0.8325(3) 0.8324(3)
O25 O 0.8178(6) 0.6532(3) 0.4342(3)
O26 O 0.5385(6) 0.6170(4) 0.4637(3)
O27 O 0.5421(5) 0.2721(3) 0.1067(3)
C29 C 0.9441(7) 0.7420(5) 0.8197(4)
C30 C 0.8869(8) 0.6533(4) 0.7233(4)
C40 C 0.6183(7) 0.2305(4) 0.1484(4)
C43 C 0.7053(7) 0.4584(4) 0.3891(4)
C44 C 0.7627(7) 0.4143(4) 0.4438(4)
C46 C 0.8054(7) 0.4889(4) 0.5439(4)
C47 C 0.7307(8) 0.2519(4) 0.3052(4)
H22 H 0.7387 0.1812 0.2765
C48 C 0.6717(7) 0.2965(4) 0.2515(4)
C51 C 0.6586(7) 0.4011(4) 0.2934(4)
H24 H 0.6193 0.4323 0.2580
C52 C 0.8662(8) 0.4707(4) 0.6166(4)
H25 H 0.8794 0.4038 0.6063
C53 C 0.7808(7) 0.5899(4) 0.5634(4)
C54 C 0.7784(8) 0.3104(5) 0.4010(4)
H26 H 0.8208 0.2796 0.4360
C55 C 0.9072(8) 0.5541(5) 0.7053(4)
H27 H 0.9499 0.5422 0.7543
C56 C 0.8209(8) 0.6717(4) 0.6511(4)
H28 H 0.8043 0.7384 0.6623
S3 S 0.70089(19) 0.15046(11) 0.56140(10)
O17 O 0.8516(5) 0.0211(3) 0.1993(3)
O19 O 0.5468(5) 0.1763(3) 0.5393(3)
O20 O 0.8310(5) 0.2338(3) 0.6060(3)
O21 O 0.4800(5) 0.1495(3) 0.8725(3)
C31 C 0.5623(7) 0.0743(4) 0.8450(4)
C32 C 0.6268(7) 0.0442(4) 0.7524(4)
C34 C 0.7643(7) 0.0464(4) 0.4635(4)
C36 C 0.7942(7) 0.0436(4) 0.3779(4)
H17 H 0.7796 0.0998 0.3664
C37 C 0.6845(7) 0.0787(4) 0.6252(4)
C42 C 0.6261(7) 0.1105(4) 0.7119(4)
H20 H 0.5876 0.1743 0.7420
O14 O 0.0719(4) 0.9343(3) 0.0307(2)
O31 O 0.1554(5) 0.7251(4) 0.0593(3)
H15 H 0.2477 0.7640 0.0781
H16 H 0.1241 0.7139 0.1047
Zn1_3 Zn 0.5000 1.0000 0.0000
Zn2 Zn 0.09797(8) 0.96106(5) 0.91397(4)
Zn3 Zn 0.60910(8) 0.80120(5) 0.00846(4)
S1 S 0.29911(19) 0.84954(11) 0.43860(10)
O1 O 0.1484(5) 0.9789(3) 0.8007(3)
O3 O 0.4532(5) 0.8237(3) 0.4607(3)
O4 O 0.1690(5) 0.7662(3) 0.3940(3)
O5 O 0.5200(5) 0.8505(3) 0.1275(3)
O6 O 0.4055(5) 0.9754(3) 0.1098(3)
O15 O 0.7720(5) 0.7143(3) 0.0016(3)
C3 C 0.4377(7) 0.9257(4) 0.1550(4)
C4 C 0.3732(7) 0.9558(4) 0.2476(4)
C6 C 0.2357(7) 0.9536(4) 0.5365(4)
C8 C 0.2058(7) 0.9564(4) 0.6221(4)
H3 H 0.2204 0.9002 0.6336
C9 C 0.3155(7) 0.9213(4) 0.3748(4)
C14 C 0.3739(7) 0.8895(4) 0.2881(4)
H6 H 0.4124 0.8257 0.2580
O24 O 0.0076(5) 0.7180(3) 0.8791(3)
Zn17 Zn 0.99015(8) 0.79595(5) 0.02163(4)
Zn1_4 Zn 0.5000 1.0000 1.0000
S2 S 0.2977(2) 0.40716(11) 0.54078(10)
O7 O 0.0722(5) 0.1675(3) 0.1676(3)
O9 O 0.1822(6) 0.3468(3) 0.5658(3)
O10 O 0.4615(6) 0.3830(4) 0.5363(3)
O11 O 0.4579(5) 0.7279(3) 0.8933(3)
O12 O 0.3533(5) 0.8626(3) 0.8904(3)
C1 C 0.0559(7) 0.2580(5) 0.1803(4)
C2 C 0.1131(8) 0.3467(4) 0.2767(4)
C12 C 0.3817(7) 0.7695(4) 0.8516(4)
C15 C 0.2947(7) 0.5416(4) 0.6109(4)
C16 C 0.2373(7) 0.5857(4) 0.5562(4)
C18 C 0.1946(7) 0.5111(4) 0.4561(4)
C19 C 0.2693(8) 0.7481(4) 0.6948(4)
H8 H 0.2613 0.8188 0.7235
C20 C 0.3283(7) 0.7035(4) 0.7485(4)
C23 C 0.3414(7) 0.5989(4) 0.7066(4)
H10 H 0.3807 0.5677 0.7420
C24 C 0.1338(8) 0.5293(4) 0.3834(4)
H11 H 0.1206 0.5962 0.3937
C25 C 0.2192(7) 0.4101(4) 0.4366(4)
C26 C 0.2216(8) 0.6896(5) 0.5990(4)
H12 H 0.1792 0.7204 0.5640
C27 C 0.0928(8) 0.4459(5) 0.2947(4)
H13 H 0.0501 0.4578 0.2457
C28 C 0.1791(8) 0.3283(4) 0.3489(4)
H14 H 0.1957 0.2616 0.3377
O32 O 0.7021(4) 0.9254(3) 0.9968(2)
O18 O 0.9456(6) 0.8699(3) 0.1637(3)
C33 C 0.8463(7) 0.9553(4) 0.3099(4)
C35 C 0.8841(7) 0.9482(4) 0.2166(4)
C38 C 0.8672(8) 0.8732(4) 0.3297(4)
H18 H 0.9037 0.8144 0.2841
C39 C 0.6865(8) 0.9491(5) 0.7072(4)
H19 H 0.6899 0.9063 0.7363
C41 C 0.7383(7) 0.9834(4) 0.5773(4)
C45 C 0.8355(7) 0.8759(5) 0.4152(4)
H21 H 0.8498 0.8199 0.4269
C49 C 0.7822(7) 0.9640(4) 0.4825(4)
C50 C 0.7406(8) 0.9181(5) 0.6192(4)
H23 H 0.7782 0.8540 0.5885
O16 O 0.8446(5) 0.2749(4) 0.9407(3)
H1 H 0.7523 0.2360 0.9219
H2 H 0.8759 0.2861 0.8953
O41 O 0.9281(4) 0.0657(3) 0.9693(2)
loop_
_geom_bond_atom_site_label_1
_geom_bond_atom_site_label_2
_geom_bond_site_symmetry_1
_geom_bond_site_symmetry_2
Zn4 O2 1_555 1_555
O2 C7 1_555 1_555
O38 Zn1 1_555 1_555
C5 C7 1_555 1_555
C10 C5 1_555 1_555
H4 C10 1_555 1_555
C11 H5 1_555 1_555
C17 C10 1_555 1_555
H7 C17 1_555 1_555
C22 C11 1_555 1_555
H9 C22 1_555 1_555
O36 Zn1 1_555 1_555
O43 Zn4 1_555 1_555
C13 C21 1_555 1_555
C13 C22 1_555 1_555
C17 C21 1_555 1_555
O33 Zn1_2 1_555 1_555
S4 O25 1_555 1_555
O26 S4 1_555 1_555
O36 C40 1_555 1_555
C29 O23 1_555 1_555
C30 C29 1_555 1_555
C40 O27 1_555 1_555
C43 S4 1_555 1_555
C44 C43 1_555 1_555
C46 C44 1_555 1_555
C47 H22 1_555 1_555
C48 C40 1_555 1_555
C51 C43 1_555 1_555
H24 C51 1_555 1_555
C52 C46 1_555 1_555
H25 C52 1_555 1_555
C53 S4 1_555 1_555
C54 C44 1_555 1_555
H26 C54 1_555 1_555
C55 C30 1_555 1_555
H27 C55 1_555 1_555
C56 C30 1_555 1_555
H28 C56 1_555 1_555
C46 C53 1_555 1_555
C47 C48 1_555 1_555
C47 C54 1_555 1_555
C48 C51 1_555 1_555
C52 C55 1_555 1_555
C53 C56 1_555 1_555
Zn13 O21 1_555 1_555
S3 O19 1_555 1_555
O17 Zn12 1_555 1_555
O20 S3 1_555 1_555
O21 C31 1_555 1_555
O33 C31 1_555 1_555
O43 Zn13 1_555 1_555
C31 C32 1_555 1_555
C34 S3 1_555 1_555
H17 C36 1_555 1_555
C37 S3 1_555 1_555
C42 C32 1_555 1_555
H20 C42 1_555 1_555
C34 C36 1_555 1_555
C37 C42 1_555 1_555
H15 O31 1_555 1_555
H16 O31 1_555 1_555
Zn1_3 O6 1_555 1_555
Zn2 O1 1_555 1_555
Zn3 O5 1_555 1_555
S1 O3 1_555 1_555
O4 S1 1_555 1_555
O5 C3 1_555 1_555
O6 C3 1_555 1_555
O15 Zn3 1_555 1_555
C3 C4 1_555 1_555
C6 S1 1_555 1_555
H3 C8 1_555 1_555
C9 S1 1_555 1_555
C14 C4 1_555 1_555
H6 C14 1_555 1_555
Zn17 O15 1_555 1_555
C6 C8 1_555 1_555
C9 C14 1_555 1_555
S2 O9 1_555 1_555
O7 C1 1_555 1_555
O10 S2 1_555 1_555
O12 Zn1_4 1_555 1_555
C1 C2 1_555 1_555
C2 C27 1_555 1_555
C12 O11 1_555 1_555
C15 S2 1_555 1_555
C16 C15 1_555 1_555
C18 C16 1_555 1_555
C19 H8 1_555 1_555
C20 C12 1_555 1_555
C23 C15 1_555 1_555
H10 C23 1_555 1_555
C24 C18 1_555 1_555
H11 C24 1_555 1_555
C25 S2 1_555 1_555
C26 C16 1_555 1_555
H12 C26 1_555 1_555
C27 C24 1_555 1_555
H13 C27 1_555 1_555
C28 C2 1_555 1_555
H14 C28 1_555 1_555
O32 Zn1_4 1_555 1_555
O12 C12 1_555 1_555
C18 C25 1_555 1_555
C19 C20 1_555 1_555
C19 C26 1_555 1_555
C20 C23 1_555 1_555
C25 C28 1_555 1_555
Zn17 O18 1_555 1_555
O18 C35 1_555 1_555
C33 C35 1_555 1_555
C38 C33 1_555 1_555
H18 C38 1_555 1_555
C39 H19 1_555 1_555
C45 C38 1_555 1_555
H21 C45 1_555 1_555
C50 C39 1_555 1_555
H23 C50 1_555 1_555
C41 C49 1_555 1_555
C41 C50 1_555 1_555
C45 C49 1_555 1_555
H1 O16 1_555 1_555
H2 O16 1_555 1_555

#END
