
###############################################################################
#
# This file contains modified crystal structure data generated from the
# MOF subset of the Cambridge Structural Database (CSD) v543 
# hosted by the Cambridge Crystallographic Data Centre (CCDC).
#
# This work is licensed under the Creative Commons
# Attribution-NonCommercial-ShareAlike 4.0 International License.
# To view a copy of this license, visit
# http://creativecommons.org/licenses/by-nc-sa/4.0/
# or send a letter to
# Creative Commons, PO Box 1866, Mountain View, CA 94042, USA.
#
# CIF created using the CSD Python API on 29 September 2022
# The structure has been converted into the P1 space group
# The structure has a 3D framework
# The original CSD entry JIQCUK is in the monoclinic crystal system
# The framework has been calculated to contain at least 10.0% void space
# The void calculation uses a probe of radius 1.32A, grid spacing 0.4
# The framework is charged, counterions have been retained in the structure
#
###############################################################################

data_JIQCUK
_chemical_formula_moiety         '(C128 H112 N60 Zn6)n'
_symmetry_cell_setting           triclinic
_symmetry_space_group_name_H-M   'P 1'
_symmetry_Int_Tables_number      1
_space_group_name_Hall           'P 1'
loop_
_symmetry_equiv_pos_site_id
_symmetry_equiv_pos_as_xyz
1 x,y,z
_cell_length_a                   18.909(5)
_cell_length_b                   24.745(5)
_cell_length_c                   8.658(5)
_cell_angle_alpha                90
_cell_angle_beta                 94.118(5)
_cell_angle_gamma                90
_cell_volume                     4040.65
loop_
_atom_site_label
_atom_site_type_symbol
_atom_site_fract_x
_atom_site_fract_y
_atom_site_fract_z
C15 C 0.0058(3) 0.1732(2) 0.1171(5)
N6 N -0.0000 0.1462(3) 0.2500
Zn2 Zn -0.0000 0.19000(2) 0.7500
C1 C 0.08184(19) 0.29450(13) 0.8398(4)
H1 H 0.0501 0.2951 0.9171
C2 C 0.1289(2) 0.33624(13) 0.8322(4)
H2 H 0.1284 0.3647 0.9022
C3 C 0.1779(2) 0.33581(13) 0.7185(4)
C4 C 0.1741(2) 0.29315(16) 0.6167(5)
H3 H 0.2048 0.2914 0.5376
C5 C 0.1248(2) 0.25296(14) 0.6320(4)
H4 H 0.1235 0.2244 0.5619
C6 C 0.2312(2) 0.37965(16) 0.7072(5)
C7 C 0.2943(3) 0.3691(2) 0.6173(9)
H5 H 0.2902 0.3338 0.5712
H6 H 0.2966 0.3958 0.5375
H7 H 0.3366 0.3708 0.6854
C8 C 0.2537(2) 0.50810(15) 0.7272(5)
C9 C 0.1805(3) 0.5213(2) 0.6597(8)
H8 H 0.1788 0.5583 0.6268
H9 H 0.1687 0.4982 0.5724
H10 H 0.1471 0.5157 0.7366
C10 C 0.3102(2) 0.54963(14) 0.7360(4)
C11 C 0.3038(2) 0.59702(15) 0.6511(5)
H11 H 0.2628 0.6037 0.5882
C12 C 0.3574(2) 0.63399(14) 0.6593(5)
H12 H 0.3522 0.6649 0.5983
C13 C 0.4220(2) 0.58261(13) 0.8358(4)
H13 H 0.4626 0.5776 0.9016
C14 C 0.3715(2) 0.54379(14) 0.8313(5)
H14 H 0.3781 0.5131 0.8925
N1 N 0.07927(14) 0.25280(10) 0.7411(3)
N2 N 0.22026(18) 0.42233(12) 0.7818(4)
N3 N 0.27259(19) 0.46191(13) 0.7810(4)
N4 N 0.41695(16) 0.62802(10) 0.7507(3)
N5 N 0.01113(19) 0.18675(12) 0.9975(4)
N13 N 0.08305(16) 0.12802(10) 0.7493(3)
Zn4 Zn 0.5000 0.69000(2) 0.7500
N6_2 N 1.0000 0.1462(3) 0.2500
C16 C 0.9942(3) 0.1732(2) 0.3829(5)
N7 N 0.98887(19) 0.18675(12) 0.5025(4)
Zn2_2 Zn 1.0000 0.19000(2) 0.7500
C17 C 0.91816(19) 0.29450(13) 0.6602(4)
H15 H 0.9499 0.2951 0.5829
C18 C 0.8711(2) 0.33624(13) 0.6678(4)
H16 H 0.8716 0.3647 0.5978
C19 C 0.8221(2) 0.33581(13) 0.7815(4)
C20 C 0.8259(2) 0.29315(16) 0.8833(5)
H17 H 0.7952 0.2914 0.9624
C21 C 0.8752(2) 0.25296(14) 0.8680(4)
H18 H 0.8765 0.2244 0.9381
C22 C 0.7688(2) 0.37965(16) 0.7928(5)
C23 C 0.7057(3) 0.3691(2) 0.8827(9)
H19 H 0.7098 0.3338 0.9288
H20 H 0.7034 0.3958 0.9625
H21 H 0.6634 0.3708 0.8146
C24 C 0.7463(2) 0.50810(15) 0.7728(5)
C25 C 0.8195(3) 0.5213(2) 0.8403(8)
H22 H 0.8212 0.5583 0.8732
H23 H 0.8313 0.4982 0.9276
H24 H 0.8529 0.5157 0.7634
C26 C 0.6898(2) 0.54963(14) 0.7640(4)
C27 C 0.6962(2) 0.59702(15) 0.8489(5)
H25 H 0.7372 0.6037 0.9118
C28 C 0.6426(2) 0.63399(14) 0.8407(5)
H26 H 0.6478 0.6649 0.9017
C29 C 0.5780(2) 0.58261(13) 0.6642(4)
H27 H 0.5374 0.5776 0.5984
C30 C 0.6285(2) 0.54379(14) 0.6687(5)
H28 H 0.6219 0.5131 0.6075
N8 N 0.92073(14) 0.25280(10) 0.7589(3)
N9 N 0.77974(18) 0.42233(12) 0.7182(4)
N10 N 0.72741(19) 0.46191(13) 0.7190(4)
N11 N 0.58305(16) 0.62802(10) 0.7493(3)
N12 N 0.91695(16) 0.12802(10) 0.7507(3)
C8_2 C 0.7537(2) 0.00810(15) 0.7272(5)
C9_2 C 0.6805(3) 0.0213(2) 0.6597(8)
H8_2 H 0.6788 0.0583 0.6268
H10_2 H 0.6471 0.0157 0.7366
C10_2 C 0.8102(2) 0.04963(14) 0.7360(4)
C11_2 C 0.8038(2) 0.09702(15) 0.6511(5)
H11_2 H 0.7628 0.1037 0.5882
C12_2 C 0.8574(2) 0.13399(14) 0.6593(5)
H12_2 H 0.8522 0.1649 0.5983
C13_2 C 0.9220(2) 0.08261(13) 0.8358(4)
H13_2 H 0.9626 0.0776 0.9016
C14_2 C 0.8715(2) 0.04379(14) 0.8313(5)
H14_2 H 0.8781 0.0131 0.8925
C24_2 C 0.2463(2) 0.00810(15) 0.7728(5)
C25_2 C 0.3195(3) 0.0213(2) 0.8403(8)
H22_2 H 0.3212 0.0583 0.8732
H24_2 H 0.3529 0.0157 0.7634
C26_2 C 0.1898(2) 0.04963(14) 0.7640(4)
C27_2 C 0.1962(2) 0.09702(15) 0.8489(5)
H25_2 H 0.2372 0.1037 0.9118
C28_2 C 0.1426(2) 0.13399(14) 0.8407(5)
H26_2 H 0.1478 0.1649 0.9017
C29_2 C 0.0780(2) 0.08261(13) 0.6642(4)
H27_2 H 0.0374 0.0776 0.5984
C30_2 C 0.1285(2) 0.04379(14) 0.6687(5)
H28_2 H 0.1219 0.0131 0.6075
C15_2 C 0.5058(3) 0.6732(2) 0.1171(5)
N6_3 N 0.5000 0.6462(3) 0.2500
C16_2 C 0.4942(3) 0.6732(2) 0.3829(5)
N7_2 N 0.48887(19) 0.68675(12) 0.5025(4)
C1_2 C 0.58184(19) 0.79450(13) 0.8398(4)
H1_2 H 0.5501 0.7951 0.9171
C2_2 C 0.6289(2) 0.83624(13) 0.8322(4)
H2_2 H 0.6284 0.8647 0.9022
C3_2 C 0.6779(2) 0.83581(13) 0.7185(4)
C4_2 C 0.6741(2) 0.79315(16) 0.6167(5)
H3_2 H 0.7048 0.7914 0.5376
C5_2 C 0.6248(2) 0.75296(14) 0.6320(4)
H4_2 H 0.6235 0.7244 0.5619
C6_2 C 0.7312(2) 0.87965(16) 0.7072(5)
C7_2 C 0.7943(3) 0.8691(2) 0.6173(9)
H5_2 H 0.7902 0.8338 0.5712
H6_2 H 0.7966 0.8958 0.5375
H7_2 H 0.8366 0.8708 0.6854
H9_2 H 0.6687 0.9982 0.5724
N1_2 N 0.57927(14) 0.75280(10) 0.7411(3)
N2_2 N 0.72026(18) 0.92233(12) 0.7818(4)
N3_2 N 0.77259(19) 0.96191(13) 0.7810(4)
N5_2 N 0.51113(19) 0.68675(12) 0.9975(4)
C17_2 C 0.41816(19) 0.79450(13) 0.6602(4)
H15_2 H 0.4499 0.7951 0.5829
C18_2 C 0.3711(2) 0.83624(13) 0.6678(4)
H16_2 H 0.3716 0.8647 0.5978
C19_2 C 0.3221(2) 0.83581(13) 0.7815(4)
C20_2 C 0.3259(2) 0.79315(16) 0.8833(5)
H17_2 H 0.2952 0.7914 0.9624
C21_2 C 0.3752(2) 0.75296(14) 0.8680(4)
H18_2 H 0.3765 0.7244 0.9381
C22_2 C 0.2688(2) 0.87965(16) 0.7928(5)
C23_2 C 0.2057(3) 0.8691(2) 0.8827(9)
H19_2 H 0.2098 0.8338 0.9288
H20_2 H 0.2034 0.8958 0.9625
H21_2 H 0.1634 0.8708 0.8146
H23_2 H 0.3313 0.9982 0.9276
N8_2 N 0.42073(14) 0.75280(10) 0.7589(3)
N9_2 N 0.27974(18) 0.92233(12) 0.7182(4)
N10_2 N 0.22741(19) 0.96191(13) 0.7190(4)
Zn1 Zn 0.0000 0.81000(2) 0.2500
C17_3 C 0.08184(19) 0.70550(13) 0.3398(4)
H15_3 H 0.0501 0.7049 0.4171
C18_3 C 0.1289(2) 0.66376(13) 0.3322(4)
H16_3 H 0.1284 0.6353 0.4022
C19_3 C 0.1779(2) 0.66419(13) 0.2185(4)
C20_3 C 0.1741(2) 0.70685(16) 0.1167(5)
H17_3 H 0.2048 0.7086 0.0376
C21_3 C 0.1248(2) 0.74704(14) 0.1320(4)
H18_3 H 0.1235 0.7756 0.0619
C22_3 C 0.2312(2) 0.62035(16) 0.2072(5)
C23_3 C 0.2943(3) 0.6309(2) 0.1173(9)
H19_3 H 0.2902 0.6662 0.0712
H20_3 H 0.2966 0.6042 0.0375
H21_3 H 0.3366 0.6292 0.1854
C24_3 C 0.2537(2) 0.49190(15) 0.2272(5)
C25_3 C 0.1805(3) 0.4787(2) 0.1597(8)
H22_3 H 0.1788 0.4417 0.1268
H23_3 H 0.1687 0.5018 0.0724
H24_3 H 0.1471 0.4843 0.2366
C26_3 C 0.3102(2) 0.45037(14) 0.2360(4)
C27_3 C 0.3038(2) 0.40298(15) 0.1511(5)
H25_3 H 0.2628 0.3963 0.0882
C28_3 C 0.3574(2) 0.36601(14) 0.1593(5)
H26_3 H 0.3522 0.3351 0.0983
C29_3 C 0.4220(2) 0.41739(13) 0.3358(4)
H27_3 H 0.4626 0.4224 0.4016
C30_3 C 0.3715(2) 0.45621(14) 0.3313(5)
H28_3 H 0.3781 0.4869 0.3925
N8_3 N 0.07927(14) 0.74720(10) 0.2411(3)
N9_3 N 0.22026(18) 0.57767(12) 0.2818(4)
N10_3 N 0.27259(19) 0.53809(13) 0.2810(4)
N11_2 N 0.41695(16) 0.37198(10) 0.2507(3)
N12_2 N 0.08305(16) 0.87198(10) 0.2493(3)
N14 N 0.01113(19) 0.81325(12) 0.4975(4)
Zn3 Zn 0.5000 0.31000(2) 0.2500
N6_4 N -0.0000 0.8538(3) 0.7500
C16_3 C 0.0058(3) 0.8268(2) 0.6171(5)
C1_3 C 0.91816(19) 0.70550(13) 0.1602(4)
H1_3 H 0.9499 0.7049 0.0829
C2_3 C 0.8711(2) 0.66376(13) 0.1678(4)
H2_3 H 0.8716 0.6353 0.0978
C3_3 C 0.8221(2) 0.66419(13) 0.2815(4)
C4_3 C 0.8259(2) 0.70685(16) 0.3833(5)
H3_3 H 0.7952 0.7086 0.4624
C5_3 C 0.8752(2) 0.74704(14) 0.3680(4)
H4_3 H 0.8765 0.7756 0.4381
C6_3 C 0.7688(2) 0.62035(16) 0.2928(5)
C7_3 C 0.7057(3) 0.6309(2) 0.3827(9)
H5_3 H 0.7098 0.6662 0.4288
H6_3 H 0.7034 0.6042 0.4625
H7_3 H 0.6634 0.6292 0.3146
C8_3 C 0.7463(2) 0.49190(15) 0.2728(5)
C9_3 C 0.8195(3) 0.4787(2) 0.3403(8)
H8_3 H 0.8212 0.4417 0.3732
H9_3 H 0.8313 0.5018 0.4276
H10_3 H 0.8529 0.4843 0.2634
C10_3 C 0.6898(2) 0.45037(14) 0.2640(4)
C11_3 C 0.6962(2) 0.40298(15) 0.3489(5)
H11_3 H 0.7372 0.3963 0.4118
C12_3 C 0.6426(2) 0.36601(14) 0.3407(5)
H12_3 H 0.6478 0.3351 0.4017
C13_3 C 0.5780(2) 0.41739(13) 0.1642(4)
H13_3 H 0.5374 0.4224 0.0984
C14_3 C 0.6285(2) 0.45621(14) 0.1687(5)
H14_3 H 0.6219 0.4869 0.1075
N1_3 N 0.92073(14) 0.74720(10) 0.2589(3)
N2_3 N 0.77974(18) 0.57767(12) 0.2182(4)
N3_3 N 0.72741(19) 0.53809(13) 0.2190(4)
N4_2 N 0.58305(16) 0.37198(10) 0.2493(3)
N5_3 N 0.98887(19) 0.81325(12) 0.0025(4)
Zn1_2 Zn 1.0000 0.81000(2) 0.2500
N13_2 N 0.91695(16) 0.87198(10) 0.2507(3)
C15_3 C 0.9942(3) 0.8268(2) 0.8829(5)
N6_5 N 1.0000 0.8538(3) 0.7500
C1_4 C 0.41816(19) 0.20550(13) 0.1602(4)
H1_4 H 0.4499 0.2049 0.0829
C2_4 C 0.3711(2) 0.16376(13) 0.1678(4)
H2_4 H 0.3716 0.1353 0.0978
C3_4 C 0.3221(2) 0.16419(13) 0.2815(4)
C4_4 C 0.3259(2) 0.20685(16) 0.3833(5)
H3_4 H 0.2952 0.2086 0.4624
C5_4 C 0.3752(2) 0.24704(14) 0.3680(4)
H4_4 H 0.3765 0.2756 0.4381
C6_4 C 0.2688(2) 0.12035(16) 0.2928(5)
C7_4 C 0.2057(3) 0.1309(2) 0.3827(9)
H5_4 H 0.2098 0.1662 0.4288
H6_4 H 0.2034 0.1042 0.4625
H7_4 H 0.1634 0.1292 0.3146
H9_4 H 0.3313 0.0018 0.4276
N1_4 N 0.42073(14) 0.24720(10) 0.2589(3)
N2_4 N 0.27974(18) 0.07767(12) 0.2182(4)
N3_4 N 0.22741(19) 0.03809(13) 0.2190(4)
N5_4 N 0.48887(19) 0.31325(12) 0.0025(4)
C17_4 C 0.58184(19) 0.20550(13) 0.3398(4)
H15_4 H 0.5501 0.2049 0.4171
C18_4 C 0.6289(2) 0.16376(13) 0.3322(4)
H16_4 H 0.6284 0.1353 0.4022
C19_4 C 0.6779(2) 0.16419(13) 0.2185(4)
C20_4 C 0.6741(2) 0.20685(16) 0.1167(5)
H17_4 H 0.7048 0.2086 0.0376
C21_4 C 0.6248(2) 0.24704(14) 0.1320(4)
H18_4 H 0.6235 0.2756 0.0619
C22_4 C 0.7312(2) 0.12035(16) 0.2072(5)
C23_4 C 0.7943(3) 0.1309(2) 0.1173(9)
H19_4 H 0.7902 0.1662 0.0712
H20_4 H 0.7966 0.1042 0.0375
H21_4 H 0.8366 0.1292 0.1854
H23_4 H 0.6687 0.0018 0.0724
N8_4 N 0.57927(14) 0.24720(10) 0.2411(3)
N9_4 N 0.72026(18) 0.07767(12) 0.2818(4)
N10_4 N 0.77259(19) 0.03809(13) 0.2810(4)
N14_2 N 0.51113(19) 0.31325(12) 0.4975(4)
C15_4 C 0.4942(3) 0.3268(2) 0.8829(5)
N6_6 N 0.5000 0.3538(3) 0.7500
C16_4 C 0.5058(3) 0.3268(2) 0.6171(5)
C8_4 C 0.2463(2) 0.99190(15) 0.2728(5)
C9_4 C 0.3195(3) 0.9787(2) 0.3403(8)
H8_4 H 0.3212 0.9417 0.3732
H10_4 H 0.3529 0.9843 0.2634
C10_4 C 0.1898(2) 0.95037(14) 0.2640(4)
C11_4 C 0.1962(2) 0.90298(15) 0.3489(5)
H11_4 H 0.2372 0.8963 0.4118
C12_4 C 0.1426(2) 0.86601(14) 0.3407(5)
H12_4 H 0.1478 0.8351 0.4017
C13_4 C 0.0780(2) 0.91739(13) 0.1642(4)
H13_4 H 0.0374 0.9224 0.0984
C14_4 C 0.1285(2) 0.95621(14) 0.1687(5)
H14_4 H 0.1219 0.9869 0.1075
C24_4 C 0.7537(2) 0.99190(15) 0.2272(5)
C25_4 C 0.6805(3) 0.9787(2) 0.1597(8)
H22_4 H 0.6788 0.9417 0.1268
H24_4 H 0.6471 0.9843 0.2366
C26_4 C 0.8102(2) 0.95037(14) 0.2360(4)
C27_4 C 0.8038(2) 0.90298(15) 0.1511(5)
H25_4 H 0.7628 0.8963 0.0882
C28_4 C 0.8574(2) 0.86601(14) 0.1593(5)
H26_4 H 0.8522 0.8351 0.0983
C29_4 C 0.9220(2) 0.91739(13) 0.3358(4)
H27_4 H 0.9626 0.9224 0.4016
C30_4 C 0.8715(2) 0.95621(14) 0.3313(5)
H28_4 H 0.8781 0.9869 0.3925
C31 C 0.8044(9) 0.2630(5) 0.345(2)
N15 N 0.7500 0.2500 0.5000
N16 N 0.8374(8) 0.2907(5) 0.2633(8)
C32 C 0.6956(9) 0.2370(5) 0.655(2)
N17 N 0.6626(8) 0.2093(5) 0.7367(8)
C31_2 C 0.1956(9) 0.2630(5) 0.155(2)
N15_2 N 0.2500 0.2500 0.0000
N16_2 N 0.1626(8) 0.2907(5) 0.2367(8)
N15_3 N 0.2500 0.2500 1.0000
C32_2 C 0.3044(9) 0.2370(5) 0.845(2)
N17_2 N 0.3374(8) 0.2093(5) 0.7633(8)
C31_3 C 0.3044(9) 0.7630(5) 0.345(2)
N15_4 N 0.2500 0.7500 0.5000
N16_3 N 0.3374(8) 0.7907(5) 0.2633(8)
C32_3 C 0.1956(9) 0.7370(5) 0.655(2)
N17_3 N 0.1626(8) 0.7093(5) 0.7367(8)
C31_4 C 0.6956(9) 0.7630(5) 0.155(2)
N15_5 N 0.7500 0.7500 0.0000
N16_4 N 0.6626(8) 0.7907(5) 0.2367(8)
N15_6 N 0.7500 0.7500 1.0000
C32_4 C 0.8044(9) 0.7370(5) 0.845(2)
N17_4 N 0.8374(8) 0.7093(5) 0.7633(8)
loop_
_geom_bond_atom_site_label_1
_geom_bond_atom_site_label_2
_geom_bond_site_symmetry_1
_geom_bond_site_symmetry_2
N6 C15 1_555 1_555
C1 H1 1_555 1_555
C2 C1 1_555 1_555
H2 C2 1_555 1_555
C3 C2 1_555 1_555
C4 C3 1_555 1_555
H3 C4 1_555 1_555
C5 C4 1_555 1_555
H4 C5 1_555 1_555
C6 C3 1_555 1_555
C7 C6 1_555 1_555
H5 C7 1_555 1_555
H6 C7 1_555 1_555
H7 C7 1_555 1_555
C8 C9 1_555 1_555
C9 H8 1_555 1_555
H9 C9 1_555 1_555
H10 C9 1_555 1_555
C10 C8 1_555 1_555
C11 C10 1_555 1_555
H11 C11 1_555 1_555
C12 C11 1_555 1_555
H12 C12 1_555 1_555
C13 H13 1_555 1_555
C14 C10 1_555 1_555
H14 C14 1_555 1_555
N1 C1 1_555 1_555
N2 C6 1_555 1_555
N3 C8 1_555 1_555
N4 C12 1_555 1_555
N5 Zn2 1_555 1_555
Zn2 N1 1_555 1_555
N13 Zn2 1_555 1_555
Zn4 N4 1_555 1_555
C5 N1 1_555 1_555
C13 C14 1_555 1_555
C13 N4 1_555 1_555
N2 N3 1_555 1_555
C16 N6_2 1_555 1_555
N7 C16 1_555 1_555
Zn2_2 N7 1_555 1_555
C17 H15 1_555 1_555
C18 C17 1_555 1_555
H16 C18 1_555 1_555
C19 C18 1_555 1_555
C20 C19 1_555 1_555
H17 C20 1_555 1_555
C21 C20 1_555 1_555
H18 C21 1_555 1_555
C22 C19 1_555 1_555
C23 C22 1_555 1_555
H19 C23 1_555 1_555
H20 C23 1_555 1_555
H21 C23 1_555 1_555
C24 C25 1_555 1_555
C25 H22 1_555 1_555
H23 C25 1_555 1_555
H24 C25 1_555 1_555
C26 C24 1_555 1_555
C27 C26 1_555 1_555
H25 C27 1_555 1_555
C28 C27 1_555 1_555
H26 C28 1_555 1_555
C29 H27 1_555 1_555
C30 C26 1_555 1_555
H28 C30 1_555 1_555
N8 Zn2_2 1_555 1_555
N9 C22 1_555 1_555
N10 C24 1_555 1_555
N11 C28 1_555 1_555
N12 Zn2_2 1_555 1_555
Zn4 N11 1_555 1_555
C17 N8 1_555 1_555
C21 N8 1_555 1_555
C29 C30 1_555 1_555
C29 N11 1_555 1_555
N9 N10 1_555 1_555
C8_2 C9_2 1_555 1_555
C9_2 H8_2 1_555 1_555
H10_2 C9_2 1_555 1_555
C10_2 C8_2 1_555 1_555
C11_2 C10_2 1_555 1_555
H11_2 C11_2 1_555 1_555
C12_2 C11_2 1_555 1_555
H12_2 C12_2 1_555 1_555
C13_2 H13_2 1_555 1_555
C14_2 C10_2 1_555 1_555
H14_2 C14_2 1_555 1_555
N12 C12_2 1_555 1_555
C24_2 C25_2 1_555 1_555
C25_2 H22_2 1_555 1_555
H24_2 C25_2 1_555 1_555
C26_2 C24_2 1_555 1_555
C27_2 C26_2 1_555 1_555
H25_2 C27_2 1_555 1_555
C28_2 C27_2 1_555 1_555
H26_2 C28_2 1_555 1_555
C29_2 H27_2 1_555 1_555
C30_2 C26_2 1_555 1_555
H28_2 C30_2 1_555 1_555
N13 C28_2 1_555 1_555
C13_2 C14_2 1_555 1_555
C13_2 N12 1_555 1_555
C29_2 C30_2 1_555 1_555
C29_2 N13 1_555 1_555
N6_3 C15_2 1_555 1_555
C16_2 N6_3 1_555 1_555
N7_2 C16_2 1_555 1_555
Zn4 N7_2 1_555 1_555
C1_2 H1_2 1_555 1_555
C2_2 C1_2 1_555 1_555
H2_2 C2_2 1_555 1_555
C3_2 C2_2 1_555 1_555
C4_2 C3_2 1_555 1_555
H3_2 C4_2 1_555 1_555
C5_2 C4_2 1_555 1_555
H4_2 C5_2 1_555 1_555
C6_2 C3_2 1_555 1_555
C7_2 C6_2 1_555 1_555
H5_2 C7_2 1_555 1_555
H6_2 C7_2 1_555 1_555
H7_2 C7_2 1_555 1_555
N1_2 C1_2 1_555 1_555
N2_2 C6_2 1_555 1_555
N5_2 Zn4 1_555 1_555
Zn4 N1_2 1_555 1_555
C17_2 H15_2 1_555 1_555
C18_2 C17_2 1_555 1_555
H16_2 C18_2 1_555 1_555
C19_2 C18_2 1_555 1_555
C20_2 C19_2 1_555 1_555
H17_2 C20_2 1_555 1_555
C21_2 C20_2 1_555 1_555
H18_2 C21_2 1_555 1_555
C22_2 C19_2 1_555 1_555
C23_2 C22_2 1_555 1_555
H19_2 C23_2 1_555 1_555
H20_2 C23_2 1_555 1_555
H21_2 C23_2 1_555 1_555
N8_2 Zn4 1_555 1_555
N9_2 C22_2 1_555 1_555
C5_2 N1_2 1_555 1_555
N2_2 N3_2 1_555 1_555
C17_2 N8_2 1_555 1_555
C21_2 N8_2 1_555 1_555
N9_2 N10_2 1_555 1_555
C17_3 H15_3 1_555 1_555
C18_3 C17_3 1_555 1_555
H16_3 C18_3 1_555 1_555
C19_3 C18_3 1_555 1_555
C20_3 C19_3 1_555 1_555
H17_3 C20_3 1_555 1_555
C21_3 C20_3 1_555 1_555
H18_3 C21_3 1_555 1_555
C22_3 C19_3 1_555 1_555
C23_3 C22_3 1_555 1_555
H19_3 C23_3 1_555 1_555
H20_3 C23_3 1_555 1_555
H21_3 C23_3 1_555 1_555
C24_3 C25_3 1_555 1_555
C25_3 H22_3 1_555 1_555
H23_3 C25_3 1_555 1_555
H24_3 C25_3 1_555 1_555
C26_3 C24_3 1_555 1_555
C27_3 C26_3 1_555 1_555
H25_3 C27_3 1_555 1_555
C28_3 C27_3 1_555 1_555
H26_3 C28_3 1_555 1_555
C29_3 H27_3 1_555 1_555
C30_3 C26_3 1_555 1_555
H28_3 C30_3 1_555 1_555
N8_3 Zn1 1_555 1_555
N9_3 C22_3 1_555 1_555
N10_3 C24_3 1_555 1_555
N11_2 C28_3 1_555 1_555
N12_2 Zn1 1_555 1_555
N14 Zn1 1_555 1_555
Zn3 N11_2 1_555 1_555
C17_3 N8_3 1_555 1_555
C21_3 N8_3 1_555 1_555
C29_3 C30_3 1_555 1_555
C29_3 N11_2 1_555 1_555
N9_3 N10_3 1_555 1_555
C16_3 N6_4 1_555 1_555
N14 C16_3 1_555 1_555
C1_3 H1_3 1_555 1_555
C2_3 C1_3 1_555 1_555
H2_3 C2_3 1_555 1_555
C3_3 C2_3 1_555 1_555
C4_3 C3_3 1_555 1_555
H3_3 C4_3 1_555 1_555
C5_3 C4_3 1_555 1_555
H4_3 C5_3 1_555 1_555
C6_3 C3_3 1_555 1_555
C7_3 C6_3 1_555 1_555
H5_3 C7_3 1_555 1_555
H6_3 C7_3 1_555 1_555
H7_3 C7_3 1_555 1_555
C8_3 C9_3 1_555 1_555
C9_3 H8_3 1_555 1_555
H9_3 C9_3 1_555 1_555
H10_3 C9_3 1_555 1_555
C10_3 C8_3 1_555 1_555
C11_3 C10_3 1_555 1_555
H11_3 C11_3 1_555 1_555
C12_3 C11_3 1_555 1_555
H12_3 C12_3 1_555 1_555
C13_3 H13_3 1_555 1_555
C14_3 C10_3 1_555 1_555
H14_3 C14_3 1_555 1_555
N1_3 C1_3 1_555 1_555
N2_3 C6_3 1_555 1_555
N3_3 C8_3 1_555 1_555
N4_2 C12_3 1_555 1_555
N5_3 Zn1_2 1_555 1_555
Zn1_2 N1_3 1_555 1_555
N13_2 Zn1_2 1_555 1_555
Zn3 N4_2 1_555 1_555
C5_3 N1_3 1_555 1_555
C13_3 C14_3 1_555 1_555
C13_3 N4_2 1_555 1_555
N2_3 N3_3 1_555 1_555
N6_5 C15_3 1_555 1_555
C1_4 H1_4 1_555 1_555
C2_4 C1_4 1_555 1_555
H2_4 C2_4 1_555 1_555
C3_4 C2_4 1_555 1_555
C4_4 C3_4 1_555 1_555
H3_4 C4_4 1_555 1_555
C5_4 C4_4 1_555 1_555
H4_4 C5_4 1_555 1_555
C6_4 C3_4 1_555 1_555
C7_4 C6_4 1_555 1_555
H5_4 C7_4 1_555 1_555
H6_4 C7_4 1_555 1_555
H7_4 C7_4 1_555 1_555
N1_4 C1_4 1_555 1_555
N2_4 C6_4 1_555 1_555
N5_4 Zn3 1_555 1_555
Zn3 N1_4 1_555 1_555
C17_4 H15_4 1_555 1_555
C18_4 C17_4 1_555 1_555
H16_4 C18_4 1_555 1_555
C19_4 C18_4 1_555 1_555
C20_4 C19_4 1_555 1_555
H17_4 C20_4 1_555 1_555
C21_4 C20_4 1_555 1_555
H18_4 C21_4 1_555 1_555
C22_4 C19_4 1_555 1_555
C23_4 C22_4 1_555 1_555
H19_4 C23_4 1_555 1_555
H20_4 C23_4 1_555 1_555
H21_4 C23_4 1_555 1_555
N8_4 Zn3 1_555 1_555
N9_4 C22_4 1_555 1_555
N14_2 Zn3 1_555 1_555
C5_4 N1_4 1_555 1_555
N2_4 N3_4 1_555 1_555
C17_4 N8_4 1_555 1_555
C21_4 N8_4 1_555 1_555
N9_4 N10_4 1_555 1_555
N6_6 C15_4 1_555 1_555
C16_4 N6_6 1_555 1_555
N14_2 C16_4 1_555 1_555
C8_4 C9_4 1_555 1_555
C9_4 H8_4 1_555 1_555
H10_4 C9_4 1_555 1_555
C10_4 C8_4 1_555 1_555
C11_4 C10_4 1_555 1_555
H11_4 C11_4 1_555 1_555
C12_4 C11_4 1_555 1_555
H12_4 C12_4 1_555 1_555
C13_4 H13_4 1_555 1_555
C14_4 C10_4 1_555 1_555
H14_4 C14_4 1_555 1_555
N12_2 C12_4 1_555 1_555
C24_4 C25_4 1_555 1_555
C25_4 H22_4 1_555 1_555
H24_4 C25_4 1_555 1_555
C26_4 C24_4 1_555 1_555
C27_4 C26_4 1_555 1_555
H25_4 C27_4 1_555 1_555
C28_4 C27_4 1_555 1_555
H26_4 C28_4 1_555 1_555
C29_4 H27_4 1_555 1_555
C30_4 C26_4 1_555 1_555
H28_4 C30_4 1_555 1_555
N13_2 C28_4 1_555 1_555
C13_4 C14_4 1_555 1_555
C13_4 N12_2 1_555 1_555
C29_4 C30_4 1_555 1_555
C29_4 N13_2 1_555 1_555
C31 N15 1_555 1_555
N15 C32 1_555 1_555
N16 C31 1_555 1_555
C32 N17 1_555 1_555
C31_2 N15_2 1_555 1_555
N16_2 C31_2 1_555 1_555
N15_3 C32_2 1_555 1_555
C32_2 N17_2 1_555 1_555
C31_3 N15_4 1_555 1_555
N15_4 C32_3 1_555 1_555
N16_3 C31_3 1_555 1_555
C32_3 N17_3 1_555 1_555
C31_4 N15_5 1_555 1_555
N16_4 C31_4 1_555 1_555
N15_6 C32_4 1_555 1_555
C32_4 N17_4 1_555 1_555

#END
