
###############################################################################
#
# This file contains modified crystal structure data generated from the
# MOF subset of the Cambridge Structural Database (CSD) v543 
# hosted by the Cambridge Crystallographic Data Centre (CCDC).
#
# This work is licensed under the Creative Commons
# Attribution-NonCommercial-ShareAlike 4.0 International License.
# To view a copy of this license, visit
# http://creativecommons.org/licenses/by-nc-sa/4.0/
# or send a letter to
# Creative Commons, PO Box 1866, Mountain View, CA 94042, USA.
#
# CIF created using the CSD Python API on 29 September 2022
# The structure has been converted into the P1 space group
# The structure has a 3D framework
# The original CSD entry JIQVAH is in the monoclinic crystal system
# The framework has been calculated to contain at least 10.0% void space
# The void calculation uses a probe of radius 1.32A, grid spacing 0.4
#
###############################################################################

data_JIQVAH
_chemical_formula_moiety         '(C41 H44 N32 O16 Ru6 Yb4)n'
_symmetry_cell_setting           triclinic
_symmetry_space_group_name_H-M   'P 1'
_symmetry_Int_Tables_number      1
_space_group_name_Hall           'P 1'
loop_
_symmetry_equiv_pos_site_id
_symmetry_equiv_pos_as_xyz
1 x,y,z
_cell_length_a                   8.6800(6)
_cell_length_b                   25.0903(15)
_cell_length_c                   11.0863(7)
_cell_angle_alpha                90
_cell_angle_beta                 101.550(4)
_cell_angle_gamma                90
_cell_volume                     2365.53
loop_
_atom_site_label
_atom_site_type_symbol
_atom_site_fract_x
_atom_site_fract_y
_atom_site_fract_z
Yb3 Yb 0.19191(5) 0.405150(17) 0.14122(4)
C9 C 0.3422(12) 0.5342(4) 0.1861(9)
C11 C 0.1799(18) 0.2500 0.5619(12)
C12 C 0.0738(12) 0.3067(4) 0.3331(9)
N5 N 0.4076(11) 0.4087(3) 0.0343(9)
N6 N 0.3136(11) 0.4900(3) 0.1962(9)
N8 N 0.2871(16) 0.2500 0.6421(13)
N10 N 0.1182(11) 0.3408(4) 0.2801(9)
O1 O 0.4119(10) 0.3810(4) 0.2793(8)
H4 H 0.4226 0.3781 0.3569
H5 H 0.5062 0.3838 0.2694
O2 O 0.1888(10) 0.3236(3) 0.0419(8)
H7 H 0.2526 0.2986 0.0686
O3 O 0.0352(9) 0.4550(3) 0.2455(7)
H8 H 0.0820 0.4626 0.3183
Yb2 Yb 0.19191(5) 0.094850(17) 0.14122(4)
Ru6 Ru 0.38786(10) 0.61099(3) 0.16443(7)
C27 C 0.0738(12) 0.1933(4) 0.3331(9)
N17 N 0.4076(11) 0.0913(3) 0.0343(9)
N19 N 0.3136(11) 0.0100(3) 0.1962(9)
N21 N 0.1182(11) 0.1592(4) 0.2801(9)
O5 O 0.4119(10) 0.1190(4) 0.2793(8)
H15 H 0.4226 0.1219 0.3569
H16 H 0.5062 0.1162 0.2694
O6 O 0.1888(10) 0.1764(3) 0.0419(8)
H18 H 0.2526 0.2014 0.0686
O7 O 0.0352(9) 0.0450(3) 0.2455(7)
H19 H 0.0820 0.0374 0.3183
C8 C 0.4867(13) 0.4036(4) 0.9614(10)
H6 H 0.1749 0.3252 0.9639
O4 O 0.1128(9) 0.4564(3) 0.9601(7)
H10 H 0.1722 0.4738 0.9220
H11 H 0.0522 0.4797 0.9811
Ru5 Ru 0.61214(10) 0.38901(3) 0.83557(7)
H17 H 0.1749 0.1748 0.9639
O8 O 0.1128(9) 0.0436(3) 0.9601(7)
H21 H 0.1722 0.0262 0.9220
H22 H 0.0522 0.0203 0.9811
N14 N 0.9205(12) 0.3880(3) 0.0461(9)
Ru2 Ru 0.98845(14) 0.2500 0.42710(10)
C1 C 0.7361(11) 0.3061(4) 0.6957(9)
C2 C 0.8105(11) 0.2784(4) 0.6151(9)
C3 C 0.8811(13) 0.3568(4) 0.5386(10)
H1 H 0.9308 0.3761 0.4857
C4 C 0.8058(13) 0.3850(4) 0.6204(10)
H2 H 0.8058 0.4220 0.6182
C5 C 0.5137(12) 0.2779(4) 0.9274(9)
H3 H 0.4619 0.2958 0.9809
C6 C 0.6568(13) 0.2777(4) 0.7776(9)
C10 C 0.4105(14) 0.3998(4) 0.7094(10)
C13 C 0.7984(18) 0.2500 0.2918(13)
N1 N 0.7346(10) 0.3604(3) 0.7010(8)
N2 N 0.8842(10) 0.3045(3) 0.5340(7)
N3 N 0.5858(9) 0.3061(3) 0.8528(7)
N7 N 0.2943(15) 0.4099(6) 0.6426(12)
N9 N 0.690(2) 0.2500 0.2085(16)
H9 H 0.9543 0.4369 0.2518
Yb5 Yb 0.80809(5) 0.594850(17) 0.85878(4)
Ru3 Ru 0.61214(10) 0.11099(3) 0.83557(7)
C14 C 0.7361(11) 0.1939(4) 0.6957(9)
C15 C 0.8105(11) 0.2216(4) 0.6151(9)
C16 C 0.8811(13) 0.1432(4) 0.5386(10)
H12 H 0.9308 0.1239 0.4857
C17 C 0.8058(13) 0.1150(4) 0.6204(10)
H13 H 0.8058 0.0780 0.6182
C18 C 0.5137(12) 0.2221(4) 0.9274(9)
H14 H 0.4619 0.2042 0.9809
C19 C 0.6568(13) 0.2223(4) 0.7776(9)
C20 C 0.8077(12) 0.3868(4) 0.9674(9)
C21 C 0.8077(12) 0.1132(4) 0.9674(9)
C23 C 0.4867(13) 0.0964(4) 0.9614(10)
C24 C 0.6578(12) 0.4658(4) 0.8139(9)
C25 C 0.6578(12) 0.0342(4) 0.8139(9)
C26 C 0.4105(14) 0.1002(4) 0.7094(10)
N11 N 0.7346(10) 0.1396(3) 0.7010(8)
N12 N 0.8842(10) 0.1955(3) 0.5340(7)
N13 N 0.5858(9) 0.1939(3) 0.8528(7)
N15 N 0.9205(12) 0.1120(3) 0.0461(9)
N18 N 0.6864(11) 0.5100(3) 0.8038(9)
N20 N 0.2943(15) 0.0901(6) 0.6426(12)
H20 H 0.9543 0.0631 0.2518
C7 C 0.1923(12) 0.8868(4) 0.0326(9)
Ru4 Ru 0.38786(10) 0.88901(3) 0.16443(7)
Ru2_2 Ru 0.01155(14) 0.7500 0.57290(10)
C1_2 C 0.2639(11) 0.8061(4) 0.3043(9)
C2_2 C 0.1895(11) 0.7784(4) 0.3849(9)
C3_2 C 0.1189(13) 0.8568(4) 0.4614(10)
H1_2 H 0.0692 0.8761 0.5143
C4_2 C 0.1942(13) 0.8850(4) 0.3796(10)
H2_2 H 0.1942 0.9220 0.3818
C5_2 C 0.4863(12) 0.7779(4) 0.0726(9)
H3_2 H 0.5381 0.7958 0.0191
C6_2 C 0.3432(13) 0.7777(4) 0.2224(9)
C10_2 C 0.5895(14) 0.8998(4) 0.2906(10)
C13_2 C 0.2016(18) 0.7500 0.7082(13)
N1_2 N 0.2654(10) 0.8604(3) 0.2990(8)
N2_2 N 0.1158(10) 0.8045(3) 0.4660(7)
N3_2 N 0.4142(9) 0.8061(3) 0.1472(7)
N4 N 0.0795(12) 0.8880(3) 0.9539(9)
N7_2 N 0.7057(15) 0.9099(6) 0.3574(12)
N9_2 N 0.310(2) 0.7500 0.7915(16)
H9_2 H 0.0457 0.9369 0.7482
C14_2 C 0.2639(11) 0.6939(4) 0.3043(9)
C15_2 C 0.1895(11) 0.7216(4) 0.3849(9)
C16_2 C 0.1189(13) 0.6432(4) 0.4614(10)
H12_2 H 0.0692 0.6239 0.5143
C17_2 C 0.1942(13) 0.6150(4) 0.3796(10)
H13_2 H 0.1942 0.5780 0.3818
C18_2 C 0.4863(12) 0.7221(4) 0.0726(9)
H14_2 H 0.5381 0.7042 0.0191
C19_2 C 0.3432(13) 0.7223(4) 0.2224(9)
C21_2 C 0.1923(12) 0.6132(4) 0.0326(9)
C22 C 0.5133(13) 0.9036(4) 0.0386(10)
C23_2 C 0.5133(13) 0.5964(4) 0.0386(10)
C24_2 C 0.3422(12) 0.9658(4) 0.1861(9)
C26_2 C 0.5895(14) 0.6002(4) 0.2906(10)
N11_2 N 0.2654(10) 0.6396(3) 0.2990(8)
N12_2 N 0.1158(10) 0.6955(3) 0.4660(7)
N13_2 N 0.4142(9) 0.6939(3) 0.1472(7)
N15_2 N 0.0795(12) 0.6120(3) 0.9539(9)
N20_2 N 0.7057(15) 0.5901(6) 0.3574(12)
H20_2 H 0.0457 0.5631 0.7482
Yb4 Yb 0.80809(5) 0.905150(17) 0.85878(4)
N16 N 0.5924(11) 0.9087(3) 0.9657(9)
H6_2 H 0.8251 0.8252 0.0361
O4_2 O 0.8872(9) 0.9564(3) 0.0399(7)
H10_2 H 0.8278 0.9738 0.0780
H11_2 H 0.9478 0.9797 0.0189
H17_2 H 0.8251 0.6748 0.0361
O8_2 O 0.8872(9) 0.5436(3) 0.0399(7)
H21_2 H 0.8278 0.5262 0.0780
H22_2 H 0.9478 0.5203 0.0189
C11_2 C 0.8201(18) 0.7500 0.4381(12)
C12_2 C 0.9262(12) 0.8067(4) 0.6669(9)
N6_2 N 0.6864(11) 0.9900(3) 0.8038(9)
N8_2 N 0.7129(16) 0.7500 0.3579(13)
N10_2 N 0.8818(11) 0.8408(4) 0.7199(9)
O1_2 O 0.5881(10) 0.8810(4) 0.7207(8)
H4_2 H 0.5774 0.8781 0.6431
H5_2 H 0.4938 0.8838 0.7306
O2_2 O 0.8112(10) 0.8236(3) 0.9581(8)
H7_2 H 0.7474 0.7986 0.9314
O3_2 O 0.9648(9) 0.9550(3) 0.7545(7)
H8_2 H 0.9180 0.9626 0.6817
C27_2 C 0.9262(12) 0.6933(4) 0.6669(9)
N17_2 N 0.5924(11) 0.5913(3) 0.9657(9)
N21_2 N 0.8818(11) 0.6592(4) 0.7199(9)
O5_2 O 0.5881(10) 0.6190(4) 0.7207(8)
H15_2 H 0.5774 0.6219 0.6431
H16_2 H 0.4938 0.6162 0.7306
O6_2 O 0.8112(10) 0.6764(3) 0.9581(8)
H18_2 H 0.7474 0.7014 0.9314
O7_2 O 0.9648(9) 0.5450(3) 0.7545(7)
H19_2 H 0.9180 0.5374 0.6817
loop_
_geom_bond_atom_site_label_1
_geom_bond_atom_site_label_2
_geom_bond_site_symmetry_1
_geom_bond_site_symmetry_2
C9 N6 1_555 1_555
C11 N8 1_555 1_555
N5 Yb3 1_555 1_555
N6 Yb3 1_555 1_555
N10 Yb3 1_555 1_555
O1 Yb3 1_555 1_555
H4 O1 1_555 1_555
H5 O1 1_555 1_555
O2 Yb3 1_555 1_555
H7 O2 1_555 1_555
O3 Yb3 1_555 1_555
H8 O3 1_555 1_555
Ru6 C9 1_555 1_555
N17 Yb2 1_555 1_555
N19 Yb2 1_555 1_555
N21 Yb2 1_555 1_555
O5 Yb2 1_555 1_555
H15 O5 1_555 1_555
H16 O5 1_555 1_555
O6 Yb2 1_555 1_555
H18 O6 1_555 1_555
O7 Yb2 1_555 1_555
H19 O7 1_555 1_555
C12 N10 1_555 1_555
C27 N21 1_555 1_555
H10 O4 1_555 1_555
H11 O4 1_555 1_555
Ru5 C8 1_555 1_555
H21 O8 1_555 1_555
H22 O8 1_555 1_555
Ru5 C10 1_555 1_555
C1 C2 1_555 1_555
C2 N2 1_555 1_555
C3 H1 1_555 1_555
C4 C3 1_555 1_555
H2 C4 1_555 1_555
C5 H3 1_555 1_555
C6 C1 1_555 1_555
C10 N7 1_555 1_555
C13 Ru2 1_555 1_555
N1 Ru5 1_555 1_555
N2 Ru2 1_555 1_555
N3 Ru5 1_555 1_555
N9 C13 1_555 1_555
Yb5 N18 1_555 1_555
Ru3 C21 1_555 1_555
C14 C15 1_555 1_555
C15 C2 1_555 1_555
C16 H12 1_555 1_555
C17 C16 1_555 1_555
H13 C17 1_555 1_555
C18 C5 1_555 1_555
H14 C18 1_555 1_555
C19 C6 1_555 1_555
C20 Ru5 1_555 1_555
C23 Ru3 1_555 1_555
C24 Ru5 1_555 1_555
C25 Ru3 1_555 1_555
C26 Ru3 1_555 1_555
N11 Ru3 1_555 1_555
N12 Ru2 1_555 1_555
N13 Ru3 1_555 1_555
N18 C24 1_555 1_555
N20 C26 1_555 1_555
C1 N1 1_555 1_555
C3 N2 1_555 1_555
C4 N1 1_555 1_555
C5 N3 1_555 1_555
C6 N3 1_555 1_555
C14 C19 1_555 1_555
C14 N11 1_555 1_555
C15 N12 1_555 1_555
C16 N12 1_555 1_555
C17 N11 1_555 1_555
C18 N13 1_555 1_555
C19 N13 1_555 1_555
Ru4 C7 1_555 1_555
Ru4 C10_2 1_555 1_555
C1_2 C2_2 1_555 1_555
C2_2 N2_2 1_555 1_555
C3_2 H1_2 1_555 1_555
C4_2 C3_2 1_555 1_555
H2_2 C4_2 1_555 1_555
C5_2 H3_2 1_555 1_555
C6_2 C1_2 1_555 1_555
C10_2 N7_2 1_555 1_555
C13_2 Ru2_2 1_555 1_555
N1_2 Ru4 1_555 1_555
N2_2 Ru2_2 1_555 1_555
N3_2 Ru4 1_555 1_555
N9_2 C13_2 1_555 1_555
Ru6 C21_2 1_555 1_555
C14_2 C15_2 1_555 1_555
C15_2 C2_2 1_555 1_555
C16_2 H12_2 1_555 1_555
C17_2 C16_2 1_555 1_555
H13_2 C17_2 1_555 1_555
C18_2 C5_2 1_555 1_555
H14_2 C18_2 1_555 1_555
C19_2 C6_2 1_555 1_555
C22 Ru4 1_555 1_555
C23_2 Ru6 1_555 1_555
C24_2 Ru4 1_555 1_555
C26_2 Ru6 1_555 1_555
N11_2 Ru6 1_555 1_555
N12_2 Ru2_2 1_555 1_555
N13_2 Ru6 1_555 1_555
N20_2 C26_2 1_555 1_555
C1_2 N1_2 1_555 1_555
C3_2 N2_2 1_555 1_555
C4_2 N1_2 1_555 1_555
C5_2 N3_2 1_555 1_555
C6_2 N3_2 1_555 1_555
C14_2 C19_2 1_555 1_555
C14_2 N11_2 1_555 1_555
C15_2 N12_2 1_555 1_555
C16_2 N12_2 1_555 1_555
C17_2 N11_2 1_555 1_555
C18_2 N13_2 1_555 1_555
C19_2 N13_2 1_555 1_555
Yb4 N16 1_555 1_555
H10_2 O4_2 1_555 1_555
H11_2 O4_2 1_555 1_555
H21_2 O8_2 1_555 1_555
H22_2 O8_2 1_555 1_555
C11_2 N8_2 1_555 1_555
N6_2 Yb4 1_555 1_555
N10_2 Yb4 1_555 1_555
O1_2 Yb4 1_555 1_555
H4_2 O1_2 1_555 1_555
H5_2 O1_2 1_555 1_555
O2_2 Yb4 1_555 1_555
H7_2 O2_2 1_555 1_555
O3_2 Yb4 1_555 1_555
H8_2 O3_2 1_555 1_555
N17_2 Yb5 1_555 1_555
N21_2 Yb5 1_555 1_555
O5_2 Yb5 1_555 1_555
H15_2 O5_2 1_555 1_555
H16_2 O5_2 1_555 1_555
O6_2 Yb5 1_555 1_555
H18_2 O6_2 1_555 1_555
O7_2 Yb5 1_555 1_555
H19_2 O7_2 1_555 1_555
C12_2 N10_2 1_555 1_555
C27_2 N21_2 1_555 1_555

#END
