
###############################################################################
#
# This file contains modified crystal structure data generated from the
# MOF subset of the Cambridge Structural Database (CSD) v543 
# hosted by the Cambridge Crystallographic Data Centre (CCDC).
#
# This work is licensed under the Creative Commons
# Attribution-NonCommercial-ShareAlike 4.0 International License.
# To view a copy of this license, visit
# http://creativecommons.org/licenses/by-nc-sa/4.0/
# or send a letter to
# Creative Commons, PO Box 1866, Mountain View, CA 94042, USA.
#
# CIF created using the CSD Python API on 29 September 2022
# The structure has been converted into the P1 space group
# The structure has a 3D framework
# The original CSD entry JIRGOJ is in the tetragonal crystal system
# The original CSD entry JIRGOJ is in a Sohncke space group
# The framework has been calculated to contain at least 10.0% void space
# The void calculation uses a probe of radius 1.32A, grid spacing 0.4
# The framework is charged, counterions have been retained in the structure
#
###############################################################################

data_JIRGOJ
_chemical_formula_moiety         '(C82 H48 Co9 N66 O18)n'
_symmetry_cell_setting           triclinic
_symmetry_space_group_name_H-M   'P 1'
_symmetry_Int_Tables_number      1
_space_group_name_Hall           'P 1'
loop_
_symmetry_equiv_pos_site_id
_symmetry_equiv_pos_as_xyz
1 x,y,z
_cell_length_a                   13.1176(5)
_cell_length_b                   13.1176(5)
_cell_length_c                   25.626(3)
_cell_angle_alpha                90
_cell_angle_beta                 90
_cell_angle_gamma                90
_cell_volume                     4409.5
loop_
_atom_site_label
_atom_site_type_symbol
_atom_site_fract_x
_atom_site_fract_y
_atom_site_fract_z
Co3 Co -0.0000 0.0000 0.74432(12)
Co3_2 Co -0.0000 1.0000 0.74432(12)
Co1 Co 0.5000 0.0000 0.49432(12)
O1 O 0.5000 -0.0000 0.5760(6)
O2 O 0.5000 0.0000 0.4143(7)
N1 N 0.5077(10) 0.0930(9) 0.3403(6)
N2 N 0.5000 0.0000 0.2616(8)
N3 N 0.5143(10) 0.1745(9) 0.2612(5)
N4 N 0.5192(10) 0.3372(10) 0.2408(6)
N5 N 0.4100(8) 0.0086(8) 0.6497(5)
N6 N 0.5000 -0.0000 0.7294(7)
N7 N 0.3250(9) 0.0152(9) 0.7298(5)
N8 N 0.1615(8) 0.0149(9) 0.7486(4)
C1 C 0.5000 0.0000 0.3656(9)
C2 C 0.5072(10) 0.0853(10) 0.2890(6)
C3 C 0.5144(10) 0.2772(10) 0.2805(6)
H1 H 0.5114 0.2973 0.3161
C4 C 0.5299(12) 0.2846(12) 0.1955(7)
H2 H 0.5393 0.3139 0.1620
C5 C 0.5249(16) 0.1814(14) 0.2064(7)
H3 H 0.5279 0.1267 0.1821
C6 C 0.5000 0.0000 0.6221(7)
C7 C 0.4198(11) 0.0066(12) 0.6992(7)
C8 C 0.2324(11) 0.0093(10) 0.7109(6)
H4 H 0.2172 0.0018 0.6748
C9 C 0.2237(11) 0.0245(13) 0.7940(6)
H5 H 0.1979 0.0308 0.8285
C10 C 0.3216(11) 0.0236(13) 0.7819(7)
H6 H 0.3777 0.0279 0.8053
Co3_3 Co 1.0000 0.0000 0.74432(12)
Co5 Co 0.5000 0.5000 0.24432(12)
N15 N 0.6628(10) 0.0192(10) 0.4908(6)
N18 N 0.4851(9) 0.1615(8) 0.4986(4)
Co1_2 Co 0.5000 1.0000 0.49432(12)
O1_2 O 0.5000 1.0000 0.5760(6)
O2_2 O 0.5000 1.0000 0.4143(7)
N2_2 N 0.5000 1.0000 0.2616(8)
N6_2 N 0.5000 1.0000 0.7294(7)
C1_2 C 0.5000 1.0000 0.3656(9)
C6_2 C 0.5000 1.0000 0.6221(7)
N9 N 0.5900(8) 0.9914(8) 0.6497(5)
N10 N 0.6750(9) 0.9848(9) 0.7298(5)
N11 N 0.8385(8) 0.9851(9) 0.7486(4)
C11 C 0.5802(11) 0.9934(12) 0.6992(7)
C12 C 0.7676(11) 0.9907(10) 0.7109(6)
H7 H 0.7828 0.9982 0.6748
C13 C 0.7763(11) 0.9755(13) 0.7940(6)
H8 H 0.8021 0.9692 0.8285
C14 C 0.6784(11) 0.9764(13) 0.7819(7)
H9 H 0.6223 0.9721 0.8053
N12 N 0.4923(10) 0.9070(9) 0.3403(6)
N13 N 0.4857(10) 0.8255(9) 0.2612(5)
N14 N 0.4808(10) 0.6628(10) 0.2408(6)
C15 C 0.4928(10) 0.9147(10) 0.2890(6)
C16 C 0.4856(10) 0.7228(10) 0.2805(6)
H10 H 0.4886 0.7027 0.3161
C17 C 0.4701(12) 0.7154(12) 0.1955(7)
H11 H 0.4607 0.6861 0.1620
C18 C 0.4751(16) 0.8186(14) 0.2064(7)
H12 H 0.4721 0.8733 0.1821
Co3_4 Co 1.0000 1.0000 0.74432(12)
N16 N 0.3372(10) 0.9808(10) 0.4908(6)
N17 N 0.5149(9) 0.8385(8) 0.4986(4)
O1_3 O 0.0000 0.5000 0.0760(6)
N5_2 N 0.0900(8) 0.4914(8) 0.1497(5)
N6_3 N 0.0000 0.5000 0.2294(7)
N7_2 N 0.1750(9) 0.4848(9) 0.2298(5)
N8_2 N 0.3385(8) 0.4851(9) 0.2486(4)
C6_3 C 0.0000 0.5000 0.1221(7)
C7_2 C 0.0802(11) 0.4934(12) 0.1992(7)
C8_2 C 0.2676(11) 0.4907(10) 0.2109(6)
H4_2 H 0.2828 0.4982 0.1748
C9_2 C 0.2763(11) 0.4755(13) 0.2940(6)
H5_2 H 0.3021 0.4692 0.3285
C10_2 C 0.1784(11) 0.4764(13) 0.2819(7)
H6_2 H 0.1223 0.4721 0.3053
Co1_3 Co 0.0000 0.5000 0.99432(12)
O2_3 O 0.0000 0.5000 0.9143(7)
N2_3 N 0.0000 0.5000 0.7616(8)
C1_3 C 0.0000 0.5000 0.8656(9)
N12_2 N 0.0077(10) 0.5930(9) 0.8403(6)
N13_2 N 0.0143(10) 0.6745(9) 0.7612(5)
N14_2 N 0.0192(10) 0.8372(10) 0.7408(6)
C15_2 C 0.0072(10) 0.5853(10) 0.7890(6)
C16_2 C 0.0144(10) 0.7772(10) 0.7805(6)
H10_2 H 0.0114 0.7973 0.8161
C17_2 C 0.0299(12) 0.7846(12) 0.6955(7)
H11_2 H 0.0393 0.8139 0.6620
C18_2 C 0.0249(16) 0.6814(14) 0.7064(7)
H12_2 H 0.0279 0.6267 0.6821
N16_2 N 0.1628(10) 0.5192(10) 0.9908(6)
N18_2 N 0.0149(9) 0.3385(8) 0.9986(4)
O1_4 O 1.0000 0.5000 0.0760(6)
N6_4 N 1.0000 0.5000 0.2294(7)
C6_4 C 1.0000 0.5000 0.1221(7)
N9_2 N 0.9100(8) 0.5086(8) 0.1497(5)
N10_2 N 0.8250(9) 0.5152(9) 0.2298(5)
N11_2 N 0.6615(8) 0.5149(9) 0.2486(4)
C11_2 C 0.9198(11) 0.5066(12) 0.1992(7)
C12_2 C 0.7324(11) 0.5093(10) 0.2109(6)
H7_2 H 0.7172 0.5018 0.1748
C13_2 C 0.7237(11) 0.5245(13) 0.2940(6)
H8_2 H 0.6979 0.5308 0.3285
C14_2 C 0.8216(11) 0.5236(13) 0.2819(7)
H9_2 H 0.8777 0.5279 0.3053
Co1_4 Co 1.0000 0.5000 0.99432(12)
O2_4 O 1.0000 0.5000 0.9143(7)
N1_2 N 0.9923(10) 0.4070(9) 0.8403(6)
N2_4 N 1.0000 0.5000 0.7616(8)
N3_2 N 0.9857(10) 0.3255(9) 0.7612(5)
N4_2 N 0.9808(10) 0.1628(10) 0.7408(6)
C1_4 C 1.0000 0.5000 0.8656(9)
C2_2 C 0.9928(10) 0.4147(10) 0.7890(6)
C3_2 C 0.9856(10) 0.2228(10) 0.7805(6)
H1_2 H 0.9886 0.2027 0.8161
C4_2 C 0.9701(12) 0.2154(12) 0.6955(7)
H2_2 H 0.9607 0.1861 0.6620
C5_2 C 0.9751(16) 0.3186(14) 0.7064(7)
H3_2 H 0.9721 0.3733 0.6821
N15_2 N 0.8372(10) 0.4808(10) 0.9908(6)
N17_2 N 0.9851(9) 0.6615(8) 0.9986(4)
O1_5 O 0.0000 -0.0000 0.8260(6)
O2_5 O 0.0000 -0.0000 0.6643(7)
N2_5 N -0.0000 -0.0000 0.5116(8)
N6_5 N 0.0000 -0.0000 0.9794(7)
C1_5 C 0.0000 -0.0000 0.6156(9)
C6_5 C 0.0000 -0.0000 0.8721(7)
N9_3 N 0.0086(8) 0.0900(8) 0.8997(5)
N10_3 N 0.0152(9) 0.1750(9) 0.9798(5)
C11_3 C 0.0066(12) 0.0802(11) 0.9492(7)
C12_3 C 0.0093(10) 0.2676(11) 0.9609(6)
H7_3 H 0.0018 0.2828 0.9248
O1_6 O 0.0000 1.0000 0.8260(6)
O2_6 O 0.0000 1.0000 0.6643(7)
N2_6 N -0.0000 1.0000 0.5116(8)
N6_6 N 0.0000 1.0000 0.9794(7)
C1_6 C -0.0000 1.0000 0.6156(9)
C6_6 C 0.0000 1.0000 0.8721(7)
N12_3 N 0.0930(9) 0.9923(10) 0.5903(6)
N13_3 N 0.1745(9) 0.9857(10) 0.5112(5)
C15_3 C 0.0853(10) 0.9928(10) 0.5390(6)
C16_3 C 0.2772(10) 0.9856(10) 0.5305(6)
H10_3 H 0.2973 0.9886 0.5661
C17_3 C 0.2846(12) 0.9701(12) 0.4455(7)
H11_3 H 0.3139 0.9607 0.4120
C18_3 C 0.1814(14) 0.9751(16) 0.4564(7)
H12_3 H 0.1267 0.9721 0.4321
O1_7 O 1.0000 -0.0000 0.8260(6)
O2_7 O 1.0000 -0.0000 0.6643(7)
N1_3 N 0.9070(9) 0.0077(10) 0.5903(6)
N2_7 N 1.0000 -0.0000 0.5116(8)
N3_3 N 0.8255(9) 0.0143(10) 0.5112(5)
N6_7 N 1.0000 -0.0000 0.9794(7)
C1_7 C 1.0000 -0.0000 0.6156(9)
C2_3 C 0.9147(10) 0.0072(10) 0.5390(6)
C3_3 C 0.7228(10) 0.0144(10) 0.5305(6)
H1_3 H 0.7027 0.0114 0.5661
C4_3 C 0.7154(12) 0.0299(12) 0.4455(7)
H2_3 H 0.6861 0.0393 0.4120
C5_3 C 0.8186(14) 0.0249(16) 0.4564(7)
H3_3 H 0.8733 0.0279 0.4321
C6_7 C 1.0000 -0.0000 0.8721(7)
O1_8 O 1.0000 1.0000 0.8260(6)
O2_8 O 1.0000 1.0000 0.6643(7)
N2_8 N 1.0000 1.0000 0.5116(8)
N5_3 N 0.9914(8) 0.9100(8) 0.8997(5)
N6_8 N 1.0000 1.0000 0.9794(7)
N7_3 N 0.9848(9) 0.8250(9) 0.9798(5)
C1_8 C 1.0000 1.0000 0.6156(9)
C6_8 C 1.0000 1.0000 0.8721(7)
C7_3 C 0.9934(12) 0.9198(11) 0.9492(7)
C8_3 C 0.9907(10) 0.7324(11) 0.9609(6)
H4_3 H 0.9982 0.7172 0.9248
O1_9 O 0.5000 0.5000 0.3260(6)
O2_9 O 0.5000 0.5000 0.1643(7)
N1_4 N 0.5930(9) 0.4923(10) 0.0903(6)
N2_9 N 0.5000 0.5000 0.0116(8)
N3_4 N 0.6745(9) 0.4857(10) 0.0112(5)
N5_4 N 0.5086(8) 0.5900(8) 0.3997(5)
N6_9 N 0.5000 0.5000 0.4794(7)
N7_4 N 0.5152(9) 0.6750(9) 0.4798(5)
C1_9 C 0.5000 0.5000 0.1156(9)
C2_4 C 0.5853(10) 0.4928(10) 0.0390(6)
C3_4 C 0.7772(10) 0.4856(10) 0.0305(6)
H1_4 H 0.7973 0.4886 0.0661
C6_9 C 0.5000 0.5000 0.3721(7)
C7_4 C 0.5066(12) 0.5802(11) 0.4492(7)
C8_4 C 0.5093(10) 0.7676(11) 0.4609(6)
H4_4 H 0.5018 0.7828 0.4248
C9_3 C 0.5245(13) 0.7763(11) 0.5440(6)
H5_3 H 0.5308 0.8021 0.5785
C10_3 C 0.5236(13) 0.6784(11) 0.5319(7)
H6_3 H 0.5279 0.6223 0.5553
N9_4 N 0.4914(8) 0.4100(8) 0.3997(5)
N10_4 N 0.4848(9) 0.3250(9) 0.4798(5)
C11_4 C 0.4934(12) 0.4198(11) 0.4492(7)
C12_4 C 0.4907(10) 0.2324(11) 0.4609(6)
H7_4 H 0.4982 0.2172 0.4248
C13_3 C 0.4755(13) 0.2237(11) 0.5440(6)
H8_3 H 0.4692 0.1979 0.5785
C14_3 C 0.4764(13) 0.3216(11) 0.5319(7)
H9_3 H 0.4721 0.3777 0.5553
N12_4 N 0.4070(9) 0.5077(10) 0.0903(6)
N13_4 N 0.3255(9) 0.5143(10) 0.0112(5)
C15_4 C 0.4147(10) 0.5072(10) 0.0390(6)
C16_4 C 0.2228(10) 0.5144(10) 0.0305(6)
H10_4 H 0.2027 0.5114 0.0661
C4_4 C 0.7846(12) 0.4701(12) 0.9455(7)
H2_4 H 0.8139 0.4607 0.9120
C5_4 C 0.6814(14) 0.4751(16) 0.9564(7)
H3_4 H 0.6267 0.4721 0.9321
C17_4 C 0.2154(12) 0.5299(12) 0.9455(7)
H11_4 H 0.1861 0.5393 0.9120
C18_4 C 0.3186(14) 0.5249(16) 0.9564(7)
H12_4 H 0.3733 0.5279 0.9321
C13_4 C 0.0245(13) 0.2763(11) 0.0440(6)
H8_4 H 0.0308 0.3021 0.0785
C14_4 C 0.0236(13) 0.1784(11) 0.0319(7)
H9_4 H 0.0279 0.1223 0.0553
C9_4 C 0.9755(13) 0.7237(11) 0.0440(6)
H5_4 H 0.9692 0.6979 0.0785
C10_4 C 0.9764(13) 0.8216(11) 0.0319(7)
H6_4 H 0.9721 0.8777 0.0553
loop_
_geom_bond_atom_site_label_1
_geom_bond_atom_site_label_2
_geom_bond_site_symmetry_1
_geom_bond_site_symmetry_2
Co1 O1 1_555 1_555
O1 C6 1_555 1_555
O2 Co1 1_555 1_555
N1 C1 1_555 1_555
N2 C2 1_555 1_555
N3 C2 1_555 1_555
N4 C3 1_555 1_555
N5 C6 1_555 1_555
N6 C7 1_555 1_555
N7 C7 1_555 1_555
N8 C8 1_555 1_555
C1 O2 1_555 1_555
C2 N1 1_555 1_555
C3 N3 1_555 1_555
H1 C3 1_555 1_555
C4 N4 1_555 1_555
H2 C4 1_555 1_555
C5 N3 1_555 1_555
H3 C5 1_555 1_555
C7 N5 1_555 1_555
C8 N7 1_555 1_555
H4 C8 1_555 1_555
C9 N8 1_555 1_555
H5 C9 1_555 1_555
C10 N7 1_555 1_555
H6 C10 1_555 1_555
Co3 N8 1_555 1_555
Co5 N4 1_555 1_555
N15 Co1 1_555 1_555
N18 Co1 1_555 1_555
C4 C5 1_555 1_555
C9 C10 1_555 1_555
Co1_2 O1_2 1_555 1_555
O1_2 C6_2 1_555 1_555
O2_2 Co1_2 1_555 1_555
C1_2 O2_2 1_555 1_555
C6_2 N9 1_555 1_555
N9 C11 1_555 1_555
N10 C11 1_555 1_555
N11 C12 1_555 1_555
C11 N6_2 1_555 1_555
C12 N10 1_555 1_555
H7 C12 1_555 1_555
C13 N11 1_555 1_555
H8 C13 1_555 1_555
C14 N10 1_555 1_555
H9 C14 1_555 1_555
N12 C1_2 1_555 1_555
N13 C15 1_555 1_555
N14 C16 1_555 1_555
C15 N2_2 1_555 1_555
C16 N13 1_555 1_555
H10 C16 1_555 1_555
C17 N14 1_555 1_555
H11 C17 1_555 1_555
C18 N13 1_555 1_555
H12 C18 1_555 1_555
Co3_4 N11 1_555 1_555
Co5 N14 1_555 1_555
N16 Co1_2 1_555 1_555
N17 Co1_2 1_555 1_555
C13 C14 1_555 1_555
N12 C15 1_555 1_555
C17 C18 1_555 1_555
O1_3 C6_3 1_555 1_555
N5_2 C6_3 1_555 1_555
N6_3 C7_2 1_555 1_555
N7_2 C7_2 1_555 1_555
N8_2 C8_2 1_555 1_555
C7_2 N5_2 1_555 1_555
C8_2 N7_2 1_555 1_555
H4_2 C8_2 1_555 1_555
C9_2 N8_2 1_555 1_555
H5_2 C9_2 1_555 1_555
C10_2 N7_2 1_555 1_555
H6_2 C10_2 1_555 1_555
Co5 N8_2 1_555 1_555
C9_2 C10_2 1_555 1_555
O2_3 Co1_3 1_555 1_555
C1_3 O2_3 1_555 1_555
N12_2 C1_3 1_555 1_555
N13_2 C15_2 1_555 1_555
N14_2 C16_2 1_555 1_555
C15_2 N2_3 1_555 1_555
C16_2 N13_2 1_555 1_555
H10_2 C16_2 1_555 1_555
C17_2 N14_2 1_555 1_555
H11_2 C17_2 1_555 1_555
C18_2 N13_2 1_555 1_555
H12_2 C18_2 1_555 1_555
Co3_2 N14_2 1_555 1_555
N16_2 Co1_3 1_555 1_555
N18_2 Co1_3 1_555 1_555
N12_2 C15_2 1_555 1_555
C17_2 C18_2 1_555 1_555
O1_4 C6_4 1_555 1_555
C6_4 N9_2 1_555 1_555
N9_2 C11_2 1_555 1_555
N10_2 C11_2 1_555 1_555
N11_2 C12_2 1_555 1_555
C11_2 N6_4 1_555 1_555
C12_2 N10_2 1_555 1_555
H7_2 C12_2 1_555 1_555
C13_2 N11_2 1_555 1_555
H8_2 C13_2 1_555 1_555
C14_2 N10_2 1_555 1_555
H9_2 C14_2 1_555 1_555
Co5 N11_2 1_555 1_555
C13_2 C14_2 1_555 1_555
O2_4 Co1_4 1_555 1_555
N1_2 C1_4 1_555 1_555
N2_4 C2_2 1_555 1_555
N3_2 C2_2 1_555 1_555
N4_2 C3_2 1_555 1_555
C1_4 O2_4 1_555 1_555
C2_2 N1_2 1_555 1_555
C3_2 N3_2 1_555 1_555
H1_2 C3_2 1_555 1_555
C4_2 N4_2 1_555 1_555
H2_2 C4_2 1_555 1_555
C5_2 N3_2 1_555 1_555
H3_2 C5_2 1_555 1_555
Co3_3 N4_2 1_555 1_555
N15_2 Co1_4 1_555 1_555
N17_2 Co1_4 1_555 1_555
C4_2 C5_2 1_555 1_555
Co3 O1_5 1_555 1_555
O1_5 C6_5 1_555 1_555
O2_5 Co3 1_555 1_555
C1_5 O2_5 1_555 1_555
C6_5 N9_3 1_555 1_555
N9_3 C11_3 1_555 1_555
N10_3 C11_3 1_555 1_555
N18_2 C12_3 1_555 1_555
C11_3 N6_5 1_555 1_555
C12_3 N10_3 1_555 1_555
H7_3 C12_3 1_555 1_555
Co3_2 O1_6 1_555 1_555
O1_6 C6_6 1_555 1_555
O2_6 Co3_2 1_555 1_555
C1_6 O2_6 1_555 1_555
N12_3 C1_6 1_555 1_555
N13_3 C15_3 1_555 1_555
N16 C16_3 1_555 1_555
C15_3 N2_6 1_555 1_555
C16_3 N13_3 1_555 1_555
H10_3 C16_3 1_555 1_555
C17_3 N16 1_555 1_555
H11_3 C17_3 1_555 1_555
C18_3 N13_3 1_555 1_555
H12_3 C18_3 1_555 1_555
N12_3 C15_3 1_555 1_555
C17_3 C18_3 1_555 1_555
Co3_3 O1_7 1_555 1_555
O1_7 C6_7 1_555 1_555
O2_7 Co3_3 1_555 1_555
N1_3 C1_7 1_555 1_555
N2_7 C2_3 1_555 1_555
N3_3 C2_3 1_555 1_555
N15 C3_3 1_555 1_555
C1_7 O2_7 1_555 1_555
C2_3 N1_3 1_555 1_555
C3_3 N3_3 1_555 1_555
H1_3 C3_3 1_555 1_555
C4_3 N15 1_555 1_555
H2_3 C4_3 1_555 1_555
C5_3 N3_3 1_555 1_555
H3_3 C5_3 1_555 1_555
C4_3 C5_3 1_555 1_555
Co3_4 O1_8 1_555 1_555
O1_8 C6_8 1_555 1_555
O2_8 Co3_4 1_555 1_555
N5_3 C6_8 1_555 1_555
N6_8 C7_3 1_555 1_555
N7_3 C7_3 1_555 1_555
N17_2 C8_3 1_555 1_555
C1_8 O2_8 1_555 1_555
C7_3 N5_3 1_555 1_555
C8_3 N7_3 1_555 1_555
H4_3 C8_3 1_555 1_555
Co5 O1_9 1_555 1_555
O1_9 C6_9 1_555 1_555
O2_9 Co5 1_555 1_555
N1_4 C1_9 1_555 1_555
N2_9 C2_4 1_555 1_555
N3_4 C2_4 1_555 1_555
N5_4 C6_9 1_555 1_555
N6_9 C7_4 1_555 1_555
N7_4 C7_4 1_555 1_555
N17 C8_4 1_555 1_555
C1_9 O2_9 1_555 1_555
C2_4 N1_4 1_555 1_555
C3_4 N3_4 1_555 1_555
H1_4 C3_4 1_555 1_555
C6_9 N9_4 1_555 1_555
C7_4 N5_4 1_555 1_555
C8_4 N7_4 1_555 1_555
H4_4 C8_4 1_555 1_555
C9_3 N17 1_555 1_555
H5_3 C9_3 1_555 1_555
C10_3 N7_4 1_555 1_555
H6_3 C10_3 1_555 1_555
N9_4 C11_4 1_555 1_555
N10_4 C11_4 1_555 1_555
N18 C12_4 1_555 1_555
C11_4 N6_9 1_555 1_555
C12_4 N10_4 1_555 1_555
H7_4 C12_4 1_555 1_555
C13_3 N18 1_555 1_555
H8_3 C13_3 1_555 1_555
C14_3 N10_4 1_555 1_555
H9_3 C14_3 1_555 1_555
N12_4 C1_9 1_555 1_555
N13_4 C15_4 1_555 1_555
C15_4 N2_9 1_555 1_555
C16_4 N13_4 1_555 1_555
H10_4 C16_4 1_555 1_555
C9_3 C10_3 1_555 1_555
C13_3 C14_3 1_555 1_555
N12_4 C15_4 1_555 1_555
C4_4 N15_2 1_555 1_555
H2_4 C4_4 1_555 1_555
H3_4 C5_4 1_555 1_555
C17_4 N16_2 1_555 1_555
H11_4 C17_4 1_555 1_555
H12_4 C18_4 1_555 1_555
C4_4 C5_4 1_555 1_555
C17_4 C18_4 1_555 1_555
H8_4 C13_4 1_555 1_555
H9_4 C14_4 1_555 1_555
C13_4 C14_4 1_555 1_555
H5_4 C9_4 1_555 1_555
H6_4 C10_4 1_555 1_555
C9_4 C10_4 1_555 1_555

#END
