
###############################################################################
#
# This file contains modified crystal structure data generated from the
# MOF subset of the Cambridge Structural Database (CSD) v543 
# hosted by the Cambridge Crystallographic Data Centre (CCDC).
#
# This work is licensed under the Creative Commons
# Attribution-NonCommercial-ShareAlike 4.0 International License.
# To view a copy of this license, visit
# http://creativecommons.org/licenses/by-nc-sa/4.0/
# or send a letter to
# Creative Commons, PO Box 1866, Mountain View, CA 94042, USA.
#
# CIF created using the CSD Python API on 29 September 2022
# The structure has been converted into the P1 space group
# The structure has a 3D framework
# The original CSD entry JIRHAW is in the tetragonal crystal system
# The framework has been calculated to contain at least 10.0% void space
# The void calculation uses a probe of radius 1.32A, grid spacing 0.4
# The framework is charged, counterions have been retained in the structure
#
###############################################################################

data_JIRHAW
_chemical_formula_moiety         '(C76 H48 Mg6 N60 O12)n'
_symmetry_cell_setting           triclinic
_symmetry_space_group_name_H-M   'P 1'
_symmetry_Int_Tables_number      1
_space_group_name_Hall           'P 1'
loop_
_symmetry_equiv_pos_site_id
_symmetry_equiv_pos_as_xyz
1 x,y,z
_cell_length_a                   13.2004(2)
_cell_length_b                   13.2004(2)
_cell_length_c                   25.2743(5)
_cell_angle_alpha                90
_cell_angle_beta                 90
_cell_angle_gamma                90
_cell_volume                     4404.06
loop_
_atom_site_label
_atom_site_type_symbol
_atom_site_fract_x
_atom_site_fract_y
_atom_site_fract_z
Mg3 Mg -0.000000 0.250000 0.625000
Mg1 Mg 0.000000 0.750000 0.375000
O1 O -0.000000 0.750000 0.29649(8)
N1 N -0.000000 0.750000 0.13982(10)
N2 N 0.09071(13) 0.75885(17) 0.22112(7)
N3 N 0.17310(14) 0.76729(17) 0.13995(7)
N4 N 0.33607(14) 0.77115(15) 0.12007(7)
C1 C 0.08295(16) 0.7578(2) 0.16931(8)
C2 C -0.000000 0.750000 0.24731(11)
C3 C 0.17922(19) 0.7768(2) 0.08540(9)
H1 H 0.125592 0.780579 0.061618
C4 C 0.27025(17) 0.7645(2) 0.15889(8)
H2 H 0.287324 0.758669 0.194462
C5 C 0.27864(19) 0.77958(19) 0.07399(9)
H3 H 0.305360 0.786180 0.040121
O2 O -0.000000 0.750000 0.45351(8)
N8 N -0.000000 0.750000 0.61018(10)
N9 N 0.00885(17) 0.65929(13) 0.52888(7)
N10 N 0.01729(17) 0.57690(14) 0.61005(7)
N11 N 0.02115(15) 0.41393(14) 0.62993(7)
C10 C 0.0078(2) 0.66705(16) 0.58069(8)
C11 C 0.000000 0.750000 0.50269(11)
C12 C 0.0268(2) 0.57078(19) 0.66460(9)
H7 H 0.030579 0.624408 0.688382
C13 C 0.0145(2) 0.47975(17) 0.59111(8)
H8 H 0.008669 0.462676 0.555538
C14 C 0.02958(19) 0.47136(19) 0.67601(9)
H9 H 0.036180 0.444640 0.709879
Mg5 Mg 0.500000 0.750000 0.125000
N16 N 0.02115(15) 0.91393(14) 0.37007(7)
N18 N 0.16393(14) 0.72885(15) 0.37993(7)
N14 N 0.97885(15) 0.08607(14) 0.62993(7)
C17 C 0.9855(2) 0.02025(17) 0.59111(8)
H11 H 0.991331 0.037324 0.555538
C18 C 0.97042(19) 0.02864(19) 0.67601(9)
H12 H 0.963820 0.055360 0.709879
Mg3_2 Mg 1.000000 0.250000 0.625000
Mg1_2 Mg 1.000000 0.750000 0.375000
O1_2 O 1.000000 0.750000 0.29649(8)
N1_2 N 1.000000 0.750000 0.13982(10)
C2_2 C 1.000000 0.750000 0.24731(11)
N5 N 0.90929(13) 0.74115(17) 0.22112(7)
N6 N 0.82690(14) 0.73271(17) 0.13995(7)
N7 N 0.66393(14) 0.72885(15) 0.12007(7)
C6 C 0.91705(16) 0.7422(2) 0.16931(8)
C7 C 0.82078(19) 0.7232(2) 0.08540(9)
H4 H 0.874408 0.719421 0.061618
C8 C 0.72975(17) 0.7355(2) 0.15889(8)
H5 H 0.712676 0.741331 0.194462
C9 C 0.72136(19) 0.72042(19) 0.07399(9)
H6 H 0.694640 0.713820 0.040121
O2_2 O 1.000000 0.750000 0.45351(8)
N8_2 N 1.000000 0.750000 0.61018(10)
C11_2 C 1.000000 0.750000 0.50269(11)
N12 N 0.99115(17) 0.84071(13) 0.52888(7)
N13 N 0.98271(17) 0.92310(14) 0.61005(7)
C15 C 0.9922(2) 0.83295(16) 0.58069(8)
C16 C 0.9732(2) 0.92922(19) 0.66460(9)
H10 H 0.969421 0.875592 0.688382
N15 N 0.97885(15) 0.58607(14) 0.37007(7)
N17 N 0.83607(14) 0.77115(15) 0.37993(7)
O1_3 O 0.000000 0.250000 0.54649(8)
N1_3 N -0.000000 0.250000 0.38982(10)
C2_3 C 0.000000 0.250000 0.49731(11)
N5_2 N 0.00885(17) 0.15929(13) 0.47112(7)
N6_2 N 0.01729(17) 0.07690(14) 0.38995(7)
C6_2 C 0.0078(2) 0.16705(16) 0.41931(8)
C7_2 C 0.0268(2) 0.07078(19) 0.33540(9)
H4_2 H 0.030579 0.124408 0.311618
O2_3 O 0.000000 0.250000 0.70351(8)
N8_3 N 0.000000 0.250000 0.86018(10)
N9_2 N 0.09071(13) 0.25885(17) 0.77888(7)
N10_2 N 0.17310(14) 0.26729(17) 0.86005(7)
N11_2 N 0.33607(14) 0.27115(15) 0.87993(7)
C10_2 C 0.08295(16) 0.2578(2) 0.83069(8)
C11_3 C 0.000000 0.250000 0.75269(11)
C12_2 C 0.17922(19) 0.2768(2) 0.91460(9)
H7_2 H 0.125592 0.280579 0.938382
C13_2 C 0.27025(17) 0.2645(2) 0.84111(8)
H8_2 H 0.287324 0.258669 0.805538
C14_2 C 0.27864(19) 0.27958(19) 0.92601(9)
H9_2 H 0.305360 0.286180 0.959879
Mg2 Mg 0.500000 0.250000 0.875000
N15_2 N 0.16393(14) 0.22885(15) 0.62007(7)
C8_2 C 0.0145(2) 0.97975(17) 0.40889(8)
H5_2 H 0.008669 0.962676 0.444462
C9_2 C 0.02958(19) 0.97136(19) 0.32399(9)
H6_2 H 0.036180 0.944640 0.290121
O1_4 O 1.000000 0.250000 0.54649(8)
N1_4 N 1.000000 0.250000 0.38982(10)
N2_2 N 0.99115(17) 0.34071(13) 0.47112(7)
N3_2 N 0.98271(17) 0.42310(14) 0.38995(7)
C1_2 C 0.9922(2) 0.33295(16) 0.41931(8)
C2_4 C 1.000000 0.250000 0.49731(11)
C3_2 C 0.9732(2) 0.42922(19) 0.33540(9)
H1_2 H 0.969421 0.375592 0.311618
C4_2 C 0.9855(2) 0.52025(17) 0.40889(8)
H2_2 H 0.991331 0.537324 0.444462
C5_2 C 0.97042(19) 0.52864(19) 0.32399(9)
H3_2 H 0.963820 0.555360 0.290121
O2_4 O 1.000000 0.250000 0.70351(8)
N8_4 N 1.000000 0.250000 0.86018(10)
C11_4 C 1.000000 0.250000 0.75269(11)
N12_2 N 0.90929(13) 0.24115(17) 0.77888(7)
N13_2 N 0.82690(14) 0.23271(17) 0.86005(7)
N14_2 N 0.66393(14) 0.22885(15) 0.87993(7)
C15_2 C 0.91705(16) 0.2422(2) 0.83069(8)
C16_2 C 0.82078(19) 0.2232(2) 0.91460(9)
H10_2 H 0.874408 0.219421 0.938382
C17_2 C 0.72975(17) 0.2355(2) 0.84111(8)
H11_2 H 0.712676 0.241331 0.805538
C18_2 C 0.72136(19) 0.22042(19) 0.92601(9)
H12_2 H 0.694640 0.213820 0.959879
N16_2 N 0.83607(14) 0.27115(15) 0.62007(7)
N8_5 N 0.500000 0.250000 0.11018(10)
N9_3 N 0.49115(17) 0.34071(13) 0.02888(7)
N10_3 N 0.48271(17) 0.42310(14) 0.11005(7)
N11_3 N 0.47885(15) 0.58607(14) 0.12993(7)
C10_3 C 0.4922(2) 0.33295(16) 0.08069(8)
C11_5 C 0.500000 0.250000 0.00269(11)
C12_3 C 0.4732(2) 0.42922(19) 0.16460(9)
H7_3 H 0.469421 0.375592 0.188382
C13_3 C 0.4855(2) 0.52025(17) 0.09111(8)
H8_3 H 0.491331 0.537324 0.055538
C14_3 C 0.47042(19) 0.52864(19) 0.17601(9)
H9_3 H 0.463820 0.555360 0.209879
N12_3 N 0.50885(17) 0.15929(13) 0.02888(7)
N13_3 N 0.51729(17) 0.07690(14) 0.11005(7)
C15_3 C 0.5078(2) 0.16705(16) 0.08069(8)
C16_3 C 0.5268(2) 0.07078(19) 0.16460(9)
H10_3 H 0.530579 0.124408 0.188382
O1_5 O 0.500000 0.250000 0.79649(8)
N1_5 N 0.500000 0.250000 0.63982(10)
N2_3 N 0.40929(13) 0.24115(17) 0.72112(7)
N3_3 N 0.32690(14) 0.23271(17) 0.63995(7)
C1_3 C 0.41705(16) 0.2422(2) 0.66931(8)
C2_5 C 0.500000 0.250000 0.74731(11)
C3_3 C 0.32078(19) 0.2232(2) 0.58540(9)
H1_3 H 0.374408 0.219421 0.561618
C4_3 C 0.22975(17) 0.2355(2) 0.65889(8)
H2_3 H 0.212676 0.241331 0.694462
C5_3 C 0.22136(19) 0.22042(19) 0.57399(9)
H3_3 H 0.194640 0.213820 0.540121
N5_3 N 0.59071(13) 0.25885(17) 0.72112(7)
N6_3 N 0.67310(14) 0.26729(17) 0.63995(7)
C6_3 C 0.58295(16) 0.2578(2) 0.66931(8)
C7_3 C 0.67922(19) 0.2768(2) 0.58540(9)
H4_3 H 0.625592 0.280579 0.561618
C8_3 C 0.77025(17) 0.2645(2) 0.65889(8)
H5_3 H 0.787324 0.258669 0.694462
C9_3 C 0.77864(19) 0.27958(19) 0.57399(9)
H6_3 H 0.805360 0.286180 0.540121
O2_5 O 0.500000 0.250000 0.95351(8)
N15_3 N 0.52115(15) 0.41393(14) 0.87007(7)
N16_3 N 0.47885(15) 0.08607(14) 0.87007(7)
N14_3 N 0.52115(15) 0.91393(14) 0.12993(7)
C17_3 C 0.5145(2) 0.97975(17) 0.09111(8)
H11_3 H 0.508669 0.962676 0.055538
C18_3 C 0.52958(19) 0.97136(19) 0.17601(9)
H12_3 H 0.536180 0.944640 0.209879
C8_4 C 0.4855(2) 0.02025(17) 0.90889(8)
H5_4 H 0.491331 0.037324 0.944462
C9_4 C 0.47042(19) 0.02864(19) 0.82399(9)
H6_4 H 0.463820 0.055360 0.790121
O1_6 O 0.500000 0.750000 0.04649(8)
O2_6 O 0.500000 0.750000 0.20351(8)
N8_6 N 0.500000 0.750000 0.36018(10)
N9_4 N 0.40929(13) 0.74115(17) 0.27888(7)
N10_4 N 0.32690(14) 0.73271(17) 0.36005(7)
C10_4 C 0.41705(16) 0.7422(2) 0.33069(8)
C11_6 C 0.500000 0.750000 0.25269(11)
C12_4 C 0.32078(19) 0.7232(2) 0.41460(9)
H7_4 H 0.374408 0.719421 0.438382
C13_4 C 0.22975(17) 0.7355(2) 0.34111(8)
H8_4 H 0.212676 0.741331 0.305538
C14_4 C 0.22136(19) 0.72042(19) 0.42601(9)
H9_4 H 0.194640 0.713820 0.459879
N12_4 N 0.59071(13) 0.75885(17) 0.27888(7)
N13_4 N 0.67310(14) 0.76729(17) 0.36005(7)
C15_4 C 0.58295(16) 0.7578(2) 0.33069(8)
C16_4 C 0.67922(19) 0.7768(2) 0.41460(9)
H10_4 H 0.625592 0.780579 0.438382
C17_4 C 0.77025(17) 0.7645(2) 0.34111(8)
H11_4 H 0.787324 0.758669 0.305538
C18_4 C 0.77864(19) 0.77958(19) 0.42601(9)
H12_4 H 0.805360 0.786180 0.459879
N1_6 N 0.500000 0.750000 0.88982(10)
N2_4 N 0.50885(17) 0.65929(13) 0.97112(7)
N3_4 N 0.51729(17) 0.57690(14) 0.88995(7)
C1_4 C 0.5078(2) 0.66705(16) 0.91931(8)
C2_6 C 0.500000 0.750000 0.99731(11)
C3_4 C 0.5268(2) 0.57078(19) 0.83540(9)
H1_4 H 0.530579 0.624408 0.811618
C4_4 C 0.5145(2) 0.47975(17) 0.90889(8)
H2_4 H 0.508669 0.462676 0.944462
C5_4 C 0.52958(19) 0.47136(19) 0.82399(9)
H3_4 H 0.536180 0.444640 0.790121
N5_4 N 0.49115(17) 0.84071(13) 0.97112(7)
N6_4 N 0.48271(17) 0.92310(14) 0.88995(7)
C6_4 C 0.4922(2) 0.83295(16) 0.91931(8)
C7_4 C 0.4732(2) 0.92922(19) 0.83540(9)
H4_4 H 0.469421 0.875592 0.811618
loop_
_geom_bond_atom_site_label_1
_geom_bond_atom_site_label_2
_geom_bond_site_symmetry_1
_geom_bond_site_symmetry_2
Mg1 O1 1_555 1_555
O1 C2 1_555 1_555
N1 C1 1_555 1_555
N2 C1 1_555 1_555
N3 C1 1_555 1_555
N4 C4 1_555 1_555
C2 N2 1_555 1_555
C3 N3 1_555 1_555
H1 C3 1_555 1_555
C4 N3 1_555 1_555
H2 C4 1_555 1_555
C5 N4 1_555 1_555
H3 C5 1_555 1_555
O2 Mg1 1_555 1_555
N8 C10 1_555 1_555
N9 C10 1_555 1_555
N10 C10 1_555 1_555
N11 C13 1_555 1_555
C11 O2 1_555 1_555
C12 N10 1_555 1_555
H7 C12 1_555 1_555
C13 N10 1_555 1_555
H8 C13 1_555 1_555
C14 N11 1_555 1_555
H9 C14 1_555 1_555
Mg3 N11 1_555 1_555
Mg5 N4 1_555 1_555
N16 Mg1 1_555 1_555
N18 Mg1 1_555 1_555
C3 C5 1_555 1_555
N9 C11 1_555 1_555
C12 C14 1_555 1_555
N14 C17 1_555 1_555
H11 C17 1_555 1_555
C18 N14 1_555 1_555
H12 C18 1_555 1_555
Mg3_2 N14 1_555 1_555
Mg1_2 O1_2 1_555 1_555
O1_2 C2_2 1_555 1_555
N5 C2_2 1_555 1_555
N6 C6 1_555 1_555
N7 C8 1_555 1_555
C6 N1_2 1_555 1_555
C7 N6 1_555 1_555
H4 C7 1_555 1_555
C8 N6 1_555 1_555
H5 C8 1_555 1_555
C9 N7 1_555 1_555
H6 C9 1_555 1_555
O2_2 Mg1_2 1_555 1_555
C11_2 O2_2 1_555 1_555
N12 C11_2 1_555 1_555
N13 C15 1_555 1_555
C15 N8_2 1_555 1_555
C16 N13 1_555 1_555
H10 C16 1_555 1_555
Mg5 N7 1_555 1_555
N15 Mg1_2 1_555 1_555
N17 Mg1_2 1_555 1_555
N5 C6 1_555 1_555
C7 C9 1_555 1_555
N12 C15 1_555 1_555
Mg3 O1_3 1_555 1_555
O1_3 C2_3 1_555 1_555
N5_2 C2_3 1_555 1_555
N6_2 C6_2 1_555 1_555
C6_2 N1_3 1_555 1_555
C7_2 N6_2 1_555 1_555
H4_2 C7_2 1_555 1_555
O2_3 Mg3 1_555 1_555
N8_3 C10_2 1_555 1_555
N9_2 C10_2 1_555 1_555
N10_2 C10_2 1_555 1_555
N11_2 C13_2 1_555 1_555
C11_3 O2_3 1_555 1_555
C12_2 N10_2 1_555 1_555
H7_2 C12_2 1_555 1_555
C13_2 N10_2 1_555 1_555
H8_2 C13_2 1_555 1_555
C14_2 N11_2 1_555 1_555
H9_2 C14_2 1_555 1_555
Mg2 N11_2 1_555 1_555
N15_2 Mg3 1_555 1_555
N5_2 C6_2 1_555 1_555
N9_2 C11_3 1_555 1_555
C12_2 C14_2 1_555 1_555
N16 C8_2 1_555 1_555
H5_2 C8_2 1_555 1_555
C9_2 N16 1_555 1_555
H6_2 C9_2 1_555 1_555
Mg3_2 O1_4 1_555 1_555
O1_4 C2_4 1_555 1_555
N1_4 C1_2 1_555 1_555
N2_2 C1_2 1_555 1_555
N3_2 C1_2 1_555 1_555
N15 C4_2 1_555 1_555
C2_4 N2_2 1_555 1_555
C3_2 N3_2 1_555 1_555
H1_2 C3_2 1_555 1_555
C4_2 N3_2 1_555 1_555
H2_2 C4_2 1_555 1_555
C5_2 N15 1_555 1_555
H3_2 C5_2 1_555 1_555
O2_4 Mg3_2 1_555 1_555
C11_4 O2_4 1_555 1_555
N12_2 C11_4 1_555 1_555
N13_2 C15_2 1_555 1_555
N14_2 C17_2 1_555 1_555
C15_2 N8_4 1_555 1_555
C16_2 N13_2 1_555 1_555
H10_2 C16_2 1_555 1_555
C17_2 N13_2 1_555 1_555
H11_2 C17_2 1_555 1_555
C18_2 N14_2 1_555 1_555
H12_2 C18_2 1_555 1_555
Mg2 N14_2 1_555 1_555
N16_2 Mg3_2 1_555 1_555
C3_2 C5_2 1_555 1_555
N12_2 C15_2 1_555 1_555
C16_2 C18_2 1_555 1_555
N8_5 C10_3 1_555 1_555
N9_3 C10_3 1_555 1_555
N10_3 C10_3 1_555 1_555
N11_3 C13_3 1_555 1_555
C12_3 N10_3 1_555 1_555
H7_3 C12_3 1_555 1_555
C13_3 N10_3 1_555 1_555
H8_3 C13_3 1_555 1_555
C14_3 N11_3 1_555 1_555
H9_3 C14_3 1_555 1_555
N12_3 C11_5 1_555 1_555
N13_3 C15_3 1_555 1_555
C15_3 N8_5 1_555 1_555
C16_3 N13_3 1_555 1_555
H10_3 C16_3 1_555 1_555
Mg5 N11_3 1_555 1_555
N9_3 C11_5 1_555 1_555
C12_3 C14_3 1_555 1_555
N12_3 C15_3 1_555 1_555
Mg2 O1_5 1_555 1_555
O1_5 C2_5 1_555 1_555
N1_5 C1_3 1_555 1_555
N2_3 C1_3 1_555 1_555
N3_3 C1_3 1_555 1_555
N15_2 C4_3 1_555 1_555
C2_5 N2_3 1_555 1_555
C3_3 N3_3 1_555 1_555
H1_3 C3_3 1_555 1_555
C4_3 N3_3 1_555 1_555
H2_3 C4_3 1_555 1_555
C5_3 N15_2 1_555 1_555
H3_3 C5_3 1_555 1_555
N5_3 C2_5 1_555 1_555
N6_3 C6_3 1_555 1_555
N16_2 C8_3 1_555 1_555
C6_3 N1_5 1_555 1_555
C7_3 N6_3 1_555 1_555
H4_3 C7_3 1_555 1_555
C8_3 N6_3 1_555 1_555
H5_3 C8_3 1_555 1_555
C9_3 N16_2 1_555 1_555
H6_3 C9_3 1_555 1_555
O2_5 Mg2 1_555 1_555
N15_3 Mg2 1_555 1_555
N16_3 Mg2 1_555 1_555
C3_3 C5_3 1_555 1_555
N5_3 C6_3 1_555 1_555
C7_3 C9_3 1_555 1_555
N14_3 C17_3 1_555 1_555
H11_3 C17_3 1_555 1_555
C18_3 N14_3 1_555 1_555
H12_3 C18_3 1_555 1_555
Mg5 N14_3 1_555 1_555
N16_3 C8_4 1_555 1_555
H5_4 C8_4 1_555 1_555
C9_4 N16_3 1_555 1_555
H6_4 C9_4 1_555 1_555
Mg5 O1_6 1_555 1_555
O2_6 Mg5 1_555 1_555
N8_6 C10_4 1_555 1_555
N9_4 C10_4 1_555 1_555
N10_4 C10_4 1_555 1_555
N18 C13_4 1_555 1_555
C11_6 O2_6 1_555 1_555
C12_4 N10_4 1_555 1_555
H7_4 C12_4 1_555 1_555
C13_4 N10_4 1_555 1_555
H8_4 C13_4 1_555 1_555
C14_4 N18 1_555 1_555
H9_4 C14_4 1_555 1_555
N12_4 C11_6 1_555 1_555
N13_4 C15_4 1_555 1_555
N17 C17_4 1_555 1_555
C15_4 N8_6 1_555 1_555
C16_4 N13_4 1_555 1_555
H10_4 C16_4 1_555 1_555
C17_4 N13_4 1_555 1_555
H11_4 C17_4 1_555 1_555
C18_4 N17 1_555 1_555
H12_4 C18_4 1_555 1_555
N9_4 C11_6 1_555 1_555
C12_4 C14_4 1_555 1_555
N12_4 C15_4 1_555 1_555
C16_4 C18_4 1_555 1_555
N1_6 C1_4 1_555 1_555
N2_4 C1_4 1_555 1_555
N3_4 C1_4 1_555 1_555
N15_3 C4_4 1_555 1_555
C2_6 N2_4 1_555 1_555
C3_4 N3_4 1_555 1_555
H1_4 C3_4 1_555 1_555
C4_4 N3_4 1_555 1_555
H2_4 C4_4 1_555 1_555
C5_4 N15_3 1_555 1_555
H3_4 C5_4 1_555 1_555
N5_4 C2_6 1_555 1_555
N6_4 C6_4 1_555 1_555
C6_4 N1_6 1_555 1_555
C7_4 N6_4 1_555 1_555
H4_4 C7_4 1_555 1_555
C3_4 C5_4 1_555 1_555
N5_4 C6_4 1_555 1_555

#END
