
###############################################################################
#
# This file contains modified crystal structure data generated from the
# MOF subset of the Cambridge Structural Database (CSD) v543 
# hosted by the Cambridge Crystallographic Data Centre (CCDC).
#
# This work is licensed under the Creative Commons
# Attribution-NonCommercial-ShareAlike 4.0 International License.
# To view a copy of this license, visit
# http://creativecommons.org/licenses/by-nc-sa/4.0/
# or send a letter to
# Creative Commons, PO Box 1866, Mountain View, CA 94042, USA.
#
# CIF created using the CSD Python API on 29 September 2022
# The structure has been converted into the P1 space group
# The structure has a 3D framework
# The original CSD entry JISMUW is in the triclinic crystal system
# The framework has been calculated to contain at least 10.0% void space
# The void calculation uses a probe of radius 1.32A, grid spacing 0.4
#
###############################################################################

data_JISMUW
_chemical_formula_moiety         '(C128 H76 N4 O36 Zn6)n'
_symmetry_cell_setting           triclinic
_symmetry_space_group_name_H-M   'P 1'
_symmetry_Int_Tables_number      1
_space_group_name_Hall           'P 1'
loop_
_symmetry_equiv_pos_site_id
_symmetry_equiv_pos_as_xyz
1 x,y,z
_cell_length_a                   16.3500(12)
_cell_length_b                   16.6181(12)
_cell_length_c                   17.5114(12)
_cell_angle_alpha                88.7490(10)
_cell_angle_beta                 83.1040(10)
_cell_angle_gamma                66.5740(10)
_cell_volume                     4332.44
loop_
_atom_site_label
_atom_site_type_symbol
_atom_site_fract_x
_atom_site_fract_y
_atom_site_fract_z
O1 O 0.56078(15) 0.56592(15) 0.19009(13)
O6 O 0.56929(17) 0.57791(17) 0.06299(15)
O12 O 0.19012(19) 0.88520(17) 0.1571(2)
C4 C 0.5314(2) 0.6004(2) 0.1312(2)
C9 C 0.4404(2) 0.6773(2) 0.1369(2)
C13 C 0.3992(3) 0.7149(3) 0.2100(2)
H4 H 0.4282 0.6942 0.2534
C15 C 0.1190(3) 0.7845(3) 0.1507(2)
H6 H 0.1742 0.7370 0.1432
C16 C 0.1141(3) 0.8672(3) 0.1584(2)
C22 C 0.3158(3) 0.7825(3) 0.2167(3)
H8 H 0.2867 0.8075 0.2646
O17 O 0.0523(2) 0.6858(2) 0.1520(3)
C26 C 0.2749(3) 0.8135(3) 0.1481(4)
C31 C 0.0341(3) 0.9386(3) 0.1689(3)
H15 H 0.0323 0.9949 0.1744
C34 C 0.0408(3) 0.7729(3) 0.1543(3)
C36 C 0.3975(3) 0.7096(3) 0.0725(2)
H19 H 0.4251 0.6850 0.0241
C53 C 0.3152(3) 0.7772(3) 0.0797(3)
H30 H 0.2868 0.7982 0.0361
H38 H 0.0053 0.6575 0.0195
Zn8 Zn 0.67710(3) 0.46809(3) 0.21696(2)
Zn12 Zn 0.69286(3) 0.49163(3) 0.03123(2)
O4 O 0.69258(17) 0.39637(16) 0.11069(14)
O13 O 0.8027(2) 0.3501(2) 0.01550(17)
C14 C 0.8655(3) 0.1752(3) 0.0609(2)
H5 H 0.8945 0.1884 0.0165
C17 C 0.7922(3) 0.2433(3) 0.1021(2)
C19 C 0.7619(3) 0.3342(3) 0.0758(2)
C29 C 0.7489(3) 0.2236(3) 0.1668(3)
H13 H 0.6983 0.2675 0.1925
C32 C 0.8951(3) 0.0909(3) 0.0840(3)
H16 H 0.9425 0.0461 0.0557
C39 C 0.8515(3) 0.0745(3) 0.1520(4)
C48 C 0.7788(3) 0.1398(3) 0.1949(3)
H26 H 0.7515 0.1273 0.2407
O8 O 0.75692(17) 0.53164(18) 0.16400(17)
O11 O 0.7787(2) 0.5451(2) 0.04089(17)
C2 C 0.7932(3) 0.5535(3) 0.1053(2)
O15 O 0.8727(2) 0.9909(2) 0.1843(3)
C20 C 0.8579(3) 0.5936(3) 0.1152(3)
C37 C 0.9578(3) 0.9248(3) 0.1711(3)
C51 C 0.9596(3) 0.8424(3) 0.1624(3)
H28 H 0.9067 0.8340 0.1621
C56 C 0.8733(3) 0.6100(4) 0.1904(3)
H32 H 0.8420 0.5967 0.2332
C58 C 0.9815(3) 0.6620(3) 0.1414(5)
C62 C 0.9092(4) 0.6098(4) 0.0540(3)
H36 H 0.9016 0.5964 0.0047
C63 C 0.9344(4) 0.6456(4) 0.2000(4)
H37 H 0.9422 0.6582 0.2494
C64 C 0.9720(4) 0.6454(5) 0.0616(5)
Zn2 Zn 0.68249(3) 0.44668(3) 0.40091(2)
O3 O 0.59785(15) 0.40288(16) 0.26964(14)
O5 O 0.60585(18) 0.38403(17) 0.39425(14)
N1 N 0.6837(2) 0.48962(19) 0.91710(16)
N2 N 0.6854(2) 0.4566(2) 0.51659(16)
C1 C 0.5792(2) 0.3738(2) 0.3328(2)
C5 C 0.6071(3) 0.5120(2) 0.8863(2)
H1 H 0.5535 0.5315 0.9192
C6 C 0.6030(2) 0.5077(2) 0.80736(19)
H2 H 0.5478 0.5246 0.7887
C7 C 0.6816(2) 0.4780(2) 0.7573(2)
C8 C 0.5183(2) 0.3269(2) 0.3373(2)
O16 O 0.3246(2) 0.2226(3) 0.3543(2)
C10 C 0.6825(2) 0.4708(2) 0.6759(2)
C12 C 0.6213(3) 0.4462(3) 0.5644(2)
H3 H 0.5773 0.4341 0.5442
C21 C 0.6180(3) 0.4526(2) 0.6429(2)
H7 H 0.5720 0.4447 0.6745
C24 C 0.4967(3) 0.2983(3) 0.2687(3)
H10 H 0.5251 0.3049 0.2211
C25 C 0.4759(3) 0.3168(3) 0.4072(2)
H11 H 0.4886 0.3361 0.4520
C27 C 0.7596(3) 0.4615(3) 0.8689(2)
H12 H 0.8141 0.4447 0.8889
C30 C 0.7460(3) 0.4759(3) 0.5439(2)
H14 H 0.7891 0.4858 0.5099
O18 O 0.1794(2) 0.0710(3) 0.2367(3)
C38 C 0.7600(3) 0.4566(3) 0.7915(2)
H20 H 0.8147 0.4382 0.7602
C40 C 0.3935(3) 0.2520(3) 0.3479(3)
C41 C 0.7484(3) 0.4824(3) 0.6234(2)
H21 H 0.7939 0.4943 0.6412
C43 C 0.4148(3) 0.2786(3) 0.4118(3)
H22 H 0.3879 0.2711 0.4597
C44 C 0.3313(3) 0.1510(3) 0.3090(3)
C45 C 0.2529(3) 0.1506(3) 0.2931(3)
H23 H 0.1993 0.1995 0.3039
C47 C 0.4121(3) 0.0809(3) 0.2906(3)
H25 H 0.4655 0.0824 0.3023
C49 C 0.4343(3) 0.2613(3) 0.2720(3)
H27 H 0.4193 0.2432 0.2278
C50 C 0.4116(3) 0.0098(3) 0.2551(3)
C52 C 0.3349(3) 0.0063(3) 0.2395(4)
C55 C 0.2546(3) 0.0774(3) 0.2613(4)
C59 C 0.0938(4) 0.1397(4) 0.2532(6)
C60 C 0.0511(4) 0.1824(4) 0.1918(4)
H34 H 0.0781 0.1690 0.1412
C61 C 0.0563(4) 0.1581(4) 0.3272(4)
H35 H 0.0872 0.1268 0.3667
O21 O 0.66559(16) 0.54142(15) 0.32478(13)
O27 O 0.80603(18) 0.36368(19) 0.36936(16)
O28 O 0.5566(2) 0.59293(18) 0.41818(16)
O14 O 0.49386(19) 0.94123(19) 0.2310(2)
C3 C 0.5979(3) 0.6061(3) 0.3601(2)
C11 C 0.5705(2) 0.6940(2) 0.3298(2)
C23 C 0.4983(3) 0.7639(3) 0.3639(2)
H9 H 0.4666 0.7553 0.4089
C33 C 0.6166(3) 0.7099(3) 0.2610(3)
H17 H 0.6673 0.6643 0.2372
C35 C 0.4708(3) 0.8462(3) 0.3344(3)
H18 H 0.4218 0.8920 0.3600
C42 C 0.5149(3) 0.8621(3) 0.2668(3)
C46 C 0.5873(3) 0.7937(3) 0.2276(3)
H24 H 0.6157 0.8027 0.1809
H29 H 0.3353 0.9573 0.2146
O7 O 0.79365(17) 0.37253(17) 0.24546(15)
C18 C 0.8349(3) 0.3402(3) 0.2989(2)
C28 C 0.9262(3) 0.2687(3) 0.2823(3)
C54 C 0.9667(3) 0.2456(4) 0.2099(3)
H31 H 0.9352 0.2745 0.1698
C57 C 0.9723(3) 0.2231(3) 0.3433(4)
H33 H 0.9459 0.2371 0.3940
Zn1 Zn 0.32290(3) 0.53191(3) 0.78304(2)
O7_2 O 0.20635(17) 0.62747(17) 0.75454(15)
O9 O 0.19397(18) 0.63632(19) 0.63064(16)
C18_2 C 0.1651(3) 0.6598(3) 0.7011(2)
C28_2 C 0.0738(3) 0.7313(3) 0.7177(3)
C54_2 C 0.0333(3) 0.7544(4) 0.7901(3)
H31_2 H 0.0648 0.7255 0.8302
C57_2 C 0.0277(3) 0.7769(3) 0.6567(4)
H33_2 H 0.0541 0.7629 0.6060
Zn9 Zn 0.31751(3) 0.55332(3) 0.59909(2)
O19 O 0.43922(15) 0.43408(15) 0.80991(13)
O20 O 0.33441(16) 0.45858(15) 0.67522(13)
O22 O 0.40215(15) 0.59712(16) 0.73036(14)
O23 O 0.30742(17) 0.60363(16) 0.88931(14)
O26 O 0.24308(17) 0.46836(18) 0.83600(17)
O10 O 0.4434(2) 0.40707(18) 0.58182(16)
O14_2 O 0.50614(19) 0.05877(19) 0.7690(2)
C3_2 C 0.4021(3) 0.3939(3) 0.6399(2)
C11_2 C 0.4295(2) 0.3060(2) 0.6702(2)
C23_2 C 0.5017(3) 0.2361(3) 0.6361(2)
H9_2 H 0.5334 0.2447 0.5911
C33_2 C 0.3834(3) 0.2901(3) 0.7390(3)
H17_2 H 0.3327 0.3357 0.7628
C35_2 C 0.5292(3) 0.1538(3) 0.6656(3)
H18_2 H 0.5782 0.1080 0.6400
C42_2 C 0.4851(3) 0.1379(3) 0.7332(3)
C46_2 C 0.4127(3) 0.2063(3) 0.7724(3)
H24_2 H 0.3843 0.1973 0.8191
H29_2 H 0.6647 0.0427 0.7854
O5_2 O 0.39415(18) 0.61597(17) 0.60575(14)
N1_2 N 0.3163(2) 0.51038(19) 0.08290(16)
N2_2 N 0.3146(2) 0.5434(2) 0.48341(16)
C1_2 C 0.4208(2) 0.6262(2) 0.6672(2)
C5_2 C 0.3929(3) 0.4880(2) 0.1137(2)
H1_2 H 0.4465 0.4685 0.0808
C6_2 C 0.3970(2) 0.4923(2) 0.19264(19)
H2_2 H 0.4522 0.4754 0.2113
C7_2 C 0.3184(2) 0.5220(2) 0.2427(2)
C8_2 C 0.4817(2) 0.6731(2) 0.6627(2)
O16_2 O 0.6754(2) 0.7774(3) 0.6457(2)
C10_2 C 0.3175(2) 0.5292(2) 0.3241(2)
C12_2 C 0.3787(3) 0.5538(3) 0.4356(2)
H3_2 H 0.4227 0.5659 0.4558
C21_2 C 0.3820(3) 0.5474(2) 0.3571(2)
H7_2 H 0.4280 0.5553 0.3255
C24_2 C 0.5033(3) 0.7017(3) 0.7313(3)
H10_2 H 0.4749 0.6951 0.7789
C25_2 C 0.5241(3) 0.6832(3) 0.5928(2)
H11_2 H 0.5114 0.6639 0.5480
C27_2 C 0.2404(3) 0.5385(3) 0.1311(2)
H12_2 H 0.1859 0.5553 0.1111
C30_2 C 0.2540(3) 0.5241(3) 0.4561(2)
H14_2 H 0.2109 0.5142 0.4901
O18_2 O 0.8206(2) 0.9290(3) 0.7633(3)
C38_2 C 0.2400(3) 0.5434(3) 0.2085(2)
H20_2 H 0.1853 0.5618 0.2398
C40_2 C 0.6065(3) 0.7480(3) 0.6521(3)
C41_2 C 0.2516(3) 0.5176(3) 0.3766(2)
H21_2 H 0.2061 0.5057 0.3588
C43_2 C 0.5852(3) 0.7214(3) 0.5882(3)
H22_2 H 0.6121 0.7289 0.5403
C44_2 C 0.6687(3) 0.8490(3) 0.6910(3)
C45_2 C 0.7471(3) 0.8494(3) 0.7069(3)
H23_2 H 0.8007 0.8005 0.6961
C47_2 C 0.5879(3) 0.9191(3) 0.7094(3)
H25_2 H 0.5345 0.9176 0.6977
C49_2 C 0.5657(3) 0.7387(3) 0.7280(3)
H27_2 H 0.5807 0.7568 0.7722
C50_2 C 0.5884(3) 0.9902(3) 0.7449(3)
C52_2 C 0.6651(3) 0.9937(3) 0.7605(4)
C55_2 C 0.7454(3) 0.9226(3) 0.7387(4)
C59_2 C 0.9062(4) 0.8603(4) 0.7468(6)
C60_2 C 0.9489(4) 0.8176(4) 0.8082(4)
H34_2 H 0.9219 0.8310 0.8588
C61_2 C 0.9437(4) 0.8419(4) 0.6728(4)
H35_2 H 0.9128 0.8732 0.6333
Zn3 Zn 0.30714(3) 0.50837(3) 0.96877(2)
O11_2 O 0.2213(2) 0.4549(2) 0.95911(17)
C2_2 C 0.2068(3) 0.4465(3) 0.8947(2)
O15_2 O 0.1273(2) 0.0091(2) 0.8157(3)
C20_2 C 0.1421(3) 0.4064(3) 0.8848(3)
C37_2 C 0.0422(3) 0.0752(3) 0.8289(3)
C51_2 C 0.0404(3) 0.1576(3) 0.8376(3)
H28_2 H 0.0933 0.1660 0.8379
C56_2 C 0.1267(3) 0.3900(4) 0.8096(3)
H32_2 H 0.1580 0.4033 0.7668
C58_2 C 0.0185(3) 0.3380(3) 0.8586(5)
C62_2 C 0.0908(4) 0.3902(4) 0.9460(3)
H36_2 H 0.0984 0.4036 0.9953
C63_2 C 0.0656(4) 0.3544(4) 0.8000(4)
H37_2 H 0.0578 0.3418 0.7506
C64_2 C 0.0280(4) 0.3546(5) 0.9384(5)
O25 O 0.43071(17) 0.42209(17) 0.93701(15)
O29 O 0.1973(2) 0.6499(2) 0.98450(17)
C14_2 C 0.1345(3) 0.8248(3) 0.9391(2)
H5_2 H 0.1055 0.8116 0.9835
C17_2 C 0.2078(3) 0.7567(3) 0.8979(2)
C19_2 C 0.2381(3) 0.6658(3) 0.9242(2)
C29_2 C 0.2511(3) 0.7764(3) 0.8332(3)
H13_2 H 0.3017 0.7325 0.8075
C32_2 C 0.1049(3) 0.9091(3) 0.9160(3)
H16_2 H 0.0575 0.9539 0.9443
C39_2 C 0.1485(3) 0.9255(3) 0.8480(4)
C48_2 C 0.2212(3) 0.8602(3) 0.8051(3)
H26_2 H 0.2485 0.8727 0.7593
O12_2 O 0.80988(19) 0.11480(17) 0.8429(2)
C4_2 C 0.4686(2) 0.3996(2) 0.8688(2)
C9_2 C 0.5596(2) 0.3227(2) 0.8631(2)
C13_2 C 0.6008(3) 0.2851(3) 0.7900(2)
H4_2 H 0.5718 0.3058 0.7466
C15_2 C 0.8810(3) 0.2155(3) 0.8493(2)
H6_2 H 0.8258 0.2630 0.8568
C16_2 C 0.8859(3) 0.1328(3) 0.8416(2)
C22_2 C 0.6842(3) 0.2175(3) 0.7833(3)
H8_2 H 0.7133 0.1925 0.7354
O17_2 O 0.9477(2) 0.3142(2) 0.8480(3)
C26_2 C 0.7251(3) 0.1865(3) 0.8519(4)
C31_2 C 0.9659(3) 0.0614(3) 0.8311(3)
H15_2 H 0.9677 0.0051 0.8256
C34_2 C 0.9592(3) 0.2271(3) 0.8457(3)
C36_2 C 0.6025(3) 0.2904(3) 0.9275(2)
H19_2 H 0.5749 0.3150 0.9759
C53_2 C 0.6848(3) 0.2228(3) 0.9203(3)
H30_2 H 0.7132 0.2018 0.9639
H38_2 H 0.9947 0.3425 0.9805
loop_
_geom_bond_atom_site_label_1
_geom_bond_atom_site_label_2
_geom_bond_site_symmetry_1
_geom_bond_site_symmetry_2
O1 C4 1_555 1_555
O6 C4 1_555 1_555
O12 C16 1_555 1_555
C4 C9 1_555 1_555
C9 C13 1_555 1_555
C13 H4 1_555 1_555
C15 H6 1_555 1_555
C16 C15 1_555 1_555
C22 C13 1_555 1_555
H8 C22 1_555 1_555
O17 C34 1_555 1_555
C26 O12 1_555 1_555
C31 C16 1_555 1_555
H15 C31 1_555 1_555
C34 C15 1_555 1_555
C36 C9 1_555 1_555
H19 C36 1_555 1_555
C53 C26 1_555 1_555
H30 C53 1_555 1_555
Zn8 O1 1_555 1_555
Zn12 O6 1_555 1_555
C22 C26 1_555 1_555
C36 C53 1_555 1_555
O4 C19 1_555 1_555
O13 C19 1_555 1_555
C14 H5 1_555 1_555
C17 C14 1_555 1_555
C19 C17 1_555 1_555
C29 C17 1_555 1_555
H13 C29 1_555 1_555
C32 C14 1_555 1_555
H16 C32 1_555 1_555
C48 C29 1_555 1_555
H26 C48 1_555 1_555
Zn8 O4 1_555 1_555
Zn12 O4 1_555 1_555
O13 Zn12 1_555 1_555
C32 C39 1_555 1_555
C39 C48 1_555 1_555
O8 C2 1_555 1_555
O11 Zn12 1_555 1_555
C2 O11 1_555 1_555
O15 C37 1_555 1_555
C20 C2 1_555 1_555
H28 C51 1_555 1_555
C56 C20 1_555 1_555
H32 C56 1_555 1_555
C62 C20 1_555 1_555
H36 C62 1_555 1_555
C63 C56 1_555 1_555
H37 C63 1_555 1_555
C64 C58 1_555 1_555
Zn8 O8 1_555 1_555
C37 C51 1_555 1_555
C58 C63 1_555 1_555
C62 C64 1_555 1_555
Zn2 O5 1_555 1_555
O3 C1 1_555 1_555
O5 C1 1_555 1_555
N1 C5 1_555 1_555
N2 Zn2 1_555 1_555
C1 C8 1_555 1_555
C5 H1 1_555 1_555
C6 C5 1_555 1_555
H2 C6 1_555 1_555
C7 C6 1_555 1_555
C8 C24 1_555 1_555
O16 C40 1_555 1_555
C10 C7 1_555 1_555
C12 N2 1_555 1_555
H3 C12 1_555 1_555
C21 C10 1_555 1_555
H7 C21 1_555 1_555
C24 H10 1_555 1_555
C25 C8 1_555 1_555
H11 C25 1_555 1_555
C27 N1 1_555 1_555
H12 C27 1_555 1_555
C30 N2 1_555 1_555
H14 C30 1_555 1_555
O18 C55 1_555 1_555
C38 C7 1_555 1_555
H20 C38 1_555 1_555
C40 C43 1_555 1_555
C41 C10 1_555 1_555
H21 C41 1_555 1_555
C43 C25 1_555 1_555
H22 C43 1_555 1_555
C44 O16 1_555 1_555
C45 C44 1_555 1_555
H23 C45 1_555 1_555
C47 C44 1_555 1_555
H25 C47 1_555 1_555
C49 C24 1_555 1_555
H27 C49 1_555 1_555
C52 C50 1_555 1_555
C55 C45 1_555 1_555
C59 O18 1_555 1_555
H34 C60 1_555 1_555
H35 C61 1_555 1_555
Zn8 O3 1_555 1_555
O21 Zn2 1_555 1_555
O27 Zn2 1_555 1_555
O28 Zn2 1_555 1_555
C12 C21 1_555 1_555
C27 C38 1_555 1_555
C30 C41 1_555 1_555
C40 C49 1_555 1_555
C47 C50 1_555 1_555
C52 C55 1_555 1_555
C59 C60 1_555 1_555
C59 C61 1_555 1_555
Zn8 O21 1_555 1_555
O21 C3 1_555 1_555
O28 C3 1_555 1_555
O14 C42 1_555 1_555
C3 C11 1_555 1_555
C11 C23 1_555 1_555
C23 H9 1_555 1_555
C33 C11 1_555 1_555
H17 C33 1_555 1_555
C35 C23 1_555 1_555
H18 C35 1_555 1_555
C42 C35 1_555 1_555
C46 C33 1_555 1_555
H24 C46 1_555 1_555
C42 C46 1_555 1_555
Zn8 O7 1_555 1_555
O7 C18 1_555 1_555
O27 C18 1_555 1_555
C18 C28 1_555 1_555
C28 C54 1_555 1_555
C54 H31 1_555 1_555
C57 C28 1_555 1_555
H33 C57 1_555 1_555
Zn1 O7_2 1_555 1_555
O7_2 C18_2 1_555 1_555
O9 C18_2 1_555 1_555
C18_2 C28_2 1_555 1_555
C28_2 C54_2 1_555 1_555
C54_2 H31_2 1_555 1_555
C57_2 C28_2 1_555 1_555
H33_2 C57_2 1_555 1_555
Zn9 O9 1_555 1_555
O19 Zn1 1_555 1_555
O20 Zn1 1_555 1_555
O22 Zn1 1_555 1_555
O23 Zn1 1_555 1_555
O26 Zn1 1_555 1_555
Zn9 O20 1_555 1_555
O20 C3_2 1_555 1_555
O10 C3_2 1_555 1_555
O14_2 C42_2 1_555 1_555
C3_2 C11_2 1_555 1_555
C11_2 C23_2 1_555 1_555
C23_2 H9_2 1_555 1_555
C33_2 C11_2 1_555 1_555
H17_2 C33_2 1_555 1_555
C35_2 C23_2 1_555 1_555
H18_2 C35_2 1_555 1_555
C42_2 C35_2 1_555 1_555
C46_2 C33_2 1_555 1_555
H24_2 C46_2 1_555 1_555
O10 Zn9 1_555 1_555
C42_2 C46_2 1_555 1_555
Zn9 O5_2 1_555 1_555
O22 C1_2 1_555 1_555
O5_2 C1_2 1_555 1_555
N1_2 C5_2 1_555 1_555
N2_2 Zn9 1_555 1_555
C1_2 C8_2 1_555 1_555
C5_2 H1_2 1_555 1_555
C6_2 C5_2 1_555 1_555
H2_2 C6_2 1_555 1_555
C7_2 C6_2 1_555 1_555
C8_2 C24_2 1_555 1_555
O16_2 C40_2 1_555 1_555
C10_2 C7_2 1_555 1_555
C12_2 N2_2 1_555 1_555
H3_2 C12_2 1_555 1_555
C21_2 C10_2 1_555 1_555
H7_2 C21_2 1_555 1_555
C24_2 H10_2 1_555 1_555
C25_2 C8_2 1_555 1_555
H11_2 C25_2 1_555 1_555
C27_2 N1_2 1_555 1_555
H12_2 C27_2 1_555 1_555
C30_2 N2_2 1_555 1_555
H14_2 C30_2 1_555 1_555
O18_2 C55_2 1_555 1_555
C38_2 C7_2 1_555 1_555
H20_2 C38_2 1_555 1_555
C40_2 C43_2 1_555 1_555
C41_2 C10_2 1_555 1_555
H21_2 C41_2 1_555 1_555
C43_2 C25_2 1_555 1_555
H22_2 C43_2 1_555 1_555
C44_2 O16_2 1_555 1_555
C45_2 C44_2 1_555 1_555
H23_2 C45_2 1_555 1_555
C47_2 C44_2 1_555 1_555
H25_2 C47_2 1_555 1_555
C49_2 C24_2 1_555 1_555
H27_2 C49_2 1_555 1_555
C52_2 C50_2 1_555 1_555
C55_2 C45_2 1_555 1_555
C59_2 O18_2 1_555 1_555
H34_2 C60_2 1_555 1_555
H35_2 C61_2 1_555 1_555
C12_2 C21_2 1_555 1_555
C27_2 C38_2 1_555 1_555
C30_2 C41_2 1_555 1_555
C40_2 C49_2 1_555 1_555
C47_2 C50_2 1_555 1_555
C52_2 C55_2 1_555 1_555
C59_2 C60_2 1_555 1_555
C59_2 C61_2 1_555 1_555
O26 C2_2 1_555 1_555
O11_2 Zn3 1_555 1_555
C2_2 O11_2 1_555 1_555
O15_2 C37_2 1_555 1_555
C20_2 C2_2 1_555 1_555
H28_2 C51_2 1_555 1_555
C56_2 C20_2 1_555 1_555
H32_2 C56_2 1_555 1_555
C62_2 C20_2 1_555 1_555
H36_2 C62_2 1_555 1_555
C63_2 C56_2 1_555 1_555
H37_2 C63_2 1_555 1_555
C64_2 C58_2 1_555 1_555
O23 Zn3 1_555 1_555
O25 Zn3 1_555 1_555
O29 Zn3 1_555 1_555
C37_2 C51_2 1_555 1_555
C58_2 C63_2 1_555 1_555
C62_2 C64_2 1_555 1_555
O23 C19_2 1_555 1_555
O29 C19_2 1_555 1_555
C14_2 H5_2 1_555 1_555
C17_2 C14_2 1_555 1_555
C19_2 C17_2 1_555 1_555
C29_2 C17_2 1_555 1_555
H13_2 C29_2 1_555 1_555
C32_2 C14_2 1_555 1_555
H16_2 C32_2 1_555 1_555
C48_2 C29_2 1_555 1_555
H26_2 C48_2 1_555 1_555
C32_2 C39_2 1_555 1_555
C39_2 C48_2 1_555 1_555
O19 C4_2 1_555 1_555
O25 C4_2 1_555 1_555
O12_2 C16_2 1_555 1_555
C4_2 C9_2 1_555 1_555
C9_2 C13_2 1_555 1_555
C13_2 H4_2 1_555 1_555
C15_2 H6_2 1_555 1_555
C16_2 C15_2 1_555 1_555
C22_2 C13_2 1_555 1_555
H8_2 C22_2 1_555 1_555
O17_2 C34_2 1_555 1_555
C26_2 O12_2 1_555 1_555
C31_2 C16_2 1_555 1_555
H15_2 C31_2 1_555 1_555
C34_2 C15_2 1_555 1_555
C36_2 C9_2 1_555 1_555
H19_2 C36_2 1_555 1_555
C53_2 C26_2 1_555 1_555
H30_2 C53_2 1_555 1_555
C22_2 C26_2 1_555 1_555
C36_2 C53_2 1_555 1_555

#END
