
###############################################################################
#
# This file contains modified crystal structure data generated from the
# MOF subset of the Cambridge Structural Database (CSD) v543 
# hosted by the Cambridge Crystallographic Data Centre (CCDC).
#
# This work is licensed under the Creative Commons
# Attribution-NonCommercial-ShareAlike 4.0 International License.
# To view a copy of this license, visit
# http://creativecommons.org/licenses/by-nc-sa/4.0/
# or send a letter to
# Creative Commons, PO Box 1866, Mountain View, CA 94042, USA.
#
# CIF created using the CSD Python API on 29 September 2022
# The structure has been converted into the P1 space group
# The structure has a 3D framework
# The original CSD entry JISROV is in the trigonal crystal system
# The original CSD entry JISROV is in a Sohncke space group
# The framework has been calculated to contain at least 10.0% void space
# The void calculation uses a probe of radius 1.32A, grid spacing 0.4
#
###############################################################################

data_JISROV
_chemical_formula_moiety         '(C108 H54 Co6 N24 S6)n'
_symmetry_cell_setting           triclinic
_symmetry_space_group_name_H-M   'P 1'
_symmetry_Int_Tables_number      1
_space_group_name_Hall           'P 1'
loop_
_symmetry_equiv_pos_site_id
_symmetry_equiv_pos_as_xyz
1 x,y,z
_cell_length_a                   18.3008(5)
_cell_length_b                   18.3008(5)
_cell_length_c                   15.2850(6)
_cell_angle_alpha                90
_cell_angle_beta                 90
_cell_angle_gamma                120
_cell_volume                     4433.39
loop_
_atom_site_label
_atom_site_type_symbol
_atom_site_fract_x
_atom_site_fract_y
_atom_site_fract_z
N3 N 0.08081(14) 0.08081(14) 0.0000
C29 C 0.01464(16) 0.06953(16) 0.04798(19)
H18 H 0.0208 0.1152 0.0830
Co2 Co 0.20113(2) 0.20113(2) 0.0000
C17 C 0.06953(16) 0.01464(16) 0.95202(19)
H9 H 0.1152 0.0208 0.9170
N3_2 N 0.08081(14) 0.08081(14) 1.0000
Co2_2 Co 0.20113(2) 0.20113(2) 1.0000
Co4 Co 0.00000(3) 0.79887(2) 0.6667
Co3 Co 0.79887(2) 0.00000(3) 0.3333
N1 N 0.31978(15) 0.31978(15) 0.0000
C1 C 0.32361(16) 0.39129(15) 0.02735(18)
H1 H 0.2733 0.3892 0.0468
C2 C 0.39780(17) 0.46756(17) 0.02818(19)
H2 H 0.3980 0.5168 0.0480
C3 C 0.47264(18) 0.47264(18) 0.0000
C4 C 0.55391(18) 0.55391(18) 0.0000
C5 C 0.57107(15) 0.61165(15) 0.06646(17)
H3 H 0.5310 0.5993 0.1117
C6 C 0.64688(16) 0.68761(15) 0.06710(16)
C7 C 0.67025(16) 0.75370(15) 0.13585(16)
C8 C 0.69987(18) 0.74670(17) 0.2163(2)
H4 H 0.6979 0.6958 0.2332
C9 C 0.73300(18) 0.81642(17) 0.27251(18)
H5 H 0.7540 0.8115 0.3277
N2 N 0.73675(12) 0.88819(12) 0.25346(12)
C10 C 0.70279(16) 0.89218(17) 0.17726(18)
H6 H 0.7016 0.9422 0.1637
C11 C 0.66949(17) 0.82706(18) 0.11769(18)
H7 H 0.6461 0.8327 0.0643
C12 C 0.7063(2) 0.7063(2) 0.0000
C13 C 0.7840(2) 0.7840(2) 0.0000
C14 C 0.8495(2) 0.8495(2) 0.0000
C15 C 0.92724(18) 0.92724(18) 0.0000
N4 N 0.16197(14) 0.23912(14) 0.11174(13)
C18 C 0.14555(17) 0.26434(17) 0.17173(16)
S1 S 0.12153(10) 0.29801(8) 0.26046(8)
C28 C 0.93798(18) 0.99523(18) 0.0493(2)
H17 H 0.8929 0.9909 0.0840
Co3_2 Co 0.79887(2) 1.00000(3) 0.3333
N8 N 0.26325(12) 0.15144(17) 0.07987(12)
N1_2 N 0.31978(15) 0.31978(15) 1.0000
C3_2 C 0.47264(18) 0.47264(18) 1.0000
C4_2 C 0.55391(18) 0.55391(18) 1.0000
C12_2 C 0.7063(2) 0.7063(2) 1.0000
C13_2 C 0.7840(2) 0.7840(2) 1.0000
C14_2 C 0.8495(2) 0.8495(2) 1.0000
C15_2 C 0.92724(18) 0.92724(18) 1.0000
C16 C 0.99523(18) 0.93798(18) 0.9507(2)
H8 H 0.9909 0.8929 0.9160
C19 C 0.39129(15) 0.32361(16) 0.97265(18)
H10 H 0.3892 0.2733 0.9532
C20 C 0.46756(17) 0.39780(17) 0.97182(19)
H11 H 0.5168 0.3980 0.9520
C21 C 0.61165(15) 0.57107(15) 0.93354(17)
H12 H 0.5993 0.5310 0.8883
C22 C 0.68761(15) 0.64688(16) 0.93290(16)
C23 C 0.75370(15) 0.67025(16) 0.86415(16)
C24 C 0.74670(17) 0.69987(18) 0.7837(2)
H13 H 0.6958 0.6979 0.7668
C25 C 0.81642(17) 0.73300(18) 0.72749(18)
H14 H 0.8115 0.7540 0.6723
N5 N 0.88819(12) 0.73675(12) 0.74654(12)
C26 C 0.89218(17) 0.70279(16) 0.82274(18)
H15 H 0.9422 0.7016 0.8363
C27 C 0.82706(18) 0.66949(17) 0.88231(18)
H16 H 0.8327 0.6461 0.9357
N6 N 0.23912(14) 0.16197(14) 0.88826(13)
C30 C 0.26434(17) 0.14555(17) 0.82827(16)
S2 S 0.29801(8) 0.12153(10) 0.73954(8)
Co4_2 Co 1.00000(3) 0.79887(2) 0.6667
N7 N 0.15144(17) 0.26325(12) 0.92013(12)
N1_3 N 0.68022(15) 0.00000(21) 0.3333
C3_3 C 0.52736(18) -0.00000(25) 0.3333
C4_3 C 0.44609(18) -0.00000(25) 0.3333
H4_2 H 0.3042 0.0021 0.5665
C12_3 C 0.2937(2) -0.0000(3) 0.3333
C13_3 C 0.2160(2) -0.0000(3) 0.3333
C14_3 C 0.1505(2) 0.0000(3) 0.3333
C15_3 C 0.07276(18) -0.00000(25) 0.3333
C16_2 C 0.06202(18) 0.05725(25) 0.2840(2)
H8_2 H 0.1071 0.0980 0.2493
C19_2 C 0.67639(16) 0.06768(22) 0.30598(18)
H10_2 H 0.7267 0.1159 0.2865
C20_2 C 0.60220(17) 0.06976(24) 0.30515(19)
H11_2 H 0.6020 0.1188 0.2853
C21_2 C 0.42893(15) 0.04058(21) 0.26687(17)
H12_2 H 0.4690 0.0683 0.2216
C22_2 C 0.35312(16) 0.04073(22) 0.26623(16)
C23_2 C 0.32975(16) 0.08345(22) 0.19748(16)
C24_2 C 0.30013(18) 0.04683(25) 0.1170(2)
C25_2 C 0.26700(18) 0.08342(25) 0.06082(18)
H14_2 H 0.2460 0.0575 0.0056
C26_2 C 0.29721(16) 0.18939(23) 0.15607(18)
H15_2 H 0.2984 0.2406 0.1696
C27_2 C 0.33051(17) 0.15757(25) 0.21564(18)
H16_2 H 0.3539 0.1866 0.2690
N6_2 N 0.83803(14) 0.07715(20) 0.22159(13)
C30_2 C 0.85445(17) 0.11879(24) 0.16160(16)
S2_2 S 0.87847(10) 0.17648(13) 0.07287(8)
N8_2 N 0.84856(17) 0.11181(21) 0.41321(12)
N9 N 0.91919(14) -0.00000(20) 0.3333
N1_4 N 0.68022(15) 1.00000(21) 0.3333
C1_2 C 0.60871(15) 0.93232(22) 0.36068(18)
H1_2 H 0.6108 0.8841 0.3801
C2_2 C 0.53244(17) 0.93024(24) 0.36151(19)
H2_2 H 0.4832 0.8812 0.3813
C3_4 C 0.52736(18) 1.00000(25) 0.3333
C4_4 C 0.44609(18) 1.00000(25) 0.3333
C5_2 C 0.38835(15) 0.95942(21) 0.39979(17)
H3_2 H 0.4007 0.9317 0.4450
C6_2 C 0.31239(15) 0.95927(22) 0.40043(16)
C7_2 C 0.24630(15) 0.91655(22) 0.46918(16)
C8_2 C 0.25330(17) 0.95317(25) 0.5496(2)
C9_2 C 0.18358(17) 0.91658(25) 0.60584(18)
H5_2 H 0.1885 0.9425 0.6610
N2_2 N 0.11181(12) 0.84856(17) 0.58679(12)
C10_2 C 0.10782(17) 0.81061(23) 0.51059(18)
H6_2 H 0.0578 0.7594 0.4970
C11_2 C 0.17294(18) 0.84243(25) 0.45102(18)
H7_2 H 0.1673 0.8134 0.3976
C12_4 C 0.2937(2) 1.0000(3) 0.3333
C13_4 C 0.2160(2) 1.0000(3) 0.3333
C14_4 C 0.1505(2) 1.0000(3) 0.3333
C15_4 C 0.07276(18) 1.00000(25) 0.3333
N4_2 N 0.76088(14) 0.92285(20) 0.44507(13)
C18_2 C 0.73566(17) 0.88121(24) 0.50506(16)
S1_2 S 0.70199(8) 0.82352(13) 0.59379(8)
H13_2 H 0.3021 0.9979 0.1001
C28_2 C 0.00477(18) 0.94275(25) 0.3826(2)
H17_2 H 0.0091 0.9020 0.4173
N9_2 N 0.91919(14) 1.00000(20) 0.3333
C17_2 C 0.98536(16) 0.05489(23) 0.28535(19)
H9_2 H 0.9792 0.0944 0.2503
C29_2 C 0.93047(16) 0.94511(23) 0.38131(19)
H18_2 H 0.8848 0.9056 0.4163
N1_5 N 0.00000(21) 0.68022(15) 0.6667
C1_3 C 0.06768(22) 0.67639(16) 0.69402(18)
H1_3 H 0.1159 0.7267 0.7135
C2_3 C 0.06976(24) 0.60220(17) 0.69485(19)
H2_3 H 0.1188 0.6020 0.7147
C3_5 C 0.00000(25) 0.52736(18) 0.6667
C4_5 C 0.00000(25) 0.44609(18) 0.6667
C5_3 C 0.04058(21) 0.42893(15) 0.73313(17)
H3_3 H 0.0683 0.4690 0.7784
C6_3 C 0.04073(22) 0.35312(16) 0.73377(16)
C7_3 C 0.08345(22) 0.32975(16) 0.80252(16)
C8_3 C 0.04683(25) 0.30013(18) 0.8830(2)
C9_3 C 0.08342(25) 0.26700(18) 0.93918(18)
H5_3 H 0.0575 0.2460 0.9944
C10_3 C 0.18939(23) 0.29721(16) 0.84393(18)
H6_3 H 0.2406 0.2984 0.8304
C11_3 C 0.15757(25) 0.33051(17) 0.78436(18)
H7_3 H 0.1866 0.3539 0.7310
C12_5 C 0.0000(3) 0.2937(2) 0.6667
C13_5 C 0.0000(3) 0.2160(2) 0.6667
C14_5 C 0.0000(3) 0.1505(2) 0.6667
C15_5 C 0.00000(25) 0.07276(18) 0.6667
N4_3 N 0.07715(20) 0.83803(14) 0.77841(13)
C18_3 C 0.11879(24) 0.85445(17) 0.83840(16)
S1_3 S 0.17648(13) 0.87847(10) 0.92713(8)
H13_3 H 0.0021 0.3042 0.4335
C28_3 C 0.05725(25) 0.06202(18) 0.7160(2)
H17_3 H 0.0980 0.1071 0.7507
N9_3 N 0.00000(20) 0.91919(14) 0.6667
C29_3 C 0.05489(23) 0.98536(16) 0.71465(19)
H18_3 H 0.0944 0.9792 0.7497
N1_6 N 1.00000(21) 0.68022(15) 0.6667
C3_6 C 1.00000(25) 0.52736(18) 0.6667
C4_6 C 1.00000(25) 0.44609(18) 0.6667
H4_3 H 0.9979 0.3021 0.8999
C12_6 C 1.0000(3) 0.2937(2) 0.6667
C13_6 C 1.0000(3) 0.2160(2) 0.6667
C14_6 C 1.0000(3) 0.1505(2) 0.6667
C15_6 C 1.00000(25) 0.07276(18) 0.6667
C16_3 C 0.94275(25) 0.00477(18) 0.6174(2)
H8_3 H 0.9020 0.0091 0.5827
C19_3 C 0.93232(22) 0.60871(15) 0.63932(18)
H10_3 H 0.8841 0.6108 0.6199
C20_3 C 0.93024(24) 0.53244(17) 0.63849(19)
H11_3 H 0.8812 0.4832 0.6187
C21_3 C 0.95942(21) 0.38835(15) 0.60021(17)
H12_3 H 0.9317 0.4007 0.5550
C22_3 C 0.95927(22) 0.31239(15) 0.59957(16)
C23_3 C 0.91655(22) 0.24630(15) 0.53082(16)
C24_3 C 0.95317(25) 0.25330(17) 0.4504(2)
C25_3 C 0.91658(25) 0.18358(17) 0.39416(18)
H14_3 H 0.9425 0.1885 0.3390
C26_3 C 0.81061(23) 0.10782(17) 0.48941(18)
H15_3 H 0.7594 0.0578 0.5030
C27_3 C 0.84243(25) 0.17294(18) 0.54898(18)
H16_3 H 0.8134 0.1673 0.6024
N6_3 N 0.92285(20) 0.76088(14) 0.55493(13)
C30_3 C 0.88121(24) 0.73566(17) 0.49494(16)
S2_3 S 0.82352(13) 0.70199(8) 0.40621(8)
N9_4 N 1.00000(20) 0.91919(14) 0.6667
C17_3 C 0.94511(23) 0.93047(16) 0.61869(19)
H9_3 H 0.9056 0.8848 0.5837
loop_
_geom_bond_atom_site_label_1
_geom_bond_atom_site_label_2
_geom_bond_site_symmetry_1
_geom_bond_site_symmetry_2
C29 N3 1_555 1_555
H18 C29 1_555 1_555
Co2 N3 1_555 1_555
H9 C17 1_555 1_555
N3_2 C17 1_555 1_555
Co2_2 N3_2 1_555 1_555
Co2 N1 1_555 1_555
N1 C1 1_555 1_555
C1 H1 1_555 1_555
C2 C1 1_555 1_555
H2 C2 1_555 1_555
C3 C2 1_555 1_555
C4 C3 1_555 1_555
C5 C4 1_555 1_555
H3 C5 1_555 1_555
C6 C5 1_555 1_555
C7 C6 1_555 1_555
C8 C7 1_555 1_555
H4 C8 1_555 1_555
C9 C8 1_555 1_555
H5 C9 1_555 1_555
N2 C9 1_555 1_555
C10 N2 1_555 1_555
H6 C10 1_555 1_555
C11 C7 1_555 1_555
H7 C11 1_555 1_555
C12 C6 1_555 1_555
C13 C12 1_555 1_555
C14 C13 1_555 1_555
C15 C14 1_555 1_555
N4 Co2 1_555 1_555
C18 N4 1_555 1_555
S1 C18 1_555 1_555
C28 C15 1_555 1_555
H17 C28 1_555 1_555
Co3_2 N2 1_555 1_555
N8 Co2 1_555 1_555
C10 C11 1_555 1_555
Co2_2 N1_2 1_555 1_555
C4_2 C3_2 1_555 1_555
C13_2 C12_2 1_555 1_555
C14_2 C13_2 1_555 1_555
C15_2 C14_2 1_555 1_555
C16 C15_2 1_555 1_555
H8 C16 1_555 1_555
C19 N1_2 1_555 1_555
H10 C19 1_555 1_555
C20 C3_2 1_555 1_555
H11 C20 1_555 1_555
C21 C4_2 1_555 1_555
H12 C21 1_555 1_555
C22 C12_2 1_555 1_555
C23 C22 1_555 1_555
C24 C23 1_555 1_555
H13 C24 1_555 1_555
C25 C24 1_555 1_555
H14 C25 1_555 1_555
N5 C25 1_555 1_555
C26 N5 1_555 1_555
H15 C26 1_555 1_555
C27 C23 1_555 1_555
H16 C27 1_555 1_555
N6 Co2_2 1_555 1_555
C30 N6 1_555 1_555
S2 C30 1_555 1_555
Co4_2 N5 1_555 1_555
N7 Co2_2 1_555 1_555
C19 C20 1_555 1_555
C21 C22 1_555 1_555
C26 C27 1_555 1_555
Co3 N1_3 1_555 1_555
C4_3 C3_3 1_555 1_555
C13_3 C12_3 1_555 1_555
C14_3 C13_3 1_555 1_555
C15_3 C14_3 1_555 1_555
C16_2 C15_3 1_555 1_555
H8_2 C16_2 1_555 1_555
C19_2 N1_3 1_555 1_555
H10_2 C19_2 1_555 1_555
C20_2 C3_3 1_555 1_555
H11_2 C20_2 1_555 1_555
C21_2 C4_3 1_555 1_555
H12_2 C21_2 1_555 1_555
C22_2 C12_3 1_555 1_555
C23_2 C22_2 1_555 1_555
C24_2 C23_2 1_555 1_555
C25_2 C24_2 1_555 1_555
H14_2 C25_2 1_555 1_555
N8 C25_2 1_555 1_555
C26_2 N8 1_555 1_555
H15_2 C26_2 1_555 1_555
C27_2 C23_2 1_555 1_555
H16_2 C27_2 1_555 1_555
N6_2 Co3 1_555 1_555
C30_2 N6_2 1_555 1_555
S2_2 C30_2 1_555 1_555
N8_2 Co3 1_555 1_555
N9 Co3 1_555 1_555
C19_2 C20_2 1_555 1_555
C21_2 C22_2 1_555 1_555
C26_2 C27_2 1_555 1_555
Co3_2 N1_4 1_555 1_555
N1_4 C1_2 1_555 1_555
C1_2 H1_2 1_555 1_555
C2_2 C1_2 1_555 1_555
H2_2 C2_2 1_555 1_555
C3_4 C2_2 1_555 1_555
C4_4 C3_4 1_555 1_555
C5_2 C4_4 1_555 1_555
H3_2 C5_2 1_555 1_555
C6_2 C5_2 1_555 1_555
C7_2 C6_2 1_555 1_555
C8_2 C7_2 1_555 1_555
C9_2 C8_2 1_555 1_555
H5_2 C9_2 1_555 1_555
N2_2 C9_2 1_555 1_555
C10_2 N2_2 1_555 1_555
H6_2 C10_2 1_555 1_555
C11_2 C7_2 1_555 1_555
H7_2 C11_2 1_555 1_555
C12_4 C6_2 1_555 1_555
C13_4 C12_4 1_555 1_555
C14_4 C13_4 1_555 1_555
C15_4 C14_4 1_555 1_555
N4_2 Co3_2 1_555 1_555
C18_2 N4_2 1_555 1_555
S1_2 C18_2 1_555 1_555
C28_2 C15_4 1_555 1_555
H17_2 C28_2 1_555 1_555
Co4 N2_2 1_555 1_555
N9_2 Co3_2 1_555 1_555
C10_2 C11_2 1_555 1_555
H9_2 C17_2 1_555 1_555
N9 C17_2 1_555 1_555
C29_2 N9_2 1_555 1_555
H18_2 C29_2 1_555 1_555
Co4 N1_5 1_555 1_555
N1_5 C1_3 1_555 1_555
C1_3 H1_3 1_555 1_555
C2_3 C1_3 1_555 1_555
H2_3 C2_3 1_555 1_555
C3_5 C2_3 1_555 1_555
C4_5 C3_5 1_555 1_555
C5_3 C4_5 1_555 1_555
H3_3 C5_3 1_555 1_555
C6_3 C5_3 1_555 1_555
C7_3 C6_3 1_555 1_555
C8_3 C7_3 1_555 1_555
C9_3 C8_3 1_555 1_555
H5_3 C9_3 1_555 1_555
N7 C9_3 1_555 1_555
C10_3 N7 1_555 1_555
H6_3 C10_3 1_555 1_555
C11_3 C7_3 1_555 1_555
H7_3 C11_3 1_555 1_555
C12_5 C6_3 1_555 1_555
C13_5 C12_5 1_555 1_555
C14_5 C13_5 1_555 1_555
C15_5 C14_5 1_555 1_555
N4_3 Co4 1_555 1_555
C18_3 N4_3 1_555 1_555
S1_3 C18_3 1_555 1_555
C28_3 C15_5 1_555 1_555
H17_3 C28_3 1_555 1_555
N9_3 Co4 1_555 1_555
C10_3 C11_3 1_555 1_555
C29_3 N9_3 1_555 1_555
H18_3 C29_3 1_555 1_555
Co4_2 N1_6 1_555 1_555
C4_6 C3_6 1_555 1_555
C13_6 C12_6 1_555 1_555
C14_6 C13_6 1_555 1_555
C15_6 C14_6 1_555 1_555
C16_3 C15_6 1_555 1_555
H8_3 C16_3 1_555 1_555
C19_3 N1_6 1_555 1_555
H10_3 C19_3 1_555 1_555
C20_3 C3_6 1_555 1_555
H11_3 C20_3 1_555 1_555
C21_3 C4_6 1_555 1_555
H12_3 C21_3 1_555 1_555
C22_3 C12_6 1_555 1_555
C23_3 C22_3 1_555 1_555
C24_3 C23_3 1_555 1_555
C25_3 C24_3 1_555 1_555
H14_3 C25_3 1_555 1_555
N8_2 C25_3 1_555 1_555
C26_3 N8_2 1_555 1_555
H15_3 C26_3 1_555 1_555
C27_3 C23_3 1_555 1_555
H16_3 C27_3 1_555 1_555
N6_3 Co4_2 1_555 1_555
C30_3 N6_3 1_555 1_555
S2_3 C30_3 1_555 1_555
N9_4 Co4_2 1_555 1_555
C19_3 C20_3 1_555 1_555
C21_3 C22_3 1_555 1_555
C26_3 C27_3 1_555 1_555
H9_3 C17_3 1_555 1_555
N9_4 C17_3 1_555 1_555

#END
