
###############################################################################
#
# This file contains modified crystal structure data generated from the
# MOF subset of the Cambridge Structural Database (CSD) v543 
# hosted by the Cambridge Crystallographic Data Centre (CCDC).
#
# This work is licensed under the Creative Commons
# Attribution-NonCommercial-ShareAlike 4.0 International License.
# To view a copy of this license, visit
# http://creativecommons.org/licenses/by-nc-sa/4.0/
# or send a letter to
# Creative Commons, PO Box 1866, Mountain View, CA 94042, USA.
#
# CIF created using the CSD Python API on 29 September 2022
# The structure has been converted into the P1 space group
# The structure has a 3D framework
# The original CSD entry JISRUB is in the trigonal crystal system
# The original CSD entry JISRUB is in a Sohncke space group
# The framework has been calculated to contain at least 10.0% void space
# The void calculation uses a probe of radius 1.32A, grid spacing 0.4
#
###############################################################################

data_JISRUB
_chemical_formula_moiety         '(C108 H54 Fe6 N24 S6)n'
_symmetry_cell_setting           triclinic
_symmetry_space_group_name_H-M   'P 1'
_symmetry_Int_Tables_number      1
_space_group_name_Hall           'P 1'
loop_
_symmetry_equiv_pos_site_id
_symmetry_equiv_pos_as_xyz
1 x,y,z
_cell_length_a                   18.3693(8)
_cell_length_b                   18.3693(8)
_cell_length_c                   15.2441(6)
_cell_angle_alpha                90
_cell_angle_beta                 90
_cell_angle_gamma                120
_cell_volume                     4454.69
loop_
_atom_site_label
_atom_site_type_symbol
_atom_site_fract_x
_atom_site_fract_y
_atom_site_fract_z
N2 N 0.07726(14) -0.00000(20) 0.3333
C26 C 0.06601(26) 0.05458(21) 0.38204(16)
H15 H 0.1115 0.0941 0.4170
Fe3 Fe 0.19908(2) 0.00000(3) 0.3333
Fe4 Fe -0.00000(3) 0.19908(2) 0.6667
C12 C 0.01143(15) 0.94542(21) 0.28463(16)
H6 H 0.0174 0.9059 0.2497
N2_2 N 0.07726(14) 1.00000(20) 0.3333
Fe3_2 Fe 0.19908(2) 1.00000(3) 0.3333
H3 H 0.6999 0.0055 0.1008
C7 C 0.70401(19) -0.00000(27) 0.3333
C8 C 0.78190(19) -0.00000(27) 0.3333
C9 C 0.84667(19) -0.00000(27) 0.3333
C10 C 0.92535(17) -0.00000(24) 0.3333
C14 C 0.55182(17) -0.00000(24) 0.3333
C15 C 0.47267(17) -0.00000(24) 0.3333
N3 N 0.31961(14) -0.00000(20) 0.3333
N5 N 0.88505(17) 0.14857(12) 0.58752(11)
C19 C 0.88929(22) 0.18819(16) 0.51149(16)
H10 H 0.9385 0.2400 0.4986
C20 C 0.82348(23) 0.15512(17) 0.45160(16)
H11 H 0.8289 0.1834 0.3978
C21 C 0.75052(23) 0.08153(17) 0.47010(15)
C22 C 0.74460(24) 0.04407(17) 0.54938(17)
C23 C 0.81399(24) 0.08032(17) 0.60574(16)
H13 H 0.8093 0.0538 0.6607
C24 C 0.68603(26) 0.04101(21) 0.40121(14)
C25 C 0.99143(29) 0.05615(23) 0.38387(18)
H14 H 0.9861 0.0956 0.4197
C27 C 0.60996(24) 0.04066(20) 0.39961(15)
H16 H 0.5978 0.0687 0.4447
C28 C 0.46753(27) 0.07090(22) 0.35884(15)
H17 H 0.5167 0.1211 0.3762
C29 C 0.39030(24) 0.06703(20) 0.35857(15)
H18 H 0.3879 0.1150 0.3776
Fe4_2 Fe 1.00000(3) 0.19908(2) 0.6667
Fe1 Fe 0.80092(2) 0.80092(2) 0.0000
N1 N 0.73648(12) 0.85143(12) 0.07915(11)
C1 C 0.70110(15) 0.81181(16) 0.15518(16)
H1 H 0.6985 0.7600 0.1681
C2 C 0.66836(16) 0.84488(17) 0.21507(16)
H2 H 0.6455 0.8166 0.2689
C3 C 0.66899(15) 0.91847(17) 0.19657(15)
C4 C 0.70053(17) 0.95593(17) 0.11729(17)
C5 C 0.73367(17) 0.91968(17) 0.06093(16)
H4 H 0.7555 0.9462 0.0060
C6 C 0.64502(15) 0.95899(21) 0.26546(14)
C7_2 C 0.70401(19) 1.00000(27) 0.3333
C8_2 C 0.78190(19) 1.00000(27) 0.3333
C9_2 C 0.84667(19) 1.00000(27) 0.3333
C10_2 C 0.92535(17) 1.00000(24) 0.3333
C11 C 0.93528(17) 0.94385(23) 0.28280(18)
H5 H 0.8905 0.9044 0.2470
C13 C 0.56930(14) 0.95934(20) 0.26706(15)
H7 H 0.5291 0.9313 0.2220
C14_2 C 0.55182(17) 1.00000(24) 0.3333
C15_2 C 0.47267(17) 1.00000(24) 0.3333
C16 C 0.39663(15) 0.92910(22) 0.30783(15)
H8 H 0.3956 0.8789 0.2905
C17 C 0.32327(14) 0.93297(20) 0.30810(15)
H9 H 0.2729 0.8850 0.2891
N3_2 N 0.31961(14) 1.00000(20) 0.3333
N4 N 0.84018(12) 0.76333(12) 0.11452(12)
C18 C 0.85503(17) 0.73753(17) 0.17545(17)
S1 S 0.87529(9) 0.70319(7) 0.26412(7)
H12 H 0.6944 0.9945 0.5659
N8 N 0.92274(24) 0.92274(14) -0.0000
N9 N 0.68039(24) 0.68039(14) -0.0000
Fe1_2 Fe 0.80092(2) 0.80092(2) 1.0000
N6 N 0.76333(12) 0.84018(12) 0.88548(12)
C30 C 0.73753(17) 0.85503(17) 0.82455(17)
S2 S 0.70319(7) 0.87529(9) 0.73588(7)
N7 N 0.85143(12) 0.73648(12) 0.92085(11)
N8_2 N 0.92274(24) 0.92274(14) 1.0000
N9_2 N 0.68039(24) 0.68039(14) 1.0000
C12_2 C 0.05458(21) 0.06601(26) 0.61796(16)
H6_2 H 0.0941 0.1115 0.5830
N2_3 N 0.00000(20) 0.07726(24) 0.6666
N4_2 N 0.23667(12) 0.07685(17) 0.44785(12)
C18_2 C 0.26247(17) 0.11750(24) 0.50878(17)
S1_2 S 0.29681(7) 0.17210(11) 0.59745(7)
N7_2 N 0.26352(12) 0.11495(17) 0.25418(11)
N1_2 N 0.14857(12) 0.88505(17) 0.41248(11)
C1_2 C 0.18819(16) 0.88929(22) 0.48851(16)
H1_2 H 0.2400 0.9385 0.5014
C2_2 C 0.15512(17) 0.82348(23) 0.54840(16)
H2_2 H 0.1834 0.8289 0.6022
C3_2 C 0.08153(17) 0.75052(23) 0.52990(15)
C4_2 C 0.04407(17) 0.74460(24) 0.45062(17)
C5_2 C 0.08032(17) 0.81399(24) 0.39426(16)
H4_2 H 0.0538 0.8093 0.3393
C6_2 C 0.04101(21) 0.68603(26) 0.59879(14)
C7_3 C 0.00000(27) 0.70401(33) 0.6666
C8_3 C 0.00000(27) 0.78190(33) 0.6666
C9_3 C 0.00000(27) 0.84667(33) 0.6666
C10_3 C -0.00000(24) 0.92535(29) 0.6666
C11_2 C 0.05615(23) 0.99143(29) 0.61613(18)
H5_2 H 0.0956 0.9861 0.5803
C13_2 C 0.04066(20) 0.60996(24) 0.60039(15)
H7_2 H 0.0687 0.5978 0.5553
C14_3 C -0.00000(24) 0.55182(29) 0.6666
C15_3 C 0.00000(24) 0.47267(29) 0.6666
C16_2 C 0.07090(22) 0.46753(27) 0.64116(15)
H8_2 H 0.1211 0.5167 0.6238
C17_2 C 0.06703(20) 0.39030(24) 0.64143(15)
H9_2 H 0.1150 0.3879 0.6224
N3_3 N -0.00000(20) 0.31961(24) 0.6666
H12_2 H 0.0055 0.6999 0.8992
N6_2 N 0.15982(12) 0.92315(17) 0.21881(12)
C30_2 C 0.14497(17) 0.88250(24) 0.15788(17)
S2_2 S 0.12471(9) 0.82790(11) 0.06921(7)
N2_4 N 1.00000(20) 0.07726(24) 0.6666
C26_2 C 0.94542(21) 0.01143(33) 0.71537(16)
H15_2 H 0.9059 0.0174 0.7503
H3_2 H 0.9945 0.6944 0.4341
C7_4 C 1.00000(27) 0.70401(33) 0.6666
C8_4 C 1.00000(27) 0.78190(33) 0.6666
C9_4 C 1.00000(27) 0.84667(33) 0.6666
C10_4 C 1.00000(24) 0.92535(29) 0.6666
C14_4 C 1.00000(24) 0.55182(29) 0.6666
C15_4 C 1.00000(24) 0.47267(29) 0.6666
N3_4 N 1.00000(20) 0.31961(24) 0.6666
C19_2 C 0.81181(16) 0.70110(27) 0.84482(16)
H10_2 H 0.7600 0.6985 0.8319
C20_2 C 0.84488(17) 0.66836(29) 0.78493(16)
H11_2 H 0.8166 0.6455 0.7311
C21_2 C 0.91847(17) 0.66899(29) 0.80343(15)
C22_2 C 0.95593(17) 0.70053(29) 0.88271(17)
C23_2 C 0.91968(17) 0.73367(29) 0.93907(16)
H13_2 H 0.9462 0.7555 0.9940
C24_2 C 0.95899(21) 0.64502(33) 0.73454(14)
C25_2 C 0.94385(23) 0.93528(37) 0.71720(18)
H14_2 H 0.9044 0.8905 0.7530
C27_2 C 0.95934(20) 0.56930(31) 0.73294(15)
H16_2 H 0.9313 0.5291 0.7780
C28_2 C 0.92910(22) 0.39663(35) 0.69217(15)
H17_2 H 0.8789 0.3956 0.7095
C29_2 C 0.93297(20) 0.32327(31) 0.69190(15)
H18_2 H 0.8850 0.2729 0.7109
C7_5 C 0.29599(33) 0.29599(19) -0.0000
C8_5 C 0.21810(33) 0.21810(19) -0.0000
C9_5 C 0.15333(33) 0.15333(19) -0.0000
C10_5 C 0.07465(29) 0.07465(17) -0.0000
C14_5 C 0.44818(29) 0.44818(17) -0.0000
C15_5 C 0.52733(29) 0.52733(17) -0.0000
C19_3 C 0.29890(27) 0.11071(22) 0.17815(16)
H10_3 H 0.3015 0.0615 0.1652
C20_3 C 0.33164(29) 0.17652(23) 0.11826(16)
H11_3 H 0.3545 0.1711 0.0644
C21_3 C 0.33101(29) 0.24948(23) 0.13676(15)
C22_3 C 0.29947(29) 0.25540(24) 0.21604(17)
H12_3 H 0.3001 0.3056 0.2325
C23_3 C 0.26633(29) 0.18601(24) 0.27240(16)
H13_3 H 0.2445 0.1907 0.3273
C24_3 C 0.35498(33) 0.31397(26) 0.06787(14)
C25_3 C 0.06472(37) 0.00857(29) 0.05053(18)
H14_3 H 0.1095 0.0139 0.0863
C27_3 C 0.43070(31) 0.39004(24) 0.06627(15)
H16_3 H 0.4709 0.4022 0.1113
C28_3 C 0.60337(35) 0.53247(27) 0.02550(15)
H17_3 H 0.6044 0.4833 0.0428
C29_3 C 0.67673(31) 0.60970(24) 0.02523(15)
H18_3 H 0.7271 0.6121 0.0442
N1_3 N 0.11495(17) 0.26352(12) 0.74582(11)
C1_3 C 0.11071(22) 0.29890(15) 0.82185(16)
H1_3 H 0.0615 0.3015 0.8348
C2_3 C 0.17652(23) 0.33164(16) 0.88174(16)
H2_3 H 0.1711 0.3545 0.9356
C3_3 C 0.24948(23) 0.33101(15) 0.86324(15)
C4_3 C 0.25540(24) 0.29947(17) 0.78396(17)
H3_3 H 0.3056 0.3001 0.7675
C5_3 C 0.18601(24) 0.26633(17) 0.72760(16)
H4_3 H 0.1907 0.2445 0.6727
C6_3 C 0.31397(26) 0.35498(15) 0.93213(14)
C7_6 C 0.29599(33) 0.29599(19) 1.0000
C8_6 C 0.21810(33) 0.21810(19) 1.0000
C9_6 C 0.15333(33) 0.15333(19) 1.0000
C10_6 C 0.07465(29) 0.07465(17) 1.0000
C11_3 C 0.00857(29) 0.06472(17) 0.94947(18)
H5_3 H 0.0139 0.1095 0.9137
C13_3 C 0.39004(24) 0.43070(14) 0.93373(15)
H7_3 H 0.4022 0.4709 0.8887
C14_6 C 0.44818(29) 0.44818(17) 1.0000
C15_6 C 0.52733(29) 0.52733(17) 1.0000
C16_3 C 0.53247(27) 0.60337(15) 0.97450(15)
H8_3 H 0.4833 0.6044 0.9572
C17_3 C 0.60970(24) 0.67673(14) 0.97477(15)
H9_3 H 0.6121 0.7271 0.9558
N6_3 N 0.07685(17) 0.23667(12) 0.55215(12)
C30_3 C 0.11750(24) 0.26247(17) 0.49122(17)
S2_3 S 0.17210(11) 0.29681(7) 0.40255(7)
N4_3 N 0.92315(17) 0.15982(12) 0.78119(12)
C18_3 C 0.88250(24) 0.14497(17) 0.84212(17)
S1_3 S 0.82790(11) 0.12471(9) 0.93079(7)
C26_3 C 0.98857(33) 0.93399(26) 0.04870(16)
H15_3 H 0.9826 0.8885 0.0836
C12_3 C 0.93399(26) 0.98857(15) 0.95130(16)
H6_3 H 0.8885 0.9826 0.9164
loop_
_geom_bond_atom_site_label_1
_geom_bond_atom_site_label_2
_geom_bond_site_symmetry_1
_geom_bond_site_symmetry_2
C26 N2 1_555 1_555
H15 C26 1_555 1_555
Fe3 N2 1_555 1_555
H6 C12 1_555 1_555
N2_2 C12 1_555 1_555
Fe3_2 N2_2 1_555 1_555
C8 C7 1_555 1_555
C9 C8 1_555 1_555
C10 C9 1_555 1_555
C15 C14 1_555 1_555
N5 C19 1_555 1_555
C19 H10 1_555 1_555
C20 C19 1_555 1_555
H11 C20 1_555 1_555
C21 C20 1_555 1_555
C22 C21 1_555 1_555
C23 N5 1_555 1_555
H13 C23 1_555 1_555
C24 C7 1_555 1_555
C25 C10 1_555 1_555
H14 C25 1_555 1_555
C27 C14 1_555 1_555
H16 C27 1_555 1_555
C28 C15 1_555 1_555
H17 C28 1_555 1_555
C29 N3 1_555 1_555
H18 C29 1_555 1_555
Fe3 N3 1_555 1_555
Fe4_2 N5 1_555 1_555
C21 C24 1_555 1_555
C22 C23 1_555 1_555
C24 C27 1_555 1_555
C28 C29 1_555 1_555
Fe1 N1 1_555 1_555
N1 C1 1_555 1_555
C1 H1 1_555 1_555
C2 C1 1_555 1_555
H2 C2 1_555 1_555
C3 C2 1_555 1_555
C4 C3 1_555 1_555
C5 N1 1_555 1_555
H4 C5 1_555 1_555
C6 C3 1_555 1_555
C7_2 C6 1_555 1_555
C8_2 C7_2 1_555 1_555
C9_2 C8_2 1_555 1_555
C10_2 C9_2 1_555 1_555
C11 C10_2 1_555 1_555
H5 C11 1_555 1_555
C13 C6 1_555 1_555
H7 C13 1_555 1_555
C14_2 C13 1_555 1_555
C15_2 C14_2 1_555 1_555
C16 C15_2 1_555 1_555
H8 C16 1_555 1_555
C17 C16 1_555 1_555
H9 C17 1_555 1_555
N3_2 C17 1_555 1_555
N4 Fe1 1_555 1_555
C18 N4 1_555 1_555
S1 C18 1_555 1_555
Fe3_2 N3_2 1_555 1_555
N8 Fe1 1_555 1_555
N9 Fe1 1_555 1_555
C4 C5 1_555 1_555
N6 Fe1_2 1_555 1_555
C30 N6 1_555 1_555
S2 C30 1_555 1_555
N7 Fe1_2 1_555 1_555
N8_2 Fe1_2 1_555 1_555
N9_2 Fe1_2 1_555 1_555
H6_2 C12_2 1_555 1_555
N2_3 C12_2 1_555 1_555
N4_2 Fe3 1_555 1_555
C18_2 N4_2 1_555 1_555
S1_2 C18_2 1_555 1_555
Fe4 N2_3 1_555 1_555
N7_2 Fe3 1_555 1_555
Fe3_2 N1_2 1_555 1_555
N1_2 C1_2 1_555 1_555
C1_2 H1_2 1_555 1_555
C2_2 C1_2 1_555 1_555
H2_2 C2_2 1_555 1_555
C3_2 C2_2 1_555 1_555
C4_2 C3_2 1_555 1_555
C5_2 N1_2 1_555 1_555
H4_2 C5_2 1_555 1_555
C6_2 C3_2 1_555 1_555
C7_3 C6_2 1_555 1_555
C8_3 C7_3 1_555 1_555
C9_3 C8_3 1_555 1_555
C10_3 C9_3 1_555 1_555
C11_2 C10_3 1_555 1_555
H5_2 C11_2 1_555 1_555
C13_2 C6_2 1_555 1_555
H7_2 C13_2 1_555 1_555
C14_3 C13_2 1_555 1_555
C15_3 C14_3 1_555 1_555
C16_2 C15_3 1_555 1_555
H8_2 C16_2 1_555 1_555
C17_2 C16_2 1_555 1_555
H9_2 C17_2 1_555 1_555
N3_3 C17_2 1_555 1_555
N6_2 Fe3_2 1_555 1_555
C30_2 N6_2 1_555 1_555
S2_2 C30_2 1_555 1_555
Fe4 N3_3 1_555 1_555
C4_2 C5_2 1_555 1_555
C26_2 N2_4 1_555 1_555
H15_2 C26_2 1_555 1_555
Fe4_2 N2_4 1_555 1_555
C8_4 C7_4 1_555 1_555
C9_4 C8_4 1_555 1_555
C10_4 C9_4 1_555 1_555
C15_4 C14_4 1_555 1_555
N7 C19_2 1_555 1_555
C19_2 H10_2 1_555 1_555
C20_2 C19_2 1_555 1_555
H11_2 C20_2 1_555 1_555
C21_2 C20_2 1_555 1_555
C22_2 C21_2 1_555 1_555
C23_2 N7 1_555 1_555
H13_2 C23_2 1_555 1_555
C24_2 C7_4 1_555 1_555
C25_2 C10_4 1_555 1_555
H14_2 C25_2 1_555 1_555
C27_2 C14_4 1_555 1_555
H16_2 C27_2 1_555 1_555
C28_2 C15_4 1_555 1_555
H17_2 C28_2 1_555 1_555
C29_2 N3_4 1_555 1_555
H18_2 C29_2 1_555 1_555
Fe4_2 N3_4 1_555 1_555
C21_2 C24_2 1_555 1_555
C22_2 C23_2 1_555 1_555
C24_2 C27_2 1_555 1_555
C28_2 C29_2 1_555 1_555
C8_5 C7_5 1_555 1_555
C9_5 C8_5 1_555 1_555
C10_5 C9_5 1_555 1_555
C15_5 C14_5 1_555 1_555
N7_2 C19_3 1_555 1_555
C19_3 H10_3 1_555 1_555
C20_3 C19_3 1_555 1_555
H11_3 C20_3 1_555 1_555
C21_3 C20_3 1_555 1_555
C22_3 C21_3 1_555 1_555
H12_3 C22_3 1_555 1_555
C23_3 N7_2 1_555 1_555
H13_3 C23_3 1_555 1_555
C24_3 C7_5 1_555 1_555
C25_3 C10_5 1_555 1_555
H14_3 C25_3 1_555 1_555
C27_3 C14_5 1_555 1_555
H16_3 C27_3 1_555 1_555
C28_3 C15_5 1_555 1_555
H17_3 C28_3 1_555 1_555
C29_3 N9 1_555 1_555
H18_3 C29_3 1_555 1_555
C21_3 C24_3 1_555 1_555
C22_3 C23_3 1_555 1_555
C24_3 C27_3 1_555 1_555
C28_3 C29_3 1_555 1_555
Fe4 N1_3 1_555 1_555
N1_3 C1_3 1_555 1_555
C1_3 H1_3 1_555 1_555
C2_3 C1_3 1_555 1_555
H2_3 C2_3 1_555 1_555
C3_3 C2_3 1_555 1_555
C4_3 C3_3 1_555 1_555
H3_3 C4_3 1_555 1_555
C5_3 N1_3 1_555 1_555
H4_3 C5_3 1_555 1_555
C6_3 C3_3 1_555 1_555
C7_6 C6_3 1_555 1_555
C8_6 C7_6 1_555 1_555
C9_6 C8_6 1_555 1_555
C10_6 C9_6 1_555 1_555
C11_3 C10_6 1_555 1_555
H5_3 C11_3 1_555 1_555
C13_3 C6_3 1_555 1_555
H7_3 C13_3 1_555 1_555
C14_6 C13_3 1_555 1_555
C15_6 C14_6 1_555 1_555
C16_3 C15_6 1_555 1_555
H8_3 C16_3 1_555 1_555
C17_3 C16_3 1_555 1_555
H9_3 C17_3 1_555 1_555
N9_2 C17_3 1_555 1_555
N6_3 Fe4 1_555 1_555
C30_3 N6_3 1_555 1_555
S2_3 C30_3 1_555 1_555
C4_3 C5_3 1_555 1_555
N4_3 Fe4_2 1_555 1_555
C18_3 N4_3 1_555 1_555
S1_3 C18_3 1_555 1_555
C26_3 N8 1_555 1_555
H15_3 C26_3 1_555 1_555
H6_3 C12_3 1_555 1_555
N8_2 C12_3 1_555 1_555

#END
