
###############################################################################
#
# This file contains modified crystal structure data generated from the
# MOF subset of the Cambridge Structural Database (CSD) v543 
# hosted by the Cambridge Crystallographic Data Centre (CCDC).
#
# This work is licensed under the Creative Commons
# Attribution-NonCommercial-ShareAlike 4.0 International License.
# To view a copy of this license, visit
# http://creativecommons.org/licenses/by-nc-sa/4.0/
# or send a letter to
# Creative Commons, PO Box 1866, Mountain View, CA 94042, USA.
#
# CIF created using the CSD Python API on 29 September 2022
# The structure has been converted into the P1 space group
# The structure has a 3D framework
# The original CSD entry JIVSAJ is in the monoclinic crystal system
# The original CSD entry JIVSAJ is in a Sohncke space group
# The framework has been calculated to contain at least 10.0% void space
# The void calculation uses a probe of radius 1.32A, grid spacing 0.4
# The framework is charged, counterions have been retained in the structure
# H atom positions have been added when not included in the experimental data
#
###############################################################################

data_JIVSAJ
_chemical_formula_moiety         '(C56 H40 Cu6 Eu4 N4 O26 6+)n'
_symmetry_cell_setting           triclinic
_symmetry_space_group_name_H-M   'P 1'
_symmetry_Int_Tables_number      1
_space_group_name_Hall           'P 1'
loop_
_symmetry_equiv_pos_site_id
_symmetry_equiv_pos_as_xyz
1 x,y,z
_cell_length_a                   36.860(5)
_cell_length_b                   6.9900(7)
_cell_length_c                   6.2100(7)
_cell_angle_alpha                90
_cell_angle_beta                 97.020(6)
_cell_angle_gamma                90
_cell_volume                     1588.02
loop_
_atom_site_label
_atom_site_type_symbol
_atom_site_fract_x
_atom_site_fract_y
_atom_site_fract_z
Eu8 Eu 0.279993(5) 0.18912(15) 0.47762(3)
O17 O 0.23342(10) 0.1677(13) 0.1636(6)
C21 C 0.13995(17) 0.0939(10) 0.0549(11)
H13 H 0.1384 0.0424 0.1916
C28 C 0.20697(16) 0.0461(9) 0.1317(9)
Eu7 Eu 0.220007(5) 0.68912(15) 0.52238(3)
O10 O 0.22737(18) 0.0314(11) 0.6502(10)
O13 O 0.22107(19) 0.3398(11) 0.5910(11)
C22 C 0.10840(16) 0.160(3) 0.9276(12)
H14 H 0.0860 0.1555 0.9822
C23 C 0.11025(16) 0.2298(12) 0.7239(13)
H15 H 0.0890 0.2675 0.6376
C24 C 0.14365(17) 0.2446(9) 0.6468(10)
H16 H 0.1448 0.2960 0.5097
C25 C 0.17536(11) 0.185(3) 0.7695(7)
C26 C 0.17392(15) 0.1061(9) 0.9755(9)
C27 C 0.21015(12) 0.178(3) 0.6664(7)
Cu1 Cu 0.0000 0.6898(11) 0.0000
H1 H 0.1311 0.6076 0.0696
C4 C 0.0765(2) 0.6392(14) 0.0353(13)
H2 H 0.0738 0.6000 0.1755
O20 O 0.2048(2) 0.8914(13) 0.2230(16)
Cu1_2 Cu 0.0000 0.6898(11) 1.0000
O1 O 0.15366(12) 0.7447(7) 0.4888(7)
O2 O 0.18099(10) 0.6692(18) 0.8101(6)
O3 O 0.27263(18) 0.5314(11) 0.3498(10)
O4 O 0.27893(19) 0.8398(11) 0.4090(11)
N1 N 0.04671(13) 0.690(4) 0.9033(9)
C1 C 0.15208(13) 0.697(4) 0.6855(8)
C2 C 0.11530(13) 0.696(4) 0.7674(9)
C3 C 0.11095(17) 0.6422(10) 0.9724(11)
C5 C 0.05139(19) 0.7569(13) 0.7066(14)
H3 H 0.0311 0.8016 0.6166
C6 C 0.08513(19) 0.7620(12) 0.6329(12)
H4 H 0.0876 0.8086 0.4952
C8 C 0.39160(16) 0.660(3) 0.0724(12)
H6 H 0.4140 0.6555 0.0178
C9 C 0.38975(16) 0.7298(12) 0.2761(13)
H7 H 0.4110 0.7675 0.3624
C10 C 0.35635(17) 0.7446(9) 0.3532(10)
H8 H 0.3552 0.7960 0.4903
C11 C 0.32464(11) 0.685(3) 0.2305(7)
C12 C 0.32608(15) 0.6061(9) 0.0245(9)
C13 C 0.28985(12) 0.678(3) 0.3336(7)
O7 O 0.1968(2) 0.5090(12) 0.2070(15)
O18 O 0.26658(10) 0.6677(13) 0.8364(6)
H17 H 0.184054 0.596364 0.0964591
H18 H 0.217372 0.445084 0.146384
O6 O 0.2952(2) 0.3914(13) 0.7770(16)
C7 C 0.36005(17) 0.5939(10) 0.9451(11)
H5 H 0.3616 0.5424 0.8084
C14 C 0.29303(16) 0.5461(9) 0.8683(9)
O12 O 0.77263(18) 0.0314(11) 0.3498(10)
Cu1_3 Cu 1.0000 0.6898(11) 0.0000
Eu2 Eu 0.779993(5) 0.68912(15) 0.47762(3)
O8 O 0.84634(12) 0.7447(7) 0.5112(7)
O9 O 0.81901(10) 0.6692(18) 0.1899(6)
O11 O 0.72737(18) 0.5314(11) 0.6502(10)
O15 O 0.72107(19) 0.8398(11) 0.5910(11)
O16 O 0.77893(19) 0.3398(11) 0.4090(11)
O19 O 0.73342(10) 0.6677(13) 0.1636(6)
O22 O 0.7952(2) 0.8914(13) 0.7770(16)
N2 N 0.95329(13) 0.690(4) 0.0967(9)
C15 C 0.84792(13) 0.697(4) 0.3145(8)
C16 C 0.88470(13) 0.696(4) 0.2326(9)
C17 C 0.88905(17) 0.6422(10) 0.0276(11)
C19 C 0.94861(19) 0.7569(13) 0.2934(14)
H11 H 0.9689 0.8016 0.3834
C20 C 0.91487(19) 0.7620(12) 0.3671(12)
H12 H 0.9124 0.8086 0.5048
O23 O 0.8032(2) 0.5090(12) 0.7930(15)
H19 H 0.815946 0.596364 0.903541
H20 H 0.782628 0.445084 0.853616
Cu1_4 Cu 1.0000 0.6898(11) 1.0000
H9 H 0.8689 0.6076 0.9304
C18 C 0.9235(2) 0.6392(14) 0.9647(13)
H10 H 0.9262 0.6000 0.8245
Eu4 Eu 0.720007(5) 0.18912(15) 0.52238(3)
C22_2 C 0.89160(16) 0.160(3) 0.0724(12)
H14_2 H 0.9140 0.1555 0.0178
C23_2 C 0.88975(16) 0.2298(12) 0.2761(13)
H15_2 H 0.9110 0.2675 0.3624
C24_2 C 0.85635(17) 0.2446(9) 0.3532(10)
H16_2 H 0.8552 0.2960 0.4903
C25_2 C 0.82464(11) 0.185(3) 0.2305(7)
C26_2 C 0.82608(15) 0.1061(9) 0.0245(9)
C27_2 C 0.78985(12) 0.178(3) 0.3336(7)
O17_2 O 0.76658(10) 0.1677(13) 0.8364(6)
C21_2 C 0.86005(17) 0.0939(10) 0.9451(11)
H13_2 H 0.8616 0.0424 0.8084
C28_2 C 0.79303(16) 0.0461(9) 0.8683(9)
O6_2 O 0.7048(2) 0.3914(13) 0.2230(16)
C7_2 C 0.63995(17) 0.5939(10) 0.0549(11)
H5_2 H 0.6384 0.5424 0.1916
C14_2 C 0.70697(16) 0.5461(9) 0.1317(9)
C8_2 C 0.60840(16) 0.660(3) 0.9276(12)
H6_2 H 0.5860 0.6555 0.9822
C9_2 C 0.61025(16) 0.7298(12) 0.7239(13)
H7_2 H 0.5890 0.7675 0.6376
C10_2 C 0.64365(17) 0.7446(9) 0.6468(10)
H8_2 H 0.6448 0.7960 0.5097
C11_2 C 0.67536(11) 0.685(3) 0.7695(7)
C12_2 C 0.67392(15) 0.6061(9) 0.9755(9)
C13_2 C 0.71015(12) 0.678(3) 0.6664(7)
Cu1_5 Cu 0.5000 0.1898(11) 0.0000
H1_2 H 0.6311 0.1076 0.0696
C4_2 C 0.5765(2) 0.1392(14) 0.0353(13)
H2_2 H 0.5738 0.1000 0.1755
O8_2 O 0.34634(12) 0.2447(7) 0.5112(7)
O9_2 O 0.31901(10) 0.1692(18) 0.1899(6)
N2_2 N 0.45329(13) 0.190(4) 0.0967(9)
C15_2 C 0.34792(13) 0.197(4) 0.3145(8)
C16_2 C 0.38470(13) 0.196(4) 0.2326(9)
C17_2 C 0.38905(17) 0.1422(10) 0.0276(11)
C19_2 C 0.44861(19) 0.2569(13) 0.2934(14)
H11_2 H 0.4689 0.3016 0.3834
C20_2 C 0.41487(19) 0.2620(12) 0.3671(12)
H12_2 H 0.4124 0.3086 0.5048
O23_2 O 0.3032(2) 0.0090(12) 0.7930(15)
H19_2 H 0.315946 0.0963642 0.903541
Cu1_6 Cu 0.5000 0.1898(11) 1.0000
O1_2 O 0.65366(12) 0.2447(7) 0.4888(7)
O2_2 O 0.68099(10) 0.1692(18) 0.8101(6)
N1_2 N 0.54671(13) 0.190(4) 0.9033(9)
C1_2 C 0.65208(13) 0.197(4) 0.6855(8)
C2_2 C 0.61530(13) 0.196(4) 0.7674(9)
C3_2 C 0.61095(17) 0.1422(10) 0.9724(11)
C5_2 C 0.55139(19) 0.2569(13) 0.7066(14)
H3_2 H 0.5311 0.3016 0.6166
C6_2 C 0.58513(19) 0.2620(12) 0.6329(12)
H4_2 H 0.5876 0.3086 0.4952
O7_2 O 0.6968(2) 0.0090(12) 0.2070(15)
H9_2 H 0.3689 0.1076 0.9304
C18_2 C 0.4235(2) 0.1392(14) 0.9647(13)
H10_2 H 0.4262 0.1000 0.8245
H17_2 H 0.684054 0.0963642 0.0964591
H20_2 H 0.282628 0.945084 0.853616
H18_2 H 0.717372 0.945084 0.146384
loop_
_geom_bond_atom_site_label_1
_geom_bond_atom_site_label_2
_geom_bond_site_symmetry_1
_geom_bond_site_symmetry_2
Eu8 O17 1_555 1_555
O17 C28 1_555 1_555
C21 H13 1_555 1_555
Eu7 O13 1_555 1_555
O13 Eu8 1_555 1_555
H14 C22 1_555 1_555
C23 C22 1_555 1_555
H15 C23 1_555 1_555
C24 C23 1_555 1_555
H16 C24 1_555 1_555
C25 C24 1_555 1_555
C27 O10 1_555 1_555
Eu8 O10 1_555 1_555
O13 C27 1_555 1_555
C25 C26 1_555 1_555
C25 C27 1_555 1_555
H2 C4 1_555 1_555
Eu7 O20 1_555 1_555
Eu7 O1 1_555 1_555
Cu1_2 N1 1_555 1_555
O1 C1 1_555 1_555
O2 Eu7 1_555 1_555
O3 Eu7 1_555 1_555
O4 Eu7 1_555 1_555
C1 O2 1_555 1_555
C2 C1 1_555 1_555
C3 C2 1_555 1_555
C5 N1 1_555 1_555
H3 C5 1_555 1_555
C6 C2 1_555 1_555
H4 C6 1_555 1_555
H6 C8 1_555 1_555
C9 C8 1_555 1_555
H7 C9 1_555 1_555
C10 C9 1_555 1_555
H8 C10 1_555 1_555
C11 C10 1_555 1_555
C13 O3 1_555 1_555
O7 Eu7 1_555 1_555
Eu8 O3 1_555 1_555
O18 Eu7 1_555 1_555
O4 C13 1_555 1_555
C5 C6 1_555 1_555
C11 C12 1_555 1_555
C11 C13 1_555 1_555
O7 H17 1_555 1_555
O7 H18 1_555 1_555
O18 C14 1_555 1_555
O6 C14 1_555 1_555
C7 H5 1_555 1_555
Eu8 O6 1_555 1_555
Eu2 O8 1_555 1_555
O8 C15 1_555 1_555
O9 Eu2 1_555 1_555
O11 Eu2 1_555 1_555
O15 Eu2 1_555 1_555
O16 Eu2 1_555 1_555
O19 Eu2 1_555 1_555
O22 Eu2 1_555 1_555
N2 Cu1_3 1_555 1_555
C15 O9 1_555 1_555
C16 C15 1_555 1_555
C17 C16 1_555 1_555
C19 N2 1_555 1_555
H11 C19 1_555 1_555
C20 C16 1_555 1_555
H12 C20 1_555 1_555
O23 Eu2 1_555 1_555
C19 C20 1_555 1_555
O23 H19 1_555 1_555
O23 H20 1_555 1_555
H10 C18 1_555 1_555
O16 Eu4 1_555 1_555
H14_2 C22_2 1_555 1_555
C23_2 C22_2 1_555 1_555
H15_2 C23_2 1_555 1_555
C24_2 C23_2 1_555 1_555
H16_2 C24_2 1_555 1_555
C25_2 C24_2 1_555 1_555
C27_2 O12 1_555 1_555
Eu4 O12 1_555 1_555
O16 C27_2 1_555 1_555
C25_2 C26_2 1_555 1_555
C25_2 C27_2 1_555 1_555
Eu4 O17_2 1_555 1_555
O17_2 C28_2 1_555 1_555
C21_2 H13_2 1_555 1_555
O19 C14_2 1_555 1_555
O6_2 C14_2 1_555 1_555
C7_2 H5_2 1_555 1_555
Eu4 O6_2 1_555 1_555
H6_2 C8_2 1_555 1_555
C9_2 C8_2 1_555 1_555
H7_2 C9_2 1_555 1_555
C10_2 C9_2 1_555 1_555
H8_2 C10_2 1_555 1_555
C11_2 C10_2 1_555 1_555
C13_2 O11 1_555 1_555
Eu4 O11 1_555 1_555
O15 C13_2 1_555 1_555
C11_2 C12_2 1_555 1_555
C11_2 C13_2 1_555 1_555
H2_2 C4_2 1_555 1_555
Eu8 O8_2 1_555 1_555
O8_2 C15_2 1_555 1_555
O9_2 Eu8 1_555 1_555
N2_2 Cu1_5 1_555 1_555
C15_2 O9_2 1_555 1_555
C16_2 C15_2 1_555 1_555
C17_2 C16_2 1_555 1_555
C19_2 N2_2 1_555 1_555
H11_2 C19_2 1_555 1_555
C20_2 C16_2 1_555 1_555
H12_2 C20_2 1_555 1_555
O23_2 Eu8 1_555 1_555
C19_2 C20_2 1_555 1_555
O23_2 H19_2 1_555 1_555
Eu4 O1_2 1_555 1_555
Cu1_6 N1_2 1_555 1_555
O1_2 C1_2 1_555 1_555
O2_2 Eu4 1_555 1_555
C1_2 O2_2 1_555 1_555
C2_2 C1_2 1_555 1_555
C3_2 C2_2 1_555 1_555
C5_2 N1_2 1_555 1_555
H3_2 C5_2 1_555 1_555
C6_2 C2_2 1_555 1_555
H4_2 C6_2 1_555 1_555
O7_2 Eu4 1_555 1_555
H10_2 C18_2 1_555 1_555
C5_2 C6_2 1_555 1_555
O7_2 H17_2 1_555 1_555

#END
