
###############################################################################
#
# This file contains modified crystal structure data generated from the
# MOF subset of the Cambridge Structural Database (CSD) v543 
# hosted by the Cambridge Crystallographic Data Centre (CCDC).
#
# This work is licensed under the Creative Commons
# Attribution-NonCommercial-ShareAlike 4.0 International License.
# To view a copy of this license, visit
# http://creativecommons.org/licenses/by-nc-sa/4.0/
# or send a letter to
# Creative Commons, PO Box 1866, Mountain View, CA 94042, USA.
#
# CIF created using the CSD Python API on 29 September 2022
# The structure has been converted into the P1 space group
# The structure has a 3D framework
# The original CSD entry JIXWUJ is in the monoclinic crystal system
# The framework has been calculated to contain at least 10.0% void space
# The void calculation uses a probe of radius 1.32A, grid spacing 0.4
#
###############################################################################

data_JIXWUJ
_chemical_formula_moiety         '(C24 H24 Mn19 O48)n'
_symmetry_cell_setting           triclinic
_symmetry_space_group_name_H-M   'P 1'
_symmetry_Int_Tables_number      1
_space_group_name_Hall           'P 1'
loop_
_symmetry_equiv_pos_site_id
_symmetry_equiv_pos_as_xyz
1 x,y,z
_cell_length_a                   11.6954(11)
_cell_length_b                   10.1510(11)
_cell_length_c                   14.9162(16)
_cell_angle_alpha                90
_cell_angle_beta                 91.642(3)
_cell_angle_gamma                90
_cell_volume                     1770.12
loop_
_atom_site_label
_atom_site_type_symbol
_atom_site_fract_x
_atom_site_fract_y
_atom_site_fract_z
Mn2 Mn -0.0000 0.0000 0.5000
Mn11 Mn 0.26039(3) 0.39731(3) 0.68599(2)
Mn14 Mn 0.25679(3) 0.08260(3) 0.63099(2)
O19 O 0.15360(12) 0.26108(14) 0.60717(10)
O26 O 0.03714(13) 0.0007(2) 0.35912(11)
O34 O 0.01833(14) 0.21121(18) 0.50420(12)
C10 C 0.0735(2) 0.2895(2) 0.55150(16)
H9 H 0.0169 0.0130 0.2332
H10 H 0.0514 0.3846 0.5438
Mn2_2 Mn -0.0000 1.0000 0.5000
O6 O 0.12746(12) 0.99716(14) 0.71834(10)
C3 C 0.01992(19) 0.9867(2) 0.71038(14)
Mn8 Mn 0.23961(3) 0.89731(3) 0.81401(2)
O18 O 0.18624(12) 0.97161(16) 0.52102(10)
Mn1 Mn 0.5000 0.0000 0.5000
Mn2_3 Mn 1.0000 0.0000 0.5000
O2 O 0.40130(12) 0.16091(14) 0.56094(10)
O3 O 0.81376(12) 0.02839(16) 0.47898(10)
O8 O 0.39287(14) 0.37593(16) 0.59266(12)
O10 O 0.65363(13) 0.10463(19) 0.53738(12)
C5 C 0.4343(2) 0.2798(2) 0.55463(16)
C6 C 0.75784(19) 0.1001(2) 0.53272(16)
H2 H 0.8088 0.1611 0.5707
H6 H 0.5020 0.2941 0.5150
Mn6 Mn 0.76039(3) 0.10269(3) 0.18599(2)
O13 O 0.30660(12) 0.20417(13) 0.74818(10)
O14 O 0.80660(12) 0.29583(13) 0.24818(10)
O22 O 0.65360(12) 0.23892(14) 0.10717(10)
O23 O 0.64874(12) 0.07801(14) 0.30339(10)
O24 O 0.87254(12) 0.00284(14) 0.28166(10)
O29 O 0.89287(14) 0.12407(16) 0.09266(12)
O30 O 0.31504(16) 0.07107(16) 0.86733(11)
O33 O 0.48822(14) 0.1113(2) 0.37675(12)
C7 C 0.3294(2) 0.1785(2) 0.82944(14)
C8 C 0.5524(2) 0.1313(2) 0.31473(16)
C9 C 0.98008(19) 0.0133(2) 0.28962(14)
H7 H 0.3552 0.2527 0.8714
H11 H 0.5230 0.1966 0.2641
Mn1_2 Mn 0.5000 1.0000 0.5000
Mn2_4 Mn 1.0000 1.0000 0.5000
O1 O 0.19340(12) 0.70417(13) 0.75182(10)
O4 O 0.84640(12) 0.73892(14) 0.39283(10)
O5 O 0.35126(12) 0.92199(14) 0.69661(10)
O7 O 0.96286(13) 0.9993(2) 0.64088(11)
O9 O 0.18496(16) 0.57107(16) 0.63267(11)
O11 O 0.51178(14) 0.8887(2) 0.62325(12)
O12 O 0.98167(14) 0.78879(18) 0.49580(12)
C1 C 0.1706(2) 0.6785(2) 0.67056(14)
C2 C 0.4476(2) 0.8687(2) 0.68527(16)
C4 C 0.9265(2) 0.7105(2) 0.44850(16)
H1 H 0.1448 0.7527 0.6286
H3 H 0.9831 0.9870 0.7668
H4 H 0.9486 0.6154 0.4562
H5 H 0.4770 0.8034 0.7359
Mn7 Mn 0.73961(3) 0.60269(3) 0.31401(2)
Mn12 Mn 0.74321(3) 0.91740(3) 0.36901(2)
Mn13 Mn 0.24321(3) 0.58260(3) 0.86901(2)
O15 O 0.69340(12) 0.79583(13) 0.25182(10)
O16 O 0.59870(12) 0.83909(14) 0.43906(10)
O20 O 0.34640(12) 0.76108(14) 0.89283(10)
O27 O 0.60713(14) 0.62407(16) 0.40734(12)
O28 O 0.10713(14) 0.87593(16) 0.90734(12)
O31 O 0.68496(16) 0.92893(16) 0.13267(11)
O32 O 0.34637(13) 0.89537(19) 0.46262(12)
C11 C 0.5657(2) 0.7202(2) 0.44537(16)
C12 C 0.24216(19) 0.8999(2) 0.46728(16)
H8 H 0.1912 0.8389 0.4293
H12 H 0.4980 0.7059 0.4850
Mn1_3 Mn 0.0000 0.5000 0.0000
Mn5 Mn 0.5000 0.5000 0.0000
O32_2 O 0.15363(13) 0.39537(19) 0.03738(12)
O33_2 O 0.01178(14) 0.6113(2) 0.12325(12)
C12_2 C 0.25784(19) 0.3999(2) 0.03272(16)
H8_2 H 0.3088 0.3389 0.0707
H12_2 H 0.0020 0.2059 0.0150
Mn1_4 Mn 0.0000 0.5000 1.0000
O2_2 O 0.09870(12) 0.66091(14) 0.93906(10)
O5_2 O 0.14874(12) 0.42199(14) 0.80339(10)
C2_2 C 0.0524(2) 0.3687(2) 0.81473(16)
C5_2 C 0.0657(2) 0.7798(2) 0.94537(16)
H5_2 H 0.0230 0.3034 0.7641
Mn5_2 Mn 0.5000 0.5000 1.0000
O17 O 0.31376(12) 0.47161(16) 0.97898(10)
O25 O 0.37254(12) 0.49716(14) 0.78166(10)
Mn1_5 Mn 1.0000 0.5000 0.0000
O3_2 O 0.68624(12) 0.52839(16) 0.02102(10)
O12_2 O 0.51833(14) 0.28879(18) 0.00420(12)
C4_2 C 0.5735(2) 0.2105(2) 0.05150(16)
H4_2 H 0.5514 0.1154 0.0438
Mn12_2 Mn 0.75679(3) 0.41740(3) 0.13099(2)
O16_2 O 0.90130(12) 0.33909(14) 0.06094(10)
O23_2 O 0.85126(12) 0.57801(14) 0.19661(10)
O24_2 O 0.62746(12) 0.50284(14) 0.21834(10)
O26_2 O 0.46286(13) 0.5007(2) 0.14088(11)
O31_2 O 0.81504(16) 0.42893(16) 0.36733(11)
C8_2 C 0.9476(2) 0.6313(2) 0.18527(16)
C9_2 C 0.51992(19) 0.5133(2) 0.21038(14)
C11_2 C 0.9343(2) 0.2202(2) 0.05463(16)
H9_2 H 0.4831 0.5130 0.2668
H11_2 H 0.9770 0.6966 0.2359
Mn1_6 Mn 1.0000 0.5000 1.0000
O7_2 O 0.53714(13) 0.4993(2) 0.85912(11)
O10_2 O 0.84637(13) 0.60463(19) 0.96262(12)
O11_2 O 0.98822(14) 0.3887(2) 0.87675(12)
C3_2 C 0.48008(19) 0.4867(2) 0.78962(14)
C6_2 C 0.74216(19) 0.6001(2) 0.96728(16)
H2_2 H 0.6912 0.6611 0.9293
H3_2 H 0.5169 0.4870 0.7332
H6_2 H 0.9980 0.7941 0.9850
O34_2 O 0.48167(14) 0.71121(18) 0.99580(12)
C10_2 C 0.4265(2) 0.7895(2) 0.94850(16)
H10_2 H 0.4486 0.8846 0.9562
C1_2 C 0.8294(2) 0.3215(2) 0.32944(14)
H1_2 H 0.8552 0.2473 0.3714
C7_2 C 0.6706(2) 0.8215(2) 0.17056(14)
H7_2 H 0.6448 0.7473 0.1286
loop_
_geom_bond_atom_site_label_1
_geom_bond_atom_site_label_2
_geom_bond_site_symmetry_1
_geom_bond_site_symmetry_2
Mn11 O19 1_555 1_555
O19 Mn14 1_555 1_555
O26 Mn2 1_555 1_555
O34 Mn2 1_555 1_555
C10 O19 1_555 1_555
H10 C10 1_555 1_555
O34 C10 1_555 1_555
O6 C3 1_555 1_555
Mn8 O6 1_555 1_555
O18 Mn2_2 1_555 1_555
Mn1 O2 1_555 1_555
Mn2_3 O3 1_555 1_555
Mn14 O2 1_555 1_555
O2 C5 1_555 1_555
O3 C6 1_555 1_555
O8 C5 1_555 1_555
O10 Mn1 1_555 1_555
C5 H6 1_555 1_555
C6 O10 1_555 1_555
H2 C6 1_555 1_555
Mn6 O14 1_555 1_555
Mn11 O8 1_555 1_555
O13 Mn14 1_555 1_555
O22 Mn6 1_555 1_555
O23 Mn6 1_555 1_555
O24 Mn6 1_555 1_555
O29 Mn6 1_555 1_555
O33 Mn1 1_555 1_555
C7 O13 1_555 1_555
C8 O23 1_555 1_555
C9 O24 1_555 1_555
H7 C7 1_555 1_555
H11 C8 1_555 1_555
Mn11 O13 1_555 1_555
O30 C7 1_555 1_555
O33 C8 1_555 1_555
Mn8 O1 1_555 1_555
O1 C1 1_555 1_555
O4 C4 1_555 1_555
O5 Mn8 1_555 1_555
O7 Mn2_4 1_555 1_555
O9 C1 1_555 1_555
O11 Mn1_2 1_555 1_555
O12 Mn2_4 1_555 1_555
C1 H1 1_555 1_555
C2 O5 1_555 1_555
C4 O12 1_555 1_555
H4 C4 1_555 1_555
H5 C2 1_555 1_555
Mn7 O4 1_555 1_555
Mn11 O9 1_555 1_555
Mn13 O1 1_555 1_555
O15 Mn7 1_555 1_555
O16 Mn1_2 1_555 1_555
O20 Mn8 1_555 1_555
O27 Mn7 1_555 1_555
O28 Mn8 1_555 1_555
O32 Mn1_2 1_555 1_555
C11 O16 1_555 1_555
C12 O18 1_555 1_555
H8 C12 1_555 1_555
H12 C11 1_555 1_555
O4 Mn12 1_555 1_555
O11 C2 1_555 1_555
Mn12 O15 1_555 1_555
Mn12 O16 1_555 1_555
Mn13 O20 1_555 1_555
O27 C11 1_555 1_555
O32 C12 1_555 1_555
O32_2 Mn1_3 1_555 1_555
O33_2 Mn1_3 1_555 1_555
H8_2 C12_2 1_555 1_555
O32_2 C12_2 1_555 1_555
Mn1_4 O2_2 1_555 1_555
Mn13 O2_2 1_555 1_555
O2_2 C5_2 1_555 1_555
O5_2 Mn11 1_555 1_555
O28 C5_2 1_555 1_555
C2_2 O5_2 1_555 1_555
H5_2 C2_2 1_555 1_555
Mn5_2 O17 1_555 1_555
O17 Mn13 1_555 1_555
O25 Mn11 1_555 1_555
Mn13 O5_2 1_555 1_555
Mn13 O25 1_555 1_555
Mn5 O3_2 1_555 1_555
O22 C4_2 1_555 1_555
O12_2 Mn5 1_555 1_555
C4_2 O12_2 1_555 1_555
H4_2 C4_2 1_555 1_555
Mn12_2 O3_2 1_555 1_555
O16_2 Mn1_5 1_555 1_555
O23_2 Mn7 1_555 1_555
O24_2 Mn7 1_555 1_555
O26_2 Mn5 1_555 1_555
O31_2 Mn7 1_555 1_555
C8_2 O23_2 1_555 1_555
C9_2 O24_2 1_555 1_555
C11_2 O16_2 1_555 1_555
H9_2 C9_2 1_555 1_555
H11_2 C8_2 1_555 1_555
O22 Mn12_2 1_555 1_555
Mn12_2 O14 1_555 1_555
Mn12_2 O16_2 1_555 1_555
Mn12_2 O23_2 1_555 1_555
Mn12_2 O24_2 1_555 1_555
O26_2 C9_2 1_555 1_555
O29 C11_2 1_555 1_555
O25 C3_2 1_555 1_555
O7_2 Mn5_2 1_555 1_555
O10_2 Mn1_6 1_555 1_555
O11_2 Mn1_6 1_555 1_555
C3_2 O7_2 1_555 1_555
C6_2 O10_2 1_555 1_555
H2_2 C6_2 1_555 1_555
H3_2 C3_2 1_555 1_555
O34_2 Mn5_2 1_555 1_555
C10_2 O20 1_555 1_555
H10_2 C10_2 1_555 1_555
O34_2 C10_2 1_555 1_555
O14 C1_2 1_555 1_555
O31_2 C1_2 1_555 1_555
C1_2 H1_2 1_555 1_555
C7_2 O15 1_555 1_555
H7_2 C7_2 1_555 1_555
O31 C7_2 1_555 1_555

#END
