
###############################################################################
#
# This file contains modified crystal structure data generated from the
# MOF subset of the Cambridge Structural Database (CSD) v543 
# hosted by the Cambridge Crystallographic Data Centre (CCDC).
#
# This work is licensed under the Creative Commons
# Attribution-NonCommercial-ShareAlike 4.0 International License.
# To view a copy of this license, visit
# http://creativecommons.org/licenses/by-nc-sa/4.0/
# or send a letter to
# Creative Commons, PO Box 1866, Mountain View, CA 94042, USA.
#
# CIF created using the CSD Python API on 29 September 2022
# The structure has been converted into the P1 space group
# The structure has a 3D framework
# The original CSD entry JIYBEB is in the orthorhombic crystal system
# The framework has been calculated to contain at least 10.0% void space
# The void calculation uses a probe of radius 1.32A, grid spacing 0.4
# H atom positions have been added when not included in the experimental data
# Generated hydrogen atom positions removed from atoms on special positions
#
###############################################################################

data_JIYBEB
_chemical_formula_moiety         '(C100 H140 Ni16 O70 Si4)n'
_symmetry_cell_setting           triclinic
_symmetry_space_group_name_H-M   'P 1'
_symmetry_Int_Tables_number      1
_space_group_name_Hall           'P 1'
loop_
_symmetry_equiv_pos_site_id
_symmetry_equiv_pos_as_xyz
1 x,y,z
_cell_length_a                   12.260(3)
_cell_length_b                   18.225(5)
_cell_length_c                   19.795(5)
_cell_angle_alpha                90
_cell_angle_beta                 90
_cell_angle_gamma                90
_cell_volume                     4422.97
loop_
_atom_site_label
_atom_site_type_symbol
_atom_site_fract_x
_atom_site_fract_y
_atom_site_fract_z
Ni1 Ni 0.44210(5) 0.02302(4) 0.56395(3)
Ni2 Ni 0.72923(5) 0.04843(4) 0.54849(3)
O2 O 0.1836(3) 0.0147(2) 0.85407(17)
O7 O 0.5786(3) 0.05114(19) 0.51174(17)
O8 O 0.4739(4) 0.1015(3) 0.6458(2)
O9 O 0.7087(5) 0.1588(3) 0.5801(3)
O10 O 0.8941(5) 0.0567(4) 0.5857(4)
Ni15 Ni 0.22923(5) 0.04843(4) 0.95151(3)
O24 O 0.6836(3) 0.0147(2) 0.64593(17)
O27 O 0.7804(3) 0.0856(2) 0.45426(16)
O28 O 0.3654(3) 0.1122(2) 0.52633(18)
O1 O 0.0364(3) 0.9495(2) 0.88328(18)
O3 O 0.3089(3) 0.9889(2) 0.61565(17)
O4 O 0.2196(3) 0.9144(2) 0.54574(16)
C2 C 0.0319(4) 0.8324(3) 0.7065(2)
C3 C 0.0391(4) 0.8709(3) 0.7666(2)
C4 C 0.1114(4) 0.9277(3) 0.7767(2)
C5 C 0.1782(4) 0.9496(3) 0.7241(2)
H2 H 0.2286 0.9871 0.7306
C6 C 0.1699(4) 0.9155(3) 0.6608(2)
C7 C 0.0992(4) 0.8574(3) 0.6530(2)
H3 H 0.0955 0.8339 0.6114
C8 C 0.2392(4) 0.9415(3) 0.6029(2)
C9 C 0.1108(5) 0.9664(3) 0.8434(2)
O11 O 0.0364(3) 0.5505(2) 0.88328(18)
O12 O 0.1836(3) 0.4853(2) 0.85407(17)
O13 O 0.3089(3) 0.5111(2) 0.61565(17)
O14 O 0.2196(3) 0.5856(2) 0.54574(16)
C15 C 0.0319(4) 0.6676(3) 0.7065(2)
C16 C 0.0391(4) 0.6291(3) 0.7666(2)
C17 C 0.1114(4) 0.5723(3) 0.7767(2)
C18 C 0.1782(4) 0.5504(3) 0.7241(2)
H7 H 0.2286 0.5129 0.7306
C19 C 0.1699(4) 0.5845(3) 0.6608(2)
C20 C 0.0992(4) 0.6426(3) 0.6530(2)
H8 H 0.0955 0.6661 0.6114
C21 C 0.2392(4) 0.5585(3) 0.6029(2)
C22 C 0.1108(5) 0.5336(3) 0.8434(2)
Ni8 Ni 0.55790(5) 0.97698(4) 0.43605(3)
Ni10 Ni 0.44210(5) 0.47698(4) 0.56395(3)
Ni12 Ni 0.27077(5) 0.54843(4) 0.45151(3)
Ni13 Ni 0.22923(5) 0.45157(4) 0.95151(3)
Ni14 Ni 0.27077(5) 0.95157(4) 0.45151(3)
O22 O 0.5364(3) 0.9495(2) 0.61672(18)
O29 O 0.7692(3) 0.9434(2) 0.5286(2)
O32 O 0.4214(3) 0.94886(19) 0.48826(17)
Ni9 Ni 0.94210(5) 0.02302(4) 0.93605(3)
O21 O 0.4636(3) 0.0505(2) 0.38328(18)
O25 O 0.6911(3) 0.0111(2) 0.38435(17)
O30 O 0.2308(3) 0.0566(2) 0.4714(2)
Si1 Si 0.94357(15) 0.7500 0.70022(9)
O5 O 0.6346(3) 0.8878(2) 0.47367(18)
C1 C 0.8404(7) 0.7500 0.7700(4)
H1 H 0.9929 0.8577 0.8018
C10 C 0.8694(6) 0.7500 0.6181(3)
C11 C 0.8317(4) 0.8143(3) 0.5905(3)
H4 H 0.8552 0.8586 0.6088
C12 C 0.7601(4) 0.8159(3) 0.5365(3)
C13 C 0.7236(6) 0.7500 0.5096(4)
H5 H 0.6749 0.7500 0.4735
C14 C 0.7179(4) 0.8877(3) 0.5112(3)
O15 O 0.6346(3) 0.6122(2) 0.47367(18)
O16 O 0.7692(3) 0.5566(2) 0.5286(2)
H6 H 0.9929 0.6423 0.8018
C23 C 0.8317(4) 0.6857(3) 0.5905(3)
H9 H 0.8552 0.6414 0.6088
C24 C 0.7601(4) 0.6841(3) 0.5365(3)
C25 C 0.7179(4) 0.6123(3) 0.5112(3)
O18 O 0.5261(4) 0.8985(3) 0.3542(2)
O19 O 0.2913(5) 0.8412(3) 0.4199(3)
O20 O 0.1059(5) 0.9433(4) 0.4143(4)
Ni6 Ni 0.55790(5) 0.52302(4) 0.43605(3)
Ni7 Ni 0.94210(5) 0.47698(4) 0.93605(3)
Ni16 Ni 0.72923(5) 0.45157(4) 0.54849(3)
O23 O 0.3164(3) 0.9853(2) 0.35407(17)
H16 H 0.789938 0.799005 0.766246
H17 H 0.789109 0.701432 0.765776
H18 H 0.882165 0.749563 0.818552
O26 O 0.2804(3) 0.0856(2) 0.04574(16)
O17 O 0.0786(3) 0.05114(19) 0.98826(17)
O19_2 O 0.2087(5) 0.1588(3) 0.9199(3)
O20_2 O 0.3941(5) 0.0567(4) 0.9143(4)
H19 H 0.0154372 0.143971 0.872245
H20 H 0.0170925 0.0771411 0.818174
Ni5 Ni 0.05790(5) 0.97698(4) 0.06395(3)
O30_2 O 0.2692(3) 0.9434(2) 0.9714(2)
Si1_2 Si 0.55643(15) 0.2500 0.20022(9)
O3_2 O 0.1911(3) 0.0111(2) 0.11565(17)
O6 O 0.7308(3) 0.0566(2) 0.0286(2)
C1_2 C 0.6596(7) 0.2500 0.2700(4)
C2_2 C 0.4681(4) 0.1676(3) 0.2065(2)
C3_2 C 0.4609(4) 0.1291(3) 0.2666(2)
H1_2 H 0.5071 0.1423 0.3018
C4_2 C 0.3886(4) 0.0723(3) 0.2767(2)
C5_2 C 0.3218(4) 0.0504(3) 0.2241(2)
H2_2 H 0.2714 0.0129 0.2306
C6_2 C 0.3301(4) 0.0845(3) 0.1608(2)
C7_2 C 0.4008(4) 0.1426(3) 0.1530(2)
H3_2 H 0.4045 0.1661 0.1114
C8_2 C 0.2608(4) 0.0585(3) 0.1029(2)
C9_2 C 0.3892(5) 0.0336(3) 0.3434(2)
C10_2 C 0.6306(6) 0.2500 0.1181(3)
C11_2 C 0.6683(4) 0.1857(3) 0.0905(3)
H4_2 H 0.6448 0.1414 0.1088
C12_2 C 0.7399(4) 0.1841(3) 0.0365(3)
C13_2 C 0.7764(6) 0.2500 0.0096(4)
C14_2 C 0.7821(4) 0.1123(3) 0.0112(3)
O11_2 O 0.4636(3) 0.4495(2) 0.38328(18)
O12_2 O 0.3164(3) 0.5147(2) 0.35407(17)
O13_2 O 0.1911(3) 0.4889(2) 0.11565(17)
O14_2 O 0.2804(3) 0.4144(2) 0.04574(16)
O16_2 O 0.7308(3) 0.4434(2) 0.0286(2)
C15_2 C 0.4681(4) 0.3324(3) 0.2065(2)
C16_2 C 0.4609(4) 0.3709(3) 0.2666(2)
H6_2 H 0.5071 0.3577 0.3018
C17_2 C 0.3886(4) 0.4277(3) 0.2767(2)
C18_2 C 0.3218(4) 0.4496(3) 0.2241(2)
H7_2 H 0.2714 0.4871 0.2306
C19_2 C 0.3301(4) 0.4155(3) 0.1608(2)
C20_2 C 0.4008(4) 0.3574(3) 0.1530(2)
H8_2 H 0.4045 0.3339 0.1114
C21_2 C 0.2608(4) 0.4415(3) 0.1029(2)
C22_2 C 0.3892(5) 0.4664(3) 0.3434(2)
C23_2 C 0.6683(4) 0.3143(3) 0.0905(3)
H9_2 H 0.6448 0.3586 0.1088
C24_2 C 0.7399(4) 0.3159(3) 0.0365(3)
C25_2 C 0.7821(4) 0.3877(3) 0.0112(3)
Ni10_2 Ni 0.05790(5) 0.52302(4) 0.06395(3)
Ni16_2 Ni 0.77077(5) 0.54843(4) 0.04849(3)
H16_2 H 0.710062 0.200995 0.266246
H17_2 H 0.710891 0.298568 0.265776
H18_2 H 0.617835 0.250437 0.318552
O5_2 O 0.8654(3) 0.1122(2) 0.97367(18)
H5_2 H 0.8251 0.2500 0.9735
O15_2 O 0.8654(3) 0.3878(2) 0.97367(18)
O18_2 O 0.9739(4) 0.1015(3) 0.8542(2)
O8_2 O 0.0261(4) 0.8985(3) 0.1458(2)
Ni11 Ni 0.77077(5) 0.95157(4) 0.04849(3)
O28_2 O 0.1346(3) 0.8878(2) 0.02633(18)
O31 O 0.9214(3) 0.94886(19) 0.01174(17)
H10 H 0.0155468 0.925531 0.188862
O25_2 O 0.8089(3) 0.9889(2) 0.88435(17)
O22_2 O 0.9636(3) 0.0505(2) 0.11672(18)
O9_2 O 0.7913(5) 0.8412(3) 0.0801(3)
O10_2 O 0.6059(5) 0.9433(4) 0.0857(4)
O24_2 O 0.8164(3) 0.9853(2) 0.14593(17)
H11 H 0.959297 0.869896 0.135261
O27_2 O 0.7196(3) 0.9144(2) 0.95426(16)
Si1_3 Si 0.05643(15) 0.2500 0.29978(9)
O5_3 O 0.3654(3) 0.3878(2) 0.52633(18)
O6_2 O 0.2308(3) 0.4434(2) 0.4714(2)
C1_3 C 0.1596(7) 0.2500 0.2300(4)
H1_3 H 0.0071 0.3577 0.1982
C10_3 C 0.1306(6) 0.2500 0.3819(3)
C11_3 C 0.1683(4) 0.3143(3) 0.4095(3)
H4_3 H 0.1448 0.3586 0.3912
C12_3 C 0.2399(4) 0.3159(3) 0.4635(3)
C13_3 C 0.2764(6) 0.2500 0.4904(4)
H5_3 H 0.3251 0.2500 0.5265
C14_3 C 0.2821(4) 0.3877(3) 0.4888(3)
H6_3 H 0.0071 0.1423 0.1982
C23_3 C 0.1683(4) 0.1857(3) 0.4095(3)
H9_3 H 0.1448 0.1414 0.3912
C24_3 C 0.2399(4) 0.1841(3) 0.4635(3)
C25_3 C 0.2821(4) 0.1123(3) 0.4888(3)
O17_2 O 0.5786(3) 0.44886(19) 0.51174(17)
O18_3 O 0.4739(4) 0.3985(3) 0.6458(2)
O19_3 O 0.7087(5) 0.3412(3) 0.5801(3)
O20_3 O 0.8941(5) 0.4433(4) 0.5857(4)
O21_2 O 0.5364(3) 0.5505(2) 0.61672(18)
O23_2 O 0.6836(3) 0.4853(2) 0.64593(17)
O26_2 O 0.7804(3) 0.4144(2) 0.45426(16)
O31_2 O 0.4214(3) 0.55114(19) 0.48826(17)
H16_3 H 0.210062 0.299005 0.233754
H17_3 H 0.210891 0.201432 0.234224
H18_3 H 0.117835 0.249563 0.181448
O1_2 O 0.9636(3) 0.4495(2) 0.11672(18)
O2_2 O 0.8164(3) 0.5147(2) 0.14593(17)
O3_3 O 0.6911(3) 0.4889(2) 0.38435(17)
O8_3 O 0.5261(4) 0.6015(3) 0.3542(2)
O9_3 O 0.2913(5) 0.6588(3) 0.4199(3)
O10_3 O 0.1059(5) 0.5567(4) 0.4143(4)
C2_3 C 0.9681(4) 0.3324(3) 0.2935(2)
C3_3 C 0.9609(4) 0.3709(3) 0.2334(2)
C4_3 C 0.8886(4) 0.4277(3) 0.2233(2)
C5_3 C 0.8218(4) 0.4496(3) 0.2759(2)
H2_3 H 0.7714 0.4871 0.2694
C6_3 C 0.8301(4) 0.4155(3) 0.3392(2)
C7_3 C 0.9008(4) 0.3574(3) 0.3470(2)
H3_3 H 0.9045 0.3339 0.3886
C8_3 C 0.7608(4) 0.4415(3) 0.3971(2)
C9_3 C 0.8892(5) 0.4664(3) 0.1566(2)
C15_3 C 0.9681(4) 0.1676(3) 0.2935(2)
C16_3 C 0.9609(4) 0.1291(3) 0.2334(2)
C17_3 C 0.8886(4) 0.0723(3) 0.2233(2)
C18_3 C 0.8218(4) 0.0504(3) 0.2759(2)
H7_3 H 0.7714 0.0129 0.2694
C19_3 C 0.8301(4) 0.0845(3) 0.3392(2)
C20_3 C 0.9008(4) 0.1426(3) 0.3470(2)
H8_3 H 0.9045 0.1661 0.3886
C21_3 C 0.7608(4) 0.0585(3) 0.3971(2)
C22_3 C 0.8892(5) 0.0336(3) 0.1566(2)
O7_2 O 0.0786(3) 0.44886(19) 0.98826(17)
O9_4 O 0.2087(5) 0.3412(3) 0.9199(3)
O10_4 O 0.3941(5) 0.4433(4) 0.9143(4)
O29_2 O 0.2692(3) 0.5566(2) 0.9714(2)
H11_2 H 0.0407031 0.369896 0.864739
O5_4 O 0.1346(3) 0.6122(2) 0.02633(18)
H5_4 H 0.1749 0.7500 0.0265
O18_4 O 0.0261(4) 0.6015(3) 0.1458(2)
O32_2 O 0.9214(3) 0.55114(19) 0.01174(17)
Si1_4 Si 0.44357(15) 0.7500 0.79978(9)
O3_4 O 0.8089(3) 0.5111(2) 0.88435(17)
O4_2 O 0.7196(3) 0.5856(2) 0.95426(16)
O8_4 O 0.9739(4) 0.3985(3) 0.8542(2)
C1_4 C 0.3404(7) 0.7500 0.7300(4)
C2_4 C 0.5319(4) 0.6676(3) 0.7935(2)
C3_4 C 0.5391(4) 0.6291(3) 0.7334(2)
H1_4 H 0.4929 0.6423 0.6982
C4_4 C 0.6114(4) 0.5723(3) 0.7233(2)
C5_4 C 0.6782(4) 0.5504(3) 0.7759(2)
H2_4 H 0.7286 0.5129 0.7694
C6_4 C 0.6699(4) 0.5845(3) 0.8392(2)
C7_4 C 0.5992(4) 0.6426(3) 0.8470(2)
H3_4 H 0.5955 0.6661 0.8886
C8_4 C 0.7392(4) 0.5585(3) 0.8971(2)
C9_4 C 0.6108(5) 0.5336(3) 0.6566(2)
C10_4 C 0.3694(6) 0.7500 0.8819(3)
C11_4 C 0.3317(4) 0.6857(3) 0.9095(3)
H4_4 H 0.3552 0.6414 0.8912
C12_4 C 0.2601(4) 0.6841(3) 0.9635(3)
C13_4 C 0.2236(6) 0.7500 0.9904(4)
C14_4 C 0.2179(4) 0.6123(3) 0.9888(3)
C15_4 C 0.5319(4) 0.8324(3) 0.7935(2)
C16_4 C 0.5391(4) 0.8709(3) 0.7334(2)
H6_4 H 0.4929 0.8577 0.6982
C17_4 C 0.6114(4) 0.9277(3) 0.7233(2)
C18_4 C 0.6782(4) 0.9496(3) 0.7759(2)
H7_4 H 0.7286 0.9871 0.7694
C19_4 C 0.6699(4) 0.9155(3) 0.8392(2)
C20_4 C 0.5992(4) 0.8574(3) 0.8470(2)
H8_4 H 0.5955 0.8339 0.8886
C21_4 C 0.7392(4) 0.9415(3) 0.8971(2)
C22_4 C 0.6108(5) 0.9664(3) 0.6566(2)
C23_4 C 0.3317(4) 0.8143(3) 0.9095(3)
H9_4 H 0.3552 0.8586 0.8912
C24_4 C 0.2601(4) 0.8159(3) 0.9635(3)
C25_4 C 0.2179(4) 0.8877(3) 0.9888(3)
H10_2 H 0.984453 0.425531 0.811138
H16_4 H 0.289938 0.700995 0.733754
H17_4 H 0.289109 0.798568 0.734224
H18_4 H 0.382165 0.750437 0.681448
O19_4 O 0.7913(5) 0.6588(3) 0.0801(3)
O20_4 O 0.6059(5) 0.5567(4) 0.0857(4)
H19_2 H 0.984563 0.643971 0.127755
H20_2 H 0.982907 0.577141 0.181826
H16_5 H 0.210062 0.200995 0.233754
H17_5 H 0.210891 0.298568 0.234224
H18_5 H 0.117835 0.250437 0.181448
H11_3 H 0.0407031 0.130104 0.864739
H10_3 H 0.984453 0.0744687 0.811138
H16_6 H 0.289938 0.799005 0.733754
H17_6 H 0.289109 0.701432 0.734224
H18_6 H 0.382165 0.749563 0.681448
H19_3 H 0.984563 0.856029 0.127755
H20_3 H 0.982907 0.922859 0.181826
H16_7 H 0.789938 0.700995 0.766246
H17_7 H 0.789109 0.798568 0.765776
H18_7 H 0.882165 0.750437 0.818552
H19_4 H 0.0154372 0.356029 0.872245
H20_4 H 0.0170925 0.422859 0.818174
H10_4 H 0.0155468 0.574469 0.188862
H16_8 H 0.710062 0.299005 0.266246
H17_8 H 0.710891 0.201432 0.265776
H18_8 H 0.617835 0.249563 0.318552
H11_4 H 0.959297 0.630104 0.135261
loop_
_geom_bond_atom_site_label_1
_geom_bond_atom_site_label_2
_geom_bond_site_symmetry_1
_geom_bond_site_symmetry_2
Ni2 O7 1_555 1_555
O7 Ni1 1_555 1_555
O8 Ni1 1_555 1_555
O9 Ni2 1_555 1_555
O10 Ni2 1_555 1_555
Ni15 O2 1_555 1_555
O24 Ni2 1_555 1_555
O27 Ni2 1_555 1_555
O28 Ni1 1_555 1_555
O1 C9 1_555 1_555
O3 C8 1_555 1_555
O4 C8 1_555 1_555
C3 C2 1_555 1_555
C4 C3 1_555 1_555
C5 C4 1_555 1_555
H2 C5 1_555 1_555
C6 C5 1_555 1_555
C7 C2 1_555 1_555
H3 C7 1_555 1_555
C8 C6 1_555 1_555
C9 C4 1_555 1_555
O11 C22 1_555 1_555
O12 C22 1_555 1_555
O13 C21 1_555 1_555
O14 C21 1_555 1_555
C16 C15 1_555 1_555
C17 C16 1_555 1_555
C18 C17 1_555 1_555
H7 C18 1_555 1_555
C19 C18 1_555 1_555
C20 C15 1_555 1_555
H8 C20 1_555 1_555
C21 C19 1_555 1_555
C22 C17 1_555 1_555
Ni10 O13 1_555 1_555
Ni12 O14 1_555 1_555
Ni13 O12 1_555 1_555
Ni14 O4 1_555 1_555
C6 C7 1_555 1_555
C19 C20 1_555 1_555
Ni8 O32 1_555 1_555
Ni14 O32 1_555 1_555
Si1 C1 1_555 1_555
O5 C14 1_555 1_555
O29 C14 1_555 1_555
C10 Si1 1_555 1_555
C11 C10 1_555 1_555
H4 C11 1_555 1_555
C12 C11 1_555 1_555
C13 C12 1_555 1_555
H5 C13 1_555 1_555
C14 C12 1_555 1_555
O15 C25 1_555 1_555
O16 C25 1_555 1_555
C23 C10 1_555 1_555
H9 C23 1_555 1_555
C24 C13 1_555 1_555
C25 C24 1_555 1_555
Ni8 O5 1_555 1_555
O18 Ni8 1_555 1_555
O19 Ni14 1_555 1_555
O20 Ni14 1_555 1_555
Ni6 O15 1_555 1_555
Ni16 O16 1_555 1_555
O23 Ni14 1_555 1_555
C23 C24 1_555 1_555
C1 H16 1_555 1_555
C1 H17 1_555 1_555
C1 H18 1_555 1_555
Ni15 O17 1_555 1_555
O19_2 Ni15 1_555 1_555
O20_2 Ni15 1_555 1_555
Si1_2 C1_2 1_555 1_555
O21 C9_2 1_555 1_555
O3_2 C8_2 1_555 1_555
O26 C8_2 1_555 1_555
O6 C14_2 1_555 1_555
C2_2 Si1_2 1_555 1_555
C3_2 C2_2 1_555 1_555
H1_2 C3_2 1_555 1_555
C4_2 C3_2 1_555 1_555
C5_2 C4_2 1_555 1_555
H2_2 C5_2 1_555 1_555
C6_2 C5_2 1_555 1_555
C7_2 C2_2 1_555 1_555
H3_2 C7_2 1_555 1_555
C8_2 C6_2 1_555 1_555
C9_2 C4_2 1_555 1_555
C10_2 Si1_2 1_555 1_555
C11_2 C10_2 1_555 1_555
H4_2 C11_2 1_555 1_555
C12_2 C11_2 1_555 1_555
C13_2 C12_2 1_555 1_555
C14_2 C12_2 1_555 1_555
O11_2 C22_2 1_555 1_555
O12_2 C22_2 1_555 1_555
O13_2 C21_2 1_555 1_555
O14_2 C21_2 1_555 1_555
O16_2 C25_2 1_555 1_555
C15_2 Si1_2 1_555 1_555
C16_2 C15_2 1_555 1_555
H6_2 C16_2 1_555 1_555
C17_2 C16_2 1_555 1_555
C18_2 C17_2 1_555 1_555
H7_2 C18_2 1_555 1_555
C19_2 C18_2 1_555 1_555
C20_2 C15_2 1_555 1_555
H8_2 C20_2 1_555 1_555
C21_2 C19_2 1_555 1_555
C22_2 C17_2 1_555 1_555
C23_2 C10_2 1_555 1_555
H9_2 C23_2 1_555 1_555
C24_2 C13_2 1_555 1_555
C25_2 C24_2 1_555 1_555
Ni6 O11_2 1_555 1_555
Ni10_2 O13_2 1_555 1_555
Ni12 O12_2 1_555 1_555
Ni16_2 O16_2 1_555 1_555
C6_2 C7_2 1_555 1_555
C19_2 C20_2 1_555 1_555
C23_2 C24_2 1_555 1_555
C1_2 H16_2 1_555 1_555
C1_2 H17_2 1_555 1_555
C1_2 H18_2 1_555 1_555
Ni9 O5_2 1_555 1_555
O18_2 Ni9 1_555 1_555
Ni7 O15_2 1_555 1_555
O8_2 Ni5 1_555 1_555
O28_2 Ni5 1_555 1_555
Ni11 O31 1_555 1_555
O8_2 H10 1_555 1_555
O9_2 Ni11 1_555 1_555
O10_2 Ni11 1_555 1_555
O24_2 Ni11 1_555 1_555
Si1_3 C1_3 1_555 1_555
O5_3 C14_3 1_555 1_555
O6_2 C14_3 1_555 1_555
C10_3 Si1_3 1_555 1_555
C11_3 C10_3 1_555 1_555
H4_3 C11_3 1_555 1_555
C12_3 C11_3 1_555 1_555
C13_3 C12_3 1_555 1_555
H5_3 C13_3 1_555 1_555
C14_3 C12_3 1_555 1_555
O28 C25_3 1_555 1_555
O30 C25_3 1_555 1_555
C23_3 C10_3 1_555 1_555
H9_3 C23_3 1_555 1_555
C24_3 C13_3 1_555 1_555
C25_3 C24_3 1_555 1_555
Ni10 O5_3 1_555 1_555
Ni16 O17_2 1_555 1_555
O17_2 Ni10 1_555 1_555
O18_3 Ni10 1_555 1_555
O19_3 Ni16 1_555 1_555
O20_3 Ni16 1_555 1_555
Ni6 O17_2 1_555 1_555
Ni12 O6_2 1_555 1_555
O21_2 Ni10 1_555 1_555
O23_2 Ni16 1_555 1_555
O26_2 Ni16 1_555 1_555
O31_2 Ni10 1_555 1_555
C23_3 C24_3 1_555 1_555
Ni6 O31_2 1_555 1_555
Ni12 O31_2 1_555 1_555
C1_3 H16_3 1_555 1_555
C1_3 H17_3 1_555 1_555
C1_3 H18_3 1_555 1_555
Ni6 O3_3 1_555 1_555
O1_2 C9_3 1_555 1_555
O2_2 C9_3 1_555 1_555
O3_3 C8_3 1_555 1_555
O26_2 C8_3 1_555 1_555
O8_3 Ni6 1_555 1_555
O9_3 Ni12 1_555 1_555
O10_3 Ni12 1_555 1_555
C3_3 C2_3 1_555 1_555
C4_3 C3_3 1_555 1_555
C5_3 C4_3 1_555 1_555
H2_3 C5_3 1_555 1_555
C6_3 C5_3 1_555 1_555
C7_3 C2_3 1_555 1_555
H3_3 C7_3 1_555 1_555
C8_3 C6_3 1_555 1_555
C9_3 C4_3 1_555 1_555
O22_2 C22_3 1_555 1_555
O25 C21_3 1_555 1_555
O27 C21_3 1_555 1_555
C16_3 C15_3 1_555 1_555
C17_3 C16_3 1_555 1_555
C18_3 C17_3 1_555 1_555
H7_3 C18_3 1_555 1_555
C19_3 C18_3 1_555 1_555
C20_3 C15_3 1_555 1_555
H8_3 C20_3 1_555 1_555
C21_3 C19_3 1_555 1_555
C22_3 C17_3 1_555 1_555
Ni16_2 O2_2 1_555 1_555
C6_3 C7_3 1_555 1_555
C19_3 C20_3 1_555 1_555
Ni13 O7_2 1_555 1_555
O9_4 Ni13 1_555 1_555
O10_4 Ni13 1_555 1_555
O29_2 Ni13 1_555 1_555
Ni10_2 O5_4 1_555 1_555
O18_4 Ni10_2 1_555 1_555
Ni16_2 O32_2 1_555 1_555
Ni7 O3_4 1_555 1_555
Si1_4 C1_4 1_555 1_555
O21_2 C9_4 1_555 1_555
O23_2 C9_4 1_555 1_555
O3_4 C8_4 1_555 1_555
O4_2 C8_4 1_555 1_555
O29_2 C14_4 1_555 1_555
O8_4 Ni7 1_555 1_555
C2_4 Si1_4 1_555 1_555
C3_4 C2_4 1_555 1_555
H1_4 C3_4 1_555 1_555
C4_4 C3_4 1_555 1_555
C5_4 C4_4 1_555 1_555
H2_4 C5_4 1_555 1_555
C6_4 C5_4 1_555 1_555
C7_4 C2_4 1_555 1_555
H3_4 C7_4 1_555 1_555
C8_4 C6_4 1_555 1_555
C9_4 C4_4 1_555 1_555
C10_4 Si1_4 1_555 1_555
C11_4 C10_4 1_555 1_555
H4_4 C11_4 1_555 1_555
C12_4 C11_4 1_555 1_555
C13_4 C12_4 1_555 1_555
C14_4 C12_4 1_555 1_555
O22 C22_4 1_555 1_555
O25_2 C21_4 1_555 1_555
O27_2 C21_4 1_555 1_555
O30_2 C25_4 1_555 1_555
C15_4 Si1_4 1_555 1_555
C16_4 C15_4 1_555 1_555
H6_4 C16_4 1_555 1_555
C17_4 C16_4 1_555 1_555
C18_4 C17_4 1_555 1_555
H7_4 C18_4 1_555 1_555
C19_4 C18_4 1_555 1_555
C20_4 C15_4 1_555 1_555
H8_4 C20_4 1_555 1_555
C21_4 C19_4 1_555 1_555
C22_4 C17_4 1_555 1_555
C23_4 C10_4 1_555 1_555
H9_4 C23_4 1_555 1_555
C24_4 C13_4 1_555 1_555
C25_4 C24_4 1_555 1_555
C6_4 C7_4 1_555 1_555
C19_4 C20_4 1_555 1_555
C23_4 C24_4 1_555 1_555
O8_4 H10_2 1_555 1_555
C1_4 H16_4 1_555 1_555
C1_4 H17_4 1_555 1_555
C1_4 H18_4 1_555 1_555
O19_4 Ni16_2 1_555 1_555
O20_4 Ni16_2 1_555 1_555
C1_3 H16_5 1_555 1_555
C1_3 H17_5 1_555 1_555
C1_3 H18_5 1_555 1_555
O18_2 H10_3 1_555 1_555
C1_4 H16_6 1_555 1_555
C1_4 H17_6 1_555 1_555
C1_4 H18_6 1_555 1_555
C1 H16_7 1_555 1_555
C1 H17_7 1_555 1_555
C1 H18_7 1_555 1_555
O18_4 H10_4 1_555 1_555
C1_2 H16_8 1_555 1_555
C1_2 H17_8 1_555 1_555
C1_2 H18_8 1_555 1_555

#END
