
###############################################################################
#
# This file contains modified crystal structure data generated from the
# MOF subset of the Cambridge Structural Database (CSD) v543 
# hosted by the Cambridge Crystallographic Data Centre (CCDC).
#
# This work is licensed under the Creative Commons
# Attribution-NonCommercial-ShareAlike 4.0 International License.
# To view a copy of this license, visit
# http://creativecommons.org/licenses/by-nc-sa/4.0/
# or send a letter to
# Creative Commons, PO Box 1866, Mountain View, CA 94042, USA.
#
# CIF created using the CSD Python API on 29 September 2022
# The structure has been converted into the P1 space group
# The structure has a 3D framework
# The original CSD entry JIYKUA is in the triclinic crystal system
# The framework has been calculated to contain at least 10.0% void space
# The void calculation uses a probe of radius 1.32A, grid spacing 0.4
# H atom positions have been added when not included in the experimental data
#
###############################################################################

data_JIYKUA
_chemical_formula_moiety         '(C128 H92 N8 O46 Sr6)n'
_symmetry_cell_setting           triclinic
_symmetry_space_group_name_H-M   'P 1'
_symmetry_Int_Tables_number      1
_space_group_name_Hall           'P 1'
loop_
_symmetry_equiv_pos_site_id
_symmetry_equiv_pos_as_xyz
1 x,y,z
_cell_length_a                   11.9979(14)
_cell_length_b                   17.366(2)
_cell_length_c                   17.573(2)
_cell_angle_alpha                83.274(5)
_cell_angle_beta                 75.950(5)
_cell_angle_gamma                82.588(4)
_cell_volume                     3508.18
loop_
_atom_site_label
_atom_site_type_symbol
_atom_site_fract_x
_atom_site_fract_y
_atom_site_fract_z
O25 O 0.05610(15) 0.07656(10) 0.49483(11)
O7 O 0.18261(17) 0.05086(11) 0.26408(14)
C5 C 0.0762(3) 0.06894(15) 0.27599(17)
O8 O 0.0044(2) 0.03487(14) 0.33000(14)
C6 C 0.0280(2) 0.13570(13) 0.22611(15)
O11 O 0.25916(16) 0.21414(10) 0.29566(13)
C8 C 0.2551(2) 0.27578(14) 0.32335(16)
O12 O 0.34379(17) 0.29859(11) 0.34189(16)
H5 H 0.3928 0.2614 0.3441
C9 C 0.1496(2) 0.33168(14) 0.33905(16)
C10 C 0.1407(3) 0.39288(16) 0.3849(2)
H6 H 0.2021 0.4001 0.4060
C11 C 0.0403(3) 0.44319(16) 0.3992(2)
H7 H 0.0344 0.4836 0.4308
C12 C 0.0578(3) 0.32210(17) 0.3083(2)
H8 H 0.0627 0.2804 0.2785
C52 C 0.0771(2) 0.53354(15) 0.09366(17)
H28 H 0.1099 0.4919 0.0641
C53 C 0.1457(2) 0.58838(15) 0.10234(17)
H29 H 0.2240 0.5837 0.0782
C54 C 0.0984(2) 0.65019(14) 0.14678(17)
C57 C 0.1693(2) 0.71227(16) 0.15380(19)
O15 O 0.27879(16) 0.69737(11) 0.12666(14)
O16 O 0.1247(2) 0.77329(15) 0.1816(2)
C59 C 0.0502(2) 0.24730(14) 0.13128(16)
H32 H 0.0982 0.2779 0.0935
C60 C 0.0979(2) 0.18090(14) 0.16860(15)
H33 H 0.1772 0.1667 0.1550
Sr7 Sr 0.37925(2) 0.07829(2) 0.29432(2)
Sr11 Sr 0.12770(2) 0.95278(2) 0.41205(2)
H46 H 0.0807144 0.761796 0.236573
Sr3 Sr 0.87230(2) 0.04722(2) 0.58795(2)
O21 O 0.82190(18) 0.09781(14) 0.45853(13)
H42 H 0.8729 0.0784 0.4198
H43 H 0.7550 0.0847 0.4578
O22 O 0.8931(5) 0.1437(2) 0.6817(2)
H44 H 0.8876 0.1903 0.6595
H45 H 0.8390 0.1401 0.7237
O27 O 0.6720(2) 0.08635(14) 0.64826(14)
O1 O 0.55326(15) 0.05470(9) 0.04437(10)
C1 C 0.5135(2) 0.10622(12) 0.09176(14)
O2 O 0.42291(15) 0.10050(9) 0.14518(10)
O3 O 0.76396(15) 0.92919(10) 0.57457(11)
C2 C 0.8474(2) 0.89709(13) 0.52640(14)
O4 O 0.94390(15) 0.92344(10) 0.50517(11)
O5 O 0.3280(2) 0.91365(14) 0.35174(14)
C3 C 0.4071(2) 0.89559(15) 0.29458(16)
C4 C 0.4763(2) 0.81826(14) 0.30245(14)
O6 O 0.43465(18) 0.94172(10) 0.23468(11)
C7 C 0.8300(2) 0.82601(13) 0.49186(15)
O9 O 0.5001(3) -0.00005(17) 0.3945(2)
H2 H 0.5188 0.0322 0.4234
O10 O 0.6165(3) 0.0499(2) 0.2392(2)
H3 H 0.6697 0.0756 0.2520
H4 H 0.6528 0.0134 0.2058
C13 C 0.9593(2) 0.37311(17) 0.32082(19)
H9 H 0.8992 0.3667 0.2980
C14 C 0.9484(2) 0.43446(13) 0.36746(16)
O13 O 0.49379(15) 0.17762(10) 0.33997(13)
C15 C 0.5706(2) 0.18040(14) 0.37768(18)
O14 O 0.6112(2) 0.12315(12) 0.41486(18)
C16 C 0.6131(2) 0.25880(14) 0.37662(16)
C17 C 0.5992(2) 0.31706(15) 0.31777(16)
H10 H 0.5626 0.3077 0.2793
C18 C 0.6384(2) 0.38846(15) 0.31516(16)
H11 H 0.6282 0.4268 0.2751
C19 C 0.6933(2) 0.40371(13) 0.37203(16)
C20 C 0.7068(3) 0.34570(15) 0.43145(18)
H12 H 0.7430 0.3551 0.4701
C21 C 0.6669(3) 0.27403(15) 0.43379(18)
H13 H 0.6763 0.2358 0.4741
C22 C 0.7355(2) 0.48094(13) 0.36834(15)
C23 C 0.8450(2) 0.49274(13) 0.37862(15)
N1 N 0.86160(18) 0.56275(11) 0.39618(13)
C24 C 0.7809(2) 0.62267(13) 0.39304(16)
C25 C 0.6865(2) 0.61416(13) 0.36096(15)
N2 N 0.66156(18) 0.54281(11) 0.35424(13)
C26 C 0.6118(2) 0.68175(13) 0.33466(15)
C27 C 0.4935(2) 0.68655(15) 0.36135(18)
H14 H 0.4587 0.6436 0.3892
C28 C 0.4264(2) 0.75495(16) 0.34676(18)
H15 H 0.3469 0.7585 0.3669
C29 C 0.5935(2) 0.81113(14) 0.26974(16)
H16 H 0.6268 0.8516 0.2360
C30 C 0.6616(2) 0.74394(14) 0.28703(17)
H17 H 0.7411 0.7403 0.2667
C31 C 0.7969(2) 0.69460(13) 0.42541(16)
C32 C 0.7032(2) 0.74518(15) 0.45998(17)
H18 H 0.6285 0.7352 0.4610
C33 C 0.7201(2) 0.80987(15) 0.49273(17)
H19 H 0.6567 0.8430 0.5157
C34 C 0.9241(2) 0.77494(16) 0.4596(2)
H20 H 0.9984 0.7844 0.4602
C35 C 0.9076(2) 0.71004(15) 0.4266(2)
H21 H 0.9710 0.6763 0.4049
C36 C 0.5786(2) 0.17556(13) 0.08598(14)
C37 C 0.5226(2) 0.24369(13) 0.11828(15)
H22 H 0.4433 0.2479 0.1394
C38 C 0.5856(2) 0.30527(13) 0.11884(16)
H23 H 0.5474 0.3515 0.1385
C39 C 0.7042(2) 0.29893(12) 0.09065(14)
C40 C 0.7714(2) 0.36103(12) 0.10230(14)
C41 C 0.8797(2) 0.34638(13) 0.12138(14)
N3 N 0.93873(17) 0.40584(11) 0.12522(12)
C42 C 0.8890(2) 0.47909(13) 0.11796(15)
C43 C 0.7764(2) 0.49343(13) 0.10553(15)
C44 C 0.7097(2) 0.57195(13) 0.10208(15)
C45 C 0.7542(3) 0.63473(15) 0.05205(19)
H24 H 0.8276 0.6281 0.0191
C46 C 0.6901(3) 0.70650(15) 0.05119(19)
H25 H 0.7213 0.7479 0.0178
C47 C 0.5806(2) 0.71829(13) 0.09887(15)
C48 C 0.5357(2) 0.65590(14) 0.14819(17)
H26 H 0.4621 0.6625 0.1808
C49 C 0.5999(2) 0.58369(14) 0.14922(17)
H27 H 0.5683 0.5423 0.1823
C50 C 0.5139(2) 0.79755(13) 0.09918(15)
N4 N 0.72047(17) 0.43431(11) 0.09614(12)
C51 C 0.9597(2) 0.53979(13) 0.12854(15)
C55 C 0.9824(2) 0.65536(17) 0.1839(2)
H30 H 0.9504 0.6960 0.2152
C56 C 0.9134(2) 0.60057(17) 0.17485(19)
H31 H 0.8355 0.6046 0.2001
C58 C 0.9317(2) 0.26884(13) 0.14959(14)
C61 C 0.9097(2) 0.15533(16) 0.24246(16)
H34 H 0.8618 0.1240 0.2794
C62 C 0.8618(2) 0.22079(15) 0.20467(16)
H35 H 0.7820 0.2329 0.2161
C63 C 0.7591(2) 0.23236(13) 0.05425(15)
H36 H 0.8381 0.2287 0.0319
C64 C 0.6959(2) 0.17156(13) 0.05134(14)
H37 H 0.7324 0.1279 0.0260
O18 O 0.40522(15) 0.80459(9) 0.12508(12)
O19 O 0.56795(16) 0.85598(9) 0.07516(12)
O20 O 0.26415(18) 0.06867(13) 0.03004(14)
H40 H 0.2192 0.0470 0.0091
Sr4 Sr 0.38703(2) 0.96226(2) 0.10194(2)
Sr8 Sr 0.62075(2) 0.92171(2) 0.70568(2)
O24 O 0.23604(15) 0.07081(10) 0.42543(11)
O30 O 0.81739(17) 0.94914(11) 0.73592(14)
O31 O 0.9956(2) 0.96513(14) 0.67000(14)
H41 H 0.3092 0.0952 0.9932
Sr5 Sr 0.61297(2) 0.03774(2) 0.89806(2)
O9_2 O 0.5001(3) 0.99995(17) 0.3945(2)
H1 H 0.4592 0.9655 0.4264
O17 O 0.1814(2) 0.92448(14) 0.13468(18)
H38 H 0.1340 0.9616 0.1563
H39 H 0.1764 0.8830 0.1668
O23 O 0.44674(15) 0.94530(9) 0.95563(10)
O9_3 O 0.4999(3) 0.00005(17) 0.6055(2)
H1_2 H 0.5408 0.0345 0.5736
O17_2 O 0.8186(2) 0.07552(14) 0.86532(18)
H38_2 H 0.8660 0.0384 0.8437
H39_2 H 0.8236 0.1170 0.8332
O28 O 0.56535(18) 0.05828(10) 0.76532(11)
O33 O 0.59478(15) 0.19541(9) 0.87492(12)
O34 O 0.43205(16) 0.14402(9) 0.92484(12)
H41_2 H 0.6908 0.9048 0.0068
C1_2 C 0.4865(2) 0.89378(12) 0.90824(14)
O2_2 O 0.57709(15) 0.89950(9) 0.85482(10)
C2_2 C 0.1526(2) 0.10291(13) 0.47360(14)
C3_2 C 0.5929(2) 0.10441(15) 0.70542(16)
C4_2 C 0.5237(2) 0.18174(14) 0.69755(14)
C7_2 C 0.1700(2) 0.17399(13) 0.50814(15)
O9_4 O 0.4999(3) 1.00005(17) 0.6055(2)
H2_2 H 0.4812 0.9678 0.5766
O10_2 O 0.3835(3) 0.9501(2) 0.7608(2)
H3_2 H 0.3303 0.9244 0.7480
H4_2 H 0.3472 0.9866 0.7942
C13_2 C 0.0407(2) 0.62689(17) 0.67918(19)
H9_2 H 0.1008 0.6333 0.7020
C14_2 C 0.0516(2) 0.56554(13) 0.63254(16)
O13_2 O 0.50621(15) 0.82238(10) 0.66003(13)
C15_2 C 0.4294(2) 0.81960(14) 0.62232(18)
O14_2 O 0.3888(2) 0.87685(12) 0.58514(18)
C16_2 C 0.3869(2) 0.74120(14) 0.62338(16)
C17_2 C 0.4008(2) 0.68294(15) 0.68223(16)
H10_2 H 0.4374 0.6923 0.7207
C18_2 C 0.3616(2) 0.61154(15) 0.68484(16)
H11_2 H 0.3718 0.5732 0.7249
C19_2 C 0.3067(2) 0.59629(13) 0.62797(16)
C20_2 C 0.2932(3) 0.65430(15) 0.56855(18)
H12_2 H 0.2570 0.6449 0.5299
C21_2 C 0.3331(3) 0.72597(15) 0.56621(18)
H13_2 H 0.3237 0.7642 0.5259
C22_2 C 0.2645(2) 0.51906(13) 0.63166(15)
C23_2 C 0.1550(2) 0.50726(13) 0.62138(15)
N1_2 N 0.13840(18) 0.43725(11) 0.60382(13)
C24_2 C 0.2191(2) 0.37733(13) 0.60696(16)
C25_2 C 0.3135(2) 0.38584(13) 0.63904(15)
N2_2 N 0.33844(18) 0.45719(11) 0.64576(13)
C26_2 C 0.3882(2) 0.31825(13) 0.66534(15)
C27_2 C 0.5065(2) 0.31345(15) 0.63865(18)
H14_2 H 0.5413 0.3564 0.6108
C28_2 C 0.5736(2) 0.24505(16) 0.65324(18)
H15_2 H 0.6531 0.2415 0.6331
C29_2 C 0.4065(2) 0.18887(14) 0.73026(16)
H16_2 H 0.3732 0.1484 0.7640
C30_2 C 0.3384(2) 0.25606(14) 0.71297(17)
H17_2 H 0.2589 0.2597 0.7333
C31_2 C 0.2031(2) 0.30540(13) 0.57459(16)
C32_2 C 0.2968(2) 0.25482(15) 0.54002(17)
H18_2 H 0.3715 0.2648 0.5390
C33_2 C 0.2799(2) 0.19013(15) 0.50727(17)
H19_2 H 0.3433 0.1570 0.4843
C34_2 C 0.0759(2) 0.22506(16) 0.5404(2)
H20_2 H 0.0016 0.2156 0.5398
C35_2 C 0.0924(2) 0.28996(15) 0.5734(2)
H21_2 H 0.0290 0.3237 0.5951
C36_2 C 0.4214(2) 0.82444(13) 0.91402(14)
C37_2 C 0.4774(2) 0.75631(13) 0.88172(15)
H22_2 H 0.5567 0.7521 0.8606
C38_2 C 0.4144(2) 0.69473(13) 0.88116(16)
H23_2 H 0.4526 0.6485 0.8615
C39_2 C 0.2958(2) 0.70107(12) 0.90935(14)
C40_2 C 0.2286(2) 0.63897(12) 0.89770(14)
C41_2 C 0.1203(2) 0.65362(13) 0.87862(14)
N3_2 N 0.06127(17) 0.59416(11) 0.87478(12)
C42_2 C 0.1110(2) 0.52091(13) 0.88204(15)
C43_2 C 0.2236(2) 0.50657(13) 0.89447(15)
C44_2 C 0.2903(2) 0.42805(13) 0.89792(15)
C45_2 C 0.2458(3) 0.36527(15) 0.94795(19)
H24_2 H 0.1724 0.3719 0.9809
C46_2 C 0.3099(3) 0.29350(15) 0.94881(19)
H25_2 H 0.2787 0.2521 0.9822
C47_2 C 0.4194(2) 0.28171(13) 0.90113(15)
C48_2 C 0.4643(2) 0.34410(14) 0.85181(17)
H26_2 H 0.5379 0.3375 0.8192
C49_2 C 0.4001(2) 0.41631(14) 0.85078(17)
H27_2 H 0.4317 0.4577 0.8177
C50_2 C 0.4861(2) 0.20245(13) 0.90082(15)
N4_2 N 0.27953(17) 0.56569(11) 0.90386(12)
C51_2 C 0.0403(2) 0.46021(13) 0.87146(15)
C55_2 C 0.0176(2) 0.34464(17) 0.8161(2)
H30_2 H 0.0496 0.3040 0.7848
C56_2 C 0.0866(2) 0.39943(17) 0.82515(19)
H31_2 H 0.1645 0.3954 0.7999
C58_2 C 0.0683(2) 0.73116(13) 0.85041(14)
C61_2 C 0.0903(2) 0.84467(16) 0.75754(16)
H34_2 H 0.1382 0.8760 0.7206
C62_2 C 0.1382(2) 0.77921(15) 0.79533(16)
H35_2 H 0.2180 0.7671 0.7839
C63_2 C 0.2409(2) 0.76764(13) 0.94575(15)
H36_2 H 0.1619 0.7713 0.9681
C64_2 C 0.3041(2) 0.82844(13) 0.94866(14)
H37_2 H 0.2676 0.8721 0.9740
O20_2 O 0.73585(18) 0.93133(13) 0.96996(14)
H40_2 H 0.7808 0.9530 0.9909
O32 O 0.74084(16) 0.78586(10) 0.70434(13)
O21_2 O 0.17810(18) 0.90219(14) 0.54147(13)
H42_2 H 0.1271 0.9216 0.5802
H43_2 H 0.2450 0.9153 0.5422
O22_2 O 0.1069(5) 0.8563(2) 0.3183(2)
H44_2 H 0.1124 0.8097 0.3405
H45_2 H 0.1610 0.8599 0.2763
C5_2 C 0.9238(3) 0.93106(15) 0.72401(17)
C6_2 C 0.9720(2) 0.86430(13) 0.77389(15)
C8_2 C 0.7449(2) 0.72422(14) 0.67665(16)
O12_2 O 0.65621(17) 0.70141(11) 0.65811(16)
H5_2 H 0.6072 0.7386 0.6559
C9_2 C 0.8504(2) 0.66832(14) 0.66095(16)
C10_2 C 0.8593(3) 0.60712(16) 0.6151(2)
H6_2 H 0.7979 0.5999 0.5940
C11_2 C 0.9597(3) 0.55681(16) 0.6008(2)
H7_2 H 0.9656 0.5164 0.5692
C12_2 C 0.9422(3) 0.67790(17) 0.6917(2)
H8_2 H 0.9373 0.7196 0.7215
C52_2 C 0.9229(2) 0.46646(15) 0.90634(17)
H28_2 H 0.8901 0.5081 0.9359
C53_2 C 0.8543(2) 0.41162(15) 0.89766(17)
H29_2 H 0.7760 0.4163 0.9218
C54_2 C 0.9016(2) 0.34981(14) 0.85322(17)
C57_2 C 0.8307(2) 0.28773(16) 0.84620(19)
O15_2 O 0.72121(16) 0.30263(11) 0.87334(14)
O16_2 O 0.8753(2) 0.22671(15) 0.8184(2)
C59_2 C 0.9498(2) 0.75270(14) 0.86872(16)
H32_2 H 0.9018 0.7221 0.9065
C60_2 C 0.9021(2) 0.81910(14) 0.83140(15)
H33_2 H 0.8228 0.8333 0.8450
H46_2 H 0.919286 0.238204 0.763427
loop_
_geom_bond_atom_site_label_1
_geom_bond_atom_site_label_2
_geom_bond_site_symmetry_1
_geom_bond_site_symmetry_2
O7 C5 1_555 1_555
C5 O8 1_555 1_555
C6 C5 1_555 1_555
O11 C8 1_555 1_555
C8 O12 1_555 1_555
O12 H5 1_555 1_555
C9 C8 1_555 1_555
C10 C9 1_555 1_555
H6 C10 1_555 1_555
C11 C10 1_555 1_555
H7 C11 1_555 1_555
C12 C9 1_555 1_555
H8 C12 1_555 1_555
H28 C52 1_555 1_555
C53 C52 1_555 1_555
H29 C53 1_555 1_555
C54 C53 1_555 1_555
C57 C54 1_555 1_555
O15 C57 1_555 1_555
O16 C57 1_555 1_555
H32 C59 1_555 1_555
C60 C6 1_555 1_555
H33 C60 1_555 1_555
Sr7 O7 1_555 1_555
O11 Sr7 1_555 1_555
C59 C60 1_555 1_555
O16 H46 1_555 1_555
O21 Sr3 1_555 1_555
H42 O21 1_555 1_555
H43 O21 1_555 1_555
O22 Sr3 1_555 1_555
H44 O22 1_555 1_555
H45 O22 1_555 1_555
O27 Sr3 1_555 1_555
Sr7 O2 1_555 1_555
O1 C1 1_555 1_555
C1 O2 1_555 1_555
O3 C2 1_555 1_555
C2 O4 1_555 1_555
O5 C3 1_555 1_555
C3 C4 1_555 1_555
C4 C28 1_555 1_555
O6 C3 1_555 1_555
C7 C2 1_555 1_555
O9 Sr7 1_555 1_555
H2 O9 1_555 1_555
O10 Sr7 1_555 1_555
H3 O10 1_555 1_555
H4 O10 1_555 1_555
H9 C13 1_555 1_555
O13 Sr7 1_555 1_555
C15 O13 1_555 1_555
O14 C15 1_555 1_555
C16 C15 1_555 1_555
C17 C16 1_555 1_555
H10 C17 1_555 1_555
C18 C17 1_555 1_555
H11 C18 1_555 1_555
C19 C18 1_555 1_555
C20 C19 1_555 1_555
H12 C20 1_555 1_555
C21 C16 1_555 1_555
H13 C21 1_555 1_555
C22 C19 1_555 1_555
C23 C14 1_555 1_555
N1 C23 1_555 1_555
C24 N1 1_555 1_555
C25 C24 1_555 1_555
N2 C22 1_555 1_555
C26 C25 1_555 1_555
C27 C26 1_555 1_555
H14 C27 1_555 1_555
C28 C27 1_555 1_555
H15 C28 1_555 1_555
C29 C4 1_555 1_555
H16 C29 1_555 1_555
C30 C26 1_555 1_555
H17 C30 1_555 1_555
C31 C24 1_555 1_555
C32 C31 1_555 1_555
H18 C32 1_555 1_555
C33 C7 1_555 1_555
H19 C33 1_555 1_555
C34 C7 1_555 1_555
H20 C34 1_555 1_555
C35 C31 1_555 1_555
H21 C35 1_555 1_555
C36 C1 1_555 1_555
C37 C36 1_555 1_555
H22 C37 1_555 1_555
C38 C37 1_555 1_555
H23 C38 1_555 1_555
C39 C38 1_555 1_555
C40 C39 1_555 1_555
C41 C40 1_555 1_555
N3 C41 1_555 1_555
C42 N3 1_555 1_555
C43 C42 1_555 1_555
C44 C43 1_555 1_555
C45 C44 1_555 1_555
H24 C45 1_555 1_555
C46 C45 1_555 1_555
H25 C46 1_555 1_555
C47 C46 1_555 1_555
C48 C47 1_555 1_555
H26 C48 1_555 1_555
C49 C44 1_555 1_555
H27 C49 1_555 1_555
C50 C47 1_555 1_555
N4 C40 1_555 1_555
C51 C42 1_555 1_555
H30 C55 1_555 1_555
C56 C51 1_555 1_555
H31 C56 1_555 1_555
C58 C41 1_555 1_555
H34 C61 1_555 1_555
C62 C58 1_555 1_555
H35 C62 1_555 1_555
C63 C39 1_555 1_555
H36 C63 1_555 1_555
C64 C36 1_555 1_555
H37 C64 1_555 1_555
O18 C50 1_555 1_555
O19 C50 1_555 1_555
H40 O20 1_555 1_555
Sr4 O6 1_555 1_555
Sr8 O3 1_555 1_555
O24 Sr7 1_555 1_555
Sr11 O5 1_555 1_555
C13 C14 1_555 1_555
C20 C21 1_555 1_555
C22 C23 1_555 1_555
C25 N2 1_555 1_555
C29 C30 1_555 1_555
C32 C33 1_555 1_555
C34 C35 1_555 1_555
C43 N4 1_555 1_555
C48 C49 1_555 1_555
C55 C56 1_555 1_555
C61 C62 1_555 1_555
C63 C64 1_555 1_555
O18 Sr4 1_555 1_555
O19 Sr4 1_555 1_555
Sr8 O30 1_555 1_555
H1 O9_2 1_555 1_555
O17 Sr4 1_555 1_555
H38 O17 1_555 1_555
H39 O17 1_555 1_555
H1_2 O9_3 1_555 1_555
O17_2 Sr5 1_555 1_555
H38_2 O17_2 1_555 1_555
H39_2 O17_2 1_555 1_555
O28 Sr5 1_555 1_555
O33 Sr5 1_555 1_555
O34 Sr5 1_555 1_555
Sr8 O2_2 1_555 1_555
O23 C1_2 1_555 1_555
C1_2 O2_2 1_555 1_555
O24 C2_2 1_555 1_555
C2_2 O25 1_555 1_555
O27 C3_2 1_555 1_555
C3_2 C4_2 1_555 1_555
C4_2 C28_2 1_555 1_555
O28 C3_2 1_555 1_555
C7_2 C2_2 1_555 1_555
O9_4 Sr8 1_555 1_555
H2_2 O9_4 1_555 1_555
O10_2 Sr8 1_555 1_555
H3_2 O10_2 1_555 1_555
H4_2 O10_2 1_555 1_555
H9_2 C13_2 1_555 1_555
O13_2 Sr8 1_555 1_555
C15_2 O13_2 1_555 1_555
O14_2 C15_2 1_555 1_555
C16_2 C15_2 1_555 1_555
C17_2 C16_2 1_555 1_555
H10_2 C17_2 1_555 1_555
C18_2 C17_2 1_555 1_555
H11_2 C18_2 1_555 1_555
C19_2 C18_2 1_555 1_555
C20_2 C19_2 1_555 1_555
H12_2 C20_2 1_555 1_555
C21_2 C16_2 1_555 1_555
H13_2 C21_2 1_555 1_555
C22_2 C19_2 1_555 1_555
C23_2 C14_2 1_555 1_555
N1_2 C23_2 1_555 1_555
C24_2 N1_2 1_555 1_555
C25_2 C24_2 1_555 1_555
N2_2 C22_2 1_555 1_555
C26_2 C25_2 1_555 1_555
C27_2 C26_2 1_555 1_555
H14_2 C27_2 1_555 1_555
C28_2 C27_2 1_555 1_555
H15_2 C28_2 1_555 1_555
C29_2 C4_2 1_555 1_555
H16_2 C29_2 1_555 1_555
C30_2 C26_2 1_555 1_555
H17_2 C30_2 1_555 1_555
C31_2 C24_2 1_555 1_555
C32_2 C31_2 1_555 1_555
H18_2 C32_2 1_555 1_555
C33_2 C7_2 1_555 1_555
H19_2 C33_2 1_555 1_555
C34_2 C7_2 1_555 1_555
H20_2 C34_2 1_555 1_555
C35_2 C31_2 1_555 1_555
H21_2 C35_2 1_555 1_555
C36_2 C1_2 1_555 1_555
C37_2 C36_2 1_555 1_555
H22_2 C37_2 1_555 1_555
C38_2 C37_2 1_555 1_555
H23_2 C38_2 1_555 1_555
C39_2 C38_2 1_555 1_555
C40_2 C39_2 1_555 1_555
C41_2 C40_2 1_555 1_555
N3_2 C41_2 1_555 1_555
C42_2 N3_2 1_555 1_555
C43_2 C42_2 1_555 1_555
C44_2 C43_2 1_555 1_555
C45_2 C44_2 1_555 1_555
H24_2 C45_2 1_555 1_555
C46_2 C45_2 1_555 1_555
H25_2 C46_2 1_555 1_555
C47_2 C46_2 1_555 1_555
C48_2 C47_2 1_555 1_555
H26_2 C48_2 1_555 1_555
C49_2 C44_2 1_555 1_555
H27_2 C49_2 1_555 1_555
C50_2 C47_2 1_555 1_555
N4_2 C40_2 1_555 1_555
C51_2 C42_2 1_555 1_555
H30_2 C55_2 1_555 1_555
C56_2 C51_2 1_555 1_555
H31_2 C56_2 1_555 1_555
C58_2 C41_2 1_555 1_555
H34_2 C61_2 1_555 1_555
C62_2 C58_2 1_555 1_555
H35_2 C62_2 1_555 1_555
C63_2 C39_2 1_555 1_555
H36_2 C63_2 1_555 1_555
C64_2 C36_2 1_555 1_555
H37_2 C64_2 1_555 1_555
O33 C50_2 1_555 1_555
O34 C50_2 1_555 1_555
H40_2 O20_2 1_555 1_555
O32 Sr8 1_555 1_555
C13_2 C14_2 1_555 1_555
C20_2 C21_2 1_555 1_555
C22_2 C23_2 1_555 1_555
C25_2 N2_2 1_555 1_555
C29_2 C30_2 1_555 1_555
C32_2 C33_2 1_555 1_555
C34_2 C35_2 1_555 1_555
C43_2 N4_2 1_555 1_555
C48_2 C49_2 1_555 1_555
C55_2 C56_2 1_555 1_555
C61_2 C62_2 1_555 1_555
C63_2 C64_2 1_555 1_555
O21_2 Sr11 1_555 1_555
H42_2 O21_2 1_555 1_555
H43_2 O21_2 1_555 1_555
O22_2 Sr11 1_555 1_555
H44_2 O22_2 1_555 1_555
H45_2 O22_2 1_555 1_555
O30 C5_2 1_555 1_555
C5_2 O31 1_555 1_555
C6_2 C5_2 1_555 1_555
O32 C8_2 1_555 1_555
C8_2 O12_2 1_555 1_555
O12_2 H5_2 1_555 1_555
C9_2 C8_2 1_555 1_555
C10_2 C9_2 1_555 1_555
H6_2 C10_2 1_555 1_555
C11_2 C10_2 1_555 1_555
H7_2 C11_2 1_555 1_555
C12_2 C9_2 1_555 1_555
H8_2 C12_2 1_555 1_555
H28_2 C52_2 1_555 1_555
C53_2 C52_2 1_555 1_555
H29_2 C53_2 1_555 1_555
C54_2 C53_2 1_555 1_555
C57_2 C54_2 1_555 1_555
O15_2 C57_2 1_555 1_555
O16_2 C57_2 1_555 1_555
H32_2 C59_2 1_555 1_555
C60_2 C6_2 1_555 1_555
H33_2 C60_2 1_555 1_555
C59_2 C60_2 1_555 1_555
O16_2 H46_2 1_555 1_555

#END
