
###############################################################################
#
# This file contains modified crystal structure data generated from the
# MOF subset of the Cambridge Structural Database (CSD) v543 
# hosted by the Cambridge Crystallographic Data Centre (CCDC).
#
# This work is licensed under the Creative Commons
# Attribution-NonCommercial-ShareAlike 4.0 International License.
# To view a copy of this license, visit
# http://creativecommons.org/licenses/by-nc-sa/4.0/
# or send a letter to
# Creative Commons, PO Box 1866, Mountain View, CA 94042, USA.
#
# CIF created using the CSD Python API on 29 September 2022
# The structure has been converted into the P1 space group
# The structure has a 3D framework
# The original CSD entry JIYPEP is in the triclinic crystal system
# The framework has been calculated to contain at least 10.0% void space
# The void calculation uses a probe of radius 1.32A, grid spacing 0.4
#
###############################################################################

data_JIYPEP
_chemical_formula_moiety         '(C64 H38 La2 N4 O18)n'
_symmetry_cell_setting           triclinic
_symmetry_space_group_name_H-M   'P 1'
_symmetry_Int_Tables_number      1
_space_group_name_Hall           'P 1'
loop_
_symmetry_equiv_pos_site_id
_symmetry_equiv_pos_as_xyz
1 x,y,z
_cell_length_a                   10.14(2)
_cell_length_b                   11.23(3)
_cell_length_c                   15.24(3)
_cell_angle_alpha                96.47(4)
_cell_angle_beta                 108.69(3)
_cell_angle_gamma                98.73(5)
_cell_volume                     1600.55
loop_
_atom_site_label
_atom_site_type_symbol
_atom_site_fract_x
_atom_site_fract_y
_atom_site_fract_z
_atom_site_U_iso_or_equiv
_atom_site_thermal_displace_type
La6 La 0.30033(2) 0.03287(2) 0.48938(2) 0.0147 Uani
O6 O 0.3829(2) 0.1003(2) 0.36169(14) 0.0289 Uani
O9 O 0.5944(2) 0.0633(2) 0.36733(14) 0.0261 Uani
C9 C 0.4982(3) 0.4332(3) 0.06738(19) 0.0199 Uani
C10 C 0.4943(3) 0.3510(3) 0.13670(19) 0.0205 Uani
C11 C 0.6176(3) 0.3137(3) 0.1862(2) 0.0285 Uani
H8 H 0.7016 0.3407 0.1756 0.0340 Uiso
C12 C 0.6167(3) 0.2370(3) 0.2509(2) 0.0266 Uani
H9 H 0.7001 0.2142 0.2849 0.0320 Uiso
C13 C 0.4906(3) 0.1942(3) 0.26480(19) 0.0195 Uani
C14 C 0.3672(3) 0.2297(3) 0.2140(2) 0.0265 Uani
H10 H 0.2824 0.2004 0.2229 0.0320 Uiso
C15 C 0.3688(3) 0.3078(3) 0.1507(2) 0.0261 Uani
H11 H 0.2856 0.3314 0.1174 0.0310 Uiso
C32 C 0.4871(3) 0.1132(3) 0.33629(18) 0.0194 Uani
O14 O 0.4431(2) 0.86896(18) 0.44359(13) 0.0217 Uani
N4 N 0.4601(3) 0.6124(2) 0.00136(16) 0.0222 Uani
C49 C 0.3412(3) 0.8290(3) 0.3652(2) 0.0213 Uani
C50 C 0.3702(3) 0.7531(3) 0.28982(19) 0.0192 Uani
C51 C 0.2974(3) 0.7582(3) 0.1963(2) 0.0241 Uani
H29 H 0.2298 0.8069 0.1814 0.0290 Uiso
C52 C 0.3261(3) 0.6904(3) 0.1260(2) 0.0244 Uani
H30 H 0.2805 0.6966 0.0637 0.0290 Uiso
C53 C 0.4228(3) 0.6126(3) 0.14706(19) 0.0189 Uani
C54 C 0.4918(3) 0.6059(3) 0.2402(2) 0.0233 Uani
H31 H 0.5548 0.5532 0.2553 0.0280 Uiso
C55 C 0.4674(3) 0.6772(3) 0.3107(2) 0.0227 Uani
H32 H 0.5169 0.6744 0.3732 0.0270 Uiso
C56 C 0.4588(3) 0.5481(3) 0.06998(19) 0.0198 Uani
O16 O 0.2221(2) 0.8545(2) 0.35174(16) 0.0344 Uani
La11 La 0.69967(2) 0.96713(2) 0.51062(2) 0.0147 Uani
O3 O 0.2639(2) 0.2565(2) 0.46655(14) 0.0303 Uani
O4 O 0.0826(2) 0.1050(2) 0.39145(15) 0.0287 Uani
O5 O 0.5569(2) 0.13104(18) 0.55641(13) 0.0217 Uani
O7 O 0.7779(2) 0.1455(2) 0.64826(16) 0.0344 Uani
N1 N 0.5399(3) 0.3876(2) 0.99864(16) 0.0222 Uani
N2 N 0.0481(3) 0.3945(2) 0.01623(16) 0.0194 Uani
C1 C 0.6588(3) 0.1710(3) 0.6348(2) 0.0213 Uani
C2 C 0.6298(3) 0.2469(3) 0.71018(19) 0.0192 Uani
C3 C 0.7026(3) 0.2418(3) 0.8037(2) 0.0241 Uani
H4 H 0.7702 0.1931 0.8186 0.0290 Uiso
C4 C 0.6739(3) 0.3096(3) 0.8740(2) 0.0244 Uani
H5 H 0.7195 0.3034 0.9363 0.0290 Uiso
C5 C 0.5772(3) 0.3874(3) 0.85294(19) 0.0189 Uani
C6 C 0.5082(3) 0.3941(3) 0.7598(2) 0.0233 Uani
H6 H 0.4452 0.4468 0.7447 0.0280 Uiso
C7 C 0.5326(3) 0.3228(3) 0.6893(2) 0.0227 Uani
H7 H 0.4831 0.3256 0.6268 0.0270 Uiso
C8 C 0.5412(3) 0.4519(3) 0.93002(19) 0.0198 Uani
C19 C 0.1515(3) 0.2124(3) 0.3986(2) 0.0225 Uani
C20 C 0.1032(3) 0.2824(3) 0.32075(19) 0.0209 Uani
C21 C 0.1714(3) 0.4012(3) 0.3270(2) 0.0281 Uani
H13 H 0.2415 0.4410 0.3831 0.0340 Uiso
C22 C 0.1372(3) 0.4609(3) 0.2516(2) 0.0273 Uani
H14 H 0.1826 0.5412 0.2573 0.0330 Uiso
C23 C 0.0349(3) 0.4018(3) 0.16693(19) 0.0178 Uani
C26 C 0.0111(3) 0.4579(3) 0.08103(19) 0.0179 Uani
C57 C 0.5018(3) 0.5668(3) 0.93262(19) 0.0199 Uani
C58 C 0.5057(3) 0.6490(3) 0.86330(19) 0.0205 Uani
C59 C 0.3824(3) 0.6863(3) 0.8138(2) 0.0285 Uani
H33 H 0.2984 0.6593 0.8244 0.0340 Uiso
C60 C 0.3833(3) 0.7630(3) 0.7491(2) 0.0266 Uani
H34 H 0.2999 0.7858 0.7151 0.0320 Uiso
C61 C 0.5094(3) 0.8058(3) 0.73520(19) 0.0195 Uani
C62 C 0.6328(3) 0.7703(3) 0.7860(2) 0.0265 Uani
H35 H 0.7176 0.7996 0.7771 0.0320 Uiso
C63 C 0.6312(3) 0.6922(3) 0.8493(2) 0.0261 Uani
H36 H 0.7144 0.6686 0.8826 0.0310 Uiso
O15 O 0.4056(2) 0.9367(2) 0.63267(14) 0.0261 Uani
C64 C 0.5129(3) 0.8868(3) 0.66371(18) 0.0194 Uani
O17 O 0.6171(2) 0.8997(2) 0.63831(14) 0.0289 Uani
O19 O 0.2356(3) 0.1309(2) 0.62632(14) 0.0307 Uani
O2 O 0.2835(3) 0.0236(2) 0.74171(17) 0.0426 Uani
C16 C 0.2343(3) 0.1130(3) 0.7033(2) 0.0247 Uani
C17 C 0.1795(3) 0.1943(3) 0.7611(2) 0.0239 Uani
C18 C 0.1606(4) 0.3081(3) 0.7399(2) 0.0293 Uani
H12 H 0.1772 0.3315 0.6872 0.0350 Uiso
C27 C 0.0390(3) 0.4334(3) 0.93511(18) 0.0173 Uani
C28 C 0.0863(3) 0.3524(3) 0.87233(19) 0.0203 Uani
C29 C 0.1022(4) 0.2357(3) 0.8909(2) 0.0379 Uani
H17 H 0.0795 0.2097 0.9411 0.0460 Uiso
C30 C 0.1502(4) 0.1582(3) 0.8375(2) 0.0407 Uani
H18 H 0.1630 0.0818 0.8528 0.0490 Uiso
C31 C 0.1175(3) 0.3873(3) 0.7956(2) 0.0277 Uani
H19 H 0.1092 0.4650 0.7818 0.0330 Uiso
C38 C 0.0353(3) 0.7174(3) 0.8395(2) 0.0271 Uani
H22 H 0.1043 0.7577 0.8959 0.0320 Uiso
C39 C 0.0029(3) 0.7757(3) 0.7626(2) 0.0284 Uani
H23 H 0.0523 0.8542 0.7667 0.0340 Uiso
O8 O 0.0995(3) 0.8818(2) 0.50396(18) 0.0420 Uani
H2 H 0.0370 0.8515 0.4489 0.0630 Uiso
H3 H 0.0585 0.9182 0.5379 0.0630 Uiso
O18 O 0.9005(3) 0.1182(2) 0.49604(18) 0.0420 Uani
H37 H 0.9630 0.1485 0.5511 0.0630 Uiso
H38 H 0.9415 0.0818 0.4621 0.0630 Uiso
C24 C 0.9647(3) 0.2826(3) 0.1605(2) 0.0271 Uani
H15 H 0.8957 0.2423 0.1041 0.0320 Uiso
C25 C 0.9971(3) 0.2243(3) 0.2374(2) 0.0284 Uani
H16 H 0.9477 0.1458 0.2333 0.0340 Uiso
C41 C 0.9610(3) 0.5666(3) 0.06489(18) 0.0173 Uani
C42 C 0.9137(3) 0.6476(3) 0.12767(19) 0.0203 Uani
C43 C 0.8978(4) 0.7643(3) 0.1091(2) 0.0379 Uani
H24 H 0.9205 0.7903 0.0589 0.0460 Uiso
C44 C 0.8498(4) 0.8418(3) 0.1625(2) 0.0407 Uani
H25 H 0.8370 0.9182 0.1472 0.0490 Uiso
C45 C 0.8825(3) 0.6127(3) 0.2044(2) 0.0277 Uani
H26 H 0.8908 0.5350 0.2182 0.0330 Uiso
O12 O 0.7644(3) 0.8691(2) 0.37368(14) 0.0307 Uani
O13 O 0.7165(3) 0.9764(2) 0.25829(17) 0.0426 Uani
C46 C 0.7657(3) 0.8870(3) 0.2967(2) 0.0247 Uani
C47 C 0.8205(3) 0.8057(3) 0.2389(2) 0.0239 Uani
C48 C 0.8394(4) 0.6919(3) 0.2601(2) 0.0293 Uani
H28 H 0.8228 0.6685 0.3128 0.0350 Uiso
O10 O 0.7361(2) 0.7435(2) 0.53345(14) 0.0303 Uani
O11 O 0.9174(2) 0.8950(2) 0.60855(15) 0.0287 Uani
N3 N 0.9519(3) 0.6055(2) 0.98377(16) 0.0194 Uani
C33 C 0.8485(3) 0.7876(3) 0.6014(2) 0.0225 Uani
C34 C 0.8968(3) 0.7176(3) 0.67925(19) 0.0209 Uani
C35 C 0.8286(3) 0.5988(3) 0.6730(2) 0.0281 Uani
H20 H 0.7585 0.5590 0.6169 0.0340 Uiso
C36 C 0.8628(3) 0.5391(3) 0.7484(2) 0.0273 Uani
H21 H 0.8174 0.4588 0.7427 0.0330 Uiso
C37 C 0.9651(3) 0.5982(3) 0.83307(19) 0.0178 Uani
C40 C 0.9889(3) 0.5421(3) 0.91897(19) 0.0179 Uani
H1 H 0.3172 0.9865 0.7075 0.0640 Uiso
H27 H 0.6828 0.0135 0.2925 0.0640 Uiso
loop_
_atom_site_aniso_label
_atom_site_aniso_U_11
_atom_site_aniso_U_22
_atom_site_aniso_U_33
_atom_site_aniso_U_23
_atom_site_aniso_U_13
_atom_site_aniso_U_12
La6 0.01972 0.01794 0.01259 0.00746 0.00967 0.00977
O6 0.033 0.0435 0.0252 0.0227 0.0202 0.0172
O9 0.0365 0.0347 0.0229 0.019 0.0193 0.0241
C9 0.0295 0.0211 0.0163 0.0089 0.0134 0.0104
C10 0.035 0.0194 0.0165 0.0099 0.0156 0.0136
C11 0.0304 0.0331 0.0343 0.0202 0.0204 0.0119
C12 0.0265 0.0313 0.0322 0.0196 0.0144 0.0161
C13 0.0264 0.023 0.0166 0.0093 0.0123 0.0117
C14 0.0281 0.0365 0.0266 0.0172 0.0173 0.015
C15 0.0304 0.0323 0.025 0.0173 0.0126 0.0181
C32 0.0306 0.0218 0.0123 0.0083 0.011 0.0125
O14 0.0268 0.0204 0.0177 0.0001 0.0082 0.0055
N4 0.036 0.0221 0.0185 0.0101 0.0169 0.014
C49 0.0269 0.0169 0.022 0.0019 0.012 0.0028
C50 0.0211 0.0191 0.0179 0.0002 0.0092 0.0018
C51 0.0286 0.0255 0.0223 0.0048 0.0102 0.0143
C52 0.0327 0.0299 0.0153 0.0083 0.0096 0.0139
C53 0.0281 0.0172 0.0171 0.0055 0.0133 0.0071
C54 0.0297 0.0245 0.0222 0.008 0.0123 0.0141
C55 0.0279 0.0264 0.0149 0.0037 0.0072 0.0091
C56 0.0294 0.0209 0.0156 0.0084 0.012 0.0107
O16 0.0229 0.0454 0.0313 -0.012 0.01 0.0085
La11 0.01972 0.01794 0.01259 0.00746 0.00967 0.00977
O3 0.0405 0.0301 0.0192 0.0109 0.0038 0.0134
O4 0.0275 0.0337 0.0333 0.0214 0.0134 0.0127
O5 0.0268 0.0204 0.0177 0.0001 0.0082 0.0055
O7 0.0229 0.0454 0.0313 -0.012 0.01 0.0085
N1 0.036 0.0221 0.0185 0.0101 0.0169 0.014
N2 0.0263 0.0212 0.0163 0.007 0.0101 0.0123
C1 0.0269 0.0169 0.022 0.0019 0.012 0.0028
C2 0.0211 0.0191 0.0179 0.0002 0.0092 0.0018
C3 0.0286 0.0255 0.0223 0.0048 0.0102 0.0143
C4 0.0327 0.0299 0.0153 0.0083 0.0096 0.0139
C5 0.0281 0.0172 0.0171 0.0055 0.0133 0.0071
C6 0.0297 0.0245 0.0222 0.008 0.0123 0.0141
C7 0.0279 0.0264 0.0149 0.0037 0.0072 0.0091
C8 0.0294 0.0209 0.0156 0.0084 0.012 0.0107
C19 0.0278 0.028 0.0228 0.0113 0.0161 0.0169
C20 0.0257 0.0268 0.0177 0.011 0.0116 0.0134
C21 0.0346 0.0283 0.016 0.0073 0.0012 0.0043
C22 0.0369 0.0199 0.0227 0.0096 0.0068 0.0021
C23 0.0249 0.021 0.0154 0.0084 0.0114 0.014
C26 0.0221 0.0213 0.015 0.0059 0.0093 0.0097
C57 0.0295 0.0211 0.0163 0.0089 0.0134 0.0104
C58 0.035 0.0194 0.0165 0.0099 0.0156 0.0136
C59 0.0304 0.0331 0.0343 0.0202 0.0204 0.0119
C60 0.0265 0.0313 0.0322 0.0196 0.0144 0.0161
C61 0.0264 0.023 0.0166 0.0093 0.0123 0.0117
C62 0.0281 0.0365 0.0266 0.0172 0.0173 0.015
C63 0.0304 0.0323 0.025 0.0173 0.0126 0.0181
O15 0.0365 0.0347 0.0229 0.019 0.0193 0.0241
C64 0.0306 0.0218 0.0123 0.0083 0.011 0.0125
O17 0.033 0.0435 0.0252 0.0227 0.0202 0.0172
O19 0.0523 0.0333 0.0209 0.0102 0.0233 0.0238
O2 0.0783 0.0469 0.0337 0.0232 0.0406 0.0462
C16 0.0352 0.0236 0.0227 0.007 0.0153 0.0139
C17 0.0325 0.0275 0.0203 0.007 0.0159 0.014
C18 0.0445 0.0314 0.0273 0.0147 0.0252 0.0177
C27 0.0216 0.0196 0.0139 0.0039 0.0084 0.0077
C28 0.0261 0.0229 0.016 0.0039 0.0095 0.0119
C29 0.071 0.035 0.0317 0.018 0.0379 0.0284
C30 0.08 0.0289 0.04 0.0203 0.041 0.035
C31 0.0423 0.0236 0.0287 0.011 0.0213 0.0163
C38 0.0321 0.0262 0.0184 0.0062 0.0017 0.006
C39 0.0331 0.0247 0.028 0.0132 0.0087 0.0049
O8 0.0424 0.0422 0.0488 0.0038 0.031 -0.0005
O18 0.0424 0.0422 0.0488 0.0038 0.031 -0.0005
C24 0.0321 0.0262 0.0184 0.0062 0.0017 0.006
C25 0.0331 0.0247 0.028 0.0132 0.0087 0.0049
C41 0.0216 0.0196 0.0139 0.0039 0.0084 0.0077
C42 0.0261 0.0229 0.016 0.0039 0.0095 0.0119
C43 0.071 0.035 0.0317 0.018 0.0379 0.0284
C44 0.08 0.0289 0.04 0.0203 0.041 0.035
C45 0.0423 0.0236 0.0287 0.011 0.0213 0.0163
O12 0.0523 0.0333 0.0209 0.0102 0.0233 0.0238
O13 0.0783 0.0469 0.0337 0.0232 0.0406 0.0462
C46 0.0352 0.0236 0.0227 0.007 0.0153 0.0139
C47 0.0325 0.0275 0.0203 0.007 0.0159 0.014
C48 0.0445 0.0314 0.0273 0.0147 0.0252 0.0177
O10 0.0405 0.0301 0.0192 0.0109 0.0038 0.0134
O11 0.0275 0.0337 0.0333 0.0214 0.0134 0.0127
N3 0.0263 0.0212 0.0163 0.007 0.0101 0.0123
C33 0.0278 0.028 0.0228 0.0113 0.0161 0.0169
C34 0.0257 0.0268 0.0177 0.011 0.0116 0.0134
C35 0.0346 0.0283 0.016 0.0073 0.0012 0.0043
C36 0.0369 0.0199 0.0227 0.0096 0.0068 0.0021
C37 0.0249 0.021 0.0154 0.0084 0.0114 0.014
C40 0.0221 0.0213 0.015 0.0059 0.0093 0.0097
loop_
_geom_bond_atom_site_label_1
_geom_bond_atom_site_label_2
_geom_bond_site_symmetry_1
_geom_bond_site_symmetry_2
O6 C32 1_555 1_555
O9 C32 1_555 1_555
C10 C9 1_555 1_555
C11 C10 1_555 1_555
H8 C11 1_555 1_555
C12 C11 1_555 1_555
H9 C12 1_555 1_555
C13 C12 1_555 1_555
C14 C13 1_555 1_555
H10 C14 1_555 1_555
C15 C10 1_555 1_555
H11 C15 1_555 1_555
C32 C13 1_555 1_555
O14 C49 1_555 1_555
N4 C56 1_555 1_555
C49 C50 1_555 1_555
C50 C51 1_555 1_555
C51 H29 1_555 1_555
C52 C51 1_555 1_555
H30 C52 1_555 1_555
C53 C52 1_555 1_555
C54 C53 1_555 1_555
H31 C54 1_555 1_555
C55 C50 1_555 1_555
H32 C55 1_555 1_555
C56 C9 1_555 1_555
O16 C49 1_555 1_555
La6 O6 1_555 1_555
La11 O14 1_555 1_555
C14 C15 1_555 1_555
C53 C56 1_555 1_555
C54 C55 1_555 1_555
La6 O3 1_555 1_555
O3 C19 1_555 1_555
O4 La6 1_555 1_555
O5 La6 1_555 1_555
O7 C1 1_555 1_555
N1 C8 1_555 1_555
N2 C26 1_555 1_555
C1 O5 1_555 1_555
C2 C1 1_555 1_555
C3 C2 1_555 1_555
H4 C3 1_555 1_555
C4 C3 1_555 1_555
H5 C4 1_555 1_555
C5 C4 1_555 1_555
C6 C5 1_555 1_555
H6 C6 1_555 1_555
C7 C2 1_555 1_555
H7 C7 1_555 1_555
C8 C5 1_555 1_555
C19 O4 1_555 1_555
C20 C19 1_555 1_555
C21 C20 1_555 1_555
H13 C21 1_555 1_555
C22 C21 1_555 1_555
H14 C22 1_555 1_555
C23 C22 1_555 1_555
C26 C23 1_555 1_555
C57 C8 1_555 1_555
C58 C57 1_555 1_555
C59 C58 1_555 1_555
H33 C59 1_555 1_555
C60 C59 1_555 1_555
H34 C60 1_555 1_555
C61 C60 1_555 1_555
C62 C61 1_555 1_555
H35 C62 1_555 1_555
C63 C58 1_555 1_555
H36 C63 1_555 1_555
O15 C64 1_555 1_555
C64 C61 1_555 1_555
O17 C64 1_555 1_555
La11 O17 1_555 1_555
O19 La6 1_555 1_555
C6 C7 1_555 1_555
C62 C63 1_555 1_555
O19 C16 1_555 1_555
C16 O2 1_555 1_555
C17 C16 1_555 1_555
C18 C17 1_555 1_555
H12 C18 1_555 1_555
C28 C27 1_555 1_555
C29 C28 1_555 1_555
H17 C29 1_555 1_555
C30 C17 1_555 1_555
H18 C30 1_555 1_555
C31 C18 1_555 1_555
H19 C31 1_555 1_555
H22 C38 1_555 1_555
H23 C39 1_555 1_555
C28 C31 1_555 1_555
C29 C30 1_555 1_555
C38 C39 1_555 1_555
H2 O8 1_555 1_555
H3 O8 1_555 1_555
H37 O18 1_555 1_555
H38 O18 1_555 1_555
H15 C24 1_555 1_555
H16 C25 1_555 1_555
C42 C41 1_555 1_555
C43 C42 1_555 1_555
H24 C43 1_555 1_555
C44 C43 1_555 1_555
H25 C44 1_555 1_555
C45 C42 1_555 1_555
H26 C45 1_555 1_555
O12 C46 1_555 1_555
C46 O13 1_555 1_555
C47 C44 1_555 1_555
C48 C45 1_555 1_555
H28 C48 1_555 1_555
La11 O12 1_555 1_555
C24 C25 1_555 1_555
C46 C47 1_555 1_555
C47 C48 1_555 1_555
O10 C33 1_555 1_555
O11 C33 1_555 1_555
N3 C40 1_555 1_555
C33 C34 1_555 1_555
C34 C35 1_555 1_555
C35 H20 1_555 1_555
C36 C35 1_555 1_555
H21 C36 1_555 1_555
C37 C36 1_555 1_555
La11 O10 1_555 1_555
O11 La11 1_555 1_555
C37 C40 1_555 1_555

#END
