
###############################################################################
#
# This file contains modified crystal structure data generated from the
# MOF subset of the Cambridge Structural Database (CSD) v543 
# hosted by the Cambridge Crystallographic Data Centre (CCDC).
#
# This work is licensed under the Creative Commons
# Attribution-NonCommercial-ShareAlike 4.0 International License.
# To view a copy of this license, visit
# http://creativecommons.org/licenses/by-nc-sa/4.0/
# or send a letter to
# Creative Commons, PO Box 1866, Mountain View, CA 94042, USA.
#
# CIF created using the CSD Python API on 29 September 2022
# The structure has been converted into the P1 space group
# The structure has a 3D framework
# The original CSD entry JIYPIT is in the triclinic crystal system
# The framework has been calculated to contain at least 10.0% void space
# The void calculation uses a probe of radius 1.32A, grid spacing 0.4
#
###############################################################################

data_JIYPIT
_chemical_formula_moiety         '(C64 H32 N4 O14 Pb2)n'
_symmetry_cell_setting           triclinic
_symmetry_space_group_name_H-M   'P 1'
_symmetry_Int_Tables_number      1
_space_group_name_Hall           'P 1'
loop_
_symmetry_equiv_pos_site_id
_symmetry_equiv_pos_as_xyz
1 x,y,z
_cell_length_a                   9.9328(7)
_cell_length_b                   11.8804(9)
_cell_length_c                   14.8808(10)
_cell_angle_alpha                84.722(3)
_cell_angle_beta                 72.677(3)
_cell_angle_gamma                87.758(3)
_cell_volume                     1669.13
loop_
_atom_site_label
_atom_site_type_symbol
_atom_site_fract_x
_atom_site_fract_y
_atom_site_fract_z
Pb11 Pb 0.43695(3) 0.05236(2) 0.13380(2)
O16 O 0.5841(5) 0.1156(3) 0.9797(3)
O18 O 0.3464(5) 0.0651(4) 0.8904(4)
Pb7 Pb 0.12912(3) 0.87612(2) 0.01667(2)
O14 O 0.4159(5) 0.8844(3) 0.0203(3)
O1 O 0.0440(6) 0.1858(4) 0.0541(4)
N1 N 0.2072(6) 0.3399(4) 0.4746(4)
C1 C 0.1047(7) 0.1394(5) 0.1100(5)
Pb2 Pb 0.56305(3) 0.94764(2) 0.86620(2)
O2 O 0.1563(6) 0.0403(4) 0.1091(4)
N2 N 0.3036(7) 0.5568(4) 0.4439(4)
C2 C 0.1247(7) 0.2080(5) 0.1853(5)
O3 O 0.4505(8) 0.8549(5) 0.7778(4)
C3 C 0.1253(8) 0.3251(6) 0.1747(5)
H1 H 0.105106 0.362532 0.122371
C4 C 0.3352(8) 0.7073(6) 0.7368(5)
C5 C 0.1550(8) 0.3870(6) 0.2396(5)
H2 H 0.155106 0.465526 0.230593
O4 O 0.1259(5) 0.0168(4) 0.9017(3)
C6 C 0.1851(7) 0.3337(5) 0.3193(4)
C7 C 0.1765(8) 0.2158(6) 0.3339(5)
H3 H 0.190148 0.178820 0.388433
C8 C 0.1474(8) 0.1536(6) 0.2672(5)
H4 H 0.143060 0.075204 0.277127
O7 O 0.2776(7) 0.7681(5) 0.8927(4)
C9 C 0.2946(8) 0.5723(5) 0.6042(5)
C10 C 0.4745(8) 0.6002(6) 0.1173(5)
H5 H 0.540995 0.573083 0.065193
C11 C 0.4207(7) 0.7084(5) 0.1104(5)
C12 C 0.4747(7) 0.7853(5) 0.0214(5)
C13 C 0.3212(7) 0.7475(5) 0.1878(5)
H6 H 0.282920 0.819716 0.182866
C14 C 0.2776(8) 0.6821(5) 0.2717(5)
H7 H 0.212444 0.710610 0.323698
C15 C 0.2258(8) 0.3959(5) 0.3899(5)
C16 C 0.2779(7) 0.5030(5) 0.5301(4)
C17 C 0.4016(9) 0.6525(6) 0.5782(5)
H8 H 0.459785 0.660709 0.516262
C18 C 0.3318(7) 0.5718(5) 0.2789(4)
C19 C 0.4212(9) 0.7199(6) 0.6446(5)
H9 H 0.492176 0.773490 0.627063
C20 C 0.2859(8) 0.5038(5) 0.3731(5)
C21 C 0.2273(9) 0.6289(6) 0.7635(6)
H10 H 0.168698 0.621269 0.825386
C22 C 0.4313(8) 0.5320(6) 0.1998(5)
H11 H 0.468111 0.459117 0.203229
C23 C 0.2335(8) 0.3123(5) 0.6294(5)
C24 C 0.2396(7) 0.0755(5) 0.8637(5)
C25 C 0.2352(7) 0.1584(5) 0.7828(5)
C26 C 0.1281(8) 0.1555(6) 0.7388(5)
H12 H 0.056385 0.102829 0.761508
C27 C 0.1293(8) 0.2303(6) 0.6626(5)
H13 H 0.059966 0.226267 0.632625
C28 C 0.3392(8) 0.3145(6) 0.6732(5)
H14 H 0.409464 0.368444 0.651928
C29 C 0.3401(8) 0.2370(6) 0.7481(5)
H15 H 0.412820 0.237942 0.775451
C30 C 0.2378(8) 0.3889(5) 0.5438(5)
C31 C 0.3546(9) 0.7822(6) 0.8098(6)
C32 C 0.2079(9) 0.5619(6) 0.6964(5)
H16 H 0.135760 0.509365 0.713860
O10 O 0.8437(6) 0.9597(4) 0.8909(4)
O13 O 0.5710(6) 0.7556(4) 0.9540(4)
Pb3 Pb 0.87088(3) 0.12388(2) 0.98333(2)
O17 O 0.7224(7) 0.2319(5) 0.1073(4)
O12 O 0.8741(5) 0.9832(4) 0.0983(3)
O5 O 0.4290(6) 0.2444(4) 0.0460(4)
O1_2 O 0.9560(6) 0.8142(4) 0.9459(4)
N1_2 N 0.7928(6) 0.6601(4) 0.5254(4)
C1_2 C 0.8953(7) 0.8606(5) 0.8900(5)
N2_2 N 0.6964(7) 0.4432(4) 0.5561(4)
C2_2 C 0.8753(7) 0.7920(5) 0.8147(5)
O3_2 O 0.5495(8) 0.1451(5) 0.2222(4)
C3_2 C 0.8747(8) 0.6749(6) 0.8253(5)
H1_2 H 0.894894 0.637468 0.877629
C4_2 C 0.6648(8) 0.2927(6) 0.2632(5)
C5_2 C 0.8450(8) 0.6130(6) 0.7604(5)
H2_2 H 0.844894 0.534474 0.769407
C6_2 C 0.8149(7) 0.6663(5) 0.6807(4)
C7_2 C 0.8235(8) 0.7842(6) 0.6661(5)
H3_2 H 0.809852 0.821180 0.611567
C8_2 C 0.8526(8) 0.8464(6) 0.7328(5)
H4_2 H 0.856940 0.924796 0.722873
C9_2 C 0.7054(8) 0.4277(5) 0.3958(5)
C10_2 C 0.5255(8) 0.3998(6) 0.8827(5)
H5_2 H 0.459005 0.426917 0.934807
C11_2 C 0.5793(7) 0.2916(5) 0.8896(5)
C12_2 C 0.5253(7) 0.2147(5) 0.9786(5)
C13_2 C 0.6788(7) 0.2525(5) 0.8122(5)
H6_2 H 0.717080 0.180284 0.817134
C14_2 C 0.7224(8) 0.3179(5) 0.7283(5)
H7_2 H 0.787556 0.289390 0.676302
C15_2 C 0.7742(8) 0.6041(5) 0.6101(5)
O8 O 0.6536(5) 0.9349(4) 0.1096(4)
C16_2 C 0.7221(7) 0.4970(5) 0.4699(4)
C17_2 C 0.5984(9) 0.3475(6) 0.4218(5)
H8_2 H 0.540215 0.339291 0.483738
C18_2 C 0.6682(7) 0.4282(5) 0.7211(4)
C19_2 C 0.5788(9) 0.2801(6) 0.3554(5)
H9_2 H 0.507824 0.226510 0.372937
C20_2 C 0.7141(8) 0.4962(5) 0.6269(5)
C21_2 C 0.7727(9) 0.3711(6) 0.2365(6)
H10_2 H 0.831302 0.378731 0.174614
C22_2 C 0.5687(8) 0.4680(6) 0.8002(5)
H11_2 H 0.531889 0.540883 0.796771
C23_2 C 0.7665(8) 0.6877(5) 0.3706(5)
C24_2 C 0.7604(7) 0.9245(5) 0.1363(5)
C25_2 C 0.7648(7) 0.8416(5) 0.2172(5)
C26_2 C 0.8719(8) 0.8445(6) 0.2612(5)
H12_2 H 0.943615 0.897171 0.238492
C27_2 C 0.8707(8) 0.7697(6) 0.3374(5)
H13_2 H 0.940034 0.773733 0.367375
C28_2 C 0.6608(8) 0.6855(6) 0.3268(5)
H14_2 H 0.590536 0.631556 0.348072
C29_2 C 0.6599(8) 0.7630(6) 0.2519(5)
H15_2 H 0.587180 0.762058 0.224549
C30_2 C 0.7622(8) 0.6111(5) 0.4562(5)
C31_2 C 0.6454(9) 0.2178(6) 0.1902(6)
C32_2 C 0.7921(9) 0.4381(6) 0.3036(5)
H16_2 H 0.864240 0.490635 0.286140
loop_
_geom_bond_atom_site_label_1
_geom_bond_atom_site_label_2
_geom_bond_site_symmetry_1
_geom_bond_site_symmetry_2
Pb7 O14 1_555 1_555
N1 C15 1_555 1_555
C1 O1 1_555 1_555
Pb2 O3 1_555 1_555
O2 C1 1_555 1_555
N2 C16 1_555 1_555
C2 C1 1_555 1_555
O3 C31 1_555 1_555
C3 C2 1_555 1_555
H1 C3 1_555 1_555
C4 C19 1_555 1_555
C5 C3 1_555 1_555
H2 C5 1_555 1_555
O4 C24 1_555 1_555
C6 C5 1_555 1_555
C7 C6 1_555 1_555
H3 C7 1_555 1_555
O14 C12 1_555 1_555
C8 C2 1_555 1_555
H4 C8 1_555 1_555
O7 C31 1_555 1_555
C9 C16 1_555 1_555
C10 H5 1_555 1_555
C11 C10 1_555 1_555
C12 C11 1_555 1_555
C13 C11 1_555 1_555
H6 C13 1_555 1_555
C14 C13 1_555 1_555
H7 C14 1_555 1_555
C15 C6 1_555 1_555
O18 C24 1_555 1_555
C16 C30 1_555 1_555
C17 C9 1_555 1_555
H8 C17 1_555 1_555
C18 C14 1_555 1_555
C19 C17 1_555 1_555
H9 C19 1_555 1_555
C20 N2 1_555 1_555
C21 C4 1_555 1_555
H10 C21 1_555 1_555
C22 C10 1_555 1_555
H11 C22 1_555 1_555
C23 C27 1_555 1_555
C24 C25 1_555 1_555
C25 C26 1_555 1_555
C26 H12 1_555 1_555
C27 C26 1_555 1_555
H13 C27 1_555 1_555
C28 C23 1_555 1_555
H14 C28 1_555 1_555
C29 C25 1_555 1_555
H15 C29 1_555 1_555
C30 N1 1_555 1_555
C31 C4 1_555 1_555
C32 C9 1_555 1_555
H16 C32 1_555 1_555
Pb11 O2 1_555 1_555
O10 Pb2 1_555 1_555
O13 Pb2 1_555 1_555
C7 C8 1_555 1_555
C15 C20 1_555 1_555
C18 C20 1_555 1_555
C18 C22 1_555 1_555
C21 C32 1_555 1_555
C23 C30 1_555 1_555
C28 C29 1_555 1_555
O16 Pb3 1_555 1_555
Pb11 O5 1_555 1_555
N1_2 C15_2 1_555 1_555
C1_2 O1_2 1_555 1_555
Pb11 O3_2 1_555 1_555
O10 C1_2 1_555 1_555
N2_2 C16_2 1_555 1_555
C2_2 C1_2 1_555 1_555
O3_2 C31_2 1_555 1_555
C3_2 C2_2 1_555 1_555
H1_2 C3_2 1_555 1_555
C4_2 C19_2 1_555 1_555
C5_2 C3_2 1_555 1_555
H2_2 C5_2 1_555 1_555
O12 C24_2 1_555 1_555
C6_2 C5_2 1_555 1_555
C7_2 C6_2 1_555 1_555
H3_2 C7_2 1_555 1_555
O16 C12_2 1_555 1_555
C8_2 C2_2 1_555 1_555
H4_2 C8_2 1_555 1_555
O17 C31_2 1_555 1_555
C9_2 C16_2 1_555 1_555
C10_2 H5_2 1_555 1_555
C11_2 C10_2 1_555 1_555
C12_2 C11_2 1_555 1_555
C13_2 C11_2 1_555 1_555
H6_2 C13_2 1_555 1_555
C14_2 C13_2 1_555 1_555
H7_2 C14_2 1_555 1_555
C15_2 C6_2 1_555 1_555
O8 C24_2 1_555 1_555
C16_2 C30_2 1_555 1_555
C17_2 C9_2 1_555 1_555
H8_2 C17_2 1_555 1_555
C18_2 C14_2 1_555 1_555
C19_2 C17_2 1_555 1_555
H9_2 C19_2 1_555 1_555
C20_2 N2_2 1_555 1_555
C21_2 C4_2 1_555 1_555
H10_2 C21_2 1_555 1_555
C22_2 C10_2 1_555 1_555
H11_2 C22_2 1_555 1_555
C23_2 C27_2 1_555 1_555
C24_2 C25_2 1_555 1_555
C25_2 C26_2 1_555 1_555
C26_2 H12_2 1_555 1_555
C27_2 C26_2 1_555 1_555
H13_2 C27_2 1_555 1_555
C28_2 C23_2 1_555 1_555
H14_2 C28_2 1_555 1_555
C29_2 C25_2 1_555 1_555
H15_2 C29_2 1_555 1_555
C30_2 N1_2 1_555 1_555
C31_2 C4_2 1_555 1_555
C32_2 C9_2 1_555 1_555
H16_2 C32_2 1_555 1_555
C7_2 C8_2 1_555 1_555
C15_2 C20_2 1_555 1_555
C18_2 C20_2 1_555 1_555
C18_2 C22_2 1_555 1_555
C21_2 C32_2 1_555 1_555
C23_2 C30_2 1_555 1_555
C28_2 C29_2 1_555 1_555

#END
