
###############################################################################
#
# This file contains modified crystal structure data generated from the
# MOF subset of the Cambridge Structural Database (CSD) v543 
# hosted by the Cambridge Crystallographic Data Centre (CCDC).
#
# This work is licensed under the Creative Commons
# Attribution-NonCommercial-ShareAlike 4.0 International License.
# To view a copy of this license, visit
# http://creativecommons.org/licenses/by-nc-sa/4.0/
# or send a letter to
# Creative Commons, PO Box 1866, Mountain View, CA 94042, USA.
#
# CIF created using the CSD Python API on 29 September 2022
# The structure has been converted into the P1 space group
# The structure has a 3D framework
# The original CSD entry JIYTAP is in the triclinic crystal system
# The framework has been calculated to contain at least 10.0% void space
# The void calculation uses a probe of radius 1.32A, grid spacing 0.4
#
###############################################################################

data_JIYTAP
_chemical_formula_moiety         '(C64 H38 Ce2 N4 O18)n'
_symmetry_cell_setting           triclinic
_symmetry_space_group_name_H-M   'P 1'
_symmetry_Int_Tables_number      1
_space_group_name_Hall           'P 1'
loop_
_symmetry_equiv_pos_site_id
_symmetry_equiv_pos_as_xyz
1 x,y,z
_cell_length_a                   10.124(2)
_cell_length_b                   11.220(2)
_cell_length_c                   15.330(3)
_cell_angle_alpha                96.448(4)
_cell_angle_beta                 108.756(7)
_cell_angle_gamma                98.885(7)
_cell_volume                     1604.5
loop_
_atom_site_label
_atom_site_type_symbol
_atom_site_fract_x
_atom_site_fract_y
_atom_site_fract_z
_atom_site_U_iso_or_equiv
_atom_site_thermal_displace_type
H22 H 0.1819 0.0402 0.2579 0.0410 Uiso
O10 O 0.0838(2) 0.6017(2) 0.39206(16) 0.0355 Uani
O11 O 0.2670(3) 0.7533(2) 0.46681(15) 0.0365 Uani
N3 N 0.0477(3) 0.8963(2) 0.01621(16) 0.0242 Uani
C33 C 0.1531(3) 0.7099(3) 0.3989(2) 0.0286 Uani
C34 C 0.1032(3) 0.7800(3) 0.3213(2) 0.0268 Uani
C35 C 0.1727(4) 0.8992(3) 0.3284(2) 0.0351 Uani
H21 H 0.2434 0.9389 0.3842 0.0420 Uiso
C36 C 0.1368(4) 0.9595(3) 0.2522(2) 0.0340 Uani
C37 C 0.0340(3) 0.9002(3) 0.16784(19) 0.0234 Uani
C38 C 0.0105(3) 0.9579(3) 0.08129(19) 0.0239 Uani
Ce11 Ce 0.30063(2) 0.53173(2) 0.48921(2) 0.0181 Uani
O12 O 0.2849(3) 0.5249(3) 0.74229(18) 0.0534 Uani
H20 H 0.3184 0.4866 0.7087 0.0800 Uiso
O13 O 0.2323(3) 0.6286(2) 0.62379(15) 0.0363 Uani
C39 C 0.0400(3) 0.9337(3) 0.93480(19) 0.0245 Uani
C40 C 0.0876(3) 0.8537(3) 0.8713(2) 0.0268 Uani
C41 C 0.1159(4) 0.8863(3) 0.7930(2) 0.0347 Uani
H23 H 0.1056 0.9633 0.7781 0.0420 Uiso
C42 C 0.1585(4) 0.8071(3) 0.7375(2) 0.0360 Uani
H24 H 0.1728 0.8295 0.6841 0.0430 Uiso
C43 C 0.1804(4) 0.6946(3) 0.7603(2) 0.0317 Uani
C44 C 0.2341(4) 0.6135(3) 0.7020(2) 0.0320 Uani
C45 C 0.1536(5) 0.6600(3) 0.8384(3) 0.0532 Uani
H25 H 0.1679 0.5842 0.8542 0.0640 Uiso
C46 C 0.1060(5) 0.7372(3) 0.8923(3) 0.0499 Uani
H26 H 0.0858 0.7122 0.9433 0.0600 Uiso
O8 O 0.7151(3) 0.4751(3) 0.25771(18) 0.0534 Uani
H3 H 0.6816 0.5134 0.2913 0.0800 Uiso
O9 O 0.7677(3) 0.3714(2) 0.37621(15) 0.0363 Uani
C7 C 0.9600(3) 0.0663(3) 0.06520(19) 0.0245 Uani
C8 C 0.9124(3) 0.1463(3) 0.1287(2) 0.0268 Uani
C9 C 0.8841(4) 0.1137(3) 0.2070(2) 0.0347 Uani
H6 H 0.8944 0.0367 0.2219 0.0420 Uiso
C10 C 0.8415(4) 0.1929(3) 0.2625(2) 0.0360 Uani
H7 H 0.8272 0.1705 0.3159 0.0430 Uiso
C11 C 0.8196(4) 0.3054(3) 0.2397(2) 0.0317 Uani
C12 C 0.7659(4) 0.3865(3) 0.2980(2) 0.0320 Uani
C13 C 0.8464(5) 0.3400(3) 0.1616(3) 0.0532 Uani
H8 H 0.8321 0.4158 0.1458 0.0640 Uiso
C14 C 0.8940(5) 0.2628(3) 0.1077(3) 0.0499 Uani
H9 H 0.9142 0.2878 0.0567 0.0600 Uiso
Ce6 Ce 0.69937(2) 0.46827(2) 0.51079(2) 0.0181 Uani
O1 O 0.9162(2) 0.3983(2) 0.60794(16) 0.0355 Uani
O2 O 0.7330(3) 0.2467(2) 0.53319(15) 0.0365 Uani
O3 O 0.9032(3) 0.6170(2) 0.49833(19) 0.0462 Uani
H1 H 0.8792 0.6875 0.4893 0.0690 Uiso
H2 H 0.9273 0.5886 0.4514 0.0690 Uiso
O4 O 0.4442(2) 0.36999(17) 0.44422(13) 0.0244 Uani
O5 O 0.2219(2) 0.3543(2) 0.35317(16) 0.0390 Uani
N1 N 0.9523(3) 0.1037(2) 0.98379(16) 0.0242 Uani
N2 N 0.4597(3) 0.1121(2) 0.00137(17) 0.0260 Uani
C1 C 0.8469(3) 0.2901(3) 0.6011(2) 0.0286 Uani
C2 C 0.8968(3) 0.2200(3) 0.6787(2) 0.0268 Uani
C3 C 0.8273(4) 0.1008(3) 0.6716(2) 0.0351 Uani
H4 H 0.7566 0.0611 0.6158 0.0420 Uiso
C4 C 0.8632(4) 0.0405(3) 0.7478(2) 0.0340 Uani
C5 C 0.9660(3) 0.0998(3) 0.83216(19) 0.0234 Uani
C6 C 0.9895(3) 0.0421(3) 0.91871(19) 0.0239 Uani
C17 C 0.3420(3) 0.3293(3) 0.3663(2) 0.0249 Uani
C18 C 0.3704(3) 0.2529(3) 0.29071(19) 0.0238 Uani
C19 C 0.4688(3) 0.1777(3) 0.3121(2) 0.0272 Uani
H12 H 0.5186 0.1751 0.3742 0.0330 Uiso
C20 C 0.4933(3) 0.1063(3) 0.2412(2) 0.0264 Uani
H13 H 0.5571 0.0540 0.2562 0.0320 Uiso
C21 C 0.4233(3) 0.1122(2) 0.14756(19) 0.0236 Uani
C22 C 0.4595(3) 0.0486(3) 0.07037(19) 0.0233 Uani
C31 C 0.3253(3) 0.1893(3) 0.1266(2) 0.0287 Uani
H18 H 0.2791 0.1952 0.0645 0.0350 Uiso
C32 C 0.2962(3) 0.2568(3) 0.1968(2) 0.0285 Uani
H19 H 0.2276 0.3047 0.1819 0.0340 Uiso
O22 O 0.5558(2) 0.63001(17) 0.55578(13) 0.0244 Uani
O24 O 0.7781(2) 0.6457(2) 0.64683(16) 0.0390 Uani
O25 O 0.6179(2) 0.4027(2) 0.63844(15) 0.0330 Uani
O28 O 0.5965(2) 0.5639(2) 0.36925(14) 0.0304 Uani
O7 O 0.4035(2) 0.4361(2) 0.63075(14) 0.0304 Uani
C23 C 0.5008(3) 0.0664(3) 0.93239(19) 0.0235 Uani
C24 C 0.5041(3) 0.1486(3) 0.86216(19) 0.0236 Uani
C25 C 0.6307(3) 0.1920(3) 0.8479(2) 0.0304 Uani
H14 H 0.7141 0.1682 0.8808 0.0360 Uiso
C26 C 0.6322(3) 0.2705(3) 0.7846(2) 0.0305 Uani
H15 H 0.7171 0.2995 0.7755 0.0370 Uiso
C27 C 0.5083(3) 0.3066(3) 0.73448(19) 0.0236 Uani
C28 C 0.5115(3) 0.3878(3) 0.66315(19) 0.0240 Uani
C29 C 0.3827(3) 0.2640(3) 0.7494(2) 0.0318 Uani
H16 H 0.2990 0.2870 0.7160 0.0380 Uiso
C30 C 0.3816(3) 0.1874(3) 0.8139(2) 0.0330 Uani
H17 H 0.2976 0.1615 0.8251 0.0400 Uiso
H5 H 0.8181 0.9598 0.7421 0.0410 Uiso
O16 O 0.3821(2) 0.5973(2) 0.36156(15) 0.0330 Uani
C55 C 0.4992(3) 0.9336(3) 0.06761(19) 0.0235 Uani
C56 C 0.4959(3) 0.8514(3) 0.13784(19) 0.0236 Uani
C57 C 0.3693(3) 0.8080(3) 0.1521(2) 0.0304 Uani
H31 H 0.2859 0.8318 0.1192 0.0360 Uiso
C58 C 0.3678(3) 0.7295(3) 0.2154(2) 0.0305 Uani
H32 H 0.2829 0.7005 0.2245 0.0370 Uiso
C59 C 0.4917(3) 0.6934(3) 0.26552(19) 0.0236 Uani
C60 C 0.4885(3) 0.6122(3) 0.33685(19) 0.0240 Uani
C61 C 0.6173(3) 0.7360(3) 0.2506(2) 0.0318 Uani
H33 H 0.7010 0.7130 0.2840 0.0380 Uiso
C62 C 0.6184(3) 0.8126(3) 0.1861(2) 0.0330 Uani
H34 H 0.7024 0.8385 0.1749 0.0400 Uiso
N4 N 0.5403(3) 0.8879(2) 0.99863(17) 0.0260 Uani
C49 C 0.6580(3) 0.6707(3) 0.6337(2) 0.0249 Uani
C50 C 0.6296(3) 0.7471(3) 0.70929(19) 0.0238 Uani
C51 C 0.5312(3) 0.8223(3) 0.6879(2) 0.0272 Uani
H29 H 0.4814 0.8249 0.6258 0.0330 Uiso
C52 C 0.5067(3) 0.8937(3) 0.7588(2) 0.0264 Uani
H30 H 0.4429 0.9460 0.7438 0.0320 Uiso
C53 C 0.5767(3) 0.8878(2) 0.85244(19) 0.0236 Uani
C54 C 0.5405(3) 0.9514(3) 0.92963(19) 0.0233 Uani
C63 C 0.6747(3) 0.8107(3) 0.8734(2) 0.0287 Uani
H35 H 0.7209 0.8048 0.9355 0.0350 Uiso
C64 C 0.7038(3) 0.7432(3) 0.8032(2) 0.0285 Uani
H36 H 0.7724 0.6953 0.8181 0.0340 Uiso
O18 O 0.0968(3) 0.3830(2) 0.50167(19) 0.0462 Uani
H37 H 0.1208 0.3125 0.5107 0.0690 Uiso
H38 H 0.0727 0.4114 0.5486 0.0690 Uiso
C15 C 0.0358(4) 0.2186(3) 0.8385(2) 0.0345 Uani
H10 H 0.1046 0.2593 0.8947 0.0410 Uiso
C16 C 0.0037(4) 0.2770(3) 0.7616(2) 0.0341 Uani
H11 H 0.0544 0.3552 0.7657 0.0410 Uiso
C47 C 0.9642(4) 0.7814(3) 0.1615(2) 0.0345 Uani
H27 H 0.8954 0.7407 0.1053 0.0410 Uiso
C48 C 0.9963(4) 0.7230(3) 0.2384(2) 0.0341 Uani
H28 H 0.9456 0.6448 0.2343 0.0410 Uiso
loop_
_atom_site_aniso_label
_atom_site_aniso_U_11
_atom_site_aniso_U_22
_atom_site_aniso_U_33
_atom_site_aniso_U_23
_atom_site_aniso_U_13
_atom_site_aniso_U_12
O10 0.0337 0.04 0.0439 0.0257 0.0182 0.0159
O11 0.0491 0.0352 0.0251 0.0129 0.0065 0.016
N3 0.0314 0.0279 0.0183 0.0066 0.0112 0.0126
C33 0.036 0.0342 0.0285 0.0154 0.0189 0.0206
C34 0.0338 0.0308 0.0243 0.0123 0.0146 0.0156
C35 0.044 0.0344 0.022 0.0085 0.0038 0.0071
C36 0.044 0.0265 0.0297 0.0112 0.0097 0.0035
C37 0.0292 0.0264 0.0215 0.0083 0.0128 0.0138
C38 0.0267 0.0261 0.0208 0.0057 0.0084 0.0093
Ce11 0.02382 0.02162 0.0162 0.0083 0.01186 0.01163
O12 0.094 0.0572 0.0445 0.0281 0.048 0.053
O13 0.0597 0.04 0.0265 0.0133 0.0272 0.0288
C39 0.0271 0.0281 0.0209 0.0059 0.0091 0.0105
C40 0.0329 0.0292 0.0232 0.0056 0.0121 0.0142
C41 0.0497 0.0277 0.0399 0.0145 0.0253 0.019
C42 0.054 0.0395 0.0315 0.0163 0.0285 0.0222
C43 0.044 0.0317 0.0288 0.0073 0.0199 0.0176
C44 0.0431 0.0316 0.0303 0.0095 0.0196 0.0158
C45 0.103 0.04 0.047 0.021 0.05 0.041
C46 0.095 0.044 0.0391 0.0213 0.045 0.039
O8 0.094 0.0572 0.0445 0.0281 0.048 0.053
O9 0.0597 0.04 0.0265 0.0133 0.0272 0.0288
C7 0.0271 0.0281 0.0209 0.0059 0.0091 0.0105
C8 0.0329 0.0292 0.0232 0.0056 0.0121 0.0142
C9 0.0497 0.0277 0.0399 0.0145 0.0253 0.019
C10 0.054 0.0395 0.0315 0.0163 0.0285 0.0222
C11 0.044 0.0317 0.0288 0.0073 0.0199 0.0176
C12 0.0431 0.0316 0.0303 0.0095 0.0196 0.0158
C13 0.103 0.04 0.047 0.021 0.05 0.041
C14 0.095 0.044 0.0391 0.0213 0.045 0.039
Ce6 0.02382 0.02162 0.0162 0.0083 0.01186 0.01163
O1 0.0337 0.04 0.0439 0.0257 0.0182 0.0159
O2 0.0491 0.0352 0.0251 0.0129 0.0065 0.016
O3 0.048 0.0438 0.0578 0.0124 0.0337 0.0055
O4 0.0318 0.0216 0.0199 0.0016 0.009 0.0066
O5 0.0279 0.0494 0.036 -0.0125 0.0125 0.0086
N1 0.0314 0.0279 0.0183 0.0066 0.0112 0.0126
N2 0.0393 0.0252 0.0229 0.0101 0.018 0.0136
C1 0.036 0.0342 0.0285 0.0154 0.0189 0.0206
C2 0.0338 0.0308 0.0243 0.0123 0.0146 0.0156
C3 0.044 0.0344 0.022 0.0085 0.0038 0.0071
C4 0.044 0.0265 0.0297 0.0112 0.0097 0.0035
C5 0.0292 0.0264 0.0215 0.0083 0.0128 0.0138
C6 0.0267 0.0261 0.0208 0.0057 0.0084 0.0093
C17 0.0306 0.0209 0.0251 0.0011 0.0141 0.0028
C18 0.0274 0.0219 0.0243 0.0018 0.0131 0.0035
C19 0.0347 0.0282 0.0199 0.0035 0.0098 0.0096
C20 0.0354 0.0264 0.023 0.0069 0.0128 0.0144
C21 0.0332 0.0218 0.0219 0.007 0.0154 0.0085
C22 0.033 0.0238 0.0198 0.0085 0.0142 0.0106
C31 0.0374 0.0328 0.0205 0.008 0.011 0.0155
C32 0.0317 0.0301 0.027 0.0049 0.0106 0.0152
O22 0.0318 0.0216 0.0199 0.0016 0.009 0.0066
O24 0.0279 0.0494 0.036 -0.0125 0.0125 0.0086
O25 0.038 0.0475 0.0303 0.0255 0.0229 0.0201
O28 0.0418 0.0382 0.0295 0.0226 0.023 0.0266
O7 0.0418 0.0382 0.0295 0.0226 0.023 0.0266
C23 0.035 0.0233 0.0204 0.0096 0.0162 0.0112
C24 0.0361 0.0225 0.0211 0.01 0.0163 0.0137
C25 0.0334 0.0386 0.0314 0.0214 0.0167 0.0202
C26 0.0315 0.0402 0.0339 0.0209 0.0211 0.0166
C27 0.0336 0.0263 0.0217 0.0133 0.0169 0.0149
C28 0.0356 0.0259 0.0191 0.0097 0.0159 0.013
C29 0.0302 0.0372 0.0387 0.0223 0.0165 0.0167
C30 0.0336 0.0386 0.042 0.0236 0.0241 0.0156
O16 0.038 0.0475 0.0303 0.0255 0.0229 0.0201
C55 0.035 0.0233 0.0204 0.0096 0.0162 0.0112
C56 0.0361 0.0225 0.0211 0.01 0.0163 0.0137
C57 0.0334 0.0386 0.0314 0.0214 0.0167 0.0202
C58 0.0315 0.0402 0.0339 0.0209 0.0211 0.0166
C59 0.0336 0.0263 0.0217 0.0133 0.0169 0.0149
C60 0.0356 0.0259 0.0191 0.0097 0.0159 0.013
C61 0.0302 0.0372 0.0387 0.0223 0.0165 0.0167
C62 0.0336 0.0386 0.042 0.0236 0.0241 0.0156
N4 0.0393 0.0252 0.0229 0.0101 0.018 0.0136
C49 0.0306 0.0209 0.0251 0.0011 0.0141 0.0028
C50 0.0274 0.0219 0.0243 0.0018 0.0131 0.0035
C51 0.0347 0.0282 0.0199 0.0035 0.0098 0.0096
C52 0.0354 0.0264 0.023 0.0069 0.0128 0.0144
C53 0.0332 0.0218 0.0219 0.007 0.0154 0.0085
C54 0.033 0.0238 0.0198 0.0085 0.0142 0.0106
C63 0.0374 0.0328 0.0205 0.008 0.011 0.0155
C64 0.0317 0.0301 0.027 0.0049 0.0106 0.0152
O18 0.048 0.0438 0.0578 0.0124 0.0337 0.0055
C15 0.04 0.0316 0.0271 0.0084 0.0042 0.0072
C16 0.0396 0.0281 0.0356 0.0131 0.0124 0.0053
C47 0.04 0.0316 0.0271 0.0084 0.0042 0.0072
C48 0.0396 0.0281 0.0356 0.0131 0.0124 0.0053
loop_
_geom_bond_atom_site_label_1
_geom_bond_atom_site_label_2
_geom_bond_site_symmetry_1
_geom_bond_site_symmetry_2
O10 C33 1_555 1_555
O11 C33 1_555 1_555
N3 C38 1_555 1_555
C33 C34 1_555 1_555
C34 C35 1_555 1_555
C35 H21 1_555 1_555
C36 C35 1_555 1_555
C37 C36 1_555 1_555
Ce11 O10 1_555 1_555
O11 Ce11 1_555 1_555
C37 C38 1_555 1_555
O12 H20 1_555 1_555
O13 C44 1_555 1_555
C40 C39 1_555 1_555
C41 C40 1_555 1_555
H23 C41 1_555 1_555
C42 C41 1_555 1_555
H24 C42 1_555 1_555
C43 C42 1_555 1_555
C44 O12 1_555 1_555
C45 C43 1_555 1_555
H25 C45 1_555 1_555
C46 C40 1_555 1_555
H26 C46 1_555 1_555
Ce11 O13 1_555 1_555
C43 C44 1_555 1_555
C45 C46 1_555 1_555
O8 H3 1_555 1_555
O9 C12 1_555 1_555
C8 C7 1_555 1_555
C9 C8 1_555 1_555
H6 C9 1_555 1_555
C10 C9 1_555 1_555
H7 C10 1_555 1_555
C11 C10 1_555 1_555
C12 O8 1_555 1_555
C13 C11 1_555 1_555
H8 C13 1_555 1_555
C14 C8 1_555 1_555
H9 C14 1_555 1_555
Ce6 O9 1_555 1_555
C11 C12 1_555 1_555
C13 C14 1_555 1_555
Ce6 O1 1_555 1_555
O1 C1 1_555 1_555
O2 Ce6 1_555 1_555
O3 Ce6 1_555 1_555
H1 O3 1_555 1_555
H2 O3 1_555 1_555
O4 Ce6 1_555 1_555
O5 C17 1_555 1_555
N1 C6 1_555 1_555
N2 C22 1_555 1_555
C1 O2 1_555 1_555
C2 C1 1_555 1_555
C3 C2 1_555 1_555
H4 C3 1_555 1_555
C4 C3 1_555 1_555
C5 C4 1_555 1_555
C6 C5 1_555 1_555
C17 O4 1_555 1_555
C18 C17 1_555 1_555
C19 C18 1_555 1_555
H12 C19 1_555 1_555
C20 C19 1_555 1_555
H13 C20 1_555 1_555
C21 C20 1_555 1_555
C22 C21 1_555 1_555
C31 C21 1_555 1_555
H18 C31 1_555 1_555
C32 C18 1_555 1_555
H19 C32 1_555 1_555
Ce11 O4 1_555 1_555
O22 Ce6 1_555 1_555
O24 Ce6 1_555 1_555
O25 Ce6 1_555 1_555
O28 Ce6 1_555 1_555
O5 Ce11 1_555 1_555
C31 C32 1_555 1_555
Ce11 O22 1_555 1_555
O25 C28 1_555 1_555
O7 C28 1_555 1_555
C24 C23 1_555 1_555
C25 C24 1_555 1_555
H14 C25 1_555 1_555
C26 C25 1_555 1_555
H15 C26 1_555 1_555
C27 C26 1_555 1_555
C28 C27 1_555 1_555
C29 C27 1_555 1_555
H16 C29 1_555 1_555
C30 C24 1_555 1_555
H17 C30 1_555 1_555
Ce11 O7 1_555 1_555
C29 C30 1_555 1_555
O16 C60 1_555 1_555
O28 C60 1_555 1_555
C56 C55 1_555 1_555
C57 C56 1_555 1_555
H31 C57 1_555 1_555
C58 C57 1_555 1_555
H32 C58 1_555 1_555
C59 C58 1_555 1_555
C60 C59 1_555 1_555
C61 C59 1_555 1_555
H33 C61 1_555 1_555
C62 C56 1_555 1_555
H34 C62 1_555 1_555
Ce11 O16 1_555 1_555
C61 C62 1_555 1_555
O22 C49 1_555 1_555
O24 C49 1_555 1_555
N4 C54 1_555 1_555
C49 C50 1_555 1_555
C50 C51 1_555 1_555
C51 H29 1_555 1_555
C52 C51 1_555 1_555
H30 C52 1_555 1_555
C53 C52 1_555 1_555
C63 C53 1_555 1_555
H35 C63 1_555 1_555
C64 C50 1_555 1_555
H36 C64 1_555 1_555
O18 Ce11 1_555 1_555
H37 O18 1_555 1_555
H38 O18 1_555 1_555
C53 C54 1_555 1_555
C63 C64 1_555 1_555
H10 C15 1_555 1_555
H11 C16 1_555 1_555
C15 C16 1_555 1_555
H27 C47 1_555 1_555
H28 C48 1_555 1_555
C47 C48 1_555 1_555

#END
