
###############################################################################
#
# This file contains modified crystal structure data generated from the
# MOF subset of the Cambridge Structural Database (CSD) v543 
# hosted by the Cambridge Crystallographic Data Centre (CCDC).
#
# This work is licensed under the Creative Commons
# Attribution-NonCommercial-ShareAlike 4.0 International License.
# To view a copy of this license, visit
# http://creativecommons.org/licenses/by-nc-sa/4.0/
# or send a letter to
# Creative Commons, PO Box 1866, Mountain View, CA 94042, USA.
#
# CIF created using the CSD Python API on 29 September 2022
# The structure has been converted into the P1 space group
# The structure has a 3D framework
# The original CSD entry JIZWAS02 is in the triclinic crystal system
# The framework has been calculated to contain at least 10.0% void space
# The void calculation uses a probe of radius 1.32A, grid spacing 0.4
# H atom positions have been added when not included in the experimental data
#
###############################################################################

data_JIZWAS02
_chemical_formula_moiety         '(C16 H20 Al8 O10)n'
_symmetry_cell_setting           triclinic
_symmetry_space_group_name_H-M   'P 1'
_symmetry_Int_Tables_number      1
_space_group_name_Hall           'P 1'
loop_
_symmetry_equiv_pos_site_id
_symmetry_equiv_pos_as_xyz
1 x,y,z
_cell_length_a                   6.6252(8)
_cell_length_b                   9.8233(15)
_cell_length_c                   9.4899(11)
_cell_angle_alpha                109.229(8)
_cell_angle_beta                 107.355(12)
_cell_angle_gamma                93.407(10)
_cell_volume                     548.026
loop_
_atom_site_label
_atom_site_type_symbol
_atom_site_fract_x
_atom_site_fract_y
_atom_site_fract_z
Al4 Al -0.000 0.000 -0.000
Al4_2 Al -0.000 -0.000 1.000
Al4_3 Al -0.000 1.000 -0.000
Al4_4 Al -0.000 1.000 1.000
Al4_5 Al 1.000 0.000 -0.000
Al7 Al 0.500 0.000 -0.000
Al4_6 Al 1.000 -0.000 1.000
Al7_2 Al 0.500 -0.000 1.000
Al4_7 Al 1.000 1.000 -0.000
Al7_3 Al 0.500 1.000 -0.000
O1 O 0.510(3) 0.8228(18) 0.844(2)
O2 O 0.822(3) 0.821(2) 0.836(2)
O3 O 0.038(3) 0.071(2) 0.852(2)
O4 O 0.358(3) 0.085(2) 0.857(2)
C1 C 0.623(5) 0.780(3) 0.753(3)
C2 C 0.537(5) 0.658(3) 0.589(3)
C3 C 0.390(5) 0.544(3) 0.608(4)
C4 C 0.711(5) 0.567(3) 0.564(4)
C5 C 0.166(5) 0.105(3) 0.781(3)
C6 C 0.106(5) 0.146(3) 0.633(3)
C7 C 0.226(4) 0.047(3) 0.540(3)
O6 O 0.490(3) 0.1772(18) 0.156(2)
O7 O 0.178(3) 0.179(2) 0.164(2)
C9 C 0.377(5) 0.220(3) 0.247(3)
C10 C 0.463(5) 0.342(3) 0.411(3)
C11 C 0.610(5) 0.456(3) 0.392(4)
C12 C 0.289(5) 0.433(3) 0.436(4)
Al4_8 Al 1.000 1.000 1.000
Al7_4 Al 0.500 1.000 1.000
H3 H 0.538361 0.305466 0.507749
H4 H 0.17173 0.260416 0.664285
H5 H 0.732185 0.407509 0.346662
H6 H 0.518518 0.507168 0.313682
H7 H 0.461639 0.694534 0.492251
H8 H 0.384077 0.056136 0.624225
H9 H 0.242597 0.0919346 0.452534
H10 H 0.250289 0.489369 0.352444
H11 H 0.144234 0.364166 0.42248
H13 H 0.749711 0.510631 0.647556
H14 H 0.855766 0.635834 0.57752
H15 H 0.267815 0.592491 0.653338
H16 H 0.481482 0.492832 0.686318
O16 O 0.757(3) 0.0761(18) 0.999(2)
C16 C 0.140(5) 0.883(3) 0.450(4)
O10 O 0.243(3) 0.9239(18) 0.001(2)
O15 O 0.642(3) 0.915(2) 0.143(2)
H17 H 0.177972 0.826299 0.533268
H18 H 0.216324 0.841633 0.361085
C8 C 0.860(5) 0.117(3) 0.550(4)
H1 H 0.822028 0.173701 0.466732
H2 H 0.783676 0.158367 0.638915
O8 O 0.962(3) 0.929(2) 0.148(2)
C13 C 0.834(5) 0.895(3) 0.219(3)
C14 C 0.894(5) 0.854(3) 0.367(3)
C15 C 0.774(4) 0.953(3) 0.460(3)
H12 H 0.82827 0.739584 0.335715
H19 H 0.615923 0.943864 0.375775
H20 H 0.757403 0.908065 0.547466
loop_
_geom_bond_atom_site_label_1
_geom_bond_atom_site_label_2
_geom_bond_site_symmetry_1
_geom_bond_site_symmetry_2
Al7 O6 1_555 1_555
O1 C1 1_555 1_555
O2 C1 1_555 1_555
O3 C5 1_555 1_555
O4 C5 1_555 1_555
C1 C2 1_555 1_555
C2 C3 1_555 1_555
C3 C12 1_555 1_555
C4 C2 1_555 1_555
C5 C6 1_555 1_555
C6 C7 1_555 1_555
O6 C9 1_555 1_555
O7 Al4 1_555 1_555
C9 O7 1_555 1_555
C10 C9 1_555 1_555
C11 C4 1_555 1_555
C12 C10 1_555 1_555
Al4_2 O3 1_555 1_555
Al4_8 O2 1_555 1_555
Al7_2 O4 1_555 1_555
Al7_4 O1 1_555 1_555
C10 C11 1_555 1_555
C10 H3 1_555 1_555
C6 H4 1_555 1_555
C11 H5 1_555 1_555
C11 H6 1_555 1_555
C2 H7 1_555 1_555
C7 H8 1_555 1_555
C7 H9 1_555 1_555
C12 H10 1_555 1_555
C12 H11 1_555 1_555
C4 H13 1_555 1_555
C4 H14 1_555 1_555
C3 H15 1_555 1_555
C3 H16 1_555 1_555
O16 Al7_2 1_555 1_555
O10 Al4_3 1_555 1_555
O15 Al7_3 1_555 1_555
Al7_3 O10 1_555 1_555
C16 H17 1_555 1_555
C16 H18 1_555 1_555
C8 H1 1_555 1_555
C8 H2 1_555 1_555
Al4_6 O16 1_555 1_555
O8 Al4_7 1_555 1_555
O15 C13 1_555 1_555
C13 O8 1_555 1_555
C14 C13 1_555 1_555
C14 C15 1_555 1_555
C14 H12 1_555 1_555
C15 H19 1_555 1_555
C15 H20 1_555 1_555

#END
