
###############################################################################
#
# This file contains modified crystal structure data generated from the
# MOF subset of the Cambridge Structural Database (CSD) v543 
# hosted by the Cambridge Crystallographic Data Centre (CCDC).
#
# This work is licensed under the Creative Commons
# Attribution-NonCommercial-ShareAlike 4.0 International License.
# To view a copy of this license, visit
# http://creativecommons.org/licenses/by-nc-sa/4.0/
# or send a letter to
# Creative Commons, PO Box 1866, Mountain View, CA 94042, USA.
#
# CIF created using the CSD Python API on 29 September 2022
# The structure has been converted into the P1 space group
# The structure has a 3D framework
# The original CSD entry JIZWAS01 is in the triclinic crystal system
# The framework has been calculated to contain at least 10.0% void space
# The void calculation uses a probe of radius 1.32A, grid spacing 0.4
# H atom positions have been added when not included in the experimental data
#
###############################################################################

data_JIZWAS01
_chemical_formula_moiety         '(C16 H20 Al8 O10)n'
_symmetry_cell_setting           triclinic
_symmetry_space_group_name_H-M   'P 1'
_symmetry_Int_Tables_number      1
_space_group_name_Hall           'P 1'
loop_
_symmetry_equiv_pos_site_id
_symmetry_equiv_pos_as_xyz
1 x,y,z
_cell_length_a                   6.6207(12)
_cell_length_b                   10.027(2)
_cell_length_c                   9.5375(15)
_cell_angle_alpha                110.492(10)
_cell_angle_beta                 107.054(18)
_cell_angle_gamma                93.335(13)
_cell_volume                     557.79
loop_
_atom_site_label
_atom_site_type_symbol
_atom_site_fract_x
_atom_site_fract_y
_atom_site_fract_z
_atom_site_U_iso_or_equiv
_atom_site_thermal_displace_type
Al4 Al -0.000 0.000 0.000 0.0075 Uiso
Al4_2 Al -0.000 -0.000 1.000 0.0075 Uiso
Al4_3 Al -0.000 1.000 0.000 0.0075 Uiso
Al4_4 Al -0.000 1.000 1.000 0.0075 Uiso
Al4_5 Al 1.000 0.000 0.000 0.0075 Uiso
Al7 Al 0.500 0.000 0.000 0.0075 Uiso
Al4_6 Al 1.000 -0.000 1.000 0.0075 Uiso
Al7_2 Al 0.500 -0.000 1.000 0.0075 Uiso
Al4_7 Al 1.000 1.000 0.000 0.0075 Uiso
Al7_3 Al 0.500 1.000 0.000 0.0075 Uiso
O1 O 0.511(4) 0.824(2) 0.855(3) 0.0075 Uiso
O2 O 0.834(5) 0.823(3) 0.842(3) 0.0075 Uiso
O3 O 0.036(4) 0.073(3) 0.849(2) 0.0075 Uiso
O4 O 0.348(4) 0.083(2) 0.858(3) 0.0075 Uiso
C1 C 0.624(6) 0.784(3) 0.762(4) 0.0075 Uiso
C2 C 0.553(6) 0.657(3) 0.599(5) 0.0075 Uiso
C3 C 0.371(6) 0.553(4) 0.593(5) 0.0075 Uiso
C4 C 0.712(6) 0.555(4) 0.580(5) 0.0075 Uiso
C5 C 0.160(6) 0.084(4) 0.765(4) 0.0075 Uiso
C6 C 0.113(7) 0.146(4) 0.636(3) 0.0075 Uiso
C7 C 0.220(6) 0.046(4) 0.538(4) 0.0075 Uiso
O6 O 0.489(4) 0.176(2) 0.145(3) 0.0075 Uiso
O7 O 0.166(5) 0.177(3) 0.158(3) 0.0075 Uiso
C9 C 0.376(6) 0.216(3) 0.238(4) 0.0075 Uiso
C10 C 0.447(6) 0.343(3) 0.401(5) 0.0075 Uiso
C11 C 0.629(6) 0.447(4) 0.407(5) 0.0075 Uiso
C12 C 0.288(6) 0.445(4) 0.420(5) 0.0075 Uiso
Al4_8 Al 1.000 1.000 1.000 0.0075 Uiso
Al7_4 Al 0.500 1.000 1.000 0.0075 Uiso
H1 H 0.722646 0.497954 0.659603 . .
H2 H 0.869816 0.615419 0.606688 . .
H3 H 0.181843 0.259997 0.678215 . .
H6 H 0.245244 0.609879 0.62376 . .
H7 H 0.429993 0.498327 0.673478 . .
H8 H 0.49385 0.306131 0.498688 . .
H9 H 0.377352 0.0499957 0.61909 . .
H10 H 0.239253 0.0915297 0.453465 . .
H11 H 0.50615 0.693869 0.501312 . .
H12 H 0.754756 0.390121 0.37624 . .
H13 H 0.570007 0.501673 0.326522 . .
H15 H 0.277354 0.502046 0.340397 . .
H16 H 0.130184 0.384581 0.393312 . .
O16 O 0.754(4) 0.075(2) 0.993(3) 0.0075 Uiso
C16 C 0.128(6) 0.889(4) 0.443(4) 0.0075 Uiso
O10 O 0.246(4) 0.925(2) 0.007(3) 0.0075 Uiso
O15 O 0.652(4) 0.917(2) 0.142(3) 0.0075 Uiso
H19 H 0.170653 0.831222 0.522178 . .
H20 H 0.200457 0.850716 0.350643 . .
C8 C 0.872(6) 0.111(4) 0.557(4) 0.0075 Uiso
H4 H 0.829347 0.168778 0.477822 . .
H5 H 0.799543 0.149284 0.649357 . .
O8 O 0.964(4) 0.927(3) 0.151(2) 0.0075 Uiso
C13 C 0.840(6) 0.916(4) 0.235(4) 0.0075 Uiso
C14 C 0.887(7) 0.854(4) 0.364(3) 0.0075 Uiso
C15 C 0.780(6) 0.954(4) 0.462(4) 0.0075 Uiso
H14 H 0.818157 0.740003 0.321785 . .
H17 H 0.622648 0.950004 0.38091 . .
H18 H 0.760747 0.90847 0.546535 . .
loop_
_geom_bond_atom_site_label_1
_geom_bond_atom_site_label_2
_geom_bond_site_symmetry_1
_geom_bond_site_symmetry_2
Al7 O6 1_555 1_555
O1 C1 1_555 1_555
O2 C1 1_555 1_555
O3 C5 1_555 1_555
O4 C5 1_555 1_555
C1 C2 1_555 1_555
C2 C3 1_555 1_555
C3 C12 1_555 1_555
C4 C2 1_555 1_555
C5 C6 1_555 1_555
C6 C7 1_555 1_555
O6 C9 1_555 1_555
O7 Al4 1_555 1_555
C9 O7 1_555 1_555
C10 C9 1_555 1_555
C11 C4 1_555 1_555
C12 C10 1_555 1_555
Al4_2 O3 1_555 1_555
Al4_8 O2 1_555 1_555
Al7_2 O4 1_555 1_555
Al7_4 O1 1_555 1_555
C10 C11 1_555 1_555
C4 H1 1_555 1_555
C4 H2 1_555 1_555
C6 H3 1_555 1_555
C3 H6 1_555 1_555
C3 H7 1_555 1_555
C10 H8 1_555 1_555
C7 H9 1_555 1_555
C7 H10 1_555 1_555
C2 H11 1_555 1_555
C11 H12 1_555 1_555
C11 H13 1_555 1_555
C12 H15 1_555 1_555
C12 H16 1_555 1_555
O16 Al7_2 1_555 1_555
O10 Al4_3 1_555 1_555
O15 Al7_3 1_555 1_555
Al7_3 O10 1_555 1_555
C16 H19 1_555 1_555
C16 H20 1_555 1_555
C8 H4 1_555 1_555
C8 H5 1_555 1_555
Al4_6 O16 1_555 1_555
O8 Al4_7 1_555 1_555
O15 C13 1_555 1_555
C13 O8 1_555 1_555
C14 C13 1_555 1_555
C14 C15 1_555 1_555
C14 H14 1_555 1_555
C15 H17 1_555 1_555
C15 H18 1_555 1_555

#END
