
###############################################################################
#
# This file contains modified crystal structure data generated from the
# MOF subset of the Cambridge Structural Database (CSD) v543 
# hosted by the Cambridge Crystallographic Data Centre (CCDC).
#
# This work is licensed under the Creative Commons
# Attribution-NonCommercial-ShareAlike 4.0 International License.
# To view a copy of this license, visit
# http://creativecommons.org/licenses/by-nc-sa/4.0/
# or send a letter to
# Creative Commons, PO Box 1866, Mountain View, CA 94042, USA.
#
# CIF created using the CSD Python API on 29 September 2022
# The structure has been converted into the P1 space group
# The structure has a 3D framework
# The original CSD entry JODFOZ is in the monoclinic crystal system
# The framework has been calculated to contain at least 10.0% void space
# The void calculation uses a probe of radius 1.32A, grid spacing 0.4
#
###############################################################################

data_JODFOZ
_chemical_formula_moiety         '(C112 H80 Co4 N8 O16)n'
_symmetry_cell_setting           triclinic
_symmetry_space_group_name_H-M   'P 1'
_symmetry_Int_Tables_number      1
_space_group_name_Hall           'P 1'
loop_
_symmetry_equiv_pos_site_id
_symmetry_equiv_pos_as_xyz
1 x,y,z
_cell_length_a                   13.3374(10)
_cell_length_b                   24.979(2)
_cell_length_c                   8.5046(7)
_cell_angle_alpha                90
_cell_angle_beta                 99.119(4)
_cell_angle_gamma                90
_cell_volume                     2797.54
loop_
_atom_site_label
_atom_site_type_symbol
_atom_site_fract_x
_atom_site_fract_y
_atom_site_fract_z
H3 H 0.0824 0.3328 0.0532
C8 C 0.1740(6) 0.2432(4) 0.1086(11)
H5 H 0.1699 0.2636 0.2001
C9 C 0.2193(7) 0.1992(4) 0.1282(12)
H6 H 0.2261 0.1789 0.0373
C10 C 0.2631(6) 0.1772(4) 0.2866(10)
C11 C 0.2897(6) 0.1242(4) 0.2964(9)
H7 H 0.2812 0.1027 0.2046
C12 C 0.3294(5) 0.1027(3) 0.4438(8)
H8 H 0.3461 0.0661 0.4481
C13 C 0.3209(6) 0.1822(4) 0.5713(10)
H9 H 0.3312 0.2028 0.6651
C14 C 0.2799(7) 0.2072(4) 0.4249(11)
H10 H 0.2642 0.2439 0.4222
N1 N 0.3454(4) 0.1301(2) 0.5790(7)
Co3 Co 0.39356(8) 0.09642(4) 0.79902(11)
C22 C 0.8703(5) 0.0205(3) 0.5703(9)
H15 H 0.8721 0.0571 0.5956
C24 C 0.6996(5) 0.0165(3) 0.6495(8)
C25 C 0.7003(6) 0.0673(3) 0.7227(9)
H17 H 0.7607 0.0873 0.7410
C26 C 0.6144(5) 0.0875(3) 0.7670(9)
H18 H 0.6169 0.1217 0.8141
C27 C 0.5251(5) 0.0106(3) 0.6832(9)
N2 N 0.5247(4) 0.0603(2) 0.7458(6)
C15 C 0.2264(5) 0.0631(3) 0.8524(8)
C16 C 0.1331(5) 0.0417(3) 0.9031(8)
C21 C 0.0598(6) 0.0754(3) 0.9391(9)
H14 H 0.0681 0.1125 0.9275
O1 O 0.2983(3) 0.03249(19) 0.8219(5)
O2 O 0.2392(4) 0.11319(19) 0.8464(5)
O4 O 0.4746(4) 0.1774(2) 0.8913(6)
C2 C 0.0328(5) 0.3161(3) 0.6696(8)
C3 C 0.0770(6) 0.2658(3) 0.6611(10)
H1 H 0.0762 0.2485 0.5627
C4 C 0.1235(6) 0.2412(4) 0.8058(11)
H2 H 0.1534 0.2073 0.8025
C5 C 0.1253(6) 0.2663(4) 0.9500(11)
C6 C 0.0819(6) 0.3155(4) 0.9549(10)
C7 C 0.0367(5) 0.3404(4) 0.8145(10)
H4 H 0.0083 0.3747 0.8196
N4 N 0.0247(4) 0.4397(2) 0.2458(6)
C1 C 0.9810(5) 0.6552(4) 0.0246(9)
C19 C 0.4585(5) 0.5019(3) 0.0092(10)
H13 H 0.4233 0.5807 0.0185
C22_2 C 0.3703(5) 0.4795(3) 0.0703(9)
H15_2 H 0.3721 0.4429 0.0956
C23 C 0.2887(5) 0.5067(3) 0.0929(9)
H16 H 0.2875 0.5436 0.0710
C24_2 C 0.1996(5) 0.4835(3) 0.1495(8)
C25_2 C 0.2003(6) 0.4327(3) 0.2227(9)
H17_2 H 0.2607 0.4127 0.2410
C26_2 C 0.1144(5) 0.4125(3) 0.2670(9)
H18_2 H 0.1169 0.3783 0.3141
C27_2 C 0.0251(5) 0.4894(3) 0.1832(9)
C28 C 0.1097(5) 0.5118(3) 0.1348(9)
H20 H 0.1061 0.5465 0.0916
O3 O 0.9501(4) 0.6082(2) 0.0370(6)
C1_2 C 0.9810(5) 0.3448(4) 0.5246(9)
C15_2 C 0.7264(5) 0.4369(3) 0.3524(8)
C16_2 C 0.6331(5) 0.4583(3) 0.4031(8)
C17 C 0.6209(6) 0.5129(3) 0.4174(10)
H11 H 0.6696 0.5368 0.3900
C18 C 0.5334(6) 0.5320(3) 0.4744(11)
H12 H 0.5262 0.5690 0.4889
C19_2 C 0.4585(5) 0.4981(3) 0.5092(10)
C20 C 0.4723(6) 0.4436(3) 0.4932(10)
H13_2 H 0.4233 0.4193 0.5185
C21_2 C 0.5598(6) 0.4246(3) 0.4391(9)
H14_2 H 0.5681 0.3875 0.4275
C22_3 C 0.3703(5) 0.5205(3) 0.5703(9)
H15_3 H 0.3721 0.5571 0.5956
C23_2 C 0.2887(5) 0.4933(3) 0.5929(9)
H16_2 H 0.2875 0.4564 0.5710
C24_3 C 0.1996(5) 0.5165(3) 0.6495(8)
C25_3 C 0.2003(6) 0.5673(3) 0.7227(9)
H17_3 H 0.2607 0.5873 0.7410
C26_3 C 0.1144(5) 0.5875(3) 0.7670(9)
H18_3 H 0.1169 0.6217 0.8141
C27_3 C 0.0251(5) 0.5106(3) 0.6832(9)
C28_2 C 0.1097(5) 0.4882(3) 0.6348(9)
H20_2 H 0.1061 0.4535 0.5916
Co1 Co 0.89356(8) 0.40358(4) 0.29902(11)
N2_2 N 0.0247(4) 0.5603(2) 0.7458(6)
O1_2 O 0.7983(3) 0.46751(19) 0.3219(5)
O2_2 O 0.7392(4) 0.38681(19) 0.3464(5)
O3_2 O 0.9501(4) 0.3918(2) 0.5370(6)
O4_2 O 0.9746(4) 0.3226(2) 0.3913(6)
N3 N 0.8454(4) 0.3699(2) 0.0790(7)
H19 H 0.9649 0.5096 0.1720
C13_2 C 0.8209(6) 0.3178(4) 0.0713(10)
H9_2 H 0.8312 0.2972 0.1651
H19_2 H 0.9649 0.4904 0.6720
Co2 Co 0.89356(8) 0.59642(4) 0.79902(11)
C15_3 C 0.7264(5) 0.5631(3) 0.8524(8)
C16_3 C 0.6331(5) 0.5417(3) 0.9031(8)
C17_2 C 0.6209(6) 0.4871(3) 0.9174(10)
H11_2 H 0.6696 0.4632 0.8900
C18_2 C 0.5334(6) 0.4680(3) 0.9744(11)
H12_2 H 0.5262 0.4310 0.9889
C20_2 C 0.4723(6) 0.5564(3) 0.9932(10)
C21_3 C 0.5598(6) 0.5754(3) 0.9391(9)
H14_3 H 0.5681 0.6125 0.9275
O1_3 O 0.7983(3) 0.53249(19) 0.8219(5)
O2_3 O 0.7392(4) 0.61319(19) 0.8464(5)
O4_3 O 0.9746(4) 0.6774(2) 0.8913(6)
N3_2 N 0.8454(4) 0.6301(2) 0.5790(7)
H3_2 H 0.5824 0.8328 0.0532
C8_2 C 0.6740(6) 0.7432(4) 0.1086(11)
H5_2 H 0.6699 0.7636 0.2001
C9_2 C 0.7193(7) 0.6992(4) 0.1282(12)
H6_2 H 0.7261 0.6789 0.0373
C10_2 C 0.7631(6) 0.6772(4) 0.2866(10)
C11_2 C 0.7897(6) 0.6242(4) 0.2964(9)
H7_2 H 0.7812 0.6027 0.2046
C12_2 C 0.8294(5) 0.6027(3) 0.4438(8)
H8_2 H 0.8461 0.5661 0.4481
C13_3 C 0.8209(6) 0.6822(4) 0.5713(10)
H9_3 H 0.8312 0.7028 0.6651
C14_2 C 0.7799(7) 0.7072(4) 0.4249(11)
H10_2 H 0.7642 0.7439 0.4222
C13_4 C 0.3209(6) 0.8178(4) 0.0713(10)
H9_4 H 0.3312 0.7972 0.1651
N1_2 N 0.3454(4) 0.8699(2) 0.0790(7)
Co3_2 Co 0.39356(8) 0.90358(4) 0.29902(11)
C1_3 C 0.4810(5) 0.8448(4) 0.5246(9)
C2_2 C 0.5328(5) 0.8161(3) 0.6696(8)
C3_2 C 0.5770(6) 0.7658(3) 0.6611(10)
H1_2 H 0.5762 0.7485 0.5627
C4_2 C 0.6235(6) 0.7412(4) 0.8058(11)
H2_2 H 0.6534 0.7073 0.8025
C5_2 C 0.6253(6) 0.7663(4) 0.9500(11)
C6_2 C 0.5819(6) 0.8155(4) 0.9549(10)
C7_2 C 0.5367(5) 0.8404(4) 0.8145(10)
H4_2 H 0.5083 0.8747 0.8196
C15_4 C 0.2264(5) 0.9369(3) 0.3524(8)
C16_4 C 0.1331(5) 0.9583(3) 0.4031(8)
C21_4 C 0.0598(6) 0.9246(3) 0.4391(9)
H14_4 H 0.0681 0.8875 0.4275
O1_4 O 0.2983(3) 0.96751(19) 0.3219(5)
O2_4 O 0.2392(4) 0.88681(19) 0.3464(5)
O3_3 O 0.4501(4) 0.8918(2) 0.5370(6)
O4_4 O 0.4746(4) 0.8226(2) 0.3913(6)
N4_2 N 0.5247(4) 0.9397(2) 0.2458(6)
C22_4 C 0.8703(5) 0.9795(3) 0.0703(9)
H15_4 H 0.8721 0.9429 0.0956
C24_4 C 0.6996(5) 0.9835(3) 0.1495(8)
C25_4 C 0.7003(6) 0.9327(3) 0.2227(9)
H17_4 H 0.7607 0.9127 0.2410
C26_4 C 0.6144(5) 0.9125(3) 0.2670(9)
H18_4 H 0.6169 0.8783 0.3141
C27_4 C 0.5251(5) 0.9894(3) 0.1832(9)
C2_3 C 0.0328(5) 0.6839(3) 0.1696(8)
C3_3 C 0.0770(6) 0.7342(3) 0.1611(10)
H1_3 H 0.0762 0.7515 0.0627
C4_3 C 0.1235(6) 0.7588(4) 0.3058(11)
H2_3 H 0.1534 0.7927 0.3025
C5_3 C 0.1253(6) 0.7337(4) 0.4500(11)
C6_3 C 0.0819(6) 0.6845(4) 0.4549(10)
H3_3 H 0.0824 0.6672 0.5532
C7_3 C 0.0367(5) 0.6596(4) 0.3145(10)
H4_3 H 0.0083 0.6253 0.3196
C8_3 C 0.1740(6) 0.7568(4) 0.6086(11)
H5_3 H 0.1699 0.7364 0.7001
C9_3 C 0.2193(7) 0.8008(4) 0.6282(12)
H6_3 H 0.2261 0.8211 0.5373
C10_3 C 0.2631(6) 0.8228(4) 0.7866(10)
C11_3 C 0.2897(6) 0.8758(4) 0.7964(9)
H7_3 H 0.2812 0.8973 0.7046
C12_3 C 0.3294(5) 0.8973(3) 0.9438(8)
H8_3 H 0.3461 0.9339 0.9481
C14_3 C 0.2799(7) 0.7928(4) 0.9249(11)
H10_3 H 0.2642 0.7561 0.9222
C17_3 C 0.1209(6) 0.0129(3) 0.4174(10)
H11_3 H 0.1696 0.0368 0.3900
C18_3 C 0.0334(6) 0.0320(3) 0.4744(11)
H12_3 H 0.0262 0.0690 0.4889
C19_3 C 0.9585(5) 0.9981(3) 0.5092(10)
C20_3 C 0.9723(6) 0.9436(3) 0.4932(10)
H13_3 H 0.9233 0.9193 0.5185
C23_3 C 0.7887(5) 0.9933(3) 0.5929(9)
H16_3 H 0.7875 0.9564 0.5710
H19_3 H 0.4649 0.9904 0.6720
C28_3 C 0.6097(5) 0.9882(3) 0.6348(9)
H20_3 H 0.6061 0.9535 0.5916
C1_4 C 0.4810(5) 0.1552(4) 0.0246(9)
C2_4 C 0.5328(5) 0.1839(3) 0.1696(8)
C3_4 C 0.5770(6) 0.2342(3) 0.1611(10)
H1_4 H 0.5762 0.2515 0.0627
C4_4 C 0.6235(6) 0.2588(4) 0.3058(11)
H2_4 H 0.6534 0.2927 0.3025
C5_4 C 0.6253(6) 0.2337(4) 0.4500(11)
C6_4 C 0.5819(6) 0.1845(4) 0.4549(10)
H3_4 H 0.5824 0.1672 0.5532
C7_4 C 0.5367(5) 0.1596(4) 0.3145(10)
H4_4 H 0.5083 0.1253 0.3196
C8_4 C 0.6740(6) 0.2568(4) 0.6086(11)
H5_4 H 0.6699 0.2364 0.7001
C9_4 C 0.7193(7) 0.3008(4) 0.6282(12)
H6_4 H 0.7261 0.3211 0.5373
C10_4 C 0.7631(6) 0.3228(4) 0.7866(10)
C11_4 C 0.7897(6) 0.3758(4) 0.7964(9)
H7_4 H 0.7812 0.3973 0.7046
C12_4 C 0.8294(5) 0.3973(3) 0.9438(8)
H8_4 H 0.8461 0.4339 0.9481
C14_4 C 0.7799(7) 0.2928(4) 0.9249(11)
H10_4 H 0.7642 0.2561 0.9222
O3_4 O 0.4501(4) 0.1082(2) 0.0370(6)
C17_4 C 0.1209(6) 0.9871(3) 0.9174(10)
H11_4 H 0.1696 0.9632 0.8900
C18_4 C 0.0334(6) 0.9680(3) 0.9744(11)
H12_4 H 0.0262 0.9310 0.9889
C19_4 C 0.9585(5) 0.0019(3) 0.0092(10)
H13_4 H 0.9233 0.0807 0.0185
C23_4 C 0.7887(5) 0.0067(3) 0.0929(9)
H16_4 H 0.7875 0.0436 0.0710
H19_4 H 0.4649 0.0096 0.1720
C28_4 C 0.6097(5) 0.0118(3) 0.1348(9)
H20_4 H 0.6061 0.0465 0.0916
C20_4 C 0.9723(6) 0.0564(3) 0.9932(10)
loop_
_geom_bond_atom_site_label_1
_geom_bond_atom_site_label_2
_geom_bond_site_symmetry_1
_geom_bond_site_symmetry_2
H5 C8 1_555 1_555
C9 C8 1_555 1_555
H6 C9 1_555 1_555
C10 C9 1_555 1_555
C11 C10 1_555 1_555
H7 C11 1_555 1_555
C12 C11 1_555 1_555
H8 C12 1_555 1_555
C13 H9 1_555 1_555
C14 C10 1_555 1_555
H10 C14 1_555 1_555
N1 C12 1_555 1_555
Co3 N1 1_555 1_555
C13 C14 1_555 1_555
C13 N1 1_555 1_555
H15 C22 1_555 1_555
C25 C24 1_555 1_555
H17 C25 1_555 1_555
C26 C25 1_555 1_555
H18 C26 1_555 1_555
N2 C26 1_555 1_555
Co3 N2 1_555 1_555
C27 N2 1_555 1_555
C15 C16 1_555 1_555
C21 C16 1_555 1_555
H14 C21 1_555 1_555
Co3 O1 1_555 1_555
O1 C15 1_555 1_555
O2 C15 1_555 1_555
Co3 O2 1_555 1_555
Co3 O4 1_555 1_555
C2 C3 1_555 1_555
C3 H1 1_555 1_555
C4 C3 1_555 1_555
H2 C4 1_555 1_555
C5 C4 1_555 1_555
C6 C5 1_555 1_555
C7 C2 1_555 1_555
H4 C7 1_555 1_555
C6 C7 1_555 1_555
C22_2 C19 1_555 1_555
H15_2 C22_2 1_555 1_555
C23 C22_2 1_555 1_555
H16 C23 1_555 1_555
C24_2 C23 1_555 1_555
C25_2 C24_2 1_555 1_555
H17_2 C25_2 1_555 1_555
C26_2 C25_2 1_555 1_555
H18_2 C26_2 1_555 1_555
C28 C24_2 1_555 1_555
H20 C28 1_555 1_555
N4 C26_2 1_555 1_555
O3 C1 1_555 1_555
C27_2 C28 1_555 1_555
C27_2 N4 1_555 1_555
C15_2 C16_2 1_555 1_555
C16_2 C17 1_555 1_555
C17 H11 1_555 1_555
C18 C17 1_555 1_555
H12 C18 1_555 1_555
C19_2 C18 1_555 1_555
C20 C19_2 1_555 1_555
H13_2 C20 1_555 1_555
C21_2 C16_2 1_555 1_555
H14_2 C21_2 1_555 1_555
C22_3 C19_2 1_555 1_555
H15_3 C22_3 1_555 1_555
C23_2 C22_3 1_555 1_555
H16_2 C23_2 1_555 1_555
C24_3 C23_2 1_555 1_555
C25_3 C24_3 1_555 1_555
H17_3 C25_3 1_555 1_555
C26_3 C25_3 1_555 1_555
H18_3 C26_3 1_555 1_555
C28_2 C24_3 1_555 1_555
H20_2 C28_2 1_555 1_555
Co1 O1_2 1_555 1_555
N2_2 C26_3 1_555 1_555
O1_2 C15_2 1_555 1_555
O2_2 C15_2 1_555 1_555
O3_2 C1_2 1_555 1_555
O4_2 C1_2 1_555 1_555
N3 Co1 1_555 1_555
C20 C21_2 1_555 1_555
C27_3 C28_2 1_555 1_555
C27_3 N2_2 1_555 1_555
Co1 O2_2 1_555 1_555
Co1 O3_2 1_555 1_555
Co1 O4_2 1_555 1_555
C13_2 H9_2 1_555 1_555
C13_2 N3 1_555 1_555
C15_3 C16_3 1_555 1_555
C16_3 C17_2 1_555 1_555
C17_2 H11_2 1_555 1_555
C18_2 C17_2 1_555 1_555
H12_2 C18_2 1_555 1_555
C21_3 C16_3 1_555 1_555
H14_3 C21_3 1_555 1_555
Co2 O1_3 1_555 1_555
O1_3 C15_3 1_555 1_555
O2_3 C15_3 1_555 1_555
N3_2 Co2 1_555 1_555
C20_2 C21_3 1_555 1_555
Co2 O2_3 1_555 1_555
Co2 O4_3 1_555 1_555
H5_2 C8_2 1_555 1_555
C9_2 C8_2 1_555 1_555
H6_2 C9_2 1_555 1_555
C10_2 C9_2 1_555 1_555
C11_2 C10_2 1_555 1_555
H7_2 C11_2 1_555 1_555
C12_2 C11_2 1_555 1_555
H8_2 C12_2 1_555 1_555
C13_3 H9_3 1_555 1_555
C14_2 C10_2 1_555 1_555
H10_2 C14_2 1_555 1_555
N3_2 C12_2 1_555 1_555
C13_3 C14_2 1_555 1_555
C13_3 N3_2 1_555 1_555
C13_4 H9_4 1_555 1_555
Co3_2 N1_2 1_555 1_555
C13_4 N1_2 1_555 1_555
C1_3 C2_2 1_555 1_555
C2_2 C3_2 1_555 1_555
C3_2 H1_2 1_555 1_555
C4_2 C3_2 1_555 1_555
H2_2 C4_2 1_555 1_555
C5_2 C4_2 1_555 1_555
C6_2 C5_2 1_555 1_555
C7_2 C2_2 1_555 1_555
H4_2 C7_2 1_555 1_555
C15_4 C16_4 1_555 1_555
C21_4 C16_4 1_555 1_555
H14_4 C21_4 1_555 1_555
Co3_2 O1_4 1_555 1_555
O1_4 C15_4 1_555 1_555
O2_4 C15_4 1_555 1_555
O3_3 C1_3 1_555 1_555
O4_4 C1_3 1_555 1_555
N4_2 Co3_2 1_555 1_555
C6_2 C7_2 1_555 1_555
Co3_2 O2_4 1_555 1_555
Co3_2 O3_3 1_555 1_555
Co3_2 O4_4 1_555 1_555
H15_4 C22_4 1_555 1_555
C25_4 C24_4 1_555 1_555
H17_4 C25_4 1_555 1_555
C26_4 C25_4 1_555 1_555
H18_4 C26_4 1_555 1_555
N4_2 C26_4 1_555 1_555
C27_4 N4_2 1_555 1_555
C2_3 C3_3 1_555 1_555
C3_3 H1_3 1_555 1_555
C4_3 C3_3 1_555 1_555
H2_3 C4_3 1_555 1_555
C5_3 C4_3 1_555 1_555
C6_3 C5_3 1_555 1_555
H3_3 C6_3 1_555 1_555
C7_3 C2_3 1_555 1_555
H4_3 C7_3 1_555 1_555
C8_3 C5_3 1_555 1_555
H5_3 C8_3 1_555 1_555
C9_3 C8_3 1_555 1_555
H6_3 C9_3 1_555 1_555
C10_3 C9_3 1_555 1_555
C11_3 C10_3 1_555 1_555
H7_3 C11_3 1_555 1_555
C12_3 C11_3 1_555 1_555
H8_3 C12_3 1_555 1_555
C14_3 C10_3 1_555 1_555
H10_3 C14_3 1_555 1_555
C6_3 C7_3 1_555 1_555
C17_3 H11_3 1_555 1_555
C18_3 C17_3 1_555 1_555
H12_3 C18_3 1_555 1_555
C20_3 C19_3 1_555 1_555
H13_3 C20_3 1_555 1_555
H16_3 C23_3 1_555 1_555
H20_3 C28_3 1_555 1_555
C1_4 C2_4 1_555 1_555
C2_4 C3_4 1_555 1_555
C3_4 H1_4 1_555 1_555
C4_4 C3_4 1_555 1_555
H2_4 C4_4 1_555 1_555
C5_4 C4_4 1_555 1_555
C6_4 C5_4 1_555 1_555
H3_4 C6_4 1_555 1_555
C7_4 C2_4 1_555 1_555
H4_4 C7_4 1_555 1_555
C8_4 C5_4 1_555 1_555
H5_4 C8_4 1_555 1_555
C9_4 C8_4 1_555 1_555
H6_4 C9_4 1_555 1_555
C10_4 C9_4 1_555 1_555
C11_4 C10_4 1_555 1_555
H7_4 C11_4 1_555 1_555
C12_4 C11_4 1_555 1_555
H8_4 C12_4 1_555 1_555
C14_4 C10_4 1_555 1_555
H10_4 C14_4 1_555 1_555
O3_4 C1_4 1_555 1_555
C6_4 C7_4 1_555 1_555
C17_4 H11_4 1_555 1_555
C18_4 C17_4 1_555 1_555
H12_4 C18_4 1_555 1_555
H16_4 C23_4 1_555 1_555
H20_4 C28_4 1_555 1_555

#END
