
###############################################################################
#
# This file contains modified crystal structure data generated from the
# MOF subset of the Cambridge Structural Database (CSD) v543 
# hosted by the Cambridge Crystallographic Data Centre (CCDC).
#
# This work is licensed under the Creative Commons
# Attribution-NonCommercial-ShareAlike 4.0 International License.
# To view a copy of this license, visit
# http://creativecommons.org/licenses/by-nc-sa/4.0/
# or send a letter to
# Creative Commons, PO Box 1866, Mountain View, CA 94042, USA.
#
# CIF created using the CSD Python API on 29 September 2022
# The structure has been converted into the P1 space group
# The structure has a 3D framework
# The original CSD entry JODFOZ01 is in the monoclinic crystal system
# The framework has been calculated to contain at least 10.0% void space
# The void calculation uses a probe of radius 1.32A, grid spacing 0.4
#
###############################################################################

data_JODFOZ01
_chemical_formula_moiety         '(C112 H80 Co4 N8 O14)n'
_symmetry_cell_setting           triclinic
_symmetry_space_group_name_H-M   'P 1'
_symmetry_Int_Tables_number      1
_space_group_name_Hall           'P 1'
loop_
_symmetry_equiv_pos_site_id
_symmetry_equiv_pos_as_xyz
1 x,y,z
_cell_length_a                   13.31352(10)
_cell_length_b                   24.4807(2)
_cell_length_c                   8.57156(7)
_cell_angle_alpha                90
_cell_angle_beta                 99.1319(7)
_cell_angle_gamma                90
_cell_volume                     2758.27
loop_
_atom_site_label
_atom_site_type_symbol
_atom_site_fract_x
_atom_site_fract_y
_atom_site_fract_z
O2 O 0.1748(4) 0.8937(2) 0.3775(6)
O4 O 0.1495(4) 0.8238(2) 0.5280(5)
C4 C 0.0850(6) 0.8430(3) 0.1041(9)
H3 H 0.1137 0.8784 0.0993
C5 C 0.1411(5) 0.8463(3) 0.3936(9)
C9 C 0.0440(6) 0.7666(3) 0.2552(9)
H6 H 0.0452 0.7487 0.3538
C11 C 0.0894(5) 0.8182(3) 0.2482(8)
Co3 Co 0.22759(7) 0.90222(3) 0.62152(9)
O1 O 0.3254(4) 0.96817(19) 0.6070(6)
O3 O 0.3818(3) 0.88500(18) 0.5769(5)
C1 C 0.4892(5) 0.9583(3) 0.5255(8)
C7 C 0.6469(6) 0.9426(3) 0.4276(9)
H5 H 0.6960 0.9177 0.4000
C8 C 0.6611(6) 0.9983(3) 0.4113(9)
C16 C 0.3932(6) 0.9358(3) 0.5740(8)
C19 C 0.5619(6) 0.9229(3) 0.4836(9)
H13 H 0.5531 0.8846 0.4936
C20 C 0.8311(6) 0.9932(3) 0.3233(9)
H14 H 0.8325 0.9550 0.3436
N1 N 0.0941(4) 0.9387(2) 0.6701(7)
N2 N 0.2749(5) 0.8687(3) 0.8436(7)
C6 C 0.2922(5) 0.8979(3) 0.9776(8)
H4 H 0.2760 0.9357 0.9722
C10 C 0.0955(5) 0.9887(3) 0.7359(8)
C15 C 0.0036(5) 0.9116(3) 0.6445(8)
H10 H 0.0002 0.8771 0.5932
C26 C 0.2975(6) 0.8151(3) 0.8529(10)
H19 H 0.2847 0.7933 0.7600
C28 C 0.3391(6) 0.7908(4) 0.9951(11)
H20 H 0.3561 0.7530 0.9984
C18 C 0.0398(6) 0.8182(4) 0.9650(10)
H12 H 0.0398 0.8359 0.8664
C24 C 0.9973(6) 0.7419(3) 0.1159(11)
H17 H 0.9667 0.7070 0.1200
Co1 Co 0.72759(7) 0.59778(3) 0.12152(9)
N1_2 N 0.5941(4) 0.5613(2) 0.1701(7)
N2_2 N 0.7749(5) 0.6313(3) 0.3436(7)
C2 C 0.5101(6) 0.4879(3) 0.2822(9)
H1 H 0.5139 0.4522 0.3259
C3 C 0.2496(5) 0.5208(3) 0.3504(9)
H2 H 0.2484 0.5588 0.3282
C6_2 C 0.7922(5) 0.6021(3) 0.4776(8)
H4_2 H 0.7760 0.5643 0.4722
C7_2 C 0.1469(6) 0.4426(3) 0.4276(9)
H5_2 H 0.1960 0.4177 0.4000
C8_2 C 0.1611(6) 0.4983(3) 0.4113(9)
C10_2 C 0.5955(5) 0.5113(3) 0.2359(8)
H7 H 0.6575 0.4913 0.2512
C12 C 0.4186(5) 0.5167(3) 0.2648(9)
C13 C 0.4175(6) 0.5674(3) 0.1903(9)
H8 H 0.3560 0.5877 0.1711
C14 C 0.0044(6) 0.5138(3) 0.5144(10)
C15_2 C 0.5036(5) 0.5884(3) 0.1445(8)
H10_2 H 0.5002 0.6229 0.0932
C17 C 0.0899(6) 0.5336(3) 0.4582(10)
H11 H 0.0997 0.5719 0.4518
C19_2 C 0.0619(6) 0.4229(3) 0.4836(9)
H13_2 H 0.0531 0.3846 0.4936
C20_2 C 0.3311(6) 0.4932(3) 0.3233(9)
H14_2 H 0.3325 0.4550 0.3436
C21 C 0.8320(6) 0.6236(4) 0.6220(10)
H15 H 0.8428 0.6010 0.7132
C22 C 0.9466(7) 0.7450(4) 0.8114(12)
H16 H 0.9516 0.7662 0.7201
C23 C 0.9949(7) 0.7678(4) 0.9708(12)
C25 C 0.8998(7) 0.6993(4) 0.7918(12)
H18 H 0.8928 0.6782 0.8824
C26_2 C 0.7975(6) 0.6849(3) 0.3529(10)
H19_2 H 0.7847 0.7067 0.2600
C27 C 0.8559(6) 0.6779(4) 0.6333(10)
C28_2 C 0.8391(6) 0.7092(4) 0.4951(11)
H20_2 H 0.8561 0.7470 0.4984
O5 O 0.8254(4) 0.53183(19) 0.1070(6)
O7 O 0.8818(3) 0.61500(18) 0.0769(5)
O8 O 0.6495(4) 0.6762(2) 0.0280(5)
C1_2 C 0.9892(5) 0.5417(3) 0.0255(8)
H9 H 0.9563 0.4614 0.0452
C16_2 C 0.8932(6) 0.5642(3) 0.0740(8)
O6 O 0.6748(4) 0.6063(2) 0.8775(6)
C4_2 C 0.5850(6) 0.6570(3) 0.6041(9)
H3_2 H 0.6137 0.6216 0.5993
C5_2 C 0.6411(5) 0.6537(3) 0.8936(9)
C9_2 C 0.5440(6) 0.7334(3) 0.7552(9)
H6_2 H 0.5452 0.7513 0.8538
C11_2 C 0.5894(5) 0.6818(3) 0.7482(8)
C18_2 C 0.5398(6) 0.6818(4) 0.4650(10)
H12_2 H 0.5398 0.6641 0.3664
C21_2 C 0.3320(6) 0.8764(4) 0.1220(10)
H15_2 H 0.3428 0.8990 0.2132
C22_2 C 0.4466(7) 0.7550(4) 0.3114(12)
H16_2 H 0.4516 0.7338 0.2201
C23_2 C 0.4949(7) 0.7322(4) 0.4708(12)
C24_2 C 0.4973(6) 0.7581(3) 0.6159(11)
H17_2 H 0.4667 0.7930 0.6200
C25_2 C 0.3998(7) 0.8007(4) 0.2918(12)
H18_2 H 0.3928 0.8218 0.3824
C27_2 C 0.3559(6) 0.8221(4) 0.1333(10)
O1_2 O 0.8254(4) 0.46817(19) 0.6070(6)
O3_2 O 0.8818(3) 0.38500(18) 0.5769(5)
C1_3 C 0.9892(5) 0.4583(3) 0.5255(8)
H9_2 H 0.9563 0.5386 0.5452
C16_3 C 0.8932(6) 0.4358(3) 0.5740(8)
Co2 Co 0.72759(7) 0.40222(3) 0.62152(9)
N1_3 N 0.5941(4) 0.4387(2) 0.6701(7)
N2_3 N 0.7749(5) 0.3687(3) 0.8436(7)
C2_2 C 0.5101(6) 0.5121(3) 0.7822(9)
H1_2 H 0.5139 0.5478 0.8259
C3_2 C 0.2496(5) 0.4792(3) 0.8504(9)
H2_2 H 0.2484 0.4412 0.8282
C6_3 C 0.7922(5) 0.3979(3) 0.9776(8)
H4_3 H 0.7760 0.4357 0.9722
C7_3 C 0.1469(6) 0.5574(3) 0.9276(9)
H5_3 H 0.1960 0.5823 0.9000
C8_3 C 0.1611(6) 0.5017(3) 0.9113(9)
C10_3 C 0.5955(5) 0.4887(3) 0.7359(8)
H7_2 H 0.6575 0.5087 0.7512
C12_2 C 0.4186(5) 0.4833(3) 0.7648(9)
C13_2 C 0.4175(6) 0.4326(3) 0.6903(9)
H8_2 H 0.3560 0.4123 0.6711
C15_3 C 0.5036(5) 0.4116(3) 0.6445(8)
H10_3 H 0.5002 0.3771 0.5932
C17_2 C 0.0899(6) 0.4664(3) 0.9582(10)
H11_2 H 0.0997 0.4281 0.9518
C19_3 C 0.0619(6) 0.5771(3) 0.9836(9)
H13_3 H 0.0531 0.6154 0.9936
C20_3 C 0.3311(6) 0.5068(3) 0.8233(9)
H14_3 H 0.3325 0.5450 0.8436
C26_3 C 0.7975(6) 0.3151(3) 0.8529(10)
H19_3 H 0.7847 0.2933 0.7600
C28_3 C 0.8391(6) 0.2908(4) 0.9951(11)
H20_3 H 0.8561 0.2530 0.9984
O6_2 O 0.6748(4) 0.3937(2) 0.3775(6)
O8_2 O 0.6495(4) 0.3238(2) 0.5280(5)
C4_3 C 0.5850(6) 0.3430(3) 0.1041(9)
H3_3 H 0.6137 0.3784 0.0993
C5_3 C 0.6411(5) 0.3463(3) 0.3936(9)
C9_3 C 0.5440(6) 0.2666(3) 0.2552(9)
H6_3 H 0.5452 0.2487 0.3538
C11_3 C 0.5894(5) 0.3182(3) 0.2482(8)
C24_3 C 0.4973(6) 0.2419(3) 0.1159(11)
H17_3 H 0.4667 0.2070 0.1200
O4_2 O 0.1495(4) 0.1762(2) 0.0280(5)
Co3_2 Co 0.22759(7) 0.09778(3) 0.12152(9)
N1_4 N 0.0941(4) 0.0613(2) 0.1701(7)
N2_4 N 0.2749(5) 0.1313(3) 0.3436(7)
C6_4 C 0.2922(5) 0.1021(3) 0.4776(8)
H4_4 H 0.2760 0.0643 0.4722
C10_4 C 0.0955(5) 0.0113(3) 0.2359(8)
C15_4 C 0.0036(5) 0.0884(3) 0.1445(8)
H10_4 H 0.0002 0.1229 0.0932
C18_3 C 0.5398(6) 0.3182(4) 0.9650(10)
H12_3 H 0.5398 0.3359 0.8664
C21_3 C 0.3320(6) 0.1236(4) 0.6220(10)
H15_3 H 0.3428 0.1010 0.7132
C22_3 C 0.4466(7) 0.2450(4) 0.8114(12)
H16_3 H 0.4516 0.2662 0.7201
C23_3 C 0.4949(7) 0.2678(4) 0.9708(12)
C25_3 C 0.3998(7) 0.1993(4) 0.7918(12)
H18_3 H 0.3928 0.1782 0.8824
C26_4 C 0.2975(6) 0.1849(3) 0.3529(10)
H19_4 H 0.2847 0.2067 0.2600
C27_3 C 0.3559(6) 0.1779(4) 0.6333(10)
C28_4 C 0.3391(6) 0.2092(4) 0.4951(11)
H20_4 H 0.3561 0.2470 0.4984
O5_2 O 0.3254(4) 0.03183(19) 0.1070(6)
O7_2 O 0.3818(3) 0.11500(18) 0.0769(5)
C1_4 C 0.4892(5) 0.0417(3) 0.0255(8)
C16_4 C 0.3932(6) 0.0642(3) 0.0740(8)
O2_2 O 0.1748(4) 0.1063(2) 0.8775(6)
C4_4 C 0.0850(6) 0.1570(3) 0.6041(9)
H3_4 H 0.1137 0.1216 0.5993
C5_4 C 0.1411(5) 0.1537(3) 0.8936(9)
C9_4 C 0.0440(6) 0.2334(3) 0.7552(9)
H6_4 H 0.0452 0.2513 0.8538
C11_4 C 0.0894(5) 0.1818(3) 0.7482(8)
C18_4 C 0.0398(6) 0.1818(4) 0.4650(10)
H12_4 H 0.0398 0.1641 0.3664
C14_2 C 0.0044(6) 0.4862(3) 0.0144(10)
C21_4 C 0.8320(6) 0.3764(4) 0.1220(10)
H15_4 H 0.8428 0.3990 0.2132
C22_4 C 0.9466(7) 0.2550(4) 0.3114(12)
H16_4 H 0.9516 0.2338 0.2201
C23_4 C 0.9949(7) 0.2322(4) 0.4708(12)
C24_4 C 0.9973(6) 0.2581(3) 0.6159(11)
H17_4 H 0.9667 0.2930 0.6200
C25_4 C 0.8998(7) 0.3007(4) 0.2918(12)
H18_4 H 0.8928 0.3218 0.3824
C27_4 C 0.8559(6) 0.3221(4) 0.1333(10)
C2_3 C 0.0101(6) 0.9879(3) 0.2822(9)
H1_3 H 0.0139 0.9522 0.3259
H7_3 H 0.1575 0.9913 0.2512
C3_3 C 0.7496(5) 0.0208(3) 0.3504(9)
H2_3 H 0.7484 0.0588 0.3282
C12_3 C 0.9186(5) 0.0167(3) 0.2648(9)
C13_3 C 0.9175(6) 0.0674(3) 0.1903(9)
H8_3 H 0.8560 0.0877 0.1711
C14_3 C 0.5044(6) 0.0138(3) 0.5144(10)
H9_3 H 0.4563 0.0386 0.5452
C17_3 C 0.5899(6) 0.0336(3) 0.4582(10)
H11_3 H 0.5997 0.0719 0.4518
C2_4 C 0.0101(6) 0.0121(3) 0.7822(9)
H1_4 H 0.0139 0.0478 0.8259
H7_4 H 0.1575 0.0087 0.7512
C7_4 C 0.6469(6) 0.0574(3) 0.9276(9)
H5_4 H 0.6960 0.0823 0.9000
C8_4 C 0.6611(6) 0.0017(3) 0.9113(9)
C19_4 C 0.5619(6) 0.0771(3) 0.9836(9)
H13_4 H 0.5531 0.1154 0.9936
C20_4 C 0.8311(6) 0.0068(3) 0.8233(9)
H14_4 H 0.8325 0.0450 0.8436
C14_4 C 0.5044(6) 0.9862(3) 0.0144(10)
H9_4 H 0.4563 0.9614 0.0452
C3_4 C 0.7496(5) 0.9792(3) 0.8504(9)
H2_4 H 0.7484 0.9412 0.8282
C12_4 C 0.9186(5) 0.9833(3) 0.7648(9)
C13_4 C 0.9175(6) 0.9326(3) 0.6903(9)
H8_4 H 0.8560 0.9123 0.6711
C17_4 C 0.5899(6) 0.9664(3) 0.9582(10)
H11_4 H 0.5997 0.9281 0.9518
loop_
_geom_bond_atom_site_label_1
_geom_bond_atom_site_label_2
_geom_bond_site_symmetry_1
_geom_bond_site_symmetry_2
O2 C5 1_555 1_555
O4 C5 1_555 1_555
C4 H3 1_555 1_555
C5 C11 1_555 1_555
C9 H6 1_555 1_555
C11 C4 1_555 1_555
Co3 O2 1_555 1_555
O4 Co3 1_555 1_555
C9 C11 1_555 1_555
O1 C16 1_555 1_555
O3 C16 1_555 1_555
C7 H5 1_555 1_555
C16 C1 1_555 1_555
C19 C1 1_555 1_555
H13 C19 1_555 1_555
H14 C20 1_555 1_555
Co3 O1 1_555 1_555
O3 Co3 1_555 1_555
C7 C8 1_555 1_555
C7 C19 1_555 1_555
Co3 N1 1_555 1_555
N1 C10 1_555 1_555
N2 Co3 1_555 1_555
C6 N2 1_555 1_555
H4 C6 1_555 1_555
C15 N1 1_555 1_555
H10 C15 1_555 1_555
C26 N2 1_555 1_555
H19 C26 1_555 1_555
C28 C26 1_555 1_555
H20 C28 1_555 1_555
H12 C18 1_555 1_555
H17 C24 1_555 1_555
Co1 N1_2 1_555 1_555
N1_2 C10_2 1_555 1_555
N2_2 Co1 1_555 1_555
C2 H1 1_555 1_555
C3 H2 1_555 1_555
C6_2 N2_2 1_555 1_555
H4_2 C6_2 1_555 1_555
C7_2 H5_2 1_555 1_555
C8_2 C3 1_555 1_555
C10_2 C2 1_555 1_555
H7 C10_2 1_555 1_555
C12 C2 1_555 1_555
C13 C12 1_555 1_555
H8 C13 1_555 1_555
C15_2 N1_2 1_555 1_555
H10_2 C15_2 1_555 1_555
C17 C8_2 1_555 1_555
H11 C17 1_555 1_555
H13_2 C19_2 1_555 1_555
C20_2 C3 1_555 1_555
H14_2 C20_2 1_555 1_555
C21 C6_2 1_555 1_555
H15 C21 1_555 1_555
C22 H16 1_555 1_555
C25 C22 1_555 1_555
H18 C25 1_555 1_555
C26_2 N2_2 1_555 1_555
H19_2 C26_2 1_555 1_555
C27 C21 1_555 1_555
C28_2 C26_2 1_555 1_555
H20_2 C28_2 1_555 1_555
O5 Co1 1_555 1_555
O7 Co1 1_555 1_555
O8 Co1 1_555 1_555
C7_2 C8_2 1_555 1_555
C7_2 C19_2 1_555 1_555
C12 C20_2 1_555 1_555
C13 C15_2 1_555 1_555
C14 C17 1_555 1_555
C22 C23 1_555 1_555
C25 C27 1_555 1_555
C27 C28_2 1_555 1_555
O5 C16_2 1_555 1_555
O7 C16_2 1_555 1_555
C16_2 C1_2 1_555 1_555
O6 C5_2 1_555 1_555
C4_2 H3_2 1_555 1_555
C5_2 C11_2 1_555 1_555
C9_2 H6_2 1_555 1_555
C11_2 C4_2 1_555 1_555
C18_2 C4_2 1_555 1_555
H12_2 C18_2 1_555 1_555
H15_2 C21_2 1_555 1_555
C22_2 H16_2 1_555 1_555
C23_2 C18_2 1_555 1_555
C24_2 C9_2 1_555 1_555
H17_2 C24_2 1_555 1_555
C25_2 C22_2 1_555 1_555
H18_2 C25_2 1_555 1_555
C27_2 C21_2 1_555 1_555
C9_2 C11_2 1_555 1_555
C22_2 C23_2 1_555 1_555
C23_2 C24_2 1_555 1_555
C25_2 C27_2 1_555 1_555
O1_2 C16_3 1_555 1_555
O3_2 C16_3 1_555 1_555
C16_3 C1_3 1_555 1_555
Co2 O1_2 1_555 1_555
O3_2 Co2 1_555 1_555
Co2 N1_3 1_555 1_555
N1_3 C10_3 1_555 1_555
N2_3 Co2 1_555 1_555
C2_2 H1_2 1_555 1_555
C3_2 H2_2 1_555 1_555
C6_3 N2_3 1_555 1_555
H4_3 C6_3 1_555 1_555
C7_3 H5_3 1_555 1_555
C8_3 C3_2 1_555 1_555
C10_3 C2_2 1_555 1_555
H7_2 C10_3 1_555 1_555
C12_2 C2_2 1_555 1_555
C13_2 C12_2 1_555 1_555
H8_2 C13_2 1_555 1_555
C15_3 N1_3 1_555 1_555
H10_3 C15_3 1_555 1_555
C17_2 C8_3 1_555 1_555
H11_2 C17_2 1_555 1_555
H13_3 C19_3 1_555 1_555
C20_3 C3_2 1_555 1_555
H14_3 C20_3 1_555 1_555
C26_3 N2_3 1_555 1_555
H19_3 C26_3 1_555 1_555
C28_3 C26_3 1_555 1_555
H20_3 C28_3 1_555 1_555
O6_2 Co2 1_555 1_555
O8_2 Co2 1_555 1_555
C7_3 C8_3 1_555 1_555
C7_3 C19_3 1_555 1_555
C12_2 C20_3 1_555 1_555
C13_2 C15_3 1_555 1_555
O6_2 C5_3 1_555 1_555
O8_2 C5_3 1_555 1_555
C4_3 H3_3 1_555 1_555
C5_3 C11_3 1_555 1_555
C9_3 H6_3 1_555 1_555
C11_3 C4_3 1_555 1_555
C24_3 C9_3 1_555 1_555
H17_3 C24_3 1_555 1_555
C9_3 C11_3 1_555 1_555
O4_2 Co3_2 1_555 1_555
Co3_2 N1_4 1_555 1_555
N1_4 C10_4 1_555 1_555
N2_4 Co3_2 1_555 1_555
C6_4 N2_4 1_555 1_555
H4_4 C6_4 1_555 1_555
C15_4 N1_4 1_555 1_555
H10_4 C15_4 1_555 1_555
H12_3 C18_3 1_555 1_555
C21_3 C6_4 1_555 1_555
H15_3 C21_3 1_555 1_555
C22_3 H16_3 1_555 1_555
C23_3 C18_3 1_555 1_555
C25_3 C22_3 1_555 1_555
H18_3 C25_3 1_555 1_555
C26_4 N2_4 1_555 1_555
H19_4 C26_4 1_555 1_555
C27_3 C21_3 1_555 1_555
C28_4 C26_4 1_555 1_555
H20_4 C28_4 1_555 1_555
O5_2 Co3_2 1_555 1_555
O7_2 Co3_2 1_555 1_555
C22_3 C23_3 1_555 1_555
C25_3 C27_3 1_555 1_555
C27_3 C28_4 1_555 1_555
O5_2 C16_4 1_555 1_555
O7_2 C16_4 1_555 1_555
C16_4 C1_4 1_555 1_555
O2_2 C5_4 1_555 1_555
C4_4 H3_4 1_555 1_555
C5_4 C11_4 1_555 1_555
C9_4 H6_4 1_555 1_555
C11_4 C4_4 1_555 1_555
C18_4 C4_4 1_555 1_555
H12_4 C18_4 1_555 1_555
C9_4 C11_4 1_555 1_555
H15_4 C21_4 1_555 1_555
C22_4 H16_4 1_555 1_555
H17_4 C24_4 1_555 1_555
C25_4 C22_4 1_555 1_555
H18_4 C25_4 1_555 1_555
C27_4 C21_4 1_555 1_555
C22_4 C23_4 1_555 1_555
C23_4 C24_4 1_555 1_555
C25_4 C27_4 1_555 1_555
C2_3 H1_3 1_555 1_555
C3_3 H2_3 1_555 1_555
C13_3 C12_3 1_555 1_555
H8_3 C13_3 1_555 1_555
C14_3 H9_3 1_555 1_555
H11_3 C17_3 1_555 1_555
C14_3 C17_3 1_555 1_555
C2_4 H1_4 1_555 1_555
C7_4 H5_4 1_555 1_555
H13_4 C19_4 1_555 1_555
H14_4 C20_4 1_555 1_555
C7_4 C8_4 1_555 1_555
C7_4 C19_4 1_555 1_555
C14_4 H9_4 1_555 1_555
C3_4 H2_4 1_555 1_555
C13_4 C12_4 1_555 1_555
H8_4 C13_4 1_555 1_555
H11_4 C17_4 1_555 1_555

#END
