
###############################################################################
#
# This file contains modified crystal structure data generated from the
# MOF subset of the Cambridge Structural Database (CSD) v543 
# hosted by the Cambridge Crystallographic Data Centre (CCDC).
#
# This work is licensed under the Creative Commons
# Attribution-NonCommercial-ShareAlike 4.0 International License.
# To view a copy of this license, visit
# http://creativecommons.org/licenses/by-nc-sa/4.0/
# or send a letter to
# Creative Commons, PO Box 1866, Mountain View, CA 94042, USA.
#
# CIF created using the CSD Python API on 29 September 2022
# The structure has been converted into the P1 space group
# The structure has a 3D framework
# The original CSD entry JOFKIA is in the rhombohedral crystal system
# The framework has been calculated to contain at least 10.0% void space
# The void calculation uses a probe of radius 1.32A, grid spacing 0.4
#
###############################################################################

data_JOFKIA
_chemical_formula_moiety         '(C54 H72 Cu18 N72 O54)n'
_symmetry_cell_setting           triclinic
_symmetry_space_group_name_H-M   'P 1'
_symmetry_Int_Tables_number      1
_space_group_name_Hall           'P 1'
loop_
_symmetry_equiv_pos_site_id
_symmetry_equiv_pos_as_xyz
1 x,y,z
_cell_length_a                   21.5760(4)
_cell_length_b                   21.5760(4)
_cell_length_c                   8.9043(4)
_cell_angle_alpha                90
_cell_angle_beta                 90
_cell_angle_gamma                120
_cell_volume                     3589.82
loop_
_atom_site_label
_atom_site_type_symbol
_atom_site_fract_x
_atom_site_fract_y
_atom_site_fract_z
Cu1 Cu 0.12252(3) 0.29704(3) 0.03555(5)
O3 O 0.17960(18) 0.39334(17) 0.1974(3)
H1 H 0.2048 0.4277 0.1449
H2 H 0.1760 0.4012 0.2858
N1 N 0.02317(18) 0.25323(18) 0.1232(4)
N4 N 0.02556(19) 0.2913(2) 0.3766(4)
H4 H 0.0625 0.2876 0.3909
O4 O 0.14528(16) 0.23865(22) 0.1750(3)
O2 O 0.02682(17) 0.20088(19) 0.8214(4)
N5 N 0.11119(18) 0.36351(25) 0.9009(4)
N6 N 0.19543(18) 0.29028(25) 0.9096(4)
N2 N 0.91898(17) 0.22214(18) 0.2342(4)
N3 N 0.90515(18) 0.19543(18) 0.0904(4)
H3 H 0.9974 0.2758 0.4524
C1 C 0.9675(2) 0.2140(2) 0.0297(4)
C2 C 0.9899(2) 0.2558(2) 0.2500(4)
Cu2 Cu 0.84119(4) 0.21081(3) 0.36888(5)
Cu1_2 Cu 0.70296(3) 0.82548(4) 0.03555(5)
O3_2 O 0.60666(17) 0.78626(25) 0.1974(3)
H1_2 H 0.5723 0.7771 0.1449
H2_2 H 0.5988 0.7748 0.2858
N1_2 N 0.74677(18) 0.76994(25) 0.1232(4)
N2_2 N 0.77786(18) 0.69684(25) 0.2342(4)
N3_2 N 0.80457(18) 0.70972(25) 0.0904(4)
N4_2 N 0.7087(2) 0.73426(28) 0.3766(4)
H3_2 H 0.7242 0.7216 0.4524
H4_2 H 0.7124 0.7749 0.3909
C1_2 C 0.7860(2) 0.7535(3) 0.0297(4)
C2_2 C 0.7442(2) 0.7341(3) 0.2500(4)
Cu2_2 Cu 0.78919(3) 0.63037(5) 0.36888(5)
O4_2 O 0.76135(22) 0.90663(27) 0.1750(3)
O1 O 0.85472(16) 0.76135(22) 0.8250(3)
O2_2 O 0.79912(19) 0.82594(25) 0.8214(4)
C3 C 0.8142(2) 0.7834(3) 0.8793(5)
Cu3 Cu 0.87748(3) 0.70296(5) 0.96445(5)
N5_2 N 0.63649(25) 0.74769(31) 0.9009(4)
N6_2 N 0.70972(25) 0.90515(31) 0.9096(4)
N2_3 N 0.30316(25) 0.08102(17) 0.2342(4)
N3_3 N 0.29028(25) 0.09485(18) 0.0904(4)
H3_3 H 0.2784 0.0026 0.4524
C1_3 C 0.2465(3) 0.0325(2) 0.0297(4)
C2_3 C 0.2659(3) 0.0101(2) 0.2500(4)
Cu2_3 Cu 0.36963(5) 0.15881(4) 0.36888(5)
O1_2 O 0.23865(22) 0.09337(15) 0.8250(3)
C3_2 C 0.2166(3) 0.0308(2) 0.8793(5)
Cu3_2 Cu 0.29704(5) 0.17452(4) 0.96445(5)
O2_3 O 0.17406(25) 0.97318(17) 0.8214(4)
N5_3 N 0.25231(31) 0.88881(18) 0.9009(4)
N6_3 N 0.09485(31) 0.80457(18) 0.9096(4)
O1_3 O 0.57330(15) 0.47861(16) 0.1583(3)
O2_4 O 0.69349(17) 0.53421(19) 0.1547(4)
O3_3 O 0.84627(18) 0.72667(17) 0.5307(3)
H1_3 H 0.8715 0.7610 0.4782
H2_3 H 0.8427 0.7345 0.6191
N1_3 N 0.68984(18) 0.58656(18) 0.4565(4)
N2_4 N 0.58565(17) 0.55547(18) 0.5675(4)
N3_4 N 0.57182(18) 0.52876(18) 0.4237(4)
N4_3 N 0.69223(19) 0.6246(2) 0.7099(4)
H3_4 H 0.6641 0.6091 0.7857
H4_3 H 0.7292 0.6209 0.7242
C1_4 C 0.6342(2) 0.5473(2) 0.3630(4)
C2_4 C 0.6566(2) 0.5891(2) 0.5833(4)
C3_3 C 0.6359(2) 0.5191(2) 0.2126(5)
Cu2_4 Cu 0.50785(4) 0.54415(3) 0.70222(5)
Cu3_3 Cu 0.49215(4) 0.45585(3) 0.29778(5)
O4_3 O 0.81195(16) 0.57198(22) 0.5083(3)
N6_4 N 0.86210(18) 0.62361(25) 0.2429(4)
O1_4 O 0.52139(16) 0.09468(22) 0.1583(3)
O2_5 O 0.46579(19) 0.15927(25) 0.1547(4)
O3_4 O 0.27333(17) 0.11959(25) 0.5307(3)
H1_4 H 0.2390 0.1104 0.4782
H2_4 H 0.2655 0.1081 0.6191
N1_4 N 0.41344(18) 0.10327(25) 0.4565(4)
N2_5 N 0.44453(18) 0.03017(25) 0.5675(4)
N3_5 N 0.47124(18) 0.04305(25) 0.4237(4)
N4_4 N 0.3754(2) 0.06759(28) 0.7099(4)
H3_5 H 0.3909 0.0549 0.7857
H4_4 H 0.3791 0.1082 0.7242
C1_5 C 0.4527(2) 0.0868(3) 0.3630(4)
C2_5 C 0.4109(2) 0.0674(3) 0.5833(4)
C3_4 C 0.4809(2) 0.1167(3) 0.2126(5)
Cu3_4 Cu 0.54415(3) 0.03629(5) 0.29778(5)
O4_4 O 0.42802(22) 0.23996(27) 0.5083(3)
N6_5 N 0.37639(25) 0.23848(31) 0.2429(4)
Cu2_5 Cu 0.45585(3) 0.96371(5) 0.70222(5)
Cu2_6 Cu 0.03629(5) 0.49215(4) 0.70222(5)
O1_5 O 0.90532(22) 0.42670(15) 0.1583(3)
O2_6 O 0.84073(25) 0.30651(17) 0.1547(4)
O3_5 O 0.88041(25) 0.15373(18) 0.5307(3)
H1_5 H 0.8896 0.1285 0.4782
H2_5 H 0.8919 0.1573 0.6191
N1_5 N 0.89673(25) 0.31016(18) 0.4565(4)
N2_6 N 0.96983(25) 0.41435(17) 0.5675(4)
N3_6 N 0.95695(25) 0.42818(18) 0.4237(4)
N4_5 N 0.93241(28) 0.30777(19) 0.7099(4)
H3_6 H 0.9451 0.3359 0.7857
H4_5 H 0.8918 0.2708 0.7242
C1_6 C 0.9132(3) 0.3658(2) 0.3630(4)
C2_6 C 0.9326(3) 0.3434(2) 0.5833(4)
C3_5 C 0.8833(3) 0.3641(2) 0.2126(5)
Cu3_5 Cu 0.96371(5) 0.50785(4) 0.29778(5)
O4_5 O 0.76004(27) 0.18805(16) 0.5083(3)
N6_6 N 0.76152(31) 0.13790(18) 0.2429(4)
O3_6 O 0.51293(18) 0.06001(17) 0.8641(3)
H1_6 H 0.5381 0.0944 0.8116
H2_6 H 0.5093 0.0679 0.9525
O1_6 O 0.23996(15) 0.81195(16) 0.4917(3)
O2_7 O 0.36015(17) 0.86755(19) 0.4881(4)
N1_6 N 0.35650(18) 0.91990(18) 0.7899(4)
N3_7 N 0.23848(18) 0.86210(18) 0.7571(4)
C1_7 C 0.3008(2) 0.8807(2) 0.6964(4)
C2_7 C 0.3232(2) 0.9225(2) 0.9167(4)
C3_6 C 0.3025(2) 0.8525(2) 0.5460(5)
Cu3_6 Cu 0.15881(4) 0.78919(3) 0.63112(5)
O4_6 O 0.47861(16) 0.90532(22) 0.8417(3)
N6_7 N 0.52876(18) 0.95695(25) 0.5763(4)
N4_6 N 0.0420(2) 0.40093(28) 0.0433(4)
H3_7 H 0.0575 0.3883 0.1191
H4_6 H 0.0457 0.4416 0.0576
O1_7 O 0.18805(16) 0.42802(22) 0.4917(3)
O2_8 O 0.13245(19) 0.49261(25) 0.4881(4)
N1_7 N 0.08010(18) 0.43661(25) 0.7899(4)
N3_8 N 0.13790(18) 0.37639(25) 0.7571(4)
C1_8 C 0.1193(2) 0.4202(3) 0.6964(4)
C2_8 C 0.0775(2) 0.4008(3) 0.9167(4)
C3_7 C 0.1475(2) 0.4501(3) 0.5460(5)
Cu3_7 Cu 0.21081(3) 0.36963(5) 0.63112(5)
O4_7 O 0.09468(22) 0.57330(27) 0.8417(3)
N6_8 N 0.04305(25) 0.57182(31) 0.5763(4)
O3_7 O 0.93999(17) 0.45293(25) 0.8641(3)
H1_7 H 0.9056 0.4438 0.8116
H2_7 H 0.9321 0.4415 0.9525
N4_7 N 0.59907(28) 0.64111(19) 0.0433(4)
H3_8 H 0.6117 0.6693 0.1191
H4_7 H 0.5584 0.6042 0.0576
O1_8 O 0.57198(22) 0.76004(15) 0.4917(3)
O2_9 O 0.50739(25) 0.63985(17) 0.4881(4)
O3_8 O 0.54707(25) 0.48707(18) 0.8641(3)
H1_8 H 0.5562 0.4619 0.8116
H2_8 H 0.5585 0.4907 0.9525
N1_8 N 0.56339(25) 0.64350(18) 0.7899(4)
N3_9 N 0.62361(25) 0.76152(18) 0.7571(4)
C1_9 C 0.5798(3) 0.6992(2) 0.6964(4)
C2_9 C 0.5992(3) 0.6768(2) 0.9167(4)
C3_8 C 0.5499(3) 0.6975(2) 0.5460(5)
Cu3_8 Cu 0.63037(5) 0.84119(4) 0.63112(5)
O4_8 O 0.42670(27) 0.52139(16) 0.8417(3)
N6_9 N 0.42818(31) 0.47124(18) 0.5763(4)
N2_7 N 0.08102(17) 0.77786(18) 0.7658(4)
H3_9 H 0.0026 0.7242 0.5476
C1_10 C 0.0325(2) 0.7860(2) 0.9703(4)
C2_10 C 0.0101(2) 0.7442(2) 0.7500(4)
O2_10 O 0.97318(17) 0.79912(19) 0.1786(4)
N5_4 N 0.88881(18) 0.63649(25) 0.0991(4)
O3_9 O 0.82040(18) 0.60666(17) 0.8026(3)
H1_9 H 0.7952 0.5723 0.8551
H2_9 H 0.8240 0.5988 0.7142
N1_9 N 0.97683(18) 0.74677(18) 0.8768(4)
N4_8 N 0.97444(19) 0.7087(2) 0.6234(4)
H4_8 H 0.9375 0.7124 0.6091
O2_11 O 0.20088(19) 0.17406(25) 0.1786(4)
C3_9 C 0.1858(2) 0.2166(3) 0.1207(5)
N5_5 N 0.36351(25) 0.25231(31) 0.0991(4)
O3_10 O 0.39334(17) 0.21374(25) 0.8026(3)
H1_10 H 0.4277 0.2229 0.8551
H2_10 H 0.4012 0.2252 0.7142
N1_10 N 0.25323(18) 0.23006(25) 0.8768(4)
N2_8 N 0.22214(18) 0.30316(25) 0.7658(4)
N4_9 N 0.2913(2) 0.26574(28) 0.6234(4)
H3_10 H 0.2758 0.2784 0.5476
H4_9 H 0.2876 0.2251 0.6091
C1_11 C 0.2140(2) 0.2465(3) 0.9703(4)
C2_11 C 0.2558(2) 0.2659(3) 0.7500(4)
O2_12 O 0.82594(25) 0.02682(17) 0.1786(4)
N5_6 N 0.74769(31) 0.11119(18) 0.0991(4)
C3_10 C 0.7834(3) 0.9692(2) 0.1207(5)
N2_9 N 0.69684(25) 0.91898(17) 0.7658(4)
H3_11 H 0.7216 0.9974 0.5476
C1_12 C 0.7535(3) 0.9675(2) 0.9703(4)
C2_12 C 0.7341(3) 0.9899(2) 0.7500(4)
O2_13 O 0.30651(17) 0.46579(19) 0.8453(4)
O3_11 O 0.15373(18) 0.27333(17) 0.4693(3)
H1_11 H 0.1285 0.2390 0.5218
H2_11 H 0.1573 0.2655 0.3809
N1_11 N 0.31016(18) 0.41344(18) 0.5435(4)
N2_10 N 0.41435(17) 0.44453(18) 0.4325(4)
N4_10 N 0.30777(19) 0.3754(2) 0.2901(4)
H3_12 H 0.3359 0.3909 0.2143
H4_10 H 0.2708 0.3791 0.2758
C1_13 C 0.3658(2) 0.4527(2) 0.6370(4)
C2_13 C 0.3434(2) 0.4109(2) 0.4167(4)
C3_11 C 0.3641(2) 0.4809(2) 0.7874(5)
O2_14 O 0.53421(19) 0.84073(25) 0.8453(4)
O3_12 O 0.72667(17) 0.88041(25) 0.4693(3)
H1_12 H 0.7610 0.8896 0.5218
H2_12 H 0.7345 0.8919 0.3809
N1_12 N 0.58656(18) 0.89673(25) 0.5435(4)
N2_11 N 0.55547(18) 0.96983(25) 0.4325(4)
N4_11 N 0.6246(2) 0.93241(28) 0.2901(4)
H3_13 H 0.6091 0.9451 0.2143
H4_11 H 0.6209 0.8918 0.2758
C1_14 C 0.5473(2) 0.9132(3) 0.6370(4)
C2_14 C 0.5891(2) 0.9326(3) 0.4167(4)
C3_12 C 0.5191(2) 0.8833(3) 0.7874(5)
O2_15 O 0.15927(25) 0.69349(17) 0.8453(4)
O3_13 O 0.11959(25) 0.84627(18) 0.4693(3)
H1_13 H 0.1104 0.8715 0.5218
H2_13 H 0.1081 0.8427 0.3809
N1_13 N 0.10327(25) 0.68984(18) 0.5435(4)
N2_12 N 0.03017(25) 0.58565(17) 0.4325(4)
N4_12 N 0.06759(28) 0.69223(19) 0.2901(4)
H3_14 H 0.0549 0.6641 0.2143
H4_12 H 0.1082 0.7292 0.2758
C1_15 C 0.0868(3) 0.6342(2) 0.6370(4)
C2_15 C 0.0674(3) 0.6566(2) 0.4167(4)
C3_13 C 0.1167(3) 0.6359(2) 0.7874(5)
O2_16 O 0.63985(17) 0.13245(19) 0.5119(4)
N1_14 N 0.64350(18) 0.08010(18) 0.2101(4)
C1_16 C 0.6992(2) 0.1193(2) 0.3036(4)
C2_16 C 0.6768(2) 0.0775(2) 0.0833(4)
C3_14 C 0.6975(2) 0.1475(2) 0.4540(5)
O3_14 O 0.48707(18) 0.93999(17) 0.1359(3)
H1_14 H 0.4619 0.9056 0.1884
H2_14 H 0.4907 0.9321 0.0475
O3_15 O 0.06001(17) 0.54707(25) 0.1359(3)
H1_15 H 0.0944 0.5562 0.1884
H2_15 H 0.0679 0.5585 0.0475
O2_17 O 0.86755(19) 0.50739(25) 0.5119(4)
N1_15 N 0.91990(18) 0.56339(25) 0.2101(4)
C1_17 C 0.8807(2) 0.5798(3) 0.3036(4)
C2_17 C 0.9225(2) 0.5992(3) 0.0833(4)
C3_15 C 0.8525(2) 0.5499(3) 0.4540(5)
N4_13 N 0.9580(2) 0.59907(28) 0.9567(4)
H3_15 H 0.9425 0.6117 0.8809
H4_13 H 0.9543 0.5584 0.9424
O2_18 O 0.49261(25) 0.36015(17) 0.5119(4)
O3_16 O 0.45293(25) 0.51293(18) 0.1359(3)
H1_16 H 0.4438 0.5381 0.1884
H2_16 H 0.4415 0.5093 0.0475
N1_16 N 0.43661(25) 0.35650(18) 0.2101(4)
C1_18 C 0.4202(3) 0.3008(2) 0.3036(4)
C2_18 C 0.4008(3) 0.3232(2) 0.0833(4)
C3_16 C 0.4501(3) 0.3025(2) 0.4540(5)
N4_14 N 0.40093(28) 0.35889(19) 0.9567(4)
H3_16 H 0.3883 0.3307 0.8809
H4_14 H 0.4416 0.3958 0.9424
O1_9 O 0.90663(15) 0.14528(16) 0.8250(3)
C3_17 C 0.9692(2) 0.1858(2) 0.8793(5)
Cu3_9 Cu 0.82548(4) 0.12252(3) 0.96445(5)
O3_17 O 0.78626(25) 0.17960(18) 0.8026(3)
H1_17 H 0.7771 0.2048 0.8551
H2_17 H 0.7748 0.1760 0.7142
N1_17 N 0.76994(25) 0.02317(18) 0.8768(4)
N4_15 N 0.73426(28) 0.02556(19) 0.6234(4)
H4_15 H 0.7749 0.0625 0.6091
N4_16 N 0.64111(19) 0.0420(2) 0.9567(4)
H3_17 H 0.6693 0.0575 0.8809
H4_16 H 0.6042 0.0457 0.9424
Cu1_3 Cu 0.17452(4) 0.87748(3) 0.03555(5)
O3_18 O 0.21374(25) 0.82040(18) 0.1974(3)
H1_18 H 0.2229 0.7952 0.1449
H2_18 H 0.2252 0.8240 0.2858
N1_18 N 0.23006(25) 0.97683(18) 0.1232(4)
N4_17 N 0.26574(28) 0.97444(19) 0.3766(4)
H4_17 H 0.2251 0.9375 0.3909
O4_9 O 0.09337(27) 0.85472(16) 0.1750(3)
N4_18 N 0.35889(19) 0.9580(2) 0.0433(4)
H3_18 H 0.3307 0.9425 0.1191
H4_18 H 0.3958 0.9543 0.0576
C3_18 C 0.0308(2) 0.8142(2) 0.1207(5)
loop_
_geom_bond_atom_site_label_1
_geom_bond_atom_site_label_2
_geom_bond_site_symmetry_1
_geom_bond_site_symmetry_2
Cu1 O3 1_555 1_555
O3 H1 1_555 1_555
H2 O3 1_555 1_555
N1 Cu1 1_555 1_555
H4 N4 1_555 1_555
O4 Cu1 1_555 1_555
N2 N3 1_555 1_555
N3 C1 1_555 1_555
Cu2 N2 1_555 1_555
N2 C2 1_555 1_555
Cu1_2 O3_2 1_555 1_555
O3_2 H1_2 1_555 1_555
H2_2 O3_2 1_555 1_555
N1_2 Cu1_2 1_555 1_555
N2_2 N3_2 1_555 1_555
N3_2 C1_2 1_555 1_555
N4_2 H3_2 1_555 1_555
H4_2 N4_2 1_555 1_555
C1_2 N1_2 1_555 1_555
C2_2 N1_2 1_555 1_555
Cu2_2 N2_2 1_555 1_555
O4_2 Cu1_2 1_555 1_555
N2_2 C2_2 1_555 1_555
N4_2 C2_2 1_555 1_555
O1 C3 1_555 1_555
O2_2 C3 1_555 1_555
Cu3 O1 1_555 1_555
N2_3 N3_3 1_555 1_555
N3_3 C1_3 1_555 1_555
Cu2_3 N2_3 1_555 1_555
N2_3 C2_3 1_555 1_555
O1_2 C3_2 1_555 1_555
Cu3_2 O1_2 1_555 1_555
Cu2_2 O3_3 1_555 1_555
O1_3 C3_3 1_555 1_555
O2_4 C3_3 1_555 1_555
O3_3 H1_3 1_555 1_555
H2_3 O3_3 1_555 1_555
N1_3 Cu2_2 1_555 1_555
N2_4 N3_4 1_555 1_555
N3_4 C1_4 1_555 1_555
N4_3 H3_4 1_555 1_555
H4_3 N4_3 1_555 1_555
C1_4 N1_3 1_555 1_555
C2_4 N1_3 1_555 1_555
C3_3 C1_4 1_555 1_555
Cu2_4 N2_4 1_555 1_555
Cu3_3 O1_3 1_555 1_555
O4_3 Cu2_2 1_555 1_555
N6_4 Cu2_2 1_555 1_555
N2_4 C2_4 1_555 1_555
N3_4 Cu3_3 1_555 1_555
N4_3 C2_4 1_555 1_555
Cu2_3 O3_4 1_555 1_555
O1_4 C3_4 1_555 1_555
O2_5 C3_4 1_555 1_555
O3_4 H1_4 1_555 1_555
H2_4 O3_4 1_555 1_555
N1_4 Cu2_3 1_555 1_555
N2_5 N3_5 1_555 1_555
N3_5 C1_5 1_555 1_555
N4_4 H3_5 1_555 1_555
H4_4 N4_4 1_555 1_555
C1_5 N1_4 1_555 1_555
C2_5 N1_4 1_555 1_555
C3_4 C1_5 1_555 1_555
Cu3_4 O1_4 1_555 1_555
O4_4 Cu2_3 1_555 1_555
N6_5 Cu2_3 1_555 1_555
N2_5 C2_5 1_555 1_555
N3_5 Cu3_4 1_555 1_555
N4_4 C2_5 1_555 1_555
Cu2 O3_5 1_555 1_555
O1_5 C3_5 1_555 1_555
O2_6 C3_5 1_555 1_555
O3_5 H1_5 1_555 1_555
H2_5 O3_5 1_555 1_555
N1_5 Cu2 1_555 1_555
N2_6 N3_6 1_555 1_555
N3_6 C1_6 1_555 1_555
N4_5 H3_6 1_555 1_555
H4_5 N4_5 1_555 1_555
C1_6 N1_5 1_555 1_555
C2_6 N1_5 1_555 1_555
C3_5 C1_6 1_555 1_555
Cu3_5 O1_5 1_555 1_555
O4_5 Cu2 1_555 1_555
N6_6 Cu2 1_555 1_555
N2_6 C2_6 1_555 1_555
N3_6 Cu3_5 1_555 1_555
N4_5 C2_6 1_555 1_555
O3_6 H1_6 1_555 1_555
H2_6 O3_6 1_555 1_555
O1_6 C3_6 1_555 1_555
O2_7 C3_6 1_555 1_555
N1_6 Cu2_5 1_555 1_555
N5_3 N3_7 1_555 1_555
N3_7 C1_7 1_555 1_555
C1_7 N1_6 1_555 1_555
C2_7 N1_6 1_555 1_555
C3_6 C1_7 1_555 1_555
Cu3_6 O1_6 1_555 1_555
O4_6 Cu2_5 1_555 1_555
N6_7 Cu2_5 1_555 1_555
N5_3 C2_7 1_555 1_555
N3_7 Cu3_6 1_555 1_555
N4_6 H3_7 1_555 1_555
H4_6 N4_6 1_555 1_555
O1_7 C3_7 1_555 1_555
O2_8 C3_7 1_555 1_555
N1_7 Cu2_6 1_555 1_555
N5 N3_8 1_555 1_555
N3_8 C1_8 1_555 1_555
C1_8 N1_7 1_555 1_555
C2_8 N1_7 1_555 1_555
C3_7 C1_8 1_555 1_555
Cu3_7 O1_7 1_555 1_555
O4_7 Cu2_6 1_555 1_555
N6_8 Cu2_6 1_555 1_555
N5 C2_8 1_555 1_555
N3_8 Cu3_7 1_555 1_555
O3_7 H1_7 1_555 1_555
H2_7 O3_7 1_555 1_555
N4_7 H3_8 1_555 1_555
H4_7 N4_7 1_555 1_555
Cu2_4 O3_8 1_555 1_555
O1_8 C3_8 1_555 1_555
O2_9 C3_8 1_555 1_555
O3_8 H1_8 1_555 1_555
H2_8 O3_8 1_555 1_555
N1_8 Cu2_4 1_555 1_555
N5_2 N3_9 1_555 1_555
N3_9 C1_9 1_555 1_555
C1_9 N1_8 1_555 1_555
C2_9 N1_8 1_555 1_555
C3_8 C1_9 1_555 1_555
Cu3_8 O1_8 1_555 1_555
O4_8 Cu2_4 1_555 1_555
N6_9 Cu2_4 1_555 1_555
N5_2 C2_9 1_555 1_555
N3_9 Cu3_8 1_555 1_555
N2_7 N6_3 1_555 1_555
N6_3 C1_10 1_555 1_555
Cu3_6 N2_7 1_555 1_555
N2_7 C2_10 1_555 1_555
Cu3 O3_9 1_555 1_555
O3_9 H1_9 1_555 1_555
H2_9 O3_9 1_555 1_555
N1_9 Cu3 1_555 1_555
H4_8 N4_8 1_555 1_555
O4 C3_9 1_555 1_555
O2_11 C3_9 1_555 1_555
Cu3_2 O3_10 1_555 1_555
O3_10 H1_10 1_555 1_555
H2_10 O3_10 1_555 1_555
N1_10 Cu3_2 1_555 1_555
N2_8 N6 1_555 1_555
N6 C1_11 1_555 1_555
N4_9 H3_10 1_555 1_555
H4_9 N4_9 1_555 1_555
C1_11 N1_10 1_555 1_555
C2_11 N1_10 1_555 1_555
Cu3_7 N2_8 1_555 1_555
N2_8 C2_11 1_555 1_555
N4_9 C2_11 1_555 1_555
O4_2 C3_10 1_555 1_555
N2_9 N6_2 1_555 1_555
N6_2 C1_12 1_555 1_555
Cu3_8 N2_9 1_555 1_555
N2_9 C2_12 1_555 1_555
Cu3_7 O3_11 1_555 1_555
O4_8 C3_11 1_555 1_555
O2_13 C3_11 1_555 1_555
O3_11 H1_11 1_555 1_555
H2_11 O3_11 1_555 1_555
N1_11 Cu3_7 1_555 1_555
N2_10 N6_9 1_555 1_555
N6_9 C1_13 1_555 1_555
N4_10 H3_12 1_555 1_555
H4_10 N4_10 1_555 1_555
C1_13 N1_11 1_555 1_555
C2_13 N1_11 1_555 1_555
C3_11 C1_13 1_555 1_555
Cu3_3 N2_10 1_555 1_555
N2_10 C2_13 1_555 1_555
N4_10 C2_13 1_555 1_555
Cu3_8 O3_12 1_555 1_555
O4_6 C3_12 1_555 1_555
O2_14 C3_12 1_555 1_555
O3_12 H1_12 1_555 1_555
H2_12 O3_12 1_555 1_555
N1_12 Cu3_8 1_555 1_555
N2_11 N6_7 1_555 1_555
N6_7 C1_14 1_555 1_555
N4_11 H3_13 1_555 1_555
H4_11 N4_11 1_555 1_555
C1_14 N1_12 1_555 1_555
C2_14 N1_12 1_555 1_555
C3_12 C1_14 1_555 1_555
N2_11 C2_14 1_555 1_555
N4_11 C2_14 1_555 1_555
Cu3_6 O3_13 1_555 1_555
O4_7 C3_13 1_555 1_555
O2_15 C3_13 1_555 1_555
O3_13 H1_13 1_555 1_555
H2_13 O3_13 1_555 1_555
N1_13 Cu3_6 1_555 1_555
N2_12 N6_8 1_555 1_555
N6_8 C1_15 1_555 1_555
N4_12 H3_14 1_555 1_555
H4_12 N4_12 1_555 1_555
C1_15 N1_13 1_555 1_555
C2_15 N1_13 1_555 1_555
C3_13 C1_15 1_555 1_555
N2_12 C2_15 1_555 1_555
N4_12 C2_15 1_555 1_555
O4_5 C3_14 1_555 1_555
O2_16 C3_14 1_555 1_555
N1_14 Cu3_4 1_555 1_555
N5_6 N6_6 1_555 1_555
N6_6 C1_16 1_555 1_555
C1_16 N1_14 1_555 1_555
C2_16 N1_14 1_555 1_555
C3_14 C1_16 1_555 1_555
N5_6 C2_16 1_555 1_555
O3_14 H1_14 1_555 1_555
H2_14 O3_14 1_555 1_555
O3_15 H1_15 1_555 1_555
H2_15 O3_15 1_555 1_555
O4_3 C3_15 1_555 1_555
O2_17 C3_15 1_555 1_555
N1_15 Cu3_5 1_555 1_555
N5_4 N6_4 1_555 1_555
N6_4 C1_17 1_555 1_555
C1_17 N1_15 1_555 1_555
C2_17 N1_15 1_555 1_555
C3_15 C1_17 1_555 1_555
N5_4 C2_17 1_555 1_555
N4_13 H3_15 1_555 1_555
H4_13 N4_13 1_555 1_555
Cu3_3 O3_16 1_555 1_555
O4_4 C3_16 1_555 1_555
O2_18 C3_16 1_555 1_555
O3_16 H1_16 1_555 1_555
H2_16 O3_16 1_555 1_555
N1_16 Cu3_3 1_555 1_555
N5_5 N6_5 1_555 1_555
N6_5 C1_18 1_555 1_555
C1_18 N1_16 1_555 1_555
C2_18 N1_16 1_555 1_555
C3_16 C1_18 1_555 1_555
N5_5 C2_18 1_555 1_555
N4_14 H3_16 1_555 1_555
H4_14 N4_14 1_555 1_555
O1_9 C3_17 1_555 1_555
Cu3_9 O1_9 1_555 1_555
Cu3_9 O3_17 1_555 1_555
O3_17 H1_17 1_555 1_555
H2_17 O3_17 1_555 1_555
N1_17 Cu3_9 1_555 1_555
H4_15 N4_15 1_555 1_555
N4_16 H3_17 1_555 1_555
H4_16 N4_16 1_555 1_555
Cu1_3 O3_18 1_555 1_555
O3_18 H1_18 1_555 1_555
H2_18 O3_18 1_555 1_555
N1_18 Cu1_3 1_555 1_555
H4_17 N4_17 1_555 1_555
O4_9 Cu1_3 1_555 1_555
N4_18 H3_18 1_555 1_555
H4_18 N4_18 1_555 1_555
O4_9 C3_18 1_555 1_555

#END
