
###############################################################################
#
# This file contains modified crystal structure data generated from the
# MOF subset of the Cambridge Structural Database (CSD) v543 
# hosted by the Cambridge Crystallographic Data Centre (CCDC).
#
# This work is licensed under the Creative Commons
# Attribution-NonCommercial-ShareAlike 4.0 International License.
# To view a copy of this license, visit
# http://creativecommons.org/licenses/by-nc-sa/4.0/
# or send a letter to
# Creative Commons, PO Box 1866, Mountain View, CA 94042, USA.
#
# CIF created using the CSD Python API on 29 September 2022
# The structure has been converted into the P1 space group
# The structure has a 3D framework
# The original CSD entry JOFWAF is in the orthorhombic crystal system
# The framework has been calculated to contain at least 10.0% void space
# The void calculation uses a probe of radius 1.32A, grid spacing 0.4
#
###############################################################################

data_JOFWAF
_chemical_formula_moiety         '(C100 H60 Co8 N48 O32)n'
_symmetry_cell_setting           triclinic
_symmetry_space_group_name_H-M   'P 1'
_symmetry_Int_Tables_number      1
_space_group_name_Hall           'P 1'
loop_
_symmetry_equiv_pos_site_id
_symmetry_equiv_pos_as_xyz
1 x,y,z
_cell_length_a                   7.2283(2)
_cell_length_b                   20.3745(4)
_cell_length_c                   24.7168(6)
_cell_angle_alpha                90
_cell_angle_beta                 90
_cell_angle_gamma                90
_cell_volume                     3640.12
loop_
_atom_site_label
_atom_site_type_symbol
_atom_site_fract_x
_atom_site_fract_y
_atom_site_fract_z
Co2 Co 0.000000 0.500000 0.500000
Co5 Co 0.000000 0.000000 0.500000
Co5_2 Co 0.000000 1.000000 0.500000
Co3 Co 0.000000 0.500000 -0.000000
O1 O 0.1664(2) 0.41499(7) 0.49892(5)
O2 O 0.0531(2) 0.36179(7) 0.42716(6)
N1 N 0.5630(3) 0.36399(8) 0.47365(8)
N3 N 0.7580(2) 0.44501(8) 0.47989(8)
N5 N 0.5276(3) 0.40252(11) 0.43025(10)
O4 O 0.0518(3) 0.21493(9) 0.65311(7)
C1 C 0.1536(3) 0.36620(9) 0.46829(8)
C2 C 0.2668(3) 0.30661(9) 0.48408(8)
C3 C 0.1737(4) 0.250000 0.500000
H1 H 0.042236 0.249999 0.499999
C4 C 0.6490(3) 0.45036(12) 0.43573(11)
H2 H 0.658891 0.485608 0.410731
C5 C 0.4595(3) 0.30615(10) 0.48554(9)
C8 C 0.0066(3) 0.42408(11) 0.61008(9)
H4 H 0.106633 0.396287 0.600266
H5 H 0.014187 0.233120 0.750001
C10 C 0.7003(3) 0.39049(11) 0.50277(9)
H6 H 0.748862 0.372489 0.535254
C11 C 0.5565(5) 0.250000 0.500000
H7 H 0.687930 0.250001 0.500002
H9 H 0.052(6) 0.191(2) 0.609(2)
O5 O 0.1664(2) 0.08501(7) 0.50108(5)
O6 O 0.0531(2) 0.13821(7) 0.57284(6)
C15 C 0.1536(3) 0.13380(9) 0.53171(8)
C16 C 0.2668(3) 0.19339(9) 0.51592(8)
C17 C 0.4595(3) 0.19385(10) 0.51446(9)
N7 N 0.5630(3) 0.13601(8) 0.52635(8)
N8 N 0.7580(2) 0.05499(8) 0.52011(8)
N9 N 0.5276(3) 0.09748(11) 0.56975(10)
C18 C 0.6490(3) 0.04964(12) 0.56427(11)
H10 H 0.658891 0.014392 0.589269
C19 C 0.7003(3) 0.10951(11) 0.49723(9)
H11 H 0.748862 0.127511 0.464746
O8 O 0.0518(3) 0.21493(9) 0.84689(7)
C21 C 0.0066(3) 0.42408(11) 0.88992(9)
H12 H 0.106633 0.396287 0.899734
H14 H 0.052(6) 0.191(2) 0.891(2)
Co2_2 Co 1.000000 0.500000 0.500000
Co3_2 Co 0.000000 0.500000 1.000000
Co5_3 Co 1.000000 0.000000 0.500000
N13 N 0.0529(3) 0.52532(8) 0.41847(7)
N15 N 0.2420(2) 0.55499(8) 0.52011(8)
Co5_4 Co 1.000000 1.000000 0.500000
Co3_3 Co 1.000000 0.500000 -0.000000
N2 N 0.9471(3) 0.47468(8) 0.58153(7)
O3 O 0.8935(3) 0.28995(9) 0.60676(7)
N4 N 0.9044(3) 0.41795(9) 0.65489(8)
N6 N 0.7747(4) 0.46682(11) 0.65651(9)
C6 C 0.9117(6) 0.41074(16) 0.750000
H3 H 0.889244 0.456687 0.750000
C7 C 0.9277(4) 0.37797(11) 0.70141(9)
C9 C 0.9849(5) 0.27857(16) 0.750000
C12 C 0.9644(4) 0.31033(11) 0.70018(10)
C13 C 0.8048(4) 0.49877(11) 0.61136(10)
H8 H 0.733312 0.535588 0.600447
C14 C 0.9676(4) 0.27129(13) 0.64823(10)
N10 N 0.9471(3) 0.47468(8) 0.91847(7)
O7 O 0.8935(3) 0.28995(9) 0.89324(7)
N11 N 0.9044(3) 0.41795(9) 0.84511(8)
N12 N 0.7747(4) 0.46682(11) 0.84349(9)
C20 C 0.9277(4) 0.37797(11) 0.79859(9)
C22 C 0.9644(4) 0.31033(11) 0.79982(10)
C23 C 0.8048(4) 0.49877(11) 0.88864(10)
H13 H 0.733312 0.535588 0.899553
C24 C 0.9676(4) 0.27129(13) 0.85177(10)
Co3_4 Co 1.000000 0.500000 1.000000
O9 O 0.8336(2) 0.58501(7) 0.50108(5)
Co4 Co 0.000000 0.000000 -0.000000
Co4_2 Co -0.000000 0.000000 1.000000
N2_2 N 0.0529(3) 0.52532(8) 0.08153(7)
O3_2 O 0.1065(3) 0.71005(9) 0.10676(7)
N4_2 N 0.0956(3) 0.58205(9) 0.15489(8)
N6_2 N 0.2253(4) 0.53318(11) 0.15651(9)
C6_2 C 0.0883(6) 0.58926(16) 0.250000
H3_2 H 0.110756 0.543313 0.250000
C7_2 C 0.0723(4) 0.62203(11) 0.20141(9)
C9_2 C 0.0151(5) 0.72143(16) 0.250000
C12_2 C 0.0356(4) 0.68967(11) 0.20018(10)
C13_2 C 0.1952(4) 0.50123(11) 0.11136(10)
H8_2 H 0.266688 0.464412 0.100447
C14_2 C 0.0324(4) 0.72871(13) 0.14823(10)
O7_2 O 0.1065(3) 0.71005(9) 0.39324(7)
N11_2 N 0.0956(3) 0.58205(9) 0.34511(8)
N12_2 N 0.2253(4) 0.53318(11) 0.34349(9)
C20_2 C 0.0723(4) 0.62203(11) 0.29859(9)
C22_2 C 0.0356(4) 0.68967(11) 0.29982(10)
C23_2 C 0.1952(4) 0.50123(11) 0.38864(10)
H13_2 H 0.266688 0.464412 0.399553
C24_2 C 0.0324(4) 0.72871(13) 0.35177(10)
Co4_3 Co 0.000000 1.000000 -0.000000
O9_2 O 0.1664(2) 0.41499(7) 0.00108(5)
Co4_4 Co 0.000000 1.000000 1.000000
N14 N 0.2420(2) 0.55499(8) 0.97989(8)
Co4_5 Co 1.000000 0.000000 -0.000000
Co4_6 Co 1.000000 0.000000 1.000000
O4_2 O 0.9482(3) 0.78507(9) 0.15311(7)
C3_2 C 0.8263(4) 0.750000 -0.000000
H1_2 H 0.957764 0.750001 -0.000001
C8_2 C 0.9934(3) 0.57592(11) 0.11008(9)
H4_2 H 0.893367 0.603713 0.100266
H5_2 H 0.985813 0.766880 0.250001
C10_2 C 0.2997(3) 0.60951(11) 0.00277(9)
H6_2 H 0.251138 0.627511 0.035254
C11_2 C 0.4435(5) 0.750000 -0.000000
H7_2 H 0.312070 0.749999 0.000002
H9_2 H 0.948(6) 0.809(2) 0.109(2)
O5_2 O 0.8336(2) 0.91499(7) 0.00108(5)
O6_2 O 0.9469(2) 0.86179(7) 0.07284(6)
C15_2 C 0.8464(3) 0.86620(9) 0.03171(8)
C16_2 C 0.7332(3) 0.80661(9) 0.01592(8)
C17_2 C 0.5405(3) 0.80615(10) 0.01446(9)
N7_2 N 0.4370(3) 0.86399(8) 0.02635(8)
N8_2 N 0.2420(2) 0.94501(8) 0.02011(8)
N9_2 N 0.4724(3) 0.90252(11) 0.06975(10)
C18_2 C 0.3510(3) 0.95036(12) 0.06427(11)
H10_2 H 0.341109 0.985608 0.089269
O8_2 O 0.9482(3) 0.78507(9) 0.34689(7)
C21_2 C 0.9934(3) 0.57592(11) 0.38992(9)
H12_2 H 0.893367 0.603713 0.399734
H14_2 H 0.948(6) 0.809(2) 0.391(2)
Co4_7 Co 1.000000 1.000000 -0.000000
N15_2 N 0.7580(2) 0.44501(8) 0.02011(8)
O1_2 O 0.8336(2) 0.58501(7) 0.99892(5)
O2_2 O 0.9469(2) 0.63821(7) 0.92716(6)
N1_2 N 0.4370(3) 0.63601(8) 0.97365(8)
N5_2 N 0.4724(3) 0.59748(11) 0.93025(10)
C1_2 C 0.8464(3) 0.63380(9) 0.96829(8)
C2_2 C 0.7332(3) 0.69339(9) 0.98408(8)
C3_3 C 0.8263(4) 0.750000 1.000000
H1_3 H 0.957764 0.750001 0.999999
C4_2 C 0.3510(3) 0.54964(12) 0.93573(11)
H2_2 H 0.341109 0.514392 0.910731
C5_2 C 0.5405(3) 0.69385(10) 0.98554(9)
C11_3 C 0.4435(5) 0.750000 1.000000
H7_3 H 0.312070 0.749999 1.000002
C19_2 C 0.2997(3) 0.89049(11) 0.99723(9)
H11_2 H 0.251138 0.872489 0.964746
Co4_8 Co 1.000000 1.000000 1.000000
O4_3 O 0.0518(3) 0.28507(9) 0.34689(7)
C8_3 C 0.0066(3) 0.07592(11) 0.38992(9)
H4_3 H 0.106633 0.103713 0.399734
H5_3 H 0.014187 0.266880 0.249999
H9_3 H 0.052(6) 0.309(2) 0.391(2)
O8_3 O 0.0518(3) 0.28507(9) 0.15311(7)
C21_3 C 0.0066(3) 0.07592(11) 0.11008(9)
H12_3 H 0.106633 0.103713 0.100266
H14_3 H 0.052(6) 0.309(2) 0.109(2)
N13_2 N 0.0529(3) 0.97468(8) 0.58153(7)
N15_3 N 0.2420(2) 0.94501(8) 0.47989(8)
N2_3 N 0.9471(3) 0.02532(8) 0.41847(7)
O3_3 O 0.8935(3) 0.21005(9) 0.39324(7)
N4_3 N 0.9044(3) 0.08205(9) 0.34511(8)
N6_3 N 0.7747(4) 0.03318(11) 0.34349(9)
C6_3 C 0.9117(6) 0.08926(16) 0.250000
H3_3 H 0.889244 0.043313 0.250000
C7_3 C 0.9277(4) 0.12203(11) 0.29859(9)
C9_3 C 0.9849(5) 0.22143(16) 0.250000
C12_3 C 0.9644(4) 0.18967(11) 0.29982(10)
C13_3 C 0.8048(4) 0.00123(11) 0.38864(10)
C14_3 C 0.9676(4) 0.22871(13) 0.35177(10)
N10_2 N 0.9471(3) 0.02532(8) 0.08153(7)
O7_3 O 0.8935(3) 0.21005(9) 0.10676(7)
N11_3 N 0.9044(3) 0.08205(9) 0.15489(8)
N12_3 N 0.7747(4) 0.03318(11) 0.15651(9)
C20_3 C 0.9277(4) 0.12203(11) 0.20141(9)
C22_3 C 0.9644(4) 0.18967(11) 0.20018(10)
C23_3 C 0.8048(4) 0.00123(11) 0.11136(10)
C24_3 C 0.9676(4) 0.22871(13) 0.14823(10)
H8_3 H 0.733312 0.964412 0.399553
H13_3 H 0.733312 0.964412 0.100447
O9_3 O 0.8336(2) 0.91499(7) 0.49892(5)
H8_4 H 0.266688 0.035588 0.899553
H13_4 H 0.266688 0.035588 0.600447
O9_4 O 0.1664(2) 0.08501(7) 0.99892(5)
N2_4 N 0.0529(3) 0.97468(8) 0.91847(7)
O3_4 O 0.1065(3) 0.78995(9) 0.89324(7)
N4_4 N 0.0956(3) 0.91795(9) 0.84511(8)
N6_4 N 0.2253(4) 0.96682(11) 0.84349(9)
C6_4 C 0.0883(6) 0.91074(16) 0.750000
H3_4 H 0.110756 0.956687 0.750000
C7_4 C 0.0723(4) 0.87797(11) 0.79859(9)
C9_4 C 0.0151(5) 0.77857(16) 0.750000
C12_4 C 0.0356(4) 0.81033(11) 0.79982(10)
C13_4 C 0.1952(4) 0.99877(11) 0.88864(10)
C14_4 C 0.0324(4) 0.77129(13) 0.85177(10)
O7_4 O 0.1065(3) 0.78995(9) 0.60676(7)
N11_4 N 0.0956(3) 0.91795(9) 0.65489(8)
N12_4 N 0.2253(4) 0.96682(11) 0.65651(9)
C20_4 C 0.0723(4) 0.87797(11) 0.70141(9)
C22_4 C 0.0356(4) 0.81033(11) 0.70018(10)
C23_4 C 0.1952(4) 0.99877(11) 0.61136(10)
C24_4 C 0.0324(4) 0.77129(13) 0.64823(10)
N15_4 N 0.7580(2) 0.05499(8) 0.97989(8)
O4_4 O 0.9482(3) 0.71493(9) 0.84689(7)
C8_4 C 0.9934(3) 0.92408(11) 0.88992(9)
H4_4 H 0.893367 0.896287 0.899734
H5_4 H 0.985813 0.733120 0.749999
H9_4 H 0.948(6) 0.691(2) 0.891(2)
O8_4 O 0.9482(3) 0.71493(9) 0.65311(7)
C21_4 C 0.9934(3) 0.92408(11) 0.61008(9)
H12_4 H 0.893367 0.896287 0.600266
H14_4 H 0.948(6) 0.691(2) 0.609(2)
O2_3 O 0.9469(2) 0.63821(7) 0.57284(6)
N1_3 N 0.4370(3) 0.63601(8) 0.52635(8)
N5_3 N 0.4724(3) 0.59748(11) 0.56975(10)
C1_3 C 0.8464(3) 0.63380(9) 0.53171(8)
C2_3 C 0.7332(3) 0.69339(9) 0.51592(8)
C3_4 C 0.8263(4) 0.750000 0.500000
H1_4 H 0.957764 0.750001 0.500001
C4_3 C 0.3510(3) 0.54964(12) 0.56427(11)
H2_3 H 0.341109 0.514392 0.589269
C5_3 C 0.5405(3) 0.69385(10) 0.51446(9)
C10_3 C 0.2997(3) 0.60951(11) 0.49723(9)
H6_3 H 0.251138 0.627511 0.464746
C11_4 C 0.4435(5) 0.750000 0.500000
H7_4 H 0.312070 0.749999 0.499998
O6_3 O 0.9469(2) 0.86179(7) 0.42716(6)
C15_3 C 0.8464(3) 0.86620(9) 0.46829(8)
C16_3 C 0.7332(3) 0.80661(9) 0.48408(8)
C17_3 C 0.5405(3) 0.80615(10) 0.48554(9)
N7_3 N 0.4370(3) 0.86399(8) 0.47365(8)
N9_3 N 0.4724(3) 0.90252(11) 0.43025(10)
C18_3 C 0.3510(3) 0.95036(12) 0.43573(11)
H10_3 H 0.341109 0.985608 0.410731
C19_3 C 0.2997(3) 0.89049(11) 0.50277(9)
H11_3 H 0.251138 0.872489 0.535254
O2_4 O 0.0531(2) 0.36179(7) 0.07284(6)
N1_4 N 0.5630(3) 0.36399(8) 0.02635(8)
N5_4 N 0.5276(3) 0.40252(11) 0.06975(10)
C1_4 C 0.1536(3) 0.36620(9) 0.03171(8)
C2_4 C 0.2668(3) 0.30661(9) 0.01592(8)
C3_5 C 0.1737(4) 0.250000 0.000000
H1_5 H 0.042236 0.249999 0.000001
C4_4 C 0.6490(3) 0.45036(12) 0.06427(11)
H2_4 H 0.658891 0.485608 0.089269
C5_4 C 0.4595(3) 0.30615(10) 0.01446(9)
C11_5 C 0.5565(5) 0.250000 0.000000
H7_5 H 0.687930 0.250001 -0.000002
C19_4 C 0.7003(3) 0.10951(11) 0.00277(9)
H11_4 H 0.748862 0.127511 0.035254
C3_6 C 0.1737(4) 0.250000 1.000000
H1_6 H 0.042236 0.249999 1.000001
C10_4 C 0.7003(3) 0.39049(11) 0.99723(9)
H6_4 H 0.748862 0.372489 0.964746
C11_6 C 0.5565(5) 0.250000 1.000000
H7_6 H 0.687930 0.250001 0.999998
O6_4 O 0.0531(2) 0.13821(7) 0.92716(6)
C15_4 C 0.1536(3) 0.13380(9) 0.96829(8)
C16_4 C 0.2668(3) 0.19339(9) 0.98408(8)
C17_4 C 0.4595(3) 0.19385(10) 0.98554(9)
N7_4 N 0.5630(3) 0.13601(8) 0.97365(8)
N9_4 N 0.5276(3) 0.09748(11) 0.93025(10)
C18_4 C 0.6490(3) 0.04964(12) 0.93573(11)
H10_4 H 0.658891 0.014392 0.910731
loop_
_geom_bond_atom_site_label_1
_geom_bond_atom_site_label_2
_geom_bond_site_symmetry_1
_geom_bond_site_symmetry_2
Co2 O1 1_555 1_555
O1 C1 1_555 1_555
O2 C1 1_555 1_555
N1 N5 1_555 1_555
N3 C4 1_555 1_555
N5 C4 1_555 1_555
C1 C2 1_555 1_555
C2 C3 1_555 1_555
C3 H1 1_555 1_555
C4 H2 1_555 1_555
C5 N1 1_555 1_555
H4 C8 1_555 1_555
C10 N1 1_555 1_555
H6 C10 1_555 1_555
C11 C5 1_555 1_555
H7 C11 1_555 1_555
H9 O4 1_555 1_555
O5 C15 1_555 1_555
O6 C15 1_555 1_555
C15 C16 1_555 1_555
C16 C3 1_555 1_555
C17 C11 1_555 1_555
N7 C17 1_555 1_555
N8 C18 1_555 1_555
N9 N7 1_555 1_555
C18 N9 1_555 1_555
H10 C18 1_555 1_555
C19 N7 1_555 1_555
H11 C19 1_555 1_555
H12 C21 1_555 1_555
H14 O8 1_555 1_555
Co2_2 N3 1_555 1_555
Co5 O5 1_555 1_555
Co5_3 N8 1_555 1_555
N13 Co2 1_555 1_555
N15 Co2 1_555 1_555
N3 C10 1_555 1_555
C2 C5 1_555 1_555
C16 C17 1_555 1_555
N8 C19 1_555 1_555
N2 Co2_2 1_555 1_555
O3 C14 1_555 1_555
N4 N6 1_555 1_555
N6 C13 1_555 1_555
C6 H3 1_555 1_555
C7 N4 1_555 1_555
C12 C7 1_555 1_555
C13 N2 1_555 1_555
H8 C13 1_555 1_555
C14 C12 1_555 1_555
O7 C24 1_555 1_555
N11 N12 1_555 1_555
N12 C23 1_555 1_555
C20 C6 1_555 1_555
C22 C9 1_555 1_555
C23 N10 1_555 1_555
H13 C23 1_555 1_555
C24 C22 1_555 1_555
Co3_4 N10 1_555 1_555
O9 Co2_2 1_555 1_555
C6 C7 1_555 1_555
C9 C12 1_555 1_555
N11 C20 1_555 1_555
C20 C22 1_555 1_555
N2_2 Co3 1_555 1_555
O3_2 C14_2 1_555 1_555
N4_2 N6_2 1_555 1_555
N6_2 C13_2 1_555 1_555
C6_2 H3_2 1_555 1_555
C7_2 N4_2 1_555 1_555
C12_2 C7_2 1_555 1_555
C13_2 N2_2 1_555 1_555
H8_2 C13_2 1_555 1_555
C14_2 C12_2 1_555 1_555
O7_2 C24_2 1_555 1_555
N11_2 N12_2 1_555 1_555
N12_2 C23_2 1_555 1_555
C20_2 C6_2 1_555 1_555
C22_2 C9_2 1_555 1_555
C23_2 N13 1_555 1_555
H13_2 C23_2 1_555 1_555
C24_2 C22_2 1_555 1_555
O9_2 Co3 1_555 1_555
C6_2 C7_2 1_555 1_555
C9_2 C12_2 1_555 1_555
N11_2 C20_2 1_555 1_555
C20_2 C22_2 1_555 1_555
N14 Co3_2 1_555 1_555
C3_2 H1_2 1_555 1_555
H4_2 C8_2 1_555 1_555
H6_2 C10_2 1_555 1_555
H7_2 C11_2 1_555 1_555
H9_2 O4_2 1_555 1_555
O5_2 C15_2 1_555 1_555
O6_2 C15_2 1_555 1_555
C15_2 C16_2 1_555 1_555
C16_2 C3_2 1_555 1_555
C17_2 C11_2 1_555 1_555
N7_2 C17_2 1_555 1_555
N8_2 C18_2 1_555 1_555
N9_2 N7_2 1_555 1_555
C18_2 N9_2 1_555 1_555
H10_2 C18_2 1_555 1_555
H12_2 C21_2 1_555 1_555
H14_2 O8_2 1_555 1_555
Co4_7 O5_2 1_555 1_555
Co4_3 N8_2 1_555 1_555
N15_2 Co3_3 1_555 1_555
C16_2 C17_2 1_555 1_555
Co3_4 O1_2 1_555 1_555
O1_2 C1_2 1_555 1_555
O2_2 C1_2 1_555 1_555
N1_2 N5_2 1_555 1_555
N14 C4_2 1_555 1_555
N5_2 C4_2 1_555 1_555
C1_2 C2_2 1_555 1_555
C2_2 C3_3 1_555 1_555
C3_3 H1_3 1_555 1_555
C4_2 H2_2 1_555 1_555
C5_2 N1_2 1_555 1_555
C11_3 C5_2 1_555 1_555
H7_3 C11_3 1_555 1_555
H11_2 C19_2 1_555 1_555
C2_2 C5_2 1_555 1_555
H4_3 C8_3 1_555 1_555
H9_3 O4_3 1_555 1_555
H12_3 C21_3 1_555 1_555
H14_3 O8_3 1_555 1_555
N13_2 Co5_2 1_555 1_555
N15_3 Co5_2 1_555 1_555
N2_3 Co5_3 1_555 1_555
O3_3 C14_3 1_555 1_555
N4_3 N6_3 1_555 1_555
N6_3 C13_3 1_555 1_555
C6_3 H3_3 1_555 1_555
C7_3 N4_3 1_555 1_555
C12_3 C7_3 1_555 1_555
C13_3 N2_3 1_555 1_555
C14_3 C12_3 1_555 1_555
O7_3 C24_3 1_555 1_555
N11_3 N12_3 1_555 1_555
N12_3 C23_3 1_555 1_555
C20_3 C6_3 1_555 1_555
C22_3 C9_3 1_555 1_555
C23_3 N10_2 1_555 1_555
C24_3 C22_3 1_555 1_555
Co4_5 N10_2 1_555 1_555
C6_3 C7_3 1_555 1_555
C9_3 C12_3 1_555 1_555
N11_3 C20_3 1_555 1_555
C20_3 C22_3 1_555 1_555
O9_3 Co5_4 1_555 1_555
O9_4 Co4_2 1_555 1_555
N2_4 Co4_4 1_555 1_555
O3_4 C14_4 1_555 1_555
N4_4 N6_4 1_555 1_555
N6_4 C13_4 1_555 1_555
C6_4 H3_4 1_555 1_555
C7_4 N4_4 1_555 1_555
C12_4 C7_4 1_555 1_555
C13_4 N2_4 1_555 1_555
C14_4 C12_4 1_555 1_555
O7_4 C24_4 1_555 1_555
N11_4 N12_4 1_555 1_555
N12_4 C23_4 1_555 1_555
C20_4 C6_4 1_555 1_555
C22_4 C9_4 1_555 1_555
C23_4 N13_2 1_555 1_555
C24_4 C22_4 1_555 1_555
C6_4 C7_4 1_555 1_555
C9_4 C12_4 1_555 1_555
N11_4 C20_4 1_555 1_555
C20_4 C22_4 1_555 1_555
N15_4 Co4_6 1_555 1_555
H4_4 C8_4 1_555 1_555
H9_4 O4_4 1_555 1_555
H12_4 C21_4 1_555 1_555
H14_4 O8_4 1_555 1_555
O9 C1_3 1_555 1_555
O2_3 C1_3 1_555 1_555
N1_3 N5_3 1_555 1_555
N15 C4_3 1_555 1_555
N5_3 C4_3 1_555 1_555
C1_3 C2_3 1_555 1_555
C2_3 C3_4 1_555 1_555
C3_4 H1_4 1_555 1_555
C4_3 H2_3 1_555 1_555
C5_3 N1_3 1_555 1_555
C10_3 N1_3 1_555 1_555
H6_3 C10_3 1_555 1_555
C11_4 C5_3 1_555 1_555
H7_4 C11_4 1_555 1_555
O9_3 C15_3 1_555 1_555
O6_3 C15_3 1_555 1_555
C15_3 C16_3 1_555 1_555
C16_3 C3_4 1_555 1_555
C17_3 C11_4 1_555 1_555
N7_3 C17_3 1_555 1_555
N15_3 C18_3 1_555 1_555
N9_3 N7_3 1_555 1_555
C18_3 N9_3 1_555 1_555
H10_3 C18_3 1_555 1_555
C19_3 N7_3 1_555 1_555
H11_3 C19_3 1_555 1_555
N15 C10_3 1_555 1_555
C2_3 C5_3 1_555 1_555
C16_3 C17_3 1_555 1_555
N15_3 C19_3 1_555 1_555
O9_2 C1_4 1_555 1_555
O2_4 C1_4 1_555 1_555
N1_4 N5_4 1_555 1_555
N15_2 C4_4 1_555 1_555
N5_4 C4_4 1_555 1_555
C1_4 C2_4 1_555 1_555
C2_4 C3_5 1_555 1_555
C3_5 H1_5 1_555 1_555
C4_4 H2_4 1_555 1_555
C5_4 N1_4 1_555 1_555
C11_5 C5_4 1_555 1_555
H7_5 C11_5 1_555 1_555
H11_4 C19_4 1_555 1_555
C2_4 C5_4 1_555 1_555
C3_6 H1_6 1_555 1_555
H6_4 C10_4 1_555 1_555
H7_6 C11_6 1_555 1_555
O9_4 C15_4 1_555 1_555
O6_4 C15_4 1_555 1_555
C15_4 C16_4 1_555 1_555
C16_4 C3_6 1_555 1_555
C17_4 C11_6 1_555 1_555
N7_4 C17_4 1_555 1_555
N15_4 C18_4 1_555 1_555
N9_4 N7_4 1_555 1_555
C18_4 N9_4 1_555 1_555
H10_4 C18_4 1_555 1_555
C16_4 C17_4 1_555 1_555

#END
