
###############################################################################
#
# This file contains modified crystal structure data generated from the
# MOF subset of the Cambridge Structural Database (CSD) v543 
# hosted by the Cambridge Crystallographic Data Centre (CCDC).
#
# This work is licensed under the Creative Commons
# Attribution-NonCommercial-ShareAlike 4.0 International License.
# To view a copy of this license, visit
# http://creativecommons.org/licenses/by-nc-sa/4.0/
# or send a letter to
# Creative Commons, PO Box 1866, Mountain View, CA 94042, USA.
#
# CIF created using the CSD Python API on 29 September 2022
# The structure has been converted into the P1 space group
# The structure has a 3D framework
# The original CSD entry JOGHEV is in the monoclinic crystal system
# The framework has been calculated to contain at least 10.0% void space
# The void calculation uses a probe of radius 1.32A, grid spacing 0.4
# The framework is charged, counterions have been retained in the structure
#
###############################################################################

data_JOGHEV
_chemical_formula_moiety         '(C48 Cl16 Er3 O32 6-)n'
_symmetry_cell_setting           triclinic
_symmetry_space_group_name_H-M   'P 1'
_symmetry_Int_Tables_number      1
_space_group_name_Hall           'P 1'
loop_
_symmetry_equiv_pos_site_id
_symmetry_equiv_pos_as_xyz
1 x,y,z
_cell_length_a                   14.7203(2)
_cell_length_b                   23.7156(2)
_cell_length_c                   10.32950(10)
_cell_angle_alpha                90
_cell_angle_beta                 116.0680(10)
_cell_angle_gamma                90
_cell_volume                     3239.21
loop_
_atom_site_label
_atom_site_type_symbol
_atom_site_fract_x
_atom_site_fract_y
_atom_site_fract_z
Er3 Er 0.000000 0.85788(2) 0.750000
Cl2 Cl 0.25780(3) 0.70781(2) 0.71273(3)
O2 O 0.11034(7) 0.78903(4) 0.74428(9)
C2 C 0.17817(8) 0.76858(5) 0.85944(11)
C3 C 0.25214(9) 0.73044(5) 0.86756(12)
O8 O 0.10673(7) 0.82327(4) 0.98081(9)
C12 C 0.17573(8) 0.78905(5) 0.99822(11)
O3 O 0.09133(6) 0.93732(4) 0.87569(10)
C5 C 0.05190(8) 0.96926(4) 0.93353(12)
Cl3 Cl 0.18625(3) 0.94844(2) 0.46092(5)
O5 O 0.06734(6) 0.89631(3) 0.60491(9)
C7 C 0.03964(8) 0.94477(4) 0.55171(12)
C9 C 0.08519(9) 0.97627(5) 0.48245(14)
Er1 Er 0.500000 0.64212(2) 0.250000
Cl2_2 Cl 0.74220(3) 0.70781(2) 0.78727(3)
O1 O 0.56734(6) 0.60369(3) 0.10491(9)
O2_2 O 0.88966(7) 0.78903(4) 0.75572(9)
O4 O 0.60673(7) 0.67673(4) 0.48081(9)
C1 C 0.53964(8) 0.55523(4) 0.05171(12)
C2_2 C 0.82183(8) 0.76858(5) 0.64056(11)
C3_2 C 0.74786(9) 0.73044(5) 0.63244(12)
C4 C 0.67573(8) 0.71095(5) 0.49822(11)
Cl3_2 Cl 0.31375(3) 0.44844(2) 0.03908(5)
O6 O 0.40867(6) 0.56268(4) 0.12431(10)
C8 C 0.44810(8) 0.53074(4) 0.06647(12)
C9_2 C 0.41481(9) 0.47627(5) 0.01755(14)
Cl4 Cl 0.75780(3) 0.79219(2) 0.21273(3)
O7 O 0.61034(7) 0.71097(4) 0.24428(9)
O8_2 O 0.89327(7) 0.82327(4) 0.51919(9)
C10 C 0.67817(8) 0.73142(5) 0.35944(11)
C11 C 0.75214(9) 0.76956(5) 0.36756(12)
C12_2 C 0.82427(8) 0.78905(5) 0.50178(11)
Er3_2 Er 1.000000 0.85788(2) 0.750000
O9 O 0.43266(6) 0.60369(3) 0.39509(9)
O10 O 0.38966(7) 0.71097(4) 0.25572(9)
O11 O 0.59133(6) 0.56268(4) 0.37569(10)
O12 O 0.39327(7) 0.67673(4) 0.01919(9)
Cl1 Cl 0.68625(3) 0.55156(2) 0.96092(5)
O3_2 O 0.59133(6) 0.43732(4) 0.87569(10)
C5_2 C 0.55190(8) 0.46926(4) 0.93353(12)
C6 C 0.58519(9) 0.52373(5) 0.98245(14)
O5_2 O 0.43266(6) 0.39631(3) 0.89509(9)
C7_2 C 0.46036(8) 0.44477(4) 0.94829(12)
Er2 Er 0.500000 0.35788(2) 0.750000
Cl1_2 Cl 0.31375(3) 0.55156(2) 0.53908(5)
O3_3 O 0.40867(6) 0.43732(4) 0.62431(10)
C1_2 C 0.46036(8) 0.55523(4) 0.44829(12)
C4_2 C 0.32427(8) 0.71095(5) 0.00178(11)
C5_3 C 0.44810(8) 0.46926(4) 0.56647(12)
C6_2 C 0.41481(9) 0.52373(5) 0.51755(14)
Cl3_3 Cl 0.68625(3) 0.44844(2) 0.46092(5)
O5_3 O 0.56734(6) 0.39631(3) 0.60491(9)
C7_3 C 0.53964(8) 0.44477(4) 0.55171(12)
C8_2 C 0.55190(8) 0.53074(4) 0.43353(12)
C9_3 C 0.58519(9) 0.47627(5) 0.48245(14)
Cl4_2 Cl 0.24220(3) 0.79219(2) 0.28727(3)
C10_2 C 0.32183(8) 0.73142(5) 0.14056(11)
C11_2 C 0.24786(9) 0.76956(5) 0.13244(12)
Er1_2 Er 0.000000 0.14212(2) 0.250000
Cl2_3 Cl 0.24220(3) 0.20781(2) 0.78727(3)
O1_2 O 0.06734(6) 0.10369(3) 0.10491(9)
O2_3 O 0.38966(7) 0.28903(4) 0.75572(9)
O4_2 O 0.10673(7) 0.17673(4) 0.48081(9)
C1_3 C 0.03964(8) 0.05523(4) 0.05171(12)
C2_3 C 0.32183(8) 0.26858(5) 0.64056(11)
C3_3 C 0.24786(9) 0.23044(5) 0.63244(12)
C4_3 C 0.17573(8) 0.21095(5) 0.49822(11)
Cl4_3 Cl 0.25780(3) 0.29219(2) 0.21273(3)
O7_2 O 0.11034(7) 0.21097(4) 0.24428(9)
O8_3 O 0.39327(7) 0.32327(4) 0.51919(9)
C10_3 C 0.17817(8) 0.23142(5) 0.35944(11)
C11_3 C 0.25214(9) 0.26956(5) 0.36756(12)
C12_3 C 0.32427(8) 0.28905(5) 0.50178(11)
O11_2 O 0.09133(6) 0.06268(4) 0.37569(10)
O5_4 O 0.93266(6) 0.89631(3) 0.89509(9)
C7_4 C 0.96036(8) 0.94477(4) 0.94829(12)
C8_3 C 0.05190(8) 0.03074(4) 0.43353(12)
Cl2_4 Cl 0.75780(3) 0.20781(2) 0.71273(3)
O2_4 O 0.61034(7) 0.28903(4) 0.74428(9)
C2_4 C 0.67817(8) 0.26858(5) 0.85944(11)
C3_4 C 0.75214(9) 0.23044(5) 0.86756(12)
O8_4 O 0.60673(7) 0.32327(4) 0.98081(9)
C12_4 C 0.67573(8) 0.28905(5) 0.99822(11)
O3_4 O 0.90867(6) 0.93732(4) 0.62431(10)
C5_4 C 0.94810(8) 0.96926(4) 0.56647(12)
Cl1_3 Cl 0.18625(3) 0.05156(2) 0.96092(5)
C6_3 C 0.08519(9) 0.02373(5) 0.98245(14)
Er1_3 Er 1.000000 0.14212(2) 0.250000
O6_2 O 0.90867(6) 0.06268(4) 0.12431(10)
C8_4 C 0.94810(8) 0.03074(4) 0.06647(12)
O9_2 O 0.93266(6) 0.10369(3) 0.39509(9)
O10_2 O 0.88966(7) 0.21097(4) 0.25572(9)
O12_2 O 0.89327(7) 0.17673(4) 0.01919(9)
Cl1_4 Cl 0.81375(3) 0.05156(2) 0.53908(5)
C1_4 C 0.96036(8) 0.05523(4) 0.44829(12)
C4_4 C 0.82427(8) 0.21095(5) 0.00178(11)
C6_4 C 0.91481(9) 0.02373(5) 0.51755(14)
Cl4_4 Cl 0.74220(3) 0.29219(2) 0.28727(3)
C10_4 C 0.82183(8) 0.23142(5) 0.14056(11)
C11_4 C 0.74786(9) 0.26956(5) 0.13244(12)
Cl3_4 Cl 0.81375(3) 0.94844(2) 0.03908(5)
C9_4 C 0.91481(9) 0.97627(5) 0.01755(14)
loop_
_geom_bond_atom_site_label_1
_geom_bond_atom_site_label_2
_geom_bond_site_symmetry_1
_geom_bond_site_symmetry_2
Cl2 C3 1_555 1_555
O2 C2 1_555 1_555
C2 C3 1_555 1_555
O8 C12 1_555 1_555
C12 C2 1_555 1_555
Er3 O2 1_555 1_555
O8 Er3 1_555 1_555
O3 C5 1_555 1_555
Er3 O3 1_555 1_555
Cl3 C9 1_555 1_555
O5 C7 1_555 1_555
C9 C7 1_555 1_555
O5 Er3 1_555 1_555
Er1 O1 1_555 1_555
Cl2_2 C3_2 1_555 1_555
O1 C1 1_555 1_555
O2_2 C2_2 1_555 1_555
O4 Er1 1_555 1_555
C2_2 C3_2 1_555 1_555
C3_2 C4 1_555 1_555
C4 O4 1_555 1_555
Cl3_2 C9_2 1_555 1_555
O6 Er1 1_555 1_555
C8 C1 1_555 1_555
Cl4 C11 1_555 1_555
O7 Er1 1_555 1_555
O8_2 C12_2 1_555 1_555
C10 C4 1_555 1_555
C11 C10 1_555 1_555
C12_2 C2_2 1_555 1_555
Er3_2 O2_2 1_555 1_555
O9 Er1 1_555 1_555
O10 Er1 1_555 1_555
O11 Er1 1_555 1_555
O12 Er1 1_555 1_555
O6 C8 1_555 1_555
C8 C9_2 1_555 1_555
O7 C10 1_555 1_555
O8_2 Er3_2 1_555 1_555
C11 C12_2 1_555 1_555
Cl1 C6 1_555 1_555
O3_2 C5_2 1_555 1_555
C5_2 C6 1_555 1_555
O5_2 C7_2 1_555 1_555
C7_2 C5_2 1_555 1_555
Er2 O3_2 1_555 1_555
O5_2 Er2 1_555 1_555
Cl1_2 C6_2 1_555 1_555
O9 C1_2 1_555 1_555
O3_3 C5_3 1_555 1_555
C1_2 C6_2 1_555 1_555
C4_2 O12 1_555 1_555
C5_3 C6_2 1_555 1_555
Cl3_3 C9_3 1_555 1_555
O5_3 C7_3 1_555 1_555
C7_3 C5_3 1_555 1_555
C8_2 C1_2 1_555 1_555
C9_3 C7_3 1_555 1_555
Cl4_2 C11_2 1_555 1_555
C10_2 C4_2 1_555 1_555
C11_2 C10_2 1_555 1_555
Er2 O3_3 1_555 1_555
O5_3 Er2 1_555 1_555
O11 C8_2 1_555 1_555
C8_2 C9_3 1_555 1_555
O10 C10_2 1_555 1_555
Er1_2 O1_2 1_555 1_555
Cl2_3 C3_3 1_555 1_555
O1_2 C1_3 1_555 1_555
O2_3 C2_3 1_555 1_555
O4_2 Er1_2 1_555 1_555
C2_3 C3_3 1_555 1_555
C3_3 C4_3 1_555 1_555
C4_3 O4_2 1_555 1_555
Cl4_3 C11_3 1_555 1_555
O7_2 Er1_2 1_555 1_555
O8_3 C12_3 1_555 1_555
C10_3 C4_3 1_555 1_555
C11_3 C10_3 1_555 1_555
C12_3 C2_3 1_555 1_555
Er2 O2_3 1_555 1_555
O11_2 Er1_2 1_555 1_555
O7_2 C10_3 1_555 1_555
O8_3 Er2 1_555 1_555
C11_3 C12_3 1_555 1_555
O5_4 C7_4 1_555 1_555
O5_4 Er3_2 1_555 1_555
O11_2 C8_3 1_555 1_555
Cl2_4 C3_4 1_555 1_555
O2_4 C2_4 1_555 1_555
C2_4 C3_4 1_555 1_555
O8_4 C12_4 1_555 1_555
C12_4 C2_4 1_555 1_555
Er2 O2_4 1_555 1_555
O8_4 Er2 1_555 1_555
O3_4 C5_4 1_555 1_555
Er3_2 O3_4 1_555 1_555
Cl1_3 C6_3 1_555 1_555
O6_2 Er1_3 1_555 1_555
O9_2 Er1_3 1_555 1_555
O10_2 Er1_3 1_555 1_555
O12_2 Er1_3 1_555 1_555
O6_2 C8_4 1_555 1_555
Cl1_4 C6_4 1_555 1_555
O9_2 C1_4 1_555 1_555
C1_4 C6_4 1_555 1_555
C4_4 O12_2 1_555 1_555
Cl4_4 C11_4 1_555 1_555
C10_4 C4_4 1_555 1_555
C11_4 C10_4 1_555 1_555
O10_2 C10_4 1_555 1_555
Cl3_4 C9_4 1_555 1_555

#END
