
###############################################################################
#
# This file contains modified crystal structure data generated from the
# MOF subset of the Cambridge Structural Database (CSD) v543 
# hosted by the Cambridge Crystallographic Data Centre (CCDC).
#
# This work is licensed under the Creative Commons
# Attribution-NonCommercial-ShareAlike 4.0 International License.
# To view a copy of this license, visit
# http://creativecommons.org/licenses/by-nc-sa/4.0/
# or send a letter to
# Creative Commons, PO Box 1866, Mountain View, CA 94042, USA.
#
# CIF created using the CSD Python API on 29 September 2022
# The structure has been converted into the P1 space group
# The structure has a 3D framework
# The original CSD entry JOGHIZ is in the triclinic crystal system
# The framework has been calculated to contain at least 10.0% void space
# The void calculation uses a probe of radius 1.32A, grid spacing 0.4
# The framework is charged, counterions have been retained in the structure
#
###############################################################################

data_JOGHIZ
_chemical_formula_moiety         '(C60 H36 Ce2 Cl8 N2 O18)n'
_symmetry_cell_setting           triclinic
_symmetry_space_group_name_H-M   'P 1'
_symmetry_Int_Tables_number      1
_space_group_name_Hall           'P 1'
loop_
_symmetry_equiv_pos_site_id
_symmetry_equiv_pos_as_xyz
1 x,y,z
_cell_length_a                   10.98110(10)
_cell_length_b                   12.47830(10)
_cell_length_c                   14.02530(10)
_cell_angle_alpha                102.3490(10)
_cell_angle_beta                 107.0440(10)
_cell_angle_gamma                97.1940(10)
_cell_volume                     1758.2
loop_
_atom_site_label
_atom_site_type_symbol
_atom_site_fract_x
_atom_site_fract_y
_atom_site_fract_z
O7 O 0.0696(2) 0.20253(18) 0.63759(18)
C2 C 0.0302(3) 0.1089(3) 0.5737(3)
O17 O 0.2302(2) 0.1351(2) 0.5422(2)
C24 C 0.1254(3) 0.0669(3) 0.5203(3)
Ce5 Ce 0.28531(2) 0.32448(2) 0.66668(2)
O2 O 0.1210(2) 0.44339(17) 0.67312(15)
C5 C 0.0589(3) 0.4716(2) 0.5946(2)
Cl5 Cl 0.05771(8) 0.39750(6) 0.29342(6)
O10 O 0.1462(2) 0.34237(18) 0.49652(16)
C13 C 0.0801(3) 0.4176(2) 0.4933(2)
C15 C 0.0253(3) 0.4535(3) 0.4057(2)
Cl8 Cl 0.20700(7) 0.91345(7) 0.40167(7)
C23 C 0.0924(3) 0.9608(3) 0.4531(3)
Cl4 Cl 0.79300(7) 0.08655(7) 0.59833(7)
C8 C 0.9076(3) 0.0392(3) 0.5469(3)
Ce1 Ce 0.71469(2) 0.67552(2) 0.33332(2)
Cl1 Cl 0.94229(8) 0.60250(6) 0.70658(6)
Cl3 Cl 0.36970(8) 0.70998(6) 0.54770(7)
O1 O 0.8538(2) 0.65763(18) 0.50348(16)
O3 O 0.3615(2) 0.50726(18) 0.62930(17)
O4 O 0.5457(2) 0.67430(17) 0.41981(17)
O6 O 0.7170(2) 0.6217(2) 0.15260(17)
O8 O 0.7698(2) 0.8649(2) 0.4578(2)
O9 O 0.6149(3) 0.8251(3) 0.2514(3)
H1 H 0.588715 0.803839 0.180705
H2 H 0.675223 0.889028 0.266316
C1 C 0.9199(3) 0.5824(2) 0.5067(2)
C3 C 0.5183(3) 0.5952(2) 0.4586(2)
C6 C 0.4231(3) 0.5081(2) 0.5674(2)
C7 C 0.4414(3) 0.5959(2) 0.5215(2)
C9 C 0.9747(3) 0.5465(3) 0.5943(2)
C11 C 0.6199(3) 0.5648(3) 0.0776(2)
C12 C 0.8746(3) 0.9331(3) 0.4797(3)
O11 O 0.8790(2) 0.55661(17) 0.32688(15)
C14 C 0.9411(3) 0.5284(2) 0.4054(2)
Cl6 Cl 0.23748(7) 0.45093(7) 0.05018(6)
O12 O 0.5008(2) 0.57945(19) 0.19409(17)
C16 C 0.4932(3) 0.5395(3) 0.1017(2)
C17 C 0.3812(3) 0.4767(3) 0.0233(2)
Cl7 Cl 0.63030(8) 0.29002(6) 0.45230(7)
O14 O 0.6385(2) 0.49274(18) 0.37070(17)
O15 O 0.4543(2) 0.32570(17) 0.58019(17)
C19 C 0.4817(3) 0.4048(2) 0.5414(2)
C20 C 0.5769(3) 0.4919(2) 0.4326(2)
C21 C 0.5586(3) 0.4041(2) 0.4785(2)
O16 O 0.9304(2) 0.79747(18) 0.36241(18)
C22 C 0.9698(3) 0.8911(3) 0.4263(3)
Cl2 Cl 0.76252(7) 0.54907(7) 0.94982(6)
O5 O 0.4992(2) 0.42055(19) 0.80591(17)
C4 C 0.5068(3) 0.4605(3) 0.8983(2)
C10 C 0.6188(3) 0.5233(3) 0.9767(2)
O13 O 0.2830(2) 0.3783(2) 0.84740(17)
C18 C 0.3801(3) 0.4352(3) 0.9224(2)
O18 O 0.3851(3) 0.1749(3) 0.7486(3)
H3 H 0.411285 0.196161 0.819295
H4 H 0.324777 0.110972 0.733684
H6 H 0.004939 0.391823 0.778289
H14 H 0.072888 0.259845 0.861007
C33 C 0.6229(4) 0.2929(3) 0.1456(3)
H11 H 0.609780 0.328350 0.206173
C35 C 0.7472(4) 0.2830(3) 0.0314(3)
H13 H 0.818803 0.312848 0.016014
H15 H 0.798414 0.032083 0.010954
C38 C 0.7270(4) 0.3345(3) 0.1213(3)
H16 H 0.785470 0.398584 0.165874
C39 C 0.5362(4) 0.1965(4) 0.0786(4)
H17 H 0.464654 0.167171 0.094311
N1 N 0.7716(3) 0.2003(2) 0.8343(2)
C25 C 0.7283(3) 0.2762(3) 0.7847(3)
H5 H 0.640926 0.280580 0.766766
C26 C 0.9451(4) 0.3424(3) 0.7915(3)
C27 C 0.6621(3) 0.1878(3) 0.9643(3)
C28 C 0.8147(4) 0.3482(3) 0.7601(3)
H7 H 0.785526 0.399162 0.723480
C29 C 0.7075(3) 0.0112(3) 0.8577(3)
C30 C 0.8988(3) 0.1946(3) 0.8629(3)
H8 H 0.927106 0.141946 0.897706
C31 C 0.6745(3) 0.1273(3) 0.8621(3)
H9 H 0.589878 0.116938 0.808745
C34 C 0.5566(4) 0.1442(3) 0.9881(3)
H12 H 0.498822 0.079702 0.943631
C36 C 0.9857(4) 0.2648(3) 0.8415(3)
C32 C 0.6687(4) 0.9327(3) 0.7617(3)
H10 H 0.624178 0.951596 0.702156
C37 C 0.7728(4) 0.9810(3) 0.9464(3)
C40 C 0.6963(4) 0.8277(4) 0.7552(4)
H18 H 0.671117 0.776159 0.690866
C41 C 0.7993(4) 0.8730(4) 0.9371(4)
H19 H 0.843470 0.852199 0.995604
C42 C 0.7596(4) 0.7978(4) 0.8410(4)
H20 H 0.776448 0.725882 0.834990
C32_2 C 0.3313(4) 0.0673(3) 0.2383(3)
H10_2 H 0.375822 0.048404 0.297844
C37_2 C 0.2272(4) 0.0190(3) 0.0536(3)
C40_2 C 0.3037(4) 0.1723(4) 0.2448(4)
H18_2 H 0.328883 0.223841 0.309134
C41_2 C 0.2007(4) 0.1270(4) 0.0629(4)
H19_2 H 0.156530 0.147801 0.004396
C42_2 C 0.2404(4) 0.2022(4) 0.1590(4)
H20_2 H 0.223552 0.274118 0.165010
N1_2 N 0.2284(3) 0.7997(2) 0.1657(2)
C25_2 C 0.2717(3) 0.7238(3) 0.2153(3)
H5_2 H 0.359074 0.719420 0.233234
C26_2 C 0.0549(4) 0.6576(3) 0.2085(3)
C27_2 C 0.3379(3) 0.8122(3) 0.0357(3)
C28_2 C 0.1853(4) 0.6518(3) 0.2399(3)
H7_2 H 0.214474 0.600838 0.276520
C29_2 C 0.2925(3) 0.9888(3) 0.1423(3)
C30_2 C 0.1012(3) 0.8054(3) 0.1371(3)
H8_2 H 0.072894 0.858054 0.102294
C31_2 C 0.3255(3) 0.8727(3) 0.1379(3)
H9_2 H 0.410122 0.883062 0.191255
C34_2 C 0.4434(4) 0.8558(3) 0.0119(3)
H12_2 H 0.501178 0.920298 0.056369
C36_2 C 0.0143(4) 0.7352(3) 0.1585(3)
C33_2 C 0.3771(4) 0.7071(3) 0.8544(3)
H11_2 H 0.390220 0.671650 0.793827
C35_2 C 0.2528(4) 0.7170(3) 0.9686(3)
H13_2 H 0.181197 0.687152 0.983986
H15_2 H 0.201586 0.967917 0.989046
C38_2 C 0.2730(4) 0.6655(3) 0.8787(3)
H16_2 H 0.214530 0.601416 0.834126
C39_2 C 0.4638(4) 0.8035(4) 0.9214(4)
H17_2 H 0.535346 0.832829 0.905689
H6_2 H 0.995061 0.608177 0.221711
H14_2 H 0.927112 0.740155 0.138993
loop_
_geom_bond_atom_site_label_1
_geom_bond_atom_site_label_2
_geom_bond_site_symmetry_1
_geom_bond_site_symmetry_2
O7 C2 1_555 1_555
O17 C24 1_555 1_555
C24 C2 1_555 1_555
Ce5 O7 1_555 1_555
O17 Ce5 1_555 1_555
O2 C5 1_555 1_555
Cl5 C15 1_555 1_555
O10 C13 1_555 1_555
C13 C5 1_555 1_555
C15 C13 1_555 1_555
Cl8 C23 1_555 1_555
Ce5 O2 1_555 1_555
O10 Ce5 1_555 1_555
Cl4 C8 1_555 1_555
Ce1 O1 1_555 1_555
Cl1 C9 1_555 1_555
Cl3 C7 1_555 1_555
O1 C1 1_555 1_555
O3 C6 1_555 1_555
O4 Ce1 1_555 1_555
O6 Ce1 1_555 1_555
O8 Ce1 1_555 1_555
O9 Ce1 1_555 1_555
H1 O9 1_555 1_555
H2 O9 1_555 1_555
C1 C9 1_555 1_555
C3 O4 1_555 1_555
C6 C7 1_555 1_555
C7 C3 1_555 1_555
C11 O6 1_555 1_555
C12 O8 1_555 1_555
O11 Ce1 1_555 1_555
C14 C1 1_555 1_555
Cl6 C17 1_555 1_555
O12 Ce1 1_555 1_555
C16 C11 1_555 1_555
C17 C16 1_555 1_555
Cl7 C21 1_555 1_555
O14 Ce1 1_555 1_555
O15 C19 1_555 1_555
C19 C6 1_555 1_555
C20 C3 1_555 1_555
C21 C19 1_555 1_555
O16 Ce1 1_555 1_555
C22 C12 1_555 1_555
Ce5 O3 1_555 1_555
O11 C14 1_555 1_555
O12 C16 1_555 1_555
O14 C20 1_555 1_555
O15 Ce5 1_555 1_555
C20 C21 1_555 1_555
O16 C22 1_555 1_555
Cl2 C10 1_555 1_555
O5 C4 1_555 1_555
C4 C10 1_555 1_555
O13 C18 1_555 1_555
C18 C4 1_555 1_555
Ce5 O5 1_555 1_555
O18 Ce5 1_555 1_555
H3 O18 1_555 1_555
H4 O18 1_555 1_555
O13 Ce5 1_555 1_555
C33 H11 1_555 1_555
H13 C35 1_555 1_555
C38 C33 1_555 1_555
H16 C38 1_555 1_555
C39 C33 1_555 1_555
H17 C39 1_555 1_555
C35 C38 1_555 1_555
N1 C25 1_555 1_555
C25 H5 1_555 1_555
C27 C31 1_555 1_555
C28 C25 1_555 1_555
H7 C28 1_555 1_555
C29 C31 1_555 1_555
C30 N1 1_555 1_555
H8 C30 1_555 1_555
C31 N1 1_555 1_555
H9 C31 1_555 1_555
C34 C27 1_555 1_555
H12 C34 1_555 1_555
C36 C26 1_555 1_555
C26 C28 1_555 1_555
C30 C36 1_555 1_555
H10 C32 1_555 1_555
C40 C32 1_555 1_555
H18 C40 1_555 1_555
C41 C37 1_555 1_555
H19 C41 1_555 1_555
C42 C40 1_555 1_555
H20 C42 1_555 1_555
C41 C42 1_555 1_555
H10_2 C32_2 1_555 1_555
C40_2 C32_2 1_555 1_555
H18_2 C40_2 1_555 1_555
C41_2 C37_2 1_555 1_555
H19_2 C41_2 1_555 1_555
C42_2 C40_2 1_555 1_555
H20_2 C42_2 1_555 1_555
C41_2 C42_2 1_555 1_555
N1_2 C25_2 1_555 1_555
C25_2 H5_2 1_555 1_555
C27_2 C31_2 1_555 1_555
C28_2 C25_2 1_555 1_555
H7_2 C28_2 1_555 1_555
C29_2 C31_2 1_555 1_555
C30_2 N1_2 1_555 1_555
H8_2 C30_2 1_555 1_555
C31_2 N1_2 1_555 1_555
H9_2 C31_2 1_555 1_555
C34_2 C27_2 1_555 1_555
H12_2 C34_2 1_555 1_555
C36_2 C26_2 1_555 1_555
C26_2 C28_2 1_555 1_555
C30_2 C36_2 1_555 1_555
C33_2 H11_2 1_555 1_555
H13_2 C35_2 1_555 1_555
C38_2 C33_2 1_555 1_555
H16_2 C38_2 1_555 1_555
C39_2 C33_2 1_555 1_555
H17_2 C39_2 1_555 1_555
C35_2 C38_2 1_555 1_555

#END
