
###############################################################################
#
# This file contains modified crystal structure data generated from the
# MOF subset of the Cambridge Structural Database (CSD) v543 
# hosted by the Cambridge Crystallographic Data Centre (CCDC).
#
# This work is licensed under the Creative Commons
# Attribution-NonCommercial-ShareAlike 4.0 International License.
# To view a copy of this license, visit
# http://creativecommons.org/licenses/by-nc-sa/4.0/
# or send a letter to
# Creative Commons, PO Box 1866, Mountain View, CA 94042, USA.
#
# CIF created using the CSD Python API on 29 September 2022
# The structure has been converted into the P1 space group
# The structure has a 3D framework
# The original CSD entry JOKFAT is in the monoclinic crystal system
# The framework has been calculated to contain at least 10.0% void space
# The void calculation uses a probe of radius 1.32A, grid spacing 0.4
#
###############################################################################

data_JOKFAT
_chemical_formula_moiety         '(C88 H88 Cu8 N8 O32)n'
_symmetry_cell_setting           triclinic
_symmetry_space_group_name_H-M   'P 1'
_symmetry_Int_Tables_number      1
_space_group_name_Hall           'P 1'
loop_
_symmetry_equiv_pos_site_id
_symmetry_equiv_pos_as_xyz
1 x,y,z
_cell_length_a                   25.027(14)
_cell_length_b                   13.234(8)
_cell_length_c                   8.547(5)
_cell_angle_alpha                90
_cell_angle_beta                 91.708(5)
_cell_angle_gamma                90
_cell_volume                     2829.57
loop_
_atom_site_label
_atom_site_type_symbol
_atom_site_fract_x
_atom_site_fract_y
_atom_site_fract_z
Cu4 Cu 0.79427(2) 0.79458(2) 0.05515(4)
O9 O 0.67626(8) 0.72378(15) 0.1552(2)
O13 O 0.74398(8) 0.58129(12) 0.0123(2)
C1 C 0.20471(11) 0.26620(18) 0.2624(3)
C2 C 0.17885(12) 0.28968(19) 0.4163(3)
H1 H 0.1868 0.2356 0.4900
H2 H 0.1404 0.2924 0.3995
C3 C 0.19832(12) 0.39014(19) 0.4868(3)
H3 H 0.1802 0.4026 0.5837
H4 H 0.2364 0.3859 0.5108
C4 C 0.18745(13) 0.47807(19) 0.3735(3)
H5 H 0.2024 0.4613 0.2734
H6 H 0.1491 0.4848 0.3571
C5 C 0.20977(12) 0.5790(2) 0.4265(3)
C6 C 0.39839(13) 0.3179(2) 0.2535(4)
H7 H 0.3988 0.2481 0.2413
C7 C 0.43794(13) 0.3617(2) 0.3477(4)
H8 H 0.4641 0.3219 0.3965
C8 C 0.43801(12) 0.4664(2) 0.3685(3)
C9 C 0.39719(12) 0.5201(2) 0.2937(4)
H9 H 0.3952 0.5898 0.3050
C10 C 0.35950(12) 0.4697(2) 0.2024(4)
H10 H 0.3323 0.5073 0.1542
C11 C 0.47941(12) 0.5198(2) 0.4639(4)
H11 H 0.4755 0.5894 0.4730
Cu1 Cu 0.29427(2) 0.29458(2) 0.05515(4)
N1 N 0.35977(9) 0.36973(17) 0.1793(3)
O1 O 0.17626(8) 0.22378(15) 0.1552(2)
O2 O 0.25266(8) 0.29129(14) 0.2480(2)
O3 O 0.18095(8) 0.65555(13) 0.4002(2)
O4 O 0.25602(8) 0.58129(12) 0.4877(2)
C12 C 0.60161(13) 0.6821(2) 0.7465(4)
H12 H 0.6012 0.7519 0.7587
C13 C 0.56206(13) 0.6383(2) 0.6523(4)
H13 H 0.5359 0.6781 0.6035
C14 C 0.56199(12) 0.5336(2) 0.6315(3)
C15 C 0.60281(12) 0.4799(2) 0.7063(4)
H14 H 0.6048 0.4102 0.6950
C16 C 0.64050(12) 0.5303(2) 0.7976(4)
H15 H 0.6677 0.4927 0.8458
C17 C 0.52059(12) 0.4802(2) 0.5361(4)
H16 H 0.5245 0.4106 0.5270
N2 N 0.64023(9) 0.63027(17) 0.8207(3)
C18 C 0.79529(11) 0.73380(18) 0.7376(3)
C19 C 0.82115(12) 0.71032(19) 0.5837(3)
H17 H 0.8132 0.7644 0.5100
H18 H 0.8596 0.7076 0.6005
C20 C 0.80168(12) 0.60986(19) 0.5132(3)
H19 H 0.8198 0.5974 0.4163
H20 H 0.7636 0.6141 0.4892
C21 C 0.81255(13) 0.52193(19) 0.6265(3)
H21 H 0.7976 0.5387 0.7266
H22 H 0.8509 0.5152 0.6429
C22 C 0.79023(12) 0.4210(2) 0.5735(3)
Cu2 Cu 0.70573(2) 0.70542(2) 0.94485(4)
O5 O 0.82374(8) 0.77622(15) 0.8448(2)
O6 O 0.74734(8) 0.70871(14) 0.7520(2)
O7 O 0.81905(8) 0.34445(13) 0.5998(2)
O8 O 0.74398(8) 0.41871(12) 0.5123(2)
Cu3 Cu 0.70573(2) 0.29458(2) 0.44485(4)
Cu5 Cu 0.20573(2) 0.79458(2) 0.44485(4)
Cu6 Cu 0.29427(2) 0.70542(2) 0.55515(4)
Cu8 Cu 0.79427(2) 0.20542(2) 0.55515(4)
O11 O 0.31905(8) 0.15555(13) 0.0998(2)
O12 O 0.68095(8) 0.84445(13) 0.9002(2)
Cu7 Cu 0.20573(2) 0.20542(2) 0.94485(4)
O10 O 0.32374(8) 0.27622(15) 0.8448(2)
O14 O 0.25602(8) 0.41871(12) 0.9877(2)
C1_2 C 0.79529(11) 0.26620(18) 0.2376(3)
C2_2 C 0.82115(12) 0.28968(19) 0.0837(3)
H1_2 H 0.8132 0.2356 0.0100
H2_2 H 0.8596 0.2924 0.1005
C3_2 C 0.80168(12) 0.39014(19) 0.0132(3)
C4_2 C 0.81255(13) 0.47807(19) 0.1265(3)
H5_2 H 0.7976 0.4613 0.2266
H6_2 H 0.8509 0.4848 0.1429
C5_2 C 0.79023(12) 0.5790(2) 0.0735(3)
C6_2 C 0.60161(13) 0.3179(2) 0.2465(4)
H7_2 H 0.6012 0.2481 0.2587
C7_2 C 0.56206(13) 0.3617(2) 0.1523(4)
H8_2 H 0.5359 0.3219 0.1035
C8_2 C 0.56199(12) 0.4664(2) 0.1315(3)
C9_2 C 0.60281(12) 0.5201(2) 0.2063(4)
H9_2 H 0.6048 0.5898 0.1950
C10_2 C 0.64050(12) 0.4697(2) 0.2976(4)
H10_2 H 0.6677 0.5073 0.3458
C11_2 C 0.52059(12) 0.5198(2) 0.0361(4)
H11_2 H 0.5245 0.5894 0.0270
N1_2 N 0.64023(9) 0.36973(17) 0.3207(3)
O1_2 O 0.82374(8) 0.22378(15) 0.3448(2)
O2_2 O 0.74734(8) 0.29129(14) 0.2520(2)
O3_2 O 0.81905(8) 0.65555(13) 0.0998(2)
H19_2 H 0.1802 0.5974 0.0837
H20_2 H 0.2364 0.6141 0.0108
O10_2 O 0.67626(8) 0.27622(15) 0.6552(2)
O11_2 O 0.68095(8) 0.15555(13) 0.4002(2)
H3_2 H 0.8198 0.4026 0.9163
H4_2 H 0.7636 0.3859 0.9892
C12_2 C 0.39839(13) 0.6821(2) 0.7535(4)
H12_2 H 0.3988 0.7519 0.7413
C13_2 C 0.43794(13) 0.6383(2) 0.8477(4)
H13_2 H 0.4641 0.6781 0.8965
C14_2 C 0.43801(12) 0.5336(2) 0.8685(3)
C15_2 C 0.39719(12) 0.4799(2) 0.7937(4)
H14_2 H 0.3952 0.4102 0.8050
C16_2 C 0.35950(12) 0.5303(2) 0.7024(4)
H15_2 H 0.3323 0.4927 0.6542
C17_2 C 0.47941(12) 0.4802(2) 0.9639(4)
H16_2 H 0.4755 0.4106 0.9730
N2_2 N 0.35977(9) 0.63027(17) 0.6793(3)
C18_2 C 0.20471(11) 0.73380(18) 0.7624(3)
C19_2 C 0.17885(12) 0.71032(19) 0.9163(3)
H17_2 H 0.1868 0.7644 0.9900
H18_2 H 0.1404 0.7076 0.8995
C20_2 C 0.19832(12) 0.60986(19) 0.9868(3)
C21_2 C 0.18745(13) 0.52193(19) 0.8735(3)
H21_2 H 0.2024 0.5387 0.7734
H22_2 H 0.1491 0.5152 0.8571
C22_2 C 0.20977(12) 0.4210(2) 0.9265(3)
O5_2 O 0.17626(8) 0.77622(15) 0.6552(2)
O6_2 O 0.25266(8) 0.70871(14) 0.7480(2)
O7_2 O 0.18095(8) 0.34445(13) 0.9002(2)
O9_2 O 0.32374(8) 0.72378(15) 0.3448(2)
O12_2 O 0.31905(8) 0.84445(13) 0.5998(2)
O13_2 O 0.24398(8) 0.08129(12) 0.0123(2)
C12_3 C 0.10161(13) 0.1821(2) 0.7465(4)
H12_3 H 0.1012 0.2519 0.7587
C13_3 C 0.06206(13) 0.1383(2) 0.6523(4)
H13_3 H 0.0359 0.1781 0.6035
C14_3 C 0.06199(12) 0.0336(2) 0.6315(3)
C16_3 C 0.14050(12) 0.0303(2) 0.7976(4)
N2_3 N 0.14023(9) 0.13027(17) 0.8207(3)
C18_3 C 0.29529(11) 0.23380(18) 0.7376(3)
C19_3 C 0.32115(12) 0.21032(19) 0.5837(3)
H17_3 H 0.3132 0.2644 0.5100
H18_3 H 0.3596 0.2076 0.6005
C20_3 C 0.30168(12) 0.10986(19) 0.5132(3)
H19_3 H 0.3198 0.0974 0.4163
H20_3 H 0.2636 0.1141 0.4892
C21_3 C 0.31255(13) 0.02193(19) 0.6265(3)
H21_3 H 0.2976 0.0387 0.7266
H22_3 H 0.3509 0.0152 0.6429
O6_3 O 0.24734(8) 0.20871(14) 0.7520(2)
C15_3 C 0.10281(12) 0.9799(2) 0.7063(4)
H14_3 H 0.1048 0.9102 0.6950
H15_3 H 0.1677 0.9927 0.8458
C17_3 C 0.02059(12) 0.9802(2) 0.5361(4)
H16_3 H 0.0245 0.9106 0.5270
C22_3 C 0.29023(12) 0.9210(2) 0.5735(3)
O8_2 O 0.24398(8) 0.91871(12) 0.5123(2)
C5_3 C 0.70977(12) 0.0790(2) 0.4265(3)
C9_3 C 0.89719(12) 0.0201(2) 0.2937(4)
H9_3 H 0.8952 0.0898 0.3050
H10_3 H 0.8323 0.0073 0.1542
C11_3 C 0.97941(12) 0.0198(2) 0.4639(4)
H11_3 H 0.9755 0.0894 0.4730
O4_2 O 0.75602(8) 0.08129(12) 0.4877(2)
C1_3 C 0.70471(11) 0.76620(18) 0.2624(3)
C2_3 C 0.67885(12) 0.78968(19) 0.4163(3)
H1_3 H 0.6868 0.7356 0.4900
H2_3 H 0.6404 0.7924 0.3995
C3_3 C 0.69832(12) 0.89014(19) 0.4868(3)
H3_3 H 0.6802 0.9026 0.5837
H4_3 H 0.7364 0.8859 0.5108
C4_3 C 0.68745(13) 0.97807(19) 0.3735(3)
H5_3 H 0.7024 0.9613 0.2734
H6_3 H 0.6491 0.9848 0.3571
C6_3 C 0.89839(13) 0.8179(2) 0.2535(4)
H7_3 H 0.8988 0.7481 0.2413
C7_3 C 0.93794(13) 0.8617(2) 0.3477(4)
H8_3 H 0.9641 0.8219 0.3965
C8_3 C 0.93801(12) 0.9664(2) 0.3685(3)
C10_3 C 0.85950(12) 0.9697(2) 0.2024(4)
N1_3 N 0.85977(9) 0.86973(17) 0.1793(3)
O2_3 O 0.75266(8) 0.79129(14) 0.2480(2)
O14_2 O 0.75602(8) 0.91871(12) 0.9877(2)
C5_4 C 0.29023(12) 0.0790(2) 0.0735(3)
C9_4 C 0.10281(12) 0.0201(2) 0.2063(4)
H9_4 H 0.1048 0.0898 0.1950
H10_4 H 0.1677 0.0073 0.3458
C11_4 C 0.02059(12) 0.0198(2) 0.0361(4)
H11_4 H 0.0245 0.0894 0.0270
C1_4 C 0.29529(11) 0.76620(18) 0.2376(3)
C2_4 C 0.32115(12) 0.78968(19) 0.0837(3)
H1_4 H 0.3132 0.7356 0.0100
H2_4 H 0.3596 0.7924 0.1005
C3_4 C 0.30168(12) 0.89014(19) 0.0132(3)
C4_4 C 0.31255(13) 0.97807(19) 0.1265(3)
H5_4 H 0.2976 0.9613 0.2266
H6_4 H 0.3509 0.9848 0.1429
C6_4 C 0.10161(13) 0.8179(2) 0.2465(4)
H7_4 H 0.1012 0.7481 0.2587
C7_4 C 0.06206(13) 0.8617(2) 0.1523(4)
H8_4 H 0.0359 0.8219 0.1035
C8_4 C 0.06199(12) 0.9664(2) 0.1315(3)
C10_4 C 0.14050(12) 0.9697(2) 0.2976(4)
N1_4 N 0.14023(9) 0.86973(17) 0.3207(3)
O2_4 O 0.24734(8) 0.79129(14) 0.2520(2)
C12_4 C 0.89839(13) 0.1821(2) 0.7535(4)
H12_4 H 0.8988 0.2519 0.7413
C13_4 C 0.93794(13) 0.1383(2) 0.8477(4)
H13_4 H 0.9641 0.1781 0.8965
C14_4 C 0.93801(12) 0.0336(2) 0.8685(3)
C16_4 C 0.85950(12) 0.0303(2) 0.7024(4)
N2_4 N 0.85977(9) 0.13027(17) 0.6793(3)
C18_4 C 0.70471(11) 0.23380(18) 0.7624(3)
C19_4 C 0.67885(12) 0.21032(19) 0.9163(3)
H17_4 H 0.6868 0.2644 0.9900
H18_4 H 0.6404 0.2076 0.8995
C20_4 C 0.69832(12) 0.10986(19) 0.9868(3)
C21_4 C 0.68745(13) 0.02193(19) 0.8735(3)
H21_4 H 0.7024 0.0387 0.7734
H22_4 H 0.6491 0.0152 0.8571
O6_4 O 0.75266(8) 0.20871(14) 0.7480(2)
C15_4 C 0.89719(12) 0.9799(2) 0.7937(4)
H14_4 H 0.8952 0.9102 0.8050
H15_4 H 0.8323 0.9927 0.6542
C17_4 C 0.97941(12) 0.9802(2) 0.9639(4)
H16_4 H 0.9755 0.9106 0.9730
C22_4 C 0.70977(12) 0.9210(2) 0.9265(3)
H3_4 H 0.3198 0.9026 0.9163
H4_4 H 0.2636 0.8859 0.9892
H19_4 H 0.6802 0.0974 0.0837
H20_4 H 0.7364 0.1141 0.0108
loop_
_geom_bond_atom_site_label_1
_geom_bond_atom_site_label_2
_geom_bond_site_symmetry_1
_geom_bond_site_symmetry_2
C1 C2 1_555 1_555
C2 H1 1_555 1_555
H2 C2 1_555 1_555
C3 C2 1_555 1_555
H3 C3 1_555 1_555
H4 C3 1_555 1_555
C4 C3 1_555 1_555
H5 C4 1_555 1_555
H6 C4 1_555 1_555
C5 C4 1_555 1_555
C6 H7 1_555 1_555
C7 C6 1_555 1_555
H8 C7 1_555 1_555
C8 C7 1_555 1_555
C9 C8 1_555 1_555
H9 C9 1_555 1_555
C10 C9 1_555 1_555
H10 C10 1_555 1_555
C11 C8 1_555 1_555
H11 C11 1_555 1_555
Cu1 N1 1_555 1_555
N1 C6 1_555 1_555
O1 C1 1_555 1_555
O2 C1 1_555 1_555
O3 C5 1_555 1_555
O4 C5 1_555 1_555
C12 H12 1_555 1_555
C13 C12 1_555 1_555
H13 C13 1_555 1_555
C14 C13 1_555 1_555
C15 C14 1_555 1_555
H14 C15 1_555 1_555
C16 C15 1_555 1_555
H15 C16 1_555 1_555
C17 C11 1_555 1_555
H16 C17 1_555 1_555
N2 C12 1_555 1_555
C18 C19 1_555 1_555
C19 H17 1_555 1_555
H18 C19 1_555 1_555
C20 C19 1_555 1_555
H19 C20 1_555 1_555
H20 C20 1_555 1_555
C21 C20 1_555 1_555
H21 C21 1_555 1_555
H22 C21 1_555 1_555
C22 C21 1_555 1_555
Cu2 N2 1_555 1_555
O5 C18 1_555 1_555
O6 C18 1_555 1_555
O7 C22 1_555 1_555
O8 C22 1_555 1_555
Cu3 O8 1_555 1_555
Cu5 O3 1_555 1_555
Cu6 O4 1_555 1_555
Cu8 O7 1_555 1_555
O11 Cu1 1_555 1_555
O12 Cu2 1_555 1_555
C10 N1 1_555 1_555
Cu1 O2 1_555 1_555
C14 C17 1_555 1_555
C16 N2 1_555 1_555
Cu2 O6 1_555 1_555
Cu3 Cu8 1_555 1_555
Cu5 Cu6 1_555 1_555
C1_2 C2_2 1_555 1_555
C2_2 H1_2 1_555 1_555
H2_2 C2_2 1_555 1_555
C3_2 C2_2 1_555 1_555
C4_2 C3_2 1_555 1_555
H5_2 C4_2 1_555 1_555
H6_2 C4_2 1_555 1_555
C5_2 C4_2 1_555 1_555
C6_2 H7_2 1_555 1_555
C7_2 C6_2 1_555 1_555
H8_2 C7_2 1_555 1_555
C8_2 C7_2 1_555 1_555
C9_2 C8_2 1_555 1_555
H9_2 C9_2 1_555 1_555
C10_2 C9_2 1_555 1_555
H10_2 C10_2 1_555 1_555
C11_2 C8_2 1_555 1_555
H11_2 C11_2 1_555 1_555
Cu3 N1_2 1_555 1_555
N1_2 C6_2 1_555 1_555
O1_2 C1_2 1_555 1_555
O2_2 C1_2 1_555 1_555
O3_2 C5_2 1_555 1_555
O13 C5_2 1_555 1_555
Cu4 O3_2 1_555 1_555
O10_2 Cu3 1_555 1_555
O11_2 Cu3 1_555 1_555
C10_2 N1_2 1_555 1_555
Cu3 O2_2 1_555 1_555
O1_2 Cu8 1_555 1_555
C12_2 H12_2 1_555 1_555
C13_2 C12_2 1_555 1_555
H13_2 C13_2 1_555 1_555
C14_2 C13_2 1_555 1_555
C15_2 C14_2 1_555 1_555
H14_2 C15_2 1_555 1_555
C16_2 C15_2 1_555 1_555
H15_2 C16_2 1_555 1_555
H16_2 C17_2 1_555 1_555
N2_2 C12_2 1_555 1_555
C18_2 C19_2 1_555 1_555
C19_2 H17_2 1_555 1_555
H18_2 C19_2 1_555 1_555
C20_2 C19_2 1_555 1_555
C21_2 C20_2 1_555 1_555
H21_2 C21_2 1_555 1_555
H22_2 C21_2 1_555 1_555
C22_2 C21_2 1_555 1_555
Cu6 N2_2 1_555 1_555
O5_2 C18_2 1_555 1_555
O6_2 C18_2 1_555 1_555
O7_2 C22_2 1_555 1_555
O14 C22_2 1_555 1_555
Cu7 O7_2 1_555 1_555
O9_2 Cu6 1_555 1_555
O12_2 Cu6 1_555 1_555
C14_2 C17_2 1_555 1_555
C16_2 N2_2 1_555 1_555
Cu6 O6_2 1_555 1_555
O5_2 Cu5 1_555 1_555
C12_3 H12_3 1_555 1_555
C13_3 C12_3 1_555 1_555
H13_3 C13_3 1_555 1_555
C14_3 C13_3 1_555 1_555
N2_3 C12_3 1_555 1_555
C18_3 C19_3 1_555 1_555
C19_3 H17_3 1_555 1_555
H18_3 C19_3 1_555 1_555
C20_3 C19_3 1_555 1_555
H19_3 C20_3 1_555 1_555
H20_3 C20_3 1_555 1_555
C21_3 C20_3 1_555 1_555
H21_3 C21_3 1_555 1_555
H22_3 C21_3 1_555 1_555
Cu7 N2_3 1_555 1_555
O10 C18_3 1_555 1_555
O6_3 C18_3 1_555 1_555
C16_3 N2_3 1_555 1_555
Cu7 O6_3 1_555 1_555
H14_3 C15_3 1_555 1_555
H16_3 C17_3 1_555 1_555
O12_2 C22_3 1_555 1_555
O8_2 C22_3 1_555 1_555
Cu5 O8_2 1_555 1_555
H9_3 C9_3 1_555 1_555
H11_3 C11_3 1_555 1_555
O11_2 C5_3 1_555 1_555
O4_2 C5_3 1_555 1_555
Cu8 O4_2 1_555 1_555
C1_3 C2_3 1_555 1_555
C2_3 H1_3 1_555 1_555
H2_3 C2_3 1_555 1_555
C3_3 C2_3 1_555 1_555
H3_3 C3_3 1_555 1_555
H4_3 C3_3 1_555 1_555
C4_3 C3_3 1_555 1_555
H5_3 C4_3 1_555 1_555
H6_3 C4_3 1_555 1_555
C6_3 H7_3 1_555 1_555
C7_3 C6_3 1_555 1_555
H8_3 C7_3 1_555 1_555
C8_3 C7_3 1_555 1_555
Cu4 N1_3 1_555 1_555
N1_3 C6_3 1_555 1_555
O9 C1_3 1_555 1_555
O2_3 C1_3 1_555 1_555
C10_3 N1_3 1_555 1_555
Cu4 O2_3 1_555 1_555
H9_4 C9_4 1_555 1_555
H11_4 C11_4 1_555 1_555
O11 C5_4 1_555 1_555
O13_2 C5_4 1_555 1_555
C1_4 C2_4 1_555 1_555
C2_4 H1_4 1_555 1_555
H2_4 C2_4 1_555 1_555
C3_4 C2_4 1_555 1_555
C4_4 C3_4 1_555 1_555
H5_4 C4_4 1_555 1_555
H6_4 C4_4 1_555 1_555
C6_4 H7_4 1_555 1_555
C7_4 C6_4 1_555 1_555
H8_4 C7_4 1_555 1_555
C8_4 C7_4 1_555 1_555
Cu5 N1_4 1_555 1_555
N1_4 C6_4 1_555 1_555
O9_2 C1_4 1_555 1_555
O2_4 C1_4 1_555 1_555
C10_4 N1_4 1_555 1_555
Cu5 O2_4 1_555 1_555
C12_4 H12_4 1_555 1_555
C13_4 C12_4 1_555 1_555
H13_4 C13_4 1_555 1_555
C14_4 C13_4 1_555 1_555
N2_4 C12_4 1_555 1_555
C18_4 C19_4 1_555 1_555
C19_4 H17_4 1_555 1_555
H18_4 C19_4 1_555 1_555
C20_4 C19_4 1_555 1_555
C21_4 C20_4 1_555 1_555
H21_4 C21_4 1_555 1_555
H22_4 C21_4 1_555 1_555
Cu8 N2_4 1_555 1_555
O10_2 C18_4 1_555 1_555
O6_4 C18_4 1_555 1_555
C16_4 N2_4 1_555 1_555
Cu8 O6_4 1_555 1_555
H14_4 C15_4 1_555 1_555
H16_4 C17_4 1_555 1_555
O12 C22_4 1_555 1_555
O14_2 C22_4 1_555 1_555

#END
