
###############################################################################
#
# This file contains modified crystal structure data generated from the
# MOF subset of the Cambridge Structural Database (CSD) v543 
# hosted by the Cambridge Crystallographic Data Centre (CCDC).
#
# This work is licensed under the Creative Commons
# Attribution-NonCommercial-ShareAlike 4.0 International License.
# To view a copy of this license, visit
# http://creativecommons.org/licenses/by-nc-sa/4.0/
# or send a letter to
# Creative Commons, PO Box 1866, Mountain View, CA 94042, USA.
#
# CIF created using the CSD Python API on 29 September 2022
# The structure has been converted into the P1 space group
# The structure has a 3D framework
# The original CSD entry JOKJIF is in the monoclinic crystal system
# The framework has been calculated to contain at least 10.0% void space
# The void calculation uses a probe of radius 1.32A, grid spacing 0.4
#
###############################################################################

data_JOKJIF
_chemical_formula_moiety         '(C80 H80 Cu8 N8 O32)n'
_symmetry_cell_setting           triclinic
_symmetry_space_group_name_H-M   'P 1'
_symmetry_Int_Tables_number      1
_space_group_name_Hall           'P 1'
loop_
_symmetry_equiv_pos_site_id
_symmetry_equiv_pos_as_xyz
1 x,y,z
_cell_length_a                   21.4360(4)
_cell_length_b                   13.2468(3)
_cell_length_c                   8.5784(2)
_cell_angle_alpha                90
_cell_angle_beta                 101.0590(13)
_cell_angle_gamma                90
_cell_volume                     2390.67
loop_
_atom_site_label
_atom_site_type_symbol
_atom_site_fract_x
_atom_site_fract_y
_atom_site_fract_z
C1 C 0.19563(17) 0.2329(2) 0.2380(4)
C2 C 0.16481(17) 0.2083(3) 0.3774(4)
H1 H 0.1191 0.2052 0.3415
H2 H 0.1738 0.2621 0.4552
C3 C 0.18794(19) 0.1085(3) 0.4565(4)
H3 H 0.2331 0.1133 0.4998
H4 H 0.1662 0.0960 0.5439
C4 C 0.17611(19) 0.0207(3) 0.3407(4)
H5 H 0.1942 0.0373 0.2486
H6 H 0.1306 0.0133 0.3049
C6 C 0.42588(18) 0.1781(3) 0.3263(4)
H7 H 0.4262 0.2482 0.3212
C7 C 0.47335(18) 0.1314(3) 0.4329(4)
H8 H 0.5045 0.1697 0.4971
C8 C 0.47441(16) 0.0269(3) 0.4441(4)
C10 C 0.38020(19) 0.0286(3) 0.2422(5)
Cu1 Cu 0.30239(2) 0.20577(3) 0.07615(4)
N1 N 0.37966(13) 0.1290(2) 0.2302(3)
O1 O 0.25246(11) 0.20848(19) 0.2478(3)
O2 O 0.16204(12) 0.27547(19) 0.1186(3)
C14 C 0.57389(19) 0.0235(3) 0.6533(5)
H13 H 0.5757 0.0936 0.6489
H14 H 0.6517 0.0080 0.8225
C20 C 0.79729(17) 0.0793(2) 0.5952(4)
O7 O 0.74285(12) 0.08214(18) 0.5111(3)
O8 O 0.83208(11) 0.15603(17) 0.6344(3)
Cu3 Cu 0.69761(2) 0.20577(3) 0.42385(4)
Cu8 Cu 0.80239(2) 0.29423(3) 0.57615(4)
O13 O 0.33208(11) 0.34397(17) 0.1344(3)
Cu7 Cu 0.19761(2) 0.29423(3) 0.92385(4)
O10 O 0.33796(12) 0.22453(19) 0.8814(3)
O12 O 0.25715(12) 0.08214(18) 0.9889(3)
Cu4 Cu 0.80239(2) 0.70577(3) 0.07615(4)
O9 O 0.66204(12) 0.77547(19) 0.1186(3)
O11 O 0.74285(12) 0.91786(18) 0.0111(3)
C5 C 0.20271(17) 0.9207(2) 0.4048(4)
C9 C 0.42611(19) 0.9765(3) 0.3467(5)
H9 H 0.4243 0.9064 0.3511
H10 H 0.3483 0.9920 0.1775
O3 O 0.25715(12) 0.91786(18) 0.4889(3)
O4 O 0.16792(11) 0.84397(17) 0.3656(3)
C11 C 0.57412(18) 0.8219(3) 0.6737(4)
H11 H 0.5738 0.7518 0.6788
C12 C 0.52665(18) 0.8686(3) 0.5671(4)
H12 H 0.4955 0.8303 0.5029
C13 C 0.52559(16) 0.9731(3) 0.5559(4)
C15 C 0.61980(19) 0.9714(3) 0.7578(5)
N2 N 0.62034(13) 0.8710(2) 0.7698(3)
C16 C 0.80437(17) 0.7671(2) 0.7620(4)
C17 C 0.83519(17) 0.7917(3) 0.6226(4)
H15 H 0.8809 0.7948 0.6585
H16 H 0.8262 0.7379 0.5448
C18 C 0.81206(19) 0.8915(3) 0.5435(4)
H17 H 0.7669 0.8867 0.5002
H18 H 0.8338 0.9040 0.4561
C19 C 0.82389(19) 0.9793(3) 0.6593(4)
H19 H 0.8058 0.9627 0.7514
H20 H 0.8694 0.9867 0.6951
Cu2 Cu 0.69761(2) 0.79423(3) 0.92385(4)
O5 O 0.74754(11) 0.79152(19) 0.7522(3)
O6 O 0.83796(12) 0.72453(19) 0.8814(3)
Cu5 Cu 0.19761(2) 0.70577(3) 0.42385(4)
Cu6 Cu 0.30239(2) 0.79423(3) 0.57615(4)
O14 O 0.66792(11) 0.65603(17) 0.8656(3)
C1_2 C 0.80437(17) 0.2329(2) 0.2620(4)
C2_2 C 0.83519(17) 0.2083(3) 0.1226(4)
H1_2 H 0.8809 0.2052 0.1585
H2_2 H 0.8262 0.2621 0.0448
C3_2 C 0.81206(19) 0.1085(3) 0.0435(4)
H3_2 H 0.7669 0.1133 0.0002
C4_2 C 0.82389(19) 0.0207(3) 0.1593(4)
H5_2 H 0.8058 0.0373 0.2514
H6_2 H 0.8694 0.0133 0.1951
C6_2 C 0.57412(18) 0.1781(3) 0.1737(4)
H7_2 H 0.5738 0.2482 0.1788
C7_2 C 0.52665(18) 0.1314(3) 0.0671(4)
H8_2 H 0.4955 0.1697 0.0029
C8_2 C 0.52559(16) 0.0269(3) 0.0559(4)
C10_2 C 0.61980(19) 0.0286(3) 0.2578(5)
N1_2 N 0.62034(13) 0.1290(2) 0.2698(3)
O1_2 O 0.74754(11) 0.20848(19) 0.2522(3)
O2_2 O 0.83796(12) 0.27547(19) 0.3814(3)
O10_2 O 0.66204(12) 0.22453(19) 0.6186(3)
O13_2 O 0.66792(11) 0.34397(17) 0.3656(3)
H4_2 H 0.8338 0.0960 0.9561
C14_2 C 0.42611(19) 0.0235(3) 0.8467(5)
H13_2 H 0.4243 0.0936 0.8511
H14_2 H 0.3483 0.0080 0.6775
C20_2 C 0.20271(17) 0.0793(2) 0.9048(4)
O8_2 O 0.16792(11) 0.15603(17) 0.8656(3)
C5_2 C 0.79729(17) 0.9207(2) 0.0952(4)
C9_2 C 0.57389(19) 0.9765(3) 0.1533(5)
H9_2 H 0.5757 0.9064 0.1489
H10_2 H 0.6517 0.9920 0.3225
O4_2 O 0.83208(11) 0.84397(17) 0.1344(3)
H18_2 H 0.1662 0.9040 0.0439
C11_2 C 0.42588(18) 0.8219(3) 0.8263(4)
H11_2 H 0.4262 0.7518 0.8212
C12_2 C 0.47335(18) 0.8686(3) 0.9329(4)
H12_2 H 0.5045 0.8303 0.9971
C13_2 C 0.47441(16) 0.9731(3) 0.9441(4)
C15_2 C 0.38020(19) 0.9714(3) 0.7422(5)
N2_2 N 0.37966(13) 0.8710(2) 0.7302(3)
C16_2 C 0.19563(17) 0.7671(2) 0.7380(4)
C17_2 C 0.16481(17) 0.7917(3) 0.8774(4)
H15_2 H 0.1191 0.7948 0.8415
H16_2 H 0.1738 0.7379 0.9552
C18_2 C 0.18794(19) 0.8915(3) 0.9565(4)
H17_2 H 0.2331 0.8867 0.9998
C19_2 C 0.17611(19) 0.9793(3) 0.8407(4)
H19_2 H 0.1942 0.9627 0.7486
H20_2 H 0.1306 0.9867 0.8049
O5_2 O 0.25246(11) 0.79152(19) 0.7478(3)
O6_2 O 0.16204(12) 0.72453(19) 0.6186(3)
O9_2 O 0.33796(12) 0.77547(19) 0.3814(3)
O14_2 O 0.33208(11) 0.65603(17) 0.6344(3)
O11_2 O 0.24285(12) 0.41786(18) 0.0111(3)
H8_3 H 0.0045 0.6697 0.4971
C11_3 C 0.07412(18) 0.3219(3) 0.6737(4)
H11_3 H 0.0738 0.2518 0.6788
C12_3 C 0.02665(18) 0.3686(3) 0.5671(4)
C13_3 C 0.02559(16) 0.4731(3) 0.5559(4)
C14_3 C 0.07389(19) 0.5235(3) 0.6533(5)
H13_3 H 0.0757 0.5936 0.6489
C15_3 C 0.11980(19) 0.4714(3) 0.7578(5)
H14_3 H 0.1517 0.5080 0.8225
N2_3 N 0.12034(13) 0.3710(2) 0.7698(3)
C16_3 C 0.30437(17) 0.2671(2) 0.7620(4)
C17_3 C 0.33519(17) 0.2917(3) 0.6226(4)
H15_3 H 0.3809 0.2948 0.6585
H16_3 H 0.3262 0.2379 0.5448
C18_3 C 0.31206(19) 0.3915(3) 0.5435(4)
H17_3 H 0.2669 0.3867 0.5002
H18_3 H 0.3338 0.4040 0.4561
C19_3 C 0.32389(19) 0.4793(3) 0.6593(4)
H19_3 H 0.3058 0.4627 0.7514
H20_3 H 0.3694 0.4867 0.6951
C20_3 C 0.29729(17) 0.5793(2) 0.5952(4)
O5_3 O 0.24754(11) 0.29152(19) 0.7522(3)
O7_2 O 0.24285(12) 0.58214(18) 0.5111(3)
C1_3 C 0.69563(17) 0.7329(2) 0.2380(4)
C2_3 C 0.66481(17) 0.7083(3) 0.3774(4)
H1_3 H 0.6191 0.7052 0.3415
H2_3 H 0.6738 0.7621 0.4552
C3_3 C 0.68794(19) 0.6085(3) 0.4565(4)
H3_3 H 0.7331 0.6133 0.4998
H4_3 H 0.6662 0.5960 0.5439
C4_3 C 0.67611(19) 0.5207(3) 0.3407(4)
H5_3 H 0.6942 0.5373 0.2486
H6_3 H 0.6306 0.5133 0.3049
C5_3 C 0.70271(17) 0.4207(2) 0.4048(4)
C6_3 C 0.92588(18) 0.6781(3) 0.3263(4)
H7_3 H 0.9262 0.7482 0.3212
C7_3 C 0.97335(18) 0.6314(3) 0.4329(4)
C8_3 C 0.97441(16) 0.5269(3) 0.4441(4)
C9_3 C 0.92611(19) 0.4765(3) 0.3467(5)
H9_3 H 0.9243 0.4064 0.3511
C10_3 C 0.88020(19) 0.5286(3) 0.2422(5)
H10_3 H 0.8483 0.4920 0.1775
N1_3 N 0.87966(13) 0.6290(2) 0.2302(3)
O1_3 O 0.75246(11) 0.70848(19) 0.2478(3)
O3_2 O 0.75715(12) 0.41786(18) 0.4889(3)
H12_3 H 0.9955 0.3303 0.5029
O12_2 O 0.75715(12) 0.58214(18) 0.9889(3)
C1_4 C 0.30437(17) 0.7329(2) 0.2620(4)
C2_4 C 0.33519(17) 0.7083(3) 0.1226(4)
H1_4 H 0.3809 0.7052 0.1585
H2_4 H 0.3262 0.7621 0.0448
C3_4 C 0.31206(19) 0.6085(3) 0.0435(4)
H3_4 H 0.2669 0.6133 0.0002
C4_4 C 0.32389(19) 0.5207(3) 0.1593(4)
H5_4 H 0.3058 0.5373 0.2514
H6_4 H 0.3694 0.5133 0.1951
C5_4 C 0.29729(17) 0.4207(2) 0.0952(4)
C6_4 C 0.07412(18) 0.6781(3) 0.1737(4)
H7_4 H 0.0738 0.7482 0.1788
C7_4 C 0.02665(18) 0.6314(3) 0.0671(4)
C8_4 C 0.02559(16) 0.5269(3) 0.0559(4)
C9_4 C 0.07389(19) 0.4765(3) 0.1533(5)
H9_4 H 0.0757 0.4064 0.1489
C10_4 C 0.11980(19) 0.5286(3) 0.2578(5)
H10_4 H 0.1517 0.4920 0.3225
N1_4 N 0.12034(13) 0.6290(2) 0.2698(3)
O1_4 O 0.24754(11) 0.70848(19) 0.2522(3)
H4_4 H 0.3338 0.5960 0.9561
H12_4 H 0.0045 0.3303 0.9971
H8_4 H 0.9955 0.6697 0.0029
H18_4 H 0.6662 0.4040 0.0439
C11_4 C 0.92588(18) 0.3219(3) 0.8263(4)
H11_4 H 0.9262 0.2518 0.8212
C12_4 C 0.97335(18) 0.3686(3) 0.9329(4)
C13_4 C 0.97441(16) 0.4731(3) 0.9441(4)
C14_4 C 0.92611(19) 0.5235(3) 0.8467(5)
H13_4 H 0.9243 0.5936 0.8511
C15_4 C 0.88020(19) 0.4714(3) 0.7422(5)
H14_4 H 0.8483 0.5080 0.6775
N2_4 N 0.87966(13) 0.3710(2) 0.7302(3)
C16_4 C 0.69563(17) 0.2671(2) 0.7380(4)
C17_4 C 0.66481(17) 0.2917(3) 0.8774(4)
H15_4 H 0.6191 0.2948 0.8415
H16_4 H 0.6738 0.2379 0.9552
C18_4 C 0.68794(19) 0.3915(3) 0.9565(4)
H17_4 H 0.7331 0.3867 0.9998
C19_4 C 0.67611(19) 0.4793(3) 0.8407(4)
H19_4 H 0.6942 0.4627 0.7486
H20_4 H 0.6306 0.4867 0.8049
C20_4 C 0.70271(17) 0.5793(2) 0.9048(4)
O5_4 O 0.75246(11) 0.29152(19) 0.7478(3)
loop_
_geom_bond_atom_site_label_1
_geom_bond_atom_site_label_2
_geom_bond_site_symmetry_1
_geom_bond_site_symmetry_2
C1 C2 1_555 1_555
C2 H1 1_555 1_555
H2 C2 1_555 1_555
C3 C2 1_555 1_555
H3 C3 1_555 1_555
H4 C3 1_555 1_555
C4 C3 1_555 1_555
H5 C4 1_555 1_555
H6 C4 1_555 1_555
C6 H7 1_555 1_555
C7 C6 1_555 1_555
H8 C7 1_555 1_555
C8 C7 1_555 1_555
Cu1 N1 1_555 1_555
N1 C6 1_555 1_555
O1 C1 1_555 1_555
O2 C1 1_555 1_555
H13 C14 1_555 1_555
O7 C20 1_555 1_555
O8 C20 1_555 1_555
Cu3 O7 1_555 1_555
Cu8 O8 1_555 1_555
O13 Cu1 1_555 1_555
C10 N1 1_555 1_555
Cu1 O1 1_555 1_555
Cu3 Cu8 1_555 1_555
H9 C9 1_555 1_555
O3 C5 1_555 1_555
O4 C5 1_555 1_555
C11 H11 1_555 1_555
C12 C11 1_555 1_555
H12 C12 1_555 1_555
N2 C11 1_555 1_555
C16 C17 1_555 1_555
C17 H15 1_555 1_555
H16 C17 1_555 1_555
C18 C17 1_555 1_555
H17 C18 1_555 1_555
H18 C18 1_555 1_555
C19 C18 1_555 1_555
H19 C19 1_555 1_555
H20 C19 1_555 1_555
Cu2 N2 1_555 1_555
O5 C16 1_555 1_555
O6 C16 1_555 1_555
Cu5 O4 1_555 1_555
Cu6 O3 1_555 1_555
O14 Cu2 1_555 1_555
C12 C13 1_555 1_555
C15 N2 1_555 1_555
Cu2 O5 1_555 1_555
Cu5 Cu6 1_555 1_555
C1_2 C2_2 1_555 1_555
C2_2 H1_2 1_555 1_555
H2_2 C2_2 1_555 1_555
C3_2 C2_2 1_555 1_555
H3_2 C3_2 1_555 1_555
C4_2 C3_2 1_555 1_555
H5_2 C4_2 1_555 1_555
H6_2 C4_2 1_555 1_555
C6_2 H7_2 1_555 1_555
C7_2 C6_2 1_555 1_555
H8_2 C7_2 1_555 1_555
C8_2 C7_2 1_555 1_555
Cu3 N1_2 1_555 1_555
N1_2 C6_2 1_555 1_555
O1_2 C1_2 1_555 1_555
O2_2 C1_2 1_555 1_555
O10_2 Cu3 1_555 1_555
O13_2 Cu3 1_555 1_555
C10_2 N1_2 1_555 1_555
Cu3 O1_2 1_555 1_555
O2_2 Cu8 1_555 1_555
H13_2 C14_2 1_555 1_555
O12 C20_2 1_555 1_555
O8_2 C20_2 1_555 1_555
Cu7 O8_2 1_555 1_555
H9_2 C9_2 1_555 1_555
O11 C5_2 1_555 1_555
O4_2 C5_2 1_555 1_555
Cu4 O4_2 1_555 1_555
C11_2 H11_2 1_555 1_555
C12_2 C11_2 1_555 1_555
H12_2 C12_2 1_555 1_555
N2_2 C11_2 1_555 1_555
C16_2 C17_2 1_555 1_555
C17_2 H15_2 1_555 1_555
H16_2 C17_2 1_555 1_555
C18_2 C17_2 1_555 1_555
H17_2 C18_2 1_555 1_555
C19_2 C18_2 1_555 1_555
H19_2 C19_2 1_555 1_555
H20_2 C19_2 1_555 1_555
Cu6 N2_2 1_555 1_555
O5_2 C16_2 1_555 1_555
O6_2 C16_2 1_555 1_555
O9_2 Cu6 1_555 1_555
O14_2 Cu6 1_555 1_555
C12_2 C13_2 1_555 1_555
C15_2 N2_2 1_555 1_555
Cu6 O5_2 1_555 1_555
O6_2 Cu5 1_555 1_555
C11_3 H11_3 1_555 1_555
C12_3 C11_3 1_555 1_555
C14_3 C13_3 1_555 1_555
H13_3 C14_3 1_555 1_555
C15_3 C14_3 1_555 1_555
H14_3 C15_3 1_555 1_555
N2_3 C11_3 1_555 1_555
C16_3 C17_3 1_555 1_555
C17_3 H15_3 1_555 1_555
H16_3 C17_3 1_555 1_555
C18_3 C17_3 1_555 1_555
H17_3 C18_3 1_555 1_555
H18_3 C18_3 1_555 1_555
C19_3 C18_3 1_555 1_555
H19_3 C19_3 1_555 1_555
H20_3 C19_3 1_555 1_555
C20_3 C19_3 1_555 1_555
Cu7 N2_3 1_555 1_555
O5_3 C16_3 1_555 1_555
O10 C16_3 1_555 1_555
O7_2 C20_3 1_555 1_555
O14_2 C20_3 1_555 1_555
Cu5 O7_2 1_555 1_555
C12_3 C13_3 1_555 1_555
C15_3 N2_3 1_555 1_555
Cu7 O5_3 1_555 1_555
C1_3 C2_3 1_555 1_555
C2_3 H1_3 1_555 1_555
H2_3 C2_3 1_555 1_555
C3_3 C2_3 1_555 1_555
H3_3 C3_3 1_555 1_555
H4_3 C3_3 1_555 1_555
C4_3 C3_3 1_555 1_555
H5_3 C4_3 1_555 1_555
H6_3 C4_3 1_555 1_555
C5_3 C4_3 1_555 1_555
C6_3 H7_3 1_555 1_555
C7_3 C6_3 1_555 1_555
C8_3 C7_3 1_555 1_555
C9_3 C8_3 1_555 1_555
H9_3 C9_3 1_555 1_555
C10_3 C9_3 1_555 1_555
H10_3 C10_3 1_555 1_555
Cu4 N1_3 1_555 1_555
N1_3 C6_3 1_555 1_555
O1_3 C1_3 1_555 1_555
O9 C1_3 1_555 1_555
O3_2 C5_3 1_555 1_555
O13_2 C5_3 1_555 1_555
Cu8 O3_2 1_555 1_555
C10_3 N1_3 1_555 1_555
Cu4 O1_3 1_555 1_555
C1_4 C2_4 1_555 1_555
C2_4 H1_4 1_555 1_555
H2_4 C2_4 1_555 1_555
C3_4 C2_4 1_555 1_555
H3_4 C3_4 1_555 1_555
C4_4 C3_4 1_555 1_555
H5_4 C4_4 1_555 1_555
H6_4 C4_4 1_555 1_555
C5_4 C4_4 1_555 1_555
C6_4 H7_4 1_555 1_555
C7_4 C6_4 1_555 1_555
C8_4 C7_4 1_555 1_555
C9_4 C8_4 1_555 1_555
H9_4 C9_4 1_555 1_555
C10_4 C9_4 1_555 1_555
H10_4 C10_4 1_555 1_555
Cu5 N1_4 1_555 1_555
N1_4 C6_4 1_555 1_555
O1_4 C1_4 1_555 1_555
O9_2 C1_4 1_555 1_555
O11_2 C5_4 1_555 1_555
O13 C5_4 1_555 1_555
C10_4 N1_4 1_555 1_555
Cu5 O1_4 1_555 1_555
C11_4 H11_4 1_555 1_555
C12_4 C11_4 1_555 1_555
C14_4 C13_4 1_555 1_555
H13_4 C14_4 1_555 1_555
C15_4 C14_4 1_555 1_555
H14_4 C15_4 1_555 1_555
N2_4 C11_4 1_555 1_555
C16_4 C17_4 1_555 1_555
C17_4 H15_4 1_555 1_555
H16_4 C17_4 1_555 1_555
C18_4 C17_4 1_555 1_555
H17_4 C18_4 1_555 1_555
C19_4 C18_4 1_555 1_555
H19_4 C19_4 1_555 1_555
H20_4 C19_4 1_555 1_555
C20_4 C19_4 1_555 1_555
Cu8 N2_4 1_555 1_555
O5_4 C16_4 1_555 1_555
O10_2 C16_4 1_555 1_555
O12_2 C20_4 1_555 1_555
O14 C20_4 1_555 1_555
C12_4 C13_4 1_555 1_555
C15_4 N2_4 1_555 1_555
Cu8 O5_4 1_555 1_555

#END
