
###############################################################################
#
# This file contains modified crystal structure data generated from the
# MOF subset of the Cambridge Structural Database (CSD) v543 
# hosted by the Cambridge Crystallographic Data Centre (CCDC).
#
# This work is licensed under the Creative Commons
# Attribution-NonCommercial-ShareAlike 4.0 International License.
# To view a copy of this license, visit
# http://creativecommons.org/licenses/by-nc-sa/4.0/
# or send a letter to
# Creative Commons, PO Box 1866, Mountain View, CA 94042, USA.
#
# CIF created using the CSD Python API on 29 September 2022
# The structure has been converted into the P1 space group
# The structure has a 3D framework
# The original CSD entry JOLZIW03 is in the monoclinic crystal system
# The framework has been calculated to contain at least 10.0% void space
# The void calculation uses a probe of radius 1.32A, grid spacing 0.4
#
###############################################################################

data_JOLZIW03
_chemical_formula_moiety         '(C124 H64 Ag18 Fe8 N64 O8)n'
_symmetry_cell_setting           triclinic
_symmetry_space_group_name_H-M   'P 1'
_symmetry_Int_Tables_number      1
_space_group_name_Hall           'P 1'
loop_
_symmetry_equiv_pos_site_id
_symmetry_equiv_pos_as_xyz
1 x,y,z
_cell_length_a                   21.0563(12)
_cell_length_b                   28.9371(17)
_cell_length_c                   14.1011(14)
_cell_angle_alpha                90
_cell_angle_beta                 131.4150(10)
_cell_angle_gamma                90
_cell_volume                     6443.4
loop_
_atom_site_label
_atom_site_type_symbol
_atom_site_fract_x
_atom_site_fract_y
_atom_site_fract_z
Ag1 Ag 0.5000 0.20781(3) 0.7500
Ag2 Ag 0.5000 0.21514(2) 0.2500
Ag4 Ag 0.0000 0.17886(2) 0.2500
Fe1 Fe 0.25048(4) 0.19045(2) 0.24994(6)
O1 O 0.1943(2) 0.44025(11) 0.2185(3)
N1 N 0.3480(3) 0.20132(16) 0.4507(4)
N2 N 0.3438(3) 0.20622(15) 0.2357(5)
N3 N 0.1536(3) 0.18053(15) 0.0497(4)
N4 N 0.1574(3) 0.17756(15) 0.2663(5)
N5 N 0.2173(2) 0.26435(13) 0.2234(4)
N6 N 0.0657(3) 0.41665(14) 0.1298(5)
N7 N 0.0673(3) 0.46504(14) 0.1341(5)
N8 N 0.2184(2) 0.61690(13) 0.2275(4)
C1 C 0.4014(4) 0.2047(2) 0.5576(5)
C2 C 0.3984(4) 0.2113(2) 0.2393(7)
C4 C 0.1031(4) 0.17704(19) 0.2644(6)
C5 C 0.1350(3) 0.27709(17) 0.1477(6)
H1 H 0.0939 0.2541 0.1041
C6 C 0.1092(3) 0.32187(17) 0.1318(6)
H2 H 0.0519 0.3291 0.0782
C7 C 0.1700(3) 0.35644(17) 0.1970(5)
C8 C 0.2535(4) 0.34456(18) 0.2713(6)
H3 H 0.2957 0.3669 0.3138
C9 C 0.2734(4) 0.29755(18) 0.2815(6)
H4 H 0.3302 0.2895 0.3330
C10 C 0.1413(3) 0.40419(17) 0.1812(5)
C11 C 0.1427(3) 0.47718(17) 0.1855(5)
C12 C 0.1726(3) 0.52461(17) 0.2035(5)
C13 C 0.1131(3) 0.55945(17) 0.1541(5)
H5 H 0.0570 0.5524 0.1130
C14 C 0.1380(3) 0.60487(17) 0.1668(5)
H6 H 0.0975 0.6280 0.1318
C15 C 0.2757(3) 0.58264(16) 0.2763(5)
H7 H 0.3318 0.5905 0.3201
C16 C 0.2554(3) 0.53637(16) 0.2647(5)
H8 H 0.2965 0.5137 0.2974
Fe4 Fe 0.24952(4) 0.69045(2) 0.25006(6)
N18 N 0.2816(2) 0.11690(13) 0.2725(4)
C33 C 0.5986(4) 0.2047(2) 0.9424(5)
C34 C 0.6016(4) 0.2113(2) 0.2607(7)
Ag3 Ag 0.0000 0.17799(2) 0.7500
C3 C 0.0995(4) 0.17824(19) 0.9426(6)
Ag4_2 Ag 1.0000 0.17886(2) 0.2500
C35 C 0.8969(4) 0.17704(19) 0.2356(6)
Ag3_2 Ag 1.0000 0.17799(2) 0.7500
Fe2 Fe 0.74952(4) 0.19045(2) 0.25006(6)
O2 O 0.8057(2) 0.44025(11) 0.2815(3)
N9 N 0.6520(3) 0.20132(16) 0.0493(4)
N10 N 0.6562(3) 0.20622(15) 0.2643(5)
N11 N 0.8464(3) 0.18053(15) 0.4503(4)
N12 N 0.8426(3) 0.17756(15) 0.2337(5)
N13 N 0.7827(2) 0.26435(13) 0.2766(4)
N14 N 0.9343(3) 0.41665(14) 0.3702(5)
N15 N 0.9327(3) 0.46504(14) 0.3659(5)
N16 N 0.7816(2) 0.61690(13) 0.2725(4)
C19 C 0.9005(4) 0.17824(19) 0.5574(6)
C21 C 0.8650(3) 0.27709(17) 0.3523(6)
H9 H 0.9061 0.2541 0.3959
C22 C 0.8908(3) 0.32187(17) 0.3682(6)
H10 H 0.9481 0.3291 0.4218
C23 C 0.8300(3) 0.35644(17) 0.3030(5)
C24 C 0.7465(4) 0.34456(18) 0.2287(6)
H11 H 0.7043 0.3669 0.1862
C25 C 0.7266(4) 0.29755(18) 0.2185(6)
H12 H 0.6698 0.2895 0.1670
C26 C 0.8587(3) 0.40419(17) 0.3188(5)
C27 C 0.8573(3) 0.47718(17) 0.3145(5)
C28 C 0.8274(3) 0.52461(17) 0.2965(5)
C29 C 0.8869(3) 0.55945(17) 0.3459(5)
H13 H 0.9430 0.5524 0.3870
C30 C 0.8620(3) 0.60487(17) 0.3332(5)
H14 H 0.9025 0.6280 0.3682
C31 C 0.7243(3) 0.58264(16) 0.2237(5)
H15 H 0.6682 0.5905 0.1799
C32 C 0.7446(3) 0.53637(16) 0.2353(5)
H16 H 0.7035 0.5137 0.2026
Fe3 Fe 0.75048(4) 0.69045(2) 0.24994(6)
N17 N 0.7184(2) 0.11690(13) 0.2275(4)
Ag1_2 Ag 0.0000 0.70781(3) 0.7500
Ag2_2 Ag 0.0000 0.71514(2) 0.2500
C33_2 C 0.0986(4) 0.7047(2) 0.9424(5)
C34_2 C 0.1016(4) 0.7113(2) 0.2607(7)
C12_2 C 0.6726(3) 0.02461(17) 0.2035(5)
C13_2 C 0.6131(3) 0.05945(17) 0.1541(5)
H5_2 H 0.5570 0.0524 0.1130
C14_2 C 0.6380(3) 0.10487(17) 0.1668(5)
H6_2 H 0.5975 0.1280 0.1318
C15_2 C 0.7757(3) 0.08264(16) 0.2763(5)
H7_2 H 0.8318 0.0905 0.3201
C16_2 C 0.7554(3) 0.03637(16) 0.2647(5)
H8_2 H 0.7965 0.0137 0.2974
C28_2 C 0.3274(3) 0.02461(17) 0.2965(5)
C29_2 C 0.3869(3) 0.05945(17) 0.3459(5)
H13_2 H 0.4430 0.0524 0.3870
C30_2 C 0.3620(3) 0.10487(17) 0.3332(5)
H14_2 H 0.4025 0.1280 0.3682
C31_2 C 0.2243(3) 0.08264(16) 0.2237(5)
H15_2 H 0.1682 0.0905 0.1799
C32_2 C 0.2446(3) 0.03637(16) 0.2353(5)
H16_2 H 0.2035 0.0137 0.2026
Ag1_3 Ag 1.0000 0.70781(3) 0.7500
Ag2_3 Ag 1.0000 0.71514(2) 0.2500
Ag4_3 Ag 0.5000 0.67886(2) 0.2500
O1_2 O 0.6943(2) 0.94025(11) 0.2185(3)
N1_2 N 0.8480(3) 0.70132(16) 0.4507(4)
N2_2 N 0.8438(3) 0.70622(15) 0.2357(5)
N3_2 N 0.6536(3) 0.68053(15) 0.0497(4)
N4_2 N 0.6574(3) 0.67756(15) 0.2663(5)
N5_2 N 0.7173(2) 0.76435(13) 0.2234(4)
N6_2 N 0.5657(3) 0.91665(14) 0.1298(5)
N7_2 N 0.5673(3) 0.96504(14) 0.1341(5)
C1_2 C 0.9014(4) 0.7047(2) 0.5576(5)
C2_2 C 0.8984(4) 0.7113(2) 0.2393(7)
C4_2 C 0.6031(4) 0.67704(19) 0.2644(6)
C5_2 C 0.6350(3) 0.77709(17) 0.1477(6)
H1_2 H 0.5939 0.7541 0.1041
C6_2 C 0.6092(3) 0.82187(17) 0.1318(6)
H2_2 H 0.5519 0.8291 0.0782
C7_2 C 0.6700(3) 0.85644(17) 0.1970(5)
C8_2 C 0.7535(4) 0.84456(18) 0.2713(6)
H3_2 H 0.7957 0.8669 0.3138
C9_2 C 0.7734(4) 0.79755(18) 0.2815(6)
H4_2 H 0.8302 0.7895 0.3330
C10_2 C 0.6413(3) 0.90419(17) 0.1812(5)
C11_2 C 0.6427(3) 0.97718(17) 0.1855(5)
C35_2 C 0.3969(4) 0.67704(19) 0.2356(6)
Ag3_3 Ag 0.5000 0.67799(2) 0.7500
C3_2 C 0.5995(4) 0.67824(19) 0.9426(6)
O2_2 O 0.3057(2) 0.94025(11) 0.2815(3)
N9_2 N 0.1520(3) 0.70132(16) 0.0493(4)
N10_2 N 0.1562(3) 0.70622(15) 0.2643(5)
N11_2 N 0.3464(3) 0.68053(15) 0.4503(4)
N12_2 N 0.3426(3) 0.67756(15) 0.2337(5)
N13_2 N 0.2827(2) 0.76435(13) 0.2766(4)
N14_2 N 0.4343(3) 0.91665(14) 0.3702(5)
N15_2 N 0.4327(3) 0.96504(14) 0.3659(5)
C19_2 C 0.4005(4) 0.67824(19) 0.5574(6)
C21_2 C 0.3650(3) 0.77709(17) 0.3523(6)
H9_2 H 0.4061 0.7541 0.3959
C22_2 C 0.3908(3) 0.82187(17) 0.3682(6)
H10_2 H 0.4481 0.8291 0.4218
C23_2 C 0.3300(3) 0.85644(17) 0.3030(5)
C24_2 C 0.2465(4) 0.84456(18) 0.2287(6)
H11_2 H 0.2043 0.8669 0.1862
C25_2 C 0.2266(4) 0.79755(18) 0.2185(6)
H12_2 H 0.1698 0.7895 0.1670
C26_2 C 0.3587(3) 0.90419(17) 0.3188(5)
C27_2 C 0.3573(3) 0.97718(17) 0.3145(5)
C17 C 0.4014(4) 0.7953(2) 0.0576(5)
Ag5 Ag 0.5000 0.79219(3) 0.2500
Ag3_4 Ag 0.0000 0.82201(2) 0.2500
Fe2_2 Fe 0.25048(4) 0.80955(2) 0.74994(6)
O2_3 O 0.1943(2) 0.55975(11) 0.7185(3)
N9_3 N 0.3480(3) 0.79868(16) 0.9507(4)
N10_3 N 0.3438(3) 0.79378(15) 0.7357(5)
N11_3 N 0.1536(3) 0.81947(15) 0.5497(4)
N12_3 N 0.1574(3) 0.82244(15) 0.7663(5)
N13_3 N 0.2173(2) 0.73565(13) 0.7234(4)
N14_3 N 0.0657(3) 0.58335(14) 0.6298(5)
N15_3 N 0.0673(3) 0.53496(14) 0.6341(5)
N16_2 N 0.2184(2) 0.38310(13) 0.7275(4)
C18 C 0.3984(4) 0.7887(2) 0.7393(7)
C19_3 C 0.0995(4) 0.82176(19) 0.4426(6)
C20 C 0.1031(4) 0.82296(19) 0.7644(6)
C21_3 C 0.1350(3) 0.72291(17) 0.6477(6)
H9_3 H 0.0939 0.7459 0.6041
C22_3 C 0.1092(3) 0.67813(17) 0.6318(6)
H10_3 H 0.0519 0.6709 0.5782
C23_3 C 0.1700(3) 0.64356(17) 0.6970(5)
C24_3 C 0.2535(4) 0.65544(18) 0.7713(6)
H11_3 H 0.2957 0.6331 0.8138
C25_3 C 0.2734(4) 0.70245(18) 0.7815(6)
H12_3 H 0.3302 0.7105 0.8330
C26_3 C 0.1413(3) 0.59581(17) 0.6812(5)
C27_3 C 0.1427(3) 0.52282(17) 0.6855(5)
C28_3 C 0.1726(3) 0.47539(17) 0.7035(5)
C29_3 C 0.1131(3) 0.44055(17) 0.6541(5)
H13_3 H 0.0570 0.4476 0.6130
C30_3 C 0.1380(3) 0.39513(17) 0.6668(5)
H14_3 H 0.0975 0.3720 0.6318
C31_3 C 0.2757(3) 0.41736(16) 0.7763(5)
H15_3 H 0.3318 0.4095 0.8201
C32_3 C 0.2554(3) 0.46363(16) 0.7647(5)
H16_3 H 0.2965 0.4863 0.7974
Ag6 Ag 0.5000 0.78486(2) 0.7500
Ag7 Ag 0.0000 0.82114(2) 0.7500
Fe3_2 Fe 0.24952(4) 0.30955(2) 0.75006(6)
N17_2 N 0.2816(2) 0.88310(13) 0.7725(4)
Ag3_5 Ag 1.0000 0.82201(2) 0.2500
C3_3 C 0.9005(4) 0.82176(19) 0.0574(6)
Ag7_2 Ag 1.0000 0.82114(2) 0.7500
Fe1_2 Fe 0.74952(4) 0.80955(2) 0.75006(6)
O1_3 O 0.8057(2) 0.55975(11) 0.7815(3)
N1_3 N 0.6520(3) 0.79868(16) 0.5493(4)
N2_3 N 0.6562(3) 0.79378(15) 0.7643(5)
N3_3 N 0.8464(3) 0.81947(15) 0.9503(4)
N4_3 N 0.8426(3) 0.82244(15) 0.7337(5)
N5_3 N 0.7827(2) 0.73565(13) 0.7766(4)
N6_3 N 0.9343(3) 0.58335(14) 0.8702(5)
N7_3 N 0.9327(3) 0.53496(14) 0.8659(5)
N8_2 N 0.7816(2) 0.38310(13) 0.7725(4)
C1_3 C 0.5986(4) 0.7953(2) 0.4424(5)
C2_3 C 0.6016(4) 0.7887(2) 0.7607(7)
C4_3 C 0.8969(4) 0.82296(19) 0.7356(6)
C5_3 C 0.8650(3) 0.72291(17) 0.8523(6)
H1_3 H 0.9061 0.7459 0.8959
C6_3 C 0.8908(3) 0.67813(17) 0.8682(6)
H2_3 H 0.9481 0.6709 0.9218
C7_3 C 0.8300(3) 0.64356(17) 0.8030(5)
C8_3 C 0.7465(4) 0.65544(18) 0.7287(6)
H3_3 H 0.7043 0.6331 0.6862
C9_3 C 0.7266(4) 0.70245(18) 0.7185(6)
H4_3 H 0.6698 0.7105 0.6670
C10_3 C 0.8587(3) 0.59581(17) 0.8188(5)
C11_3 C 0.8573(3) 0.52282(17) 0.8145(5)
C12_3 C 0.8274(3) 0.47539(17) 0.7965(5)
C13_3 C 0.8869(3) 0.44055(17) 0.8459(5)
H5_3 H 0.9430 0.4476 0.8870
C14_3 C 0.8620(3) 0.39513(17) 0.8332(5)
H6_3 H 0.9025 0.3720 0.8682
C15_3 C 0.7243(3) 0.41736(16) 0.7237(5)
H7_3 H 0.6682 0.4095 0.6799
C16_3 C 0.7446(3) 0.46363(16) 0.7353(5)
H8_3 H 0.7035 0.4863 0.7026
Fe4_2 Fe 0.75048(4) 0.30955(2) 0.74994(6)
N18_2 N 0.7184(2) 0.88310(13) 0.7275(4)
Ag5_2 Ag 0.0000 0.29219(3) 0.2500
Ag6_2 Ag 0.0000 0.28486(2) 0.7500
C17_2 C 0.9014(4) 0.2953(2) 0.0576(5)
Ag5_3 Ag 1.0000 0.29219(3) 0.2500
Ag3_6 Ag 0.5000 0.32201(2) 0.2500
C3_4 C 0.4005(4) 0.32176(19) 0.0574(6)
O2_4 O 0.6943(2) 0.05975(11) 0.7185(3)
N9_4 N 0.8480(3) 0.29868(16) 0.9507(4)
N10_4 N 0.8438(3) 0.29378(15) 0.7357(5)
N11_4 N 0.6536(3) 0.31947(15) 0.5497(4)
N12_4 N 0.6574(3) 0.32244(15) 0.7663(5)
N13_4 N 0.7173(2) 0.23565(13) 0.7234(4)
N14_4 N 0.5657(3) 0.08335(14) 0.6298(5)
N15_4 N 0.5673(3) 0.03496(14) 0.6341(5)
C18_2 C 0.8984(4) 0.2887(2) 0.7393(7)
C19_4 C 0.5995(4) 0.32176(19) 0.4426(6)
C20_2 C 0.6031(4) 0.32296(19) 0.7644(6)
C21_4 C 0.6350(3) 0.22291(17) 0.6477(6)
H9_4 H 0.5939 0.2459 0.6041
C22_4 C 0.6092(3) 0.17813(17) 0.6318(6)
H10_4 H 0.5519 0.1709 0.5782
C23_4 C 0.6700(3) 0.14356(17) 0.6970(5)
C24_4 C 0.7535(4) 0.15544(18) 0.7713(6)
H11_4 H 0.7957 0.1331 0.8138
C25_4 C 0.7734(4) 0.20245(18) 0.7815(6)
H12_4 H 0.8302 0.2105 0.8330
C26_4 C 0.6413(3) 0.09581(17) 0.6812(5)
C27_4 C 0.6427(3) 0.02282(17) 0.6855(5)
Ag6_3 Ag 1.0000 0.28486(2) 0.7500
Ag7_3 Ag 0.5000 0.32114(2) 0.7500
O1_4 O 0.3057(2) 0.05975(11) 0.7815(3)
N1_4 N 0.1520(3) 0.29868(16) 0.5493(4)
N2_4 N 0.1562(3) 0.29378(15) 0.7643(5)
N3_4 N 0.3464(3) 0.31947(15) 0.9503(4)
N4_4 N 0.3426(3) 0.32244(15) 0.7337(5)
N5_4 N 0.2827(2) 0.23565(13) 0.7766(4)
N6_4 N 0.4343(3) 0.08335(14) 0.8702(5)
N7_4 N 0.4327(3) 0.03496(14) 0.8659(5)
C1_4 C 0.0986(4) 0.2953(2) 0.4424(5)
C2_4 C 0.1016(4) 0.2887(2) 0.7607(7)
C4_4 C 0.3969(4) 0.32296(19) 0.7356(6)
C5_4 C 0.3650(3) 0.22291(17) 0.8523(6)
H1_4 H 0.4061 0.2459 0.8959
C6_4 C 0.3908(3) 0.17813(17) 0.8682(6)
H2_4 H 0.4481 0.1709 0.9218
C7_4 C 0.3300(3) 0.14356(17) 0.8030(5)
C8_4 C 0.2465(4) 0.15544(18) 0.7287(6)
H3_4 H 0.2043 0.1331 0.6862
C9_4 C 0.2266(4) 0.20245(18) 0.7185(6)
H4_4 H 0.1698 0.2105 0.6670
C10_4 C 0.3587(3) 0.09581(17) 0.8188(5)
C11_4 C 0.3573(3) 0.02282(17) 0.8145(5)
C28_4 C 0.6726(3) 0.97539(17) 0.7035(5)
C29_4 C 0.6131(3) 0.94055(17) 0.6541(5)
H13_4 H 0.5570 0.9476 0.6130
C30_4 C 0.6380(3) 0.89513(17) 0.6668(5)
H14_4 H 0.5975 0.8720 0.6318
C31_4 C 0.7757(3) 0.91736(16) 0.7763(5)
H15_4 H 0.8318 0.9095 0.8201
C32_4 C 0.7554(3) 0.96363(16) 0.7647(5)
H16_4 H 0.7965 0.9863 0.7974
C12_4 C 0.3274(3) 0.97539(17) 0.7965(5)
C13_4 C 0.3869(3) 0.94055(17) 0.8459(5)
H5_4 H 0.4430 0.9476 0.8870
C14_4 C 0.3620(3) 0.89513(17) 0.8332(5)
H6_4 H 0.4025 0.8720 0.8682
C15_4 C 0.2243(3) 0.91736(16) 0.7237(5)
H7_4 H 0.1682 0.9095 0.6799
C16_4 C 0.2446(3) 0.96363(16) 0.7353(5)
H8_4 H 0.2035 0.9863 0.7026
loop_
_geom_bond_atom_site_label_1
_geom_bond_atom_site_label_2
_geom_bond_site_symmetry_1
_geom_bond_site_symmetry_2
Ag1 C1 1_555 1_555
Ag2 C2 1_555 1_555
Ag4 C4 1_555 1_555
Fe1 N1 1_555 1_555
O1 C10 1_555 1_555
N1 C1 1_555 1_555
N2 Fe1 1_555 1_555
N3 Fe1 1_555 1_555
N4 Fe1 1_555 1_555
N5 Fe1 1_555 1_555
N6 N7 1_555 1_555
N7 C11 1_555 1_555
N8 C14 1_555 1_555
C2 N2 1_555 1_555
C4 N4 1_555 1_555
C5 N5 1_555 1_555
H1 C5 1_555 1_555
C6 C5 1_555 1_555
H2 C6 1_555 1_555
C7 C6 1_555 1_555
C8 C7 1_555 1_555
H3 C8 1_555 1_555
C9 N5 1_555 1_555
H4 C9 1_555 1_555
C10 N6 1_555 1_555
C11 O1 1_555 1_555
C12 C11 1_555 1_555
C13 C12 1_555 1_555
H5 C13 1_555 1_555
C14 C13 1_555 1_555
H6 C14 1_555 1_555
C15 N8 1_555 1_555
H7 C15 1_555 1_555
C16 C12 1_555 1_555
H8 C16 1_555 1_555
Fe4 N8 1_555 1_555
N18 Fe1 1_555 1_555
C33 Ag1 1_555 1_555
C34 Ag2 1_555 1_555
C7 C10 1_555 1_555
C8 C9 1_555 1_555
C15 C16 1_555 1_555
Ag3 C3 1_555 1_555
C35 Ag4_2 1_555 1_555
Fe2 N9 1_555 1_555
O2 C26 1_555 1_555
N10 Fe2 1_555 1_555
N11 Fe2 1_555 1_555
N12 Fe2 1_555 1_555
N13 Fe2 1_555 1_555
N14 N15 1_555 1_555
N15 C27 1_555 1_555
N16 C30 1_555 1_555
C34 N10 1_555 1_555
C19 Ag3_2 1_555 1_555
C35 N12 1_555 1_555
C21 N13 1_555 1_555
H9 C21 1_555 1_555
C22 C21 1_555 1_555
H10 C22 1_555 1_555
C23 C22 1_555 1_555
C24 C23 1_555 1_555
H11 C24 1_555 1_555
C25 N13 1_555 1_555
H12 C25 1_555 1_555
C26 N14 1_555 1_555
C27 O2 1_555 1_555
C28 C27 1_555 1_555
C29 C28 1_555 1_555
H13 C29 1_555 1_555
C30 C29 1_555 1_555
H14 C30 1_555 1_555
C31 N16 1_555 1_555
H15 C31 1_555 1_555
C32 C28 1_555 1_555
H16 C32 1_555 1_555
Fe3 N16 1_555 1_555
N17 Fe2 1_555 1_555
N11 C19 1_555 1_555
C23 C26 1_555 1_555
C24 C25 1_555 1_555
C31 C32 1_555 1_555
C33_2 Ag1_2 1_555 1_555
C34_2 Ag2_2 1_555 1_555
N17 C14_2 1_555 1_555
C13_2 C12_2 1_555 1_555
H5_2 C13_2 1_555 1_555
C14_2 C13_2 1_555 1_555
H6_2 C14_2 1_555 1_555
C15_2 N17 1_555 1_555
H7_2 C15_2 1_555 1_555
C16_2 C12_2 1_555 1_555
H8_2 C16_2 1_555 1_555
C15_2 C16_2 1_555 1_555
N18 C30_2 1_555 1_555
C29_2 C28_2 1_555 1_555
H13_2 C29_2 1_555 1_555
C30_2 C29_2 1_555 1_555
H14_2 C30_2 1_555 1_555
C31_2 N18 1_555 1_555
H15_2 C31_2 1_555 1_555
C32_2 C28_2 1_555 1_555
H16_2 C32_2 1_555 1_555
C31_2 C32_2 1_555 1_555
Ag1_3 C1_2 1_555 1_555
Ag2_3 C2_2 1_555 1_555
Ag4_3 C4_2 1_555 1_555
Fe3 N1_2 1_555 1_555
O1_2 C10_2 1_555 1_555
N1_2 C1_2 1_555 1_555
N2_2 Fe3 1_555 1_555
N3_2 Fe3 1_555 1_555
N4_2 Fe3 1_555 1_555
N5_2 Fe3 1_555 1_555
N6_2 N7_2 1_555 1_555
N7_2 C11_2 1_555 1_555
C2_2 N2_2 1_555 1_555
C4_2 N4_2 1_555 1_555
C5_2 N5_2 1_555 1_555
H1_2 C5_2 1_555 1_555
C6_2 C5_2 1_555 1_555
H2_2 C6_2 1_555 1_555
C7_2 C6_2 1_555 1_555
C8_2 C7_2 1_555 1_555
H3_2 C8_2 1_555 1_555
C9_2 N5_2 1_555 1_555
H4_2 C9_2 1_555 1_555
C10_2 N6_2 1_555 1_555
C11_2 O1_2 1_555 1_555
C35_2 Ag4_3 1_555 1_555
C7_2 C10_2 1_555 1_555
C8_2 C9_2 1_555 1_555
Ag3_3 C3_2 1_555 1_555
Fe4 N9_2 1_555 1_555
O2_2 C26_2 1_555 1_555
N10_2 Fe4 1_555 1_555
N11_2 Fe4 1_555 1_555
N12_2 Fe4 1_555 1_555
N13_2 Fe4 1_555 1_555
N14_2 N15_2 1_555 1_555
N15_2 C27_2 1_555 1_555
C34_2 N10_2 1_555 1_555
C19_2 Ag3_3 1_555 1_555
C35_2 N12_2 1_555 1_555
C21_2 N13_2 1_555 1_555
H9_2 C21_2 1_555 1_555
C22_2 C21_2 1_555 1_555
H10_2 C22_2 1_555 1_555
C23_2 C22_2 1_555 1_555
C24_2 C23_2 1_555 1_555
H11_2 C24_2 1_555 1_555
C25_2 N13_2 1_555 1_555
H12_2 C25_2 1_555 1_555
C26_2 N14_2 1_555 1_555
C27_2 O2_2 1_555 1_555
N11_2 C19_2 1_555 1_555
C23_2 C26_2 1_555 1_555
C24_2 C25_2 1_555 1_555
C17 Ag5 1_555 1_555
Fe2_2 N9_3 1_555 1_555
O2_3 C26_3 1_555 1_555
N10_3 Fe2_2 1_555 1_555
N11_3 Fe2_2 1_555 1_555
N12_3 Fe2_2 1_555 1_555
N13_3 Fe2_2 1_555 1_555
N14_3 N15_3 1_555 1_555
N15_3 C27_3 1_555 1_555
N16_2 C30_3 1_555 1_555
C18 N10_3 1_555 1_555
C19_3 Ag3_4 1_555 1_555
C20 N12_3 1_555 1_555
C21_3 N13_3 1_555 1_555
H9_3 C21_3 1_555 1_555
C22_3 C21_3 1_555 1_555
H10_3 C22_3 1_555 1_555
C23_3 C22_3 1_555 1_555
C24_3 C23_3 1_555 1_555
H11_3 C24_3 1_555 1_555
C25_3 N13_3 1_555 1_555
H12_3 C25_3 1_555 1_555
C26_3 N14_3 1_555 1_555
C27_3 O2_3 1_555 1_555
C28_3 C27_3 1_555 1_555
C29_3 C28_3 1_555 1_555
H13_3 C29_3 1_555 1_555
C30_3 C29_3 1_555 1_555
H14_3 C30_3 1_555 1_555
C31_3 N16_2 1_555 1_555
H15_3 C31_3 1_555 1_555
C32_3 C28_3 1_555 1_555
H16_3 C32_3 1_555 1_555
Ag6 C18 1_555 1_555
Ag7 C20 1_555 1_555
Fe3_2 N16_2 1_555 1_555
N17_2 Fe2_2 1_555 1_555
N11_3 C19_3 1_555 1_555
C23_3 C26_3 1_555 1_555
C24_3 C25_3 1_555 1_555
C31_3 C32_3 1_555 1_555
Ag3_5 C3_3 1_555 1_555
Ag5 C1_3 1_555 1_555
Ag6 C2_3 1_555 1_555
Ag7_2 C4_3 1_555 1_555
Fe1_2 N1_3 1_555 1_555
O1_3 C10_3 1_555 1_555
N1_3 C1_3 1_555 1_555
N2_3 Fe1_2 1_555 1_555
N3_3 Fe1_2 1_555 1_555
N4_3 Fe1_2 1_555 1_555
N5_3 Fe1_2 1_555 1_555
N6_3 N7_3 1_555 1_555
N7_3 C11_3 1_555 1_555
N8_2 C14_3 1_555 1_555
C2_3 N2_3 1_555 1_555
C4_3 N4_3 1_555 1_555
C5_3 N5_3 1_555 1_555
H1_3 C5_3 1_555 1_555
C6_3 C5_3 1_555 1_555
H2_3 C6_3 1_555 1_555
C7_3 C6_3 1_555 1_555
C8_3 C7_3 1_555 1_555
H3_3 C8_3 1_555 1_555
C9_3 N5_3 1_555 1_555
H4_3 C9_3 1_555 1_555
C10_3 N6_3 1_555 1_555
C11_3 O1_3 1_555 1_555
C12_3 C11_3 1_555 1_555
C13_3 C12_3 1_555 1_555
H5_3 C13_3 1_555 1_555
C14_3 C13_3 1_555 1_555
H6_3 C14_3 1_555 1_555
C15_3 N8_2 1_555 1_555
H7_3 C15_3 1_555 1_555
C16_3 C12_3 1_555 1_555
H8_3 C16_3 1_555 1_555
Fe4_2 N8_2 1_555 1_555
N18_2 Fe1_2 1_555 1_555
C7_3 C10_3 1_555 1_555
C8_3 C9_3 1_555 1_555
C15_3 C16_3 1_555 1_555
C17_2 Ag5_3 1_555 1_555
Ag3_6 C3_4 1_555 1_555
Fe4_2 N9_4 1_555 1_555
O2_4 C26_4 1_555 1_555
N10_4 Fe4_2 1_555 1_555
N11_4 Fe4_2 1_555 1_555
N12_4 Fe4_2 1_555 1_555
N13_4 Fe4_2 1_555 1_555
N14_4 N15_4 1_555 1_555
N15_4 C27_4 1_555 1_555
C18_2 N10_4 1_555 1_555
C19_4 Ag3_6 1_555 1_555
C20_2 N12_4 1_555 1_555
C21_4 N13_4 1_555 1_555
H9_4 C21_4 1_555 1_555
C22_4 C21_4 1_555 1_555
H10_4 C22_4 1_555 1_555
C23_4 C22_4 1_555 1_555
C24_4 C23_4 1_555 1_555
H11_4 C24_4 1_555 1_555
C25_4 N13_4 1_555 1_555
H12_4 C25_4 1_555 1_555
C26_4 N14_4 1_555 1_555
C27_4 O2_4 1_555 1_555
Ag6_3 C18_2 1_555 1_555
Ag7_3 C20_2 1_555 1_555
N11_4 C19_4 1_555 1_555
C23_4 C26_4 1_555 1_555
C24_4 C25_4 1_555 1_555
Ag5_2 C1_4 1_555 1_555
Ag6_2 C2_4 1_555 1_555
Ag7_3 C4_4 1_555 1_555
Fe3_2 N1_4 1_555 1_555
O1_4 C10_4 1_555 1_555
N1_4 C1_4 1_555 1_555
N2_4 Fe3_2 1_555 1_555
N3_4 Fe3_2 1_555 1_555
N4_4 Fe3_2 1_555 1_555
N5_4 Fe3_2 1_555 1_555
N6_4 N7_4 1_555 1_555
N7_4 C11_4 1_555 1_555
C2_4 N2_4 1_555 1_555
C4_4 N4_4 1_555 1_555
C5_4 N5_4 1_555 1_555
H1_4 C5_4 1_555 1_555
C6_4 C5_4 1_555 1_555
H2_4 C6_4 1_555 1_555
C7_4 C6_4 1_555 1_555
C8_4 C7_4 1_555 1_555
H3_4 C8_4 1_555 1_555
C9_4 N5_4 1_555 1_555
H4_4 C9_4 1_555 1_555
C10_4 N6_4 1_555 1_555
C11_4 O1_4 1_555 1_555
C7_4 C10_4 1_555 1_555
C8_4 C9_4 1_555 1_555
N18_2 C30_4 1_555 1_555
C29_4 C28_4 1_555 1_555
H13_4 C29_4 1_555 1_555
C30_4 C29_4 1_555 1_555
H14_4 C30_4 1_555 1_555
C31_4 N18_2 1_555 1_555
H15_4 C31_4 1_555 1_555
C32_4 C28_4 1_555 1_555
H16_4 C32_4 1_555 1_555
C31_4 C32_4 1_555 1_555
N17_2 C14_4 1_555 1_555
C13_4 C12_4 1_555 1_555
H5_4 C13_4 1_555 1_555
C14_4 C13_4 1_555 1_555
H6_4 C14_4 1_555 1_555
C15_4 N17_2 1_555 1_555
H7_4 C15_4 1_555 1_555
C16_4 C12_4 1_555 1_555
H8_4 C16_4 1_555 1_555
C15_4 C16_4 1_555 1_555

#END
