
###############################################################################
#
# This file contains modified crystal structure data generated from the
# MOF subset of the Cambridge Structural Database (CSD) v543 
# hosted by the Cambridge Crystallographic Data Centre (CCDC).
#
# This work is licensed under the Creative Commons
# Attribution-NonCommercial-ShareAlike 4.0 International License.
# To view a copy of this license, visit
# http://creativecommons.org/licenses/by-nc-sa/4.0/
# or send a letter to
# Creative Commons, PO Box 1866, Mountain View, CA 94042, USA.
#
# CIF created using the CSD Python API on 29 September 2022
# The structure has been converted into the P1 space group
# The structure has a 3D framework
# The original CSD entry JOLZIW01 is in the triclinic crystal system
# The framework has been calculated to contain at least 10.0% void space
# The void calculation uses a probe of radius 1.32A, grid spacing 0.4
#
###############################################################################

data_JOLZIW01
_chemical_formula_moiety         '(C64 H32 Ag8 Fe4 N32 O4)n'
_symmetry_cell_setting           triclinic
_symmetry_space_group_name_H-M   'P 1'
_symmetry_Int_Tables_number      1
_space_group_name_Hall           'P 1'
loop_
_symmetry_equiv_pos_site_id
_symmetry_equiv_pos_as_xyz
1 x,y,z
_cell_length_a                   15.5150(19)
_cell_length_b                   17.552(2)
_cell_length_c                   13.9024(16)
_cell_angle_alpha                67.038(4)
_cell_angle_beta                 90.558(4)
_cell_angle_gamma                64.872(4)
_cell_volume                     3085.36
loop_
_atom_site_label
_atom_site_type_symbol
_atom_site_fract_x
_atom_site_fract_y
_atom_site_fract_z
Fe7 Fe 0.06092(10) 0.38114(10) 0.30933(12)
H12 H 0.0442 0.5786 0.2151
N8 N 0.1629(7) 0.2335(6) 0.3922(7)
C12 C 0.3024(8) 0.0471(8) 0.5065(9)
C13 C 0.3273(9) 0.1193(8) 0.4822(11)
H5 H 0.3912 0.1056 0.5066
C14 C 0.2575(8) 0.2109(8) 0.4221(10)
H6 H 0.2759 0.2586 0.4013
C15 C 0.1417(8) 0.1627(7) 0.4187(9)
H7 H 0.0767 0.1783 0.3963
C16 C 0.2049(8) 0.0703(8) 0.4747(10)
H8 H 0.1843 0.0242 0.4914
Ag2 Ag 0.29940(7) 0.41452(8) 0.03898(8)
Ag3 Ag 0.81563(8) 0.35742(7) 0.06940(8)
N10 N 0.9798(8) 0.3553(7) 0.2117(9)
N11 N 0.1487(7) 0.4026(7) 0.1929(8)
C18 C 0.9240(10) 0.3529(9) 0.1601(11)
C19 C 0.2001(9) 0.4100(9) 0.1353(9)
N20 N 0.1399(7) 0.4146(7) 0.4001(8)
Ag1 Ag 0.29504(8) 0.43001(7) 0.53304(9)
Ag4 Ag 0.81788(8) 0.35647(7) 0.57474(8)
Fe1 Fe 0.55997(10) 0.38160(10) 0.80757(11)
O1 O 0.3625(5) 0.8771(5) 0.5845(6)
N1 N 0.4610(7) 0.4072(6) 0.6934(7)
N2 N 0.4600(7) 0.3989(6) 0.8940(8)
N3 N 0.6556(7) 0.3595(6) 0.9216(8)
N4 N 0.6590(7) 0.3650(6) 0.7199(7)
N5 N 0.5215(6) 0.5209(6) 0.7438(7)
N6 N 0.5163(8) 0.8320(7) 0.6484(9)
N7 N 0.4673(7) 0.9287(7) 0.6044(9)
N9 N 0.9736(7) 0.3607(7) 0.4250(8)
N16 N 0.5974(6) 0.2441(6) 0.8682(7)
C1 C 0.4024(9) 0.4196(8) 0.6324(11)
C2 C 0.4023(9) 0.4083(8) 0.9448(10)
C3 C 0.7125(9) 0.3559(8) 0.9789(10)
C4 C 0.7152(9) 0.3582(8) 0.6697(10)
C5 C 0.5910(8) 0.5479(8) 0.7374(10)
H1 H 0.6565 0.5016 0.7590
C6 C 0.5719(8) 0.6388(8) 0.7014(10)
H2 H 0.6226 0.6552 0.6968
C7 C 0.4734(9) 0.7076(8) 0.6710(10)
C8 C 0.4015(8) 0.6797(8) 0.6776(11)
H3 H 0.3355 0.7245 0.6574
C9 C 0.4268(9) 0.5859(8) 0.7140(11)
H4 H 0.3778 0.5673 0.7180
C10 C 0.4530(9) 0.8050(8) 0.6377(11)
C11 C 0.3790(9) 0.9529(8) 0.5676(10)
C17 C 0.9206(10) 0.3570(9) 0.4824(10)
C20 C 0.1917(11) 0.4239(9) 0.4467(11)
C28 C 0.6480(8) 0.0550(8) 0.9420(8)
C29 C 0.5515(8) 0.1239(8) 0.8991(9)
H13 H 0.5020 0.1075 0.8930
C30 C 0.5296(7) 0.2161(7) 0.8656(9)
H14 H 0.4640 0.2617 0.8397
C31 C 0.6934(7) 0.1772(8) 0.9094(9)
H15 H 0.7420 0.1955 0.9110
C32 C 0.7192(8) 0.0817(8) 0.9489(9)
H16 H 0.7844 0.0362 0.9798
O2 O 0.7547(6) 0.8850(5) 0.0339(7)
N13 N 0.9532(7) 0.5277(7) 0.2284(8)
N14 N 0.6487(7) 0.8344(7) 0.0172(9)
C21 C 0.8585(8) 0.5533(8) 0.2113(11)
H9 H 0.8390 0.5064 0.2385
C22 C 0.7881(9) 0.6435(8) 0.1564(11)
H10 H 0.7223 0.6571 0.1465
C23 C 0.8126(9) 0.7157(8) 0.1151(10)
C24 C 0.9126(10) 0.6910(10) 0.1334(12)
H11 H 0.9346 0.7360 0.1054
C25 C 0.9783(8) 0.5951(9) 0.1957(11)
C26 C 0.7376(9) 0.8111(8) 0.0549(10)
N15 N 0.6033(7) 0.9315(7) 0.9666(9)
C27 C 0.6677(8) 0.9590(8) 0.9791(9)
N18 N 0.0264(7) 0.6393(7) 0.5750(8)
N19 N 0.0202(8) 0.6447(7) 0.7883(9)
N21 N 0.0468(7) 0.4723(7) 0.7716(8)
O2_2 O 0.2453(6) 0.1150(5) 0.9661(7)
N14_2 N 0.3513(7) 0.1656(7) 0.9828(9)
C21_2 C 0.1415(8) 0.4467(8) 0.7887(11)
H9_2 H 0.1610 0.4936 0.7615
C22_2 C 0.2119(9) 0.3565(8) 0.8436(11)
H10_2 H 0.2777 0.3429 0.8535
C23_2 C 0.1874(9) 0.2843(8) 0.8849(10)
C24_2 C 0.0874(10) 0.3090(10) 0.8666(12)
H11_2 H 0.0654 0.2640 0.8946
C25_2 C 0.0217(8) 0.4049(9) 0.8043(11)
C26_2 C 0.2624(9) 0.1889(8) 0.9451(10)
Ag1_2 Ag 0.70496(8) 0.56999(7) 0.46696(9)
Ag4_2 Ag 0.18212(8) 0.64353(7) 0.42526(8)
Fe1_2 Fe 0.44003(10) 0.61840(10) 0.19243(11)
O1_2 O 0.6375(5) 0.1229(5) 0.4155(6)
N1_2 N 0.5390(7) 0.5928(6) 0.3066(7)
N2_2 N 0.5400(7) 0.6011(6) 0.1060(8)
N3_2 N 0.3444(7) 0.6405(6) 0.0784(8)
N4_2 N 0.3410(7) 0.6350(6) 0.2801(7)
N5_2 N 0.4785(6) 0.4791(6) 0.2562(7)
N6_2 N 0.4837(8) 0.1680(7) 0.3516(9)
N7_2 N 0.5327(7) 0.0713(7) 0.3956(9)
N12 N 0.8601(7) 0.5854(7) 0.5999(8)
N16_2 N 0.4026(6) 0.7559(6) 0.1318(7)
C1_2 C 0.5976(9) 0.5804(8) 0.3676(11)
C2_2 C 0.5977(9) 0.5917(8) 0.0552(10)
C3_2 C 0.2875(9) 0.6441(8) 0.0211(10)
C4_2 C 0.2848(9) 0.6418(8) 0.3303(10)
C5_2 C 0.4090(8) 0.4521(8) 0.2626(10)
H1_2 H 0.3435 0.4984 0.2410
C6_2 C 0.4281(8) 0.3612(8) 0.2986(10)
H2_2 H 0.3774 0.3448 0.3032
C7_2 C 0.5266(9) 0.2924(8) 0.3290(10)
C8_2 C 0.5985(8) 0.3203(8) 0.3224(11)
H3_2 H 0.6645 0.2755 0.3426
C9_2 C 0.5732(9) 0.4141(8) 0.2860(11)
H4_2 H 0.6222 0.4327 0.2820
C10_2 C 0.5470(9) 0.1950(8) 0.3623(11)
C11_2 C 0.6210(9) 0.0471(8) 0.4324(10)
C17_2 C 0.0794(10) 0.6430(9) 0.5176(10)
C20_2 C 0.8083(11) 0.5761(9) 0.5533(11)
C28_2 C 0.3520(8) 0.9450(8) 0.0580(8)
C29_2 C 0.4485(8) 0.8761(8) 0.1009(9)
H13_2 H 0.4980 0.8925 0.1070
C30_2 C 0.4704(7) 0.7839(7) 0.1344(9)
H14_2 H 0.5360 0.7383 0.1603
C31_2 C 0.3066(7) 0.8228(8) 0.0906(9)
H15_2 H 0.2580 0.8045 0.0890
C32_2 C 0.2808(8) 0.9183(8) 0.0511(9)
H16_2 H 0.2156 0.9638 0.0202
Fe3 Fe 0.93908(10) 0.61886(10) 0.69067(12)
Ag2_2 Ag 0.70060(7) 0.58548(8) 0.96102(8)
Ag3_2 Ag 0.18437(8) 0.64258(7) 0.93060(8)
N11_2 N 0.8513(7) 0.5974(7) 0.8071(8)
C18_2 C 0.0760(10) 0.6471(9) 0.8399(11)
C19_2 C 0.7999(9) 0.5900(9) 0.8647(9)
N17 N 0.8371(7) 0.7665(6) 0.6078(7)
C12_2 C 0.6976(8) 0.9529(8) 0.4935(9)
C13_2 C 0.6727(9) 0.8807(8) 0.5178(11)
H5_2 H 0.6088 0.8944 0.4934
C14_2 C 0.7425(8) 0.7891(8) 0.5779(10)
H6_2 H 0.7241 0.7414 0.5987
C15_2 C 0.8583(8) 0.8373(7) 0.5813(9)
H7_2 H 0.9233 0.8217 0.6037
C16_2 C 0.7951(8) 0.9297(8) 0.5253(10)
H8_2 H 0.8157 0.9758 0.5086
H12_2 H 0.9558 0.4214 0.7849
N15_2 N 0.3967(7) 0.0685(7) 0.0334(9)
C27_2 C 0.3323(8) 0.0410(8) 0.0209(9)
loop_
_geom_bond_atom_site_label_1
_geom_bond_atom_site_label_2
_geom_bond_site_symmetry_1
_geom_bond_site_symmetry_2
N8 C14 1_555 1_555
C13 C12 1_555 1_555
H5 C13 1_555 1_555
C14 C13 1_555 1_555
H6 C14 1_555 1_555
C15 N8 1_555 1_555
H7 C15 1_555 1_555
C16 C12 1_555 1_555
H8 C16 1_555 1_555
Fe7 N8 1_555 1_555
C15 C16 1_555 1_555
Fe7 N11 1_555 1_555
N10 C18 1_555 1_555
N11 C19 1_555 1_555
C18 Ag3 1_555 1_555
C19 Ag2 1_555 1_555
N20 Fe7 1_555 1_555
Ag1 C1 1_555 1_555
Ag4 C4 1_555 1_555
Fe1 N1 1_555 1_555
O1 C10 1_555 1_555
N1 C1 1_555 1_555
N2 Fe1 1_555 1_555
N3 Fe1 1_555 1_555
N4 Fe1 1_555 1_555
N5 Fe1 1_555 1_555
N6 N7 1_555 1_555
N7 C11 1_555 1_555
N9 C17 1_555 1_555
N20 C20 1_555 1_555
N16 Fe1 1_555 1_555
C2 N2 1_555 1_555
C3 N3 1_555 1_555
C4 N4 1_555 1_555
C5 N5 1_555 1_555
H1 C5 1_555 1_555
C6 C5 1_555 1_555
H2 C6 1_555 1_555
C7 C6 1_555 1_555
C8 C7 1_555 1_555
H3 C8 1_555 1_555
C9 N5 1_555 1_555
H4 C9 1_555 1_555
C10 N6 1_555 1_555
C11 O1 1_555 1_555
C17 Ag4 1_555 1_555
C20 Ag1 1_555 1_555
C29 C28 1_555 1_555
H13 C29 1_555 1_555
C30 N16 1_555 1_555
H14 C30 1_555 1_555
C31 N16 1_555 1_555
H15 C31 1_555 1_555
C32 C28 1_555 1_555
H16 C32 1_555 1_555
C7 C10 1_555 1_555
C8 C9 1_555 1_555
C29 C30 1_555 1_555
C31 C32 1_555 1_555
O2 C26 1_555 1_555
N13 C21 1_555 1_555
C21 H9 1_555 1_555
C22 C21 1_555 1_555
H10 C22 1_555 1_555
C23 C22 1_555 1_555
C24 C23 1_555 1_555
H11 C24 1_555 1_555
C25 N13 1_555 1_555
C26 N14 1_555 1_555
C23 C26 1_555 1_555
C24 C25 1_555 1_555
N15 C27 1_555 1_555
O2_2 C26_2 1_555 1_555
N21 C21_2 1_555 1_555
C21_2 H9_2 1_555 1_555
C22_2 C21_2 1_555 1_555
H10_2 C22_2 1_555 1_555
C23_2 C22_2 1_555 1_555
C24_2 C23_2 1_555 1_555
H11_2 C24_2 1_555 1_555
C25_2 N21 1_555 1_555
C26_2 N14_2 1_555 1_555
C23_2 C26_2 1_555 1_555
C24_2 C25_2 1_555 1_555
Ag1_2 C1_2 1_555 1_555
Ag4_2 C4_2 1_555 1_555
Fe1_2 N1_2 1_555 1_555
O1_2 C10_2 1_555 1_555
N1_2 C1_2 1_555 1_555
N2_2 Fe1_2 1_555 1_555
N3_2 Fe1_2 1_555 1_555
N4_2 Fe1_2 1_555 1_555
N5_2 Fe1_2 1_555 1_555
N6_2 N7_2 1_555 1_555
N7_2 C11_2 1_555 1_555
N18 C17_2 1_555 1_555
N12 C20_2 1_555 1_555
N16_2 Fe1_2 1_555 1_555
C2_2 N2_2 1_555 1_555
C3_2 N3_2 1_555 1_555
C4_2 N4_2 1_555 1_555
C5_2 N5_2 1_555 1_555
H1_2 C5_2 1_555 1_555
C6_2 C5_2 1_555 1_555
H2_2 C6_2 1_555 1_555
C7_2 C6_2 1_555 1_555
C8_2 C7_2 1_555 1_555
H3_2 C8_2 1_555 1_555
C9_2 N5_2 1_555 1_555
H4_2 C9_2 1_555 1_555
C10_2 N6_2 1_555 1_555
C11_2 O1_2 1_555 1_555
C17_2 Ag4_2 1_555 1_555
C20_2 Ag1_2 1_555 1_555
C29_2 C28_2 1_555 1_555
H13_2 C29_2 1_555 1_555
C30_2 N16_2 1_555 1_555
H14_2 C30_2 1_555 1_555
C31_2 N16_2 1_555 1_555
H15_2 C31_2 1_555 1_555
C32_2 C28_2 1_555 1_555
H16_2 C32_2 1_555 1_555
Fe3 N12 1_555 1_555
C7_2 C10_2 1_555 1_555
C8_2 C9_2 1_555 1_555
C29_2 C30_2 1_555 1_555
C31_2 C32_2 1_555 1_555
Fe3 N11_2 1_555 1_555
N19 C18_2 1_555 1_555
N11_2 C19_2 1_555 1_555
C18_2 Ag3_2 1_555 1_555
C19_2 Ag2_2 1_555 1_555
N17 Fe3 1_555 1_555
N17 C14_2 1_555 1_555
C13_2 C12_2 1_555 1_555
H5_2 C13_2 1_555 1_555
C14_2 C13_2 1_555 1_555
H6_2 C14_2 1_555 1_555
C15_2 N17 1_555 1_555
H7_2 C15_2 1_555 1_555
C16_2 C12_2 1_555 1_555
H8_2 C16_2 1_555 1_555
C15_2 C16_2 1_555 1_555
N15_2 C27_2 1_555 1_555

#END
