
###############################################################################
#
# This file contains modified crystal structure data generated from the
# MOF subset of the Cambridge Structural Database (CSD) v543 
# hosted by the Cambridge Crystallographic Data Centre (CCDC).
#
# This work is licensed under the Creative Commons
# Attribution-NonCommercial-ShareAlike 4.0 International License.
# To view a copy of this license, visit
# http://creativecommons.org/licenses/by-nc-sa/4.0/
# or send a letter to
# Creative Commons, PO Box 1866, Mountain View, CA 94042, USA.
#
# CIF created using the CSD Python API on 29 September 2022
# The structure has been converted into the P1 space group
# The structure has a 3D framework
# The original CSD entry JOLZIW02 is in the monoclinic crystal system
# The framework has been calculated to contain at least 10.0% void space
# The void calculation uses a probe of radius 1.32A, grid spacing 0.4
#
###############################################################################

data_JOLZIW02
_chemical_formula_moiety         '(C124 H64 Ag18 Fe8 N64 O8)n'
_symmetry_cell_setting           triclinic
_symmetry_space_group_name_H-M   'P 1'
_symmetry_Int_Tables_number      1
_space_group_name_Hall           'P 1'
loop_
_symmetry_equiv_pos_site_id
_symmetry_equiv_pos_as_xyz
1 x,y,z
_cell_length_a                   20.8653(12)
_cell_length_b                   28.7182(18)
_cell_length_c                   13.9679(8)
_cell_angle_alpha                90
_cell_angle_beta                 131.492(2)
_cell_angle_gamma                90
_cell_volume                     6269.35
loop_
_atom_site_label
_atom_site_type_symbol
_atom_site_fract_x
_atom_site_fract_y
_atom_site_fract_z
Ag1 Ag 0.5000 0.20793(3) 0.7500
Ag2 Ag 0.5000 0.21514(3) 0.2500
Ag4 Ag -0.0000 0.17863(3) 0.2500
Fe1 Fe 0.25038(5) 0.19053(3) 0.24978(8)
O1 O 0.1956(3) 0.44035(14) 0.2192(4)
N1 N 0.3460(4) 0.20102(19) 0.4473(6)
N2 N 0.3418(4) 0.20566(19) 0.2356(6)
N3 N 0.1555(4) 0.18084(19) 0.0531(6)
N4 N 0.1591(4) 0.17832(18) 0.2661(6)
N5 N 0.2179(3) 0.26286(17) 0.2241(5)
N6 N 0.0662(4) 0.41657(19) 0.1312(6)
N7 N 0.0675(4) 0.46535(19) 0.1353(6)
N8 N 0.2189(3) 0.61847(17) 0.2279(5)
C1 C 0.4000(5) 0.2052(2) 0.5552(8)
C2 C 0.3971(5) 0.2111(2) 0.2390(8)
C4 C 0.1037(5) 0.1767(2) 0.2645(7)
C5 C 0.1348(4) 0.2756(2) 0.1468(7)
H1 H 0.0927 0.2523 0.1018
C6 C 0.1093(4) 0.3212(2) 0.1311(7)
H2 H 0.0509 0.3287 0.0763
C7 C 0.1704(4) 0.3559(2) 0.1966(6)
C8 C 0.2561(5) 0.3439(2) 0.2733(7)
H3 H 0.2993 0.3667 0.3166
C9 C 0.2760(5) 0.2963(2) 0.2839(7)
H4 H 0.3339 0.2877 0.3366
C10 C 0.1421(4) 0.4042(2) 0.1818(6)
C11 C 0.1434(4) 0.4777(2) 0.1865(6)
C12 C 0.1739(4) 0.5253(2) 0.2047(6)
C13 C 0.1135(4) 0.5601(2) 0.1544(6)
H5 H 0.0564 0.5527 0.1126
C14 C 0.1379(4) 0.6063(2) 0.1662(6)
H6 H 0.0961 0.6297 0.1296
C15 C 0.2776(4) 0.5841(2) 0.2783(6)
H7 H 0.3349 0.5923 0.3234
C16 C 0.2572(4) 0.5373(2) 0.2666(6)
H8 H 0.2993 0.5143 0.3003
Fe4 Fe 0.24962(5) 0.69053(3) 0.25022(8)
N18 N 0.2811(3) 0.11847(17) 0.2721(5)
C33 C 0.6000(5) 0.2052(2) 0.9448(8)
C34 C 0.6029(5) 0.2111(2) 0.2610(8)
Ag3 Ag -0.0000 0.17785(3) 0.7500
C3 C 0.1012(5) 0.1782(2) 0.9450(8)
Ag4_2 Ag 1.0000 0.17863(3) 0.2500
C35 C 0.8963(5) 0.1767(2) 0.2355(7)
Ag3_2 Ag 1.0000 0.17785(3) 0.7500
Fe2 Fe 0.74962(5) 0.19053(3) 0.25022(8)
O2 O 0.8044(3) 0.44035(14) 0.2808(4)
N9 N 0.6540(4) 0.20102(19) 0.0527(6)
N10 N 0.6582(4) 0.20566(19) 0.2644(6)
N11 N 0.8445(4) 0.18084(19) 0.4469(6)
N12 N 0.8409(4) 0.17832(18) 0.2339(6)
N13 N 0.7821(3) 0.26286(17) 0.2759(5)
N14 N 0.9338(4) 0.41657(19) 0.3688(6)
N15 N 0.9325(4) 0.46535(19) 0.3647(6)
N16 N 0.7811(3) 0.61847(17) 0.2721(5)
C19 C 0.8988(5) 0.1782(2) 0.5550(8)
C21 C 0.8652(4) 0.2756(2) 0.3532(7)
H9 H 0.9073 0.2523 0.3982
C22 C 0.8907(4) 0.3212(2) 0.3689(7)
H10 H 0.9491 0.3287 0.4237
C23 C 0.8296(4) 0.3559(2) 0.3034(6)
C24 C 0.7439(5) 0.3439(2) 0.2267(7)
H11 H 0.7007 0.3667 0.1834
C25 C 0.7240(5) 0.2963(2) 0.2161(7)
H12 H 0.6661 0.2877 0.1634
C26 C 0.8579(4) 0.4042(2) 0.3182(6)
C27 C 0.8566(4) 0.4777(2) 0.3135(6)
C28 C 0.8261(4) 0.5253(2) 0.2953(6)
C29 C 0.8865(4) 0.5601(2) 0.3456(6)
H13 H 0.9436 0.5527 0.3874
C30 C 0.8621(4) 0.6063(2) 0.3338(6)
H14 H 0.9039 0.6297 0.3704
C31 C 0.7224(4) 0.5841(2) 0.2217(6)
H15 H 0.6651 0.5923 0.1766
C32 C 0.7428(4) 0.5373(2) 0.2334(6)
H16 H 0.7007 0.5143 0.1997
Fe3 Fe 0.75038(5) 0.69053(3) 0.24978(8)
N17 N 0.7189(3) 0.11847(17) 0.2279(5)
Ag1_2 Ag -0.0000 0.70793(3) 0.7500
Ag2_2 Ag -0.0000 0.71514(3) 0.2500
C33_2 C 0.1000(5) 0.7052(2) 0.9448(8)
C34_2 C 0.1029(5) 0.7111(2) 0.2610(8)
C12_2 C 0.6739(4) 0.0253(2) 0.2047(6)
C13_2 C 0.6135(4) 0.0601(2) 0.1544(6)
H5_2 H 0.5564 0.0527 0.1126
C14_2 C 0.6379(4) 0.1063(2) 0.1662(6)
H6_2 H 0.5961 0.1297 0.1296
C15_2 C 0.7776(4) 0.0841(2) 0.2783(6)
H7_2 H 0.8349 0.0923 0.3234
C16_2 C 0.7572(4) 0.0373(2) 0.2666(6)
H8_2 H 0.7993 0.0143 0.3003
C28_2 C 0.3261(4) 0.0253(2) 0.2953(6)
C29_2 C 0.3865(4) 0.0601(2) 0.3456(6)
H13_2 H 0.4436 0.0527 0.3874
C30_2 C 0.3621(4) 0.1063(2) 0.3338(6)
H14_2 H 0.4039 0.1297 0.3704
C31_2 C 0.2224(4) 0.0841(2) 0.2217(6)
H15_2 H 0.1651 0.0923 0.1766
C32_2 C 0.2428(4) 0.0373(2) 0.2334(6)
H16_2 H 0.2007 0.0143 0.1997
Ag1_3 Ag 1.0000 0.70793(3) 0.7500
Ag2_3 Ag 1.0000 0.71514(3) 0.2500
Ag4_3 Ag 0.5000 0.67863(3) 0.2500
O1_2 O 0.6956(3) 0.94035(14) 0.2192(4)
N1_2 N 0.8460(4) 0.70102(19) 0.4473(6)
N2_2 N 0.8418(4) 0.70566(19) 0.2356(6)
N3_2 N 0.6555(4) 0.68084(19) 0.0531(6)
N4_2 N 0.6591(4) 0.67832(18) 0.2661(6)
N5_2 N 0.7179(3) 0.76286(17) 0.2241(5)
N6_2 N 0.5662(4) 0.91657(19) 0.1312(6)
N7_2 N 0.5675(4) 0.96535(19) 0.1353(6)
C1_2 C 0.9000(5) 0.7052(2) 0.5552(8)
C2_2 C 0.8971(5) 0.7111(2) 0.2390(8)
C4_2 C 0.6037(5) 0.6767(2) 0.2645(7)
C5_2 C 0.6348(4) 0.7756(2) 0.1468(7)
H1_2 H 0.5927 0.7523 0.1018
C6_2 C 0.6093(4) 0.8212(2) 0.1311(7)
H2_2 H 0.5509 0.8287 0.0763
C7_2 C 0.6704(4) 0.8559(2) 0.1966(6)
C8_2 C 0.7561(5) 0.8439(2) 0.2733(7)
H3_2 H 0.7993 0.8667 0.3166
C9_2 C 0.7760(5) 0.7963(2) 0.2839(7)
H4_2 H 0.8339 0.7877 0.3366
C10_2 C 0.6421(4) 0.9042(2) 0.1818(6)
C11_2 C 0.6434(4) 0.9777(2) 0.1865(6)
C35_2 C 0.3963(5) 0.6767(2) 0.2355(7)
Ag3_3 Ag 0.5000 0.67785(3) 0.7500
C3_2 C 0.6012(5) 0.6782(2) 0.9450(8)
O2_2 O 0.3044(3) 0.94035(14) 0.2808(4)
N9_2 N 0.1540(4) 0.70102(19) 0.0527(6)
N10_2 N 0.1582(4) 0.70566(19) 0.2644(6)
N11_2 N 0.3445(4) 0.68084(19) 0.4469(6)
N12_2 N 0.3409(4) 0.67832(18) 0.2339(6)
N13_2 N 0.2821(3) 0.76286(17) 0.2759(5)
N14_2 N 0.4338(4) 0.91657(19) 0.3688(6)
N15_2 N 0.4325(4) 0.96535(19) 0.3647(6)
C19_2 C 0.3988(5) 0.6782(2) 0.5550(8)
C21_2 C 0.3652(4) 0.7756(2) 0.3532(7)
H9_2 H 0.4073 0.7523 0.3982
C22_2 C 0.3907(4) 0.8212(2) 0.3689(7)
H10_2 H 0.4491 0.8287 0.4237
C23_2 C 0.3296(4) 0.8559(2) 0.3034(6)
C24_2 C 0.2439(5) 0.8439(2) 0.2267(7)
H11_2 H 0.2007 0.8667 0.1834
C25_2 C 0.2240(5) 0.7963(2) 0.2161(7)
H12_2 H 0.1661 0.7877 0.1634
C26_2 C 0.3579(4) 0.9042(2) 0.3182(6)
C27_2 C 0.3566(4) 0.9777(2) 0.3135(6)
C17 C 0.4000(5) 0.7948(2) 0.0552(8)
Ag5 Ag 0.5000 0.79207(3) 0.2500
Ag3_4 Ag -0.0000 0.82215(3) 0.2500
Fe2_2 Fe 0.25038(5) 0.80947(3) 0.74978(8)
O2_3 O 0.1956(3) 0.55965(14) 0.7192(4)
N9_3 N 0.3460(4) 0.79898(19) 0.9473(6)
N10_3 N 0.3418(4) 0.79434(19) 0.7356(6)
N11_3 N 0.1555(4) 0.81916(19) 0.5531(6)
N12_3 N 0.1591(4) 0.82168(18) 0.7661(6)
N13_3 N 0.2179(3) 0.73714(17) 0.7241(5)
N14_3 N 0.0662(4) 0.58343(19) 0.6312(6)
N15_3 N 0.0675(4) 0.53465(19) 0.6353(6)
N16_2 N 0.2189(3) 0.38153(17) 0.7279(5)
C18 C 0.3971(5) 0.7889(2) 0.7390(8)
C19_3 C 0.1012(5) 0.8218(2) 0.4450(8)
C20 C 0.1037(5) 0.8233(2) 0.7645(7)
C21_3 C 0.1348(4) 0.7244(2) 0.6468(7)
H9_3 H 0.0927 0.7477 0.6018
C22_3 C 0.1093(4) 0.6788(2) 0.6311(7)
H10_3 H 0.0509 0.6713 0.5763
C23_3 C 0.1704(4) 0.6441(2) 0.6966(6)
C24_3 C 0.2561(5) 0.6561(2) 0.7733(7)
H11_3 H 0.2993 0.6333 0.8166
C25_3 C 0.2760(5) 0.7037(2) 0.7839(7)
H12_3 H 0.3339 0.7123 0.8366
C26_3 C 0.1421(4) 0.5958(2) 0.6818(6)
C27_3 C 0.1434(4) 0.5223(2) 0.6865(6)
C28_3 C 0.1739(4) 0.4747(2) 0.7047(6)
C29_3 C 0.1135(4) 0.4399(2) 0.6544(6)
H13_3 H 0.0564 0.4473 0.6126
C30_3 C 0.1379(4) 0.3937(2) 0.6662(6)
H14_3 H 0.0961 0.3703 0.6296
C31_3 C 0.2776(4) 0.4159(2) 0.7783(6)
H15_3 H 0.3349 0.4077 0.8234
C32_3 C 0.2572(4) 0.4627(2) 0.7666(6)
H16_3 H 0.2993 0.4857 0.8003
Ag6 Ag 0.5000 0.78486(3) 0.7500
Ag7 Ag -0.0000 0.82137(3) 0.7500
Fe3_2 Fe 0.24962(5) 0.30947(3) 0.75022(8)
N17_2 N 0.2811(3) 0.88153(17) 0.7721(5)
Ag3_5 Ag 1.0000 0.82215(3) 0.2500
C3_3 C 0.8988(5) 0.8218(2) 0.0550(8)
Ag7_2 Ag 1.0000 0.82137(3) 0.7500
Fe1_2 Fe 0.74962(5) 0.80947(3) 0.75022(8)
O1_3 O 0.8044(3) 0.55965(14) 0.7808(4)
N1_3 N 0.6540(4) 0.79898(19) 0.5527(6)
N2_3 N 0.6582(4) 0.79434(19) 0.7644(6)
N3_3 N 0.8445(4) 0.81916(19) 0.9469(6)
N4_3 N 0.8409(4) 0.82168(18) 0.7339(6)
N5_3 N 0.7821(3) 0.73714(17) 0.7759(5)
N6_3 N 0.9338(4) 0.58343(19) 0.8688(6)
N7_3 N 0.9325(4) 0.53465(19) 0.8647(6)
N8_2 N 0.7811(3) 0.38153(17) 0.7721(5)
C1_3 C 0.6000(5) 0.7948(2) 0.4448(8)
C2_3 C 0.6029(5) 0.7889(2) 0.7610(8)
C4_3 C 0.8963(5) 0.8233(2) 0.7355(7)
C5_3 C 0.8652(4) 0.7244(2) 0.8532(7)
H1_3 H 0.9073 0.7477 0.8982
C6_3 C 0.8907(4) 0.6788(2) 0.8689(7)
H2_3 H 0.9491 0.6713 0.9237
C7_3 C 0.8296(4) 0.6441(2) 0.8034(6)
C8_3 C 0.7439(5) 0.6561(2) 0.7267(7)
H3_3 H 0.7007 0.6333 0.6834
C9_3 C 0.7240(5) 0.7037(2) 0.7161(7)
H4_3 H 0.6661 0.7123 0.6634
C10_3 C 0.8579(4) 0.5958(2) 0.8182(6)
C11_3 C 0.8566(4) 0.5223(2) 0.8135(6)
C12_3 C 0.8261(4) 0.4747(2) 0.7953(6)
C13_3 C 0.8865(4) 0.4399(2) 0.8456(6)
H5_3 H 0.9436 0.4473 0.8874
C14_3 C 0.8621(4) 0.3937(2) 0.8338(6)
H6_3 H 0.9039 0.3703 0.8704
C15_3 C 0.7224(4) 0.4159(2) 0.7217(6)
H7_3 H 0.6651 0.4077 0.6766
C16_3 C 0.7428(4) 0.4627(2) 0.7334(6)
H8_3 H 0.7007 0.4857 0.6997
Fe4_2 Fe 0.75038(5) 0.30947(3) 0.74978(8)
N18_2 N 0.7189(3) 0.88153(17) 0.7279(5)
Ag5_2 Ag -0.0000 0.29207(3) 0.2500
Ag6_2 Ag -0.0000 0.28486(3) 0.7500
C17_2 C 0.9000(5) 0.2948(2) 0.0552(8)
Ag5_3 Ag 1.0000 0.29207(3) 0.2500
Ag3_6 Ag 0.5000 0.32215(3) 0.2500
C3_4 C 0.3988(5) 0.3218(2) 0.0550(8)
O2_4 O 0.6956(3) 0.05965(14) 0.7192(4)
N9_4 N 0.8460(4) 0.29898(19) 0.9473(6)
N10_4 N 0.8418(4) 0.29434(19) 0.7356(6)
N11_4 N 0.6555(4) 0.31916(19) 0.5531(6)
N12_4 N 0.6591(4) 0.32168(18) 0.7661(6)
N13_4 N 0.7179(3) 0.23714(17) 0.7241(5)
N14_4 N 0.5662(4) 0.08343(19) 0.6312(6)
N15_4 N 0.5675(4) 0.03465(19) 0.6353(6)
C18_2 C 0.8971(5) 0.2889(2) 0.7390(8)
C19_4 C 0.6012(5) 0.3218(2) 0.4450(8)
C20_2 C 0.6037(5) 0.3233(2) 0.7645(7)
C21_4 C 0.6348(4) 0.2244(2) 0.6468(7)
H9_4 H 0.5927 0.2477 0.6018
C22_4 C 0.6093(4) 0.1788(2) 0.6311(7)
H10_4 H 0.5509 0.1713 0.5763
C23_4 C 0.6704(4) 0.1441(2) 0.6966(6)
C24_4 C 0.7561(5) 0.1561(2) 0.7733(7)
H11_4 H 0.7993 0.1333 0.8166
C25_4 C 0.7760(5) 0.2037(2) 0.7839(7)
H12_4 H 0.8339 0.2123 0.8366
C26_4 C 0.6421(4) 0.0958(2) 0.6818(6)
C27_4 C 0.6434(4) 0.0223(2) 0.6865(6)
Ag6_3 Ag 1.0000 0.28486(3) 0.7500
Ag7_3 Ag 0.5000 0.32137(3) 0.7500
O1_4 O 0.3044(3) 0.05965(14) 0.7808(4)
N1_4 N 0.1540(4) 0.29898(19) 0.5527(6)
N2_4 N 0.1582(4) 0.29434(19) 0.7644(6)
N3_4 N 0.3445(4) 0.31916(19) 0.9469(6)
N4_4 N 0.3409(4) 0.32168(18) 0.7339(6)
N5_4 N 0.2821(3) 0.23714(17) 0.7759(5)
N6_4 N 0.4338(4) 0.08343(19) 0.8688(6)
N7_4 N 0.4325(4) 0.03465(19) 0.8647(6)
C1_4 C 0.1000(5) 0.2948(2) 0.4448(8)
C2_4 C 0.1029(5) 0.2889(2) 0.7610(8)
C4_4 C 0.3963(5) 0.3233(2) 0.7355(7)
C5_4 C 0.3652(4) 0.2244(2) 0.8532(7)
H1_4 H 0.4073 0.2477 0.8982
C6_4 C 0.3907(4) 0.1788(2) 0.8689(7)
H2_4 H 0.4491 0.1713 0.9237
C7_4 C 0.3296(4) 0.1441(2) 0.8034(6)
C8_4 C 0.2439(5) 0.1561(2) 0.7267(7)
H3_4 H 0.2007 0.1333 0.6834
C9_4 C 0.2240(5) 0.2037(2) 0.7161(7)
H4_4 H 0.1661 0.2123 0.6634
C10_4 C 0.3579(4) 0.0958(2) 0.8182(6)
C11_4 C 0.3566(4) 0.0223(2) 0.8135(6)
C28_4 C 0.6739(4) 0.9747(2) 0.7047(6)
C29_4 C 0.6135(4) 0.9399(2) 0.6544(6)
H13_4 H 0.5564 0.9473 0.6126
C30_4 C 0.6379(4) 0.8937(2) 0.6662(6)
H14_4 H 0.5961 0.8703 0.6296
C31_4 C 0.7776(4) 0.9159(2) 0.7783(6)
H15_4 H 0.8349 0.9077 0.8234
C32_4 C 0.7572(4) 0.9627(2) 0.7666(6)
H16_4 H 0.7993 0.9857 0.8003
C12_4 C 0.3261(4) 0.9747(2) 0.7953(6)
C13_4 C 0.3865(4) 0.9399(2) 0.8456(6)
H5_4 H 0.4436 0.9473 0.8874
C14_4 C 0.3621(4) 0.8937(2) 0.8338(6)
H6_4 H 0.4039 0.8703 0.8704
C15_4 C 0.2224(4) 0.9159(2) 0.7217(6)
H7_4 H 0.1651 0.9077 0.6766
C16_4 C 0.2428(4) 0.9627(2) 0.7334(6)
H8_4 H 0.2007 0.9857 0.6997
loop_
_geom_bond_atom_site_label_1
_geom_bond_atom_site_label_2
_geom_bond_site_symmetry_1
_geom_bond_site_symmetry_2
Ag1 C1 1_555 1_555
Ag2 C2 1_555 1_555
Ag4 C4 1_555 1_555
Fe1 N1 1_555 1_555
O1 C10 1_555 1_555
N1 C1 1_555 1_555
N2 Fe1 1_555 1_555
N3 Fe1 1_555 1_555
N4 Fe1 1_555 1_555
N5 Fe1 1_555 1_555
N6 N7 1_555 1_555
N7 C11 1_555 1_555
N8 C14 1_555 1_555
C2 N2 1_555 1_555
C4 N4 1_555 1_555
C5 N5 1_555 1_555
H1 C5 1_555 1_555
C6 C5 1_555 1_555
H2 C6 1_555 1_555
C7 C6 1_555 1_555
C8 C7 1_555 1_555
H3 C8 1_555 1_555
C9 N5 1_555 1_555
H4 C9 1_555 1_555
C10 N6 1_555 1_555
C11 O1 1_555 1_555
C12 C11 1_555 1_555
C13 C12 1_555 1_555
H5 C13 1_555 1_555
C14 C13 1_555 1_555
H6 C14 1_555 1_555
C15 N8 1_555 1_555
H7 C15 1_555 1_555
C16 C12 1_555 1_555
H8 C16 1_555 1_555
Fe4 N8 1_555 1_555
N18 Fe1 1_555 1_555
C33 Ag1 1_555 1_555
C34 Ag2 1_555 1_555
C7 C10 1_555 1_555
C8 C9 1_555 1_555
C15 C16 1_555 1_555
Ag3 C3 1_555 1_555
C35 Ag4_2 1_555 1_555
Fe2 N9 1_555 1_555
O2 C26 1_555 1_555
N10 Fe2 1_555 1_555
N11 Fe2 1_555 1_555
N12 Fe2 1_555 1_555
N13 Fe2 1_555 1_555
N14 N15 1_555 1_555
N15 C27 1_555 1_555
N16 C30 1_555 1_555
C34 N10 1_555 1_555
C19 Ag3_2 1_555 1_555
C35 N12 1_555 1_555
C21 N13 1_555 1_555
H9 C21 1_555 1_555
C22 C21 1_555 1_555
H10 C22 1_555 1_555
C23 C22 1_555 1_555
C24 C23 1_555 1_555
H11 C24 1_555 1_555
C25 N13 1_555 1_555
H12 C25 1_555 1_555
C26 N14 1_555 1_555
C27 O2 1_555 1_555
C28 C27 1_555 1_555
C29 C28 1_555 1_555
H13 C29 1_555 1_555
C30 C29 1_555 1_555
H14 C30 1_555 1_555
C31 N16 1_555 1_555
H15 C31 1_555 1_555
C32 C28 1_555 1_555
H16 C32 1_555 1_555
Fe3 N16 1_555 1_555
N17 Fe2 1_555 1_555
N11 C19 1_555 1_555
C23 C26 1_555 1_555
C24 C25 1_555 1_555
C31 C32 1_555 1_555
C33_2 Ag1_2 1_555 1_555
C34_2 Ag2_2 1_555 1_555
N17 C14_2 1_555 1_555
C13_2 C12_2 1_555 1_555
H5_2 C13_2 1_555 1_555
C14_2 C13_2 1_555 1_555
H6_2 C14_2 1_555 1_555
C15_2 N17 1_555 1_555
H7_2 C15_2 1_555 1_555
C16_2 C12_2 1_555 1_555
H8_2 C16_2 1_555 1_555
C15_2 C16_2 1_555 1_555
N18 C30_2 1_555 1_555
C29_2 C28_2 1_555 1_555
H13_2 C29_2 1_555 1_555
C30_2 C29_2 1_555 1_555
H14_2 C30_2 1_555 1_555
C31_2 N18 1_555 1_555
H15_2 C31_2 1_555 1_555
C32_2 C28_2 1_555 1_555
H16_2 C32_2 1_555 1_555
C31_2 C32_2 1_555 1_555
Ag1_3 C1_2 1_555 1_555
Ag2_3 C2_2 1_555 1_555
Ag4_3 C4_2 1_555 1_555
Fe3 N1_2 1_555 1_555
O1_2 C10_2 1_555 1_555
N1_2 C1_2 1_555 1_555
N2_2 Fe3 1_555 1_555
N3_2 Fe3 1_555 1_555
N4_2 Fe3 1_555 1_555
N5_2 Fe3 1_555 1_555
N6_2 N7_2 1_555 1_555
N7_2 C11_2 1_555 1_555
C2_2 N2_2 1_555 1_555
C4_2 N4_2 1_555 1_555
C5_2 N5_2 1_555 1_555
H1_2 C5_2 1_555 1_555
C6_2 C5_2 1_555 1_555
H2_2 C6_2 1_555 1_555
C7_2 C6_2 1_555 1_555
C8_2 C7_2 1_555 1_555
H3_2 C8_2 1_555 1_555
C9_2 N5_2 1_555 1_555
H4_2 C9_2 1_555 1_555
C10_2 N6_2 1_555 1_555
C11_2 O1_2 1_555 1_555
C35_2 Ag4_3 1_555 1_555
C7_2 C10_2 1_555 1_555
C8_2 C9_2 1_555 1_555
Ag3_3 C3_2 1_555 1_555
Fe4 N9_2 1_555 1_555
O2_2 C26_2 1_555 1_555
N10_2 Fe4 1_555 1_555
N11_2 Fe4 1_555 1_555
N12_2 Fe4 1_555 1_555
N13_2 Fe4 1_555 1_555
N14_2 N15_2 1_555 1_555
N15_2 C27_2 1_555 1_555
C34_2 N10_2 1_555 1_555
C19_2 Ag3_3 1_555 1_555
C35_2 N12_2 1_555 1_555
C21_2 N13_2 1_555 1_555
H9_2 C21_2 1_555 1_555
C22_2 C21_2 1_555 1_555
H10_2 C22_2 1_555 1_555
C23_2 C22_2 1_555 1_555
C24_2 C23_2 1_555 1_555
H11_2 C24_2 1_555 1_555
C25_2 N13_2 1_555 1_555
H12_2 C25_2 1_555 1_555
C26_2 N14_2 1_555 1_555
C27_2 O2_2 1_555 1_555
N11_2 C19_2 1_555 1_555
C23_2 C26_2 1_555 1_555
C24_2 C25_2 1_555 1_555
C17 Ag5 1_555 1_555
Fe2_2 N9_3 1_555 1_555
O2_3 C26_3 1_555 1_555
N10_3 Fe2_2 1_555 1_555
N11_3 Fe2_2 1_555 1_555
N12_3 Fe2_2 1_555 1_555
N13_3 Fe2_2 1_555 1_555
N14_3 N15_3 1_555 1_555
N15_3 C27_3 1_555 1_555
N16_2 C30_3 1_555 1_555
C18 N10_3 1_555 1_555
C19_3 Ag3_4 1_555 1_555
C20 N12_3 1_555 1_555
C21_3 N13_3 1_555 1_555
H9_3 C21_3 1_555 1_555
C22_3 C21_3 1_555 1_555
H10_3 C22_3 1_555 1_555
C23_3 C22_3 1_555 1_555
C24_3 C23_3 1_555 1_555
H11_3 C24_3 1_555 1_555
C25_3 N13_3 1_555 1_555
H12_3 C25_3 1_555 1_555
C26_3 N14_3 1_555 1_555
C27_3 O2_3 1_555 1_555
C28_3 C27_3 1_555 1_555
C29_3 C28_3 1_555 1_555
H13_3 C29_3 1_555 1_555
C30_3 C29_3 1_555 1_555
H14_3 C30_3 1_555 1_555
C31_3 N16_2 1_555 1_555
H15_3 C31_3 1_555 1_555
C32_3 C28_3 1_555 1_555
H16_3 C32_3 1_555 1_555
Ag6 C18 1_555 1_555
Ag7 C20 1_555 1_555
Fe3_2 N16_2 1_555 1_555
N17_2 Fe2_2 1_555 1_555
N11_3 C19_3 1_555 1_555
C23_3 C26_3 1_555 1_555
C24_3 C25_3 1_555 1_555
C31_3 C32_3 1_555 1_555
Ag3_5 C3_3 1_555 1_555
Ag5 C1_3 1_555 1_555
Ag6 C2_3 1_555 1_555
Ag7_2 C4_3 1_555 1_555
Fe1_2 N1_3 1_555 1_555
O1_3 C10_3 1_555 1_555
N1_3 C1_3 1_555 1_555
N2_3 Fe1_2 1_555 1_555
N3_3 Fe1_2 1_555 1_555
N4_3 Fe1_2 1_555 1_555
N5_3 Fe1_2 1_555 1_555
N6_3 N7_3 1_555 1_555
N7_3 C11_3 1_555 1_555
N8_2 C14_3 1_555 1_555
C2_3 N2_3 1_555 1_555
C4_3 N4_3 1_555 1_555
C5_3 N5_3 1_555 1_555
H1_3 C5_3 1_555 1_555
C6_3 C5_3 1_555 1_555
H2_3 C6_3 1_555 1_555
C7_3 C6_3 1_555 1_555
C8_3 C7_3 1_555 1_555
H3_3 C8_3 1_555 1_555
C9_3 N5_3 1_555 1_555
H4_3 C9_3 1_555 1_555
C10_3 N6_3 1_555 1_555
C11_3 O1_3 1_555 1_555
C12_3 C11_3 1_555 1_555
C13_3 C12_3 1_555 1_555
H5_3 C13_3 1_555 1_555
C14_3 C13_3 1_555 1_555
H6_3 C14_3 1_555 1_555
C15_3 N8_2 1_555 1_555
H7_3 C15_3 1_555 1_555
C16_3 C12_3 1_555 1_555
H8_3 C16_3 1_555 1_555
Fe4_2 N8_2 1_555 1_555
N18_2 Fe1_2 1_555 1_555
C7_3 C10_3 1_555 1_555
C8_3 C9_3 1_555 1_555
C15_3 C16_3 1_555 1_555
C17_2 Ag5_3 1_555 1_555
Ag3_6 C3_4 1_555 1_555
Fe4_2 N9_4 1_555 1_555
O2_4 C26_4 1_555 1_555
N10_4 Fe4_2 1_555 1_555
N11_4 Fe4_2 1_555 1_555
N12_4 Fe4_2 1_555 1_555
N13_4 Fe4_2 1_555 1_555
N14_4 N15_4 1_555 1_555
N15_4 C27_4 1_555 1_555
C18_2 N10_4 1_555 1_555
C19_4 Ag3_6 1_555 1_555
C20_2 N12_4 1_555 1_555
C21_4 N13_4 1_555 1_555
H9_4 C21_4 1_555 1_555
C22_4 C21_4 1_555 1_555
H10_4 C22_4 1_555 1_555
C23_4 C22_4 1_555 1_555
C24_4 C23_4 1_555 1_555
H11_4 C24_4 1_555 1_555
C25_4 N13_4 1_555 1_555
H12_4 C25_4 1_555 1_555
C26_4 N14_4 1_555 1_555
C27_4 O2_4 1_555 1_555
Ag6_3 C18_2 1_555 1_555
Ag7_3 C20_2 1_555 1_555
N11_4 C19_4 1_555 1_555
C23_4 C26_4 1_555 1_555
C24_4 C25_4 1_555 1_555
Ag5_2 C1_4 1_555 1_555
Ag6_2 C2_4 1_555 1_555
Ag7_3 C4_4 1_555 1_555
Fe3_2 N1_4 1_555 1_555
O1_4 C10_4 1_555 1_555
N1_4 C1_4 1_555 1_555
N2_4 Fe3_2 1_555 1_555
N3_4 Fe3_2 1_555 1_555
N4_4 Fe3_2 1_555 1_555
N5_4 Fe3_2 1_555 1_555
N6_4 N7_4 1_555 1_555
N7_4 C11_4 1_555 1_555
C2_4 N2_4 1_555 1_555
C4_4 N4_4 1_555 1_555
C5_4 N5_4 1_555 1_555
H1_4 C5_4 1_555 1_555
C6_4 C5_4 1_555 1_555
H2_4 C6_4 1_555 1_555
C7_4 C6_4 1_555 1_555
C8_4 C7_4 1_555 1_555
H3_4 C8_4 1_555 1_555
C9_4 N5_4 1_555 1_555
H4_4 C9_4 1_555 1_555
C10_4 N6_4 1_555 1_555
C11_4 O1_4 1_555 1_555
C7_4 C10_4 1_555 1_555
C8_4 C9_4 1_555 1_555
N18_2 C30_4 1_555 1_555
C29_4 C28_4 1_555 1_555
H13_4 C29_4 1_555 1_555
C30_4 C29_4 1_555 1_555
H14_4 C30_4 1_555 1_555
C31_4 N18_2 1_555 1_555
H15_4 C31_4 1_555 1_555
C32_4 C28_4 1_555 1_555
H16_4 C32_4 1_555 1_555
C31_4 C32_4 1_555 1_555
N17_2 C14_4 1_555 1_555
C13_4 C12_4 1_555 1_555
H5_4 C13_4 1_555 1_555
C14_4 C13_4 1_555 1_555
H6_4 C14_4 1_555 1_555
C15_4 N17_2 1_555 1_555
H7_4 C15_4 1_555 1_555
C16_4 C12_4 1_555 1_555
H8_4 C16_4 1_555 1_555
C15_4 C16_4 1_555 1_555

#END
