
###############################################################################
#
# This file contains modified crystal structure data generated from the
# MOF subset of the Cambridge Structural Database (CSD) v543 
# hosted by the Cambridge Crystallographic Data Centre (CCDC).
#
# This work is licensed under the Creative Commons
# Attribution-NonCommercial-ShareAlike 4.0 International License.
# To view a copy of this license, visit
# http://creativecommons.org/licenses/by-nc-sa/4.0/
# or send a letter to
# Creative Commons, PO Box 1866, Mountain View, CA 94042, USA.
#
# CIF created using the CSD Python API on 29 September 2022
# The structure has been converted into the P1 space group
# The structure has a 3D framework
# The original CSD entry JOLZIW is in the triclinic crystal system
# The framework has been calculated to contain at least 10.0% void space
# The void calculation uses a probe of radius 1.32A, grid spacing 0.4
#
###############################################################################

data_JOLZIW
_chemical_formula_moiety         '(C126 H64 Ag14 Fe8 N64 O8)n'
_symmetry_cell_setting           triclinic
_symmetry_space_group_name_H-M   'P 1'
_symmetry_Int_Tables_number      1
_space_group_name_Hall           'P 1'
loop_
_symmetry_equiv_pos_site_id
_symmetry_equiv_pos_as_xyz
1 x,y,z
_cell_length_a                   27.8418(18)
_cell_length_b                   17.5236(14)
_cell_length_c                   13.7996(9)
_cell_angle_alpha                67.033(2)
_cell_angle_beta                 76.138(2)
_cell_angle_gamma                87.708(3)
_cell_volume                     6007.64
loop_
_atom_site_label
_atom_site_type_symbol
_atom_site_fract_x
_atom_site_fract_y
_atom_site_fract_z
Ag7 Ag 0.15066(4) 0.56171(8) 0.39205(9)
Ag8 Ag 0.14719(4) 0.57491(8) 0.88825(11)
Fe4 Fe 0.02981(6) 0.41145(12) 0.77997(15)
N27 N 0.0743(4) 0.4754(6) 0.6225(9)
N28 N 0.0687(3) 0.4814(7) 0.8304(9)
C51 C 0.1002(5) 0.5085(9) 0.5371(11)
C52 C 0.0954(5) 0.5171(8) 0.8534(12)
H28 H 0.0252 0.6031 0.6768
N33 N 0.0796(3) 0.3159(7) 0.8116(8)
C65 C 0.2025(5) 0.6190(8) 0.9316(12)
C66 C 0.2029(4) 0.6067(9) 0.2477(11)
N32 N 0.7961(3) 0.0422(6) 0.5707(7)
C63 C 0.8439(4) 0.0208(8) 0.5643(9)
H31 H 0.8687 0.0641 0.5415
Fe6 Fe 0.77559(5) 0.16155(9) 0.53083(11)
O1 O 0.1820(2) 0.0584(5) 0.9030(6)
N6 N 0.2601(3) 0.0881(6) 0.8923(8)
N7 N 0.2344(3) 0.1617(7) 0.8707(8)
C10 C 0.2280(4) 0.0317(9) 0.9100(10)
C11 C 0.1897(4) 0.1408(9) 0.8776(9)
C12 C 0.1506(4) 0.1981(7) 0.8568(10)
C13 C 0.1633(4) 0.2819(8) 0.8171(9)
H5 H 0.1966 0.3002 0.8056
C14 C 0.1284(4) 0.3386(8) 0.7943(10)
H6 H 0.1383 0.3959 0.7654
C15 C 0.0677(4) 0.2355(8) 0.8497(9)
H7 H 0.0339 0.2185 0.8633
C16 C 0.1016(4) 0.1742(8) 0.8711(9)
H8 H 0.0914 0.1173 0.8949
C49 C 0.9588(5) 0.3166(9) 0.0210(11)
Ag12 Ag 0.90732(4) 0.26620(7) 0.16478(9)
Ag2 Ag 0.63920(3) 0.07158(7) 0.39484(9)
Ag5 Ag 0.90685(4) 0.26681(8) 0.66216(10)
Fe1 Fe 0.28344(5) 0.66094(10) 0.02672(12)
O2 O 0.3823(2) 0.2598(5) 0.1571(6)
O4 O 0.8769(3) 0.7629(5) 0.6549(6)
N2 N 0.2327(3) 0.6281(6) 0.1670(9)
N3 N 0.3327(3) 0.6865(6) 0.0942(8)
N14 N 0.3280(3) 0.1574(6) 0.1929(7)
N15 N 0.3044(3) 0.2327(6) 0.1637(7)
N16 N 0.3027(3) 0.5427(6) 0.0682(7)
N17 N 0.7235(3) 0.1393(6) 0.4672(7)
N18 N 0.7247(3) 0.1281(6) 0.6711(8)
N19 N 0.8248(3) 0.1879(6) 0.5953(8)
N20 N 0.8259(3) 0.1940(6) 0.3908(8)
N25 N 0.9858(3) 0.3490(7) 0.9364(9)
N26 N 0.9900(3) 0.3465(7) 0.7226(8)
N29 N 0.9791(3) 0.5048(7) 0.7515(8)
N30 N 0.8232(3) 0.6590(6) 0.6912(8)
N31 N 0.7993(3) 0.7331(6) 0.6639(8)
C3 C 0.3617(4) 0.7134(7) 0.1202(10)
C9 C 0.2161(4) 0.7977(8) 0.0025(10)
H4 H 0.1910 0.7541 0.0316
C19 C 0.5948(4) 0.0029(8) 0.0499(10)
C20 C 0.5895(4) 0.0113(9) 0.3559(10)
C22 C 0.3972(4) 0.0360(7) 0.2627(9)
H10 H 0.3630 0.0187 0.2854
C23 C 0.4108(4) 0.1180(7) 0.2108(10)
C24 C 0.4621(4) 0.1409(8) 0.1790(9)
H11 H 0.4735 0.1976 0.1409
C25 C 0.4947(4) 0.0811(7) 0.2035(10)
H12 H 0.5288 0.0980 0.1851
C26 C 0.3733(4) 0.1788(8) 0.1860(9)
C27 C 0.3368(4) 0.2901(7) 0.1440(9)
C28 C 0.3281(3) 0.3766(7) 0.1182(9)
C29 C 0.2796(4) 0.3995(7) 0.1225(9)
H13 H 0.2537 0.3586 0.1425
C30 C 0.2692(4) 0.4793(8) 0.0985(9)
H14 H 0.2354 0.4921 0.1032
C31 C 0.3506(3) 0.5205(7) 0.0643(9)
H15 H 0.3758 0.5627 0.0440
C32 C 0.3643(3) 0.4390(7) 0.0886(9)
H16 H 0.3980 0.4263 0.0849
C33 C 0.6934(4) 0.1208(8) 0.4361(10)
C34 C 0.6948(4) 0.1067(8) 0.7526(10)
C35 C 0.8538(4) 0.2112(7) 0.6255(10)
C36 C 0.8554(4) 0.2157(8) 0.3116(11)
C50 C 0.9615(4) 0.3160(8) 0.6992(11)
C53 C 0.9293(4) 0.4824(8) 0.7815(10)
H25 H 0.9195 0.4249 0.8179
C54 C 0.8930(4) 0.5375(8) 0.7623(10)
H26 H 0.8590 0.5187 0.7854
C55 C 0.9071(4) 0.6221(8) 0.7078(9)
C56 C 0.9562(4) 0.6462(8) 0.6779(11)
H27 H 0.9668 0.7034 0.6425
C57 C 0.9910(4) 0.5854(10) 0.7001(12)
C58 C 0.8678(4) 0.6785(8) 0.6861(9)
C59 C 0.8315(4) 0.7917(8) 0.6447(9)
C60 C 0.8222(4) 0.8794(8) 0.6172(9)
C61 C 0.7732(4) 0.8996(8) 0.6235(9)
H29 H 0.7480 0.8577 0.6429
C62 C 0.7613(4) 0.9818(7) 0.6010(9)
H30 H 0.7276 0.9950 0.6075
C64 C 0.8588(4) 0.9422(7) 0.5881(9)
H32 H 0.8926 0.9304 0.5851
Ag10 Ag 0.64371(3) 0.05939(7) 0.89942(8)
Ag11 Ag 0.41329(3) 0.76922(7) 0.15922(9)
N34 N 0.7568(3) 0.2817(7) 0.4879(8)
N1 N 0.2337(4) 0.6386(6) 0.9599(8)
N4 N 0.3343(3) 0.6945(6) 0.8855(7)
N5 N 0.2627(3) 0.7791(6) 0.9853(7)
C4 C 0.3631(4) 0.7173(8) 0.8059(10)
C5 C 0.2979(4) 0.8432(7) 0.9416(9)
H1 H 0.3318 0.8307 0.9280
C6 C 0.2870(4) 0.9248(7) 0.9164(10)
H2 H 0.3129 0.9672 0.8875
C7 C 0.2383(4) 0.9448(8) 0.9333(8)
C8 C 0.2024(5) 0.8785(9) 0.9796(11)
H3 H 0.1683 0.8892 0.9955
Ag9 Ag 0.41361(3) 0.76834(7) 0.65811(8)
Fe2 Fe 0.52972(6) 0.91170(11) 0.28016(14)
O3 O 0.6777(2) 0.5627(5) 0.4037(6)
N9 N 0.4896(3) 0.8538(5) 0.4254(7)
N10 N 0.4926(3) 0.8516(6) 0.2283(7)
N11 N 0.5701(3) 0.9697(6) 0.1346(8)
N12 N 0.5648(3) 0.9747(6) 0.3318(8)
N13 N 0.4819(3) 0.9990(6) 0.2523(7)
N22 N 0.7560(3) 0.5924(6) 0.3915(7)
N23 N 0.7312(3) 0.6651(6) 0.3714(7)
N24 N 0.5786(3) 0.8252(6) 0.3076(7)
C17 C 0.4639(4) 0.8210(8) 0.5089(10)
C18 C 0.4666(4) 0.8205(8) 0.1997(10)
C21 C 0.4323(3) 0.9763(7) 0.2837(8)
H9 H 0.4217 0.9192 0.3202
C37 C 0.7921(3) 0.3436(8) 0.4446(9)
H17 H 0.8258 0.3301 0.4315
C38 C 0.7819(4) 0.4255(7) 0.4182(10)
H18 H 0.8081 0.4672 0.3861
C39 C 0.7327(3) 0.4474(7) 0.4385(9)
C40 C 0.6962(4) 0.3855(7) 0.4793(10)
H19 H 0.6623 0.3980 0.4911
C41 C 0.7091(4) 0.3044(8) 0.5032(10)
H20 H 0.6832 0.2621 0.5320
C42 C 0.7229(4) 0.5333(8) 0.4114(9)
C43 C 0.6863(4) 0.6453(7) 0.3759(9)
C44 C 0.6470(3) 0.7043(7) 0.3551(8)
C45 C 0.6610(4) 0.7874(8) 0.3149(9)
H21 H 0.6945 0.8048 0.3031
C46 C 0.6260(4) 0.8454(7) 0.2917(9)
H22 H 0.6364 0.9025 0.2629
C47 C 0.5651(4) 0.7425(7) 0.3476(8)
H23 H 0.5313 0.7268 0.3596
C48 C 0.5977(3) 0.6807(7) 0.3715(9)
H24 H 0.5868 0.6239 0.3982
Ag1 Ag 0.58639(3) 0.23166(7) 0.34189(8)
Ag4 Ag 0.58671(3) 0.23078(7) 0.84078(9)
Fe2_2 Fe 0.47028(6) 0.08830(11) 0.71984(14)
O3_2 O 0.3223(2) 0.4373(5) 0.5963(6)
N9_2 N 0.5104(3) 0.1462(5) 0.5746(7)
N10_2 N 0.5074(3) 0.1484(6) 0.7717(7)
N11_2 N 0.4299(3) 0.0303(6) 0.8654(8)
N12_2 N 0.4352(3) 0.0253(6) 0.6682(8)
N13_2 N 0.5181(3) 0.0010(6) 0.7477(7)
N21 N 0.2432(3) 0.7183(7) 0.5121(8)
N22_2 N 0.2440(3) 0.4076(6) 0.6085(7)
N23_2 N 0.2688(3) 0.3349(6) 0.6286(7)
N24_2 N 0.4214(3) 0.1748(6) 0.6924(7)
C17_2 C 0.5361(4) 0.1790(8) 0.4911(10)
C18_2 C 0.5334(4) 0.1795(8) 0.8003(10)
C21_2 C 0.5677(3) 0.0237(7) 0.7163(8)
H9_2 H 0.5783 0.0808 0.6798
C37_2 C 0.2079(3) 0.6564(8) 0.5554(9)
H17_2 H 0.1742 0.6699 0.5685
C38_2 C 0.2181(4) 0.5745(7) 0.5818(10)
H18_2 H 0.1919 0.5328 0.6139
C39_2 C 0.2673(3) 0.5526(7) 0.5615(9)
C40_2 C 0.3038(4) 0.6145(7) 0.5207(10)
H19_2 H 0.3377 0.6020 0.5089
C41_2 C 0.2909(4) 0.6956(8) 0.4968(10)
H20_2 H 0.3168 0.7379 0.4680
C42_2 C 0.2771(4) 0.4667(8) 0.5886(9)
C43_2 C 0.3137(4) 0.3547(7) 0.6241(9)
C44_2 C 0.3530(3) 0.2957(7) 0.6449(8)
C45_2 C 0.3390(4) 0.2126(8) 0.6851(9)
H21_2 H 0.3055 0.1952 0.6969
C46_2 C 0.3740(4) 0.1546(7) 0.7083(9)
H22_2 H 0.3636 0.0975 0.7371
C47_2 C 0.4349(4) 0.2575(7) 0.6524(8)
H23_2 H 0.4687 0.2732 0.6404
C48_2 C 0.4023(3) 0.3193(7) 0.6285(9)
H24_2 H 0.4132 0.3761 0.6018
Fe5 Fe 0.22441(5) 0.83845(9) 0.46917(11)
C67 C 0.6383(4) 0.2866(7) 0.8798(10)
C68 C 0.6369(4) 0.2827(8) 0.1941(10)
Ag3 Ag 0.35629(3) 0.94061(7) 0.10058(8)
N1_2 N 0.7663(4) 0.3614(6) 0.0401(8)
N4_2 N 0.6657(3) 0.3055(6) 0.1145(7)
N5_2 N 0.7373(3) 0.2209(6) 0.0147(7)
C1 C 0.7975(5) 0.3810(8) 0.0684(12)
C5_2 C 0.7021(4) 0.1568(7) 0.0584(9)
H1_2 H 0.6682 0.1693 0.0720
C6_2 C 0.7130(4) 0.0752(7) 0.0836(10)
H2_2 H 0.6871 0.0328 0.1125
C7_2 C 0.7617(4) 0.0552(8) 0.0667(8)
C8_2 C 0.7976(5) 0.1215(9) 0.0204(11)
H3_2 H 0.8317 0.1108 0.0045
Ag14 Ag 0.85281(4) 0.42509(8) 0.11175(11)
C69 C 0.3052(4) 0.8933(8) 0.2474(10)
Ag2_2 Ag 0.36080(3) 0.92842(7) 0.60516(9)
Ag5_2 Ag 0.09315(4) 0.73319(8) 0.33784(10)
Ag6 Ag 0.09268(4) 0.73380(7) 0.83522(9)
Fe1_2 Fe 0.71656(5) 0.33906(10) 0.97328(12)
O2_2 O 0.6177(2) 0.7402(5) 0.8429(6)
O4_2 O 0.1231(3) 0.2371(5) 0.3451(6)
N2_2 N 0.7673(3) 0.3719(6) 0.8330(9)
N3_2 N 0.6673(3) 0.3135(6) 0.9058(8)
N14_2 N 0.6720(3) 0.8426(6) 0.8071(7)
N15_2 N 0.6956(3) 0.7673(6) 0.8363(7)
N16_2 N 0.6973(3) 0.4573(6) 0.9318(7)
N17_2 N 0.2765(3) 0.8607(6) 0.5328(7)
N18_2 N 0.2753(3) 0.8719(6) 0.3289(8)
N19_2 N 0.1752(3) 0.8121(6) 0.4047(8)
N20_2 N 0.1741(3) 0.8060(6) 0.6092(8)
N25_2 N 0.0142(3) 0.6510(7) 0.0636(9)
N26_2 N 0.0100(3) 0.6535(7) 0.2774(8)
N29_2 N 0.0209(3) 0.4952(7) 0.2485(8)
N30_2 N 0.1768(3) 0.3410(6) 0.3088(8)
N31_2 N 0.2007(3) 0.2669(6) 0.3361(8)
C2 C 0.7971(4) 0.3933(9) 0.7523(11)
C9_2 C 0.7839(4) 0.2023(8) 0.9975(10)
H4_2 H 0.8090 0.2459 0.9684
C19_2 C 0.4052(4) 0.9971(8) 0.9501(10)
C20_2 C 0.4105(4) 0.9887(9) 0.6441(10)
C22_2 C 0.6028(4) 0.9640(7) 0.7373(9)
H10_2 H 0.6370 0.9813 0.7146
C23_2 C 0.5892(4) 0.8820(7) 0.7892(10)
C24_2 C 0.5379(4) 0.8591(8) 0.8210(9)
H11_2 H 0.5265 0.8024 0.8591
C25_2 C 0.5053(4) 0.9189(7) 0.7965(10)
H12_2 H 0.4712 0.9020 0.8149
C26_2 C 0.6267(4) 0.8212(8) 0.8140(9)
C27_2 C 0.6632(4) 0.7099(7) 0.8560(9)
C28_2 C 0.6719(3) 0.6234(7) 0.8818(9)
C29_2 C 0.7204(4) 0.6005(7) 0.8775(9)
H13_2 H 0.7463 0.6414 0.8575
C30_2 C 0.7308(4) 0.5207(8) 0.9015(9)
H14_2 H 0.7646 0.5079 0.8968
C31_2 C 0.6494(3) 0.4795(7) 0.9357(9)
H15_2 H 0.6242 0.4373 0.9560
C32_2 C 0.6357(3) 0.5610(7) 0.9114(9)
H16_2 H 0.6020 0.5737 0.9151
C33_2 C 0.3066(4) 0.8792(8) 0.5639(10)
C35_2 C 0.1462(4) 0.7888(7) 0.3745(10)
C36_2 C 0.1446(4) 0.7843(8) 0.6884(11)
C50_2 C 0.0385(4) 0.6840(8) 0.3008(11)
C53_2 C 0.0707(4) 0.5176(8) 0.2185(10)
H25_2 H 0.0805 0.5751 0.1821
C54_2 C 0.1070(4) 0.4625(8) 0.2377(10)
H26_2 H 0.1410 0.4813 0.2146
C55_2 C 0.0929(4) 0.3779(8) 0.2922(9)
C56_2 C 0.0438(4) 0.3538(8) 0.3221(11)
H27_2 H 0.0332 0.2966 0.3575
C57_2 C 0.0090(4) 0.4146(10) 0.2999(12)
C58_2 C 0.1322(4) 0.3215(8) 0.3139(9)
C59_2 C 0.1685(4) 0.2083(8) 0.3553(9)
C60_2 C 0.1778(4) 0.1206(8) 0.3828(9)
C61_2 C 0.2268(4) 0.1004(8) 0.3765(9)
H29_2 H 0.2520 0.1423 0.3571
C62_2 C 0.2387(4) 0.0182(7) 0.3990(9)
H30_2 H 0.2724 0.0050 0.3925
C64_2 C 0.1412(4) 0.0578(7) 0.4119(9)
H32_2 H 0.1074 0.0696 0.4149
Ag13 Ag 0.84934(4) 0.43829(8) 0.60795(9)
N35 N 0.2039(3) 0.9578(6) 0.4293(7)
C70 C 0.0412(5) 0.6834(9) 0.9790(11)
O1_2 O 0.8180(2) 0.9416(5) 0.0970(6)
N6_2 N 0.7399(3) 0.9119(6) 0.1077(8)
N7_2 N 0.7656(3) 0.8383(7) 0.1293(8)
N8 N 0.9204(3) 0.6841(7) 0.1884(8)
C10_2 C 0.7720(4) 0.9683(9) 0.0900(10)
C11_2 C 0.8103(4) 0.8592(9) 0.1224(9)
C12_2 C 0.8494(4) 0.8019(7) 0.1432(10)
C13_2 C 0.8367(4) 0.7181(8) 0.1829(9)
H5_2 H 0.8034 0.6998 0.1944
C14_2 C 0.8716(4) 0.6614(8) 0.2057(10)
H6_2 H 0.8617 0.6041 0.2346
C15_2 C 0.9323(4) 0.7645(8) 0.1503(9)
H7_2 H 0.9661 0.7815 0.1367
C16_2 C 0.8984(4) 0.8258(8) 0.1289(9)
H8_2 H 0.9086 0.8827 0.1051
Fe7 Fe 0.97019(6) 0.58855(12) 0.22003(15)
C63_2 C 0.1561(4) 0.9792(8) 0.4357(9)
H31_2 H 0.1313 0.9359 0.4585
N27_2 N 0.9257(4) 0.5246(6) 0.3775(9)
N28_2 N 0.9313(3) 0.5186(7) 0.1696(9)
C51_2 C 0.8998(5) 0.4915(9) 0.4629(11)
C52_2 C 0.9046(5) 0.4829(8) 0.1466(12)
H28_2 H 0.9748 0.3969 0.3232
loop_
_geom_bond_atom_site_label_1
_geom_bond_atom_site_label_2
_geom_bond_site_symmetry_1
_geom_bond_site_symmetry_2
Ag7 C51 1_555 1_555
Ag8 C52 1_555 1_555
N27 Fe4 1_555 1_555
N28 Fe4 1_555 1_555
C51 N27 1_555 1_555
C52 N28 1_555 1_555
N33 Fe4 1_555 1_555
C65 Ag8 1_555 1_555
C66 Ag7 1_555 1_555
C63 N32 1_555 1_555
H31 C63 1_555 1_555
Fe6 N32 1_555 1_555
O1 C10 1_555 1_555
N6 N7 1_555 1_555
N7 C11 1_555 1_555
N33 C14 1_555 1_555
C10 N6 1_555 1_555
C11 O1 1_555 1_555
C12 C11 1_555 1_555
C13 C12 1_555 1_555
H5 C13 1_555 1_555
C14 C13 1_555 1_555
H6 C14 1_555 1_555
C15 N33 1_555 1_555
H7 C15 1_555 1_555
C16 C12 1_555 1_555
H8 C16 1_555 1_555
C15 C16 1_555 1_555
C49 Ag12 1_555 1_555
Ag2 C20 1_555 1_555
Ag5 C35 1_555 1_555
Ag12 C36 1_555 1_555
Fe6 N17 1_555 1_555
O2 C26 1_555 1_555
O4 C58 1_555 1_555
N2 Fe1 1_555 1_555
N3 Fe1 1_555 1_555
N14 N15 1_555 1_555
N15 C27 1_555 1_555
N16 Fe1 1_555 1_555
N17 C33 1_555 1_555
N18 Fe6 1_555 1_555
N19 Fe6 1_555 1_555
N20 Fe6 1_555 1_555
N30 N31 1_555 1_555
N31 C59 1_555 1_555
C66 N2 1_555 1_555
C3 N3 1_555 1_555
H4 C9 1_555 1_555
H10 C22 1_555 1_555
C23 C22 1_555 1_555
C24 C23 1_555 1_555
H11 C24 1_555 1_555
H12 C25 1_555 1_555
C26 N14 1_555 1_555
C27 O2 1_555 1_555
C28 C27 1_555 1_555
C29 C28 1_555 1_555
H13 C29 1_555 1_555
C30 N16 1_555 1_555
H14 C30 1_555 1_555
C31 N16 1_555 1_555
H15 C31 1_555 1_555
C32 C28 1_555 1_555
H16 C32 1_555 1_555
C33 Ag2 1_555 1_555
C34 N18 1_555 1_555
C35 N19 1_555 1_555
C36 N20 1_555 1_555
C50 Ag5 1_555 1_555
C53 N29 1_555 1_555
H25 C53 1_555 1_555
C54 C53 1_555 1_555
H26 C54 1_555 1_555
C55 C54 1_555 1_555
C56 C55 1_555 1_555
H27 C56 1_555 1_555
C57 N29 1_555 1_555
C58 N30 1_555 1_555
C59 O4 1_555 1_555
C60 C59 1_555 1_555
C61 C60 1_555 1_555
H29 C61 1_555 1_555
C62 C61 1_555 1_555
H30 C62 1_555 1_555
C64 C60 1_555 1_555
H32 C64 1_555 1_555
Ag10 C34 1_555 1_555
Ag11 C3 1_555 1_555
N34 Fe6 1_555 1_555
N26 C50 1_555 1_555
C23 C26 1_555 1_555
C24 C25 1_555 1_555
C29 C30 1_555 1_555
C31 C32 1_555 1_555
C55 C58 1_555 1_555
C56 C57 1_555 1_555
N1 C65 1_555 1_555
C4 N4 1_555 1_555
C5 N5 1_555 1_555
H1 C5 1_555 1_555
C6 C5 1_555 1_555
H2 C6 1_555 1_555
C7 C6 1_555 1_555
C8 C7 1_555 1_555
H3 C8 1_555 1_555
Ag9 C4 1_555 1_555
Ag9 C17 1_555 1_555
Ag11 C18 1_555 1_555
Fe2 N9 1_555 1_555
O3 C42 1_555 1_555
N9 C17 1_555 1_555
N10 Fe2 1_555 1_555
N11 Fe2 1_555 1_555
N12 Fe2 1_555 1_555
N13 Fe2 1_555 1_555
N34 C37 1_555 1_555
N22 N23 1_555 1_555
N23 C43 1_555 1_555
N24 Fe2 1_555 1_555
C18 N10 1_555 1_555
C21 N13 1_555 1_555
H9 C21 1_555 1_555
C37 H17 1_555 1_555
C38 C37 1_555 1_555
H18 C38 1_555 1_555
C39 C38 1_555 1_555
C40 C39 1_555 1_555
H19 C40 1_555 1_555
C41 N34 1_555 1_555
H20 C41 1_555 1_555
C42 N22 1_555 1_555
C43 O3 1_555 1_555
C44 C43 1_555 1_555
C45 C44 1_555 1_555
H21 C45 1_555 1_555
C46 N24 1_555 1_555
H22 C46 1_555 1_555
C47 N24 1_555 1_555
H23 C47 1_555 1_555
C48 C44 1_555 1_555
H24 C48 1_555 1_555
C39 C42 1_555 1_555
C40 C41 1_555 1_555
C45 C46 1_555 1_555
C47 C48 1_555 1_555
Ag1 C17_2 1_555 1_555
Ag4 C18_2 1_555 1_555
Fe2_2 N9_2 1_555 1_555
O3_2 C42_2 1_555 1_555
N9_2 C17_2 1_555 1_555
N10_2 Fe2_2 1_555 1_555
N11_2 Fe2_2 1_555 1_555
N12_2 Fe2_2 1_555 1_555
N13_2 Fe2_2 1_555 1_555
N21 C37_2 1_555 1_555
N22_2 N23_2 1_555 1_555
N23_2 C43_2 1_555 1_555
N24_2 Fe2_2 1_555 1_555
C18_2 N10_2 1_555 1_555
C21_2 N13_2 1_555 1_555
H9_2 C21_2 1_555 1_555
C37_2 H17_2 1_555 1_555
C38_2 C37_2 1_555 1_555
H18_2 C38_2 1_555 1_555
C39_2 C38_2 1_555 1_555
C40_2 C39_2 1_555 1_555
H19_2 C40_2 1_555 1_555
C41_2 N21 1_555 1_555
H20_2 C41_2 1_555 1_555
C42_2 N22_2 1_555 1_555
C43_2 O3_2 1_555 1_555
C44_2 C43_2 1_555 1_555
C45_2 C44_2 1_555 1_555
H21_2 C45_2 1_555 1_555
C46_2 N24_2 1_555 1_555
H22_2 C46_2 1_555 1_555
C47_2 N24_2 1_555 1_555
H23_2 C47_2 1_555 1_555
C48_2 C44_2 1_555 1_555
H24_2 C48_2 1_555 1_555
Fe5 N21 1_555 1_555
C67 Ag4 1_555 1_555
C68 Ag1 1_555 1_555
C39_2 C42_2 1_555 1_555
C40_2 C41_2 1_555 1_555
C45_2 C46_2 1_555 1_555
C47_2 C48_2 1_555 1_555
N1_2 C1 1_555 1_555
C1 Ag14 1_555 1_555
C68 N4_2 1_555 1_555
C5_2 N5_2 1_555 1_555
H1_2 C5_2 1_555 1_555
C6_2 C5_2 1_555 1_555
H2_2 C6_2 1_555 1_555
C7_2 C6_2 1_555 1_555
C8_2 C7_2 1_555 1_555
H3_2 C8_2 1_555 1_555
C69 Ag3 1_555 1_555
Ag2_2 C20_2 1_555 1_555
Ag5_2 C35_2 1_555 1_555
Ag6 C36_2 1_555 1_555
Fe5 N17_2 1_555 1_555
O2_2 C26_2 1_555 1_555
O4_2 C58_2 1_555 1_555
N2_2 Fe1_2 1_555 1_555
N3_2 Fe1_2 1_555 1_555
N14_2 N15_2 1_555 1_555
N15_2 C27_2 1_555 1_555
N16_2 Fe1_2 1_555 1_555
N17_2 C33_2 1_555 1_555
N18_2 Fe5 1_555 1_555
N19_2 Fe5 1_555 1_555
N20_2 Fe5 1_555 1_555
N30_2 N31_2 1_555 1_555
N31_2 C59_2 1_555 1_555
C2 N2_2 1_555 1_555
C67 N3_2 1_555 1_555
H4_2 C9_2 1_555 1_555
H10_2 C22_2 1_555 1_555
C23_2 C22_2 1_555 1_555
C24_2 C23_2 1_555 1_555
H11_2 C24_2 1_555 1_555
H12_2 C25_2 1_555 1_555
C26_2 N14_2 1_555 1_555
C27_2 O2_2 1_555 1_555
C28_2 C27_2 1_555 1_555
C29_2 C28_2 1_555 1_555
H13_2 C29_2 1_555 1_555
C30_2 N16_2 1_555 1_555
H14_2 C30_2 1_555 1_555
C31_2 N16_2 1_555 1_555
H15_2 C31_2 1_555 1_555
C32_2 C28_2 1_555 1_555
H16_2 C32_2 1_555 1_555
C33_2 Ag2_2 1_555 1_555
C69 N18_2 1_555 1_555
C35_2 N19_2 1_555 1_555
C36_2 N20_2 1_555 1_555
C50_2 Ag5_2 1_555 1_555
C53_2 N29_2 1_555 1_555
H25_2 C53_2 1_555 1_555
C54_2 C53_2 1_555 1_555
H26_2 C54_2 1_555 1_555
C55_2 C54_2 1_555 1_555
C56_2 C55_2 1_555 1_555
H27_2 C56_2 1_555 1_555
C57_2 N29_2 1_555 1_555
C58_2 N30_2 1_555 1_555
C59_2 O4_2 1_555 1_555
C60_2 C59_2 1_555 1_555
C61_2 C60_2 1_555 1_555
H29_2 C61_2 1_555 1_555
C62_2 C61_2 1_555 1_555
H30_2 C62_2 1_555 1_555
C64_2 C60_2 1_555 1_555
H32_2 C64_2 1_555 1_555
Ag13 C2 1_555 1_555
N35 Fe5 1_555 1_555
C70 Ag6 1_555 1_555
N26_2 C50_2 1_555 1_555
C23_2 C26_2 1_555 1_555
C24_2 C25_2 1_555 1_555
C29_2 C30_2 1_555 1_555
C31_2 C32_2 1_555 1_555
C55_2 C58_2 1_555 1_555
C56_2 C57_2 1_555 1_555
O1_2 C10_2 1_555 1_555
N6_2 N7_2 1_555 1_555
N7_2 C11_2 1_555 1_555
N8 C14_2 1_555 1_555
C10_2 N6_2 1_555 1_555
C11_2 O1_2 1_555 1_555
C12_2 C11_2 1_555 1_555
C13_2 C12_2 1_555 1_555
H5_2 C13_2 1_555 1_555
C14_2 C13_2 1_555 1_555
H6_2 C14_2 1_555 1_555
C15_2 N8 1_555 1_555
H7_2 C15_2 1_555 1_555
C16_2 C12_2 1_555 1_555
H8_2 C16_2 1_555 1_555
Fe7 N8 1_555 1_555
C15_2 C16_2 1_555 1_555
C63_2 N35 1_555 1_555
H31_2 C63_2 1_555 1_555
Ag13 C51_2 1_555 1_555
Ag14 C52_2 1_555 1_555
N27_2 Fe7 1_555 1_555
N28_2 Fe7 1_555 1_555
C51_2 N27_2 1_555 1_555
C52_2 N28_2 1_555 1_555

#END
