
###############################################################################
#
# This file contains modified crystal structure data generated from the
# MOF subset of the Cambridge Structural Database (CSD) v543 
# hosted by the Cambridge Crystallographic Data Centre (CCDC).
#
# This work is licensed under the Creative Commons
# Attribution-NonCommercial-ShareAlike 4.0 International License.
# To view a copy of this license, visit
# http://creativecommons.org/licenses/by-nc-sa/4.0/
# or send a letter to
# Creative Commons, PO Box 1866, Mountain View, CA 94042, USA.
#
# CIF created using the CSD Python API on 29 September 2022
# The structure has been converted into the P1 space group
# The structure has a 3D framework
# The original CSD entry JOLZAO01 is in the monoclinic crystal system
# The framework has been calculated to contain at least 10.0% void space
# The void calculation uses a probe of radius 1.32A, grid spacing 0.4
#
###############################################################################

data_JOLZAO01
_chemical_formula_moiety         '(C128 H64 Ag12 Fe8 N64 O8)n'
_symmetry_cell_setting           triclinic
_symmetry_space_group_name_H-M   'P 1'
_symmetry_Int_Tables_number      1
_space_group_name_Hall           'P 1'
loop_
_symmetry_equiv_pos_site_id
_symmetry_equiv_pos_as_xyz
1 x,y,z
_cell_length_a                   28.6573(19)
_cell_length_b                   14.3191(10)
_cell_length_c                   14.5629(9)
_cell_angle_alpha                90
_cell_angle_beta                 105.924(2)
_cell_angle_gamma                90
_cell_volume                     5746.52
loop_
_atom_site_label
_atom_site_type_symbol
_atom_site_fract_x
_atom_site_fract_y
_atom_site_fract_z
Ag3 Ag 0.27060(2) 0.45027(2) 0.04270(2)
Ag1 Ag 0.27060(2) 0.54973(2) 0.54270(2)
C1 C 0.27244(15) 0.3538(3) 0.9391(3)
C2 C 0.27968(14) 0.4404(3) 0.6372(3)
C3 C 0.33237(15) 0.1402(3) 0.5964(3)
C4 C 0.33187(14) 0.0648(3) 0.8993(3)
C5 C 0.22314(13) 0.1023(2) 0.6772(3)
H1 H 0.2488 0.0614 0.7012
C6 C 0.17992(13) 0.0658(3) 0.6225(3)
H2 H 0.1766 0.0021 0.6103
C7 C 0.14142(12) 0.1263(3) 0.5860(2)
C8 C 0.14774(13) 0.2196(3) 0.6105(3)
H3 H 0.1224 0.2619 0.5898
C9 C 0.19258(13) 0.2489(3) 0.6664(3)
H4 H 0.1965 0.3117 0.6831
C10 C 0.09693(12) 0.0914(3) 0.5201(3)
C11 C 0.02251(12) 0.0895(3) 0.4390(2)
Fe1 Fe 0.30372(2) 0.25157(3) 0.76642(3)
N1 N 0.27843(12) 0.3104(2) 0.8780(2)
N2 N 0.28490(11) 0.3763(2) 0.6848(2)
N3 N 0.32818(12) 0.1891(2) 0.6549(2)
N4 N 0.32477(11) 0.1276(2) 0.8495(2)
N5 N 0.23025(10) 0.1927(2) 0.6976(2)
N6 N 0.09130(11) 0.0190(3) 0.4657(3)
N7 N 0.04244(11) 0.0191(2) 0.4115(2)
O1 O 0.05452(8) 0.14050(19) 0.50838(17)
Ag4 Ag 0.33410(2) 0.04102(2) 0.49533(2)
C17 C 0.27244(15) 0.6462(3) 0.4391(3)
N9 N 0.37754(10) 0.3148(2) 0.8306(2)
C18 C 0.33237(15) 0.8598(3) 0.0964(3)
Ag2 Ag 0.33410(2) 0.95898(2) 0.99533(2)
C12 C 0.97255(12) 0.1226(3) 0.4045(2)
C13 C 0.94459(13) 0.0926(3) 0.3158(3)
H5 H 0.9571 0.0505 0.2800
C14 C 0.89794(13) 0.1263(3) 0.2819(3)
H6 H 0.8797 0.1070 0.2218
C15 C 0.90436(14) 0.2107(3) 0.4170(3)
H7 H 0.8906 0.2506 0.4527
C16 C 0.95177(14) 0.1810(3) 0.4567(3)
H8 H 0.9691 0.2003 0.5174
N8 N 0.87754(10) 0.1852(2) 0.3306(2)
Fe2 Fe 0.80372(2) 0.24843(3) 0.26642(3)
Ag1_2 Ag 0.77060(2) 0.04973(2) 0.54270(2)
C17_2 C 0.77244(15) 0.1462(3) 0.4391(3)
Ag3_2 Ag 0.77060(2) 0.95027(2) 0.04270(2)
C18_2 C 0.83237(15) 0.3598(3) 0.0964(3)
Ag2_2 Ag 0.83410(2) 0.45898(2) 0.99533(2)
C1_2 C 0.77244(15) 0.8538(3) 0.9391(3)
C2_2 C 0.77968(14) 0.9404(3) 0.6372(3)
C3_2 C 0.83237(15) 0.6402(3) 0.5964(3)
C4_2 C 0.83187(14) 0.5648(3) 0.8993(3)
C5_2 C 0.72314(13) 0.6023(2) 0.6772(3)
H1_2 H 0.7488 0.5614 0.7012
C6_2 C 0.67992(13) 0.5658(3) 0.6225(3)
H2_2 H 0.6766 0.5021 0.6103
C7_2 C 0.64142(12) 0.6263(3) 0.5860(2)
C8_2 C 0.64774(13) 0.7196(3) 0.6105(3)
H3_2 H 0.6224 0.7619 0.5898
C9_2 C 0.69258(13) 0.7489(3) 0.6664(3)
H4_2 H 0.6965 0.8117 0.6831
C10_2 C 0.59693(12) 0.5914(3) 0.5201(3)
C11_2 C 0.52251(12) 0.5895(3) 0.4390(2)
C12_2 C 0.47255(12) 0.6226(3) 0.4045(2)
C13_2 C 0.44459(13) 0.5926(3) 0.3158(3)
H5_2 H 0.4571 0.5505 0.2800
C14_2 C 0.39794(13) 0.6263(3) 0.2819(3)
H6_2 H 0.3797 0.6070 0.2218
C15_2 C 0.40436(14) 0.7107(3) 0.4170(3)
H7_2 H 0.3906 0.7506 0.4527
C16_2 C 0.45177(14) 0.6810(3) 0.4567(3)
H8_2 H 0.4691 0.7003 0.5174
Fe1_2 Fe 0.80372(2) 0.75157(3) 0.76642(3)
N1_2 N 0.77843(12) 0.8104(2) 0.8780(2)
N2_2 N 0.78490(11) 0.8763(2) 0.6848(2)
N3_2 N 0.82818(12) 0.6891(2) 0.6549(2)
N4_2 N 0.82477(11) 0.6276(2) 0.8495(2)
N5_2 N 0.73025(10) 0.6927(2) 0.6976(2)
N6_2 N 0.59130(11) 0.5190(3) 0.4657(3)
N7_2 N 0.54244(11) 0.5191(2) 0.4115(2)
N8_2 N 0.37754(10) 0.6852(2) 0.3306(2)
O1_2 O 0.55452(8) 0.64050(19) 0.50838(17)
Ag4_2 Ag 0.83410(2) 0.54102(2) 0.49533(2)
Fe2_2 Fe 0.30372(2) 0.74843(3) 0.26642(3)
N9_2 N 0.87754(10) 0.8148(2) 0.8306(2)
C2_3 C 0.27968(14) 0.5596(3) 0.1372(3)
C4_3 C 0.33187(14) 0.9352(3) 0.3993(3)
C5_3 C 0.22314(13) 0.8977(2) 0.1772(3)
H1_3 H 0.2488 0.9386 0.2012
C6_3 C 0.17992(13) 0.9342(3) 0.1225(3)
H2_3 H 0.1766 0.9979 0.1103
C7_3 C 0.14142(12) 0.8737(3) 0.0860(2)
C8_3 C 0.14774(13) 0.7804(3) 0.1105(3)
H3_3 H 0.1224 0.7381 0.0898
C9_3 C 0.19258(13) 0.7511(3) 0.1664(3)
H4_3 H 0.1965 0.6883 0.1831
C10_3 C 0.09693(12) 0.9086(3) 0.0201(3)
N1_3 N 0.27843(12) 0.6896(2) 0.3780(2)
N2_3 N 0.28490(11) 0.6237(2) 0.1848(2)
N3_3 N 0.32818(12) 0.8109(2) 0.1549(2)
N4_3 N 0.32477(11) 0.8724(2) 0.3495(2)
N5_3 N 0.23025(10) 0.8073(2) 0.1976(2)
O1_3 O 0.05452(8) 0.85950(19) 0.00838(17)
C11_3 C 0.02251(12) 0.9105(3) 0.9390(2)
N6_3 N 0.09130(11) 0.9810(3) 0.9657(3)
N7_3 N 0.04244(11) 0.9809(2) 0.9115(2)
C12_3 C 0.97255(12) 0.8774(3) 0.9045(2)
C13_3 C 0.94459(13) 0.9074(3) 0.8158(3)
H5_3 H 0.9571 0.9495 0.7800
C14_3 C 0.89794(13) 0.8737(3) 0.7819(3)
H6_3 H 0.8797 0.8930 0.7218
C15_3 C 0.90436(14) 0.7893(3) 0.9170(3)
H7_3 H 0.8906 0.7494 0.9527
C16_3 C 0.95177(14) 0.8190(3) 0.9567(3)
C2_4 C 0.77968(14) 0.0596(3) 0.1372(3)
C4_4 C 0.83187(14) 0.4352(3) 0.3993(3)
C5_4 C 0.72314(13) 0.3977(2) 0.1772(3)
H1_4 H 0.7488 0.4386 0.2012
C6_4 C 0.67992(13) 0.4342(3) 0.1225(3)
H2_4 H 0.6766 0.4979 0.1103
C7_4 C 0.64142(12) 0.3737(3) 0.0860(2)
C8_4 C 0.64774(13) 0.2804(3) 0.1105(3)
H3_4 H 0.6224 0.2381 0.0898
C9_4 C 0.69258(13) 0.2511(3) 0.1664(3)
H4_4 H 0.6965 0.1883 0.1831
C10_4 C 0.59693(12) 0.4086(3) 0.0201(3)
H8_3 H 0.4691 0.2997 0.0174
N1_4 N 0.77843(12) 0.1896(2) 0.3780(2)
N2_4 N 0.78490(11) 0.1237(2) 0.1848(2)
N3_4 N 0.82818(12) 0.3109(2) 0.1549(2)
N4_4 N 0.82477(11) 0.3724(2) 0.3495(2)
N5_4 N 0.73025(10) 0.3073(2) 0.1976(2)
O1_4 O 0.55452(8) 0.35950(19) 0.00838(17)
C11_4 C 0.52251(12) 0.4105(3) 0.9390(2)
C12_4 C 0.47255(12) 0.3774(3) 0.9045(2)
C13_4 C 0.44459(13) 0.4074(3) 0.8158(3)
H5_4 H 0.4571 0.4495 0.7800
C14_4 C 0.39794(13) 0.3737(3) 0.7819(3)
H6_4 H 0.3797 0.3930 0.7218
C15_4 C 0.40436(14) 0.2893(3) 0.9170(3)
H7_4 H 0.3906 0.2494 0.9527
C16_4 C 0.45177(14) 0.3190(3) 0.9567(3)
N6_4 N 0.59130(11) 0.4810(3) 0.9657(3)
N7_4 N 0.54244(11) 0.4809(2) 0.9115(2)
C12_5 C 0.02745(12) 0.1226(3) 0.0955(2)
C13_5 C 0.05541(13) 0.0926(3) 0.1842(3)
H5_5 H 0.0429 0.0505 0.2200
C14_5 C 0.10206(13) 0.1263(3) 0.2181(3)
H6_5 H 0.1203 0.1070 0.2782
C15_5 C 0.09564(14) 0.2107(3) 0.0830(3)
H7_5 H 0.1094 0.2506 0.0473
C16_5 C 0.04823(14) 0.1810(3) 0.0433(3)
N8_3 N 0.12246(10) 0.1852(2) 0.1694(2)
Fe2_3 Fe 0.19628(2) 0.24843(3) 0.23358(3)
C11_5 C 0.97749(12) 0.0895(3) 0.0610(2)
N6_5 N 0.90870(11) 0.0190(3) 0.0343(3)
N7_5 N 0.95756(11) 0.0191(2) 0.0885(2)
Ag4_3 Ag 0.66590(2) 0.04102(2) 0.00467(2)
C17_3 C 0.72756(15) 0.6462(3) 0.0609(3)
Ag1_3 Ag 0.72940(2) 0.54973(2) 0.95730(2)
C1_3 C 0.72756(15) 0.3538(3) 0.5609(3)
C2_5 C 0.72032(14) 0.4404(3) 0.8628(3)
C3_3 C 0.66763(15) 0.1402(3) 0.9036(3)
C4_5 C 0.66813(14) 0.0648(3) 0.6007(3)
C5_5 C 0.77686(13) 0.1023(2) 0.8228(3)
H1_5 H 0.7512 0.0614 0.7988
C6_5 C 0.82008(13) 0.0658(3) 0.8775(3)
H2_5 H 0.8234 0.0021 0.8897
C7_5 C 0.85858(12) 0.1263(3) 0.9140(2)
C8_5 C 0.85226(13) 0.2196(3) 0.8895(3)
H3_5 H 0.8776 0.2619 0.9102
C9_5 C 0.80742(13) 0.2489(3) 0.8336(3)
H4_5 H 0.8035 0.3117 0.8169
C10_5 C 0.90307(12) 0.0914(3) 0.9799(3)
Fe1_3 Fe 0.69628(2) 0.25157(3) 0.73358(3)
N1_5 N 0.72157(12) 0.3104(2) 0.6220(2)
N2_5 N 0.71510(11) 0.3763(2) 0.8152(2)
N3_5 N 0.67182(12) 0.1891(2) 0.8451(2)
N4_5 N 0.67523(11) 0.1276(2) 0.6505(2)
N5_5 N 0.76975(10) 0.1927(2) 0.8024(2)
O1_5 O 0.94548(8) 0.14050(19) 0.99162(17)
Ag3_3 Ag 0.72940(2) 0.45027(2) 0.45730(2)
N9_3 N 0.62246(10) 0.3148(2) 0.6694(2)
Ag2_3 Ag 0.66590(2) 0.95898(2) 0.50467(2)
C18_3 C 0.66763(15) 0.8598(3) 0.4036(3)
C17_4 C 0.22756(15) 0.1462(3) 0.0609(3)
Ag1_4 Ag 0.22940(2) 0.04973(2) 0.95730(2)
C11_6 C 0.47749(12) 0.5895(3) 0.0610(2)
C12_6 C 0.52745(12) 0.6226(3) 0.0955(2)
C13_6 C 0.55541(13) 0.5926(3) 0.1842(3)
H5_6 H 0.5429 0.5505 0.2200
C14_6 C 0.60206(13) 0.6263(3) 0.2181(3)
H6_6 H 0.6203 0.6070 0.2782
C15_6 C 0.59564(14) 0.7107(3) 0.0830(3)
H7_6 H 0.6094 0.7506 0.0473
C16_6 C 0.54823(14) 0.6810(3) 0.0433(3)
N6_6 N 0.40870(11) 0.5190(3) 0.0343(3)
N7_6 N 0.45756(11) 0.5191(2) 0.0885(2)
N8_4 N 0.62246(10) 0.6852(2) 0.1694(2)
Ag4_4 Ag 0.16590(2) 0.54102(2) 0.00467(2)
Fe2_4 Fe 0.69628(2) 0.74843(3) 0.23358(3)
Ag2_4 Ag 0.16590(2) 0.45898(2) 0.50467(2)
C1_4 C 0.22756(15) 0.8538(3) 0.5609(3)
C2_6 C 0.22032(14) 0.9404(3) 0.8628(3)
C3_4 C 0.16763(15) 0.6402(3) 0.9036(3)
C4_6 C 0.16813(14) 0.5648(3) 0.6007(3)
C5_6 C 0.27686(13) 0.6023(2) 0.8228(3)
H1_6 H 0.2512 0.5614 0.7988
C6_6 C 0.32008(13) 0.5658(3) 0.8775(3)
H2_6 H 0.3234 0.5021 0.8897
C7_6 C 0.35858(12) 0.6263(3) 0.9140(2)
C8_6 C 0.35226(13) 0.7196(3) 0.8895(3)
H3_6 H 0.3776 0.7619 0.9102
C9_6 C 0.30742(13) 0.7489(3) 0.8336(3)
H4_6 H 0.3035 0.8117 0.8169
C10_6 C 0.40307(12) 0.5914(3) 0.9799(3)
H8_4 H 0.5309 0.7003 0.9826
Fe1_4 Fe 0.19628(2) 0.75157(3) 0.73358(3)
N1_6 N 0.22157(12) 0.8104(2) 0.6220(2)
N2_6 N 0.21510(11) 0.8763(2) 0.8152(2)
N3_6 N 0.17182(12) 0.6891(2) 0.8451(2)
N4_6 N 0.17523(11) 0.6276(2) 0.6505(2)
N5_6 N 0.26975(10) 0.6927(2) 0.8024(2)
O1_6 O 0.44548(8) 0.64050(19) 0.99162(17)
Ag3_4 Ag 0.22940(2) 0.95027(2) 0.45730(2)
C18_4 C 0.16763(15) 0.3598(3) 0.4036(3)
N9_4 N 0.12246(10) 0.8148(2) 0.6694(2)
C12_7 C 0.02745(12) 0.8774(3) 0.5955(2)
C13_7 C 0.05541(13) 0.9074(3) 0.6842(3)
H5_7 H 0.0429 0.9495 0.7200
C14_7 C 0.10206(13) 0.8737(3) 0.7181(3)
H6_7 H 0.1203 0.8930 0.7782
C15_7 C 0.09564(14) 0.7893(3) 0.5830(3)
H7_7 H 0.1094 0.7494 0.5473
C16_7 C 0.04823(14) 0.8190(3) 0.5433(3)
H8_5 H 0.0309 0.7997 0.4826
C2_7 C 0.72032(14) 0.5596(3) 0.3628(3)
C4_7 C 0.66813(14) 0.9352(3) 0.1007(3)
C5_7 C 0.77686(13) 0.8977(2) 0.3228(3)
H1_7 H 0.7512 0.9386 0.2988
C6_7 C 0.82008(13) 0.9342(3) 0.3775(3)
H2_7 H 0.8234 0.9979 0.3897
C7_7 C 0.85858(12) 0.8737(3) 0.4140(2)
C8_7 C 0.85226(13) 0.7804(3) 0.3895(3)
H3_7 H 0.8776 0.7381 0.4102
C9_7 C 0.80742(13) 0.7511(3) 0.3336(3)
H4_7 H 0.8035 0.6883 0.3169
C10_7 C 0.90307(12) 0.9086(3) 0.4799(3)
C11_7 C 0.97749(12) 0.9105(3) 0.5610(2)
N1_7 N 0.72157(12) 0.6896(2) 0.1220(2)
N2_7 N 0.71510(11) 0.6237(2) 0.3152(2)
N3_7 N 0.67182(12) 0.8109(2) 0.3451(2)
N4_7 N 0.67523(11) 0.8724(2) 0.1505(2)
N5_7 N 0.76975(10) 0.8073(2) 0.3024(2)
N6_7 N 0.90870(11) 0.9810(3) 0.5343(3)
N7_7 N 0.95756(11) 0.9809(2) 0.5885(2)
O1_7 O 0.94548(8) 0.85950(19) 0.49162(17)
C2_8 C 0.22032(14) 0.0596(3) 0.3628(3)
C4_8 C 0.16813(14) 0.4352(3) 0.1007(3)
C5_8 C 0.27686(13) 0.3977(2) 0.3228(3)
H1_8 H 0.2512 0.4386 0.2988
C6_8 C 0.32008(13) 0.4342(3) 0.3775(3)
H2_8 H 0.3234 0.4979 0.3897
C7_8 C 0.35858(12) 0.3737(3) 0.4140(2)
C8_8 C 0.35226(13) 0.2804(3) 0.3895(3)
H3_8 H 0.3776 0.2381 0.4102
C9_8 C 0.30742(13) 0.2511(3) 0.3336(3)
H4_8 H 0.3035 0.1883 0.3169
C10_8 C 0.40307(12) 0.4086(3) 0.4799(3)
C11_8 C 0.47749(12) 0.4105(3) 0.5610(2)
C12_8 C 0.52745(12) 0.3774(3) 0.5955(2)
C13_8 C 0.55541(13) 0.4074(3) 0.6842(3)
H5_8 H 0.5429 0.4495 0.7200
C14_8 C 0.60206(13) 0.3737(3) 0.7181(3)
H6_8 H 0.6203 0.3930 0.7782
C15_8 C 0.59564(14) 0.2893(3) 0.5830(3)
H7_8 H 0.6094 0.2494 0.5473
C16_8 C 0.54823(14) 0.3190(3) 0.5433(3)
H8_6 H 0.5309 0.2997 0.4826
N1_8 N 0.22157(12) 0.1896(2) 0.1220(2)
N2_8 N 0.21510(11) 0.1237(2) 0.3152(2)
N3_8 N 0.17182(12) 0.3109(2) 0.3451(2)
N4_8 N 0.17523(11) 0.3724(2) 0.1505(2)
N5_8 N 0.26975(10) 0.3073(2) 0.3024(2)
N6_8 N 0.40870(11) 0.4810(3) 0.5343(3)
N7_8 N 0.45756(11) 0.4809(2) 0.5885(2)
O1_8 O 0.44548(8) 0.35950(19) 0.49162(17)
H8_7 H 0.0309 0.2003 0.9826
H8_8 H 0.9691 0.7997 0.0174
loop_
_geom_bond_atom_site_label_1
_geom_bond_atom_site_label_2
_geom_bond_site_symmetry_1
_geom_bond_site_symmetry_2
Ag1 C2 1_555 1_555
C1 N1 1_555 1_555
C2 N2 1_555 1_555
C3 N3 1_555 1_555
C4 N4 1_555 1_555
C5 H1 1_555 1_555
C6 C5 1_555 1_555
H2 C6 1_555 1_555
C7 C6 1_555 1_555
C8 C7 1_555 1_555
H3 C8 1_555 1_555
C9 C8 1_555 1_555
H4 C9 1_555 1_555
C10 C7 1_555 1_555
Fe1 N1 1_555 1_555
N2 Fe1 1_555 1_555
N3 Fe1 1_555 1_555
N4 Fe1 1_555 1_555
N5 C5 1_555 1_555
N6 C10 1_555 1_555
N7 C11 1_555 1_555
O1 C10 1_555 1_555
Ag4 C3 1_555 1_555
C17 Ag1 1_555 1_555
N9 Fe1 1_555 1_555
C9 N5 1_555 1_555
C11 O1 1_555 1_555
Fe1 N5 1_555 1_555
N6 N7 1_555 1_555
C12 C13 1_555 1_555
C13 H5 1_555 1_555
C14 C13 1_555 1_555
H6 C14 1_555 1_555
C15 H7 1_555 1_555
C16 C12 1_555 1_555
H8 C16 1_555 1_555
N8 C14 1_555 1_555
Fe2 N8 1_555 1_555
C15 C16 1_555 1_555
C15 N8 1_555 1_555
C17_2 Ag1_2 1_555 1_555
Ag2_2 C4_2 1_555 1_555
C1_2 N1_2 1_555 1_555
C2_2 N2_2 1_555 1_555
C3_2 N3_2 1_555 1_555
C4_2 N4_2 1_555 1_555
C5_2 H1_2 1_555 1_555
C6_2 C5_2 1_555 1_555
H2_2 C6_2 1_555 1_555
C7_2 C6_2 1_555 1_555
C8_2 C7_2 1_555 1_555
H3_2 C8_2 1_555 1_555
C9_2 C8_2 1_555 1_555
H4_2 C9_2 1_555 1_555
C10_2 C7_2 1_555 1_555
C11_2 C12_2 1_555 1_555
C12_2 C13_2 1_555 1_555
C13_2 H5_2 1_555 1_555
C14_2 C13_2 1_555 1_555
H6_2 C14_2 1_555 1_555
C15_2 H7_2 1_555 1_555
C16_2 C12_2 1_555 1_555
H8_2 C16_2 1_555 1_555
Fe1_2 N1_2 1_555 1_555
N2_2 Fe1_2 1_555 1_555
N3_2 Fe1_2 1_555 1_555
N4_2 Fe1_2 1_555 1_555
N5_2 C5_2 1_555 1_555
N6_2 C10_2 1_555 1_555
N7_2 C11_2 1_555 1_555
N8_2 C14_2 1_555 1_555
O1_2 C10_2 1_555 1_555
Ag4_2 C3_2 1_555 1_555
Fe2_2 N8_2 1_555 1_555
N9_2 Fe1_2 1_555 1_555
C9_2 N5_2 1_555 1_555
C11_2 O1_2 1_555 1_555
C15_2 C16_2 1_555 1_555
C15_2 N8_2 1_555 1_555
Fe1_2 N5_2 1_555 1_555
N6_2 N7_2 1_555 1_555
Ag3 C2_3 1_555 1_555
C17 N1_3 1_555 1_555
C2_3 N2_3 1_555 1_555
C18 N3_3 1_555 1_555
C4_3 N4_3 1_555 1_555
C5_3 H1_3 1_555 1_555
C6_3 C5_3 1_555 1_555
H2_3 C6_3 1_555 1_555
C7_3 C6_3 1_555 1_555
C8_3 C7_3 1_555 1_555
H3_3 C8_3 1_555 1_555
C9_3 C8_3 1_555 1_555
H4_3 C9_3 1_555 1_555
C10_3 C7_3 1_555 1_555
Fe2_2 N1_3 1_555 1_555
N2_3 Fe2_2 1_555 1_555
N3_3 Fe2_2 1_555 1_555
N4_3 Fe2_2 1_555 1_555
N5_3 C5_3 1_555 1_555
O1_3 C10_3 1_555 1_555
C9_3 N5_3 1_555 1_555
Fe2_2 N5_3 1_555 1_555
N7_3 C11_3 1_555 1_555
N6_3 N7_3 1_555 1_555
C12_3 C13_3 1_555 1_555
C13_3 H5_3 1_555 1_555
C14_3 C13_3 1_555 1_555
H6_3 C14_3 1_555 1_555
C15_3 H7_3 1_555 1_555
C16_3 C12_3 1_555 1_555
N9_2 C14_3 1_555 1_555
C15_3 C16_3 1_555 1_555
C15_3 N9_2 1_555 1_555
Ag4_2 C4_4 1_555 1_555
C17_2 N1_4 1_555 1_555
C2_4 N2_4 1_555 1_555
C18_2 N3_4 1_555 1_555
C4_4 N4_4 1_555 1_555
C5_4 H1_4 1_555 1_555
C6_4 C5_4 1_555 1_555
H2_4 C6_4 1_555 1_555
C7_4 C6_4 1_555 1_555
C8_4 C7_4 1_555 1_555
H3_4 C8_4 1_555 1_555
C9_4 C8_4 1_555 1_555
H4_4 C9_4 1_555 1_555
C10_4 C7_4 1_555 1_555
Fe2 N1_4 1_555 1_555
N2_4 Fe2 1_555 1_555
N3_4 Fe2 1_555 1_555
N4_4 Fe2 1_555 1_555
N5_4 C5_4 1_555 1_555
O1_4 C10_4 1_555 1_555
C9_4 N5_4 1_555 1_555
Fe2 N5_4 1_555 1_555
C11_4 C12_4 1_555 1_555
C12_4 C13_4 1_555 1_555
C13_4 H5_4 1_555 1_555
C14_4 C13_4 1_555 1_555
H6_4 C14_4 1_555 1_555
C15_4 H7_4 1_555 1_555
C16_4 C12_4 1_555 1_555
N7_4 C11_4 1_555 1_555
N9 C14_4 1_555 1_555
C15_4 C16_4 1_555 1_555
C15_4 N9 1_555 1_555
N6_4 N7_4 1_555 1_555
C12_5 C13_5 1_555 1_555
C13_5 H5_5 1_555 1_555
C14_5 C13_5 1_555 1_555
H6_5 C14_5 1_555 1_555
C15_5 H7_5 1_555 1_555
C16_5 C12_5 1_555 1_555
N8_3 C14_5 1_555 1_555
Fe2_3 N8_3 1_555 1_555
C15_5 C16_5 1_555 1_555
C15_5 N8_3 1_555 1_555
N7_5 C11_5 1_555 1_555
N6_5 N7_5 1_555 1_555
Ag1_3 C2_5 1_555 1_555
C1_3 N1_5 1_555 1_555
C2_5 N2_5 1_555 1_555
C3_3 N3_5 1_555 1_555
C4_5 N4_5 1_555 1_555
C5_5 H1_5 1_555 1_555
C6_5 C5_5 1_555 1_555
H2_5 C6_5 1_555 1_555
C7_5 C6_5 1_555 1_555
C8_5 C7_5 1_555 1_555
H3_5 C8_5 1_555 1_555
C9_5 C8_5 1_555 1_555
H4_5 C9_5 1_555 1_555
C10_5 C7_5 1_555 1_555
Fe1_3 N1_5 1_555 1_555
N2_5 Fe1_3 1_555 1_555
N3_5 Fe1_3 1_555 1_555
N4_5 Fe1_3 1_555 1_555
N5_5 C5_5 1_555 1_555
O1_5 C10_5 1_555 1_555
Ag3_3 C1_3 1_555 1_555
N9_3 Fe1_3 1_555 1_555
C9_5 N5_5 1_555 1_555
Fe1_3 N5_5 1_555 1_555
C18_3 Ag2_3 1_555 1_555
C11_6 C12_6 1_555 1_555
C12_6 C13_6 1_555 1_555
C13_6 H5_6 1_555 1_555
C14_6 C13_6 1_555 1_555
H6_6 C14_6 1_555 1_555
C15_6 H7_6 1_555 1_555
C16_6 C12_6 1_555 1_555
N7_6 C11_6 1_555 1_555
N8_4 C14_6 1_555 1_555
Fe2_4 N8_4 1_555 1_555
C15_6 C16_6 1_555 1_555
C15_6 N8_4 1_555 1_555
N6_6 N7_6 1_555 1_555
Ag2_4 C4_6 1_555 1_555
C1_4 N1_6 1_555 1_555
C2_6 N2_6 1_555 1_555
C3_4 N3_6 1_555 1_555
C4_6 N4_6 1_555 1_555
C5_6 H1_6 1_555 1_555
C6_6 C5_6 1_555 1_555
H2_6 C6_6 1_555 1_555
C7_6 C6_6 1_555 1_555
C8_6 C7_6 1_555 1_555
H3_6 C8_6 1_555 1_555
C9_6 C8_6 1_555 1_555
H4_6 C9_6 1_555 1_555
C10_6 C7_6 1_555 1_555
Fe1_4 N1_6 1_555 1_555
N2_6 Fe1_4 1_555 1_555
N3_6 Fe1_4 1_555 1_555
N4_6 Fe1_4 1_555 1_555
N5_6 C5_6 1_555 1_555
O1_6 C10_6 1_555 1_555
Ag3_4 C1_4 1_555 1_555
C18_4 Ag2_4 1_555 1_555
N9_4 Fe1_4 1_555 1_555
C9_6 N5_6 1_555 1_555
Fe1_4 N5_6 1_555 1_555
C12_7 C13_7 1_555 1_555
C13_7 H5_7 1_555 1_555
C14_7 C13_7 1_555 1_555
H6_7 C14_7 1_555 1_555
C15_7 H7_7 1_555 1_555
C16_7 C12_7 1_555 1_555
H8_5 C16_7 1_555 1_555
N9_4 C14_7 1_555 1_555
C15_7 C16_7 1_555 1_555
C15_7 N9_4 1_555 1_555
Ag3_3 C2_7 1_555 1_555
C17_3 N1_7 1_555 1_555
C2_7 N2_7 1_555 1_555
C18_3 N3_7 1_555 1_555
C4_7 N4_7 1_555 1_555
C5_7 H1_7 1_555 1_555
C6_7 C5_7 1_555 1_555
H2_7 C6_7 1_555 1_555
C7_7 C6_7 1_555 1_555
C8_7 C7_7 1_555 1_555
H3_7 C8_7 1_555 1_555
C9_7 C8_7 1_555 1_555
H4_7 C9_7 1_555 1_555
C10_7 C7_7 1_555 1_555
Fe2_4 N1_7 1_555 1_555
N2_7 Fe2_4 1_555 1_555
N3_7 Fe2_4 1_555 1_555
N4_7 Fe2_4 1_555 1_555
N5_7 C5_7 1_555 1_555
N6_7 C10_7 1_555 1_555
N7_7 C11_7 1_555 1_555
O1_7 C10_7 1_555 1_555
C9_7 N5_7 1_555 1_555
C11_7 O1_7 1_555 1_555
Fe2_4 N5_7 1_555 1_555
N6_7 N7_7 1_555 1_555
Ag4_4 C4_8 1_555 1_555
C17_4 N1_8 1_555 1_555
C2_8 N2_8 1_555 1_555
C18_4 N3_8 1_555 1_555
C4_8 N4_8 1_555 1_555
C5_8 H1_8 1_555 1_555
C6_8 C5_8 1_555 1_555
H2_8 C6_8 1_555 1_555
C7_8 C6_8 1_555 1_555
C8_8 C7_8 1_555 1_555
H3_8 C8_8 1_555 1_555
C9_8 C8_8 1_555 1_555
H4_8 C9_8 1_555 1_555
C10_8 C7_8 1_555 1_555
C11_8 C12_8 1_555 1_555
C12_8 C13_8 1_555 1_555
C13_8 H5_8 1_555 1_555
C14_8 C13_8 1_555 1_555
H6_8 C14_8 1_555 1_555
C15_8 H7_8 1_555 1_555
C16_8 C12_8 1_555 1_555
H8_6 C16_8 1_555 1_555
Fe2_3 N1_8 1_555 1_555
N2_8 Fe2_3 1_555 1_555
N3_8 Fe2_3 1_555 1_555
N4_8 Fe2_3 1_555 1_555
N5_8 C5_8 1_555 1_555
N6_8 C10_8 1_555 1_555
N7_8 C11_8 1_555 1_555
N9_3 C14_8 1_555 1_555
O1_8 C10_8 1_555 1_555
C9_8 N5_8 1_555 1_555
C11_8 O1_8 1_555 1_555
C15_8 C16_8 1_555 1_555
C15_8 N9_3 1_555 1_555
Fe2_3 N5_8 1_555 1_555
N6_8 N7_8 1_555 1_555

#END
