
###############################################################################
#
# This file contains modified crystal structure data generated from the
# MOF subset of the Cambridge Structural Database (CSD) v543 
# hosted by the Cambridge Crystallographic Data Centre (CCDC).
#
# This work is licensed under the Creative Commons
# Attribution-NonCommercial-ShareAlike 4.0 International License.
# To view a copy of this license, visit
# http://creativecommons.org/licenses/by-nc-sa/4.0/
# or send a letter to
# Creative Commons, PO Box 1866, Mountain View, CA 94042, USA.
#
# CIF created using the CSD Python API on 29 September 2022
# The structure has been converted into the P1 space group
# The structure has a 3D framework
# The original CSD entry JOLZAO is in the monoclinic crystal system
# The framework has been calculated to contain at least 10.0% void space
# The void calculation uses a probe of radius 1.32A, grid spacing 0.4
#
###############################################################################

data_JOLZAO
_chemical_formula_moiety         '(C128 H64 Ag12 Fe8 N64 O8)n'
_symmetry_cell_setting           triclinic
_symmetry_space_group_name_H-M   'P 1'
_symmetry_Int_Tables_number      1
_space_group_name_Hall           'P 1'
loop_
_symmetry_equiv_pos_site_id
_symmetry_equiv_pos_as_xyz
1 x,y,z
_cell_length_a                   28.645(2)
_cell_length_b                   13.5949(11)
_cell_length_c                   14.3880(11)
_cell_angle_alpha                90
_cell_angle_beta                 108.176(3)
_cell_angle_gamma                90
_cell_volume                     5323.48
loop_
_atom_site_label
_atom_site_type_symbol
_atom_site_fract_x
_atom_site_fract_y
_atom_site_fract_z
Ag3 Ag 0.26885(2) 0.44918(3) 0.03896(3)
Ag1 Ag 0.26885(2) 0.55082(3) 0.53896(3)
C1 C 0.2717(2) 0.3527(4) 0.9300(3)
C2 C 0.27853(18) 0.4374(4) 0.6383(4)
C3 C 0.32930(18) 0.1429(4) 0.6023(3)
C4 C 0.32914(18) 0.0659(4) 0.8961(3)
C5 C 0.22498(18) 0.1050(3) 0.6761(3)
H1 H 0.2516 0.0599 0.6962
C6 C 0.17964(18) 0.0699(4) 0.6211(3)
H2 H 0.1754 0.0022 0.6042
C7 C 0.14023(17) 0.1346(4) 0.5907(3)
C8 C 0.14784(18) 0.2316(4) 0.6220(3)
H3 H 0.1214 0.2772 0.6052
C9 C 0.19442(18) 0.2610(4) 0.6778(3)
H4 H 0.1992 0.3273 0.6996
C10 C 0.09402(17) 0.1004(4) 0.5217(3)
C11 C 0.01798(17) 0.0973(4) 0.4392(3)
Fe1 Fe 0.30172(2) 0.25121(5) 0.76616(4)
N1 N 0.28112(15) 0.3127(3) 0.8684(3)
N2 N 0.28516(14) 0.3693(3) 0.6871(3)
N3 N 0.32165(15) 0.1877(3) 0.6634(3)
N4 N 0.31979(14) 0.1337(3) 0.8459(3)
N5 N 0.23344(14) 0.1992(3) 0.7025(3)
N6 N 0.08831(16) 0.0284(3) 0.4602(3)
N7 N 0.03826(15) 0.0274(3) 0.4054(3)
O1 O 0.05069(12) 0.1475(3) 0.5141(2)
Ag4 Ag 0.33270(2) 0.04561(3) 0.49517(3)
C17 C 0.2717(2) 0.6473(4) 0.4300(3)
N9 N 0.36966(15) 0.3055(3) 0.8248(3)
C18 C 0.32930(18) 0.8571(4) 0.1023(3)
Ag2 Ag 0.33270(2) 0.95439(3) 0.99517(3)
C12 C 0.96668(18) 0.1291(4) 0.4038(3)
C13 C 0.93974(18) 0.1097(4) 0.3061(3)
H5 H 0.9538 0.0728 0.2654
C14 C 0.89239(18) 0.1451(4) 0.2701(3)
H6 H 0.8748 0.1340 0.2031
C15 C 0.89577(19) 0.2088(4) 0.4200(3)
H7 H 0.8802 0.2415 0.4606
C16 C 0.94381(18) 0.1784(4) 0.4613(3)
H8 H 0.9608 0.1912 0.5282
N8 N 0.86966(15) 0.1945(3) 0.3248(3)
Fe2 Fe 0.80172(2) 0.24879(5) 0.26616(4)
Ag1_2 Ag 0.76885(2) 0.05082(3) 0.53896(3)
C17_2 C 0.7717(2) 0.1473(4) 0.4300(3)
Ag3_2 Ag 0.76885(2) 0.94918(3) 0.03896(3)
C18_2 C 0.82930(18) 0.3571(4) 0.1023(3)
Ag2_2 Ag 0.83270(2) 0.45439(3) 0.99517(3)
C1_2 C 0.7717(2) 0.8527(4) 0.9300(3)
C2_2 C 0.77853(18) 0.9374(4) 0.6383(4)
C3_2 C 0.82930(18) 0.6429(4) 0.6023(3)
C4_2 C 0.82914(18) 0.5659(4) 0.8961(3)
C5_2 C 0.72498(18) 0.6050(3) 0.6761(3)
H1_2 H 0.7516 0.5599 0.6962
C6_2 C 0.67964(18) 0.5699(4) 0.6211(3)
H2_2 H 0.6754 0.5022 0.6042
C7_2 C 0.64023(17) 0.6346(4) 0.5907(3)
C8_2 C 0.64784(18) 0.7316(4) 0.6220(3)
H3_2 H 0.6214 0.7772 0.6052
C9_2 C 0.69442(18) 0.7610(4) 0.6778(3)
H4_2 H 0.6992 0.8273 0.6996
C10_2 C 0.59402(17) 0.6004(4) 0.5217(3)
C11_2 C 0.51798(17) 0.5973(4) 0.4392(3)
C12_2 C 0.46668(18) 0.6291(4) 0.4038(3)
C13_2 C 0.43974(18) 0.6097(4) 0.3061(3)
H5_2 H 0.4538 0.5728 0.2654
C14_2 C 0.39239(18) 0.6451(4) 0.2701(3)
H6_2 H 0.3748 0.6340 0.2031
C15_2 C 0.39577(19) 0.7088(4) 0.4200(3)
H7_2 H 0.3802 0.7415 0.4606
C16_2 C 0.44381(18) 0.6784(4) 0.4613(3)
H8_2 H 0.4608 0.6912 0.5282
Fe1_2 Fe 0.80172(2) 0.75121(5) 0.76616(4)
N1_2 N 0.78112(15) 0.8127(3) 0.8684(3)
N2_2 N 0.78516(14) 0.8693(3) 0.6871(3)
N3_2 N 0.82165(15) 0.6877(3) 0.6634(3)
N4_2 N 0.81979(14) 0.6337(3) 0.8459(3)
N5_2 N 0.73344(14) 0.6992(3) 0.7025(3)
N6_2 N 0.58831(16) 0.5284(3) 0.4602(3)
N7_2 N 0.53826(15) 0.5274(3) 0.4054(3)
N8_2 N 0.36966(15) 0.6945(3) 0.3248(3)
O1_2 O 0.55069(12) 0.6475(3) 0.5141(2)
Ag4_2 Ag 0.83270(2) 0.54561(3) 0.49517(3)
Fe2_2 Fe 0.30172(2) 0.74879(5) 0.26616(4)
N9_2 N 0.86966(15) 0.8055(3) 0.8248(3)
C2_3 C 0.27853(18) 0.5626(4) 0.1383(4)
C4_3 C 0.32914(18) 0.9341(4) 0.3961(3)
C5_3 C 0.22498(18) 0.8950(3) 0.1761(3)
H1_3 H 0.2516 0.9401 0.1962
C6_3 C 0.17964(18) 0.9301(4) 0.1211(3)
H2_3 H 0.1754 0.9978 0.1042
C7_3 C 0.14023(17) 0.8654(4) 0.0907(3)
C8_3 C 0.14784(18) 0.7684(4) 0.1220(3)
H3_3 H 0.1214 0.7228 0.1052
C9_3 C 0.19442(18) 0.7390(4) 0.1778(3)
H4_3 H 0.1992 0.6727 0.1996
C10_3 C 0.09402(17) 0.8996(4) 0.0217(3)
N1_3 N 0.28112(15) 0.6873(3) 0.3684(3)
N2_3 N 0.28516(14) 0.6307(3) 0.1871(3)
N3_3 N 0.32165(15) 0.8123(3) 0.1634(3)
N4_3 N 0.31979(14) 0.8663(3) 0.3459(3)
N5_3 N 0.23344(14) 0.8008(3) 0.2025(3)
O1_3 O 0.05069(12) 0.8525(3) 0.0141(2)
C11_3 C 0.01798(17) 0.9027(4) 0.9392(3)
N6_3 N 0.08831(16) 0.9716(3) 0.9602(3)
N7_3 N 0.03826(15) 0.9726(3) 0.9054(3)
C12_3 C 0.96668(18) 0.8709(4) 0.9038(3)
C13_3 C 0.93974(18) 0.8903(4) 0.8061(3)
H5_3 H 0.9538 0.9272 0.7654
C14_3 C 0.89239(18) 0.8549(4) 0.7701(3)
H6_3 H 0.8748 0.8660 0.7031
C15_3 C 0.89577(19) 0.7912(4) 0.9200(3)
H7_3 H 0.8802 0.7585 0.9606
C16_3 C 0.94381(18) 0.8216(4) 0.9613(3)
C2_4 C 0.77853(18) 0.0626(4) 0.1383(4)
C4_4 C 0.82914(18) 0.4341(4) 0.3961(3)
C5_4 C 0.72498(18) 0.3950(3) 0.1761(3)
H1_4 H 0.7516 0.4401 0.1962
C6_4 C 0.67964(18) 0.4301(4) 0.1211(3)
H2_4 H 0.6754 0.4978 0.1042
C7_4 C 0.64023(17) 0.3654(4) 0.0907(3)
C8_4 C 0.64784(18) 0.2684(4) 0.1220(3)
H3_4 H 0.6214 0.2228 0.1052
C9_4 C 0.69442(18) 0.2390(4) 0.1778(3)
H4_4 H 0.6992 0.1727 0.1996
C10_4 C 0.59402(17) 0.3996(4) 0.0217(3)
H8_3 H 0.4608 0.3088 0.0282
N1_4 N 0.78112(15) 0.1873(3) 0.3684(3)
N2_4 N 0.78516(14) 0.1307(3) 0.1871(3)
N3_4 N 0.82165(15) 0.3123(3) 0.1634(3)
N4_4 N 0.81979(14) 0.3663(3) 0.3459(3)
N5_4 N 0.73344(14) 0.3008(3) 0.2025(3)
O1_4 O 0.55069(12) 0.3525(3) 0.0141(2)
C11_4 C 0.51798(17) 0.4027(4) 0.9392(3)
C12_4 C 0.46668(18) 0.3709(4) 0.9038(3)
C13_4 C 0.43974(18) 0.3903(4) 0.8061(3)
H5_4 H 0.4538 0.4272 0.7654
C14_4 C 0.39239(18) 0.3549(4) 0.7701(3)
H6_4 H 0.3748 0.3660 0.7031
C15_4 C 0.39577(19) 0.2912(4) 0.9200(3)
H7_4 H 0.3802 0.2585 0.9606
C16_4 C 0.44381(18) 0.3216(4) 0.9613(3)
N6_4 N 0.58831(16) 0.4716(3) 0.9602(3)
N7_4 N 0.53826(15) 0.4726(3) 0.9054(3)
C12_5 C 0.03332(18) 0.1291(4) 0.0962(3)
C13_5 C 0.06026(18) 0.1097(4) 0.1939(3)
H5_5 H 0.0462 0.0728 0.2346
C14_5 C 0.10761(18) 0.1451(4) 0.2299(3)
H6_5 H 0.1252 0.1340 0.2969
C15_5 C 0.10423(19) 0.2088(4) 0.0800(3)
H7_5 H 0.1198 0.2415 0.0394
C16_5 C 0.05619(18) 0.1784(4) 0.0387(3)
N8_3 N 0.13034(15) 0.1945(3) 0.1752(3)
Fe2_3 Fe 0.19828(2) 0.24879(5) 0.23384(4)
C11_5 C 0.98202(17) 0.0973(4) 0.0608(3)
N6_5 N 0.91169(16) 0.0284(3) 0.0398(3)
N7_5 N 0.96174(15) 0.0274(3) 0.0946(3)
Ag4_3 Ag 0.66730(2) 0.04561(3) 0.00483(3)
C17_3 C 0.7283(2) 0.6473(4) 0.0700(3)
Ag1_3 Ag 0.73115(2) 0.55082(3) 0.96104(3)
C1_3 C 0.7283(2) 0.3527(4) 0.5700(3)
C2_5 C 0.72147(18) 0.4374(4) 0.8617(4)
C3_3 C 0.67070(18) 0.1429(4) 0.8977(3)
C4_5 C 0.67086(18) 0.0659(4) 0.6039(3)
C5_5 C 0.77502(18) 0.1050(3) 0.8239(3)
H1_5 H 0.7484 0.0599 0.8038
C6_5 C 0.82036(18) 0.0699(4) 0.8789(3)
H2_5 H 0.8246 0.0022 0.8958
C7_5 C 0.85977(17) 0.1346(4) 0.9093(3)
C8_5 C 0.85216(18) 0.2316(4) 0.8780(3)
H3_5 H 0.8786 0.2772 0.8948
C9_5 C 0.80558(18) 0.2610(4) 0.8222(3)
H4_5 H 0.8008 0.3273 0.8004
C10_5 C 0.90598(17) 0.1004(4) 0.9783(3)
Fe1_3 Fe 0.69828(2) 0.25121(5) 0.73384(4)
N1_5 N 0.71888(15) 0.3127(3) 0.6316(3)
N2_5 N 0.71484(14) 0.3693(3) 0.8129(3)
N3_5 N 0.67835(15) 0.1877(3) 0.8366(3)
N4_5 N 0.68021(14) 0.1337(3) 0.6541(3)
N5_5 N 0.76656(14) 0.1992(3) 0.7975(3)
O1_5 O 0.94931(12) 0.1475(3) 0.9859(2)
Ag3_3 Ag 0.73115(2) 0.44918(3) 0.46104(3)
N9_3 N 0.63034(15) 0.3055(3) 0.6752(3)
Ag2_3 Ag 0.66730(2) 0.95439(3) 0.50483(3)
C18_3 C 0.67070(18) 0.8571(4) 0.3977(3)
C17_4 C 0.2283(2) 0.1473(4) 0.0700(3)
Ag1_4 Ag 0.23115(2) 0.05082(3) 0.96104(3)
C11_6 C 0.48202(17) 0.5973(4) 0.0608(3)
C12_6 C 0.53332(18) 0.6291(4) 0.0962(3)
C13_6 C 0.56026(18) 0.6097(4) 0.1939(3)
H5_6 H 0.5462 0.5728 0.2346
C14_6 C 0.60761(18) 0.6451(4) 0.2299(3)
H6_6 H 0.6252 0.6340 0.2969
C15_6 C 0.60423(19) 0.7088(4) 0.0800(3)
H7_6 H 0.6198 0.7415 0.0394
C16_6 C 0.55619(18) 0.6784(4) 0.0387(3)
N6_6 N 0.41169(16) 0.5284(3) 0.0398(3)
N7_6 N 0.46174(15) 0.5274(3) 0.0946(3)
N8_4 N 0.63034(15) 0.6945(3) 0.1752(3)
Ag4_4 Ag 0.16730(2) 0.54561(3) 0.00483(3)
Fe2_4 Fe 0.69828(2) 0.74879(5) 0.23384(4)
Ag2_4 Ag 0.16730(2) 0.45439(3) 0.50483(3)
C1_4 C 0.2283(2) 0.8527(4) 0.5700(3)
C2_6 C 0.22147(18) 0.9374(4) 0.8617(4)
C3_4 C 0.17070(18) 0.6429(4) 0.8977(3)
C4_6 C 0.17086(18) 0.5659(4) 0.6039(3)
C5_6 C 0.27502(18) 0.6050(3) 0.8239(3)
H1_6 H 0.2484 0.5599 0.8038
C6_6 C 0.32036(18) 0.5699(4) 0.8789(3)
H2_6 H 0.3246 0.5022 0.8958
C7_6 C 0.35977(17) 0.6346(4) 0.9093(3)
C8_6 C 0.35216(18) 0.7316(4) 0.8780(3)
H3_6 H 0.3786 0.7772 0.8948
C9_6 C 0.30558(18) 0.7610(4) 0.8222(3)
H4_6 H 0.3008 0.8273 0.8004
C10_6 C 0.40598(17) 0.6004(4) 0.9783(3)
H8_4 H 0.5392 0.6912 0.9718
Fe1_4 Fe 0.19828(2) 0.75121(5) 0.73384(4)
N1_6 N 0.21888(15) 0.8127(3) 0.6316(3)
N2_6 N 0.21484(14) 0.8693(3) 0.8129(3)
N3_6 N 0.17835(15) 0.6877(3) 0.8366(3)
N4_6 N 0.18021(14) 0.6337(3) 0.6541(3)
N5_6 N 0.26656(14) 0.6992(3) 0.7975(3)
O1_6 O 0.44931(12) 0.6475(3) 0.9859(2)
Ag3_4 Ag 0.23115(2) 0.94918(3) 0.46104(3)
C18_4 C 0.17070(18) 0.3571(4) 0.3977(3)
N9_4 N 0.13034(15) 0.8055(3) 0.6752(3)
C12_7 C 0.03332(18) 0.8709(4) 0.5962(3)
C13_7 C 0.06026(18) 0.8903(4) 0.6939(3)
H5_7 H 0.0462 0.9272 0.7346
C14_7 C 0.10761(18) 0.8549(4) 0.7299(3)
H6_7 H 0.1252 0.8660 0.7969
C15_7 C 0.10423(19) 0.7912(4) 0.5800(3)
H7_7 H 0.1198 0.7585 0.5394
C16_7 C 0.05619(18) 0.8216(4) 0.5387(3)
H8_5 H 0.0392 0.8088 0.4718
C2_7 C 0.72147(18) 0.5626(4) 0.3617(4)
C4_7 C 0.67086(18) 0.9341(4) 0.1039(3)
C5_7 C 0.77502(18) 0.8950(3) 0.3239(3)
H1_7 H 0.7484 0.9401 0.3038
C6_7 C 0.82036(18) 0.9301(4) 0.3789(3)
H2_7 H 0.8246 0.9978 0.3958
C7_7 C 0.85977(17) 0.8654(4) 0.4093(3)
C8_7 C 0.85216(18) 0.7684(4) 0.3780(3)
H3_7 H 0.8786 0.7228 0.3948
C9_7 C 0.80558(18) 0.7390(4) 0.3222(3)
H4_7 H 0.8008 0.6727 0.3004
C10_7 C 0.90598(17) 0.8996(4) 0.4783(3)
C11_7 C 0.98202(17) 0.9027(4) 0.5608(3)
N1_7 N 0.71888(15) 0.6873(3) 0.1316(3)
N2_7 N 0.71484(14) 0.6307(3) 0.3129(3)
N3_7 N 0.67835(15) 0.8123(3) 0.3366(3)
N4_7 N 0.68021(14) 0.8663(3) 0.1541(3)
N5_7 N 0.76656(14) 0.8008(3) 0.2975(3)
N6_7 N 0.91169(16) 0.9716(3) 0.5398(3)
N7_7 N 0.96174(15) 0.9726(3) 0.5946(3)
O1_7 O 0.94931(12) 0.8525(3) 0.4859(2)
C2_8 C 0.22147(18) 0.0626(4) 0.3617(4)
C4_8 C 0.17086(18) 0.4341(4) 0.1039(3)
C5_8 C 0.27502(18) 0.3950(3) 0.3239(3)
H1_8 H 0.2484 0.4401 0.3038
C6_8 C 0.32036(18) 0.4301(4) 0.3789(3)
H2_8 H 0.3246 0.4978 0.3958
C7_8 C 0.35977(17) 0.3654(4) 0.4093(3)
C8_8 C 0.35216(18) 0.2684(4) 0.3780(3)
H3_8 H 0.3786 0.2228 0.3948
C9_8 C 0.30558(18) 0.2390(4) 0.3222(3)
H4_8 H 0.3008 0.1727 0.3004
C10_8 C 0.40598(17) 0.3996(4) 0.4783(3)
C11_8 C 0.48202(17) 0.4027(4) 0.5608(3)
C12_8 C 0.53332(18) 0.3709(4) 0.5962(3)
C13_8 C 0.56026(18) 0.3903(4) 0.6939(3)
H5_8 H 0.5462 0.4272 0.7346
C14_8 C 0.60761(18) 0.3549(4) 0.7299(3)
H6_8 H 0.6252 0.3660 0.7969
C15_8 C 0.60423(19) 0.2912(4) 0.5800(3)
H7_8 H 0.6198 0.2585 0.5394
C16_8 C 0.55619(18) 0.3216(4) 0.5387(3)
H8_6 H 0.5392 0.3088 0.4718
N1_8 N 0.21888(15) 0.1873(3) 0.1316(3)
N2_8 N 0.21484(14) 0.1307(3) 0.3129(3)
N3_8 N 0.17835(15) 0.3123(3) 0.3366(3)
N4_8 N 0.18021(14) 0.3663(3) 0.1541(3)
N5_8 N 0.26656(14) 0.3008(3) 0.2975(3)
N6_8 N 0.41169(16) 0.4716(3) 0.5398(3)
N7_8 N 0.46174(15) 0.4726(3) 0.5946(3)
O1_8 O 0.44931(12) 0.3525(3) 0.4859(2)
H8_7 H 0.0392 0.1912 0.9718
H8_8 H 0.9608 0.8088 0.0282
loop_
_geom_bond_atom_site_label_1
_geom_bond_atom_site_label_2
_geom_bond_site_symmetry_1
_geom_bond_site_symmetry_2
Ag1 C2 1_555 1_555
C1 N1 1_555 1_555
C2 N2 1_555 1_555
C3 N3 1_555 1_555
C4 N4 1_555 1_555
C5 H1 1_555 1_555
C6 C5 1_555 1_555
H2 C6 1_555 1_555
C7 C6 1_555 1_555
C8 C7 1_555 1_555
H3 C8 1_555 1_555
C9 C8 1_555 1_555
H4 C9 1_555 1_555
C10 C7 1_555 1_555
Fe1 N1 1_555 1_555
N2 Fe1 1_555 1_555
N3 Fe1 1_555 1_555
N4 Fe1 1_555 1_555
N5 C5 1_555 1_555
N6 C10 1_555 1_555
N7 C11 1_555 1_555
O1 C10 1_555 1_555
Ag4 C3 1_555 1_555
C17 Ag1 1_555 1_555
N9 Fe1 1_555 1_555
C9 N5 1_555 1_555
C11 O1 1_555 1_555
Fe1 N5 1_555 1_555
N6 N7 1_555 1_555
C12 C13 1_555 1_555
C13 H5 1_555 1_555
C14 C13 1_555 1_555
H6 C14 1_555 1_555
C15 H7 1_555 1_555
C16 C12 1_555 1_555
H8 C16 1_555 1_555
N8 C14 1_555 1_555
Fe2 N8 1_555 1_555
C15 C16 1_555 1_555
C15 N8 1_555 1_555
C17_2 Ag1_2 1_555 1_555
Ag2_2 C4_2 1_555 1_555
C1_2 N1_2 1_555 1_555
C2_2 N2_2 1_555 1_555
C3_2 N3_2 1_555 1_555
C4_2 N4_2 1_555 1_555
C5_2 H1_2 1_555 1_555
C6_2 C5_2 1_555 1_555
H2_2 C6_2 1_555 1_555
C7_2 C6_2 1_555 1_555
C8_2 C7_2 1_555 1_555
H3_2 C8_2 1_555 1_555
C9_2 C8_2 1_555 1_555
H4_2 C9_2 1_555 1_555
C10_2 C7_2 1_555 1_555
C11_2 C12_2 1_555 1_555
C12_2 C13_2 1_555 1_555
C13_2 H5_2 1_555 1_555
C14_2 C13_2 1_555 1_555
H6_2 C14_2 1_555 1_555
C15_2 H7_2 1_555 1_555
C16_2 C12_2 1_555 1_555
H8_2 C16_2 1_555 1_555
Fe1_2 N1_2 1_555 1_555
N2_2 Fe1_2 1_555 1_555
N3_2 Fe1_2 1_555 1_555
N4_2 Fe1_2 1_555 1_555
N5_2 C5_2 1_555 1_555
N6_2 C10_2 1_555 1_555
N7_2 C11_2 1_555 1_555
N8_2 C14_2 1_555 1_555
O1_2 C10_2 1_555 1_555
Ag4_2 C3_2 1_555 1_555
Fe2_2 N8_2 1_555 1_555
N9_2 Fe1_2 1_555 1_555
C9_2 N5_2 1_555 1_555
C11_2 O1_2 1_555 1_555
C15_2 C16_2 1_555 1_555
C15_2 N8_2 1_555 1_555
Fe1_2 N5_2 1_555 1_555
N6_2 N7_2 1_555 1_555
Ag3 C2_3 1_555 1_555
C17 N1_3 1_555 1_555
C2_3 N2_3 1_555 1_555
C18 N3_3 1_555 1_555
C4_3 N4_3 1_555 1_555
C5_3 H1_3 1_555 1_555
C6_3 C5_3 1_555 1_555
H2_3 C6_3 1_555 1_555
C7_3 C6_3 1_555 1_555
C8_3 C7_3 1_555 1_555
H3_3 C8_3 1_555 1_555
C9_3 C8_3 1_555 1_555
H4_3 C9_3 1_555 1_555
C10_3 C7_3 1_555 1_555
Fe2_2 N1_3 1_555 1_555
N2_3 Fe2_2 1_555 1_555
N3_3 Fe2_2 1_555 1_555
N4_3 Fe2_2 1_555 1_555
N5_3 C5_3 1_555 1_555
O1_3 C10_3 1_555 1_555
C9_3 N5_3 1_555 1_555
Fe2_2 N5_3 1_555 1_555
N7_3 C11_3 1_555 1_555
N6_3 N7_3 1_555 1_555
C12_3 C13_3 1_555 1_555
C13_3 H5_3 1_555 1_555
C14_3 C13_3 1_555 1_555
H6_3 C14_3 1_555 1_555
C15_3 H7_3 1_555 1_555
C16_3 C12_3 1_555 1_555
N9_2 C14_3 1_555 1_555
C15_3 C16_3 1_555 1_555
C15_3 N9_2 1_555 1_555
Ag4_2 C4_4 1_555 1_555
C17_2 N1_4 1_555 1_555
C2_4 N2_4 1_555 1_555
C18_2 N3_4 1_555 1_555
C4_4 N4_4 1_555 1_555
C5_4 H1_4 1_555 1_555
C6_4 C5_4 1_555 1_555
H2_4 C6_4 1_555 1_555
C7_4 C6_4 1_555 1_555
C8_4 C7_4 1_555 1_555
H3_4 C8_4 1_555 1_555
C9_4 C8_4 1_555 1_555
H4_4 C9_4 1_555 1_555
C10_4 C7_4 1_555 1_555
Fe2 N1_4 1_555 1_555
N2_4 Fe2 1_555 1_555
N3_4 Fe2 1_555 1_555
N4_4 Fe2 1_555 1_555
N5_4 C5_4 1_555 1_555
O1_4 C10_4 1_555 1_555
C9_4 N5_4 1_555 1_555
Fe2 N5_4 1_555 1_555
C11_4 C12_4 1_555 1_555
C12_4 C13_4 1_555 1_555
C13_4 H5_4 1_555 1_555
C14_4 C13_4 1_555 1_555
H6_4 C14_4 1_555 1_555
C15_4 H7_4 1_555 1_555
C16_4 C12_4 1_555 1_555
N7_4 C11_4 1_555 1_555
N9 C14_4 1_555 1_555
C15_4 C16_4 1_555 1_555
C15_4 N9 1_555 1_555
N6_4 N7_4 1_555 1_555
C12_5 C13_5 1_555 1_555
C13_5 H5_5 1_555 1_555
C14_5 C13_5 1_555 1_555
H6_5 C14_5 1_555 1_555
C15_5 H7_5 1_555 1_555
C16_5 C12_5 1_555 1_555
N8_3 C14_5 1_555 1_555
Fe2_3 N8_3 1_555 1_555
C15_5 C16_5 1_555 1_555
C15_5 N8_3 1_555 1_555
N7_5 C11_5 1_555 1_555
N6_5 N7_5 1_555 1_555
Ag1_3 C2_5 1_555 1_555
C1_3 N1_5 1_555 1_555
C2_5 N2_5 1_555 1_555
C3_3 N3_5 1_555 1_555
C4_5 N4_5 1_555 1_555
C5_5 H1_5 1_555 1_555
C6_5 C5_5 1_555 1_555
H2_5 C6_5 1_555 1_555
C7_5 C6_5 1_555 1_555
C8_5 C7_5 1_555 1_555
H3_5 C8_5 1_555 1_555
C9_5 C8_5 1_555 1_555
H4_5 C9_5 1_555 1_555
C10_5 C7_5 1_555 1_555
Fe1_3 N1_5 1_555 1_555
N2_5 Fe1_3 1_555 1_555
N3_5 Fe1_3 1_555 1_555
N4_5 Fe1_3 1_555 1_555
N5_5 C5_5 1_555 1_555
O1_5 C10_5 1_555 1_555
Ag3_3 C1_3 1_555 1_555
N9_3 Fe1_3 1_555 1_555
C9_5 N5_5 1_555 1_555
Fe1_3 N5_5 1_555 1_555
C18_3 Ag2_3 1_555 1_555
C11_6 C12_6 1_555 1_555
C12_6 C13_6 1_555 1_555
C13_6 H5_6 1_555 1_555
C14_6 C13_6 1_555 1_555
H6_6 C14_6 1_555 1_555
C15_6 H7_6 1_555 1_555
C16_6 C12_6 1_555 1_555
N7_6 C11_6 1_555 1_555
N8_4 C14_6 1_555 1_555
Fe2_4 N8_4 1_555 1_555
C15_6 C16_6 1_555 1_555
C15_6 N8_4 1_555 1_555
N6_6 N7_6 1_555 1_555
Ag2_4 C4_6 1_555 1_555
C1_4 N1_6 1_555 1_555
C2_6 N2_6 1_555 1_555
C3_4 N3_6 1_555 1_555
C4_6 N4_6 1_555 1_555
C5_6 H1_6 1_555 1_555
C6_6 C5_6 1_555 1_555
H2_6 C6_6 1_555 1_555
C7_6 C6_6 1_555 1_555
C8_6 C7_6 1_555 1_555
H3_6 C8_6 1_555 1_555
C9_6 C8_6 1_555 1_555
H4_6 C9_6 1_555 1_555
C10_6 C7_6 1_555 1_555
Fe1_4 N1_6 1_555 1_555
N2_6 Fe1_4 1_555 1_555
N3_6 Fe1_4 1_555 1_555
N4_6 Fe1_4 1_555 1_555
N5_6 C5_6 1_555 1_555
O1_6 C10_6 1_555 1_555
Ag3_4 C1_4 1_555 1_555
C18_4 Ag2_4 1_555 1_555
N9_4 Fe1_4 1_555 1_555
C9_6 N5_6 1_555 1_555
Fe1_4 N5_6 1_555 1_555
C12_7 C13_7 1_555 1_555
C13_7 H5_7 1_555 1_555
C14_7 C13_7 1_555 1_555
H6_7 C14_7 1_555 1_555
C15_7 H7_7 1_555 1_555
C16_7 C12_7 1_555 1_555
H8_5 C16_7 1_555 1_555
N9_4 C14_7 1_555 1_555
C15_7 C16_7 1_555 1_555
C15_7 N9_4 1_555 1_555
Ag3_3 C2_7 1_555 1_555
C17_3 N1_7 1_555 1_555
C2_7 N2_7 1_555 1_555
C18_3 N3_7 1_555 1_555
C4_7 N4_7 1_555 1_555
C5_7 H1_7 1_555 1_555
C6_7 C5_7 1_555 1_555
H2_7 C6_7 1_555 1_555
C7_7 C6_7 1_555 1_555
C8_7 C7_7 1_555 1_555
H3_7 C8_7 1_555 1_555
C9_7 C8_7 1_555 1_555
H4_7 C9_7 1_555 1_555
C10_7 C7_7 1_555 1_555
Fe2_4 N1_7 1_555 1_555
N2_7 Fe2_4 1_555 1_555
N3_7 Fe2_4 1_555 1_555
N4_7 Fe2_4 1_555 1_555
N5_7 C5_7 1_555 1_555
N6_7 C10_7 1_555 1_555
N7_7 C11_7 1_555 1_555
O1_7 C10_7 1_555 1_555
C9_7 N5_7 1_555 1_555
C11_7 O1_7 1_555 1_555
Fe2_4 N5_7 1_555 1_555
N6_7 N7_7 1_555 1_555
Ag4_4 C4_8 1_555 1_555
C17_4 N1_8 1_555 1_555
C2_8 N2_8 1_555 1_555
C18_4 N3_8 1_555 1_555
C4_8 N4_8 1_555 1_555
C5_8 H1_8 1_555 1_555
C6_8 C5_8 1_555 1_555
H2_8 C6_8 1_555 1_555
C7_8 C6_8 1_555 1_555
C8_8 C7_8 1_555 1_555
H3_8 C8_8 1_555 1_555
C9_8 C8_8 1_555 1_555
H4_8 C9_8 1_555 1_555
C10_8 C7_8 1_555 1_555
C11_8 C12_8 1_555 1_555
C12_8 C13_8 1_555 1_555
C13_8 H5_8 1_555 1_555
C14_8 C13_8 1_555 1_555
H6_8 C14_8 1_555 1_555
C15_8 H7_8 1_555 1_555
C16_8 C12_8 1_555 1_555
H8_6 C16_8 1_555 1_555
Fe2_3 N1_8 1_555 1_555
N2_8 Fe2_3 1_555 1_555
N3_8 Fe2_3 1_555 1_555
N4_8 Fe2_3 1_555 1_555
N5_8 C5_8 1_555 1_555
N6_8 C10_8 1_555 1_555
N7_8 C11_8 1_555 1_555
N9_3 C14_8 1_555 1_555
O1_8 C10_8 1_555 1_555
C9_8 N5_8 1_555 1_555
C11_8 O1_8 1_555 1_555
C15_8 C16_8 1_555 1_555
C15_8 N9_3 1_555 1_555
Fe2_3 N5_8 1_555 1_555
N6_8 N7_8 1_555 1_555

#END
