
###############################################################################
#
# This file contains modified crystal structure data generated from the
# MOF subset of the Cambridge Structural Database (CSD) v543 
# hosted by the Cambridge Crystallographic Data Centre (CCDC).
#
# This work is licensed under the Creative Commons
# Attribution-NonCommercial-ShareAlike 4.0 International License.
# To view a copy of this license, visit
# http://creativecommons.org/licenses/by-nc-sa/4.0/
# or send a letter to
# Creative Commons, PO Box 1866, Mountain View, CA 94042, USA.
#
# CIF created using the CSD Python API on 29 September 2022
# The structure has been converted into the P1 space group
# The structure has a 3D framework
# The original CSD entry JOLZIW04 is in the monoclinic crystal system
# The framework has been calculated to contain at least 10.0% void space
# The void calculation uses a probe of radius 1.32A, grid spacing 0.4
#
###############################################################################

data_JOLZIW04
_chemical_formula_moiety         '(C124 H64 Ag18 Fe8 N64 O8)n'
_symmetry_cell_setting           triclinic
_symmetry_space_group_name_H-M   'P 1'
_symmetry_Int_Tables_number      1
_space_group_name_Hall           'P 1'
loop_
_symmetry_equiv_pos_site_id
_symmetry_equiv_pos_as_xyz
1 x,y,z
_cell_length_a                   20.3664(13)
_cell_length_b                   28.302(3)
_cell_length_c                   13.7232(9)
_cell_angle_alpha                90
_cell_angle_beta                 131.844(2)
_cell_angle_gamma                90
_cell_volume                     5892.8
loop_
_atom_site_label
_atom_site_type_symbol
_atom_site_fract_x
_atom_site_fract_y
_atom_site_fract_z
Ag1 Ag 0.5000 0.20642(2) 0.7500
Ag2 Ag 0.5000 0.21474(2) 0.2500
Ag4 Ag 0.0000 0.17916(2) 0.2500
Fe1 Fe 0.25026(3) 0.19112(2) 0.24944(4)
O1 O 0.20228(12) 0.44067(6) 0.22598(18)
N1 N 0.34199(15) 0.19958(8) 0.4387(2)
N2 N 0.33710(16) 0.20459(7) 0.2353(2)
N3 N 0.15927(16) 0.18242(8) 0.0610(2)
N4 N 0.16361(15) 0.17990(8) 0.2651(2)
N5 N 0.22096(15) 0.25964(8) 0.2277(2)
N6 N 0.06840(16) 0.41635(8) 0.1352(2)
N7 N 0.06964(16) 0.46565(8) 0.1386(2)
N8 N 0.22121(14) 0.62236(8) 0.2306(2)
C1 C 0.3975(2) 0.20350(10) 0.5497(3)
C2 C 0.3932(2) 0.21058(10) 0.2361(3)
C4 C 0.1074(2) 0.17772(10) 0.2650(3)
C5 C 0.13551(18) 0.27356(9) 0.1467(3)
H1 H 0.0908 0.2502 0.0980
C6 C 0.11087(18) 0.32011(9) 0.1320(3)
H2 H 0.0502 0.3284 0.0748
C7 C 0.17538(18) 0.35495(9) 0.2015(3)
C8 C 0.26285(19) 0.34097(10) 0.2822(3)
H3 H 0.3087 0.3638 0.3298
C9 C 0.28262(19) 0.29368(9) 0.2928(3)
H4 H 0.3429 0.2847 0.3488
C10 C 0.14633(19) 0.40362(9) 0.1857(3)
C11 C 0.14798(19) 0.47846(10) 0.1909(3)
C12 C 0.17800(18) 0.52696(9) 0.2091(3)
C13 C 0.11420(18) 0.56211(9) 0.1527(3)
H5 H 0.0546 0.5540 0.1065
C14 C 0.13772(18) 0.60847(9) 0.1641(3)
H6 H 0.0930 0.6319 0.1231
C15 C 0.28271(19) 0.58814(9) 0.2845(3)
H7 H 0.3420 0.5972 0.3315
C16 C 0.26414(18) 0.54050(9) 0.2750(3)
H8 H 0.3094 0.5175 0.3129
Fe4 Fe 0.24974(3) 0.69112(2) 0.25056(4)
N18 N 0.27879(14) 0.12236(8) 0.2694(2)
C33 C 0.6025(2) 0.20350(10) 0.9503(3)
C34 C 0.6068(2) 0.21058(10) 0.2639(3)
Ag3 Ag 0.0000 0.17853(2) 0.7500
C3 C 0.1037(2) 0.17884(10) 0.9501(3)
Ag4_2 Ag 1.0000 0.17916(2) 0.2500
C35 C 0.8926(2) 0.17772(10) 0.2350(3)
Ag3_2 Ag 1.0000 0.17853(2) 0.7500
Fe2 Fe 0.74974(3) 0.19112(2) 0.25056(4)
O2 O 0.79772(12) 0.44067(6) 0.27402(18)
N9 N 0.65801(15) 0.19958(8) 0.0613(2)
N10 N 0.66290(16) 0.20459(7) 0.2647(2)
N11 N 0.84073(16) 0.18242(8) 0.4390(2)
N12 N 0.83639(15) 0.17990(8) 0.2349(2)
N13 N 0.77904(15) 0.25964(8) 0.2723(2)
N14 N 0.93160(16) 0.41635(8) 0.3648(2)
N15 N 0.93036(16) 0.46565(8) 0.3614(2)
N16 N 0.77879(14) 0.62236(8) 0.2694(2)
C19 C 0.8963(2) 0.17884(10) 0.5499(3)
C21 C 0.86449(18) 0.27356(9) 0.3533(3)
H9 H 0.9092 0.2502 0.4020
C22 C 0.88913(18) 0.32011(9) 0.3680(3)
H10 H 0.9498 0.3284 0.4252
C23 C 0.82462(18) 0.35495(9) 0.2985(3)
C24 C 0.73715(19) 0.34097(10) 0.2178(3)
H11 H 0.6913 0.3638 0.1702
C25 C 0.71738(19) 0.29368(9) 0.2072(3)
H12 H 0.6571 0.2847 0.1512
C26 C 0.85367(19) 0.40362(9) 0.3143(3)
C27 C 0.85202(19) 0.47846(10) 0.3091(3)
C28 C 0.82200(18) 0.52696(9) 0.2909(3)
C29 C 0.88580(18) 0.56211(9) 0.3473(3)
H13 H 0.9454 0.5540 0.3935
C30 C 0.86228(18) 0.60847(9) 0.3359(3)
H14 H 0.9070 0.6319 0.3769
C31 C 0.71729(19) 0.58814(9) 0.2155(3)
H15 H 0.6580 0.5972 0.1685
C32 C 0.73586(18) 0.54050(9) 0.2250(3)
H16 H 0.6906 0.5175 0.1871
Fe3 Fe 0.75026(3) 0.69112(2) 0.24944(4)
N17 N 0.72121(14) 0.12236(8) 0.2306(2)
Ag1_2 Ag -0.0000 0.70642(2) 0.7500
Ag2_2 Ag 0.0000 0.71474(2) 0.2500
C33_2 C 0.1025(2) 0.70350(10) 0.9503(3)
C34_2 C 0.1068(2) 0.71058(10) 0.2639(3)
C12_2 C 0.67800(18) 0.02696(9) 0.2091(3)
C13_2 C 0.61420(18) 0.06211(9) 0.1527(3)
H5_2 H 0.5546 0.0540 0.1065
C14_2 C 0.63772(18) 0.10847(9) 0.1641(3)
H6_2 H 0.5930 0.1319 0.1231
C15_2 C 0.78271(19) 0.08814(9) 0.2845(3)
H7_2 H 0.8420 0.0972 0.3315
C16_2 C 0.76414(18) 0.04050(9) 0.2750(3)
H8_2 H 0.8094 0.0175 0.3129
C28_2 C 0.32200(18) 0.02696(9) 0.2909(3)
C29_2 C 0.38580(18) 0.06211(9) 0.3473(3)
H13_2 H 0.4454 0.0540 0.3935
C30_2 C 0.36228(18) 0.10847(9) 0.3359(3)
H14_2 H 0.4070 0.1319 0.3769
C31_2 C 0.21729(19) 0.08814(9) 0.2155(3)
H15_2 H 0.1580 0.0972 0.1685
C32_2 C 0.23586(18) 0.04050(9) 0.2250(3)
H16_2 H 0.1906 0.0175 0.1871
Ag1_3 Ag 1.0000 0.70642(2) 0.7500
Ag2_3 Ag 1.0000 0.71474(2) 0.2500
Ag4_3 Ag 0.5000 0.67916(2) 0.2500
O1_2 O 0.70228(12) 0.94067(6) 0.22598(18)
N1_2 N 0.84199(15) 0.69958(8) 0.4387(2)
N2_2 N 0.83710(16) 0.70459(7) 0.2353(2)
N3_2 N 0.65927(16) 0.68242(8) 0.0610(2)
N4_2 N 0.66361(15) 0.67990(8) 0.2651(2)
N5_2 N 0.72096(15) 0.75964(8) 0.2277(2)
N6_2 N 0.56840(16) 0.91635(8) 0.1352(2)
N7_2 N 0.56964(16) 0.96565(8) 0.1386(2)
C1_2 C 0.8975(2) 0.70350(10) 0.5497(3)
C2_2 C 0.8932(2) 0.71058(10) 0.2361(3)
C4_2 C 0.6074(2) 0.67772(10) 0.2650(3)
C5_2 C 0.63551(18) 0.77356(9) 0.1467(3)
H1_2 H 0.5908 0.7502 0.0980
C6_2 C 0.61087(18) 0.82011(9) 0.1320(3)
H2_2 H 0.5502 0.8284 0.0748
C7_2 C 0.67538(18) 0.85495(9) 0.2015(3)
C8_2 C 0.76285(19) 0.84097(10) 0.2822(3)
H3_2 H 0.8087 0.8638 0.3298
C9_2 C 0.78262(19) 0.79368(9) 0.2928(3)
H4_2 H 0.8429 0.7847 0.3488
C10_2 C 0.64633(19) 0.90362(9) 0.1857(3)
C11_2 C 0.64798(19) 0.97846(10) 0.1909(3)
C35_2 C 0.3926(2) 0.67772(10) 0.2350(3)
Ag3_3 Ag 0.5000 0.67853(2) 0.7500
C3_2 C 0.6037(2) 0.67884(10) 0.9501(3)
O2_2 O 0.29772(12) 0.94067(6) 0.27402(18)
N9_2 N 0.15801(15) 0.69958(8) 0.0613(2)
N10_2 N 0.16290(16) 0.70459(7) 0.2647(2)
N11_2 N 0.34073(16) 0.68242(8) 0.4390(2)
N12_2 N 0.33639(15) 0.67990(8) 0.2349(2)
N13_2 N 0.27904(15) 0.75964(8) 0.2723(2)
N14_2 N 0.43160(16) 0.91635(8) 0.3648(2)
N15_2 N 0.43036(16) 0.96565(8) 0.3614(2)
C19_2 C 0.3963(2) 0.67884(10) 0.5499(3)
C21_2 C 0.36449(18) 0.77356(9) 0.3533(3)
H9_2 H 0.4092 0.7502 0.4020
C22_2 C 0.38913(18) 0.82011(9) 0.3680(3)
H10_2 H 0.4498 0.8284 0.4252
C23_2 C 0.32462(18) 0.85495(9) 0.2985(3)
C24_2 C 0.23715(19) 0.84097(10) 0.2178(3)
H11_2 H 0.1913 0.8638 0.1702
C25_2 C 0.21738(19) 0.79368(9) 0.2072(3)
H12_2 H 0.1571 0.7847 0.1512
C26_2 C 0.35367(19) 0.90362(9) 0.3143(3)
C27_2 C 0.35202(19) 0.97846(10) 0.3091(3)
C17 C 0.3975(2) 0.79650(10) 0.0497(3)
Ag5 Ag 0.5000 0.79358(2) 0.2500
Ag3_4 Ag 0.0000 0.82147(2) 0.2500
Fe2_2 Fe 0.25026(3) 0.80888(2) 0.74944(4)
O2_3 O 0.20228(12) 0.55933(6) 0.72598(18)
N9_3 N 0.34199(15) 0.80042(8) 0.9387(2)
N10_3 N 0.33710(16) 0.79541(7) 0.7353(2)
N11_3 N 0.15927(16) 0.81758(8) 0.5610(2)
N12_3 N 0.16361(15) 0.82010(8) 0.7651(2)
N13_3 N 0.22096(15) 0.74036(8) 0.7277(2)
N14_3 N 0.06840(16) 0.58365(8) 0.6352(2)
N15_3 N 0.06964(16) 0.53435(8) 0.6386(2)
N16_2 N 0.22121(14) 0.37764(8) 0.7306(2)
C18 C 0.3932(2) 0.78942(10) 0.7361(3)
C19_3 C 0.1037(2) 0.82116(10) 0.4501(3)
C20 C 0.1074(2) 0.82228(10) 0.7650(3)
C21_3 C 0.13551(18) 0.72644(9) 0.6467(3)
H9_3 H 0.0908 0.7498 0.5980
C22_3 C 0.11087(18) 0.67989(9) 0.6320(3)
H10_3 H 0.0502 0.6716 0.5748
C23_3 C 0.17538(18) 0.64505(9) 0.7015(3)
C24_3 C 0.26285(19) 0.65903(10) 0.7822(3)
H11_3 H 0.3087 0.6362 0.8298
C25_3 C 0.28262(19) 0.70632(9) 0.7928(3)
H12_3 H 0.3429 0.7153 0.8488
C26_3 C 0.14633(19) 0.59638(9) 0.6857(3)
C27_3 C 0.14798(19) 0.52154(10) 0.6909(3)
C28_3 C 0.17800(18) 0.47304(9) 0.7091(3)
C29_3 C 0.11420(18) 0.43789(9) 0.6527(3)
H13_3 H 0.0546 0.4460 0.6065
C30_3 C 0.13772(18) 0.39153(9) 0.6641(3)
H14_3 H 0.0930 0.3681 0.6231
C31_3 C 0.28271(19) 0.41186(9) 0.7845(3)
H15_3 H 0.3420 0.4028 0.8315
C32_3 C 0.26414(18) 0.45950(9) 0.7750(3)
H16_3 H 0.3094 0.4825 0.8129
Ag6 Ag 0.5000 0.78526(2) 0.7500
Ag7 Ag 0.0000 0.82084(2) 0.7500
Fe3_2 Fe 0.24974(3) 0.30888(2) 0.75056(4)
N17_2 N 0.27879(14) 0.87764(8) 0.7694(2)
Ag3_5 Ag 1.0000 0.82147(2) 0.2500
C3_3 C 0.8963(2) 0.82116(10) 0.0499(3)
Ag7_2 Ag 1.0000 0.82084(2) 0.7500
Fe1_2 Fe 0.74974(3) 0.80888(2) 0.75056(4)
O1_3 O 0.79772(12) 0.55933(6) 0.77402(18)
N1_3 N 0.65801(15) 0.80042(8) 0.5613(2)
N2_3 N 0.66290(16) 0.79541(7) 0.7647(2)
N3_3 N 0.84073(16) 0.81758(8) 0.9390(2)
N4_3 N 0.83639(15) 0.82010(8) 0.7349(2)
N5_3 N 0.77904(15) 0.74036(8) 0.7723(2)
N6_3 N 0.93160(16) 0.58365(8) 0.8648(2)
N7_3 N 0.93036(16) 0.53435(8) 0.8614(2)
N8_2 N 0.77879(14) 0.37764(8) 0.7694(2)
C1_3 C 0.6025(2) 0.79650(10) 0.4503(3)
C2_3 C 0.6068(2) 0.78942(10) 0.7639(3)
C4_3 C 0.8926(2) 0.82228(10) 0.7350(3)
C5_3 C 0.86449(18) 0.72644(9) 0.8533(3)
H1_3 H 0.9092 0.7498 0.9020
C6_3 C 0.88913(18) 0.67989(9) 0.8680(3)
H2_3 H 0.9498 0.6716 0.9252
C7_3 C 0.82462(18) 0.64505(9) 0.7985(3)
C8_3 C 0.73715(19) 0.65903(10) 0.7178(3)
H3_3 H 0.6913 0.6362 0.6702
C9_3 C 0.71738(19) 0.70632(9) 0.7072(3)
H4_3 H 0.6571 0.7153 0.6512
C10_3 C 0.85367(19) 0.59638(9) 0.8143(3)
C11_3 C 0.85202(19) 0.52154(10) 0.8091(3)
C12_3 C 0.82200(18) 0.47304(9) 0.7909(3)
C13_3 C 0.88580(18) 0.43789(9) 0.8473(3)
H5_3 H 0.9454 0.4460 0.8935
C14_3 C 0.86228(18) 0.39153(9) 0.8359(3)
H6_3 H 0.9070 0.3681 0.8769
C15_3 C 0.71729(19) 0.41186(9) 0.7155(3)
H7_3 H 0.6580 0.4028 0.6685
C16_3 C 0.73586(18) 0.45950(9) 0.7250(3)
H8_3 H 0.6906 0.4825 0.6871
Fe4_2 Fe 0.75026(3) 0.30888(2) 0.74944(4)
N18_2 N 0.72121(14) 0.87764(8) 0.7306(2)
Ag5_2 Ag 0.0000 0.29358(2) 0.2500
Ag6_2 Ag 0.0000 0.28526(2) 0.7500
C17_2 C 0.8975(2) 0.29650(10) 0.0497(3)
Ag5_3 Ag 1.0000 0.29358(2) 0.2500
Ag3_6 Ag 0.5000 0.32147(2) 0.2500
C3_4 C 0.3963(2) 0.32116(10) 0.0499(3)
O2_4 O 0.70228(12) 0.05933(6) 0.72598(18)
N9_4 N 0.84199(15) 0.30042(8) 0.9387(2)
N10_4 N 0.83710(16) 0.29541(7) 0.7353(2)
N11_4 N 0.65927(16) 0.31758(8) 0.5610(2)
N12_4 N 0.66361(15) 0.32010(8) 0.7651(2)
N13_4 N 0.72096(15) 0.24036(8) 0.7277(2)
N14_4 N 0.56840(16) 0.08365(8) 0.6352(2)
N15_4 N 0.56964(16) 0.03435(8) 0.6386(2)
C18_2 C 0.8932(2) 0.28942(10) 0.7361(3)
C19_4 C 0.6037(2) 0.32116(10) 0.4501(3)
C20_2 C 0.6074(2) 0.32228(10) 0.7650(3)
C21_4 C 0.63551(18) 0.22644(9) 0.6467(3)
H9_4 H 0.5908 0.2498 0.5980
C22_4 C 0.61087(18) 0.17989(9) 0.6320(3)
H10_4 H 0.5502 0.1716 0.5748
C23_4 C 0.67538(18) 0.14505(9) 0.7015(3)
C24_4 C 0.76285(19) 0.15903(10) 0.7822(3)
H11_4 H 0.8087 0.1362 0.8298
C25_4 C 0.78262(19) 0.20632(9) 0.7928(3)
H12_4 H 0.8429 0.2153 0.8488
C26_4 C 0.64633(19) 0.09638(9) 0.6857(3)
C27_4 C 0.64798(19) 0.02154(10) 0.6909(3)
Ag6_3 Ag 1.0000 0.28526(2) 0.7500
Ag7_3 Ag 0.5000 0.32084(2) 0.7500
O1_4 O 0.29772(12) 0.05933(6) 0.77402(18)
N1_4 N 0.15801(15) 0.30042(8) 0.5613(2)
N2_4 N 0.16290(16) 0.29541(7) 0.7647(2)
N3_4 N 0.34073(16) 0.31758(8) 0.9390(2)
N4_4 N 0.33639(15) 0.32010(8) 0.7349(2)
N5_4 N 0.27904(15) 0.24036(8) 0.7723(2)
N6_4 N 0.43160(16) 0.08365(8) 0.8648(2)
N7_4 N 0.43036(16) 0.03435(8) 0.8614(2)
C1_4 C 0.1025(2) 0.29650(10) 0.4503(3)
C2_4 C 0.1068(2) 0.28942(10) 0.7639(3)
C4_4 C 0.3926(2) 0.32228(10) 0.7350(3)
C5_4 C 0.36449(18) 0.22644(9) 0.8533(3)
H1_4 H 0.4092 0.2498 0.9020
C6_4 C 0.38913(18) 0.17989(9) 0.8680(3)
H2_4 H 0.4498 0.1716 0.9252
C7_4 C 0.32462(18) 0.14505(9) 0.7985(3)
C8_4 C 0.23715(19) 0.15903(10) 0.7178(3)
H3_4 H 0.1913 0.1362 0.6702
C9_4 C 0.21738(19) 0.20632(9) 0.7072(3)
H4_4 H 0.1571 0.2153 0.6512
C10_4 C 0.35367(19) 0.09638(9) 0.8143(3)
C11_4 C 0.35202(19) 0.02154(10) 0.8091(3)
C28_4 C 0.67800(18) 0.97304(9) 0.7091(3)
C29_4 C 0.61420(18) 0.93789(9) 0.6527(3)
H13_4 H 0.5546 0.9460 0.6065
C30_4 C 0.63772(18) 0.89153(9) 0.6641(3)
H14_4 H 0.5930 0.8681 0.6231
C31_4 C 0.78271(19) 0.91186(9) 0.7845(3)
H15_4 H 0.8420 0.9028 0.8315
C32_4 C 0.76414(18) 0.95950(9) 0.7750(3)
H16_4 H 0.8094 0.9825 0.8129
C12_4 C 0.32200(18) 0.97304(9) 0.7909(3)
C13_4 C 0.38580(18) 0.93789(9) 0.8473(3)
H5_4 H 0.4454 0.9460 0.8935
C14_4 C 0.36228(18) 0.89153(9) 0.8359(3)
H6_4 H 0.4070 0.8681 0.8769
C15_4 C 0.21729(19) 0.91186(9) 0.7155(3)
H7_4 H 0.1580 0.9028 0.6685
C16_4 C 0.23586(18) 0.95950(9) 0.7250(3)
H8_4 H 0.1906 0.9825 0.6871
loop_
_geom_bond_atom_site_label_1
_geom_bond_atom_site_label_2
_geom_bond_site_symmetry_1
_geom_bond_site_symmetry_2
Ag1 C1 1_555 1_555
Ag2 C2 1_555 1_555
Ag4 C4 1_555 1_555
Fe1 N1 1_555 1_555
O1 C10 1_555 1_555
N1 C1 1_555 1_555
N2 Fe1 1_555 1_555
N3 Fe1 1_555 1_555
N4 Fe1 1_555 1_555
N5 Fe1 1_555 1_555
N6 N7 1_555 1_555
N7 C11 1_555 1_555
N8 C14 1_555 1_555
C2 N2 1_555 1_555
C4 N4 1_555 1_555
C5 N5 1_555 1_555
H1 C5 1_555 1_555
C6 C5 1_555 1_555
H2 C6 1_555 1_555
C7 C6 1_555 1_555
C8 C7 1_555 1_555
H3 C8 1_555 1_555
C9 N5 1_555 1_555
H4 C9 1_555 1_555
C10 N6 1_555 1_555
C11 O1 1_555 1_555
C12 C11 1_555 1_555
C13 C12 1_555 1_555
H5 C13 1_555 1_555
C14 C13 1_555 1_555
H6 C14 1_555 1_555
C15 N8 1_555 1_555
H7 C15 1_555 1_555
C16 C12 1_555 1_555
H8 C16 1_555 1_555
Fe4 N8 1_555 1_555
N18 Fe1 1_555 1_555
C33 Ag1 1_555 1_555
C34 Ag2 1_555 1_555
C7 C10 1_555 1_555
C8 C9 1_555 1_555
C15 C16 1_555 1_555
Ag3 C3 1_555 1_555
C35 Ag4_2 1_555 1_555
Fe2 N9 1_555 1_555
O2 C26 1_555 1_555
N10 Fe2 1_555 1_555
N11 Fe2 1_555 1_555
N12 Fe2 1_555 1_555
N13 Fe2 1_555 1_555
N14 N15 1_555 1_555
N15 C27 1_555 1_555
N16 C30 1_555 1_555
C34 N10 1_555 1_555
C19 Ag3_2 1_555 1_555
C35 N12 1_555 1_555
C21 N13 1_555 1_555
H9 C21 1_555 1_555
C22 C21 1_555 1_555
H10 C22 1_555 1_555
C23 C22 1_555 1_555
C24 C23 1_555 1_555
H11 C24 1_555 1_555
C25 N13 1_555 1_555
H12 C25 1_555 1_555
C26 N14 1_555 1_555
C27 O2 1_555 1_555
C28 C27 1_555 1_555
C29 C28 1_555 1_555
H13 C29 1_555 1_555
C30 C29 1_555 1_555
H14 C30 1_555 1_555
C31 N16 1_555 1_555
H15 C31 1_555 1_555
C32 C28 1_555 1_555
H16 C32 1_555 1_555
Fe3 N16 1_555 1_555
N17 Fe2 1_555 1_555
N11 C19 1_555 1_555
C23 C26 1_555 1_555
C24 C25 1_555 1_555
C31 C32 1_555 1_555
C33_2 Ag1_2 1_555 1_555
C34_2 Ag2_2 1_555 1_555
N17 C14_2 1_555 1_555
C13_2 C12_2 1_555 1_555
H5_2 C13_2 1_555 1_555
C14_2 C13_2 1_555 1_555
H6_2 C14_2 1_555 1_555
C15_2 N17 1_555 1_555
H7_2 C15_2 1_555 1_555
C16_2 C12_2 1_555 1_555
H8_2 C16_2 1_555 1_555
C15_2 C16_2 1_555 1_555
N18 C30_2 1_555 1_555
C29_2 C28_2 1_555 1_555
H13_2 C29_2 1_555 1_555
C30_2 C29_2 1_555 1_555
H14_2 C30_2 1_555 1_555
C31_2 N18 1_555 1_555
H15_2 C31_2 1_555 1_555
C32_2 C28_2 1_555 1_555
H16_2 C32_2 1_555 1_555
C31_2 C32_2 1_555 1_555
Ag1_3 C1_2 1_555 1_555
Ag2_3 C2_2 1_555 1_555
Ag4_3 C4_2 1_555 1_555
Fe3 N1_2 1_555 1_555
O1_2 C10_2 1_555 1_555
N1_2 C1_2 1_555 1_555
N2_2 Fe3 1_555 1_555
N3_2 Fe3 1_555 1_555
N4_2 Fe3 1_555 1_555
N5_2 Fe3 1_555 1_555
N6_2 N7_2 1_555 1_555
N7_2 C11_2 1_555 1_555
C2_2 N2_2 1_555 1_555
C4_2 N4_2 1_555 1_555
C5_2 N5_2 1_555 1_555
H1_2 C5_2 1_555 1_555
C6_2 C5_2 1_555 1_555
H2_2 C6_2 1_555 1_555
C7_2 C6_2 1_555 1_555
C8_2 C7_2 1_555 1_555
H3_2 C8_2 1_555 1_555
C9_2 N5_2 1_555 1_555
H4_2 C9_2 1_555 1_555
C10_2 N6_2 1_555 1_555
C11_2 O1_2 1_555 1_555
C35_2 Ag4_3 1_555 1_555
C7_2 C10_2 1_555 1_555
C8_2 C9_2 1_555 1_555
Ag3_3 C3_2 1_555 1_555
Fe4 N9_2 1_555 1_555
O2_2 C26_2 1_555 1_555
N10_2 Fe4 1_555 1_555
N11_2 Fe4 1_555 1_555
N12_2 Fe4 1_555 1_555
N13_2 Fe4 1_555 1_555
N14_2 N15_2 1_555 1_555
N15_2 C27_2 1_555 1_555
C34_2 N10_2 1_555 1_555
C19_2 Ag3_3 1_555 1_555
C35_2 N12_2 1_555 1_555
C21_2 N13_2 1_555 1_555
H9_2 C21_2 1_555 1_555
C22_2 C21_2 1_555 1_555
H10_2 C22_2 1_555 1_555
C23_2 C22_2 1_555 1_555
C24_2 C23_2 1_555 1_555
H11_2 C24_2 1_555 1_555
C25_2 N13_2 1_555 1_555
H12_2 C25_2 1_555 1_555
C26_2 N14_2 1_555 1_555
C27_2 O2_2 1_555 1_555
N11_2 C19_2 1_555 1_555
C23_2 C26_2 1_555 1_555
C24_2 C25_2 1_555 1_555
C17 Ag5 1_555 1_555
Fe2_2 N9_3 1_555 1_555
O2_3 C26_3 1_555 1_555
N10_3 Fe2_2 1_555 1_555
N11_3 Fe2_2 1_555 1_555
N12_3 Fe2_2 1_555 1_555
N13_3 Fe2_2 1_555 1_555
N14_3 N15_3 1_555 1_555
N15_3 C27_3 1_555 1_555
N16_2 C30_3 1_555 1_555
C18 N10_3 1_555 1_555
C19_3 Ag3_4 1_555 1_555
C20 N12_3 1_555 1_555
C21_3 N13_3 1_555 1_555
H9_3 C21_3 1_555 1_555
C22_3 C21_3 1_555 1_555
H10_3 C22_3 1_555 1_555
C23_3 C22_3 1_555 1_555
C24_3 C23_3 1_555 1_555
H11_3 C24_3 1_555 1_555
C25_3 N13_3 1_555 1_555
H12_3 C25_3 1_555 1_555
C26_3 N14_3 1_555 1_555
C27_3 O2_3 1_555 1_555
C28_3 C27_3 1_555 1_555
C29_3 C28_3 1_555 1_555
H13_3 C29_3 1_555 1_555
C30_3 C29_3 1_555 1_555
H14_3 C30_3 1_555 1_555
C31_3 N16_2 1_555 1_555
H15_3 C31_3 1_555 1_555
C32_3 C28_3 1_555 1_555
H16_3 C32_3 1_555 1_555
Ag6 C18 1_555 1_555
Ag7 C20 1_555 1_555
Fe3_2 N16_2 1_555 1_555
N17_2 Fe2_2 1_555 1_555
N11_3 C19_3 1_555 1_555
C23_3 C26_3 1_555 1_555
C24_3 C25_3 1_555 1_555
C31_3 C32_3 1_555 1_555
Ag3_5 C3_3 1_555 1_555
Ag5 C1_3 1_555 1_555
Ag6 C2_3 1_555 1_555
Ag7_2 C4_3 1_555 1_555
Fe1_2 N1_3 1_555 1_555
O1_3 C10_3 1_555 1_555
N1_3 C1_3 1_555 1_555
N2_3 Fe1_2 1_555 1_555
N3_3 Fe1_2 1_555 1_555
N4_3 Fe1_2 1_555 1_555
N5_3 Fe1_2 1_555 1_555
N6_3 N7_3 1_555 1_555
N7_3 C11_3 1_555 1_555
N8_2 C14_3 1_555 1_555
C2_3 N2_3 1_555 1_555
C4_3 N4_3 1_555 1_555
C5_3 N5_3 1_555 1_555
H1_3 C5_3 1_555 1_555
C6_3 C5_3 1_555 1_555
H2_3 C6_3 1_555 1_555
C7_3 C6_3 1_555 1_555
C8_3 C7_3 1_555 1_555
H3_3 C8_3 1_555 1_555
C9_3 N5_3 1_555 1_555
H4_3 C9_3 1_555 1_555
C10_3 N6_3 1_555 1_555
C11_3 O1_3 1_555 1_555
C12_3 C11_3 1_555 1_555
C13_3 C12_3 1_555 1_555
H5_3 C13_3 1_555 1_555
C14_3 C13_3 1_555 1_555
H6_3 C14_3 1_555 1_555
C15_3 N8_2 1_555 1_555
H7_3 C15_3 1_555 1_555
C16_3 C12_3 1_555 1_555
H8_3 C16_3 1_555 1_555
Fe4_2 N8_2 1_555 1_555
N18_2 Fe1_2 1_555 1_555
C7_3 C10_3 1_555 1_555
C8_3 C9_3 1_555 1_555
C15_3 C16_3 1_555 1_555
C17_2 Ag5_3 1_555 1_555
Ag3_6 C3_4 1_555 1_555
Fe4_2 N9_4 1_555 1_555
O2_4 C26_4 1_555 1_555
N10_4 Fe4_2 1_555 1_555
N11_4 Fe4_2 1_555 1_555
N12_4 Fe4_2 1_555 1_555
N13_4 Fe4_2 1_555 1_555
N14_4 N15_4 1_555 1_555
N15_4 C27_4 1_555 1_555
C18_2 N10_4 1_555 1_555
C19_4 Ag3_6 1_555 1_555
C20_2 N12_4 1_555 1_555
C21_4 N13_4 1_555 1_555
H9_4 C21_4 1_555 1_555
C22_4 C21_4 1_555 1_555
H10_4 C22_4 1_555 1_555
C23_4 C22_4 1_555 1_555
C24_4 C23_4 1_555 1_555
H11_4 C24_4 1_555 1_555
C25_4 N13_4 1_555 1_555
H12_4 C25_4 1_555 1_555
C26_4 N14_4 1_555 1_555
C27_4 O2_4 1_555 1_555
Ag6_3 C18_2 1_555 1_555
Ag7_3 C20_2 1_555 1_555
N11_4 C19_4 1_555 1_555
C23_4 C26_4 1_555 1_555
C24_4 C25_4 1_555 1_555
Ag5_2 C1_4 1_555 1_555
Ag6_2 C2_4 1_555 1_555
Ag7_3 C4_4 1_555 1_555
Fe3_2 N1_4 1_555 1_555
O1_4 C10_4 1_555 1_555
N1_4 C1_4 1_555 1_555
N2_4 Fe3_2 1_555 1_555
N3_4 Fe3_2 1_555 1_555
N4_4 Fe3_2 1_555 1_555
N5_4 Fe3_2 1_555 1_555
N6_4 N7_4 1_555 1_555
N7_4 C11_4 1_555 1_555
C2_4 N2_4 1_555 1_555
C4_4 N4_4 1_555 1_555
C5_4 N5_4 1_555 1_555
H1_4 C5_4 1_555 1_555
C6_4 C5_4 1_555 1_555
H2_4 C6_4 1_555 1_555
C7_4 C6_4 1_555 1_555
C8_4 C7_4 1_555 1_555
H3_4 C8_4 1_555 1_555
C9_4 N5_4 1_555 1_555
H4_4 C9_4 1_555 1_555
C10_4 N6_4 1_555 1_555
C11_4 O1_4 1_555 1_555
C7_4 C10_4 1_555 1_555
C8_4 C9_4 1_555 1_555
N18_2 C30_4 1_555 1_555
C29_4 C28_4 1_555 1_555
H13_4 C29_4 1_555 1_555
C30_4 C29_4 1_555 1_555
H14_4 C30_4 1_555 1_555
C31_4 N18_2 1_555 1_555
H15_4 C31_4 1_555 1_555
C32_4 C28_4 1_555 1_555
H16_4 C32_4 1_555 1_555
C31_4 C32_4 1_555 1_555
N17_2 C14_4 1_555 1_555
C13_4 C12_4 1_555 1_555
H5_4 C13_4 1_555 1_555
C14_4 C13_4 1_555 1_555
H6_4 C14_4 1_555 1_555
C15_4 N17_2 1_555 1_555
H7_4 C15_4 1_555 1_555
C16_4 C12_4 1_555 1_555
H8_4 C16_4 1_555 1_555
C15_4 C16_4 1_555 1_555

#END
