
###############################################################################
#
# This file contains modified crystal structure data generated from the
# MOF subset of the Cambridge Structural Database (CSD) v543 
# hosted by the Cambridge Crystallographic Data Centre (CCDC).
#
# This work is licensed under the Creative Commons
# Attribution-NonCommercial-ShareAlike 4.0 International License.
# To view a copy of this license, visit
# http://creativecommons.org/licenses/by-nc-sa/4.0/
# or send a letter to
# Creative Commons, PO Box 1866, Mountain View, CA 94042, USA.
#
# CIF created using the CSD Python API on 29 September 2022
# The structure has been converted into the P1 space group
# The structure has a 3D framework
# The original CSD entry JOSNAG is in the triclinic crystal system
# The framework has been calculated to contain at least 10.0% void space
# The void calculation uses a probe of radius 1.32A, grid spacing 0.4
#
###############################################################################

data_JOSNAG
_chemical_formula_moiety         '(C18 H32 La2 O16)n'
_symmetry_cell_setting           triclinic
_symmetry_space_group_name_H-M   'P 1'
_symmetry_Int_Tables_number      1
_space_group_name_Hall           'P 1'
loop_
_symmetry_equiv_pos_site_id
_symmetry_equiv_pos_as_xyz
1 x,y,z
_cell_length_a                   9.239(2)
_cell_length_b                   9.790(2)
_cell_length_c                   10.709(1)
_cell_angle_alpha                68.04(2)
_cell_angle_beta                 84.49(1)
_cell_angle_gamma                62.01(1)
_cell_volume                     789.523
loop_
_atom_site_label
_atom_site_type_symbol
_atom_site_fract_x
_atom_site_fract_y
_atom_site_fract_z
O12 O 0.4220(1) 0.2656(1) 0.1730(1)
O14 O 0.3085(1) 0.2329(1) 0.0227(1)
C18 C 0.4074(2) 0.1712(2) 0.1250(1)
La5 La 0.7753(1) 0.4562(1) 0.0159(1)
O17 O 0.0220(1) 0.4682(1) 0.1346(1)
O18 O 0.2524(1) 0.6220(2) 0.1768(1)
O2 O 0.1275(2) 0.6342(2) 0.7337(1)
O3 O 0.4990(1) 0.4490(1) 0.8898(1)
O5 O 0.7476(1) 0.3780(2) 0.8232(1)
C1 C 0.0133(2) 0.5947(2) 0.7480(1)
C3 C 0.0424(2) 0.4948(2) 0.5602(2)
C4 C 0.5998(2) 0.4120(2) 0.8052(1)
C5 C 0.5436(2) 0.4114(2) 0.6781(1)
C6 C 0.4630(2) 0.2994(2) 0.7050(2)
C7 C 0.5772(2) 0.1161(2) 0.7848(2)
C8 C 0.4854(2) 0.0148(2) 0.8095(2)
O8 O 0.2548(2) 0.8011(2) 0.8502(2)
H3 H 0.1330(3) 0.5170(3) 0.5320(2)
H4 H 0.0850(3) 0.3810(3) 0.6290(3)
H5 H 0.6390(2) 0.3810(3) 0.6260(2)
H6 H 0.4620(3) 0.5270(3) 0.6260(2)
H7 H 0.3660(3) 0.3390(3) 0.7520(2)
H8 H 0.4230(3) 0.3130(3) 0.6140(2)
H9 H 0.6190(3) 0.1020(3) 0.8720(2)
H10 H 0.6750(3) 0.0760(3) 0.7370(2)
H11 H 0.4330(3) 0.0420(3) 0.7240(2)
H12 H 0.4020(3) 0.0430(3) 0.8750(2)
H15 H 0.1860(3) 0.9000(4) 0.8130(3)
H16 H 0.3390(4) 0.7960(4) 0.8360(3)
La1 La 0.2247(1) 0.5438(1) 0.9841(1)
C11 C 0.0746(2) 0.3837(2) 0.3748(2)
H17 H 0.1130(3) 0.2680(3) 0.4360(3)
H18 H 0.1700(3) 0.4020(3) 0.3480(2)
O15 O 0.0371(2) 0.1882(2) 0.0380(2)
H29 H 0.1220(3) 0.1860(3) 0.0320(3)
H30 H 0.0570(3) 0.0940(3) 0.0950(3)
O11 O 0.5010(1) 0.5510(1) 0.1102(1)
C13 C 0.4002(2) 0.5880(2) 0.1948(1)
C14 C 0.4564(2) 0.5886(2) 0.3219(1)
C15 C 0.5370(2) 0.7006(2) 0.2950(2)
C16 C 0.4228(2) 0.8839(2) 0.2152(2)
C17 C 0.5146(2) 0.9852(2) 0.1905(2)
H21 H 0.3610(2) 0.6190(3) 0.3740(2)
H22 H 0.5380(3) 0.4730(3) 0.3740(2)
H23 H 0.6340(3) 0.6610(3) 0.2480(2)
H24 H 0.5770(3) 0.6870(3) 0.3860(2)
H25 H 0.3810(3) 0.8980(3) 0.1280(2)
H26 H 0.3250(3) 0.9240(3) 0.2630(2)
H27 H 0.5670(3) 0.9580(3) 0.2760(2)
H28 H 0.5980(3) 0.9570(3) 0.1250(2)
O4 O 0.5780(1) 0.7344(1) 0.8270(1)
O6 O 0.6915(1) 0.7671(1) 0.9773(1)
C9 C 0.5926(2) 0.8288(2) 0.8750(1)
O1 O 0.9780(1) 0.5318(1) 0.8654(1)
C2 C 0.9254(2) 0.6163(2) 0.6252(2)
O7 O 0.9629(2) 0.8118(2) 0.9620(2)
H1 H 0.8870(3) 0.7320(3) 0.5640(3)
H2 H 0.8300(3) 0.5980(3) 0.6520(2)
H13 H 0.8780(3) 0.8140(3) 0.9680(3)
H14 H 0.9430(3) 0.9060(3) 0.9050(3)
C10 C 0.9576(2) 0.5052(2) 0.4398(2)
C12 C 0.9867(2) 0.4053(2) 0.2520(1)
O10 O 0.8725(2) 0.3658(2) 0.2663(1)
H19 H 0.8670(3) 0.4830(3) 0.4680(2)
H20 H 0.9150(3) 0.6190(3) 0.3710(3)
O16 O 0.7452(2) 0.1989(2) 0.1498(2)
H31 H 0.8140(3) 0.1000(4) 0.1870(3)
H32 H 0.6610(4) 0.2040(4) 0.1640(3)
loop_
_geom_bond_atom_site_label_1
_geom_bond_atom_site_label_2
_geom_bond_site_symmetry_1
_geom_bond_site_symmetry_2
C18 O12 1_555 1_555
O14 C18 1_555 1_555
O2 C1 1_555 1_555
O3 C4 1_555 1_555
O5 C4 1_555 1_555
C3 H3 1_555 1_555
C4 C5 1_555 1_555
C5 C6 1_555 1_555
C6 C7 1_555 1_555
C7 C8 1_555 1_555
O8 H15 1_555 1_555
H4 C3 1_555 1_555
H5 C5 1_555 1_555
H6 C5 1_555 1_555
H7 C6 1_555 1_555
H8 C6 1_555 1_555
H9 C7 1_555 1_555
H10 C7 1_555 1_555
H11 C8 1_555 1_555
H12 C8 1_555 1_555
H16 O8 1_555 1_555
H17 C11 1_555 1_555
H18 C11 1_555 1_555
H29 O15 1_555 1_555
H30 O15 1_555 1_555
O2 La1 1_555 1_555
O3 La1 1_555 1_555
O8 La1 1_555 1_555
O11 C13 1_555 1_555
O18 C13 1_555 1_555
C13 C14 1_555 1_555
C14 C15 1_555 1_555
C15 C16 1_555 1_555
C16 C17 1_555 1_555
H21 C14 1_555 1_555
H22 C14 1_555 1_555
H23 C15 1_555 1_555
H24 C15 1_555 1_555
H25 C16 1_555 1_555
H26 C16 1_555 1_555
H27 C17 1_555 1_555
H28 C17 1_555 1_555
O11 La5 1_555 1_555
O4 C9 1_555 1_555
O6 C9 1_555 1_555
O7 H13 1_555 1_555
H1 C2 1_555 1_555
H2 C2 1_555 1_555
H14 O7 1_555 1_555
O10 C12 1_555 1_555
H19 C10 1_555 1_555
H20 C10 1_555 1_555
O16 La5 1_555 1_555
H31 O16 1_555 1_555
H32 O16 1_555 1_555
O10 La5 1_555 1_555

#END
