
###############################################################################
#
# This file contains modified crystal structure data generated from the
# MOF subset of the Cambridge Structural Database (CSD) v543 
# hosted by the Cambridge Crystallographic Data Centre (CCDC).
#
# This work is licensed under the Creative Commons
# Attribution-NonCommercial-ShareAlike 4.0 International License.
# To view a copy of this license, visit
# http://creativecommons.org/licenses/by-nc-sa/4.0/
# or send a letter to
# Creative Commons, PO Box 1866, Mountain View, CA 94042, USA.
#
# CIF created using the CSD Python API on 29 September 2022
# The structure has been converted into the P1 space group
# The structure has a 3D framework
# The original CSD entry JOTXAU is in the triclinic crystal system
# The framework has been calculated to contain at least 10.0% void space
# The void calculation uses a probe of radius 1.32A, grid spacing 0.4
#
###############################################################################

data_JOTXAU
_chemical_formula_moiety         '(C28 H16 N8 O8 Zn2)n'
_symmetry_cell_setting           triclinic
_symmetry_space_group_name_H-M   'P 1'
_symmetry_Int_Tables_number      1
_space_group_name_Hall           'P 1'
loop_
_symmetry_equiv_pos_site_id
_symmetry_equiv_pos_as_xyz
1 x,y,z
_cell_length_a                   9.9931(4)
_cell_length_b                   10.7666(5)
_cell_length_c                   11.8831(5)
_cell_angle_alpha                78.0274(14)
_cell_angle_beta                 69.8076(13)
_cell_angle_gamma                84.2312(14)
_cell_volume                     1173.26
loop_
_atom_site_label
_atom_site_type_symbol
_atom_site_fract_x
_atom_site_fract_y
_atom_site_fract_z
_atom_site_U_iso_or_equiv
_atom_site_thermal_displace_type
Zn7 Zn 0.04966(4) 0.38171(3) 0.72971(3) 0.0303 Uani
O2 O 0.1512(3) 0.6168(3) 0.1728(3) 0.0516 Uani
O4 O 0.1096(3) 0.4490(3) 0.1092(3) 0.0526 Uani
C4 C 0.3497(4) 0.5154(4) 0.0472(3) 0.0345 Uani
C6 C 0.4393(4) 0.5738(4) 0.0867(3) 0.0375 Uani
H3 H 0.399043 0.624486 0.145311 0.0450 Uiso
H4 H 0.029637 0.326089 0.305673 0.0460 Uiso
C9 C 0.1910(4) 0.5265(4) 0.1121(3) 0.0399 Uani
O5 O 0.0705(3) 0.2597(2) 0.6242(2) 0.0428 Uani
O6 O 0.0123(5) 0.0940(3) 0.7751(3) 0.0819 Uani
C17 C 0.0306(4) 0.1469(4) 0.6696(4) 0.0387 Uani
C19 C 0.0100(4) 0.0731(3) 0.5820(3) 0.0357 Uani
N7 N 0.8105(3) 0.6546(3) 0.1819(3) 0.0350 Uani
N8 N 0.6640(3) 0.6224(3) 0.0918(3) 0.0339 Uani
C22 C 0.5856(4) 0.5588(4) 0.0416(3) 0.0335 Uani
C23 C 0.7626(4) 0.5704(4) 0.1417(3) 0.0347 Uani
H13 H 0.792984 0.485503 0.147052 0.0420 Uiso
C27 C 0.6499(5) 0.7479(4) 0.1007(5) 0.0614 Uani
H15 H 0.589067 0.808334 0.073693 0.0740 Uiso
C28 C 0.7408(5) 0.7671(4) 0.1558(5) 0.0607 Uani
H16 H 0.754182 0.844240 0.173413 0.0730 Uiso
Zn4 Zn 0.95034(4) 0.61829(3) 0.27029(3) 0.0303 Uani
N1 N 0.1895(3) 0.3454(3) 0.8181(3) 0.0350 Uani
N3 N 0.3360(3) 0.3776(3) 0.9082(3) 0.0339 Uani
C1 C 0.4144(4) 0.4412(4) 0.9584(3) 0.0335 Uani
C2 C 0.2374(4) 0.4296(4) 0.8583(3) 0.0347 Uani
H1 H 0.207016 0.514497 0.852948 0.0420 Uiso
C11 C 0.3501(5) 0.2521(4) 0.8993(5) 0.0614 Uani
H5 H 0.410933 0.191666 0.926307 0.0740 Uiso
C12 C 0.2592(5) 0.2329(4) 0.8442(5) 0.0607 Uani
H6 H 0.245818 0.155760 0.826587 0.0730 Uiso
O7 O 0.8488(3) 0.3832(3) 0.8272(3) 0.0516 Uani
O8 O 0.8904(3) 0.5510(3) 0.8908(3) 0.0526 Uani
C24 C 0.6503(4) 0.4846(4) 0.9528(3) 0.0345 Uani
C25 C 0.5607(4) 0.4262(4) 0.9133(3) 0.0375 Uani
H14 H 0.600957 0.375514 0.854689 0.0450 Uiso
C26 C 0.8090(4) 0.4735(4) 0.8879(3) 0.0399 Uani
N5 N 0.0955(3) 0.7453(3) 0.5236(3) 0.0355 Uani
N6 N 0.1025(4) 0.5444(3) 0.6085(3) 0.0388 Uani
C15 C 0.0531(4) 0.9454(4) 0.5914(4) 0.0392 Uani
H9 H 0.088655 0.907460 0.653543 0.0470 Uiso
C16 C 0.0444(4) 0.8746(3) 0.5109(3) 0.0332 Uani
C18 C 0.0414(4) 0.6576(4) 0.6236(4) 0.0382 Uani
C20 C 0.1961(5) 0.6857(4) 0.4387(4) 0.0515 Uani
H11 H 0.251012 0.722489 0.360210 0.0620 Uiso
C21 C 0.1990(5) 0.5632(4) 0.4922(4) 0.0566 Uani
H12 H 0.257955 0.499989 0.455628 0.0680 Uiso
N2 N 0.9045(3) 0.2547(3) 0.4764(3) 0.0355 Uani
N4 N 0.8975(4) 0.4556(3) 0.3915(3) 0.0388 Uani
C3 C 0.9469(4) 0.0546(4) 0.4086(4) 0.0392 Uani
H2 H 0.911345 0.092540 0.346457 0.0470 Uiso
C5 C 0.9556(4) 0.1254(3) 0.4891(3) 0.0332 Uani
C8 C 0.9586(4) 0.3424(4) 0.3764(4) 0.0382 Uani
C13 C 0.8039(5) 0.3143(4) 0.5613(4) 0.0515 Uani
H7 H 0.748988 0.277511 0.639790 0.0620 Uiso
C14 C 0.8010(5) 0.4368(4) 0.5078(4) 0.0566 Uani
H8 H 0.742045 0.500011 0.544372 0.0680 Uiso
O9 O 0.9295(3) 0.7403(2) 0.3758(2) 0.0428 Uani
O3 O 0.9877(5) 0.9060(3) 0.2249(3) 0.0819 Uani
C7 C 0.9694(4) 0.8531(4) 0.3304(4) 0.0387 Uani
C10 C 0.9900(4) 0.9269(3) 0.4180(3) 0.0357 Uani
H10 H 0.970363 0.673911 0.694327 0.0460 Uiso
loop_
_atom_site_aniso_label
_atom_site_aniso_U_11
_atom_site_aniso_U_22
_atom_site_aniso_U_33
_atom_site_aniso_U_23
_atom_site_aniso_U_13
_atom_site_aniso_U_12
Zn7 0.0327 0.0269 0.0417 -0.01538 -0.0212 0.00302
O2 0.0318 0.0621 0.0712 -0.0383 -0.0173 0.0063
O4 0.038 0.072 0.056 -0.0299 -0.0129 -0.0118
C4 0.0305 0.04 0.045 -0.0176 -0.0234 0.004
C6 0.0331 0.048 0.041 -0.0219 -0.0181 0.0052
C9 0.037 0.048 0.044 -0.0173 -0.0217 0.0044
O5 0.0559 0.0326 0.0486 -0.0199 -0.0201 -0.0054
O6 0.159 0.058 0.051 -0.0083 -0.059 -0.022
C17 0.048 0.032 0.047 -0.0189 -0.024 0.0033
C19 0.046 0.0285 0.04 -0.0132 -0.0191 -0.0027
N7 0.0363 0.0337 0.0466 -0.0177 -0.0239 0.0041
N8 0.0322 0.0369 0.0463 -0.0209 -0.0246 0.0063
C22 0.0327 0.0361 0.0398 -0.0124 -0.0193 -0.0001
C23 0.039 0.0335 0.043 -0.0134 -0.0253 0.0029
C27 0.068 0.045 0.105 -0.033 -0.066 0.02
C28 0.071 0.04 0.106 -0.033 -0.066 0.013
Zn4 0.0327 0.0269 0.0417 -0.01538 -0.0212 0.00302
N1 0.0363 0.0337 0.0466 -0.0177 -0.0239 0.0041
N3 0.0322 0.0369 0.0463 -0.0209 -0.0246 0.0063
C1 0.0327 0.0361 0.0398 -0.0124 -0.0193 -0.0001
C2 0.039 0.0335 0.043 -0.0134 -0.0253 0.0029
C11 0.068 0.045 0.105 -0.033 -0.066 0.02
C12 0.071 0.04 0.106 -0.033 -0.066 0.013
O7 0.0318 0.0621 0.0712 -0.0383 -0.0173 0.0063
O8 0.038 0.072 0.056 -0.0299 -0.0129 -0.0118
C24 0.0305 0.04 0.045 -0.0176 -0.0234 0.004
C25 0.0331 0.048 0.041 -0.0219 -0.0181 0.0052
C26 0.037 0.048 0.044 -0.0173 -0.0217 0.0044
N5 0.0486 0.0232 0.0419 -0.0081 -0.0229 -0.0018
N6 0.0515 0.0256 0.0494 -0.015 -0.0266 0.0054
C15 0.054 0.0294 0.044 -0.0093 -0.0284 0.0026
C16 0.043 0.0211 0.042 -0.011 -0.0198 0.0012
C18 0.049 0.0296 0.042 -0.0126 -0.0215 0.0075
C20 0.054 0.042 0.049 -0.0144 -0.005 0.01
C21 0.068 0.031 0.061 -0.014 -0.011 0.017
N2 0.0486 0.0232 0.0419 -0.0081 -0.0229 -0.0018
N4 0.0515 0.0256 0.0494 -0.015 -0.0266 0.0054
C3 0.054 0.0294 0.044 -0.0093 -0.0284 0.0026
C5 0.043 0.0211 0.042 -0.011 -0.0198 0.0012
C8 0.049 0.0296 0.042 -0.0126 -0.0215 0.0075
C13 0.054 0.042 0.049 -0.0144 -0.005 0.01
C14 0.068 0.031 0.061 -0.014 -0.011 0.017
O9 0.0559 0.0326 0.0486 -0.0199 -0.0201 -0.0054
O3 0.159 0.058 0.051 -0.0083 -0.059 -0.022
C7 0.048 0.032 0.047 -0.0189 -0.024 0.0033
C10 0.046 0.0285 0.04 -0.0132 -0.0191 -0.0027
loop_
_geom_bond_atom_site_label_1
_geom_bond_atom_site_label_2
_geom_bond_site_symmetry_1
_geom_bond_site_symmetry_2
O2 C9 1_555 1_555
O4 C9 1_555 1_555
C4 C6 1_555 1_555
C6 H3 1_555 1_555
C9 C4 1_555 1_555
O5 C17 1_555 1_555
O6 C17 1_555 1_555
C17 C19 1_555 1_555
N7 C23 1_555 1_555
N8 C22 1_555 1_555
C22 C6 1_555 1_555
C23 N8 1_555 1_555
H13 C23 1_555 1_555
C27 N8 1_555 1_555
H15 C27 1_555 1_555
C28 N7 1_555 1_555
H16 C28 1_555 1_555
Zn4 N7 1_555 1_555
Zn7 O5 1_555 1_555
C27 C28 1_555 1_555
N1 C2 1_555 1_555
N3 C1 1_555 1_555
C2 N3 1_555 1_555
H1 C2 1_555 1_555
C11 N3 1_555 1_555
H5 C11 1_555 1_555
C12 N1 1_555 1_555
H6 C12 1_555 1_555
O7 C26 1_555 1_555
O8 C26 1_555 1_555
C25 C1 1_555 1_555
H14 C25 1_555 1_555
C26 C24 1_555 1_555
Zn7 N1 1_555 1_555
C11 C12 1_555 1_555
C24 C25 1_555 1_555
N5 C16 1_555 1_555
N6 C18 1_555 1_555
C15 H9 1_555 1_555
C18 N5 1_555 1_555
C20 N5 1_555 1_555
H11 C20 1_555 1_555
C21 N6 1_555 1_555
H12 C21 1_555 1_555
Zn7 N6 1_555 1_555
C15 C16 1_555 1_555
C20 C21 1_555 1_555
N2 C5 1_555 1_555
N4 Zn4 1_555 1_555
C3 H2 1_555 1_555
C5 C3 1_555 1_555
C8 N2 1_555 1_555
C13 N2 1_555 1_555
H7 C13 1_555 1_555
C14 N4 1_555 1_555
H8 C14 1_555 1_555
O9 Zn4 1_555 1_555
N4 C8 1_555 1_555
C13 C14 1_555 1_555
O9 C7 1_555 1_555
O3 C7 1_555 1_555
C7 C10 1_555 1_555

#END
