
###############################################################################
#
# This file contains modified crystal structure data generated from the
# MOF subset of the Cambridge Structural Database (CSD) v543 
# hosted by the Cambridge Crystallographic Data Centre (CCDC).
#
# This work is licensed under the Creative Commons
# Attribution-NonCommercial-ShareAlike 4.0 International License.
# To view a copy of this license, visit
# http://creativecommons.org/licenses/by-nc-sa/4.0/
# or send a letter to
# Creative Commons, PO Box 1866, Mountain View, CA 94042, USA.
#
# CIF created using the CSD Python API on 29 September 2022
# The structure has been converted into the P1 space group
# The structure has a 3D framework
# The original CSD entry JOTYUP is in the monoclinic crystal system
# The framework has been calculated to contain at least 10.0% void space
# The void calculation uses a probe of radius 1.32A, grid spacing 0.4
#
###############################################################################

data_JOTYUP
_chemical_formula_moiety         '(C56 H32 N16 O16 Zn2)n'
_symmetry_cell_setting           triclinic
_symmetry_space_group_name_H-M   'P 1'
_symmetry_Int_Tables_number      1
_space_group_name_Hall           'P 1'
loop_
_symmetry_equiv_pos_site_id
_symmetry_equiv_pos_as_xyz
1 x,y,z
_cell_length_a                   17.767(5)
_cell_length_b                   11.463(3)
_cell_length_c                   12.541(4)
_cell_angle_alpha                90
_cell_angle_beta                 106.888(6)
_cell_angle_gamma                90
_cell_volume                     2443.99
loop_
_atom_site_label
_atom_site_type_symbol
_atom_site_fract_x
_atom_site_fract_y
_atom_site_fract_z
Zn1 Zn 0.500000 0.48740(10) 0.250000
O1 O 0.4097(4) 0.4378(7) 0.6484(5)
O2 O 0.3889(6) 0.3203(10) 0.7703(7)
N1 N 0.4624(3) 0.3881(5) 0.3558(5)
N2 N 0.3872(4) 0.3098(5) 0.4445(5)
C1 C 0.3915(4) 0.3794(6) 0.3631(6)
H1 H 0.348464 0.417873 0.316183
C2 C 0.3163(4) 0.2794(6) 0.4744(6)
C3 C 0.3116(4) 0.3050(8) 0.5792(7)
C4 C 0.3756(6) 0.3622(10) 0.6736(8)
C5 C 0.2426(5) 0.2715(8) 0.6031(7)
H2 H 0.237603 0.284663 0.673860
C6 C 0.4639(6) 0.2806(10) 0.5006(8)
H3 H 0.481237 0.236359 0.565301
C7 C 0.5074(5) 0.3289(9) 0.4430(8)
H4 H 0.561844 0.322557 0.460769
O3 O 0.0903(4) 0.0622(7) 0.3516(5)
O4 O 0.1111(6) 0.1797(10) 0.2297(7)
N3 N 0.0376(3) 0.1119(5) 0.6442(5)
N4 N 0.1128(4) 0.1902(5) 0.5555(5)
C8 C 0.1085(4) 0.1206(6) 0.6369(6)
H5 H 0.151536 0.082127 0.683817
C9 C 0.1837(4) 0.2206(6) 0.5256(6)
C10 C 0.1884(4) 0.1950(8) 0.4208(7)
C11 C 0.1244(6) 0.1378(10) 0.3264(8)
C12 C 0.2574(5) 0.2285(8) 0.3969(7)
H6 H 0.262397 0.215337 0.326140
C13 C 0.0361(6) 0.2194(10) 0.4994(8)
H7 H 0.018763 0.263641 0.434699
Zn3 Zn 0.500000 0.51260(10) 0.750000
Zn4 Zn 0.000000 0.01260(10) 0.750000
O5 O 0.5903(4) 0.5622(7) 0.3516(5)
O6 O 0.4097(4) 0.5622(7) 0.1484(5)
N5 N 0.5376(3) 0.3881(5) 0.1442(5)
Zn2 Zn -0.000000 0.98740(10) 0.250000
C14 C 0.9926(5) 0.1711(9) 0.5570(8)
H8 H 0.938156 0.177443 0.539231
Zn4_2 Zn 1.000000 0.01260(10) 0.750000
Zn2_2 Zn 1.000000 0.98740(10) 0.250000
C14_2 C 0.0074(5) 0.1711(9) 0.9430(8)
H8_2 H 0.061844 0.177443 0.960769
N2_2 N 0.6128(4) 0.3098(5) 0.0555(5)
C1_2 C 0.6085(4) 0.3794(6) 0.1369(6)
H1_2 H 0.651536 0.417873 0.183817
C2_2 C 0.6837(4) 0.2794(6) 0.0256(6)
C7_2 C 0.4926(5) 0.3289(9) 0.0570(8)
H4_2 H 0.438156 0.322557 0.039231
O3_2 O 0.9097(4) 0.0622(7) 0.1484(5)
O4_2 O 0.8889(6) 0.1797(10) 0.2703(7)
C10_2 C 0.8116(4) 0.1950(8) 0.0792(7)
C11_2 C 0.8756(6) 0.1378(10) 0.1736(8)
C12_2 C 0.7426(5) 0.2285(8) 0.1031(7)
H6_2 H 0.737603 0.215337 0.173860
C13_2 C 0.9639(6) 0.2194(10) 0.0006(8)
H7_2 H 0.981237 0.263641 0.065301
O1_2 O 0.5903(4) 0.4378(7) 0.8516(5)
O2_2 O 0.6111(6) 0.3203(10) 0.7297(7)
C3_2 C 0.6884(4) 0.3050(8) 0.9208(7)
C4_2 C 0.6244(6) 0.3622(10) 0.8264(8)
C5_2 C 0.7574(5) 0.2715(8) 0.8969(7)
H2_2 H 0.762397 0.284663 0.826140
C6_2 C 0.5361(6) 0.2806(10) 0.9994(8)
H3_2 H 0.518763 0.236359 0.934699
N3_2 N 0.9624(3) 0.1119(5) 0.8558(5)
N4_2 N 0.8872(4) 0.1902(5) 0.9445(5)
C8_2 C 0.8915(4) 0.1206(6) 0.8631(6)
H5_2 H 0.848464 0.082127 0.816183
C9_2 C 0.8163(4) 0.2206(6) 0.9744(6)
C7_3 C 0.0074(5) 0.8289(9) 0.4430(8)
H4_3 H 0.061844 0.822557 0.460769
N5_2 N 0.0376(3) 0.8881(5) 0.1442(5)
O1_3 O 0.9097(4) 0.9378(7) 0.6484(5)
O2_3 O 0.8889(6) 0.8203(10) 0.7703(7)
N1_2 N 0.9624(3) 0.8881(5) 0.3558(5)
N2_3 N 0.8872(4) 0.8098(5) 0.4445(5)
C1_3 C 0.8915(4) 0.8794(6) 0.3631(6)
H1_3 H 0.848464 0.917873 0.316183
C2_3 C 0.8163(4) 0.7794(6) 0.4744(6)
C3_3 C 0.8116(4) 0.8050(8) 0.5792(7)
C4_3 C 0.8756(6) 0.8622(10) 0.6736(8)
C5_3 C 0.7426(5) 0.7715(8) 0.6031(7)
H2_3 H 0.737603 0.784663 0.673860
C6_3 C 0.9639(6) 0.7806(10) 0.5006(8)
H3_3 H 0.981237 0.736359 0.565301
O4_3 O 0.6111(6) 0.6797(10) 0.2297(7)
N3_3 N 0.5376(3) 0.6119(5) 0.6442(5)
N4_3 N 0.6128(4) 0.6902(5) 0.5555(5)
C8_3 C 0.6085(4) 0.6206(6) 0.6369(6)
H5_3 H 0.651536 0.582127 0.683817
C9_3 C 0.6837(4) 0.7206(6) 0.5256(6)
C10_3 C 0.6884(4) 0.6950(8) 0.4208(7)
C11_3 C 0.6244(6) 0.6378(10) 0.3264(8)
C12_3 C 0.7574(5) 0.7285(8) 0.3969(7)
H6_3 H 0.762397 0.715337 0.326140
C13_3 C 0.5361(6) 0.7194(10) 0.4994(8)
H7_3 H 0.518763 0.763641 0.434699
C14_3 C 0.4926(5) 0.6711(9) 0.5570(8)
H8_3 H 0.438156 0.677443 0.539231
N2_4 N 0.1128(4) 0.8098(5) 0.0555(5)
C1_4 C 0.1085(4) 0.8794(6) 0.1369(6)
H1_4 H 0.151536 0.917873 0.183817
C2_4 C 0.1837(4) 0.7794(6) 0.0256(6)
O4_4 O 0.3889(6) 0.6797(10) 0.2703(7)
C10_4 C 0.3116(4) 0.6950(8) 0.0792(7)
C11_4 C 0.3756(6) 0.6378(10) 0.1736(8)
C12_4 C 0.2426(5) 0.7285(8) 0.1031(7)
H6_4 H 0.237603 0.715337 0.173860
C13_4 C 0.4639(6) 0.7194(10) 0.0006(8)
H7_4 H 0.481237 0.763641 0.065301
O1_4 O 0.0903(4) 0.9378(7) 0.8516(5)
O2_4 O 0.1111(6) 0.8203(10) 0.7297(7)
C3_4 C 0.1884(4) 0.8050(8) 0.9208(7)
C4_4 C 0.1244(6) 0.8622(10) 0.8264(8)
C5_4 C 0.2574(5) 0.7715(8) 0.8969(7)
H2_4 H 0.262397 0.784663 0.826140
C6_4 C 0.0361(6) 0.7806(10) 0.9994(8)
H3_4 H 0.018763 0.736359 0.934699
N3_4 N 0.4624(3) 0.6119(5) 0.8558(5)
N4_4 N 0.3872(4) 0.6902(5) 0.9445(5)
C8_4 C 0.3915(4) 0.6206(6) 0.8631(6)
H5_4 H 0.348464 0.582127 0.816183
C9_4 C 0.3163(4) 0.7206(6) 0.9744(6)
C14_4 C 0.5074(5) 0.6711(9) 0.9430(8)
H8_4 H 0.561844 0.677443 0.960769
C7_4 C 0.9926(5) 0.8289(9) 0.0570(8)
H4_4 H 0.938156 0.822557 0.039231
loop_
_geom_bond_atom_site_label_1
_geom_bond_atom_site_label_2
_geom_bond_site_symmetry_1
_geom_bond_site_symmetry_2
Zn1 N1 1_555 1_555
O1 C4 1_555 1_555
O2 C4 1_555 1_555
N1 C1 1_555 1_555
N2 C1 1_555 1_555
C1 H1 1_555 1_555
C2 N2 1_555 1_555
C3 C2 1_555 1_555
C4 C3 1_555 1_555
C5 C3 1_555 1_555
H2 C5 1_555 1_555
C6 N2 1_555 1_555
H3 C6 1_555 1_555
C7 N1 1_555 1_555
H4 C7 1_555 1_555
O3 C11 1_555 1_555
O4 C11 1_555 1_555
N3 C8 1_555 1_555
N4 C8 1_555 1_555
C8 H5 1_555 1_555
C9 C5 1_555 1_555
C10 C9 1_555 1_555
C11 C10 1_555 1_555
C12 C2 1_555 1_555
H6 C12 1_555 1_555
C13 N4 1_555 1_555
H7 C13 1_555 1_555
Zn3 O1 1_555 1_555
Zn4 N3 1_555 1_555
O5 Zn1 1_555 1_555
O6 Zn1 1_555 1_555
N5 Zn1 1_555 1_555
C6 C7 1_555 1_555
N4 C9 1_555 1_555
C10 C12 1_555 1_555
H8 C14 1_555 1_555
H8_2 C14_2 1_555 1_555
N5 C1_2 1_555 1_555
N2_2 C1_2 1_555 1_555
C1_2 H1_2 1_555 1_555
C2_2 N2_2 1_555 1_555
C7_2 N5 1_555 1_555
H4_2 C7_2 1_555 1_555
O3_2 C11_2 1_555 1_555
O4_2 C11_2 1_555 1_555
C11_2 C10_2 1_555 1_555
C12_2 C2_2 1_555 1_555
H6_2 C12_2 1_555 1_555
H7_2 C13_2 1_555 1_555
C10_2 C12_2 1_555 1_555
O1_2 C4_2 1_555 1_555
O2_2 C4_2 1_555 1_555
C4_2 C3_2 1_555 1_555
C5_2 C3_2 1_555 1_555
H2_2 C5_2 1_555 1_555
H3_2 C6_2 1_555 1_555
N3_2 C8_2 1_555 1_555
N4_2 C8_2 1_555 1_555
C8_2 H5_2 1_555 1_555
C9_2 C5_2 1_555 1_555
Zn3 O1_2 1_555 1_555
Zn4_2 N3_2 1_555 1_555
N4_2 C9_2 1_555 1_555
H4_3 C7_3 1_555 1_555
N5_2 Zn2 1_555 1_555
Zn2_2 N1_2 1_555 1_555
O1_3 C4_3 1_555 1_555
O2_3 C4_3 1_555 1_555
N1_2 C1_3 1_555 1_555
N2_3 C1_3 1_555 1_555
C1_3 H1_3 1_555 1_555
C2_3 N2_3 1_555 1_555
C3_3 C2_3 1_555 1_555
C4_3 C3_3 1_555 1_555
C5_3 C3_3 1_555 1_555
H2_3 C5_3 1_555 1_555
C6_3 N2_3 1_555 1_555
H3_3 C6_3 1_555 1_555
O5 C11_3 1_555 1_555
O4_3 C11_3 1_555 1_555
N3_3 C8_3 1_555 1_555
N4_3 C8_3 1_555 1_555
C8_3 H5_3 1_555 1_555
C9_3 C5_3 1_555 1_555
C10_3 C9_3 1_555 1_555
C11_3 C10_3 1_555 1_555
C12_3 C2_3 1_555 1_555
H6_3 C12_3 1_555 1_555
C13_3 N4_3 1_555 1_555
H7_3 C13_3 1_555 1_555
C14_3 N3_3 1_555 1_555
H8_3 C14_3 1_555 1_555
Zn3 N3_3 1_555 1_555
N4_3 C9_3 1_555 1_555
C10_3 C12_3 1_555 1_555
C13_3 C14_3 1_555 1_555
N5_2 C1_4 1_555 1_555
N2_4 C1_4 1_555 1_555
C1_4 H1_4 1_555 1_555
C2_4 N2_4 1_555 1_555
O6 C11_4 1_555 1_555
O4_4 C11_4 1_555 1_555
C11_4 C10_4 1_555 1_555
C12_4 C2_4 1_555 1_555
H6_4 C12_4 1_555 1_555
H7_4 C13_4 1_555 1_555
C10_4 C12_4 1_555 1_555
O1_4 C4_4 1_555 1_555
O2_4 C4_4 1_555 1_555
C4_4 C3_4 1_555 1_555
C5_4 C3_4 1_555 1_555
H2_4 C5_4 1_555 1_555
H3_4 C6_4 1_555 1_555
N3_4 C8_4 1_555 1_555
N4_4 C8_4 1_555 1_555
C8_4 H5_4 1_555 1_555
C9_4 C5_4 1_555 1_555
C14_4 N3_4 1_555 1_555
H8_4 C14_4 1_555 1_555
Zn3 N3_4 1_555 1_555
N4_4 C9_4 1_555 1_555
H4_4 C7_4 1_555 1_555

#END
