
###############################################################################
#
# This file contains modified crystal structure data generated from the
# MOF subset of the Cambridge Structural Database (CSD) v543 
# hosted by the Cambridge Crystallographic Data Centre (CCDC).
#
# This work is licensed under the Creative Commons
# Attribution-NonCommercial-ShareAlike 4.0 International License.
# To view a copy of this license, visit
# http://creativecommons.org/licenses/by-nc-sa/4.0/
# or send a letter to
# Creative Commons, PO Box 1866, Mountain View, CA 94042, USA.
#
# CIF created using the CSD Python API on 29 September 2022
# The structure has been converted into the P1 space group
# The structure has a 3D framework
# The original CSD entry JOVDAC is in the orthorhombic crystal system
# The framework has been calculated to contain at least 10.0% void space
# The void calculation uses a probe of radius 1.32A, grid spacing 0.4
#
###############################################################################

data_JOVDAC
_chemical_formula_moiety         '(C112 H72 Co6 N32 O16)n'
_symmetry_cell_setting           triclinic
_symmetry_space_group_name_H-M   'P 1'
_symmetry_Int_Tables_number      1
_space_group_name_Hall           'P 1'
loop_
_symmetry_equiv_pos_site_id
_symmetry_equiv_pos_as_xyz
1 x,y,z
_cell_length_a                   21.750(18)
_cell_length_b                   8.495(7)
_cell_length_c                   15.864(13)
_cell_angle_alpha                90
_cell_angle_beta                 90
_cell_angle_gamma                90
_cell_volume                     2931.13
loop_
_atom_site_label
_atom_site_type_symbol
_atom_site_fract_x
_atom_site_fract_y
_atom_site_fract_z
Co3 Co 0.0000 0.22240(11) 0.7500
N4 N 0.07110(18) 0.0634(5) 0.7687(3)
C12 C 0.1067(3) 0.0133(7) 0.7058(3)
H7 H 0.0966 0.0428 0.6511
C13 C 0.0865(2) 0.0207(7) 0.8467(3)
H8 H 0.0627 0.0565 0.8914
O3 O 0.01777(15) 0.2873(4) 0.6289(2)
O4 O 0.07582(16) 0.4053(4) 0.7224(2)
N5 N 0.25338(19) 0.7446(5) 0.3945(3)
N6 N 0.19020(18) 0.6571(5) 0.2992(2)
H10 H 0.1589 0.6108 0.2773
N7 N 0.23459(19) 0.7309(5) 0.2544(3)
C15 C 0.0614(2) 0.3805(6) 0.6466(3)
C16 C 0.0962(2) 0.4569(6) 0.5771(3)
C17 C 0.0788(2) 0.4360(6) 0.4943(3)
H11 H 0.0445 0.3748 0.4818
C18 C 0.1119(2) 0.5051(6) 0.4296(3)
H12 H 0.0994 0.4921 0.3740
C19 C 0.1642(2) 0.5946(6) 0.4481(3)
C20 C 0.1815(3) 0.6146(7) 0.5311(3)
H13 H 0.2164 0.6733 0.5438
C21 C 0.1480(3) 0.5489(7) 0.5949(3)
H14 H 0.1596 0.5655 0.6506
C22 C 0.2014(2) 0.6656(5) 0.3819(3)
C23 C 0.2711(2) 0.7806(6) 0.3152(3)
C24 C 0.3266(2) 0.8758(6) 0.2986(3)
C25 C 0.3424(3) 0.9201(7) 0.2180(3)
H15 H 0.3189 0.8874 0.1723
C28 C 0.3636(2) 0.9256(7) 0.3638(4)
H18 H 0.3550 0.8955 0.4189
N8 N 0.92890(18) 0.0634(5) 0.7313(3)
C26 C 0.8933(3) 0.0133(7) 0.7942(3)
H16 H 0.9034 0.0428 0.8489
C27 C 0.9135(2) 0.0207(7) 0.6533(3)
H17 H 0.9373 0.0565 0.6086
Co3_2 Co 1.0000 0.22240(11) 0.7500
O1 O 0.98223(15) 0.2873(4) 0.8711(2)
O2 O 0.92418(16) 0.4053(4) 0.7776(2)
C1 C 0.9386(2) 0.3805(6) 0.8534(3)
C2 C 0.9038(2) 0.4569(6) 0.9229(3)
C6 C 0.8185(3) 0.6146(7) 0.9689(3)
H4 H 0.7836 0.6733 0.9562
C7 C 0.8520(3) 0.5489(7) 0.9051(3)
H5 H 0.8404 0.5655 0.8494
Co1 Co 0.5000 0.22240(11) 0.2500
O1_2 O 0.48223(15) 0.2873(4) 0.1289(2)
O2_2 O 0.42418(16) 0.4053(4) 0.2224(2)
C1_2 C 0.4386(2) 0.3805(6) 0.1466(3)
C2_2 C 0.4038(2) 0.4569(6) 0.0771(3)
C6_2 C 0.3185(3) 0.6146(7) 0.0311(3)
H4_2 H 0.2836 0.6733 0.0438
C7_2 C 0.3520(3) 0.5489(7) 0.0949(3)
H5_2 H 0.3404 0.5655 0.1506
O3_2 O 0.51777(15) 0.2873(4) 0.3711(2)
O4_2 O 0.57582(16) 0.4053(4) 0.2776(2)
N5_2 N 0.75338(19) 0.7446(5) 0.6055(3)
N6_2 N 0.69020(18) 0.6571(5) 0.7008(2)
H10_2 H 0.6589 0.6108 0.7227
N7_2 N 0.73459(19) 0.7309(5) 0.7456(3)
C15_2 C 0.5614(2) 0.3805(6) 0.3534(3)
C16_2 C 0.5962(2) 0.4569(6) 0.4229(3)
C17_2 C 0.5788(2) 0.4360(6) 0.5057(3)
H11_2 H 0.5445 0.3748 0.5182
C18_2 C 0.6119(2) 0.5051(6) 0.5704(3)
H12_2 H 0.5994 0.4921 0.6260
C19_2 C 0.6642(2) 0.5946(6) 0.5519(3)
C20_2 C 0.6815(3) 0.6146(7) 0.4689(3)
H13_2 H 0.7164 0.6733 0.4562
C21_2 C 0.6480(3) 0.5489(7) 0.4051(3)
H14_2 H 0.6596 0.5655 0.3494
C22_2 C 0.7014(2) 0.6656(5) 0.6181(3)
C23_2 C 0.7711(2) 0.7806(6) 0.6848(3)
C24_2 C 0.8266(2) 0.8758(6) 0.7014(3)
C25_2 C 0.8424(3) 0.9201(7) 0.7820(3)
H15_2 H 0.8189 0.8874 0.8277
C28_2 C 0.8636(2) 0.9256(7) 0.6362(4)
H18_2 H 0.8550 0.8955 0.5811
N9 N 0.57110(18) 0.0634(5) 0.2313(3)
N10 N 0.42890(18) 0.0634(5) 0.2687(3)
C26_2 C 0.3933(3) 0.0133(7) 0.2058(3)
H16_2 H 0.4034 0.0428 0.1511
C27_2 C 0.4135(2) 0.0207(7) 0.3467(3)
H17_2 H 0.4373 0.0565 0.3914
C12_2 C 0.6067(3) 0.0133(7) 0.2942(3)
H7_2 H 0.5966 0.0428 0.3489
C13_2 C 0.5865(2) 0.0207(7) 0.1533(3)
H8_2 H 0.5627 0.0565 0.1086
N1 N 0.24662(19) 0.7446(5) 0.8945(3)
N2 N 0.30980(18) 0.6571(5) 0.7992(2)
H1 H 0.3411 0.6108 0.7773
N3 N 0.26541(19) 0.7309(5) 0.7544(3)
C3 C 0.4212(2) 0.4360(6) 0.9943(3)
H2 H 0.4555 0.3748 0.9818
C4 C 0.3881(2) 0.5051(6) 0.9296(3)
H3 H 0.4006 0.4921 0.8740
C5 C 0.3358(2) 0.5946(6) 0.9481(3)
C8 C 0.2986(2) 0.6656(5) 0.8819(3)
C9 C 0.2289(2) 0.7806(6) 0.8152(3)
C10 C 0.1734(2) 0.8758(6) 0.7986(3)
C11 C 0.1576(3) 0.9201(7) 0.7180(3)
H6 H 0.1811 0.8874 0.6723
C14 C 0.1364(2) 0.9256(7) 0.8638(4)
H9 H 0.1450 0.8955 0.9189
Co1_2 Co -0.0000 0.77760(11) 0.2500
O1_3 O 0.01777(15) 0.7127(4) 0.1289(2)
O2_3 O 0.07582(16) 0.5947(4) 0.2224(2)
C1_3 C 0.0614(2) 0.6195(6) 0.1466(3)
C2_3 C 0.0962(2) 0.5431(6) 0.0771(3)
C6_3 C 0.1815(3) 0.3854(7) 0.0311(3)
H4_3 H 0.2164 0.3267 0.0438
C7_3 C 0.1480(3) 0.4511(7) 0.0949(3)
H5_3 H 0.1596 0.4345 0.1506
N10_2 N 0.07110(18) 0.9366(5) 0.2687(3)
C26_3 C 0.1067(3) 0.9867(7) 0.2058(3)
H16_3 H 0.0966 0.9572 0.1511
C27_3 C 0.0865(2) 0.9793(7) 0.3467(3)
H17_3 H 0.0627 0.9435 0.3914
N1_2 N 0.25338(19) 0.2554(5) 0.8945(3)
N2_2 N 0.19020(18) 0.3429(5) 0.7992(2)
H1_2 H 0.1589 0.3892 0.7773
N3_2 N 0.23459(19) 0.2691(5) 0.7544(3)
C3_2 C 0.0788(2) 0.5640(6) 0.9943(3)
H2_2 H 0.0445 0.6252 0.9818
C4_2 C 0.1119(2) 0.4949(6) 0.9296(3)
H3_2 H 0.0994 0.5079 0.8740
C5_2 C 0.1642(2) 0.4054(6) 0.9481(3)
C8_2 C 0.2014(2) 0.3344(5) 0.8819(3)
C9_2 C 0.2711(2) 0.2194(6) 0.8152(3)
C10_2 C 0.3266(2) 0.1242(6) 0.7986(3)
C11_2 C 0.3424(3) 0.0799(7) 0.7180(3)
H6_2 H 0.3189 0.1126 0.6723
C14_2 C 0.3636(2) 0.0744(7) 0.8638(4)
H9_2 H 0.3550 0.1045 0.9189
N4_2 N 0.42890(18) 0.9366(5) 0.7687(3)
C12_3 C 0.3933(3) 0.9867(7) 0.7058(3)
H7_3 H 0.4034 0.9572 0.6511
C13_3 C 0.4135(2) 0.9793(7) 0.8467(3)
H8_3 H 0.4373 0.9435 0.8914
Co2 Co 0.5000 0.77760(11) 0.7500
N8_2 N 0.57110(18) 0.9366(5) 0.7313(3)
C26_4 C 0.6067(3) 0.9867(7) 0.7942(3)
H16_4 H 0.5966 0.9572 0.8489
C27_4 C 0.5865(2) 0.9793(7) 0.6533(3)
H17_4 H 0.5627 0.9435 0.6086
O1_4 O 0.51777(15) 0.7127(4) 0.8711(2)
O2_4 O 0.57582(16) 0.5947(4) 0.7776(2)
C1_4 C 0.5614(2) 0.6195(6) 0.8534(3)
C2_4 C 0.5962(2) 0.5431(6) 0.9229(3)
C6_4 C 0.6815(3) 0.3854(7) 0.9689(3)
H4_4 H 0.7164 0.3267 0.9562
C7_4 C 0.6480(3) 0.4511(7) 0.9051(3)
H5_4 H 0.6596 0.4345 0.8494
O3_3 O 0.48223(15) 0.7127(4) 0.6289(2)
O4_3 O 0.42418(16) 0.5947(4) 0.7224(2)
N5_3 N 0.24662(19) 0.2554(5) 0.3945(3)
N6_3 N 0.30980(18) 0.3429(5) 0.2992(2)
H10_3 H 0.3411 0.3892 0.2773
N7_3 N 0.26541(19) 0.2691(5) 0.2544(3)
C15_3 C 0.4386(2) 0.6195(6) 0.6466(3)
C16_3 C 0.4038(2) 0.5431(6) 0.5771(3)
C17_3 C 0.4212(2) 0.5640(6) 0.4943(3)
H11_3 H 0.4555 0.6252 0.4818
C18_3 C 0.3881(2) 0.4949(6) 0.4296(3)
H12_3 H 0.4006 0.5079 0.3740
C19_3 C 0.3358(2) 0.4054(6) 0.4481(3)
C20_3 C 0.3185(3) 0.3854(7) 0.5311(3)
H13_3 H 0.2836 0.3267 0.5438
C21_3 C 0.3520(3) 0.4511(7) 0.5949(3)
H14_3 H 0.3404 0.4345 0.6506
C22_3 C 0.2986(2) 0.3344(5) 0.3819(3)
C23_3 C 0.2289(2) 0.2194(6) 0.3152(3)
C24_3 C 0.1734(2) 0.1242(6) 0.2986(3)
C25_3 C 0.1576(3) 0.0799(7) 0.2180(3)
H15_3 H 0.1811 0.1126 0.1723
C28_3 C 0.1364(2) 0.0744(7) 0.3638(4)
H18_3 H 0.1450 0.1045 0.4189
Co1_3 Co 1.0000 0.77760(11) 0.2500
O3_4 O 0.98223(15) 0.7127(4) 0.3711(2)
O4_4 O 0.92418(16) 0.5947(4) 0.2776(2)
N5_4 N 0.74662(19) 0.2554(5) 0.6055(3)
N6_4 N 0.80980(18) 0.3429(5) 0.7008(2)
H10_4 H 0.8411 0.3892 0.7227
N7_4 N 0.76541(19) 0.2691(5) 0.7456(3)
C15_4 C 0.9386(2) 0.6195(6) 0.3534(3)
C16_4 C 0.9038(2) 0.5431(6) 0.4229(3)
C17_4 C 0.9212(2) 0.5640(6) 0.5057(3)
H11_4 H 0.9555 0.6252 0.5182
C18_4 C 0.8881(2) 0.4949(6) 0.5704(3)
H12_4 H 0.9006 0.5079 0.6260
C19_4 C 0.8358(2) 0.4054(6) 0.5519(3)
C20_4 C 0.8185(3) 0.3854(7) 0.4689(3)
H13_4 H 0.7836 0.3267 0.4562
C21_4 C 0.8520(3) 0.4511(7) 0.4051(3)
H14_4 H 0.8404 0.4345 0.3494
C22_4 C 0.7986(2) 0.3344(5) 0.6181(3)
C23_4 C 0.7289(2) 0.2194(6) 0.6848(3)
C24_4 C 0.6734(2) 0.1242(6) 0.7014(3)
C25_4 C 0.6576(3) 0.0799(7) 0.7820(3)
H15_4 H 0.6811 0.1126 0.8277
C28_4 C 0.6364(2) 0.0744(7) 0.6362(4)
H18_4 H 0.6450 0.1045 0.5811
N9_2 N 0.92890(18) 0.9366(5) 0.2313(3)
C12_4 C 0.8933(3) 0.9867(7) 0.2942(3)
H7_4 H 0.9034 0.9572 0.3489
C13_4 C 0.9135(2) 0.9793(7) 0.1533(3)
H8_4 H 0.9373 0.9435 0.1086
N1_3 N 0.75338(19) 0.2554(5) 0.1055(3)
N2_3 N 0.69020(18) 0.3429(5) 0.2008(2)
H1_3 H 0.6589 0.3892 0.2227
N3_3 N 0.73459(19) 0.2691(5) 0.2456(3)
C3_3 C 0.5788(2) 0.5640(6) 0.0057(3)
H2_3 H 0.5445 0.6252 0.0182
C4_3 C 0.6119(2) 0.4949(6) 0.0704(3)
H3_3 H 0.5994 0.5079 0.1260
C5_3 C 0.6642(2) 0.4054(6) 0.0519(3)
C8_3 C 0.7014(2) 0.3344(5) 0.1181(3)
C9_3 C 0.7711(2) 0.2194(6) 0.1848(3)
C10_3 C 0.8266(2) 0.1242(6) 0.2014(3)
C11_3 C 0.8424(3) 0.0799(7) 0.2820(3)
H6_3 H 0.8189 0.1126 0.3277
C14_3 C 0.8636(2) 0.0744(7) 0.1362(4)
H9_3 H 0.8550 0.1045 0.0811
N1_4 N 0.74662(19) 0.7446(5) 0.1055(3)
N2_4 N 0.80980(18) 0.6571(5) 0.2008(2)
H1_4 H 0.8411 0.6108 0.2227
N3_4 N 0.76541(19) 0.7309(5) 0.2456(3)
C3_4 C 0.9212(2) 0.4360(6) 0.0057(3)
H2_4 H 0.9555 0.3748 0.0182
C4_4 C 0.8881(2) 0.5051(6) 0.0704(3)
H3_4 H 0.9006 0.4921 0.1260
C5_4 C 0.8358(2) 0.5946(6) 0.0519(3)
C8_4 C 0.7986(2) 0.6656(5) 0.1181(3)
C9_4 C 0.7289(2) 0.7806(6) 0.1848(3)
C10_4 C 0.6734(2) 0.8758(6) 0.2014(3)
C11_4 C 0.6576(3) 0.9201(7) 0.2820(3)
H6_4 H 0.6811 0.8874 0.3277
C14_4 C 0.6364(2) 0.9256(7) 0.1362(4)
H9_4 H 0.6450 0.8955 0.0811
loop_
_geom_bond_atom_site_label_1
_geom_bond_atom_site_label_2
_geom_bond_site_symmetry_1
_geom_bond_site_symmetry_2
N4 C12 1_555 1_555
H7 C12 1_555 1_555
C13 N4 1_555 1_555
H8 C13 1_555 1_555
Co3 N4 1_555 1_555
O3 Co3 1_555 1_555
O4 Co3 1_555 1_555
N5 C22 1_555 1_555
N6 H10 1_555 1_555
N7 N6 1_555 1_555
C15 O3 1_555 1_555
C16 C15 1_555 1_555
C17 C16 1_555 1_555
H11 C17 1_555 1_555
C18 C17 1_555 1_555
H12 C18 1_555 1_555
C19 C18 1_555 1_555
C20 C19 1_555 1_555
H13 C20 1_555 1_555
C21 C16 1_555 1_555
H14 C21 1_555 1_555
C22 N6 1_555 1_555
C23 N5 1_555 1_555
C24 C23 1_555 1_555
C25 C24 1_555 1_555
H15 C25 1_555 1_555
C28 C24 1_555 1_555
H18 C28 1_555 1_555
O4 C15 1_555 1_555
N7 C23 1_555 1_555
C19 C22 1_555 1_555
C20 C21 1_555 1_555
N8 C26 1_555 1_555
H16 C26 1_555 1_555
C27 N8 1_555 1_555
H17 C27 1_555 1_555
Co3_2 N8 1_555 1_555
Co3_2 O1 1_555 1_555
O1 C1 1_555 1_555
O2 Co3_2 1_555 1_555
C1 O2 1_555 1_555
C2 C1 1_555 1_555
H4 C6 1_555 1_555
C7 C2 1_555 1_555
H5 C7 1_555 1_555
C6 C7 1_555 1_555
Co1 O1_2 1_555 1_555
O1_2 C1_2 1_555 1_555
O2_2 Co1 1_555 1_555
C1_2 O2_2 1_555 1_555
C2_2 C1_2 1_555 1_555
H4_2 C6_2 1_555 1_555
C7_2 C2_2 1_555 1_555
H5_2 C7_2 1_555 1_555
O3_2 Co1 1_555 1_555
O4_2 Co1 1_555 1_555
N5_2 C22_2 1_555 1_555
N6_2 H10_2 1_555 1_555
N7_2 N6_2 1_555 1_555
C15_2 O3_2 1_555 1_555
C16_2 C15_2 1_555 1_555
C17_2 C16_2 1_555 1_555
H11_2 C17_2 1_555 1_555
C18_2 C17_2 1_555 1_555
H12_2 C18_2 1_555 1_555
C19_2 C18_2 1_555 1_555
C20_2 C19_2 1_555 1_555
H13_2 C20_2 1_555 1_555
C21_2 C16_2 1_555 1_555
H14_2 C21_2 1_555 1_555
C22_2 N6_2 1_555 1_555
C23_2 N5_2 1_555 1_555
C24_2 C23_2 1_555 1_555
C25_2 C24_2 1_555 1_555
H15_2 C25_2 1_555 1_555
C28_2 C24_2 1_555 1_555
H18_2 C28_2 1_555 1_555
N9 Co1 1_555 1_555
N10 Co1 1_555 1_555
C6_2 C7_2 1_555 1_555
O4_2 C15_2 1_555 1_555
N7_2 C23_2 1_555 1_555
C19_2 C22_2 1_555 1_555
C20_2 C21_2 1_555 1_555
N10 C26_2 1_555 1_555
H16_2 C26_2 1_555 1_555
C27_2 N10 1_555 1_555
H17_2 C27_2 1_555 1_555
N9 C12_2 1_555 1_555
H7_2 C12_2 1_555 1_555
C13_2 N9 1_555 1_555
H8_2 C13_2 1_555 1_555
N1 C8 1_555 1_555
N2 H1 1_555 1_555
N3 N2 1_555 1_555
H2 C3 1_555 1_555
C4 C3 1_555 1_555
H3 C4 1_555 1_555
C5 C4 1_555 1_555
C8 N2 1_555 1_555
C9 N1 1_555 1_555
C10 C9 1_555 1_555
C11 C10 1_555 1_555
H6 C11 1_555 1_555
C14 C10 1_555 1_555
H9 C14 1_555 1_555
N3 C9 1_555 1_555
C5 C8 1_555 1_555
Co1_2 O1_3 1_555 1_555
O1_3 C1_3 1_555 1_555
O2_3 Co1_2 1_555 1_555
C1_3 O2_3 1_555 1_555
C2_3 C1_3 1_555 1_555
H4_3 C6_3 1_555 1_555
C7_3 C2_3 1_555 1_555
H5_3 C7_3 1_555 1_555
N10_2 Co1_2 1_555 1_555
C6_3 C7_3 1_555 1_555
N10_2 C26_3 1_555 1_555
H16_3 C26_3 1_555 1_555
C27_3 N10_2 1_555 1_555
H17_3 C27_3 1_555 1_555
N1_2 C8_2 1_555 1_555
N2_2 H1_2 1_555 1_555
N3_2 N2_2 1_555 1_555
H2_2 C3_2 1_555 1_555
C4_2 C3_2 1_555 1_555
H3_2 C4_2 1_555 1_555
C5_2 C4_2 1_555 1_555
C8_2 N2_2 1_555 1_555
C9_2 N1_2 1_555 1_555
C10_2 C9_2 1_555 1_555
C11_2 C10_2 1_555 1_555
H6_2 C11_2 1_555 1_555
C14_2 C10_2 1_555 1_555
H9_2 C14_2 1_555 1_555
N3_2 C9_2 1_555 1_555
C5_2 C8_2 1_555 1_555
N4_2 C12_3 1_555 1_555
H7_3 C12_3 1_555 1_555
C13_3 N4_2 1_555 1_555
H8_3 C13_3 1_555 1_555
Co2 N4_2 1_555 1_555
N8_2 C26_4 1_555 1_555
H16_4 C26_4 1_555 1_555
C27_4 N8_2 1_555 1_555
H17_4 C27_4 1_555 1_555
Co2 N8_2 1_555 1_555
Co2 O1_4 1_555 1_555
O1_4 C1_4 1_555 1_555
O2_4 Co2 1_555 1_555
C1_4 O2_4 1_555 1_555
C2_4 C1_4 1_555 1_555
H4_4 C6_4 1_555 1_555
C7_4 C2_4 1_555 1_555
H5_4 C7_4 1_555 1_555
O3_3 Co2 1_555 1_555
O4_3 Co2 1_555 1_555
N5_3 C22_3 1_555 1_555
N6_3 H10_3 1_555 1_555
N7_3 N6_3 1_555 1_555
C15_3 O3_3 1_555 1_555
C16_3 C15_3 1_555 1_555
C17_3 C16_3 1_555 1_555
H11_3 C17_3 1_555 1_555
C18_3 C17_3 1_555 1_555
H12_3 C18_3 1_555 1_555
C19_3 C18_3 1_555 1_555
C20_3 C19_3 1_555 1_555
H13_3 C20_3 1_555 1_555
C21_3 C16_3 1_555 1_555
H14_3 C21_3 1_555 1_555
C22_3 N6_3 1_555 1_555
C23_3 N5_3 1_555 1_555
C24_3 C23_3 1_555 1_555
C25_3 C24_3 1_555 1_555
H15_3 C25_3 1_555 1_555
C28_3 C24_3 1_555 1_555
H18_3 C28_3 1_555 1_555
C6_4 C7_4 1_555 1_555
O4_3 C15_3 1_555 1_555
N7_3 C23_3 1_555 1_555
C19_3 C22_3 1_555 1_555
C20_3 C21_3 1_555 1_555
O3_4 Co1_3 1_555 1_555
O4_4 Co1_3 1_555 1_555
N5_4 C22_4 1_555 1_555
N6_4 H10_4 1_555 1_555
N7_4 N6_4 1_555 1_555
C15_4 O3_4 1_555 1_555
C16_4 C15_4 1_555 1_555
C17_4 C16_4 1_555 1_555
H11_4 C17_4 1_555 1_555
C18_4 C17_4 1_555 1_555
H12_4 C18_4 1_555 1_555
C19_4 C18_4 1_555 1_555
C20_4 C19_4 1_555 1_555
H13_4 C20_4 1_555 1_555
C21_4 C16_4 1_555 1_555
H14_4 C21_4 1_555 1_555
C22_4 N6_4 1_555 1_555
C23_4 N5_4 1_555 1_555
C24_4 C23_4 1_555 1_555
C25_4 C24_4 1_555 1_555
H15_4 C25_4 1_555 1_555
C28_4 C24_4 1_555 1_555
H18_4 C28_4 1_555 1_555
N9_2 Co1_3 1_555 1_555
O4_4 C15_4 1_555 1_555
N7_4 C23_4 1_555 1_555
C19_4 C22_4 1_555 1_555
C20_4 C21_4 1_555 1_555
N9_2 C12_4 1_555 1_555
H7_4 C12_4 1_555 1_555
C13_4 N9_2 1_555 1_555
H8_4 C13_4 1_555 1_555
N1_3 C8_3 1_555 1_555
N2_3 H1_3 1_555 1_555
N3_3 N2_3 1_555 1_555
H2_3 C3_3 1_555 1_555
C4_3 C3_3 1_555 1_555
H3_3 C4_3 1_555 1_555
C5_3 C4_3 1_555 1_555
C8_3 N2_3 1_555 1_555
C9_3 N1_3 1_555 1_555
C10_3 C9_3 1_555 1_555
C11_3 C10_3 1_555 1_555
H6_3 C11_3 1_555 1_555
C14_3 C10_3 1_555 1_555
H9_3 C14_3 1_555 1_555
N3_3 C9_3 1_555 1_555
C5_3 C8_3 1_555 1_555
N1_4 C8_4 1_555 1_555
N2_4 H1_4 1_555 1_555
N3_4 N2_4 1_555 1_555
H2_4 C3_4 1_555 1_555
C4_4 C3_4 1_555 1_555
H3_4 C4_4 1_555 1_555
C5_4 C4_4 1_555 1_555
C8_4 N2_4 1_555 1_555
C9_4 N1_4 1_555 1_555
C10_4 C9_4 1_555 1_555
C11_4 C10_4 1_555 1_555
H6_4 C11_4 1_555 1_555
C14_4 C10_4 1_555 1_555
H9_4 C14_4 1_555 1_555
N3_4 C9_4 1_555 1_555
C5_4 C8_4 1_555 1_555

#END
