
###############################################################################
#
# This file contains modified crystal structure data generated from the
# MOF subset of the Cambridge Structural Database (CSD) v543 
# hosted by the Cambridge Crystallographic Data Centre (CCDC).
#
# This work is licensed under the Creative Commons
# Attribution-NonCommercial-ShareAlike 4.0 International License.
# To view a copy of this license, visit
# http://creativecommons.org/licenses/by-nc-sa/4.0/
# or send a letter to
# Creative Commons, PO Box 1866, Mountain View, CA 94042, USA.
#
# CIF created using the CSD Python API on 29 September 2022
# The structure has been converted into the P1 space group
# The structure has a 3D framework
# The original CSD entry JUCNAZ is in the monoclinic crystal system
# The framework has been calculated to contain at least 10.0% void space
# The void calculation uses a probe of radius 1.32A, grid spacing 0.4
#
###############################################################################

data_JUCNAZ
_chemical_formula_moiety         '(C120 H64 Au8 Fe6 N28)n'
_symmetry_cell_setting           triclinic
_symmetry_space_group_name_H-M   'P 1'
_symmetry_Int_Tables_number      1
_space_group_name_Hall           'P 1'
loop_
_symmetry_equiv_pos_site_id
_symmetry_equiv_pos_as_xyz
1 x,y,z
_cell_length_a                   11.6053(5)
_cell_length_b                   15.8026(5)
_cell_length_c                   16.9870(5)
_cell_angle_alpha                90
_cell_angle_beta                 90.113(3)
_cell_angle_gamma                90
_cell_volume                     3115.31
loop_
_atom_site_label
_atom_site_type_symbol
_atom_site_fract_x
_atom_site_fract_y
_atom_site_fract_z
N4 N -0.000000 0.2767(6) 0.250000
C11 C 0.000000 0.0050(10) 0.250000
C12 C 0.000000 0.1000(8) 0.250000
C13 C 0.0949(13) 0.1441(7) 0.2710(9)
H7 H 0.162081 0.115884 0.285388
C14 C 0.0914(10) 0.2330(7) 0.2710(8)
H8 H 0.157059 0.262338 0.286620
C49 C 0.0994(13) 0.0055(7) 0.1219(10)
H30 H 0.102143 0.064275 0.121500
Fe6 Fe 0.000000 0.41909(10) 0.250000
N2 N 0.000000 0.5585(6) 0.250000
C1 C 0.0808(9) 0.6023(7) 0.2843(8)
H1 H 0.139621 0.573184 0.309871
C2 C 0.0836(13) 0.6910(7) 0.2847(9)
H2 H 0.144072 0.719317 0.309245
C3 C 0.000000 0.7344(9) 0.250000
C4 C 0.000000 0.8301(8) 0.250000
C45 C 0.0487(10) 0.8720(6) 0.1870(8)
C46 C 0.1033(12) 0.8264(7) 0.1232(10)
H27 H 0.109823 0.767754 0.124225
C47 C 0.1433(14) 0.8709(7) 0.0638(9)
H28 H 0.172733 0.841298 0.021024
C48 C 0.1451(13) 0.9607(7) 0.0599(9)
H29 H 0.176387 0.988428 0.016633
C50 C 0.0473(11) 0.9622(7) 0.1872(8)
N16 N 0.1213(7) 0.4169(4) 0.3456(5)
N17 N 0.1334(7) 0.4157(5) 0.1643(5)
N1 N 0.500000 0.2109(6) 0.750000
N4_2 N 1.000000 0.2767(6) 0.250000
C9 C 0.9006(13) 0.0055(7) 0.3781(10)
H6 H 0.897857 0.064275 0.378500
C11_2 C 1.000000 0.0050(10) 0.250000
C12_2 C 1.000000 0.1000(8) 0.250000
C27 C 0.500000 0.0321(9) 0.750000
C28 C 0.5986(10) 0.0777(6) 0.7677(8)
H15 H 0.667380 0.050555 0.779909
C29 C 0.5910(10) 0.1681(6) 0.7666(8)
H16 H 0.657444 0.198286 0.778878
C41 C 0.4014(10) 0.0777(6) 0.7323(8)
H23 H 0.332620 0.050555 0.720091
C42 C 0.4090(10) 0.1681(6) 0.7334(8)
H24 H 0.342556 0.198286 0.721122
C51 C 0.9051(13) 0.1441(7) 0.2290(9)
H31 H 0.837919 0.115884 0.214612
C52 C 0.9086(10) 0.2330(7) 0.2290(8)
H32 H 0.842941 0.262338 0.213380
Fe6_2 Fe 1.000000 0.41909(10) 0.250000
Fe7 Fe 0.500000 0.35104(10) 0.750000
N6 N 0.8787(7) 0.4169(4) 0.1544(5)
H12 H 0.435684 0.776286 0.008103
H13 H 0.416322 0.921926 0.004777
C32 C 0.8334(9) 0.4090(6) 0.0961(6)
Au3 Au 0.26345(4) 0.39206(3) 0.00684(3)
C53 C 0.1815(8) 0.4076(6) 0.1074(6)
Au1 Au 0.73655(4) 0.39206(3) 0.49316(3)
Au2 Au 0.76207(4) 0.39188(3) 0.99178(3)
N2_2 N 1.000000 0.5585(6) 0.250000
N3 N 0.500000 0.4894(6) 0.750000
N5 N 0.6380(7) 0.3537(4) 0.8336(5)
N7 N 0.6152(7) 0.3544(5) 0.6517(5)
N8 N 0.8666(7) 0.4157(5) 0.3357(5)
C3_2 C 1.000000 0.7344(9) 0.250000
C4_2 C 1.000000 0.8301(8) 0.250000
C5 C 0.9513(10) 0.8720(6) 0.3130(8)
C6 C 0.8967(12) 0.8264(7) 0.3768(10)
H3 H 0.890177 0.767754 0.375775
C7 C 0.8567(14) 0.8709(7) 0.4362(9)
H4 H 0.827267 0.841298 0.478976
C8 C 0.8549(13) 0.9607(7) 0.4401(9)
H5 H 0.823613 0.988428 0.483367
C10 C 0.9527(11) 0.9622(7) 0.3128(8)
C15 C 0.8185(8) 0.4076(6) 0.3926(6)
C16 C 0.5968(8) 0.5338(5) 0.7492(7)
H9 H 0.666312 0.504501 0.749729
C17 C 0.6004(8) 0.6216(6) 0.7475(7)
H10 H 0.670441 0.649956 0.744798
C18 C 0.500000 0.6651(7) 0.750000
C19 C 0.500000 0.7589(10) 0.750000
C20 C 0.4817(10) 0.8030(6) 0.8194(8)
C21 C 0.4619(12) 0.7611(6) 0.8930(8)
H11 H 0.461962 0.702264 0.894500
C22 C 0.4429(13) 0.8050(7) 0.9606(9)
C23 C 0.4343(13) 0.8932(7) 0.9586(9)
C24 C 0.4510(13) 0.9377(8) 0.8927(10)
H14 H 0.445948 0.996435 0.893687
C25 C 0.4774(11) 0.8938(7) 0.8187(8)
C26 C 0.500000 0.9396(8) 0.750000
C30 C 0.6574(9) 0.3693(6) 0.5930(6)
C31 C 0.6877(9) 0.3679(6) 0.8889(6)
C33 C 0.4032(8) 0.5338(5) 0.7508(7)
H17 H 0.333688 0.504501 0.750271
C34 C 0.3996(8) 0.6216(6) 0.7525(7)
H18 H 0.329559 0.649956 0.755202
C35 C 0.5183(10) 0.8030(6) 0.6806(8)
C36 C 0.5381(12) 0.7611(6) 0.6070(8)
H19 H 0.538038 0.702264 0.605500
C37 C 0.5571(13) 0.8050(7) 0.5394(9)
H20 H 0.564316 0.776286 0.491897
C38 C 0.5657(13) 0.8932(7) 0.5414(9)
H21 H 0.583678 0.921926 0.495223
C39 C 0.5490(13) 0.9377(8) 0.6073(10)
H22 H 0.554052 0.996435 0.606313
C40 C 0.5226(11) 0.8938(7) 0.6813(8)
C43 C 0.9192(9) 0.6023(7) 0.2157(8)
H25 H 0.860379 0.573184 0.190129
C44 C 0.9164(13) 0.6910(7) 0.2153(9)
H26 H 0.855928 0.719317 0.190755
Au4 Au 0.23793(4) 0.39188(3) 0.50822(3)
N9 N 0.3620(7) 0.3537(4) 0.6664(5)
N11 N 0.3848(7) 0.3544(5) 0.8483(5)
C54 C 0.3426(9) 0.3693(6) 0.9070(6)
C55 C 0.3123(9) 0.3679(6) 0.6111(6)
C56 C 0.1666(9) 0.4090(6) 0.4039(6)
Fe3 Fe 0.000000 0.58091(10) 0.750000
Au1_2 Au 0.26345(4) 0.60794(3) 0.50684(3)
Au2_2 Au 0.23793(4) 0.60812(3) 0.00822(3)
Fe2 Fe 0.500000 0.64896(10) 0.250000
N2_3 N 0.000000 0.4415(6) 0.750000
N3_2 N 0.500000 0.5106(6) 0.250000
N5_2 N 0.3620(7) 0.6463(4) 0.1664(5)
N7_2 N 0.3848(7) 0.6456(5) 0.3483(5)
N8_2 N 0.1334(7) 0.5843(5) 0.6643(5)
C3_3 C 0.000000 0.2656(9) 0.750000
C4_3 C -0.000000 0.1699(8) 0.750000
C5_2 C 0.0487(10) 0.1280(6) 0.6870(8)
C6_2 C 0.1033(12) 0.1736(7) 0.6232(10)
H3_2 H 0.109823 0.232246 0.624225
C7_2 C 0.1433(14) 0.1291(7) 0.5638(9)
H4_2 H 0.172733 0.158702 0.521024
C8_2 C 0.1451(13) 0.0393(7) 0.5599(9)
H5_2 H 0.176387 0.011572 0.516633
C10_2 C 0.0473(11) 0.0378(7) 0.6872(8)
C15_2 C 0.1815(8) 0.5924(6) 0.6074(6)
C16_2 C 0.4032(8) 0.4662(5) 0.2508(7)
H9_2 H 0.333688 0.495499 0.250271
C17_2 C 0.3996(8) 0.3784(6) 0.2525(7)
H10_2 H 0.329559 0.350044 0.255202
C18_2 C 0.500000 0.3349(7) 0.250000
C19_2 C 0.500000 0.2411(10) 0.250000
C20_2 C 0.5183(10) 0.1970(6) 0.1806(8)
C21_2 C 0.5381(12) 0.2389(6) 0.1070(8)
H11_2 H 0.538038 0.297736 0.105500
C22_2 C 0.5571(13) 0.1950(7) 0.0394(9)
C23_2 C 0.5657(13) 0.1068(7) 0.0414(9)
C24_2 C 0.5490(13) 0.0623(8) 0.1073(10)
H14_2 H 0.554052 0.003565 0.106313
C25_2 C 0.5226(11) 0.1062(7) 0.1813(8)
C26_2 C 0.500000 0.0604(8) 0.250000
C30_2 C 0.3426(9) 0.6307(6) 0.4070(6)
C31_2 C 0.3123(9) 0.6321(6) 0.1111(6)
C33_2 C 0.5968(8) 0.4662(5) 0.2492(7)
H17_2 H 0.666312 0.495499 0.249729
C34_2 C 0.6004(8) 0.3784(6) 0.2475(7)
H18_2 H 0.670441 0.350044 0.244798
C35_2 C 0.4817(10) 0.1970(6) 0.3194(8)
C36_2 C 0.4619(12) 0.2389(6) 0.3930(8)
H19_2 H 0.461962 0.297736 0.394500
C37_2 C 0.4429(13) 0.1950(7) 0.4606(9)
H20_2 H 0.435684 0.223714 0.508103
C38_2 C 0.4343(13) 0.1068(7) 0.4586(9)
H21_2 H 0.416322 0.078074 0.504777
C39_2 C 0.4510(13) 0.0623(8) 0.3927(10)
H22_2 H 0.445948 0.003565 0.393687
C40_2 C 0.4774(11) 0.1062(7) 0.3187(8)
C43_2 C 0.0808(9) 0.3977(7) 0.7843(8)
H25_2 H 0.139621 0.426816 0.809871
C44_2 C 0.0836(13) 0.3090(7) 0.7847(9)
H26_2 H 0.144072 0.280683 0.809245
Au4_2 Au 0.76207(4) 0.60812(3) 0.49178(3)
N9_2 N 0.6380(7) 0.6463(4) 0.3336(5)
N10 N 0.8787(7) 0.5831(4) 0.6544(5)
N11_2 N 0.6152(7) 0.6456(5) 0.1517(5)
C54_2 C 0.6574(9) 0.6307(6) 0.0930(6)
C55_2 C 0.6877(9) 0.6321(6) 0.3889(6)
C56_2 C 0.8334(9) 0.5910(6) 0.5961(6)
Fe3_2 Fe 1.000000 0.58091(10) 0.750000
N13 N 0.500000 0.7891(6) 0.250000
N14 N 0.000000 0.7233(6) 0.750000
N15 N 0.1213(7) 0.5831(4) 0.8456(5)
H12_2 H 0.564316 0.223714 0.991897
H13_2 H 0.583678 0.078074 0.995223
C32_2 C 0.1666(9) 0.5910(6) 0.9039(6)
Au3_2 Au 0.73655(4) 0.60794(3) 0.99316(3)
N12 N 0.8666(7) 0.5843(5) 0.8357(5)
C53_2 C 0.8185(8) 0.5924(6) 0.8926(6)
C9_2 C 0.0994(13) 0.9945(7) 0.6219(10)
H6_2 H 0.102143 0.935725 0.621500
C11_3 C 0.000000 0.9950(10) 0.750000
C12_3 C 0.000000 0.9000(8) 0.750000
C27_2 C 0.500000 0.9679(9) 0.250000
C28_2 C 0.4014(10) 0.9223(6) 0.2323(8)
H15_2 H 0.332620 0.949445 0.220091
C29_2 C 0.4090(10) 0.8319(6) 0.2334(8)
H16_2 H 0.342556 0.801714 0.221122
C41_2 C 0.5986(10) 0.9223(6) 0.2677(8)
H23_2 H 0.667380 0.949445 0.279909
C42_2 C 0.5910(10) 0.8319(6) 0.2666(8)
H24_2 H 0.657444 0.801714 0.278878
C51_2 C 0.0949(13) 0.8559(7) 0.7710(9)
H31_2 H 0.162081 0.884116 0.785388
C52_2 C 0.0914(10) 0.7670(7) 0.7710(8)
H32_2 H 0.157059 0.737662 0.786620
N2_4 N 1.000000 0.4415(6) 0.750000
C1_2 C 0.9192(9) 0.3977(7) 0.7157(8)
H1_2 H 0.860379 0.426816 0.690129
C2_2 C 0.9164(13) 0.3090(7) 0.7153(9)
H2_2 H 0.855928 0.280683 0.690755
C3_4 C 1.000000 0.2656(9) 0.750000
C4_4 C 1.000000 0.1699(8) 0.750000
C45_2 C 0.9513(10) 0.1280(6) 0.8130(8)
C46_2 C 0.8967(12) 0.1736(7) 0.8768(10)
H27_2 H 0.890177 0.232246 0.875775
C47_2 C 0.8567(14) 0.1291(7) 0.9362(9)
H28_2 H 0.827267 0.158702 0.978976
C48_2 C 0.8549(13) 0.0393(7) 0.9401(9)
H29_2 H 0.823613 0.011572 0.983367
C50_2 C 0.9527(11) 0.0378(7) 0.8128(8)
N14_2 N 1.000000 0.7233(6) 0.750000
C11_4 C 1.000000 0.9950(10) 0.750000
C12_4 C 1.000000 0.9000(8) 0.750000
C13_2 C 0.9051(13) 0.8559(7) 0.7290(9)
H7_2 H 0.837919 0.884116 0.714612
C14_2 C 0.9086(10) 0.7670(7) 0.7290(8)
H8_2 H 0.842941 0.737662 0.713380
C49_2 C 0.9006(13) 0.9945(7) 0.8781(10)
H30_2 H 0.897857 0.935725 0.878500
loop_
_geom_bond_atom_site_label_1
_geom_bond_atom_site_label_2
_geom_bond_site_symmetry_1
_geom_bond_site_symmetry_2
N4 C14 1_555 1_555
C12 C11 1_555 1_555
C13 C12 1_555 1_555
H7 C13 1_555 1_555
C14 C13 1_555 1_555
H8 C14 1_555 1_555
H30 C49 1_555 1_555
Fe6 N4 1_555 1_555
Fe6 N2 1_555 1_555
N2 C1 1_555 1_555
C1 H1 1_555 1_555
C2 C1 1_555 1_555
H2 C2 1_555 1_555
C3 C2 1_555 1_555
C4 C3 1_555 1_555
C45 C4 1_555 1_555
C46 C45 1_555 1_555
H27 C46 1_555 1_555
C47 C46 1_555 1_555
H28 C47 1_555 1_555
C48 C47 1_555 1_555
H29 C48 1_555 1_555
N16 Fe6 1_555 1_555
N17 Fe6 1_555 1_555
C45 C50 1_555 1_555
N1 C29 1_555 1_555
H6 C9 1_555 1_555
C12_2 C11_2 1_555 1_555
C28 C27 1_555 1_555
H15 C28 1_555 1_555
C29 C28 1_555 1_555
H16 C29 1_555 1_555
C41 C27 1_555 1_555
H23 C41 1_555 1_555
C42 N1 1_555 1_555
H24 C42 1_555 1_555
C51 C12_2 1_555 1_555
H31 C51 1_555 1_555
C52 N4_2 1_555 1_555
H32 C52 1_555 1_555
Fe6_2 N4_2 1_555 1_555
Fe7 N1 1_555 1_555
C41 C42 1_555 1_555
C51 C52 1_555 1_555
N6 C32 1_555 1_555
Au3 C53 1_555 1_555
N17 C53 1_555 1_555
Fe6_2 N6 1_555 1_555
Au1 C15 1_555 1_555
Au2 C31 1_555 1_555
Fe6_2 N2_2 1_555 1_555
Fe7 N3 1_555 1_555
N3 C16 1_555 1_555
N5 Fe7 1_555 1_555
N7 Fe7 1_555 1_555
N8 Fe6_2 1_555 1_555
C4_2 C3_2 1_555 1_555
C5 C4_2 1_555 1_555
C6 C5 1_555 1_555
H3 C6 1_555 1_555
C7 C6 1_555 1_555
H4 C7 1_555 1_555
C8 C7 1_555 1_555
H5 C8 1_555 1_555
C10 C5 1_555 1_555
C15 N8 1_555 1_555
C16 H9 1_555 1_555
C17 C16 1_555 1_555
H10 C17 1_555 1_555
C18 C17 1_555 1_555
C19 C18 1_555 1_555
C20 C19 1_555 1_555
C21 C20 1_555 1_555
H11 C21 1_555 1_555
C22 C21 1_555 1_555
C23 C22 1_555 1_555
C24 C23 1_555 1_555
H14 C24 1_555 1_555
C25 C20 1_555 1_555
C26 C25 1_555 1_555
C30 Au1 1_555 1_555
C31 N5 1_555 1_555
C33 N3 1_555 1_555
H17 C33 1_555 1_555
C34 C18 1_555 1_555
H18 C34 1_555 1_555
C35 C19 1_555 1_555
C36 C35 1_555 1_555
H19 C36 1_555 1_555
C37 C36 1_555 1_555
H20 C37 1_555 1_555
C38 C37 1_555 1_555
H21 C38 1_555 1_555
C39 C38 1_555 1_555
H22 C39 1_555 1_555
C40 C26 1_555 1_555
C43 N2_2 1_555 1_555
H25 C43 1_555 1_555
C44 C3_2 1_555 1_555
H26 C44 1_555 1_555
Au4 C55 1_555 1_555
N9 Fe7 1_555 1_555
N16 C56 1_555 1_555
N11 Fe7 1_555 1_555
C55 N9 1_555 1_555
C56 Au4 1_555 1_555
N7 C30 1_555 1_555
C24 C25 1_555 1_555
C33 C34 1_555 1_555
C35 C40 1_555 1_555
C39 C40 1_555 1_555
C43 C44 1_555 1_555
N11 C54 1_555 1_555
Au1_2 C15_2 1_555 1_555
Au2_2 C31_2 1_555 1_555
Fe3 N2_3 1_555 1_555
Fe2 N3_2 1_555 1_555
N3_2 C16_2 1_555 1_555
N5_2 Fe2 1_555 1_555
N7_2 Fe2 1_555 1_555
N8_2 Fe3 1_555 1_555
C4_3 C3_3 1_555 1_555
C5_2 C4_3 1_555 1_555
C6_2 C5_2 1_555 1_555
H3_2 C6_2 1_555 1_555
C7_2 C6_2 1_555 1_555
H4_2 C7_2 1_555 1_555
C8_2 C7_2 1_555 1_555
H5_2 C8_2 1_555 1_555
C10_2 C5_2 1_555 1_555
C15_2 N8_2 1_555 1_555
C16_2 H9_2 1_555 1_555
C17_2 C16_2 1_555 1_555
H10_2 C17_2 1_555 1_555
C18_2 C17_2 1_555 1_555
C19_2 C18_2 1_555 1_555
C20_2 C19_2 1_555 1_555
C21_2 C20_2 1_555 1_555
H11_2 C21_2 1_555 1_555
C22_2 C21_2 1_555 1_555
C23_2 C22_2 1_555 1_555
C24_2 C23_2 1_555 1_555
H14_2 C24_2 1_555 1_555
C25_2 C20_2 1_555 1_555
C26_2 C25_2 1_555 1_555
C30_2 Au1_2 1_555 1_555
C31_2 N5_2 1_555 1_555
C33_2 N3_2 1_555 1_555
H17_2 C33_2 1_555 1_555
C34_2 C18_2 1_555 1_555
H18_2 C34_2 1_555 1_555
C35_2 C19_2 1_555 1_555
C36_2 C35_2 1_555 1_555
H19_2 C36_2 1_555 1_555
C37_2 C36_2 1_555 1_555
H20_2 C37_2 1_555 1_555
C38_2 C37_2 1_555 1_555
H21_2 C38_2 1_555 1_555
C39_2 C38_2 1_555 1_555
H22_2 C39_2 1_555 1_555
C40_2 C26_2 1_555 1_555
C43_2 N2_3 1_555 1_555
H25_2 C43_2 1_555 1_555
C44_2 C3_3 1_555 1_555
H26_2 C44_2 1_555 1_555
Au4_2 C55_2 1_555 1_555
N9_2 Fe2 1_555 1_555
N10 C56_2 1_555 1_555
N11_2 Fe2 1_555 1_555
C55_2 N9_2 1_555 1_555
C56_2 Au4_2 1_555 1_555
Fe3_2 N10 1_555 1_555
N13 Fe2 1_555 1_555
N14 Fe3 1_555 1_555
N15 Fe3 1_555 1_555
N7_2 C30_2 1_555 1_555
C24_2 C25_2 1_555 1_555
C33_2 C34_2 1_555 1_555
C35_2 C40_2 1_555 1_555
C39_2 C40_2 1_555 1_555
C43_2 C44_2 1_555 1_555
N11_2 C54_2 1_555 1_555
N15 C32_2 1_555 1_555
Au3_2 C53_2 1_555 1_555
N12 C53_2 1_555 1_555
Fe3_2 N12 1_555 1_555
N13 C29_2 1_555 1_555
H6_2 C9_2 1_555 1_555
C12_3 C11_3 1_555 1_555
C28_2 C27_2 1_555 1_555
H15_2 C28_2 1_555 1_555
C29_2 C28_2 1_555 1_555
H16_2 C29_2 1_555 1_555
C41_2 C27_2 1_555 1_555
H23_2 C41_2 1_555 1_555
C42_2 N13 1_555 1_555
H24_2 C42_2 1_555 1_555
C51_2 C12_3 1_555 1_555
H31_2 C51_2 1_555 1_555
C52_2 N14 1_555 1_555
H32_2 C52_2 1_555 1_555
C41_2 C42_2 1_555 1_555
C51_2 C52_2 1_555 1_555
Fe3_2 N2_4 1_555 1_555
N2_4 C1_2 1_555 1_555
C1_2 H1_2 1_555 1_555
C2_2 C1_2 1_555 1_555
H2_2 C2_2 1_555 1_555
C3_4 C2_2 1_555 1_555
C4_4 C3_4 1_555 1_555
C45_2 C4_4 1_555 1_555
C46_2 C45_2 1_555 1_555
H27_2 C46_2 1_555 1_555
C47_2 C46_2 1_555 1_555
H28_2 C47_2 1_555 1_555
C48_2 C47_2 1_555 1_555
H29_2 C48_2 1_555 1_555
N14_2 Fe3_2 1_555 1_555
C45_2 C50_2 1_555 1_555
N14_2 C14_2 1_555 1_555
C12_4 C11_4 1_555 1_555
C13_2 C12_4 1_555 1_555
H7_2 C13_2 1_555 1_555
C14_2 C13_2 1_555 1_555
H8_2 C14_2 1_555 1_555
H30_2 C49_2 1_555 1_555

#END
