
###############################################################################
#
# This file contains modified crystal structure data generated from the
# MOF subset of the Cambridge Structural Database (CSD) v543 
# hosted by the Cambridge Crystallographic Data Centre (CCDC).
#
# This work is licensed under the Creative Commons
# Attribution-NonCommercial-ShareAlike 4.0 International License.
# To view a copy of this license, visit
# http://creativecommons.org/licenses/by-nc-sa/4.0/
# or send a letter to
# Creative Commons, PO Box 1866, Mountain View, CA 94042, USA.
#
# CIF created using the CSD Python API on 29 September 2022
# The structure has been converted into the P1 space group
# The structure has a 3D framework
# The original CSD entry JUCNON is in the triclinic crystal system
# The framework has been calculated to contain at least 10.0% void space
# The void calculation uses a probe of radius 1.32A, grid spacing 0.4
#
###############################################################################

data_JUCNON
_chemical_formula_moiety         '(C34 H16 Ag4 Fe2 N12)n'
_symmetry_cell_setting           triclinic
_symmetry_space_group_name_H-M   'P 1'
_symmetry_Int_Tables_number      1
_space_group_name_Hall           'P 1'
loop_
_symmetry_equiv_pos_site_id
_symmetry_equiv_pos_as_xyz
1 x,y,z
_cell_length_a                   10.4725(5)
_cell_length_b                   10.4766(5)
_cell_length_c                   16.4736(8)
_cell_angle_alpha                93.637(4)
_cell_angle_beta                 100.867(4)
_cell_angle_gamma                97.191(4)
_cell_volume                     1754.01
loop_
_atom_site_label
_atom_site_type_symbol
_atom_site_fract_x
_atom_site_fract_y
_atom_site_fract_z
Ag3 Ag 0.17799(6) 0.22255(6) 0.91531(4)
N7 N 0.6794(6) 0.2248(6) 0.0375(4)
Ag2 Ag 0.67489(6) 0.72024(6) 0.90427(4)
Fe1 Fe 0.67455(9) 0.22045(9) 0.90778(6)
N1 N 0.6653(6) 0.2106(6) 0.7786(4)
N3 N 0.6914(6) 0.4172(7) 0.9116(4)
N4 N 0.8748(7) 0.2272(6) 0.9250(4)
N5 N 0.6592(6) 0.0230(7) 0.8997(4)
N6 N 0.4741(7) 0.2154(6) 0.8921(4)
C1 C 0.7373(8) 0.2999(8) 0.7438(5)
H1 H 0.792009 0.366251 0.778482
C2 C 0.7340(8) 0.2978(8) 0.6600(6)
H2 H 0.784809 0.362461 0.639330
C3 C 0.6553(9) 0.1999(9) 0.6061(5)
C4 C 0.5805(10) 0.1059(9) 0.6424(6)
H3 H 0.525680 0.038181 0.609056
C5 C 0.5886(9) 0.1144(9) 0.7268(6)
H4 H 0.539080 0.050914 0.749235
C6 C 0.6473(10) 0.1939(10) 0.5196(6)
C7 C 0.6451(9) 0.1972(9) 0.4452(6)
C8 C 0.6449(9) 0.2012(9) 0.3623(6)
C9 C 0.6511(8) 0.2097(8) 0.2907(5)
C10 C 0.6625(7) 0.2172(8) 0.2060(5)
C11 C 0.6347(8) 0.3239(8) 0.1627(5)
H5 H 0.610294 0.395174 0.189301
C12 C 0.6436(8) 0.3230(8) 0.0805(5)
H6 H 0.623570 0.394910 0.052928
C13 C 0.7096(9) 0.1240(8) 0.0804(5)
H7 H 0.737914 0.055756 0.053036
C14 C 0.7012(10) 0.1153(9) 0.1627(6)
H8 H 0.721261 0.042107 0.188785
C15 C 0.6881(7) 0.5253(8) 0.9094(5)
C17 C 0.9841(9) 0.2258(8) 0.9261(5)
C18 C 0.3665(8) 0.2182(8) 0.8961(5)
C19 C 0.6609(8) 0.9140(8) 0.8981(5)
C20 C 0.0159(9) 0.7742(8) 0.0739(5)
C16 C 0.3391(8) 0.0860(8) 0.1019(5)
Ag4 Ag 0.32511(6) 0.27976(6) 0.09573(4)
Fe2 Fe 0.32545(9) 0.77955(9) 0.09222(6)
Ag1 Ag 0.82201(6) 0.77745(6) 0.08469(4)
N1_2 N 0.3347(6) 0.7894(6) 0.2214(4)
N2 N 0.3206(6) 0.7752(6) 0.9625(4)
N3_2 N 0.3086(6) 0.5828(7) 0.0884(4)
N4_2 N 0.1252(7) 0.7728(6) 0.0750(4)
N5_2 N 0.3408(6) 0.9770(7) 0.1003(4)
N6_2 N 0.5259(7) 0.7846(6) 0.1079(4)
C1_2 C 0.2627(8) 0.7001(8) 0.2562(5)
H1_2 H 0.207991 0.633749 0.221518
C2_2 C 0.2660(8) 0.7022(8) 0.3400(6)
H2_2 H 0.215191 0.637539 0.360670
C3_2 C 0.3447(9) 0.8001(9) 0.3939(5)
C4_2 C 0.4195(10) 0.8941(9) 0.3576(6)
H3_2 H 0.474320 0.961819 0.390944
C5_2 C 0.4114(9) 0.8856(9) 0.2732(6)
H4_2 H 0.460920 0.949086 0.250765
C6_2 C 0.3527(10) 0.8061(10) 0.4804(6)
C7_2 C 0.3549(9) 0.8028(9) 0.5548(6)
C8_2 C 0.3551(9) 0.7988(9) 0.6377(6)
C9_2 C 0.3489(8) 0.7903(8) 0.7093(5)
C10_2 C 0.3375(7) 0.7828(8) 0.7940(5)
C11_2 C 0.3653(8) 0.6761(8) 0.8373(5)
H5_2 H 0.389706 0.604826 0.810699
C12_2 C 0.3564(8) 0.6770(8) 0.9195(5)
H6_2 H 0.376430 0.605090 0.947072
C13_2 C 0.2904(9) 0.8760(8) 0.9196(5)
H7_2 H 0.262086 0.944244 0.946964
C14_2 C 0.2988(10) 0.8847(9) 0.8373(6)
H8_2 H 0.278739 0.957893 0.811215
C15_2 C 0.3119(7) 0.4747(8) 0.0906(5)
C18_2 C 0.6335(8) 0.7818(8) 0.1039(5)
loop_
_geom_bond_atom_site_label_1
_geom_bond_atom_site_label_2
_geom_bond_site_symmetry_1
_geom_bond_site_symmetry_2
Ag3 C18 1_555 1_555
Ag2 C15 1_555 1_555
Fe1 N1 1_555 1_555
N1 C1 1_555 1_555
N7 C12 1_555 1_555
N3 Fe1 1_555 1_555
N4 Fe1 1_555 1_555
N5 Fe1 1_555 1_555
N6 Fe1 1_555 1_555
C1 H1 1_555 1_555
C2 C1 1_555 1_555
H2 C2 1_555 1_555
C3 C2 1_555 1_555
C4 C3 1_555 1_555
H3 C4 1_555 1_555
C5 N1 1_555 1_555
H4 C5 1_555 1_555
C6 C3 1_555 1_555
C7 C6 1_555 1_555
C8 C7 1_555 1_555
C9 C8 1_555 1_555
C10 C9 1_555 1_555
C11 C10 1_555 1_555
H5 C11 1_555 1_555
C12 C11 1_555 1_555
H6 C12 1_555 1_555
C13 N7 1_555 1_555
H7 C13 1_555 1_555
C14 C10 1_555 1_555
H8 C14 1_555 1_555
C15 N3 1_555 1_555
C17 N4 1_555 1_555
C18 N6 1_555 1_555
C19 Ag2 1_555 1_555
C4 C5 1_555 1_555
C13 C14 1_555 1_555
Ag4 C16 1_555 1_555
Ag1 C18_2 1_555 1_555
Ag4 C15_2 1_555 1_555
Fe2 N1_2 1_555 1_555
N1_2 C1_2 1_555 1_555
N2 C12_2 1_555 1_555
N3_2 Fe2 1_555 1_555
N4_2 Fe2 1_555 1_555
N5_2 Fe2 1_555 1_555
N6_2 Fe2 1_555 1_555
C1_2 H1_2 1_555 1_555
C2_2 C1_2 1_555 1_555
H2_2 C2_2 1_555 1_555
C3_2 C2_2 1_555 1_555
C4_2 C3_2 1_555 1_555
H3_2 C4_2 1_555 1_555
C5_2 N1_2 1_555 1_555
H4_2 C5_2 1_555 1_555
C6_2 C3_2 1_555 1_555
C7_2 C6_2 1_555 1_555
C8_2 C7_2 1_555 1_555
C9_2 C8_2 1_555 1_555
C10_2 C9_2 1_555 1_555
C11_2 C10_2 1_555 1_555
H5_2 C11_2 1_555 1_555
C12_2 C11_2 1_555 1_555
H6_2 C12_2 1_555 1_555
C13_2 N2 1_555 1_555
H7_2 C13_2 1_555 1_555
C14_2 C10_2 1_555 1_555
H8_2 C14_2 1_555 1_555
C15_2 N3_2 1_555 1_555
C20 N4_2 1_555 1_555
C18_2 N6_2 1_555 1_555
C4_2 C5_2 1_555 1_555
C13_2 C14_2 1_555 1_555

#END
