
###############################################################################
#
# This file contains modified crystal structure data generated from the
# MOF subset of the Cambridge Structural Database (CSD) v543 
# hosted by the Cambridge Crystallographic Data Centre (CCDC).
#
# This work is licensed under the Creative Commons
# Attribution-NonCommercial-ShareAlike 4.0 International License.
# To view a copy of this license, visit
# http://creativecommons.org/licenses/by-nc-sa/4.0/
# or send a letter to
# Creative Commons, PO Box 1866, Mountain View, CA 94042, USA.
#
# CIF created using the CSD Python API on 29 September 2022
# The structure has been converted into the P1 space group
# The structure has a 3D framework
# The original CSD entry JUCNUT is in the triclinic crystal system
# The framework has been calculated to contain at least 10.0% void space
# The void calculation uses a probe of radius 1.32A, grid spacing 0.4
#
###############################################################################

data_JUCNUT
_chemical_formula_moiety         '(C36 H16 Au4 Fe2 N10)n'
_symmetry_cell_setting           triclinic
_symmetry_space_group_name_H-M   'P 1'
_symmetry_Int_Tables_number      1
_space_group_name_Hall           'P 1'
loop_
_symmetry_equiv_pos_site_id
_symmetry_equiv_pos_as_xyz
1 x,y,z
_cell_length_a                   10.4750(9)
_cell_length_b                   10.4803(10)
_cell_length_c                   16.5967(16)
_cell_angle_alpha                93.218(8)
_cell_angle_beta                 100.823(8)
_cell_angle_gamma                97.269(8)
_cell_volume                     1769.23
loop_
_atom_site_label
_atom_site_type_symbol
_atom_site_fract_x
_atom_site_fract_y
_atom_site_fract_z
Au2 Au 0.18368(7) 0.22316(7) 0.91326(4)
N6 N 0.4699(14) 0.2163(14) 0.8881(8)
C18 C 0.370(2) 0.222(2) 0.8967(11)
Fe4 Fe 0.6804(2) 0.2178(2) 0.90646(13)
N5 N 0.6611(14) 0.0132(14) 0.8962(7)
N7 N 0.6810(14) 0.2193(14) 0.0383(8)
Au1 Au 0.68107(7) 0.71802(7) 0.90282(4)
N1 N 0.6704(15) 0.2103(15) 0.7737(9)
N3 N 0.6977(15) 0.4229(14) 0.9077(8)
N4 N 0.8901(17) 0.2276(15) 0.9251(8)
C1 C 0.7420(18) 0.3002(19) 0.7384(10)
H1 H 0.797843 0.366413 0.771901
C2 C 0.734(2) 0.2964(19) 0.6540(10)
H2 H 0.782063 0.362447 0.632407
C3 C 0.661(2) 0.2008(19) 0.6024(11)
C4 C 0.590(3) 0.104(2) 0.6376(12)
H3 H 0.537654 0.035212 0.604941
C5 C 0.601(2) 0.113(2) 0.7234(11)
H4 H 0.555414 0.047066 0.746293
C6 C 0.651(2) 0.197(2) 0.5166(12)
C7 C 0.652(3) 0.1962(18) 0.4444(11)
C8 C 0.649(2) 0.196(2) 0.3622(12)
C9 C 0.653(2) 0.2104(17) 0.2891(11)
C10 C 0.6614(16) 0.2135(18) 0.2026(10)
C11 C 0.6392(19) 0.3213(17) 0.1628(10)
H5 H 0.617368 0.392638 0.190291
C12 C 0.650(2) 0.323(2) 0.0813(11)
H6 H 0.634845 0.397174 0.054501
C13 C 0.7050(19) 0.117(2) 0.0817(11)
H7 H 0.730676 0.047723 0.054699
C14 C 0.695(2) 0.1074(18) 0.1615(10)
H8 H 0.709925 0.032877 0.187560
C15 C 0.6967(19) 0.5279(18) 0.9083(9)
C16 C 0.6630(17) 0.9042(17) 0.8964(10)
C17 C 0.997(2) 0.2216(17) 0.9231(10)
Fe2 Fe 0.3196(2) 0.7822(2) 0.09354(13)
Au1_2 Au 0.31893(7) 0.28198(7) 0.09718(4)
N1_2 N 0.3296(15) 0.7897(15) 0.2263(9)
N2 N 0.3190(14) 0.7807(14) 0.9617(8)
N3_2 N 0.3023(15) 0.5771(14) 0.0923(8)
N4_2 N 0.1099(17) 0.7724(15) 0.0749(8)
C1_2 C 0.2580(18) 0.6998(19) 0.2616(10)
H1_2 H 0.202157 0.633587 0.228099
C2_2 C 0.266(2) 0.7036(19) 0.3460(10)
H2_2 H 0.217937 0.637553 0.367593
C3_2 C 0.339(2) 0.7992(19) 0.3976(11)
C4_2 C 0.410(3) 0.896(2) 0.3624(12)
H3_2 H 0.462346 0.964788 0.395059
C5_2 C 0.399(2) 0.887(2) 0.2766(11)
H4_2 H 0.444586 0.952934 0.253707
C6_2 C 0.349(2) 0.803(2) 0.4834(12)
C7_2 C 0.348(3) 0.8038(18) 0.5556(11)
C8_2 C 0.351(2) 0.804(2) 0.6378(12)
C9_2 C 0.347(2) 0.7896(17) 0.7109(11)
C10_2 C 0.3386(16) 0.7865(18) 0.7974(10)
C11_2 C 0.3608(19) 0.6787(17) 0.8372(10)
H5_2 H 0.382632 0.607362 0.809709
C12_2 C 0.350(2) 0.677(2) 0.9187(11)
H6_2 H 0.365155 0.602826 0.945499
C13_2 C 0.2950(19) 0.883(2) 0.9183(11)
H7_2 H 0.269324 0.952277 0.945301
C14_2 C 0.305(2) 0.8926(18) 0.8385(10)
H8_2 H 0.290075 0.967123 0.812440
C15_2 C 0.3033(19) 0.4721(18) 0.0917(9)
C16_2 C 0.3370(17) 0.0958(17) 0.1036(10)
C17_2 C 0.003(2) 0.7784(17) 0.0769(10)
N8 N 0.3389(14) 0.9868(14) 0.1038(7)
N9 N 0.5301(14) 0.7837(14) 0.1119(8)
Au2_2 Au 0.81632(7) 0.77684(7) 0.08674(4)
C18_2 C 0.630(2) 0.778(2) 0.1033(11)
loop_
_geom_bond_atom_site_label_1
_geom_bond_atom_site_label_2
_geom_bond_site_symmetry_1
_geom_bond_site_symmetry_2
N6 C18 1_555 1_555
C18 Au2 1_555 1_555
Fe4 N6 1_555 1_555
Fe4 N5 1_555 1_555
Au1 C15 1_555 1_555
Fe4 N1 1_555 1_555
N1 C1 1_555 1_555
N7 C12 1_555 1_555
N3 Fe4 1_555 1_555
N4 Fe4 1_555 1_555
C1 H1 1_555 1_555
C2 C1 1_555 1_555
H2 C2 1_555 1_555
C3 C2 1_555 1_555
C4 C3 1_555 1_555
H3 C4 1_555 1_555
C5 N1 1_555 1_555
H4 C5 1_555 1_555
C6 C3 1_555 1_555
C7 C6 1_555 1_555
C8 C7 1_555 1_555
C9 C8 1_555 1_555
C10 C9 1_555 1_555
C11 C10 1_555 1_555
H5 C11 1_555 1_555
C12 C11 1_555 1_555
H6 C12 1_555 1_555
C13 N7 1_555 1_555
H7 C13 1_555 1_555
C14 C10 1_555 1_555
H8 C14 1_555 1_555
C15 N3 1_555 1_555
C16 Au1 1_555 1_555
C17 N4 1_555 1_555
C4 C5 1_555 1_555
C13 C14 1_555 1_555
Au1_2 C15_2 1_555 1_555
Fe2 N1_2 1_555 1_555
N1_2 C1_2 1_555 1_555
N2 C12_2 1_555 1_555
N3_2 Fe2 1_555 1_555
N4_2 Fe2 1_555 1_555
C1_2 H1_2 1_555 1_555
C2_2 C1_2 1_555 1_555
H2_2 C2_2 1_555 1_555
C3_2 C2_2 1_555 1_555
C4_2 C3_2 1_555 1_555
H3_2 C4_2 1_555 1_555
C5_2 N1_2 1_555 1_555
H4_2 C5_2 1_555 1_555
C6_2 C3_2 1_555 1_555
C7_2 C6_2 1_555 1_555
C8_2 C7_2 1_555 1_555
C9_2 C8_2 1_555 1_555
C10_2 C9_2 1_555 1_555
C11_2 C10_2 1_555 1_555
H5_2 C11_2 1_555 1_555
C12_2 C11_2 1_555 1_555
H6_2 C12_2 1_555 1_555
C13_2 N2 1_555 1_555
H7_2 C13_2 1_555 1_555
C14_2 C10_2 1_555 1_555
H8_2 C14_2 1_555 1_555
C15_2 N3_2 1_555 1_555
C16_2 Au1_2 1_555 1_555
C17_2 N4_2 1_555 1_555
N8 Fe2 1_555 1_555
N9 Fe2 1_555 1_555
C4_2 C5_2 1_555 1_555
C13_2 C14_2 1_555 1_555
N9 C18_2 1_555 1_555
C18_2 Au2_2 1_555 1_555

#END
