
###############################################################################
#
# This file contains modified crystal structure data generated from the
# MOF subset of the Cambridge Structural Database (CSD) v543 
# hosted by the Cambridge Crystallographic Data Centre (CCDC).
#
# This work is licensed under the Creative Commons
# Attribution-NonCommercial-ShareAlike 4.0 International License.
# To view a copy of this license, visit
# http://creativecommons.org/licenses/by-nc-sa/4.0/
# or send a letter to
# Creative Commons, PO Box 1866, Mountain View, CA 94042, USA.
#
# CIF created using the CSD Python API on 29 September 2022
# The structure has been converted into the P1 space group
# The structure has a 3D framework
# The original CSD entry JUCPAB is in the triclinic crystal system
# The framework has been calculated to contain at least 10.0% void space
# The void calculation uses a probe of radius 1.32A, grid spacing 0.4
#
###############################################################################

data_JUCPAB
_chemical_formula_moiety         '(C36 H16 Ag4 Fe2 N10)n'
_symmetry_cell_setting           triclinic
_symmetry_space_group_name_H-M   'P 1'
_symmetry_Int_Tables_number      1
_space_group_name_Hall           'P 1'
loop_
_symmetry_equiv_pos_site_id
_symmetry_equiv_pos_as_xyz
1 x,y,z
_cell_length_a                   10.6198(6)
_cell_length_b                   10.6201(6)
_cell_length_c                   16.6476(9)
_cell_angle_alpha                101.223(5)
_cell_angle_beta                 93.765(5)
_cell_angle_gamma                96.999(5)
_cell_volume                     1820.22
loop_
_atom_site_label
_atom_site_type_symbol
_atom_site_fract_x
_atom_site_fract_y
_atom_site_fract_z
N9 N 0.7841(6) 0.0317(5) 0.1117(4)
Fe4 Fe 0.77923(8) 0.82364(8) 0.09260(5)
Ag1 Ag 0.77443(7) 0.32006(5) 0.08567(4)
Ag2 Ag 0.27954(5) 0.82396(6) 0.09580(4)
N1 N 0.7903(6) 0.8319(5) 0.2276(3)
N2 N 0.7756(6) 0.8219(5) 0.9576(3)
N3 N 0.5753(6) 0.8058(6) 0.0878(3)
N4 N 0.7714(6) 0.6156(5) 0.0738(3)
C1 C 0.7014(7) 0.7635(7) 0.2614(4)
H1 H 0.634831 0.711144 0.226945
C2 C 0.7038(8) 0.7670(7) 0.3448(4)
H2 H 0.640169 0.717658 0.365530
C3 C 0.8004(9) 0.8436(8) 0.3967(4)
C4 C 0.8949(9) 0.9127(9) 0.3626(5)
H3 H 0.963269 0.963919 0.395967
C5 C 0.8863(8) 0.9045(8) 0.2790(4)
H4 H 0.950083 0.951615 0.256912
C6 C 0.8057(9) 0.8523(8) 0.4836(5)
C7 C 0.8009(9) 0.8557(9) 0.5561(5)
C8 C 0.7968(9) 0.8560(8) 0.6386(5)
C9 C 0.7883(9) 0.8505(8) 0.7086(4)
C10 C 0.7828(8) 0.8399(7) 0.7931(4)
C11 C 0.6746(8) 0.8609(7) 0.8337(4)
H5 H 0.602815 0.881132 0.806576
C12 C 0.6761(7) 0.8510(7) 0.9154(4)
H6 H 0.603534 0.865483 0.942302
C13 C 0.8772(7) 0.7998(8) 0.9175(4)
H7 H 0.946794 0.777122 0.945526
C14 C 0.8849(8) 0.8088(8) 0.8365(4)
H8 H 0.958825 0.793827 0.811359
C15 C 0.4713(7) 0.8114(7) 0.0906(4)
C16 C 0.0888(7) 0.8358(7) 0.1023(4)
C17 C 0.7714(8) 0.5102(7) 0.0738(4)
C18 C 0.7782(8) 0.1353(7) 0.1058(4)
N8 N 0.9826(5) 0.8398(6) 0.1021(3)
N5 N 0.0174(5) 0.1602(6) 0.8979(3)
Fe2 Fe 0.22077(8) 0.17636(8) 0.90740(5)
N7 N 0.2244(6) 0.1781(5) 0.0424(3)
Ag1_2 Ag 0.22557(7) 0.67994(5) 0.91433(4)
Ag2_2 Ag 0.72046(5) 0.17604(6) 0.90420(4)
N1_2 N 0.2097(6) 0.1681(5) 0.7724(3)
N3_2 N 0.4247(6) 0.1942(6) 0.9122(3)
N4_2 N 0.2286(6) 0.3844(5) 0.9262(3)
N6 N 0.2159(6) 0.9683(5) 0.8883(4)
C1_2 C 0.2986(7) 0.2365(7) 0.7386(4)
H1_2 H 0.365169 0.288856 0.773055
C2_2 C 0.2962(8) 0.2330(7) 0.6552(4)
H2_2 H 0.359831 0.282342 0.634470
C3_2 C 0.1996(9) 0.1564(8) 0.6033(4)
C4_2 C 0.1051(9) 0.0873(9) 0.6374(5)
H3_2 H 0.036731 0.036081 0.604033
C5_2 C 0.1137(8) 0.0955(8) 0.7210(4)
H4_2 H 0.049917 0.048385 0.743088
C6_2 C 0.1943(9) 0.1477(8) 0.5164(5)
C7_2 C 0.1991(9) 0.1443(9) 0.4439(5)
C8_2 C 0.2032(9) 0.1440(8) 0.3614(5)
C9_2 C 0.2117(9) 0.1495(8) 0.2914(4)
C10_2 C 0.2172(8) 0.1601(7) 0.2069(4)
C11_2 C 0.3254(8) 0.1391(7) 0.1663(4)
H5_2 H 0.397185 0.118868 0.193424
C12_2 C 0.3239(7) 0.1490(7) 0.0846(4)
H6_2 H 0.396466 0.134517 0.057698
C13_2 C 0.1228(7) 0.2002(8) 0.0825(4)
H7_2 H 0.053206 0.222878 0.054474
C14_2 C 0.1151(8) 0.1912(8) 0.1635(4)
H8_2 H 0.041175 0.206173 0.188641
C15_2 C 0.5287(7) 0.1886(7) 0.9094(4)
C16_2 C 0.9112(7) 0.1642(7) 0.8977(4)
C17_2 C 0.2286(8) 0.4898(7) 0.9262(4)
C18_2 C 0.2218(8) 0.8647(7) 0.8942(4)
loop_
_geom_bond_atom_site_label_1
_geom_bond_atom_site_label_2
_geom_bond_site_symmetry_1
_geom_bond_site_symmetry_2
Ag1 C17 1_555 1_555
Ag2 C15 1_555 1_555
Fe4 N1 1_555 1_555
N1 C1 1_555 1_555
N2 C12 1_555 1_555
N3 Fe4 1_555 1_555
N4 Fe4 1_555 1_555
N9 C18 1_555 1_555
C1 H1 1_555 1_555
C2 C1 1_555 1_555
H2 C2 1_555 1_555
C3 C2 1_555 1_555
C4 C3 1_555 1_555
H3 C4 1_555 1_555
C5 N1 1_555 1_555
H4 C5 1_555 1_555
C6 C3 1_555 1_555
C7 C6 1_555 1_555
C8 C7 1_555 1_555
C9 C8 1_555 1_555
C10 C9 1_555 1_555
C11 C10 1_555 1_555
H5 C11 1_555 1_555
C12 C11 1_555 1_555
H6 C12 1_555 1_555
C13 N2 1_555 1_555
H7 C13 1_555 1_555
C14 C10 1_555 1_555
H8 C14 1_555 1_555
C15 N3 1_555 1_555
C16 Ag2 1_555 1_555
C17 N4 1_555 1_555
C18 Ag1 1_555 1_555
N8 Fe4 1_555 1_555
C4 C5 1_555 1_555
C13 C14 1_555 1_555
Fe2 N5 1_555 1_555
Ag1_2 C17_2 1_555 1_555
Ag2_2 C15_2 1_555 1_555
Fe2 N1_2 1_555 1_555
N1_2 C1_2 1_555 1_555
N7 C12_2 1_555 1_555
N3_2 Fe2 1_555 1_555
N4_2 Fe2 1_555 1_555
N6 C18_2 1_555 1_555
C1_2 H1_2 1_555 1_555
C2_2 C1_2 1_555 1_555
H2_2 C2_2 1_555 1_555
C3_2 C2_2 1_555 1_555
C4_2 C3_2 1_555 1_555
H3_2 C4_2 1_555 1_555
C5_2 N1_2 1_555 1_555
H4_2 C5_2 1_555 1_555
C6_2 C3_2 1_555 1_555
C7_2 C6_2 1_555 1_555
C8_2 C7_2 1_555 1_555
C9_2 C8_2 1_555 1_555
C10_2 C9_2 1_555 1_555
C11_2 C10_2 1_555 1_555
H5_2 C11_2 1_555 1_555
C12_2 C11_2 1_555 1_555
H6_2 C12_2 1_555 1_555
C13_2 N7 1_555 1_555
H7_2 C13_2 1_555 1_555
C14_2 C10_2 1_555 1_555
H8_2 C14_2 1_555 1_555
C15_2 N3_2 1_555 1_555
C16_2 Ag2_2 1_555 1_555
C17_2 N4_2 1_555 1_555
C18_2 Ag1_2 1_555 1_555
C4_2 C5_2 1_555 1_555
C13_2 C14_2 1_555 1_555

#END
