
###############################################################################
#
# This file contains modified crystal structure data generated from the
# MOF subset of the Cambridge Structural Database (CSD) v543 
# hosted by the Cambridge Crystallographic Data Centre (CCDC).
#
# This work is licensed under the Creative Commons
# Attribution-NonCommercial-ShareAlike 4.0 International License.
# To view a copy of this license, visit
# http://creativecommons.org/licenses/by-nc-sa/4.0/
# or send a letter to
# Creative Commons, PO Box 1866, Mountain View, CA 94042, USA.
#
# CIF created using the CSD Python API on 29 September 2022
# The structure has been converted into the P1 space group
# The structure has a 3D framework
# The original CSD entry JUFBIX is in the monoclinic crystal system
# The framework has been calculated to contain at least 10.0% void space
# The void calculation uses a probe of radius 1.32A, grid spacing 0.4
#
###############################################################################

data_JUFBIX
_chemical_formula_moiety         '(C104 H56 Co4 F24 N8 O16)n'
_symmetry_cell_setting           triclinic
_symmetry_space_group_name_H-M   'P 1'
_symmetry_Int_Tables_number      1
_space_group_name_Hall           'P 1'
loop_
_symmetry_equiv_pos_site_id
_symmetry_equiv_pos_as_xyz
1 x,y,z
_cell_length_a                   16.2799(8)
_cell_length_b                   7.2214(4)
_cell_length_c                   24.2716(10)
_cell_angle_alpha                90
_cell_angle_beta                 116.419(3)
_cell_angle_gamma                90
_cell_volume                     2555.46
loop_
_atom_site_label
_atom_site_type_symbol
_atom_site_fract_x
_atom_site_fract_y
_atom_site_fract_z
O3 O 0.61477(10) 0.0216(2) 0.59776(6)
O5 O -0.0000 0.0573(3) 0.7500
H1 H 0.1463 0.1227 0.8583
H11 H 0.7307 0.0077 0.7080
Co4 Co 0.558542(16) 0.16272(3) 0.515324(11)
Co6 Co 0.558542(16) 0.83728(3) 0.015324(11)
O14 O 0.38858(10) 0.9477(2) 0.01893(7)
N3 N 0.67266(11) 0.3246(2) 0.53660(7)
N4 N 0.78029(11) 0.5324(2) 0.58343(7)
C27 C 0.96007(13) 0.7550(3) 0.72037(9)
C28 C 0.93936(14) 0.9408(3) 0.70482(9)
C29 C 0.86657(16) 0.9978(3) 0.65084(10)
C30 C 0.81373(15) 0.8612(3) 0.61104(10)
H16 H 0.7643 0.8937 0.5741
C31 C 0.83396(14) 0.6750(3) 0.62595(9)
C32 C 0.90604(13) 0.6193(3) 0.68039(9)
H17 H 0.9179 0.4944 0.6899
C33 C 0.69666(13) 0.4702(3) 0.57303(9)
H18 H 0.6604 0.5234 0.5895
C34 C 0.74412(14) 0.2934(3) 0.52216(10)
H19 H 0.7463 0.1993 0.4967
C35 C 0.81069(14) 0.4201(3) 0.55065(10)
H20 H 0.8662 0.4295 0.5485
F7 F 0.05517(10) 0.3318(2) 0.61154(8)
F8 F 0.08810(11) 0.4731(2) 0.69625(8)
F9 F 0.17357(10) 0.2538(2) 0.69346(7)
F10 F 0.05434(10) 0.7451(2) 0.61116(7)
F11 F 0.07849(10) 0.5954(2) 0.54361(6)
F12 F 0.16686(11) 0.81981(19) 0.59219(6)
O6 O 0.48120(11) 0.2985(2) 0.54829(7)
O7 O 0.47514(10) 0.7714(2) 0.92695(6)
O9 O 0.38858(10) 0.0523(2) 0.51893(7)
C36 C 0.41235(14) 0.2085(3) 0.54402(9)
C37 C 0.35365(14) 0.2944(3) 0.57062(9)
C38 C 0.37494(13) 0.4655(3) 0.59918(9)
H21 H 0.4256 0.5307 0.6013
C39 C 0.32101(14) 0.5400(3) 0.62460(9)
H22 H 0.3364 0.6546 0.6441
C40 C 0.24477(13) 0.4471(3) 0.62149(9)
C41 C 0.22225(16) 0.2777(3) 0.59131(12)
H23 H 0.1702 0.2148 0.5876
C42 C 0.27643(17) 0.2021(3) 0.56672(12)
H24 H 0.2610 0.0876 0.5472
C43 C 0.18492(13) 0.5408(3) 0.64842(9)
C44 C 0.24501(14) 0.6381(3) 0.71016(9)
C45 C 0.40935(14) 0.8678(3) 0.89024(9)
C46 C 0.35366(14) 0.7891(3) 0.82677(9)
C47 C 0.28145(15) 0.8888(3) 0.78277(9)
C48 C 0.22714(15) 0.8142(3) 0.72540(10)
H26 H 0.1783 0.8823 0.6968
C49 C 0.31805(14) 0.5392(3) 0.75419(9)
H27 H 0.3313 0.4215 0.7447
C50 C 0.37118(14) 0.6131(3) 0.81173(9)
H28 H 0.4192 0.5441 0.8407
C51 C 0.12059(16) 0.6756(3) 0.59885(10)
C52 C 0.12503(15) 0.3984(4) 0.66210(11)
O10 O 0.47514(10) 0.2286(2) 0.42695(6)
O5_2 O 0.0000 0.9427(3) 0.2500
H15 H 0.1463 0.8773 0.3583
O8 O 0.61477(10) 0.9784(2) 0.09776(6)
H25 H 0.7307 0.9923 0.2080
F1 F 0.05517(10) 0.6682(2) 0.11154(8)
F2 F 0.08810(11) 0.5269(2) 0.19625(8)
F3 F 0.17357(10) 0.7462(2) 0.19346(7)
F4 F 0.05434(10) 0.2549(2) 0.11116(7)
F5 F 0.07849(10) 0.4046(2) 0.04361(6)
F6 F 0.16686(11) 0.18019(19) 0.09219(6)
O1 O 0.48120(11) 0.7015(2) 0.04829(7)
N1 N 0.67266(11) 0.6754(2) 0.03660(7)
N2 N 0.78029(11) 0.4676(2) 0.08343(7)
C1 C 0.96007(13) 0.2450(3) 0.22037(9)
C2 C 0.93936(14) 0.0592(3) 0.20482(9)
C3 C 0.86657(16) 0.0022(3) 0.15084(10)
C4 C 0.81373(15) 0.1388(3) 0.11104(10)
H2 H 0.7643 0.1063 0.0741
C5 C 0.83396(14) 0.3250(3) 0.12595(9)
C6 C 0.90604(13) 0.3807(3) 0.18039(9)
H3 H 0.9179 0.5056 0.1899
C7 C 0.69666(13) 0.5298(3) 0.07303(9)
H4 H 0.6604 0.4766 0.0895
C8 C 0.74412(14) 0.7066(3) 0.02216(10)
C9 C 0.81069(14) 0.5799(3) 0.05065(10)
H6 H 0.8662 0.5705 0.0485
C10 C 0.41235(14) 0.7915(3) 0.04402(9)
C11 C 0.35365(14) 0.7056(3) 0.07062(9)
C12 C 0.37494(13) 0.5345(3) 0.09918(9)
H7 H 0.4256 0.4693 0.1013
C13 C 0.32101(14) 0.4600(3) 0.12460(9)
H8 H 0.3364 0.3454 0.1441
C14 C 0.24477(13) 0.5529(3) 0.12149(9)
C15 C 0.22225(16) 0.7223(3) 0.09131(12)
H9 H 0.1702 0.7852 0.0876
C16 C 0.27643(17) 0.7979(3) 0.06672(12)
H10 H 0.2610 0.9124 0.0472
C17 C 0.18492(13) 0.4592(3) 0.14842(9)
C18 C 0.24501(14) 0.3619(3) 0.21016(9)
C19 C 0.40935(14) 0.1322(3) 0.39024(9)
C20 C 0.35366(14) 0.2109(3) 0.32677(9)
C21 C 0.28145(15) 0.1112(3) 0.28277(9)
C22 C 0.22714(15) 0.1858(3) 0.22540(10)
H12 H 0.1783 0.1177 0.1968
C23 C 0.31805(14) 0.4608(3) 0.25419(9)
H13 H 0.3313 0.5785 0.2447
C24 C 0.37118(14) 0.3869(3) 0.31173(9)
H14 H 0.4192 0.4559 0.3407
C25 C 0.12059(16) 0.3244(3) 0.09885(10)
C26 C 0.12503(15) 0.6016(4) 0.16210(11)
H5 H 0.7463 0.8007 0.9967
H5_2 H 0.2537 0.1993 0.0033
O11 O 0.52486(10) 0.2286(2) 0.07305(6)
Co1 Co 0.441458(16) 0.16272(3) 0.984676(11)
F1_2 F 0.94483(10) 0.3318(2) 0.88846(8)
F2_2 F 0.91190(11) 0.4731(2) 0.80375(8)
F3_2 F 0.82643(10) 0.2538(2) 0.80654(7)
F4_2 F 0.94566(10) 0.7451(2) 0.88884(7)
F5_2 F 0.92151(10) 0.5954(2) 0.95639(6)
F6_2 F 0.83314(11) 0.81981(19) 0.90781(6)
O1_2 O 0.51880(11) 0.2985(2) 0.95171(7)
O2 O 0.52486(10) 0.7714(2) 0.57305(6)
O4 O 0.61142(10) 0.0523(2) 0.98107(7)
N1_2 N 0.32734(11) 0.3246(2) 0.96340(7)
N2_2 N 0.21971(11) 0.5324(2) 0.91657(7)
C1_2 C 0.03993(13) 0.7550(3) 0.77963(9)
C2_2 C 0.06064(14) 0.9408(3) 0.79518(9)
C3_2 C 0.13343(16) 0.9978(3) 0.84916(10)
C4_2 C 0.18627(15) 0.8612(3) 0.88896(10)
H2_2 H 0.2357 0.8937 0.9259
C5_2 C 0.16604(14) 0.6750(3) 0.87405(9)
C6_2 C 0.09396(13) 0.6193(3) 0.81961(9)
H3_2 H 0.0821 0.4944 0.8101
C7_2 C 0.30334(13) 0.4702(3) 0.92697(9)
H4_2 H 0.3396 0.5234 0.9105
C8_2 C 0.25588(14) 0.2934(3) 0.97784(10)
C9_2 C 0.18931(14) 0.4201(3) 0.94935(10)
H6_2 H 0.1338 0.4295 0.9515
C10_2 C 0.58765(14) 0.2085(3) 0.95598(9)
C11_2 C 0.64635(14) 0.2944(3) 0.92938(9)
C12_2 C 0.62506(13) 0.4655(3) 0.90082(9)
H7_2 H 0.5744 0.5307 0.8987
C13_2 C 0.67899(14) 0.5400(3) 0.87540(9)
H8_2 H 0.6636 0.6546 0.8559
C14_2 C 0.75523(13) 0.4471(3) 0.87851(9)
C15_2 C 0.77775(16) 0.2777(3) 0.90869(12)
H9_2 H 0.8298 0.2148 0.9124
C16_2 C 0.72357(17) 0.2021(3) 0.93328(12)
H10_2 H 0.7390 0.0876 0.9528
C17_2 C 0.81508(13) 0.5408(3) 0.85158(9)
C18_2 C 0.75499(14) 0.6381(3) 0.78984(9)
C19_2 C 0.59065(14) 0.8678(3) 0.60976(9)
C20_2 C 0.64634(14) 0.7891(3) 0.67323(9)
C21_2 C 0.71855(15) 0.8888(3) 0.71723(9)
C22_2 C 0.77286(15) 0.8142(3) 0.77460(10)
H12_2 H 0.8217 0.8823 0.8032
C23_2 C 0.68195(14) 0.5392(3) 0.74581(9)
H13_2 H 0.6687 0.4215 0.7553
C24_2 C 0.62882(14) 0.6131(3) 0.68827(9)
H14_2 H 0.5808 0.5441 0.6593
C25_2 C 0.87941(16) 0.6756(3) 0.90115(10)
C26_2 C 0.87497(15) 0.3984(4) 0.83790(11)
Co8 Co 0.441458(16) 0.83728(3) 0.484676(11)
O13 O 0.38523(10) 0.0216(2) 0.90224(6)
O5_3 O 1.0000 0.0573(3) 0.7500
H15_2 H 0.8537 0.1227 0.6417
H25_2 H 0.2693 0.0077 0.7920
O15 O 0.61142(10) 0.9477(2) 0.48107(7)
N3_2 N 0.32734(11) 0.6754(2) 0.46340(7)
N4_2 N 0.21971(11) 0.4676(2) 0.41657(7)
C27_2 C 0.03993(13) 0.2450(3) 0.27963(9)
C28_2 C 0.06064(14) 0.0592(3) 0.29518(9)
C29_2 C 0.13343(16) 0.0022(3) 0.34916(10)
C30_2 C 0.18627(15) 0.1388(3) 0.38896(10)
H16_2 H 0.2357 0.1063 0.4259
C31_2 C 0.16604(14) 0.3250(3) 0.37405(9)
C32_2 C 0.09396(13) 0.3807(3) 0.31961(9)
H17_2 H 0.0821 0.5056 0.3101
C33_2 C 0.30334(13) 0.5298(3) 0.42697(9)
H18_2 H 0.3396 0.4766 0.4105
C34_2 C 0.25588(14) 0.7066(3) 0.47784(10)
H19_2 H 0.2537 0.8007 0.5033
C35_2 C 0.18931(14) 0.5799(3) 0.44935(10)
H20_2 H 0.1338 0.5705 0.4515
F7_2 F 0.94483(10) 0.6682(2) 0.38846(8)
F8_2 F 0.91190(11) 0.5269(2) 0.30375(8)
F9_2 F 0.82643(10) 0.7462(2) 0.30654(7)
F10_2 F 0.94566(10) 0.2549(2) 0.38884(7)
F11_2 F 0.92151(10) 0.4046(2) 0.45639(6)
F12_2 F 0.83314(11) 0.18019(19) 0.40781(6)
O6_2 O 0.51880(11) 0.7015(2) 0.45171(7)
C36_2 C 0.58765(14) 0.7915(3) 0.45598(9)
C37_2 C 0.64635(14) 0.7056(3) 0.42938(9)
C38_2 C 0.62506(13) 0.5345(3) 0.40082(9)
H21_2 H 0.5744 0.4693 0.3987
C39_2 C 0.67899(14) 0.4600(3) 0.37540(9)
H22_2 H 0.6636 0.3454 0.3559
C40_2 C 0.75523(13) 0.5529(3) 0.37851(9)
C41_2 C 0.77775(16) 0.7223(3) 0.40869(12)
H23_2 H 0.8298 0.7852 0.4124
C42_2 C 0.72357(17) 0.7979(3) 0.43328(12)
H24_2 H 0.7390 0.9124 0.4528
C43_2 C 0.81508(13) 0.4592(3) 0.35158(9)
C44_2 C 0.75499(14) 0.3619(3) 0.28984(9)
C45_2 C 0.59065(14) 0.1322(3) 0.10976(9)
C46_2 C 0.64634(14) 0.2109(3) 0.17323(9)
C47_2 C 0.71855(15) 0.1112(3) 0.21723(9)
C48_2 C 0.77286(15) 0.1858(3) 0.27460(10)
H26_2 H 0.8217 0.1177 0.3032
C49_2 C 0.68195(14) 0.4608(3) 0.24581(9)
H27_2 H 0.6687 0.5785 0.2553
C50_2 C 0.62882(14) 0.3869(3) 0.18827(9)
H28_2 H 0.5808 0.4559 0.1593
C51_2 C 0.87941(16) 0.3244(3) 0.40115(10)
C52_2 C 0.87497(15) 0.6016(4) 0.33790(11)
O12 O 0.38523(10) 0.9784(2) 0.40224(6)
O5_4 O 1.0000 0.9427(3) 0.2500
H1_2 H 0.8537 0.8773 0.1417
H11_2 H 0.2693 0.9923 0.2920
loop_
_geom_bond_atom_site_label_1
_geom_bond_atom_site_label_2
_geom_bond_site_symmetry_1
_geom_bond_site_symmetry_2
Co4 O3 1_555 1_555
N3 C33 1_555 1_555
N4 C31 1_555 1_555
C29 C28 1_555 1_555
C30 C29 1_555 1_555
H16 C30 1_555 1_555
C31 C30 1_555 1_555
C32 C27 1_555 1_555
H17 C32 1_555 1_555
C33 N4 1_555 1_555
H18 C33 1_555 1_555
C34 N3 1_555 1_555
H19 C34 1_555 1_555
C35 N4 1_555 1_555
H20 C35 1_555 1_555
Co4 N3 1_555 1_555
F7 C52 1_555 1_555
F8 C52 1_555 1_555
F9 C52 1_555 1_555
F10 C51 1_555 1_555
F11 C51 1_555 1_555
F12 C51 1_555 1_555
O6 Co4 1_555 1_555
O7 C45 1_555 1_555
O9 C36 1_555 1_555
C36 O6 1_555 1_555
C37 C36 1_555 1_555
C38 C37 1_555 1_555
H21 C38 1_555 1_555
C39 C38 1_555 1_555
H22 C39 1_555 1_555
C40 C39 1_555 1_555
C41 C40 1_555 1_555
H23 C41 1_555 1_555
C42 C37 1_555 1_555
H24 C42 1_555 1_555
C43 C40 1_555 1_555
C44 C43 1_555 1_555
C45 C46 1_555 1_555
C46 C47 1_555 1_555
C48 C44 1_555 1_555
H26 C48 1_555 1_555
C49 C44 1_555 1_555
H27 C49 1_555 1_555
C50 C46 1_555 1_555
H28 C50 1_555 1_555
C51 C43 1_555 1_555
C52 C43 1_555 1_555
O10 Co4 1_555 1_555
C27 C28 1_555 1_555
C31 C32 1_555 1_555
C34 C35 1_555 1_555
C41 C42 1_555 1_555
C47 C48 1_555 1_555
C49 C50 1_555 1_555
Co6 O8 1_555 1_555
Co6 O1 1_555 1_555
F1 C26 1_555 1_555
F2 C26 1_555 1_555
F3 C26 1_555 1_555
F4 C25 1_555 1_555
F5 C25 1_555 1_555
F6 C25 1_555 1_555
O1 C10 1_555 1_555
O10 C19 1_555 1_555
O14 C10 1_555 1_555
N1 Co6 1_555 1_555
N2 C5 1_555 1_555
C1 C2 1_555 1_555
C2 C3 1_555 1_555
C4 C3 1_555 1_555
H2 C4 1_555 1_555
C5 C4 1_555 1_555
C6 C1 1_555 1_555
H3 C6 1_555 1_555
C7 N1 1_555 1_555
H4 C7 1_555 1_555
C8 N1 1_555 1_555
C9 N2 1_555 1_555
H6 C9 1_555 1_555
C10 C11 1_555 1_555
C11 C12 1_555 1_555
C12 H7 1_555 1_555
C13 C12 1_555 1_555
H8 C13 1_555 1_555
C14 C13 1_555 1_555
C15 C14 1_555 1_555
H9 C15 1_555 1_555
C16 C11 1_555 1_555
H10 C16 1_555 1_555
C17 C14 1_555 1_555
C18 C17 1_555 1_555
C19 C20 1_555 1_555
C20 C21 1_555 1_555
C22 C18 1_555 1_555
H12 C22 1_555 1_555
C23 C18 1_555 1_555
H13 C23 1_555 1_555
C24 C20 1_555 1_555
H14 C24 1_555 1_555
C25 C17 1_555 1_555
C26 C17 1_555 1_555
N2 C7 1_555 1_555
C5 C6 1_555 1_555
C8 C9 1_555 1_555
C15 C16 1_555 1_555
C21 C22 1_555 1_555
C23 C24 1_555 1_555
Co1 O1_2 1_555 1_555
F1_2 C26_2 1_555 1_555
F2_2 C26_2 1_555 1_555
F3_2 C26_2 1_555 1_555
F4_2 C25_2 1_555 1_555
F5_2 C25_2 1_555 1_555
F6_2 C25_2 1_555 1_555
O1_2 C10_2 1_555 1_555
O2 C19_2 1_555 1_555
O4 C10_2 1_555 1_555
N1_2 Co1 1_555 1_555
N2_2 C5_2 1_555 1_555
C1_2 C2_2 1_555 1_555
C2_2 C3_2 1_555 1_555
C4_2 C3_2 1_555 1_555
H2_2 C4_2 1_555 1_555
C5_2 C4_2 1_555 1_555
C6_2 C1_2 1_555 1_555
H3_2 C6_2 1_555 1_555
C7_2 N1_2 1_555 1_555
H4_2 C7_2 1_555 1_555
C8_2 N1_2 1_555 1_555
C9_2 N2_2 1_555 1_555
H6_2 C9_2 1_555 1_555
C10_2 C11_2 1_555 1_555
C11_2 C12_2 1_555 1_555
C12_2 H7_2 1_555 1_555
C13_2 C12_2 1_555 1_555
H8_2 C13_2 1_555 1_555
C14_2 C13_2 1_555 1_555
C15_2 C14_2 1_555 1_555
H9_2 C15_2 1_555 1_555
C16_2 C11_2 1_555 1_555
H10_2 C16_2 1_555 1_555
C17_2 C14_2 1_555 1_555
C18_2 C17_2 1_555 1_555
C19_2 C20_2 1_555 1_555
C20_2 C21_2 1_555 1_555
C22_2 C18_2 1_555 1_555
H12_2 C22_2 1_555 1_555
C23_2 C18_2 1_555 1_555
H13_2 C23_2 1_555 1_555
C24_2 C20_2 1_555 1_555
H14_2 C24_2 1_555 1_555
C25_2 C17_2 1_555 1_555
C26_2 C17_2 1_555 1_555
Co8 O2 1_555 1_555
O13 Co1 1_555 1_555
N2_2 C7_2 1_555 1_555
C5_2 C6_2 1_555 1_555
C8_2 C9_2 1_555 1_555
C15_2 C16_2 1_555 1_555
C21_2 C22_2 1_555 1_555
C23_2 C24_2 1_555 1_555
N3_2 C33_2 1_555 1_555
N4_2 C31_2 1_555 1_555
C29_2 C28_2 1_555 1_555
C30_2 C29_2 1_555 1_555
H16_2 C30_2 1_555 1_555
C31_2 C30_2 1_555 1_555
C32_2 C27_2 1_555 1_555
H17_2 C32_2 1_555 1_555
C33_2 N4_2 1_555 1_555
H18_2 C33_2 1_555 1_555
C34_2 N3_2 1_555 1_555
H19_2 C34_2 1_555 1_555
C35_2 N4_2 1_555 1_555
H20_2 C35_2 1_555 1_555
Co8 N3_2 1_555 1_555
F7_2 C52_2 1_555 1_555
F8_2 C52_2 1_555 1_555
F9_2 C52_2 1_555 1_555
F10_2 C51_2 1_555 1_555
F11_2 C51_2 1_555 1_555
F12_2 C51_2 1_555 1_555
O6_2 Co8 1_555 1_555
O11 C45_2 1_555 1_555
O15 C36_2 1_555 1_555
C36_2 O6_2 1_555 1_555
C37_2 C36_2 1_555 1_555
C38_2 C37_2 1_555 1_555
H21_2 C38_2 1_555 1_555
C39_2 C38_2 1_555 1_555
H22_2 C39_2 1_555 1_555
C40_2 C39_2 1_555 1_555
C41_2 C40_2 1_555 1_555
H23_2 C41_2 1_555 1_555
C42_2 C37_2 1_555 1_555
H24_2 C42_2 1_555 1_555
C43_2 C40_2 1_555 1_555
C44_2 C43_2 1_555 1_555
C45_2 C46_2 1_555 1_555
C46_2 C47_2 1_555 1_555
C48_2 C44_2 1_555 1_555
H26_2 C48_2 1_555 1_555
C49_2 C44_2 1_555 1_555
H27_2 C49_2 1_555 1_555
C50_2 C46_2 1_555 1_555
H28_2 C50_2 1_555 1_555
C51_2 C43_2 1_555 1_555
C52_2 C43_2 1_555 1_555
O12 Co8 1_555 1_555
C27_2 C28_2 1_555 1_555
C31_2 C32_2 1_555 1_555
C34_2 C35_2 1_555 1_555
C41_2 C42_2 1_555 1_555
C47_2 C48_2 1_555 1_555
C49_2 C50_2 1_555 1_555

#END
