
###############################################################################
#
# This file contains modified crystal structure data generated from the
# MOF subset of the Cambridge Structural Database (CSD) v543 
# hosted by the Cambridge Crystallographic Data Centre (CCDC).
#
# This work is licensed under the Creative Commons
# Attribution-NonCommercial-ShareAlike 4.0 International License.
# To view a copy of this license, visit
# http://creativecommons.org/licenses/by-nc-sa/4.0/
# or send a letter to
# Creative Commons, PO Box 1866, Mountain View, CA 94042, USA.
#
# CIF created using the CSD Python API on 29 September 2022
# The structure has been converted into the P1 space group
# The structure has a 3D framework
# The original CSD entry JUFCAR is in the monoclinic crystal system
# The framework has been calculated to contain at least 10.0% void space
# The void calculation uses a probe of radius 1.32A, grid spacing 0.4
# H atom positions have been added when not included in the experimental data
#
###############################################################################

data_JUFCAR
_chemical_formula_moiety         '(C68 H60 Ho4 O42)n'
_symmetry_cell_setting           triclinic
_symmetry_space_group_name_H-M   'P 1'
_symmetry_Int_Tables_number      1
_space_group_name_Hall           'P 1'
loop_
_symmetry_equiv_pos_site_id
_symmetry_equiv_pos_as_xyz
1 x,y,z
_cell_length_a                   11.1720(8)
_cell_length_b                   8.4729(6)
_cell_length_c                   21.1375(13)
_cell_angle_alpha                90
_cell_angle_beta                 101.107(4)
_cell_angle_gamma                90
_cell_volume                     1963.38
loop_
_atom_site_label
_atom_site_type_symbol
_atom_site_fract_x
_atom_site_fract_y
_atom_site_fract_z
Ho1 Ho 0.38784(2) 0.10648(2) 0.58370(2)
O1 O 0.4665(3) 0.0400(4) 0.69185(13)
O10 O 0.4560(3) 0.3399(4) 0.54064(15)
H5 H 0.056984 0.27510 0.769932
C11 C 0.0461(3) 0.0742(5) 0.67318(17)
H7 H 0.126893 0.088429 0.693609
C14 C 0.1000(4) 0.0727(5) 0.86177(18)
H8 H 0.170063 0.122423 0.854130
O12 O 0.2108(2) 0.2654(4) 0.54930(12)
O13 O 0.5964(2) 0.0996(3) 0.59556(13)
O14 O 0.3093(3) 0.3097(4) 0.64779(13)
O15 O 0.3452(2) 0.0579(4) 0.47654(13)
H13 H 0.548684 0.0875878 0.705344
H14 H 0.545597 0.334123 0.543261
H15 H 0.414707 0.35137 0.494877
C1 C 0.9888(4) 0.1029(4) 0.82113(17)
C4 C 0.9537(4) 0.1374(5) 0.70025(17)
C7 C 0.8338(4) 0.1236(5) 0.66660(18)
H4 H 0.771023 0.17049 0.683059
C10 C 0.9805(4) 0.2181(5) 0.76560(16)
H6 H 0.916725 0.29431 0.767862
C12 C 0.8068(3) 0.0408(5) 0.60877(17)
C15 C 0.8847(3) 0.0249(5) 0.83239(17)
H9 H 0.810306 0.040979 0.804654
C16 C 0.6778(3) 0.0277(5) 0.57354(17)
O4 O 0.7892(2) 0.7654(4) 0.95070(12)
O6 O 0.6907(3) 0.8097(4) 0.85221(13)
O9 O 0.6548(2) 0.9421(4) 0.52346(13)
C2 C 0.8996(3) 0.9695(5) 0.58409(16)
H2 H 0.881672 0.908927 0.546774
C5 C 0.8913(4) 0.9237(5) 0.88464(18)
C17 C 0.7853(3) 0.8307(5) 0.89697(18)
Ho3 Ho 0.61216(2) 0.60648(2) 0.91630(2)
Ho4 Ho 0.61216(2) 0.89352(2) 0.41630(2)
Ho4_2 Ho 0.38784(2) 0.39352(2) 0.08370(2)
C1_2 C 0.0112(4) 0.6029(4) 0.67887(17)
O5 O 0.4036(2) 0.5996(3) 0.90444(13)
O9_2 O 0.3452(2) 0.4421(4) 0.97654(13)
C2_2 C 0.1004(3) 0.4695(5) 0.91591(16)
H2_2 H 0.118328 0.408927 0.953226
C4_2 C 0.0463(4) 0.6374(5) 0.79975(17)
C5_2 C 0.1087(4) 0.4237(5) 0.61536(18)
C7_2 C 0.1662(4) 0.6236(5) 0.83340(18)
H4_2 H 0.228977 0.67049 0.816941
C10_2 C 0.0195(4) 0.7181(5) 0.73440(16)
H6_2 H 0.083275 0.79431 0.732138
C12_2 C 0.1932(3) 0.5408(5) 0.89123(17)
C15_2 C 0.1153(3) 0.5249(5) 0.66761(17)
H9_2 H 0.189694 0.540979 0.695346
C16_2 C 0.3222(3) 0.5277(5) 0.92646(17)
C17_2 C 0.2147(3) 0.3307(5) 0.60303(18)
O15_2 O 0.6548(2) 0.5579(4) 0.02346(13)
H15_2 H 0.585293 0.85137 0.00512337
O1_2 O 0.5335(3) 0.5400(4) 0.80815(13)
O2 O 0.7724(2) 0.4557(4) 0.89331(14)
O3 O 0.5593(3) 0.3258(4) 0.92614(14)
O7 O 0.7584(2) 0.3415(4) 0.49718(13)
O8 O 0.6763(2) 0.4910(4) 0.56270(13)
H1 H 0.618031 0.431163 0.552602
O10_2 O 0.5440(3) 0.8399(4) 0.95936(15)
O11 O 0.9145(3) 0.3077(4) 0.95291(14)
C3 C 0.8916(3) 0.4688(5) 0.58604(16)
C6 C 0.9965(4) 0.3979(4) 0.57414(18)
H3 H 0.992457 0.332481 0.538456
C8 C 0.8800(4) 0.4162(5) 0.91092(18)
C9 C 0.9799(3) 0.4897(5) 0.88410(17)
H5_2 H 0.943016 0.77510 0.730068
C11_2 C 0.9539(3) 0.5742(5) 0.82682(17)
H7_2 H 0.873107 0.588429 0.806391
C13 C 0.7682(4) 0.4322(5) 0.54586(18)
C14_2 C 0.9000(4) 0.5727(5) 0.63823(18)
H8_2 H 0.829937 0.622423 0.645870
H10 H 0.606015 0.260229 0.900416
H11 H 0.58006 0.293503 0.97211
H12 H 0.527312 0.423436 0.803846
H13_2 H 0.451316 0.587588 0.794656
H14_2 H 0.454403 0.834123 0.956739
O4_2 O 0.2108(2) 0.2346(4) 0.04930(12)
O6_2 O 0.3093(3) 0.1903(4) 0.14779(13)
C2_3 C 0.1004(3) 0.0305(5) 0.41591(16)
H2_3 H 0.118328 0.091073 0.453226
C5_3 C 0.1087(4) 0.0763(5) 0.11536(18)
C17_3 C 0.2147(3) 0.1693(5) 0.10303(18)
C1_3 C 0.0112(4) 0.8971(4) 0.17887(17)
O5_2 O 0.4036(2) 0.9004(3) 0.40444(13)
C4_3 C 0.0463(4) 0.8626(5) 0.29975(17)
C7_3 C 0.1662(4) 0.8764(5) 0.33340(18)
H4_3 H 0.228977 0.82951 0.316941
C10_3 C 0.0195(4) 0.7819(5) 0.23440(16)
H6_3 H 0.083275 0.70569 0.232138
C12_3 C 0.1932(3) 0.9592(5) 0.39123(17)
C15_3 C 0.1153(3) 0.9751(5) 0.16761(17)
H9_3 H 0.189694 0.959021 0.195346
C16_3 C 0.3222(3) 0.9723(5) 0.42646(17)
O1_3 O 0.5335(3) 0.9600(4) 0.30815(13)
O10_3 O 0.5440(3) 0.6601(4) 0.45936(15)
H5_3 H 0.943016 0.72490 0.230068
C11_3 C 0.9539(3) 0.9258(5) 0.32682(17)
H7_3 H 0.873107 0.911571 0.306391
C14_3 C 0.9000(4) 0.9273(5) 0.13823(18)
H8_3 H 0.829937 0.877577 0.145870
O12_2 O 0.7892(2) 0.7346(4) 0.45070(12)
O14_2 O 0.6907(3) 0.6903(4) 0.35221(13)
H13_3 H 0.451316 0.912412 0.294656
H14_3 H 0.454403 0.665877 0.456739
H15_3 H 0.585293 0.64863 0.505123
O1_4 O 0.4665(3) 0.4600(4) 0.19185(13)
O2_2 O 0.2276(2) 0.5443(4) 0.10669(14)
O3_2 O 0.4407(3) 0.6742(4) 0.07386(14)
O7_2 O 0.2416(2) 0.6585(4) 0.50282(13)
O8_2 O 0.3237(2) 0.5090(4) 0.43730(13)
H1_2 H 0.381969 0.568837 0.447398
O10_4 O 0.4560(3) 0.1601(4) 0.04064(15)
O11_2 O 0.0855(3) 0.6923(4) 0.04709(14)
C3_2 C 0.1084(3) 0.5312(5) 0.41396(16)
C6_2 C 0.0035(4) 0.6021(4) 0.42586(18)
H3_2 H 0.007543 0.667519 0.461544
C8_2 C 0.1200(4) 0.5838(5) 0.08908(18)
C9_2 C 0.0201(3) 0.5103(5) 0.11590(17)
H5_4 H 0.056984 0.22490 0.269932
C11_4 C 0.0461(3) 0.4258(5) 0.17318(17)
H7_4 H 0.126893 0.411571 0.193609
C13_2 C 0.2318(4) 0.5678(5) 0.45414(18)
C14_4 C 0.1000(4) 0.4273(5) 0.36177(18)
H8_4 H 0.170063 0.377577 0.354130
O13_2 O 0.5964(2) 0.4004(3) 0.09556(13)
H10_2 H 0.393985 0.739771 0.0995844
H11_2 H 0.41994 0.706497 0.0278895
H12_2 H 0.472688 0.576564 0.196154
H13_4 H 0.548684 0.412412 0.205344
H14_4 H 0.545597 0.165877 0.0432614
H15_4 H 0.414707 0.14863 0.994877
C1_4 C 0.9888(4) 0.3971(4) 0.32113(17)
C2_4 C 0.8996(3) 0.5305(5) 0.08409(16)
H2_4 H 0.881672 0.591073 0.046774
C4_4 C 0.9537(4) 0.3626(5) 0.20025(17)
C5_4 C 0.8913(4) 0.5763(5) 0.38464(18)
C7_4 C 0.8338(4) 0.3764(5) 0.16660(18)
H4_4 H 0.771023 0.32951 0.183059
C10_4 C 0.9805(4) 0.2819(5) 0.26560(16)
H6_4 H 0.916725 0.20569 0.267862
C12_4 C 0.8068(3) 0.4592(5) 0.10877(17)
C15_4 C 0.8847(3) 0.4751(5) 0.33239(17)
H9_4 H 0.810306 0.459021 0.304654
C16_4 C 0.6778(3) 0.4723(5) 0.07354(17)
C17_4 C 0.7853(3) 0.6693(5) 0.39697(18)
O7_3 O 0.2416(2) 0.8415(4) 0.00282(13)
O2_3 O 0.2276(2) 0.9557(4) 0.60669(14)
O3_3 O 0.4407(3) 0.8258(4) 0.57386(14)
O8_3 O 0.3237(2) 0.9910(4) 0.93730(13)
H1_3 H 0.381969 0.931163 0.947398
O11_3 O 0.0855(3) 0.8077(4) 0.54709(14)
C3_3 C 0.1084(3) 0.9688(5) 0.91396(16)
C6_3 C 0.0035(4) 0.8979(4) 0.92586(18)
H3_3 H 0.007543 0.832481 0.961544
C8_3 C 0.1200(4) 0.9162(5) 0.58908(18)
C9_3 C 0.0201(3) 0.9897(5) 0.61590(17)
C13_3 C 0.2318(4) 0.9322(5) 0.95414(18)
H10_3 H 0.393985 0.760229 0.599584
H11_3 H 0.41994 0.793503 0.52789
H12_3 H 0.472688 0.923436 0.696154
O2_4 O 0.7724(2) 0.0443(4) 0.39331(14)
O3_4 O 0.5593(3) 0.1742(4) 0.42614(14)
O8_4 O 0.6763(2) 0.0090(4) 0.06270(13)
H1_4 H 0.618031 0.068837 0.052602
O11_4 O 0.9145(3) 0.1923(4) 0.45291(14)
C3_4 C 0.8916(3) 0.0312(5) 0.08604(16)
C6_4 C 0.9965(4) 0.1021(4) 0.07414(18)
H3_4 H 0.992457 0.167519 0.038456
C8_4 C 0.8800(4) 0.0838(5) 0.41092(18)
C9_4 C 0.9799(3) 0.0103(5) 0.38410(17)
C13_4 C 0.7682(4) 0.0678(5) 0.04586(18)
H10_4 H 0.606015 0.239771 0.400416
H11_4 H 0.58006 0.206497 0.47211
H12_4 H 0.527312 0.0765636 0.303846
O7_4 O 0.7584(2) 0.1585(4) 0.99718(13)
loop_
_geom_bond_atom_site_label_1
_geom_bond_atom_site_label_2
_geom_bond_site_symmetry_1
_geom_bond_site_symmetry_2
Ho1 O1 1_555 1_555
O10 Ho1 1_555 1_555
H7 C11 1_555 1_555
H8 C14 1_555 1_555
O12 Ho1 1_555 1_555
O13 Ho1 1_555 1_555
O14 Ho1 1_555 1_555
O15 Ho1 1_555 1_555
O1 H13 1_555 1_555
O10 H14 1_555 1_555
O10 H15 1_555 1_555
C1 C10 1_555 1_555
O13 C16 1_555 1_555
C4 C7 1_555 1_555
C7 H4 1_555 1_555
C10 C4 1_555 1_555
H6 C10 1_555 1_555
C15 C1 1_555 1_555
H9 C15 1_555 1_555
C16 C12 1_555 1_555
C7 C12 1_555 1_555
O4 C17 1_555 1_555
O6 C17 1_555 1_555
C2 H2 1_555 1_555
C17 C5 1_555 1_555
Ho3 O4 1_555 1_555
Ho4 O9 1_555 1_555
O6 Ho3 1_555 1_555
C1_2 C10_2 1_555 1_555
O12 C17_2 1_555 1_555
O5 C16_2 1_555 1_555
O14 C17_2 1_555 1_555
O9_2 C16_2 1_555 1_555
C2_2 H2_2 1_555 1_555
C4_2 C7_2 1_555 1_555
C7_2 H4_2 1_555 1_555
C10_2 C4_2 1_555 1_555
H6_2 C10_2 1_555 1_555
C12_2 C2_2 1_555 1_555
C15_2 C1_2 1_555 1_555
H9_2 C15_2 1_555 1_555
C16_2 C12_2 1_555 1_555
C17_2 C5_2 1_555 1_555
Ho3 O5 1_555 1_555
C5_2 C15_2 1_555 1_555
C7_2 C12_2 1_555 1_555
Ho3 O1_2 1_555 1_555
O2 Ho3 1_555 1_555
O3 Ho3 1_555 1_555
O7 C13 1_555 1_555
O8 H1 1_555 1_555
O10_2 Ho3 1_555 1_555
O11 C8 1_555 1_555
C3 C6 1_555 1_555
C6 H3 1_555 1_555
C8 O2 1_555 1_555
H7_2 C11_2 1_555 1_555
C13 O8 1_555 1_555
H8_2 C14_2 1_555 1_555
C3 C13 1_555 1_555
C3 C14_2 1_555 1_555
C8 C9 1_555 1_555
C9 C11_2 1_555 1_555
O3 H10 1_555 1_555
O3 H11 1_555 1_555
O1_2 H12 1_555 1_555
O1_2 H13_2 1_555 1_555
O10_2 H14_2 1_555 1_555
O4_2 C17_3 1_555 1_555
O6_2 C17_3 1_555 1_555
C2_3 H2_3 1_555 1_555
C17_3 C5_3 1_555 1_555
Ho4_2 O4_2 1_555 1_555
O6_2 Ho4_2 1_555 1_555
C1_3 C10_3 1_555 1_555
O5_2 C16_3 1_555 1_555
C4_3 C7_3 1_555 1_555
C7_3 H4_3 1_555 1_555
C10_3 C4_3 1_555 1_555
H6_3 C10_3 1_555 1_555
C15_3 C1_3 1_555 1_555
H9_3 C15_3 1_555 1_555
C16_3 C12_3 1_555 1_555
Ho4 O5_2 1_555 1_555
C7_3 C12_3 1_555 1_555
Ho4 O1_3 1_555 1_555
O10_3 Ho4 1_555 1_555
H7_3 C11_3 1_555 1_555
H8_3 C14_3 1_555 1_555
O12_2 Ho4 1_555 1_555
O14_2 Ho4 1_555 1_555
O1_3 H13_3 1_555 1_555
O10_3 H14_3 1_555 1_555
O10_3 H15_3 1_555 1_555
Ho4_2 O1_4 1_555 1_555
O2_2 Ho4_2 1_555 1_555
O3_2 Ho4_2 1_555 1_555
O7_2 C13_2 1_555 1_555
O8_2 H1_2 1_555 1_555
O10_4 Ho4_2 1_555 1_555
O11_2 C8_2 1_555 1_555
C3_2 C6_2 1_555 1_555
C6_2 H3_2 1_555 1_555
C8_2 O2_2 1_555 1_555
H7_4 C11_4 1_555 1_555
C13_2 O8_2 1_555 1_555
H8_4 C14_4 1_555 1_555
O13_2 Ho4_2 1_555 1_555
C3_2 C13_2 1_555 1_555
C3_2 C14_4 1_555 1_555
C8_2 C9_2 1_555 1_555
C9_2 C11_4 1_555 1_555
O3_2 H10_2 1_555 1_555
O3_2 H11_2 1_555 1_555
O1_4 H12_2 1_555 1_555
O1_4 H13_4 1_555 1_555
O10_4 H14_4 1_555 1_555
C1_4 C10_4 1_555 1_555
O12_2 C17_4 1_555 1_555
O13_2 C16_4 1_555 1_555
O14_2 C17_4 1_555 1_555
O15_2 C16_4 1_555 1_555
C2_4 H2_4 1_555 1_555
C4_4 C7_4 1_555 1_555
C7_4 H4_4 1_555 1_555
C10_4 C4_4 1_555 1_555
H6_4 C10_4 1_555 1_555
C12_4 C2_4 1_555 1_555
C15_4 C1_4 1_555 1_555
H9_4 C15_4 1_555 1_555
C16_4 C12_4 1_555 1_555
C17_4 C5_4 1_555 1_555
C5_4 C15_4 1_555 1_555
C7_4 C12_4 1_555 1_555
O8_3 H1_3 1_555 1_555
O11_3 C8_3 1_555 1_555
C3_3 C6_3 1_555 1_555
C6_3 H3_3 1_555 1_555
C8_3 O2_3 1_555 1_555
C13_3 O8_3 1_555 1_555
C3_3 C13_3 1_555 1_555
C8_3 C9_3 1_555 1_555
O3_3 H10_3 1_555 1_555
O3_3 H11_3 1_555 1_555
O8_4 H1_4 1_555 1_555
O11_4 C8_4 1_555 1_555
C3_4 C6_4 1_555 1_555
C6_4 H3_4 1_555 1_555
C8_4 O2_4 1_555 1_555
C13_4 O8_4 1_555 1_555
C3_4 C13_4 1_555 1_555
C8_4 C9_4 1_555 1_555
O3_4 H10_4 1_555 1_555
O3_4 H11_4 1_555 1_555

#END
