
###############################################################################
#
# This file contains modified crystal structure data generated from the
# MOF subset of the Cambridge Structural Database (CSD) v543 
# hosted by the Cambridge Crystallographic Data Centre (CCDC).
#
# This work is licensed under the Creative Commons
# Attribution-NonCommercial-ShareAlike 4.0 International License.
# To view a copy of this license, visit
# http://creativecommons.org/licenses/by-nc-sa/4.0/
# or send a letter to
# Creative Commons, PO Box 1866, Mountain View, CA 94042, USA.
#
# CIF created using the CSD Python API on 29 September 2022
# The structure has been converted into the P1 space group
# The structure has a 3D framework
# The original CSD entry JUJZIZ is in the triclinic crystal system
# The framework has been calculated to contain at least 10.0% void space
# The void calculation uses a probe of radius 1.32A, grid spacing 0.4
#
###############################################################################

data_JUJZIZ
_chemical_formula_moiety         '(C46 H40 Co8 N8 O20 P2)n'
_symmetry_cell_setting           triclinic
_symmetry_space_group_name_H-M   'P 1'
_symmetry_Int_Tables_number      1
_space_group_name_Hall           'P 1'
loop_
_symmetry_equiv_pos_site_id
_symmetry_equiv_pos_as_xyz
1 x,y,z
_cell_length_a                   9.247(4)
_cell_length_b                   9.970(5)
_cell_length_c                   15.025(8)
_cell_angle_alpha                100.151(9)
_cell_angle_beta                 91.372(9)
_cell_angle_gamma                91.776(9)
_cell_volume                     1362.25
loop_
_atom_site_label
_atom_site_type_symbol
_atom_site_fract_x
_atom_site_fract_y
_atom_site_fract_z
Co8 Co -0.0000 0.0000 0.0000
Co8_2 Co 0.0000 0.0000 1.0000
Co8_3 Co 0.0000 1.0000 0.0000
Co8_4 Co 0.0000 1.0000 1.0000
O6 O 0.7432(3) 0.0448(3) 0.15950(19)
H5 H 0.4730 0.0092 0.1779
Co8_5 Co 1.0000 0.0000 0.0000
Co14 Co 0.93208(6) 0.15605(6) 0.19347(4)
Co8_6 Co 1.0000 0.0000 1.0000
O29 O 0.1932(3) 0.0847(3) 0.96881(19)
O3 O 0.0232(3) 0.6971(3) 0.07560(19)
O4 O 0.0840(3) 0.9976(3) 0.13207(18)
O5 O 0.2136(3) 0.9633(3) 0.2512(2)
O7 O 0.8068(3) 0.9153(3) 0.03119(19)
C1 C 0.2868(4) 0.7839(4) 0.0343(3)
C2 C 0.3120(4) 0.8910(4) 0.1079(3)
C3 C 0.4536(4) 0.9406(4) 0.1261(3)
C4 C 0.5677(4) 0.8950(4) 0.0724(3)
C7 C 0.1943(4) 0.9528(4) 0.1685(3)
C8 C 0.7171(4) 0.9571(4) 0.0890(3)
O21 O 0.1093(3) 0.2889(3) 0.23268(19)
H21 H 0.1923 0.2694 0.2120
H22 H 0.0858 0.3664 0.2220
H23 H 0.0464 0.0393 0.3074
Co8_7 Co 1.0000 1.0000 0.0000
Co15 Co 0.82937(6) 0.61331(6) 0.06252(4)
O31 O 0.2755(3) 0.3703(3) 0.04902(19)
Co2 Co 0.06792(6) 0.84395(6) 0.80653(4)
P1 P 0.11377(11) 0.71019(11) 0.99383(8)
O1 O 0.1387(3) 0.5755(3) 0.93437(19)
O2 O 0.0508(3) 0.8082(3) 0.93805(18)
O8 O 0.7245(3) 0.6297(3) 0.95098(19)
O9 O 0.6493(3) 0.7621(3) 0.85726(19)
O11 O 0.0368(3) 0.9266(3) 0.68835(19)
H4 H 0.0470 0.8786 0.6364
C5 C 0.5412(4) 0.7893(4) 0.9989(3)
C6 C 0.4023(4) 0.7349(4) 0.9816(3)
H6 H 0.3848 0.6617 0.9324
C9 C 0.6498(4) 0.7290(4) 0.9320(3)
Co5 Co 0.17063(6) 0.38669(6) 0.93748(4)
N5 N 0.2886(4) 0.3227(4) 0.8300(2)
N6 N 0.3736(4) 0.1901(4) 0.7129(2)
N7 N 0.6022(4) 0.4010(4) 0.3156(2)
N8 N 0.8003(4) 0.3127(3) 0.2565(2)
C33 C 0.2577(5) 0.2201(5) 0.7635(3)
H27 H 0.1659 0.1738 0.7529
C34 C 0.4309(5) 0.3601(5) 0.8209(3)
H28 H 0.4836 0.4320 0.8593
C35 C 0.4840(5) 0.2785(4) 0.7489(3)
H29 H 0.5795 0.2819 0.7274
C36 C 0.3799(6) 0.0845(5) 0.6317(3)
H30 H 0.4623 0.0253 0.6377
H31 H 0.2897 0.0271 0.6243
C37 C 0.3984(5) 0.1522(4) 0.5501(3)
C38 C 0.5350(5) 0.1949(5) 0.5302(3)
H32 H 0.6170 0.1695 0.5619
C39 C 0.5535(5) 0.2745(5) 0.4646(3)
H33 H 0.6481 0.3056 0.4527
C40 C 0.4364(5) 0.3092(4) 0.4161(3)
C41 C 0.2978(5) 0.2604(5) 0.4334(3)
H34 H 0.2160 0.2804 0.3992
C42 C 0.2810(5) 0.1833(5) 0.5002(3)
H35 H 0.1870 0.1510 0.5121
C43 C 0.4547(4) 0.4006(4) 0.3474(3)
H36 H 0.4303 0.4946 0.3746
H37 H 0.3869 0.3692 0.2954
C44 C 0.6594(5) 0.2956(4) 0.2610(3)
H38 H 0.6049 0.2185 0.2298
C45 C 0.7141(5) 0.4893(4) 0.3487(3)
H39 H 0.7082 0.5727 0.3899
C46 C 0.8341(5) 0.4352(5) 0.3116(3)
H40 H 0.9287 0.4757 0.3220
Co8_8 Co 1.0000 1.0000 1.0000
O27 O 0.2568(3) 0.9552(3) 0.84050(19)
N9 N 0.1997(4) 0.6873(3) 0.7435(2)
O23 O 0.9492(3) 0.1918(3) 0.06195(18)
O25 O 0.9160(3) 0.0024(3) 0.86793(18)
N1 N 0.7114(4) 0.6773(4) 0.1700(2)
N2 N 0.6264(4) 0.8099(4) 0.2871(2)
N3 N 0.3978(4) 0.5990(4) 0.6844(2)
C10 C 0.7423(5) 0.7799(5) 0.2365(3)
H7 H 0.8341 0.8262 0.2471
C11 C 0.5691(5) 0.6399(5) 0.1791(3)
H8 H 0.5164 0.5680 0.1407
C12 C 0.5160(5) 0.7215(4) 0.2511(3)
H9 H 0.4205 0.7181 0.2726
C13 C 0.6201(6) 0.9155(5) 0.3683(3)
H10 H 0.5377 0.9747 0.3623
H11 H 0.7103 0.9729 0.3757
C14 C 0.6016(5) 0.8478(4) 0.4499(3)
C15 C 0.4650(5) 0.8051(5) 0.4698(3)
H12 H 0.3830 0.8305 0.4381
C16 C 0.4465(5) 0.7255(5) 0.5354(3)
H13 H 0.3519 0.6944 0.5473
C17 C 0.5636(5) 0.6908(4) 0.5839(3)
C18 C 0.7022(5) 0.7396(5) 0.5666(3)
H14 H 0.7840 0.7196 0.6008
C19 C 0.7190(5) 0.8167(5) 0.4998(3)
H15 H 0.8130 0.8490 0.4879
C20 C 0.5453(4) 0.5994(4) 0.6526(3)
H16 H 0.5697 0.5054 0.6254
H17 H 0.6131 0.6308 0.7046
C21 C 0.3406(5) 0.7044(4) 0.7390(3)
H18 H 0.3951 0.7815 0.7702
C22 C 0.2859(5) 0.5107(4) 0.6513(3)
H19 H 0.2918 0.4273 0.6101
C23 C 0.1659(5) 0.5648(5) 0.6884(3)
H20 H 0.0713 0.5243 0.6780
P2 P 0.88623(11) 0.28981(11) 0.00617(8)
O12 O 0.8613(3) 0.4245(3) 0.06563(19)
O20 O 0.3507(3) 0.2379(3) 0.14274(19)
O22 O 0.9632(3) 0.0734(3) 0.31165(19)
H24 H 0.9530 0.1214 0.3636
C28 C 0.4588(4) 0.2107(4) 0.0011(3)
C29 C 0.5977(4) 0.2651(4) 0.0184(3)
H26 H 0.6152 0.3383 0.0676
C32 C 0.3502(4) 0.2710(4) 0.0680(3)
O10 O 0.8907(3) 0.7111(3) 0.76732(19)
H1 H 0.8077 0.7306 0.7880
H2 H 0.9142 0.6336 0.7780
H3 H 0.9536 0.9607 0.6926
O14 O 0.9768(3) 0.3029(3) 0.92440(19)
O16 O 0.7864(3) 0.0367(3) 0.7488(2)
C24 C 0.7132(4) 0.2161(4) 0.9657(3)
C25 C 0.6880(4) 0.1090(4) 0.8921(3)
C26 C 0.5464(4) 0.0594(4) 0.8739(3)
C27 C 0.4323(4) 0.1050(4) 0.9276(3)
C30 C 0.8057(4) 0.0472(4) 0.8315(3)
C31 C 0.2829(4) 0.0429(4) 0.9110(3)
H25 H 0.5270 0.9908 0.8221
loop_
_geom_bond_atom_site_label_1
_geom_bond_atom_site_label_2
_geom_bond_site_symmetry_1
_geom_bond_site_symmetry_2
Co14 O6 1_555 1_555
O29 Co8_2 1_555 1_555
O4 Co8_3 1_555 1_555
O5 C7 1_555 1_555
O7 C8 1_555 1_555
C2 C1 1_555 1_555
C3 C2 1_555 1_555
C4 C3 1_555 1_555
C7 O4 1_555 1_555
C8 C4 1_555 1_555
H21 O21 1_555 1_555
H22 O21 1_555 1_555
Co8_7 O7 1_555 1_555
C2 C7 1_555 1_555
Co8_4 O2 1_555 1_555
Co2 O2 1_555 1_555
P1 O1 1_555 1_555
O1 Co5 1_555 1_555
O2 P1 1_555 1_555
O8 C9 1_555 1_555
O9 C9 1_555 1_555
O11 Co2 1_555 1_555
H4 O11 1_555 1_555
H6 C6 1_555 1_555
C9 C5 1_555 1_555
N5 Co5 1_555 1_555
N6 C33 1_555 1_555
N7 C43 1_555 1_555
N8 C44 1_555 1_555
C33 N5 1_555 1_555
H27 C33 1_555 1_555
C34 N5 1_555 1_555
H28 C34 1_555 1_555
C35 N6 1_555 1_555
H29 C35 1_555 1_555
C36 N6 1_555 1_555
H30 C36 1_555 1_555
H31 C36 1_555 1_555
C37 C36 1_555 1_555
C38 C37 1_555 1_555
H32 C38 1_555 1_555
C39 C38 1_555 1_555
H33 C39 1_555 1_555
C40 C39 1_555 1_555
C41 C40 1_555 1_555
H34 C41 1_555 1_555
C42 C37 1_555 1_555
H35 C42 1_555 1_555
C43 C40 1_555 1_555
H36 C43 1_555 1_555
H37 C43 1_555 1_555
C44 N7 1_555 1_555
H38 C44 1_555 1_555
C45 N7 1_555 1_555
H39 C45 1_555 1_555
C46 N8 1_555 1_555
H40 C46 1_555 1_555
Co14 N8 1_555 1_555
O27 Co2 1_555 1_555
N9 Co2 1_555 1_555
C5 C6 1_555 1_555
C34 C35 1_555 1_555
C41 C42 1_555 1_555
C45 C46 1_555 1_555
O23 Co8_5 1_555 1_555
Co14 O23 1_555 1_555
O25 Co8_6 1_555 1_555
N1 Co15 1_555 1_555
N2 C10 1_555 1_555
N3 C20 1_555 1_555
N9 C21 1_555 1_555
C10 N1 1_555 1_555
H7 C10 1_555 1_555
C11 N1 1_555 1_555
H8 C11 1_555 1_555
C12 N2 1_555 1_555
H9 C12 1_555 1_555
C13 N2 1_555 1_555
H10 C13 1_555 1_555
H11 C13 1_555 1_555
C14 C13 1_555 1_555
C15 C14 1_555 1_555
H12 C15 1_555 1_555
C16 C15 1_555 1_555
H13 C16 1_555 1_555
C17 C16 1_555 1_555
C18 C17 1_555 1_555
H14 C18 1_555 1_555
C19 C14 1_555 1_555
H15 C19 1_555 1_555
C20 C17 1_555 1_555
H16 C20 1_555 1_555
H17 C20 1_555 1_555
C21 N3 1_555 1_555
H18 C21 1_555 1_555
C22 N3 1_555 1_555
H19 C22 1_555 1_555
C23 N9 1_555 1_555
H20 C23 1_555 1_555
P2 O12 1_555 1_555
O12 Co15 1_555 1_555
O23 P2 1_555 1_555
O31 C32 1_555 1_555
O20 C32 1_555 1_555
O22 Co14 1_555 1_555
H24 O22 1_555 1_555
H26 C29 1_555 1_555
C32 C28 1_555 1_555
C11 C12 1_555 1_555
C18 C19 1_555 1_555
C22 C23 1_555 1_555
C28 C29 1_555 1_555
H1 O10 1_555 1_555
H2 O10 1_555 1_555
O25 C30 1_555 1_555
O16 C30 1_555 1_555
O29 C31 1_555 1_555
C25 C24 1_555 1_555
C26 C25 1_555 1_555
C27 C26 1_555 1_555
C30 C25 1_555 1_555
C31 C27 1_555 1_555

#END
