
###############################################################################
#
# This file contains modified crystal structure data generated from the
# MOF subset of the Cambridge Structural Database (CSD) v543 
# hosted by the Cambridge Crystallographic Data Centre (CCDC).
#
# This work is licensed under the Creative Commons
# Attribution-NonCommercial-ShareAlike 4.0 International License.
# To view a copy of this license, visit
# http://creativecommons.org/licenses/by-nc-sa/4.0/
# or send a letter to
# Creative Commons, PO Box 1866, Mountain View, CA 94042, USA.
#
# CIF created using the CSD Python API on 29 September 2022
# The structure has been converted into the P1 space group
# The structure has a 3D framework
# The original CSD entry JULLOU is in the orthorhombic crystal system
# The framework has been calculated to contain at least 10.0% void space
# The void calculation uses a probe of radius 1.32A, grid spacing 0.4
#
###############################################################################

data_JULLOU
_chemical_formula_moiety         '(C24 H8 Cd2 N8 O16)n'
_symmetry_cell_setting           triclinic
_symmetry_space_group_name_H-M   'P 1'
_symmetry_Int_Tables_number      1
_space_group_name_Hall           'P 1'
loop_
_symmetry_equiv_pos_site_id
_symmetry_equiv_pos_as_xyz
1 x,y,z
_cell_length_a                   7.4360(6)
_cell_length_b                   11.4914(9)
_cell_length_c                   10.9213(12)
_cell_angle_alpha                90
_cell_angle_beta                 90
_cell_angle_gamma                90
_cell_volume                     933.226
loop_
_atom_site_label
_atom_site_type_symbol
_atom_site_fract_x
_atom_site_fract_y
_atom_site_fract_z
H1 H 0.021665 0.673405 0.682210
H2 H 0.021665 0.826595 0.817790
O5 O 0.0452(3) 0.44350(19) 0.60206(19)
Cd4 Cd 0.250000 -0.000000 0.03708(3)
Cd2 Cd 0.750000 -0.000000 0.96292(3)
Cd4_2 Cd 0.250000 1.000000 0.03708(3)
Cd1 Cd 0.750000 0.500000 0.53708(3)
O1 O 0.4548(3) 0.55650(19) 0.60206(19)
O2 O 0.3128(4) 0.7249(2) 0.6221(3)
N1 N 0.7617(3) 0.6609(3) 0.6655(3)
C1 C 0.6059(4) 0.7064(3) 0.7055(3)
C2 C 0.4403(4) 0.6611(3) 0.6408(3)
C3 C 0.9127(4) 0.7044(3) 0.7083(4)
O3 O 0.4548(3) 0.94350(19) 0.89794(19)
O4 O 0.3128(4) 0.7751(2) 0.8779(3)
N2 N 0.7617(3) 0.8391(3) 0.8345(3)
C4 C 0.6059(4) 0.7936(3) 0.7945(3)
C5 C 0.4403(4) 0.8389(3) 0.8592(3)
C6 C 0.9127(4) 0.7956(3) 0.7917(4)
Cd2_2 Cd 0.750000 1.000000 0.96292(3)
Cd3 Cd 0.250000 0.500000 0.46292(3)
O6 O 0.5452(3) 0.44350(19) 0.39794(19)
O7 O 0.9548(3) 0.55650(19) 0.39794(19)
N3 N 0.7383(3) 0.3391(3) 0.6655(3)
O2_2 O 0.1872(4) 0.2751(2) 0.6221(3)
C2_2 C 0.0597(4) 0.3389(3) 0.6408(3)
O3_2 O 0.0452(3) 0.05650(19) 0.89794(19)
O4_2 O 0.1872(4) 0.2249(2) 0.8779(3)
C5_2 C 0.0597(4) 0.1611(3) 0.8592(3)
C1_2 C 0.8941(4) 0.2936(3) 0.7055(3)
C3_2 C 0.5873(4) 0.2956(3) 0.7083(4)
H1_2 H 0.478335 0.326595 0.682210
N2_2 N 0.7383(3) 0.1609(3) 0.8345(3)
C4_2 C 0.8941(4) 0.2064(3) 0.7945(3)
C6_2 C 0.5873(4) 0.2044(3) 0.7917(4)
H2_2 H 0.478335 0.173405 0.817790
O7_2 O 0.5452(3) 0.05650(19) 0.10206(19)
O6_2 O 0.9548(3) 0.94350(19) 0.10206(19)
O2_3 O 0.6872(4) 0.2751(2) 0.3779(3)
N1_2 N 0.2383(3) 0.3391(3) 0.3345(3)
C1_3 C 0.3941(4) 0.2936(3) 0.2945(3)
C2_3 C 0.5597(4) 0.3389(3) 0.3592(3)
C3_3 C 0.0873(4) 0.2956(3) 0.2917(4)
O4_3 O 0.6872(4) 0.2249(2) 0.1221(3)
N2_3 N 0.2383(3) 0.1609(3) 0.1655(3)
C4_3 C 0.3941(4) 0.2064(3) 0.2055(3)
C5_3 C 0.5597(4) 0.1611(3) 0.1408(3)
C6_3 C 0.0873(4) 0.2044(3) 0.2083(4)
N3_2 N 0.2617(3) 0.6609(3) 0.3345(3)
H1_3 H 0.978335 0.326595 0.317790
H2_3 H 0.978335 0.173405 0.182210
C1_4 C 0.1059(4) 0.7064(3) 0.2945(3)
C3_4 C 0.4127(4) 0.7044(3) 0.2917(4)
H1_4 H 0.521665 0.673405 0.317790
N2_4 N 0.2617(3) 0.8391(3) 0.1655(3)
C4_4 C 0.1059(4) 0.7936(3) 0.2055(3)
C6_4 C 0.4127(4) 0.7956(3) 0.2083(4)
H2_4 H 0.521665 0.826595 0.182210
O2_4 O 0.8128(4) 0.7249(2) 0.3779(3)
C2_4 C 0.9403(4) 0.6611(3) 0.3592(3)
O4_4 O 0.8128(4) 0.7751(2) 0.1221(3)
C5_4 C 0.9403(4) 0.8389(3) 0.1408(3)
loop_
_geom_bond_atom_site_label_1
_geom_bond_atom_site_label_2
_geom_bond_site_symmetry_1
_geom_bond_site_symmetry_2
Cd1 O1 1_555 1_555
O1 C2 1_555 1_555
O2 C2 1_555 1_555
N1 Cd1 1_555 1_555
C1 N1 1_555 1_555
C2 C1 1_555 1_555
C3 N1 1_555 1_555
O3 C5 1_555 1_555
O4 C5 1_555 1_555
N2 C4 1_555 1_555
C4 C1 1_555 1_555
C5 C4 1_555 1_555
C6 C3 1_555 1_555
Cd2_2 O3 1_555 1_555
Cd3 O1 1_555 1_555
O6 Cd1 1_555 1_555
O7 Cd1 1_555 1_555
N3 Cd1 1_555 1_555
N2 C6 1_555 1_555
N2 Cd2_2 1_555 1_555
Cd3 O6 1_555 1_555
O5 C2_2 1_555 1_555
O2_2 C2_2 1_555 1_555
O3_2 C5_2 1_555 1_555
O4_2 C5_2 1_555 1_555
Cd3 O5 1_555 1_555
C1_2 N3 1_555 1_555
C3_2 N3 1_555 1_555
H1_2 C3_2 1_555 1_555
N2_2 C4_2 1_555 1_555
C4_2 C1_2 1_555 1_555
C6_2 C3_2 1_555 1_555
H2_2 C6_2 1_555 1_555
N2_2 C6_2 1_555 1_555
N2_2 Cd2 1_555 1_555
Cd4 O7_2 1_555 1_555
O6 C2_3 1_555 1_555
O2_3 C2_3 1_555 1_555
N1_2 Cd3 1_555 1_555
C1_3 N1_2 1_555 1_555
C2_3 C1_3 1_555 1_555
C3_3 N1_2 1_555 1_555
O7_2 C5_3 1_555 1_555
O4_3 C5_3 1_555 1_555
N2_3 C4_3 1_555 1_555
C4_3 C1_3 1_555 1_555
C5_3 C4_3 1_555 1_555
C6_3 C3_3 1_555 1_555
N3_2 Cd3 1_555 1_555
N2_3 C6_3 1_555 1_555
N2_3 Cd4 1_555 1_555
C1_4 N3_2 1_555 1_555
C3_4 N3_2 1_555 1_555
H1_4 C3_4 1_555 1_555
N2_4 C4_4 1_555 1_555
C4_4 C1_4 1_555 1_555
C6_4 C3_4 1_555 1_555
H2_4 C6_4 1_555 1_555
N2_4 C6_4 1_555 1_555
N2_4 Cd4_2 1_555 1_555
O7 C2_4 1_555 1_555
O2_4 C2_4 1_555 1_555
O6_2 C5_4 1_555 1_555
O4_4 C5_4 1_555 1_555

#END
