
###############################################################################
#
# This file contains modified crystal structure data generated from the
# MOF subset of the Cambridge Structural Database (CSD) v543 
# hosted by the Cambridge Crystallographic Data Centre (CCDC).
#
# This work is licensed under the Creative Commons
# Attribution-NonCommercial-ShareAlike 4.0 International License.
# To view a copy of this license, visit
# http://creativecommons.org/licenses/by-nc-sa/4.0/
# or send a letter to
# Creative Commons, PO Box 1866, Mountain View, CA 94042, USA.
#
# CIF created using the CSD Python API on 29 September 2022
# The structure has been converted into the P1 space group
# The structure has a 3D framework
# The original CSD entry JUMZUO is in the triclinic crystal system
# The framework has been calculated to contain at least 10.0% void space
# The void calculation uses a probe of radius 1.32A, grid spacing 0.4
#
###############################################################################

data_JUMZUO
_chemical_formula_moiety         '(C86 H78 N12 Ni4 O18)n'
_symmetry_cell_setting           triclinic
_symmetry_space_group_name_H-M   'P 1'
_symmetry_Int_Tables_number      1
_space_group_name_Hall           'P 1'
loop_
_symmetry_equiv_pos_site_id
_symmetry_equiv_pos_as_xyz
1 x,y,z
_cell_length_a                   9.2245(18)
_cell_length_b                   10.030(2)
_cell_length_c                   24.641(5)
_cell_angle_alpha                97.80(3)
_cell_angle_beta                 100.45(3)
_cell_angle_gamma                101.12(3)
_cell_volume                     2165.23
loop_
_atom_site_label
_atom_site_type_symbol
_atom_site_fract_x
_atom_site_fract_y
_atom_site_fract_z
_atom_site_U_iso_or_equiv
_atom_site_thermal_displace_type
C44 C 0.0092(2) 0.3008(2) 0.64084(9) 0.0376 Uani
H40 H 0.1074 0.2875 0.6485 0.0450 Uiso
Ni10 Ni 0.10545(3) 0.61602(2) 0.681007(10) 0.0260 Uani
N9 N 0.04156(18) 0.68870(18) 0.60637(7) 0.0367 Uani
C52 C 0.0927(3) 0.6740(3) 0.55889(11) 0.0743 Uani
H48 H 0.1842 0.6511 0.5557 0.0890 Uiso
H49 H 0.0010 0.6928 0.4793 0.1050 Uiso
C36 C 0.5602(3) 0.0223(2) 0.45372(10) 0.0510 Uani
H32 H 0.6004 0.0384 0.4226 0.0610 Uiso
N7 N 0.97098(19) 0.42580(17) 0.64602(7) 0.0355 Uani
N8 N 0.7643(2) 0.26221(17) 0.61763(8) 0.0394 Uani
C45 C 0.8828(3) 0.1990(2) 0.62288(10) 0.0465 Uani
H41 H 0.8779 0.1046 0.6156 0.0560 Uiso
C46 C 0.8225(2) 0.3983(2) 0.63194(9) 0.0383 Uani
H42 H 0.7651 0.4650 0.6319 0.0460 Uiso
C47 C 0.6016(3) 0.1977(2) 0.60434(10) 0.0466 Uani
H43 H 0.5771 0.1515 0.6347 0.0560 Uiso
H44 H 0.5446 0.2692 0.6016 0.0560 Uiso
C48 C 0.5539(3) 0.0943(2) 0.55002(9) 0.0411 Uani
C49 C 0.6129(3) 0.1133(2) 0.50365(10) 0.0473 Uani
H45 H 0.6906 0.1898 0.5060 0.0570 Uiso
N1 N 0.02902(19) 0.57420(17) 0.35398(7) 0.0355 Uani
N2 N 0.2357(2) 0.73779(17) 0.38237(8) 0.0394 Uani
N4 N 0.1219(2) 0.2716(2) 0.46263(8) 0.0519 Uani
C31 C 0.1172(3) 0.8010(2) 0.37712(10) 0.0465 Uani
H27 H 0.1221 0.8954 0.3844 0.0560 Uiso
C32 C 0.1775(2) 0.6017(2) 0.36806(9) 0.0383 Uani
H28 H 0.2349 0.5350 0.3681 0.0460 Uiso
C33 C 0.3984(3) 0.8023(2) 0.39566(10) 0.0466 Uani
H29 H 0.4229 0.8485 0.3653 0.0560 Uiso
H30 H 0.4554 0.7308 0.3984 0.0560 Uiso
C34 C 0.4461(3) 0.9057(2) 0.44998(9) 0.0411 Uani
C35 C 0.3871(3) 0.8867(2) 0.49635(10) 0.0473 Uani
H31 H 0.3094 0.8102 0.4940 0.0570 Uiso
C37 C 0.0883(3) 0.2769(3) 0.40793(10) 0.0531 Uani
H33 H 0.1496 0.2585 0.3831 0.0640 Uiso
C39 C 0.0080(3) 0.3025(4) 0.48350(13) 0.0876 Uani
C40 C 0.2693(3) 0.2540(3) 0.49311(13) 0.0698 Uani
H36 H 0.2958 0.1745 0.4735 0.0840 Uiso
H37 H 0.2614 0.2377 0.5305 0.0840 Uiso
C41 C 0.3903(3) 0.3809(3) 0.49702(11) 0.0514 Uani
C42 C 0.4233(3) 0.4858(3) 0.54218(11) 0.0579 Uani
H38 H 0.3725 0.4770 0.5713 0.0700 Uiso
C43 C 0.4686(3) 0.3951(3) 0.45502(11) 0.0573 Uani
H39 H 0.4489 0.3241 0.4244 0.0690 Uiso
C50 C 0.4398(3) 0.9777(2) 0.54628(10) 0.0510 Uani
H46 H 0.3996 0.9616 0.5774 0.0610 Uiso
N10 N 0.8781(2) 0.7284(2) 0.53737(8) 0.0519 Uani
C51 C 0.9117(3) 0.7231(3) 0.59207(10) 0.0531 Uani
H47 H 0.8504 0.7415 0.6169 0.0640 Uiso
C53 C 0.9920(3) 0.6975(4) 0.51650(13) 0.0876 Uani
C54 C 0.7307(3) 0.7460(3) 0.50689(13) 0.0698 Uani
H50 H 0.7042 0.8255 0.5265 0.0840 Uiso
H51 H 0.7386 0.7623 0.4695 0.0840 Uiso
C55 C 0.6097(3) 0.6191(3) 0.50298(11) 0.0514 Uani
C56 C 0.5767(3) 0.5142(3) 0.45782(11) 0.0579 Uani
H52 H 0.6275 0.5230 0.4287 0.0700 Uiso
C57 C 0.5314(3) 0.6049(3) 0.54498(11) 0.0573 Uani
H53 H 0.5511 0.6759 0.5756 0.0690 Uiso
O26 O 0.06928(14) 0.31800(13) 0.29286(6) 0.0323 Uani
O6 O 0.05590(15) 0.88531(14) 0.76123(7) 0.0421 Uani
Ni16 Ni 0.26828(3) 0.87236(2) 0.794883(11) 0.0266 Uani
Ni13 Ni 0.73172(3) 0.12764(2) 0.205117(11) 0.0266 Uani
Ni1 Ni 0.89455(3) 0.38398(2) 0.318993(10) 0.0260 Uani
O1 O 0.80522(16) 0.30614(13) 0.17952(6) 0.0365 Uani
O2 O 0.82032(16) 0.47128(13) 0.25264(6) 0.0368 Uani
O7 O 0.74996(16) 0.98499(13) 0.13693(6) 0.0378 Uani
O8 O 0.68192(15) 0.91256(12) 0.21050(6) 0.0321 Uani
O10 O 0.7637(3) 0.54756(17) 0.01298(7) 0.0809 Uani
N3 N 0.95844(18) 0.31130(18) 0.39363(7) 0.0367 Uani
N5 N 0.51411(18) 0.13199(16) 0.16923(7) 0.0353 Uani
N6 N 0.26928(19) 0.06741(19) 0.13588(8) 0.0442 Uani
C1 C 0.8085(2) 0.42858(18) 0.20157(9) 0.0295 Uani
C2 C 0.7888(2) 0.52839(19) 0.16205(9) 0.0302 Uani
C3 C 0.7893(3) 0.4891(2) 0.10589(9) 0.0406 Uani
H1 H 0.8019 0.4015 0.0928 0.0490 Uiso
C4 C 0.7707(3) 0.5817(2) 0.06919(9) 0.0477 Uani
C5 C 0.7553(3) 0.7123(2) 0.08839(9) 0.0415 Uani
H2 H 0.7482 0.7751 0.0641 0.0500 Uiso
C6 C 0.7504(2) 0.75021(19) 0.14445(8) 0.0296 Uani
C7 C 0.7689(2) 0.65921(18) 0.18108(8) 0.0278 Uani
H3 H 0.7680 0.6855 0.2187 0.0330 Uiso
C8 C 0.7252(2) 0.89044(19) 0.16468(9) 0.0311 Uani
H4 H 0.6529 0.3544 0.0063 0.1260 Uiso
C23 C 0.3963(2) 0.0284(2) 0.15446(9) 0.0374 Uani
C24 C 0.3078(3) 0.2062(3) 0.13839(16) 0.0871 Uani
H20 H 0.2437 0.2633 0.1274 0.1050 Uiso
C25 C 0.4568(3) 0.2440(3) 0.15996(15) 0.0788 Uani
H21 H 0.5133 0.3344 0.1675 0.0940 Uiso
H22 H 0.0501 0.0123 0.1388 0.0630 Uiso
C30 C 0.9908(2) 0.6992(2) 0.35916(9) 0.0376 Uani
H26 H 0.8926 0.7125 0.3515 0.0450 Uiso
C38 C 0.9073(3) 0.3260(3) 0.44111(11) 0.0743 Uani
H34 H 0.8158 0.3489 0.4443 0.0890 Uiso
H35 H 0.9990 0.3072 0.5207 0.1050 Uiso
O22 O 0.72405(13) 0.20911(13) 0.28720(6) 0.0282 Uani
O24 O 0.65906(14) 0.37410(14) 0.33827(6) 0.0374 Uani
O28 O 0.94410(15) 0.11469(14) 0.23877(7) 0.0421 Uani
H19 H 0.4009 0.9374 0.1567 0.0450 Uiso
C26 C 0.1158(3) 0.9821(3) 0.11541(10) 0.0523 Uani
H23 H 0.1170 0.8867 0.1182 0.0630 Uiso
C27 C 0.0545(2) 0.9910(2) 0.05594(10) 0.0437 Uani
C29 C 0.1169(3) 0.9347(3) 0.01360(11) 0.0601 Uani
H25 H 0.1962 0.8911 0.0225 0.0720 Uiso
O3 O 0.27595(13) 0.79089(13) 0.71280(6) 0.0282 Uani
O4 O 0.34094(14) 0.62590(14) 0.66173(6) 0.0374 Uani
O5 O 0.93072(14) 0.68200(13) 0.70714(6) 0.0323 Uani
C12 C 0.3762(2) 0.74342(19) 0.69069(8) 0.0279 Uani
C13 C 0.53018(19) 0.83348(19) 0.70164(8) 0.0260 Uani
C14 C 0.5475(2) 0.97404(19) 0.71345(8) 0.0289 Uani
C17 C 0.8000(2) 0.86134(19) 0.72260(8) 0.0283 Uani
C18 C 0.6585(2) 0.7760(2) 0.70525(8) 0.0291 Uani
H12 H 0.6476 0.6810 0.6960 0.0350 Uiso
C19 C 0.9401(2) 0.8033(2) 0.73121(8) 0.0302 Uani
C63 C 0.0618(3) 0.9428(3) 0.95747(11) 0.0564 Uani
H59 H 0.1036 0.9036 0.9293 0.0680 Uiso
C28 C 0.9382(3) 0.0572(3) 0.04253(11) 0.0564 Uani
H24 H 0.8964 0.0964 0.0707 0.0680 Uiso
C76 C 0.6238(2) 0.25658(19) 0.30931(8) 0.0279 Uani
C77 C 0.46982(19) 0.16652(19) 0.29836(8) 0.0260 Uani
C78 C 0.4525(2) 0.02596(19) 0.28655(8) 0.0289 Uani
C81 C 0.2000(2) 0.13866(19) 0.27740(8) 0.0283 Uani
C82 C 0.3415(2) 0.2240(2) 0.29475(8) 0.0291 Uani
H72 H 0.3524 0.3190 0.3040 0.0350 Uiso
C83 C 0.0599(2) 0.1967(2) 0.26879(8) 0.0302 Uani
H54 H 0.5991 0.0626 0.8433 0.0450 Uiso
C61 C 0.8842(3) 0.0179(3) 0.88459(10) 0.0523 Uani
H58 H 0.8830 0.1133 0.8818 0.0630 Uiso
C62 C 0.9455(2) 0.0090(2) 0.94406(10) 0.0437 Uani
C64 C 0.8831(3) 0.0653(3) 0.98640(11) 0.0601 Uani
H60 H 0.8038 0.1089 0.9775 0.0720 Uiso
O30 O 0.25004(16) 0.01501(13) 0.86307(6) 0.0378 Uani
O32 O 0.31808(15) 0.08744(12) 0.78950(6) 0.0321 Uani
N11 N 0.48589(18) 0.86801(16) 0.83077(7) 0.0353 Uani
N12 N 0.73072(19) 0.93259(19) 0.86412(8) 0.0442 Uani
C58 C 0.6037(2) 0.9716(2) 0.84554(9) 0.0374 Uani
C59 C 0.6922(3) 0.7938(3) 0.86161(16) 0.0871 Uani
H55 H 0.7563 0.7367 0.8726 0.1050 Uiso
C60 C 0.5432(3) 0.7560(3) 0.84004(15) 0.0788 Uani
H56 H 0.4867 0.6656 0.8325 0.0940 Uiso
H57 H 0.9499 0.9877 0.8612 0.0630 Uiso
O11 O 0.19478(16) 0.69386(13) 0.82048(6) 0.0365 Uani
O12 O 0.17968(16) 0.52872(13) 0.74736(6) 0.0368 Uani
O20 O 0.2363(3) 0.45244(17) 0.98702(7) 0.0809 Uani
C65 C 0.1915(2) 0.57142(18) 0.79843(9) 0.0295 Uani
C66 C 0.2112(2) 0.47161(19) 0.83795(9) 0.0302 Uani
C67 C 0.2107(3) 0.5109(2) 0.89411(9) 0.0406 Uani
H61 H 0.1981 0.5985 0.9072 0.0490 Uiso
C68 C 0.2293(3) 0.4183(2) 0.93081(9) 0.0477 Uani
C69 C 0.2447(3) 0.2877(2) 0.91161(9) 0.0415 Uani
H62 H 0.2518 0.2249 0.9359 0.0500 Uiso
C70 C 0.2496(2) 0.24979(19) 0.85555(8) 0.0296 Uani
C71 C 0.2311(2) 0.34079(18) 0.81892(8) 0.0278 Uani
H63 H 0.2320 0.3145 0.7813 0.0330 Uiso
C72 C 0.2748(2) 0.10956(19) 0.83532(9) 0.0311 Uani
H64 H 0.3471 0.6456 0.9937 0.1260 Uiso
O9 O 0.69476(15) 0.19907(14) 0.74029(7) 0.0402 Uani
C9 C 0.7248(5) 0.4053(3) 0.98811(13) 0.1050 Uani
H5 H 0.8143 0.3672 0.9923 0.1260 Uiso
C10 C 0.6546(4) 0.3935(4) 0.92558(13) 0.0999 Uani
H6 H 0.5965 0.2998 0.9114 0.1200 Uiso
H7 H 0.5848 0.4544 0.9221 0.1200 Uiso
C11 C 0.7622(3) 0.4268(3) 0.89093(11) 0.0718 Uani
H8 H 0.8302 0.3641 0.8931 0.0860 Uiso
H9 H 0.8222 0.5198 0.9053 0.0860 Uiso
H10 H 0.4626 0.0119 0.7108 0.0350 Uiso
C15 C 0.6912(2) 0.06041(19) 0.72939(8) 0.0272 Uani
C16 C 0.8174(2) 0.0053(2) 0.73468(8) 0.0293 Uani
H11 H 0.9134 0.0627 0.7462 0.0350 Uiso
C20 C 0.8303(2) 0.2942(2) 0.76982(9) 0.0371 Uani
H13 H 0.8772 0.2590 0.8017 0.0450 Uiso
H14 H 0.9013 0.3088 0.7454 0.0450 Uiso
C21 C 0.7884(3) 0.4256(2) 0.78891(11) 0.0517 Uani
H15 H 0.7398 0.4573 0.7563 0.0620 Uiso
H16 H 0.8802 0.4944 0.8064 0.0620 Uiso
C22 C 0.6852(3) 0.4170(3) 0.82944(11) 0.0577 Uani
H17 H 0.6312 0.4907 0.8271 0.0690 Uiso
H18 H 0.6108 0.3303 0.8178 0.0690 Uiso
O19 O 0.30524(15) 0.80093(14) 0.25971(7) 0.0402 Uani
C73 C 0.2752(5) 0.5947(3) 0.01189(13) 0.1050 Uani
H65 H 0.1857 0.6328 0.0077 0.1260 Uiso
C74 C 0.3454(4) 0.6065(4) 0.07442(13) 0.0999 Uani
H66 H 0.4035 0.7002 0.0886 0.1200 Uiso
H67 H 0.4152 0.5456 0.0779 0.1200 Uiso
C75 C 0.2378(3) 0.5732(3) 0.10907(11) 0.0718 Uani
H68 H 0.1698 0.6359 0.1069 0.0860 Uiso
H69 H 0.1778 0.4802 0.0947 0.0860 Uiso
H70 H 0.5374 0.9881 0.2892 0.0350 Uiso
C79 C 0.3088(2) 0.93959(19) 0.27061(8) 0.0272 Uani
C80 C 0.1826(2) 0.9947(2) 0.26532(8) 0.0293 Uani
H71 H 0.0866 0.9373 0.2538 0.0350 Uiso
C84 C 0.1697(2) 0.7058(2) 0.23018(9) 0.0371 Uani
H73 H 0.1228 0.7410 0.1983 0.0450 Uiso
H74 H 0.0987 0.6912 0.2546 0.0450 Uiso
C85 C 0.2116(3) 0.5744(2) 0.21109(11) 0.0517 Uani
H75 H 0.2602 0.5427 0.2437 0.0620 Uiso
H76 H 0.1198 0.5056 0.1936 0.0620 Uiso
C86 C 0.3148(3) 0.5830(3) 0.17056(11) 0.0577 Uani
H77 H 0.3688 0.5093 0.1729 0.0690 Uiso
H78 H 0.3892 0.6697 0.1822 0.0690 Uiso
loop_
_atom_site_aniso_label
_atom_site_aniso_U_11
_atom_site_aniso_U_22
_atom_site_aniso_U_33
_atom_site_aniso_U_23
_atom_site_aniso_U_13
_atom_site_aniso_U_12
C44 0.0373 0.0295 0.0421 0 0 0.0106
Ni10 0.0205 0.02426 0.03053 0.00055 0.00068 0.00588
N9 0.0264 0.0475 0.0368 0.0151 0.0022 0.0086
C52 0.0486 0.136 0.0538 0.0335 0.0217 0.0359
C36 0.0557 0.0458 0.0405 0.0071 0.0048 -0.0099
N7 0.0348 0.0319 0.0304 -0.0049 -0.003 0.0018
N8 0.0384 0.0282 0.0371 -0.0053 -0.0087 -0.0042
C45 0.0608 0.025 0.0477 0.0001 -0.0002 0.0107
C46 0.0411 0.0257 0.0402 -0.0011 -0.0051 0.0061
C47 0.0427 0.0398 0.0418 -0.0011 -0.0083 -0.0058
C48 0.0426 0.0305 0.0341 0.0024 -0.013 -0.0084
C49 0.046 0.0358 0.0432 0.0064 -0.007 -0.0156
N1 0.0348 0.0319 0.0304 -0.0049 -0.003 0.0018
N2 0.0384 0.0282 0.0371 -0.0053 -0.0087 -0.0042
N4 0.0367 0.0686 0.0493 0.0305 -0.005 0.0082
C31 0.0608 0.025 0.0477 0.0001 -0.0002 0.0107
C32 0.0411 0.0257 0.0402 -0.0011 -0.0051 0.0061
C33 0.0427 0.0398 0.0418 -0.0011 -0.0083 -0.0058
C34 0.0426 0.0305 0.0341 0.0024 -0.013 -0.0084
C35 0.046 0.0358 0.0432 0.0064 -0.007 -0.0156
C37 0.054 0.0684 0.0379 0.01 0.0018 0.0229
C39 0.0637 0.16 0.0492 0.043 0.0075 0.0363
C40 0.061 0.0738 0.0697 0.0201 -0.0127 0.0228
C41 0.0388 0.0629 0.0507 0.0134 -0.006 0.0191
C42 0.0522 0.0841 0.0475 0.0148 0.0152 0.033
C43 0.0601 0.0691 0.0396 0.0013 -0.0025 0.0248
C50 0.0557 0.0458 0.0405 0.0071 0.0048 -0.0099
N10 0.0367 0.0686 0.0493 0.0305 -0.005 0.0082
C51 0.054 0.0684 0.0379 0.01 0.0018 0.0229
C53 0.0637 0.16 0.0492 0.043 0.0075 0.0363
C54 0.061 0.0738 0.0697 0.0201 -0.0127 0.0228
C55 0.0388 0.0629 0.0507 0.0134 -0.006 0.0191
C56 0.0522 0.0841 0.0475 0.0148 0.0152 0.033
C57 0.0601 0.0691 0.0396 0.0013 -0.0025 0.0248
O26 0.0234 0.026 0.0441 -0.0029 0.004 0.0065
O6 0.024 0.0343 0.0617 -0.0044 -0.0024 0.0112
Ni16 0.02249 0.02048 0.0342 0.00049 0.00116 0.00641
Ni13 0.02249 0.02048 0.0342 0.00049 0.00116 0.00641
Ni1 0.0205 0.02426 0.03053 0.00055 0.00068 0.00588
O1 0.0433 0.0212 0.0442 0.0002 0.0114 0.0073
O2 0.0484 0.0298 0.0289 0.0003 0.0011 0.0106
O7 0.0518 0.0279 0.0392 0.0117 0.0154 0.013
O8 0.0391 0.0234 0.0356 0.0003 0.0109 0.0117
O10 0.1634 0.0496 0.0356 -0.0014 0.0303 0.0354
N3 0.0264 0.0475 0.0368 0.0151 0.0022 0.0086
N5 0.0296 0.0318 0.0405 0.0008 -0.0024 0.0106
N6 0.0236 0.0582 0.0441 0.014 -0.0084 0.004
C1 0.0225 0.0215 0.0424 0.0056 0.0025 0.0039
C2 0.0311 0.0225 0.0359 0.004 0.0028 0.0081
C3 0.058 0.0278 0.0375 -0.0022 0.0156 0.0135
C4 0.085 0.0337 0.0293 0.0008 0.0216 0.0194
C5 0.0586 0.0329 0.0362 0.0065 0.0163 0.0119
C6 0.0319 0.0198 0.0351 0.0021 0.0065 0.0036
C7 0.0287 0.0236 0.03 0.0015 0.0069 0.0049
C8 0.0253 0.0197 0.0439 -0.0018 0.0036 0.0035
C23 0.0392 0.0358 0.0336 0.0052 0.0005 0.0074
C24 0.0403 0.0536 0.154 0.0257 -0.0266 0.0173
C25 0.0432 0.0332 0.146 0.0139 -0.0161 0.0106
C30 0.0373 0.0295 0.0421 0 0 0.0106
C38 0.0486 0.136 0.0538 0.0335 0.0217 0.0359
O22 0.0173 0.0293 0.0366 -0.0014 0.0056 0.0068
O24 0.0272 0.0326 0.0465 -0.0071 0.0036 0.006
O28 0.024 0.0343 0.0617 -0.0044 -0.0024 0.0112
C26 0.0351 0.07 0.0465 0.0192 0.0046 -0.0031
C27 0.0271 0.0602 0.0373 0.014 -0.0026 -0.0008
C29 0.0439 0.0859 0.0536 0.0186 -0.0038 0.0309
O3 0.0173 0.0293 0.0366 -0.0014 0.0056 0.0068
O4 0.0272 0.0326 0.0465 -0.0071 0.0036 0.006
O5 0.0234 0.026 0.0441 -0.0029 0.004 0.0065
C12 0.0215 0.0293 0.0286 0.0004 -0.0032 0.0068
C13 0.0131 0.0306 0.0325 0.0006 0.0062 0.0028
C14 0.0158 0.0324 0.0396 0.0072 0.0039 0.0091
C17 0.0224 0.0285 0.0333 0.0005 0.0052 0.008
C18 0.0183 0.0303 0.0356 -0.0007 0.0036 0.0044
C19 0.0248 0.0298 0.0345 0.004 0.0055 0.0048
C63 0.0455 0.0874 0.0431 0.0158 0.0101 0.0278
C28 0.0455 0.0874 0.0431 0.0158 0.0101 0.0278
C76 0.0215 0.0293 0.0286 0.0004 -0.0032 0.0068
C77 0.0131 0.0306 0.0325 0.0006 0.0062 0.0028
C78 0.0158 0.0324 0.0396 0.0072 0.0039 0.0091
C81 0.0224 0.0285 0.0333 0.0005 0.0052 0.008
C82 0.0183 0.0303 0.0356 -0.0007 0.0036 0.0044
C83 0.0248 0.0298 0.0345 0.004 0.0055 0.0048
C61 0.0351 0.07 0.0465 0.0192 0.0046 -0.0031
C62 0.0271 0.0602 0.0373 0.014 -0.0026 -0.0008
C64 0.0439 0.0859 0.0536 0.0186 -0.0038 0.0309
O30 0.0518 0.0279 0.0392 0.0117 0.0154 0.013
O32 0.0391 0.0234 0.0356 0.0003 0.0109 0.0117
N11 0.0296 0.0318 0.0405 0.0008 -0.0024 0.0106
N12 0.0236 0.0582 0.0441 0.014 -0.0084 0.004
C58 0.0392 0.0358 0.0336 0.0052 0.0005 0.0074
C59 0.0403 0.0536 0.154 0.0257 -0.0266 0.0173
C60 0.0432 0.0332 0.146 0.0139 -0.0161 0.0106
O11 0.0433 0.0212 0.0442 0.0002 0.0114 0.0073
O12 0.0484 0.0298 0.0289 0.0003 0.0011 0.0106
O20 0.1634 0.0496 0.0356 -0.0014 0.0303 0.0354
C65 0.0225 0.0215 0.0424 0.0056 0.0025 0.0039
C66 0.0311 0.0225 0.0359 0.004 0.0028 0.0081
C67 0.058 0.0278 0.0375 -0.0022 0.0156 0.0135
C68 0.085 0.0337 0.0293 0.0008 0.0216 0.0194
C69 0.0586 0.0329 0.0362 0.0065 0.0163 0.0119
C70 0.0319 0.0198 0.0351 0.0021 0.0065 0.0036
C71 0.0287 0.0236 0.03 0.0015 0.0069 0.0049
C72 0.0253 0.0197 0.0439 -0.0018 0.0036 0.0035
O9 0.0286 0.0283 0.0588 -0.0001 0.0032 0.0059
C9 0.188 0.0679 0.0572 -0.0022 0.031 0.029
C10 0.133 0.097 0.0565 -0.0233 0.0271 0.013
C11 0.0887 0.0775 0.0502 0.0026 0.0194 0.0225
C15 0.0249 0.0251 0.0298 0.0001 0.0035 0.0068
C16 0.0175 0.0352 0.033 0.0008 0.0049 0.0046
C20 0.0305 0.0384 0.0399 0.0025 0.009 0.0033
C21 0.0474 0.0385 0.0617 -0.0002 0.0091 0.0004
C22 0.0569 0.0595 0.0551 -0.0119 0.0135 0.0229
O19 0.0286 0.0283 0.0588 -0.0001 0.0032 0.0059
C73 0.188 0.0679 0.0572 -0.0022 0.031 0.029
C74 0.133 0.097 0.0565 -0.0233 0.0271 0.013
C75 0.0887 0.0775 0.0502 0.0026 0.0194 0.0225
C79 0.0249 0.0251 0.0298 0.0001 0.0035 0.0068
C80 0.0175 0.0352 0.033 0.0008 0.0049 0.0046
C84 0.0305 0.0384 0.0399 0.0025 0.009 0.0033
C85 0.0474 0.0385 0.0617 -0.0002 0.0091 0.0004
C86 0.0569 0.0595 0.0551 -0.0119 0.0135 0.0229
loop_
_geom_bond_atom_site_label_1
_geom_bond_atom_site_label_2
_geom_bond_site_symmetry_1
_geom_bond_site_symmetry_2
C44 H40 1_555 1_555
C52 N9 1_555 1_555
H48 C52 1_555 1_555
Ni10 N9 1_555 1_555
H32 C36 1_555 1_555
N8 C45 1_555 1_555
H41 C45 1_555 1_555
C46 N7 1_555 1_555
H42 C46 1_555 1_555
C47 N8 1_555 1_555
H43 C47 1_555 1_555
H44 C47 1_555 1_555
C48 C47 1_555 1_555
C49 C36 1_555 1_555
H45 C49 1_555 1_555
N8 C46 1_555 1_555
C48 C49 1_555 1_555
N2 C31 1_555 1_555
N4 C37 1_555 1_555
H27 C31 1_555 1_555
C32 N1 1_555 1_555
H28 C32 1_555 1_555
C33 N2 1_555 1_555
H29 C33 1_555 1_555
H30 C33 1_555 1_555
C34 C33 1_555 1_555
C35 C34 1_555 1_555
H31 C35 1_555 1_555
H33 C37 1_555 1_555
C39 N4 1_555 1_555
C40 N4 1_555 1_555
H36 C40 1_555 1_555
H37 C40 1_555 1_555
C41 C40 1_555 1_555
C42 C41 1_555 1_555
H38 C42 1_555 1_555
C43 C41 1_555 1_555
H39 C43 1_555 1_555
C50 C35 1_555 1_555
H46 C50 1_555 1_555
N10 C51 1_555 1_555
C51 H47 1_555 1_555
C53 N10 1_555 1_555
C54 N10 1_555 1_555
H50 C54 1_555 1_555
H51 C54 1_555 1_555
C55 C54 1_555 1_555
C56 C43 1_555 1_555
H52 C56 1_555 1_555
C57 C42 1_555 1_555
H53 C57 1_555 1_555
N2 C32 1_555 1_555
C55 C56 1_555 1_555
C55 C57 1_555 1_555
Ni16 O6 1_555 1_555
Ni1 O2 1_555 1_555
Ni13 O1 1_555 1_555
O1 C1 1_555 1_555
O2 C1 1_555 1_555
O7 C8 1_555 1_555
O8 C8 1_555 1_555
O10 C4 1_555 1_555
N3 Ni1 1_555 1_555
N5 Ni13 1_555 1_555
N6 C23 1_555 1_555
C1 C2 1_555 1_555
C2 C3 1_555 1_555
C3 H1 1_555 1_555
C4 C3 1_555 1_555
C5 C4 1_555 1_555
H2 C5 1_555 1_555
C6 C5 1_555 1_555
C7 C2 1_555 1_555
H3 C7 1_555 1_555
C8 C6 1_555 1_555
C23 N5 1_555 1_555
C24 N6 1_555 1_555
H20 C24 1_555 1_555
C25 N5 1_555 1_555
H21 C25 1_555 1_555
H26 C30 1_555 1_555
C38 N3 1_555 1_555
H34 C38 1_555 1_555
O22 Ni1 1_555 1_555
O24 Ni1 1_555 1_555
O28 Ni13 1_555 1_555
Ni13 O22 1_555 1_555
C6 C7 1_555 1_555
C24 C25 1_555 1_555
H23 C26 1_555 1_555
C27 C26 1_555 1_555
C29 C27 1_555 1_555
H25 C29 1_555 1_555
O3 C12 1_555 1_555
O4 C12 1_555 1_555
O5 C19 1_555 1_555
C12 C13 1_555 1_555
C13 C14 1_555 1_555
C18 C13 1_555 1_555
H12 C18 1_555 1_555
C19 C17 1_555 1_555
H59 C63 1_555 1_555
Ni10 O3 1_555 1_555
Ni16 O3 1_555 1_555
O4 Ni10 1_555 1_555
C17 C18 1_555 1_555
H24 C28 1_555 1_555
O22 C76 1_555 1_555
O24 C76 1_555 1_555
O26 C83 1_555 1_555
C76 C77 1_555 1_555
C77 C78 1_555 1_555
C82 C77 1_555 1_555
H72 C82 1_555 1_555
C83 C81 1_555 1_555
C81 C82 1_555 1_555
H58 C61 1_555 1_555
C62 C61 1_555 1_555
H60 C64 1_555 1_555
C62 C64 1_555 1_555
N11 C58 1_555 1_555
N12 C58 1_555 1_555
C59 N12 1_555 1_555
H55 C59 1_555 1_555
C60 N11 1_555 1_555
H56 C60 1_555 1_555
Ni10 O12 1_555 1_555
Ni16 N11 1_555 1_555
O11 Ni16 1_555 1_555
O12 C65 1_555 1_555
O30 C72 1_555 1_555
O32 C72 1_555 1_555
O20 C68 1_555 1_555
C65 O11 1_555 1_555
C66 C65 1_555 1_555
C67 C66 1_555 1_555
H61 C67 1_555 1_555
C68 C67 1_555 1_555
C69 C68 1_555 1_555
H62 C69 1_555 1_555
C70 C69 1_555 1_555
C71 C66 1_555 1_555
H63 C71 1_555 1_555
C72 C70 1_555 1_555
C59 C60 1_555 1_555
C70 C71 1_555 1_555
O9 C15 1_555 1_555
H5 C9 1_555 1_555
C10 C9 1_555 1_555
H6 C10 1_555 1_555
H7 C10 1_555 1_555
C11 C10 1_555 1_555
H8 C11 1_555 1_555
H9 C11 1_555 1_555
C16 C15 1_555 1_555
H11 C16 1_555 1_555
C20 O9 1_555 1_555
H13 C20 1_555 1_555
H14 C20 1_555 1_555
C21 C20 1_555 1_555
H15 C21 1_555 1_555
H16 C21 1_555 1_555
C22 C11 1_555 1_555
H17 C22 1_555 1_555
H18 C22 1_555 1_555
C21 C22 1_555 1_555
O19 C79 1_555 1_555
H65 C73 1_555 1_555
C74 C73 1_555 1_555
H66 C74 1_555 1_555
H67 C74 1_555 1_555
C75 C74 1_555 1_555
H68 C75 1_555 1_555
H69 C75 1_555 1_555
C80 C79 1_555 1_555
H71 C80 1_555 1_555
C84 O19 1_555 1_555
H73 C84 1_555 1_555
H74 C84 1_555 1_555
C85 C84 1_555 1_555
H75 C85 1_555 1_555
H76 C85 1_555 1_555
C86 C75 1_555 1_555
H77 C86 1_555 1_555
H78 C86 1_555 1_555
C85 C86 1_555 1_555

#END
