
###############################################################################
#
# This file contains modified crystal structure data generated from the
# MOF subset of the Cambridge Structural Database (CSD) v543 
# hosted by the Cambridge Crystallographic Data Centre (CCDC).
#
# This work is licensed under the Creative Commons
# Attribution-NonCommercial-ShareAlike 4.0 International License.
# To view a copy of this license, visit
# http://creativecommons.org/licenses/by-nc-sa/4.0/
# or send a letter to
# Creative Commons, PO Box 1866, Mountain View, CA 94042, USA.
#
# CIF created using the CSD Python API on 29 September 2022
# The structure has been converted into the P1 space group
# The structure has a 3D framework
# The original CSD entry JUNKIP is in the triclinic crystal system
# The framework has been calculated to contain at least 10.0% void space
# The void calculation uses a probe of radius 1.32A, grid spacing 0.4
#
###############################################################################

data_JUNKIP
_chemical_formula_moiety         '(C56 H36 N6 O8 Zn2)n'
_symmetry_cell_setting           triclinic
_symmetry_space_group_name_H-M   'P 1'
_symmetry_Int_Tables_number      1
_space_group_name_Hall           'P 1'
loop_
_symmetry_equiv_pos_site_id
_symmetry_equiv_pos_as_xyz
1 x,y,z
_cell_length_a                   10.4072(8)
_cell_length_b                   11.4334(8)
_cell_length_c                   12.9954(9)
_cell_angle_alpha                99.827(3)
_cell_angle_beta                 98.033(3)
_cell_angle_gamma                113.779(2)
_cell_volume                     1356.48
loop_
_atom_site_label
_atom_site_type_symbol
_atom_site_fract_x
_atom_site_fract_y
_atom_site_fract_z
_atom_site_U_iso_or_equiv
_atom_site_thermal_displace_type
Zn8 Zn 0.36000(3) 0.44435(3) 0.09813(2) 0.0284 Uani
O5 O 0.4274(2) 0.4727(2) 0.83089(17) 0.0433 Uani
O6 O 0.2847(2) 0.3863(2) 0.93776(15) 0.0416 Uani
O7 O 0.2981(3) 0.4425(2) 0.24379(18) 0.0478 Uani
O8 O 0.1066(3) 0.3591(3) 0.11244(18) 0.0572 Uani
C29 C 0.3064(3) 0.4168(2) 0.8515(2) 0.0310 Uani
C31 C 0.1621(4) 0.3901(3) 0.2098(2) 0.0435 Uani
C32 C 0.1901(3) 0.3875(3) 0.6609(2) 0.0434 Uani
H20 H 0.279893 0.412382 0.644130 0.0520 Uiso
C33 C 0.1763(3) 0.3809(3) 0.7647(2) 0.0385 Uani
C34 C 0.0679(3) 0.3566(3) 0.5820(2) 0.0446 Uani
C36 C 0.0407(3) 0.3446(3) 0.7895(2) 0.0442 Uani
H21 H 0.032848 0.338763 0.859049 0.0530 Uiso
C38 C 0.0704(3) 0.3669(3) 0.2899(2) 0.0432 Uani
C39 C 0.1302(3) 0.3774(3) 0.3960(2) 0.0445 Uani
H23 H 0.227878 0.399547 0.417619 0.0530 Uiso
C41 C 0.0433(3) 0.3546(4) 0.4691(2) 0.0451 Uani
Zn5 Zn 0.64000(3) 0.55565(3) 0.90187(2) 0.0284 Uani
N6 N 0.3567(3) 0.2510(2) 0.0915(2) 0.0410 Uani
C47 C 0.3522(3) 0.0043(3) 0.0930(2) 0.0397 Uani
C53 C 0.2651(6) 0.0208(4) 0.0116(3) 0.0779 Uani
C54 C 0.4401(5) 0.1155(4) 0.1710(4) 0.0853 Uani
H34 H 0.501926 0.110891 0.227526 0.1020 Uiso
C55 C 0.2710(6) 0.1439(4) 0.0142(3) 0.0769 Uani
C56 C 0.4393(5) 0.2349(4) 0.1678(4) 0.0842 Uani
H36 H 0.501074 0.308351 0.223145 0.1010 Uiso
O1 O 0.5726(2) 0.5273(2) 0.16911(17) 0.0433 Uani
O2 O 0.7153(2) 0.6137(2) 0.06224(15) 0.0416 Uani
O3 O 0.7019(3) 0.5575(2) 0.75621(18) 0.0478 Uani
O4 O 0.8934(3) 0.6409(3) 0.88756(18) 0.0572 Uani
C1 C 0.6936(3) 0.5832(2) 0.1485(2) 0.0310 Uani
C7 C 0.8379(4) 0.6099(3) 0.7902(2) 0.0435 Uani
C8 C 0.8099(3) 0.6125(3) 0.3391(2) 0.0434 Uani
H4 H 0.720107 0.587618 0.355870 0.0520 Uiso
C9 C 0.8237(3) 0.6191(3) 0.2353(2) 0.0385 Uani
C10 C 0.9321(3) 0.6434(3) 0.4180(2) 0.0446 Uani
C13 C 0.9593(3) 0.6554(3) 0.2105(2) 0.0442 Uani
H6 H 0.967152 0.661237 0.140951 0.0530 Uiso
C16 C 0.9296(3) 0.6331(3) 0.7101(2) 0.0432 Uani
C17 C 0.8698(3) 0.6226(3) 0.6040(2) 0.0445 Uani
H9 H 0.772122 0.600453 0.582381 0.0530 Uiso
C19 C 0.9567(3) 0.6454(4) 0.5309(2) 0.0451 Uani
H14 H 0.797242 0.051101 0.044787 0.0930 Uiso
N5 N 0.3562(3) 0.6314(2) 0.09645(18) 0.0342 Uani
C48 C 0.2392(3) 0.6384(3) 0.0463(2) 0.0371 Uani
H29 H 0.158242 0.559847 0.011677 0.0450 Uiso
C49 C 0.4708(4) 0.7460(3) 0.1471(3) 0.0478 Uani
H30 H 0.552802 0.743470 0.183476 0.0570 Uiso
C50 C 0.3515(3) 0.8743(3) 0.0945(2) 0.0372 Uani
C51 C 0.2319(3) 0.7555(3) 0.0432(2) 0.0371 Uani
H31 H 0.147957 0.755129 0.007150 0.0450 Uiso
C52 C 0.4727(4) 0.8674(3) 0.1478(3) 0.0501 Uani
H32 H 0.554771 0.944380 0.183810 0.0600 Uiso
N1 N 0.6438(3) 0.3686(2) 0.90355(18) 0.0342 Uani
C3 C 0.7608(3) 0.3616(3) 0.9537(2) 0.0371 Uani
H1 H 0.841758 0.440153 0.988323 0.0450 Uiso
C4 C 0.5292(4) 0.2540(3) 0.8529(3) 0.0478 Uani
H2 H 0.447198 0.256530 0.816524 0.0570 Uiso
C6 C 0.6485(3) 0.1257(3) 0.9055(2) 0.0372 Uani
C12 C 0.7681(3) 0.2445(3) 0.9568(2) 0.0371 Uani
H5 H 0.852043 0.244871 0.992850 0.0450 Uiso
C14 C 0.5273(4) 0.1326(3) 0.8522(3) 0.0501 Uani
H7 H 0.445229 0.055620 0.816190 0.0600 Uiso
H33 H 0.202758 0.948899 0.955213 0.0930 Uiso
N7 N 0.6433(3) 0.7490(2) 0.9085(2) 0.0410 Uani
C2 C 0.6478(3) 0.9957(3) 0.9070(2) 0.0397 Uani
C24 C 0.7349(6) 0.9792(4) 0.9884(3) 0.0779 Uani
C25 C 0.5599(5) 0.8845(4) 0.8290(4) 0.0853 Uani
H15 H 0.498074 0.889109 0.772474 0.1020 Uiso
C27 C 0.7290(6) 0.8561(4) 0.9858(3) 0.0769 Uani
C28 C 0.5607(5) 0.7651(4) 0.8322(4) 0.0842 Uani
H18 H 0.498926 0.691649 0.776855 0.1010 Uiso
C26 C 0.4787(4) 0.0964(5) 0.5642(3) 0.0672 Uani
H16 H 0.462884 0.160624 0.607485 0.0810 Uiso
N4 N 0.8319(3) 0.3080(3) 0.5216(2) 0.0503 Uani
C30 C 0.9185(3) 0.3172(4) 0.7137(3) 0.0499 Uani
H19 H 0.829361 0.294371 0.731209 0.0600 Uiso
C35 C 0.9340(3) 0.3253(4) 0.6101(3) 0.0460 Uani
C37 C 0.9239(4) 0.3350(4) 0.2587(3) 0.0515 Uani
H22 H 0.884894 0.327380 0.187573 0.0620 Uiso
C40 C 0.6827(3) 0.2786(4) 0.5212(3) 0.0554 Uani
H24 H 0.678964 0.329673 0.587506 0.0660 Uiso
H25 H 0.643844 0.305743 0.462324 0.0660 Uiso
C42 C 0.5890(3) 0.1337(4) 0.5099(2) 0.0518 Uani
C43 C 0.8961(3) 0.3246(4) 0.4353(2) 0.0471 Uani
C44 C 0.8354(3) 0.3146(4) 0.3300(3) 0.0537 Uani
H26 H 0.738382 0.294823 0.308330 0.0650 Uiso
C45 C 0.6077(4) 0.0358(5) 0.4458(3) 0.0716 Uani
H27 H 0.680160 0.058983 0.408117 0.0860 Uiso
N3 N 0.1681(3) 0.6920(3) 0.4784(2) 0.0503 Uani
C5 C 0.0815(3) 0.6828(4) 0.2863(3) 0.0499 Uani
H3 H 0.170639 0.705629 0.268791 0.0600 Uiso
C11 C 0.0660(3) 0.6747(4) 0.3899(3) 0.0460 Uani
C15 C 0.0761(4) 0.6650(4) 0.7413(3) 0.0515 Uani
H8 H 0.115106 0.672620 0.812427 0.0620 Uiso
C18 C 0.3173(3) 0.7214(4) 0.4788(3) 0.0554 Uani
H10 H 0.321036 0.670327 0.412494 0.0660 Uiso
H11 H 0.356156 0.694257 0.537676 0.0660 Uiso
C20 C 0.4110(3) 0.8663(4) 0.4901(2) 0.0518 Uani
C21 C 0.1039(3) 0.6754(4) 0.5647(2) 0.0471 Uani
C22 C 0.1646(3) 0.6854(4) 0.6700(3) 0.0537 Uani
H12 H 0.261618 0.705177 0.691670 0.0650 Uiso
C23 C 0.3923(4) 0.9642(5) 0.5542(3) 0.0716 Uani
H13 H 0.319840 0.941017 0.591883 0.0860 Uiso
C46 C 0.5213(4) 0.9036(5) 0.4358(3) 0.0672 Uani
H28 H 0.537116 0.839376 0.392515 0.0810 Uiso
H35 H 0.211334 0.152193 0.958423 0.0920 Uiso
H17 H 0.788666 0.847807 0.041577 0.0920 Uiso
loop_
_atom_site_aniso_label
_atom_site_aniso_U_11
_atom_site_aniso_U_22
_atom_site_aniso_U_33
_atom_site_aniso_U_23
_atom_site_aniso_U_13
_atom_site_aniso_U_12
Zn8 0.03508 0.02996 0.02422 0.01114 0.0061 0.01661
O5 0.0345 0.0496 0.0446 0.0209 0.0027 0.0157
O6 0.0522 0.0452 0.0271 0.0115 0.0041 0.0217
O7 0.052 0.0596 0.0447 0.0248 0.0249 0.0279
O8 0.0716 0.0699 0.0325 0.0198 0.0166 0.029
C29 0.0379 0.0286 0.0289 0.0093 0.0049 0.0169
C31 0.0554 0.0473 0.0383 0.0216 0.0205 0.0255
C32 0.0308 0.063 0.0338 0.0206 0.007 0.0147
C33 0.0351 0.047 0.0341 0.0174 0.0082 0.0157
C34 0.0314 0.067 0.0335 0.0227 0.0089 0.0152
C36 0.0403 0.058 0.0323 0.0196 0.0131 0.0148
C38 0.0424 0.0544 0.035 0.0195 0.0125 0.0188
C39 0.0349 0.065 0.0346 0.0217 0.0086 0.0191
C41 0.0323 0.068 0.0328 0.0226 0.0076 0.016
Zn5 0.03508 0.02996 0.02422 0.01114 0.0061 0.01661
N6 0.0564 0.0319 0.0372 0.01 0.0027 0.0239
C47 0.0507 0.0331 0.039 0.0108 0.0059 0.0227
C53 0.111 0.0431 0.062 0.0007 -0.029 0.037
C54 0.088 0.038 0.102 0.0069 -0.049 0.0272
C55 0.107 0.047 0.064 0.0061 -0.029 0.04
C56 0.091 0.0346 0.097 0.0022 -0.046 0.0254
O1 0.0345 0.0496 0.0446 0.0209 0.0027 0.0157
O2 0.0522 0.0452 0.0271 0.0115 0.0041 0.0217
O3 0.052 0.0596 0.0447 0.0248 0.0249 0.0279
O4 0.0716 0.0699 0.0325 0.0198 0.0166 0.029
C1 0.0379 0.0286 0.0289 0.0093 0.0049 0.0169
C7 0.0554 0.0473 0.0383 0.0216 0.0205 0.0255
C8 0.0308 0.063 0.0338 0.0206 0.007 0.0147
C9 0.0351 0.047 0.0341 0.0174 0.0082 0.0157
C10 0.0314 0.067 0.0335 0.0227 0.0089 0.0152
C13 0.0403 0.058 0.0323 0.0196 0.0131 0.0148
C16 0.0424 0.0544 0.035 0.0195 0.0125 0.0188
C17 0.0349 0.065 0.0346 0.0217 0.0086 0.0191
C19 0.0323 0.068 0.0328 0.0226 0.0076 0.016
N5 0.0421 0.031 0.033 0.0108 0.0064 0.0192
C48 0.04 0.0323 0.0379 0.0098 0.0053 0.0155
C49 0.0478 0.0376 0.0559 0.0069 -0.0058 0.0241
C50 0.0485 0.0328 0.036 0.0111 0.0073 0.0231
C51 0.0434 0.0375 0.0343 0.0105 0.0046 0.0224
C52 0.0474 0.0329 0.062 0.0041 -0.0063 0.0189
N1 0.0421 0.031 0.033 0.0108 0.0064 0.0192
C3 0.04 0.0323 0.0379 0.0098 0.0053 0.0155
C4 0.0478 0.0376 0.0559 0.0069 -0.0058 0.0241
C6 0.0485 0.0328 0.036 0.0111 0.0073 0.0231
C12 0.0434 0.0375 0.0343 0.0105 0.0046 0.0224
C14 0.0474 0.0329 0.062 0.0041 -0.0063 0.0189
N7 0.0564 0.0319 0.0372 0.01 0.0027 0.0239
C2 0.0507 0.0331 0.039 0.0108 0.0059 0.0227
C24 0.111 0.0431 0.062 0.0007 -0.029 0.037
C25 0.088 0.038 0.102 0.0069 -0.049 0.0272
C27 0.107 0.047 0.064 0.0061 -0.029 0.04
C28 0.091 0.0346 0.097 0.0022 -0.046 0.0254
C26 0.0437 0.088 0.059 0.013 0.0233 0.0167
N4 0.0269 0.081 0.0365 0.0237 0.0077 0.0136
C30 0.0319 0.077 0.0402 0.0247 0.0149 0.0171
C35 0.0284 0.066 0.0378 0.0209 0.0067 0.0123
C37 0.0478 0.071 0.0315 0.019 0.0028 0.0215
C40 0.0294 0.085 0.0463 0.0233 0.0088 0.017
C42 0.0266 0.083 0.0338 0.016 0.0058 0.0121
C43 0.0305 0.069 0.0369 0.0214 0.0073 0.014
C44 0.0324 0.082 0.0394 0.0232 0.0008 0.0172
C45 0.0414 0.099 0.067 0.024 0.0323 0.016
N3 0.0269 0.081 0.0365 0.0237 0.0077 0.0136
C5 0.0319 0.077 0.0402 0.0247 0.0149 0.0171
C11 0.0284 0.066 0.0378 0.0209 0.0067 0.0123
C15 0.0478 0.071 0.0315 0.019 0.0028 0.0215
C18 0.0294 0.085 0.0463 0.0233 0.0088 0.017
C20 0.0266 0.083 0.0338 0.016 0.0058 0.0121
C21 0.0305 0.069 0.0369 0.0214 0.0073 0.014
C22 0.0324 0.082 0.0394 0.0232 0.0008 0.0172
C23 0.0414 0.099 0.067 0.024 0.0323 0.016
C46 0.0437 0.088 0.059 0.013 0.0233 0.0167
loop_
_geom_bond_atom_site_label_1
_geom_bond_atom_site_label_2
_geom_bond_site_symmetry_1
_geom_bond_site_symmetry_2
O5 C29 1_555 1_555
O6 C29 1_555 1_555
O7 C31 1_555 1_555
O8 C31 1_555 1_555
C29 C33 1_555 1_555
C31 C38 1_555 1_555
C32 H20 1_555 1_555
C33 C32 1_555 1_555
C34 C32 1_555 1_555
H21 C36 1_555 1_555
C39 C38 1_555 1_555
H23 C39 1_555 1_555
C41 C34 1_555 1_555
Zn5 O5 1_555 1_555
Zn8 O7 1_555 1_555
O8 Zn8 1_555 1_555
C33 C36 1_555 1_555
C39 C41 1_555 1_555
N6 C55 1_555 1_555
C53 C47 1_555 1_555
C54 C47 1_555 1_555
H34 C54 1_555 1_555
C55 C53 1_555 1_555
C56 N6 1_555 1_555
H36 C56 1_555 1_555
Zn8 N6 1_555 1_555
C54 C56 1_555 1_555
O1 C1 1_555 1_555
O2 C1 1_555 1_555
O3 C7 1_555 1_555
O4 C7 1_555 1_555
C1 C9 1_555 1_555
C7 C16 1_555 1_555
C8 H4 1_555 1_555
C9 C8 1_555 1_555
C10 C8 1_555 1_555
H6 C13 1_555 1_555
C17 C16 1_555 1_555
H9 C17 1_555 1_555
C19 C10 1_555 1_555
Zn8 O1 1_555 1_555
N5 Zn8 1_555 1_555
C48 N5 1_555 1_555
H29 C48 1_555 1_555
C49 N5 1_555 1_555
H30 C49 1_555 1_555
C50 C51 1_555 1_555
C51 C48 1_555 1_555
H31 C51 1_555 1_555
C52 C49 1_555 1_555
H32 C52 1_555 1_555
Zn5 O3 1_555 1_555
O4 Zn5 1_555 1_555
C9 C13 1_555 1_555
C17 C19 1_555 1_555
C50 C52 1_555 1_555
N1 Zn5 1_555 1_555
C3 N1 1_555 1_555
H1 C3 1_555 1_555
C4 N1 1_555 1_555
H2 C4 1_555 1_555
C6 C12 1_555 1_555
C12 C3 1_555 1_555
H5 C12 1_555 1_555
C14 C4 1_555 1_555
H7 C14 1_555 1_555
N7 Zn5 1_555 1_555
C6 C14 1_555 1_555
N7 C27 1_555 1_555
C24 C2 1_555 1_555
C25 C2 1_555 1_555
H15 C25 1_555 1_555
C27 C24 1_555 1_555
C28 N7 1_555 1_555
H18 C28 1_555 1_555
C25 C28 1_555 1_555
H16 C26 1_555 1_555
N4 C35 1_555 1_555
C30 H19 1_555 1_555
C35 C30 1_555 1_555
C37 H22 1_555 1_555
C40 N4 1_555 1_555
H24 C40 1_555 1_555
H25 C40 1_555 1_555
C42 C26 1_555 1_555
C43 N4 1_555 1_555
C44 C37 1_555 1_555
H26 C44 1_555 1_555
C45 C42 1_555 1_555
H27 C45 1_555 1_555
C40 C42 1_555 1_555
C43 C44 1_555 1_555
N3 C11 1_555 1_555
C5 H3 1_555 1_555
C11 C5 1_555 1_555
C15 H8 1_555 1_555
C18 N3 1_555 1_555
H10 C18 1_555 1_555
H11 C18 1_555 1_555
C20 C18 1_555 1_555
C21 N3 1_555 1_555
C22 C15 1_555 1_555
H12 C22 1_555 1_555
C23 C20 1_555 1_555
H13 C23 1_555 1_555
C46 C20 1_555 1_555
H28 C46 1_555 1_555
C21 C22 1_555 1_555

#END
