
###############################################################################
#
# This file contains modified crystal structure data generated from the
# MOF subset of the Cambridge Structural Database (CSD) v543 
# hosted by the Cambridge Crystallographic Data Centre (CCDC).
#
# This work is licensed under the Creative Commons
# Attribution-NonCommercial-ShareAlike 4.0 International License.
# To view a copy of this license, visit
# http://creativecommons.org/licenses/by-nc-sa/4.0/
# or send a letter to
# Creative Commons, PO Box 1866, Mountain View, CA 94042, USA.
#
# CIF created using the CSD Python API on 29 September 2022
# The structure has been converted into the P1 space group
# The structure has a 3D framework
# The original CSD entry JUNKOV is in the triclinic crystal system
# The framework has been calculated to contain at least 10.0% void space
# The void calculation uses a probe of radius 1.32A, grid spacing 0.4
#
###############################################################################

data_JUNKOV
_chemical_formula_moiety         '(C60 H40 N6 O8 Zn2)n'
_symmetry_cell_setting           triclinic
_symmetry_space_group_name_H-M   'P 1'
_symmetry_Int_Tables_number      1
_space_group_name_Hall           'P 1'
loop_
_symmetry_equiv_pos_site_id
_symmetry_equiv_pos_as_xyz
1 x,y,z
_cell_length_a                   10.6378(6)
_cell_length_b                   12.1483(6)
_cell_length_c                   13.0565(6)
_cell_angle_alpha                71.249(2)
_cell_angle_beta                 83.003(2)
_cell_angle_gamma                73.420(2)
_cell_volume                     1530.48
loop_
_atom_site_label
_atom_site_type_symbol
_atom_site_fract_x
_atom_site_fract_y
_atom_site_fract_z
_atom_site_U_iso_or_equiv
_atom_site_thermal_displace_type
O5 O 0.44579(16) 0.48075(16) 0.16220(14) 0.0367 Uani
O6 O 0.38242(16) 0.37882(15) 0.07193(13) 0.0356 Uani
O7 O 0.36319(18) 0.44046(17) 0.75391(14) 0.0422 Uani
O8 O 0.24407(19) 0.35291(17) 0.88806(14) 0.0435 Uani
C31 C 0.1813(2) 0.3799(2) 0.41598(17) 0.0269 Uani
C32 C 0.2309(2) 0.3994(2) 0.59972(18) 0.0294 Uani
H21 H 0.3032(2) 0.4303(2) 0.57480(18) 0.0353 Uiso
C33 C 0.2744(2) 0.4114(2) 0.33579(17) 0.0269 Uani
H22 H 0.3382(2) 0.4438(2) 0.34850(17) 0.0323 Uiso
C34 C 0.2707(2) 0.3938(2) 0.23609(17) 0.0283 Uani
C35 C 0.3744(2) 0.42046(19) 0.15013(17) 0.0251 Uani
C36 C 0.1720(2) 0.3479(2) 0.21638(18) 0.0345 Uani
H23 H 0.1722(2) 0.3352(2) 0.14982(18) 0.0414 Uiso
C37 C 0.0813(2) 0.3369(2) 0.39306(18) 0.0291 Uani
C38 C 0.1617(2) 0.3763(2) 0.52867(17) 0.0272 Uani
C39 C 0.2696(2) 0.3904(2) 0.78855(19) 0.0343 Uani
C40 C 0.0745(2) 0.3210(2) 0.29297(19) 0.0362 Uani
H24 H 0.0075(2) 0.2936(2) 0.27840(19) 0.0434 Uiso
C41 C 0.0497(2) 0.3330(2) 0.56740(18) 0.0296 Uani
C42 C 0.1909(2) 0.3759(2) 0.70877(18) 0.0321 Uani
C43 C 0.0772(3) 0.3358(2) 0.7438(2) 0.0402 Uani
H25 H 0.0497(3) 0.3228(2) 0.8161(2) 0.0482 Uiso
C46 C 0.0049(2) 0.3151(2) 0.6745(2) 0.0398 Uani
C47 C 0.0562(3) 0.0475(3) 0.5586(3) 0.0586 Uani
H29 H 0.0958(3) 0.0786(3) 0.5987(3) 0.0706 Uiso
Zn5 Zn 0.41320(2) 0.43421(2) 0.909371(19) 0.0248 Uani
Zn8 Zn 0.58680(2) 0.56579(2) 0.090629(19) 0.0248 Uani
N6 N 0.44211(19) 0.73703(18) 0.07158(16) 0.0350 Uani
C55 C 0.2538(2) 0.9575(2) 0.0535(2) 0.0413 Uani
C59 C 0.3367(3) 0.7456(3) 0.1363(3) 0.0690 Uani
H39 H 0.3260(3) 0.6761(3) 0.1894(3) 0.0827 Uiso
C60 C 0.2419(3) 0.8511(3) 0.1295(3) 0.0812 Uani
H40 H 0.1689(3) 0.8511(3) 0.1765(3) 0.0974 Uiso
O1 O 0.55421(16) 0.51925(16) 0.83780(14) 0.0367 Uani
O2 O 0.61758(16) 0.62118(15) 0.92807(13) 0.0356 Uani
O3 O 0.63681(18) 0.55954(17) 0.24609(14) 0.0422 Uani
O4 O 0.75593(19) 0.64709(17) 0.11194(14) 0.0435 Uani
N1 N 0.26265(18) 0.59753(16) 0.90594(15) 0.0298 Uani
C1 C 0.8187(2) 0.6201(2) 0.58402(17) 0.0269 Uani
C2 C 0.7691(2) 0.6006(2) 0.40028(18) 0.0294 Uani
H1 H 0.6968(2) 0.5697(2) 0.42520(18) 0.0353 Uiso
C3 C 0.1455(2) 0.5913(2) 0.95707(19) 0.0317 Uani
H2 H 0.1327(2) 0.5155(2) 0.99258(19) 0.0380 Uiso
C4 C 0.7256(2) 0.5886(2) 0.66421(17) 0.0269 Uani
H3 H 0.6618(2) 0.5562(2) 0.65150(17) 0.0323 Uiso
C5 C 0.7293(2) 0.6062(2) 0.76391(17) 0.0283 Uani
C6 C 0.6256(2) 0.57954(19) 0.84987(17) 0.0251 Uani
C7 C 0.0445(2) 0.6899(2) 0.95987(19) 0.0314 Uani
C8 C 0.8280(2) 0.6521(2) 0.78362(18) 0.0345 Uani
H5 H 0.8278(2) 0.6648(2) 0.85018(18) 0.0414 Uiso
C9 C 0.0613(2) 0.8054(2) 0.9063(2) 0.0347 Uani
C10 C 0.9187(2) 0.6631(2) 0.60694(18) 0.0291 Uani
C11 C 0.8383(2) 0.6237(2) 0.47133(17) 0.0272 Uani
C12 C 0.7304(2) 0.6096(2) 0.21145(19) 0.0343 Uani
C13 C 0.9255(2) 0.6790(2) 0.70703(19) 0.0362 Uani
H6 H 0.9925(2) 0.7064(2) 0.72160(19) 0.0434 Uiso
C14 C 0.9503(2) 0.6670(2) 0.43260(18) 0.0296 Uani
C15 C 0.8091(2) 0.6241(2) 0.29123(18) 0.0321 Uani
C16 C 0.2787(2) 0.7072(2) 0.8553(2) 0.0384 Uani
H7 H 0.3586(2) 0.7138(2) 0.8197(2) 0.0461 Uiso
C19 C 0.9228(3) 0.6642(2) 0.2562(2) 0.0402 Uani
H10 H 0.9503(3) 0.6772(2) 0.1839(2) 0.0482 Uiso
C23 C 0.1820(3) 0.8111(2) 0.8536(2) 0.0435 Uani
H12 H 0.1976(3) 0.8857(2) 0.8168(2) 0.0523 Uiso
C25 C 0.9951(2) 0.6849(2) 0.3255(2) 0.0398 Uani
C27 C 0.9438(3) 0.9525(3) 0.4414(3) 0.0586 Uani
H17 H 0.9042(3) 0.9214(3) 0.4013(3) 0.0706 Uiso
N5 N 0.73735(18) 0.40247(16) 0.09406(15) 0.0298 Uani
C49 C 0.8545(2) 0.4087(2) 0.04293(19) 0.0317 Uani
H31 H 0.8673(2) 0.4845(2) 0.00742(19) 0.0380 Uiso
C50 C 0.9555(2) 0.3101(2) 0.04013(19) 0.0314 Uani
C51 C 0.9387(2) 0.1946(2) 0.0937(2) 0.0347 Uani
C52 C 0.7213(2) 0.2928(2) 0.1447(2) 0.0384 Uani
H33 H 0.6414(2) 0.2862(2) 0.1803(2) 0.0461 Uiso
C57 C 0.8180(3) 0.1889(2) 0.1464(2) 0.0435 Uani
H37 H 0.8024(3) 0.1143(2) 0.1832(2) 0.0523 Uiso
N7 N 0.55789(19) 0.26297(18) 0.92842(16) 0.0350 Uani
C21 C 0.7462(2) 0.0425(2) 0.9465(2) 0.0413 Uani
C29 C 0.6633(3) 0.2544(3) 0.8637(3) 0.0690 Uani
H19 H 0.6740(3) 0.3239(3) 0.8106(3) 0.0827 Uiso
C30 C 0.7581(3) 0.1489(3) 0.8705(3) 0.0812 Uani
H20 H 0.8311(3) 0.1489(3) 0.8235(3) 0.0974 Uiso
N3 N 0.00010(19) 0.68771(18) 0.51623(16) 0.0330 Uani
C20 C 0.0497(2) 0.8784(2) 0.5031(2) 0.0383 Uani
C24 C 0.1032(2) 0.7471(2) 0.5076(2) 0.0399 Uani
H13 H 0.1590(2) 0.7052(2) 0.5693(2) 0.0480 Uiso
H14 H 0.1569(2) 0.7420(2) 0.4428(2) 0.0480 Uiso
H15 H 0.0712(2) 0.7101(2) 0.3014(2) 0.0477 Uiso
C28 C 0.1050(3) 0.9275(3) 0.5621(3) 0.0565 Uani
H18 H 0.1760(3) 0.8795(3) 0.6049(3) 0.0678 Uiso
H32 H 0.0341(2) 0.3196(2) 0.00329(19) 0.0377 Uiso
C53 C 0.1560(3) 0.0730(2) 0.0451(2) 0.0441 Uani
H34 H 0.1769(3) 0.1429(2) 0.0007(2) 0.0529 Uiso
C54 C 0.0403(3) 0.0840(2) 0.0965(2) 0.0459 Uani
H35 H 0.0214(3) 0.0127(2) 0.1396(2) 0.0551 Uiso
H38 H 0.3780(3) 0.0168(2) 0.9337(2) 0.0564 Uiso
C56 C 0.4539(3) 0.8385(2) 0.9975(2) 0.0461 Uani
H36 H 0.5268(3) 0.8352(2) 0.9504(2) 0.0553 Uiso
C58 C 0.3640(3) 0.9484(2) 0.9866(2) 0.0471 Uani
N4 N 0.99990(19) 0.31229(18) 0.48377(16) 0.0330 Uani
C44 C 0.9503(2) 0.1216(2) 0.4969(2) 0.0383 Uani
C45 C 0.8968(2) 0.2529(2) 0.4924(2) 0.0399 Uani
H26 H 0.8410(2) 0.2948(2) 0.4307(2) 0.0480 Uiso
H27 H 0.8431(2) 0.2580(2) 0.5572(2) 0.0480 Uiso
H28 H 0.9288(2) 0.2899(2) 0.6986(2) 0.0477 Uiso
C48 C 0.8950(3) 0.0725(3) 0.4379(3) 0.0565 Uani
H30 H 0.8240(3) 0.1205(3) 0.3951(3) 0.0678 Uiso
H4 H 0.9659(2) 0.6804(2) 0.99671(19) 0.0377 Uiso
C17 C 0.8440(3) 0.9270(2) 0.9549(2) 0.0441 Uani
H8 H 0.8231(3) 0.8571(2) 0.9993(2) 0.0529 Uiso
C18 C 0.9597(3) 0.9160(2) 0.9035(2) 0.0459 Uani
H9 H 0.9786(3) 0.9873(2) 0.8604(2) 0.0551 Uiso
C22 C 0.5461(3) 0.1615(2) 0.0025(2) 0.0461 Uani
H11 H 0.4732(3) 0.1648(2) 0.0496(2) 0.0553 Uiso
C26 C 0.6360(3) 0.0516(2) 0.0134(2) 0.0471 Uani
H16 H 0.6220(3) 0.9832(2) 0.0663(2) 0.0564 Uiso
loop_
_atom_site_aniso_label
_atom_site_aniso_U_11
_atom_site_aniso_U_22
_atom_site_aniso_U_33
_atom_site_aniso_U_23
_atom_site_aniso_U_13
_atom_site_aniso_U_12
O5 0.0335 0.046 0.037 -0.0195 0.0115 -0.0173
O6 0.0422 0.0394 0.0246 -0.0137 0.0051 -0.0079
O7 0.044 0.0546 0.0368 -0.0207 -0.0057 -0.0167
O8 0.0552 0.0519 0.025 -0.0163 -0.0047 -0.0095
C31 0.0281 0.0309 0.0243 -0.0102 0.0002 -0.0102
C32 0.029 0.0346 0.0288 -0.0141 0.0022 -0.0107
C33 0.0265 0.0319 0.0268 -0.012 0.0005 -0.0113
C34 0.028 0.033 0.0246 -0.0098 0.0016 -0.0087
C35 0.0237 0.0253 0.0225 -0.0071 -0.0006 -0.0006
C36 0.0409 0.0441 0.0239 -0.0142 -0.0013 -0.0149
C37 0.0286 0.0347 0.0278 -0.0109 0.0013 -0.0135
C38 0.0276 0.0313 0.025 -0.0115 0.0025 -0.0094
C39 0.0368 0.0357 0.0308 -0.0171 -0.0065 0.0003
C40 0.0369 0.0502 0.0314 -0.0152 -0.0017 -0.0231
C41 0.0307 0.0347 0.0268 -0.0113 0.0017 -0.0126
C42 0.0367 0.0358 0.0256 -0.0134 -0.0013 -0.0075
C43 0.0478 0.052 0.0238 -0.0141 0.0084 -0.0188
C46 0.0377 0.056 0.033 -0.016 0.0108 -0.0255
C47 0.0631 0.0585 0.069 -0.0253 -0.0286 -0.0207
Zn5 0.02416 0.02816 0.0225 -0.01235 0.00252 -0.0034
Zn8 0.02416 0.02816 0.0225 -0.01235 0.00252 -0.0034
N6 0.0338 0.0309 0.0337 -0.0117 0.0033 0.0022
C55 0.0369 0.0346 0.0435 -0.0109 0.0051 0.0006
C59 0.072 0.0348 0.063 0.0007 0.0386 0.0087
C60 0.071 0.0393 0.084 0.003 0.052 0.0142
O1 0.0335 0.046 0.037 -0.0195 0.0115 -0.0173
O2 0.0422 0.0394 0.0246 -0.0137 0.0051 -0.0079
O3 0.044 0.0546 0.0368 -0.0207 -0.0057 -0.0167
O4 0.0552 0.0519 0.025 -0.0163 -0.0047 -0.0095
N1 0.0284 0.0278 0.0302 -0.0102 0.0021 -0.0024
C1 0.0281 0.0309 0.0243 -0.0102 0.0002 -0.0102
C2 0.029 0.0346 0.0288 -0.0141 0.0022 -0.0107
C3 0.0317 0.0285 0.032 -0.0094 0.0042 -0.0055
C4 0.0265 0.0319 0.0268 -0.012 0.0005 -0.0113
C5 0.028 0.033 0.0246 -0.0098 0.0016 -0.0087
C6 0.0237 0.0253 0.0225 -0.0071 -0.0006 -0.0006
C7 0.0263 0.0356 0.0309 -0.013 0.0035 -0.0042
C8 0.0409 0.0441 0.0239 -0.0142 -0.0013 -0.0149
C9 0.031 0.0321 0.0388 -0.0141 -0.0005 -0.0012
C10 0.0286 0.0347 0.0278 -0.0109 0.0013 -0.0135
C11 0.0276 0.0313 0.025 -0.0115 0.0025 -0.0094
C12 0.0368 0.0357 0.0308 -0.0171 -0.0065 0.0003
C13 0.0369 0.0502 0.0314 -0.0152 -0.0017 -0.0231
C14 0.0307 0.0347 0.0268 -0.0113 0.0017 -0.0126
C15 0.0367 0.0358 0.0256 -0.0134 -0.0013 -0.0075
C16 0.0279 0.034 0.047 -0.01 0.0081 -0.0048
C19 0.0478 0.052 0.0238 -0.0141 0.0084 -0.0188
C23 0.0387 0.0291 0.0558 -0.0068 0.007 -0.0085
C25 0.0377 0.056 0.033 -0.016 0.0108 -0.0255
C27 0.0631 0.0585 0.069 -0.0253 -0.0286 -0.0207
N5 0.0284 0.0278 0.0302 -0.0102 0.0021 -0.0024
C49 0.0317 0.0285 0.032 -0.0094 0.0042 -0.0055
C50 0.0263 0.0356 0.0309 -0.013 0.0035 -0.0042
C51 0.031 0.0321 0.0388 -0.0141 -0.0005 -0.0012
C52 0.0279 0.034 0.047 -0.01 0.0081 -0.0048
C57 0.0387 0.0291 0.0558 -0.0068 0.007 -0.0085
N7 0.0338 0.0309 0.0337 -0.0117 0.0033 0.0022
C21 0.0369 0.0346 0.0435 -0.0109 0.0051 0.0006
C29 0.072 0.0348 0.063 0.0007 0.0386 0.0087
C30 0.071 0.0393 0.084 0.003 0.052 0.0142
N3 0.0328 0.0445 0.0289 -0.0129 0.004 -0.0212
C20 0.038 0.0483 0.0356 -0.01 0.0025 -0.0268
C24 0.0328 0.0548 0.0403 -0.0158 0.003 -0.0239
C28 0.0564 0.0559 0.064 -0.0164 -0.0285 -0.0163
C53 0.0433 0.0305 0.0478 -0.0102 0.0049 0.0021
C54 0.0393 0.0293 0.0623 -0.0133 0.0054 -0.002
C56 0.0377 0.0377 0.0569 -0.0149 0.0172 -0.0078
C58 0.0417 0.0302 0.0579 -0.007 0.0109 -0.0043
N4 0.0328 0.0445 0.0289 -0.0129 0.004 -0.0212
C44 0.038 0.0483 0.0356 -0.01 0.0025 -0.0268
C45 0.0328 0.0548 0.0403 -0.0158 0.003 -0.0239
C48 0.0564 0.0559 0.064 -0.0164 -0.0285 -0.0163
C17 0.0433 0.0305 0.0478 -0.0102 0.0049 0.0021
C18 0.0393 0.0293 0.0623 -0.0133 0.0054 -0.002
C22 0.0377 0.0377 0.0569 -0.0149 0.0172 -0.0078
C26 0.0417 0.0302 0.0579 -0.007 0.0109 -0.0043
loop_
_geom_bond_atom_site_label_1
_geom_bond_atom_site_label_2
_geom_bond_site_symmetry_1
_geom_bond_site_symmetry_2
O5 C35 1_555 1_555
O6 C35 1_555 1_555
O7 C39 1_555 1_555
O8 C39 1_555 1_555
C31 C33 1_555 1_555
C32 H21 1_555 1_555
C33 H22 1_555 1_555
C34 C33 1_555 1_555
C35 C34 1_555 1_555
C36 C34 1_555 1_555
H23 C36 1_555 1_555
C37 C31 1_555 1_555
C38 C31 1_555 1_555
C39 C42 1_555 1_555
C40 C36 1_555 1_555
H24 C40 1_555 1_555
C42 C32 1_555 1_555
C43 C42 1_555 1_555
H25 C43 1_555 1_555
C46 C41 1_555 1_555
H29 C47 1_555 1_555
Zn5 O7 1_555 1_555
Zn8 O5 1_555 1_555
O8 Zn5 1_555 1_555
C32 C38 1_555 1_555
C37 C40 1_555 1_555
C38 C41 1_555 1_555
C43 C46 1_555 1_555
C59 N6 1_555 1_555
H39 C59 1_555 1_555
C60 C55 1_555 1_555
H40 C60 1_555 1_555
Zn8 N6 1_555 1_555
C59 C60 1_555 1_555
Zn5 O1 1_555 1_555
O1 C6 1_555 1_555
O2 C6 1_555 1_555
O3 C12 1_555 1_555
O4 C12 1_555 1_555
N1 Zn5 1_555 1_555
C1 C4 1_555 1_555
C2 H1 1_555 1_555
C3 N1 1_555 1_555
H2 C3 1_555 1_555
C4 H3 1_555 1_555
C5 C4 1_555 1_555
C6 C5 1_555 1_555
C7 C3 1_555 1_555
C8 C5 1_555 1_555
H5 C8 1_555 1_555
C9 C7 1_555 1_555
C10 C1 1_555 1_555
C11 C1 1_555 1_555
C12 C15 1_555 1_555
C13 C8 1_555 1_555
H6 C13 1_555 1_555
C15 C2 1_555 1_555
C16 N1 1_555 1_555
H7 C16 1_555 1_555
C19 C15 1_555 1_555
H10 C19 1_555 1_555
C23 C9 1_555 1_555
H12 C23 1_555 1_555
C25 C14 1_555 1_555
H17 C27 1_555 1_555
Zn8 O3 1_555 1_555
N5 Zn8 1_555 1_555
C49 N5 1_555 1_555
H31 C49 1_555 1_555
C50 C49 1_555 1_555
C51 C50 1_555 1_555
C52 N5 1_555 1_555
H33 C52 1_555 1_555
C57 C51 1_555 1_555
H37 C57 1_555 1_555
N7 Zn5 1_555 1_555
O4 Zn8 1_555 1_555
C2 C11 1_555 1_555
C10 C13 1_555 1_555
C11 C14 1_555 1_555
C16 C23 1_555 1_555
C19 C25 1_555 1_555
C52 C57 1_555 1_555
C29 N7 1_555 1_555
H19 C29 1_555 1_555
C30 C21 1_555 1_555
H20 C30 1_555 1_555
C29 C30 1_555 1_555
C20 C24 1_555 1_555
C24 N3 1_555 1_555
H13 C24 1_555 1_555
H14 C24 1_555 1_555
C28 C20 1_555 1_555
H18 C28 1_555 1_555
C53 H34 1_555 1_555
H35 C54 1_555 1_555
C53 C54 1_555 1_555
C56 H36 1_555 1_555
C56 C58 1_555 1_555
C44 C45 1_555 1_555
C45 N4 1_555 1_555
H26 C45 1_555 1_555
H27 C45 1_555 1_555
H30 C48 1_555 1_555
C44 C48 1_555 1_555
C17 H8 1_555 1_555
H9 C18 1_555 1_555
C17 C18 1_555 1_555
C22 H11 1_555 1_555
C22 C26 1_555 1_555

#END
