
###############################################################################
#
# This file contains modified crystal structure data generated from the
# MOF subset of the Cambridge Structural Database (CSD) v543 
# hosted by the Cambridge Crystallographic Data Centre (CCDC).
#
# This work is licensed under the Creative Commons
# Attribution-NonCommercial-ShareAlike 4.0 International License.
# To view a copy of this license, visit
# http://creativecommons.org/licenses/by-nc-sa/4.0/
# or send a letter to
# Creative Commons, PO Box 1866, Mountain View, CA 94042, USA.
#
# CIF created using the CSD Python API on 29 September 2022
# The structure has been converted into the P1 space group
# The structure has a 3D framework
# The original CSD entry JUPDOP is in the monoclinic crystal system
# The original CSD entry JUPDOP is in a Sohncke space group
# The framework has been calculated to contain at least 10.0% void space
# The void calculation uses a probe of radius 1.32A, grid spacing 0.4
#
###############################################################################

data_JUPDOP
_chemical_formula_moiety         '(C92 H68 Cd8 N16 O26)n'
_symmetry_cell_setting           triclinic
_symmetry_space_group_name_H-M   'P 1'
_symmetry_Int_Tables_number      1
_space_group_name_Hall           'P 1'
loop_
_symmetry_equiv_pos_site_id
_symmetry_equiv_pos_as_xyz
1 x,y,z
_cell_length_a                   11.3063(7)
_cell_length_b                   20.8442(9)
_cell_length_c                   12.2438(9)
_cell_angle_alpha                90
_cell_angle_beta                 116.542(9)
_cell_angle_gamma                90
_cell_volume                     2581.39
loop_
_atom_site_label
_atom_site_type_symbol
_atom_site_fract_x
_atom_site_fract_y
_atom_site_fract_z
H5 H 0.0003 0.1761 0.0897
C9 C 0.4135(9) 0.4488(5) 0.1880(10)
H6 H 0.4598 0.4104 0.2018
C16 C 0.0943(9) 0.2996(5) 0.0358(10)
C18 C 0.2509(9) 0.5167(5) 0.1364(11)
H13 H 0.1669 0.5344 0.1081
C19 C 0.1865(9) 0.4027(5) 0.1229(10)
C31 C 0.0894(10) 0.4113(5) 0.1613(11)
H19 H 0.0885 0.4476 0.2049
C39 C 0.3647(9) 0.5493(5) 0.1734(11)
H27 H 0.3734 0.5938 0.1775
C41 C 0.1915(9) 0.3480(5) 0.0623(10)
H28 H 0.2585 0.3427 0.0388
N5 N 0.2803(7) 0.4533(4) 0.1478(8)
N8 N 0.4673(7) 0.5056(4) 0.2046(8)
Cd12 Cd 0.66950(5) 0.53738(3) 0.22070(6)
C2 C 0.7999(9) 0.1705(5) 0.0405(11)
H1 H 0.7852 0.1272 0.0475
C7 C 0.9201(9) 0.1973(6) 0.0653(11)
C13 C 0.9925(10) 0.3636(5) 0.1325(11)
H8 H 0.9244 0.3691 0.1546
C24 C 0.9973(9) 0.3090(5) 0.0721(10)
C37 C 0.7643(9) 0.2720(5) 0.0073(10)
O2 O 0.5791(6) 0.5243(3) 0.0135(6)
N4 N 0.7050(7) 0.2173(4) 0.0040(8)
N6 N 0.8972(7) 0.2616(4) 0.0467(8)
O21 O 0.5057(6) 0.2256(3) 0.1596(6)
O22 O 0.5723(6) 0.1024(3) 0.0655(6)
Cd14 Cd 0.51151(5) 0.69639(3) 0.04194(5)
C5 C 0.2396(8) 0.5198(4) 0.7782(8)
H4 H 0.2242 0.5637 0.7672
C17 C 0.1626(8) 0.4108(4) 0.7267(8)
H12 H 0.0955 0.3821 0.6813
C20 C 0.2875(9) 0.3881(4) 0.8135(8)
C27 C 0.1417(8) 0.4770(4) 0.7102(8)
C33 C 0.3116(8) 0.3166(4) 0.8307(9)
H23 H 0.7227 0.3117 0.9863
C40 C 0.4668(9) 0.5455(4) 0.9447(8)
C44 C 0.3631(9) 0.4968(4) 0.8646(8)
C45 C 0.3842(8) 0.4316(4) 0.8807(8)
H31 H 0.4659 0.4167 0.9385
H32 H 0.0312 0.5482 0.8228
O4 O 0.1302(5) 0.0689(3) 0.7605(5)
O5 O 0.3695(5) 0.1445(3) 0.7861(6)
O6 O 0.4269(6) 0.2985(3) 0.8983(7)
O10 O 0.2133(7) 0.2816(3) 0.7751(8)
O12 O 0.4277(6) 0.6024(3) 0.9345(6)
O14 O 0.0234(6) 0.4995(3) 0.6198(5)
Cd1 Cd 0.00411(5) 0.02452(2) 0.58246(5)
Cd2 Cd 0.16474(5) 0.17537(2) 0.76389(6)
Cd3 Cd 0.33050(5) 0.03738(3) 0.77930(6)
Cd4 Cd 0.48849(5) 0.19639(3) 0.95806(5)
O17 O 0.0665(6) 0.1942(3) 0.5556(6)
O18 O 0.4209(6) 0.0243(3) 0.9865(6)
O19 O 0.2968(5) 0.1809(3) 0.9815(6)
O20 O 0.1942(6) 0.0389(4) 0.5622(6)
N10 N 0.5327(7) 0.0056(4) 0.7954(8)
O3 O 0.7032(5) 0.6809(3) 0.0185(6)
Cd9 Cd 0.83526(5) 0.67537(2) 0.23611(6)
C1 C 0.1484(7) 0.7219(4) 0.5965(8)
C3 C 0.3330(8) 0.8065(4) 0.7605(8)
H2 H 0.3943 0.8342 0.8170
C4 C 0.2767(7) 0.7006(4) 0.6737(8)
H3 H 0.3007 0.6582 0.6708
C6 C 0.0492(8) 0.6754(4) 0.5088(8)
C10 C 0.3667(8) 0.7433(4) 0.7538(8)
C11 C 0.1764(8) 0.8992(4) 0.6870(9)
C12 C 0.1137(8) 0.7858(4) 0.5999(9)
H7 H 0.0291 0.8002 0.5480
C22 C 0.2074(8) 0.8283(4) 0.6824(8)
C23 C 0.5669(9) 0.6823(5) 0.8009(9)
H14 H 0.5149 0.6430 0.7697
C29 C 0.6950(8) 0.6655(4) 0.9155(8)
C38 C 0.5951(11) 0.7105(9) 0.7023(10)
H24 H 0.5132 0.7200 0.6323
H25 H 0.6448 0.6804 0.6800
H26 H 0.6452 0.7493 0.7316
O7 O 0.2704(8) 0.9319(4) 0.7596(8)
O8 O 0.0612(7) 0.9174(3) 0.6195(7)
O11 O 0.4943(6) 0.7256(3) 0.8404(6)
O13 O 0.0935(7) 0.6206(3) 0.5045(7)
O16 O 0.7795(7) 0.6362(5) 0.8977(7)
C8 C 0.7965(9) 0.5338(5) 0.5348(8)
C26 C 0.9154(9) 0.5109(6) 0.6487(9)
H16 H 0.8932 0.4710 0.6779
C35 C 0.5907(12) 0.0065(7) 0.5104(16)
H21 H 0.5115 0.0239 0.5024
C36 C 0.7053(10) 0.0386(6) 0.5420(14)
H22 H 0.7186 0.0821 0.5596
C46 C 0.9570(13) 0.5633(11) 0.7506(13)
H33 H 0.8843 0.5720 0.7688
H34 H 0.9811 0.6019 0.7226
O9 O 0.8058(6) 0.5389(4) 0.4378(6)
O15 O 0.6982(7) 0.5492(5) 0.5494(7)
O23 O 0.9065(7) 0.1206(3) 0.4955(7)
N9 N 0.9664(7) 0.2029(4) 0.7593(8)
Cd6 Cd 0.99589(5) 0.52452(2) 0.41754(5)
C14 C 0.7395(8) 0.9408(5) 0.5151(10)
H9 H 0.7806 0.9029 0.5107
C15 C 0.4197(10) 0.8051(6) 0.3183(11)
H10 H 0.4196 0.7762 0.2604
C21 C 0.5146(9) 0.8957(5) 0.4472(10)
C25 C 0.1251(9) 0.6622(6) 0.2398(13)
H15 H 0.1083 0.6199 0.2130
C28 C 0.3216(9) 0.8440(6) 0.4434(10)
H17 H 0.2572 0.8407 0.4707
C30 C 0.2454(10) 0.6909(6) 0.2829(14)
H18 H 0.3244 0.6727 0.2920
C32 C 0.3226(9) 0.8011(5) 0.3567(10)
C34 C 0.5168(11) 0.8510(7) 0.3639(12)
H20 H 0.5836 0.8521 0.3392
C42 C 0.4176(11) 0.8921(6) 0.4894(12)
H29 H 0.4173 0.9212 0.5469
C43 C 0.0966(9) 0.7580(5) 0.2816(11)
H30 H 0.0567 0.7956 0.2895
O1 O 0.9335(6) 0.6942(3) 0.4444(6)
N1 N 0.7976(7) 0.9964(4) 0.5437(8)
N2 N 0.0336(7) 0.7029(4) 0.2407(8)
N3 N 0.2248(7) 0.7525(4) 0.3102(8)
N7 N 0.6119(8) 0.9454(5) 0.4927(9)
O24 O 0.9766(6) 0.9995(3) 0.3802(5)
C8_2 C 0.2035(9) 0.0338(5) 0.4652(8)
C26_2 C 0.0846(9) 0.0109(6) 0.3513(9)
C46_2 C 0.0430(13) 0.0633(11) 0.2494(13)
H33_2 H 0.1157 0.0720 0.2312
H34_2 H 0.0189 0.1019 0.2774
O15_2 O 0.3018(7) 0.0492(5) 0.4506(7)
C14_2 C 0.2605(8) 0.4408(5) 0.4849(10)
H9_2 H 0.2194 0.4029 0.4893
C15_2 C 0.5803(10) 0.3051(6) 0.6817(11)
H10_2 H 0.5804 0.2762 0.7396
C21_2 C 0.4854(9) 0.3957(5) 0.5528(10)
C25_2 C 0.8749(9) 0.1622(6) 0.7602(13)
H15_2 H 0.8917 0.1199 0.7870
H16_2 H 0.1068 0.9710 0.3221
C28_2 C 0.6784(9) 0.3440(6) 0.5566(10)
H17_2 H 0.7428 0.3407 0.5293
C30_2 C 0.7546(10) 0.1909(6) 0.7171(14)
H18_2 H 0.6756 0.1727 0.7080
C32_2 C 0.6774(9) 0.3011(5) 0.6433(10)
C34_2 C 0.4832(11) 0.3510(7) 0.6361(12)
H20_2 H 0.4164 0.3521 0.6608
C35_2 C 0.4093(12) 0.5065(7) 0.4896(16)
H21_2 H 0.4885 0.5239 0.4976
C36_2 C 0.2947(10) 0.5386(6) 0.4580(14)
H22_2 H 0.2814 0.5821 0.4404
C42_2 C 0.5824(11) 0.3921(6) 0.5106(12)
H29_2 H 0.5827 0.4212 0.4531
C43_2 C 0.9034(9) 0.2580(5) 0.7184(11)
H30_2 H 0.9433 0.2956 0.7105
N1_2 N 0.2024(7) 0.4964(4) 0.4563(8)
N3_2 N 0.7752(7) 0.2525(4) 0.6898(8)
N7_2 N 0.3881(8) 0.4454(5) 0.5073(9)
C5_2 C 0.7604(8) 0.0198(4) 0.2218(8)
H4_2 H 0.7758 0.0637 0.2328
C40_2 C 0.5332(9) 0.0455(4) 0.0553(8)
H32_2 H 0.9688 0.0482 0.1772
C1_2 C 0.8516(7) 0.2219(4) 0.4035(8)
C3_2 C 0.6670(8) 0.3065(4) 0.2395(8)
H2_2 H 0.6057 0.3342 0.1830
C4_2 C 0.7233(7) 0.2006(4) 0.3263(8)
H3_2 H 0.6993 0.1582 0.3292
C6_2 C 0.9508(8) 0.1754(4) 0.4912(8)
C10_2 C 0.6333(8) 0.2433(4) 0.2462(8)
C11_2 C 0.8236(8) 0.3992(4) 0.3130(9)
C12_2 C 0.8863(8) 0.2858(4) 0.4001(9)
H7_2 H 0.9709 0.3002 0.4520
C17_2 C 0.8374(8) 0.9108(4) 0.2733(8)
H12_2 H 0.9045 0.8821 0.3187
C20_2 C 0.7125(9) 0.8881(4) 0.1865(8)
C22_2 C 0.7926(8) 0.3283(4) 0.3176(8)
C23_2 C 0.4331(9) 0.1823(5) 0.1991(9)
H14_2 H 0.4851 0.1430 0.2303
C27_2 C 0.8583(8) 0.9770(4) 0.2898(8)
C29_2 C 0.3050(8) 0.1655(4) 0.0845(8)
C33_2 C 0.6884(8) 0.8166(4) 0.1693(9)
H23_2 H 0.2773 0.8117 0.0137
C38_2 C 0.4049(11) 0.2105(9) 0.2977(10)
H24_2 H 0.4868 0.2200 0.3677
H25_2 H 0.3552 0.1804 0.3200
H26_2 H 0.3548 0.2493 0.2684
C44_2 C 0.6369(9) 0.9968(4) 0.1354(8)
C45_2 C 0.6158(8) 0.9316(4) 0.1193(8)
H31_2 H 0.5341 0.9167 0.0615
O4_2 O 0.8698(5) 0.5689(3) 0.2395(5)
O5_2 O 0.6305(5) 0.6445(3) 0.2139(6)
O6_2 O 0.5731(6) 0.7985(3) 0.1017(7)
O7_2 O 0.7296(8) 0.4319(4) 0.2404(8)
O8_2 O 0.9388(7) 0.4174(3) 0.3805(7)
O10_2 O 0.7867(7) 0.7816(3) 0.2249(8)
O16_2 O 0.2205(7) 0.1362(5) 0.1023(7)
C2_2 C 0.2001(9) 0.6705(5) 0.9595(11)
H1_2 H 0.2148 0.6272 0.9525
C7_2 C 0.0799(9) 0.6973(6) 0.9347(11)
C13_2 C 0.0075(10) 0.8636(5) 0.8675(11)
H8_2 H 0.0756 0.8691 0.8454
C24_2 C 0.0027(9) 0.8090(5) 0.9279(10)
C37_2 C 0.2357(9) 0.7720(5) 0.9927(10)
N4_2 N 0.2950(7) 0.7173(4) 0.9960(8)
N6_2 N 0.1028(7) 0.7616(4) 0.9533(8)
C18_2 C 0.7491(9) 0.0167(5) 0.8636(11)
H13_2 H 0.8331 0.0344 0.8919
C39_2 C 0.6353(9) 0.0493(5) 0.8266(11)
H27_2 H 0.6266 0.0938 0.8225
H11 H 0.0964 0.2624 0.9947
H11_2 H 0.9036 0.7624 0.0053
H5_2 H 0.9997 0.6761 0.9103
C9_2 C 0.5865(9) 0.9488(5) 0.8120(10)
H6_2 H 0.5402 0.9104 0.7982
C16_2 C 0.9057(9) 0.7996(5) 0.9642(10)
C19_2 C 0.8135(9) 0.9027(5) 0.8771(10)
C31_2 C 0.9106(10) 0.9113(5) 0.8387(11)
H19_2 H 0.9115 0.9476 0.7951
C41_2 C 0.8085(9) 0.8480(5) 0.9377(10)
H28_2 H 0.7415 0.8427 0.9612
N5_2 N 0.7197(7) 0.9533(4) 0.8522(8)
loop_
_geom_bond_atom_site_label_1
_geom_bond_atom_site_label_2
_geom_bond_site_symmetry_1
_geom_bond_site_symmetry_2
C9 H6 1_555 1_555
C18 H13 1_555 1_555
C19 C31 1_555 1_555
H19 C31 1_555 1_555
C39 C18 1_555 1_555
H27 C39 1_555 1_555
C41 C16 1_555 1_555
H28 C41 1_555 1_555
N5 C9 1_555 1_555
N8 C9 1_555 1_555
Cd12 N8 1_555 1_555
C18 N5 1_555 1_555
C19 C41 1_555 1_555
C19 N5 1_555 1_555
C39 N8 1_555 1_555
C2 H1 1_555 1_555
C7 C2 1_555 1_555
C13 H8 1_555 1_555
C24 C13 1_555 1_555
N4 C2 1_555 1_555
N6 C7 1_555 1_555
Cd12 O2 1_555 1_555
C24 N6 1_555 1_555
C37 N4 1_555 1_555
C37 N6 1_555 1_555
C5 H4 1_555 1_555
C17 H12 1_555 1_555
C20 C17 1_555 1_555
C27 C5 1_555 1_555
C33 C20 1_555 1_555
C40 C44 1_555 1_555
C44 C5 1_555 1_555
C45 C20 1_555 1_555
H31 C45 1_555 1_555
O4 Cd1 1_555 1_555
O5 Cd2 1_555 1_555
O6 C33 1_555 1_555
O10 C33 1_555 1_555
O12 C40 1_555 1_555
Cd2 O4 1_555 1_555
Cd3 O4 1_555 1_555
Cd4 O5 1_555 1_555
O17 Cd2 1_555 1_555
O18 Cd3 1_555 1_555
O19 Cd2 1_555 1_555
O20 Cd1 1_555 1_555
N10 Cd3 1_555 1_555
C17 C27 1_555 1_555
C27 O14 1_555 1_555
C44 C45 1_555 1_555
O5 Cd3 1_555 1_555
O6 Cd4 1_555 1_555
O10 Cd2 1_555 1_555
Cd3 O20 1_555 1_555
Cd4 O19 1_555 1_555
Cd9 O3 1_555 1_555
Cd14 O3 1_555 1_555
C1 C4 1_555 1_555
C3 H2 1_555 1_555
C4 H3 1_555 1_555
C6 C1 1_555 1_555
C10 C3 1_555 1_555
C11 C22 1_555 1_555
C12 C1 1_555 1_555
H7 C12 1_555 1_555
C22 C3 1_555 1_555
C23 H14 1_555 1_555
C29 C23 1_555 1_555
C38 C23 1_555 1_555
H24 C38 1_555 1_555
H25 C38 1_555 1_555
H26 C38 1_555 1_555
O7 C11 1_555 1_555
O8 C11 1_555 1_555
O11 C10 1_555 1_555
O13 C6 1_555 1_555
O16 C29 1_555 1_555
C4 C10 1_555 1_555
C12 C22 1_555 1_555
C23 O11 1_555 1_555
C8 C26 1_555 1_555
C26 H16 1_555 1_555
C35 H21 1_555 1_555
C36 C35 1_555 1_555
H22 C36 1_555 1_555
C46 C26 1_555 1_555
H33 C46 1_555 1_555
H34 C46 1_555 1_555
O9 C8 1_555 1_555
O15 C8 1_555 1_555
Cd6 O9 1_555 1_555
Cd12 O9 1_555 1_555
C14 H9 1_555 1_555
C15 H10 1_555 1_555
C21 C34 1_555 1_555
C25 H15 1_555 1_555
C28 H17 1_555 1_555
C30 C25 1_555 1_555
H18 C30 1_555 1_555
C32 C15 1_555 1_555
C34 C15 1_555 1_555
H20 C34 1_555 1_555
C42 C21 1_555 1_555
H29 C42 1_555 1_555
C43 H30 1_555 1_555
N1 C14 1_555 1_555
N2 C25 1_555 1_555
N3 C30 1_555 1_555
N7 C14 1_555 1_555
Cd9 O1 1_555 1_555
C21 N7 1_555 1_555
C28 C32 1_555 1_555
C28 C42 1_555 1_555
C32 N3 1_555 1_555
C43 N2 1_555 1_555
C43 N3 1_555 1_555
C8_2 C26_2 1_555 1_555
C46_2 C26_2 1_555 1_555
H33_2 C46_2 1_555 1_555
H34_2 C46_2 1_555 1_555
O20 C8_2 1_555 1_555
O15_2 C8_2 1_555 1_555
C14_2 H9_2 1_555 1_555
C15_2 H10_2 1_555 1_555
C21_2 C34_2 1_555 1_555
C25_2 H15_2 1_555 1_555
C28_2 H17_2 1_555 1_555
C30_2 C25_2 1_555 1_555
H18_2 C30_2 1_555 1_555
C32_2 C15_2 1_555 1_555
C34_2 C15_2 1_555 1_555
H20_2 C34_2 1_555 1_555
C35_2 H21_2 1_555 1_555
C36_2 C35_2 1_555 1_555
H22_2 C36_2 1_555 1_555
C42_2 C21_2 1_555 1_555
H29_2 C42_2 1_555 1_555
C43_2 H30_2 1_555 1_555
N1_2 C14_2 1_555 1_555
N9 C25_2 1_555 1_555
N3_2 C30_2 1_555 1_555
N7_2 C14_2 1_555 1_555
C21_2 N7_2 1_555 1_555
C28_2 C32_2 1_555 1_555
C28_2 C42_2 1_555 1_555
C32_2 N3_2 1_555 1_555
C35_2 N7_2 1_555 1_555
C36_2 N1_2 1_555 1_555
C43_2 N9 1_555 1_555
C43_2 N3_2 1_555 1_555
C5_2 H4_2 1_555 1_555
O22 C40_2 1_555 1_555
C1_2 C4_2 1_555 1_555
C3_2 H2_2 1_555 1_555
C4_2 H3_2 1_555 1_555
C6_2 C1_2 1_555 1_555
C10_2 C3_2 1_555 1_555
C11_2 C22_2 1_555 1_555
C12_2 C1_2 1_555 1_555
H7_2 C12_2 1_555 1_555
C17_2 H12_2 1_555 1_555
C20_2 C17_2 1_555 1_555
C22_2 C3_2 1_555 1_555
C23_2 H14_2 1_555 1_555
C29_2 C23_2 1_555 1_555
C33_2 C20_2 1_555 1_555
C38_2 C23_2 1_555 1_555
H24_2 C38_2 1_555 1_555
H25_2 C38_2 1_555 1_555
H26_2 C38_2 1_555 1_555
C45_2 C20_2 1_555 1_555
H31_2 C45_2 1_555 1_555
O4_2 Cd6 1_555 1_555
O5_2 Cd9 1_555 1_555
O6_2 C33_2 1_555 1_555
O7_2 C11_2 1_555 1_555
O8_2 C11_2 1_555 1_555
O10_2 C33_2 1_555 1_555
O21 C10_2 1_555 1_555
O23 C6_2 1_555 1_555
O16_2 C29_2 1_555 1_555
Cd6 O8_2 1_555 1_555
Cd9 O4_2 1_555 1_555
Cd12 O4_2 1_555 1_555
Cd14 O5_2 1_555 1_555
C4_2 C10_2 1_555 1_555
C12_2 C22_2 1_555 1_555
C17_2 C27_2 1_555 1_555
C23_2 O21 1_555 1_555
C27_2 O24 1_555 1_555
C44_2 C45_2 1_555 1_555
O5_2 Cd12 1_555 1_555
O6_2 Cd14 1_555 1_555
O7_2 Cd12 1_555 1_555
O10_2 Cd9 1_555 1_555
C2_2 H1_2 1_555 1_555
C7_2 C2_2 1_555 1_555
C13_2 H8_2 1_555 1_555
C24_2 C13_2 1_555 1_555
N4_2 C2_2 1_555 1_555
N6_2 C7_2 1_555 1_555
C24_2 N6_2 1_555 1_555
C37_2 N4_2 1_555 1_555
C37_2 N6_2 1_555 1_555
C18_2 H13_2 1_555 1_555
C39_2 C18_2 1_555 1_555
H27_2 C39_2 1_555 1_555
C39_2 N10 1_555 1_555
C9_2 H6_2 1_555 1_555
C19_2 C31_2 1_555 1_555
H19_2 C31_2 1_555 1_555
C41_2 C16_2 1_555 1_555
H28_2 C41_2 1_555 1_555
N5_2 C9_2 1_555 1_555
C19_2 C41_2 1_555 1_555
C19_2 N5_2 1_555 1_555

#END
