
###############################################################################
#
# This file contains modified crystal structure data generated from the
# MOF subset of the Cambridge Structural Database (CSD) v543 
# hosted by the Cambridge Crystallographic Data Centre (CCDC).
#
# This work is licensed under the Creative Commons
# Attribution-NonCommercial-ShareAlike 4.0 International License.
# To view a copy of this license, visit
# http://creativecommons.org/licenses/by-nc-sa/4.0/
# or send a letter to
# Creative Commons, PO Box 1866, Mountain View, CA 94042, USA.
#
# CIF created using the CSD Python API on 29 September 2022
# The structure has been converted into the P1 space group
# The structure has a 3D framework
# The original CSD entry JUQTUM is in the cubic crystal system
# The original CSD entry JUQTUM is in a Sohncke space group
# The framework has been calculated to contain at least 10.0% void space
# The void calculation uses a probe of radius 1.32A, grid spacing 0.4
#
###############################################################################

data_JUQTUM
_chemical_formula_moiety         '(C96 H60 Co24 N62 O43)n'
_symmetry_cell_setting           triclinic
_symmetry_space_group_name_H-M   'P 1'
_symmetry_Int_Tables_number      1
_space_group_name_Hall           'P 1'
loop_
_symmetry_equiv_pos_site_id
_symmetry_equiv_pos_as_xyz
1 x,y,z
_cell_length_a                   17.4882(2)
_cell_length_b                   17.4882(2)
_cell_length_c                   17.4882(2)
_cell_angle_alpha                90
_cell_angle_beta                 90
_cell_angle_gamma                90
_cell_volume                     5348.54
loop_
_atom_site_label
_atom_site_type_symbol
_atom_site_fract_x
_atom_site_fract_y
_atom_site_fract_z
Co10 Co 0.01139(3) 0.35544(3) 0.87906(3)
Co16 Co 0.03653(3) 0.53653(3) 0.96347(3)
N5 N 0.5000(5) 0.5000(5) 0.0000(5)
H5 H 0.5159 0.4968 0.0490
C19 C 0.5362(3) 0.2993(3) 0.0356(3)
N14 N 0.5392(2) 0.2247(2) 0.0429(2)
H14 H 0.5189 0.3324 0.0759
Co15 Co 0.51139(3) 0.14456(3) 0.12094(3)
N15 N 0.7886(2) 0.7125(2) 0.0154(2)
O15 O 0.9006(2) 0.6031(2) 0.09136(19)
N16 N 0.4846(2) 0.2114(2) 0.2125(2)
O18 O 0.40864(19) 0.0994(2) 0.1031(2)
O19 O 0.5967(2) 0.0939(2) 0.1792(2)
O20 O 0.55538(19) 0.07727(17) 0.01884(19)
Co1 Co 0.64456(3) 0.37906(3) 0.48861(3)
O1 O 0.5994(2) 0.3969(2) 0.59136(19)
O2 O 0.57727(17) 0.48116(19) 0.44462(19)
C1 C 0.5383(3) 0.4243(3) 0.6168(3)
Co2 Co 0.46347(3) 0.46347(3) 0.46347(3)
C2 C 0.5270(3) 0.4322(3) 0.6986(3)
O3 O 0.34890(19) 0.42864(19) 0.4716(2)
C3 C 0.5720(3) 0.4196(3) 0.7626(3)
N1 N 0.4571(2) 0.4608(2) 0.7247(2)
Co3 Co 0.36115(4) 0.36115(4) 0.36115(4)
C4 C 0.3189(3) 0.3869(3) 0.5250(3)
N2 N 0.4252(2) 0.2892(2) 0.2930(2)
O4 O 0.3208(2) 0.4033(2) 0.5939(2)
N3 N 0.2875(2) 0.5154(2) 0.7114(2)
H1 H 0.6230 0.3992 0.7627
N4 N 0.5311(2) 0.4411(3) 0.8253(2)
C5 C 0.4644(3) 0.4638(3) 0.7993(3)
C6 C 0.2797(3) 0.3178(3) 0.4999(3)
C7 C 0.2690(3) 0.5797(3) 0.7482(3)
C8 C 0.2321(3) 0.4654(3) 0.7322(3)
Co4 Co 0.56432(4) 0.43568(4) 0.93568(4)
H2 H 0.4241 0.4811 0.8324
H3 H 0.2989 0.6256 0.7448
H4 H 0.2289 0.4132 0.7156
N5_2 N 0.5000(5) 0.5000(5) 1.0000(5)
O5 O 0.48116(19) 0.44462(19) 0.57727(17)
O6 O 0.4716(2) 0.34890(19) 0.42864(19)
O7 O 0.44462(19) 0.57727(17) 0.48116(19)
O8 O 0.42864(19) 0.4716(2) 0.34890(19)
Co5 Co 0.37906(3) 0.48861(3) 0.64456(3)
Co6 Co 0.48861(3) 0.64456(3) 0.37906(3)
C9 C 0.3869(3) 0.5250(3) 0.3189(3)
O9 O 0.3969(2) 0.59136(19) 0.5994(2)
N6 N 0.2892(2) 0.2930(2) 0.4252(2)
N7 N 0.2930(2) 0.4252(2) 0.2892(2)
O10 O 0.4033(2) 0.5939(2) 0.3208(2)
C10 C 0.3178(3) 0.4999(3) 0.2797(3)
C11 C 0.2482(3) 0.2310(3) 0.4203(3)
C12 C 0.2310(3) 0.4203(3) 0.2482(3)
C13 C 0.2322(3) 0.2679(3) 0.5346(3)
C14 C 0.2679(3) 0.5346(3) 0.2322(3)
N8 N 0.2070(2) 0.5748(2) 0.7892(2)
C15 C 0.1822(3) 0.5001(3) 0.7797(3)
N9 N 0.6747(2) 0.4689(2) 0.9411(3)
N10 N 0.5589(3) 0.3253(2) 0.9689(2)
N11 N 0.2114(2) 0.2125(2) 0.4846(2)
H6 H 0.2448 0.2011 0.3744
N12 N 0.2125(2) 0.4846(2) 0.2114(2)
H7 H 0.2011 0.3744 0.2448
H8 H 0.2156 0.2711 0.5868
H9 H 0.2711 0.5868 0.2156
Co7 Co 0.13885(4) 0.63885(4) 0.86115(4)
C16 C 0.1131(3) 0.4750(3) 0.8189(3)
H10 H 0.4510 0.4841 0.9968
H11 H 0.5032 0.5490 0.9841
C17 C 0.7007(3) 0.5356(3) 0.9638(3)
C18 C 0.7374(3) 0.4280(3) 0.9196(3)
C20 C 0.5804(3) 0.2626(3) 0.9280(3)
Co8 Co 0.14456(3) 0.12094(3) 0.51139(3)
Co9 Co 0.12094(3) 0.51139(3) 0.14456(3)
O11 O 0.07136(19) 0.5284(2) 0.84890(19)
O12 O 0.0967(2) 0.4061(2) 0.8208(2)
N13 N 0.7753(2) 0.5429(2) 0.9608(2)
H12 H 0.6676 0.5759 0.9811
H13 H 0.7373 0.3770 0.8992
C21 C 0.8014(3) 0.4730(3) 0.9322(3)
H15 H 0.6008 0.2627 0.8770
C22 C 0.5678(3) 0.1986(3) 0.9730(3)
O13 O 0.90864(19) 0.4006(2) 0.8969(2)
O14 O 0.6031(2) 0.09136(19) 0.9006(2)
Co14 Co 0.85544(3) 0.62094(3) 0.98861(3)
C23 C 0.8832(3) 0.4617(3) 0.9243(3)
C24 C 0.5757(3) 0.1168(3) 0.9617(3)
O16 O 0.9061(2) 0.6792(2) 0.9033(2)
O17 O 0.92273(17) 0.51884(19) 0.94462(19)
Co17 Co 0.53653(3) 0.96347(3) 0.03653(3)
Co11 Co 0.62094(3) 0.98861(3) 0.85544(3)
N1_2 N 0.0429(2) 0.5392(2) 0.2247(2)
C4_2 C 0.1811(3) 0.6131(3) 0.0250(3)
O4_2 O 0.1792(2) 0.5967(2) 0.0939(2)
C5_2 C 0.0356(3) 0.5362(3) 0.2993(3)
H2_2 H 0.0759 0.5189 0.3324
N5_3 N 0.0000(5) 0.5000(5) 0.5000(5)
O5_2 O 0.01884(19) 0.55538(19) 0.07727(17)
O9_2 O 0.1031(2) 0.40864(19) 0.0994(2)
C13_2 C 0.2678(3) 0.7321(3) 0.0346(3)
H8_2 H 0.2844 0.7289 0.0868
H10_2 H 0.0490 0.5159 0.4968
Co8_2 Co 0.35544(3) 0.87906(3) 0.01139(3)
N16_2 N 0.0154(2) 0.7886(2) 0.7125(2)
O18_2 O 0.09136(19) 0.9006(2) 0.6031(2)
O3_2 O 0.15110(19) 0.57136(19) 0.9716(2)
N2_2 N 0.0748(2) 0.7108(2) 0.7930(2)
C6_2 C 0.2203(3) 0.6822(3) 0.9999(3)
O6_2 O 0.0284(2) 0.65110(19) 0.92864(19)
O7_2 O 0.05538(19) 0.42273(17) 0.98116(19)
N6_2 N 0.2108(2) 0.7070(2) 0.9252(2)
C11_2 C 0.2518(3) 0.7690(3) 0.9203(3)
N11_2 N 0.2886(2) 0.7875(2) 0.9846(2)
H6_2 H 0.2552 0.7989 0.8744
Co11_2 Co 0.87906(3) 0.01139(3) 0.35544(3)
Co17_2 Co 0.96347(3) 0.03653(3) 0.53653(3)
C1_2 C 0.9617(3) 0.5757(3) 0.1168(3)
C2_2 C 0.9730(3) 0.5678(3) 0.1986(3)
C3_2 C 0.9280(3) 0.5804(3) 0.2626(3)
H1_2 H 0.8770 0.6008 0.2627
N4_2 N 0.9689(2) 0.5589(3) 0.3253(2)
Co4_2 Co 0.93568(4) 0.56432(4) 0.43568(4)
N5_4 N 1.0000(5) 0.5000(5) 0.5000(5)
H5_2 H 0.9841 0.5032 0.5490
N9_2 N 0.8253(2) 0.5311(2) 0.4411(3)
N10_2 N 0.9411(3) 0.6747(2) 0.4689(2)
H11_2 H 0.9968 0.4510 0.4841
C17_2 C 0.7993(3) 0.4644(3) 0.4638(3)
C18_2 C 0.7626(3) 0.5720(3) 0.4196(3)
C19_2 C 0.9638(3) 0.7007(3) 0.5356(3)
C20_2 C 0.9196(3) 0.7374(3) 0.4280(3)
N13_2 N 0.7247(2) 0.4571(2) 0.4608(2)
H12_2 H 0.8324 0.4241 0.4811
H13_2 H 0.7627 0.6230 0.3992
C21_2 C 0.6986(3) 0.5270(3) 0.4322(3)
N14_2 N 0.9608(2) 0.7753(2) 0.5429(2)
H14_2 H 0.9811 0.6676 0.5759
H15_2 H 0.8992 0.7373 0.3770
C22_2 C 0.9322(3) 0.8014(3) 0.4730(3)
O13_2 O 0.59136(19) 0.5994(2) 0.3969(2)
O14_2 O 0.8969(2) 0.90864(19) 0.4006(2)
C23_2 C 0.6168(3) 0.5383(3) 0.4243(3)
Co15_2 Co 0.98861(3) 0.85544(3) 0.62094(3)
C24_2 C 0.9243(3) 0.8832(3) 0.4617(3)
N15_2 N 0.7114(2) 0.2875(2) 0.5154(2)
O16_2 O 0.5939(2) 0.3208(2) 0.4033(2)
O19_2 O 0.9033(2) 0.9061(2) 0.6792(2)
O20_2 O 0.94462(19) 0.92273(17) 0.51884(19)
C9_2 C 0.6131(3) 0.0250(3) 0.1811(3)
C14_2 C 0.7321(3) 0.0346(3) 0.2678(3)
H9_2 H 0.7289 0.0868 0.2844
N3_2 N 0.7125(2) 0.0154(2) 0.7886(2)
C7_2 C 0.7310(3) 0.0797(3) 0.7518(3)
H3_2 H 0.7011 0.1256 0.7552
N5_5 N 0.5000(5) 0.0000(5) 0.5000(5)
N8_2 N 0.7930(2) 0.0748(2) 0.7108(2)
C15_2 C 0.8178(3) 0.0001(3) 0.7203(3)
Co7_2 Co 0.86115(4) 0.13885(4) 0.63885(4)
H11_3 H 0.4968 0.0490 0.5159
C17_3 C 0.2993(3) 0.0356(3) 0.5362(3)
O11_2 O 0.92864(19) 0.0284(2) 0.65110(19)
N13_3 N 0.2247(2) 0.0429(2) 0.5392(2)
H12_3 H 0.3324 0.0759 0.5189
O15_2 O 0.0994(2) 0.1031(2) 0.40864(19)
O16_3 O 0.0939(2) 0.1792(2) 0.5967(2)
O17_2 O 0.07727(17) 0.01884(19) 0.55538(19)
O2_2 O 0.42273(17) 0.98116(19) 0.05538(19)
O3_3 O 0.65110(19) 0.92864(19) 0.0284(2)
Co3_2 Co 0.63885(4) 0.86115(4) 0.13885(4)
N2_3 N 0.5748(2) 0.7892(2) 0.2070(2)
C6_3 C 0.7203(3) 0.8178(3) 0.0001(3)
O6_3 O 0.5284(2) 0.84890(19) 0.07136(19)
O8_2 O 0.57136(19) 0.9716(2) 0.15110(19)
N6_3 N 0.7108(2) 0.7930(2) 0.0748(2)
N7_2 N 0.7070(2) 0.9252(2) 0.2108(2)
C10_2 C 0.6822(3) 0.9999(3) 0.2203(3)
C11_3 C 0.7518(3) 0.7310(3) 0.0797(3)
C12_2 C 0.7690(3) 0.9203(3) 0.2518(3)
H6_3 H 0.7552 0.7011 0.1256
N12_2 N 0.7875(2) 0.9846(2) 0.2886(2)
H7_2 H 0.7989 0.8744 0.2552
O1_2 O 0.4006(2) 0.8969(2) 0.90864(19)
C1_3 C 0.4617(3) 0.9243(3) 0.8832(3)
C2_3 C 0.4730(3) 0.9322(3) 0.8014(3)
C3_3 C 0.4280(3) 0.9196(3) 0.7374(3)
N1_3 N 0.5429(2) 0.9608(2) 0.7753(2)
C4_3 C 0.6811(3) 0.8869(3) 0.9750(3)
O4_3 O 0.6792(2) 0.9033(2) 0.9061(2)
H1_3 H 0.3770 0.8992 0.7373
N4_3 N 0.4689(2) 0.9411(3) 0.6747(2)
C5_3 C 0.5356(3) 0.9638(3) 0.7007(3)
C8_2 C 0.7679(3) 0.9654(3) 0.7678(3)
Co4_3 Co 0.43568(4) 0.93568(4) 0.56432(4)
H2_3 H 0.5759 0.9811 0.6676
H4_2 H 0.7711 0.9132 0.7844
N5_6 N 0.5000(5) 1.0000(5) 0.5000(5)
H5_3 H 0.4841 0.9968 0.4510
O5_3 O 0.51884(19) 0.94462(19) 0.92273(17)
C13_3 C 0.7678(3) 0.7679(3) 0.9654(3)
N9_3 N 0.3253(2) 0.9689(2) 0.5589(3)
N10_3 N 0.4411(3) 0.8253(2) 0.5311(2)
H8_3 H 0.7844 0.7711 0.9132
C16_2 C 0.8869(3) 0.9750(3) 0.6811(3)
H10_3 H 0.5490 0.9841 0.5032
C18_3 C 0.2626(3) 0.9280(3) 0.5804(3)
C19_3 C 0.4638(3) 0.7993(3) 0.4644(3)
C20_3 C 0.4196(3) 0.7626(3) 0.5720(3)
H13_3 H 0.2627 0.8770 0.6008
C21_3 C 0.1986(3) 0.9730(3) 0.5678(3)
N14_3 N 0.4608(2) 0.7247(2) 0.4571(2)
H14_3 H 0.4811 0.8324 0.4241
H15_3 H 0.3992 0.7627 0.6230
C22_3 C 0.4322(3) 0.6986(3) 0.5270(3)
C23_3 C 0.1168(3) 0.9617(3) 0.5757(3)
C24_3 C 0.4243(3) 0.6168(3) 0.5383(3)
N16_3 N 0.5154(2) 0.7114(2) 0.2875(2)
C1_4 C 0.0383(3) 0.0757(3) 0.3832(3)
C2_4 C 0.0270(3) 0.0678(3) 0.3014(3)
C3_4 C 0.0720(3) 0.0804(3) 0.2374(3)
H1_4 H 0.1230 0.1008 0.2373
N4_4 N 0.0311(2) 0.0589(3) 0.1747(2)
Co4_4 Co 0.06432(4) 0.06432(4) 0.06432(4)
N5_7 N -0.0000(5) 0.0000(5) 0.0000(5)
N9_4 N 0.1747(2) 0.0311(2) 0.0589(3)
N10_4 N 0.0589(3) 0.1747(2) 0.0311(2)
C18_4 C 0.2374(3) 0.0720(3) 0.0804(3)
C20_4 C 0.0804(3) 0.2374(3) 0.0720(3)
H13_4 H 0.2373 0.1230 0.1008
C21_4 C 0.3014(3) 0.0270(3) 0.0678(3)
H15_4 H 0.1008 0.2373 0.1230
C22_4 C 0.0678(3) 0.3014(3) 0.0270(3)
C23_4 C 0.3832(3) 0.0383(3) 0.0757(3)
C24_4 C 0.0757(3) 0.3832(3) 0.0383(3)
N5_8 N -0.0000(5) 0.0000(5) 1.0000(5)
H5_4 H 0.0159 0.0032 0.9510
C19_4 C 0.0362(3) 0.2007(3) 0.9644(3)
N14_4 N 0.0392(2) 0.2753(2) 0.9571(2)
H14_4 H 0.0189 0.1676 0.9241
N5_9 N -0.0000(5) 1.0000(5) 0.0000(5)
H11_4 H 0.0032 0.9510 0.0159
C17_4 C 0.2007(3) 0.9644(3) 0.0362(3)
N13_4 N 0.2753(2) 0.9571(2) 0.0392(2)
H12_4 H 0.1676 0.9241 0.0189
O16_4 O 0.4061(2) 0.8208(2) 0.0967(2)
N5_10 N -0.0000(5) 1.0000(5) 1.0000(5)
O3_4 O 0.84890(19) 0.07136(19) 0.5284(2)
N1_4 N 0.9571(2) 0.0392(2) 0.2753(2)
C4_4 C 0.8189(3) 0.1131(3) 0.4750(3)
N2_4 N 0.9252(2) 0.2108(2) 0.7070(2)
O4_4 O 0.8208(2) 0.0967(2) 0.4061(2)
C5_4 C 0.9644(3) 0.0362(3) 0.2007(3)
C6_4 C 0.7797(3) 0.1822(3) 0.5001(3)
H2_4 H 0.9241 0.0189 0.1676
N5_11 N 1.0000(5) 0.0000(5) 0.0000(5)
O5_4 O 0.98116(19) 0.05538(19) 0.42273(17)
O6_4 O 0.9716(2) 0.15110(19) 0.57136(19)
N6_4 N 0.7892(2) 0.2070(2) 0.5748(2)
C11_4 C 0.7482(3) 0.2690(3) 0.5797(3)
C13_4 C 0.7322(3) 0.2321(3) 0.4654(3)
H6_4 H 0.7448 0.2989 0.6256
H8_4 H 0.7156 0.2289 0.4132
H10_4 H 0.9510 0.0159 0.0032
N5_12 N 1.0000(5) 0.0000(5) 1.0000(5)
N16_4 N 0.9846(2) 0.2886(2) 0.7875(2)
N5_13 N 1.0000(5) 1.0000(5) 0.0000(5)
C4_5 C 0.5250(3) 0.3189(3) 0.3869(3)
C6_5 C 0.4999(3) 0.2797(3) 0.3178(3)
C11_5 C 0.4203(3) 0.2482(3) 0.2310(3)
C13_5 C 0.5346(3) 0.2322(3) 0.2679(3)
H6_5 H 0.3744 0.2448 0.2011
H8_5 H 0.5868 0.2156 0.2711
C4_6 C 0.0250(3) 0.1811(3) 0.6131(3)
C13_6 C 0.0346(3) 0.2678(3) 0.7321(3)
H8_6 H 0.0868 0.2844 0.7289
C6_6 C 0.9999(3) 0.2203(3) 0.6822(3)
C11_6 C 0.9203(3) 0.2518(3) 0.7690(3)
H6_6 H 0.8744 0.2552 0.7989
C6_7 C 0.0001(3) 0.7203(3) 0.8178(3)
C11_7 C 0.0797(3) 0.7518(3) 0.7310(3)
H6_7 H 0.1256 0.7552 0.7011
C4_7 C 0.9750(3) 0.6811(3) 0.8869(3)
C13_7 C 0.9654(3) 0.7678(3) 0.7679(3)
H8_7 H 0.9132 0.7844 0.7711
C4_8 C 0.4750(3) 0.8189(3) 0.1131(3)
C6_8 C 0.5001(3) 0.7797(3) 0.1822(3)
C11_8 C 0.5797(3) 0.7482(3) 0.2690(3)
C13_8 C 0.4654(3) 0.7322(3) 0.2321(3)
H6_8 H 0.6256 0.7448 0.2989
H8_8 H 0.4132 0.7156 0.2289
N5_14 N 1.0000(5) 1.0000(5) 1.0000(5)
loop_
_geom_bond_atom_site_label_1
_geom_bond_atom_site_label_2
_geom_bond_site_symmetry_1
_geom_bond_site_symmetry_2
H5 N5 1_555 1_555
N14 C19 1_555 1_555
H14 C19 1_555 1_555
Co15 N14 1_555 1_555
N16 Co15 1_555 1_555
O18 Co15 1_555 1_555
O19 Co15 1_555 1_555
O20 Co15 1_555 1_555
Co1 O1 1_555 1_555
O1 C1 1_555 1_555
O2 Co1 1_555 1_555
C1 C2 1_555 1_555
Co2 O2 1_555 1_555
C2 C3 1_555 1_555
O3 Co2 1_555 1_555
C3 H1 1_555 1_555
N1 C2 1_555 1_555
Co3 O3 1_555 1_555
C4 O3 1_555 1_555
N2 Co3 1_555 1_555
O4 C4 1_555 1_555
N3 C7 1_555 1_555
N4 C3 1_555 1_555
C5 N1 1_555 1_555
C6 C4 1_555 1_555
C7 H3 1_555 1_555
C8 N3 1_555 1_555
Co4 N4 1_555 1_555
H2 C5 1_555 1_555
H4 C8 1_555 1_555
N5_2 Co4 1_555 1_555
O5 C1 1_555 1_555
O6 Co2 1_555 1_555
O7 Co2 1_555 1_555
O8 Co2 1_555 1_555
Co5 N1 1_555 1_555
Co6 O7 1_555 1_555
C9 O8 1_555 1_555
O9 Co5 1_555 1_555
N6 Co3 1_555 1_555
N7 Co3 1_555 1_555
O10 Co6 1_555 1_555
C10 C9 1_555 1_555
C11 N6 1_555 1_555
C12 N7 1_555 1_555
C13 C6 1_555 1_555
C14 C10 1_555 1_555
N8 C7 1_555 1_555
C15 C8 1_555 1_555
N9 Co4 1_555 1_555
N10 Co4 1_555 1_555
N11 C11 1_555 1_555
H6 C11 1_555 1_555
N12 C12 1_555 1_555
H7 C12 1_555 1_555
H8 C13 1_555 1_555
H9 C14 1_555 1_555
Co7 N8 1_555 1_555
C16 C15 1_555 1_555
H10 N5_2 1_555 1_555
H11 N5_2 1_555 1_555
C17 N9 1_555 1_555
C18 N9 1_555 1_555
C20 N10 1_555 1_555
Co8 N11 1_555 1_555
Co9 N12 1_555 1_555
O11 Co7 1_555 1_555
O12 C16 1_555 1_555
N13 C17 1_555 1_555
H12 C17 1_555 1_555
H13 C18 1_555 1_555
C21 C18 1_555 1_555
H15 C20 1_555 1_555
C22 C20 1_555 1_555
O13 C23 1_555 1_555
O14 C24 1_555 1_555
Co16 O11 1_555 1_555
Co10 O12 1_555 1_555
Co14 N13 1_555 1_555
C23 C21 1_555 1_555
C24 C22 1_555 1_555
O16 Co14 1_555 1_555
O17 Co14 1_555 1_555
Co2 O5 1_555 1_555
Co3 O6 1_555 1_555
Co3 O8 1_555 1_555
O4 Co5 1_555 1_555
N3 Co5 1_555 1_555
N4 C5 1_555 1_555
C6 N6 1_555 1_555
O5 Co5 1_555 1_555
C9 O10 1_555 1_555
N7 C10 1_555 1_555
C13 N11 1_555 1_555
C14 N12 1_555 1_555
N8 C15 1_555 1_555
C16 O11 1_555 1_555
N13 C21 1_555 1_555
C23 O17 1_555 1_555
O4_2 C4_2 1_555 1_555
C5_2 N1_2 1_555 1_555
H2_2 C5_2 1_555 1_555
Co9 N1_2 1_555 1_555
O9_2 Co9 1_555 1_555
H8_2 C13_2 1_555 1_555
H10_2 N5_3 1_555 1_555
O4_2 Co9 1_555 1_555
O5_2 Co9 1_555 1_555
O3_2 Co16 1_555 1_555
Co7 O3_2 1_555 1_555
N2_2 Co7 1_555 1_555
O6_2 Co16 1_555 1_555
O7_2 Co16 1_555 1_555
Co10 O7_2 1_555 1_555
N6_2 Co7 1_555 1_555
C11_2 N6_2 1_555 1_555
N11_2 C11_2 1_555 1_555
H6_2 C11_2 1_555 1_555
Co7 O6_2 1_555 1_555
C6_2 N6_2 1_555 1_555
O15 C1_2 1_555 1_555
C1_2 C2_2 1_555 1_555
C2_2 C3_2 1_555 1_555
C3_2 H1_2 1_555 1_555
N4_2 C3_2 1_555 1_555
Co4_2 N4_2 1_555 1_555
N5_4 Co4_2 1_555 1_555
H5_2 N5_4 1_555 1_555
N9_2 Co4_2 1_555 1_555
N10_2 Co4_2 1_555 1_555
H11_2 N5_4 1_555 1_555
C17_2 N9_2 1_555 1_555
C18_2 N9_2 1_555 1_555
C19_2 N10_2 1_555 1_555
C20_2 N10_2 1_555 1_555
Co6 O13_2 1_555 1_555
N13_2 C17_2 1_555 1_555
H12_2 C17_2 1_555 1_555
H13_2 C18_2 1_555 1_555
C21_2 C18_2 1_555 1_555
N14_2 C19_2 1_555 1_555
H14_2 C19_2 1_555 1_555
H15_2 C20_2 1_555 1_555
C22_2 C20_2 1_555 1_555
O13_2 C23_2 1_555 1_555
O14_2 C24_2 1_555 1_555
Co1 N13_2 1_555 1_555
C23_2 C21_2 1_555 1_555
Co15_2 N14_2 1_555 1_555
C24_2 C22_2 1_555 1_555
N15_2 Co1 1_555 1_555
O16_2 Co1 1_555 1_555
O19_2 Co15_2 1_555 1_555
O20_2 Co15_2 1_555 1_555
N13_2 C21_2 1_555 1_555
N14_2 C22_2 1_555 1_555
C23_2 O2 1_555 1_555
C24_2 O20_2 1_555 1_555
H9_2 C14_2 1_555 1_555
C9_2 O19 1_555 1_555
N3_2 C7_2 1_555 1_555
C7_2 H3_2 1_555 1_555
N8_2 C7_2 1_555 1_555
Co7_2 N8_2 1_555 1_555
H11_3 N5_5 1_555 1_555
O11_2 Co7_2 1_555 1_555
N13_3 C17_3 1_555 1_555
H12_3 C17_3 1_555 1_555
Co17_2 O11_2 1_555 1_555
Co8 N13_3 1_555 1_555
O15_2 Co8 1_555 1_555
O16_3 Co8 1_555 1_555
O17_2 Co8 1_555 1_555
N8_2 C15_2 1_555 1_555
O2_2 Co8_2 1_555 1_555
Co17 O2_2 1_555 1_555
O3_3 Co17 1_555 1_555
Co3_2 O3_3 1_555 1_555
N2_3 Co3_2 1_555 1_555
O6_3 Co17 1_555 1_555
O8_2 Co17 1_555 1_555
N6_3 Co3_2 1_555 1_555
N7_2 Co3_2 1_555 1_555
C11_3 N6_3 1_555 1_555
C12_2 N7_2 1_555 1_555
N15 C11_3 1_555 1_555
H6_3 C11_3 1_555 1_555
N12_2 C12_2 1_555 1_555
H7_2 C12_2 1_555 1_555
Co3_2 O6_3 1_555 1_555
Co3_2 O8_2 1_555 1_555
C6_3 N6_3 1_555 1_555
N7_2 C10_2 1_555 1_555
O1_2 C1_3 1_555 1_555
C1_3 C2_3 1_555 1_555
C2_3 C3_3 1_555 1_555
C3_3 H1_3 1_555 1_555
N1_3 C2_3 1_555 1_555
O4_3 C4_3 1_555 1_555
N4_3 C3_3 1_555 1_555
C5_3 N1_3 1_555 1_555
Co4_3 N4_3 1_555 1_555
H2_3 C5_3 1_555 1_555
H4_2 C8_2 1_555 1_555
N5_6 Co4_3 1_555 1_555
H5_3 N5_6 1_555 1_555
O5_3 C1_3 1_555 1_555
Co11 N1_3 1_555 1_555
N9_3 Co4_3 1_555 1_555
N10_3 Co4_3 1_555 1_555
H8_3 C13_3 1_555 1_555
H10_3 N5_6 1_555 1_555
C18_3 N9_3 1_555 1_555
C19_3 N10_3 1_555 1_555
C20_3 N10_3 1_555 1_555
O19_2 C16_2 1_555 1_555
H13_3 C18_3 1_555 1_555
C21_3 C18_3 1_555 1_555
N14_3 C19_3 1_555 1_555
H14_3 C19_3 1_555 1_555
H15_3 C20_3 1_555 1_555
C22_3 C20_3 1_555 1_555
O18_2 C23_3 1_555 1_555
O9 C24_3 1_555 1_555
C23_3 C21_3 1_555 1_555
Co6 N14_3 1_555 1_555
C24_3 C22_3 1_555 1_555
N16_3 Co6 1_555 1_555
O4_3 Co11 1_555 1_555
N4_3 C5_3 1_555 1_555
O5_3 Co11 1_555 1_555
N14_3 C22_3 1_555 1_555
C24_3 O7 1_555 1_555
O15_2 C1_4 1_555 1_555
C1_4 C2_4 1_555 1_555
C2_4 C3_4 1_555 1_555
C3_4 H1_4 1_555 1_555
N4_4 C3_4 1_555 1_555
Co4_4 N4_4 1_555 1_555
N5_7 Co4_4 1_555 1_555
N9_4 Co4_4 1_555 1_555
N10_4 Co4_4 1_555 1_555
C18_4 N9_4 1_555 1_555
C20_4 N10_4 1_555 1_555
H13_4 C18_4 1_555 1_555
C21_4 C18_4 1_555 1_555
H15_4 C20_4 1_555 1_555
C22_4 C20_4 1_555 1_555
O18 C23_4 1_555 1_555
O9_2 C24_4 1_555 1_555
C23_4 C21_4 1_555 1_555
C24_4 C22_4 1_555 1_555
H5_4 N5_8 1_555 1_555
N14_4 C19_4 1_555 1_555
H14_4 C19_4 1_555 1_555
Co10 N14_4 1_555 1_555
H11_4 N5_9 1_555 1_555
N13_4 C17_4 1_555 1_555
H12_4 C17_4 1_555 1_555
Co8_2 N13_4 1_555 1_555
O16_4 Co8_2 1_555 1_555
O3_4 Co17_2 1_555 1_555
Co7_2 O3_4 1_555 1_555
C4_4 O3_4 1_555 1_555
N2_4 Co7_2 1_555 1_555
O4_4 C4_4 1_555 1_555
C5_4 N1_4 1_555 1_555
C6_4 C4_4 1_555 1_555
H2_4 C5_4 1_555 1_555
O6_4 Co17_2 1_555 1_555
Co11_2 N1_4 1_555 1_555
N6_4 Co7_2 1_555 1_555
C11_4 N6_4 1_555 1_555
C13_4 C6_4 1_555 1_555
N15_2 C11_4 1_555 1_555
H6_4 C11_4 1_555 1_555
H8_4 C13_4 1_555 1_555
H10_4 N5_11 1_555 1_555
Co17_2 O5_4 1_555 1_555
Co7_2 O6_4 1_555 1_555
O4_4 Co11_2 1_555 1_555
C6_4 N6_4 1_555 1_555
O5_4 Co11_2 1_555 1_555
C13_4 N15_2 1_555 1_555
C4_5 O6 1_555 1_555
O16_2 C4_5 1_555 1_555
C6_5 C4_5 1_555 1_555
C11_5 N2 1_555 1_555
C13_5 C6_5 1_555 1_555
N16 C11_5 1_555 1_555
H6_5 C11_5 1_555 1_555
H8_5 C13_5 1_555 1_555
C6_5 N2 1_555 1_555
C13_5 N16 1_555 1_555
O16_3 C4_6 1_555 1_555
H8_6 C13_6 1_555 1_555
C11_6 N2_4 1_555 1_555
N16_4 C11_6 1_555 1_555
H6_6 C11_6 1_555 1_555
C6_6 N2_4 1_555 1_555
C11_7 N2_2 1_555 1_555
N16_2 C11_7 1_555 1_555
H6_7 C11_7 1_555 1_555
C6_7 N2_2 1_555 1_555
O16 C4_7 1_555 1_555
H8_7 C13_7 1_555 1_555
C4_8 O6_3 1_555 1_555
O16_4 C4_8 1_555 1_555
C6_8 C4_8 1_555 1_555
C11_8 N2_3 1_555 1_555
C13_8 C6_8 1_555 1_555
N16_3 C11_8 1_555 1_555
H6_8 C11_8 1_555 1_555
H8_8 C13_8 1_555 1_555
C6_8 N2_3 1_555 1_555
C13_8 N16_3 1_555 1_555

#END
