
###############################################################################
#
# This file contains modified crystal structure data generated from the
# MOF subset of the Cambridge Structural Database (CSD) v543 
# hosted by the Cambridge Crystallographic Data Centre (CCDC).
#
# This work is licensed under the Creative Commons
# Attribution-NonCommercial-ShareAlike 4.0 International License.
# To view a copy of this license, visit
# http://creativecommons.org/licenses/by-nc-sa/4.0/
# or send a letter to
# Creative Commons, PO Box 1866, Mountain View, CA 94042, USA.
#
# CIF created using the CSD Python API on 29 September 2022
# The structure has been converted into the P1 space group
# The structure has a 3D framework
# The original CSD entry JUTMIX is in the monoclinic crystal system
# The framework has been calculated to contain at least 10.0% void space
# The void calculation uses a probe of radius 1.32A, grid spacing 0.4
#
###############################################################################

data_JUTMIX
_chemical_formula_moiety         '(C64 H32 O28 U2)n'
_symmetry_cell_setting           triclinic
_symmetry_space_group_name_H-M   'P 1'
_symmetry_Int_Tables_number      1
_space_group_name_Hall           'P 1'
loop_
_symmetry_equiv_pos_site_id
_symmetry_equiv_pos_as_xyz
1 x,y,z
_cell_length_a                   17.7447(17)
_cell_length_b                   12.5982(12)
_cell_length_c                   9.2934(8)
_cell_angle_alpha                90
_cell_angle_beta                 114.702(4)
_cell_angle_gamma                90
_cell_volume                     1887.44
loop_
_atom_site_label
_atom_site_type_symbol
_atom_site_fract_x
_atom_site_fract_y
_atom_site_fract_z
U1 U -0.0000 0.00124(4) 0.2500
O9 O 0.0535(5) 0.1515(6) 0.4164(8)
O13 O 0.1012(5) 0.0441(8) 0.1662(9)
O5 O 0.4465(5) 0.6515(6) 0.0836(8)
H7 H 0.3370 0.7896 0.0518
U3 U 0.5000 0.50124(4) 0.2500
O6 O 0.1310(5) 0.9514(7) 0.4562(7)
O7 O 0.4764(5) 0.6459(7) 0.8742(9)
O8 O 0.1012(5) 0.9559(8) 0.6662(9)
C9 C 0.1490(7) 0.9364(10) 0.6016(12)
C10 C 0.4368(7) 0.6834(10) 0.9492(13)
C11 C 0.2307(6) 0.8860(9) 0.6988(11)
C12 C 0.3712(6) 0.7631(9) 0.8686(12)
C13 C 0.3518(7) 0.7905(9) 0.7103(12)
H5 H 0.3858 0.7664 0.6607
C14 C 0.2545(7) 0.8679(11) 0.8581(12)
H6 H 0.2237 0.8989 0.9101
C15 C 0.3228(7) 0.8048(9) 0.9434(12)
C16 C 0.2827(7) 0.8530(10) 0.6271(12)
H8 H 0.2704 0.8734 0.5212
U5 U 0.0000 0.99876(4) 0.7500
U7 U 0.5000 0.49876(4) 0.7500
O12 O 0.0236(5) 0.8541(7) 0.1258(9)
U1_2 U 1.0000 0.00124(4) 0.2500
O10 O 0.9465(5) 0.1515(6) 0.0836(8)
O14 O 0.8988(5) 0.0441(8) 0.3338(9)
O2 O 0.8690(5) 0.9514(7) 0.0438(7)
U5_2 U 1.0000 0.99876(4) 0.7500
O11 O 0.9764(5) 0.8541(7) 0.3742(9)
O1 O 0.5535(5) 0.6515(6) 0.4164(8)
O3 O 0.5236(5) 0.6459(7) 0.6258(9)
O4 O 0.8988(5) 0.9559(8) 0.8338(9)
C1 C 0.8510(7) 0.9364(10) 0.8984(12)
C2 C 0.5632(7) 0.6834(10) 0.5508(13)
C3 C 0.7693(6) 0.8860(9) 0.8012(11)
C4 C 0.6288(6) 0.7631(9) 0.6314(12)
C5 C 0.6482(7) 0.7905(9) 0.7897(12)
H1 H 0.6142 0.7664 0.8393
C6 C 0.7455(7) 0.8679(11) 0.6419(12)
H2 H 0.7763 0.8989 0.5899
C7 C 0.6772(7) 0.8048(9) 0.5566(12)
H3 H 0.6630 0.7896 0.4482
C8 C 0.7173(7) 0.8530(10) 0.8729(12)
H4 H 0.7296 0.8734 0.9788
H7_2 H 0.8370 0.2896 0.0518
O2_2 O 0.3690(5) 0.4514(7) 0.0438(7)
O6_2 O 0.6310(5) 0.4514(7) 0.4562(7)
O7_2 O 0.9764(5) 0.1459(7) 0.8742(9)
O8_2 O 0.6012(5) 0.4559(8) 0.6662(9)
C9_2 C 0.6490(7) 0.4364(10) 0.6016(12)
C10_2 C 0.9368(7) 0.1834(10) 0.9492(13)
C11_2 C 0.7307(6) 0.3860(9) 0.6988(11)
C12_2 C 0.8712(6) 0.2631(9) 0.8686(12)
C13_2 C 0.8518(7) 0.2905(9) 0.7103(12)
H5_2 H 0.8858 0.2664 0.6607
C14_2 C 0.7545(7) 0.3679(11) 0.8581(12)
H6_2 H 0.7237 0.3989 0.9101
C15_2 C 0.8228(7) 0.3048(9) 0.9434(12)
C16_2 C 0.7827(7) 0.3530(10) 0.6271(12)
H8_2 H 0.7704 0.3734 0.5212
O11_2 O 0.4764(5) 0.3541(7) 0.3742(9)
O12_2 O 0.5236(5) 0.3541(7) 0.1258(9)
O13_2 O 0.6012(5) 0.5441(8) 0.1662(9)
O14_2 O 0.3988(5) 0.5441(8) 0.3338(9)
O3_2 O 0.0236(5) 0.1459(7) 0.6258(9)
O4_2 O 0.3988(5) 0.4559(8) 0.8338(9)
C1_2 C 0.3510(7) 0.4364(10) 0.8984(12)
C2_2 C 0.0632(7) 0.1834(10) 0.5508(13)
C3_2 C 0.2693(6) 0.3860(9) 0.8012(11)
C4_2 C 0.1288(6) 0.2631(9) 0.6314(12)
C5_2 C 0.1482(7) 0.2905(9) 0.7897(12)
H1_2 H 0.1142 0.2664 0.8393
C6_2 C 0.2455(7) 0.3679(11) 0.6419(12)
H2_2 H 0.2763 0.3989 0.5899
C7_2 C 0.1772(7) 0.3048(9) 0.5566(12)
H3_2 H 0.1630 0.2896 0.4482
C8_2 C 0.2173(7) 0.3530(10) 0.8729(12)
H4_2 H 0.2296 0.3734 0.9788
O1_2 O 0.4465(5) 0.3485(6) 0.5836(8)
C1_3 C 0.1490(7) 0.0636(10) 0.1016(12)
C2_3 C 0.4368(7) 0.3166(10) 0.4492(13)
C3_3 C 0.2307(6) 0.1140(9) 0.1988(11)
C4_3 C 0.3712(6) 0.2369(9) 0.3686(12)
C5_3 C 0.3518(7) 0.2095(9) 0.2103(12)
H1_3 H 0.3858 0.2336 0.1607
C6_3 C 0.2545(7) 0.1321(11) 0.3581(12)
H2_3 H 0.2237 0.1011 0.4101
C7_3 C 0.3228(7) 0.1952(9) 0.4434(12)
H3_3 H 0.3370 0.2104 0.5518
C8_3 C 0.2827(7) 0.1470(10) 0.1271(12)
H4_3 H 0.2704 0.1266 0.0212
O2_3 O 0.1310(5) 0.0486(7) 0.9562(7)
O10_2 O 0.0535(5) 0.8485(6) 0.9164(8)
O6_3 O 0.8690(5) 0.0486(7) 0.5438(7)
C9_3 C 0.8510(7) 0.0636(10) 0.3984(12)
C10_3 C 0.5632(7) 0.3166(10) 0.0508(13)
C11_3 C 0.7693(6) 0.1140(9) 0.3012(11)
C12_3 C 0.6288(6) 0.2369(9) 0.1314(12)
C13_3 C 0.6482(7) 0.2095(9) 0.2897(12)
H5_3 H 0.6142 0.2336 0.3393
C14_3 C 0.7455(7) 0.1321(11) 0.1419(12)
H6_3 H 0.7763 0.1011 0.0899
C15_3 C 0.6772(7) 0.1952(9) 0.0566(12)
C16_3 C 0.7173(7) 0.1470(10) 0.3729(12)
H8_3 H 0.7296 0.1266 0.4788
O5_2 O 0.5535(5) 0.3485(6) 0.9164(8)
H7_3 H 0.6630 0.2104 0.9482
O9_2 O 0.9465(5) 0.8485(6) 0.5836(8)
C1_4 C 0.6490(7) 0.5636(10) 0.1016(12)
C2_4 C 0.9368(7) 0.8166(10) 0.4492(13)
C3_4 C 0.7307(6) 0.6140(9) 0.1988(11)
C4_4 C 0.8712(6) 0.7369(9) 0.3686(12)
C5_4 C 0.8518(7) 0.7095(9) 0.2103(12)
H1_4 H 0.8858 0.7336 0.1607
C6_4 C 0.7545(7) 0.6321(11) 0.3581(12)
H2_4 H 0.7237 0.6011 0.4101
C7_4 C 0.8228(7) 0.6952(9) 0.4434(12)
H3_4 H 0.8370 0.7104 0.5518
C8_4 C 0.7827(7) 0.6470(10) 0.1271(12)
H4_4 H 0.7704 0.6266 0.0212
O2_4 O 0.6310(5) 0.5486(7) 0.9562(7)
O6_4 O 0.3690(5) 0.5486(7) 0.5438(7)
C9_4 C 0.3510(7) 0.5636(10) 0.3984(12)
C10_4 C 0.0632(7) 0.8166(10) 0.0508(13)
C11_4 C 0.2693(6) 0.6140(9) 0.3012(11)
C12_4 C 0.1288(6) 0.7369(9) 0.1314(12)
C13_4 C 0.1482(7) 0.7095(9) 0.2897(12)
H5_4 H 0.1142 0.7336 0.3393
C14_4 C 0.2455(7) 0.6321(11) 0.1419(12)
H6_4 H 0.2763 0.6011 0.0899
C15_4 C 0.1772(7) 0.6952(9) 0.0566(12)
C16_4 C 0.2173(7) 0.6470(10) 0.3729(12)
H8_4 H 0.2296 0.6266 0.4788
H7_4 H 0.1630 0.7104 0.9482
loop_
_geom_bond_atom_site_label_1
_geom_bond_atom_site_label_2
_geom_bond_site_symmetry_1
_geom_bond_site_symmetry_2
O9 U1 1_555 1_555
O13 U1 1_555 1_555
U3 O5 1_555 1_555
O7 C10 1_555 1_555
O8 C9 1_555 1_555
C9 O6 1_555 1_555
C10 C12 1_555 1_555
C11 C9 1_555 1_555
C12 C13 1_555 1_555
C13 H5 1_555 1_555
C14 C11 1_555 1_555
H6 C14 1_555 1_555
C15 C12 1_555 1_555
C16 C11 1_555 1_555
H8 C16 1_555 1_555
U5 O8 1_555 1_555
U7 O7 1_555 1_555
C13 C16 1_555 1_555
C14 C15 1_555 1_555
O10 U1_2 1_555 1_555
O14 U1_2 1_555 1_555
O1 C2 1_555 1_555
O3 C2 1_555 1_555
O4 C1 1_555 1_555
C1 C3 1_555 1_555
C2 C4 1_555 1_555
C3 C6 1_555 1_555
C4 C5 1_555 1_555
C5 H1 1_555 1_555
C6 H2 1_555 1_555
C7 C4 1_555 1_555
H3 C7 1_555 1_555
C8 C3 1_555 1_555
H4 C8 1_555 1_555
U3 O1 1_555 1_555
U5_2 O4 1_555 1_555
U7 O3 1_555 1_555
C5 C8 1_555 1_555
C6 C7 1_555 1_555
U3 O2_2 1_555 1_555
O6_2 U3 1_555 1_555
O7_2 C10_2 1_555 1_555
O8_2 C9_2 1_555 1_555
C9_2 O6_2 1_555 1_555
C10_2 C12_2 1_555 1_555
C11_2 C9_2 1_555 1_555
C12_2 C13_2 1_555 1_555
C13_2 H5_2 1_555 1_555
C14_2 C11_2 1_555 1_555
H6_2 C14_2 1_555 1_555
C15_2 C12_2 1_555 1_555
C16_2 C11_2 1_555 1_555
H8_2 C16_2 1_555 1_555
U7 O8_2 1_555 1_555
O11_2 U3 1_555 1_555
O12_2 U3 1_555 1_555
O13_2 U3 1_555 1_555
O14_2 U3 1_555 1_555
C13_2 C16_2 1_555 1_555
C14_2 C15_2 1_555 1_555
O9 C2_2 1_555 1_555
O3_2 C2_2 1_555 1_555
O4_2 C1_2 1_555 1_555
C1_2 C3_2 1_555 1_555
C2_2 C4_2 1_555 1_555
C3_2 C6_2 1_555 1_555
C4_2 C5_2 1_555 1_555
C5_2 H1_2 1_555 1_555
C6_2 H2_2 1_555 1_555
C7_2 C4_2 1_555 1_555
H3_2 C7_2 1_555 1_555
C8_2 C3_2 1_555 1_555
H4_2 C8_2 1_555 1_555
U7 O4_2 1_555 1_555
C5_2 C8_2 1_555 1_555
C6_2 C7_2 1_555 1_555
O1_2 C2_3 1_555 1_555
O11_2 C2_3 1_555 1_555
O13 C1_3 1_555 1_555
C1_3 C3_3 1_555 1_555
C2_3 C4_3 1_555 1_555
C3_3 C6_3 1_555 1_555
C4_3 C5_3 1_555 1_555
C5_3 H1_3 1_555 1_555
C6_3 H2_3 1_555 1_555
C7_3 C4_3 1_555 1_555
H3_3 C7_3 1_555 1_555
C8_3 C3_3 1_555 1_555
H4_3 C8_3 1_555 1_555
U7 O1_2 1_555 1_555
C5_3 C8_3 1_555 1_555
C6_3 C7_3 1_555 1_555
O10_2 U5 1_555 1_555
O12_2 C10_3 1_555 1_555
O14 C9_3 1_555 1_555
C9_3 O6_3 1_555 1_555
C10_3 C12_3 1_555 1_555
C11_3 C9_3 1_555 1_555
C12_3 C13_3 1_555 1_555
C13_3 H5_3 1_555 1_555
C14_3 C11_3 1_555 1_555
H6_3 C14_3 1_555 1_555
C15_3 C12_3 1_555 1_555
C16_3 C11_3 1_555 1_555
H8_3 C16_3 1_555 1_555
C13_3 C16_3 1_555 1_555
C14_3 C15_3 1_555 1_555
U7 O5_2 1_555 1_555
O9_2 U5_2 1_555 1_555
O9_2 C2_4 1_555 1_555
O11 C2_4 1_555 1_555
O13_2 C1_4 1_555 1_555
C1_4 C3_4 1_555 1_555
C2_4 C4_4 1_555 1_555
C3_4 C6_4 1_555 1_555
C4_4 C5_4 1_555 1_555
C5_4 H1_4 1_555 1_555
C6_4 H2_4 1_555 1_555
C7_4 C4_4 1_555 1_555
H3_4 C7_4 1_555 1_555
C8_4 C3_4 1_555 1_555
H4_4 C8_4 1_555 1_555
C5_4 C8_4 1_555 1_555
C6_4 C7_4 1_555 1_555
U7 O2_4 1_555 1_555
O6_4 U7 1_555 1_555
O12 C10_4 1_555 1_555
O14_2 C9_4 1_555 1_555
C9_4 O6_4 1_555 1_555
C10_4 C12_4 1_555 1_555
C11_4 C9_4 1_555 1_555
C12_4 C13_4 1_555 1_555
C13_4 H5_4 1_555 1_555
C14_4 C11_4 1_555 1_555
H6_4 C14_4 1_555 1_555
C15_4 C12_4 1_555 1_555
C16_4 C11_4 1_555 1_555
H8_4 C16_4 1_555 1_555
C13_4 C16_4 1_555 1_555
C14_4 C15_4 1_555 1_555

#END
