
###############################################################################
#
# This file contains modified crystal structure data generated from the
# MOF subset of the Cambridge Structural Database (CSD) v543 
# hosted by the Cambridge Crystallographic Data Centre (CCDC).
#
# This work is licensed under the Creative Commons
# Attribution-NonCommercial-ShareAlike 4.0 International License.
# To view a copy of this license, visit
# http://creativecommons.org/licenses/by-nc-sa/4.0/
# or send a letter to
# Creative Commons, PO Box 1866, Mountain View, CA 94042, USA.
#
# CIF created using the CSD Python API on 29 September 2022
# The structure has been converted into the P1 space group
# The structure has a 3D framework
# The original CSD entry JUTSEZ is in the monoclinic crystal system
# The framework has been calculated to contain at least 10.0% void space
# The void calculation uses a probe of radius 1.32A, grid spacing 0.4
#
###############################################################################

data_JUTSEZ
_chemical_formula_moiety         '(C48 H44 Eu4 O36)n'
_symmetry_cell_setting           triclinic
_symmetry_space_group_name_H-M   'P 1'
_symmetry_Int_Tables_number      1
_space_group_name_Hall           'P 1'
loop_
_symmetry_equiv_pos_site_id
_symmetry_equiv_pos_as_xyz
1 x,y,z
_cell_length_a                   11.2856(6)
_cell_length_b                   7.6390(4)
_cell_length_c                   18.8700(11)
_cell_angle_alpha                90
_cell_angle_beta                 102.6890(10)
_cell_angle_gamma                90
_cell_volume                     1587.06
loop_
_atom_site_label
_atom_site_type_symbol
_atom_site_fract_x
_atom_site_fract_y
_atom_site_fract_z
Eu3 Eu 0.480742(10) 0.028847(16) 0.388627(6)
C1 C 0.2332(2) 0.8580(4) 0.00571(15)
C4 C 0.0215(2) 0.7208(4) 0.03762(15)
C5 C 0.1316(2) 0.7012(4) 0.08750(15)
H3 H 0.1356 0.6440 0.1315
C6 C 0.2347(2) 0.7693(4) 0.06971(14)
C9 C 0.3637(3) 0.8606(5) 0.18066(16)
H6 H 0.3129 0.8225 0.2131
H7 H 0.3403 0.9789 0.1649
C10 C 0.4953(2) 0.8566(4) 0.21974(14)
Eu1 Eu 0.519258(10) 0.528847(16) 0.111373(6)
O4 O 0.34748(16) 0.7466(3) 0.11920(10)
O5 O 0.52281(19) 0.9368(3) 0.27881(11)
O6 O 0.56968(16) 0.7769(3) 0.19102(11)
O9 O 0.33344(18) 0.3660(3) 0.07573(11)
H8 H 0.2871 0.3477 0.1034
H9 H 0.2977 0.3570 0.0325
H11 H 0.4021 0.9724 0.0306
O10 O 0.69432(17) 0.6450(3) 0.07165(11)
O11 O 0.7489(2) 0.5043(3) 0.17486(13)
O12 O 0.47719(19) 0.4368(3) 0.22119(11)
O13 O 0.59518(19) 0.2172(3) 0.11290(11)
O14 O 0.54865(17) 0.3424(2) 0.00686(10)
C2 C 0.1222(3) 0.8715(4) 0.95656(16)
H1 H 0.1183 0.9275 0.9124
C3 C 0.0178(2) 0.8035(4) 0.97209(16)
C11 C 0.4061(2) 0.7856(3) 0.95307(14)
O7 O 0.40482(19) 0.7828(3) 0.88710(11)
O8 O 0.45135(17) 0.6576(2) 0.99314(10)
C12 C 0.3470(3) 0.9303(4) 0.98707(16)
Eu4 Eu 0.480742(10) 0.471153(16) 0.888627(6)
C7 C 0.9068(3) 0.6036(4) 0.11886(16)
H4 H 0.9460 0.6867 0.1555
H5 H 0.9486 0.4923 0.1283
C8 C 0.7751(2) 0.5826(4) 0.12172(15)
O1 O 0.91212(17) 0.6647(3) 0.04897(11)
H2 H 0.0555 0.3132 0.5617
C7_2 C 0.0932(3) 0.1036(4) 0.38114(16)
H4_2 H 0.0540 0.1867 0.3445
C8_2 C 0.2249(2) 0.0826(4) 0.37828(15)
O1_2 O 0.08788(17) 0.1647(3) 0.45103(11)
O2 O 0.30568(17) 0.1450(3) 0.42835(11)
O3 O 0.2511(2) 0.0043(3) 0.32514(13)
C1_2 C 0.7668(2) 0.3580(4) 0.49429(15)
C2_2 C 0.8778(3) 0.3715(4) 0.54344(16)
H1_2 H 0.8817 0.4275 0.5876
C3_2 C 0.9822(2) 0.3035(4) 0.52791(16)
C4_2 C 0.9785(2) 0.2208(4) 0.46238(15)
C5_2 C 0.8684(2) 0.2012(4) 0.41250(15)
H3_2 H 0.8644 0.1440 0.3685
C6_2 C 0.7653(2) 0.2693(4) 0.43029(14)
C9_2 C 0.6363(3) 0.3606(5) 0.31934(16)
H6_2 H 0.6871 0.3225 0.2869
H7_2 H 0.6597 0.4789 0.3351
C10_2 C 0.5047(2) 0.3566(4) 0.28026(14)
C11_2 C 0.5939(2) 0.2856(3) 0.54693(14)
O4_2 O 0.65252(16) 0.2466(3) 0.38080(10)
O6_2 O 0.43032(16) 0.2769(3) 0.30898(11)
O7_2 O 0.59518(19) 0.2828(3) 0.61290(11)
O8_2 O 0.54865(17) 0.1576(2) 0.50686(10)
C12_2 C 0.6530(3) 0.4303(4) 0.51293(16)
H10 H 0.6731 0.5273 0.5466
H11_2 H 0.5979 0.4724 0.4694
O9_2 O 0.66656(18) 0.8660(3) 0.42427(11)
H8_2 H 0.7129 0.8477 0.3966
H9_2 H 0.7023 0.8570 0.4675
Eu4_2 Eu 0.519258(10) 0.971153(16) 0.611373(6)
O13_2 O 0.40482(19) 0.7172(3) 0.38710(11)
O14_2 O 0.45135(17) 0.8424(2) 0.49314(10)
C7_3 C 0.0932(3) 0.3964(4) 0.88114(16)
H4_3 H 0.0540 0.3133 0.8445
H5_2 H 0.0514 0.5077 0.8717
C8_3 C 0.2249(2) 0.4174(4) 0.87828(15)
O1_3 O 0.08788(17) 0.3353(3) 0.95103(11)
O2_2 O 0.30568(17) 0.3550(3) 0.92835(11)
O3_2 O 0.2511(2) 0.4957(3) 0.82514(13)
C2_3 C 0.8778(3) 0.1285(4) 0.04344(16)
H1_3 H 0.8817 0.0725 0.0876
C3_3 C 0.9822(2) 0.1965(4) 0.02791(16)
C11_3 C 0.5939(2) 0.2144(3) 0.04693(14)
C12_3 C 0.6530(3) 0.0697(4) 0.01293(16)
C1_3 C 0.7668(2) 0.1420(4) 0.99429(15)
C4_3 C 0.9785(2) 0.2792(4) 0.96238(15)
C5_3 C 0.8684(2) 0.2988(4) 0.91250(15)
H3_3 H 0.8644 0.3560 0.8685
C6_3 C 0.7653(2) 0.2307(4) 0.93029(14)
C9_3 C 0.6363(3) 0.1394(5) 0.81934(16)
H6_3 H 0.6871 0.1775 0.7869
H7_3 H 0.6597 0.0211 0.8351
C10_3 C 0.5047(2) 0.1434(4) 0.78026(14)
O4_3 O 0.65252(16) 0.2534(3) 0.88080(10)
O5_2 O 0.47719(19) 0.0632(3) 0.72119(11)
O6_3 O 0.43032(16) 0.2231(3) 0.80898(11)
O9_3 O 0.66656(18) 0.6340(3) 0.92427(11)
H8_3 H 0.7129 0.6523 0.8966
H9_3 H 0.7023 0.6430 0.9675
H11_3 H 0.5979 0.0276 0.9694
O12_2 O 0.52281(19) 0.5632(3) 0.77881(11)
O9_4 O 0.33344(18) 0.1340(3) 0.57573(11)
H8_4 H 0.2871 0.1523 0.6034
H9_4 H 0.2977 0.1430 0.5325
C1_4 C 0.2332(2) 0.6420(4) 0.50571(15)
C2_4 C 0.1222(3) 0.6285(4) 0.45656(16)
H1_4 H 0.1183 0.5725 0.4124
C3_4 C 0.0178(2) 0.6965(4) 0.47209(16)
C4_4 C 0.0215(2) 0.7792(4) 0.53762(15)
C5_4 C 0.1316(2) 0.7988(4) 0.58750(15)
H3_4 H 0.1356 0.8560 0.6315
C6_4 C 0.2347(2) 0.7307(4) 0.56971(14)
C9_4 C 0.3637(3) 0.6394(5) 0.68066(16)
H6_4 H 0.3129 0.6775 0.7131
H7_4 H 0.3403 0.5211 0.6649
C10_4 C 0.4953(2) 0.6434(4) 0.71974(14)
C11_4 C 0.4061(2) 0.7144(3) 0.45307(14)
O4_4 O 0.34748(16) 0.7534(3) 0.61920(10)
O6_4 O 0.56968(16) 0.7231(3) 0.69102(11)
C12_4 C 0.3470(3) 0.5697(4) 0.48707(16)
H10_2 H 0.3269 0.4727 0.4534
H11_4 H 0.4021 0.5276 0.5306
O10_2 O 0.69432(17) 0.8550(3) 0.57165(11)
O11_2 O 0.7489(2) 0.9957(3) 0.67486(13)
H2_2 H 0.9445 0.6868 0.4383
C7_4 C 0.9068(3) 0.8964(4) 0.61886(16)
H4_4 H 0.9460 0.8133 0.6555
C8_4 C 0.7751(2) 0.9174(4) 0.62172(15)
O1_4 O 0.91212(17) 0.8353(3) 0.54897(11)
H10_3 H 0.3269 0.0273 0.9534
H2_3 H 0.9445 0.8132 0.9383
H5_3 H 0.0514 0.9923 0.3717
H2_4 H 0.0555 0.1868 0.0617
H10_4 H 0.6731 0.9727 0.0466
H5_4 H 0.9486 0.0077 0.6283
loop_
_geom_bond_atom_site_label_1
_geom_bond_atom_site_label_2
_geom_bond_site_symmetry_1
_geom_bond_site_symmetry_2
C5 C4 1_555 1_555
H3 C5 1_555 1_555
C6 C1 1_555 1_555
C9 H6 1_555 1_555
H7 C9 1_555 1_555
C10 C9 1_555 1_555
Eu1 O4 1_555 1_555
O4 C6 1_555 1_555
O5 C10 1_555 1_555
O6 C10 1_555 1_555
O9 Eu1 1_555 1_555
H8 O9 1_555 1_555
H9 O9 1_555 1_555
O10 Eu1 1_555 1_555
O11 Eu1 1_555 1_555
O12 Eu1 1_555 1_555
O13 Eu1 1_555 1_555
O14 Eu1 1_555 1_555
C5 C6 1_555 1_555
C9 O4 1_555 1_555
Eu1 O6 1_555 1_555
C2 H1 1_555 1_555
C3 C2 1_555 1_555
C11 O7 1_555 1_555
O7 Eu4 1_555 1_555
O8 C11 1_555 1_555
Eu4 O8 1_555 1_555
C11 C12 1_555 1_555
C7 H4 1_555 1_555
H5 C7 1_555 1_555
C8 C7 1_555 1_555
O10 C8 1_555 1_555
O11 C8 1_555 1_555
C7 O1 1_555 1_555
C7_2 H4_2 1_555 1_555
C8_2 C7_2 1_555 1_555
O2 C8_2 1_555 1_555
O3 C8_2 1_555 1_555
Eu3 O2 1_555 1_555
C7_2 O1_2 1_555 1_555
O3 Eu3 1_555 1_555
C1_2 C2_2 1_555 1_555
C2_2 H1_2 1_555 1_555
C3_2 C2_2 1_555 1_555
C4_2 C3_2 1_555 1_555
C5_2 C4_2 1_555 1_555
H3_2 C5_2 1_555 1_555
C6_2 C1_2 1_555 1_555
C9_2 H6_2 1_555 1_555
H7_2 C9_2 1_555 1_555
C10_2 C9_2 1_555 1_555
C11_2 O7_2 1_555 1_555
Eu3 O4_2 1_555 1_555
O4_2 C6_2 1_555 1_555
O12 C10_2 1_555 1_555
O6_2 C10_2 1_555 1_555
O8_2 C11_2 1_555 1_555
C12_2 C1_2 1_555 1_555
H10 C12_2 1_555 1_555
H11_2 C12_2 1_555 1_555
C5_2 C6_2 1_555 1_555
C9_2 O4_2 1_555 1_555
C11_2 C12_2 1_555 1_555
Eu3 O6_2 1_555 1_555
Eu3 O8_2 1_555 1_555
H8_2 O9_2 1_555 1_555
H9_2 O9_2 1_555 1_555
Eu4_2 O14_2 1_555 1_555
C7_3 H4_3 1_555 1_555
H5_2 C7_3 1_555 1_555
C8_3 C7_3 1_555 1_555
O2_2 C8_3 1_555 1_555
O3_2 C8_3 1_555 1_555
Eu4 O2_2 1_555 1_555
C7_3 O1_3 1_555 1_555
O3_2 Eu4 1_555 1_555
C2_3 H1_3 1_555 1_555
C3_3 C2_3 1_555 1_555
C11_3 O13 1_555 1_555
O14 C11_3 1_555 1_555
C11_3 C12_3 1_555 1_555
C5_3 C4_3 1_555 1_555
H3_3 C5_3 1_555 1_555
C6_3 C1_3 1_555 1_555
C9_3 H6_3 1_555 1_555
H7_3 C9_3 1_555 1_555
C10_3 C9_3 1_555 1_555
Eu4 O4_3 1_555 1_555
O4_3 C6_3 1_555 1_555
O5_2 C10_3 1_555 1_555
O6_3 C10_3 1_555 1_555
O9_3 Eu4 1_555 1_555
H8_3 O9_3 1_555 1_555
H9_3 O9_3 1_555 1_555
O12_2 Eu4 1_555 1_555
C5_3 C6_3 1_555 1_555
C9_3 O4_3 1_555 1_555
Eu4 O6_3 1_555 1_555
H8_4 O9_4 1_555 1_555
H9_4 O9_4 1_555 1_555
C1_4 C2_4 1_555 1_555
C2_4 H1_4 1_555 1_555
C3_4 C2_4 1_555 1_555
C4_4 C3_4 1_555 1_555
C5_4 C4_4 1_555 1_555
H3_4 C5_4 1_555 1_555
C6_4 C1_4 1_555 1_555
C9_4 H6_4 1_555 1_555
H7_4 C9_4 1_555 1_555
C10_4 C9_4 1_555 1_555
C11_4 O13_2 1_555 1_555
Eu4_2 O4_4 1_555 1_555
O4_4 C6_4 1_555 1_555
O12_2 C10_4 1_555 1_555
O6_4 C10_4 1_555 1_555
O14_2 C11_4 1_555 1_555
C12_4 C1_4 1_555 1_555
H10_2 C12_4 1_555 1_555
H11_4 C12_4 1_555 1_555
O10_2 Eu4_2 1_555 1_555
O11_2 Eu4_2 1_555 1_555
C5_4 C6_4 1_555 1_555
C9_4 O4_4 1_555 1_555
C11_4 C12_4 1_555 1_555
Eu4_2 O6_4 1_555 1_555
C7_4 H4_4 1_555 1_555
C8_4 C7_4 1_555 1_555
O10_2 C8_4 1_555 1_555
O11_2 C8_4 1_555 1_555
C7_4 O1_4 1_555 1_555

#END
