
###############################################################################
#
# This file contains modified crystal structure data generated from the
# MOF subset of the Cambridge Structural Database (CSD) v543 
# hosted by the Cambridge Crystallographic Data Centre (CCDC).
#
# This work is licensed under the Creative Commons
# Attribution-NonCommercial-ShareAlike 4.0 International License.
# To view a copy of this license, visit
# http://creativecommons.org/licenses/by-nc-sa/4.0/
# or send a letter to
# Creative Commons, PO Box 1866, Mountain View, CA 94042, USA.
#
# CIF created using the CSD Python API on 29 September 2022
# The structure has been converted into the P1 space group
# The structure has a 3D framework
# The original CSD entry JUVLUK is in the triclinic crystal system
# The framework has been calculated to contain at least 10.0% void space
# The void calculation uses a probe of radius 1.32A, grid spacing 0.4
# The framework is charged, counterions have been retained in the structure
#
###############################################################################

data_JUVLUK
_chemical_formula_moiety         '(C84 H48 Eu2 O26 P4 Zn2)n'
_symmetry_cell_setting           triclinic
_symmetry_space_group_name_H-M   'P 1'
_symmetry_Int_Tables_number      1
_space_group_name_Hall           'P 1'
loop_
_symmetry_equiv_pos_site_id
_symmetry_equiv_pos_as_xyz
1 x,y,z
_cell_length_a                   14.0792(5)
_cell_length_b                   14.1460(5)
_cell_length_c                   18.4366(7)
_cell_angle_alpha                106.1280(10)
_cell_angle_beta                 90.9910(10)
_cell_angle_gamma                92.7770(10)
_cell_volume                     3521.45
loop_
_atom_site_label
_atom_site_type_symbol
_atom_site_fract_x
_atom_site_fract_y
_atom_site_fract_z
O2 O 0.1881(3) 0.5514(4) 0.2227(3)
O3 O 0.0889(3) 0.4521(3) 0.2608(3)
C39 C 0.0238(4) 0.5785(5) 0.2147(4)
C40 C 0.0352(6) 0.6559(8) 0.1902(7)
H23 H 0.097422 0.676484 0.179640
C42 C 0.1067(5) 0.5233(5) 0.2329(4)
Eu2 Eu 0.25837(2) 0.44893(2) 0.29464(2)
O7 O 0.2773(3) 0.0212(4) 0.2793(3)
Zn4 Zn 0.26345(4) 0.15279(5) 0.26553(4)
O1 O 0.2139(3) 0.5644(3) 0.4044(2)
O6 O 0.1272(7) 0.9603(6) 0.2408(6)
O8 O 0.6110(3) 0.7889(4) 0.6934(3)
O9 O 0.6182(3) 0.6258(4) 0.6569(3)
O12 O 0.3854(3) 0.4685(3) 0.2099(3)
O13 O 0.3831(3) 0.5818(3) 0.3206(3)
O14 O 0.7867(3) 0.8619(3) 0.2335(2)
P1 P 0.22537(10) 0.66615(11) 0.45854(8)
P2 P 0.77385(10) 0.76092(11) 0.18155(8)
C1 C 0.1260(4) 0.6889(5) 0.5194(4)
C2 C 0.1028(9) 0.7716(7) 0.5574(11)
H1 H 0.149485 0.824727 0.567034
C3 C 0.0735(11) 0.6141(8) 0.5303(9)
H2 H 0.090173 0.548542 0.507060
C4 C 0.0111(10) 0.7915(8) 0.5874(11)
C5 C 0.3293(4) 0.6796(4) 0.5178(3)
C6 C 0.3579(7) 0.7658(6) 0.5682(7)
H4 H 0.321452 0.822013 0.573949
C7 C 0.3821(8) 0.6038(7) 0.5143(7)
H5 H 0.363243 0.541147 0.480989
C8 C 0.2290(6) 0.7603(6) 0.4142(4)
C9 C 0.1381(10) 0.7682(12) 0.3801(12)
H6 H 0.082828 0.732628 0.389285
C10 C 0.2928(10) 0.7908(8) 0.3838(9)
H7 H 0.351336 0.760237 0.384348
C11 C 0.7697(4) 0.7612(4) 0.0850(3)
C12 C 0.7553(6) 0.8491(5) 0.0680(4)
H8 H 0.746842 0.906768 0.108051
C16 C 0.7796(5) 0.6762(5) 0.0231(4)
H11 H 0.791662 0.615081 0.032533
C18 C 0.1339(11) 0.8336(13) 0.3305(10)
H12 H 0.076385 0.842079 0.305928
C19 C 0.2198(9) 0.8823(7) 0.3217(5)
C20 C 0.2934(9) 0.8655(11) 0.3475(10)
H13 H 0.350672 0.901835 0.343520
C21 C 0.2108(10) 0.9593(8) 0.2775(6)
C22 C 0.4383(7) 0.7718(7) 0.6104(8)
H14 H 0.458314 0.834443 0.643285
C23 C 0.4923(4) 0.6955(5) 0.6092(3)
C24 C 0.4653(7) 0.6145(7) 0.5588(6)
H15 H 0.503913 0.559676 0.551783
C25 C 0.5822(4) 0.7046(5) 0.6576(4)
C29 C 0.6663(4) 0.6980(4) 0.1990(4)
C30 C 0.6214(5) 0.7350(5) 0.2652(4)
H17 H 0.646450 0.794701 0.299438
C31 C 0.5404(5) 0.6882(5) 0.2843(4)
H18 H 0.511127 0.715213 0.330962
C32 C 0.5029(4) 0.6018(5) 0.2345(4)
C33 C 0.5448(5) 0.5665(7) 0.1690(5)
H19 H 0.519821 0.506431 0.135158
C34 C 0.6255(6) 0.6158(7) 0.1481(5)
H20 H 0.650881 0.592092 0.099382
C35 C 0.4186(4) 0.5467(5) 0.2559(4)
C36 C 0.8678(4) 0.6823(5) 0.1915(4)
C37 C 0.8561(5) 0.5980(7) 0.2087(7)
H21 H 0.793090 0.572004 0.211078
C38 C 0.9317(6) 0.5453(8) 0.2236(8)
H22 H 0.920283 0.487561 0.239557
C41 C 0.9580(5) 0.7100(8) 0.1789(6)
H24 H 0.969264 0.767055 0.162013
Eu5 Eu 0.74163(2) 0.55107(2) 0.70536(2)
O17 O 0.2426(3) 0.3039(3) 0.1962(2)
O20 O 0.3818(3) 0.3742(4) 0.3431(3)
O22 O 0.1805(3) 0.3454(3) 0.3572(3)
Zn3 Zn 0.73655(4) 0.84721(5) 0.73447(4)
O4 O 0.7574(3) 0.6961(3) 0.8038(2)
O5 O 0.7463(4) 0.8575(3) 0.8434(2)
C13 C 0.7528(6) 0.8554(5) 0.9947(4)
H9 H 0.746273 0.917274 0.984861
C14 C 0.7598(5) 0.7708(4) 0.9351(4)
C15 C 0.7721(6) 0.6810(5) 0.9516(4)
H10 H 0.775150 0.622494 0.911289
C17 C 0.7557(4) 0.7736(5) 0.8554(4)
O18 O 0.7227(3) 0.9788(4) 0.7207(3)
O21 O 0.8576(3) 0.8140(4) 0.6864(4)
O11 O 0.8195(3) 0.6546(3) 0.6428(3)
H3 H 0.984278 0.853601 0.594307
C26 C 0.9937(9) 0.6301(7) 0.5756(8)
H16 H 0.960080 0.574464 0.584093
C27 C 0.9644(4) 0.7138(5) 0.6055(4)
C28 C 0.8752(4) 0.7283(5) 0.6483(4)
O10 O 0.1424(3) 0.1860(4) 0.3136(4)
H3_2 H 0.015722 0.146399 0.405693
C26_2 C 0.0063(9) 0.3699(7) 0.4244(8)
H16_2 H 0.039920 0.425536 0.415907
C27_2 C 0.0356(4) 0.2862(5) 0.3945(4)
C28_2 C 0.1248(4) 0.2717(5) 0.3517(4)
O5_2 O 0.2537(4) 0.1425(3) 0.1566(2)
C13_2 C 0.2472(6) 0.1446(5) 0.0053(4)
H9_2 H 0.253727 0.082726 0.015139
C14_2 C 0.2402(5) 0.2292(4) 0.0649(4)
C15_2 C 0.2279(6) 0.3190(5) 0.0484(4)
H10_2 H 0.224850 0.377506 0.088711
C17_2 C 0.2443(4) 0.2264(5) 0.1446(4)
O19 O 0.3890(3) 0.2111(4) 0.3066(3)
O1_2 O 0.7861(3) 0.4356(3) 0.5956(2)
O6_2 O 0.8728(7) 0.0397(6) 0.7592(6)
O12_2 O 0.6146(3) 0.5315(3) 0.7901(3)
O13_2 O 0.6169(3) 0.4182(3) 0.6794(3)
O14_2 O 0.2133(3) 0.1381(3) 0.7665(2)
P1_2 P 0.77463(10) 0.33385(11) 0.54146(8)
P2_2 P 0.22615(10) 0.23908(11) 0.81845(8)
C1_2 C 0.8740(4) 0.3111(5) 0.4806(4)
C2_2 C 0.8972(9) 0.2284(7) 0.4426(11)
H1_2 H 0.850515 0.175273 0.432966
C3_2 C 0.9265(11) 0.3859(8) 0.4697(9)
H2_2 H 0.909827 0.451458 0.492940
C4_2 C 0.9889(10) 0.2085(8) 0.4126(11)
C5_2 C 0.6707(4) 0.3204(4) 0.4822(3)
C6_2 C 0.6421(7) 0.2342(6) 0.4318(7)
H4_2 H 0.678548 0.177987 0.426051
C7_2 C 0.6179(8) 0.3962(7) 0.4857(7)
H5_2 H 0.636757 0.458853 0.519011
C8_2 C 0.7710(6) 0.2397(6) 0.5858(4)
C9_2 C 0.8619(10) 0.2318(12) 0.6199(12)
H6_2 H 0.917172 0.267372 0.610715
C10_2 C 0.7072(10) 0.2092(8) 0.6162(9)
H7_2 H 0.648664 0.239763 0.615652
C11_2 C 0.2303(4) 0.2388(4) 0.9150(3)
C12_2 C 0.2447(6) 0.1509(5) 0.9320(4)
H8_2 H 0.253158 0.093232 0.891949
C16_2 C 0.2204(5) 0.3238(5) 0.9769(4)
H11_2 H 0.208338 0.384919 0.967467
C18_2 C 0.8661(11) 0.1664(13) 0.6695(10)
H12_2 H 0.923615 0.157921 0.694072
C19_2 C 0.7802(9) 0.1177(7) 0.6783(5)
C20_2 C 0.7066(9) 0.1345(11) 0.6525(10)
H13_2 H 0.649328 0.098165 0.656480
C21_2 C 0.7892(10) 0.0407(8) 0.7225(6)
C22_2 C 0.5617(7) 0.2282(7) 0.3896(8)
H14_2 H 0.541686 0.165557 0.356715
C23_2 C 0.5077(4) 0.3045(5) 0.3908(3)
C24_2 C 0.5347(7) 0.3855(7) 0.4412(6)
H15_2 H 0.496087 0.440324 0.448217
C25_2 C 0.4178(4) 0.2954(5) 0.3424(4)
C29_2 C 0.3337(4) 0.3020(4) 0.8010(4)
C30_2 C 0.3786(5) 0.2650(5) 0.7348(4)
H17_2 H 0.353550 0.205299 0.700562
C31_2 C 0.4596(5) 0.3118(5) 0.7157(4)
H18_2 H 0.488873 0.284787 0.669038
C32_2 C 0.4971(4) 0.3982(5) 0.7655(4)
C33_2 C 0.4552(5) 0.4335(7) 0.8310(5)
H19_2 H 0.480179 0.493569 0.864842
C34_2 C 0.3745(6) 0.3842(7) 0.8519(5)
H20_2 H 0.349119 0.407908 0.900618
C35_2 C 0.5814(4) 0.4533(5) 0.7441(4)
C36_2 C 0.1322(4) 0.3177(5) 0.8085(4)
C37_2 C 0.1439(5) 0.4020(7) 0.7913(7)
H21_2 H 0.206910 0.427996 0.788922
C38_2 C 0.0683(6) 0.4547(8) 0.7764(8)
H22_2 H 0.079717 0.512439 0.760443
C41_2 C 0.0420(5) 0.2900(8) 0.8211(6)
H24_2 H 0.030736 0.232945 0.837987
O15 O 0.8119(3) 0.4486(4) 0.7773(3)
O16 O 0.9111(3) 0.5479(3) 0.7392(3)
C39_2 C 0.9762(4) 0.4215(5) 0.7853(4)
C40_2 C 0.9648(6) 0.3441(8) 0.8098(7)
H23_2 H 0.902578 0.323516 0.820360
C42_2 C 0.8933(5) 0.4767(5) 0.7671(4)
loop_
_geom_bond_atom_site_label_1
_geom_bond_atom_site_label_2
_geom_bond_site_symmetry_1
_geom_bond_site_symmetry_2
O2 C42 1_555 1_555
O3 C42 1_555 1_555
C40 C39 1_555 1_555
H23 C40 1_555 1_555
C42 C39 1_555 1_555
Eu2 O2 1_555 1_555
O3 Eu2 1_555 1_555
Zn4 O7 1_555 1_555
Eu2 O1 1_555 1_555
O1 P1 1_555 1_555
O6 C21 1_555 1_555
O8 C25 1_555 1_555
O9 C25 1_555 1_555
O12 Eu2 1_555 1_555
O13 Eu2 1_555 1_555
O14 P2 1_555 1_555
P1 C1 1_555 1_555
P2 C11 1_555 1_555
C1 C2 1_555 1_555
C2 H1 1_555 1_555
C3 C1 1_555 1_555
H2 C3 1_555 1_555
C4 C2 1_555 1_555
C5 P1 1_555 1_555
C6 C5 1_555 1_555
H4 C6 1_555 1_555
C7 C5 1_555 1_555
H5 C7 1_555 1_555
C8 P1 1_555 1_555
C9 C8 1_555 1_555
H6 C9 1_555 1_555
C10 C8 1_555 1_555
H7 C10 1_555 1_555
C11 C12 1_555 1_555
C12 H8 1_555 1_555
C16 C11 1_555 1_555
H11 C16 1_555 1_555
C18 C9 1_555 1_555
H12 C18 1_555 1_555
C19 C18 1_555 1_555
C20 C10 1_555 1_555
H13 C20 1_555 1_555
C21 C19 1_555 1_555
C22 C6 1_555 1_555
H14 C22 1_555 1_555
C23 C22 1_555 1_555
C24 C7 1_555 1_555
H15 C24 1_555 1_555
C25 C23 1_555 1_555
C29 P2 1_555 1_555
C30 C29 1_555 1_555
H17 C30 1_555 1_555
C31 C30 1_555 1_555
H18 C31 1_555 1_555
C32 C31 1_555 1_555
C33 C32 1_555 1_555
H19 C33 1_555 1_555
C34 C29 1_555 1_555
H20 C34 1_555 1_555
C35 O12 1_555 1_555
C36 P2 1_555 1_555
C37 C36 1_555 1_555
H21 C37 1_555 1_555
C38 C37 1_555 1_555
H22 C38 1_555 1_555
C41 C36 1_555 1_555
H24 C41 1_555 1_555
Eu5 O9 1_555 1_555
O17 Eu2 1_555 1_555
O20 Eu2 1_555 1_555
O22 Eu2 1_555 1_555
Zn3 O8 1_555 1_555
O13 C35 1_555 1_555
C19 C20 1_555 1_555
C23 C24 1_555 1_555
C32 C35 1_555 1_555
C33 C34 1_555 1_555
O4 C17 1_555 1_555
O5 C17 1_555 1_555
H9 C13 1_555 1_555
C14 C13 1_555 1_555
C15 C14 1_555 1_555
H10 C15 1_555 1_555
C17 C14 1_555 1_555
Zn3 O5 1_555 1_555
Eu5 O4 1_555 1_555
O18 Zn3 1_555 1_555
O21 Zn3 1_555 1_555
O21 C28 1_555 1_555
O11 C28 1_555 1_555
H16 C26 1_555 1_555
C28 C27 1_555 1_555
Eu5 O11 1_555 1_555
C26 C27 1_555 1_555
O10 C28_2 1_555 1_555
O22 C28_2 1_555 1_555
H16_2 C26_2 1_555 1_555
C28_2 C27_2 1_555 1_555
Zn4 O10 1_555 1_555
C26_2 C27_2 1_555 1_555
O17 C17_2 1_555 1_555
O5_2 C17_2 1_555 1_555
H9_2 C13_2 1_555 1_555
C14_2 C13_2 1_555 1_555
C15_2 C14_2 1_555 1_555
H10_2 C15_2 1_555 1_555
C17_2 C14_2 1_555 1_555
Zn4 O5_2 1_555 1_555
O19 Zn4 1_555 1_555
Eu5 O1_2 1_555 1_555
O1_2 P1_2 1_555 1_555
O6_2 C21_2 1_555 1_555
O19 C25_2 1_555 1_555
O20 C25_2 1_555 1_555
O12_2 Eu5 1_555 1_555
O13_2 Eu5 1_555 1_555
O14_2 P2_2 1_555 1_555
P1_2 C1_2 1_555 1_555
P2_2 C11_2 1_555 1_555
C1_2 C2_2 1_555 1_555
C2_2 H1_2 1_555 1_555
C3_2 C1_2 1_555 1_555
H2_2 C3_2 1_555 1_555
C4_2 C2_2 1_555 1_555
C5_2 P1_2 1_555 1_555
C6_2 C5_2 1_555 1_555
H4_2 C6_2 1_555 1_555
C7_2 C5_2 1_555 1_555
H5_2 C7_2 1_555 1_555
C8_2 P1_2 1_555 1_555
C9_2 C8_2 1_555 1_555
H6_2 C9_2 1_555 1_555
C10_2 C8_2 1_555 1_555
H7_2 C10_2 1_555 1_555
C11_2 C12_2 1_555 1_555
C12_2 H8_2 1_555 1_555
C16_2 C11_2 1_555 1_555
H11_2 C16_2 1_555 1_555
C18_2 C9_2 1_555 1_555
H12_2 C18_2 1_555 1_555
C19_2 C18_2 1_555 1_555
C20_2 C10_2 1_555 1_555
H13_2 C20_2 1_555 1_555
C21_2 C19_2 1_555 1_555
C22_2 C6_2 1_555 1_555
H14_2 C22_2 1_555 1_555
C23_2 C22_2 1_555 1_555
C24_2 C7_2 1_555 1_555
H15_2 C24_2 1_555 1_555
C25_2 C23_2 1_555 1_555
C29_2 P2_2 1_555 1_555
C30_2 C29_2 1_555 1_555
H17_2 C30_2 1_555 1_555
C31_2 C30_2 1_555 1_555
H18_2 C31_2 1_555 1_555
C32_2 C31_2 1_555 1_555
C33_2 C32_2 1_555 1_555
H19_2 C33_2 1_555 1_555
C34_2 C29_2 1_555 1_555
H20_2 C34_2 1_555 1_555
C35_2 O12_2 1_555 1_555
C36_2 P2_2 1_555 1_555
C37_2 C36_2 1_555 1_555
H21_2 C37_2 1_555 1_555
C38_2 C37_2 1_555 1_555
H22_2 C38_2 1_555 1_555
C41_2 C36_2 1_555 1_555
H24_2 C41_2 1_555 1_555
O15 Eu5 1_555 1_555
O16 Eu5 1_555 1_555
O13_2 C35_2 1_555 1_555
C19_2 C20_2 1_555 1_555
C23_2 C24_2 1_555 1_555
C32_2 C35_2 1_555 1_555
C33_2 C34_2 1_555 1_555
O15 C42_2 1_555 1_555
O16 C42_2 1_555 1_555
C40_2 C39_2 1_555 1_555
H23_2 C40_2 1_555 1_555
C42_2 C39_2 1_555 1_555

#END
