
###############################################################################
#
# This file contains modified crystal structure data generated from the
# MOF subset of the Cambridge Structural Database (CSD) v543 
# hosted by the Cambridge Crystallographic Data Centre (CCDC).
#
# This work is licensed under the Creative Commons
# Attribution-NonCommercial-ShareAlike 4.0 International License.
# To view a copy of this license, visit
# http://creativecommons.org/licenses/by-nc-sa/4.0/
# or send a letter to
# Creative Commons, PO Box 1866, Mountain View, CA 94042, USA.
#
# CIF created using the CSD Python API on 29 September 2022
# The structure has been converted into the P1 space group
# The structure has a 3D framework
# The original CSD entry JUVMIZ is in the triclinic crystal system
# The framework has been calculated to contain at least 10.0% void space
# The void calculation uses a probe of radius 1.32A, grid spacing 0.4
#
###############################################################################

data_JUVMIZ
_chemical_formula_moiety         '(C42 H24 O14 P2)n'
_symmetry_cell_setting           triclinic
_symmetry_space_group_name_H-M   'P 1'
_symmetry_Int_Tables_number      1
_space_group_name_Hall           'P 1'
loop_
_symmetry_equiv_pos_site_id
_symmetry_equiv_pos_as_xyz
1 x,y,z
_cell_length_a                   10.8625(6)
_cell_length_b                   11.8240(6)
_cell_length_c                   14.3242(8)
_cell_angle_alpha                75.704(2)
_cell_angle_beta                 74.286(2)
_cell_angle_gamma                65.377(2)
_cell_volume                     1590.96
loop_
_atom_site_label
_atom_site_type_symbol
_atom_site_fract_x
_atom_site_fract_y
_atom_site_fract_z
Tb6 Tb 0.00243(3) 0.44750(3) 0.37109(2)
C16 C 0.0049(8) 0.1490(7) 0.6426(5)
C18 C 0.0873(10) 0.0904(7) 0.7144(6)
H11 H 0.114701 0.137954 0.741463
O4 O 0.1482(6) 0.4531(6) 0.2088(4)
C12 C 0.0816(8) 0.5804(7) 0.0601(5)
C13 C 0.0533(7) 0.5319(7) 0.1690(5)
C14 C 0.1949(8) 0.5117(8) 0.0001(5)
H8 H 0.255875 0.435302 0.026392
P1 P 0.14875(17) 0.72135(15) 0.73107(11)
O2 O 0.7610(6) 0.5612(6) 0.4196(4)
C1 C 0.1307(7) 0.6691(6) 0.8610(4)
C2 C 0.4876(8) 0.6377(8) 0.5193(5)
H1 H 0.505675 0.630940 0.453183
C3 C 0.0812(7) 0.8903(6) 0.7087(5)
C4 C 0.3280(7) 0.6763(6) 0.6709(5)
C6 C 0.3543(7) 0.6623(7) 0.5735(5)
H3 H 0.283811 0.669237 0.544694
C7 C 0.5935(7) 0.6232(7) 0.5630(5)
C8 C 0.0173(9) 0.7390(8) 0.9228(6)
C9 C 0.5661(7) 0.6370(9) 0.6613(6)
H5 H 0.637313 0.626804 0.690742
C10 C 0.4324(8) 0.6658(9) 0.7156(5)
H6 H 0.412973 0.677974 0.780507
C11 C 0.1278(9) 0.9614(8) 0.7449(6)
H7 H 0.186559 0.922035 0.789828
O6 O 0.8332(6) 0.5789(6) 0.5421(5)
C20 C 0.7403(7) 0.5875(7) 0.5033(6)
O7 O 0.0745(5) 0.6724(5) 0.6858(4)
C21 C 0.2209(8) 0.5549(8) 0.8993(5)
H12 H 0.298064 0.507139 0.858636
Tb3 Tb 0.99757(3) 0.55250(3) 0.62891(2)
O8 O 0.0679(6) 0.4283(5) 0.7848(4)
O9 O 0.2390(6) 0.4388(6) 0.5804(4)
O10 O 0.0560(6) 0.6805(5) 0.4843(4)
O3 O 0.9440(6) 0.3195(5) 0.5157(4)
O5 O 0.9904(7) 0.3513(5) 0.6478(4)
C17 C 0.9585(9) 0.0768(7) 0.6087(6)
H10 H 0.902428 0.115486 0.562033
C19 C 0.9763(7) 0.2843(6) 0.5988(5)
O1 O 0.9321(6) 0.5717(5) 0.2152(4)
C15 C 0.9922(9) 0.6939(8) 0.0215(6)
H9 H 0.914186 0.740560 0.062229
C5 C 0.9921(8) 0.9510(7) 0.6411(6)
H2 H 0.956337 0.905859 0.618725
H4 H 0.957505 0.816927 0.897623
O11 O 0.8518(6) 0.5469(6) 0.7912(4)
C5_2 C 0.0079(8) 0.0490(7) 0.3589(6)
H2_2 H 0.043663 0.094141 0.381275
H4_2 H 0.042495 0.183073 0.102377
O12 O 0.0096(7) 0.6487(5) 0.3522(4)
O13 O 0.1668(6) 0.4211(6) 0.4579(5)
C15_2 C 0.0078(9) 0.3061(8) 0.9785(6)
H9_2 H 0.085814 0.259440 0.937771
C17_2 C 0.0415(9) 0.9232(7) 0.3913(6)
H10_2 H 0.097572 0.884514 0.437967
C19_2 C 0.0237(7) 0.7157(6) 0.4012(5)
P1_2 P 0.85125(17) 0.27865(15) 0.26893(11)
C1_2 C 0.8693(7) 0.3309(6) 0.1390(4)
C2_2 C 0.5124(8) 0.3623(8) 0.4807(5)
H1_2 H 0.494325 0.369060 0.546817
C3_2 C 0.9188(7) 0.1097(6) 0.2913(5)
C4_2 C 0.6720(7) 0.3237(6) 0.3291(5)
C6_2 C 0.6457(7) 0.3377(7) 0.4265(5)
H3_2 H 0.716189 0.330763 0.455306
C7_2 C 0.4065(7) 0.3768(7) 0.4370(5)
C8_2 C 0.9827(9) 0.2610(8) 0.0772(6)
C9_2 C 0.4339(7) 0.3630(9) 0.3387(6)
H5_2 H 0.362687 0.373196 0.309258
C10_2 C 0.5676(8) 0.3342(9) 0.2844(5)
H6_2 H 0.587027 0.322026 0.219493
C11_2 C 0.8722(9) 0.0386(8) 0.2551(6)
H7_2 H 0.813441 0.077965 0.210172
C20_2 C 0.2597(7) 0.4125(7) 0.4967(6)
O7_2 O 0.9255(5) 0.3276(5) 0.3142(4)
C21_2 C 0.7791(8) 0.4451(8) 0.1007(5)
H12_2 H 0.701936 0.492861 0.141364
C12_2 C 0.9184(8) 0.4196(7) 0.9399(5)
C13_2 C 0.9467(7) 0.4681(7) 0.8310(5)
C14_2 C 0.8051(8) 0.4883(8) 0.9999(5)
H8_2 H 0.744125 0.564698 0.973608
C16_2 C 0.9951(8) 0.8510(7) 0.3574(5)
C18_2 C 0.9127(10) 0.9096(7) 0.2856(6)
H11_2 H 0.885299 0.862046 0.258537
loop_
_geom_bond_atom_site_label_1
_geom_bond_atom_site_label_2
_geom_bond_site_symmetry_1
_geom_bond_site_symmetry_2
H11 C18 1_555 1_555
C16 C18 1_555 1_555
O4 C13 1_555 1_555
C12 C13 1_555 1_555
C14 C12 1_555 1_555
H8 C14 1_555 1_555
O4 Tb6 1_555 1_555
P1 C1 1_555 1_555
O2 C20 1_555 1_555
C1 C8 1_555 1_555
C2 H1 1_555 1_555
C3 P1 1_555 1_555
C4 P1 1_555 1_555
C6 C2 1_555 1_555
H3 C6 1_555 1_555
C7 C2 1_555 1_555
C9 C7 1_555 1_555
H5 C9 1_555 1_555
C10 C4 1_555 1_555
H6 C10 1_555 1_555
C11 C3 1_555 1_555
H7 C11 1_555 1_555
O6 C20 1_555 1_555
C20 C7 1_555 1_555
O7 P1 1_555 1_555
C21 C1 1_555 1_555
H12 C21 1_555 1_555
Tb3 O6 1_555 1_555
C4 C6 1_555 1_555
C9 C10 1_555 1_555
O3 C19 1_555 1_555
O5 C19 1_555 1_555
H10 C17 1_555 1_555
Tb3 O5 1_555 1_555
H9 C15 1_555 1_555
H2 C5 1_555 1_555
O11 Tb3 1_555 1_555
H2_2 C5_2 1_555 1_555
O12 Tb6 1_555 1_555
O13 Tb6 1_555 1_555
H9_2 C15_2 1_555 1_555
O10 C19_2 1_555 1_555
O12 C19_2 1_555 1_555
H10_2 C17_2 1_555 1_555
P1_2 C1_2 1_555 1_555
O9 C20_2 1_555 1_555
C1_2 C8_2 1_555 1_555
C2_2 H1_2 1_555 1_555
C3_2 P1_2 1_555 1_555
C4_2 P1_2 1_555 1_555
C6_2 C2_2 1_555 1_555
H3_2 C6_2 1_555 1_555
C7_2 C2_2 1_555 1_555
C9_2 C7_2 1_555 1_555
H5_2 C9_2 1_555 1_555
C10_2 C4_2 1_555 1_555
H6_2 C10_2 1_555 1_555
C11_2 C3_2 1_555 1_555
H7_2 C11_2 1_555 1_555
O13 C20_2 1_555 1_555
C20_2 C7_2 1_555 1_555
O7_2 P1_2 1_555 1_555
C21_2 C1_2 1_555 1_555
H12_2 C21_2 1_555 1_555
C4_2 C6_2 1_555 1_555
C9_2 C10_2 1_555 1_555
O11 C13_2 1_555 1_555
C12_2 C13_2 1_555 1_555
C14_2 C12_2 1_555 1_555
H8_2 C14_2 1_555 1_555
H11_2 C18_2 1_555 1_555
C16_2 C18_2 1_555 1_555

#END
