
###############################################################################
#
# This file contains modified crystal structure data generated from the
# MOF subset of the Cambridge Structural Database (CSD) v543 
# hosted by the Cambridge Crystallographic Data Centre (CCDC).
#
# This work is licensed under the Creative Commons
# Attribution-NonCommercial-ShareAlike 4.0 International License.
# To view a copy of this license, visit
# http://creativecommons.org/licenses/by-nc-sa/4.0/
# or send a letter to
# Creative Commons, PO Box 1866, Mountain View, CA 94042, USA.
#
# CIF created using the CSD Python API on 29 September 2022
# The structure has been converted into the P1 space group
# The structure has a 3D framework
# The original CSD entry JUVPUO is in the triclinic crystal system
# The framework has been calculated to contain at least 10.0% void space
# The void calculation uses a probe of radius 1.32A, grid spacing 0.4
#
###############################################################################

data_JUVPUO
_chemical_formula_moiety         '(C76 H62 Cd4 N8 O16)n'
_symmetry_cell_setting           triclinic
_symmetry_space_group_name_H-M   'P 1'
_symmetry_Int_Tables_number      1
_space_group_name_Hall           'P 1'
loop_
_symmetry_equiv_pos_site_id
_symmetry_equiv_pos_as_xyz
1 x,y,z
_cell_length_a                   13.6803(13)
_cell_length_b                   13.8392(13)
_cell_length_c                   14.6811(15)
_cell_angle_alpha                101.399(2)
_cell_angle_beta                 99.384(2)
_cell_angle_gamma                116.889(2)
_cell_volume                     2326.59
loop_
_atom_site_label
_atom_site_type_symbol
_atom_site_fract_x
_atom_site_fract_y
_atom_site_fract_z
Cd6 Cd -0.000000 0.500000 -0.000000
N6 N 0.0105(3) 0.6395(3) 0.4020(2)
C50 C 0.0640(6) 0.6977(7) 0.5735(4)
H40 H 0.103234 0.697258 0.631322
C51 C 0.0732(5) 0.6501(6) 0.4868(4)
H41 H 0.125174 0.624175 0.486941
Cd11 Cd 0.03175(2) 0.56581(2) 0.25925(2)
H7 H 0.159578 0.281568 0.021562
H8 H 0.423125 0.035506 0.017409
H13 H 0.261114 0.187291 0.028530
O15 O 0.1762(2) 0.5455(2) 0.35501(18)
N8 N 0.2929(3) 0.4855(3) 0.4100(3)
C73 C 0.2224(3) 0.4871(3) 0.3387(3)
C74 C 0.2011(4) 0.4177(4) 0.2383(3)
H54 H 0.151852 0.429646 0.192953
H55 H 0.272518 0.440401 0.223355
H56 H 0.165167 0.338580 0.234037
C75 C 0.3488(5) 0.4173(5) 0.3979(4)
H57 H 0.294226 0.342057 0.355200
H58 H 0.410416 0.452315 0.370698
H59 H 0.378484 0.412904 0.459920
C76 C 0.3174(5) 0.5557(5) 0.5087(4)
H60 H 0.248441 0.529442 0.528073
H61 H 0.373589 0.550122 0.552414
H62 H 0.346285 0.633671 0.510258
Cd6_2 Cd 1.000000 0.500000 -0.000000
O20 O 0.13268(16) 0.58787(17) 0.15071(15)
O25 O 0.20903(19) 0.7476(2) 0.26959(19)
H10 H 0.316213 0.845836 0.005390
H29 H 0.290587 0.963166 0.471898
O9 O 0.7063(2) 0.6372(2) 0.3641(2)
N5 N 0.8548(3) 0.7778(3) 0.4909(2)
H32 H 0.878343 0.841166 0.534742
C39 C 0.9366(3) 0.6766(3) 0.4049(2)
H33 H 0.886991 0.663043 0.346363
C40 C 0.9286(3) 0.7337(4) 0.4886(3)
C41 C 0.7469(3) 0.7264(4) 0.4276(3)
C42 C 0.6820(4) 0.7878(4) 0.4403(3)
C43 C 0.5683(3) 0.7323(4) 0.3980(3)
H34 H 0.531927 0.656379 0.360436
C44 C 0.5043(4) 0.7848(4) 0.4087(3)
H35 H 0.425710 0.743283 0.378977
C45 C 0.5530(4) 0.8952(5) 0.4614(4)
C46 C 0.9948(5) 0.7468(6) 0.5737(4)
H36 H 0.994380 0.787982 0.631791
C47 C 0.4827(4) 0.9492(4) 0.4731(4)
H37 H 0.405568 0.905683 0.438260
C48 C 0.7360(5) 0.9028(5) 0.4868(5)
H38 H 0.815357 0.944166 0.511471
C49 C 0.6725(5) 0.9588(6) 0.4975(5)
O13 O 0.88224(19) 0.35271(18) 0.05085(18)
O14 O 0.9336(2) 0.37930(19) 0.20999(18)
C60 C 0.8145(2) 0.1936(2) 0.1069(2)
C61 C 0.8819(2) 0.3188(3) 0.1223(2)
C66 C 0.6479(3) 0.0101(3) 0.0289(3)
C68 C 0.7113(3) 0.1243(3) 0.0369(3)
C70 C 0.8559(3) 0.1465(3) 0.1658(3)
H51 H 0.926457 0.192593 0.212678
C72 C 0.7942(3) 0.0310(3) 0.1564(3)
H53 H 0.824175 0.000096 0.195792
O17 O 0.91578(18) 0.60045(18) 0.03574(17)
O22 O 0.89472(19) 0.5935(2) 0.18221(17)
C52 C 0.8031(2) 0.6694(2) 0.0945(2)
N7 N 0.6217(2) 0.8460(2) 0.0812(2)
C53 C 0.8764(2) 0.6157(2) 0.1045(2)
C54 C 0.5199(2) 0.8100(2) 0.1088(2)
C55 C 0.7414(3) 0.6735(3) 0.1593(2)
H42 H 0.741332 0.637945 0.206882
C56 C 0.4029(3) 0.8464(3) 0.1995(2)
H43 H 0.392458 0.897405 0.242661
C57 C 0.6798(3) 0.7294(3) 0.1548(3)
H44 H 0.638196 0.730751 0.198794
C58 C 0.6799(2) 0.7832(2) 0.0854(2)
C59 C 0.3186(2) 0.7329(2) 0.1634(2)
C62 C 0.6888(2) 0.9631(2) 0.0888(2)
C63 C 0.4356(2) 0.6962(3) 0.0728(3)
H45 H 0.446285 0.644921 0.030183
C64 C 0.2143(2) 0.6900(3) 0.1971(2)
C65 C 0.8007(3) 0.7215(3) 0.0236(2)
C67 C 0.3360(2) 0.6586(3) 0.0995(2)
H48 H 0.279629 0.582169 0.074186
C69 C 0.5028(3) 0.8851(3) 0.1720(3)
H50 H 0.558513 0.961790 0.196234
C71 C 0.7397(3) 0.7779(3) 0.0194(3)
Cd6_3 Cd -0.000000 0.500000 1.000000
O1 O 0.08422(18) 0.39955(18) 0.96426(17)
O2 O 0.86732(16) 0.41213(17) 0.84929(15)
O3 O 0.10528(19) 0.4065(2) 0.81779(17)
O7 O 0.79097(19) 0.2524(2) 0.73041(19)
C1 C 0.1969(2) 0.3306(2) 0.9055(2)
N1 N 0.3783(2) 0.1540(2) 0.9188(2)
C2 C 0.1236(2) 0.3843(2) 0.8955(2)
C3 C 0.4801(2) 0.1900(2) 0.8912(2)
C4 C 0.2586(3) 0.3265(3) 0.8407(2)
H2 H 0.258668 0.362055 0.793118
C5 C 0.5971(3) 0.1536(3) 0.8005(2)
H3 H 0.607542 0.102595 0.757339
C6 C 0.3202(3) 0.2706(3) 0.8452(3)
H4 H 0.361804 0.269249 0.801206
C7 C 0.3201(2) 0.2168(2) 0.9146(2)
C8 C 0.6814(2) 0.2671(2) 0.8366(2)
C12 C 0.3112(2) 0.0369(2) 0.9112(2)
C13 C 0.5644(2) 0.3038(3) 0.9272(3)
H6 H 0.553715 0.355079 0.969817
C14 C 0.7857(2) 0.3100(3) 0.8029(2)
C15 C 0.1993(3) 0.2785(3) 0.9764(2)
C17 C 0.6640(2) 0.3414(3) 0.9005(2)
H9 H 0.720371 0.417831 0.925814
C19 C 0.4972(3) 0.1149(3) 0.8280(3)
H11 H 0.441487 0.038210 0.803766
C21 C 0.2603(3) 0.2221(3) 0.9806(3)
Cd6_4 Cd 1.000000 0.500000 1.000000
Cd8 Cd 0.96825(2) 0.43419(2) 0.74075(2)
O23 O 0.11776(19) 0.64729(18) 0.94915(18)
O5 O 0.0664(2) 0.62070(19) 0.79001(18)
O8 O 0.2937(2) 0.3628(2) 0.6359(2)
N2 N 0.1452(3) 0.2222(3) 0.5091(2)
H1 H 0.121657 0.158834 0.465258
C9 C 0.1855(2) 0.8064(2) 0.8931(2)
C10 C 0.0634(3) 0.3234(3) 0.5951(2)
H5 H 0.113009 0.336957 0.653637
C11 C 0.1181(2) 0.6812(3) 0.8777(2)
C16 C 0.3521(3) 0.9899(3) 0.9711(3)
C18 C 0.2887(3) 0.8757(3) 0.9631(3)
C20 C 0.1441(3) 0.8535(3) 0.8342(3)
H12 H 0.073543 0.807407 0.787322
C22 C 0.2058(3) 0.9690(3) 0.8436(3)
H14 H 0.175825 0.999904 0.804208
C23 C 0.0714(3) 0.2663(4) 0.5114(3)
C25 C 0.2531(3) 0.2736(4) 0.5724(3)
C26 C 0.3180(4) 0.2122(4) 0.5597(3)
C28 C 0.4317(3) 0.2677(4) 0.6020(3)
H18 H 0.468073 0.343621 0.639564
C29 C 0.4957(4) 0.2152(4) 0.5913(3)
H19 H 0.574290 0.256717 0.621023
C30 C 0.4470(4) 0.1048(5) 0.5386(4)
C33 C 0.0052(5) 0.2532(6) 0.4263(4)
H26 H 0.005620 0.212018 0.368209
C34 C 0.5173(4) 0.0508(4) 0.5269(4)
H27 H 0.594432 0.094317 0.561740
C35 C 0.2640(5) 0.0972(5) 0.5132(5)
H28 H 0.184643 0.055834 0.488529
C36 C 0.3275(5) 0.0412(6) 0.5025(5)
H39 H 0.709413 0.036834 0.528102
H49 H 0.683787 0.154164 0.994610
O6 O 0.8238(2) 0.4545(2) 0.64499(18)
N3 N 0.9895(3) 0.3605(3) 0.5980(2)
N4 N 0.7071(3) 0.5145(3) 0.5900(3)
C24 C 0.7776(3) 0.5129(3) 0.6613(3)
C27 C 0.7989(4) 0.5823(4) 0.7617(3)
H15 H 0.848148 0.570354 0.807047
H16 H 0.727482 0.559599 0.776645
H17 H 0.834833 0.661420 0.765963
C31 C 0.6512(5) 0.5827(5) 0.6021(4)
H20 H 0.705774 0.657943 0.644800
H21 H 0.589584 0.547685 0.629302
H22 H 0.621516 0.587096 0.540080
C32 C 0.6826(5) 0.4443(5) 0.4913(4)
H23 H 0.751559 0.470558 0.471927
H24 H 0.626411 0.449878 0.447586
H25 H 0.653715 0.366329 0.489742
C37 C 0.9360(6) 0.3023(7) 0.4265(4)
H30 H 0.896766 0.302742 0.368678
C38 C 0.9268(5) 0.3499(6) 0.5132(4)
H31 H 0.874826 0.375825 0.513059
H46 H 0.840422 0.718432 0.978438
H47 H 0.576875 0.964494 0.982591
H52 H 0.738886 0.812709 0.971470
loop_
_geom_bond_atom_site_label_1
_geom_bond_atom_site_label_2
_geom_bond_site_symmetry_1
_geom_bond_site_symmetry_2
H40 C50 1_555 1_555
C51 N6 1_555 1_555
H41 C51 1_555 1_555
Cd11 N6 1_555 1_555
C50 C51 1_555 1_555
O15 Cd11 1_555 1_555
N8 C73 1_555 1_555
C73 O15 1_555 1_555
C74 C73 1_555 1_555
H54 C74 1_555 1_555
H55 C74 1_555 1_555
H56 C74 1_555 1_555
C75 N8 1_555 1_555
H57 C75 1_555 1_555
H58 C75 1_555 1_555
H59 C75 1_555 1_555
C76 N8 1_555 1_555
H60 C76 1_555 1_555
H61 C76 1_555 1_555
H62 C76 1_555 1_555
O20 Cd6 1_555 1_555
O25 Cd11 1_555 1_555
Cd11 O20 1_555 1_555
O9 C41 1_555 1_555
N5 H32 1_555 1_555
C39 H33 1_555 1_555
C40 N5 1_555 1_555
C41 N5 1_555 1_555
C42 C41 1_555 1_555
C43 C42 1_555 1_555
H34 C43 1_555 1_555
C44 C43 1_555 1_555
H35 C44 1_555 1_555
C45 C44 1_555 1_555
C46 C40 1_555 1_555
H36 C46 1_555 1_555
H37 C47 1_555 1_555
C48 C42 1_555 1_555
H38 C48 1_555 1_555
C49 C45 1_555 1_555
C39 C40 1_555 1_555
C45 C47 1_555 1_555
C48 C49 1_555 1_555
O13 Cd6_2 1_555 1_555
O14 C61 1_555 1_555
C60 C61 1_555 1_555
C61 O13 1_555 1_555
C68 C60 1_555 1_555
C70 C60 1_555 1_555
H51 C70 1_555 1_555
H53 C72 1_555 1_555
O17 Cd6_2 1_555 1_555
C66 C68 1_555 1_555
C70 C72 1_555 1_555
O17 C53 1_555 1_555
O20 C64 1_555 1_555
O22 C53 1_555 1_555
O25 C64 1_555 1_555
C52 C53 1_555 1_555
N7 C54 1_555 1_555
C54 C63 1_555 1_555
C55 C52 1_555 1_555
H42 C55 1_555 1_555
C56 H43 1_555 1_555
C57 C55 1_555 1_555
H44 C57 1_555 1_555
C58 N7 1_555 1_555
C59 C56 1_555 1_555
C62 N7 1_555 1_555
C63 H45 1_555 1_555
C64 C59 1_555 1_555
C65 C52 1_555 1_555
C67 C59 1_555 1_555
H48 C67 1_555 1_555
C69 C54 1_555 1_555
H50 C69 1_555 1_555
C71 C58 1_555 1_555
C56 C69 1_555 1_555
C57 C58 1_555 1_555
C63 C67 1_555 1_555
C65 C71 1_555 1_555
Cd6_3 O1 1_555 1_555
O1 C2 1_555 1_555
O2 C14 1_555 1_555
O3 C2 1_555 1_555
O7 C14 1_555 1_555
C1 C2 1_555 1_555
N1 C3 1_555 1_555
C3 C13 1_555 1_555
C4 C1 1_555 1_555
H2 C4 1_555 1_555
C5 H3 1_555 1_555
C6 C4 1_555 1_555
H4 C6 1_555 1_555
C7 N1 1_555 1_555
C8 C5 1_555 1_555
C12 N1 1_555 1_555
C13 H6 1_555 1_555
C14 C8 1_555 1_555
C15 C1 1_555 1_555
C17 C8 1_555 1_555
H9 C17 1_555 1_555
C19 C3 1_555 1_555
H11 C19 1_555 1_555
C21 C7 1_555 1_555
Cd6_4 O2 1_555 1_555
Cd8 O2 1_555 1_555
O23 Cd6_3 1_555 1_555
O7 Cd8 1_555 1_555
C5 C19 1_555 1_555
C6 C7 1_555 1_555
C13 C17 1_555 1_555
C15 C21 1_555 1_555
O23 C11 1_555 1_555
O5 C11 1_555 1_555
O8 C25 1_555 1_555
N2 H1 1_555 1_555
C9 C11 1_555 1_555
H5 C10 1_555 1_555
C18 C9 1_555 1_555
C20 C9 1_555 1_555
H12 C20 1_555 1_555
H14 C22 1_555 1_555
C23 N2 1_555 1_555
C25 N2 1_555 1_555
C26 C25 1_555 1_555
C28 C26 1_555 1_555
H18 C28 1_555 1_555
C29 C28 1_555 1_555
H19 C29 1_555 1_555
C30 C29 1_555 1_555
C33 C23 1_555 1_555
H26 C33 1_555 1_555
C34 C30 1_555 1_555
H27 C34 1_555 1_555
C35 C26 1_555 1_555
H28 C35 1_555 1_555
C36 C30 1_555 1_555
C10 C23 1_555 1_555
C16 C18 1_555 1_555
C20 C22 1_555 1_555
C35 C36 1_555 1_555
O6 Cd8 1_555 1_555
N3 Cd8 1_555 1_555
N4 C24 1_555 1_555
C24 O6 1_555 1_555
C27 C24 1_555 1_555
H15 C27 1_555 1_555
H16 C27 1_555 1_555
H17 C27 1_555 1_555
C31 N4 1_555 1_555
H20 C31 1_555 1_555
H21 C31 1_555 1_555
H22 C31 1_555 1_555
C32 N4 1_555 1_555
H23 C32 1_555 1_555
H24 C32 1_555 1_555
H25 C32 1_555 1_555
H30 C37 1_555 1_555
C38 N3 1_555 1_555
H31 C38 1_555 1_555
C37 C38 1_555 1_555

#END
