
###############################################################################
#
# This file contains modified crystal structure data generated from the
# MOF subset of the Cambridge Structural Database (CSD) v543 
# hosted by the Cambridge Crystallographic Data Centre (CCDC).
#
# This work is licensed under the Creative Commons
# Attribution-NonCommercial-ShareAlike 4.0 International License.
# To view a copy of this license, visit
# http://creativecommons.org/licenses/by-nc-sa/4.0/
# or send a letter to
# Creative Commons, PO Box 1866, Mountain View, CA 94042, USA.
#
# CIF created using the CSD Python API on 29 September 2022
# The structure has been converted into the P1 space group
# The structure has a 3D framework
# The original CSD entry JUVROJ is in the triclinic crystal system
# The framework has been calculated to contain at least 10.0% void space
# The void calculation uses a probe of radius 1.32A, grid spacing 0.4
#
###############################################################################

data_JUVROJ
_chemical_formula_moiety         '(C36 H20 Cd4 O19)n'
_symmetry_cell_setting           triclinic
_symmetry_space_group_name_H-M   'P 1'
_symmetry_Int_Tables_number      1
_space_group_name_Hall           'P 1'
loop_
_symmetry_equiv_pos_site_id
_symmetry_equiv_pos_as_xyz
1 x,y,z
_cell_length_a                   9.9428(8)
_cell_length_b                   10.4394(8)
_cell_length_c                   14.5779(12)
_cell_angle_alpha                107.050(5)
_cell_angle_beta                 109.127(6)
_cell_angle_gamma                90.079(5)
_cell_volume                     1358.8
loop_
_atom_site_label
_atom_site_type_symbol
_atom_site_fract_x
_atom_site_fract_y
_atom_site_fract_z
Cd1 Cd 0.0000 0.0000 0.0000
Cd2 Cd 0.10428(4) 0.29784(4) 0.20177(3)
O22 O 0.1840(5) 0.4925(4) 0.3378(3)
O24 O 0.3348(5) 0.2982(6) 0.1898(4)
O26 O 0.0991(5) 0.5160(4) 0.1850(3)
O28 O 0.1721(4) 0.1778(5) 0.0516(4)
O32 O 0.1408(6) 0.1509(4) 0.2859(3)
Cd1_2 Cd 0.0000 0.0000 1.0000
Cd1_3 Cd 0.0000 1.0000 0.0000
O31 O 0.0860(7) 0.9710(5) 0.1499(3)
Cd1_4 Cd 0.0000 1.0000 1.0000
O21 O 0.1026(4) 0.8149(4) 0.9303(3)
Cd1_5 Cd 1.0000 0.0000 0.0000
O1 O 0.8974(4) 0.1851(4) 0.0697(3)
O3 O 0.8531(5) 0.3158(6) 0.2013(3)
C1 C 0.8085(6) 0.2384(6) 0.1141(4)
C2 C 0.4086(6) 0.1968(5) 0.0473(4)
C3 C 0.5543(6) 0.2328(5) 0.1035(4)
H1 H 0.5848 0.2759 0.1736
C5 C 0.6519(6) 0.2037(6) 0.0542(4)
C10 C 0.2983(7) 0.2256(6) 0.1005(5)
Cd1_6 Cd 1.0000 0.0000 1.0000
O2 O 0.4093(5) 0.0402(6) 0.7913(3)
C4 C 0.6092(6) 0.1388(6) 0.9496(4)
H2 H 0.6768 0.1191 0.9174
C6 C 0.3638(7) 0.1339(6) 0.9431(5)
H3 H 0.2665 0.1120 0.9059
C8 C 0.4625(8) 0.1032(7) 0.8933(5)
C9 C 0.1286(6) 0.0284(6) 0.2427(4)
H7 H 0.5678 0.0547 0.7362
H8 H 0.2619 0.0864 0.4437
O14 O 0.8160(5) 0.5075(4) 0.6622(3)
O16 O 0.9009(5) 0.4840(4) 0.8150(3)
O18 O 0.9140(7) 0.0290(5) 0.8501(3)
C25 C 0.8484(7) 0.4346(6) 0.7204(5)
O19 O 0.6328(6) 0.0293(4) 0.4253(3)
C29 C 0.8537(7) 0.2033(6) 0.7346(4)
H14 H 0.9012 0.2414 0.8044
C30 C 0.8092(7) 0.2838(5) 0.6725(4)
C31 C 0.7352(8) 0.2322(7) 0.5705(5)
H15 H 0.7049 0.2892 0.5310
C32 C 0.8258(7) 0.0627(5) 0.6903(4)
C33 C 0.4889(9) 0.0173(9) 0.2593(6)
H16 H 0.4245 0.0660 0.2192
C34 C 0.7538(8) 0.0067(6) 0.5858(5)
C35 C 0.7051(8) 0.0906(6) 0.5252(5)
C36 C 0.5670(10) 0.1101(8) 0.3634(5)
H19 H 0.5010 0.1633 0.3908
H20 H 0.6389 0.1710 0.3613
Cd12 Cd 0.89572(4) 0.70216(4) 0.79823(3)
Cd1_7 Cd 1.0000 1.0000 0.0000
Cd1_8 Cd 1.0000 1.0000 1.0000
C7 C 0.1516(7) 0.5654(6) 0.2796(5)
O9 O 0.3672(6) 0.9707(4) 0.5747(3)
C11 C 0.1463(7) 0.7967(6) 0.2654(4)
H4 H 0.0988 0.7586 0.1956
C12 C 0.1908(7) 0.7162(5) 0.3275(4)
C13 C 0.2648(8) 0.7678(7) 0.4295(5)
H5 H 0.2951 0.7108 0.4690
C14 C 0.1742(7) 0.9373(5) 0.3097(4)
C15 C 0.5111(9) 0.9827(9) 0.7407(6)
H6 H 0.5755 0.9340 0.7808
C16 C 0.2462(8) 0.9933(6) 0.4142(5)
C17 C 0.2949(8) 0.9094(6) 0.4748(5)
C18 C 0.4330(10) 0.8899(8) 0.6366(5)
H9 H 0.4990 0.8367 0.6092
H10 H 0.3611 0.8290 0.6387
O12 O 0.5907(5) 0.9598(6) 0.2087(3)
C22 C 0.3908(6) 0.8612(6) 0.0504(4)
H12 H 0.3232 0.8809 0.0826
C24 C 0.6362(7) 0.8661(6) 0.0569(5)
H13 H 0.7335 0.8880 0.0941
C26 C 0.5375(8) 0.8968(7) 0.1067(5)
C27 C 0.8714(6) 0.9716(6) 0.7573(4)
O20 O 0.8592(6) 0.8491(4) 0.7141(3)
H17 H 0.4322 0.9453 0.2638
H18 H 0.7381 0.9136 0.5563
O30 O 0.8279(4) 0.8222(5) 0.9484(4)
O13 O 0.1469(5) 0.6842(6) 0.7987(3)
O15 O 0.6652(5) 0.7018(6) 0.8102(4)
C19 C 0.1915(6) 0.7616(6) 0.8859(4)
C20 C 0.5914(6) 0.8032(5) 0.9527(4)
C21 C 0.4457(6) 0.7672(5) 0.8965(4)
H11 H 0.4152 0.7241 0.8264
C23 C 0.3481(6) 0.7963(6) 0.9458(4)
C28 C 0.7017(7) 0.7744(6) 0.8995(5)
loop_
_geom_bond_atom_site_label_1
_geom_bond_atom_site_label_2
_geom_bond_site_symmetry_1
_geom_bond_site_symmetry_2
O22 Cd2 1_555 1_555
O24 Cd2 1_555 1_555
O26 Cd2 1_555 1_555
O28 Cd1 1_555 1_555
O32 Cd2 1_555 1_555
Cd2 O28 1_555 1_555
O31 Cd1_3 1_555 1_555
O21 Cd1_4 1_555 1_555
Cd1_5 O1 1_555 1_555
O1 C1 1_555 1_555
O24 C10 1_555 1_555
C1 O3 1_555 1_555
C2 C3 1_555 1_555
C3 H1 1_555 1_555
C5 C1 1_555 1_555
O28 C10 1_555 1_555
C10 C2 1_555 1_555
C3 C5 1_555 1_555
O2 C8 1_555 1_555
C4 H2 1_555 1_555
H3 C6 1_555 1_555
C8 C4 1_555 1_555
C9 O32 1_555 1_555
O14 C25 1_555 1_555
O16 C25 1_555 1_555
O18 Cd1_6 1_555 1_555
C25 C30 1_555 1_555
O19 C35 1_555 1_555
C29 H14 1_555 1_555
C30 C29 1_555 1_555
C31 C30 1_555 1_555
H15 C31 1_555 1_555
H16 C33 1_555 1_555
C34 C32 1_555 1_555
C35 C31 1_555 1_555
C36 O19 1_555 1_555
H19 C36 1_555 1_555
H20 C36 1_555 1_555
Cd12 O14 1_555 1_555
C6 C8 1_555 1_555
O16 Cd12 1_555 1_555
C29 C32 1_555 1_555
C33 C36 1_555 1_555
C34 C35 1_555 1_555
O22 C7 1_555 1_555
O26 C7 1_555 1_555
C7 C12 1_555 1_555
O9 C17 1_555 1_555
C11 H4 1_555 1_555
C12 C11 1_555 1_555
C13 C12 1_555 1_555
H5 C13 1_555 1_555
H6 C15 1_555 1_555
C16 C14 1_555 1_555
C17 C13 1_555 1_555
C18 O9 1_555 1_555
H9 C18 1_555 1_555
H10 C18 1_555 1_555
O12 C26 1_555 1_555
C22 H12 1_555 1_555
H13 C24 1_555 1_555
C26 C22 1_555 1_555
O20 C27 1_555 1_555
Cd12 O20 1_555 1_555
O30 Cd1_8 1_555 1_555
C11 C14 1_555 1_555
C15 C18 1_555 1_555
C16 C17 1_555 1_555
C24 C26 1_555 1_555
Cd12 O30 1_555 1_555
O21 C19 1_555 1_555
O15 C28 1_555 1_555
C19 O13 1_555 1_555
C20 C21 1_555 1_555
C21 H11 1_555 1_555
C23 C19 1_555 1_555
O30 C28 1_555 1_555
C28 C20 1_555 1_555
Cd12 O15 1_555 1_555
C21 C23 1_555 1_555

#END
