
###############################################################################
#
# This file contains modified crystal structure data generated from the
# MOF subset of the Cambridge Structural Database (CSD) v543 
# hosted by the Cambridge Crystallographic Data Centre (CCDC).
#
# This work is licensed under the Creative Commons
# Attribution-NonCommercial-ShareAlike 4.0 International License.
# To view a copy of this license, visit
# http://creativecommons.org/licenses/by-nc-sa/4.0/
# or send a letter to
# Creative Commons, PO Box 1866, Mountain View, CA 94042, USA.
#
# CIF created using the CSD Python API on 29 September 2022
# The structure has been converted into the P1 space group
# The structure has a 3D framework
# The original CSD entry JUWSUR is in the monoclinic crystal system
# The framework has been calculated to contain at least 10.0% void space
# The void calculation uses a probe of radius 1.32A, grid spacing 0.4
#
###############################################################################

data_JUWSUR
_chemical_formula_moiety         '(C72 H48 Eu8 O70)n'
_symmetry_cell_setting           triclinic
_symmetry_space_group_name_H-M   'P 1'
_symmetry_Int_Tables_number      1
_space_group_name_Hall           'P 1'
loop_
_symmetry_equiv_pos_site_id
_symmetry_equiv_pos_as_xyz
1 x,y,z
_cell_length_a                   16.5700(10)
_cell_length_b                   16.2600(10)
_cell_length_c                   10.3520(10)
_cell_angle_alpha                90
_cell_angle_beta                 94.670(10)
_cell_angle_gamma                90
_cell_volume                     2779.86
loop_
_atom_site_label
_atom_site_type_symbol
_atom_site_fract_x
_atom_site_fract_y
_atom_site_fract_z
O17 O 0.00642(15) 0.72934(16) 0.1161(2)
H11 H 0.0499(14) 0.755(2) 0.089(4)
Eu8 Eu 0.038612(7) 0.377924(7) 0.042854(11)
O27 O 0.06911(11) 0.53792(11) 0.04797(17)
Eu1 Eu 0.038612(7) 0.622076(7) 0.542854(11)
O1 O 0.35734(13) 0.32065(13) 0.44641(19)
H1 H 0.343(2) 0.354(2) 0.380(3)
C1 C 0.30933(16) 0.33260(16) 0.5442(2)
C2 C 0.32139(15) 0.28785(16) 0.6604(2)
C3 C 0.26878(16) 0.30174(16) 0.7571(2)
H2 H 0.2757 0.2707 0.8349
C4 C 0.20648(15) 0.35960(16) 0.7433(2)
C5 C 0.19776(15) 0.40612(15) 0.6287(2)
C6 C 0.24791(16) 0.39206(16) 0.5308(2)
H3 H 0.2407 0.4232 0.4531
C7 C 0.38840(15) 0.22709(15) 0.6882(2)
O2 O 0.41987(12) 0.19341(12) 0.59567(18)
O3 O 0.40822(12) 0.21303(12) 0.80580(18)
C8 C 0.15101(16) 0.36892(16) 0.8490(2)
O4 O 0.15868(12) 0.32236(12) 0.94646(18)
O5 O 0.09535(11) 0.42309(12) 0.83916(18)
C9 C 0.13811(15) 0.47461(15) 0.6077(2)
O6 O 0.06911(11) 0.46208(11) 0.54797(17)
O7 O 0.15874(11) 0.54592(11) 0.64273(19)
O8 O -0.0000 0.55072(15) 0.7500
H6 H 0.0379(14) 0.757(2) 0.415(4)
H7 H 0.043(3) 0.521(3) 0.781(6)
Eu4 Eu 0.538612(7) 0.122076(7) 0.542854(11)
Eu6 Eu 0.461388(7) 0.122076(7) 0.957146(11)
O19 O 0.08013(12) 0.69341(12) 0.90433(18)
O21 O 0.09178(12) 0.71303(12) 0.69420(18)
O23 O 0.15868(12) 0.67764(12) 0.44646(18)
O25 O 0.09535(11) 0.57691(12) 0.33916(18)
O10 O 0.64266(13) 0.32065(13) 0.05359(19)
H8 H 0.657(2) 0.354(2) 0.120(3)
H10 H 0.7593 0.4232 0.0469
H12 H 0.9621(14) 0.757(2) 0.085(4)
O22 O 0.84132(12) 0.67764(12) 0.05354(18)
O24 O 0.90465(11) 0.57691(12) 0.16084(18)
O8_2 O 1.0000 0.55072(15) 0.7500
H4 H 0.957(3) 0.521(3) 0.719(6)
O9 O 0.99358(15) 0.72934(16) 0.3839(2)
H5 H 0.9501(14) 0.755(2) 0.411(4)
Eu2 Eu 0.961388(7) 0.622076(7) 0.957146(11)
C10 C 0.69067(16) 0.33260(16) 0.9558(2)
C11 C 0.67861(15) 0.28785(16) 0.8396(2)
C12 C 0.73122(16) 0.30174(16) 0.7429(2)
H9 H 0.7243 0.2707 0.6651
C13 C 0.79352(15) 0.35960(16) 0.7567(2)
C14 C 0.80224(15) 0.40612(15) 0.8713(2)
C15 C 0.75209(16) 0.39206(16) 0.9692(2)
C16 C 0.61160(15) 0.22709(15) 0.8118(2)
O11 O 0.58013(12) 0.19341(12) 0.90433(18)
O12 O 0.59178(12) 0.21303(12) 0.69420(18)
C17 C 0.84899(16) 0.36892(16) 0.6510(2)
O13 O 0.84132(12) 0.32236(12) 0.55354(18)
O14 O 0.90465(11) 0.42309(12) 0.66084(18)
C18 C 0.86189(15) 0.47461(15) 0.8923(2)
O15 O 0.93089(11) 0.46208(11) 0.95203(17)
O16 O 0.84126(11) 0.54592(11) 0.85727(19)
Eu7 Eu 0.961388(7) 0.377924(7) 0.457146(11)
O18 O 0.91987(12) 0.69341(12) 0.59567(18)
O20 O 0.90822(12) 0.71303(12) 0.80580(18)
O26 O 0.93089(11) 0.53792(11) 0.45203(17)
O17_2 O 0.50642(15) 0.22934(16) 0.1161(2)
H11_2 H 0.5499(14) 0.255(2) 0.089(4)
H12_2 H 0.4621(14) 0.257(2) 0.085(4)
O22_2 O 0.34132(12) 0.17764(12) 0.05354(18)
O24_2 O 0.40465(11) 0.07691(12) 0.16084(18)
O27_2 O 0.56911(11) 0.03792(11) 0.04797(17)
O7_2 O 0.65874(11) 0.04592(11) 0.64273(19)
O8_3 O 0.5000 0.05072(15) 0.7500
H4_2 H 0.457(3) 0.021(3) 0.719(6)
O9_2 O 0.49358(15) 0.22934(16) 0.3839(2)
H5_2 H 0.4501(14) 0.255(2) 0.411(4)
H6_2 H 0.5379(14) 0.257(2) 0.415(4)
H7_2 H 0.543(3) 0.021(3) 0.781(6)
O16_2 O 0.34126(11) 0.04592(11) 0.85727(19)
O23_2 O 0.65868(12) 0.17764(12) 0.44646(18)
O25_2 O 0.59535(11) 0.07691(12) 0.33916(18)
O26_2 O 0.43089(11) 0.03792(11) 0.45203(17)
O10_2 O 0.14266(13) 0.82065(13) 0.05359(19)
H8_2 H 0.157(2) 0.854(2) 0.120(3)
H10_2 H 0.2593 0.9232 0.0469
Eu8_2 Eu 0.538612(7) 0.877924(7) 0.042854(11)
O1_2 O 0.85734(13) 0.82065(13) 0.44641(19)
H1_2 H 0.843(2) 0.854(2) 0.380(3)
C1_2 C 0.80933(16) 0.83260(16) 0.5442(2)
C2_2 C 0.82139(15) 0.78785(16) 0.6604(2)
C3_2 C 0.76878(16) 0.80174(16) 0.7571(2)
H2_2 H 0.7757 0.7707 0.8349
C4_2 C 0.70648(15) 0.85960(16) 0.7433(2)
C5_2 C 0.69776(15) 0.90612(15) 0.6287(2)
C6_2 C 0.74791(16) 0.89206(16) 0.5308(2)
H3_2 H 0.7407 0.9232 0.4531
C7_2 C 0.88840(15) 0.72709(15) 0.6882(2)
C8_2 C 0.65101(16) 0.86892(16) 0.8490(2)
O4_2 O 0.65868(12) 0.82236(12) 0.94646(18)
O5_2 O 0.59535(11) 0.92309(12) 0.83916(18)
C9_2 C 0.63811(15) 0.97461(15) 0.6077(2)
O6_2 O 0.56911(11) 0.96208(11) 0.54797(17)
C10_2 C 0.19067(16) 0.83260(16) 0.9558(2)
C11_2 C 0.17861(15) 0.78785(16) 0.8396(2)
C12_2 C 0.23122(16) 0.80174(16) 0.7429(2)
H9_2 H 0.2243 0.7707 0.6651
C13_2 C 0.29352(15) 0.85960(16) 0.7567(2)
C14_2 C 0.30224(15) 0.90612(15) 0.8713(2)
C15_2 C 0.25209(16) 0.89206(16) 0.9692(2)
C16_2 C 0.11160(15) 0.72709(15) 0.8118(2)
C17_2 C 0.34899(16) 0.86892(16) 0.6510(2)
O13_2 O 0.34132(12) 0.82236(12) 0.55354(18)
O14_2 O 0.40465(11) 0.92309(12) 0.66084(18)
C18_2 C 0.36189(15) 0.97461(15) 0.8923(2)
O15_2 O 0.43089(11) 0.96208(11) 0.95203(17)
Eu7_2 Eu 0.461388(7) 0.877924(7) 0.457146(11)
O8_4 O 0.0000 0.44928(15) 0.2500
H4_3 H 0.043(3) 0.479(3) 0.281(6)
O9_3 O 0.00642(15) 0.27066(16) 0.6161(2)
H5_3 H 0.0499(14) 0.245(2) 0.589(4)
C10_3 C 0.30933(16) 0.66740(16) 0.0442(2)
C11_3 C 0.32139(15) 0.71215(16) 0.1604(2)
C12_3 C 0.26878(16) 0.69826(16) 0.2571(2)
H9_3 H 0.2757 0.7293 0.3349
C13_3 C 0.20648(15) 0.64040(16) 0.2433(2)
C14_3 C 0.19776(15) 0.59388(15) 0.1287(2)
C15_3 C 0.24791(16) 0.60794(16) 0.0308(2)
C16_3 C 0.38840(15) 0.77291(15) 0.1882(2)
O11_2 O 0.41987(12) 0.80659(12) 0.09567(18)
O12_2 O 0.40822(12) 0.78697(12) 0.30580(18)
C17_3 C 0.15101(16) 0.63108(16) 0.3490(2)
C18_3 C 0.13811(15) 0.52539(15) 0.1077(2)
O16_3 O 0.15874(11) 0.45408(11) 0.14273(19)
O18_2 O 0.08013(12) 0.30659(12) 0.40433(18)
O20_2 O 0.09178(12) 0.28697(12) 0.19420(18)
O10_3 O 0.35734(13) 0.67935(13) 0.94641(19)
H8_3 H 0.343(2) 0.646(2) 0.880(3)
H10_3 H 0.2407 0.5768 0.9531
H12_3 H 0.0379(14) 0.243(2) 0.915(4)
O1_3 O 0.64266(13) 0.67935(13) 0.55359(19)
H1_3 H 0.657(2) 0.646(2) 0.620(3)
C1_3 C 0.69067(16) 0.66740(16) 0.4558(2)
C2_3 C 0.67861(15) 0.71215(16) 0.3396(2)
C3_3 C 0.73122(16) 0.69826(16) 0.2429(2)
H2_3 H 0.7243 0.7293 0.1651
C4_3 C 0.79352(15) 0.64040(16) 0.2567(2)
C5_3 C 0.80224(15) 0.59388(15) 0.3713(2)
C6_3 C 0.75209(16) 0.60794(16) 0.4692(2)
H3_3 H 0.7593 0.5768 0.5469
C7_3 C 0.61160(15) 0.77291(15) 0.3118(2)
O2_2 O 0.58013(12) 0.80659(12) 0.40433(18)
O3_2 O 0.59178(12) 0.78697(12) 0.19420(18)
C8_3 C 0.84899(16) 0.63108(16) 0.1510(2)
C9_3 C 0.86189(15) 0.52539(15) 0.3923(2)
O7_3 O 0.84126(11) 0.45408(11) 0.35727(19)
O8_5 O 1.0000 0.44928(15) 0.2500
H6_3 H 0.9621(14) 0.243(2) 0.585(4)
H7_3 H 0.957(3) 0.479(3) 0.219(6)
O19_2 O 0.91987(12) 0.30659(12) 0.09567(18)
O21_2 O 0.90822(12) 0.28697(12) 0.30580(18)
O17_3 O 0.99358(15) 0.27066(16) 0.8839(2)
H11_3 H 0.9501(14) 0.245(2) 0.911(4)
O1_4 O 0.14266(13) 0.17935(13) 0.55359(19)
H1_4 H 0.157(2) 0.146(2) 0.620(3)
C1_4 C 0.19067(16) 0.16740(16) 0.4558(2)
C2_4 C 0.17861(15) 0.21215(16) 0.3396(2)
C3_4 C 0.23122(16) 0.19826(16) 0.2429(2)
H2_4 H 0.2243 0.2293 0.1651
C4_4 C 0.29352(15) 0.14040(16) 0.2567(2)
C5_4 C 0.30224(15) 0.09388(15) 0.3713(2)
C6_4 C 0.25209(16) 0.10794(16) 0.4692(2)
H3_4 H 0.2593 0.0768 0.5469
C7_4 C 0.11160(15) 0.27291(15) 0.3118(2)
C8_4 C 0.34899(16) 0.13108(16) 0.1510(2)
C9_4 C 0.36189(15) 0.02539(15) 0.3923(2)
C10_4 C 0.80933(16) 0.16740(16) 0.0442(2)
C11_4 C 0.82139(15) 0.21215(16) 0.1604(2)
C12_4 C 0.76878(16) 0.19826(16) 0.2571(2)
H9_4 H 0.7757 0.2293 0.3349
C13_4 C 0.70648(15) 0.14040(16) 0.2433(2)
C14_4 C 0.69776(15) 0.09388(15) 0.1287(2)
C15_4 C 0.74791(16) 0.10794(16) 0.0308(2)
C16_4 C 0.88840(15) 0.27291(15) 0.1882(2)
C17_4 C 0.65101(16) 0.13108(16) 0.3490(2)
C18_4 C 0.63811(15) 0.02539(15) 0.1077(2)
O10_4 O 0.85734(13) 0.17935(13) 0.94641(19)
H8_4 H 0.843(2) 0.146(2) 0.880(3)
H10_4 H 0.7407 0.0768 0.9531
O7_4 O 0.34126(11) 0.95408(11) 0.35727(19)
O8_6 O 0.5000 0.94928(15) 0.2500
H4_4 H 0.543(3) 0.979(3) 0.281(6)
O9_4 O 0.50642(15) 0.77066(16) 0.6161(2)
H5_4 H 0.5499(14) 0.745(2) 0.589(4)
H6_4 H 0.4621(14) 0.743(2) 0.585(4)
H7_4 H 0.457(3) 0.979(3) 0.219(6)
O16_4 O 0.65874(11) 0.95408(11) 0.14273(19)
O17_4 O 0.49358(15) 0.77066(16) 0.8839(2)
H11_4 H 0.4501(14) 0.745(2) 0.911(4)
H12_4 H 0.5379(14) 0.743(2) 0.915(4)
loop_
_geom_bond_atom_site_label_1
_geom_bond_atom_site_label_2
_geom_bond_site_symmetry_1
_geom_bond_site_symmetry_2
H11 O17 1_555 1_555
Eu8 O27 1_555 1_555
Eu1 O6 1_555 1_555
O1 H1 1_555 1_555
C1 O1 1_555 1_555
C2 C1 1_555 1_555
C3 C2 1_555 1_555
H2 C3 1_555 1_555
C4 C3 1_555 1_555
C5 C4 1_555 1_555
C6 C1 1_555 1_555
H3 C6 1_555 1_555
C7 C2 1_555 1_555
O2 C7 1_555 1_555
O3 C7 1_555 1_555
C8 C4 1_555 1_555
O4 C8 1_555 1_555
O5 C8 1_555 1_555
C9 C5 1_555 1_555
O6 C9 1_555 1_555
O7 Eu1 1_555 1_555
O8 Eu1 1_555 1_555
H7 O8 1_555 1_555
Eu4 O2 1_555 1_555
Eu6 O3 1_555 1_555
O21 Eu1 1_555 1_555
O23 Eu1 1_555 1_555
O25 Eu1 1_555 1_555
C5 C6 1_555 1_555
C9 O7 1_555 1_555
O10 H8 1_555 1_555
H4 O8_2 1_555 1_555
H5 O9 1_555 1_555
Eu2 O8_2 1_555 1_555
C11 C10 1_555 1_555
C12 C11 1_555 1_555
H9 C12 1_555 1_555
C13 C12 1_555 1_555
C14 C13 1_555 1_555
C15 C10 1_555 1_555
C16 C11 1_555 1_555
O11 C16 1_555 1_555
O12 C16 1_555 1_555
C17 C13 1_555 1_555
O13 C17 1_555 1_555
O14 C17 1_555 1_555
C18 C14 1_555 1_555
O15 Eu2 1_555 1_555
O16 Eu2 1_555 1_555
Eu4 O12 1_555 1_555
Eu6 O11 1_555 1_555
O20 Eu2 1_555 1_555
C14 C15 1_555 1_555
O13 Eu7 1_555 1_555
O14 Eu7 1_555 1_555
C18 O15 1_555 1_555
C18 O16 1_555 1_555
Eu7 O26 1_555 1_555
H11_2 O17_2 1_555 1_555
H12_2 O17_2 1_555 1_555
O7_2 Eu4 1_555 1_555
O8_3 Eu4 1_555 1_555
H4_2 O8_3 1_555 1_555
O9_2 Eu4 1_555 1_555
H5_2 O9_2 1_555 1_555
H6_2 O9_2 1_555 1_555
H7_2 O8_3 1_555 1_555
Eu6 O8_3 1_555 1_555
O16_2 Eu6 1_555 1_555
O23_2 Eu4 1_555 1_555
O25_2 Eu4 1_555 1_555
O26_2 Eu4 1_555 1_555
O10_2 H8_2 1_555 1_555
O1_2 H1_2 1_555 1_555
C1_2 O1_2 1_555 1_555
C2_2 C1_2 1_555 1_555
C3_2 C2_2 1_555 1_555
H2_2 C3_2 1_555 1_555
C4_2 C3_2 1_555 1_555
C5_2 C4_2 1_555 1_555
C6_2 C1_2 1_555 1_555
H3_2 C6_2 1_555 1_555
C7_2 C2_2 1_555 1_555
O18 C7_2 1_555 1_555
O20 C7_2 1_555 1_555
C8_2 C4_2 1_555 1_555
O4_2 C8_2 1_555 1_555
O5_2 C8_2 1_555 1_555
C9_2 C5_2 1_555 1_555
O6_2 C9_2 1_555 1_555
C11_2 C10_2 1_555 1_555
C12_2 C11_2 1_555 1_555
H9_2 C12_2 1_555 1_555
C13_2 C12_2 1_555 1_555
C14_2 C13_2 1_555 1_555
C15_2 C10_2 1_555 1_555
C16_2 C11_2 1_555 1_555
O19 C16_2 1_555 1_555
O21 C16_2 1_555 1_555
C17_2 C13_2 1_555 1_555
O13_2 C17_2 1_555 1_555
O14_2 C17_2 1_555 1_555
C18_2 C14_2 1_555 1_555
Eu7_2 O6_2 1_555 1_555
C5_2 C6_2 1_555 1_555
C14_2 C15_2 1_555 1_555
O13_2 Eu7_2 1_555 1_555
O14_2 Eu7_2 1_555 1_555
C18_2 O15_2 1_555 1_555
H4_3 O8_4 1_555 1_555
H5_3 O9_3 1_555 1_555
Eu8 O8_4 1_555 1_555
C11_3 C10_3 1_555 1_555
C12_3 C11_3 1_555 1_555
H9_3 C12_3 1_555 1_555
C13_3 C12_3 1_555 1_555
C14_3 C13_3 1_555 1_555
C15_3 C10_3 1_555 1_555
C16_3 C11_3 1_555 1_555
O11_2 C16_3 1_555 1_555
O12_2 C16_3 1_555 1_555
C17_3 C13_3 1_555 1_555
O23 C17_3 1_555 1_555
O25 C17_3 1_555 1_555
C18_3 C14_3 1_555 1_555
O16_3 Eu8 1_555 1_555
Eu7_2 O12_2 1_555 1_555
Eu8_2 O11_2 1_555 1_555
O20_2 Eu8 1_555 1_555
C14_3 C15_3 1_555 1_555
C18_3 O27 1_555 1_555
C18_3 O16_3 1_555 1_555
O10_3 H8_3 1_555 1_555
O1_3 H1_3 1_555 1_555
C1_3 O1_3 1_555 1_555
C2_3 C1_3 1_555 1_555
C3_3 C2_3 1_555 1_555
H2_3 C3_3 1_555 1_555
C4_3 C3_3 1_555 1_555
C5_3 C4_3 1_555 1_555
C6_3 C1_3 1_555 1_555
H3_3 C6_3 1_555 1_555
C7_3 C2_3 1_555 1_555
O2_2 C7_3 1_555 1_555
O3_2 C7_3 1_555 1_555
C8_3 C4_3 1_555 1_555
O22 C8_3 1_555 1_555
O24 C8_3 1_555 1_555
C9_3 C5_3 1_555 1_555
O26 C9_3 1_555 1_555
O7_3 Eu7 1_555 1_555
O8_5 Eu7 1_555 1_555
H7_3 O8_5 1_555 1_555
Eu7_2 O2_2 1_555 1_555
Eu8_2 O3_2 1_555 1_555
O21_2 Eu7 1_555 1_555
C5_3 C6_3 1_555 1_555
C9_3 O7_3 1_555 1_555
H11_3 O17_3 1_555 1_555
O1_4 H1_4 1_555 1_555
C1_4 O1_4 1_555 1_555
C2_4 C1_4 1_555 1_555
C3_4 C2_4 1_555 1_555
H2_4 C3_4 1_555 1_555
C4_4 C3_4 1_555 1_555
C5_4 C4_4 1_555 1_555
C6_4 C1_4 1_555 1_555
H3_4 C6_4 1_555 1_555
C7_4 C2_4 1_555 1_555
O18_2 C7_4 1_555 1_555
O20_2 C7_4 1_555 1_555
C8_4 C4_4 1_555 1_555
O22_2 C8_4 1_555 1_555
O24_2 C8_4 1_555 1_555
C9_4 C5_4 1_555 1_555
O26_2 C9_4 1_555 1_555
C11_4 C10_4 1_555 1_555
C12_4 C11_4 1_555 1_555
H9_4 C12_4 1_555 1_555
C13_4 C12_4 1_555 1_555
C14_4 C13_4 1_555 1_555
C15_4 C10_4 1_555 1_555
C16_4 C11_4 1_555 1_555
O19_2 C16_4 1_555 1_555
O21_2 C16_4 1_555 1_555
C17_4 C13_4 1_555 1_555
O23_2 C17_4 1_555 1_555
O25_2 C17_4 1_555 1_555
C18_4 C14_4 1_555 1_555
C5_4 C6_4 1_555 1_555
C14_4 C15_4 1_555 1_555
C18_4 O27_2 1_555 1_555
O10_4 H8_4 1_555 1_555
O7_4 Eu7_2 1_555 1_555
O8_6 Eu7_2 1_555 1_555
H4_4 O8_6 1_555 1_555
O9_4 Eu7_2 1_555 1_555
H5_4 O9_4 1_555 1_555
H6_4 O9_4 1_555 1_555
H7_4 O8_6 1_555 1_555
Eu8_2 O8_6 1_555 1_555
O16_4 Eu8_2 1_555 1_555
H11_4 O17_4 1_555 1_555
H12_4 O17_4 1_555 1_555

#END
