
###############################################################################
#
# This file contains modified crystal structure data generated from the
# MOF subset of the Cambridge Structural Database (CSD) v543 
# hosted by the Cambridge Crystallographic Data Centre (CCDC).
#
# This work is licensed under the Creative Commons
# Attribution-NonCommercial-ShareAlike 4.0 International License.
# To view a copy of this license, visit
# http://creativecommons.org/licenses/by-nc-sa/4.0/
# or send a letter to
# Creative Commons, PO Box 1866, Mountain View, CA 94042, USA.
#
# CIF created using the CSD Python API on 29 September 2022
# The structure has been converted into the P1 space group
# The structure has a 3D framework
# The original CSD entry JUYROM is in the monoclinic crystal system
# The framework has been calculated to contain at least 10.0% void space
# The void calculation uses a probe of radius 1.32A, grid spacing 0.4
#
###############################################################################

data_JUYROM
_chemical_formula_moiety         '(C72 H48 N8 O18 Zn4)n'
_symmetry_cell_setting           triclinic
_symmetry_space_group_name_H-M   'P 1'
_symmetry_Int_Tables_number      1
_space_group_name_Hall           'P 1'
loop_
_symmetry_equiv_pos_site_id
_symmetry_equiv_pos_as_xyz
1 x,y,z
_cell_length_a                   11.4720(14)
_cell_length_b                   19.940(2)
_cell_length_c                   12.0025(14)
_cell_angle_alpha                90
_cell_angle_beta                 101.475(2)
_cell_angle_gamma                90
_cell_volume                     2690.71
loop_
_atom_site_label
_atom_site_type_symbol
_atom_site_fract_x
_atom_site_fract_y
_atom_site_fract_z
N2 N 0.30447(19) 0.07586(9) 0.07875(17)
C3 C 0.0598(2) 0.08119(12) 0.0816(2)
C6 C 0.1442(3) 0.06613(16) 0.1773(2)
H4 H 0.1207 0.0578 0.2457
C16 C 0.2628(3) 0.06328(16) 0.1724(2)
H10 H 0.3169 0.0519 0.2382
Zn2 Zn 0.49513(2) 0.081613(11) 0.08149(2)
O2 O 0.45846(17) 0.43014(8) 0.41150(13)
O3 O 0.49499(17) 0.17937(8) 0.09589(15)
O4 O 0.4695(3) 0.19355(9) 0.27137(16)
O5 O 0.47863(15) 0.51335(7) 0.29430(13)
N1 N 0.68513(19) 0.08248(9) 0.08052(17)
C1 C 0.4720(2) 0.28910(11) 0.1561(2)
C2 C 0.46805(19) 0.45223(10) 0.31620(18)
C4 C 0.4704(2) 0.33465(10) 0.24405(18)
H2 H 0.4725 0.3193 0.3176
C5 C 0.4669(2) 0.31305(11) 0.0463(2)
C8 C 0.4791(2) 0.21475(11) 0.1782(2)
C9 C 0.4618(3) 0.38109(11) 0.0248(2)
C10 C 0.4655(2) 0.40303(10) 0.22148(18)
C11 C 0.9314(2) 0.08321(11) 0.0820(2)
C12 C 0.4622(2) 0.42644(11) 0.1124(2)
H6 H 0.4602 0.4723 0.0979
C13 C 0.7663(2) 0.06969(14) 0.1745(2)
H7 H 0.7392 0.0598 0.2407
C15 C 0.8867(3) 0.07011(14) 0.1800(2)
H9 H 0.9385 0.0617 0.2486
Zn3 Zn 0.50487(2) 0.581613(11) 0.41851(2)
Zn4 Zn 0.49513(2) 0.418387(11) 0.58149(2)
O7 O 0.52137(15) 0.01335(7) 0.20570(13)
O1 O 0.4588(2) 0.40669(9) 0.91853(14)
H1 H 0.4728 0.3774 0.8768
H3 H 0.4669 0.2830 0.9870
C14 C 0.7282(2) 0.09655(13) 0.9874(2)
H8 H 0.6743 0.1064 0.9207
C17 C 0.8469(2) 0.09725(14) 0.9845(2)
H11 H 0.8712 0.1072 0.9170
O6 O 0.45846(17) 0.06986(8) 0.91150(13)
O1_2 O 0.5412(2) 0.90669(9) 0.58147(14)
H1_2 H 0.5272 0.8774 0.6232
O2_2 O 0.54154(17) 0.93014(8) 0.08850(13)
O3_2 O 0.50501(17) 0.67937(8) 0.40411(15)
O4_2 O 0.5305(3) 0.69355(9) 0.22863(16)
N1_2 N 0.31487(19) 0.58248(9) 0.41948(17)
C1_2 C 0.5280(2) 0.78910(11) 0.3439(2)
C2_2 C 0.53195(19) 0.95223(10) 0.18380(18)
C4_2 C 0.5296(2) 0.83465(10) 0.25595(18)
H2_2 H 0.5275 0.8193 0.1824
C5_2 C 0.5331(2) 0.81305(11) 0.4537(2)
H3_2 H 0.5331 0.7830 0.5130
C8_2 C 0.5209(2) 0.71475(11) 0.3218(2)
C9_2 C 0.5382(3) 0.88109(11) 0.4752(2)
C10_2 C 0.5345(2) 0.90303(10) 0.27852(18)
C11_2 C 0.0686(2) 0.58321(11) 0.4180(2)
C12_2 C 0.5378(2) 0.92644(11) 0.3876(2)
H6_2 H 0.5398 0.9723 0.4021
C13_2 C 0.2337(2) 0.56969(14) 0.3255(2)
H7_2 H 0.2608 0.5598 0.2593
C14_2 C 0.2718(2) 0.59655(13) 0.5126(2)
H8_2 H 0.3257 0.6064 0.5793
C15_2 C 0.1133(3) 0.57011(14) 0.3200(2)
H9_2 H 0.0615 0.5617 0.2514
C17_2 C 0.1531(2) 0.59725(14) 0.5155(2)
H11_2 H 0.1288 0.6072 0.5830
O6_2 O 0.54154(17) 0.56986(8) 0.58850(13)
N3 N 0.69553(19) 0.57586(9) 0.42125(17)
Zn4_2 Zn 0.50487(2) 0.918387(11) 0.91851(2)
C3_2 C 0.9402(2) 0.58119(12) 0.4184(2)
C6_2 C 0.8558(3) 0.56613(16) 0.3227(2)
H4_2 H 0.8793 0.5578 0.2543
C7 C 0.8964(3) 0.59314(15) 0.5165(2)
H5 H 0.9487 0.6027 0.5843
C16_2 C 0.7372(3) 0.56328(16) 0.3276(2)
H10_2 H 0.6831 0.5519 0.2618
C18 C 0.7767(3) 0.59086(15) 0.5136(2)
H12 H 0.7503 0.6004 0.5803
O1_3 O 0.5412(2) 0.59331(9) 0.08147(14)
H1_3 H 0.5272 0.6226 0.1232
H3_3 H 0.5331 0.7170 0.0130
C14_3 C 0.2718(2) 0.90345(13) 0.0126(2)
H8_3 H 0.3257 0.8936 0.0793
C17_3 C 0.1531(2) 0.90275(14) 0.0155(2)
H11_3 H 0.1288 0.8928 0.0830
O3_3 O 0.50501(17) 0.82063(8) 0.90411(15)
O4_3 O 0.5305(3) 0.80645(9) 0.72863(16)
O5_2 O 0.52137(15) 0.48665(7) 0.70570(13)
N1_3 N 0.31487(19) 0.91752(9) 0.91948(17)
C1_3 C 0.5280(2) 0.71090(11) 0.8439(2)
C2_3 C 0.53195(19) 0.54777(10) 0.68380(18)
C4_3 C 0.5296(2) 0.66535(10) 0.75595(18)
H2_3 H 0.5275 0.6807 0.6824
C5_3 C 0.5331(2) 0.68695(11) 0.9537(2)
C8_3 C 0.5209(2) 0.78525(11) 0.8218(2)
C9_3 C 0.5382(3) 0.61891(11) 0.9752(2)
C10_3 C 0.5345(2) 0.59697(10) 0.77852(18)
C11_3 C 0.0686(2) 0.91679(11) 0.9180(2)
C12_3 C 0.5378(2) 0.57356(11) 0.8876(2)
H6_3 H 0.5398 0.5277 0.9021
C13_3 C 0.2337(2) 0.93031(14) 0.8255(2)
H7_3 H 0.2608 0.9402 0.7593
C15_3 C 0.1133(3) 0.92989(14) 0.8200(2)
H9_3 H 0.0615 0.9383 0.7514
O7_2 O 0.47863(15) 0.98665(7) 0.79430(13)
N3_2 N 0.69553(19) 0.92414(9) 0.92125(17)
C3_3 C 0.9402(2) 0.91881(12) 0.9184(2)
C6_3 C 0.8558(3) 0.93387(16) 0.8227(2)
H4_3 H 0.8793 0.9422 0.7543
C16_3 C 0.7372(3) 0.93672(16) 0.8276(2)
H10_3 H 0.6831 0.9481 0.7618
N2_2 N 0.30447(19) 0.42414(9) 0.57875(17)
C3_4 C 0.0598(2) 0.41881(12) 0.5816(2)
C6_4 C 0.1442(3) 0.43387(16) 0.6773(2)
H4_4 H 0.1207 0.4422 0.7457
C7_2 C 0.1036(3) 0.40686(15) 0.4835(2)
H5_2 H 0.0513 0.3973 0.4157
C16_4 C 0.2628(3) 0.43672(16) 0.6724(2)
H10_4 H 0.3169 0.4481 0.7382
C18_2 C 0.2233(3) 0.40914(15) 0.4864(2)
H12_2 H 0.2497 0.3996 0.4197
O1_4 O 0.4588(2) 0.09331(9) 0.41853(14)
H1_4 H 0.4728 0.1226 0.3768
O3_4 O 0.49499(17) 0.32063(8) 0.59589(15)
O4_4 O 0.4695(3) 0.30645(9) 0.77137(16)
N1_4 N 0.68513(19) 0.41752(9) 0.58052(17)
C1_4 C 0.4720(2) 0.21090(11) 0.6561(2)
C2_4 C 0.46805(19) 0.04777(10) 0.81620(18)
C4_4 C 0.4704(2) 0.16535(10) 0.74405(18)
H2_4 H 0.4725 0.1807 0.8176
C5_4 C 0.4669(2) 0.18695(11) 0.5463(2)
H3_4 H 0.4669 0.2170 0.4870
C8_4 C 0.4791(2) 0.28525(11) 0.6782(2)
C9_4 C 0.4618(3) 0.11891(11) 0.5248(2)
C10_4 C 0.4655(2) 0.09697(10) 0.72148(18)
C11_4 C 0.9314(2) 0.41679(11) 0.5820(2)
C12_4 C 0.4622(2) 0.07356(11) 0.6124(2)
H6_4 H 0.4602 0.0277 0.5979
C13_4 C 0.7663(2) 0.43031(14) 0.6745(2)
H7_4 H 0.7392 0.4402 0.7407
C14_4 C 0.7282(2) 0.40345(13) 0.4874(2)
H8_4 H 0.6743 0.3936 0.4207
C15_4 C 0.8867(3) 0.42989(14) 0.6800(2)
H9_4 H 0.9385 0.4383 0.7486
C17_4 C 0.8469(2) 0.40275(14) 0.4845(2)
H11_4 H 0.8712 0.3928 0.4170
C7_3 C 0.1036(3) 0.09314(15) 0.9835(2)
H5_3 H 0.0513 0.1027 0.9157
C18_3 C 0.2233(3) 0.09086(15) 0.9864(2)
H12_3 H 0.2497 0.1004 0.9197
C7_4 C 0.8964(3) 0.90686(15) 0.0165(2)
H5_4 H 0.9487 0.8973 0.0843
C18_4 C 0.7767(3) 0.90914(15) 0.0136(2)
H12_4 H 0.7503 0.8996 0.0803
loop_
_geom_bond_atom_site_label_1
_geom_bond_atom_site_label_2
_geom_bond_site_symmetry_1
_geom_bond_site_symmetry_2
N2 C16 1_555 1_555
C3 C6 1_555 1_555
C6 H4 1_555 1_555
C16 C6 1_555 1_555
H10 C16 1_555 1_555
Zn2 N2 1_555 1_555
Zn2 O3 1_555 1_555
O2 C2 1_555 1_555
O3 C8 1_555 1_555
O4 C8 1_555 1_555
O5 C2 1_555 1_555
N1 Zn2 1_555 1_555
C1 C4 1_555 1_555
C2 C10 1_555 1_555
C4 H2 1_555 1_555
C5 C1 1_555 1_555
C8 C1 1_555 1_555
C10 C4 1_555 1_555
C12 C9 1_555 1_555
H6 C12 1_555 1_555
C13 N1 1_555 1_555
H7 C13 1_555 1_555
C15 C11 1_555 1_555
H9 C15 1_555 1_555
Zn3 O5 1_555 1_555
Zn4 O2 1_555 1_555
O7 Zn2 1_555 1_555
C5 C9 1_555 1_555
C10 C12 1_555 1_555
C13 C15 1_555 1_555
O1 H1 1_555 1_555
H8 C14 1_555 1_555
H11 C17 1_555 1_555
C14 C17 1_555 1_555
Zn3 O3_2 1_555 1_555
O1_2 H1_2 1_555 1_555
O2_2 C2_2 1_555 1_555
O3_2 C8_2 1_555 1_555
O4_2 C8_2 1_555 1_555
N1_2 Zn3 1_555 1_555
C1_2 C4_2 1_555 1_555
C2_2 C10_2 1_555 1_555
C4_2 H2_2 1_555 1_555
C5_2 C1_2 1_555 1_555
H3_2 C5_2 1_555 1_555
C8_2 C1_2 1_555 1_555
C9_2 O1_2 1_555 1_555
C10_2 C4_2 1_555 1_555
C12_2 C9_2 1_555 1_555
H6_2 C12_2 1_555 1_555
C13_2 N1_2 1_555 1_555
H7_2 C13_2 1_555 1_555
C14_2 N1_2 1_555 1_555
H8_2 C14_2 1_555 1_555
C15_2 C11_2 1_555 1_555
H9_2 C15_2 1_555 1_555
C17_2 C11_2 1_555 1_555
H11_2 C17_2 1_555 1_555
O6_2 Zn3 1_555 1_555
N3 Zn3 1_555 1_555
C5_2 C9_2 1_555 1_555
C10_2 C12_2 1_555 1_555
C13_2 C15_2 1_555 1_555
C14_2 C17_2 1_555 1_555
N3 C16_2 1_555 1_555
C3_2 C6_2 1_555 1_555
C6_2 H4_2 1_555 1_555
C7 C3_2 1_555 1_555
H5 C7 1_555 1_555
C16_2 C6_2 1_555 1_555
H10_2 C16_2 1_555 1_555
C18 N3 1_555 1_555
H12 C18 1_555 1_555
C7 C18 1_555 1_555
O1_3 H1_3 1_555 1_555
H8_3 C14_3 1_555 1_555
H11_3 C17_3 1_555 1_555
C14_3 C17_3 1_555 1_555
Zn4_2 O3_3 1_555 1_555
O6_2 C2_3 1_555 1_555
O3_3 C8_3 1_555 1_555
O4_3 C8_3 1_555 1_555
O5_2 C2_3 1_555 1_555
N1_3 Zn4_2 1_555 1_555
C1_3 C4_3 1_555 1_555
C2_3 C10_3 1_555 1_555
C4_3 H2_3 1_555 1_555
C5_3 C1_3 1_555 1_555
C8_3 C1_3 1_555 1_555
C10_3 C4_3 1_555 1_555
C12_3 C9_3 1_555 1_555
H6_3 C12_3 1_555 1_555
C13_3 N1_3 1_555 1_555
H7_3 C13_3 1_555 1_555
C15_3 C11_3 1_555 1_555
H9_3 C15_3 1_555 1_555
Zn4 O5_2 1_555 1_555
O7_2 Zn4_2 1_555 1_555
N3_2 Zn4_2 1_555 1_555
C5_3 C9_3 1_555 1_555
C10_3 C12_3 1_555 1_555
C13_3 C15_3 1_555 1_555
N3_2 C16_3 1_555 1_555
C3_3 C6_3 1_555 1_555
C6_3 H4_3 1_555 1_555
C16_3 C6_3 1_555 1_555
H10_3 C16_3 1_555 1_555
N2_2 C16_4 1_555 1_555
C3_4 C6_4 1_555 1_555
C6_4 H4_4 1_555 1_555
C7_2 C3_4 1_555 1_555
H5_2 C7_2 1_555 1_555
C16_4 C6_4 1_555 1_555
H10_4 C16_4 1_555 1_555
C18_2 N2_2 1_555 1_555
H12_2 C18_2 1_555 1_555
Zn4 N2_2 1_555 1_555
C7_2 C18_2 1_555 1_555
Zn4 O3_4 1_555 1_555
O1_4 H1_4 1_555 1_555
O6 C2_4 1_555 1_555
O3_4 C8_4 1_555 1_555
O4_4 C8_4 1_555 1_555
N1_4 Zn4 1_555 1_555
C1_4 C4_4 1_555 1_555
C2_4 C10_4 1_555 1_555
C4_4 H2_4 1_555 1_555
C5_4 C1_4 1_555 1_555
H3_4 C5_4 1_555 1_555
C8_4 C1_4 1_555 1_555
C9_4 O1_4 1_555 1_555
C10_4 C4_4 1_555 1_555
C12_4 C9_4 1_555 1_555
H6_4 C12_4 1_555 1_555
C13_4 N1_4 1_555 1_555
H7_4 C13_4 1_555 1_555
C14_4 N1_4 1_555 1_555
H8_4 C14_4 1_555 1_555
C15_4 C11_4 1_555 1_555
H9_4 C15_4 1_555 1_555
C17_4 C11_4 1_555 1_555
H11_4 C17_4 1_555 1_555
C5_4 C9_4 1_555 1_555
C10_4 C12_4 1_555 1_555
C13_4 C15_4 1_555 1_555
C14_4 C17_4 1_555 1_555
H5_3 C7_3 1_555 1_555
H12_3 C18_3 1_555 1_555
C7_3 C18_3 1_555 1_555
H5_4 C7_4 1_555 1_555
H12_4 C18_4 1_555 1_555
C7_4 C18_4 1_555 1_555

#END
