
###############################################################################
#
# This file contains modified crystal structure data generated from the
# MOF subset of the Cambridge Structural Database (CSD) v543 
# hosted by the Cambridge Crystallographic Data Centre (CCDC).
#
# This work is licensed under the Creative Commons
# Attribution-NonCommercial-ShareAlike 4.0 International License.
# To view a copy of this license, visit
# http://creativecommons.org/licenses/by-nc-sa/4.0/
# or send a letter to
# Creative Commons, PO Box 1866, Mountain View, CA 94042, USA.
#
# CIF created using the CSD Python API on 29 September 2022
# The structure has been converted into the P1 space group
# The structure has a 3D framework
# The original CSD entry JUZXAD is in the orthorhombic crystal system
# The original CSD entry JUZXAD is in a Sohncke space group
# The framework has been calculated to contain at least 10.0% void space
# The void calculation uses a probe of radius 1.32A, grid spacing 0.4
#
###############################################################################

data_JUZXAD
_chemical_formula_moiety         '(C48 H40 Cu3 N16 O24 S4)n'
_symmetry_cell_setting           triclinic
_symmetry_space_group_name_H-M   'P 1'
_symmetry_Int_Tables_number      1
_space_group_name_Hall           'P 1'
loop_
_symmetry_equiv_pos_site_id
_symmetry_equiv_pos_as_xyz
1 x,y,z
_cell_length_a                   5.5067(3)
_cell_length_b                   10.5119(5)
_cell_length_c                   28.1794(14)
_cell_angle_alpha                90
_cell_angle_beta                 90
_cell_angle_gamma                90
_cell_volume                     1631.19
loop_
_atom_site_label
_atom_site_type_symbol
_atom_site_fract_x
_atom_site_fract_y
_atom_site_fract_z
H4 H 0.0079 0.5518 0.1436
O2 O 0.0723(4) 0.4203(2) 0.24185(8)
H9 H 0.210(3) 0.451(4) 0.2467(14)
H10 H 0.061(6) 0.357(2) 0.2596(10)
Cu3 Cu 0.23357(6) 0.01906(3) 0.259490(11)
Cu1 Cu 0.76643(6) 0.51906(3) 0.240510(11)
S1 S 0.33983(13) 0.71037(7) 0.21255(2)
C1 C 0.5191(6) 0.4056(3) 0.16075(10)
H1 H 0.4218 0.3748 0.1852
C2 C 0.4485(5) 0.3839(3) 0.11476(10)
H2 H 0.3054 0.3402 0.1083
C3 C 0.5934(6) 0.4278(3) 0.07792(10)
C4 C 0.8075(6) 0.4890(3) 0.08931(10)
H3 H 0.9120 0.5164 0.0655
C5 C 0.8648(6) 0.5091(3) 0.13628(11)
C6 C 0.5081(6) 0.4040(3) 0.02965(10)
N1 N 0.7217(4) 0.4693(2) 0.17209(8)
N2 N 0.3021(5) 0.3569(3) 0.01835(8)
O3 O 0.4428(3) 0.59870(19) 0.23986(7)
O4 O 0.4266(4) 0.8270(2) 0.23520(8)
O5 O 0.0726(4) 0.6996(2) 0.21687(8)
O6 O 0.4134(5) 0.7027(2) 0.16333(8)
N5 N 0.8084(4) 0.5679(2) 0.30993(8)
O7 O 0.5734(4) 0.3270(2) 0.26480(8)
C7 C 0.5066(6) 0.3942(3) 0.95518(10)
C8 C 0.4903(6) 0.3719(3) 0.82444(10)
H5 H 0.3855 0.3390 0.8016
C9 C 0.4323(6) 0.3567(3) 0.87122(10)
H6 H 0.2914 0.3138 0.8799
C10 C 0.5861(6) 0.4059(3) 0.90552(10)
C11 C 0.7993(6) 0.4631(3) 0.89141(10)
H7 H 0.9095 0.4934 0.9137
C12 C 0.8460(5) 0.4745(3) 0.84341(10)
H8 H 0.9899 0.5130 0.8338
N3 N 0.3006(5) 0.3500(3) 0.96885(9)
N4 N 0.6916(4) 0.4321(2) 0.80993(8)
O1 O 0.6514(4) 0.4317(2) 0.99154(7)
Cu2 Cu 0.73357(6) 0.48094(3) 0.740510(11)
Cu3_2 Cu 0.26643(6) 0.98094(3) 0.759490(11)
C1_2 C 0.9809(6) 0.5944(3) 0.66075(10)
C3_2 C 0.9066(6) 0.5722(3) 0.57792(10)
C4_2 C 0.6925(6) 0.5110(3) 0.58931(10)
H3_2 H 0.5880 0.4836 0.5655
C5_2 C 0.6352(6) 0.4909(3) 0.63628(11)
H4_2 H 0.4921 0.4482 0.6436
C6_2 C 0.9919(6) 0.5960(3) 0.52965(10)
C7_2 C 0.9934(6) 0.6058(3) 0.45518(10)
C10_2 C 0.9139(6) 0.5941(3) 0.40552(10)
C11_2 C 0.7007(6) 0.5369(3) 0.39141(10)
H7_2 H 0.5905 0.5066 0.4137
C12_2 C 0.6540(5) 0.5255(3) 0.34341(10)
H8_2 H 0.5101 0.4870 0.3338
N1_2 N 0.7783(4) 0.5307(2) 0.67209(8)
O1_2 O 0.8486(4) 0.5683(2) 0.49154(7)
O2_2 O 0.4277(4) 0.5797(2) 0.74185(8)
H9_2 H 0.290(3) 0.549(4) 0.7467(14)
H10_2 H 0.439(6) 0.643(2) 0.7596(10)
O7_2 O 0.9266(4) 0.6730(2) 0.76480(8)
S1_2 S 0.66017(13) 0.21037(7) 0.28745(2)
H3_3 H 0.0880 0.0164 0.4345
C5_3 C 0.1352(6) 0.0091(3) 0.36372(11)
H8_3 H 0.0101 0.0130 0.6662
O3_2 O 0.5572(3) 0.09870(19) 0.26014(7)
O5_2 O 0.9274(4) 0.1996(2) 0.28313(8)
O6_2 O 0.5866(5) 0.2027(2) 0.33667(8)
N5_2 N 0.1916(4) 0.0679(2) 0.19007(8)
C1_3 C 0.4809(6) 0.9056(3) 0.33925(10)
H1_2 H 0.5782 0.8748 0.3148
C2_2 C 0.5515(5) 0.8839(3) 0.38524(10)
H2_2 H 0.6946 0.8402 0.3917
C3_3 C 0.4066(6) 0.9278(3) 0.42208(10)
C4_3 C 0.1925(6) 0.9890(3) 0.41069(10)
C6_3 C 0.4919(6) 0.9040(3) 0.47035(10)
C7_3 C 0.4934(6) 0.8942(3) 0.54482(10)
C8_2 C 0.5097(6) 0.8719(3) 0.67556(10)
H5_2 H 0.6145 0.8390 0.6984
C9_2 C 0.5677(6) 0.8567(3) 0.62878(10)
H6_2 H 0.7086 0.8138 0.6201
C10_3 C 0.4139(6) 0.9059(3) 0.59448(10)
C11_3 C 0.2007(6) 0.9631(3) 0.60859(10)
H7_3 H 0.0905 0.9934 0.5863
C12_3 C 0.1540(5) 0.9745(3) 0.65659(10)
N1_3 N 0.2783(4) 0.9693(2) 0.32791(8)
N2_2 N 0.6979(5) 0.8569(3) 0.48165(8)
N3_2 N 0.6994(5) 0.8500(3) 0.53115(9)
N4_2 N 0.3084(4) 0.9321(2) 0.69007(8)
O1_3 O 0.3486(4) 0.9317(2) 0.50846(7)
C7_4 C 0.0066(6) 0.1058(3) 0.04482(10)
C10_4 C 0.0861(6) 0.0941(3) 0.09448(10)
C11_4 C 0.2993(6) 0.0369(3) 0.10859(10)
H7_4 H 0.4095 0.0066 0.0863
C12_4 C 0.3460(5) 0.0255(3) 0.15659(10)
O1_4 O 0.1514(4) 0.0683(2) 0.00846(7)
H3_4 H 0.4120 0.9836 0.9345
C5_4 C 0.3648(6) 0.9909(3) 0.86372(11)
H4_3 H 0.5079 0.9482 0.8564
S1_3 S 0.83983(13) 0.78963(7) 0.78745(2)
O3_3 O 0.9428(3) 0.90130(19) 0.76014(7)
O5_3 O 0.5726(4) 0.8004(2) 0.78313(8)
O6_3 O 0.9134(5) 0.7973(2) 0.83667(8)
S1_4 S 0.16017(13) 0.28963(7) 0.71255(2)
H1_3 H 0.0782 0.6252 0.6852
C2_3 C 0.0515(5) 0.6161(3) 0.61476(10)
H2_3 H 0.1946 0.6598 0.6083
C8_3 C 0.0097(6) 0.6281(3) 0.32444(10)
H5_3 H 0.1145 0.6610 0.3016
C9_3 C 0.0677(6) 0.6433(3) 0.37122(10)
H6_3 H 0.2086 0.6862 0.3799
N2_3 N 0.1979(5) 0.6431(3) 0.51835(8)
N3_3 N 0.1994(5) 0.6500(3) 0.46885(9)
O3_4 O 0.0572(3) 0.40130(19) 0.73986(7)
O4_2 O 0.0734(4) 0.1730(2) 0.73520(8)
O5_4 O 0.4274(4) 0.3004(2) 0.71687(8)
O6_4 O 0.0866(5) 0.2973(2) 0.66333(8)
C1_4 C 0.0191(6) 0.0944(3) 0.83925(10)
C3_4 C 0.0934(6) 0.0722(3) 0.92208(10)
C4_4 C 0.3075(6) 0.0110(3) 0.91069(10)
C6_4 C 0.0081(6) 0.0960(3) 0.97035(10)
N1_4 N 0.2217(4) 0.0307(2) 0.82791(8)
O2_3 O 0.5723(4) 0.0797(2) 0.75815(8)
H9_3 H 0.710(3) 0.049(4) 0.7533(14)
H10_3 H 0.561(6) 0.143(2) 0.7404(10)
H4_4 H 0.9921 0.0518 0.3564
O2_4 O 0.9277(4) 0.9203(2) 0.25815(8)
H9_4 H 0.790(3) 0.951(4) 0.2533(14)
H10_4 H 0.939(6) 0.857(2) 0.2404(10)
H8_4 H 0.4899 0.9870 0.1662
C8_4 C 0.9903(6) 0.1281(3) 0.17556(10)
H5_4 H 0.8855 0.1610 0.1984
C9_4 C 0.9323(6) 0.1433(3) 0.12878(10)
H6_4 H 0.7914 0.1862 0.1201
N3_4 N 0.8006(5) 0.1500(3) 0.03115(9)
H1_4 H 0.9218 0.1252 0.8148
C2_4 C 0.9485(5) 0.1161(3) 0.88524(10)
H2_4 H 0.8054 0.1598 0.8917
N2_4 N 0.8021(5) 0.1431(3) 0.98165(8)
loop_
_geom_bond_atom_site_label_1
_geom_bond_atom_site_label_2
_geom_bond_site_symmetry_1
_geom_bond_site_symmetry_2
H9 O2 1_555 1_555
H10 O2 1_555 1_555
Cu1 N1 1_555 1_555
S1 O3 1_555 1_555
C1 H1 1_555 1_555
C2 C1 1_555 1_555
H2 C2 1_555 1_555
C3 C2 1_555 1_555
C4 C3 1_555 1_555
H3 C4 1_555 1_555
C5 C4 1_555 1_555
C6 C3 1_555 1_555
N1 C1 1_555 1_555
N2 C6 1_555 1_555
O3 Cu1 1_555 1_555
O4 S1 1_555 1_555
O5 S1 1_555 1_555
O6 S1 1_555 1_555
N5 Cu1 1_555 1_555
O7 Cu1 1_555 1_555
C5 N1 1_555 1_555
C7 C10 1_555 1_555
C8 H5 1_555 1_555
C9 C8 1_555 1_555
H6 C9 1_555 1_555
C10 C9 1_555 1_555
C11 C10 1_555 1_555
H7 C11 1_555 1_555
C12 C11 1_555 1_555
H8 C12 1_555 1_555
N3 C7 1_555 1_555
N4 C8 1_555 1_555
Cu2 N4 1_555 1_555
C7 O1 1_555 1_555
C12 N4 1_555 1_555
Cu2 N1_2 1_555 1_555
C4_2 C3_2 1_555 1_555
H3_2 C4_2 1_555 1_555
C5_2 C4_2 1_555 1_555
H4_2 C5_2 1_555 1_555
C6_2 C3_2 1_555 1_555
C7_2 C10_2 1_555 1_555
C11_2 C10_2 1_555 1_555
H7_2 C11_2 1_555 1_555
C12_2 C11_2 1_555 1_555
H8_2 C12_2 1_555 1_555
N1_2 C1_2 1_555 1_555
O1_2 C6_2 1_555 1_555
O2_2 Cu2 1_555 1_555
H9_2 O2_2 1_555 1_555
H10_2 O2_2 1_555 1_555
O7_2 Cu2 1_555 1_555
C5_2 N1_2 1_555 1_555
C7_2 O1_2 1_555 1_555
C12_2 N5 1_555 1_555
S1_2 O3_2 1_555 1_555
O3_2 Cu3 1_555 1_555
O7 S1_2 1_555 1_555
O5_2 S1_2 1_555 1_555
O6_2 S1_2 1_555 1_555
N5_2 Cu3 1_555 1_555
C1_3 H1_2 1_555 1_555
C2_2 C1_3 1_555 1_555
H2_2 C2_2 1_555 1_555
C3_3 C2_2 1_555 1_555
C4_3 C3_3 1_555 1_555
C6_3 C3_3 1_555 1_555
C7_3 C10_3 1_555 1_555
C8_2 H5_2 1_555 1_555
C9_2 C8_2 1_555 1_555
H6_2 C9_2 1_555 1_555
C10_3 C9_2 1_555 1_555
C11_3 C10_3 1_555 1_555
H7_3 C11_3 1_555 1_555
C12_3 C11_3 1_555 1_555
N1_3 C1_3 1_555 1_555
N2_2 C6_3 1_555 1_555
N3_2 C7_3 1_555 1_555
N4_2 C8_2 1_555 1_555
O1_3 C6_3 1_555 1_555
Cu3_2 N4_2 1_555 1_555
C7_3 O1_3 1_555 1_555
C12_3 N4_2 1_555 1_555
N2_2 N3_2 1_555 1_555
C7_4 C10_4 1_555 1_555
C11_4 C10_4 1_555 1_555
H7_4 C11_4 1_555 1_555
C12_4 C11_4 1_555 1_555
C7_4 O1_4 1_555 1_555
C12_4 N5_2 1_555 1_555
H4_3 C5_4 1_555 1_555
S1_3 O3_3 1_555 1_555
O7_2 S1_3 1_555 1_555
O5_3 S1_3 1_555 1_555
O6_3 S1_3 1_555 1_555
S1_4 O3_4 1_555 1_555
H2_3 C2_3 1_555 1_555
C8_3 H5_3 1_555 1_555
C9_3 C8_3 1_555 1_555
H6_3 C9_3 1_555 1_555
O4_2 S1_4 1_555 1_555
O5_4 S1_4 1_555 1_555
O6_4 S1_4 1_555 1_555
N2_3 N3_3 1_555 1_555
C4_4 C3_4 1_555 1_555
C6_4 C3_4 1_555 1_555
N1_4 C1_4 1_555 1_555
H9_3 O2_3 1_555 1_555
H10_3 O2_3 1_555 1_555
H9_4 O2_4 1_555 1_555
H10_4 O2_4 1_555 1_555
C8_4 H5_4 1_555 1_555
C9_4 C8_4 1_555 1_555
H6_4 C9_4 1_555 1_555
H2_4 C2_4 1_555 1_555

#END
