
###############################################################################
#
# This file contains modified crystal structure data generated from the
# MOF subset of the Cambridge Structural Database (CSD) v543 
# hosted by the Cambridge Crystallographic Data Centre (CCDC).
#
# This work is licensed under the Creative Commons
# Attribution-NonCommercial-ShareAlike 4.0 International License.
# To view a copy of this license, visit
# http://creativecommons.org/licenses/by-nc-sa/4.0/
# or send a letter to
# Creative Commons, PO Box 1866, Mountain View, CA 94042, USA.
#
# CIF created using the CSD Python API on 29 September 2022
# The structure has been converted into the P1 space group
# The structure has a 3D framework
# The original CSD entry KABJOQ is in the triclinic crystal system
# The framework has been calculated to contain at least 10.0% void space
# The void calculation uses a probe of radius 1.32A, grid spacing 0.4
# H atom positions have been added when not included in the experimental data
#
###############################################################################

data_KABJOQ
_chemical_formula_moiety         '(C72 H78 Ca8 N2 O60 P4)n'
_symmetry_cell_setting           triclinic
_symmetry_space_group_name_H-M   'P 1'
_symmetry_Int_Tables_number      1
_space_group_name_Hall           'P 1'
loop_
_symmetry_equiv_pos_site_id
_symmetry_equiv_pos_as_xyz
1 x,y,z
_cell_length_a                   13.6927(5)
_cell_length_b                   16.2875(6)
_cell_length_c                   18.1025(7)
_cell_angle_alpha                71.497(2)
_cell_angle_beta                 85.212(2)
_cell_angle_gamma                87.664(2)
_cell_volume                     3814.73
loop_
_atom_site_label
_atom_site_type_symbol
_atom_site_fract_x
_atom_site_fract_y
_atom_site_fract_z
H5 H 0.001122 0.050340 0.211725
O2 O 0.0428(4) 0.3098(4) 0.8118(3)
O24 O 0.1194(5) 0.2706(4) 0.9207(4)
C30 C 0.0414(6) 0.2783(6) 0.8838(5)
Ca9 Ca 0.23346(12) 0.33892(11) 0.81085(10)
Ca17 Ca 0.00360(12) 0.34306(11) 0.68241(10)
O6 O 0.1269(4) 0.9252(4) 0.2403(4)
O12 O 0.0521(4) 0.8011(4) 0.2737(3)
C31 C 0.0506(7) 0.8835(6) 0.2471(5)
Ca8 Ca 0.23865(12) 0.80112(11) 0.29725(10)
O33 O 0.1872(4) 0.6616(4) 0.3016(3)
O39 O 0.1137(4) 0.5435(4) 0.3036(4)
Ca3 Ca 0.50153(13) 0.82216(11) 0.15676(10)
Ca4 Ca 0.62162(13) 0.22243(11) 0.27308(10)
P1 P 0.39834(15) 0.29397(14) 0.37169(12)
P2 P 0.84092(16) 0.17767(14) 0.16072(13)
O1 O 0.7367(4) 0.1950(4) 0.1855(3)
O3 O 0.4961(4) 0.2639(4) 0.3466(3)
O4 O 0.3077(4) 0.2555(4) 0.3559(3)
O7 O 0.9226(5) 0.2196(4) 0.1865(4)
O8 O 0.1990(4) 0.3286(4) 0.6886(4)
O9 O 0.5574(4) 0.2184(4) 0.7117(4)
O11 O 0.6479(5) 0.2571(4) 0.6004(4)
O13 O 0.1248(4) 0.2849(4) 0.6069(4)
O18 O 0.5441(5) 0.6781(4) 0.1883(4)
O19 O 0.6357(5) 0.5720(5) 0.2561(4)
O20 O 0.6175(5) 0.0787(4) 0.3565(4)
O21 O 0.1515(5) 0.4784(5) 0.7786(4)
O22 O 0.2819(5) 0.3857(5) 0.9143(4)
O23 O 0.6453(5) 0.3680(4) 0.1929(4)
H1 H 0.643326 0.402867 0.222824
H2 H 0.594555 0.387704 0.163165
O25 O 0.5094(6) 0.1807(5) 0.2016(5)
O27 O 0.4175(6) 0.9623(5) 0.1324(5)
C1 C 0.2886(6) 0.5407(6) 0.2960(5)
C3 C 0.3718(6) 0.5903(6) 0.2661(5)
H3 H 0.365695 0.651480 0.245028
C5 C 0.4744(6) 0.2633(5) 0.5941(5)
C7 C 0.3839(6) 0.2720(5) 0.6323(5)
H4 H 0.380832 0.269658 0.685561
C8 C 0.9463(6) 0.0181(6) 0.2084(5)
C9 C 0.5648(6) 0.2450(5) 0.6380(5)
C11 C 0.3037(6) 0.2879(5) 0.5160(5)
H7 H 0.245444 0.293967 0.489626
C13 C 0.4721(6) 0.4614(5) 0.2991(5)
H8 H 0.535158 0.434547 0.301955
C15 C 0.2031(6) 0.3005(5) 0.6326(5)
C16 C 0.4626(7) 0.5513(6) 0.2668(5)
C17 C 0.2972(6) 0.2843(5) 0.5938(5)
C19 C 0.8587(6) 0.0610(5) 0.1892(5)
O29 O 0.5979(7) 0.8593(7) 0.0326(6)
C20 C 0.1915(6) 0.5840(5) 0.2992(5)
C21 C 0.8515(6) 0.2055(5) 0.0557(5)
C22 C 0.3953(6) 0.2828(5) 0.4750(5)
C23 C 0.7694(6) 0.1968(5) 0.0163(5)
H10 H 0.707811 0.181434 0.044831
C24 C 0.9420(6) 0.2311(5) 0.0115(5)
H11 H 0.998295 0.237003 0.036586
C25 C 0.4781(7) 0.2708(5) 0.5147(5)
H12 H 0.539920 0.267378 0.487630
C26 C 0.7765(6) 0.0130(5) 0.1846(5)
H13 H 0.714787 0.041275 0.173663
C27 C 0.5546(7) 0.6037(6) 0.2351(5)
C28 C 0.3881(6) 0.4108(5) 0.3273(5)
O30 O 0.7580(7) 0.2347(7) 0.3395(7)
C32 C 0.2977(6) 0.4508(5) 0.3239(5)
H14 H 0.240472 0.416711 0.340719
N1 N 0.6410(10) 0.0214(9) 0.4825(8)
C33 C 0.6584(9) 0.0215(8) 0.4112(7)
C35 C 0.5910(10) 0.0903(8) 0.5022(8)
H18 H 0.638851 0.129798 0.509320
H19 H 0.549643 0.067055 0.550733
H20 H 0.549983 0.121835 0.460035
Ca6 Ca 0.76135(12) 0.19888(11) 0.70275(10)
Ca11 Ca 0.76654(12) 0.66108(11) 0.18915(10)
Ca14 Ca 0.49847(13) 0.17784(11) 0.84324(10)
O38 O 0.4426(4) 0.7816(4) 0.2883(4)
O43 O 0.2863(5) 0.1952(4) 0.8244(4)
O44 O 0.2984(4) 0.8028(4) 0.1721(4)
O45 O 0.3900(5) 0.8196(5) 0.0621(4)
O46 O 0.6165(5) 0.9121(4) 0.1851(4)
O47 O 0.3643(5) 0.4280(5) 0.7439(4)
H24 H 0.0822259 0.471873 0.769259
H25 H 0.153543 0.502293 0.822541
H26 H 0.243018 0.437994 0.915921
H27 H 0.2702 0.338803 0.964754
H32 H 0.38276 0.965822 0.181719
H34 H 0.523929 0.120134 0.202623
H35 H 0.441912 0.184631 0.225114
H36 H 0.800603 0.281796 0.30536
H37 H 0.735327 0.248303 0.387922
H39 H 0.591603 0.922447 0.00541148
O15 O 0.7016(4) 0.1972(4) 0.8279(4)
O16 O 0.6100(5) 0.1804(5) 0.9379(4)
O26 O 0.8537(6) 0.2095(6) 0.5819(5)
O28 O 0.6793(5) 0.0642(5) 0.7134(5)
C2 C 0.7777(6) 0.2101(6) 0.9377(5)
C10 C 0.8664(6) 0.2367(5) 0.8948(5)
H6 H 0.871269 0.247502 0.839898
C14 C 0.9475(7) 0.2476(6) 0.9312(5)
C29 C 0.6914(7) 0.1953(6) 0.8990(5)
O34 O 0.8128(4) 0.3384(4) 0.6984(3)
O35 O 0.8731(4) 0.0748(4) 0.7597(4)
O41 O 0.9479(4) 0.1989(4) 0.7263(3)
H28 H 0.910635 0.168759 0.591935
H29 H 0.811367 0.194564 0.546222
H30 H 0.607416 0.071869 0.722155
H31 H 0.693926 0.0495129 0.664377
H38 H 0.57383 0.826833 0.999833
O14 O 0.7137(5) 0.8048(4) 0.1756(4)
C4 C 0.9572(6) 0.9284(5) 0.2233(5)
C6 C 0.7864(6) 0.9237(5) 0.1961(5)
C12 C 0.7005(6) 0.8754(5) 0.1859(5)
C18 C 0.8761(6) 0.8826(6) 0.2162(5)
H9 H 0.882323 0.821956 0.225196
C34 C 0.7210(9) 0.9488(8) 0.3940(7)
H15 H 0.696392 0.892654 0.427871
H16 H 0.789228 0.954745 0.404014
H17 H 0.717641 0.952418 0.339223
C36 C 0.6672(18) 0.9488(16) 0.5496(15)
H21 H 0.615616 0.940891 0.592032
H22 H 0.729305 0.960672 0.567236
H23 H 0.674369 0.895997 0.534523
Ca5 Ca 0.99640(12) 0.65694(11) 0.31759(10)
O32 O 0.9572(4) 0.6902(4) 0.1882(3)
O36 O 0.8010(4) 0.6714(4) 0.3114(4)
O42 O 0.8752(4) 0.7151(4) 0.3931(4)
O17 O 0.3835(5) 0.0879(4) 0.8149(4)
C4_2 C 0.0428(6) 0.0716(5) 0.7767(5)
C6_2 C 0.2136(6) 0.0763(5) 0.8039(5)
C12_2 C 0.2995(6) 0.1246(5) 0.8141(5)
C18_2 C 0.1239(6) 0.1174(6) 0.7838(5)
H9_2 H 0.117677 0.178044 0.774804
C34_2 C 0.2790(9) 0.0512(8) 0.6060(7)
H15_2 H 0.303608 0.107346 0.572129
H16_2 H 0.210772 0.045255 0.595986
H17_2 H 0.282359 0.047582 0.660777
C36_2 C 0.3328(18) 0.0512(16) 0.4504(15)
H21_2 H 0.384384 0.059109 0.407968
H22_2 H 0.270695 0.039328 0.432764
H23_2 H 0.325631 0.104003 0.465477
O26_2 O 0.1463(6) 0.7905(6) 0.4181(5)
O28_2 O 0.3207(5) 0.9358(5) 0.2866(5)
C2_2 C 0.2223(6) 0.7899(6) 0.0623(5)
C10_2 C 0.1336(6) 0.7633(5) 0.1052(5)
H6_2 H 0.128731 0.752498 0.160102
C14_2 C 0.0525(7) 0.7524(6) 0.0688(5)
C29_2 C 0.3086(7) 0.8047(6) 0.1010(5)
O40 O 0.3521(5) 0.7429(4) 0.3996(4)
H28_2 H 0.0893655 0.831241 0.408065
H29_2 H 0.188633 0.805436 0.453778
H30_2 H 0.392584 0.928131 0.277845
H31_2 H 0.306074 0.950487 0.335623
H38_2 H 0.42617 0.173167 0.000167186
Ca4_2 Ca 0.37838(13) 0.77757(11) 0.72692(10)
P1_2 P 0.60166(15) 0.70603(14) 0.62831(12)
P2_2 P 0.15908(16) 0.82233(14) 0.83928(13)
O1_2 O 0.2633(4) 0.8050(4) 0.8145(3)
O3_2 O 0.5039(4) 0.7361(4) 0.6534(3)
O4_2 O 0.6923(4) 0.7445(4) 0.6441(3)
O7_2 O 0.0774(5) 0.7804(4) 0.8135(4)
O10 O 0.8863(4) 0.4565(4) 0.6964(4)
O18_2 O 0.4559(5) 0.3219(4) 0.8117(4)
O20_2 O 0.3825(5) 0.9213(4) 0.6435(4)
O21_2 O 0.8485(5) 0.5216(5) 0.2214(4)
O22_2 O 0.7181(5) 0.6143(5) 0.0857(4)
O23_2 O 0.3547(5) 0.6320(4) 0.8071(4)
H1_2 H 0.356674 0.597133 0.777176
H2_2 H 0.405445 0.612296 0.836835
O25_2 O 0.4906(6) 0.8193(5) 0.7984(5)
O27_2 O 0.5825(6) 0.0377(5) 0.8676(5)
C1_2 C 0.7114(6) 0.4593(6) 0.7040(5)
C3_2 C 0.6282(6) 0.4097(6) 0.7339(5)
H3_2 H 0.634305 0.348520 0.754972
C5_2 C 0.5256(6) 0.7367(5) 0.4059(5)
C7_2 C 0.6161(6) 0.7280(5) 0.3677(5)
H4_2 H 0.619168 0.730342 0.314439
C8_2 C 0.0537(6) 0.9819(6) 0.7916(5)
C9_2 C 0.4352(6) 0.7550(5) 0.3620(5)
C11_2 C 0.6963(6) 0.7121(5) 0.4840(5)
H7_2 H 0.754556 0.706033 0.510374
C13_2 C 0.5279(6) 0.5386(5) 0.7009(5)
H8_2 H 0.464842 0.565453 0.698045
C15_2 C 0.7969(6) 0.6995(5) 0.3674(5)
C16_2 C 0.5374(7) 0.4487(6) 0.7332(5)
C17_2 C 0.7028(6) 0.7157(5) 0.4062(5)
C19_2 C 0.1413(6) 0.9390(5) 0.8108(5)
O29_2 O 0.4021(7) 0.1407(7) 0.9674(6)
C20_2 C 0.8085(6) 0.4160(5) 0.7008(5)
C21_2 C 0.1485(6) 0.7945(5) 0.9443(5)
C22_2 C 0.6047(6) 0.7172(5) 0.5250(5)
C23_2 C 0.2306(6) 0.8032(5) 0.9837(5)
H10_2 H 0.292189 0.818566 0.955169
C24_2 C 0.0580(6) 0.7689(5) 0.9885(5)
H11_2 H 0.001705 0.762997 0.963414
C25_2 C 0.5219(7) 0.7292(5) 0.4853(5)
H12_2 H 0.460080 0.732622 0.512370
C26_2 C 0.2235(6) 0.9870(5) 0.8154(5)
H13_2 H 0.285213 0.958725 0.826337
C27_2 C 0.4454(7) 0.3963(6) 0.7649(5)
C28_2 C 0.6119(6) 0.5892(5) 0.6727(5)
O30_2 O 0.2420(7) 0.7653(7) 0.6605(7)
C32_2 C 0.7023(6) 0.5492(5) 0.6761(5)
H14_2 H 0.759528 0.583289 0.659281
N1_2 N 0.3590(10) 0.9786(9) 0.5175(8)
C33_2 C 0.3416(9) 0.9785(8) 0.5888(7)
C35_2 C 0.4090(10) 0.9097(8) 0.4978(8)
H18_2 H 0.361149 0.870202 0.490680
H19_2 H 0.450357 0.932945 0.449267
H20_2 H 0.450017 0.878165 0.539965
O48 O 0.8806(5) 0.7294(4) 0.0793(4)
H24_2 H 0.917774 0.528127 0.230741
H25_2 H 0.846457 0.497707 0.177459
H26_2 H 0.756982 0.562006 0.0840788
H27_2 H 0.7298 0.661197 0.0352459
H32_2 H 0.61724 0.0341778 0.818281
H34_2 H 0.476071 0.879866 0.797377
H35_2 H 0.558088 0.815369 0.774886
H36_2 H 0.199397 0.718204 0.69464
H37_2 H 0.264673 0.751697 0.612078
H39_2 H 0.408397 0.0775534 0.994589
C31_2 C 0.9494(7) 0.1165(6) 0.7529(5)
C30_2 C 0.9586(6) 0.7217(6) 0.1162(5)
H33 H 0.466195 0.0092961 0.112828
H33_2 H 0.533805 0.990704 0.887172
H5_2 H 0.998878 0.949660 0.788275
loop_
_geom_bond_atom_site_label_1
_geom_bond_atom_site_label_2
_geom_bond_site_symmetry_1
_geom_bond_site_symmetry_2
O2 C30 1_555 1_555
O24 C30 1_555 1_555
Ca9 O2 1_555 1_555
Ca17 O2 1_555 1_555
O24 Ca9 1_555 1_555
O6 C31 1_555 1_555
O12 C31 1_555 1_555
Ca8 O6 1_555 1_555
O12 Ca8 1_555 1_555
Ca8 O33 1_555 1_555
Ca9 O8 1_555 1_555
Ca3 O18 1_555 1_555
Ca4 O1 1_555 1_555
P1 O3 1_555 1_555
P2 O1 1_555 1_555
O3 Ca4 1_555 1_555
O4 P1 1_555 1_555
O33 C20 1_555 1_555
O7 P2 1_555 1_555
O8 C15 1_555 1_555
O9 C9 1_555 1_555
O39 C20 1_555 1_555
O11 C9 1_555 1_555
O13 C15 1_555 1_555
O18 C27 1_555 1_555
O19 C27 1_555 1_555
O20 Ca4 1_555 1_555
O21 Ca9 1_555 1_555
O22 Ca9 1_555 1_555
O23 Ca4 1_555 1_555
H1 O23 1_555 1_555
H2 O23 1_555 1_555
O25 Ca4 1_555 1_555
O27 Ca3 1_555 1_555
C1 C3 1_555 1_555
C3 H3 1_555 1_555
C5 C7 1_555 1_555
C7 H4 1_555 1_555
C9 C5 1_555 1_555
C11 H7 1_555 1_555
C13 H8 1_555 1_555
C15 C17 1_555 1_555
C16 C3 1_555 1_555
C17 C7 1_555 1_555
C19 P2 1_555 1_555
O29 Ca3 1_555 1_555
C20 C1 1_555 1_555
C21 P2 1_555 1_555
C22 P1 1_555 1_555
H10 C23 1_555 1_555
H11 C24 1_555 1_555
C25 C5 1_555 1_555
H12 C25 1_555 1_555
H13 C26 1_555 1_555
C27 C16 1_555 1_555
C28 P1 1_555 1_555
O30 Ca4 1_555 1_555
C32 C1 1_555 1_555
H14 C32 1_555 1_555
N1 C33 1_555 1_555
C33 O20 1_555 1_555
C35 N1 1_555 1_555
H18 C35 1_555 1_555
H19 C35 1_555 1_555
H20 C35 1_555 1_555
Ca6 O9 1_555 1_555
Ca11 O19 1_555 1_555
Ca14 O9 1_555 1_555
O38 Ca3 1_555 1_555
O43 Ca9 1_555 1_555
O44 Ca3 1_555 1_555
O45 Ca3 1_555 1_555
O46 Ca3 1_555 1_555
O47 Ca9 1_555 1_555
Ca17 O8 1_555 1_555
O11 Ca6 1_555 1_555
O13 Ca17 1_555 1_555
C8 C19 1_555 1_555
C11 C17 1_555 1_555
C11 C22 1_555 1_555
C13 C16 1_555 1_555
C13 C28 1_555 1_555
C19 C26 1_555 1_555
C21 C23 1_555 1_555
C21 C24 1_555 1_555
C22 C25 1_555 1_555
C28 C32 1_555 1_555
Ca8 O38 1_555 1_555
Ca8 O44 1_555 1_555
O21 H24 1_555 1_555
O21 H25 1_555 1_555
O22 H26 1_555 1_555
O22 H27 1_555 1_555
O27 H32 1_555 1_555
O25 H34 1_555 1_555
O25 H35 1_555 1_555
O30 H36 1_555 1_555
O30 H37 1_555 1_555
O29 H39 1_555 1_555
Ca6 O15 1_555 1_555
O15 C29 1_555 1_555
O16 C29 1_555 1_555
O26 Ca6 1_555 1_555
O28 Ca6 1_555 1_555
C2 C10 1_555 1_555
C10 H6 1_555 1_555
C14 C10 1_555 1_555
C29 C2 1_555 1_555
Ca14 O15 1_555 1_555
O34 Ca6 1_555 1_555
O35 Ca6 1_555 1_555
O41 Ca6 1_555 1_555
O16 Ca14 1_555 1_555
O26 H28 1_555 1_555
O26 H29 1_555 1_555
O28 H30 1_555 1_555
O28 H31 1_555 1_555
O14 C12 1_555 1_555
O46 C12 1_555 1_555
C6 C12 1_555 1_555
C18 C4 1_555 1_555
H9 C18 1_555 1_555
H15 C34 1_555 1_555
H16 C34 1_555 1_555
H17 C34 1_555 1_555
H21 C36 1_555 1_555
H22 C36 1_555 1_555
H23 C36 1_555 1_555
Ca11 O14 1_555 1_555
O32 Ca5 1_555 1_555
O36 Ca5 1_555 1_555
O42 Ca5 1_555 1_555
C6 C18 1_555 1_555
Ca11 O32 1_555 1_555
Ca11 O36 1_555 1_555
O43 C12_2 1_555 1_555
O17 C12_2 1_555 1_555
C6_2 C12_2 1_555 1_555
C18_2 C4_2 1_555 1_555
H9_2 C18_2 1_555 1_555
H15_2 C34_2 1_555 1_555
H16_2 C34_2 1_555 1_555
H17_2 C34_2 1_555 1_555
H21_2 C36_2 1_555 1_555
H22_2 C36_2 1_555 1_555
H23_2 C36_2 1_555 1_555
Ca14 O17 1_555 1_555
C6_2 C18_2 1_555 1_555
O44 C29_2 1_555 1_555
O45 C29_2 1_555 1_555
O26_2 Ca8 1_555 1_555
O28_2 Ca8 1_555 1_555
C2_2 C10_2 1_555 1_555
C10_2 H6_2 1_555 1_555
C14_2 C10_2 1_555 1_555
C29_2 C2_2 1_555 1_555
O40 Ca8 1_555 1_555
O26_2 H28_2 1_555 1_555
O26_2 H29_2 1_555 1_555
O28_2 H30_2 1_555 1_555
O28_2 H31_2 1_555 1_555
Ca14 O18_2 1_555 1_555
Ca4_2 O1_2 1_555 1_555
P1_2 O3_2 1_555 1_555
P2_2 O1_2 1_555 1_555
O3_2 Ca4_2 1_555 1_555
O4_2 P1_2 1_555 1_555
O34 C20_2 1_555 1_555
O7_2 P2_2 1_555 1_555
O36 C15_2 1_555 1_555
O38 C9_2 1_555 1_555
O10 C20_2 1_555 1_555
O40 C9_2 1_555 1_555
O42 C15_2 1_555 1_555
O18_2 C27_2 1_555 1_555
O47 C27_2 1_555 1_555
O20_2 Ca4_2 1_555 1_555
O21_2 Ca11 1_555 1_555
O22_2 Ca11 1_555 1_555
O23_2 Ca4_2 1_555 1_555
H1_2 O23_2 1_555 1_555
H2_2 O23_2 1_555 1_555
O25_2 Ca4_2 1_555 1_555
O27_2 Ca14 1_555 1_555
C1_2 C3_2 1_555 1_555
C3_2 H3_2 1_555 1_555
C5_2 C7_2 1_555 1_555
C7_2 H4_2 1_555 1_555
C9_2 C5_2 1_555 1_555
C11_2 H7_2 1_555 1_555
C13_2 H8_2 1_555 1_555
C15_2 C17_2 1_555 1_555
C16_2 C3_2 1_555 1_555
C17_2 C7_2 1_555 1_555
C19_2 P2_2 1_555 1_555
O29_2 Ca14 1_555 1_555
C20_2 C1_2 1_555 1_555
C21_2 P2_2 1_555 1_555
C22_2 P1_2 1_555 1_555
H10_2 C23_2 1_555 1_555
H11_2 C24_2 1_555 1_555
C25_2 C5_2 1_555 1_555
H12_2 C25_2 1_555 1_555
H13_2 C26_2 1_555 1_555
C27_2 C16_2 1_555 1_555
C28_2 P1_2 1_555 1_555
O30_2 Ca4_2 1_555 1_555
C32_2 C1_2 1_555 1_555
H14_2 C32_2 1_555 1_555
N1_2 C33_2 1_555 1_555
C33_2 O20_2 1_555 1_555
C35_2 N1_2 1_555 1_555
H18_2 C35_2 1_555 1_555
H19_2 C35_2 1_555 1_555
H20_2 C35_2 1_555 1_555
O48 Ca11 1_555 1_555
C8_2 C19_2 1_555 1_555
C11_2 C17_2 1_555 1_555
C11_2 C22_2 1_555 1_555
C13_2 C16_2 1_555 1_555
C13_2 C28_2 1_555 1_555
C19_2 C26_2 1_555 1_555
C21_2 C23_2 1_555 1_555
C21_2 C24_2 1_555 1_555
C22_2 C25_2 1_555 1_555
C28_2 C32_2 1_555 1_555
O21_2 H24_2 1_555 1_555
O21_2 H25_2 1_555 1_555
O22_2 H26_2 1_555 1_555
O22_2 H27_2 1_555 1_555
O27_2 H32_2 1_555 1_555
O25_2 H34_2 1_555 1_555
O25_2 H35_2 1_555 1_555
O30_2 H36_2 1_555 1_555
O30_2 H37_2 1_555 1_555
O29_2 H39_2 1_555 1_555
O35 C31_2 1_555 1_555
O41 C31_2 1_555 1_555
O32 C30_2 1_555 1_555
O48 C30_2 1_555 1_555

#END
