
###############################################################################
#
# This file contains modified crystal structure data generated from the
# MOF subset of the Cambridge Structural Database (CSD) v543 
# hosted by the Cambridge Crystallographic Data Centre (CCDC).
#
# This work is licensed under the Creative Commons
# Attribution-NonCommercial-ShareAlike 4.0 International License.
# To view a copy of this license, visit
# http://creativecommons.org/licenses/by-nc-sa/4.0/
# or send a letter to
# Creative Commons, PO Box 1866, Mountain View, CA 94042, USA.
#
# CIF created using the CSD Python API on 29 September 2022
# The structure has been converted into the P1 space group
# The structure has a 3D framework
# The original CSD entry KADHAC is in the orthorhombic crystal system
# The framework has been calculated to contain at least 10.0% void space
# The void calculation uses a probe of radius 1.32A, grid spacing 0.4
#
###############################################################################

data_KADHAC
_chemical_formula_moiety         '(C104 H64 Cl4 In6 N8 O28)n'
_symmetry_cell_setting           triclinic
_symmetry_space_group_name_H-M   'P 1'
_symmetry_Int_Tables_number      1
_space_group_name_Hall           'P 1'
loop_
_symmetry_equiv_pos_site_id
_symmetry_equiv_pos_as_xyz
1 x,y,z
_cell_length_a                   15.7716(12)
_cell_length_b                   12.4160(6)
_cell_length_c                   22.8681(11)
_cell_angle_alpha                90
_cell_angle_beta                 90
_cell_angle_gamma                90
_cell_volume                     4478.04
loop_
_atom_site_label
_atom_site_type_symbol
_atom_site_fract_x
_atom_site_fract_y
_atom_site_fract_z
O2 O 0.6227(3) 0.0382(3) 0.26003(18)
H2 H 0.520050 0.023728 0.347302
In3 In 0.750000 -0.000000 0.19102(2)
O8 O 0.8033(3) 0.1098(3) 0.25217(16)
C14 C 0.8603(4) 0.0546(5) 0.2771(2)
C15 C 0.9065(4) 0.1025(4) 0.3278(2)
C17 C 0.9283(4) 0.2519(4) 0.3925(3)
H9 H 0.914711 0.321374 0.404402
C19 C 0.9668(4) 0.0463(4) 0.3585(2)
C20 C 0.8873(4) 0.2074(5) 0.3442(3)
H11 H 0.847659 0.247366 0.323340
C22 C 0.9885(4) 0.1944(4) 0.4227(3)
O3 O 0.6997(2) 0.1545(2) 0.15144(13)
C3 C 0.6567(4) 0.0992(4) 0.1139(2)
C5 C 0.6119(4) 0.1568(4) 0.0662(2)
C8 C 0.6058(4) 0.2680(4) 0.0646(3)
H4 H 0.628573 0.309344 0.094646
C11 C 0.5657(4) 0.3170(4) 0.0182(3)
H5 H 0.560928 0.391683 0.017256
C13 C 0.5766(5) 0.0987(5) 0.0209(3)
H8 H 0.579915 0.023958 0.021478
O5 O 0.8452(2) 0.0030(3) 0.11760(13)
In1 In 0.250000 0.500000 0.69102(2)
O1 O 0.3452(2) 0.4970(3) 0.61760(13)
O3_2 O 0.3003(2) 0.6545(2) 0.65144(13)
O4 O 0.6967(3) 0.8902(3) 0.25217(16)
C1 C 0.6397(4) 0.9454(5) 0.2771(2)
C2 C 0.5935(4) 0.8975(4) 0.3278(2)
C3_2 C 0.3433(4) 0.5992(4) 0.6139(2)
C4 C 0.5717(4) 0.7481(4) 0.3925(3)
H1 H 0.585289 0.678626 0.404402
C5_2 C 0.3881(4) 0.6568(4) 0.5662(2)
C6 C 0.5332(4) 0.9537(4) 0.3585(2)
C7 C 0.6127(4) 0.7926(5) 0.3442(3)
H3 H 0.652341 0.752634 0.323340
C8_2 C 0.3942(4) 0.7680(4) 0.5646(3)
H4_2 H 0.371427 0.809344 0.594646
C9 C 0.5115(4) 0.8056(4) 0.4227(3)
C10 C 0.4670(4) 0.7570(4) 0.4737(3)
C11_2 C 0.4343(4) 0.8170(4) 0.5182(3)
H5_2 H 0.439072 0.891683 0.517256
C12 C 0.4914(4) 0.9088(4) 0.4057(2)
H6 H 0.450317 0.947847 0.425706
N1 N 0.4624(4) 0.6479(4) 0.4761(2)
H7 H 0.484639 0.609941 0.448614
C13_2 C 0.4234(5) 0.5987(5) 0.5209(3)
H8_2 H 0.420085 0.523958 0.521478
O5_2 O 0.1548(2) 0.5030(3) 0.61760(13)
O7 O 0.1997(2) 0.3455(2) 0.65144(13)
C16 C 0.1567(4) 0.4008(4) 0.6139(2)
C18 C 0.1119(4) 0.3432(4) 0.5662(2)
C21 C 0.1058(4) 0.2320(4) 0.5646(3)
H12 H 0.128573 0.190656 0.594646
C23 C 0.0330(4) 0.2430(4) 0.4737(3)
C24 C 0.0657(4) 0.1830(4) 0.5182(3)
H13 H 0.060928 0.108317 0.517256
C25 C 0.0086(4) 0.0912(4) 0.4057(2)
H14 H 0.049683 0.052153 0.425706
N2 N 0.0376(4) 0.3521(4) 0.4761(2)
H15 H 0.015361 0.390059 0.448614
C26 C 0.0766(5) 0.4013(5) 0.5209(3)
H16 H 0.079915 0.476042 0.521478
In3_2 In 0.750000 1.000000 0.19102(2)
O9 O 0.3773(3) 0.5382(3) 0.76003(18)
O10 O 0.1227(3) 0.4618(3) 0.76003(18)
O11 O 0.3033(3) 0.3902(3) 0.75217(16)
O12 O 0.1967(3) 0.6098(3) 0.75217(16)
O6 O 0.8773(3) 0.9618(3) 0.26003(18)
H10 H 0.979950 0.976272 0.347302
C14_2 C 0.1397(4) 0.5546(5) 0.7771(2)
C15_2 C 0.0935(4) 0.6025(4) 0.8278(2)
C17_2 C 0.0717(4) 0.7519(4) 0.8925(3)
H9_2 H 0.085289 0.821374 0.904402
C19_2 C 0.0332(4) 0.5463(4) 0.8585(2)
H10_2 H 0.020050 0.476272 0.847302
C20_2 C 0.1127(4) 0.7074(5) 0.8442(3)
H11_2 H 0.152341 0.747366 0.823340
C22_2 C 0.0115(4) 0.6944(4) 0.9227(3)
C1_2 C 0.3603(4) 0.4454(5) 0.7771(2)
C2_2 C 0.4065(4) 0.3975(4) 0.8278(2)
C4_2 C 0.4283(4) 0.2481(4) 0.8925(3)
H1_2 H 0.414711 0.178626 0.904402
C6_2 C 0.4668(4) 0.4537(4) 0.8585(2)
H2_2 H 0.479950 0.523728 0.847302
C7_2 C 0.3873(4) 0.2926(5) 0.8442(3)
H3_2 H 0.347659 0.252634 0.823340
C9_2 C 0.4885(4) 0.3056(4) 0.9227(3)
C10_2 C 0.5330(4) 0.2570(4) 0.9737(3)
C12_2 C 0.5086(4) 0.4088(4) 0.9057(2)
H6_2 H 0.549683 0.447847 0.925706
N1_2 N 0.5376(4) 0.1479(4) 0.9761(2)
H7_2 H 0.515361 0.109941 0.948614
O1_2 O 0.6548(2) 0.9970(3) 0.11760(13)
O7_2 O 0.8003(2) 0.8455(2) 0.15144(13)
C16_2 C 0.8433(4) 0.9008(4) 0.1139(2)
C18_2 C 0.8881(4) 0.8432(4) 0.0662(2)
C21_2 C 0.8942(4) 0.7320(4) 0.0646(3)
H12_2 H 0.871427 0.690656 0.094646
C24_2 C 0.9343(4) 0.6830(4) 0.0182(3)
H13_2 H 0.939072 0.608317 0.017256
C26_2 C 0.9234(5) 0.9013(5) 0.0209(3)
H16_2 H 0.920085 0.976042 0.021478
C23_2 C 0.0330(4) 0.2570(4) 0.0263(3)
C25_2 C 0.0086(4) 0.4088(4) 0.0943(2)
H14_2 H 0.049683 0.447847 0.074294
N2_2 N 0.0376(4) 0.1479(4) 0.0239(2)
H15_2 H 0.015361 0.109941 0.051386
In1_2 In 0.250000 0.000000 0.80898(2)
O1_3 O 0.3452(2) 0.0030(3) 0.88240(13)
O7_3 O 0.1997(2) 0.1545(2) 0.84856(13)
C16_3 C 0.1567(4) 0.0992(4) 0.8861(2)
C18_3 C 0.1119(4) 0.1568(4) 0.9338(2)
C21_3 C 0.1058(4) 0.2680(4) 0.9354(3)
H12_3 H 0.128573 0.309344 0.905354
C24_3 C 0.0657(4) 0.3170(4) 0.9818(3)
H13_3 H 0.060928 0.391683 0.982744
C26_3 C 0.0766(5) 0.0987(5) 0.9791(3)
H16_3 H 0.079915 0.023958 0.978522
O10_2 O 0.1227(3) 0.0382(3) 0.73997(18)
O11_2 O 0.3033(3) 0.1098(3) 0.74783(16)
O2_2 O 0.6227(3) 0.4618(3) 0.23997(18)
O4_2 O 0.6967(3) 0.6098(3) 0.24783(16)
C1_3 C 0.6397(4) 0.5546(5) 0.2229(2)
C2_3 C 0.5935(4) 0.6025(4) 0.1722(2)
C4_3 C 0.5717(4) 0.7519(4) 0.1075(3)
H1_3 H 0.585289 0.821374 0.095598
C6_3 C 0.5332(4) 0.5463(4) 0.1415(2)
H2_3 H 0.520050 0.476272 0.152698
C7_3 C 0.6127(4) 0.7074(5) 0.1558(3)
H3_3 H 0.652341 0.747366 0.176660
C9_3 C 0.5115(4) 0.6944(4) 0.0773(3)
C10_3 C 0.4670(4) 0.7430(4) 0.0263(3)
C12_3 C 0.4914(4) 0.5912(4) 0.0943(2)
H6_3 H 0.450317 0.552153 0.074294
N1_3 N 0.4624(4) 0.8521(4) 0.0239(2)
H7_3 H 0.484639 0.890059 0.051386
In3_3 In 0.750000 0.500000 0.30898(2)
O6_2 O 0.8773(3) 0.5382(3) 0.23997(18)
O8_2 O 0.8033(3) 0.3902(3) 0.24783(16)
C14_3 C 0.8603(4) 0.4454(5) 0.2229(2)
C15_3 C 0.9065(4) 0.3975(4) 0.1722(2)
C17_3 C 0.9283(4) 0.2481(4) 0.1075(3)
H9_3 H 0.914711 0.178626 0.095598
C19_3 C 0.9668(4) 0.4537(4) 0.1415(2)
H10_3 H 0.979950 0.523728 0.152698
C20_3 C 0.8873(4) 0.2926(5) 0.1558(3)
H11_3 H 0.847659 0.252634 0.176660
C22_3 C 0.9885(4) 0.3056(4) 0.0773(3)
H10_4 H 0.020050 0.023728 0.652698
O1_4 O 0.6548(2) 0.5030(3) 0.38240(13)
O3_3 O 0.6997(2) 0.3455(2) 0.34856(13)
C1_4 C 0.3603(4) 0.0546(5) 0.7229(2)
C2_4 C 0.4065(4) 0.1025(4) 0.6722(2)
C3_3 C 0.6567(4) 0.4008(4) 0.3861(2)
C4_4 C 0.4283(4) 0.2519(4) 0.6075(3)
H1_4 H 0.414711 0.321374 0.595598
C5_3 C 0.6119(4) 0.3432(4) 0.4338(2)
C6_4 C 0.4668(4) 0.0463(4) 0.6415(2)
C7_4 C 0.3873(4) 0.2074(5) 0.6558(3)
H3_4 H 0.347659 0.247366 0.676660
C8_3 C 0.6058(4) 0.2320(4) 0.4354(3)
H4_3 H 0.628573 0.190656 0.405354
C9_4 C 0.4885(4) 0.1944(4) 0.5773(3)
C10_4 C 0.5330(4) 0.2430(4) 0.5263(3)
C11_3 C 0.5657(4) 0.1830(4) 0.4818(3)
H5_3 H 0.560928 0.108317 0.482744
C12_4 C 0.5086(4) 0.0912(4) 0.5943(2)
H6_4 H 0.549683 0.052153 0.574294
N1_4 N 0.5376(4) 0.3521(4) 0.5239(2)
H7_4 H 0.515361 0.390059 0.551386
C13_3 C 0.5766(5) 0.4013(5) 0.4791(3)
H8_3 H 0.579915 0.476042 0.478522
O5_3 O 0.8452(2) 0.4970(3) 0.38240(13)
O7_4 O 0.8003(2) 0.6545(2) 0.34856(13)
C16_4 C 0.8433(4) 0.5992(4) 0.3861(2)
C18_4 C 0.8881(4) 0.6568(4) 0.4338(2)
C21_4 C 0.8942(4) 0.7680(4) 0.4354(3)
H12_4 H 0.871427 0.809344 0.405354
C23_3 C 0.9670(4) 0.7570(4) 0.5263(3)
C24_4 C 0.9343(4) 0.8170(4) 0.4818(3)
H13_4 H 0.939072 0.891683 0.482744
C25_3 C 0.9914(4) 0.9088(4) 0.5943(2)
H14_3 H 0.950317 0.947847 0.574294
N2_3 N 0.9624(4) 0.6479(4) 0.5239(2)
H15_3 H 0.984639 0.609941 0.551386
C26_4 C 0.9234(5) 0.5987(5) 0.4791(3)
H16_4 H 0.920085 0.523958 0.478522
In1_3 In 0.250000 1.000000 0.80898(2)
O3_4 O 0.3003(2) 0.8455(2) 0.84856(13)
C3_4 C 0.3433(4) 0.9008(4) 0.8861(2)
C5_4 C 0.3881(4) 0.8432(4) 0.9338(2)
C8_4 C 0.3942(4) 0.7320(4) 0.9354(3)
H4_4 H 0.371427 0.690656 0.905354
C11_4 C 0.4343(4) 0.6830(4) 0.9818(3)
H5_4 H 0.439072 0.608317 0.982744
C13_4 C 0.4234(5) 0.9013(5) 0.9791(3)
H8_4 H 0.420085 0.976042 0.978522
O5_4 O 0.1548(2) 0.9970(3) 0.88240(13)
O9_2 O 0.3773(3) 0.9618(3) 0.73997(18)
O12_2 O 0.1967(3) 0.8902(3) 0.74783(16)
C14_4 C 0.1397(4) 0.9454(5) 0.7229(2)
C15_4 C 0.0935(4) 0.8975(4) 0.6722(2)
C17_4 C 0.0717(4) 0.7481(4) 0.6075(3)
H9_4 H 0.085289 0.678626 0.595598
C19_4 C 0.0332(4) 0.9537(4) 0.6415(2)
C20_4 C 0.1127(4) 0.7926(5) 0.6558(3)
H11_4 H 0.152341 0.752634 0.676660
C22_4 C 0.0115(4) 0.8056(4) 0.5773(3)
H2_4 H 0.479950 0.976272 0.652698
C23_4 C 0.9670(4) 0.7430(4) 0.9737(3)
C25_4 C 0.9914(4) 0.5912(4) 0.9057(2)
H14_4 H 0.950317 0.552153 0.925706
N2_4 N 0.9624(4) 0.8521(4) 0.9761(2)
H15_4 H 0.984639 0.890059 0.948614
Cl1 Cl 0.36152(17) 0.750000 0.750000
Cl1_2 Cl 0.13848(17) 0.250000 0.750000
Cl1_3 Cl 0.63848(17) 0.250000 0.250000
Cl1_4 Cl 0.86152(17) 0.750000 0.250000
loop_
_geom_bond_atom_site_label_1
_geom_bond_atom_site_label_2
_geom_bond_site_symmetry_1
_geom_bond_site_symmetry_2
In3 O2 1_555 1_555
O8 C14 1_555 1_555
C14 C15 1_555 1_555
C15 C19 1_555 1_555
C17 H9 1_555 1_555
C20 C15 1_555 1_555
H11 C20 1_555 1_555
C22 C17 1_555 1_555
O8 In3 1_555 1_555
C17 C20 1_555 1_555
O3 In3 1_555 1_555
C3 O3 1_555 1_555
C5 C3 1_555 1_555
C8 C5 1_555 1_555
H4 C8 1_555 1_555
C11 C8 1_555 1_555
H5 C11 1_555 1_555
C13 C5 1_555 1_555
H8 C13 1_555 1_555
O5 In3 1_555 1_555
In1 O1 1_555 1_555
O1 C3_2 1_555 1_555
O3_2 In1 1_555 1_555
O4 C1 1_555 1_555
C1 C2 1_555 1_555
C2 C6 1_555 1_555
C3_2 O3_2 1_555 1_555
C4 H1 1_555 1_555
C5_2 C3_2 1_555 1_555
C7 C2 1_555 1_555
H3 C7 1_555 1_555
C8_2 C5_2 1_555 1_555
H4_2 C8_2 1_555 1_555
C9 C4 1_555 1_555
C10 C9 1_555 1_555
C11_2 C8_2 1_555 1_555
H5_2 C11_2 1_555 1_555
C12 C6 1_555 1_555
H6 C12 1_555 1_555
N1 C10 1_555 1_555
H7 N1 1_555 1_555
C13_2 C5_2 1_555 1_555
H8_2 C13_2 1_555 1_555
O5_2 In1 1_555 1_555
O7 In1 1_555 1_555
C16 O5_2 1_555 1_555
C18 C16 1_555 1_555
C21 C18 1_555 1_555
H12 C21 1_555 1_555
C24 C21 1_555 1_555
H13 C24 1_555 1_555
H14 C25 1_555 1_555
N2 C23 1_555 1_555
H15 N2 1_555 1_555
C26 C18 1_555 1_555
H16 C26 1_555 1_555
O9 In1 1_555 1_555
O10 In1 1_555 1_555
O11 In1 1_555 1_555
O12 In1 1_555 1_555
O4 In3_2 1_555 1_555
C4 C7 1_555 1_555
C9 C12 1_555 1_555
C10 C11_2 1_555 1_555
N1 C13_2 1_555 1_555
O7 C16 1_555 1_555
C23 C24 1_555 1_555
N2 C26 1_555 1_555
In3_2 O6 1_555 1_555
O10 C14_2 1_555 1_555
O12 C14_2 1_555 1_555
C14_2 C15_2 1_555 1_555
C15_2 C19_2 1_555 1_555
C17_2 H9_2 1_555 1_555
C19_2 H10_2 1_555 1_555
C20_2 C15_2 1_555 1_555
H11_2 C20_2 1_555 1_555
C22_2 C17_2 1_555 1_555
C17_2 C20_2 1_555 1_555
O9 C1_2 1_555 1_555
O11 C1_2 1_555 1_555
C1_2 C2_2 1_555 1_555
C2_2 C6_2 1_555 1_555
C4_2 H1_2 1_555 1_555
C6_2 H2_2 1_555 1_555
C7_2 C2_2 1_555 1_555
H3_2 C7_2 1_555 1_555
C9_2 C4_2 1_555 1_555
C10_2 C9_2 1_555 1_555
C12_2 C6_2 1_555 1_555
H6_2 C12_2 1_555 1_555
N1_2 C10_2 1_555 1_555
H7_2 N1_2 1_555 1_555
C4_2 C7_2 1_555 1_555
C9_2 C12_2 1_555 1_555
In3_2 O1_2 1_555 1_555
O7_2 In3_2 1_555 1_555
C18_2 C16_2 1_555 1_555
C21_2 C18_2 1_555 1_555
H12_2 C21_2 1_555 1_555
C24_2 C21_2 1_555 1_555
H13_2 C24_2 1_555 1_555
C26_2 C18_2 1_555 1_555
H16_2 C26_2 1_555 1_555
O7_2 C16_2 1_555 1_555
H14_2 C25_2 1_555 1_555
N2_2 C23_2 1_555 1_555
H15_2 N2_2 1_555 1_555
In1_2 O1_3 1_555 1_555
O7_3 In1_2 1_555 1_555
C18_3 C16_3 1_555 1_555
C21_3 C18_3 1_555 1_555
H12_3 C21_3 1_555 1_555
C24_3 C21_3 1_555 1_555
H13_3 C24_3 1_555 1_555
C26_3 C18_3 1_555 1_555
H16_3 C26_3 1_555 1_555
O10_2 In1_2 1_555 1_555
O11_2 In1_2 1_555 1_555
O7_3 C16_3 1_555 1_555
O2_2 C1_3 1_555 1_555
O4_2 C1_3 1_555 1_555
C1_3 C2_3 1_555 1_555
C2_3 C6_3 1_555 1_555
C4_3 H1_3 1_555 1_555
C6_3 H2_3 1_555 1_555
C7_3 C2_3 1_555 1_555
H3_3 C7_3 1_555 1_555
C9_3 C4_3 1_555 1_555
C10_3 C9_3 1_555 1_555
C12_3 C6_3 1_555 1_555
H6_3 C12_3 1_555 1_555
N1_3 C10_3 1_555 1_555
H7_3 N1_3 1_555 1_555
In3_3 O2_2 1_555 1_555
O4_2 In3_3 1_555 1_555
C4_3 C7_3 1_555 1_555
C9_3 C12_3 1_555 1_555
O6_2 C14_3 1_555 1_555
O8_2 C14_3 1_555 1_555
C14_3 C15_3 1_555 1_555
C15_3 C19_3 1_555 1_555
C17_3 H9_3 1_555 1_555
C19_3 H10_3 1_555 1_555
C20_3 C15_3 1_555 1_555
H11_3 C20_3 1_555 1_555
C22_3 C17_3 1_555 1_555
In3_3 O6_2 1_555 1_555
O8_2 In3_3 1_555 1_555
C17_3 C20_3 1_555 1_555
In3_3 O1_4 1_555 1_555
O1_4 C3_3 1_555 1_555
O3_3 In3_3 1_555 1_555
O11_2 C1_4 1_555 1_555
C1_4 C2_4 1_555 1_555
C2_4 C6_4 1_555 1_555
C3_3 O3_3 1_555 1_555
C4_4 H1_4 1_555 1_555
C5_3 C3_3 1_555 1_555
C7_4 C2_4 1_555 1_555
H3_4 C7_4 1_555 1_555
C8_3 C5_3 1_555 1_555
H4_3 C8_3 1_555 1_555
C9_4 C4_4 1_555 1_555
C10_4 C9_4 1_555 1_555
C11_3 C8_3 1_555 1_555
H5_3 C11_3 1_555 1_555
C12_4 C6_4 1_555 1_555
H6_4 C12_4 1_555 1_555
N1_4 C10_4 1_555 1_555
H7_4 N1_4 1_555 1_555
C13_3 C5_3 1_555 1_555
H8_3 C13_3 1_555 1_555
O5_3 In3_3 1_555 1_555
O7_4 In3_3 1_555 1_555
C16_4 O5_3 1_555 1_555
C18_4 C16_4 1_555 1_555
C21_4 C18_4 1_555 1_555
H12_4 C21_4 1_555 1_555
C24_4 C21_4 1_555 1_555
H13_4 C24_4 1_555 1_555
H14_3 C25_3 1_555 1_555
N2_3 C23_3 1_555 1_555
H15_3 N2_3 1_555 1_555
C26_4 C18_4 1_555 1_555
H16_4 C26_4 1_555 1_555
C4_4 C7_4 1_555 1_555
C9_4 C12_4 1_555 1_555
C10_4 C11_3 1_555 1_555
N1_4 C13_3 1_555 1_555
O7_4 C16_4 1_555 1_555
C23_3 C24_4 1_555 1_555
N2_3 C26_4 1_555 1_555
O3_4 In1_3 1_555 1_555
C3_4 O3_4 1_555 1_555
C5_4 C3_4 1_555 1_555
C8_4 C5_4 1_555 1_555
H4_4 C8_4 1_555 1_555
C11_4 C8_4 1_555 1_555
H5_4 C11_4 1_555 1_555
C13_4 C5_4 1_555 1_555
H8_4 C13_4 1_555 1_555
O5_4 In1_3 1_555 1_555
O9_2 In1_3 1_555 1_555
O12_2 In1_3 1_555 1_555
O12_2 C14_4 1_555 1_555
C14_4 C15_4 1_555 1_555
C15_4 C19_4 1_555 1_555
C17_4 H9_4 1_555 1_555
C20_4 C15_4 1_555 1_555
H11_4 C20_4 1_555 1_555
C22_4 C17_4 1_555 1_555
C17_4 C20_4 1_555 1_555
H14_4 C25_4 1_555 1_555
N2_4 C23_4 1_555 1_555
H15_4 N2_4 1_555 1_555

#END
