
###############################################################################
#
# This file contains modified crystal structure data generated from the
# MOF subset of the Cambridge Structural Database (CSD) v543 
# hosted by the Cambridge Crystallographic Data Centre (CCDC).
#
# This work is licensed under the Creative Commons
# Attribution-NonCommercial-ShareAlike 4.0 International License.
# To view a copy of this license, visit
# http://creativecommons.org/licenses/by-nc-sa/4.0/
# or send a letter to
# Creative Commons, PO Box 1866, Mountain View, CA 94042, USA.
#
# CIF created using the CSD Python API on 29 September 2022
# The structure has been converted into the P1 space group
# The structure has a 3D framework
# The original CSD entry KADTIV is in the monoclinic crystal system
# The framework has been calculated to contain at least 10.0% void space
# The void calculation uses a probe of radius 1.32A, grid spacing 0.4
#
###############################################################################

data_KADTIV
_chemical_formula_moiety         '(C64 H40 F24 Li8 N32 O8)n'
_symmetry_cell_setting           triclinic
_symmetry_space_group_name_H-M   'P 1'
_symmetry_Int_Tables_number      1
_space_group_name_Hall           'P 1'
loop_
_symmetry_equiv_pos_site_id
_symmetry_equiv_pos_as_xyz
1 x,y,z
_cell_length_a                   10.2026(5)
_cell_length_b                   15.9759(4)
_cell_length_c                   19.3596(10)
_cell_angle_alpha                90
_cell_angle_beta                 131.122(8)
_cell_angle_gamma                90
_cell_volume                     2377.1
loop_
_atom_site_label
_atom_site_type_symbol
_atom_site_fract_x
_atom_site_fract_y
_atom_site_fract_z
C13 C 0.7055(3) 0.36520(16) 0.02415(14)
H1 H 0.6324 0.3461 0.0372
H2 H 0.6834 0.4247 0.0078
H3 H 0.8283 0.3572 0.0786
H5 H 0.8068 0.2180 0.0248
F1 F 0.92211(13) 0.50158(8) 0.85927(7)
F2 F 0.79427(13) 0.48124(8) 0.91194(7)
F3 F 0.89874(14) 0.37794(7) 0.89227(8)
O1 O 0.66530(15) 0.31807(8) 0.94972(8)
O2 O 0.49353(15) 0.21599(8) 0.80655(9)
N1 N 0.51116(16) 0.40134(9) 0.74311(9)
N2 N 0.62315(16) 0.46850(8) 0.68800(9)
N3 N 0.0808(2) 0.34363(16) 0.55811(13)
N4 N 0.30082(18) 0.47073(10) 0.44695(10)
N5 N 0.23951(16) 0.14151(8) 0.28233(9)
N7 N 0.16147(17) 0.35855(9) 0.27875(10)
C1 C 0.64666(19) 0.44038(10) 0.76044(11)
C2 C 0.3883(2) 0.40479(11) 0.65020(11)
C3 C 0.45581(19) 0.44524(10) 0.61649(11)
C4 C 0.2177(2) 0.37081(14) 0.59939(12)
C5 C 0.37126(19) 0.46009(10) 0.52288(12)
C6 C 0.8154(2) 0.45014(11) 0.85615(11)
C7 C 0.15495(19) 0.06946(10) 0.26298(11)
C9 C 0.11918(19) 0.19923(10) 0.26064(10)
C11 C 0.14793(19) 0.28735(10) 0.27149(11)
C14 C 0.6880(3) 0.23012(14) 0.96660(14)
H4 H 0.6031 0.2084 0.9712
C15 C 0.6600(3) 0.18981(13) 0.88854(15)
H6 H 0.7520 0.2072 0.8876
H7 H 0.6636 0.1281 0.8944
C16 C 0.4438(3) 0.17511(13) 0.72732(15)
H8 H 0.5240 0.1908 0.7180
H9 H 0.3253 0.1919 0.6737
H10 H 0.4477 0.1144 0.7355
Li1 Li 0.4769(3) 0.33685(18) 0.82075(19)
Li2 Li 0.1910(3) 0.48214(16) 0.31271(18)
N9 N 0.37685(16) 0.53150(8) 0.31200(9)
N10 N 0.23951(16) 0.35849(8) 0.78233(9)
N11 N 0.00752(16) 0.57415(8) 0.26881(9)
Li3 Li 0.4769(3) 0.16315(18) 0.32075(19)
Li5 Li 0.8090(3) 0.51786(16) 0.68729(18)
N6 N 0.99248(16) 0.07415(8) 0.23119(9)
N8 N 0.6859(2) 0.22963(10) 0.17132(13)
C8 C 0.96895(19) 0.15831(10) 0.22915(11)
C10 C 0.8109(2) 0.19627(10) 0.19767(12)
Li4 Li 0.8090(3) 0.98214(16) 0.18729(18)
N8_2 N 0.3141(2) 0.72963(10) 0.32868(13)
C8_2 C 0.03105(19) 0.65831(10) 0.27085(11)
C10_2 C 0.1891(2) 0.69627(10) 0.30233(12)
N9_2 N 0.62315(16) 0.03150(8) 0.18800(9)
F1_2 F 0.07789(13) 0.00158(8) 0.64073(7)
Li5_2 Li 0.1910(3) 0.01786(16) 0.81271(18)
F4 F 0.83007(15) 0.42551(6) 0.21230(10)
F5 F 0.59280(13) 0.48795(7) 0.15760(9)
F6 F 0.78776(16) 0.46675(7) 0.30115(9)
N4_2 N 0.69918(18) 0.97073(10) 0.05305(10)
N5_2 N 0.76049(16) 0.64151(8) 0.21767(9)
N7_2 N 0.83853(17) 0.85855(9) 0.22125(10)
C7_2 C 0.84505(19) 0.56946(10) 0.23702(11)
C9_2 C 0.88082(19) 0.69923(10) 0.23936(10)
C11_2 C 0.85207(19) 0.78735(10) 0.22851(11)
C12 C 0.7633(2) 0.48721(11) 0.22645(13)
Li3_2 Li 0.5231(3) 0.66315(18) 0.17925(19)
F2_2 F 0.20573(13) 0.98124(8) 0.58806(7)
F3_2 F 0.10126(14) 0.87794(7) 0.60773(8)
O1_2 O 0.33470(15) 0.81807(8) 0.55028(8)
O2_2 O 0.50647(15) 0.71599(8) 0.69345(9)
N1_2 N 0.48884(16) 0.90134(9) 0.75689(9)
N2_2 N 0.37685(16) 0.96850(8) 0.81200(9)
N3_2 N 0.9192(2) 0.84363(16) 0.94189(13)
C1_2 C 0.35334(19) 0.94038(10) 0.73956(11)
C2_2 C 0.6117(2) 0.90479(11) 0.84980(11)
C3_2 C 0.54419(19) 0.94524(10) 0.88351(11)
C4_2 C 0.7823(2) 0.87081(14) 0.90061(12)
C5_2 C 0.62874(19) 0.96009(10) 0.97712(12)
C6_2 C 0.1846(2) 0.95014(11) 0.64385(11)
C13_2 C 0.2945(3) 0.86520(16) 0.47585(14)
H1_2 H 0.3676 0.8461 0.4628
H2_2 H 0.3166 0.9247 0.4922
H3_2 H 0.1717 0.8572 0.4214
C14_2 C 0.3120(3) 0.73012(14) 0.53340(14)
H4_2 H 0.3969 0.7084 0.5288
H5_2 H 0.1932 0.7180 0.4752
C15_2 C 0.3400(3) 0.68981(13) 0.61146(15)
H6_2 H 0.2480 0.7072 0.6124
H7_2 H 0.3364 0.6281 0.6056
C16_2 C 0.5562(3) 0.67511(13) 0.77268(15)
H8_2 H 0.4760 0.6908 0.7820
H9_2 H 0.6747 0.6919 0.8263
H10_2 H 0.5523 0.6144 0.7645
Li1_2 Li 0.5231(3) 0.83685(18) 0.67925(19)
N10_2 N 0.76049(16) 0.85849(8) 0.71767(9)
N6_2 N 0.00752(16) 0.92585(8) 0.76881(9)
N8_3 N 0.3141(2) 0.77037(10) 0.82868(13)
C8_3 C 0.03105(19) 0.84169(10) 0.77085(11)
C10_3 C 0.1891(2) 0.80373(10) 0.80233(12)
F1_3 F 0.07789(13) 0.49842(8) 0.14073(7)
F2_3 F 0.20573(13) 0.51876(8) 0.08806(7)
F3_3 F 0.10126(14) 0.62206(7) 0.10773(8)
O1_3 O 0.33470(15) 0.68193(8) 0.05028(8)
O2_3 O 0.50647(15) 0.78401(8) 0.19345(9)
N1_3 N 0.48884(16) 0.59866(9) 0.25689(9)
N3_3 N 0.9192(2) 0.65637(16) 0.44189(13)
N4_3 N 0.69918(18) 0.52927(10) 0.55305(10)
N7_3 N 0.83853(17) 0.64145(9) 0.72125(10)
C1_3 C 0.35334(19) 0.55962(10) 0.23956(11)
C2_3 C 0.6117(2) 0.59521(11) 0.34980(11)
C3_3 C 0.54419(19) 0.55476(10) 0.38351(11)
C4_3 C 0.7823(2) 0.62919(14) 0.40061(12)
C5_3 C 0.62874(19) 0.53991(10) 0.47712(12)
C6_3 C 0.1846(2) 0.54986(11) 0.14385(11)
C7_3 C 0.84505(19) 0.93054(10) 0.73702(11)
C9_3 C 0.88082(19) 0.80077(10) 0.73936(10)
C11_3 C 0.85207(19) 0.71265(10) 0.72851(11)
C14_3 C 0.3120(3) 0.76988(14) 0.03340(14)
H4_3 H 0.3969 0.7916 0.0288
C15_3 C 0.3400(3) 0.81019(13) 0.11146(15)
H6_3 H 0.2480 0.7928 0.1124
H7_3 H 0.3364 0.8719 0.1056
C16_3 C 0.5562(3) 0.82489(13) 0.27268(15)
H8_3 H 0.4760 0.8092 0.2820
H9_3 H 0.6747 0.8081 0.3263
H10_3 H 0.5523 0.8856 0.2645
N11_2 N 0.99248(16) 0.42585(8) 0.73119(9)
F2_4 F 0.79427(13) 0.01876(8) 0.41194(7)
F3_4 F 0.89874(14) 0.12206(7) 0.39227(8)
O1_4 O 0.66530(15) 0.18193(8) 0.44972(8)
O2_4 O 0.49353(15) 0.28401(8) 0.30655(9)
N1_4 N 0.51116(16) 0.09866(9) 0.24311(9)
N3_4 N 0.0808(2) 0.15637(16) 0.05811(13)
C1_4 C 0.64666(19) 0.05962(10) 0.26044(11)
C2_4 C 0.3883(2) 0.09521(11) 0.15020(11)
C3_4 C 0.45581(19) 0.05476(10) 0.11649(11)
C4_4 C 0.2177(2) 0.12919(14) 0.09939(12)
C5_4 C 0.37126(19) 0.03991(10) 0.02288(12)
C6_4 C 0.8154(2) 0.04986(11) 0.35615(11)
C13_3 C 0.7055(3) 0.13480(16) 0.52415(14)
H1_3 H 0.6324 0.1539 0.5372
H2_3 H 0.6834 0.0753 0.5078
H3_3 H 0.8283 0.1428 0.5786
C14_4 C 0.6880(3) 0.26988(14) 0.46660(14)
H4_4 H 0.6031 0.2916 0.4712
H5_3 H 0.8068 0.2820 0.5248
C15_4 C 0.6600(3) 0.31019(13) 0.38854(15)
H6_4 H 0.7520 0.2928 0.3876
H7_4 H 0.6636 0.3719 0.3944
C16_4 C 0.4438(3) 0.32489(13) 0.22732(15)
H8_4 H 0.5240 0.3092 0.2180
H9_4 H 0.3253 0.3081 0.1737
H10_4 H 0.4477 0.3856 0.2355
F4_2 F 0.16993(15) 0.57449(6) 0.78770(10)
F5_2 F 0.40720(13) 0.51205(7) 0.84240(9)
F6_2 F 0.21224(16) 0.53325(7) 0.69885(9)
N4_4 N 0.30082(18) 0.02927(10) 0.94695(10)
N7_4 N 0.16147(17) 0.14145(9) 0.77875(10)
C7_4 C 0.15495(19) 0.43054(10) 0.76298(11)
C9_4 C 0.11918(19) 0.30077(10) 0.76064(10)
C11_4 C 0.14793(19) 0.21265(10) 0.77149(11)
C12_2 C 0.2367(2) 0.51279(11) 0.77355(13)
F1_4 F 0.92211(13) 0.99842(8) 0.35927(7)
N8_4 N 0.6859(2) 0.27037(10) 0.67132(13)
C8_4 C 0.96895(19) 0.34169(10) 0.72915(11)
C10_4 C 0.8109(2) 0.30373(10) 0.69767(12)
F4_3 F 0.16993(15) 0.92551(6) 0.28770(10)
F5_3 F 0.40720(13) 0.98795(7) 0.34240(9)
F6_3 F 0.21224(16) 0.96675(7) 0.19885(9)
C12_3 C 0.2367(2) 0.98721(11) 0.27355(13)
F4_4 F 0.83007(15) 0.07449(6) 0.71230(10)
F5_4 F 0.59280(13) 0.01205(7) 0.65760(9)
F6_4 F 0.78776(16) 0.03325(7) 0.80115(9)
C12_4 C 0.7633(2) 0.01279(11) 0.72645(13)
C13_4 C 0.2945(3) 0.63480(16) 0.97585(14)
H1_4 H 0.3676 0.6539 0.9628
H2_4 H 0.3166 0.5753 0.9922
H3_4 H 0.1717 0.6428 0.9214
H5_4 H 0.1932 0.7820 0.9752
loop_
_geom_bond_atom_site_label_1
_geom_bond_atom_site_label_2
_geom_bond_site_symmetry_1
_geom_bond_site_symmetry_2
C13 H1 1_555 1_555
H2 C13 1_555 1_555
H3 C13 1_555 1_555
F1 C6 1_555 1_555
F2 C6 1_555 1_555
F3 C6 1_555 1_555
O2 C15 1_555 1_555
N1 C1 1_555 1_555
N2 C1 1_555 1_555
N3 C4 1_555 1_555
N4 C5 1_555 1_555
N5 C7 1_555 1_555
N7 C11 1_555 1_555
C1 C6 1_555 1_555
C2 N1 1_555 1_555
C3 N2 1_555 1_555
C4 C2 1_555 1_555
C5 C3 1_555 1_555
C9 N5 1_555 1_555
C11 C9 1_555 1_555
C14 O1 1_555 1_555
H4 C14 1_555 1_555
C15 C14 1_555 1_555
H6 C15 1_555 1_555
H7 C15 1_555 1_555
C16 O2 1_555 1_555
H8 C16 1_555 1_555
H9 C16 1_555 1_555
H10 C16 1_555 1_555
Li1 O1 1_555 1_555
Li2 N4 1_555 1_555
N9 Li2 1_555 1_555
N10 Li1 1_555 1_555
N11 Li2 1_555 1_555
Li3 N5 1_555 1_555
Li5 N2 1_555 1_555
O2 Li1 1_555 1_555
N1 Li1 1_555 1_555
N7 Li2 1_555 1_555
C2 C3 1_555 1_555
N8 C10 1_555 1_555
C8 N6 1_555 1_555
C10 C8 1_555 1_555
N8_2 C10_2 1_555 1_555
C8_2 N11 1_555 1_555
C10_2 C8_2 1_555 1_555
F4 C12 1_555 1_555
F5 C12 1_555 1_555
F6 C12 1_555 1_555
N5_2 C7_2 1_555 1_555
N7_2 C11_2 1_555 1_555
C7_2 C12 1_555 1_555
C9_2 N5_2 1_555 1_555
C11_2 C9_2 1_555 1_555
Li4 N4_2 1_555 1_555
Li3_2 N5_2 1_555 1_555
N7_2 Li4 1_555 1_555
F2_2 C6_2 1_555 1_555
F3_2 C6_2 1_555 1_555
O1_2 C13_2 1_555 1_555
O2_2 C15_2 1_555 1_555
N1_2 C1_2 1_555 1_555
N2_2 C1_2 1_555 1_555
N3_2 C4_2 1_555 1_555
C1_2 C6_2 1_555 1_555
C2_2 N1_2 1_555 1_555
C3_2 N2_2 1_555 1_555
C4_2 C2_2 1_555 1_555
C5_2 C3_2 1_555 1_555
C13_2 H1_2 1_555 1_555
H2_2 C13_2 1_555 1_555
H3_2 C13_2 1_555 1_555
C14_2 O1_2 1_555 1_555
H4_2 C14_2 1_555 1_555
H5_2 C14_2 1_555 1_555
C15_2 C14_2 1_555 1_555
H6_2 C15_2 1_555 1_555
H7_2 C15_2 1_555 1_555
C16_2 O2_2 1_555 1_555
H8_2 C16_2 1_555 1_555
H9_2 C16_2 1_555 1_555
H10_2 C16_2 1_555 1_555
Li1_2 O1_2 1_555 1_555
N10_2 Li1_2 1_555 1_555
O2_2 Li1_2 1_555 1_555
N1_2 Li1_2 1_555 1_555
C2_2 C3_2 1_555 1_555
N8_3 C10_3 1_555 1_555
C8_3 N6_2 1_555 1_555
C10_3 C8_3 1_555 1_555
F1_3 C6_3 1_555 1_555
F2_3 C6_3 1_555 1_555
F3_3 C6_3 1_555 1_555
O2_3 C15_3 1_555 1_555
N1_3 C1_3 1_555 1_555
N9 C1_3 1_555 1_555
N3_3 C4_3 1_555 1_555
N4_3 C5_3 1_555 1_555
N10_2 C7_3 1_555 1_555
N7_3 C11_3 1_555 1_555
C1_3 C6_3 1_555 1_555
C2_3 N1_3 1_555 1_555
C3_3 N9 1_555 1_555
C4_3 C2_3 1_555 1_555
C5_3 C3_3 1_555 1_555
C9_3 N10_2 1_555 1_555
C11_3 C9_3 1_555 1_555
C14_3 O1_3 1_555 1_555
H4_3 C14_3 1_555 1_555
C15_3 C14_3 1_555 1_555
H6_3 C15_3 1_555 1_555
H7_3 C15_3 1_555 1_555
C16_3 O2_3 1_555 1_555
H8_3 C16_3 1_555 1_555
H9_3 C16_3 1_555 1_555
H10_3 C16_3 1_555 1_555
Li3_2 O1_3 1_555 1_555
Li5 N4_3 1_555 1_555
N11_2 Li5 1_555 1_555
O2_3 Li3_2 1_555 1_555
N1_3 Li3_2 1_555 1_555
N7_3 Li5 1_555 1_555
C2_3 C3_3 1_555 1_555
F2_4 C6_4 1_555 1_555
F3_4 C6_4 1_555 1_555
O1_4 C13_3 1_555 1_555
O2_4 C15_4 1_555 1_555
N1_4 C1_4 1_555 1_555
N9_2 C1_4 1_555 1_555
N3_4 C4_4 1_555 1_555
C1_4 C6_4 1_555 1_555
C2_4 N1_4 1_555 1_555
C3_4 N9_2 1_555 1_555
C4_4 C2_4 1_555 1_555
C5_4 C3_4 1_555 1_555
C13_3 H1_3 1_555 1_555
H2_3 C13_3 1_555 1_555
H3_3 C13_3 1_555 1_555
C14_4 O1_4 1_555 1_555
H4_4 C14_4 1_555 1_555
H5_3 C14_4 1_555 1_555
C15_4 C14_4 1_555 1_555
H6_4 C15_4 1_555 1_555
H7_4 C15_4 1_555 1_555
C16_4 O2_4 1_555 1_555
H8_4 C16_4 1_555 1_555
H9_4 C16_4 1_555 1_555
H10_4 C16_4 1_555 1_555
Li3 O1_4 1_555 1_555
O2_4 Li3 1_555 1_555
N1_4 Li3 1_555 1_555
C2_4 C3_4 1_555 1_555
F4_2 C12_2 1_555 1_555
F5_2 C12_2 1_555 1_555
F6_2 C12_2 1_555 1_555
N10 C7_4 1_555 1_555
N7_4 C11_4 1_555 1_555
C7_4 C12_2 1_555 1_555
C9_4 N10 1_555 1_555
C11_4 C9_4 1_555 1_555
Li5_2 N4_4 1_555 1_555
N7_4 Li5_2 1_555 1_555
N8_4 C10_4 1_555 1_555
C8_4 N11_2 1_555 1_555
C10_4 C8_4 1_555 1_555
F4_3 C12_3 1_555 1_555
F5_3 C12_3 1_555 1_555
F6_3 C12_3 1_555 1_555
F4_4 C12_4 1_555 1_555
F5_4 C12_4 1_555 1_555
F6_4 C12_4 1_555 1_555
C13_4 H1_4 1_555 1_555
H2_4 C13_4 1_555 1_555
H3_4 C13_4 1_555 1_555

#END
