
###############################################################################
#
# This file contains modified crystal structure data generated from the
# MOF subset of the Cambridge Structural Database (CSD) v543 
# hosted by the Cambridge Crystallographic Data Centre (CCDC).
#
# This work is licensed under the Creative Commons
# Attribution-NonCommercial-ShareAlike 4.0 International License.
# To view a copy of this license, visit
# http://creativecommons.org/licenses/by-nc-sa/4.0/
# or send a letter to
# Creative Commons, PO Box 1866, Mountain View, CA 94042, USA.
#
# CIF created using the CSD Python API on 29 September 2022
# The structure has been converted into the P1 space group
# The structure has a 3D framework
# The original CSD entry KAFYAT is in the monoclinic crystal system
# The framework has been calculated to contain at least 10.0% void space
# The void calculation uses a probe of radius 1.32A, grid spacing 0.4
#
###############################################################################

data_KAFYAT
_chemical_formula_moiety         '(C68 H59 O47 Zn12)n'
_symmetry_cell_setting           triclinic
_symmetry_space_group_name_H-M   'P 1'
_symmetry_Int_Tables_number      1
_space_group_name_Hall           'P 1'
loop_
_symmetry_equiv_pos_site_id
_symmetry_equiv_pos_as_xyz
1 x,y,z
_cell_length_a                   9.8397(14)
_cell_length_b                   8.629(3)
_cell_length_c                   24.950(3)
_cell_angle_alpha                90
_cell_angle_beta                 90.512(3)
_cell_angle_gamma                90
_cell_volume                     2118.34
loop_
_atom_site_label
_atom_site_type_symbol
_atom_site_fract_x
_atom_site_fract_y
_atom_site_fract_z
H8 H 0.0040 0.0678 0.7259
Zn10 Zn 0.26706(5) 0.18513(7) 0.57862(2)
H10 H 0.1446 0.8346 0.0035
H11 H 0.2803 0.8037 0.0143
Zn3 Zn 0.0000 0.5000 0.0000
O15 O 0.0604(3) 0.2925(4) 0.04199(12)
O24 O 0.1022(3) 0.6310(4) 0.06066(12)
C17 C 0.0908(5) 0.9169(6) 0.63804(19)
O1 O 0.0667(3) 0.7622(4) 0.88655(12)
O7 O 0.1043(3) 0.8144(4) 0.60184(14)
O8 O 0.1902(3) 0.9890(4) 0.65516(14)
O9 O 0.1802(3) 0.4888(4) 0.95748(12)
H9 H 0.2422 0.4697 0.9803
O10 O 0.2246(3) 0.8355(4) 0.99068(14)
Zn2 Zn 0.23294(5) 0.68513(7) 0.92138(2)
Zn3_2 Zn 0.0000 0.5000 1.0000
C32 C 0.0470(5) 0.3245(6) 0.61255(18)
O16 O 0.0655(3) 0.2092(4) 0.58047(13)
O17 O 0.4345(3) 0.7092(4) 0.91953(13)
O19 O 0.1451(3) 0.3834(5) 0.63418(14)
O20 O 0.3549(3) 0.8834(5) 0.86582(14)
O22 O 0.0216(3) 0.3770(4) 0.86520(12)
O27 O 0.3957(3) 0.3144(4) 0.89816(14)
O30 O 0.3098(3) 0.4890(4) 0.84484(14)
O36 O 0.1737(3) 0.1318(4) 0.85369(14)
H29 H 0.2361 0.1347 0.8302
H30 H 0.1815 0.0494 0.8721
O37 O 0.1552(3) 0.1374(4) 0.95806(15)
H31 H 0.2192 0.1431 0.9808
H32 H 0.0798 0.1551 0.9735
Zn4 Zn 0.18731(5) 0.29942(7) 0.89875(2)
Zn5 Zn 0.31269(5) 0.79942(7) 0.60125(2)
H2 H 0.5417 0.0276 0.8177
C5 C 0.7508(5) 0.0263(5) 0.82014(16)
C7 C 0.7751(4) 0.1431(5) 0.77592(17)
H4 H 0.8541 0.2055 0.7849
H5 H 0.6973 0.2118 0.7730
C8 C 0.7977(5) 0.0625(5) 0.72215(17)
C9 C 0.6917(5) 0.0194(5) 0.69009(18)
H6 H 0.6039 0.0420 0.7011
C13 C 0.9303(4) 0.0342(5) 0.70544(16)
Zn13 Zn 0.5000 0.0000 0.5000
Zn3_3 Zn 1.0000 0.5000 0.0000
O32 O 0.8198(3) 0.5112(4) 0.04252(12)
H24 H 0.7578 0.5303 0.0197
Zn7 Zn 0.81269(5) 0.70058(7) 0.10125(2)
Zn12 Zn 0.76706(5) 0.31487(7) 0.07862(2)
C1 C 0.8396(4) 0.8445(5) 0.88544(16)
C2 C 0.7044(4) 0.8038(5) 0.90120(18)
H1 H 0.6896 0.7345 0.9291
C3 C 0.5956(4) 0.8712(5) 0.87334(17)
C4 C 0.6160(5) 0.9816(5) 0.83463(18)
C6 C 0.8585(5) 0.9533(5) 0.84547(18)
H3 H 0.9466 0.9781 0.8353
C10 C 0.7089(4) 0.9437(5) 0.64200(16)
C11 C 0.8395(5) 0.9094(5) 0.62533(16)
H7 H 0.8530 0.8571 0.5932
C12 C 0.9508(4) 0.9539(5) 0.65695(17)
C14 C 0.9593(4) 0.7624(5) 0.91082(16)
C15 C 0.4530(5) 0.8245(6) 0.88745(18)
C16 C 0.5878(4) 0.8943(5) 0.60853(16)
O2 O 0.9396(3) 0.7075(4) 0.95801(12)
O5 O 0.4784(3) 0.8770(4) 0.63480(12)
O6 O 0.6022(3) 0.8690(4) 0.56066(12)
O11 O 0.3263(3) 0.6318(4) 0.64631(14)
H12 H 0.2639 0.6347 0.6698
H13 H 0.3185 0.5494 0.6279
O12 O 0.3448(3) 0.6374(4) 0.54194(15)
H14 H 0.2808 0.6431 0.5192
H15 H 0.4202 0.6551 0.5265
Zn3_4 Zn 1.0000 0.5000 1.0000
C18 C 0.6604(4) 0.3445(5) 0.61456(16)
C19 C 0.7956(4) 0.3038(5) 0.59880(18)
H16 H 0.8104 0.2345 0.5709
C20 C 0.9044(4) 0.3712(5) 0.62666(17)
C21 C 0.8840(5) 0.4816(5) 0.66537(18)
H17 H 0.9583 0.5276 0.6823
C22 C 0.7492(5) 0.5263(5) 0.67986(16)
C23 C 0.6415(5) 0.4533(5) 0.65453(18)
H18 H 0.5534 0.4781 0.6647
C24 C 0.7249(4) 0.6431(5) 0.72408(17)
H19 H 0.6459 0.7055 0.7151
H20 H 0.8027 0.7118 0.7270
C25 C 0.7023(5) 0.5625(5) 0.77785(17)
C26 C 0.8083(5) 0.5194(5) 0.80991(18)
H21 H 0.8961 0.5420 0.7989
C27 C 0.7911(4) 0.4437(5) 0.85800(16)
C28 C 0.6605(5) 0.4094(5) 0.87467(16)
H22 H 0.6470 0.3571 0.9068
C29 C 0.5492(4) 0.4539(5) 0.84305(17)
C30 C 0.5697(4) 0.5342(5) 0.79456(16)
H23 H 0.4960 0.5678 0.7741
C31 C 0.5407(4) 0.2624(5) 0.58918(16)
C33 C 0.9122(4) 0.3943(5) 0.89147(16)
C34 C 0.4092(5) 0.4169(6) 0.86196(19)
O13 O 0.4333(3) 0.2622(4) 0.61345(12)
O14 O 0.5604(3) 0.2075(4) 0.54199(12)
O23 O 0.8978(3) 0.3690(4) 0.93934(12)
O33 O 0.3198(3) 0.9888(4) 0.54252(12)
H25 H 0.2578 0.9697 0.5197
O35 O 0.2754(3) 0.3355(4) 0.50932(14)
H27 H 0.3554 0.3346 0.4965
H28 H 0.2197 0.3037 0.4857
Zn13_2 Zn 0.5000 1.0000 0.5000
O24_2 O 0.3978(3) 0.1310(4) 0.43934(12)
O32_2 O 0.6802(3) 0.0112(4) 0.45748(12)
H24_2 H 0.7422 0.0303 0.4803
Zn7_2 Zn 0.68731(5) 0.20058(7) 0.39875(2)
O15_2 O 0.4396(3) 0.7925(4) 0.45801(12)
Zn12_2 Zn 0.73294(5) 0.81487(7) 0.42138(2)
O31 O 0.8098(3) 0.0110(4) 0.34484(14)
C1_2 C 0.1604(4) 0.1555(5) 0.11456(16)
C2_2 C 0.2956(4) 0.1962(5) 0.09880(18)
H1_2 H 0.3104 0.2655 0.0709
C3_2 C 0.4044(4) 0.1288(5) 0.12666(17)
C4_2 C 0.3840(5) 0.0184(5) 0.16537(18)
C6_2 C 0.1415(5) 0.0467(5) 0.15453(18)
H3_2 H 0.0534 0.0219 0.1647
C10_2 C 0.2911(4) 0.0563(5) 0.35800(16)
C11_2 C 0.1605(5) 0.0906(5) 0.37467(16)
H7_2 H 0.1470 0.1429 0.4068
C12_2 C 0.0492(4) 0.0461(5) 0.34305(17)
C14_2 C 0.0407(4) 0.2376(5) 0.08918(16)
C15_2 C 0.5470(5) 0.1755(6) 0.11255(18)
C16_2 C 0.4122(4) 0.1057(5) 0.39147(16)
O3 O 0.5655(3) 0.2908(4) 0.08047(13)
O4 O 0.6451(3) 0.1166(5) 0.13418(14)
O5_2 O 0.5216(3) 0.1230(4) 0.36520(12)
O11_2 O 0.6737(3) 0.3682(4) 0.35369(14)
H12_2 H 0.7361 0.3653 0.3302
H13_2 H 0.6815 0.4506 0.3721
O12_2 O 0.6552(3) 0.3626(4) 0.45806(15)
H14_2 H 0.7192 0.3569 0.4808
H15_2 H 0.5798 0.3449 0.4735
C18_2 C 0.3396(4) 0.6555(5) 0.38544(16)
C19_2 C 0.2044(4) 0.6962(5) 0.40120(18)
H16_2 H 0.1896 0.7655 0.4291
C20_2 C 0.0956(4) 0.6288(5) 0.37334(17)
C21_2 C 0.1160(5) 0.5184(5) 0.33463(18)
H17_2 H 0.0417 0.4724 0.3177
C22_2 C 0.2508(5) 0.4737(5) 0.32014(16)
C23_2 C 0.3585(5) 0.5467(5) 0.34547(18)
H18_2 H 0.4466 0.5219 0.3353
C24_2 C 0.2751(4) 0.3569(5) 0.27592(17)
H19_2 H 0.3541 0.2945 0.2849
H20_2 H 0.1973 0.2882 0.2730
C25_2 C 0.2977(5) 0.4375(5) 0.22215(17)
C26_2 C 0.1917(5) 0.4806(5) 0.19009(18)
H21_2 H 0.1039 0.4580 0.2011
C27_2 C 0.2089(4) 0.5563(5) 0.14200(16)
C28_2 C 0.3395(5) 0.5906(5) 0.12533(16)
H22_2 H 0.3530 0.6429 0.0932
C29_2 C 0.4508(4) 0.5461(5) 0.15695(17)
C30_2 C 0.4303(4) 0.4658(5) 0.20544(16)
H23_2 H 0.5040 0.4322 0.2259
C31_2 C 0.4593(4) 0.7376(5) 0.41082(16)
C33_2 C 0.0878(4) 0.6057(5) 0.10853(16)
C34_2 C 0.5908(5) 0.5831(6) 0.13804(19)
O13_2 O 0.5667(3) 0.7378(4) 0.38655(12)
O18 O 0.9345(3) 0.7908(4) 0.41953(13)
O21 O 0.8549(3) 0.6166(5) 0.36582(14)
O25 O 0.6043(3) 0.6856(4) 0.10184(14)
O26 O 0.8957(3) 0.1856(4) 0.39816(14)
O28 O 0.6902(3) 0.5110(4) 0.15516(14)
O35_2 O 0.7246(3) 0.6645(4) 0.49068(14)
H27_2 H 0.6446 0.6654 0.5035
H28_2 H 0.7803 0.6963 0.5143
H2_2 H 0.4583 0.9724 0.1823
C5_2 C 0.2492(5) 0.9737(5) 0.17986(16)
C7_2 C 0.2249(4) 0.8569(5) 0.22408(17)
H4_2 H 0.1459 0.7945 0.2151
H5_2 H 0.3027 0.7882 0.2270
C8_2 C 0.2023(5) 0.9375(5) 0.27785(17)
C9_2 C 0.3083(5) 0.9806(5) 0.30991(18)
H6_2 H 0.3961 0.9580 0.2989
C13_2 C 0.0697(4) 0.9658(5) 0.29456(16)
C17_2 C 0.9092(5) 0.0831(6) 0.36196(19)
O1_2 O 0.9333(3) 0.2378(4) 0.11345(12)
O10_2 O 0.7754(3) 0.1645(4) 0.00932(14)
C32_2 C 0.9530(5) 0.6755(6) 0.38745(18)
O22_2 O 0.9784(3) 0.6230(4) 0.13480(12)
O36_2 O 0.8263(3) 0.8682(4) 0.14631(14)
H29_2 H 0.7639 0.8653 0.1698
H30_2 H 0.8185 0.9506 0.1279
O37_2 O 0.8448(3) 0.8626(4) 0.04194(15)
H31_2 H 0.7808 0.8569 0.0192
H32_2 H 0.9202 0.8449 0.0265
H10_2 H 0.8554 0.1654 0.9965
H11_2 H 0.7197 0.1963 0.9857
H8_2 H 0.9960 0.9322 0.2741
loop_
_geom_bond_atom_site_label_1
_geom_bond_atom_site_label_2
_geom_bond_site_symmetry_1
_geom_bond_site_symmetry_2
O15 Zn3 1_555 1_555
O24 Zn3 1_555 1_555
O7 C17 1_555 1_555
O8 C17 1_555 1_555
O9 H9 1_555 1_555
Zn2 O1 1_555 1_555
O16 C32 1_555 1_555
O17 Zn2 1_555 1_555
O19 C32 1_555 1_555
O20 Zn2 1_555 1_555
O27 Zn4 1_555 1_555
O30 Zn2 1_555 1_555
O36 H29 1_555 1_555
H30 O36 1_555 1_555
O37 H31 1_555 1_555
H32 O37 1_555 1_555
Zn4 O9 1_555 1_555
Zn5 O7 1_555 1_555
Zn10 O16 1_555 1_555
O8 Zn5 1_555 1_555
O9 Zn2 1_555 1_555
O9 Zn3_2 1_555 1_555
O10 Zn2 1_555 1_555
O19 Zn10 1_555 1_555
O22 Zn4 1_555 1_555
O30 Zn4 1_555 1_555
O36 Zn4 1_555 1_555
O37 Zn4 1_555 1_555
C7 C5 1_555 1_555
H4 C7 1_555 1_555
H5 C7 1_555 1_555
C8 C7 1_555 1_555
C9 C8 1_555 1_555
H6 C9 1_555 1_555
C13 C8 1_555 1_555
O32 Zn3_3 1_555 1_555
H24 O32 1_555 1_555
Zn7 O32 1_555 1_555
Zn12 O32 1_555 1_555
C1 C2 1_555 1_555
C2 H1 1_555 1_555
C3 C2 1_555 1_555
C4 C3 1_555 1_555
C6 C1 1_555 1_555
H3 C6 1_555 1_555
C11 C10 1_555 1_555
H7 C11 1_555 1_555
C12 C11 1_555 1_555
C14 C1 1_555 1_555
C15 C3 1_555 1_555
C16 C10 1_555 1_555
O2 C14 1_555 1_555
O17 C15 1_555 1_555
O20 C15 1_555 1_555
O5 C16 1_555 1_555
O6 C16 1_555 1_555
O11 H12 1_555 1_555
H13 O11 1_555 1_555
O12 H14 1_555 1_555
H15 O12 1_555 1_555
Zn5 O5 1_555 1_555
Zn3_4 O2 1_555 1_555
C18 C19 1_555 1_555
C19 H16 1_555 1_555
C20 C19 1_555 1_555
C21 C20 1_555 1_555
H17 C21 1_555 1_555
C22 C21 1_555 1_555
C23 C18 1_555 1_555
H18 C23 1_555 1_555
C24 C22 1_555 1_555
H19 C24 1_555 1_555
H20 C24 1_555 1_555
C25 C24 1_555 1_555
C26 C25 1_555 1_555
H21 C26 1_555 1_555
C27 C26 1_555 1_555
C28 C27 1_555 1_555
H22 C28 1_555 1_555
C29 C28 1_555 1_555
C30 C25 1_555 1_555
H23 C30 1_555 1_555
C31 C18 1_555 1_555
C33 C27 1_555 1_555
C34 C29 1_555 1_555
O13 C31 1_555 1_555
O14 C31 1_555 1_555
O23 Zn3_4 1_555 1_555
O27 C34 1_555 1_555
O30 C34 1_555 1_555
O33 Zn5 1_555 1_555
H25 O33 1_555 1_555
O35 H27 1_555 1_555
H28 O35 1_555 1_555
Zn10 O13 1_555 1_555
Zn13_2 O6 1_555 1_555
Zn13 O14 1_555 1_555
O11 Zn5 1_555 1_555
O12 Zn5 1_555 1_555
C22 C23 1_555 1_555
C29 C30 1_555 1_555
C33 O23 1_555 1_555
O33 Zn13_2 1_555 1_555
O35 Zn10 1_555 1_555
O24_2 Zn13 1_555 1_555
O32_2 Zn13 1_555 1_555
H24_2 O32_2 1_555 1_555
Zn7_2 O32_2 1_555 1_555
O15_2 Zn13_2 1_555 1_555
C1_2 C2_2 1_555 1_555
C2_2 H1_2 1_555 1_555
C3_2 C2_2 1_555 1_555
C4_2 C3_2 1_555 1_555
C6_2 C1_2 1_555 1_555
H3_2 C6_2 1_555 1_555
C11_2 C10_2 1_555 1_555
H7_2 C11_2 1_555 1_555
C12_2 C11_2 1_555 1_555
C14_2 C1_2 1_555 1_555
C15_2 C3_2 1_555 1_555
C16_2 C10_2 1_555 1_555
O15 C14_2 1_555 1_555
O3 C15_2 1_555 1_555
O4 C15_2 1_555 1_555
O5_2 C16_2 1_555 1_555
O24_2 C16_2 1_555 1_555
O11_2 H12_2 1_555 1_555
H13_2 O11_2 1_555 1_555
O12_2 H14_2 1_555 1_555
H15_2 O12_2 1_555 1_555
Zn7_2 O5_2 1_555 1_555
C18_2 C19_2 1_555 1_555
C19_2 H16_2 1_555 1_555
C20_2 C19_2 1_555 1_555
C21_2 C20_2 1_555 1_555
H17_2 C21_2 1_555 1_555
C22_2 C21_2 1_555 1_555
C23_2 C18_2 1_555 1_555
H18_2 C23_2 1_555 1_555
C24_2 C22_2 1_555 1_555
H19_2 C24_2 1_555 1_555
H20_2 C24_2 1_555 1_555
C25_2 C24_2 1_555 1_555
C26_2 C25_2 1_555 1_555
H21_2 C26_2 1_555 1_555
C27_2 C26_2 1_555 1_555
C28_2 C27_2 1_555 1_555
H22_2 C28_2 1_555 1_555
C29_2 C28_2 1_555 1_555
C30_2 C25_2 1_555 1_555
H23_2 C30_2 1_555 1_555
C31_2 C18_2 1_555 1_555
C33_2 C27_2 1_555 1_555
C34_2 C29_2 1_555 1_555
O13_2 C31_2 1_555 1_555
O15_2 C31_2 1_555 1_555
O18 Zn12_2 1_555 1_555
O21 Zn12_2 1_555 1_555
O25 C34_2 1_555 1_555
O26 Zn7_2 1_555 1_555
O28 C34_2 1_555 1_555
O31 Zn7_2 1_555 1_555
O35_2 H27_2 1_555 1_555
H28_2 O35_2 1_555 1_555
Zn7 O25 1_555 1_555
Zn12_2 O13_2 1_555 1_555
Zn12 O3 1_555 1_555
O4 Zn12 1_555 1_555
O11_2 Zn7_2 1_555 1_555
O12_2 Zn7_2 1_555 1_555
C22_2 C23_2 1_555 1_555
C29_2 C30_2 1_555 1_555
C33_2 O24 1_555 1_555
O28 Zn7 1_555 1_555
O28 Zn12 1_555 1_555
O35_2 Zn12_2 1_555 1_555
C7_2 C5_2 1_555 1_555
H4_2 C7_2 1_555 1_555
H5_2 C7_2 1_555 1_555
C8_2 C7_2 1_555 1_555
C9_2 C8_2 1_555 1_555
H6_2 C9_2 1_555 1_555
C13_2 C8_2 1_555 1_555
O26 C17_2 1_555 1_555
O31 C17_2 1_555 1_555
Zn12 O1_2 1_555 1_555
O18 C32_2 1_555 1_555
O21 C32_2 1_555 1_555
O36_2 H29_2 1_555 1_555
H30_2 O36_2 1_555 1_555
O37_2 H31_2 1_555 1_555
H32_2 O37_2 1_555 1_555
O10_2 Zn12 1_555 1_555
O22_2 Zn7 1_555 1_555
O36_2 Zn7 1_555 1_555
O37_2 Zn7 1_555 1_555

#END
