
###############################################################################
#
# This file contains modified crystal structure data generated from the
# MOF subset of the Cambridge Structural Database (CSD) v543 
# hosted by the Cambridge Crystallographic Data Centre (CCDC).
#
# This work is licensed under the Creative Commons
# Attribution-NonCommercial-ShareAlike 4.0 International License.
# To view a copy of this license, visit
# http://creativecommons.org/licenses/by-nc-sa/4.0/
# or send a letter to
# Creative Commons, PO Box 1866, Mountain View, CA 94042, USA.
#
# CIF created using the CSD Python API on 29 September 2022
# The structure has been converted into the P1 space group
# The structure has a 3D framework
# The original CSD entry KAHPUE is in the monoclinic crystal system
# The framework has been calculated to contain at least 10.0% void space
# The void calculation uses a probe of radius 1.32A, grid spacing 0.4
# H atom positions have been added when not included in the experimental data
#
###############################################################################

data_KAHPUE
_chemical_formula_moiety         '(C20 H20 Cd3 N8 Ni2)n'
_symmetry_cell_setting           triclinic
_symmetry_space_group_name_H-M   'P 1'
_symmetry_Int_Tables_number      1
_space_group_name_Hall           'P 1'
loop_
_symmetry_equiv_pos_site_id
_symmetry_equiv_pos_as_xyz
1 x,y,z
_cell_length_a                   11.470(2)
_cell_length_b                   7.782(1)
_cell_length_c                   6.945(1)
_cell_angle_alpha                90
_cell_angle_beta                 105.29(1)
_cell_angle_gamma                90
_cell_volume                     597.965
loop_
_atom_site_label
_atom_site_type_symbol
_atom_site_fract_x
_atom_site_fract_y
_atom_site_fract_z
Cd5 Cd -0.0000 0.0000 -0.0000
Cd5_2 Cd -0.0000 0.0000 1.0000
Cd5_3 Cd -0.0000 1.0000 -0.0000
Cd5_4 Cd -0.0000 1.0000 1.0000
Cd5_5 Cd 1.0000 0.0000 -0.0000
C9 C 0.5122(4) -0.0000 0.1107(7)
C10 C 0.6433(4) -0.0000 0.2259(6)
C11 C 0.6622(4) -0.0000 0.4501(7)
C12 C 0.7922(3) -0.0000 0.5681(6)
N10 N 0.8099(3) 0.0000 0.7852(5)
Cd5_6 Cd 1.0000 0.0000 1.0000
H10 H 0.47027 0.114259 0.153543
H11 H 0.686061 0.114259 0.184898
H14 H 0.619126 0.114259 0.490392
H15 H 0.83536 0.114259 0.528006
H18 H 0.767633 0.106495 0.817641
Ni1 Ni 0.0000 0.5000 0.5000
N2 N 0.1901(3) -0.0000 0.2148(5)
C2 C 0.2078(3) -0.0000 0.4319(6)
C3 C 0.3378(4) -0.0000 0.5499(7)
C4 C 0.3567(4) -0.0000 0.7741(6)
C5 C 0.4878(4) -0.0000 0.8893(7)
C6 C 0.0365(2) 0.6710(3) 0.6929(4)
C7 C 0.0365(2) 0.3290(3) 0.6929(4)
N7 N 0.0558(2) 0.7801(3) 0.8093(4)
N8 N 0.0558(2) 0.2199(3) 0.8093(4)
H2 H 0.16464 0.114259 0.471994
H3 H 0.232367 0.106495 0.182359
H6 H 0.313939 0.114259 0.815102
H7 H 0.380874 0.114259 0.509608
H19 H 0.52973 0.114259 0.846457
Cd5_7 Cd 1.0000 1.0000 -0.0000
C9_2 C 0.5122(4) 1.0000 0.1107(7)
C10_2 C 0.6433(4) 1.0000 0.2259(6)
C11_2 C 0.6622(4) 1.0000 0.4501(7)
C12_2 C 0.7922(3) 1.0000 0.5681(6)
N10_2 N 0.8099(3) 1.0000 0.7852(5)
Cd5_8 Cd 1.0000 1.0000 1.0000
H9 H 0.47027 0.885741 0.153543
H12 H 0.686061 0.885741 0.184898
H13 H 0.619126 0.885741 0.490392
H16 H 0.83536 0.885741 0.528006
H17 H 0.767633 0.893505 0.817641
N2_2 N 0.1901(3) 1.0000 0.2148(5)
C2_2 C 0.2078(3) 1.0000 0.4319(6)
C3_2 C 0.3378(4) 1.0000 0.5499(7)
C4_2 C 0.3567(4) 1.0000 0.7741(6)
C5_2 C 0.4878(4) 1.0000 0.8893(7)
H1 H 0.16464 0.885741 0.471994
H4 H 0.232367 0.893505 0.182359
H5 H 0.313939 0.885741 0.815102
H8 H 0.380874 0.885741 0.509608
H20 H 0.52973 0.885741 0.846457
Ni1_2 Ni 1.0000 0.5000 0.5000
N1 N 0.9442(2) 0.2199(3) 0.1907(4)
C1 C 0.9635(2) 0.3290(3) 0.3071(4)
C8 C 0.9635(2) 0.6710(3) 0.3071(4)
N9 N 0.9442(2) 0.7801(3) 0.1907(4)
loop_
_geom_bond_atom_site_label_1
_geom_bond_atom_site_label_2
_geom_bond_site_symmetry_1
_geom_bond_site_symmetry_2
C10 C9 1_555 1_555
C11 C10 1_555 1_555
C12 C11 1_555 1_555
N10 C12 1_555 1_555
Cd5_6 N10 1_555 1_555
C9 H10 1_555 1_555
C10 H11 1_555 1_555
C11 H14 1_555 1_555
C12 H15 1_555 1_555
N10 H18 1_555 1_555
N2 Cd5 1_555 1_555
C2 N2 1_555 1_555
C3 C2 1_555 1_555
C4 C3 1_555 1_555
C5 C4 1_555 1_555
C6 Ni1 1_555 1_555
C7 Ni1 1_555 1_555
N7 C6 1_555 1_555
N8 C7 1_555 1_555
Cd5_4 N7 1_555 1_555
Cd5_2 N8 1_555 1_555
C2 H2 1_555 1_555
N2 H3 1_555 1_555
C4 H6 1_555 1_555
C3 H7 1_555 1_555
C5 H19 1_555 1_555
C10_2 C9_2 1_555 1_555
C11_2 C10_2 1_555 1_555
C12_2 C11_2 1_555 1_555
N10_2 C12_2 1_555 1_555
Cd5_8 N10_2 1_555 1_555
C9_2 H9 1_555 1_555
C10_2 H12 1_555 1_555
C11_2 H13 1_555 1_555
C12_2 H16 1_555 1_555
N10_2 H17 1_555 1_555
N2_2 Cd5_3 1_555 1_555
C2_2 N2_2 1_555 1_555
C3_2 C2_2 1_555 1_555
C4_2 C3_2 1_555 1_555
C5_2 C4_2 1_555 1_555
C2_2 H1 1_555 1_555
N2_2 H4 1_555 1_555
C4_2 H5 1_555 1_555
C3_2 H8 1_555 1_555
C5_2 H20 1_555 1_555
Cd5_5 N1 1_555 1_555
Ni1_2 C1 1_555 1_555
N1 C1 1_555 1_555
C8 Ni1_2 1_555 1_555
N9 C8 1_555 1_555
Cd5_7 N9 1_555 1_555

#END
