
###############################################################################
#
# This file contains modified crystal structure data generated from the
# MOF subset of the Cambridge Structural Database (CSD) v543 
# hosted by the Cambridge Crystallographic Data Centre (CCDC).
#
# This work is licensed under the Creative Commons
# Attribution-NonCommercial-ShareAlike 4.0 International License.
# To view a copy of this license, visit
# http://creativecommons.org/licenses/by-nc-sa/4.0/
# or send a letter to
# Creative Commons, PO Box 1866, Mountain View, CA 94042, USA.
#
# CIF created using the CSD Python API on 29 September 2022
# The structure has been converted into the P1 space group
# The structure has a 3D framework
# The original CSD entry KAJHEM is in the orthorhombic crystal system
# The framework has been calculated to contain at least 10.0% void space
# The void calculation uses a probe of radius 1.32A, grid spacing 0.4
#
###############################################################################

data_KAJHEM
_chemical_formula_moiety         '(C104 H96 N20 O28 Zn8)n'
_symmetry_cell_setting           triclinic
_symmetry_space_group_name_H-M   'P 1'
_symmetry_Int_Tables_number      1
_space_group_name_Hall           'P 1'
loop_
_symmetry_equiv_pos_site_id
_symmetry_equiv_pos_as_xyz
1 x,y,z
_cell_length_a                   14.2664(3)
_cell_length_b                   25.4181(7)
_cell_length_c                   9.3358(2)
_cell_angle_alpha                90
_cell_angle_beta                 90
_cell_angle_gamma                90
_cell_volume                     3385.39
loop_
_atom_site_label
_atom_site_type_symbol
_atom_site_fract_x
_atom_site_fract_y
_atom_site_fract_z
H34 H 0.023163 0.297826 0.409301
C48 C 0.0534(3) 0.40395(18) 0.6768(7)
H38 H 0.085025 0.401984 0.583738
H39 H 0.056876 0.369657 0.724406
H40 H 0.084081 0.430577 0.736454
Zn5 Zn -0.000000 0.500000 0.43460(7)
O8 O 0.07921(17) 0.44961(10) 0.3303(3)
N6 N 0.2249(2) 0.33904(12) 0.1011(4)
C29 C 0.1781(2) 0.37565(13) 0.1759(5)
H25 H 0.144334 0.365167 0.258802
O14 O 0.1346(3) 0.51496(11) 0.1984(4)
C31 C 0.1772(2) 0.42835(14) 0.1364(4)
C34 C 0.1270(3) 0.46831(16) 0.2275(5)
C47 C 0.2256(3) 0.44347(16) 0.0154(4)
Zn9 Zn 0.23588(2) 0.26143(2) 0.17089(5)
N13 N 0.0775(2) 0.54591(12) 0.5645(4)
Zn3 Zn 0.73588(2) 0.23857(2) 0.67089(5)
O9 O 0.32328(19) 0.27187(11) 0.3321(3)
O10 O 0.60609(15) 0.25963(10) 0.6466(4)
O11 O 0.64182(18) 0.32965(12) 0.7769(4)
O12 O 0.32444(19) 0.42174(10) 0.8214(3)
N8 N 0.8227(2) 0.27465(12) 0.5332(4)
N10 N 0.8871(2) 0.32505(12) 0.3702(4)
O13 O 0.19501(18) 0.30344(11) 0.4373(4)
C28 C 0.8064(3) 0.31081(14) 0.4334(5)
C30 C 0.2724(3) 0.35387(15) 0.9836(4)
H26 H 0.305202 0.327952 0.930118
C32 C 0.2750(2) 0.40527(14) 0.9380(4)
C33 C 0.5868(2) 0.30376(16) 0.7042(4)
C35 C 0.8983(3) 0.36384(16) 0.2549(5)
H27 H 0.959717 0.381529 0.265704
H28 H 0.848822 0.390944 0.263991
C36 C 0.9187(2) 0.26605(15) 0.5323(5)
H29 H 0.951078 0.242277 0.593261
C37 C 0.3071(2) 0.35926(15) 0.6326(4)
H30 H 0.244422 0.371090 0.620298
C39 C 0.3626(3) 0.38120(14) 0.7355(4)
C41 C 0.4884(2) 0.32421(13) 0.6770(5)
C42 C 0.9584(3) 0.29631(15) 0.4327(5)
C43 C 0.3425(2) 0.31951(15) 0.5458(4)
C44 C 0.4527(2) 0.36449(14) 0.7614(4)
H35 H 0.489441 0.380056 0.834846
C46 C 0.2816(3) 0.29658(16) 0.4321(5)
H37 H 0.225446 0.479139 0.985025
H41 H 0.847436 0.407425 0.004971
C50 C 0.4340(2) 0.30210(15) 0.5698(4)
H43 H 0.459271 0.274793 0.512061
C51 C 0.8926(3) 0.33918(16) 0.1068(5)
H44 H 0.833105 0.319438 0.097778
H45 H 0.944959 0.314002 0.094492
C52 C 0.7140(3) 0.33344(19) 0.3987(6)
H46 H 0.664835 0.307794 0.421057
H47 H 0.711611 0.342156 0.296468
H48 H 0.704110 0.365408 0.455355
O16 O 0.82328(19) 0.22813(11) 0.8321(3)
N12 N 0.7249(2) 0.16096(12) 0.6011(4)
N4 N 0.1186(2) 0.60293(13) 0.7279(4)
C1 C 0.0466(2) 0.58140(14) 0.6550(5)
C12 C 0.1740(3) 0.54498(19) 0.5806(6)
H7 H 0.215906 0.523260 0.528141
C14 C 0.1135(3) 0.64338(16) 0.8427(4)
H8 H 0.059684 0.666991 0.823832
H9 H 0.171283 0.664917 0.840960
C19 C 0.1987(3) 0.57938(18) 0.6814(6)
H12 H 0.260485 0.586187 0.714568
C23 C 0.1024(3) 0.61887(17) 0.9896(5)
H18 H 0.041317 0.600470 0.995101
O10_2 O 0.10609(15) 0.24037(10) 0.1466(4)
O11_2 O 0.14182(18) 0.17035(12) 0.2769(4)
N8_2 N 0.3227(2) 0.22535(12) 0.0332(4)
C33_2 C 0.0868(2) 0.19624(16) 0.2042(4)
C36_2 C 0.4187(2) 0.23395(15) 0.0323(5)
H29_2 H 0.451078 0.257723 0.093261
Zn5_2 Zn 0.500000 -0.000000 0.93460(7)
O7 O 0.3654(3) 0.01496(11) 0.6984(4)
O8_2 O 0.57921(17) 0.05039(10) 0.8303(3)
O12_2 O 0.82444(19) 0.07826(10) 0.3214(3)
C29_2 C 0.6781(2) 0.12435(13) 0.6759(5)
H25_2 H 0.644334 0.134833 0.758802
C30_2 C 0.7724(3) 0.14613(15) 0.4836(4)
H26_2 H 0.805202 0.172048 0.430118
C31_2 C 0.6772(2) 0.07165(14) 0.6364(4)
C32_2 C 0.7750(2) 0.09473(14) 0.4380(4)
C34_2 C 0.6270(3) 0.03169(16) 0.7275(5)
C37_2 C 0.8071(2) 0.14074(15) 0.1326(4)
H30_2 H 0.744422 0.128910 0.120298
C39_2 C 0.8626(3) 0.11880(14) 0.2355(4)
C41_2 C 0.9884(2) 0.17579(13) 0.1770(5)
C43_2 C 0.8425(2) 0.18049(15) 0.0458(4)
C44_2 C 0.9527(2) 0.13551(14) 0.2614(4)
H35_2 H 0.989441 0.119944 0.334846
C47_2 C 0.7256(3) 0.05653(16) 0.5154(4)
H37_2 H 0.725446 0.020861 0.485025
C50_2 C 0.9340(2) 0.19790(15) 0.0698(4)
H43_2 H 0.959271 0.225207 0.012061
O13_2 O 0.69501(18) 0.19656(11) 0.9373(4)
C46_2 C 0.7816(3) 0.20342(16) 0.9321(5)
N7 N 0.9225(2) 0.45409(12) 0.5645(4)
N9 N 0.8814(2) 0.39707(13) 0.7279(4)
C27 C 0.9534(2) 0.41860(14) 0.6550(5)
C38 C 0.8260(3) 0.45502(19) 0.5806(6)
H31 H 0.784094 0.476740 0.528141
C40 C 0.8865(3) 0.35662(16) 0.8427(4)
H32 H 0.940316 0.333009 0.823832
H33 H 0.828717 0.335083 0.840960
C45 C 0.8013(3) 0.42062(18) 0.6814(6)
H36 H 0.739515 0.413813 0.714568
C49 C 0.8976(3) 0.38113(17) 0.9896(5)
H42 H 0.958683 0.399530 0.995101
Zn5_3 Zn 1.000000 0.500000 0.43460(7)
O1 O 0.92079(17) 0.55039(10) 0.3303(3)
N1 N 0.7751(2) 0.66096(12) 0.1011(4)
C3 C 0.8219(2) 0.62435(13) 0.1759(5)
H1 H 0.855666 0.634833 0.258802
O7_2 O 0.8654(3) 0.48504(11) 0.1984(4)
C5 C 0.8228(2) 0.57165(14) 0.1364(4)
C8 C 0.8730(3) 0.53169(16) 0.2275(5)
C21 C 0.7744(3) 0.55653(16) 0.0154(4)
Zn7 Zn 0.76412(2) 0.73857(2) 0.17089(5)
Zn2 Zn 0.26412(2) 0.76143(2) 0.67089(5)
O2 O 0.67672(19) 0.72813(11) 0.3321(3)
O3 O 0.39391(15) 0.74037(10) 0.6466(4)
O4 O 0.35818(18) 0.67035(12) 0.7769(4)
O5 O 0.67556(19) 0.57826(10) 0.8214(3)
N3 N 0.1773(2) 0.72535(12) 0.5332(4)
N5 N 0.1129(2) 0.67495(12) 0.3702(4)
O6 O 0.80499(18) 0.69656(11) 0.4373(4)
C2 C 0.1936(3) 0.68919(14) 0.4334(5)
C4 C 0.7276(3) 0.64613(15) 0.9836(4)
H2 H 0.694798 0.672048 0.930118
C6 C 0.7250(2) 0.59473(14) 0.9380(4)
C7 C 0.4132(2) 0.69624(16) 0.7042(4)
C9 C 0.1017(3) 0.63616(16) 0.2549(5)
H3 H 0.040283 0.618471 0.265704
H4 H 0.151178 0.609056 0.263991
C10 C 0.0813(2) 0.73395(15) 0.5323(5)
H5 H 0.048922 0.757723 0.593261
C11 C 0.6929(2) 0.64074(15) 0.6326(4)
H6 H 0.755578 0.628910 0.620298
C13 C 0.6374(3) 0.61880(14) 0.7355(4)
C15 C 0.5116(2) 0.67579(13) 0.6770(5)
C16 C 0.0416(3) 0.70369(15) 0.4327(5)
C17 C 0.6575(2) 0.68049(15) 0.5458(4)
C18 C 0.5473(2) 0.63551(14) 0.7614(4)
H11 H 0.510559 0.619944 0.834846
C20 C 0.7184(3) 0.70342(16) 0.4321(5)
H13 H 0.774554 0.520861 0.985025
H17 H 0.152564 0.592575 0.004971
C24 C 0.5660(2) 0.69790(15) 0.5698(4)
H19 H 0.540729 0.725207 0.512061
C25 C 0.1074(3) 0.66082(16) 0.1068(5)
H20 H 0.166895 0.680562 0.097778
H21 H 0.055041 0.685998 0.094492
C26 C 0.2860(3) 0.66656(19) 0.3987(6)
H22 H 0.335165 0.692206 0.421057
H23 H 0.288389 0.657844 0.296468
H24 H 0.295890 0.634592 0.455355
O15 O 0.17672(19) 0.77187(11) 0.8321(3)
N11 N 0.2751(2) 0.83904(12) 0.6011(4)
C22 C 0.9466(3) 0.59605(18) 0.6768(7)
H14 H 0.914975 0.598016 0.583738
H15 H 0.943124 0.630343 0.724406
H16 H 0.915919 0.569423 0.736454
Zn5_4 Zn 0.500000 1.000000 0.93460(7)
O1_2 O 0.42079(17) 0.94961(10) 0.8303(3)
O5_2 O 0.17556(19) 0.92174(10) 0.3214(3)
C3_2 C 0.3219(2) 0.87565(13) 0.6759(5)
H1_2 H 0.355666 0.865167 0.758802
C4_2 C 0.2276(3) 0.85387(15) 0.4836(4)
H2_2 H 0.194798 0.827952 0.430118
C5_2 C 0.3228(2) 0.92835(14) 0.6364(4)
C6_2 C 0.2250(2) 0.90527(14) 0.4380(4)
C8_2 C 0.3730(3) 0.96831(16) 0.7275(5)
C11_2 C 0.1929(2) 0.85926(15) 0.1326(4)
H6_2 H 0.255578 0.871090 0.120298
C13_2 C 0.1374(3) 0.88120(14) 0.2355(4)
C15_2 C 0.0116(2) 0.82421(13) 0.1770(5)
C17_2 C 0.1575(2) 0.81951(15) 0.0458(4)
C18_2 C 0.0473(2) 0.86449(14) 0.2614(4)
H11_2 H 0.010559 0.880056 0.334846
C21_2 C 0.2744(3) 0.94347(16) 0.5154(4)
H13_2 H 0.274554 0.979139 0.485025
C24_2 C 0.0660(2) 0.80210(15) 0.0698(4)
H19_2 H 0.040729 0.774793 0.012061
O14_2 O 0.6346(3) 0.98504(11) 0.6984(4)
O6_2 O 0.30499(18) 0.80344(11) 0.9373(4)
C20_2 C 0.2184(3) 0.79658(16) 0.9321(5)
O3_2 O 0.89391(15) 0.75963(10) 0.1466(4)
O4_2 O 0.85818(18) 0.82965(12) 0.2769(4)
N3_2 N 0.6773(2) 0.77465(12) 0.0332(4)
C7_2 C 0.9132(2) 0.80376(16) 0.2042(4)
C10_2 C 0.5813(2) 0.76605(15) 0.0323(5)
H5_2 H 0.548922 0.742277 0.093261
H10 H 0.976837 0.702174 0.409301
N7_2 N 0.4225(2) 0.04591(12) 0.0645(4)
N9_2 N 0.3814(2) 0.10293(13) 0.2279(4)
N10_2 N 0.3871(2) 0.17495(12) 0.8702(4)
C27_2 C 0.4534(2) 0.08140(14) 0.1550(5)
C28_2 C 0.3064(3) 0.18919(14) 0.9334(5)
C35_2 C 0.3983(3) 0.13616(16) 0.7549(5)
H27_2 H 0.459717 0.118471 0.765704
H28_2 H 0.348822 0.109056 0.763991
C38_2 C 0.3260(3) 0.04498(19) 0.0806(6)
H31_2 H 0.284094 0.023260 0.028141
C40_2 C 0.3865(3) 0.14338(16) 0.3427(4)
H32_2 H 0.440316 0.166991 0.323832
H33_2 H 0.328717 0.164917 0.340960
C42_2 C 0.4584(3) 0.20369(15) 0.9327(5)
H34_2 H 0.523163 0.202174 0.909301
C45_2 C 0.3013(3) 0.07938(18) 0.1814(6)
H36_2 H 0.239515 0.086187 0.214568
C48_2 C 0.5534(3) 0.09605(18) 0.1768(7)
H38_2 H 0.585025 0.098016 0.083738
H39_2 H 0.556876 0.130343 0.224406
H40_2 H 0.584081 0.069423 0.236454
C49_2 C 0.3976(3) 0.11887(17) 0.4896(5)
H41_2 H 0.347436 0.092575 0.504971
H42_2 H 0.458683 0.100470 0.495101
C51_2 C 0.3926(3) 0.16082(16) 0.6068(5)
H44_2 H 0.333105 0.180562 0.597778
H45_2 H 0.444959 0.185998 0.594492
C52_2 C 0.2140(3) 0.16656(19) 0.8987(6)
H46_2 H 0.164835 0.192206 0.921057
H47_2 H 0.211611 0.157844 0.796468
H48_2 H 0.204110 0.134592 0.955355
N13_2 N 0.5775(2) 0.95409(12) 0.0645(4)
N4_2 N 0.6186(2) 0.89707(13) 0.2279(4)
N5_2 N 0.6129(2) 0.82505(12) 0.8702(4)
C1_2 C 0.5466(2) 0.91860(14) 0.1550(5)
C2_2 C 0.6936(3) 0.81081(14) 0.9334(5)
C9_2 C 0.6017(3) 0.86384(16) 0.7549(5)
H3_2 H 0.540283 0.881529 0.765704
H4_2 H 0.651178 0.890944 0.763991
C12_2 C 0.6740(3) 0.95502(19) 0.0806(6)
H7_2 H 0.715906 0.976740 0.028141
C14_2 C 0.6135(3) 0.85662(16) 0.3427(4)
H8_2 H 0.559684 0.833009 0.323832
H9_2 H 0.671283 0.835083 0.340960
C16_2 C 0.5416(3) 0.79631(15) 0.9327(5)
H10_2 H 0.476837 0.797826 0.909301
C19_2 C 0.6987(3) 0.92062(18) 0.1814(6)
H12_2 H 0.760485 0.913813 0.214568
C22_2 C 0.4466(3) 0.90395(18) 0.1768(7)
H14_2 H 0.414975 0.901984 0.083738
H15_2 H 0.443124 0.869657 0.224406
H16_2 H 0.415919 0.930577 0.236454
C23_2 C 0.6024(3) 0.88113(17) 0.4896(5)
H17_2 H 0.652564 0.907425 0.504971
H18_2 H 0.541317 0.899530 0.495101
C25_2 C 0.6074(3) 0.83918(16) 0.6068(5)
H20_2 H 0.666895 0.819438 0.597778
H21_2 H 0.555041 0.814002 0.594492
C26_2 C 0.7860(3) 0.83344(19) 0.8987(6)
H22_2 H 0.835165 0.807794 0.921057
H23_2 H 0.788389 0.842156 0.796468
H24_2 H 0.795890 0.865408 0.955355
loop_
_geom_bond_atom_site_label_1
_geom_bond_atom_site_label_2
_geom_bond_site_symmetry_1
_geom_bond_site_symmetry_2
C48 H38 1_555 1_555
H39 C48 1_555 1_555
H40 C48 1_555 1_555
O8 Zn5 1_555 1_555
N6 C29 1_555 1_555
C29 H25 1_555 1_555
O14 C34 1_555 1_555
C31 C29 1_555 1_555
C34 O8 1_555 1_555
C47 C31 1_555 1_555
Zn9 N6 1_555 1_555
N13 Zn5 1_555 1_555
C31 C34 1_555 1_555
Zn3 O10 1_555 1_555
O9 C46 1_555 1_555
O10 C33 1_555 1_555
O11 C33 1_555 1_555
O12 C32 1_555 1_555
N8 Zn3 1_555 1_555
N10 C28 1_555 1_555
O13 C46 1_555 1_555
C28 N8 1_555 1_555
H26 C30 1_555 1_555
C32 C30 1_555 1_555
C33 C41 1_555 1_555
C35 N10 1_555 1_555
H27 C35 1_555 1_555
H28 C35 1_555 1_555
C36 N8 1_555 1_555
H29 C36 1_555 1_555
C37 H30 1_555 1_555
C39 O12 1_555 1_555
C41 C44 1_555 1_555
C42 N10 1_555 1_555
C43 C37 1_555 1_555
C44 C39 1_555 1_555
H35 C44 1_555 1_555
C46 C43 1_555 1_555
C50 C41 1_555 1_555
H43 C50 1_555 1_555
C51 C35 1_555 1_555
H44 C51 1_555 1_555
H45 C51 1_555 1_555
C52 C28 1_555 1_555
H46 C52 1_555 1_555
H47 C52 1_555 1_555
H48 C52 1_555 1_555
Zn9 O9 1_555 1_555
O16 Zn3 1_555 1_555
N12 Zn3 1_555 1_555
C36 C42 1_555 1_555
C37 C39 1_555 1_555
C43 C50 1_555 1_555
N13 C1 1_555 1_555
N4 C1 1_555 1_555
C12 N13 1_555 1_555
H7 C12 1_555 1_555
C14 N4 1_555 1_555
H8 C14 1_555 1_555
H9 C14 1_555 1_555
C19 N4 1_555 1_555
H12 C19 1_555 1_555
C23 C14 1_555 1_555
H18 C23 1_555 1_555
C12 C19 1_555 1_555
Zn9 O10_2 1_555 1_555
O10_2 C33_2 1_555 1_555
O11_2 C33_2 1_555 1_555
N8_2 Zn9 1_555 1_555
C36_2 N8_2 1_555 1_555
H29_2 C36_2 1_555 1_555
O8_2 Zn5_2 1_555 1_555
N12 C29_2 1_555 1_555
O12_2 C32_2 1_555 1_555
C29_2 H25_2 1_555 1_555
C30_2 N12 1_555 1_555
H26_2 C30_2 1_555 1_555
C31_2 C29_2 1_555 1_555
C32_2 C30_2 1_555 1_555
C34_2 O8_2 1_555 1_555
C37_2 H30_2 1_555 1_555
C39_2 O12_2 1_555 1_555
C41_2 C44_2 1_555 1_555
C43_2 C37_2 1_555 1_555
C44_2 C39_2 1_555 1_555
H35_2 C44_2 1_555 1_555
C47_2 C31_2 1_555 1_555
H37_2 C47_2 1_555 1_555
C50_2 C41_2 1_555 1_555
H43_2 C50_2 1_555 1_555
C31_2 C34_2 1_555 1_555
C32_2 C47_2 1_555 1_555
C37_2 C39_2 1_555 1_555
C43_2 C50_2 1_555 1_555
O16 C46_2 1_555 1_555
O13_2 C46_2 1_555 1_555
N7 C27 1_555 1_555
N9 C27 1_555 1_555
C38 N7 1_555 1_555
H31 C38 1_555 1_555
C40 N9 1_555 1_555
H32 C40 1_555 1_555
H33 C40 1_555 1_555
C45 N9 1_555 1_555
H36 C45 1_555 1_555
C49 C40 1_555 1_555
H42 C49 1_555 1_555
Zn5_3 N7 1_555 1_555
C38 C45 1_555 1_555
Zn5_3 O1 1_555 1_555
O1 C8 1_555 1_555
N1 C3 1_555 1_555
C3 H1 1_555 1_555
O7_2 C8 1_555 1_555
C5 C3 1_555 1_555
C8 C5 1_555 1_555
C21 C5 1_555 1_555
Zn7 N1 1_555 1_555
Zn2 O3 1_555 1_555
O2 C20 1_555 1_555
O3 C7 1_555 1_555
O4 C7 1_555 1_555
O5 C6 1_555 1_555
N3 Zn2 1_555 1_555
N5 C2 1_555 1_555
O6 C20 1_555 1_555
C2 N3 1_555 1_555
H2 C4 1_555 1_555
C6 C4 1_555 1_555
C7 C15 1_555 1_555
C9 N5 1_555 1_555
H3 C9 1_555 1_555
H4 C9 1_555 1_555
C10 N3 1_555 1_555
H5 C10 1_555 1_555
C11 H6 1_555 1_555
C13 O5 1_555 1_555
C15 C18 1_555 1_555
C16 N5 1_555 1_555
C17 C11 1_555 1_555
C18 C13 1_555 1_555
H11 C18 1_555 1_555
C20 C17 1_555 1_555
C24 C15 1_555 1_555
H19 C24 1_555 1_555
C25 C9 1_555 1_555
H20 C25 1_555 1_555
H21 C25 1_555 1_555
C26 C2 1_555 1_555
H22 C26 1_555 1_555
H23 C26 1_555 1_555
H24 C26 1_555 1_555
Zn7 O2 1_555 1_555
O15 Zn2 1_555 1_555
N11 Zn2 1_555 1_555
C10 C16 1_555 1_555
C11 C13 1_555 1_555
C17 C24 1_555 1_555
C22 H14 1_555 1_555
H15 C22 1_555 1_555
H16 C22 1_555 1_555
Zn5_4 O1_2 1_555 1_555
O1_2 C8_2 1_555 1_555
N11 C3_2 1_555 1_555
O5_2 C6_2 1_555 1_555
C3_2 H1_2 1_555 1_555
C4_2 N11 1_555 1_555
H2_2 C4_2 1_555 1_555
C5_2 C3_2 1_555 1_555
C6_2 C4_2 1_555 1_555
C8_2 C5_2 1_555 1_555
C11_2 H6_2 1_555 1_555
C13_2 O5_2 1_555 1_555
C15_2 C18_2 1_555 1_555
C17_2 C11_2 1_555 1_555
C18_2 C13_2 1_555 1_555
H11_2 C18_2 1_555 1_555
C21_2 C5_2 1_555 1_555
H13_2 C21_2 1_555 1_555
C24_2 C15_2 1_555 1_555
H19_2 C24_2 1_555 1_555
C6_2 C21_2 1_555 1_555
C11_2 C13_2 1_555 1_555
C17_2 C24_2 1_555 1_555
O15 C20_2 1_555 1_555
O6_2 C20_2 1_555 1_555
Zn7 O3_2 1_555 1_555
O3_2 C7_2 1_555 1_555
O4_2 C7_2 1_555 1_555
N3_2 Zn7 1_555 1_555
C10_2 N3_2 1_555 1_555
H5_2 C10_2 1_555 1_555
N7_2 C27_2 1_555 1_555
N9_2 C27_2 1_555 1_555
N10_2 C28_2 1_555 1_555
C27_2 C48_2 1_555 1_555
C35_2 N10_2 1_555 1_555
H27_2 C35_2 1_555 1_555
H28_2 C35_2 1_555 1_555
C38_2 N7_2 1_555 1_555
H31_2 C38_2 1_555 1_555
C40_2 N9_2 1_555 1_555
H32_2 C40_2 1_555 1_555
H33_2 C40_2 1_555 1_555
C42_2 N10_2 1_555 1_555
H34_2 C42_2 1_555 1_555
C45_2 N9_2 1_555 1_555
H36_2 C45_2 1_555 1_555
C48_2 H38_2 1_555 1_555
H39_2 C48_2 1_555 1_555
H40_2 C48_2 1_555 1_555
C49_2 C40_2 1_555 1_555
H41_2 C49_2 1_555 1_555
H42_2 C49_2 1_555 1_555
C51_2 C35_2 1_555 1_555
H44_2 C51_2 1_555 1_555
H45_2 C51_2 1_555 1_555
C52_2 C28_2 1_555 1_555
H46_2 C52_2 1_555 1_555
H47_2 C52_2 1_555 1_555
H48_2 C52_2 1_555 1_555
C38_2 C45_2 1_555 1_555
C49_2 C51_2 1_555 1_555
N13_2 C1_2 1_555 1_555
N4_2 C1_2 1_555 1_555
N5_2 C2_2 1_555 1_555
C1_2 C22_2 1_555 1_555
C9_2 N5_2 1_555 1_555
H3_2 C9_2 1_555 1_555
H4_2 C9_2 1_555 1_555
C12_2 N13_2 1_555 1_555
H7_2 C12_2 1_555 1_555
C14_2 N4_2 1_555 1_555
H8_2 C14_2 1_555 1_555
H9_2 C14_2 1_555 1_555
C16_2 N5_2 1_555 1_555
H10_2 C16_2 1_555 1_555
C19_2 N4_2 1_555 1_555
H12_2 C19_2 1_555 1_555
C22_2 H14_2 1_555 1_555
H15_2 C22_2 1_555 1_555
H16_2 C22_2 1_555 1_555
C23_2 C14_2 1_555 1_555
H17_2 C23_2 1_555 1_555
H18_2 C23_2 1_555 1_555
C25_2 C9_2 1_555 1_555
H20_2 C25_2 1_555 1_555
H21_2 C25_2 1_555 1_555
C26_2 C2_2 1_555 1_555
H22_2 C26_2 1_555 1_555
H23_2 C26_2 1_555 1_555
H24_2 C26_2 1_555 1_555
C12_2 C19_2 1_555 1_555
C23_2 C25_2 1_555 1_555

#END
