
###############################################################################
#
# This file contains modified crystal structure data generated from the
# MOF subset of the Cambridge Structural Database (CSD) v543 
# hosted by the Cambridge Crystallographic Data Centre (CCDC).
#
# This work is licensed under the Creative Commons
# Attribution-NonCommercial-ShareAlike 4.0 International License.
# To view a copy of this license, visit
# http://creativecommons.org/licenses/by-nc-sa/4.0/
# or send a letter to
# Creative Commons, PO Box 1866, Mountain View, CA 94042, USA.
#
# CIF created using the CSD Python API on 29 September 2022
# The structure has been converted into the P1 space group
# The structure has a 3D framework
# The original CSD entry KALHOY is in the triclinic crystal system
# The framework has been calculated to contain at least 10.0% void space
# The void calculation uses a probe of radius 1.32A, grid spacing 0.4
# H atom positions have been added when not included in the experimental data
#
###############################################################################

data_KALHOY
_chemical_formula_moiety         '(C16 H20 Al9 O12)n'
_symmetry_cell_setting           triclinic
_symmetry_space_group_name_H-M   'P 1'
_symmetry_Int_Tables_number      1
_space_group_name_Hall           'P 1'
loop_
_symmetry_equiv_pos_site_id
_symmetry_equiv_pos_as_xyz
1 x,y,z
_cell_length_a                   6.6182(5)
_cell_length_b                   9.4513(9)
_cell_length_c                   9.4752(7)
_cell_angle_alpha                107.691(5)
_cell_angle_beta                 107.694(8)
_cell_angle_gamma                93.225(7)
_cell_volume                     530.679
loop_
_atom_site_label
_atom_site_type_symbol
_atom_site_fract_x
_atom_site_fract_y
_atom_site_fract_z
Al4 Al 0.000 0.000 0.000
Al4_2 Al 0.000 0.000 1.000
Al4_3 Al 0.000 1.000 0.000
Al4_4 Al 0.000 1.000 1.000
Al4_5 Al 1.000 0.000 0.000
Al7 Al 0.500 0.000 0.000
Al4_6 Al 1.000 0.000 1.000
Al7_2 Al 0.500 0.000 1.000
Al4_7 Al 1.000 1.000 0.000
Al7_3 Al 0.500 1.000 0.000
O1 O 0.485(3) 0.8260(17) 0.8245(17)
O2 O 0.829(3) 0.8227(16) 0.8360(16)
O3 O 0.026(2) 0.0829(15) 0.8407(16)
O4 O 0.357(2) 0.0955(16) 0.8592(16)
C1 C 0.626(4) 0.773(3) 0.764(3)
C2 C 0.536(4) 0.652(2) 0.604(3)
C3 C 0.355(4) 0.537(3) 0.601(3)
C4 C 0.717(4) 0.578(3) 0.566(3)
C5 C 0.170(4) 0.112(3) 0.775(3)
C6 C 0.115(4) 0.157(3) 0.630(2)
C7 C 0.227(3) 0.053(2) 0.529(3)
O6 O 0.515(3) 0.1740(17) 0.1755(17)
O7 O 0.171(3) 0.1773(16) 0.1640(16)
C9 C 0.374(4) 0.227(3) 0.236(3)
C10 C 0.464(4) 0.348(2) 0.396(3)
C11 C 0.645(4) 0.463(3) 0.399(3)
C12 C 0.283(4) 0.422(3) 0.434(3)
Al4_8 Al 1.000 1.000 1.000
Al7_4 Al 0.500 1.000 1.000
O16 O 0.761(3) 0.0905(15) 0.0000(17)
H1 H 0.532919 0.295171 0.483114
H2 H 0.777742 0.407727 0.376834
H3 H 0.582928 0.516988 0.311761
H4 H 0.169605 0.275919 0.65613
H5 H 0.781342 0.520599 0.649642
H6 H 0.842208 0.664559 0.577039
H7 H 0.467081 0.704829 0.516886
H8 H 0.218658 0.479401 0.350358
H9 H 0.157792 0.335441 0.422961
H10 H 0.391011 0.0589929 0.603965
H11 H 0.230005 0.0958417 0.435039
H12 H 0.222258 0.592273 0.623166
H13 H 0.417072 0.483012 0.688239
O16_2 O 0.761(3) 0.0905(15) 1.0000(17)
C16 C 0.125(4) 0.889(2) 0.454(2)
O10 O 0.239(3) 0.9095(15) 0.0000(17)
O15 O 0.643(2) 0.9045(16) 0.1408(16)
H17 H 0.16558 0.840223 0.547437
H18 H 0.201001 0.837884 0.36811
O10_2 O 0.239(3) 0.9095(15) 1.0000(17)
C8 C 0.875(4) 0.111(2) 0.546(2)
H14 H 0.83442 0.159777 0.452563
H15 H 0.798999 0.162116 0.63189
O8 O 0.974(2) 0.9171(15) 0.1593(16)
C13 C 0.830(4) 0.888(3) 0.225(3)
C14 C 0.885(4) 0.843(3) 0.370(2)
C15 C 0.773(3) 0.947(2) 0.471(3)
H16 H 0.830395 0.724081 0.34387
H19 H 0.608989 0.941007 0.396035
H20 H 0.769995 0.904158 0.564961
loop_
_geom_bond_atom_site_label_1
_geom_bond_atom_site_label_2
_geom_bond_site_symmetry_1
_geom_bond_site_symmetry_2
Al7 O6 1_555 1_555
O1 C1 1_555 1_555
O2 C1 1_555 1_555
O3 C5 1_555 1_555
O4 C5 1_555 1_555
C1 C2 1_555 1_555
C2 C3 1_555 1_555
C3 C12 1_555 1_555
C4 C2 1_555 1_555
C5 C6 1_555 1_555
C6 C7 1_555 1_555
O6 C9 1_555 1_555
O7 Al4 1_555 1_555
C9 O7 1_555 1_555
C10 C9 1_555 1_555
C11 C4 1_555 1_555
C12 C10 1_555 1_555
Al4_2 O3 1_555 1_555
Al4_8 O2 1_555 1_555
Al7_2 O4 1_555 1_555
Al7_4 O1 1_555 1_555
O16 Al7 1_555 1_555
C10 C11 1_555 1_555
C10 H1 1_555 1_555
C11 H2 1_555 1_555
C11 H3 1_555 1_555
C6 H4 1_555 1_555
C4 H5 1_555 1_555
C4 H6 1_555 1_555
C2 H7 1_555 1_555
C12 H8 1_555 1_555
C12 H9 1_555 1_555
C7 H10 1_555 1_555
C7 H11 1_555 1_555
C3 H12 1_555 1_555
C3 H13 1_555 1_555
O16_2 Al7_2 1_555 1_555
O10 Al4_3 1_555 1_555
O15 Al7_3 1_555 1_555
Al7_3 O10 1_555 1_555
C16 H17 1_555 1_555
C16 H18 1_555 1_555
O10_2 Al4_4 1_555 1_555
Al7_4 O10_2 1_555 1_555
Al4_5 O16 1_555 1_555
C8 H14 1_555 1_555
C8 H15 1_555 1_555
Al4_6 O16_2 1_555 1_555
O8 Al4_7 1_555 1_555
O15 C13 1_555 1_555
C13 O8 1_555 1_555
C14 C13 1_555 1_555
C14 C15 1_555 1_555
C14 H16 1_555 1_555
C15 H19 1_555 1_555
C15 H20 1_555 1_555

#END
