
###############################################################################
#
# This file contains modified crystal structure data generated from the
# MOF subset of the Cambridge Structural Database (CSD) v543 
# hosted by the Cambridge Crystallographic Data Centre (CCDC).
#
# This work is licensed under the Creative Commons
# Attribution-NonCommercial-ShareAlike 4.0 International License.
# To view a copy of this license, visit
# http://creativecommons.org/licenses/by-nc-sa/4.0/
# or send a letter to
# Creative Commons, PO Box 1866, Mountain View, CA 94042, USA.
#
# CIF created using the CSD Python API on 29 September 2022
# The structure has been converted into the P1 space group
# The structure has a 3D framework
# The original CSD entry KALHUE is in the triclinic crystal system
# The framework has been calculated to contain at least 10.0% void space
# The void calculation uses a probe of radius 1.32A, grid spacing 0.4
# H atom positions have been added when not included in the experimental data
#
###############################################################################

data_KALHUE
_chemical_formula_moiety         '(C16 H20 Al8 O10)n'
_symmetry_cell_setting           triclinic
_symmetry_space_group_name_H-M   'P 1'
_symmetry_Int_Tables_number      1
_space_group_name_Hall           'P 1'
loop_
_symmetry_equiv_pos_site_id
_symmetry_equiv_pos_as_xyz
1 x,y,z
_cell_length_a                   6.6227(5)
_cell_length_b                   9.4145(7)
_cell_length_c                   9.4451(6)
_cell_angle_alpha                107.316(5)
_cell_angle_beta                 107.788(7)
_cell_angle_gamma                93.445(6)
_cell_volume                     527.89
loop_
_atom_site_label
_atom_site_type_symbol
_atom_site_fract_x
_atom_site_fract_y
_atom_site_fract_z
Al4 Al 0.000 -0.000 -0.000
Al4_2 Al -0.000 -0.000 1.000
Al4_3 Al 0.000 1.000 -0.000
Al4_4 Al 0.000 1.000 1.000
Al4_5 Al 1.000 -0.000 -0.000
Al7 Al 0.500 -0.000 -0.000
Al4_6 Al 1.000 -0.000 1.000
Al7_2 Al 0.500 -0.000 1.000
Al4_7 Al 1.000 1.000 -0.000
Al7_3 Al 0.500 1.000 -0.000
O1 O 0.485(2) 0.8348(16) 0.8217(16)
O2 O 0.825(2) 0.8238(14) 0.8382(14)
O3 O 0.026(2) 0.0827(14) 0.8339(15)
O4 O 0.362(2) 0.1013(14) 0.8632(15)
C1 C 0.621(4) 0.773(2) 0.760(2)
C2 C 0.539(4) 0.651(2) 0.602(2)
C3 C 0.355(4) 0.541(2) 0.601(3)
C4 C 0.723(4) 0.570(2) 0.569(3)
C5 C 0.172(4) 0.107(3) 0.772(2)
C6 C 0.117(4) 0.151(3) 0.626(2)
C7 C 0.233(3) 0.052(2) 0.530(3)
O6 O 0.515(2) 0.1652(16) 0.1783(16)
O7 O 0.175(2) 0.1762(14) 0.1618(14)
C9 C 0.379(4) 0.227(2) 0.240(2)
C10 C 0.461(4) 0.349(2) 0.398(2)
C11 C 0.645(4) 0.459(2) 0.399(3)
C12 C 0.277(4) 0.430(2) 0.431(3)
Al4_8 Al 1.000 1.000 1.000
Al7_4 Al 0.500 1.000 1.000
O16 O 0.763(2) 0.0915(13) 0.0027(15)
H3 H 0.524977 0.29816 0.488501
H4 H 0.396318 0.0583183 0.606675
H5 H 0.238039 0.0945654 0.435601
H8 H 0.176473 0.270015 0.65443
H10 H 0.227102 0.599907 0.626706
H11 H 0.414238 0.483145 0.685827
H12 H 0.775924 0.508251 0.650913
H13 H 0.856701 0.653108 0.58466
H14 H 0.772898 0.400093 0.373294
H15 H 0.585762 0.516855 0.314173
H16 H 0.224076 0.491749 0.349087
H17 H 0.143299 0.346892 0.41534
H18 H 0.475023 0.70184 0.511499
C16 C 0.124(3) 0.885(2) 0.456(2)
O15 O 0.638(2) 0.8987(14) 0.1368(15)
H1 H 0.16071 0.8363 0.550252
H2 H 0.196607 0.829822 0.369503
O10 O 0.237(2) 0.9085(13) 0.9973(15)
C8 C 0.876(3) 0.115(2) 0.544(2)
H19 H 0.83929 0.1637 0.449748
H20 H 0.803393 0.170178 0.630497
O8 O 0.974(2) 0.9173(14) 0.1661(15)
C13 C 0.828(4) 0.893(3) 0.228(2)
C14 C 0.883(4) 0.849(3) 0.374(2)
C15 C 0.767(3) 0.948(2) 0.470(3)
H6 H 0.603682 0.941682 0.393325
H7 H 0.761961 0.905435 0.564399
H9 H 0.823527 0.729985 0.34557
loop_
_geom_bond_atom_site_label_1
_geom_bond_atom_site_label_2
_geom_bond_site_symmetry_1
_geom_bond_site_symmetry_2
Al7 O6 1_555 1_555
O1 C1 1_555 1_555
O2 C1 1_555 1_555
O3 C5 1_555 1_555
O4 C5 1_555 1_555
C1 C2 1_555 1_555
C2 C3 1_555 1_555
C3 C12 1_555 1_555
C4 C2 1_555 1_555
C5 C6 1_555 1_555
C6 C7 1_555 1_555
O6 C9 1_555 1_555
O7 Al4 1_555 1_555
C9 O7 1_555 1_555
C10 C9 1_555 1_555
C11 C4 1_555 1_555
C12 C10 1_555 1_555
Al4_2 O3 1_555 1_555
Al4_8 O2 1_555 1_555
Al7_2 O4 1_555 1_555
Al7_4 O1 1_555 1_555
O16 Al7 1_555 1_555
C10 C11 1_555 1_555
C10 H3 1_555 1_555
C7 H4 1_555 1_555
C7 H5 1_555 1_555
C6 H8 1_555 1_555
C3 H10 1_555 1_555
C3 H11 1_555 1_555
C4 H12 1_555 1_555
C4 H13 1_555 1_555
C11 H14 1_555 1_555
C11 H15 1_555 1_555
C12 H16 1_555 1_555
C12 H17 1_555 1_555
C2 H18 1_555 1_555
O15 Al7_3 1_555 1_555
C16 H1 1_555 1_555
C16 H2 1_555 1_555
O10 Al4_4 1_555 1_555
Al7_4 O10 1_555 1_555
Al4_5 O16 1_555 1_555
C8 H19 1_555 1_555
C8 H20 1_555 1_555
O8 Al4_7 1_555 1_555
O15 C13 1_555 1_555
C13 O8 1_555 1_555
C14 C13 1_555 1_555
C14 C15 1_555 1_555
C15 H6 1_555 1_555
C15 H7 1_555 1_555
C14 H9 1_555 1_555

#END
