
###############################################################################
#
# This file contains modified crystal structure data generated from the
# MOF subset of the Cambridge Structural Database (CSD) v543 
# hosted by the Cambridge Crystallographic Data Centre (CCDC).
#
# This work is licensed under the Creative Commons
# Attribution-NonCommercial-ShareAlike 4.0 International License.
# To view a copy of this license, visit
# http://creativecommons.org/licenses/by-nc-sa/4.0/
# or send a letter to
# Creative Commons, PO Box 1866, Mountain View, CA 94042, USA.
#
# CIF created using the CSD Python API on 29 September 2022
# The structure has been converted into the P1 space group
# The structure has a 3D framework
# The original CSD entry KALHAK is in the triclinic crystal system
# The framework has been calculated to contain at least 10.0% void space
# The void calculation uses a probe of radius 1.32A, grid spacing 0.4
# H atom positions have been added when not included in the experimental data
#
###############################################################################

data_KALHAK
_chemical_formula_moiety         '(C16 H20 Al8 O10)n'
_symmetry_cell_setting           triclinic
_symmetry_space_group_name_H-M   'P 1'
_symmetry_Int_Tables_number      1
_space_group_name_Hall           'P 1'
loop_
_symmetry_equiv_pos_site_id
_symmetry_equiv_pos_as_xyz
1 x,y,z
_cell_length_a                   6.6197(6)
_cell_length_b                   9.5103(10)
_cell_length_c                   9.4896(8)
_cell_angle_alpha                107.980(6)
_cell_angle_beta                 107.636(10)
_cell_angle_gamma                93.161(9)
_cell_volume                     534.206
loop_
_atom_site_label
_atom_site_type_symbol
_atom_site_fract_x
_atom_site_fract_y
_atom_site_fract_z
Al4 Al -0.000 -0.000 -0.000
Al4_2 Al -0.000 -0.000 1.000
Al4_3 Al 0.000 1.000 -0.000
Al4_4 Al 0.000 1.000 1.000
Al4_5 Al 1.000 -0.000 -0.000
Al7 Al 0.500 -0.000 -0.000
Al4_6 Al 1.000 -0.000 1.000
Al7_2 Al 0.500 -0.000 1.000
Al4_7 Al 1.000 1.000 -0.000
Al7_3 Al 0.500 1.000 -0.000
O1 O 0.486(3) 0.8207(18) 0.829(2)
O2 O 0.833(3) 0.8288(18) 0.8385(19)
O3 O 0.028(3) 0.0759(19) 0.8423(18)
O4 O 0.353(3) 0.0904(18) 0.8574(19)
C1 C 0.624(5) 0.778(3) 0.762(3)
C2 C 0.537(5) 0.652(3) 0.598(3)
C3 C 0.358(5) 0.541(3) 0.596(3)
C4 C 0.728(5) 0.569(3) 0.578(4)
C5 C 0.168(5) 0.110(3) 0.780(3)
C6 C 0.115(5) 0.153(3) 0.633(3)
C7 C 0.222(4) 0.053(3) 0.530(3)
O6 O 0.514(3) 0.1793(18) 0.171(2)
O7 O 0.167(3) 0.1712(18) 0.1615(19)
C9 C 0.376(5) 0.222(3) 0.238(3)
C10 C 0.463(5) 0.348(3) 0.402(3)
C11 C 0.642(5) 0.459(3) 0.404(3)
C12 C 0.272(5) 0.431(3) 0.422(4)
Al4_8 Al 1.000 1.000 1.000
Al7_4 Al 0.500 1.000 1.000
O16 O 0.762(3) 0.0864(16) 0.0022(19)
H1 H 0.478159 0.699129 0.505042
H2 H 0.231609 0.598474 0.62704
H3 H 0.421658 0.48153 0.67695
H4 H 0.173843 0.270997 0.661186
H7 H 0.521841 0.300871 0.494958
H8 H 0.768391 0.401526 0.37296
H9 H 0.578342 0.51847 0.32305
H10 H 0.229235 0.492476 0.340436
H11 H 0.132449 0.352063 0.402589
H12 H 0.390173 0.0649361 0.600185
H13 H 0.211154 0.0924617 0.432151
H14 H 0.770765 0.507524 0.659564
H15 H 0.867551 0.647937 0.597411
C16 C 0.130(4) 0.888(3) 0.462(3)
O15 O 0.647(3) 0.9096(18) 0.1426(19)
H17 H 0.159669 0.845062 0.559103
H18 H 0.214811 0.832583 0.383895
O10 O 0.238(3) 0.9136(16) 0.9978(19)
C8 C 0.870(4) 0.112(3) 0.538(3)
H5 H 0.840331 0.154938 0.440897
H6 H 0.785189 0.167417 0.616105
O8 O 0.972(3) 0.9241(19) 0.1577(18)
C13 C 0.832(5) 0.890(3) 0.220(3)
C14 C 0.885(5) 0.847(3) 0.367(3)
C15 C 0.778(4) 0.947(3) 0.470(3)
H16 H 0.826157 0.729003 0.338814
H19 H 0.609827 0.935064 0.399815
H20 H 0.788846 0.907538 0.567849
loop_
_geom_bond_atom_site_label_1
_geom_bond_atom_site_label_2
_geom_bond_site_symmetry_1
_geom_bond_site_symmetry_2
Al7 O6 1_555 1_555
O1 C1 1_555 1_555
O2 C1 1_555 1_555
O3 C5 1_555 1_555
O4 C5 1_555 1_555
C1 C2 1_555 1_555
C2 C3 1_555 1_555
C3 C12 1_555 1_555
C4 C2 1_555 1_555
C5 C6 1_555 1_555
C6 C7 1_555 1_555
O6 C9 1_555 1_555
O7 Al4 1_555 1_555
C9 O7 1_555 1_555
C10 C9 1_555 1_555
C11 C4 1_555 1_555
C12 C10 1_555 1_555
Al4_2 O3 1_555 1_555
Al4_8 O2 1_555 1_555
Al7_2 O4 1_555 1_555
Al7_4 O1 1_555 1_555
O16 Al7 1_555 1_555
C10 C11 1_555 1_555
C2 H1 1_555 1_555
C3 H2 1_555 1_555
C3 H3 1_555 1_555
C6 H4 1_555 1_555
C10 H7 1_555 1_555
C11 H8 1_555 1_555
C11 H9 1_555 1_555
C12 H10 1_555 1_555
C12 H11 1_555 1_555
C7 H12 1_555 1_555
C7 H13 1_555 1_555
C4 H14 1_555 1_555
C4 H15 1_555 1_555
O15 Al7_3 1_555 1_555
C16 H17 1_555 1_555
C16 H18 1_555 1_555
O10 Al4_4 1_555 1_555
Al7_4 O10 1_555 1_555
Al4_5 O16 1_555 1_555
C8 H5 1_555 1_555
C8 H6 1_555 1_555
O8 Al4_7 1_555 1_555
O15 C13 1_555 1_555
C13 O8 1_555 1_555
C14 C13 1_555 1_555
C14 C15 1_555 1_555
C14 H16 1_555 1_555
C15 H19 1_555 1_555
C15 H20 1_555 1_555

#END
