
###############################################################################
#
# This file contains modified crystal structure data generated from the
# MOF subset of the Cambridge Structural Database (CSD) v543 
# hosted by the Cambridge Crystallographic Data Centre (CCDC).
#
# This work is licensed under the Creative Commons
# Attribution-NonCommercial-ShareAlike 4.0 International License.
# To view a copy of this license, visit
# http://creativecommons.org/licenses/by-nc-sa/4.0/
# or send a letter to
# Creative Commons, PO Box 1866, Mountain View, CA 94042, USA.
#
# CIF created using the CSD Python API on 29 September 2022
# The structure has been converted into the P1 space group
# The structure has a 3D framework
# The original CSD entry KALJAM is in the triclinic crystal system
# The framework has been calculated to contain at least 10.0% void space
# The void calculation uses a probe of radius 1.32A, grid spacing 0.4
# H atom positions have been added when not included in the experimental data
#
###############################################################################

data_KALJAM
_chemical_formula_moiety         '(C16 H20 Al8 O10)n'
_symmetry_cell_setting           triclinic
_symmetry_space_group_name_H-M   'P 1'
_symmetry_Int_Tables_number      1
_space_group_name_Hall           'P 1'
loop_
_symmetry_equiv_pos_site_id
_symmetry_equiv_pos_as_xyz
1 x,y,z
_cell_length_a                   6.6177(4)
_cell_length_b                   9.3651(7)
_cell_length_c                   9.4371(6)
_cell_angle_alpha                107.097(4)
_cell_angle_beta                 107.915(6)
_cell_angle_gamma                93.336(6)
_cell_volume                     524.766
loop_
_atom_site_label
_atom_site_type_symbol
_atom_site_fract_x
_atom_site_fract_y
_atom_site_fract_z
Al4 Al -0.000 -0.000 -0.000
Al4_2 Al -0.000 -0.000 1.000
Al4_3 Al -0.000 1.000 -0.000
Al4_4 Al -0.000 1.000 1.000
Al4_5 Al 1.000 -0.000 -0.000
Al7 Al 0.500 -0.000 -0.000
Al4_6 Al 1.000 -0.000 1.000
Al7_2 Al 0.500 -0.000 1.000
Al4_7 Al 1.000 1.000 -0.000
Al7_3 Al 0.500 1.000 -0.000
O1 O 0.485(2) 0.8399(14) 0.8151(14)
O2 O 0.8240(19) 0.8198(12) 0.8418(13)
O3 O 0.018(2) 0.0766(12) 0.8365(13)
O4 O 0.3629(19) 0.1022(12) 0.8634(13)
C1 C 0.622(3) 0.771(2) 0.764(2)
C2 C 0.542(3) 0.653(2) 0.600(2)
C3 C 0.364(3) 0.542(2) 0.598(2)
C4 C 0.727(3) 0.578(2) 0.566(2)
C5 C 0.167(3) 0.106(2) 0.776(2)
C6 C 0.117(3) 0.151(2) 0.632(2)
C7 C 0.232(3) 0.0544(19) 0.535(2)
O6 O 0.515(2) 0.1601(14) 0.1849(14)
O7 O 0.1760(19) 0.1802(12) 0.1582(13)
C9 C 0.378(3) 0.229(2) 0.236(2)
C10 C 0.458(3) 0.347(2) 0.400(2)
C11 C 0.636(3) 0.458(2) 0.402(2)
C12 C 0.273(3) 0.422(2) 0.434(2)
Al4_8 Al 1.000 1.000 1.000
Al7_4 Al 0.500 1.000 1.000
O16 O 0.764(2) 0.0900(12) 0.0056(14)
H1 H 0.236835 0.601896 0.624286
H2 H 0.428566 0.487686 0.685974
H3 H 0.176896 0.270695 0.662171
H4 H 0.396611 0.0621985 0.611033
H5 H 0.233599 0.0992071 0.441069
H9 H 0.763165 0.398104 0.375714
H10 H 0.571434 0.512314 0.314026
H11 H 0.202883 0.47522 0.346044
H12 H 0.1502 0.337985 0.431848
H13 H 0.475827 0.708065 0.512994
H16 H 0.797117 0.52478 0.653956
H17 H 0.8498 0.662015 0.568152
H20 H 0.524173 0.291935 0.487006
C16 C 0.130(3) 0.8854(19) 0.459(2)
O15 O 0.6371(19) 0.8978(12) 0.1366(13)
H14 H 0.161746 0.835393 0.552694
H15 H 0.209336 0.832154 0.37638
O10 O 0.236(2) 0.9100(12) 0.9944(14)
C8 C 0.870(3) 0.1146(19) 0.541(2)
H18 H 0.838254 0.164607 0.447306
H19 H 0.790664 0.167846 0.62362
O8 O 0.982(2) 0.9234(12) 0.1635(13)
C13 C 0.833(3) 0.894(2) 0.224(2)
C14 C 0.883(3) 0.849(2) 0.368(2)
C15 C 0.768(3) 0.9456(19) 0.465(2)
H6 H 0.823104 0.729305 0.337829
H7 H 0.603389 0.937802 0.388967
H8 H 0.766401 0.900793 0.558931
loop_
_geom_bond_atom_site_label_1
_geom_bond_atom_site_label_2
_geom_bond_site_symmetry_1
_geom_bond_site_symmetry_2
Al7 O6 1_555 1_555
O1 C1 1_555 1_555
O2 C1 1_555 1_555
O3 C5 1_555 1_555
O4 C5 1_555 1_555
C1 C2 1_555 1_555
C2 C3 1_555 1_555
C3 C12 1_555 1_555
C4 C2 1_555 1_555
C5 C6 1_555 1_555
C6 C7 1_555 1_555
O6 C9 1_555 1_555
O7 Al4 1_555 1_555
C9 O7 1_555 1_555
C10 C9 1_555 1_555
C11 C4 1_555 1_555
C12 C10 1_555 1_555
Al4_2 O3 1_555 1_555
Al4_8 O2 1_555 1_555
Al7_2 O4 1_555 1_555
Al7_4 O1 1_555 1_555
O16 Al7 1_555 1_555
C10 C11 1_555 1_555
C3 H1 1_555 1_555
C3 H2 1_555 1_555
C6 H3 1_555 1_555
C7 H4 1_555 1_555
C7 H5 1_555 1_555
C11 H9 1_555 1_555
C11 H10 1_555 1_555
C12 H11 1_555 1_555
C12 H12 1_555 1_555
C2 H13 1_555 1_555
C4 H16 1_555 1_555
C4 H17 1_555 1_555
C10 H20 1_555 1_555
O15 Al7_3 1_555 1_555
C16 H14 1_555 1_555
C16 H15 1_555 1_555
O10 Al4_4 1_555 1_555
Al7_4 O10 1_555 1_555
Al4_5 O16 1_555 1_555
C8 H18 1_555 1_555
C8 H19 1_555 1_555
O8 Al4_7 1_555 1_555
O15 C13 1_555 1_555
C13 O8 1_555 1_555
C14 C13 1_555 1_555
C14 C15 1_555 1_555
C14 H6 1_555 1_555
C15 H7 1_555 1_555
C15 H8 1_555 1_555

#END
