
###############################################################################
#
# This file contains modified crystal structure data generated from the
# MOF subset of the Cambridge Structural Database (CSD) v543 
# hosted by the Cambridge Crystallographic Data Centre (CCDC).
#
# This work is licensed under the Creative Commons
# Attribution-NonCommercial-ShareAlike 4.0 International License.
# To view a copy of this license, visit
# http://creativecommons.org/licenses/by-nc-sa/4.0/
# or send a letter to
# Creative Commons, PO Box 1866, Mountain View, CA 94042, USA.
#
# CIF created using the CSD Python API on 29 September 2022
# The structure has been converted into the P1 space group
# The structure has a 3D framework
# The original CSD entry KAMXUU is in the tetragonal crystal system
# The framework has been calculated to contain at least 10.0% void space
# The void calculation uses a probe of radius 1.32A, grid spacing 0.4
# The framework is charged, counterions have been retained in the structure
#
###############################################################################

data_KAMXUU
_chemical_formula_moiety         '(C120 H72 Cl5 Cu12 N52 O60 1-)n'
_symmetry_cell_setting           triclinic
_symmetry_space_group_name_H-M   'P 1'
_symmetry_Int_Tables_number      1
_space_group_name_Hall           'P 1'
loop_
_symmetry_equiv_pos_site_id
_symmetry_equiv_pos_as_xyz
1 x,y,z
_cell_length_a                   23.862(3)
_cell_length_b                   23.862(3)
_cell_length_c                   7.2102(14)
_cell_angle_alpha                90
_cell_angle_beta                 90
_cell_angle_gamma                90
_cell_volume                     4105.45
loop_
_atom_site_label
_atom_site_type_symbol
_atom_site_fract_x
_atom_site_fract_y
_atom_site_fract_z
O1 O 0.4004(6) 0.4004(6) 0.500000
N1 N 0.3544(6) 0.3544(6) 0.500000
O2 O 0.2906(14) 0.3705(13) 0.500000
O3 O 0.3705(13) 0.2906(14) 0.500000
O1_2 O 0.5996(6) 0.4004(6) 0.500000
N1_2 N 0.6456(6) 0.3544(6) 0.500000
O2_2 O 0.6295(13) 0.2906(14) 0.500000
O3_2 O 0.7094(14) 0.3705(13) 0.500000
O1_3 O 0.4004(6) 0.5996(6) 0.500000
N1_3 N 0.3544(6) 0.6456(6) 0.500000
O2_3 O 0.2906(14) 0.6295(13) 0.500000
O3_3 O 0.3705(13) 0.7094(14) 0.500000
O1_4 O 0.5996(6) 0.5996(6) 0.500000
N1_4 N 0.6456(6) 0.6456(6) 0.500000
O2_4 O 0.7094(14) 0.6295(13) 0.500000
O3_4 O 0.6295(13) 0.7094(14) 0.500000
O1_5 O 0.9004(6) 0.9004(6) 0.000000
N1_5 N 0.8544(6) 0.8544(6) 0.000000
O2_5 O 0.7906(14) 0.8705(13) 0.000000
O3_5 O 0.8705(13) 0.7906(14) 0.000000
O1_6 O 0.9004(6) 0.9004(6) 1.000000
N1_6 N 0.8544(6) 0.8544(6) 1.000000
O2_6 O 0.7906(14) 0.8705(13) 1.000000
O3_6 O 0.8705(13) 0.7906(14) 1.000000
O1_7 O 0.0996(6) 0.9004(6) 0.000000
N1_7 N 0.1456(6) 0.8544(6) 0.000000
O2_7 O 0.1295(13) 0.7906(14) 0.000000
O3_7 O 0.2094(14) 0.8705(13) 0.000000
O1_8 O 0.0996(6) 0.9004(6) 1.000000
N1_8 N 0.1456(6) 0.8544(6) 1.000000
O2_8 O 0.1295(13) 0.7906(14) 1.000000
O3_8 O 0.2094(14) 0.8705(13) 1.000000
O1_9 O 0.9004(6) 0.0996(6) 0.000000
N1_9 N 0.8544(6) 0.1456(6) 0.000000
O2_9 O 0.7906(14) 0.1295(13) 0.000000
O3_9 O 0.8705(13) 0.2094(14) 0.000000
O1_10 O 0.9004(6) 0.0996(6) 1.000000
N1_10 N 0.8544(6) 0.1456(6) 1.000000
O2_10 O 0.7906(14) 0.1295(13) 1.000000
O3_10 O 0.8705(13) 0.2094(14) 1.000000
O1_11 O 0.0996(6) 0.0996(6) 0.000000
N1_11 N 0.1456(6) 0.1456(6) 0.000000
O2_11 O 0.2094(14) 0.1295(13) 0.000000
O3_11 O 0.1295(13) 0.2094(14) 0.000000
O1_12 O 0.0996(6) 0.0996(6) 1.000000
N1_12 N 0.1456(6) 0.1456(6) 1.000000
O2_12 O 0.2094(14) 0.1295(13) 1.000000
O3_12 O 0.1295(13) 0.2094(14) 1.000000
Cu3 Cu 0.000000 0.500000 0.250000
N15 N 0.06999(16) 0.500000 0.0942(6)
N16 N -0.000000 0.43001(16) 0.4058(6)
N19 N 0.000000 0.56999(16) 0.4058(6)
Cu10 Cu 0.000000 0.500000 0.750000
Cu5 Cu 0.500000 0.000000 0.250000
Cu8 Cu 0.500000 0.000000 0.750000
Cu2 Cu 0.500000 0.500000 0.1845(2)
Cl1 Cl 0.500000 0.500000 0.500000
N2 N 0.500000 0.06999(16) 0.0942(6)
N3 N 0.500000 0.1560(2) 0.000000
O4 O 0.500000 0.41834(17) 0.1565(8)
C1 C 0.500000 0.1223(2) 0.1450(8)
H1 H 0.500000 0.134669 0.270303
C2 C 0.500000 0.2174(3) 0.000000
C3 C 0.500000 0.2445(3) 0.1621(13)
H2 H 0.500000 0.224238 0.275471
C4 C 0.500000 0.3023(3) 0.1630(12)
H3 H 0.500000 0.322064 0.277466
C5 C 0.500000 0.3312(4) 0.000000
C6 C 0.500000 0.3952(3) 0.000000
Cu3_2 Cu 1.000000 0.500000 0.250000
N5 N 0.93001(16) 0.500000 0.0942(6)
N6 N 0.8440(2) 0.500000 0.000000
O6 O 0.58166(17) 0.500000 0.1565(8)
C10 C 0.8777(2) 0.500000 0.1450(8)
H7 H 0.865331 0.500000 0.270303
C11 C 0.7826(3) 0.500000 0.000000
C12 C 0.7555(3) 0.500000 0.1621(13)
H8 H 0.775762 0.500000 0.275471
C13 C 0.6977(3) 0.500000 0.1630(12)
H9 H 0.677936 0.500000 0.277466
C14 C 0.6688(4) 0.500000 0.000000
C15 C 0.6048(3) 0.500000 0.000000
N9 N 0.500000 0.8440(2) 0.000000
C20 C 0.500000 0.7826(3) 0.000000
C23 C 0.500000 0.6688(4) 0.000000
C24 C 0.500000 0.6048(3) 0.000000
N10 N 0.500000 0.93001(16) 0.0942(6)
O9 O 0.500000 0.58166(17) 0.1565(8)
C25 C 0.500000 0.8777(2) 0.1450(8)
H16 H 0.500000 0.865331 0.270303
C26 C 0.500000 0.7555(3) 0.1621(13)
H17 H 0.500000 0.775762 0.275471
C27 C 0.500000 0.6977(3) 0.1630(12)
H18 H 0.500000 0.677936 0.277466
N12 N 0.1560(2) 0.500000 0.000000
C29 C 0.2174(3) 0.500000 0.000000
C32 C 0.3312(4) 0.500000 0.000000
C33 C 0.3952(3) 0.500000 0.000000
O11 O 0.41834(17) 0.500000 0.1565(8)
C34 C 0.1223(2) 0.500000 0.1450(8)
H22 H 0.134669 0.500000 0.270303
C35 C 0.2445(3) 0.500000 0.1621(13)
H23 H 0.224238 0.500000 0.275471
C36 C 0.3023(3) 0.500000 0.1630(12)
H24 H 0.322064 0.500000 0.277466
Cu5_2 Cu 0.500000 1.000000 0.250000
Cu11 Cu 0.500000 0.500000 0.8155(2)
N16_2 N 1.000000 0.43001(16) 0.4058(6)
N17 N 0.43001(16) 0.000000 0.4058(6)
N18 N 0.56999(16) 0.000000 0.4058(6)
N19_2 N 1.000000 0.56999(16) 0.4058(6)
N3_2 N 0.500000 0.1560(2) 1.000000
C2_2 C 0.500000 0.2174(3) 1.000000
C5_2 C 0.500000 0.3312(4) 1.000000
C6_2 C 0.500000 0.3952(3) 1.000000
N4 N 0.500000 0.06999(16) 0.9058(6)
O5 O 0.500000 0.41834(17) 0.8435(8)
C7 C 0.500000 0.1223(2) 0.8550(8)
H4 H 0.500000 0.134669 0.729697
C8 C 0.500000 0.2445(3) 0.8379(13)
H5 H 0.500000 0.224238 0.724529
C9 C 0.500000 0.3023(3) 0.8370(12)
H6 H 0.500000 0.322064 0.722534
N6_2 N 0.8440(2) 0.500000 1.000000
C11_2 C 0.7826(3) 0.500000 1.000000
C14_2 C 0.6688(4) 0.500000 1.000000
C15_2 C 0.6048(3) 0.500000 1.000000
N7 N 0.93001(16) 0.500000 0.9058(6)
O7 O 0.58166(17) 0.500000 0.8435(8)
C16 C 0.8777(2) 0.500000 0.8550(8)
H10 H 0.865331 0.500000 0.729697
C17 C 0.7555(3) 0.500000 0.8379(13)
H11 H 0.775762 0.500000 0.724529
C18 C 0.6977(3) 0.500000 0.8370(12)
H12 H 0.677936 0.500000 0.722534
N8 N 0.500000 0.93001(16) 0.9058(6)
N9_2 N 0.500000 0.8440(2) 1.000000
O8 O 0.500000 0.58166(17) 0.8435(8)
C19 C 0.500000 0.8777(2) 0.8550(8)
H13 H 0.500000 0.865331 0.729697
C20_2 C 0.500000 0.7826(3) 1.000000
C21 C 0.500000 0.7555(3) 0.8379(13)
H14 H 0.500000 0.775762 0.724529
C22 C 0.500000 0.6977(3) 0.8370(12)
H15 H 0.500000 0.677936 0.722534
C23_2 C 0.500000 0.6688(4) 1.000000
C24_2 C 0.500000 0.6048(3) 1.000000
N11 N 0.06999(16) 0.500000 0.9058(6)
N12_2 N 0.1560(2) 0.500000 1.000000
O10 O 0.41834(17) 0.500000 0.8435(8)
C28 C 0.1223(2) 0.500000 0.8550(8)
H19 H 0.134669 0.500000 0.729697
C29_2 C 0.2174(3) 0.500000 1.000000
C30 C 0.2445(3) 0.500000 0.8379(13)
H20 H 0.224238 0.500000 0.724529
C31 C 0.3023(3) 0.500000 0.8370(12)
H21 H 0.322064 0.500000 0.722534
C32_2 C 0.3312(4) 0.500000 1.000000
C33_2 C 0.3952(3) 0.500000 1.000000
Cu8_2 Cu 0.500000 1.000000 0.750000
Cu10_2 Cu 1.000000 0.500000 0.750000
N17_2 N 0.43001(16) 1.000000 0.4058(6)
N18_2 N 0.56999(16) 1.000000 0.4058(6)
N16_3 N 0.000000 0.56999(16) 0.5942(6)
N19_3 N 0.000000 0.43001(16) 0.5942(6)
N17_3 N 0.43001(16) 0.000000 0.5942(6)
N18_3 N 0.56999(16) 0.000000 0.5942(6)
N16_4 N 1.000000 0.56999(16) 0.5942(6)
N17_4 N 0.43001(16) 1.000000 0.5942(6)
N18_4 N 0.56999(16) 1.000000 0.5942(6)
N19_4 N 1.000000 0.43001(16) 0.5942(6)
Cl1_2 Cl -0.000000 0.000000 0.000000
Cu11_2 Cu -0.000000 0.000000 0.3155(2)
Cu2_2 Cu -0.000000 0.000000 0.6845(2)
Cl1_3 Cl -0.000000 0.000000 1.000000
N6_3 N 0.3440(2) 0.000000 0.500000
O6_2 O 0.08166(17) 0.000000 0.6565(8)
C10_2 C 0.3777(2) 0.000000 0.6450(8)
H7_2 H 0.365331 0.000000 0.770303
C11_3 C 0.2826(3) 0.000000 0.500000
C12_2 C 0.2555(3) 0.000000 0.6621(13)
H8_2 H 0.275762 0.000000 0.775471
C13_2 C 0.1977(3) 0.000000 0.6630(12)
H9_2 H 0.177936 0.000000 0.777466
C14_3 C 0.1688(4) 0.000000 0.500000
C15_3 C 0.1048(3) 0.000000 0.500000
O7_2 O 0.08166(17) 0.000000 0.3435(8)
C16_2 C 0.3777(2) 0.000000 0.3550(8)
H10_2 H 0.365331 0.000000 0.229697
C17_2 C 0.2555(3) 0.000000 0.3379(13)
H11_2 H 0.275762 0.000000 0.224529
C18_2 C 0.1977(3) 0.000000 0.3370(12)
H12_2 H 0.177936 0.000000 0.222534
N9_3 N 0.000000 0.3440(2) 0.500000
O8_2 O -0.000000 0.08166(17) 0.3435(8)
C19_2 C 0.000000 0.3777(2) 0.3550(8)
H13_2 H 0.000000 0.365331 0.229697
C20_3 C 0.000000 0.2826(3) 0.500000
C21_2 C 0.000000 0.2555(3) 0.3379(13)
H14_2 H 0.000000 0.275762 0.224529
C22_2 C 0.000000 0.1977(3) 0.3370(12)
H15_2 H 0.000000 0.177936 0.222534
C23_3 C 0.000000 0.1688(4) 0.500000
C24_3 C -0.000000 0.1048(3) 0.500000
O9_2 O -0.000000 0.08166(17) 0.6565(8)
C25_2 C 0.000000 0.3777(2) 0.6450(8)
H16_2 H 0.000000 0.365331 0.770303
C26_2 C 0.000000 0.2555(3) 0.6621(13)
H17_2 H 0.000000 0.275762 0.775471
C27_2 C 0.000000 0.1977(3) 0.6630(12)
H18_2 H 0.000000 0.177936 0.777466
Cl1_4 Cl -0.000000 1.000000 0.000000
Cu11_3 Cu -0.000000 1.000000 0.3155(2)
Cu2_3 Cu -0.000000 1.000000 0.6845(2)
Cl1_5 Cl -0.000000 1.000000 1.000000
N3_3 N 0.000000 0.6560(2) 0.500000
O4_2 O 0.000000 0.91834(17) 0.6565(8)
C1_2 C -0.000000 0.6223(2) 0.6450(8)
H1_2 H 0.000000 0.634669 0.770303
C2_3 C 0.000000 0.7174(3) 0.500000
C3_2 C 0.000000 0.7445(3) 0.6621(13)
H2_2 H 0.000000 0.724238 0.775471
C4_2 C -0.000000 0.8023(3) 0.6630(12)
H3_2 H 0.000000 0.822064 0.777466
C5_3 C 0.000000 0.8312(4) 0.500000
C6_3 C 0.000000 0.8952(3) 0.500000
O5_2 O 0.000000 0.91834(17) 0.3435(8)
C7_2 C -0.000000 0.6223(2) 0.3550(8)
H4_2 H 0.000000 0.634669 0.229697
C8_2 C 0.000000 0.7445(3) 0.3379(13)
H5_2 H 0.000000 0.724238 0.224529
C9_2 C -0.000000 0.8023(3) 0.3370(12)
H6_2 H 0.000000 0.822064 0.222534
N6_4 N 0.3440(2) 1.000000 0.500000
O6_3 O 0.08166(17) 1.000000 0.6565(8)
C10_3 C 0.3777(2) 1.000000 0.6450(8)
H7_3 H 0.365331 1.000000 0.770303
C11_4 C 0.2826(3) 1.000000 0.500000
C12_3 C 0.2555(3) 1.000000 0.6621(13)
H8_3 H 0.275762 1.000000 0.775471
C13_3 C 0.1977(3) 1.000000 0.6630(12)
H9_3 H 0.177936 1.000000 0.777466
C14_4 C 0.1688(4) 1.000000 0.500000
C15_4 C 0.1048(3) 1.000000 0.500000
O7_3 O 0.08166(17) 1.000000 0.3435(8)
C16_3 C 0.3777(2) 1.000000 0.3550(8)
H10_3 H 0.365331 1.000000 0.229697
C17_3 C 0.2555(3) 1.000000 0.3379(13)
H11_3 H 0.275762 1.000000 0.224529
C18_3 C 0.1977(3) 1.000000 0.3370(12)
H12_3 H 0.177936 1.000000 0.222534
Cl1_6 Cl 1.000000 0.000000 0.000000
Cu11_4 Cu 1.000000 0.000000 0.3155(2)
Cu2_4 Cu 1.000000 0.000000 0.6845(2)
Cl1_7 Cl 1.000000 0.000000 1.000000
N9_4 N 1.000000 0.3440(2) 0.500000
O8_3 O 1.000000 0.08166(17) 0.3435(8)
C19_3 C 1.000000 0.3777(2) 0.3550(8)
H13_3 H 1.000000 0.365331 0.229697
C20_4 C 1.000000 0.2826(3) 0.500000
C21_3 C 1.000000 0.2555(3) 0.3379(13)
H14_3 H 1.000000 0.275762 0.224529
C22_3 C 1.000000 0.1977(3) 0.3370(12)
H15_3 H 1.000000 0.177936 0.222534
C23_4 C 1.000000 0.1688(4) 0.500000
C24_4 C 1.000000 0.1048(3) 0.500000
O9_3 O 1.000000 0.08166(17) 0.6565(8)
C25_3 C 1.000000 0.3777(2) 0.6450(8)
H16_3 H 1.000000 0.365331 0.770303
C26_3 C 1.000000 0.2555(3) 0.6621(13)
H17_3 H 1.000000 0.275762 0.775471
C27_3 C 1.000000 0.1977(3) 0.6630(12)
H18_3 H 1.000000 0.177936 0.777466
N12_3 N 0.6560(2) 0.000000 0.500000
O10_2 O 0.91834(17) 0.000000 0.3435(8)
C28_2 C 0.6223(2) 0.000000 0.3550(8)
H19_2 H 0.634669 0.000000 0.229697
C29_3 C 0.7174(3) 0.000000 0.500000
C30_2 C 0.7445(3) 0.000000 0.3379(13)
H20_2 H 0.724238 0.000000 0.224529
C31_2 C 0.8023(3) 0.000000 0.3370(12)
H21_2 H 0.822064 0.000000 0.222534
C32_3 C 0.8312(4) 0.000000 0.500000
C33_3 C 0.8952(3) 0.000000 0.500000
O11_2 O 0.91834(17) 0.000000 0.6565(8)
C34_2 C 0.6223(2) 0.000000 0.6450(8)
H22_2 H 0.634669 0.000000 0.770303
C35_2 C 0.7445(3) 0.000000 0.6621(13)
H23_2 H 0.724238 0.000000 0.775471
C36_2 C 0.8023(3) 0.000000 0.6630(12)
H24_2 H 0.822064 0.000000 0.777466
Cl1_8 Cl 1.000000 1.000000 0.000000
Cu11_5 Cu 1.000000 1.000000 0.3155(2)
Cu2_5 Cu 1.000000 1.000000 0.6845(2)
Cl1_9 Cl 1.000000 1.000000 1.000000
N3_4 N 1.000000 0.6560(2) 0.500000
O4_3 O 1.000000 0.91834(17) 0.6565(8)
C1_3 C 1.000000 0.6223(2) 0.6450(8)
H1_3 H 1.000000 0.634669 0.770303
C2_4 C 1.000000 0.7174(3) 0.500000
C3_3 C 1.000000 0.7445(3) 0.6621(13)
H2_3 H 1.000000 0.724238 0.775471
C4_3 C 1.000000 0.8023(3) 0.6630(12)
H3_3 H 1.000000 0.822064 0.777466
C5_4 C 1.000000 0.8312(4) 0.500000
C6_4 C 1.000000 0.8952(3) 0.500000
O5_3 O 1.000000 0.91834(17) 0.3435(8)
C7_3 C 1.000000 0.6223(2) 0.3550(8)
H4_3 H 1.000000 0.634669 0.229697
C8_3 C 1.000000 0.7445(3) 0.3379(13)
H5_3 H 1.000000 0.724238 0.224529
C9_3 C 1.000000 0.8023(3) 0.3370(12)
H6_3 H 1.000000 0.822064 0.222534
N12_4 N 0.6560(2) 1.000000 0.500000
O10_3 O 0.91834(17) 1.000000 0.3435(8)
C28_3 C 0.6223(2) 1.000000 0.3550(8)
H19_3 H 0.634669 1.000000 0.229697
C29_4 C 0.7174(3) 1.000000 0.500000
C30_3 C 0.7445(3) 1.000000 0.3379(13)
H20_3 H 0.724238 1.000000 0.224529
C31_3 C 0.8023(3) 1.000000 0.3370(12)
H21_3 H 0.822064 1.000000 0.222534
C32_4 C 0.8312(4) 1.000000 0.500000
C33_4 C 0.8952(3) 1.000000 0.500000
O11_3 O 0.91834(17) 1.000000 0.6565(8)
C34_3 C 0.6223(2) 1.000000 0.6450(8)
H22_3 H 0.634669 1.000000 0.770303
C35_3 C 0.7445(3) 1.000000 0.6621(13)
H23_3 H 0.724238 1.000000 0.775471
C36_3 C 0.8023(3) 1.000000 0.6630(12)
H24_3 H 0.822064 1.000000 0.777466
loop_
_geom_bond_atom_site_label_1
_geom_bond_atom_site_label_2
_geom_bond_site_symmetry_1
_geom_bond_site_symmetry_2
O1 N1 1_555 1_555
N1 O2 1_555 1_555
O3 N1 1_555 1_555
O1_2 N1_2 1_555 1_555
N1_2 O2_2 1_555 1_555
O3_2 N1_2 1_555 1_555
O1_3 N1_3 1_555 1_555
N1_3 O2_3 1_555 1_555
O3_3 N1_3 1_555 1_555
O1_4 N1_4 1_555 1_555
N1_4 O2_4 1_555 1_555
O3_4 N1_4 1_555 1_555
O1_5 N1_5 1_555 1_555
N1_5 O2_5 1_555 1_555
O3_5 N1_5 1_555 1_555
O1_6 N1_6 1_555 1_555
N1_6 O2_6 1_555 1_555
O3_6 N1_6 1_555 1_555
O1_7 N1_7 1_555 1_555
N1_7 O2_7 1_555 1_555
O3_7 N1_7 1_555 1_555
O1_8 N1_8 1_555 1_555
N1_8 O2_8 1_555 1_555
O3_8 N1_8 1_555 1_555
O1_9 N1_9 1_555 1_555
N1_9 O2_9 1_555 1_555
O3_9 N1_9 1_555 1_555
O1_10 N1_10 1_555 1_555
N1_10 O2_10 1_555 1_555
O3_10 N1_10 1_555 1_555
O1_11 N1_11 1_555 1_555
N1_11 O2_11 1_555 1_555
O3_11 N1_11 1_555 1_555
O1_12 N1_12 1_555 1_555
N1_12 O2_12 1_555 1_555
O3_12 N1_12 1_555 1_555
N15 Cu3 1_555 1_555
N16 Cu3 1_555 1_555
N19 Cu3 1_555 1_555
Cu5 N2 1_555 1_555
Cu2 Cl1 1_555 1_555
Cl1 Cu11 1_555 1_555
N2 C1 1_555 1_555
N3 C1 1_555 1_555
O4 Cu2 1_555 1_555
C1 H1 1_555 1_555
C2 N3 1_555 1_555
C3 C2 1_555 1_555
H2 C3 1_555 1_555
C4 C3 1_555 1_555
H3 C4 1_555 1_555
C5 C4 1_555 1_555
C6 O4 1_555 1_555
Cu3_2 N5 1_555 1_555
N5 C10 1_555 1_555
N6 C10 1_555 1_555
O6 Cu2 1_555 1_555
C10 H7 1_555 1_555
C11 N6 1_555 1_555
C12 C11 1_555 1_555
H8 C12 1_555 1_555
C13 C12 1_555 1_555
H9 C13 1_555 1_555
C14 C13 1_555 1_555
C15 O6 1_555 1_555
C20 N9 1_555 1_555
O9 Cu2 1_555 1_555
C25 N9 1_555 1_555
H16 C25 1_555 1_555
C26 C20 1_555 1_555
H17 C26 1_555 1_555
C27 C23 1_555 1_555
H18 C27 1_555 1_555
C29 N12 1_555 1_555
O11 Cu2 1_555 1_555
C34 N12 1_555 1_555
H22 C34 1_555 1_555
C35 C29 1_555 1_555
H23 C35 1_555 1_555
C36 C32 1_555 1_555
H24 C36 1_555 1_555
Cu5_2 N10 1_555 1_555
N16_2 Cu3_2 1_555 1_555
N17 Cu5 1_555 1_555
N18 Cu5 1_555 1_555
N19_2 Cu3_2 1_555 1_555
C5 C6 1_555 1_555
C14 C15 1_555 1_555
C23 C24 1_555 1_555
C24 O9 1_555 1_555
N10 C25 1_555 1_555
C26 C27 1_555 1_555
C32 C33 1_555 1_555
C33 O11 1_555 1_555
N15 C34 1_555 1_555
C35 C36 1_555 1_555
C2_2 N3_2 1_555 1_555
O5 C6_2 1_555 1_555
C7 N3_2 1_555 1_555
H4 C7 1_555 1_555
C8 C2_2 1_555 1_555
H5 C8 1_555 1_555
C9 C5_2 1_555 1_555
H6 C9 1_555 1_555
C11_2 N6_2 1_555 1_555
O7 C15_2 1_555 1_555
C16 N6_2 1_555 1_555
H10 C16 1_555 1_555
C17 C11_2 1_555 1_555
H11 C17 1_555 1_555
C18 C14_2 1_555 1_555
H12 C18 1_555 1_555
N8 C19 1_555 1_555
N9_2 C19 1_555 1_555
O8 Cu11 1_555 1_555
C19 H13 1_555 1_555
C20_2 N9_2 1_555 1_555
C21 C20_2 1_555 1_555
H14 C21 1_555 1_555
C22 C21 1_555 1_555
H15 C22 1_555 1_555
C23_2 C22 1_555 1_555
C24_2 O8 1_555 1_555
N11 C28 1_555 1_555
N12_2 C28 1_555 1_555
O10 Cu11 1_555 1_555
C28 H19 1_555 1_555
C29_2 N12_2 1_555 1_555
C30 C29_2 1_555 1_555
H20 C30 1_555 1_555
C31 C30 1_555 1_555
H21 C31 1_555 1_555
C32_2 C31 1_555 1_555
C33_2 O10 1_555 1_555
Cu8 N4 1_555 1_555
Cu8_2 N8 1_555 1_555
Cu10 N11 1_555 1_555
Cu10_2 N7 1_555 1_555
C5_2 C6_2 1_555 1_555
N4 C7 1_555 1_555
O5 Cu11 1_555 1_555
C8 C9 1_555 1_555
C14_2 C15_2 1_555 1_555
N7 C16 1_555 1_555
O7 Cu11 1_555 1_555
C17 C18 1_555 1_555
C23_2 C24_2 1_555 1_555
C32_2 C33_2 1_555 1_555
N17_2 Cu5_2 1_555 1_555
N18_2 Cu5_2 1_555 1_555
N16_3 Cu10 1_555 1_555
N19_3 Cu10 1_555 1_555
N17_3 Cu8 1_555 1_555
N18_3 Cu8 1_555 1_555
N16_4 Cu10_2 1_555 1_555
N17_4 Cu8_2 1_555 1_555
N18_4 Cu8_2 1_555 1_555
N19_4 Cu10_2 1_555 1_555
Cl1_2 Cu11_2 1_555 1_555
Cu2_2 Cl1_3 1_555 1_555
N17_3 C10_2 1_555 1_555
N6_3 C10_2 1_555 1_555
O6_2 Cu2_2 1_555 1_555
C10_2 H7_2 1_555 1_555
C11_3 N6_3 1_555 1_555
C12_2 C11_3 1_555 1_555
H8_2 C12_2 1_555 1_555
C13_2 C12_2 1_555 1_555
H9_2 C13_2 1_555 1_555
C14_3 C13_2 1_555 1_555
C15_3 O6_2 1_555 1_555
N17 N17_3 1_555 1_555
O7_2 C15_3 1_555 1_555
C16_2 N6_3 1_555 1_555
H10_2 C16_2 1_555 1_555
C17_2 C11_3 1_555 1_555
H11_2 C17_2 1_555 1_555
C18_2 C14_3 1_555 1_555
H12_2 C18_2 1_555 1_555
Cu11_2 Cu2_2 1_555 1_555
N16 C19_2 1_555 1_555
N9_3 C19_2 1_555 1_555
O8_2 Cu11_2 1_555 1_555
C19_2 H13_2 1_555 1_555
C20_3 N9_3 1_555 1_555
C21_2 C20_3 1_555 1_555
H14_2 C21_2 1_555 1_555
C22_2 C21_2 1_555 1_555
H15_2 C22_2 1_555 1_555
C23_3 C22_2 1_555 1_555
C24_3 O8_2 1_555 1_555
N19_3 N16 1_555 1_555
O9_2 Cu2_2 1_555 1_555
C25_2 N9_3 1_555 1_555
H16_2 C25_2 1_555 1_555
C26_2 C20_3 1_555 1_555
H17_2 C26_2 1_555 1_555
C27_2 C23_3 1_555 1_555
H18_2 C27_2 1_555 1_555
C14_3 C15_3 1_555 1_555
N17 C16_2 1_555 1_555
O7_2 Cu11_2 1_555 1_555
C17_2 C18_2 1_555 1_555
C23_3 C24_3 1_555 1_555
C24_3 O9_2 1_555 1_555
N19_3 C25_2 1_555 1_555
C26_2 C27_2 1_555 1_555
Cl1_4 Cu11_3 1_555 1_555
Cu2_3 Cl1_5 1_555 1_555
N16_3 C1_2 1_555 1_555
N3_3 C1_2 1_555 1_555
O4_2 Cu2_3 1_555 1_555
C1_2 H1_2 1_555 1_555
C2_3 N3_3 1_555 1_555
C3_2 C2_3 1_555 1_555
H2_2 C3_2 1_555 1_555
C4_2 C3_2 1_555 1_555
H3_2 C4_2 1_555 1_555
C5_3 C4_2 1_555 1_555
C6_3 O4_2 1_555 1_555
N19 N16_3 1_555 1_555
O5_2 C6_3 1_555 1_555
C7_2 N3_3 1_555 1_555
H4_2 C7_2 1_555 1_555
C8_2 C2_3 1_555 1_555
H5_2 C8_2 1_555 1_555
C9_2 C5_3 1_555 1_555
H6_2 C9_2 1_555 1_555
N17_4 C10_3 1_555 1_555
N6_4 C10_3 1_555 1_555
O6_3 Cu2_3 1_555 1_555
C10_3 H7_3 1_555 1_555
C11_4 N6_4 1_555 1_555
C12_3 C11_4 1_555 1_555
H8_3 C12_3 1_555 1_555
C13_3 C12_3 1_555 1_555
H9_3 C13_3 1_555 1_555
C14_4 C13_3 1_555 1_555
C15_4 O6_3 1_555 1_555
N17_2 N17_4 1_555 1_555
O7_3 C15_4 1_555 1_555
C16_3 N6_4 1_555 1_555
H10_3 C16_3 1_555 1_555
C17_3 C11_4 1_555 1_555
H11_3 C17_3 1_555 1_555
C18_3 C14_4 1_555 1_555
H12_3 C18_3 1_555 1_555
Cu11_3 Cu2_3 1_555 1_555
C5_3 C6_3 1_555 1_555
N19 C7_2 1_555 1_555
O5_2 Cu11_3 1_555 1_555
C8_2 C9_2 1_555 1_555
C14_4 C15_4 1_555 1_555
N17_2 C16_3 1_555 1_555
O7_3 Cu11_3 1_555 1_555
C17_3 C18_3 1_555 1_555
Cl1_6 Cu11_4 1_555 1_555
Cu2_4 Cl1_7 1_555 1_555
Cu11_4 Cu2_4 1_555 1_555
N16_2 C19_3 1_555 1_555
N9_4 C19_3 1_555 1_555
O8_3 Cu11_4 1_555 1_555
C19_3 H13_3 1_555 1_555
C20_4 N9_4 1_555 1_555
C21_3 C20_4 1_555 1_555
H14_3 C21_3 1_555 1_555
C22_3 C21_3 1_555 1_555
H15_3 C22_3 1_555 1_555
C23_4 C22_3 1_555 1_555
C24_4 O8_3 1_555 1_555
N19_4 N16_2 1_555 1_555
O9_3 Cu2_4 1_555 1_555
C25_3 N9_4 1_555 1_555
H16_3 C25_3 1_555 1_555
C26_3 C20_4 1_555 1_555
H17_3 C26_3 1_555 1_555
C27_3 C23_4 1_555 1_555
H18_3 C27_3 1_555 1_555
N18 C28_2 1_555 1_555
N12_3 C28_2 1_555 1_555
O10_2 Cu11_4 1_555 1_555
C28_2 H19_2 1_555 1_555
C29_3 N12_3 1_555 1_555
C30_2 C29_3 1_555 1_555
H20_2 C30_2 1_555 1_555
C31_2 C30_2 1_555 1_555
H21_2 C31_2 1_555 1_555
C32_3 C31_2 1_555 1_555
C33_3 O10_2 1_555 1_555
N18_3 N18 1_555 1_555
O11_2 Cu2_4 1_555 1_555
C34_2 N12_3 1_555 1_555
H22_2 C34_2 1_555 1_555
C35_2 C29_3 1_555 1_555
H23_2 C35_2 1_555 1_555
C36_2 C32_3 1_555 1_555
H24_2 C36_2 1_555 1_555
C23_4 C24_4 1_555 1_555
C24_4 O9_3 1_555 1_555
N19_4 C25_3 1_555 1_555
C26_3 C27_3 1_555 1_555
C32_3 C33_3 1_555 1_555
C33_3 O11_2 1_555 1_555
N18_3 C34_2 1_555 1_555
C35_2 C36_2 1_555 1_555
Cl1_8 Cu11_5 1_555 1_555
Cu2_5 Cl1_9 1_555 1_555
N16_4 C1_3 1_555 1_555
N3_4 C1_3 1_555 1_555
O4_3 Cu2_5 1_555 1_555
C1_3 H1_3 1_555 1_555
C2_4 N3_4 1_555 1_555
C3_3 C2_4 1_555 1_555
H2_3 C3_3 1_555 1_555
C4_3 C3_3 1_555 1_555
H3_3 C4_3 1_555 1_555
C5_4 C4_3 1_555 1_555
C6_4 O4_3 1_555 1_555
N19_2 N16_4 1_555 1_555
O5_3 C6_4 1_555 1_555
C7_3 N3_4 1_555 1_555
H4_3 C7_3 1_555 1_555
C8_3 C2_4 1_555 1_555
H5_3 C8_3 1_555 1_555
C9_3 C5_4 1_555 1_555
H6_3 C9_3 1_555 1_555
Cu11_5 Cu2_5 1_555 1_555
N18_2 C28_3 1_555 1_555
N12_4 C28_3 1_555 1_555
O10_3 Cu11_5 1_555 1_555
C28_3 H19_3 1_555 1_555
C29_4 N12_4 1_555 1_555
C30_3 C29_4 1_555 1_555
H20_3 C30_3 1_555 1_555
C31_3 C30_3 1_555 1_555
H21_3 C31_3 1_555 1_555
C32_4 C31_3 1_555 1_555
C33_4 O10_3 1_555 1_555
N18_4 N18_2 1_555 1_555
O11_3 Cu2_5 1_555 1_555
C34_3 N12_4 1_555 1_555
H22_3 C34_3 1_555 1_555
C35_3 C29_4 1_555 1_555
H23_3 C35_3 1_555 1_555
C36_3 C32_4 1_555 1_555
H24_3 C36_3 1_555 1_555
C5_4 C6_4 1_555 1_555
N19_2 C7_3 1_555 1_555
O5_3 Cu11_5 1_555 1_555
C8_3 C9_3 1_555 1_555
C32_4 C33_4 1_555 1_555
C33_4 O11_3 1_555 1_555
N18_4 C34_3 1_555 1_555
C35_3 C36_3 1_555 1_555

#END
