
###############################################################################
#
# This file contains modified crystal structure data generated from the
# MOF subset of the Cambridge Structural Database (CSD) v543 
# hosted by the Cambridge Crystallographic Data Centre (CCDC).
#
# This work is licensed under the Creative Commons
# Attribution-NonCommercial-ShareAlike 4.0 International License.
# To view a copy of this license, visit
# http://creativecommons.org/licenses/by-nc-sa/4.0/
# or send a letter to
# Creative Commons, PO Box 1866, Mountain View, CA 94042, USA.
#
# CIF created using the CSD Python API on 29 September 2022
# The structure has been converted into the P1 space group
# The structure has a 3D framework
# The original CSD entry KAMYAB is in the orthorhombic crystal system
# The framework has been calculated to contain at least 10.0% void space
# The void calculation uses a probe of radius 1.32A, grid spacing 0.4
# The framework is charged, counterions have been retained in the structure
#
###############################################################################

data_KAMYAB
_chemical_formula_moiety         '(C84 H48 Cu3 In3 N28 O18 6+)n'
_symmetry_cell_setting           triclinic
_symmetry_space_group_name_H-M   'P 1'
_symmetry_Int_Tables_number      1
_space_group_name_Hall           'P 1'
loop_
_symmetry_equiv_pos_site_id
_symmetry_equiv_pos_as_xyz
1 x,y,z
_cell_length_a                   7.2506(3)
_cell_length_b                   34.9964(12)
_cell_length_c                   16.5519(6)
_cell_angle_alpha                90
_cell_angle_beta                 90
_cell_angle_gamma                90
_cell_volume                     4199.96
loop_
_atom_site_label
_atom_site_type_symbol
_atom_site_fract_x
_atom_site_fract_y
_atom_site_fract_z
O1 O 0.0 0.250 0.06099(15)
In5 In 0.250 0.250 0.000
In5_2 In 0.250 0.250 1.000
In2 In 0.750 0.750 -0.000
In3 In 0.250 0.750 -0.000
In1 In 0.750 0.250 0.000
Cu1 Cu 0.750 0.500 0.500
O1_2 O 1.0 0.250 0.06099(15)
O2 O 0.6532(2) 0.29391(6) 0.08197(12)
N1 N 0.5949(2) 0.46586(6) 0.42919(11)
N2 N 0.500 0.42289(9) 0.3431(2)
C1 C 0.500 0.33626(10) 0.1681(2)
C2 C 0.500 0.30527(9) 0.1057(2)
C3 C 0.500 0.39312(12) 0.2832(2)
C4 C 0.6466(4) 0.43984(8) 0.37742(18)
C5 C 0.6620(4) 0.35042(12) 0.1968(2)
C6 C 0.6615(4) 0.37916(12) 0.2557(3)
H1 H 0.7687(4) 0.43384(8) 0.36584(18)
H2 H 0.7733(4) 0.34099(12) 0.1773(2)
H3 H 0.7723(4) 0.38859(12) 0.2758(3)
O3 O 0.3468(2) 0.29391(6) 0.08197(12)
N3 N 0.4051(2) 0.46586(6) 0.42919(11)
C7 C 0.3534(4) 0.43984(8) 0.37742(18)
C8 C 0.3380(4) 0.35042(12) 0.1968(2)
C9 C 0.3385(4) 0.37916(12) 0.2557(3)
H4 H 0.2313(4) 0.43384(8) 0.36584(18)
H5 H 0.2267(4) 0.34099(12) 0.1773(2)
H6 H 0.2277(4) 0.38859(12) 0.2758(3)
O4 O 0.6532(2) 0.70609(6) 0.91803(12)
N4 N 0.5949(2) 0.53414(6) 0.57081(11)
N5 N 0.500 0.57711(9) 0.6569(2)
C10 C 0.500 0.66374(10) 0.8319(2)
C11 C 0.500 0.69473(9) 0.8943(2)
C12 C 0.500 0.60688(12) 0.7168(2)
C13 C 0.6466(4) 0.56016(8) 0.62258(18)
C14 C 0.6620(4) 0.64958(12) 0.8032(2)
C15 C 0.6615(4) 0.62084(12) 0.7443(3)
H7 H 0.7687(4) 0.56616(8) 0.63416(18)
H8 H 0.7733(4) 0.65901(12) 0.8227(2)
H9 H 0.7723(4) 0.61141(12) 0.7242(3)
O5 O 0.3468(2) 0.70609(6) 0.91803(12)
N6 N 0.4051(2) 0.53414(6) 0.57081(11)
C16 C 0.3534(4) 0.56016(8) 0.62258(18)
C17 C 0.3380(4) 0.64958(12) 0.8032(2)
C18 C 0.3385(4) 0.62084(12) 0.7443(3)
H10 H 0.2313(4) 0.56616(8) 0.63416(18)
H11 H 0.2267(4) 0.65901(12) 0.8227(2)
H12 H 0.2277(4) 0.61141(12) 0.7242(3)
In2_2 In 0.750 0.750 1.000
In3_2 In 0.250 0.750 1.000
Cu2 Cu 0.250 0.500 0.500
O9 O 0.6532(2) 0.20609(6) 0.08197(12)
N7 N 0.9051(2) 0.46586(6) 0.57081(11)
N8 N 0.9051(2) 0.53414(6) 0.42919(11)
In1_2 In 0.750 0.250 1.000
O6 O 0.5 0.250 0.93901(15)
O7 O 0.8468(2) 0.29391(6) 0.91803(12)
O8 O 0.8468(2) 0.20609(6) 0.91803(12)
O1_3 O 0.0 0.750 0.93901(15)
O6_2 O 0.5 0.750 0.06099(15)
O7_2 O 0.8468(2) 0.70609(6) 0.08197(12)
O8_2 O 0.8468(2) 0.79391(6) 0.08197(12)
O1_4 O 1.0 0.750 0.93901(15)
O9_2 O 0.6532(2) 0.79391(6) 0.91803(12)
N2_2 N -0.000 0.42289(9) 0.6569(2)
C1_2 C -0.000 0.33626(10) 0.8319(2)
C2_2 C -0.000 0.30527(9) 0.8943(2)
C3_2 C -0.000 0.39312(12) 0.7168(2)
O3_2 O 0.1532(2) 0.29391(6) 0.91803(12)
N3_2 N 0.0949(2) 0.46586(6) 0.57081(11)
C7_2 C 0.1466(4) 0.43984(8) 0.62258(18)
C8_2 C 0.1620(4) 0.35042(12) 0.8032(2)
C9_2 C 0.1615(4) 0.37916(12) 0.7443(3)
H4_2 H 0.2687(4) 0.43384(8) 0.63416(18)
H5_2 H 0.2733(4) 0.34099(12) 0.8227(2)
H6_2 H 0.2723(4) 0.38859(12) 0.7242(3)
N5_2 N 0.000 0.57711(9) 0.3431(2)
C10_2 C 0.000 0.66374(10) 0.1681(2)
C11_2 C 0.000 0.69473(9) 0.1057(2)
C12_2 C 0.000 0.60688(12) 0.2832(2)
O5_2 O 0.1532(2) 0.70609(6) 0.08197(12)
N6_2 N 0.0949(2) 0.53414(6) 0.42919(11)
C16_2 C 0.1466(4) 0.56016(8) 0.37742(18)
C17_2 C 0.1620(4) 0.64958(12) 0.1968(2)
C18_2 C 0.1615(4) 0.62084(12) 0.2557(3)
H10_2 H 0.2687(4) 0.56616(8) 0.36584(18)
H11_2 H 0.2733(4) 0.65901(12) 0.1773(2)
H12_2 H 0.2723(4) 0.61141(12) 0.2758(3)
N2_3 N 1.000 0.42289(9) 0.6569(2)
C1_3 C 1.000 0.33626(10) 0.8319(2)
C2_3 C 1.000 0.30527(9) 0.8943(2)
C3_3 C 1.000 0.39312(12) 0.7168(2)
C4_2 C 0.8534(4) 0.43984(8) 0.62258(18)
C5_2 C 0.8380(4) 0.35042(12) 0.8032(2)
C6_2 C 0.8385(4) 0.37916(12) 0.7443(3)
H1_2 H 0.7313(4) 0.43384(8) 0.63416(18)
H2_2 H 0.7267(4) 0.34099(12) 0.8227(2)
H3_2 H 0.7277(4) 0.38859(12) 0.7242(3)
N5_3 N 1.000 0.57711(9) 0.3431(2)
C10_3 C 1.000 0.66374(10) 0.1681(2)
C11_3 C 1.000 0.69473(9) 0.1057(2)
C12_3 C 1.000 0.60688(12) 0.2832(2)
C13_2 C 0.8534(4) 0.56016(8) 0.37742(18)
C14_2 C 0.8380(4) 0.64958(12) 0.1968(2)
C15_2 C 0.8385(4) 0.62084(12) 0.2557(3)
H7_2 H 0.7313(4) 0.56616(8) 0.36584(18)
H8_2 H 0.7267(4) 0.65901(12) 0.1773(2)
H9_2 H 0.7277(4) 0.61141(12) 0.2758(3)
Cu1_2 Cu 0.250 -0.000 0.500
O4_2 O 0.1532(2) 0.20609(6) 0.91803(12)
N4_2 N 0.0949(2) 0.03414(6) 0.57081(11)
N5_4 N -0.000 0.07711(9) 0.6569(2)
C10_4 C 0.000 0.16374(10) 0.8319(2)
C11_4 C 0.000 0.19473(9) 0.8943(2)
C12_4 C 0.000 0.10688(12) 0.7168(2)
C13_3 C 0.1466(4) 0.06016(8) 0.62258(18)
C14_3 C 0.1620(4) 0.14958(12) 0.8032(2)
C15_3 C 0.1615(4) 0.12084(12) 0.7443(3)
H7_3 H 0.2687(4) 0.06616(8) 0.63416(18)
H8_3 H 0.2733(4) 0.15901(12) 0.8227(2)
H9_3 H 0.2723(4) 0.11141(12) 0.7242(3)
N8_2 N 0.4051(2) 0.03414(6) 0.42919(11)
Cu1_3 Cu 0.250 1.000 0.500
O2_2 O 0.1532(2) 0.79391(6) 0.08197(12)
N1_2 N 0.0949(2) 0.96586(6) 0.42919(11)
N2_4 N 0.000 0.92289(9) 0.3431(2)
C1_4 C -0.000 0.83626(10) 0.1681(2)
C2_4 C 0.000 0.80527(9) 0.1057(2)
C3_4 C 0.000 0.89312(12) 0.2832(2)
C4_3 C 0.1466(4) 0.93984(8) 0.37742(18)
C5_3 C 0.1620(4) 0.85042(12) 0.1968(2)
C6_3 C 0.1615(4) 0.87916(12) 0.2557(3)
H1_3 H 0.2687(4) 0.93384(8) 0.36584(18)
H2_3 H 0.2733(4) 0.84099(12) 0.1773(2)
H3_3 H 0.2723(4) 0.88859(12) 0.2758(3)
N7_2 N 0.4051(2) 0.96586(6) 0.57081(11)
O7_3 O 0.3468(2) 0.79391(6) 0.91803(12)
N5_5 N 1.000 0.07711(9) 0.6569(2)
C10_5 C 1.000 0.16374(10) 0.8319(2)
C11_5 C 1.000 0.19473(9) 0.8943(2)
C12_5 C 1.000 0.10688(12) 0.7168(2)
N6_3 N 0.9051(2) 0.03414(6) 0.57081(11)
C16_3 C 0.8534(4) 0.06016(8) 0.62258(18)
C17_3 C 0.8380(4) 0.14958(12) 0.8032(2)
C18_3 C 0.8385(4) 0.12084(12) 0.7443(3)
H10_3 H 0.7313(4) 0.06616(8) 0.63416(18)
H11_3 H 0.7267(4) 0.15901(12) 0.8227(2)
H12_3 H 0.7277(4) 0.11141(12) 0.7242(3)
Cu2_2 Cu 0.750 -0.000 0.500
N2_5 N 1.000 0.92289(9) 0.3431(2)
C1_5 C 1.000 0.83626(10) 0.1681(2)
C2_5 C 1.000 0.80527(9) 0.1057(2)
C3_5 C 1.000 0.89312(12) 0.2832(2)
N3_3 N 0.9051(2) 0.96586(6) 0.42919(11)
C7_3 C 0.8534(4) 0.93984(8) 0.37742(18)
C8_3 C 0.8380(4) 0.85042(12) 0.1968(2)
C9_3 C 0.8385(4) 0.87916(12) 0.2557(3)
H4_3 H 0.7313(4) 0.93384(8) 0.36584(18)
H5_3 H 0.7267(4) 0.84099(12) 0.1773(2)
H6_3 H 0.7277(4) 0.88859(12) 0.2758(3)
Cu2_3 Cu 0.750 1.000 0.500
O7_4 O 0.3468(2) 0.20609(6) 0.08197(12)
N5_6 N 0.500 0.07711(9) 0.3431(2)
C10_6 C 0.500 0.16374(10) 0.1681(2)
C11_6 C 0.500 0.19473(9) 0.1057(2)
C12_6 C 0.500 0.10688(12) 0.2832(2)
C13_4 C 0.3534(4) 0.06016(8) 0.37742(18)
C14_4 C 0.3380(4) 0.14958(12) 0.1968(2)
C15_4 C 0.3385(4) 0.12084(12) 0.2557(3)
H7_4 H 0.2313(4) 0.06616(8) 0.36584(18)
H8_4 H 0.2267(4) 0.15901(12) 0.1773(2)
H9_4 H 0.2277(4) 0.11141(12) 0.2758(3)
N6_4 N 0.5949(2) 0.03414(6) 0.42919(11)
C16_4 C 0.6466(4) 0.06016(8) 0.37742(18)
C17_4 C 0.6620(4) 0.14958(12) 0.1968(2)
C18_4 C 0.6615(4) 0.12084(12) 0.2557(3)
H10_4 H 0.7687(4) 0.06616(8) 0.36584(18)
H11_4 H 0.7733(4) 0.15901(12) 0.1773(2)
H12_4 H 0.7723(4) 0.11141(12) 0.2758(3)
N2_6 N 0.500 0.92289(9) 0.6569(2)
C1_6 C 0.500 0.83626(10) 0.8319(2)
C2_6 C 0.500 0.80527(9) 0.8943(2)
C3_6 C 0.500 0.89312(12) 0.7168(2)
C4_4 C 0.3534(4) 0.93984(8) 0.62258(18)
C5_4 C 0.3380(4) 0.85042(12) 0.8032(2)
C6_4 C 0.3385(4) 0.87916(12) 0.7443(3)
H1_4 H 0.2313(4) 0.93384(8) 0.63416(18)
H2_4 H 0.2267(4) 0.84099(12) 0.8227(2)
H3_4 H 0.2277(4) 0.88859(12) 0.7242(3)
N3_4 N 0.5949(2) 0.96586(6) 0.57081(11)
C7_4 C 0.6466(4) 0.93984(8) 0.62258(18)
C8_4 C 0.6620(4) 0.85042(12) 0.8032(2)
C9_4 C 0.6615(4) 0.87916(12) 0.7443(3)
H4_4 H 0.7687(4) 0.93384(8) 0.63416(18)
H5_4 H 0.7733(4) 0.84099(12) 0.8227(2)
H6_4 H 0.7723(4) 0.88859(12) 0.7242(3)
loop_
_geom_bond_atom_site_label_1
_geom_bond_atom_site_label_2
_geom_bond_site_symmetry_1
_geom_bond_site_symmetry_2
O1 In5 1_555 1_555
In1 O1_2 1_555 1_555
Cu1 N1 1_555 1_555
O2 In1 1_555 1_555
N1 C4 1_555 1_555
N2 C3 1_555 1_555
C1 C2 1_555 1_555
C2 O2 1_555 1_555
C3 C6 1_555 1_555
C4 N2 1_555 1_555
C5 C1 1_555 1_555
C6 C5 1_555 1_555
H1 C4 1_555 1_555
H2 C5 1_555 1_555
H3 C6 1_555 1_555
O3 C2 1_555 1_555
N3 N1 1_555 1_555
C7 N2 1_555 1_555
C8 C1 1_555 1_555
C9 C3 1_555 1_555
H4 C7 1_555 1_555
H5 C8 1_555 1_555
H6 C9 1_555 1_555
O4 C11 1_555 1_555
N4 Cu1 1_555 1_555
N5 C12 1_555 1_555
C10 C11 1_555 1_555
C11 O5 1_555 1_555
C12 C15 1_555 1_555
C13 N4 1_555 1_555
C14 C10 1_555 1_555
C15 C14 1_555 1_555
H7 C13 1_555 1_555
H8 C14 1_555 1_555
H9 C15 1_555 1_555
O5 In3_2 1_555 1_555
N6 N4 1_555 1_555
C16 N5 1_555 1_555
C17 C10 1_555 1_555
C18 C12 1_555 1_555
H10 C16 1_555 1_555
H11 C17 1_555 1_555
H12 C18 1_555 1_555
In2_2 O4 1_555 1_555
In5 O3 1_555 1_555
Cu2 N3 1_555 1_555
O9 In1 1_555 1_555
N7 Cu1 1_555 1_555
N8 Cu1 1_555 1_555
N3 C7 1_555 1_555
C8 C9 1_555 1_555
N5 C13 1_555 1_555
N6 C16 1_555 1_555
N6 Cu2 1_555 1_555
C17 C18 1_555 1_555
O6 In1_2 1_555 1_555
O7 In1_2 1_555 1_555
O8 In1_2 1_555 1_555
In5_2 O6 1_555 1_555
O1_3 In3_2 1_555 1_555
O6_2 In2 1_555 1_555
O7_2 In2 1_555 1_555
O8_2 In2 1_555 1_555
In3 O6_2 1_555 1_555
In2_2 O1_4 1_555 1_555
O9_2 In2_2 1_555 1_555
N2_2 C3_2 1_555 1_555
C1_2 C2_2 1_555 1_555
O3_2 C2_2 1_555 1_555
C7_2 N2_2 1_555 1_555
C8_2 C1_2 1_555 1_555
C9_2 C3_2 1_555 1_555
H4_2 C7_2 1_555 1_555
H5_2 C8_2 1_555 1_555
H6_2 C9_2 1_555 1_555
N5_2 C12_2 1_555 1_555
C10_2 C11_2 1_555 1_555
C11_2 O5_2 1_555 1_555
O5_2 In3 1_555 1_555
C16_2 N5_2 1_555 1_555
C17_2 C10_2 1_555 1_555
C18_2 C12_2 1_555 1_555
H10_2 C16_2 1_555 1_555
H11_2 C17_2 1_555 1_555
H12_2 C18_2 1_555 1_555
In5_2 O3_2 1_555 1_555
Cu2 N3_2 1_555 1_555
N3_2 C7_2 1_555 1_555
C8_2 C9_2 1_555 1_555
N6_2 C16_2 1_555 1_555
N6_2 Cu2 1_555 1_555
C17_2 C18_2 1_555 1_555
N7 C4_2 1_555 1_555
N2_3 C3_3 1_555 1_555
C1_3 C2_3 1_555 1_555
C2_3 O7 1_555 1_555
C3_3 C6_2 1_555 1_555
C4_2 N2_3 1_555 1_555
C5_2 C1_3 1_555 1_555
C6_2 C5_2 1_555 1_555
H1_2 C4_2 1_555 1_555
H2_2 C5_2 1_555 1_555
H3_2 C6_2 1_555 1_555
O7_2 C11_3 1_555 1_555
N5_3 C12_3 1_555 1_555
C10_3 C11_3 1_555 1_555
C12_3 C15_2 1_555 1_555
C13_2 N8 1_555 1_555
C14_2 C10_3 1_555 1_555
C15_2 C14_2 1_555 1_555
H7_2 C13_2 1_555 1_555
H8_2 C14_2 1_555 1_555
H9_2 C15_2 1_555 1_555
N5_3 C13_2 1_555 1_555
O4_2 C11_4 1_555 1_555
N4_2 Cu1_2 1_555 1_555
N5_4 C12_4 1_555 1_555
C10_4 C11_4 1_555 1_555
C12_4 C15_3 1_555 1_555
C13_3 N4_2 1_555 1_555
C14_3 C10_4 1_555 1_555
C15_3 C14_3 1_555 1_555
H7_3 C13_3 1_555 1_555
H8_3 C14_3 1_555 1_555
H9_3 C15_3 1_555 1_555
In5_2 O4_2 1_555 1_555
N8_2 Cu1_2 1_555 1_555
N5_4 C13_3 1_555 1_555
Cu1_3 N1_2 1_555 1_555
O2_2 In3 1_555 1_555
N1_2 C4_3 1_555 1_555
N2_4 C3_4 1_555 1_555
C1_4 C2_4 1_555 1_555
C2_4 O2_2 1_555 1_555
C3_4 C6_3 1_555 1_555
C4_3 N2_4 1_555 1_555
C5_3 C1_4 1_555 1_555
C6_3 C5_3 1_555 1_555
H1_3 C4_3 1_555 1_555
H2_3 C5_3 1_555 1_555
H3_3 C6_3 1_555 1_555
N7_2 Cu1_3 1_555 1_555
O7_3 In3_2 1_555 1_555
N5_5 C12_5 1_555 1_555
C10_5 C11_5 1_555 1_555
C11_5 O8 1_555 1_555
C16_3 N5_5 1_555 1_555
C17_3 C10_5 1_555 1_555
C18_3 C12_5 1_555 1_555
H10_3 C16_3 1_555 1_555
H11_3 C17_3 1_555 1_555
H12_3 C18_3 1_555 1_555
N6_3 C16_3 1_555 1_555
N6_3 Cu2_2 1_555 1_555
C17_3 C18_3 1_555 1_555
N2_5 C3_5 1_555 1_555
C1_5 C2_5 1_555 1_555
O8_2 C2_5 1_555 1_555
C7_3 N2_5 1_555 1_555
C8_3 C1_5 1_555 1_555
C9_3 C3_5 1_555 1_555
H4_3 C7_3 1_555 1_555
H5_3 C8_3 1_555 1_555
H6_3 C9_3 1_555 1_555
Cu2_3 N3_3 1_555 1_555
N3_3 C7_3 1_555 1_555
C8_3 C9_3 1_555 1_555
O7_4 In5 1_555 1_555
O7_4 C11_6 1_555 1_555
N5_6 C12_6 1_555 1_555
C10_6 C11_6 1_555 1_555
C11_6 O9 1_555 1_555
C12_6 C15_4 1_555 1_555
C13_4 N8_2 1_555 1_555
C14_4 C10_6 1_555 1_555
C15_4 C14_4 1_555 1_555
H7_4 C13_4 1_555 1_555
H8_4 C14_4 1_555 1_555
H9_4 C15_4 1_555 1_555
N6_4 N8_2 1_555 1_555
C16_4 N5_6 1_555 1_555
C17_4 C10_6 1_555 1_555
C18_4 C12_6 1_555 1_555
H10_4 C16_4 1_555 1_555
H11_4 C17_4 1_555 1_555
H12_4 C18_4 1_555 1_555
N5_6 C13_4 1_555 1_555
N6_4 C16_4 1_555 1_555
N6_4 Cu2_2 1_555 1_555
C17_4 C18_4 1_555 1_555
N7_2 C4_4 1_555 1_555
N2_6 C3_6 1_555 1_555
C1_6 C2_6 1_555 1_555
C2_6 O7_3 1_555 1_555
C3_6 C6_4 1_555 1_555
C4_4 N2_6 1_555 1_555
C5_4 C1_6 1_555 1_555
C6_4 C5_4 1_555 1_555
H1_4 C4_4 1_555 1_555
H2_4 C5_4 1_555 1_555
H3_4 C6_4 1_555 1_555
O9_2 C2_6 1_555 1_555
N3_4 N7_2 1_555 1_555
C7_4 N2_6 1_555 1_555
C8_4 C1_6 1_555 1_555
C9_4 C3_6 1_555 1_555
H4_4 C7_4 1_555 1_555
H5_4 C8_4 1_555 1_555
H6_4 C9_4 1_555 1_555
Cu2_3 N3_4 1_555 1_555
N3_4 C7_4 1_555 1_555
C8_4 C9_4 1_555 1_555

#END
