
###############################################################################
#
# This file contains modified crystal structure data generated from the
# MOF subset of the Cambridge Structural Database (CSD) v543 
# hosted by the Cambridge Crystallographic Data Centre (CCDC).
#
# This work is licensed under the Creative Commons
# Attribution-NonCommercial-ShareAlike 4.0 International License.
# To view a copy of this license, visit
# http://creativecommons.org/licenses/by-nc-sa/4.0/
# or send a letter to
# Creative Commons, PO Box 1866, Mountain View, CA 94042, USA.
#
# CIF created using the CSD Python API on 29 September 2022
# The structure has been converted into the P1 space group
# The structure has a 3D framework
# The original CSD entry KANTUS is in the triclinic crystal system
# The framework has been calculated to contain at least 10.0% void space
# The void calculation uses a probe of radius 1.32A, grid spacing 0.4
#
###############################################################################

data_KANTUS
_chemical_formula_moiety         '(C50 H46 N4 O14)n'
_symmetry_cell_setting           triclinic
_symmetry_space_group_name_H-M   'P 1'
_symmetry_Int_Tables_number      1
_space_group_name_Hall           'P 1'
loop_
_symmetry_equiv_pos_site_id
_symmetry_equiv_pos_as_xyz
1 x,y,z
_cell_length_a                   9.6585(4)
_cell_length_b                   13.1770(8)
_cell_length_c                   13.4502(6)
_cell_angle_alpha                109.003(5)
_cell_angle_beta                 90.770(4)
_cell_angle_gamma                110.333(4)
_cell_volume                     1502.12
loop_
_atom_site_label
_atom_site_type_symbol
_atom_site_fract_x
_atom_site_fract_y
_atom_site_fract_z
H19 H 0.801781 0.056292 0.092299
H22 H 0.646787 0.004858 0.210685
H20 H 0.686936 0.033083 0.996368
La6 La 0.76197(5) 0.45708(4) 0.00254(4)
O1 O 0.0541(10) 0.4522(8) 0.0983(7)
O3 O 0.4329(9) 0.5127(7) 0.8814(6)
O4 O 0.5728(9) 0.4075(8) 0.8488(6)
O7 O 0.2883(10) 0.3555(8) 0.0005(8)
H2 H 0.384129 0.358479 0.011003
O8 O 0.4443(10) 0.7389(7) 0.0237(8)
N1 N 0.1552(12) 0.1848(8) 0.4015(8)
N2 N 0.6276(19) 0.9052(14) 0.0566(15)
C2 C 0.0188(7) 0.3483(6) 0.2181(6)
C5 C 0.1091(8) 0.2441(6) 0.3424(6)
C6 C 0.2149(6) 0.3209(7) 0.3057(6)
H5 H 0.315858 0.337449 0.322721
C7 C 0.1697(7) 0.3730(6) 0.2436(6)
H6 H 0.240520 0.424444 0.219027
C8 C 0.2339(12) 0.2456(9) 0.5031(9)
C9 C 0.2223(14) 0.3502(10) 0.5651(9)
H7 H 0.163421 0.379781 0.536819
C10 C 0.2970(13) 0.4098(10) 0.6674(8)
H8 H 0.285852 0.477917 0.707940
C11 C 0.3891(12) 0.3685(9) 0.7106(8)
C12 C 0.4011(12) 0.2656(10) 0.6498(9)
H9 H 0.461722 0.237276 0.678064
C13 C 0.3244(12) 0.2033(9) 0.5471(9)
H10 H 0.333195 0.133757 0.507891
C14 C 0.4704(13) 0.4342(10) 0.8214(8)
C15 C 0.1330(14) 0.0664(9) 0.3451(9)
C20 C 0.2389(14) 0.0397(10) 0.2838(11)
H14 H 0.327001 0.098096 0.283217
C24 C 0.738(3) 0.999(2) 0.0290(18)
C25 C 0.634(3) 0.926(2) 0.1727(18)
H21 H 0.543036 0.875396 0.185813
H23 H 0.716692 0.910826 0.196339
La3 La 0.23803(5) 0.54292(4) 0.99746(4)
O11 O 0.4272(9) 0.5925(8) 0.1512(6)
O12 O 0.1596(9) 0.6951(7) 0.1129(8)
H1 H 0.258926 0.315188 0.939106
C22 C 0.5286(16) 0.8102(13) 0.9922(14)
C23 C 0.524(3) 0.789(2) 0.8740(17)
H15 H 0.464194 0.709696 0.834492
H16 H 0.623815 0.805919 0.856322
H17 H 0.482235 0.838334 0.856528
H18 H 0.796910 0.967069 0.980380
O9 O 0.1707(9) 0.6112(8) 0.8569(7)
O13 O 0.0771(9) 0.3588(7) 0.8579(7)
C16 C 0.0038(14) 0.9790(10) 0.3489(10)
C18 C 0.0811(12) 0.8374(9) 0.2221(9)
C19 C 0.2125(14) 0.9271(11) 0.2244(11)
H13 H 0.284369 0.909688 0.184314
C21 C 0.0531(13) 0.7154(10) 0.1529(9)
O2 O 0.8293(9) 0.3888(8) 0.1431(7)
C1 C 0.9655(13) 0.4000(9) 0.1482(8)
C3 C 0.9130(5) 0.2715(7) 0.2548(7)
H3 H 0.812073 0.254970 0.237769
C4 C 0.9582(7) 0.2194(7) 0.3169(7)
H4 H 0.887415 0.167976 0.341463
O6 O 0.9229(9) 0.6412(7) 0.1421(7)
H11 H 0.934959 0.996518 0.392214
C17 C 0.9784(13) 0.8648(10) 0.2871(10)
H12 H 0.891815 0.806043 0.289137
H11_2 H 0.065041 0.003482 0.607786
C17_2 C 0.0216(13) 0.1352(10) 0.7129(10)
H12_2 H 0.108185 0.193957 0.710863
C1_2 C 0.0345(13) 0.6000(9) 0.8518(8)
C3_2 C 0.0870(5) 0.7285(7) 0.7452(7)
H3_2 H 0.187927 0.745030 0.762231
C4_2 C 0.0418(7) 0.7806(7) 0.6831(7)
H4_2 H 0.112585 0.832024 0.658537
O5 O 0.8404(9) 0.3049(7) 0.8871(8)
C16_2 C 0.9962(14) 0.0210(10) 0.6511(10)
C18_2 C 0.9189(12) 0.1626(9) 0.7779(9)
C19_2 C 0.7875(14) 0.0729(11) 0.7756(11)
H13_2 H 0.715631 0.090312 0.815686
C21_2 C 0.9469(13) 0.2846(10) 0.8471(9)
H1_2 H 0.741074 0.684812 0.060894
C22_2 C 0.4714(16) 0.1898(13) 0.0078(14)
C23_2 C 0.476(3) 0.211(2) 0.1260(17)
H15_2 H 0.535806 0.290304 0.165508
H16_2 H 0.376185 0.194081 0.143678
H17_2 H 0.517765 0.161666 0.143472
H18_2 H 0.203090 0.032931 0.019620
O10 O 0.5671(9) 0.4873(7) 0.1186(6)
O1_2 O 0.9459(10) 0.5478(8) 0.9017(7)
O7_2 O 0.7117(10) 0.6445(8) 0.9995(8)
H2_2 H 0.615871 0.641521 0.988997
O8_2 O 0.5557(10) 0.2611(7) 0.9763(8)
N1_2 N 0.8448(12) 0.8152(8) 0.5985(8)
N2_2 N 0.3724(19) 0.0948(14) 0.9434(15)
C2_2 C 0.9812(7) 0.6517(6) 0.7819(6)
C5_2 C 0.8909(8) 0.7559(6) 0.6576(6)
C6_2 C 0.7851(6) 0.6791(7) 0.6943(6)
H5_2 H 0.684142 0.662551 0.677279
C7_2 C 0.8303(7) 0.6270(6) 0.7564(6)
H6_2 H 0.759480 0.575556 0.780973
C8_2 C 0.7661(12) 0.7544(9) 0.4969(9)
C9_2 C 0.7777(14) 0.6498(10) 0.4349(9)
H7_2 H 0.836579 0.620219 0.463181
C10_2 C 0.7030(13) 0.5902(10) 0.3326(8)
H8_2 H 0.714148 0.522083 0.292060
C11_2 C 0.6109(12) 0.6315(9) 0.2894(8)
C12_2 C 0.5989(12) 0.7344(10) 0.3502(9)
H9_2 H 0.538278 0.762724 0.321936
C13_2 C 0.6756(12) 0.7967(9) 0.4529(9)
H10_2 H 0.666805 0.866243 0.492109
C14_2 C 0.5296(13) 0.5658(10) 0.1786(8)
C15_2 C 0.8670(14) 0.9336(9) 0.6549(9)
C20_2 C 0.7611(14) 0.9603(10) 0.7162(11)
H14_2 H 0.672999 0.901904 0.716783
C24_2 C 0.262(3) 0.001(2) 0.9710(18)
C25_2 C 0.366(3) 0.074(2) 0.8273(18)
H21_2 H 0.456964 0.124604 0.814187
H23_2 H 0.283308 0.089174 0.803661
H20_2 H 0.313064 0.966917 0.003632
H19_2 H 0.198219 0.943708 0.907701
H22_2 H 0.353213 0.995142 0.789315
loop_
_geom_bond_atom_site_label_1
_geom_bond_atom_site_label_2
_geom_bond_site_symmetry_1
_geom_bond_site_symmetry_2
O3 C14 1_555 1_555
O4 C14 1_555 1_555
H2 O7 1_555 1_555
N1 C5 1_555 1_555
C6 C5 1_555 1_555
H5 C6 1_555 1_555
C7 C2 1_555 1_555
H6 C7 1_555 1_555
C8 N1 1_555 1_555
C9 C8 1_555 1_555
H7 C9 1_555 1_555
C10 C9 1_555 1_555
H8 C10 1_555 1_555
C11 C10 1_555 1_555
C12 C11 1_555 1_555
H9 C12 1_555 1_555
C13 C8 1_555 1_555
H10 C13 1_555 1_555
C14 C11 1_555 1_555
C15 N1 1_555 1_555
C20 C15 1_555 1_555
H14 C20 1_555 1_555
C24 N2 1_555 1_555
C25 N2 1_555 1_555
H21 C25 1_555 1_555
H23 C25 1_555 1_555
La3 O3 1_555 1_555
C6 C7 1_555 1_555
C12 C13 1_555 1_555
C23 C22 1_555 1_555
H15 C23 1_555 1_555
H16 C23 1_555 1_555
H17 C23 1_555 1_555
O9 La3 1_555 1_555
O13 La3 1_555 1_555
O12 C21 1_555 1_555
C19 C18 1_555 1_555
H13 C19 1_555 1_555
C21 C18 1_555 1_555
O2 C1 1_555 1_555
C3 H3 1_555 1_555
C4 C3 1_555 1_555
H4 C4 1_555 1_555
La6 O2 1_555 1_555
H12 C17 1_555 1_555
La6 O6 1_555 1_555
H12_2 C17_2 1_555 1_555
O9 C1_2 1_555 1_555
C3_2 H3_2 1_555 1_555
C4_2 C3_2 1_555 1_555
H4_2 C4_2 1_555 1_555
O5 C21_2 1_555 1_555
C19_2 C18_2 1_555 1_555
H13_2 C19_2 1_555 1_555
C21_2 C18_2 1_555 1_555
C23_2 C22_2 1_555 1_555
H15_2 C23_2 1_555 1_555
H16_2 C23_2 1_555 1_555
H17_2 C23_2 1_555 1_555
O10 La6 1_555 1_555
O10 C14_2 1_555 1_555
O11 C14_2 1_555 1_555
H2_2 O7_2 1_555 1_555
N1_2 C5_2 1_555 1_555
C6_2 C5_2 1_555 1_555
H5_2 C6_2 1_555 1_555
C7_2 C2_2 1_555 1_555
H6_2 C7_2 1_555 1_555
C8_2 N1_2 1_555 1_555
C9_2 C8_2 1_555 1_555
H7_2 C9_2 1_555 1_555
C10_2 C9_2 1_555 1_555
H8_2 C10_2 1_555 1_555
C11_2 C10_2 1_555 1_555
C12_2 C11_2 1_555 1_555
H9_2 C12_2 1_555 1_555
C13_2 C8_2 1_555 1_555
H10_2 C13_2 1_555 1_555
C14_2 C11_2 1_555 1_555
C15_2 N1_2 1_555 1_555
C20_2 C15_2 1_555 1_555
H14_2 C20_2 1_555 1_555
C24_2 N2_2 1_555 1_555
C25_2 N2_2 1_555 1_555
H21_2 C25_2 1_555 1_555
H23_2 C25_2 1_555 1_555
C6_2 C7_2 1_555 1_555
C12_2 C13_2 1_555 1_555

#END
