
###############################################################################
#
# This file contains modified crystal structure data generated from the
# MOF subset of the Cambridge Structural Database (CSD) v543 
# hosted by the Cambridge Crystallographic Data Centre (CCDC).
#
# This work is licensed under the Creative Commons
# Attribution-NonCommercial-ShareAlike 4.0 International License.
# To view a copy of this license, visit
# http://creativecommons.org/licenses/by-nc-sa/4.0/
# or send a letter to
# Creative Commons, PO Box 1866, Mountain View, CA 94042, USA.
#
# CIF created using the CSD Python API on 29 September 2022
# The structure has been converted into the P1 space group
# The structure has a 3D framework
# The original CSD entry KAQBOW is in the orthorhombic crystal system
# The original CSD entry KAQBOW is in a Sohncke space group
# The framework has been calculated to contain at least 10.0% void space
# The void calculation uses a probe of radius 1.32A, grid spacing 0.4
#
###############################################################################

data_KAQBOW
_chemical_formula_moiety         '(C132 H80 F24 N8 O16 Zn4)n'
_symmetry_cell_setting           triclinic
_symmetry_space_group_name_H-M   'P 1'
_symmetry_Int_Tables_number      1
_space_group_name_Hall           'P 1'
loop_
_symmetry_equiv_pos_site_id
_symmetry_equiv_pos_as_xyz
1 x,y,z
_cell_length_a                   21.923(4)
_cell_length_b                   23.594(4)
_cell_length_c                   7.3042(13)
_cell_angle_alpha                90
_cell_angle_beta                 90
_cell_angle_gamma                90
_cell_volume                     3778.11
loop_
_atom_site_label
_atom_site_type_symbol
_atom_site_fract_x
_atom_site_fract_y
_atom_site_fract_z
C9 C 0.74894(17) 0.63842(15) 0.1153(6)
H6 H 0.7897 0.6287 0.0999
C10 C 0.67253(17) 0.67423(17) 0.2911(6)
H7 H 0.6592 0.6907 0.3995
C11 C 0.63029(18) 0.66400(16) 0.1562(5)
H8 H 0.5895 0.6726 0.1765
N2 N 0.73191(13) 0.66175(11) 0.2751(4)
Zn3 Zn 0.791077(17) 0.678200(14) 0.48321(6)
C17 C 0.94420(16) 0.37743(14) 0.8651(5)
C18 C 0.89499(15) 0.34319(12) 0.9648(5)
C19 C 0.84098(17) 0.33163(14) 0.8752(5)
H13 H 0.8354 0.3453 0.7570
C20 C 0.79517(18) 0.30049(13) 0.9555(5)
H14 H 0.7595 0.2932 0.8905
C25 C 0.91701(16) 0.42851(13) 0.7633(5)
C26 C 0.93437(18) 0.44603(15) 0.5904(5)
H17 H 0.9628 0.4248 0.5252
C27 C 0.91055(16) 0.49403(13) 0.5134(6)
H18 H 0.9232 0.5048 0.3970
C28 C 0.86838(16) 0.52668(13) 0.6038(5)
C29 C 0.85123(17) 0.50949(14) 0.7779(5)
H19 H 0.8234 0.5313 0.8432
C30 C 0.87430(17) 0.46120(14) 0.8565(5)
H20 H 0.8613 0.4503 0.9725
C31 C 0.84418(16) 0.58023(14) 0.5183(7)
C32 C 0.99285(18) 0.40125(15) 0.9946(6)
C33 C 0.9761(2) 0.33447(16) 0.7367(6)
F1 F 0.94027(12) 0.32044(10) 0.5982(3)
F2 F 0.99052(12) 0.28697(9) 0.8215(3)
O3 O 0.81002(11) 0.61085(10) 0.6221(4)
O4 O 0.85711(14) 0.59289(12) 0.3640(4)
H3 H 0.9931 0.8925 0.5295
C12 C 0.96086(18) 0.80196(16) 0.3482(6)
C13 C 0.9396(2) 0.7905(2) 0.5180(7)
H9 H 0.9582 0.8073 0.6187
C14 C 0.8912(2) 0.7548(2) 0.5448(7)
H10 H 0.8779 0.7487 0.6642
C15 C 0.8820(2) 0.73792(19) 0.2443(7)
H11 H 0.8623 0.7210 0.1455
C16 C 0.9323(2) 0.7732(2) 0.2120(8)
H12 H 0.9467 0.7771 0.0929
C21 C 0.69857(18) 0.77999(13) 0.8693(5)
C22 C 0.64452(18) 0.79061(14) 0.7801(5)
H15 H 0.6388 0.7764 0.6626
C23 C 0.59893(16) 0.82165(15) 0.8606(5)
H16 H 0.5631 0.8283 0.7959
C24 C 0.74897(18) 0.74662(14) 0.7802(6)
F4 F 0.47154(10) 0.86137(10) 0.9307(3)
F6 F 0.53249(11) 0.92984(9) 0.8626(3)
N1 N 0.86201(15) 0.72829(12) 0.4101(4)
O1 O 0.79758(13) 0.74076(11) 0.8604(4)
O2 O 0.73589(11) 0.72633(10) 0.6233(4)
Zn1 Zn 0.291077(17) 0.821800(14) 0.51679(6)
C1 C 0.60446(19) 0.63167(16) 0.8420(6)
C2 C 0.6110(2) 0.5874(2) 0.7243(7)
H1 H 0.6441 0.5630 0.7375
C3 C 0.5704(3) 0.5781(2) 0.5887(8)
H2 H 0.5757 0.5475 0.5104
C4 C 0.5207(2) 0.6141(2) 0.5648(7)
H3_2 H 0.4931 0.6075 0.4705
C5 C 0.51233(19) 0.65921(16) 0.6803(6)
C6 C 0.55416(18) 0.66681(15) 0.8200(6)
H4 H 0.5484 0.6965 0.9020
C7 C 0.64752(16) 0.64159(13) 0.9951(6)
C8 C 0.70968(17) 0.62827(13) 0.9748(5)
H5 H 0.7239 0.6126 0.8660
C12_2 C 0.46086(18) 0.69804(16) 0.6518(6)
C13_2 C 0.4396(2) 0.7095(2) 0.4820(7)
H9_2 H 0.4582 0.6927 0.3813
C14_2 C 0.3912(2) 0.7452(2) 0.4552(7)
H10_2 H 0.3779 0.7513 0.3358
C15_2 C 0.3820(2) 0.76208(19) 0.7557(7)
H11_2 H 0.3623 0.7790 0.8545
C16_2 C 0.4323(2) 0.7268(2) 0.7880(8)
H12_2 H 0.4467 0.7229 0.9071
C21_2 C 0.19857(18) 0.72001(13) 0.1307(5)
C22_2 C 0.14452(18) 0.70939(14) 0.2199(5)
H15_2 H 0.1388 0.7236 0.3374
C23_2 C 0.09893(16) 0.67835(15) 0.1394(5)
H16_2 H 0.0631 0.6717 0.2041
C24_2 C 0.24897(18) 0.75338(14) 0.2198(6)
F6_2 F 0.03249(11) 0.57016(9) 0.1374(3)
N1_2 N 0.36201(15) 0.77171(12) 0.5899(4)
O1_2 O 0.29758(13) 0.75924(11) 0.1396(4)
O2_2 O 0.23589(11) 0.77367(10) 0.3767(4)
N3 N 0.23191(13) 0.83825(11) 0.7249(4)
O5 O 0.31002(11) 0.88915(10) 0.3779(4)
H18_2 H 0.4232 0.9952 0.6030
C28_2 C 0.36838(16) 0.97332(13) 0.3962(5)
C29_2 C 0.35123(17) 0.99051(14) 0.2221(5)
H19_2 H 0.3234 0.9687 0.1568
C31_2 C 0.34418(16) 0.91977(14) 0.4817(7)
O4_2 O 0.35711(14) 0.90711(12) 0.6360(4)
C9_2 C 0.24894(17) 0.86158(15) 0.8847(6)
H6_2 H 0.2897 0.8713 0.9001
C10_2 C 0.17253(17) 0.82577(17) 0.7089(6)
H7_2 H 0.1592 0.8093 0.6005
C11_2 C 0.13029(18) 0.83600(16) 0.8438(5)
H8_2 H 0.0895 0.8274 0.8235
C17_2 C 0.05580(16) 0.62257(14) 0.8651(5)
C18_2 C 0.10501(15) 0.65681(12) 0.9648(5)
C19_2 C 0.15902(17) 0.66837(14) 0.8752(5)
H13_2 H 0.1646 0.6547 0.7570
C20_2 C 0.20483(18) 0.69951(13) 0.9555(5)
H14_2 H 0.2405 0.7068 0.8905
C25_2 C 0.08299(16) 0.57149(13) 0.7633(5)
C26_2 C 0.06563(18) 0.55397(15) 0.5904(5)
H17_2 H 0.0372 0.5752 0.5252
C27_2 C 0.08945(16) 0.50597(13) 0.5134(6)
H18_3 H 0.0768 0.4952 0.3970
C28_3 C 0.13162(16) 0.47332(13) 0.6038(5)
C29_3 C 0.14877(17) 0.49051(14) 0.7779(5)
H19_3 H 0.1766 0.4687 0.8432
C30_2 C 0.12570(17) 0.53880(14) 0.8565(5)
H20_2 H 0.1387 0.5497 0.9725
C31_3 C 0.15582(16) 0.41977(14) 0.5183(7)
C32_2 C 0.00715(18) 0.59875(15) 0.9946(6)
C33_2 C 0.0239(2) 0.66553(16) 0.7367(6)
F1_2 F 0.05973(12) 0.67956(10) 0.5982(3)
F2_2 F 0.00948(12) 0.71303(9) 0.8215(3)
O3_2 O 0.18998(11) 0.38915(10) 0.6221(4)
O4_3 O 0.14289(14) 0.40711(12) 0.3640(4)
Zn2 Zn 0.208923(17) 0.321800(14) 0.48321(6)
C9_3 C 0.25106(17) 0.36158(15) 0.1153(6)
H6_3 H 0.2103 0.3713 0.0999
C10_3 C 0.32747(17) 0.32577(17) 0.2911(6)
H7_3 H 0.3408 0.3093 0.3995
C11_3 C 0.36971(18) 0.33600(16) 0.1562(5)
H8_3 H 0.4105 0.3274 0.1765
N2_2 N 0.26809(13) 0.33825(11) 0.2751(4)
H3_3 H 0.0069 0.1075 0.5295
C12_3 C 0.03914(18) 0.19804(16) 0.3482(6)
C13_3 C 0.0604(2) 0.2095(2) 0.5180(7)
H9_3 H 0.0418 0.1927 0.6187
C14_3 C 0.1088(2) 0.2452(2) 0.5448(7)
H10_3 H 0.1221 0.2513 0.6642
C15_3 C 0.1180(2) 0.26208(19) 0.2443(7)
H11_3 H 0.1377 0.2790 0.1455
C16_3 C 0.0677(2) 0.2268(2) 0.2120(8)
H12_3 H 0.0533 0.2229 0.0929
C21_3 C 0.30143(18) 0.22001(13) 0.8693(5)
C22_3 C 0.35548(18) 0.20939(14) 0.7801(5)
H15_3 H 0.3612 0.2236 0.6626
C23_3 C 0.40107(16) 0.17835(15) 0.8606(5)
H16_3 H 0.4369 0.1717 0.7959
C24_3 C 0.25103(18) 0.25338(14) 0.7802(6)
F4_2 F 0.52846(10) 0.13863(10) 0.9307(3)
F6_3 F 0.46751(11) 0.07016(9) 0.8626(3)
N1_3 N 0.13799(15) 0.27171(12) 0.4101(4)
O1_3 O 0.20242(13) 0.25924(11) 0.8604(4)
O2_3 O 0.26411(11) 0.27367(10) 0.6233(4)
F4_3 F 0.97154(10) 0.63863(10) 0.0693(3)
F3 F 0.97216(11) 0.64522(10) 0.6649(4)
F5 F 0.96994(11) 0.56278(10) 0.9123(3)
F4_4 F 0.02846(10) 0.36137(10) 0.0693(3)
F3_2 F 0.02784(11) 0.35478(10) 0.6649(4)
F5_2 F 0.03006(11) 0.43722(10) 0.9123(3)
Zn1_2 Zn 0.708923(17) 0.178200(14) 0.51679(6)
C1_2 C 0.39554(19) 0.36833(16) 0.8420(6)
C2_2 C 0.3890(2) 0.4126(2) 0.7243(7)
H1_2 H 0.3559 0.4370 0.7375
C3_2 C 0.4296(3) 0.4219(2) 0.5887(8)
H2_2 H 0.4243 0.4525 0.5104
C4_2 C 0.4793(2) 0.3859(2) 0.5648(7)
H3_4 H 0.5069 0.3925 0.4705
C5_2 C 0.48767(19) 0.34079(16) 0.6803(6)
C6_2 C 0.44584(18) 0.33319(15) 0.8200(6)
H4_2 H 0.4516 0.3035 0.9020
C7_2 C 0.35248(16) 0.35841(13) 0.9951(6)
C8_2 C 0.29032(17) 0.37173(13) 0.9748(5)
H5_2 H 0.2761 0.3874 0.8660
C12_4 C 0.53914(18) 0.30196(16) 0.6518(6)
C13_4 C 0.5604(2) 0.2905(2) 0.4820(7)
H9_4 H 0.5418 0.3073 0.3813
C14_4 C 0.6088(2) 0.2548(2) 0.4552(7)
H10_4 H 0.6221 0.2487 0.3358
C15_4 C 0.6180(2) 0.23792(19) 0.7557(7)
H11_4 H 0.6377 0.2210 0.8545
C16_4 C 0.5677(2) 0.2732(2) 0.7880(8)
H12_4 H 0.5533 0.2771 0.9071
C21_4 C 0.80143(18) 0.27999(13) 0.1307(5)
C22_4 C 0.85548(18) 0.29061(14) 0.2199(5)
H15_4 H 0.8612 0.2764 0.3374
C23_4 C 0.90107(16) 0.32165(15) 0.1394(5)
H16_4 H 0.9369 0.3283 0.2041
C24_4 C 0.75103(18) 0.24662(14) 0.2198(6)
F6_4 F 0.96751(11) 0.42984(9) 0.1374(3)
N1_4 N 0.63799(15) 0.22829(12) 0.5899(4)
O1_4 O 0.70242(13) 0.24076(11) 0.1396(4)
O2_4 O 0.76411(11) 0.22633(10) 0.3767(4)
N3_2 N 0.76809(13) 0.16175(11) 0.7249(4)
O5_2 O 0.68998(11) 0.11085(10) 0.3779(4)
C9_4 C 0.75106(17) 0.13842(15) 0.8847(6)
H6_4 H 0.7103 0.1287 0.9001
C10_4 C 0.82747(17) 0.17423(17) 0.7089(6)
H7_4 H 0.8408 0.1907 0.6005
C11_4 C 0.86971(18) 0.16400(16) 0.8438(5)
H8_4 H 0.9105 0.1726 0.8235
H18_4 H 0.5768 0.0048 0.6030
C28_4 C 0.63162(16) 0.02668(13) 0.3962(5)
C29_4 C 0.64877(17) 0.00949(14) 0.2221(5)
H19_4 H 0.6766 0.0313 0.1568
C31_4 C 0.65582(16) 0.08023(14) 0.4817(7)
O4_4 O 0.64289(14) 0.09289(12) 0.6360(4)
C17_3 C 0.44420(16) 0.12257(14) 0.1349(5)
C18_3 C 0.39499(15) 0.15681(12) 0.0352(5)
C19_3 C 0.34098(17) 0.16837(14) 0.1248(5)
H13_3 H 0.3354 0.1547 0.2430
C20_3 C 0.29517(18) 0.19951(13) 0.0445(5)
H14_3 H 0.2595 0.2068 0.1095
C25_3 C 0.41701(16) 0.07149(13) 0.2367(5)
C26_3 C 0.43437(18) 0.05397(15) 0.4096(5)
H17_3 H 0.4628 0.0752 0.4748
C27_3 C 0.41055(16) 0.00597(13) 0.4866(6)
C30_3 C 0.37430(17) 0.03880(14) 0.1435(5)
H20_3 H 0.3613 0.0497 0.0275
C32_3 C 0.49285(18) 0.09875(15) 0.0054(6)
C33_3 C 0.4761(2) 0.16553(16) 0.2633(6)
F1_3 F 0.44027(12) 0.17956(10) 0.4018(3)
F2_3 F 0.49052(12) 0.21303(9) 0.1785(3)
F3_3 F 0.52784(11) 0.14522(10) 0.3351(4)
F5_3 F 0.53006(11) 0.06278(10) 0.0877(3)
C1_3 C 0.89554(19) 0.13167(16) 0.1580(6)
C2_3 C 0.8890(2) 0.0874(2) 0.2757(7)
H1_3 H 0.8559 0.0630 0.2625
C3_3 C 0.9296(3) 0.0781(2) 0.4113(8)
H2_3 H 0.9243 0.0475 0.4896
C4_3 C 0.9793(2) 0.1141(2) 0.4352(7)
C5_3 C 0.98767(19) 0.15921(16) 0.3197(6)
C6_3 C 0.94584(18) 0.16681(15) 0.1800(6)
H4_3 H 0.9516 0.1965 0.0980
C7_3 C 0.85248(16) 0.14159(13) 0.0049(6)
C8_3 C 0.79032(17) 0.12827(13) 0.0252(5)
H5_3 H 0.7761 0.1126 0.1340
C1_4 C 0.10446(19) 0.86833(16) 0.1580(6)
C2_4 C 0.1110(2) 0.9126(2) 0.2757(7)
H1_4 H 0.1441 0.9370 0.2625
C3_4 C 0.0704(3) 0.9219(2) 0.4113(8)
H2_4 H 0.0757 0.9525 0.4896
C4_4 C 0.0207(2) 0.8859(2) 0.4352(7)
C5_4 C 0.01233(19) 0.84079(16) 0.3197(6)
C6_4 C 0.05416(18) 0.83319(15) 0.1800(6)
H4_4 H 0.0484 0.8035 0.0980
C7_4 C 0.14752(16) 0.85841(13) 0.0049(6)
C8_4 C 0.20968(17) 0.87173(13) 0.0252(5)
H5_4 H 0.2239 0.8874 0.1340
C17_4 C 0.55580(16) 0.87743(14) 0.1349(5)
C18_4 C 0.60501(15) 0.84319(12) 0.0352(5)
C19_4 C 0.65902(17) 0.83163(14) 0.1248(5)
H13_4 H 0.6646 0.8453 0.2430
C20_4 C 0.70483(18) 0.80049(13) 0.0445(5)
H14_4 H 0.7405 0.7932 0.1095
C25_4 C 0.58299(16) 0.92851(13) 0.2367(5)
C26_4 C 0.56563(18) 0.94603(15) 0.4096(5)
H17_4 H 0.5372 0.9248 0.4748
C27_4 C 0.58945(16) 0.99403(13) 0.4866(6)
C30_4 C 0.62570(17) 0.96120(14) 0.1435(5)
H20_4 H 0.6387 0.9503 0.0275
C32_4 C 0.50715(18) 0.90125(15) 0.0054(6)
C33_4 C 0.5239(2) 0.83447(16) 0.2633(6)
F1_4 F 0.55973(12) 0.82044(10) 0.4018(3)
F2_4 F 0.50948(12) 0.78697(9) 0.1785(3)
F3_4 F 0.47216(11) 0.85478(10) 0.3351(4)
F5_4 F 0.46994(11) 0.93722(10) 0.0877(3)
loop_
_geom_bond_atom_site_label_1
_geom_bond_atom_site_label_2
_geom_bond_site_symmetry_1
_geom_bond_site_symmetry_2
H6 C9 1_555 1_555
C10 H7 1_555 1_555
H8 C11 1_555 1_555
N2 C9 1_555 1_555
Zn3 N2 1_555 1_555
C10 C11 1_555 1_555
C10 N2 1_555 1_555
C17 C18 1_555 1_555
C18 C19 1_555 1_555
C19 H13 1_555 1_555
C20 C19 1_555 1_555
H14 C20 1_555 1_555
C25 C17 1_555 1_555
C26 C25 1_555 1_555
H17 C26 1_555 1_555
C27 C26 1_555 1_555
H18 C27 1_555 1_555
C28 C27 1_555 1_555
C29 C28 1_555 1_555
H19 C29 1_555 1_555
C30 C25 1_555 1_555
H20 C30 1_555 1_555
C31 C28 1_555 1_555
C32 C17 1_555 1_555
C33 C17 1_555 1_555
F1 C33 1_555 1_555
F2 C33 1_555 1_555
O3 C31 1_555 1_555
O4 C31 1_555 1_555
Zn3 O3 1_555 1_555
C29 C30 1_555 1_555
Zn3 N1 1_555 1_555
C13 C12 1_555 1_555
H9 C13 1_555 1_555
C14 C13 1_555 1_555
H10 C14 1_555 1_555
C15 H11 1_555 1_555
C16 C12 1_555 1_555
H12 C16 1_555 1_555
C22 C21 1_555 1_555
H15 C22 1_555 1_555
H16 C23 1_555 1_555
C24 C21 1_555 1_555
N1 C14 1_555 1_555
O1 C24 1_555 1_555
O2 Zn3 1_555 1_555
C15 C16 1_555 1_555
C15 N1 1_555 1_555
C22 C23 1_555 1_555
C24 O2 1_555 1_555
Zn1 N1_2 1_555 1_555
C1 C2 1_555 1_555
C2 H1 1_555 1_555
C3 C2 1_555 1_555
H2 C3 1_555 1_555
C4 C3 1_555 1_555
H3_2 C4 1_555 1_555
C5 C4 1_555 1_555
C6 C1 1_555 1_555
H4 C6 1_555 1_555
C7 C1 1_555 1_555
C8 C7 1_555 1_555
H5 C8 1_555 1_555
C12_2 C5 1_555 1_555
C13_2 C12_2 1_555 1_555
H9_2 C13_2 1_555 1_555
C14_2 C13_2 1_555 1_555
H10_2 C14_2 1_555 1_555
C15_2 H11_2 1_555 1_555
C16_2 C12_2 1_555 1_555
H12_2 C16_2 1_555 1_555
C22_2 C21_2 1_555 1_555
H15_2 C22_2 1_555 1_555
H16_2 C23_2 1_555 1_555
C24_2 C21_2 1_555 1_555
N1_2 C14_2 1_555 1_555
O1_2 C24_2 1_555 1_555
O2_2 Zn1 1_555 1_555
N3 Zn1 1_555 1_555
O5 Zn1 1_555 1_555
C5 C6 1_555 1_555
C15_2 C16_2 1_555 1_555
C15_2 N1_2 1_555 1_555
C22_2 C23_2 1_555 1_555
C24_2 O2_2 1_555 1_555
C29_2 C28_2 1_555 1_555
H19_2 C29_2 1_555 1_555
C31_2 C28_2 1_555 1_555
O5 C31_2 1_555 1_555
O4_2 C31_2 1_555 1_555
H6_2 C9_2 1_555 1_555
C10_2 H7_2 1_555 1_555
H8_2 C11_2 1_555 1_555
N3 C9_2 1_555 1_555
C10_2 C11_2 1_555 1_555
C10_2 N3 1_555 1_555
C17_2 C18_2 1_555 1_555
C18_2 C19_2 1_555 1_555
C19_2 H13_2 1_555 1_555
C20_2 C19_2 1_555 1_555
H14_2 C20_2 1_555 1_555
C25_2 C17_2 1_555 1_555
C26_2 C25_2 1_555 1_555
H17_2 C26_2 1_555 1_555
C27_2 C26_2 1_555 1_555
H18_3 C27_2 1_555 1_555
C28_3 C27_2 1_555 1_555
C29_3 C28_3 1_555 1_555
H19_3 C29_3 1_555 1_555
C30_2 C25_2 1_555 1_555
H20_2 C30_2 1_555 1_555
C31_3 C28_3 1_555 1_555
C32_2 C17_2 1_555 1_555
C33_2 C17_2 1_555 1_555
F1_2 C33_2 1_555 1_555
F2_2 C33_2 1_555 1_555
O3_2 C31_3 1_555 1_555
O4_3 C31_3 1_555 1_555
Zn2 O3_2 1_555 1_555
C29_3 C30_2 1_555 1_555
H6_3 C9_3 1_555 1_555
C10_3 H7_3 1_555 1_555
H8_3 C11_3 1_555 1_555
N2_2 C9_3 1_555 1_555
Zn2 N2_2 1_555 1_555
C10_3 C11_3 1_555 1_555
C10_3 N2_2 1_555 1_555
Zn2 N1_3 1_555 1_555
C13_3 C12_3 1_555 1_555
H9_3 C13_3 1_555 1_555
C14_3 C13_3 1_555 1_555
H10_3 C14_3 1_555 1_555
C15_3 H11_3 1_555 1_555
C16_3 C12_3 1_555 1_555
H12_3 C16_3 1_555 1_555
C22_3 C21_3 1_555 1_555
H15_3 C22_3 1_555 1_555
H16_3 C23_3 1_555 1_555
C24_3 C21_3 1_555 1_555
N1_3 C14_3 1_555 1_555
O1_3 C24_3 1_555 1_555
O2_3 Zn2 1_555 1_555
C15_3 C16_3 1_555 1_555
C15_3 N1_3 1_555 1_555
C22_3 C23_3 1_555 1_555
C24_3 O2_3 1_555 1_555
Zn1_2 N1_4 1_555 1_555
C1_2 C2_2 1_555 1_555
C2_2 H1_2 1_555 1_555
C3_2 C2_2 1_555 1_555
H2_2 C3_2 1_555 1_555
C4_2 C3_2 1_555 1_555
H3_4 C4_2 1_555 1_555
C5_2 C4_2 1_555 1_555
C6_2 C1_2 1_555 1_555
H4_2 C6_2 1_555 1_555
C7_2 C1_2 1_555 1_555
C8_2 C7_2 1_555 1_555
H5_2 C8_2 1_555 1_555
C12_4 C5_2 1_555 1_555
C13_4 C12_4 1_555 1_555
H9_4 C13_4 1_555 1_555
C14_4 C13_4 1_555 1_555
H10_4 C14_4 1_555 1_555
C15_4 H11_4 1_555 1_555
C16_4 C12_4 1_555 1_555
H12_4 C16_4 1_555 1_555
C22_4 C21_4 1_555 1_555
H15_4 C22_4 1_555 1_555
H16_4 C23_4 1_555 1_555
C24_4 C21_4 1_555 1_555
N1_4 C14_4 1_555 1_555
O1_4 C24_4 1_555 1_555
O2_4 Zn1_2 1_555 1_555
N3_2 Zn1_2 1_555 1_555
O5_2 Zn1_2 1_555 1_555
C5_2 C6_2 1_555 1_555
C15_4 C16_4 1_555 1_555
C15_4 N1_4 1_555 1_555
C22_4 C23_4 1_555 1_555
C24_4 O2_4 1_555 1_555
H6_4 C9_4 1_555 1_555
C10_4 H7_4 1_555 1_555
H8_4 C11_4 1_555 1_555
N3_2 C9_4 1_555 1_555
C10_4 C11_4 1_555 1_555
C10_4 N3_2 1_555 1_555
C29_4 C28_4 1_555 1_555
H19_4 C29_4 1_555 1_555
C31_4 C28_4 1_555 1_555
O5_2 C31_4 1_555 1_555
O4_4 C31_4 1_555 1_555
C17_3 C18_3 1_555 1_555
C18_3 C19_3 1_555 1_555
C19_3 H13_3 1_555 1_555
C20_3 C19_3 1_555 1_555
H14_3 C20_3 1_555 1_555
C25_3 C17_3 1_555 1_555
C26_3 C25_3 1_555 1_555
H17_3 C26_3 1_555 1_555
C27_3 C26_3 1_555 1_555
C30_3 C25_3 1_555 1_555
H20_3 C30_3 1_555 1_555
C32_3 C17_3 1_555 1_555
C33_3 C17_3 1_555 1_555
F1_3 C33_3 1_555 1_555
F2_3 C33_3 1_555 1_555
F3_3 C33_3 1_555 1_555
F5_3 C32_3 1_555 1_555
C1_3 C2_3 1_555 1_555
C2_3 H1_3 1_555 1_555
C3_3 C2_3 1_555 1_555
H2_3 C3_3 1_555 1_555
C4_3 C3_3 1_555 1_555
C5_3 C4_3 1_555 1_555
C6_3 C1_3 1_555 1_555
H4_3 C6_3 1_555 1_555
C7_3 C1_3 1_555 1_555
C8_3 C7_3 1_555 1_555
H5_3 C8_3 1_555 1_555
C5_3 C6_3 1_555 1_555
C1_4 C2_4 1_555 1_555
C2_4 H1_4 1_555 1_555
C3_4 C2_4 1_555 1_555
H2_4 C3_4 1_555 1_555
C4_4 C3_4 1_555 1_555
C5_4 C4_4 1_555 1_555
C6_4 C1_4 1_555 1_555
H4_4 C6_4 1_555 1_555
C7_4 C1_4 1_555 1_555
C8_4 C7_4 1_555 1_555
H5_4 C8_4 1_555 1_555
C5_4 C6_4 1_555 1_555
C17_4 C18_4 1_555 1_555
C18_4 C19_4 1_555 1_555
C19_4 H13_4 1_555 1_555
C20_4 C19_4 1_555 1_555
H14_4 C20_4 1_555 1_555
C25_4 C17_4 1_555 1_555
C26_4 C25_4 1_555 1_555
H17_4 C26_4 1_555 1_555
C27_4 C26_4 1_555 1_555
C30_4 C25_4 1_555 1_555
H20_4 C30_4 1_555 1_555
C32_4 C17_4 1_555 1_555
C33_4 C17_4 1_555 1_555
F1_4 C33_4 1_555 1_555
F2_4 C33_4 1_555 1_555
F3_4 C33_4 1_555 1_555
F5_4 C32_4 1_555 1_555

#END
