
###############################################################################
#
# This file contains modified crystal structure data generated from the
# MOF subset of the Cambridge Structural Database (CSD) v543 
# hosted by the Cambridge Crystallographic Data Centre (CCDC).
#
# This work is licensed under the Creative Commons
# Attribution-NonCommercial-ShareAlike 4.0 International License.
# To view a copy of this license, visit
# http://creativecommons.org/licenses/by-nc-sa/4.0/
# or send a letter to
# Creative Commons, PO Box 1866, Mountain View, CA 94042, USA.
#
# CIF created using the CSD Python API on 29 September 2022
# The structure has been converted into the P1 space group
# The structure has a 3D framework
# The original CSD entry KASGIX is in the monoclinic crystal system
# The framework has been calculated to contain at least 10.0% void space
# The void calculation uses a probe of radius 1.32A, grid spacing 0.4
#
###############################################################################

data_KASGIX
_chemical_formula_moiety         '(C104 H64 Co3 N24 O32)n'
_symmetry_cell_setting           triclinic
_symmetry_space_group_name_H-M   'P 1'
_symmetry_Int_Tables_number      1
_space_group_name_Hall           'P 1'
loop_
_symmetry_equiv_pos_site_id
_symmetry_equiv_pos_as_xyz
1 x,y,z
_cell_length_a                   14.129(3)
_cell_length_b                   11.967(2)
_cell_length_c                   17.318(4)
_cell_angle_alpha                90
_cell_angle_beta                 107.944(2)
_cell_angle_gamma                90
_cell_volume                     2785.73
loop_
_atom_site_label
_atom_site_type_symbol
_atom_site_fract_x
_atom_site_fract_y
_atom_site_fract_z
C33 C 0.1433(3) 0.2764(3) 0.1426(2)
H22 H 0.1238 0.3102 0.1836
C34 C 0.1637(3) 0.2442(4) 0.0248(2)
C35 C 0.2088(3) 0.1643(4) 0.0770(3)
H24 H 0.2436 0.1043 0.0649
C36 C 0.0594(3) 0.4098(3) 0.0333(2)
N9 N 0.1961(2) 0.1842(3) 0.1517(2)
N10 N 0.1211(2) 0.3158(3) 0.0663(2)
Co5 Co 0.2500 0.08646(6) 0.2500
Co2 Co 0.7500 0.91354(6) 0.7500
C14 C 0.5925(4) 0.9881(4) 0.8013(3)
C21 C 0.8567(3) 0.7236(3) 0.8574(2)
H12 H 0.8762 0.6898 0.8164
C22 C 0.8363(3) 0.7558(4) 0.9752(2)
C23 C 0.7912(3) 0.8357(4) 0.9230(3)
H14 H 0.7564 0.8957 0.9351
C24 C 0.9406(3) 0.5902(3) 0.9667(2)
N3 N 0.8039(2) 0.8158(3) 0.8483(2)
N4 N 0.8789(2) 0.6842(3) 0.9337(2)
O4 O 0.5444(3) 0.9077(3) 0.7660(2)
N14 N 0.6961(2) 0.8158(3) 0.6517(2)
C52 C 0.9075(4) 0.9881(4) 0.6987(3)
O12 O 0.9556(3) 0.9077(3) 0.7340(2)
C21_2 C 0.6433(3) 0.7236(3) 0.6426(2)
H12_2 H 0.6238 0.6898 0.6836
C22_2 C 0.6637(3) 0.7558(4) 0.5248(2)
H13 H 0.6616 0.7499 0.4707
C23_2 C 0.7088(3) 0.8357(4) 0.5770(3)
H14_2 H 0.7436 0.8957 0.5649
C24_2 C 0.5594(3) 0.5902(3) 0.5333(2)
C25 C 0.5649(4) 0.5423(5) 0.4625(3)
H15 H 0.6090 0.5706 0.4370
C26 C 0.4950(4) 0.5476(5) 0.5706(3)
H16 H 0.4914 0.5795 0.6186
N4_2 N 0.6211(2) 0.6842(3) 0.5663(2)
C33_2 C 0.3567(3) 0.2764(3) 0.3574(2)
H22_2 H 0.3762 0.3102 0.3164
C34_2 C 0.3363(3) 0.2442(4) 0.4752(2)
H23 H 0.3384 0.2501 0.5293
C35_2 C 0.2912(3) 0.1643(4) 0.4230(3)
H24_2 H 0.2564 0.1043 0.4351
C36_2 C 0.4406(3) 0.4098(3) 0.4667(2)
C37 C 0.4351(4) 0.4577(5) 0.5375(3)
H25 H 0.3910 0.4294 0.5630
C38 C 0.5050(4) 0.4524(5) 0.4294(3)
H26 H 0.5086 0.4205 0.3814
N9_2 N 0.3039(2) 0.1842(3) 0.3483(2)
N10_2 N 0.3789(2) 0.3158(3) 0.4337(2)
C52_2 C 0.0925(4) 0.0119(4) 0.3013(3)
O12_2 O 0.0444(3) 0.0923(3) 0.2660(2)
C14_2 C 0.4075(4) 0.0119(4) 0.1987(3)
O4_2 O 0.4556(3) 0.0923(3) 0.2340(2)
C26_2 C 0.0050(4) 0.5476(5) 0.9294(3)
H16_2 H 0.0086 0.5795 0.8814
H23_2 H 0.1616 0.2501 0.9707
C37_2 C 0.0649(4) 0.4577(5) 0.9625(3)
H25_2 H 0.1090 0.4294 0.9370
C28 C 0.0042(3) 0.1964(4) 0.8289(2)
H18 H 0.0653 0.1676 0.8289
C19 C 0.9729(3) 0.0134(4) 0.0702(3)
H10 H 0.9550 0.0220 0.1173
C32 C 0.9463(3) 0.0937(3) 0.0085(3)
H21 H 0.9102 0.1565 0.0142
C47 C 0.0712(4) 0.7946(4) 0.4556(3)
H30 H 0.1136 0.7483 0.4942
C48 C 0.1103(4) 0.8663(4) 0.4097(3)
H31 H 0.1783 0.8655 0.4172
C49 C 0.0509(3) 0.9379(4) 0.3540(3)
O11 O 0.1769(3) 0.9823(3) 0.2976(2)
C4 C 0.6137(4) 0.6120(5) 0.0296(3)
C5 C 0.5675(3) 0.7135(4) 0.0043(3)
C8 C 0.5301(3) 0.7916(4) 0.0559(3)
C9 C 0.4288(4) 0.7946(4) 0.0444(3)
H4 H 0.3864 0.7483 0.0058
C10 C 0.3897(4) 0.8663(4) 0.0903(3)
H5 H 0.3217 0.8655 0.0828
C11 C 0.4491(3) 0.9379(4) 0.1460(3)
C12 C 0.5495(4) 0.9412(4) 0.1545(3)
H6 H 0.5908 0.9919 0.1900
C13 C 0.5874(3) 0.8697(5) 0.1105(3)
N5 N 0.6286(6) 0.5704(6) 0.1116(3)
N6 N 0.6947(4) 0.8716(7) 0.1242(4)
O3 O 0.3231(3) 0.9823(3) 0.2024(2)
O5 O 0.6712(11) 0.4855(10) 0.1306(5)
O6 O 0.5915(6) 0.6108(5) 0.1547(3)
O7 O 0.7377(4) 0.8054(9) 0.1104(5)
O8 O 0.7375(6) 0.9505(11) 0.1480(10)
Co1 Co 0.2500 0.59480(5) 0.2500
C1 C 0.3286(4) 0.4940(4) 0.1572(3)
C2 C 0.3689(3) 0.4236(4) 0.1019(3)
C3 C 0.3541(4) 0.4564(4) 0.0223(3)
H1 H 0.3228 0.5240 0.0037
C6 C 0.4487(4) 0.2583(4) 0.0756(3)
H2 H 0.4808 0.1913 0.0949
C7 C 0.4186(4) 0.3268(4) 0.1287(3)
H3 H 0.4326 0.3062 0.1828
C15 C 0.0472(3) 0.7210(4) 0.2184(2)
H7 H 0.0268 0.6821 0.2570
C17 C 0.1341(3) 0.7734(4) 0.1429(3)
H9 H 0.1844 0.7788 0.1188
C18 C 0.0266(3) 0.9205(3) 0.0596(2)
N1 N 0.1347(2) 0.7029(3) 0.2012(2)
N2 N 0.0516(2) 0.8368(3) 0.1225(2)
O1 O 0.3447(4) 0.4644(3) 0.2280(2)
O2 O 0.2780(3) 0.5764(4) 0.1312(2)
C39 C 0.1714(4) 0.4940(4) 0.3428(3)
C40 C 0.1311(3) 0.4236(4) 0.3981(3)
C41 C 0.1459(4) 0.4564(4) 0.4777(3)
H27 H 0.1772 0.5240 0.4963
C42 C 0.1137(4) 0.3880(5) 0.5296(3)
C43 C 0.0675(3) 0.2865(4) 0.5043(3)
C44 C 0.0513(4) 0.2583(4) 0.4244(3)
H28 H 0.0192 0.1913 0.4051
C45 C 0.0814(4) 0.3268(4) 0.3713(3)
H29 H 0.0674 0.3062 0.3172
C46 C 0.0301(3) 0.2084(4) 0.5559(3)
C50 C 0.0495(4) 0.0588(4) 0.6545(3)
H32 H 0.0908 0.0081 0.6900
C51 C 0.0874(3) 0.1303(5) 0.6105(3)
N11 N 0.1286(6) 0.4296(6) 0.6116(3)
N12 N 0.1947(4) 0.1284(7) 0.6242(4)
O9 O 0.1553(4) 0.4644(3) 0.2720(2)
O10 O 0.2220(3) 0.5764(4) 0.3688(2)
O13 O 0.1712(11) 0.5145(10) 0.6306(5)
O14 O 0.0915(6) 0.3892(5) 0.6547(3)
O15 O 0.2377(4) 0.1946(9) 0.6104(5)
O16 O 0.2375(6) 0.0495(11) 0.6480(10)
N13 N 0.3653(2) 0.7029(3) 0.2988(2)
C15_2 C 0.4528(3) 0.7210(4) 0.2816(2)
H7_2 H 0.4732 0.6821 0.2430
C16 C 0.5042(3) 0.8036(4) 0.3289(2)
H8 H 0.5653 0.8324 0.3289
C17_2 C 0.3659(3) 0.7734(4) 0.3571(3)
H9_2 H 0.3156 0.7788 0.3812
C18_2 C 0.4734(3) 0.9205(3) 0.4404(2)
C20 C 0.4463(3) 0.9063(3) 0.5085(3)
H11 H 0.4102 0.8435 0.5142
N2_2 N 0.4484(2) 0.8368(3) 0.3775(2)
C31 C 0.4729(3) 0.9866(4) 0.5702(3)
H20 H 0.4550 0.9780 0.6173
C4_2 C 0.3863(4) 0.3880(5) 0.9704(3)
C5_2 C 0.4325(3) 0.2865(4) 0.9957(3)
C8_2 C 0.4699(3) 0.2084(4) 0.9441(3)
C9_2 C 0.5712(4) 0.2054(4) 0.9556(3)
H4_2 H 0.6136 0.2517 0.9942
C10_2 C 0.6103(4) 0.1337(4) 0.9097(3)
H5_2 H 0.6783 0.1345 0.9172
C11_2 C 0.5509(3) 0.0621(4) 0.8540(3)
C12_2 C 0.4505(4) 0.0588(4) 0.8455(3)
H6_2 H 0.4092 0.0081 0.8100
C13_2 C 0.4126(3) 0.1303(5) 0.8895(3)
C20_2 C 0.0537(3) 0.9063(3) 0.9915(3)
H11_2 H 0.0898 0.8435 0.9858
N5_2 N 0.3714(6) 0.4296(6) 0.8884(3)
N6_2 N 0.3053(4) 0.1284(7) 0.8758(4)
O3_2 O 0.6769(3) 0.0177(3) 0.7976(2)
O5_2 O 0.3288(11) 0.5145(10) 0.8694(5)
O6_2 O 0.4085(6) 0.3892(5) 0.8453(3)
O7_2 O 0.2623(4) 0.1946(9) 0.8896(5)
O8_2 O 0.2625(6) 0.0495(11) 0.8520(10)
C31_2 C 0.0271(3) 0.9866(4) 0.9298(3)
H20_2 H 0.0450 0.9780 0.8827
O17 O 0.8231(3) 0.0177(3) 0.7024(2)
C16_2 C 0.9958(3) 0.8036(4) 0.1711(2)
H8_2 H 0.9347 0.8324 0.1711
C47_2 C 0.9288(4) 0.2054(4) 0.5444(3)
H30_2 H 0.8864 0.2517 0.5058
C48_2 C 0.8897(4) 0.1337(4) 0.5903(3)
H31_2 H 0.8217 0.1345 0.5828
C49_2 C 0.9491(3) 0.0621(4) 0.6460(3)
H13_2 H 0.8384 0.7499 0.0293
C25_2 C 0.9351(4) 0.5423(5) 0.0375(3)
H15_2 H 0.8910 0.5706 0.0630
C38_2 C 0.9950(4) 0.4524(5) 0.0706(3)
H26_2 H 0.9914 0.4205 0.1186
C27 C 0.9528(3) 0.2790(4) 0.7816(2)
H17 H 0.9732 0.3179 0.7430
C29 C 0.8659(3) 0.2266(4) 0.8571(3)
H19 H 0.8156 0.2212 0.8812
C30 C 0.9734(3) 0.0795(3) 0.9404(2)
N7 N 0.8653(2) 0.2971(3) 0.7988(2)
N8 N 0.9484(2) 0.1632(3) 0.8775(2)
Co3 Co 0.7500 0.40520(5) 0.7500
C19_2 C 0.5271(3) 0.0134(4) 0.4298(3)
H10_2 H 0.5450 0.0220 0.3827
C27_2 C 0.5472(3) 0.2790(4) 0.7184(2)
H17_2 H 0.5268 0.3179 0.7570
C28_2 C 0.4958(3) 0.1964(4) 0.6711(2)
H18_2 H 0.4347 0.1676 0.6711
C29_2 C 0.6341(3) 0.2266(4) 0.6429(3)
H19_2 H 0.6844 0.2212 0.6188
C30_2 C 0.5266(3) 0.0795(3) 0.5596(2)
C32_2 C 0.5537(3) 0.0937(3) 0.4915(3)
H21_2 H 0.5898 0.1565 0.4858
N7_2 N 0.6347(2) 0.2971(3) 0.7012(2)
N8_2 N 0.5516(2) 0.1632(3) 0.6225(2)
C1_2 C 0.6714(4) 0.5060(4) 0.8428(3)
C2_2 C 0.6311(3) 0.5764(4) 0.8981(3)
C3_2 C 0.6459(4) 0.5436(4) 0.9777(3)
H1_2 H 0.6772 0.4760 0.9963
C6_2 C 0.5513(4) 0.7417(4) 0.9244(3)
H2_2 H 0.5192 0.8087 0.9051
C7_2 C 0.5814(4) 0.6732(4) 0.8713(3)
H3_2 H 0.5674 0.6938 0.8172
O1_2 O 0.6553(4) 0.5356(3) 0.7720(2)
O2_2 O 0.7220(3) 0.4236(4) 0.8688(2)
C39_2 C 0.8286(4) 0.5060(4) 0.6572(3)
C40_2 C 0.8689(3) 0.5764(4) 0.6019(3)
C41_2 C 0.8541(4) 0.5436(4) 0.5223(3)
H27_2 H 0.8228 0.4760 0.5037
C42_2 C 0.8863(4) 0.6120(5) 0.4704(3)
C43_2 C 0.9325(3) 0.7135(4) 0.4957(3)
C44_2 C 0.9487(4) 0.7417(4) 0.5756(3)
H28_2 H 0.9808 0.8087 0.5949
C45_2 C 0.9186(4) 0.6732(4) 0.6287(3)
H29_2 H 0.9326 0.6938 0.6828
C46_2 C 0.9699(3) 0.7916(4) 0.4441(3)
C50_2 C 0.9505(4) 0.9412(4) 0.3455(3)
H32_2 H 0.9092 0.9919 0.3100
C51_2 C 0.9126(3) 0.8697(5) 0.3895(3)
N11_2 N 0.8714(6) 0.5704(6) 0.3884(3)
N12_2 N 0.8053(4) 0.8716(7) 0.3758(4)
O9_2 O 0.8447(4) 0.5356(3) 0.7280(2)
O10_2 O 0.7780(3) 0.4236(4) 0.6312(2)
O13_2 O 0.8288(11) 0.4855(10) 0.3694(5)
O14_2 O 0.9085(6) 0.6108(5) 0.3453(3)
O15_2 O 0.7623(4) 0.8054(9) 0.3896(5)
O16_2 O 0.7625(6) 0.9505(11) 0.3520(10)
loop_
_geom_bond_atom_site_label_1
_geom_bond_atom_site_label_2
_geom_bond_site_symmetry_1
_geom_bond_site_symmetry_2
C33 H22 1_555 1_555
C35 C34 1_555 1_555
H24 C35 1_555 1_555
N9 C33 1_555 1_555
N10 C33 1_555 1_555
Co5 N9 1_555 1_555
C34 N10 1_555 1_555
C35 N9 1_555 1_555
C36 N10 1_555 1_555
Co2 N3 1_555 1_555
C21 H12 1_555 1_555
C23 C22 1_555 1_555
H14 C23 1_555 1_555
N3 C21 1_555 1_555
N4 C21 1_555 1_555
O4 C14 1_555 1_555
N14 Co2 1_555 1_555
C22 N4 1_555 1_555
C23 N3 1_555 1_555
C24 N4 1_555 1_555
O12 C52 1_555 1_555
C21_2 H12_2 1_555 1_555
C22_2 H13 1_555 1_555
C23_2 C22_2 1_555 1_555
H14_2 C23_2 1_555 1_555
C24_2 C25 1_555 1_555
C25 H15 1_555 1_555
C26 C24_2 1_555 1_555
H16 C26 1_555 1_555
N14 C21_2 1_555 1_555
N4_2 C21_2 1_555 1_555
C33_2 H22_2 1_555 1_555
C34_2 H23 1_555 1_555
C35_2 C34_2 1_555 1_555
H24_2 C35_2 1_555 1_555
C36_2 C37 1_555 1_555
C37 C26 1_555 1_555
H25 C37 1_555 1_555
C38 C25 1_555 1_555
H26 C38 1_555 1_555
N9_2 C33_2 1_555 1_555
N10_2 C33_2 1_555 1_555
Co5 N9_2 1_555 1_555
C22_2 N4_2 1_555 1_555
C23_2 N14 1_555 1_555
C24_2 N4_2 1_555 1_555
C34_2 N10_2 1_555 1_555
C35_2 N9_2 1_555 1_555
C36_2 C38 1_555 1_555
C36_2 N10_2 1_555 1_555
O12_2 C52_2 1_555 1_555
O4_2 C14_2 1_555 1_555
H16_2 C26_2 1_555 1_555
C37_2 C26_2 1_555 1_555
H25_2 C37_2 1_555 1_555
H18 C28 1_555 1_555
C19 H10 1_555 1_555
C32 C19 1_555 1_555
H21 C32 1_555 1_555
H30 C47 1_555 1_555
C48 C47 1_555 1_555
H31 C48 1_555 1_555
C49 C48 1_555 1_555
C5 C4 1_555 1_555
C8 C5 1_555 1_555
C9 C8 1_555 1_555
H4 C9 1_555 1_555
C10 C9 1_555 1_555
H5 C10 1_555 1_555
C11 C10 1_555 1_555
C12 C11 1_555 1_555
H6 C12 1_555 1_555
C13 C8 1_555 1_555
N5 C4 1_555 1_555
N6 C13 1_555 1_555
O5 N5 1_555 1_555
O6 N5 1_555 1_555
O7 N6 1_555 1_555
O8 N6 1_555 1_555
C12 C13 1_555 1_555
Co1 N1 1_555 1_555
C1 C2 1_555 1_555
C2 C3 1_555 1_555
C3 H1 1_555 1_555
H2 C6 1_555 1_555
C7 C2 1_555 1_555
H3 C7 1_555 1_555
C15 H7 1_555 1_555
C17 H9 1_555 1_555
N1 C15 1_555 1_555
O1 Co1 1_555 1_555
O2 Co1 1_555 1_555
C39 C40 1_555 1_555
C40 C41 1_555 1_555
C41 H27 1_555 1_555
C42 C41 1_555 1_555
C43 C42 1_555 1_555
C44 C43 1_555 1_555
H28 C44 1_555 1_555
C45 C40 1_555 1_555
H29 C45 1_555 1_555
C46 C43 1_555 1_555
H32 C50 1_555 1_555
C51 C46 1_555 1_555
N11 C42 1_555 1_555
N12 C51 1_555 1_555
O9 Co1 1_555 1_555
O10 Co1 1_555 1_555
O13 N11 1_555 1_555
O14 N11 1_555 1_555
O15 N12 1_555 1_555
O16 N12 1_555 1_555
N13 Co1 1_555 1_555
C1 O1 1_555 1_555
C1 O2 1_555 1_555
C6 C7 1_555 1_555
C17 N1 1_555 1_555
C17 N2 1_555 1_555
C18 N2 1_555 1_555
C39 O9 1_555 1_555
C39 O10 1_555 1_555
C44 C45 1_555 1_555
C50 C51 1_555 1_555
C15_2 H7_2 1_555 1_555
C16 C15_2 1_555 1_555
H8 C16 1_555 1_555
C17_2 H9_2 1_555 1_555
C20 C18_2 1_555 1_555
H11 C20 1_555 1_555
N13 C15_2 1_555 1_555
N2_2 C16 1_555 1_555
C31 C20 1_555 1_555
H20 C31 1_555 1_555
C17_2 N13 1_555 1_555
C17_2 N2_2 1_555 1_555
C18_2 N2_2 1_555 1_555
C5_2 C4_2 1_555 1_555
C8_2 C5_2 1_555 1_555
C9_2 C8_2 1_555 1_555
H4_2 C9_2 1_555 1_555
C10_2 C9_2 1_555 1_555
H5_2 C10_2 1_555 1_555
C11_2 C10_2 1_555 1_555
C12_2 C11_2 1_555 1_555
H6_2 C12_2 1_555 1_555
C13_2 C8_2 1_555 1_555
H11_2 C20_2 1_555 1_555
N5_2 C4_2 1_555 1_555
N6_2 C13_2 1_555 1_555
O5_2 N5_2 1_555 1_555
O6_2 N5_2 1_555 1_555
O7_2 N6_2 1_555 1_555
O8_2 N6_2 1_555 1_555
C31_2 C20_2 1_555 1_555
H20_2 C31_2 1_555 1_555
C12_2 C13_2 1_555 1_555
H8_2 C16_2 1_555 1_555
H30_2 C47_2 1_555 1_555
C48_2 C47_2 1_555 1_555
H31_2 C48_2 1_555 1_555
C49_2 C48_2 1_555 1_555
C25_2 H15_2 1_555 1_555
C38_2 C25_2 1_555 1_555
H26_2 C38_2 1_555 1_555
C27 H17 1_555 1_555
C29 H19 1_555 1_555
N7 C27 1_555 1_555
Co3 N7 1_555 1_555
C29 N7 1_555 1_555
C29 N8 1_555 1_555
C30 N8 1_555 1_555
C19_2 H10_2 1_555 1_555
C27_2 H17_2 1_555 1_555
C28_2 C27_2 1_555 1_555
H18_2 C28_2 1_555 1_555
C29_2 H19_2 1_555 1_555
C32_2 C19_2 1_555 1_555
H21_2 C32_2 1_555 1_555
N7_2 C27_2 1_555 1_555
N8_2 C28_2 1_555 1_555
Co3 N7_2 1_555 1_555
C29_2 N7_2 1_555 1_555
C29_2 N8_2 1_555 1_555
C30_2 C32_2 1_555 1_555
C30_2 N8_2 1_555 1_555
C1_2 C2_2 1_555 1_555
C2_2 C3_2 1_555 1_555
C3_2 H1_2 1_555 1_555
H2_2 C6_2 1_555 1_555
C7_2 C2_2 1_555 1_555
H3_2 C7_2 1_555 1_555
O1_2 Co3 1_555 1_555
O2_2 Co3 1_555 1_555
C39_2 C40_2 1_555 1_555
C40_2 C41_2 1_555 1_555
C41_2 H27_2 1_555 1_555
C42_2 C41_2 1_555 1_555
C43_2 C42_2 1_555 1_555
C44_2 C43_2 1_555 1_555
H28_2 C44_2 1_555 1_555
C45_2 C40_2 1_555 1_555
H29_2 C45_2 1_555 1_555
C46_2 C43_2 1_555 1_555
H32_2 C50_2 1_555 1_555
C51_2 C46_2 1_555 1_555
N11_2 C42_2 1_555 1_555
N12_2 C51_2 1_555 1_555
O9_2 Co3 1_555 1_555
O10_2 Co3 1_555 1_555
O13_2 N11_2 1_555 1_555
O14_2 N11_2 1_555 1_555
O15_2 N12_2 1_555 1_555
O16_2 N12_2 1_555 1_555
C1_2 O1_2 1_555 1_555
C1_2 O2_2 1_555 1_555
C6_2 C7_2 1_555 1_555
C39_2 O9_2 1_555 1_555
C39_2 O10_2 1_555 1_555
C44_2 C45_2 1_555 1_555
C50_2 C51_2 1_555 1_555

#END
