
###############################################################################
#
# This file contains modified crystal structure data generated from the
# MOF subset of the Cambridge Structural Database (CSD) v543 
# hosted by the Cambridge Crystallographic Data Centre (CCDC).
#
# This work is licensed under the Creative Commons
# Attribution-NonCommercial-ShareAlike 4.0 International License.
# To view a copy of this license, visit
# http://creativecommons.org/licenses/by-nc-sa/4.0/
# or send a letter to
# Creative Commons, PO Box 1866, Mountain View, CA 94042, USA.
#
# CIF created using the CSD Python API on 29 September 2022
# The structure has been converted into the P1 space group
# The structure has a 3D framework
# The original CSD entry KASHUK is in the monoclinic crystal system
# The framework has been calculated to contain at least 10.0% void space
# The void calculation uses a probe of radius 1.32A, grid spacing 0.4
# H atom positions have been added when not included in the experimental data
#
###############################################################################

data_KASHUK
_chemical_formula_moiety         '(C48 H64 Np20 O109)n'
_symmetry_cell_setting           triclinic
_symmetry_space_group_name_H-M   'P 1'
_symmetry_Int_Tables_number      1
_space_group_name_Hall           'P 1'
loop_
_symmetry_equiv_pos_site_id
_symmetry_equiv_pos_as_xyz
1 x,y,z
_cell_length_a                   12.9650(3)
_cell_length_b                   12.9796(3)
_cell_length_c                   20.1038(5)
_cell_angle_alpha                90
_cell_angle_beta                 95.1696(8)
_cell_angle_gamma                90
_cell_volume                     3369.32
loop_
_atom_site_label
_atom_site_type_symbol
_atom_site_fract_x
_atom_site_fract_y
_atom_site_fract_z
Np15 Np 0.01119(4) 0.69678(4) 0.37210(2)
O59 O 0.0631(6) 0.3234(6) 0.3480(4)
Np3 Np 0.19840(3) 0.28560(3) 0.33833(3)
Np8 Np 0.50905(4) 0.17623(4) 0.33237(2)
O3 O 0.4622(6) 0.0528(6) 0.3608(4)
O6 O 0.4971(5) 0.2187(5) 0.4595(3)
O9 O 0.4757(5) 0.3465(5) 0.7559(3)
O10 O 0.1686(5) 0.2862(5) 0.2128(3)
O14 O 0.3347(6) 0.2452(6) 0.3355(4)
O15 O 0.3324(6) 0.5441(5) 0.4224(3)
O16 O 0.3137(5) 0.5132(5) 0.7336(3)
O20 O 0.6374(5) 0.3624(5) 0.7213(3)
O21 O 0.1491(6) 0.1132(5) 0.3024(3)
O22 O 0.0183(6) 0.0125(6) 0.1864(4)
O23 O 0.1750(6) 0.1875(5) 0.4443(3)
O28 O 0.4191(6) 0.1713(6) 0.2178(3)
O31 O 0.5001(5) 0.3726(5) 0.4126(3)
O32 O 0.4654(6) 0.5808(6) 0.7272(3)
O40 O 0.2613(5) 0.3875(5) 0.4312(3)
C1 C 0.3902(7) 0.5246(7) 0.7024(4)
O41 O 0.6797(5) 0.3089(5) 0.5590(3)
O45 O 0.5596(5) 0.2947(5) 0.2956(3)
O46 O 0.1892(5) 0.5506(5) 0.5360(3)
O47 O 0.2844(5) 0.6403(5) 0.6138(3)
O48 O 0.5998(5) 0.1875(5) 0.6155(3)
C6 C 0.5146(7) 0.3436(7) 0.5872(4)
C10 C 0.4900(8) 0.3160(8) 0.4605(5)
C11 C 0.2677(8) 0.5669(8) 0.5744(5)
C12 C 0.5372(8) 0.3641(8) 0.7137(5)
C13 C 0.6037(7) 0.2716(7) 0.5884(4)
C16 C 0.4610(8) 0.3666(8) 0.5234(5)
C17 C 0.4858(7) 0.3934(7) 0.6433(4)
C18 C 0.4087(7) 0.4656(7) 0.6389(4)
C20 C 0.3202(8) 0.4562(8) 0.4528(5)
C22 C 0.3756(7) 0.4401(7) 0.5192(5)
C24 C 0.3535(7) 0.4886(7) 0.5773(4)
Np12 Np 0.27940(4) 0.58770(4) 0.30416(2)
Np13 Np 0.77940(4) 0.41230(4) 0.80416(2)
Np17 Np 0.51119(4) 0.30322(4) 0.87210(2)
Np21 Np 0.80141(4) 0.09073(4) 0.34236(2)
Np25 Np 0.39281(4) 0.60560(4) 0.83497(2)
Np26 Np 0.58494(4) 0.47520(4) 0.33870(2)
O68 O 0.6044(5) 0.0697(5) 0.2642(3)
O72 O 0.2263(6) 0.4564(6) 0.2952(4)
O75 O 0.6871(6) 0.1438(6) 0.3811(3)
H5 H 0.146672 0.356083 0.197184
H6 H 0.233751 0.267107 0.193418
H8 H 0.69447 0.263261 0.521368
H19 H 0.343139 0.167149 0.220614
H20 H 0.435679 0.234763 0.193317
H21 H 0.117441 0.137363 0.435933
H22 H 0.239912 0.150061 0.458902
H25 H 0.23121 0.640807 0.646381
H26 H 0.398855 0.000427513 0.489524
Np1 Np 0.39955(4) 0.87538(4) 0.36814(2)
Np5 Np 0.09828(4) 0.97871(4) 0.30194(2)
Np6 Np 0.69516(3) 0.78133(3) 0.33544(3)
Np9 Np 0.89281(4) 0.39440(4) 0.33497(2)
O2 O 0.9456(6) 0.5196(6) 0.3632(4)
O4 O 0.4528(6) 0.5203(6) 0.3125(4)
O5 O 0.7199(5) 0.4334(5) 0.3621(3)
O7 O 0.7097(6) 0.7609(7) 0.4575(5)
O8 O 0.7329(5) 0.9184(6) 0.3391(4)
O13 O 0.9026(5) 0.3572(5) 0.4572(3)
O17 O 0.2133(5) 0.9208(5) 0.2132(3)
O18 O 0.3404(6) 0.7564(6) 0.4575(4)
O24 O 0.1461(6) 0.6492(6) 0.3704(3)
O27 O 0.2668(6) 0.9274(5) 0.3566(4)
O29 O 0.5314(6) 0.8250(5) 0.3806(3)
O30 O 0.7812(6) 0.7445(6) 0.2278(3)
O34 O 0.3326(6) 0.5746(5) 0.1876(4)
O36 O 0.6539(6) 0.6451(6) 0.3250(3)
O49 O 0.8448(5) 0.2631(5) 0.3091(3)
O53 O 0.6099(6) 0.4745(6) 0.2175(4)
O54 O 0.4419(5) 0.9390(5) 0.4819(3)
O55 O 0.0019(6) 0.6330(6) 0.4875(4)
O56 O 0.5962(8) 0.5619(8) 0.4503(5)
O57 O 0.0492(6) 0.8446(5) 0.3041(3)
O58 O 0.3353(6) 0.7198(6) 0.3132(4)
O63 O 0.0845(5) 0.9945(5) 0.4195(3)
O65 O 0.8137(5) 0.4868(5) 0.2336(3)
O66 O 0.0637(5) 0.8342(5) 0.4552(3)
O67 O 0.1374(5) 0.6376(5) 0.2213(3)
O71 O 0.9654(6) 0.4192(6) 0.2272(3)
O73 O 0.5801(6) 0.8341(6) 0.2426(4)
O78 O 0.8752(6) 0.7366(6) 0.3718(4)
O79 O 0.4245(5) 0.9070(5) 0.2498(3)
H1 H 0.858965 0.40732 0.479305
H2 H 0.877188 0.286233 0.464326
H3 H 0.661175 0.80906 0.477075
H4 H 0.692084 0.68896 0.468904
H9 H 0.287075 0.930864 0.229826
H10 H 0.200591 0.846762 0.203073
H11 H 0.788943 0.66894 0.222322
H12 H 0.737436 0.772714 0.188955
H13 H 0.00983013 0.946432 0.161604
H15 H 0.349025 0.501766 0.177729
H16 H 0.275084 0.598826 0.155441
H17 H 0.279475 0.787017 0.476715
H18 H 0.321058 0.688448 0.437385
H23 H 0.0564263 0.666937 0.517746
H27 H 0.427724 0.884249 0.514352
H28 H 0.599057 0.545115 0.199187
H29 H 0.681346 0.45139 0.2111
H31 H 0.540566 0.535308 0.476531
H32 H 0.66475 0.547381 0.474615
O11 O 0.7457(6) 0.0674(6) 0.2130(4)
O33 O 0.9218(6) 0.0396(6) 0.3128(4)
O39 O 0.6451(5) 0.2317(5) 0.1143(3)
O43 O 0.7600(5) 0.1417(5) 0.0581(3)
C5 C 0.6087(8) 0.0614(7) 0.0883(5)
C8 C 0.6808(7) 0.1498(7) 0.0852(4)
C14 C 0.6515(7) 0.0563(7) 0.2117(4)
C21 C 0.5563(8) 0.0277(8) 0.0314(5)
C23 C 0.5921(8) 0.0180(7) 0.1489(5)
O69 O 0.8513(5) 0.0006(5) 0.4491(3)
O74 O 0.9214(5) 0.1566(5) 0.4402(3)
H7 H 0.63451 0.288382 0.081216
H14 H 0.94949 0.0452845 0.188606
O12 O 0.5845(5) 0.0055(5) 0.9195(3)
O19 O 0.5637(5) 0.1658(5) 0.9552(3)
C3 C 0.5696(8) 0.0758(7) 0.9628(4)
Np18 Np 0.59828(4) 0.02129(4) 0.80194(2)
C2 C 0.5176(8) 0.9377(7) 0.1530(5)
O44 O 0.4029(5) 0.7504(5) 0.1399(3)
C4 C 0.5052(8) 0.8899(7) 0.2221(4)
C7 C 0.4638(7) 0.9057(7) 0.0962(4)
C9 C 0.4719(7) 0.9499(7) 0.0360(4)
O52 O 0.3082(5) 0.8235(5) 0.0563(3)
C15 C 0.3859(7) 0.8180(7) 0.0975(5)
O62 O 0.9757(5) 0.6535(5) 0.2559(3)
H24 H 0.932762 0.649218 0.502409
H30 H 0.244855 0.828536 0.0804372
O26 O 0.3513(5) 0.9994(5) 0.9491(3)
O38 O 0.4214(5) 0.8434(5) 0.9402(3)
C19 C 0.4102(8) 0.9259(8) 0.9714(4)
Np22 Np 0.30141(4) 0.90927(4) 0.84236(2)
Np6_2 Np 0.19516(3) 0.21867(3) 0.83544(3)
Np10 Np 0.08494(4) 0.52480(4) 0.83870(2)
O2_2 O 0.4456(6) 0.4804(6) 0.8632(4)
O5_2 O 0.2199(5) 0.5666(5) 0.8621(3)
O7_2 O 0.2097(6) 0.2391(7) 0.9575(5)
O8_2 O 0.2329(5) 0.0816(6) 0.8391(4)
O13_2 O 0.4026(5) 0.6428(5) 0.9572(3)
O29_2 O 0.0314(6) 0.1750(5) 0.8806(3)
O30_2 O 0.2812(6) 0.2555(6) 0.7278(3)
O36_2 O 0.1539(6) 0.3549(6) 0.8250(3)
O49_2 O 0.3448(5) 0.7369(5) 0.8091(3)
O53_2 O 0.1099(6) 0.5255(6) 0.7175(4)
O56_2 O 0.0962(8) 0.4381(8) 0.9503(5)
O59_2 O 0.5631(6) 0.6766(6) 0.8480(4)
O70 O 0.0001(5) 0.6274(5) 0.9126(3)
O73_2 O 0.0801(6) 0.1659(6) 0.7426(4)
O76 O 0.0596(5) 0.7053(5) 0.7956(3)
O78_2 O 0.3752(6) 0.2634(6) 0.8718(4)
H1_2 H 0.358965 0.59268 0.979305
H2_2 H 0.377188 0.713767 0.964326
H3_2 H 0.161175 0.19094 0.977075
H4_2 H 0.192084 0.31104 0.968904
H11_2 H 0.288943 0.33106 0.722322
H12_2 H 0.237436 0.227286 0.688955
H28_2 H 0.0990569 0.454885 0.699187
H29_2 H 0.181346 0.54861 0.7111
H31_2 H 0.0405659 0.464692 0.976531
H32_2 H 0.16475 0.452619 0.974615
O41_2 O 0.1797(5) 0.6911(5) 0.0590(3)
O48_2 O 0.0998(5) 0.8125(5) 0.1155(3)
C6_2 C 0.0146(7) 0.6564(7) 0.0872(4)
C12_2 C 0.0372(8) 0.6359(8) 0.2137(5)
C13_2 C 0.1037(7) 0.7284(7) 0.0884(4)
H8_2 H 0.19447 0.736739 0.0213681
Np8_2 Np 0.00905(4) 0.82377(4) 0.83237(2)
O68_2 O 0.1044(5) 0.9303(5) 0.7642(3)
O75_2 O 0.1871(6) 0.8562(6) 0.8811(3)
Np1_2 Np 0.89955(4) 0.12462(4) 0.86814(2)
O4_2 O 0.9528(6) 0.4797(6) 0.8125(4)
O17_2 O 0.7133(5) 0.0792(5) 0.7132(3)
O18_2 O 0.8404(6) 0.2436(6) 0.9575(4)
O24_2 O 0.6461(6) 0.3508(6) 0.8704(3)
O27_2 O 0.7668(6) 0.0726(5) 0.8566(4)
O34_2 O 0.8326(6) 0.4254(5) 0.6876(4)
O35 O 0.7263(6) 0.5436(6) 0.7952(4)
C2_2 C 0.0176(8) 0.0623(7) 0.6530(5)
C4_2 C 0.0052(8) 0.1101(7) 0.7221(4)
O54_2 O 0.9419(5) 0.0610(5) 0.9819(3)
O55_2 O 0.5019(6) 0.3670(6) 0.9875(4)
O57_2 O 0.5492(6) 0.1554(5) 0.8041(3)
O58_2 O 0.8353(6) 0.2802(6) 0.8132(4)
Np14 Np 0.69840(3) 0.71440(3) 0.83833(3)
O64 O 0.8324(6) 0.4559(5) 0.9224(3)
O79_2 O 0.9245(5) 0.0930(5) 0.7498(3)
H9_2 H 0.787075 0.0691361 0.729826
H10_2 H 0.700591 0.153238 0.703073
H13_2 H 0.50983 0.0535677 0.661604
H15_2 H 0.849025 0.498234 0.677729
H16_2 H 0.775084 0.401174 0.655441
H17_2 H 0.779475 0.212983 0.976715
H18_2 H 0.821058 0.311552 0.937385
C1_2 C 0.8902(7) 0.4754(7) 0.2024(4)
O46_2 O 0.6892(5) 0.4494(5) 0.0360(3)
O47_2 O 0.7844(5) 0.3597(5) 0.1138(3)
C11_2 C 0.7677(8) 0.4331(8) 0.0744(5)
C16_2 C 0.9610(8) 0.6334(8) 0.0234(5)
C17_2 C 0.9858(7) 0.6066(7) 0.1433(4)
C18_2 C 0.9087(7) 0.5344(7) 0.1389(4)
C22_2 C 0.8756(7) 0.5599(7) 0.0192(5)
C24_2 C 0.8535(7) 0.5114(7) 0.0773(4)
H25_2 H 0.73121 0.359193 0.146381
O3_2 O 0.9622(6) 0.9472(6) 0.8608(4)
O6_2 O 0.9971(5) 0.7813(5) 0.9595(3)
O10_2 O 0.6686(5) 0.7138(5) 0.7128(3)
O11_2 O 0.2457(6) 0.9326(6) 0.7130(4)
O14_2 O 0.8347(6) 0.7548(6) 0.8355(4)
O21_2 O 0.6491(6) 0.8868(5) 0.8024(3)
O22_2 O 0.5183(6) 0.9875(6) 0.6864(4)
O23_2 O 0.6750(6) 0.8125(5) 0.9443(3)
O28_2 O 0.9191(6) 0.8287(6) 0.7178(3)
O33_2 O 0.4218(6) 0.9604(6) 0.8128(4)
O39_2 O 0.1451(5) 0.7683(5) 0.6143(3)
O40_2 O 0.7613(5) 0.6125(5) 0.9312(3)
O43_2 O 0.2600(5) 0.8583(5) 0.5581(3)
C3_2 C 0.0696(8) 0.9242(7) 0.4628(4)
C5_2 C 0.1087(8) 0.9386(7) 0.5883(5)
C8_2 C 0.1808(7) 0.8502(7) 0.5852(4)
C10_2 C 0.9900(8) 0.6840(8) 0.9605(5)
C14_2 C 0.1515(7) 0.9437(7) 0.7117(4)
C20_2 C 0.8202(8) 0.5438(8) 0.9528(5)
C21_2 C 0.0563(8) 0.9723(8) 0.5314(5)
C23_2 C 0.0921(8) 0.9820(7) 0.6489(5)
H5_2 H 0.646672 0.643917 0.697184
H6_2 H 0.733751 0.732893 0.693418
H7_2 H 0.13451 0.711618 0.581216
H14_2 H 0.44949 0.954715 0.688606
H19_2 H 0.843139 0.832851 0.720614
H20_2 H 0.935679 0.765237 0.693317
H21_2 H 0.617441 0.862637 0.935933
H22_2 H 0.739912 0.849939 0.958902
H26_2 H 0.898855 0.999572 0.989524
O44_2 O 0.9029(5) 0.2496(5) 0.6399(3)
C7_2 C 0.9638(7) 0.0943(7) 0.5962(4)
C9_2 C 0.9719(7) 0.0501(7) 0.5360(4)
O52_2 O 0.8082(5) 0.1765(5) 0.5563(3)
C15_2 C 0.8859(7) 0.1820(7) 0.5975(5)
C19_2 C 0.9102(8) 0.0741(8) 0.4714(4)
H30_2 H 0.744855 0.171464 0.580437
H23_2 H 0.556426 0.333063 0.0177455
H24_2 H 0.432762 0.350782 0.00240886
H27_2 H 0.927724 0.115751 0.0143523
loop_
_geom_bond_atom_site_label_1
_geom_bond_atom_site_label_2
_geom_bond_site_symmetry_1
_geom_bond_site_symmetry_2
Np3 O59 1_555 1_555
Np8 O3 1_555 1_555
O6 Np8 1_555 1_555
O9 C12 1_555 1_555
O10 Np3 1_555 1_555
O14 Np3 1_555 1_555
O15 C20 1_555 1_555
O16 C1 1_555 1_555
O20 C12 1_555 1_555
O21 Np3 1_555 1_555
O23 Np3 1_555 1_555
O28 Np8 1_555 1_555
O31 C10 1_555 1_555
O32 C1 1_555 1_555
O40 Np3 1_555 1_555
C1 C18 1_555 1_555
O41 C13 1_555 1_555
O45 Np8 1_555 1_555
O46 C11 1_555 1_555
O47 C11 1_555 1_555
O48 C13 1_555 1_555
C6 C13 1_555 1_555
C10 O6 1_555 1_555
C11 C24 1_555 1_555
C12 C17 1_555 1_555
C16 C6 1_555 1_555
C17 C6 1_555 1_555
C18 C17 1_555 1_555
C20 O40 1_555 1_555
C22 C16 1_555 1_555
C24 C18 1_555 1_555
Np12 O15 1_555 1_555
Np13 O20 1_555 1_555
Np17 O9 1_555 1_555
Np25 O16 1_555 1_555
Np26 O31 1_555 1_555
O68 Np8 1_555 1_555
O72 Np3 1_555 1_555
O75 Np8 1_555 1_555
Np8 O14 1_555 1_555
O32 Np25 1_555 1_555
O45 Np26 1_555 1_555
C10 C16 1_555 1_555
C20 C22 1_555 1_555
C22 C24 1_555 1_555
Np12 O72 1_555 1_555
Np21 O75 1_555 1_555
O10 H5 1_555 1_555
O10 H6 1_555 1_555
O41 H8 1_555 1_555
O28 H19 1_555 1_555
O28 H20 1_555 1_555
O23 H21 1_555 1_555
O23 H22 1_555 1_555
O47 H25 1_555 1_555
Np12 O4 1_555 1_555
Np15 O24 1_555 1_555
Np5 O17 1_555 1_555
Np6 O7 1_555 1_555
Np9 O2 1_555 1_555
Np26 O4 1_555 1_555
O5 Np9 1_555 1_555
O8 Np6 1_555 1_555
O13 Np9 1_555 1_555
O18 Np1 1_555 1_555
O24 Np12 1_555 1_555
O27 Np1 1_555 1_555
O29 Np1 1_555 1_555
O30 Np6 1_555 1_555
O34 Np12 1_555 1_555
O36 Np6 1_555 1_555
O49 Np9 1_555 1_555
O53 Np26 1_555 1_555
O54 Np1 1_555 1_555
O55 Np15 1_555 1_555
O56 Np26 1_555 1_555
O57 Np15 1_555 1_555
O58 Np1 1_555 1_555
Np21 O49 1_555 1_555
O63 Np5 1_555 1_555
O65 Np9 1_555 1_555
O66 Np15 1_555 1_555
O67 Np12 1_555 1_555
O71 Np9 1_555 1_555
O73 Np6 1_555 1_555
O78 Np6 1_555 1_555
O79 Np1 1_555 1_555
Np12 O58 1_555 1_555
Np5 O27 1_555 1_555
Np5 O57 1_555 1_555
Np6 O29 1_555 1_555
Np26 O5 1_555 1_555
Np26 O36 1_555 1_555
O13 H1 1_555 1_555
O13 H2 1_555 1_555
O7 H3 1_555 1_555
O7 H4 1_555 1_555
O17 H9 1_555 1_555
O17 H10 1_555 1_555
O30 H11 1_555 1_555
O30 H12 1_555 1_555
O34 H15 1_555 1_555
O34 H16 1_555 1_555
O18 H17 1_555 1_555
O18 H18 1_555 1_555
O55 H23 1_555 1_555
O54 H27 1_555 1_555
O53 H28 1_555 1_555
O53 H29 1_555 1_555
O56 H31 1_555 1_555
O56 H32 1_555 1_555
Np21 O11 1_555 1_555
O11 C14 1_555 1_555
O68 C14 1_555 1_555
O39 C8 1_555 1_555
O43 C8 1_555 1_555
C5 C8 1_555 1_555
C14 C23 1_555 1_555
C21 C5 1_555 1_555
O69 Np21 1_555 1_555
O74 Np21 1_555 1_555
Np21 O33 1_555 1_555
C5 C23 1_555 1_555
O39 H7 1_555 1_555
O12 C3 1_555 1_555
O19 C3 1_555 1_555
Np17 O19 1_555 1_555
Np18 O12 1_555 1_555
O73 C4 1_555 1_555
C2 C4 1_555 1_555
O44 C15 1_555 1_555
C4 O79 1_555 1_555
C7 C2 1_555 1_555
C9 C7 1_555 1_555
O52 C15 1_555 1_555
C15 C7 1_555 1_555
O52 H30 1_555 1_555
O26 C19 1_555 1_555
O38 C19 1_555 1_555
Np22 O26 1_555 1_555
O38 Np22 1_555 1_555
Np6_2 O7_2 1_555 1_555
Np25 O2_2 1_555 1_555
O2_2 Np17 1_555 1_555
O5_2 Np25 1_555 1_555
O8_2 Np6_2 1_555 1_555
O13_2 Np25 1_555 1_555
O30_2 Np6_2 1_555 1_555
O36_2 Np6_2 1_555 1_555
O49_2 Np25 1_555 1_555
O53_2 Np10 1_555 1_555
O56_2 Np10 1_555 1_555
Np17 O78_2 1_555 1_555
Np22 O49_2 1_555 1_555
O59_2 Np25 1_555 1_555
O70 Np10 1_555 1_555
O73_2 Np6_2 1_555 1_555
O76 Np10 1_555 1_555
O78_2 Np6_2 1_555 1_555
Np6_2 O29_2 1_555 1_555
Np10 O5_2 1_555 1_555
Np10 O36_2 1_555 1_555
O13_2 H1_2 1_555 1_555
O13_2 H2_2 1_555 1_555
O7_2 H3_2 1_555 1_555
O7_2 H4_2 1_555 1_555
O30_2 H11_2 1_555 1_555
O30_2 H12_2 1_555 1_555
O53_2 H28_2 1_555 1_555
O53_2 H29_2 1_555 1_555
O56_2 H31_2 1_555 1_555
O56_2 H32_2 1_555 1_555
O67 C12_2 1_555 1_555
O41_2 C13_2 1_555 1_555
O48_2 C13_2 1_555 1_555
C6_2 C13_2 1_555 1_555
O41_2 H8_2 1_555 1_555
O76 Np8_2 1_555 1_555
O68_2 Np8_2 1_555 1_555
O75_2 Np8_2 1_555 1_555
Np22 O75_2 1_555 1_555
Np13 O4_2 1_555 1_555
Np17 O24_2 1_555 1_555
Np18 O17_2 1_555 1_555
O18_2 Np1_2 1_555 1_555
O24_2 Np13 1_555 1_555
O27_2 Np1_2 1_555 1_555
O34_2 Np13 1_555 1_555
O35 Np13 1_555 1_555
O73_2 C4_2 1_555 1_555
C2_2 C4_2 1_555 1_555
O54_2 Np1_2 1_555 1_555
O55_2 Np17 1_555 1_555
O57_2 Np17 1_555 1_555
O58_2 Np1_2 1_555 1_555
Np14 O35 1_555 1_555
O64 Np13 1_555 1_555
O79_2 Np1_2 1_555 1_555
Np13 O58_2 1_555 1_555
Np18 O27_2 1_555 1_555
Np18 O57_2 1_555 1_555
O17_2 H9_2 1_555 1_555
O17_2 H10_2 1_555 1_555
O34_2 H15_2 1_555 1_555
O34_2 H16_2 1_555 1_555
O18_2 H17_2 1_555 1_555
O18_2 H18_2 1_555 1_555
O65 C1_2 1_555 1_555
O71 C1_2 1_555 1_555
C1_2 C18_2 1_555 1_555
O46_2 C11_2 1_555 1_555
O47_2 C11_2 1_555 1_555
C11_2 C24_2 1_555 1_555
C18_2 C17_2 1_555 1_555
C22_2 C16_2 1_555 1_555
C24_2 C18_2 1_555 1_555
C22_2 C24_2 1_555 1_555
O47_2 H25_2 1_555 1_555
Np14 O59_2 1_555 1_555
Np22 O11_2 1_555 1_555
O10_2 Np14 1_555 1_555
O11_2 C14_2 1_555 1_555
O63 C3_2 1_555 1_555
O14_2 Np14 1_555 1_555
O64 C20_2 1_555 1_555
O66 C3_2 1_555 1_555
O21_2 Np14 1_555 1_555
O23_2 Np14 1_555 1_555
O68_2 C14_2 1_555 1_555
O39_2 C8_2 1_555 1_555
O40_2 Np14 1_555 1_555
O43_2 C8_2 1_555 1_555
C3_2 C21_2 1_555 1_555
C5_2 C8_2 1_555 1_555
C10_2 O6_2 1_555 1_555
C14_2 C23_2 1_555 1_555
C20_2 O40_2 1_555 1_555
C21_2 C5_2 1_555 1_555
Np22 O33_2 1_555 1_555
C5_2 C23_2 1_555 1_555
O10_2 H5_2 1_555 1_555
O10_2 H6_2 1_555 1_555
O39_2 H7_2 1_555 1_555
O22_2 H14_2 1_555 1_555
O28_2 H19_2 1_555 1_555
O28_2 H20_2 1_555 1_555
O23_2 H21_2 1_555 1_555
O23_2 H22_2 1_555 1_555
O69 C19_2 1_555 1_555
O74 C19_2 1_555 1_555
O44_2 C15_2 1_555 1_555
C9_2 C7_2 1_555 1_555
O52_2 C15_2 1_555 1_555
C15_2 C7_2 1_555 1_555
C19_2 C9_2 1_555 1_555
O52_2 H30_2 1_555 1_555

#END
