
###############################################################################
#
# This file contains modified crystal structure data generated from the
# MOF subset of the Cambridge Structural Database (CSD) v543 
# hosted by the Cambridge Crystallographic Data Centre (CCDC).
#
# This work is licensed under the Creative Commons
# Attribution-NonCommercial-ShareAlike 4.0 International License.
# To view a copy of this license, visit
# http://creativecommons.org/licenses/by-nc-sa/4.0/
# or send a letter to
# Creative Commons, PO Box 1866, Mountain View, CA 94042, USA.
#
# CIF created using the CSD Python API on 29 September 2022
# The structure has been converted into the P1 space group
# The structure has a 3D framework
# The original CSD entry KAWBOB is in the monoclinic crystal system
# The framework has been calculated to contain at least 10.0% void space
# The void calculation uses a probe of radius 1.32A, grid spacing 0.4
#
###############################################################################

data_KAWBOB
_chemical_formula_moiety         '(C60 H84 Mn6 N16 O44)n'
_symmetry_cell_setting           triclinic
_symmetry_space_group_name_H-M   'P 1'
_symmetry_Int_Tables_number      1
_space_group_name_Hall           'P 1'
loop_
_symmetry_equiv_pos_site_id
_symmetry_equiv_pos_as_xyz
1 x,y,z
_cell_length_a                   9.5565(5)
_cell_length_b                   12.4706(6)
_cell_length_c                   22.8429(10)
_cell_angle_alpha                90
_cell_angle_beta                 102.600(2)
_cell_angle_gamma                90
_cell_volume                     2656.75
loop_
_atom_site_label
_atom_site_type_symbol
_atom_site_fract_x
_atom_site_fract_y
_atom_site_fract_z
Mn13 Mn 0.05658(6) 0.66987(5) 0.27397(3)
Mn12 Mn 0.05658(6) 0.33013(5) 0.77397(3)
Mn2 Mn 0.66763(6) 0.64351(5) 0.28271(3)
O1 O 0.2020(3) 0.2424(2) 0.24025(14)
O2 O 0.3909(4) 0.3681(3) 0.08860(15)
O3 O 0.1099(4) 0.0714(3) 0.06044(15)
O6 O 0.4814(3) 0.5515(2) 0.28098(15)
O7 O 0.2831(3) 0.6478(2) 0.27323(13)
O12 O 0.5749(4) 0.0108(3) 0.53558(15)
O17 O 0.4322(3) 0.1372(2) 0.73017(13)
O18 O 0.5657(4) 0.2692(3) 0.70544(14)
O19 O 0.8570(3) 0.7542(2) 0.28439(14)
H1 H 0.8433 0.8058 0.2595
H2 H 0.8763 0.7810 0.3194
O22 O 0.7875(5) 0.5765(4) 0.36518(18)
H3 H 0.7386 0.5625 0.3912
H4 H 0.8196 0.5165 0.3563
N1 N 0.1445(4) 0.1597(2) 0.15003(16)
N2 N 0.2881(4) 0.3137(3) 0.16469(15)
N3 N 0.2551(4) 0.2193(3) 0.07380(15)
N7 N 0.5151(8) 0.1341(4) 0.3613(2)
C1 C 0.2114(4) 0.2377(3) 0.18842(18)
C2 C 0.3160(5) 0.3051(3) 0.10754(18)
C3 C 0.1648(4) 0.1448(3) 0.09264(19)
C4 C 0.0549(4) 0.0815(3) 0.1725(2)
H8 H 0.2113 0.0317 0.2450
C7 C 0.3667(5) 0.3963(3) 0.2050(2)
H9 H 0.4403 0.4292 0.1861
H10 H 0.4165 0.3624 0.2430
C8 C 0.2672(4) 0.4828(3) 0.2184(2)
H11 H 0.1927 0.4502 0.2368
H12 H 0.2188 0.5181 0.1806
C9 C 0.3519(4) 0.5660(3) 0.26114(18)
C10 C 0.2815(5) 0.2070(4) 0.01247(17)
H13 H 0.2797 0.1300 0.0018
H14 H 0.3774 0.2358 0.0114
C22 C 0.4936(5) 0.0019(3) 0.6419(2)
H25 H 0.4121 0.0209 0.6087
C23 C 0.5791(5) 0.0989(4) 0.6619(2)
H27 H 0.5919 0.1385 0.6259
H28 H 0.6754 0.0760 0.6840
C24 C 0.5189(5) 0.1755(4) 0.7013(2)
C25 C 0.5776(16) 0.2291(9) 0.3452(5)
H29 H 0.6063 0.2182 0.3070
H30 H 0.6622 0.2472 0.3764
H31 H 0.5079 0.2877 0.3411
C26 C 0.4725(13) 0.1491(6) 0.4161(4)
H32 H 0.3919 0.1014 0.4177
H33 H 0.4430 0.2237 0.4193
H34 H 0.5530 0.1324 0.4495
C27 C 0.4826(7) 0.0455(6) 0.3305(3)
H35 H 0.5169 0.0390 0.2946
Mn4 Mn 0.36704(6) 0.80651(5) 0.30921(3)
Mn6 Mn 0.36704(6) 0.19349(5) 0.80921(3)
Mn9 Mn 0.66763(6) 0.35649(5) 0.78271(3)
O26 O 0.5938(3) 0.7639(2) 0.34321(12)
O27 O 0.7493(3) 0.5269(2) 0.23186(15)
O30 O 0.5657(4) 0.7308(3) 0.20544(14)
O8 O 0.1077(4) 0.3285(3) 0.86888(14)
O9 O 0.3011(3) 0.2226(2) 0.89343(13)
C11 C 0.1688(5) 0.2660(4) 0.9679(2)
H15 H 0.0754 0.2302 0.9659
H16 H 0.1612 0.3397 0.9829
C12 C 0.1946(5) 0.2728(3) 0.90531(19)
O4 O 0.1390(3) 0.8386(2) 0.26737(13)
O10 O 0.8382(5) 0.7059(3) 0.56972(18)
O11 O 0.5777(5) 0.8136(3) 0.70132(18)
O14 O 0.8113(3) 0.8282(3) 0.38538(15)
O15 O 0.7493(3) 0.4731(2) 0.73186(15)
O16 O 0.9854(3) 0.4910(2) 0.76992(14)
O20 O 0.4124(4) 0.9699(2) 0.34328(16)
N4 N 0.7140(4) 0.8606(3) 0.55295(15)
N5 N 0.7078(4) 0.7558(3) 0.63659(17)
N6 N 0.5810(4) 0.9180(3) 0.62143(16)
C5 C 0.1473(4) 0.9959(3) 0.2107(2)
H7 H 0.2086 0.9618 0.1862
C6 C 0.0659(4) 0.9108(3) 0.23410(19)
C13 C 0.7593(5) 0.7705(4) 0.5860(2)
C14 C 0.6197(5) 0.8283(3) 0.65761(19)
C15 C 0.6221(5) 0.9347(3) 0.56777(19)
C16 C 0.7528(5) 0.8721(4) 0.49357(19)
H17 H 0.8483 0.8399 0.4953
H18 H 0.7579 0.9491 0.4837
C17 C 0.6410(5) 0.8163(4) 0.4449(2)
H19 H 0.6202 0.7448 0.4598
H20 H 0.5511 0.8585 0.4378
C18 C 0.6852(4) 0.8031(3) 0.38781(19)
C19 C 0.7259(6) 0.6494(4) 0.6653(3)
H21 H 0.6462 0.6377 0.6860
H22 H 0.7177 0.5942 0.6336
C20 C 0.8620(5) 0.6328(4) 0.7089(2)
H23 H 0.8745 0.6900 0.7397
H24 H 0.9425 0.6377 0.6881
C21 C 0.8658(4) 0.5241(3) 0.7394(2)
H26 H 0.4540 0.9737 0.6755
C28 C 0.1329(14) 0.7844(17) 0.0972(6)
H36 H 0.1467 0.7799 0.0560
H37 H 0.1858 0.7262 0.1212
H38 H 0.1685 0.8536 0.1147
O24 O 0.1077(4) 0.6715(3) 0.36888(14)
O25 O 0.3011(3) 0.7774(2) 0.39343(13)
O29 O 0.4322(3) 0.8628(2) 0.23017(13)
O5 O 0.9317(3) 0.9136(2) 0.22148(15)
O21 O 0.9925(4) 0.6745(3) 0.17796(16)
N8 N 0.9748(12) 0.7741(7) 0.0969(4)
C29 C 0.8854(14) 0.8373(10) 0.0574(7)
H39 H 0.7859 0.8169 0.0563
H40 H 0.9054 0.8285 0.0174
H41 H 0.9002 0.9124 0.0699
C30 C 0.9059(11) 0.7052(10) 0.1408(4)
H42 H 0.8063 0.6917 0.1364
O28 O 0.9854(3) 0.5090(2) 0.26992(14)
O10_2 O 0.8382(5) 0.2941(3) 0.06972(18)
O11_2 O 0.5777(5) 0.1864(3) 0.20132(18)
N4_2 N 0.7140(4) 0.1394(3) 0.05295(15)
N5_2 N 0.7078(4) 0.2442(3) 0.13659(17)
N6_2 N 0.5810(4) 0.0820(3) 0.12143(16)
C13_2 C 0.7593(5) 0.2295(4) 0.0860(2)
C14_2 C 0.6197(5) 0.1717(3) 0.15761(19)
C15_2 C 0.6221(5) 0.0653(3) 0.06777(19)
C19_2 C 0.7259(6) 0.3506(4) 0.1653(3)
H21_2 H 0.6462 0.3623 0.1860
H22_2 H 0.7177 0.4058 0.1336
C20_2 C 0.8620(5) 0.3672(4) 0.2089(2)
H23_2 H 0.8745 0.3100 0.2397
H24_2 H 0.9425 0.3623 0.1881
C21_2 C 0.8658(4) 0.4759(3) 0.2394(2)
H26_2 H 0.4540 0.0263 0.1755
O4_2 O 0.1390(3) 0.1614(2) 0.76737(13)
O13 O 0.5938(3) 0.2361(2) 0.84321(12)
O14_2 O 0.8113(3) 0.1718(3) 0.88538(15)
O20_2 O 0.4124(4) 0.0301(2) 0.84328(16)
C5_2 C 0.1473(4) 0.0041(3) 0.7107(2)
H7_2 H 0.2086 0.0382 0.6862
C6_2 C 0.0659(4) 0.0892(3) 0.73410(19)
C16_2 C 0.7528(5) 0.1279(4) 0.99357(19)
H17_2 H 0.8483 0.1601 0.9953
H18_2 H 0.7579 0.0509 0.9837
C17_2 C 0.6410(5) 0.1837(4) 0.9449(2)
H19_2 H 0.6202 0.2552 0.9598
H20_2 H 0.5511 0.1415 0.9378
C18_2 C 0.6852(4) 0.1969(3) 0.88781(19)
C28_2 C 0.1329(14) 0.2156(17) 0.5972(6)
H36_2 H 0.1467 0.2201 0.5560
H37_2 H 0.1858 0.2738 0.6212
H38_2 H 0.1685 0.1464 0.6147
O23 O 0.2831(3) 0.3522(2) 0.77323(13)
O12_2 O 0.5749(4) 0.9892(3) 0.03558(15)
C22_2 C 0.4936(5) 0.9981(3) 0.1419(2)
H25_2 H 0.4121 0.9791 0.1087
C23_2 C 0.5791(5) 0.9011(4) 0.1619(2)
H27_2 H 0.5919 0.8615 0.1259
H28_2 H 0.6754 0.9240 0.1840
C24_2 C 0.5189(5) 0.8245(4) 0.2013(2)
O1_2 O 0.2020(3) 0.7576(2) 0.74025(14)
O2_2 O 0.3909(4) 0.6319(3) 0.58860(15)
O3_2 O 0.1099(4) 0.9286(3) 0.56044(15)
O6_2 O 0.4814(3) 0.4485(2) 0.78098(15)
O19_2 O 0.8570(3) 0.2458(2) 0.78439(14)
H1_2 H 0.8433 0.1942 0.7595
H2_2 H 0.8763 0.2190 0.8194
O22_2 O 0.7875(5) 0.4235(4) 0.86518(18)
H3_2 H 0.7386 0.4375 0.8912
H4_2 H 0.8196 0.4835 0.8563
N1_2 N 0.1445(4) 0.8403(2) 0.65003(16)
N2_2 N 0.2881(4) 0.6863(3) 0.66469(15)
N3_2 N 0.2551(4) 0.7807(3) 0.57380(15)
N7_2 N 0.5151(8) 0.8659(4) 0.8613(2)
C1_2 C 0.2114(4) 0.7623(3) 0.68842(18)
C2_2 C 0.3160(5) 0.6949(3) 0.60754(18)
C3_2 C 0.1648(4) 0.8552(3) 0.59264(19)
C4_2 C 0.0549(4) 0.9185(3) 0.6725(2)
H8_2 H 0.2113 0.9683 0.7450
C7_2 C 0.3667(5) 0.6037(3) 0.7050(2)
H9_2 H 0.4403 0.5708 0.6861
H10_2 H 0.4165 0.6376 0.7430
C8_2 C 0.2672(4) 0.5172(3) 0.7184(2)
H11_2 H 0.1927 0.5498 0.7368
H12_2 H 0.2188 0.4819 0.6806
C9_2 C 0.3519(4) 0.4340(3) 0.76114(18)
C10_2 C 0.2815(5) 0.7930(4) 0.51247(17)
H13_2 H 0.2797 0.8700 0.5018
H14_2 H 0.3774 0.7642 0.5114
C11_2 C 0.1688(5) 0.7340(4) 0.4679(2)
H15_2 H 0.0754 0.7698 0.4659
H16_2 H 0.1612 0.6603 0.4829
C12_2 C 0.1946(5) 0.7272(3) 0.40531(19)
C25_2 C 0.5776(16) 0.7709(9) 0.8452(5)
H29_2 H 0.6063 0.7818 0.8070
H30_2 H 0.6622 0.7528 0.8764
H31_2 H 0.5079 0.7123 0.8411
C26_2 C 0.4725(13) 0.8509(6) 0.9161(4)
H32_2 H 0.3919 0.8986 0.9177
H33_2 H 0.4430 0.7763 0.9193
H34_2 H 0.5530 0.8676 0.9495
C27_2 C 0.4826(7) 0.9545(6) 0.8305(3)
H35_2 H 0.5169 0.9610 0.7946
O5_2 O 0.9317(3) 0.0864(2) 0.72148(15)
O21_2 O 0.9925(4) 0.3255(3) 0.67796(16)
N8_2 N 0.9748(12) 0.2259(7) 0.5969(4)
C29_2 C 0.8854(14) 0.1627(10) 0.5574(7)
H39_2 H 0.7859 0.1831 0.5563
H40_2 H 0.9054 0.1715 0.5174
H41_2 H 0.9002 0.0876 0.5699
C30_2 C 0.9059(11) 0.2948(10) 0.6408(4)
H42_2 H 0.8063 0.3083 0.6364
H5 H 0.9890 0.0468 0.1383
H6 H 0.9961 0.1187 0.1970
H5_2 H 0.9890 0.9532 0.6383
H6_2 H 0.9961 0.8813 0.6970
loop_
_geom_bond_atom_site_label_1
_geom_bond_atom_site_label_2
_geom_bond_site_symmetry_1
_geom_bond_site_symmetry_2
Mn2 O6 1_555 1_555
O1 C1 1_555 1_555
O2 C2 1_555 1_555
O3 C3 1_555 1_555
O6 C9 1_555 1_555
O7 C9 1_555 1_555
O17 C24 1_555 1_555
O18 C24 1_555 1_555
O19 Mn2 1_555 1_555
H1 O19 1_555 1_555
H2 O19 1_555 1_555
O22 Mn2 1_555 1_555
H3 O22 1_555 1_555
H4 O22 1_555 1_555
N1 C1 1_555 1_555
N2 C1 1_555 1_555
N3 C2 1_555 1_555
N7 C25 1_555 1_555
C2 N2 1_555 1_555
C3 N1 1_555 1_555
C4 N1 1_555 1_555
C7 N2 1_555 1_555
H9 C7 1_555 1_555
H10 C7 1_555 1_555
C8 C7 1_555 1_555
H11 C8 1_555 1_555
H12 C8 1_555 1_555
C9 C8 1_555 1_555
C10 N3 1_555 1_555
H13 C10 1_555 1_555
H14 C10 1_555 1_555
H25 C22 1_555 1_555
C23 C22 1_555 1_555
H27 C23 1_555 1_555
H28 C23 1_555 1_555
C24 C23 1_555 1_555
C25 H29 1_555 1_555
H30 C25 1_555 1_555
H31 C25 1_555 1_555
C26 N7 1_555 1_555
H32 C26 1_555 1_555
H33 C26 1_555 1_555
H34 C26 1_555 1_555
H35 C27 1_555 1_555
Mn4 O7 1_555 1_555
Mn6 O17 1_555 1_555
Mn9 O18 1_555 1_555
Mn13 O7 1_555 1_555
O26 Mn2 1_555 1_555
O27 Mn2 1_555 1_555
O30 Mn2 1_555 1_555
N3 C3 1_555 1_555
N7 C27 1_555 1_555
Mn4 O26 1_555 1_555
O8 C12 1_555 1_555
O9 C12 1_555 1_555
H15 C11 1_555 1_555
H16 C11 1_555 1_555
C12 C11 1_555 1_555
Mn6 O9 1_555 1_555
Mn12 O8 1_555 1_555
Mn4 O4 1_555 1_555
Mn13 O4 1_555 1_555
O4 C6 1_555 1_555
O10 C13 1_555 1_555
O11 C14 1_555 1_555
O14 C18 1_555 1_555
O15 C21 1_555 1_555
O16 C21 1_555 1_555
O20 Mn4 1_555 1_555
N4 C13 1_555 1_555
N5 C13 1_555 1_555
N6 C14 1_555 1_555
H7 C5 1_555 1_555
C6 C5 1_555 1_555
C14 N5 1_555 1_555
C15 N4 1_555 1_555
C16 N4 1_555 1_555
H17 C16 1_555 1_555
H18 C16 1_555 1_555
C17 C16 1_555 1_555
H19 C17 1_555 1_555
H20 C17 1_555 1_555
C18 O26 1_555 1_555
C19 N5 1_555 1_555
H21 C19 1_555 1_555
H22 C19 1_555 1_555
C20 C19 1_555 1_555
H23 C20 1_555 1_555
H24 C20 1_555 1_555
C21 C20 1_555 1_555
C28 H36 1_555 1_555
H37 C28 1_555 1_555
H38 C28 1_555 1_555
Mn9 O15 1_555 1_555
O24 Mn13 1_555 1_555
O25 Mn4 1_555 1_555
O29 Mn4 1_555 1_555
N6 C15 1_555 1_555
C17 C18 1_555 1_555
C29 N8 1_555 1_555
H39 C29 1_555 1_555
H40 C29 1_555 1_555
H41 C29 1_555 1_555
C30 O21 1_555 1_555
H42 C30 1_555 1_555
N8 C30 1_555 1_555
O10_2 C13_2 1_555 1_555
O11_2 C14_2 1_555 1_555
O27 C21_2 1_555 1_555
O28 C21_2 1_555 1_555
N4_2 C13_2 1_555 1_555
N5_2 C13_2 1_555 1_555
N6_2 C14_2 1_555 1_555
C14_2 N5_2 1_555 1_555
C15_2 N4_2 1_555 1_555
C19_2 N5_2 1_555 1_555
H21_2 C19_2 1_555 1_555
H22_2 C19_2 1_555 1_555
C20_2 C19_2 1_555 1_555
H23_2 C20_2 1_555 1_555
H24_2 C20_2 1_555 1_555
C21_2 C20_2 1_555 1_555
N6_2 C15_2 1_555 1_555
Mn6 O4_2 1_555 1_555
Mn12 O4_2 1_555 1_555
O4_2 C6_2 1_555 1_555
O13 Mn6 1_555 1_555
O14_2 C18_2 1_555 1_555
O20_2 Mn6 1_555 1_555
H7_2 C5_2 1_555 1_555
C6_2 C5_2 1_555 1_555
H17_2 C16_2 1_555 1_555
H18_2 C16_2 1_555 1_555
C17_2 C16_2 1_555 1_555
H19_2 C17_2 1_555 1_555
H20_2 C17_2 1_555 1_555
C18_2 O13 1_555 1_555
C28_2 H36_2 1_555 1_555
H37_2 C28_2 1_555 1_555
H38_2 C28_2 1_555 1_555
Mn9 O13 1_555 1_555
O23 Mn6 1_555 1_555
Mn12 O23 1_555 1_555
C17_2 C18_2 1_555 1_555
O29 C24_2 1_555 1_555
O30 C24_2 1_555 1_555
H25_2 C22_2 1_555 1_555
C23_2 C22_2 1_555 1_555
H27_2 C23_2 1_555 1_555
H28_2 C23_2 1_555 1_555
C24_2 C23_2 1_555 1_555
Mn9 O6_2 1_555 1_555
O1_2 C1_2 1_555 1_555
O2_2 C2_2 1_555 1_555
O3_2 C3_2 1_555 1_555
O6_2 C9_2 1_555 1_555
O23 C9_2 1_555 1_555
O24 C12_2 1_555 1_555
O25 C12_2 1_555 1_555
O19_2 Mn9 1_555 1_555
H1_2 O19_2 1_555 1_555
H2_2 O19_2 1_555 1_555
O22_2 Mn9 1_555 1_555
H3_2 O22_2 1_555 1_555
H4_2 O22_2 1_555 1_555
N1_2 C1_2 1_555 1_555
N2_2 C1_2 1_555 1_555
N3_2 C2_2 1_555 1_555
N7_2 C25_2 1_555 1_555
C2_2 N2_2 1_555 1_555
C3_2 N1_2 1_555 1_555
C4_2 N1_2 1_555 1_555
C7_2 N2_2 1_555 1_555
H9_2 C7_2 1_555 1_555
H10_2 C7_2 1_555 1_555
C8_2 C7_2 1_555 1_555
H11_2 C8_2 1_555 1_555
H12_2 C8_2 1_555 1_555
C9_2 C8_2 1_555 1_555
C10_2 N3_2 1_555 1_555
H13_2 C10_2 1_555 1_555
H14_2 C10_2 1_555 1_555
C11_2 C10_2 1_555 1_555
H15_2 C11_2 1_555 1_555
H16_2 C11_2 1_555 1_555
C12_2 C11_2 1_555 1_555
C25_2 H29_2 1_555 1_555
H30_2 C25_2 1_555 1_555
H31_2 C25_2 1_555 1_555
C26_2 N7_2 1_555 1_555
H32_2 C26_2 1_555 1_555
H33_2 C26_2 1_555 1_555
H34_2 C26_2 1_555 1_555
H35_2 C27_2 1_555 1_555
N3_2 C3_2 1_555 1_555
N7_2 C27_2 1_555 1_555
C29_2 N8_2 1_555 1_555
H39_2 C29_2 1_555 1_555
H40_2 C29_2 1_555 1_555
H41_2 C29_2 1_555 1_555
C30_2 O21_2 1_555 1_555
H42_2 C30_2 1_555 1_555
N8_2 C30_2 1_555 1_555

#END
