
###############################################################################
#
# This file contains modified crystal structure data generated from the
# MOF subset of the Cambridge Structural Database (CSD) v543 
# hosted by the Cambridge Crystallographic Data Centre (CCDC).
#
# This work is licensed under the Creative Commons
# Attribution-NonCommercial-ShareAlike 4.0 International License.
# To view a copy of this license, visit
# http://creativecommons.org/licenses/by-nc-sa/4.0/
# or send a letter to
# Creative Commons, PO Box 1866, Mountain View, CA 94042, USA.
#
# CIF created using the CSD Python API on 29 September 2022
# The structure has been converted into the P1 space group
# The structure has a 3D framework
# The original CSD entry KAWQUX is in the triclinic crystal system
# The framework has been calculated to contain at least 10.0% void space
# The void calculation uses a probe of radius 1.32A, grid spacing 0.4
# H atom positions have been added when not included in the experimental data
# Generated hydrogen atom positions removed from atoms on special positions
#
###############################################################################

data_KAWQUX
_chemical_formula_moiety         '(C36 H40 Cr1 Cu6 Mo6 N28 O32)n'
_symmetry_cell_setting           triclinic
_symmetry_space_group_name_H-M   'P 1'
_symmetry_Int_Tables_number      1
_space_group_name_Hall           'P 1'
loop_
_symmetry_equiv_pos_site_id
_symmetry_equiv_pos_as_xyz
1 x,y,z
_cell_length_a                   12.8771(6)
_cell_length_b                   13.4775(6)
_cell_length_c                   13.5993(5)
_cell_angle_alpha                107.916(4)
_cell_angle_beta                 103.921(3)
_cell_angle_gamma                112.783(4)
_cell_volume                     1888.45
loop_
_atom_site_label
_atom_site_type_symbol
_atom_site_fract_x
_atom_site_fract_y
_atom_site_fract_z
C10 C 0.0520(4) 0.3224(4) 0.4215(4)
C12 C 0.0249(5) 0.3888(5) 0.2715(5)
H7 H 0.0946 0.3866 0.2655
N8 N 0.0015(3) 0.2252(3) 0.4385(3)
N9 N 0.0977(3) 0.2323(3) 0.5140(3)
N10 N 0.2002(3) 0.3282(3) 0.5397(3)
N11 N 0.1746(3) 0.3867(3) 0.4829(3)
Cu7 Cu 0.06668(5) 0.12675(4) 0.59553(4)
H14 H 0.0010 0.9053 0.2214
H15 H 0.0404 0.7349 0.3317
O34 O 0.0995(3) 0.9731(2) 0.5174(2)
Cu9 Cu 0.5000 0.5000 0.0000
C3 C 0.4669(4) 0.1908(4) 0.0002(3)
H1 H 0.4168 0.2136 0.0290
C4 C 0.5450(4) 0.1640(4) 0.0624(3)
H2 H 0.5482 0.1693 0.1329
C5 C 0.6184(4) 0.1294(4) 0.0182(3)
C8 C 0.7082(4) 0.0985(4) 0.1816(3)
H5 H 0.6614 0.1132 0.2205
C9 C 0.8340(5) 0.0566(5) 0.1326(4)
H6 H 0.8948 0.0355 0.1336
C11 C 0.9852(4) 0.3595(4) 0.3493(4)
C13 C 0.9612(5) 0.4215(5) 0.2020(5)
H8 H 0.9881 0.4415 0.1497
C14 C 0.8580(4) 0.4242(4) 0.2107(4)
C15 C 0.8208(4) 0.4009(4) 0.2919(4)
H9 H 0.7537 0.4072 0.3004
C16 C 0.8851(4) 0.3680(4) 0.3610(4)
H10 H 0.8603 0.3516 0.4157
C18 C 0.6864(4) 0.4576(4) 0.1292(3)
H12 H 0.6514 0.4526 0.1811
Cu2 Cu 0.84097(4) 0.05344(4) 0.35501(4)
N5 N 0.6994(3) 0.1031(3) 0.0842(3)
N6 N 0.7808(4) 0.0760(4) 0.0508(4)
N7 N 0.7921(3) 0.0703(3) 0.2150(3)
N12 N 0.7870(3) 0.4497(3) 0.1333(3)
N13 N 0.8119(4) 0.4596(4) 0.0431(4)
N14 N 0.6438(3) 0.4738(3) 0.0404(3)
H13 H 0.9987 0.0231 0.2884
O3 O 0.9005(3) 0.0269(2) 0.4826(2)
O4 O 0.7111(4) 0.0951(4) 0.4158(3)
Cr1 Cr 0.5000 0.5000 0.5000
Mo1 Mo 0.39191(3) 0.39003(3) 0.21862(3)
Mo2 Mo 0.48932(3) 0.24829(3) 0.34512(3)
Mo3 Mo 0.40508(3) 0.64510(3) 0.37341(3)
O5 O 0.4498(3) 0.4497(3) 0.1363(3)
O6 O 0.2656(3) 0.2537(3) 0.1239(3)
O7 O 0.3109(3) 0.4771(3) 0.2625(2)
O8 O 0.5132(3) 0.3432(3) 0.2625(2)
O9 O 0.5304(2) 0.5596(2) 0.3884(2)
O10 O 0.3777(2) 0.3462(2) 0.3659(2)
O11 O 0.3610(3) 0.1176(3) 0.2450(3)
O12 O 0.6104(3) 0.2233(3) 0.3477(3)
O13 O 0.4687(3) 0.2320(2) 0.4763(2)
O14 O 0.6122(2) 0.4337(2) 0.4997(2)
O15 O 0.4683(3) 0.7104(3) 0.2990(3)
O16 O 0.2858(3) 0.6713(3) 0.3729(3)
Mo4 Mo 0.60809(3) 0.60997(3) 0.78138(3)
Mo5 Mo 0.51068(3) 0.75171(3) 0.65488(3)
Mo6 Mo 0.59492(3) 0.35490(3) 0.62659(3)
O21 O 0.5502(3) 0.5503(3) 0.8637(3)
O22 O 0.7344(3) 0.7463(3) 0.8761(3)
O23 O 0.6891(3) 0.5229(3) 0.7375(2)
O24 O 0.4868(3) 0.6568(3) 0.7375(2)
O25 O 0.4696(2) 0.4404(2) 0.6116(2)
O26 O 0.6223(2) 0.6538(2) 0.6341(2)
O27 O 0.6390(3) 0.8824(3) 0.7550(3)
O28 O 0.3896(3) 0.7767(3) 0.6523(3)
O29 O 0.5313(3) 0.7680(2) 0.5237(2)
O30 O 0.3878(2) 0.5663(2) 0.5003(2)
O31 O 0.5317(3) 0.2896(3) 0.7010(3)
O32 O 0.7142(3) 0.3287(3) 0.6271(3)
N29 N 0.6090(3) 0.6750(3) 0.1353(3)
Cu9_2 Cu 0.5000 0.5000 1.0000
C1 C 0.3797(4) 0.2151(4) 0.8328(3)
C2 C 0.4628(4) 0.1840(3) 0.8959(3)
C6 C 0.6134(4) 0.1193(4) 0.9134(4)
H3 H 0.6616 0.0939 0.8837
C7 C 0.5355(4) 0.1478(4) 0.8521(4)
H4 H 0.5323 0.1423 0.7815
C17 C 0.7235(4) 0.4745(5) 0.9907(4)
H11 H 0.7161 0.4846 0.9253
N1 N 0.3910(3) 0.3250(3) 0.8647(3)
N2 N 0.2997(3) 0.3138(3) 0.7822(3)
N3 N 0.2367(3) 0.2029(3) 0.7056(3)
N4 N 0.2832(3) 0.1365(3) 0.7342(3)
O17 O 0.0140(3) 0.0547(3) 0.7139(3)
O18 O 0.0253(9) 0.2599(9) 0.7089(8)
H32 H 0.0040 0.2405 0.7642
N32 N 0.3562(3) 0.5262(3) 0.9596(3)
Cu1 Cu 0.93332(5) 0.87325(4) 0.40447(4)
O1 O 0.9860(3) 0.9453(3) 0.2861(3)
O2 O 0.9747(9) 0.7401(9) 0.2911(8)
H16 H 0.9960 0.7595 0.2358
C19 C 0.6203(4) 0.7849(4) 0.1672(3)
C20 C 0.5372(4) 0.8160(3) 0.1041(3)
C24 C 0.3866(4) 0.8807(4) 0.0866(4)
H19 H 0.3384 0.9061 0.1163
C25 C 0.4645(4) 0.8522(4) 0.1479(4)
H20 H 0.4677 0.8577 0.2185
C35 C 0.2765(4) 0.5255(5) 0.0093(4)
H27 H 0.2839 0.5154 0.0747
N16 N 0.7003(3) 0.6862(3) 0.2178(3)
N17 N 0.7633(3) 0.7971(3) 0.2944(3)
N18 N 0.7168(3) 0.8635(3) 0.2658(3)
N31 N 0.9023(3) 0.7677(3) 0.4860(3)
C21 C 0.5331(4) 0.8092(4) 0.9998(3)
H17 H 0.5832 0.7864 0.9710
C22 C 0.4550(4) 0.8360(4) 0.9376(3)
H18 H 0.4518 0.8307 0.8671
C23 C 0.3816(4) 0.8706(4) 0.9818(3)
C26 C 0.2918(4) 0.9015(4) 0.8184(3)
H21 H 0.3386 0.8868 0.7795
C27 C 0.1660(5) 0.9434(5) 0.8674(4)
H22 H 0.1052 0.9645 0.8664
C29 C 0.0148(4) 0.6405(4) 0.6507(4)
C31 C 0.0388(5) 0.5785(5) 0.7980(5)
H24 H 0.0119 0.5585 0.8503
C32 C 0.1420(4) 0.5758(4) 0.7893(4)
C33 C 0.1792(4) 0.5991(4) 0.7081(4)
H25 H 0.2463 0.5928 0.6996
C34 C 0.1149(4) 0.6320(4) 0.6390(4)
H26 H 0.1397 0.6484 0.5843
C36 C 0.3136(4) 0.5424(4) 0.8708(3)
H28 H 0.3486 0.5474 0.8189
Cu5 Cu 0.15903(4) 0.94656(4) 0.64499(4)
N19 N 0.3006(3) 0.8969(3) 0.9158(3)
N20 N 0.2192(4) 0.9240(4) 0.9492(4)
N21 N 0.2079(3) 0.9297(3) 0.7850(3)
N26 N 0.2130(3) 0.5503(3) 0.8667(3)
N27 N 0.1881(4) 0.5404(4) 0.9569(4)
H29 H 0.0013 0.9769 0.7116
O20 O 0.2889(4) 0.9049(4) 0.5842(3)
H30 H 0.9990 0.0947 0.7786
H31 H 0.9596 0.2651 0.6683
C28 C 0.9480(4) 0.6776(4) 0.5785(4)
C30 C 0.9751(5) 0.6112(5) 0.7285(5)
H23 H 0.9054 0.6134 0.7345
N22 N 0.9985(3) 0.7748(3) 0.5615(3)
N24 N 0.7998(3) 0.6718(3) 0.4603(3)
N25 N 0.8254(3) 0.6133(3) 0.5171(3)
loop_
_geom_bond_atom_site_label_1
_geom_bond_atom_site_label_2
_geom_bond_site_symmetry_1
_geom_bond_site_symmetry_2
C12 H7 1_555 1_555
N8 C10 1_555 1_555
N9 N8 1_555 1_555
N10 N9 1_555 1_555
N11 C10 1_555 1_555
Cu7 N9 1_555 1_555
N10 N11 1_555 1_555
C3 H1 1_555 1_555
C4 C3 1_555 1_555
H2 C4 1_555 1_555
C5 C4 1_555 1_555
C8 H5 1_555 1_555
C9 H6 1_555 1_555
H8 C13 1_555 1_555
C14 C13 1_555 1_555
C15 C14 1_555 1_555
H9 C15 1_555 1_555
C16 C11 1_555 1_555
H10 C16 1_555 1_555
C18 H12 1_555 1_555
Cu2 N7 1_555 1_555
N5 C5 1_555 1_555
N6 C9 1_555 1_555
N7 C8 1_555 1_555
N12 C14 1_555 1_555
O4 Cu2 1_555 1_555
Cr1 O9 1_555 1_555
Mo1 O5 1_555 1_555
Mo2 O8 1_555 1_555
Mo3 O7 1_555 1_555
O5 Cu9 1_555 1_555
O6 Mo1 1_555 1_555
O7 Mo1 1_555 1_555
O8 Mo1 1_555 1_555
O9 Mo1 1_555 1_555
O10 Cr1 1_555 1_555
O11 Mo2 1_555 1_555
O12 Mo2 1_555 1_555
O13 Mo2 1_555 1_555
O14 Cr1 1_555 1_555
O15 Mo3 1_555 1_555
O16 Mo3 1_555 1_555
Mo4 O21 1_555 1_555
Mo5 O24 1_555 1_555
Mo6 O13 1_555 1_555
O21 Cu9_2 1_555 1_555
O22 Mo4 1_555 1_555
O23 Mo4 1_555 1_555
O24 Mo4 1_555 1_555
O25 Cr1 1_555 1_555
O26 Cr1 1_555 1_555
O27 Mo5 1_555 1_555
O28 Mo5 1_555 1_555
O29 Mo3 1_555 1_555
O30 Cr1 1_555 1_555
O31 Mo6 1_555 1_555
O32 Mo6 1_555 1_555
N29 Cu9 1_555 1_555
C8 N5 1_555 1_555
C9 N7 1_555 1_555
C15 C16 1_555 1_555
C18 N12 1_555 1_555
C18 N14 1_555 1_555
Cu2 O3 1_555 1_555
N5 N6 1_555 1_555
N12 N13 1_555 1_555
N14 Cu9 1_555 1_555
Mo1 O10 1_555 1_555
Mo2 O10 1_555 1_555
Mo2 O14 1_555 1_555
Mo3 O9 1_555 1_555
Mo3 O30 1_555 1_555
O14 Mo6 1_555 1_555
Mo4 O25 1_555 1_555
Mo4 O26 1_555 1_555
Mo5 O26 1_555 1_555
Mo5 O29 1_555 1_555
Mo5 O30 1_555 1_555
Mo6 O23 1_555 1_555
Mo6 O25 1_555 1_555
C1 C2 1_555 1_555
H3 C6 1_555 1_555
C7 C2 1_555 1_555
H4 C7 1_555 1_555
C17 H11 1_555 1_555
N1 C1 1_555 1_555
N2 N1 1_555 1_555
N3 N2 1_555 1_555
N4 C1 1_555 1_555
Cu9_2 N1 1_555 1_555
Cu7 N3 1_555 1_555
O17 Cu7 1_555 1_555
O18 Cu7 1_555 1_555
H32 O18 1_555 1_555
N32 Cu9_2 1_555 1_555
C6 C7 1_555 1_555
N3 N4 1_555 1_555
Cu1 O1 1_555 1_555
O2 Cu1 1_555 1_555
H16 O2 1_555 1_555
C19 C20 1_555 1_555
H19 C24 1_555 1_555
C25 C20 1_555 1_555
H20 C25 1_555 1_555
C35 H27 1_555 1_555
N29 C19 1_555 1_555
N16 N29 1_555 1_555
N17 Cu1 1_555 1_555
N31 Cu1 1_555 1_555
C19 N18 1_555 1_555
C24 C25 1_555 1_555
N16 N17 1_555 1_555
N17 N18 1_555 1_555
C21 H17 1_555 1_555
C22 C21 1_555 1_555
H18 C22 1_555 1_555
C23 C22 1_555 1_555
C26 H21 1_555 1_555
C27 H22 1_555 1_555
H24 C31 1_555 1_555
C32 C31 1_555 1_555
C33 C32 1_555 1_555
H25 C33 1_555 1_555
C34 C29 1_555 1_555
H26 C34 1_555 1_555
C36 H28 1_555 1_555
N19 C23 1_555 1_555
N20 C27 1_555 1_555
N21 C26 1_555 1_555
N26 C32 1_555 1_555
O20 Cu5 1_555 1_555
C26 N19 1_555 1_555
C27 N21 1_555 1_555
C33 C34 1_555 1_555
C36 N26 1_555 1_555
C36 N32 1_555 1_555
Cu5 N21 1_555 1_555
Cu5 O34 1_555 1_555
N19 N20 1_555 1_555
N26 N27 1_555 1_555
C30 H23 1_555 1_555
N22 C28 1_555 1_555
N31 N22 1_555 1_555
N24 N31 1_555 1_555
N25 C28 1_555 1_555
N24 N25 1_555 1_555

#END
