
###############################################################################
#
# This file contains modified crystal structure data generated from the
# MOF subset of the Cambridge Structural Database (CSD) v543 
# hosted by the Cambridge Crystallographic Data Centre (CCDC).
#
# This work is licensed under the Creative Commons
# Attribution-NonCommercial-ShareAlike 4.0 International License.
# To view a copy of this license, visit
# http://creativecommons.org/licenses/by-nc-sa/4.0/
# or send a letter to
# Creative Commons, PO Box 1866, Mountain View, CA 94042, USA.
#
# CIF created using the CSD Python API on 29 September 2022
# The structure has been converted into the P1 space group
# The structure has a 3D framework
# The original CSD entry KAWXIS is in the trigonal crystal system
# The original CSD entry KAWXIS is in a Sohncke space group
# The framework has been calculated to contain at least 10.0% void space
# The void calculation uses a probe of radius 1.32A, grid spacing 0.4
# The framework is charged, counterions have been retained in the structure
# H atom positions have been added when not included in the experimental data
# Generated hydrogen atom positions removed from atoms on special positions
#
###############################################################################

data_KAWXIS
_chemical_formula_moiety         '(C108 H174 Gd18 Mn5 N18 O83 18+)n'
_symmetry_cell_setting           triclinic
_symmetry_space_group_name_H-M   'P 1'
_symmetry_Int_Tables_number      1
_space_group_name_Hall           'P 1'
loop_
_symmetry_equiv_pos_site_id
_symmetry_equiv_pos_as_xyz
1 x,y,z
_cell_length_a                   18.0647(3)
_cell_length_b                   18.0647(3)
_cell_length_c                   21.4905(4)
_cell_angle_alpha                90
_cell_angle_beta                 90
_cell_angle_gamma                120
_cell_volume                     6073.49
loop_
_atom_site_label
_atom_site_type_symbol
_atom_site_fract_x
_atom_site_fract_y
_atom_site_fract_z
Gd2 Gd 0.402431(18) 0.066309(17) 0.410022(12)
Gd3 Gd 0.18888(2) -0.0000 0.3333
O9 O 0.5373(3) 0.0698(3) 0.4149(2)
O10 O 0.3650(4) 0.1364(3) 0.4922(2)
O11 O 0.1628(4) 0.0843(3) 0.4124(3)
Gd4 Gd 0.400061(23) 0.170128(16) 0.253428(12)
O17 O 0.4487(4) 0.3069(3) 0.1989(2)
O18 O 0.5529(4) 0.2227(3) 0.2214(2)
O22 O 0.2811(3) 0.0282(2) 0.24643(17)
O23 O 0.3288(3) 0.1219(2) 0.35070(17)
O24 O 0.4350(3) 0.0736(2) 0.29975(16)
Gd13 Gd -0.0000 0.18888(2) 0.6666
O29 O 0.5104(3) 0.2152(3) 0.4106(2)
O30 O 0.4909(3) 0.2708(3) 0.32438(18)
O32 O 0.4019(3) 0.0054(4) 0.16202(18)
O34 O 0.3992(3) 0.1255(4) 0.15080(18)
O35 O 0.2890(4) 0.2004(3) 0.2415(2)
O36 O 0.1638(4) 0.0963(3) 0.2760(3)
Gd1 Gd 0.229933(17) 0.829872(16) 0.413239(12)
Gd3_2 Gd 0.18888(2) 1.0000 0.3333
C18 C 0.0446(4) 0.8349(4) 0.4187(3)
O5 O 0.0886(2) 0.7996(3) 0.4252(2)
O6 O 0.0675(3) 0.9037(3) 0.3907(3)
O7 O 0.1418(3) 0.6931(3) 0.4678(2)
O8 O 0.3302(3) 0.7773(3) 0.4453(2)
O12 O 0.2529(2) 0.9718(2) 0.42024(17)
O13 O 0.2069(2) 0.8781(2) 0.31597(17)
O14 O 0.3614(2) 0.9264(2) 0.36692(16)
Gd5 Gd 0.336122(25) 0.933691(17) 0.256645(12)
O19 O 0.4675(4) 0.9302(3) 0.2518(2)
O20 O 0.2286(5) 0.8636(3) 0.1745(2)
O21 O 0.0785(5) 0.9157(3) 0.2543(3)
C25 C 0.1510(6) 0.5442(4) 0.1710(3)
H13 H 0.1572 0.5357 0.1291
C26 C 0.2014(6) 0.6242(4) 0.1953(3)
H14 H 0.2406 0.6687 0.1703
C27 C 0.1929(5) 0.6377(3) 0.2580(3)
C28 C 0.1348(5) 0.5704(3) 0.2932(3)
H15 H 0.1284 0.5782 0.3352
C29 C 0.0854(4) 0.4904(3) 0.2660(2)
C30 C 0.2409(6) 0.7249(4) 0.2882(3)
C31 C 0.0181(5) 0.4145(3) 0.3002(2)
C32 C 0.0132(6) 0.4152(4) 0.3653(3)
H16 H 0.0512 0.4625 0.3886
N5 N 0.0933(4) 0.4774(3) 0.2044(2)
O25 O 0.2952(4) 0.7848(3) 0.2561(2)
O26 O 0.2201(4) 0.7292(3) 0.34229(18)
Gd12 Gd 0.066309(17) 0.402431(18) 0.589978(12)
Mn2 Mn -0.00000(8) 0.35130(6) 0.1667
O31 O 0.3965(3) 0.9946(4) 0.50464(18)
O33 O 0.2737(3) 0.8745(4) 0.51586(18)
C24 C 0.8349(4) 0.0446(4) 0.5813(3)
O15 O 0.7996(3) 0.0886(2) 0.5748(2)
O16 O 0.9037(3) 0.0675(3) 0.6093(3)
Gd9 Gd 0.829872(16) 0.229933(17) 0.586761(12)
Gd13_2 Gd 1.0000 0.18888(2) 0.6666
Mn1 Mn 0.64870(6) 0.64870(6) 0.5000
C1 C 0.6068(5) 0.4558(4) 0.4957(3)
H1 H 0.6215 0.4643 0.5376
C2 C 0.5772(4) 0.3758(4) 0.4714(3)
H2 H 0.5719 0.3313 0.4964
C3 C 0.5552(4) 0.3623(3) 0.4087(3)
C4 C 0.5644(4) 0.4296(3) 0.3735(3)
H3 H 0.5502 0.4218 0.3315
C5 C 0.5950(3) 0.5096(3) 0.4007(2)
C6 C 0.5160(4) 0.2751(4) 0.3785(3)
C7 C 0.6036(4) 0.5855(3) 0.3665(2)
C8 C 0.5980(4) 0.5848(4) 0.3014(3)
H4 H 0.5887 0.5375 0.2781
C9 C 0.6069(4) 0.6582(4) 0.2731(3)
C10 C 0.6197(5) 0.7256(4) 0.3084(3)
H5 H 0.6252 0.7747 0.2900
C11 C 0.6245(5) 0.7203(4) 0.3721(3)
H6 H 0.6321 0.7664 0.3961
C12 C 0.5992(4) 0.6617(4) 0.2031(2)
C13 C 0.8253(4) 0.6615(4) 0.4647(3)
H7 H 0.7936 0.6021 0.4643
C14 C 0.9089(4) 0.7014(4) 0.4440(3)
H8 H 0.9332 0.6693 0.4306
C15 C 0.9558(3) 0.7894(4) 0.4435(3)
C16 C 0.9181(4) 0.8344(4) 0.4655(3)
H9 H 0.9485 0.8938 0.4658
C17 C 0.8338(3) 0.7902(3) 0.4872(3)
N1 N 0.6159(3) 0.5226(3) 0.4623(2)
N2 N 0.6186(3) 0.6523(3) 0.4008(2)
N3 N 0.7876(3) 0.7055(3) 0.4855(2)
O3 O 0.5981(3) 0.6035(3) 0.17131(18)
O4 O 0.6008(3) 0.7263(3) 0.18253(18)
C19 C 0.6615(4) 0.8253(4) 0.5353(3)
H10 H 0.6021 0.7936 0.5357
C20 C 0.7014(4) 0.9089(4) 0.5560(3)
H11 H 0.6693 0.9332 0.5694
C21 C 0.7894(4) 0.9558(3) 0.5565(3)
C22 C 0.8344(4) 0.9181(4) 0.5345(3)
H12 H 0.8938 0.9485 0.5342
C23 C 0.7902(3) 0.8338(3) 0.5128(3)
N4 N 0.7055(3) 0.7876(3) 0.5145(2)
C33 C 0.9487(6) 0.3418(4) 0.3936(3)
C34 C 0.8941(6) 0.2744(4) 0.3583(3)
H17 H 0.8505 0.2253 0.3767
C35 C 0.9042(6) 0.2797(4) 0.2946(3)
H18 H 0.8657 0.2336 0.2706
C36 C 0.9375(6) 0.3383(4) 0.4636(2)
N6 N 0.9663(4) 0.3477(3) 0.2659(2)
O27 O 0.9946(4) 0.3965(3) 0.49536(18)
O28 O 0.8745(4) 0.2737(3) 0.48414(18)
Gd6 Gd 0.599939(23) 0.770067(17) 0.079906(12)
Gd11 Gd 0.663878(25) 0.597569(18) 0.076689(12)
Mn2_2 Mn 1.00000(8) 0.35130(6) 0.1667
N7 N 0.5226(3) 0.6159(3) 0.5377(2)
N8 N 0.6523(3) 0.6186(3) 0.5992(2)
Gd1_2 Gd 0.170128(16) 0.400061(23) 0.746572(12)
Mn1_2 Mn 0.35130(6) 0.00000(8) 0.8333
C1_2 C 0.5442(4) 0.1510(6) 0.8290(3)
H1_2 H 0.5357 0.1572 0.8709
C2_2 C 0.6242(4) 0.2014(6) 0.8047(3)
H2_2 H 0.6687 0.2406 0.8297
C3_2 C 0.6377(3) 0.1929(5) 0.7420(3)
C4_2 C 0.5704(3) 0.1348(5) 0.7068(3)
H3_2 H 0.5782 0.1284 0.6648
C5_2 C 0.4904(3) 0.0854(4) 0.7340(2)
C6_2 C 0.7249(4) 0.2409(6) 0.7118(3)
C7_2 C 0.4145(3) 0.0181(5) 0.6998(2)
C8_2 C 0.4152(4) 0.0132(6) 0.6347(3)
H4_2 H 0.4625 0.0512 0.6114
C13_2 C 0.3385(4) 0.1638(6) 0.7980(3)
H7_2 H 0.3979 0.1915 0.7976
C14_2 C 0.2986(4) 0.2075(6) 0.7773(3)
H8_2 H 0.3307 0.2639 0.7639
C15_2 C 0.2106(4) 0.1664(5) 0.7768(3)
C16_2 C 0.1656(4) 0.0837(6) 0.7988(3)
H9_2 H 0.1062 0.0547 0.7991
C17_2 C 0.2098(3) 0.0436(4) 0.8205(3)
C18_2 C 0.1651(4) 0.2097(6) 0.7520(3)
N1_2 N 0.4774(3) 0.0933(4) 0.7956(2)
N3_2 N 0.2945(3) 0.0821(4) 0.8188(2)
O1 O 0.7848(3) 0.2952(4) 0.7439(2)
O2 O 0.7292(3) 0.2201(4) 0.65771(18)
O5_2 O 0.2004(3) 0.2890(4) 0.7585(2)
O6_2 O 0.0963(3) 0.1638(4) 0.7240(3)
O7_2 O 0.3069(3) 0.4487(4) 0.8011(2)
O8_2 O 0.2227(3) 0.5529(4) 0.7786(2)
O12_2 O 0.0282(2) 0.2811(3) 0.75357(17)
O13_2 O 0.1219(2) 0.3288(3) 0.64930(17)
O14_2 O 0.0736(2) 0.4350(3) 0.70025(16)
O19_2 O 0.0698(3) 0.5373(5) 0.5851(2)
O20_2 O 0.1364(3) 0.3650(6) 0.5078(2)
O21_2 O 0.0843(3) 0.1628(6) 0.5876(3)
C25_2 C 0.4558(4) 0.6068(7) 0.5043(3)
H13_2 H 0.4643 0.6215 0.4624
C26_2 C 0.3758(4) 0.5772(7) 0.5286(3)
H14_2 H 0.3313 0.5719 0.5036
C27_2 C 0.3623(3) 0.5552(6) 0.5913(3)
C28_2 C 0.4296(3) 0.5644(6) 0.6265(3)
H15_2 H 0.4218 0.5502 0.6685
C29_2 C 0.5096(3) 0.5950(5) 0.5993(2)
C30_2 C 0.2751(4) 0.5160(7) 0.6215(3)
C31_2 C 0.5855(3) 0.6036(6) 0.6335(2)
C32_2 C 0.5848(4) 0.5980(7) 0.6986(3)
H16_2 H 0.5375 0.5887 0.7219
C33_2 C 0.6582(4) 0.6069(7) 0.7269(3)
C34_2 C 0.7256(4) 0.6197(7) 0.6916(3)
H17_2 H 0.7747 0.6252 0.7100
C35_2 C 0.7203(4) 0.6245(7) 0.6279(3)
H18_2 H 0.7664 0.6321 0.6039
C36_2 C 0.6617(4) 0.5992(7) 0.7969(2)
O25_2 O 0.2152(3) 0.5104(5) 0.5894(2)
O26_2 O 0.2708(3) 0.4909(5) 0.67562(18)
O27_2 O 0.6035(3) 0.5981(5) 0.82869(18)
O28_2 O 0.7263(3) 0.6008(5) 0.81747(18)
Gd8 Gd 0.770067(17) 0.599939(23) 0.920094(12)
Gd10 Gd 0.933691(17) 0.336122(25) 0.743355(12)
Gd12_2 Gd 0.597569(18) 0.663878(25) 0.923311(12)
N8_2 N 0.3814(3) 0.0337(4) 0.9325(2)
O31_2 O 0.0054(4) 0.4019(5) 0.83798(18)
O33_2 O 0.1255(4) 0.3992(5) 0.84920(18)
Mn1_3 Mn 0.35130(6) 1.00000(8) 0.8333
C9_2 C 0.3418(4) 0.9487(6) 0.6064(3)
C10_2 C 0.2744(4) 0.8941(6) 0.6417(3)
H5_2 H 0.2253 0.8505 0.6233
C11_2 C 0.2797(4) 0.9042(6) 0.7054(3)
H6_2 H 0.2336 0.8657 0.7294
C12_2 C 0.3383(4) 0.9375(6) 0.5364(2)
N2_2 N 0.3477(3) 0.9663(4) 0.7341(2)
C19_2 C 0.1747(4) 0.8362(6) 0.8686(3)
H10_2 H 0.2064 0.8085 0.8690
C20_2 C 0.0911(4) 0.7925(6) 0.8893(3)
H11_2 H 0.0668 0.7361 0.9027
C21_2 C 0.0442(3) 0.8336(5) 0.8898(3)
C22_2 C 0.0819(4) 0.9163(6) 0.8678(3)
H12_2 H 0.0515 0.9453 0.8675
C23_2 C 0.1662(3) 0.9564(4) 0.8461(3)
N4_2 N 0.2124(3) 0.9179(4) 0.8478(2)
N7_2 N 0.3841(3) 0.9067(4) 0.8710(2)
O9_2 O 0.9302(3) 0.4675(4) 0.7482(2)
O10_2 O 0.8636(3) 0.2286(5) 0.8255(2)
O11_2 O 0.9157(3) 0.0785(5) 0.7457(3)
O17_2 O 0.6931(3) 0.1418(5) 0.5322(2)
O18_2 O 0.7773(3) 0.3302(5) 0.5547(2)
O22_2 O 0.9718(2) 0.2529(4) 0.57976(17)
O23_2 O 0.8781(2) 0.2069(4) 0.68403(17)
O24_2 O 0.9264(2) 0.3614(4) 0.63308(16)
Gd13_3 Gd 0.81112(2) 0.81112(2) -0.0000
C24_2 C 0.9554(4) 0.7903(6) 0.9146(3)
O15_2 O 0.9114(2) 0.7110(4) 0.9081(2)
O16_2 O 0.9325(3) 0.8362(4) 0.9426(3)
Gd13_4 Gd 0.81112(2) 0.81112(2) 1.0000
C11_3 C 0.0958(6) 0.3755(5) 0.0388(3)
H6_3 H 0.1343 0.3679 0.0628
N2_3 N 0.0337(4) 0.3814(3) 0.0675(2)
C19_3 C 0.1638(6) 0.3385(4) 0.2020(3)
H10_3 H 0.1915 0.3979 0.2024
C20_3 C 0.2075(6) 0.2986(4) 0.2227(3)
H11_3 H 0.2639 0.3307 0.2361
C21_3 C 0.1664(5) 0.2106(4) 0.2232(3)
C22_3 C 0.0837(6) 0.1656(4) 0.2012(3)
H12_3 H 0.0547 0.1062 0.2009
C23_3 C 0.0436(4) 0.2098(3) 0.1795(3)
C24_3 C 0.2097(6) 0.1651(4) 0.2480(3)
N4_3 N 0.0821(4) 0.2945(3) 0.1812(2)
C9_3 C 0.0513(6) 0.3931(4) 0.9398(3)
C10_3 C 0.1059(6) 0.3803(5) 0.9751(3)
H5_3 H 0.1495 0.3748 0.9567
C12_3 C 0.0625(6) 0.4008(4) 0.8698(2)
C1_3 C 0.8490(6) 0.3932(5) 0.1624(3)
H1_3 H 0.8428 0.3785 0.2043
C2_3 C 0.7986(6) 0.4228(4) 0.1381(3)
H2_3 H 0.7594 0.4281 0.1631
C3_3 C 0.8071(5) 0.4448(4) 0.0754(3)
C4_3 C 0.8652(5) 0.4356(4) 0.0402(3)
C5_3 C 0.9146(4) 0.4050(3) 0.0674(2)
C6_3 C 0.7591(6) 0.4840(4) 0.0452(3)
C7_3 C 0.9819(5) 0.3964(4) 0.0332(2)
C13_3 C 0.8362(6) 0.1747(4) 0.1314(3)
H7_3 H 0.8085 0.2064 0.1310
C14_3 C 0.7925(6) 0.0911(4) 0.1107(3)
H8_3 H 0.7361 0.0668 0.0973
C15_3 C 0.8336(5) 0.0442(3) 0.1102(3)
C16_3 C 0.9163(6) 0.0819(4) 0.1322(3)
H9_3 H 0.9453 0.0515 0.1325
C17_3 C 0.9564(4) 0.1662(3) 0.1539(3)
N1_3 N 0.9067(4) 0.3841(3) 0.1290(2)
N3_3 N 0.9179(4) 0.2124(3) 0.1522(2)
O1_2 O 0.7048(4) 0.4896(3) 0.0773(2)
C33_3 C 0.3931(7) 0.0513(6) 0.0602(3)
C34_3 C 0.3803(7) 0.1059(6) 0.0249(3)
H17_3 H 0.3748 0.1495 0.0433
C36_3 C 0.4008(7) 0.0625(6) 0.1302(2)
H3_3 H 0.8716 0.4498 0.9982
C8_3 C 0.9868(6) 0.4020(4) 0.9681(3)
H4_3 H 0.9488 0.4113 0.9448
O2_2 O 0.7799(4) 0.5091(3) 0.99105(18)
C35_3 C 0.3755(7) 0.0958(6) 0.9612(3)
H18_3 H 0.3679 0.1343 0.9372
C18_3 C 0.7903(6) 0.9554(4) 0.0854(3)
O5_3 O 0.7110(4) 0.9114(2) 0.0919(2)
O6_3 O 0.8362(4) 0.9325(3) 0.0574(3)
O7_3 O 0.5513(4) 0.8582(3) 0.1345(2)
O8_3 O 0.4471(4) 0.6698(3) 0.1120(2)
O9_3 O 0.5325(4) 0.4627(3) 0.0816(2)
O10_3 O 0.7714(5) 0.6350(4) 0.1589(2)
O11_3 O 0.9215(5) 0.8372(4) 0.0791(3)
O12_3 O 0.7189(3) 0.7471(2) 0.08691(17)
O14_3 O 0.5650(3) 0.6386(2) 0.03359(16)
O23_3 O 0.7931(4) 0.6712(3) 0.01736(17)
H15_3 H 0.4498 0.8716 0.0018
C32_3 C 0.4020(7) 0.9868(6) 0.0319(3)
H16_3 H 0.4113 0.9488 0.0552
O26_3 O 0.5091(5) 0.7799(4) 0.00895(18)
O13_3 O 0.6712(3) 0.7931(2) 0.98264(17)
O17_3 O 0.8582(5) 0.5513(4) 0.8655(2)
O18_3 O 0.6698(5) 0.4471(4) 0.8880(2)
O19_3 O 0.4627(5) 0.5325(4) 0.9184(2)
O20_3 O 0.6350(6) 0.7714(5) 0.8411(2)
O21_3 O 0.8372(6) 0.9215(5) 0.9209(3)
O22_3 O 0.7471(4) 0.7189(3) 0.91309(17)
O24_3 O 0.6386(4) 0.5650(3) 0.96641(16)
C25_3 C 0.3932(7) 0.8490(6) 0.8376(3)
H13_3 H 0.3785 0.8428 0.7957
C26_3 C 0.4228(7) 0.7986(6) 0.8619(3)
H14_3 H 0.4281 0.7594 0.8369
C27_3 C 0.4448(6) 0.8071(5) 0.9246(3)
C28_3 C 0.4356(6) 0.8652(5) 0.9598(3)
C29_3 C 0.4050(5) 0.9146(4) 0.9326(2)
C30_3 C 0.4840(7) 0.7591(6) 0.9548(3)
C31_3 C 0.3964(6) 0.9819(5) 0.9668(2)
O25_3 O 0.4896(5) 0.7048(4) 0.9227(2)
loop_
_geom_bond_atom_site_label_1
_geom_bond_atom_site_label_2
_geom_bond_site_symmetry_1
_geom_bond_site_symmetry_2
Gd2 O9 1_555 1_555
O10 Gd2 1_555 1_555
O11 Gd3 1_555 1_555
Gd4 O17 1_555 1_555
O18 Gd4 1_555 1_555
O22 Gd3 1_555 1_555
O23 Gd2 1_555 1_555
O24 Gd2 1_555 1_555
O29 Gd2 1_555 1_555
O30 Gd4 1_555 1_555
O34 Gd4 1_555 1_555
O35 Gd4 1_555 1_555
O36 Gd3 1_555 1_555
Gd3 O23 1_555 1_555
Gd4 O22 1_555 1_555
Gd4 O23 1_555 1_555
Gd4 O24 1_555 1_555
Gd1 O5 1_555 1_555
Gd3_2 O6 1_555 1_555
O5 C18 1_555 1_555
O6 C18 1_555 1_555
O7 Gd1 1_555 1_555
O8 Gd1 1_555 1_555
O12 Gd1 1_555 1_555
O13 Gd1 1_555 1_555
O14 Gd1 1_555 1_555
Gd5 O13 1_555 1_555
O19 Gd5 1_555 1_555
O20 Gd5 1_555 1_555
O21 Gd3_2 1_555 1_555
C25 H13 1_555 1_555
C26 C25 1_555 1_555
H14 C26 1_555 1_555
C27 C26 1_555 1_555
C28 C27 1_555 1_555
H15 C28 1_555 1_555
C29 C28 1_555 1_555
C30 C27 1_555 1_555
C31 C29 1_555 1_555
C32 C31 1_555 1_555
H16 C32 1_555 1_555
N5 C25 1_555 1_555
O25 Gd5 1_555 1_555
O26 Gd1 1_555 1_555
Mn2 N5 1_555 1_555
O33 Gd1 1_555 1_555
Gd3_2 O12 1_555 1_555
Gd3_2 O13 1_555 1_555
O14 Gd5 1_555 1_555
C29 N5 1_555 1_555
C30 O25 1_555 1_555
C30 O26 1_555 1_555
O15 C24 1_555 1_555
O16 C24 1_555 1_555
Gd9 O15 1_555 1_555
Gd13_2 O16 1_555 1_555
Mn1 N1 1_555 1_555
C1 H1 1_555 1_555
C2 C1 1_555 1_555
H2 C2 1_555 1_555
C3 C2 1_555 1_555
C4 C3 1_555 1_555
H3 C4 1_555 1_555
C5 C4 1_555 1_555
C6 C3 1_555 1_555
C7 C5 1_555 1_555
C8 C7 1_555 1_555
H4 C8 1_555 1_555
C9 C8 1_555 1_555
C10 C9 1_555 1_555
H5 C10 1_555 1_555
C11 C10 1_555 1_555
H6 C11 1_555 1_555
C12 C9 1_555 1_555
C13 H7 1_555 1_555
C14 C13 1_555 1_555
H8 C14 1_555 1_555
C15 C14 1_555 1_555
C16 C15 1_555 1_555
H9 C16 1_555 1_555
C17 C16 1_555 1_555
N1 C1 1_555 1_555
N2 Mn1 1_555 1_555
N3 Mn1 1_555 1_555
O29 C6 1_555 1_555
O30 C6 1_555 1_555
O3 C12 1_555 1_555
O4 C12 1_555 1_555
C19 H10 1_555 1_555
C20 C19 1_555 1_555
H11 C20 1_555 1_555
C21 C20 1_555 1_555
C22 C21 1_555 1_555
H12 C22 1_555 1_555
C23 C17 1_555 1_555
N4 Mn1 1_555 1_555
C34 C33 1_555 1_555
H17 C34 1_555 1_555
C35 C34 1_555 1_555
H18 C35 1_555 1_555
C36 C33 1_555 1_555
O27 C36 1_555 1_555
O28 C36 1_555 1_555
Gd6 O4 1_555 1_555
Gd9 O28 1_555 1_555
Gd11 O3 1_555 1_555
N7 Mn1 1_555 1_555
N8 Mn1 1_555 1_555
C5 N1 1_555 1_555
C7 N2 1_555 1_555
C11 N2 1_555 1_555
C13 N3 1_555 1_555
C17 N3 1_555 1_555
C19 N4 1_555 1_555
C22 C23 1_555 1_555
C23 N4 1_555 1_555
C35 N6 1_555 1_555
N6 Mn2_2 1_555 1_555
Gd1_2 O5_2 1_555 1_555
Gd13 O6_2 1_555 1_555
Mn1_2 N1_2 1_555 1_555
C1_2 H1_2 1_555 1_555
C2_2 C1_2 1_555 1_555
H2_2 C2_2 1_555 1_555
C3_2 C2_2 1_555 1_555
C4_2 C3_2 1_555 1_555
H3_2 C4_2 1_555 1_555
C5_2 C4_2 1_555 1_555
C6_2 C3_2 1_555 1_555
C7_2 C5_2 1_555 1_555
C8_2 C7_2 1_555 1_555
H4_2 C8_2 1_555 1_555
C13_2 H7_2 1_555 1_555
C14_2 C13_2 1_555 1_555
H8_2 C14_2 1_555 1_555
C15_2 C14_2 1_555 1_555
C16_2 C15_2 1_555 1_555
H9_2 C16_2 1_555 1_555
C17_2 C16_2 1_555 1_555
C18_2 C15_2 1_555 1_555
N1_2 C1_2 1_555 1_555
N3_2 Mn1_2 1_555 1_555
O1 C6_2 1_555 1_555
O2 C6_2 1_555 1_555
O5_2 C18_2 1_555 1_555
O6_2 C18_2 1_555 1_555
O7_2 Gd1_2 1_555 1_555
O8_2 Gd1_2 1_555 1_555
O12_2 Gd1_2 1_555 1_555
O13_2 Gd1_2 1_555 1_555
O14_2 Gd1_2 1_555 1_555
Gd12 O13_2 1_555 1_555
O19_2 Gd12 1_555 1_555
O20_2 Gd12 1_555 1_555
O21_2 Gd13 1_555 1_555
C25_2 H13_2 1_555 1_555
C26_2 C25_2 1_555 1_555
H14_2 C26_2 1_555 1_555
C27_2 C26_2 1_555 1_555
C28_2 C27_2 1_555 1_555
H15_2 C28_2 1_555 1_555
C29_2 C28_2 1_555 1_555
C30_2 C27_2 1_555 1_555
C31_2 C29_2 1_555 1_555
C32_2 C31_2 1_555 1_555
H16_2 C32_2 1_555 1_555
C33_2 C32_2 1_555 1_555
C34_2 C33_2 1_555 1_555
H17_2 C34_2 1_555 1_555
C35_2 C34_2 1_555 1_555
H18_2 C35_2 1_555 1_555
C36_2 C33_2 1_555 1_555
N7 C25_2 1_555 1_555
N8 C31_2 1_555 1_555
O25_2 Gd12 1_555 1_555
O26_2 Gd1_2 1_555 1_555
O27_2 C36_2 1_555 1_555
O28_2 C36_2 1_555 1_555
Gd9 O2 1_555 1_555
Gd8 O28_2 1_555 1_555
Gd10 O1 1_555 1_555
Gd12_2 O27_2 1_555 1_555
N8_2 Mn1_2 1_555 1_555
O33_2 Gd1_2 1_555 1_555
Gd13 O12_2 1_555 1_555
Gd13 O13_2 1_555 1_555
C5_2 N1_2 1_555 1_555
C13_2 N3_2 1_555 1_555
C17_2 N3_2 1_555 1_555
O14_2 Gd12 1_555 1_555
C29_2 N7 1_555 1_555
C30_2 O25_2 1_555 1_555
C30_2 O26_2 1_555 1_555
C35_2 N8 1_555 1_555
C10_2 C9_2 1_555 1_555
H5_2 C10_2 1_555 1_555
C11_2 C10_2 1_555 1_555
H6_2 C11_2 1_555 1_555
C12_2 C9_2 1_555 1_555
N2_2 Mn1_3 1_555 1_555
O31 C12_2 1_555 1_555
O33 C12_2 1_555 1_555
C19_2 H10_2 1_555 1_555
C20_2 C19_2 1_555 1_555
H11_2 C20_2 1_555 1_555
C21_2 C20_2 1_555 1_555
C22_2 C21_2 1_555 1_555
H12_2 C22_2 1_555 1_555
N4_2 Mn1_3 1_555 1_555
N7_2 Mn1_3 1_555 1_555
C11_2 N2_2 1_555 1_555
C19_2 N4_2 1_555 1_555
C22_2 C23_2 1_555 1_555
C23_2 N4_2 1_555 1_555
Gd10 O9_2 1_555 1_555
O10_2 Gd10 1_555 1_555
O11_2 Gd13_2 1_555 1_555
Gd9 O17_2 1_555 1_555
O18_2 Gd9 1_555 1_555
O22_2 Gd13_2 1_555 1_555
O23_2 Gd10 1_555 1_555
O24_2 Gd10 1_555 1_555
Gd13_2 O23_2 1_555 1_555
Gd9 O22_2 1_555 1_555
Gd9 O23_2 1_555 1_555
Gd9 O24_2 1_555 1_555
O15_2 C24_2 1_555 1_555
O16_2 C24_2 1_555 1_555
Gd8 O15_2 1_555 1_555
Gd13_4 O16_2 1_555 1_555
H6_3 C11_3 1_555 1_555
N2_3 Mn2 1_555 1_555
C19_3 H10_3 1_555 1_555
C20_3 C19_3 1_555 1_555
H11_3 C20_3 1_555 1_555
C21_3 C20_3 1_555 1_555
C22_3 C21_3 1_555 1_555
H12_3 C22_3 1_555 1_555
C24_3 C21_3 1_555 1_555
N4_3 Mn2 1_555 1_555
O35 C24_3 1_555 1_555
O36 C24_3 1_555 1_555
C11_3 N2_3 1_555 1_555
C19_3 N4_3 1_555 1_555
C22_3 C23_3 1_555 1_555
C23_3 N4_3 1_555 1_555
C10_3 C9_3 1_555 1_555
H5_3 C10_3 1_555 1_555
C12_3 C9_3 1_555 1_555
O31_2 C12_3 1_555 1_555
O33_2 C12_3 1_555 1_555
Mn2_2 N1_3 1_555 1_555
C1_3 H1_3 1_555 1_555
C2_3 C1_3 1_555 1_555
H2_3 C2_3 1_555 1_555
C3_3 C2_3 1_555 1_555
C4_3 C3_3 1_555 1_555
C5_3 C4_3 1_555 1_555
C6_3 C3_3 1_555 1_555
C7_3 C5_3 1_555 1_555
C13_3 H7_3 1_555 1_555
C14_3 C13_3 1_555 1_555
H8_3 C14_3 1_555 1_555
C15_3 C14_3 1_555 1_555
C16_3 C15_3 1_555 1_555
H9_3 C16_3 1_555 1_555
C17_3 C16_3 1_555 1_555
N1_3 C1_3 1_555 1_555
N3_3 Mn2_2 1_555 1_555
O1_2 C6_3 1_555 1_555
C34_3 C33_3 1_555 1_555
H17_3 C34_3 1_555 1_555
C36_3 C33_3 1_555 1_555
O32 C36_3 1_555 1_555
O34 C36_3 1_555 1_555
Gd11 O1_2 1_555 1_555
C5_3 N1_3 1_555 1_555
C13_3 N3_3 1_555 1_555
C17_3 N3_3 1_555 1_555
H4_3 C8_3 1_555 1_555
H18_3 C35_3 1_555 1_555
Gd8 O2_2 1_555 1_555
C35_3 N8_2 1_555 1_555
Gd6 O5_3 1_555 1_555
Gd11 O9_3 1_555 1_555
Gd13_3 O6_3 1_555 1_555
O5_3 C18_3 1_555 1_555
O6_3 C18_3 1_555 1_555
O7_3 Gd6 1_555 1_555
O8_3 Gd6 1_555 1_555
O10_3 Gd11 1_555 1_555
O11_3 Gd13_3 1_555 1_555
O12_3 Gd6 1_555 1_555
O14_3 Gd6 1_555 1_555
O23_3 Gd11 1_555 1_555
H16_3 C32_3 1_555 1_555
O26_3 Gd6 1_555 1_555
Gd11 O12_3 1_555 1_555
Gd11 O14_3 1_555 1_555
Gd13_3 O12_3 1_555 1_555
Gd13_3 O23_3 1_555 1_555
Gd8 O17_3 1_555 1_555
Gd12_2 O13_3 1_555 1_555
O18_3 Gd8 1_555 1_555
O19_3 Gd12_2 1_555 1_555
O20_3 Gd12_2 1_555 1_555
O21_3 Gd13_4 1_555 1_555
O22_3 Gd13_4 1_555 1_555
C25_3 H13_3 1_555 1_555
C26_3 C25_3 1_555 1_555
H14_3 C26_3 1_555 1_555
C27_3 C26_3 1_555 1_555
C28_3 C27_3 1_555 1_555
C29_3 C28_3 1_555 1_555
C30_3 C27_3 1_555 1_555
C31_3 C29_3 1_555 1_555
N7_2 C25_3 1_555 1_555
O25_3 Gd12_2 1_555 1_555
Gd13_4 O13_3 1_555 1_555
Gd8 O22_3 1_555 1_555
Gd8 O24_3 1_555 1_555
Gd12_2 O22_3 1_555 1_555
Gd12_2 O24_3 1_555 1_555
C29_3 N7_2 1_555 1_555
C30_3 O25_3 1_555 1_555

#END
