
###############################################################################
#
# This file contains modified crystal structure data generated from the
# MOF subset of the Cambridge Structural Database (CSD) v543 
# hosted by the Cambridge Crystallographic Data Centre (CCDC).
#
# This work is licensed under the Creative Commons
# Attribution-NonCommercial-ShareAlike 4.0 International License.
# To view a copy of this license, visit
# http://creativecommons.org/licenses/by-nc-sa/4.0/
# or send a letter to
# Creative Commons, PO Box 1866, Mountain View, CA 94042, USA.
#
# CIF created using the CSD Python API on 29 September 2022
# The structure has been converted into the P1 space group
# The structure has a 3D framework
# The original CSD entry KAXJUR is in the monoclinic crystal system
# The framework has been calculated to contain at least 10.0% void space
# The void calculation uses a probe of radius 1.32A, grid spacing 0.4
#
###############################################################################

data_KAXJUR
_chemical_formula_moiety         '(C128 H80 N32 O30 Zn8)n'
_symmetry_cell_setting           triclinic
_symmetry_space_group_name_H-M   'P 1'
_symmetry_Int_Tables_number      1
_space_group_name_Hall           'P 1'
loop_
_symmetry_equiv_pos_site_id
_symmetry_equiv_pos_as_xyz
1 x,y,z
_cell_length_a                   22.5432(16)
_cell_length_b                   7.6652(4)
_cell_length_c                   22.7737(11)
_cell_angle_alpha                90
_cell_angle_beta                 102.378(6)
_cell_angle_gamma                90
_cell_volume                     3843.78
loop_
_atom_site_label
_atom_site_type_symbol
_atom_site_fract_x
_atom_site_fract_y
_atom_site_fract_z
H3 H 0.1661 0.0971 0.3287
C12 C 0.01400(19) 0.0343(6) 0.3523(2)
H4 H 0.0341 0.1408 0.3589
Zn4 Zn 0.25292(2) 0.02367(6) 0.23311(2)
Zn1 Zn 0.24708(2) 0.52367(6) 0.26689(2)
Zn2 Zn 0.24537(2) 0.43277(6) 0.73141(2)
O1 O 0.27170(15) 0.3987(5) 0.34773(14)
O2 O 0.29596(15) 0.1318(5) 0.31954(13)
O3 O 0.66565(14) 0.1242(5) 0.76039(15)
O4 O 0.67222(14) 0.3341(5) 0.69427(16)
N1 N 0.19757(15) 0.7195(5) 0.30145(15)
N2 N 0.20202(16) 0.8974(5) 0.29180(15)
N3 N 0.28830(16) 0.0468(5) 0.69686(16)
N4 N 0.14667(15) 0.8564(4) 0.35790(14)
N5 N 0.10903(14) 0.8931(5) 0.39830(15)
N6 N 0.35210(15) 0.1116(5) 0.64151(14)
N7 N 0.29127(16) 0.2281(5) 0.69247(16)
N8 N 0.39492(15) 0.0897(5) 0.60503(15)
O6 O 0.23040(18) 0.5912(5) 0.66062(17)
O8 O 0.1350(2) 0.6318(6) 0.66959(19)
C2 C 0.32103(18) 0.2057(6) 0.42282(17)
C3 C 0.29383(19) 0.2483(6) 0.35762(19)
C5 C 0.37035(18) 0.1340(6) 0.54256(18)
C6 C 0.45576(17) 0.1345(6) 0.63362(18)
C9 C 0.04460(17) 0.8802(6) 0.36972(18)
C10 C 0.17084(18) 0.9770(6) 0.32632(18)
C11 C 0.57772(18) 0.1930(6) 0.68744(19)
C13 C 0.4763(2) 0.1105(7) 0.69545(19)
H5 H 0.4493 0.0772 0.7191
C14 C 0.1302(2) 0.8308(6) 0.45829(18)
C15 C 0.64386(19) 0.2188(6) 0.7160(2)
C16 C 0.16388(18) 0.6964(5) 0.34075(18)
H6 H 0.1533 0.5893 0.3548
C17 C 0.5369(2) 0.1367(7) 0.72121(19)
H7 H 0.5508 0.1161 0.7621
C19 C 0.55645(19) 0.2228(6) 0.6263(2)
H9 H 0.5829 0.2651 0.6034
C20 C 0.49659(19) 0.1905(6) 0.59899(19)
H10 H 0.4834 0.2060 0.5577
C21 C 0.3327(2) 0.0349(6) 0.44147(19)
C23 C 0.3345(2) 0.3423(6) 0.4639(2)
H13 H 0.3268 0.4569 0.4511
C24 C 0.33030(19) 0.2639(6) 0.65967(19)
H14 H 0.3416 0.3753 0.6501
C25 C 0.3596(2) 0.3064(6) 0.52436(19)
H15 H 0.3690 0.3967 0.5520
C26 C 0.1618(3) 0.7179(7) 0.5764(2)
C27 C 0.1045(3) 0.7668(8) 0.5541(2)
H16 H 0.0760 0.7639 0.5782
C28 C 0.0880(3) 0.8212(7) 0.4955(2)
H17 H 0.0478 0.8526 0.4800
C29 C 0.1898(2) 0.7868(7) 0.4811(2)
H18 H 0.2188 0.7953 0.4577
C30 C 0.1781(3) 0.6425(8) 0.6418(3)
C31 C 0.2057(2) 0.7264(7) 0.5431(3)
H19 H 0.2454 0.6939 0.5600
C32 C 0.0160(2) 0.7186(6) 0.3604(2)
H20 H 0.0374 0.6162 0.3722
Zn5 Zn 0.75292(2) 0.47633(6) 0.73311(2)
O9 O 0.20404(15) 0.6318(5) 0.18046(13)
O10 O 0.16565(14) 0.3758(5) 0.26039(15)
O11 O 0.32778(14) 0.6659(5) 0.30573(16)
N9 N 0.29798(16) 0.3974(5) 0.20820(15)
N10 N 0.21170(16) 0.5468(5) 0.80314(16)
O12 O 0.33121(15) 0.4928(5) 0.77236(19)
O13 O 0.16937(15) 0.2807(5) 0.71930(19)
C7 C 0.32490(19) 0.9802(6) 0.66557(18)
H1 H 0.3313 0.8618 0.6606
H11 H 0.3243 0.9444 0.4137
C22 C 0.3570(2) 0.9983(6) 0.50153(19)
H12 H 0.3643 0.8834 0.5142
Zn6 Zn 0.74708(2) 0.97633(6) 0.76689(2)
Zn7 Zn 0.25463(2) 0.93277(6) 0.76859(2)
O5 O 0.83121(15) 0.0072(5) 0.27236(19)
C8 C 0.95271(19) 0.0279(6) 0.3247(2)
H2 H 0.9317 0.1304 0.3123
Zn9 Zn 0.74537(2) 0.06723(6) 0.23141(2)
O7 O 0.83063(15) 0.7193(5) 0.28070(19)
C1 C 0.92270(18) 0.8676(6) 0.31567(18)
C4 C 0.85575(19) 0.8634(6) 0.28727(18)
C18 C 0.9545(2) 0.7144(6) 0.3330(2)
H8 H 0.9345 0.6078 0.3262
Zn8 Zn 0.75463(2) 0.56723(6) 0.26859(2)
N1_2 N 0.30243(15) 0.2195(5) 0.19855(15)
N4_2 N 0.35333(15) 0.3564(4) 0.14210(14)
N5_2 N 0.39097(14) 0.3931(5) 0.10170(15)
O5_2 O 0.66879(15) 0.5072(5) 0.22764(19)
O7_2 O 0.66937(15) 0.2193(5) 0.21930(19)
C1_2 C 0.57730(18) 0.3676(6) 0.18433(18)
C4_2 C 0.64425(19) 0.3634(6) 0.21273(18)
C8_2 C 0.54729(19) 0.5279(6) 0.1753(2)
H2_2 H 0.5683 0.6304 0.1877
C9_2 C 0.45540(17) 0.3802(6) 0.13028(18)
C10_2 C 0.32916(18) 0.4770(6) 0.17368(18)
H3_2 H 0.3339 0.5971 0.1713
C12_2 C 0.48600(19) 0.5343(6) 0.1477(2)
H4_2 H 0.4659 0.6408 0.1411
C14_2 C 0.3698(2) 0.3308(6) 0.04171(18)
C16_2 C 0.33612(18) 0.1964(5) 0.15925(18)
H6_2 H 0.3467 0.0893 0.1452
C18_2 C 0.5455(2) 0.2144(6) 0.1670(2)
H8_2 H 0.5655 0.1078 0.1738
C28_2 C 0.4120(3) 0.3212(7) 0.0045(2)
H17_2 H 0.4522 0.3526 0.0200
C29_2 C 0.3102(2) 0.2868(7) 0.0189(2)
H18_2 H 0.2812 0.2953 0.0423
C32_2 C 0.4840(2) 0.2186(6) 0.1396(2)
H20_2 H 0.4626 0.1162 0.1278
O11_2 O 0.17222(14) 0.1659(5) 0.19427(16)
O6_2 O 0.26960(18) 0.0912(5) 0.83938(17)
O8_2 O 0.3650(2) 0.1318(6) 0.83041(19)
C26_2 C 0.3382(3) 0.2179(7) 0.9236(2)
C27_2 C 0.3955(3) 0.2668(8) 0.9459(2)
H16_2 H 0.4240 0.2639 0.9218
C30_2 C 0.3219(3) 0.1425(8) 0.8582(3)
C31_2 C 0.2943(2) 0.2264(7) 0.9569(3)
H19_2 H 0.2546 0.1939 0.9400
O1_2 O 0.22830(15) 0.8987(5) 0.15227(14)
C2_2 C 0.17897(18) 0.7057(6) 0.07718(17)
C3_2 C 0.20617(19) 0.7483(6) 0.14238(19)
C21_2 C 0.1673(2) 0.5349(6) 0.05853(19)
H11_2 H 0.1757 0.4444 0.0863
C23_2 C 0.1655(2) 0.8423(6) 0.0361(2)
H13_2 H 0.1732 0.9569 0.0489
O10_2 O 0.33435(14) 0.8758(5) 0.23961(15)
N6_2 N 0.14790(15) 0.6116(5) 0.85849(14)
N7_2 N 0.20873(16) 0.7281(5) 0.80753(16)
N8_2 N 0.10508(15) 0.5897(5) 0.89497(15)
C5_2 C 0.12965(18) 0.6340(6) 0.95744(18)
C6_2 C 0.04424(17) 0.6345(6) 0.86638(18)
C7_2 C 0.17510(19) 0.4802(6) 0.83443(18)
H1_2 H 0.1687 0.3618 0.8394
C13_2 C 0.0237(2) 0.6105(7) 0.80455(19)
H5_2 H 0.0507 0.5772 0.7809
C20_2 C 0.00341(19) 0.6905(6) 0.90101(19)
H10_2 H 0.0166 0.7060 0.9423
C22_2 C 0.1430(2) 0.4983(6) 0.99847(19)
H12_2 H 0.1357 0.3834 0.9858
C24_2 C 0.16970(19) 0.7639(6) 0.84033(19)
H14_2 H 0.1584 0.8753 0.8499
C25_2 C 0.1404(2) 0.8064(6) 0.97564(19)
H15_2 H 0.1310 0.8967 0.9480
O12_2 O 0.16879(15) 0.9928(5) 0.72764(19)
O13_2 O 0.33063(15) 0.7807(5) 0.78070(19)
O3_2 O 0.83435(14) 0.6242(5) 0.73961(15)
O4_2 O 0.82778(14) 0.8341(5) 0.80573(16)
C11_2 C 0.92228(18) 0.6930(6) 0.81256(19)
C15_2 C 0.85614(19) 0.7188(6) 0.7840(2)
C17_2 C 0.9631(2) 0.6367(7) 0.77879(19)
H7_2 H 0.9492 0.6161 0.7379
C19_2 C 0.94355(19) 0.7228(6) 0.8737(2)
H9_2 H 0.9171 0.7651 0.8966
C1_3 C 0.07730(18) 0.1324(6) 0.68433(18)
C4_3 C 0.14425(19) 0.1366(6) 0.71273(18)
C18_3 C 0.0455(2) 0.2856(6) 0.6670(2)
H8_3 H 0.0655 0.3922 0.6738
C8_3 C 0.04729(19) 0.9721(6) 0.6753(2)
H2_3 H 0.0683 0.8696 0.6877
C7_3 C 0.67510(19) 0.0198(6) 0.33443(18)
H1_3 H 0.6687 0.1382 0.3394
H11_3 H 0.6757 0.0556 0.5863
C22_3 C 0.6430(2) 0.0017(6) 0.49847(19)
H12_3 H 0.6357 0.1166 0.4858
O1_3 O 0.72830(15) 0.6013(5) 0.65227(14)
O2_2 O 0.70404(15) 0.8682(5) 0.68046(13)
N1_3 N 0.80243(15) 0.2805(5) 0.69855(15)
N2_2 N 0.79798(16) 0.1026(5) 0.70820(15)
N3_2 N 0.71170(16) 0.9532(5) 0.30314(16)
N4_3 N 0.85333(15) 0.1436(4) 0.64210(14)
N5_3 N 0.89097(14) 0.1069(5) 0.60170(15)
N6_3 N 0.64790(15) 0.8884(5) 0.35849(14)
N7_3 N 0.70873(16) 0.7719(5) 0.30753(16)
N8_3 N 0.60508(15) 0.9103(5) 0.39497(15)
O6_3 O 0.76960(18) 0.4088(5) 0.33938(17)
O8_3 O 0.8650(2) 0.3682(6) 0.33041(19)
C2_3 C 0.67897(18) 0.7943(6) 0.57718(17)
C3_3 C 0.70617(19) 0.7517(6) 0.64238(19)
C5_3 C 0.62965(18) 0.8660(6) 0.45744(18)
C6_3 C 0.54424(17) 0.8655(6) 0.36638(18)
C9_3 C 0.95540(17) 0.1198(6) 0.63028(18)
C10_3 C 0.82916(18) 0.0230(6) 0.67368(18)
C11_3 C 0.42228(18) 0.8070(6) 0.31256(19)
C13_3 C 0.5237(2) 0.8895(7) 0.30455(19)
H5_3 H 0.5507 0.9228 0.2809
C14_3 C 0.8698(2) 0.1692(6) 0.54171(18)
C15_3 C 0.35614(19) 0.7812(6) 0.2840(2)
C16_3 C 0.83612(18) 0.3036(5) 0.65925(18)
H6_3 H 0.8467 0.4107 0.6452
C17_3 C 0.4631(2) 0.8633(7) 0.27879(19)
H7_3 H 0.4492 0.8839 0.2379
C19_3 C 0.44355(19) 0.7772(6) 0.3737(2)
H9_3 H 0.4171 0.7349 0.3966
C20_3 C 0.50341(19) 0.8095(6) 0.40101(19)
H10_3 H 0.5166 0.7940 0.4423
C21_3 C 0.6673(2) 0.9651(6) 0.55853(19)
C23_3 C 0.6655(2) 0.6577(6) 0.5361(2)
H13_3 H 0.6732 0.5431 0.5489
C24_3 C 0.66970(19) 0.7361(6) 0.34033(19)
H14_3 H 0.6584 0.6247 0.3499
C25_3 C 0.6404(2) 0.6936(6) 0.47564(19)
H15_3 H 0.6310 0.6033 0.4480
C26_3 C 0.8382(3) 0.2821(7) 0.4236(2)
C27_3 C 0.8955(3) 0.2332(8) 0.4459(2)
H16_3 H 0.9240 0.2361 0.4218
C28_3 C 0.9120(3) 0.1788(7) 0.5045(2)
H17_3 H 0.9522 0.1474 0.5200
C29_3 C 0.8102(2) 0.2132(7) 0.5189(2)
H18_3 H 0.7812 0.2047 0.5423
C30_3 C 0.8219(3) 0.3575(8) 0.3582(3)
C31_3 C 0.7943(2) 0.2736(7) 0.4569(3)
H19_3 H 0.7546 0.3061 0.4400
C32_3 C 0.9840(2) 0.2814(6) 0.6396(2)
H20_3 H 0.9626 0.3838 0.6278
O9_2 O 0.79596(15) 0.3682(5) 0.81954(13)
N9_2 N 0.70202(16) 0.6026(5) 0.79180(15)
N10_2 N 0.78830(16) 0.4532(5) 0.19686(16)
H3_3 H 0.8339 0.9029 0.6713
C12_3 C 0.98600(19) 0.9657(6) 0.6477(2)
H4_3 H 0.9659 0.8592 0.6411
C11_4 C 0.07772(18) 0.3070(6) 0.18744(19)
C15_4 C 0.14386(19) 0.2812(6) 0.2160(2)
C17_4 C 0.0369(2) 0.3633(7) 0.22121(19)
H7_4 H 0.0508 0.3839 0.2621
C19_4 C 0.05645(19) 0.2772(6) 0.1263(2)
H9_4 H 0.0829 0.2349 0.1034
N6_4 N 0.85210(15) 0.3884(5) 0.14151(14)
N7_4 N 0.79127(16) 0.2719(5) 0.19247(16)
N8_4 N 0.89492(15) 0.4103(5) 0.10503(15)
C5_4 C 0.87035(18) 0.3660(6) 0.04256(18)
C6_4 C 0.95576(17) 0.3655(6) 0.13362(18)
C7_4 C 0.82490(19) 0.5198(6) 0.16557(18)
H1_4 H 0.8313 0.6382 0.1606
C13_4 C 0.9763(2) 0.3895(7) 0.19545(19)
H5_4 H 0.9493 0.4228 0.2191
C20_4 C 0.99659(19) 0.3095(6) 0.09899(19)
H10_4 H 0.9834 0.2940 0.0577
C22_4 C 0.8570(2) 0.5017(6) 0.00153(19)
H12_4 H 0.8643 0.6166 0.0142
C24_4 C 0.83030(19) 0.2361(6) 0.15967(19)
H14_4 H 0.8416 0.1247 0.1501
C25_4 C 0.8596(2) 0.1936(6) 0.02436(19)
H15_4 H 0.8690 0.1033 0.0520
O1_4 O 0.77170(15) 0.1013(5) 0.84773(14)
C2_4 C 0.82103(18) 0.2943(6) 0.92282(17)
C3_4 C 0.79383(19) 0.2517(6) 0.85762(19)
C21_4 C 0.8327(2) 0.4651(6) 0.94147(19)
H11_4 H 0.8243 0.5556 0.9137
C23_4 C 0.8345(2) 0.1577(6) 0.9639(2)
H13_4 H 0.8268 0.0431 0.9511
O6_4 O 0.73040(18) 0.9088(5) 0.16062(17)
O8_4 O 0.6350(2) 0.8682(6) 0.16959(19)
C26_4 C 0.6618(3) 0.7821(7) 0.0764(2)
C27_4 C 0.6045(3) 0.7332(8) 0.0541(2)
H16_4 H 0.5760 0.7361 0.0782
C30_4 C 0.6781(3) 0.8575(8) 0.1418(3)
C31_4 C 0.7057(2) 0.7736(7) 0.0431(3)
H19_4 H 0.7454 0.8061 0.0600
N1_4 N 0.69757(15) 0.7805(5) 0.80145(15)
N4_4 N 0.64667(15) 0.6436(4) 0.85790(14)
N5_4 N 0.60903(14) 0.6069(5) 0.89830(15)
C1_4 C 0.42270(18) 0.6324(6) 0.81567(18)
C4_4 C 0.35575(19) 0.6366(6) 0.78727(18)
C8_4 C 0.45271(19) 0.4721(6) 0.8247(2)
H2_4 H 0.4317 0.3696 0.8123
C9_4 C 0.54460(17) 0.6198(6) 0.86972(18)
C10_4 C 0.67084(18) 0.5230(6) 0.82632(18)
H3_4 H 0.6661 0.4029 0.8287
C12_4 C 0.51400(19) 0.4657(6) 0.8523(2)
H4_4 H 0.5341 0.3592 0.8589
C14_4 C 0.6302(2) 0.6692(6) 0.95829(18)
C16_4 C 0.66388(18) 0.8036(5) 0.84075(18)
H6_4 H 0.6533 0.9107 0.8548
C18_4 C 0.4545(2) 0.7856(6) 0.8330(2)
H8_4 H 0.4345 0.8922 0.8262
C28_4 C 0.5880(3) 0.6788(7) 0.9955(2)
H17_4 H 0.5478 0.6474 0.9800
C29_4 C 0.6898(2) 0.7132(7) 0.9811(2)
H18_4 H 0.7188 0.7047 0.9577
C32_4 C 0.5160(2) 0.7814(6) 0.8604(2)
H20_4 H 0.5374 0.8838 0.8722
loop_
_geom_bond_atom_site_label_1
_geom_bond_atom_site_label_2
_geom_bond_site_symmetry_1
_geom_bond_site_symmetry_2
H4 C12 1_555 1_555
Zn1 O1 1_555 1_555
Zn2 N7 1_555 1_555
O1 C3 1_555 1_555
O2 C3 1_555 1_555
O3 C15 1_555 1_555
O4 C15 1_555 1_555
N1 Zn1 1_555 1_555
N2 N1 1_555 1_555
N3 N7 1_555 1_555
N4 N5 1_555 1_555
N5 C9 1_555 1_555
N6 N8 1_555 1_555
N7 C24 1_555 1_555
N8 C5 1_555 1_555
O6 Zn2 1_555 1_555
O8 C30 1_555 1_555
C2 C3 1_555 1_555
C6 N8 1_555 1_555
C10 N2 1_555 1_555
C11 C15 1_555 1_555
C13 C6 1_555 1_555
H5 C13 1_555 1_555
C14 N5 1_555 1_555
C16 N1 1_555 1_555
H6 C16 1_555 1_555
C17 C11 1_555 1_555
H7 C17 1_555 1_555
C19 C11 1_555 1_555
H9 C19 1_555 1_555
C20 C6 1_555 1_555
H10 C20 1_555 1_555
C21 C2 1_555 1_555
C23 C2 1_555 1_555
H13 C23 1_555 1_555
C24 N6 1_555 1_555
H14 C24 1_555 1_555
C25 C5 1_555 1_555
H15 C25 1_555 1_555
C26 C27 1_555 1_555
C27 H16 1_555 1_555
C28 C14 1_555 1_555
H17 C28 1_555 1_555
C29 C14 1_555 1_555
H18 C29 1_555 1_555
C30 O6 1_555 1_555
C31 C26 1_555 1_555
H19 C31 1_555 1_555
C32 C9 1_555 1_555
H20 C32 1_555 1_555
Zn4 O2 1_555 1_555
Zn5 O4 1_555 1_555
O9 Zn1 1_555 1_555
O10 Zn1 1_555 1_555
O11 Zn1 1_555 1_555
N9 Zn1 1_555 1_555
N10 Zn2 1_555 1_555
O12 Zn2 1_555 1_555
O13 Zn2 1_555 1_555
N4 C10 1_555 1_555
N4 C16 1_555 1_555
C13 C17 1_555 1_555
C19 C20 1_555 1_555
C23 C25 1_555 1_555
C26 C30 1_555 1_555
C27 C28 1_555 1_555
C29 C31 1_555 1_555
H1 C7 1_555 1_555
H12 C22 1_555 1_555
H2 C8 1_555 1_555
Zn9 O5 1_555 1_555
O7 C4 1_555 1_555
C1 C4 1_555 1_555
C18 C1 1_555 1_555
H8 C18 1_555 1_555
Zn8 O7 1_555 1_555
N1_2 Zn4 1_555 1_555
N9 N1_2 1_555 1_555
N4_2 N5_2 1_555 1_555
N5_2 C9_2 1_555 1_555
O5_2 C4_2 1_555 1_555
O7_2 C4_2 1_555 1_555
C1_2 C4_2 1_555 1_555
C8_2 C1_2 1_555 1_555
H2_2 C8_2 1_555 1_555
C9_2 C12_2 1_555 1_555
C10_2 N9 1_555 1_555
H3_2 C10_2 1_555 1_555
C12_2 C8_2 1_555 1_555
H4_2 C12_2 1_555 1_555
C14_2 N5_2 1_555 1_555
C16_2 N1_2 1_555 1_555
H6_2 C16_2 1_555 1_555
C18_2 C1_2 1_555 1_555
H8_2 C18_2 1_555 1_555
C28_2 C14_2 1_555 1_555
H17_2 C28_2 1_555 1_555
C29_2 C14_2 1_555 1_555
H18_2 C29_2 1_555 1_555
C32_2 C9_2 1_555 1_555
H20_2 C32_2 1_555 1_555
Zn9 O7_2 1_555 1_555
Zn8 O5_2 1_555 1_555
O11_2 Zn4 1_555 1_555
N4_2 C10_2 1_555 1_555
N4_2 C16_2 1_555 1_555
C18_2 C32_2 1_555 1_555
O8_2 C30_2 1_555 1_555
C26_2 C27_2 1_555 1_555
C27_2 H16_2 1_555 1_555
C30_2 O6_2 1_555 1_555
C31_2 C26_2 1_555 1_555
H19_2 C31_2 1_555 1_555
C26_2 C30_2 1_555 1_555
O1_2 C3_2 1_555 1_555
O9 C3_2 1_555 1_555
C2_2 C3_2 1_555 1_555
C21_2 C2_2 1_555 1_555
H11_2 C21_2 1_555 1_555
C23_2 C2_2 1_555 1_555
H13_2 C23_2 1_555 1_555
Zn7 N7_2 1_555 1_555
N10 N7_2 1_555 1_555
N6_2 N8_2 1_555 1_555
N7_2 C24_2 1_555 1_555
N8_2 C5_2 1_555 1_555
C5_2 C22_2 1_555 1_555
C6_2 N8_2 1_555 1_555
C7_2 N10 1_555 1_555
H1_2 C7_2 1_555 1_555
C13_2 C6_2 1_555 1_555
H5_2 C13_2 1_555 1_555
C20_2 C6_2 1_555 1_555
H10_2 C20_2 1_555 1_555
H12_2 C22_2 1_555 1_555
C24_2 N6_2 1_555 1_555
H14_2 C24_2 1_555 1_555
C25_2 C5_2 1_555 1_555
H15_2 C25_2 1_555 1_555
O12_2 Zn7 1_555 1_555
O13_2 Zn7 1_555 1_555
N6_2 C7_2 1_555 1_555
O3_2 C15_2 1_555 1_555
O4_2 C15_2 1_555 1_555
C11_2 C15_2 1_555 1_555
C17_2 C11_2 1_555 1_555
H7_2 C17_2 1_555 1_555
C19_2 C11_2 1_555 1_555
H9_2 C19_2 1_555 1_555
Zn6 O4_2 1_555 1_555
Zn5 O3_2 1_555 1_555
O13 C4_3 1_555 1_555
C1_3 C4_3 1_555 1_555
C18_3 C1_3 1_555 1_555
H8_3 C18_3 1_555 1_555
H2_3 C8_3 1_555 1_555
H1_3 C7_3 1_555 1_555
H12_3 C22_3 1_555 1_555
Zn5 O1_3 1_555 1_555
Zn8 N7_3 1_555 1_555
O1_3 C3_3 1_555 1_555
O2_2 C3_3 1_555 1_555
O10_2 C15_3 1_555 1_555
O11 C15_3 1_555 1_555
N1_3 Zn5 1_555 1_555
N2_2 N1_3 1_555 1_555
N3_2 N7_3 1_555 1_555
N4_3 N5_3 1_555 1_555
N5_3 C9_3 1_555 1_555
N6_3 N8_3 1_555 1_555
N7_3 C24_3 1_555 1_555
N8_3 C5_3 1_555 1_555
O6_3 Zn8 1_555 1_555
O8_3 C30_3 1_555 1_555
C2_3 C3_3 1_555 1_555
C6_3 N8_3 1_555 1_555
C10_3 N2_2 1_555 1_555
C11_3 C15_3 1_555 1_555
C13_3 C6_3 1_555 1_555
H5_3 C13_3 1_555 1_555
C14_3 N5_3 1_555 1_555
C16_3 N1_3 1_555 1_555
H6_3 C16_3 1_555 1_555
C17_3 C11_3 1_555 1_555
H7_3 C17_3 1_555 1_555
C19_3 C11_3 1_555 1_555
H9_3 C19_3 1_555 1_555
C20_3 C6_3 1_555 1_555
H10_3 C20_3 1_555 1_555
C21_3 C2_3 1_555 1_555
C23_3 C2_3 1_555 1_555
H13_3 C23_3 1_555 1_555
C24_3 N6_3 1_555 1_555
H14_3 C24_3 1_555 1_555
C25_3 C5_3 1_555 1_555
H15_3 C25_3 1_555 1_555
C26_3 C27_3 1_555 1_555
C27_3 H16_3 1_555 1_555
C28_3 C14_3 1_555 1_555
H17_3 C28_3 1_555 1_555
C29_3 C14_3 1_555 1_555
H18_3 C29_3 1_555 1_555
C30_3 O6_3 1_555 1_555
C31_3 C26_3 1_555 1_555
H19_3 C31_3 1_555 1_555
C32_3 C9_3 1_555 1_555
H20_3 C32_3 1_555 1_555
Zn6 O2_2 1_555 1_555
O9_2 Zn5 1_555 1_555
N9_2 Zn5 1_555 1_555
N10_2 Zn8 1_555 1_555
N4_3 C10_3 1_555 1_555
N4_3 C16_3 1_555 1_555
C13_3 C17_3 1_555 1_555
C19_3 C20_3 1_555 1_555
C23_3 C25_3 1_555 1_555
C26_3 C30_3 1_555 1_555
C27_3 C28_3 1_555 1_555
C29_3 C31_3 1_555 1_555
H4_3 C12_3 1_555 1_555
O10 C15_4 1_555 1_555
O11_2 C15_4 1_555 1_555
C11_4 C15_4 1_555 1_555
C17_4 C11_4 1_555 1_555
H7_4 C17_4 1_555 1_555
C19_4 C11_4 1_555 1_555
H9_4 C19_4 1_555 1_555
Zn9 N7_4 1_555 1_555
N10_2 N7_4 1_555 1_555
N6_4 N8_4 1_555 1_555
N7_4 C24_4 1_555 1_555
N8_4 C5_4 1_555 1_555
C5_4 C22_4 1_555 1_555
C6_4 N8_4 1_555 1_555
C7_4 N10_2 1_555 1_555
H1_4 C7_4 1_555 1_555
C13_4 C6_4 1_555 1_555
H5_4 C13_4 1_555 1_555
C20_4 C6_4 1_555 1_555
H10_4 C20_4 1_555 1_555
H12_4 C22_4 1_555 1_555
C24_4 N6_4 1_555 1_555
H14_4 C24_4 1_555 1_555
C25_4 C5_4 1_555 1_555
H15_4 C25_4 1_555 1_555
N6_4 C7_4 1_555 1_555
O1_4 C3_4 1_555 1_555
O9_2 C3_4 1_555 1_555
C2_4 C3_4 1_555 1_555
C21_4 C2_4 1_555 1_555
H11_4 C21_4 1_555 1_555
C23_4 C2_4 1_555 1_555
H13_4 C23_4 1_555 1_555
O8_4 C30_4 1_555 1_555
C26_4 C27_4 1_555 1_555
C27_4 H16_4 1_555 1_555
C30_4 O6_4 1_555 1_555
C31_4 C26_4 1_555 1_555
H19_4 C31_4 1_555 1_555
C26_4 C30_4 1_555 1_555
N1_4 Zn6 1_555 1_555
N9_2 N1_4 1_555 1_555
N4_4 N5_4 1_555 1_555
N5_4 C9_4 1_555 1_555
O12 C4_4 1_555 1_555
O13_2 C4_4 1_555 1_555
C1_4 C4_4 1_555 1_555
C8_4 C1_4 1_555 1_555
H2_4 C8_4 1_555 1_555
C9_4 C12_4 1_555 1_555
C10_4 N9_2 1_555 1_555
H3_4 C10_4 1_555 1_555
C12_4 C8_4 1_555 1_555
H4_4 C12_4 1_555 1_555
C14_4 N5_4 1_555 1_555
C16_4 N1_4 1_555 1_555
H6_4 C16_4 1_555 1_555
C18_4 C1_4 1_555 1_555
H8_4 C18_4 1_555 1_555
C28_4 C14_4 1_555 1_555
H17_4 C28_4 1_555 1_555
C29_4 C14_4 1_555 1_555
H18_4 C29_4 1_555 1_555
C32_4 C9_4 1_555 1_555
H20_4 C32_4 1_555 1_555
N4_4 C10_4 1_555 1_555
N4_4 C16_4 1_555 1_555
C18_4 C32_4 1_555 1_555

#END
