
###############################################################################
#
# This file contains modified crystal structure data generated from the
# MOF subset of the Cambridge Structural Database (CSD) v543 
# hosted by the Cambridge Crystallographic Data Centre (CCDC).
#
# This work is licensed under the Creative Commons
# Attribution-NonCommercial-ShareAlike 4.0 International License.
# To view a copy of this license, visit
# http://creativecommons.org/licenses/by-nc-sa/4.0/
# or send a letter to
# Creative Commons, PO Box 1866, Mountain View, CA 94042, USA.
#
# CIF created using the CSD Python API on 29 September 2022
# The structure has been converted into the P1 space group
# The structure has a 3D framework
# The original CSD entry KAXJOL is in the orthorhombic crystal system
# The framework has been calculated to contain at least 10.0% void space
# The void calculation uses a probe of radius 1.32A, grid spacing 0.4
#
###############################################################################

data_KAXJOL
_chemical_formula_moiety         '(C128 H80 N32 O32 Zn8)n'
_symmetry_cell_setting           triclinic
_symmetry_space_group_name_H-M   'P 1'
_symmetry_Int_Tables_number      1
_space_group_name_Hall           'P 1'
loop_
_symmetry_equiv_pos_site_id
_symmetry_equiv_pos_as_xyz
1 x,y,z
_cell_length_a                   8.2270(6)
_cell_length_b                   21.5096(9)
_cell_length_c                   23.8825(11)
_cell_angle_alpha                90
_cell_angle_beta                 90
_cell_angle_gamma                90
_cell_volume                     4226.23
loop_
_atom_site_label
_atom_site_type_symbol
_atom_site_fract_x
_atom_site_fract_y
_atom_site_fract_z
O2 O 0.3415(2) 0.12487(8) 0.29461(8)
O4 O 0.1569(3) 0.07651(8) 0.24454(8)
C2 C 0.3216(3) 0.01362(10) 0.30208(9)
C4 C 0.2729(3) 0.07593(11) 0.27873(9)
C11 C 0.4323(3) 0.00949(11) 0.34608(10)
H5 H 0.4803 0.0454 0.3601
Zn2 Zn 0.07366(4) 0.15700(2) 0.21746(2)
Zn3 Zn 0.57366(4) 0.15700(2) 0.28254(2)
Zn1 Zn 0.42634(4) 0.84300(2) 0.71746(2)
O1 O 0.5464(3) 0.76077(9) 0.63187(7)
O3 O 0.3656(2) 0.83780(9) 0.63935(7)
N1 N 0.4860(2) 0.71853(9) 0.27776(7)
N2 N 0.4881(3) 0.79338(8) 0.33800(7)
N3 N 0.6440(3) 0.74200(11) 0.28008(8)
N4 N 0.4322(3) 0.83947(9) 0.37413(8)
C1 C 0.3950(3) 0.74931(10) 0.31292(9)
H1 H 0.2852 0.7423 0.3196
C3 C 0.4565(3) 0.80101(11) 0.61081(9)
C5 C 0.4503(3) 0.80970(10) 0.54822(9)
C6 C 0.3984(3) 0.89872(10) 0.34892(9)
C7 C 0.4429(3) 0.82899(10) 0.43247(9)
C8 C 0.3447(3) 0.86463(11) 0.46753(9)
H2 H 0.2758 0.8946 0.4525
C9 C 0.3501(3) 0.85522(11) 0.52486(10)
H3 H 0.2859 0.8796 0.5482
C10 C 0.6409(3) 0.78768(12) 0.31637(10)
H4 H 0.7294 0.8124 0.3259
C12 C 0.4714(3) 0.95218(11) 0.36924(10)
H6 H 0.5464 0.9497 0.3983
C13 C 0.5462(3) 0.77410(11) 0.51286(10)
H7 H 0.6127 0.7434 0.5279
C14 C 0.5445(3) 0.78353(11) 0.45510(10)
H8 H 0.6105 0.7597 0.4319
C15 C 0.2527(4) 0.95948(11) 0.28105(10)
H9 H 0.1807 0.9617 0.2511
C16 C 0.2905(4) 0.90189(11) 0.30439(11)
H10 H 0.2438 0.8658 0.2902
Zn4 Zn 0.42634(4) 0.65700(2) 0.21746(2)
O5 O 0.6585(2) 0.87513(8) 0.70539(8)
O6 O 0.3431(3) 0.92349(8) 0.74454(8)
N5 N 0.4860(2) 0.78147(9) 0.77776(7)
O3_2 O 0.1344(2) 0.16220(9) 0.13935(7)
C3_2 C 0.0435(3) 0.19899(11) 0.11081(9)
C5_2 C 0.0497(3) 0.19030(10) 0.04822(9)
C9_2 C 0.1499(3) 0.14478(11) 0.02486(10)
H3_2 H 0.2141 0.1204 0.0482
N5_2 N 0.0140(2) 0.21853(9) 0.27776(7)
N1_2 N 0.0140(2) 0.28147(9) 0.77776(7)
N2_2 N 0.0119(3) 0.20662(8) 0.83800(7)
N4_2 N 0.0678(3) 0.16053(9) 0.87413(8)
C1_2 C 0.1050(3) 0.25069(10) 0.81292(9)
H1_2 H 0.2148 0.2577 0.8196
C6_2 C 0.1016(3) 0.10128(10) 0.84892(9)
C7_2 C 0.0571(3) 0.17101(10) 0.93247(9)
C8_2 C 0.1553(3) 0.13537(11) 0.96753(9)
H2_2 H 0.2242 0.1054 0.9525
C12_2 C 0.0286(3) 0.04782(11) 0.86924(10)
C15_2 C 0.2473(4) 0.04052(11) 0.78105(10)
H9_2 H 0.3193 0.0383 0.7511
C16_2 C 0.2095(4) 0.09811(11) 0.80439(11)
H10_2 H 0.2562 0.1342 0.7902
Zn4_2 Zn 0.07366(4) 0.34300(2) 0.71746(2)
O2_2 O 0.1585(2) 0.87513(8) 0.79461(8)
C2_2 C 0.1784(3) 0.98638(10) 0.80208(9)
C4_2 C 0.2271(3) 0.92407(11) 0.77873(9)
C11_2 C 0.0677(3) 0.99051(11) 0.84608(10)
H5_2 H 0.0197 0.9546 0.8601
O1_2 O 0.9536(3) 0.23923(9) 0.13187(7)
C13_2 C 0.9538(3) 0.22590(11) 0.01286(10)
H7_2 H 0.8873 0.2566 0.0279
O5_2 O 0.8415(2) 0.12487(8) 0.20539(8)
Zn3_2 Zn 0.92634(4) 0.84300(2) 0.78254(2)
O2_3 O 0.6585(2) 0.62487(8) 0.20539(8)
O4_2 O 0.8431(3) 0.57651(8) 0.25546(8)
N1_3 N 0.5140(2) 0.21853(9) 0.22224(7)
N2_3 N 0.5119(3) 0.29338(8) 0.16200(7)
N3_2 N 0.3560(3) 0.24200(11) 0.21992(8)
N4_3 N 0.5678(3) 0.33947(9) 0.12587(8)
C1_3 C 0.6050(3) 0.24931(10) 0.18708(9)
H1_3 H 0.7148 0.2423 0.1804
C2_3 C 0.6784(3) 0.51362(10) 0.19792(9)
C4_3 C 0.7271(3) 0.57593(11) 0.22127(9)
C6_3 C 0.6016(3) 0.39872(10) 0.15108(9)
C7_3 C 0.5571(3) 0.32899(10) 0.06753(9)
C8_3 C 0.6553(3) 0.36463(11) 0.03247(9)
H2_3 H 0.7242 0.3946 0.0475
C10_2 C 0.3591(3) 0.28768(12) 0.18363(10)
H4_2 H 0.2706 0.3124 0.1741
C11_3 C 0.5677(3) 0.50949(11) 0.15392(10)
H5_3 H 0.5197 0.5454 0.1399
C12_3 C 0.5286(3) 0.45218(11) 0.13076(10)
H6_2 H 0.4536 0.4497 0.1017
C14_2 C 0.4555(3) 0.28353(11) 0.04490(10)
H8_2 H 0.3895 0.2597 0.0681
C15_3 C 0.7473(4) 0.45948(11) 0.21895(10)
H9_3 H 0.8193 0.4617 0.2489
C16_3 C 0.7095(4) 0.40189(11) 0.19561(11)
H10_3 H 0.7562 0.3658 0.2098
Zn2_2 Zn 0.92634(4) 0.65700(2) 0.28254(2)
Zn1_2 Zn 0.57366(4) 0.34300(2) 0.78254(2)
O1_3 O 0.4536(3) 0.26077(9) 0.86813(7)
O3_3 O 0.6344(2) 0.33780(9) 0.86065(7)
C3_3 C 0.5435(3) 0.30101(11) 0.88919(9)
C5_3 C 0.5497(3) 0.30970(10) 0.95178(9)
C9_3 C 0.6499(3) 0.35522(11) 0.97514(10)
H3_3 H 0.7141 0.3796 0.9518
C13_3 C 0.4538(3) 0.27410(11) 0.98714(10)
H7_3 H 0.3873 0.2434 0.9721
O5_3 O 0.3415(2) 0.37513(8) 0.79461(8)
O6_2 O 0.6569(3) 0.42349(8) 0.75546(8)
N5_3 N 0.5140(2) 0.28147(9) 0.72224(7)
O1_4 O 0.0464(3) 0.73923(9) 0.36813(7)
N3_3 N 0.1440(3) 0.75800(11) 0.71992(8)
C10_3 C 0.1409(3) 0.71232(12) 0.68363(10)
H4_3 H 0.2294 0.6876 0.6741
H6_3 H 0.0464 0.5503 0.6017
C13_4 C 0.0462(3) 0.72590(11) 0.48714(10)
H7_4 H 0.1127 0.7566 0.4721
C14_3 C 0.0445(3) 0.71647(11) 0.54490(10)
H8_3 H 0.1105 0.7403 0.5681
O5_4 O 0.1585(2) 0.62487(8) 0.29461(8)
O2_4 O 0.8415(2) 0.37513(8) 0.70539(8)
O3_4 O 0.8656(2) 0.66220(9) 0.36065(7)
N1_4 N 0.9860(2) 0.78147(9) 0.72224(7)
N2_4 N 0.9881(3) 0.70662(8) 0.66200(7)
N4_4 N 0.9322(3) 0.66053(9) 0.62587(8)
C1_4 C 0.8950(3) 0.75069(10) 0.68708(9)
H1_4 H 0.7852 0.7577 0.6804
C2_4 C 0.8216(3) 0.48638(10) 0.69792(9)
C3_4 C 0.9565(3) 0.69899(11) 0.38919(9)
C4_4 C 0.7729(3) 0.42407(11) 0.72127(9)
C5_4 C 0.9503(3) 0.69030(10) 0.45178(9)
C6_4 C 0.8984(3) 0.60128(10) 0.65108(9)
C7_4 C 0.9429(3) 0.67101(10) 0.56753(9)
C8_4 C 0.8447(3) 0.63537(11) 0.53247(9)
H2_4 H 0.7758 0.6054 0.5475
C9_4 C 0.8501(3) 0.64478(11) 0.47514(10)
H3_4 H 0.7859 0.6204 0.4518
C11_4 C 0.9323(3) 0.49051(11) 0.65392(10)
H5_4 H 0.9803 0.4546 0.6399
C12_4 C 0.9714(3) 0.54782(11) 0.63076(10)
C15_4 C 0.7527(4) 0.54052(11) 0.71895(10)
H9_4 H 0.6807 0.5383 0.7489
C16_4 C 0.7905(4) 0.59811(11) 0.69561(11)
H10_4 H 0.7438 0.6342 0.7098
N5_4 N 0.9860(2) 0.71853(9) 0.22224(7)
O1_5 O 0.4536(3) 0.23923(9) 0.36813(7)
O3_5 O 0.6344(2) 0.16220(9) 0.36065(7)
N2_5 N 0.5119(3) 0.20662(8) 0.66200(7)
N3_4 N 0.3560(3) 0.25800(11) 0.71992(8)
N4_5 N 0.5678(3) 0.16053(9) 0.62587(8)
C1_5 C 0.6050(3) 0.25069(10) 0.68708(9)
H1_5 H 0.7148 0.2577 0.6804
C3_5 C 0.5435(3) 0.19899(11) 0.38919(9)
C5_5 C 0.5497(3) 0.19030(10) 0.45178(9)
C6_5 C 0.6016(3) 0.10128(10) 0.65108(9)
C7_5 C 0.5571(3) 0.17101(10) 0.56753(9)
C8_5 C 0.6553(3) 0.13537(11) 0.53247(9)
H2_5 H 0.7242 0.1054 0.5475
C9_5 C 0.6499(3) 0.14478(11) 0.47514(10)
H3_5 H 0.7141 0.1204 0.4518
C10_4 C 0.3591(3) 0.21232(12) 0.68363(10)
H4_4 H 0.2706 0.1876 0.6741
C12_5 C 0.5286(3) 0.04782(11) 0.63076(10)
H6_4 H 0.4536 0.0503 0.6017
C13_5 C 0.4538(3) 0.22590(11) 0.48714(10)
H7_5 H 0.3873 0.2566 0.4721
C14_4 C 0.4555(3) 0.21647(11) 0.54490(10)
H8_4 H 0.3895 0.2403 0.5681
C15_5 C 0.7473(4) 0.04052(11) 0.71895(10)
H9_5 H 0.8193 0.0383 0.7489
C16_5 C 0.7095(4) 0.09811(11) 0.69561(11)
H10_5 H 0.7562 0.1342 0.7098
O6_3 O 0.6569(3) 0.07651(8) 0.25546(8)
O4_3 O 0.8431(3) 0.92349(8) 0.75546(8)
C2_5 C 0.6784(3) 0.98638(10) 0.69792(9)
C4_5 C 0.7271(3) 0.92407(11) 0.72127(9)
C11_5 C 0.5677(3) 0.99051(11) 0.65392(10)
H5_5 H 0.5197 0.9546 0.6399
O1_6 O 0.0464(3) 0.76077(9) 0.86813(7)
C13_6 C 0.0462(3) 0.77410(11) 0.98714(10)
H7_6 H 0.1127 0.7434 0.9721
C2_6 C 0.8216(3) 0.01362(10) 0.19792(9)
C4_6 C 0.7729(3) 0.07593(11) 0.22127(9)
C11_6 C 0.9323(3) 0.00949(11) 0.15392(10)
H5_6 H 0.9803 0.0454 0.1399
N2_6 N 0.9881(3) 0.79338(8) 0.16200(7)
N4_6 N 0.9322(3) 0.83947(9) 0.12587(8)
C1_6 C 0.8950(3) 0.74931(10) 0.18708(9)
H1_6 H 0.7852 0.7423 0.1804
C6_6 C 0.8984(3) 0.89872(10) 0.15108(9)
C7_6 C 0.9429(3) 0.82899(10) 0.06753(9)
C8_6 C 0.8447(3) 0.86463(11) 0.03247(9)
H2_6 H 0.7758 0.8946 0.0475
C12_6 C 0.9714(3) 0.95218(11) 0.13076(10)
C15_6 C 0.7527(4) 0.95948(11) 0.21895(10)
H9_6 H 0.6807 0.9617 0.2489
C16_6 C 0.7905(4) 0.90189(11) 0.19561(11)
H10_6 H 0.7438 0.8658 0.2098
O3_6 O 0.8656(2) 0.83780(9) 0.86065(7)
C3_6 C 0.9565(3) 0.80101(11) 0.88919(9)
C5_6 C 0.9503(3) 0.80970(10) 0.95178(9)
C9_6 C 0.8501(3) 0.85522(11) 0.97514(10)
H3_6 H 0.7859 0.8796 0.9518
O1_7 O 0.5464(3) 0.73923(9) 0.13187(7)
O3_7 O 0.3656(2) 0.66220(9) 0.13935(7)
C3_7 C 0.4565(3) 0.69899(11) 0.11081(9)
C5_7 C 0.4503(3) 0.69030(10) 0.04822(9)
C9_7 C 0.3501(3) 0.64478(11) 0.02486(10)
H3_7 H 0.2859 0.6204 0.0482
C13_7 C 0.5462(3) 0.72590(11) 0.01286(10)
H7_7 H 0.6127 0.7566 0.0279
O6_4 O 0.3431(3) 0.57651(8) 0.24454(8)
O4_4 O 0.1569(3) 0.42349(8) 0.74454(8)
N2_7 N 0.4881(3) 0.70662(8) 0.83800(7)
N3_5 N 0.6440(3) 0.75800(11) 0.78008(8)
N4_7 N 0.4322(3) 0.66053(9) 0.87413(8)
C1_7 C 0.3950(3) 0.75069(10) 0.81292(9)
H1_7 H 0.2852 0.7577 0.8196
C2_7 C 0.3216(3) 0.48638(10) 0.80208(9)
C4_7 C 0.2729(3) 0.42407(11) 0.77873(9)
C6_7 C 0.3984(3) 0.60128(10) 0.84892(9)
C7_7 C 0.4429(3) 0.67101(10) 0.93247(9)
C8_7 C 0.3447(3) 0.63537(11) 0.96753(9)
H2_7 H 0.2758 0.6054 0.9525
C10_5 C 0.6409(3) 0.71232(12) 0.81637(10)
H4_5 H 0.7294 0.6876 0.8259
C11_7 C 0.4323(3) 0.49051(11) 0.84608(10)
H5_7 H 0.4803 0.4546 0.8601
C12_7 C 0.4714(3) 0.54782(11) 0.86924(10)
H6_5 H 0.5464 0.5503 0.8983
C14_5 C 0.5445(3) 0.71647(11) 0.95510(10)
H8_5 H 0.6105 0.7403 0.9319
C15_7 C 0.2527(4) 0.54052(11) 0.78105(10)
H9_7 H 0.1807 0.5383 0.7511
C16_7 C 0.2905(4) 0.59811(11) 0.80439(11)
H10_7 H 0.2438 0.6342 0.7902
O3_8 O 0.1344(2) 0.33780(9) 0.63935(7)
N2_8 N 0.0119(3) 0.29338(8) 0.33800(7)
N4_8 N 0.0678(3) 0.33947(9) 0.37413(8)
C1_8 C 0.1050(3) 0.24931(10) 0.31292(9)
H1_8 H 0.2148 0.2423 0.3196
C2_8 C 0.1784(3) 0.51362(10) 0.30208(9)
C3_8 C 0.0435(3) 0.30101(11) 0.61081(9)
C4_8 C 0.2271(3) 0.57593(11) 0.27873(9)
C5_8 C 0.0497(3) 0.30970(10) 0.54822(9)
C6_8 C 0.1016(3) 0.39872(10) 0.34892(9)
C7_8 C 0.0571(3) 0.32899(10) 0.43247(9)
C8_8 C 0.1553(3) 0.36463(11) 0.46753(9)
H2_8 H 0.2242 0.3946 0.4525
C9_8 C 0.1499(3) 0.35522(11) 0.52486(10)
H3_8 H 0.2141 0.3796 0.5482
C11_8 C 0.0677(3) 0.50949(11) 0.34608(10)
H5_8 H 0.0197 0.5454 0.3601
C12_8 C 0.0286(3) 0.45218(11) 0.36924(10)
C15_8 C 0.2473(4) 0.45948(11) 0.28105(10)
H9_8 H 0.3193 0.4617 0.2511
C16_8 C 0.2095(4) 0.40189(11) 0.30439(11)
H10_8 H 0.2562 0.3658 0.2902
O1_8 O 0.9536(3) 0.26077(9) 0.63187(7)
N3_6 N 0.8560(3) 0.24200(11) 0.28008(8)
C10_6 C 0.8591(3) 0.28768(12) 0.31637(10)
H4_6 H 0.7706 0.3124 0.3259
H6_6 H 0.9536 0.4497 0.3983
C13_8 C 0.9538(3) 0.27410(11) 0.51286(10)
H7_8 H 0.8873 0.2434 0.5279
C14_6 C 0.9555(3) 0.28353(11) 0.45510(10)
H8_6 H 0.8895 0.2597 0.4319
N3_7 N 0.8560(3) 0.25800(11) 0.78008(8)
C10_7 C 0.8591(3) 0.21232(12) 0.81637(10)
H4_7 H 0.7706 0.1876 0.8259
H6_7 H 0.9536 0.0503 0.8983
C14_7 C 0.9555(3) 0.21647(11) 0.95510(10)
H8_7 H 0.8895 0.2403 0.9319
N3_8 N 0.1440(3) 0.74200(11) 0.21992(8)
C10_8 C 0.1409(3) 0.78768(12) 0.18363(10)
H4_8 H 0.2294 0.8124 0.1741
H6_8 H 0.0464 0.9497 0.1017
C14_8 C 0.0445(3) 0.78353(11) 0.04490(10)
H8_8 H 0.1105 0.7597 0.0681
loop_
_geom_bond_atom_site_label_1
_geom_bond_atom_site_label_2
_geom_bond_site_symmetry_1
_geom_bond_site_symmetry_2
O2 C4 1_555 1_555
O4 C4 1_555 1_555
C2 C4 1_555 1_555
C11 C2 1_555 1_555
H5 C11 1_555 1_555
Zn2 O4 1_555 1_555
Zn3 O2 1_555 1_555
Zn1 O3 1_555 1_555
O1 C3 1_555 1_555
O3 C3 1_555 1_555
N1 N3 1_555 1_555
N2 N4 1_555 1_555
N3 C10 1_555 1_555
N4 C6 1_555 1_555
C1 N1 1_555 1_555
H1 C1 1_555 1_555
C3 C5 1_555 1_555
C5 C9 1_555 1_555
C6 C12 1_555 1_555
C7 N4 1_555 1_555
C8 C7 1_555 1_555
H2 C8 1_555 1_555
C9 C8 1_555 1_555
H3 C9 1_555 1_555
C10 N2 1_555 1_555
H4 C10 1_555 1_555
H6 C12 1_555 1_555
C13 C5 1_555 1_555
H7 C13 1_555 1_555
C14 C7 1_555 1_555
H8 C14 1_555 1_555
H9 C15 1_555 1_555
C16 C6 1_555 1_555
H10 C16 1_555 1_555
Zn4 N1 1_555 1_555
O5 Zn1 1_555 1_555
O6 Zn1 1_555 1_555
N5 Zn1 1_555 1_555
N2 C1 1_555 1_555
C13 C14 1_555 1_555
C15 C16 1_555 1_555
Zn2 O3_2 1_555 1_555
O3_2 C3_2 1_555 1_555
C3_2 C5_2 1_555 1_555
C5_2 C9_2 1_555 1_555
H3_2 C9_2 1_555 1_555
N5_2 Zn2 1_555 1_555
N2_2 N4_2 1_555 1_555
N4_2 C6_2 1_555 1_555
C1_2 N1_2 1_555 1_555
H1_2 C1_2 1_555 1_555
C6_2 C12_2 1_555 1_555
C7_2 N4_2 1_555 1_555
C8_2 C7_2 1_555 1_555
H2_2 C8_2 1_555 1_555
H9_2 C15_2 1_555 1_555
C16_2 C6_2 1_555 1_555
H10_2 C16_2 1_555 1_555
Zn4_2 N1_2 1_555 1_555
N2_2 C1_2 1_555 1_555
C15_2 C16_2 1_555 1_555
O2_2 C4_2 1_555 1_555
O6 C4_2 1_555 1_555
C2_2 C4_2 1_555 1_555
C11_2 C2_2 1_555 1_555
H5_2 C11_2 1_555 1_555
H7_2 C13_2 1_555 1_555
O2_3 C4_3 1_555 1_555
O4_2 C4_3 1_555 1_555
N1_3 N3_2 1_555 1_555
N2_3 N4_3 1_555 1_555
N3_2 C10_2 1_555 1_555
N4_3 C6_3 1_555 1_555
C1_3 N1_3 1_555 1_555
H1_3 C1_3 1_555 1_555
C2_3 C4_3 1_555 1_555
C6_3 C12_3 1_555 1_555
C7_3 N4_3 1_555 1_555
C8_3 C7_3 1_555 1_555
H2_3 C8_3 1_555 1_555
C10_2 N2_3 1_555 1_555
H4_2 C10_2 1_555 1_555
C11_3 C2_3 1_555 1_555
H5_3 C11_3 1_555 1_555
C12_3 C11_3 1_555 1_555
H6_2 C12_3 1_555 1_555
C14_2 C7_3 1_555 1_555
H8_2 C14_2 1_555 1_555
C15_3 C2_3 1_555 1_555
H9_3 C15_3 1_555 1_555
C16_3 C6_3 1_555 1_555
H10_3 C16_3 1_555 1_555
Zn2_2 O4_2 1_555 1_555
Zn4 O2_3 1_555 1_555
Zn3 N1_3 1_555 1_555
N2_3 C1_3 1_555 1_555
C15_3 C16_3 1_555 1_555
Zn1_2 O3_3 1_555 1_555
O1_3 C3_3 1_555 1_555
O3_3 C3_3 1_555 1_555
C3_3 C5_3 1_555 1_555
C5_3 C9_3 1_555 1_555
H3_3 C9_3 1_555 1_555
C13_3 C5_3 1_555 1_555
H7_3 C13_3 1_555 1_555
O5_3 Zn1_2 1_555 1_555
O6_2 Zn1_2 1_555 1_555
N5_3 Zn1_2 1_555 1_555
N3_3 C10_3 1_555 1_555
H4_3 C10_3 1_555 1_555
H7_4 C13_4 1_555 1_555
H8_3 C14_3 1_555 1_555
C13_4 C14_3 1_555 1_555
Zn2_2 O3_4 1_555 1_555
O2_4 C4_4 1_555 1_555
O3_4 C3_4 1_555 1_555
O6_2 C4_4 1_555 1_555
N2_4 N4_4 1_555 1_555
N4_4 C6_4 1_555 1_555
C1_4 N1_4 1_555 1_555
H1_4 C1_4 1_555 1_555
C2_4 C4_4 1_555 1_555
C3_4 C5_4 1_555 1_555
C5_4 C9_4 1_555 1_555
C6_4 C12_4 1_555 1_555
C7_4 N4_4 1_555 1_555
C8_4 C7_4 1_555 1_555
H2_4 C8_4 1_555 1_555
C9_4 C8_4 1_555 1_555
H3_4 C9_4 1_555 1_555
C11_4 C2_4 1_555 1_555
H5_4 C11_4 1_555 1_555
C12_4 C11_4 1_555 1_555
C15_4 C2_4 1_555 1_555
H9_4 C15_4 1_555 1_555
C16_4 C6_4 1_555 1_555
H10_4 C16_4 1_555 1_555
Zn3_2 N1_4 1_555 1_555
N5_4 Zn2_2 1_555 1_555
N2_4 C1_4 1_555 1_555
C15_4 C16_4 1_555 1_555
Zn3 O3_5 1_555 1_555
O1_5 C3_5 1_555 1_555
O3_5 C3_5 1_555 1_555
N5_3 N3_4 1_555 1_555
N2_5 N4_5 1_555 1_555
N3_4 C10_4 1_555 1_555
N4_5 C6_5 1_555 1_555
C1_5 N5_3 1_555 1_555
H1_5 C1_5 1_555 1_555
C3_5 C5_5 1_555 1_555
C5_5 C9_5 1_555 1_555
C6_5 C12_5 1_555 1_555
C7_5 N4_5 1_555 1_555
C8_5 C7_5 1_555 1_555
H2_5 C8_5 1_555 1_555
C9_5 C8_5 1_555 1_555
H3_5 C9_5 1_555 1_555
C10_4 N2_5 1_555 1_555
H4_4 C10_4 1_555 1_555
H6_4 C12_5 1_555 1_555
C13_5 C5_5 1_555 1_555
H7_5 C13_5 1_555 1_555
C14_4 C7_5 1_555 1_555
H8_4 C14_4 1_555 1_555
H9_5 C15_5 1_555 1_555
C16_5 C6_5 1_555 1_555
H10_5 C16_5 1_555 1_555
O6_3 Zn3 1_555 1_555
N2_5 C1_5 1_555 1_555
C13_5 C14_4 1_555 1_555
C15_5 C16_5 1_555 1_555
O5 C4_5 1_555 1_555
O4_3 C4_5 1_555 1_555
C2_5 C4_5 1_555 1_555
C11_5 C2_5 1_555 1_555
H5_5 C11_5 1_555 1_555
Zn3_2 O4_3 1_555 1_555
H7_6 C13_6 1_555 1_555
O5_2 C4_6 1_555 1_555
O6_3 C4_6 1_555 1_555
C2_6 C4_6 1_555 1_555
C11_6 C2_6 1_555 1_555
H5_6 C11_6 1_555 1_555
N2_6 N4_6 1_555 1_555
N4_6 C6_6 1_555 1_555
C1_6 N5_4 1_555 1_555
H1_6 C1_6 1_555 1_555
C6_6 C12_6 1_555 1_555
C7_6 N4_6 1_555 1_555
C8_6 C7_6 1_555 1_555
H2_6 C8_6 1_555 1_555
H9_6 C15_6 1_555 1_555
C16_6 C6_6 1_555 1_555
H10_6 C16_6 1_555 1_555
N2_6 C1_6 1_555 1_555
C15_6 C16_6 1_555 1_555
Zn3_2 O3_6 1_555 1_555
O3_6 C3_6 1_555 1_555
C3_6 C5_6 1_555 1_555
C5_6 C9_6 1_555 1_555
H3_6 C9_6 1_555 1_555
Zn4 O3_7 1_555 1_555
O1_7 C3_7 1_555 1_555
O3_7 C3_7 1_555 1_555
C3_7 C5_7 1_555 1_555
C5_7 C9_7 1_555 1_555
H3_7 C9_7 1_555 1_555
C13_7 C5_7 1_555 1_555
H7_7 C13_7 1_555 1_555
O6_4 Zn4 1_555 1_555
O5_3 C4_7 1_555 1_555
O4_4 C4_7 1_555 1_555
N5 N3_5 1_555 1_555
N2_7 N4_7 1_555 1_555
N3_5 C10_5 1_555 1_555
N4_7 C6_7 1_555 1_555
C1_7 N5 1_555 1_555
H1_7 C1_7 1_555 1_555
C2_7 C4_7 1_555 1_555
C6_7 C12_7 1_555 1_555
C7_7 N4_7 1_555 1_555
C8_7 C7_7 1_555 1_555
H2_7 C8_7 1_555 1_555
C10_5 N2_7 1_555 1_555
H4_5 C10_5 1_555 1_555
C11_7 C2_7 1_555 1_555
H5_7 C11_7 1_555 1_555
C12_7 C11_7 1_555 1_555
H6_5 C12_7 1_555 1_555
C14_5 C7_7 1_555 1_555
H8_5 C14_5 1_555 1_555
C15_7 C2_7 1_555 1_555
H9_7 C15_7 1_555 1_555
C16_7 C6_7 1_555 1_555
H10_7 C16_7 1_555 1_555
Zn4_2 O4_4 1_555 1_555
N2_7 C1_7 1_555 1_555
C15_7 C16_7 1_555 1_555
Zn4_2 O3_8 1_555 1_555
O5_4 C4_8 1_555 1_555
O3_8 C3_8 1_555 1_555
O6_4 C4_8 1_555 1_555
N2_8 N4_8 1_555 1_555
N4_8 C6_8 1_555 1_555
C1_8 N5_2 1_555 1_555
H1_8 C1_8 1_555 1_555
C2_8 C4_8 1_555 1_555
C3_8 C5_8 1_555 1_555
C5_8 C9_8 1_555 1_555
C6_8 C12_8 1_555 1_555
C7_8 N4_8 1_555 1_555
C8_8 C7_8 1_555 1_555
H2_8 C8_8 1_555 1_555
C9_8 C8_8 1_555 1_555
H3_8 C9_8 1_555 1_555
C11_8 C2_8 1_555 1_555
H5_8 C11_8 1_555 1_555
C12_8 C11_8 1_555 1_555
C15_8 C2_8 1_555 1_555
H9_8 C15_8 1_555 1_555
C16_8 C6_8 1_555 1_555
H10_8 C16_8 1_555 1_555
N2_8 C1_8 1_555 1_555
C15_8 C16_8 1_555 1_555
N3_6 C10_6 1_555 1_555
H4_6 C10_6 1_555 1_555
H7_8 C13_8 1_555 1_555
H8_6 C14_6 1_555 1_555
C13_8 C14_6 1_555 1_555
N3_7 C10_7 1_555 1_555
H4_7 C10_7 1_555 1_555
H8_7 C14_7 1_555 1_555
N3_8 C10_8 1_555 1_555
H4_8 C10_8 1_555 1_555
H8_8 C14_8 1_555 1_555

#END
