
###############################################################################
#
# This file contains modified crystal structure data generated from the
# MOF subset of the Cambridge Structural Database (CSD) v543 
# hosted by the Cambridge Crystallographic Data Centre (CCDC).
#
# This work is licensed under the Creative Commons
# Attribution-NonCommercial-ShareAlike 4.0 International License.
# To view a copy of this license, visit
# http://creativecommons.org/licenses/by-nc-sa/4.0/
# or send a letter to
# Creative Commons, PO Box 1866, Mountain View, CA 94042, USA.
#
# CIF created using the CSD Python API on 29 September 2022
# The structure has been converted into the P1 space group
# The structure has a 3D framework
# The original CSD entry KAXKEC is in the orthorhombic crystal system
# The original CSD entry KAXKEC is in a Sohncke space group
# The framework has been calculated to contain at least 10.0% void space
# The void calculation uses a probe of radius 1.32A, grid spacing 0.4
#
###############################################################################

data_KAXKEC
_chemical_formula_moiety         '(C64 H40 Cd1 N16 O16)n'
_symmetry_cell_setting           triclinic
_symmetry_space_group_name_H-M   'P 1'
_symmetry_Int_Tables_number      1
_space_group_name_Hall           'P 1'
loop_
_symmetry_equiv_pos_site_id
_symmetry_equiv_pos_as_xyz
1 x,y,z
_cell_length_a                   7.5850(15)
_cell_length_b                   14.052(3)
_cell_length_c                   18.237(4)
_cell_angle_alpha                90
_cell_angle_beta                 90
_cell_angle_gamma                90
_cell_volume                     1943.78
loop_
_atom_site_label
_atom_site_type_symbol
_atom_site_fract_x
_atom_site_fract_y
_atom_site_fract_z
O2 O 0.3860(10) 0.6841(5) 0.1270(3)
N1 N 0.1317(10) 0.2542(5) 0.2783(3)
N2 N 0.0756(11) 0.2379(5) 0.3941(3)
N3 N 0.1002(10) 0.2672(5) 0.2023(3)
C1 C 0.2295(13) 0.0156(6) 0.0887(4)
O4 O 0.2793(10) 0.6471(5) 0.0186(4)
C3 C 0.0535(13) 0.0378(6) 0.1024(4)
C4 C 0.2878(12) 0.2510(6) 0.3151(4)
H3 H 0.3989 0.2552 0.2938
N4 N 0.2567(10) 0.2412(6) 0.3844(3)
C5 C 0.3189(13) 0.1631(6) 0.1446(4)
H4 H 0.4065 0.2068 0.1565
C6 C 0.1484(11) 0.1832(6) 0.1613(4)
C7 C 0.0112(13) 0.1224(6) 0.1396(4)
C8 C 0.3654(14) 0.0775(7) 0.1097(4)
H6 H 0.4828 0.0625 0.1007
C10 C 0.1931(14) 0.4602(7) 0.0703(4)
H7 H 0.1858 0.4694 0.0199
C11 C 0.1905(14) 0.4355(6) 0.2231(5)
H8 H 0.1848 0.4283 0.2737
C12 C 0.3078(13) 0.6292(7) 0.0870(4)
C13 C 0.2372(12) 0.5227(6) 0.1914(4)
H9 H 0.2643 0.5736 0.2220
C14 C 0.2446(12) 0.5361(7) 0.1170(4)
C15 C 0.1541(14) 0.3734(7) 0.1001(4)
H10 H 0.1281 0.3226 0.0693
C16 C 0.1529(13) 0.3599(6) 0.1763(4)
Cd3 Cd 0.53213(8) 0.75884(4) 0.01878(2)
Cd6 Cd 0.46787(8) 0.25884(4) 0.48122(2)
O6 O 0.1140(10) 0.3159(5) 0.6270(3)
O7 O 0.0635(12) 0.1011(5) 0.5573(4)
O8 O 0.2207(10) 0.3529(5) 0.5186(4)
Cd5 Cd 0.03213(8) 0.74116(4) 0.98122(2)
O1 O 0.1526(11) 0.8753(5) 0.0262(4)
O3 O 0.4365(12) 0.8989(5) 0.0573(4)
C9 C 0.2805(14) 0.9219(6) 0.0547(4)
Cd1 Cd 0.96787(8) 0.24116(4) 0.51878(2)
C2 C 0.9995(12) 0.2461(6) 0.3305(4)
H1 H 0.8787 0.2464 0.3216
H5 H 0.8944 0.1378 0.1496
O5 O 0.8474(11) 0.3753(5) 0.4738(4)
O9 O 0.7207(10) 0.1471(5) 0.4814(4)
N5 N 0.7567(10) 0.2588(6) 0.6156(3)
O1_2 O 0.3474(11) 0.1247(5) 0.5262(4)
H2 H 0.5355 0.0031 0.5870
C9_2 C 0.2195(14) 0.0781(6) 0.5547(4)
N5_2 N 0.7433(10) 0.7412(6) 0.1156(3)
N1_2 N 0.3683(10) 0.7458(5) 0.7783(3)
N2_2 N 0.4244(11) 0.7621(5) 0.8941(3)
N3_2 N 0.3998(10) 0.7328(5) 0.7023(3)
C1_2 C 0.2705(13) 0.9844(6) 0.5887(4)
C2_2 C 0.5005(12) 0.7539(6) 0.8305(4)
H1_2 H 0.6213 0.7536 0.8216
C3_2 C 0.4465(13) 0.9622(6) 0.6024(4)
C4_2 C 0.2122(12) 0.7490(6) 0.8151(4)
H3_2 H 0.1011 0.7448 0.7938
N4_2 N 0.2433(10) 0.7588(6) 0.8844(3)
C5_2 C 0.1811(13) 0.8369(6) 0.6446(4)
H4_2 H 0.0935 0.7932 0.6565
C6_2 C 0.3516(11) 0.8168(6) 0.6613(4)
C7_2 C 0.4888(13) 0.8776(6) 0.6396(4)
H5_2 H 0.6056 0.8622 0.6496
C8_2 C 0.1346(14) 0.9225(7) 0.6097(4)
H6_2 H 0.0172 0.9375 0.6007
C10_2 C 0.3069(14) 0.5398(7) 0.5703(4)
H7_2 H 0.3142 0.5306 0.5199
C11_2 C 0.3095(14) 0.5645(6) 0.7231(5)
H8_2 H 0.3152 0.5717 0.7737
C12_2 C 0.1922(13) 0.3708(7) 0.5870(4)
C13_2 C 0.2628(12) 0.4773(6) 0.6914(4)
H9_2 H 0.2357 0.4264 0.7220
C14_2 C 0.2554(12) 0.4639(7) 0.6170(4)
C15_2 C 0.3459(14) 0.6266(7) 0.6001(4)
H10_2 H 0.3719 0.6774 0.5693
C16_2 C 0.3471(13) 0.6401(6) 0.6763(4)
O5_2 O 0.6526(11) 0.6247(5) 0.9738(4)
O9_2 O 0.7793(10) 0.8529(5) 0.9814(4)
C2_3 C 0.0005(12) 0.7461(6) 0.1695(4)
H1_3 H 0.1213 0.7464 0.1784
H2_2 H 0.0355 0.4969 0.4130
H5_3 H 0.1056 0.6378 0.3504
O2_2 O 0.6140(10) 0.1841(5) 0.3730(3)
C12_3 C 0.6922(13) 0.1292(7) 0.4130(4)
C13_3 C 0.7628(12) 0.0227(6) 0.3086(4)
H9_3 H 0.7357 0.0736 0.2780
C14_3 C 0.7554(12) 0.0361(7) 0.3830(4)
N1_3 N 0.8683(10) 0.7542(5) 0.2217(3)
N2_3 N 0.9244(11) 0.7379(5) 0.1059(3)
O3_2 O 0.5635(12) 0.3989(5) 0.4427(4)
N3_3 N 0.8998(10) 0.7672(5) 0.2977(3)
C1_3 C 0.7705(13) 0.5156(6) 0.4113(4)
C3_3 C 0.9465(13) 0.5378(6) 0.3976(4)
C4_3 C 0.7122(12) 0.7510(6) 0.1849(4)
H3_3 H 0.6011 0.7552 0.2062
C5_3 C 0.6811(13) 0.6631(6) 0.3554(4)
H4_3 H 0.5935 0.7068 0.3435
C6_3 C 0.8516(11) 0.6832(6) 0.3387(4)
C7_3 C 0.9888(13) 0.6224(6) 0.3604(4)
C8_3 C 0.6346(14) 0.5775(7) 0.3903(4)
H6_3 H 0.5172 0.5625 0.3993
C9_3 C 0.7195(14) 0.4219(6) 0.4453(4)
C10_3 C 0.8069(14) 0.9602(7) 0.4297(4)
H7_3 H 0.8142 0.9694 0.4801
C11_3 C 0.8095(14) 0.9355(6) 0.2769(5)
H8_3 H 0.8152 0.9283 0.2263
C15_3 C 0.8459(14) 0.8734(7) 0.3999(4)
H10_3 H 0.8719 0.8226 0.4307
C16_3 C 0.8471(13) 0.8599(6) 0.3237(4)
O6_2 O 0.8860(10) 0.8159(5) 0.8730(3)
O7_2 O 0.9365(12) 0.6011(5) 0.9427(4)
N1_4 N 0.6317(10) 0.2458(5) 0.7217(3)
N2_4 N 0.5756(11) 0.2621(5) 0.6059(3)
N3_4 N 0.6002(10) 0.2328(5) 0.7977(3)
C1_4 C 0.7295(13) 0.4844(6) 0.9113(4)
C2_4 C 0.4995(12) 0.2539(6) 0.6695(4)
H1_4 H 0.3787 0.2536 0.6784
C3_4 C 0.5535(13) 0.4622(6) 0.8976(4)
H2_3 H 0.4645 0.5031 0.9130
C4_4 C 0.7878(12) 0.2490(6) 0.6849(4)
H3_4 H 0.8989 0.2448 0.7062
C5_4 C 0.8189(13) 0.3369(6) 0.8554(4)
H4_4 H 0.9065 0.2932 0.8435
C6_4 C 0.6484(11) 0.3168(6) 0.8387(4)
C7_4 C 0.5112(13) 0.3776(6) 0.8604(4)
H5_4 H 0.3944 0.3622 0.8504
C8_4 C 0.8654(14) 0.4225(7) 0.8903(4)
H6_4 H 0.9828 0.4375 0.8993
C9_4 C 0.7805(14) 0.5781(6) 0.9453(4)
C10_4 C 0.6931(14) 0.0398(7) 0.9297(4)
H7_4 H 0.6858 0.0306 0.9801
C11_4 C 0.6905(14) 0.0645(6) 0.7769(5)
H8_4 H 0.6848 0.0717 0.7263
C15_4 C 0.6541(14) 0.1266(7) 0.8999(4)
H10_4 H 0.6281 0.1774 0.9307
C16_4 C 0.6529(13) 0.1401(6) 0.8237(4)
C12_4 C 0.8078(13) 0.8708(7) 0.9130(4)
C13_4 C 0.7372(12) 0.9773(6) 0.8086(4)
H9_4 H 0.7643 0.9264 0.7780
C14_4 C 0.7446(12) 0.9639(7) 0.8830(4)
H2_4 H 0.9645 0.9969 0.0870
loop_
_geom_bond_atom_site_label_1
_geom_bond_atom_site_label_2
_geom_bond_site_symmetry_1
_geom_bond_site_symmetry_2
O2 C12 1_555 1_555
N1 N3 1_555 1_555
N3 C6 1_555 1_555
C1 C3 1_555 1_555
O4 C12 1_555 1_555
C4 N1 1_555 1_555
H3 C4 1_555 1_555
N4 N2 1_555 1_555
C5 H4 1_555 1_555
C6 C5 1_555 1_555
C7 C3 1_555 1_555
C8 C1 1_555 1_555
H6 C8 1_555 1_555
C10 H7 1_555 1_555
C11 H8 1_555 1_555
C12 C14 1_555 1_555
C13 C11 1_555 1_555
H9 C13 1_555 1_555
C14 C10 1_555 1_555
C15 C10 1_555 1_555
H10 C15 1_555 1_555
C16 N3 1_555 1_555
Cd3 O2 1_555 1_555
Cd6 N4 1_555 1_555
O4 Cd3 1_555 1_555
C4 N4 1_555 1_555
C5 C8 1_555 1_555
C6 C7 1_555 1_555
C11 C16 1_555 1_555
C13 C14 1_555 1_555
C15 C16 1_555 1_555
Cd6 O8 1_555 1_555
O1 C9 1_555 1_555
O3 C9 1_555 1_555
Cd3 O3 1_555 1_555
H1 C2 1_555 1_555
O5 Cd1 1_555 1_555
O9 Cd1 1_555 1_555
N5 Cd1 1_555 1_555
O1_2 C9_2 1_555 1_555
O7 C9_2 1_555 1_555
Cd6 O1_2 1_555 1_555
N5_2 Cd3 1_555 1_555
O6 C12_2 1_555 1_555
N1_2 N3_2 1_555 1_555
N2_2 C2_2 1_555 1_555
N3_2 C6_2 1_555 1_555
C1_2 C3_2 1_555 1_555
C2_2 N1_2 1_555 1_555
H1_2 C2_2 1_555 1_555
O8 C12_2 1_555 1_555
C4_2 N1_2 1_555 1_555
H3_2 C4_2 1_555 1_555
N4_2 N2_2 1_555 1_555
C5_2 H4_2 1_555 1_555
C6_2 C5_2 1_555 1_555
C7_2 C3_2 1_555 1_555
H5_2 C7_2 1_555 1_555
C8_2 C1_2 1_555 1_555
H6_2 C8_2 1_555 1_555
C10_2 H7_2 1_555 1_555
C11_2 H8_2 1_555 1_555
C12_2 C14_2 1_555 1_555
C13_2 C11_2 1_555 1_555
H9_2 C13_2 1_555 1_555
C14_2 C10_2 1_555 1_555
C15_2 C10_2 1_555 1_555
H10_2 C15_2 1_555 1_555
C16_2 N3_2 1_555 1_555
Cd5 N4_2 1_555 1_555
C4_2 N4_2 1_555 1_555
C5_2 C8_2 1_555 1_555
C6_2 C7_2 1_555 1_555
C11_2 C16_2 1_555 1_555
C13_2 C14_2 1_555 1_555
C15_2 C16_2 1_555 1_555
H1_3 C2_3 1_555 1_555
O2_2 C12_3 1_555 1_555
O9 C12_3 1_555 1_555
C12_3 C14_3 1_555 1_555
H9_3 C13_3 1_555 1_555
Cd6 O2_2 1_555 1_555
O9 Cd6 1_555 1_555
C13_3 C14_3 1_555 1_555
O5 C9_3 1_555 1_555
N1_3 N3_3 1_555 1_555
O3_2 C9_3 1_555 1_555
N3_3 C6_3 1_555 1_555
C1_3 C3_3 1_555 1_555
C4_3 N1_3 1_555 1_555
H3_3 C4_3 1_555 1_555
N5_2 N2_3 1_555 1_555
C5_3 H4_3 1_555 1_555
C6_3 C5_3 1_555 1_555
C7_3 C3_3 1_555 1_555
C8_3 C1_3 1_555 1_555
H6_3 C8_3 1_555 1_555
C9_3 C1_3 1_555 1_555
C10_3 H7_3 1_555 1_555
C11_3 H8_3 1_555 1_555
C15_3 C10_3 1_555 1_555
H10_3 C15_3 1_555 1_555
C16_3 N3_3 1_555 1_555
Cd6 O3_2 1_555 1_555
C4_3 N5_2 1_555 1_555
C5_3 C8_3 1_555 1_555
C6_3 C7_3 1_555 1_555
C11_3 C16_3 1_555 1_555
C15_3 C16_3 1_555 1_555
Cd6 N2_4 1_555 1_555
O5_2 C9_4 1_555 1_555
N1_4 N3_4 1_555 1_555
N2_4 C2_4 1_555 1_555
O7_2 C9_4 1_555 1_555
N3_4 C6_4 1_555 1_555
C1_4 C3_4 1_555 1_555
C2_4 N1_4 1_555 1_555
H1_4 C2_4 1_555 1_555
C3_4 H2_3 1_555 1_555
C4_4 N1_4 1_555 1_555
H3_4 C4_4 1_555 1_555
N5 N2_4 1_555 1_555
C5_4 H4_4 1_555 1_555
C6_4 C5_4 1_555 1_555
C7_4 C3_4 1_555 1_555
H5_4 C7_4 1_555 1_555
C8_4 C1_4 1_555 1_555
H6_4 C8_4 1_555 1_555
C9_4 C1_4 1_555 1_555
C10_4 H7_4 1_555 1_555
C11_4 H8_4 1_555 1_555
C15_4 C10_4 1_555 1_555
H10_4 C15_4 1_555 1_555
C16_4 N3_4 1_555 1_555
C4_4 N5 1_555 1_555
C5_4 C8_4 1_555 1_555
C6_4 C7_4 1_555 1_555
C11_4 C16_4 1_555 1_555
C15_4 C16_4 1_555 1_555
O6_2 C12_4 1_555 1_555
O9_2 C12_4 1_555 1_555
C12_4 C14_4 1_555 1_555
H9_4 C13_4 1_555 1_555
C13_4 C14_4 1_555 1_555

#END
