
###############################################################################
#
# This file contains modified crystal structure data generated from the
# MOF subset of the Cambridge Structural Database (CSD) v543 
# hosted by the Cambridge Crystallographic Data Centre (CCDC).
#
# This work is licensed under the Creative Commons
# Attribution-NonCommercial-ShareAlike 4.0 International License.
# To view a copy of this license, visit
# http://creativecommons.org/licenses/by-nc-sa/4.0/
# or send a letter to
# Creative Commons, PO Box 1866, Mountain View, CA 94042, USA.
#
# CIF created using the CSD Python API on 29 September 2022
# The structure has been converted into the P1 space group
# The structure has a 3D framework
# The original CSD entry KAXKAY is in the orthorhombic crystal system
# The original CSD entry KAXKAY is in a Sohncke space group
# The framework has been calculated to contain at least 10.0% void space
# The void calculation uses a probe of radius 1.32A, grid spacing 0.4
#
###############################################################################

data_KAXKAY
_chemical_formula_moiety         '(C64 H40 Mn2 N16 O16)n'
_symmetry_cell_setting           triclinic
_symmetry_space_group_name_H-M   'P 1'
_symmetry_Int_Tables_number      1
_space_group_name_Hall           'P 1'
loop_
_symmetry_equiv_pos_site_id
_symmetry_equiv_pos_as_xyz
1 x,y,z
_cell_length_a                   7.4830(15)
_cell_length_b                   14.109(3)
_cell_length_c                   17.972(4)
_cell_angle_alpha                90
_cell_angle_beta                 90
_cell_angle_gamma                90
_cell_volume                     1897.44
loop_
_atom_site_label
_atom_site_type_symbol
_atom_site_fract_x
_atom_site_fract_y
_atom_site_fract_z
Mn3 Mn 0.01557(5) 0.74410(3) 0.02320(2)
O2 O 0.8016(4) 0.13181(17) 0.51000(12)
O3 O 0.6263(3) 0.16750(15) 0.60535(12)
C4 C 0.7303(4) 0.1134(2) 0.57186(16)
C9 C 0.7742(4) 0.0199(2) 0.60707(16)
C14 C 0.7578(4) 0.0093(2) 0.68382(15)
H8 H 0.7182 0.0601 0.7125
Mn2 Mn 0.48443(5) 0.25590(3) 0.52320(2)
Mn6 Mn 0.98443(5) 0.24410(3) 0.47680(2)
O1 O 0.8864(3) 0.37717(15) 0.51725(12)
O4 O 0.6217(3) 0.36957(17) 0.57403(13)
N1 N 0.9024(3) 0.75989(16) 0.70695(12)
N2 N 0.8652(3) 0.75041(16) 0.78294(12)
N3 N 0.9090(3) 0.73913(17) 0.90176(13)
N4 N 0.7266(3) 0.74187(17) 0.88839(12)
C1 C 0.9902(3) 0.74482(17) 0.83758(17)
C2 C 0.8025(4) 0.5022(2) 0.59641(13)
C3 C 0.7680(4) 0.4081(2) 0.55912(14)
C5 C 0.8671(4) 0.67235(19) 0.66687(13)
C6 C 0.9791(4) 0.53282(19) 0.60675(15)
C7 C 0.7032(4) 0.74828(18) 0.81667(14)
H3 H 0.5933 0.7509 0.7926
C8 C 0.8533(4) 0.84734(19) 0.67494(15)
C10 C 0.8346(4) 0.94428(19) 0.56552(13)
H4 H 0.8516 0.9518 0.5146
C12 C 0.6916(4) 0.6439(2) 0.65456(14)
H6 H 0.5962 0.6821 0.6688
C13 C 0.6627(4) 0.55712(19) 0.62047(14)
H7 H 0.5462 0.5357 0.6138
C15 C 0.8706(4) 0.8575(2) 0.59789(15)
H9 H 0.9060 0.8064 0.5687
C16 C 0.7993(4) 0.92482(19) 0.71776(13)
H10 H 0.7914 0.9193 0.7692
Mn4 Mn 0.51557(5) 0.75590(3) 0.97680(2)
O5 O 0.3864(3) 0.12283(15) 0.48275(12)
O6 O 0.3016(4) 0.36819(17) 0.49000(12)
N5 N 0.5910(3) 0.26087(17) 0.40176(13)
N6 N 0.2734(3) 0.24187(17) 0.61161(12)
N6_2 N 0.2266(3) 0.75813(17) 0.11161(12)
O5_2 O 0.1136(3) 0.87717(15) 0.98275(12)
O6_2 O 0.1984(4) 0.63181(17) 0.99000(12)
O1_2 O 0.6136(3) 0.62283(15) 0.01725(12)
O4_2 O 0.8783(3) 0.63043(17) 0.07403(13)
N1_2 N 0.5976(3) 0.24011(16) 0.20695(12)
N2_2 N 0.6348(3) 0.24959(16) 0.28294(12)
N4_2 N 0.7734(3) 0.25813(17) 0.38839(12)
C1_2 C 0.5098(3) 0.25518(17) 0.33758(17)
H1 H 0.3867 0.2550 0.3305
C2_2 C 0.6975(4) 0.4978(2) 0.09641(13)
C3_2 C 0.7320(4) 0.5919(2) 0.05912(14)
C5_2 C 0.6329(4) 0.32765(19) 0.16687(13)
C6_2 C 0.5209(4) 0.46718(19) 0.10675(15)
H2 H 0.4258 0.5034 0.0894
C7_2 C 0.7968(4) 0.25172(18) 0.31667(14)
H3_2 H 0.9067 0.2491 0.2926
C8_2 C 0.6467(4) 0.15266(19) 0.17494(15)
C10_2 C 0.6654(4) 0.05572(19) 0.06552(13)
H4_2 H 0.6484 0.0482 0.0146
C11 C 0.4897(4) 0.38104(19) 0.14358(16)
H5 H 0.3735 0.3603 0.1521
C12_2 C 0.8084(4) 0.3561(2) 0.15456(14)
H6_2 H 0.9038 0.3179 0.1688
C13_2 C 0.8373(4) 0.44288(19) 0.12047(14)
H7_2 H 0.9538 0.4643 0.1138
C15_2 C 0.6294(4) 0.1425(2) 0.09789(15)
H9_2 H 0.5940 0.1936 0.0687
C16_2 C 0.7007(4) 0.07518(19) 0.21776(13)
H10_2 H 0.7086 0.0807 0.2692
O7 O 0.8737(3) 0.83250(15) 0.10535(12)
O2_2 O 0.6984(4) 0.86819(17) 0.01000(12)
C4_2 C 0.7697(4) 0.8866(2) 0.07186(16)
C9_2 C 0.7258(4) 0.9801(2) 0.10707(16)
C14_2 C 0.7422(4) 0.9907(2) 0.18382(15)
H8_2 H 0.7818 0.9399 0.2125
O3_2 O 0.3737(3) 0.66750(15) 0.89465(12)
N1_3 N 0.0976(3) 0.25989(16) 0.79305(12)
N2_3 N 0.1348(3) 0.25041(16) 0.71706(12)
N3_2 N 0.0910(3) 0.23913(17) 0.59824(13)
C1_3 C 0.0098(3) 0.24482(17) 0.66242(17)
C2_3 C 0.1975(4) 0.0022(2) 0.90359(13)
C4_3 C 0.2697(4) 0.6134(2) 0.92814(16)
C5_3 C 0.1329(4) 0.17235(19) 0.83313(13)
C6_3 C 0.0209(4) 0.03282(19) 0.89325(15)
C7_3 C 0.2968(4) 0.24828(18) 0.68333(14)
H3_3 H 0.4067 0.2509 0.7074
C8_3 C 0.1467(4) 0.34734(19) 0.82506(15)
C9_3 C 0.2258(4) 0.5199(2) 0.89293(16)
C10_3 C 0.1654(4) 0.44428(19) 0.93448(13)
H4_3 H 0.1484 0.4518 0.9854
C12_3 C 0.3084(4) 0.1439(2) 0.84544(14)
H6_3 H 0.4038 0.1821 0.8312
C13_3 C 0.3373(4) 0.05712(19) 0.87953(14)
H7_3 H 0.4538 0.0357 0.8862
C14_3 C 0.2422(4) 0.5093(2) 0.81618(15)
H8_3 H 0.2818 0.5601 0.7875
C15_3 C 0.1294(4) 0.3575(2) 0.90211(15)
H9_3 H 0.0940 0.3064 0.9313
C16_3 C 0.2007(4) 0.42482(19) 0.78224(13)
H10_3 H 0.2086 0.4193 0.7308
N5_2 N 0.4090(3) 0.76087(17) 0.09824(13)
O4_3 O 0.3783(3) 0.86957(17) 0.92597(13)
C3_3 C 0.2320(4) 0.9081(2) 0.94088(14)
H1_2 H 0.8867 0.2450 0.6695
C11_2 C 0.9897(4) 0.11896(19) 0.85642(16)
H5_2 H 0.8735 0.1397 0.8479
O4_4 O 0.1217(3) 0.13043(17) 0.42597(13)
C3_4 C 0.2680(4) 0.0919(2) 0.44088(14)
H2_2 H 0.5742 0.0034 0.4106
O7_2 O 0.1263(3) 0.33250(15) 0.39465(12)
N1_4 N 0.4024(3) 0.74011(16) 0.29305(12)
N2_4 N 0.3652(3) 0.74959(16) 0.21706(12)
C1_4 C 0.4902(3) 0.75518(17) 0.16242(17)
H1_3 H 0.6133 0.7550 0.1695
C2_4 C 0.3025(4) 0.9978(2) 0.40359(13)
C4_4 C 0.2303(4) 0.3866(2) 0.42814(16)
C5_4 C 0.3671(4) 0.82765(19) 0.33313(13)
C6_4 C 0.4791(4) 0.96718(19) 0.39325(15)
C7_4 C 0.2032(4) 0.75172(18) 0.18333(14)
H3_4 H 0.0933 0.7491 0.2074
C8_4 C 0.3533(4) 0.65266(19) 0.32506(15)
C9_4 C 0.2742(4) 0.4801(2) 0.39293(16)
C10_4 C 0.3346(4) 0.55572(19) 0.43448(13)
H4_4 H 0.3516 0.5482 0.4854
C11_3 C 0.5103(4) 0.88104(19) 0.35642(16)
H5_3 H 0.6265 0.8603 0.3479
C12_4 C 0.1916(4) 0.8561(2) 0.34544(14)
H6_4 H 0.0962 0.8179 0.3312
C13_4 C 0.1627(4) 0.94288(19) 0.37953(14)
H7_4 H 0.0462 0.9643 0.3862
C14_4 C 0.2578(4) 0.4907(2) 0.31618(15)
H8_4 H 0.2182 0.4399 0.2875
C15_4 C 0.3706(4) 0.6425(2) 0.40211(15)
H9_4 H 0.4060 0.6936 0.4313
C16_4 C 0.2993(4) 0.57518(19) 0.28224(13)
H10_4 H 0.2914 0.5807 0.2308
H1_4 H 0.1133 0.7450 0.8305
H2_3 H 0.0742 0.4966 0.5894
C11_4 C 0.0103(4) 0.61896(19) 0.64358(16)
H5_4 H 0.1265 0.6397 0.6521
H2_4 H 0.9258 0.9966 0.9106
loop_
_geom_bond_atom_site_label_1
_geom_bond_atom_site_label_2
_geom_bond_site_symmetry_1
_geom_bond_site_symmetry_2
O2 C4 1_555 1_555
O3 C4 1_555 1_555
C4 C9 1_555 1_555
C14 C9 1_555 1_555
H8 C14 1_555 1_555
Mn2 O3 1_555 1_555
Mn6 O2 1_555 1_555
Mn2 O4 1_555 1_555
O1 C3 1_555 1_555
O4 C3 1_555 1_555
N1 N2 1_555 1_555
N2 C1 1_555 1_555
N3 N4 1_555 1_555
N4 C7 1_555 1_555
C1 N3 1_555 1_555
C2 C3 1_555 1_555
C5 N1 1_555 1_555
C6 C2 1_555 1_555
C7 N2 1_555 1_555
H3 C7 1_555 1_555
C8 N1 1_555 1_555
C10 H4 1_555 1_555
C12 C5 1_555 1_555
H6 C12 1_555 1_555
C13 C2 1_555 1_555
H7 C13 1_555 1_555
C15 C8 1_555 1_555
H9 C15 1_555 1_555
C16 C8 1_555 1_555
H10 C16 1_555 1_555
Mn4 N4 1_555 1_555
Mn6 O1 1_555 1_555
O5 Mn2 1_555 1_555
O6 Mn2 1_555 1_555
N5 Mn2 1_555 1_555
N6 Mn2 1_555 1_555
C10 C15 1_555 1_555
C12 C13 1_555 1_555
N6_2 Mn3 1_555 1_555
O1_2 C3_2 1_555 1_555
O4_2 C3_2 1_555 1_555
N1_2 N2_2 1_555 1_555
N2_2 C1_2 1_555 1_555
N5 N4_2 1_555 1_555
N4_2 C7_2 1_555 1_555
C1_2 N5 1_555 1_555
H1 C1_2 1_555 1_555
C2_2 C3_2 1_555 1_555
C5_2 N1_2 1_555 1_555
C6_2 C2_2 1_555 1_555
H2 C6_2 1_555 1_555
C7_2 N2_2 1_555 1_555
H3_2 C7_2 1_555 1_555
C8_2 N1_2 1_555 1_555
C10_2 H4_2 1_555 1_555
C11 C5_2 1_555 1_555
H5 C11 1_555 1_555
C12_2 C5_2 1_555 1_555
H6_2 C12_2 1_555 1_555
C13_2 C2_2 1_555 1_555
H7_2 C13_2 1_555 1_555
C15_2 C8_2 1_555 1_555
H9_2 C15_2 1_555 1_555
C16_2 C8_2 1_555 1_555
H10_2 C16_2 1_555 1_555
Mn6 N4_2 1_555 1_555
C6_2 C11 1_555 1_555
C10_2 C15_2 1_555 1_555
C12_2 C13_2 1_555 1_555
O2_2 C4_2 1_555 1_555
O7 C4_2 1_555 1_555
C4_2 C9_2 1_555 1_555
C14_2 C9_2 1_555 1_555
H8_2 C14_2 1_555 1_555
O6_2 C4_3 1_555 1_555
O3_2 C4_3 1_555 1_555
N1_3 N2_3 1_555 1_555
N2_3 C1_3 1_555 1_555
N3_2 N6 1_555 1_555
N6 C7_3 1_555 1_555
C1_3 N3_2 1_555 1_555
C4_3 C9_3 1_555 1_555
C5_3 N1_3 1_555 1_555
C6_3 C2_3 1_555 1_555
C7_3 N2_3 1_555 1_555
H3_3 C7_3 1_555 1_555
C8_3 N1_3 1_555 1_555
C9_3 C10_3 1_555 1_555
C10_3 H4_3 1_555 1_555
C12_3 C5_3 1_555 1_555
H6_3 C12_3 1_555 1_555
C13_3 C2_3 1_555 1_555
H7_3 C13_3 1_555 1_555
C14_3 C9_3 1_555 1_555
H8_3 C14_3 1_555 1_555
C15_3 C8_3 1_555 1_555
H9_3 C15_3 1_555 1_555
C16_3 C8_3 1_555 1_555
H10_3 C16_3 1_555 1_555
Mn4 O3_2 1_555 1_555
C10_3 C15_3 1_555 1_555
C12_3 C13_3 1_555 1_555
C14_3 C16_3 1_555 1_555
Mn4 O4_3 1_555 1_555
O5_2 C3_3 1_555 1_555
O4_3 C3_3 1_555 1_555
H5_2 C11_2 1_555 1_555
O5 C3_4 1_555 1_555
O4_4 C3_4 1_555 1_555
O6 C4_4 1_555 1_555
O7_2 C4_4 1_555 1_555
N1_4 N2_4 1_555 1_555
N2_4 C1_4 1_555 1_555
N5_2 N6_2 1_555 1_555
N6_2 C7_4 1_555 1_555
C1_4 N5_2 1_555 1_555
H1_3 C1_4 1_555 1_555
C4_4 C9_4 1_555 1_555
C5_4 N1_4 1_555 1_555
C6_4 C2_4 1_555 1_555
C7_4 N2_4 1_555 1_555
H3_4 C7_4 1_555 1_555
C8_4 N1_4 1_555 1_555
C9_4 C10_4 1_555 1_555
C10_4 H4_4 1_555 1_555
C11_3 C5_4 1_555 1_555
H5_3 C11_3 1_555 1_555
C12_4 C5_4 1_555 1_555
H6_4 C12_4 1_555 1_555
C13_4 C2_4 1_555 1_555
H7_4 C13_4 1_555 1_555
C14_4 C9_4 1_555 1_555
H8_4 C14_4 1_555 1_555
C15_4 C8_4 1_555 1_555
H9_4 C15_4 1_555 1_555
C16_4 C8_4 1_555 1_555
H10_4 C16_4 1_555 1_555
C6_4 C11_3 1_555 1_555
C10_4 C15_4 1_555 1_555
C12_4 C13_4 1_555 1_555
C14_4 C16_4 1_555 1_555
H5_4 C11_4 1_555 1_555

#END
