
###############################################################################
#
# This file contains modified crystal structure data generated from the
# MOF subset of the Cambridge Structural Database (CSD) v543 
# hosted by the Cambridge Crystallographic Data Centre (CCDC).
#
# This work is licensed under the Creative Commons
# Attribution-NonCommercial-ShareAlike 4.0 International License.
# To view a copy of this license, visit
# http://creativecommons.org/licenses/by-nc-sa/4.0/
# or send a letter to
# Creative Commons, PO Box 1866, Mountain View, CA 94042, USA.
#
# CIF created using the CSD Python API on 29 September 2022
# The structure has been converted into the P1 space group
# The structure has a 3D framework
# The original CSD entry KAXQOR01 is in the monoclinic crystal system
# The framework has been calculated to contain at least 10.0% void space
# The void calculation uses a probe of radius 1.32A, grid spacing 0.4
#
###############################################################################

data_KAXQOR01
_chemical_formula_moiety         '(C56 H32 Ca2 O22 S4)n'
_symmetry_cell_setting           triclinic
_symmetry_space_group_name_H-M   'P 1'
_symmetry_Int_Tables_number      1
_space_group_name_Hall           'P 1'
loop_
_symmetry_equiv_pos_site_id
_symmetry_equiv_pos_as_xyz
1 x,y,z
_cell_length_a                   11.7361(10)
_cell_length_b                   5.5499(4)
_cell_length_c                   22.8190(18)
_cell_angle_alpha                90
_cell_angle_beta                 100.999(4)
_cell_angle_gamma                90
_cell_volume                     1458.99
loop_
_atom_site_label
_atom_site_type_symbol
_atom_site_fract_x
_atom_site_fract_y
_atom_site_fract_z
O9 O 0.23116(16) 0.0214(3) 0.17178(7)
O11 O 0.04184(17) 0.0775(3) 0.24633(9)
Ca1 Ca 0.13571(4) 0.74108(7) 0.222238(19)
O7 O 0.23746(15) 0.4117(3) 0.19088(7)
O8 O 0.26254(15) 0.9117(3) 0.30912(7)
O10 O 0.01512(16) 0.4719(3) 0.25567(8)
H7 H 0.6844 0.0194 0.2191
Ca3 Ca 0.36429(4) 0.24108(7) 0.277762(19)
H4 H 0.8734 0.0292 0.9362
Ca5 Ca 0.86429(4) 0.25892(7) 0.777762(19)
S1 S 0.89506(5) 0.53390(10) 0.10652(2)
H2 H 0.7710 0.2941 0.0059
C5 C 0.8521(2) 0.6083(4) 0.03041(10)
C6 C 0.8812(2) 0.8303(5) 0.01045(11)
H3 H 0.9183 0.9448 0.0372
C8 C 0.7777(2) 0.6077(4) 0.14091(10)
C9 C 0.6886(2) 0.4416(5) 0.13887(11)
H5 H 0.6888 0.2989 0.1175
C10 C 0.5999(2) 0.4911(4) 0.16890(12)
H6 H 0.5408 0.3794 0.1687
C11 C 0.5985(2) 0.7063(4) 0.19942(10)
C12 C 0.6865(2) 0.8731(4) 0.19948(11)
C13 C 0.7775(2) 0.8240(4) 0.17061(11)
H8 H 0.8372 0.9346 0.1712
C14 C 0.5049(2) 0.7555(4) 0.23511(11)
O3 O 0.48488(16) 0.9719(3) 0.24433(8)
O4 O 0.99119(15) 0.6913(3) 0.13038(7)
O5 O 0.45816(17) 0.5775(3) 0.25367(9)
O6 O 0.91126(17) 0.2782(3) 0.11028(8)
C1 C 0.7771(2) 0.7639(4) 0.84486(10)
C2 C 0.8003(2) 0.7103(4) 0.91032(10)
C3 C 0.7685(2) 0.4911(4) 0.93113(11)
H1 H 0.7301 0.3777 0.9044
C4 C 0.7935(3) 0.4401(4) 0.99161(11)
C7 C 0.8545(2) 0.8797(4) 0.95009(11)
O1 O 0.76254(15) 0.5883(3) 0.80912(7)
O2 O 0.76884(16) 0.9786(3) 0.82822(7)
Ca6 Ca 0.63571(4) 0.75892(7) 0.722238(19)
S1_2 S 0.60494(5) 0.03390(10) 0.39348(2)
C1_2 C 0.7229(2) 0.2639(4) 0.65514(10)
C2_2 C 0.6997(2) 0.2103(4) 0.58968(10)
C5_2 C 0.6479(2) 0.1083(4) 0.46959(10)
C6_2 C 0.6188(2) 0.3303(5) 0.48955(11)
H3_2 H 0.5817 0.4448 0.4628
C7_2 C 0.6455(2) 0.3797(4) 0.54991(11)
H4_2 H 0.6266 0.5292 0.5638
C8_2 C 0.7223(2) 0.1077(4) 0.35909(10)
C11_2 C 0.9015(2) 0.2063(4) 0.30058(10)
C12_2 C 0.8135(2) 0.3731(4) 0.30052(11)
H7_2 H 0.8156 0.5194 0.2809
C13_2 C 0.7225(2) 0.3240(4) 0.32939(11)
H8_2 H 0.6628 0.4346 0.3288
C14_2 C 0.9951(2) 0.2555(4) 0.26489(11)
O1_2 O 0.73746(15) 0.0883(3) 0.69088(7)
O2_2 O 0.73116(16) 0.4786(3) 0.67178(7)
O4_2 O 0.50881(15) 0.1913(3) 0.36962(7)
O9_2 O 0.26884(16) 0.5214(3) 0.32822(7)
C3_2 C 0.7315(2) 0.9911(4) 0.56887(11)
H1_2 H 0.7699 0.8777 0.5956
C4_2 C 0.7065(3) 0.9401(4) 0.50839(11)
H2_2 H 0.7290 0.7941 0.4941
C9_2 C 0.8114(2) 0.9416(5) 0.36113(11)
H5_2 H 0.8112 0.7989 0.3825
C10_2 C 0.9001(2) 0.9911(4) 0.33110(12)
H6_2 H 0.9592 0.8794 0.3313
O6_2 O 0.58874(17) 0.7782(3) 0.38972(8)
C1_3 C 0.2229(2) 0.2361(4) 0.15514(10)
C2_3 C 0.1997(2) 0.2897(4) 0.08968(10)
C3_3 C 0.2315(2) 0.5089(4) 0.06887(11)
H1_3 H 0.2699 0.6223 0.0956
C4_3 C 0.2065(3) 0.5599(4) 0.00839(11)
C7_3 C 0.1455(2) 0.1203(4) 0.04991(11)
S1_3 S 0.10494(5) 0.46610(10) 0.89348(2)
H2_3 H 0.2290 0.7059 0.9941
C5_3 C 0.1479(2) 0.3917(4) 0.96959(10)
C6_3 C 0.1188(2) 0.1697(5) 0.98955(11)
H3_3 H 0.0817 0.0552 0.9628
C8_3 C 0.2223(2) 0.3923(4) 0.85909(10)
C9_3 C 0.3114(2) 0.5584(5) 0.86113(11)
H5_3 H 0.3112 0.7011 0.8825
C10_3 C 0.4001(2) 0.5089(4) 0.83110(12)
H6_3 H 0.4592 0.6206 0.8313
C11_3 C 0.4015(2) 0.2937(4) 0.80058(10)
C12_3 C 0.3135(2) 0.1269(4) 0.80052(11)
C13_3 C 0.2225(2) 0.1760(4) 0.82939(11)
H8_3 H 0.1628 0.0654 0.8288
C14_3 C 0.4951(2) 0.2445(4) 0.76489(11)
O3_2 O 0.51512(16) 0.0281(3) 0.75567(8)
O4_3 O 0.00881(15) 0.3087(3) 0.86962(7)
O5_2 O 0.54184(17) 0.4225(3) 0.74633(9)
O6_3 O 0.08874(17) 0.7218(3) 0.88972(8)
H4_3 H 0.1266 0.9708 0.0638
H7_3 H 0.3156 0.9806 0.7809
O10_2 O 0.98488(16) 0.5281(3) 0.74433(8)
O11_2 O 0.95816(17) 0.9225(3) 0.75367(9)
C3_4 C 0.2685(2) 0.0089(4) 0.43113(11)
H1_4 H 0.2301 0.1223 0.4044
C4_4 C 0.2935(3) 0.0599(4) 0.49161(11)
H2_4 H 0.2710 0.2059 0.5059
C9_4 C 0.1886(2) 0.0584(5) 0.63887(11)
H5_4 H 0.1888 0.2011 0.6175
C10_4 C 0.0999(2) 0.0089(4) 0.66890(12)
H6_4 H 0.0408 0.1206 0.6687
O6_4 O 0.41126(17) 0.2218(3) 0.61028(8)
S1_4 S 0.39506(5) 0.96610(10) 0.60652(2)
C1_4 C 0.2771(2) 0.7361(4) 0.34486(10)
C2_4 C 0.3003(2) 0.7897(4) 0.41032(10)
C5_4 C 0.3521(2) 0.8917(4) 0.53041(10)
C6_4 C 0.3812(2) 0.6697(5) 0.51045(11)
H3_4 H 0.4183 0.5552 0.5372
C7_4 C 0.3545(2) 0.6203(4) 0.45009(11)
H4_4 H 0.3734 0.4708 0.4362
C8_4 C 0.2777(2) 0.8923(4) 0.64091(10)
C11_4 C 0.0985(2) 0.7937(4) 0.69942(10)
C12_4 C 0.1865(2) 0.6269(4) 0.69948(11)
H7_4 H 0.1844 0.4806 0.7191
C13_4 C 0.2775(2) 0.6760(4) 0.67061(11)
H8_4 H 0.3372 0.5654 0.6712
C14_4 C 0.0049(2) 0.7445(4) 0.73511(11)
O4_4 O 0.49119(15) 0.8087(3) 0.63038(7)
loop_
_geom_bond_atom_site_label_1
_geom_bond_atom_site_label_2
_geom_bond_site_symmetry_1
_geom_bond_site_symmetry_2
O7 Ca1 1_555 1_555
O8 Ca1 1_555 1_555
O10 Ca1 1_555 1_555
S1 C5 1_555 1_555
C6 C5 1_555 1_555
H3 C6 1_555 1_555
C8 S1 1_555 1_555
C9 C8 1_555 1_555
H5 C9 1_555 1_555
C10 C9 1_555 1_555
H6 C10 1_555 1_555
C11 C10 1_555 1_555
C12 C11 1_555 1_555
C13 C8 1_555 1_555
H8 C13 1_555 1_555
C14 C11 1_555 1_555
O3 C14 1_555 1_555
O4 S1 1_555 1_555
O5 C14 1_555 1_555
O6 S1 1_555 1_555
Ca3 O5 1_555 1_555
C12 C13 1_555 1_555
C1 C2 1_555 1_555
C2 C3 1_555 1_555
C3 H1 1_555 1_555
C4 C3 1_555 1_555
C7 C2 1_555 1_555
O1 C1 1_555 1_555
O2 C1 1_555 1_555
Ca5 O1 1_555 1_555
Ca6 O1 1_555 1_555
Ca3 O4_2 1_555 1_555
S1_2 C5_2 1_555 1_555
C1_2 C2_2 1_555 1_555
C6_2 C5_2 1_555 1_555
H3_2 C6_2 1_555 1_555
C7_2 C2_2 1_555 1_555
H4_2 C7_2 1_555 1_555
C8_2 S1_2 1_555 1_555
C12_2 C11_2 1_555 1_555
H7_2 C12_2 1_555 1_555
C13_2 C8_2 1_555 1_555
H8_2 C13_2 1_555 1_555
C14_2 C11_2 1_555 1_555
O1_2 C1_2 1_555 1_555
O2_2 C1_2 1_555 1_555
O4_2 S1_2 1_555 1_555
Ca6 O2_2 1_555 1_555
Ca5 O1_2 1_555 1_555
O7 Ca3 1_555 1_555
O9_2 Ca3 1_555 1_555
C6_2 C7_2 1_555 1_555
C12_2 C13_2 1_555 1_555
C3_2 H1_2 1_555 1_555
C4_2 C3_2 1_555 1_555
H2_2 C4_2 1_555 1_555
H5_2 C9_2 1_555 1_555
C10_2 C9_2 1_555 1_555
H6_2 C10_2 1_555 1_555
C1_3 C2_3 1_555 1_555
C2_3 C3_3 1_555 1_555
C3_3 H1_3 1_555 1_555
C4_3 C3_3 1_555 1_555
C7_3 C2_3 1_555 1_555
O7 C1_3 1_555 1_555
O9 C1_3 1_555 1_555
S1_3 C5_3 1_555 1_555
C6_3 C5_3 1_555 1_555
H3_3 C6_3 1_555 1_555
C8_3 S1_3 1_555 1_555
C9_3 C8_3 1_555 1_555
H5_3 C9_3 1_555 1_555
C10_3 C9_3 1_555 1_555
H6_3 C10_3 1_555 1_555
C11_3 C10_3 1_555 1_555
C12_3 C11_3 1_555 1_555
C13_3 C8_3 1_555 1_555
H8_3 C13_3 1_555 1_555
C14_3 C11_3 1_555 1_555
O3_2 C14_3 1_555 1_555
O4_3 S1_3 1_555 1_555
O5_2 C14_3 1_555 1_555
O6_3 S1_3 1_555 1_555
Ca6 O5_2 1_555 1_555
C12_3 C13_3 1_555 1_555
O10_2 Ca5 1_555 1_555
C3_4 H1_4 1_555 1_555
C4_4 C3_4 1_555 1_555
H2_4 C4_4 1_555 1_555
H5_4 C9_4 1_555 1_555
C10_4 C9_4 1_555 1_555
H6_4 C10_4 1_555 1_555
Ca6 O4_4 1_555 1_555
S1_4 C5_4 1_555 1_555
C1_4 C2_4 1_555 1_555
C6_4 C5_4 1_555 1_555
H3_4 C6_4 1_555 1_555
C7_4 C2_4 1_555 1_555
H4_4 C7_4 1_555 1_555
C8_4 S1_4 1_555 1_555
C12_4 C11_4 1_555 1_555
H7_4 C12_4 1_555 1_555
C13_4 C8_4 1_555 1_555
H8_4 C13_4 1_555 1_555
C14_4 C11_4 1_555 1_555
O8 C1_4 1_555 1_555
O9_2 C1_4 1_555 1_555
O4_4 S1_4 1_555 1_555
C6_4 C7_4 1_555 1_555
C12_4 C13_4 1_555 1_555

#END
