
###############################################################################
#
# This file contains modified crystal structure data generated from the
# MOF subset of the Cambridge Structural Database (CSD) v543 
# hosted by the Cambridge Crystallographic Data Centre (CCDC).
#
# This work is licensed under the Creative Commons
# Attribution-NonCommercial-ShareAlike 4.0 International License.
# To view a copy of this license, visit
# http://creativecommons.org/licenses/by-nc-sa/4.0/
# or send a letter to
# Creative Commons, PO Box 1866, Mountain View, CA 94042, USA.
#
# CIF created using the CSD Python API on 29 September 2022
# The structure has been converted into the P1 space group
# The structure has a 3D framework
# The original CSD entry KAYKAZ is in the triclinic crystal system
# The framework has been calculated to contain at least 10.0% void space
# The void calculation uses a probe of radius 1.32A, grid spacing 0.4
#
###############################################################################

data_KAYKAZ
_chemical_formula_moiety         '(C82 H48 F12 N4 O16 S4 Zn4)n'
_symmetry_cell_setting           triclinic
_symmetry_space_group_name_H-M   'P 1'
_symmetry_Int_Tables_number      1
_space_group_name_Hall           'P 1'
loop_
_symmetry_equiv_pos_site_id
_symmetry_equiv_pos_as_xyz
1 x,y,z
_cell_length_a                   10.983(10)
_cell_length_b                   11.014(12)
_cell_length_c                   20.55(2)
_cell_angle_alpha                88.39(4)
_cell_angle_beta                 78.45(4)
_cell_angle_gamma                75.71(5)
_cell_volume                     2359.58
loop_
_atom_site_label
_atom_site_type_symbol
_atom_site_fract_x
_atom_site_fract_y
_atom_site_fract_z
N2 N 0.2212(12) 0.3374(11) 0.0316(7)
F1 F 0.4206(10) 0.2773(11) 0.3784(5)
F2 F 0.2486(12) 0.0446(12) 0.5295(5)
C23 C 0.143(2) 0.222(2) 0.4723(10)
C24 C 0.3170(15) 0.3216(17) 0.0693(9)
H13 H 0.4015 0.3228 0.0474
C25 C 0.1667(16) 0.240(2) 0.3512(9)
C26 C 0.1431(16) 0.2830(16) 0.2417(8)
F3 F 0.4275(10) 0.0810(10) 0.3889(6)
C29 C 0.353(2) 0.2000(19) 0.4886(10)
C30 C 0.2244(17) 0.2523(16) 0.2819(8)
H15 H 0.3144 0.2390 0.2668
C31 C 0.223(2) 0.1803(18) 0.5223(9)
F4 F 0.1733(11) 0.2257(11) 0.5843(5)
F5 F 0.4576(11) 0.1353(12) 0.5091(6)
C33 C 0.0179(18) 0.2433(17) 0.3598(8)
H17 H 0.0494 0.4573 0.4110
C35 C 0.0744(14) 0.3215(14) 0.1310(7)
C36 C 0.1663(14) 0.3083(13) 0.1696(7)
C37 C 0.0037(17) 0.1058(18) 0.3627(9)
H20 H 0.0500 0.0613 0.3210
H22 H 0.0394 0.0635 0.3998
C38 C 0.2135(18) 0.2183(19) 0.4077(10)
C39 C 0.350(2) 0.1963(16) 0.4134(9)
F6 F 0.3365(10) 0.3296(11) 0.5039(6)
C40 C 0.1056(13) 0.3376(13) 0.0633(8)
H23 H 0.0394 0.3494 0.0385
C41 C 0.2944(15) 0.3052(14) 0.1339(7)
H24 H 0.3629 0.2912 0.1572
Zn7 Zn 0.27275(16) 0.34921(16) 0.92717(9)
Zn1 Zn 0.32626(17) 0.34612(16) 0.77599(9)
O2 O 0.1328(10) 0.3678(10) 0.7941(6)
O3 O 0.3048(10) 0.1602(10) 0.9043(6)
O5 O 0.0946(10) 0.3708(10) 0.9088(6)
N1 N 0.4387(12) 0.3214(13) 0.6797(7)
O7 O 0.3400(10) 0.1600(10) 0.7899(5)
C11 C 0.3220(15) 0.1081(15) 0.8463(9)
C15 C 0.0645(17) 0.3687(14) 0.8514(9)
C16 C 0.6507(16) 0.2078(18) 0.6222(8)
H8 H 0.7194 0.1348 0.6185
C18 C 0.4489(15) 0.4140(16) 0.6380(8)
H10 H 0.3813 0.4881 0.6439
C19 C 0.6597(15) 0.3019(19) 0.5794(8)
C20 C 0.5408(18) 0.2170(16) 0.6721(9)
H11 H 0.5365 0.1494 0.7015
C21 C 0.998(2) 0.2627(17) 0.4828(9)
C22 C 0.5572(16) 0.4084(17) 0.5840(7)
H12 H 0.5588 0.4740 0.5531
S1 S 0.7716(5) 0.3214(5) 0.4439(2)
C27 C 0.9043(19) 0.2573(19) 0.5389(9)
H14 H 0.9230 0.2295 0.5808
C28 C 0.7902(18) 0.2939(15) 0.5281(8)
C32 C 0.9466(16) 0.3152(17) 0.4243(9)
C34 C 0.9589(16) 0.4559(19) 0.4171(8)
H16 H 0.9247 0.4927 0.3785
H18 H 0.9103 0.5045 0.4572
H19 H 0.9892 0.3195 0.1512
H21 H 0.9128 0.1062 0.3692
S2 S 0.9729(5) 0.3081(5) 0.2818(2)
O9 O 0.4634(9) 0.3341(10) 0.9238(6)
O10 O 0.4927(11) 0.3308(11) 0.8109(5)
O11 O 0.2616(10) 0.5358(9) 0.9002(6)
O12 O 0.3044(10) 0.5348(10) 0.7858(6)
C1 C 0.2616(18) 0.7912(16) 0.9045(9)
H1 H 0.2341 0.7541 0.9453
C2 C 0.3104(15) 0.9713(15) 0.8483(8)
C8 C 0.3506(16) 0.9005(17) 0.7864(9)
H4 H 0.3850 0.9373 0.7469
C9 C 0.3385(16) 0.7764(15) 0.7852(8)
H5 H 0.3589 0.7313 0.7442
C10 C 0.2667(14) 0.9175(14) 0.9055(8)
H6 H 0.2398 0.9648 0.9460
C13 C 0.2836(13) 0.5870(14) 0.8447(7)
C14 C 0.2951(16) 0.7174(14) 0.8461(8)
C3 C 0.7506(14) 0.3469(15) 0.7995(8)
H2 H 0.7203 0.3430 0.7596
C4 C 0.7135(12) 0.3557(12) 0.9198(7)
H3 H 0.6580 0.3590 0.9620
C5 C 0.5333(17) 0.3356(15) 0.8652(9)
C6 C 0.9242(14) 0.3652(13) 0.8528(9)
C7 C 0.6681(14) 0.3436(13) 0.8611(8)
C12 C 0.8386(14) 0.3628(14) 0.9157(8)
H7 H 0.8693 0.3662 0.9555
C17 C 0.8799(13) 0.3562(15) 0.7958(8)
H9 H 0.9349 0.3560 0.7538
O1 O 0.5366(9) 0.6659(10) 0.0762(6)
O4 O 0.5073(11) 0.6692(11) 0.1891(5)
C3_2 C 0.2494(14) 0.6531(15) 0.2005(8)
H2_2 H 0.2797 0.6570 0.2404
C4_2 C 0.2865(12) 0.6443(12) 0.0802(7)
H3_2 H 0.3420 0.6410 0.0380
C5_2 C 0.4667(17) 0.6644(15) 0.1348(9)
C6_2 C 0.0758(14) 0.6348(13) 0.1472(9)
C7_2 C 0.3319(14) 0.6564(13) 0.1389(8)
C12_2 C 0.1614(14) 0.6372(14) 0.0843(8)
H7_2 H 0.1307 0.6338 0.0445
C17_2 C 0.1201(13) 0.6438(15) 0.2042(8)
H9_2 H 0.0651 0.6440 0.2462
Zn3 Zn 0.67374(17) 0.65388(16) 0.22401(9)
Zn5 Zn 0.72725(16) 0.65079(16) 0.07283(9)
C1_2 C 0.7384(18) 0.2088(16) 0.0955(9)
H1_2 H 0.7659 0.2459 0.0547
C2_2 C 0.6896(15) 0.0287(15) 0.1517(8)
O6 O 0.7384(10) 0.4642(9) 0.0998(6)
C8_2 C 0.6494(16) 0.0995(17) 0.2136(9)
H4_2 H 0.6150 0.0627 0.2531
C9_2 C 0.6615(16) 0.2236(15) 0.2148(8)
H5_2 H 0.6411 0.2687 0.2558
C10_2 C 0.7333(14) 0.0825(14) 0.0945(8)
H6_2 H 0.7602 0.0352 0.0540
C13_2 C 0.7164(13) 0.4130(14) 0.1553(7)
O8 O 0.6956(10) 0.4652(10) 0.2142(6)
C14_2 C 0.7049(16) 0.2826(14) 0.1539(8)
O2_2 O 0.8672(10) 0.6322(10) 0.2059(6)
O3_2 O 0.6952(10) 0.8398(10) 0.0957(6)
O5_2 O 0.9054(10) 0.6292(10) 0.0912(6)
N1_2 N 0.5613(12) 0.6786(13) 0.3203(7)
O7_2 O 0.6600(10) 0.8400(10) 0.2101(5)
C11_2 C 0.6780(15) 0.8919(15) 0.1537(9)
C15_2 C 0.9355(17) 0.6313(14) 0.1486(9)
C16_2 C 0.3493(16) 0.7922(18) 0.3778(8)
H8_2 H 0.2806 0.8652 0.3815
C18_2 C 0.5511(15) 0.5860(16) 0.3620(8)
H10_2 H 0.6187 0.5119 0.3561
C19_2 C 0.3403(15) 0.6981(19) 0.4206(8)
C20_2 C 0.4592(18) 0.7830(16) 0.3279(9)
H11_2 H 0.4635 0.8506 0.2985
C21_2 C 0.002(2) 0.7373(17) 0.5172(9)
C22_2 C 0.4428(16) 0.5916(17) 0.4160(7)
H12_2 H 0.4412 0.5260 0.4469
S1_2 S 0.2284(5) 0.6786(5) 0.5561(2)
C27_2 C 0.0957(19) 0.7427(19) 0.4611(9)
H14_2 H 0.0770 0.7705 0.4192
C28_2 C 0.2098(18) 0.7061(15) 0.4719(8)
C32_2 C 0.0534(16) 0.6848(17) 0.5757(9)
C34_2 C 0.0411(16) 0.5441(19) 0.5829(8)
H16_2 H 0.0753 0.5073 0.6215
H18_2 H 0.0897 0.4955 0.5428
H19_2 H 0.0108 0.6805 0.8488
H21_2 H 0.0872 0.8938 0.6308
S2_2 S 0.0271(5) 0.6919(5) 0.7182(2)
N3 N 0.7788(12) 0.6626(11) 0.9684(7)
F1_2 F 0.5794(10) 0.7227(11) 0.6216(5)
F2_2 F 0.7514(12) 0.9554(12) 0.4705(5)
C23_2 C 0.857(2) 0.778(2) 0.5277(10)
C24_2 C 0.6830(15) 0.6784(17) 0.9307(9)
H13_2 H 0.5985 0.6772 0.9526
C25_2 C 0.8333(16) 0.760(2) 0.6488(9)
C26_2 C 0.8569(16) 0.7170(16) 0.7583(8)
F3_2 F 0.5725(10) 0.9190(10) 0.6111(6)
C29_2 C 0.647(2) 0.8000(19) 0.5114(10)
C30_2 C 0.7756(17) 0.7477(16) 0.7181(8)
H15_2 H 0.6856 0.7610 0.7332
C31_2 C 0.777(2) 0.8197(18) 0.4777(9)
F4_2 F 0.8267(11) 0.7743(11) 0.4157(5)
F5_2 F 0.5424(11) 0.8647(12) 0.4909(6)
C33_2 C 0.9821(18) 0.7567(17) 0.6402(8)
H17_2 H 0.9506 0.5427 0.5890
C35_2 C 0.9256(14) 0.6785(14) 0.8690(7)
C36_2 C 0.8337(14) 0.6917(13) 0.8304(7)
C37_2 C 0.9963(17) 0.8942(18) 0.6373(9)
H20_2 H 0.9500 0.9387 0.6790
H22_2 H 0.9606 0.9365 0.6002
C38_2 C 0.7865(18) 0.7817(19) 0.5923(10)
C39_2 C 0.650(2) 0.8037(16) 0.5866(9)
F6_2 F 0.6635(10) 0.6704(11) 0.4961(6)
C40_2 C 0.8944(13) 0.6624(13) 0.9367(8)
H23_2 H 0.9606 0.6506 0.9615
C41_2 C 0.7056(15) 0.6948(14) 0.8661(7)
H24_2 H 0.6371 0.7088 0.8428
loop_
_geom_bond_atom_site_label_1
_geom_bond_atom_site_label_2
_geom_bond_site_symmetry_1
_geom_bond_site_symmetry_2
N2 C24 1_555 1_555
F1 C39 1_555 1_555
F2 C31 1_555 1_555
C23 C31 1_555 1_555
C24 H13 1_555 1_555
C25 C30 1_555 1_555
C26 C30 1_555 1_555
F3 C39 1_555 1_555
C29 C31 1_555 1_555
C30 H15 1_555 1_555
C31 F4 1_555 1_555
F5 C29 1_555 1_555
C33 C25 1_555 1_555
C36 C26 1_555 1_555
C37 C33 1_555 1_555
H20 C37 1_555 1_555
H22 C37 1_555 1_555
C38 C23 1_555 1_555
C39 C29 1_555 1_555
F6 C29 1_555 1_555
C40 N2 1_555 1_555
H23 C40 1_555 1_555
C41 C24 1_555 1_555
H24 C41 1_555 1_555
C25 C38 1_555 1_555
C35 C36 1_555 1_555
C35 C40 1_555 1_555
C36 C41 1_555 1_555
C38 C39 1_555 1_555
Zn1 O2 1_555 1_555
O2 C15 1_555 1_555
O3 Zn7 1_555 1_555
O5 Zn7 1_555 1_555
N1 Zn1 1_555 1_555
O7 Zn1 1_555 1_555
Zn7 O9 1_555 1_555
C11 O3 1_555 1_555
C15 O5 1_555 1_555
C16 H8 1_555 1_555
C18 N1 1_555 1_555
H10 C18 1_555 1_555
C19 C16 1_555 1_555
C20 N1 1_555 1_555
H11 C20 1_555 1_555
C22 C18 1_555 1_555
H12 C22 1_555 1_555
S1 C28 1_555 1_555
C27 C21 1_555 1_555
H14 C27 1_555 1_555
C28 C19 1_555 1_555
C32 C21 1_555 1_555
C34 C32 1_555 1_555
H16 C34 1_555 1_555
H18 C34 1_555 1_555
O10 Zn1 1_555 1_555
O11 Zn7 1_555 1_555
O12 Zn1 1_555 1_555
O7 C11 1_555 1_555
C16 C20 1_555 1_555
C19 C22 1_555 1_555
S1 C32 1_555 1_555
C27 C28 1_555 1_555
C1 H1 1_555 1_555
C2 C8 1_555 1_555
O11 C13 1_555 1_555
C8 H4 1_555 1_555
C9 C8 1_555 1_555
H5 C9 1_555 1_555
C10 C1 1_555 1_555
H6 C10 1_555 1_555
C13 O12 1_555 1_555
C14 C1 1_555 1_555
C2 C10 1_555 1_555
C9 C14 1_555 1_555
C13 C14 1_555 1_555
O9 C5 1_555 1_555
O10 C5 1_555 1_555
C3 H2 1_555 1_555
C4 H3 1_555 1_555
C5 C7 1_555 1_555
C6 C12 1_555 1_555
C7 C3 1_555 1_555
C12 C4 1_555 1_555
H7 C12 1_555 1_555
C17 C3 1_555 1_555
H9 C17 1_555 1_555
C4 C7 1_555 1_555
C6 C17 1_555 1_555
O1 C5_2 1_555 1_555
O4 C5_2 1_555 1_555
C3_2 H2_2 1_555 1_555
C4_2 H3_2 1_555 1_555
C5_2 C7_2 1_555 1_555
C6_2 C12_2 1_555 1_555
C7_2 C3_2 1_555 1_555
C12_2 C4_2 1_555 1_555
H7_2 C12_2 1_555 1_555
C17_2 C3_2 1_555 1_555
H9_2 C17_2 1_555 1_555
Zn3 O4 1_555 1_555
Zn5 O1 1_555 1_555
C4_2 C7_2 1_555 1_555
C6_2 C17_2 1_555 1_555
C1_2 H1_2 1_555 1_555
C2_2 C8_2 1_555 1_555
O6 C13_2 1_555 1_555
C8_2 H4_2 1_555 1_555
C9_2 C8_2 1_555 1_555
H5_2 C9_2 1_555 1_555
C10_2 C1_2 1_555 1_555
H6_2 C10_2 1_555 1_555
C13_2 O8 1_555 1_555
O8 Zn3 1_555 1_555
C14_2 C1_2 1_555 1_555
Zn5 O6 1_555 1_555
C2_2 C10_2 1_555 1_555
C9_2 C14_2 1_555 1_555
C13_2 C14_2 1_555 1_555
Zn3 O2_2 1_555 1_555
O2_2 C15_2 1_555 1_555
O3_2 Zn5 1_555 1_555
O5_2 Zn5 1_555 1_555
N1_2 Zn3 1_555 1_555
O7_2 Zn3 1_555 1_555
C11_2 O3_2 1_555 1_555
C15_2 O5_2 1_555 1_555
C16_2 H8_2 1_555 1_555
C18_2 N1_2 1_555 1_555
H10_2 C18_2 1_555 1_555
C19_2 C16_2 1_555 1_555
C20_2 N1_2 1_555 1_555
H11_2 C20_2 1_555 1_555
C22_2 C18_2 1_555 1_555
H12_2 C22_2 1_555 1_555
S1_2 C28_2 1_555 1_555
C27_2 C21_2 1_555 1_555
H14_2 C27_2 1_555 1_555
C28_2 C19_2 1_555 1_555
C32_2 C21_2 1_555 1_555
C34_2 C32_2 1_555 1_555
H16_2 C34_2 1_555 1_555
H18_2 C34_2 1_555 1_555
O7_2 C11_2 1_555 1_555
C16_2 C20_2 1_555 1_555
C19_2 C22_2 1_555 1_555
S1_2 C32_2 1_555 1_555
C27_2 C28_2 1_555 1_555
N3 C24_2 1_555 1_555
F1_2 C39_2 1_555 1_555
F2_2 C31_2 1_555 1_555
C23_2 C31_2 1_555 1_555
C24_2 H13_2 1_555 1_555
C25_2 C30_2 1_555 1_555
C26_2 C30_2 1_555 1_555
F3_2 C39_2 1_555 1_555
C29_2 C31_2 1_555 1_555
C30_2 H15_2 1_555 1_555
C31_2 F4_2 1_555 1_555
F5_2 C29_2 1_555 1_555
C33_2 C25_2 1_555 1_555
C36_2 C26_2 1_555 1_555
C37_2 C33_2 1_555 1_555
H20_2 C37_2 1_555 1_555
H22_2 C37_2 1_555 1_555
C38_2 C23_2 1_555 1_555
C39_2 C29_2 1_555 1_555
F6_2 C29_2 1_555 1_555
C40_2 N3 1_555 1_555
H23_2 C40_2 1_555 1_555
C41_2 C24_2 1_555 1_555
H24_2 C41_2 1_555 1_555
C25_2 C38_2 1_555 1_555
C35_2 C36_2 1_555 1_555
C35_2 C40_2 1_555 1_555
C36_2 C41_2 1_555 1_555
C38_2 C39_2 1_555 1_555

#END
