
###############################################################################
#
# This file contains modified crystal structure data generated from the
# MOF subset of the Cambridge Structural Database (CSD) v543 
# hosted by the Cambridge Crystallographic Data Centre (CCDC).
#
# This work is licensed under the Creative Commons
# Attribution-NonCommercial-ShareAlike 4.0 International License.
# To view a copy of this license, visit
# http://creativecommons.org/licenses/by-nc-sa/4.0/
# or send a letter to
# Creative Commons, PO Box 1866, Mountain View, CA 94042, USA.
#
# CIF created using the CSD Python API on 29 September 2022
# The structure has been converted into the P1 space group
# The structure has a 3D framework
# The original CSD entry KEBDIG is in the trigonal crystal system
# The framework has been calculated to contain at least 10.0% void space
# The void calculation uses a probe of radius 1.32A, grid spacing 0.4
# The framework is charged, counterions have been retained in the structure
#
###############################################################################

data_KEBDIG
_chemical_formula_moiety         '(C126 H78 Cl2 Co4 N24 O12 1+)n'
_symmetry_cell_setting           triclinic
_symmetry_space_group_name_H-M   'P 1'
_symmetry_Int_Tables_number      1
_space_group_name_Hall           'P 1'
loop_
_symmetry_equiv_pos_site_id
_symmetry_equiv_pos_as_xyz
1 x,y,z
_cell_length_a                   17.031(5)
_cell_length_b                   17.031(5)
_cell_length_c                   13.922(4)
_cell_angle_alpha                90
_cell_angle_beta                 90
_cell_angle_gamma                120
_cell_volume                     3497.14
loop_
_atom_site_label
_atom_site_type_symbol
_atom_site_fract_x
_atom_site_fract_y
_atom_site_fract_z
N1 N 0.1100(2) 0.6055(3) 0.4123(2)
N2 N 0.2280(2) 0.6675(2) 0.5148(2)
C4 C 0.0588(3) 0.5549(3) 0.3302(3)
C5 C 0.1059(4) 0.5529(2) 0.2500
H2 H 0.1689 0.5845 0.2500
C6 C 0.1893(3) 0.6115(3) 0.4425(3)
H3 H 0.2137 0.5789 0.4144
C7 C 0.1701(3) 0.7019(3) 0.5341(3)
C8 C 0.1773(4) 0.7657(4) 0.6023(4)
H4 H 0.2253 0.7913 0.6455
C9 C 0.1116(5) 0.7886(6) 0.6028(6)
H5 H 0.1142 0.8298 0.6483
C10 C 0.0396(5) 0.7518(6) 0.5365(6)
C11 C 0.0300(4) 0.6875(4) 0.4695(4)
C12 C 0.0963(3) 0.6644(4) 0.4689(3)
Co3 Co 0.3333 0.6667 0.60253(6)
N3 N 0.1100(2) 0.5045(4) 0.0877(2)
C22 C 0.0588(3) 0.5039(4) 0.1698(3)
C29 C 0.1893(3) 0.5778(4) 0.0575(3)
H15 H 0.2137 0.6348 0.0856
C54 C 0.0300(4) 0.3425(6) 0.0305(4)
C59 C 0.0963(3) 0.4319(5) 0.0311(3)
Co4 Co 0.3333 0.6666 0.89747(6)
N8 N 0.2280(2) 0.5605(3) 0.9852(2)
C34 C 0.1701(3) 0.4682(4) 0.9659(3)
C39 C 0.1773(4) 0.4116(6) 0.8977(4)
H20 H 0.2253 0.4340 0.8545
C44 C 0.1116(5) 0.3230(8) 0.8972(6)
H25 H 0.1142 0.2844 0.8517
C49 C 0.0396(5) 0.2878(8) 0.9635(6)
Co1 Co 0.6667 0.3333 0.10253(6)
O1 O 0.7785(2) 0.35417(19) 0.1807(2)
C1 C 0.8167(4) 0.4084(2) 0.2500
C2 C 0.9186(4) 0.4593(2) 0.2500
C3 C 0.9662(3) 0.5081(3) 0.3312(3)
H1 H 0.9349 0.5089 0.3856
H6 H 0.9973 0.7711 0.5378
H7 H 0.9812 0.6615 0.4271
Co2 Co 0.6667 0.3334 0.39747(6)
O2 O 0.7785(2) 0.42433(28) 0.3193(2)
O3 O 0.64583(19) 0.42433(28) 0.1807(2)
O4 O 0.57567(28) 0.35417(19) 0.3193(2)
O5 O 0.57567(28) 0.2215(2) 0.1807(2)
O6 O 0.64583(19) 0.2215(2) 0.3193(2)
N4 N 0.3945(3) 0.5045(4) 0.4123(2)
N5 N 0.4955(4) 0.6055(3) 0.0877(2)
N9 N 0.3325(2) 0.5605(3) 0.5148(2)
N13 N 0.6675(2) 0.2280(2) 0.0148(2)
N14 N 0.7720(2) 0.4395(3) 0.0148(2)
N15 N 0.5605(3) 0.3325(2) 0.0148(2)
N16 N 0.6675(2) 0.4395(3) 0.4852(2)
N17 N 0.7720(2) 0.3325(2) 0.4852(2)
N18 N 0.5605(3) 0.2280(2) 0.4852(2)
C13 C 0.5916(2) 0.4083(4) 0.2500
C14 C 0.5917(4) 0.1833(4) 0.2500
C15 C 0.5407(2) 0.4593(4) 0.2500
C16 C 0.5407(4) 0.0814(4) 0.2500
C17 C 0.9662(3) 0.4581(4) 0.1688(3)
C18 C 0.4919(3) 0.4581(4) 0.3312(3)
C19 C 0.5419(4) 0.5081(3) 0.1688(3)
C20 C 0.5419(4) 0.0338(3) 0.3312(3)
C21 C 0.4919(3) 0.0338(3) 0.1688(3)
H8 H 0.9349 0.4260 0.1144
H9 H 0.4911 0.4260 0.3856
H10 H 0.5740 0.5089 0.1144
H11 H 0.5740 0.0651 0.3856
H12 H 0.4911 0.0651 0.1144
C23 C 0.4451(3) 0.5039(4) 0.3302(3)
C24 C 0.4961(4) 0.5549(3) 0.1698(3)
C27 C 0.4471(2) 0.5530(4) 0.2500
H13 H 0.4155 0.5844 0.2500
C30 C 0.3885(3) 0.5778(4) 0.4425(3)
C31 C 0.4222(4) 0.6115(3) 0.0575(3)
H16 H 0.4211 0.6348 0.4144
H17 H 0.3652 0.5789 0.0856
C35 C 0.2981(3) 0.4682(4) 0.5341(3)
C40 C 0.2343(4) 0.4116(6) 0.6023(4)
H21 H 0.2087 0.4340 0.6455
C45 C 0.2114(6) 0.3230(8) 0.6028(6)
H26 H 0.1702 0.2844 0.6483
C50 C 0.2482(6) 0.2878(8) 0.5365(6)
H31 H 0.2289 0.2262 0.5378
H33 H 0.7738 0.0027 0.5378
C55 C 0.3125(4) 0.3425(6) 0.4695(4)
C56 C 0.6575(6) 0.6875(4) 0.0305(4)
H35 H 0.9812 0.3197 0.0729
H36 H 0.3385 0.3197 0.4271
H37 H 0.6803 0.6615 0.0729
H38 H 0.6803 0.0188 0.4271
H39 H 0.3385 0.0188 0.0729
C60 C 0.3356(4) 0.4319(5) 0.4689(3)
C61 C 0.5681(5) 0.6644(4) 0.0311(3)
N10 N 0.4395(3) 0.6675(2) 0.9852(2)
C36 C 0.5318(4) 0.7019(3) 0.9659(3)
C41 C 0.5884(6) 0.7657(4) 0.8977(4)
H22 H 0.5660 0.7913 0.8545
C46 C 0.6770(8) 0.7886(6) 0.8972(6)
H27 H 0.7156 0.8298 0.8517
C51 C 0.7122(8) 0.7518(6) 0.9635(6)
H30 H 0.9973 0.2262 0.9622
H32 H 0.7738 0.7711 0.9622
H34 H 0.2289 0.0027 0.9622
N6 N 0.4955(4) 0.8900(2) 0.4123(2)
N7 N 0.3945(3) 0.8900(2) 0.0877(2)
N11 N 0.4395(3) 0.7720(2) 0.5148(2)
C25 C 0.4961(4) 0.9412(3) 0.3302(3)
C26 C 0.4451(3) 0.9412(3) 0.1698(3)
C28 C 0.4470(4) 0.8941(4) 0.2500
H14 H 0.4156 0.8311 0.2500
C32 C 0.4222(4) 0.8107(3) 0.4425(3)
C33 C 0.3885(3) 0.8107(3) 0.0575(3)
H18 H 0.3652 0.7863 0.4144
H19 H 0.4211 0.7863 0.0856
C37 C 0.5318(4) 0.8299(3) 0.5341(3)
C42 C 0.5884(6) 0.8227(4) 0.6023(4)
H23 H 0.5660 0.7747 0.6455
C47 C 0.6770(8) 0.8884(5) 0.6028(6)
H28 H 0.7156 0.8858 0.6483
C52 C 0.7122(8) 0.9604(5) 0.5365(6)
C57 C 0.6575(6) 0.9700(4) 0.4695(4)
C58 C 0.3125(4) 0.9700(4) 0.0305(4)
C62 C 0.5681(5) 0.9037(3) 0.4689(3)
C63 C 0.3356(4) 0.9037(3) 0.0311(3)
N12 N 0.3325(2) 0.7720(2) 0.9852(2)
C38 C 0.2981(3) 0.8299(3) 0.9659(3)
C43 C 0.2343(4) 0.8227(4) 0.8977(4)
H24 H 0.2087 0.7747 0.8545
C48 C 0.2114(6) 0.8884(5) 0.8972(6)
H29 H 0.1702 0.8858 0.8517
C53 C 0.2482(6) 0.9604(5) 0.9635(6)
C38_2 C 0.7019(3) 0.1701(3) 0.0341(3)
C43_2 C 0.7657(4) 0.1773(4) 0.1023(4)
H24_2 H 0.7913 0.2253 0.1455
C48_2 C 0.7886(6) 0.1116(5) 0.1028(6)
H29_2 H 0.8298 0.1142 0.1483
C53_2 C 0.7518(6) 0.0396(5) 0.0365(6)
N6_2 N 0.5045(4) 0.1100(2) 0.5877(2)
N7_2 N 0.6055(3) 0.1100(2) 0.9123(2)
C25_2 C 0.5039(4) 0.0588(3) 0.6698(3)
C26_2 C 0.5549(3) 0.0588(3) 0.8302(3)
C28_2 C 0.5530(4) 0.1059(4) 0.7500
H14_2 H 0.5844 0.1689 0.7500
C32_2 C 0.5778(4) 0.1893(3) 0.5575(3)
C33_2 C 0.6115(3) 0.1893(3) 0.9425(3)
H18_2 H 0.6348 0.2137 0.5856
H19_2 H 0.5789 0.2137 0.9144
C37_2 C 0.4682(4) 0.1701(3) 0.4659(3)
C42_2 C 0.4116(6) 0.1773(4) 0.3977(4)
H23_2 H 0.4340 0.2253 0.3545
C47_2 C 0.3230(8) 0.1116(5) 0.3972(6)
H28_2 H 0.2844 0.1142 0.3517
C52_2 C 0.2878(8) 0.0396(5) 0.4635(6)
C57_2 C 0.3425(6) 0.0300(4) 0.5305(4)
C58_2 C 0.6875(4) 0.0300(4) 0.9695(4)
C62_2 C 0.4319(5) 0.0963(3) 0.5311(3)
C63_2 C 0.6644(4) 0.0963(3) 0.9689(3)
C36_2 C 0.4682(4) 0.2981(3) 0.0341(3)
C41_2 C 0.4116(6) 0.2343(4) 0.1023(4)
H22_2 H 0.4340 0.2087 0.1455
C46_2 C 0.3230(8) 0.2114(6) 0.1028(6)
H27_2 H 0.2844 0.1702 0.1483
C51_2 C 0.2878(8) 0.2482(6) 0.0365(6)
H30_2 H 0.0027 0.7738 0.0378
H32_2 H 0.2262 0.2289 0.0378
H34_2 H 0.7711 0.9973 0.0378
O1_2 O 0.2215(2) 0.64583(19) 0.8193(2)
C1_2 C 0.1833(4) 0.5916(2) 0.7500
C2_2 C 0.0814(4) 0.5407(2) 0.7500
C3_2 C 0.0338(3) 0.4919(3) 0.6688(3)
H1_2 H 0.0651 0.4911 0.6144
H6_2 H 0.0027 0.2289 0.4622
H7_2 H 0.0188 0.3385 0.5729
O2_2 O 0.2215(2) 0.57567(28) 0.6807(2)
O3_2 O 0.35417(19) 0.57567(28) 0.8193(2)
O4_2 O 0.42433(28) 0.64583(19) 0.6807(2)
O5_2 O 0.42433(28) 0.7785(2) 0.8193(2)
O6_2 O 0.35417(19) 0.7785(2) 0.6807(2)
N4_2 N 0.6055(3) 0.4955(4) 0.5877(2)
N5_2 N 0.5045(4) 0.3945(3) 0.9123(2)
C13_2 C 0.4084(2) 0.5917(4) 0.7500
C14_2 C 0.4083(4) 0.8167(4) 0.7500
C15_2 C 0.4593(2) 0.5407(4) 0.7500
C16_2 C 0.4593(4) 0.9186(4) 0.7500
C17_2 C 0.0338(3) 0.5419(4) 0.8312(3)
C18_2 C 0.5081(3) 0.5419(4) 0.6688(3)
C19_2 C 0.4581(4) 0.4919(3) 0.8312(3)
C20_2 C 0.4581(4) 0.9662(3) 0.6688(3)
C21_2 C 0.5081(3) 0.9662(3) 0.8312(3)
H8_2 H 0.0651 0.5740 0.8856
H9_2 H 0.5089 0.5740 0.6144
H10_2 H 0.4260 0.4911 0.8856
H11_2 H 0.4260 0.9349 0.6144
H12_2 H 0.5089 0.9349 0.8856
C23_2 C 0.5549(3) 0.4961(4) 0.6698(3)
C24_2 C 0.5039(4) 0.4451(3) 0.8302(3)
C27_2 C 0.5529(2) 0.4470(4) 0.7500
H13_2 H 0.5845 0.4156 0.7500
C30_2 C 0.6115(3) 0.4222(4) 0.5575(3)
C31_2 C 0.5778(4) 0.3885(3) 0.9425(3)
H16_2 H 0.5789 0.3652 0.5856
H17_2 H 0.6348 0.4211 0.9144
C35_2 C 0.7019(3) 0.5318(4) 0.4659(3)
C40_2 C 0.7657(4) 0.5884(6) 0.3977(4)
H21_2 H 0.7913 0.5660 0.3545
C45_2 C 0.7886(6) 0.6770(8) 0.3972(6)
H26_2 H 0.8298 0.7156 0.3517
C50_2 C 0.7518(6) 0.7122(8) 0.4635(6)
H31_2 H 0.7711 0.7738 0.4622
H33_2 H 0.2262 0.9973 0.4622
C55_2 C 0.6875(4) 0.6575(6) 0.5305(4)
C56_2 C 0.3425(6) 0.3125(4) 0.9695(4)
H35_2 H 0.0188 0.6803 0.9271
H36_2 H 0.6615 0.6803 0.5729
H37_2 H 0.3197 0.3385 0.9271
H38_2 H 0.3197 0.9812 0.5729
H39_2 H 0.6615 0.9812 0.9271
C60_2 C 0.6644(4) 0.5681(5) 0.5311(3)
C61_2 C 0.4319(5) 0.3356(4) 0.9689(3)
C34_2 C 0.8299(3) 0.5318(4) 0.0341(3)
C39_2 C 0.8227(4) 0.5884(6) 0.1023(4)
H20_2 H 0.7747 0.5660 0.1455
C44_2 C 0.8884(5) 0.6770(8) 0.1028(6)
H25_2 H 0.8858 0.7156 0.1483
C49_2 C 0.9604(5) 0.7122(8) 0.0365(6)
N1_2 N 0.8900(2) 0.3945(3) 0.5877(2)
C4_2 C 0.9412(3) 0.4451(3) 0.6698(3)
C5_2 C 0.8941(4) 0.4471(2) 0.7500
H2_2 H 0.8311 0.4155 0.7500
C6_2 C 0.8107(3) 0.3885(3) 0.5575(3)
H3_2 H 0.7863 0.4211 0.5856
C7_2 C 0.8299(3) 0.2981(3) 0.4659(3)
C8_2 C 0.8227(4) 0.2343(4) 0.3977(4)
H4_2 H 0.7747 0.2087 0.3545
C9_2 C 0.8884(5) 0.2114(6) 0.3972(6)
H5_2 H 0.8858 0.1702 0.3517
C10_2 C 0.9604(5) 0.2482(6) 0.4635(6)
C11_2 C 0.9700(4) 0.3125(4) 0.5305(4)
C12_2 C 0.9037(3) 0.3356(4) 0.5311(3)
N3_2 N 0.8900(2) 0.4955(4) 0.9123(2)
C22_2 C 0.9412(3) 0.4961(4) 0.8302(3)
C29_2 C 0.8107(3) 0.4222(4) 0.9425(3)
H15_2 H 0.7863 0.3652 0.9144
C54_2 C 0.9700(4) 0.6575(6) 0.9695(4)
C59_2 C 0.9037(3) 0.5681(5) 0.9689(3)
Cl1 Cl 0.3333 0.6667 0.2500
Cl1_2 Cl 0.6667 0.3333 0.7500
loop_
_geom_bond_atom_site_label_1
_geom_bond_atom_site_label_2
_geom_bond_site_symmetry_1
_geom_bond_site_symmetry_2
N1 C4 1_555 1_555
N2 C6 1_555 1_555
C5 C4 1_555 1_555
H2 C5 1_555 1_555
C6 N1 1_555 1_555
H3 C6 1_555 1_555
C7 N2 1_555 1_555
C8 C7 1_555 1_555
H4 C8 1_555 1_555
C9 C8 1_555 1_555
H5 C9 1_555 1_555
C10 C9 1_555 1_555
C11 C10 1_555 1_555
C12 N1 1_555 1_555
Co3 N2 1_555 1_555
N3 C22 1_555 1_555
C22 C5 1_555 1_555
C29 N3 1_555 1_555
H15 C29 1_555 1_555
C59 N3 1_555 1_555
C7 C12 1_555 1_555
C11 C12 1_555 1_555
C54 C59 1_555 1_555
Co4 N8 1_555 1_555
C34 N8 1_555 1_555
C39 C34 1_555 1_555
H20 C39 1_555 1_555
C44 C39 1_555 1_555
H25 C44 1_555 1_555
C49 C44 1_555 1_555
Co1 O1 1_555 1_555
O1 C1 1_555 1_555
C1 C2 1_555 1_555
C2 C3 1_555 1_555
C3 H1 1_555 1_555
Co2 O2 1_555 1_555
Co3 N9 1_555 1_555
O2 C1 1_555 1_555
O3 Co1 1_555 1_555
O4 Co2 1_555 1_555
O5 Co1 1_555 1_555
O6 Co2 1_555 1_555
N4 C23 1_555 1_555
N5 C24 1_555 1_555
N9 C30 1_555 1_555
N13 Co1 1_555 1_555
N14 Co1 1_555 1_555
N15 Co1 1_555 1_555
N16 Co2 1_555 1_555
N17 Co2 1_555 1_555
N18 Co2 1_555 1_555
C13 O3 1_555 1_555
C14 O5 1_555 1_555
C15 C13 1_555 1_555
C16 C14 1_555 1_555
C17 C2 1_555 1_555
C18 C15 1_555 1_555
C19 C15 1_555 1_555
C20 C16 1_555 1_555
C21 C16 1_555 1_555
H8 C17 1_555 1_555
H9 C18 1_555 1_555
H10 C19 1_555 1_555
H11 C20 1_555 1_555
H12 C21 1_555 1_555
C23 C18 1_555 1_555
C24 C19 1_555 1_555
C27 C23 1_555 1_555
H13 C27 1_555 1_555
C30 N4 1_555 1_555
C31 N5 1_555 1_555
H16 C30 1_555 1_555
H17 C31 1_555 1_555
C35 N9 1_555 1_555
C40 C35 1_555 1_555
H21 C40 1_555 1_555
C45 C40 1_555 1_555
H26 C45 1_555 1_555
C50 C45 1_555 1_555
H31 C50 1_555 1_555
C55 C50 1_555 1_555
H36 C55 1_555 1_555
H37 C56 1_555 1_555
C60 N4 1_555 1_555
C61 N5 1_555 1_555
O4 C13 1_555 1_555
O6 C14 1_555 1_555
C24 C27 1_555 1_555
C35 C60 1_555 1_555
C55 C60 1_555 1_555
C56 C61 1_555 1_555
Co4 N10 1_555 1_555
C36 N10 1_555 1_555
C41 C36 1_555 1_555
H22 C41 1_555 1_555
C46 C41 1_555 1_555
H27 C46 1_555 1_555
C51 C46 1_555 1_555
H32 C51 1_555 1_555
Co3 N11 1_555 1_555
N6 C25 1_555 1_555
N7 C26 1_555 1_555
N11 C32 1_555 1_555
C28 C25 1_555 1_555
H14 C28 1_555 1_555
C32 N6 1_555 1_555
C33 N7 1_555 1_555
H18 C32 1_555 1_555
H19 C33 1_555 1_555
C37 N11 1_555 1_555
C42 C37 1_555 1_555
H23 C42 1_555 1_555
C47 C42 1_555 1_555
H28 C47 1_555 1_555
C52 C47 1_555 1_555
C57 C52 1_555 1_555
C62 N6 1_555 1_555
C63 N7 1_555 1_555
C26 C28 1_555 1_555
C37 C62 1_555 1_555
C57 C62 1_555 1_555
C58 C63 1_555 1_555
Co4 N12 1_555 1_555
C38 N12 1_555 1_555
C43 C38 1_555 1_555
H24 C43 1_555 1_555
C48 C43 1_555 1_555
H29 C48 1_555 1_555
C53 C48 1_555 1_555
C38_2 N13 1_555 1_555
C43_2 C38_2 1_555 1_555
H24_2 C43_2 1_555 1_555
C48_2 C43_2 1_555 1_555
H29_2 C48_2 1_555 1_555
C53_2 C48_2 1_555 1_555
N6_2 C25_2 1_555 1_555
N7_2 C26_2 1_555 1_555
N18 C32_2 1_555 1_555
C28_2 C25_2 1_555 1_555
H14_2 C28_2 1_555 1_555
C32_2 N6_2 1_555 1_555
C33_2 N7_2 1_555 1_555
H18_2 C32_2 1_555 1_555
H19_2 C33_2 1_555 1_555
C37_2 N18 1_555 1_555
C42_2 C37_2 1_555 1_555
H23_2 C42_2 1_555 1_555
C47_2 C42_2 1_555 1_555
H28_2 C47_2 1_555 1_555
C52_2 C47_2 1_555 1_555
C57_2 C52_2 1_555 1_555
C62_2 N6_2 1_555 1_555
C63_2 N7_2 1_555 1_555
C26_2 C28_2 1_555 1_555
C37_2 C62_2 1_555 1_555
C57_2 C62_2 1_555 1_555
C58_2 C63_2 1_555 1_555
C36_2 N15 1_555 1_555
C41_2 C36_2 1_555 1_555
H22_2 C41_2 1_555 1_555
C46_2 C41_2 1_555 1_555
H27_2 C46_2 1_555 1_555
C51_2 C46_2 1_555 1_555
H32_2 C51_2 1_555 1_555
Co4 O1_2 1_555 1_555
O1_2 C1_2 1_555 1_555
C1_2 C2_2 1_555 1_555
C2_2 C3_2 1_555 1_555
C3_2 H1_2 1_555 1_555
Co3 O2_2 1_555 1_555
O2_2 C1_2 1_555 1_555
O3_2 Co4 1_555 1_555
O4_2 Co3 1_555 1_555
O5_2 Co4 1_555 1_555
O6_2 Co3 1_555 1_555
N4_2 C23_2 1_555 1_555
N5_2 C24_2 1_555 1_555
N16 C30_2 1_555 1_555
C13_2 O3_2 1_555 1_555
C14_2 O5_2 1_555 1_555
C15_2 C13_2 1_555 1_555
C16_2 C14_2 1_555 1_555
C17_2 C2_2 1_555 1_555
C18_2 C15_2 1_555 1_555
C19_2 C15_2 1_555 1_555
C20_2 C16_2 1_555 1_555
C21_2 C16_2 1_555 1_555
H8_2 C17_2 1_555 1_555
H9_2 C18_2 1_555 1_555
H10_2 C19_2 1_555 1_555
H11_2 C20_2 1_555 1_555
H12_2 C21_2 1_555 1_555
C23_2 C18_2 1_555 1_555
C24_2 C19_2 1_555 1_555
C27_2 C23_2 1_555 1_555
H13_2 C27_2 1_555 1_555
C30_2 N4_2 1_555 1_555
C31_2 N5_2 1_555 1_555
H16_2 C30_2 1_555 1_555
H17_2 C31_2 1_555 1_555
C35_2 N16 1_555 1_555
C40_2 C35_2 1_555 1_555
H21_2 C40_2 1_555 1_555
C45_2 C40_2 1_555 1_555
H26_2 C45_2 1_555 1_555
C50_2 C45_2 1_555 1_555
H31_2 C50_2 1_555 1_555
C55_2 C50_2 1_555 1_555
H36_2 C55_2 1_555 1_555
H37_2 C56_2 1_555 1_555
C60_2 N4_2 1_555 1_555
C61_2 N5_2 1_555 1_555
O4_2 C13_2 1_555 1_555
O6_2 C14_2 1_555 1_555
C24_2 C27_2 1_555 1_555
C35_2 C60_2 1_555 1_555
C55_2 C60_2 1_555 1_555
C56_2 C61_2 1_555 1_555
C34_2 N14 1_555 1_555
C39_2 C34_2 1_555 1_555
H20_2 C39_2 1_555 1_555
C44_2 C39_2 1_555 1_555
H25_2 C44_2 1_555 1_555
C49_2 C44_2 1_555 1_555
N1_2 C4_2 1_555 1_555
N17 C6_2 1_555 1_555
C5_2 C4_2 1_555 1_555
H2_2 C5_2 1_555 1_555
C6_2 N1_2 1_555 1_555
H3_2 C6_2 1_555 1_555
C7_2 N17 1_555 1_555
C8_2 C7_2 1_555 1_555
H4_2 C8_2 1_555 1_555
C9_2 C8_2 1_555 1_555
H5_2 C9_2 1_555 1_555
C10_2 C9_2 1_555 1_555
C11_2 C10_2 1_555 1_555
C12_2 N1_2 1_555 1_555
N3_2 C22_2 1_555 1_555
C22_2 C5_2 1_555 1_555
C29_2 N3_2 1_555 1_555
H15_2 C29_2 1_555 1_555
C59_2 N3_2 1_555 1_555
C7_2 C12_2 1_555 1_555
C11_2 C12_2 1_555 1_555
C54_2 C59_2 1_555 1_555

#END
