
###############################################################################
#
# This file contains modified crystal structure data generated from the
# MOF subset of the Cambridge Structural Database (CSD) v543 
# hosted by the Cambridge Crystallographic Data Centre (CCDC).
#
# This work is licensed under the Creative Commons
# Attribution-NonCommercial-ShareAlike 4.0 International License.
# To view a copy of this license, visit
# http://creativecommons.org/licenses/by-nc-sa/4.0/
# or send a letter to
# Creative Commons, PO Box 1866, Mountain View, CA 94042, USA.
#
# CIF created using the CSD Python API on 29 September 2022
# The structure has been converted into the P1 space group
# The structure has a 3D framework
# The original CSD entry KEBHUX is in the monoclinic crystal system
# The framework has been calculated to contain at least 10.0% void space
# The void calculation uses a probe of radius 1.32A, grid spacing 0.4
#
###############################################################################

data_KEBHUX
_chemical_formula_moiety         '(C84 H64 B4 Cd4 N32 O23 2-)n'
_symmetry_cell_setting           triclinic
_symmetry_space_group_name_H-M   'P 1'
_symmetry_Int_Tables_number      1
_space_group_name_Hall           'P 1'
loop_
_symmetry_equiv_pos_site_id
_symmetry_equiv_pos_as_xyz
1 x,y,z
_cell_length_a                   8.5284(2)
_cell_length_b                   19.4191(6)
_cell_length_c                   15.7472(4)
_cell_angle_alpha                90
_cell_angle_beta                 95.757(2)
_cell_angle_gamma                90
_cell_volume                     2594.8
loop_
_atom_site_label
_atom_site_type_symbol
_atom_site_fract_x
_atom_site_fract_y
_atom_site_fract_z
Cd5 Cd 0.09631(3) 0.29931(2) 0.16453(2)
H26 H 0.0304 0.2308 0.9620
N1 N 0.2772(4) 0.2856(2) 0.2816(2)
O2 O 0.0818(5) 0.4275(2) 0.2157(2)
N3 N 0.2771(4) 0.3489(2) 0.0838(2)
O3 O 0.0062(5) 0.1735(2) 0.1949(2)
O4 O 0.1907(4) 0.19122(16) 0.1102(2)
C4 C 0.3369(5) 0.3164(2) 0.0210(3)
C5 C 0.3576(6) 0.4099(2) 0.0922(3)
H3 H 0.3053 0.2727 0.0021
C8 C 0.4647(5) 0.4127(2) 0.0354(3)
H4 H 0.3407 0.4442 0.1315
H6 H 0.5361 0.4482 0.0295
C24 C 0.7801(5) 0.3207(2) 0.0305(3)
N15 N 0.9197(4) 0.2917(2) 0.0447(2)
H19 H 0.7347 0.3476 0.0703
N5 N 0.4490(4) 0.35355(18) 0.9874(2)
B2 B 0.5443(5) 0.3294(2) 0.9150(3)
N10 N 0.7101(4) 0.30699(18) 0.9515(2)
N11 N 0.4586(4) 0.26909(19) 0.8677(2)
N12 N 0.5526(4) 0.39092(19) 0.8510(2)
C25 C 0.8136(5) 0.2662(3) 0.9133(3)
C26 C 0.4597(6) 0.2002(2) 0.8922(3)
C27 C 0.3454(5) 0.2737(2) 0.8010(3)
C28 C 0.4291(5) 0.4354(3) 0.8250(3)
C29 C 0.6672(6) 0.4043(3) 0.8023(3)
C31 C 0.9419(5) 0.2568(3) 0.9711(3)
H20 H 0.7992 0.2483 0.8583
C32 C 0.3486(6) 0.1679(2) 0.8389(3)
H21 H 0.5242 0.1802 0.9366
N16 N 0.2772(4) 0.2144(2) 0.7816(2)
H22 H 0.3189 0.3146 0.7722
H23 H 0.3337 0.4387 0.8486
C33 C 0.4728(6) 0.4730(3) 0.7594(3)
N17 N 0.6204(6) 0.4535(2) 0.7471(3)
H24 H 0.7649 0.3827 0.8063
H27 H 0.3243 0.1213 0.8409
Cd6 Cd 0.09631(3) 0.20069(2) 0.66453(2)
H28 H 0.4125 0.5062 0.7285
H29 H 0.669(9) 0.472(5) 0.703(6)
O14 O 0.0818(5) 0.0725(2) 0.7157(2)
N21 N 0.2771(4) 0.1511(2) 0.5838(2)
O15 O 0.0062(5) 0.3265(2) 0.6949(2)
O16 O 0.1907(4) 0.30878(16) 0.6102(2)
H33 H 0.0304 0.2692 0.4620
O1 O 0.9227(4) 0.34808(18) 0.2556(2)
C1 C 0.9781(5) 0.4077(2) 0.2604(3)
C6 C 0.9196(4) 0.4579(2) 0.3233(3)
C9 C 0.9435(4) 0.5282(2) 0.3138(3)
C10 C 0.8431(5) 0.4347(2) 0.3916(3)
H7 H 0.9981 0.5438 0.2693
C11 C 0.8870(5) 0.5755(2) 0.3696(3)
C12 C 0.7920(5) 0.4812(2) 0.4509(2)
H8 H 0.8256 0.3878 0.3981
C13 C 0.8126(5) 0.5516(2) 0.4387(3)
C14 C 0.9002(5) 0.6521(2) 0.3535(3)
C15 C 0.7152(5) 0.4574(2) 0.5268(3)
H9 H 0.7763 0.5829 0.4770
O5 O 0.6812(5) 0.4956(2) 0.5824(2)
O6 O 0.6918(5) 0.3904(2) 0.5267(2)
O7 O 0.9938(5) 0.6735(2) 0.3051(2)
O8 O 0.8093(4) 0.69122(16) 0.3898(2)
Cd2 Cd 0.90369(3) 0.79931(2) 0.33547(2)
O13 O 0.9227(4) 0.15192(18) 0.7556(2)
N20 N 0.9197(4) 0.2083(2) 0.5447(2)
C35 C 0.3369(5) 0.1836(2) 0.5210(3)
C36 C 0.3576(6) 0.0901(2) 0.5922(3)
C37 C 0.7801(5) 0.1793(2) 0.5305(3)
C38 C 0.9419(5) 0.2432(3) 0.4711(3)
N22 N 0.4490(4) 0.14645(18) 0.4874(2)
H30 H 0.3053 0.2273 0.5021
C40 C 0.4647(5) 0.0873(2) 0.5354(3)
H31 H 0.3407 0.0558 0.6315
N23 N 0.7101(4) 0.19301(18) 0.4515(2)
H32 H 0.7347 0.1524 0.5703
C41 C 0.8136(5) 0.2338(3) 0.4133(3)
B3 B 0.5443(5) 0.1706(2) 0.4150(3)
H34 H 0.5361 0.0518 0.5295
H35 H 0.7992 0.2517 0.3583
N24 N 0.4586(4) 0.23091(19) 0.3677(2)
N25 N 0.5526(4) 0.10908(19) 0.3510(2)
C49 C 0.4597(6) 0.2998(2) 0.3922(3)
C50 C 0.3454(5) 0.2263(2) 0.3010(3)
C51 C 0.4291(5) 0.0646(3) 0.3250(3)
C52 C 0.6672(6) 0.0957(3) 0.3023(3)
C53 C 0.3486(6) 0.3321(2) 0.3389(3)
H39 H 0.5242 0.3198 0.4366
H40 H 0.3189 0.1854 0.2722
H41 H 0.3337 0.0613 0.3486
C54 C 0.4728(6) 0.0270(3) 0.2594(3)
N27 N 0.6204(6) 0.0465(2) 0.2471(3)
H42 H 0.7649 0.1173 0.3063
H43 H 0.3243 0.3787 0.3409
H45 H 0.669(9) 0.028(5) 0.203(6)
H44 H 0.4125 0.9938 0.2285
C34 C 0.9781(5) 0.0923(2) 0.7604(3)
C39 C 0.9196(4) 0.0421(2) 0.8233(3)
C43 C 0.8431(5) 0.0653(2) 0.8916(3)
C45 C 0.7920(5) 0.0188(2) 0.9509(2)
H37 H 0.8256 0.1122 0.8981
C42 C 0.9435(4) 0.9718(2) 0.8138(3)
C44 C 0.8870(5) 0.9245(2) 0.8696(3)
H36 H 0.9981 0.9562 0.7693
C46 C 0.9002(5) 0.8479(2) 0.8535(3)
C47 C 0.8126(5) 0.9484(2) 0.9387(3)
O17 O 0.9938(5) 0.8265(2) 0.8051(2)
O18 O 0.8093(4) 0.80878(16) 0.8898(2)
H38 H 0.7763 0.9171 0.9770
Cd7 Cd 0.90369(3) 0.70069(2) 0.83547(2)
O9 O 0.0773(4) 0.65192(18) 0.7444(2)
N18 N 0.0803(4) 0.7083(2) 0.9553(2)
C34_2 C 0.0219(5) 0.5923(2) 0.7396(3)
C39_2 C 0.0804(4) 0.5421(2) 0.6767(3)
C42_2 C 0.0565(4) 0.4718(2) 0.6862(3)
C43_2 C 0.1569(5) 0.5653(2) 0.6084(3)
C44_2 C 0.1130(5) 0.4245(2) 0.6304(3)
H36_2 H 0.0019 0.4562 0.7307
C45_2 C 0.2080(5) 0.5188(2) 0.5491(2)
H37_2 H 0.1744 0.6122 0.6019
C46_2 C 0.0998(5) 0.3479(2) 0.6465(3)
C47_2 C 0.1874(5) 0.4484(2) 0.5613(3)
C48 C 0.2848(5) 0.5426(2) 0.4732(3)
H38_2 H 0.2237 0.4171 0.5230
O19 O 0.3188(5) 0.5044(2) 0.4176(2)
O20 O 0.3082(5) 0.6096(2) 0.4733(2)
C9_2 C 0.0565(4) 0.0282(2) 0.1862(3)
H7_2 H 0.0019 0.0438 0.2307
C11_2 C 0.1130(5) 0.0755(2) 0.1304(3)
C13_2 C 0.1874(5) 0.0516(2) 0.0613(3)
C14_2 C 0.0998(5) 0.1521(2) 0.1465(3)
H9_2 H 0.2237 0.0829 0.0230
H15 H 0.5875 0.0062 0.7715
C38_2 C 0.0581(5) 0.7432(3) 0.0289(3)
N22_2 N 0.5510(4) 0.64645(18) 0.0126(2)
N23_2 N 0.2899(4) 0.69301(18) 0.0485(2)
C41_2 C 0.1864(5) 0.7338(3) 0.0867(3)
B3_2 B 0.4557(5) 0.6706(2) 0.0850(3)
H35_2 H 0.2008 0.7517 0.1417
N24_2 N 0.5414(4) 0.73091(19) 0.1323(2)
N25_2 N 0.4474(4) 0.60908(19) 0.1490(2)
C49_2 C 0.5403(6) 0.7998(2) 0.1078(3)
C50_2 C 0.6546(5) 0.7263(2) 0.1990(3)
C51_2 C 0.5709(5) 0.5646(3) 0.1750(3)
C52_2 C 0.3328(6) 0.5957(3) 0.1977(3)
C53_2 C 0.6514(6) 0.8321(2) 0.1611(3)
H39_2 H 0.4758 0.8198 0.0634
N26 N 0.7228(4) 0.7856(2) 0.2184(2)
H40_2 H 0.6811 0.6854 0.2278
H41_2 H 0.6663 0.5613 0.1514
C54_2 C 0.5272(6) 0.5270(3) 0.2406(3)
N27_2 N 0.3796(6) 0.5465(2) 0.2529(3)
H42_2 H 0.2351 0.6173 0.1937
H43_2 H 0.6757 0.8787 0.1591
H44_2 H 0.5875 0.4938 0.2715
H45_2 H 0.331(9) 0.528(5) 0.297(6)
O1_2 O 0.0773(4) 0.84808(18) 0.2444(2)
N2 N 0.0803(4) 0.7917(2) 0.4553(2)
C1_2 C 0.0219(5) 0.9077(2) 0.2396(3)
C2 C 0.2199(5) 0.8207(2) 0.4695(3)
C3 C 0.0581(5) 0.7568(3) 0.5289(3)
C6_2 C 0.0804(4) 0.9579(2) 0.1767(3)
N4 N 0.2899(4) 0.80699(18) 0.5485(2)
H1 H 0.2653 0.8476 0.4297
C7 C 0.1864(5) 0.7662(3) 0.5867(3)
C10_2 C 0.1569(5) 0.9347(2) 0.1084(3)
B1 B 0.4557(5) 0.8294(2) 0.5850(3)
H5 H 0.2008 0.7483 0.6417
C12_2 C 0.2080(5) 0.9812(2) 0.0491(2)
H8_2 H 0.1744 0.8878 0.1019
N6 N 0.5414(4) 0.76909(19) 0.6323(2)
N7 N 0.4474(4) 0.89092(19) 0.6490(2)
C16 C 0.5403(6) 0.7002(2) 0.6078(3)
C17 C 0.6546(5) 0.7737(2) 0.6990(3)
C18 C 0.5709(5) 0.9354(3) 0.6750(3)
C19 C 0.3328(6) 0.9043(3) 0.6977(3)
C20 C 0.6514(6) 0.6679(2) 0.6611(3)
H10 H 0.4758 0.6802 0.5634
H11 H 0.6811 0.8146 0.7278
H12 H 0.6663 0.9387 0.6514
C21 C 0.5272(6) 0.9730(3) 0.7406(3)
N8 N 0.3796(6) 0.9535(2) 0.7529(3)
H13 H 0.2351 0.8827 0.6937
H14 H 0.6757 0.6213 0.6591
H16 H 0.331(9) 0.972(5) 0.797(6)
N9 N 0.5510(4) 0.85355(18) 0.5126(2)
C22 C 0.6631(5) 0.8164(2) 0.4790(3)
C23 C 0.5353(5) 0.9127(2) 0.4646(3)
N13 N 0.7228(4) 0.7144(2) 0.7184(2)
N14 N 0.7229(4) 0.8489(2) 0.4162(2)
H17 H 0.6947 0.7727 0.4979
C30 C 0.6424(6) 0.9099(2) 0.4078(3)
H18 H 0.4639 0.9482 0.4705
H25 H 0.6593 0.9442 0.3685
O10 O 0.9182(5) 0.5725(2) 0.7843(2)
N19 N 0.7229(4) 0.6511(2) 0.9162(2)
C35_2 C 0.6631(5) 0.6836(2) 0.9790(3)
C36_2 C 0.6424(6) 0.5901(2) 0.9078(3)
C37_2 C 0.2199(5) 0.6793(2) 0.9695(3)
H30_2 H 0.6947 0.7273 0.9979
C40_2 C 0.5353(5) 0.5873(2) 0.9646(3)
H31_2 H 0.6593 0.5558 0.8685
H32_2 H 0.2653 0.6524 0.9297
H34_2 H 0.4639 0.5518 0.9705
H33_2 H 0.9696 0.7692 0.0380
O2_2 O 0.9182(5) 0.9275(2) 0.2843(2)
H2 H 0.9696 0.7308 0.5380
C48_2 C 0.7152(5) 0.0426(2) 0.0268(3)
O19_2 O 0.6812(5) 0.0044(2) 0.0824(2)
O20_2 O 0.6918(5) 0.1096(2) 0.0267(2)
C15_2 C 0.2848(5) 0.9574(2) 0.9732(3)
O5_2 O 0.3188(5) 0.9956(2) 0.9176(2)
O6_2 O 0.3082(5) 0.8904(2) 0.9733(2)
loop_
_geom_bond_atom_site_label_1
_geom_bond_atom_site_label_2
_geom_bond_site_symmetry_1
_geom_bond_site_symmetry_2
Cd5 N1 1_555 1_555
O2 Cd5 1_555 1_555
N3 Cd5 1_555 1_555
O3 Cd5 1_555 1_555
O4 Cd5 1_555 1_555
C4 N3 1_555 1_555
C5 N3 1_555 1_555
H3 C4 1_555 1_555
C8 C5 1_555 1_555
H4 C5 1_555 1_555
H6 C8 1_555 1_555
N15 C24 1_555 1_555
H19 C24 1_555 1_555
B2 N5 1_555 1_555
N10 B2 1_555 1_555
N11 B2 1_555 1_555
N12 B2 1_555 1_555
C25 N10 1_555 1_555
C26 N11 1_555 1_555
C27 N11 1_555 1_555
C28 N12 1_555 1_555
C29 N12 1_555 1_555
C31 C25 1_555 1_555
H20 C25 1_555 1_555
C32 C26 1_555 1_555
H21 C26 1_555 1_555
N16 C27 1_555 1_555
H22 C27 1_555 1_555
H23 C28 1_555 1_555
C33 C28 1_555 1_555
N17 C29 1_555 1_555
H24 C29 1_555 1_555
H27 C32 1_555 1_555
Cd6 N16 1_555 1_555
H28 C33 1_555 1_555
H29 N17 1_555 1_555
O14 Cd6 1_555 1_555
N21 Cd6 1_555 1_555
O15 Cd6 1_555 1_555
O16 Cd6 1_555 1_555
C32 N16 1_555 1_555
C33 N17 1_555 1_555
C1 O1 1_555 1_555
C6 C1 1_555 1_555
C9 C6 1_555 1_555
C10 C6 1_555 1_555
H7 C9 1_555 1_555
C11 C9 1_555 1_555
C12 C10 1_555 1_555
H8 C10 1_555 1_555
C13 C11 1_555 1_555
C14 C11 1_555 1_555
C15 C12 1_555 1_555
H9 C13 1_555 1_555
O5 C15 1_555 1_555
O6 C15 1_555 1_555
O7 C14 1_555 1_555
O8 C14 1_555 1_555
Cd2 O7 1_555 1_555
C12 C13 1_555 1_555
O8 Cd2 1_555 1_555
C35 N21 1_555 1_555
C36 N21 1_555 1_555
C37 N20 1_555 1_555
C38 N20 1_555 1_555
N22 C35 1_555 1_555
H30 C35 1_555 1_555
C40 C36 1_555 1_555
H31 C36 1_555 1_555
N23 C37 1_555 1_555
H32 C37 1_555 1_555
C41 C38 1_555 1_555
B3 N22 1_555 1_555
H34 C40 1_555 1_555
H35 C41 1_555 1_555
N24 B3 1_555 1_555
N25 B3 1_555 1_555
C49 N24 1_555 1_555
C50 N24 1_555 1_555
C51 N25 1_555 1_555
C52 N25 1_555 1_555
C53 C49 1_555 1_555
H39 C49 1_555 1_555
N1 C50 1_555 1_555
H40 C50 1_555 1_555
H41 C51 1_555 1_555
C54 C51 1_555 1_555
N27 C52 1_555 1_555
H42 C52 1_555 1_555
H43 C53 1_555 1_555
H45 N27 1_555 1_555
N22 C40 1_555 1_555
N23 C41 1_555 1_555
N23 B3 1_555 1_555
C53 N1 1_555 1_555
C54 N27 1_555 1_555
C34 O13 1_555 1_555
C39 C34 1_555 1_555
C43 C39 1_555 1_555
C45 C43 1_555 1_555
H37 C43 1_555 1_555
C44 C42 1_555 1_555
H36 C42 1_555 1_555
C46 C44 1_555 1_555
C47 C44 1_555 1_555
O17 C46 1_555 1_555
O18 C46 1_555 1_555
H38 C47 1_555 1_555
Cd7 O17 1_555 1_555
O18 Cd7 1_555 1_555
C34_2 O9 1_555 1_555
C39_2 C34_2 1_555 1_555
C42_2 C39_2 1_555 1_555
C43_2 C39_2 1_555 1_555
C44_2 C42_2 1_555 1_555
H36_2 C42_2 1_555 1_555
C45_2 C43_2 1_555 1_555
H37_2 C43_2 1_555 1_555
C46_2 C44_2 1_555 1_555
C47_2 C44_2 1_555 1_555
C48 C45_2 1_555 1_555
O15 C46_2 1_555 1_555
O16 C46_2 1_555 1_555
H38_2 C47_2 1_555 1_555
O19 C48 1_555 1_555
O20 C48 1_555 1_555
C45_2 C47_2 1_555 1_555
H7_2 C9_2 1_555 1_555
C11_2 C9_2 1_555 1_555
C13_2 C11_2 1_555 1_555
C14_2 C11_2 1_555 1_555
H9_2 C13_2 1_555 1_555
O3 C14_2 1_555 1_555
O4 C14_2 1_555 1_555
C41_2 C38_2 1_555 1_555
B3_2 N22_2 1_555 1_555
H35_2 C41_2 1_555 1_555
N24_2 B3_2 1_555 1_555
N25_2 B3_2 1_555 1_555
C49_2 N24_2 1_555 1_555
C50_2 N24_2 1_555 1_555
C51_2 N25_2 1_555 1_555
C52_2 N25_2 1_555 1_555
C53_2 C49_2 1_555 1_555
H39_2 C49_2 1_555 1_555
N26 C50_2 1_555 1_555
H40_2 C50_2 1_555 1_555
H41_2 C51_2 1_555 1_555
C54_2 C51_2 1_555 1_555
N27_2 C52_2 1_555 1_555
H42_2 C52_2 1_555 1_555
H43_2 C53_2 1_555 1_555
Cd2 N26 1_555 1_555
H44_2 C54_2 1_555 1_555
H45_2 N27_2 1_555 1_555
N23_2 C41_2 1_555 1_555
N23_2 B3_2 1_555 1_555
C53_2 N26 1_555 1_555
C54_2 N27_2 1_555 1_555
C1_2 O1_2 1_555 1_555
C2 N2 1_555 1_555
C3 N2 1_555 1_555
C6_2 C1_2 1_555 1_555
N4 C2 1_555 1_555
H1 C2 1_555 1_555
C7 C3 1_555 1_555
C10_2 C6_2 1_555 1_555
B1 N4 1_555 1_555
H5 C7 1_555 1_555
C12_2 C10_2 1_555 1_555
H8_2 C10_2 1_555 1_555
N6 B1 1_555 1_555
N7 B1 1_555 1_555
C16 N6 1_555 1_555
C17 N6 1_555 1_555
C18 N7 1_555 1_555
C19 N7 1_555 1_555
C20 C16 1_555 1_555
H10 C16 1_555 1_555
H11 C17 1_555 1_555
H12 C18 1_555 1_555
C21 C18 1_555 1_555
N8 C19 1_555 1_555
H13 C19 1_555 1_555
H14 C20 1_555 1_555
H16 N8 1_555 1_555
N9 B1 1_555 1_555
C22 N9 1_555 1_555
C23 N9 1_555 1_555
N13 C17 1_555 1_555
N14 C22 1_555 1_555
H17 C22 1_555 1_555
C30 C23 1_555 1_555
H18 C23 1_555 1_555
Cd7 N13 1_555 1_555
Cd2 N14 1_555 1_555
H25 C30 1_555 1_555
O10 Cd7 1_555 1_555
N19 Cd7 1_555 1_555
C35_2 N19 1_555 1_555
C36_2 N19 1_555 1_555
C37_2 N18 1_555 1_555
H30_2 C35_2 1_555 1_555
C40_2 C36_2 1_555 1_555
H31_2 C36_2 1_555 1_555
H32_2 C37_2 1_555 1_555
H34_2 C40_2 1_555 1_555
N4 C7 1_555 1_555
C20 N13 1_555 1_555
C21 N8 1_555 1_555
N14 C30 1_555 1_555
O2_2 Cd2 1_555 1_555
O19_2 C48_2 1_555 1_555
O20_2 C48_2 1_555 1_555
O5_2 C15_2 1_555 1_555
O6_2 C15_2 1_555 1_555

#END
