
###############################################################################
#
# This file contains modified crystal structure data generated from the
# MOF subset of the Cambridge Structural Database (CSD) v543 
# hosted by the Cambridge Crystallographic Data Centre (CCDC).
#
# This work is licensed under the Creative Commons
# Attribution-NonCommercial-ShareAlike 4.0 International License.
# To view a copy of this license, visit
# http://creativecommons.org/licenses/by-nc-sa/4.0/
# or send a letter to
# Creative Commons, PO Box 1866, Mountain View, CA 94042, USA.
#
# CIF created using the CSD Python API on 29 September 2022
# The structure has been converted into the P1 space group
# The structure has a 3D framework
# The original CSD entry KECTIZ is in the triclinic crystal system
# The framework has been calculated to contain at least 10.0% void space
# The void calculation uses a probe of radius 1.32A, grid spacing 0.4
#
###############################################################################

data_KECTIZ
_chemical_formula_moiety         '(C42 H34 N2 O14 Zn2)n'
_symmetry_cell_setting           triclinic
_symmetry_space_group_name_H-M   'P 1'
_symmetry_Int_Tables_number      1
_space_group_name_Hall           'P 1'
loop_
_symmetry_equiv_pos_site_id
_symmetry_equiv_pos_as_xyz
1 x,y,z
_cell_length_a                   8.7220(17)
_cell_length_b                   12.251(3)
_cell_length_c                   13.899(3)
_cell_angle_alpha                87.58(3)
_cell_angle_beta                 86.25(3)
_cell_angle_gamma                77.23(3)
_cell_volume                     1444.73
loop_
_atom_site_label
_atom_site_type_symbol
_atom_site_fract_x
_atom_site_fract_y
_atom_site_fract_z
_atom_site_U_iso_or_equiv
_atom_site_thermal_displace_type
O20 O 0.2592(3) 0.0866(2) 0.04099(18) 0.0439 Uani
Zn1 Zn 0.36564(4) 0.95950(3) 0.12378(2) 0.0343 Uani
O3 O 0.1934(3) 0.8870(2) 0.14056(19) 0.0458 Uani
O4 O 0.2555(4) 0.7648(3) 0.2632(2) 0.0611 Uani
C4 C 0.0078(4) 0.7837(3) 0.1920(2) 0.0357 Uani
C5 C 0.1666(4) 0.8118(3) 0.2014(2) 0.0399 Uani
H4 H 0.010583 0.677537 0.309438 0.0440 Uiso
O15 O 0.0010(3) 0.0322(3) 0.3334(2) 0.0484 Uani
H18 H 0.093(4) 0.042(5) 0.311(4) 0.0730 Uiso
O16 O 0.0098(3) 0.1256(2) 0.46800(19) 0.0415 Uani
O17 O 0.5247(3) 0.8707(2) 0.02976(18) 0.0399 Uani
O22 O 0.5041(3) 0.9883(2) 0.21960(17) 0.0384 Uani
O6 O 0.4959(3) 0.0117(2) 0.78040(17) 0.0384 Uani
Zn8 Zn 0.63436(4) 0.04050(3) 0.87622(2) 0.0343 Uani
O5 O 0.7225(3) 0.9206(3) 0.7115(2) 0.0504 Uani
N1 N 0.6623(3) 0.6651(2) 0.4110(2) 0.0311 Uani
H2 H 0.742(6) 0.667(4) 0.449(3) 0.0470 Uiso
C1 C 0.6707(4) 0.8687(3) 0.0259(2) 0.0370 Uani
C2 C 0.7698(4) 0.8091(3) 0.1052(2) 0.0353 Uani
C3 C 0.9165(4) 0.8320(3) 0.1161(2) 0.0351 Uani
H3 H 0.954590 0.880333 0.072113 0.0420 Uiso
C6 C 0.9503(4) 0.7101(3) 0.2587(2) 0.0366 Uani
C7 C 0.8032(4) 0.6861(3) 0.2486(2) 0.0358 Uani
C8 C 0.7126(4) 0.7358(3) 0.1714(2) 0.0361 Uani
H5 H 0.614490 0.719890 0.164360 0.0430 Uiso
C9 C 0.7374(4) 0.6081(3) 0.3192(2) 0.0377 Uani
H6 H 0.821670 0.545457 0.335977 0.0450 Uiso
H7 H 0.659272 0.578500 0.288268 0.0450 Uiso
C10 C 0.5696(4) 0.5946(2) 0.4726(2) 0.0303 Uani
H8 H 0.532999 0.635189 0.532002 0.0360 Uiso
C11 C 0.4225(4) 0.5782(2) 0.4249(2) 0.0314 Uani
H9 H 0.453429 0.533774 0.367852 0.0380 Uiso
H10 H 0.359229 0.650262 0.405470 0.0380 Uiso
C12 C 0.3265(4) 0.5182(2) 0.4977(2) 0.0314 Uani
H11 H 0.292977 0.563593 0.554000 0.0380 Uiso
H12 H 0.233464 0.506475 0.468729 0.0380 Uiso
C13 C 0.5655(4) 0.7835(2) 0.3899(2) 0.0326 Uani
H13 H 0.634925 0.829442 0.361435 0.0390 Uiso
H14 H 0.488774 0.779569 0.343393 0.0390 Uiso
C14 C 0.4807(4) 0.8379(2) 0.4802(2) 0.0317 Uani
C15 C 0.5654(4) 0.8690(2) 0.5527(2) 0.0322 Uani
H15 H 0.674682 0.855975 0.545915 0.0390 Uiso
C16 C 0.4851(4) 0.9198(3) 0.6353(2) 0.0331 Uani
C17 C 0.5767(4) 0.9521(3) 0.7134(2) 0.0349 Uani
C18 C 0.3206(4) 0.9391(3) 0.6460(2) 0.0344 Uani
H16 H 0.267359 0.973339 0.700721 0.0410 Uiso
C19 C 0.2371(4) 0.9068(3) 0.5742(2) 0.0344 Uani
C20 C 0.0637(4) 0.9152(3) 0.5878(3) 0.0382 Uani
C21 C 0.3170(4) 0.8575(2) 0.4908(2) 0.0337 Uani
H17 H 0.260569 0.837777 0.442302 0.0400 Uiso
O9 O 0.4753(3) 0.1293(2) 0.97024(18) 0.0399 Uani
O13 O 0.2775(3) 0.0794(3) 0.2885(2) 0.0504 Uani
N2 N 0.3377(3) 0.3349(2) 0.5890(2) 0.0311 Uani
H19 H 0.258(6) 0.333(4) 0.551(3) 0.0470 Uiso
C22 C 0.3293(4) 0.1313(3) 0.9741(2) 0.0370 Uani
C23 C 0.2302(4) 0.1909(3) 0.8948(2) 0.0353 Uani
C24 C 0.0835(4) 0.1680(3) 0.8839(2) 0.0351 Uani
H20 H 0.045410 0.119667 0.927887 0.0420 Uiso
C27 C 0.0497(4) 0.2899(3) 0.7413(2) 0.0366 Uani
C28 C 0.1968(4) 0.3139(3) 0.7514(2) 0.0358 Uani
C29 C 0.2874(4) 0.2642(3) 0.8286(2) 0.0361 Uani
H22 H 0.385510 0.280110 0.835640 0.0430 Uiso
C30 C 0.2626(4) 0.3919(3) 0.6808(2) 0.0377 Uani
H23 H 0.178330 0.454543 0.664023 0.0450 Uiso
H24 H 0.340728 0.421500 0.711732 0.0450 Uiso
C31 C 0.4304(4) 0.4054(2) 0.5274(2) 0.0303 Uani
H25 H 0.467001 0.364811 0.467998 0.0360 Uiso
C32 C 0.5775(4) 0.4218(2) 0.5751(2) 0.0314 Uani
H26 H 0.546571 0.466226 0.632148 0.0380 Uiso
H27 H 0.640771 0.349738 0.594530 0.0380 Uiso
C33 C 0.6735(4) 0.4818(2) 0.5023(2) 0.0314 Uani
H28 H 0.707023 0.436407 0.446000 0.0380 Uiso
H29 H 0.766536 0.493525 0.531271 0.0380 Uiso
C34 C 0.4345(4) 0.2165(2) 0.6101(2) 0.0326 Uani
H30 H 0.365075 0.170558 0.638565 0.0390 Uiso
H31 H 0.511226 0.220431 0.656607 0.0390 Uiso
C35 C 0.5193(4) 0.1621(2) 0.5198(2) 0.0317 Uani
C36 C 0.4346(4) 0.1310(2) 0.4473(2) 0.0322 Uani
H32 H 0.325318 0.144025 0.454085 0.0390 Uiso
C37 C 0.5149(4) 0.0802(3) 0.3647(2) 0.0331 Uani
C38 C 0.4233(4) 0.0479(3) 0.2866(2) 0.0349 Uani
C39 C 0.6794(4) 0.0609(3) 0.3540(2) 0.0344 Uani
H33 H 0.732641 0.026661 0.299279 0.0410 Uiso
C40 C 0.7629(4) 0.0932(3) 0.4258(2) 0.0344 Uani
C41 C 0.9363(4) 0.0848(3) 0.4122(3) 0.0382 Uani
C42 C 0.6830(4) 0.1425(2) 0.5092(2) 0.0337 Uani
H34 H 0.739431 0.162223 0.557698 0.0400 Uiso
O7 O 0.9990(3) 0.9678(3) 0.6666(2) 0.0484 Uani
H1 H 0.907(4) 0.958(5) 0.689(4) 0.0730 Uiso
O8 O 0.9902(3) 0.8744(2) 0.53200(19) 0.0415 Uani
O11 O 0.8066(3) 0.1130(2) 0.85944(19) 0.0458 Uani
O12 O 0.7445(4) 0.2352(3) 0.7368(2) 0.0611 Uani
C25 C 0.9922(4) 0.2163(3) 0.8080(2) 0.0357 Uani
C26 C 0.8334(4) 0.1882(3) 0.7986(2) 0.0399 Uani
H21 H 0.989417 0.322463 0.690562 0.0440 Uiso
O2 O 0.7408(3) 0.9134(2) 0.95901(18) 0.0439 Uani
loop_
_atom_site_aniso_label
_atom_site_aniso_U_11
_atom_site_aniso_U_22
_atom_site_aniso_U_33
_atom_site_aniso_U_23
_atom_site_aniso_U_13
_atom_site_aniso_U_12
O20 0.0326 0.0617 0.0372 0.0134 -0.0015 -0.0127
Zn1 0.0266 0.0493 0.0308 0.00671 -0.00307 -0.01745
O3 0.0349 0.0664 0.0428 0.0158 -0.005 -0.0282
O4 0.0454 0.082 0.063 0.0329 -0.0218 -0.0304
C4 0.0301 0.044 0.0352 0.0046 -0.0003 -0.0144
C5 0.034 0.0544 0.0345 0.0055 -0.0031 -0.0178
O15 0.0303 0.0667 0.0508 -0.0147 0.0041 -0.0158
O16 0.0318 0.0481 0.0487 -0.0041 -0.0038 -0.0169
O17 0.0298 0.0564 0.0373 0.0006 -0.0031 -0.0178
O22 0.0315 0.0484 0.0366 -0.0018 -0.0043 -0.0108
O6 0.0315 0.0484 0.0366 -0.0018 -0.0043 -0.0108
Zn8 0.0266 0.0493 0.0308 0.00671 -0.00307 -0.01745
O5 0.0277 0.0794 0.0463 -0.0051 -0.002 -0.0161
N1 0.0289 0.0313 0.0347 0.0051 0.0008 -0.0122
C1 0.0332 0.0466 0.0335 0.0025 -0.0025 -0.0145
C2 0.0303 0.046 0.032 0.0022 -0.0005 -0.0148
C3 0.0325 0.0426 0.0322 0.0062 0.0013 -0.0151
C6 0.0339 0.0411 0.0352 0.0071 -0.0007 -0.0108
C7 0.0341 0.0398 0.0352 0.0004 0.004 -0.0135
C8 0.0317 0.0443 0.0356 0.0007 0.0013 -0.0167
C9 0.0398 0.0373 0.0376 0.0013 0.0066 -0.0146
C10 0.0295 0.0312 0.0316 0.0049 0.0017 -0.0116
C11 0.0295 0.0325 0.0334 0.0057 -0.0019 -0.0107
C12 0.0278 0.0332 0.034 0.005 -0.0007 -0.0101
C13 0.0329 0.0309 0.0349 0.0055 -0.0009 -0.0107
C14 0.0321 0.0297 0.0348 0.0047 -0.0007 -0.0114
C15 0.0261 0.034 0.0378 0.0048 -0.0008 -0.0108
C16 0.0301 0.0345 0.0365 0.0034 -0.0029 -0.0117
C17 0.0296 0.0427 0.0349 0.0064 -0.0032 -0.0142
C18 0.0319 0.0364 0.0369 0.0008 -0.0003 -0.0129
C19 0.0292 0.0356 0.0399 0.0026 -0.0029 -0.0106
C20 0.0318 0.0412 0.0426 0.0001 -0.0022 -0.0105
C21 0.0319 0.0338 0.0377 0.0032 -0.0046 -0.0122
O9 0.0298 0.0564 0.0373 0.0006 -0.0031 -0.0178
O13 0.0277 0.0794 0.0463 -0.0051 -0.002 -0.0161
N2 0.0289 0.0313 0.0347 0.0051 0.0008 -0.0122
C22 0.0332 0.0466 0.0335 0.0025 -0.0025 -0.0145
C23 0.0303 0.046 0.032 0.0022 -0.0005 -0.0148
C24 0.0325 0.0426 0.0322 0.0062 0.0013 -0.0151
C27 0.0339 0.0411 0.0352 0.0071 -0.0007 -0.0108
C28 0.0341 0.0398 0.0352 0.0004 0.004 -0.0135
C29 0.0317 0.0443 0.0356 0.0007 0.0013 -0.0167
C30 0.0398 0.0373 0.0376 0.0013 0.0066 -0.0146
C31 0.0295 0.0312 0.0316 0.0049 0.0017 -0.0116
C32 0.0295 0.0325 0.0334 0.0057 -0.0019 -0.0107
C33 0.0278 0.0332 0.034 0.005 -0.0007 -0.0101
C34 0.0329 0.0309 0.0349 0.0055 -0.0009 -0.0107
C35 0.0321 0.0297 0.0348 0.0047 -0.0007 -0.0114
C36 0.0261 0.034 0.0378 0.0048 -0.0008 -0.0108
C37 0.0301 0.0345 0.0365 0.0034 -0.0029 -0.0117
C38 0.0296 0.0427 0.0349 0.0064 -0.0032 -0.0142
C39 0.0319 0.0364 0.0369 0.0008 -0.0003 -0.0129
C40 0.0292 0.0356 0.0399 0.0026 -0.0029 -0.0106
C41 0.0318 0.0412 0.0426 0.0001 -0.0022 -0.0105
C42 0.0319 0.0338 0.0377 0.0032 -0.0046 -0.0122
O7 0.0303 0.0667 0.0508 -0.0147 0.0041 -0.0158
O8 0.0318 0.0481 0.0487 -0.0041 -0.0038 -0.0169
O11 0.0349 0.0664 0.0428 0.0158 -0.005 -0.0282
O12 0.0454 0.082 0.063 0.0329 -0.0218 -0.0304
C25 0.0301 0.044 0.0352 0.0046 -0.0003 -0.0144
C26 0.034 0.0544 0.0345 0.0055 -0.0031 -0.0178
O2 0.0326 0.0617 0.0372 0.0134 -0.0015 -0.0127
loop_
_geom_bond_atom_site_label_1
_geom_bond_atom_site_label_2
_geom_bond_site_symmetry_1
_geom_bond_site_symmetry_2
Zn1 O3 1_555 1_555
O3 C5 1_555 1_555
O4 C5 1_555 1_555
C5 C4 1_555 1_555
O15 H18 1_555 1_555
O17 Zn1 1_555 1_555
O22 Zn1 1_555 1_555
Zn8 O6 1_555 1_555
O17 C1 1_555 1_555
O5 C17 1_555 1_555
N1 H2 1_555 1_555
C1 C2 1_555 1_555
C2 C3 1_555 1_555
C3 H3 1_555 1_555
C7 C6 1_555 1_555
C8 C2 1_555 1_555
H5 C8 1_555 1_555
C9 N1 1_555 1_555
H6 C9 1_555 1_555
H7 C9 1_555 1_555
C10 N1 1_555 1_555
H8 C10 1_555 1_555
C11 C10 1_555 1_555
H9 C11 1_555 1_555
H10 C11 1_555 1_555
C12 C11 1_555 1_555
H11 C12 1_555 1_555
H12 C12 1_555 1_555
C13 N1 1_555 1_555
H13 C13 1_555 1_555
H14 C13 1_555 1_555
C14 C13 1_555 1_555
C15 C14 1_555 1_555
H15 C15 1_555 1_555
C16 C15 1_555 1_555
C17 C16 1_555 1_555
C18 C16 1_555 1_555
H16 C18 1_555 1_555
C19 C18 1_555 1_555
C21 C14 1_555 1_555
H17 C21 1_555 1_555
O9 C22 1_555 1_555
O13 C38 1_555 1_555
N2 H19 1_555 1_555
C22 C23 1_555 1_555
C23 C24 1_555 1_555
C24 H20 1_555 1_555
C28 C27 1_555 1_555
C29 C23 1_555 1_555
H22 C29 1_555 1_555
C30 N2 1_555 1_555
H23 C30 1_555 1_555
H24 C30 1_555 1_555
C31 C12 1_555 1_555
H25 C31 1_555 1_555
C32 C31 1_555 1_555
H26 C32 1_555 1_555
H27 C32 1_555 1_555
C33 C10 1_555 1_555
H28 C33 1_555 1_555
H29 C33 1_555 1_555
C34 N2 1_555 1_555
H30 C34 1_555 1_555
H31 C34 1_555 1_555
C35 C34 1_555 1_555
C36 C35 1_555 1_555
H32 C36 1_555 1_555
C37 C36 1_555 1_555
C38 C37 1_555 1_555
C39 C37 1_555 1_555
H33 C39 1_555 1_555
C40 C39 1_555 1_555
C42 C35 1_555 1_555
H34 C42 1_555 1_555
Zn8 O9 1_555 1_555
C7 C8 1_555 1_555
C7 C9 1_555 1_555
C19 C20 1_555 1_555
C19 C21 1_555 1_555
N2 C31 1_555 1_555
C28 C29 1_555 1_555
C28 C30 1_555 1_555
C32 C33 1_555 1_555
C40 C41 1_555 1_555
C40 C42 1_555 1_555
O7 H1 1_555 1_555
O11 C26 1_555 1_555
O12 C26 1_555 1_555
C26 C25 1_555 1_555
Zn8 O11 1_555 1_555

#END
