
###############################################################################
#
# This file contains modified crystal structure data generated from the
# MOF subset of the Cambridge Structural Database (CSD) v543 
# hosted by the Cambridge Crystallographic Data Centre (CCDC).
#
# This work is licensed under the Creative Commons
# Attribution-NonCommercial-ShareAlike 4.0 International License.
# To view a copy of this license, visit
# http://creativecommons.org/licenses/by-nc-sa/4.0/
# or send a letter to
# Creative Commons, PO Box 1866, Mountain View, CA 94042, USA.
#
# CIF created using the CSD Python API on 29 September 2022
# The structure has been converted into the P1 space group
# The structure has a 3D framework
# The original CSD entry KEDPEQ is in the orthorhombic crystal system
# The framework has been calculated to contain at least 10.0% void space
# The void calculation uses a probe of radius 1.32A, grid spacing 0.4
# The framework is charged, counterions have been retained in the structure
#
###############################################################################

data_KEDPEQ
_chemical_formula_moiety         '(C54 H62 Ag4 Al5 N8 O22 4+)n'
_symmetry_cell_setting           triclinic
_symmetry_space_group_name_H-M   'P 1'
_symmetry_Int_Tables_number      1
_space_group_name_Hall           'P 1'
loop_
_symmetry_equiv_pos_site_id
_symmetry_equiv_pos_as_xyz
1 x,y,z
_cell_length_a                   7.5718(10)
_cell_length_b                   10.8468(15)
_cell_length_c                   23.771(3)
_cell_angle_alpha                90
_cell_angle_beta                 90
_cell_angle_gamma                90
_cell_volume                     1952.31
loop_
_atom_site_label
_atom_site_type_symbol
_atom_site_fract_x
_atom_site_fract_y
_atom_site_fract_z
Al2 Al 0.5000 -0.0000 0.06002(8)
O8 O 0.7307(4) 0.0675(3) 0.06578(14)
O13 O 0.4239(4) 0.1157(4) 0.11417(15)
O15 O 0.4376(5) 0.0979(4) 0.0000
O15_2 O 0.4376(5) 0.0979(4) 1.0000
Al1 Al 0.5000 1.0000 0.43998(8)
Al5 Al 0.5000 1.0000 0.56002(8)
O7 O 0.7307(4) 0.9325(3) 0.43422(14)
O12 O 0.4239(4) 0.8843(4) 0.38583(15)
O14 O 0.4376(5) 0.9021(4) 0.5000
C26 C 0.383(3) 0.761(2) 0.5000
H28 H 0.3056 0.7433 0.5320
H29 H 0.3056 0.7433 0.4680
H30 H 0.4906 0.7106 0.5000
Ag1 Ag 1.0000 0.5000 0.2500
H1 H 0.9566 0.1613 0.3774
H3 H 0.9695 0.1328 0.4433
C8 C 0.9819(7) 0.8180(6) 0.4124(3)
C9 C 0.9819(7) 0.1820(6) 0.0876(3)
H11 H 0.9566 0.8387 0.1226
H12 H 0.9981 0.7301 0.4206
H13 H 0.9981 0.2699 0.0794
H17 H 0.9695 0.8672 0.0567
C11 C 0.7907(6) 0.8450(4) 0.4062(2)
C12 C 0.7907(6) 0.1550(4) 0.0938(2)
C14 C 0.6838(6) 0.7751(5) 0.3691(2)
C15 C 0.6838(6) 0.2249(5) 0.1309(2)
C17 C 0.5048(7) 0.7946(5) 0.3622(2)
C18 C 0.5048(7) 0.2054(5) 0.1378(2)
C20 C 0.3915(8) 0.7114(7) 0.3265(3)
C21 C 0.3915(8) 0.2886(7) 0.1735(3)
H18 H 0.3322 0.6508 0.3505
H19 H 0.3322 0.3492 0.1495
H21 H 0.4659 0.6685 0.2990
H22 H 0.4659 0.3315 0.2010
H24 H 0.3028 0.7608 0.3067
H25 H 0.3028 0.2392 0.1933
C23 C 0.7627(7) 0.6800(6) 0.3370(3)
C24 C 0.7627(7) 0.3200(6) 0.1630(3)
N2 N 0.8305(7) 0.6066(5) 0.3098(3)
N3 N 0.8305(7) 0.3934(5) 0.1902(3)
C7 C 0.383(3) 0.239(2) 0.0000
H8 H 0.4906 0.2894 0.0000
H27 H 0.3056 0.2567 0.0320
C7_2 C 0.383(3) 0.239(2) 1.0000
H7 H 0.3056 0.2567 0.9680
H8_2 H 0.4906 0.2894 1.0000
Al5_2 Al 0.5000 0.0000 0.93998(8)
Ag1_2 Ag 1.0000 0.5000 0.7500
O1 O 0.7307(4) 0.9325(3) 0.56578(14)
O2 O 0.4239(4) 0.8843(4) 0.61417(15)
C1 C 0.9819(7) 0.8180(6) 0.5876(3)
H2 H 0.9981 0.7301 0.5794
C2 C 0.7907(6) 0.8450(4) 0.5938(2)
C3 C 0.6838(6) 0.7751(5) 0.6309(2)
C4 C 0.5048(7) 0.7946(5) 0.6378(2)
C5 C 0.3915(8) 0.7114(7) 0.6735(3)
H4 H 0.3322 0.6508 0.6495
H5 H 0.4659 0.6685 0.7010
H6 H 0.3028 0.7608 0.6933
C6 C 0.7627(7) 0.6800(6) 0.6630(3)
N1 N 0.8305(7) 0.6066(5) 0.6902(3)
O6 O 0.7307(4) 0.0675(3) 0.93422(14)
O11 O 0.4239(4) 0.1157(4) 0.88583(15)
C10 C 0.9819(7) 0.1820(6) 0.9124(3)
H9 H 0.9566 0.1613 0.6226
H10 H 0.9566 0.8387 0.8774
H14 H 0.9981 0.2699 0.9206
H15 H 0.9695 0.1328 0.5567
H16 H 0.9695 0.8672 0.9433
C13 C 0.7907(6) 0.1550(4) 0.9062(2)
C16 C 0.6838(6) 0.2249(5) 0.8691(2)
C19 C 0.5048(7) 0.2054(5) 0.8622(2)
C22 C 0.3915(8) 0.2886(7) 0.8265(3)
H20 H 0.3322 0.3492 0.8505
H23 H 0.4659 0.3315 0.7990
H26 H 0.3028 0.2392 0.8067
C25 C 0.7627(7) 0.3200(6) 0.8370(3)
N4 N 0.8305(7) 0.3934(5) 0.8098(3)
Ag1_3 Ag 0.0000 0.5000 0.2500
Al1_2 Al 0.5000 0.0000 0.43998(8)
O1_2 O 0.2693(4) 0.0675(3) 0.43422(14)
O2_2 O 0.5761(4) 0.1157(4) 0.38583(15)
O3 O 0.5624(5) 0.0979(4) 0.5000
C1_2 C 0.0181(7) 0.1820(6) 0.4124(3)
H2_2 H 0.0019 0.2699 0.4206
C2_2 C 0.2093(6) 0.1550(4) 0.4062(2)
C3_2 C 0.3162(6) 0.2249(5) 0.3691(2)
C4_2 C 0.4952(7) 0.2054(5) 0.3622(2)
C5_2 C 0.6085(8) 0.2886(7) 0.3265(3)
H4_2 H 0.6678 0.3492 0.3505
H5_2 H 0.5341 0.3315 0.2990
H6_2 H 0.6972 0.2392 0.3067
C6_2 C 0.2373(7) 0.3200(6) 0.3370(3)
C7_3 C 0.617(3) 0.239(2) 0.5000
H7_2 H 0.6944 0.2567 0.5320
H8_3 H 0.5094 0.2894 0.5000
N1_2 N 0.1695(7) 0.3934(5) 0.3098(3)
Al2_2 Al 0.5000 1.0000 0.06002(8)
Al5_3 Al 0.5000 0.0000 0.56002(8)
O6_2 O 0.2693(4) 0.9325(3) 0.06578(14)
O11_2 O 0.5761(4) 0.8843(4) 0.11417(15)
O16 O 0.5624(5) 0.9021(4) 0.0000
C10_2 C 0.0181(7) 0.8180(6) 0.0876(3)
H9_2 H 0.0434 0.8387 0.3774
H10_2 H 0.0434 0.1613 0.1226
H14_2 H 0.0019 0.7301 0.0794
H15_2 H 0.0305 0.8672 0.4433
H16_2 H 0.0305 0.1328 0.0567
C13_2 C 0.2093(6) 0.8450(4) 0.0938(2)
C16_2 C 0.3162(6) 0.7751(5) 0.1309(2)
C19_2 C 0.4952(7) 0.7946(5) 0.1378(2)
C22_2 C 0.6085(8) 0.7114(7) 0.1735(3)
H20_2 H 0.6678 0.6508 0.1495
H23_2 H 0.5341 0.6685 0.2010
H26_2 H 0.6972 0.7608 0.1933
C25_2 C 0.2373(7) 0.6800(6) 0.1630(3)
H27_2 H 0.6944 0.2567 0.4680
N4_2 N 0.1695(7) 0.6066(5) 0.1902(3)
O16_2 O 0.5624(5) 0.9021(4) 1.0000
C26_2 C 0.617(3) 0.761(2) 0.0000
H29_2 H 0.6944 0.7433 0.0320
H30_2 H 0.5094 0.7106 0.0000
Al5_4 Al 0.5000 1.0000 0.93998(8)
C26_3 C 0.617(3) 0.761(2) 1.0000
H28_2 H 0.6944 0.7433 0.9680
H30_3 H 0.5094 0.7106 1.0000
Ag1_4 Ag 0.0000 0.5000 0.7500
H1_2 H 0.0434 0.8387 0.6226
H3_2 H 0.0305 0.8672 0.5567
O4 O 0.2693(4) 0.0675(3) 0.56578(14)
O5 O 0.2693(4) 0.9325(3) 0.93422(14)
O9 O 0.5761(4) 0.1157(4) 0.61417(15)
O10 O 0.5761(4) 0.8843(4) 0.88583(15)
C8_2 C 0.0181(7) 0.1820(6) 0.5876(3)
C9_2 C 0.0181(7) 0.8180(6) 0.9124(3)
H11_2 H 0.0434 0.1613 0.8774
H12_2 H 0.0019 0.2699 0.5794
H13_2 H 0.0019 0.7301 0.9206
H17_2 H 0.0305 0.1328 0.9433
C11_2 C 0.2093(6) 0.1550(4) 0.5938(2)
C12_2 C 0.2093(6) 0.8450(4) 0.9062(2)
C14_2 C 0.3162(6) 0.2249(5) 0.6309(2)
C15_2 C 0.3162(6) 0.7751(5) 0.8691(2)
C17_2 C 0.4952(7) 0.2054(5) 0.6378(2)
C18_2 C 0.4952(7) 0.7946(5) 0.8622(2)
C20_2 C 0.6085(8) 0.2886(7) 0.6735(3)
C21_2 C 0.6085(8) 0.7114(7) 0.8265(3)
H18_2 H 0.6678 0.3492 0.6495
H19_2 H 0.6678 0.6508 0.8505
H21_2 H 0.5341 0.3315 0.7010
H22_2 H 0.5341 0.6685 0.7990
H24_2 H 0.6972 0.2392 0.6933
H25_2 H 0.6972 0.7608 0.8067
C23_2 C 0.2373(7) 0.3200(6) 0.6630(3)
C24_2 C 0.2373(7) 0.6800(6) 0.8370(3)
N2_2 N 0.1695(7) 0.3934(5) 0.6902(3)
N3_2 N 0.1695(7) 0.6066(5) 0.8098(3)
loop_
_geom_bond_atom_site_label_1
_geom_bond_atom_site_label_2
_geom_bond_site_symmetry_1
_geom_bond_site_symmetry_2
O8 Al2 1_555 1_555
O13 Al2 1_555 1_555
O15 Al2 1_555 1_555
O7 Al1 1_555 1_555
O12 Al1 1_555 1_555
O14 Al1 1_555 1_555
C26 O14 1_555 1_555
H28 C26 1_555 1_555
H29 C26 1_555 1_555
H30 C26 1_555 1_555
Al5 O14 1_555 1_555
O7 C11 1_555 1_555
O8 C12 1_555 1_555
H12 C8 1_555 1_555
H13 C9 1_555 1_555
C11 C8 1_555 1_555
C12 C9 1_555 1_555
C14 C11 1_555 1_555
C15 C12 1_555 1_555
C17 O12 1_555 1_555
C18 O13 1_555 1_555
C20 C17 1_555 1_555
C21 C18 1_555 1_555
H18 C20 1_555 1_555
H19 C21 1_555 1_555
H21 C20 1_555 1_555
H22 C21 1_555 1_555
H24 C20 1_555 1_555
H25 C21 1_555 1_555
C23 C14 1_555 1_555
C24 C15 1_555 1_555
N2 Ag1 1_555 1_555
N3 Ag1 1_555 1_555
C14 C17 1_555 1_555
C15 C18 1_555 1_555
C23 N2 1_555 1_555
C24 N3 1_555 1_555
C7 O15 1_555 1_555
H8 C7 1_555 1_555
H27 C7 1_555 1_555
C7_2 O15_2 1_555 1_555
H7 C7_2 1_555 1_555
H8_2 C7_2 1_555 1_555
Al5_2 O15_2 1_555 1_555
Ag1_2 N1 1_555 1_555
Al5 O1 1_555 1_555
O1 C2 1_555 1_555
O2 Al5 1_555 1_555
H2 C1 1_555 1_555
C2 C1 1_555 1_555
C3 C2 1_555 1_555
C4 O2 1_555 1_555
C5 C4 1_555 1_555
H4 C5 1_555 1_555
H5 C5 1_555 1_555
H6 C5 1_555 1_555
C6 C3 1_555 1_555
N1 C6 1_555 1_555
Al5_2 O6 1_555 1_555
O6 C13 1_555 1_555
O11 Al5_2 1_555 1_555
H14 C10 1_555 1_555
C13 C10 1_555 1_555
C16 C13 1_555 1_555
C19 O11 1_555 1_555
C22 C19 1_555 1_555
H20 C22 1_555 1_555
H23 C22 1_555 1_555
H26 C22 1_555 1_555
C25 C16 1_555 1_555
N4 Ag1_2 1_555 1_555
C3 C4 1_555 1_555
C16 C19 1_555 1_555
C25 N4 1_555 1_555
Ag1_3 N1_2 1_555 1_555
Al1_2 O1_2 1_555 1_555
O1_2 C2_2 1_555 1_555
O2_2 Al1_2 1_555 1_555
O3 Al1_2 1_555 1_555
H2_2 C1_2 1_555 1_555
C2_2 C1_2 1_555 1_555
C3_2 C2_2 1_555 1_555
C4_2 O2_2 1_555 1_555
C5_2 C4_2 1_555 1_555
H4_2 C5_2 1_555 1_555
H5_2 C5_2 1_555 1_555
H6_2 C5_2 1_555 1_555
C6_2 C3_2 1_555 1_555
C7_3 O3 1_555 1_555
H7_2 C7_3 1_555 1_555
H8_3 C7_3 1_555 1_555
N1_2 C6_2 1_555 1_555
Al2_2 O6_2 1_555 1_555
Al5_3 O3 1_555 1_555
O6_2 C13_2 1_555 1_555
O11_2 Al2_2 1_555 1_555
O16 Al2_2 1_555 1_555
H14_2 C10_2 1_555 1_555
C13_2 C10_2 1_555 1_555
C16_2 C13_2 1_555 1_555
C19_2 O11_2 1_555 1_555
C22_2 C19_2 1_555 1_555
H20_2 C22_2 1_555 1_555
H23_2 C22_2 1_555 1_555
H26_2 C22_2 1_555 1_555
C25_2 C16_2 1_555 1_555
H27_2 C7_3 1_555 1_555
N4_2 Ag1_3 1_555 1_555
C3_2 C4_2 1_555 1_555
C16_2 C19_2 1_555 1_555
C25_2 N4_2 1_555 1_555
C26_2 O16 1_555 1_555
H29_2 C26_2 1_555 1_555
H30_2 C26_2 1_555 1_555
C26_3 O16_2 1_555 1_555
H28_2 C26_3 1_555 1_555
H30_3 C26_3 1_555 1_555
Al5_4 O16_2 1_555 1_555
Al5_3 O4 1_555 1_555
Al5_4 O5 1_555 1_555
O4 C11_2 1_555 1_555
O5 C12_2 1_555 1_555
O9 Al5_3 1_555 1_555
O10 Al5_4 1_555 1_555
H12_2 C8_2 1_555 1_555
H13_2 C9_2 1_555 1_555
C11_2 C8_2 1_555 1_555
C12_2 C9_2 1_555 1_555
C14_2 C11_2 1_555 1_555
C15_2 C12_2 1_555 1_555
C17_2 O9 1_555 1_555
C18_2 O10 1_555 1_555
C20_2 C17_2 1_555 1_555
C21_2 C18_2 1_555 1_555
H18_2 C20_2 1_555 1_555
H19_2 C21_2 1_555 1_555
H21_2 C20_2 1_555 1_555
H22_2 C21_2 1_555 1_555
H24_2 C20_2 1_555 1_555
H25_2 C21_2 1_555 1_555
C23_2 C14_2 1_555 1_555
C24_2 C15_2 1_555 1_555
N2_2 Ag1_4 1_555 1_555
N3_2 Ag1_4 1_555 1_555
C14_2 C17_2 1_555 1_555
C15_2 C18_2 1_555 1_555
C23_2 N2_2 1_555 1_555
C24_2 N3_2 1_555 1_555

#END
