
###############################################################################
#
# This file contains modified crystal structure data generated from the
# MOF subset of the Cambridge Structural Database (CSD) v543 
# hosted by the Cambridge Crystallographic Data Centre (CCDC).
#
# This work is licensed under the Creative Commons
# Attribution-NonCommercial-ShareAlike 4.0 International License.
# To view a copy of this license, visit
# http://creativecommons.org/licenses/by-nc-sa/4.0/
# or send a letter to
# Creative Commons, PO Box 1866, Mountain View, CA 94042, USA.
#
# CIF created using the CSD Python API on 29 September 2022
# The structure has been converted into the P1 space group
# The structure has a 3D framework
# The original CSD entry KEFMUH is in the tetragonal crystal system
# The original CSD entry KEFMUH is in a Sohncke space group
# The framework has been calculated to contain at least 10.0% void space
# The void calculation uses a probe of radius 1.32A, grid spacing 0.4
#
###############################################################################

data_KEFMUH
_chemical_formula_moiety         '(C96 H64 F24 Mn4 N16 O16)n'
_symmetry_cell_setting           triclinic
_symmetry_space_group_name_H-M   'P 1'
_symmetry_Int_Tables_number      1
_space_group_name_Hall           'P 1'
loop_
_symmetry_equiv_pos_site_id
_symmetry_equiv_pos_as_xyz
1 x,y,z
_cell_length_a                   21.2320(7)
_cell_length_b                   21.2320(7)
_cell_length_c                   9.1098(4)
_cell_angle_alpha                90
_cell_angle_beta                 90
_cell_angle_gamma                90
_cell_volume                     4106.68
loop_
_atom_site_label
_atom_site_type_symbol
_atom_site_fract_x
_atom_site_fract_y
_atom_site_fract_z
F1 F 0.1392(5) 0.7264(5) 0.066(3)
F3 F 0.1214(3) 0.6306(4) 0.104(2)
Mn1 Mn 0.23147(6) 0.73048(5) 0.593(2)
F2 F 0.0764(3) 0.6757(6) 0.925(2)
F4 F 0.3744(3) 0.7429(3) 0.230(2)
F5 F 0.3463(3) 0.8107(3) 0.068(2)
F6 F 0.2948(3) 0.7246(3) 0.093(2)
O1 O 0.1902(3) 0.6954(3) 0.792(2)
O2 O 0.2189(3) 0.6113(3) 0.928(2)
O3 O 0.2704(3) 0.7641(3) 0.390(2)
O4 O 0.2551(3) 0.8503(3) 0.250(2)
N1 N 0.1328(3) 0.7455(4) 0.502(2)
N3 N 0.2364(4) 0.6332(4) 0.498(2)
N4 N 0.2775(4) 0.3322(3) 0.180(2)
C1 C 0.1858(4) 0.6578(5) 0.896(3)
C2 C 0.1305(5) 0.6719(6) 0.997(3)
C3 C 0.2801(4) 0.7985(5) 0.280(3)
C4 C 0.3248(4) 0.7693(5) 0.167(3)
C5 C 0.1220(4) 0.7837(4) 0.386(3)
H1 H 0.1560 0.8066 0.3441
C6 C 0.0614(4) 0.7904(5) 0.326(3)
H2 H 0.0547 0.8187 0.2469
C7 C 0.0116(4) 0.7561(5) 0.381(3)
C8 C 0.0237(5) 0.7177(6) 0.501(3)
C9 C 0.0844(5) 0.7127(5) 0.555(3)
H4 H 0.0920 0.6844 0.6337
C15 C 0.2308(5) 0.6241(4) 0.351(3)
H9 H 0.2198 0.6592 0.2920
C16 C 0.2402(5) 0.5665(4) 0.284(3)
H10 H 0.2359 0.5627 0.1801
C17 C 0.2560(4) 0.5150(4) 0.367(2)
C18 C 0.2506(4) 0.5820(4) 0.579(3)
H11 H 0.2530 0.5864 0.6823
C19 C 0.2616(5) 0.5237(4) 0.518(3)
H12 H 0.2731 0.4894 0.5795
C20 C 0.2646(4) 0.4521(4) 0.301(3)
C21 C 0.3092(5) 0.4095(4) 0.358(2)
H13 H 0.3357 0.4208 0.4378
C22 C 0.3130(4) 0.3503(4) 0.294(3)
H14 H 0.3424 0.3211 0.3326
C23 C 0.2356(5) 0.3727(4) 0.128(3)
H15 H 0.2088 0.3597 0.0499
C24 C 0.2297(5) 0.4330(4) 0.182(3)
H16 H 0.2011 0.4616 0.1374
Mn2 Mn 0.26952(5) 0.23147(6) 0.093(2)
N5 N 0.2310(4) 0.8289(3) 0.690(2)
N6 N 0.3322(3) 0.7225(4) 0.680(2)
N2 N 0.1711(3) 0.2310(4) 0.190(2)
H3 H 0.0096 0.3052 0.5452
C10 C 0.0517(4) 0.2390(5) 0.315(3)
C11 C 0.0597(4) 0.2346(5) 0.165(3)
H5 H 0.0241 0.2332 0.1021
C12 C 0.1205(4) 0.2322(4) 0.108(3)
H6 H 0.1254 0.2315 0.0039
C13 C 0.1639(4) 0.2349(5) 0.336(3)
H7 H 0.2005 0.2354 0.3960
C14 C 0.1050(4) 0.2383(6) 0.403(3)
H8 H 0.1014 0.2401 0.5069
F1_2 F 0.2736(5) 0.1392(5) 0.566(3)
F2_2 F 0.3243(6) 0.0764(3) 0.425(2)
F3_2 F 0.3694(4) 0.1214(3) 0.604(2)
O1_2 O 0.3046(3) 0.1902(3) 0.292(2)
O2_2 O 0.3887(3) 0.2189(3) 0.428(2)
N1_2 N 0.2545(4) 0.1328(3) 0.002(2)
C1_2 C 0.3422(5) 0.1858(4) 0.396(3)
C2_2 C 0.3281(6) 0.1305(5) 0.497(3)
C8_2 C 0.2823(6) 0.0237(5) 0.001(3)
C9_2 C 0.2873(5) 0.0844(5) 0.055(3)
H4_2 H 0.3156 0.0920 0.1337
C18_2 C 0.4180(4) 0.2506(4) 0.079(3)
H11_2 H 0.4136 0.2530 0.1823
C19_2 C 0.4763(4) 0.2616(5) 0.018(3)
H12_2 H 0.5106 0.2731 0.0795
C10_2 C 0.2390(5) 0.9483(4) 0.815(3)
C11_2 C 0.2346(5) 0.9403(4) 0.665(3)
H5_2 H 0.2332 0.9759 0.6021
C12_2 C 0.2322(4) 0.8795(4) 0.608(3)
H6_2 H 0.2315 0.8746 0.5039
C13_2 C 0.2349(5) 0.8361(4) 0.836(3)
H7_2 H 0.2354 0.7995 0.8960
C14_2 C 0.2383(6) 0.8950(4) 0.903(3)
F4_2 F 0.7429(3) 0.6256(3) 0.730(2)
F5_2 F 0.8107(3) 0.6537(3) 0.568(2)
F6_2 F 0.7246(3) 0.7052(3) 0.593(2)
O3_2 O 0.7641(3) 0.7296(3) 0.890(2)
O4_2 O 0.8503(3) 0.7449(3) 0.750(2)
N3_2 N 0.6332(4) 0.7636(4) 0.998(2)
C3_2 C 0.7985(5) 0.7199(4) 0.780(3)
C4_2 C 0.7693(5) 0.6752(4) 0.667(3)
C5_2 C 0.7837(4) 0.8780(4) 0.886(3)
H1_2 H 0.8066 0.8440 0.8441
C6_2 C 0.7904(5) 0.9386(4) 0.826(3)
H2_2 H 0.8187 0.9453 0.7469
C7_2 C 0.7561(5) 0.9884(4) 0.881(3)
C15_2 C 0.6241(4) 0.7692(5) 0.851(3)
H9_2 H 0.6592 0.7802 0.7920
C16_2 C 0.5665(4) 0.7598(5) 0.784(3)
H10_2 H 0.5627 0.7641 0.6801
C17_2 C 0.5150(4) 0.7440(4) 0.867(2)
C20_2 C 0.4521(4) 0.7354(4) 0.801(3)
C21_2 C 0.4095(4) 0.6908(5) 0.858(2)
H13_2 H 0.4208 0.6643 0.9378
C22_2 C 0.3503(4) 0.6870(4) 0.794(3)
H14_2 H 0.3211 0.6576 0.8326
C23_2 C 0.3727(4) 0.7644(5) 0.628(3)
H15_2 H 0.3597 0.7912 0.5499
C24_2 C 0.4330(4) 0.7703(5) 0.682(3)
H16_2 H 0.4616 0.7989 0.6374
N2_2 N 0.8289(3) 0.7690(4) 0.190(2)
H3_2 H 0.9904 0.6948 0.5452
C10_3 C 0.9483(4) 0.7610(5) 0.315(3)
C11_3 C 0.9403(4) 0.7654(5) 0.165(3)
H5_3 H 0.9759 0.7668 0.1021
C12_3 C 0.8795(4) 0.7678(4) 0.108(3)
H6_3 H 0.8746 0.7685 0.0039
C13_3 C 0.8361(4) 0.7651(5) 0.336(3)
H7_3 H 0.7995 0.7646 0.3960
C14_3 C 0.8950(4) 0.7617(6) 0.403(3)
H8_2 H 0.8986 0.7599 0.5069
Mn3 Mn 0.73048(5) 0.76853(6) 0.093(2)
Mn1_2 Mn 0.76853(6) 0.26952(5) 0.593(2)
F2_3 F 0.9236(3) 0.3243(6) 0.925(2)
F4_3 F 0.6256(3) 0.2571(3) 0.230(2)
F5_3 F 0.6537(3) 0.1893(3) 0.068(2)
F6_3 F 0.7052(3) 0.2754(3) 0.093(2)
O1_3 O 0.8098(3) 0.3046(3) 0.792(2)
O2_3 O 0.7811(3) 0.3887(3) 0.928(2)
O3_3 O 0.7296(3) 0.2359(3) 0.390(2)
O4_3 O 0.7449(3) 0.1497(3) 0.250(2)
N1_3 N 0.8672(3) 0.2545(4) 0.502(2)
N3_3 N 0.7636(4) 0.3668(4) 0.498(2)
N4_2 N 0.7225(4) 0.6678(3) 0.180(2)
C1_3 C 0.8142(4) 0.3422(5) 0.896(3)
C2_3 C 0.8695(5) 0.3281(6) 0.997(3)
C3_3 C 0.7199(4) 0.2015(5) 0.280(3)
C4_3 C 0.6752(4) 0.2307(5) 0.167(3)
C5_3 C 0.8780(4) 0.2163(4) 0.386(3)
H1_3 H 0.8440 0.1934 0.3441
C6_3 C 0.9386(4) 0.2096(5) 0.326(3)
H2_3 H 0.9453 0.1813 0.2469
C7_3 C 0.9884(4) 0.2439(5) 0.381(3)
C8_3 C 0.9763(5) 0.2823(6) 0.501(3)
C9_3 C 0.9156(5) 0.2873(5) 0.555(3)
H4_3 H 0.9080 0.3156 0.6337
C15_3 C 0.7692(5) 0.3759(4) 0.351(3)
H9_3 H 0.7802 0.3408 0.2920
C16_3 C 0.7598(5) 0.4335(4) 0.284(3)
H10_3 H 0.7641 0.4373 0.1801
C17_3 C 0.7440(4) 0.4850(4) 0.367(2)
C18_3 C 0.7494(4) 0.4180(4) 0.579(3)
H11_3 H 0.7470 0.4136 0.6823
C19_3 C 0.7384(5) 0.4763(4) 0.518(3)
H12_3 H 0.7269 0.5106 0.5795
C20_3 C 0.7354(4) 0.5479(4) 0.301(3)
C21_3 C 0.6908(5) 0.5905(4) 0.358(2)
H13_3 H 0.6643 0.5792 0.4378
C22_3 C 0.6870(4) 0.6497(4) 0.294(3)
H14_3 H 0.6576 0.6789 0.3326
C23_3 C 0.7644(5) 0.6273(4) 0.128(3)
H15_3 H 0.7912 0.6403 0.0499
C24_3 C 0.7703(5) 0.5670(4) 0.182(3)
H16_3 H 0.7989 0.5384 0.1374
N5_2 N 0.7690(4) 0.1711(3) 0.690(2)
N6_2 N 0.6678(3) 0.2775(4) 0.680(2)
F4_4 F 0.2571(3) 0.3744(3) 0.730(2)
F5_4 F 0.1893(3) 0.3463(3) 0.568(2)
F6_4 F 0.2754(3) 0.2948(3) 0.593(2)
O3_4 O 0.2359(3) 0.2704(3) 0.890(2)
O4_4 O 0.1497(3) 0.2551(3) 0.750(2)
N3_4 N 0.3668(4) 0.2364(4) 0.998(2)
C3_4 C 0.2015(5) 0.2801(4) 0.780(3)
C4_4 C 0.2307(5) 0.3248(4) 0.667(3)
C5_4 C 0.2163(4) 0.1220(4) 0.886(3)
H1_4 H 0.1934 0.1560 0.8441
C6_4 C 0.2096(5) 0.0614(4) 0.826(3)
H2_4 H 0.1813 0.0547 0.7469
C7_4 C 0.2439(5) 0.0116(4) 0.881(3)
C15_4 C 0.3759(4) 0.2308(5) 0.851(3)
H9_4 H 0.3408 0.2198 0.7920
C16_4 C 0.4335(4) 0.2402(5) 0.784(3)
H10_4 H 0.4373 0.2359 0.6801
C17_4 C 0.4850(4) 0.2560(4) 0.867(2)
C20_4 C 0.5479(4) 0.2646(4) 0.801(3)
C21_4 C 0.5905(4) 0.3092(5) 0.858(2)
H13_4 H 0.5792 0.3357 0.9378
C22_4 C 0.6497(4) 0.3130(4) 0.794(3)
H14_4 H 0.6789 0.3424 0.8326
C23_4 C 0.6273(4) 0.2356(5) 0.628(3)
H15_4 H 0.6403 0.2088 0.5499
C24_4 C 0.5670(4) 0.2297(5) 0.682(3)
H16_4 H 0.5384 0.2011 0.6374
C10_4 C 0.7610(5) 0.0517(4) 0.815(3)
C11_4 C 0.7654(5) 0.0597(4) 0.665(3)
H5_4 H 0.7668 0.0241 0.6021
C12_4 C 0.7678(4) 0.1205(4) 0.608(3)
H6_4 H 0.7685 0.1254 0.5039
C13_4 C 0.7651(5) 0.1639(4) 0.836(3)
H7_4 H 0.7646 0.2005 0.8960
C14_4 C 0.7617(6) 0.1050(4) 0.903(3)
F1_3 F 0.7264(5) 0.8608(5) 0.566(3)
F2_4 F 0.6757(6) 0.9236(3) 0.425(2)
F3_3 F 0.6306(4) 0.8786(3) 0.604(2)
O1_4 O 0.6954(3) 0.8098(3) 0.292(2)
O2_4 O 0.6113(3) 0.7811(3) 0.428(2)
N1_4 N 0.7455(4) 0.8672(3) 0.002(2)
C1_4 C 0.6578(5) 0.8142(4) 0.396(3)
C2_4 C 0.6719(6) 0.8695(5) 0.497(3)
C8_4 C 0.7177(6) 0.9763(5) 0.001(3)
C9_4 C 0.7127(5) 0.9156(5) 0.055(3)
H4_4 H 0.6844 0.9080 0.1337
C18_4 C 0.5820(4) 0.7494(4) 0.079(3)
H11_4 H 0.5864 0.7470 0.1823
C19_4 C 0.5237(4) 0.7384(5) 0.018(3)
H12_4 H 0.4894 0.7269 0.0795
F1_4 F 0.8608(5) 0.2736(5) 0.066(3)
F3_4 F 0.8786(3) 0.3694(4) 0.104(2)
H3_3 H 0.3052 0.9904 0.0452
H8_3 H 0.2401 0.8986 0.0069
H3_4 H 0.6948 0.0096 0.0452
H8_4 H 0.7599 0.1014 0.0069
loop_
_geom_bond_atom_site_label_1
_geom_bond_atom_site_label_2
_geom_bond_site_symmetry_1
_geom_bond_site_symmetry_2
Mn1 O1 1_555 1_555
F2 C2 1_555 1_555
F4 C4 1_555 1_555
F5 C4 1_555 1_555
F6 C4 1_555 1_555
O1 C1 1_555 1_555
O2 C1 1_555 1_555
O3 Mn1 1_555 1_555
O4 C3 1_555 1_555
N1 Mn1 1_555 1_555
N3 Mn1 1_555 1_555
N4 C22 1_555 1_555
C1 C2 1_555 1_555
C3 O3 1_555 1_555
C4 C3 1_555 1_555
C5 N1 1_555 1_555
H1 C5 1_555 1_555
C6 C5 1_555 1_555
H2 C6 1_555 1_555
C7 C6 1_555 1_555
C8 C7 1_555 1_555
C9 N1 1_555 1_555
H4 C9 1_555 1_555
C15 N3 1_555 1_555
H9 C15 1_555 1_555
C16 C15 1_555 1_555
H10 C16 1_555 1_555
C17 C16 1_555 1_555
C18 N3 1_555 1_555
H11 C18 1_555 1_555
C19 C17 1_555 1_555
H12 C19 1_555 1_555
C20 C17 1_555 1_555
C21 C20 1_555 1_555
H13 C21 1_555 1_555
C22 C21 1_555 1_555
H14 C22 1_555 1_555
C23 N4 1_555 1_555
H15 C23 1_555 1_555
C24 C20 1_555 1_555
H16 C24 1_555 1_555
Mn2 N4 1_555 1_555
N5 Mn1 1_555 1_555
N6 Mn1 1_555 1_555
C8 C9 1_555 1_555
C18 C19 1_555 1_555
C23 C24 1_555 1_555
N2 C12 1_555 1_555
C11 C10 1_555 1_555
H5 C11 1_555 1_555
C12 C11 1_555 1_555
H6 C12 1_555 1_555
C13 N2 1_555 1_555
H7 C13 1_555 1_555
C14 C10 1_555 1_555
H8 C14 1_555 1_555
Mn2 N2 1_555 1_555
C13 C14 1_555 1_555
Mn2 O1_2 1_555 1_555
F1_2 C2_2 1_555 1_555
F2_2 C2_2 1_555 1_555
F3_2 C2_2 1_555 1_555
O1_2 C1_2 1_555 1_555
O2_2 C1_2 1_555 1_555
N1_2 Mn2 1_555 1_555
C1_2 C2_2 1_555 1_555
C9_2 N1_2 1_555 1_555
H4_2 C9_2 1_555 1_555
H11_2 C18_2 1_555 1_555
H12_2 C19_2 1_555 1_555
C8_2 C9_2 1_555 1_555
C18_2 C19_2 1_555 1_555
N5 C12_2 1_555 1_555
C11_2 C10_2 1_555 1_555
H5_2 C11_2 1_555 1_555
C12_2 C11_2 1_555 1_555
H6_2 C12_2 1_555 1_555
C13_2 N5 1_555 1_555
H7_2 C13_2 1_555 1_555
C14_2 C10_2 1_555 1_555
C13_2 C14_2 1_555 1_555
F4_2 C4_2 1_555 1_555
F5_2 C4_2 1_555 1_555
F6_2 C4_2 1_555 1_555
O4_2 C3_2 1_555 1_555
N6 C22_2 1_555 1_555
C3_2 O3_2 1_555 1_555
C4_2 C3_2 1_555 1_555
H1_2 C5_2 1_555 1_555
C6_2 C5_2 1_555 1_555
H2_2 C6_2 1_555 1_555
C7_2 C6_2 1_555 1_555
C15_2 N3_2 1_555 1_555
H9_2 C15_2 1_555 1_555
C16_2 C15_2 1_555 1_555
H10_2 C16_2 1_555 1_555
C17_2 C16_2 1_555 1_555
C20_2 C17_2 1_555 1_555
C21_2 C20_2 1_555 1_555
H13_2 C21_2 1_555 1_555
C22_2 C21_2 1_555 1_555
H14_2 C22_2 1_555 1_555
C23_2 N6 1_555 1_555
H15_2 C23_2 1_555 1_555
C24_2 C20_2 1_555 1_555
H16_2 C24_2 1_555 1_555
C23_2 C24_2 1_555 1_555
N2_2 C12_3 1_555 1_555
C11_3 C10_3 1_555 1_555
H5_3 C11_3 1_555 1_555
C12_3 C11_3 1_555 1_555
H6_3 C12_3 1_555 1_555
C13_3 N2_2 1_555 1_555
H7_3 C13_3 1_555 1_555
C14_3 C10_3 1_555 1_555
H8_2 C14_3 1_555 1_555
Mn3 N2_2 1_555 1_555
C13_3 C14_3 1_555 1_555
Mn1_2 O1_3 1_555 1_555
F2_3 C2_3 1_555 1_555
F4_3 C4_3 1_555 1_555
F5_3 C4_3 1_555 1_555
F6_3 C4_3 1_555 1_555
O1_3 C1_3 1_555 1_555
O2_3 C1_3 1_555 1_555
O3_3 Mn1_2 1_555 1_555
O4_3 C3_3 1_555 1_555
N1_3 Mn1_2 1_555 1_555
N3_3 Mn1_2 1_555 1_555
N4_2 C22_3 1_555 1_555
C1_3 C2_3 1_555 1_555
C3_3 O3_3 1_555 1_555
C4_3 C3_3 1_555 1_555
C5_3 N1_3 1_555 1_555
H1_3 C5_3 1_555 1_555
C6_3 C5_3 1_555 1_555
H2_3 C6_3 1_555 1_555
C7_3 C6_3 1_555 1_555
C8_3 C7_3 1_555 1_555
C9_3 N1_3 1_555 1_555
H4_3 C9_3 1_555 1_555
C15_3 N3_3 1_555 1_555
H9_3 C15_3 1_555 1_555
C16_3 C15_3 1_555 1_555
H10_3 C16_3 1_555 1_555
C17_3 C16_3 1_555 1_555
C18_3 N3_3 1_555 1_555
H11_3 C18_3 1_555 1_555
C19_3 C17_3 1_555 1_555
H12_3 C19_3 1_555 1_555
C20_3 C17_3 1_555 1_555
C21_3 C20_3 1_555 1_555
H13_3 C21_3 1_555 1_555
C22_3 C21_3 1_555 1_555
H14_3 C22_3 1_555 1_555
C23_3 N4_2 1_555 1_555
H15_3 C23_3 1_555 1_555
C24_3 C20_3 1_555 1_555
H16_3 C24_3 1_555 1_555
Mn3 N4_2 1_555 1_555
N5_2 Mn1_2 1_555 1_555
N6_2 Mn1_2 1_555 1_555
C8_3 C9_3 1_555 1_555
C18_3 C19_3 1_555 1_555
C23_3 C24_3 1_555 1_555
F4_4 C4_4 1_555 1_555
F5_4 C4_4 1_555 1_555
F6_4 C4_4 1_555 1_555
O4_4 C3_4 1_555 1_555
N6_2 C22_4 1_555 1_555
C3_4 O3_4 1_555 1_555
C4_4 C3_4 1_555 1_555
H1_4 C5_4 1_555 1_555
C6_4 C5_4 1_555 1_555
H2_4 C6_4 1_555 1_555
C7_4 C6_4 1_555 1_555
C15_4 N3_4 1_555 1_555
H9_4 C15_4 1_555 1_555
C16_4 C15_4 1_555 1_555
H10_4 C16_4 1_555 1_555
C17_4 C16_4 1_555 1_555
C20_4 C17_4 1_555 1_555
C21_4 C20_4 1_555 1_555
H13_4 C21_4 1_555 1_555
C22_4 C21_4 1_555 1_555
H14_4 C22_4 1_555 1_555
C23_4 N6_2 1_555 1_555
H15_4 C23_4 1_555 1_555
C24_4 C20_4 1_555 1_555
H16_4 C24_4 1_555 1_555
C23_4 C24_4 1_555 1_555
N5_2 C12_4 1_555 1_555
C11_4 C10_4 1_555 1_555
H5_4 C11_4 1_555 1_555
C12_4 C11_4 1_555 1_555
H6_4 C12_4 1_555 1_555
C13_4 N5_2 1_555 1_555
H7_4 C13_4 1_555 1_555
C14_4 C10_4 1_555 1_555
C13_4 C14_4 1_555 1_555
Mn3 O1_4 1_555 1_555
F1_3 C2_4 1_555 1_555
F2_4 C2_4 1_555 1_555
F3_3 C2_4 1_555 1_555
O1_4 C1_4 1_555 1_555
O2_4 C1_4 1_555 1_555
N1_4 Mn3 1_555 1_555
C1_4 C2_4 1_555 1_555
C9_4 N1_4 1_555 1_555
H4_4 C9_4 1_555 1_555
H11_4 C18_4 1_555 1_555
H12_4 C19_4 1_555 1_555
C8_4 C9_4 1_555 1_555
C18_4 C19_4 1_555 1_555

#END
