
###############################################################################
#
# This file contains modified crystal structure data generated from the
# MOF subset of the Cambridge Structural Database (CSD) v543 
# hosted by the Cambridge Crystallographic Data Centre (CCDC).
#
# This work is licensed under the Creative Commons
# Attribution-NonCommercial-ShareAlike 4.0 International License.
# To view a copy of this license, visit
# http://creativecommons.org/licenses/by-nc-sa/4.0/
# or send a letter to
# Creative Commons, PO Box 1866, Mountain View, CA 94042, USA.
#
# CIF created using the CSD Python API on 29 September 2022
# The structure has been converted into the P1 space group
# The structure has a 3D framework
# The original CSD entry KEGBUX is in the triclinic crystal system
# The framework has been calculated to contain at least 10.0% void space
# The void calculation uses a probe of radius 1.32A, grid spacing 0.4
# H atom positions have been added when not included in the experimental data
#
###############################################################################

data_KEGBUX
_chemical_formula_moiety         '(C48 H32 O36 Tb4)n'
_symmetry_cell_setting           triclinic
_symmetry_space_group_name_H-M   'P 1'
_symmetry_Int_Tables_number      1
_space_group_name_Hall           'P 1'
loop_
_symmetry_equiv_pos_site_id
_symmetry_equiv_pos_as_xyz
1 x,y,z
_cell_length_a                   12.4232(9)
_cell_length_b                   12.7195(9)
_cell_length_c                   13.6515(10)
_cell_angle_alpha                84.846(2)
_cell_angle_beta                 71.845(2)
_cell_angle_gamma                70.938(2)
_cell_volume                     1937.21
loop_
_atom_site_label
_atom_site_type_symbol
_atom_site_fract_x
_atom_site_fract_y
_atom_site_fract_z
O20 O 0.1020(5) 0.0977(5) 0.1915(4)
Tb6 Tb 0.01177(3) 0.03642(3) 0.79710(3)
O19 O 0.0803(5) 0.9919(5) 0.3259(4)
O24 O 0.1421(4) 0.9125(4) 0.0430(4)
O25 O 0.1419(5) 0.7832(4) 0.2163(4)
O26 O 0.0114(4) 0.7583(4) 0.1507(4)
Tb9 Tb 0.18047(3) 0.26056(3) 0.81755(3)
C15 C 0.2933(6) 0.0249(6) 0.8143(6)
O3 O 0.9197(5) 0.0081(5) 0.6741(4)
O6 O 0.3520(5) 0.0910(4) 0.7914(4)
O7 O 0.1817(4) 0.0608(4) 0.8282(4)
O15 O 0.8372(5) 0.1169(5) 0.3112(4)
O23 O 0.9236(4) 0.1072(4) 0.0863(4)
H11 H 0.856196 0.118914 0.376344
H12 H 0.835934 0.188038 0.274338
C23 C 0.7722(7) 0.6167(7) 0.0479(6)
O13 O 0.8621(5) 0.5768(5) 0.0773(4)
O14 O 0.7008(5) 0.7130(5) 0.0769(5)
Tb7 Tb 0.81953(3) 0.73944(3) 0.18245(3)
C1 C 0.8338(7) 0.8328(7) 0.3986(6)
C2 C 0.8097(6) 0.8230(6) 0.5125(5)
C3 C 0.7365(6) 0.7605(6) 0.5694(6)
H1 H 0.7023 0.7253 0.5363
C4 C 0.7160(6) 0.7522(6) 0.6748(6)
C5 C 0.7638(7) 0.8060(6) 0.7253(6)
H2 H 0.7491 0.7996 0.7963
C6 C 0.8337(7) 0.8696(7) 0.6701(6)
C7 C 0.8559(7) 0.8768(7) 0.5637(6)
H3 H 0.9033 0.9191 0.5264
C8 C 0.8865(7) 0.9293(7) 0.7211(6)
C9 C 0.5285(6) 0.7431(6) 0.7822(5)
C10 C 0.4723(6) 0.8552(6) 0.7727(5)
H4 H 0.5156 0.8986 0.7311
C11 C 0.3505(6) 0.9046(6) 0.8251(5)
C12 C 0.2860(6) 0.8390(6) 0.8886(5)
C13 C 0.3456(6) 0.7270(6) 0.8977(5)
H5 H 0.3037 0.6828 0.9399
C14 C 0.4640(6) 0.6798(6) 0.8465(5)
C16 C 0.1565(7) 0.8867(6) 0.9532(6)
C17 C 0.6192(6) 0.5312(6) 0.8837(5)
C18 C 0.6990(6) 0.4301(6) 0.8433(5)
H6 H 0.6826 0.3899 0.7992
C19 C 0.8059(6) 0.3887(6) 0.8698(5)
C20 C 0.8285(7) 0.4507(6) 0.9354(5)
H7 H 0.8995 0.4242 0.9524
C21 C 0.7470(7) 0.5508(6) 0.9753(6)
C22 C 0.6404(6) 0.5914(6) 0.9508(6)
H8 H 0.5841 0.6583 0.9792
C24 C 0.8898(7) 0.2763(6) 0.8288(6)
O1 O 0.9004(5) 0.8894(5) 0.3542(4)
O2 O 0.7901(5) 0.7816(5) 0.3537(4)
O4 O 0.8980(5) 0.9023(5) 0.8085(4)
O5 O 0.6443(4) 0.6883(4) 0.7290(4)
O8 O 0.0764(4) 0.8928(4) 0.9137(4)
O10 O 0.5156(4) 0.5664(4) 0.8544(4)
O11 O 0.8581(5) 0.2168(4) 0.7837(4)
O12 O 0.9886(4) 0.2417(4) 0.8493(4)
O16 O 0.8940(5) 0.7958(5) 0.0007(4)
O17 O 0.6582(6) 0.6756(6) 0.2914(5)
O18 O 0.9238(6) 0.5713(5) 0.2610(5)
Tb1 Tb 0.98823(3) 0.96358(3) 0.20290(3)
O21 O 0.6480(5) 0.9090(4) 0.2086(4)
O22 O 0.8183(4) 0.9392(4) 0.1718(4)
H9 H 0.592652 0.739778 0.330338
H10 H 0.627816 0.640831 0.247927
H13 H 0.86535 0.549542 0.320441
H14 H 0.963308 0.509827 0.209122
C1_2 C 0.1662(7) 0.1672(7) 0.6014(6)
C2_2 C 0.1903(6) 0.1770(6) 0.4875(5)
C3_2 C 0.2635(6) 0.2395(6) 0.4306(6)
H1_2 H 0.2977 0.2747 0.4637
C4_2 C 0.2840(6) 0.2478(6) 0.3252(6)
C5_2 C 0.2362(7) 0.1940(6) 0.2747(6)
H2_2 H 0.2509 0.2004 0.2037
C6_2 C 0.1663(7) 0.1304(7) 0.3299(6)
C7_2 C 0.1441(7) 0.1232(7) 0.4363(6)
H3_2 H 0.0967 0.0809 0.4736
C8_2 C 0.1135(7) 0.0707(7) 0.2789(6)
C9_2 C 0.4715(6) 0.2569(6) 0.2178(5)
C10_2 C 0.5277(6) 0.1448(6) 0.2273(5)
H4_2 H 0.4844 0.1014 0.2689
C11_2 C 0.6495(6) 0.0954(6) 0.1749(5)
C12_2 C 0.7140(6) 0.1610(6) 0.1114(5)
C13_2 C 0.6544(6) 0.2730(6) 0.1023(5)
H5_2 H 0.6963 0.3172 0.0601
C14_2 C 0.5360(6) 0.3202(6) 0.1535(5)
C16_2 C 0.8435(7) 0.1133(6) 0.0468(6)
C17_2 C 0.3808(6) 0.4688(6) 0.1163(5)
C18_2 C 0.3010(6) 0.5699(6) 0.1567(5)
H6_2 H 0.3174 0.6101 0.2008
C19_2 C 0.1941(6) 0.6113(6) 0.1302(5)
C20_2 C 0.1715(7) 0.5493(6) 0.0646(5)
H7_2 H 0.1005 0.5758 0.0476
C21_2 C 0.2530(7) 0.4492(6) 0.0247(6)
C22_2 C 0.3596(6) 0.4086(6) 0.0492(6)
H8_2 H 0.4159 0.3417 0.0208
C24_2 C 0.1102(7) 0.7237(6) 0.1712(6)
O1_2 O 0.0996(5) 0.1106(5) 0.6458(4)
O2_2 O 0.2099(5) 0.2184(5) 0.6463(4)
O5_2 O 0.3557(4) 0.3117(4) 0.2710(4)
O10_2 O 0.4844(4) 0.4336(4) 0.1456(4)
O16_2 O 0.1060(5) 0.2042(5) 0.9993(4)
O17_2 O 0.3418(6) 0.3244(6) 0.7086(5)
O18_2 O 0.0762(6) 0.4287(5) 0.7390(5)
O27 O 0.1379(5) 0.4232(5) 0.9227(4)
O28 O 0.2992(5) 0.2870(5) 0.9231(5)
H9_2 H 0.407348 0.260222 0.669662
H10_2 H 0.372184 0.359169 0.752073
H13_2 H 0.13465 0.450458 0.679559
H14_2 H 0.0366915 0.490173 0.790878
C23_2 C 0.2278(7) 0.3833(7) 0.9521(6)
O9 O 0.8579(4) 0.0875(4) 0.9570(4)
C15_2 C 0.7067(6) 0.9751(6) 0.1857(6)
O15_2 O 0.1628(5) 0.8831(5) 0.6888(4)
H11_2 H 0.143804 0.881086 0.623656
H12_2 H 0.164066 0.811962 0.725662
H15 H 0.979343 0.790294 0.984487
H16 H 0.885713 0.745859 0.953542
H15_2 H 0.0206565 0.209706 0.0155129
H16_2 H 0.114287 0.254141 0.0464578
loop_
_geom_bond_atom_site_label_1
_geom_bond_atom_site_label_2
_geom_bond_site_symmetry_1
_geom_bond_site_symmetry_2
O6 C15 1_555 1_555
O7 C15 1_555 1_555
Tb6 O7 1_555 1_555
Tb9 O6 1_555 1_555
O7 Tb9 1_555 1_555
O15 H11 1_555 1_555
O15 H12 1_555 1_555
O13 C23 1_555 1_555
O14 C23 1_555 1_555
Tb7 O13 1_555 1_555
O14 Tb7 1_555 1_555
C1 C2 1_555 1_555
C2 C3 1_555 1_555
C3 H1 1_555 1_555
C4 C3 1_555 1_555
C5 C4 1_555 1_555
H2 C5 1_555 1_555
C6 C5 1_555 1_555
C7 C2 1_555 1_555
H3 C7 1_555 1_555
C8 C6 1_555 1_555
C9 C10 1_555 1_555
C10 H4 1_555 1_555
C11 C10 1_555 1_555
C12 C11 1_555 1_555
C13 C12 1_555 1_555
H5 C13 1_555 1_555
C14 C9 1_555 1_555
C16 C12 1_555 1_555
C17 C18 1_555 1_555
C18 H6 1_555 1_555
C19 C18 1_555 1_555
C20 C19 1_555 1_555
H7 C20 1_555 1_555
C21 C20 1_555 1_555
C22 C17 1_555 1_555
H8 C22 1_555 1_555
C24 C19 1_555 1_555
O1 C1 1_555 1_555
O2 C1 1_555 1_555
O4 C8 1_555 1_555
O5 C4 1_555 1_555
O8 C16 1_555 1_555
O10 C14 1_555 1_555
O11 C24 1_555 1_555
O12 C24 1_555 1_555
O16 Tb7 1_555 1_555
O17 Tb7 1_555 1_555
O18 Tb7 1_555 1_555
Tb1 O1 1_555 1_555
Tb7 O2 1_555 1_555
O21 Tb7 1_555 1_555
O22 Tb1 1_555 1_555
C6 C7 1_555 1_555
C9 O5 1_555 1_555
C13 C14 1_555 1_555
C17 O10 1_555 1_555
C21 C22 1_555 1_555
Tb7 O22 1_555 1_555
O17 H9 1_555 1_555
O17 H10 1_555 1_555
O18 H13 1_555 1_555
O18 H14 1_555 1_555
C1_2 C2_2 1_555 1_555
C2_2 C3_2 1_555 1_555
C3_2 H1_2 1_555 1_555
C4_2 C3_2 1_555 1_555
C5_2 C4_2 1_555 1_555
H2_2 C5_2 1_555 1_555
C6_2 C5_2 1_555 1_555
C7_2 C2_2 1_555 1_555
H3_2 C7_2 1_555 1_555
C8_2 C6_2 1_555 1_555
C9_2 C10_2 1_555 1_555
C10_2 H4_2 1_555 1_555
C11_2 C10_2 1_555 1_555
C12_2 C11_2 1_555 1_555
C13_2 C12_2 1_555 1_555
H5_2 C13_2 1_555 1_555
C14_2 C9_2 1_555 1_555
C16_2 C12_2 1_555 1_555
C17_2 C18_2 1_555 1_555
C18_2 H6_2 1_555 1_555
C19_2 C18_2 1_555 1_555
C20_2 C19_2 1_555 1_555
H7_2 C20_2 1_555 1_555
C21_2 C20_2 1_555 1_555
C22_2 C17_2 1_555 1_555
H8_2 C22_2 1_555 1_555
C24_2 C19_2 1_555 1_555
O1_2 C1_2 1_555 1_555
O2_2 C1_2 1_555 1_555
O20 C8_2 1_555 1_555
O5_2 C4_2 1_555 1_555
O23 C16_2 1_555 1_555
O10_2 C14_2 1_555 1_555
O25 C24_2 1_555 1_555
O26 C24_2 1_555 1_555
O16_2 Tb9 1_555 1_555
O17_2 Tb9 1_555 1_555
O18_2 Tb9 1_555 1_555
Tb6 O1_2 1_555 1_555
Tb9 O2_2 1_555 1_555
O27 Tb9 1_555 1_555
O28 Tb9 1_555 1_555
C6_2 C7_2 1_555 1_555
C9_2 O5_2 1_555 1_555
C13_2 C14_2 1_555 1_555
C17_2 O10_2 1_555 1_555
C21_2 C22_2 1_555 1_555
O17_2 H9_2 1_555 1_555
O17_2 H10_2 1_555 1_555
O18_2 H13_2 1_555 1_555
O18_2 H14_2 1_555 1_555
O27 C23_2 1_555 1_555
O28 C23_2 1_555 1_555
O21 C15_2 1_555 1_555
O22 C15_2 1_555 1_555
O15_2 H11_2 1_555 1_555
O15_2 H12_2 1_555 1_555

#END
