
###############################################################################
#
# This file contains modified crystal structure data generated from the
# MOF subset of the Cambridge Structural Database (CSD) v543 
# hosted by the Cambridge Crystallographic Data Centre (CCDC).
#
# This work is licensed under the Creative Commons
# Attribution-NonCommercial-ShareAlike 4.0 International License.
# To view a copy of this license, visit
# http://creativecommons.org/licenses/by-nc-sa/4.0/
# or send a letter to
# Creative Commons, PO Box 1866, Mountain View, CA 94042, USA.
#
# CIF created using the CSD Python API on 29 September 2022
# The structure has been converted into the P1 space group
# The structure has a 3D framework
# The original CSD entry KEJBOQ is in the orthorhombic crystal system
# The framework has been calculated to contain at least 10.0% void space
# The void calculation uses a probe of radius 1.32A, grid spacing 0.4
# H atom positions have been added when not included in the experimental data
#
###############################################################################

data_KEJBOQ
_chemical_formula_moiety         '(C112 H104 Cd8 N16 O40)n'
_symmetry_cell_setting           triclinic
_symmetry_space_group_name_H-M   'P 1'
_symmetry_Int_Tables_number      1
_space_group_name_Hall           'P 1'
loop_
_symmetry_equiv_pos_site_id
_symmetry_equiv_pos_as_xyz
1 x,y,z
_cell_length_a                   12.691(1)
_cell_length_b                   15.545(1)
_cell_length_c                   18.342(1)
_cell_angle_alpha                90
_cell_angle_beta                 90
_cell_angle_gamma                90
_cell_volume                     3618.54
loop_
_atom_site_label
_atom_site_type_symbol
_atom_site_fract_x
_atom_site_fract_y
_atom_site_fract_z
O4 O 0.6770(3) 0.1572(3) 0.1049(2)
O5 O 0.6883(3) 0.2974(3) 0.1216(2)
C9 C 0.6479(4) 0.2331(4) 0.0919(3)
C10 C 0.5634(4) 0.2481(4) 0.0358(3)
C11 C 0.5434(5) 0.3297(4) 0.0088(3)
C14 C 0.5047(4) 0.1789(4) 0.0085(3)
Cd3 Cd 0.81714(3) 0.21257(2) 0.18312(2)
H4 H 0.516722 0.114005 0.0292584
H8 H 0.58449 0.385432 0.0308393
Cd1 Cd 0.31714(3) 0.28743(2) 0.81688(2)
O1 O 0.4945(3) 0.3506(3) 0.7606(3)
O2 O 0.3623(3) 0.4284(3) 0.8033(2)
O3 O 0.1990(3) 0.3005(3) 0.7205(2)
N1 N 0.6142(3) 0.6576(3) 0.7273(3)
N2 N 0.4161(3) 0.2730(3) 0.9255(3)
C1 C 0.4512(4) 0.4215(4) 0.7755(3)
C2 C 0.5111(4) 0.5043(4) 0.7592(3)
C3 C 0.4740(4) 0.5811(4) 0.7869(3)
C4 C 0.5277(5) 0.6564(4) 0.7690(3)
C5 C 0.6499(4) 0.5821(4) 0.7021(3)
C6 C 0.6014(4) 0.5044(3) 0.7165(3)
C7 C 0.1912(6) 0.2398(6) 0.6612(4)
C8 C 0.2724(7) 0.2592(7) 0.6057(5)
C12 C 0.4708(5) 0.3392(4) 0.9537(3)
C13 C 0.4309(5) 0.1950(3) 0.9544(4)
Cd2 Cd 0.68286(3) 0.78743(2) 0.68312(2)
O6 O 0.1770(3) 0.3428(3) 0.8951(2)
O7 O 0.1883(3) 0.2026(3) 0.8784(2)
N3 N 0.3858(3) 0.1576(3) 0.7727(3)
H1 H 0.113363 0.244428 0.636519
H2 H 0.203183 0.174908 0.681976
H3 H 0.720723 0.582016 0.668578
H5 H 0.456964 0.403366 0.931882
H6 H 0.404622 0.582811 0.821809
H7 H 0.497805 0.717224 0.789973
H9 H 0.382957 0.141791 0.934625
H10 H 0.350278 0.254548 0.630315
H11 H 0.266227 0.213263 0.561078
H12 H 0.260459 0.324068 0.584858
H13 H 0.633273 0.444584 0.69485
Cd1_2 Cd 0.18286(3) 0.71257(2) 0.31688(2)
O1_2 O 0.0055(3) 0.6494(3) 0.2606(3)
O2_2 O 0.1377(3) 0.5716(3) 0.3033(2)
O3_2 O 0.3010(3) 0.6995(3) 0.2205(2)
N2_2 N 0.0839(3) 0.7270(3) 0.4255(3)
C1_2 C 0.0488(4) 0.5785(4) 0.2755(3)
C3_2 C 0.0260(4) 0.4189(4) 0.2869(3)
C7_2 C 0.3088(6) 0.7602(6) 0.1612(4)
C8_2 C 0.2276(7) 0.7408(7) 0.1057(5)
C12_2 C 0.0292(5) 0.6608(4) 0.4537(3)
C13_2 C 0.0691(5) 0.8050(3) 0.4544(4)
O6_2 O 0.3230(3) 0.6572(3) 0.3951(2)
O7_2 O 0.3117(3) 0.7974(3) 0.3784(2)
N3_2 N 0.1142(3) 0.8424(3) 0.2727(3)
H1_2 H 0.386637 0.755572 0.136519
H2_2 H 0.296817 0.825092 0.181976
H5_2 H 0.0430355 0.596634 0.431882
H6_2 H 0.0953777 0.417189 0.321809
H7_2 H 0.00219508 0.282776 0.289973
H9_2 H 0.117043 0.858209 0.434625
H10_2 H 0.149722 0.745452 0.130315
H11_2 H 0.233773 0.786737 0.0610782
H12_2 H 0.239541 0.675932 0.0848578
O4_2 O 0.8230(3) 0.8428(3) 0.6049(2)
O5_2 O 0.8117(3) 0.7026(3) 0.6216(2)
N1_2 N 0.8858(3) 0.3424(3) 0.2273(3)
C2_2 C 0.9889(4) 0.4957(4) 0.2592(3)
C4_2 C 0.9723(5) 0.3436(4) 0.2690(3)
C5_2 C 0.8501(4) 0.4179(4) 0.2021(3)
C6_2 C 0.8986(4) 0.4956(3) 0.2165(3)
C9_2 C 0.8521(4) 0.7669(4) 0.5919(3)
C10_2 C 0.9366(4) 0.7519(4) 0.5358(3)
C11_2 C 0.9566(5) 0.6703(4) 0.5088(3)
C14_2 C 0.9953(4) 0.8211(4) 0.5085(3)
H3_2 H 0.779277 0.417984 0.168578
H4_2 H 0.983278 0.885995 0.529258
H8_2 H 0.91551 0.614568 0.530839
H13_2 H 0.866727 0.555416 0.19485
C9_3 C 0.1479(4) 0.2669(4) 0.9081(3)
C10_3 C 0.0634(4) 0.2519(4) 0.9642(3)
C11_3 C 0.0434(5) 0.1703(4) 0.9912(3)
C14_3 C 0.0047(4) 0.3211(4) 0.9915(3)
H4_3 H 0.0167221 0.385995 0.970742
H8_3 H 0.0844897 0.114568 0.969161
C2_3 C 0.0111(4) 0.9957(4) 0.2408(3)
C4_3 C 0.0277(5) 0.8436(4) 0.2310(3)
C5_3 C 0.1499(4) 0.9179(4) 0.2979(3)
C6_3 C 0.1014(4) 0.9956(3) 0.2835(3)
H3_3 H 0.220723 0.917984 0.331422
O1_3 O 0.9945(3) 0.1494(3) 0.2394(3)
O2_3 O 0.8623(3) 0.0716(3) 0.1967(2)
O3_3 O 0.6990(3) 0.1995(3) 0.2795(2)
N2_3 N 0.9161(3) 0.2270(3) 0.0745(3)
C1_3 C 0.9512(4) 0.0785(4) 0.2245(3)
C7_3 C 0.6912(6) 0.2602(6) 0.3388(4)
C8_3 C 0.7724(7) 0.2408(7) 0.3943(5)
C12_3 C 0.9708(5) 0.1608(4) 0.0463(3)
C13_3 C 0.9309(5) 0.3050(3) 0.0456(4)
H1_3 H 0.613363 0.255572 0.363481
H2_3 H 0.703183 0.325092 0.318024
H5_3 H 0.956964 0.0966337 0.0681184
H9_3 H 0.882957 0.358209 0.0653749
H10_3 H 0.850278 0.245452 0.369685
H11_3 H 0.766227 0.286737 0.438922
H12_3 H 0.760459 0.175932 0.415142
C2_4 C 0.4889(4) 0.0043(4) 0.7408(3)
C3_3 C 0.5260(4) 0.0811(4) 0.7131(3)
C4_4 C 0.4723(5) 0.1564(4) 0.7310(3)
C5_4 C 0.3501(4) 0.0821(4) 0.7979(3)
C6_4 C 0.3986(4) 0.0044(3) 0.7835(3)
H3_4 H 0.279277 0.0820164 0.831422
H6_3 H 0.595378 0.0828108 0.678191
H7_3 H 0.502195 0.217224 0.710027
O1_4 O 0.5055(3) 0.8506(3) 0.7394(3)
O2_4 O 0.6377(3) 0.9284(3) 0.6967(2)
O3_4 O 0.8010(3) 0.8005(3) 0.7795(2)
N2_4 N 0.5839(3) 0.7730(3) 0.5745(3)
C1_4 C 0.5488(4) 0.9215(4) 0.7245(3)
C7_4 C 0.8088(6) 0.7398(6) 0.8388(4)
C8_4 C 0.7276(7) 0.7592(7) 0.8943(5)
C9_4 C 0.3521(4) 0.7331(4) 0.4081(3)
C10_4 C 0.4366(4) 0.7481(4) 0.4642(3)
C11_4 C 0.4566(5) 0.8297(4) 0.4912(3)
C12_4 C 0.5292(5) 0.8392(4) 0.5463(3)
C13_4 C 0.5691(5) 0.6950(3) 0.5456(4)
C14_4 C 0.4953(4) 0.6789(4) 0.4915(3)
H1_4 H 0.886637 0.744428 0.863481
H2_4 H 0.796817 0.674908 0.818024
H4_4 H 0.483278 0.614005 0.470742
H5_4 H 0.543036 0.903366 0.568118
H8_4 H 0.41551 0.885432 0.469161
H9_4 H 0.617043 0.641791 0.565375
H10_4 H 0.649722 0.754548 0.869685
H11_4 H 0.733773 0.713263 0.938922
H12_4 H 0.739541 0.824068 0.915142
H13_3 H 0.366727 0.944584 0.80515
H13_4 H 0.133273 0.0554164 0.30515
C3_4 C 0.9740(4) 0.9189(4) 0.2131(3)
H6_4 H 0.904622 0.917189 0.178191
H7_4 H 0.997805 0.782776 0.210027
Cd1_3 Cd 0.68286(3) 0.71257(2) 0.18312(2)
O1_5 O 0.5055(3) 0.6494(3) 0.2394(3)
O2_5 O 0.6377(3) 0.5716(3) 0.1967(2)
O3_5 O 0.8010(3) 0.6995(3) 0.2795(2)
N1_3 N 0.3858(3) 0.3424(3) 0.2727(3)
N2_5 N 0.5839(3) 0.7270(3) 0.0745(3)
C1_5 C 0.5488(4) 0.5785(4) 0.2245(3)
C2_5 C 0.4889(4) 0.4957(4) 0.2408(3)
C3_5 C 0.5260(4) 0.4189(4) 0.2131(3)
C4_5 C 0.4723(5) 0.3436(4) 0.2310(3)
C5_5 C 0.3501(4) 0.4179(4) 0.2979(3)
C6_5 C 0.3986(4) 0.4956(3) 0.2835(3)
C7_5 C 0.8088(6) 0.7602(6) 0.3388(4)
C8_5 C 0.7276(7) 0.7408(7) 0.3943(5)
C12_5 C 0.5292(5) 0.6608(4) 0.0463(3)
C13_5 C 0.5691(5) 0.8050(3) 0.0456(4)
Cd2_2 Cd 0.31714(3) 0.21257(2) 0.31688(2)
O6_3 O 0.8230(3) 0.6572(3) 0.1049(2)
O7_3 O 0.8117(3) 0.7974(3) 0.1216(2)
N3_3 N 0.6142(3) 0.8424(3) 0.2273(3)
H1_5 H 0.886637 0.755572 0.363481
H2_5 H 0.796817 0.825092 0.318024
H3_5 H 0.279277 0.417984 0.331422
H5_5 H 0.543036 0.596634 0.0681184
H6_5 H 0.595378 0.417189 0.178191
H7_5 H 0.502195 0.282776 0.210027
H9_5 H 0.617043 0.858209 0.0653749
H10_5 H 0.649722 0.745452 0.369685
H11_5 H 0.733773 0.786737 0.438922
H12_5 H 0.739541 0.675932 0.415142
H13_5 H 0.366727 0.555416 0.30515
O4_3 O 0.3230(3) 0.8428(3) 0.8951(2)
O5_3 O 0.3117(3) 0.7026(3) 0.8784(2)
C9_5 C 0.3521(4) 0.7669(4) 0.9081(3)
C10_5 C 0.4366(4) 0.7519(4) 0.9642(3)
C11_5 C 0.4566(5) 0.6703(4) 0.9912(3)
C14_5 C 0.4953(4) 0.8211(4) 0.9915(3)
Cd3_2 Cd 0.18286(3) 0.78743(2) 0.81688(2)
H4_5 H 0.483278 0.885995 0.970742
H8_5 H 0.41551 0.614568 0.969161
O4_4 O 0.1770(3) 0.1572(3) 0.3951(2)
O5_4 O 0.1883(3) 0.2974(3) 0.3784(2)
N1_4 N 0.1142(3) 0.6576(3) 0.7727(3)
C2_6 C 0.0111(4) 0.5043(4) 0.7408(3)
C4_6 C 0.0277(5) 0.6564(4) 0.7310(3)
C5_6 C 0.1499(4) 0.5821(4) 0.7979(3)
C6_6 C 0.1014(4) 0.5044(3) 0.7835(3)
C9_6 C 0.1479(4) 0.2331(4) 0.4081(3)
C10_6 C 0.0634(4) 0.2481(4) 0.4642(3)
C11_6 C 0.0434(5) 0.3297(4) 0.4912(3)
C14_6 C 0.0047(4) 0.1789(4) 0.4915(3)
H3_6 H 0.220723 0.582016 0.831422
H4_6 H 0.0167221 0.114005 0.470742
H8_6 H 0.0844897 0.385432 0.469161
H13_6 H 0.133273 0.444584 0.80515
Cd1_4 Cd 0.81714(3) 0.28743(2) 0.68312(2)
O1_6 O 0.9945(3) 0.3506(3) 0.7394(3)
O2_6 O 0.8623(3) 0.4284(3) 0.6967(2)
O3_6 O 0.6990(3) 0.3005(3) 0.7795(2)
N2_6 N 0.9161(3) 0.2730(3) 0.5745(3)
C1_6 C 0.9512(4) 0.4215(4) 0.7245(3)
C3_6 C 0.9740(4) 0.5811(4) 0.7131(3)
C7_6 C 0.6912(6) 0.2398(6) 0.8388(4)
C8_6 C 0.7724(7) 0.2592(7) 0.8943(5)
C12_6 C 0.9708(5) 0.3392(4) 0.5463(3)
C13_6 C 0.9309(5) 0.1950(3) 0.5456(4)
O6_4 O 0.6770(3) 0.3428(3) 0.6049(2)
O7_4 O 0.6883(3) 0.2026(3) 0.6216(2)
N3_4 N 0.8858(3) 0.1576(3) 0.7273(3)
H1_6 H 0.613363 0.244428 0.863481
H2_6 H 0.703183 0.174908 0.818024
H5_6 H 0.956964 0.403366 0.568118
H6_6 H 0.904622 0.582811 0.678191
H7_6 H 0.997805 0.717224 0.710027
H9_6 H 0.882957 0.141791 0.565375
H10_6 H 0.850278 0.254548 0.869685
H11_6 H 0.766227 0.213263 0.938922
H12_6 H 0.760459 0.324068 0.915142
O1_7 O 0.0055(3) 0.8506(3) 0.7606(3)
O2_7 O 0.1377(3) 0.9284(3) 0.8033(2)
O3_7 O 0.3010(3) 0.8005(3) 0.7205(2)
N2_7 N 0.0839(3) 0.7730(3) 0.9255(3)
C1_7 C 0.0488(4) 0.9215(4) 0.7755(3)
C7_7 C 0.3088(6) 0.7398(6) 0.6612(4)
C8_7 C 0.2276(7) 0.7592(7) 0.6057(5)
C12_7 C 0.0292(5) 0.8392(4) 0.9537(3)
C13_7 C 0.0691(5) 0.6950(3) 0.9544(4)
H1_7 H 0.386637 0.744428 0.636519
H2_7 H 0.296817 0.674908 0.681976
H5_7 H 0.0430355 0.903366 0.931882
H9_7 H 0.117043 0.641791 0.934625
H10_7 H 0.149722 0.754548 0.630315
H11_7 H 0.233773 0.713263 0.561078
H12_7 H 0.239541 0.824068 0.584858
C2_7 C 0.9889(4) 0.0043(4) 0.7592(3)
C4_7 C 0.9723(5) 0.1564(4) 0.7690(3)
C5_7 C 0.8501(4) 0.0821(4) 0.7021(3)
C6_7 C 0.8986(4) 0.0044(3) 0.7165(3)
H3_7 H 0.779277 0.0820164 0.668578
C9_7 C 0.8521(4) 0.7331(4) 0.0919(3)
C10_7 C 0.9366(4) 0.7481(4) 0.0358(3)
C11_7 C 0.9566(5) 0.8297(4) 0.0088(3)
C14_7 C 0.9953(4) 0.6789(4) 0.0085(3)
H4_7 H 0.983278 0.614005 0.0292584
H8_7 H 0.91551 0.885432 0.0308393
O1_8 O 0.4945(3) 0.1494(3) 0.2606(3)
O2_8 O 0.3623(3) 0.0716(3) 0.3033(2)
O3_8 O 0.1990(3) 0.1995(3) 0.2205(2)
N2_8 N 0.4161(3) 0.2270(3) 0.4255(3)
C1_8 C 0.4512(4) 0.0785(4) 0.2755(3)
C7_8 C 0.1912(6) 0.2602(6) 0.1612(4)
C8_8 C 0.2724(7) 0.2408(7) 0.1057(5)
C9_8 C 0.6479(4) 0.2669(4) 0.5919(3)
C10_8 C 0.5634(4) 0.2519(4) 0.5358(3)
C11_8 C 0.5434(5) 0.1703(4) 0.5088(3)
C12_8 C 0.4708(5) 0.1608(4) 0.4537(3)
C13_8 C 0.4309(5) 0.3050(3) 0.4544(4)
C14_8 C 0.5047(4) 0.3211(4) 0.5085(3)
H1_8 H 0.113363 0.255572 0.136519
H2_8 H 0.203183 0.325092 0.181976
H4_8 H 0.516722 0.385995 0.529258
H5_8 H 0.456964 0.0966337 0.431882
H8_8 H 0.58449 0.114568 0.530839
H9_8 H 0.382957 0.358209 0.434625
H10_8 H 0.350278 0.245452 0.130315
H11_8 H 0.266227 0.286737 0.0610782
H12_8 H 0.260459 0.175932 0.0848578
H13_7 H 0.633273 0.0554164 0.19485
C2_8 C 0.5111(4) 0.9957(4) 0.2592(3)
C3_7 C 0.4740(4) 0.9189(4) 0.2869(3)
C4_8 C 0.5277(5) 0.8436(4) 0.2690(3)
C5_8 C 0.6499(4) 0.9179(4) 0.2021(3)
C6_8 C 0.6014(4) 0.9956(3) 0.2165(3)
H3_8 H 0.720723 0.917984 0.168578
H6_7 H 0.404622 0.917189 0.321809
H7_7 H 0.497805 0.782776 0.289973
C3_8 C 0.0260(4) 0.0811(4) 0.7869(3)
H6_8 H 0.0953777 0.0828108 0.821809
H7_8 H 0.00219508 0.217224 0.789973
H13_8 H 0.866727 0.944584 0.69485
loop_
_geom_bond_atom_site_label_1
_geom_bond_atom_site_label_2
_geom_bond_site_symmetry_1
_geom_bond_site_symmetry_2
O4 C9 1_555 1_555
O5 C9 1_555 1_555
C9 C10 1_555 1_555
C10 C11 1_555 1_555
C14 C10 1_555 1_555
Cd3 O4 1_555 1_555
O5 Cd3 1_555 1_555
C14 H4 1_555 1_555
C11 H8 1_555 1_555
Cd1 O1 1_555 1_555
O1 C1 1_555 1_555
O2 Cd1 1_555 1_555
O3 Cd1 1_555 1_555
N1 C4 1_555 1_555
N2 Cd1 1_555 1_555
C1 O2 1_555 1_555
C2 C1 1_555 1_555
C3 C2 1_555 1_555
C4 C3 1_555 1_555
C5 N1 1_555 1_555
C6 C2 1_555 1_555
C7 O3 1_555 1_555
C8 C7 1_555 1_555
C12 N2 1_555 1_555
C13 N2 1_555 1_555
Cd2 N1 1_555 1_555
O6 Cd1 1_555 1_555
O7 Cd1 1_555 1_555
N3 Cd1 1_555 1_555
C5 C6 1_555 1_555
C7 H1 1_555 1_555
C7 H2 1_555 1_555
C5 H3 1_555 1_555
C12 H5 1_555 1_555
C3 H6 1_555 1_555
C4 H7 1_555 1_555
C13 H9 1_555 1_555
C8 H10 1_555 1_555
C8 H11 1_555 1_555
C8 H12 1_555 1_555
C6 H13 1_555 1_555
Cd1_2 O1_2 1_555 1_555
O1_2 C1_2 1_555 1_555
O2_2 Cd1_2 1_555 1_555
O3_2 Cd1_2 1_555 1_555
N2_2 Cd1_2 1_555 1_555
C1_2 O2_2 1_555 1_555
C7_2 O3_2 1_555 1_555
C8_2 C7_2 1_555 1_555
C12_2 N2_2 1_555 1_555
C13_2 N2_2 1_555 1_555
O6_2 Cd1_2 1_555 1_555
O7_2 Cd1_2 1_555 1_555
N3_2 Cd1_2 1_555 1_555
C7_2 H1_2 1_555 1_555
C7_2 H2_2 1_555 1_555
C12_2 H5_2 1_555 1_555
C3_2 H6_2 1_555 1_555
C13_2 H9_2 1_555 1_555
C8_2 H10_2 1_555 1_555
C8_2 H11_2 1_555 1_555
C8_2 H12_2 1_555 1_555
O4_2 C9_2 1_555 1_555
O5_2 C9_2 1_555 1_555
N1_2 C4_2 1_555 1_555
C5_2 N1_2 1_555 1_555
C6_2 C2_2 1_555 1_555
C9_2 C10_2 1_555 1_555
C10_2 C11_2 1_555 1_555
C14_2 C10_2 1_555 1_555
Cd3 N1_2 1_555 1_555
Cd2 O4_2 1_555 1_555
O5_2 Cd2 1_555 1_555
C5_2 C6_2 1_555 1_555
C5_2 H3_2 1_555 1_555
C14_2 H4_2 1_555 1_555
C11_2 H8_2 1_555 1_555
C6_2 H13_2 1_555 1_555
O6 C9_3 1_555 1_555
O7 C9_3 1_555 1_555
C9_3 C10_3 1_555 1_555
C10_3 C11_3 1_555 1_555
C14_3 C10_3 1_555 1_555
C14_3 H4_3 1_555 1_555
C11_3 H8_3 1_555 1_555
N3_2 C4_3 1_555 1_555
C5_3 N3_2 1_555 1_555
C6_3 C2_3 1_555 1_555
C5_3 C6_3 1_555 1_555
C5_3 H3_3 1_555 1_555
Cd3 O1_3 1_555 1_555
O1_3 C1_3 1_555 1_555
O2_3 Cd3 1_555 1_555
O3_3 Cd3 1_555 1_555
N2_3 Cd3 1_555 1_555
C1_3 O2_3 1_555 1_555
C7_3 O3_3 1_555 1_555
C8_3 C7_3 1_555 1_555
C12_3 N2_3 1_555 1_555
C13_3 N2_3 1_555 1_555
C7_3 H1_3 1_555 1_555
C7_3 H2_3 1_555 1_555
C12_3 H5_3 1_555 1_555
C13_3 H9_3 1_555 1_555
C8_3 H10_3 1_555 1_555
C8_3 H11_3 1_555 1_555
C8_3 H12_3 1_555 1_555
N3 C4_4 1_555 1_555
C3_3 C2_4 1_555 1_555
C4_4 C3_3 1_555 1_555
C5_4 N3 1_555 1_555
C6_4 C2_4 1_555 1_555
C5_4 C6_4 1_555 1_555
C5_4 H3_4 1_555 1_555
C3_3 H6_3 1_555 1_555
C4_4 H7_3 1_555 1_555
Cd2 O1_4 1_555 1_555
O1_4 C1_4 1_555 1_555
O2_4 Cd2 1_555 1_555
O3_4 Cd2 1_555 1_555
O6_2 C9_4 1_555 1_555
O7_2 C9_4 1_555 1_555
N2_4 Cd2 1_555 1_555
C1_4 O2_4 1_555 1_555
C7_4 O3_4 1_555 1_555
C8_4 C7_4 1_555 1_555
C9_4 C10_4 1_555 1_555
C10_4 C11_4 1_555 1_555
C11_4 C12_4 1_555 1_555
C12_4 N2_4 1_555 1_555
C13_4 N2_4 1_555 1_555
C14_4 C10_4 1_555 1_555
C13_4 C14_4 1_555 1_555
C7_4 H1_4 1_555 1_555
C7_4 H2_4 1_555 1_555
C14_4 H4_4 1_555 1_555
C12_4 H5_4 1_555 1_555
C11_4 H8_4 1_555 1_555
C13_4 H9_4 1_555 1_555
C8_4 H10_4 1_555 1_555
C8_4 H11_4 1_555 1_555
C8_4 H12_4 1_555 1_555
C3_4 H6_4 1_555 1_555
Cd1_3 O1_5 1_555 1_555
O1_5 C1_5 1_555 1_555
O2_5 Cd1_3 1_555 1_555
O3_5 Cd1_3 1_555 1_555
N1_3 C4_5 1_555 1_555
N2_5 Cd1_3 1_555 1_555
C1_5 O2_5 1_555 1_555
C2_5 C1_5 1_555 1_555
C3_5 C2_5 1_555 1_555
C4_5 C3_5 1_555 1_555
C5_5 N1_3 1_555 1_555
C6_5 C2_5 1_555 1_555
C7_5 O3_5 1_555 1_555
C8_5 C7_5 1_555 1_555
C12_5 N2_5 1_555 1_555
C13_5 N2_5 1_555 1_555
Cd2_2 N1_3 1_555 1_555
O6_3 Cd1_3 1_555 1_555
O7_3 Cd1_3 1_555 1_555
N3_3 Cd1_3 1_555 1_555
C5_5 C6_5 1_555 1_555
C7_5 H1_5 1_555 1_555
C7_5 H2_5 1_555 1_555
C5_5 H3_5 1_555 1_555
C12_5 H5_5 1_555 1_555
C3_5 H6_5 1_555 1_555
C4_5 H7_5 1_555 1_555
C13_5 H9_5 1_555 1_555
C8_5 H10_5 1_555 1_555
C8_5 H11_5 1_555 1_555
C8_5 H12_5 1_555 1_555
C6_5 H13_5 1_555 1_555
O4_3 C9_5 1_555 1_555
O5_3 C9_5 1_555 1_555
C9_5 C10_5 1_555 1_555
C10_5 C11_5 1_555 1_555
C14_5 C10_5 1_555 1_555
Cd3_2 O4_3 1_555 1_555
O5_3 Cd3_2 1_555 1_555
C14_5 H4_5 1_555 1_555
C11_5 H8_5 1_555 1_555
O4_4 C9_6 1_555 1_555
O5_4 C9_6 1_555 1_555
N1_4 C4_6 1_555 1_555
C5_6 N1_4 1_555 1_555
C6_6 C2_6 1_555 1_555
C9_6 C10_6 1_555 1_555
C10_6 C11_6 1_555 1_555
C14_6 C10_6 1_555 1_555
Cd3_2 N1_4 1_555 1_555
Cd2_2 O4_4 1_555 1_555
O5_4 Cd2_2 1_555 1_555
C5_6 C6_6 1_555 1_555
C5_6 H3_6 1_555 1_555
C14_6 H4_6 1_555 1_555
C11_6 H8_6 1_555 1_555
C6_6 H13_6 1_555 1_555
Cd1_4 O1_6 1_555 1_555
O1_6 C1_6 1_555 1_555
O2_6 Cd1_4 1_555 1_555
O3_6 Cd1_4 1_555 1_555
N2_6 Cd1_4 1_555 1_555
C1_6 O2_6 1_555 1_555
C7_6 O3_6 1_555 1_555
C8_6 C7_6 1_555 1_555
C12_6 N2_6 1_555 1_555
C13_6 N2_6 1_555 1_555
O6_4 Cd1_4 1_555 1_555
O7_4 Cd1_4 1_555 1_555
N3_4 Cd1_4 1_555 1_555
C7_6 H1_6 1_555 1_555
C7_6 H2_6 1_555 1_555
C12_6 H5_6 1_555 1_555
C3_6 H6_6 1_555 1_555
C13_6 H9_6 1_555 1_555
C8_6 H10_6 1_555 1_555
C8_6 H11_6 1_555 1_555
C8_6 H12_6 1_555 1_555
Cd3_2 O1_7 1_555 1_555
O1_7 C1_7 1_555 1_555
O2_7 Cd3_2 1_555 1_555
O3_7 Cd3_2 1_555 1_555
N2_7 Cd3_2 1_555 1_555
C1_7 O2_7 1_555 1_555
C7_7 O3_7 1_555 1_555
C8_7 C7_7 1_555 1_555
C12_7 N2_7 1_555 1_555
C13_7 N2_7 1_555 1_555
C7_7 H1_7 1_555 1_555
C7_7 H2_7 1_555 1_555
C12_7 H5_7 1_555 1_555
C13_7 H9_7 1_555 1_555
C8_7 H10_7 1_555 1_555
C8_7 H11_7 1_555 1_555
C8_7 H12_7 1_555 1_555
N3_4 C4_7 1_555 1_555
C5_7 N3_4 1_555 1_555
C6_7 C2_7 1_555 1_555
C5_7 C6_7 1_555 1_555
C5_7 H3_7 1_555 1_555
O6_3 C9_7 1_555 1_555
O7_3 C9_7 1_555 1_555
C9_7 C10_7 1_555 1_555
C10_7 C11_7 1_555 1_555
C14_7 C10_7 1_555 1_555
C14_7 H4_7 1_555 1_555
C11_7 H8_7 1_555 1_555
Cd2_2 O1_8 1_555 1_555
O1_8 C1_8 1_555 1_555
O2_8 Cd2_2 1_555 1_555
O3_8 Cd2_2 1_555 1_555
O6_4 C9_8 1_555 1_555
O7_4 C9_8 1_555 1_555
N2_8 Cd2_2 1_555 1_555
C1_8 O2_8 1_555 1_555
C7_8 O3_8 1_555 1_555
C8_8 C7_8 1_555 1_555
C9_8 C10_8 1_555 1_555
C10_8 C11_8 1_555 1_555
C11_8 C12_8 1_555 1_555
C12_8 N2_8 1_555 1_555
C13_8 N2_8 1_555 1_555
C14_8 C10_8 1_555 1_555
C13_8 C14_8 1_555 1_555
C7_8 H1_8 1_555 1_555
C7_8 H2_8 1_555 1_555
C14_8 H4_8 1_555 1_555
C12_8 H5_8 1_555 1_555
C11_8 H8_8 1_555 1_555
C13_8 H9_8 1_555 1_555
C8_8 H10_8 1_555 1_555
C8_8 H11_8 1_555 1_555
C8_8 H12_8 1_555 1_555
N3_3 C4_8 1_555 1_555
C3_7 C2_8 1_555 1_555
C4_8 C3_7 1_555 1_555
C5_8 N3_3 1_555 1_555
C6_8 C2_8 1_555 1_555
C5_8 C6_8 1_555 1_555
C5_8 H3_8 1_555 1_555
C3_7 H6_7 1_555 1_555
C4_8 H7_7 1_555 1_555
C3_8 H6_8 1_555 1_555

#END
