
###############################################################################
#
# This file contains modified crystal structure data generated from the
# MOF subset of the Cambridge Structural Database (CSD) v543 
# hosted by the Cambridge Crystallographic Data Centre (CCDC).
#
# This work is licensed under the Creative Commons
# Attribution-NonCommercial-ShareAlike 4.0 International License.
# To view a copy of this license, visit
# http://creativecommons.org/licenses/by-nc-sa/4.0/
# or send a letter to
# Creative Commons, PO Box 1866, Mountain View, CA 94042, USA.
#
# CIF created using the CSD Python API on 29 September 2022
# The structure has been converted into the P1 space group
# The structure has a 3D framework
# The original CSD entry KEKZIN01 is in the tetragonal crystal system
# The original CSD entry KEKZIN01 is in a Sohncke space group
# The framework has been calculated to contain at least 10.0% void space
# The void calculation uses a probe of radius 1.32A, grid spacing 0.4
#
###############################################################################

data_KEKZIN01
_chemical_formula_moiety         '(C112 H96 N32 O32 Zn6)n'
_symmetry_cell_setting           triclinic
_symmetry_space_group_name_H-M   'P 1'
_symmetry_Int_Tables_number      1
_space_group_name_Hall           'P 1'
loop_
_symmetry_equiv_pos_site_id
_symmetry_equiv_pos_as_xyz
1 x,y,z
_cell_length_a                   12.89036(2)
_cell_length_b                   12.89036(2)
_cell_length_c                   25.44987(7)
_cell_angle_alpha                90
_cell_angle_beta                 90
_cell_angle_gamma                90
_cell_volume                     4228.79
loop_
_atom_site_label
_atom_site_type_symbol
_atom_site_fract_x
_atom_site_fract_y
_atom_site_fract_z
Zn1 Zn 0.59294(2) 0.75024(2) 0.47989(2)
O1 O 0.52034(11) 0.69786(11) 0.54503(6)
N1 N 0.36117(17) 0.33211(15) 0.67040(8)
C1 C 0.45927(17) 0.57417(16) 0.60541(8)
O2 O 0.61466(11) 0.55312(11) 0.55736(6)
N2 N 0.43340(17) 0.27059(15) 0.65741(8)
C2 C 0.45492(18) 0.47007(17) 0.62021(9)
H1 H 0.503808 0.421866 0.606642
N3 N 0.44515(16) 0.00239(15) 0.68165(8)
O3 O 0.26198(13) 0.78492(11) 0.67897(6)
C3 C 0.37799(18) 0.43732(17) 0.65517(9)
O4 O 0.18228(12) 0.65650(11) 0.72246(6)
N4 N 0.34633(13) 0.01712(13) 0.69915(7)
C4 C 0.30858(16) 0.50804(16) 0.67664(8)
H2 H 0.256606 0.485118 0.700419
C5 C 0.31526(17) 0.61219(16) 0.66330(8)
C6 C 0.38895(16) 0.64427(16) 0.62712(8)
H3 H 0.391580 0.715139 0.616961
C7 C 0.53757(16) 0.61114(16) 0.56656(8)
C8 C 0.24667(18) 0.69041(15) 0.69029(8)
C9 C 0.4140(2) 0.16778(17) 0.67114(10)
C10 C 0.4891(2) 0.0915(2) 0.66520(12)
C11 C 0.32584(18) 0.11838(16) 0.69259(9)
C12 C 0.5971(3) 0.0974(3) 0.64481(18)
H4 H 0.601286 0.061005 0.611062
H5 H 0.644465 0.064784 0.669987
H6 H 0.616582 0.170221 0.639942
C14 C 0.22355(19) 0.16354(18) 0.70625(12)
H10 H 0.175570 0.107840 0.716062
H11 H 0.195838 0.201127 0.675860
H12 H 0.231626 0.211502 0.735843
Zn3 Zn 0.25024(2) 0.90706(2) 0.72989(2)
Zn4 Zn 0.09294(2) 0.74976(2) 0.77011(2)
Zn5 Zn 0.75024(2) 0.59294(2) 0.52011(2)
O5 O 0.55312(11) 0.61466(11) 0.44264(6)
O6 O 0.71508(11) 0.76198(13) 0.42897(6)
O7 O 0.68228(12) 0.84350(11) 0.52754(6)
N5 N 0.48288(13) 0.84633(13) 0.44915(7)
C13 C 0.4957(2) 0.9012(2) 0.68477(12)
H7 H 0.529857 0.885820 0.651249
H8 H 0.443737 0.847702 0.692221
H9 H 0.547572 0.902093 0.712939
C13_2 C 0.5043(2) 0.0988(2) 0.18477(12)
H7_2 H 0.470143 0.114180 0.151249
H8_2 H 0.556263 0.152298 0.192221
H9_2 H 0.452428 0.097907 0.212939
Zn2 Zn 0.74976(2) 0.09294(2) 0.22989(2)
O1_2 O 0.47966(11) 0.30214(11) 0.04503(6)
N1_2 N 0.63883(17) 0.66789(15) 0.17040(8)
C1_2 C 0.54073(17) 0.42583(16) 0.10541(8)
O2_2 O 0.38534(11) 0.44688(11) 0.05736(6)
N2_2 N 0.56660(17) 0.72941(15) 0.15741(8)
C2_2 C 0.54508(18) 0.52993(17) 0.12021(9)
H1_2 H 0.496192 0.578134 0.106642
N3_2 N 0.55485(16) 0.99761(15) 0.18165(8)
O3_2 O 0.73802(13) 0.21508(11) 0.17897(6)
C3_2 C 0.62201(18) 0.56268(17) 0.15517(9)
O4_2 O 0.81772(12) 0.34350(11) 0.22246(6)
N4_2 N 0.65367(13) 0.98288(13) 0.19915(7)
C4_2 C 0.69142(16) 0.49196(16) 0.17664(8)
H2_2 H 0.743394 0.514882 0.200419
C5_2 C 0.68474(17) 0.38781(16) 0.16330(8)
C6_2 C 0.61105(16) 0.35573(16) 0.12712(8)
H3_2 H 0.608420 0.284861 0.116961
C7_2 C 0.46243(16) 0.38886(16) 0.06656(8)
C8_2 C 0.75333(18) 0.30959(15) 0.19029(8)
C9_2 C 0.5860(2) 0.83222(17) 0.17114(10)
C10_2 C 0.5109(2) 0.9085(2) 0.16520(12)
C11_2 C 0.67416(18) 0.88162(16) 0.19259(9)
C12_2 C 0.4029(3) 0.9026(3) 0.14481(18)
H4_2 H 0.398714 0.938995 0.111062
H5_2 H 0.355535 0.935216 0.169987
H6_2 H 0.383418 0.829779 0.139942
C14_2 C 0.77645(19) 0.83646(18) 0.20625(12)
H10_2 H 0.824430 0.892160 0.216062
H11_2 H 0.804162 0.798873 0.175860
H12_2 H 0.768374 0.788498 0.235843
Zn4_2 Zn 0.90706(2) 0.25024(2) 0.27011(2)
Zn5_2 Zn 0.24976(2) 0.40706(2) 0.02011(2)
O7_2 O 0.31772(12) 0.15650(11) 0.02754(6)
Zn1_2 Zn 0.40706(2) 0.24976(2) 0.97989(2)
O5_2 O 0.44688(11) 0.38534(11) 0.94264(6)
O6_2 O 0.28492(11) 0.23802(13) 0.92897(6)
N5_2 N 0.51712(13) 0.15367(13) 0.94915(7)
N1_3 N 0.16789(15) 0.86117(17) 0.42040(8)
N2_3 N 0.22941(15) 0.93340(17) 0.40741(8)
C2_3 C 0.02993(17) 0.95492(18) 0.37021(9)
N3_3 N 0.49761(15) 0.94515(16) 0.43165(8)
C3_3 C 0.06268(17) 0.87799(18) 0.40517(9)
H2_3 H 0.014882 0.756606 0.450419
C9_3 C 0.33222(17) 0.9140(2) 0.42114(10)
C10_3 C 0.4085(2) 0.9891(2) 0.41520(12)
C11_3 C 0.38162(16) 0.82584(18) 0.44259(9)
C13_3 C 0.5988(2) 0.9957(2) 0.43477(12)
H8_3 H 0.652298 0.943737 0.442221
C14_3 C 0.33646(18) 0.72355(19) 0.45625(12)
H10_3 H 0.392160 0.675570 0.466062
H11_3 H 0.298873 0.695838 0.425860
H12_3 H 0.288498 0.731626 0.485843
O1_3 O 0.80214(11) 0.02034(11) 0.29503(6)
O2_3 O 0.94688(11) 0.11466(11) 0.30736(6)
C7_3 C 0.88886(16) 0.03757(16) 0.31656(8)
O5_3 O 0.88534(11) 0.05312(11) 0.19264(6)
O7_3 O 0.65650(11) 0.18228(12) 0.27754(6)
C1_3 C 0.92583(16) 0.95927(17) 0.35541(8)
O4_3 O 0.84350(11) 0.68228(12) 0.47246(6)
C4_3 C 0.99196(16) 0.80858(16) 0.42664(8)
C5_3 C 0.88781(16) 0.81526(17) 0.41330(8)
C6_3 C 0.85573(16) 0.88895(16) 0.37712(8)
H3_3 H 0.784861 0.891580 0.366961
C8_3 C 0.80959(15) 0.74667(18) 0.44029(8)
C1_4 C 0.07417(16) 0.04073(17) 0.85541(8)
O4_4 O 0.15650(11) 0.31772(12) 0.97246(6)
C4_4 C 0.00804(16) 0.19142(16) 0.92664(8)
C5_4 C 0.11219(16) 0.18474(17) 0.91330(8)
C6_4 C 0.14427(16) 0.11105(16) 0.87712(8)
H3_4 H 0.215139 0.108420 0.866961
C8_4 C 0.19041(15) 0.25333(18) 0.94029(8)
O1_4 O 0.19786(11) 0.97966(11) 0.79503(6)
O2_4 O 0.05312(11) 0.88534(11) 0.80736(6)
C7_4 C 0.11114(16) 0.96243(16) 0.81656(8)
O5_4 O 0.11466(11) 0.94688(11) 0.69264(6)
O7_4 O 0.34350(11) 0.81772(12) 0.77754(6)
N1_4 N 0.83211(15) 0.13883(17) 0.92040(8)
N2_4 N 0.77059(15) 0.06660(17) 0.90741(8)
C2_4 C 0.97007(17) 0.04508(18) 0.87021(9)
N3_4 N 0.50239(15) 0.05485(16) 0.93165(8)
C3_4 C 0.93732(17) 0.12201(18) 0.90517(9)
H2_4 H 0.985118 0.243394 0.950419
C9_4 C 0.66778(17) 0.0860(2) 0.92114(10)
C10_4 C 0.5915(2) 0.0109(2) 0.91520(12)
C11_4 C 0.61838(16) 0.17416(18) 0.94259(9)
C13_4 C 0.4012(2) 0.0043(2) 0.93477(12)
H8_4 H 0.347702 0.056263 0.942221
C14_4 C 0.66354(18) 0.27645(19) 0.95625(12)
H10_4 H 0.607840 0.324430 0.966062
H11_4 H 0.701127 0.304162 0.925860
H12_4 H 0.711502 0.268374 0.985843
C1_5 C 0.04073(17) 0.07417(16) 0.14459(8)
O3_3 O 0.23802(13) 0.28492(11) 0.07103(6)
C4_5 C 0.19142(16) 0.00804(16) 0.07336(8)
C5_5 C 0.18474(17) 0.11219(16) 0.08670(8)
C6_5 C 0.11105(16) 0.14427(16) 0.12288(8)
H3_5 H 0.108420 0.215139 0.133039
C8_5 C 0.25333(18) 0.19041(15) 0.05971(8)
N5_3 N 0.01712(13) 0.34633(13) 0.30085(7)
N1_5 N 0.13883(17) 0.83211(15) 0.07960(8)
N2_5 N 0.06660(17) 0.77059(15) 0.09259(8)
C2_5 C 0.04508(18) 0.97007(17) 0.12979(9)
N3_5 N 0.05485(16) 0.50239(15) 0.06835(8)
C3_5 C 0.12201(18) 0.93732(17) 0.09483(9)
N4_3 N 0.15367(13) 0.51712(13) 0.05085(7)
H2_5 H 0.243394 0.985118 0.049581
C9_5 C 0.0860(2) 0.66778(17) 0.07886(10)
C10_5 C 0.0109(2) 0.5915(2) 0.08480(12)
C11_5 C 0.17416(18) 0.61838(16) 0.05741(9)
C13_5 C 0.0043(2) 0.4012(2) 0.06523(12)
H8_5 H 0.056263 0.347702 0.057779
C14_5 C 0.27645(19) 0.66354(18) 0.04375(12)
H10_5 H 0.324430 0.607840 0.033938
H11_5 H 0.304162 0.701127 0.074140
H12_5 H 0.268374 0.711502 0.014157
O1_5 O 0.97966(11) 0.19786(11) 0.20497(6)
C7_5 C 0.96243(16) 0.11114(16) 0.18344(8)
O6_3 O 0.78492(11) 0.26198(13) 0.32103(6)
O1_6 O 0.02034(11) 0.80214(11) 0.70497(6)
C7_6 C 0.03757(16) 0.88886(16) 0.68344(8)
O6_4 O 0.21508(11) 0.73802(13) 0.82103(6)
N1_6 N 0.86117(17) 0.16789(15) 0.57960(8)
N2_6 N 0.93340(17) 0.22941(15) 0.59259(8)
C2_6 C 0.95492(18) 0.02993(17) 0.62979(9)
N3_6 N 0.94515(16) 0.49761(15) 0.56835(8)
C3_6 C 0.87799(18) 0.06268(17) 0.59483(9)
N4_4 N 0.84633(13) 0.48288(13) 0.55085(7)
H2_6 H 0.756606 0.014882 0.549581
C9_6 C 0.9140(2) 0.33222(17) 0.57886(10)
C10_6 C 0.9891(2) 0.4085(2) 0.58480(12)
C11_6 C 0.82584(18) 0.38162(16) 0.55741(9)
C13_6 C 0.9957(2) 0.5988(2) 0.56523(12)
H8_6 H 0.943737 0.652298 0.557779
C14_6 C 0.72355(19) 0.33646(18) 0.54375(12)
H10_6 H 0.675570 0.392160 0.533938
H11_6 H 0.695838 0.298873 0.574140
H12_6 H 0.731626 0.288498 0.514157
C1_6 C 0.95927(17) 0.92583(16) 0.64459(8)
O3_4 O 0.76198(13) 0.71508(11) 0.57103(6)
C4_6 C 0.80858(16) 0.99196(16) 0.57336(8)
C5_6 C 0.81526(17) 0.88781(16) 0.58670(8)
C6_6 C 0.88895(16) 0.85573(16) 0.62288(8)
H3_6 H 0.891580 0.784861 0.633039
C8_6 C 0.74667(18) 0.80959(15) 0.55971(8)
N5_4 N 0.98288(13) 0.65367(13) 0.80085(7)
O1_7 O 0.69786(11) 0.52034(11) 0.45497(6)
N1_7 N 0.33211(15) 0.36117(17) 0.32960(8)
C1_7 C 0.57417(16) 0.45927(17) 0.39459(8)
N2_7 N 0.27059(15) 0.43340(17) 0.34259(8)
C2_7 C 0.47007(17) 0.45492(18) 0.37979(9)
H1_3 H 0.421866 0.503808 0.393358
N3_7 N 0.00239(15) 0.44515(16) 0.31835(8)
C3_7 C 0.43732(17) 0.37799(18) 0.34483(9)
C4_7 C 0.50804(16) 0.30858(16) 0.32336(8)
H2_7 H 0.485118 0.256606 0.299581
C5_7 C 0.61219(16) 0.31526(17) 0.33670(8)
C6_7 C 0.64427(16) 0.38895(16) 0.37288(8)
H3_7 H 0.715139 0.391580 0.383039
C7_7 C 0.61114(16) 0.53757(16) 0.43344(8)
C8_7 C 0.69041(15) 0.24667(18) 0.30971(8)
C9_7 C 0.16778(17) 0.4140(2) 0.32886(10)
C10_7 C 0.0915(2) 0.4891(2) 0.33480(12)
C11_7 C 0.11838(16) 0.32584(18) 0.30741(9)
C12_3 C 0.0974(3) 0.5971(3) 0.35519(18)
H4_3 H 0.061005 0.601286 0.388938
H5_3 H 0.064784 0.644465 0.330013
H6_3 H 0.170221 0.616582 0.360058
C14_7 C 0.16354(18) 0.22355(19) 0.29375(12)
H10_7 H 0.107840 0.175570 0.283938
H11_7 H 0.201127 0.195838 0.324140
H12_7 H 0.211502 0.231626 0.264157
C13_7 C 0.9012(2) 0.4957(2) 0.31523(12)
H7_3 H 0.885820 0.529857 0.348751
H8_7 H 0.847702 0.443737 0.307779
H9_3 H 0.902093 0.547572 0.287061
C13_8 C 0.0988(2) 0.5043(2) 0.81523(12)
H7_4 H 0.114180 0.470143 0.848751
H8_8 H 0.152298 0.556263 0.807779
H9_4 H 0.097907 0.452428 0.787061
O1_8 O 0.30214(11) 0.47966(11) 0.95497(6)
N1_8 N 0.66789(15) 0.63883(17) 0.82960(8)
C1_8 C 0.42583(16) 0.54073(17) 0.89459(8)
N2_8 N 0.72941(15) 0.56660(17) 0.84259(8)
C2_8 C 0.52993(17) 0.54508(18) 0.87979(9)
H1_4 H 0.578134 0.496192 0.893358
N3_8 N 0.99761(15) 0.55485(16) 0.81835(8)
C3_8 C 0.56268(17) 0.62201(18) 0.84483(9)
C4_8 C 0.49196(16) 0.69142(16) 0.82336(8)
H2_8 H 0.514882 0.743394 0.799581
C5_8 C 0.38781(16) 0.68474(17) 0.83670(8)
C6_8 C 0.35573(16) 0.61105(16) 0.87288(8)
H3_8 H 0.284861 0.608420 0.883039
C7_8 C 0.38886(16) 0.46243(16) 0.93344(8)
C8_8 C 0.30959(15) 0.75333(18) 0.80971(8)
C9_8 C 0.83222(17) 0.5860(2) 0.82886(10)
C10_8 C 0.9085(2) 0.5109(2) 0.83480(12)
C11_8 C 0.88162(16) 0.67416(18) 0.80741(9)
C12_4 C 0.9026(3) 0.4029(3) 0.85519(18)
H4_4 H 0.938995 0.398714 0.888938
H5_4 H 0.935216 0.355535 0.830013
H6_4 H 0.829779 0.383418 0.860058
C14_8 C 0.83646(18) 0.77645(19) 0.79375(12)
H10_8 H 0.892160 0.824430 0.783938
H11_8 H 0.798873 0.804162 0.824140
H12_8 H 0.788498 0.768374 0.764157
H1_5 H 0.078134 0.003808 0.356642
C12_5 C 0.4026(3) 0.0971(3) 0.39481(18)
H4_5 H 0.438995 0.101286 0.361062
H5_5 H 0.435216 0.144465 0.419987
H6_5 H 0.329779 0.116582 0.389942
H7_5 H 0.614180 0.029857 0.401249
H9_5 H 0.597907 0.047572 0.462939
H1_6 H 0.921866 0.996192 0.856642
C12_6 C 0.5974(3) 0.9029(3) 0.89481(18)
H4_6 H 0.561005 0.898714 0.861062
H5_6 H 0.564784 0.855535 0.919987
H6_6 H 0.670221 0.883418 0.889942
H7_6 H 0.385820 0.970143 0.901249
H9_6 H 0.402093 0.952428 0.962939
H1_7 H 0.996192 0.921866 0.143358
C12_7 C 0.9029(3) 0.5974(3) 0.10519(18)
H4_7 H 0.898714 0.561005 0.138938
H5_7 H 0.855535 0.564784 0.080013
H6_7 H 0.883418 0.670221 0.110058
H7_7 H 0.970143 0.385820 0.098751
H9_7 H 0.952428 0.402093 0.037061
H1_8 H 0.003808 0.078134 0.643358
C12_8 C 0.0971(3) 0.4026(3) 0.60519(18)
H4_8 H 0.101286 0.438995 0.638938
H5_8 H 0.144465 0.435216 0.580013
H6_8 H 0.116582 0.329779 0.610058
H7_8 H 0.029857 0.614180 0.598751
H9_8 H 0.047572 0.597907 0.537061
loop_
_geom_bond_atom_site_label_1
_geom_bond_atom_site_label_2
_geom_bond_site_symmetry_1
_geom_bond_site_symmetry_2
Zn1 O1 1_555 1_555
O1 C7 1_555 1_555
N1 N2 1_555 1_555
C1 C2 1_555 1_555
O2 C7 1_555 1_555
N2 C9 1_555 1_555
C2 H1 1_555 1_555
N3 N4 1_555 1_555
O3 C8 1_555 1_555
C3 N1 1_555 1_555
O4 C8 1_555 1_555
N4 C11 1_555 1_555
C4 C3 1_555 1_555
H2 C4 1_555 1_555
C5 C4 1_555 1_555
C6 C1 1_555 1_555
H3 C6 1_555 1_555
C7 C1 1_555 1_555
C8 C5 1_555 1_555
C9 C10 1_555 1_555
C10 N3 1_555 1_555
C11 C9 1_555 1_555
C12 C10 1_555 1_555
H4 C12 1_555 1_555
H5 C12 1_555 1_555
H6 C12 1_555 1_555
C14 C11 1_555 1_555
H10 C14 1_555 1_555
H11 C14 1_555 1_555
H12 C14 1_555 1_555
Zn3 O3 1_555 1_555
Zn4 O4 1_555 1_555
Zn5 O2 1_555 1_555
O5 Zn1 1_555 1_555
O6 Zn1 1_555 1_555
O7 Zn1 1_555 1_555
N5 Zn1 1_555 1_555
C2 C3 1_555 1_555
C5 C6 1_555 1_555
H7 C13 1_555 1_555
H8 C13 1_555 1_555
H9 C13 1_555 1_555
H7_2 C13_2 1_555 1_555
H8_2 C13_2 1_555 1_555
H9_2 C13_2 1_555 1_555
O1_2 C7_2 1_555 1_555
N1_2 N2_2 1_555 1_555
C1_2 C2_2 1_555 1_555
O2_2 C7_2 1_555 1_555
N2_2 C9_2 1_555 1_555
C2_2 H1_2 1_555 1_555
N3_2 N4_2 1_555 1_555
O3_2 C8_2 1_555 1_555
C3_2 N1_2 1_555 1_555
O4_2 C8_2 1_555 1_555
N4_2 C11_2 1_555 1_555
C4_2 C3_2 1_555 1_555
H2_2 C4_2 1_555 1_555
C5_2 C4_2 1_555 1_555
C6_2 C1_2 1_555 1_555
H3_2 C6_2 1_555 1_555
C7_2 C1_2 1_555 1_555
C8_2 C5_2 1_555 1_555
C9_2 C10_2 1_555 1_555
C10_2 N3_2 1_555 1_555
C11_2 C9_2 1_555 1_555
C12_2 C10_2 1_555 1_555
H4_2 C12_2 1_555 1_555
H5_2 C12_2 1_555 1_555
H6_2 C12_2 1_555 1_555
C14_2 C11_2 1_555 1_555
H10_2 C14_2 1_555 1_555
H11_2 C14_2 1_555 1_555
H12_2 C14_2 1_555 1_555
Zn2 O3_2 1_555 1_555
Zn4_2 O4_2 1_555 1_555
Zn5_2 O2_2 1_555 1_555
C2_2 C3_2 1_555 1_555
C5_2 C6_2 1_555 1_555
O5_2 Zn1_2 1_555 1_555
O6_2 Zn1_2 1_555 1_555
N5_2 Zn1_2 1_555 1_555
N1_3 N2_3 1_555 1_555
N2_3 C9_3 1_555 1_555
N3_3 N5 1_555 1_555
C3_3 N1_3 1_555 1_555
N5 C11_3 1_555 1_555
C9_3 C10_3 1_555 1_555
C10_3 N3_3 1_555 1_555
C11_3 C9_3 1_555 1_555
C13_3 N3_3 1_555 1_555
H8_3 C13_3 1_555 1_555
C14_3 C11_3 1_555 1_555
H10_3 C14_3 1_555 1_555
H11_3 C14_3 1_555 1_555
H12_3 C14_3 1_555 1_555
C2_3 C3_3 1_555 1_555
Zn2 O1_3 1_555 1_555
O1_3 C7_3 1_555 1_555
O2_3 C7_3 1_555 1_555
Zn4_2 O2_3 1_555 1_555
O5_3 Zn2 1_555 1_555
O7_3 Zn2 1_555 1_555
O6 C8_3 1_555 1_555
O4_3 C8_3 1_555 1_555
C5_3 C4_3 1_555 1_555
C6_3 C1_3 1_555 1_555
H3_3 C6_3 1_555 1_555
C8_3 C5_3 1_555 1_555
Zn5 O4_3 1_555 1_555
C5_3 C6_3 1_555 1_555
O6_2 C8_4 1_555 1_555
O4_4 C8_4 1_555 1_555
C5_4 C4_4 1_555 1_555
C6_4 C1_4 1_555 1_555
H3_4 C6_4 1_555 1_555
C8_4 C5_4 1_555 1_555
C5_4 C6_4 1_555 1_555
Zn3 O1_4 1_555 1_555
O1_4 C7_4 1_555 1_555
O2_4 C7_4 1_555 1_555
Zn4 O2_4 1_555 1_555
O5_4 Zn3 1_555 1_555
O7_4 Zn3 1_555 1_555
N1_4 N2_4 1_555 1_555
N2_4 C9_4 1_555 1_555
N3_4 N5_2 1_555 1_555
C3_4 N1_4 1_555 1_555
N5_2 C11_4 1_555 1_555
C9_4 C10_4 1_555 1_555
C10_4 N3_4 1_555 1_555
C11_4 C9_4 1_555 1_555
C13_4 N3_4 1_555 1_555
H8_4 C13_4 1_555 1_555
C14_4 C11_4 1_555 1_555
H10_4 C14_4 1_555 1_555
H11_4 C14_4 1_555 1_555
H12_4 C14_4 1_555 1_555
C2_4 C3_4 1_555 1_555
O3_3 C8_5 1_555 1_555
O7_2 C8_5 1_555 1_555
C5_5 C4_5 1_555 1_555
C6_5 C1_5 1_555 1_555
H3_5 C6_5 1_555 1_555
C8_5 C5_5 1_555 1_555
Zn5_2 O3_3 1_555 1_555
C5_5 C6_5 1_555 1_555
N1_5 N2_5 1_555 1_555
N2_5 C9_5 1_555 1_555
N3_5 N4_3 1_555 1_555
C3_5 N1_5 1_555 1_555
N4_3 C11_5 1_555 1_555
C9_5 C10_5 1_555 1_555
C10_5 N3_5 1_555 1_555
C11_5 C9_5 1_555 1_555
C13_5 N3_5 1_555 1_555
H8_5 C13_5 1_555 1_555
C14_5 C11_5 1_555 1_555
H10_5 C14_5 1_555 1_555
H11_5 C14_5 1_555 1_555
H12_5 C14_5 1_555 1_555
Zn5_2 N4_3 1_555 1_555
C2_5 C3_5 1_555 1_555
Zn4_2 O1_5 1_555 1_555
O1_5 C7_5 1_555 1_555
O5_3 C7_5 1_555 1_555
O6_3 Zn4_2 1_555 1_555
Zn4 O1_6 1_555 1_555
O1_6 C7_6 1_555 1_555
O5_4 C7_6 1_555 1_555
O6_4 Zn4 1_555 1_555
N1_6 N2_6 1_555 1_555
N2_6 C9_6 1_555 1_555
N3_6 N4_4 1_555 1_555
C3_6 N1_6 1_555 1_555
N4_4 C11_6 1_555 1_555
C9_6 C10_6 1_555 1_555
C10_6 N3_6 1_555 1_555
C11_6 C9_6 1_555 1_555
C13_6 N3_6 1_555 1_555
H8_6 C13_6 1_555 1_555
C14_6 C11_6 1_555 1_555
H10_6 C14_6 1_555 1_555
H11_6 C14_6 1_555 1_555
H12_6 C14_6 1_555 1_555
Zn5 N4_4 1_555 1_555
C2_6 C3_6 1_555 1_555
O3_4 C8_6 1_555 1_555
O7 C8_6 1_555 1_555
C5_6 C4_6 1_555 1_555
C6_6 C1_6 1_555 1_555
H3_6 C6_6 1_555 1_555
C8_6 C5_6 1_555 1_555
Zn5 O3_4 1_555 1_555
C5_6 C6_6 1_555 1_555
Zn5 O1_7 1_555 1_555
O1_7 C7_7 1_555 1_555
N1_7 N2_7 1_555 1_555
C1_7 C2_7 1_555 1_555
O5 C7_7 1_555 1_555
N2_7 C9_7 1_555 1_555
C2_7 H1_3 1_555 1_555
N3_7 N5_3 1_555 1_555
O6_3 C8_7 1_555 1_555
C3_7 N1_7 1_555 1_555
O7_3 C8_7 1_555 1_555
N5_3 C11_7 1_555 1_555
C4_7 C3_7 1_555 1_555
H2_7 C4_7 1_555 1_555
C5_7 C4_7 1_555 1_555
C6_7 C1_7 1_555 1_555
H3_7 C6_7 1_555 1_555
C7_7 C1_7 1_555 1_555
C8_7 C5_7 1_555 1_555
C9_7 C10_7 1_555 1_555
C10_7 N3_7 1_555 1_555
C11_7 C9_7 1_555 1_555
C12_3 C10_7 1_555 1_555
H4_3 C12_3 1_555 1_555
H5_3 C12_3 1_555 1_555
H6_3 C12_3 1_555 1_555
C14_7 C11_7 1_555 1_555
H10_7 C14_7 1_555 1_555
H11_7 C14_7 1_555 1_555
H12_7 C14_7 1_555 1_555
C2_7 C3_7 1_555 1_555
C5_7 C6_7 1_555 1_555
H7_3 C13_7 1_555 1_555
H8_7 C13_7 1_555 1_555
H9_3 C13_7 1_555 1_555
H7_4 C13_8 1_555 1_555
H8_8 C13_8 1_555 1_555
H9_4 C13_8 1_555 1_555
O1_8 C7_8 1_555 1_555
N1_8 N2_8 1_555 1_555
C1_8 C2_8 1_555 1_555
O5_2 C7_8 1_555 1_555
N2_8 C9_8 1_555 1_555
C2_8 H1_4 1_555 1_555
N3_8 N5_4 1_555 1_555
O6_4 C8_8 1_555 1_555
C3_8 N1_8 1_555 1_555
O7_4 C8_8 1_555 1_555
N5_4 C11_8 1_555 1_555
C4_8 C3_8 1_555 1_555
H2_8 C4_8 1_555 1_555
C5_8 C4_8 1_555 1_555
C6_8 C1_8 1_555 1_555
H3_8 C6_8 1_555 1_555
C7_8 C1_8 1_555 1_555
C8_8 C5_8 1_555 1_555
C9_8 C10_8 1_555 1_555
C10_8 N3_8 1_555 1_555
C11_8 C9_8 1_555 1_555
C12_4 C10_8 1_555 1_555
H4_4 C12_4 1_555 1_555
H5_4 C12_4 1_555 1_555
H6_4 C12_4 1_555 1_555
C14_8 C11_8 1_555 1_555
H10_8 C14_8 1_555 1_555
H11_8 C14_8 1_555 1_555
H12_8 C14_8 1_555 1_555
C2_8 C3_8 1_555 1_555
C5_8 C6_8 1_555 1_555
H4_5 C12_5 1_555 1_555
H5_5 C12_5 1_555 1_555
H6_5 C12_5 1_555 1_555
H4_6 C12_6 1_555 1_555
H5_6 C12_6 1_555 1_555
H6_6 C12_6 1_555 1_555
H4_7 C12_7 1_555 1_555
H5_7 C12_7 1_555 1_555
H6_7 C12_7 1_555 1_555
H4_8 C12_8 1_555 1_555
H5_8 C12_8 1_555 1_555
H6_8 C12_8 1_555 1_555

#END
