
###############################################################################
#
# This file contains modified crystal structure data generated from the
# MOF subset of the Cambridge Structural Database (CSD) v543 
# hosted by the Cambridge Crystallographic Data Centre (CCDC).
#
# This work is licensed under the Creative Commons
# Attribution-NonCommercial-ShareAlike 4.0 International License.
# To view a copy of this license, visit
# http://creativecommons.org/licenses/by-nc-sa/4.0/
# or send a letter to
# Creative Commons, PO Box 1866, Mountain View, CA 94042, USA.
#
# CIF created using the CSD Python API on 29 September 2022
# The structure has been converted into the P1 space group
# The structure has a 3D framework
# The original CSD entry KEKZIN is in the tetragonal crystal system
# The original CSD entry KEKZIN is in a Sohncke space group
# The framework has been calculated to contain at least 10.0% void space
# The void calculation uses a probe of radius 1.32A, grid spacing 0.4
#
###############################################################################

data_KEKZIN
_chemical_formula_moiety         '(C112 H96 N32 O32 Zn6)n'
_symmetry_cell_setting           triclinic
_symmetry_space_group_name_H-M   'P 1'
_symmetry_Int_Tables_number      1
_space_group_name_Hall           'P 1'
loop_
_symmetry_equiv_pos_site_id
_symmetry_equiv_pos_as_xyz
1 x,y,z
_cell_length_a                   12.8882(9)
_cell_length_b                   12.8882(9)
_cell_length_c                   25.421(2)
_cell_angle_alpha                90
_cell_angle_beta                 90
_cell_angle_gamma                90
_cell_volume                     4222.57
loop_
_atom_site_label
_atom_site_type_symbol
_atom_site_fract_x
_atom_site_fract_y
_atom_site_fract_z
Zn1 Zn 0.59248(2) 0.74945(2) 0.47969(2)
O1 O 0.51897(12) 0.69815(11) 0.54507(7)
N1 N 0.36049(17) 0.33276(14) 0.67055(10)
C1 C 0.45789(17) 0.57442(17) 0.60525(10)
O2 O 0.61308(12) 0.55325(11) 0.55749(7)
N2 N 0.43205(17) 0.27155(15) 0.65744(10)
C2 C 0.45417(19) 0.47036(17) 0.62008(11)
H1 H 0.503455 0.422263 0.606754
N3 N 0.44450(16) 0.00353(14) 0.68173(10)
O3 O 0.26141(13) 0.78526(11) 0.67872(6)
C3 C 0.37706(19) 0.43810(17) 0.65473(11)
O4 O 0.18166(12) 0.65735(11) 0.72264(7)
N4 N 0.34499(14) 0.01777(14) 0.69869(8)
C4 C 0.30787(18) 0.50807(17) 0.67621(10)
H2 H 0.255833 0.484723 0.699881
C5 C 0.31434(17) 0.61342(17) 0.66312(10)
C6 C 0.38807(17) 0.64486(17) 0.62726(10)
H3 H 0.391433 0.715844 0.617333
C7 C 0.53692(17) 0.61116(16) 0.56648(10)
C8 C 0.24613(19) 0.69091(16) 0.69004(9)
C9 C 0.4133(2) 0.16854(17) 0.67160(11)
C10 C 0.4878(2) 0.0924(2) 0.66562(13)
C11 C 0.32473(19) 0.11920(17) 0.69251(11)
C12 C 0.5960(3) 0.0977(3) 0.64466(18)
H4 H 0.598278 0.066184 0.609590
H5 H 0.642802 0.059934 0.668271
H6 H 0.617900 0.170346 0.642382
C14 C 0.22243(19) 0.16380(19) 0.70600(14)
H10 H 0.175147 0.108061 0.716621
H11 H 0.193913 0.199769 0.675259
H12 H 0.230416 0.213145 0.735047
Zn3 Zn 0.24945(2) 0.90752(2) 0.72969(2)
Zn4 Zn 0.09248(2) 0.75055(2) 0.77031(2)
Zn5 Zn 0.74945(2) 0.59248(2) 0.52031(2)
O5 O 0.55325(11) 0.61308(12) 0.44251(7)
O6 O 0.71474(11) 0.76141(13) 0.42872(6)
O7 O 0.68166(12) 0.84265(11) 0.52736(7)
N5 N 0.48223(14) 0.84499(14) 0.44869(8)
C13 C 0.4950(2) 0.90205(19) 0.68510(14)
H7 H 0.527433 0.885443 0.651253
H8 H 0.443268 0.849002 0.693690
H9 H 0.548282 0.903748 0.712614
C13_2 C 0.5050(2) 0.09795(19) 0.18510(14)
H7_2 H 0.472567 0.114557 0.151253
H8_2 H 0.556732 0.150998 0.193690
H9_2 H 0.451718 0.096252 0.212614
Zn2 Zn 0.75055(2) 0.09248(2) 0.22969(2)
O1_2 O 0.48103(12) 0.30185(11) 0.04507(7)
N1_2 N 0.63951(17) 0.66724(14) 0.17055(10)
C1_2 C 0.54211(17) 0.42558(17) 0.10525(10)
O2_2 O 0.38692(12) 0.44675(11) 0.05749(7)
N2_2 N 0.56795(17) 0.72845(15) 0.15744(10)
C2_2 C 0.54583(19) 0.52964(17) 0.12008(11)
H1_2 H 0.496545 0.577737 0.106754
N3_2 N 0.55550(16) 0.99647(14) 0.18173(10)
O3_2 O 0.73859(13) 0.21474(11) 0.17872(6)
C3_2 C 0.62294(19) 0.56190(17) 0.15473(11)
O4_2 O 0.81834(12) 0.34265(11) 0.22264(7)
N4_2 N 0.65501(14) 0.98223(14) 0.19869(8)
C4_2 C 0.69213(18) 0.49193(17) 0.17621(10)
H2_2 H 0.744167 0.515277 0.199881
C5_2 C 0.68566(17) 0.38658(17) 0.16312(10)
C6_2 C 0.61193(17) 0.35514(17) 0.12726(10)
H3_2 H 0.608567 0.284156 0.117333
C7_2 C 0.46308(17) 0.38884(16) 0.06648(10)
C8_2 C 0.75387(19) 0.30909(16) 0.19004(9)
C9_2 C 0.5867(2) 0.83146(17) 0.17160(11)
C10_2 C 0.5122(2) 0.9076(2) 0.16562(13)
C11_2 C 0.67527(19) 0.88080(17) 0.19251(11)
C12_2 C 0.4040(3) 0.9023(3) 0.14466(18)
H4_2 H 0.401722 0.933816 0.109590
H5_2 H 0.357198 0.940066 0.168271
H6_2 H 0.382100 0.829654 0.142382
C14_2 C 0.77757(19) 0.83620(19) 0.20600(14)
H10_2 H 0.824853 0.891939 0.216621
H11_2 H 0.806087 0.800231 0.175259
H12_2 H 0.769584 0.786855 0.235047
Zn4_2 Zn 0.90752(2) 0.24945(2) 0.27031(2)
Zn5_2 Zn 0.25055(2) 0.40752(2) 0.02031(2)
O7_2 O 0.31834(12) 0.15735(11) 0.02736(7)
Zn1_2 Zn 0.40752(2) 0.25055(2) 0.97969(2)
O5_2 O 0.44675(11) 0.38692(12) 0.94251(7)
O6_2 O 0.28526(11) 0.23859(13) 0.92872(6)
N5_2 N 0.51777(14) 0.15501(14) 0.94869(8)
N1_3 N 0.16724(14) 0.86049(17) 0.42055(10)
N2_3 N 0.22845(15) 0.93205(17) 0.40744(10)
C2_3 C 0.02964(17) 0.95417(19) 0.37008(11)
N3_3 N 0.49647(14) 0.94450(16) 0.43173(10)
C3_3 C 0.06190(17) 0.87706(19) 0.40473(11)
H2_3 H 0.015277 0.755833 0.449881
C9_3 C 0.33146(17) 0.9133(2) 0.42160(11)
C10_3 C 0.4076(2) 0.9878(2) 0.41562(13)
C11_3 C 0.38080(17) 0.82473(19) 0.44251(11)
C13_3 C 0.59795(19) 0.9950(2) 0.43510(14)
H8_3 H 0.650998 0.943268 0.443690
C14_3 C 0.33620(19) 0.72243(19) 0.45600(14)
H10_3 H 0.391939 0.675147 0.466621
H11_3 H 0.300231 0.693913 0.425259
H12_3 H 0.286855 0.730416 0.485047
O1_3 O 0.80185(11) 0.01897(12) 0.29507(7)
O2_3 O 0.94675(11) 0.11308(12) 0.30749(7)
C7_3 C 0.88884(16) 0.03692(17) 0.31648(10)
O5_3 O 0.88692(12) 0.05325(11) 0.19251(7)
O7_3 O 0.65735(11) 0.18166(12) 0.27736(7)
C1_3 C 0.92558(17) 0.95789(17) 0.35525(10)
O4_3 O 0.84265(11) 0.68166(12) 0.47264(7)
C4_3 C 0.99193(17) 0.80787(18) 0.42621(10)
C5_3 C 0.88658(17) 0.81434(17) 0.41312(10)
C6_3 C 0.85514(17) 0.88807(17) 0.37726(10)
H3_3 H 0.784156 0.891433 0.367333
C8_3 C 0.80909(16) 0.74613(19) 0.44004(9)
C1_4 C 0.07442(17) 0.04211(17) 0.85525(10)
O4_4 O 0.15735(11) 0.31834(12) 0.97264(7)
C4_4 C 0.00807(17) 0.19213(18) 0.92621(10)
C5_4 C 0.11342(17) 0.18566(17) 0.91312(10)
C6_4 C 0.14486(17) 0.11193(17) 0.87726(10)
H3_4 H 0.215844 0.108567 0.867333
C8_4 C 0.19091(16) 0.25387(19) 0.94004(9)
O1_4 O 0.19815(11) 0.98103(12) 0.79507(7)
O2_4 O 0.05325(11) 0.88692(12) 0.80749(7)
C7_4 C 0.11116(16) 0.96308(17) 0.81648(10)
O5_4 O 0.11308(12) 0.94675(11) 0.69251(7)
O7_4 O 0.34265(11) 0.81834(12) 0.77736(7)
N1_4 N 0.83276(14) 0.13951(17) 0.92055(10)
N2_4 N 0.77155(15) 0.06795(17) 0.90744(10)
C2_4 C 0.97036(17) 0.04583(19) 0.87008(11)
N3_4 N 0.50353(14) 0.05550(16) 0.93173(10)
C3_4 C 0.93810(17) 0.12294(19) 0.90473(11)
H2_4 H 0.984723 0.244167 0.949881
C9_4 C 0.66854(17) 0.0867(2) 0.92160(11)
C10_4 C 0.5924(2) 0.0122(2) 0.91562(13)
C11_4 C 0.61920(17) 0.17527(19) 0.94251(11)
C13_4 C 0.40205(19) 0.0050(2) 0.93510(14)
H8_4 H 0.349002 0.056732 0.943690
C14_4 C 0.66380(19) 0.27757(19) 0.95600(14)
H10_4 H 0.608061 0.324853 0.966621
H11_4 H 0.699769 0.306087 0.925259
H12_4 H 0.713145 0.269584 0.985047
C1_5 C 0.04211(17) 0.07442(17) 0.14475(10)
O3_3 O 0.23859(13) 0.28526(11) 0.07128(6)
C4_5 C 0.19213(18) 0.00807(17) 0.07379(10)
C5_5 C 0.18566(17) 0.11342(17) 0.08688(10)
C6_5 C 0.11193(17) 0.14486(17) 0.12274(10)
H3_5 H 0.108567 0.215844 0.132667
C8_5 C 0.25387(19) 0.19091(16) 0.05996(9)
N5_3 N 0.01777(14) 0.34499(14) 0.30131(8)
N1_5 N 0.13951(17) 0.83276(14) 0.07945(10)
N2_5 N 0.06795(17) 0.77155(15) 0.09256(10)
C2_5 C 0.04583(19) 0.97036(17) 0.12992(11)
N3_5 N 0.05550(16) 0.50353(14) 0.06827(10)
C3_5 C 0.12294(19) 0.93810(17) 0.09527(11)
N4_3 N 0.15501(14) 0.51777(14) 0.05131(8)
H2_5 H 0.244167 0.984723 0.050119
C9_5 C 0.0867(2) 0.66854(17) 0.07840(11)
C10_5 C 0.0122(2) 0.5924(2) 0.08438(13)
C11_5 C 0.17527(19) 0.61920(17) 0.05749(11)
C13_5 C 0.0050(2) 0.40205(19) 0.06490(14)
H8_5 H 0.056732 0.349002 0.056310
C14_5 C 0.27757(19) 0.66380(19) 0.04400(14)
H10_5 H 0.324853 0.608061 0.033379
H11_5 H 0.306087 0.699769 0.074741
H12_5 H 0.269584 0.713145 0.014953
O1_5 O 0.98103(12) 0.19815(11) 0.20493(7)
C7_5 C 0.96308(17) 0.11116(16) 0.18352(10)
O6_3 O 0.78526(11) 0.26141(13) 0.32128(6)
O1_6 O 0.01897(12) 0.80185(11) 0.70493(7)
C7_6 C 0.03692(17) 0.88884(16) 0.68352(10)
O6_4 O 0.21474(11) 0.73859(13) 0.82128(6)
N1_6 N 0.86049(17) 0.16724(14) 0.57945(10)
N2_6 N 0.93205(17) 0.22845(15) 0.59256(10)
C2_6 C 0.95417(19) 0.02964(17) 0.62992(11)
N3_6 N 0.94450(16) 0.49647(14) 0.56827(10)
C3_6 C 0.87706(19) 0.06190(17) 0.59527(11)
N4_4 N 0.84499(14) 0.48223(14) 0.55131(8)
H2_6 H 0.755833 0.015277 0.550119
C9_6 C 0.9133(2) 0.33146(17) 0.57840(11)
C10_6 C 0.9878(2) 0.4076(2) 0.58438(13)
C11_6 C 0.82473(19) 0.38080(17) 0.55749(11)
C13_6 C 0.9950(2) 0.59795(19) 0.56490(14)
H8_6 H 0.943268 0.650998 0.556310
C14_6 C 0.72243(19) 0.33620(19) 0.54400(14)
H10_6 H 0.675147 0.391939 0.533379
H11_6 H 0.693913 0.300231 0.574741
H12_6 H 0.730416 0.286855 0.514953
C1_6 C 0.95789(17) 0.92558(17) 0.64475(10)
O3_4 O 0.76141(13) 0.71474(11) 0.57128(6)
C4_6 C 0.80787(18) 0.99193(17) 0.57379(10)
C5_6 C 0.81434(17) 0.88658(17) 0.58688(10)
C6_6 C 0.88807(17) 0.85514(17) 0.62274(10)
H3_6 H 0.891433 0.784156 0.632667
C8_6 C 0.74613(19) 0.80909(16) 0.55996(9)
N5_4 N 0.98223(14) 0.65501(14) 0.80131(8)
O1_7 O 0.69815(11) 0.51897(12) 0.45493(7)
N1_7 N 0.33276(14) 0.36049(17) 0.32945(10)
C1_7 C 0.57442(17) 0.45789(17) 0.39475(10)
N2_7 N 0.27155(15) 0.43205(17) 0.34256(10)
C2_7 C 0.47036(17) 0.45417(19) 0.37992(11)
H1_3 H 0.422263 0.503455 0.393246
N3_7 N 0.00353(14) 0.44450(16) 0.31827(10)
C3_7 C 0.43810(17) 0.37706(19) 0.34527(11)
C4_7 C 0.50807(17) 0.30787(18) 0.32379(10)
H2_7 H 0.484723 0.255833 0.300119
C5_7 C 0.61342(17) 0.31434(17) 0.33688(10)
C6_7 C 0.64486(17) 0.38807(17) 0.37274(10)
H3_7 H 0.715844 0.391433 0.382667
C7_7 C 0.61116(16) 0.53692(17) 0.43352(10)
C8_7 C 0.69091(16) 0.24613(19) 0.30996(9)
C9_7 C 0.16854(17) 0.4133(2) 0.32840(11)
C10_7 C 0.0924(2) 0.4878(2) 0.33438(13)
C11_7 C 0.11920(17) 0.32473(19) 0.30749(11)
C12_3 C 0.0977(3) 0.5960(3) 0.35534(18)
H4_3 H 0.066184 0.598278 0.390410
H5_3 H 0.059934 0.642802 0.331729
H6_3 H 0.170346 0.617900 0.357618
C14_7 C 0.16380(19) 0.22243(19) 0.29400(14)
H10_7 H 0.108061 0.175147 0.283379
H11_7 H 0.199769 0.193913 0.324741
H12_7 H 0.213145 0.230416 0.264953
C13_7 C 0.90205(19) 0.4950(2) 0.31490(14)
H7_3 H 0.885443 0.527433 0.348747
H8_7 H 0.849002 0.443268 0.306310
H9_3 H 0.903748 0.548282 0.287386
C13_8 C 0.09795(19) 0.5050(2) 0.81490(14)
H7_4 H 0.114557 0.472567 0.848747
H8_8 H 0.150998 0.556732 0.806310
H9_4 H 0.096252 0.451718 0.787386
O1_8 O 0.30185(11) 0.48103(12) 0.95493(7)
N1_8 N 0.66724(14) 0.63951(17) 0.82945(10)
C1_8 C 0.42558(17) 0.54211(17) 0.89475(10)
N2_8 N 0.72845(15) 0.56795(17) 0.84256(10)
C2_8 C 0.52964(17) 0.54583(19) 0.87992(11)
H1_4 H 0.577737 0.496545 0.893246
N3_8 N 0.99647(14) 0.55550(16) 0.81827(10)
C3_8 C 0.56190(17) 0.62294(19) 0.84527(11)
C4_8 C 0.49193(17) 0.69213(18) 0.82379(10)
H2_8 H 0.515277 0.744167 0.800119
C5_8 C 0.38658(17) 0.68566(17) 0.83688(10)
C6_8 C 0.35514(17) 0.61193(17) 0.87274(10)
H3_8 H 0.284156 0.608567 0.882667
C7_8 C 0.38884(16) 0.46308(17) 0.93352(10)
C8_8 C 0.30909(16) 0.75387(19) 0.80996(9)
C9_8 C 0.83146(17) 0.5867(2) 0.82840(11)
C10_8 C 0.9076(2) 0.5122(2) 0.83438(13)
C11_8 C 0.88080(17) 0.67527(19) 0.80749(11)
C12_4 C 0.9023(3) 0.4040(3) 0.85534(18)
H4_4 H 0.933816 0.401722 0.890410
H5_4 H 0.940066 0.357198 0.831729
H6_4 H 0.829654 0.382100 0.857618
C14_8 C 0.83620(19) 0.77757(19) 0.79400(14)
H10_8 H 0.891939 0.824853 0.783379
H11_8 H 0.800231 0.806087 0.824741
H12_8 H 0.786855 0.769584 0.764953
H1_5 H 0.077737 0.003455 0.356754
C12_5 C 0.4023(3) 0.0960(3) 0.39466(18)
H4_5 H 0.433816 0.098278 0.359590
H5_5 H 0.440066 0.142802 0.418271
H6_5 H 0.329654 0.117900 0.392382
H7_5 H 0.614557 0.027433 0.401253
H9_5 H 0.596252 0.048282 0.462614
H1_6 H 0.922263 0.996545 0.856754
C12_6 C 0.5977(3) 0.9040(3) 0.89466(18)
H4_6 H 0.566184 0.901722 0.859590
H5_6 H 0.559934 0.857198 0.918271
H6_6 H 0.670346 0.882100 0.892382
H7_6 H 0.385443 0.972567 0.901253
H9_6 H 0.403748 0.951718 0.962614
H1_7 H 0.996545 0.922263 0.143246
C12_7 C 0.9040(3) 0.5977(3) 0.10534(18)
H4_7 H 0.901722 0.566184 0.140410
H5_7 H 0.857198 0.559934 0.081729
H6_7 H 0.882100 0.670346 0.107618
H7_7 H 0.972567 0.385443 0.098747
H9_7 H 0.951718 0.403748 0.037386
H1_8 H 0.003455 0.077737 0.643246
C12_8 C 0.0960(3) 0.4023(3) 0.60534(18)
H4_8 H 0.098278 0.433816 0.640410
H5_8 H 0.142802 0.440066 0.581729
H6_8 H 0.117900 0.329654 0.607618
H7_8 H 0.027433 0.614557 0.598747
H9_8 H 0.048282 0.596252 0.537386
loop_
_geom_bond_atom_site_label_1
_geom_bond_atom_site_label_2
_geom_bond_site_symmetry_1
_geom_bond_site_symmetry_2
Zn1 O1 1_555 1_555
O1 C7 1_555 1_555
N1 N2 1_555 1_555
C1 C2 1_555 1_555
O2 C7 1_555 1_555
N2 C9 1_555 1_555
C2 H1 1_555 1_555
N3 N4 1_555 1_555
O3 C8 1_555 1_555
C3 N1 1_555 1_555
O4 C8 1_555 1_555
N4 C11 1_555 1_555
C4 C3 1_555 1_555
H2 C4 1_555 1_555
C5 C4 1_555 1_555
C6 C1 1_555 1_555
H3 C6 1_555 1_555
C7 C1 1_555 1_555
C8 C5 1_555 1_555
C9 C10 1_555 1_555
C10 N3 1_555 1_555
C11 C9 1_555 1_555
C12 C10 1_555 1_555
H4 C12 1_555 1_555
H5 C12 1_555 1_555
H6 C12 1_555 1_555
C14 C11 1_555 1_555
H10 C14 1_555 1_555
H11 C14 1_555 1_555
H12 C14 1_555 1_555
Zn3 O3 1_555 1_555
Zn4 O4 1_555 1_555
Zn5 O2 1_555 1_555
O5 Zn1 1_555 1_555
O6 Zn1 1_555 1_555
O7 Zn1 1_555 1_555
N5 Zn1 1_555 1_555
C2 C3 1_555 1_555
C5 C6 1_555 1_555
H7 C13 1_555 1_555
H8 C13 1_555 1_555
H9 C13 1_555 1_555
H7_2 C13_2 1_555 1_555
H8_2 C13_2 1_555 1_555
H9_2 C13_2 1_555 1_555
O1_2 C7_2 1_555 1_555
N1_2 N2_2 1_555 1_555
C1_2 C2_2 1_555 1_555
O2_2 C7_2 1_555 1_555
N2_2 C9_2 1_555 1_555
C2_2 H1_2 1_555 1_555
N3_2 N4_2 1_555 1_555
O3_2 C8_2 1_555 1_555
C3_2 N1_2 1_555 1_555
O4_2 C8_2 1_555 1_555
N4_2 C11_2 1_555 1_555
C4_2 C3_2 1_555 1_555
H2_2 C4_2 1_555 1_555
C5_2 C4_2 1_555 1_555
C6_2 C1_2 1_555 1_555
H3_2 C6_2 1_555 1_555
C7_2 C1_2 1_555 1_555
C8_2 C5_2 1_555 1_555
C9_2 C10_2 1_555 1_555
C10_2 N3_2 1_555 1_555
C11_2 C9_2 1_555 1_555
C12_2 C10_2 1_555 1_555
H4_2 C12_2 1_555 1_555
H5_2 C12_2 1_555 1_555
H6_2 C12_2 1_555 1_555
C14_2 C11_2 1_555 1_555
H10_2 C14_2 1_555 1_555
H11_2 C14_2 1_555 1_555
H12_2 C14_2 1_555 1_555
Zn2 O3_2 1_555 1_555
Zn4_2 O4_2 1_555 1_555
Zn5_2 O2_2 1_555 1_555
C2_2 C3_2 1_555 1_555
C5_2 C6_2 1_555 1_555
O5_2 Zn1_2 1_555 1_555
O6_2 Zn1_2 1_555 1_555
N5_2 Zn1_2 1_555 1_555
N1_3 N2_3 1_555 1_555
N2_3 C9_3 1_555 1_555
N3_3 N5 1_555 1_555
C3_3 N1_3 1_555 1_555
N5 C11_3 1_555 1_555
C9_3 C10_3 1_555 1_555
C10_3 N3_3 1_555 1_555
C11_3 C9_3 1_555 1_555
C13_3 N3_3 1_555 1_555
H8_3 C13_3 1_555 1_555
C14_3 C11_3 1_555 1_555
H10_3 C14_3 1_555 1_555
H11_3 C14_3 1_555 1_555
H12_3 C14_3 1_555 1_555
C2_3 C3_3 1_555 1_555
Zn2 O1_3 1_555 1_555
O1_3 C7_3 1_555 1_555
O2_3 C7_3 1_555 1_555
Zn4_2 O2_3 1_555 1_555
O5_3 Zn2 1_555 1_555
O7_3 Zn2 1_555 1_555
O6 C8_3 1_555 1_555
O4_3 C8_3 1_555 1_555
C5_3 C4_3 1_555 1_555
C6_3 C1_3 1_555 1_555
H3_3 C6_3 1_555 1_555
C8_3 C5_3 1_555 1_555
Zn5 O4_3 1_555 1_555
C5_3 C6_3 1_555 1_555
O6_2 C8_4 1_555 1_555
O4_4 C8_4 1_555 1_555
C5_4 C4_4 1_555 1_555
C6_4 C1_4 1_555 1_555
H3_4 C6_4 1_555 1_555
C8_4 C5_4 1_555 1_555
C5_4 C6_4 1_555 1_555
Zn3 O1_4 1_555 1_555
O1_4 C7_4 1_555 1_555
O2_4 C7_4 1_555 1_555
Zn4 O2_4 1_555 1_555
O5_4 Zn3 1_555 1_555
O7_4 Zn3 1_555 1_555
N1_4 N2_4 1_555 1_555
N2_4 C9_4 1_555 1_555
N3_4 N5_2 1_555 1_555
C3_4 N1_4 1_555 1_555
N5_2 C11_4 1_555 1_555
C9_4 C10_4 1_555 1_555
C10_4 N3_4 1_555 1_555
C11_4 C9_4 1_555 1_555
C13_4 N3_4 1_555 1_555
H8_4 C13_4 1_555 1_555
C14_4 C11_4 1_555 1_555
H10_4 C14_4 1_555 1_555
H11_4 C14_4 1_555 1_555
H12_4 C14_4 1_555 1_555
C2_4 C3_4 1_555 1_555
O3_3 C8_5 1_555 1_555
O7_2 C8_5 1_555 1_555
C5_5 C4_5 1_555 1_555
C6_5 C1_5 1_555 1_555
H3_5 C6_5 1_555 1_555
C8_5 C5_5 1_555 1_555
Zn5_2 O3_3 1_555 1_555
C5_5 C6_5 1_555 1_555
N1_5 N2_5 1_555 1_555
N2_5 C9_5 1_555 1_555
N3_5 N4_3 1_555 1_555
C3_5 N1_5 1_555 1_555
N4_3 C11_5 1_555 1_555
C9_5 C10_5 1_555 1_555
C10_5 N3_5 1_555 1_555
C11_5 C9_5 1_555 1_555
C13_5 N3_5 1_555 1_555
H8_5 C13_5 1_555 1_555
C14_5 C11_5 1_555 1_555
H10_5 C14_5 1_555 1_555
H11_5 C14_5 1_555 1_555
H12_5 C14_5 1_555 1_555
Zn5_2 N4_3 1_555 1_555
C2_5 C3_5 1_555 1_555
Zn4_2 O1_5 1_555 1_555
O1_5 C7_5 1_555 1_555
O5_3 C7_5 1_555 1_555
O6_3 Zn4_2 1_555 1_555
Zn4 O1_6 1_555 1_555
O1_6 C7_6 1_555 1_555
O5_4 C7_6 1_555 1_555
O6_4 Zn4 1_555 1_555
N1_6 N2_6 1_555 1_555
N2_6 C9_6 1_555 1_555
N3_6 N4_4 1_555 1_555
C3_6 N1_6 1_555 1_555
N4_4 C11_6 1_555 1_555
C9_6 C10_6 1_555 1_555
C10_6 N3_6 1_555 1_555
C11_6 C9_6 1_555 1_555
C13_6 N3_6 1_555 1_555
H8_6 C13_6 1_555 1_555
C14_6 C11_6 1_555 1_555
H10_6 C14_6 1_555 1_555
H11_6 C14_6 1_555 1_555
H12_6 C14_6 1_555 1_555
Zn5 N4_4 1_555 1_555
C2_6 C3_6 1_555 1_555
O3_4 C8_6 1_555 1_555
O7 C8_6 1_555 1_555
C5_6 C4_6 1_555 1_555
C6_6 C1_6 1_555 1_555
H3_6 C6_6 1_555 1_555
C8_6 C5_6 1_555 1_555
Zn5 O3_4 1_555 1_555
C5_6 C6_6 1_555 1_555
Zn5 O1_7 1_555 1_555
O1_7 C7_7 1_555 1_555
N1_7 N2_7 1_555 1_555
C1_7 C2_7 1_555 1_555
O5 C7_7 1_555 1_555
N2_7 C9_7 1_555 1_555
C2_7 H1_3 1_555 1_555
N3_7 N5_3 1_555 1_555
O6_3 C8_7 1_555 1_555
C3_7 N1_7 1_555 1_555
O7_3 C8_7 1_555 1_555
N5_3 C11_7 1_555 1_555
C4_7 C3_7 1_555 1_555
H2_7 C4_7 1_555 1_555
C5_7 C4_7 1_555 1_555
C6_7 C1_7 1_555 1_555
H3_7 C6_7 1_555 1_555
C7_7 C1_7 1_555 1_555
C8_7 C5_7 1_555 1_555
C9_7 C10_7 1_555 1_555
C10_7 N3_7 1_555 1_555
C11_7 C9_7 1_555 1_555
C12_3 C10_7 1_555 1_555
H4_3 C12_3 1_555 1_555
H5_3 C12_3 1_555 1_555
H6_3 C12_3 1_555 1_555
C14_7 C11_7 1_555 1_555
H10_7 C14_7 1_555 1_555
H11_7 C14_7 1_555 1_555
H12_7 C14_7 1_555 1_555
C2_7 C3_7 1_555 1_555
C5_7 C6_7 1_555 1_555
H7_3 C13_7 1_555 1_555
H8_7 C13_7 1_555 1_555
H9_3 C13_7 1_555 1_555
H7_4 C13_8 1_555 1_555
H8_8 C13_8 1_555 1_555
H9_4 C13_8 1_555 1_555
O1_8 C7_8 1_555 1_555
N1_8 N2_8 1_555 1_555
C1_8 C2_8 1_555 1_555
O5_2 C7_8 1_555 1_555
N2_8 C9_8 1_555 1_555
C2_8 H1_4 1_555 1_555
N3_8 N5_4 1_555 1_555
O6_4 C8_8 1_555 1_555
C3_8 N1_8 1_555 1_555
O7_4 C8_8 1_555 1_555
N5_4 C11_8 1_555 1_555
C4_8 C3_8 1_555 1_555
H2_8 C4_8 1_555 1_555
C5_8 C4_8 1_555 1_555
C6_8 C1_8 1_555 1_555
H3_8 C6_8 1_555 1_555
C7_8 C1_8 1_555 1_555
C8_8 C5_8 1_555 1_555
C9_8 C10_8 1_555 1_555
C10_8 N3_8 1_555 1_555
C11_8 C9_8 1_555 1_555
C12_4 C10_8 1_555 1_555
H4_4 C12_4 1_555 1_555
H5_4 C12_4 1_555 1_555
H6_4 C12_4 1_555 1_555
C14_8 C11_8 1_555 1_555
H10_8 C14_8 1_555 1_555
H11_8 C14_8 1_555 1_555
H12_8 C14_8 1_555 1_555
C2_8 C3_8 1_555 1_555
C5_8 C6_8 1_555 1_555
H4_5 C12_5 1_555 1_555
H5_5 C12_5 1_555 1_555
H6_5 C12_5 1_555 1_555
H4_6 C12_6 1_555 1_555
H5_6 C12_6 1_555 1_555
H6_6 C12_6 1_555 1_555
H4_7 C12_7 1_555 1_555
H5_7 C12_7 1_555 1_555
H6_7 C12_7 1_555 1_555
H4_8 C12_8 1_555 1_555
H5_8 C12_8 1_555 1_555
H6_8 C12_8 1_555 1_555

#END
