
###############################################################################
#
# This file contains modified crystal structure data generated from the
# MOF subset of the Cambridge Structural Database (CSD) v543 
# hosted by the Cambridge Crystallographic Data Centre (CCDC).
#
# This work is licensed under the Creative Commons
# Attribution-NonCommercial-ShareAlike 4.0 International License.
# To view a copy of this license, visit
# http://creativecommons.org/licenses/by-nc-sa/4.0/
# or send a letter to
# Creative Commons, PO Box 1866, Mountain View, CA 94042, USA.
#
# CIF created using the CSD Python API on 29 September 2022
# The structure has been converted into the P1 space group
# The structure has a 3D framework
# The original CSD entry KEKZIN02 is in the tetragonal crystal system
# The original CSD entry KEKZIN02 is in a Sohncke space group
# The framework has been calculated to contain at least 10.0% void space
# The void calculation uses a probe of radius 1.32A, grid spacing 0.4
#
###############################################################################

data_KEKZIN02
_chemical_formula_moiety         '(C112 H96 N32 O32 Zn6)n'
_symmetry_cell_setting           triclinic
_symmetry_space_group_name_H-M   'P 1'
_symmetry_Int_Tables_number      1
_space_group_name_Hall           'P 1'
loop_
_symmetry_equiv_pos_site_id
_symmetry_equiv_pos_as_xyz
1 x,y,z
_cell_length_a                   12.9058(6)
_cell_length_b                   12.9058(6)
_cell_length_c                   25.5686(18)
_cell_angle_alpha                90
_cell_angle_beta                 90
_cell_angle_gamma                90
_cell_volume                     4258.7
loop_
_atom_site_label
_atom_site_type_symbol
_atom_site_fract_x
_atom_site_fract_y
_atom_site_fract_z
C13 C 0.5048(3) 0.0974(3) 0.31539(18)
H7 H 0.470679 0.112826 0.348735
H8 H 0.453033 0.095871 0.287376
H9 H 0.556373 0.151134 0.307837
Zn3 Zn 0.75035(2) 0.09238(2) 0.27003(2)
Zn1 Zn 0.40762(2) 0.25035(2) 0.52003(2)
O1 O 0.48133(15) 0.30205(14) 0.45512(8)
N1 N 0.6402(2) 0.66762(18) 0.33043(11)
C1 C 0.5419(2) 0.4258(2) 0.39479(11)
O2 O 0.38671(14) 0.44647(14) 0.44240(8)
N2 N 0.5693(2) 0.72904(19) 0.34412(11)
C2 C 0.5458(2) 0.5295(2) 0.38037(13)
H1 H 0.496872 0.577561 0.393871
N3 N 0.5562(2) 0.99649(19) 0.31874(12)
O3 O 0.73713(17) 0.21438(14) 0.32071(7)
C3 C 0.6232(2) 0.5622(2) 0.34559(12)
O4 O 0.81829(15) 0.34244(15) 0.27790(8)
N4 N 0.65530(18) 0.98260(17) 0.30137(9)
C4 C 0.6925(2) 0.4918(2) 0.32415(11)
H2 H 0.745051 0.514919 0.300899
C5 C 0.6848(2) 0.3865(2) 0.33689(11)
C6 C 0.6111(2) 0.3553(2) 0.37272(11)
H3 H 0.607548 0.284431 0.382545
C7 C 0.4636(2) 0.3887(2) 0.43371(11)
C8 C 0.7536(3) 0.3090(2) 0.30998(10)
C9 C 0.5886(3) 0.8320(2) 0.32940(13)
C10 C 0.5136(3) 0.9080(3) 0.33588(16)
C11 C 0.6756(2) 0.8809(2) 0.30769(12)
C12 C 0.4062(3) 0.9020(3) 0.3575(2)
H4 H 0.399903 0.949179 0.387389
H5 H 0.391914 0.830942 0.368964
H6 H 0.356366 0.921942 0.330419
C14 C 0.7784(2) 0.8357(2) 0.29419(17)
H10 H 0.824065 0.890461 0.280950
H11 H 0.769569 0.782428 0.267263
H12 H 0.809289 0.804601 0.325489
Zn4 Zn 0.90762(2) 0.24965(2) 0.22997(2)
Zn5 Zn 0.25035(2) 0.40762(2) 0.47997(2)
O5 O 0.44647(14) 0.38671(14) 0.55760(8)
O6 O 0.28562(14) 0.23713(17) 0.57071(7)
O7 O 0.31829(15) 0.15756(15) 0.47210(8)
N5 N 0.51740(17) 0.15530(18) 0.55137(9)
Zn1_2 Zn 0.59238(2) 0.74965(2) 0.02003(2)
O5_2 O 0.55353(14) 0.61329(14) 0.05760(8)
O6_2 O 0.71438(14) 0.76287(17) 0.07071(7)
N5_2 N 0.48260(17) 0.84470(18) 0.05137(9)
O1_2 O 0.51867(15) 0.69795(14) 0.95512(8)
N1_2 N 0.3598(2) 0.33238(18) 0.83043(11)
C1_2 C 0.4581(2) 0.5742(2) 0.89479(11)
O2_2 O 0.61329(14) 0.55353(14) 0.94240(8)
N2_2 N 0.4307(2) 0.27096(19) 0.84412(11)
C2_2 C 0.4542(2) 0.4705(2) 0.88037(13)
H1_2 H 0.503128 0.422439 0.893871
N3_2 N 0.4438(2) 0.00351(19) 0.81874(12)
O3_2 O 0.26287(17) 0.78562(14) 0.82071(7)
C3_2 C 0.3768(2) 0.4378(2) 0.84559(12)
O4_2 O 0.18171(15) 0.65756(15) 0.77790(8)
N4_2 N 0.34470(18) 0.01740(17) 0.80137(9)
C4_2 C 0.3075(2) 0.5082(2) 0.82415(11)
H2_2 H 0.254949 0.485081 0.800899
C5_2 C 0.3152(2) 0.6135(2) 0.83689(11)
C6_2 C 0.3889(2) 0.6447(2) 0.87272(11)
H3_2 H 0.392452 0.715569 0.882545
C7_2 C 0.5364(2) 0.6113(2) 0.93371(11)
C8_2 C 0.2464(3) 0.6910(2) 0.80998(10)
C9_2 C 0.4114(3) 0.1680(2) 0.82940(13)
C10_2 C 0.4864(3) 0.0920(3) 0.83588(16)
C11_2 C 0.3244(2) 0.1191(2) 0.80769(12)
C12_2 C 0.5938(3) 0.0980(3) 0.8575(2)
H4_2 H 0.600097 0.050821 0.887389
H5_2 H 0.608086 0.169058 0.868964
H6_2 H 0.643634 0.078058 0.830419
C14_2 C 0.2216(2) 0.1643(2) 0.79419(17)
H10_2 H 0.175935 0.109539 0.780950
H11_2 H 0.230431 0.217572 0.767263
H12_2 H 0.190711 0.195399 0.825489
Zn2 Zn 0.24965(2) 0.90762(2) 0.77003(2)
Zn4_2 Zn 0.09238(2) 0.75035(2) 0.72997(2)
Zn5_2 Zn 0.74965(2) 0.59238(2) 0.97997(2)
O7_2 O 0.68171(15) 0.84244(15) 0.97210(8)
C13_2 C 0.4952(3) 0.9026(3) 0.81539(18)
H7_2 H 0.529321 0.887174 0.848735
H8_2 H 0.546967 0.904129 0.787376
H9_2 H 0.443627 0.848866 0.807837
C1_3 C 0.0742(2) 0.0419(2) 0.64479(11)
O4_3 O 0.15756(15) 0.31829(15) 0.52790(8)
C4_3 C 0.0082(2) 0.1925(2) 0.57415(11)
C5_3 C 0.1135(2) 0.1848(2) 0.58689(11)
C6_3 C 0.1447(2) 0.1111(2) 0.62272(11)
H3_3 H 0.215569 0.107548 0.632545
C8_3 C 0.1910(2) 0.2536(3) 0.55998(10)
O1_3 O 0.19795(14) 0.98133(15) 0.70512(8)
O2_3 O 0.05353(14) 0.88671(14) 0.69240(8)
C7_3 C 0.1113(2) 0.9636(2) 0.68371(11)
O5_3 O 0.11329(14) 0.94647(14) 0.80760(8)
O7_3 O 0.34244(15) 0.81829(15) 0.72210(8)
N1_3 N 0.83238(18) 0.1402(2) 0.58043(11)
N2_3 N 0.77096(19) 0.0693(2) 0.59412(11)
C2_3 C 0.9705(2) 0.0458(2) 0.63037(13)
N3_3 N 0.50351(19) 0.0562(2) 0.56874(12)
C3_3 C 0.9378(2) 0.1232(2) 0.59559(12)
H2_3 H 0.985081 0.245051 0.550899
C9_3 C 0.6680(2) 0.0886(3) 0.57940(13)
C10_3 C 0.5920(3) 0.0136(3) 0.58588(16)
C11_3 C 0.6191(2) 0.1756(2) 0.55769(12)
C13_3 C 0.4026(3) 0.0048(3) 0.56539(18)
H9_3 H 0.348866 0.056373 0.557837
C14_3 C 0.6643(2) 0.2784(2) 0.54419(17)
H10_3 H 0.609539 0.324065 0.530950
H11_3 H 0.717572 0.269569 0.517263
H12_3 H 0.695399 0.309289 0.575489
N1_4 N 0.16762(18) 0.8598(2) 0.08043(11)
N2_4 N 0.22904(19) 0.9307(2) 0.09412(11)
C2_4 C 0.0295(2) 0.9542(2) 0.13037(13)
N3_4 N 0.49649(19) 0.9438(2) 0.06874(12)
C3_4 C 0.0622(2) 0.8768(2) 0.09559(12)
H2_4 H 0.014919 0.754949 0.050899
C9_4 C 0.3320(2) 0.9114(3) 0.07940(13)
C10_4 C 0.4080(3) 0.9864(3) 0.08588(16)
C11_4 C 0.3809(2) 0.8244(2) 0.05769(12)
C13_4 C 0.5974(3) 0.9952(3) 0.06539(18)
H9_4 H 0.651134 0.943627 0.057837
C14_4 C 0.3357(2) 0.7216(2) 0.04419(17)
H10_4 H 0.390461 0.675935 0.030950
H11_4 H 0.282428 0.730431 0.017263
H12_4 H 0.304601 0.690711 0.075489
O1_4 O 0.80205(14) 0.01867(15) 0.20512(8)
O2_4 O 0.94647(14) 0.11329(14) 0.19240(8)
C7_4 C 0.8887(2) 0.0364(2) 0.18371(11)
O5_4 O 0.88671(14) 0.05353(14) 0.30760(8)
O7_4 O 0.65756(15) 0.18171(15) 0.22210(8)
C1_4 C 0.9258(2) 0.9581(2) 0.14479(11)
O4_4 O 0.84244(15) 0.68171(15) 0.02790(8)
C4_4 C 0.9918(2) 0.8075(2) 0.07415(11)
C5_4 C 0.8865(2) 0.8152(2) 0.08689(11)
C6_4 C 0.8553(2) 0.8889(2) 0.12272(11)
H3_4 H 0.784431 0.892452 0.132545
C8_4 C 0.8090(2) 0.7464(3) 0.05998(10)
O1_5 O 0.01867(15) 0.80205(14) 0.79488(8)
C7_5 C 0.0364(2) 0.8887(2) 0.81629(11)
O6_3 O 0.21438(14) 0.73713(17) 0.67929(7)
N1_5 N 0.8598(2) 0.16762(18) 0.91957(11)
N2_5 N 0.9307(2) 0.22904(19) 0.90588(11)
C2_5 C 0.9542(2) 0.0295(2) 0.86963(13)
N3_5 N 0.9438(2) 0.49649(19) 0.93126(12)
C3_5 C 0.8768(2) 0.0622(2) 0.90441(12)
N4_3 N 0.84470(18) 0.48260(17) 0.94863(9)
H2_5 H 0.754949 0.014919 0.949101
C9_5 C 0.9114(3) 0.3320(2) 0.92060(13)
C10_5 C 0.9864(3) 0.4080(3) 0.91412(16)
C11_5 C 0.8244(2) 0.3809(2) 0.94231(12)
C13_5 C 0.9952(3) 0.5974(3) 0.93461(18)
H9_5 H 0.943627 0.651134 0.942163
C14_5 C 0.7216(2) 0.3357(2) 0.95581(17)
H10_5 H 0.675935 0.390461 0.969050
H11_5 H 0.730431 0.282428 0.982737
H12_5 H 0.690711 0.304601 0.924511
C1_5 C 0.9581(2) 0.9258(2) 0.85521(11)
O3_3 O 0.76287(17) 0.71438(14) 0.92929(7)
C4_5 C 0.8075(2) 0.9918(2) 0.92585(11)
C5_5 C 0.8152(2) 0.8865(2) 0.91311(11)
C6_5 C 0.8889(2) 0.8553(2) 0.87728(11)
H3_5 H 0.892452 0.784431 0.867455
C8_5 C 0.7464(3) 0.8090(2) 0.94002(10)
N5_3 N 0.98260(17) 0.65530(18) 0.69863(9)
C1_6 C 0.0419(2) 0.0742(2) 0.35521(11)
O3_4 O 0.23713(17) 0.28562(14) 0.42929(7)
C4_6 C 0.1925(2) 0.0082(2) 0.42585(11)
C5_6 C 0.1848(2) 0.1135(2) 0.41311(11)
C6_6 C 0.1111(2) 0.1447(2) 0.37728(11)
H3_6 H 0.107548 0.215569 0.367455
C8_6 C 0.2536(3) 0.1910(2) 0.44002(10)
N5_4 N 0.01740(17) 0.34470(18) 0.19863(9)
N1_6 N 0.1402(2) 0.83238(18) 0.41957(11)
N2_6 N 0.0693(2) 0.77096(19) 0.40588(11)
C2_6 C 0.0458(2) 0.9705(2) 0.36963(13)
N3_6 N 0.0562(2) 0.50351(19) 0.43126(12)
C3_6 C 0.1232(2) 0.9378(2) 0.40441(12)
N4_4 N 0.15530(18) 0.51740(17) 0.44863(9)
H2_6 H 0.245051 0.985081 0.449101
C9_6 C 0.0886(3) 0.6680(2) 0.42060(13)
C10_6 C 0.0136(3) 0.5920(3) 0.41412(16)
C11_6 C 0.1756(2) 0.6191(2) 0.44231(12)
C13_6 C 0.0048(3) 0.4026(3) 0.43461(18)
H9_6 H 0.056373 0.348866 0.442163
C14_6 C 0.2784(2) 0.6643(2) 0.45581(17)
H10_6 H 0.324065 0.609539 0.469050
H11_6 H 0.269569 0.717572 0.482737
H12_6 H 0.309289 0.695399 0.424511
O1_6 O 0.98133(15) 0.19795(14) 0.29488(8)
C7_6 C 0.9636(2) 0.1113(2) 0.31629(11)
O6_4 O 0.78562(14) 0.26287(17) 0.17929(7)
C13_7 C 0.0974(3) 0.5048(3) 0.68461(18)
H7_3 H 0.112826 0.470679 0.651265
H8_3 H 0.095871 0.453033 0.712624
H9_7 H 0.151134 0.556373 0.692163
O1_7 O 0.30205(14) 0.48133(15) 0.54488(8)
N1_7 N 0.66762(18) 0.6402(2) 0.66957(11)
C1_7 C 0.4258(2) 0.5419(2) 0.60521(11)
N2_7 N 0.72904(19) 0.5693(2) 0.65588(11)
C2_7 C 0.5295(2) 0.5458(2) 0.61963(13)
H1_3 H 0.577561 0.496872 0.606129
N3_7 N 0.99649(19) 0.5562(2) 0.68126(12)
C3_7 C 0.5622(2) 0.6232(2) 0.65441(12)
C4_7 C 0.4918(2) 0.6925(2) 0.67585(11)
H2_7 H 0.514919 0.745051 0.699101
C5_7 C 0.3865(2) 0.6848(2) 0.66311(11)
C6_7 C 0.3553(2) 0.6111(2) 0.62728(11)
H3_7 H 0.284431 0.607548 0.617455
C7_7 C 0.3887(2) 0.4636(2) 0.56629(11)
C8_7 C 0.3090(2) 0.7536(3) 0.69002(10)
C9_7 C 0.8320(2) 0.5886(3) 0.67060(13)
C10_7 C 0.9080(3) 0.5136(3) 0.66412(16)
C11_7 C 0.8809(2) 0.6756(2) 0.69231(12)
C12_3 C 0.9020(3) 0.4062(3) 0.6425(2)
H4_3 H 0.949179 0.399903 0.612611
H5_3 H 0.830942 0.391914 0.631036
H6_3 H 0.921942 0.356366 0.669581
C14_7 C 0.8357(2) 0.7784(2) 0.70581(17)
H10_7 H 0.890461 0.824065 0.719050
H11_7 H 0.782428 0.769569 0.732737
H12_7 H 0.804601 0.809289 0.674511
O1_8 O 0.69795(14) 0.51867(15) 0.04488(8)
N1_8 N 0.33238(18) 0.3598(2) 0.16957(11)
C1_8 C 0.5742(2) 0.4581(2) 0.10521(11)
N2_8 N 0.27096(19) 0.4307(2) 0.15588(11)
C2_8 C 0.4705(2) 0.4542(2) 0.11963(13)
H1_4 H 0.422439 0.503128 0.106129
N3_8 N 0.00351(19) 0.4438(2) 0.18126(12)
C3_8 C 0.4378(2) 0.3768(2) 0.15441(12)
C4_8 C 0.5082(2) 0.3075(2) 0.17585(11)
H2_8 H 0.485081 0.254949 0.199101
C5_8 C 0.6135(2) 0.3152(2) 0.16311(11)
C6_8 C 0.6447(2) 0.3889(2) 0.12728(11)
H3_8 H 0.715569 0.392452 0.117455
C7_8 C 0.6113(2) 0.5364(2) 0.06629(11)
C8_8 C 0.6910(2) 0.2464(3) 0.19002(10)
C9_8 C 0.1680(2) 0.4114(3) 0.17060(13)
C10_8 C 0.0920(3) 0.4864(3) 0.16412(16)
C11_8 C 0.1191(2) 0.3244(2) 0.19231(12)
C12_4 C 0.0980(3) 0.5938(3) 0.1425(2)
H4_4 H 0.050821 0.600097 0.112611
H5_4 H 0.169058 0.608086 0.131036
H6_4 H 0.078058 0.643634 0.169581
C14_8 C 0.1643(2) 0.2216(2) 0.20581(17)
H10_8 H 0.109539 0.175935 0.219050
H11_8 H 0.217572 0.230431 0.232737
H12_8 H 0.195399 0.190711 0.174511
C13_8 C 0.9026(3) 0.4952(3) 0.18461(18)
H7_4 H 0.887174 0.529321 0.151265
H8_4 H 0.904129 0.546967 0.212624
H9_8 H 0.848866 0.443627 0.192163
H1_5 H 0.922439 0.996872 0.643871
C12_5 C 0.5980(3) 0.9062(3) 0.6075(2)
H4_5 H 0.550821 0.899903 0.637389
H5_5 H 0.669058 0.891914 0.618964
H6_5 H 0.578058 0.856366 0.580419
H7_5 H 0.387174 0.970679 0.598735
H8_5 H 0.404129 0.953033 0.537376
H1_6 H 0.077561 0.003128 0.143871
C12_6 C 0.4020(3) 0.0938(3) 0.1075(2)
H4_6 H 0.449179 0.100097 0.137389
H5_6 H 0.330942 0.108086 0.118964
H6_6 H 0.421942 0.143634 0.080419
H7_6 H 0.612826 0.029321 0.098735
H8_6 H 0.595871 0.046967 0.037376
H1_7 H 0.003128 0.077561 0.856129
C12_7 C 0.0938(3) 0.4020(3) 0.8925(2)
H4_7 H 0.100097 0.449179 0.862611
H5_7 H 0.108086 0.330942 0.881036
H6_7 H 0.143634 0.421942 0.919581
H7_7 H 0.029321 0.612826 0.901265
H8_7 H 0.046967 0.595871 0.962624
H1_8 H 0.996872 0.922439 0.356129
C12_8 C 0.9062(3) 0.5980(3) 0.3925(2)
H4_8 H 0.899903 0.550821 0.362611
H5_8 H 0.891914 0.669058 0.381036
H6_8 H 0.856366 0.578058 0.419581
H7_8 H 0.970679 0.387174 0.401265
H8_8 H 0.953033 0.404129 0.462624
loop_
_geom_bond_atom_site_label_1
_geom_bond_atom_site_label_2
_geom_bond_site_symmetry_1
_geom_bond_site_symmetry_2
H7 C13 1_555 1_555
H8 C13 1_555 1_555
H9 C13 1_555 1_555
Zn1 O1 1_555 1_555
O1 C7 1_555 1_555
N1 N2 1_555 1_555
C1 C2 1_555 1_555
O2 C7 1_555 1_555
N2 C9 1_555 1_555
C2 H1 1_555 1_555
N3 N4 1_555 1_555
O3 C8 1_555 1_555
C3 N1 1_555 1_555
O4 C8 1_555 1_555
N4 C11 1_555 1_555
C4 C3 1_555 1_555
H2 C4 1_555 1_555
C5 C4 1_555 1_555
C6 C1 1_555 1_555
H3 C6 1_555 1_555
C7 C1 1_555 1_555
C8 C5 1_555 1_555
C9 C10 1_555 1_555
C10 N3 1_555 1_555
C11 C9 1_555 1_555
C12 C10 1_555 1_555
H4 C12 1_555 1_555
H5 C12 1_555 1_555
H6 C12 1_555 1_555
C14 C11 1_555 1_555
H10 C14 1_555 1_555
H11 C14 1_555 1_555
H12 C14 1_555 1_555
Zn3 O3 1_555 1_555
Zn4 O4 1_555 1_555
Zn5 O2 1_555 1_555
O5 Zn1 1_555 1_555
O6 Zn1 1_555 1_555
O7 Zn1 1_555 1_555
N5 Zn1 1_555 1_555
C2 C3 1_555 1_555
C5 C6 1_555 1_555
O5_2 Zn1_2 1_555 1_555
O6_2 Zn1_2 1_555 1_555
N5_2 Zn1_2 1_555 1_555
O1_2 C7_2 1_555 1_555
N1_2 N2_2 1_555 1_555
C1_2 C2_2 1_555 1_555
O2_2 C7_2 1_555 1_555
N2_2 C9_2 1_555 1_555
C2_2 H1_2 1_555 1_555
N3_2 N4_2 1_555 1_555
O3_2 C8_2 1_555 1_555
C3_2 N1_2 1_555 1_555
O4_2 C8_2 1_555 1_555
N4_2 C11_2 1_555 1_555
C4_2 C3_2 1_555 1_555
H2_2 C4_2 1_555 1_555
C5_2 C4_2 1_555 1_555
C6_2 C1_2 1_555 1_555
H3_2 C6_2 1_555 1_555
C7_2 C1_2 1_555 1_555
C8_2 C5_2 1_555 1_555
C9_2 C10_2 1_555 1_555
C10_2 N3_2 1_555 1_555
C11_2 C9_2 1_555 1_555
C12_2 C10_2 1_555 1_555
H4_2 C12_2 1_555 1_555
H5_2 C12_2 1_555 1_555
H6_2 C12_2 1_555 1_555
C14_2 C11_2 1_555 1_555
H10_2 C14_2 1_555 1_555
H11_2 C14_2 1_555 1_555
H12_2 C14_2 1_555 1_555
Zn2 O3_2 1_555 1_555
Zn4_2 O4_2 1_555 1_555
Zn5_2 O2_2 1_555 1_555
C2_2 C3_2 1_555 1_555
C5_2 C6_2 1_555 1_555
H7_2 C13_2 1_555 1_555
H8_2 C13_2 1_555 1_555
H9_2 C13_2 1_555 1_555
O6 C8_3 1_555 1_555
O4_3 C8_3 1_555 1_555
C5_3 C4_3 1_555 1_555
C6_3 C1_3 1_555 1_555
H3_3 C6_3 1_555 1_555
C8_3 C5_3 1_555 1_555
Zn5 O4_3 1_555 1_555
C5_3 C6_3 1_555 1_555
Zn2 O1_3 1_555 1_555
O1_3 C7_3 1_555 1_555
O2_3 C7_3 1_555 1_555
Zn4_2 O2_3 1_555 1_555
O5_3 Zn2 1_555 1_555
O7_3 Zn2 1_555 1_555
N1_3 N2_3 1_555 1_555
N2_3 C9_3 1_555 1_555
N3_3 N5 1_555 1_555
C3_3 N1_3 1_555 1_555
N5 C11_3 1_555 1_555
C9_3 C10_3 1_555 1_555
C10_3 N3_3 1_555 1_555
C11_3 C9_3 1_555 1_555
C13_3 N3_3 1_555 1_555
H9_3 C13_3 1_555 1_555
C14_3 C11_3 1_555 1_555
H10_3 C14_3 1_555 1_555
H11_3 C14_3 1_555 1_555
H12_3 C14_3 1_555 1_555
C2_3 C3_3 1_555 1_555
N1_4 N2_4 1_555 1_555
N2_4 C9_4 1_555 1_555
N3_4 N5_2 1_555 1_555
C3_4 N1_4 1_555 1_555
N5_2 C11_4 1_555 1_555
C9_4 C10_4 1_555 1_555
C10_4 N3_4 1_555 1_555
C11_4 C9_4 1_555 1_555
C13_4 N3_4 1_555 1_555
H9_4 C13_4 1_555 1_555
C14_4 C11_4 1_555 1_555
H10_4 C14_4 1_555 1_555
H11_4 C14_4 1_555 1_555
H12_4 C14_4 1_555 1_555
C2_4 C3_4 1_555 1_555
Zn3 O1_4 1_555 1_555
O1_4 C7_4 1_555 1_555
O2_4 C7_4 1_555 1_555
Zn4 O2_4 1_555 1_555
O5_4 Zn3 1_555 1_555
O7_4 Zn3 1_555 1_555
O6_2 C8_4 1_555 1_555
O4_4 C8_4 1_555 1_555
C5_4 C4_4 1_555 1_555
C6_4 C1_4 1_555 1_555
H3_4 C6_4 1_555 1_555
C8_4 C5_4 1_555 1_555
C5_4 C6_4 1_555 1_555
Zn4_2 O1_5 1_555 1_555
O1_5 C7_5 1_555 1_555
O5_3 C7_5 1_555 1_555
O6_3 Zn4_2 1_555 1_555
N1_5 N2_5 1_555 1_555
N2_5 C9_5 1_555 1_555
N3_5 N4_3 1_555 1_555
C3_5 N1_5 1_555 1_555
N4_3 C11_5 1_555 1_555
C9_5 C10_5 1_555 1_555
C10_5 N3_5 1_555 1_555
C11_5 C9_5 1_555 1_555
C13_5 N3_5 1_555 1_555
H9_5 C13_5 1_555 1_555
C14_5 C11_5 1_555 1_555
H10_5 C14_5 1_555 1_555
H11_5 C14_5 1_555 1_555
H12_5 C14_5 1_555 1_555
Zn5_2 N4_3 1_555 1_555
C2_5 C3_5 1_555 1_555
O3_3 C8_5 1_555 1_555
O7_2 C8_5 1_555 1_555
C5_5 C4_5 1_555 1_555
C6_5 C1_5 1_555 1_555
H3_5 C6_5 1_555 1_555
C8_5 C5_5 1_555 1_555
Zn5_2 O3_3 1_555 1_555
C5_5 C6_5 1_555 1_555
O3_4 C8_6 1_555 1_555
O7 C8_6 1_555 1_555
C5_6 C4_6 1_555 1_555
C6_6 C1_6 1_555 1_555
H3_6 C6_6 1_555 1_555
C8_6 C5_6 1_555 1_555
Zn5 O3_4 1_555 1_555
C5_6 C6_6 1_555 1_555
N1_6 N2_6 1_555 1_555
N2_6 C9_6 1_555 1_555
N3_6 N4_4 1_555 1_555
C3_6 N1_6 1_555 1_555
N4_4 C11_6 1_555 1_555
C9_6 C10_6 1_555 1_555
C10_6 N3_6 1_555 1_555
C11_6 C9_6 1_555 1_555
C13_6 N3_6 1_555 1_555
H9_6 C13_6 1_555 1_555
C14_6 C11_6 1_555 1_555
H10_6 C14_6 1_555 1_555
H11_6 C14_6 1_555 1_555
H12_6 C14_6 1_555 1_555
Zn5 N4_4 1_555 1_555
C2_6 C3_6 1_555 1_555
Zn4 O1_6 1_555 1_555
O1_6 C7_6 1_555 1_555
O5_4 C7_6 1_555 1_555
O6_4 Zn4 1_555 1_555
H7_3 C13_7 1_555 1_555
H8_3 C13_7 1_555 1_555
H9_7 C13_7 1_555 1_555
Zn5 O1_7 1_555 1_555
O1_7 C7_7 1_555 1_555
N1_7 N2_7 1_555 1_555
C1_7 C2_7 1_555 1_555
O5 C7_7 1_555 1_555
N2_7 C9_7 1_555 1_555
C2_7 H1_3 1_555 1_555
N3_7 N5_3 1_555 1_555
O6_3 C8_7 1_555 1_555
C3_7 N1_7 1_555 1_555
O7_3 C8_7 1_555 1_555
N5_3 C11_7 1_555 1_555
C4_7 C3_7 1_555 1_555
H2_7 C4_7 1_555 1_555
C5_7 C4_7 1_555 1_555
C6_7 C1_7 1_555 1_555
H3_7 C6_7 1_555 1_555
C7_7 C1_7 1_555 1_555
C8_7 C5_7 1_555 1_555
C9_7 C10_7 1_555 1_555
C10_7 N3_7 1_555 1_555
C11_7 C9_7 1_555 1_555
C12_3 C10_7 1_555 1_555
H4_3 C12_3 1_555 1_555
H5_3 C12_3 1_555 1_555
H6_3 C12_3 1_555 1_555
C14_7 C11_7 1_555 1_555
H10_7 C14_7 1_555 1_555
H11_7 C14_7 1_555 1_555
H12_7 C14_7 1_555 1_555
C2_7 C3_7 1_555 1_555
C5_7 C6_7 1_555 1_555
O1_8 C7_8 1_555 1_555
N1_8 N2_8 1_555 1_555
C1_8 C2_8 1_555 1_555
O5_2 C7_8 1_555 1_555
N2_8 C9_8 1_555 1_555
C2_8 H1_4 1_555 1_555
N3_8 N5_4 1_555 1_555
O6_4 C8_8 1_555 1_555
C3_8 N1_8 1_555 1_555
O7_4 C8_8 1_555 1_555
N5_4 C11_8 1_555 1_555
C4_8 C3_8 1_555 1_555
H2_8 C4_8 1_555 1_555
C5_8 C4_8 1_555 1_555
C6_8 C1_8 1_555 1_555
H3_8 C6_8 1_555 1_555
C7_8 C1_8 1_555 1_555
C8_8 C5_8 1_555 1_555
C9_8 C10_8 1_555 1_555
C10_8 N3_8 1_555 1_555
C11_8 C9_8 1_555 1_555
C12_4 C10_8 1_555 1_555
H4_4 C12_4 1_555 1_555
H5_4 C12_4 1_555 1_555
H6_4 C12_4 1_555 1_555
C14_8 C11_8 1_555 1_555
H10_8 C14_8 1_555 1_555
H11_8 C14_8 1_555 1_555
H12_8 C14_8 1_555 1_555
C2_8 C3_8 1_555 1_555
C5_8 C6_8 1_555 1_555
H7_4 C13_8 1_555 1_555
H8_4 C13_8 1_555 1_555
H9_8 C13_8 1_555 1_555
H4_5 C12_5 1_555 1_555
H5_5 C12_5 1_555 1_555
H6_5 C12_5 1_555 1_555
H4_6 C12_6 1_555 1_555
H5_6 C12_6 1_555 1_555
H6_6 C12_6 1_555 1_555
H4_7 C12_7 1_555 1_555
H5_7 C12_7 1_555 1_555
H6_7 C12_7 1_555 1_555
H4_8 C12_8 1_555 1_555
H5_8 C12_8 1_555 1_555
H6_8 C12_8 1_555 1_555

#END
