
###############################################################################
#
# This file contains modified crystal structure data generated from the
# MOF subset of the Cambridge Structural Database (CSD) v543 
# hosted by the Cambridge Crystallographic Data Centre (CCDC).
#
# This work is licensed under the Creative Commons
# Attribution-NonCommercial-ShareAlike 4.0 International License.
# To view a copy of this license, visit
# http://creativecommons.org/licenses/by-nc-sa/4.0/
# or send a letter to
# Creative Commons, PO Box 1866, Mountain View, CA 94042, USA.
#
# CIF created using the CSD Python API on 29 September 2022
# The structure has been converted into the P1 space group
# The structure has a 3D framework
# The original CSD entry KEKZIN03 is in the tetragonal crystal system
# The original CSD entry KEKZIN03 is in a Sohncke space group
# The framework has been calculated to contain at least 10.0% void space
# The void calculation uses a probe of radius 1.32A, grid spacing 0.4
#
###############################################################################

data_KEKZIN03
_chemical_formula_moiety         '(C112 H96 N32 O32 Zn6)n'
_symmetry_cell_setting           triclinic
_symmetry_space_group_name_H-M   'P 1'
_symmetry_Int_Tables_number      1
_space_group_name_Hall           'P 1'
loop_
_symmetry_equiv_pos_site_id
_symmetry_equiv_pos_as_xyz
1 x,y,z
_cell_length_a                   12.89103(4)
_cell_length_b                   12.89103(4)
_cell_length_c                   25.47177(13)
_cell_angle_alpha                90
_cell_angle_beta                 90
_cell_angle_gamma                90
_cell_volume                     4232.86
loop_
_atom_site_label
_atom_site_type_symbol
_atom_site_fract_x
_atom_site_fract_y
_atom_site_fract_z
C13 C 0.5042(2) 0.0995(2) 0.31498(14)
H7 H 0.477186 0.118730 0.349603
H8 H 0.446914 0.096319 0.289737
H9 H 0.554803 0.151433 0.303447
Zn3 Zn 0.75003(2) 0.09281(2) 0.27012(2)
Zn1 Zn 0.40719(2) 0.25003(2) 0.52012(2)
O1 O 0.48036(13) 0.30192(12) 0.45496(7)
N1 N 0.6388(2) 0.66769(17) 0.32959(10)
C1 C 0.54128(19) 0.42540(18) 0.39462(10)
O2 O 0.38585(13) 0.44688(13) 0.44266(7)
N2 N 0.56662(19) 0.72913(16) 0.34238(10)
C2 C 0.5455(2) 0.52998(19) 0.38011(11)
H1 H 0.496983 0.578241 0.393969
N3 N 0.55471(18) 0.99745(17) 0.31822(10)
O3 O 0.73809(15) 0.21485(12) 0.32108(6)
C3 C 0.6221(2) 0.56243(19) 0.34490(10)
O4 O 0.81772(13) 0.34322(13) 0.27732(6)
N4 N 0.65381(15) 0.98259(15) 0.30115(8)
C4 C 0.69161(19) 0.49184(19) 0.32342(10)
H2 H 0.743567 0.514798 0.299658
C5 C 0.68487(19) 0.38731(18) 0.33682(9)
C6 C 0.61130(19) 0.35546(18) 0.37284(9)
H3 H 0.608479 0.284557 0.382897
C7 C 0.46246(19) 0.38831(18) 0.43365(9)
C8 C 0.7532(2) 0.30925(17) 0.30995(9)
C9 C 0.5852(2) 0.8321(2) 0.32835(11)
C10 C 0.5107(2) 0.9077(2) 0.33413(13)
C11 C 0.6745(2) 0.88109(19) 0.30738(10)
C12 C 0.4029(3) 0.9032(3) 0.3558(2)
H4 H 0.395132 0.955356 0.383496
H5 H 0.389975 0.834050 0.370399
H6 H 0.352945 0.917164 0.327658
C14 C 0.7771(2) 0.8362(2) 0.29337(14)
H10 H 0.822158 0.890959 0.279542
H11 H 0.767737 0.782337 0.266627
H12 H 0.808918 0.805684 0.324708
Zn4 Zn 0.90719(2) 0.24997(2) 0.22988(2)
Zn5 Zn 0.25003(2) 0.40719(2) 0.47988(2)
O5 O 0.44688(13) 0.38585(13) 0.55734(7)
O6 O 0.28515(12) 0.23809(15) 0.57108(6)
O7 O 0.31772(13) 0.15678(13) 0.47268(6)
N5 N 0.51741(15) 0.15381(15) 0.55115(8)
Zn1_2 Zn 0.59281(2) 0.74997(2) 0.02012(2)
O5_2 O 0.55312(13) 0.61415(13) 0.05734(7)
O6_2 O 0.71485(12) 0.76191(15) 0.07108(6)
N5_2 N 0.48259(15) 0.84619(15) 0.05115(8)
O1_2 O 0.51964(13) 0.69808(12) 0.95496(7)
N1_2 N 0.3612(2) 0.33231(17) 0.82959(10)
C1_2 C 0.45872(19) 0.57460(18) 0.89462(10)
O2_2 O 0.61415(13) 0.55312(13) 0.94266(7)
N2_2 N 0.43338(19) 0.27087(16) 0.84238(10)
C2_2 C 0.4545(2) 0.47002(19) 0.88011(11)
H1_2 H 0.503017 0.421759 0.893969
N3_2 N 0.44529(18) 0.00255(17) 0.81822(10)
O3_2 O 0.26191(15) 0.78515(12) 0.82108(6)
C3_2 C 0.3779(2) 0.43757(19) 0.84490(10)
O4_2 O 0.18228(13) 0.65678(13) 0.77732(6)
N4_2 N 0.34619(15) 0.01741(15) 0.80115(8)
C4_2 C 0.30839(19) 0.50816(19) 0.82342(10)
H2_2 H 0.256433 0.485202 0.799658
C5_2 C 0.31513(19) 0.61269(18) 0.83682(9)
C6_2 C 0.38870(19) 0.64454(18) 0.87284(9)
H3_2 H 0.391521 0.715443 0.882897
C7_2 C 0.53754(19) 0.61169(18) 0.93365(9)
C8_2 C 0.2468(2) 0.69075(17) 0.80995(9)
C9_2 C 0.4148(2) 0.1679(2) 0.82835(11)
C10_2 C 0.4893(2) 0.0923(2) 0.83413(13)
C11_2 C 0.3255(2) 0.11891(19) 0.80738(10)
C12_2 C 0.5971(3) 0.0968(3) 0.8558(2)
H4_2 H 0.604868 0.044644 0.883496
H5_2 H 0.610025 0.165950 0.870399
H6_2 H 0.647055 0.082836 0.827658
C14_2 C 0.2229(2) 0.1638(2) 0.79337(14)
H10_2 H 0.177842 0.109041 0.779542
H11_2 H 0.232263 0.217663 0.766627
H12_2 H 0.191082 0.194316 0.824708
Zn2 Zn 0.24997(2) 0.90719(2) 0.77012(2)
Zn4_2 Zn 0.09281(2) 0.75003(2) 0.72988(2)
Zn5_2 Zn 0.74997(2) 0.59281(2) 0.97988(2)
O7_2 O 0.68228(13) 0.84322(13) 0.97268(6)
C13_2 C 0.4958(2) 0.9005(2) 0.81498(14)
H7_2 H 0.522814 0.881270 0.849603
H8_2 H 0.553086 0.903681 0.789737
H9_2 H 0.445197 0.848567 0.803447
C1_3 C 0.07460(18) 0.04128(19) 0.64462(10)
O4_3 O 0.15678(13) 0.31772(13) 0.52732(6)
C4_3 C 0.00816(19) 0.19161(19) 0.57342(10)
C5_3 C 0.11269(18) 0.18487(19) 0.58682(9)
C6_3 C 0.14454(18) 0.11130(19) 0.62284(9)
H3_3 H 0.215443 0.108479 0.632897
C8_3 C 0.19075(17) 0.2532(2) 0.55995(9)
O1_3 O 0.19808(12) 0.98036(13) 0.70496(7)
O2_3 O 0.05312(13) 0.88585(13) 0.69266(7)
C7_3 C 0.11169(18) 0.96246(19) 0.68365(9)
O5_3 O 0.11415(13) 0.94688(13) 0.80734(7)
O7_3 O 0.34322(13) 0.81772(13) 0.72268(6)
N1_3 N 0.83231(17) 0.1388(2) 0.57959(10)
N2_3 N 0.77087(16) 0.06662(19) 0.59238(10)
C2_3 C 0.97002(19) 0.0455(2) 0.63011(11)
N3_3 N 0.50255(17) 0.05471(18) 0.56822(10)
C3_3 C 0.93757(19) 0.1221(2) 0.59490(10)
H2_3 H 0.985202 0.243567 0.549658
C9_3 C 0.6679(2) 0.0852(2) 0.57835(11)
C10_3 C 0.5923(2) 0.0107(2) 0.58413(13)
C11_3 C 0.61891(19) 0.1745(2) 0.55738(10)
C13_3 C 0.4005(2) 0.0042(2) 0.56498(14)
H9_3 H 0.348567 0.054803 0.553447
C14_3 C 0.6638(2) 0.2771(2) 0.54337(14)
H10_3 H 0.609041 0.322158 0.529542
H11_3 H 0.717663 0.267737 0.516627
H12_3 H 0.694316 0.308918 0.574708
N1_4 N 0.16769(17) 0.8612(2) 0.07959(10)
N2_4 N 0.22913(16) 0.93338(19) 0.09238(10)
C2_4 C 0.02998(19) 0.9545(2) 0.13011(11)
N3_4 N 0.49745(17) 0.94529(18) 0.06822(10)
C3_4 C 0.06243(19) 0.8779(2) 0.09490(10)
H2_4 H 0.014798 0.756433 0.049658
C9_4 C 0.3321(2) 0.9148(2) 0.07835(11)
C10_4 C 0.4077(2) 0.9893(2) 0.08413(13)
C11_4 C 0.38109(19) 0.8255(2) 0.05738(10)
C13_4 C 0.5995(2) 0.9958(2) 0.06498(14)
H9_4 H 0.651433 0.945197 0.053447
C14_4 C 0.3362(2) 0.7229(2) 0.04337(14)
H10_4 H 0.390959 0.677842 0.029542
H11_4 H 0.282337 0.732263 0.016627
H12_4 H 0.305684 0.691082 0.074708
O1_4 O 0.80192(12) 0.01964(13) 0.20496(7)
O2_4 O 0.94688(13) 0.11415(13) 0.19266(7)
C7_4 C 0.88831(18) 0.03754(19) 0.18365(9)
O5_4 O 0.88585(13) 0.05312(13) 0.30734(7)
O7_4 O 0.65678(13) 0.18228(13) 0.22268(6)
C1_4 C 0.92540(18) 0.95872(19) 0.14462(10)
O4_4 O 0.84322(13) 0.68228(13) 0.02732(6)
C4_4 C 0.99184(19) 0.80839(19) 0.07342(10)
C5_4 C 0.88731(18) 0.81513(19) 0.08682(9)
C6_4 C 0.85546(18) 0.88870(19) 0.12284(9)
H3_4 H 0.784557 0.891521 0.132897
C8_4 C 0.80925(17) 0.7468(2) 0.05995(9)
O1_5 O 0.01964(13) 0.80192(12) 0.79504(7)
C7_5 C 0.03754(19) 0.88831(18) 0.81635(9)
O6_3 O 0.21485(12) 0.73809(15) 0.67892(6)
N1_5 N 0.8612(2) 0.16769(17) 0.92041(10)
N2_5 N 0.93338(19) 0.22913(16) 0.90762(10)
C2_5 C 0.9545(2) 0.02998(19) 0.86989(11)
N3_5 N 0.94529(18) 0.49745(17) 0.93178(10)
C3_5 C 0.8779(2) 0.06243(19) 0.90510(10)
N4_3 N 0.84619(15) 0.48259(15) 0.94885(8)
H2_5 H 0.756433 0.014798 0.950342
C9_5 C 0.9148(2) 0.3321(2) 0.92165(11)
C10_5 C 0.9893(2) 0.4077(2) 0.91587(13)
C11_5 C 0.8255(2) 0.38109(19) 0.94262(10)
C13_5 C 0.9958(2) 0.5995(2) 0.93502(14)
H9_5 H 0.945197 0.651433 0.946553
C14_5 C 0.7229(2) 0.3362(2) 0.95663(14)
H10_5 H 0.677842 0.390959 0.970458
H11_5 H 0.732263 0.282337 0.983373
H12_5 H 0.691082 0.305684 0.925292
C1_5 C 0.95872(19) 0.92540(18) 0.85538(10)
O3_3 O 0.76191(15) 0.71485(12) 0.92892(6)
C4_5 C 0.80839(19) 0.99184(19) 0.92658(10)
C5_5 C 0.81513(19) 0.88731(18) 0.91318(9)
C6_5 C 0.88870(19) 0.85546(18) 0.87716(9)
H3_5 H 0.891521 0.784557 0.867103
C8_5 C 0.7468(2) 0.80925(17) 0.94005(9)
N5_3 N 0.98259(15) 0.65381(15) 0.69885(8)
C1_6 C 0.04128(19) 0.07460(18) 0.35538(10)
O3_4 O 0.23809(15) 0.28515(12) 0.42892(6)
C4_6 C 0.19161(19) 0.00816(19) 0.42658(10)
C5_6 C 0.18487(19) 0.11269(18) 0.41318(9)
C6_6 C 0.11130(19) 0.14454(18) 0.37716(9)
H3_6 H 0.108479 0.215443 0.367103
C8_6 C 0.2532(2) 0.19075(17) 0.44005(9)
N5_4 N 0.01741(15) 0.34619(15) 0.19885(8)
N1_6 N 0.1388(2) 0.83231(17) 0.42041(10)
N2_6 N 0.06662(19) 0.77087(16) 0.40762(10)
C2_6 C 0.0455(2) 0.97002(19) 0.36989(11)
N3_6 N 0.05471(18) 0.50255(17) 0.43178(10)
C3_6 C 0.1221(2) 0.93757(19) 0.40510(10)
N4_4 N 0.15381(15) 0.51741(15) 0.44885(8)
H2_6 H 0.243567 0.985202 0.450342
C9_6 C 0.0852(2) 0.6679(2) 0.42165(11)
C10_6 C 0.0107(2) 0.5923(2) 0.41587(13)
C11_6 C 0.1745(2) 0.61891(19) 0.44262(10)
C13_6 C 0.0042(2) 0.4005(2) 0.43502(14)
H9_6 H 0.054803 0.348567 0.446553
C14_6 C 0.2771(2) 0.6638(2) 0.45663(14)
H10_6 H 0.322158 0.609041 0.470458
H11_6 H 0.267737 0.717663 0.483373
H12_6 H 0.308918 0.694316 0.425292
O1_6 O 0.98036(13) 0.19808(12) 0.29504(7)
C7_6 C 0.96246(19) 0.11169(18) 0.31635(9)
O6_4 O 0.78515(12) 0.26191(15) 0.17892(6)
C13_7 C 0.0995(2) 0.5042(2) 0.68502(14)
H7_3 H 0.118730 0.477186 0.650397
H8_3 H 0.096319 0.446914 0.710263
H9_7 H 0.151433 0.554803 0.696553
O1_7 O 0.30192(12) 0.48036(13) 0.54504(7)
N1_7 N 0.66769(17) 0.6388(2) 0.67041(10)
C1_7 C 0.42540(18) 0.54128(19) 0.60538(10)
N2_7 N 0.72913(16) 0.56662(19) 0.65762(10)
C2_7 C 0.52998(19) 0.5455(2) 0.61989(11)
H1_3 H 0.578241 0.496983 0.606031
N3_7 N 0.99745(17) 0.55471(18) 0.68178(10)
C3_7 C 0.56243(19) 0.6221(2) 0.65510(10)
C4_7 C 0.49184(19) 0.69161(19) 0.67658(10)
H2_7 H 0.514798 0.743567 0.700342
C5_7 C 0.38731(18) 0.68487(19) 0.66318(9)
C6_7 C 0.35546(18) 0.61130(19) 0.62716(9)
H3_7 H 0.284557 0.608479 0.617103
C7_7 C 0.38831(18) 0.46246(19) 0.56635(9)
C8_7 C 0.30925(17) 0.7532(2) 0.69005(9)
C9_7 C 0.8321(2) 0.5852(2) 0.67165(11)
C10_7 C 0.9077(2) 0.5107(2) 0.66587(13)
C11_7 C 0.88109(19) 0.6745(2) 0.69262(10)
C12_3 C 0.9032(3) 0.4029(3) 0.6442(2)
H4_3 H 0.955356 0.395132 0.616504
H5_3 H 0.834050 0.389975 0.629601
H6_3 H 0.917164 0.352945 0.672342
C14_7 C 0.8362(2) 0.7771(2) 0.70663(14)
H10_7 H 0.890959 0.822158 0.720458
H11_7 H 0.782337 0.767737 0.733373
H12_7 H 0.805684 0.808918 0.675292
O1_8 O 0.69808(12) 0.51964(13) 0.04504(7)
N1_8 N 0.33231(17) 0.3612(2) 0.17041(10)
C1_8 C 0.57460(18) 0.45872(19) 0.10538(10)
N2_8 N 0.27087(16) 0.43338(19) 0.15762(10)
C2_8 C 0.47002(19) 0.4545(2) 0.11989(11)
H1_4 H 0.421759 0.503017 0.106031
N3_8 N 0.00255(17) 0.44529(18) 0.18178(10)
C3_8 C 0.43757(19) 0.3779(2) 0.15510(10)
C4_8 C 0.50816(19) 0.30839(19) 0.17658(10)
H2_8 H 0.485202 0.256433 0.200342
C5_8 C 0.61269(18) 0.31513(19) 0.16318(9)
C6_8 C 0.64454(18) 0.38870(19) 0.12716(9)
H3_8 H 0.715443 0.391521 0.117103
C7_8 C 0.61169(18) 0.53754(19) 0.06635(9)
C8_8 C 0.69075(17) 0.2468(2) 0.19005(9)
C9_8 C 0.1679(2) 0.4148(2) 0.17165(11)
C10_8 C 0.0923(2) 0.4893(2) 0.16587(13)
C11_8 C 0.11891(19) 0.3255(2) 0.19262(10)
C12_4 C 0.0968(3) 0.5971(3) 0.1442(2)
H4_4 H 0.044644 0.604868 0.116504
H5_4 H 0.165950 0.610025 0.129601
H6_4 H 0.082836 0.647055 0.172342
C14_8 C 0.1638(2) 0.2229(2) 0.20663(14)
H10_8 H 0.109041 0.177842 0.220458
H11_8 H 0.217663 0.232263 0.233373
H12_8 H 0.194316 0.191082 0.175292
C13_8 C 0.9005(2) 0.4958(2) 0.18502(14)
H7_4 H 0.881270 0.522814 0.150397
H8_4 H 0.903681 0.553086 0.210263
H9_8 H 0.848567 0.445197 0.196553
H1_5 H 0.921759 0.996983 0.643969
C12_5 C 0.5968(3) 0.9029(3) 0.6058(2)
H4_5 H 0.544644 0.895132 0.633496
H5_5 H 0.665950 0.889975 0.620399
H6_5 H 0.582836 0.852945 0.577658
H7_5 H 0.381270 0.977186 0.599603
H8_5 H 0.403681 0.946914 0.539737
H1_6 H 0.078241 0.003017 0.143969
C12_6 C 0.4032(3) 0.0971(3) 0.1058(2)
H4_6 H 0.455356 0.104868 0.133496
H5_6 H 0.334050 0.110025 0.120399
H6_6 H 0.417164 0.147055 0.077658
H7_6 H 0.618730 0.022814 0.099603
H8_6 H 0.596319 0.053086 0.039737
H1_7 H 0.003017 0.078241 0.856031
C12_7 C 0.0971(3) 0.4032(3) 0.8942(2)
H4_7 H 0.104868 0.455356 0.866504
H5_7 H 0.110025 0.334050 0.879601
H6_7 H 0.147055 0.417164 0.922342
H7_7 H 0.022814 0.618730 0.900397
H8_7 H 0.053086 0.596319 0.960263
H1_8 H 0.996983 0.921759 0.356031
C12_8 C 0.9029(3) 0.5968(3) 0.3942(2)
H4_8 H 0.895132 0.544644 0.366504
H5_8 H 0.889975 0.665950 0.379601
H6_8 H 0.852945 0.582836 0.422342
H7_8 H 0.977186 0.381270 0.400397
H8_8 H 0.946914 0.403681 0.460263
loop_
_geom_bond_atom_site_label_1
_geom_bond_atom_site_label_2
_geom_bond_site_symmetry_1
_geom_bond_site_symmetry_2
H7 C13 1_555 1_555
H8 C13 1_555 1_555
H9 C13 1_555 1_555
Zn1 O1 1_555 1_555
O1 C7 1_555 1_555
N1 N2 1_555 1_555
C1 C2 1_555 1_555
O2 C7 1_555 1_555
N2 C9 1_555 1_555
C2 H1 1_555 1_555
N3 N4 1_555 1_555
O3 C8 1_555 1_555
C3 N1 1_555 1_555
O4 C8 1_555 1_555
N4 C11 1_555 1_555
C4 C3 1_555 1_555
H2 C4 1_555 1_555
C5 C4 1_555 1_555
C6 C1 1_555 1_555
H3 C6 1_555 1_555
C7 C1 1_555 1_555
C8 C5 1_555 1_555
C9 C10 1_555 1_555
C10 N3 1_555 1_555
C11 C9 1_555 1_555
C12 C10 1_555 1_555
H4 C12 1_555 1_555
H5 C12 1_555 1_555
H6 C12 1_555 1_555
C14 C11 1_555 1_555
H10 C14 1_555 1_555
H11 C14 1_555 1_555
H12 C14 1_555 1_555
Zn3 O3 1_555 1_555
Zn4 O4 1_555 1_555
Zn5 O2 1_555 1_555
O5 Zn1 1_555 1_555
O6 Zn1 1_555 1_555
O7 Zn1 1_555 1_555
N5 Zn1 1_555 1_555
C2 C3 1_555 1_555
C5 C6 1_555 1_555
O5_2 Zn1_2 1_555 1_555
O6_2 Zn1_2 1_555 1_555
N5_2 Zn1_2 1_555 1_555
O1_2 C7_2 1_555 1_555
N1_2 N2_2 1_555 1_555
C1_2 C2_2 1_555 1_555
O2_2 C7_2 1_555 1_555
N2_2 C9_2 1_555 1_555
C2_2 H1_2 1_555 1_555
N3_2 N4_2 1_555 1_555
O3_2 C8_2 1_555 1_555
C3_2 N1_2 1_555 1_555
O4_2 C8_2 1_555 1_555
N4_2 C11_2 1_555 1_555
C4_2 C3_2 1_555 1_555
H2_2 C4_2 1_555 1_555
C5_2 C4_2 1_555 1_555
C6_2 C1_2 1_555 1_555
H3_2 C6_2 1_555 1_555
C7_2 C1_2 1_555 1_555
C8_2 C5_2 1_555 1_555
C9_2 C10_2 1_555 1_555
C10_2 N3_2 1_555 1_555
C11_2 C9_2 1_555 1_555
C12_2 C10_2 1_555 1_555
H4_2 C12_2 1_555 1_555
H5_2 C12_2 1_555 1_555
H6_2 C12_2 1_555 1_555
C14_2 C11_2 1_555 1_555
H10_2 C14_2 1_555 1_555
H11_2 C14_2 1_555 1_555
H12_2 C14_2 1_555 1_555
Zn2 O3_2 1_555 1_555
Zn4_2 O4_2 1_555 1_555
Zn5_2 O2_2 1_555 1_555
C2_2 C3_2 1_555 1_555
C5_2 C6_2 1_555 1_555
H7_2 C13_2 1_555 1_555
H8_2 C13_2 1_555 1_555
H9_2 C13_2 1_555 1_555
O6 C8_3 1_555 1_555
O4_3 C8_3 1_555 1_555
C5_3 C4_3 1_555 1_555
C6_3 C1_3 1_555 1_555
H3_3 C6_3 1_555 1_555
C8_3 C5_3 1_555 1_555
Zn5 O4_3 1_555 1_555
C5_3 C6_3 1_555 1_555
Zn2 O1_3 1_555 1_555
O1_3 C7_3 1_555 1_555
O2_3 C7_3 1_555 1_555
Zn4_2 O2_3 1_555 1_555
O5_3 Zn2 1_555 1_555
O7_3 Zn2 1_555 1_555
N1_3 N2_3 1_555 1_555
N2_3 C9_3 1_555 1_555
N3_3 N5 1_555 1_555
C3_3 N1_3 1_555 1_555
N5 C11_3 1_555 1_555
C9_3 C10_3 1_555 1_555
C10_3 N3_3 1_555 1_555
C11_3 C9_3 1_555 1_555
C13_3 N3_3 1_555 1_555
H9_3 C13_3 1_555 1_555
C14_3 C11_3 1_555 1_555
H10_3 C14_3 1_555 1_555
H11_3 C14_3 1_555 1_555
H12_3 C14_3 1_555 1_555
C2_3 C3_3 1_555 1_555
N1_4 N2_4 1_555 1_555
N2_4 C9_4 1_555 1_555
N3_4 N5_2 1_555 1_555
C3_4 N1_4 1_555 1_555
N5_2 C11_4 1_555 1_555
C9_4 C10_4 1_555 1_555
C10_4 N3_4 1_555 1_555
C11_4 C9_4 1_555 1_555
C13_4 N3_4 1_555 1_555
H9_4 C13_4 1_555 1_555
C14_4 C11_4 1_555 1_555
H10_4 C14_4 1_555 1_555
H11_4 C14_4 1_555 1_555
H12_4 C14_4 1_555 1_555
C2_4 C3_4 1_555 1_555
Zn3 O1_4 1_555 1_555
O1_4 C7_4 1_555 1_555
O2_4 C7_4 1_555 1_555
Zn4 O2_4 1_555 1_555
O5_4 Zn3 1_555 1_555
O7_4 Zn3 1_555 1_555
O6_2 C8_4 1_555 1_555
O4_4 C8_4 1_555 1_555
C5_4 C4_4 1_555 1_555
C6_4 C1_4 1_555 1_555
H3_4 C6_4 1_555 1_555
C8_4 C5_4 1_555 1_555
C5_4 C6_4 1_555 1_555
Zn4_2 O1_5 1_555 1_555
O1_5 C7_5 1_555 1_555
O5_3 C7_5 1_555 1_555
O6_3 Zn4_2 1_555 1_555
N1_5 N2_5 1_555 1_555
N2_5 C9_5 1_555 1_555
N3_5 N4_3 1_555 1_555
C3_5 N1_5 1_555 1_555
N4_3 C11_5 1_555 1_555
C9_5 C10_5 1_555 1_555
C10_5 N3_5 1_555 1_555
C11_5 C9_5 1_555 1_555
C13_5 N3_5 1_555 1_555
H9_5 C13_5 1_555 1_555
C14_5 C11_5 1_555 1_555
H10_5 C14_5 1_555 1_555
H11_5 C14_5 1_555 1_555
H12_5 C14_5 1_555 1_555
Zn5_2 N4_3 1_555 1_555
C2_5 C3_5 1_555 1_555
O3_3 C8_5 1_555 1_555
O7_2 C8_5 1_555 1_555
C5_5 C4_5 1_555 1_555
C6_5 C1_5 1_555 1_555
H3_5 C6_5 1_555 1_555
C8_5 C5_5 1_555 1_555
Zn5_2 O3_3 1_555 1_555
C5_5 C6_5 1_555 1_555
O3_4 C8_6 1_555 1_555
O7 C8_6 1_555 1_555
C5_6 C4_6 1_555 1_555
C6_6 C1_6 1_555 1_555
H3_6 C6_6 1_555 1_555
C8_6 C5_6 1_555 1_555
Zn5 O3_4 1_555 1_555
C5_6 C6_6 1_555 1_555
N1_6 N2_6 1_555 1_555
N2_6 C9_6 1_555 1_555
N3_6 N4_4 1_555 1_555
C3_6 N1_6 1_555 1_555
N4_4 C11_6 1_555 1_555
C9_6 C10_6 1_555 1_555
C10_6 N3_6 1_555 1_555
C11_6 C9_6 1_555 1_555
C13_6 N3_6 1_555 1_555
H9_6 C13_6 1_555 1_555
C14_6 C11_6 1_555 1_555
H10_6 C14_6 1_555 1_555
H11_6 C14_6 1_555 1_555
H12_6 C14_6 1_555 1_555
Zn5 N4_4 1_555 1_555
C2_6 C3_6 1_555 1_555
Zn4 O1_6 1_555 1_555
O1_6 C7_6 1_555 1_555
O5_4 C7_6 1_555 1_555
O6_4 Zn4 1_555 1_555
H7_3 C13_7 1_555 1_555
H8_3 C13_7 1_555 1_555
H9_7 C13_7 1_555 1_555
Zn5 O1_7 1_555 1_555
O1_7 C7_7 1_555 1_555
N1_7 N2_7 1_555 1_555
C1_7 C2_7 1_555 1_555
O5 C7_7 1_555 1_555
N2_7 C9_7 1_555 1_555
C2_7 H1_3 1_555 1_555
N3_7 N5_3 1_555 1_555
O6_3 C8_7 1_555 1_555
C3_7 N1_7 1_555 1_555
O7_3 C8_7 1_555 1_555
N5_3 C11_7 1_555 1_555
C4_7 C3_7 1_555 1_555
H2_7 C4_7 1_555 1_555
C5_7 C4_7 1_555 1_555
C6_7 C1_7 1_555 1_555
H3_7 C6_7 1_555 1_555
C7_7 C1_7 1_555 1_555
C8_7 C5_7 1_555 1_555
C9_7 C10_7 1_555 1_555
C10_7 N3_7 1_555 1_555
C11_7 C9_7 1_555 1_555
C12_3 C10_7 1_555 1_555
H4_3 C12_3 1_555 1_555
H5_3 C12_3 1_555 1_555
H6_3 C12_3 1_555 1_555
C14_7 C11_7 1_555 1_555
H10_7 C14_7 1_555 1_555
H11_7 C14_7 1_555 1_555
H12_7 C14_7 1_555 1_555
C2_7 C3_7 1_555 1_555
C5_7 C6_7 1_555 1_555
O1_8 C7_8 1_555 1_555
N1_8 N2_8 1_555 1_555
C1_8 C2_8 1_555 1_555
O5_2 C7_8 1_555 1_555
N2_8 C9_8 1_555 1_555
C2_8 H1_4 1_555 1_555
N3_8 N5_4 1_555 1_555
O6_4 C8_8 1_555 1_555
C3_8 N1_8 1_555 1_555
O7_4 C8_8 1_555 1_555
N5_4 C11_8 1_555 1_555
C4_8 C3_8 1_555 1_555
H2_8 C4_8 1_555 1_555
C5_8 C4_8 1_555 1_555
C6_8 C1_8 1_555 1_555
H3_8 C6_8 1_555 1_555
C7_8 C1_8 1_555 1_555
C8_8 C5_8 1_555 1_555
C9_8 C10_8 1_555 1_555
C10_8 N3_8 1_555 1_555
C11_8 C9_8 1_555 1_555
C12_4 C10_8 1_555 1_555
H4_4 C12_4 1_555 1_555
H5_4 C12_4 1_555 1_555
H6_4 C12_4 1_555 1_555
C14_8 C11_8 1_555 1_555
H10_8 C14_8 1_555 1_555
H11_8 C14_8 1_555 1_555
H12_8 C14_8 1_555 1_555
C2_8 C3_8 1_555 1_555
C5_8 C6_8 1_555 1_555
H7_4 C13_8 1_555 1_555
H8_4 C13_8 1_555 1_555
H9_8 C13_8 1_555 1_555
H4_5 C12_5 1_555 1_555
H5_5 C12_5 1_555 1_555
H6_5 C12_5 1_555 1_555
H4_6 C12_6 1_555 1_555
H5_6 C12_6 1_555 1_555
H6_6 C12_6 1_555 1_555
H4_7 C12_7 1_555 1_555
H5_7 C12_7 1_555 1_555
H6_7 C12_7 1_555 1_555
H4_8 C12_8 1_555 1_555
H5_8 C12_8 1_555 1_555
H6_8 C12_8 1_555 1_555

#END
