
###############################################################################
#
# This file contains modified crystal structure data generated from the
# MOF subset of the Cambridge Structural Database (CSD) v543 
# hosted by the Cambridge Crystallographic Data Centre (CCDC).
#
# This work is licensed under the Creative Commons
# Attribution-NonCommercial-ShareAlike 4.0 International License.
# To view a copy of this license, visit
# http://creativecommons.org/licenses/by-nc-sa/4.0/
# or send a letter to
# Creative Commons, PO Box 1866, Mountain View, CA 94042, USA.
#
# CIF created using the CSD Python API on 29 September 2022
# The structure has been converted into the P1 space group
# The structure has a 3D framework
# The original CSD entry KELFUF is in the monoclinic crystal system
# The framework has been calculated to contain at least 10.0% void space
# The void calculation uses a probe of radius 1.32A, grid spacing 0.4
#
###############################################################################

data_KELFUF
_chemical_formula_moiety         '(C36 H60 O48 P12 U6)n'
_symmetry_cell_setting           triclinic
_symmetry_space_group_name_H-M   'P 1'
_symmetry_Int_Tables_number      1
_space_group_name_Hall           'P 1'
loop_
_symmetry_equiv_pos_site_id
_symmetry_equiv_pos_as_xyz
1 x,y,z
_cell_length_a                   11.1283(7)
_cell_length_b                   25.0814(16)
_cell_length_c                   11.2246(8)
_cell_angle_alpha                90
_cell_angle_beta                 115.175(2)
_cell_angle_gamma                90
_cell_volume                     2835.35
loop_
_atom_site_label
_atom_site_type_symbol
_atom_site_fract_x
_atom_site_fract_y
_atom_site_fract_z
O15 O 0.0451(19) 0.2500 0.089(2)
O9 O 0.0207(15) 0.8365(5) 0.0939(15)
O10 O 0.1554(12) 0.9215(5) 0.1894(13)
O11 O 0.0762(16) 0.8692(6) 0.3306(14)
H7 H 0.1488 0.8528 0.3651
P3 P 0.0471(5) 0.8852(2) 0.1837(5)
U6 U 0.07945(10) 0.7500 0.06792(10)
U10 U 0.37201(7) 0.94576(3) 0.23031(7)
U2 U 0.62799(7) 0.05424(3) 0.76969(7)
O2 O 0.4589(16) 0.0553(9) 0.8658(16)
H3 H 0.3856 0.0388 0.8271
H4 H 0.4279 0.0851 0.8756
O3 O 0.620(2) 0.0761(11) 0.408(2)
H5 H 0.5863 0.0747 0.3251
O4 O 0.6481(12) 0.0178(6) 0.5902(12)
O6 O 0.6931(15) 0.1593(5) 0.1409(14)
H6 H 0.6307 0.1375 0.1239
O12 O 0.5647(18) 0.1127(7) 0.6841(14)
P1 P 0.6574(5) 0.0235(3) 0.4610(5)
P2 P 0.7717(5) 0.1451(2) 0.0576(5)
C1 C 0.8516(17) 0.0146(8) 0.3697(17)
C2 C 0.8805(15) 0.0613(8) 0.3309(17)
H8 H 0.8787 0.0928 0.3772
C3 C 0.9135(17) 0.0651(7) 0.2240(17)
C4 C 0.9181(17) 0.0191(8) 0.1606(17)
H9 H 0.9426 0.0210 0.0893
C7 C 0.8212(17) 0.0103(10) 0.4901(16)
H11 H 0.8797 0.0354 0.5581
C8 C 0.9248(18) 0.1199(7) 0.1645(19)
H13 H 0.9814 0.1159 0.1169
H14 H 0.9686 0.1458 0.2369
O19 O 0.4250(16) 0.0120(10) 0.6400(17)
O27 O 0.3094(14) 0.0046(6) 0.1443(12)
C14 C 0.1118(17) 0.0302(7) 0.8028(16)
C15 C 0.1459(16) 0.0320(7) 0.6981(19)
H24 H 0.1680 0.0652 0.6717
H26 H 0.1561 0.0262 0.4735
C18 C 0.1081(17) 0.0796(8) 0.8774(18)
H29 H 0.1321 0.0694 0.9700
H30 H 0.1773 0.1044 0.8775
O28 O 0.6941(13) 0.1033(5) 0.9616(12)
O34 O 0.8446(12) 0.0785(5) 0.8106(13)
U1 U 0.92055(10) 0.2500 0.93208(10)
O8 O 0.7890(14) 0.1963(5) 0.9942(16)
O14 O 0.8020(19) 0.2500 0.7718(19)
O30 O 0.7890(14) 0.3037(5) 0.9942(16)
O31 O 0.9793(15) 0.3365(5) 0.9061(15)
O32 O 0.9793(15) 0.1635(5) 0.9061(15)
O21 O 0.3059(13) 0.8967(5) 0.0384(12)
O22 O 0.2110(14) 0.8037(5) 0.0058(16)
O5 O 0.5750(16) 0.9880(10) 0.3600(17)
O13 O 0.6906(14) 0.9954(6) 0.8557(12)
C5 C 0.8882(17) 0.9698(7) 0.1972(16)
C6 C 0.8541(16) 0.9680(7) 0.3019(19)
H10 H 0.8320 0.9348 0.3283
H12 H 0.8439 0.9738 0.5265
C9 C 0.8919(17) 0.9204(8) 0.1226(18)
H15 H 0.8679 0.9306 0.0300
H16 H 0.8227 0.8956 0.1225
O16 O 0.5411(16) 0.9447(9) 0.1342(16)
H17 H 0.6144 0.9612 0.1729
H18 H 0.5721 0.9149 0.1244
O17 O 0.380(2) 0.9239(11) 0.592(2)
H19 H 0.4137 0.9253 0.6749
O18 O 0.3519(12) 0.9822(6) 0.4098(12)
O20 O 0.3069(15) 0.8407(5) 0.8591(14)
H20 H 0.3693 0.8625 0.8761
O26 O 0.4353(18) 0.8873(7) 0.3159(14)
P4 P 0.3426(5) 0.9765(3) 0.5390(5)
P5 P 0.2283(5) 0.8549(2) 0.9424(5)
C10 C 0.1484(17) 0.9854(8) 0.6303(17)
C11 C 0.1195(15) 0.9387(8) 0.6691(17)
H22 H 0.1213 0.9072 0.6228
C12 C 0.0865(17) 0.9349(7) 0.7760(17)
C13 C 0.0819(17) 0.9809(8) 0.8394(17)
H23 H 0.0574 0.9790 0.9107
C16 C 0.1788(17) 0.9897(10) 0.5099(16)
H25 H 0.1203 0.9646 0.4419
C17 C 0.0752(18) 0.8801(7) 0.8355(19)
H27 H 0.0186 0.8841 0.8831
H28 H 0.0314 0.8542 0.7631
O25 O 0.9238(16) 0.1308(6) 0.6694(14)
H21 H 0.8512 0.1472 0.6349
P6 P 0.9529(5) 0.1148(2) 0.8163(5)
O23 O 0.0207(15) 0.6635(5) 0.0939(15)
O24 O 0.1554(12) 0.5785(5) 0.1894(13)
O25_2 O 0.0762(16) 0.6308(6) 0.3306(14)
H21_2 H 0.1488 0.6472 0.3651
P6_2 P 0.0471(5) 0.6148(2) 0.1837(5)
U7 U 0.37201(7) 0.55424(3) 0.23031(7)
O7 O 0.3059(13) 0.6033(5) 0.0384(12)
O8_2 O 0.2110(14) 0.6963(5) 0.0058(16)
O14_2 O 0.1980(19) 0.7500 0.2282(19)
O2_2 O 0.5411(16) 0.5553(9) 0.1342(16)
H3_2 H 0.6144 0.5388 0.1729
H4_2 H 0.5721 0.5851 0.1244
O3_2 O 0.380(2) 0.5761(11) 0.592(2)
H5_2 H 0.4137 0.5747 0.6749
O4_2 O 0.3519(12) 0.5178(6) 0.4098(12)
O5_2 O 0.4250(16) 0.4880(10) 0.6400(17)
O6_2 O 0.3069(15) 0.6593(5) 0.8591(14)
H6_2 H 0.3693 0.6375 0.8761
O12_2 O 0.4353(18) 0.6127(7) 0.3159(14)
O13_2 O 0.3094(14) 0.4954(6) 0.1443(12)
P1_2 P 0.3426(5) 0.5235(3) 0.5390(5)
P2_2 P 0.2283(5) 0.6451(2) 0.9424(5)
C1_2 C 0.1484(17) 0.5146(8) 0.6303(17)
C2_2 C 0.1195(15) 0.5613(8) 0.6691(17)
H8_2 H 0.1213 0.5928 0.6228
C3_2 C 0.0865(17) 0.5651(7) 0.7760(17)
C4_2 C 0.0819(17) 0.5191(8) 0.8394(17)
H9_2 H 0.0574 0.5210 0.9107
C5_2 C 0.1118(17) 0.4698(7) 0.8028(16)
C6_2 C 0.1459(16) 0.4680(7) 0.6981(19)
H10_2 H 0.1680 0.4348 0.6717
C7_2 C 0.1788(17) 0.5103(10) 0.5099(16)
H11_2 H 0.1203 0.5354 0.4419
H12_2 H 0.1561 0.4738 0.4735
C8_2 C 0.0752(18) 0.6199(7) 0.8355(19)
H13_2 H 0.0186 0.6159 0.8831
H14_2 H 0.0314 0.6458 0.7631
C9_2 C 0.1081(17) 0.4204(8) 0.8774(18)
H15_2 H 0.1321 0.4306 0.9700
H16_2 H 0.1773 0.3956 0.8775
U3 U 0.62799(7) 0.44576(3) 0.76969(7)
O16_2 O 0.4589(16) 0.4447(9) 0.8658(16)
H17_2 H 0.3856 0.4612 0.8271
H18_2 H 0.4279 0.4149 0.8756
O17_2 O 0.620(2) 0.4239(11) 0.408(2)
H19_2 H 0.5863 0.4253 0.3251
O18_2 O 0.6481(12) 0.4822(6) 0.5902(12)
O19_2 O 0.5750(16) 0.5120(10) 0.3600(17)
O20_2 O 0.6931(15) 0.3407(5) 0.1409(14)
H20_2 H 0.6307 0.3625 0.1239
O26_2 O 0.5647(18) 0.3873(7) 0.6841(14)
O27_2 O 0.6906(14) 0.5046(6) 0.8557(12)
P4_2 P 0.6574(5) 0.4765(3) 0.4610(5)
P5_2 P 0.7717(5) 0.3549(2) 0.0576(5)
C10_2 C 0.8516(17) 0.4854(8) 0.3697(17)
C11_2 C 0.8805(15) 0.4387(8) 0.3309(17)
H22_2 H 0.8787 0.4072 0.3772
C12_2 C 0.9135(17) 0.4349(7) 0.2240(17)
C13_2 C 0.9181(17) 0.4809(8) 0.1606(17)
H23_2 H 0.9426 0.4790 0.0893
C14_2 C 0.8882(17) 0.5302(7) 0.1972(16)
C15_2 C 0.8541(16) 0.5320(7) 0.3019(19)
H24_2 H 0.8320 0.5652 0.3283
C16_2 C 0.8212(17) 0.4897(10) 0.4901(16)
H25_2 H 0.8797 0.4646 0.5581
H26_2 H 0.8439 0.5262 0.5265
C17_2 C 0.9248(18) 0.3801(7) 0.1645(19)
H27_2 H 0.9814 0.3841 0.1169
H28_2 H 0.9686 0.3542 0.2369
C18_2 C 0.8919(17) 0.5796(8) 0.1226(18)
H29_2 H 0.8679 0.5694 0.0300
H30_2 H 0.8227 0.6044 0.1225
O29 O 0.6941(13) 0.3967(5) 0.9616(12)
O33 O 0.8446(12) 0.4215(5) 0.8106(13)
O11_2 O 0.9238(16) 0.3692(6) 0.6694(14)
H7_2 H 0.8512 0.3528 0.6349
O15_2 O 0.9549(19) 0.7500 0.911(2)
P3_2 P 0.9529(5) 0.3852(2) 0.8163(5)
O1 O 0.104(3) 0.2500 0.861(3)
H1 H 0.0548 0.2500 0.7782
H2 H 0.1875 0.2500 0.9047
O1_2 O 0.896(3) 0.7500 0.139(3)
H1_2 H 0.9452 0.7500 0.2218
H2_2 H 0.8125 0.7500 0.0953
loop_
_geom_bond_atom_site_label_1
_geom_bond_atom_site_label_2
_geom_bond_site_symmetry_1
_geom_bond_site_symmetry_2
O9 P3 1_555 1_555
O10 P3 1_555 1_555
O11 H7 1_555 1_555
P3 O11 1_555 1_555
U6 O9 1_555 1_555
U10 O10 1_555 1_555
U2 O2 1_555 1_555
O2 H3 1_555 1_555
H4 O2 1_555 1_555
O3 H5 1_555 1_555
O4 U2 1_555 1_555
O6 H6 1_555 1_555
O12 U2 1_555 1_555
P1 O3 1_555 1_555
P2 O6 1_555 1_555
C1 C2 1_555 1_555
C2 H8 1_555 1_555
C3 C2 1_555 1_555
C4 C3 1_555 1_555
H9 C4 1_555 1_555
C7 P1 1_555 1_555
H11 C7 1_555 1_555
C8 P2 1_555 1_555
H13 C8 1_555 1_555
H14 C8 1_555 1_555
O19 U2 1_555 1_555
H24 C15 1_555 1_555
H29 C18 1_555 1_555
H30 C18 1_555 1_555
O28 U2 1_555 1_555
O34 U2 1_555 1_555
O4 P1 1_555 1_555
C1 C7 1_555 1_555
C3 C8 1_555 1_555
C14 C15 1_555 1_555
C14 C18 1_555 1_555
O8 U1 1_555 1_555
O14 U1 1_555 1_555
O30 U1 1_555 1_555
O31 U1 1_555 1_555
O32 U1 1_555 1_555
U6 O22 1_555 1_555
U10 O21 1_555 1_555
H10 C6 1_555 1_555
H15 C9 1_555 1_555
H16 C9 1_555 1_555
U10 O5 1_555 1_555
O16 U10 1_555 1_555
H17 O16 1_555 1_555
H18 O16 1_555 1_555
O17 H19 1_555 1_555
O18 U10 1_555 1_555
O20 H20 1_555 1_555
O26 U10 1_555 1_555
P4 O17 1_555 1_555
P5 O20 1_555 1_555
C10 C11 1_555 1_555
C11 H22 1_555 1_555
C12 C11 1_555 1_555
C13 C12 1_555 1_555
H23 C13 1_555 1_555
C16 P4 1_555 1_555
H25 C16 1_555 1_555
C17 P5 1_555 1_555
H27 C17 1_555 1_555
H28 C17 1_555 1_555
C5 C6 1_555 1_555
C5 C9 1_555 1_555
O18 P4 1_555 1_555
C10 C16 1_555 1_555
C12 C17 1_555 1_555
O32 P6 1_555 1_555
O34 P6 1_555 1_555
O25 H21 1_555 1_555
P6 O25 1_555 1_555
O23 P6_2 1_555 1_555
O24 P6_2 1_555 1_555
O25_2 H21_2 1_555 1_555
P6_2 O25_2 1_555 1_555
U6 O23 1_555 1_555
U7 O24 1_555 1_555
O8_2 U6 1_555 1_555
O14_2 U6 1_555 1_555
U7 O7 1_555 1_555
U7 O2_2 1_555 1_555
O2_2 H3_2 1_555 1_555
H4_2 O2_2 1_555 1_555
O3_2 H5_2 1_555 1_555
O4_2 U7 1_555 1_555
O5_2 P1_2 1_555 1_555
O6_2 H6_2 1_555 1_555
O12_2 U7 1_555 1_555
O13_2 U7 1_555 1_555
P1_2 O3_2 1_555 1_555
P2_2 O6_2 1_555 1_555
C1_2 C2_2 1_555 1_555
C2_2 H8_2 1_555 1_555
C3_2 C2_2 1_555 1_555
C4_2 C3_2 1_555 1_555
H9_2 C4_2 1_555 1_555
C5_2 C4_2 1_555 1_555
C6_2 C1_2 1_555 1_555
H10_2 C6_2 1_555 1_555
C7_2 P1_2 1_555 1_555
H11_2 C7_2 1_555 1_555
H12_2 C7_2 1_555 1_555
C8_2 P2_2 1_555 1_555
H13_2 C8_2 1_555 1_555
H14_2 C8_2 1_555 1_555
H15_2 C9_2 1_555 1_555
H16_2 C9_2 1_555 1_555
U3 O5_2 1_555 1_555
O16_2 U3 1_555 1_555
H17_2 O16_2 1_555 1_555
H18_2 O16_2 1_555 1_555
O17_2 H19_2 1_555 1_555
O18_2 U3 1_555 1_555
O19_2 U7 1_555 1_555
O20_2 H20_2 1_555 1_555
O26_2 U3 1_555 1_555
O27_2 U3 1_555 1_555
P4_2 O17_2 1_555 1_555
P5_2 O20_2 1_555 1_555
C10_2 C11_2 1_555 1_555
C11_2 H22_2 1_555 1_555
C12_2 C11_2 1_555 1_555
C13_2 C12_2 1_555 1_555
H23_2 C13_2 1_555 1_555
C14_2 C13_2 1_555 1_555
C15_2 C10_2 1_555 1_555
H24_2 C15_2 1_555 1_555
C16_2 P4_2 1_555 1_555
H25_2 C16_2 1_555 1_555
H26_2 C16_2 1_555 1_555
C17_2 P5_2 1_555 1_555
H27_2 C17_2 1_555 1_555
H28_2 C17_2 1_555 1_555
H29_2 C18_2 1_555 1_555
H30_2 C18_2 1_555 1_555
O29 U3 1_555 1_555
O33 U3 1_555 1_555
O4_2 P1_2 1_555 1_555
C1_2 C7_2 1_555 1_555
C3_2 C8_2 1_555 1_555
C5_2 C6_2 1_555 1_555
C5_2 C9_2 1_555 1_555
O18_2 P4_2 1_555 1_555
O19_2 P4_2 1_555 1_555
C10_2 C16_2 1_555 1_555
C12_2 C17_2 1_555 1_555
C14_2 C15_2 1_555 1_555
C14_2 C18_2 1_555 1_555
O31 P3_2 1_555 1_555
O33 P3_2 1_555 1_555
O11_2 H7_2 1_555 1_555
P3_2 O11_2 1_555 1_555
O1 H1 1_555 1_555
H2 O1 1_555 1_555
O1_2 H1_2 1_555 1_555
H2_2 O1_2 1_555 1_555

#END
