
###############################################################################
#
# This file contains modified crystal structure data generated from the
# MOF subset of the Cambridge Structural Database (CSD) v543 
# hosted by the Cambridge Crystallographic Data Centre (CCDC).
#
# This work is licensed under the Creative Commons
# Attribution-NonCommercial-ShareAlike 4.0 International License.
# To view a copy of this license, visit
# http://creativecommons.org/licenses/by-nc-sa/4.0/
# or send a letter to
# Creative Commons, PO Box 1866, Mountain View, CA 94042, USA.
#
# CIF created using the CSD Python API on 29 September 2022
# The structure has been converted into the P1 space group
# The structure has a 3D framework
# The original CSD entry KELMEW is in the monoclinic crystal system
# The framework has been calculated to contain at least 10.0% void space
# The void calculation uses a probe of radius 1.32A, grid spacing 0.4
#
###############################################################################

data_KELMEW
_chemical_formula_moiety         '(C64 H40 N8 O13 Zn3)n'
_symmetry_cell_setting           triclinic
_symmetry_space_group_name_H-M   'P 1'
_symmetry_Int_Tables_number      1
_space_group_name_Hall           'P 1'
loop_
_symmetry_equiv_pos_site_id
_symmetry_equiv_pos_as_xyz
1 x,y,z
_cell_length_a                   22.771(5)
_cell_length_b                   5.5777(11)
_cell_length_c                   16.306(3)
_cell_angle_alpha                90
_cell_angle_beta                 123.679(3)
_cell_angle_gamma                90
_cell_volume                     1723.42
loop_
_atom_site_label
_atom_site_type_symbol
_atom_site_fract_x
_atom_site_fract_y
_atom_site_fract_z
Zn3 Zn 0.5000 0.07968(4) 0.2500
Zn1 Zn 0.5000 0.92032(4) 0.7500
O1 O 0.49392(7) 0.7056(2) 0.65262(10)
O2 O 0.57226(10) 0.8913(3) 0.63460(15)
C1 C 0.52781(9) 0.7373(3) 0.61313(13)
C2 C 0.50843(10) 0.5689(3) 0.53244(15)
O3 O 0.50608(7) 0.2944(2) 0.34738(10)
O4 O 0.42774(10) 0.1087(3) 0.36540(15)
C9 C 0.47219(9) 0.2627(3) 0.38687(13)
C10 C 0.49157(10) 0.4311(3) 0.46756(15)
O5 O 0.50608(7) 0.7056(2) 0.84738(10)
O3_2 O 0.49392(7) 0.2944(2) 0.15262(10)
O4_2 O 0.57226(10) 0.1087(3) 0.13460(15)
C9_2 C 0.52781(9) 0.2627(3) 0.11313(13)
C10_2 C 0.50843(10) 0.4311(3) 0.03244(15)
O2_2 O 0.42774(10) 0.8913(3) 0.86540(15)
C1_2 C 0.47219(9) 0.7373(3) 0.88687(13)
C2_2 C 0.49157(10) 0.5689(3) 0.96756(15)
C8 C 0.23647(9) 0.1699(3) 0.01505(13)
H5 H 0.2527 0.1723 0.0827
N2 N 0.41838(7) 0.8565(3) 0.16332(10)
C11 C 0.39205(10) 0.7124(3) 0.20130(12)
H6 H 0.4089 0.7301 0.2689
C12 C 0.34189(11) 0.5409(4) 0.14708(14)
H7 H 0.3246 0.4432 0.1770
C13 C 0.31642(9) 0.5107(3) 0.04766(12)
C14 C 0.34371(10) 0.6609(4) 0.00861(13)
C15 C 0.39391(10) 0.8291(4) 0.06764(13)
H9 H 0.4120 0.9298 0.0396
H2 H 0.8246 0.0568 0.6770
C8_2 C 0.76353(9) 0.1699(3) 0.48495(13)
H5_2 H 0.7473 0.1723 0.4173
N2_2 N 0.58162(7) 0.8565(3) 0.33668(10)
C11_2 C 0.60795(10) 0.7124(3) 0.29870(12)
H6_2 H 0.5911 0.7301 0.2311
C12_2 C 0.65811(11) 0.5409(4) 0.35292(14)
H7_2 H 0.6754 0.4432 0.3230
C13_2 C 0.68358(9) 0.5107(3) 0.45234(12)
C14_2 C 0.65629(10) 0.6609(4) 0.49139(13)
H8 H 0.6723 0.6474 0.5588
C15_2 C 0.60609(10) 0.8291(4) 0.43236(13)
H9_2 H 0.5880 0.9298 0.4604
C16 C 0.73647(9) 0.3301(3) 0.51505(13)
H10 H 0.7527 0.3277 0.5827
H2_2 H 0.1754 0.0568 0.8230
H8_2 H 0.3277 0.6474 0.9412
C16_2 C 0.26353(9) 0.3301(3) 0.98495(13)
H10_2 H 0.2473 0.3277 0.9173
H3 H 0.1723 0.8526 0.0588
Zn1_2 Zn 0.0000 0.42032(4) 0.7500
O2_3 O 0.07226(10) 0.3913(3) 0.63460(15)
N1 N 0.08162(7) 0.6435(3) 0.83668(10)
C1_3 C 0.02781(9) 0.2373(3) 0.61313(13)
C2_3 C 0.00843(10) 0.0689(3) 0.53244(15)
C3 C 0.10795(10) 0.7876(3) 0.79870(12)
H1 H 0.0911 0.7699 0.7311
C4 C 0.15811(11) 0.9591(4) 0.85292(14)
C5 C 0.18358(9) 0.9893(3) 0.95234(12)
C6 C 0.15629(10) 0.8391(4) 0.99139(13)
C7 C 0.10609(10) 0.6709(4) 0.93236(13)
H4 H 0.0880 0.5702 0.9604
O5_2 O 0.00608(7) 0.2056(2) 0.84738(10)
O3_3 O 0.00608(7) 0.7944(2) 0.34738(10)
Zn2 Zn -0.0000 0.57968(4) 0.2500
O4_3 O 0.07226(10) 0.6087(3) 0.13460(15)
C9_3 C 0.02781(9) 0.7627(3) 0.11313(13)
C10_3 C 0.00843(10) 0.9311(3) 0.03244(15)
N2_3 N 0.08162(7) 0.3565(3) 0.33668(10)
C11_3 C 0.10795(10) 0.2124(3) 0.29870(12)
H6_3 H 0.0911 0.2301 0.2311
C12_3 C 0.15811(11) 0.0409(4) 0.35292(14)
C13_3 C 0.18358(9) 0.0107(3) 0.45234(12)
C14_3 C 0.15629(10) 0.1609(4) 0.49139(13)
H8_3 H 0.1723 0.1474 0.5588
C15_3 C 0.10609(10) 0.3291(4) 0.43236(13)
H9_3 H 0.0880 0.4298 0.4604
Zn1_3 Zn 1.0000 0.42032(4) 0.7500
O1_2 O 0.99392(7) 0.2056(2) 0.65262(10)
N3 N 0.91838(7) 0.6435(3) 0.66332(10)
O2_4 O 0.92774(10) 0.3913(3) 0.86540(15)
C1_4 C 0.97219(9) 0.2373(3) 0.88687(13)
C2_4 C 0.99157(10) 0.0689(3) 0.96756(15)
C3_2 C 0.89205(10) 0.7876(3) 0.70130(12)
H1_2 H 0.9089 0.7699 0.7689
C4_2 C 0.84189(11) 0.9591(4) 0.64708(14)
C5_2 C 0.81642(9) 0.9893(3) 0.54766(12)
C6_2 C 0.84371(10) 0.8391(4) 0.50861(13)
H3_2 H 0.8277 0.8526 0.4412
C7_2 C 0.89391(10) 0.6709(4) 0.56764(13)
H4_2 H 0.9120 0.5702 0.5396
O4_4 O 0.92774(10) 0.6087(3) 0.36540(15)
C9_4 C 0.97219(9) 0.7627(3) 0.38687(13)
C10_4 C 0.99157(10) 0.9311(3) 0.46756(15)
Zn2_2 Zn 1.0000 0.57968(4) 0.2500
O3_4 O 0.99392(7) 0.7944(2) 0.15262(10)
N2_4 N 0.91838(7) 0.3565(3) 0.16332(10)
C11_4 C 0.89205(10) 0.2124(3) 0.20130(12)
H6_4 H 0.9089 0.2301 0.2689
C12_4 C 0.84189(11) 0.0409(4) 0.14708(14)
C13_4 C 0.81642(9) 0.0107(3) 0.04766(12)
C14_4 C 0.84371(10) 0.1609(4) 0.00861(13)
C15_4 C 0.89391(10) 0.3291(4) 0.06764(13)
H9_4 H 0.9120 0.4298 0.0396
H8_4 H 0.8277 0.1474 0.9412
H3_3 H 0.6723 0.3526 0.0588
C8_3 C 0.73647(9) 0.6699(3) 0.01505(13)
H5_3 H 0.7527 0.6723 0.0827
H7_3 H 0.8246 0.9432 0.1770
N1_2 N 0.58162(7) 0.1435(3) 0.83668(10)
C3_3 C 0.60795(10) 0.2876(3) 0.79870(12)
H1_3 H 0.5911 0.2699 0.7311
C4_3 C 0.65811(11) 0.4591(4) 0.85292(14)
H2_3 H 0.6754 0.5568 0.8230
C5_3 C 0.68358(9) 0.4893(3) 0.95234(12)
C6_3 C 0.65629(10) 0.3391(4) 0.99139(13)
C7_3 C 0.60609(10) 0.1709(4) 0.93236(13)
H4_3 H 0.5880 0.0702 0.9604
C16_3 C 0.76353(9) 0.8301(3) 0.98495(13)
H10_3 H 0.7473 0.8277 0.9173
N3_2 N 0.41838(7) 0.1435(3) 0.66332(10)
C3_4 C 0.39205(10) 0.2876(3) 0.70130(12)
H1_4 H 0.4089 0.2699 0.7689
C4_4 C 0.34189(11) 0.4591(4) 0.64708(14)
H2_4 H 0.3246 0.5568 0.6770
C5_4 C 0.31642(9) 0.4893(3) 0.54766(12)
C6_4 C 0.34371(10) 0.3391(4) 0.50861(13)
H3_4 H 0.3277 0.3526 0.4412
C7_4 C 0.39391(10) 0.1709(4) 0.56764(13)
H4_4 H 0.4120 0.0702 0.5396
C8_4 C 0.26353(9) 0.6699(3) 0.48495(13)
H5_4 H 0.2473 0.6723 0.4173
H7_4 H 0.1754 0.9432 0.3230
C16_4 C 0.23647(9) 0.8301(3) 0.51505(13)
H10_4 H 0.2527 0.8277 0.5827
loop_
_geom_bond_atom_site_label_1
_geom_bond_atom_site_label_2
_geom_bond_site_symmetry_1
_geom_bond_site_symmetry_2
Zn1 O1 1_555 1_555
O1 C1 1_555 1_555
O2 C1 1_555 1_555
C1 C2 1_555 1_555
C2 C10 1_555 1_555
O3 C9 1_555 1_555
O4 C9 1_555 1_555
C9 C10 1_555 1_555
Zn3 O3 1_555 1_555
O5 Zn1 1_555 1_555
O3_2 C9_2 1_555 1_555
O4_2 C9_2 1_555 1_555
C9_2 C10_2 1_555 1_555
Zn3 O3_2 1_555 1_555
O5 C1_2 1_555 1_555
O2_2 C1_2 1_555 1_555
C1_2 C2_2 1_555 1_555
H5 C8 1_555 1_555
N2 C11 1_555 1_555
C11 H6 1_555 1_555
C12 C11 1_555 1_555
H7 C12 1_555 1_555
C13 C12 1_555 1_555
C14 C13 1_555 1_555
C15 N2 1_555 1_555
H9 C15 1_555 1_555
C14 C15 1_555 1_555
H5_2 C8_2 1_555 1_555
N2_2 C11_2 1_555 1_555
C11_2 H6_2 1_555 1_555
C12_2 C11_2 1_555 1_555
H7_2 C12_2 1_555 1_555
C13_2 C12_2 1_555 1_555
C14_2 C13_2 1_555 1_555
H8 C14_2 1_555 1_555
C15_2 N2_2 1_555 1_555
H9_2 C15_2 1_555 1_555
C16 C8_2 1_555 1_555
H10 C16 1_555 1_555
C13_2 C16 1_555 1_555
C14_2 C15_2 1_555 1_555
H10_2 C16_2 1_555 1_555
O2_3 C1_3 1_555 1_555
N1 Zn1_2 1_555 1_555
C1_3 C2_3 1_555 1_555
C3 N1 1_555 1_555
H1 C3 1_555 1_555
C4 C3 1_555 1_555
C5 C4 1_555 1_555
C6 C5 1_555 1_555
C7 N1 1_555 1_555
H4 C7 1_555 1_555
O5_2 Zn1_2 1_555 1_555
C6 C7 1_555 1_555
Zn2 O3_3 1_555 1_555
O4_3 C9_3 1_555 1_555
C9_3 C10_3 1_555 1_555
N2_3 C11_3 1_555 1_555
C11_3 H6_3 1_555 1_555
C12_3 C11_3 1_555 1_555
C13_3 C12_3 1_555 1_555
C14_3 C13_3 1_555 1_555
H8_3 C14_3 1_555 1_555
C15_3 N2_3 1_555 1_555
H9_3 C15_3 1_555 1_555
Zn2 N2_3 1_555 1_555
C14_3 C15_3 1_555 1_555
Zn1_3 O1_2 1_555 1_555
N3 Zn1_3 1_555 1_555
O2_4 C1_4 1_555 1_555
C1_4 C2_4 1_555 1_555
C3_2 N3 1_555 1_555
H1_2 C3_2 1_555 1_555
C4_2 C3_2 1_555 1_555
C5_2 C4_2 1_555 1_555
C6_2 C5_2 1_555 1_555
H3_2 C6_2 1_555 1_555
C7_2 N3 1_555 1_555
H4_2 C7_2 1_555 1_555
C6_2 C7_2 1_555 1_555
O4_4 C9_4 1_555 1_555
C9_4 C10_4 1_555 1_555
Zn2_2 O3_4 1_555 1_555
N2_4 C11_4 1_555 1_555
C11_4 H6_4 1_555 1_555
C12_4 C11_4 1_555 1_555
C13_4 C12_4 1_555 1_555
C14_4 C13_4 1_555 1_555
C15_4 N2_4 1_555 1_555
H9_4 C15_4 1_555 1_555
Zn2_2 N2_4 1_555 1_555
C14_4 C15_4 1_555 1_555
H5_3 C8_3 1_555 1_555
C3_3 N1_2 1_555 1_555
H1_3 C3_3 1_555 1_555
C4_3 C3_3 1_555 1_555
H2_3 C4_3 1_555 1_555
C5_3 C4_3 1_555 1_555
C6_3 C5_3 1_555 1_555
C7_3 N1_2 1_555 1_555
H4_3 C7_3 1_555 1_555
H10_3 C16_3 1_555 1_555
C6_3 C7_3 1_555 1_555
C3_4 N3_2 1_555 1_555
H1_4 C3_4 1_555 1_555
C4_4 C3_4 1_555 1_555
H2_4 C4_4 1_555 1_555
C5_4 C4_4 1_555 1_555
C6_4 C5_4 1_555 1_555
H3_4 C6_4 1_555 1_555
C7_4 N3_2 1_555 1_555
H4_4 C7_4 1_555 1_555
C8_4 C5_4 1_555 1_555
H5_4 C8_4 1_555 1_555
C16_4 C8_4 1_555 1_555
H10_4 C16_4 1_555 1_555
C6_4 C7_4 1_555 1_555

#END
