
###############################################################################
#
# This file contains modified crystal structure data generated from the
# MOF subset of the Cambridge Structural Database (CSD) v543 
# hosted by the Cambridge Crystallographic Data Centre (CCDC).
#
# This work is licensed under the Creative Commons
# Attribution-NonCommercial-ShareAlike 4.0 International License.
# To view a copy of this license, visit
# http://creativecommons.org/licenses/by-nc-sa/4.0/
# or send a letter to
# Creative Commons, PO Box 1866, Mountain View, CA 94042, USA.
#
# CIF created using the CSD Python API on 29 September 2022
# The structure has been converted into the P1 space group
# The structure has a 3D framework
# The original CSD entry KESFUM is in the tetragonal crystal system
# The original CSD entry KESFUM is in a Sohncke space group
# The framework has been calculated to contain at least 10.0% void space
# The void calculation uses a probe of radius 1.32A, grid spacing 0.4
# H atom positions have been added when not included in the experimental data
#
###############################################################################

data_KESFUM
_chemical_formula_moiety         '(C92 H82 Ni6 O40)n'
_symmetry_cell_setting           triclinic
_symmetry_space_group_name_H-M   'P 1'
_symmetry_Int_Tables_number      1
_space_group_name_Hall           'P 1'
loop_
_symmetry_equiv_pos_site_id
_symmetry_equiv_pos_as_xyz
1 x,y,z
_cell_length_a                   15.25380(10)
_cell_length_b                   15.25380(10)
_cell_length_c                   12.1148(2)
_cell_angle_alpha                90
_cell_angle_beta                 90
_cell_angle_gamma                90
_cell_volume                     2818.85
loop_
_atom_site_label
_atom_site_type_symbol
_atom_site_fract_x
_atom_site_fract_y
_atom_site_fract_z
Ni4 Ni 0.68910(2) 0.68910(2) 0.0000
Ni6 Ni 0.31090(2) 0.31090(2) 0.0000
Ni1 Ni 0.18910(2) 0.31090(2) 0.7500
O1 O 0.28746(15) 0.40423(15) 0.7503(2)
O2 O 0.2500 0.2401(3) 0.8750
C1 C 0.5000 0.5000 0.5614(4)
C2 C 0.5000 0.5000 0.7933(4)
H1 H 0.5000 0.5000 0.8700
C3 C 0.4319(2) 0.4598(2) 0.7356(3)
C4 C 0.3602(2) 0.4095(2) 0.7961(3)
C5 C 0.4312(3) 0.4628(2) 0.6204(3)
H2 H 0.3837 0.4394 0.5823
O3 O 0.38233(19) 0.3780(2) 0.88707(19)
C6 C 0.2500 0.1576(8) 0.8750
O4 O 0.71254(15) 0.59577(15) 0.7503(2)
C7 C 0.5681(2) 0.5402(2) 0.7356(3)
C8 C 0.6398(2) 0.5905(2) 0.7961(3)
C9 C 0.5688(3) 0.5372(2) 0.6204(3)
H3 H 0.6163 0.5606 0.5823
O5 O 0.61767(19) 0.6220(2) 0.88707(19)
O6 O 0.40423(15) 0.28746(15) 0.2497(2)
C10 C 0.5000 0.5000 0.4386(4)
C11 C 0.5000 0.5000 0.2067(4)
H4 H 0.5000 0.5000 0.1300
C12 C 0.4598(2) 0.4319(2) 0.2644(3)
C13 C 0.4095(2) 0.3602(2) 0.2039(3)
C14 C 0.4628(2) 0.4312(3) 0.3796(3)
H5 H 0.4394 0.3837 0.4177
O7 O 0.3780(2) 0.38233(19) 0.11293(19)
O8 O 0.59577(15) 0.71254(15) 0.2497(2)
C15 C 0.5402(2) 0.5681(2) 0.2644(3)
C16 C 0.5905(2) 0.6398(2) 0.2039(3)
C17 C 0.5372(2) 0.5688(3) 0.3796(3)
H6 H 0.5606 0.6163 0.4177
O9 O 0.6220(2) 0.61767(19) 0.11293(19)
Ni2 Ni 0.81090(2) 0.68910(2) 0.7500
O10 O 0.7500 0.7599(3) 0.8750
C18 C 0.7500 0.8424(8) 0.8750
Ni4_2 Ni 0.68910(2) 0.68910(2) 1.0000
Ni6_2 Ni 0.31090(2) 0.31090(2) 1.0000
Ni7 Ni 0.31090(2) 0.18910(2) 0.2500
Ni8 Ni 0.68910(2) 0.81090(2) 0.2500
O11 O 0.90423(15) 0.78746(15) 0.7497(2)
O12 O 0.09577(15) 0.21254(15) 0.7497(2)
O13 O 0.2599(3) 0.2500 0.6250
O14 O 0.7401(3) 0.7500 0.6250
O15 O 0.1220(2) 0.38233(19) 0.63707(19)
O16 O 0.8780(2) 0.61767(19) 0.63707(19)
O17 O 0.88233(19) 0.6220(2) 0.86293(19)
O18 O 0.11767(19) 0.3780(2) 0.86293(19)
H7 H 0.28209 0.133803 0.800502
H8 H 0.285195 0.133803 0.94724
H9 H 0.182715 0.133803 0.877258
H10 H 0.71791 0.866197 0.800502
H11 H 0.714805 0.866197 0.94724
H12 H 0.817285 0.866197 0.877258
C2_2 C 0.5000 0.0000 0.0433(4)
H1_2 H 0.5000 0.0000 0.1200
O4_2 O 0.40423(15) 0.21254(15) 0.0003(2)
C8_2 C 0.4095(2) 0.1398(2) 0.0461(3)
O5_2 O 0.3780(2) 0.11767(19) 0.13707(19)
O10_2 O 0.2401(3) 0.2500 0.1250
C18_2 C 0.1576(8) 0.2500 0.1250
H10_2 H 0.133803 0.21791 0.0505023
H11_2 H 0.133803 0.214805 0.19724
H12_2 H 0.133803 0.317285 0.127258
C1_2 C 0.5000 0.0000 0.8114(4)
C7_2 C 0.4598(2) 0.0681(2) 0.9856(3)
C9_2 C 0.4628(2) 0.0688(3) 0.8704(3)
H3_2 H 0.4394 0.1163 0.8323
C10_2 C 0.5000 0.0000 0.6886(4)
C11_2 C 0.5000 0.0000 0.4567(4)
H4_2 H 0.5000 0.0000 0.3800
O8_2 O 0.28746(15) 0.09577(15) 0.4997(2)
C15_2 C 0.4319(2) 0.0402(2) 0.5144(3)
C16_2 C 0.3602(2) 0.0905(2) 0.4539(3)
C17_2 C 0.4312(3) 0.0372(2) 0.6296(3)
H6_2 H 0.3837 0.0606 0.6677
O9_2 O 0.38233(19) 0.1220(2) 0.36293(19)
Ni8_2 Ni 0.18910(2) 0.18910(2) 0.5000
O11_2 O 0.21254(15) 0.40423(15) 0.9997(2)
O1_2 O 0.59577(15) 0.78746(15) 0.0003(2)
O2_2 O 0.7599(3) 0.7500 0.1250
C2_3 C 0.5000 1.0000 0.0433(4)
H1_3 H 0.5000 1.0000 0.1200
C4_2 C 0.5905(2) 0.8602(2) 0.0461(3)
O3_2 O 0.6220(2) 0.88233(19) 0.13707(19)
C6_2 C 0.8424(8) 0.7500 0.1250
H7_2 H 0.866197 0.78209 0.0505023
H8_2 H 0.866197 0.785195 0.19724
H9_2 H 0.866197 0.682715 0.127258
C1_3 C 0.5000 1.0000 0.8114(4)
C3_2 C 0.5402(2) 0.9319(2) 0.9856(3)
C5_2 C 0.5372(2) 0.9312(3) 0.8704(3)
H2_2 H 0.5606 0.8837 0.8323
O6_2 O 0.71254(15) 0.90423(15) 0.4997(2)
C10_3 C 0.5000 1.0000 0.6886(4)
C11_3 C 0.5000 1.0000 0.4567(4)
H4_3 H 0.5000 1.0000 0.3800
C12_2 C 0.5681(2) 0.9598(2) 0.5144(3)
C13_2 C 0.6398(2) 0.9095(2) 0.4539(3)
C14_2 C 0.5688(3) 0.9628(2) 0.6296(3)
H5_2 H 0.6163 0.9394 0.6677
O7_2 O 0.61767(19) 0.8780(2) 0.36293(19)
Ni7_2 Ni 0.81090(2) 0.81090(2) 0.5000
O12_2 O 0.78746(15) 0.59577(15) 0.9997(2)
O2_3 O 0.2500 0.2599(3) 0.3750
C6_3 C 0.2500 0.3424(8) 0.3750
O12_3 O 0.09577(15) 0.28746(15) 0.5003(2)
O15_2 O 0.1220(2) 0.11767(19) 0.61293(19)
O18_2 O 0.11767(19) 0.1220(2) 0.38707(19)
H7_3 H 0.28209 0.366197 0.449498
H8_3 H 0.285195 0.366197 0.30276
H9_3 H 0.182715 0.366197 0.372742
O10_3 O 0.7500 0.7401(3) 0.3750
C18_3 C 0.7500 0.6576(8) 0.3750
O11_3 O 0.90423(15) 0.71254(15) 0.5003(2)
O16_2 O 0.8780(2) 0.88233(19) 0.61293(19)
O17_2 O 0.88233(19) 0.8780(2) 0.38707(19)
H10_3 H 0.71791 0.633803 0.449498
H11_3 H 0.714805 0.633803 0.30276
H12_3 H 0.817285 0.633803 0.372742
O11_4 O 0.78746(15) 0.90423(15) 0.2503(2)
O12_4 O 0.21254(15) 0.09577(15) 0.2503(2)
H7_4 H 0.133803 0.28209 0.199498
H8_4 H 0.133803 0.285195 0.0527599
H9_4 H 0.133803 0.182715 0.122742
H10_4 H 0.866197 0.71791 0.199498
H11_4 H 0.866197 0.714805 0.0527599
H12_4 H 0.866197 0.817285 0.122742
C1_4 C 0.0000 0.0000 0.0614(4)
C2_4 C 0.0000 0.0000 0.2933(4)
H1_4 H 0.0000 0.0000 0.3700
C7_3 C 0.0681(2) 0.0402(2) 0.2356(3)
C8_3 C 0.1398(2) 0.0905(2) 0.2961(3)
C9_3 C 0.0688(3) 0.0372(2) 0.1204(3)
H3_3 H 0.1163 0.0606 0.0823
H10_5 H 0.21791 0.366197 0.300502
H11_5 H 0.214805 0.366197 0.44724
H12_5 H 0.317285 0.366197 0.377258
C10_4 C 0.0000 0.0000 0.9386(4)
C11_4 C 0.0000 0.0000 0.7067(4)
H4_4 H 0.0000 0.0000 0.6300
C15_3 C 0.0402(2) 0.0681(2) 0.7644(3)
C16_3 C 0.0905(2) 0.1398(2) 0.7039(3)
C17_3 C 0.0372(2) 0.0688(3) 0.8796(3)
H6_3 H 0.0606 0.1163 0.9177
C1_5 C 1.0000 1.0000 0.0614(4)
C2_5 C 1.0000 1.0000 0.2933(4)
H1_5 H 1.0000 1.0000 0.3700
C3_3 C 0.9319(2) 0.9598(2) 0.2356(3)
C4_3 C 0.8602(2) 0.9095(2) 0.2961(3)
C5_3 C 0.9312(3) 0.9628(2) 0.1204(3)
H2_3 H 0.8837 0.9394 0.0823
H7_5 H 0.78209 0.633803 0.300502
H8_5 H 0.785195 0.633803 0.44724
H9_5 H 0.682715 0.633803 0.377258
C10_5 C 1.0000 1.0000 0.9386(4)
C11_5 C 1.0000 1.0000 0.7067(4)
H4_5 H 1.0000 1.0000 0.6300
C12_3 C 0.9598(2) 0.9319(2) 0.7644(3)
C13_3 C 0.9095(2) 0.8602(2) 0.7039(3)
C14_3 C 0.9628(2) 0.9312(3) 0.8796(3)
H5_3 H 0.9394 0.8837 0.9177
C1_6 C 0.0000 0.5000 0.3114(4)
C2_6 C -0.0000 0.5000 0.5433(4)
H1_6 H -0.0000 0.5000 0.6200
C3_4 C 0.0402(2) 0.4319(2) 0.4856(3)
C4_4 C 0.0905(2) 0.3602(2) 0.5461(3)
C5_4 C 0.0372(2) 0.4312(3) 0.3704(3)
H2_4 H 0.0606 0.3837 0.3323
C6_4 C 0.3424(8) 0.2500 0.6250
C10_6 C -0.0000 0.5000 0.1886(4)
C12_4 C 0.0681(2) 0.4598(2) 0.0144(3)
C14_4 C 0.0688(3) 0.4628(2) 0.1296(3)
H5_4 H 0.1163 0.4394 0.1677
H7_6 H 0.366197 0.28209 0.550502
H8_6 H 0.366197 0.285195 0.69724
H9_6 H 0.366197 0.182715 0.627258
C11_6 C -0.0000 0.5000 0.9567(4)
H4_6 H -0.0000 0.5000 0.8800
C13_4 C 0.1398(2) 0.4095(2) 0.9539(3)
C1_7 C 1.0000 0.5000 0.3114(4)
C2_7 C 1.0000 0.5000 0.5433(4)
H1_7 H 1.0000 0.5000 0.6200
C7_4 C 0.9598(2) 0.5681(2) 0.4856(3)
C8_4 C 0.9095(2) 0.6398(2) 0.5461(3)
C9_4 C 0.9628(2) 0.5688(3) 0.3704(3)
H3_4 H 0.9394 0.6163 0.3323
C10_7 C 1.0000 0.5000 0.1886(4)
C15_4 C 0.9319(2) 0.5402(2) 0.0144(3)
C17_4 C 0.9312(3) 0.5372(2) 0.1296(3)
H6_4 H 0.8837 0.5606 0.1677
C18_4 C 0.6576(8) 0.7500 0.6250
H10_6 H 0.633803 0.71791 0.550502
H11_6 H 0.633803 0.714805 0.69724
H12_6 H 0.633803 0.817285 0.627258
C11_7 C 1.0000 0.5000 0.9567(4)
H4_7 H 1.0000 0.5000 0.8800
C16_4 C 0.8602(2) 0.5905(2) 0.9539(3)
H10_7 H 0.21791 0.133803 0.949498
H11_7 H 0.214805 0.133803 0.80276
H12_7 H 0.317285 0.133803 0.872742
H7_7 H 0.78209 0.866197 0.949498
H8_7 H 0.785195 0.866197 0.80276
H9_7 H 0.682715 0.866197 0.872742
H10_8 H 0.366197 0.21791 0.699498
H11_8 H 0.366197 0.214805 0.55276
H12_8 H 0.366197 0.317285 0.622742
H7_8 H 0.633803 0.78209 0.699498
H8_8 H 0.633803 0.785195 0.55276
H9_8 H 0.633803 0.682715 0.622742
C1_8 C 0.0000 1.0000 0.0614(4)
C2_8 C 0.0000 1.0000 0.2933(4)
H1_8 H 0.0000 1.0000 0.3700
C10_8 C 0.0000 1.0000 0.9386(4)
C11_8 C 0.0000 1.0000 0.7067(4)
H4_8 H 0.0000 1.0000 0.6300
C1_9 C 1.0000 0.0000 0.0614(4)
C2_9 C 1.0000 0.0000 0.2933(4)
H1_9 H 1.0000 0.0000 0.3700
C10_9 C 1.0000 0.0000 0.9386(4)
C11_9 C 1.0000 0.0000 0.7067(4)
H4_9 H 1.0000 0.0000 0.6300
loop_
_geom_bond_atom_site_label_1
_geom_bond_atom_site_label_2
_geom_bond_site_symmetry_1
_geom_bond_site_symmetry_2
Ni1 O1 1_555 1_555
O1 C4 1_555 1_555
O2 Ni1 1_555 1_555
C1 C5 1_555 1_555
C2 H1 1_555 1_555
C3 C2 1_555 1_555
C4 C3 1_555 1_555
C5 C3 1_555 1_555
H2 C5 1_555 1_555
O3 C4 1_555 1_555
C6 O2 1_555 1_555
O4 C8 1_555 1_555
C7 C2 1_555 1_555
C8 C7 1_555 1_555
C9 C1 1_555 1_555
H3 C9 1_555 1_555
O5 C8 1_555 1_555
O6 C13 1_555 1_555
C10 C1 1_555 1_555
C11 H4 1_555 1_555
C12 C11 1_555 1_555
C13 C12 1_555 1_555
C14 C10 1_555 1_555
H5 C14 1_555 1_555
O7 C13 1_555 1_555
O8 C16 1_555 1_555
C15 C11 1_555 1_555
C16 C15 1_555 1_555
C17 C10 1_555 1_555
H6 C17 1_555 1_555
O9 C16 1_555 1_555
Ni2 O4 1_555 1_555
O10 Ni2 1_555 1_555
C18 O10 1_555 1_555
Ni4 O9 1_555 1_555
Ni4_2 O5 1_555 1_555
Ni6 O7 1_555 1_555
Ni6_2 O2 1_555 1_555
Ni7 O6 1_555 1_555
Ni8 O8 1_555 1_555
O11 Ni2 1_555 1_555
O12 Ni1 1_555 1_555
O13 Ni1 1_555 1_555
O14 Ni2 1_555 1_555
O15 Ni1 1_555 1_555
O16 Ni2 1_555 1_555
O17 Ni2 1_555 1_555
O18 Ni1 1_555 1_555
O3 Ni6_2 1_555 1_555
C7 C9 1_555 1_555
C12 C14 1_555 1_555
C15 C17 1_555 1_555
O10 Ni4_2 1_555 1_555
C6 H7 1_555 1_555
C6 H8 1_555 1_555
C6 H9 1_555 1_555
C18 H10 1_555 1_555
C18 H11 1_555 1_555
C18 H12 1_555 1_555
C2_2 H1_2 1_555 1_555
O4_2 C8_2 1_555 1_555
O5_2 C8_2 1_555 1_555
Ni6 O4_2 1_555 1_555
O10_2 Ni6 1_555 1_555
C18_2 O10_2 1_555 1_555
Ni7 O5_2 1_555 1_555
O10_2 Ni7 1_555 1_555
C18_2 H10_2 1_555 1_555
C18_2 H11_2 1_555 1_555
C18_2 H12_2 1_555 1_555
C9_2 C1_2 1_555 1_555
H3_2 C9_2 1_555 1_555
C10_2 C1_2 1_555 1_555
C11_2 H4_2 1_555 1_555
O8_2 C16_2 1_555 1_555
C15_2 C11_2 1_555 1_555
C16_2 C15_2 1_555 1_555
C17_2 C10_2 1_555 1_555
H6_2 C17_2 1_555 1_555
O9_2 C16_2 1_555 1_555
Ni7 O9_2 1_555 1_555
Ni8_2 O8_2 1_555 1_555
O11_2 Ni6_2 1_555 1_555
C7_2 C9_2 1_555 1_555
C15_2 C17_2 1_555 1_555
Ni4 O1_2 1_555 1_555
O1_2 C4_2 1_555 1_555
O2_2 Ni4 1_555 1_555
C2_3 H1_3 1_555 1_555
O3_2 C4_2 1_555 1_555
C6_2 O2_2 1_555 1_555
Ni8 O2_2 1_555 1_555
O3_2 Ni8 1_555 1_555
C6_2 H7_2 1_555 1_555
C6_2 H8_2 1_555 1_555
C6_2 H9_2 1_555 1_555
C1_3 C5_2 1_555 1_555
C5_2 C3_2 1_555 1_555
H2_2 C5_2 1_555 1_555
O6_2 C13_2 1_555 1_555
C10_3 C1_3 1_555 1_555
C11_3 H4_3 1_555 1_555
C12_2 C11_3 1_555 1_555
C13_2 C12_2 1_555 1_555
C14_2 C10_3 1_555 1_555
H5_2 C14_2 1_555 1_555
O7_2 C13_2 1_555 1_555
Ni8 O7_2 1_555 1_555
Ni7_2 O6_2 1_555 1_555
O12_2 Ni4_2 1_555 1_555
C12_2 C14_2 1_555 1_555
O2_3 Ni8_2 1_555 1_555
C6_3 O2_3 1_555 1_555
Ni7 O2_3 1_555 1_555
O12_3 Ni8_2 1_555 1_555
O13 Ni8_2 1_555 1_555
O15_2 Ni8_2 1_555 1_555
O18_2 Ni8_2 1_555 1_555
C6_3 H7_3 1_555 1_555
C6_3 H8_3 1_555 1_555
C6_3 H9_3 1_555 1_555
O10_3 Ni7_2 1_555 1_555
C18_3 O10_3 1_555 1_555
O11_3 Ni7_2 1_555 1_555
O14 Ni7_2 1_555 1_555
O16_2 Ni7_2 1_555 1_555
O17_2 Ni7_2 1_555 1_555
O10_3 Ni8 1_555 1_555
C18_3 H10_3 1_555 1_555
C18_3 H11_3 1_555 1_555
C18_3 H12_3 1_555 1_555
O11_4 Ni8 1_555 1_555
O12_4 Ni7 1_555 1_555
C18_2 H7_4 1_555 1_555
C18_2 H8_4 1_555 1_555
C18_2 H9_4 1_555 1_555
C6_2 H10_4 1_555 1_555
C6_2 H11_4 1_555 1_555
C6_2 H12_4 1_555 1_555
C2_4 H1_4 1_555 1_555
O12_4 C8_3 1_555 1_555
C7_3 C2_4 1_555 1_555
C8_3 C7_3 1_555 1_555
C9_3 C1_4 1_555 1_555
H3_3 C9_3 1_555 1_555
O18_2 C8_3 1_555 1_555
C7_3 C9_3 1_555 1_555
C6_3 H10_5 1_555 1_555
C6_3 H11_5 1_555 1_555
C6_3 H12_5 1_555 1_555
C11_4 H4_4 1_555 1_555
O12 C16_3 1_555 1_555
C15_3 C11_4 1_555 1_555
C16_3 C15_3 1_555 1_555
C17_3 C10_4 1_555 1_555
H6_3 C17_3 1_555 1_555
O15_2 C16_3 1_555 1_555
C15_3 C17_3 1_555 1_555
O11_4 C4_3 1_555 1_555
C1_5 C5_3 1_555 1_555
C2_5 H1_5 1_555 1_555
C3_3 C2_5 1_555 1_555
C4_3 C3_3 1_555 1_555
C5_3 C3_3 1_555 1_555
H2_3 C5_3 1_555 1_555
O17_2 C4_3 1_555 1_555
C18_3 H7_5 1_555 1_555
C18_3 H8_5 1_555 1_555
C18_3 H9_5 1_555 1_555
O11 C13_3 1_555 1_555
C11_5 H4_5 1_555 1_555
C12_3 C11_5 1_555 1_555
C13_3 C12_3 1_555 1_555
C14_3 C10_5 1_555 1_555
H5_3 C14_3 1_555 1_555
O16_2 C13_3 1_555 1_555
C12_3 C14_3 1_555 1_555
O12_3 C4_4 1_555 1_555
C1_6 C5_4 1_555 1_555
C2_6 H1_6 1_555 1_555
C3_4 C2_6 1_555 1_555
C4_4 C3_4 1_555 1_555
C5_4 C3_4 1_555 1_555
H2_4 C5_4 1_555 1_555
O15 C4_4 1_555 1_555
C6_4 O13 1_555 1_555
C10_6 C1_6 1_555 1_555
C14_4 C10_6 1_555 1_555
H5_4 C14_4 1_555 1_555
C12_4 C14_4 1_555 1_555
C6_4 H7_6 1_555 1_555
C6_4 H8_6 1_555 1_555
C6_4 H9_6 1_555 1_555
O11_2 C13_4 1_555 1_555
C11_6 H4_6 1_555 1_555
O18 C13_4 1_555 1_555
C2_7 H1_7 1_555 1_555
O11_3 C8_4 1_555 1_555
C7_4 C2_7 1_555 1_555
C8_4 C7_4 1_555 1_555
C9_4 C1_7 1_555 1_555
H3_4 C9_4 1_555 1_555
O16 C8_4 1_555 1_555
C10_7 C1_7 1_555 1_555
C17_4 C10_7 1_555 1_555
H6_4 C17_4 1_555 1_555
C18_4 O14 1_555 1_555
C7_4 C9_4 1_555 1_555
C15_4 C17_4 1_555 1_555
C18_4 H10_6 1_555 1_555
C18_4 H11_6 1_555 1_555
C18_4 H12_6 1_555 1_555
C11_7 H4_7 1_555 1_555
O12_2 C16_4 1_555 1_555
O17 C16_4 1_555 1_555
C6 H10_7 1_555 1_555
C6 H11_7 1_555 1_555
C6 H12_7 1_555 1_555
C18 H7_7 1_555 1_555
C18 H8_7 1_555 1_555
C18 H9_7 1_555 1_555
C6_4 H10_8 1_555 1_555
C6_4 H11_8 1_555 1_555
C6_4 H12_8 1_555 1_555
C18_4 H7_8 1_555 1_555
C18_4 H8_8 1_555 1_555
C18_4 H9_8 1_555 1_555
C2_8 H1_8 1_555 1_555
C11_8 H4_8 1_555 1_555
C2_9 H1_9 1_555 1_555
C11_9 H4_9 1_555 1_555

#END
