
###############################################################################
#
# This file contains modified crystal structure data generated from the
# MOF subset of the Cambridge Structural Database (CSD) v543 
# hosted by the Cambridge Crystallographic Data Centre (CCDC).
#
# This work is licensed under the Creative Commons
# Attribution-NonCommercial-ShareAlike 4.0 International License.
# To view a copy of this license, visit
# http://creativecommons.org/licenses/by-nc-sa/4.0/
# or send a letter to
# Creative Commons, PO Box 1866, Mountain View, CA 94042, USA.
#
# CIF created using the CSD Python API on 29 September 2022
# The structure has been converted into the P1 space group
# The structure has a 3D framework
# The original CSD entry KESZIU is in the triclinic crystal system
# The framework has been calculated to contain at least 10.0% void space
# The void calculation uses a probe of radius 1.32A, grid spacing 0.4
#
###############################################################################

data_KESZIU
_chemical_formula_moiety         '(C36 H24 Cu18 Mo24 N26 O82 P2)n'
_symmetry_cell_setting           triclinic
_symmetry_space_group_name_H-M   'P 1'
_symmetry_Int_Tables_number      1
_space_group_name_Hall           'P 1'
loop_
_symmetry_equiv_pos_site_id
_symmetry_equiv_pos_as_xyz
1 x,y,z
_cell_length_a                   13.4257(7)
_cell_length_b                   13.8454(7)
_cell_length_c                   18.7821(10)
_cell_angle_alpha                96.6080(10)
_cell_angle_beta                 102.4250(10)
_cell_angle_gamma                115.5620(10)
_cell_volume                     2988.91
loop_
_atom_site_label
_atom_site_type_symbol
_atom_site_fract_x
_atom_site_fract_y
_atom_site_fract_z
Cu18 Cu 0.02325(13) 0.22113(10) 0.89180(7)
O37 O 0.6146(7) 0.1172(7) 0.0189(4)
Cu6 Cu -0.0000 -0.0000 0.0000
C29 C 0.1261(9) 0.0267(8) 0.3475(5)
H18 H 0.1704 0.0984 0.3440
H20 H 0.2076 0.0472 0.4544
C33 C 0.0003(9) 0.1653(8) 0.0995(5)
C35 C 0.0067(9) 0.2985(8) 0.0523(5)
H21 H 0.0086 0.3650 0.0465
N24 N 0.0005(7) 0.2624(6) 0.1165(4)
N25 N 0.0142(7) 0.0816(6) 0.2133(4)
N27 N 0.0056(8) 0.1443(7) 0.0303(4)
Cu12 Cu 0.01536(12) 0.17229(10) 0.29611(6)
C3 C 0.0409(8) 0.6086(7) 0.6477(5)
C4 C 0.0935(8) 0.5311(7) 0.7279(5)
C5 C 0.1310(9) 0.5044(8) 0.7999(5)
C6 C 0.0749(9) 0.3986(8) 0.8085(5)
H2 H 0.0099 0.3473 0.7699
C7 C 0.2231(11) 0.5840(9) 0.8575(6)
H3 H 0.2590 0.6572 0.8547
C8 C 0.2015(12) 0.4399(10) 0.9243(6)
H4 H 0.2279 0.4182 0.9663
C9 C 0.0270(8) 0.1561(8) 0.7060(5)
H5 H 0.0877 0.2079 0.7467
C18 C 0.2606(13) 0.5492(10) 0.9212(6)
H10 H 0.3247 0.5993 0.9608
N1 N 0.0687(7) 0.6161(6) 0.7223(4)
N5 N 0.0504(7) 0.5269(6) 0.6107(4)
N6 N 0.0825(7) 0.4754(6) 0.6622(4)
N7 N 0.1085(7) 0.3648(7) 0.8698(4)
N8 N 0.0036(7) 0.1864(6) 0.6417(4)
N9 N 0.0074(7) 0.0750(6) 0.8519(4)
N12 N 0.0165(8) 0.0101(6) 0.8995(4)
O1 O 0.4911(6) 0.0073(6) 0.6108(4)
O2 O 0.4846(5) 0.2769(5) 0.7899(3)
O3 O 0.7494(6) 0.2695(6) 0.9500(3)
O4 O 0.6114(5) 0.1874(5) 0.8122(3)
O5 O 0.4085(5) 0.0808(5) 0.7269(3)
O6 O 0.5587(5) 0.2283(5) 0.6874(3)
O7 O 0.5295(6) 0.4149(6) 0.9160(4)
O8 O 0.3174(6) 0.3070(6) 0.8216(4)
O9 O 0.4079(6) 0.3246(5) 0.6461(4)
O10 O 0.4835(6) 0.4663(6) 0.7854(4)
O11 O 0.2604(6) 0.3861(6) 0.6942(4)
O12 O 0.3265(6) 0.1176(6) 0.5853(4)
O16 O 0.7012(6) 0.1138(6) 0.6999(4)
O18 O 0.7356(6) 0.2871(6) 0.6331(4)
O19 O 0.5221(6) 0.1665(6) 0.5416(4)
O21 O 0.4531(6) 0.0270(6) 0.8730(4)
O22 O 0.3154(6) 0.1138(6) 0.8476(4)
O23 O 0.3429(7) 0.2730(8) 0.9640(4)
O24 O 0.6969(7) 0.6053(6) 0.8952(4)
O25 O 0.7248(6) 0.4197(6) 0.8870(4)
O26 O 0.5252(6) 0.2297(6) 0.9371(4)
O27 O 0.6632(6) 0.4628(5) 0.7589(4)
O28 O 0.5936(6) 0.3748(6) 0.6066(4)
O29 O 0.8215(6) 0.5183(7) 0.6809(4)
O30 O 0.7967(6) 0.3707(5) 0.7775(4)
O31 O 0.8236(6) 0.2092(5) 0.8408(4)
O32 O 0.6635(6) 0.0572(6) 0.8869(4)
O35 O 0.2534(5) 0.1767(6) 0.6919(4)
O38 O 0.3806(6) 0.2549(6) 0.4893(4)
O39 O 0.6812(7) 0.0856(7) 0.5484(4)
O40 O 0.9434(6) 0.4264(6) 0.9205(4)
P1 P 0.51619(19) 0.19385(19) 0.75425(12)
Cu2 Cu 0.03437(12) 0.68593(10) 0.79931(6)
Cu3 Cu -0.0000 0.5000 0.5000
Cu4 Cu 0.08876(12) 0.33732(10) 0.62523(6)
Mo1 Mo 0.80875(7) 0.33404(7) 0.86918(4)
Mo2 Mo 0.22328(7) 0.04084(7) 0.64363(4)
Mo3 Mo 0.44484(7) 0.23724(7) 0.57056(4)
Mo4 Mo 0.60490(8) 0.15164(8) 0.93526(5)
Mo5 Mo 0.68684(7) 0.05730(7) 0.79277(5)
Mo7 Mo 0.62089(8) 0.46967(7) 0.85572(5)
Mo8 Mo 0.35603(7) 0.34041(7) 0.72565(5)
Mo10 Mo 0.63695(7) 0.13820(7) 0.61243(5)
Mo11 Mo 0.39479(8) 0.26204(8) 0.89137(5)
Mo12 Mo 0.71373(7) 0.40567(7) 0.69164(5)
O41 O 0.1928(9) 0.6191(10) 0.4906(5)
H11 H 0.2166 0.6479 0.4555
H12 H 0.2424 0.5965 0.5096
Cu6_2 Cu 0.0000 -0.0000 1.0000
N28 N 0.0095(8) 0.2298(6) 0.9995(4)
N30 N 0.0703(7) 0.3160(6) 0.5107(4)
N31 N 0.0242(8) 0.3725(6) 0.4732(4)
O83 O 0.1890(5) 0.9706(6) 0.7202(4)
O87 O 0.2181(6) 0.8852(6) 0.8467(4)
Cu6_3 Cu 0.0000 1.0000 0.0000
C19 C 0.0039(8) 0.3361(7) 0.4005(5)
C20 C 0.0737(9) 0.2476(8) 0.4584(5)
H13 H 0.1005 0.1974 0.4686
C28 C 0.0365(8) 0.9504(7) 0.2864(5)
C30 C 0.0824(9) 0.8874(9) 0.4165(5)
H19 H 0.0993 0.8665 0.4610
C31 C 0.1486(9) 0.9963(9) 0.4126(5)
C32 C 0.0110(8) 0.9816(7) 0.2155(5)
N16 N 0.0345(7) 0.2565(6) 0.3877(4)
O86 O 0.1764(6) 0.7908(5) 0.1592(4)
C16 C 0.0014(9) 0.9172(8) 0.8589(5)
O13 O 0.2614(6) 0.9203(6) 0.6084(4)
O15 O 0.3229(6) 0.8735(6) 0.7380(4)
O17 O 0.5390(6) 0.9596(6) 0.7379(4)
O20 O 0.3692(7) 0.7888(6) 0.6119(5)
O33 O 0.7551(6) 0.9798(6) 0.7911(4)
O34 O 0.0926(6) 0.9932(6) 0.5820(4)
Mo6 Mo 0.39338(8) 0.91471(7) 0.65382(5)
Mo9 Mo 0.30913(7) 0.97101(8) 0.80583(5)
Cu6_4 Cu -0.0000 1.0000 1.0000
Cu6_5 Cu 1.0000 -0.0000 0.0000
C34 C 0.9986(9) 0.0828(8) 0.1411(5)
O54 O 0.7386(6) 0.0797(6) 0.3916(4)
O55 O 0.8110(5) 0.0294(6) 0.2798(4)
O56 O 0.6771(6) 0.1265(6) 0.2620(4)
O58 O 0.4610(6) 0.0404(6) 0.2621(4)
O61 O 0.6308(7) 0.2112(6) 0.3881(5)
O74 O 0.2449(6) 0.0202(6) 0.2089(4)
O75 O 0.9074(6) 0.0068(6) 0.4180(4)
O77 O 0.7819(6) 0.1148(6) 0.1533(4)
Mo18 Mo 0.60662(8) 0.08529(7) 0.34618(5)
Mo21 Mo 0.69087(7) 0.02899(8) 0.19417(5)
Cu14 Cu 0.96563(12) 0.31407(10) 0.20069(6)
C1 C 0.9961(8) 0.6639(7) 0.5995(5)
C2 C 0.9263(9) 0.7524(8) 0.5416(5)
H1 H 0.8995 0.8026 0.5314
C10 C 0.9635(8) 0.0496(7) 0.7136(5)
C12 C 0.9176(9) 0.1126(9) 0.5835(5)
H7 H 0.9007 0.1335 0.5390
C13 C 0.8514(9) 0.0037(9) 0.5874(5)
C14 C 0.9890(8) 0.0184(7) 0.7845(5)
N2 N 0.9655(7) 0.7435(6) 0.6123(4)
N3 N 0.9297(7) 0.6840(6) 0.4893(4)
N4 N 0.9758(8) 0.6275(6) 0.5268(4)
Cu1 Cu 0.98464(12) 0.82771(10) 0.70389(6)
Cu3_2 Cu 1.0000 0.5000 0.5000
Cu6_6 Cu 1.0000 -0.0000 1.0000
O82 O 0.8072(9) 0.3809(10) 0.5094(5)
H23 H 0.7834 0.3521 0.5445
H24 H 0.7576 0.4035 0.4904
N32 N 0.9496(7) 0.4731(6) 0.3893(4)
N33 N 0.9995(7) 0.7376(6) 0.8835(4)
N35 N 0.9858(7) 0.9184(6) 0.7867(4)
Cu17 Cu 0.91124(12) 0.66268(10) 0.37477(6)
N14 N 0.9905(8) 0.7702(6) 0.0005(4)
Cu6_7 Cu 1.0000 1.0000 0.0000
C21 C 0.9591(8) 0.3914(7) 0.3523(5)
C22 C 0.9065(8) 0.4689(7) 0.2721(5)
C23 C 0.8690(9) 0.4956(8) 0.2001(5)
C24 C 0.9251(9) 0.6014(8) 0.1915(5)
H14 H 0.9901 0.6527 0.2301
C25 C 0.7769(11) 0.4160(9) 0.1425(6)
H15 H 0.7410 0.3428 0.1453
C26 C 0.7985(12) 0.5601(10) 0.0757(6)
H16 H 0.7721 0.5818 0.0337
C27 C 0.9730(8) 0.8439(8) 0.2940(5)
H17 H 0.9123 0.7921 0.2533
C36 C 0.7394(13) 0.4508(10) 0.0788(6)
H22 H 0.6753 0.4007 0.0392
N15 N 0.9313(7) 0.3839(6) 0.2777(4)
N20 N 0.9175(7) 0.5246(6) 0.3378(4)
N21 N 0.8915(7) 0.6352(7) 0.1302(4)
N22 N 0.9964(7) 0.8136(6) 0.3583(4)
N23 N 0.9926(7) 0.9250(6) 0.1481(4)
N26 N 0.9835(8) 0.9899(6) 0.1005(4)
O42 O 0.5089(6) 0.9927(6) 0.3892(4)
O43 O 0.5154(5) 0.7231(5) 0.2101(3)
O44 O 0.2506(6) 0.7305(6) 0.0500(3)
O45 O 0.3886(5) 0.8126(5) 0.1878(3)
O46 O 0.5915(5) 0.9192(5) 0.2731(3)
O47 O 0.4413(5) 0.7717(5) 0.3126(3)
O48 O 0.4705(6) 0.5851(6) 0.0840(4)
O49 O 0.6826(6) 0.6930(6) 0.1784(4)
O50 O 0.5921(6) 0.6754(5) 0.3539(4)
O51 O 0.5165(6) 0.5337(6) 0.2146(4)
O52 O 0.7396(6) 0.6139(6) 0.3058(4)
O53 O 0.6735(6) 0.8824(6) 0.4147(4)
O57 O 0.2988(6) 0.8862(6) 0.3001(4)
O59 O 0.2644(6) 0.7129(6) 0.3669(4)
O60 O 0.4779(6) 0.8335(6) 0.4584(4)
O62 O 0.5469(6) 0.9730(6) 0.1270(4)
O63 O 0.6846(6) 0.8862(6) 0.1524(4)
O64 O 0.6571(7) 0.7270(8) 0.0360(4)
O65 O 0.3031(7) 0.3947(6) 0.1048(4)
O66 O 0.2752(6) 0.5803(6) 0.1130(4)
O67 O 0.4748(6) 0.7703(6) 0.0629(4)
O68 O 0.3368(6) 0.5372(5) 0.2411(4)
O69 O 0.4064(6) 0.6252(6) 0.3934(4)
O70 O 0.1785(6) 0.4817(7) 0.3191(4)
O71 O 0.2033(6) 0.6293(5) 0.2225(4)
O73 O 0.3365(6) 0.9428(6) 0.1131(4)
O76 O 0.7466(5) 0.8233(6) 0.3081(4)
O79 O 0.6194(6) 0.7451(6) 0.5107(4)
O80 O 0.3188(7) 0.9144(7) 0.4516(4)
O81 O 0.0566(6) 0.5736(6) 0.0795(4)
P2 P 0.48381(19) 0.80615(19) 0.24575(12)
Cu10 Cu 0.97675(13) 0.77887(10) 0.10820(7)
Mo13 Mo 0.19125(7) 0.66596(7) 0.13082(4)
Mo14 Mo 0.77672(7) 0.95916(7) 0.35637(4)
Mo15 Mo 0.55516(7) 0.76276(7) 0.42944(4)
Mo16 Mo 0.39510(8) 0.84836(8) 0.06474(5)
Mo17 Mo 0.31316(7) 0.94270(7) 0.20723(5)
Mo19 Mo 0.37911(8) 0.53033(7) 0.14428(5)
Mo20 Mo 0.64397(7) 0.65959(7) 0.27435(5)
Mo22 Mo 0.36305(7) 0.86180(7) 0.38757(5)
Mo23 Mo 0.60521(8) 0.73796(8) 0.10863(5)
Mo24 Mo 0.28627(7) 0.59433(7) 0.30836(5)
C11 C 0.8739(9) 0.9733(8) 0.6525(5)
H6 H 0.8296 0.9016 0.6560
H8 H 0.7924 0.9528 0.5456
C15 C 0.9997(9) 0.8347(8) 0.9005(5)
C17 C 0.9933(9) 0.7015(8) 0.9477(5)
H9 H 0.9914 0.6350 0.9535
N13 N 0.9944(8) 0.8557(7) 0.9697(4)
Cu6_8 Cu 1.0000 1.0000 1.0000
O78 O 0.3854(7) 0.8828(7) 0.9811(4)
loop_
_geom_bond_atom_site_label_1
_geom_bond_atom_site_label_2
_geom_bond_site_symmetry_1
_geom_bond_site_symmetry_2
H18 C29 1_555 1_555
C35 H21 1_555 1_555
N24 C33 1_555 1_555
N27 Cu6 1_555 1_555
Cu12 N25 1_555 1_555
C33 N27 1_555 1_555
C35 N24 1_555 1_555
C3 N1 1_555 1_555
C4 C5 1_555 1_555
C5 C6 1_555 1_555
C6 H2 1_555 1_555
C7 C5 1_555 1_555
H3 C7 1_555 1_555
C8 H4 1_555 1_555
C9 H5 1_555 1_555
C18 C7 1_555 1_555
H10 C18 1_555 1_555
N1 C4 1_555 1_555
N5 C3 1_555 1_555
N6 C4 1_555 1_555
N7 C6 1_555 1_555
N8 C9 1_555 1_555
O2 P1 1_555 1_555
O3 Mo1 1_555 1_555
O4 P1 1_555 1_555
O5 P1 1_555 1_555
O6 P1 1_555 1_555
O7 Mo7 1_555 1_555
O8 Mo8 1_555 1_555
O9 Mo3 1_555 1_555
O10 Mo7 1_555 1_555
O11 Cu4 1_555 1_555
O12 Mo2 1_555 1_555
O16 Mo5 1_555 1_555
O18 Mo10 1_555 1_555
O19 Mo3 1_555 1_555
O21 Mo4 1_555 1_555
O23 Mo11 1_555 1_555
O24 Mo7 1_555 1_555
O25 Mo1 1_555 1_555
O26 Mo4 1_555 1_555
O27 Mo7 1_555 1_555
O28 Mo3 1_555 1_555
O29 Mo12 1_555 1_555
O30 Mo1 1_555 1_555
O31 Mo1 1_555 1_555
O32 Mo4 1_555 1_555
O35 Mo2 1_555 1_555
O38 Mo3 1_555 1_555
O39 Mo10 1_555 1_555
O40 Mo1 1_555 1_555
Cu2 N1 1_555 1_555
Cu4 N6 1_555 1_555
Cu18 N7 1_555 1_555
Mo1 O4 1_555 1_555
Mo2 O5 1_555 1_555
Mo3 O6 1_555 1_555
Mo4 O3 1_555 1_555
Mo5 O4 1_555 1_555
Mo7 O2 1_555 1_555
Mo8 O2 1_555 1_555
Mo10 O1 1_555 1_555
Mo11 O2 1_555 1_555
Mo12 O6 1_555 1_555
O41 Cu3 1_555 1_555
H11 O41 1_555 1_555
H12 O41 1_555 1_555
Cu6_2 N12 1_555 1_555
N28 Cu18 1_555 1_555
N30 Cu4 1_555 1_555
N31 Cu3 1_555 1_555
O87 Cu2 1_555 1_555
C8 C18 1_555 1_555
C8 N7 1_555 1_555
N5 N6 1_555 1_555
N5 Cu3 1_555 1_555
N8 Cu4 1_555 1_555
N9 N12 1_555 1_555
N9 Cu18 1_555 1_555
O4 Mo4 1_555 1_555
O6 Mo10 1_555 1_555
O7 Mo11 1_555 1_555
O8 Mo11 1_555 1_555
O9 Mo8 1_555 1_555
O10 Mo8 1_555 1_555
O11 Mo8 1_555 1_555
O12 Mo3 1_555 1_555
O16 Mo10 1_555 1_555
O18 Mo12 1_555 1_555
O19 Mo10 1_555 1_555
O22 Mo11 1_555 1_555
O25 Mo7 1_555 1_555
O26 Mo11 1_555 1_555
O27 Mo12 1_555 1_555
O28 Mo12 1_555 1_555
O30 Mo12 1_555 1_555
O31 Mo5 1_555 1_555
O32 Mo5 1_555 1_555
O35 Mo8 1_555 1_555
N30 N31 1_555 1_555
C20 H13 1_555 1_555
C30 H19 1_555 1_555
C32 C28 1_555 1_555
N16 C19 1_555 1_555
N30 C20 1_555 1_555
N31 C19 1_555 1_555
Cu12 N16 1_555 1_555
C20 N16 1_555 1_555
C30 C31 1_555 1_555
O15 Mo6 1_555 1_555
O20 Mo6 1_555 1_555
O87 Mo9 1_555 1_555
O13 Mo6 1_555 1_555
O83 Mo9 1_555 1_555
O15 Mo9 1_555 1_555
O17 Mo6 1_555 1_555
O56 Mo18 1_555 1_555
O61 Mo18 1_555 1_555
O77 Mo21 1_555 1_555
O54 Mo18 1_555 1_555
O55 Mo21 1_555 1_555
O56 Mo21 1_555 1_555
O58 Mo18 1_555 1_555
O77 Cu14 1_555 1_555
C2 H1 1_555 1_555
C12 H7 1_555 1_555
C14 C10 1_555 1_555
N2 C1 1_555 1_555
N3 C2 1_555 1_555
N4 C1 1_555 1_555
Cu1 N2 1_555 1_555
Cu3_2 N4 1_555 1_555
O82 Cu3_2 1_555 1_555
H23 O82 1_555 1_555
H24 O82 1_555 1_555
N32 Cu3_2 1_555 1_555
N35 Cu1 1_555 1_555
Cu17 N3 1_555 1_555
C2 N2 1_555 1_555
C12 C13 1_555 1_555
N3 N4 1_555 1_555
C21 N15 1_555 1_555
C22 C23 1_555 1_555
C23 C24 1_555 1_555
C24 H14 1_555 1_555
C25 C23 1_555 1_555
H15 C25 1_555 1_555
C26 H16 1_555 1_555
C27 H17 1_555 1_555
C36 C25 1_555 1_555
H22 C36 1_555 1_555
N15 C22 1_555 1_555
N32 C21 1_555 1_555
N20 C22 1_555 1_555
N21 C24 1_555 1_555
N22 C27 1_555 1_555
N26 Cu6_7 1_555 1_555
O43 P2 1_555 1_555
O44 Mo13 1_555 1_555
O45 P2 1_555 1_555
O46 P2 1_555 1_555
O47 P2 1_555 1_555
O48 Mo19 1_555 1_555
O49 Mo20 1_555 1_555
O50 Mo15 1_555 1_555
O51 Mo19 1_555 1_555
O52 Cu17 1_555 1_555
O53 Mo14 1_555 1_555
O57 Mo17 1_555 1_555
O59 Mo22 1_555 1_555
O60 Mo15 1_555 1_555
O62 Mo16 1_555 1_555
O64 Mo23 1_555 1_555
O65 Mo19 1_555 1_555
O66 Mo13 1_555 1_555
O67 Mo16 1_555 1_555
O68 Mo19 1_555 1_555
O69 Mo15 1_555 1_555
O70 Mo24 1_555 1_555
O71 Mo13 1_555 1_555
O86 Mo13 1_555 1_555
O73 Mo16 1_555 1_555
O76 Mo14 1_555 1_555
O79 Mo15 1_555 1_555
O80 Mo22 1_555 1_555
O81 Mo13 1_555 1_555
Cu14 N15 1_555 1_555
Cu17 N20 1_555 1_555
Cu10 N14 1_555 1_555
Mo13 O45 1_555 1_555
Mo14 O46 1_555 1_555
Mo15 O47 1_555 1_555
Mo16 O44 1_555 1_555
Mo17 O45 1_555 1_555
Mo19 O43 1_555 1_555
Mo20 O43 1_555 1_555
Mo22 O42 1_555 1_555
Mo23 O43 1_555 1_555
Mo24 O47 1_555 1_555
C26 C36 1_555 1_555
C26 N21 1_555 1_555
N32 N20 1_555 1_555
N21 Cu10 1_555 1_555
N22 Cu17 1_555 1_555
N23 N26 1_555 1_555
N23 Cu10 1_555 1_555
O45 Mo16 1_555 1_555
O47 Mo22 1_555 1_555
O48 Mo23 1_555 1_555
O49 Mo23 1_555 1_555
O50 Mo20 1_555 1_555
O51 Mo20 1_555 1_555
O52 Mo20 1_555 1_555
O53 Mo15 1_555 1_555
O57 Mo22 1_555 1_555
O59 Mo24 1_555 1_555
O60 Mo22 1_555 1_555
O63 Mo23 1_555 1_555
O66 Mo19 1_555 1_555
O67 Mo23 1_555 1_555
O68 Mo24 1_555 1_555
O69 Mo24 1_555 1_555
O71 Mo24 1_555 1_555
O86 Mo17 1_555 1_555
O73 Mo17 1_555 1_555
O76 Mo20 1_555 1_555
H6 C11 1_555 1_555
C17 H9 1_555 1_555
N33 C15 1_555 1_555
N13 C15 1_555 1_555
C17 N33 1_555 1_555
N13 Cu6_8 1_555 1_555

#END
