
###############################################################################
#
# This file contains modified crystal structure data generated from the
# MOF subset of the Cambridge Structural Database (CSD) v543 
# hosted by the Cambridge Crystallographic Data Centre (CCDC).
#
# This work is licensed under the Creative Commons
# Attribution-NonCommercial-ShareAlike 4.0 International License.
# To view a copy of this license, visit
# http://creativecommons.org/licenses/by-nc-sa/4.0/
# or send a letter to
# Creative Commons, PO Box 1866, Mountain View, CA 94042, USA.
#
# CIF created using the CSD Python API on 29 September 2022
# The structure has been converted into the P1 space group
# The structure has a 3D framework
# The original CSD entry KETSEI is in the monoclinic crystal system
# The framework has been calculated to contain at least 10.0% void space
# The void calculation uses a probe of radius 1.32A, grid spacing 0.4
#
###############################################################################

data_KETSEI
_chemical_formula_moiety         '(C62 H88 Dy8 O56)n'
_symmetry_cell_setting           triclinic
_symmetry_space_group_name_H-M   'P 1'
_symmetry_Int_Tables_number      1
_space_group_name_Hall           'P 1'
loop_
_symmetry_equiv_pos_site_id
_symmetry_equiv_pos_as_xyz
1 x,y,z
_cell_length_a                   7.9180(16)
_cell_length_b                   14.912(3)
_cell_length_c                   19.617(4)
_cell_angle_alpha                90
_cell_angle_beta                 94.66(3)
_cell_angle_gamma                90
_cell_volume                     2308.59
loop_
_atom_site_label
_atom_site_type_symbol
_atom_site_fract_x
_atom_site_fract_y
_atom_site_fract_z
O3 O 0.0126(4) 0.0778(2) 0.46698(17)
O4 O 0.2675(4) 0.1131(2) 0.44192(18)
C4 C 0.1126(5) 0.1345(3) 0.4444(2)
C5 C 0.0487(7) 0.2254(3) 0.4227(3)
H4 H 0.0590 0.2650 0.4621
C6 C 0.1414(7) 0.2670(3) 0.3659(3)
H6 H 0.1327 0.2274 0.3265
H7 H 0.2605 0.2733 0.3811
C7 C 0.0685(6) 0.3593(3) 0.3449(2)
H8 H 0.1140 0.3785 0.3028
C8 C 0.1128(6) 0.4267(3) 0.4001(2)
O5 O 0.2616(4) 0.4535(2) 0.40909(19)
O6 O 0.0036(4) 0.4551(2) 0.43924(18)
Dy4 Dy 0.25712(2) 0.537249(13) 0.512443(11)
O16 O 0.2384(4) 0.0465(2) 0.59091(19)
O20 O 0.4964(4) 0.0449(2) 0.56076(18)
Dy1 Dy 0.24288(2) 0.962751(13) 0.487557(11)
O1 O 0.1445(5) 0.9463(2) 0.36961(19)
O2 O 0.1666(4) 0.8224(2) 0.42902(17)
C1 C 0.1292(5) 0.8626(3) 0.3725(2)
C2 C 0.0724(6) 0.8089(3) 0.3101(2)
H2 H 0.1681 0.7750 0.2960
C3 C 0.0000 0.8654(4) 0.2500
O7 O 0.3819(4) 0.8558(2) 0.56020(16)
H10 H 0.4806 0.8634 0.5671
H11 H 0.3621 0.7992 0.5566
H12 H 0.0131 0.7663 0.1781
H14 H 0.0877 0.9034 0.2350
H16 H 0.0707 0.7792 0.5924
H20 H 0.0537 0.6449 0.6634
O19 O 0.5036(4) 0.9551(2) 0.43924(18)
O11 O 0.0126(4) 0.9222(2) 0.96698(17)
H5 H 0.9293 0.2208 0.4076
H9 H 0.9463 0.3551 0.3366
Dy3 Dy 0.75712(2) 0.037249(13) 0.512443(11)
Dy5 Dy 0.74288(2) 0.462751(13) 0.487557(11)
O12 O 0.9874(4) 0.0778(2) 0.03302(17)
O14 O 0.7325(4) 0.1131(2) 0.05808(18)
O17 O 0.7616(4) 0.0465(2) 0.90909(19)
O21 O 0.5036(4) 0.0449(2) 0.93924(18)
H1 H 0.9869 0.7663 0.3219
C3_2 C 1.0000 0.8654(4) 0.2500
H3 H 0.9123 0.9034 0.2650
Dy2 Dy 0.75712(2) 0.962751(13) 0.012443(11)
O8 O 0.8555(5) 0.9463(2) 0.13039(19)
O9 O 0.8334(4) 0.8224(2) 0.07098(17)
C9 C 0.8708(5) 0.8626(3) 0.1275(2)
C10 C 0.9276(6) 0.8089(3) 0.1899(2)
H13 H 0.8319 0.7750 0.2040
O10 O 0.9874(4) 0.9222(2) 0.53302(17)
O13 O 0.7325(4) 0.8869(2) 0.55808(18)
C11 C 0.8874(5) 0.8655(3) 0.5556(2)
C12 C 0.9513(7) 0.7746(3) 0.5773(3)
H15 H 0.9410 0.7350 0.5379
C13 C 0.8586(7) 0.7330(3) 0.6341(3)
H17 H 0.8673 0.7726 0.6735
H18 H 0.7395 0.7267 0.6189
C14 C 0.9315(6) 0.6407(3) 0.6551(2)
H19 H 0.8860 0.6215 0.6972
C15 C 0.8872(6) 0.5733(3) 0.5999(2)
O15 O 0.7384(4) 0.5465(2) 0.59091(19)
O18 O 0.9964(4) 0.5449(2) 0.56076(18)
O22 O 0.4964(4) 0.9551(2) 0.06076(18)
O23 O 0.6181(4) 0.8558(2) 0.93980(16)
H21 H 0.5194 0.8634 0.9329
H22 H 0.6379 0.7992 0.9434
O1_2 O 0.6445(5) 0.4463(2) 0.36961(19)
O2_2 O 0.6666(4) 0.3224(2) 0.42902(17)
C1_2 C 0.6292(5) 0.3626(3) 0.3725(2)
C2_2 C 0.5724(6) 0.3089(3) 0.3101(2)
H1_2 H 0.4869 0.2663 0.3219
H2_2 H 0.6681 0.2750 0.2960
C3_3 C 0.5000 0.3654(4) 0.2500
H3_2 H 0.4123 0.4034 0.2650
O3_2 O 0.5126(4) 0.5778(2) 0.46698(17)
O4_2 O 0.7675(4) 0.6131(2) 0.44192(18)
C4_2 C 0.6126(5) 0.6345(3) 0.4444(2)
C5_2 C 0.5487(7) 0.7254(3) 0.4227(3)
H4_2 H 0.5590 0.7650 0.4621
H5_2 H 0.4293 0.7208 0.4076
C6_2 C 0.6414(7) 0.7670(3) 0.3659(3)
H6_2 H 0.6327 0.7274 0.3265
H7_2 H 0.7605 0.7733 0.3811
C7_2 C 0.5685(6) 0.8593(3) 0.3449(2)
H8_2 H 0.6140 0.8785 0.3028
H9_2 H 0.4463 0.8551 0.3366
C8_2 C 0.6128(6) 0.9267(3) 0.4001(2)
O5_2 O 0.7616(4) 0.9535(2) 0.40909(19)
O7_2 O 0.8819(4) 0.3558(2) 0.56020(16)
H10_2 H 0.9806 0.3634 0.5671
H11_2 H 0.8621 0.2992 0.5566
Dy2_2 Dy 0.25712(2) 0.462751(13) 0.012443(11)
O8_2 O 0.3555(5) 0.4463(2) 0.13039(19)
O9_2 O 0.3334(4) 0.3224(2) 0.07098(17)
C9_2 C 0.3708(5) 0.3626(3) 0.1275(2)
C10_2 C 0.4276(6) 0.3089(3) 0.1899(2)
H12_2 H 0.5131 0.2663 0.1781
H13_2 H 0.3319 0.2750 0.2040
H14_2 H 0.5877 0.4034 0.2350
O10_2 O 0.4874(4) 0.4222(2) 0.53302(17)
O12_2 O 0.4874(4) 0.5778(2) 0.03302(17)
O13_2 O 0.2325(4) 0.3869(2) 0.55808(18)
O14_2 O 0.2325(4) 0.6131(2) 0.05808(18)
C11_2 C 0.3874(5) 0.3655(3) 0.5556(2)
C12_2 C 0.4513(7) 0.2746(3) 0.5773(3)
H15_2 H 0.4410 0.2350 0.5379
H16_2 H 0.5707 0.2792 0.5924
C13_2 C 0.3586(7) 0.2330(3) 0.6341(3)
H17_2 H 0.3673 0.2726 0.6735
H18_2 H 0.2395 0.2267 0.6189
C14_2 C 0.4315(6) 0.1407(3) 0.6551(2)
H19_2 H 0.3860 0.1215 0.6972
H20_2 H 0.5537 0.1449 0.6634
C15_2 C 0.3872(6) 0.0733(3) 0.5999(2)
O11_2 O 0.5126(4) 0.4222(2) 0.96698(17)
O17_2 O 0.2616(4) 0.5465(2) 0.90909(19)
O21_2 O 0.0036(4) 0.5449(2) 0.93924(18)
O23_2 O 0.1181(4) 0.3558(2) 0.93980(16)
H21_2 H 0.0194 0.3634 0.9329
H22_2 H 0.1379 0.2992 0.9434
O22_2 O 0.9964(4) 0.4551(2) 0.06076(18)
H5_3 H 0.0707 0.2208 0.0924
H9_3 H 0.0537 0.3551 0.1634
Dy3_2 Dy 0.24288(2) 0.037249(13) 0.987557(11)
O13_3 O 0.2675(4) 0.8869(2) 0.94192(18)
C11_3 C 0.1126(5) 0.8655(3) 0.9444(2)
C12_3 C 0.0487(7) 0.7746(3) 0.9227(3)
H15_3 H 0.0590 0.7350 0.9621
C13_3 C 0.1414(7) 0.7330(3) 0.8659(3)
H17_3 H 0.1327 0.7726 0.8265
H18_3 H 0.2605 0.7267 0.8811
C14_3 C 0.0685(6) 0.6407(3) 0.8449(2)
H19_3 H 0.1140 0.6215 0.8028
C15_3 C 0.1128(6) 0.5733(3) 0.9001(2)
C4_3 C 0.8874(5) 0.1345(3) 0.0556(2)
C5_3 C 0.9513(7) 0.2254(3) 0.0773(3)
H4_3 H 0.9410 0.2650 0.0379
C6_3 C 0.8586(7) 0.2670(3) 0.1341(3)
H6_3 H 0.8673 0.2274 0.1735
H7_3 H 0.7395 0.2733 0.1189
C7_3 C 0.9315(6) 0.3593(3) 0.1551(2)
H8_3 H 0.8860 0.3785 0.1972
C8_3 C 0.8872(6) 0.4267(3) 0.0999(2)
O5_3 O 0.7384(4) 0.4535(2) 0.09091(19)
Dy4_2 Dy 0.74288(2) 0.537249(13) 0.987557(11)
H16_3 H 0.9293 0.7792 0.9076
H20_3 H 0.9463 0.6449 0.8366
C4_4 C 0.3874(5) 0.6345(3) 0.0556(2)
C5_4 C 0.4513(7) 0.7254(3) 0.0773(3)
H4_4 H 0.4410 0.7650 0.0379
H5_4 H 0.5707 0.7208 0.0924
C6_4 C 0.3586(7) 0.7670(3) 0.1341(3)
H6_4 H 0.3673 0.7274 0.1735
H7_4 H 0.2395 0.7733 0.1189
C7_4 C 0.4315(6) 0.8593(3) 0.1551(2)
H8_4 H 0.3860 0.8785 0.1972
H9_4 H 0.5537 0.8551 0.1634
C8_4 C 0.3872(6) 0.9267(3) 0.0999(2)
O5_4 O 0.2384(4) 0.9535(2) 0.09091(19)
O13_4 O 0.7675(4) 0.3869(2) 0.94192(18)
C11_4 C 0.6126(5) 0.3655(3) 0.9444(2)
C12_4 C 0.5487(7) 0.2746(3) 0.9227(3)
H15_4 H 0.5590 0.2350 0.9621
H16_4 H 0.4293 0.2792 0.9076
C13_4 C 0.6414(7) 0.2330(3) 0.8659(3)
H17_4 H 0.6327 0.2726 0.8265
H18_4 H 0.7605 0.2267 0.8811
C14_4 C 0.5685(6) 0.1407(3) 0.8449(2)
H19_4 H 0.6140 0.1215 0.8028
H20_4 H 0.4463 0.1449 0.8366
C15_4 C 0.6128(6) 0.0733(3) 0.9001(2)
O23_3 O 0.3819(4) 0.1442(2) 0.06020(16)
H21_3 H 0.4806 0.1366 0.0671
H22_3 H 0.3621 0.2008 0.0566
H1_3 H 0.0131 0.2337 0.6781
C3_4 C 0.0000 0.1346(4) 0.7500
H3_3 H 0.0877 0.0966 0.7350
O8_3 O 0.1445(5) 0.0537(2) 0.86961(19)
O9_3 O 0.1666(4) 0.1776(2) 0.92902(17)
C9_3 C 0.1292(5) 0.1374(3) 0.8725(2)
C10_3 C 0.0724(6) 0.1911(3) 0.8101(2)
H13_3 H 0.1681 0.2250 0.7960
O1_3 O 0.8555(5) 0.0537(2) 0.63039(19)
O2_3 O 0.8334(4) 0.1776(2) 0.57098(17)
C1_3 C 0.8708(5) 0.1374(3) 0.6275(2)
C2_3 C 0.9276(6) 0.1911(3) 0.6899(2)
H2_3 H 0.8319 0.2250 0.7040
C3_5 C 1.0000 0.1346(4) 0.7500
O7_3 O 0.6181(4) 0.1442(2) 0.43980(16)
H10_3 H 0.5194 0.1366 0.4329
H11_3 H 0.6379 0.2008 0.4434
H12_3 H 0.9869 0.2337 0.8219
H14_3 H 0.9123 0.0966 0.7650
O23_4 O 0.8819(4) 0.6442(2) 0.06020(16)
H21_4 H 0.9806 0.6366 0.0671
H22_4 H 0.8621 0.7008 0.0566
O1_4 O 0.3555(5) 0.5537(2) 0.63039(19)
O2_4 O 0.3334(4) 0.6776(2) 0.57098(17)
C1_4 C 0.3708(5) 0.6374(3) 0.6275(2)
C2_4 C 0.4276(6) 0.6911(3) 0.6899(2)
H1_4 H 0.5131 0.7337 0.6781
H2_4 H 0.3319 0.7250 0.7040
C3_6 C 0.5000 0.6346(4) 0.7500
H3_4 H 0.5877 0.5966 0.7350
O7_4 O 0.1181(4) 0.6442(2) 0.43980(16)
H10_4 H 0.0194 0.6366 0.4329
H11_4 H 0.1379 0.7008 0.4434
O8_4 O 0.6445(5) 0.5537(2) 0.86961(19)
O9_4 O 0.6666(4) 0.6776(2) 0.92902(17)
C9_4 C 0.6292(5) 0.6374(3) 0.8725(2)
C10_4 C 0.5724(6) 0.6911(3) 0.8101(2)
H12_4 H 0.4869 0.7337 0.8219
H13_4 H 0.6681 0.7250 0.7960
H14_4 H 0.4123 0.5966 0.7650
loop_
_geom_bond_atom_site_label_1
_geom_bond_atom_site_label_2
_geom_bond_site_symmetry_1
_geom_bond_site_symmetry_2
C4 O3 1_555 1_555
C5 C4 1_555 1_555
H4 C5 1_555 1_555
C6 C5 1_555 1_555
H6 C6 1_555 1_555
H7 C6 1_555 1_555
C7 C6 1_555 1_555
H8 C7 1_555 1_555
C8 C7 1_555 1_555
O5 C8 1_555 1_555
O6 C8 1_555 1_555
Dy4 O5 1_555 1_555
O4 C4 1_555 1_555
O6 Dy4 1_555 1_555
Dy1 O1 1_555 1_555
O1 C1 1_555 1_555
O2 Dy1 1_555 1_555
C1 O2 1_555 1_555
C2 C1 1_555 1_555
H2 C2 1_555 1_555
C3 C2 1_555 1_555
O7 Dy1 1_555 1_555
H10 O7 1_555 1_555
H11 O7 1_555 1_555
H14 C3 1_555 1_555
O19 Dy1 1_555 1_555
H3 C3_2 1_555 1_555
Dy2 O8 1_555 1_555
Dy5 O15 1_555 1_555
O8 C9 1_555 1_555
O9 Dy2 1_555 1_555
C9 O9 1_555 1_555
C10 C3_2 1_555 1_555
H13 C10 1_555 1_555
C11 O10 1_555 1_555
C12 C11 1_555 1_555
H15 C12 1_555 1_555
C13 C12 1_555 1_555
H17 C13 1_555 1_555
H18 C13 1_555 1_555
C14 C13 1_555 1_555
H19 C14 1_555 1_555
C15 C14 1_555 1_555
O15 C15 1_555 1_555
O18 Dy5 1_555 1_555
O22 Dy2 1_555 1_555
C9 C10 1_555 1_555
O13 C11 1_555 1_555
C15 O18 1_555 1_555
H21 O23 1_555 1_555
H22 O23 1_555 1_555
Dy5 O1_2 1_555 1_555
O1_2 C1_2 1_555 1_555
O2_2 Dy5 1_555 1_555
C1_2 O2_2 1_555 1_555
C2_2 C1_2 1_555 1_555
H1_2 C2_2 1_555 1_555
H2_2 C2_2 1_555 1_555
C3_3 C2_2 1_555 1_555
H3_2 C3_3 1_555 1_555
O3_2 Dy5 1_555 1_555
O4_2 Dy5 1_555 1_555
C4_2 O3_2 1_555 1_555
C5_2 C4_2 1_555 1_555
H4_2 C5_2 1_555 1_555
H5_2 C5_2 1_555 1_555
C6_2 C5_2 1_555 1_555
H6_2 C6_2 1_555 1_555
H7_2 C6_2 1_555 1_555
C7_2 C6_2 1_555 1_555
H8_2 C7_2 1_555 1_555
H9_2 C7_2 1_555 1_555
C8_2 C7_2 1_555 1_555
O5_2 C8_2 1_555 1_555
O19 C8_2 1_555 1_555
O7_2 Dy5 1_555 1_555
H10_2 O7_2 1_555 1_555
H11_2 O7_2 1_555 1_555
Dy2_2 O8_2 1_555 1_555
Dy4 O3_2 1_555 1_555
Dy3 O20 1_555 1_555
O8_2 C9_2 1_555 1_555
O9_2 Dy2_2 1_555 1_555
C9_2 O9_2 1_555 1_555
C10_2 C3_3 1_555 1_555
H12_2 C10_2 1_555 1_555
H13_2 C10_2 1_555 1_555
H14_2 C3_3 1_555 1_555
O10_2 Dy5 1_555 1_555
O12_2 Dy2_2 1_555 1_555
O13_2 Dy4 1_555 1_555
O14_2 Dy2_2 1_555 1_555
C11_2 O10_2 1_555 1_555
C12_2 C11_2 1_555 1_555
H15_2 C12_2 1_555 1_555
H16_2 C12_2 1_555 1_555
C13_2 C12_2 1_555 1_555
H17_2 C13_2 1_555 1_555
H18_2 C13_2 1_555 1_555
C14_2 C13_2 1_555 1_555
H19_2 C14_2 1_555 1_555
H20_2 C14_2 1_555 1_555
C15_2 C14_2 1_555 1_555
O16 C15_2 1_555 1_555
O4_2 C4_2 1_555 1_555
Dy4 O10_2 1_555 1_555
C9_2 C10_2 1_555 1_555
O13_2 C11_2 1_555 1_555
C15_2 O20 1_555 1_555
H21_2 O23_2 1_555 1_555
H22_2 O23_2 1_555 1_555
C11_3 O11 1_555 1_555
C12_3 C11_3 1_555 1_555
H15_3 C12_3 1_555 1_555
C13_3 C12_3 1_555 1_555
H17_3 C13_3 1_555 1_555
H18_3 C13_3 1_555 1_555
C14_3 C13_3 1_555 1_555
H19_3 C14_3 1_555 1_555
C15_3 C14_3 1_555 1_555
O17_2 C15_3 1_555 1_555
O13_3 C11_3 1_555 1_555
C15_3 O21_2 1_555 1_555
C4_3 O12 1_555 1_555
C5_3 C4_3 1_555 1_555
H4_3 C5_3 1_555 1_555
C6_3 C5_3 1_555 1_555
H6_3 C6_3 1_555 1_555
H7_3 C6_3 1_555 1_555
C7_3 C6_3 1_555 1_555
H8_3 C7_3 1_555 1_555
C8_3 C7_3 1_555 1_555
O5_3 C8_3 1_555 1_555
O22_2 C8_3 1_555 1_555
O14 C4_3 1_555 1_555
C4_4 O12_2 1_555 1_555
C5_4 C4_4 1_555 1_555
H4_4 C5_4 1_555 1_555
H5_4 C5_4 1_555 1_555
C6_4 C5_4 1_555 1_555
H6_4 C6_4 1_555 1_555
H7_4 C6_4 1_555 1_555
C7_4 C6_4 1_555 1_555
H8_4 C7_4 1_555 1_555
H9_4 C7_4 1_555 1_555
C8_4 C7_4 1_555 1_555
O5_4 C8_4 1_555 1_555
O22 C8_4 1_555 1_555
O14_2 C4_4 1_555 1_555
Dy3_2 O21 1_555 1_555
O13_4 Dy4_2 1_555 1_555
C11_4 O11_2 1_555 1_555
C12_4 C11_4 1_555 1_555
H15_4 C12_4 1_555 1_555
H16_4 C12_4 1_555 1_555
C13_4 C12_4 1_555 1_555
H17_4 C13_4 1_555 1_555
H18_4 C13_4 1_555 1_555
C14_4 C13_4 1_555 1_555
H19_4 C14_4 1_555 1_555
H20_4 C14_4 1_555 1_555
C15_4 C14_4 1_555 1_555
O17 C15_4 1_555 1_555
Dy4_2 O11_2 1_555 1_555
O13_4 C11_4 1_555 1_555
C15_4 O21 1_555 1_555
H21_3 O23_3 1_555 1_555
H22_3 O23_3 1_555 1_555
H3_3 C3_4 1_555 1_555
Dy3_2 O8_3 1_555 1_555
O8_3 C9_3 1_555 1_555
O9_3 Dy3_2 1_555 1_555
C9_3 O9_3 1_555 1_555
C10_3 C3_4 1_555 1_555
H13_3 C10_3 1_555 1_555
C9_3 C10_3 1_555 1_555
Dy3 O1_3 1_555 1_555
O1_3 C1_3 1_555 1_555
O2_3 Dy3 1_555 1_555
C1_3 O2_3 1_555 1_555
C2_3 C1_3 1_555 1_555
H2_3 C2_3 1_555 1_555
C3_5 C2_3 1_555 1_555
O7_3 Dy3 1_555 1_555
H10_3 O7_3 1_555 1_555
H11_3 O7_3 1_555 1_555
H14_3 C3_5 1_555 1_555
H21_4 O23_4 1_555 1_555
H22_4 O23_4 1_555 1_555
Dy4 O1_4 1_555 1_555
O1_4 C1_4 1_555 1_555
O2_4 Dy4 1_555 1_555
C1_4 O2_4 1_555 1_555
C2_4 C1_4 1_555 1_555
H1_4 C2_4 1_555 1_555
H2_4 C2_4 1_555 1_555
C3_6 C2_4 1_555 1_555
H3_4 C3_6 1_555 1_555
O7_4 Dy4 1_555 1_555
H10_4 O7_4 1_555 1_555
H11_4 O7_4 1_555 1_555
Dy4_2 O8_4 1_555 1_555
O8_4 C9_4 1_555 1_555
O9_4 Dy4_2 1_555 1_555
C9_4 O9_4 1_555 1_555
C10_4 C3_6 1_555 1_555
H12_4 C10_4 1_555 1_555
H13_4 C10_4 1_555 1_555
H14_4 C3_6 1_555 1_555
C9_4 C10_4 1_555 1_555

#END
