
###############################################################################
#
# This file contains modified crystal structure data generated from the
# MOF subset of the Cambridge Structural Database (CSD) v543 
# hosted by the Cambridge Crystallographic Data Centre (CCDC).
#
# This work is licensed under the Creative Commons
# Attribution-NonCommercial-ShareAlike 4.0 International License.
# To view a copy of this license, visit
# http://creativecommons.org/licenses/by-nc-sa/4.0/
# or send a letter to
# Creative Commons, PO Box 1866, Mountain View, CA 94042, USA.
#
# CIF created using the CSD Python API on 29 September 2022
# The structure has been converted into the P1 space group
# The structure has a 3D framework
# The original CSD entry KEVLEE is in the orthorhombic crystal system
# The framework has been calculated to contain at least 10.0% void space
# The void calculation uses a probe of radius 1.32A, grid spacing 0.4
#
###############################################################################

data_KEVLEE
_chemical_formula_moiety         '(C96 H96 N64 Zn12)n'
_symmetry_cell_setting           triclinic
_symmetry_space_group_name_H-M   'P 1'
_symmetry_Int_Tables_number      1
_space_group_name_Hall           'P 1'
loop_
_symmetry_equiv_pos_site_id
_symmetry_equiv_pos_as_xyz
1 x,y,z
_cell_length_a                   18.50490(10)
_cell_length_b                   23.8735(2)
_cell_length_c                   9.31560(10)
_cell_angle_alpha                90
_cell_angle_beta                 90
_cell_angle_gamma                90
_cell_volume                     4115.42
loop_
_atom_site_label
_atom_site_type_symbol
_atom_site_fract_x
_atom_site_fract_y
_atom_site_fract_z
Zn1 Zn 0.045857(17) 0.314894(14) 0.70762(5)
C6 C 0.01550(15) 0.40023(13) 0.9417(4)
H6 H 0.0628 0.4013 0.9756
N5 N 0.03582(14) 0.24504(11) 0.8262(3)
N6 N 0.14815(12) 0.33604(10) 0.6732(3)
N1 N 0.99790(14) 0.30293(11) 0.5186(3)
C1 C 0.98841(15) 0.25280(13) 0.4593(4)
H1 H 0.9979 0.2194 0.5071
N2 N 0.96418(14) 0.25496(11) 0.3262(3)
C2 C 0.95771(19) 0.31068(14) 0.2970(4)
H2 H 0.9416 0.3259 0.2108
C3 C 0.97854(18) 0.34013(13) 0.4139(4)
H3 H 0.9795 0.3790 0.4218
N3 N 0.99277(13) 0.37203(10) 0.8223(3)
C4 C 0.92182(15) 0.38148(12) 0.8168(3)
H4 H 0.8919 0.3669 0.7459
N4 N 0.89815(12) 0.41396(10) 0.9232(3)
Zn2 Zn 0.795857(17) 0.435106(14) 0.95762(5)
Zn3 Zn 0.954143(17) 0.185106(14) 0.20762(5)
N1_2 N 0.00210(14) 0.69707(11) 0.5186(3)
C1_2 C 0.01159(15) 0.74720(13) 0.4593(4)
H1_2 H 0.0021 0.7806 0.5071
N2_2 N 0.03582(14) 0.74504(11) 0.3262(3)
C2_2 C 0.04229(19) 0.68932(14) 0.2970(4)
H2_2 H 0.0584 0.6741 0.2108
C3_2 C 0.02146(18) 0.65987(13) 0.4139(4)
H3_2 H 0.0205 0.6210 0.4218
N3_2 N 0.00723(13) 0.62797(10) 0.8223(3)
C4_2 C 0.07818(15) 0.61852(12) 0.8168(3)
H4_2 H 0.1081 0.6331 0.7459
N4_2 N 0.10185(12) 0.58604(10) 0.9232(3)
Zn2_2 Zn 0.204143(17) 0.564894(14) 0.95762(5)
Zn3_2 Zn 0.045857(17) 0.814894(14) 0.20762(5)
Zn1_2 Zn 0.954143(17) 0.685106(14) 0.70762(5)
C6_2 C 0.98450(15) 0.59977(13) 0.9417(4)
H6_2 H 0.9372 0.5987 0.9756
N5_2 N 0.96418(14) 0.75496(11) 0.8262(3)
N6_2 N 0.85185(12) 0.66396(10) 0.6732(3)
N3_3 N 0.25723(13) 0.62203(10) 0.0723(3)
C4_3 C 0.32818(15) 0.63148(12) 0.0668(3)
N4_3 N 0.35185(12) 0.66396(10) 0.1732(3)
C5 C 0.29194(16) 0.67651(13) 0.2533(4)
H5 H 0.2907 0.6989 0.3349
C6_3 C 0.23450(15) 0.65023(13) 0.1917(4)
H6_3 H 0.1872 0.6513 0.2256
Zn2_3 Zn 0.454143(17) 0.685106(14) 0.20762(5)
N5_3 N 0.21418(14) 0.49504(11) 0.0762(3)
N1_3 N 0.25210(14) 0.55293(11) 0.7686(3)
C1_3 C 0.26159(15) 0.50280(13) 0.7093(4)
H1_3 H 0.2521 0.4694 0.7571
N2_3 N 0.28582(14) 0.50496(11) 0.5762(3)
C2_3 C 0.29229(19) 0.56068(14) 0.5470(4)
H2_3 H 0.3084 0.5759 0.4608
C3_3 C 0.27146(18) 0.59013(13) 0.6639(4)
H3_3 H 0.2705 0.6290 0.6718
H4_3 H 0.3581 0.6169 0.9959
Zn3_3 Zn 0.295857(17) 0.435106(14) 0.45762(5)
N3_4 N 0.74277(13) 0.37797(10) 0.0723(3)
C4_4 C 0.67182(15) 0.36852(12) 0.0668(3)
N4_4 N 0.64815(12) 0.33604(10) 0.1732(3)
C5_2 C 0.70806(16) 0.32349(13) 0.2533(4)
H5_2 H 0.7093 0.3011 0.3349
C6_4 C 0.76550(15) 0.34977(13) 0.1917(4)
H6_4 H 0.8128 0.3487 0.2256
Zn2_4 Zn 0.545857(17) 0.314894(14) 0.20762(5)
N5_4 N 0.78582(14) 0.50496(11) 0.0762(3)
N1_4 N 0.74790(14) 0.44707(11) 0.7686(3)
C1_4 C 0.73841(15) 0.49720(13) 0.7093(4)
H1_4 H 0.7479 0.5306 0.7571
N2_4 N 0.71418(14) 0.49504(11) 0.5762(3)
C2_4 C 0.70771(19) 0.43932(14) 0.5470(4)
H2_4 H 0.6916 0.4241 0.4608
C3_4 C 0.72854(18) 0.40987(13) 0.6639(4)
H3_4 H 0.7295 0.3710 0.6718
H4_4 H 0.6419 0.3831 0.9959
Zn3_4 Zn 0.704143(17) 0.564894(14) 0.45762(5)
C6_5 C 0.01550(15) 0.90023(13) 0.4417(4)
H6_5 H 0.0628 0.9013 0.4756
N6_3 N 0.14815(12) 0.83604(10) 0.1732(3)
N1_5 N 0.99790(14) 0.80293(11) 0.0186(3)
H1_5 H 0.9979 0.7194 0.0071
N3_5 N 0.99277(13) 0.87203(10) 0.3223(3)
C4_5 C 0.92182(15) 0.88148(12) 0.3168(3)
H4_5 H 0.8919 0.8669 0.2459
N4_5 N 0.89815(12) 0.91396(10) 0.4232(3)
C5_3 C 0.95806(16) 0.92651(13) 0.5033(4)
H5_3 H 0.9593 0.9489 0.5849
Zn2_5 Zn 0.795857(17) 0.935106(14) 0.45762(5)
C1_5 C 0.98841(15) 0.75280(13) 0.9593(4)
C2_5 C 0.95771(19) 0.81068(14) 0.7970(4)
H2_5 H 0.9416 0.8259 0.7108
C3_5 C 0.97854(18) 0.84013(13) 0.9139(4)
H3_5 H 0.9795 0.8790 0.9218
N1_6 N 0.00210(14) 0.19707(11) 0.0186(3)
H1_6 H 0.0021 0.2806 0.0071
N3_6 N 0.00723(13) 0.12797(10) 0.3223(3)
C4_6 C 0.07818(15) 0.11852(12) 0.3168(3)
H4_6 H 0.1081 0.1331 0.2459
N4_6 N 0.10185(12) 0.08604(10) 0.4232(3)
C5_4 C 0.04194(16) 0.07349(13) 0.5033(4)
H5_4 H 0.0407 0.0511 0.5849
Zn2_6 Zn 0.204143(17) 0.064894(14) 0.45762(5)
C1_6 C 0.01159(15) 0.24720(13) 0.9593(4)
C2_6 C 0.04229(19) 0.18932(14) 0.7970(4)
H2_6 H 0.0584 0.1741 0.7108
C3_6 C 0.02146(18) 0.15987(13) 0.9139(4)
H3_6 H 0.0205 0.1210 0.9218
C6_6 C 0.98450(15) 0.09977(13) 0.4417(4)
H6_6 H 0.9372 0.0987 0.4756
N6_4 N 0.85185(12) 0.16396(10) 0.1732(3)
N1_7 N 0.25210(14) 0.05293(11) 0.2686(3)
C1_7 C 0.26159(15) 0.00280(13) 0.2093(4)
N2_5 N 0.28582(14) 0.00496(11) 0.0762(3)
C2_7 C 0.29229(19) 0.06068(14) 0.0470(4)
C3_7 C 0.27146(18) 0.09013(13) 0.1639(4)
H3_7 H 0.2705 0.1290 0.1718
N3_7 N 0.25723(13) 0.12203(10) 0.5723(3)
C4_7 C 0.32818(15) 0.13148(12) 0.5668(3)
H4_7 H 0.3581 0.1169 0.4959
N4_7 N 0.35185(12) 0.16396(10) 0.6732(3)
C5_5 C 0.29194(16) 0.17651(13) 0.7533(4)
H5_5 H 0.2907 0.1989 0.8349
C6_7 C 0.23450(15) 0.15023(13) 0.6917(4)
H6_7 H 0.1872 0.1513 0.7256
Zn2_7 Zn 0.454143(17) 0.185106(14) 0.70762(5)
H1_7 H 0.2521 0.9694 0.2571
N5_5 N 0.21418(14) 0.99504(11) 0.5762(3)
Zn3_5 Zn 0.295857(17) 0.935106(14) 0.95762(5)
H1_8 H 0.7479 0.0306 0.2571
N5_6 N 0.78582(14) 0.00496(11) 0.5762(3)
Zn3_6 Zn 0.704143(17) 0.064894(14) 0.95762(5)
N1_8 N 0.74790(14) 0.94707(11) 0.2686(3)
C1_8 C 0.73841(15) 0.99720(13) 0.2093(4)
N2_6 N 0.71418(14) 0.99504(11) 0.0762(3)
C2_8 C 0.70771(19) 0.93932(14) 0.0470(4)
C3_8 C 0.72854(18) 0.90987(13) 0.1639(4)
H3_8 H 0.7295 0.8710 0.1718
N3_8 N 0.74277(13) 0.87797(10) 0.5723(3)
C4_8 C 0.67182(15) 0.86852(12) 0.5668(3)
H4_8 H 0.6419 0.8831 0.4959
N4_8 N 0.64815(12) 0.83604(10) 0.6732(3)
C5_6 C 0.70806(16) 0.82349(13) 0.7533(4)
H5_6 H 0.7093 0.8011 0.8349
C6_8 C 0.76550(15) 0.84977(13) 0.6917(4)
H6_8 H 0.8128 0.8487 0.7256
Zn2_8 Zn 0.545857(17) 0.814894(14) 0.70762(5)
N1_9 N 0.49790(14) 0.30293(11) 0.0186(3)
H1_9 H 0.4979 0.2194 0.0071
N3_9 N 0.49277(13) 0.37203(10) 0.3223(3)
C4_9 C 0.42182(15) 0.38148(12) 0.3168(3)
H4_9 H 0.3919 0.3669 0.2459
N4_9 N 0.39815(12) 0.41396(10) 0.4232(3)
C5_7 C 0.45806(16) 0.42651(13) 0.5033(4)
H5_7 H 0.4593 0.4489 0.5849
C6_9 C 0.51550(15) 0.40023(13) 0.4417(4)
H6_9 H 0.5628 0.4013 0.4756
N5_7 N 0.53582(14) 0.24504(11) 0.3262(3)
C1_9 C 0.48841(15) 0.25280(13) 0.9593(4)
N2_7 N 0.46418(14) 0.25496(11) 0.8262(3)
C2_9 C 0.45771(19) 0.31068(14) 0.7970(4)
H2_7 H 0.4416 0.3259 0.7108
C3_9 C 0.47854(18) 0.34013(13) 0.9139(4)
H3_9 H 0.4795 0.3790 0.9218
N1_10 N 0.50210(14) 0.69707(11) 0.0186(3)
H1_10 H 0.5021 0.7806 0.0071
N3_10 N 0.50723(13) 0.62797(10) 0.3223(3)
C4_10 C 0.57818(15) 0.61852(12) 0.3168(3)
H4_10 H 0.6081 0.6331 0.2459
N4_10 N 0.60185(12) 0.58604(10) 0.4232(3)
C5_8 C 0.54194(16) 0.57349(13) 0.5033(4)
H5_8 H 0.5407 0.5511 0.5849
C6_10 C 0.48450(15) 0.59977(13) 0.4417(4)
H6_10 H 0.4372 0.5987 0.4756
N5_8 N 0.46418(14) 0.75496(11) 0.3262(3)
C1_10 C 0.51159(15) 0.74720(13) 0.9593(4)
N2_8 N 0.53582(14) 0.74504(11) 0.8262(3)
C2_10 C 0.54229(19) 0.68932(14) 0.7970(4)
H2_8 H 0.5584 0.6741 0.7108
C3_10 C 0.52146(18) 0.65987(13) 0.9139(4)
H3_10 H 0.5205 0.6210 0.9218
N1_11 N 0.75210(14) 0.55293(11) 0.2686(3)
C1_11 C 0.76159(15) 0.50280(13) 0.2093(4)
H1_11 H 0.7521 0.4694 0.2571
C2_11 C 0.79229(19) 0.56068(14) 0.0470(4)
C3_11 C 0.77146(18) 0.59013(13) 0.1639(4)
H3_11 H 0.7705 0.6290 0.1718
N3_11 N 0.75723(13) 0.62203(10) 0.5723(3)
C4_11 C 0.82818(15) 0.63148(12) 0.5668(3)
H4_11 H 0.8581 0.6169 0.4959
C5_9 C 0.79194(16) 0.67651(13) 0.7533(4)
H5_9 H 0.7907 0.6989 0.8349
C6_11 C 0.73450(15) 0.65023(13) 0.6917(4)
H6_11 H 0.6872 0.6513 0.7256
H2_9 H 0.8084 0.5759 0.9608
N1_12 N 0.24790(14) 0.44707(11) 0.2686(3)
C1_12 C 0.23841(15) 0.49720(13) 0.2093(4)
H1_12 H 0.2479 0.5306 0.2571
C2_12 C 0.20771(19) 0.43932(14) 0.0470(4)
C3_12 C 0.22854(18) 0.40987(13) 0.1639(4)
H3_12 H 0.2295 0.3710 0.1718
N3_12 N 0.24277(13) 0.37797(10) 0.5723(3)
C4_12 C 0.17182(15) 0.36852(12) 0.5668(3)
H4_12 H 0.1419 0.3831 0.4959
C5_10 C 0.20806(16) 0.32349(13) 0.7533(4)
H5_10 H 0.2093 0.3011 0.8349
C6_12 C 0.26550(15) 0.34977(13) 0.6917(4)
H6_12 H 0.3128 0.3487 0.7256
H2_10 H 0.1916 0.4241 0.9608
N1_13 N 0.49790(14) 0.80293(11) 0.5186(3)
C1_13 C 0.48841(15) 0.75280(13) 0.4593(4)
H1_13 H 0.4979 0.7194 0.5071
C2_13 C 0.45771(19) 0.81068(14) 0.2970(4)
H2_11 H 0.4416 0.8259 0.2108
C3_13 C 0.47854(18) 0.84013(13) 0.4139(4)
H3_13 H 0.4795 0.8790 0.4218
N3_13 N 0.49277(13) 0.87203(10) 0.8223(3)
C4_13 C 0.42182(15) 0.88148(12) 0.8168(3)
H4_13 H 0.3919 0.8669 0.7459
N4_11 N 0.39815(12) 0.91396(10) 0.9232(3)
C6_13 C 0.51550(15) 0.90023(13) 0.9417(4)
H6_13 H 0.5628 0.9013 0.9756
N1_14 N 0.50210(14) 0.19707(11) 0.5186(3)
C1_14 C 0.51159(15) 0.24720(13) 0.4593(4)
H1_14 H 0.5021 0.2806 0.5071
C2_14 C 0.54229(19) 0.18932(14) 0.2970(4)
H2_12 H 0.5584 0.1741 0.2108
C3_14 C 0.52146(18) 0.15987(13) 0.4139(4)
H3_14 H 0.5205 0.1210 0.4218
N3_14 N 0.50723(13) 0.12797(10) 0.8223(3)
C4_14 C 0.57818(15) 0.11852(12) 0.8168(3)
H4_14 H 0.6081 0.1331 0.7459
N4_12 N 0.60185(12) 0.08604(10) 0.9232(3)
C6_14 C 0.48450(15) 0.09977(13) 0.9417(4)
H6_14 H 0.4372 0.0987 0.9756
N3_15 N 0.75723(13) 0.12203(10) 0.0723(3)
C4_15 C 0.82818(15) 0.13148(12) 0.0668(3)
C5_11 C 0.79194(16) 0.17651(13) 0.2533(4)
H5_11 H 0.7907 0.1989 0.3349
C6_15 C 0.73450(15) 0.15023(13) 0.1917(4)
H6_15 H 0.6872 0.1513 0.2256
N1_15 N 0.75210(14) 0.05293(11) 0.7686(3)
C1_15 C 0.76159(15) 0.00280(13) 0.7093(4)
C2_15 C 0.79229(19) 0.06068(14) 0.5470(4)
H2_13 H 0.8084 0.0759 0.4608
C3_15 C 0.77146(18) 0.09013(13) 0.6639(4)
H3_15 H 0.7705 0.1290 0.6718
H4_15 H 0.8581 0.1169 0.9959
H1_15 H 0.7521 0.9694 0.7571
H1_16 H 0.2479 0.0306 0.7571
N3_16 N 0.24277(13) 0.87797(10) 0.0723(3)
C4_16 C 0.17182(15) 0.86852(12) 0.0668(3)
C5_12 C 0.20806(16) 0.82349(13) 0.2533(4)
H5_12 H 0.2093 0.8011 0.3349
C6_16 C 0.26550(15) 0.84977(13) 0.1917(4)
H6_16 H 0.3128 0.8487 0.2256
N1_16 N 0.24790(14) 0.94707(11) 0.7686(3)
C1_16 C 0.23841(15) 0.99720(13) 0.7093(4)
C2_16 C 0.20771(19) 0.93932(14) 0.5470(4)
H2_14 H 0.1916 0.9241 0.4608
C3_16 C 0.22854(18) 0.90987(13) 0.6639(4)
H3_16 H 0.2295 0.8710 0.6718
H4_16 H 0.1419 0.8831 0.9959
C5_13 C 0.95806(16) 0.42651(13) 0.0033(4)
H5_13 H 0.9593 0.4489 0.0849
C5_14 C 0.04194(16) 0.57349(13) 0.0033(4)
H5_14 H 0.0407 0.5511 0.0849
H2_15 H 0.3084 0.0759 0.9608
H2_16 H 0.6916 0.9241 0.9608
C5_15 C 0.45806(16) 0.92651(13) 0.0033(4)
H5_15 H 0.4593 0.9489 0.0849
C5_16 C 0.54194(16) 0.07349(13) 0.0033(4)
H5_16 H 0.5407 0.0511 0.0849
loop_
_geom_bond_atom_site_label_1
_geom_bond_atom_site_label_2
_geom_bond_site_symmetry_1
_geom_bond_site_symmetry_2
H6 C6 1_555 1_555
N5 Zn1 1_555 1_555
N6 Zn1 1_555 1_555
N1 C1 1_555 1_555
C1 H1 1_555 1_555
N2 C1 1_555 1_555
C2 N2 1_555 1_555
H2 C2 1_555 1_555
C3 N1 1_555 1_555
H3 C3 1_555 1_555
C4 N3 1_555 1_555
H4 C4 1_555 1_555
N4 C4 1_555 1_555
Zn2 N4 1_555 1_555
Zn3 N2 1_555 1_555
C2 C3 1_555 1_555
N1_2 C1_2 1_555 1_555
C1_2 H1_2 1_555 1_555
N2_2 C1_2 1_555 1_555
C2_2 N2_2 1_555 1_555
H2_2 C2_2 1_555 1_555
C3_2 N1_2 1_555 1_555
H3_2 C3_2 1_555 1_555
C4_2 N3_2 1_555 1_555
H4_2 C4_2 1_555 1_555
N4_2 C4_2 1_555 1_555
Zn2_2 N4_2 1_555 1_555
Zn3_2 N2_2 1_555 1_555
C2_2 C3_2 1_555 1_555
H6_2 C6_2 1_555 1_555
N5_2 Zn1_2 1_555 1_555
N6_2 Zn1_2 1_555 1_555
C4_3 N3_3 1_555 1_555
N4_3 C4_3 1_555 1_555
C5 N4_3 1_555 1_555
H5 C5 1_555 1_555
C6_3 N3_3 1_555 1_555
H6_3 C6_3 1_555 1_555
Zn2_3 N4_3 1_555 1_555
C5 C6_3 1_555 1_555
Zn2_2 N1_3 1_555 1_555
N1_3 C1_3 1_555 1_555
C1_3 H1_3 1_555 1_555
N2_3 C1_3 1_555 1_555
C2_3 N2_3 1_555 1_555
H2_3 C2_3 1_555 1_555
C3_3 N1_3 1_555 1_555
H3_3 C3_3 1_555 1_555
Zn3_3 N2_3 1_555 1_555
C2_3 C3_3 1_555 1_555
C4_4 N3_4 1_555 1_555
N4_4 C4_4 1_555 1_555
C5_2 N4_4 1_555 1_555
H5_2 C5_2 1_555 1_555
C6_4 N3_4 1_555 1_555
H6_4 C6_4 1_555 1_555
Zn2_4 N4_4 1_555 1_555
C5_2 C6_4 1_555 1_555
Zn2 N1_4 1_555 1_555
N1_4 C1_4 1_555 1_555
C1_4 H1_4 1_555 1_555
N2_4 C1_4 1_555 1_555
C2_4 N2_4 1_555 1_555
H2_4 C2_4 1_555 1_555
C3_4 N1_4 1_555 1_555
H3_4 C3_4 1_555 1_555
Zn3_4 N2_4 1_555 1_555
C2_4 C3_4 1_555 1_555
H6_5 C6_5 1_555 1_555
N6_3 Zn3_2 1_555 1_555
C4_5 N3_5 1_555 1_555
H4_5 C4_5 1_555 1_555
N4_5 C4_5 1_555 1_555
C5_3 N4_5 1_555 1_555
H5_3 C5_3 1_555 1_555
Zn2_5 N4_5 1_555 1_555
N5_2 C1_5 1_555 1_555
C2_5 N5_2 1_555 1_555
H2_5 C2_5 1_555 1_555
H3_5 C3_5 1_555 1_555
C2_5 C3_5 1_555 1_555
C4_6 N3_6 1_555 1_555
H4_6 C4_6 1_555 1_555
N4_6 C4_6 1_555 1_555
C5_4 N4_6 1_555 1_555
H5_4 C5_4 1_555 1_555
Zn2_6 N4_6 1_555 1_555
N5 C1_6 1_555 1_555
C2_6 N5 1_555 1_555
H2_6 C2_6 1_555 1_555
H3_6 C3_6 1_555 1_555
C2_6 C3_6 1_555 1_555
H6_6 C6_6 1_555 1_555
N6_4 Zn3 1_555 1_555
Zn2_6 N1_7 1_555 1_555
N1_7 C1_7 1_555 1_555
N2_5 C1_7 1_555 1_555
C2_7 N2_5 1_555 1_555
C3_7 N1_7 1_555 1_555
H3_7 C3_7 1_555 1_555
N3_7 Zn2_6 1_555 1_555
C4_7 N3_7 1_555 1_555
H4_7 C4_7 1_555 1_555
N4_7 C4_7 1_555 1_555
C5_5 N4_7 1_555 1_555
H5_5 C5_5 1_555 1_555
C6_7 N3_7 1_555 1_555
H6_7 C6_7 1_555 1_555
Zn2_7 N4_7 1_555 1_555
C2_7 C3_7 1_555 1_555
C5_5 C6_7 1_555 1_555
Zn2_5 N1_8 1_555 1_555
N1_8 C1_8 1_555 1_555
N2_6 C1_8 1_555 1_555
C2_8 N2_6 1_555 1_555
C3_8 N1_8 1_555 1_555
H3_8 C3_8 1_555 1_555
N3_8 Zn2_5 1_555 1_555
C4_8 N3_8 1_555 1_555
H4_8 C4_8 1_555 1_555
N4_8 C4_8 1_555 1_555
C5_6 N4_8 1_555 1_555
H5_6 C5_6 1_555 1_555
C6_8 N3_8 1_555 1_555
H6_8 C6_8 1_555 1_555
Zn2_8 N4_8 1_555 1_555
C2_8 C3_8 1_555 1_555
C5_6 C6_8 1_555 1_555
Zn2_4 N1_9 1_555 1_555
N3_9 Zn2_4 1_555 1_555
C4_9 N3_9 1_555 1_555
H4_9 C4_9 1_555 1_555
N4_9 C4_9 1_555 1_555
C5_7 N4_9 1_555 1_555
H5_7 C5_7 1_555 1_555
C6_9 N3_9 1_555 1_555
H6_9 C6_9 1_555 1_555
Zn3_3 N4_9 1_555 1_555
N5_7 Zn2_4 1_555 1_555
C5_7 C6_9 1_555 1_555
N2_7 C1_9 1_555 1_555
C2_9 N2_7 1_555 1_555
H2_7 C2_9 1_555 1_555
H3_9 C3_9 1_555 1_555
Zn2_7 N2_7 1_555 1_555
C2_9 C3_9 1_555 1_555
Zn2_3 N1_10 1_555 1_555
N3_10 Zn2_3 1_555 1_555
C4_10 N3_10 1_555 1_555
H4_10 C4_10 1_555 1_555
N4_10 C4_10 1_555 1_555
C5_8 N4_10 1_555 1_555
H5_8 C5_8 1_555 1_555
C6_10 N3_10 1_555 1_555
H6_10 C6_10 1_555 1_555
Zn3_4 N4_10 1_555 1_555
N5_8 Zn2_3 1_555 1_555
C5_8 C6_10 1_555 1_555
N2_8 C1_10 1_555 1_555
C2_10 N2_8 1_555 1_555
H2_8 C2_10 1_555 1_555
H3_10 C3_10 1_555 1_555
Zn2_8 N2_8 1_555 1_555
C2_10 C3_10 1_555 1_555
Zn3_4 N1_11 1_555 1_555
N1_11 C1_11 1_555 1_555
C1_11 H1_11 1_555 1_555
N5_4 C1_11 1_555 1_555
C2_11 N5_4 1_555 1_555
C3_11 N1_11 1_555 1_555
H3_11 C3_11 1_555 1_555
N3_11 Zn3_4 1_555 1_555
C4_11 N3_11 1_555 1_555
H4_11 C4_11 1_555 1_555
N6_2 C4_11 1_555 1_555
C5_9 N6_2 1_555 1_555
H5_9 C5_9 1_555 1_555
C6_11 N3_11 1_555 1_555
H6_11 C6_11 1_555 1_555
C2_11 C3_11 1_555 1_555
C5_9 C6_11 1_555 1_555
Zn3_3 N1_12 1_555 1_555
N1_12 C1_12 1_555 1_555
C1_12 H1_12 1_555 1_555
N5_3 C1_12 1_555 1_555
C2_12 N5_3 1_555 1_555
C3_12 N1_12 1_555 1_555
H3_12 C3_12 1_555 1_555
N3_12 Zn3_3 1_555 1_555
C4_12 N3_12 1_555 1_555
H4_12 C4_12 1_555 1_555
N6 C4_12 1_555 1_555
C5_10 N6 1_555 1_555
H5_10 C5_10 1_555 1_555
C6_12 N3_12 1_555 1_555
H6_12 C6_12 1_555 1_555
C2_12 C3_12 1_555 1_555
C5_10 C6_12 1_555 1_555
Zn2_8 N1_13 1_555 1_555
N1_13 C1_13 1_555 1_555
C1_13 H1_13 1_555 1_555
N5_8 C1_13 1_555 1_555
C2_13 N5_8 1_555 1_555
H2_11 C2_13 1_555 1_555
C3_13 N1_13 1_555 1_555
H3_13 C3_13 1_555 1_555
N3_13 Zn2_8 1_555 1_555
C4_13 N3_13 1_555 1_555
H4_13 C4_13 1_555 1_555
N4_11 C4_13 1_555 1_555
C6_13 N3_13 1_555 1_555
H6_13 C6_13 1_555 1_555
Zn3_5 N4_11 1_555 1_555
C2_13 C3_13 1_555 1_555
Zn2_7 N1_14 1_555 1_555
N1_14 C1_14 1_555 1_555
C1_14 H1_14 1_555 1_555
N5_7 C1_14 1_555 1_555
C2_14 N5_7 1_555 1_555
H2_12 C2_14 1_555 1_555
C3_14 N1_14 1_555 1_555
H3_14 C3_14 1_555 1_555
N3_14 Zn2_7 1_555 1_555
C4_14 N3_14 1_555 1_555
H4_14 C4_14 1_555 1_555
N4_12 C4_14 1_555 1_555
C6_14 N3_14 1_555 1_555
H6_14 C6_14 1_555 1_555
Zn3_6 N4_12 1_555 1_555
C2_14 C3_14 1_555 1_555
C4_15 N3_15 1_555 1_555
N6_4 C4_15 1_555 1_555
C5_11 N6_4 1_555 1_555
H5_11 C5_11 1_555 1_555
C6_15 N3_15 1_555 1_555
H6_15 C6_15 1_555 1_555
C5_11 C6_15 1_555 1_555
Zn3_6 N1_15 1_555 1_555
N1_15 C1_15 1_555 1_555
N5_6 C1_15 1_555 1_555
C2_15 N5_6 1_555 1_555
H2_13 C2_15 1_555 1_555
C3_15 N1_15 1_555 1_555
H3_15 C3_15 1_555 1_555
C2_15 C3_15 1_555 1_555
C4_16 N3_16 1_555 1_555
N6_3 C4_16 1_555 1_555
C5_12 N6_3 1_555 1_555
H5_12 C5_12 1_555 1_555
C6_16 N3_16 1_555 1_555
H6_16 C6_16 1_555 1_555
C5_12 C6_16 1_555 1_555
Zn3_5 N1_16 1_555 1_555
N1_16 C1_16 1_555 1_555
N5_5 C1_16 1_555 1_555
C2_16 N5_5 1_555 1_555
H2_14 C2_16 1_555 1_555
C3_16 N1_16 1_555 1_555
H3_16 C3_16 1_555 1_555
C2_16 C3_16 1_555 1_555
H5_13 C5_13 1_555 1_555
H5_14 C5_14 1_555 1_555
H5_15 C5_15 1_555 1_555
H5_16 C5_16 1_555 1_555

#END
