
###############################################################################
#
# This file contains modified crystal structure data generated from the
# MOF subset of the Cambridge Structural Database (CSD) v543 
# hosted by the Cambridge Crystallographic Data Centre (CCDC).
#
# This work is licensed under the Creative Commons
# Attribution-NonCommercial-ShareAlike 4.0 International License.
# To view a copy of this license, visit
# http://creativecommons.org/licenses/by-nc-sa/4.0/
# or send a letter to
# Creative Commons, PO Box 1866, Mountain View, CA 94042, USA.
#
# CIF created using the CSD Python API on 29 September 2022
# The structure has been converted into the P1 space group
# The structure has a 3D framework
# The original CSD entry KEXFAU is in the monoclinic crystal system
# The framework has been calculated to contain at least 10.0% void space
# The void calculation uses a probe of radius 1.32A, grid spacing 0.4
# H atom positions have been added when not included in the experimental data
#
###############################################################################

data_KEXFAU
_chemical_formula_moiety         '(C88 H184 Cd11 N32 Ni6)n'
_symmetry_cell_setting           triclinic
_symmetry_space_group_name_H-M   'P 1'
_symmetry_Int_Tables_number      1
_space_group_name_Hall           'P 1'
loop_
_symmetry_equiv_pos_site_id
_symmetry_equiv_pos_as_xyz
1 x,y,z
_cell_length_a                   28.59(1)
_cell_length_b                   9.087(8)
_cell_length_c                   17.239(7)
_cell_angle_alpha                90
_cell_angle_beta                 106.08(4)
_cell_angle_gamma                90
_cell_volume                     4303.42
loop_
_atom_site_label
_atom_site_type_symbol
_atom_site_fract_x
_atom_site_fract_y
_atom_site_fract_z
Cd1 Cd 0.0000 0.00000 0.0000
Ni1 Ni 0.0000 0.34254(6) 0.2500
N2 N 0.4407(1) 0.3259(4) 0.4364(2)
N3 N 0.0056(1) 0.1125(3) 0.1279(2)
N4 N 0.0048(2) 0.5815(5) 0.1321(3)
C1 C 0.0901(2) 0.2572(4) 0.0328(3)
C2 C 0.1286(1) 0.1678(4) 0.0914(3)
C3 C 0.1674(2) 0.2608(5) 0.1484(3)
C4 C 0.2084(1) 0.1710(5) 0.2020(3)
C5 C 0.2481(2) 0.2621(5) 0.2578(3)
C6 C 0.2884(1) 0.1695(5) 0.3112(3)
C7 C 0.3295(2) 0.2590(5) 0.3657(3)
C8 C 0.3675(1) 0.1674(5) 0.4248(3)
C9 C 0.4087(2) 0.2572(5) 0.4787(2)
C10 C 0.0034(1) 0.1991(4) 0.1745(2)
C11 C 0.0034(2) 0.4884(4) 0.1764(2)
H3 H 0.070(1) 0.308(4) 0.059(2)
H4 H 0.106(2) 0.321(5) 0.006(3)
H5 H 0.113(1) 0.103(4) 0.124(2)
H6 H 0.142(2) 0.107(5) 0.060(3)
H7 H 0.153(2) 0.310(5) 0.182(3)
H8 H 0.179(2) 0.331(6) 0.120(3)
H9 H 0.221(2) 0.118(5) 0.170(3)
H10 H 0.194(1) 0.106(5) 0.237(2)
H11 H 0.235(2) 0.324(5) 0.291(3)
H12 H 0.261(2) 0.320(6) 0.229(3)
H13 H 0.276(1) 0.110(4) 0.344(2)
H14 H 0.301(2) 0.107(5) 0.276(3)
H15 H 0.345(2) 0.324(5) 0.331(3)
H16 H 0.318(2) 0.329(6) 0.390(3)
H17 H 0.382(2) 0.103(5) 0.393(2)
H18 H 0.350(2) 0.112(5) 0.461(3)
H19 H 0.430(2) 0.196(5) 0.520(3)
H20 H 0.396(1) 0.332(5) 0.511(2)
H21 H 0.425(2) 0.371(5) 0.394(3)
H22 H 0.456(2) 0.254(6) 0.420(3)
Cd2 Cd 0.5000 0.50000 0.5000
Cd1_2 Cd 0.0000 1.00000 0.0000
N9 N 0.0593(1) 0.8259(4) 0.0636(2)
H45 H 0.075(2) 0.871(5) 0.106(3)
H46 H 0.044(2) 0.754(6) 0.080(3)
H49 H 0.0804878 0.791876 0.028556
Cd1_3 Cd 0.0000 1.00000 1.0000
Ni2 Ni 0.0000 0.65746(6) 0.7500
Cd1_4 Cd 1.0000 0.00000 0.0000
Ni1_2 Ni 1.0000 0.34254(6) 0.2500
N8 N 0.9952(2) 0.5815(5) 0.3679(3)
C22 C 0.9966(2) 0.4884(4) 0.3236(2)
C23 C 0.9966(1) 0.1991(4) 0.3255(2)
Cd1_5 Cd 1.0000 0.00000 1.0000
N10 N 0.9407(1) 0.1741(4) 0.9364(2)
H47 H 0.925(2) 0.129(5) 0.894(3)
H48 H 0.956(2) 0.246(6) 0.920(3)
H50 H 0.919512 0.208124 0.971444
Cd1_6 Cd 1.0000 1.00000 1.0000
N6 N 0.5593(1) 0.6741(4) 0.5636(2)
C12 C 0.9099(2) 0.7428(4) 0.9672(3)
C13 C 0.8714(1) 0.8322(4) 0.9086(3)
C14 C 0.8326(2) 0.7392(5) 0.8516(3)
C15 C 0.7916(1) 0.8290(5) 0.7980(3)
C16 C 0.7519(2) 0.7379(5) 0.7422(3)
C17 C 0.7116(1) 0.8305(5) 0.6888(3)
C18 C 0.6705(2) 0.7410(5) 0.6343(3)
C19 C 0.6325(1) 0.8326(5) 0.5752(3)
C20 C 0.5913(2) 0.7428(5) 0.5213(2)
H25 H 0.930(1) 0.692(4) 0.941(2)
H26 H 0.894(2) 0.679(5) 0.994(3)
H27 H 0.887(1) 0.897(4) 0.876(2)
H28 H 0.858(2) 0.893(5) 0.940(3)
H29 H 0.847(2) 0.690(5) 0.818(3)
H30 H 0.821(2) 0.669(6) 0.880(3)
H31 H 0.779(2) 0.882(5) 0.830(3)
H32 H 0.806(1) 0.894(5) 0.763(2)
H33 H 0.765(2) 0.676(5) 0.709(3)
H34 H 0.739(2) 0.680(6) 0.771(3)
H35 H 0.724(1) 0.890(4) 0.656(2)
H36 H 0.699(2) 0.893(5) 0.724(3)
H37 H 0.655(2) 0.676(5) 0.669(3)
H38 H 0.682(2) 0.671(6) 0.610(3)
H39 H 0.618(2) 0.897(5) 0.607(2)
H40 H 0.650(2) 0.888(5) 0.539(3)
H41 H 0.570(2) 0.804(5) 0.480(3)
H42 H 0.604(1) 0.668(5) 0.489(2)
H43 H 0.575(2) 0.629(5) 0.606(3)
H44 H 0.544(2) 0.746(6) 0.580(3)
N7 N 0.9944(1) 0.8875(3) 0.8721(2)
C21 C 0.9966(1) 0.8009(4) 0.8255(2)
Ni2_2 Ni 1.0000 0.65746(6) 0.7500
Cd2_2 Cd 0.0000 0.00000 0.5000
Cd2_3 Cd 0.0000 1.00000 0.5000
N4_2 N 0.5048(2) 0.0815(5) 0.1321(3)
N8_2 N 0.4952(2) 0.0815(5) 0.3679(3)
Cd2_4 Cd 1.0000 0.00000 0.5000
Cd1_7 Cd 0.5000 0.50000 0.0000
Ni1_3 Ni 0.5000 0.84254(6) 0.2500
N2_2 N 0.9407(1) 0.8259(4) 0.4364(2)
N3_2 N 0.5056(1) 0.6125(3) 0.1279(2)
C1_2 C 0.5901(2) 0.7572(4) 0.0328(3)
C2_2 C 0.6286(1) 0.6678(4) 0.0914(3)
C3_2 C 0.6674(2) 0.7608(5) 0.1484(3)
C4_2 C 0.7084(1) 0.6710(5) 0.2020(3)
C5_2 C 0.7481(2) 0.7621(5) 0.2578(3)
C6_2 C 0.7884(1) 0.6695(5) 0.3112(3)
C7_2 C 0.8295(2) 0.7590(5) 0.3657(3)
C8_2 C 0.8675(1) 0.6674(5) 0.4248(3)
C9_2 C 0.9087(2) 0.7572(5) 0.4787(2)
C10_2 C 0.5034(1) 0.6991(4) 0.1745(2)
C11_2 C 0.5034(2) 0.9884(4) 0.1764(2)
H3_2 H 0.570(1) 0.808(4) 0.059(2)
H4_2 H 0.606(2) 0.821(5) 0.006(3)
H5_2 H 0.613(1) 0.603(4) 0.124(2)
H6_2 H 0.642(2) 0.607(5) 0.060(3)
H7_2 H 0.653(2) 0.810(5) 0.182(3)
H8_2 H 0.679(2) 0.831(6) 0.120(3)
H9_2 H 0.721(2) 0.618(5) 0.170(3)
H10_2 H 0.694(1) 0.606(5) 0.237(2)
H11_2 H 0.735(2) 0.824(5) 0.291(3)
H12_2 H 0.761(2) 0.820(6) 0.229(3)
H13_2 H 0.776(1) 0.610(4) 0.344(2)
H14_2 H 0.801(2) 0.607(5) 0.276(3)
H15_2 H 0.845(2) 0.824(5) 0.331(3)
H16_2 H 0.818(2) 0.829(6) 0.390(3)
H17_2 H 0.882(2) 0.603(5) 0.393(2)
H18_2 H 0.850(2) 0.612(5) 0.461(3)
H19_2 H 0.930(2) 0.696(5) 0.520(3)
H20_2 H 0.896(1) 0.832(5) 0.511(2)
H21_2 H 0.925(2) 0.871(5) 0.394(3)
H22_2 H 0.956(2) 0.754(6) 0.420(3)
N5 N 0.4427(1) 0.3372(4) 0.0284(2)
H23 H 0.424(1) 0.380(4) 0.049(2)
H24 H 0.458(2) 0.279(5) 0.065(3)
C22_2 C 0.4966(2) 0.9884(4) 0.3236(2)
N9_2 N 0.5593(1) 0.3259(4) 0.0636(2)
C23_2 C 0.4966(1) 0.6991(4) 0.3255(2)
Cd2_5 Cd 1.0000 1.00000 0.5000
H45_2 H 0.575(2) 0.371(5) 0.106(3)
H46_2 H 0.544(2) 0.254(6) 0.080(3)
H49_2 H 0.580488 0.291876 0.028556
Cd1_8 Cd 0.5000 0.50000 1.0000
N1 N 0.5573(1) 0.6628(4) 0.9716(2)
H1 H 0.576(1) 0.620(4) 0.951(2)
H2 H 0.542(2) 0.721(5) 0.935(3)
N6_2 N 0.0593(1) 0.1741(4) 0.5636(2)
C12_2 C 0.4099(2) 0.2428(4) 0.9672(3)
C13_2 C 0.3714(1) 0.3322(4) 0.9086(3)
C14_2 C 0.3326(2) 0.2392(5) 0.8516(3)
C15_2 C 0.2916(1) 0.3290(5) 0.7980(3)
C16_2 C 0.2519(2) 0.2379(5) 0.7422(3)
C17_2 C 0.2116(1) 0.3305(5) 0.6888(3)
C18_2 C 0.1705(2) 0.2410(5) 0.6343(3)
C19_2 C 0.1325(1) 0.3326(5) 0.5752(3)
C20_2 C 0.0913(2) 0.2428(5) 0.5213(2)
H25_2 H 0.430(1) 0.192(4) 0.941(2)
H26_2 H 0.394(2) 0.179(5) 0.994(3)
H27_2 H 0.387(1) 0.397(4) 0.876(2)
H28_2 H 0.358(2) 0.393(5) 0.940(3)
H29_2 H 0.347(2) 0.190(5) 0.818(3)
H30_2 H 0.321(2) 0.169(6) 0.880(3)
H31_2 H 0.279(2) 0.382(5) 0.830(3)
H32_2 H 0.306(1) 0.394(5) 0.763(2)
H33_2 H 0.265(2) 0.176(5) 0.709(3)
H34_2 H 0.239(2) 0.180(6) 0.771(3)
H35_2 H 0.224(1) 0.390(4) 0.656(2)
H36_2 H 0.199(2) 0.393(5) 0.724(3)
H37_2 H 0.155(2) 0.176(5) 0.669(3)
H38_2 H 0.182(2) 0.171(6) 0.610(3)
H39_2 H 0.118(2) 0.397(5) 0.607(2)
H40_2 H 0.150(2) 0.388(5) 0.539(3)
H41_2 H 0.070(2) 0.304(5) 0.480(3)
H42_2 H 0.104(1) 0.168(5) 0.489(2)
H43_2 H 0.075(2) 0.129(5) 0.606(3)
H44_2 H 0.044(2) 0.246(6) 0.580(3)
N7_2 N 0.4944(1) 0.3875(3) 0.8721(2)
C21_2 C 0.4966(1) 0.3009(4) 0.8255(2)
N10_2 N 0.4407(1) 0.6741(4) 0.9364(2)
Ni2_3 Ni 0.5000 0.15746(6) 0.7500
H47_2 H 0.425(2) 0.629(5) 0.894(3)
H48_2 H 0.456(2) 0.746(6) 0.920(3)
H50_2 H 0.419512 0.708124 0.971444
H50_3 H 0.0804878 0.208124 0.528556
H41_3 H 0.430(2) 0.804(5) 0.020(3)
H42_3 H 0.396(1) 0.668(5) 0.011(2)
N5_2 N 0.0573(1) 0.8372(4) 0.4716(2)
C12_3 C 0.0901(2) 0.7428(4) 0.5328(3)
C13_3 C 0.1286(1) 0.8322(4) 0.5914(3)
C14_3 C 0.1674(2) 0.7392(5) 0.6484(3)
C15_3 C 0.2084(1) 0.8290(5) 0.7020(3)
C16_3 C 0.2481(2) 0.7379(5) 0.7578(3)
C17_3 C 0.2884(1) 0.8305(5) 0.8112(3)
C18_3 C 0.3295(2) 0.7410(5) 0.8657(3)
C19_3 C 0.3675(1) 0.8326(5) 0.9248(3)
C20_3 C 0.4087(2) 0.7428(5) 0.9787(2)
H23_2 H 0.076(1) 0.880(4) 0.451(2)
H24_2 H 0.042(2) 0.779(5) 0.435(3)
H25_3 H 0.070(1) 0.692(4) 0.559(2)
H26_3 H 0.106(2) 0.679(5) 0.506(3)
H27_3 H 0.113(1) 0.897(4) 0.624(2)
H28_3 H 0.142(2) 0.893(5) 0.560(3)
H29_3 H 0.153(2) 0.690(5) 0.682(3)
H30_3 H 0.179(2) 0.669(6) 0.620(3)
H31_3 H 0.221(2) 0.882(5) 0.670(3)
H32_3 H 0.194(1) 0.894(5) 0.737(2)
H33_3 H 0.235(2) 0.676(5) 0.791(3)
H34_3 H 0.261(2) 0.680(6) 0.729(3)
H35_3 H 0.276(1) 0.890(4) 0.844(2)
H36_3 H 0.301(2) 0.893(5) 0.776(3)
H37_3 H 0.345(2) 0.676(5) 0.831(3)
H38_3 H 0.318(2) 0.671(6) 0.890(3)
H39_3 H 0.382(2) 0.897(5) 0.893(2)
H40_3 H 0.350(2) 0.888(5) 0.961(3)
N7_3 N 0.0056(1) 0.8875(3) 0.6279(2)
C21_3 C 0.0034(1) 0.8009(4) 0.6745(2)
N1_2 N 0.9427(1) 0.1628(4) 0.5284(2)
N3_3 N 0.9944(1) 0.1125(3) 0.3721(2)
C1_3 C 0.9099(2) 0.2572(4) 0.4672(3)
C2_3 C 0.8714(1) 0.1678(4) 0.4086(3)
C3_3 C 0.8326(2) 0.2608(5) 0.3516(3)
C4_3 C 0.7916(1) 0.1710(5) 0.2980(3)
C5_3 C 0.7519(2) 0.2621(5) 0.2422(3)
C6_3 C 0.7116(1) 0.1695(5) 0.1888(3)
C7_3 C 0.6705(2) 0.2590(5) 0.1343(3)
C8_3 C 0.6325(1) 0.1674(5) 0.0752(3)
C9_3 C 0.5913(2) 0.2572(5) 0.0213(2)
H1_2 H 0.924(1) 0.120(4) 0.549(2)
H2_2 H 0.958(2) 0.221(5) 0.565(3)
H3_3 H 0.930(1) 0.308(4) 0.441(2)
H4_3 H 0.894(2) 0.321(5) 0.494(3)
H5_3 H 0.887(1) 0.103(4) 0.376(2)
H6_3 H 0.858(2) 0.107(5) 0.440(3)
H7_3 H 0.847(2) 0.310(5) 0.318(3)
H8_3 H 0.821(2) 0.331(6) 0.380(3)
H9_3 H 0.779(2) 0.118(5) 0.330(3)
H10_3 H 0.806(1) 0.106(5) 0.263(2)
H11_3 H 0.765(2) 0.324(5) 0.209(3)
H12_3 H 0.739(2) 0.320(6) 0.271(3)
H13_3 H 0.724(1) 0.110(4) 0.156(2)
H14_3 H 0.699(2) 0.107(5) 0.224(3)
H15_3 H 0.655(2) 0.324(5) 0.169(3)
H16_3 H 0.682(2) 0.329(6) 0.110(3)
H17_3 H 0.618(2) 0.103(5) 0.107(2)
H18_3 H 0.650(2) 0.112(5) 0.039(3)
H19_3 H 0.570(2) 0.196(5) 0.980(3)
H20_3 H 0.604(1) 0.332(5) 0.989(2)
H49_3 H 0.919512 0.791876 0.471444
H41_4 H 0.930(2) 0.304(5) 0.020(3)
H42_4 H 0.896(1) 0.168(5) 0.011(2)
N1_3 N 0.4427(1) 0.6628(4) 0.5284(2)
N3_4 N 0.4944(1) 0.6125(3) 0.3721(2)
C1_4 C 0.4099(2) 0.7572(4) 0.4672(3)
C2_4 C 0.3714(1) 0.6678(4) 0.4086(3)
C3_4 C 0.3326(2) 0.7608(5) 0.3516(3)
C4_4 C 0.2916(1) 0.6710(5) 0.2980(3)
C5_4 C 0.2519(2) 0.7621(5) 0.2422(3)
C6_4 C 0.2116(1) 0.6695(5) 0.1888(3)
C7_4 C 0.1705(2) 0.7590(5) 0.1343(3)
C8_4 C 0.1325(1) 0.6674(5) 0.0752(3)
C9_4 C 0.0913(2) 0.7572(5) 0.0213(2)
H1_3 H 0.424(1) 0.620(4) 0.549(2)
H2_3 H 0.458(2) 0.721(5) 0.565(3)
H3_4 H 0.430(1) 0.808(4) 0.441(2)
H4_4 H 0.394(2) 0.821(5) 0.494(3)
H5_4 H 0.387(1) 0.603(4) 0.376(2)
H6_4 H 0.358(2) 0.607(5) 0.440(3)
H7_4 H 0.347(2) 0.810(5) 0.318(3)
H8_4 H 0.321(2) 0.831(6) 0.380(3)
H9_4 H 0.279(2) 0.618(5) 0.330(3)
H10_4 H 0.306(1) 0.606(5) 0.263(2)
H11_4 H 0.265(2) 0.824(5) 0.209(3)
H12_4 H 0.239(2) 0.820(6) 0.271(3)
H13_4 H 0.224(1) 0.610(4) 0.156(2)
H14_4 H 0.199(2) 0.607(5) 0.224(3)
H15_4 H 0.155(2) 0.824(5) 0.169(3)
H16_4 H 0.182(2) 0.829(6) 0.110(3)
H17_4 H 0.118(2) 0.603(5) 0.107(2)
H18_4 H 0.150(2) 0.612(5) 0.039(3)
N5_3 N 0.5573(1) 0.3372(4) 0.4716(2)
C12_4 C 0.5901(2) 0.2428(4) 0.5328(3)
C13_4 C 0.6286(1) 0.3322(4) 0.5914(3)
C14_4 C 0.6674(2) 0.2392(5) 0.6484(3)
C15_4 C 0.7084(1) 0.3290(5) 0.7020(3)
C16_4 C 0.7481(2) 0.2379(5) 0.7578(3)
C17_4 C 0.7884(1) 0.3305(5) 0.8112(3)
C18_4 C 0.8295(2) 0.2410(5) 0.8657(3)
C19_4 C 0.8675(1) 0.3326(5) 0.9248(3)
C20_4 C 0.9087(2) 0.2428(5) 0.9787(2)
H23_3 H 0.576(1) 0.380(4) 0.451(2)
H24_3 H 0.542(2) 0.279(5) 0.435(3)
H25_4 H 0.570(1) 0.192(4) 0.559(2)
H26_4 H 0.606(2) 0.179(5) 0.506(3)
H27_4 H 0.613(1) 0.397(4) 0.624(2)
H28_4 H 0.642(2) 0.393(5) 0.560(3)
H29_4 H 0.653(2) 0.190(5) 0.682(3)
H30_4 H 0.679(2) 0.169(6) 0.620(3)
H31_4 H 0.721(2) 0.382(5) 0.670(3)
H32_4 H 0.694(1) 0.394(5) 0.737(2)
H33_4 H 0.735(2) 0.176(5) 0.791(3)
H34_4 H 0.761(2) 0.180(6) 0.729(3)
H35_4 H 0.776(1) 0.390(4) 0.844(2)
H36_4 H 0.801(2) 0.393(5) 0.776(3)
H37_4 H 0.845(2) 0.176(5) 0.831(3)
H38_4 H 0.818(2) 0.171(6) 0.890(3)
H39_4 H 0.882(2) 0.397(5) 0.893(2)
H40_4 H 0.850(2) 0.388(5) 0.961(3)
N7_4 N 0.5056(1) 0.3875(3) 0.6279(2)
C21_4 C 0.5034(1) 0.3009(4) 0.6745(2)
H49_4 H 0.419512 0.291876 0.471444
H50_4 H 0.580488 0.708124 0.528556
H19_4 H 0.070(2) 0.696(5) 0.980(3)
H20_4 H 0.104(1) 0.832(5) 0.989(2)
N8_3 N 0.0048(2) 0.4185(5) 0.6321(3)
C22_3 C 0.0034(2) 0.5116(4) 0.6764(2)
N4_3 N 0.9952(2) 0.4185(5) 0.8679(3)
C11_3 C 0.9966(2) 0.5116(4) 0.8236(2)
C11_4 C 0.4966(2) 0.0116(4) 0.8236(2)
C22_4 C 0.5034(2) 0.0116(4) 0.6764(2)
N4_4 N 0.4952(2) 0.9185(5) 0.8679(3)
N8_4 N 0.5048(2) 0.9185(5) 0.6321(3)
Cd1_9 Cd 0.0000 0.00000 1.0000
N1_4 N 0.0573(1) 0.1628(4) 0.9716(2)
H1_4 H 0.076(1) 0.120(4) 0.951(2)
H2_4 H 0.042(2) 0.221(5) 0.935(3)
Cd1_10 Cd 1.0000 1.00000 0.0000
N5_4 N 0.9427(1) 0.8372(4) 0.0284(2)
H23_4 H 0.924(1) 0.880(4) 0.049(2)
H24_4 H 0.958(2) 0.779(5) 0.065(3)
loop_
_geom_bond_atom_site_label_1
_geom_bond_atom_site_label_2
_geom_bond_site_symmetry_1
_geom_bond_site_symmetry_2
Ni1 C10 1_555 1_555
N2 C9 1_555 1_555
N3 Cd1 1_555 1_555
N4 C11 1_555 1_555
C1 C2 1_555 1_555
C2 C3 1_555 1_555
C3 C4 1_555 1_555
C4 C5 1_555 1_555
C5 C6 1_555 1_555
C6 C7 1_555 1_555
C7 C8 1_555 1_555
C8 C9 1_555 1_555
C9 H19 1_555 1_555
C10 N3 1_555 1_555
C11 Ni1 1_555 1_555
H3 C1 1_555 1_555
H4 C1 1_555 1_555
H5 C2 1_555 1_555
H6 C2 1_555 1_555
H7 C3 1_555 1_555
H8 C3 1_555 1_555
H9 C4 1_555 1_555
H10 C4 1_555 1_555
H11 C5 1_555 1_555
H12 C5 1_555 1_555
H13 C6 1_555 1_555
H14 C6 1_555 1_555
H15 C7 1_555 1_555
H16 C7 1_555 1_555
H17 C8 1_555 1_555
H18 C8 1_555 1_555
H20 C9 1_555 1_555
H21 N2 1_555 1_555
H22 N2 1_555 1_555
Cd2 N2 1_555 1_555
N9 Cd1_2 1_555 1_555
H45 N9 1_555 1_555
H46 N9 1_555 1_555
N9 H49 1_555 1_555
N8 C22 1_555 1_555
C22 Ni1_2 1_555 1_555
C23 Ni1_2 1_555 1_555
N10 Cd1_5 1_555 1_555
H47 N10 1_555 1_555
H48 N10 1_555 1_555
N10 H50 1_555 1_555
N6 C20 1_555 1_555
C13 C12 1_555 1_555
C14 C13 1_555 1_555
C15 C14 1_555 1_555
C16 C15 1_555 1_555
C17 C16 1_555 1_555
C18 C17 1_555 1_555
C19 C18 1_555 1_555
C20 C19 1_555 1_555
H25 C12 1_555 1_555
H26 C12 1_555 1_555
H27 C13 1_555 1_555
H28 C13 1_555 1_555
H29 C14 1_555 1_555
H30 C14 1_555 1_555
H31 C15 1_555 1_555
H32 C15 1_555 1_555
H33 C16 1_555 1_555
H34 C16 1_555 1_555
H35 C17 1_555 1_555
H36 C17 1_555 1_555
H37 C18 1_555 1_555
H38 C18 1_555 1_555
H39 C19 1_555 1_555
H40 C19 1_555 1_555
H41 C20 1_555 1_555
H42 C20 1_555 1_555
H43 N6 1_555 1_555
H44 N6 1_555 1_555
N7 Cd1_6 1_555 1_555
C21 N7 1_555 1_555
Cd2 N6 1_555 1_555
Ni2_2 C21 1_555 1_555
Ni1_3 C10_2 1_555 1_555
N2_2 C9_2 1_555 1_555
N3_2 Cd1_7 1_555 1_555
C1_2 C2_2 1_555 1_555
C2_2 C3_2 1_555 1_555
C3_2 C4_2 1_555 1_555
C4_2 C5_2 1_555 1_555
C5_2 C6_2 1_555 1_555
C6_2 C7_2 1_555 1_555
C7_2 C8_2 1_555 1_555
C8_2 C9_2 1_555 1_555
C9_2 H19_2 1_555 1_555
C10_2 N3_2 1_555 1_555
C11_2 Ni1_3 1_555 1_555
H3_2 C1_2 1_555 1_555
H4_2 C1_2 1_555 1_555
H5_2 C2_2 1_555 1_555
H6_2 C2_2 1_555 1_555
H7_2 C3_2 1_555 1_555
H8_2 C3_2 1_555 1_555
H9_2 C4_2 1_555 1_555
H10_2 C4_2 1_555 1_555
H11_2 C5_2 1_555 1_555
H12_2 C5_2 1_555 1_555
H13_2 C6_2 1_555 1_555
H14_2 C6_2 1_555 1_555
H15_2 C7_2 1_555 1_555
H16_2 C7_2 1_555 1_555
H17_2 C8_2 1_555 1_555
H18_2 C8_2 1_555 1_555
H20_2 C9_2 1_555 1_555
H21_2 N2_2 1_555 1_555
H22_2 N2_2 1_555 1_555
N5 Cd1_7 1_555 1_555
H23 N5 1_555 1_555
H24 N5 1_555 1_555
C22_2 Ni1_3 1_555 1_555
N9_2 Cd1_7 1_555 1_555
C23_2 Ni1_3 1_555 1_555
Cd2_5 N2_2 1_555 1_555
H45_2 N9_2 1_555 1_555
H46_2 N9_2 1_555 1_555
N9_2 H49_2 1_555 1_555
Cd1_8 N1 1_555 1_555
H1 N1 1_555 1_555
H2 N1 1_555 1_555
N6_2 C20_2 1_555 1_555
C13_2 C12_2 1_555 1_555
C14_2 C13_2 1_555 1_555
C15_2 C14_2 1_555 1_555
C16_2 C15_2 1_555 1_555
C17_2 C16_2 1_555 1_555
C18_2 C17_2 1_555 1_555
C19_2 C18_2 1_555 1_555
C20_2 C19_2 1_555 1_555
H25_2 C12_2 1_555 1_555
H26_2 C12_2 1_555 1_555
H27_2 C13_2 1_555 1_555
H28_2 C13_2 1_555 1_555
H29_2 C14_2 1_555 1_555
H30_2 C14_2 1_555 1_555
H31_2 C15_2 1_555 1_555
H32_2 C15_2 1_555 1_555
H33_2 C16_2 1_555 1_555
H34_2 C16_2 1_555 1_555
H35_2 C17_2 1_555 1_555
H36_2 C17_2 1_555 1_555
H37_2 C18_2 1_555 1_555
H38_2 C18_2 1_555 1_555
H39_2 C19_2 1_555 1_555
H40_2 C19_2 1_555 1_555
H41_2 C20_2 1_555 1_555
H42_2 C20_2 1_555 1_555
H43_2 N6_2 1_555 1_555
H44_2 N6_2 1_555 1_555
N7_2 Cd1_8 1_555 1_555
C21_2 N7_2 1_555 1_555
N10_2 Cd1_8 1_555 1_555
Cd2_2 N6_2 1_555 1_555
Ni2_3 C21_2 1_555 1_555
H47_2 N10_2 1_555 1_555
H48_2 N10_2 1_555 1_555
N10_2 H50_2 1_555 1_555
N6_2 H50_3 1_555 1_555
N5_2 Cd2_3 1_555 1_555
N10_2 C20_3 1_555 1_555
C12_3 N5_2 1_555 1_555
C13_3 C12_3 1_555 1_555
C14_3 C13_3 1_555 1_555
C15_3 C14_3 1_555 1_555
C16_3 C15_3 1_555 1_555
C17_3 C16_3 1_555 1_555
C18_3 C17_3 1_555 1_555
C19_3 C18_3 1_555 1_555
C20_3 C19_3 1_555 1_555
H23_2 N5_2 1_555 1_555
H24_2 N5_2 1_555 1_555
H25_3 C12_3 1_555 1_555
H26_3 C12_3 1_555 1_555
H27_3 C13_3 1_555 1_555
H28_3 C13_3 1_555 1_555
H29_3 C14_3 1_555 1_555
H30_3 C14_3 1_555 1_555
H31_3 C15_3 1_555 1_555
H32_3 C15_3 1_555 1_555
H33_3 C16_3 1_555 1_555
H34_3 C16_3 1_555 1_555
H35_3 C17_3 1_555 1_555
H36_3 C17_3 1_555 1_555
H37_3 C18_3 1_555 1_555
H38_3 C18_3 1_555 1_555
H39_3 C19_3 1_555 1_555
H40_3 C19_3 1_555 1_555
N7_3 Cd2_3 1_555 1_555
C21_3 N7_3 1_555 1_555
Ni2 C21_3 1_555 1_555
Cd2_4 N1_2 1_555 1_555
N1_2 C1_3 1_555 1_555
N9_2 C9_3 1_555 1_555
N3_3 Cd2_4 1_555 1_555
C1_3 C2_3 1_555 1_555
C2_3 C3_3 1_555 1_555
C3_3 C4_3 1_555 1_555
C4_3 C5_3 1_555 1_555
C5_3 C6_3 1_555 1_555
C6_3 C7_3 1_555 1_555
C7_3 C8_3 1_555 1_555
C8_3 C9_3 1_555 1_555
C23 N3_3 1_555 1_555
H1_2 N1_2 1_555 1_555
H2_2 N1_2 1_555 1_555
H3_3 C1_3 1_555 1_555
H4_3 C1_3 1_555 1_555
H5_3 C2_3 1_555 1_555
H6_3 C2_3 1_555 1_555
H7_3 C3_3 1_555 1_555
H8_3 C3_3 1_555 1_555
H9_3 C4_3 1_555 1_555
H10_3 C4_3 1_555 1_555
H11_3 C5_3 1_555 1_555
H12_3 C5_3 1_555 1_555
H13_3 C6_3 1_555 1_555
H14_3 C6_3 1_555 1_555
H15_3 C7_3 1_555 1_555
H16_3 C7_3 1_555 1_555
H17_3 C8_3 1_555 1_555
H18_3 C8_3 1_555 1_555
N2_2 H49_3 1_555 1_555
Cd2 N1_3 1_555 1_555
N1_3 C1_4 1_555 1_555
N9 C9_4 1_555 1_555
N3_4 Cd2 1_555 1_555
C1_4 C2_4 1_555 1_555
C2_4 C3_4 1_555 1_555
C3_4 C4_4 1_555 1_555
C4_4 C5_4 1_555 1_555
C5_4 C6_4 1_555 1_555
C6_4 C7_4 1_555 1_555
C7_4 C8_4 1_555 1_555
C8_4 C9_4 1_555 1_555
C23_2 N3_4 1_555 1_555
H1_3 N1_3 1_555 1_555
H2_3 N1_3 1_555 1_555
H3_4 C1_4 1_555 1_555
H4_4 C1_4 1_555 1_555
H5_4 C2_4 1_555 1_555
H6_4 C2_4 1_555 1_555
H7_4 C3_4 1_555 1_555
H8_4 C3_4 1_555 1_555
H9_4 C4_4 1_555 1_555
H10_4 C4_4 1_555 1_555
H11_4 C5_4 1_555 1_555
H12_4 C5_4 1_555 1_555
H13_4 C6_4 1_555 1_555
H14_4 C6_4 1_555 1_555
H15_4 C7_4 1_555 1_555
H16_4 C7_4 1_555 1_555
H17_4 C8_4 1_555 1_555
H18_4 C8_4 1_555 1_555
N5_3 Cd2 1_555 1_555
N10 C20_4 1_555 1_555
C12_4 N5_3 1_555 1_555
C13_4 C12_4 1_555 1_555
C14_4 C13_4 1_555 1_555
C15_4 C14_4 1_555 1_555
C16_4 C15_4 1_555 1_555
C17_4 C16_4 1_555 1_555
C18_4 C17_4 1_555 1_555
C19_4 C18_4 1_555 1_555
C20_4 C19_4 1_555 1_555
H23_3 N5_3 1_555 1_555
H24_3 N5_3 1_555 1_555
H25_4 C12_4 1_555 1_555
H26_4 C12_4 1_555 1_555
H27_4 C13_4 1_555 1_555
H28_4 C13_4 1_555 1_555
H29_4 C14_4 1_555 1_555
H30_4 C14_4 1_555 1_555
H31_4 C15_4 1_555 1_555
H32_4 C15_4 1_555 1_555
H33_4 C16_4 1_555 1_555
H34_4 C16_4 1_555 1_555
H35_4 C17_4 1_555 1_555
H36_4 C17_4 1_555 1_555
H37_4 C18_4 1_555 1_555
H38_4 C18_4 1_555 1_555
H39_4 C19_4 1_555 1_555
H40_4 C19_4 1_555 1_555
N7_4 Cd2 1_555 1_555
C21_4 N7_4 1_555 1_555
Ni2_3 C21_4 1_555 1_555
N2 H49_4 1_555 1_555
N6 H50_4 1_555 1_555
N8_3 C22_3 1_555 1_555
C22_3 Ni2 1_555 1_555
N4_3 C11_3 1_555 1_555
C11_3 Ni2_2 1_555 1_555
C11_4 Ni2_3 1_555 1_555
C22_4 Ni2_3 1_555 1_555
Cd1_9 N1_4 1_555 1_555
H1_4 N1_4 1_555 1_555
H2_4 N1_4 1_555 1_555
N5_4 Cd1_10 1_555 1_555
H23_4 N5_4 1_555 1_555
H24_4 N5_4 1_555 1_555

#END
