
###############################################################################
#
# This file contains modified crystal structure data generated from the
# MOF subset of the Cambridge Structural Database (CSD) v543 
# hosted by the Cambridge Crystallographic Data Centre (CCDC).
#
# This work is licensed under the Creative Commons
# Attribution-NonCommercial-ShareAlike 4.0 International License.
# To view a copy of this license, visit
# http://creativecommons.org/licenses/by-nc-sa/4.0/
# or send a letter to
# Creative Commons, PO Box 1866, Mountain View, CA 94042, USA.
#
# CIF created using the CSD Python API on 29 September 2022
# The structure has been converted into the P1 space group
# The structure has a 3D framework
# The original CSD entry KEXKAB is in the orthorhombic crystal system
# The framework has been calculated to contain at least 10.0% void space
# The void calculation uses a probe of radius 1.32A, grid spacing 0.4
#
###############################################################################

data_KEXKAB
_chemical_formula_moiety         '(C64 H64 N8 O35 Zn8)n'
_symmetry_cell_setting           triclinic
_symmetry_space_group_name_H-M   'P 1'
_symmetry_Int_Tables_number      1
_space_group_name_Hall           'P 1'
loop_
_symmetry_equiv_pos_site_id
_symmetry_equiv_pos_as_xyz
1 x,y,z
_cell_length_a                   14.610(3)
_cell_length_b                   7.3190(15)
_cell_length_c                   20.564(4)
_cell_angle_alpha                90
_cell_angle_beta                 90
_cell_angle_gamma                90
_cell_volume                     2198.92
loop_
_atom_site_label
_atom_site_type_symbol
_atom_site_fract_x
_atom_site_fract_y
_atom_site_fract_z
H1 H 0.003(2) 0.659(4) 0.943(2)
H2 H 0.007(2) 0.842(4) 0.947(3)
O6 O 0.6947(2) 0.0247(4) 0.0011(2)
Zn5 Zn 0.62562(3) 0.23740(5) 0.95463(3)
O4 O 0.6954(2) 0.4535(4) 0.0012(2)
C2 C 0.7683(4) 0.7406(4) 0.0195(3)
H5 H 0.7276 0.7410 0.0568
H6 H 0.8307 0.7382 0.0356
N3 N 0.5308(2) 0.2157(4) 0.0344(3)
Zn1 Zn 0.87484(3) 0.75010(4) 0.87844(4)
O1 O 0.9716(3) 0.7511(2) 0.9571(3)
O2 O 0.7216(3) 0.2424(3) 0.8760(3)
H3 H 0.750(3) 0.142(3) 0.884(3)
H4 H 0.746(3) 0.347(3) 0.884(3)
O3 O 0.7918(2) 0.5513(5) 0.9254(2)
O5 O 0.7989(2) 0.9426(5) 0.9297(2)
O7 O 0.5442(2) 0.4350(4) 0.9088(2)
O8 O 0.4500(2) 0.5384(4) 0.8321(2)
O9 O 0.5441(2) 0.0449(4) 0.9033(2)
N1 N 0.7801(2) 0.7817(4) 0.7980(3)
N2 N 0.4692(2) 0.7843(4) 0.5344(3)
C1 C 0.7505(3) 0.5663(6) 0.9790(3)
C3 C 0.7534(3) 0.9173(6) 0.9801(3)
C4 C 0.5022(3) 0.4156(6) 0.8550(3)
C5 C 0.5165(5) 0.2478(4) 0.8150(4)
H7 H 0.4762 0.2517 0.7775
H8 H 0.5791 0.2459 0.7992
C6 C 0.4985(3) 0.0771(6) 0.8524(3)
C7 C 0.8048(2) 0.8469(5) 0.7414(2)
H9 H 0.8650 0.8857 0.7363
C8 C 0.7467(2) 0.8613(5) 0.6886(2)
H10 H 0.7677 0.9068 0.6491
C9 C 0.6561(2) 0.8065(5) 0.6957(2)
C10 C 0.6301(3) 0.7448(4) 0.7569(4)
H11 H 0.5697 0.7112 0.7647
C11 C 0.6934(4) 0.7337(5) 0.8055(4)
H12 H 0.6747 0.6903 0.8459
C12 C 0.5921(2) 0.8060(5) 0.6398(2)
C13 C 0.4996(2) 0.8461(5) 0.6475(2)
H13 H 0.4771 0.8809 0.6879
C14 C 0.4417(2) 0.8342(5) 0.5951(2)
H14 H 0.3802 0.8618 0.6014
C15 C 0.5602(3) 0.7499(4) 0.5271(4)
H15 H 0.5819 0.7184 0.4861
C16 C 0.6217(2) 0.7599(5) 0.5781(4)
H16 H 0.6833 0.7355 0.5708
Zn4 Zn 0.37484(3) 0.74990(4) 0.87844(4)
Zn6 Zn 0.37438(3) 0.76260(5) 0.45463(3)
O12 O 0.9500(2) 0.9616(4) 0.8321(2)
O13 O 0.9390(2) 0.5335(4) 0.8294(2)
O10 O 0.4390(2) 0.9665(4) 0.8294(2)
O10_2 O 0.5610(2) 0.0335(4) 0.3294(2)
Zn3 Zn 0.62516(3) 0.25010(4) 0.37844(4)
Zn1_2 Zn 0.12516(3) 0.24990(4) 0.37844(4)
O1_2 O 0.0284(3) 0.2489(2) 0.4571(3)
O2_2 O 0.2784(3) 0.7576(3) 0.3760(3)
H3_2 H 0.250(3) 0.858(3) 0.384(3)
H4_2 H 0.254(3) 0.653(3) 0.384(3)
O3_2 O 0.2082(2) 0.4487(5) 0.4254(2)
O4_2 O 0.3046(2) 0.5465(4) 0.5012(2)
O5_2 O 0.2011(2) 0.0574(5) 0.4297(2)
O7_2 O 0.4558(2) 0.5650(4) 0.4088(2)
O8_2 O 0.5500(2) 0.4616(4) 0.3321(2)
O9_2 O 0.4559(2) 0.9551(4) 0.4033(2)
N1_2 N 0.2199(2) 0.2183(4) 0.2980(3)
C1_2 C 0.2495(3) 0.4337(6) 0.4790(3)
C2_2 C 0.2317(4) 0.2594(4) 0.5195(3)
H5_2 H 0.2724 0.2590 0.5568
H6_2 H 0.1693 0.2618 0.5356
C3_2 C 0.2466(3) 0.0827(6) 0.4801(3)
C4_2 C 0.4978(3) 0.5844(6) 0.3550(3)
C5_2 C 0.4835(5) 0.7522(4) 0.3150(4)
H7_2 H 0.5238 0.7483 0.2775
H8_2 H 0.4209 0.7541 0.2992
C6_2 C 0.5015(3) 0.9229(6) 0.3524(3)
C7_2 C 0.1952(2) 0.1531(5) 0.2414(2)
H9_2 H 0.1350 0.1143 0.2363
C8_2 C 0.2533(2) 0.1387(5) 0.1886(2)
H10_2 H 0.2323 0.0932 0.1491
C9_2 C 0.3439(2) 0.1935(5) 0.1957(2)
C10_2 C 0.3699(3) 0.2552(4) 0.2569(4)
H11_2 H 0.4303 0.2888 0.2647
C11_2 C 0.3066(4) 0.2663(5) 0.3055(4)
H12_2 H 0.3253 0.3097 0.3459
C12_2 C 0.4079(2) 0.1940(5) 0.1398(2)
C13_2 C 0.5004(2) 0.1539(5) 0.1475(2)
H13_2 H 0.5229 0.1191 0.1879
C14_2 C 0.5583(2) 0.1658(5) 0.0951(2)
H14_2 H 0.6198 0.1382 0.1014
C15_2 C 0.4398(3) 0.2501(4) 0.0271(4)
C16_2 C 0.3783(2) 0.2401(5) 0.0781(4)
H16_2 H 0.3167 0.2645 0.0708
O11 O 0.3053(2) 0.9753(4) 0.5011(2)
O12_2 O 0.0500(2) 0.0384(4) 0.3321(2)
O13_2 O 0.0610(2) 0.4665(4) 0.3294(2)
H15_2 H 0.4181 0.2816 0.9861
O4_3 O 0.1954(2) 0.0465(4) 0.0012(2)
O11_2 O 0.1947(2) 0.4753(4) 0.0011(2)
N3_2 N 0.0308(2) 0.2843(4) 0.0344(3)
Zn2 Zn 0.12562(3) 0.26260(5) 0.95463(3)
O2_3 O 0.2216(3) 0.2576(3) 0.8760(3)
H3_3 H 0.250(3) 0.358(3) 0.884(3)
H4_3 H 0.246(3) 0.153(3) 0.884(3)
O7_3 O 0.0442(2) 0.0650(4) 0.9088(2)
O9_3 O 0.0441(2) 0.4551(4) 0.9033(2)
C4_3 C 0.0022(3) 0.0844(6) 0.8550(3)
C5_3 C 0.0165(5) 0.2522(4) 0.8150(4)
H8_3 H 0.0791 0.2541 0.7992
C2_3 C 0.2683(4) 0.7594(4) 0.0195(3)
H5_3 H 0.2276 0.7590 0.0568
H6_3 H 0.3307 0.7618 0.0356
O1_3 O 0.4716(3) 0.7489(2) 0.9571(3)
H1_2 H 0.503(2) 0.841(4) 0.943(2)
H2_2 H 0.507(2) 0.658(4) 0.947(3)
O3_3 O 0.2918(2) 0.9487(5) 0.9254(2)
O5_3 O 0.2989(2) 0.5574(5) 0.9297(2)
N1_3 N 0.2801(2) 0.7183(4) 0.7980(3)
C1_3 C 0.2505(3) 0.9337(6) 0.9790(3)
C3_3 C 0.2534(3) 0.5827(6) 0.9801(3)
C7_3 C 0.3048(2) 0.6531(5) 0.7414(2)
H9_3 H 0.3650 0.6143 0.7363
C8_3 C 0.2467(2) 0.6387(5) 0.6886(2)
H10_3 H 0.2677 0.5932 0.6491
C9_3 C 0.1561(2) 0.6935(5) 0.6957(2)
C10_3 C 0.1301(3) 0.7552(4) 0.7569(4)
H11_3 H 0.0697 0.7888 0.7647
C11_3 C 0.1934(4) 0.7663(5) 0.8055(4)
H12_3 H 0.1747 0.8097 0.8459
C12_3 C 0.0921(2) 0.6940(5) 0.6398(2)
C15_3 C 0.0602(3) 0.7501(4) 0.5271(4)
H15_3 H 0.0819 0.7816 0.4861
C16_3 C 0.1217(2) 0.7401(5) 0.5781(4)
H16_3 H 0.1833 0.7645 0.5708
H7_3 H 0.9762 0.2483 0.7775
C6_3 C 0.9985(3) 0.4229(6) 0.8524(3)
N2_2 N 0.9692(2) 0.7157(4) 0.5344(3)
C13_3 C 0.9996(2) 0.6539(5) 0.6475(2)
H13_3 H 0.9771 0.6191 0.6879
C14_3 C 0.9417(2) 0.6658(5) 0.5951(2)
H14_3 H 0.8802 0.6382 0.6014
Zn6_2 Zn 0.87438(3) 0.73740(5) 0.45463(3)
C13_4 C 0.0004(2) 0.3461(5) 0.1475(2)
H13_4 H 0.0229 0.3809 0.1879
C14_4 C 0.0583(2) 0.3342(5) 0.0951(2)
H14_4 H 0.1198 0.3618 0.1014
H7_4 H 0.0238 0.7517 0.2775
C6_4 C 0.0015(3) 0.5771(6) 0.3524(3)
O1_4 O 0.5284(3) 0.2511(2) 0.4571(3)
H1_3 H 0.497(2) 0.159(4) 0.443(2)
H2_3 H 0.493(2) 0.342(4) 0.447(3)
O3_4 O 0.7082(2) 0.0513(5) 0.4254(2)
O5_4 O 0.7011(2) 0.4426(5) 0.4297(2)
O6_2 O 0.8053(2) 0.5247(4) 0.5011(2)
N1_4 N 0.7199(2) 0.2817(4) 0.2980(3)
C1_4 C 0.7495(3) 0.0663(6) 0.4790(3)
C2_4 C 0.7317(4) 0.2406(4) 0.5195(3)
H5_4 H 0.7724 0.2410 0.5568
H6_4 H 0.6693 0.2382 0.5356
C3_4 C 0.7466(3) 0.4173(6) 0.4801(3)
C7_4 C 0.6952(2) 0.3469(5) 0.2414(2)
H9_4 H 0.6350 0.3857 0.2363
C8_4 C 0.7533(2) 0.3613(5) 0.1886(2)
H10_4 H 0.7323 0.4068 0.1491
C9_4 C 0.8439(2) 0.3065(5) 0.1957(2)
C10_4 C 0.8699(3) 0.2448(4) 0.2569(4)
H11_4 H 0.9303 0.2112 0.2647
C11_4 C 0.8066(4) 0.2337(5) 0.3055(4)
H12_4 H 0.8253 0.1903 0.3459
C12_4 C 0.9079(2) 0.3060(5) 0.1398(2)
C15_4 C 0.9398(3) 0.2499(4) 0.0271(4)
C16_4 C 0.8783(2) 0.2599(5) 0.0781(4)
H16_4 H 0.8167 0.2355 0.0708
O2_4 O 0.7784(3) 0.7424(3) 0.3760(3)
H3_4 H 0.750(3) 0.642(3) 0.384(3)
H4_4 H 0.754(3) 0.847(3) 0.384(3)
O4_4 O 0.8046(2) 0.9535(4) 0.5012(2)
O7_4 O 0.9558(2) 0.9350(4) 0.4088(2)
O9_4 O 0.9559(2) 0.5449(4) 0.4033(2)
C4_4 C 0.9978(3) 0.9156(6) 0.3550(3)
C5_4 C 0.9835(5) 0.7478(4) 0.3150(4)
H8_4 H 0.9209 0.7459 0.2992
H1_4 H 0.997(2) 0.341(4) 0.443(2)
H2_4 H 0.993(2) 0.158(4) 0.447(3)
H15_4 H 0.9181 0.2184 0.9861
loop_
_geom_bond_atom_site_label_1
_geom_bond_atom_site_label_2
_geom_bond_site_symmetry_1
_geom_bond_site_symmetry_2
H5 C2 1_555 1_555
H6 C2 1_555 1_555
Zn1 O1 1_555 1_555
Zn5 O2 1_555 1_555
O2 H3 1_555 1_555
H4 O2 1_555 1_555
O3 Zn1 1_555 1_555
O5 Zn1 1_555 1_555
O7 Zn5 1_555 1_555
O8 C4 1_555 1_555
O9 Zn5 1_555 1_555
N1 Zn1 1_555 1_555
N2 C14 1_555 1_555
C1 O3 1_555 1_555
C3 O5 1_555 1_555
C4 O7 1_555 1_555
C5 C4 1_555 1_555
H7 C5 1_555 1_555
H8 C5 1_555 1_555
C6 O9 1_555 1_555
C7 N1 1_555 1_555
H9 C7 1_555 1_555
C8 C7 1_555 1_555
H10 C8 1_555 1_555
C9 C8 1_555 1_555
C10 C9 1_555 1_555
H11 C10 1_555 1_555
C11 N1 1_555 1_555
H12 C11 1_555 1_555
C12 C9 1_555 1_555
C13 C12 1_555 1_555
H13 C13 1_555 1_555
C14 C13 1_555 1_555
H14 C14 1_555 1_555
C15 N2 1_555 1_555
H15 C15 1_555 1_555
C16 C12 1_555 1_555
H16 C16 1_555 1_555
Zn4 O8 1_555 1_555
Zn6 N2 1_555 1_555
O12 Zn1 1_555 1_555
O13 Zn1 1_555 1_555
C5 C6 1_555 1_555
C10 C11 1_555 1_555
C15 C16 1_555 1_555
Zn4 O10 1_555 1_555
Zn3 O10_2 1_555 1_555
Zn1_2 O1_2 1_555 1_555
Zn6 O2_2 1_555 1_555
O2_2 H3_2 1_555 1_555
H4_2 O2_2 1_555 1_555
O3_2 Zn1_2 1_555 1_555
O4_2 Zn6 1_555 1_555
O5_2 Zn1_2 1_555 1_555
O7_2 Zn6 1_555 1_555
O8_2 C4_2 1_555 1_555
O9_2 Zn6 1_555 1_555
N1_2 Zn1_2 1_555 1_555
N3 C14_2 1_555 1_555
C1_2 O3_2 1_555 1_555
C2_2 C1_2 1_555 1_555
H5_2 C2_2 1_555 1_555
H6_2 C2_2 1_555 1_555
C3_2 O5_2 1_555 1_555
C4_2 O7_2 1_555 1_555
C5_2 C4_2 1_555 1_555
H7_2 C5_2 1_555 1_555
H8_2 C5_2 1_555 1_555
C6_2 O9_2 1_555 1_555
C7_2 N1_2 1_555 1_555
H9_2 C7_2 1_555 1_555
C8_2 C7_2 1_555 1_555
H10_2 C8_2 1_555 1_555
C9_2 C8_2 1_555 1_555
C10_2 C9_2 1_555 1_555
H11_2 C10_2 1_555 1_555
C11_2 N1_2 1_555 1_555
H12_2 C11_2 1_555 1_555
C12_2 C9_2 1_555 1_555
C13_2 C12_2 1_555 1_555
H13_2 C13_2 1_555 1_555
C14_2 C13_2 1_555 1_555
H14_2 C14_2 1_555 1_555
C15_2 N3 1_555 1_555
C16_2 C12_2 1_555 1_555
H16_2 C16_2 1_555 1_555
Zn3 O8_2 1_555 1_555
O11 Zn6 1_555 1_555
O12_2 Zn1_2 1_555 1_555
O13_2 Zn1_2 1_555 1_555
O4_2 C1_2 1_555 1_555
C2_2 C3_2 1_555 1_555
C5_2 C6_2 1_555 1_555
C10_2 C11_2 1_555 1_555
C15_2 C16_2 1_555 1_555
Zn2 O2_3 1_555 1_555
O2_3 H3_3 1_555 1_555
H4_3 O2_3 1_555 1_555
O7_3 Zn2 1_555 1_555
O9_3 Zn2 1_555 1_555
C4_3 O7_3 1_555 1_555
C5_3 C4_3 1_555 1_555
H8_3 C5_3 1_555 1_555
H5_3 C2_3 1_555 1_555
H6_3 C2_3 1_555 1_555
Zn4 O1_3 1_555 1_555
O1_3 H1_2 1_555 1_555
H2_2 O1_3 1_555 1_555
O3_3 Zn4 1_555 1_555
O5_3 Zn4 1_555 1_555
N1_3 Zn4 1_555 1_555
C1_3 O3_3 1_555 1_555
C3_3 O5_3 1_555 1_555
C7_3 N1_3 1_555 1_555
H9_3 C7_3 1_555 1_555
C8_3 C7_3 1_555 1_555
H10_3 C8_3 1_555 1_555
C9_3 C8_3 1_555 1_555
C10_3 C9_3 1_555 1_555
H11_3 C10_3 1_555 1_555
C11_3 N1_3 1_555 1_555
H12_3 C11_3 1_555 1_555
C12_3 C9_3 1_555 1_555
H15_3 C15_3 1_555 1_555
C16_3 C12_3 1_555 1_555
H16_3 C16_3 1_555 1_555
C10_3 C11_3 1_555 1_555
C15_3 C16_3 1_555 1_555
O13 C6_3 1_555 1_555
N2_2 C14_3 1_555 1_555
H13_3 C13_3 1_555 1_555
C14_3 C13_3 1_555 1_555
H14_3 C14_3 1_555 1_555
Zn6_2 N2_2 1_555 1_555
N3_2 C14_4 1_555 1_555
H13_4 C13_4 1_555 1_555
C14_4 C13_4 1_555 1_555
H14_4 C14_4 1_555 1_555
O13_2 C6_4 1_555 1_555
Zn3 O1_4 1_555 1_555
O1_4 H1_3 1_555 1_555
H2_3 O1_4 1_555 1_555
O3_4 Zn3 1_555 1_555
O5_4 Zn3 1_555 1_555
O6_2 C3_4 1_555 1_555
N1_4 Zn3 1_555 1_555
C1_4 O3_4 1_555 1_555
C2_4 C1_4 1_555 1_555
H5_4 C2_4 1_555 1_555
H6_4 C2_4 1_555 1_555
C3_4 O5_4 1_555 1_555
C7_4 N1_4 1_555 1_555
H9_4 C7_4 1_555 1_555
C8_4 C7_4 1_555 1_555
H10_4 C8_4 1_555 1_555
C9_4 C8_4 1_555 1_555
C10_4 C9_4 1_555 1_555
H11_4 C10_4 1_555 1_555
C11_4 N1_4 1_555 1_555
H12_4 C11_4 1_555 1_555
C12_4 C9_4 1_555 1_555
C16_4 C12_4 1_555 1_555
H16_4 C16_4 1_555 1_555
Zn6_2 O6_2 1_555 1_555
C2_4 C3_4 1_555 1_555
C10_4 C11_4 1_555 1_555
C15_4 C16_4 1_555 1_555
Zn6_2 O2_4 1_555 1_555
O2_4 H3_4 1_555 1_555
H4_4 O2_4 1_555 1_555
O4_4 Zn6_2 1_555 1_555
O7_4 Zn6_2 1_555 1_555
O9_4 Zn6_2 1_555 1_555
C4_4 O7_4 1_555 1_555
C5_4 C4_4 1_555 1_555
H8_4 C5_4 1_555 1_555

#END
