
###############################################################################
#
# This file contains modified crystal structure data generated from the
# MOF subset of the Cambridge Structural Database (CSD) v543 
# hosted by the Cambridge Crystallographic Data Centre (CCDC).
#
# This work is licensed under the Creative Commons
# Attribution-NonCommercial-ShareAlike 4.0 International License.
# To view a copy of this license, visit
# http://creativecommons.org/licenses/by-nc-sa/4.0/
# or send a letter to
# Creative Commons, PO Box 1866, Mountain View, CA 94042, USA.
#
# CIF created using the CSD Python API on 29 September 2022
# The structure has been converted into the P1 space group
# The structure has a 3D framework
# The original CSD entry KEXPOU is in the monoclinic crystal system
# The framework has been calculated to contain at least 10.0% void space
# The void calculation uses a probe of radius 1.32A, grid spacing 0.4
#
###############################################################################

data_KEXPOU
_chemical_formula_moiety         '(C36 H40 N4 O20 Zn4)n'
_symmetry_cell_setting           triclinic
_symmetry_space_group_name_H-M   'P 1'
_symmetry_Int_Tables_number      1
_space_group_name_Hall           'P 1'
loop_
_symmetry_equiv_pos_site_id
_symmetry_equiv_pos_as_xyz
1 x,y,z
_cell_length_a                   7.2490(14)
_cell_length_b                   23.930(5)
_cell_length_c                   7.4190(15)
_cell_angle_alpha                90
_cell_angle_beta                 90.37(3)
_cell_angle_gamma                90
_cell_volume                     1286.94
loop_
_atom_site_label
_atom_site_type_symbol
_atom_site_fract_x
_atom_site_fract_y
_atom_site_fract_z
Zn6 Zn 0.07144(4) 0.281956(11) 0.07705(4)
Zn1 Zn 0.57144(4) 0.218044(11) 0.57705(4)
O1 O 0.3745(2) 0.26020(7) 0.4180(2)
O2 O 0.2877(2) 0.32326(7) 0.2142(2)
O3 O 0.7696(2) 0.26025(7) 0.4171(2)
O4 O 0.8541(2) 0.32407(7) 0.2140(2)
O5 O 0.5706(3) 0.28327(7) 0.7687(2)
H1 H 0.478(3) 0.2760(12) 0.829(4)
H2 H 0.664(5) 0.2742(13) 0.830(5)
N1 N 0.5760(3) 0.14970(9) 0.3938(3)
C1 C 0.3985(3) 0.30489(10) 0.3314(3)
C2 C 0.5716(3) 0.33919(10) 0.3692(3)
H3 H 0.5729 0.3510 0.4971
H4 H 0.5702 0.3732 0.2933
C3 C 0.7452(3) 0.30536(10) 0.3298(3)
C4 C 0.6046(4) 0.05150(12) 0.3417(4)
H5 H 0.6199 0.0151 0.3911
C5 C 0.5972(4) 0.09729(11) 0.4542(4)
H6 H 0.6077 0.0914 0.5805
C6 C 0.5626(4) 0.15667(12) 0.2146(3)
H7 H 0.5483 0.1935 0.1691
C7 C 0.5686(4) 0.11300(13) 0.0928(4)
C8 C 0.5898(4) 0.05847(12) 0.1556(4)
C9 C 0.5949(4) 0.00958(14) 0.0277(5)
O12 O 0.7877(2) 0.17674(7) 0.7142(2)
O14 O 0.3541(2) 0.17593(7) 0.7140(2)
N2 N 0.4240(3) 0.85030(9) 0.6062(3)
C10 C 0.3954(4) 0.94850(12) 0.6583(4)
H11 H 0.3801 0.9849 0.6089
C11 C 0.4028(4) 0.90271(11) 0.5458(4)
H12 H 0.3923 0.9086 0.4195
C12 C 0.4374(4) 0.84333(12) 0.7854(3)
H13 H 0.4517 0.8065 0.8309
C13 C 0.4314(4) 0.88700(13) 0.9072(4)
C14 C 0.4102(4) 0.94153(12) 0.8444(4)
C15 C 0.4051(4) 0.99042(14) 0.9723(5)
Zn2 Zn 0.42856(4) 0.781956(11) 0.42295(4)
O6 O 0.6255(2) 0.73980(7) 0.5820(2)
O7 O 0.7123(2) 0.67674(7) 0.7858(2)
O8 O 0.2304(2) 0.73975(7) 0.5829(2)
O9 O 0.1459(2) 0.67593(7) 0.7860(2)
O10 O 0.4294(3) 0.71673(7) 0.2313(2)
H17 H 0.522(3) 0.7240(12) 0.171(4)
H18 H 0.336(5) 0.7258(13) 0.170(5)
C16 C 0.6015(3) 0.69511(10) 0.6686(3)
C17 C 0.4284(3) 0.66081(10) 0.6308(3)
H19 H 0.4271 0.6490 0.5029
H20 H 0.4298 0.6268 0.7067
C18 C 0.2548(3) 0.69464(10) 0.6702(3)
Zn4 Zn 0.92856(4) 0.718044(11) 0.92295(4)
O11 O 0.2123(2) 0.82326(7) 0.2858(2)
O13 O 0.6459(2) 0.82407(7) 0.2860(2)
H12_2 H 0.1077 0.4086 0.0805
O10_2 O 0.0706(3) 0.21673(7) 0.2687(2)
H18_2 H 0.164(5) 0.2258(13) 0.330(5)
O1_2 O 0.1255(2) 0.76020(7) 0.0820(2)
C1_2 C 0.1015(3) 0.80489(10) 0.1686(3)
N2_2 N 0.0760(3) 0.35030(9) 0.8938(3)
C10_2 C 0.1046(4) 0.44850(12) 0.8417(4)
H11_2 H 0.1199 0.4849 0.8911
C11_2 C 0.0972(4) 0.40271(11) 0.9542(4)
C12_2 C 0.0626(4) 0.34333(12) 0.7146(3)
H13_2 H 0.0483 0.3065 0.6691
C13_2 C 0.0686(4) 0.38700(13) 0.5928(4)
H14 H 0.0584 0.3799 0.4671
C14_2 C 0.0898(4) 0.44153(12) 0.6556(4)
C15_2 C 0.0949(4) 0.49042(14) 0.5277(5)
H15 H 0.1647 0.4797 0.4188
H16 H 0.1610 0.5218 0.5862
O8_2 O 0.2696(2) 0.23975(7) 0.9171(2)
C17_2 C 0.0716(3) 0.16081(10) 0.8692(3)
H19_2 H 0.0729 0.1490 0.9971
H20_2 H 0.0702 0.1268 0.7933
C18_2 C 0.2452(3) 0.19464(10) 0.8298(3)
H1_2 H 0.022(3) 0.7760(12) 0.671(4)
H17_2 H 0.978(3) 0.2240(12) 0.329(4)
O3_2 O 0.7304(2) 0.76025(7) 0.0829(2)
N1_2 N 0.9240(3) 0.64970(9) 0.1062(3)
C2_2 C 0.9284(3) 0.83919(10) 0.1308(3)
H3_2 H 0.9271 0.8510 0.0029
H4_2 H 0.9298 0.8732 0.2067
C3_2 C 0.7548(3) 0.80536(10) 0.1702(3)
C4_2 C 0.8954(4) 0.55150(12) 0.1583(4)
H5_2 H 0.8801 0.5151 0.1089
C5_2 C 0.9028(4) 0.59729(11) 0.0458(4)
C6_2 C 0.9374(4) 0.65667(12) 0.2854(3)
H7_2 H 0.9517 0.6935 0.3309
C7_2 C 0.9314(4) 0.61300(13) 0.4072(4)
H8 H 0.9416 0.6201 0.5329
C8_2 C 0.9102(4) 0.55847(12) 0.3444(4)
C9_2 C 0.9051(4) 0.50958(14) 0.4723(5)
H9 H 0.8353 0.5203 0.5812
H10 H 0.8390 0.4782 0.4138
O6_2 O 0.8745(2) 0.23980(7) 0.9180(2)
C16_2 C 0.8985(3) 0.19511(10) 0.8314(3)
O5_2 O 0.9294(3) 0.78327(7) 0.7313(2)
H2_2 H 0.836(5) 0.7742(13) 0.670(5)
H6_2 H 0.8923 0.5914 0.9195
H8_2 H 0.5584 0.1201 0.9671
H9_2 H 0.6647 0.0203 0.9188
H16_2 H 0.3390 0.0218 0.9138
H10_2 H 0.6610 0.9782 0.0862
H14_2 H 0.4416 0.8799 0.0329
H15_2 H 0.3353 0.9797 0.0812
loop_
_geom_bond_atom_site_label_1
_geom_bond_atom_site_label_2
_geom_bond_site_symmetry_1
_geom_bond_site_symmetry_2
Zn1 O1 1_555 1_555
O1 C1 1_555 1_555
O2 C1 1_555 1_555
O3 Zn1 1_555 1_555
O4 C3 1_555 1_555
O5 Zn1 1_555 1_555
H1 O5 1_555 1_555
H2 O5 1_555 1_555
N1 Zn1 1_555 1_555
C1 C2 1_555 1_555
C2 H3 1_555 1_555
H4 C2 1_555 1_555
C3 O3 1_555 1_555
C4 H5 1_555 1_555
C5 N1 1_555 1_555
H6 C5 1_555 1_555
C6 N1 1_555 1_555
H7 C6 1_555 1_555
C7 C6 1_555 1_555
C8 C4 1_555 1_555
C9 C8 1_555 1_555
Zn6 O2 1_555 1_555
O12 Zn1 1_555 1_555
O14 Zn1 1_555 1_555
C2 C3 1_555 1_555
C4 C5 1_555 1_555
C7 C8 1_555 1_555
N2 C11 1_555 1_555
C10 H11 1_555 1_555
C11 C10 1_555 1_555
H12 C11 1_555 1_555
C12 N2 1_555 1_555
H13 C12 1_555 1_555
C13 C12 1_555 1_555
C14 C10 1_555 1_555
Zn2 N2 1_555 1_555
O6 Zn2 1_555 1_555
O7 C16 1_555 1_555
O8 Zn2 1_555 1_555
O9 C18 1_555 1_555
O10 Zn2 1_555 1_555
H17 O10 1_555 1_555
H18 O10 1_555 1_555
C16 O6 1_555 1_555
C17 C16 1_555 1_555
H19 C17 1_555 1_555
H20 C17 1_555 1_555
C18 O8 1_555 1_555
Zn4 O7 1_555 1_555
O11 Zn2 1_555 1_555
O13 Zn2 1_555 1_555
C13 C14 1_555 1_555
C14 C15 1_555 1_555
C17 C18 1_555 1_555
O10_2 Zn6 1_555 1_555
H18_2 O10_2 1_555 1_555
O1_2 C1_2 1_555 1_555
O11 C1_2 1_555 1_555
N2_2 C11_2 1_555 1_555
C10_2 H11_2 1_555 1_555
C11_2 C10_2 1_555 1_555
C12_2 N2_2 1_555 1_555
H13_2 C12_2 1_555 1_555
C13_2 C12_2 1_555 1_555
H14 C13_2 1_555 1_555
C14_2 C10_2 1_555 1_555
H15 C15_2 1_555 1_555
H16 C15_2 1_555 1_555
O14 C18_2 1_555 1_555
H19_2 C17_2 1_555 1_555
H20_2 C17_2 1_555 1_555
C18_2 O8_2 1_555 1_555
C13_2 C14_2 1_555 1_555
C14_2 C15_2 1_555 1_555
C17_2 C18_2 1_555 1_555
O13 C3_2 1_555 1_555
C2_2 H3_2 1_555 1_555
H4_2 C2_2 1_555 1_555
C3_2 O3_2 1_555 1_555
C4_2 H5_2 1_555 1_555
C5_2 N1_2 1_555 1_555
C6_2 N1_2 1_555 1_555
H7_2 C6_2 1_555 1_555
C7_2 C6_2 1_555 1_555
H8 C7_2 1_555 1_555
C8_2 C4_2 1_555 1_555
C9_2 C8_2 1_555 1_555
H9 C9_2 1_555 1_555
H10 C9_2 1_555 1_555
O12 C16_2 1_555 1_555
C16_2 O6_2 1_555 1_555
C2_2 C3_2 1_555 1_555
C4_2 C5_2 1_555 1_555
C7_2 C8_2 1_555 1_555
O5_2 Zn4 1_555 1_555
H2_2 O5_2 1_555 1_555

#END
