
###############################################################################
#
# This file contains modified crystal structure data generated from the
# MOF subset of the Cambridge Structural Database (CSD) v543 
# hosted by the Cambridge Crystallographic Data Centre (CCDC).
#
# This work is licensed under the Creative Commons
# Attribution-NonCommercial-ShareAlike 4.0 International License.
# To view a copy of this license, visit
# http://creativecommons.org/licenses/by-nc-sa/4.0/
# or send a letter to
# Creative Commons, PO Box 1866, Mountain View, CA 94042, USA.
#
# CIF created using the CSD Python API on 29 September 2022
# The structure has been converted into the P1 space group
# The structure has a 3D framework
# The original CSD entry KIBXUP is in the monoclinic crystal system
# The framework has been calculated to contain at least 10.0% void space
# The void calculation uses a probe of radius 1.32A, grid spacing 0.4
# The framework is charged, counterions have been retained in the structure
#
###############################################################################

data_KIBXUP
_chemical_formula_moiety         '(C68 H68 Ag2 Cl4 N8 O16 S8 2-)n'
_symmetry_cell_setting           triclinic
_symmetry_space_group_name_H-M   'P 1'
_symmetry_Int_Tables_number      1
_space_group_name_Hall           'P 1'
loop_
_symmetry_equiv_pos_site_id
_symmetry_equiv_pos_as_xyz
1 x,y,z
_cell_length_a                   14.085(2)
_cell_length_b                   16.293(2)
_cell_length_c                   12.489(1)
_cell_angle_alpha                90
_cell_angle_beta                 112.425(1)
_cell_angle_gamma                90
_cell_volume                     2649.33
loop_
_atom_site_label
_atom_site_type_symbol
_atom_site_fract_x
_atom_site_fract_y
_atom_site_fract_z
C9 C 0.5323(3) 0.0220(3) 0.2990(4)
H8 H 0.5103 0.0557 0.2340
C10 C 0.6081(3) 0.0491(3) 0.4024(4)
H9 H 0.6347 0.1016 0.4049
N1 N 0.6444(2) 0.0030(2) 0.4981(3)
Ag1 Ag 0.77053(2) 0.03692(2) 0.66816(2)
S4 S 0.70983(7) 0.02746(6) 0.83765(8)
S7 S 0.93411(7) 0.11888(5) 0.71149(7)
C3 C 0.0679(3) 0.0293(2) 0.9547(3)
H1 H 0.1141 0.0491 0.9240
H27 H 0.0191 0.1857 0.8895
C32 C 0.0481(4) 0.3992(3) 0.8027(4)
H32 H 0.0398 0.4382 0.8529
C33 C 0.0709(3) 0.2834(2) 0.6577(4)
H33 H 0.0816 0.2445 0.6090
C34 C 0.1431(3) 0.3457(2) 0.7064(4)
H34 H 0.2012 0.3473 0.6880
N4 N 0.1328(3) 0.4028(2) 0.7779(3)
Ag6 Ag 0.22947(2) 0.53692(2) 0.83184(2)
C18 C 0.9077(3) 0.0432(2) 0.9803(3)
C19 C 0.9774(3) 0.0732(2) 0.9338(3)
C21 C 0.8046(3) 0.0825(2) 0.9593(3)
H19 H 0.8057 0.1402 0.9407
C22 C 0.5937(3) 0.0867(3) 0.8155(3)
H21 H 0.5735 0.0797 0.8810
H22 H 0.6060 0.1445 0.8080
C23 C 0.5098(3) 0.0554(2) 0.7058(3)
C24 C 0.4743(3) 0.1023(3) 0.6061(4)
H23 H 0.5014 0.1543 0.6054
C25 C 0.3979(3) 0.0716(3) 0.5072(4)
H24 H 0.3747 0.1042 0.4411
C28 C 0.9592(3) 0.1504(2) 0.8608(3)
H28 H 0.9008 0.1804 0.8639
C29 C 0.9014(3) 0.2166(2) 0.6321(3)
H29 H 0.8918 0.2072 0.5520
H30 H 0.8370 0.2367 0.6334
C30 C 0.9830(3) 0.2805(2) 0.6829(3)
C31 C 0.9722(3) 0.3401(2) 0.7571(4)
H31 H 0.9146 0.3403 0.7762
N6 N 0.1328(3) 0.0972(2) 0.2779(3)
H10 H 0.0191 0.3143 0.3895
C15 C 0.0481(4) 0.1008(3) 0.3027(4)
H15 H 0.0398 0.0618 0.3529
C16 C 0.0709(3) 0.2166(2) 0.1577(4)
H16 H 0.0816 0.2555 0.1090
C17 C 0.1431(3) 0.1543(2) 0.2064(4)
H17 H 0.2012 0.1527 0.1880
C18_2 C 0.0923(3) 0.5432(2) 0.5197(3)
C19_2 C 0.0226(3) 0.5732(2) 0.5662(3)
C20 C 0.0679(3) 0.4707(2) 0.4547(3)
H18 H 0.1141 0.4509 0.4240
C21_2 C 0.1954(3) 0.5825(2) 0.5407(3)
H19_2 H 0.1943 0.6402 0.5593
H20 H 0.2118 0.5778 0.4722
C22_2 C 0.4063(3) 0.5867(3) 0.6845(3)
H21_2 H 0.4265 0.5797 0.6190
H22_2 H 0.3940 0.6445 0.6920
C23_2 C 0.4902(3) 0.5554(2) 0.7942(3)
C24_2 C 0.5257(3) 0.6023(3) 0.8939(4)
H23_2 H 0.4986 0.6543 0.8946
C25_2 C 0.6021(3) 0.5716(3) 0.9928(4)
C26 C 0.5323(3) 0.4780(3) 0.7990(4)
H25 H 0.5103 0.4443 0.7340
C27 C 0.6081(3) 0.4509(3) 0.9024(4)
H26 H 0.6347 0.3984 0.9049
C28_2 C 0.0408(3) 0.6504(2) 0.6392(3)
H28_2 H 0.0992 0.6804 0.6361
C29_2 C 0.0986(3) 0.7166(2) 0.8679(3)
H29_2 H 0.1082 0.7072 0.9480
H30_2 H 0.1630 0.7367 0.8666
C30_2 C 0.0170(3) 0.7805(2) 0.8171(3)
C31_2 C 0.0278(3) 0.8401(2) 0.7429(4)
H31_2 H 0.0854 0.8403 0.7238
N3 N 0.6444(2) 0.4970(2) 0.9981(3)
S3 S 0.29017(7) 0.52746(6) 0.66235(8)
S6 S 0.06589(7) 0.61888(5) 0.78851(7)
H7 H 0.3747 0.3958 0.9411
C1 C 0.0923(3) 0.9568(2) 0.0197(3)
C2 C 0.0226(3) 0.9268(2) 0.0662(3)
C4 C 0.1954(3) 0.9175(2) 0.0407(3)
H2 H 0.1943 0.8598 0.0593
C5 C 0.4063(3) 0.9133(3) 0.1845(3)
H4 H 0.4265 0.9203 0.1190
H5 H 0.3940 0.8555 0.1920
C6 C 0.4902(3) 0.9446(2) 0.2942(3)
C7 C 0.5257(3) 0.8977(3) 0.3939(4)
H6 H 0.4986 0.8457 0.3946
C8 C 0.6021(3) 0.9284(3) 0.4928(4)
H7_2 H 0.6253 0.8958 0.5589
C11 C 0.0408(3) 0.8496(2) 0.1392(3)
H11 H 0.0992 0.8196 0.1361
C12 C 0.0986(3) 0.7834(2) 0.3679(3)
H12 H 0.1082 0.7928 0.4480
H13 H 0.1630 0.7633 0.3666
C13 C 0.0170(3) 0.7195(2) 0.3171(3)
C14 C 0.0278(3) 0.6599(2) 0.2429(4)
H14 H 0.0854 0.6597 0.2238
S1 S 0.29017(7) 0.97254(6) 0.16235(8)
S2 S 0.06589(7) 0.88112(5) 0.28851(7)
N5 N 0.8672(3) 0.9028(2) 0.7221(3)
Ag4 Ag 0.22947(2) 0.96308(2) 0.33184(2)
H10_2 H 0.9809 0.8143 0.1105
C15_2 C 0.9519(4) 0.6008(3) 0.1973(4)
H15_2 H 0.9602 0.5618 0.1471
C16_2 C 0.9291(3) 0.7166(2) 0.3423(4)
H16_2 H 0.9184 0.7555 0.3910
C17_2 C 0.8569(3) 0.6543(2) 0.2936(4)
H17_2 H 0.7988 0.6527 0.3120
N2 N 0.8672(3) 0.5972(2) 0.2221(3)
C20_2 C 0.9321(3) 0.9707(2) 0.0453(3)
H18_2 H 0.8859 0.9509 0.0760
Ag3 Ag 0.77053(2) 0.46308(2) 0.16816(2)
C26_2 C 0.4677(3) 0.9780(3) 0.7010(4)
H25_2 H 0.4897 0.9443 0.7660
C27_2 C 0.3919(3) 0.9509(3) 0.5976(4)
H26_2 H 0.3653 0.8984 0.5951
N3_2 N 0.3556(2) 0.9970(2) 0.5019(3)
H24_2 H 0.6253 0.6042 0.0589
S5 S 0.70983(7) 0.47254(6) 0.33765(8)
S8 S 0.93411(7) 0.38112(5) 0.21149(7)
C1_2 C 0.9077(3) 0.4568(2) 0.4803(3)
C2_2 C 0.9774(3) 0.4268(2) 0.4338(3)
C3_2 C 0.9321(3) 0.5293(2) 0.5453(3)
H1_2 H 0.8859 0.5491 0.5760
C4_2 C 0.8046(3) 0.4175(2) 0.4593(3)
H2_2 H 0.8057 0.3598 0.4407
H3 H 0.7882 0.4222 0.5278
C5_2 C 0.5937(3) 0.4133(3) 0.3155(3)
H4_2 H 0.5735 0.4203 0.3810
H5_2 H 0.6060 0.3555 0.3080
C6_2 C 0.5098(3) 0.4446(2) 0.2058(3)
C7_2 C 0.4743(3) 0.3977(3) 0.1061(4)
H6_2 H 0.5014 0.3457 0.1054
C8_2 C 0.3979(3) 0.4284(3) 0.0072(4)
C9_2 C 0.4677(3) 0.5220(3) 0.2010(4)
H8_2 H 0.4897 0.5557 0.2660
C10_2 C 0.3919(3) 0.5491(3) 0.0976(4)
H9_2 H 0.3653 0.6016 0.0951
C11_2 C 0.9592(3) 0.3496(2) 0.3608(3)
H11_2 H 0.9008 0.3196 0.3639
C12_2 C 0.9014(3) 0.2834(2) 0.1321(3)
H12_2 H 0.8918 0.2928 0.0520
H13_2 H 0.8370 0.2633 0.1334
C13_2 C 0.9830(3) 0.2195(2) 0.1829(3)
C14_2 C 0.9722(3) 0.1599(2) 0.2571(4)
H14_2 H 0.9146 0.1597 0.2762
N1_2 N 0.3556(2) 0.5030(2) 0.0019(3)
H27_2 H 0.9809 0.6857 0.6105
C32_2 C 0.9519(4) 0.8992(3) 0.6973(4)
H32_2 H 0.9602 0.9382 0.6471
C33_2 C 0.9291(3) 0.7834(2) 0.8423(4)
H33_2 H 0.9184 0.7445 0.8910
C34_2 C 0.8569(3) 0.8457(2) 0.7936(4)
H34_2 H 0.7988 0.8473 0.8120
H3_2 H 0.2118 0.9222 0.9722
H20_2 H 0.7882 0.0778 0.0278
O1 O 0.7392(4) 0.2303(4) 0.2820(6)
O2 O 0.6866(4) 0.1188(3) 0.1650(5)
O3 O 0.5652(3) 0.2006(2) 0.2034(3)
O4 O 0.6514(5) 0.2493(6) 0.0890(8)
Cl1 Cl 0.66105(9) 0.19973(8) 0.18564(12)
O1_2 O 0.2608(4) 0.7303(4) 0.2180(6)
O2_2 O 0.3134(4) 0.6188(3) 0.3350(5)
O3_2 O 0.4348(3) 0.7006(2) 0.2966(3)
O4_2 O 0.3486(5) 0.7493(6) 0.4110(8)
Cl1_2 Cl 0.33895(9) 0.69973(8) 0.31436(12)
O1_3 O 0.2608(4) 0.7697(4) 0.7180(6)
O2_3 O 0.3134(4) 0.8812(3) 0.8350(5)
O3_3 O 0.4348(3) 0.7994(2) 0.7966(3)
O4_3 O 0.3486(5) 0.7507(6) 0.9110(8)
Cl1_3 Cl 0.33895(9) 0.80027(8) 0.81436(12)
O1_4 O 0.7392(4) 0.2697(4) 0.7820(6)
O2_4 O 0.6866(4) 0.3812(3) 0.6650(5)
O3_4 O 0.5652(3) 0.2994(2) 0.7034(3)
O4_4 O 0.6514(5) 0.2507(6) 0.5890(8)
Cl1_4 Cl 0.66105(9) 0.30027(8) 0.68564(12)
loop_
_geom_bond_atom_site_label_1
_geom_bond_atom_site_label_2
_geom_bond_site_symmetry_1
_geom_bond_site_symmetry_2
H8 C9 1_555 1_555
C10 C9 1_555 1_555
H9 C10 1_555 1_555
Ag1 N1 1_555 1_555
S4 Ag1 1_555 1_555
S7 Ag1 1_555 1_555
C10 N1 1_555 1_555
H1 C3 1_555 1_555
H32 C32 1_555 1_555
H33 C33 1_555 1_555
C34 C33 1_555 1_555
H34 C34 1_555 1_555
N4 C32 1_555 1_555
Ag6 N4 1_555 1_555
C34 N4 1_555 1_555
C18 C19 1_555 1_555
C21 C18 1_555 1_555
H19 C21 1_555 1_555
C22 H21 1_555 1_555
H22 C22 1_555 1_555
C23 C22 1_555 1_555
C24 C23 1_555 1_555
H23 C24 1_555 1_555
C25 C24 1_555 1_555
H24 C25 1_555 1_555
C28 C19 1_555 1_555
H28 C28 1_555 1_555
C29 H29 1_555 1_555
H30 C29 1_555 1_555
C30 C29 1_555 1_555
C31 C30 1_555 1_555
H31 C31 1_555 1_555
S4 C21 1_555 1_555
S7 C28 1_555 1_555
C22 S4 1_555 1_555
C29 S7 1_555 1_555
H15 C15 1_555 1_555
H16 C16 1_555 1_555
C17 C16 1_555 1_555
H17 C17 1_555 1_555
N6 C15 1_555 1_555
C18_2 C19_2 1_555 1_555
H18 C20 1_555 1_555
C21_2 C18_2 1_555 1_555
H19_2 C21_2 1_555 1_555
H20 C21_2 1_555 1_555
C22_2 H21_2 1_555 1_555
H22_2 C22_2 1_555 1_555
C23_2 C22_2 1_555 1_555
C24_2 C23_2 1_555 1_555
H23_2 C24_2 1_555 1_555
C25_2 C24_2 1_555 1_555
C26 C23_2 1_555 1_555
H25 C26 1_555 1_555
C27 C26 1_555 1_555
H26 C27 1_555 1_555
C28_2 C19_2 1_555 1_555
H28_2 C28_2 1_555 1_555
C29_2 H29_2 1_555 1_555
H30_2 C29_2 1_555 1_555
C30_2 C29_2 1_555 1_555
C31_2 C30_2 1_555 1_555
H31_2 C31_2 1_555 1_555
N3 C25_2 1_555 1_555
S3 C21_2 1_555 1_555
S6 C28_2 1_555 1_555
Ag6 S3 1_555 1_555
C17 N6 1_555 1_555
C18_2 C20 1_555 1_555
C22_2 S3 1_555 1_555
C27 N3 1_555 1_555
C29_2 S6 1_555 1_555
S6 Ag6 1_555 1_555
C1 C2 1_555 1_555
C2 C11 1_555 1_555
C4 C1 1_555 1_555
H2 C4 1_555 1_555
C5 H4 1_555 1_555
H5 C5 1_555 1_555
C6 C5 1_555 1_555
C7 C6 1_555 1_555
H6 C7 1_555 1_555
C8 C7 1_555 1_555
H7_2 C8 1_555 1_555
H11 C11 1_555 1_555
C12 H12 1_555 1_555
H13 C12 1_555 1_555
C13 C12 1_555 1_555
C14 C13 1_555 1_555
H14 C14 1_555 1_555
S1 C4 1_555 1_555
S2 C11 1_555 1_555
Ag4 S1 1_555 1_555
C5 S1 1_555 1_555
C12 S2 1_555 1_555
S2 Ag4 1_555 1_555
H15_2 C15_2 1_555 1_555
H16_2 C16_2 1_555 1_555
C17_2 C16_2 1_555 1_555
H17_2 C17_2 1_555 1_555
N2 C15_2 1_555 1_555
H18_2 C20_2 1_555 1_555
Ag3 N2 1_555 1_555
C17_2 N2 1_555 1_555
H25_2 C26_2 1_555 1_555
C27_2 C26_2 1_555 1_555
H26_2 C27_2 1_555 1_555
Ag4 N3_2 1_555 1_555
C27_2 N3_2 1_555 1_555
S5 Ag3 1_555 1_555
S8 Ag3 1_555 1_555
C1_2 C2_2 1_555 1_555
C2_2 C11_2 1_555 1_555
C3_2 C1_2 1_555 1_555
H1_2 C3_2 1_555 1_555
C4_2 C1_2 1_555 1_555
H2_2 C4_2 1_555 1_555
H3 C4_2 1_555 1_555
C5_2 H4_2 1_555 1_555
H5_2 C5_2 1_555 1_555
C6_2 C5_2 1_555 1_555
C7_2 C6_2 1_555 1_555
H6_2 C7_2 1_555 1_555
C8_2 C7_2 1_555 1_555
C9_2 C6_2 1_555 1_555
H8_2 C9_2 1_555 1_555
C10_2 C9_2 1_555 1_555
H9_2 C10_2 1_555 1_555
H11_2 C11_2 1_555 1_555
C12_2 H12_2 1_555 1_555
H13_2 C12_2 1_555 1_555
C13_2 C12_2 1_555 1_555
C14_2 C13_2 1_555 1_555
H14_2 C14_2 1_555 1_555
N1_2 C8_2 1_555 1_555
S5 C4_2 1_555 1_555
S8 C11_2 1_555 1_555
H32_2 C32_2 1_555 1_555
H33_2 C33_2 1_555 1_555
C34_2 C33_2 1_555 1_555
H34_2 C34_2 1_555 1_555
N5 C32_2 1_555 1_555
C5_2 S5 1_555 1_555
C10_2 N1_2 1_555 1_555
C12_2 S8 1_555 1_555
C34_2 N5 1_555 1_555
O1 Cl1 1_555 1_555
O2 Cl1 1_555 1_555
O3 Cl1 1_555 1_555
O4 Cl1 1_555 1_555
O1_2 Cl1_2 1_555 1_555
O2_2 Cl1_2 1_555 1_555
O3_2 Cl1_2 1_555 1_555
O4_2 Cl1_2 1_555 1_555
O1_3 Cl1_3 1_555 1_555
O2_3 Cl1_3 1_555 1_555
O3_3 Cl1_3 1_555 1_555
O4_3 Cl1_3 1_555 1_555
O1_4 Cl1_4 1_555 1_555
O2_4 Cl1_4 1_555 1_555
O3_4 Cl1_4 1_555 1_555
O4_4 Cl1_4 1_555 1_555

#END
