
###############################################################################
#
# This file contains modified crystal structure data generated from the
# MOF subset of the Cambridge Structural Database (CSD) v543 
# hosted by the Cambridge Crystallographic Data Centre (CCDC).
#
# This work is licensed under the Creative Commons
# Attribution-NonCommercial-ShareAlike 4.0 International License.
# To view a copy of this license, visit
# http://creativecommons.org/licenses/by-nc-sa/4.0/
# or send a letter to
# Creative Commons, PO Box 1866, Mountain View, CA 94042, USA.
#
# CIF created using the CSD Python API on 29 September 2022
# The structure has been converted into the P1 space group
# The structure has a 3D framework
# The original CSD entry KIDXIH is in the triclinic crystal system
# The framework has been calculated to contain at least 10.0% void space
# The void calculation uses a probe of radius 1.32A, grid spacing 0.4
# H atom positions have been added when not included in the experimental data
#
###############################################################################

data_KIDXIH
_chemical_formula_moiety         '(C54 H48 Li4 N4 O18 Zn2)n'
_symmetry_cell_setting           triclinic
_symmetry_space_group_name_H-M   'P 1'
_symmetry_Int_Tables_number      1
_space_group_name_Hall           'P 1'
loop_
_symmetry_equiv_pos_site_id
_symmetry_equiv_pos_as_xyz
1 x,y,z
_cell_length_a                   12.3193(2)
_cell_length_b                   12.5694(2)
_cell_length_c                   14.2347(2)
_cell_angle_alpha                105.3590(10)
_cell_angle_beta                 103.8710(10)
_cell_angle_gamma                99.2620(10)
_cell_volume                     2003.3
loop_
_atom_site_label
_atom_site_type_symbol
_atom_site_fract_x
_atom_site_fract_y
_atom_site_fract_z
O11 O 0.03204(15) 0.10450(14) 0.98725(13)
O3 O 0.76416(15) 0.22659(15) 0.09385(15)
O4 O 0.78354(15) 0.05514(16) 0.01310(15)
C9 C 0.7267(2) 0.1272(2) 0.02593(19)
Li1 Li 0.9361(4) 0.0419(3) 0.0610(3)
Zn3 Zn 0.92898(3) 0.30115(2) 0.14126(2)
O13 O 0.02653(17) 0.29896(15) 0.26948(14)
O17 O 0.98329(18) 0.11021(15) 0.20354(14)
Li6 Li 0.7157(5) 0.3225(6) 0.2131(5)
O5 O 0.06486(17) 0.53922(14) 0.84657(14)
N1 N 0.23568(18) 0.11917(18) 0.71297(15)
O8 O 0.1926(3) 0.5252(2) 0.7617(3)
C1 C 0.3862(2) 0.0519(2) 0.81914(18)
C2 C 0.0961(2) 0.1927(2) 0.37518(19)
C3 C 0.6062(2) 0.1013(2) 0.9567(2)
C4 C 0.0759(2) 0.3367(2) 0.8839(2)
H1 H 0.0384 0.3839 0.9198
C5 C 0.0816(2) 0.2326(2) 0.89808(18)
C6 C 0.2272(2) 0.1753(2) 0.55750(19)
C7 C 0.1265(2) 0.3698(2) 0.8158(2)
C8 C 0.1850(2) 0.1917(2) 0.77171(18)
C10 C 0.1807(2) 0.2988(2) 0.76096(19)
H2 H 0.2149 0.3227 0.7161
C11 C 0.0732(2) 0.0935(2) 0.40022(19)
H3 H 0.0150 0.0317 0.3552
C12 C 0.3016(2) 0.1639(2) 0.6545(2)
H4 H 0.3512 0.1142 0.6366
H5 H 0.3505 0.2380 0.6967
C13 C 0.5478(2) 0.1861(2) 0.9529(2)
H6 H 0.5815 0.2597 0.9967
C16 C 0.1355(2) 0.16091(19) 0.84305(18)
H9 H 0.1389 0.0914 0.8536
C17 C 0.0298(2) 0.1993(2) 0.27505(19)
C18 C 0.2685(2) 0.0230(2) 0.74188(19)
C19 C 0.1366(2) 0.0859(2) 0.4919(2)
H12 H 0.1183 0.0206 0.5094
C20 C 0.0317(2) 0.2000(2) 0.97602(19)
C21 C 0.1846(3) 0.2831(2) 0.4423(2)
H13 H 0.1998 0.3503 0.4267
C22 C 0.2507(3) 0.2745(2) 0.5322(2)
H14 H 0.3110 0.3352 0.5759
C23 C 0.4397(2) 0.1619(2) 0.8842(2)
H15 H 0.4021 0.2199 0.8813
C24 C 0.1278(3) 0.4858(2) 0.8048(2)
O9 O 0.2343(3) 0.7182(3) 0.6646(3)
O10 O 0.4425(3) 0.6792(3) 0.8116(3)
Li2 Li 0.2843(5) 0.6775(6) 0.7869(5)
N2 N 0.6198(4) 0.6986(4) 0.7972(4)
C25 C 0.5087(5) 0.6784(5) 0.7607(5)
C26 C 0.6783(6) 0.7254(7) 0.9015(5)
H16 H 0.6269 0.6971 0.9351
H17 H 0.7053 0.8064 0.9315
H18 H 0.7427 0.6911 0.9089
C27 C 0.6964(11) 0.7104(13) 0.7405(11)
H19 H 0.6548 0.7087 0.6736
H20 H 0.7345 0.6492 0.7349
H21 H 0.7525 0.7815 0.7740
Zn4 Zn 0.07102(3) 0.69885(2) 0.85874(2)
O15 O 0.23584(15) 0.77341(15) 0.90615(15)
H22 H 0.15114 0.717377 0.649864
H23 H 0.279228 0.795482 0.67461
H24 H 0.472406 0.659427 0.678746
O12 O 0.96796(15) 0.89550(14) 0.01275(13)
C14 C 0.5530(2) 0.9912(2) 0.8923(2)
H7 H 0.5908 0.9331 0.8948
C15 C 0.4448(2) 0.9676(2) 0.8248(2)
H8 H 0.4104 0.8935 0.7821
H10 H 0.2672 0.9649 0.6809
H11 H 0.2114 0.9912 0.7698
Li5 Li 0.0639(4) 0.9581(3) 0.9390(3)
O6 O 0.99263(18) 0.27431(15) 0.02630(15)
O16 O 0.93514(17) 0.46078(14) 0.15343(14)
O7 O 0.01671(18) 0.88979(15) 0.79646(14)
O6_2 O 0.00737(18) 0.72569(15) 0.97370(15)
C14_2 C 0.4470(2) 0.0088(2) 0.1077(2)
H7_2 H 0.4092 0.0669 0.1052
C15_2 C 0.5552(2) 0.0324(2) 0.1752(2)
H8_2 H 0.5896 0.1065 0.2179
H10_2 H 0.7328 0.0351 0.3191
H11_2 H 0.7886 0.0088 0.2302
O2 O 0.97347(17) 0.70104(15) 0.73052(14)
N1_2 N 0.76432(18) 0.88083(18) 0.28703(15)
O8_2 O 0.8074(3) 0.4748(2) 0.2383(3)
C1_2 C 0.6138(2) 0.9481(2) 0.18086(18)
C2_2 C 0.9039(2) 0.8073(2) 0.62482(19)
C3_2 C 0.3938(2) 0.8987(2) 0.0433(2)
C4_2 C 0.9241(2) 0.6633(2) 0.1161(2)
H1_2 H 0.9616 0.6161 0.0802
C5_2 C 0.9184(2) 0.7674(2) 0.10192(18)
C6_2 C 0.7728(2) 0.8247(2) 0.44250(19)
C7_2 C 0.8735(2) 0.6302(2) 0.1842(2)
C8_2 C 0.8150(2) 0.8083(2) 0.22829(18)
C10_2 C 0.8193(2) 0.7012(2) 0.23904(19)
H2_2 H 0.7851 0.6773 0.2839
C11_2 C 0.9268(2) 0.9065(2) 0.59978(19)
H3_2 H 0.9850 0.9683 0.6448
C12_2 C 0.6984(2) 0.8361(2) 0.3455(2)
H4_2 H 0.6488 0.8858 0.3634
H5_2 H 0.6495 0.7620 0.3033
C13_2 C 0.4522(2) 0.8139(2) 0.0471(2)
H6_2 H 0.4185 0.7403 0.0033
C16_2 C 0.8645(2) 0.83909(19) 0.15695(18)
H9_2 H 0.8611 0.9086 0.1464
C17_2 C 0.9702(2) 0.8007(2) 0.72495(19)
C18_2 C 0.7315(2) 0.9770(2) 0.25812(19)
C19_2 C 0.8634(2) 0.9141(2) 0.5081(2)
H12_2 H 0.8817 0.9794 0.4906
C20_2 C 0.9683(2) 0.8000(2) 0.02398(19)
C21_2 C 0.8154(3) 0.7169(2) 0.5577(2)
H13_2 H 0.8002 0.6497 0.5733
C22_2 C 0.7493(3) 0.7255(2) 0.4678(2)
H14_2 H 0.6890 0.6648 0.4241
C23_2 C 0.5603(2) 0.8381(2) 0.1158(2)
H15_2 H 0.5979 0.7801 0.1187
C24_2 C 0.8722(3) 0.5142(2) 0.1952(2)
O9_2 O 0.7657(3) 0.2818(3) 0.3354(3)
O10_2 O 0.5575(3) 0.3208(3) 0.1884(3)
N2_2 N 0.3802(4) 0.3014(4) 0.2028(4)
C25_2 C 0.4913(5) 0.3216(5) 0.2393(5)
C26_2 C 0.3217(6) 0.2746(7) 0.0985(5)
H16_2 H 0.3731 0.3029 0.0649
H17_2 H 0.2947 0.1936 0.0685
H18_2 H 0.2573 0.3089 0.0911
C27_2 C 0.3036(11) 0.2896(13) 0.2595(11)
H19_2 H 0.3452 0.2913 0.3264
H20_2 H 0.2655 0.3508 0.2651
H21_2 H 0.2475 0.2185 0.2260
H22_2 H 0.84886 0.282623 0.350136
H23_2 H 0.720772 0.204518 0.32539
H24_2 H 0.527594 0.340573 0.321254
O4_2 O 0.21646(15) 0.94486(16) 0.98690(15)
C9_2 C 0.2733(2) 0.8728(2) 0.97407(19)
loop_
_geom_bond_atom_site_label_1
_geom_bond_atom_site_label_2
_geom_bond_site_symmetry_1
_geom_bond_site_symmetry_2
O3 C9 1_555 1_555
O4 C9 1_555 1_555
Li1 O4 1_555 1_555
Zn3 O3 1_555 1_555
O17 Li1 1_555 1_555
Li6 O3 1_555 1_555
O11 C20 1_555 1_555
O13 C17 1_555 1_555
O5 C24 1_555 1_555
N1 C8 1_555 1_555
O8 C24 1_555 1_555
C2 C11 1_555 1_555
C4 H1 1_555 1_555
C5 C4 1_555 1_555
C6 C12 1_555 1_555
C7 C4 1_555 1_555
C8 C10 1_555 1_555
C10 C7 1_555 1_555
H2 C10 1_555 1_555
C11 H3 1_555 1_555
C12 N1 1_555 1_555
H4 C12 1_555 1_555
H5 C12 1_555 1_555
C13 C3 1_555 1_555
H6 C13 1_555 1_555
C16 C5 1_555 1_555
H9 C16 1_555 1_555
C17 C2 1_555 1_555
C18 N1 1_555 1_555
C19 C6 1_555 1_555
H12 C19 1_555 1_555
C20 C5 1_555 1_555
C21 C2 1_555 1_555
H13 C21 1_555 1_555
C22 C6 1_555 1_555
H14 C22 1_555 1_555
C23 C1 1_555 1_555
H15 C23 1_555 1_555
C24 C7 1_555 1_555
O9 Li2 1_555 1_555
O10 Li2 1_555 1_555
Li2 O8 1_555 1_555
N2 C25 1_555 1_555
C25 O10 1_555 1_555
C26 N2 1_555 1_555
H16 C26 1_555 1_555
H17 C26 1_555 1_555
H18 C26 1_555 1_555
C27 N2 1_555 1_555
H19 C27 1_555 1_555
H20 C27 1_555 1_555
H21 C27 1_555 1_555
Zn4 O5 1_555 1_555
O15 Li2 1_555 1_555
C1 C18 1_555 1_555
C8 C16 1_555 1_555
C11 C19 1_555 1_555
C13 C23 1_555 1_555
C21 C22 1_555 1_555
Zn4 O15 1_555 1_555
O9 H22 1_555 1_555
O9 H23 1_555 1_555
C25 H24 1_555 1_555
H7 C14 1_555 1_555
C15 C14 1_555 1_555
H8 C15 1_555 1_555
Zn3 O6 1_555 1_555
O16 Zn3 1_555 1_555
Li5 O7 1_555 1_555
Zn4 O6_2 1_555 1_555
H7_2 C14_2 1_555 1_555
C15_2 C14_2 1_555 1_555
H8_2 C15_2 1_555 1_555
O12 C20_2 1_555 1_555
O2 C17_2 1_555 1_555
O16 C24_2 1_555 1_555
N1_2 C8_2 1_555 1_555
O8_2 C24_2 1_555 1_555
C2_2 C11_2 1_555 1_555
C4_2 H1_2 1_555 1_555
C5_2 C4_2 1_555 1_555
C6_2 C12_2 1_555 1_555
C7_2 C4_2 1_555 1_555
C8_2 C10_2 1_555 1_555
C10_2 C7_2 1_555 1_555
H2_2 C10_2 1_555 1_555
C11_2 H3_2 1_555 1_555
C12_2 N1_2 1_555 1_555
H4_2 C12_2 1_555 1_555
H5_2 C12_2 1_555 1_555
C13_2 C3_2 1_555 1_555
H6_2 C13_2 1_555 1_555
C16_2 C5_2 1_555 1_555
H9_2 C16_2 1_555 1_555
C17_2 C2_2 1_555 1_555
C18_2 N1_2 1_555 1_555
C19_2 C6_2 1_555 1_555
H12_2 C19_2 1_555 1_555
C20_2 C5_2 1_555 1_555
C21_2 C2_2 1_555 1_555
H13_2 C21_2 1_555 1_555
C22_2 C6_2 1_555 1_555
H14_2 C22_2 1_555 1_555
C23_2 C1_2 1_555 1_555
H15_2 C23_2 1_555 1_555
C24_2 C7_2 1_555 1_555
O9_2 Li6 1_555 1_555
O10_2 Li6 1_555 1_555
Li6 O8_2 1_555 1_555
N2_2 C25_2 1_555 1_555
C25_2 O10_2 1_555 1_555
C26_2 N2_2 1_555 1_555
H16_2 C26_2 1_555 1_555
H17_2 C26_2 1_555 1_555
H18_2 C26_2 1_555 1_555
C27_2 N2_2 1_555 1_555
H19_2 C27_2 1_555 1_555
H20_2 C27_2 1_555 1_555
H21_2 C27_2 1_555 1_555
C1_2 C18_2 1_555 1_555
C8_2 C16_2 1_555 1_555
C11_2 C19_2 1_555 1_555
C13_2 C23_2 1_555 1_555
C21_2 C22_2 1_555 1_555
O9_2 H22_2 1_555 1_555
O9_2 H23_2 1_555 1_555
C25_2 H24_2 1_555 1_555
O15 C9_2 1_555 1_555
O4_2 C9_2 1_555 1_555
Li5 O4_2 1_555 1_555

#END
