
###############################################################################
#
# This file contains modified crystal structure data generated from the
# MOF subset of the Cambridge Structural Database (CSD) v543 
# hosted by the Cambridge Crystallographic Data Centre (CCDC).
#
# This work is licensed under the Creative Commons
# Attribution-NonCommercial-ShareAlike 4.0 International License.
# To view a copy of this license, visit
# http://creativecommons.org/licenses/by-nc-sa/4.0/
# or send a letter to
# Creative Commons, PO Box 1866, Mountain View, CA 94042, USA.
#
# CIF created using the CSD Python API on 29 September 2022
# The structure has been converted into the P1 space group
# The structure has a 3D framework
# The original CSD entry KIHDEN is in the monoclinic crystal system
# The framework has been calculated to contain at least 10.0% void space
# The void calculation uses a probe of radius 1.32A, grid spacing 0.4
#
###############################################################################

data_KIHDEN
_chemical_formula_moiety         '(C112 H144 N32 O32 Zn6)n'
_symmetry_cell_setting           triclinic
_symmetry_space_group_name_H-M   'P 1'
_symmetry_Int_Tables_number      1
_space_group_name_Hall           'P 1'
loop_
_symmetry_equiv_pos_site_id
_symmetry_equiv_pos_as_xyz
1 x,y,z
_cell_length_a                   9.0394(10)
_cell_length_b                   25.2057(19)
_cell_length_c                   16.8094(19)
_cell_angle_alpha                90
_cell_angle_beta                 105.040(12)
_cell_angle_gamma                90
_cell_volume                     3698.73
loop_
_atom_site_label
_atom_site_type_symbol
_atom_site_fract_x
_atom_site_fract_y
_atom_site_fract_z
Zn2 Zn 0.05814(17) 0.69776(7) 0.49774(10)
C19 C 0.0159(18) 0.4343(5) 0.4331(9)
H23 H 0.0175 0.4002 0.4543
C20 C 0.1306(15) 0.4593(5) 0.4142(9)
H24 H 0.2304 0.4465 0.4243
C22 C 0.289(2) 0.3927(7) 0.0399(8)
H26 H 0.3657 0.3746 0.0235
C23 C 0.3008(19) 0.4391(9) 0.0710(10)
H27 H 0.3879 0.4604 0.0827
C24 C 0.066(2) 0.4088(6) 0.0603(9)
C25 C 0.1687(16) 0.5471(6) 0.3460(9)
H29 H 0.1468 0.5817 0.3656
H30 H 0.2777 0.5405 0.3667
C26 C 0.1269(17) 0.5471(5) 0.2540(8)
H31 H 0.0183 0.5546 0.2341
H32 H 0.1819 0.5756 0.2355
C27 C 0.1604(15) 0.4967(5) 0.2167(8)
H33 H 0.1019 0.4682 0.2326
H34 H 0.2683 0.4883 0.2373
C28 C 0.120(2) 0.5008(7) 0.1240(10)
H35 H 0.0118 0.5082 0.1038
H36 H 0.1760 0.5303 0.1087
N6 N 0.0815(11) 0.5056(3) 0.3784(6)
N7 N 0.1439(16) 0.3736(5) 0.0345(7)
N8 N 0.1567(17) 0.4523(6) 0.0844(7)
N9 N 0.1338(12) 0.7222(4) 0.4027(7)
N10 N 0.1439(16) 0.6264(5) 0.5345(7)
O9 O 0.183(2) 0.7353(6) 0.5953(8)
Zn3 Zn 0.05814(17) 0.30224(7) 0.99774(10)
Zn1 Zn 0.68232(12) 0.45953(5) 0.42846(8)
C1 C 0.5784(18) 0.5537(7) 0.3589(19)
C2 C 0.5301(17) 0.6102(5) 0.3455(13)
H1 H 0.4199 0.6125 0.3367
H2 H 0.5552 0.6233 0.2964
C3 C 0.608(2) 0.6455(6) 0.4190(13)
H3 H 0.5531 0.6788 0.4152
H4 H 0.6024 0.6281 0.4696
C4 C 0.7736(15) 0.6567(5) 0.4228(10)
C5 C 0.739(2) 0.3934(7) 0.5628(9)
C6 C 0.712(3) 0.3720(6) 0.6418(9)
H5 H 0.7764 0.3923 0.6867
H6 H 0.6069 0.3797 0.6410
C7 C 0.738(3) 0.3183(7) 0.6618(10)
H7 H 0.7127 0.3116 0.7136
H8 H 0.8460 0.3108 0.6700
C8 C 0.642(3) 0.2783(9) 0.5946(12)
C9 C 0.5255(16) 0.3977(5) 0.2751(9)
H9 H 0.5659 0.4180 0.2396
C10 C 0.4312(16) 0.3559(5) 0.2527(8)
H10 H 0.3997 0.3407 0.2006
C11 C 0.4661(13) 0.3705(4) 0.3800(8)
H11 H 0.4579 0.3670 0.4337
C15 C 0.2807(14) 0.3000(5) 0.3256(11)
H15 H 0.2973 0.2892 0.3826
H16 H 0.2952 0.2692 0.2938
C16 C 0.1203(16) 0.3201(5) 0.2940(14)
H17 H 0.1117 0.3548 0.3172
H18 H 0.0962 0.3237 0.2346
C17 C 0.0117(16) 0.2840(5) 0.3159(12)
H19 H 0.0535 0.2725 0.3724
H20 H 0.0016 0.2528 0.2811
C21 C 0.9395(13) 0.5097(4) 0.3799(7)
H25 H 0.8773 0.5383 0.3582
H28 H 0.9642 0.4054 0.0622
N1 N 0.5524(11) 0.4056(3) 0.3574(5)
N2 N 0.3928(10) 0.3409(3) 0.3196(6)
N5 N 0.8933(12) 0.4688(4) 0.4153(7)
O1 O 0.6033(15) 0.5339(5) 0.4239(8)
O2 O 0.5796(17) 0.5268(5) 0.2899(10)
O3 O 0.8407(14) 0.6884(5) 0.4829(9)
O4 O 0.8413(11) 0.6365(4) 0.3757(6)
O5 O 0.6728(14) 0.4380(4) 0.5408(6)
O6 O 0.8087(14) 0.3696(4) 0.5246(7)
O7 O 0.683(2) 0.2353(6) 0.5953(8)
O8 O 0.524(2) 0.2969(6) 0.5498(9)
Zn5 Zn 0.55814(17) 0.19776(7) 0.49774(10)
C12 C 0.6042(16) 0.2007(5) 0.3268(8)
H12 H 0.5367 0.1729 0.3077
C13 C 0.6867(18) 0.2254(5) 0.2839(9)
H13 H 0.6948 0.2159 0.2318
C14 C 0.7267(15) 0.2606(5) 0.4041(10)
H14 H 0.7682 0.2815 0.4500
C18 C 0.8582(17) 0.3061(6) 0.3084(11)
H21 H 0.8659 0.3363 0.3451
H22 H 0.8158 0.3185 0.2525
N3 N 0.6338(12) 0.2222(4) 0.4027(7)
N4 N 0.7571(11) 0.2669(4) 0.3286(8)
O9_2 O 0.183(2) 0.2647(6) 0.0953(8)
C19_2 C 0.0159(18) 0.5657(5) 0.9331(9)
H23_2 H 0.0175 0.5998 0.9543
C20_2 C 0.1306(15) 0.5407(5) 0.9142(9)
H24_2 H 0.2304 0.5535 0.9243
C22_2 C 0.289(2) 0.6073(7) 0.5399(8)
H26_2 H 0.3657 0.6254 0.5235
C23_2 C 0.3008(19) 0.5609(9) 0.5710(10)
H27_2 H 0.3879 0.5396 0.5827
C24_2 C 0.066(2) 0.5912(6) 0.5603(9)
C25_2 C 0.1687(16) 0.4529(6) 0.8460(9)
H29_2 H 0.1468 0.4183 0.8656
H30_2 H 0.2777 0.4595 0.8667
C26_2 C 0.1269(17) 0.4529(5) 0.7540(8)
H31_2 H 0.0183 0.4454 0.7341
H32_2 H 0.1819 0.4244 0.7355
C27_2 C 0.1604(15) 0.5033(5) 0.7167(8)
H33_2 H 0.1019 0.5318 0.7326
H34_2 H 0.2683 0.5117 0.7373
C28_2 C 0.120(2) 0.4992(7) 0.6240(10)
H35_2 H 0.0118 0.4918 0.6038
H36_2 H 0.1760 0.4697 0.6087
N6_2 N 0.0815(11) 0.4944(3) 0.8784(6)
N8_2 N 0.1567(17) 0.5477(6) 0.5844(7)
N9_2 N 0.1338(12) 0.2778(4) 0.9027(7)
C5_2 C 0.739(2) 0.6066(7) 0.0628(9)
C6_2 C 0.712(3) 0.6280(6) 0.1418(9)
H5_2 H 0.7764 0.6077 0.1867
H6_2 H 0.6069 0.6203 0.1410
C7_2 C 0.738(3) 0.6817(7) 0.1618(10)
H7_2 H 0.7127 0.6884 0.2136
H8_2 H 0.8460 0.6892 0.1700
C8_2 C 0.642(3) 0.7217(9) 0.0946(12)
O5_2 O 0.6728(14) 0.5620(4) 0.0408(6)
O6_2 O 0.8087(14) 0.6304(4) 0.0246(7)
O7_2 O 0.683(2) 0.7647(6) 0.0953(8)
O8_2 O 0.524(2) 0.7031(6) 0.0498(9)
C1_2 C 0.0784(18) 0.0537(7) 0.3589(19)
C2_2 C 0.0301(17) 0.1102(5) 0.3455(13)
H2_2 H 0.0552 0.1233 0.2964
C3_2 C 0.108(2) 0.1455(6) 0.4190(13)
H3_2 H 0.0531 0.1788 0.4152
H4_2 H 0.1024 0.1281 0.4696
C4_2 C 0.2736(15) 0.1567(5) 0.4228(10)
C21_2 C 0.4395(13) 0.0097(4) 0.3799(7)
H25_2 H 0.3773 0.0383 0.3582
C25_3 C 0.6687(16) 0.0471(6) 0.3460(9)
H29_3 H 0.6468 0.0817 0.3656
H30_3 H 0.7777 0.0405 0.3667
C26_3 C 0.6269(17) 0.0471(5) 0.2540(8)
H31_3 H 0.5183 0.0546 0.2341
H32_3 H 0.6819 0.0756 0.2355
C28_3 C 0.620(2) 0.0008(7) 0.1240(10)
H35_3 H 0.5118 0.0082 0.1038
H36_3 H 0.6760 0.0303 0.1087
N6_3 N 0.5815(11) 0.0056(3) 0.3784(6)
O1_2 O 0.1033(15) 0.0339(5) 0.4239(8)
O2_2 O 0.0796(17) 0.0268(5) 0.2899(10)
O3_2 O 0.3407(14) 0.1884(5) 0.4829(9)
O4_2 O 0.3413(11) 0.1365(4) 0.3757(6)
N10_2 N 0.6439(16) 0.1264(5) 0.5345(7)
Zn1_2 Zn 0.18232(12) 0.95953(5) 0.42846(8)
C5_3 C 0.239(2) 0.8934(7) 0.5628(9)
C6_3 C 0.212(3) 0.8720(6) 0.6418(9)
H5_3 H 0.2764 0.8923 0.6867
H6_3 H 0.1069 0.8797 0.6410
C7_3 C 0.238(3) 0.8183(7) 0.6618(10)
H7_3 H 0.2127 0.8116 0.7136
H8_3 H 0.3460 0.8108 0.6700
C8_3 C 0.142(3) 0.7783(9) 0.5946(12)
C9_2 C 0.0255(16) 0.8977(5) 0.2751(9)
H9_2 H 0.0659 0.9180 0.2396
C19_3 C 0.5159(18) 0.9343(5) 0.4331(9)
H23_3 H 0.5175 0.9002 0.4543
C20_3 C 0.6306(15) 0.9593(5) 0.4142(9)
H24_3 H 0.7304 0.9465 0.4243
C22_3 C 0.789(2) 0.8927(7) 0.0399(8)
H26_3 H 0.8657 0.8746 0.0235
C23_3 C 0.8008(19) 0.9391(9) 0.0710(10)
H27_3 H 0.8879 0.9604 0.0827
C24_3 C 0.566(2) 0.9088(6) 0.0603(9)
H28_2 H 0.4642 0.9054 0.0622
C27_3 C 0.6604(15) 0.9967(5) 0.2167(8)
H33_3 H 0.6019 0.9682 0.2326
H34_3 H 0.7683 0.9883 0.2373
N1_2 N 0.0524(11) 0.9056(3) 0.3574(5)
N5_2 N 0.3933(12) 0.9688(4) 0.4153(7)
N7_2 N 0.6439(16) 0.8736(5) 0.0345(7)
N8_3 N 0.6567(17) 0.9523(6) 0.0844(7)
O5_3 O 0.1728(14) 0.9380(4) 0.5408(6)
O6_3 O 0.3087(14) 0.8696(4) 0.5246(7)
O8_3 O 0.024(2) 0.7969(6) 0.5498(9)
C10_2 C 0.9312(16) 0.8559(5) 0.2527(8)
H10_2 H 0.8997 0.8407 0.2006
C11_2 C 0.9661(13) 0.8705(4) 0.3800(8)
H11_2 H 0.9579 0.8670 0.4337
C12_2 C 0.1042(16) 0.7007(5) 0.3268(8)
H12_2 H 0.0367 0.6729 0.3077
C13_2 C 0.1867(18) 0.7254(5) 0.2839(9)
H13_2 H 0.1948 0.7159 0.2318
C14_2 C 0.2267(15) 0.7606(5) 0.4041(10)
H14_2 H 0.2682 0.7815 0.4500
C15_2 C 0.7807(14) 0.8000(5) 0.3256(11)
H15_2 H 0.7973 0.7892 0.3826
H16_2 H 0.7952 0.7692 0.2938
C16_2 C 0.6203(16) 0.8201(5) 0.2940(14)
H17_2 H 0.6117 0.8548 0.3172
H18_2 H 0.5962 0.8237 0.2346
C17_2 C 0.5117(16) 0.7840(5) 0.3159(12)
H19_2 H 0.5535 0.7725 0.3724
H20_2 H 0.5016 0.7528 0.2811
C18_2 C 0.3582(17) 0.8061(6) 0.3084(11)
H21_2 H 0.3659 0.8363 0.3451
H22_2 H 0.3158 0.8185 0.2525
N2_2 N 0.8928(10) 0.8409(3) 0.3196(6)
N4_2 N 0.2571(11) 0.7669(4) 0.3286(8)
C5_4 C 0.239(2) 0.1066(7) 0.0628(9)
C6_4 C 0.212(3) 0.1280(6) 0.1418(9)
H5_4 H 0.2764 0.1077 0.1867
H6_4 H 0.1069 0.1203 0.1410
C7_4 C 0.238(3) 0.1817(7) 0.1618(10)
H7_4 H 0.2127 0.1884 0.2136
H8_4 H 0.3460 0.1892 0.1700
C8_4 C 0.142(3) 0.2217(9) 0.0946(12)
O5_4 O 0.1728(14) 0.0620(4) 0.0408(6)
O6_4 O 0.3087(14) 0.1304(4) 0.0246(7)
O8_4 O 0.024(2) 0.2031(6) 0.0498(9)
Zn1_3 Zn 0.18232(12) 0.04047(5) 0.92846(8)
C9_3 C 0.0255(16) 0.1023(5) 0.7751(9)
H9_3 H 0.0659 0.0820 0.7396
C19_4 C 0.5159(18) 0.0657(5) 0.9331(9)
H23_4 H 0.5175 0.0998 0.9543
C20_4 C 0.6306(15) 0.0407(5) 0.9142(9)
H24_4 H 0.7304 0.0535 0.9243
C22_4 C 0.789(2) 0.1073(7) 0.5399(8)
H26_4 H 0.8657 0.1254 0.5235
C23_4 C 0.8008(19) 0.0609(9) 0.5710(10)
H27_4 H 0.8879 0.0396 0.5827
C24_4 C 0.566(2) 0.0912(6) 0.5603(9)
H28_3 H 0.4642 0.0946 0.5622
C27_4 C 0.6604(15) 0.0033(5) 0.7167(8)
H33_4 H 0.6019 0.0318 0.7326
H34_4 H 0.7683 0.0117 0.7373
N1_3 N 0.0524(11) 0.0944(3) 0.8574(5)
N5_3 N 0.3933(12) 0.0312(4) 0.9153(7)
N8_4 N 0.6567(17) 0.0477(6) 0.5844(7)
C10_3 C 0.9312(16) 0.1441(5) 0.7527(8)
H10_3 H 0.8997 0.1593 0.7006
C11_3 C 0.9661(13) 0.1295(4) 0.8800(8)
H11_3 H 0.9579 0.1330 0.9337
C12_3 C 0.1042(16) 0.2993(5) 0.8268(8)
H12_3 H 0.0367 0.3271 0.8077
C13_3 C 0.1867(18) 0.2746(5) 0.7839(9)
H13_3 H 0.1948 0.2841 0.7318
C14_3 C 0.2267(15) 0.2394(5) 0.9041(10)
H14_3 H 0.2682 0.2185 0.9500
C15_3 C 0.7807(14) 0.2000(5) 0.8256(11)
H15_3 H 0.7973 0.2108 0.8826
H16_3 H 0.7952 0.2308 0.7938
C16_3 C 0.6203(16) 0.1799(5) 0.7940(14)
H17_3 H 0.6117 0.1452 0.8172
H18_3 H 0.5962 0.1763 0.7346
C17_3 C 0.5117(16) 0.2160(5) 0.8159(12)
H19_3 H 0.5535 0.2275 0.8724
H20_3 H 0.5016 0.2472 0.7811
C18_3 C 0.3582(17) 0.1939(6) 0.8084(11)
H21_3 H 0.3659 0.1637 0.8451
H22_3 H 0.3158 0.1815 0.7525
N2_3 N 0.8928(10) 0.1591(3) 0.8196(6)
N4_3 N 0.2571(11) 0.2331(4) 0.8286(8)
Zn1_4 Zn 0.68232(12) 0.54047(5) 0.92846(8)
C1_3 C 0.5784(18) 0.4463(7) 0.8589(19)
C2_3 C 0.5301(17) 0.3898(5) 0.8455(13)
H1_2 H 0.4199 0.3875 0.8367
H2_3 H 0.5552 0.3767 0.7964
C3_3 C 0.608(2) 0.3545(6) 0.9190(13)
H3_3 H 0.5531 0.3212 0.9152
H4_3 H 0.6024 0.3719 0.9696
C4_3 C 0.7736(15) 0.3433(5) 0.9228(10)
C9_4 C 0.5255(16) 0.6023(5) 0.7751(9)
H9_4 H 0.5659 0.5820 0.7396
C10_4 C 0.4312(16) 0.6441(5) 0.7527(8)
H10_4 H 0.3997 0.6593 0.7006
C11_4 C 0.4661(13) 0.6295(4) 0.8800(8)
H11_4 H 0.4579 0.6330 0.9337
C15_4 C 0.2807(14) 0.7000(5) 0.8256(11)
H15_4 H 0.2973 0.7108 0.8826
H16_4 H 0.2952 0.7308 0.7938
C16_4 C 0.1203(16) 0.6799(5) 0.7940(14)
H17_4 H 0.1117 0.6452 0.8172
H18_4 H 0.0962 0.6763 0.7346
C17_4 C 0.0117(16) 0.7160(5) 0.8159(12)
H19_4 H 0.0535 0.7275 0.8724
H20_4 H 0.0016 0.7472 0.7811
C21_3 C 0.9395(13) 0.4903(4) 0.8799(7)
H25_3 H 0.8773 0.4617 0.8582
H28_4 H 0.9642 0.5946 0.5622
N1_4 N 0.5524(11) 0.5944(3) 0.8574(5)
N2_4 N 0.3928(10) 0.6591(3) 0.8196(6)
N5_4 N 0.8933(12) 0.5312(4) 0.9153(7)
O1_3 O 0.6033(15) 0.4661(5) 0.9239(8)
O2_3 O 0.5796(17) 0.4732(5) 0.7899(10)
O3_3 O 0.8407(14) 0.3116(5) 0.9829(9)
O4_3 O 0.8413(11) 0.3635(4) 0.8757(6)
Zn5_2 Zn 0.55814(17) 0.80224(7) 0.99774(10)
C12_4 C 0.6042(16) 0.7993(5) 0.8268(8)
H12_4 H 0.5367 0.8271 0.8077
C13_4 C 0.6867(18) 0.7746(5) 0.7839(9)
H13_4 H 0.6948 0.7841 0.7318
C14_4 C 0.7267(15) 0.7394(5) 0.9041(10)
H14_4 H 0.7682 0.7185 0.9500
C18_4 C 0.8582(17) 0.6939(6) 0.8084(11)
H21_4 H 0.8659 0.6637 0.8451
H22_4 H 0.8158 0.6815 0.7525
N3_2 N 0.6338(12) 0.7778(4) 0.9027(7)
N4_4 N 0.7571(11) 0.7331(4) 0.8286(8)
C1_4 C 0.0784(18) 0.9463(7) 0.8589(19)
C2_4 C 0.0301(17) 0.8898(5) 0.8455(13)
H2_4 H 0.0552 0.8767 0.7964
C3_4 C 0.108(2) 0.8545(6) 0.9190(13)
H3_4 H 0.0531 0.8212 0.9152
H4_4 H 0.1024 0.8719 0.9696
C4_4 C 0.2736(15) 0.8433(5) 0.9228(10)
C21_4 C 0.4395(13) 0.9903(4) 0.8799(7)
H25_4 H 0.3773 0.9617 0.8582
C25_4 C 0.6687(16) 0.9529(6) 0.8460(9)
H29_4 H 0.6468 0.9183 0.8656
H30_4 H 0.7777 0.9595 0.8667
C26_4 C 0.6269(17) 0.9529(5) 0.7540(8)
H31_4 H 0.5183 0.9454 0.7341
H32_4 H 0.6819 0.9244 0.7355
C28_4 C 0.620(2) 0.9992(7) 0.6240(10)
H35_4 H 0.5118 0.9918 0.6038
H36_4 H 0.6760 0.9697 0.6087
N6_4 N 0.5815(11) 0.9944(3) 0.8784(6)
O1_4 O 0.1033(15) 0.9661(5) 0.9239(8)
O2_4 O 0.0796(17) 0.9732(5) 0.7899(10)
O3_4 O 0.3407(14) 0.8116(5) 0.9829(9)
O4_4 O 0.3413(11) 0.8635(4) 0.8757(6)
H1_3 H 0.9199 0.1125 0.3367
H1_4 H 0.9199 0.8875 0.8367
loop_
_geom_bond_atom_site_label_1
_geom_bond_atom_site_label_2
_geom_bond_site_symmetry_1
_geom_bond_site_symmetry_2
C19 H23 1_555 1_555
C20 C19 1_555 1_555
H24 C20 1_555 1_555
C22 H26 1_555 1_555
C23 C22 1_555 1_555
H27 C23 1_555 1_555
C25 H29 1_555 1_555
H30 C25 1_555 1_555
C26 C25 1_555 1_555
H31 C26 1_555 1_555
H32 C26 1_555 1_555
C27 C26 1_555 1_555
H33 C27 1_555 1_555
H34 C27 1_555 1_555
C28 C27 1_555 1_555
H35 C28 1_555 1_555
H36 C28 1_555 1_555
N6 C20 1_555 1_555
N7 C22 1_555 1_555
N8 C23 1_555 1_555
N9 Zn2 1_555 1_555
N10 Zn2 1_555 1_555
O9 Zn2 1_555 1_555
C24 N7 1_555 1_555
C24 N8 1_555 1_555
C25 N6 1_555 1_555
C28 N8 1_555 1_555
Zn1 N1 1_555 1_555
C1 C2 1_555 1_555
C2 H1 1_555 1_555
H2 C2 1_555 1_555
C3 C2 1_555 1_555
H3 C3 1_555 1_555
H4 C3 1_555 1_555
C4 C3 1_555 1_555
C5 C6 1_555 1_555
C6 H5 1_555 1_555
H6 C6 1_555 1_555
C7 C6 1_555 1_555
H7 C7 1_555 1_555
H8 C7 1_555 1_555
C8 C7 1_555 1_555
C9 H9 1_555 1_555
C10 C9 1_555 1_555
H10 C10 1_555 1_555
C11 H11 1_555 1_555
C15 H15 1_555 1_555
H16 C15 1_555 1_555
C16 C15 1_555 1_555
H17 C16 1_555 1_555
H18 C16 1_555 1_555
C17 C16 1_555 1_555
H19 C17 1_555 1_555
H20 C17 1_555 1_555
C21 H25 1_555 1_555
N1 C9 1_555 1_555
N2 C10 1_555 1_555
N5 Zn1 1_555 1_555
O1 Zn1 1_555 1_555
O2 C1 1_555 1_555
O3 C4 1_555 1_555
O4 C4 1_555 1_555
O5 Zn1 1_555 1_555
O6 C5 1_555 1_555
O7 C8 1_555 1_555
O8 C8 1_555 1_555
Zn5 O7 1_555 1_555
C1 O1 1_555 1_555
C5 O5 1_555 1_555
C11 N1 1_555 1_555
C11 N2 1_555 1_555
C15 N2 1_555 1_555
C21 N5 1_555 1_555
C12 H12 1_555 1_555
C13 C12 1_555 1_555
H13 C13 1_555 1_555
C14 H14 1_555 1_555
H21 C18 1_555 1_555
H22 C18 1_555 1_555
N3 C12 1_555 1_555
N4 C13 1_555 1_555
Zn5 N3 1_555 1_555
C14 N3 1_555 1_555
C14 N4 1_555 1_555
C18 N4 1_555 1_555
C19_2 H23_2 1_555 1_555
C20_2 C19_2 1_555 1_555
H24_2 C20_2 1_555 1_555
C22_2 H26_2 1_555 1_555
C23_2 C22_2 1_555 1_555
H27_2 C23_2 1_555 1_555
C25_2 H29_2 1_555 1_555
H30_2 C25_2 1_555 1_555
C26_2 C25_2 1_555 1_555
H31_2 C26_2 1_555 1_555
H32_2 C26_2 1_555 1_555
C27_2 C26_2 1_555 1_555
H33_2 C27_2 1_555 1_555
H34_2 C27_2 1_555 1_555
C28_2 C27_2 1_555 1_555
H35_2 C28_2 1_555 1_555
H36_2 C28_2 1_555 1_555
N6_2 C20_2 1_555 1_555
N10 C22_2 1_555 1_555
N8_2 C23_2 1_555 1_555
N9_2 Zn3 1_555 1_555
C24_2 N10 1_555 1_555
C24_2 N8_2 1_555 1_555
C25_2 N6_2 1_555 1_555
C28_2 N8_2 1_555 1_555
C5_2 C6_2 1_555 1_555
C6_2 H5_2 1_555 1_555
H6_2 C6_2 1_555 1_555
C7_2 C6_2 1_555 1_555
H7_2 C7_2 1_555 1_555
H8_2 C7_2 1_555 1_555
C8_2 C7_2 1_555 1_555
O6_2 C5_2 1_555 1_555
O7_2 C8_2 1_555 1_555
O8_2 C8_2 1_555 1_555
C5_2 O5_2 1_555 1_555
Zn5 O3_2 1_555 1_555
C1_2 C2_2 1_555 1_555
H2_2 C2_2 1_555 1_555
C3_2 C2_2 1_555 1_555
H3_2 C3_2 1_555 1_555
H4_2 C3_2 1_555 1_555
C4_2 C3_2 1_555 1_555
C21_2 H25_2 1_555 1_555
C25_3 H29_3 1_555 1_555
H30_3 C25_3 1_555 1_555
C26_3 C25_3 1_555 1_555
H31_3 C26_3 1_555 1_555
H32_3 C26_3 1_555 1_555
H35_3 C28_3 1_555 1_555
H36_3 C28_3 1_555 1_555
O2_2 C1_2 1_555 1_555
O3_2 C4_2 1_555 1_555
O4_2 C4_2 1_555 1_555
N10_2 Zn5 1_555 1_555
C1_2 O1_2 1_555 1_555
C21_2 N6_3 1_555 1_555
C25_3 N6_3 1_555 1_555
Zn1_2 N1_2 1_555 1_555
C5_3 C6_3 1_555 1_555
C6_3 H5_3 1_555 1_555
H6_3 C6_3 1_555 1_555
C7_3 C6_3 1_555 1_555
H7_3 C7_3 1_555 1_555
H8_3 C7_3 1_555 1_555
C8_3 C7_3 1_555 1_555
C9_2 H9_2 1_555 1_555
C19_3 H23_3 1_555 1_555
C20_3 C19_3 1_555 1_555
H24_3 C20_3 1_555 1_555
C22_3 H26_3 1_555 1_555
C23_3 C22_3 1_555 1_555
H27_3 C23_3 1_555 1_555
C24_3 H28_2 1_555 1_555
H33_3 C27_3 1_555 1_555
H34_3 C27_3 1_555 1_555
N1_2 C9_2 1_555 1_555
N5_2 Zn1_2 1_555 1_555
N7_2 C22_3 1_555 1_555
N8_3 C23_3 1_555 1_555
O5_3 Zn1_2 1_555 1_555
O6_3 C5_3 1_555 1_555
O9 C8_3 1_555 1_555
O8_3 C8_3 1_555 1_555
C5_3 O5_3 1_555 1_555
C19_3 N5_2 1_555 1_555
C24_3 N7_2 1_555 1_555
C24_3 N8_3 1_555 1_555
H10_2 C10_2 1_555 1_555
C11_2 H11_2 1_555 1_555
C12_2 H12_2 1_555 1_555
C13_2 C12_2 1_555 1_555
H13_2 C13_2 1_555 1_555
C14_2 H14_2 1_555 1_555
C15_2 H15_2 1_555 1_555
H16_2 C15_2 1_555 1_555
C16_2 C15_2 1_555 1_555
H17_2 C16_2 1_555 1_555
H18_2 C16_2 1_555 1_555
C17_2 C16_2 1_555 1_555
H19_2 C17_2 1_555 1_555
H20_2 C17_2 1_555 1_555
C18_2 C17_2 1_555 1_555
H21_2 C18_2 1_555 1_555
H22_2 C18_2 1_555 1_555
N2_2 C10_2 1_555 1_555
N9 C12_2 1_555 1_555
N4_2 C13_2 1_555 1_555
C11_2 N2_2 1_555 1_555
C14_2 N9 1_555 1_555
C14_2 N4_2 1_555 1_555
C15_2 N2_2 1_555 1_555
C18_2 N4_2 1_555 1_555
C5_4 C6_4 1_555 1_555
C6_4 H5_4 1_555 1_555
H6_4 C6_4 1_555 1_555
C7_4 C6_4 1_555 1_555
H7_4 C7_4 1_555 1_555
H8_4 C7_4 1_555 1_555
C8_4 C7_4 1_555 1_555
O6_4 C5_4 1_555 1_555
O9_2 C8_4 1_555 1_555
O8_4 C8_4 1_555 1_555
C5_4 O5_4 1_555 1_555
Zn1_3 N1_3 1_555 1_555
C9_3 H9_3 1_555 1_555
C19_4 H23_4 1_555 1_555
C20_4 C19_4 1_555 1_555
H24_4 C20_4 1_555 1_555
C22_4 H26_4 1_555 1_555
C23_4 C22_4 1_555 1_555
H27_4 C23_4 1_555 1_555
C24_4 H28_3 1_555 1_555
H33_4 C27_4 1_555 1_555
H34_4 C27_4 1_555 1_555
N1_3 C9_3 1_555 1_555
N5_3 Zn1_3 1_555 1_555
N10_2 C22_4 1_555 1_555
N8_4 C23_4 1_555 1_555
C19_4 N5_3 1_555 1_555
C24_4 N10_2 1_555 1_555
C24_4 N8_4 1_555 1_555
H10_3 C10_3 1_555 1_555
C11_3 H11_3 1_555 1_555
C12_3 H12_3 1_555 1_555
C13_3 C12_3 1_555 1_555
H13_3 C13_3 1_555 1_555
C14_3 H14_3 1_555 1_555
C15_3 H15_3 1_555 1_555
H16_3 C15_3 1_555 1_555
C16_3 C15_3 1_555 1_555
H17_3 C16_3 1_555 1_555
H18_3 C16_3 1_555 1_555
C17_3 C16_3 1_555 1_555
H19_3 C17_3 1_555 1_555
H20_3 C17_3 1_555 1_555
C18_3 C17_3 1_555 1_555
H21_3 C18_3 1_555 1_555
H22_3 C18_3 1_555 1_555
N2_3 C10_3 1_555 1_555
N9_2 C12_3 1_555 1_555
N4_3 C13_3 1_555 1_555
C11_3 N2_3 1_555 1_555
C14_3 N9_2 1_555 1_555
C14_3 N4_3 1_555 1_555
C15_3 N2_3 1_555 1_555
C18_3 N4_3 1_555 1_555
Zn1_4 N1_4 1_555 1_555
C1_3 C2_3 1_555 1_555
C2_3 H1_2 1_555 1_555
H2_3 C2_3 1_555 1_555
C3_3 C2_3 1_555 1_555
H3_3 C3_3 1_555 1_555
H4_3 C3_3 1_555 1_555
C4_3 C3_3 1_555 1_555
C9_4 H9_4 1_555 1_555
C10_4 C9_4 1_555 1_555
H10_4 C10_4 1_555 1_555
C11_4 H11_4 1_555 1_555
C15_4 H15_4 1_555 1_555
H16_4 C15_4 1_555 1_555
C16_4 C15_4 1_555 1_555
H17_4 C16_4 1_555 1_555
H18_4 C16_4 1_555 1_555
C17_4 C16_4 1_555 1_555
H19_4 C17_4 1_555 1_555
H20_4 C17_4 1_555 1_555
C21_3 H25_3 1_555 1_555
N1_4 C9_4 1_555 1_555
N2_4 C10_4 1_555 1_555
N5_4 Zn1_4 1_555 1_555
O1_3 Zn1_4 1_555 1_555
O2_3 C1_3 1_555 1_555
O3_3 C4_3 1_555 1_555
O4_3 C4_3 1_555 1_555
C1_3 O1_3 1_555 1_555
C11_4 N1_4 1_555 1_555
C11_4 N2_4 1_555 1_555
C15_4 N2_4 1_555 1_555
C21_3 N5_4 1_555 1_555
C12_4 H12_4 1_555 1_555
C13_4 C12_4 1_555 1_555
H13_4 C13_4 1_555 1_555
C14_4 H14_4 1_555 1_555
H21_4 C18_4 1_555 1_555
H22_4 C18_4 1_555 1_555
N3_2 C12_4 1_555 1_555
N4_4 C13_4 1_555 1_555
Zn5_2 N3_2 1_555 1_555
C14_4 N3_2 1_555 1_555
C14_4 N4_4 1_555 1_555
C18_4 N4_4 1_555 1_555
Zn5_2 O3_4 1_555 1_555
C1_4 C2_4 1_555 1_555
H2_4 C2_4 1_555 1_555
C3_4 C2_4 1_555 1_555
H3_4 C3_4 1_555 1_555
H4_4 C3_4 1_555 1_555
C4_4 C3_4 1_555 1_555
C21_4 H25_4 1_555 1_555
C25_4 H29_4 1_555 1_555
H30_4 C25_4 1_555 1_555
C26_4 C25_4 1_555 1_555
H31_4 C26_4 1_555 1_555
H32_4 C26_4 1_555 1_555
H35_4 C28_4 1_555 1_555
H36_4 C28_4 1_555 1_555
O2_4 C1_4 1_555 1_555
O3_4 C4_4 1_555 1_555
O4_4 C4_4 1_555 1_555
C1_4 O1_4 1_555 1_555
C21_4 N6_4 1_555 1_555
C25_4 N6_4 1_555 1_555

#END
