
###############################################################################
#
# This file contains modified crystal structure data generated from the
# MOF subset of the Cambridge Structural Database (CSD) v543 
# hosted by the Cambridge Crystallographic Data Centre (CCDC).
#
# This work is licensed under the Creative Commons
# Attribution-NonCommercial-ShareAlike 4.0 International License.
# To view a copy of this license, visit
# http://creativecommons.org/licenses/by-nc-sa/4.0/
# or send a letter to
# Creative Commons, PO Box 1866, Mountain View, CA 94042, USA.
#
# CIF created using the CSD Python API on 29 September 2022
# The structure has been converted into the P1 space group
# The structure has a 3D framework
# The original CSD entry KIJKIA is in the triclinic crystal system
# The framework has been calculated to contain at least 10.0% void space
# The void calculation uses a probe of radius 1.32A, grid spacing 0.4
#
###############################################################################

data_KIJKIA
_chemical_formula_moiety         '(C84 H56 O32 P4 Tb4)n'
_symmetry_cell_setting           triclinic
_symmetry_space_group_name_H-M   'P 1'
_symmetry_Int_Tables_number      1
_space_group_name_Hall           'P 1'
loop_
_symmetry_equiv_pos_site_id
_symmetry_equiv_pos_as_xyz
1 x,y,z
_cell_length_a                   10.5009(6)
_cell_length_b                   14.7691(9)
_cell_length_c                   23.2553(13)
_cell_angle_alpha                72.140(2)
_cell_angle_beta                 89.482(2)
_cell_angle_gamma                87.778(2)
_cell_volume                     3430.23
loop_
_atom_site_label
_atom_site_type_symbol
_atom_site_fract_x
_atom_site_fract_y
_atom_site_fract_z
O8 O 0.4053(9) 0.2180(6) 0.7843(4)
O9 O 0.6088(9) 0.1757(6) 0.7732(5)
C16 C 0.3407(12) 0.0269(9) 0.8241(6)
H12 H 0.277689 0.075203 0.815448
C17 C 0.4652(11) 0.0512(8) 0.8162(5)
C18 C 0.4956(12) 0.1552(8) 0.7902(5)
Tb5 Tb 0.54626(5) 0.34304(4) 0.72497(2)
Tb1 Tb 0.45374(5) 0.65696(4) 0.27503(2)
Tb2 Tb 0.41955(5) 0.34074(4) 0.22448(2)
P2 P 0.3461(3) 0.26547(19) 0.61926(12)
O1 O 0.4232(11) 0.5025(6) 0.3252(4)
O2 O 0.3976(11) 0.3585(6) 0.3180(4)
O3 O 0.3668(11) 0.4965(6) 0.1769(4)
O4 O 0.4342(10) 0.6333(6) 0.1826(3)
O10 O 0.6118(9) 0.4175(9) 0.2273(5)
H1 H 0.576889 0.470745 0.211511
H2 H 0.616479 0.424115 0.262851
O11 O 0.4345(7) 0.3195(6) 0.6480(3)
O16 O 0.6564(10) 0.5735(7) 0.2697(5)
H3 H 0.698014 0.615131 0.278230
H4 H 0.668204 0.575461 0.231540
C1 C 0.3989(11) 0.4171(7) 0.3473(5)
C2 C 0.4004(11) 0.5815(7) 0.1541(5)
C3 C 0.3912(12) 0.6207(7) 0.0857(5)
C4 C 0.3777(15) 0.5633(9) 0.0507(5)
H5 H 0.372811 0.498071 0.069040
C22 C 0.4027(16) 0.7170(9) 0.0585(5)
H16 H 0.417720 0.756663 0.081841
C23 C 0.3854(11) 0.3794(7) 0.4141(5)
C24 C 0.3736(17) 0.2841(8) 0.4420(5)
H17 H 0.374081 0.242688 0.418826
C25 C 0.3609(17) 0.2484(9) 0.5036(5)
H18 H 0.352916 0.183310 0.521591
C26 C 0.3600(11) 0.3073(7) 0.5388(4)
C27 C 0.1857(10) 0.2792(8) 0.6373(5)
C28 C 0.0858(13) 0.2968(14) 0.5962(7)
H19 H 0.104390 0.298528 0.556746
C32 C 0.0247(14) 0.2824(10) 0.7116(6)
H21 H 0.002294 0.275969 0.751373
C33 C 0.1521(12) 0.2683(9) 0.6970(6)
H22 H 0.214027 0.251761 0.727166
C34 C 0.3915(10) 0.1401(7) 0.6436(4)
C35 C 0.2980(13) 0.0713(8) 0.6565(6)
H23 H 0.211499 0.087995 0.652577
C39 C 0.5608(16) 0.0215(9) 0.6719(6)
H25 H 0.647104 0.004500 0.677311
C40 C 0.5219(13) 0.1155(9) 0.6512(6)
H26 H 0.581626 0.162718 0.642262
C41 C 0.3702(15) 0.4054(8) 0.5098(5)
H27 H 0.369632 0.447354 0.532625
C42 C 0.3809(16) 0.4392(9) 0.4491(5)
H28 H 0.385339 0.504493 0.430656
O17 O 0.5373(8) 0.3184(5) 0.1477(3)
O18 O 0.1840(8) 0.3379(5) 0.2332(4)
O19 O 0.2657(7) 0.3146(6) 0.1530(4)
O20 O 0.5947(9) 0.7820(6) 0.2157(4)
O21 O 0.3912(9) 0.8243(6) 0.2268(5)
O22 O 0.5655(7) 0.6805(6) 0.3520(3)
O23 O 0.2156(7) 0.6565(5) 0.2662(3)
O24 O 0.2967(7) 0.6839(7) 0.3468(4)
O25 O 0.5711(9) 0.2146(6) 0.2818(4)
O26 O 0.3725(9) 0.1735(6) 0.2724(4)
P1 P 0.3671(3) 0.73776(19) 0.88057(12)
O5 O 0.4627(8) 0.6816(5) 0.8523(3)
C5 C 0.3712(15) 0.5983(8) 0.9905(5)
H6 H 0.360786 0.557336 0.967592
C6 C 0.3801(12) 0.6960(7) 0.9616(4)
C7 C 0.2084(11) 0.7262(8) 0.8609(5)
C8 C 0.1082(12) 0.7203(11) 0.8989(7)
H7 H 0.123730 0.729340 0.936051
C12 C 0.0608(13) 0.7069(11) 0.7889(5)
H9 H 0.044173 0.701245 0.751017
C13 C 0.1776(14) 0.7250(12) 0.8029(6)
H10 H 0.240256 0.737076 0.773286
C14 C 0.4050(11) 0.8624(8) 0.8564(5)
C15 C 0.3046(14) 0.9341(10) 0.8442(6)
H11 H 0.219424 0.918717 0.849647
C19 C 0.5597(10) 0.9812(8) 0.8285(5)
H13 H 0.644683 0.997215 0.822940
C20 C 0.5280(13) 0.8856(9) 0.8495(6)
H14 H 0.592004 0.837993 0.858699
C21 C 0.3918(16) 0.7546(9) 0.9964(5)
H15 H 0.392476 0.820108 0.978333
Tb8 Tb 0.58045(5) 0.65926(4) 0.77552(2)
O14 O 0.4289(9) 0.7854(6) 0.7182(4)
O15 O 0.6275(9) 0.8265(6) 0.7276(4)
C36 C 0.3436(13) 0.9731(8) 0.6760(6)
H24 H 0.286007 0.924763 0.682561
C37 C 0.4698(11) 0.9510(8) 0.6850(5)
C38 C 0.5123(12) 0.8474(8) 0.7110(5)
O12 O 0.7844(7) 0.3435(5) 0.7338(3)
O13 O 0.7033(7) 0.3161(7) 0.6532(4)
C29 C 0.9604(13) 0.3118(13) 0.6105(7)
H20 H 0.895959 0.326026 0.581569
C30 C 0.9367(10) 0.3047(9) 0.6692(5)
C31 C 0.8011(12) 0.3215(9) 0.6847(6)
O6 O 0.8160(8) 0.6621(5) 0.7668(4)
O7 O 0.7343(7) 0.6854(6) 0.8470(4)
C9 C 0.9832(14) 0.7015(12) 0.8867(7)
H8 H 0.918026 0.693114 0.915006
C10 C 0.9657(10) 0.6968(8) 0.8302(6)
C11 C 0.8233(12) 0.6817(9) 0.8133(6)
C9_2 C 0.0168(14) 0.2985(12) 0.1133(7)
H8_2 H 0.081974 0.306886 0.084994
C10_2 C 0.0343(10) 0.3032(8) 0.1698(6)
C11_2 C 0.1767(12) 0.3183(9) 0.1867(6)
C29_2 C 0.0396(13) 0.6882(13) 0.3895(7)
H20_2 H 0.104041 0.673974 0.418431
C30_2 C 0.0633(10) 0.6953(9) 0.3308(5)
C31_2 C 0.1989(12) 0.6785(9) 0.3153(6)
C36_2 C 0.6564(13) 0.0269(8) 0.3240(6)
H24_2 H 0.713993 0.075237 0.317439
C37_2 C 0.5302(11) 0.0490(8) 0.3150(5)
C38_2 C 0.4877(12) 0.1526(8) 0.2890(5)
P1_2 P 0.6329(3) 0.26224(19) 0.11943(12)
C5_2 C 0.6288(15) 0.4017(8) 0.0095(5)
H6_2 H 0.639214 0.442664 0.032408
C6_2 C 0.6199(12) 0.3040(7) 0.0384(4)
C7_2 C 0.7916(11) 0.2738(8) 0.1391(5)
C8_2 C 0.8918(12) 0.2797(11) 0.1011(7)
H7_2 H 0.876270 0.270660 0.063949
C12_2 C 0.9392(13) 0.2931(11) 0.2111(5)
H9_2 H 0.955827 0.298755 0.248983
C13_2 C 0.8224(14) 0.2750(12) 0.1971(6)
H10_2 H 0.759744 0.262924 0.226714
C14_2 C 0.5950(11) 0.1376(8) 0.1436(5)
C15_2 C 0.6954(14) 0.0659(10) 0.1558(6)
H11_2 H 0.780576 0.081283 0.150353
C19_2 C 0.4403(10) 0.0188(8) 0.1715(5)
H13_2 H 0.355317 0.002785 0.177060
C20_2 C 0.4720(13) 0.1144(9) 0.1505(6)
H14_2 H 0.407996 0.162007 0.141301
C21_2 C 0.6082(16) 0.2454(9) 0.0036(5)
H15_2 H 0.607524 0.179892 0.021667
P2_2 P 0.6539(3) 0.73453(19) 0.38074(12)
O1_2 O 0.5768(11) 0.4975(6) 0.6748(4)
O2_2 O 0.6024(11) 0.6415(6) 0.6820(4)
O3_2 O 0.6332(11) 0.5035(6) 0.8231(4)
O4_2 O 0.5658(10) 0.3667(6) 0.8174(3)
O10_2 O 0.3882(9) 0.5825(9) 0.7727(5)
H1_2 H 0.423111 0.529255 0.788489
H2_2 H 0.383521 0.575885 0.737149
O16_2 O 0.3436(10) 0.4265(7) 0.7303(5)
H3_2 H 0.301986 0.384869 0.721770
H4_2 H 0.331796 0.424539 0.768460
C1_2 C 0.6011(11) 0.5829(7) 0.6527(5)
C2_2 C 0.5996(11) 0.4185(7) 0.8459(5)
C3_2 C 0.6088(12) 0.3793(7) 0.9143(5)
C4_2 C 0.6223(15) 0.4367(9) 0.9493(5)
H5_2 H 0.627189 0.501929 0.930960
C22_2 C 0.5973(16) 0.2830(9) 0.9415(5)
H16_2 H 0.582280 0.243337 0.918159
C23_2 C 0.6146(11) 0.6206(7) 0.5859(5)
C24_2 C 0.6264(17) 0.7159(8) 0.5580(5)
H17_2 H 0.625919 0.757312 0.581174
C25_2 C 0.6391(17) 0.7516(9) 0.4964(5)
H18_2 H 0.647084 0.816690 0.478409
C26_2 C 0.6400(11) 0.6927(7) 0.4612(4)
C27_2 C 0.8143(10) 0.7208(8) 0.3627(5)
C28_2 C 0.9142(13) 0.7032(14) 0.4038(7)
H19_2 H 0.895610 0.701472 0.443254
C32_2 C 0.9753(14) 0.7176(10) 0.2884(6)
H21_2 H 0.997706 0.724031 0.248627
C33_2 C 0.8479(12) 0.7317(9) 0.3030(6)
H22_2 H 0.785973 0.748239 0.272834
C34_2 C 0.6085(10) 0.8599(7) 0.3564(4)
C35_2 C 0.7020(13) 0.9287(8) 0.3435(6)
H23_2 H 0.788501 0.912005 0.347423
C39_2 C 0.4392(16) 0.9785(9) 0.3281(6)
H25_2 H 0.352896 0.995500 0.322689
C40_2 C 0.4781(13) 0.8845(9) 0.3488(6)
H26_2 H 0.418374 0.837282 0.357738
C41_2 C 0.6298(15) 0.5946(8) 0.4902(5)
H27_2 H 0.630368 0.552646 0.467375
C42_2 C 0.6191(16) 0.5608(9) 0.5509(5)
H28_2 H 0.614661 0.495507 0.569344
C16_2 C 0.6593(12) 0.9731(9) 0.1759(6)
H12_2 H 0.722311 0.924797 0.184552
C17_2 C 0.5348(11) 0.9488(8) 0.1838(5)
C18_2 C 0.5044(12) 0.8448(8) 0.2098(5)
loop_
_geom_bond_atom_site_label_1
_geom_bond_atom_site_label_2
_geom_bond_site_symmetry_1
_geom_bond_site_symmetry_2
O8 C18 1_555 1_555
O9 C18 1_555 1_555
H12 C16 1_555 1_555
C17 C16 1_555 1_555
C18 C17 1_555 1_555
Tb5 O8 1_555 1_555
O9 Tb5 1_555 1_555
Tb1 O1 1_555 1_555
Tb2 O2 1_555 1_555
P2 O11 1_555 1_555
O1 C1 1_555 1_555
O2 C1 1_555 1_555
O3 Tb2 1_555 1_555
O4 Tb1 1_555 1_555
O10 Tb2 1_555 1_555
H1 O10 1_555 1_555
H2 O10 1_555 1_555
O11 Tb5 1_555 1_555
O16 Tb1 1_555 1_555
H3 O16 1_555 1_555
H4 O16 1_555 1_555
C1 C23 1_555 1_555
C2 O3 1_555 1_555
C3 C2 1_555 1_555
C4 C3 1_555 1_555
H5 C4 1_555 1_555
C22 C3 1_555 1_555
H16 C22 1_555 1_555
C23 C24 1_555 1_555
C24 H17 1_555 1_555
C25 C24 1_555 1_555
H18 C25 1_555 1_555
C26 P2 1_555 1_555
C27 P2 1_555 1_555
C28 C27 1_555 1_555
H19 C28 1_555 1_555
H21 C32 1_555 1_555
C33 C27 1_555 1_555
H22 C33 1_555 1_555
C34 P2 1_555 1_555
C35 C34 1_555 1_555
H23 C35 1_555 1_555
H25 C39 1_555 1_555
C40 C34 1_555 1_555
H26 C40 1_555 1_555
C41 C26 1_555 1_555
H27 C41 1_555 1_555
C42 C23 1_555 1_555
H28 C42 1_555 1_555
O17 Tb2 1_555 1_555
O18 Tb2 1_555 1_555
O19 Tb2 1_555 1_555
O20 Tb1 1_555 1_555
O21 Tb1 1_555 1_555
O22 Tb1 1_555 1_555
O23 Tb1 1_555 1_555
O24 Tb1 1_555 1_555
O25 Tb2 1_555 1_555
O26 Tb2 1_555 1_555
O4 C2 1_555 1_555
C25 C26 1_555 1_555
C32 C33 1_555 1_555
C39 C40 1_555 1_555
C41 C42 1_555 1_555
P1 O5 1_555 1_555
O5 Tb8 1_555 1_555
H6 C5 1_555 1_555
C6 P1 1_555 1_555
C7 P1 1_555 1_555
C8 C7 1_555 1_555
H7 C8 1_555 1_555
H9 C12 1_555 1_555
C13 C7 1_555 1_555
H10 C13 1_555 1_555
C14 P1 1_555 1_555
C15 C14 1_555 1_555
H11 C15 1_555 1_555
H13 C19 1_555 1_555
C20 C14 1_555 1_555
H14 C20 1_555 1_555
C21 C6 1_555 1_555
H15 C21 1_555 1_555
C5 C6 1_555 1_555
C12 C13 1_555 1_555
C19 C20 1_555 1_555
O14 C38 1_555 1_555
O15 C38 1_555 1_555
H24 C36 1_555 1_555
C37 C36 1_555 1_555
C38 C37 1_555 1_555
Tb8 O14 1_555 1_555
O15 Tb8 1_555 1_555
O12 C31 1_555 1_555
O13 C31 1_555 1_555
H20 C29 1_555 1_555
C30 C29 1_555 1_555
C31 C30 1_555 1_555
Tb5 O12 1_555 1_555
O13 Tb5 1_555 1_555
O6 C11 1_555 1_555
O7 C11 1_555 1_555
H8 C9 1_555 1_555
C10 C9 1_555 1_555
C11 C10 1_555 1_555
Tb8 O6 1_555 1_555
O7 Tb8 1_555 1_555
O18 C11_2 1_555 1_555
O19 C11_2 1_555 1_555
H8_2 C9_2 1_555 1_555
C10_2 C9_2 1_555 1_555
C11_2 C10_2 1_555 1_555
O23 C31_2 1_555 1_555
O24 C31_2 1_555 1_555
H20_2 C29_2 1_555 1_555
C30_2 C29_2 1_555 1_555
C31_2 C30_2 1_555 1_555
O25 C38_2 1_555 1_555
O26 C38_2 1_555 1_555
H24_2 C36_2 1_555 1_555
C37_2 C36_2 1_555 1_555
C38_2 C37_2 1_555 1_555
P1_2 O17 1_555 1_555
H6_2 C5_2 1_555 1_555
C6_2 P1_2 1_555 1_555
C7_2 P1_2 1_555 1_555
C8_2 C7_2 1_555 1_555
H7_2 C8_2 1_555 1_555
H9_2 C12_2 1_555 1_555
C13_2 C7_2 1_555 1_555
H10_2 C13_2 1_555 1_555
C14_2 P1_2 1_555 1_555
C15_2 C14_2 1_555 1_555
H11_2 C15_2 1_555 1_555
H13_2 C19_2 1_555 1_555
C20_2 C14_2 1_555 1_555
H14_2 C20_2 1_555 1_555
C21_2 C6_2 1_555 1_555
H15_2 C21_2 1_555 1_555
C5_2 C6_2 1_555 1_555
C12_2 C13_2 1_555 1_555
C19_2 C20_2 1_555 1_555
Tb5 O1_2 1_555 1_555
Tb8 O2_2 1_555 1_555
P2_2 O22 1_555 1_555
O1_2 C1_2 1_555 1_555
O2_2 C1_2 1_555 1_555
O3_2 Tb8 1_555 1_555
O4_2 Tb5 1_555 1_555
O10_2 Tb8 1_555 1_555
H1_2 O10_2 1_555 1_555
H2_2 O10_2 1_555 1_555
O16_2 Tb5 1_555 1_555
H3_2 O16_2 1_555 1_555
H4_2 O16_2 1_555 1_555
C1_2 C23_2 1_555 1_555
C2_2 O3_2 1_555 1_555
C3_2 C2_2 1_555 1_555
C4_2 C3_2 1_555 1_555
H5_2 C4_2 1_555 1_555
C22_2 C3_2 1_555 1_555
H16_2 C22_2 1_555 1_555
C23_2 C24_2 1_555 1_555
C24_2 H17_2 1_555 1_555
C25_2 C24_2 1_555 1_555
H18_2 C25_2 1_555 1_555
C26_2 P2_2 1_555 1_555
C27_2 P2_2 1_555 1_555
C28_2 C27_2 1_555 1_555
H19_2 C28_2 1_555 1_555
H21_2 C32_2 1_555 1_555
C33_2 C27_2 1_555 1_555
H22_2 C33_2 1_555 1_555
C34_2 P2_2 1_555 1_555
C35_2 C34_2 1_555 1_555
H23_2 C35_2 1_555 1_555
H25_2 C39_2 1_555 1_555
C40_2 C34_2 1_555 1_555
H26_2 C40_2 1_555 1_555
C41_2 C26_2 1_555 1_555
H27_2 C41_2 1_555 1_555
C42_2 C23_2 1_555 1_555
H28_2 C42_2 1_555 1_555
O4_2 C2_2 1_555 1_555
C25_2 C26_2 1_555 1_555
C32_2 C33_2 1_555 1_555
C39_2 C40_2 1_555 1_555
C41_2 C42_2 1_555 1_555
O20 C18_2 1_555 1_555
O21 C18_2 1_555 1_555
H12_2 C16_2 1_555 1_555
C17_2 C16_2 1_555 1_555
C18_2 C17_2 1_555 1_555

#END
