
###############################################################################
#
# This file contains modified crystal structure data generated from the
# MOF subset of the Cambridge Structural Database (CSD) v543 
# hosted by the Cambridge Crystallographic Data Centre (CCDC).
#
# This work is licensed under the Creative Commons
# Attribution-NonCommercial-ShareAlike 4.0 International License.
# To view a copy of this license, visit
# http://creativecommons.org/licenses/by-nc-sa/4.0/
# or send a letter to
# Creative Commons, PO Box 1866, Mountain View, CA 94042, USA.
#
# CIF created using the CSD Python API on 29 September 2022
# The structure has been converted into the P1 space group
# The structure has a 3D framework
# The original CSD entry KIKFES is in the orthorhombic crystal system
# The original CSD entry KIKFES is in a Sohncke space group
# The framework has been calculated to contain at least 10.0% void space
# The void calculation uses a probe of radius 1.32A, grid spacing 0.4
#
###############################################################################

data_KIKFES
_chemical_formula_moiety         '(C144 H96 Cd4 N16 O24)n'
_symmetry_cell_setting           triclinic
_symmetry_space_group_name_H-M   'P 1'
_symmetry_Int_Tables_number      1
_space_group_name_Hall           'P 1'
loop_
_symmetry_equiv_pos_site_id
_symmetry_equiv_pos_as_xyz
1 x,y,z
_cell_length_a                   13.8223(11)
_cell_length_b                   25.3271(17)
_cell_length_c                   11.6674(9)
_cell_angle_alpha                90
_cell_angle_beta                 90
_cell_angle_gamma                90
_cell_volume                     4084.51
loop_
_atom_site_label
_atom_site_type_symbol
_atom_site_fract_x
_atom_site_fract_y
_atom_site_fract_z
C20 C 0.0188(8) 0.6765(4) 0.1145(10)
H13 H 0.013422 0.712661 0.126456
C21 C 0.1028(7) 0.6559(4) 0.0668(9)
H14 H 0.153890 0.678379 0.049065
C22 C 0.1111(6) 0.6039(3) 0.0458(8)
C23 C 0.0362(7) 0.5711(4) 0.0734(11)
H15 H 0.041747 0.535134 0.058724
O5 O 0.2106(4) 0.5336(3) 0.9761(6)
O6 O 0.2717(4) 0.6130(3) 0.9762(7)
C25 C 0.2013(7) 0.5822(4) 0.9951(8)
Cd4 Cd 0.38475(5) 0.54501(3) 0.95454(5)
O5_2 O 0.7894(4) 0.4664(3) 0.9761(6)
O6_2 O 0.7283(4) 0.3870(3) 0.9762(7)
C25_2 C 0.7987(7) 0.4178(4) 0.9951(8)
Cd4_2 Cd 0.61525(5) 0.45499(3) 0.95454(5)
N5 N 0.3933(6) 0.5414(3) 0.1533(6)
O1 O 0.4945(4) 0.6136(2) 0.9494(6)
O2 O 0.5877(4) 0.5438(2) 0.9503(6)
O3 O 0.9483(5) 0.6777(3) 0.6550(7)
N1 N 0.8887(6) 0.7233(3) 0.8055(7)
H1 H 0.885751 0.753672 0.850652
N3 N 0.3864(6) 0.5419(3) 0.7574(5)
C1 C 0.5761(6) 0.5922(3) 0.9381(7)
C2 C 0.6591(6) 0.6262(3) 0.9041(7)
C3 C 0.7507(6) 0.6062(4) 0.8999(8)
H3 H 0.761760 0.571164 0.919909
C4 C 0.8279(6) 0.6382(4) 0.8656(9)
H4 H 0.890141 0.624347 0.862644
C5 C 0.7186(7) 0.7100(4) 0.8411(9)
H5 H 0.706862 0.744988 0.821089
C6 C 0.6436(6) 0.6784(4) 0.8753(8)
H6 H 0.581435 0.692227 0.879133
C7 C 0.9545(7) 0.7149(4) 0.7214(10)
H12 H 0.973772 0.750226 0.510619
C26 C 0.4168(7) 0.5834(4) 0.6983(8)
H17 H 0.438714 0.612900 0.738114
C27 C 0.4172(7) 0.5845(4) 0.5801(7)
H18 H 0.438853 0.614558 0.542086
C28 C 0.3859(6) 0.5418(4) 0.5183(6)
C29 C 0.3546(7) 0.4992(4) 0.5794(8)
H19 H 0.333006 0.469188 0.541358
C30 C 0.3549(7) 0.5006(4) 0.6980(8)
H20 H 0.332053 0.471385 0.737856
C31 C 0.3892(6) 0.5425(4) 0.3900(6)
C32 C 0.4551(7) 0.5716(4) 0.3308(8)
H21 H 0.499668 0.592659 0.369461
C33 C 0.4549(7) 0.5695(4) 0.2116(8)
H22 H 0.500805 0.589067 0.171782
C34 C 0.3302(8) 0.5128(4) 0.2086(8)
H23 H 0.287026 0.492209 0.166888
C35 C 0.3252(7) 0.5120(4) 0.3284(8)
H24 H 0.279459 0.491224 0.365740
C36 C 0.8117(7) 0.6902(4) 0.8362(8)
O7 O 0.4123(4) 0.4562(2) 0.9503(6)
N5_2 N 0.6067(6) 0.4586(3) 0.1533(6)
O1_2 O 0.5055(4) 0.3864(2) 0.9494(6)
O3_2 O 0.0517(5) 0.3223(3) 0.6550(7)
N1_2 N 0.1113(6) 0.2767(3) 0.8055(7)
H1_2 H 0.114249 0.246328 0.850652
N3_2 N 0.6136(6) 0.4581(3) 0.7574(5)
C1_2 C 0.4239(6) 0.4078(3) 0.9381(7)
C2_2 C 0.3409(6) 0.3738(3) 0.9041(7)
C3_2 C 0.2493(6) 0.3938(4) 0.8999(8)
H3_2 H 0.238240 0.428836 0.919909
C4_2 C 0.1721(6) 0.3618(4) 0.8656(9)
H4_2 H 0.109859 0.375653 0.862644
C5_2 C 0.2814(7) 0.2900(4) 0.8411(9)
H5_2 H 0.293138 0.255012 0.821089
C6_2 C 0.3564(6) 0.3216(4) 0.8753(8)
H6_2 H 0.418565 0.307773 0.879133
C7_2 C 0.0455(7) 0.2851(4) 0.7214(10)
H12_2 H 0.026228 0.249774 0.510619
C26_2 C 0.5832(7) 0.4166(4) 0.6983(8)
H17_2 H 0.561286 0.387100 0.738114
C27_2 C 0.5828(7) 0.4155(4) 0.5801(7)
H18_2 H 0.561147 0.385442 0.542086
C28_2 C 0.6141(6) 0.4582(4) 0.5183(6)
C29_2 C 0.6454(7) 0.5008(4) 0.5794(8)
H19_2 H 0.666994 0.530812 0.541358
C30_2 C 0.6451(7) 0.4994(4) 0.6980(8)
H20_2 H 0.667947 0.528615 0.737856
C31_2 C 0.6108(6) 0.4575(4) 0.3900(6)
C32_2 C 0.5449(7) 0.4284(4) 0.3308(8)
H21_2 H 0.500332 0.407341 0.369461
C33_2 C 0.5451(7) 0.4305(4) 0.2116(8)
H22_2 H 0.499195 0.410933 0.171782
C34_2 C 0.6698(8) 0.4872(4) 0.2086(8)
H23_2 H 0.712974 0.507791 0.166888
C35_2 C 0.6748(7) 0.4880(4) 0.3284(8)
H24_2 H 0.720541 0.508776 0.365740
C36_2 C 0.1883(7) 0.3098(4) 0.8362(8)
Cd3 Cd 0.11525(5) 0.04501(3) 0.04546(5)
O1_3 O 0.0055(4) 0.1136(2) 0.0506(6)
N3_3 N 0.1136(6) 0.0419(3) 0.2426(5)
N4 N 0.1067(6) 0.0414(3) 0.8467(6)
C26_3 C 0.0832(7) 0.0834(4) 0.3017(8)
H17_3 H 0.061286 0.112900 0.261886
C27_3 C 0.0828(7) 0.0845(4) 0.4199(7)
H18_3 H 0.061147 0.114558 0.457914
C28_3 C 0.1141(6) 0.0418(4) 0.4817(6)
C30_3 C 0.1451(7) 0.0006(4) 0.3020(8)
C31_3 C 0.1108(6) 0.0425(4) 0.6100(6)
C32_3 C 0.0449(7) 0.0716(4) 0.6692(8)
H21_3 H 0.000332 0.092659 0.630539
C33_3 C 0.0451(7) 0.0695(4) 0.7884(8)
C34_3 C 0.1698(8) 0.0128(4) 0.7914(8)
C35_3 C 0.1748(7) 0.0120(4) 0.6716(8)
O8 O 0.2894(4) 0.0336(3) 0.0239(6)
O9 O 0.2283(4) 0.1130(3) 0.0238(7)
C25_3 C 0.2987(7) 0.0822(4) 0.0049(8)
O2_2 O 0.0877(4) 0.9562(2) 0.0497(6)
O3_3 O 0.4483(5) 0.8223(3) 0.3450(7)
O4 O 0.7802(5) 0.5977(3) 0.2674(7)
N1_3 N 0.3887(6) 0.7767(3) 0.1945(7)
H1_3 H 0.385751 0.746328 0.149348
N2 N 0.8604(5) 0.6678(3) 0.1895(7)
H2 H 0.865541 0.703436 0.194239
C1_3 C 0.0761(6) 0.9078(3) 0.0619(7)
C2_3 C 0.1591(6) 0.8738(3) 0.0959(7)
C3_3 C 0.2507(6) 0.8938(4) 0.1001(8)
H3_3 H 0.261760 0.928836 0.080091
C4_3 C 0.3279(6) 0.8618(4) 0.1344(9)
H4_3 H 0.390141 0.875653 0.137356
C5_3 C 0.2186(7) 0.7900(4) 0.1589(9)
H5_3 H 0.206862 0.755012 0.178911
C6_3 C 0.1436(6) 0.8216(4) 0.1247(8)
H6_3 H 0.081435 0.807773 0.120867
C7_3 C 0.4545(7) 0.7851(4) 0.2786(10)
C8 C 0.5384(6) 0.7473(4) 0.2761(8)
C9 C 0.5852(7) 0.7407(4) 0.1735(9)
H7 H 0.562359 0.757736 0.108212
C10 C 0.6674(7) 0.7083(5) 0.1666(9)
H8 H 0.700493 0.705509 0.097499
C11 C 0.6992(6) 0.6811(4) 0.2591(8)
C12 C 0.6526(6) 0.6866(4) 0.3669(8)
C13 C 0.6834(7) 0.6594(4) 0.4660(9)
H9 H 0.735304 0.636180 0.461241
C14 C 0.6388(7) 0.6666(4) 0.5669(9)
H10 H 0.660393 0.648286 0.631105
C15 C 0.5603(7) 0.7012(5) 0.5769(9)
H11 H 0.530936 0.706359 0.647722
C16 C 0.5269(7) 0.7274(4) 0.4826(8)
H12_3 H 0.473772 0.749774 0.489381
C17 C 0.5712(6) 0.7211(4) 0.3771(8)
C18 C 0.7839(6) 0.6444(4) 0.2412(8)
C19 C 0.9429(6) 0.6434(4) 0.1446(9)
C24 C 0.9524(7) 0.5903(4) 0.1229(11)
H16 H 0.902314 0.567323 0.141359
H22_3 H 0.000805 0.910933 0.828218
C36_3 C 0.3117(7) 0.8098(4) 0.1638(8)
C29_3 C 0.1454(7) 0.9992(4) 0.4206(8)
H19_3 H 0.166994 0.969188 0.458642
H20_3 H 0.167947 0.971385 0.262144
H23_3 H 0.212974 0.992209 0.833112
H24_3 H 0.220541 0.991224 0.634260
C29_4 C 0.8546(7) 0.0008(4) 0.4206(8)
H19_4 H 0.833006 0.030812 0.458642
H20_4 H 0.832053 0.028615 0.262144
H23_4 H 0.787026 0.007791 0.833112
H24_4 H 0.779459 0.008776 0.634260
O7_2 O 0.9123(4) 0.0438(2) 0.0497(6)
O3_4 O 0.5517(5) 0.1777(3) 0.3450(7)
O4_2 O 0.2198(5) 0.4023(3) 0.2674(7)
N1_4 N 0.6113(6) 0.2233(3) 0.1945(7)
H1_4 H 0.614249 0.253672 0.149348
N2_2 N 0.1396(5) 0.3322(3) 0.1895(7)
H2_2 H 0.134459 0.296564 0.194239
C1_4 C 0.9239(6) 0.0922(3) 0.0619(7)
C2_4 C 0.8409(6) 0.1262(3) 0.0959(7)
C3_4 C 0.7493(6) 0.1062(4) 0.1001(8)
H3_4 H 0.738240 0.071164 0.080091
C4_4 C 0.6721(6) 0.1382(4) 0.1344(9)
H4_4 H 0.609859 0.124347 0.137356
C5_4 C 0.7814(7) 0.2100(4) 0.1589(9)
H5_4 H 0.793138 0.244988 0.178911
C6_4 C 0.8564(6) 0.1784(4) 0.1247(8)
H6_4 H 0.918565 0.192227 0.120867
C7_4 C 0.5455(7) 0.2149(4) 0.2786(10)
C8_2 C 0.4616(6) 0.2527(4) 0.2761(8)
C9_2 C 0.4148(7) 0.2593(4) 0.1735(9)
H7_2 H 0.437641 0.242264 0.108212
C10_2 C 0.3326(7) 0.2917(5) 0.1666(9)
H8_2 H 0.299507 0.294491 0.097499
C11_2 C 0.3008(6) 0.3189(4) 0.2591(8)
C12_2 C 0.3474(6) 0.3134(4) 0.3669(8)
C13_2 C 0.3166(7) 0.3406(4) 0.4660(9)
H9_2 H 0.264696 0.363820 0.461241
C14_2 C 0.3612(7) 0.3334(4) 0.5669(9)
H10_2 H 0.339607 0.351714 0.631105
C15_2 C 0.4397(7) 0.2988(5) 0.5769(9)
H11_2 H 0.469064 0.293641 0.647722
C16_2 C 0.4731(7) 0.2726(4) 0.4826(8)
H12_4 H 0.526228 0.250226 0.489381
C17_2 C 0.4288(6) 0.2789(4) 0.3771(8)
C18_2 C 0.2161(6) 0.3556(4) 0.2412(8)
C19_2 C 0.0571(6) 0.3566(4) 0.1446(9)
C24_2 C 0.0476(7) 0.4097(4) 0.1229(11)
H16_2 H 0.097686 0.432677 0.141359
H22_4 H 0.999195 0.089067 0.828218
C36_4 C 0.6883(7) 0.1902(4) 0.1638(8)
Cd2 Cd 0.88475(5) 0.95499(3) 0.04546(5)
O1_4 O 0.9945(4) 0.8864(2) 0.0506(6)
N3_4 N 0.8864(6) 0.9581(3) 0.2426(5)
N4_2 N 0.8933(6) 0.9586(3) 0.8467(6)
C26_4 C 0.9168(7) 0.9166(4) 0.3017(8)
H17_4 H 0.938714 0.887100 0.261886
C27_4 C 0.9172(7) 0.9155(4) 0.4199(7)
H18_4 H 0.938853 0.885442 0.457914
C28_4 C 0.8859(6) 0.9582(4) 0.4817(6)
C30_4 C 0.8549(7) 0.9994(4) 0.3020(8)
C31_4 C 0.8892(6) 0.9575(4) 0.6100(6)
C32_4 C 0.9551(7) 0.9284(4) 0.6692(8)
H21_4 H 0.999668 0.907341 0.630539
C33_4 C 0.9549(7) 0.9305(4) 0.7884(8)
C34_4 C 0.8302(8) 0.9872(4) 0.7914(8)
C35_4 C 0.8252(7) 0.9880(4) 0.6716(8)
O8_2 O 0.7106(4) 0.9664(3) 0.0239(6)
O9_2 O 0.7717(4) 0.8870(3) 0.0238(7)
C25_4 C 0.7013(7) 0.9178(4) 0.0049(8)
C20_2 C 0.9812(8) 0.3235(4) 0.1145(10)
H13_2 H 0.986578 0.287339 0.126456
C21_2 C 0.8972(7) 0.3441(4) 0.0668(9)
H14_2 H 0.846110 0.321621 0.049065
C22_2 C 0.8889(6) 0.3961(3) 0.0458(8)
C23_2 C 0.9638(7) 0.4289(4) 0.0734(11)
H15_2 H 0.958253 0.464866 0.058724
O4_3 O 0.2802(5) 0.9023(3) 0.7326(7)
N2_3 N 0.3604(5) 0.8322(3) 0.8105(7)
H2_3 H 0.365541 0.796564 0.805761
C8_3 C 0.0384(6) 0.7527(4) 0.7239(8)
C9_3 C 0.0852(7) 0.7593(4) 0.8265(9)
H7_3 H 0.062359 0.742264 0.891788
C10_3 C 0.1674(7) 0.7917(5) 0.8334(9)
H8_3 H 0.200493 0.794491 0.902501
C11_3 C 0.1992(6) 0.8189(4) 0.7409(8)
C12_3 C 0.1526(6) 0.8134(4) 0.6331(8)
C13_3 C 0.1834(7) 0.8406(4) 0.5340(9)
H9_3 H 0.235304 0.863820 0.538759
C14_3 C 0.1388(7) 0.8334(4) 0.4331(9)
H10_3 H 0.160393 0.851714 0.368895
C15_3 C 0.0603(7) 0.7988(5) 0.4231(9)
H11_3 H 0.030936 0.793641 0.352278
C16_3 C 0.0269(7) 0.7726(4) 0.5174(8)
C17_3 C 0.0712(6) 0.7789(4) 0.6229(8)
C18_3 C 0.2839(6) 0.8556(4) 0.7588(8)
C19_3 C 0.4429(6) 0.8566(4) 0.8554(9)
C20_3 C 0.5188(8) 0.8235(4) 0.8855(10)
H13_3 H 0.513422 0.787339 0.873544
C21_3 C 0.6028(7) 0.8441(4) 0.9332(9)
H14_3 H 0.653890 0.821621 0.950935
C22_3 C 0.6111(6) 0.8961(3) 0.9542(8)
C23_3 C 0.5362(7) 0.9289(4) 0.9266(11)
H15_3 H 0.541747 0.964866 0.941276
C24_3 C 0.4524(7) 0.9097(4) 0.8771(11)
H16_3 H 0.402314 0.932677 0.858641
O4_4 O 0.7198(5) 0.0977(3) 0.7326(7)
N2_4 N 0.6396(5) 0.1678(3) 0.8105(7)
H2_4 H 0.634459 0.203436 0.805761
C8_4 C 0.9616(6) 0.2473(4) 0.7239(8)
C9_4 C 0.9148(7) 0.2407(4) 0.8265(9)
H7_4 H 0.937641 0.257736 0.891788
C10_4 C 0.8326(7) 0.2083(5) 0.8334(9)
H8_4 H 0.799507 0.205509 0.902501
C11_4 C 0.8008(6) 0.1811(4) 0.7409(8)
C12_4 C 0.8474(6) 0.1866(4) 0.6331(8)
C13_4 C 0.8166(7) 0.1594(4) 0.5340(9)
H9_4 H 0.764696 0.136180 0.538759
C14_4 C 0.8612(7) 0.1666(4) 0.4331(9)
H10_4 H 0.839607 0.148286 0.368895
C15_4 C 0.9397(7) 0.2012(5) 0.4231(9)
H11_4 H 0.969064 0.206359 0.352278
C16_4 C 0.9731(7) 0.2274(4) 0.5174(8)
C17_4 C 0.9288(6) 0.2211(4) 0.6229(8)
C18_4 C 0.7161(6) 0.1444(4) 0.7588(8)
C19_4 C 0.5571(6) 0.1434(4) 0.8554(9)
C20_4 C 0.4812(8) 0.1765(4) 0.8855(10)
H13_4 H 0.486578 0.212661 0.873544
C21_4 C 0.3972(7) 0.1559(4) 0.9332(9)
H14_4 H 0.346110 0.178379 0.950935
C22_4 C 0.3889(6) 0.1039(3) 0.9542(8)
C23_4 C 0.4638(7) 0.0711(4) 0.9266(11)
H15_4 H 0.458253 0.035134 0.941276
C24_4 C 0.5476(7) 0.0903(4) 0.8771(11)
H16_4 H 0.597686 0.067323 0.858641
loop_
_geom_bond_atom_site_label_1
_geom_bond_atom_site_label_2
_geom_bond_site_symmetry_1
_geom_bond_site_symmetry_2
H13 C20 1_555 1_555
C21 C20 1_555 1_555
H14 C21 1_555 1_555
C22 C21 1_555 1_555
C23 C22 1_555 1_555
H15 C23 1_555 1_555
O5 C25 1_555 1_555
O6 C25 1_555 1_555
Cd4 O5 1_555 1_555
O6 Cd4 1_555 1_555
O5_2 C25_2 1_555 1_555
O6_2 C25_2 1_555 1_555
Cd4_2 O5_2 1_555 1_555
O6_2 Cd4_2 1_555 1_555
Cd4 O1 1_555 1_555
O1 C1 1_555 1_555
O2 Cd4 1_555 1_555
O3 C7 1_555 1_555
N1 H1 1_555 1_555
N3 Cd4 1_555 1_555
N5 C33 1_555 1_555
C1 O2 1_555 1_555
C2 C1 1_555 1_555
C3 C2 1_555 1_555
H3 C3 1_555 1_555
C4 C3 1_555 1_555
H4 C4 1_555 1_555
C5 H5 1_555 1_555
C6 C2 1_555 1_555
H6 C6 1_555 1_555
C7 N1 1_555 1_555
C26 N3 1_555 1_555
H17 C26 1_555 1_555
C27 C26 1_555 1_555
H18 C27 1_555 1_555
C28 C27 1_555 1_555
C29 C28 1_555 1_555
H19 C29 1_555 1_555
C30 N3 1_555 1_555
H20 C30 1_555 1_555
C31 C28 1_555 1_555
C32 C31 1_555 1_555
H21 C32 1_555 1_555
C33 C32 1_555 1_555
H22 C33 1_555 1_555
C34 N5 1_555 1_555
H23 C34 1_555 1_555
C35 C31 1_555 1_555
H24 C35 1_555 1_555
C36 N1 1_555 1_555
Cd4_2 O2 1_555 1_555
O7 Cd4 1_555 1_555
C4 C36 1_555 1_555
C5 C6 1_555 1_555
C5 C36 1_555 1_555
C29 C30 1_555 1_555
C34 C35 1_555 1_555
Cd4_2 O7 1_555 1_555
Cd4_2 O1_2 1_555 1_555
O1_2 C1_2 1_555 1_555
O3_2 C7_2 1_555 1_555
N1_2 H1_2 1_555 1_555
N3_2 Cd4_2 1_555 1_555
N5_2 C33_2 1_555 1_555
C1_2 O7 1_555 1_555
C2_2 C1_2 1_555 1_555
C3_2 C2_2 1_555 1_555
H3_2 C3_2 1_555 1_555
C4_2 C3_2 1_555 1_555
H4_2 C4_2 1_555 1_555
C5_2 H5_2 1_555 1_555
C6_2 C2_2 1_555 1_555
H6_2 C6_2 1_555 1_555
C7_2 N1_2 1_555 1_555
C26_2 N3_2 1_555 1_555
H17_2 C26_2 1_555 1_555
C27_2 C26_2 1_555 1_555
H18_2 C27_2 1_555 1_555
C28_2 C27_2 1_555 1_555
C29_2 C28_2 1_555 1_555
H19_2 C29_2 1_555 1_555
C30_2 N3_2 1_555 1_555
H20_2 C30_2 1_555 1_555
C31_2 C28_2 1_555 1_555
C32_2 C31_2 1_555 1_555
H21_2 C32_2 1_555 1_555
C33_2 C32_2 1_555 1_555
H22_2 C33_2 1_555 1_555
C34_2 N5_2 1_555 1_555
H23_2 C34_2 1_555 1_555
C35_2 C31_2 1_555 1_555
H24_2 C35_2 1_555 1_555
C36_2 N1_2 1_555 1_555
C4_2 C36_2 1_555 1_555
C5_2 C6_2 1_555 1_555
C5_2 C36_2 1_555 1_555
C29_2 C30_2 1_555 1_555
C34_2 C35_2 1_555 1_555
Cd3 O1_3 1_555 1_555
N3_3 Cd3 1_555 1_555
N4 C33_3 1_555 1_555
C26_3 N3_3 1_555 1_555
H17_3 C26_3 1_555 1_555
C27_3 C26_3 1_555 1_555
H18_3 C27_3 1_555 1_555
C28_3 C27_3 1_555 1_555
C30_3 N3_3 1_555 1_555
C31_3 C28_3 1_555 1_555
C32_3 C31_3 1_555 1_555
H21_3 C32_3 1_555 1_555
C33_3 C32_3 1_555 1_555
C34_3 N4 1_555 1_555
C35_3 C31_3 1_555 1_555
O8 Cd3 1_555 1_555
O9 Cd3 1_555 1_555
C34_3 C35_3 1_555 1_555
O8 C25_3 1_555 1_555
O9 C25_3 1_555 1_555
O3_3 C7_3 1_555 1_555
O4 C18 1_555 1_555
N1_3 H1_3 1_555 1_555
N2 H2 1_555 1_555
C1_3 O2_2 1_555 1_555
C2_3 C1_3 1_555 1_555
C3_3 C2_3 1_555 1_555
H3_3 C3_3 1_555 1_555
C4_3 C3_3 1_555 1_555
H4_3 C4_3 1_555 1_555
C5_3 H5_3 1_555 1_555
C6_3 C2_3 1_555 1_555
H6_3 C6_3 1_555 1_555
C7_3 N1_3 1_555 1_555
C8 C7_3 1_555 1_555
C9 C8 1_555 1_555
H7 C9 1_555 1_555
C10 C9 1_555 1_555
H8 C10 1_555 1_555
C11 C10 1_555 1_555
C12 C11 1_555 1_555
C13 C12 1_555 1_555
H9 C13 1_555 1_555
C14 C13 1_555 1_555
H10 C14 1_555 1_555
C15 C14 1_555 1_555
H11 C15 1_555 1_555
C16 C15 1_555 1_555
H12_3 C16 1_555 1_555
C17 C8 1_555 1_555
C18 N2 1_555 1_555
C19 N2 1_555 1_555
C24 C19 1_555 1_555
H16 C24 1_555 1_555
C36_3 N1_3 1_555 1_555
C4_3 C36_3 1_555 1_555
C5_3 C6_3 1_555 1_555
C5_3 C36_3 1_555 1_555
C11 C18 1_555 1_555
C12 C17 1_555 1_555
C16 C17 1_555 1_555
H19_3 C29_3 1_555 1_555
H19_4 C29_4 1_555 1_555
O3_4 C7_4 1_555 1_555
O4_2 C18_2 1_555 1_555
N1_4 H1_4 1_555 1_555
N2_2 H2_2 1_555 1_555
C1_4 O7_2 1_555 1_555
C2_4 C1_4 1_555 1_555
C3_4 C2_4 1_555 1_555
H3_4 C3_4 1_555 1_555
C4_4 C3_4 1_555 1_555
H4_4 C4_4 1_555 1_555
C5_4 H5_4 1_555 1_555
C6_4 C2_4 1_555 1_555
H6_4 C6_4 1_555 1_555
C7_4 N1_4 1_555 1_555
C8_2 C7_4 1_555 1_555
C9_2 C8_2 1_555 1_555
H7_2 C9_2 1_555 1_555
C10_2 C9_2 1_555 1_555
H8_2 C10_2 1_555 1_555
C11_2 C10_2 1_555 1_555
C12_2 C11_2 1_555 1_555
C13_2 C12_2 1_555 1_555
H9_2 C13_2 1_555 1_555
C14_2 C13_2 1_555 1_555
H10_2 C14_2 1_555 1_555
C15_2 C14_2 1_555 1_555
H11_2 C15_2 1_555 1_555
C16_2 C15_2 1_555 1_555
H12_4 C16_2 1_555 1_555
C17_2 C8_2 1_555 1_555
C18_2 N2_2 1_555 1_555
C19_2 N2_2 1_555 1_555
C24_2 C19_2 1_555 1_555
H16_2 C24_2 1_555 1_555
C36_4 N1_4 1_555 1_555
C4_4 C36_4 1_555 1_555
C5_4 C6_4 1_555 1_555
C5_4 C36_4 1_555 1_555
C11_2 C18_2 1_555 1_555
C12_2 C17_2 1_555 1_555
C16_2 C17_2 1_555 1_555
Cd2 O1_4 1_555 1_555
N3_4 Cd2 1_555 1_555
N4_2 C33_4 1_555 1_555
C26_4 N3_4 1_555 1_555
H17_4 C26_4 1_555 1_555
C27_4 C26_4 1_555 1_555
H18_4 C27_4 1_555 1_555
C28_4 C27_4 1_555 1_555
C30_4 N3_4 1_555 1_555
C31_4 C28_4 1_555 1_555
C32_4 C31_4 1_555 1_555
H21_4 C32_4 1_555 1_555
C33_4 C32_4 1_555 1_555
C34_4 N4_2 1_555 1_555
C35_4 C31_4 1_555 1_555
O8_2 Cd2 1_555 1_555
O9_2 Cd2 1_555 1_555
C34_4 C35_4 1_555 1_555
O8_2 C25_4 1_555 1_555
O9_2 C25_4 1_555 1_555
H13_2 C20_2 1_555 1_555
C21_2 C20_2 1_555 1_555
H14_2 C21_2 1_555 1_555
C22_2 C21_2 1_555 1_555
C23_2 C22_2 1_555 1_555
H15_2 C23_2 1_555 1_555
O4_3 C18_3 1_555 1_555
N2_3 H2_3 1_555 1_555
C9_3 C8_3 1_555 1_555
H7_3 C9_3 1_555 1_555
C10_3 C9_3 1_555 1_555
H8_3 C10_3 1_555 1_555
C11_3 C10_3 1_555 1_555
C12_3 C11_3 1_555 1_555
C13_3 C12_3 1_555 1_555
H9_3 C13_3 1_555 1_555
C14_3 C13_3 1_555 1_555
H10_3 C14_3 1_555 1_555
C15_3 C14_3 1_555 1_555
H11_3 C15_3 1_555 1_555
C16_3 C15_3 1_555 1_555
C17_3 C8_3 1_555 1_555
C18_3 N2_3 1_555 1_555
C19_3 N2_3 1_555 1_555
C20_3 C19_3 1_555 1_555
H13_3 C20_3 1_555 1_555
C21_3 C20_3 1_555 1_555
H14_3 C21_3 1_555 1_555
C22_3 C21_3 1_555 1_555
C23_3 C22_3 1_555 1_555
H15_3 C23_3 1_555 1_555
C24_3 C19_3 1_555 1_555
H16_3 C24_3 1_555 1_555
C11_3 C18_3 1_555 1_555
C12_3 C17_3 1_555 1_555
C16_3 C17_3 1_555 1_555
C23_3 C24_3 1_555 1_555
O4_4 C18_4 1_555 1_555
N2_4 H2_4 1_555 1_555
C9_4 C8_4 1_555 1_555
H7_4 C9_4 1_555 1_555
C10_4 C9_4 1_555 1_555
H8_4 C10_4 1_555 1_555
C11_4 C10_4 1_555 1_555
C12_4 C11_4 1_555 1_555
C13_4 C12_4 1_555 1_555
H9_4 C13_4 1_555 1_555
C14_4 C13_4 1_555 1_555
H10_4 C14_4 1_555 1_555
C15_4 C14_4 1_555 1_555
H11_4 C15_4 1_555 1_555
C16_4 C15_4 1_555 1_555
C17_4 C8_4 1_555 1_555
C18_4 N2_4 1_555 1_555
C19_4 N2_4 1_555 1_555
C20_4 C19_4 1_555 1_555
H13_4 C20_4 1_555 1_555
C21_4 C20_4 1_555 1_555
H14_4 C21_4 1_555 1_555
C22_4 C21_4 1_555 1_555
C23_4 C22_4 1_555 1_555
H15_4 C23_4 1_555 1_555
C24_4 C19_4 1_555 1_555
H16_4 C24_4 1_555 1_555
C11_4 C18_4 1_555 1_555
C12_4 C17_4 1_555 1_555
C16_4 C17_4 1_555 1_555
C23_4 C24_4 1_555 1_555

#END
