
###############################################################################
#
# This file contains modified crystal structure data generated from the
# MOF subset of the Cambridge Structural Database (CSD) v543 
# hosted by the Cambridge Crystallographic Data Centre (CCDC).
#
# This work is licensed under the Creative Commons
# Attribution-NonCommercial-ShareAlike 4.0 International License.
# To view a copy of this license, visit
# http://creativecommons.org/licenses/by-nc-sa/4.0/
# or send a letter to
# Creative Commons, PO Box 1866, Mountain View, CA 94042, USA.
#
# CIF created using the CSD Python API on 29 September 2022
# The structure has been converted into the P1 space group
# The structure has a 3D framework
# The original CSD entry KIKRAA is in the hexagonal crystal system
# The original CSD entry KIKRAA is in a Sohncke space group
# The framework has been calculated to contain at least 10.0% void space
# The void calculation uses a probe of radius 1.32A, grid spacing 0.4
# The framework is charged, counterions have been retained in the structure
#
###############################################################################

data_KIKRAA
_chemical_formula_moiety         '(C122 H108 Cu14 N36 O16 8+)n'
_symmetry_cell_setting           triclinic
_symmetry_space_group_name_H-M   'P 1'
_symmetry_Int_Tables_number      1
_space_group_name_Hall           'P 1'
loop_
_symmetry_equiv_pos_site_id
_symmetry_equiv_pos_as_xyz
1 x,y,z
_cell_length_a                   14.940(2)
_cell_length_b                   14.940(2)
_cell_length_c                   32.690(6)
_cell_angle_alpha                90
_cell_angle_beta                 90
_cell_angle_gamma                120
_cell_volume                     6318.98
loop_
_atom_site_label
_atom_site_type_symbol
_atom_site_fract_x
_atom_site_fract_y
_atom_site_fract_z
O1 O 0.000000 0.000000 0.000000
C4 C 0.021(2) 0.2748(18) 0.0194(15)
C7 C 0.064(4) 0.385(2) 0.023(2)
H5 H 0.135561 0.416566 0.029891
H6 H 0.027358 0.399504 0.043277
Cu3 Cu 0.12880(4) 0.000000 0.000000
N7 N 0.1408(3) 0.0306(4) 0.0607(2)
N11 N 0.2654(3) 0.000000 0.000000
C20 C 0.1196(4) 0.0989(6) 0.0758(2)
C24 C 0.1214(4) 0.1210(5) 0.1163(3)
H19 H 0.101839 0.135104 0.057490
H21 H 0.108647 0.172670 0.125180
C29 C 0.1437(4) 0.0621(5) 0.1448(2)
H25 H 0.354460 0.411724 0.003179
C32 C 0.1437(4) 0.0816(6) 0.1885(2)
C35 C 0.1651(5) 0.1761(8) 0.2059(3)
C36 C 0.1214(4) 0.0004(6) 0.2170(3)
C37 C 0.1631(4) 0.1875(7) 0.2457(3)
H33 H 0.181011 0.232017 0.188944
C38 C 0.1196(4) 0.0207(7) 0.2575(2)
H35 H 0.177708 0.251530 0.255829
N13 N 0.1408(3) 0.1102(5) 0.2726(2)
Cu5 Cu 0.128800(40) 0.12880(4) 0.333333
O1_2 O -0.000000 0.000000 1.000000
H7 H 0.057264 0.411724 0.996821
Cu3_2 Cu 0.12880(4) 0.000000 1.000000
N8 N 0.2190(9) 0.1915(7) 0.9848(3)
N11_2 N 0.2654(3) 0.000000 1.000000
C22 C 0.2538(27) 0.2748(18) 0.9806(15)
C26 C 0.321(4) 0.385(2) 0.977(2)
H23 H 0.281005 0.416566 0.970109
H24 H 0.372146 0.399504 0.956723
O1_3 O 0.000000 1.000000 0.000000
Cu3_3 Cu 0.12880(4) 1.000000 0.000000
N10 N 0.0275(5) 0.8085(7) 0.0152(3)
N11_3 N 0.2654(3) 1.000000 0.000000
C21 C 0.1631(4) 0.9756(6) 0.0876(3)
C25 C 0.1651(5) 0.9890(6) 0.1274(3)
H20 H 0.177708 0.926178 0.077504
H22 H 0.181011 0.948994 0.144389
H34 H 0.108647 0.935977 0.208153
H36 H 0.101839 0.966735 0.275843
O1_4 O 0.000000 1.000000 1.000000
Cu3_4 Cu 0.12880(4) 1.000000 1.000000
N9 N 0.1102(5) 0.9694(4) 0.9393(2)
N11_4 N 0.2654(3) 1.000000 1.000000
C1 C 0.3512(5) 0.0828(7) 0.0123(3)
H1 H 0.348172 0.140632 0.020758
C2 C 0.4455(4) 0.0859(7) 0.0129(3)
H2 H 0.504763 0.144711 0.021909
C3 C 0.4500(3) 0.000000 0.000000
O1_5 O 1.000000 0.000000 0.000000
N2 N 0.9725(5) 0.1915(7) 0.0152(3)
C5 C 0.8369(4) 0.0244(6) 0.0876(3)
C8 C 0.8349(5) 0.0110(6) 0.1274(3)
H3 H 0.822292 0.073822 0.077504
H8 H 0.818989 0.051006 0.144389
C13 C 0.5500(3) 0.000000 0.000000
N4 N 0.7346(3) 0.000000 0.000000
Cu2 Cu 0.87120(4) 0.000000 0.000000
H29 H 0.891353 0.064023 0.208153
H31 H 0.898161 0.033265 0.275843
C3_2 C 0.4500(3) 0.000000 1.000000
O1_6 O 1.000000 0.000000 1.000000
C13_2 C 0.5500(3) 0.000000 1.000000
C15 C 0.6404(8) 0.0859(7) 0.9871(3)
C17 C 0.7316(9) 0.0828(7) 0.9877(3)
H13 H 0.639948 0.144711 0.978091
N4_2 N 0.7346(3) 0.000000 1.000000
H15 H 0.792460 0.140632 0.979242
Cu2_2 Cu 0.87120(4) 0.000000 1.000000
N6 N 0.8898(5) 0.0306(4) 0.9393(2)
C3_3 C 0.4500(3) 1.000000 0.000000
O1_7 O 1.000000 1.000000 0.000000
N3 N 0.8592(3) 0.9694(4) 0.0607(2)
C6 C 0.8804(4) 0.9011(6) 0.0758(2)
C9 C 0.8786(4) 0.8790(5) 0.1163(3)
H4 H 0.898161 0.864896 0.057490
C10 C 0.8563(4) 0.9379(5) 0.1448(2)
H9 H 0.891353 0.827330 0.125180
C13_3 C 0.5500(3) 1.000000 0.000000
C14 C 0.5545(4) 0.9141(7) 0.0129(3)
C16 C 0.6488(5) 0.9172(7) 0.0123(3)
H12 H 0.495237 0.855289 0.021909
N4_3 N 0.7346(3) 1.000000 0.000000
H14 H 0.651828 0.859368 0.020758
Cu2_3 Cu 0.87120(4) 1.000000 0.000000
C23 C 0.979(2) 0.7252(18) 0.0194(15)
H18 H 0.645540 0.588276 0.003179
C27 C 0.936(4) 0.615(2) 0.023(2)
C28 C 0.8563(4) 0.9184(6) 0.1885(2)
H26 H 0.864439 0.583434 0.029891
H27 H 0.972642 0.600496 0.043277
C30 C 0.8786(4) 0.9996(6) 0.2170(3)
C31 C 0.8349(5) 0.8239(8) 0.2059(3)
C33 C 0.8804(4) 0.9793(7) 0.2575(2)
C34 C 0.8369(4) 0.8125(7) 0.2457(3)
H30 H 0.818989 0.767983 0.188944
N12 N 0.8592(3) 0.8898(5) 0.2726(2)
H32 H 0.822292 0.748470 0.255829
Cu4 Cu 0.871200(40) 0.87120(4) 0.333333
C3_4 C 0.4500(3) 1.000000 1.000000
O1_8 O 1.000000 1.000000 1.000000
C11 C 0.2684(9) 0.9172(7) 0.9877(3)
H10 H 0.207540 0.859368 0.979242
C12 C 0.3596(8) 0.9141(7) 0.9871(3)
H11 H 0.360052 0.855289 0.978091
C13_4 C 0.5500(3) 1.000000 1.000000
N4_4 N 0.7346(3) 1.000000 1.000000
Cu2_4 Cu 0.87120(4) 1.000000 1.000000
N5 N 0.7810(9) 0.8085(7) 0.9848(3)
C18 C 0.7462(27) 0.7252(18) 0.9806(15)
C19 C 0.679(4) 0.615(2) 0.977(2)
H16 H 0.718995 0.583434 0.970109
H17 H 0.627854 0.600496 0.956723
H28 H 0.942736 0.588276 0.996821
O1_9 O -0.000000 0.000000 0.333333
N7_2 N 0.1102(5) 0.1408(3) 0.3940(2)
N8_2 N 0.0275(11) 0.2190(9) 0.3181(3)
N10_2 N 0.2190(9) 0.0275(5) 0.3485(3)
N11_5 N 0.26540(30) 0.2654(3) 0.333333
C20_2 C 0.0207(7) 0.1196(4) 0.4091(2)
C21_2 C 0.1875(7) 0.1631(4) 0.4209(3)
C24_2 C 0.0004(6) 0.1214(4) 0.4496(3)
C25_2 C 0.1761(8) 0.1651(5) 0.4607(3)
H20_2 H 0.251530 0.177708 0.410837
C29_2 C 0.0816(6) 0.1437(4) 0.4781(2)
H22_2 H 0.232017 0.181011 0.477722
C32_2 C 0.0621(7) 0.1437(4) 0.5219(2)
C36_2 C 0.1210(7) 0.1214(4) 0.5504(3)
C38_2 C 0.0989(8) 0.1196(4) 0.5909(2)
H34_2 H 0.172670 0.108647 0.541487
N13_2 N 0.0306(6) 0.1408(3) 0.6060(2)
H36_2 H 0.135104 0.101839 0.609177
Cu5_2 Cu 0.000000(57) 0.128800(40) 0.666667
O1_10 O 0.000000 1.000000 0.333333
H4_2 H 0.033265 0.898161 0.390823
H9_2 H 0.064023 0.891353 0.458513
C18_2 C 0.0210(32) 0.7462(27) 0.3139(15)
C19_2 C 0.064(4) 0.679(4) 0.310(2)
C23_2 C 0.2538(27) 0.979(2) 0.3527(15)
H16_2 H 0.135561 0.718995 0.303442
H17_2 H 0.027358 0.627854 0.290056
H18_2 H 0.057264 0.645540 0.336512
C27_2 C 0.321(4) 0.936(4) 0.356(2)
H26_2 H 0.281005 0.864439 0.363224
H27_2 H 0.372146 0.972642 0.376610
H28_2 H 0.354460 0.942736 0.330154
C31_2 C 0.0110(9) 0.8349(5) 0.5393(3)
C34_2 C 0.0244(8) 0.8369(4) 0.5791(3)
H30_2 H 0.051006 0.818989 0.522278
H32_2 H 0.073822 0.822292 0.589163
Cu4_2 Cu -0.000000(57) 0.871200(40) 0.666667
O1_11 O 1.000000 0.000000 0.333333
C4_2 C 0.7462(27) 0.021(2) 0.3527(15)
C7_2 C 0.679(4) 0.064(4) 0.356(2)
H5_2 H 0.718995 0.135561 0.363224
H6_2 H 0.627854 0.027358 0.376610
H7_2 H 0.645540 0.057264 0.330154
C22_2 C 0.9790(32) 0.2538(27) 0.3139(15)
H19_2 H 0.966735 0.101839 0.390823
C26_2 C 0.936(4) 0.321(4) 0.310(2)
H21_2 H 0.935977 0.108647 0.458513
H23_2 H 0.864439 0.281005 0.303442
H24_2 H 0.972642 0.372146 0.290056
H25_2 H 0.942736 0.354460 0.336512
C35_2 C 0.9890(9) 0.1651(5) 0.5393(3)
C37_2 C 0.9756(8) 0.1631(4) 0.5791(3)
H33_2 H 0.948994 0.181011 0.522278
H35_2 H 0.926178 0.177708 0.589163
Cu5_3 Cu 1.000000(57) 0.128800(40) 0.666667
C1_2 C 0.2684(9) 0.3512(5) 0.3456(3)
H1_2 H 0.207540 0.348172 0.354091
C2_2 C 0.3596(8) 0.4455(4) 0.3462(3)
H2_2 H 0.360052 0.504763 0.355242
C3_5 C 0.45000(30) 0.4500(3) 0.333333
O1_12 O 1.000000 1.000000 0.333333
N2_2 N 0.7810(9) 0.9725(5) 0.3485(3)
N3_2 N 0.8898(5) 0.8592(3) 0.3940(2)
C5_2 C 0.8125(7) 0.8369(4) 0.4209(3)
C6_2 C 0.9793(7) 0.8804(4) 0.4091(2)
C8_2 C 0.8239(8) 0.8349(5) 0.4607(3)
H3_2 H 0.748470 0.822292 0.410837
C9_2 C 0.9996(6) 0.8786(4) 0.4496(3)
C10_2 C 0.9184(6) 0.8563(4) 0.4781(2)
H8_2 H 0.767983 0.818989 0.477722
C11_2 C 0.3512(11) 0.2684(9) 0.3210(3)
H10_2 H 0.348172 0.207540 0.312575
C12_2 C 0.4455(11) 0.3596(8) 0.3204(3)
H11_2 H 0.504763 0.360052 0.311424
C13_5 C 0.55000(30) 0.5500(3) 0.333333
C14_2 C 0.6404(8) 0.5545(4) 0.3462(3)
C15_2 C 0.5545(11) 0.6404(8) 0.3204(3)
C16_2 C 0.7316(9) 0.6488(5) 0.3456(3)
H12_2 H 0.639948 0.495237 0.355242
C17_2 C 0.6488(11) 0.7316(9) 0.3210(3)
H13_2 H 0.495237 0.639948 0.311424
N4_5 N 0.73460(30) 0.7346(3) 0.333333
H14_2 H 0.792460 0.651828 0.354091
H15_2 H 0.651828 0.792460 0.312575
N5_2 N 0.9725(11) 0.7810(9) 0.3181(3)
C28_2 C 0.9379(7) 0.8563(4) 0.5219(2)
C30_2 C 0.8790(7) 0.8786(4) 0.5504(3)
H29_2 H 0.827330 0.891353 0.541487
C33_2 C 0.9011(8) 0.8804(4) 0.5909(2)
H31_2 H 0.864896 0.898161 0.609177
N12_2 N 0.9694(6) 0.8592(3) 0.6060(2)
Cu4_3 Cu 1.000000(57) 0.871200(40) 0.666667
O1_13 O -0.000000 0.000000 0.666667
H4_3 H 0.135104 0.033265 0.724157
H9_3 H 0.172670 0.064023 0.791847
C18_3 C 0.2748(18) 0.0210(32) 0.6473(15)
N10_3 N 0.1915(7) 0.2190(9) 0.6819(3)
N11_6 N -0.000000 0.26540(30) 0.666667
C19_3 C 0.385(2) 0.064(4) 0.644(2)
C21_3 C 0.0244(6) 0.1875(7) 0.7543(3)
C23_3 C 0.2748(18) 0.2538(27) 0.6861(15)
H16_3 H 0.416566 0.135561 0.636776
H17_3 H 0.399504 0.027358 0.623390
H18_3 H 0.411724 0.057264 0.669846
C25_3 C 0.0110(6) 0.1761(8) 0.7941(3)
H20_3 H 0.073822 0.251530 0.744171
C27_3 C 0.385(2) 0.321(4) 0.690(2)
H22_3 H 0.051006 0.232017 0.811056
H26_3 H 0.416566 0.281005 0.696558
H27_3 H 0.399504 0.372146 0.709944
H28_3 H 0.411724 0.354460 0.663488
C31_3 C 0.1761(8) 0.0110(9) 0.8726(3)
C34_3 C 0.1875(7) 0.0244(8) 0.9124(3)
H30_3 H 0.232017 0.051006 0.855611
H32_3 H 0.251530 0.073822 0.922496
H34_3 H 0.064023 0.172670 0.874820
H36_3 H 0.033265 0.135104 0.942510
C3_6 C 0.000000 0.45000(30) 0.666667
O1_14 O 0.000000 1.000000 0.666667
N3_3 N 0.0306(4) 0.8898(5) 0.7274(2)
C6_3 C 0.0989(6) 0.9793(7) 0.7425(2)
C9_3 C 0.1210(5) 0.9996(6) 0.7830(3)
C10_3 C 0.0621(5) 0.9184(6) 0.8115(2)
C11_3 C 0.0828(7) 0.3512(11) 0.6544(3)
H10_3 H 0.140632 0.348172 0.645909
C12_3 C 0.0859(7) 0.4455(11) 0.6538(3)
H11_3 H 0.144711 0.504763 0.644758
C13_6 C 0.000000 0.55000(30) 0.666667
C14_3 C 0.0859(7) 0.6404(8) 0.6796(3)
C16_3 C 0.0828(7) 0.7316(9) 0.6790(3)
H12_3 H 0.144711 0.639948 0.688576
N4_6 N 0.000000 0.73460(30) 0.666667
H14_3 H 0.140632 0.792460 0.687425
N5_3 N 0.1915(7) 0.9725(11) 0.6515(3)
C28_3 C 0.0816(6) 0.9379(7) 0.8552(2)
C30_3 C 0.0004(6) 0.8790(7) 0.8837(3)
C33_3 C 0.0207(7) 0.9011(8) 0.9242(2)
O1_15 O 1.000000 0.000000 0.666667
N7_3 N 0.9694(4) 0.1102(5) 0.7274(2)
N8_3 N 0.8085(7) 0.0275(11) 0.6515(3)
N11_7 N 1.000000 0.26540(30) 0.666667
C20_3 C 0.9011(6) 0.0207(7) 0.7425(2)
C24_3 C 0.8790(5) 0.0004(6) 0.7830(3)
C29_3 C 0.9379(5) 0.0816(6) 0.8115(2)
C32_3 C 0.9184(6) 0.0621(7) 0.8552(2)
C36_3 C 0.9996(6) 0.1210(7) 0.8837(3)
C38_3 C 0.9793(7) 0.0989(8) 0.9242(2)
C1_3 C 0.9172(7) 0.2684(9) 0.6790(3)
H1_3 H 0.859368 0.207540 0.687425
C2_3 C 0.9141(7) 0.3596(8) 0.6796(3)
H2_3 H 0.855289 0.360052 0.688576
C3_7 C 1.000000 0.45000(30) 0.666667
O1_16 O 1.000000 1.000000 0.666667
N2_3 N 0.8085(7) 0.7810(9) 0.6819(3)
C4_3 C 0.7252(18) 0.7462(27) 0.6861(15)
C5_3 C 0.9756(6) 0.8125(7) 0.7543(3)
C7_3 C 0.615(2) 0.679(4) 0.690(2)
C8_3 C 0.9890(6) 0.8239(8) 0.7941(3)
H3_3 H 0.926178 0.748470 0.744171
H5_3 H 0.583434 0.718995 0.696558
H6_3 H 0.600496 0.627854 0.709944
H7_3 H 0.588276 0.645540 0.663488
H8_3 H 0.948994 0.767983 0.811056
C13_7 C 1.000000 0.55000(30) 0.666667
C15_3 C 0.9141(7) 0.5545(11) 0.6538(3)
C17_3 C 0.9172(7) 0.6488(11) 0.6544(3)
H13_3 H 0.855289 0.495237 0.644758
N4_7 N 1.000000 0.73460(30) 0.666667
H15_3 H 0.859368 0.651828 0.645909
C22_3 C 0.7252(18) 0.9790(32) 0.6473(15)
H19_3 H 0.864896 0.966735 0.724157
C26_3 C 0.615(2) 0.936(4) 0.644(2)
H21_3 H 0.827330 0.935977 0.791847
H23_3 H 0.583434 0.864439 0.636776
H24_3 H 0.600496 0.972642 0.623390
H25_3 H 0.588276 0.942736 0.669846
H29_3 H 0.935977 0.827330 0.874820
C35_3 C 0.8239(8) 0.9890(9) 0.8726(3)
H31_3 H 0.966735 0.864896 0.942510
C37_3 C 0.8125(7) 0.9756(8) 0.9124(3)
H33_3 H 0.767983 0.948994 0.855611
H35_3 H 0.748470 0.926178 0.922496
loop_
_geom_bond_atom_site_label_1
_geom_bond_atom_site_label_2
_geom_bond_site_symmetry_1
_geom_bond_site_symmetry_2
C4 C7 1_555 1_555
C7 H5 1_555 1_555
H6 C7 1_555 1_555
Cu3 O1 1_555 1_555
N7 Cu3 1_555 1_555
N11 Cu3 1_555 1_555
C20 N7 1_555 1_555
C24 C20 1_555 1_555
H19 C20 1_555 1_555
H21 C24 1_555 1_555
C29 C24 1_555 1_555
C32 C29 1_555 1_555
C35 C32 1_555 1_555
C36 C32 1_555 1_555
C37 C35 1_555 1_555
H33 C35 1_555 1_555
C38 C36 1_555 1_555
H35 C37 1_555 1_555
N13 C37 1_555 1_555
Cu5 N13 1_555 1_555
C38 N13 1_555 1_555
Cu3_2 O1_2 1_555 1_555
N8 Cu3_2 1_555 1_555
N11_2 Cu3_2 1_555 1_555
C22 N8 1_555 1_555
C26 C22 1_555 1_555
H23 C26 1_555 1_555
H24 C26 1_555 1_555
Cu3_3 O1_3 1_555 1_555
N10 Cu3_3 1_555 1_555
N11_3 Cu3_3 1_555 1_555
C25 C21 1_555 1_555
H20 C21 1_555 1_555
H22 C25 1_555 1_555
Cu3_4 O1_4 1_555 1_555
N9 Cu3_4 1_555 1_555
N11_4 Cu3_4 1_555 1_555
N11 C1 1_555 1_555
C1 H1 1_555 1_555
C2 C1 1_555 1_555
H2 C2 1_555 1_555
C3 C2 1_555 1_555
O1_5 Cu2 1_555 1_555
C5 C8 1_555 1_555
H3 C5 1_555 1_555
H8 C8 1_555 1_555
C13 C3 1_555 1_555
Cu2 N2 1_555 1_555
N4 Cu2 1_555 1_555
O1_6 Cu2_2 1_555 1_555
C13_2 C3_2 1_555 1_555
C15 C13_2 1_555 1_555
C17 C15 1_555 1_555
H13 C15 1_555 1_555
H15 C17 1_555 1_555
N6 Cu2_2 1_555 1_555
C17 N4_2 1_555 1_555
N4_2 Cu2_2 1_555 1_555
O1_7 Cu2_3 1_555 1_555
C6 N3 1_555 1_555
C9 C6 1_555 1_555
H4 C6 1_555 1_555
C10 C9 1_555 1_555
H9 C9 1_555 1_555
C13_3 C3_3 1_555 1_555
C14 C13_3 1_555 1_555
C16 C14 1_555 1_555
H12 C14 1_555 1_555
N4_3 C16 1_555 1_555
H14 C16 1_555 1_555
C27 C23 1_555 1_555
C28 C10 1_555 1_555
H26 C27 1_555 1_555
H27 C27 1_555 1_555
C30 C28 1_555 1_555
C31 C28 1_555 1_555
C33 C30 1_555 1_555
C34 C31 1_555 1_555
H30 C31 1_555 1_555
N12 C33 1_555 1_555
H32 C34 1_555 1_555
Cu4 N12 1_555 1_555
N3 Cu2_3 1_555 1_555
N4_3 Cu2_3 1_555 1_555
C34 N12 1_555 1_555
O1_8 Cu2_4 1_555 1_555
C11 N11_4 1_555 1_555
H10 C11 1_555 1_555
C12 C3_4 1_555 1_555
H11 C12 1_555 1_555
C13_4 C3_4 1_555 1_555
N5 Cu2_4 1_555 1_555
C18 N5 1_555 1_555
C19 C18 1_555 1_555
H16 C19 1_555 1_555
H17 C19 1_555 1_555
C11 C12 1_555 1_555
N4_4 Cu2_4 1_555 1_555
Cu5 O1_9 1_555 1_555
N7_2 Cu5 1_555 1_555
N8_2 Cu5 1_555 1_555
N10_2 Cu5 1_555 1_555
N11_5 Cu5 1_555 1_555
C20_2 N7_2 1_555 1_555
C21_2 N7_2 1_555 1_555
C24_2 C20_2 1_555 1_555
C25_2 C21_2 1_555 1_555
H20_2 C21_2 1_555 1_555
C29_2 C24_2 1_555 1_555
H22_2 C25_2 1_555 1_555
C32_2 C29_2 1_555 1_555
C36_2 C32_2 1_555 1_555
C38_2 C36_2 1_555 1_555
H34_2 C36_2 1_555 1_555
H36_2 C38_2 1_555 1_555
Cu5_2 N13_2 1_555 1_555
C25_2 C29_2 1_555 1_555
C38_2 N13_2 1_555 1_555
C19_2 C18_2 1_555 1_555
H16_2 C19_2 1_555 1_555
H17_2 C19_2 1_555 1_555
H18_2 C19_2 1_555 1_555
C27_2 C23_2 1_555 1_555
H26_2 C27_2 1_555 1_555
H27_2 C27_2 1_555 1_555
H28_2 C27_2 1_555 1_555
C34_2 C31_2 1_555 1_555
H30_2 C31_2 1_555 1_555
H32_2 C34_2 1_555 1_555
C4_2 C7_2 1_555 1_555
C7_2 H5_2 1_555 1_555
H6_2 C7_2 1_555 1_555
H7_2 C7_2 1_555 1_555
C26_2 C22_2 1_555 1_555
H23_2 C26_2 1_555 1_555
H24_2 C26_2 1_555 1_555
H25_2 C26_2 1_555 1_555
C37_2 C35_2 1_555 1_555
H33_2 C35_2 1_555 1_555
H35_2 C37_2 1_555 1_555
N11_5 C1_2 1_555 1_555
C1_2 H1_2 1_555 1_555
C2_2 C1_2 1_555 1_555
H2_2 C2_2 1_555 1_555
C3_5 C2_2 1_555 1_555
O1_12 Cu4 1_555 1_555
N3_2 C5_2 1_555 1_555
C5_2 C8_2 1_555 1_555
C6_2 N3_2 1_555 1_555
C8_2 C10_2 1_555 1_555
H3_2 C5_2 1_555 1_555
C9_2 C6_2 1_555 1_555
C10_2 C9_2 1_555 1_555
H8_2 C8_2 1_555 1_555
C11_2 N11_5 1_555 1_555
H10_2 C11_2 1_555 1_555
C12_2 C3_5 1_555 1_555
H11_2 C12_2 1_555 1_555
C13_5 C3_5 1_555 1_555
C14_2 C13_5 1_555 1_555
C15_2 C13_5 1_555 1_555
C16_2 C14_2 1_555 1_555
H12_2 C14_2 1_555 1_555
C17_2 C15_2 1_555 1_555
H13_2 C15_2 1_555 1_555
N4_5 C16_2 1_555 1_555
H14_2 C16_2 1_555 1_555
H15_2 C17_2 1_555 1_555
Cu4 N2_2 1_555 1_555
N5_2 Cu4 1_555 1_555
C28_2 C10_2 1_555 1_555
C30_2 C28_2 1_555 1_555
H29_2 C30_2 1_555 1_555
C33_2 C30_2 1_555 1_555
H31_2 C33_2 1_555 1_555
N12_2 C33_2 1_555 1_555
Cu4_3 N12_2 1_555 1_555
N3_2 Cu4 1_555 1_555
C11_2 C12_2 1_555 1_555
C17_2 N4_5 1_555 1_555
N4_5 Cu4 1_555 1_555
Cu5_2 O1_13 1_555 1_555
N10_3 Cu5_2 1_555 1_555
N11_6 Cu5_2 1_555 1_555
C19_3 C18_3 1_555 1_555
C23_3 N10_3 1_555 1_555
H16_3 C19_3 1_555 1_555
H17_3 C19_3 1_555 1_555
H18_3 C19_3 1_555 1_555
C25_3 C21_3 1_555 1_555
H20_3 C21_3 1_555 1_555
C27_3 C23_3 1_555 1_555
H22_3 C25_3 1_555 1_555
H26_3 C27_3 1_555 1_555
H27_3 C27_3 1_555 1_555
H28_3 C27_3 1_555 1_555
C34_3 C31_3 1_555 1_555
H30_3 C31_3 1_555 1_555
H32_3 C34_3 1_555 1_555
O1_14 Cu4_2 1_555 1_555
C6_3 N3_3 1_555 1_555
C9_3 C6_3 1_555 1_555
C10_3 C9_3 1_555 1_555
C11_3 N11_6 1_555 1_555
H10_3 C11_3 1_555 1_555
C12_3 C3_6 1_555 1_555
H11_3 C12_3 1_555 1_555
C13_6 C3_6 1_555 1_555
C14_3 C13_6 1_555 1_555
C16_3 C14_3 1_555 1_555
H12_3 C14_3 1_555 1_555
N4_6 C16_3 1_555 1_555
H14_3 C16_3 1_555 1_555
N5_3 Cu4_2 1_555 1_555
C28_3 C10_3 1_555 1_555
C30_3 C28_3 1_555 1_555
C33_3 C30_3 1_555 1_555
N9 C33_3 1_555 1_555
N3_3 Cu4_2 1_555 1_555
C11_3 C12_3 1_555 1_555
N4_6 Cu4_2 1_555 1_555
Cu5_3 O1_15 1_555 1_555
N7_3 Cu5_3 1_555 1_555
N8_3 Cu5_3 1_555 1_555
N11_7 Cu5_3 1_555 1_555
C20_3 N7_3 1_555 1_555
C24_3 C20_3 1_555 1_555
C29_3 C24_3 1_555 1_555
C32_3 C29_3 1_555 1_555
C36_3 C32_3 1_555 1_555
C38_3 C36_3 1_555 1_555
C38_3 N6 1_555 1_555
N11_7 C1_3 1_555 1_555
C1_3 H1_3 1_555 1_555
C2_3 C1_3 1_555 1_555
H2_3 C2_3 1_555 1_555
C3_7 C2_3 1_555 1_555
O1_16 Cu4_3 1_555 1_555
N2_3 C4_3 1_555 1_555
C4_3 C7_3 1_555 1_555
C5_3 C8_3 1_555 1_555
C7_3 H5_3 1_555 1_555
H3_3 C5_3 1_555 1_555
H6_3 C7_3 1_555 1_555
H7_3 C7_3 1_555 1_555
H8_3 C8_3 1_555 1_555
C13_7 C3_7 1_555 1_555
C15_3 C13_7 1_555 1_555
C17_3 C15_3 1_555 1_555
H13_3 C15_3 1_555 1_555
H15_3 C17_3 1_555 1_555
Cu4_3 N2_3 1_555 1_555
C26_3 C22_3 1_555 1_555
H23_3 C26_3 1_555 1_555
H24_3 C26_3 1_555 1_555
H25_3 C26_3 1_555 1_555
C37_3 C35_3 1_555 1_555
H33_3 C35_3 1_555 1_555
H35_3 C37_3 1_555 1_555
C17_3 N4_7 1_555 1_555
N4_7 Cu4_3 1_555 1_555

#END
