
###############################################################################
#
# This file contains modified crystal structure data generated from the
# MOF subset of the Cambridge Structural Database (CSD) v543 
# hosted by the Cambridge Crystallographic Data Centre (CCDC).
#
# This work is licensed under the Creative Commons
# Attribution-NonCommercial-ShareAlike 4.0 International License.
# To view a copy of this license, visit
# http://creativecommons.org/licenses/by-nc-sa/4.0/
# or send a letter to
# Creative Commons, PO Box 1866, Mountain View, CA 94042, USA.
#
# CIF created using the CSD Python API on 29 September 2022
# The structure has been converted into the P1 space group
# The structure has a 3D framework
# The original CSD entry KIMYEM is in the triclinic crystal system
# The framework has been calculated to contain at least 10.0% void space
# The void calculation uses a probe of radius 1.32A, grid spacing 0.4
#
###############################################################################

data_KIMYEM
_chemical_formula_moiety         '(C120 H72 Cd6 N16 O34)n'
_symmetry_cell_setting           triclinic
_symmetry_space_group_name_H-M   'P 1'
_symmetry_Int_Tables_number      1
_space_group_name_Hall           'P 1'
loop_
_symmetry_equiv_pos_site_id
_symmetry_equiv_pos_as_xyz
1 x,y,z
_cell_length_a                   9.9279(4)
_cell_length_b                   15.4623(5)
_cell_length_c                   20.6099(7)
_cell_angle_alpha                77.1560(10)
_cell_angle_beta                 83.1490(10)
_cell_angle_gamma                87.8380(10)
_cell_volume                     3062.4
loop_
_atom_site_label
_atom_site_type_symbol
_atom_site_fract_x
_atom_site_fract_y
_atom_site_fract_z
O25 O 0.0610(3) 0.1170(2) 0.62018(16)
C1 C 0.5366(4) 0.3749(3) 0.8206(2)
C36 C 0.0390(5) 0.3666(3) 0.8024(3)
C37 C 0.1833(4) 0.3697(3) 0.7704(2)
C38 C 0.2890(4) 0.3742(3) 0.8079(2)
H23 H 0.2699 0.3767 0.8527
C39 C 0.4223(4) 0.3750(3) 0.7793(2)
C40 C 0.4510(5) 0.3735(3) 0.7117(2)
H24 H 0.5403 0.3751 0.6918
C41 C 0.3461(5) 0.3696(3) 0.6750(2)
C42 C 0.2112(5) 0.3673(3) 0.7029(2)
H25 H 0.1414 0.3643 0.6772
C43 C 0.3440(5) 0.4335(3) 0.5595(2)
C44 C 0.3364(5) 0.4234(3) 0.4938(2)
C45 C 0.2993(5) 0.4943(3) 0.4446(2)
H26 H 0.2946 0.4866 0.4014
C46 C 0.2693(5) 0.5765(3) 0.4595(2)
C47 C 0.2823(6) 0.5872(3) 0.5238(2)
H27 H 0.2657 0.6426 0.5340
C48 C 0.3192(6) 0.5170(3) 0.5725(2)
H28 H 0.3278 0.5259 0.6150
C50 C 0.2253(5) 0.6536(3) 0.4080(2)
N6 N 0.3642(5) 0.3386(3) 0.4746(2)
O1 O 0.6552(3) 0.3581(2) 0.79504(16)
O2 O 0.5163(3) 0.3927(3) 0.87696(16)
O10 O 0.0136(4) 0.3847(3) 0.85839(19)
O12 O 0.3759(4) 0.3627(2) 0.60767(15)
O13 O 0.4107(5) 0.2778(3) 0.5132(2)
O14 O 0.3412(5) 0.3330(3) 0.4194(2)
O17 O 0.2285(4) 0.6448(2) 0.34891(16)
O18 O 0.1854(4) 0.7221(2) 0.42923(18)
Cd4 Cd 0.79154(3) 0.25778(2) 0.748802(15)
Cd7 Cd 0.20846(3) 0.74222(2) 0.251198(15)
Cd8 Cd 0.78243(3) 0.37883(2) 0.875529(16)
Cd11 Cd 0.20582(3) 0.86458(2) 0.379699(16)
O15 O 0.0788(3) 0.8427(2) 0.30051(15)
C51 C 0.8785(5) 0.1001(4) 0.4701(3)
H29 H 0.9657 0.0929 0.4828
C52 C 0.8619(5) 0.0970(4) 0.4053(3)
H30 H 0.9364 0.0881 0.3755
C53 C 0.7325(5) 0.1072(3) 0.3851(2)
C54 C 0.6271(5) 0.1180(4) 0.4326(3)
H31 H 0.5385 0.1232 0.4217
C55 C 0.6529(5) 0.1210(4) 0.4956(3)
H32 H 0.5800 0.1293 0.5265
C56 C 0.7070(5) 0.1087(3) 0.3153(2)
C57 C 0.7985(6) 0.1464(4) 0.2611(3)
H33 H 0.8817 0.1667 0.2678
C58 C 0.7645(7) 0.1534(4) 0.1969(3)
H34 H 0.8269 0.1788 0.1610
C59 C 0.5641(7) 0.0847(4) 0.2363(3)
H35 H 0.4846 0.0611 0.2281
C60 C 0.5879(6) 0.0749(4) 0.3018(3)
H36 H 0.5256 0.0462 0.3365
Cd3 Cd 0.79418(3) 0.13542(2) 0.620301(16)
N7 N 0.7775(4) 0.1127(3) 0.5155(2)
N8 N 0.6467(6) 0.1256(4) 0.1835(2)
O22 O 0.5660(3) 0.1381(3) 0.64481(17)
O24 O 0.9212(3) 0.1573(2) 0.69949(15)
O27 O 0.8146(4) 0.2779(2) 0.57077(18)
C2 C 0.7978(6) 0.5553(3) 0.7588(3)
H1 H 0.8108 0.5123 0.7334
C3 C 0.8026(6) 0.6435(3) 0.7255(3)
H2 H 0.8193 0.6587 0.6791
C4 C 0.7822(5) 0.7091(3) 0.7622(2)
C5 C 0.7578(6) 0.6814(3) 0.8316(2)
H3 H 0.7439 0.7231 0.8581
C6 C 0.7544(6) 0.5923(3) 0.8609(3)
H4 H 0.7369 0.5751 0.9073
C7 C 0.7866(5) 0.8043(3) 0.7301(2)
C8 C 0.7657(5) 0.8342(3) 0.6629(2)
H5 H 0.7488 0.7940 0.6374
C9 C 0.7704(5) 0.9240(3) 0.6347(2)
H6 H 0.7554 0.9430 0.5900
C10 C 0.8171(5) 0.9563(3) 0.7325(2)
H7 H 0.8348 0.9979 0.7567
C11 C 0.8145(6) 0.8679(3) 0.7643(2)
H8 H 0.8314 0.8510 0.8089
H9 H 0.5753 0.4250 0.9932
H12 H 0.9577 0.3762 0.9912
C22 C 0.7956(5) 0.1661(3) 0.9056(2)
C23 C 0.8086(5) 0.0827(3) 0.9590(2)
C28 C 0.8467(5) 0.0025(3) 0.9429(2)
N1 N 0.7756(4) 0.5285(3) 0.8251(2)
N2 N 0.7954(4) 0.9851(3) 0.66870(19)
N3 N 0.7653(4) 0.4014(3) 0.9815(2)
O3 O 0.7671(5) 0.2360(2) 0.92518(18)
O4 O 0.8091(3) 0.1582(2) 0.84575(15)
O11 O 0.9484(3) 0.3486(2) 0.7699(2)
O21 O 0.6217(3) 0.1714(2) 0.73711(19)
O26 O 0.7715(4) 0.3552(2) 0.65109(16)
C26 C 0.8146(5) 0.9280(3) 0.0607(2)
C29 C 0.7787(5) 0.8569(3) 0.1759(2)
C30 C 0.6438(5) 0.8505(3) 0.2019(2)
H20 H 0.5769 0.8456 0.1750
C31 C 0.6100(4) 0.8514(3) 0.2692(2)
C32 C 0.7116(4) 0.8575(3) 0.3095(2)
H21 H 0.6887 0.8594 0.3543
C33 C 0.8468(4) 0.8608(3) 0.2824(2)
C34 C 0.8813(4) 0.8613(3) 0.2140(2)
H22 H 0.9714 0.8644 0.1952
C35 C 0.4634(5) 0.8459(3) 0.2980(2)
C49 C 0.9592(5) 0.8617(3) 0.3246(2)
O6 O 0.8829(7) 0.7749(3) 0.0115(2)
O7 O 0.8156(3) 0.8520(2) 0.10845(15)
O8 O 0.3783(3) 0.8286(2) 0.26289(19)
O9 O 0.4340(3) 0.8619(3) 0.35519(17)
O16 O 0.9390(3) 0.8830(2) 0.37982(16)
C26_2 C 0.1854(5) 0.0720(3) 0.9393(2)
C29_2 C 0.2213(5) 0.1431(3) 0.8241(2)
C30_2 C 0.3562(5) 0.1495(3) 0.7981(2)
H20_2 H 0.4231 0.1544 0.8250
C31_2 C 0.3900(4) 0.1486(3) 0.7308(2)
C32_2 C 0.2884(4) 0.1425(3) 0.6905(2)
H21_2 H 0.3113 0.1406 0.6457
C33_2 C 0.1532(4) 0.1392(3) 0.7176(2)
C34_2 C 0.1187(4) 0.1387(3) 0.7860(2)
H22_2 H 0.0286 0.1356 0.8048
C35_2 C 0.5366(5) 0.1541(3) 0.7020(2)
C49_2 C 0.0408(5) 0.1383(3) 0.6754(2)
O6_2 O 0.1171(7) 0.2251(3) 0.9885(2)
O7_2 O 0.1844(3) 0.1480(2) 0.89155(15)
C2_2 C 0.2022(6) 0.4447(3) 0.2412(3)
H1_2 H 0.1892 0.4877 0.2666
C3_2 C 0.1974(6) 0.3565(3) 0.2745(3)
H2_2 H 0.1807 0.3413 0.3209
C4_2 C 0.2178(5) 0.2909(3) 0.2378(2)
C5_2 C 0.2422(6) 0.3186(3) 0.1684(2)
H3_2 H 0.2561 0.2769 0.1419
C6_2 C 0.2456(6) 0.4077(3) 0.1391(3)
H4_2 H 0.2631 0.4249 0.0927
C7_2 C 0.2134(5) 0.1957(3) 0.2699(2)
C8_2 C 0.2343(5) 0.1658(3) 0.3371(2)
H5_2 H 0.2512 0.2060 0.3626
C9_2 C 0.2296(5) 0.0760(3) 0.3653(2)
H6_2 H 0.2446 0.0570 0.4100
C10_2 C 0.1829(5) 0.0437(3) 0.2675(2)
H7_2 H 0.1652 0.0021 0.2433
C11_2 C 0.1855(6) 0.1321(3) 0.2357(2)
H8_2 H 0.1686 0.1490 0.1911
H9_2 H 0.4247 0.5750 0.0068
H12_2 H 0.0423 0.6238 0.0088
C22_2 C 0.2044(5) 0.8339(3) 0.0944(2)
C23_2 C 0.1914(5) 0.9173(3) 0.0410(2)
C28_2 C 0.1533(5) 0.9975(3) 0.0571(2)
Cd2 Cd 0.21757(3) 0.62117(2) 0.124471(16)
N1_2 N 0.2244(4) 0.4715(3) 0.1749(2)
N2_2 N 0.2046(4) 0.0149(3) 0.33130(19)
N3_2 N 0.2347(4) 0.5986(3) 0.0185(2)
O3_2 O 0.2329(5) 0.7640(2) 0.07482(18)
O4_2 O 0.1909(3) 0.8418(2) 0.15425(15)
O11_2 O 0.0516(3) 0.6514(2) 0.2301(2)
O19 O 0.3448(3) 0.6419(2) 0.20496(16)
O20 O 0.4837(3) 0.6073(3) 0.12304(16)
C51_2 C 0.1215(5) 0.8999(4) 0.5299(3)
H29_2 H 0.0343 0.9071 0.5172
C52_2 C 0.1381(5) 0.9030(4) 0.5947(3)
H30_2 H 0.0636 0.9119 0.6245
C53_2 C 0.2675(5) 0.8928(3) 0.6149(2)
C54_2 C 0.3729(5) 0.8820(4) 0.5674(3)
H31_2 H 0.4615 0.8768 0.5783
C55_2 C 0.3471(5) 0.8790(4) 0.5044(3)
H32_2 H 0.4200 0.8707 0.4735
C56_2 C 0.2930(5) 0.8913(3) 0.6847(2)
C57_2 C 0.2015(6) 0.8536(4) 0.7389(3)
H33_2 H 0.1183 0.8333 0.7322
C58_2 C 0.2355(7) 0.8466(4) 0.8031(3)
H34_2 H 0.1731 0.8212 0.8390
C59_2 C 0.4359(7) 0.9153(4) 0.7637(3)
H35_2 H 0.5154 0.9389 0.7719
C60_2 C 0.4121(6) 0.9251(4) 0.6982(3)
H36_2 H 0.4744 0.9538 0.6635
N7_2 N 0.2225(4) 0.8873(3) 0.4845(2)
N8_2 N 0.3533(6) 0.8744(4) 0.8165(2)
C1_2 C 0.4634(4) 0.6251(3) 0.1794(2)
C36_2 C 0.9610(5) 0.6334(3) 0.1976(3)
C37_2 C 0.8167(4) 0.6303(3) 0.2296(2)
C38_2 C 0.7110(4) 0.6258(3) 0.1921(2)
H23_2 H 0.7301 0.6233 0.1473
C39_2 C 0.5777(4) 0.6250(3) 0.2207(2)
C40_2 C 0.5490(5) 0.6265(3) 0.2883(2)
H24_2 H 0.4597 0.6249 0.3082
C41_2 C 0.6539(5) 0.6304(3) 0.3250(2)
C42_2 C 0.7888(5) 0.6327(3) 0.2971(2)
H25_2 H 0.8586 0.6357 0.3228
C43_2 C 0.6560(5) 0.5665(3) 0.4405(2)
C44_2 C 0.6636(5) 0.5766(3) 0.5062(2)
C45_2 C 0.7007(5) 0.5057(3) 0.5554(2)
H26_2 H 0.7054 0.5134 0.5986
C46_2 C 0.7307(5) 0.4235(3) 0.5405(2)
C47_2 C 0.7177(6) 0.4128(3) 0.4762(2)
H27_2 H 0.7343 0.3574 0.4660
C48_2 C 0.6808(6) 0.4830(3) 0.4275(2)
H28_2 H 0.6722 0.4741 0.3850
C50_2 C 0.7747(5) 0.3464(3) 0.5920(2)
N6_2 N 0.6358(5) 0.6614(3) 0.5254(2)
O10_2 O 0.9864(4) 0.6153(3) 0.14161(19)
O12_2 O 0.6241(4) 0.6373(2) 0.39233(15)
O13_2 O 0.5893(5) 0.7222(3) 0.4868(2)
O14_2 O 0.6588(5) 0.6670(3) 0.5806(2)
C12 C 0.6519(7) 0.4131(6) 0.0158(3)
C13 C 0.6359(7) 0.4093(6) 0.0841(3)
H10 H 0.5507 0.4189 0.1057
C14 C 0.7427(6) 0.3917(4) 0.1191(3)
C15 C 0.8659(8) 0.3770(6) 0.0836(3)
H11 H 0.9429 0.3626 0.1056
C16 C 0.8739(7) 0.3840(6) 0.0148(3)
C17 C 0.7276(6) 0.3786(4) 0.1934(3)
C18 C 0.6073(7) 0.3510(5) 0.2319(3)
H13 H 0.5308 0.3443 0.2115
C19 C 0.6013(7) 0.3334(5) 0.3005(3)
H14 H 0.5189 0.3142 0.3250
C20 C 0.8173(8) 0.3703(5) 0.2964(3)
H15 H 0.8909 0.3782 0.3184
C21 C 0.8359(7) 0.3893(4) 0.2271(3)
H16 H 0.9192 0.4087 0.2038
C24 C 0.7784(5) 0.0858(3) 0.0264(2)
H17 H 0.7566 0.1398 0.0379
C25 C 0.7804(5) 0.0102(3) 0.0757(2)
H18 H 0.7586 0.0138 0.1202
N4 N 0.7023(7) 0.3414(4) 0.3343(3)
C27 C 0.8506(5) 0.9262(3) 0.9928(2)
H19 H 0.8698 0.9998 0.8983
N5 N 0.8911(5) 0.8444(3) 0.9716(2)
O5 O 0.9293(5) 0.8474(3) 0.91302(18)
C27_2 C 0.1494(5) 0.0738(3) 0.0072(2)
H19_2 H 0.1302 0.0002 0.1017
N5_2 N 0.1089(5) 0.1556(3) 0.0284(2)
O5_2 O 0.0707(5) 0.1526(3) 0.08698(18)
C12_2 C 0.3481(7) 0.5869(6) 0.9842(3)
C13_2 C 0.3641(7) 0.5907(6) 0.9159(3)
H10_2 H 0.4493 0.5811 0.8943
C14_2 C 0.2573(6) 0.6083(4) 0.8809(3)
C15_2 C 0.1341(8) 0.6230(6) 0.9164(3)
H11_2 H 0.0571 0.6374 0.8944
C16_2 C 0.1261(7) 0.6160(6) 0.9852(3)
C17_2 C 0.2724(6) 0.6214(4) 0.8066(3)
C18_2 C 0.3927(7) 0.6490(5) 0.7681(3)
H13_2 H 0.4692 0.6557 0.7885
C19_2 C 0.3987(7) 0.6666(5) 0.6995(3)
H14_2 H 0.4811 0.6858 0.6750
C20_2 C 0.1827(8) 0.6297(5) 0.7036(3)
H15_2 H 0.1091 0.6218 0.6816
C21_2 C 0.1641(7) 0.6107(4) 0.7729(3)
H16_2 H 0.0808 0.5913 0.7962
C24_2 C 0.2216(5) 0.9142(3) 0.9736(2)
H17_2 H 0.2434 0.8602 0.9621
C25_2 C 0.2196(5) 0.9898(3) 0.9243(2)
H18_2 H 0.2414 0.9862 0.8798
N4_2 N 0.2977(7) 0.6586(4) 0.6657(3)
loop_
_geom_bond_atom_site_label_1
_geom_bond_atom_site_label_2
_geom_bond_site_symmetry_1
_geom_bond_site_symmetry_2
C1 C39 1_555 1_555
C36 C37 1_555 1_555
C37 C38 1_555 1_555
C38 H23 1_555 1_555
C39 C38 1_555 1_555
C40 C39 1_555 1_555
H24 C40 1_555 1_555
C41 C40 1_555 1_555
C42 C37 1_555 1_555
H25 C42 1_555 1_555
C43 C44 1_555 1_555
C44 C45 1_555 1_555
C45 H26 1_555 1_555
C46 C45 1_555 1_555
C47 C46 1_555 1_555
H27 C47 1_555 1_555
C48 C43 1_555 1_555
H28 C48 1_555 1_555
C50 C46 1_555 1_555
N6 C44 1_555 1_555
O1 C1 1_555 1_555
O2 C1 1_555 1_555
O10 C36 1_555 1_555
O12 C41 1_555 1_555
O13 N6 1_555 1_555
O14 N6 1_555 1_555
O17 C50 1_555 1_555
O18 C50 1_555 1_555
Cd4 O1 1_555 1_555
Cd7 O17 1_555 1_555
Cd8 O1 1_555 1_555
Cd11 O18 1_555 1_555
C41 C42 1_555 1_555
C43 O12 1_555 1_555
C47 C48 1_555 1_555
O2 Cd8 1_555 1_555
Cd7 O15 1_555 1_555
Cd11 O15 1_555 1_555
C51 H29 1_555 1_555
C52 C51 1_555 1_555
H30 C52 1_555 1_555
C53 C52 1_555 1_555
C54 C53 1_555 1_555
H31 C54 1_555 1_555
C55 C54 1_555 1_555
H32 C55 1_555 1_555
C56 C53 1_555 1_555
C57 C56 1_555 1_555
H33 C57 1_555 1_555
C58 C57 1_555 1_555
H34 C58 1_555 1_555
C59 H35 1_555 1_555
C60 C56 1_555 1_555
H36 C60 1_555 1_555
N7 C51 1_555 1_555
N8 C58 1_555 1_555
O22 Cd3 1_555 1_555
O24 Cd3 1_555 1_555
O27 Cd3 1_555 1_555
C55 N7 1_555 1_555
C59 C60 1_555 1_555
C59 N8 1_555 1_555
Cd3 N7 1_555 1_555
C2 H1 1_555 1_555
C3 C2 1_555 1_555
H2 C3 1_555 1_555
C4 C3 1_555 1_555
C5 C4 1_555 1_555
H3 C5 1_555 1_555
C6 C5 1_555 1_555
H4 C6 1_555 1_555
C7 C4 1_555 1_555
C8 C7 1_555 1_555
H5 C8 1_555 1_555
C9 C8 1_555 1_555
H6 C9 1_555 1_555
C10 H7 1_555 1_555
C11 C7 1_555 1_555
H8 C11 1_555 1_555
C22 C23 1_555 1_555
C28 C23 1_555 1_555
Cd4 O4 1_555 1_555
Cd8 N1 1_555 1_555
N1 C2 1_555 1_555
N2 C9 1_555 1_555
O3 C22 1_555 1_555
O4 C22 1_555 1_555
O21 Cd4 1_555 1_555
O24 Cd4 1_555 1_555
O26 Cd4 1_555 1_555
C6 N1 1_555 1_555
C10 C11 1_555 1_555
C10 N2 1_555 1_555
Cd4 O11 1_555 1_555
Cd8 N3 1_555 1_555
Cd8 O3 1_555 1_555
Cd8 O11 1_555 1_555
C29 C30 1_555 1_555
C30 H20 1_555 1_555
C31 C30 1_555 1_555
C32 C31 1_555 1_555
H21 C32 1_555 1_555
C33 C32 1_555 1_555
C34 C29 1_555 1_555
H22 C34 1_555 1_555
C35 C31 1_555 1_555
C49 C33 1_555 1_555
O7 C26 1_555 1_555
O8 C35 1_555 1_555
O9 C35 1_555 1_555
O16 C49 1_555 1_555
Cd7 O8 1_555 1_555
Cd11 O9 1_555 1_555
C29 O7 1_555 1_555
C33 C34 1_555 1_555
C29_2 C30_2 1_555 1_555
C30_2 H20_2 1_555 1_555
C31_2 C30_2 1_555 1_555
C32_2 C31_2 1_555 1_555
H21_2 C32_2 1_555 1_555
C33_2 C32_2 1_555 1_555
C34_2 C29_2 1_555 1_555
H22_2 C34_2 1_555 1_555
C35_2 C31_2 1_555 1_555
C49_2 C33_2 1_555 1_555
O7_2 C26_2 1_555 1_555
O21 C35_2 1_555 1_555
O22 C35_2 1_555 1_555
O25 C49_2 1_555 1_555
C29_2 O7_2 1_555 1_555
C33_2 C34_2 1_555 1_555
C2_2 H1_2 1_555 1_555
C3_2 C2_2 1_555 1_555
H2_2 C3_2 1_555 1_555
C4_2 C3_2 1_555 1_555
C5_2 C4_2 1_555 1_555
H3_2 C5_2 1_555 1_555
C6_2 C5_2 1_555 1_555
H4_2 C6_2 1_555 1_555
C7_2 C4_2 1_555 1_555
C8_2 C7_2 1_555 1_555
H5_2 C8_2 1_555 1_555
C9_2 C8_2 1_555 1_555
H6_2 C9_2 1_555 1_555
C10_2 H7_2 1_555 1_555
C11_2 C7_2 1_555 1_555
H8_2 C11_2 1_555 1_555
C22_2 C23_2 1_555 1_555
C28_2 C23_2 1_555 1_555
Cd7 O4_2 1_555 1_555
Cd2 N1_2 1_555 1_555
N1_2 C2_2 1_555 1_555
N2_2 C9_2 1_555 1_555
O3_2 C22_2 1_555 1_555
O4_2 C22_2 1_555 1_555
O19 Cd7 1_555 1_555
O20 Cd2 1_555 1_555
C6_2 N1_2 1_555 1_555
C10_2 C11_2 1_555 1_555
C10_2 N2_2 1_555 1_555
Cd7 O11_2 1_555 1_555
Cd2 N3_2 1_555 1_555
Cd2 O3_2 1_555 1_555
Cd2 O11_2 1_555 1_555
Cd2 O19 1_555 1_555
C51_2 H29_2 1_555 1_555
C52_2 C51_2 1_555 1_555
H30_2 C52_2 1_555 1_555
C53_2 C52_2 1_555 1_555
C54_2 C53_2 1_555 1_555
H31_2 C54_2 1_555 1_555
C55_2 C54_2 1_555 1_555
H32_2 C55_2 1_555 1_555
C56_2 C53_2 1_555 1_555
C57_2 C56_2 1_555 1_555
H33_2 C57_2 1_555 1_555
C58_2 C57_2 1_555 1_555
H34_2 C58_2 1_555 1_555
C59_2 H35_2 1_555 1_555
C60_2 C56_2 1_555 1_555
H36_2 C60_2 1_555 1_555
N7_2 C51_2 1_555 1_555
N8_2 C58_2 1_555 1_555
C55_2 N7_2 1_555 1_555
C59_2 C60_2 1_555 1_555
C59_2 N8_2 1_555 1_555
Cd11 N7_2 1_555 1_555
C1_2 C39_2 1_555 1_555
C36_2 C37_2 1_555 1_555
C37_2 C38_2 1_555 1_555
C38_2 H23_2 1_555 1_555
C39_2 C38_2 1_555 1_555
C40_2 C39_2 1_555 1_555
H24_2 C40_2 1_555 1_555
C41_2 C40_2 1_555 1_555
C42_2 C37_2 1_555 1_555
H25_2 C42_2 1_555 1_555
C43_2 C44_2 1_555 1_555
C44_2 C45_2 1_555 1_555
C45_2 H26_2 1_555 1_555
C46_2 C45_2 1_555 1_555
C47_2 C46_2 1_555 1_555
H27_2 C47_2 1_555 1_555
C48_2 C43_2 1_555 1_555
H28_2 C48_2 1_555 1_555
C50_2 C46_2 1_555 1_555
N6_2 C44_2 1_555 1_555
O19 C1_2 1_555 1_555
O20 C1_2 1_555 1_555
O10_2 C36_2 1_555 1_555
O12_2 C41_2 1_555 1_555
O13_2 N6_2 1_555 1_555
O14_2 N6_2 1_555 1_555
O26 C50_2 1_555 1_555
O27 C50_2 1_555 1_555
C41_2 C42_2 1_555 1_555
C43_2 O12_2 1_555 1_555
C47_2 C48_2 1_555 1_555
C13 C12 1_555 1_555
H10 C13 1_555 1_555
C14 C13 1_555 1_555
C15 C14 1_555 1_555
H11 C15 1_555 1_555
C16 C15 1_555 1_555
C17 C14 1_555 1_555
C18 C17 1_555 1_555
H13 C18 1_555 1_555
C19 C18 1_555 1_555
H14 C19 1_555 1_555
C20 H15 1_555 1_555
C21 C17 1_555 1_555
H16 C21 1_555 1_555
C24 H17 1_555 1_555
C25 C24 1_555 1_555
H18 C25 1_555 1_555
N4 C19 1_555 1_555
C20 C21 1_555 1_555
C20 N4 1_555 1_555
N5 C27 1_555 1_555
O5 N5 1_555 1_555
N5_2 C27_2 1_555 1_555
O5_2 N5_2 1_555 1_555
C13_2 C12_2 1_555 1_555
H10_2 C13_2 1_555 1_555
C14_2 C13_2 1_555 1_555
C15_2 C14_2 1_555 1_555
H11_2 C15_2 1_555 1_555
C16_2 C15_2 1_555 1_555
C17_2 C14_2 1_555 1_555
C18_2 C17_2 1_555 1_555
H13_2 C18_2 1_555 1_555
C19_2 C18_2 1_555 1_555
H14_2 C19_2 1_555 1_555
C20_2 H15_2 1_555 1_555
C21_2 C17_2 1_555 1_555
H16_2 C21_2 1_555 1_555
C24_2 H17_2 1_555 1_555
C25_2 C24_2 1_555 1_555
H18_2 C25_2 1_555 1_555
N4_2 C19_2 1_555 1_555
C20_2 C21_2 1_555 1_555
C20_2 N4_2 1_555 1_555

#END
