
###############################################################################
#
# This file contains modified crystal structure data generated from the
# MOF subset of the Cambridge Structural Database (CSD) v543 
# hosted by the Cambridge Crystallographic Data Centre (CCDC).
#
# This work is licensed under the Creative Commons
# Attribution-NonCommercial-ShareAlike 4.0 International License.
# To view a copy of this license, visit
# http://creativecommons.org/licenses/by-nc-sa/4.0/
# or send a letter to
# Creative Commons, PO Box 1866, Mountain View, CA 94042, USA.
#
# CIF created using the CSD Python API on 29 September 2022
# The structure has been converted into the P1 space group
# The structure has a 3D framework
# The original CSD entry KINFAQ is in the monoclinic crystal system
# The framework has been calculated to contain at least 10.0% void space
# The void calculation uses a probe of radius 1.32A, grid spacing 0.4
#
###############################################################################

data_KINFAQ
_chemical_formula_moiety         '(C96 H64 O56 Tm8)n'
_symmetry_cell_setting           triclinic
_symmetry_space_group_name_H-M   'P 1'
_symmetry_Int_Tables_number      1
_space_group_name_Hall           'P 1'
loop_
_symmetry_equiv_pos_site_id
_symmetry_equiv_pos_as_xyz
1 x,y,z
_cell_length_a                   17.488(14)
_cell_length_b                   13.252(11)
_cell_length_c                   18.842(16)
_cell_angle_alpha                90
_cell_angle_beta                 111.044(13)
_cell_angle_gamma                90
_cell_volume                     4075.42
loop_
_atom_site_label
_atom_site_type_symbol
_atom_site_fract_x
_atom_site_fract_y
_atom_site_fract_z
Tm9 Tm 0.00329(6) 0.55826(7) 0.10537(5)
O5 O 0.4162(11) 0.0756(13) 0.5535(11)
O6 O 0.4013(10) 0.1243(15) 0.4388(11)
C9 C 0.3836(14) 0.1245(19) 0.4945(15)
C10 C 0.3152(15) 0.1915(19) 0.4976(14)
C11 C 0.2813(18) 0.263(2) 0.4427(16)
H7 H 0.3030 0.2750 0.4051
C12 C 0.2879(14) 0.180(2) 0.5557(14)
H8 H 0.3143 0.1359 0.5950
O8 O 0.0838(11) 0.4244(13) 0.4465(11)
O9 O 0.0987(10) 0.3757(15) 0.5612(11)
C13 C 0.1164(14) 0.3755(19) 0.5055(15)
C14 C 0.1848(15) 0.3085(19) 0.5024(14)
C15 C 0.2187(18) 0.237(2) 0.5573(16)
H9 H 0.1970 0.2250 0.5949
C16 C 0.2121(14) 0.320(2) 0.4443(14)
H10 H 0.1857 0.3641 0.4050
Tm4 Tm 0.00329(6) 0.44174(7) 0.60537(5)
Tm6 Tm 0.49671(6) 0.05826(7) 0.39463(5)
O17 O 0.5875(12) 0.0798(13) 0.6172(12)
O18 O 0.4125(12) 0.0798(13) 0.8828(12)
O19 O 0.5838(11) 0.0756(13) 0.9465(11)
O16 O 0.5783(11) 0.8735(14) 0.0032(9)
Tm1 Tm 0.50329(6) 0.94174(7) 0.60537(5)
O1 O 0.4103(8) 0.9408(14) 0.6631(10)
O2 O 0.3995(9) 0.9314(12) 0.7757(9)
O3 O 0.0783(11) 0.6265(14) 0.5032(9)
O4 O 0.0875(12) 0.5798(13) 0.6172(12)
O7 O 0.5027(10) 0.7691(12) 0.6392(12)
H1 H 0.4759 0.7581 0.6724
H2 H 0.4770 0.7289 0.5978
C1 C 0.3793(14) 0.9147(15) 0.7097(13)
C2 C 0.3006(12) 0.8478(18) 0.6711(12)
C3 C 0.2663(15) 0.836(2) 0.5959(14)
H3 H 0.2869 0.8717 0.5645
C4 C 0.2043(15) 0.7737(19) 0.5650(14)
H4 H 0.1820 0.7697 0.5123
C5 C 0.1695(15) 0.7131(19) 0.6075(13)
C6 C 0.1076(16) 0.6349(19) 0.572(2)
C7 C 0.2096(15) 0.7204(19) 0.6896(13)
H5 H 0.1922 0.6815 0.7220
C8 C 0.2774(17) 0.790(2) 0.7194(15)
H6 H 0.3051 0.7951 0.7716
Tm2 Tm 0.49671(6) 0.94174(7) 0.89463(5)
O10 O 0.5897(8) 0.9408(14) 0.8369(10)
O11 O 0.6005(9) 0.9314(12) 0.7243(9)
O12 O 0.9217(11) 0.6265(14) 0.9968(9)
O13 O 0.9125(12) 0.5798(13) 0.8828(12)
O14 O 0.4973(10) 0.7691(12) 0.8608(12)
H11 H 0.5241 0.7581 0.8276
H12 H 0.5230 0.7289 0.9022
C17 C 0.6207(14) 0.9147(15) 0.7903(13)
C18 C 0.6994(12) 0.8478(18) 0.8289(12)
C19 C 0.7337(15) 0.836(2) 0.9041(14)
H13 H 0.7131 0.8717 0.9355
C20 C 0.7957(15) 0.7737(19) 0.9350(14)
H14 H 0.8180 0.7697 0.9877
C21 C 0.8305(15) 0.7131(19) 0.8925(13)
C22 C 0.8924(16) 0.6349(19) 0.928(2)
C23 C 0.7904(15) 0.7204(19) 0.8104(13)
H15 H 0.8078 0.6815 0.7780
C24 C 0.7226(17) 0.790(2) 0.7806(15)
H16 H 0.6949 0.7951 0.7284
Tm5 Tm 0.99671(6) 0.44174(7) 0.89463(5)
O15 O 0.4217(11) 0.8735(14) 0.4968(9)
O20 O 0.5987(10) 0.8757(15) 0.5612(11)
O21 O 0.4013(10) 0.8757(15) 0.9388(11)
Tm8 Tm 0.99671(6) 0.55826(7) 0.39463(5)
O6_2 O 0.5987(10) 0.1243(15) 0.0612(11)
C9_2 C 0.6164(14) 0.1245(19) 0.0055(15)
C10_2 C 0.6848(15) 0.1915(19) 0.0024(14)
C11_2 C 0.7187(18) 0.263(2) 0.0573(16)
H7_2 H 0.6970 0.2750 0.0949
O8_2 O 0.9162(11) 0.4244(13) 0.0535(11)
C16_2 C 0.7879(14) 0.320(2) 0.0557(14)
H10_2 H 0.8143 0.3641 0.0950
Tm6_2 Tm 0.50329(6) 0.05826(7) 0.10537(5)
C12_2 C 0.7121(14) 0.180(2) 0.9443(14)
H8_2 H 0.6857 0.1359 0.9050
O9_2 O 0.9013(10) 0.3757(15) 0.9388(11)
C13_2 C 0.8836(14) 0.3755(19) 0.9945(15)
C14_2 C 0.8152(15) 0.3085(19) 0.9976(14)
C15_2 C 0.7813(18) 0.237(2) 0.9427(16)
H9_2 H 0.8030 0.2250 0.9051
O16_2 O 0.0783(11) 0.3735(14) 0.0032(9)
O7_2 O 0.0027(10) 0.2691(12) 0.6392(12)
O10_2 O 0.0897(8) 0.4408(14) 0.8369(10)
O11_2 O 0.1005(9) 0.4314(12) 0.7243(9)
O12_2 O 0.4217(11) 0.1265(14) 0.9968(9)
H11_2 H 0.0241 0.2581 0.8276
H12_2 H 0.0230 0.2289 0.9022
C17_2 C 0.1207(14) 0.4147(15) 0.7903(13)
C18_2 C 0.1994(12) 0.3478(18) 0.8289(12)
C19_2 C 0.2337(15) 0.336(2) 0.9041(14)
H13_2 H 0.2131 0.3717 0.9355
C20_2 C 0.2957(15) 0.2737(19) 0.9350(14)
H14_2 H 0.3180 0.2697 0.9877
C21_2 C 0.3305(15) 0.2131(19) 0.8925(13)
C22_2 C 0.3924(16) 0.1349(19) 0.928(2)
C23_2 C 0.2904(15) 0.2204(19) 0.8104(13)
H15_2 H 0.3078 0.1815 0.7780
C24_2 C 0.2226(17) 0.290(2) 0.7806(15)
H16_2 H 0.1949 0.2951 0.7284
O19_2 O 0.0838(11) 0.5756(13) 0.9465(11)
O1_2 O 0.9103(8) 0.4408(14) 0.6631(10)
O2_2 O 0.8995(9) 0.4314(12) 0.7757(9)
O3_2 O 0.5783(11) 0.1265(14) 0.5032(9)
O5_2 O 0.9162(11) 0.5756(13) 0.5535(11)
O6_3 O 0.9013(10) 0.6243(15) 0.4388(11)
H1_2 H 0.9759 0.2581 0.6724
H2_2 H 0.9770 0.2289 0.5978
C1_2 C 0.8793(14) 0.4147(15) 0.7097(13)
C2_2 C 0.8006(12) 0.3478(18) 0.6711(12)
C3_2 C 0.7663(15) 0.336(2) 0.5959(14)
H3_2 H 0.7869 0.3717 0.5645
C4_2 C 0.7043(15) 0.2737(19) 0.5650(14)
H4_2 H 0.6820 0.2697 0.5123
C5_2 C 0.6695(15) 0.2131(19) 0.6075(13)
C6_2 C 0.6076(16) 0.1349(19) 0.572(2)
C7_2 C 0.7096(15) 0.2204(19) 0.6896(13)
H5_2 H 0.6922 0.1815 0.7220
C8_2 C 0.7774(17) 0.290(2) 0.7194(15)
H6_2 H 0.8051 0.2951 0.7716
C9_3 C 0.8836(14) 0.6245(19) 0.4945(15)
C10_3 C 0.8152(15) 0.6915(19) 0.4976(14)
C11_3 C 0.7813(18) 0.763(2) 0.4427(16)
H7_3 H 0.8030 0.7750 0.4051
C12_3 C 0.7879(14) 0.680(2) 0.5557(14)
H8_3 H 0.8143 0.6359 0.5950
O8_3 O 0.5838(11) 0.9244(13) 0.4465(11)
C13_3 C 0.6164(14) 0.8755(19) 0.5055(15)
C14_3 C 0.6848(15) 0.8085(19) 0.5024(14)
C15_3 C 0.7187(18) 0.737(2) 0.5573(16)
H9_3 H 0.6970 0.7250 0.5949
C16_3 C 0.7121(14) 0.820(2) 0.4443(14)
H10_3 H 0.6857 0.8641 0.4050
O14_2 O 0.9973(10) 0.2691(12) 0.8608(12)
O15_2 O 0.9217(11) 0.3735(14) 0.4968(9)
O6_4 O 0.0987(10) 0.6243(15) 0.0612(11)
C9_4 C 0.1164(14) 0.6245(19) 0.0055(15)
C10_4 C 0.1848(15) 0.6915(19) 0.0024(14)
C11_4 C 0.2187(18) 0.763(2) 0.0573(16)
H7_4 H 0.1970 0.7750 0.0949
O8_4 O 0.4162(11) 0.9244(13) 0.0535(11)
C16_4 C 0.2879(14) 0.820(2) 0.0557(14)
H10_4 H 0.3143 0.8641 0.0950
C12_4 C 0.2121(14) 0.680(2) 0.9443(14)
H8_4 H 0.1857 0.6359 0.9050
C13_4 C 0.3836(14) 0.8755(19) 0.9945(15)
C14_4 C 0.3152(15) 0.8085(19) 0.9976(14)
C15_4 C 0.2813(18) 0.737(2) 0.9427(16)
H9_4 H 0.3030 0.7250 0.9051
O1_3 O 0.5897(8) 0.0592(14) 0.3369(10)
O2_3 O 0.6005(9) 0.0686(12) 0.2243(9)
O4_2 O 0.9125(12) 0.4202(13) 0.3828(12)
O7_3 O 0.4973(10) 0.2309(12) 0.3608(12)
H1_3 H 0.5241 0.2419 0.3276
H2_3 H 0.5230 0.2711 0.4022
C1_3 C 0.6207(14) 0.0853(15) 0.2903(13)
C2_3 C 0.6994(12) 0.1522(18) 0.3289(12)
C3_3 C 0.7337(15) 0.164(2) 0.4041(14)
H3_3 H 0.7131 0.1283 0.4355
C4_3 C 0.7957(15) 0.2263(19) 0.4350(14)
H4_3 H 0.8180 0.2303 0.4877
C5_3 C 0.8305(15) 0.2869(19) 0.3925(13)
C6_3 C 0.8924(16) 0.3651(19) 0.428(2)
C7_3 C 0.7904(15) 0.2796(19) 0.3104(13)
H5_3 H 0.8078 0.3185 0.2780
C8_3 C 0.7226(17) 0.210(2) 0.2806(15)
H6_3 H 0.6949 0.2049 0.2284
O10_3 O 0.4103(8) 0.0592(14) 0.1631(10)
O11_3 O 0.3995(9) 0.0686(12) 0.2757(9)
O13_2 O 0.0875(12) 0.4202(13) 0.1172(12)
O14_3 O 0.5027(10) 0.2309(12) 0.1392(12)
H11_3 H 0.4759 0.2419 0.1724
H12_3 H 0.4770 0.2711 0.0978
C17_3 C 0.3793(14) 0.0853(15) 0.2097(13)
C18_3 C 0.3006(12) 0.1522(18) 0.1711(12)
C19_3 C 0.2663(15) 0.164(2) 0.0959(14)
H13_3 H 0.2869 0.1283 0.0645
C20_3 C 0.2043(15) 0.2263(19) 0.0650(14)
H14_3 H 0.1820 0.2303 0.0123
C21_3 C 0.1695(15) 0.2869(19) 0.1075(13)
C22_3 C 0.1076(16) 0.3651(19) 0.072(2)
C23_3 C 0.2096(15) 0.2796(19) 0.1896(13)
H15_3 H 0.1922 0.3185 0.2220
C24_3 C 0.2774(17) 0.210(2) 0.2194(15)
H16_3 H 0.3051 0.2049 0.2716
O17_2 O 0.4125(12) 0.9202(13) 0.3828(12)
O18_2 O 0.5875(12) 0.9202(13) 0.1172(12)
O1_4 O 0.0897(8) 0.5592(14) 0.3369(10)
O2_4 O 0.1005(9) 0.5686(12) 0.2243(9)
H1_4 H 0.0241 0.7419 0.3276
H2_4 H 0.0230 0.7711 0.4022
C1_4 C 0.1207(14) 0.5853(15) 0.2903(13)
C2_4 C 0.1994(12) 0.6522(18) 0.3289(12)
C3_4 C 0.2337(15) 0.664(2) 0.4041(14)
H3_4 H 0.2131 0.6283 0.4355
C4_4 C 0.2957(15) 0.7263(19) 0.4350(14)
H4_4 H 0.3180 0.7303 0.4877
C5_4 C 0.3305(15) 0.7869(19) 0.3925(13)
C6_4 C 0.3924(16) 0.8651(19) 0.428(2)
C7_4 C 0.2904(15) 0.7796(19) 0.3104(13)
H5_4 H 0.3078 0.8185 0.2780
C8_4 C 0.2226(17) 0.710(2) 0.2806(15)
H6_4 H 0.1949 0.7049 0.2284
O14_4 O 0.0027(10) 0.7309(12) 0.1392(12)
O7_4 O 0.9973(10) 0.7309(12) 0.3608(12)
O10_4 O 0.9103(8) 0.5592(14) 0.1631(10)
O11_4 O 0.8995(9) 0.5686(12) 0.2757(9)
H11_4 H 0.9759 0.7419 0.1724
H12_4 H 0.9770 0.7711 0.0978
C17_4 C 0.8793(14) 0.5853(15) 0.2097(13)
C18_4 C 0.8006(12) 0.6522(18) 0.1711(12)
C19_4 C 0.7663(15) 0.664(2) 0.0959(14)
H13_4 H 0.7869 0.6283 0.0645
C20_4 C 0.7043(15) 0.7263(19) 0.0650(14)
H14_4 H 0.6820 0.7303 0.0123
C21_4 C 0.6695(15) 0.7869(19) 0.1075(13)
C22_4 C 0.6076(16) 0.8651(19) 0.072(2)
C23_4 C 0.7096(15) 0.7796(19) 0.1896(13)
H15_4 H 0.6922 0.8185 0.2220
C24_4 C 0.7774(17) 0.710(2) 0.2194(15)
H16_4 H 0.8051 0.7049 0.2716
loop_
_geom_bond_atom_site_label_1
_geom_bond_atom_site_label_2
_geom_bond_site_symmetry_1
_geom_bond_site_symmetry_2
O6 C9 1_555 1_555
C9 O5 1_555 1_555
C10 C9 1_555 1_555
C11 C10 1_555 1_555
H7 C11 1_555 1_555
C12 C10 1_555 1_555
H8 C12 1_555 1_555
O8 C13 1_555 1_555
O9 C13 1_555 1_555
C13 C14 1_555 1_555
C14 C15 1_555 1_555
C15 C12 1_555 1_555
H9 C15 1_555 1_555
C16 C11 1_555 1_555
H10 C16 1_555 1_555
Tm4 O9 1_555 1_555
Tm6 O6 1_555 1_555
C14 C16 1_555 1_555
Tm1 O1 1_555 1_555
O1 C1 1_555 1_555
O2 C1 1_555 1_555
O3 C6 1_555 1_555
O4 C6 1_555 1_555
O7 Tm1 1_555 1_555
H1 O7 1_555 1_555
H2 O7 1_555 1_555
C1 C2 1_555 1_555
C2 C3 1_555 1_555
C3 H3 1_555 1_555
C4 C3 1_555 1_555
H4 C4 1_555 1_555
C5 C4 1_555 1_555
C6 C5 1_555 1_555
C7 C5 1_555 1_555
H5 C7 1_555 1_555
C8 C2 1_555 1_555
H6 C8 1_555 1_555
Tm2 O2 1_555 1_555
O10 Tm2 1_555 1_555
O11 Tm1 1_555 1_555
O12 C22 1_555 1_555
O13 C22 1_555 1_555
O14 Tm2 1_555 1_555
H11 O14 1_555 1_555
H12 O14 1_555 1_555
C17 O10 1_555 1_555
C18 C17 1_555 1_555
C19 C18 1_555 1_555
H13 C19 1_555 1_555
C20 C19 1_555 1_555
H14 C20 1_555 1_555
C21 C20 1_555 1_555
C22 C21 1_555 1_555
C23 C21 1_555 1_555
H15 C23 1_555 1_555
C24 C18 1_555 1_555
H16 C24 1_555 1_555
Tm4 O4 1_555 1_555
Tm5 O13 1_555 1_555
O15 Tm1 1_555 1_555
O20 Tm1 1_555 1_555
O21 Tm2 1_555 1_555
C7 C8 1_555 1_555
O11 C17 1_555 1_555
C23 C24 1_555 1_555
O6_2 C9_2 1_555 1_555
C10_2 C9_2 1_555 1_555
C11_2 C10_2 1_555 1_555
H7_2 C11_2 1_555 1_555
C16_2 C11_2 1_555 1_555
H10_2 C16_2 1_555 1_555
Tm6_2 O6_2 1_555 1_555
H8_2 C12_2 1_555 1_555
O9_2 C13_2 1_555 1_555
C13_2 C14_2 1_555 1_555
C14_2 C15_2 1_555 1_555
C15_2 C12_2 1_555 1_555
H9_2 C15_2 1_555 1_555
Tm5 O9_2 1_555 1_555
O7_2 Tm4 1_555 1_555
O11_2 Tm4 1_555 1_555
O12_2 C22_2 1_555 1_555
O18 C22_2 1_555 1_555
C17_2 O10_2 1_555 1_555
C18_2 C17_2 1_555 1_555
C19_2 C18_2 1_555 1_555
H13_2 C19_2 1_555 1_555
C20_2 C19_2 1_555 1_555
H14_2 C20_2 1_555 1_555
C21_2 C20_2 1_555 1_555
C22_2 C21_2 1_555 1_555
C23_2 C21_2 1_555 1_555
H15_2 C23_2 1_555 1_555
C24_2 C18_2 1_555 1_555
H16_2 C24_2 1_555 1_555
O11_2 C17_2 1_555 1_555
C23_2 C24_2 1_555 1_555
O1_2 C1_2 1_555 1_555
O2_2 C1_2 1_555 1_555
O3_2 C6_2 1_555 1_555
O17 C6_2 1_555 1_555
O6_3 C9_3 1_555 1_555
C1_2 C2_2 1_555 1_555
C2_2 C3_2 1_555 1_555
C3_2 H3_2 1_555 1_555
C4_2 C3_2 1_555 1_555
H4_2 C4_2 1_555 1_555
C5_2 C4_2 1_555 1_555
C6_2 C5_2 1_555 1_555
C7_2 C5_2 1_555 1_555
H5_2 C7_2 1_555 1_555
C8_2 C2_2 1_555 1_555
H6_2 C8_2 1_555 1_555
C9_3 O5_2 1_555 1_555
C10_3 C9_3 1_555 1_555
C11_3 C10_3 1_555 1_555
H7_3 C11_3 1_555 1_555
C12_3 C10_3 1_555 1_555
H8_3 C12_3 1_555 1_555
O8_3 C13_3 1_555 1_555
O20 C13_3 1_555 1_555
C13_3 C14_3 1_555 1_555
C14_3 C15_3 1_555 1_555
C15_3 C12_3 1_555 1_555
H9_3 C15_3 1_555 1_555
C16_3 C11_3 1_555 1_555
H10_3 C16_3 1_555 1_555
Tm5 O2_2 1_555 1_555
O14_2 Tm5 1_555 1_555
Tm8 O6_3 1_555 1_555
Tm6 O3_2 1_555 1_555
C7_2 C8_2 1_555 1_555
C14_3 C16_3 1_555 1_555
O6_4 C9_4 1_555 1_555
C10_4 C9_4 1_555 1_555
C11_4 C10_4 1_555 1_555
H7_4 C11_4 1_555 1_555
C16_4 C11_4 1_555 1_555
H10_4 C16_4 1_555 1_555
Tm9 O6_4 1_555 1_555
H8_4 C12_4 1_555 1_555
O21 C13_4 1_555 1_555
C13_4 C14_4 1_555 1_555
C14_4 C15_4 1_555 1_555
C15_4 C12_4 1_555 1_555
H9_4 C15_4 1_555 1_555
Tm6 O1_3 1_555 1_555
O1_3 C1_3 1_555 1_555
O2_3 C1_3 1_555 1_555
O15_2 C6_3 1_555 1_555
O4_2 C6_3 1_555 1_555
O7_3 Tm6 1_555 1_555
H1_3 O7_3 1_555 1_555
H2_3 O7_3 1_555 1_555
C1_3 C2_3 1_555 1_555
C2_3 C3_3 1_555 1_555
C3_3 H3_3 1_555 1_555
C4_3 C3_3 1_555 1_555
H4_3 C4_3 1_555 1_555
C5_3 C4_3 1_555 1_555
C6_3 C5_3 1_555 1_555
C7_3 C5_3 1_555 1_555
H5_3 C7_3 1_555 1_555
C8_3 C2_3 1_555 1_555
H6_3 C8_3 1_555 1_555
Tm6_2 O2_3 1_555 1_555
O10_3 Tm6_2 1_555 1_555
O11_3 Tm6 1_555 1_555
O16_2 C22_3 1_555 1_555
O13_2 C22_3 1_555 1_555
O14_3 Tm6_2 1_555 1_555
H11_3 O14_3 1_555 1_555
H12_3 O14_3 1_555 1_555
C17_3 O10_3 1_555 1_555
C18_3 C17_3 1_555 1_555
C19_3 C18_3 1_555 1_555
H13_3 C19_3 1_555 1_555
C20_3 C19_3 1_555 1_555
H14_3 C20_3 1_555 1_555
C21_3 C20_3 1_555 1_555
C22_3 C21_3 1_555 1_555
C23_3 C21_3 1_555 1_555
H15_3 C23_3 1_555 1_555
C24_3 C18_3 1_555 1_555
H16_3 C24_3 1_555 1_555
Tm8 O4_2 1_555 1_555
Tm9 O13_2 1_555 1_555
C7_3 C8_3 1_555 1_555
O11_3 C17_3 1_555 1_555
C23_3 C24_3 1_555 1_555
O1_4 C1_4 1_555 1_555
O2_4 C1_4 1_555 1_555
O15 C6_4 1_555 1_555
O17_2 C6_4 1_555 1_555
C1_4 C2_4 1_555 1_555
C2_4 C3_4 1_555 1_555
C3_4 H3_4 1_555 1_555
C4_4 C3_4 1_555 1_555
H4_4 C4_4 1_555 1_555
C5_4 C4_4 1_555 1_555
C6_4 C5_4 1_555 1_555
C7_4 C5_4 1_555 1_555
H5_4 C7_4 1_555 1_555
C8_4 C2_4 1_555 1_555
H6_4 C8_4 1_555 1_555
Tm9 O2_4 1_555 1_555
O14_4 Tm9 1_555 1_555
C7_4 C8_4 1_555 1_555
O7_4 Tm8 1_555 1_555
O11_4 Tm8 1_555 1_555
O16 C22_4 1_555 1_555
O18_2 C22_4 1_555 1_555
C17_4 O10_4 1_555 1_555
C18_4 C17_4 1_555 1_555
C19_4 C18_4 1_555 1_555
H13_4 C19_4 1_555 1_555
C20_4 C19_4 1_555 1_555
H14_4 C20_4 1_555 1_555
C21_4 C20_4 1_555 1_555
C22_4 C21_4 1_555 1_555
C23_4 C21_4 1_555 1_555
H15_4 C23_4 1_555 1_555
C24_4 C18_4 1_555 1_555
H16_4 C24_4 1_555 1_555
O11_4 C17_4 1_555 1_555
C23_4 C24_4 1_555 1_555

#END
