
###############################################################################
#
# This file contains modified crystal structure data generated from the
# MOF subset of the Cambridge Structural Database (CSD) v543 
# hosted by the Cambridge Crystallographic Data Centre (CCDC).
#
# This work is licensed under the Creative Commons
# Attribution-NonCommercial-ShareAlike 4.0 International License.
# To view a copy of this license, visit
# http://creativecommons.org/licenses/by-nc-sa/4.0/
# or send a letter to
# Creative Commons, PO Box 1866, Mountain View, CA 94042, USA.
#
# CIF created using the CSD Python API on 29 September 2022
# The structure has been converted into the P1 space group
# The structure has a 3D framework
# The original CSD entry KINGOF is in the monoclinic crystal system
# The framework has been calculated to contain at least 10.0% void space
# The void calculation uses a probe of radius 1.32A, grid spacing 0.4
#
###############################################################################

data_KINGOF
_chemical_formula_moiety         '(C104 H56 F24 N4 O16 S4 Zn4)n'
_symmetry_cell_setting           triclinic
_symmetry_space_group_name_H-M   'P 1'
_symmetry_Int_Tables_number      1
_space_group_name_Hall           'P 1'
loop_
_symmetry_equiv_pos_site_id
_symmetry_equiv_pos_as_xyz
1 x,y,z
_cell_length_a                   15.4994(14)
_cell_length_b                   7.5708(7)
_cell_length_c                   23.427(2)
_cell_angle_alpha                90
_cell_angle_beta                 96.993(2)
_cell_angle_gamma                90
_cell_volume                     2728.54
loop_
_atom_site_label
_atom_site_type_symbol
_atom_site_fract_x
_atom_site_fract_y
_atom_site_fract_z
C1 C 0.57015(17) 0.3714(4) 0.41472(12)
C2 C 0.62427(17) 0.3035(4) 0.37010(11)
C3 C 0.69341(17) 0.4029(4) 0.35530(12)
H1 H 0.7025 0.5163 0.3701
C4 C 0.74922(18) 0.3345(4) 0.31858(12)
H2 H 0.7953 0.4024 0.3088
C5 C 0.73622(17) 0.1649(4) 0.29646(11)
C6 C 0.66457(17) 0.0681(4) 0.30993(12)
C7 C 0.60957(18) 0.1360(4) 0.34648(12)
H4 H 0.5625 0.0696 0.3554
C8 C 0.79966(17) 0.0727(4) 0.25981(12)
C10 C 0.85893(18) 0.2040(4) 0.23263(13)
H7 H 0.5809 0.0212 0.1138
C16 C 0.67715(17) 0.0510(4) 0.17886(11)
H8 H 0.6619 0.1650 0.1886
C18 C 0.25792(18) 0.2261(4) 0.45664(13)
H9 H 0.2528 0.3353 0.4383
C19 C 0.18585(19) 0.1180(4) 0.45258(14)
H10 H 0.1338 0.1537 0.4318
C22 C 0.34102(17) 0.0247(4) 0.51133(12)
F2 F 0.88960(11) 0.0408(2) 0.34965(7)
F4 F 0.91681(10) 0.2847(2) 0.27093(7)
F5 F 0.90384(10) 0.1255(2) 0.19441(7)
F6 F 0.81181(10) 0.3330(2) 0.20368(7)
N1 N 0.33500(13) 0.1825(3) 0.48555(9)
O1 O 0.59522(12) 0.5138(3) 0.43905(8)
O2 O 0.50746(12) 0.2783(3) 0.42632(8)
Zn1 Zn 0.437994(19) 0.34906(4) 0.491309(13)
O10 O 0.40478(12) 0.4862(3) 0.56095(8)
O12 O 0.52849(12) 0.2250(2) 0.54788(8)
O13 O 0.38103(12) 0.5438(2) 0.43966(9)
Zn6 Zn 0.562006(19) 0.65094(4) 0.508691(13)
C27 C 0.74208(18) 0.7739(4) 0.54336(13)
H15 H 0.7472 0.6647 0.5617
C28 C 0.81415(19) 0.8820(4) 0.54742(14)
H16 H 0.8662 0.8463 0.5682
C31 C 0.65898(17) 0.9753(4) 0.48867(12)
N2 N 0.66500(13) 0.8175(3) 0.51445(9)
C36 C 0.42985(17) 0.6286(4) 0.58528(12)
C37 C 0.37573(17) 0.6965(4) 0.62990(11)
C38 C 0.30659(17) 0.5971(4) 0.64470(12)
H21 H 0.2975 0.4837 0.6299
C39 C 0.25078(18) 0.6655(4) 0.68142(12)
H22 H 0.2047 0.5976 0.6912
C40 C 0.26378(17) 0.8351(4) 0.70354(11)
C41 C 0.33543(17) 0.9319(4) 0.69007(12)
C42 C 0.39043(18) 0.8640(4) 0.65352(12)
H24 H 0.4375 0.9304 0.6446
C43 C 0.20034(17) 0.9273(4) 0.74019(12)
C45 C 0.14107(18) 0.7960(4) 0.76737(13)
H27 H 0.4191 0.9788 0.8862
C51 C 0.32285(17) 0.9490(4) 0.82114(11)
H28 H 0.3381 0.8350 0.8114
F8 F 0.11040(11) 0.9592(2) 0.65035(7)
F10 F 0.08319(10) 0.7153(2) 0.72907(7)
F11 F 0.09616(10) 0.8745(2) 0.80559(7)
F12 F 0.18819(10) 0.6670(2) 0.79632(7)
O6 O 0.49254(12) 0.7217(3) 0.57368(8)
O11 O 0.47151(12) 0.7750(2) 0.45212(8)
O14 O 0.61897(12) 0.4562(2) 0.56034(9)
C29 C 0.19198(18) 0.0462(4) 0.98016(13)
C32 C 0.11740(19) 0.1662(4) 0.97703(14)
C33 C 0.0368(2) 0.1487(5) 0.94784(18)
H19 H 0.0200 0.0522 0.9246
C35 C 0.0187(2) 0.4178(4) 0.99119(15)
H23 H 0.6539 0.0435 0.7940
C44 C 0.85795(19) 0.0471(4) 0.80198(13)
C46 C 0.74911(17) 0.0306(4) 0.70975(12)
C47 C 0.77180(18) 0.1999(4) 0.69362(12)
H25 H 0.8204 0.2551 0.7130
C48 C 0.72216(18) 0.2868(4) 0.64874(13)
H26 H 0.7376 0.4002 0.6386
C49 C 0.64955(17) 0.2059(4) 0.61887(12)
C50 C 0.62837(17) 0.0354(3) 0.63400(12)
C52 C 0.59474(17) 0.3033(4) 0.57211(12)
F7 F 0.81325(11) 0.1848(2) 0.81924(7)
F9 F 0.92659(10) 0.1128(2) 0.77945(7)
H3 H 0.3461 0.9565 0.2060
C9 C 0.14205(19) 0.9529(4) 0.19802(13)
C11 C 0.25089(17) 0.9694(4) 0.29025(12)
C12 C 0.22820(18) 0.8001(4) 0.30638(12)
H5 H 0.1796 0.7449 0.2870
C13 C 0.27784(18) 0.7132(4) 0.35126(13)
H6 H 0.2624 0.5998 0.3614
C14 C 0.35045(17) 0.7941(4) 0.38113(12)
C15 C 0.37163(17) 0.9646(3) 0.36600(12)
C17 C 0.40526(17) 0.6967(4) 0.42789(12)
C20 C 0.80802(18) 0.9538(4) 0.01984(13)
C23 C 0.88260(19) 0.8338(4) 0.02297(14)
C24 C 0.9632(2) 0.8513(5) 0.05216(18)
H13 H 0.9800 0.9478 0.0754
C26 C 0.9813(2) 0.5822(4) 0.00881(15)
F1 F 0.18675(11) 0.8152(2) 0.18076(7)
F3 F 0.07341(10) 0.8872(2) 0.22055(7)
H3_2 H 0.6539 0.9565 0.2940
C9_2 C 0.85795(19) 0.9529(4) 0.30198(13)
C11_2 C 0.74911(17) 0.9694(4) 0.20975(12)
C12_2 C 0.77180(18) 0.8001(4) 0.19362(12)
H5_2 H 0.8204 0.7449 0.2130
C13_2 C 0.72216(18) 0.7132(4) 0.14874(13)
H6_2 H 0.7376 0.5998 0.1386
C14_2 C 0.64955(17) 0.7941(4) 0.11887(12)
C15_2 C 0.62837(17) 0.9646(3) 0.13400(12)
C17_2 C 0.59474(17) 0.6967(4) 0.07211(12)
C20_2 C 0.19198(18) 0.9538(4) 0.48016(13)
C21 C 0.27223(18) 0.9087(4) 0.50961(13)
H11 H 0.2795 0.8001 0.5282
H12 H 0.3941 0.9917 0.5314
C23_2 C 0.11740(19) 0.8338(4) 0.47703(14)
C24_2 C 0.0368(2) 0.8513(5) 0.44784(18)
H13_2 H 0.0200 0.9478 0.4246
C26_2 C 0.0187(2) 0.5822(4) 0.49119(15)
F1_2 F 0.81325(11) 0.8152(2) 0.31924(7)
F3_2 F 0.92659(10) 0.8872(2) 0.27945(7)
O3 O 0.52849(12) 0.7750(2) 0.04788(8)
O4 O 0.61897(12) 0.5438(2) 0.06034(9)
S1 S 0.12352(5) 0.63936(11) 0.51572(4)
C34 C 0.0189(2) 0.2900(5) 0.54392(19)
H20 H 0.0762 0.2954 0.5610
Zn5 Zn 0.562006(19) 0.34906(4) 0.008691(13)
C31_2 C 0.34102(17) 0.9753(4) 0.01133(12)
O9 O 0.40478(12) 0.5138(3) 0.06095(8)
C1_2 C 0.42985(17) 0.3714(4) 0.08528(12)
C2_2 C 0.37573(17) 0.3035(4) 0.12990(11)
C3_2 C 0.30659(17) 0.4029(4) 0.14470(12)
H1_2 H 0.2975 0.5163 0.1299
C4_2 C 0.25078(18) 0.3345(4) 0.18142(12)
H2_2 H 0.2047 0.4024 0.1912
C5_2 C 0.26378(17) 0.1649(4) 0.20354(11)
C6_2 C 0.33543(17) 0.0681(4) 0.19007(12)
C7_2 C 0.39043(18) 0.1360(4) 0.15352(12)
H4_2 H 0.4375 0.0696 0.1446
C8_2 C 0.20034(17) 0.0727(4) 0.24019(12)
C10_2 C 0.14107(18) 0.2040(4) 0.26737(13)
H7_2 H 0.4191 0.0212 0.3862
C16_2 C 0.32285(17) 0.0510(4) 0.32114(11)
H8_2 H 0.3381 0.1650 0.3114
C18_2 C 0.74208(18) 0.2261(4) 0.04336(13)
H9_2 H 0.7472 0.3353 0.0617
C19_2 C 0.81415(19) 0.1180(4) 0.04742(14)
H10_2 H 0.8662 0.1537 0.0682
F2_2 F 0.11040(11) 0.0408(2) 0.15035(7)
F4_2 F 0.08319(10) 0.2847(2) 0.22907(7)
F5_2 F 0.09616(10) 0.1255(2) 0.30559(7)
F6_2 F 0.18819(10) 0.3330(2) 0.29632(7)
N1_2 N 0.66500(13) 0.1825(3) 0.01445(9)
O2_2 O 0.49254(12) 0.2783(3) 0.07368(8)
Zn8 Zn 0.437994(19) 0.65094(4) 0.991309(13)
C25 C 0.9811(2) 0.7100(5) 0.45608(19)
H14 H 0.9238 0.7046 0.4390
C29_2 C 0.80802(18) 0.0462(4) 0.51984(13)
C30 C 0.72777(18) 0.0913(4) 0.49039(13)
H17 H 0.7205 0.1999 0.4718
H18 H 0.6059 0.0083 0.4686
C32_2 C 0.88260(19) 0.1662(4) 0.52297(14)
C33_2 C 0.9632(2) 0.1487(5) 0.55216(18)
H19_2 H 0.9800 0.0522 0.5754
C35_2 C 0.9813(2) 0.4178(4) 0.50881(15)
S2 S 0.87648(5) 0.36064(11) 0.48428(4)
H23_2 H 0.3461 0.0435 0.7060
C44_2 C 0.14205(19) 0.0471(4) 0.69802(13)
C46_2 C 0.25089(17) 0.0306(4) 0.79025(12)
C47_2 C 0.22820(18) 0.1999(4) 0.80638(12)
H25_2 H 0.1796 0.2551 0.7870
C48_2 C 0.27784(18) 0.2868(4) 0.85126(13)
H26_2 H 0.2624 0.4002 0.8614
C49_2 C 0.35045(17) 0.2059(4) 0.88113(12)
C50_2 C 0.37163(17) 0.0354(3) 0.86600(12)
C52_2 C 0.40526(17) 0.3033(4) 0.92789(12)
F7_2 F 0.18675(11) 0.1848(2) 0.68076(7)
F9_2 F 0.07341(10) 0.1128(2) 0.72055(7)
O7 O 0.47151(12) 0.2250(2) 0.95212(8)
O8 O 0.38103(12) 0.4562(2) 0.93966(9)
C27_2 C 0.25792(18) 0.7739(4) 0.95664(13)
H15_2 H 0.2528 0.6647 0.9383
C28_2 C 0.18585(19) 0.8820(4) 0.95258(14)
H16_2 H 0.1338 0.8463 0.9318
N2_2 N 0.33500(13) 0.8175(3) 0.98555(9)
C36_2 C 0.57015(17) 0.6286(4) 0.91472(12)
C37_2 C 0.62427(17) 0.6965(4) 0.87010(11)
C38_2 C 0.69341(17) 0.5971(4) 0.85530(12)
H21_2 H 0.7025 0.4837 0.8701
C39_2 C 0.74922(18) 0.6655(4) 0.81858(12)
H22_2 H 0.7953 0.5976 0.8088
C40_2 C 0.73622(17) 0.8351(4) 0.79646(11)
C41_2 C 0.66457(17) 0.9319(4) 0.80993(12)
C42_2 C 0.60957(18) 0.8640(4) 0.84648(12)
H24_2 H 0.5625 0.9304 0.8554
C43_2 C 0.79966(17) 0.9273(4) 0.75981(12)
C45_2 C 0.85893(18) 0.7960(4) 0.73263(13)
H27_2 H 0.5809 0.9788 0.6138
C51_2 C 0.67715(17) 0.9490(4) 0.67886(11)
H28_2 H 0.6619 0.8350 0.6886
F8_2 F 0.88960(11) 0.9592(2) 0.84965(7)
F10_2 F 0.91681(10) 0.7153(2) 0.77093(7)
F11_2 F 0.90384(10) 0.8745(2) 0.69441(7)
F12_2 F 0.81181(10) 0.6670(2) 0.70368(7)
O5 O 0.59522(12) 0.4862(3) 0.93905(8)
O6_2 O 0.50746(12) 0.7217(3) 0.92632(8)
C22_2 C 0.65898(17) 0.0247(4) 0.98867(12)
C25_2 C 0.0189(2) 0.7100(5) 0.04392(19)
H14_2 H 0.0762 0.7046 0.0610
C30_2 C 0.27223(18) 0.0913(4) 0.00961(13)
H17_2 H 0.2795 0.1999 0.0282
H18_2 H 0.3941 0.0083 0.0314
S2_2 S 0.12352(5) 0.36064(11) 0.01572(4)
C21_2 C 0.72777(18) 0.9087(4) 0.99039(13)
H11_2 H 0.7205 0.8001 0.9718
H12_2 H 0.6059 0.9917 0.9686
S1_2 S 0.87648(5) 0.63936(11) 0.98428(4)
C34_2 C 0.9811(2) 0.2900(5) 0.95608(19)
H20_2 H 0.9238 0.2954 0.9390
loop_
_geom_bond_atom_site_label_1
_geom_bond_atom_site_label_2
_geom_bond_site_symmetry_1
_geom_bond_site_symmetry_2
C1 C2 1_555 1_555
C2 C3 1_555 1_555
C3 H1 1_555 1_555
C4 C3 1_555 1_555
H2 C4 1_555 1_555
C5 C4 1_555 1_555
C6 C5 1_555 1_555
C7 C2 1_555 1_555
H4 C7 1_555 1_555
C8 C5 1_555 1_555
C10 C8 1_555 1_555
H8 C16 1_555 1_555
C18 H9 1_555 1_555
C19 C18 1_555 1_555
H10 C19 1_555 1_555
F4 C10 1_555 1_555
F5 C10 1_555 1_555
F6 C10 1_555 1_555
N1 C18 1_555 1_555
O1 C1 1_555 1_555
O2 C1 1_555 1_555
Zn1 N1 1_555 1_555
O10 Zn1 1_555 1_555
O12 Zn1 1_555 1_555
O13 Zn1 1_555 1_555
Zn6 O1 1_555 1_555
C6 C7 1_555 1_555
C22 N1 1_555 1_555
O2 Zn1 1_555 1_555
C27 H15 1_555 1_555
C28 C27 1_555 1_555
H16 C28 1_555 1_555
N2 C27 1_555 1_555
C36 C37 1_555 1_555
C37 C38 1_555 1_555
C38 H21 1_555 1_555
C39 C38 1_555 1_555
H22 C39 1_555 1_555
C40 C39 1_555 1_555
C41 C40 1_555 1_555
C42 C37 1_555 1_555
H24 C42 1_555 1_555
C43 C40 1_555 1_555
C45 C43 1_555 1_555
H28 C51 1_555 1_555
F10 C45 1_555 1_555
F11 C45 1_555 1_555
F12 C45 1_555 1_555
O10 C36 1_555 1_555
O6 C36 1_555 1_555
Zn6 N2 1_555 1_555
O11 Zn6 1_555 1_555
O14 Zn6 1_555 1_555
C31 N2 1_555 1_555
C41 C42 1_555 1_555
O6 Zn6 1_555 1_555
C32 C29 1_555 1_555
C33 C32 1_555 1_555
H19 C33 1_555 1_555
C47 C46 1_555 1_555
H25 C47 1_555 1_555
C48 C47 1_555 1_555
H26 C48 1_555 1_555
C49 C48 1_555 1_555
C50 C49 1_555 1_555
C52 C49 1_555 1_555
F7 C44 1_555 1_555
F9 C44 1_555 1_555
O12 C52 1_555 1_555
O14 C52 1_555 1_555
C12 C11 1_555 1_555
H5 C12 1_555 1_555
C13 C12 1_555 1_555
H6 C13 1_555 1_555
C14 C13 1_555 1_555
C15 C14 1_555 1_555
C17 C14 1_555 1_555
C23 C20 1_555 1_555
C24 C23 1_555 1_555
H13 C24 1_555 1_555
F1 C9 1_555 1_555
F3 C9 1_555 1_555
O11 C17 1_555 1_555
O13 C17 1_555 1_555
C12_2 C11_2 1_555 1_555
H5_2 C12_2 1_555 1_555
C13_2 C12_2 1_555 1_555
H6_2 C13_2 1_555 1_555
C14_2 C13_2 1_555 1_555
C15_2 C14_2 1_555 1_555
C17_2 C14_2 1_555 1_555
C21 C20_2 1_555 1_555
H11 C21 1_555 1_555
C23_2 C20_2 1_555 1_555
C24_2 C23_2 1_555 1_555
H13_2 C24_2 1_555 1_555
F1_2 C9_2 1_555 1_555
F3_2 C9_2 1_555 1_555
O3 C17_2 1_555 1_555
O4 C17_2 1_555 1_555
S1 C23_2 1_555 1_555
H20 C34 1_555 1_555
Zn5 O4 1_555 1_555
C26_2 S1 1_555 1_555
C1_2 C2_2 1_555 1_555
C2_2 C3_2 1_555 1_555
C3_2 H1_2 1_555 1_555
C4_2 C3_2 1_555 1_555
H2_2 C4_2 1_555 1_555
C5_2 C4_2 1_555 1_555
C6_2 C5_2 1_555 1_555
C7_2 C2_2 1_555 1_555
H4_2 C7_2 1_555 1_555
C8_2 C5_2 1_555 1_555
C10_2 C8_2 1_555 1_555
H8_2 C16_2 1_555 1_555
C18_2 H9_2 1_555 1_555
C19_2 C18_2 1_555 1_555
H10_2 C19_2 1_555 1_555
F4_2 C10_2 1_555 1_555
F5_2 C10_2 1_555 1_555
F6_2 C10_2 1_555 1_555
N1_2 C18_2 1_555 1_555
O9 C1_2 1_555 1_555
O2_2 C1_2 1_555 1_555
Zn5 N1_2 1_555 1_555
C6_2 C7_2 1_555 1_555
O2_2 Zn5 1_555 1_555
H14 C25 1_555 1_555
C30 C29_2 1_555 1_555
H17 C30 1_555 1_555
C32_2 C29_2 1_555 1_555
C33_2 C32_2 1_555 1_555
H19_2 C33_2 1_555 1_555
S2 C32_2 1_555 1_555
C47_2 C46_2 1_555 1_555
H25_2 C47_2 1_555 1_555
C48_2 C47_2 1_555 1_555
H26_2 C48_2 1_555 1_555
C49_2 C48_2 1_555 1_555
C50_2 C49_2 1_555 1_555
C52_2 C49_2 1_555 1_555
F7_2 C44_2 1_555 1_555
F9_2 C44_2 1_555 1_555
O7 C52_2 1_555 1_555
O8 C52_2 1_555 1_555
Zn8 O8 1_555 1_555
C35_2 S2 1_555 1_555
C27_2 H15_2 1_555 1_555
C28_2 C27_2 1_555 1_555
H16_2 C28_2 1_555 1_555
N2_2 C27_2 1_555 1_555
C36_2 C37_2 1_555 1_555
C37_2 C38_2 1_555 1_555
C38_2 H21_2 1_555 1_555
C39_2 C38_2 1_555 1_555
H22_2 C39_2 1_555 1_555
C40_2 C39_2 1_555 1_555
C41_2 C40_2 1_555 1_555
C42_2 C37_2 1_555 1_555
H24_2 C42_2 1_555 1_555
C43_2 C40_2 1_555 1_555
C45_2 C43_2 1_555 1_555
H28_2 C51_2 1_555 1_555
F10_2 C45_2 1_555 1_555
F11_2 C45_2 1_555 1_555
F12_2 C45_2 1_555 1_555
O5 C36_2 1_555 1_555
O6_2 C36_2 1_555 1_555
Zn8 N2_2 1_555 1_555
C41_2 C42_2 1_555 1_555
O6_2 Zn8 1_555 1_555
H14_2 C25_2 1_555 1_555
H17_2 C30_2 1_555 1_555
H11_2 C21_2 1_555 1_555
H20_2 C34_2 1_555 1_555

#END
