
###############################################################################
#
# This file contains modified crystal structure data generated from the
# MOF subset of the Cambridge Structural Database (CSD) v543 
# hosted by the Cambridge Crystallographic Data Centre (CCDC).
#
# This work is licensed under the Creative Commons
# Attribution-NonCommercial-ShareAlike 4.0 International License.
# To view a copy of this license, visit
# http://creativecommons.org/licenses/by-nc-sa/4.0/
# or send a letter to
# Creative Commons, PO Box 1866, Mountain View, CA 94042, USA.
#
# CIF created using the CSD Python API on 29 September 2022
# The structure has been converted into the P1 space group
# The structure has a 3D framework
# The original CSD entry KINGUL is in the monoclinic crystal system
# The framework has been calculated to contain at least 10.0% void space
# The void calculation uses a probe of radius 1.32A, grid spacing 0.4
#
###############################################################################

data_KINGUL
_chemical_formula_moiety         '(C104 H56 Co4 F24 N4 O16 S4)n'
_symmetry_cell_setting           triclinic
_symmetry_space_group_name_H-M   'P 1'
_symmetry_Int_Tables_number      1
_space_group_name_Hall           'P 1'
loop_
_symmetry_equiv_pos_site_id
_symmetry_equiv_pos_as_xyz
1 x,y,z
_cell_length_a                   15.4985(11)
_cell_length_b                   7.5058(5)
_cell_length_c                   23.5458(17)
_cell_angle_alpha                90
_cell_angle_beta                 96.2720(10)
_cell_angle_gamma                90
_cell_volume                     2722.66
loop_
_atom_site_label
_atom_site_type_symbol
_atom_site_fract_x
_atom_site_fract_y
_atom_site_fract_z
C27 C 0.25948(19) 0.2299(4) 0.45762(16)
H15 H 0.2549 0.3388 0.4387
C28 C 0.1876(2) 0.1211(5) 0.45394(18)
H16 H 0.1360 0.1576 0.4333
C31 C 0.33993(16) 0.0298(4) 0.51172(12)
N2 N 0.33475(13) 0.1880(3) 0.48660(9)
Co5 Co 0.442049(19) 0.35369(4) 0.492132(12)
C1 C 0.42517(17) 0.6314(3) 0.58333(11)
C2 C 0.37154(17) 0.7006(4) 0.62794(11)
C3 C 0.30112(18) 0.6042(4) 0.64256(12)
H1 H 0.2903 0.4912 0.6272
C4 C 0.24680(19) 0.6734(4) 0.67971(13)
H2 H 0.1996 0.6070 0.6890
C5 C 0.26210(17) 0.8417(4) 0.70336(12)
C6 C 0.33388(18) 0.9362(4) 0.68917(12)
C7 C 0.38794(19) 0.8676(4) 0.65221(12)
H4 H 0.4357 0.9330 0.6434
C8 C 0.20005(17) 0.9357(4) 0.74110(11)
C10 C 0.14115(19) 0.8028(5) 0.76809(14)
H7 H 0.4184 0.9774 0.8850
C16 C 0.32227(17) 0.9528(4) 0.82070(11)
H8 H 0.3369 0.8382 0.8102
C18 C 0.74052(19) 0.7701(4) 0.54238(16)
H9 H 0.7451 0.6612 0.5613
C19 C 0.8124(2) 0.8789(5) 0.54606(18)
H10 H 0.8640 0.8424 0.5667
C22 C 0.66007(16) 0.9702(4) 0.48828(12)
Co1 Co 0.557951(19) 0.64631(4) 0.507868(12)
F2 F 0.11040(15) 0.9736(4) 0.65333(9)
F4 F 0.18728(14) 0.6731(3) 0.79577(9)
F5 F 0.09675(13) 0.8825(3) 0.80662(10)
F6 F 0.08277(12) 0.7242(3) 0.73061(9)
N1 N 0.66525(13) 0.8120(3) 0.51340(9)
O1 O 0.48919(12) 0.7219(3) 0.57203(8)
O2 O 0.39953(13) 0.4889(3) 0.55937(8)
C36 C 0.57483(17) 0.3686(3) 0.41667(11)
C37 C 0.62846(17) 0.2994(4) 0.37206(11)
C38 C 0.69888(18) 0.3958(4) 0.35744(12)
H21 H 0.7097 0.5088 0.3728
C39 C 0.75320(19) 0.3266(4) 0.32029(13)
H22 H 0.8004 0.3930 0.3110
C40 C 0.73790(17) 0.1583(4) 0.29664(12)
C41 C 0.66612(18) 0.0638(4) 0.31083(12)
C42 C 0.61206(19) 0.1324(4) 0.34779(12)
H24 H 0.5643 0.0670 0.3566
C43 C 0.79995(17) 0.0643(4) 0.25890(11)
C45 C 0.85885(19) 0.1972(5) 0.23191(14)
H27 H 0.5816 0.0226 0.1150
C51 C 0.67773(17) 0.0472(4) 0.17930(11)
H28 H 0.6631 0.1618 0.1898
F8 F 0.88960(15) 0.0264(4) 0.34667(9)
F10 F 0.81272(14) 0.3269(3) 0.20423(9)
F11 F 0.90325(13) 0.1175(3) 0.19338(10)
F12 F 0.91723(12) 0.2758(3) 0.26939(9)
O5 O 0.51081(12) 0.2781(3) 0.42797(8)
O6 O 0.60047(13) 0.5111(3) 0.44063(8)
O9 O 0.52652(12) 0.2263(3) 0.55006(8)
O10 O 0.47348(12) 0.7737(3) 0.44994(8)
O11 O 0.61822(12) 0.4557(3) 0.55969(9)
O12 O 0.38178(12) 0.5443(3) 0.44031(9)
H3 H 0.6545 0.0482 0.7949
C9 C 0.8560(2) 0.0598(5) 0.79963(14)
C11 C 0.74802(16) 0.0371(4) 0.70884(11)
C12 C 0.77104(19) 0.2043(4) 0.69118(13)
H5 H 0.8198 0.2607 0.7095
C13 C 0.72240(19) 0.2877(4) 0.64673(13)
H6 H 0.7383 0.4009 0.6356
C14 C 0.64987(16) 0.2061(4) 0.61811(11)
C15 C 0.62885(16) 0.0361(3) 0.63437(11)
C17 C 0.59440(16) 0.3035(4) 0.57255(11)
C20 C 0.19221(17) 0.0428(4) 0.98103(12)
C23 C 0.1180(2) 0.1644(4) 0.97712(16)
C24 C 0.0424(3) 0.1539(7) 0.9451(3)
H13 H 0.0282 0.0613 0.9195
C26 C 0.0190(2) 0.4177(5) 0.99057(16)
F1 F 0.81140(15) 0.1968(3) 0.81665(9)
F3 F 0.92427(12) 0.1273(3) 0.77619(10)
H23 H 0.3455 0.9518 0.2051
C44 C 0.1440(2) 0.9402(5) 0.20037(14)
C46 C 0.25198(16) 0.9629(4) 0.29116(11)
C47 C 0.22896(19) 0.7957(4) 0.30882(13)
H25 H 0.1802 0.7393 0.2905
C48 C 0.27760(19) 0.7123(4) 0.35327(13)
H26 H 0.2617 0.5991 0.3644
C49 C 0.35013(16) 0.7939(4) 0.38189(11)
C50 C 0.37115(16) 0.9639(3) 0.36563(11)
C52 C 0.40560(16) 0.6965(4) 0.42745(11)
F7 F 0.18860(15) 0.8032(3) 0.18335(9)
F9 F 0.07573(12) 0.8727(3) 0.22381(10)
C29 C 0.80779(17) 0.9572(4) 0.01897(12)
C32 C 0.8820(2) 0.8356(4) 0.02288(16)
C33 C 0.9576(3) 0.8461(7) 0.0549(3)
H19 H 0.9718 0.9387 0.0805
C35 C 0.9810(2) 0.5823(5) 0.00943(16)
C25 C 0.0152(3) 0.2961(7) 0.5466(3)
H14 H 0.0711 0.3038 0.5652
C29_2 C 0.19221(17) 0.9572(4) 0.48103(12)
C30 C 0.27107(18) 0.9132(4) 0.50937(14)
H17 H 0.2783 0.8030 0.5273
H18 H 0.3924 0.9961 0.5318
C32_2 C 0.1180(2) 0.8356(4) 0.47712(16)
C33_2 C 0.0424(3) 0.8461(7) 0.4451(3)
H19_2 H 0.0282 0.9387 0.4195
C35_2 C 0.0190(2) 0.5823(5) 0.49057(16)
S2 S 0.12091(6) 0.64600(12) 0.51796(5)
Co7 Co 0.557951(19) 0.35369(4) 0.007868(12)
H23_2 H 0.6545 0.9518 0.2949
C44_2 C 0.8560(2) 0.9402(5) 0.29963(14)
C46_2 C 0.74802(16) 0.9629(4) 0.20884(11)
C47_2 C 0.77104(19) 0.7957(4) 0.19118(13)
H25_2 H 0.8198 0.7393 0.2095
C48_2 C 0.72240(19) 0.7123(4) 0.14673(13)
H26_2 H 0.7383 0.5991 0.1356
C49_2 C 0.64987(16) 0.7939(4) 0.11811(11)
C50_2 C 0.62885(16) 0.9639(3) 0.13437(11)
C52_2 C 0.59440(16) 0.6965(4) 0.07255(11)
F7_2 F 0.81140(15) 0.8032(3) 0.31665(9)
F9_2 F 0.92427(12) 0.8727(3) 0.27619(10)
O7 O 0.52652(12) 0.7737(3) 0.05006(8)
O8 O 0.61822(12) 0.5443(3) 0.05969(9)
C22_2 C 0.33993(16) 0.9702(4) 0.01172(12)
C36_2 C 0.42517(17) 0.3686(3) 0.08333(11)
C37_2 C 0.37154(17) 0.2994(4) 0.12794(11)
C38_2 C 0.30112(18) 0.3958(4) 0.14256(12)
H21_2 H 0.2903 0.5088 0.1272
C39_2 C 0.24680(19) 0.3266(4) 0.17971(13)
H22_2 H 0.1996 0.3930 0.1890
C40_2 C 0.26210(17) 0.1583(4) 0.20336(12)
C41_2 C 0.33388(18) 0.0638(4) 0.18917(12)
C42_2 C 0.38794(19) 0.1324(4) 0.15221(12)
H24_2 H 0.4357 0.0670 0.1434
C43_2 C 0.20005(17) 0.0643(4) 0.24110(11)
C45_2 C 0.14115(19) 0.1972(5) 0.26809(14)
H27_2 H 0.4184 0.0226 0.3850
C51_2 C 0.32227(17) 0.0472(4) 0.32070(11)
H28_2 H 0.3369 0.1618 0.3102
F8_2 F 0.11040(15) 0.0264(4) 0.15333(9)
F10_2 F 0.18728(14) 0.3269(3) 0.29577(9)
F11_2 F 0.09675(13) 0.1175(3) 0.30662(10)
F12_2 F 0.08277(12) 0.2758(3) 0.23061(9)
O5_2 O 0.48919(12) 0.2781(3) 0.07203(8)
O6_2 O 0.39953(13) 0.5111(3) 0.05937(8)
N3 N 0.66525(13) 0.1880(3) 0.01340(9)
C27_2 C 0.74052(19) 0.2299(4) 0.04238(16)
H15_2 H 0.7451 0.3388 0.0613
C28_2 C 0.8124(2) 0.1211(5) 0.04606(18)
H16_2 H 0.8640 0.1576 0.0667
H3_2 H 0.3455 0.0482 0.7051
C9_2 C 0.1440(2) 0.0598(5) 0.70037(14)
C11_2 C 0.25198(16) 0.0371(4) 0.79116(11)
C12_2 C 0.22896(19) 0.2043(4) 0.80882(13)
H5_2 H 0.1802 0.2607 0.7905
C13_2 C 0.27760(19) 0.2877(4) 0.85327(13)
H6_2 H 0.2617 0.4009 0.8644
C14_2 C 0.35013(16) 0.2061(4) 0.88189(11)
C15_2 C 0.37115(16) 0.0361(3) 0.86563(11)
C17_2 C 0.40560(16) 0.3035(4) 0.92745(11)
C20_2 C 0.80779(17) 0.0428(4) 0.51897(12)
C21 C 0.72893(18) 0.0868(4) 0.49063(14)
H11 H 0.7217 0.1970 0.4727
H12 H 0.6076 0.0039 0.4682
C23_2 C 0.8820(2) 0.1644(4) 0.52288(16)
C24_2 C 0.9576(3) 0.1539(7) 0.5549(3)
H13_2 H 0.9718 0.0613 0.5805
C26_2 C 0.9810(2) 0.4177(5) 0.50943(16)
F1_2 F 0.18860(15) 0.1968(3) 0.68335(9)
F3_2 F 0.07573(12) 0.1273(3) 0.72381(10)
O3 O 0.47348(12) 0.2263(3) 0.94994(8)
O4 O 0.38178(12) 0.4557(3) 0.94031(9)
S1 S 0.87909(6) 0.35400(12) 0.48204(5)
C34 C 0.9848(3) 0.7039(7) 0.4534(3)
H20 H 0.9289 0.6962 0.4348
Co4 Co 0.442049(19) 0.64631(4) 0.992132(12)
C1_2 C 0.57483(17) 0.6314(3) 0.91667(11)
C2_2 C 0.62846(17) 0.7006(4) 0.87206(11)
C3_2 C 0.69888(18) 0.6042(4) 0.85744(12)
H1_2 H 0.7097 0.4912 0.8728
C4_2 C 0.75320(19) 0.6734(4) 0.82029(13)
H2_2 H 0.8004 0.6070 0.8110
C5_2 C 0.73790(17) 0.8417(4) 0.79664(12)
C6_2 C 0.66612(18) 0.9362(4) 0.81083(12)
C7_2 C 0.61206(19) 0.8676(4) 0.84779(12)
H4_2 H 0.5643 0.9330 0.8566
C8_2 C 0.79995(17) 0.9357(4) 0.75890(11)
C10_2 C 0.85885(19) 0.8028(5) 0.73191(14)
H7_2 H 0.5816 0.9774 0.6150
C16_2 C 0.67773(17) 0.9528(4) 0.67930(11)
H8_2 H 0.6631 0.8382 0.6898
C18_2 C 0.25948(19) 0.7701(4) 0.95762(16)
H9_2 H 0.2549 0.6612 0.9387
C19_2 C 0.1876(2) 0.8789(5) 0.95394(18)
H10_2 H 0.1360 0.8424 0.9333
F2_2 F 0.88960(15) 0.9736(4) 0.84667(9)
F4_2 F 0.81272(14) 0.6731(3) 0.70423(9)
F5_2 F 0.90325(13) 0.8825(3) 0.69338(10)
F6_2 F 0.91723(12) 0.7242(3) 0.76939(9)
N1_2 N 0.33475(13) 0.8120(3) 0.98660(9)
O1_2 O 0.51081(12) 0.7219(3) 0.92797(8)
O2_2 O 0.60047(13) 0.4889(3) 0.94063(8)
C31_2 C 0.66007(16) 0.0298(4) 0.98828(12)
C21_2 C 0.27107(18) 0.0868(4) 0.00937(14)
H11_2 H 0.2783 0.1970 0.0273
H12_2 H 0.3924 0.0039 0.0318
S1_2 S 0.12091(6) 0.35400(12) 0.01796(5)
C34_2 C 0.0152(3) 0.7039(7) 0.0466(3)
H20_2 H 0.0711 0.6962 0.0652
C25_2 C 0.9848(3) 0.2961(7) 0.9534(3)
H14_2 H 0.9289 0.3038 0.9348
C30_2 C 0.72893(18) 0.9132(4) 0.99063(14)
H17_2 H 0.7217 0.8030 0.9727
H18_2 H 0.6076 0.9961 0.9682
S2_2 S 0.87909(6) 0.64600(12) 0.98204(5)
loop_
_geom_bond_atom_site_label_1
_geom_bond_atom_site_label_2
_geom_bond_site_symmetry_1
_geom_bond_site_symmetry_2
C27 H15 1_555 1_555
C28 C27 1_555 1_555
H16 C28 1_555 1_555
N2 C27 1_555 1_555
Co5 N2 1_555 1_555
C31 N2 1_555 1_555
C1 C2 1_555 1_555
C2 C3 1_555 1_555
C3 H1 1_555 1_555
C4 C3 1_555 1_555
H2 C4 1_555 1_555
C5 C4 1_555 1_555
C6 C5 1_555 1_555
C7 C2 1_555 1_555
H4 C7 1_555 1_555
C8 C5 1_555 1_555
C10 C8 1_555 1_555
H8 C16 1_555 1_555
C18 H9 1_555 1_555
C19 C18 1_555 1_555
H10 C19 1_555 1_555
Co1 N1 1_555 1_555
F4 C10 1_555 1_555
F5 C10 1_555 1_555
F6 C10 1_555 1_555
N1 C18 1_555 1_555
O1 C1 1_555 1_555
O2 C1 1_555 1_555
C36 C37 1_555 1_555
C37 C38 1_555 1_555
C38 H21 1_555 1_555
C39 C38 1_555 1_555
H22 C39 1_555 1_555
C40 C39 1_555 1_555
C41 C40 1_555 1_555
C42 C37 1_555 1_555
H24 C42 1_555 1_555
C43 C40 1_555 1_555
C45 C43 1_555 1_555
H28 C51 1_555 1_555
Co5 O2 1_555 1_555
F10 C45 1_555 1_555
F11 C45 1_555 1_555
F12 C45 1_555 1_555
O5 C36 1_555 1_555
O6 Co1 1_555 1_555
O9 Co5 1_555 1_555
O10 Co1 1_555 1_555
O11 Co1 1_555 1_555
O12 Co5 1_555 1_555
C6 C7 1_555 1_555
C22 N1 1_555 1_555
Co1 O1 1_555 1_555
C36 O6 1_555 1_555
C41 C42 1_555 1_555
Co5 O5 1_555 1_555
C12 C11 1_555 1_555
H5 C12 1_555 1_555
C13 C12 1_555 1_555
H6 C13 1_555 1_555
C14 C13 1_555 1_555
C15 C14 1_555 1_555
C17 C14 1_555 1_555
C23 C20 1_555 1_555
C24 C23 1_555 1_555
H13 C24 1_555 1_555
F1 C9 1_555 1_555
F3 C9 1_555 1_555
O9 C17 1_555 1_555
O11 C17 1_555 1_555
C47 C46 1_555 1_555
H25 C47 1_555 1_555
C48 C47 1_555 1_555
H26 C48 1_555 1_555
C49 C48 1_555 1_555
C50 C49 1_555 1_555
C52 C49 1_555 1_555
F7 C44 1_555 1_555
F9 C44 1_555 1_555
O10 C52 1_555 1_555
O12 C52 1_555 1_555
C32 C29 1_555 1_555
C33 C32 1_555 1_555
H19 C33 1_555 1_555
H14 C25 1_555 1_555
C30 C29_2 1_555 1_555
H17 C30 1_555 1_555
C32_2 C29_2 1_555 1_555
C33_2 C32_2 1_555 1_555
H19_2 C33_2 1_555 1_555
S2 C32_2 1_555 1_555
C35_2 S2 1_555 1_555
C47_2 C46_2 1_555 1_555
H25_2 C47_2 1_555 1_555
C48_2 C47_2 1_555 1_555
H26_2 C48_2 1_555 1_555
C49_2 C48_2 1_555 1_555
C50_2 C49_2 1_555 1_555
C52_2 C49_2 1_555 1_555
F7_2 C44_2 1_555 1_555
F9_2 C44_2 1_555 1_555
O7 C52_2 1_555 1_555
O8 C52_2 1_555 1_555
Co7 O8 1_555 1_555
C36_2 C37_2 1_555 1_555
C37_2 C38_2 1_555 1_555
C38_2 H21_2 1_555 1_555
C39_2 C38_2 1_555 1_555
H22_2 C39_2 1_555 1_555
C40_2 C39_2 1_555 1_555
C41_2 C40_2 1_555 1_555
C42_2 C37_2 1_555 1_555
H24_2 C42_2 1_555 1_555
C43_2 C40_2 1_555 1_555
C45_2 C43_2 1_555 1_555
H28_2 C51_2 1_555 1_555
F10_2 C45_2 1_555 1_555
F11_2 C45_2 1_555 1_555
F12_2 C45_2 1_555 1_555
O5_2 C36_2 1_555 1_555
N3 Co7 1_555 1_555
C36_2 O6_2 1_555 1_555
C41_2 C42_2 1_555 1_555
Co7 O5_2 1_555 1_555
C27_2 H15_2 1_555 1_555
C28_2 C27_2 1_555 1_555
H16_2 C28_2 1_555 1_555
N3 C27_2 1_555 1_555
C12_2 C11_2 1_555 1_555
H5_2 C12_2 1_555 1_555
C13_2 C12_2 1_555 1_555
H6_2 C13_2 1_555 1_555
C14_2 C13_2 1_555 1_555
C15_2 C14_2 1_555 1_555
C17_2 C14_2 1_555 1_555
C21 C20_2 1_555 1_555
H11 C21 1_555 1_555
C23_2 C20_2 1_555 1_555
C24_2 C23_2 1_555 1_555
H13_2 C24_2 1_555 1_555
F1_2 C9_2 1_555 1_555
F3_2 C9_2 1_555 1_555
O3 C17_2 1_555 1_555
O4 C17_2 1_555 1_555
S1 C23_2 1_555 1_555
H20 C34 1_555 1_555
Co4 O4 1_555 1_555
C26_2 S1 1_555 1_555
C1_2 C2_2 1_555 1_555
C2_2 C3_2 1_555 1_555
C3_2 H1_2 1_555 1_555
C4_2 C3_2 1_555 1_555
H2_2 C4_2 1_555 1_555
C5_2 C4_2 1_555 1_555
C6_2 C5_2 1_555 1_555
C7_2 C2_2 1_555 1_555
H4_2 C7_2 1_555 1_555
C8_2 C5_2 1_555 1_555
C10_2 C8_2 1_555 1_555
H8_2 C16_2 1_555 1_555
C18_2 H9_2 1_555 1_555
C19_2 C18_2 1_555 1_555
H10_2 C19_2 1_555 1_555
Co4 N1_2 1_555 1_555
F4_2 C10_2 1_555 1_555
F5_2 C10_2 1_555 1_555
F6_2 C10_2 1_555 1_555
N1_2 C18_2 1_555 1_555
O1_2 C1_2 1_555 1_555
O2_2 C1_2 1_555 1_555
C6_2 C7_2 1_555 1_555
Co4 O1_2 1_555 1_555
H11_2 C21_2 1_555 1_555
H20_2 C34_2 1_555 1_555
H14_2 C25_2 1_555 1_555
H17_2 C30_2 1_555 1_555

#END
