
###############################################################################
#
# This file contains modified crystal structure data generated from the
# MOF subset of the Cambridge Structural Database (CSD) v543 
# hosted by the Cambridge Crystallographic Data Centre (CCDC).
#
# This work is licensed under the Creative Commons
# Attribution-NonCommercial-ShareAlike 4.0 International License.
# To view a copy of this license, visit
# http://creativecommons.org/licenses/by-nc-sa/4.0/
# or send a letter to
# Creative Commons, PO Box 1866, Mountain View, CA 94042, USA.
#
# CIF created using the CSD Python API on 29 September 2022
# The structure has been converted into the P1 space group
# The structure has a 3D framework
# The original CSD entry KINHAS is in the monoclinic crystal system
# The framework has been calculated to contain at least 10.0% void space
# The void calculation uses a probe of radius 1.32A, grid spacing 0.4
#
###############################################################################

data_KINHAS
_chemical_formula_moiety         '(C52 H44 N4 O8 S4 Zn1)n'
_symmetry_cell_setting           triclinic
_symmetry_space_group_name_H-M   'P 1'
_symmetry_Int_Tables_number      1
_space_group_name_Hall           'P 1'
loop_
_symmetry_equiv_pos_site_id
_symmetry_equiv_pos_as_xyz
1 x,y,z
_cell_length_a                   12.9879(16)
_cell_length_b                   6.2776(8)
_cell_length_c                   19.1040(17)
_cell_angle_alpha                90
_cell_angle_beta                 114.325(6)
_cell_angle_gamma                90
_cell_volume                     1419.33
loop_
_atom_site_label
_atom_site_type_symbol
_atom_site_fract_x
_atom_site_fract_y
_atom_site_fract_z
O3 O 0.1228(3) 0.4313(5) 0.15717(18)
O4 O 0.0069(2) 0.1967(4) 0.17045(12)
C14 C 0.0555(3) 0.1550(5) 0.06360(16)
H12 H 0.1126 0.2135 0.0477
C17 C 0.0664(3) 0.2682(5) 0.13666(17)
Zn3 Zn 0.0000 0.38406(7) 0.2500
C18 C 0.2179(3) 0.9274(5) 0.32494(18)
C19 C 0.2425(2) 0.7405(5) 0.43895(16)
H18 H 0.2742 0.7258 0.4921
N2 N 0.1212(2) 0.5980(4) 0.31632(14)
C22 C 0.1697(2) 0.5878(5) 0.39345(17)
H19 H 0.1533 0.4715 0.4172
C24 C 0.2686(2) 0.9176(5) 0.40523(17)
C26 C 0.1459(3) 0.7686(5) 0.28386(19)
H22 H 0.1124 0.7798 0.2306
C15 C 0.0619(3) 0.1969(5) 0.50118(17)
H13 H 0.0725 0.3490 0.5103
H14 H 0.1197 0.1461 0.4855
C16 C 0.0751(3) 0.0855(5) 0.57532(17)
H15 H 0.1506 0.1112 0.6144
H16 H 0.0215 0.1450 0.5933
C7 C 0.0619(3) 0.8031(5) 0.00118(17)
H5 H 0.0725 0.6510 0.0103
C8 C 0.0751(3) 0.9145(5) 0.07532(17)
H7 H 0.1506 0.8888 0.1144
H8 H 0.0215 0.8550 0.0933
Zn1 Zn 0.0000 0.61594(7) 0.7500
H6 H 0.1197 0.8539 0.9855
N3 N 0.1212(2) 0.4020(4) 0.81632(14)
O5 O 0.0069(2) 0.8033(4) 0.67045(12)
O1 O 0.1228(3) 0.5687(5) 0.65717(18)
C1 C 0.2179(3) 0.0726(5) 0.82494(18)
C2 C 0.2425(2) 0.2595(5) 0.93895(16)
H2 H 0.2742 0.2742 0.9921
C5 C 0.0555(3) 0.8450(5) 0.56360(16)
H3 H 0.1126 0.7865 0.5477
C6 C 0.1697(2) 0.4122(5) 0.89345(17)
H4 H 0.1533 0.5285 0.9172
C10 C 0.2686(2) 0.0824(5) 0.90523(17)
C11 C 0.0664(3) 0.7318(5) 0.63666(17)
C13 C 0.1459(3) 0.2314(5) 0.78386(19)
H11 H 0.1124 0.2202 0.7306
H14_2 H 0.8803 0.1461 0.0145
Zn3_2 Zn 1.0000 0.38406(7) 0.2500
C18_2 C 0.7821(3) 0.9274(5) 0.17506(18)
C19_2 C 0.7575(2) 0.7405(5) 0.06105(16)
H18_2 H 0.7258 0.7258 0.0079
N2_2 N 0.8788(2) 0.5980(4) 0.18368(14)
C22_2 C 0.8303(2) 0.5878(5) 0.10655(17)
H19_2 H 0.8467 0.4715 0.0828
C24_2 C 0.7314(2) 0.9176(5) 0.09477(17)
C26_2 C 0.8541(3) 0.7686(5) 0.21614(19)
H22_2 H 0.8876 0.7798 0.2694
O3_2 O 0.8772(3) 0.4313(5) 0.34283(18)
O4_2 O 0.9931(2) 0.1967(4) 0.32955(12)
C14_2 C 0.9445(3) 0.1550(5) 0.43640(16)
H12_2 H 0.8874 0.2135 0.4523
C17_2 C 0.9336(3) 0.2682(5) 0.36334(17)
C15_2 C 0.9381(3) 0.1969(5) 0.99882(17)
H13_2 H 0.9275 0.3490 0.9897
C16_2 C 0.9249(3) 0.0855(5) 0.92468(17)
H15_2 H 0.8494 0.1112 0.8856
H16_2 H 0.9785 0.1450 0.9067
O1_2 O 0.8772(3) 0.5687(5) 0.84283(18)
Zn1_2 Zn 1.0000 0.61594(7) 0.7500
C1_2 C 0.7821(3) 0.0726(5) 0.67506(18)
C2_2 C 0.7575(2) 0.2595(5) 0.56105(16)
H2_2 H 0.7258 0.2742 0.5079
N1 N 0.8788(2) 0.4020(4) 0.68368(14)
O2 O 0.9931(2) 0.8033(4) 0.82955(12)
C5_2 C 0.9445(3) 0.8450(5) 0.93640(16)
H3_2 H 0.8874 0.7865 0.9523
C6_2 C 0.8303(2) 0.4122(5) 0.60655(17)
H4_2 H 0.8467 0.5285 0.5828
C10_2 C 0.7314(2) 0.0824(5) 0.59477(17)
C11_2 C 0.9336(3) 0.7318(5) 0.86334(17)
C13_2 C 0.8541(3) 0.2314(5) 0.71614(19)
H11_2 H 0.8876 0.2202 0.7694
C7_2 C 0.9381(3) 0.8031(5) 0.49882(17)
H5_2 H 0.9275 0.6510 0.4897
H6_2 H 0.8803 0.8539 0.5145
C8_2 C 0.9249(3) 0.9145(5) 0.42468(17)
H7_2 H 0.8494 0.8888 0.3856
H8_2 H 0.9785 0.8550 0.4067
H1 H 0.7671 0.9585 0.7005
S1 S 0.60216(6) 0.72354(12) 0.58944(4)
C3 C 0.5327(2) 0.5954(5) 0.50219(18)
C4 C 0.6562(2) 0.9152(5) 0.54802(17)
C9 C 0.6200(3) 0.8793(5) 0.47114(18)
H9 H 0.6392 0.9658 0.4388
C12 C 0.5505(3) 0.6979(5) 0.44553(18)
H10 H 0.5198 0.6527 0.3947
H17 H 0.2329 0.0415 0.2995
S2 S 0.39784(6) 0.27646(12) 0.41056(4)
C20 C 0.4673(2) 0.4046(5) 0.49781(18)
C21 C 0.3438(2) 0.0848(5) 0.45198(17)
C23 C 0.3800(3) 0.1207(5) 0.52886(18)
H20 H 0.3608 0.0342 0.5612
C25 C 0.4495(3) 0.3021(5) 0.55447(18)
H21 H 0.4802 0.3473 0.6053
C9_2 C 0.3800(3) 0.8793(5) 0.02886(18)
H9_2 H 0.3608 0.9658 0.0612
C12_2 C 0.4495(3) 0.6979(5) 0.05447(18)
H10_2 H 0.4802 0.6527 0.1053
H17_2 H 0.7671 0.0415 0.2005
S2_2 S 0.60216(6) 0.27646(12) 0.08944(4)
C20_2 C 0.5327(2) 0.4046(5) 0.00219(18)
C21_2 C 0.6562(2) 0.0848(5) 0.04802(17)
H1_2 H 0.2329 0.9585 0.7995
S1_2 S 0.39784(6) 0.72354(12) 0.91056(4)
C3_2 C 0.4673(2) 0.5954(5) 0.99781(18)
C4_2 C 0.3438(2) 0.9152(5) 0.95198(17)
C23_2 C 0.6200(3) 0.1207(5) 0.97114(18)
H20_2 H 0.6392 0.0342 0.9388
C25_2 C 0.5505(3) 0.3021(5) 0.94553(18)
H21_2 H 0.5198 0.3473 0.8947
loop_
_geom_bond_atom_site_label_1
_geom_bond_atom_site_label_2
_geom_bond_site_symmetry_1
_geom_bond_site_symmetry_2
O3 C17 1_555 1_555
O4 C17 1_555 1_555
H12 C14 1_555 1_555
C17 C14 1_555 1_555
Zn3 O4 1_555 1_555
C19 H18 1_555 1_555
N2 C22 1_555 1_555
C22 C19 1_555 1_555
H19 C22 1_555 1_555
C24 C18 1_555 1_555
C26 C18 1_555 1_555
H22 C26 1_555 1_555
Zn3 N2 1_555 1_555
C19 C24 1_555 1_555
N2 C26 1_555 1_555
H13 C15 1_555 1_555
H14 C15 1_555 1_555
H15 C16 1_555 1_555
H16 C16 1_555 1_555
C15 C16 1_555 1_555
H5 C7 1_555 1_555
C8 C7 1_555 1_555
H7 C8 1_555 1_555
H8 C8 1_555 1_555
N3 Zn1 1_555 1_555
O5 Zn1 1_555 1_555
O1 C11 1_555 1_555
C2 H2 1_555 1_555
N3 C6 1_555 1_555
C5 H3 1_555 1_555
C6 C2 1_555 1_555
H4 C6 1_555 1_555
C10 C1 1_555 1_555
C11 O5 1_555 1_555
C13 C1 1_555 1_555
H11 C13 1_555 1_555
C2 C10 1_555 1_555
N3 C13 1_555 1_555
C5 C11 1_555 1_555
C19_2 H18_2 1_555 1_555
N2_2 C22_2 1_555 1_555
C22_2 C19_2 1_555 1_555
H19_2 C22_2 1_555 1_555
C24_2 C18_2 1_555 1_555
C26_2 C18_2 1_555 1_555
H22_2 C26_2 1_555 1_555
Zn3_2 N2_2 1_555 1_555
C19_2 C24_2 1_555 1_555
N2_2 C26_2 1_555 1_555
O3_2 C17_2 1_555 1_555
O4_2 C17_2 1_555 1_555
H12_2 C14_2 1_555 1_555
C17_2 C14_2 1_555 1_555
Zn3_2 O4_2 1_555 1_555
H13_2 C15_2 1_555 1_555
H15_2 C16_2 1_555 1_555
H16_2 C16_2 1_555 1_555
C15_2 C16_2 1_555 1_555
O1_2 C11_2 1_555 1_555
Zn1_2 N1 1_555 1_555
C2_2 H2_2 1_555 1_555
N1 C6_2 1_555 1_555
O2 Zn1_2 1_555 1_555
C5_2 H3_2 1_555 1_555
C6_2 C2_2 1_555 1_555
H4_2 C6_2 1_555 1_555
C10_2 C1_2 1_555 1_555
C11_2 O2 1_555 1_555
C13_2 C1_2 1_555 1_555
H11_2 C13_2 1_555 1_555
C2_2 C10_2 1_555 1_555
N1 C13_2 1_555 1_555
C5_2 C11_2 1_555 1_555
H5_2 C7_2 1_555 1_555
H6_2 C7_2 1_555 1_555
C8_2 C7_2 1_555 1_555
H7_2 C8_2 1_555 1_555
H8_2 C8_2 1_555 1_555
S1 C3 1_555 1_555
C3 C12 1_555 1_555
C4 S1 1_555 1_555
C9 C4 1_555 1_555
H9 C9 1_555 1_555
C12 C9 1_555 1_555
H10 C12 1_555 1_555
S2 C20 1_555 1_555
C20 C3 1_555 1_555
C21 S2 1_555 1_555
C23 C21 1_555 1_555
H20 C23 1_555 1_555
C25 C20 1_555 1_555
H21 C25 1_555 1_555
C23 C25 1_555 1_555
H9_2 C9_2 1_555 1_555
C12_2 C9_2 1_555 1_555
H10_2 C12_2 1_555 1_555
S2_2 C20_2 1_555 1_555
C21_2 S2_2 1_555 1_555
S1_2 C3_2 1_555 1_555
C4_2 S1_2 1_555 1_555
H20_2 C23_2 1_555 1_555
H21_2 C25_2 1_555 1_555
C23_2 C25_2 1_555 1_555

#END
