
###############################################################################
#
# This file contains modified crystal structure data generated from the
# MOF subset of the Cambridge Structural Database (CSD) v543 
# hosted by the Cambridge Crystallographic Data Centre (CCDC).
#
# This work is licensed under the Creative Commons
# Attribution-NonCommercial-ShareAlike 4.0 International License.
# To view a copy of this license, visit
# http://creativecommons.org/licenses/by-nc-sa/4.0/
# or send a letter to
# Creative Commons, PO Box 1866, Mountain View, CA 94042, USA.
#
# CIF created using the CSD Python API on 29 September 2022
# The structure has been converted into the P1 space group
# The structure has a 3D framework
# The original CSD entry KINZEP is in the triclinic crystal system
# The framework has been calculated to contain at least 10.0% void space
# The void calculation uses a probe of radius 1.32A, grid spacing 0.4
#
###############################################################################

data_KINZEP
_chemical_formula_moiety         '(C56 H36 Cd2 N8 O8)n'
_symmetry_cell_setting           triclinic
_symmetry_space_group_name_H-M   'P 1'
_symmetry_Int_Tables_number      1
_space_group_name_Hall           'P 1'
loop_
_symmetry_equiv_pos_site_id
_symmetry_equiv_pos_as_xyz
1 x,y,z
_cell_length_a                   9.6340(7)
_cell_length_b                   12.2099(8)
_cell_length_c                   12.9166(9)
_cell_angle_alpha                68.118(2)
_cell_angle_beta                 76.862(2)
_cell_angle_gamma                81.009(2)
_cell_volume                     1368.7
loop_
_atom_site_label
_atom_site_type_symbol
_atom_site_fract_x
_atom_site_fract_y
_atom_site_fract_z
_atom_site_U_iso_or_equiv
_atom_site_thermal_displace_type
C3 C 0.2941(4) 0.5334(3) 0.0099(3) 0.0570 Uani
H2 H 0.349563 0.496612 0.065668 0.0680 Uiso
H16 H 0.298748 0.698035 0.009332 0.0670 Uiso
N1 N 0.0994(2) 0.48882(19) 0.81407(18) 0.0342 Uani
C1 C 0.1617(3) 0.5253(2) 0.8816(2) 0.0324 Uani
C2 C 0.2459(3) 0.4659(3) 0.9629(2) 0.0438 Uani
H1 H 0.268645 0.384566 0.984405 0.0530 Uiso
Cd1 Cd 0.07231(2) 0.12696(2) 0.32366(2) 0.0289 Uani
N2 N 0.1559(2) 0.21241(18) 0.42418(18) 0.0305 Uani
N3 N 0.1768(2) 0.25869(19) 0.56999(18) 0.0334 Uani
C6 C 0.1014(3) 0.2051(2) 0.5285(2) 0.0306 Uani
H3 H 0.019343 0.167080 0.569956 0.0370 Uiso
N4 N 0.0398(2) 0.68275(19) 0.76863(19) 0.0359 Uani
C7 C 0.2778(3) 0.2744(2) 0.3937(2) 0.0306 Uani
C8 C 0.1137(3) 0.3754(2) 0.8025(2) 0.0334 Uani
C9 C 0.1461(3) 0.2626(2) 0.6821(2) 0.0346 Uani
C10 C 0.2528(3) 0.0670(3) 0.1472(2) 0.0400 Uani
C11 C 0.1414(3) 0.3715(2) 0.6939(2) 0.0344 Uani
H4 H 0.156394 0.440101 0.630508 0.0410 Uiso
O3 O 0.1386(3) 0.0247(3) 0.1652(3) 0.0818 Uani
C13 C 0.0289(3) 0.5870(2) 0.7497(2) 0.0375 Uani
O4 O 0.2692(2) 0.1369(2) 0.1917(2) 0.0630 Uani
C15 C 0.1258(3) 0.6467(2) 0.8501(2) 0.0337 Uani
C16 C 0.5134(3) 0.0707(3) 0.0582(3) 0.0465 Uani
H8 H 0.523460 0.118339 0.097487 0.0560 Uiso
C17 C 0.1224(3) 0.1606(2) 0.7744(2) 0.0431 Uani
H9 H 0.123209 0.088656 0.764979 0.0520 Uiso
C18 C 0.2911(3) 0.3044(2) 0.4848(2) 0.0352 Uani
C19 C 0.1783(3) 0.7140(3) 0.8968(2) 0.0445 Uani
H10 H 0.157261 0.795547 0.874820 0.0530 Uiso
C20 C 0.0972(3) 0.1671(3) 0.8821(3) 0.0487 Uani
H11 H 0.081904 0.098507 0.945423 0.0590 Uiso
C21 C 0.3803(3) 0.0346(2) 0.0686(2) 0.0366 Uani
C22 C 0.0945(3) 0.2736(2) 0.8964(2) 0.0425 Uani
H12 H 0.079803 0.276801 0.968952 0.0510 Uiso
C23 C 0.4047(3) 0.3651(3) 0.4797(3) 0.0514 Uani
H13 H 0.412982 0.385949 0.540150 0.0620 Uiso
C25 C 0.3788(3) 0.3030(3) 0.2945(2) 0.0425 Uani
H15 H 0.370599 0.282922 0.233491 0.0510 Uiso
C26 C 0.2622(4) 0.6553(3) 0.9766(3) 0.0562 Uani
C27 C 0.4919(3) 0.3625(3) 0.2895(3) 0.0559 Uani
H17 H 0.561475 0.382911 0.223970 0.0670 Uiso
C28 C 0.5039(4) 0.3925(3) 0.3808(3) 0.0628 Uani
H18 H 0.581678 0.432452 0.374587 0.0750 Uiso
C36 C 0.6317(3) 0.0370(3) 0.9902(3) 0.0472 Uani
H22 H 0.720252 0.062508 0.983830 0.0570 Uiso
C24 C 0.3683(3) 0.9630(3) 0.0098(3) 0.0472 Uani
H14 H 0.279748 0.937492 0.016170 0.0570 Uiso
O10 O 0.15289(19) 0.93826(18) 0.47032(19) 0.0472 Uani
C33 C 0.7472(3) 0.9330(3) 0.8528(2) 0.0400 Uani
O7 O 0.8614(3) 0.9753(3) 0.8348(3) 0.0818 Uani
O8 O 0.7308(2) 0.8631(2) 0.8083(2) 0.0630 Uani
C34 C 0.4866(3) 0.9293(3) 0.9418(3) 0.0465 Uani
H21 H 0.476540 0.881661 0.902513 0.0560 Uiso
C35 C 0.6197(3) 0.9654(2) 0.9314(2) 0.0366 Uani
Cd7 Cd 0.92769(2) 0.87304(2) 0.67634(2) 0.0289 Uani
O1 O 0.86229(18) 0.06464(17) 0.35236(17) 0.0418 Uani
C4 C 0.6409(2) 0.0276(2) 0.4763(2) 0.0291 Uani
O2 O 0.84711(19) 0.06174(18) 0.52968(19) 0.0472 Uani
C5 C 0.7946(2) 0.0545(2) 0.4510(2) 0.0341 Uani
C12 C 0.5813(3) 0.0163(3) 0.3936(2) 0.0379 Uani
H5 H 0.635651 0.027311 0.321547 0.0460 Uiso
H6 H 0.977763 0.585965 0.697177 0.0450 Uiso
C14 C 0.5594(3) 0.0114(3) 0.5826(2) 0.0400 Uani
H7 H 0.598930 0.019114 0.638610 0.0480 Uiso
N10 N 0.9602(2) 0.31725(19) 0.23137(19) 0.0359 Uani
O5 O 0.13771(18) 0.93536(17) 0.64764(17) 0.0418 Uani
C29 C 0.3591(2) 0.9724(2) 0.5237(2) 0.0291 Uani
C30 C 0.2054(2) 0.9455(2) 0.5490(2) 0.0341 Uani
C31 C 0.4187(3) 0.9837(3) 0.6064(2) 0.0379 Uani
H19 H 0.364349 0.972689 0.678453 0.0460 Uiso
C32 C 0.4406(3) 0.9886(3) 0.4174(2) 0.0400 Uani
H20 H 0.401070 0.980886 0.361390 0.0480 Uiso
H27 H 0.022237 0.414035 0.302823 0.0450 Uiso
N5 N 0.9006(2) 0.51118(19) 0.18593(18) 0.0342 Uani
C37 C 0.8383(3) 0.4747(2) 0.1184(2) 0.0324 Uani
C38 C 0.7541(3) 0.5341(3) 0.0371(2) 0.0438 Uani
H23 H 0.731355 0.615434 0.015595 0.0530 Uiso
N6 N 0.8441(2) 0.78759(18) 0.57582(18) 0.0305 Uani
N7 N 0.8232(2) 0.74131(19) 0.43001(18) 0.0334 Uani
C40 C 0.8986(3) 0.7949(2) 0.4715(2) 0.0306 Uani
H25 H 0.980657 0.832920 0.430044 0.0370 Uiso
C41 C 0.7222(3) 0.7256(2) 0.6063(2) 0.0306 Uani
C42 C 0.8863(3) 0.6246(2) 0.1975(2) 0.0334 Uani
C43 C 0.8539(3) 0.7374(2) 0.3179(2) 0.0346 Uani
C44 C 0.8586(3) 0.6285(2) 0.3061(2) 0.0344 Uani
H26 H 0.843606 0.559899 0.369492 0.0410 Uiso
C45 C 0.9711(3) 0.4130(2) 0.2503(2) 0.0375 Uani
C46 C 0.8742(3) 0.3533(2) 0.1499(2) 0.0337 Uani
C47 C 0.8776(3) 0.8394(2) 0.2256(2) 0.0431 Uani
H28 H 0.876791 0.911344 0.235021 0.0520 Uiso
C48 C 0.7089(3) 0.6956(2) 0.5152(2) 0.0352 Uani
C49 C 0.8217(3) 0.2860(3) 0.1032(2) 0.0445 Uani
H29 H 0.842739 0.204453 0.125180 0.0530 Uiso
C50 C 0.9028(3) 0.8329(3) 0.1179(3) 0.0487 Uani
H30 H 0.918096 0.901493 0.054577 0.0590 Uiso
C51 C 0.9055(3) 0.7264(2) 0.1036(2) 0.0425 Uani
H31 H 0.920197 0.723199 0.031048 0.0510 Uiso
C52 C 0.5953(3) 0.6349(3) 0.5203(3) 0.0514 Uani
H32 H 0.587018 0.614051 0.459850 0.0620 Uiso
C53 C 0.6212(3) 0.6970(3) 0.7055(2) 0.0425 Uani
H33 H 0.629401 0.717078 0.766509 0.0510 Uiso
C54 C 0.7378(4) 0.3447(3) 0.0234(3) 0.0562 Uani
C55 C 0.5081(3) 0.6375(3) 0.7105(3) 0.0559 Uani
H35 H 0.438525 0.617089 0.776030 0.0670 Uiso
C56 C 0.4961(4) 0.6075(3) 0.6192(3) 0.0628 Uani
H36 H 0.418322 0.567548 0.625413 0.0750 Uiso
C39 C 0.7059(4) 0.4666(3) 0.9901(3) 0.0570 Uani
H24 H 0.650437 0.503388 0.934332 0.0680 Uiso
H34 H 0.701252 0.301965 0.990668 0.0670 Uiso
loop_
_atom_site_aniso_label
_atom_site_aniso_U_11
_atom_site_aniso_U_22
_atom_site_aniso_U_33
_atom_site_aniso_U_23
_atom_site_aniso_U_13
_atom_site_aniso_U_12
C3 0.063 0.073 0.0393 -0.0161 -0.0197 -0.012
N1 0.0385 0.0329 0.0365 -0.0182 -0.0092 0.0009
C1 0.0319 0.0393 0.0275 -0.016 0.0011 -0.0059
C2 0.0468 0.0473 0.0365 -0.0128 -0.0082 -0.0051
Cd1 0.01887 0.03505 0.03839 -0.02205 0.00228 -0.00598
N2 0.025 0.0301 0.0426 -0.0197 -0.0056 -0.0033
N3 0.0338 0.0343 0.0371 -0.0197 -0.0005 -0.0081
C6 0.0258 0.0269 0.043 -0.0184 -0.003 -0.003
N4 0.035 0.0351 0.0432 -0.0207 -0.007 -0.0018
C7 0.0285 0.0282 0.0392 -0.0164 -0.0048 -0.0047
C8 0.033 0.0322 0.0374 -0.0169 -0.0038 -0.0014
C9 0.0341 0.0346 0.039 -0.0191 -0.0027 -0.0045
C10 0.0343 0.046 0.0361 -0.019 0.0041 0.0032
C11 0.0389 0.03 0.0353 -0.0124 -0.0054 -0.0049
O3 0.0465 0.101 0.109 -0.0714 0.0377 -0.0263
C13 0.0387 0.036 0.0451 -0.0208 -0.0146 0.0028
O4 0.0405 0.0966 0.0754 -0.0692 0.0072 0.0001
C15 0.031 0.0395 0.0325 -0.0189 0.0037 -0.0068
C16 0.038 0.0586 0.057 -0.0427 0.0037 -0.0054
C17 0.0523 0.0297 0.0473 -0.016 -0.0028 -0.006
C18 0.0342 0.0344 0.0419 -0.0185 -0.0037 -0.0088
C19 0.0497 0.0482 0.0438 -0.0258 -0.0022 -0.0127
C20 0.0619 0.0347 0.0408 -0.0079 0.0019 -0.0088
C21 0.0341 0.04 0.0357 -0.0204 0.0047 -0.0009
C22 0.0481 0.0427 0.034 -0.015 0.0011 -0.0048
C23 0.0482 0.067 0.0553 -0.0352 -0.0028 -0.026
C25 0.0438 0.0468 0.042 -0.0234 0.0018 -0.0126
C26 0.068 0.068 0.0475 -0.0302 -0.0134 -0.019
C27 0.0478 0.066 0.056 -0.0287 0.0144 -0.0276
C28 0.0503 0.081 0.071 -0.039 0.0065 -0.0398
C36 0.0318 0.0609 0.0603 -0.0405 0.0068 -0.0098
C24 0.0318 0.0609 0.0603 -0.0405 0.0068 -0.0098
O10 0.0237 0.0535 0.0784 -0.0367 -0.0125 -0.0044
C33 0.0343 0.046 0.0361 -0.019 0.0041 0.0032
O7 0.0465 0.101 0.109 -0.0714 0.0377 -0.0263
O8 0.0405 0.0966 0.0754 -0.0692 0.0072 0.0001
C34 0.038 0.0586 0.057 -0.0427 0.0037 -0.0054
C35 0.0341 0.04 0.0357 -0.0204 0.0047 -0.0009
Cd7 0.01887 0.03505 0.03839 -0.02205 0.00228 -0.00598
O1 0.0204 0.0458 0.0539 -0.0144 0.0032 -0.01
C4 0.0164 0.0267 0.0428 -0.0113 -0.0046 -0.0013
O2 0.0237 0.0535 0.0784 -0.0367 -0.0125 -0.0044
C5 0.0188 0.0262 0.0583 -0.0183 -0.0029 -0.0016
C12 0.0209 0.0536 0.0361 -0.0155 0.0022 -0.0055
C14 0.0214 0.0614 0.045 -0.0264 -0.0066 -0.0053
N10 0.035 0.0351 0.0432 -0.0207 -0.007 -0.0018
O5 0.0204 0.0458 0.0539 -0.0144 0.0032 -0.01
C29 0.0164 0.0267 0.0428 -0.0113 -0.0046 -0.0013
C30 0.0188 0.0262 0.0583 -0.0183 -0.0029 -0.0016
C31 0.0209 0.0536 0.0361 -0.0155 0.0022 -0.0055
C32 0.0214 0.0614 0.045 -0.0264 -0.0066 -0.0053
N5 0.0385 0.0329 0.0365 -0.0182 -0.0092 0.0009
C37 0.0319 0.0393 0.0275 -0.016 0.0011 -0.0059
C38 0.0468 0.0473 0.0365 -0.0128 -0.0082 -0.0051
N6 0.025 0.0301 0.0426 -0.0197 -0.0056 -0.0033
N7 0.0338 0.0343 0.0371 -0.0197 -0.0005 -0.0081
C40 0.0258 0.0269 0.043 -0.0184 -0.003 -0.003
C41 0.0285 0.0282 0.0392 -0.0164 -0.0048 -0.0047
C42 0.033 0.0322 0.0374 -0.0169 -0.0038 -0.0014
C43 0.0341 0.0346 0.039 -0.0191 -0.0027 -0.0045
C44 0.0389 0.03 0.0353 -0.0124 -0.0054 -0.0049
C45 0.0387 0.036 0.0451 -0.0208 -0.0146 0.0028
C46 0.031 0.0395 0.0325 -0.0189 0.0037 -0.0068
C47 0.0523 0.0297 0.0473 -0.016 -0.0028 -0.006
C48 0.0342 0.0344 0.0419 -0.0185 -0.0037 -0.0088
C49 0.0497 0.0482 0.0438 -0.0258 -0.0022 -0.0127
C50 0.0619 0.0347 0.0408 -0.0079 0.0019 -0.0088
C51 0.0481 0.0427 0.034 -0.015 0.0011 -0.0048
C52 0.0482 0.067 0.0553 -0.0352 -0.0028 -0.026
C53 0.0438 0.0468 0.042 -0.0234 0.0018 -0.0126
C54 0.068 0.068 0.0475 -0.0302 -0.0134 -0.019
C55 0.0478 0.066 0.056 -0.0287 0.0144 -0.0276
C56 0.0503 0.081 0.071 -0.039 0.0065 -0.0398
C39 0.063 0.073 0.0393 -0.0161 -0.0197 -0.012
loop_
_geom_bond_atom_site_label_1
_geom_bond_atom_site_label_2
_geom_bond_site_symmetry_1
_geom_bond_site_symmetry_2
H2 C3 1_555 1_555
N1 C1 1_555 1_555
C1 C2 1_555 1_555
C2 H1 1_555 1_555
N2 Cd1 1_555 1_555
N3 C6 1_555 1_555
C6 N2 1_555 1_555
H3 C6 1_555 1_555
N4 C13 1_555 1_555
C7 N2 1_555 1_555
C8 N1 1_555 1_555
C9 N3 1_555 1_555
C10 O3 1_555 1_555
C11 C8 1_555 1_555
H4 C11 1_555 1_555
O3 Cd1 1_555 1_555
C13 N1 1_555 1_555
O4 Cd1 1_555 1_555
C15 C1 1_555 1_555
C16 H8 1_555 1_555
C17 C9 1_555 1_555
H9 C17 1_555 1_555
C18 N3 1_555 1_555
C19 C15 1_555 1_555
H10 C19 1_555 1_555
C20 C17 1_555 1_555
H11 C20 1_555 1_555
C21 C10 1_555 1_555
C22 C8 1_555 1_555
H12 C22 1_555 1_555
C23 C18 1_555 1_555
H13 C23 1_555 1_555
C25 C7 1_555 1_555
H15 C25 1_555 1_555
C27 C25 1_555 1_555
H17 C27 1_555 1_555
C28 C23 1_555 1_555
H18 C28 1_555 1_555
N4 C15 1_555 1_555
C7 C18 1_555 1_555
C9 C11 1_555 1_555
C10 O4 1_555 1_555
C16 C21 1_555 1_555
C19 C26 1_555 1_555
C20 C22 1_555 1_555
C27 C28 1_555 1_555
H22 C36 1_555 1_555
H14 C24 1_555 1_555
C33 O7 1_555 1_555
O7 Cd7 1_555 1_555
O8 C33 1_555 1_555
H21 C34 1_555 1_555
C35 C33 1_555 1_555
Cd7 O8 1_555 1_555
C34 C35 1_555 1_555
O1 C5 1_555 1_555
C4 C5 1_555 1_555
O2 C5 1_555 1_555
C12 C4 1_555 1_555
H5 C12 1_555 1_555
C14 C4 1_555 1_555
H7 C14 1_555 1_555
O5 C30 1_555 1_555
C29 C30 1_555 1_555
O10 C30 1_555 1_555
H19 C31 1_555 1_555
H20 C32 1_555 1_555
C29 C31 1_555 1_555
C29 C32 1_555 1_555
N5 C37 1_555 1_555
C37 C38 1_555 1_555
C38 H23 1_555 1_555
N6 Cd7 1_555 1_555
N7 C40 1_555 1_555
C40 N6 1_555 1_555
H25 C40 1_555 1_555
N10 C45 1_555 1_555
C41 N6 1_555 1_555
C42 N5 1_555 1_555
C43 N7 1_555 1_555
C44 C42 1_555 1_555
H26 C44 1_555 1_555
C45 N5 1_555 1_555
C46 C37 1_555 1_555
C47 C43 1_555 1_555
H28 C47 1_555 1_555
C48 N7 1_555 1_555
C49 C46 1_555 1_555
H29 C49 1_555 1_555
C50 C47 1_555 1_555
H30 C50 1_555 1_555
C51 C42 1_555 1_555
H31 C51 1_555 1_555
C52 C48 1_555 1_555
H32 C52 1_555 1_555
C53 C41 1_555 1_555
H33 C53 1_555 1_555
C55 C53 1_555 1_555
H35 C55 1_555 1_555
C56 C52 1_555 1_555
H36 C56 1_555 1_555
N10 C46 1_555 1_555
C41 C48 1_555 1_555
C43 C44 1_555 1_555
C49 C54 1_555 1_555
C50 C51 1_555 1_555
C55 C56 1_555 1_555
H24 C39 1_555 1_555

#END
