
###############################################################################
#
# This file contains modified crystal structure data generated from the
# MOF subset of the Cambridge Structural Database (CSD) v543 
# hosted by the Cambridge Crystallographic Data Centre (CCDC).
#
# This work is licensed under the Creative Commons
# Attribution-NonCommercial-ShareAlike 4.0 International License.
# To view a copy of this license, visit
# http://creativecommons.org/licenses/by-nc-sa/4.0/
# or send a letter to
# Creative Commons, PO Box 1866, Mountain View, CA 94042, USA.
#
# CIF created using the CSD Python API on 29 September 2022
# The structure has been converted into the P1 space group
# The structure has a 3D framework
# The original CSD entry KIPZAM is in the monoclinic crystal system
# The framework has been calculated to contain at least 10.0% void space
# The void calculation uses a probe of radius 1.32A, grid spacing 0.4
#
###############################################################################

data_KIPZAM
_chemical_formula_moiety         '(C100 H76 Co6 N12 O30)n'
_symmetry_cell_setting           triclinic
_symmetry_space_group_name_H-M   'P 1'
_symmetry_Int_Tables_number      1
_space_group_name_Hall           'P 1'
loop_
_symmetry_equiv_pos_site_id
_symmetry_equiv_pos_as_xyz
1 x,y,z
_cell_length_a                   15.182(3)
_cell_length_b                   9.7285(19)
_cell_length_c                   19.240(4)
_cell_angle_alpha                90
_cell_angle_beta                 100.61(3)
_cell_angle_gamma                90
_cell_volume                     2793.13
loop_
_atom_site_label
_atom_site_type_symbol
_atom_site_fract_x
_atom_site_fract_y
_atom_site_fract_z
N3 N 0.2046(3) 0.2877(5) 0.4515(3)
C5 C 0.1151(4) 0.2977(6) 0.4436(3)
H4 H 0.0904 0.3855 0.4394
C7 C 0.0572(4) 0.1891(6) 0.4412(3)
C20 C 0.2390(4) 0.1616(7) 0.4564(3)
H13 H 0.3007 0.1516 0.4612
C24 C 0.1872(5) 0.0457(7) 0.4547(4)
C25 C 0.0943(5) 0.0576(7) 0.4457(4)
Co7 Co 0.28069(5) 0.47660(8) 0.44807(4)
N1 N 0.6348(3) 0.1598(5) 0.3243(3)
C1 C 0.6381(5) 0.1925(6) 0.2573(3)
H1 H 0.6365 0.2849 0.2447
C10 C 0.6352(4) 0.0269(6) 0.3404(3)
H6 H 0.6314 0.0028 0.3865
C21 C 0.6438(6) 0.0964(7) 0.2066(4)
H14 H 0.6464 0.1231 0.1606
Co3 Co 0.63802(5) 0.31346(7) 0.40262(4)
Co5 Co 0.78069(5) 0.02340(8) 0.94807(4)
O8 O 0.8700(3) 0.6827(4) 0.0170(2)
Co4 Co 0.86198(5) 0.81346(7) 0.09738(4)
Co2 Co 0.71931(5) 0.52340(8) 0.55193(4)
O1 O 0.3672(3) 0.3624(4) 0.4039(2)
O2 O 0.6416(3) 0.5298(4) 0.4478(2)
O3 O 0.5016(3) 0.3224(4) 0.3799(2)
O4 O 0.7751(3) 0.2927(4) 0.4165(2)
N2 N 0.8007(3) 0.4817(5) 0.6544(2)
O5 O 0.8503(3) 0.8445(4) 0.9332(2)
O6 O 0.8176(3) 0.4263(5) 0.5108(2)
O7 O 0.6409(3) 0.4910(4) 0.3367(2)
C2 C 0.8034(4) 0.5644(6) 0.7093(3)
H2 H 0.7720 0.6468 0.7020
C3 C 0.8650(4) 0.7249(6) 0.9544(3)
C4 C 0.8918(4) 0.3255(6) 0.7306(3)
H3 H 0.9211 0.2412 0.7366
C6 C 0.9606(4) 0.2138(6) 0.4339(3)
H5 H 0.9212 0.1552 0.4053
C8 C 0.6409(4) 0.5738(6) 0.3866(3)
C9 C 0.8495(4) 0.5368(6) 0.7767(3)
C11 C 0.6416(4) 0.7769(6) 0.3112(3)
H7 H 0.6452 0.7151 0.2750
C12 C 0.8778(4) 0.6192(6) 0.9013(3)
H8 H 0.9081 0.5386 0.9168
C13 C 0.8316(4) 0.3466(6) 0.4633(3)
C14 C 0.9275(4) 0.3147(6) 0.4660(3)
H9 H 0.9687 0.3726 0.4935
C15 C 0.6409(4) 0.9220(6) 0.2926(3)
C16 C 0.4502(4) 0.3752(7) 0.4134(4)
C17 C 0.8476(4) 0.6354(6) 0.8328(3)
H10 H 0.8221 0.7204 0.8190
C18 C 0.8457(4) 0.3631(6) 0.6659(3)
H11 H 0.8455 0.3038 0.6279
C19 C 0.6376(4) 0.7232(6) 0.3727(3)
H12 H 0.6324 0.7822 0.4098
C22 C 0.8947(4) 0.4129(6) 0.7867(3)
H15 H 0.9268 0.3892 0.8310
C23 C 0.6456(5) 0.9586(6) 0.2247(3)
H16 H 0.6500 0.8915 0.1911
H19 H 0.472(4) 0.426(6) 0.441(3)
O9 O 0.6328(3) 0.6376(4) 0.5961(2)
O10 O 0.6497(3) 0.3445(4) 0.5668(2)
O11 O 0.6300(3) 0.1827(4) 0.4830(2)
N5 N 0.7954(3) 0.7123(5) 0.5485(3)
O1_2 O 0.1328(3) 0.8624(4) 0.0961(2)
C16_2 C 0.0498(4) 0.8752(7) 0.0866(4)
H19_2 H 0.028(4) 0.926(6) 0.059(3)
Co6 Co 0.21931(5) 0.97660(8) 0.05193(4)
O2_2 O 0.8584(3) 0.0298(4) 0.0522(2)
N1_2 N 0.8652(3) 0.6598(5) 0.1757(3)
C1_2 C 0.8619(5) 0.6925(6) 0.2427(3)
H1_2 H 0.8635 0.7849 0.2553
C8_2 C 0.8591(4) 0.0738(6) 0.1134(3)
C10_2 C 0.8648(4) 0.5269(6) 0.1596(3)
H6_2 H 0.8686 0.5028 0.1135
C11_2 C 0.8584(4) 0.2769(6) 0.1888(3)
H7_2 H 0.8548 0.2151 0.2250
C15_2 C 0.8591(4) 0.4220(6) 0.2074(3)
C19_2 C 0.8624(4) 0.2232(6) 0.1273(3)
H12_2 H 0.8676 0.2822 0.0902
C21_2 C 0.8562(6) 0.5964(7) 0.2934(4)
H14_2 H 0.8536 0.6231 0.3394
C23_2 C 0.8544(5) 0.4586(6) 0.2753(3)
H16_2 H 0.8500 0.3915 0.3089
C2_2 C 0.6966(4) 0.0644(6) 0.7907(3)
H2_2 H 0.7280 0.1468 0.7980
C3_2 C 0.6350(4) 0.2249(6) 0.5456(3)
C9_2 C 0.6505(4) 0.0368(6) 0.7233(3)
C12_2 C 0.6222(4) 0.1192(6) 0.5987(3)
H8_2 H 0.5919 0.0386 0.5832
C17_2 C 0.6524(4) 0.1354(6) 0.6672(3)
H10_2 H 0.6779 0.2204 0.6810
O9_2 O 0.8672(3) 0.1376(4) 0.9039(2)
N5_2 N 0.7046(3) 0.2123(5) 0.9515(3)
O3_2 O 0.9984(3) 0.8224(4) 0.1201(2)
O4_2 O 0.7249(3) 0.7927(4) 0.0835(2)
O7_2 O 0.8591(3) 0.9910(4) 0.1633(2)
N3_2 N 0.2954(3) 0.7877(5) 0.0485(3)
C5_2 C 0.3849(4) 0.7977(6) 0.0564(3)
H4_2 H 0.4096 0.8855 0.0606
C6_2 C 0.5394(4) 0.7138(6) 0.0661(3)
H5_2 H 0.5788 0.6552 0.0947
C7_2 C 0.4428(4) 0.6891(6) 0.0588(3)
C13_2 C 0.6684(4) 0.8466(6) 0.0367(3)
C14_2 C 0.5725(4) 0.8147(6) 0.0340(3)
H9_2 H 0.5313 0.8726 0.0065
C20_2 C 0.2610(4) 0.6616(7) 0.0436(3)
H13_2 H 0.1993 0.6516 0.0388
C24_2 C 0.3128(5) 0.5457(7) 0.0453(4)
H17 H 0.2861 0.4594 0.0403
C25_2 C 0.4057(5) 0.5576(7) 0.0543(4)
H18 H 0.4420 0.4800 0.0574
N2_2 N 0.6993(3) 0.9817(5) 0.8456(2)
O6_2 O 0.6824(3) 0.9263(5) 0.9892(2)
C4_2 C 0.6082(4) 0.8255(6) 0.7694(3)
H3_2 H 0.5789 0.7412 0.7634
C18_2 C 0.6543(4) 0.8631(6) 0.8341(3)
H11_2 H 0.6545 0.8038 0.8721
C22_2 C 0.6053(4) 0.9129(6) 0.7133(3)
H15_2 H 0.5732 0.8892 0.6690
Co1 Co 0.36198(5) 0.68654(7) 0.59738(4)
O2_3 O 0.3584(3) 0.4702(4) 0.5522(2)
O3_3 O 0.4984(3) 0.6776(4) 0.6201(2)
O4_3 O 0.2249(3) 0.7073(4) 0.5835(2)
N2_3 N 0.1993(3) 0.5183(5) 0.3456(2)
O5_2 O 0.1497(3) 0.1555(4) 0.0668(2)
O6_3 O 0.1824(3) 0.5737(5) 0.4892(2)
O7_3 O 0.3591(3) 0.5090(4) 0.6633(2)
C2_3 C 0.1966(4) 0.4356(6) 0.2907(3)
H2_3 H 0.2280 0.3532 0.2980
C3_3 C 0.1350(4) 0.2751(6) 0.0456(3)
C4_3 C 0.1082(4) 0.6745(6) 0.2694(3)
H3_3 H 0.0789 0.7588 0.2634
C6_3 C 0.0394(4) 0.7862(6) 0.5661(3)
H5_3 H 0.0788 0.8448 0.5947
C8_3 C 0.3591(4) 0.4262(6) 0.6134(3)
C9_3 C 0.1505(4) 0.4632(6) 0.2233(3)
C11_3 C 0.3584(4) 0.2231(6) 0.6888(3)
H7_3 H 0.3548 0.2849 0.7250
C12_3 C 0.1222(4) 0.3808(6) 0.0987(3)
H8_3 H 0.0919 0.4614 0.0832
C13_3 C 0.1684(4) 0.6534(6) 0.5367(3)
C14_3 C 0.0725(4) 0.6853(6) 0.5340(3)
H9_3 H 0.0313 0.6274 0.5065
C15_3 C 0.3591(4) 0.0780(6) 0.7074(3)
C16_3 C 0.5498(4) 0.6248(7) 0.5866(4)
C17_3 C 0.1524(4) 0.3646(6) 0.1672(3)
H10_3 H 0.1779 0.2796 0.1810
C18_3 C 0.1543(4) 0.6369(6) 0.3341(3)
H11_3 H 0.1545 0.6962 0.3721
C19_3 C 0.3624(4) 0.2768(6) 0.6273(3)
H12_3 H 0.3676 0.2178 0.5902
C22_3 C 0.1053(4) 0.5871(6) 0.2133(3)
H15_3 H 0.0732 0.6108 0.1690
C23_3 C 0.3544(5) 0.0414(6) 0.7753(3)
H16_3 H 0.3500 0.1085 0.8089
H19_3 H 0.528(4) 0.574(6) 0.559(3)
N4 N 0.3652(3) 0.8402(5) 0.6757(3)
O10_2 O 0.3503(3) 0.6555(4) 0.4332(2)
O11_2 O 0.3700(3) 0.8173(4) 0.5170(2)
O8_2 O 0.1300(3) 0.3173(4) 0.9830(2)
Co4_2 Co 0.13802(5) 0.18654(7) 0.90262(4)
C1_3 C 0.3619(5) 0.8075(6) 0.7427(3)
H1_3 H 0.3635 0.7151 0.7553
C10_3 C 0.3648(4) 0.9731(6) 0.6596(3)
H6_3 H 0.3686 0.9972 0.6135
C21_3 C 0.3562(6) 0.9036(7) 0.7934(4)
H14_3 H 0.3536 0.8769 0.8394
C5_3 C 0.8849(4) 0.7023(6) 0.5564(3)
H4_3 H 0.9096 0.6145 0.5606
C7_3 C 0.9428(4) 0.8109(6) 0.5588(3)
C20_3 C 0.7610(4) 0.8384(7) 0.5436(3)
H13_3 H 0.6993 0.8484 0.5388
C24_3 C 0.8128(5) 0.9543(7) 0.5453(4)
C25_3 C 0.9057(5) 0.9424(7) 0.5543(4)
N2_4 N 0.3007(3) 0.0183(5) 0.1544(2)
O6_4 O 0.3176(3) 0.0737(5) 0.0108(2)
C4_4 C 0.3918(4) 0.1745(6) 0.2306(3)
H3_4 H 0.4211 0.2588 0.2366
C18_4 C 0.3457(4) 0.1369(6) 0.1659(3)
H11_4 H 0.3455 0.1962 0.1279
C22_4 C 0.3947(4) 0.0871(6) 0.2867(3)
H15_4 H 0.4268 0.1108 0.3310
O3_4 O 0.0016(3) 0.1776(4) 0.8799(2)
O4_4 O 0.2751(3) 0.2073(4) 0.9165(2)
O7_4 O 0.1409(3) 0.0090(4) 0.8367(2)
C5_4 C 0.6151(4) 0.2023(6) 0.9436(3)
H4_4 H 0.5904 0.1145 0.9394
C6_4 C 0.4606(4) 0.2862(6) 0.9339(3)
H5_4 H 0.4212 0.3448 0.9053
C7_4 C 0.5572(4) 0.3109(6) 0.9412(3)
C13_4 C 0.3316(4) 0.1534(6) 0.9633(3)
C14_4 C 0.4275(4) 0.1853(6) 0.9660(3)
H9_4 H 0.4687 0.1274 0.9935
C20_4 C 0.7390(4) 0.3384(7) 0.9564(3)
H13_4 H 0.8007 0.3484 0.9612
C24_4 C 0.6872(5) 0.4543(7) 0.9547(4)
H17_2 H 0.7139 0.5406 0.9597
C25_4 C 0.5943(5) 0.4424(7) 0.9457(4)
H18_2 H 0.5580 0.5200 0.9426
N4_2 N 0.1348(3) 0.3402(5) 0.8243(3)
C2_4 C 0.3034(4) 0.9356(6) 0.2093(3)
H2_4 H 0.2720 0.8532 0.2020
C3_4 C 0.3650(4) 0.7751(6) 0.4544(3)
C9_4 C 0.3495(4) 0.9632(6) 0.2767(3)
C12_4 C 0.3778(4) 0.8808(6) 0.4013(3)
H8_4 H 0.4081 0.9614 0.4168
C17_4 C 0.3476(4) 0.8646(6) 0.3328(3)
H10_4 H 0.3221 0.7796 0.3190
O2_4 O 0.1416(3) 0.9702(4) 0.9478(2)
C1_4 C 0.1381(5) 0.3075(6) 0.7573(3)
H1_4 H 0.1365 0.2151 0.7447
C8_4 C 0.1409(4) 0.9262(6) 0.8866(3)
C10_4 C 0.1352(4) 0.4731(6) 0.8404(3)
H6_4 H 0.1314 0.4972 0.8865
C11_4 C 0.1416(4) 0.7231(6) 0.8112(3)
H7_4 H 0.1452 0.7849 0.7750
C15_4 C 0.1409(4) 0.5780(6) 0.7926(3)
C19_4 C 0.1376(4) 0.7768(6) 0.8727(3)
H12_4 H 0.1324 0.7178 0.9098
C21_4 C 0.1438(6) 0.4036(7) 0.7066(4)
H14_4 H 0.1464 0.3769 0.6606
C23_4 C 0.1456(5) 0.5414(6) 0.7247(3)
H16_4 H 0.1500 0.6085 0.6911
C16_4 C 0.9502(4) 0.1248(7) 0.9134(4)
H19_4 H 0.972(4) 0.074(6) 0.941(3)
H17_3 H 0.2139 0.9594 0.4597
H18_3 H 0.0580 0.9800 0.4426
H17_4 H 0.7861 0.0406 0.5403
H18_4 H 0.9420 0.0200 0.5574
loop_
_geom_bond_atom_site_label_1
_geom_bond_atom_site_label_2
_geom_bond_site_symmetry_1
_geom_bond_site_symmetry_2
N3 C5 1_555 1_555
C5 H4 1_555 1_555
C7 C5 1_555 1_555
C20 N3 1_555 1_555
H13 C20 1_555 1_555
C24 C20 1_555 1_555
C25 C7 1_555 1_555
Co7 N3 1_555 1_555
C24 C25 1_555 1_555
N1 C1 1_555 1_555
C1 H1 1_555 1_555
C10 N1 1_555 1_555
H6 C10 1_555 1_555
C21 C1 1_555 1_555
H14 C21 1_555 1_555
Co3 N1 1_555 1_555
Co4 O8 1_555 1_555
Co3 O2 1_555 1_555
Co2 O2 1_555 1_555
O1 C16 1_555 1_555
O2 C8 1_555 1_555
O3 Co3 1_555 1_555
O4 Co3 1_555 1_555
N2 Co2 1_555 1_555
O5 C3 1_555 1_555
O6 Co2 1_555 1_555
O7 Co3 1_555 1_555
C2 N2 1_555 1_555
H2 C2 1_555 1_555
C3 C12 1_555 1_555
C4 H3 1_555 1_555
C6 H5 1_555 1_555
C8 O7 1_555 1_555
C9 C2 1_555 1_555
C11 H7 1_555 1_555
C12 H8 1_555 1_555
C13 O4 1_555 1_555
C14 C6 1_555 1_555
H9 C14 1_555 1_555
C16 O3 1_555 1_555
C17 C9 1_555 1_555
H10 C17 1_555 1_555
C18 N2 1_555 1_555
H11 C18 1_555 1_555
C19 C8 1_555 1_555
H12 C19 1_555 1_555
C22 C4 1_555 1_555
H15 C22 1_555 1_555
C23 C15 1_555 1_555
H16 C23 1_555 1_555
H19 C16 1_555 1_555
Co7 O1 1_555 1_555
O9 Co2 1_555 1_555
O10 Co2 1_555 1_555
O11 Co3 1_555 1_555
N5 Co2 1_555 1_555
O6 C13 1_555 1_555
C4 C18 1_555 1_555
C9 C22 1_555 1_555
C11 C15 1_555 1_555
C11 C19 1_555 1_555
C12 C17 1_555 1_555
C13 C14 1_555 1_555
O1_2 C16_2 1_555 1_555
H19_2 C16_2 1_555 1_555
Co6 O1_2 1_555 1_555
O2_2 C8_2 1_555 1_555
N1_2 C1_2 1_555 1_555
C1_2 H1_2 1_555 1_555
C10_2 N1_2 1_555 1_555
H6_2 C10_2 1_555 1_555
C11_2 H7_2 1_555 1_555
C15_2 C10_2 1_555 1_555
C19_2 C8_2 1_555 1_555
H12_2 C19_2 1_555 1_555
C21_2 C1_2 1_555 1_555
H14_2 C21_2 1_555 1_555
C23_2 C15_2 1_555 1_555
H16_2 C23_2 1_555 1_555
Co4 N1_2 1_555 1_555
C11_2 C15_2 1_555 1_555
C11_2 C19_2 1_555 1_555
C21_2 C23_2 1_555 1_555
O10 C3_2 1_555 1_555
O11 C3_2 1_555 1_555
H2_2 C2_2 1_555 1_555
C3_2 C12_2 1_555 1_555
C9_2 C2_2 1_555 1_555
C12_2 H8_2 1_555 1_555
C17_2 C9_2 1_555 1_555
H10_2 C17_2 1_555 1_555
O9_2 Co5 1_555 1_555
N5_2 Co5 1_555 1_555
C12_2 C17_2 1_555 1_555
O3_2 Co4 1_555 1_555
O4_2 Co4 1_555 1_555
O7_2 Co4 1_555 1_555
N3_2 C5_2 1_555 1_555
C5_2 H4_2 1_555 1_555
C6_2 H5_2 1_555 1_555
C7_2 C5_2 1_555 1_555
C13_2 O4_2 1_555 1_555
C14_2 C6_2 1_555 1_555
H9_2 C14_2 1_555 1_555
C20_2 N3_2 1_555 1_555
H13_2 C20_2 1_555 1_555
C24_2 C20_2 1_555 1_555
H17 C24_2 1_555 1_555
C25_2 C7_2 1_555 1_555
H18 C25_2 1_555 1_555
Co6 N3_2 1_555 1_555
C6_2 C7_2 1_555 1_555
C13_2 C14_2 1_555 1_555
C24_2 C25_2 1_555 1_555
C4_2 H3_2 1_555 1_555
C18_2 N2_2 1_555 1_555
H11_2 C18_2 1_555 1_555
C22_2 C4_2 1_555 1_555
H15_2 C22_2 1_555 1_555
C4_2 C18_2 1_555 1_555
Co1 O2_3 1_555 1_555
Co7 O2_3 1_555 1_555
O9 C16_3 1_555 1_555
O2_3 C8_3 1_555 1_555
O3_3 Co1 1_555 1_555
O4_3 Co1 1_555 1_555
N2_3 Co7 1_555 1_555
O5_2 C3_3 1_555 1_555
O6_3 Co7 1_555 1_555
O7_3 Co1 1_555 1_555
C2_3 N2_3 1_555 1_555
H2_3 C2_3 1_555 1_555
C3_3 C12_3 1_555 1_555
C4_3 H3_3 1_555 1_555
C6_3 H5_3 1_555 1_555
C8_3 O7_3 1_555 1_555
C9_3 C2_3 1_555 1_555
C11_3 H7_3 1_555 1_555
C12_3 H8_3 1_555 1_555
C13_3 O4_3 1_555 1_555
C14_3 C6_3 1_555 1_555
H9_3 C14_3 1_555 1_555
C16_3 O3_3 1_555 1_555
C17_3 C9_3 1_555 1_555
H10_3 C17_3 1_555 1_555
C18_3 N2_3 1_555 1_555
H11_3 C18_3 1_555 1_555
C19_3 C8_3 1_555 1_555
H12_3 C19_3 1_555 1_555
C22_3 C4_3 1_555 1_555
H15_3 C22_3 1_555 1_555
C23_3 C15_3 1_555 1_555
H16_3 C23_3 1_555 1_555
H19_3 C16_3 1_555 1_555
N4 Co1 1_555 1_555
O10_2 Co7 1_555 1_555
O11_2 Co1 1_555 1_555
O6_3 C13_3 1_555 1_555
C4_3 C18_3 1_555 1_555
C9_3 C22_3 1_555 1_555
C11_3 C15_3 1_555 1_555
C11_3 C19_3 1_555 1_555
C12_3 C17_3 1_555 1_555
C13_3 C14_3 1_555 1_555
Co4_2 O8_2 1_555 1_555
N4 C1_3 1_555 1_555
C1_3 H1_3 1_555 1_555
C10_3 N4 1_555 1_555
H6_3 C10_3 1_555 1_555
C21_3 C1_3 1_555 1_555
H14_3 C21_3 1_555 1_555
N5 C5_3 1_555 1_555
C5_3 H4_3 1_555 1_555
C7_3 C5_3 1_555 1_555
C20_3 N5 1_555 1_555
H13_3 C20_3 1_555 1_555
C24_3 C20_3 1_555 1_555
C25_3 C7_3 1_555 1_555
C24_3 C25_3 1_555 1_555
C4_4 H3_4 1_555 1_555
C18_4 N2_4 1_555 1_555
H11_4 C18_4 1_555 1_555
C22_4 C4_4 1_555 1_555
H15_4 C22_4 1_555 1_555
C4_4 C18_4 1_555 1_555
O3_4 Co4_2 1_555 1_555
O4_4 Co4_2 1_555 1_555
O7_4 Co4_2 1_555 1_555
N5_2 C5_4 1_555 1_555
C5_4 H4_4 1_555 1_555
C6_4 H5_4 1_555 1_555
C7_4 C5_4 1_555 1_555
C13_4 O4_4 1_555 1_555
C14_4 C6_4 1_555 1_555
H9_4 C14_4 1_555 1_555
C20_4 N5_2 1_555 1_555
H13_4 C20_4 1_555 1_555
C24_4 C20_4 1_555 1_555
H17_2 C24_4 1_555 1_555
C25_4 C7_4 1_555 1_555
H18_2 C25_4 1_555 1_555
N4_2 Co4_2 1_555 1_555
C6_4 C7_4 1_555 1_555
C13_4 C14_4 1_555 1_555
C24_4 C25_4 1_555 1_555
O10_2 C3_4 1_555 1_555
O11_2 C3_4 1_555 1_555
H2_4 C2_4 1_555 1_555
C3_4 C12_4 1_555 1_555
C9_4 C2_4 1_555 1_555
C12_4 H8_4 1_555 1_555
C17_4 C9_4 1_555 1_555
H10_4 C17_4 1_555 1_555
C12_4 C17_4 1_555 1_555
O2_4 C8_4 1_555 1_555
N4_2 C1_4 1_555 1_555
C1_4 H1_4 1_555 1_555
C10_4 N4_2 1_555 1_555
H6_4 C10_4 1_555 1_555
C11_4 H7_4 1_555 1_555
C15_4 C10_4 1_555 1_555
C19_4 C8_4 1_555 1_555
H12_4 C19_4 1_555 1_555
C21_4 C1_4 1_555 1_555
H14_4 C21_4 1_555 1_555
C23_4 C15_4 1_555 1_555
H16_4 C23_4 1_555 1_555
C11_4 C15_4 1_555 1_555
C11_4 C19_4 1_555 1_555
C21_4 C23_4 1_555 1_555
O9_2 C16_4 1_555 1_555
H19_4 C16_4 1_555 1_555

#END
