
###############################################################################
#
# This file contains modified crystal structure data generated from the
# MOF subset of the Cambridge Structural Database (CSD) v543 
# hosted by the Cambridge Crystallographic Data Centre (CCDC).
#
# This work is licensed under the Creative Commons
# Attribution-NonCommercial-ShareAlike 4.0 International License.
# To view a copy of this license, visit
# http://creativecommons.org/licenses/by-nc-sa/4.0/
# or send a letter to
# Creative Commons, PO Box 1866, Mountain View, CA 94042, USA.
#
# CIF created using the CSD Python API on 29 September 2022
# The structure has been converted into the P1 space group
# The structure has a 3D framework
# The original CSD entry KIRJUS is in the monoclinic crystal system
# The framework has been calculated to contain at least 10.0% void space
# The void calculation uses a probe of radius 1.32A, grid spacing 0.4
#
###############################################################################

data_KIRJUS
_chemical_formula_moiety         '(C132 H100 Cu4 N20 O8)n'
_symmetry_cell_setting           triclinic
_symmetry_space_group_name_H-M   'P 1'
_symmetry_Int_Tables_number      1
_space_group_name_Hall           'P 1'
loop_
_symmetry_equiv_pos_site_id
_symmetry_equiv_pos_as_xyz
1 x,y,z
_cell_length_a                   10.990(3)
_cell_length_b                   16.233(4)
_cell_length_c                   18.276(4)
_cell_angle_alpha                90
_cell_angle_beta                 96.617(4)
_cell_angle_gamma                90
_cell_volume                     3238.73
loop_
_atom_site_label
_atom_site_type_symbol
_atom_site_fract_x
_atom_site_fract_y
_atom_site_fract_z
O1 O 0.0344(4) 0.1249(5) 0.9290(3)
O2 O 0.0073(5) 0.2520(5) 0.9059(3)
Cu3 Cu 0.19966(6) 0.20392(4) 0.88779(4)
C31 C 0.9358(6) 0.7319(5) 0.7577(4)
H23 H 0.9500 0.7862 0.7449
C32 C 0.9384(7) 0.6178(6) 0.8211(4)
H24 H 0.9539 0.5793 0.8587
C33 C 0.8712(7) 0.6069(5) 0.7545(4)
H25 H 0.8323 0.5582 0.7387
N4 N 0.9784(5) 0.6979(4) 0.8208(3)
N5 N 0.8692(4) 0.6781(3) 0.7143(3)
Cu4 Cu 0.80034(6) 0.70392(4) 0.61221(4)
C31_2 C 0.0642(6) 0.2319(5) 0.7423(4)
H23_2 H 0.0500 0.2862 0.7551
C32_2 C 0.0616(7) 0.1178(6) 0.6789(4)
H24_2 H 0.0461 0.0793 0.6413
C33_2 C 0.1288(7) 0.1069(5) 0.7455(4)
H25_2 H 0.1677 0.0582 0.7613
N4_2 N 0.0216(5) 0.1979(4) 0.6792(3)
N5_2 N 0.1308(4) 0.1781(3) 0.7857(3)
O1_2 O 0.9656(4) 0.6249(5) 0.5710(3)
O2_2 O 0.9927(5) 0.7520(5) 0.5941(3)
C1 C 0.2824(5) 0.0318(4) 0.9381(3)
H1 H 0.2202 0.0398 0.9678
C4 C 0.4663(5) 0.0099(3) 0.8518(3)
C5 C 0.3997(5) 0.0833(3) 0.8518(3)
H3 H 0.4191 0.1264 0.8217
C7 C 0.6515(5) 0.0595(4) 0.7970(3)
H4 H 0.6456 0.1093 0.8215
C8 C 0.7463(6) 0.0474(4) 0.7544(4)
H5 H 0.8034 0.0889 0.7499
H12 H 0.3617 0.3331 0.9797
N1 N 0.3088(4) 0.0933(3) 0.8940(2)
N2 N 0.2589(4) 0.2332(3) 0.9911(3)
O7 O 0.2401(4) 0.3218(3) 0.8564(3)
C2 C 0.3431(5) 0.9561(3) 0.9420(3)
C3 C 0.4347(5) 0.9460(3) 0.8973(3)
H2 H 0.4761 0.8960 0.8974
C6 C 0.5646(5) 0.9981(3) 0.8039(3)
C9 C 0.7554(5) 0.9735(4) 0.7186(3)
H6 H 0.8196 0.9650 0.6905
C10 C 0.6697(5) 0.9111(4) 0.7241(3)
C11 C 0.5730(5) 0.9251(4) 0.7663(3)
H7 H 0.5138 0.8846 0.7690
C12 C 0.3110(5) 0.8888(3) 0.9928(3)
H11 H 0.1333 0.9212 0.9946
C19 C 0.6780(5) 0.8281(4) 0.6869(3)
O3 O 0.6088(4) 0.7728(3) 0.7002(3)
O4 O 0.7599(4) 0.8218(3) 0.6436(3)
C1_2 C 0.7176(5) 0.5318(4) 0.5619(3)
H1_2 H 0.7798 0.5398 0.5322
C2_2 C 0.6569(5) 0.4561(3) 0.5580(3)
C3_2 C 0.5653(5) 0.4460(3) 0.6027(3)
H2_2 H 0.5239 0.3960 0.6026
C4_2 C 0.5337(5) 0.5099(3) 0.6482(3)
C5_2 C 0.6003(5) 0.5833(3) 0.6482(3)
H3_2 H 0.5809 0.6264 0.6783
C6_2 C 0.4354(5) 0.4981(3) 0.6961(3)
C7_2 C 0.3485(5) 0.5595(4) 0.7030(3)
H4_2 H 0.3544 0.6093 0.6785
C8_2 C 0.2537(6) 0.5474(4) 0.7456(4)
H5_2 H 0.1966 0.5889 0.7501
C9_2 C 0.2446(5) 0.4735(4) 0.7814(3)
H6_2 H 0.1804 0.4650 0.8095
C10_2 C 0.3303(5) 0.4111(4) 0.7759(3)
C11_2 C 0.4270(5) 0.4251(4) 0.7337(3)
H7_2 H 0.4862 0.3846 0.7310
C12_2 C 0.6890(5) 0.3888(3) 0.5072(3)
C13 C 0.6017(5) 0.3336(3) 0.4784(3)
H8 H 0.5217 0.3379 0.4899
C14 C 0.6336(6) 0.2703(4) 0.4313(4)
H9 H 0.5747 0.2329 0.4116
C15 C 0.7511(6) 0.2642(4) 0.4147(3)
H10 H 0.7723 0.2218 0.3844
C16 C 0.8378(5) 0.3198(4) 0.4421(3)
C17 C 0.8077(5) 0.3828(4) 0.4877(3)
H11_2 H 0.8667 0.4212 0.5054
C18 C 0.9696(7) 0.3153(7) 0.4250(4)
C19_2 C 0.3220(5) 0.3281(4) 0.8131(3)
C20 C 0.6693(6) 0.7962(4) 0.4882(4)
H12_2 H 0.6383 0.8331 0.5203
C21 C 0.7083(6) 0.7356(6) 0.3867(4)
H13 H 0.7094 0.7219 0.3374
C22 C 0.7666(6) 0.6961(4) 0.4450(4)
H14 H 0.8170 0.6504 0.4424
C23 C 0.5657(7) 0.8611(6) 0.3722(5)
H15 H 0.5776 0.9150 0.3947
H16 H 0.5853 0.8646 0.3219
C24 C 0.4316(7) 0.8336(6) 0.3727(5)
C25 C 0.3817(7) 0.7729(5) 0.3278(5)
H17 H 0.4284 0.7470 0.2953
C26 C 0.2638(7) 0.7501(5) 0.3303(5)
H18 H 0.2305 0.7083 0.2994
C27 C 0.1911(6) 0.7881(5) 0.3787(4)
C28 C 0.2415(7) 0.8508(7) 0.4234(4)
H19 H 0.1946 0.8773 0.4556
C29 C 0.3617(7) 0.8738(6) 0.4203(4)
H20 H 0.3958 0.9163 0.4501
C30 C 0.0600(7) 0.7606(7) 0.3806(5)
H21 H 0.0337 0.7742 0.4281
H22 H 0.0545 0.7013 0.3743
N1_2 N 0.6912(4) 0.5933(3) 0.6060(2)
N2_2 N 0.7411(4) 0.7332(3) 0.5089(3)
N3 N 0.6469(5) 0.8000(4) 0.4140(3)
O3_2 O 0.3912(4) 0.2728(3) 0.7998(3)
C2_3 C 0.6569(5) 0.0439(3) 0.0580(3)
C3_3 C 0.5653(5) 0.0540(3) 0.1027(3)
H2_3 H 0.5239 0.1040 0.1026
C6_3 C 0.4354(5) 0.0019(3) 0.1961(3)
C9_3 C 0.2446(5) 0.0265(4) 0.2814(3)
H6_3 H 0.1804 0.0350 0.3095
C10_3 C 0.3303(5) 0.0889(4) 0.2759(3)
C11_3 C 0.4270(5) 0.0749(4) 0.2337(3)
H7_3 H 0.4862 0.1154 0.2310
C12_3 C 0.6890(5) 0.1112(3) 0.0072(3)
H11_3 H 0.8667 0.0788 0.0054
C19_3 C 0.3220(5) 0.1719(4) 0.3131(3)
O3_3 O 0.3912(4) 0.2272(3) 0.2998(3)
O4_2 O 0.2401(4) 0.1782(3) 0.3564(3)
Cu2 Cu 0.19966(6) 0.29608(4) 0.38779(4)
C1_3 C 0.7176(5) 0.9682(4) 0.0619(3)
H1_3 H 0.7798 0.9602 0.0322
C4_3 C 0.5337(5) 0.9901(3) 0.1482(3)
C5_3 C 0.6003(5) 0.9167(3) 0.1482(3)
H3_3 H 0.5809 0.8736 0.1783
C7_3 C 0.3485(5) 0.9405(4) 0.2030(3)
H4_3 H 0.3544 0.8907 0.1785
C8_3 C 0.2537(6) 0.9526(4) 0.2456(4)
H5_3 H 0.1966 0.9111 0.2501
H12_3 H 0.6383 0.6669 0.0203
Cu1 Cu 0.80034(6) 0.79608(4) 0.11221(4)
N1_3 N 0.6912(4) 0.9067(3) 0.1060(2)
N2_3 N 0.7411(4) 0.7668(3) 0.0089(3)
N6 N 0.8692(4) 0.8219(3) 0.2143(3)
O5 O 0.9656(4) 0.8751(5) 0.0710(3)
O6 O 0.9927(5) 0.7480(5) 0.0941(3)
O7_2 O 0.7599(4) 0.6782(3) 0.1436(3)
C1_4 C 0.2824(5) 0.4682(4) 0.4381(3)
H1_4 H 0.2202 0.4602 0.4678
C2_4 C 0.3431(5) 0.5439(3) 0.4420(3)
C3_4 C 0.4347(5) 0.5540(3) 0.3973(3)
H2_4 H 0.4761 0.6040 0.3974
C4_4 C 0.4663(5) 0.4901(3) 0.3518(3)
C5_4 C 0.3997(5) 0.4167(3) 0.3518(3)
H3_4 H 0.4191 0.3736 0.3217
C6_4 C 0.5646(5) 0.5019(3) 0.3039(3)
C7_4 C 0.6515(5) 0.4405(4) 0.2970(3)
H4_4 H 0.6456 0.3907 0.3215
C8_4 C 0.7463(6) 0.4526(4) 0.2544(4)
H5_4 H 0.8034 0.4111 0.2499
C9_4 C 0.7554(5) 0.5265(4) 0.2186(3)
H6_4 H 0.8196 0.5350 0.1905
C10_4 C 0.6697(5) 0.5889(4) 0.2241(3)
C11_4 C 0.5730(5) 0.5749(4) 0.2663(3)
H7_4 H 0.5138 0.6154 0.2690
C12_4 C 0.3110(5) 0.6112(3) 0.4928(3)
C13_2 C 0.3983(5) 0.6664(3) 0.5216(3)
H8_2 H 0.4783 0.6621 0.5101
C14_2 C 0.3664(6) 0.7297(4) 0.5687(4)
H9_2 H 0.4253 0.7671 0.5884
C15_2 C 0.2489(6) 0.7358(4) 0.5853(3)
H10_2 H 0.2277 0.7782 0.6156
C16_2 C 0.1622(5) 0.6802(4) 0.5579(3)
C17_2 C 0.1923(5) 0.6172(4) 0.5123(3)
H11_4 H 0.1333 0.5788 0.4946
C18_2 C 0.0304(7) 0.6847(7) 0.5750(4)
C19_4 C 0.6780(5) 0.6719(4) 0.1869(3)
C20_2 C 0.3307(6) 0.2038(4) 0.5118(4)
H12_4 H 0.3617 0.1669 0.4797
C21_2 C 0.2917(6) 0.2644(6) 0.6133(4)
H13_2 H 0.2906 0.2781 0.6626
C22_2 C 0.2334(6) 0.3039(4) 0.5550(4)
H14_2 H 0.1830 0.3496 0.5576
C23_2 C 0.4343(7) 0.1389(6) 0.6278(5)
H15_2 H 0.4224 0.0850 0.6053
H16_2 H 0.4147 0.1354 0.6781
C24_2 C 0.5684(7) 0.1664(6) 0.6273(5)
C25_2 C 0.6183(7) 0.2271(5) 0.6722(5)
H17_2 H 0.5716 0.2530 0.7047
C26_2 C 0.7362(7) 0.2499(5) 0.6697(5)
H18_2 H 0.7695 0.2917 0.7006
C27_2 C 0.8089(6) 0.2119(5) 0.6213(4)
C28_2 C 0.7585(7) 0.1492(7) 0.5766(4)
H19_2 H 0.8054 0.1227 0.5444
C29_2 C 0.6383(7) 0.1262(6) 0.5797(4)
H20_2 H 0.6042 0.0837 0.5499
C30_2 C 0.9400(7) 0.2394(7) 0.6194(5)
H21_2 H 0.9663 0.2258 0.5719
H22_2 H 0.9455 0.2987 0.6257
N1_4 N 0.3088(4) 0.4067(3) 0.3940(2)
N2_4 N 0.2589(4) 0.2668(3) 0.4911(3)
N3_2 N 0.3531(5) 0.2000(4) 0.5860(3)
O3_4 O 0.6088(4) 0.7272(3) 0.2002(3)
N6_2 N 0.1308(4) 0.3219(3) 0.2857(3)
O5_2 O 0.0344(4) 0.3751(5) 0.4290(3)
O6_2 O 0.0073(5) 0.2480(5) 0.4059(3)
C31_3 C 0.0642(6) 0.2681(5) 0.2423(4)
H23_3 H 0.0500 0.2138 0.2551
C32_3 C 0.0616(7) 0.3822(6) 0.1789(4)
H24_3 H 0.0461 0.4207 0.1413
C33_3 C 0.1288(7) 0.3931(5) 0.2455(4)
H25_3 H 0.1677 0.4418 0.2613
N4_3 N 0.0216(5) 0.3021(4) 0.1792(3)
C31_4 C 0.9358(6) 0.7681(5) 0.2577(4)
H23_4 H 0.9500 0.7138 0.2449
C32_4 C 0.9384(7) 0.8822(6) 0.3211(4)
H24_4 H 0.9539 0.9207 0.3587
C33_4 C 0.8712(7) 0.8931(5) 0.2545(4)
H25_4 H 0.8323 0.9418 0.2387
N4_4 N 0.9784(5) 0.8021(4) 0.3208(3)
C13_3 C 0.6017(5) 0.1664(3) 0.9784(3)
H8_3 H 0.5217 0.1621 0.9899
C14_3 C 0.6336(6) 0.2297(4) 0.9313(4)
H9_3 H 0.5747 0.2671 0.9116
C15_3 C 0.7511(6) 0.2358(4) 0.9147(3)
H10_3 H 0.7723 0.2782 0.8844
C16_3 C 0.8378(5) 0.1802(4) 0.9421(3)
C17_3 C 0.8077(5) 0.1172(4) 0.9877(3)
C18_3 C 0.9696(7) 0.1847(7) 0.9250(4)
C20_3 C 0.6693(6) 0.7038(4) 0.9882(4)
C21_3 C 0.7083(6) 0.7644(6) 0.8867(4)
H13_3 H 0.7094 0.7781 0.8374
C22_3 C 0.7666(6) 0.8039(4) 0.9450(4)
H14_3 H 0.8170 0.8496 0.9424
C23_3 C 0.5657(7) 0.6389(6) 0.8722(5)
H15_3 H 0.5776 0.5850 0.8947
H16_3 H 0.5853 0.6354 0.8219
C24_3 C 0.4316(7) 0.6664(6) 0.8727(5)
C25_3 C 0.3817(7) 0.7271(5) 0.8278(5)
H17_3 H 0.4284 0.7530 0.7953
C26_3 C 0.2638(7) 0.7499(5) 0.8303(5)
H18_3 H 0.2305 0.7917 0.7994
C27_3 C 0.1911(6) 0.7119(5) 0.8787(4)
C28_3 C 0.2415(7) 0.6492(7) 0.9234(4)
H19_3 H 0.1946 0.6227 0.9556
C29_3 C 0.3617(7) 0.6262(6) 0.9203(4)
H20_3 H 0.3958 0.5837 0.9501
C30_3 C 0.0600(7) 0.7394(7) 0.8806(5)
H21_3 H 0.0337 0.7258 0.9281
H22_3 H 0.0545 0.7987 0.8743
N3_3 N 0.6469(5) 0.7000(4) 0.9140(3)
C20_4 C 0.3307(6) 0.2962(4) 0.0118(4)
C21_4 C 0.2917(6) 0.2356(6) 0.1133(4)
H13_4 H 0.2906 0.2219 0.1626
C22_4 C 0.2334(6) 0.1961(4) 0.0550(4)
H14_4 H 0.1830 0.1504 0.0576
C23_4 C 0.4343(7) 0.3611(6) 0.1278(5)
H15_4 H 0.4224 0.4150 0.1053
H16_4 H 0.4147 0.3646 0.1781
C24_4 C 0.5684(7) 0.3336(6) 0.1273(5)
C25_4 C 0.6183(7) 0.2729(5) 0.1722(5)
H17_4 H 0.5716 0.2470 0.2047
C26_4 C 0.7362(7) 0.2501(5) 0.1697(5)
H18_4 H 0.7695 0.2083 0.2006
C27_4 C 0.8089(6) 0.2881(5) 0.1213(4)
C28_4 C 0.7585(7) 0.3508(7) 0.0766(4)
H19_4 H 0.8054 0.3773 0.0444
C29_4 C 0.6383(7) 0.3738(6) 0.0797(4)
H20_4 H 0.6042 0.4163 0.0499
C30_4 C 0.9400(7) 0.2606(7) 0.1194(5)
H21_4 H 0.9663 0.2742 0.0719
H22_4 H 0.9455 0.2013 0.1257
N3_4 N 0.3531(5) 0.3000(4) 0.0860(3)
C13_4 C 0.3983(5) 0.8336(3) 0.0216(3)
H8_4 H 0.4783 0.8379 0.0101
C14_4 C 0.3664(6) 0.7703(4) 0.0687(4)
H9_4 H 0.4253 0.7329 0.0884
C15_4 C 0.2489(6) 0.7642(4) 0.0853(3)
H10_4 H 0.2277 0.7218 0.1156
C16_4 C 0.1622(5) 0.8198(4) 0.0579(3)
C17_4 C 0.1923(5) 0.8828(4) 0.0123(3)
C18_4 C 0.0304(7) 0.8153(7) 0.0750(4)
loop_
_geom_bond_atom_site_label_1
_geom_bond_atom_site_label_2
_geom_bond_site_symmetry_1
_geom_bond_site_symmetry_2
Cu3 O1 1_555 1_555
O2 Cu3 1_555 1_555
C31 H23 1_555 1_555
C32 H24 1_555 1_555
C33 C32 1_555 1_555
H25 C33 1_555 1_555
N5 C31 1_555 1_555
Cu4 N5 1_555 1_555
C31 N4 1_555 1_555
C32 N4 1_555 1_555
C33 N5 1_555 1_555
C31_2 H23_2 1_555 1_555
C32_2 H24_2 1_555 1_555
C33_2 C32_2 1_555 1_555
H25_2 C33_2 1_555 1_555
N5_2 C31_2 1_555 1_555
Cu3 N5_2 1_555 1_555
C31_2 N4_2 1_555 1_555
C32_2 N4_2 1_555 1_555
C33_2 N5_2 1_555 1_555
Cu4 O1_2 1_555 1_555
O2_2 Cu4 1_555 1_555
C1 H1 1_555 1_555
C5 C4 1_555 1_555
H3 C5 1_555 1_555
H4 C7 1_555 1_555
C8 C7 1_555 1_555
H5 C8 1_555 1_555
Cu3 N1 1_555 1_555
N1 C1 1_555 1_555
O7 Cu3 1_555 1_555
C5 N1 1_555 1_555
Cu3 N2 1_555 1_555
C3 C2 1_555 1_555
H2 C3 1_555 1_555
H6 C9 1_555 1_555
C10 C9 1_555 1_555
C11 C6 1_555 1_555
H7 C11 1_555 1_555
C12 C2 1_555 1_555
C19 C10 1_555 1_555
O3 C19 1_555 1_555
O4 C19 1_555 1_555
Cu4 O4 1_555 1_555
C10 C11 1_555 1_555
C1_2 H1_2 1_555 1_555
C2_2 C1_2 1_555 1_555
C3_2 C2_2 1_555 1_555
H2_2 C3_2 1_555 1_555
C4_2 C3_2 1_555 1_555
C5_2 C4_2 1_555 1_555
H3_2 C5_2 1_555 1_555
C6_2 C4_2 1_555 1_555
C7_2 C6_2 1_555 1_555
H4_2 C7_2 1_555 1_555
C8_2 C7_2 1_555 1_555
H5_2 C8_2 1_555 1_555
C9_2 C8_2 1_555 1_555
H6_2 C9_2 1_555 1_555
C10_2 C9_2 1_555 1_555
C11_2 C6_2 1_555 1_555
H7_2 C11_2 1_555 1_555
C12_2 C2_2 1_555 1_555
C13 C12_2 1_555 1_555
H8 C13 1_555 1_555
C14 C13 1_555 1_555
H9 C14 1_555 1_555
C15 C14 1_555 1_555
H10 C15 1_555 1_555
C16 C15 1_555 1_555
C17 C12_2 1_555 1_555
H11_2 C17 1_555 1_555
C18 C16 1_555 1_555
C19_2 C10_2 1_555 1_555
C20 H12_2 1_555 1_555
C21 H13 1_555 1_555
C22 C21 1_555 1_555
H14 C22 1_555 1_555
C23 H15 1_555 1_555
H16 C23 1_555 1_555
C24 C23 1_555 1_555
C25 C24 1_555 1_555
H17 C25 1_555 1_555
C26 C25 1_555 1_555
H18 C26 1_555 1_555
C27 C26 1_555 1_555
C28 C27 1_555 1_555
H19 C28 1_555 1_555
C29 C24 1_555 1_555
H20 C29 1_555 1_555
C30 C27 1_555 1_555
H21 C30 1_555 1_555
H22 C30 1_555 1_555
Cu4 N1_2 1_555 1_555
N1_2 C1_2 1_555 1_555
N2_2 C20 1_555 1_555
N3 C20 1_555 1_555
O3_2 C19_2 1_555 1_555
O7 C19_2 1_555 1_555
C5_2 N1_2 1_555 1_555
C10_2 C11_2 1_555 1_555
C16 C17 1_555 1_555
C21 N3 1_555 1_555
C22 N2_2 1_555 1_555
C23 N3 1_555 1_555
C28 C29 1_555 1_555
Cu4 N2_2 1_555 1_555
C3_3 C2_3 1_555 1_555
H2_3 C3_3 1_555 1_555
H6_3 C9_3 1_555 1_555
C10_3 C9_3 1_555 1_555
C11_3 C6_3 1_555 1_555
H7_3 C11_3 1_555 1_555
C12_3 C2_3 1_555 1_555
C19_3 C10_3 1_555 1_555
O3_3 C19_3 1_555 1_555
O4_2 C19_3 1_555 1_555
Cu2 O4_2 1_555 1_555
C10_3 C11_3 1_555 1_555
C1_3 H1_3 1_555 1_555
C5_3 C4_3 1_555 1_555
H3_3 C5_3 1_555 1_555
H4_3 C7_3 1_555 1_555
C8_3 C7_3 1_555 1_555
H5_3 C8_3 1_555 1_555
Cu1 N1_3 1_555 1_555
N1_3 C1_3 1_555 1_555
N6 Cu1 1_555 1_555
O5 Cu1 1_555 1_555
O6 Cu1 1_555 1_555
O7_2 Cu1 1_555 1_555
C5_3 N1_3 1_555 1_555
Cu1 N2_3 1_555 1_555
C1_4 H1_4 1_555 1_555
C2_4 C1_4 1_555 1_555
C3_4 C2_4 1_555 1_555
H2_4 C3_4 1_555 1_555
C4_4 C3_4 1_555 1_555
C5_4 C4_4 1_555 1_555
H3_4 C5_4 1_555 1_555
C6_4 C4_4 1_555 1_555
C7_4 C6_4 1_555 1_555
H4_4 C7_4 1_555 1_555
C8_4 C7_4 1_555 1_555
H5_4 C8_4 1_555 1_555
C9_4 C8_4 1_555 1_555
H6_4 C9_4 1_555 1_555
C10_4 C9_4 1_555 1_555
C11_4 C6_4 1_555 1_555
H7_4 C11_4 1_555 1_555
C12_4 C2_4 1_555 1_555
C13_2 C12_4 1_555 1_555
H8_2 C13_2 1_555 1_555
C14_2 C13_2 1_555 1_555
H9_2 C14_2 1_555 1_555
C15_2 C14_2 1_555 1_555
H10_2 C15_2 1_555 1_555
C16_2 C15_2 1_555 1_555
C17_2 C12_4 1_555 1_555
H11_4 C17_2 1_555 1_555
C18_2 C16_2 1_555 1_555
C19_4 C10_4 1_555 1_555
C20_2 H12_4 1_555 1_555
C21_2 H13_2 1_555 1_555
C22_2 C21_2 1_555 1_555
H14_2 C22_2 1_555 1_555
C23_2 H15_2 1_555 1_555
H16_2 C23_2 1_555 1_555
C24_2 C23_2 1_555 1_555
C25_2 C24_2 1_555 1_555
H17_2 C25_2 1_555 1_555
C26_2 C25_2 1_555 1_555
H18_2 C26_2 1_555 1_555
C27_2 C26_2 1_555 1_555
C28_2 C27_2 1_555 1_555
H19_2 C28_2 1_555 1_555
C29_2 C24_2 1_555 1_555
H20_2 C29_2 1_555 1_555
C30_2 C27_2 1_555 1_555
H21_2 C30_2 1_555 1_555
H22_2 C30_2 1_555 1_555
Cu2 N1_4 1_555 1_555
N1_4 C1_4 1_555 1_555
N2_4 C20_2 1_555 1_555
N3_2 C20_2 1_555 1_555
O3_4 C19_4 1_555 1_555
O7_2 C19_4 1_555 1_555
N6_2 Cu2 1_555 1_555
O5_2 Cu2 1_555 1_555
O6_2 Cu2 1_555 1_555
C5_4 N1_4 1_555 1_555
C10_4 C11_4 1_555 1_555
C16_2 C17_2 1_555 1_555
C21_2 N3_2 1_555 1_555
C22_2 N2_4 1_555 1_555
C23_2 N3_2 1_555 1_555
C28_2 C29_2 1_555 1_555
Cu2 N2_4 1_555 1_555
C31_3 H23_3 1_555 1_555
C32_3 H24_3 1_555 1_555
C33_3 C32_3 1_555 1_555
H25_3 C33_3 1_555 1_555
N6_2 C31_3 1_555 1_555
C31_3 N4_3 1_555 1_555
C32_3 N4_3 1_555 1_555
C33_3 N6_2 1_555 1_555
C31_4 H23_4 1_555 1_555
C32_4 H24_4 1_555 1_555
C33_4 C32_4 1_555 1_555
H25_4 C33_4 1_555 1_555
N6 C31_4 1_555 1_555
C31_4 N4_4 1_555 1_555
C32_4 N4_4 1_555 1_555
C33_4 N6 1_555 1_555
H8_3 C13_3 1_555 1_555
C14_3 C13_3 1_555 1_555
H9_3 C14_3 1_555 1_555
C15_3 C14_3 1_555 1_555
H10_3 C15_3 1_555 1_555
C16_3 C15_3 1_555 1_555
C18_3 C16_3 1_555 1_555
C16_3 C17_3 1_555 1_555
C21_3 H13_3 1_555 1_555
C22_3 C21_3 1_555 1_555
H14_3 C22_3 1_555 1_555
C23_3 H15_3 1_555 1_555
H16_3 C23_3 1_555 1_555
C24_3 C23_3 1_555 1_555
C25_3 C24_3 1_555 1_555
H17_3 C25_3 1_555 1_555
C26_3 C25_3 1_555 1_555
H18_3 C26_3 1_555 1_555
C27_3 C26_3 1_555 1_555
C28_3 C27_3 1_555 1_555
H19_3 C28_3 1_555 1_555
C29_3 C24_3 1_555 1_555
H20_3 C29_3 1_555 1_555
C30_3 C27_3 1_555 1_555
H21_3 C30_3 1_555 1_555
H22_3 C30_3 1_555 1_555
N3_3 C20_3 1_555 1_555
C21_3 N3_3 1_555 1_555
C23_3 N3_3 1_555 1_555
C28_3 C29_3 1_555 1_555
C21_4 H13_4 1_555 1_555
C22_4 C21_4 1_555 1_555
H14_4 C22_4 1_555 1_555
C23_4 H15_4 1_555 1_555
H16_4 C23_4 1_555 1_555
C24_4 C23_4 1_555 1_555
C25_4 C24_4 1_555 1_555
H17_4 C25_4 1_555 1_555
C26_4 C25_4 1_555 1_555
H18_4 C26_4 1_555 1_555
C27_4 C26_4 1_555 1_555
C28_4 C27_4 1_555 1_555
H19_4 C28_4 1_555 1_555
C29_4 C24_4 1_555 1_555
H20_4 C29_4 1_555 1_555
C30_4 C27_4 1_555 1_555
H21_4 C30_4 1_555 1_555
H22_4 C30_4 1_555 1_555
N3_4 C20_4 1_555 1_555
C21_4 N3_4 1_555 1_555
C23_4 N3_4 1_555 1_555
C28_4 C29_4 1_555 1_555
H8_4 C13_4 1_555 1_555
C14_4 C13_4 1_555 1_555
H9_4 C14_4 1_555 1_555
C15_4 C14_4 1_555 1_555
H10_4 C15_4 1_555 1_555
C16_4 C15_4 1_555 1_555
C18_4 C16_4 1_555 1_555
C16_4 C17_4 1_555 1_555

#END
