
###############################################################################
#
# This file contains modified crystal structure data generated from the
# MOF subset of the Cambridge Structural Database (CSD) v543 
# hosted by the Cambridge Crystallographic Data Centre (CCDC).
#
# This work is licensed under the Creative Commons
# Attribution-NonCommercial-ShareAlike 4.0 International License.
# To view a copy of this license, visit
# http://creativecommons.org/licenses/by-nc-sa/4.0/
# or send a letter to
# Creative Commons, PO Box 1866, Mountain View, CA 94042, USA.
#
# CIF created using the CSD Python API on 29 September 2022
# The structure has been converted into the P1 space group
# The structure has a 3D framework
# The original CSD entry KIXBOL is in the orthorhombic crystal system
# The framework has been calculated to contain at least 10.0% void space
# The void calculation uses a probe of radius 1.32A, grid spacing 0.4
#
###############################################################################

data_KIXBOL
_chemical_formula_moiety         '(C48 H24 Cl4 In4 N8 O12)n'
_symmetry_cell_setting           triclinic
_symmetry_space_group_name_H-M   'P 1'
_symmetry_Int_Tables_number      1
_space_group_name_Hall           'P 1'
loop_
_symmetry_equiv_pos_site_id
_symmetry_equiv_pos_as_xyz
1 x,y,z
_cell_length_a                   18.1985(14)
_cell_length_b                   9.2613(7)
_cell_length_c                   10.7817(8)
_cell_angle_alpha                90
_cell_angle_beta                 90
_cell_angle_gamma                90
_cell_volume                     1817.17
loop_
_atom_site_label
_atom_site_type_symbol
_atom_site_fract_x
_atom_site_fract_y
_atom_site_fract_z
O1 O 0.0821(4) 0.6592(7) 0.7496(5)
O2 O 0.0767(4) 0.4669(7) 0.6321(7)
C3 C 0.0554(5) 0.5922(10) 0.6593(8)
H2 H 0.0104 0.8676 0.6444
In2 In 0.16262(2) 0.47986(5) 0.78959(10)
O4 O 0.7486(4) 0.1008(8) 0.9470(6)
In3 In 0.66262(2) 0.02014(5) 0.78959(10)
In1 In 0.83738(2) 0.52014(5) 0.28959(10)
Cl1 Cl 0.74165(14) 0.4346(3) 0.1535(2)
N1 N 0.9144(3) 0.6459(8) 0.4119(6)
N2 N 0.8231(4) 0.7543(7) 0.2427(6)
C1 C 0.9609(4) 0.5850(9) 0.4915(7)
H1 H 0.9678 0.4855 0.4885
C2 C 0.9997(5) 0.6648(10) 0.5787(8)
C4 C 0.9871(5) 0.8123(10) 0.5841(9)
C5 C 0.9406(6) 0.8774(10) 0.5009(9)
H3 H 0.9328 0.9766 0.5032
C6 C 0.9054(4) 0.7924(10) 0.4134(7)
C7 C 0.8586(4) 0.8511(9) 0.3136(6)
C8 C 0.8527(6) 0.9985(8) 0.292(2)
C10 C 0.7778(5) 0.9427(10) 0.1123(7)
C12 C 0.7833(4) 0.7982(9) 0.1446(7)
H6 H 0.7587 0.7297 0.0971
O5 O 0.9179(4) 0.3408(7) 0.2496(5)
O6 O 0.9233(4) 0.5331(7) 0.1321(7)
O7 O 0.8068(4) 0.3912(7) 0.4524(6)
O8 O 0.7514(4) 0.6008(8) 0.4470(6)
Cl1_2 Cl 0.25835(14) 0.5654(3) 0.6535(2)
O3 O 0.3068(4) 0.1088(7) 0.4524(6)
N1_2 N 0.0856(3) 0.3541(8) 0.9119(6)
N2_2 N 0.1769(4) 0.2457(7) 0.7427(6)
C1_2 C 0.0391(4) 0.4150(9) 0.9915(7)
H1_2 H 0.0322 0.5145 0.9885
C6_2 C 0.0946(4) 0.2076(10) 0.9134(7)
C7_2 C 0.1414(4) 0.1489(9) 0.8136(6)
C8_2 C 0.1473(6) 0.0015(8) 0.792(2)
C10_2 C 0.2222(5) 0.0573(10) 0.6123(7)
C11 C 0.2635(5) 0.0178(10) 0.4981(8)
C12_2 C 0.2167(4) 0.2018(9) 0.6446(7)
H6_2 H 0.2413 0.2703 0.5971
O7_2 O 0.1932(4) 0.6088(7) 0.9524(6)
O8_2 O 0.2486(4) 0.3992(8) 0.9470(6)
C3_2 C 0.9446(5) 0.4078(10) 0.1593(8)
H2_2 H 0.9896 0.1324 0.1444
Cl1_3 Cl 0.24165(14) 0.0654(3) 0.1535(2)
O2_2 O 0.5767(4) 0.0331(7) 0.6321(7)
H1_3 H 0.4678 0.0145 0.4885
O5_2 O 0.4179(4) 0.1592(7) 0.2496(5)
C11_2 C 0.2365(5) 0.5178(10) 0.9981(8)
C2_2 C 0.5003(5) 0.1648(10) 0.0787(8)
C3_3 C 0.4446(5) 0.0922(10) 0.1593(8)
C4_2 C 0.5129(5) 0.3123(10) 0.0841(9)
H2_3 H 0.4896 0.3676 0.1444
C5_2 C 0.5594(6) 0.3774(10) 0.0009(9)
H3_2 H 0.5672 0.4766 0.0032
N1_3 N 0.5856(3) 0.1459(8) 0.9119(6)
N2_3 N 0.6769(4) 0.2543(7) 0.7427(6)
C1_3 C 0.5391(4) 0.0850(9) 0.9915(7)
C6_3 C 0.5946(4) 0.2924(10) 0.9134(7)
C7_3 C 0.6414(4) 0.3511(9) 0.8136(6)
C8_3 C 0.6473(6) 0.4985(8) 0.792(2)
H4 H 0.6262 0.5648 0.8466
C9 C 0.6858(6) 0.5446(10) 0.6872(10)
H5 H 0.6874 0.6421 0.6669
C10_3 C 0.7222(5) 0.4427(10) 0.6123(7)
C11_3 C 0.7635(5) 0.4822(10) 0.4981(8)
C12_3 C 0.7167(4) 0.2982(9) 0.6446(7)
H6_3 H 0.7413 0.2297 0.5971
H4_2 H 0.8738 0.0648 0.3466
C9_2 C 0.8142(6) 0.0446(10) 0.1872(10)
H5_2 H 0.8126 0.1421 0.1669
O3_2 O 0.6932(4) 0.8912(7) 0.9524(6)
C11_4 C 0.7365(5) 0.9822(10) 0.9981(8)
O4_2 O 0.2514(4) 0.8992(8) 0.4470(6)
H4_3 H 0.1262 0.9352 0.8466
C9_3 C 0.1858(6) 0.9554(10) 0.6872(10)
H5_3 H 0.1874 0.8579 0.6669
In3_2 In 0.33738(2) 0.97986(5) 0.28959(10)
O1_2 O 0.5821(4) 0.8408(7) 0.7496(5)
N1_4 N 0.4144(3) 0.8541(8) 0.4119(6)
N2_4 N 0.3231(4) 0.7457(7) 0.2427(6)
C1_4 C 0.4609(4) 0.9150(9) 0.4915(7)
C2_3 C 0.4997(5) 0.8352(10) 0.5787(8)
C3_4 C 0.5554(5) 0.9078(10) 0.6593(8)
C4_3 C 0.4871(5) 0.6877(10) 0.5841(9)
H2_4 H 0.5104 0.6324 0.6444
C5_3 C 0.4406(6) 0.6226(10) 0.5009(9)
H3_3 H 0.4328 0.5234 0.5032
C6_4 C 0.4054(4) 0.7076(10) 0.4134(7)
C7_4 C 0.3586(4) 0.6489(9) 0.3136(6)
C8_4 C 0.3527(6) 0.5015(8) 0.292(2)
H4_4 H 0.3738 0.4352 0.3466
C9_4 C 0.3142(6) 0.4554(10) 0.1872(10)
H5_4 H 0.3126 0.3579 0.1669
C10_4 C 0.2778(5) 0.5573(10) 0.1123(7)
C12_4 C 0.2833(4) 0.7018(9) 0.1446(7)
H6_4 H 0.2587 0.7703 0.0971
O6_2 O 0.4233(4) 0.9669(7) 0.1321(7)
Cl1_4 Cl 0.75835(14) 0.9346(3) 0.6535(2)
H1_4 H 0.5322 0.9855 0.9885
C2_4 C 0.0003(5) 0.3352(10) 0.0787(8)
C4_4 C 0.0129(5) 0.1877(10) 0.0841(9)
C5_4 C 0.0594(6) 0.1226(10) 0.0009(9)
H3_4 H 0.0672 0.0234 0.0032
loop_
_geom_bond_atom_site_label_1
_geom_bond_atom_site_label_2
_geom_bond_site_symmetry_1
_geom_bond_site_symmetry_2
O1 C3 1_555 1_555
O2 C3 1_555 1_555
In2 O1 1_555 1_555
O2 In2 1_555 1_555
O4 In3 1_555 1_555
In1 Cl1 1_555 1_555
N1 In1 1_555 1_555
N2 In1 1_555 1_555
C1 N1 1_555 1_555
H1 C1 1_555 1_555
C2 C1 1_555 1_555
C4 C2 1_555 1_555
C5 C4 1_555 1_555
H3 C5 1_555 1_555
C6 N1 1_555 1_555
C7 N2 1_555 1_555
C8 C7 1_555 1_555
C12 N2 1_555 1_555
H6 C12 1_555 1_555
O5 In1 1_555 1_555
O6 In1 1_555 1_555
O7 In1 1_555 1_555
O8 In1 1_555 1_555
C5 C6 1_555 1_555
C6 C7 1_555 1_555
C10 C12 1_555 1_555
In2 Cl1_2 1_555 1_555
O3 C11 1_555 1_555
N1_2 In2 1_555 1_555
N2_2 In2 1_555 1_555
C1_2 N1_2 1_555 1_555
H1_2 C1_2 1_555 1_555
C6_2 N1_2 1_555 1_555
C7_2 N2_2 1_555 1_555
C8_2 C7_2 1_555 1_555
C11 C10_2 1_555 1_555
C12_2 N2_2 1_555 1_555
H6_2 C12_2 1_555 1_555
O7_2 In2 1_555 1_555
O8_2 In2 1_555 1_555
C6_2 C7_2 1_555 1_555
C10_2 C12_2 1_555 1_555
O5 C3_2 1_555 1_555
O6 C3_2 1_555 1_555
O2_2 In3 1_555 1_555
O7_2 C11_2 1_555 1_555
O8_2 C11_2 1_555 1_555
O5_2 C3_3 1_555 1_555
C3_3 C2_2 1_555 1_555
C4_2 C2_2 1_555 1_555
H2_3 C4_2 1_555 1_555
C5_2 C4_2 1_555 1_555
H3_2 C5_2 1_555 1_555
O7 C11_3 1_555 1_555
O8 C11_3 1_555 1_555
N1_3 In3 1_555 1_555
N2_3 In3 1_555 1_555
C1_3 N1_3 1_555 1_555
C6_3 N1_3 1_555 1_555
C7_3 N2_3 1_555 1_555
C8_3 C7_3 1_555 1_555
H4 C8_3 1_555 1_555
C9 C8_3 1_555 1_555
H5 C9 1_555 1_555
C10_3 C9 1_555 1_555
C11_3 C10_3 1_555 1_555
C12_3 N2_3 1_555 1_555
H6_3 C12_3 1_555 1_555
C6_3 C7_3 1_555 1_555
C10_3 C12_3 1_555 1_555
H5_2 C9_2 1_555 1_555
O3_2 C11_4 1_555 1_555
H5_3 C9_3 1_555 1_555
O4_2 In3_2 1_555 1_555
O1_2 C3_4 1_555 1_555
N1_4 In3_2 1_555 1_555
N2_4 In3_2 1_555 1_555
C1_4 N1_4 1_555 1_555
C2_3 C1_4 1_555 1_555
C3_4 C2_3 1_555 1_555
C4_3 C2_3 1_555 1_555
H2_4 C4_3 1_555 1_555
C5_3 C4_3 1_555 1_555
H3_3 C5_3 1_555 1_555
C6_4 N1_4 1_555 1_555
C7_4 N2_4 1_555 1_555
C8_4 C7_4 1_555 1_555
H4_4 C8_4 1_555 1_555
C9_4 C8_4 1_555 1_555
H5_4 C9_4 1_555 1_555
C10_4 C9_4 1_555 1_555
C12_4 N2_4 1_555 1_555
H6_4 C12_4 1_555 1_555
O6_2 In3_2 1_555 1_555
C5_3 C6_4 1_555 1_555
C6_4 C7_4 1_555 1_555
C10_4 C12_4 1_555 1_555
C4_4 C2_4 1_555 1_555
C5_4 C4_4 1_555 1_555
H3_4 C5_4 1_555 1_555

#END
