
###############################################################################
#
# This file contains modified crystal structure data generated from the
# MOF subset of the Cambridge Structural Database (CSD) v543 
# hosted by the Cambridge Crystallographic Data Centre (CCDC).
#
# This work is licensed under the Creative Commons
# Attribution-NonCommercial-ShareAlike 4.0 International License.
# To view a copy of this license, visit
# http://creativecommons.org/licenses/by-nc-sa/4.0/
# or send a letter to
# Creative Commons, PO Box 1866, Mountain View, CA 94042, USA.
#
# CIF created using the CSD Python API on 29 September 2022
# The structure has been converted into the P1 space group
# The structure has a 3D framework
# The original CSD entry KIYBIF is in the monoclinic crystal system
# The framework has been calculated to contain at least 10.0% void space
# The void calculation uses a probe of radius 1.32A, grid spacing 0.4
# H atom positions have been added when not included in the experimental data
# Generated hydrogen atom positions removed from atoms on special positions
#
###############################################################################

data_KIYBIF
_chemical_formula_moiety         '(C128 H120 Co14 N8 O52)n'
_symmetry_cell_setting           triclinic
_symmetry_space_group_name_H-M   'P 1'
_symmetry_Int_Tables_number      1
_space_group_name_Hall           'P 1'
loop_
_symmetry_equiv_pos_site_id
_symmetry_equiv_pos_as_xyz
1 x,y,z
_cell_length_a                   11.842(2)
_cell_length_b                   11.759(2)
_cell_length_c                   27.432(8)
_cell_angle_alpha                90
_cell_angle_beta                 102.48(3)
_cell_angle_gamma                90
_cell_volume                     3729.65
loop_
_atom_site_label
_atom_site_type_symbol
_atom_site_fract_x
_atom_site_fract_y
_atom_site_fract_z
Co15 Co -0.0000 -0.0000 0.5000
Co3 Co 0.0000 0.5000 0.0000
Co4 Co 0.30502(4) 0.63502(4) 0.018341(17)
O14 O 0.1330(2) 0.6181(2) 0.02483(8)
O15 O 0.3410(2) 0.6101(2) 0.09704(9)
O16 O 0.5329(2) 0.6164(3) 0.11908(10)
O17 O 0.7951(2) 0.3202(2) 0.40790(9)
O18 O 0.7075(2) 0.3109(2) 0.47295(9)
O19 O 0.1398(3) 0.4874(2) 0.12289(9)
O20 O 0.0702(2) 0.3774(2) 0.05690(9)
O21 O 0.1083(2) 0.0855(2) 0.45733(9)
O22 O 0.0026(2) 0.1911(3) 0.39602(10)
O23 O 0.3211(2) 0.4568(2) 0.01092(10)
O24 O 0.4886(2) 0.6530(2) 0.02400(10)
O25 O 0.7119(3) 0.5394(2) 0.38915(10)
O26 O 0.1895(3) 0.2599(3) 0.36290(10)
N3 N 0.2072(3) 0.6903(3) 0.18249(11)
N4 N 0.2790(3) 0.8337(3) 0.43971(11)
C33 C 0.4373(3) 0.5940(3) 0.12836(13)
C34 C 0.4299(4) 0.5458(4) 0.17738(14)
H25 H 0.3650 0.5036 0.1799
C35 C 0.5129(4) 0.5608(4) 0.21775(14)
H26 H 0.5779 0.6009 0.2136
C36 C 0.5128(3) 0.5204(4) 0.26855(14)
C37 C 0.6049(3) 0.5502(4) 0.30727(14)
H27 H 0.6616 0.5993 0.3009
C38 C 0.6135(3) 0.5084(3) 0.35492(14)
C39 C 0.5279(4) 0.4380(4) 0.36576(15)
H28 H 0.5321 0.4115 0.3980
C40 C 0.4359(4) 0.4084(5) 0.32718(17)
H29 H 0.3783 0.3609 0.3339
C41 C 0.4281(4) 0.4477(5) 0.27927(16)
H30 H 0.3662 0.4258 0.2540
C42 C 0.7263(4) 0.4906(4) 0.43791(14)
H31 H 0.7923 0.5261 0.4597
H32 H 0.6584 0.5078 0.4510
C43 C 0.7443(3) 0.3633(3) 0.43924(13)
C44 C 0.1084(3) 0.3941(3) 0.10318(14)
C45 C 0.1141(4) 0.2961(4) 0.13833(15)
H33 H 0.1032 0.2225 0.1258
C46 C 0.1342(4) 0.3130(4) 0.18682(14)
H34 H 0.1482 0.3883 0.1966
C47 C 0.1383(3) 0.2319(4) 0.22819(15)
C48 C 0.1582(3) 0.2751(4) 0.27638(14)
H35 H 0.1662 0.3533 0.2811
C49 C 0.1666(3) 0.2050(4) 0.31764(15)
C50 C 0.1524(4) 0.0891(4) 0.31097(16)
H36 H 0.1578 0.0411 0.3383
C51 C 0.1300(4) 0.0455(4) 0.26311(17)
C52 C 0.1232(4) 0.1146(4) 0.22139(16)
H38 H 0.1089 0.0833 0.1895
C53 C 0.2072(4) 0.1934(4) 0.40733(15)
H39 H 0.2543 0.1280 0.4034
H40 H 0.2500 0.2384 0.4348
C54 C 0.0947(3) 0.1516(3) 0.42079(13)
C55 C 0.2886(3) 0.7631(3) 0.20459(14)
H41 H 0.3335 0.7986 0.1851
C56 C 0.3100(4) 0.7888(4) 0.25497(14)
H42 H 0.3687 0.8394 0.2685
C57 C 0.2441(3) 0.7394(3) 0.28528(13)
C58 C 0.1613(4) 0.6618(4) 0.26240(14)
H43 H 0.1160 0.6242 0.2811
C59 C 0.1460(3) 0.6400(4) 0.21211(14)
H44 H 0.0898 0.5874 0.1979
C60 C 0.2585(3) 0.7703(3) 0.33885(13)
C61 C 0.3393(4) 0.8469(4) 0.36250(15)
H45 H 0.3897 0.8803 0.3450
C62 C 0.3470(4) 0.8749(4) 0.41174(15)
H46 H 0.4040 0.9264 0.4263
C63 C 0.1995(4) 0.7612(5) 0.41693(16)
H47 H 0.1496 0.7301 0.4352
C64 C 0.1863(4) 0.7292(5) 0.36788(16)
H48 H 0.1276 0.6788 0.3540
Co5 Co 0.16901(4) 0.64869(4) 0.103024(17)
Co7 Co 0.30502(4) 0.86498(4) 0.518341(17)
Co9 Co 0.69498(4) 0.13502(4) 0.481659(17)
O28 O 0.2049(2) 0.8202(2) 0.09210(9)
O30 O 0.2925(2) 0.8109(2) 0.02705(9)
Co13 Co 0.83099(4) 0.14869(4) 0.396976(17)
H54 H 0.400439 0.438373 0.00693301
H55 H 0.529593 0.587619 0.0428682
Co3_2 Co 0.0000 0.5000 1.0000
O31 O 0.1083(2) 0.4145(2) 0.95733(9)
O33 O 0.0026(2) 0.3089(3) 0.89602(10)
N5 N 0.2790(3) 0.6663(3) 0.93971(11)
Co11 Co 0.16901(4) 0.85131(4) 0.603024(17)
Co15_2 Co -0.0000 1.0000 0.5000
H53 H 0.263923 0.430023 0.981136
H56 H 0.505007 0.654818 0.990007
H37 H 0.1192 0.9675 0.2586
H13 H 0.8808 0.0325 0.7414
Co15_3 Co 1.0000 -0.0000 0.5000
Co3_3 Co 1.0000 0.5000 0.0000
O32 O 0.8917(2) 0.5855(2) 0.04267(9)
O34 O 0.9974(2) 0.6911(3) 0.10398(10)
N6 N 0.7210(3) 0.3337(3) 0.06029(11)
H52 H 0.494993 0.345182 0.0099929
Co1 Co 0.69498(4) 0.36498(4) 0.981659(17)
O1 O 0.8670(2) 0.3819(2) 0.97517(8)
O2 O 0.6590(2) 0.3899(2) 0.90296(9)
O3 O 0.4671(2) 0.3836(3) 0.88092(10)
O4 O 0.2049(2) 0.6798(2) 0.59210(9)
O5 O 0.2925(2) 0.6891(2) 0.52705(9)
O6 O 0.8602(3) 0.5126(2) 0.87711(9)
O7 O 0.9298(2) 0.6226(2) 0.94310(9)
O8 O 0.8917(2) 0.9145(2) 0.54267(9)
O9 O 0.9974(2) 0.8089(3) 0.60398(10)
O10 O 0.6789(2) 0.5432(2) 0.98908(10)
O11 O 0.5114(2) 0.3470(2) 0.97600(10)
O12 O 0.2881(3) 0.4606(2) 0.61085(10)
O13 O 0.8105(3) 0.7401(3) 0.63710(10)
N1 N 0.7928(3) 0.3097(3) 0.81751(11)
N2 N 0.7210(3) 0.1663(3) 0.56029(11)
C1 C 0.5627(3) 0.4060(3) 0.87164(13)
C2 C 0.5701(4) 0.4542(4) 0.82262(14)
H1 H 0.6350 0.4964 0.8201
C3 C 0.4871(4) 0.4392(4) 0.78225(14)
H2 H 0.4221 0.3991 0.7864
C4 C 0.4872(3) 0.4796(4) 0.73145(14)
C5 C 0.3951(3) 0.4498(4) 0.69273(14)
H3 H 0.3384 0.4007 0.6991
C6 C 0.3865(3) 0.4916(3) 0.64508(14)
C7 C 0.4721(4) 0.5620(4) 0.63424(15)
H4 H 0.4679 0.5885 0.6020
C8 C 0.5641(4) 0.5916(5) 0.67282(17)
H5 H 0.6217 0.6391 0.6661
C9 C 0.5719(4) 0.5523(5) 0.72073(16)
H6 H 0.6338 0.5742 0.7460
C10 C 0.2737(4) 0.5094(4) 0.56209(14)
H7 H 0.2077 0.4739 0.5403
H8 H 0.3416 0.4922 0.5490
C11 C 0.2557(3) 0.6367(3) 0.56076(13)
C12 C 0.8916(3) 0.6059(3) 0.89682(14)
C13 C 0.8859(4) 0.7039(4) 0.86167(15)
H9 H 0.8968 0.7775 0.8742
C14 C 0.8658(4) 0.6870(4) 0.81318(14)
H10 H 0.8518 0.6117 0.8034
C15 C 0.8617(3) 0.7681(4) 0.77181(15)
C16 C 0.8418(3) 0.7249(4) 0.72362(14)
H11 H 0.8338 0.6467 0.7189
C17 C 0.8334(3) 0.7950(4) 0.68236(15)
C18 C 0.8476(4) 0.9109(4) 0.68903(16)
H12 H 0.8422 0.9589 0.6617
C19 C 0.8700(4) 0.9545(4) 0.73689(17)
C20 C 0.8768(4) 0.8854(4) 0.77861(16)
H14 H 0.8911 0.9167 0.8105
C21 C 0.7928(4) 0.8066(4) 0.59267(15)
H15 H 0.7457 0.8720 0.5966
H16 H 0.7500 0.7616 0.5652
C22 C 0.9053(3) 0.8484(3) 0.57921(13)
C23 C 0.7114(3) 0.2369(3) 0.79541(14)
H17 H 0.6665 0.2014 0.8149
C24 C 0.6900(4) 0.2112(4) 0.74503(14)
H18 H 0.6313 0.1606 0.7315
C25 C 0.7559(3) 0.2606(3) 0.71472(13)
C26 C 0.8387(4) 0.3382(4) 0.73760(14)
H19 H 0.8840 0.3758 0.7189
C27 C 0.8540(3) 0.3600(4) 0.78789(14)
H20 H 0.9102 0.4126 0.8021
C28 C 0.7415(3) 0.2297(3) 0.66115(13)
C29 C 0.6607(4) 0.1531(4) 0.63750(15)
H21 H 0.6103 0.1197 0.6550
C30 C 0.6530(4) 0.1251(4) 0.58826(15)
H22 H 0.5960 0.0736 0.5737
C31 C 0.8005(4) 0.2388(5) 0.58307(16)
H23 H 0.8504 0.2699 0.5648
C32 C 0.8137(4) 0.2708(5) 0.63212(16)
H24 H 0.8724 0.3212 0.6460
Co2 Co 0.83099(4) 0.35131(4) 0.896976(17)
Co3_4 Co 1.0000 0.5000 1.0000
O27 O 0.7951(2) 0.1798(2) 0.90790(9)
O29 O 0.7075(2) 0.1891(2) 0.97295(9)
Co15_4 Co 1.0000 1.0000 0.5000
H49 H 0.693524 0.581549 0.958788
H50 H 0.599561 0.561627 0.993067
H51 H 0.484254 0.275156 0.958269
O6_2 O 0.1398(3) 0.0126(2) 0.62289(9)
O7_2 O 0.0702(2) 0.1226(2) 0.55690(9)
O10_2 O 0.3211(2) 0.0432(2) 0.51092(10)
O13_2 O 0.1895(3) 0.2401(3) 0.86290(10)
C7_2 C 0.5279(4) 0.0620(4) 0.86576(15)
H4_2 H 0.5321 0.0885 0.8980
C8_2 C 0.4359(4) 0.0916(5) 0.82718(17)
H5_2 H 0.3783 0.1391 0.8339
C9_2 C 0.4281(4) 0.0523(5) 0.77927(16)
H6_2 H 0.3662 0.0742 0.7540
C10_2 C 0.7263(4) 0.0094(4) 0.93791(14)
C11_2 C 0.7443(3) 0.1367(3) 0.93924(13)
C12_2 C 0.1084(3) 0.1059(3) 0.60318(14)
C13_2 C 0.1141(4) 0.2039(4) 0.63833(15)
H9_2 H 0.1032 0.2775 0.6258
C14_2 C 0.1342(4) 0.1870(4) 0.68682(14)
H10_2 H 0.1482 0.1117 0.6966
C15_2 C 0.1383(3) 0.2681(4) 0.72819(15)
C16_2 C 0.1582(3) 0.2249(4) 0.77638(14)
H11_2 H 0.1662 0.1467 0.7811
C17_2 C 0.1666(3) 0.2950(4) 0.81764(15)
C18_2 C 0.1524(4) 0.4109(4) 0.81097(16)
H12_2 H 0.1578 0.4589 0.8383
C19_2 C 0.1300(4) 0.4545(4) 0.76311(17)
H13_2 H 0.1192 0.5325 0.7586
C20_2 C 0.1232(4) 0.3854(4) 0.72139(16)
H14_2 H 0.1089 0.4167 0.6895
C21_2 C 0.2072(4) 0.3066(4) 0.90733(15)
H15_2 H 0.2543 0.3720 0.9034
H16_2 H 0.2500 0.2616 0.9348
C22_2 C 0.0947(3) 0.3484(3) 0.92079(13)
O1_2 O 0.1330(2) 0.8819(2) 0.52483(8)
O2_2 O 0.3410(2) 0.8899(2) 0.59704(9)
O3_2 O 0.5329(2) 0.8836(3) 0.61908(10)
O11_2 O 0.4886(2) 0.8470(2) 0.52400(10)
O12_2 O 0.7119(3) 0.9606(2) 0.88915(10)
N1_2 N 0.2072(3) 0.8097(3) 0.68249(11)
C1_2 C 0.4373(3) 0.9060(3) 0.62836(13)
C2_2 C 0.4299(4) 0.9542(4) 0.67738(14)
H1_2 H 0.3650 0.9964 0.6799
C3_2 C 0.5129(4) 0.9392(4) 0.71775(14)
H2_2 H 0.5779 0.8991 0.7136
C4_2 C 0.5128(3) 0.9796(4) 0.76855(14)
C5_2 C 0.6049(3) 0.9498(4) 0.80727(14)
H3_2 H 0.6616 0.9007 0.8009
C6_2 C 0.6135(3) 0.9916(3) 0.85492(14)
H7_2 H 0.7923 0.9739 0.9597
H8_2 H 0.6584 0.9922 0.9510
C23_2 C 0.2886(3) 0.7369(3) 0.70459(14)
H17_2 H 0.3335 0.7014 0.6851
C24_2 C 0.3100(4) 0.7112(4) 0.75497(14)
H18_2 H 0.3687 0.6606 0.7685
C25_2 C 0.2441(3) 0.7606(3) 0.78528(13)
C26_2 C 0.1613(4) 0.8382(4) 0.76240(14)
H19_2 H 0.1160 0.8758 0.7811
C27_2 C 0.1460(3) 0.8600(4) 0.71211(14)
H20_2 H 0.0898 0.9126 0.6979
C28_2 C 0.2585(3) 0.7297(3) 0.83885(13)
C29_2 C 0.3393(4) 0.6531(4) 0.86250(15)
H21_2 H 0.3897 0.6197 0.8450
C30_2 C 0.3470(4) 0.6251(4) 0.91174(15)
H22_2 H 0.4040 0.5736 0.9263
C31_2 C 0.1995(4) 0.7388(5) 0.91693(16)
H23_2 H 0.1496 0.7699 0.9352
C32_2 C 0.1863(4) 0.7708(5) 0.86788(16)
H24_2 H 0.1276 0.8212 0.8540
O14_2 O 0.8670(2) 0.1181(2) 0.47517(8)
O15_2 O 0.6590(2) 0.1101(2) 0.40296(9)
O16_2 O 0.4671(2) 0.1164(3) 0.38092(10)
O24_2 O 0.5114(2) 0.1530(2) 0.47600(10)
O25_2 O 0.2881(3) 0.0394(2) 0.11085(10)
N3_2 N 0.7928(3) 0.1903(3) 0.31751(11)
C33_2 C 0.5627(3) 0.0940(3) 0.37164(13)
C34_2 C 0.5701(4) 0.0458(4) 0.32262(14)
H25_2 H 0.6350 0.0036 0.3201
C35_2 C 0.4871(4) 0.0608(4) 0.28225(14)
H26_2 H 0.4221 0.1009 0.2864
C36_2 C 0.4872(3) 0.0204(4) 0.23145(14)
C37_2 C 0.3951(3) 0.0502(4) 0.19273(14)
H27_2 H 0.3384 0.0993 0.1991
C38_2 C 0.3865(3) 0.0084(3) 0.14508(14)
H31_2 H 0.2077 0.0261 0.0403
H32_2 H 0.3416 0.0078 0.0490
C55_2 C 0.7114(3) 0.2631(3) 0.29541(14)
H41_2 H 0.6665 0.2986 0.3149
C56_2 C 0.6900(4) 0.2888(4) 0.24503(14)
H42_2 H 0.6313 0.3394 0.2315
C57_2 C 0.7559(3) 0.2394(3) 0.21472(13)
C58_2 C 0.8387(4) 0.1618(4) 0.23760(14)
H43_2 H 0.8840 0.1242 0.2189
C59_2 C 0.8540(3) 0.1400(4) 0.28789(14)
H44_2 H 0.9102 0.0874 0.3021
C60_2 C 0.7415(3) 0.2703(3) 0.16115(13)
C61_2 C 0.6607(4) 0.3469(4) 0.13750(15)
H45_2 H 0.6103 0.3803 0.1550
C62_2 C 0.6530(4) 0.3749(4) 0.08826(15)
H46_2 H 0.5960 0.4264 0.0737
C63_2 C 0.8005(4) 0.2612(5) 0.08307(16)
H47_2 H 0.8504 0.2301 0.0648
C64_2 C 0.8137(4) 0.2292(5) 0.13212(16)
H48_2 H 0.8724 0.1788 0.1460
O19_2 O 0.8602(3) 0.9874(2) 0.37711(9)
O20_2 O 0.9298(2) 0.8774(2) 0.44310(9)
O23_2 O 0.6789(2) 0.9568(2) 0.48908(10)
O26_2 O 0.8105(3) 0.7599(3) 0.13710(10)
C39_2 C 0.4721(4) 0.9380(4) 0.13424(15)
H28_2 H 0.4679 0.9115 0.1020
C40_2 C 0.5641(4) 0.9084(5) 0.17282(17)
H29_2 H 0.6217 0.8609 0.1661
C41_2 C 0.5719(4) 0.9477(5) 0.22073(16)
H30_2 H 0.6338 0.9258 0.2460
C42_2 C 0.2737(4) 0.9906(4) 0.06209(14)
C43_2 C 0.2557(3) 0.8633(3) 0.06076(13)
C44_2 C 0.8916(3) 0.8941(3) 0.39682(14)
C45_2 C 0.8859(4) 0.7961(4) 0.36167(15)
H33_2 H 0.8968 0.7225 0.3742
C46_2 C 0.8658(4) 0.8130(4) 0.31318(14)
H34_2 H 0.8518 0.8883 0.3034
C47_2 C 0.8617(3) 0.7319(4) 0.27181(15)
C48_2 C 0.8418(3) 0.7751(4) 0.22362(14)
H35_2 H 0.8338 0.8533 0.2189
C49_2 C 0.8334(3) 0.7050(4) 0.18236(15)
C50_2 C 0.8476(4) 0.5891(4) 0.18903(16)
H36_2 H 0.8422 0.5411 0.1617
C51_2 C 0.8700(4) 0.5455(4) 0.23689(17)
H37_2 H 0.8808 0.4675 0.2414
C52_2 C 0.8768(4) 0.6146(4) 0.27861(16)
H38_2 H 0.8911 0.5833 0.3105
C53_2 C 0.7928(4) 0.6934(4) 0.09267(15)
H39_2 H 0.7457 0.6280 0.0966
H40_2 H 0.7500 0.7384 0.0652
C54_2 C 0.9053(3) 0.6516(3) 0.07921(13)
H49_2 H 0.306476 0.418451 0.041212
H51_2 H 0.515746 0.724844 0.0417309
H53_2 H 0.736077 0.569977 0.0188641
H55_2 H 0.470407 0.412381 0.957132
loop_
_geom_bond_atom_site_label_1
_geom_bond_atom_site_label_2
_geom_bond_site_symmetry_1
_geom_bond_site_symmetry_2
Co4 O14 1_555 1_555
O14 Co3 1_555 1_555
O15 Co4 1_555 1_555
O16 C33 1_555 1_555
O17 C43 1_555 1_555
O18 C43 1_555 1_555
O19 C44 1_555 1_555
O20 Co3 1_555 1_555
O21 C54 1_555 1_555
O22 C54 1_555 1_555
O23 Co4 1_555 1_555
O24 Co4 1_555 1_555
O25 C38 1_555 1_555
O26 C49 1_555 1_555
N3 C55 1_555 1_555
N4 C62 1_555 1_555
C33 O15 1_555 1_555
C34 C33 1_555 1_555
H25 C34 1_555 1_555
C35 C34 1_555 1_555
H26 C35 1_555 1_555
C36 C35 1_555 1_555
C37 C36 1_555 1_555
H27 C37 1_555 1_555
C38 C37 1_555 1_555
C39 C38 1_555 1_555
H28 C39 1_555 1_555
C40 C39 1_555 1_555
H29 C40 1_555 1_555
C41 C36 1_555 1_555
H30 C41 1_555 1_555
C42 O25 1_555 1_555
H31 C42 1_555 1_555
H32 C42 1_555 1_555
C43 C42 1_555 1_555
C44 O20 1_555 1_555
C45 C44 1_555 1_555
H33 C45 1_555 1_555
C46 C45 1_555 1_555
H34 C46 1_555 1_555
C47 C46 1_555 1_555
C48 C47 1_555 1_555
H35 C48 1_555 1_555
C49 C48 1_555 1_555
C50 C49 1_555 1_555
H36 C50 1_555 1_555
C51 C50 1_555 1_555
C52 C47 1_555 1_555
H38 C52 1_555 1_555
C53 O26 1_555 1_555
H39 C53 1_555 1_555
H40 C53 1_555 1_555
C54 C53 1_555 1_555
C55 H41 1_555 1_555
C56 C55 1_555 1_555
H42 C56 1_555 1_555
C57 C56 1_555 1_555
C58 C57 1_555 1_555
H43 C58 1_555 1_555
C59 N3 1_555 1_555
H44 C59 1_555 1_555
C60 C57 1_555 1_555
C61 C60 1_555 1_555
H45 C61 1_555 1_555
C62 C61 1_555 1_555
H46 C62 1_555 1_555
C63 N4 1_555 1_555
H47 C63 1_555 1_555
C64 C60 1_555 1_555
H48 C64 1_555 1_555
Co5 O14 1_555 1_555
Co7 N4 1_555 1_555
Co9 O18 1_555 1_555
O28 Co5 1_555 1_555
O30 Co4 1_555 1_555
Co13 O17 1_555 1_555
Co15 O21 1_555 1_555
O15 Co5 1_555 1_555
O19 Co5 1_555 1_555
N3 Co5 1_555 1_555
C40 C41 1_555 1_555
C51 C52 1_555 1_555
C58 C59 1_555 1_555
C63 C64 1_555 1_555
O23 H54 1_555 1_555
O24 H55 1_555 1_555
O31 Co3_2 1_555 1_555
O32 Co3_3 1_555 1_555
Co1 O1 1_555 1_555
O1 Co2 1_555 1_555
O2 Co1 1_555 1_555
O3 C1 1_555 1_555
O4 C11 1_555 1_555
O5 C11 1_555 1_555
O6 C12 1_555 1_555
O7 C12 1_555 1_555
O8 C22 1_555 1_555
O9 C22 1_555 1_555
O10 Co1 1_555 1_555
O11 Co1 1_555 1_555
O12 C6 1_555 1_555
O13 C17 1_555 1_555
N1 C23 1_555 1_555
N2 C30 1_555 1_555
C1 O2 1_555 1_555
C2 C1 1_555 1_555
H1 C2 1_555 1_555
C3 C2 1_555 1_555
H2 C3 1_555 1_555
C4 C3 1_555 1_555
C5 C4 1_555 1_555
H3 C5 1_555 1_555
C6 C5 1_555 1_555
C7 C6 1_555 1_555
H4 C7 1_555 1_555
C8 C7 1_555 1_555
H5 C8 1_555 1_555
C9 C4 1_555 1_555
H6 C9 1_555 1_555
C10 O12 1_555 1_555
H7 C10 1_555 1_555
H8 C10 1_555 1_555
C11 C10 1_555 1_555
C12 C13 1_555 1_555
C13 H9 1_555 1_555
C14 C13 1_555 1_555
H10 C14 1_555 1_555
C15 C14 1_555 1_555
C16 C15 1_555 1_555
H11 C16 1_555 1_555
C17 C16 1_555 1_555
C18 C17 1_555 1_555
H12 C18 1_555 1_555
C19 C18 1_555 1_555
C20 C15 1_555 1_555
H14 C20 1_555 1_555
C21 O13 1_555 1_555
H15 C21 1_555 1_555
H16 C21 1_555 1_555
C22 C21 1_555 1_555
C23 H17 1_555 1_555
C24 C23 1_555 1_555
H18 C24 1_555 1_555
C25 C24 1_555 1_555
C26 C25 1_555 1_555
H19 C26 1_555 1_555
C27 N1 1_555 1_555
H20 C27 1_555 1_555
C28 C25 1_555 1_555
C29 C28 1_555 1_555
H21 C29 1_555 1_555
C30 C29 1_555 1_555
H22 C30 1_555 1_555
C31 N2 1_555 1_555
H23 C31 1_555 1_555
C32 C28 1_555 1_555
H24 C32 1_555 1_555
Co2 O2 1_555 1_555
Co3_4 O1 1_555 1_555
Co7 O5 1_555 1_555
Co9 N2 1_555 1_555
O27 Co2 1_555 1_555
O29 Co1 1_555 1_555
Co11 O4 1_555 1_555
Co15_4 O8 1_555 1_555
O6 Co2 1_555 1_555
O7 Co3_4 1_555 1_555
N1 Co2 1_555 1_555
C8 C9 1_555 1_555
C19 C20 1_555 1_555
C26 C27 1_555 1_555
C31 C32 1_555 1_555
O10 H49 1_555 1_555
O10 H50 1_555 1_555
O11 H51 1_555 1_555
O27 C11_2 1_555 1_555
O29 C11_2 1_555 1_555
O6_2 C12_2 1_555 1_555
O7_2 C12_2 1_555 1_555
O31 C22_2 1_555 1_555
O33 C22_2 1_555 1_555
O13_2 C17_2 1_555 1_555
H4_2 C7_2 1_555 1_555
C8_2 C7_2 1_555 1_555
H5_2 C8_2 1_555 1_555
H6_2 C9_2 1_555 1_555
C11_2 C10_2 1_555 1_555
C12_2 C13_2 1_555 1_555
C13_2 H9_2 1_555 1_555
C14_2 C13_2 1_555 1_555
H10_2 C14_2 1_555 1_555
C15_2 C14_2 1_555 1_555
C16_2 C15_2 1_555 1_555
H11_2 C16_2 1_555 1_555
C17_2 C16_2 1_555 1_555
C18_2 C17_2 1_555 1_555
H12_2 C18_2 1_555 1_555
C19_2 C18_2 1_555 1_555
H13_2 C19_2 1_555 1_555
C20_2 C15_2 1_555 1_555
H14_2 C20_2 1_555 1_555
C21_2 O13_2 1_555 1_555
H15_2 C21_2 1_555 1_555
H16_2 C21_2 1_555 1_555
C22_2 C21_2 1_555 1_555
O7_2 Co15 1_555 1_555
C8_2 C9_2 1_555 1_555
C19_2 C20_2 1_555 1_555
Co7 O1_2 1_555 1_555
O1_2 Co11 1_555 1_555
O2_2 Co7 1_555 1_555
O3_2 C1_2 1_555 1_555
O11_2 Co7 1_555 1_555
O12_2 C6_2 1_555 1_555
N1_2 C23_2 1_555 1_555
N5 C30_2 1_555 1_555
C1_2 O2_2 1_555 1_555
C2_2 C1_2 1_555 1_555
H1_2 C2_2 1_555 1_555
C3_2 C2_2 1_555 1_555
H2_2 C3_2 1_555 1_555
C4_2 C3_2 1_555 1_555
C5_2 C4_2 1_555 1_555
H3_2 C5_2 1_555 1_555
C6_2 C5_2 1_555 1_555
C23_2 H17_2 1_555 1_555
C24_2 C23_2 1_555 1_555
H18_2 C24_2 1_555 1_555
C25_2 C24_2 1_555 1_555
C26_2 C25_2 1_555 1_555
H19_2 C26_2 1_555 1_555
C27_2 N1_2 1_555 1_555
H20_2 C27_2 1_555 1_555
C28_2 C25_2 1_555 1_555
C29_2 C28_2 1_555 1_555
H21_2 C29_2 1_555 1_555
C30_2 C29_2 1_555 1_555
H22_2 C30_2 1_555 1_555
C31_2 N5 1_555 1_555
H23_2 C31_2 1_555 1_555
C32_2 C28_2 1_555 1_555
H24_2 C32_2 1_555 1_555
Co11 O2_2 1_555 1_555
Co15_2 O1_2 1_555 1_555
N1_2 Co11 1_555 1_555
C26_2 C27_2 1_555 1_555
C31_2 C32_2 1_555 1_555
Co9 O14_2 1_555 1_555
O14_2 Co15_3 1_555 1_555
O15_2 Co9 1_555 1_555
O16_2 C33_2 1_555 1_555
O24_2 Co9 1_555 1_555
O25_2 C38_2 1_555 1_555
N3_2 C55_2 1_555 1_555
N6 C62_2 1_555 1_555
C33_2 O15_2 1_555 1_555
C34_2 C33_2 1_555 1_555
H25_2 C34_2 1_555 1_555
C35_2 C34_2 1_555 1_555
H26_2 C35_2 1_555 1_555
C36_2 C35_2 1_555 1_555
C37_2 C36_2 1_555 1_555
H27_2 C37_2 1_555 1_555
C38_2 C37_2 1_555 1_555
C55_2 H41_2 1_555 1_555
C56_2 C55_2 1_555 1_555
H42_2 C56_2 1_555 1_555
C57_2 C56_2 1_555 1_555
C58_2 C57_2 1_555 1_555
H43_2 C58_2 1_555 1_555
C59_2 N3_2 1_555 1_555
H44_2 C59_2 1_555 1_555
C60_2 C57_2 1_555 1_555
C61_2 C60_2 1_555 1_555
H45_2 C61_2 1_555 1_555
C62_2 C61_2 1_555 1_555
H46_2 C62_2 1_555 1_555
C63_2 N6 1_555 1_555
H47_2 C63_2 1_555 1_555
C64_2 C60_2 1_555 1_555
H48_2 C64_2 1_555 1_555
Co13 O14_2 1_555 1_555
O15_2 Co13 1_555 1_555
N3_2 Co13 1_555 1_555
C58_2 C59_2 1_555 1_555
C63_2 C64_2 1_555 1_555
O28 C43_2 1_555 1_555
O30 C43_2 1_555 1_555
O19_2 C44_2 1_555 1_555
O20_2 Co15_4 1_555 1_555
O32 C54_2 1_555 1_555
O34 C54_2 1_555 1_555
O26_2 C49_2 1_555 1_555
H28_2 C39_2 1_555 1_555
C40_2 C39_2 1_555 1_555
H29_2 C40_2 1_555 1_555
H30_2 C41_2 1_555 1_555
C43_2 C42_2 1_555 1_555
C44_2 O20_2 1_555 1_555
C45_2 C44_2 1_555 1_555
H33_2 C45_2 1_555 1_555
C46_2 C45_2 1_555 1_555
H34_2 C46_2 1_555 1_555
C47_2 C46_2 1_555 1_555
C48_2 C47_2 1_555 1_555
H35_2 C48_2 1_555 1_555
C49_2 C48_2 1_555 1_555
C50_2 C49_2 1_555 1_555
H36_2 C50_2 1_555 1_555
C51_2 C50_2 1_555 1_555
H37_2 C51_2 1_555 1_555
C52_2 C47_2 1_555 1_555
H38_2 C52_2 1_555 1_555
C53_2 O26_2 1_555 1_555
H39_2 C53_2 1_555 1_555
H40_2 C53_2 1_555 1_555
C54_2 C53_2 1_555 1_555
C40_2 C41_2 1_555 1_555
C51_2 C52_2 1_555 1_555
O23 H49_2 1_555 1_555
O24 H51_2 1_555 1_555
O11 H55_2 1_555 1_555

#END
