
###############################################################################
#
# This file contains modified crystal structure data generated from the
# MOF subset of the Cambridge Structural Database (CSD) v543 
# hosted by the Cambridge Crystallographic Data Centre (CCDC).
#
# This work is licensed under the Creative Commons
# Attribution-NonCommercial-ShareAlike 4.0 International License.
# To view a copy of this license, visit
# http://creativecommons.org/licenses/by-nc-sa/4.0/
# or send a letter to
# Creative Commons, PO Box 1866, Mountain View, CA 94042, USA.
#
# CIF created using the CSD Python API on 29 September 2022
# The structure has been converted into the P1 space group
# The structure has a 3D framework
# The original CSD entry KIYZOK is in the monoclinic crystal system
# The framework has been calculated to contain at least 10.0% void space
# The void calculation uses a probe of radius 1.32A, grid spacing 0.4
#
###############################################################################

data_KIYZOK
_chemical_formula_moiety         '(C104 H72 Co4 N16 O24)n'
_symmetry_cell_setting           triclinic
_symmetry_space_group_name_H-M   'P 1'
_symmetry_Int_Tables_number      1
_space_group_name_Hall           'P 1'
loop_
_symmetry_equiv_pos_site_id
_symmetry_equiv_pos_as_xyz
1 x,y,z
_cell_length_a                   12.625(4)
_cell_length_b                   9.350(3)
_cell_length_c                   26.835(7)
_cell_angle_alpha                90
_cell_angle_beta                 107.011(12)
_cell_angle_gamma                90
_cell_volume                     3029.11
loop_
_atom_site_label
_atom_site_type_symbol
_atom_site_fract_x
_atom_site_fract_y
_atom_site_fract_z
Co2 Co 0.09061(4) 0.39322(6) 0.96107(2)
N1 N 0.2368(3) 0.5223(4) 0.97318(14)
N2 N 0.5343(3) 0.8659(4) 0.96065(16)
N3 N 0.6332(3) 0.9371(4) 0.96919(15)
H1 H 0.690880 0.914781 0.995601
C15 C 0.2500(4) 0.6065(5) 0.9356(2)
H10 H 0.192535 0.609037 0.903476
C16 C 0.3424(4) 0.6907(5) 0.9404(2)
H11 H 0.347700 0.749188 0.912296
C17 C 0.4279(3) 0.6887(4) 0.98712(18)
C20 C 0.5294(3) 0.7737(5) 0.99460(19)
O8 O 0.1938(2) 0.1995(3) 0.94965(12)
O9 O 0.0913(2) 0.3258(3) 0.88550(12)
C10 C 0.2858(3) 0.0498(5) 0.87857(18)
H7 H 0.323522 0.039875 0.914647
C11 C 0.1934(4) 0.1367(5) 0.86311(18)
C12 C 0.1374(4) 0.1465(6) 0.8101(2)
H8 H 0.072531 0.203508 0.798765
C13 C 0.1758(5) 0.0739(7) 0.7742(2)
H9 H 0.137906 0.082176 0.738058
C14 C 0.1567(3) 0.2235(4) 0.90113(18)
H17 H 0.999423 0.153825 0.018529
H18 H 0.837790 0.028971 0.013304
O6 O 0.5592(3) 0.0805(4) 0.90006(16)
N4 N 0.9467(3) 0.2612(4) 0.95321(14)
C21 C 0.6387(4) 0.0428(5) 0.93556(19)
C22 C 0.7501(3) 0.1129(5) 0.94373(19)
C23 C 0.7598(4) 0.2062(5) 0.9055(2)
H15 H 0.698972 0.222071 0.875320
C24 C 0.8586(4) 0.2760(5) 0.91148(19)
H16 H 0.864497 0.338210 0.884431
C25 C 0.9369(3) 0.1690(5) 0.98910(18)
C26 C 0.8408(3) 0.0932(5) 0.98631(18)
O7 O 0.9992(2) 0.5646(3) 0.92765(12)
O1 O 0.8658(2) 0.6296(3) 0.96163(12)
O3 O 0.6827(3) 0.9239(5) 0.74326(15)
C1 C 0.9111(3) 0.6281(4) 0.92562(18)
C2 C 0.8546(3) 0.7097(4) 0.87788(17)
C3 C 0.7552(4) 0.7777(5) 0.87296(18)
H2 H 0.723145 0.772731 0.900830
C4 C 0.7011(4) 0.8528(5) 0.8286(2)
H3 H 0.633501 0.900834 0.826232
C5 C 0.7461(4) 0.8574(6) 0.7879(2)
C6 C 0.8447(4) 0.7895(7) 0.7911(2)
H4 H 0.875082 0.792250 0.762614
C7 C 0.8991(4) 0.7169(6) 0.8365(2)
H5 H 0.967883 0.671491 0.839228
C8 C 0.7314(4) 0.9896(6) 0.7096(2)
C9 C 0.6755(4) 0.9770(5) 0.65748(19)
H6 H 0.611012 0.919027 0.646379
C18 C 0.5857(3) 0.3975(5) 0.97410(18)
H12 H 0.529504 0.402311 0.941629
C19 C 0.6816(3) 0.4778(5) 0.98221(18)
H13 H 0.689378 0.536083 0.954495
H14 H 0.409177 0.240324 0.975362
O1_2 O 0.1342(2) 0.3704(3) 0.03837(12)
O2 O 0.0008(2) 0.4354(3) 0.07235(12)
O3_2 O 0.3173(3) 0.0761(5) 0.25674(15)
C1_2 C 0.0889(3) 0.3719(4) 0.07438(18)
C2_2 C 0.1454(3) 0.2903(4) 0.12212(17)
C3_2 C 0.2448(4) 0.2223(5) 0.12704(18)
H2_2 H 0.276855 0.227269 0.099170
C4_2 C 0.2989(4) 0.1472(5) 0.1714(2)
H3_2 H 0.366499 0.099166 0.173768
C5_2 C 0.2539(4) 0.1426(6) 0.2121(2)
C6_2 C 0.1553(4) 0.2105(7) 0.2089(2)
H4_2 H 0.124918 0.207750 0.237386
C7_2 C 0.1009(4) 0.2831(6) 0.1635(2)
H5_2 H 0.032117 0.328509 0.160772
C8_2 C 0.2686(4) 0.0104(6) 0.2904(2)
C9_2 C 0.3245(4) 0.0230(5) 0.34252(19)
H6_2 H 0.388988 0.080973 0.353621
C18_2 C 0.4143(3) 0.6025(5) 0.02590(18)
H12_2 H 0.470496 0.597689 0.058371
C19_2 C 0.3184(3) 0.5222(5) 0.01779(18)
H13_2 H 0.310622 0.463917 0.045505
H14_2 H 0.590823 0.759676 0.024638
N5 N 0.0533(3) 0.7388(4) 0.04679(14)
O6_2 O 0.4408(3) 0.9195(4) 0.09994(16)
C21_2 C 0.3613(4) 0.9572(5) 0.06444(19)
C22_2 C 0.2499(3) 0.8871(5) 0.05627(19)
C23_2 C 0.2402(4) 0.7938(5) 0.0945(2)
H15_2 H 0.301028 0.777929 0.124680
C24_2 C 0.1414(4) 0.7240(5) 0.08852(19)
H16_2 H 0.135503 0.661790 0.115569
C25_2 C 0.0631(3) 0.8310(5) 0.01090(18)
C26_2 C 0.1592(3) 0.9068(5) 0.01369(18)
O4 O 0.1938(2) 0.8005(3) 0.44965(12)
O5 O 0.0913(2) 0.6742(3) 0.38550(12)
C10_2 C 0.2858(3) 0.9502(5) 0.37857(18)
H7_2 H 0.323522 0.960125 0.414647
C11_2 C 0.1934(4) 0.8633(5) 0.36311(18)
C12_2 C 0.1374(4) 0.8535(6) 0.3101(2)
H8_2 H 0.072531 0.796492 0.298765
C13_2 C 0.1758(5) 0.9261(7) 0.2742(2)
H9_2 H 0.137906 0.917824 0.238058
C14_2 C 0.1567(3) 0.7765(4) 0.40113(18)
Co4 Co 0.09061(4) 0.60678(6) 0.46107(2)
O7_2 O 0.0008(2) 0.5646(3) 0.57235(12)
N5_2 N 0.0533(3) 0.2612(4) 0.54679(14)
O6_3 O 0.4408(3) 0.0805(4) 0.59994(16)
C21_3 C 0.3613(4) 0.0428(5) 0.56444(19)
C22_3 C 0.2499(3) 0.1129(5) 0.55627(19)
C23_3 C 0.2402(4) 0.2062(5) 0.5945(2)
H15_3 H 0.301028 0.222071 0.624680
C24_3 C 0.1414(4) 0.2760(5) 0.58852(19)
H16_3 H 0.135503 0.338210 0.615569
C25_3 C 0.0631(3) 0.1690(5) 0.51090(18)
H17_2 H 0.000577 0.153825 0.481471
C26_3 C 0.1592(3) 0.0932(5) 0.51369(18)
H18_2 H 0.162210 0.028971 0.486696
O1_3 O 0.1342(2) 0.6296(3) 0.53837(12)
O3_3 O 0.3173(3) 0.9239(5) 0.75674(15)
N1_2 N 0.2368(3) 0.4777(4) 0.47318(14)
N2_2 N 0.5343(3) 0.1341(4) 0.46065(16)
N3_2 N 0.6332(3) 0.0629(4) 0.46919(15)
H1_2 H 0.690880 0.085219 0.495601
C1_3 C 0.0889(3) 0.6281(4) 0.57438(18)
C2_3 C 0.1454(3) 0.7097(4) 0.62212(17)
C3_3 C 0.2448(4) 0.7777(5) 0.62704(18)
H2_3 H 0.276855 0.772731 0.599170
C4_3 C 0.2989(4) 0.8528(5) 0.6714(2)
H3_3 H 0.366499 0.900834 0.673768
C5_3 C 0.2539(4) 0.8574(6) 0.7121(2)
C6_3 C 0.1553(4) 0.7895(7) 0.7089(2)
H4_3 H 0.124918 0.792250 0.737386
C7_3 C 0.1009(4) 0.7169(6) 0.6635(2)
H5_3 H 0.032117 0.671491 0.660772
C8_3 C 0.2686(4) 0.9896(6) 0.7904(2)
C9_3 C 0.3245(4) 0.9770(5) 0.84252(19)
H6_3 H 0.388988 0.919027 0.853621
C15_2 C 0.2500(4) 0.3935(5) 0.4356(2)
H10_2 H 0.192535 0.390963 0.403476
C16_2 C 0.3424(4) 0.3093(5) 0.4404(2)
H11_2 H 0.347700 0.250812 0.412296
C17_2 C 0.4279(3) 0.3113(4) 0.48712(18)
C18_3 C 0.4143(3) 0.3975(5) 0.52590(18)
H12_3 H 0.470496 0.402311 0.558371
C19_3 C 0.3184(3) 0.4778(5) 0.51779(18)
H13_3 H 0.310622 0.536083 0.545505
C20_2 C 0.5294(3) 0.2263(5) 0.49460(19)
H14_3 H 0.590823 0.240324 0.524638
Co3 Co 0.90939(4) 0.60678(6) 0.03893(2)
O4_2 O 0.8062(2) 0.8005(3) 0.05035(12)
O5_2 O 0.9087(2) 0.6742(3) 0.11450(12)
C10_3 C 0.7142(3) 0.9502(5) 0.12143(18)
H7_3 H 0.676478 0.960125 0.085353
C11_3 C 0.8066(4) 0.8633(5) 0.13689(18)
C12_3 C 0.8626(4) 0.8535(6) 0.1899(2)
H8_3 H 0.927469 0.796492 0.201235
C13_3 C 0.8242(5) 0.9261(7) 0.2258(2)
H9_3 H 0.862094 0.917824 0.261942
C14_3 C 0.8433(3) 0.7765(4) 0.09887(18)
N1_3 N 0.7632(3) 0.4777(4) 0.02682(14)
N2_3 N 0.4657(3) 0.1341(4) 0.03935(16)
N3_3 N 0.3668(3) 0.0629(4) 0.03081(15)
H1_3 H 0.309120 0.085219 0.004399
C15_3 C 0.7500(4) 0.3935(5) 0.0644(2)
H10_3 H 0.807465 0.390963 0.096524
C16_3 C 0.6576(4) 0.3093(5) 0.0596(2)
H11_3 H 0.652300 0.250812 0.087704
C17_3 C 0.5721(3) 0.3113(4) 0.01288(18)
C20_3 C 0.4706(3) 0.2263(5) 0.00540(19)
Co1 Co 0.90939(4) 0.39322(6) 0.53893(2)
O1_4 O 0.8658(2) 0.3704(3) 0.46163(12)
O2_2 O 0.9992(2) 0.4354(3) 0.42765(12)
O3_4 O 0.6827(3) 0.0761(5) 0.24326(15)
N1_4 N 0.7632(3) 0.5223(4) 0.52682(14)
N2_4 N 0.4657(3) 0.8659(4) 0.53935(16)
N3_4 N 0.3668(3) 0.9371(4) 0.53081(15)
H1_4 H 0.309120 0.914781 0.504399
C1_4 C 0.9111(3) 0.3719(4) 0.42562(18)
C2_4 C 0.8546(3) 0.2903(4) 0.37788(17)
C3_4 C 0.7552(4) 0.2223(5) 0.37296(18)
H2_4 H 0.723145 0.227269 0.400830
C4_4 C 0.7011(4) 0.1472(5) 0.3286(2)
H3_4 H 0.633501 0.099166 0.326232
C5_4 C 0.7461(4) 0.1426(6) 0.2879(2)
C6_4 C 0.8447(4) 0.2105(7) 0.2911(2)
H4_4 H 0.875082 0.207750 0.262614
C7_4 C 0.8991(4) 0.2831(6) 0.3365(2)
H5_4 H 0.967883 0.328509 0.339228
C8_4 C 0.7314(4) 0.0104(6) 0.2096(2)
C9_4 C 0.6755(4) 0.0230(5) 0.15748(19)
H6_4 H 0.611012 0.080973 0.146379
C15_4 C 0.7500(4) 0.6065(5) 0.5644(2)
H10_4 H 0.807465 0.609037 0.596524
C16_4 C 0.6576(4) 0.6907(5) 0.5596(2)
H11_4 H 0.652300 0.749188 0.587704
C17_4 C 0.5721(3) 0.6887(4) 0.51288(18)
C18_4 C 0.5857(3) 0.6025(5) 0.47410(18)
H12_4 H 0.529504 0.597689 0.441629
C19_4 C 0.6816(3) 0.5222(5) 0.48221(18)
H13_4 H 0.689378 0.463917 0.454495
C20_4 C 0.4706(3) 0.7737(5) 0.50540(19)
H14_4 H 0.409177 0.759676 0.475362
O8_2 O 0.8062(2) 0.1995(3) 0.55035(12)
O9_2 O 0.9087(2) 0.3258(3) 0.61450(12)
C10_4 C 0.7142(3) 0.0498(5) 0.62143(18)
H7_4 H 0.676478 0.039875 0.585353
C11_4 C 0.8066(4) 0.1367(5) 0.63689(18)
C12_4 C 0.8626(4) 0.1465(6) 0.6899(2)
H8_4 H 0.927469 0.203508 0.701235
C13_4 C 0.8242(5) 0.0739(7) 0.7258(2)
H9_4 H 0.862094 0.082176 0.761942
C14_4 C 0.8433(3) 0.2235(4) 0.59887(18)
O6_4 O 0.5592(3) 0.9195(4) 0.40006(16)
N4_2 N 0.9467(3) 0.7388(4) 0.45321(14)
C21_4 C 0.6387(4) 0.9572(5) 0.43556(19)
C22_4 C 0.7501(3) 0.8871(5) 0.44373(19)
C23_4 C 0.7598(4) 0.7938(5) 0.4055(2)
H15_4 H 0.698972 0.777929 0.375320
C24_4 C 0.8586(4) 0.7240(5) 0.41148(19)
H16_4 H 0.864497 0.661790 0.384431
C25_4 C 0.9369(3) 0.8310(5) 0.48910(18)
H17_3 H 0.999423 0.846175 0.518529
C26_4 C 0.8408(3) 0.9068(5) 0.48631(18)
H18_3 H 0.837790 0.971029 0.513304
H17_4 H 0.000577 0.846175 0.981471
H18_4 H 0.162210 0.971029 0.986696
loop_
_geom_bond_atom_site_label_1
_geom_bond_atom_site_label_2
_geom_bond_site_symmetry_1
_geom_bond_site_symmetry_2
N1 Co2 1_555 1_555
N2 N3 1_555 1_555
N3 H1 1_555 1_555
C15 N1 1_555 1_555
H10 C15 1_555 1_555
C16 C15 1_555 1_555
H11 C16 1_555 1_555
C17 C16 1_555 1_555
C20 N2 1_555 1_555
O8 Co2 1_555 1_555
O9 Co2 1_555 1_555
C17 C20 1_555 1_555
O8 C14 1_555 1_555
O9 C14 1_555 1_555
H7 C10 1_555 1_555
C11 C10 1_555 1_555
C12 C11 1_555 1_555
H8 C12 1_555 1_555
H9 C13 1_555 1_555
C14 C11 1_555 1_555
C12 C13 1_555 1_555
O6 C21 1_555 1_555
N4 C24 1_555 1_555
C22 C21 1_555 1_555
C23 C22 1_555 1_555
H15 C23 1_555 1_555
C24 C23 1_555 1_555
H16 C24 1_555 1_555
C25 N4 1_555 1_555
C26 C22 1_555 1_555
C25 C26 1_555 1_555
O1 C1 1_555 1_555
O7 C1 1_555 1_555
O3 C5 1_555 1_555
C1 C2 1_555 1_555
C2 C3 1_555 1_555
C3 H2 1_555 1_555
C4 C3 1_555 1_555
H3 C4 1_555 1_555
C5 C4 1_555 1_555
C6 C5 1_555 1_555
H4 C6 1_555 1_555
C7 C2 1_555 1_555
H5 C7 1_555 1_555
C8 O3 1_555 1_555
C9 C8 1_555 1_555
H6 C9 1_555 1_555
H12 C18 1_555 1_555
H13 C19 1_555 1_555
C6 C7 1_555 1_555
C18 C19 1_555 1_555
O1_2 C1_2 1_555 1_555
O2 C1_2 1_555 1_555
O3_2 C5_2 1_555 1_555
C1_2 C2_2 1_555 1_555
C2_2 C3_2 1_555 1_555
C3_2 H2_2 1_555 1_555
C4_2 C3_2 1_555 1_555
H3_2 C4_2 1_555 1_555
C5_2 C4_2 1_555 1_555
C6_2 C5_2 1_555 1_555
H4_2 C6_2 1_555 1_555
C7_2 C2_2 1_555 1_555
H5_2 C7_2 1_555 1_555
C8_2 O3_2 1_555 1_555
C9_2 C8_2 1_555 1_555
H6_2 C9_2 1_555 1_555
H12_2 C18_2 1_555 1_555
H13_2 C19_2 1_555 1_555
C6_2 C7_2 1_555 1_555
C18_2 C19_2 1_555 1_555
O6_2 C21_2 1_555 1_555
N5 C24_2 1_555 1_555
C22_2 C21_2 1_555 1_555
C23_2 C22_2 1_555 1_555
H15_2 C23_2 1_555 1_555
C24_2 C23_2 1_555 1_555
H16_2 C24_2 1_555 1_555
C25_2 N5 1_555 1_555
C26_2 C22_2 1_555 1_555
C25_2 C26_2 1_555 1_555
O4 C14_2 1_555 1_555
O5 C14_2 1_555 1_555
H7_2 C10_2 1_555 1_555
C11_2 C10_2 1_555 1_555
C12_2 C11_2 1_555 1_555
H8_2 C12_2 1_555 1_555
H9_2 C13_2 1_555 1_555
C14_2 C11_2 1_555 1_555
Co4 O4 1_555 1_555
O5 Co4 1_555 1_555
C12_2 C13_2 1_555 1_555
O6_3 C21_3 1_555 1_555
N5_2 C24_3 1_555 1_555
C22_3 C21_3 1_555 1_555
C23_3 C22_3 1_555 1_555
H15_3 C23_3 1_555 1_555
C24_3 C23_3 1_555 1_555
H16_3 C24_3 1_555 1_555
C25_3 N5_2 1_555 1_555
H17_2 C25_3 1_555 1_555
C26_3 C22_3 1_555 1_555
H18_2 C26_3 1_555 1_555
C25_3 C26_3 1_555 1_555
Co4 O1_3 1_555 1_555
O1_3 C1_3 1_555 1_555
O7_2 C1_3 1_555 1_555
O3_3 C5_3 1_555 1_555
N1_2 Co4 1_555 1_555
N2_2 N3_2 1_555 1_555
N3_2 H1_2 1_555 1_555
C1_3 C2_3 1_555 1_555
C2_3 C3_3 1_555 1_555
C3_3 H2_3 1_555 1_555
C4_3 C3_3 1_555 1_555
H3_3 C4_3 1_555 1_555
C5_3 C4_3 1_555 1_555
C6_3 C5_3 1_555 1_555
H4_3 C6_3 1_555 1_555
C7_3 C2_3 1_555 1_555
H5_3 C7_3 1_555 1_555
C8_3 O3_3 1_555 1_555
C9_3 C8_3 1_555 1_555
H6_3 C9_3 1_555 1_555
C15_2 N1_2 1_555 1_555
H10_2 C15_2 1_555 1_555
C16_2 C15_2 1_555 1_555
H11_2 C16_2 1_555 1_555
C17_2 C16_2 1_555 1_555
C18_3 C17_2 1_555 1_555
H12_3 C18_3 1_555 1_555
C19_3 N1_2 1_555 1_555
H13_3 C19_3 1_555 1_555
C20_2 N2_2 1_555 1_555
H14_3 C20_2 1_555 1_555
C6_3 C7_3 1_555 1_555
C17_2 C20_2 1_555 1_555
C18_3 C19_3 1_555 1_555
O4_2 C14_3 1_555 1_555
O5_2 C14_3 1_555 1_555
H7_3 C10_3 1_555 1_555
C11_3 C10_3 1_555 1_555
C12_3 C11_3 1_555 1_555
H8_3 C12_3 1_555 1_555
H9_3 C13_3 1_555 1_555
C14_3 C11_3 1_555 1_555
Co3 O4_2 1_555 1_555
O5_2 Co3 1_555 1_555
C12_3 C13_3 1_555 1_555
N1_3 Co3 1_555 1_555
N2_3 N3_3 1_555 1_555
N3_3 H1_3 1_555 1_555
C15_3 N1_3 1_555 1_555
H10_3 C15_3 1_555 1_555
C16_3 C15_3 1_555 1_555
H11_3 C16_3 1_555 1_555
C17_3 C16_3 1_555 1_555
C20_3 N2_3 1_555 1_555
C17_3 C20_3 1_555 1_555
Co1 O1_4 1_555 1_555
O1_4 C1_4 1_555 1_555
O2_2 C1_4 1_555 1_555
O3_4 C5_4 1_555 1_555
N1_4 Co1 1_555 1_555
N2_4 N3_4 1_555 1_555
N3_4 H1_4 1_555 1_555
C1_4 C2_4 1_555 1_555
C2_4 C3_4 1_555 1_555
C3_4 H2_4 1_555 1_555
C4_4 C3_4 1_555 1_555
H3_4 C4_4 1_555 1_555
C5_4 C4_4 1_555 1_555
C6_4 C5_4 1_555 1_555
H4_4 C6_4 1_555 1_555
C7_4 C2_4 1_555 1_555
H5_4 C7_4 1_555 1_555
C8_4 O3_4 1_555 1_555
C9_4 C8_4 1_555 1_555
H6_4 C9_4 1_555 1_555
C15_4 N1_4 1_555 1_555
H10_4 C15_4 1_555 1_555
C16_4 C15_4 1_555 1_555
H11_4 C16_4 1_555 1_555
C17_4 C16_4 1_555 1_555
C18_4 C17_4 1_555 1_555
H12_4 C18_4 1_555 1_555
C19_4 N1_4 1_555 1_555
H13_4 C19_4 1_555 1_555
C20_4 N2_4 1_555 1_555
H14_4 C20_4 1_555 1_555
O8_2 Co1 1_555 1_555
O9_2 Co1 1_555 1_555
C6_4 C7_4 1_555 1_555
C17_4 C20_4 1_555 1_555
C18_4 C19_4 1_555 1_555
O8_2 C14_4 1_555 1_555
O9_2 C14_4 1_555 1_555
H7_4 C10_4 1_555 1_555
C11_4 C10_4 1_555 1_555
C12_4 C11_4 1_555 1_555
H8_4 C12_4 1_555 1_555
H9_4 C13_4 1_555 1_555
C14_4 C11_4 1_555 1_555
C12_4 C13_4 1_555 1_555
O6_4 C21_4 1_555 1_555
N4_2 C24_4 1_555 1_555
C22_4 C21_4 1_555 1_555
C23_4 C22_4 1_555 1_555
H15_4 C23_4 1_555 1_555
C24_4 C23_4 1_555 1_555
H16_4 C24_4 1_555 1_555
C25_4 N4_2 1_555 1_555
H17_3 C25_4 1_555 1_555
C26_4 C22_4 1_555 1_555
H18_3 C26_4 1_555 1_555
C25_4 C26_4 1_555 1_555

#END
