
###############################################################################
#
# This file contains modified crystal structure data generated from the
# MOF subset of the Cambridge Structural Database (CSD) v543 
# hosted by the Cambridge Crystallographic Data Centre (CCDC).
#
# This work is licensed under the Creative Commons
# Attribution-NonCommercial-ShareAlike 4.0 International License.
# To view a copy of this license, visit
# http://creativecommons.org/licenses/by-nc-sa/4.0/
# or send a letter to
# Creative Commons, PO Box 1866, Mountain View, CA 94042, USA.
#
# CIF created using the CSD Python API on 29 September 2022
# The structure has been converted into the P1 space group
# The structure has a 3D framework
# The original CSD entry KIZCOO is in the triclinic crystal system
# The framework has been calculated to contain at least 10.0% void space
# The void calculation uses a probe of radius 1.32A, grid spacing 0.4
# The framework is charged, counterions have been retained in the structure
#
###############################################################################

data_KIZCOO
_chemical_formula_moiety         '(C38 H28 Ag2 F6 N16 O6 S2)n'
_symmetry_cell_setting           triclinic
_symmetry_space_group_name_H-M   'P 1'
_symmetry_Int_Tables_number      1
_space_group_name_Hall           'P 1'
loop_
_symmetry_equiv_pos_site_id
_symmetry_equiv_pos_as_xyz
1 x,y,z
_cell_length_a                   8.7133(5)
_cell_length_b                   12.3600(7)
_cell_length_c                   13.3642(8)
_cell_angle_alpha                113.788(6)
_cell_angle_beta                 93.665(5)
_cell_angle_gamma                107.309(5)
_cell_volume                     1229.18
loop_
_atom_site_label
_atom_site_type_symbol
_atom_site_fract_x
_atom_site_fract_y
_atom_site_fract_z
Ag7 Ag 0.25558(7) 0.98860(5) 0.32688(5)
N9 N 0.1856(8) 0.3476(6) 0.4985(5)
N10 N 0.1646(8) 0.7352(6) 0.5049(5)
N11 N 0.2494(8) 0.8832(6) 0.4478(6)
C19 C 0.1673(9) 0.5415(7) 0.5066(6)
H15 H 0.2804 0.5702 0.5117
C20 C 0.0892(9) 0.4241(7) 0.5012(6)
C21 C 0.0792(10) 0.6172(7) 0.5046(6)
C22 C 0.1486(10) 0.2245(7) 0.4241(6)
H16 H 0.0492 0.1741 0.3729
C23 C 0.3446(10) 0.3902(7) 0.5571(7)
H17 H 0.4053 0.4710 0.6126
C24 C 0.2972(9) 0.8318(7) 0.5859(7)
H18 H 0.3444 0.8346 0.6517
C25 C 0.3931(10) 0.2896(7) 0.5168(7)
H19 H 0.4955 0.2900 0.5417
C26 C 0.3439(9) 0.9213(7) 0.5491(7)
H20 H 0.4294 0.9987 0.5879
C27 C 0.1414(10) 0.7708(7) 0.4222(7)
H21 H 0.0605 0.7223 0.3570
N12 N 0.2712(8) 0.1866(6) 0.4339(5)
N19 N 0.0288(9) 0.1251(7) 0.7398(6)
H22 H 0.5136 0.0080 0.1354
Ag4 Ag 0.74442(7) 0.01140(5) 0.67312(5)
N4 N 0.7379(8) 0.7169(6) 0.1701(6)
C9 C 0.6463(10) 0.4929(7) 0.0400(7)
H6 H 0.7439 0.4885 0.0676
C11 C 0.6185(10) 0.6075(7) 0.0835(7)
C14 C 0.8940(10) 0.7753(8) 0.1651(7)
H10 H 0.9399 0.7484 0.1027
N7 N 0.9712(9) 0.8749(7) 0.2602(6)
C16 C 0.7161(11) 0.7872(8) 0.2732(7)
H12 H 0.6202 0.7718 0.3003
C18 C 0.8599(11) 0.8833(8) 0.3283(7)
H14 H 0.8804 0.9457 0.4012
N13 N 0.4455(9) 0.7303(6) 0.0838(5)
C28 C 0.4784(12) 0.9272(8) 0.1313(7)
C29 C 0.4702(10) 0.6120(7) 0.0427(7)
N15 N 0.3646(9) 0.8853(6) 0.1873(6)
C33 C 0.5302(12) 0.8342(8) 0.0703(8)
H25 H 0.6089 0.8393 0.0269
C35 C 0.3477(10) 0.7665(7) 0.1561(7)
H27 H 0.2777 0.7137 0.1806
N1 N 0.8144(8) 0.6524(6) 0.5015(5)
N2 N 0.8354(8) 0.2648(6) 0.4951(5)
N3 N 0.5545(9) 0.2697(6) 0.9162(5)
C1 C 0.5216(12) 0.0728(8) 0.8687(7)
N5 N 0.7506(8) 0.1168(6) 0.5522(6)
C2 C 0.8327(9) 0.4585(7) 0.4934(6)
H2 H 0.7196 0.4298 0.4883
C3 C 0.9108(9) 0.5759(7) 0.4988(6)
C4 C 0.5298(10) 0.3880(7) 0.9573(7)
C5 C 0.9208(10) 0.3828(7) 0.4954(6)
C6 C 0.8514(10) 0.7755(7) 0.5759(6)
H3 H 0.9508 0.8259 0.6271
C7 C 0.6554(10) 0.6098(7) 0.4429(7)
H4 H 0.5947 0.5290 0.3874
C8 C 0.7028(9) 0.1682(7) 0.4141(7)
H5 H 0.6556 0.1654 0.3483
C10 C 0.6069(10) 0.7104(7) 0.4832(7)
H7 H 0.5045 0.7100 0.4583
C12 C 0.6561(9) 0.0787(7) 0.4509(7)
H8 H 0.5706 0.0013 0.4121
C13 C 0.8586(10) 0.2292(7) 0.5778(7)
H9 H 0.9395 0.2777 0.6430
N6 N 0.6354(9) 0.1147(6) 0.8127(6)
C15 C 0.4698(12) 0.1658(8) 0.9297(8)
H11 H 0.3911 0.1607 0.9731
N8 N 0.7288(8) 0.8134(6) 0.5661(5)
C17 C 0.6523(10) 0.2335(7) 0.8439(7)
H13 H 0.7223 0.2863 0.8194
N14 N 0.2621(8) 0.2831(6) 0.8299(6)
C30 C 0.3537(10) 0.5071(7) 0.9600(7)
H23 H 0.2561 0.5115 0.9324
C31 C 0.3815(10) 0.3925(7) 0.9165(7)
C32 C 0.1060(10) 0.2247(8) 0.8349(7)
H24 H 0.0601 0.2516 0.8973
C34 C 0.2839(11) 0.2128(8) 0.7268(7)
H26 H 0.3798 0.2282 0.6997
C36 C 0.1401(11) 0.1167(8) 0.6717(7)
H28 H 0.1196 0.0543 0.5988
H1 H 0.4864 0.9920 0.8646
S1 S 0.0186(8) 0.4163(6) 0.1476(5)
O1 O 0.0385(16) 0.4909(11) 0.0875(9)
F1 F 0.2861(12) 0.5567(8) 0.2824(8)
F2 F 0.1793(13) 0.3646(9) 0.2720(8)
F3 F 0.2907(11) 0.3900(10) 0.1347(9)
C37 C 0.2111(8) 0.4358(7) 0.2168(7)
O2 O 0.9368(12) 0.2799(9) 0.0683(9)
O3 O 0.9168(12) 0.4498(12) 0.2298(10)
O2_2 O 0.0632(12) 0.7201(9) 0.9317(9)
O3_2 O 0.0832(12) 0.5502(12) 0.7702(10)
S1_2 S 0.9814(8) 0.5837(6) 0.8524(5)
O1_2 O 0.9615(16) 0.5091(11) 0.9125(9)
F1_2 F 0.7139(12) 0.4433(8) 0.7176(8)
F2_2 F 0.8207(13) 0.6354(9) 0.7280(8)
F3_2 F 0.7093(11) 0.6100(10) 0.8653(9)
C37_2 C 0.7889(8) 0.5642(7) 0.7832(7)
loop_
_geom_bond_atom_site_label_1
_geom_bond_atom_site_label_2
_geom_bond_site_symmetry_1
_geom_bond_site_symmetry_2
N9 C20 1_555 1_555
N10 C21 1_555 1_555
N11 C26 1_555 1_555
C19 H15 1_555 1_555
C22 N9 1_555 1_555
H16 C22 1_555 1_555
C23 N9 1_555 1_555
H17 C23 1_555 1_555
C24 N10 1_555 1_555
H18 C24 1_555 1_555
C25 C23 1_555 1_555
H19 C25 1_555 1_555
C26 C24 1_555 1_555
H20 C26 1_555 1_555
C27 N10 1_555 1_555
H21 C27 1_555 1_555
N12 C22 1_555 1_555
Ag7 N11 1_555 1_555
N11 C27 1_555 1_555
C19 C20 1_555 1_555
C19 C21 1_555 1_555
C25 N12 1_555 1_555
N4 C11 1_555 1_555
C9 H6 1_555 1_555
C11 C9 1_555 1_555
C14 N4 1_555 1_555
H10 C14 1_555 1_555
N7 C14 1_555 1_555
C16 N4 1_555 1_555
H12 C16 1_555 1_555
C18 N7 1_555 1_555
H14 C18 1_555 1_555
N13 C29 1_555 1_555
C29 C11 1_555 1_555
N15 C28 1_555 1_555
C33 N13 1_555 1_555
H25 C33 1_555 1_555
C35 N13 1_555 1_555
H27 C35 1_555 1_555
Ag7 N15 1_555 1_555
C16 C18 1_555 1_555
C28 C33 1_555 1_555
N15 C35 1_555 1_555
Ag4 N5 1_555 1_555
N1 C3 1_555 1_555
N2 C5 1_555 1_555
N3 C4 1_555 1_555
N5 C12 1_555 1_555
C2 H2 1_555 1_555
C3 C2 1_555 1_555
C5 C2 1_555 1_555
C6 N1 1_555 1_555
H3 C6 1_555 1_555
C7 N1 1_555 1_555
H4 C7 1_555 1_555
C8 N2 1_555 1_555
H5 C8 1_555 1_555
C10 C7 1_555 1_555
H7 C10 1_555 1_555
C12 C8 1_555 1_555
H8 C12 1_555 1_555
C13 N2 1_555 1_555
H9 C13 1_555 1_555
N6 Ag4 1_555 1_555
C15 N3 1_555 1_555
H11 C15 1_555 1_555
N8 C6 1_555 1_555
C17 N3 1_555 1_555
H13 C17 1_555 1_555
N14 C31 1_555 1_555
H23 C30 1_555 1_555
C31 C4 1_555 1_555
C32 N14 1_555 1_555
H24 C32 1_555 1_555
N19 C32 1_555 1_555
C34 N14 1_555 1_555
H26 C34 1_555 1_555
C36 N19 1_555 1_555
H28 C36 1_555 1_555
C1 N6 1_555 1_555
C1 C15 1_555 1_555
N5 C13 1_555 1_555
C10 N8 1_555 1_555
N6 C17 1_555 1_555
C30 C31 1_555 1_555
C34 C36 1_555 1_555
S1 O1 1_555 1_555
F1 C37 1_555 1_555
F2 C37 1_555 1_555
F3 C37 1_555 1_555
C37 S1 1_555 1_555
S1_2 O1_2 1_555 1_555
F1_2 C37_2 1_555 1_555
F2_2 C37_2 1_555 1_555
F3_2 C37_2 1_555 1_555
C37_2 S1_2 1_555 1_555

#END
