
###############################################################################
#
# This file contains modified crystal structure data generated from the
# MOF subset of the Cambridge Structural Database (CSD) v543 
# hosted by the Cambridge Crystallographic Data Centre (CCDC).
#
# This work is licensed under the Creative Commons
# Attribution-NonCommercial-ShareAlike 4.0 International License.
# To view a copy of this license, visit
# http://creativecommons.org/licenses/by-nc-sa/4.0/
# or send a letter to
# Creative Commons, PO Box 1866, Mountain View, CA 94042, USA.
#
# CIF created using the CSD Python API on 29 September 2022
# The structure has been converted into the P1 space group
# The structure has a 3D framework
# The original CSD entry KIZCII is in the triclinic crystal system
# The framework has been calculated to contain at least 10.0% void space
# The void calculation uses a probe of radius 1.32A, grid spacing 0.4
# The framework is charged, counterions have been retained in the structure
# H atom positions have been added when not included in the experimental data
#
###############################################################################

data_KIZCII
_chemical_formula_moiety         '(C36 H30 Ag2 N14 O8 Re2)n'
_symmetry_cell_setting           triclinic
_symmetry_space_group_name_H-M   'P 1'
_symmetry_Int_Tables_number      1
_space_group_name_Hall           'P 1'
loop_
_symmetry_equiv_pos_site_id
_symmetry_equiv_pos_as_xyz
1 x,y,z
_cell_length_a                   9.0819(3)
_cell_length_b                   11.3685(4)
_cell_length_c                   13.9457(6)
_cell_angle_alpha                103.728(4)
_cell_angle_beta                 98.178(4)
_cell_angle_gamma                112.943(4)
_cell_volume                     1242.94
loop_
_atom_site_label
_atom_site_type_symbol
_atom_site_fract_x
_atom_site_fract_y
_atom_site_fract_z
H15 H 0.0600 0.4901 0.2728
N9 N 0.0165(7) 0.2981(6) 0.2682(4)
Ag7 Ag 0.23822(5) 0.30256(4) 0.39366(3)
C35 C 0.1083(8) 0.2414(7) 0.5869(6)
H27 H 0.2103 0.2999 0.6334
N16 N 0.0866(6) 0.1779(5) 0.4849(4)
C6 C 0.6551(7) 0.0066(6) 0.0005(5)
H4 H 0.7595 0.0108 0.0008
C19 C 0.9900(10) 0.3985(8) 0.2429(7)
C20 C 0.8493(10) 0.3465(8) 0.1690(7)
H16 H 0.8049 0.3942 0.1387
C21 C 0.8909(8) 0.1857(7) 0.2096(5)
H17 H 0.8771 0.1007 0.2108
C22 C 0.6389(7) 0.1058(6) 0.0731(5)
C23 C 0.4823(7) 0.0973(6) 0.0718(4)
C25 C 0.4029(8) 0.1744(7) 0.2290(5)
H19 H 0.3831 0.0980 0.2486
C26 C 0.4225(11) 0.3664(7) 0.2231(6)
H20 H 0.4206 0.4499 0.2406
C27 C 0.4657(12) 0.3156(8) 0.1414(7)
H21 H 0.4951 0.3543 0.0911
N10 N 0.7824(7) 0.2074(5) 0.1466(4)
N11 N 0.4579(6) 0.1939(5) 0.1470(4)
N12 N 0.3811(7) 0.2776(5) 0.2779(4)
C15 C 0.3324(7) 0.9407(5) 0.4927(4)
C16 C 0.0402(8) 0.7936(7) 0.3904(5)
H12 H 0.0593 0.7652 0.3272
C18 C 0.0746(7) 0.8948(6) 0.5521(5)
H14 H 0.1257 0.9499 0.6197
N7 N 0.1565(6) 0.8799(4) 0.4806(4)
C28 C 0.2191(8) 0.5608(6) 0.5558(5)
H22 H 0.1515 0.5037 0.5858
C29 C 0.2494(8) 0.6909(6) 0.5731(5)
H23 H 0.2087 0.7392 0.6164
C30 C 0.3822(7) 0.6329(6) 0.4644(5)
H24 H 0.4503 0.6380 0.4201
C31 C 0.4243(7) 0.8694(5) 0.5066(4)
C32 C 0.5936(7) 0.9305(5) 0.5144(4)
H25 H 0.6570 0.8849 0.5243
N13 N 0.3020(7) 0.5236(5) 0.4877(4)
N14 N 0.3532(6) 0.7379(5) 0.5133(4)
Ag1 Ag 0.76178(5) 0.69744(4) 0.60634(3)
C1 C 0.0100(10) 0.6015(8) 0.7571(7)
C2 C 0.1507(10) 0.6535(8) 0.8310(7)
H2 H 0.1951 0.6058 0.8613
C3 C 0.1091(8) 0.8143(7) 0.7904(5)
H3 H 0.1229 0.8993 0.7892
C4 C 0.3611(7) 0.8942(6) 0.9269(5)
C5 C 0.5177(7) 0.9027(6) 0.9282(4)
C7 C 0.5971(8) 0.8256(7) 0.7710(5)
H5 H 0.6169 0.9020 0.7514
C8 C 0.5775(11) 0.6336(7) 0.7769(6)
H6 H 0.5794 0.5501 0.7594
C9 C 0.5343(12) 0.6844(8) 0.8586(7)
H7 H 0.5049 0.6457 0.9089
C10 C 0.7809(8) 0.4392(6) 0.4442(5)
H8 H 0.8485 0.4963 0.4142
C11 C 0.7506(8) 0.3091(6) 0.4269(5)
H9 H 0.7913 0.2608 0.3836
C12 C 0.6178(7) 0.3671(6) 0.5356(5)
H10 H 0.5497 0.3620 0.5799
C13 C 0.5757(7) 0.1306(5) 0.4934(4)
C14 C 0.4064(7) 0.0695(5) 0.4856(4)
H11 H 0.3430 0.1151 0.4757
N2 N 0.2176(7) 0.7926(5) 0.8534(4)
N3 N 0.5421(6) 0.8061(5) 0.8530(4)
N4 N 0.6189(7) 0.7224(5) 0.7221(4)
N5 N 0.6980(7) 0.4764(5) 0.5123(4)
N6 N 0.6468(6) 0.2621(5) 0.4867(4)
C24 C 0.3449(7) 0.9934(6) 0.9995(5)
H18 H 0.2405 0.9892 0.9992
C33 C 0.6676(7) 0.0593(5) 0.5073(4)
C34 C 0.9598(8) 0.2064(7) 0.6096(5)
H26 H 0.9407 0.2348 0.6728
C36 C 0.9254(7) 0.1052(6) 0.4479(5)
H28 H 0.8743 0.0501 0.3803
N15 N 0.8435(6) 0.1201(4) 0.5194(4)
N17 N 0.9835(7) 0.7019(6) 0.7318(4)
N20 N 0.9134(6) 0.8221(5) 0.5151(4)
H1 H 0.9400 0.5099 0.7272
C17 C 0.8917(8) 0.7586(7) 0.4131(6)
H13 H 0.7897 0.7001 0.3666
O1 O 0.5972(11) 0.2845(8) 0.9247(5)
O2 O 0.5032(16) 0.3006(9) 0.7302(7)
O3 O 0.4342(18) 0.0491(10) 0.7541(8)
O4 O 0.7436(17) 0.219(2) 0.7746(10)
Re1 Re 0.56739(5) 0.21436(4) 0.79698(3)
H29 H 0.491574 0.281626 0.938139
O1_2 O 0.4028(11) 0.7155(8) 0.0753(5)
O2_2 O 0.4968(16) 0.6994(9) 0.2698(7)
O3_2 O 0.5658(18) 0.9509(10) 0.2459(8)
O4_2 O 0.2564(17) 0.781(2) 0.2254(10)
Re1_2 Re 0.43261(5) 0.78564(4) 0.20302(3)
H29_2 H 0.508426 0.718374 0.0618606
loop_
_geom_bond_atom_site_label_1
_geom_bond_atom_site_label_2
_geom_bond_site_symmetry_1
_geom_bond_site_symmetry_2
Ag7 N9 1_555 1_555
H27 C35 1_555 1_555
N16 C35 1_555 1_555
Ag7 N16 1_555 1_555
C6 H4 1_555 1_555
C20 C19 1_555 1_555
H16 C20 1_555 1_555
C21 H17 1_555 1_555
C22 C6 1_555 1_555
C23 C22 1_555 1_555
C25 H19 1_555 1_555
C26 H20 1_555 1_555
C27 C26 1_555 1_555
H21 C27 1_555 1_555
N10 C20 1_555 1_555
N11 C23 1_555 1_555
N12 C25 1_555 1_555
Ag7 N12 1_555 1_555
C21 N10 1_555 1_555
C22 N10 1_555 1_555
C25 N11 1_555 1_555
C26 N12 1_555 1_555
C27 N11 1_555 1_555
C16 H12 1_555 1_555
C18 H14 1_555 1_555
N7 C15 1_555 1_555
C28 H22 1_555 1_555
C29 C28 1_555 1_555
H23 C29 1_555 1_555
C30 H24 1_555 1_555
C31 C15 1_555 1_555
C32 C31 1_555 1_555
H25 C32 1_555 1_555
N13 C28 1_555 1_555
N14 C29 1_555 1_555
Ag7 N13 1_555 1_555
C16 N7 1_555 1_555
C18 N7 1_555 1_555
C30 N13 1_555 1_555
C30 N14 1_555 1_555
C31 N14 1_555 1_555
Ag1 N4 1_555 1_555
C2 C1 1_555 1_555
H2 C2 1_555 1_555
C3 H3 1_555 1_555
C4 C5 1_555 1_555
C7 H5 1_555 1_555
C8 H6 1_555 1_555
C9 C8 1_555 1_555
H7 C9 1_555 1_555
C10 H8 1_555 1_555
C11 C10 1_555 1_555
H9 C11 1_555 1_555
C12 H10 1_555 1_555
C13 C14 1_555 1_555
C14 H11 1_555 1_555
N2 C2 1_555 1_555
N3 C5 1_555 1_555
N4 C7 1_555 1_555
N5 Ag1 1_555 1_555
N6 C11 1_555 1_555
C24 C4 1_555 1_555
H18 C24 1_555 1_555
C33 C13 1_555 1_555
C34 H26 1_555 1_555
C36 H28 1_555 1_555
N15 C33 1_555 1_555
N17 Ag1 1_555 1_555
N20 Ag1 1_555 1_555
C3 N2 1_555 1_555
C4 N2 1_555 1_555
C7 N3 1_555 1_555
C8 N4 1_555 1_555
C9 N3 1_555 1_555
C10 N5 1_555 1_555
C12 N5 1_555 1_555
C12 N6 1_555 1_555
C13 N6 1_555 1_555
C34 N15 1_555 1_555
C36 N15 1_555 1_555
H13 C17 1_555 1_555
N20 C17 1_555 1_555
O1 Re1 1_555 1_555
O2 Re1 1_555 1_555
O3 Re1 1_555 1_555
O4 Re1 1_555 1_555
O1 H29 1_555 1_555
O1_2 Re1_2 1_555 1_555
O2_2 Re1_2 1_555 1_555
O3_2 Re1_2 1_555 1_555
O4_2 Re1_2 1_555 1_555
O1_2 H29_2 1_555 1_555

#END
