
###############################################################################
#
# This file contains modified crystal structure data generated from the
# MOF subset of the Cambridge Structural Database (CSD) v543 
# hosted by the Cambridge Crystallographic Data Centre (CCDC).
#
# This work is licensed under the Creative Commons
# Attribution-NonCommercial-ShareAlike 4.0 International License.
# To view a copy of this license, visit
# http://creativecommons.org/licenses/by-nc-sa/4.0/
# or send a letter to
# Creative Commons, PO Box 1866, Mountain View, CA 94042, USA.
#
# CIF created using the CSD Python API on 29 September 2022
# The structure has been converted into the P1 space group
# The structure has a 3D framework
# The original CSD entry KOBPUN is in the monoclinic crystal system
# The framework has been calculated to contain at least 10.0% void space
# The void calculation uses a probe of radius 1.32A, grid spacing 0.4
# H atom positions have been added when not included in the experimental data
#
###############################################################################

data_KOBPUN
_chemical_formula_moiety         '(C48 H56 Gd4 N12 O38)n'
_symmetry_cell_setting           triclinic
_symmetry_space_group_name_H-M   'P 1'
_symmetry_Int_Tables_number      1
_space_group_name_Hall           'P 1'
loop_
_symmetry_equiv_pos_site_id
_symmetry_equiv_pos_as_xyz
1 x,y,z
_cell_length_a                   7.644(5)
_cell_length_b                   22.262(3)
_cell_length_c                   11.148(7)
_cell_angle_alpha                90
_cell_angle_beta                 98.828(9)
_cell_angle_gamma                90
_cell_volume                     1874.59
loop_
_atom_site_label
_atom_site_type_symbol
_atom_site_fract_x
_atom_site_fract_y
_atom_site_fract_z
O6 O 0.0863(9) 0.6842(3) 0.4772(6)
Gd3 Gd 0.10511(5) 0.721183(18) 0.26633(4)
O8 O 0.3303(8) 0.7516(3) 0.1389(6)
O9 O 0.1371(9) 0.6856(3) 0.0577(6)
H12 H 0.5014 0.6775 0.0056
C12 C 0.2797(11) 0.7121(4) 0.0563(8)
Gd5 Gd 0.60511(5) 0.778817(18) 0.26633(4)
Gd1 Gd 0.39489(5) 0.221183(18) 0.73367(4)
O1 O 0.540(3) 0.7123(4) 0.7242(19)
O2 O 0.3732(11) 0.5413(3) 0.8904(7)
O3 O 0.771(3) 0.5336(5) 0.633(2)
O4 O 0.4163(8) 0.3310(3) 0.7392(6)
O5 O 0.6879(9) 0.3566(3) 0.7089(7)
O7 O 0.8648(8) 0.7369(3) 0.3896(6)
O10 O 0.5787(8) 0.1317(3) 0.7612(7)
N1 N 0.5838(14) 0.5365(4) 0.7699(10)
N2 N 0.663(4) 0.6237(5) 0.681(3)
N3 N 0.4464(17) 0.6277(4) 0.8034(10)
C1 C 0.4609(15) 0.5668(4) 0.8262(10)
C2 C 0.677(4) 0.5623(6) 0.689(2)
C3 C 0.544(4) 0.6581(6) 0.735(2)
C4 C 0.6095(14) 0.4726(5) 0.7940(12)
H1 H 0.5954 0.4644 0.8774
H2 H 0.7293 0.4616 0.7841
C5 C 0.4805(13) 0.4346(4) 0.7105(10)
H3 H 0.4781 0.4478 0.6273
H4 H 0.3625 0.4395 0.7311
C6 C 0.5330(12) 0.3691(4) 0.7214(8)
C7 C 0.687(3) 0.6557(9) 0.5446(15)
H5 H 0.6961 0.6254 0.4835
H6 H 0.5887 0.6822 0.5160
C8 C 0.825(2) 0.6837(8) 0.569(2)
H7 H 0.9018 0.6602 0.6286
H8 H 0.7969 0.7202 0.6098
C9 C 0.9324(13) 0.7020(4) 0.4742(8)
C10 C 0.3150(16) 0.6613(5) 0.8587(9)
H9 H 0.2316 0.6333 0.8854
H10 H 0.2496 0.6875 0.7982
C11 C 0.3976(15) 0.6985(5) 0.9651(10)
H11 H 0.4373 0.7361 0.9348
Gd2 Gd 0.89489(5) 0.278817(18) 0.73367(4)
O11 O 0.1879(9) 0.1434(3) 0.7089(7)
O12 O 0.4137(9) 0.1842(3) 0.5228(6)
O13 O 0.1352(8) 0.2631(3) 0.6104(6)
O14 O 0.6352(8) 0.2369(3) 0.6104(6)
O15 O 0.6697(8) 0.2484(3) 0.8611(6)
O16 O 0.1697(8) 0.2516(3) 0.8611(6)
O17 O 0.3629(9) 0.1856(3) 0.9423(6)
H13 H 0.645841 0.131198 0.84484
H14 H 0.502496 0.095433 0.748369
C12_2 C 0.2203(11) 0.2121(4) 0.9437(8)
O4_2 O 0.0837(8) 0.8310(3) 0.2608(6)
C5_2 C 0.0195(13) 0.9346(4) 0.2895(10)
H3_2 H 0.0219 0.9478 0.3727
H4_2 H 0.1375 0.9395 0.2689
O11_2 O 0.3121(9) 0.6434(3) 0.2911(7)
O13_2 O 0.3648(8) 0.7631(3) 0.3896(6)
O1_2 O 0.960(3) 0.2123(4) 0.2758(19)
O3_2 O 0.729(3) 0.0336(5) 0.367(2)
N1_2 N 0.9162(14) 0.0365(4) 0.2301(10)
N2_2 N 0.837(4) 0.1237(5) 0.319(3)
C2_2 C 0.823(4) 0.0623(6) 0.311(2)
C3_2 C 0.956(4) 0.1581(6) 0.265(2)
C7_2 C 0.813(3) 0.1557(9) 0.4554(15)
H5_2 H 0.8039 0.1254 0.5165
H6_2 H 0.9113 0.1822 0.4840
C8_2 C 0.675(2) 0.1837(8) 0.431(2)
H7_2 H 0.5982 0.1602 0.3714
H8_2 H 0.7031 0.2202 0.3902
C9_2 C 0.5676(13) 0.2020(4) 0.5258(8)
H12_2 H 0.9986 0.1775 0.9944
O5_2 O 0.8121(9) 0.8566(3) 0.2911(7)
O10_2 O 0.9213(8) 0.6317(3) 0.2388(7)
C4_2 C 0.8905(14) 0.9726(5) 0.2060(12)
H1_2 H 0.9046 0.9644 0.1226
H2_2 H 0.7707 0.9616 0.2159
C6_2 C 0.9670(12) 0.8691(4) 0.2786(8)
O15_2 O 0.8303(8) 0.7484(3) 0.1389(6)
H13_2 H 0.854159 0.631198 0.15516
H14_2 H 0.997504 0.595433 0.251631
O1_3 O 0.460(3) 0.2877(4) 0.2758(19)
O2_2 O 0.6268(11) 0.4587(3) 0.1096(7)
O3_3 O 0.229(3) 0.4664(5) 0.367(2)
O4_3 O 0.5837(8) 0.6690(3) 0.2608(6)
O10_3 O 0.4213(8) 0.8683(3) 0.2388(7)
N1_3 N 0.4162(14) 0.4635(4) 0.2301(10)
N2_3 N 0.337(4) 0.3763(5) 0.319(3)
N3_2 N 0.5536(17) 0.3723(4) 0.1966(10)
C1_2 C 0.5391(15) 0.4332(4) 0.1738(10)
C2_3 C 0.323(4) 0.4377(6) 0.311(2)
C3_3 C 0.456(4) 0.3419(6) 0.265(2)
C4_3 C 0.3905(14) 0.5274(5) 0.2060(12)
H1_3 H 0.4046 0.5356 0.1226
H2_3 H 0.2707 0.5384 0.2159
C5_3 C 0.5195(13) 0.5654(4) 0.2895(10)
H3_3 H 0.5219 0.5522 0.3727
H4_3 H 0.6375 0.5605 0.2689
C6_3 C 0.4670(12) 0.6309(4) 0.2786(8)
C7_3 C 0.313(3) 0.3443(9) 0.4554(15)
H5_3 H 0.3039 0.3746 0.5165
H6_3 H 0.4113 0.3178 0.4840
C8_3 C 0.175(2) 0.3163(8) 0.431(2)
H7_3 H 0.0982 0.3398 0.3714
H8_3 H 0.2031 0.2798 0.3902
C9_3 C 0.0676(13) 0.2980(4) 0.5258(8)
C10_2 C 0.6850(16) 0.3387(5) 0.1413(9)
H9_2 H 0.7684 0.3667 0.1146
H10_2 H 0.7504 0.3125 0.2018
C11_2 C 0.6024(15) 0.3015(5) 0.0349(10)
H11_2 H 0.5627 0.2639 0.0652
O12_2 O 0.5863(9) 0.8158(3) 0.4772(6)
O17_2 O 0.6371(9) 0.8144(3) 0.0577(6)
H13_3 H 0.354159 0.868802 0.15516
H14_3 H 0.497504 0.904567 0.251631
O9_2 O 0.8629(9) 0.3144(3) 0.9423(6)
H12_3 H 0.4986 0.3225 0.9944
C12_3 C 0.7203(11) 0.2879(4) 0.9437(8)
O6_2 O 0.9137(9) 0.3158(3) 0.5228(6)
O10_4 O 0.0787(8) 0.3683(3) 0.7612(7)
C4_4 C 0.1095(14) 0.0274(5) 0.7940(12)
H1_4 H 0.0954 0.0356 0.8774
H2_4 H 0.2293 0.0384 0.7841
C6_4 C 0.0330(12) 0.1309(4) 0.7214(8)
H13_4 H 0.145841 0.368802 0.84484
H14_4 H 0.00249635 0.404567 0.748369
H12_4 H 0.0014 0.8225 0.0056
O1_4 O 0.040(3) 0.7877(4) 0.7242(19)
O3_4 O 0.271(3) 0.9664(5) 0.633(2)
N1_4 N 0.0838(14) 0.9635(4) 0.7699(10)
N2_4 N 0.163(4) 0.8763(5) 0.681(3)
C2_4 C 0.177(4) 0.9377(6) 0.689(2)
C3_4 C 0.044(4) 0.8419(6) 0.735(2)
C7_4 C 0.187(3) 0.8443(9) 0.5446(15)
H5_4 H 0.1961 0.8746 0.4835
H6_4 H 0.0887 0.8178 0.5160
C8_4 C 0.325(2) 0.8163(8) 0.569(2)
H7_4 H 0.4018 0.8398 0.6286
H8_4 H 0.2969 0.7798 0.6098
C9_4 C 0.4324(13) 0.7980(4) 0.4742(8)
O4_4 O 0.9163(8) 0.1690(3) 0.7392(6)
C5_4 C 0.9805(13) 0.0654(4) 0.7105(10)
H3_4 H 0.9781 0.0522 0.6273
H4_4 H 0.8625 0.0605 0.7311
C12_4 C 0.7797(11) 0.7879(4) 0.0563(8)
O2_3 O 0.1268(11) 0.0413(3) 0.1096(7)
N3_3 N 0.0536(17) 0.1277(4) 0.1966(10)
C1_3 C 0.0391(15) 0.0668(4) 0.1738(10)
C10_3 C 0.1850(16) 0.1613(5) 0.1413(9)
H9_3 H 0.2684 0.1333 0.1146
H10_3 H 0.2504 0.1875 0.2018
C11_3 C 0.1024(15) 0.1985(5) 0.0349(10)
H11_3 H 0.0627 0.2361 0.0652
O2_4 O 0.8732(11) 0.9587(3) 0.8904(7)
N3_4 N 0.9464(17) 0.8723(4) 0.8034(10)
C1_4 C 0.9609(15) 0.9332(4) 0.8262(10)
C10_4 C 0.8150(16) 0.8387(5) 0.8587(9)
H9_4 H 0.7316 0.8667 0.8854
H10_4 H 0.7496 0.8125 0.7982
C11_4 C 0.8976(15) 0.8015(5) 0.9651(10)
H11_4 H 0.9373 0.7639 0.9348
loop_
_geom_bond_atom_site_label_1
_geom_bond_atom_site_label_2
_geom_bond_site_symmetry_1
_geom_bond_site_symmetry_2
Gd3 O6 1_555 1_555
O8 C12 1_555 1_555
O9 C12 1_555 1_555
Gd5 O8 1_555 1_555
Gd3 O8 1_555 1_555
O9 Gd3 1_555 1_555
Gd1 O4 1_555 1_555
O1 C3 1_555 1_555
O2 C1 1_555 1_555
O3 C2 1_555 1_555
O4 C6 1_555 1_555
O5 C6 1_555 1_555
O7 C9 1_555 1_555
O10 Gd1 1_555 1_555
N1 C1 1_555 1_555
N2 C2 1_555 1_555
N3 C1 1_555 1_555
C2 N1 1_555 1_555
C3 N2 1_555 1_555
C4 N1 1_555 1_555
H1 C4 1_555 1_555
H2 C4 1_555 1_555
C5 C4 1_555 1_555
H3 C5 1_555 1_555
H4 C5 1_555 1_555
C6 C5 1_555 1_555
C7 N2 1_555 1_555
H5 C7 1_555 1_555
H6 C7 1_555 1_555
C8 C7 1_555 1_555
H7 C8 1_555 1_555
H8 C8 1_555 1_555
C9 C8 1_555 1_555
C10 N3 1_555 1_555
H9 C10 1_555 1_555
H10 C10 1_555 1_555
C11 C10 1_555 1_555
H11 C11 1_555 1_555
Gd2 O5 1_555 1_555
Gd5 O7 1_555 1_555
O11 Gd1 1_555 1_555
O12 Gd1 1_555 1_555
O13 Gd1 1_555 1_555
O14 Gd1 1_555 1_555
O15 Gd1 1_555 1_555
O16 Gd1 1_555 1_555
O17 Gd1 1_555 1_555
N3 C3 1_555 1_555
Gd2 O14 1_555 1_555
Gd2 O15 1_555 1_555
O10 H13 1_555 1_555
O10 H14 1_555 1_555
O16 C12_2 1_555 1_555
O17 C12_2 1_555 1_555
Gd3 O4_2 1_555 1_555
H3_2 C5_2 1_555 1_555
H4_2 C5_2 1_555 1_555
O11_2 Gd3 1_555 1_555
O13_2 Gd3 1_555 1_555
O1_2 C3_2 1_555 1_555
O3_2 C2_2 1_555 1_555
O12 C9_2 1_555 1_555
O14 C9_2 1_555 1_555
N2_2 C2_2 1_555 1_555
C2_2 N1_2 1_555 1_555
C3_2 N2_2 1_555 1_555
C7_2 N2_2 1_555 1_555
H5_2 C7_2 1_555 1_555
H6_2 C7_2 1_555 1_555
C8_2 C7_2 1_555 1_555
H7_2 C8_2 1_555 1_555
H8_2 C8_2 1_555 1_555
C9_2 C8_2 1_555 1_555
O5_2 C6_2 1_555 1_555
H1_2 C4_2 1_555 1_555
H2_2 C4_2 1_555 1_555
Gd5 O5_2 1_555 1_555
Gd5 O15_2 1_555 1_555
O10_2 H13_2 1_555 1_555
O10_2 H14_2 1_555 1_555
Gd5 O4_3 1_555 1_555
O1_3 C3_3 1_555 1_555
O2_2 C1_2 1_555 1_555
O3_3 C2_3 1_555 1_555
O4_3 C6_3 1_555 1_555
O11_2 C6_3 1_555 1_555
O13 C9_3 1_555 1_555
O10_3 Gd5 1_555 1_555
N1_3 C1_2 1_555 1_555
N2_3 C2_3 1_555 1_555
N3_2 C1_2 1_555 1_555
C2_3 N1_3 1_555 1_555
C3_3 N2_3 1_555 1_555
C4_3 N1_3 1_555 1_555
H1_3 C4_3 1_555 1_555
H2_3 C4_3 1_555 1_555
C5_3 C4_3 1_555 1_555
H3_3 C5_3 1_555 1_555
H4_3 C5_3 1_555 1_555
C6_3 C5_3 1_555 1_555
C7_3 N2_3 1_555 1_555
H5_3 C7_3 1_555 1_555
H6_3 C7_3 1_555 1_555
C8_3 C7_3 1_555 1_555
H7_3 C8_3 1_555 1_555
H8_3 C8_3 1_555 1_555
C9_3 C8_3 1_555 1_555
C10_2 N3_2 1_555 1_555
H9_2 C10_2 1_555 1_555
H10_2 C10_2 1_555 1_555
C11_2 C10_2 1_555 1_555
H11_2 C11_2 1_555 1_555
O12_2 Gd5 1_555 1_555
O13_2 Gd5 1_555 1_555
O17_2 Gd5 1_555 1_555
N3_2 C3_3 1_555 1_555
O10_3 H13_3 1_555 1_555
O10_3 H14_3 1_555 1_555
O15 C12_3 1_555 1_555
O9_2 C12_3 1_555 1_555
O9_2 Gd2 1_555 1_555
Gd2 O6_2 1_555 1_555
O11 C6_4 1_555 1_555
H1_4 C4_4 1_555 1_555
H2_4 C4_4 1_555 1_555
O10_4 H13_4 1_555 1_555
O10_4 H14_4 1_555 1_555
O1_4 C3_4 1_555 1_555
O3_4 C2_4 1_555 1_555
O12_2 C9_4 1_555 1_555
O13_2 C9_4 1_555 1_555
N2_4 C2_4 1_555 1_555
C2_4 N1_4 1_555 1_555
C3_4 N2_4 1_555 1_555
C7_4 N2_4 1_555 1_555
H5_4 C7_4 1_555 1_555
H6_4 C7_4 1_555 1_555
C8_4 C7_4 1_555 1_555
H7_4 C8_4 1_555 1_555
H8_4 C8_4 1_555 1_555
C9_4 C8_4 1_555 1_555
Gd2 O4_4 1_555 1_555
H3_4 C5_4 1_555 1_555
H4_4 C5_4 1_555 1_555
O15_2 C12_4 1_555 1_555
O17_2 C12_4 1_555 1_555
O2_3 C1_3 1_555 1_555
N3_3 C1_3 1_555 1_555
C10_3 N3_3 1_555 1_555
H9_3 C10_3 1_555 1_555
H10_3 C10_3 1_555 1_555
C11_3 C10_3 1_555 1_555
H11_3 C11_3 1_555 1_555
O2_4 C1_4 1_555 1_555
N3_4 C1_4 1_555 1_555
C10_4 N3_4 1_555 1_555
H9_4 C10_4 1_555 1_555
H10_4 C10_4 1_555 1_555
C11_4 C10_4 1_555 1_555
H11_4 C11_4 1_555 1_555

#END
