
###############################################################################
#
# This file contains modified crystal structure data generated from the
# MOF subset of the Cambridge Structural Database (CSD) v543 
# hosted by the Cambridge Crystallographic Data Centre (CCDC).
#
# This work is licensed under the Creative Commons
# Attribution-NonCommercial-ShareAlike 4.0 International License.
# To view a copy of this license, visit
# http://creativecommons.org/licenses/by-nc-sa/4.0/
# or send a letter to
# Creative Commons, PO Box 1866, Mountain View, CA 94042, USA.
#
# CIF created using the CSD Python API on 29 September 2022
# The structure has been converted into the P1 space group
# The structure has a 3D framework
# The original CSD entry KOBQUQ is in the orthorhombic crystal system
# The framework has been calculated to contain at least 10.0% void space
# The void calculation uses a probe of radius 1.32A, grid spacing 0.4
#
###############################################################################

data_KOBQUQ
_chemical_formula_moiety         '(C84 H112 Cu8 I4 N36)n'
_symmetry_cell_setting           triclinic
_symmetry_space_group_name_H-M   'P 1'
_symmetry_Int_Tables_number      1
_space_group_name_Hall           'P 1'
loop_
_symmetry_equiv_pos_site_id
_symmetry_equiv_pos_as_xyz
1 x,y,z
_cell_length_a                   11.3387(14)
_cell_length_b                   16.651(2)
_cell_length_c                   14.9990(17)
_cell_angle_alpha                90
_cell_angle_beta                 90
_cell_angle_gamma                90
_cell_volume                     2831.82
loop_
_atom_site_label
_atom_site_type_symbol
_atom_site_fract_x
_atom_site_fract_y
_atom_site_fract_z
Cu1 Cu 0.18929(7) 0.2500 0.01831(5)
Cu2 Cu 0.06907(7) 0.2500 0.31627(6)
N1 N 0.1787(3) 0.3460(2) 0.3081(2)
N2 N 0.2400(3) 0.3655(2) 0.2347(2)
H1 H 0.2377 0.3381 0.1860
N3 N 0.3400(3) 0.6490(2) 0.4448(3)
C1 C 0.4499(4) 0.5467(3) 0.3925(3)
C2 C 0.2068(4) 0.4021(3) 0.3675(3)
C3 C 0.3332(4) 0.5300(3) 0.3737(3)
C4 C 0.3051(4) 0.4318(3) 0.2449(3)
N4 N 0.4501(3) 0.6186(2) 0.4345(3)
H2 H 0.5131 0.6424 0.4526
C5 C 0.2853(3) 0.4584(3) 0.3304(3)
C6 C 0.1397(4) 0.6105(4) 0.4015(4)
H3 H 0.1082 0.6173 0.4604
H4 H 0.1021 0.5655 0.3732
H5 H 0.1255 0.6582 0.3672
C7 C 0.2691(4) 0.5956(3) 0.4073(3)
C8 C 0.5593(5) 0.5022(4) 0.3728(4)
H6 H 0.5405 0.4471 0.3603
H7 H 0.6111 0.5049 0.4233
H8 H 0.5974 0.5256 0.3219
C9 C 0.3822(5) 0.4635(3) 0.1721(3)
H9 H 0.4597 0.4408 0.1776
H10 H 0.3871 0.5209 0.1767
H11 H 0.3493 0.4492 0.1153
C10 C 0.1597(5) 0.3974(4) 0.4602(3)
H12 H 0.1255 0.3454 0.4699
H13 H 0.1006 0.4380 0.4684
H14 H 0.2227 0.4058 0.5019
N5 N 0.3389(5) 0.2500 0.0806(4)
C11 C 0.4292(5) 0.2500 0.1173(4)
N6 N 0.1787(3) 0.1540(2) 0.3081(2)
N7 N 0.2400(3) 0.1345(2) 0.2347(2)
H15 H 0.2377 0.1619 0.1860
C13 C 0.2068(4) 0.0979(3) 0.3675(3)
C15 C 0.3051(4) 0.0682(3) 0.2449(3)
C16 C 0.2853(3) 0.0416(3) 0.3304(3)
H20 H 0.5405 0.0529 0.3603
C20 C 0.3822(5) 0.0365(3) 0.1721(3)
H23 H 0.4597 0.0592 0.1776
H25 H 0.3493 0.0508 0.1153
C21 C 0.1597(5) 0.1026(4) 0.4602(3)
H26 H 0.1255 0.1546 0.4699
H27 H 0.1006 0.0620 0.4684
H28 H 0.2227 0.0942 0.5019
Cu4 Cu 0.31071(7) 0.7500 0.51831(5)
Cu5 Cu 0.56907(7) 0.2500 0.18373(6)
N10 N 0.1600(3) 0.3510(2) 0.9448(3)
N11 N 0.1600(3) 0.1490(2) 0.9448(3)
N8 N 0.3400(3) 0.8510(2) 0.4448(3)
C12 C 0.4499(4) 0.9533(3) 0.3925(3)
C14 C 0.3332(4) 0.9700(3) 0.3737(3)
N9 N 0.4501(3) 0.8814(2) 0.4345(3)
H16 H 0.5131 0.8576 0.4526
C17 C 0.1397(4) 0.8895(4) 0.4015(4)
H17 H 0.1082 0.8827 0.4604
H18 H 0.1021 0.9345 0.3732
H19 H 0.1255 0.8418 0.3672
C18 C 0.2691(4) 0.9044(3) 0.4073(3)
C19 C 0.5593(5) 0.9978(4) 0.3728(4)
H21 H 0.6111 0.9951 0.4233
H22 H 0.5974 0.9744 0.3219
H24 H 0.3871 0.9791 0.1767
I1 I 0.99626(4) 0.2500 0.12509(3)
C22 C 0.9292(5) 0.2500 0.3827(4)
C12_2 C 0.0501(4) 0.0467(3) 0.8925(3)
C14_2 C 0.1668(4) 0.0300(3) 0.8737(3)
N9_2 N 0.0499(3) 0.1186(2) 0.9345(3)
C17_2 C 0.3603(4) 0.1105(4) 0.9015(4)
H17_2 H 0.3918 0.1173 0.9604
H18_2 H 0.3979 0.0655 0.8732
H19_2 H 0.3745 0.1582 0.8672
C18_2 C 0.2309(4) 0.0956(3) 0.9073(3)
H24_2 H 0.1129 0.0209 0.6767
H14_2 H 0.2773 0.5942 0.0019
H28_2 H 0.2773 0.9058 0.0019
I1_2 I 0.50374(4) 0.7500 0.62509(3)
Cu2_2 Cu 0.43093(7) 0.7500 0.81627(6)
N1_2 N 0.3213(3) 0.6540(2) 0.8081(2)
N2_2 N 0.2600(3) 0.6345(2) 0.7347(2)
H1_2 H 0.2623 0.6619 0.6860
C1_2 C 0.0501(4) 0.4533(3) 0.8925(3)
C2_2 C 0.2932(4) 0.5979(3) 0.8675(3)
C3_2 C 0.1668(4) 0.4700(3) 0.8737(3)
C4_2 C 0.1949(4) 0.5682(3) 0.7449(3)
N4_2 N 0.0499(3) 0.3814(2) 0.9345(3)
C5_2 C 0.2147(3) 0.5416(3) 0.8304(3)
C6_2 C 0.3603(4) 0.3895(4) 0.9015(4)
H3_2 H 0.3918 0.3827 0.9604
H4_2 H 0.3979 0.4345 0.8732
H5_2 H 0.3745 0.3418 0.8672
C7_2 C 0.2309(4) 0.4044(3) 0.9073(3)
C9_2 C 0.1178(5) 0.5365(3) 0.6721(3)
H9_2 H 0.0403 0.5592 0.6776
H10_2 H 0.1129 0.4791 0.6767
H11_2 H 0.1507 0.5508 0.6153
C10_2 C 0.3403(5) 0.6026(4) 0.9602(3)
H12_2 H 0.3745 0.6546 0.9699
H13_2 H 0.3994 0.5620 0.9684
N5_2 N 0.1611(5) 0.7500 0.5806(4)
C11_2 C 0.0708(5) 0.7500 0.6173(4)
N6_2 N 0.3213(3) 0.8460(2) 0.8081(2)
N7_2 N 0.2600(3) 0.8655(2) 0.7347(2)
H15_2 H 0.2623 0.8381 0.6860
C13_2 C 0.2932(4) 0.9021(3) 0.8675(3)
C15_2 C 0.1949(4) 0.9318(3) 0.7449(3)
C16_2 C 0.2147(3) 0.9584(3) 0.8304(3)
C20_2 C 0.1178(5) 0.9635(3) 0.6721(3)
H23_2 H 0.0403 0.9408 0.6776
H25_2 H 0.1507 0.9492 0.6153
C21_2 C 0.3403(5) 0.8974(4) 0.9602(3)
H26_2 H 0.3745 0.8454 0.9699
H27_2 H 0.3994 0.9380 0.9684
C22_2 C 0.5708(5) 0.7500 0.8827(4)
H2_2 H 0.9869 0.3576 0.9526
C8_2 C 0.9407(5) 0.4978(4) 0.8728(4)
H6_2 H 0.9595 0.5529 0.8603
H7_2 H 0.8889 0.4951 0.9233
H8_2 H 0.9026 0.4744 0.8219
H20_2 H 0.9595 0.9471 0.8603
Cu5_2 Cu 0.93093(7) 0.7500 0.68373(6)
I1_3 I 0.00374(4) 0.7500 0.87491(3)
N3_2 N 0.6600(3) 0.1490(2) 0.5552(3)
C1_3 C 0.5501(4) 0.0467(3) 0.6075(3)
C3_3 C 0.6668(4) 0.0300(3) 0.6263(3)
N4_3 N 0.5499(3) 0.1186(2) 0.5655(3)
H2_3 H 0.4869 0.1424 0.5474
C6_3 C 0.8603(4) 0.1105(4) 0.5985(4)
H3_3 H 0.8918 0.1173 0.5396
H4_3 H 0.8979 0.0655 0.6268
H5_3 H 0.8745 0.1582 0.6328
C7_3 C 0.7309(4) 0.0956(3) 0.5927(3)
C8_3 C 0.4407(5) 0.0022(4) 0.6272(4)
H7_3 H 0.3889 0.0049 0.5767
H8_3 H 0.4026 0.0256 0.6781
H10_3 H 0.6129 0.0209 0.8233
Cu4_2 Cu 0.68929(7) 0.2500 0.48169(5)
N10_2 N 0.8400(3) 0.8510(2) 0.0552(3)
N11_2 N 0.8400(3) 0.6490(2) 0.0552(3)
Cu1_2 Cu 0.81071(7) 0.7500 0.98169(5)
N1_3 N 0.8213(3) 0.8460(2) 0.6919(2)
N2_3 N 0.7600(3) 0.8655(2) 0.7653(2)
H1_3 H 0.7623 0.8381 0.8140
C2_3 C 0.7932(4) 0.9021(3) 0.6325(3)
C4_3 C 0.6949(4) 0.9318(3) 0.7551(3)
C5_3 C 0.7147(3) 0.9584(3) 0.6696(3)
H6_3 H 0.4595 0.9471 0.6397
C9_3 C 0.6178(5) 0.9635(3) 0.8279(3)
H9_3 H 0.5403 0.9408 0.8224
H11_3 H 0.6507 0.9492 0.8847
C10_3 C 0.8403(5) 0.8974(4) 0.5398(3)
H12_3 H 0.8745 0.8454 0.5301
H13_3 H 0.8994 0.9380 0.5316
H14_3 H 0.7773 0.9058 0.4981
N5_3 N 0.6611(5) 0.7500 0.9194(4)
N6_3 N 0.8213(3) 0.6540(2) 0.6919(2)
N7_3 N 0.7600(3) 0.6345(2) 0.7653(2)
H15_3 H 0.7623 0.6619 0.8140
N8_2 N 0.6600(3) 0.3510(2) 0.5552(3)
C12_3 C 0.5501(4) 0.4533(3) 0.6075(3)
C13_3 C 0.7932(4) 0.5979(3) 0.6325(3)
C14_3 C 0.6668(4) 0.4700(3) 0.6263(3)
C15_3 C 0.6949(4) 0.5682(3) 0.7551(3)
N9_3 N 0.5499(3) 0.3814(2) 0.5655(3)
H16_2 H 0.4869 0.3576 0.5474
C16_3 C 0.7147(3) 0.5416(3) 0.6696(3)
C17_3 C 0.8603(4) 0.3895(4) 0.5985(4)
H17_3 H 0.8918 0.3827 0.5396
H18_3 H 0.8979 0.4345 0.6268
H19_3 H 0.8745 0.3418 0.6328
C18_3 C 0.7309(4) 0.4044(3) 0.5927(3)
C19_2 C 0.4407(5) 0.4978(4) 0.6272(4)
H20_3 H 0.4595 0.5529 0.6397
H21_2 H 0.3889 0.4951 0.5767
H22_2 H 0.4026 0.4744 0.6781
C20_3 C 0.6178(5) 0.5365(3) 0.8279(3)
H23_3 H 0.5403 0.5592 0.8224
H24_3 H 0.6129 0.4791 0.8233
H25_3 H 0.6507 0.5508 0.8847
C21_3 C 0.8403(5) 0.6026(4) 0.5398(3)
H26_3 H 0.8745 0.6546 0.5301
H27_3 H 0.8994 0.5620 0.5316
H28_3 H 0.7773 0.5942 0.4981
H6_4 H 0.0405 0.0529 0.1397
H16_3 H 0.0131 0.6424 0.0474
C19_3 C 0.0593(5) 0.5022(4) 0.1272(4)
H20_4 H 0.0405 0.4471 0.1397
H21_3 H 0.1111 0.5049 0.0767
H22_3 H 0.0974 0.5256 0.1781
I1_4 I 0.49626(4) 0.2500 0.37491(3)
N1_4 N 0.6787(3) 0.1540(2) 0.1919(2)
N2_4 N 0.7400(3) 0.1345(2) 0.2653(2)
H1_4 H 0.7377 0.1619 0.3140
C2_4 C 0.7068(4) 0.0979(3) 0.1325(3)
C4_4 C 0.8051(4) 0.0682(3) 0.2551(3)
C5_4 C 0.7853(3) 0.0416(3) 0.1696(3)
C9_4 C 0.8822(5) 0.0365(3) 0.3279(3)
H9_4 H 0.9597 0.0592 0.3224
H11_4 H 0.8493 0.0508 0.3847
C10_4 C 0.6597(5) 0.1026(4) 0.0398(3)
H12_4 H 0.6255 0.1546 0.0301
H13_4 H 0.6006 0.0620 0.0316
N5_4 N 0.8389(5) 0.2500 0.4194(4)
N6_4 N 0.6787(3) 0.3460(2) 0.1919(2)
N7_4 N 0.7400(3) 0.3655(2) 0.2653(2)
H15_4 H 0.7377 0.3381 0.3140
C12_4 C 0.9499(4) 0.5467(3) 0.1075(3)
C13_4 C 0.7068(4) 0.4021(3) 0.1325(3)
C14_4 C 0.8332(4) 0.5300(3) 0.1263(3)
C15_4 C 0.8051(4) 0.4318(3) 0.2551(3)
N9_4 N 0.9501(3) 0.6186(2) 0.0655(3)
C16_4 C 0.7853(3) 0.4584(3) 0.1696(3)
C17_4 C 0.6397(4) 0.6105(4) 0.0985(4)
H17_4 H 0.6082 0.6173 0.0396
H18_4 H 0.6021 0.5655 0.1268
H19_4 H 0.6255 0.6582 0.1328
C18_4 C 0.7691(4) 0.5956(3) 0.0927(3)
C20_4 C 0.8822(5) 0.4635(3) 0.3279(3)
H23_4 H 0.9597 0.4408 0.3224
H24_4 H 0.8871 0.5209 0.3233
H25_4 H 0.8493 0.4492 0.3847
C21_4 C 0.6597(5) 0.3974(4) 0.0398(3)
H26_4 H 0.6255 0.3454 0.0301
H27_4 H 0.6006 0.4380 0.0316
H14_4 H 0.7227 0.0942 0.9981
H28_4 H 0.7227 0.4058 0.9981
C1_4 C 0.9499(4) 0.9533(3) 0.1075(3)
C3_4 C 0.8332(4) 0.9700(3) 0.1263(3)
N4_4 N 0.9501(3) 0.8814(2) 0.0655(3)
C6_4 C 0.6397(4) 0.8895(4) 0.0985(4)
H3_4 H 0.6082 0.8827 0.0396
H4_4 H 0.6021 0.9345 0.1268
H5_4 H 0.6255 0.8418 0.1328
C7_4 C 0.7691(4) 0.9044(3) 0.0927(3)
H10_4 H 0.8871 0.9791 0.3233
H16_4 H 0.9869 0.1424 0.9526
C19_4 C 0.9407(5) 0.0022(4) 0.8728(4)
H21_4 H 0.8889 0.0049 0.9233
H22_4 H 0.9026 0.0256 0.8219
H2_4 H 0.0131 0.8576 0.0474
C8_4 C 0.0593(5) 0.9978(4) 0.1272(4)
H7_4 H 0.1111 0.9951 0.0767
H8_4 H 0.0974 0.9744 0.1781
loop_
_geom_bond_atom_site_label_1
_geom_bond_atom_site_label_2
_geom_bond_site_symmetry_1
_geom_bond_site_symmetry_2
Cu1 N5 1_555 1_555
N1 Cu2 1_555 1_555
N2 N1 1_555 1_555
H1 N2 1_555 1_555
N3 N4 1_555 1_555
C1 C3 1_555 1_555
C2 N1 1_555 1_555
C3 C5 1_555 1_555
C4 N2 1_555 1_555
N4 C1 1_555 1_555
H2 N4 1_555 1_555
C5 C2 1_555 1_555
C6 H3 1_555 1_555
H4 C6 1_555 1_555
H5 C6 1_555 1_555
C7 N3 1_555 1_555
C8 C1 1_555 1_555
H6 C8 1_555 1_555
H7 C8 1_555 1_555
H8 C8 1_555 1_555
C9 C4 1_555 1_555
H9 C9 1_555 1_555
H10 C9 1_555 1_555
H11 C9 1_555 1_555
C10 C2 1_555 1_555
H12 C10 1_555 1_555
H13 C10 1_555 1_555
H14 C10 1_555 1_555
N5 C11 1_555 1_555
C11 Cu5 1_555 1_555
N6 Cu2 1_555 1_555
N7 N6 1_555 1_555
H15 N7 1_555 1_555
C13 N6 1_555 1_555
C15 N7 1_555 1_555
C16 C13 1_555 1_555
C20 C15 1_555 1_555
H23 C20 1_555 1_555
H25 C20 1_555 1_555
C21 C13 1_555 1_555
H26 C21 1_555 1_555
H27 C21 1_555 1_555
H28 C21 1_555 1_555
Cu4 N3 1_555 1_555
C3 C7 1_555 1_555
C4 C5 1_555 1_555
C6 C7 1_555 1_555
C15 C16 1_555 1_555
N8 N9 1_555 1_555
C12 C14 1_555 1_555
N9 C12 1_555 1_555
H16 N9 1_555 1_555
C17 H17 1_555 1_555
H18 C17 1_555 1_555
H19 C17 1_555 1_555
C18 N8 1_555 1_555
C19 C12 1_555 1_555
H21 C19 1_555 1_555
H22 C19 1_555 1_555
Cu4 N8 1_555 1_555
C14 C18 1_555 1_555
C17 C18 1_555 1_555
N11 N9_2 1_555 1_555
C12_2 C14_2 1_555 1_555
N9_2 C12_2 1_555 1_555
C17_2 H17_2 1_555 1_555
H18_2 C17_2 1_555 1_555
H19_2 C17_2 1_555 1_555
C18_2 N11 1_555 1_555
C14_2 C18_2 1_555 1_555
C17_2 C18_2 1_555 1_555
I1_2 Cu4 1_555 1_555
Cu4 N5_2 1_555 1_555
Cu2_2 I1_2 1_555 1_555
N1_2 Cu2_2 1_555 1_555
N2_2 N1_2 1_555 1_555
H1_2 N2_2 1_555 1_555
N10 N4_2 1_555 1_555
C1_2 C3_2 1_555 1_555
C2_2 N1_2 1_555 1_555
C3_2 C5_2 1_555 1_555
C4_2 N2_2 1_555 1_555
N4_2 C1_2 1_555 1_555
C5_2 C2_2 1_555 1_555
C6_2 H3_2 1_555 1_555
H4_2 C6_2 1_555 1_555
H5_2 C6_2 1_555 1_555
C7_2 N10 1_555 1_555
C9_2 C4_2 1_555 1_555
H9_2 C9_2 1_555 1_555
H10_2 C9_2 1_555 1_555
H11_2 C9_2 1_555 1_555
C10_2 C2_2 1_555 1_555
H12_2 C10_2 1_555 1_555
H13_2 C10_2 1_555 1_555
N5_2 C11_2 1_555 1_555
N6_2 Cu2_2 1_555 1_555
N7_2 N6_2 1_555 1_555
H15_2 N7_2 1_555 1_555
C13_2 N6_2 1_555 1_555
C15_2 N7_2 1_555 1_555
C16_2 C13_2 1_555 1_555
C20_2 C15_2 1_555 1_555
H23_2 C20_2 1_555 1_555
H25_2 C20_2 1_555 1_555
C21_2 C13_2 1_555 1_555
H26_2 C21_2 1_555 1_555
H27_2 C21_2 1_555 1_555
C22_2 Cu2_2 1_555 1_555
C3_2 C7_2 1_555 1_555
C4_2 C5_2 1_555 1_555
C6_2 C7_2 1_555 1_555
C15_2 C16_2 1_555 1_555
H6_2 C8_2 1_555 1_555
H7_2 C8_2 1_555 1_555
H8_2 C8_2 1_555 1_555
N3_2 N4_3 1_555 1_555
C1_3 C3_3 1_555 1_555
N4_3 C1_3 1_555 1_555
H2_3 N4_3 1_555 1_555
C6_3 H3_3 1_555 1_555
H4_3 C6_3 1_555 1_555
H5_3 C6_3 1_555 1_555
C7_3 N3_2 1_555 1_555
C8_3 C1_3 1_555 1_555
H7_3 C8_3 1_555 1_555
H8_3 C8_3 1_555 1_555
Cu4_2 N3_2 1_555 1_555
C3_3 C7_3 1_555 1_555
C6_3 C7_3 1_555 1_555
Cu1_2 N5_3 1_555 1_555
N1_3 Cu5_2 1_555 1_555
N2_3 N1_3 1_555 1_555
H1_3 N2_3 1_555 1_555
C2_3 N1_3 1_555 1_555
C4_3 N2_3 1_555 1_555
C5_3 C2_3 1_555 1_555
C9_3 C4_3 1_555 1_555
H9_3 C9_3 1_555 1_555
H11_3 C9_3 1_555 1_555
C10_3 C2_3 1_555 1_555
H12_3 C10_3 1_555 1_555
H13_3 C10_3 1_555 1_555
H14_3 C10_3 1_555 1_555
N5_3 C22_2 1_555 1_555
N6_3 Cu5_2 1_555 1_555
N7_3 N6_3 1_555 1_555
H15_3 N7_3 1_555 1_555
N8_2 N9_3 1_555 1_555
C12_3 C14_3 1_555 1_555
C13_3 N6_3 1_555 1_555
C14_3 C16_3 1_555 1_555
C15_3 N7_3 1_555 1_555
N9_3 C12_3 1_555 1_555
H16_2 N9_3 1_555 1_555
C16_3 C13_3 1_555 1_555
C17_3 H17_3 1_555 1_555
H18_3 C17_3 1_555 1_555
H19_3 C17_3 1_555 1_555
C18_3 N8_2 1_555 1_555
C19_2 C12_3 1_555 1_555
H20_3 C19_2 1_555 1_555
H21_2 C19_2 1_555 1_555
H22_2 C19_2 1_555 1_555
C20_3 C15_3 1_555 1_555
H23_3 C20_3 1_555 1_555
H24_3 C20_3 1_555 1_555
H25_3 C20_3 1_555 1_555
C21_3 C13_3 1_555 1_555
H26_3 C21_3 1_555 1_555
H27_3 C21_3 1_555 1_555
H28_3 C21_3 1_555 1_555
Cu4_2 N8_2 1_555 1_555
C4_3 C5_3 1_555 1_555
C14_3 C18_3 1_555 1_555
C15_3 C16_3 1_555 1_555
C17_3 C18_3 1_555 1_555
H20_4 C19_3 1_555 1_555
H21_3 C19_3 1_555 1_555
H22_3 C19_3 1_555 1_555
I1_4 Cu4_2 1_555 1_555
Cu4_2 N5_4 1_555 1_555
Cu5 I1_4 1_555 1_555
N1_4 Cu5 1_555 1_555
N2_4 N1_4 1_555 1_555
H1_4 N2_4 1_555 1_555
C2_4 N1_4 1_555 1_555
C4_4 N2_4 1_555 1_555
C5_4 C2_4 1_555 1_555
C9_4 C4_4 1_555 1_555
H9_4 C9_4 1_555 1_555
H11_4 C9_4 1_555 1_555
C10_4 C2_4 1_555 1_555
H12_4 C10_4 1_555 1_555
H13_4 C10_4 1_555 1_555
N5_4 C22 1_555 1_555
N6_4 Cu5 1_555 1_555
N7_4 N6_4 1_555 1_555
H15_4 N7_4 1_555 1_555
N11_2 N9_4 1_555 1_555
C12_4 C14_4 1_555 1_555
C13_4 N6_4 1_555 1_555
C14_4 C16_4 1_555 1_555
C15_4 N7_4 1_555 1_555
N9_4 C12_4 1_555 1_555
C16_4 C13_4 1_555 1_555
C17_4 H17_4 1_555 1_555
H18_4 C17_4 1_555 1_555
H19_4 C17_4 1_555 1_555
C18_4 N11_2 1_555 1_555
C20_4 C15_4 1_555 1_555
H23_4 C20_4 1_555 1_555
H24_4 C20_4 1_555 1_555
H25_4 C20_4 1_555 1_555
C21_4 C13_4 1_555 1_555
H26_4 C21_4 1_555 1_555
H27_4 C21_4 1_555 1_555
C4_4 C5_4 1_555 1_555
C14_4 C18_4 1_555 1_555
C15_4 C16_4 1_555 1_555
C17_4 C18_4 1_555 1_555
N10_2 N4_4 1_555 1_555
C1_4 C3_4 1_555 1_555
N4_4 C1_4 1_555 1_555
C6_4 H3_4 1_555 1_555
H4_4 C6_4 1_555 1_555
H5_4 C6_4 1_555 1_555
C7_4 N10_2 1_555 1_555
C3_4 C7_4 1_555 1_555
C6_4 C7_4 1_555 1_555
H21_4 C19_4 1_555 1_555
H22_4 C19_4 1_555 1_555
H7_4 C8_4 1_555 1_555
H8_4 C8_4 1_555 1_555

#END
