
###############################################################################
#
# This file contains modified crystal structure data generated from the
# MOF subset of the Cambridge Structural Database (CSD) v543 
# hosted by the Cambridge Crystallographic Data Centre (CCDC).
#
# This work is licensed under the Creative Commons
# Attribution-NonCommercial-ShareAlike 4.0 International License.
# To view a copy of this license, visit
# http://creativecommons.org/licenses/by-nc-sa/4.0/
# or send a letter to
# Creative Commons, PO Box 1866, Mountain View, CA 94042, USA.
#
# CIF created using the CSD Python API on 29 September 2022
# The structure has been converted into the P1 space group
# The structure has a 3D framework
# The original CSD entry KODWIM is in the triclinic crystal system
# The framework has been calculated to contain at least 10.0% void space
# The void calculation uses a probe of radius 1.32A, grid spacing 0.4
#
###############################################################################

data_KODWIM
_chemical_formula_moiety         '(C104 H72 Mn2 N16 O10 S2)n'
_symmetry_cell_setting           triclinic
_symmetry_space_group_name_H-M   'P 1'
_symmetry_Int_Tables_number      1
_space_group_name_Hall           'P 1'
loop_
_symmetry_equiv_pos_site_id
_symmetry_equiv_pos_as_xyz
1 x,y,z
_cell_length_a                   12.951(2)
_cell_length_b                   14.235(2)
_cell_length_c                   14.375(2)
_cell_angle_alpha                90.015(2)
_cell_angle_beta                 108.181(2)
_cell_angle_gamma                99.368(2)
_cell_volume                     2480.57
loop_
_atom_site_label
_atom_site_type_symbol
_atom_site_fract_x
_atom_site_fract_y
_atom_site_fract_z
O5 O 0.60361(18) 0.27154(15) 0.00882(14)
Mn5 Mn 0.74476(4) 0.29058(3) 0.14174(3)
O1 O 0.9365(3) 0.43662(17) 0.35569(17)
O2 O 0.86926(19) 0.29359(15) 0.28096(14)
N1 N 0.8184(2) 0.17971(17) 0.08485(17)
C14 C 0.9572(2) 0.3034(2) 0.4515(2)
C20 C 0.9857(3) 0.3568(2) 0.5389(2)
H5 H 0.980257 0.421168 0.537624
C21 C 0.9183(3) 0.3497(2) 0.3546(2)
C28 C 0.8689(3) 0.1120(3) 0.1388(2)
H12 H 0.901805 0.116708 0.206470
C30 C 0.9660(3) 0.2082(2) 0.4542(2)
H14 H 0.947382 0.171701 0.395872
C44 C 0.8641(4) 0.0375(3) 0.0796(2)
N9 N 0.8318(2) 0.41724(18) 0.08345(17)
N10 N 0.6541(2) 0.39116(18) 0.19305(17)
N11 N 0.6519(2) 0.16256(18) 0.19673(18)
N2 N 0.8105(2) 0.05905(18) 0.98675(17)
N8 N 0.6264(2) 0.04596(17) 0.29216(17)
C2 C 0.5800(3) 0.0879(3) 0.1417(2)
H1 H 0.547224 0.086692 0.074090
C7 C 0.6776(3) 0.1343(2) 0.2866(2)
H2 H 0.726175 0.171491 0.340589
C16 C 0.7831(3) 0.0001(2) 0.8981(2)
C22 C 0.7849(3) 0.1453(2) 0.9935(2)
H6 H 0.747855 0.177107 0.940126
C24 C 0.8337(4) 0.0240(3) 0.8323(3)
H8 H 0.887374 0.078509 0.843795
H27 H 0.807837 0.006343 0.408044
C52 C 0.5629(3) 0.0158(3) 0.1987(3)
C29 C 0.9110(3) 0.5669(2) 0.0748(2)
H13 H 0.954331 0.627058 0.091750
C40 C 0.9051(3) 0.4951(2) 0.1347(2)
H24 H 0.944740 0.497743 0.201179
H28 H 0.891990 0.981758 0.098402
N4 N 0.8408(2) 0.53405(17) 0.98380(17)
N6 N 0.6291(2) 0.49951(17) 0.28944(17)
C1 C 0.7465(3) 0.68489(19) 0.7277(2)
C3 C 0.8109(3) 0.5863(2) 0.8971(2)
C4 C 0.7057(3) 0.8282(2) 0.6341(2)
C5 C 0.7101(2) 0.7352(2) 0.6344(2)
C8 C 0.6848(2) 0.67337(19) 0.5435(2)
C9 C 0.6820(3) 0.88294(19) 0.54248(19)
C12 C 0.7958(3) 0.4439(2) 0.9934(2)
H3 H 0.744963 0.404969 0.941931
C13 C 0.7306(3) 0.8883(2) 0.7269(2)
C15 C 0.7038(3) 0.5682(3) 0.8362(3)
H4 H 0.652174 0.523219 0.852007
C17 C 0.6458(3) 0.5562(2) 0.3769(2)
C18 C 0.6445(3) 0.9915(2) 0.3782(2)
C23 C 0.6702(3) 0.4196(2) 0.2838(2)
H7 H 0.706002 0.388252 0.338050
C25 C 0.7634(3) 0.6235(2) 0.5325(2)
H9 H 0.830347 0.628150 0.582491
C26 C 0.6760(3) 0.8660(3) 0.7931(3)
H10 H 0.620110 0.813011 0.780294
C27 C 0.8068(4) 0.9681(3) 0.7464(3)
H11 H 0.842683 0.986362 0.700837
C32 C 0.7679(3) 0.9245(2) 0.5107(2)
H16 H 0.839429 0.916179 0.544757
C33 C 0.5772(3) 0.8973(2) 0.4909(2)
H17 H 0.518198 0.870726 0.511678
C34 C 0.7453(3) 0.5668(2) 0.4490(2)
H18 H 0.800716 0.535997 0.442027
C36 C 0.5644(3) 0.6021(2) 0.3865(2)
H20 H 0.496204 0.594199 0.337763
C37 C 0.8530(3) 0.7014(2) 0.7891(2)
H21 H 0.904660 0.746889 0.774026
C38 C 0.5581(3) 0.9509(2) 0.4084(2)
H22 H 0.486720 0.959092 0.373796
C41 C 0.5847(3) 0.6608(2) 0.4701(2)
H25 H 0.529470 0.692205 0.476478
C42 C 0.5973(3) 0.4549(2) 0.1377(2)
H26 H 0.572832 0.452530 0.069542
C43 C 0.7491(3) 0.9787(2) 0.4286(2)
C47 C 0.5815(3) 0.5214(2) 0.1952(2)
H31 H 0.545061 0.572625 0.174821
C48 C 0.7029(3) 0.9215(3) 0.8799(3)
H32 H 0.666136 0.904916 0.925221
C49 C 0.6726(3) 0.6166(3) 0.7514(2)
H33 H 0.600202 0.602742 0.709797
C50 C 0.8856(3) 0.6520(2) 0.8731(2)
H34 H 0.958703 0.663738 0.913158
H36 H 0.517076 0.957176 0.178355
S1 S 0.07113(8) 0.16755(8) 0.74176(6)
O3 O 0.0205(2) 0.2030(2) 0.80772(17)
O4 O 0.0527(2) 0.06704(19) 0.71958(19)
O6 O 0.6196(2) 0.2768(2) 0.85961(17)
C6 C 0.4412(3) 0.2439(2) 0.8741(2)
C10 C 0.0295(2) 0.2216(2) 0.6291(2)
C11 C 0.5656(3) 0.2657(2) 0.9174(2)
C19 C 0.2147(3) 0.2056(2) 0.7911(2)
C31 C 0.2806(3) 0.2068(2) 0.7319(2)
H15 H 0.249164 0.195032 0.664437
C35 C 0.0216(3) 0.3168(2) 0.6271(2)
H19 H 0.040414 0.353616 0.685327
C39 C 0.3934(3) 0.2256(2) 0.7738(2)
H23 H 0.438200 0.226019 0.734235
C45 C 0.0019(3) 0.1664(2) 0.5426(2)
H29 H 0.007574 0.102100 0.544041
C46 C 0.3740(3) 0.2449(3) 0.9312(2)
H30 H 0.405599 0.258314 0.998415
C51 C 0.2606(3) 0.2265(3) 0.8913(2)
H35 H 0.215860 0.228094 0.930677
N4_2 N 0.1592(2) 0.46595(17) 0.01620(17)
N5 N 0.3459(2) 0.60884(18) 0.80695(17)
N6_2 N 0.3709(2) 0.50049(17) 0.71056(17)
C1_2 C 0.2535(3) 0.31511(19) 0.2723(2)
C3_2 C 0.1891(3) 0.4137(2) 0.1029(2)
C4_2 C 0.2943(3) 0.1718(2) 0.3659(2)
C5_2 C 0.2899(2) 0.2648(2) 0.3656(2)
C8_2 C 0.3152(2) 0.32663(19) 0.4565(2)
C9_2 C 0.3180(3) 0.11706(19) 0.45752(19)
C12_2 C 0.2042(3) 0.5561(2) 0.0066(2)
H3_2 H 0.255037 0.595031 0.058069
C13_2 C 0.2694(3) 0.1117(2) 0.2731(2)
C15_2 C 0.2962(3) 0.4318(3) 0.1638(3)
H4_2 H 0.347826 0.476781 0.147993
C17_2 C 0.3542(3) 0.4438(2) 0.6231(2)
C18_2 C 0.3555(3) 0.0085(2) 0.6218(2)
C23_2 C 0.3298(3) 0.5804(2) 0.7162(2)
H7_2 H 0.293998 0.611748 0.661950
C25_2 C 0.2366(3) 0.3765(2) 0.4675(2)
H9_2 H 0.169653 0.371850 0.417509
C26_2 C 0.3240(3) 0.1340(3) 0.2069(3)
H10_2 H 0.379890 0.186989 0.219706
C27_2 C 0.1932(4) 0.0319(3) 0.2536(3)
H11_2 H 0.157317 0.013638 0.299163
C32_2 C 0.2321(3) 0.0755(2) 0.4893(2)
H16_2 H 0.160571 0.083821 0.455243
C33_2 C 0.4228(3) 0.1027(2) 0.5091(2)
H17_2 H 0.481802 0.129274 0.488322
C34_2 C 0.2547(3) 0.4332(2) 0.5510(2)
H18_2 H 0.199284 0.464003 0.557973
C36_2 C 0.4356(3) 0.3979(2) 0.6135(2)
H20_2 H 0.503796 0.405801 0.662237
C37_2 C 0.1470(3) 0.2986(2) 0.2109(2)
H21_2 H 0.095340 0.253111 0.225974
C38_2 C 0.4419(3) 0.0491(2) 0.5916(2)
H22_2 H 0.513280 0.040908 0.626204
C41_2 C 0.4153(3) 0.3392(2) 0.5299(2)
H25_2 H 0.470530 0.307795 0.523522
C42_2 C 0.4027(3) 0.5451(2) 0.8623(2)
H26_2 H 0.427168 0.547470 0.930458
C43_2 C 0.2509(3) 0.0213(2) 0.5714(2)
C47_2 C 0.4185(3) 0.4786(2) 0.8048(2)
H31_2 H 0.454939 0.427375 0.825179
C48_2 C 0.2971(3) 0.0785(3) 0.1201(3)
H32_2 H 0.333864 0.095084 0.074779
C49_2 C 0.3274(3) 0.3834(3) 0.2486(2)
H33_2 H 0.399798 0.397258 0.290203
C50_2 C 0.1144(3) 0.3480(2) 0.1269(2)
H34_2 H 0.041297 0.336262 0.086842
H36_2 H 0.482924 0.042824 0.821645
Mn2 Mn 0.25524(4) 0.70942(3) 0.85826(3)
N3 N 0.1682(2) 0.58276(18) 0.91655(17)
C29_2 C 0.0890(3) 0.4331(2) 0.9252(2)
H13_2 H 0.045669 0.372942 0.908250
C40_2 C 0.0949(3) 0.5049(2) 0.8653(2)
H24_2 H 0.055260 0.502257 0.798821
H28_2 H 0.108010 0.018242 0.901598
N2_2 N 0.1895(2) 0.94095(18) 0.01325(17)
N7 N 0.3481(2) 0.83744(18) 0.80327(18)
N8_2 N 0.3736(2) 0.95404(17) 0.70784(17)
C2_2 C 0.4200(3) 0.9121(3) 0.8583(2)
H1_2 H 0.452776 0.913308 0.925910
C7_2 C 0.3224(3) 0.8657(2) 0.7134(2)
H2_2 H 0.273825 0.828509 0.659411
C16_2 C 0.2169(3) 0.9999(2) 0.1019(2)
C22_2 C 0.2151(3) 0.8547(2) 0.0065(2)
H6_2 H 0.252145 0.822893 0.059874
C24_2 C 0.1663(4) 0.9760(3) 0.1677(3)
H8_2 H 0.112626 0.921491 0.156205
H27_2 H 0.192163 0.993657 0.591956
C52_2 C 0.4371(3) 0.9842(3) 0.8013(3)
O1_2 O 0.0635(3) 0.56338(17) 0.64431(17)
O2_2 O 0.13074(19) 0.70641(15) 0.71904(14)
N1_2 N 0.1816(2) 0.82029(17) 0.91515(17)
C14_2 C 0.0428(2) 0.6966(2) 0.5485(2)
C20_2 C 0.0143(3) 0.6432(2) 0.4611(2)
H5_2 H 0.019743 0.578832 0.462376
C21_2 C 0.0817(3) 0.6503(2) 0.6454(2)
C28_2 C 0.1311(3) 0.8880(3) 0.8612(2)
H12_2 H 0.098195 0.883292 0.793530
C30_2 C 0.0340(3) 0.7918(2) 0.5458(2)
H14_2 H 0.052618 0.828299 0.604128
C44_2 C 0.1359(4) 0.9625(3) 0.9204(2)
O7 O 0.39639(18) 0.72846(15) 0.99118(14)
S1_2 S 0.92887(8) 0.83245(8) 0.25824(6)
O3_2 O 0.9795(2) 0.7970(2) 0.19228(17)
O4_2 O 0.9473(2) 0.93296(19) 0.28042(19)
O6_2 O 0.3804(2) 0.7232(2) 0.14039(17)
C6_2 C 0.5588(3) 0.7561(2) 0.1259(2)
C10_2 C 0.9705(2) 0.7784(2) 0.3709(2)
C11_2 C 0.4344(3) 0.7343(2) 0.0826(2)
C19_2 C 0.7853(3) 0.7944(2) 0.2089(2)
C31_2 C 0.7194(3) 0.7932(2) 0.2681(2)
H15_2 H 0.750836 0.804968 0.335563
C35_2 C 0.9784(3) 0.6832(2) 0.3729(2)
H19_2 H 0.959586 0.646384 0.314673
C39_2 C 0.6066(3) 0.7744(2) 0.2262(2)
H23_2 H 0.561800 0.773981 0.265765
C45_2 C 0.9981(3) 0.8336(2) 0.4574(2)
H29_2 H 0.992426 0.897900 0.455959
C46_2 C 0.6260(3) 0.7551(3) 0.0688(2)
H30_2 H 0.594401 0.741686 0.001585
C51_2 C 0.7394(3) 0.7735(3) 0.1087(2)
H35_2 H 0.784140 0.771906 0.069323
loop_
_geom_bond_atom_site_label_1
_geom_bond_atom_site_label_2
_geom_bond_site_symmetry_1
_geom_bond_site_symmetry_2
Mn5 O5 1_555 1_555
Mn5 O2 1_555 1_555
O1 C21 1_555 1_555
O2 C21 1_555 1_555
N1 Mn5 1_555 1_555
C14 C20 1_555 1_555
C20 H5 1_555 1_555
C21 C14 1_555 1_555
C28 N1 1_555 1_555
H12 C28 1_555 1_555
C30 C14 1_555 1_555
H14 C30 1_555 1_555
N9 Mn5 1_555 1_555
N10 Mn5 1_555 1_555
N11 Mn5 1_555 1_555
C28 C44 1_555 1_555
N2 C16 1_555 1_555
N11 C2 1_555 1_555
N8 C7 1_555 1_555
C2 H1 1_555 1_555
C7 N11 1_555 1_555
H2 C7 1_555 1_555
C16 C24 1_555 1_555
H6 C22 1_555 1_555
C24 H8 1_555 1_555
C52 N8 1_555 1_555
N2 C22 1_555 1_555
C2 C52 1_555 1_555
H13 C29 1_555 1_555
C40 N9 1_555 1_555
H24 C40 1_555 1_555
C29 C40 1_555 1_555
N4 C3 1_555 1_555
N10 C23 1_555 1_555
N6 C17 1_555 1_555
C1 C5 1_555 1_555
C3 C15 1_555 1_555
C4 C5 1_555 1_555
C5 C8 1_555 1_555
C8 C25 1_555 1_555
C9 C4 1_555 1_555
C12 N4 1_555 1_555
H3 C12 1_555 1_555
C13 C4 1_555 1_555
C15 H4 1_555 1_555
C17 C34 1_555 1_555
C23 N6 1_555 1_555
H7 C23 1_555 1_555
C25 H9 1_555 1_555
C26 C13 1_555 1_555
H10 C26 1_555 1_555
C27 C13 1_555 1_555
H11 C27 1_555 1_555
C32 C9 1_555 1_555
H16 C32 1_555 1_555
C33 C9 1_555 1_555
H17 C33 1_555 1_555
C34 C25 1_555 1_555
H18 C34 1_555 1_555
C36 C17 1_555 1_555
H20 C36 1_555 1_555
C37 C1 1_555 1_555
H21 C37 1_555 1_555
C38 C18 1_555 1_555
H22 C38 1_555 1_555
C41 C8 1_555 1_555
H25 C41 1_555 1_555
C42 N10 1_555 1_555
H26 C42 1_555 1_555
C43 C18 1_555 1_555
C47 N6 1_555 1_555
H31 C47 1_555 1_555
H32 C48 1_555 1_555
C49 C1 1_555 1_555
H33 C49 1_555 1_555
C50 C3 1_555 1_555
H34 C50 1_555 1_555
C15 C49 1_555 1_555
C26 C48 1_555 1_555
C32 C43 1_555 1_555
C33 C38 1_555 1_555
C36 C41 1_555 1_555
C37 C50 1_555 1_555
C42 C47 1_555 1_555
S1 O3 1_555 1_555
O4 S1 1_555 1_555
O6 C11 1_555 1_555
C6 C11 1_555 1_555
C10 S1 1_555 1_555
C19 S1 1_555 1_555
C31 C19 1_555 1_555
H15 C31 1_555 1_555
C35 C10 1_555 1_555
H19 C35 1_555 1_555
C39 C6 1_555 1_555
H23 C39 1_555 1_555
C45 C10 1_555 1_555
H29 C45 1_555 1_555
C46 C6 1_555 1_555
H30 C46 1_555 1_555
C51 C19 1_555 1_555
H35 C51 1_555 1_555
C31 C39 1_555 1_555
C46 C51 1_555 1_555
N4_2 C3_2 1_555 1_555
N5 C23_2 1_555 1_555
N6_2 C17_2 1_555 1_555
C1_2 C5_2 1_555 1_555
C3_2 C15_2 1_555 1_555
C4_2 C5_2 1_555 1_555
C5_2 C8_2 1_555 1_555
C8_2 C25_2 1_555 1_555
C9_2 C4_2 1_555 1_555
C12_2 N4_2 1_555 1_555
H3_2 C12_2 1_555 1_555
C13_2 C4_2 1_555 1_555
C15_2 H4_2 1_555 1_555
C17_2 C34_2 1_555 1_555
C23_2 N6_2 1_555 1_555
H7_2 C23_2 1_555 1_555
C25_2 H9_2 1_555 1_555
C26_2 C13_2 1_555 1_555
H10_2 C26_2 1_555 1_555
C27_2 C13_2 1_555 1_555
H11_2 C27_2 1_555 1_555
C32_2 C9_2 1_555 1_555
H16_2 C32_2 1_555 1_555
C33_2 C9_2 1_555 1_555
H17_2 C33_2 1_555 1_555
C34_2 C25_2 1_555 1_555
H18_2 C34_2 1_555 1_555
C36_2 C17_2 1_555 1_555
H20_2 C36_2 1_555 1_555
C37_2 C1_2 1_555 1_555
H21_2 C37_2 1_555 1_555
C38_2 C18_2 1_555 1_555
H22_2 C38_2 1_555 1_555
C41_2 C8_2 1_555 1_555
H25_2 C41_2 1_555 1_555
C42_2 N5 1_555 1_555
H26_2 C42_2 1_555 1_555
C43_2 C18_2 1_555 1_555
C47_2 N6_2 1_555 1_555
H31_2 C47_2 1_555 1_555
H32_2 C48_2 1_555 1_555
C49_2 C1_2 1_555 1_555
H33_2 C49_2 1_555 1_555
C50_2 C3_2 1_555 1_555
H34_2 C50_2 1_555 1_555
Mn2 N5 1_555 1_555
C15_2 C49_2 1_555 1_555
C26_2 C48_2 1_555 1_555
C32_2 C43_2 1_555 1_555
C33_2 C38_2 1_555 1_555
C36_2 C41_2 1_555 1_555
C37_2 C50_2 1_555 1_555
C42_2 C47_2 1_555 1_555
H13_2 C29_2 1_555 1_555
C40_2 N3 1_555 1_555
H24_2 C40_2 1_555 1_555
Mn2 N3 1_555 1_555
C29_2 C40_2 1_555 1_555
N2_2 C16_2 1_555 1_555
N7 C2_2 1_555 1_555
N8_2 C7_2 1_555 1_555
C2_2 H1_2 1_555 1_555
C7_2 N7 1_555 1_555
H2_2 C7_2 1_555 1_555
C16_2 C24_2 1_555 1_555
H6_2 C22_2 1_555 1_555
C24_2 H8_2 1_555 1_555
C52_2 N8_2 1_555 1_555
Mn2 N7 1_555 1_555
N2_2 C22_2 1_555 1_555
C2_2 C52_2 1_555 1_555
Mn2 O2_2 1_555 1_555
O1_2 C21_2 1_555 1_555
O2_2 C21_2 1_555 1_555
N1_2 Mn2 1_555 1_555
C14_2 C20_2 1_555 1_555
C20_2 H5_2 1_555 1_555
C21_2 C14_2 1_555 1_555
C28_2 N1_2 1_555 1_555
H12_2 C28_2 1_555 1_555
C30_2 C14_2 1_555 1_555
H14_2 C30_2 1_555 1_555
O7 Mn2 1_555 1_555
C28_2 C44_2 1_555 1_555
S1_2 O3_2 1_555 1_555
O4_2 S1_2 1_555 1_555
O6_2 C11_2 1_555 1_555
C6_2 C11_2 1_555 1_555
C10_2 S1_2 1_555 1_555
C19_2 S1_2 1_555 1_555
C31_2 C19_2 1_555 1_555
H15_2 C31_2 1_555 1_555
C35_2 C10_2 1_555 1_555
H19_2 C35_2 1_555 1_555
C39_2 C6_2 1_555 1_555
H23_2 C39_2 1_555 1_555
C45_2 C10_2 1_555 1_555
H29_2 C45_2 1_555 1_555
C46_2 C6_2 1_555 1_555
H30_2 C46_2 1_555 1_555
C51_2 C19_2 1_555 1_555
H35_2 C51_2 1_555 1_555
C31_2 C39_2 1_555 1_555
C46_2 C51_2 1_555 1_555

#END
