
###############################################################################
#
# This file contains modified crystal structure data generated from the
# MOF subset of the Cambridge Structural Database (CSD) v543 
# hosted by the Cambridge Crystallographic Data Centre (CCDC).
#
# This work is licensed under the Creative Commons
# Attribution-NonCommercial-ShareAlike 4.0 International License.
# To view a copy of this license, visit
# http://creativecommons.org/licenses/by-nc-sa/4.0/
# or send a letter to
# Creative Commons, PO Box 1866, Mountain View, CA 94042, USA.
#
# CIF created using the CSD Python API on 29 September 2022
# The structure has been converted into the P1 space group
# The structure has a 3D framework
# The original CSD entry KOFPEB05 is in the trigonal crystal system
# The framework has been calculated to contain at least 10.0% void space
# The void calculation uses a probe of radius 1.32A, grid spacing 0.4
# H atom positions have been added when not included in the experimental data
#
###############################################################################

data_KOFPEB05
_chemical_formula_moiety         '(C48 H84 Cu9 La4 N12 O48)n'
_symmetry_cell_setting           triclinic
_symmetry_space_group_name_H-M   'P 1'
_symmetry_Int_Tables_number      1
_space_group_name_Hall           'P 1'
loop_
_symmetry_equiv_pos_site_id
_symmetry_equiv_pos_as_xyz
1 x,y,z
_cell_length_a                   13.4386(19)
_cell_length_b                   13.4386(19)
_cell_length_c                   14.888(3)
_cell_angle_alpha                90
_cell_angle_beta                 90
_cell_angle_gamma                120
_cell_volume                     2328.49
loop_
_atom_site_label
_atom_site_type_symbol
_atom_site_fract_x
_atom_site_fract_y
_atom_site_fract_z
Cu4 Cu 0.5000 -0.0000 -0.0000
H5 H 0.6717 0.0252 0.4243
Cu1 Cu 0.5000 -0.0000 0.5000
H28 H 0.3535 0.0252 0.9243
O10 O 0.5437(3) 0.1815(3) 0.4408(2)
O23 O 0.5999(3) 0.0781(3) 0.6026(2)
Cu4_2 Cu 0.5000 -0.0000 1.0000
N7 N 0.3885(3) 0.0395(3) 0.5577(2)
H38 H 0.363678 0.0793579 0.512474
H39 H 0.426133 0.0920741 0.611123
H8 H 0.2456 0.9603 0.0433
H9 H 0.7147 0.7544 0.0433
H10 H 0.0397 0.2853 0.0433
O7 O 0.3622(4) 0.8185(3) 0.0592(2)
O8 O 0.4563(3) 0.6378(4) 0.0592(2)
O9 O 0.1815(3) 0.5437(3) 0.0592(2)
O15 O 0.1933(4) 0.7596(3) 0.1213(2)
O16 O 0.5663(3) 0.8067(4) 0.1213(2)
O17 O 0.2404(3) 0.4337(3) 0.1213(2)
O31 O 0.3863(4) 0.8221(4) 0.2762(2)
O32 O 0.1779(4) 0.5642(6) 0.2762(2)
O33 O 0.4358(6) 0.6137(4) 0.2762(2)
C7 C 0.2699(6) 0.8210(4) 0.0675(3)
C8 C 0.5511(4) 0.7301(6) 0.0675(3)
C9 C 0.1790(4) 0.4489(4) 0.0675(3)
C12 C 0.2557(7) 0.9058(5) 0.0086(4)
C13 C 0.6501(5) 0.7443(7) 0.0086(4)
C14 C 0.0942(5) 0.3499(5) 0.0086(4)
La2 La 0.3334 0.6667 0.17016(2)
Cu4_3 Cu 0.5000 1.0000 -0.0000
Cu5 Cu 0.5000 0.5000 -0.0000
Cu6 Cu 0.0000 0.5000 -0.0000
H1 H 0.7147 0.9603 0.5433
H2 H 0.6586 0.8581 0.4652
H3 H 0.6020 0.9355 0.3150
H4 H 0.5394 0.8135 0.3799
O1 O 0.4563(3) 0.8185(3) 0.5592(2)
O2 O 0.5663(3) 0.7596(3) 0.6213(2)
O3 O 0.4001(3) 0.9219(3) 0.3974(2)
C1 C 0.5511(4) 0.8210(4) 0.5675(3)
C2 C 0.6501(5) 0.9058(5) 0.5086(4)
C3 C 0.5547(5) 0.8887(5) 0.3637(4)
C4 C 0.4389(6) 0.8776(4) 0.3442(3)
La1 La 0.3333 0.6667 0.67016(2)
Cu1_2 Cu 0.5000 1.0000 0.5000
N1 N 0.6115(3) 0.9605(3) 0.4423(2)
H6 H 0.0397 0.7544 0.5433
H7 H 0.2456 0.2853 0.5433
H11 H 0.1419 0.8005 0.4652
H12 H 0.1995 0.3414 0.4652
H13 H 0.1995 0.8581 0.9652
H14 H 0.6586 0.8005 0.9652
H15 H 0.1419 0.3414 0.9652
H16 H 0.0645 0.6665 0.3150
H17 H 0.3335 0.3980 0.3150
H18 H 0.3335 0.9355 0.8150
H19 H 0.6020 0.6665 0.8150
H20 H 0.0645 0.3980 0.8150
H21 H 0.1865 0.7259 0.3799
H22 H 0.2741 0.4606 0.3799
H23 H 0.2741 0.8135 0.8799
H24 H 0.5394 0.7259 0.8799
H25 H 0.1865 0.4606 0.8799
H27 H 0.3535 0.3283 0.4243
H29 H 0.6717 0.6465 0.9243
H31 H 0.3283 0.9748 0.5757
H32 H 0.0252 0.3535 0.5757
H33 H 0.6465 0.6717 0.5757
O5 O 0.1815(3) 0.6378(4) 0.5592(2)
O6 O 0.3622(4) 0.5437(3) 0.5592(2)
O12 O 0.6378(4) 0.4563(3) 0.4408(2)
O13 O 0.2404(3) 0.8067(4) 0.6213(2)
O14 O 0.1933(4) 0.4337(3) 0.6213(2)
O18 O 0.0781(3) 0.4782(4) 0.3974(2)
O19 O 0.5218(4) 0.5999(3) 0.3974(2)
O20 O 0.5218(4) 0.9219(3) 0.8974(2)
O21 O 0.4001(3) 0.4782(4) 0.8974(2)
O22 O 0.0781(3) 0.5999(3) 0.8974(2)
O25 O 0.4782(4) 0.4001(3) 0.6026(2)
O28 O 0.4358(6) 0.8221(4) 0.7762(2)
O29 O 0.3863(4) 0.5642(6) 0.7762(2)
O30 O 0.1779(4) 0.6137(4) 0.7762(2)
C5 C 0.1790(4) 0.7301(6) 0.5675(3)
C6 C 0.2699(6) 0.4489(4) 0.5675(3)
C10 C 0.0942(5) 0.7443(7) 0.5086(4)
C11 C 0.2557(7) 0.3499(5) 0.5086(4)
C15 C 0.1113(5) 0.6660(7) 0.3637(4)
C16 C 0.3340(7) 0.4453(5) 0.3637(4)
C17 C 0.3340(7) 0.8887(5) 0.8637(4)
C18 C 0.5547(5) 0.6660(7) 0.8637(4)
C19 C 0.1113(5) 0.4453(5) 0.8637(4)
C20 C 0.1224(4) 0.5613(7) 0.3442(3)
C21 C 0.4387(7) 0.5611(6) 0.3442(3)
C22 C 0.4387(7) 0.8776(4) 0.8442(3)
C23 C 0.4389(6) 0.5613(7) 0.8442(3)
C24 C 0.1224(4) 0.5611(6) 0.8442(3)
Cu2 Cu -0.0000 0.5000 0.5000
Cu3 Cu 0.5000 0.5000 0.5000
Cu4_4 Cu 0.5000 1.0000 1.0000
Cu5_2 Cu 0.5000 0.5000 1.0000
Cu6_2 Cu 0.0000 0.5000 1.0000
N2 N 0.0395(3) 0.6510(4) 0.4423(2)
N3 N 0.3490(4) 0.3885(3) 0.4423(2)
N4 N 0.3490(4) 0.9605(3) 0.9423(2)
N5 N 0.6115(3) 0.6510(4) 0.9423(2)
N6 N 0.0395(3) 0.3885(3) 0.9423(2)
N9 N 0.6510(4) 0.6115(3) 0.5577(2)
H36 H 0.665941 0.573867 0.611123
H37 H 0.71568 0.636322 0.512474
Cu6_3 Cu 1.0000 0.5000 -0.0000
H26 H 0.9748 0.6465 0.4243
H30 H 0.9748 0.3283 0.9243
O11 O 0.8185(3) 0.3622(4) 0.4408(2)
O24 O 0.9219(3) 0.5218(4) 0.6026(2)
Cu2_2 Cu 1.0000 0.5000 0.5000
Cu6_4 Cu 1.0000 0.5000 1.0000
N8 N 0.9605(3) 0.3490(4) 0.5577(2)
H34 H 0.907926 0.334059 0.611123
H35 H 0.920642 0.28432 0.512474
H5_2 H 0.0252 0.6717 0.0757
H38_2 H 0.0793579 0.363678 0.987526
H39_2 H 0.0920741 0.426133 0.888877
H2_2 H 0.8581 0.6586 0.0348
H3_2 H 0.9355 0.6020 0.1850
H4_2 H 0.8135 0.5394 0.1201
O3_2 O 0.9219(3) 0.4001(3) 0.1026(2)
O4 O 0.8221(4) 0.3863(4) 0.2238(2)
C3_2 C 0.8887(5) 0.5547(5) 0.1363(4)
C4_2 C 0.8776(4) 0.4389(6) 0.1558(3)
N1_2 N 0.9605(3) 0.6115(3) 0.0577(2)
H11_2 H 0.8005 0.1419 0.0348
H12_2 H 0.3414 0.1995 0.0348
H16_2 H 0.6665 0.0645 0.1850
H17_2 H 0.3980 0.3335 0.1850
H21_2 H 0.7259 0.1865 0.1201
H22_2 H 0.4606 0.2741 0.1201
H27_2 H 0.3283 0.3535 0.0757
O18_2 O 0.4782(4) 0.0781(3) 0.1026(2)
O19_2 O 0.5999(3) 0.5218(4) 0.1026(2)
O26 O 0.5642(6) 0.1779(4) 0.2238(2)
O27 O 0.6137(4) 0.4358(6) 0.2238(2)
C15_2 C 0.6660(7) 0.1113(5) 0.1363(4)
C16_2 C 0.4453(5) 0.3340(7) 0.1363(4)
C20_2 C 0.5613(7) 0.1224(4) 0.1558(3)
C21_2 C 0.5611(6) 0.4387(7) 0.1558(3)
La3 La 0.6667 0.3334 0.32984(2)
N2_2 N 0.6510(4) 0.0395(3) 0.0577(2)
N3_2 N 0.3885(3) 0.3490(4) 0.0577(2)
H1_2 H 0.9603 0.7147 0.9567
O1_2 O 0.8185(3) 0.4563(3) 0.9408(2)
O2_2 O 0.7596(3) 0.5663(3) 0.8787(2)
C1_2 C 0.8210(4) 0.5511(4) 0.9325(3)
C2_2 C 0.9058(5) 0.6501(5) 0.9914(4)
La1_2 La 0.6667 0.3333 0.82984(2)
H6_2 H 0.7544 0.0397 0.9567
H7_2 H 0.2853 0.2456 0.9567
H8_2 H 0.9603 0.2456 0.4567
H9_2 H 0.7544 0.7147 0.4567
H10_2 H 0.2853 0.0397 0.4567
H13_2 H 0.8581 0.1995 0.5348
H14_2 H 0.8005 0.6586 0.5348
H15_2 H 0.3414 0.1419 0.5348
H18_2 H 0.9355 0.3335 0.6850
H19_2 H 0.6665 0.6020 0.6850
H20_2 H 0.3980 0.0645 0.6850
H23_2 H 0.8135 0.2741 0.6201
H24_2 H 0.7259 0.5394 0.6201
H25_2 H 0.4606 0.1865 0.6201
O5_2 O 0.6378(4) 0.1815(3) 0.9408(2)
O6_2 O 0.5437(3) 0.3622(4) 0.9408(2)
O13_2 O 0.8067(4) 0.2404(3) 0.8787(2)
O14_2 O 0.4337(3) 0.1933(4) 0.8787(2)
O15_2 O 0.7596(3) 0.1933(4) 0.3787(2)
O16_2 O 0.8067(4) 0.5663(3) 0.3787(2)
O17_2 O 0.4337(3) 0.2404(3) 0.3787(2)
O28_2 O 0.8221(4) 0.4358(6) 0.7238(2)
O29_2 O 0.5642(6) 0.3863(4) 0.7238(2)
O30_2 O 0.6137(4) 0.1779(4) 0.7238(2)
C5_2 C 0.7301(6) 0.1790(4) 0.9325(3)
C6_2 C 0.4489(4) 0.2699(6) 0.9325(3)
C7_2 C 0.8210(4) 0.2699(6) 0.4325(3)
C8_2 C 0.7301(6) 0.5511(4) 0.4325(3)
C9_2 C 0.4489(4) 0.1790(4) 0.4325(3)
C10_2 C 0.7443(7) 0.0942(5) 0.9914(4)
C11_2 C 0.3499(5) 0.2557(7) 0.9914(4)
C12_2 C 0.9058(5) 0.2557(7) 0.4914(4)
C13_2 C 0.7443(7) 0.6501(5) 0.4914(4)
C14_2 C 0.3499(5) 0.0942(5) 0.4914(4)
C17_2 C 0.8887(5) 0.3340(7) 0.6363(4)
C18_2 C 0.6660(7) 0.5547(5) 0.6363(4)
C19_2 C 0.4453(5) 0.1113(5) 0.6363(4)
C22_2 C 0.8776(4) 0.4387(7) 0.6558(3)
C23_2 C 0.5613(7) 0.4389(6) 0.6558(3)
C24_2 C 0.5611(6) 0.1224(4) 0.6558(3)
H36_2 H 0.573867 0.665941 0.888877
H37_2 H 0.636322 0.71568 0.987526
H26_2 H 0.6465 0.9748 0.0757
H34_2 H 0.334059 0.907926 0.888877
H35_2 H 0.28432 0.920642 0.987526
H34_3 H 0.0920741 0.665941 0.388877
H35_3 H 0.0793579 0.71568 0.487526
H36_3 H 0.334059 0.426133 0.388877
H37_3 H 0.28432 0.363678 0.487526
H38_3 H 0.636322 0.920642 0.487526
H39_3 H 0.573867 0.907926 0.388877
H34_4 H 0.665941 0.0920741 0.111123
H35_4 H 0.71568 0.0793579 0.0124738
H36_4 H 0.426133 0.334059 0.111123
H37_4 H 0.363678 0.28432 0.0124738
H38_4 H 0.920642 0.636322 0.0124738
H39_4 H 0.907926 0.573867 0.111123
loop_
_geom_bond_atom_site_label_1
_geom_bond_atom_site_label_2
_geom_bond_site_symmetry_1
_geom_bond_site_symmetry_2
O10 Cu1 1_555 1_555
O23 Cu1 1_555 1_555
N7 Cu1 1_555 1_555
N7 H38 1_555 1_555
N7 H39 1_555 1_555
H8 C12 1_555 1_555
H9 C13 1_555 1_555
H10 C14 1_555 1_555
O7 C7 1_555 1_555
O8 C8 1_555 1_555
O9 C9 1_555 1_555
O15 C7 1_555 1_555
O16 C8 1_555 1_555
O17 C9 1_555 1_555
O31 La2 1_555 1_555
O32 La2 1_555 1_555
O33 La2 1_555 1_555
C7 C12 1_555 1_555
C8 C13 1_555 1_555
C9 C14 1_555 1_555
La2 O7 1_555 1_555
Cu4_3 O7 1_555 1_555
Cu5 O8 1_555 1_555
Cu6 O9 1_555 1_555
O8 La2 1_555 1_555
O9 La2 1_555 1_555
O15 La2 1_555 1_555
O16 La2 1_555 1_555
O17 La2 1_555 1_555
H1 C2 1_555 1_555
H2 C2 1_555 1_555
H3 C3 1_555 1_555
H4 C3 1_555 1_555
O1 C1 1_555 1_555
O2 C1 1_555 1_555
O3 C4 1_555 1_555
O31 C4 1_555 1_555
C1 C2 1_555 1_555
C2 N1 1_555 1_555
C3 C4 1_555 1_555
La1 O1 1_555 1_555
Cu1_2 O1 1_555 1_555
N1 C3 1_555 1_555
H6 C10 1_555 1_555
H7 C11 1_555 1_555
H11 C10 1_555 1_555
H12 C11 1_555 1_555
H16 C15 1_555 1_555
H17 C16 1_555 1_555
H18 C17 1_555 1_555
H19 C18 1_555 1_555
H20 C19 1_555 1_555
H21 C15 1_555 1_555
H22 C16 1_555 1_555
H23 C17 1_555 1_555
H24 C18 1_555 1_555
H25 C19 1_555 1_555
H27 N3 1_555 1_555
H29 N5 1_555 1_555
H33 N9 1_555 1_555
O5 La1 1_555 1_555
O6 La1 1_555 1_555
O12 Cu3 1_555 1_555
O13 La1 1_555 1_555
O14 La1 1_555 1_555
O18 C20 1_555 1_555
O19 C21 1_555 1_555
O20 C22 1_555 1_555
O21 C23 1_555 1_555
O22 C24 1_555 1_555
O25 Cu3 1_555 1_555
O32 C20 1_555 1_555
O33 C21 1_555 1_555
O28 La1 1_555 1_555
O29 La1 1_555 1_555
O30 La1 1_555 1_555
C5 O5 1_555 1_555
C6 O6 1_555 1_555
C10 C5 1_555 1_555
C11 C6 1_555 1_555
C15 C20 1_555 1_555
C16 C21 1_555 1_555
C17 C22 1_555 1_555
C18 C23 1_555 1_555
C19 C24 1_555 1_555
C22 O28 1_555 1_555
C23 O29 1_555 1_555
C24 O30 1_555 1_555
Cu2 O5 1_555 1_555
Cu3 O6 1_555 1_555
N2 C10 1_555 1_555
N3 C11 1_555 1_555
N4 C17 1_555 1_555
N5 C18 1_555 1_555
N6 C19 1_555 1_555
N9 Cu3 1_555 1_555
O2 La1 1_555 1_555
O3 Cu1_2 1_555 1_555
Cu1_2 N1 1_555 1_555
O13 C5 1_555 1_555
O14 C6 1_555 1_555
O18 Cu2 1_555 1_555
O19 Cu3 1_555 1_555
O20 Cu4_4 1_555 1_555
O21 Cu5_2 1_555 1_555
O22 Cu6_2 1_555 1_555
C15 N2 1_555 1_555
C16 N3 1_555 1_555
Cu2 N2 1_555 1_555
Cu3 N3 1_555 1_555
Cu4_4 N4 1_555 1_555
Cu5_2 N5 1_555 1_555
Cu6_2 N6 1_555 1_555
N9 H36 1_555 1_555
N9 H37 1_555 1_555
O11 Cu2_2 1_555 1_555
O24 Cu2_2 1_555 1_555
N8 Cu2_2 1_555 1_555
N8 H34 1_555 1_555
N8 H35 1_555 1_555
N6 H38_2 1_555 1_555
N6 H39_2 1_555 1_555
H3_2 C3_2 1_555 1_555
H4_2 C3_2 1_555 1_555
O3_2 C4_2 1_555 1_555
O4 C4_2 1_555 1_555
C3_2 C4_2 1_555 1_555
N1_2 C3_2 1_555 1_555
H16_2 C15_2 1_555 1_555
H17_2 C16_2 1_555 1_555
H21_2 C15_2 1_555 1_555
H22_2 C16_2 1_555 1_555
H27_2 N3_2 1_555 1_555
O18_2 C20_2 1_555 1_555
O19_2 C21_2 1_555 1_555
O26 C20_2 1_555 1_555
O27 C21_2 1_555 1_555
C15_2 C20_2 1_555 1_555
C16_2 C21_2 1_555 1_555
La3 O4 1_555 1_555
O3_2 Cu6_3 1_555 1_555
Cu6_3 N1_2 1_555 1_555
O18_2 Cu4 1_555 1_555
O19_2 Cu5 1_555 1_555
O26 La3 1_555 1_555
O27 La3 1_555 1_555
C15_2 N2_2 1_555 1_555
C16_2 N3_2 1_555 1_555
Cu4 N2_2 1_555 1_555
Cu5 N3_2 1_555 1_555
H1_2 C2_2 1_555 1_555
O1_2 C1_2 1_555 1_555
O2_2 C1_2 1_555 1_555
C1_2 C2_2 1_555 1_555
La1_2 O1_2 1_555 1_555
Cu6_4 O1_2 1_555 1_555
H6_2 C10_2 1_555 1_555
H7_2 C11_2 1_555 1_555
H8_2 C12_2 1_555 1_555
H9_2 C13_2 1_555 1_555
H10_2 C14_2 1_555 1_555
H13_2 C12_2 1_555 1_555
H14_2 C13_2 1_555 1_555
H15_2 C14_2 1_555 1_555
H18_2 C17_2 1_555 1_555
H19_2 C18_2 1_555 1_555
H20_2 C19_2 1_555 1_555
H23_2 C17_2 1_555 1_555
H24_2 C18_2 1_555 1_555
H25_2 C19_2 1_555 1_555
O5_2 La1_2 1_555 1_555
O6_2 La1_2 1_555 1_555
O11 C7_2 1_555 1_555
O12 C8_2 1_555 1_555
O10 C9_2 1_555 1_555
O13_2 La1_2 1_555 1_555
O14_2 La1_2 1_555 1_555
O15_2 C7_2 1_555 1_555
O16_2 C8_2 1_555 1_555
O17_2 C9_2 1_555 1_555
O24 C22_2 1_555 1_555
O25 C23_2 1_555 1_555
O23 C24_2 1_555 1_555
O28_2 La1_2 1_555 1_555
O29_2 La1_2 1_555 1_555
O30_2 La1_2 1_555 1_555
C5_2 O5_2 1_555 1_555
C6_2 O6_2 1_555 1_555
C7_2 C12_2 1_555 1_555
C8_2 C13_2 1_555 1_555
C9_2 C14_2 1_555 1_555
C10_2 C5_2 1_555 1_555
C11_2 C6_2 1_555 1_555
C12_2 N8 1_555 1_555
C13_2 N9 1_555 1_555
C14_2 N7 1_555 1_555
C17_2 C22_2 1_555 1_555
C18_2 C23_2 1_555 1_555
C19_2 C24_2 1_555 1_555
C22_2 O28_2 1_555 1_555
C23_2 O29_2 1_555 1_555
C24_2 O30_2 1_555 1_555
La3 O11 1_555 1_555
Cu4_2 O5_2 1_555 1_555
Cu5_2 O6_2 1_555 1_555
N8 C17_2 1_555 1_555
N9 C18_2 1_555 1_555
N7 C19_2 1_555 1_555
O2_2 La1_2 1_555 1_555
O12 La3 1_555 1_555
O10 La3 1_555 1_555
O13_2 C5_2 1_555 1_555
O14_2 C6_2 1_555 1_555
O15_2 La3 1_555 1_555
O16_2 La3 1_555 1_555
O17_2 La3 1_555 1_555
N5 H36_2 1_555 1_555
N5 H37_2 1_555 1_555
N4 H34_2 1_555 1_555
N4 H35_2 1_555 1_555
N2 H34_3 1_555 1_555
N2 H35_3 1_555 1_555
N3 H36_3 1_555 1_555
N3 H37_3 1_555 1_555
N1 H38_3 1_555 1_555
N1 H39_3 1_555 1_555
N2_2 H34_4 1_555 1_555
N2_2 H35_4 1_555 1_555
N3_2 H36_4 1_555 1_555
N3_2 H37_4 1_555 1_555
N1_2 H38_4 1_555 1_555
N1_2 H39_4 1_555 1_555

#END
