
###############################################################################
#
# This file contains modified crystal structure data generated from the
# MOF subset of the Cambridge Structural Database (CSD) v543 
# hosted by the Cambridge Crystallographic Data Centre (CCDC).
#
# This work is licensed under the Creative Commons
# Attribution-NonCommercial-ShareAlike 4.0 International License.
# To view a copy of this license, visit
# http://creativecommons.org/licenses/by-nc-sa/4.0/
# or send a letter to
# Creative Commons, PO Box 1866, Mountain View, CA 94042, USA.
#
# CIF created using the CSD Python API on 29 September 2022
# The structure has been converted into the P1 space group
# The structure has a 3D framework
# The original CSD entry KOGJOG is in the monoclinic crystal system
# The framework has been calculated to contain at least 10.0% void space
# The void calculation uses a probe of radius 1.32A, grid spacing 0.4
# The framework is charged, counterions have been retained in the structure
#
###############################################################################

data_KOGJOG
_chemical_formula_moiety         '(C36 H56 Gd7 N4 O64 P8 1+)n'
_symmetry_cell_setting           triclinic
_symmetry_space_group_name_H-M   'P 1'
_symmetry_Int_Tables_number      1
_space_group_name_Hall           'P 1'
loop_
_symmetry_equiv_pos_site_id
_symmetry_equiv_pos_as_xyz
1 x,y,z
_cell_length_a                   8.6839(12)
_cell_length_b                   31.729(4)
_cell_length_c                   9.2922(13)
_cell_angle_alpha                90
_cell_angle_beta                 98.514(2)
_cell_angle_gamma                90
_cell_volume                     2532.08
loop_
_atom_site_label
_atom_site_type_symbol
_atom_site_fract_x
_atom_site_fract_y
_atom_site_fract_z
O6 O 0.0742(10) 0.0720(3) 0.5373(10)
H11 H 0.0215 0.1485 0.6354
H14 H 0.0205 0.1912 0.8440
Gd9 Gd 0.24532(6) 0.029803(17) 0.68662(7)
Gd6 Gd 0.93802(6) 0.283100(15) 0.29956(5)
Gd11 Gd 0.74532(6) 0.470197(17) 0.18662(7)
P3 P 0.2540(3) 0.27453(8) 0.0646(3)
O19 O 0.1161(8) 0.2722(2) 0.1411(8)
O20 O 0.4091(9) 0.2752(2) 0.1785(8)
O25 O 0.5742(10) 0.4280(3) 0.0373(10)
O28 O 0.8154(9) 0.2222(2) 0.1771(8)
O31 O 0.1304(8) 0.3009(2) 0.4997(8)
O32 O 0.7533(8) 0.3016(2) 0.0900(8)
O35 O 0.0822(8) 0.2221(2) 0.4030(7)
O39 O 0.0332(8) 0.3532(2) 0.2321(8)
O45 O 0.1778(9) 0.5256(3) 0.0562(9)
N2 N 0.2855(11) 0.3596(3) 0.0902(10)
H20 H 0.2090 0.3569 0.1468
C11 C 0.2707(13) 0.4037(3) 0.0308(14)
H24 H 0.2602 0.4224 0.1113
C12 C 0.4355(13) 0.3528(3) 0.1910(13)
H25 H 0.5215 0.3515 0.1354
H26 H 0.4538 0.3761 0.2588
C13 C 0.4266(15) 0.3120(3) 0.2740(13)
H27 H 0.3389 0.3133 0.3275
H28 H 0.5205 0.3088 0.3440
C14 C 0.7116(12) 0.2271(3) 0.0701(12)
C15 C 0.6794(12) 0.2728(3) 0.0161(12)
Gd1 Gd 0.43802(6) 0.216900(15) 0.79956(5)
P1 P 0.7540(3) 0.22547(8) 0.5646(3)
P2 P 0.9237(4) 0.07511(9) 0.4372(3)
O1 O 0.6161(8) 0.2278(2) 0.6411(8)
O2 O 0.9091(9) 0.2248(2) 0.6785(8)
O3 O 0.7725(9) 0.2595(2) 0.4579(8)
O4 O 0.8558(10) 0.0356(2) 0.3707(11)
O5 O 0.9481(11) 0.1081(3) 0.3187(10)
H1 H 0.8678 0.1103 0.2605
O7 O 0.3154(9) 0.2778(2) 0.6771(8)
O9 O 0.2533(8) 0.1984(2) 0.5900(8)
O11 O 0.4571(10) 0.0808(2) 0.6841(10)
O12 O 0.5332(8) 0.1468(2) 0.7321(8)
O13 O 0.2268(9) 0.0910(2) 0.8414(9)
O14 O 0.2992(9) 0.1578(2) 0.8842(8)
H3 H 0.7025 0.0157 0.0467
H5 H 0.9952 0.0012 0.1669
N1 N 0.7855(11) 0.1404(3) 0.5902(10)
H6 H 0.7090 0.1431 0.6468
C1 C 0.7546(12) 0.1747(3) 0.4775(11)
H7 H 0.6546 0.1698 0.4178
H8 H 0.8343 0.1741 0.4146
C2 C 0.7707(13) 0.0963(3) 0.5308(14)
H9 H 0.6738 0.0947 0.4640
H10 H 0.7602 0.0776 0.6113
C3 C 0.9355(13) 0.1472(3) 0.6910(13)
H12 H 0.9538 0.1239 0.7588
C4 C 0.9266(15) 0.1880(3) 0.7740(13)
H13 H 0.8389 0.1867 0.8275
C5 C 0.2116(12) 0.2729(3) 0.5701(12)
C6 C 0.1794(12) 0.2272(3) 0.5161(12)
C7 C 0.4435(13) 0.1157(4) 0.7388(12)
C8 C 0.3122(12) 0.1222(3) 0.8302(11)
Gd8 Gd 0.25468(6) 0.529803(17) 0.81338(7)
P4 P 0.4237(4) 0.42489(9) 0.9372(3)
O21 O 0.2725(9) 0.2405(2) 0.9579(8)
O23 O 0.3558(10) 0.4644(2) 0.8707(11)
O24 O 0.4481(11) 0.3919(3) 0.8187(10)
H15 H 0.3678 0.3897 0.7605
O27 O 0.4258(10) 0.5720(3) 0.9627(10)
O30 O 0.6304(8) 0.1991(2) 0.9997(8)
O34 O 0.5822(8) 0.2779(2) 0.9030(7)
O37 O 0.0429(10) 0.5808(2) 0.8159(10)
O41 O 0.2732(9) 0.5910(2) 0.6586(9)
O44 O 0.3222(9) 0.0256(3) 0.4438(9)
O46 O 0.5149(10) 0.0092(3) 0.3159(9)
O47 O 0.0149(10) 0.4908(3) 0.8159(9)
O48 O 0.1613(12) 0.5078(3) 0.5626(11)
H16 H 0.0629 0.5052 0.5515
H17 H 0.2025 0.4843 0.5467
O49 O 0.4868(11) 0.5240(3) 0.6958(12)
H18 H 0.4786 0.5406 0.6233
H19 H 0.4952 0.4988 0.6669
C10 C 0.2546(12) 0.3253(3) 0.9775(11)
H21 H 0.1546 0.3302 0.9178
H22 H 0.3343 0.3259 0.9146
H23 H 0.1738 0.4053 0.9640
C18 C 0.4525(13) 0.0098(3) 0.4306(13)
Gd2 Gd 0.75468(6) 0.970197(17) 0.31338(7)
O15 O 0.6778(9) 0.9744(3) 0.5562(9)
O16 O 0.4851(10) 0.9908(3) 0.6841(9)
O17 O 0.6613(12) 0.9922(3) 0.0626(11)
H2 H 0.5629 0.9948 0.0515
O18 O 0.9868(11) 0.9760(3) 0.1958(12)
H4 H 0.9786 0.9594 0.1233
C9 C 0.5475(13) 0.9902(3) 0.5694(13)
Gd7 Gd 0.56198(6) 0.783100(15) 0.20044(5)
O26 O 0.9258(10) 0.9280(3) 0.4627(10)
O36 O 0.5429(10) 0.9192(2) 0.3159(10)
O38 O 0.4668(8) 0.8532(2) 0.2679(8)
O40 O 0.7732(9) 0.9090(2) 0.1586(9)
O42 O 0.7008(9) 0.8422(2) 0.1158(8)
C16 C 0.5565(13) 0.8843(4) 0.2612(12)
C17 C 0.6878(12) 0.8778(3) 0.1698(11)
O43 O 0.7992(9) 0.3422(2) 0.3842(8)
O48_2 O 0.3387(12) 0.0078(3) 0.9374(11)
H16_2 H 0.4371 0.0052 0.9485
O49_2 O 0.0132(11) 0.0240(3) 0.8042(12)
H18_2 H 0.0214 0.0406 0.8767
O8 O 0.3696(8) 0.8009(2) 0.0003(8)
O10 O 0.4178(8) 0.7221(2) 0.0970(7)
C18_2 C 0.0475(13) 0.5098(3) 0.0694(13)
Gd1_2 Gd 0.06198(6) 0.716900(15) 0.70044(5)
O7_2 O 0.1846(9) 0.7778(2) 0.8229(8)
O9_2 O 0.2467(8) 0.6984(2) 0.9100(8)
O14_2 O 0.2008(9) 0.6578(2) 0.6158(8)
C5_2 C 0.2884(12) 0.7729(3) 0.9299(12)
C6_2 C 0.3206(12) 0.7272(3) 0.9839(12)
C7_2 C 0.0565(13) 0.6157(4) 0.7612(12)
C8_2 C 0.1878(12) 0.6222(3) 0.6698(11)
P3_2 P 0.2460(3) 0.77453(8) 0.4354(3)
P4_2 P 0.0763(4) 0.92489(9) 0.5628(3)
O19_2 O 0.3839(8) 0.7722(2) 0.3589(8)
O20_2 O 0.0909(9) 0.7752(2) 0.3215(8)
O21_2 O 0.2275(9) 0.7405(2) 0.5421(8)
O22 O 0.7275(9) 0.7595(2) 0.0421(8)
O23_2 O 0.1442(10) 0.9644(2) 0.6293(11)
O24_2 O 0.0519(11) 0.8919(3) 0.6813(10)
H15_2 H 0.1322 0.8897 0.7395
O29 O 0.6846(9) 0.7222(2) 0.3229(8)
O33 O 0.7467(8) 0.8016(2) 0.4100(8)
H17_2 H 0.2975 0.9843 0.9533
H19_2 H 0.0048 0.9988 0.8331
N2_2 N 0.2145(11) 0.8596(3) 0.4098(10)
H20_2 H 0.2910 0.8569 0.3532
C10_2 C 0.2454(12) 0.8253(3) 0.5225(11)
H21_2 H 0.3454 0.8302 0.5822
H22_2 H 0.1657 0.8259 0.5854
C11_2 C 0.2293(13) 0.9037(3) 0.4692(14)
H23_2 H 0.3262 0.9053 0.5360
H24_2 H 0.2398 0.9224 0.3887
C12_2 C 0.0645(13) 0.8528(3) 0.3090(13)
H26_2 H 0.0462 0.8761 0.2412
C13_2 C 0.0734(15) 0.8120(3) 0.2260(13)
H27_2 H 0.1611 0.8133 0.1725
P2_2 P 0.5763(4) 0.57511(9) 0.0628(3)
O4_2 O 0.6442(10) 0.5356(2) 0.1293(11)
O5_2 O 0.5519(11) 0.6081(3) 0.1813(10)
H1_2 H 0.6322 0.6103 0.2395
O17_2 O 0.8387(12) 0.4922(3) 0.4374(11)
H2_2 H 0.9371 0.4948 0.4485
H3_2 H 0.7975 0.5157 0.4533
O18_2 O 0.5132(11) 0.4760(3) 0.3042(12)
H4_2 H 0.5214 0.4594 0.3767
H5_2 H 0.5048 0.5012 0.3331
C1_2 C 0.7454(12) 0.6747(3) 0.0225(11)
H7_2 H 0.8454 0.6698 0.0822
H8_2 H 0.6657 0.6741 0.0854
H9_2 H 0.8262 0.5947 0.0360
O36_2 O 0.9571(10) 0.4192(2) 0.1841(10)
O40_2 O 0.7268(9) 0.4090(2) 0.3414(9)
O46_2 O 0.9851(10) 0.5092(3) 0.1841(9)
C16_2 C 0.9435(13) 0.3843(4) 0.2388(12)
C17_2 C 0.8122(12) 0.3778(3) 0.3302(11)
P1_2 P 0.7460(3) 0.72547(8) 0.9354(3)
O1_2 O 0.8839(8) 0.7278(2) 0.8589(8)
O2_2 O 0.5909(9) 0.7248(2) 0.8215(8)
O12_2 O 0.9668(8) 0.6468(2) 0.7679(8)
O15_2 O 0.8222(9) 0.4744(3) 0.9438(9)
N1_2 N 0.7145(11) 0.6404(3) 0.9098(10)
H6_2 H 0.7910 0.6431 0.8532
C2_2 C 0.7293(13) 0.5963(3) 0.9692(14)
H10_2 H 0.7398 0.5776 0.8887
C3_2 C 0.5645(13) 0.6472(3) 0.8090(13)
H11_2 H 0.4785 0.6485 0.8646
H12_2 H 0.5462 0.6239 0.7412
C4_2 C 0.5734(15) 0.6880(3) 0.7260(13)
H13_2 H 0.6611 0.6867 0.6725
H14_2 H 0.4795 0.6912 0.6560
C9_2 C 0.9525(13) 0.4902(3) 0.9306(13)
O30_2 O 0.8696(8) 0.6991(2) 0.5003(8)
O34_2 O 0.9178(8) 0.7779(2) 0.5970(7)
H25_2 H 0.9785 0.8515 0.3646
H28_2 H 0.9795 0.8088 0.1560
C14_2 C 0.7884(12) 0.7271(3) 0.4299(12)
C15_2 C 0.8206(12) 0.7728(3) 0.4839(12)
loop_
_geom_bond_atom_site_label_1
_geom_bond_atom_site_label_2
_geom_bond_site_symmetry_1
_geom_bond_site_symmetry_2
Gd9 O6 1_555 1_555
Gd6 O28 1_555 1_555
Gd11 O25 1_555 1_555
P3 O19 1_555 1_555
O20 P3 1_555 1_555
O28 C14 1_555 1_555
O32 Gd6 1_555 1_555
N2 H20 1_555 1_555
H24 C11 1_555 1_555
C12 N2 1_555 1_555
H25 C12 1_555 1_555
H26 C12 1_555 1_555
C13 O20 1_555 1_555
H27 C13 1_555 1_555
H28 C13 1_555 1_555
C15 O32 1_555 1_555
N2 C11 1_555 1_555
C12 C13 1_555 1_555
C14 C15 1_555 1_555
Gd1 O1 1_555 1_555
P1 O1 1_555 1_555
P2 O4 1_555 1_555
O2 P1 1_555 1_555
O3 P1 1_555 1_555
O5 P2 1_555 1_555
H1 O5 1_555 1_555
O7 Gd1 1_555 1_555
O31 C5 1_555 1_555
O9 Gd1 1_555 1_555
O35 C6 1_555 1_555
O11 C7 1_555 1_555
O12 Gd1 1_555 1_555
O13 C8 1_555 1_555
O14 Gd1 1_555 1_555
N1 H6 1_555 1_555
C1 P1 1_555 1_555
H7 C1 1_555 1_555
H8 C1 1_555 1_555
C2 P2 1_555 1_555
H9 C2 1_555 1_555
H10 C2 1_555 1_555
C3 N1 1_555 1_555
H12 C3 1_555 1_555
C4 O2 1_555 1_555
H13 C4 1_555 1_555
C5 O7 1_555 1_555
C6 O9 1_555 1_555
C7 O12 1_555 1_555
C8 O14 1_555 1_555
Gd6 O3 1_555 1_555
Gd8 O23 1_555 1_555
Gd9 O11 1_555 1_555
P4 O23 1_555 1_555
O21 Gd1 1_555 1_555
O24 P4 1_555 1_555
H15 O24 1_555 1_555
O27 Gd8 1_555 1_555
O30 Gd1 1_555 1_555
O34 Gd1 1_555 1_555
O37 Gd8 1_555 1_555
O41 Gd8 1_555 1_555
O44 Gd9 1_555 1_555
O47 Gd8 1_555 1_555
O48 Gd8 1_555 1_555
H16 O48 1_555 1_555
H17 O48 1_555 1_555
O49 Gd8 1_555 1_555
H18 O49 1_555 1_555
H19 O49 1_555 1_555
H21 C10 1_555 1_555
H22 C10 1_555 1_555
O13 Gd9 1_555 1_555
N1 C1 1_555 1_555
N1 C2 1_555 1_555
C3 C4 1_555 1_555
C5 C6 1_555 1_555
C7 C8 1_555 1_555
O44 C18 1_555 1_555
O46 C18 1_555 1_555
O15 Gd2 1_555 1_555
O16 C9 1_555 1_555
O17 Gd2 1_555 1_555
H2 O17 1_555 1_555
O18 Gd2 1_555 1_555
H4 O18 1_555 1_555
C9 O15 1_555 1_555
Gd7 O38 1_555 1_555
O26 Gd2 1_555 1_555
O36 Gd2 1_555 1_555
O38 C16 1_555 1_555
O40 Gd2 1_555 1_555
O42 Gd7 1_555 1_555
C16 O36 1_555 1_555
C17 O40 1_555 1_555
O42 C17 1_555 1_555
C16 C17 1_555 1_555
O43 Gd6 1_555 1_555
O48_2 Gd9 1_555 1_555
H16_2 O48_2 1_555 1_555
O49_2 Gd9 1_555 1_555
H18_2 O49_2 1_555 1_555
Gd7 O8 1_555 1_555
O10 Gd7 1_555 1_555
O45 C18_2 1_555 1_555
O7_2 Gd1_2 1_555 1_555
O9_2 Gd1_2 1_555 1_555
O37 C7_2 1_555 1_555
O41 C8_2 1_555 1_555
O14_2 Gd1_2 1_555 1_555
C5_2 O7_2 1_555 1_555
C6_2 O9_2 1_555 1_555
C8_2 O14_2 1_555 1_555
Gd7 O19_2 1_555 1_555
P3_2 O19_2 1_555 1_555
P4_2 O23_2 1_555 1_555
O20_2 P3_2 1_555 1_555
O21_2 Gd1_2 1_555 1_555
O22 Gd7 1_555 1_555
O24_2 P4_2 1_555 1_555
H15_2 O24_2 1_555 1_555
O29 Gd7 1_555 1_555
O33 Gd7 1_555 1_555
N2_2 H20_2 1_555 1_555
C10_2 P3_2 1_555 1_555
H21_2 C10_2 1_555 1_555
H22_2 C10_2 1_555 1_555
C11_2 P4_2 1_555 1_555
H23_2 C11_2 1_555 1_555
H24_2 C11_2 1_555 1_555
C12_2 N2_2 1_555 1_555
H26_2 C12_2 1_555 1_555
C13_2 O20_2 1_555 1_555
H27_2 C13_2 1_555 1_555
C5_2 C6_2 1_555 1_555
C7_2 C8_2 1_555 1_555
P3_2 O21_2 1_555 1_555
N2_2 C10_2 1_555 1_555
N2_2 C11_2 1_555 1_555
C12_2 C13_2 1_555 1_555
Gd11 O4_2 1_555 1_555
P2_2 O4_2 1_555 1_555
O5_2 P2_2 1_555 1_555
H1_2 O5_2 1_555 1_555
O17_2 Gd11 1_555 1_555
H2_2 O17_2 1_555 1_555
H3_2 O17_2 1_555 1_555
O18_2 Gd11 1_555 1_555
H4_2 O18_2 1_555 1_555
H5_2 O18_2 1_555 1_555
H7_2 C1_2 1_555 1_555
H8_2 C1_2 1_555 1_555
O36_2 Gd11 1_555 1_555
O40_2 Gd11 1_555 1_555
O46_2 Gd11 1_555 1_555
C16_2 O36_2 1_555 1_555
C17_2 O40_2 1_555 1_555
O43 C17_2 1_555 1_555
C16_2 C17_2 1_555 1_555
P1_2 O1_2 1_555 1_555
O2_2 P1_2 1_555 1_555
N1_2 H6_2 1_555 1_555
H10_2 C2_2 1_555 1_555
C3_2 N1_2 1_555 1_555
H11_2 C3_2 1_555 1_555
H12_2 C3_2 1_555 1_555
C4_2 O2_2 1_555 1_555
H13_2 C4_2 1_555 1_555
H14_2 C4_2 1_555 1_555
C9_2 O15_2 1_555 1_555
O29 C14_2 1_555 1_555
C14_2 O30_2 1_555 1_555
C15_2 O33 1_555 1_555
N1_2 C2_2 1_555 1_555
C3_2 C4_2 1_555 1_555
O34_2 C15_2 1_555 1_555
C14_2 C15_2 1_555 1_555

#END
