
###############################################################################
#
# This file contains modified crystal structure data generated from the
# MOF subset of the Cambridge Structural Database (CSD) v543 
# hosted by the Cambridge Crystallographic Data Centre (CCDC).
#
# This work is licensed under the Creative Commons
# Attribution-NonCommercial-ShareAlike 4.0 International License.
# To view a copy of this license, visit
# http://creativecommons.org/licenses/by-nc-sa/4.0/
# or send a letter to
# Creative Commons, PO Box 1866, Mountain View, CA 94042, USA.
#
# CIF created using the CSD Python API on 29 September 2022
# The structure has been converted into the P1 space group
# The structure has a 3D framework
# The original CSD entry KOHYAK is in the triclinic crystal system
# The framework has been calculated to contain at least 10.0% void space
# The void calculation uses a probe of radius 1.32A, grid spacing 0.4
#
###############################################################################

data_KOHYAK
_chemical_formula_moiety         '(C128 H80 Cd4 N32 O16)n'
_symmetry_cell_setting           triclinic
_symmetry_space_group_name_H-M   'P 1'
_symmetry_Int_Tables_number      1
_space_group_name_Hall           'P 1'
loop_
_symmetry_equiv_pos_site_id
_symmetry_equiv_pos_as_xyz
1 x,y,z
_cell_length_a                   14.7847(4)
_cell_length_b                   15.6515(3)
_cell_length_c                   18.4365(5)
_cell_angle_alpha                99.028(2)
_cell_angle_beta                 113.269(2)
_cell_angle_gamma                92.474(2)
_cell_volume                     3844.6
loop_
_atom_site_label
_atom_site_type_symbol
_atom_site_fract_x
_atom_site_fract_y
_atom_site_fract_z
O10 O 0.02668(18) 0.50891(17) 0.92902(14)
N12 N 0.0431(2) 0.68611(19) 0.04047(18)
C33 C 0.0050(3) 0.8218(2) 0.0945(2)
H21 H 0.010115 0.861658 0.139428
C34 C 0.0488(3) 0.7456(2) 0.1032(2)
H22 H 0.083657 0.735223 0.154816
Cd7 Cd 0.13273(2) 0.56689(2) 0.05970(2)
N11 N 0.9217(4) 0.2550(3) 0.2500(3)
C20 C 0.8821(3) 0.0541(2) 0.0504(2)
C27 C 0.8958(3) 0.1247(2) 0.1193(2)
C28 C 0.8517(4) 0.2003(3) 0.1071(3)
H17 H 0.813139 0.208837 0.055570
C29 C 0.8666(5) 0.2629(3) 0.1741(3)
H18 H 0.836575 0.313584 0.165914
C30 C 0.9643(5) 0.1821(3) 0.2598(3)
C31 C 0.9533(4) 0.1149(3) 0.1977(3)
H20 H 0.983477 0.064587 0.207822
Cd1 Cd 0.63365(2) 0.06755(2) 0.54528(2)
O1 O 0.7882(2) 0.15871(18) 0.61541(19)
O2 O 0.78869(18) 0.02713(17) 0.55218(17)
O5 O 0.55634(19) 0.18427(19) 0.57734(17)
O6 O 0.4410(2) 0.07543(16) 0.50412(17)
N1 N 0.4211(2) 0.0547(2) 0.11117(18)
N2 N 0.3268(2) 0.14459(19) 0.02295(18)
N3 N 0.3960(2) 0.19561(19) 0.16380(18)
N4 N 0.5864(2) 0.0867(2) 0.41425(18)
N6 N 0.2036(2) 0.43795(19) 0.06173(19)
N7 N 0.8305(2) 0.06883(18) 0.97572(18)
N10 N 0.6743(2) 0.0367(2) 0.67272(18)
N15 N 0.1879(2) 0.3339(2) 0.6282(2)
N16 N 0.2227(2) 0.4007(2) 0.6825(2)
C1 C 0.4331(2) 0.1200(2) 0.1719(2)
C2 C 0.3684(3) 0.0709(2) 0.0374(2)
C3 C 0.3418(2) 0.2040(2) 0.0880(2)
C4 C 0.4904(3) 0.1081(2) 0.2554(2)
C5 C 0.5332(3) 0.0327(3) 0.2731(2)
C6 C 0.5805(3) 0.0248(3) 0.3529(2)
C7 C 0.5458(3) 0.1597(2) 0.3965(2)
H3 H 0.550113 0.203507 0.438502
C8 C 0.4980(3) 0.1731(2) 0.3187(2)
H4 H 0.471339 0.224955 0.308894
C14 C 0.2953(2) 0.2857(2) 0.0779(2)
C15 C 0.2456(3) 0.3064(2) 0.0023(2)
C17 C 0.2521(3) 0.4182(3) 0.1342(2)
H11 H 0.254456 0.456182 0.179212
C18 C 0.2988(3) 0.3437(3) 0.1451(2)
H12 H 0.332223 0.332385 0.196507
C19 C 0.8206(3) 0.0031(2) 0.9162(2)
C22 C 0.7675(3) 0.0147(2) 0.8317(2)
C23 C 0.7354(3) 0.0941(3) 0.8146(2)
H13 H 0.743758 0.140577 0.855675
C24 C 0.6905(3) 0.1025(3) 0.7345(2)
H14 H 0.670778 0.156184 0.723059
C39 C 0.9942(3) 0.1781(3) 0.6995(3)
H26 H 0.958288 0.217349 0.717085
C40 C 0.9442(2) 0.1083(2) 0.6375(2)
C41 C 0.9986(3) 0.0514(3) 0.6103(3)
H27 H 0.966012 0.004149 0.568759
C43 C 0.8329(3) 0.0979(2) 0.5991(2)
C51 C 0.2583(3) 0.2975(2) 0.6009(2)
C52 C 0.3535(3) 0.3365(3) 0.6213(3)
H33 H 0.372623 0.393718 0.649123
C53 C 0.4196(3) 0.2902(3) 0.6002(2)
H34 H 0.483285 0.316362 0.613780
C54 C 0.3912(3) 0.2045(2) 0.5587(2)
C55 C 0.2948(3) 0.1674(2) 0.5351(2)
H35 H 0.274551 0.111074 0.505174
C56 C 0.2289(3) 0.2142(2) 0.5559(2)
H36 H 0.164005 0.189310 0.539517
C57 C 0.4673(3) 0.1512(2) 0.5454(2)
C58 C 0.1542(3) 0.4279(3) 0.7168(2)
C59 C 0.1950(3) 0.4845(2) 0.7900(2)
H37 H 0.260006 0.510402 0.809299
C60 C 0.1391(3) 0.5028(2) 0.8349(2)
H38 H 0.167187 0.539553 0.884951
C61 C 0.0419(3) 0.4660(2) 0.8048(2)
C63 C 0.0550(3) 0.3956(3) 0.6839(2)
H40 H 0.026250 0.361297 0.632688
O8 O 0.10502(19) 0.56028(17) 0.17456(16)
C62 C 0.0011(3) 0.5852(3) 0.2721(2)
H39 H 0.067899 0.606654 0.293921
C64 C 0.0163(3) 0.5269(2) 0.1442(2)
N9 N 0.1435(2) 0.07356(19) 0.07345(18)
H1 H 0.469778 0.011880 0.767940
H2 H 0.390516 0.025728 0.635584
H5 H 0.573484 0.087899 0.971297
C25 C 0.2955(3) 0.0397(2) 0.3099(2)
H15 H 0.306602 0.085760 0.352128
C26 C 0.2482(3) 0.0536(2) 0.2315(2)
H16 H 0.227439 0.107465 0.221642
C35 C 0.0072(3) 0.2987(2) 0.0343(2)
H23 H 0.011370 0.339759 0.078125
C36 C 0.0529(3) 0.2240(2) 0.0479(2)
H24 H 0.087208 0.215251 0.100132
O3 O 0.25219(18) 0.63344(17) 0.02011(16)
O4 O 0.2713(2) 0.6620(2) 0.14696(18)
N13 N 0.7448(2) 0.8547(2) 0.2634(2)
N14 N 0.7025(2) 0.8069(2) 0.19441(19)
C37 C 0.8502(3) 0.8668(3) 0.2921(2)
C38 C 0.9033(3) 0.8096(3) 0.2644(3)
H25 H 0.870482 0.763303 0.221870
C42 C 0.8990(3) 0.9352(3) 0.3550(3)
H28 H 0.862847 0.972508 0.374255
C44 C 0.5990(3) 0.7845(3) 0.1701(2)
C45 C 0.5431(3) 0.7523(3) 0.0885(2)
H29 H 0.571455 0.753452 0.051694
C46 C 0.4447(3) 0.7184(3) 0.0625(2)
H30 H 0.406513 0.698015 0.008006
C47 C 0.4032(3) 0.7149(3) 0.1181(2)
C48 C 0.4592(3) 0.7490(3) 0.1993(3)
H31 H 0.430796 0.747845 0.236075
C49 C 0.5567(3) 0.7844(3) 0.2256(2)
H32 H 0.593628 0.807952 0.279665
C50 C 0.3019(3) 0.6676(3) 0.0926(2)
H19 H 0.996013 0.824005 0.688049
H19_2 H 0.003987 0.175995 0.311951
O11 O 0.97332(18) 0.49109(17) 0.07098(14)
Cd2 Cd 0.86727(2) 0.43311(2) 0.94030(2)
O3_2 O 0.74781(18) 0.36656(17) 0.97989(16)
O4_2 O 0.7287(2) 0.3380(2) 0.85304(18)
N13_2 N 0.2552(2) 0.1453(2) 0.7366(2)
N14_2 N 0.2975(2) 0.1931(2) 0.80559(19)
C37_2 C 0.1498(3) 0.1332(3) 0.7079(2)
C38_2 C 0.0967(3) 0.1904(3) 0.7356(3)
H25_2 H 0.129518 0.236697 0.778130
C42_2 C 0.1010(3) 0.0648(3) 0.6450(3)
H28_2 H 0.137153 0.027492 0.625745
C44_2 C 0.4010(3) 0.2155(3) 0.8299(2)
C45_2 C 0.4569(3) 0.2477(3) 0.9115(2)
H29_2 H 0.428545 0.246548 0.948306
C46_2 C 0.5553(3) 0.2816(3) 0.9375(2)
H30_2 H 0.593487 0.301985 0.991994
C47_2 C 0.5968(3) 0.2851(3) 0.8819(2)
C48_2 C 0.5408(3) 0.2510(3) 0.8007(3)
H31_2 H 0.569204 0.252155 0.763925
C49_2 C 0.4433(3) 0.2156(3) 0.7744(2)
H32_2 H 0.406372 0.192048 0.720335
C50_2 C 0.6981(3) 0.3324(3) 0.9074(2)
O12 O 0.89498(19) 0.43972(17) 0.82544(16)
N17 N 0.7964(2) 0.56205(19) 0.93827(19)
N18 N 0.9569(2) 0.31389(19) 0.95953(18)
N9_2 N 0.8565(2) 0.92644(19) 0.92655(18)
H1_2 H 0.530222 0.988120 0.232060
H2_2 H 0.609484 0.974272 0.364416
H5_2 H 0.426516 0.912101 0.028703
C25_2 C 0.7045(3) 0.9603(2) 0.6901(2)
H15_2 H 0.693398 0.914240 0.647872
C26_2 C 0.7518(3) 0.9464(2) 0.7685(2)
H16_2 H 0.772561 0.892535 0.778358
C35_2 C 0.9928(3) 0.7013(2) 0.9657(2)
H23_2 H 0.988630 0.660241 0.921875
C36_2 C 0.9471(3) 0.7760(2) 0.9521(2)
H24_2 H 0.912792 0.784749 0.899868
Cd3 Cd 0.36635(2) 0.93245(2) 0.45472(2)
O9 O 0.5590(2) 0.92457(16) 0.49588(17)
C62_2 C 0.9989(3) 0.4148(3) 0.7279(2)
H39_2 H 0.932101 0.393346 0.706079
C64_2 C 0.9837(3) 0.4731(2) 0.8558(2)
O1_2 O 0.2118(2) 0.84129(18) 0.38459(19)
O2_2 O 0.21131(18) 0.97287(17) 0.44782(17)
O5_2 O 0.44366(19) 0.81573(19) 0.42266(17)
N1_2 N 0.5789(2) 0.9453(2) 0.88883(18)
N2_2 N 0.6732(2) 0.85541(19) 0.97705(18)
N3_2 N 0.6040(2) 0.80439(19) 0.83620(18)
N4_2 N 0.4136(2) 0.9133(2) 0.58575(18)
N7_2 N 0.1695(2) 0.93117(18) 0.02428(18)
N10_2 N 0.3257(2) 0.9633(2) 0.32728(18)
N15_2 N 0.8121(2) 0.6661(2) 0.3718(2)
N16_2 N 0.7773(2) 0.5993(2) 0.3175(2)
C1_2 C 0.5669(2) 0.8800(2) 0.8281(2)
C2_2 C 0.6316(3) 0.9291(2) 0.9626(2)
C3_2 C 0.6582(2) 0.7960(2) 0.9120(2)
C4_2 C 0.5096(3) 0.8919(2) 0.7446(2)
C5_2 C 0.4668(3) 0.9673(3) 0.7269(2)
C6_2 C 0.4195(3) 0.9752(3) 0.6471(2)
C7_2 C 0.4542(3) 0.8403(2) 0.6035(2)
H3_2 H 0.449887 0.796493 0.561498
C8_2 C 0.5020(3) 0.8269(2) 0.6813(2)
H4_2 H 0.528661 0.775045 0.691106
C14_2 C 0.7047(2) 0.7143(2) 0.9221(2)
C15_2 C 0.7544(3) 0.6936(2) 0.9977(2)
C17_2 C 0.7479(3) 0.5818(3) 0.8658(2)
H11_2 H 0.745544 0.543818 0.820788
C18_2 C 0.7012(3) 0.6563(3) 0.8549(2)
H12_2 H 0.667777 0.667615 0.803493
C19_2 C 0.1794(3) 0.9969(2) 0.0838(2)
C22_2 C 0.2325(3) 0.9853(2) 0.1683(2)
C23_2 C 0.2646(3) 0.9059(3) 0.1854(2)
H13_2 H 0.256242 0.859423 0.144325
C24_2 C 0.3095(3) 0.8975(3) 0.2655(2)
H14_2 H 0.329222 0.843816 0.276941
C39_2 C 0.0058(3) 0.8219(3) 0.3005(3)
H26_2 H 0.041712 0.782651 0.282915
C40_2 C 0.0558(2) 0.8917(2) 0.3625(2)
C41_2 C 0.0014(3) 0.9486(3) 0.3897(3)
H27_2 H 0.033988 0.995851 0.431241
C43_2 C 0.1671(3) 0.9021(2) 0.4009(2)
C51_2 C 0.7417(3) 0.7025(2) 0.3991(2)
C52_2 C 0.6465(3) 0.6635(3) 0.3787(3)
H33_2 H 0.627377 0.606282 0.350877
C53_2 C 0.5804(3) 0.7098(3) 0.3998(2)
H34_2 H 0.516715 0.683638 0.386220
C54_2 C 0.6088(3) 0.7955(2) 0.4413(2)
C55_2 C 0.7052(3) 0.8326(2) 0.4649(2)
H35_2 H 0.725449 0.888926 0.494826
C56_2 C 0.7711(3) 0.7858(2) 0.4441(2)
H36_2 H 0.835995 0.810690 0.460483
C57_2 C 0.5327(3) 0.8488(2) 0.4546(2)
C58_2 C 0.8458(3) 0.5721(3) 0.2832(2)
C59_2 C 0.8050(3) 0.5155(2) 0.2100(2)
H37_2 H 0.739994 0.489598 0.190701
C60_2 C 0.8609(3) 0.4972(2) 0.1651(2)
H38_2 H 0.832813 0.460447 0.115049
C61_2 C 0.9581(3) 0.5340(2) 0.1952(2)
C63_2 C 0.9450(3) 0.6044(3) 0.3161(2)
H40_2 H 0.973750 0.638703 0.367312
N11_2 N 0.0783(4) 0.7450(3) 0.7500(3)
C20_2 C 0.1179(3) 0.9459(2) 0.9496(2)
C27_2 C 0.1042(3) 0.8753(2) 0.8807(2)
C28_2 C 0.1483(4) 0.7997(3) 0.8929(3)
H17_2 H 0.186861 0.791163 0.944430
C29_2 C 0.1334(5) 0.7371(3) 0.8259(3)
H18_2 H 0.163425 0.686416 0.834086
C30_2 C 0.0357(5) 0.8179(3) 0.7402(3)
C31_2 C 0.0467(4) 0.8851(3) 0.8023(3)
H20_2 H 0.016523 0.935413 0.792178
C33_2 C 0.9950(3) 0.1782(2) 0.9055(2)
H21_2 H 0.989885 0.138342 0.860572
C34_2 C 0.9512(3) 0.2544(2) 0.8968(2)
H22_2 H 0.916343 0.264777 0.845184
C9 C 0.3556(3) 0.0032(2) 0.9678(2)
C13 C 0.3062(3) 0.0177(3) 0.8897(2)
H8 H 0.278679 0.069384 0.880478
H9 H 0.242670 0.269924 0.956244
C16 C 0.2007(3) 0.3820(2) 0.9971(2)
H10 H 0.166723 0.395071 0.946442
N8 N 0.9226(2) 0.98105(19) 0.06724(18)
C21 C 0.9083(2) 0.9200(2) 0.0035(2)
C32 C 0.9531(3) 0.8378(2) 0.0172(2)
N5 N 0.3363(3) 0.8776(2) 0.8346(2)
C10 C 0.3938(3) 0.9244(2) 0.9775(2)
C11 C 0.3823(3) 0.8637(3) 0.9096(3)
H6 H 0.408044 0.810974 0.916827
C12 C 0.2991(4) 0.9537(3) 0.8262(3)
H7 H 0.266407 0.964091 0.774363
N5_2 N 0.6637(3) 0.1224(2) 0.1654(2)
C10_2 C 0.6062(3) 0.0756(2) 0.0225(2)
C11_2 C 0.6177(3) 0.1363(3) 0.0904(3)
H6_2 H 0.591956 0.189026 0.083173
C12_2 C 0.7009(4) 0.0463(3) 0.1738(3)
H7_2 H 0.733593 0.035909 0.225637
N8_2 N 0.0774(2) 0.01895(19) 0.93276(18)
C21_2 C 0.0917(2) 0.0800(2) 0.9965(2)
C32_2 C 0.0469(3) 0.1622(2) 0.9828(2)
C9_2 C 0.6444(3) 0.9968(2) 0.0322(2)
C13_2 C 0.6938(3) 0.9823(3) 0.1103(2)
H8_2 H 0.721321 0.930616 0.119522
H9_2 H 0.757330 0.730076 0.043756
C16_2 C 0.7993(3) 0.6180(2) 0.0029(2)
H10_2 H 0.833277 0.604929 0.053558
loop_
_geom_bond_atom_site_label_1
_geom_bond_atom_site_label_2
_geom_bond_site_symmetry_1
_geom_bond_site_symmetry_2
N12 C34 1_555 1_555
H21 C33 1_555 1_555
C34 C33 1_555 1_555
H22 C34 1_555 1_555
Cd7 N12 1_555 1_555
N11 C29 1_555 1_555
C27 C20 1_555 1_555
C28 C27 1_555 1_555
H17 C28 1_555 1_555
C29 C28 1_555 1_555
H18 C29 1_555 1_555
C30 N11 1_555 1_555
C31 C27 1_555 1_555
H20 C31 1_555 1_555
C30 C31 1_555 1_555
Cd1 O1 1_555 1_555
O1 C43 1_555 1_555
O2 Cd1 1_555 1_555
O5 Cd1 1_555 1_555
O6 Cd1 1_555 1_555
N1 C1 1_555 1_555
N2 C2 1_555 1_555
N3 C1 1_555 1_555
N4 Cd1 1_555 1_555
N7 C19 1_555 1_555
N10 Cd1 1_555 1_555
N15 N16 1_555 1_555
N16 C58 1_555 1_555
C1 C4 1_555 1_555
C2 N1 1_555 1_555
C3 N2 1_555 1_555
C4 C5 1_555 1_555
C6 N4 1_555 1_555
C7 N4 1_555 1_555
H3 C7 1_555 1_555
C8 C4 1_555 1_555
H4 C8 1_555 1_555
C14 C3 1_555 1_555
C15 C14 1_555 1_555
C17 N6 1_555 1_555
H11 C17 1_555 1_555
C18 C14 1_555 1_555
H12 C18 1_555 1_555
C19 C22 1_555 1_555
C22 C23 1_555 1_555
C23 H13 1_555 1_555
C24 N10 1_555 1_555
H14 C24 1_555 1_555
H26 C39 1_555 1_555
C40 C39 1_555 1_555
C41 C40 1_555 1_555
H27 C41 1_555 1_555
C43 O2 1_555 1_555
C51 N15 1_555 1_555
C52 C51 1_555 1_555
H33 C52 1_555 1_555
C53 C52 1_555 1_555
H34 C53 1_555 1_555
C54 C53 1_555 1_555
C55 C54 1_555 1_555
H35 C55 1_555 1_555
C56 C51 1_555 1_555
H36 C56 1_555 1_555
C57 O5 1_555 1_555
C58 C59 1_555 1_555
C59 H37 1_555 1_555
C60 C59 1_555 1_555
H38 C60 1_555 1_555
C61 C60 1_555 1_555
C63 C58 1_555 1_555
H40 C63 1_555 1_555
Cd7 N6 1_555 1_555
O6 C57 1_555 1_555
N3 C3 1_555 1_555
C5 C6 1_555 1_555
C7 C8 1_555 1_555
C17 C18 1_555 1_555
C23 C24 1_555 1_555
C40 C43 1_555 1_555
C54 C57 1_555 1_555
C55 C56 1_555 1_555
O8 C64 1_555 1_555
H39 C62 1_555 1_555
O8 Cd7 1_555 1_555
H15 C25 1_555 1_555
H16 C26 1_555 1_555
H23 C35 1_555 1_555
H24 C36 1_555 1_555
C25 C26 1_555 1_555
C35 C36 1_555 1_555
Cd7 O3 1_555 1_555
O3 C50 1_555 1_555
O4 Cd7 1_555 1_555
N13 N14 1_555 1_555
N14 C44 1_555 1_555
C37 N13 1_555 1_555
C38 C37 1_555 1_555
H25 C38 1_555 1_555
C42 C37 1_555 1_555
H28 C42 1_555 1_555
C44 C45 1_555 1_555
C45 H29 1_555 1_555
C46 C45 1_555 1_555
H30 C46 1_555 1_555
C47 C46 1_555 1_555
C48 C47 1_555 1_555
H31 C48 1_555 1_555
C49 C44 1_555 1_555
H32 C49 1_555 1_555
C50 O4 1_555 1_555
C47 C50 1_555 1_555
C48 C49 1_555 1_555
Cd2 O3_2 1_555 1_555
O3_2 C50_2 1_555 1_555
O4_2 Cd2 1_555 1_555
N13_2 N14_2 1_555 1_555
N14_2 C44_2 1_555 1_555
C37_2 N13_2 1_555 1_555
C38_2 C37_2 1_555 1_555
H25_2 C38_2 1_555 1_555
C42_2 C37_2 1_555 1_555
H28_2 C42_2 1_555 1_555
C44_2 C45_2 1_555 1_555
C45_2 H29_2 1_555 1_555
C46_2 C45_2 1_555 1_555
H30_2 C46_2 1_555 1_555
C47_2 C46_2 1_555 1_555
C48_2 C47_2 1_555 1_555
H31_2 C48_2 1_555 1_555
C49_2 C44_2 1_555 1_555
H32_2 C49_2 1_555 1_555
C50_2 O4_2 1_555 1_555
O12 Cd2 1_555 1_555
N17 Cd2 1_555 1_555
N18 Cd2 1_555 1_555
C47_2 C50_2 1_555 1_555
C48_2 C49_2 1_555 1_555
H15_2 C25_2 1_555 1_555
H16_2 C26_2 1_555 1_555
H23_2 C35_2 1_555 1_555
H24_2 C36_2 1_555 1_555
C25_2 C26_2 1_555 1_555
C35_2 C36_2 1_555 1_555
Cd3 O9 1_555 1_555
O12 C64_2 1_555 1_555
H39_2 C62_2 1_555 1_555
Cd3 O1_2 1_555 1_555
O1_2 C43_2 1_555 1_555
O2_2 Cd3 1_555 1_555
O5_2 Cd3 1_555 1_555
N1_2 C1_2 1_555 1_555
N2_2 C2_2 1_555 1_555
N3_2 C1_2 1_555 1_555
N4_2 Cd3 1_555 1_555
N7_2 C19_2 1_555 1_555
N10_2 Cd3 1_555 1_555
N15_2 N16_2 1_555 1_555
N16_2 C58_2 1_555 1_555
C1_2 C4_2 1_555 1_555
C2_2 N1_2 1_555 1_555
C3_2 N2_2 1_555 1_555
C4_2 C5_2 1_555 1_555
C6_2 N4_2 1_555 1_555
C7_2 N4_2 1_555 1_555
H3_2 C7_2 1_555 1_555
C8_2 C4_2 1_555 1_555
H4_2 C8_2 1_555 1_555
C14_2 C3_2 1_555 1_555
C15_2 C14_2 1_555 1_555
C17_2 N17 1_555 1_555
H11_2 C17_2 1_555 1_555
C18_2 C14_2 1_555 1_555
H12_2 C18_2 1_555 1_555
C19_2 C22_2 1_555 1_555
C22_2 C23_2 1_555 1_555
C23_2 H13_2 1_555 1_555
C24_2 N10_2 1_555 1_555
H14_2 C24_2 1_555 1_555
H26_2 C39_2 1_555 1_555
C40_2 C39_2 1_555 1_555
C41_2 C40_2 1_555 1_555
H27_2 C41_2 1_555 1_555
C43_2 O2_2 1_555 1_555
C51_2 N15_2 1_555 1_555
C52_2 C51_2 1_555 1_555
H33_2 C52_2 1_555 1_555
C53_2 C52_2 1_555 1_555
H34_2 C53_2 1_555 1_555
C54_2 C53_2 1_555 1_555
C55_2 C54_2 1_555 1_555
H35_2 C55_2 1_555 1_555
C56_2 C51_2 1_555 1_555
H36_2 C56_2 1_555 1_555
C57_2 O5_2 1_555 1_555
C58_2 C59_2 1_555 1_555
C59_2 H37_2 1_555 1_555
C60_2 C59_2 1_555 1_555
H38_2 C60_2 1_555 1_555
C61_2 C60_2 1_555 1_555
C63_2 C58_2 1_555 1_555
H40_2 C63_2 1_555 1_555
O9 C57_2 1_555 1_555
N3_2 C3_2 1_555 1_555
C5_2 C6_2 1_555 1_555
C7_2 C8_2 1_555 1_555
C17_2 C18_2 1_555 1_555
C23_2 C24_2 1_555 1_555
C40_2 C43_2 1_555 1_555
C54_2 C57_2 1_555 1_555
C55_2 C56_2 1_555 1_555
N11_2 C29_2 1_555 1_555
C27_2 C20_2 1_555 1_555
C28_2 C27_2 1_555 1_555
H17_2 C28_2 1_555 1_555
C29_2 C28_2 1_555 1_555
H18_2 C29_2 1_555 1_555
C30_2 N11_2 1_555 1_555
C31_2 C27_2 1_555 1_555
H20_2 C31_2 1_555 1_555
C30_2 C31_2 1_555 1_555
N18 C34_2 1_555 1_555
H21_2 C33_2 1_555 1_555
C34_2 C33_2 1_555 1_555
H22_2 C34_2 1_555 1_555
C13 C9 1_555 1_555
H8 C13 1_555 1_555
H10 C16 1_555 1_555
C21 N8 1_555 1_555
C32 C21 1_555 1_555
N5 C11 1_555 1_555
C11 C10 1_555 1_555
H6 C11 1_555 1_555
C12 N5 1_555 1_555
H7 C12 1_555 1_555
N5_2 C11_2 1_555 1_555
C11_2 C10_2 1_555 1_555
H6_2 C11_2 1_555 1_555
C12_2 N5_2 1_555 1_555
H7_2 C12_2 1_555 1_555
C21_2 N8_2 1_555 1_555
C32_2 C21_2 1_555 1_555
C13_2 C9_2 1_555 1_555
H8_2 C13_2 1_555 1_555
H10_2 C16_2 1_555 1_555

#END
