
###############################################################################
#
# This file contains modified crystal structure data generated from the
# MOF subset of the Cambridge Structural Database (CSD) v543 
# hosted by the Cambridge Crystallographic Data Centre (CCDC).
#
# This work is licensed under the Creative Commons
# Attribution-NonCommercial-ShareAlike 4.0 International License.
# To view a copy of this license, visit
# http://creativecommons.org/licenses/by-nc-sa/4.0/
# or send a letter to
# Creative Commons, PO Box 1866, Mountain View, CA 94042, USA.
#
# CIF created using the CSD Python API on 29 September 2022
# The structure has been converted into the P1 space group
# The structure has a 3D framework
# The original CSD entry KOHYIS is in the triclinic crystal system
# The framework has been calculated to contain at least 10.0% void space
# The void calculation uses a probe of radius 1.32A, grid spacing 0.4
#
###############################################################################

data_KOHYIS
_chemical_formula_moiety         '(C128 H80 Cd4 N32 O16)n'
_symmetry_cell_setting           triclinic
_symmetry_space_group_name_H-M   'P 1'
_symmetry_Int_Tables_number      1
_space_group_name_Hall           'P 1'
loop_
_symmetry_equiv_pos_site_id
_symmetry_equiv_pos_as_xyz
1 x,y,z
_cell_length_a                   15.1008(4)
_cell_length_b                   15.1284(3)
_cell_length_c                   18.1489(4)
_cell_angle_alpha                76.710(2)
_cell_angle_beta                 67.069(2)
_cell_angle_gamma                89.629(2)
_cell_volume                     3700.22
loop_
_atom_site_label
_atom_site_type_symbol
_atom_site_fract_x
_atom_site_fract_y
_atom_site_fract_z
Cd7 Cd 0.07649(4) 0.42813(4) 0.55625(4)
O12 O 0.0592(4) 0.5789(4) 0.5012(4)
O13 O 0.0304(4) 0.6948(4) 0.4179(4)
N18 N 0.0189(5) 0.5469(5) 0.3152(5)
N1 N 0.3120(5) 0.3783(5) 0.0226(5)
N2 N 0.3221(5) 0.4662(5) 0.1131(5)
N3 N 0.2362(5) 0.3192(5) 0.1675(5)
N4 N 0.1334(5) 0.0754(5) 0.0648(5)
N6 N 0.1716(5) 0.4183(5) 0.4243(5)
C1 C 0.3417(6) 0.4527(6) 0.0383(6)
C2 C 0.2694(6) 0.3963(6) 0.1754(6)
C3 C 0.2581(6) 0.3142(6) 0.0898(6)
H4 H 0.408553 0.620016 0.029342
C9 C 0.2411(6) 0.4047(6) 0.2622(6)
C10 C 0.2604(6) 0.4849(6) 0.2794(6)
H5 H 0.296847 0.534637 0.237441
C11 C 0.2240(7) 0.4888(6) 0.3610(6)
H6 H 0.236216 0.542816 0.373034
C12 C 0.1576(6) 0.3402(6) 0.4065(6)
H7 H 0.123697 0.290399 0.449661
C13 C 0.1914(6) 0.3299(6) 0.3261(6)
H8 H 0.180924 0.274382 0.315607
C14 C 0.2164(6) 0.2304(6) 0.0801(6)
C15 C 0.1518(7) 0.1686(6) 0.1487(6)
H9 H 0.135525 0.178109 0.201088
C16 C 0.1113(7) 0.0926(6) 0.1391(6)
H10 H 0.067175 0.051855 0.185659
C18 C 0.2384(6) 0.2147(6) 0.0031(6)
H13 H 0.019432 0.704402 0.909023
C24 C 0.0345(6) 0.7902(6) 0.9753(6)
H14 H 0.078449 0.832865 0.930326
H23 H 0.028885 0.581879 0.654947
H34 H 0.262719 0.984359 0.904231
Cd3 Cd 0.93339(4) 0.06269(4) 0.93302(4)
N7 N 0.8417(5) 0.5019(5) 0.0839(5)
N11 N 0.6340(7) 0.2173(7) 0.2786(8)
C19 C 0.8119(6) 0.4277(6) 0.0679(6)
C21 C 0.8950(6) 0.5648(6) 0.0177(6)
C22 C 0.9340(6) 0.6494(6) 0.0295(6)
C25 C 0.9464(6) 0.7419(6) 0.1147(6)
H15 H 0.928887 0.751190 0.167322
C26 C 0.9079(6) 0.6637(6) 0.1071(6)
H16 H 0.865265 0.621526 0.153352
C27 C 0.7509(7) 0.3547(6) 0.1404(7)
C28 C 0.7191(7) 0.2729(7) 0.1310(8)
H17 H 0.736097 0.262323 0.078926
C29 C 0.6609(8) 0.2074(7) 0.2025(8)
H18 H 0.639678 0.153218 0.195925
C30 C 0.6651(8) 0.2951(8) 0.2860(8)
H19 H 0.647627 0.302861 0.339065
C31 C 0.7213(8) 0.3653(7) 0.2212(7)
H20 H 0.739359 0.418808 0.230765
O9 O 0.9102(4) 0.9978(4) 0.0714(3)
O10 O 0.9261(4) 0.9374(4) 0.1862(4)
N8 N 0.1690(5) 0.5843(5) 0.0063(5)
N9 N 0.0797(5) 0.4394(5) 0.0611(4)
C20 C 0.1141(6) 0.5156(6) 0.0691(6)
C23 C 0.0005(6) 0.2869(6) 0.0380(6)
C32 C 0.0858(6) 0.5259(6) 0.1539(6)
C33 C 0.1021(6) 0.6095(6) 0.1702(6)
H21 H 0.136045 0.659286 0.126972
C34 C 0.0674(6) 0.6169(6) 0.2505(6)
H22 H 0.078079 0.672709 0.260480
C35 C 0.0038(6) 0.4671(6) 0.3005(6)
C36 C 0.0351(6) 0.4542(6) 0.2209(6)
H24 H 0.022022 0.397960 0.212825
O1 O 0.7769(4) 0.1168(5) 0.9747(4)
O2 O 0.8717(5) 0.1476(5) 0.8407(4)
O3 O 0.2045(5) 0.4728(5) 0.5855(4)
O4 O 0.1497(5) 0.3292(5) 0.6347(5)
N10 N 0.9927(5) 0.1952(5) 0.9494(5)
N13 N 0.4712(6) 0.2714(6) 0.8246(5)
N14 N 0.4893(7) 0.3350(6) 0.7624(6)
C37 C 0.5536(7) 0.2493(7) 0.8426(6)
C38 C 0.5380(8) 0.2046(8) 0.9226(7)
H25 H 0.475534 0.193676 0.963246
C39 C 0.6147(7) 0.1760(8) 0.9424(7)
H26 H 0.604140 0.148694 0.996908
C40 C 0.7093(7) 0.1879(7) 0.8802(6)
C41 C 0.7195(7) 0.2304(7) 0.8032(7)
H27 H 0.781572 0.239108 0.761943
C42 C 0.6470(7) 0.2618(7) 0.7804(7)
H28 H 0.658972 0.290423 0.725851
C43 C 0.7879(7) 0.1471(7) 0.9017(6)
C44 C 0.4111(7) 0.3488(7) 0.7364(7)
C45 C 0.3421(7) 0.2782(7) 0.7507(6)
H29 H 0.340598 0.221136 0.784243
C46 C 0.2768(7) 0.2942(7) 0.7146(6)
H30 H 0.233050 0.246712 0.721825
C47 C 0.2749(7) 0.3800(7) 0.6676(6)
C48 C 0.3395(8) 0.4507(7) 0.6570(7)
H31 H 0.336454 0.508966 0.627617
C49 C 0.4091(8) 0.4355(7) 0.6900(7)
H32 H 0.453914 0.482853 0.681187
C50 C 0.2054(7) 0.3948(7) 0.6268(6)
N5 N 0.4761(5) 0.3367(6) 0.1707(5)
N15 N 0.4677(5) 0.9073(6) 0.3142(5)
N16 N 0.4424(5) 0.8446(5) 0.3782(5)
C4 C 0.5970(6) 0.4743(6) 0.0337(6)
C5 C 0.5619(6) 0.4863(6) 0.1147(6)
H1 H 0.577665 0.540507 0.124569
C6 C 0.5039(7) 0.4164(6) 0.1789(6)
H2 H 0.482390 0.425157 0.231955
C7 C 0.5107(7) 0.3261(6) 0.0923(6)
H3 H 0.493146 0.271196 0.084629
C8 C 0.5701(6) 0.3911(6) 0.0229(6)
C17 C 0.8054(6) 0.8628(6) 0.0008(6)
H11 H 0.791409 0.872709 0.052685
H12 H 0.718672 0.745012 0.044505
C51 C 0.5696(6) 0.9354(6) 0.2792(6)
C52 C 0.6088(6) 0.9734(6) 0.1952(6)
H33 H 0.568783 0.987903 0.166949
C53 C 0.7096(6) 0.9900(6) 0.1524(6)
C54 C 0.7657(6) 0.9675(6) 0.1961(6)
C55 C 0.7282(7) 0.9359(6) 0.2804(6)
H35 H 0.768544 0.925062 0.308633
C56 C 0.6266(6) 0.9200(7) 0.3236(6)
H36 H 0.598887 0.899603 0.380795
C57 C 0.8763(6) 0.9686(6) 0.1472(5)
C58 C 0.3454(7) 0.8071(6) 0.4054(6)
C59 C 0.2761(7) 0.8499(7) 0.3799(7)
H37 H 0.289093 0.910303 0.349356
C60 C 0.1895(7) 0.8034(7) 0.3997(7)
H38 H 0.143914 0.832088 0.382256
C61 C 0.1689(6) 0.7130(6) 0.4459(6)
C62 C 0.2348(7) 0.6730(6) 0.4757(6)
H39 H 0.220496 0.613800 0.508897
C63 C 0.3228(7) 0.7211(6) 0.4564(6)
H40 H 0.366053 0.694668 0.478046
C64 C 0.0796(6) 0.6589(6) 0.4570(6)
O5 O 0.0898(4) 0.0022(4) 0.9286(3)
O6 O 0.0739(4) 0.0626(4) 0.8138(4)
O7 O 0.9408(4) 0.4211(4) 0.4988(4)
O8 O 0.9696(4) 0.3052(4) 0.5821(4)
N5_2 N 0.5239(5) 0.6633(6) 0.8293(5)
N15_2 N 0.5323(5) 0.0927(6) 0.6858(5)
N16_2 N 0.5576(5) 0.1554(5) 0.6218(5)
C4_2 C 0.4030(6) 0.5257(6) 0.9663(6)
C5_2 C 0.4381(6) 0.5137(6) 0.8853(6)
H1_2 H 0.422335 0.459493 0.875431
C6_2 C 0.4961(7) 0.5836(6) 0.8211(6)
H2_2 H 0.517610 0.574843 0.768045
C7_2 C 0.4893(7) 0.6739(6) 0.9077(6)
H3_2 H 0.506854 0.728804 0.915371
C8_2 C 0.4299(6) 0.6089(6) 0.9771(6)
C17_2 C 0.1946(6) 0.1372(6) 0.9992(6)
H11_2 H 0.208591 0.127291 0.947315
H12_2 H 0.281328 0.254988 0.955495
C51_2 C 0.4304(6) 0.0646(6) 0.7208(6)
C52_2 C 0.3912(6) 0.0266(6) 0.8048(6)
H33_2 H 0.431217 0.012097 0.833051
C53_2 C 0.2904(6) 0.0100(6) 0.8476(6)
C54_2 C 0.2343(6) 0.0325(6) 0.8039(6)
C55_2 C 0.2718(7) 0.0641(6) 0.7196(6)
H35_2 H 0.231456 0.074938 0.691367
C56_2 C 0.3734(6) 0.0800(7) 0.6764(6)
H36_2 H 0.401113 0.100397 0.619205
C57_2 C 0.1237(6) 0.0314(6) 0.8528(5)
C58_2 C 0.6546(7) 0.1929(6) 0.5946(6)
C59_2 C 0.7239(7) 0.1501(7) 0.6201(7)
H37_2 H 0.710907 0.089697 0.650644
C60_2 C 0.8105(7) 0.1966(7) 0.6003(7)
H38_2 H 0.856086 0.167912 0.617744
C61_2 C 0.8311(6) 0.2870(6) 0.5541(6)
C62_2 C 0.7652(7) 0.3270(6) 0.5243(6)
H39_2 H 0.779504 0.386200 0.491103
C63_2 C 0.6772(7) 0.2789(6) 0.5436(6)
H40_2 H 0.633947 0.305332 0.521954
C64_2 C 0.9204(6) 0.3411(6) 0.5430(6)
Cd4 Cd 0.92351(4) 0.57187(4) 0.44375(4)
Cd1 Cd 0.06661(4) 0.93731(4) 0.06698(4)
O1_2 O 0.2231(4) 0.8832(5) 0.0253(4)
O2_2 O 0.1283(5) 0.8524(5) 0.1593(4)
O3_2 O 0.7955(5) 0.5272(5) 0.4145(4)
O4_2 O 0.8503(5) 0.6708(5) 0.3653(5)
N10_2 N 0.0073(5) 0.8048(5) 0.0506(5)
N13_2 N 0.5288(6) 0.7286(6) 0.1754(5)
N14_2 N 0.5107(7) 0.6650(6) 0.2376(6)
C37_2 C 0.4464(7) 0.7507(7) 0.1574(6)
C38_2 C 0.4620(8) 0.7954(8) 0.0774(7)
H25_2 H 0.524466 0.806324 0.036754
C39_2 C 0.3853(7) 0.8240(8) 0.0576(7)
H26_2 H 0.395860 0.851306 0.003092
C40_2 C 0.2907(7) 0.8121(7) 0.1198(6)
C41_2 C 0.2805(7) 0.7696(7) 0.1968(7)
H27_2 H 0.218428 0.760892 0.238057
C42_2 C 0.3530(7) 0.7382(7) 0.2196(7)
H28_2 H 0.341028 0.709577 0.274149
C43_2 C 0.2121(7) 0.8529(7) 0.0983(6)
C44_2 C 0.5889(7) 0.6512(7) 0.2636(7)
C45_2 C 0.6579(7) 0.7218(7) 0.2493(6)
H29_2 H 0.659402 0.778864 0.215757
C46_2 C 0.7232(7) 0.7058(7) 0.2854(6)
H30_2 H 0.766950 0.753288 0.278175
C47_2 C 0.7251(7) 0.6200(7) 0.3324(6)
C48_2 C 0.6605(8) 0.5493(7) 0.3430(7)
H31_2 H 0.663546 0.491034 0.372383
C49_2 C 0.5909(8) 0.5645(7) 0.3100(7)
H32_2 H 0.546086 0.517147 0.318813
C50_2 C 0.7946(7) 0.6052(7) 0.3732(6)
N17 N 0.8284(5) 0.5817(5) 0.5757(5)
N8_2 N 0.8310(5) 0.4157(5) 0.9937(5)
N9_2 N 0.9203(5) 0.5606(5) 0.9389(4)
N12 N 0.9811(5) 0.4531(5) 0.6848(5)
C20_2 C 0.8859(6) 0.4844(6) 0.9309(6)
C23_2 C 0.9995(6) 0.7131(6) 0.9620(6)
C32_2 C 0.9142(6) 0.4741(6) 0.8461(6)
C33_2 C 0.8979(6) 0.3905(6) 0.8298(6)
H21_2 H 0.863955 0.340714 0.873028
C34_2 C 0.9326(6) 0.3831(6) 0.7495(6)
H22_2 H 0.921921 0.327291 0.739520
C35_2 C 0.9962(6) 0.5329(6) 0.6995(6)
C36_2 C 0.9649(6) 0.5458(6) 0.7791(6)
H24_2 H 0.977978 0.602040 0.787175
N7_2 N 0.1583(5) 0.4981(5) 0.9161(5)
N11_2 N 0.3660(7) 0.7827(7) 0.7214(8)
C19_2 C 0.1881(6) 0.5723(6) 0.9321(6)
C21_2 C 0.1050(6) 0.4352(6) 0.9823(6)
C22_2 C 0.0660(6) 0.3506(6) 0.9705(6)
C25_2 C 0.0536(6) 0.2581(6) 0.8853(6)
H15_2 H 0.071113 0.248810 0.832678
C26_2 C 0.0921(6) 0.3363(6) 0.8929(6)
H16_2 H 0.134735 0.378474 0.846648
C27_2 C 0.2491(7) 0.6453(6) 0.8596(7)
C28_2 C 0.2809(7) 0.7271(7) 0.8690(8)
H17_2 H 0.263903 0.737677 0.921074
C29_2 C 0.3391(8) 0.7926(7) 0.7975(8)
H18_2 H 0.360322 0.846782 0.804075
C30_2 C 0.3349(8) 0.7049(8) 0.7140(8)
H19_2 H 0.352373 0.697139 0.660935
C31_2 C 0.2787(8) 0.6347(7) 0.7788(7)
H20_2 H 0.260641 0.581192 0.769235
H13_2 H 0.980568 0.295598 0.090977
C24_2 C 0.9655(6) 0.2098(6) 0.0247(6)
H14_2 H 0.921551 0.167135 0.069674
H23_2 H 0.971115 0.418121 0.345053
H34_2 H 0.737281 0.015641 0.095769
N1_2 N 0.6880(5) 0.6217(5) 0.9774(5)
N2_2 N 0.6779(5) 0.5338(5) 0.8869(5)
N3_2 N 0.7638(5) 0.6808(5) 0.8325(5)
N4_2 N 0.8666(5) 0.9246(5) 0.9352(5)
C1_2 C 0.6583(6) 0.5473(6) 0.9617(6)
C2_2 C 0.7306(6) 0.6037(6) 0.8246(6)
C3_2 C 0.7419(6) 0.6858(6) 0.9102(6)
H4_2 H 0.591447 0.379984 0.970658
C9_2 C 0.7589(6) 0.5953(6) 0.7378(6)
C10_2 C 0.7396(6) 0.5151(6) 0.7206(6)
H5_2 H 0.703153 0.465363 0.762559
C11_2 C 0.7760(7) 0.5112(6) 0.6390(6)
H6_2 H 0.763784 0.457184 0.626966
C12_2 C 0.8424(6) 0.6598(6) 0.5935(6)
H7_2 H 0.876303 0.709601 0.550339
C13_2 C 0.8086(6) 0.6701(6) 0.6739(6)
H8_2 H 0.819076 0.725618 0.684393
C14_2 C 0.7836(6) 0.7696(6) 0.9199(6)
C15_2 C 0.8482(7) 0.8314(6) 0.8513(6)
H9_2 H 0.864475 0.821891 0.798912
C16_2 C 0.8887(7) 0.9074(6) 0.8609(6)
H10_2 H 0.932825 0.948145 0.814341
C18_2 C 0.7616(6) 0.7853(6) 0.9969(6)
loop_
_geom_bond_atom_site_label_1
_geom_bond_atom_site_label_2
_geom_bond_site_symmetry_1
_geom_bond_site_symmetry_2
N1 C1 1_555 1_555
N2 C1 1_555 1_555
N3 C2 1_555 1_555
N6 C11 1_555 1_555
C2 N2 1_555 1_555
C3 N1 1_555 1_555
C9 C2 1_555 1_555
C10 C9 1_555 1_555
H5 C10 1_555 1_555
C11 C10 1_555 1_555
H6 C11 1_555 1_555
C12 N6 1_555 1_555
H7 C12 1_555 1_555
C13 C9 1_555 1_555
H8 C13 1_555 1_555
C14 C3 1_555 1_555
C15 C14 1_555 1_555
H9 C15 1_555 1_555
C16 N4 1_555 1_555
H10 C16 1_555 1_555
C18 C14 1_555 1_555
Cd7 N6 1_555 1_555
N3 C3 1_555 1_555
C12 C13 1_555 1_555
C15 C16 1_555 1_555
H14 C24 1_555 1_555
N7 C19 1_555 1_555
N11 C29 1_555 1_555
C19 C27 1_555 1_555
C21 N7 1_555 1_555
C22 C21 1_555 1_555
H15 C25 1_555 1_555
C26 C22 1_555 1_555
H16 C26 1_555 1_555
C27 C28 1_555 1_555
C28 H17 1_555 1_555
C29 C28 1_555 1_555
H18 C29 1_555 1_555
C30 N11 1_555 1_555
H19 C30 1_555 1_555
C31 C27 1_555 1_555
H20 C31 1_555 1_555
C25 C26 1_555 1_555
C30 C31 1_555 1_555
N9 C20 1_555 1_555
N18 C34 1_555 1_555
C20 N8 1_555 1_555
C32 C20 1_555 1_555
C33 C32 1_555 1_555
H21 C33 1_555 1_555
C34 C33 1_555 1_555
H22 C34 1_555 1_555
C35 N18 1_555 1_555
C36 C32 1_555 1_555
H24 C36 1_555 1_555
C35 C36 1_555 1_555
Cd3 O1 1_555 1_555
Cd7 O3 1_555 1_555
O1 C43 1_555 1_555
O2 Cd3 1_555 1_555
O3 C50 1_555 1_555
O4 Cd7 1_555 1_555
N10 Cd3 1_555 1_555
N13 N14 1_555 1_555
N14 C44 1_555 1_555
C37 N13 1_555 1_555
C38 C37 1_555 1_555
H25 C38 1_555 1_555
C39 C38 1_555 1_555
H26 C39 1_555 1_555
C40 C39 1_555 1_555
C41 C40 1_555 1_555
H27 C41 1_555 1_555
C42 C37 1_555 1_555
H28 C42 1_555 1_555
C43 O2 1_555 1_555
C44 C45 1_555 1_555
C45 H29 1_555 1_555
C46 C45 1_555 1_555
H30 C46 1_555 1_555
C47 C46 1_555 1_555
C48 C47 1_555 1_555
H31 C48 1_555 1_555
C49 C44 1_555 1_555
H32 C49 1_555 1_555
C50 O4 1_555 1_555
O12 Cd7 1_555 1_555
C40 C43 1_555 1_555
C41 C42 1_555 1_555
C47 C50 1_555 1_555
C48 C49 1_555 1_555
O10 C57 1_555 1_555
O12 C64 1_555 1_555
O13 C64 1_555 1_555
N5 C6 1_555 1_555
N15 N16 1_555 1_555
N16 C58 1_555 1_555
C4 C5 1_555 1_555
C5 H1 1_555 1_555
C6 C5 1_555 1_555
H2 C6 1_555 1_555
C7 N5 1_555 1_555
H3 C7 1_555 1_555
C8 C4 1_555 1_555
H11 C17 1_555 1_555
C51 N15 1_555 1_555
C52 C51 1_555 1_555
H33 C52 1_555 1_555
C53 C52 1_555 1_555
C54 C53 1_555 1_555
C55 C54 1_555 1_555
H35 C55 1_555 1_555
C56 C51 1_555 1_555
H36 C56 1_555 1_555
C57 O9 1_555 1_555
C58 C59 1_555 1_555
C59 H37 1_555 1_555
C60 C59 1_555 1_555
H38 C60 1_555 1_555
C61 C60 1_555 1_555
C62 C61 1_555 1_555
H39 C62 1_555 1_555
C63 C58 1_555 1_555
H40 C63 1_555 1_555
C64 C61 1_555 1_555
C7 C8 1_555 1_555
C54 C57 1_555 1_555
C55 C56 1_555 1_555
C62 C63 1_555 1_555
O6 C57_2 1_555 1_555
O7 C64_2 1_555 1_555
O8 C64_2 1_555 1_555
N5_2 C6_2 1_555 1_555
N15_2 N16_2 1_555 1_555
N16_2 C58_2 1_555 1_555
C4_2 C5_2 1_555 1_555
C5_2 H1_2 1_555 1_555
C6_2 C5_2 1_555 1_555
H2_2 C6_2 1_555 1_555
C7_2 N5_2 1_555 1_555
H3_2 C7_2 1_555 1_555
C8_2 C4_2 1_555 1_555
H11_2 C17_2 1_555 1_555
C51_2 N15_2 1_555 1_555
C52_2 C51_2 1_555 1_555
H33_2 C52_2 1_555 1_555
C53_2 C52_2 1_555 1_555
C54_2 C53_2 1_555 1_555
C55_2 C54_2 1_555 1_555
H35_2 C55_2 1_555 1_555
C56_2 C51_2 1_555 1_555
H36_2 C56_2 1_555 1_555
C57_2 O5 1_555 1_555
C58_2 C59_2 1_555 1_555
C59_2 H37_2 1_555 1_555
C60_2 C59_2 1_555 1_555
H38_2 C60_2 1_555 1_555
C61_2 C60_2 1_555 1_555
C62_2 C61_2 1_555 1_555
H39_2 C62_2 1_555 1_555
C63_2 C58_2 1_555 1_555
H40_2 C63_2 1_555 1_555
C64_2 C61_2 1_555 1_555
Cd4 O7 1_555 1_555
C7_2 C8_2 1_555 1_555
C54_2 C57_2 1_555 1_555
C55_2 C56_2 1_555 1_555
C62_2 C63_2 1_555 1_555
Cd1 O1_2 1_555 1_555
Cd4 O3_2 1_555 1_555
O1_2 C43_2 1_555 1_555
O2_2 Cd1 1_555 1_555
O3_2 C50_2 1_555 1_555
O4_2 Cd4 1_555 1_555
N10_2 Cd1 1_555 1_555
N13_2 N14_2 1_555 1_555
N14_2 C44_2 1_555 1_555
C37_2 N13_2 1_555 1_555
C38_2 C37_2 1_555 1_555
H25_2 C38_2 1_555 1_555
C39_2 C38_2 1_555 1_555
H26_2 C39_2 1_555 1_555
C40_2 C39_2 1_555 1_555
C41_2 C40_2 1_555 1_555
H27_2 C41_2 1_555 1_555
C42_2 C37_2 1_555 1_555
H28_2 C42_2 1_555 1_555
C43_2 O2_2 1_555 1_555
C44_2 C45_2 1_555 1_555
C45_2 H29_2 1_555 1_555
C46_2 C45_2 1_555 1_555
H30_2 C46_2 1_555 1_555
C47_2 C46_2 1_555 1_555
C48_2 C47_2 1_555 1_555
H31_2 C48_2 1_555 1_555
C49_2 C44_2 1_555 1_555
H32_2 C49_2 1_555 1_555
C50_2 O4_2 1_555 1_555
N17 Cd4 1_555 1_555
C40_2 C43_2 1_555 1_555
C41_2 C42_2 1_555 1_555
C47_2 C50_2 1_555 1_555
C48_2 C49_2 1_555 1_555
N9_2 C20_2 1_555 1_555
N12 C34_2 1_555 1_555
C20_2 N8_2 1_555 1_555
C32_2 C20_2 1_555 1_555
C33_2 C32_2 1_555 1_555
H21_2 C33_2 1_555 1_555
C34_2 C33_2 1_555 1_555
H22_2 C34_2 1_555 1_555
C35_2 N12 1_555 1_555
C36_2 C32_2 1_555 1_555
H24_2 C36_2 1_555 1_555
C35_2 C36_2 1_555 1_555
N7_2 C19_2 1_555 1_555
N11_2 C29_2 1_555 1_555
C19_2 C27_2 1_555 1_555
C21_2 N7_2 1_555 1_555
C22_2 C21_2 1_555 1_555
H15_2 C25_2 1_555 1_555
C26_2 C22_2 1_555 1_555
H16_2 C26_2 1_555 1_555
C27_2 C28_2 1_555 1_555
C28_2 H17_2 1_555 1_555
C29_2 C28_2 1_555 1_555
H18_2 C29_2 1_555 1_555
C30_2 N11_2 1_555 1_555
H19_2 C30_2 1_555 1_555
C31_2 C27_2 1_555 1_555
H20_2 C31_2 1_555 1_555
C25_2 C26_2 1_555 1_555
C30_2 C31_2 1_555 1_555
H14_2 C24_2 1_555 1_555
N1_2 C1_2 1_555 1_555
N2_2 C1_2 1_555 1_555
N3_2 C2_2 1_555 1_555
N17 C11_2 1_555 1_555
C2_2 N2_2 1_555 1_555
C3_2 N1_2 1_555 1_555
C9_2 C2_2 1_555 1_555
C10_2 C9_2 1_555 1_555
H5_2 C10_2 1_555 1_555
C11_2 C10_2 1_555 1_555
H6_2 C11_2 1_555 1_555
C12_2 N17 1_555 1_555
H7_2 C12_2 1_555 1_555
C13_2 C9_2 1_555 1_555
H8_2 C13_2 1_555 1_555
C14_2 C3_2 1_555 1_555
C15_2 C14_2 1_555 1_555
H9_2 C15_2 1_555 1_555
C16_2 N4_2 1_555 1_555
H10_2 C16_2 1_555 1_555
C18_2 C14_2 1_555 1_555
N3_2 C3_2 1_555 1_555
C12_2 C13_2 1_555 1_555
C15_2 C16_2 1_555 1_555

#END
