
###############################################################################
#
# This file contains modified crystal structure data generated from the
# MOF subset of the Cambridge Structural Database (CSD) v543 
# hosted by the Cambridge Crystallographic Data Centre (CCDC).
#
# This work is licensed under the Creative Commons
# Attribution-NonCommercial-ShareAlike 4.0 International License.
# To view a copy of this license, visit
# http://creativecommons.org/licenses/by-nc-sa/4.0/
# or send a letter to
# Creative Commons, PO Box 1866, Mountain View, CA 94042, USA.
#
# CIF created using the CSD Python API on 29 September 2022
# The structure has been converted into the P1 space group
# The structure has a 3D framework
# The original CSD entry KOHYEO is in the triclinic crystal system
# The framework has been calculated to contain at least 10.0% void space
# The void calculation uses a probe of radius 1.32A, grid spacing 0.4
#
###############################################################################

data_KOHYEO
_chemical_formula_moiety         '(C128 H80 Cd4 N32 O16)n'
_symmetry_cell_setting           triclinic
_symmetry_space_group_name_H-M   'P 1'
_symmetry_Int_Tables_number      1
_space_group_name_Hall           'P 1'
loop_
_symmetry_equiv_pos_site_id
_symmetry_equiv_pos_as_xyz
1 x,y,z
_cell_length_a                   15.0446(6)
_cell_length_b                   15.3208(6)
_cell_length_c                   18.3342(6)
_cell_angle_alpha                77.504(3)
_cell_angle_beta                 66.142(4)
_cell_angle_gamma                88.035(3)
_cell_volume                     3766.58
loop_
_atom_site_label
_atom_site_type_symbol
_atom_site_fract_x
_atom_site_fract_y
_atom_site_fract_z
O7 O 0.40578(17) 0.00406(16) 0.06988(14)
H25 H 0.060239 0.003470 0.173583
H26 H 0.226239 0.032162 0.102548
Cd1 Cd 0.41953(2) 0.57149(2) 0.44697(2)
O5 O 0.52773(18) 0.68995(18) 0.41756(15)
O6 O 0.56238(17) 0.57712(15) 0.49814(16)
N1 N 0.5090(2) 0.5438(2) 0.31786(17)
N2 N 0.6608(2) 0.5767(2) 0.01112(18)
N3 N 0.5752(2) 0.43409(18) 0.06417(17)
N9 N 0.3315(2) 0.5862(2) 0.57962(17)
N10 N 0.2681(2) 0.68926(19) 0.83412(17)
N11 N 0.1860(2) 0.54520(19) 0.88805(17)
N12 N 0.1925(2) 0.63474(19) 0.97747(17)
N13 N 0.3658(2) 0.93143(19) 0.93435(18)
N15 N 0.9395(2) 0.8395(2) 0.37217(19)
N16 N 0.9625(2) 0.9046(2) 0.31167(19)
C1 C 0.4918(3) 0.4663(2) 0.3019(2)
H1 H 0.457557 0.419635 0.345759
C2 C 0.5589(3) 0.6101(2) 0.2544(2)
H2 H 0.570292 0.664510 0.264814
C3 C 0.5947(3) 0.6018(2) 0.1738(2)
H3 H 0.630705 0.648959 0.131290
C4 C 0.5753(2) 0.5211(2) 0.1581(2)
C5 C 0.5225(3) 0.4522(2) 0.2233(2)
H4 H 0.507895 0.397856 0.214575
C6 C 0.6058(2) 0.5101(2) 0.0731(2)
C12 C 0.4682(3) 0.2080(2) 0.0273(2)
H7 H 0.425703 0.166569 0.072220
C13 C 0.5018(3) 0.2826(2) 0.0406(2)
H8 H 0.482495 0.291180 0.093387
C33 C 0.5805(2) 0.6555(2) 0.45390(19)
C34 C 0.6685(2) 0.7094(2) 0.44137(19)
C35 C 0.6827(2) 0.7997(2) 0.4009(2)
H21 H 0.633943 0.827838 0.387307
C36 C 0.7687(3) 0.8471(2) 0.3811(2)
H22 H 0.777721 0.907496 0.355273
C37 C 0.8420(3) 0.8034(2) 0.4004(2)
C38 C 0.8258(3) 0.7153(2) 0.4451(2)
H23 H 0.873148 0.688150 0.461209
C39 C 0.7394(3) 0.6683(2) 0.4655(2)
H24 H 0.728462 0.609317 0.495179
C47 C 0.3513(3) 0.6615(3) 0.5975(2)
H29 H 0.387831 0.708198 0.554764
C48 C 0.3198(3) 0.6729(3) 0.6767(2)
H30 H 0.334512 0.726349 0.686740
C49 C 0.2659(2) 0.6032(2) 0.7409(2)
C50 C 0.2434(3) 0.5256(2) 0.7231(2)
H31 H 0.206416 0.478152 0.764739
C51 C 0.2772(3) 0.5203(2) 0.6417(2)
H32 H 0.261347 0.468531 0.629794
C52 C 0.2375(2) 0.6128(2) 0.8260(2)
C53 C 0.2459(2) 0.6964(2) 0.9107(2)
C54 C 0.1640(2) 0.5604(2) 0.9626(2)
H36 H 0.098285 0.396590 0.972705
C60 C 0.3512(3) 0.8373(3) 0.8518(2)
H37 H 0.369531 0.825987 0.799961
C61 C 0.3885(3) 0.9122(3) 0.8617(2)
H38 H 0.431724 0.951463 0.815349
C63 C 0.2614(3) 0.7978(2) 0.9964(2)
C64 C 0.2856(3) 0.7784(2) 0.9203(2)
Cd4 Cd 0.58047(2) 0.42851(2) 0.55303(2)
O9 O 0.2809(2) 0.52781(18) 0.43316(18)
O10 O 0.3365(2) 0.66725(18) 0.37569(19)
O11 O 0.43762(17) 0.42288(15) 0.50186(16)
O13 O 0.59422(17) 0.99594(16) 0.93012(14)
O3 O 0.7191(2) 0.47219(18) 0.56684(18)
O4 O 0.6635(2) 0.33275(18) 0.62431(19)
N7 N 0.9864(2) 0.2964(2) 0.80892(19)
H15 H 0.983164 0.236491 0.950844
C26 C 0.9318(3) 0.3604(2) 0.7140(2)
C27 C 0.9399(3) 0.4370(3) 0.6539(3)
H17 H 0.991608 0.479165 0.635682
C28 C 0.8701(3) 0.4499(3) 0.6217(3)
H18 H 0.874440 0.501548 0.582555
C29 C 0.7941(3) 0.3864(2) 0.6473(2)
C30 C 0.7883(3) 0.3094(3) 0.7059(2)
H19 H 0.738489 0.265753 0.722191
C31 C 0.8560(3) 0.2969(3) 0.7403(2)
H20 H 0.850334 0.246233 0.780720
C32 C 0.7216(3) 0.3971(2) 0.6103(2)
N7_2 N 0.0136(2) 0.7036(2) 0.19108(19)
H15_2 H 0.016836 0.763509 0.049156
C26_2 C 0.0682(3) 0.6396(2) 0.2860(2)
C27_2 C 0.0601(3) 0.5630(3) 0.3461(3)
H17_2 H 0.008392 0.520835 0.364318
C28_2 C 0.1299(3) 0.5501(3) 0.3783(3)
H18_2 H 0.125560 0.498452 0.417445
C29_2 C 0.2059(3) 0.6136(2) 0.3527(2)
C30_2 C 0.2117(3) 0.6906(3) 0.2941(2)
H19_2 H 0.261511 0.734247 0.277809
C31_2 C 0.1440(3) 0.7031(3) 0.2597(2)
H20_2 H 0.149666 0.753767 0.219280
C32_2 C 0.2784(3) 0.6029(2) 0.3897(2)
N17 N 0.6342(2) 0.06857(19) 0.06565(18)
O5_2 O 0.47227(18) 0.31005(18) 0.58244(15)
N1_2 N 0.4910(2) 0.4562(2) 0.68214(17)
N2_2 N 0.3392(2) 0.4233(2) 0.98888(18)
N3_2 N 0.4248(2) 0.56591(18) 0.93583(17)
N9_2 N 0.6685(2) 0.4138(2) 0.42038(17)
N10_2 N 0.7319(2) 0.31074(19) 0.16588(17)
N11_2 N 0.8140(2) 0.45480(19) 0.11195(17)
N12_2 N 0.8075(2) 0.36526(19) 0.02253(17)
N15_2 N 0.0605(2) 0.1605(2) 0.62783(19)
N16_2 N 0.0375(2) 0.0954(2) 0.68833(19)
C1_2 C 0.5082(3) 0.5337(2) 0.6981(2)
H1_2 H 0.542443 0.580365 0.654241
C2_2 C 0.4411(3) 0.3899(2) 0.7456(2)
H2_2 H 0.429708 0.335490 0.735186
C3_2 C 0.4053(3) 0.3982(2) 0.8262(2)
H3_2 H 0.369295 0.351041 0.868710
C4_2 C 0.4247(2) 0.4789(2) 0.8419(2)
C5_2 C 0.4775(3) 0.5478(2) 0.7767(2)
H4_2 H 0.492105 0.602144 0.785425
C6_2 C 0.3942(2) 0.4899(2) 0.9269(2)
C12_2 C 0.5318(3) 0.7920(2) 0.9727(2)
H7_2 H 0.574297 0.833431 0.927780
C13_2 C 0.4982(3) 0.7174(2) 0.9594(2)
H8_2 H 0.517505 0.708820 0.906613
C33_2 C 0.4195(2) 0.3445(2) 0.54610(19)
C34_2 C 0.3315(2) 0.2906(2) 0.55863(19)
C35_2 C 0.3173(2) 0.2003(2) 0.5991(2)
H21_2 H 0.366057 0.172162 0.612693
C36_2 C 0.2313(3) 0.1529(2) 0.6189(2)
H22_2 H 0.222279 0.092504 0.644727
C37_2 C 0.1580(3) 0.1966(2) 0.5996(2)
C38_2 C 0.1742(3) 0.2847(2) 0.5549(2)
H23_2 H 0.126852 0.311850 0.538791
C39_2 C 0.2606(3) 0.3317(2) 0.5345(2)
H24_2 H 0.271538 0.390683 0.504821
C47_2 C 0.6487(3) 0.3385(3) 0.4025(2)
H29_2 H 0.612169 0.291802 0.445236
C48_2 C 0.6802(3) 0.3271(3) 0.3233(2)
H30_2 H 0.665488 0.273651 0.313260
C49_2 C 0.7341(2) 0.3968(2) 0.2591(2)
C50_2 C 0.7566(3) 0.4744(2) 0.2769(2)
H31_2 H 0.793584 0.521848 0.235261
C51_2 C 0.7228(3) 0.4797(2) 0.3583(2)
H32_2 H 0.738653 0.531469 0.370206
C52_2 C 0.7625(2) 0.3872(2) 0.1740(2)
C53_2 C 0.7541(2) 0.3036(2) 0.0893(2)
C54_2 C 0.8360(2) 0.4396(2) 0.0374(2)
H36_2 H 0.901715 0.603410 0.027295
C60_2 C 0.6488(3) 0.1627(3) 0.1482(2)
H37_2 H 0.630469 0.174013 0.200039
C61_2 C 0.6115(3) 0.0878(3) 0.1383(2)
H38_2 H 0.568276 0.048537 0.184651
C63_2 C 0.7386(3) 0.2022(2) 0.0036(2)
C64_2 C 0.7144(3) 0.2216(2) 0.0797(2)
H25_2 H 0.939761 0.996530 0.826417
H26_2 H 0.773761 0.967838 0.897452
Cd6 Cd 0.43219(2) 0.06535(2) 0.93470(2)
O1 O 0.37339(18) 0.15190(19) 0.84373(15)
O2 O 0.27485(18) 0.12975(18) 0.97434(15)
N4 N 0.6551(2) 0.4887(2) 0.92077(18)
N5 N 0.4941(2) 0.1919(2) 0.95213(18)
N6 N 0.8590(3) 0.7626(3) 0.7279(3)
N8 N 0.0096(2) 0.3482(2) 0.7405(2)
C7 C 0.6833(3) 0.5624(2) 0.9359(2)
C8 C 0.6011(2) 0.4270(2) 0.9867(2)
C9 C 0.5651(2) 0.3452(2) 0.9741(2)
C10 C 0.5920(3) 0.3302(2) 0.8959(2)
H5 H 0.633985 0.370939 0.850065
C11 C 0.5544(3) 0.2527(3) 0.8881(2)
H6 H 0.571969 0.242652 0.835889
C14 C 0.7437(3) 0.6323(3) 0.8648(2)
C15 C 0.7703(4) 0.6195(3) 0.7860(3)
H9 H 0.750274 0.567396 0.777163
C16 C 0.8273(4) 0.6867(4) 0.7210(3)
H10 H 0.844552 0.677682 0.668562
C17 C 0.8321(3) 0.7743(3) 0.8039(3)
H11 H 0.852847 0.827483 0.810382
C18 C 0.7750(3) 0.7119(3) 0.8740(3)
H12 H 0.758247 0.723133 0.925627
C19 C 0.2928(2) 0.1598(2) 0.9001(2)
C20 C 0.2144(2) 0.2049(2) 0.8771(2)
C21 C 0.2351(3) 0.2409(2) 0.7944(2)
H13 H 0.298071 0.241090 0.755028
C22 C 0.1623(3) 0.2761(2) 0.7713(2)
H14 H 0.176530 0.301626 0.716641
C23 C 0.0674(3) 0.2734(2) 0.8302(2)
C24 C 0.0466(3) 0.2383(3) 0.9118(2)
C25 C 0.1202(3) 0.2058(3) 0.9357(2)
H16 H 0.106589 0.184648 0.990863
O14 O 0.57496(18) 0.06245(17) 0.81905(15)
C40 C 0.9360(3) 0.0680(2) 0.7217(2)
C41 C 0.8982(3) 0.0184(2) 0.8014(2)
C42 C 0.7990(2) 0.0011(2) 0.8438(2)
C43 C 0.7363(2) 0.0338(2) 0.8063(2)
C44 C 0.7758(3) 0.0780(3) 0.7242(2)
H27 H 0.734789 0.095854 0.697633
C45 C 0.8751(3) 0.0956(3) 0.6818(2)
H28 H 0.901067 0.125513 0.627108
C46 C 0.6288(2) 0.0289(2) 0.8542(2)
O8 O 0.42504(18) 0.93755(17) 0.18095(15)
C40_2 C 0.0640(3) 0.9320(2) 0.2783(2)
C41_2 C 0.1018(3) 0.9816(2) 0.1986(2)
C42_2 C 0.2010(2) 0.9989(2) 0.1562(2)
C43_2 C 0.2637(2) 0.9662(2) 0.1937(2)
C44_2 C 0.2242(3) 0.9220(3) 0.2758(2)
H27_2 H 0.265211 0.904146 0.302367
C45_2 C 0.1249(3) 0.9044(3) 0.3182(2)
H28_2 H 0.098933 0.874487 0.372892
C46_2 C 0.3712(2) 0.9711(2) 0.1458(2)
Cd7 Cd 0.56781(2) 0.93465(2) 0.06530(2)
O1_2 O 0.62661(18) 0.84810(19) 0.15627(15)
O2_2 O 0.72515(18) 0.87025(18) 0.02566(15)
N4_2 N 0.3449(2) 0.5113(2) 0.07923(18)
N5_2 N 0.5059(2) 0.8081(2) 0.04787(18)
N6_2 N 0.1410(3) 0.2374(3) 0.2721(3)
N8_2 N 0.9904(2) 0.6518(2) 0.2595(2)
C7_2 C 0.3167(3) 0.4376(2) 0.0641(2)
C8_2 C 0.3989(2) 0.5730(2) 0.0133(2)
C9_2 C 0.4349(2) 0.6548(2) 0.0259(2)
C10_2 C 0.4080(3) 0.6698(2) 0.1041(2)
H5_2 H 0.366015 0.629061 0.149935
C11_2 C 0.4456(3) 0.7473(3) 0.1119(2)
H6_2 H 0.428031 0.757348 0.164111
C14_2 C 0.2563(3) 0.3677(3) 0.1352(2)
C15_2 C 0.2297(4) 0.3805(3) 0.2140(3)
H9_2 H 0.249726 0.432604 0.222837
C16_2 C 0.1727(4) 0.3133(4) 0.2790(3)
H10_2 H 0.155448 0.322318 0.331438
C17_2 C 0.1679(3) 0.2257(3) 0.1961(3)
H11_2 H 0.147153 0.172517 0.189618
C18_2 C 0.2250(3) 0.2881(3) 0.1260(3)
H12_2 H 0.241753 0.276867 0.074373
C19_2 C 0.7072(2) 0.8402(2) 0.0999(2)
C20_2 C 0.7856(2) 0.7951(2) 0.1229(2)
C21_2 C 0.7649(3) 0.7591(2) 0.2056(2)
H13_2 H 0.701929 0.758910 0.244972
C22_2 C 0.8377(3) 0.7239(2) 0.2287(2)
H14_2 H 0.823470 0.698374 0.283359
C23_2 C 0.9326(3) 0.7266(2) 0.1698(2)
C24_2 C 0.9534(3) 0.7617(3) 0.0882(2)
C25_2 C 0.8798(3) 0.7942(3) 0.0643(2)
H16_2 H 0.893411 0.815352 0.009137
C55 C 0.1033(2) 0.4904(2) 0.0338(2)
C56 C 0.0697(3) 0.5053(3) 0.1128(2)
H33 H 0.086664 0.558502 0.121939
C57 C 0.0101(3) 0.4386(3) 0.1776(2)
C58 C 0.0180(3) 0.3467(3) 0.0931(2)
H35 H 0.001476 0.292159 0.085921
C59 C 0.0768(3) 0.4090(2) 0.0244(2)
C62 C 0.3030(3) 0.8742(2) 0.0003(2)
H39 H 0.286825 0.886831 0.051392
H40 H 0.217914 0.759924 0.043632
N14 N 0.9834(2) 0.3603(2) 0.16941(19)
H34 H 0.987499 0.449145 0.230060
N14_2 N 0.0166(2) 0.6397(2) 0.83059(19)
H34_2 H 0.012501 0.550855 0.769940
C55_2 C 0.8967(2) 0.5096(2) 0.9662(2)
C56_2 C 0.9303(3) 0.4947(3) 0.8872(2)
H33_2 H 0.913336 0.441498 0.878061
C57_2 C 0.9899(3) 0.5614(3) 0.8224(2)
C58_2 C 0.9820(3) 0.6533(3) 0.9069(2)
H35_2 H 0.998524 0.707841 0.914079
C59_2 C 0.9232(3) 0.5910(2) 0.9756(2)
C62_2 C 0.6970(3) 0.1258(2) 0.9997(2)
H39_2 H 0.713175 0.113169 0.948608
H40_2 H 0.782086 0.240076 0.956368
loop_
_geom_bond_atom_site_label_1
_geom_bond_atom_site_label_2
_geom_bond_site_symmetry_1
_geom_bond_site_symmetry_2
Cd1 O5 1_555 1_555
O5 C33 1_555 1_555
O6 Cd1 1_555 1_555
N1 Cd1 1_555 1_555
N2 C6 1_555 1_555
N3 C6 1_555 1_555
N9 Cd1 1_555 1_555
N10 C52 1_555 1_555
N11 C52 1_555 1_555
N12 C53 1_555 1_555
N13 C61 1_555 1_555
N15 N16 1_555 1_555
C1 N1 1_555 1_555
H1 C1 1_555 1_555
C2 N1 1_555 1_555
H2 C2 1_555 1_555
C3 C2 1_555 1_555
H3 C3 1_555 1_555
C4 C3 1_555 1_555
C5 C1 1_555 1_555
H4 C5 1_555 1_555
C6 C4 1_555 1_555
H7 C12 1_555 1_555
H8 C13 1_555 1_555
C33 O6 1_555 1_555
C34 C33 1_555 1_555
C35 C34 1_555 1_555
H21 C35 1_555 1_555
C36 C35 1_555 1_555
H22 C36 1_555 1_555
C37 N15 1_555 1_555
C38 C37 1_555 1_555
H23 C38 1_555 1_555
C39 C34 1_555 1_555
H24 C39 1_555 1_555
C47 N9 1_555 1_555
H29 C47 1_555 1_555
C48 C47 1_555 1_555
H30 C48 1_555 1_555
C49 C48 1_555 1_555
C50 C49 1_555 1_555
H31 C50 1_555 1_555
C51 N9 1_555 1_555
H32 C51 1_555 1_555
C52 C49 1_555 1_555
C53 N10 1_555 1_555
C54 N11 1_555 1_555
C60 H37 1_555 1_555
C61 C60 1_555 1_555
H38 C61 1_555 1_555
C64 C53 1_555 1_555
Cd4 O6 1_555 1_555
O9 Cd1 1_555 1_555
O10 Cd1 1_555 1_555
O11 Cd1 1_555 1_555
N12 C54 1_555 1_555
C4 C5 1_555 1_555
C12 C13 1_555 1_555
C36 C37 1_555 1_555
C38 C39 1_555 1_555
C50 C51 1_555 1_555
C60 C64 1_555 1_555
C63 C64 1_555 1_555
Cd4 O11 1_555 1_555
O3 C32 1_555 1_555
O4 C32 1_555 1_555
C26 C27 1_555 1_555
C27 H17 1_555 1_555
C28 C27 1_555 1_555
H18 C28 1_555 1_555
C29 C28 1_555 1_555
C30 C29 1_555 1_555
H19 C30 1_555 1_555
C31 C26 1_555 1_555
H20 C31 1_555 1_555
C32 C29 1_555 1_555
Cd4 O3 1_555 1_555
O4 Cd4 1_555 1_555
C30 C31 1_555 1_555
O9 C32_2 1_555 1_555
O10 C32_2 1_555 1_555
C26_2 C27_2 1_555 1_555
C27_2 H17_2 1_555 1_555
C28_2 C27_2 1_555 1_555
H18_2 C28_2 1_555 1_555
C29_2 C28_2 1_555 1_555
C30_2 C29_2 1_555 1_555
H19_2 C30_2 1_555 1_555
C31_2 C26_2 1_555 1_555
H20_2 C31_2 1_555 1_555
C32_2 C29_2 1_555 1_555
C30_2 C31_2 1_555 1_555
Cd4 O5_2 1_555 1_555
O5_2 C33_2 1_555 1_555
N1_2 Cd4 1_555 1_555
N2_2 C6_2 1_555 1_555
N3_2 C6_2 1_555 1_555
N9_2 Cd4 1_555 1_555
N10_2 C52_2 1_555 1_555
N11_2 C52_2 1_555 1_555
N12_2 C53_2 1_555 1_555
N17 C61_2 1_555 1_555
N15_2 N16_2 1_555 1_555
C1_2 N1_2 1_555 1_555
H1_2 C1_2 1_555 1_555
C2_2 N1_2 1_555 1_555
H2_2 C2_2 1_555 1_555
C3_2 C2_2 1_555 1_555
H3_2 C3_2 1_555 1_555
C4_2 C3_2 1_555 1_555
C5_2 C1_2 1_555 1_555
H4_2 C5_2 1_555 1_555
C6_2 C4_2 1_555 1_555
H7_2 C12_2 1_555 1_555
H8_2 C13_2 1_555 1_555
C33_2 O11 1_555 1_555
C34_2 C33_2 1_555 1_555
C35_2 C34_2 1_555 1_555
H21_2 C35_2 1_555 1_555
C36_2 C35_2 1_555 1_555
H22_2 C36_2 1_555 1_555
C37_2 N15_2 1_555 1_555
C38_2 C37_2 1_555 1_555
H23_2 C38_2 1_555 1_555
C39_2 C34_2 1_555 1_555
H24_2 C39_2 1_555 1_555
C47_2 N9_2 1_555 1_555
H29_2 C47_2 1_555 1_555
C48_2 C47_2 1_555 1_555
H30_2 C48_2 1_555 1_555
C49_2 C48_2 1_555 1_555
C50_2 C49_2 1_555 1_555
H31_2 C50_2 1_555 1_555
C51_2 N9_2 1_555 1_555
H32_2 C51_2 1_555 1_555
C52_2 C49_2 1_555 1_555
C53_2 N10_2 1_555 1_555
C54_2 N11_2 1_555 1_555
C60_2 H37_2 1_555 1_555
C61_2 C60_2 1_555 1_555
H38_2 C61_2 1_555 1_555
C64_2 C53_2 1_555 1_555
N12_2 C54_2 1_555 1_555
C4_2 C5_2 1_555 1_555
C12_2 C13_2 1_555 1_555
C36_2 C37_2 1_555 1_555
C38_2 C39_2 1_555 1_555
C50_2 C51_2 1_555 1_555
C60_2 C64_2 1_555 1_555
C63_2 C64_2 1_555 1_555
Cd6 O1 1_555 1_555
O1 C19 1_555 1_555
O2 Cd6 1_555 1_555
N4 C7 1_555 1_555
N5 Cd6 1_555 1_555
N6 C16 1_555 1_555
C9 C8 1_555 1_555
C10 C9 1_555 1_555
H5 C10 1_555 1_555
C11 N5 1_555 1_555
H6 C11 1_555 1_555
C14 C7 1_555 1_555
C15 C14 1_555 1_555
H9 C15 1_555 1_555
C16 C15 1_555 1_555
H10 C16 1_555 1_555
C17 N6 1_555 1_555
H11 C17 1_555 1_555
C18 C14 1_555 1_555
H12 C18 1_555 1_555
C19 O2 1_555 1_555
C20 C19 1_555 1_555
C21 C20 1_555 1_555
H13 C21 1_555 1_555
C22 C21 1_555 1_555
H14 C22 1_555 1_555
C24 C23 1_555 1_555
C25 C20 1_555 1_555
H16 C25 1_555 1_555
O14 Cd6 1_555 1_555
N4 C8 1_555 1_555
C10 C11 1_555 1_555
C17 C18 1_555 1_555
C22 C23 1_555 1_555
C24 C25 1_555 1_555
O14 C46 1_555 1_555
C40 C41 1_555 1_555
C42 C41 1_555 1_555
C43 C42 1_555 1_555
C44 C43 1_555 1_555
H27 C44 1_555 1_555
C45 C40 1_555 1_555
H28 C45 1_555 1_555
C46 C43 1_555 1_555
C44 C45 1_555 1_555
O8 C46_2 1_555 1_555
C40_2 C41_2 1_555 1_555
C42_2 C41_2 1_555 1_555
C43_2 C42_2 1_555 1_555
C44_2 C43_2 1_555 1_555
H27_2 C44_2 1_555 1_555
C45_2 C40_2 1_555 1_555
H28_2 C45_2 1_555 1_555
C46_2 C43_2 1_555 1_555
O8 Cd7 1_555 1_555
C44_2 C45_2 1_555 1_555
Cd7 O1_2 1_555 1_555
O1_2 C19_2 1_555 1_555
O2_2 Cd7 1_555 1_555
N4_2 C7_2 1_555 1_555
N5_2 Cd7 1_555 1_555
N6_2 C16_2 1_555 1_555
C9_2 C8_2 1_555 1_555
C10_2 C9_2 1_555 1_555
H5_2 C10_2 1_555 1_555
C11_2 N5_2 1_555 1_555
H6_2 C11_2 1_555 1_555
C14_2 C7_2 1_555 1_555
C15_2 C14_2 1_555 1_555
H9_2 C15_2 1_555 1_555
C16_2 C15_2 1_555 1_555
H10_2 C16_2 1_555 1_555
C17_2 N6_2 1_555 1_555
H11_2 C17_2 1_555 1_555
C18_2 C14_2 1_555 1_555
H12_2 C18_2 1_555 1_555
C19_2 O2_2 1_555 1_555
C20_2 C19_2 1_555 1_555
C21_2 C20_2 1_555 1_555
H13_2 C21_2 1_555 1_555
C22_2 C21_2 1_555 1_555
H14_2 C22_2 1_555 1_555
C24_2 C23_2 1_555 1_555
C25_2 C20_2 1_555 1_555
H16_2 C25_2 1_555 1_555
N4_2 C8_2 1_555 1_555
C10_2 C11_2 1_555 1_555
C17_2 C18_2 1_555 1_555
C22_2 C23_2 1_555 1_555
C24_2 C25_2 1_555 1_555
C56 C55 1_555 1_555
H33 C56 1_555 1_555
C57 C56 1_555 1_555
H35 C58 1_555 1_555
C59 C55 1_555 1_555
H39 C62 1_555 1_555
C58 C59 1_555 1_555
C56_2 C55_2 1_555 1_555
H33_2 C56_2 1_555 1_555
C57_2 C56_2 1_555 1_555
H35_2 C58_2 1_555 1_555
C59_2 C55_2 1_555 1_555
H39_2 C62_2 1_555 1_555
C58_2 C59_2 1_555 1_555

#END
