
###############################################################################
#
# This file contains modified crystal structure data generated from the
# MOF subset of the Cambridge Structural Database (CSD) v543 
# hosted by the Cambridge Crystallographic Data Centre (CCDC).
#
# This work is licensed under the Creative Commons
# Attribution-NonCommercial-ShareAlike 4.0 International License.
# To view a copy of this license, visit
# http://creativecommons.org/licenses/by-nc-sa/4.0/
# or send a letter to
# Creative Commons, PO Box 1866, Mountain View, CA 94042, USA.
#
# CIF created using the CSD Python API on 29 September 2022
# The structure has been converted into the P1 space group
# The structure has a 3D framework
# The original CSD entry KOHZAL is in the triclinic crystal system
# The framework has been calculated to contain at least 10.0% void space
# The void calculation uses a probe of radius 1.32A, grid spacing 0.4
#
###############################################################################

data_KOHZAL
_chemical_formula_moiety         '(C128 H80 Cd2 N32 O14)n'
_symmetry_cell_setting           triclinic
_symmetry_space_group_name_H-M   'P 1'
_symmetry_Int_Tables_number      1
_space_group_name_Hall           'P 1'
loop_
_symmetry_equiv_pos_site_id
_symmetry_equiv_pos_as_xyz
1 x,y,z
_cell_length_a                   14.8086(4)
_cell_length_b                   15.9794(5)
_cell_length_c                   18.2659(3)
_cell_angle_alpha                101.054(2)
_cell_angle_beta                 111.350(2)
_cell_angle_gamma                90.981(2)
_cell_volume                     3933.09
loop_
_atom_site_label
_atom_site_type_symbol
_atom_site_fract_x
_atom_site_fract_y
_atom_site_fract_z
Cd5 Cd 0.07475(2) 0.93187(2) 0.44164(2)
O5 O 0.9062(2) 0.0091(2) 0.42796(18)
H26 H 0.561190 0.005676 0.306358
H28 H 0.727192 0.036876 0.382956
Cd7 Cd 0.92525(2) 0.06813(2) 0.55836(2)
Cd1 Cd 0.08707(2) 0.43360(2) 0.95402(2)
O3 O 0.2362(3) 0.4743(2) 0.9438(2)
O4 O 0.1682(3) 0.3465(2) 0.8816(3)
O7 O 0.8698(3) 0.1571(3) 0.6456(2)
O8 O 0.7709(2) 0.1319(2) 0.5196(2)
N1 N 0.5218(3) 0.3544(3) 0.7611(3)
N2 N 0.4967(3) 0.3081(3) 0.6928(2)
N3 N 0.0023(3) 0.4610(2) 0.8266(2)
N7 N 0.0017(3) 0.8113(2) 0.4605(2)
C1 C 0.2325(3) 0.4063(3) 0.8989(3)
C2 C 0.3067(3) 0.3952(3) 0.8588(3)
C3 C 0.3909(4) 0.4493(4) 0.8883(3)
H1 H 0.401643 0.495046 0.931456
C4 C 0.2906(4) 0.3290(4) 0.7942(3)
H2 H 0.233366 0.292746 0.773931
C5 C 0.4599(4) 0.4351(4) 0.8532(4)
H3 H 0.517547 0.470900 0.873742
C6 C 0.3593(4) 0.3156(4) 0.7587(3)
H4 H 0.347940 0.270740 0.714669
C7 C 0.4437(3) 0.3690(3) 0.7889(3)
C8 C 0.5758(3) 0.2843(3) 0.6701(3)
C9 C 0.5529(4) 0.2503(3) 0.5876(3)
H5 H 0.490227 0.251095 0.550606
C10 C 0.6693(3) 0.2834(3) 0.7240(3)
H6 H 0.685478 0.307611 0.778229
C11 C 0.7392(3) 0.2467(3) 0.6979(3)
H7 H 0.801688 0.245014 0.734792
C12 C 0.6239(3) 0.2156(3) 0.5617(3)
H8 H 0.609659 0.194535 0.507210
C13 C 0.7166(3) 0.2126(3) 0.6175(3)
C14 C 0.0163(4) 0.5361(3) 0.8088(3)
H9 H 0.048178 0.582201 0.851015
H18 H 0.009316 0.713866 0.601013
C30 C 0.0237(3) 0.7964(3) 0.5339(3)
H19 H 0.062243 0.838571 0.577578
C46 C 0.7910(3) 0.1643(3) 0.5914(3)
O12 O 0.0938(2) 0.9909(2) 0.57204(18)
O14 O 0.1302(3) 0.8429(3) 0.3544(2)
O15 O 0.2291(2) 0.8681(2) 0.4804(2)
Cd3 Cd 0.91293(2) 0.56640(2) 0.04598(2)
N17 N 0.9983(3) 0.1887(2) 0.5395(2)
O3_2 O 0.7638(3) 0.5257(2) 0.0562(2)
O4_2 O 0.8318(3) 0.6535(2) 0.1184(3)
N1_2 N 0.4782(3) 0.6456(3) 0.2389(3)
N2_2 N 0.5033(3) 0.6919(3) 0.3072(2)
N3_2 N 0.9977(3) 0.5390(2) 0.1734(2)
C1_2 C 0.7675(3) 0.5937(3) 0.1011(3)
C2_2 C 0.6933(3) 0.6048(3) 0.1412(3)
C3_2 C 0.6091(4) 0.5507(4) 0.1117(3)
H1_2 H 0.598357 0.504954 0.068544
C4_2 C 0.7094(4) 0.6710(4) 0.2058(3)
H2_2 H 0.766634 0.707254 0.226069
C5_2 C 0.5401(4) 0.5649(4) 0.1468(4)
H3_2 H 0.482453 0.529100 0.126258
C6_2 C 0.6407(4) 0.6844(4) 0.2413(3)
H4_2 H 0.652060 0.729260 0.285331
C7_2 C 0.5563(3) 0.6310(3) 0.2111(3)
C8_2 C 0.4242(3) 0.7157(3) 0.3299(3)
C9_2 C 0.4471(4) 0.7497(3) 0.4124(3)
H5_2 H 0.509773 0.748905 0.449394
C10_2 C 0.3307(3) 0.7166(3) 0.2760(3)
H6_2 H 0.314522 0.692389 0.221771
C11_2 C 0.2608(3) 0.7533(3) 0.3021(3)
H7_2 H 0.198312 0.754986 0.265208
C12_2 C 0.3761(3) 0.7844(3) 0.4383(3)
H8_2 H 0.390341 0.805465 0.492790
C13_2 C 0.2834(3) 0.7874(3) 0.3825(3)
C14_2 C 0.9837(4) 0.4639(3) 0.1912(3)
H9_2 H 0.951822 0.417799 0.148985
H18_2 H 0.990684 0.286134 0.398987
C30_2 C 0.9763(3) 0.2036(3) 0.4661(3)
H19_2 H 0.937757 0.161429 0.422422
C46_2 C 0.2090(3) 0.8357(3) 0.4086(3)
H26_2 H 0.438810 0.994324 0.693642
H28_2 H 0.272808 0.963124 0.617044
O1 O 0.0673(2) 0.57466(19) 0.0057(2)
O2 O 0.0249(2) 0.6819(2) 0.0749(2)
O6 O 0.9378(2) 0.9326(2) 0.33055(19)
N9 N 0.4521(3) 0.8290(3) 0.1285(3)
N10 N 0.4728(3) 0.8921(3) 0.1839(3)
N11 N 0.1669(3) 0.4161(2) 0.0846(2)
N12 N 0.3078(3) 0.4461(2) 0.3867(2)
N13 N 0.2314(3) 0.3054(2) 0.3347(2)
N14 N 0.3042(3) 0.3551(2) 0.4746(2)
N15 N 0.5000(4) 0.6221(3) 0.6622(3)
N16 N 0.1443(3) 0.0608(2) 0.4373(2)
C32 C 0.0831(3) 0.6485(3) 0.0443(2)
C33 C 0.1740(3) 0.7023(3) 0.0579(2)
C34 C 0.2462(3) 0.6647(3) 0.0351(3)
H21 H 0.235135 0.608506 0.005888
C35 C 0.1902(3) 0.7863(3) 0.0981(3)
H22 H 0.140916 0.812420 0.111300
C36 C 0.3346(3) 0.7115(3) 0.0560(3)
H23 H 0.382451 0.686657 0.039720
C37 C 0.2787(4) 0.8324(3) 0.1193(3)
H24 H 0.289116 0.889416 0.146328
C38 C 0.3528(3) 0.7928(3) 0.0997(3)
C39 C 0.5764(3) 0.9191(3) 0.2177(3)
C40 C 0.6428(4) 0.8836(4) 0.1880(3)
H25 H 0.621422 0.845440 0.138433
C41 C 0.6066(3) 0.9783(3) 0.2885(3)
C42 C 0.7414(4) 0.9040(4) 0.2311(3)
H27 H 0.786285 0.881534 0.209805
C43 C 0.7060(3) 0.9976(3) 0.3340(3)
C44 C 0.7727(3) 0.9579(3) 0.3057(2)
C45 C 0.8792(3) 0.9694(2) 0.3585(2)
C47 C 0.2242(4) 0.4776(3) 0.1461(3)
H29 H 0.242442 0.528118 0.134782
C48 C 0.1443(4) 0.3443(3) 0.1027(3)
H30 H 0.104867 0.300889 0.060840
C49 C 0.1755(4) 0.3300(3) 0.1795(3)
H31 H 0.158845 0.277655 0.188681
C50 C 0.2574(3) 0.4697(3) 0.2256(3)
H32 H 0.296077 0.514228 0.266632
C51 C 0.2317(3) 0.3943(3) 0.2427(3)
C52 C 0.2594(3) 0.3820(3) 0.3262(2)
C53 C 0.3306(3) 0.4297(3) 0.4601(2)
C54 C 0.2539(3) 0.2968(3) 0.4097(2)
C55 C 0.2182(3) 0.2140(3) 0.4202(3)
C56 C 0.1538(4) 0.1568(3) 0.3547(3)
H33 H 0.134370 0.168379 0.303429
C57 C 0.2468(3) 0.1932(3) 0.4948(3)
H34 H 0.290907 0.229842 0.540299
C58 C 0.1185(4) 0.0815(3) 0.3664(3)
H35 H 0.074245 0.043668 0.321975
C59 C 0.2082(3) 0.1165(3) 0.5001(3)
H36 H 0.227644 0.102620 0.550406
C60 C 0.3874(3) 0.4969(3) 0.5302(3)
C61 C 0.4177(4) 0.4820(3) 0.6078(3)
H37 H 0.401102 0.429726 0.617035
C62 C 0.4153(3) 0.5774(3) 0.5217(3)
H38 H 0.396662 0.590847 0.471276
C63 C 0.4709(4) 0.6360(3) 0.5897(4)
H39 H 0.488998 0.689361 0.583431
C64 C 0.4730(5) 0.5473(4) 0.6705(4)
H40 H 0.492508 0.537438 0.722353
N4 N 0.1455(3) 0.5721(2) 0.4758(2)
N5 N 0.1449(3) 0.4847(2) 0.5663(2)
N6 N 0.0705(3) 0.4306(2) 0.4265(2)
N8 N 0.3256(6) 0.7574(5) 0.7471(5)
C15 C 0.0446(4) 0.6038(3) 0.2352(3)
H10 H 0.054311 0.657016 0.224240
C16 C 0.0793(4) 0.5958(3) 0.3142(3)
H11 H 0.112896 0.642416 0.355166
C17 C 0.0138(4) 0.4508(3) 0.2688(3)
H12 H 0.000561 0.397712 0.278411
C18 C 0.0638(3) 0.5179(3) 0.3318(3)
C19 C 0.0956(3) 0.5068(3) 0.4161(3)
C20 C 0.1687(3) 0.5579(3) 0.5498(3)
C21 C 0.0964(3) 0.4232(2) 0.5030(2)
C22 C 0.2242(4) 0.6279(3) 0.6193(3)
C23 C 0.2551(4) 0.7055(3) 0.6061(4)
H13 H 0.242431 0.714437 0.554561
C24 C 0.3045(6) 0.7665(4) 0.6728(5)
H14 H 0.324982 0.818498 0.665395
C25 C 0.2438(6) 0.6198(4) 0.6954(4)
H15 H 0.223825 0.569546 0.706089
C26 C 0.2934(8) 0.6867(5) 0.7562(5)
H16 H 0.304873 0.680774 0.808429
C27 C 0.0648(3) 0.3411(3) 0.5164(2)
C28 C 0.0898(4) 0.3255(3) 0.5932(3)
H17 H 0.129273 0.365948 0.638050
C29 C 0.0076(3) 0.2782(3) 0.4513(3)
C31 C 0.0548(4) 0.2484(3) 0.6017(3)
H20 H 0.071574 0.237974 0.653132
N4_2 N 0.8545(3) 0.4279(2) 0.5242(2)
N5_2 N 0.8551(3) 0.5153(2) 0.4337(2)
N6_2 N 0.9295(3) 0.5694(2) 0.5735(2)
N8_2 N 0.6744(6) 0.2426(5) 0.2529(5)
C15_2 C 0.9554(4) 0.3962(3) 0.7648(3)
H10_2 H 0.945689 0.342984 0.775760
C16_2 C 0.9207(4) 0.4042(3) 0.6858(3)
H11_2 H 0.887104 0.357584 0.644834
C17_2 C 0.9862(4) 0.5492(3) 0.7312(3)
H12_2 H 0.999439 0.602288 0.721589
C18_2 C 0.9362(3) 0.4821(3) 0.6682(3)
C19_2 C 0.9044(3) 0.4932(3) 0.5839(3)
C20_2 C 0.8313(3) 0.4421(3) 0.4502(3)
C21_2 C 0.9036(3) 0.5768(2) 0.4970(2)
C22_2 C 0.7758(4) 0.3721(3) 0.3807(3)
C23_2 C 0.7449(4) 0.2945(3) 0.3939(4)
H13_2 H 0.757569 0.285563 0.445439
C24_2 C 0.6955(6) 0.2335(4) 0.3272(5)
H14_2 H 0.675018 0.181502 0.334605
C25_2 C 0.7562(6) 0.3802(4) 0.3046(4)
H15_2 H 0.776175 0.430454 0.293911
C26_2 C 0.7066(8) 0.3133(5) 0.2438(5)
H16_2 H 0.695127 0.319226 0.191571
C27_2 C 0.9352(3) 0.6589(3) 0.4836(2)
C28_2 C 0.9102(4) 0.6745(3) 0.4068(3)
H17_2 H 0.870727 0.634052 0.361950
C29_2 C 0.9924(3) 0.7218(3) 0.5487(3)
C31_2 C 0.9452(4) 0.7516(3) 0.3983(3)
H20_2 H 0.928426 0.762026 0.346868
O9 O 0.9327(2) 0.42534(19) 0.9943(2)
O10 O 0.9751(2) 0.3181(2) 0.9251(2)
O13 O 0.0622(2) 0.0674(2) 0.66945(19)
N9_2 N 0.5479(3) 0.1710(3) 0.8715(3)
N10_2 N 0.5272(3) 0.1079(3) 0.8161(3)
N11_2 N 0.8331(3) 0.5839(2) 0.9154(2)
N12_2 N 0.6922(3) 0.5539(2) 0.6133(2)
N13_2 N 0.7686(3) 0.6946(2) 0.6653(2)
N14_2 N 0.6958(3) 0.6449(2) 0.5254(2)
N15_2 N 0.5000(4) 0.3779(3) 0.3378(3)
N16_2 N 0.8557(3) 0.9392(2) 0.5627(2)
C32_2 C 0.9169(3) 0.3515(3) 0.9557(2)
C33_2 C 0.8260(3) 0.2977(3) 0.9421(2)
C34_2 C 0.7538(3) 0.3353(3) 0.9649(3)
H21_2 H 0.764865 0.391494 0.994112
C35_2 C 0.8098(3) 0.2137(3) 0.9019(3)
H22_2 H 0.859084 0.187580 0.888700
C36_2 C 0.6654(3) 0.2885(3) 0.9440(3)
H23_2 H 0.617549 0.313343 0.960280
C37_2 C 0.7213(4) 0.1676(3) 0.8807(3)
H24_2 H 0.710884 0.110584 0.853672
C38_2 C 0.6472(3) 0.2072(3) 0.9003(3)
C39_2 C 0.4236(3) 0.0809(3) 0.7823(3)
C40_2 C 0.3572(4) 0.1164(4) 0.8120(3)
H25_2 H 0.378578 0.154560 0.861567
C41_2 C 0.3934(3) 0.0217(3) 0.7115(3)
C42_2 C 0.2586(4) 0.0960(4) 0.7689(3)
H27_2 H 0.213715 0.118466 0.790195
C43_2 C 0.2940(3) 0.0024(3) 0.6660(3)
C44_2 C 0.2273(3) 0.0421(3) 0.6943(2)
C45_2 C 0.1208(3) 0.0306(2) 0.6415(2)
C47_2 C 0.7758(4) 0.5224(3) 0.8539(3)
H29_2 H 0.757558 0.471882 0.865218
C48_2 C 0.8557(4) 0.6557(3) 0.8973(3)
H30_2 H 0.895133 0.699111 0.939160
C49_2 C 0.8245(4) 0.6700(3) 0.8205(3)
H31_2 H 0.841155 0.722345 0.811319
C50_2 C 0.7426(3) 0.5303(3) 0.7744(3)
H32_2 H 0.703923 0.485772 0.733368
C51_2 C 0.7683(3) 0.6057(3) 0.7573(3)
C52_2 C 0.7406(3) 0.6180(3) 0.6738(2)
C53_2 C 0.6694(3) 0.5703(3) 0.5399(2)
C54_2 C 0.7461(3) 0.7032(3) 0.5903(2)
C55_2 C 0.7818(3) 0.7860(3) 0.5798(3)
C56_2 C 0.8462(4) 0.8432(3) 0.6453(3)
H33_2 H 0.865630 0.831621 0.696571
C57_2 C 0.7532(3) 0.8068(3) 0.5052(3)
H34_2 H 0.709093 0.770158 0.459701
C58_2 C 0.8815(4) 0.9185(3) 0.6336(3)
H35_2 H 0.925755 0.956332 0.678025
C59_2 C 0.7918(3) 0.8835(3) 0.4999(3)
H36_2 H 0.772356 0.897380 0.449594
C60_2 C 0.6126(3) 0.5031(3) 0.4698(3)
C61_2 C 0.5823(4) 0.5180(3) 0.3922(3)
H37_2 H 0.598898 0.570274 0.382965
C62_2 C 0.5847(3) 0.4226(3) 0.4783(3)
H38_2 H 0.603338 0.409153 0.528724
C63_2 C 0.5291(4) 0.3640(3) 0.4103(4)
H39_2 H 0.511002 0.310639 0.416569
C64_2 C 0.5270(5) 0.4527(4) 0.3295(4)
H40_2 H 0.507492 0.462562 0.277647
loop_
_geom_bond_atom_site_label_1
_geom_bond_atom_site_label_2
_geom_bond_site_symmetry_1
_geom_bond_site_symmetry_2
Cd7 O5 1_555 1_555
O3 Cd1 1_555 1_555
O4 Cd1 1_555 1_555
O7 C46 1_555 1_555
O8 C46 1_555 1_555
N1 N2 1_555 1_555
N2 C8 1_555 1_555
N3 Cd1 1_555 1_555
N7 C30 1_555 1_555
C1 O3 1_555 1_555
C2 C1 1_555 1_555
C3 C2 1_555 1_555
H1 C3 1_555 1_555
C4 C2 1_555 1_555
H2 C4 1_555 1_555
C5 C3 1_555 1_555
H3 C5 1_555 1_555
C6 C4 1_555 1_555
H4 C6 1_555 1_555
C7 N1 1_555 1_555
C8 C9 1_555 1_555
C9 H5 1_555 1_555
C10 C8 1_555 1_555
H6 C10 1_555 1_555
C11 C10 1_555 1_555
H7 C11 1_555 1_555
C12 C9 1_555 1_555
H8 C12 1_555 1_555
C13 C11 1_555 1_555
C14 N3 1_555 1_555
H9 C14 1_555 1_555
H19 C30 1_555 1_555
C46 C13 1_555 1_555
Cd5 N7 1_555 1_555
Cd7 O7 1_555 1_555
O4 C1 1_555 1_555
O8 Cd7 1_555 1_555
C5 C7 1_555 1_555
C6 C7 1_555 1_555
C12 C13 1_555 1_555
O12 Cd5 1_555 1_555
O14 Cd5 1_555 1_555
O15 Cd5 1_555 1_555
N17 Cd7 1_555 1_555
O3_2 Cd3 1_555 1_555
O4_2 Cd3 1_555 1_555
O14 C46_2 1_555 1_555
O15 C46_2 1_555 1_555
N1_2 N2_2 1_555 1_555
N2_2 C8_2 1_555 1_555
N3_2 Cd3 1_555 1_555
N17 C30_2 1_555 1_555
C1_2 O3_2 1_555 1_555
C2_2 C1_2 1_555 1_555
C3_2 C2_2 1_555 1_555
H1_2 C3_2 1_555 1_555
C4_2 C2_2 1_555 1_555
H2_2 C4_2 1_555 1_555
C5_2 C3_2 1_555 1_555
H3_2 C5_2 1_555 1_555
C6_2 C4_2 1_555 1_555
H4_2 C6_2 1_555 1_555
C7_2 N1_2 1_555 1_555
C8_2 C9_2 1_555 1_555
C9_2 H5_2 1_555 1_555
C10_2 C8_2 1_555 1_555
H6_2 C10_2 1_555 1_555
C11_2 C10_2 1_555 1_555
H7_2 C11_2 1_555 1_555
C12_2 C9_2 1_555 1_555
H8_2 C12_2 1_555 1_555
C13_2 C11_2 1_555 1_555
C14_2 N3_2 1_555 1_555
H9_2 C14_2 1_555 1_555
H19_2 C30_2 1_555 1_555
C46_2 C13_2 1_555 1_555
O4_2 C1_2 1_555 1_555
C5_2 C7_2 1_555 1_555
C6_2 C7_2 1_555 1_555
C12_2 C13_2 1_555 1_555
O1 C32 1_555 1_555
O2 C32 1_555 1_555
O6 C45 1_555 1_555
N9 N10 1_555 1_555
N10 C39 1_555 1_555
N12 C52 1_555 1_555
N13 C52 1_555 1_555
N14 C53 1_555 1_555
N15 C63 1_555 1_555
N16 C58 1_555 1_555
C32 C33 1_555 1_555
C33 C34 1_555 1_555
C34 H21 1_555 1_555
C35 C33 1_555 1_555
H22 C35 1_555 1_555
C36 C34 1_555 1_555
H23 C36 1_555 1_555
C37 C35 1_555 1_555
H24 C37 1_555 1_555
C38 N9 1_555 1_555
C39 C40 1_555 1_555
C40 H25 1_555 1_555
C41 C39 1_555 1_555
C42 C40 1_555 1_555
H27 C42 1_555 1_555
C43 C41 1_555 1_555
C44 C42 1_555 1_555
C45 C44 1_555 1_555
C47 N11 1_555 1_555
H29 C47 1_555 1_555
C48 N11 1_555 1_555
H30 C48 1_555 1_555
C49 C48 1_555 1_555
H31 C49 1_555 1_555
C50 C47 1_555 1_555
H32 C50 1_555 1_555
C51 C49 1_555 1_555
C52 C51 1_555 1_555
C53 N12 1_555 1_555
C54 N13 1_555 1_555
C55 C54 1_555 1_555
C56 C55 1_555 1_555
H33 C56 1_555 1_555
C57 C55 1_555 1_555
H34 C57 1_555 1_555
C58 C56 1_555 1_555
H35 C58 1_555 1_555
C59 N16 1_555 1_555
H36 C59 1_555 1_555
C60 C53 1_555 1_555
C61 C60 1_555 1_555
H37 C61 1_555 1_555
C62 C60 1_555 1_555
H38 C62 1_555 1_555
C63 C62 1_555 1_555
H39 C63 1_555 1_555
C64 N15 1_555 1_555
H40 C64 1_555 1_555
N14 C54 1_555 1_555
C36 C38 1_555 1_555
C37 C38 1_555 1_555
C43 C44 1_555 1_555
C50 C51 1_555 1_555
C57 C59 1_555 1_555
C61 C64 1_555 1_555
N4 C19 1_555 1_555
N5 C20 1_555 1_555
N6 C19 1_555 1_555
N8 C24 1_555 1_555
H10 C15 1_555 1_555
C16 C15 1_555 1_555
H11 C16 1_555 1_555
H12 C17 1_555 1_555
C18 C16 1_555 1_555
C19 C18 1_555 1_555
C20 N4 1_555 1_555
C21 N5 1_555 1_555
C22 C20 1_555 1_555
C23 C22 1_555 1_555
H13 C23 1_555 1_555
C24 C23 1_555 1_555
H14 C24 1_555 1_555
C25 C22 1_555 1_555
H15 C25 1_555 1_555
C26 N8 1_555 1_555
H16 C26 1_555 1_555
C27 C21 1_555 1_555
C28 C27 1_555 1_555
H17 C28 1_555 1_555
C29 C27 1_555 1_555
H20 C31 1_555 1_555
N6 C21 1_555 1_555
C17 C18 1_555 1_555
C25 C26 1_555 1_555
C28 C31 1_555 1_555
N4_2 C19_2 1_555 1_555
N5_2 C20_2 1_555 1_555
N6_2 C19_2 1_555 1_555
N8_2 C24_2 1_555 1_555
H10_2 C15_2 1_555 1_555
C16_2 C15_2 1_555 1_555
H11_2 C16_2 1_555 1_555
H12_2 C17_2 1_555 1_555
C18_2 C16_2 1_555 1_555
C19_2 C18_2 1_555 1_555
C20_2 N4_2 1_555 1_555
C21_2 N5_2 1_555 1_555
C22_2 C20_2 1_555 1_555
C23_2 C22_2 1_555 1_555
H13_2 C23_2 1_555 1_555
C24_2 C23_2 1_555 1_555
H14_2 C24_2 1_555 1_555
C25_2 C22_2 1_555 1_555
H15_2 C25_2 1_555 1_555
C26_2 N8_2 1_555 1_555
H16_2 C26_2 1_555 1_555
C27_2 C21_2 1_555 1_555
C28_2 C27_2 1_555 1_555
H17_2 C28_2 1_555 1_555
C29_2 C27_2 1_555 1_555
H20_2 C31_2 1_555 1_555
N6_2 C21_2 1_555 1_555
C17_2 C18_2 1_555 1_555
C25_2 C26_2 1_555 1_555
C28_2 C31_2 1_555 1_555
O9 C32_2 1_555 1_555
O10 C32_2 1_555 1_555
O13 C45_2 1_555 1_555
N9_2 N10_2 1_555 1_555
N10_2 C39_2 1_555 1_555
N12_2 C52_2 1_555 1_555
N13_2 C52_2 1_555 1_555
N14_2 C53_2 1_555 1_555
N15_2 C63_2 1_555 1_555
N16_2 C58_2 1_555 1_555
C32_2 C33_2 1_555 1_555
C33_2 C34_2 1_555 1_555
C34_2 H21_2 1_555 1_555
C35_2 C33_2 1_555 1_555
H22_2 C35_2 1_555 1_555
C36_2 C34_2 1_555 1_555
H23_2 C36_2 1_555 1_555
C37_2 C35_2 1_555 1_555
H24_2 C37_2 1_555 1_555
C38_2 N9_2 1_555 1_555
C39_2 C40_2 1_555 1_555
C40_2 H25_2 1_555 1_555
C41_2 C39_2 1_555 1_555
C42_2 C40_2 1_555 1_555
H27_2 C42_2 1_555 1_555
C43_2 C41_2 1_555 1_555
C44_2 C42_2 1_555 1_555
C45_2 C44_2 1_555 1_555
C47_2 N11_2 1_555 1_555
H29_2 C47_2 1_555 1_555
C48_2 N11_2 1_555 1_555
H30_2 C48_2 1_555 1_555
C49_2 C48_2 1_555 1_555
H31_2 C49_2 1_555 1_555
C50_2 C47_2 1_555 1_555
H32_2 C50_2 1_555 1_555
C51_2 C49_2 1_555 1_555
C52_2 C51_2 1_555 1_555
C53_2 N12_2 1_555 1_555
C54_2 N13_2 1_555 1_555
C55_2 C54_2 1_555 1_555
C56_2 C55_2 1_555 1_555
H33_2 C56_2 1_555 1_555
C57_2 C55_2 1_555 1_555
H34_2 C57_2 1_555 1_555
C58_2 C56_2 1_555 1_555
H35_2 C58_2 1_555 1_555
C59_2 N16_2 1_555 1_555
H36_2 C59_2 1_555 1_555
C60_2 C53_2 1_555 1_555
C61_2 C60_2 1_555 1_555
H37_2 C61_2 1_555 1_555
C62_2 C60_2 1_555 1_555
H38_2 C62_2 1_555 1_555
C63_2 C62_2 1_555 1_555
H39_2 C63_2 1_555 1_555
C64_2 N15_2 1_555 1_555
H40_2 C64_2 1_555 1_555
N14_2 C54_2 1_555 1_555
C36_2 C38_2 1_555 1_555
C37_2 C38_2 1_555 1_555
C43_2 C44_2 1_555 1_555
C50_2 C51_2 1_555 1_555
C57_2 C59_2 1_555 1_555
C61_2 C64_2 1_555 1_555

#END
