
###############################################################################
#
# This file contains modified crystal structure data generated from the
# MOF subset of the Cambridge Structural Database (CSD) v543 
# hosted by the Cambridge Crystallographic Data Centre (CCDC).
#
# This work is licensed under the Creative Commons
# Attribution-NonCommercial-ShareAlike 4.0 International License.
# To view a copy of this license, visit
# http://creativecommons.org/licenses/by-nc-sa/4.0/
# or send a letter to
# Creative Commons, PO Box 1866, Mountain View, CA 94042, USA.
#
# CIF created using the CSD Python API on 29 September 2022
# The structure has been converted into the P1 space group
# The structure has a 3D framework
# The original CSD entry KOKFOI is in the monoclinic crystal system
# The framework has been calculated to contain at least 10.0% void space
# The void calculation uses a probe of radius 1.32A, grid spacing 0.4
#
###############################################################################

data_KOKFOI
_chemical_formula_moiety         '(C156 H112 N4 O30 Tb4)n'
_symmetry_cell_setting           triclinic
_symmetry_space_group_name_H-M   'P 1'
_symmetry_Int_Tables_number      1
_space_group_name_Hall           'P 1'
loop_
_symmetry_equiv_pos_site_id
_symmetry_equiv_pos_as_xyz
1 x,y,z
_cell_length_a                   16.4757(8)
_cell_length_b                   24.1051(11)
_cell_length_c                   9.3853(4)
_cell_angle_alpha                90
_cell_angle_beta                 102.8045(11)
_cell_angle_gamma                90
_cell_volume                     3634.66
loop_
_atom_site_label
_atom_site_type_symbol
_atom_site_fract_x
_atom_site_fract_y
_atom_site_fract_z
Tb5 Tb 0.516032(18) 0.010536(13) 0.25909(3)
H6 H 0.7960 0.0139 0.5063
H7 H 0.9275 0.0051 0.6490
C17 C 0.3268(4) 0.2698(3) 0.9336(7)
C18 C 0.2979(4) 0.3224(3) 0.8931(7)
H11 H 0.3250 0.3438 0.8339
C19 C 0.2300(5) 0.3446(3) 0.9370(8)
H12 H 0.2099 0.3799 0.9038
C20 C 0.3937(4) 0.2441(3) 0.8761(7)
C21 C 0.3956(4) 0.1892(3) 0.8477(6)
H13 H 0.3545 0.1661 0.8709
C22 C 0.4581(4) 0.1654(3) 0.7839(7)
C23 C 0.5176(4) 0.1990(4) 0.7461(8)
H14 H 0.5582 0.1844 0.7002
C24 C 0.5156(5) 0.2551(4) 0.7781(9)
H15 H 0.5563 0.2788 0.7554
C25 C 0.4560(4) 0.2765(3) 0.8418(8)
H16 H 0.4572 0.3147 0.8632
C26 C 0.4579(4) 0.1046(3) 0.7582(6)
C27 C 0.0510(4) 0.3514(3) 0.9595(7)
C32 C 0.0345(4) 0.3206(3) 0.8328(8)
H20 H 0.0690 0.2904 0.8239
O3 O 0.4984(3) 0.08542(17) 0.6688(4)
O4 O 0.4215(3) 0.07257(17) 0.8278(4)
O10 O 0.3579(3) 0.00487(19) 0.5740(5)
O12 O 0.5816(3) 0.0238(2) 0.9358(5)
C7 C 0.1734(4) 0.0520(3) 0.1248(7)
C8 C 0.2526(4) 0.0440(3) 0.2091(6)
H5 H 0.2988 0.0548 0.1723
C9 C 0.2654(4) 0.0201(3) 0.3491(7)
C10 C 0.1963(5) 0.0022(3) 0.4004(8)
C11 C 0.1184(5) 0.0079(3) 0.3166(9)
C12 C 0.1062(5) 0.0328(4) 0.1798(8)
H8 H 0.0518 0.0367 0.1233
C13 C 0.3514(4) 0.0138(2) 0.4383(7)
O1 O 0.4122(3) 0.01688(18) 0.3813(5)
C28 C 0.9981(4) 0.1037(3) 0.4673(7)
C29 C 0.9327(4) 0.0908(3) 0.3537(8)
H18 H 0.8982 0.0606 0.3631
C30 C 0.9165(4) 0.1213(3) 0.2254(7)
C31 C 0.9688(4) 0.1670(4) 0.2190(8)
H19 H 0.9586 0.1895 0.1351
C36 C 0.7048(4) 0.0756(3) 0.0060(6)
C37 C 0.7725(4) 0.0875(3) 0.1234(7)
H24 H 0.7664 0.0810 0.2192
C38 C 0.8469(4) 0.1082(3) 0.1034(7)
C39 C 0.6286(4) 0.0504(2) 0.0348(6)
O5 O 0.6156(3) 0.0553(2) 0.1606(4)
C33 C 0.8522(4) 0.1203(3) 0.9562(7)
H21 H 0.9013 0.1358 0.9380
C34 C 0.7859(4) 0.1093(3) 0.8406(7)
H22 H 0.7907 0.1169 0.7446
C35 C 0.7127(4) 0.0872(3) 0.8650(7)
H23 H 0.6681 0.0800 0.7855
O7 O 0.4380(3) 0.08746(19) 0.1180(4)
H25 H 0.4427 0.1012 0.0368
H26 H 0.4454 0.1135 0.1805
O8 O 0.5421(3) 0.09481(18) 0.4027(4)
H27 H 0.5249 0.0978 0.4814
H28 H 0.5942 0.1012 0.4230
C33_2 C 0.1478(4) 0.8797(3) 0.0438(7)
H21_2 H 0.0987 0.8642 0.0620
C34_2 C 0.2141(4) 0.8907(3) 0.1594(7)
H22_2 H 0.2093 0.8831 0.2554
C35_2 C 0.2873(4) 0.9128(3) 0.1350(7)
H23_2 H 0.3319 0.9200 0.2145
O6 O 0.4184(3) 0.9762(2) 0.0642(5)
C28_2 C 0.0019(4) 0.8963(3) 0.5327(7)
C29_2 C 0.0673(4) 0.9092(3) 0.6463(8)
H18_2 H 0.1018 0.9394 0.6369
C30_2 C 0.0835(4) 0.8787(3) 0.7746(7)
C31_2 C 0.0312(4) 0.8330(4) 0.7810(8)
H19_2 H 0.0414 0.8105 0.8649
C36_2 C 0.2952(4) 0.9244(3) 0.9940(6)
C37_2 C 0.2275(4) 0.9125(3) 0.8766(7)
H24_2 H 0.2336 0.9190 0.7808
C38_2 C 0.1531(4) 0.8918(3) 0.8966(7)
C39_2 C 0.3714(4) 0.9496(2) 0.9652(6)
O5_2 O 0.3844(3) 0.9447(2) 0.8394(4)
Tb3 Tb 0.483968(18) 0.989464(13) 0.74091(3)
C7_2 C 0.8266(4) 0.9480(3) 0.8752(7)
C8_2 C 0.7474(4) 0.9560(3) 0.7909(6)
H5_2 H 0.7012 0.9452 0.8277
C9_2 C 0.7346(4) 0.9799(3) 0.6509(7)
C10_2 C 0.8037(5) 0.9978(3) 0.5996(8)
C11_2 C 0.8816(5) 0.9921(3) 0.6834(9)
C12_2 C 0.8938(5) 0.9672(4) 0.8202(8)
H8_2 H 0.9482 0.9633 0.8767
C13_2 C 0.6486(4) 0.9862(2) 0.5617(7)
O1_2 O 0.5878(3) 0.98312(18) 0.6187(5)
O2 O 0.6421(3) 0.99513(19) 0.4260(5)
O7_2 O 0.5620(3) 0.91254(19) 0.8820(4)
H25_2 H 0.5573 0.8988 0.9632
H26_2 H 0.5546 0.8865 0.8195
O8_2 O 0.4579(3) 0.90519(18) 0.5973(4)
H27_2 H 0.4751 0.9022 0.5186
H28_2 H 0.4058 0.8988 0.5770
H6_2 H 0.2040 0.9861 0.4937
H7_2 H 0.0725 0.9949 0.3510
C17_2 C 0.6732(4) 0.7302(3) 0.0664(7)
C18_2 C 0.7021(4) 0.6776(3) 0.1069(7)
H11_2 H 0.6750 0.6562 0.1661
C19_2 C 0.7700(5) 0.6554(3) 0.0630(8)
H12_2 H 0.7901 0.6201 0.0962
C20_2 C 0.6063(4) 0.7559(3) 0.1239(7)
C21_2 C 0.6044(4) 0.8108(3) 0.1523(6)
H13_2 H 0.6455 0.8339 0.1291
C22_2 C 0.5419(4) 0.8346(3) 0.2161(7)
C23_2 C 0.4824(4) 0.8010(4) 0.2539(8)
H14_2 H 0.4418 0.8156 0.2998
C24_2 C 0.4844(5) 0.7449(4) 0.2219(9)
H15_2 H 0.4437 0.7212 0.2446
C25_2 C 0.5440(4) 0.7235(3) 0.1582(8)
H16_2 H 0.5428 0.6853 0.1368
C26_2 C 0.5421(4) 0.8954(3) 0.2418(6)
C27_2 C 0.9490(4) 0.6486(3) 0.0405(7)
C32_2 C 0.9655(4) 0.6794(3) 0.1672(8)
H20_2 H 0.9310 0.7096 0.1761
O3_2 O 0.5016(3) 0.91458(17) 0.3312(4)
O4_2 O 0.5785(3) 0.92743(17) 0.1722(4)
Tb1 Tb 0.516032(18) 0.489464(13) 0.75909(3)
C1 C 0.8651(4) 0.8662(3) 0.2897(7)
C2 C 0.7963(4) 0.8992(3) 0.2454(7)
H1 H 0.7571 0.9028 0.3040
C3 C 0.7848(4) 0.9274(3) 0.1111(7)
H2 H 0.7394 0.9516 0.0832
C4 C 0.8395(4) 0.9201(3) 0.0192(7)
C5 C 0.9087(4) 0.8861(4) 0.0668(7)
H3 H 0.9479 0.8817 0.0086
C6 C 0.9199(5) 0.8587(4) 0.1993(8)
H4 H 0.9655 0.8347 0.2282
C14 C 0.8087(4) 0.8149(3) 0.4702(7)
C15 C 0.7819(4) 0.7623(3) 0.4277(7)
H9 H 0.8092 0.7414 0.3678
C16 C 0.7145(4) 0.7402(3) 0.4735(7)
H10 H 0.6956 0.7045 0.4419
C17_3 C 0.6732(4) 0.7698(3) 0.5664(7)
C18_3 C 0.7021(4) 0.8224(3) 0.6069(7)
H11_3 H 0.6750 0.8438 0.6661
C19_3 C 0.7700(5) 0.8446(3) 0.5630(8)
H12_3 H 0.7901 0.8799 0.5962
C20_3 C 0.6063(4) 0.7441(3) 0.6239(7)
C21_3 C 0.6044(4) 0.6892(3) 0.6523(6)
H13_3 H 0.6455 0.6661 0.6291
C22_3 C 0.5419(4) 0.6654(3) 0.7161(7)
C23_3 C 0.4824(4) 0.6990(4) 0.7539(8)
H14_3 H 0.4418 0.6844 0.7998
C24_3 C 0.4844(5) 0.7551(4) 0.7219(9)
H15_3 H 0.4437 0.7788 0.7446
C25_3 C 0.5440(4) 0.7765(3) 0.6582(8)
H16_3 H 0.5428 0.8147 0.6368
C26_3 C 0.5421(4) 0.6046(3) 0.7418(6)
C27_3 C 0.9490(4) 0.8514(3) 0.5405(7)
H17 H 0.9924 0.9181 0.4476
C32_3 C 0.9655(4) 0.8206(3) 0.6672(8)
H20_3 H 0.9310 0.7904 0.6761
N1 N 0.8814(4) 0.8377(3) 0.4282(6)
O3_3 O 0.5016(3) 0.58542(17) 0.8312(4)
O4_3 O 0.5785(3) 0.57257(17) 0.6722(4)
O7_3 O 0.4380(3) 0.41254(19) 0.6180(4)
H25_3 H 0.4427 0.3988 0.5368
H26_3 H 0.4454 0.3865 0.6805
O8_3 O 0.5421(3) 0.40519(18) 0.9027(4)
H27_3 H 0.5249 0.4022 0.9814
H28_3 H 0.5942 0.3988 0.9230
O9 O 0.4122(3) 0.48312(18) 0.8813(5)
O10_2 O 0.6421(3) 0.50487(19) 0.9260(5)
O11 O 0.6156(3) 0.4447(2) 0.6606(4)
O12_2 O 0.4184(3) 0.5238(2) 0.5642(5)
O2_2 O 0.3579(3) 0.49513(19) 0.0740(5)
Tb4 Tb 0.483968(18) 0.510536(13) 0.24091(3)
C1_2 C 0.1349(4) 0.3662(3) 0.2103(7)
C2_2 C 0.2037(4) 0.3992(3) 0.2546(7)
H1_2 H 0.2429 0.4028 0.1960
C3_2 C 0.2152(4) 0.4274(3) 0.3889(7)
H2_2 H 0.2606 0.4516 0.4168
C4_2 C 0.1605(4) 0.4201(3) 0.4808(7)
C5_2 C 0.0913(4) 0.3861(4) 0.4332(7)
H3_2 H 0.0521 0.3817 0.4914
C6_2 C 0.0801(5) 0.3587(4) 0.3007(8)
H4_2 H 0.0345 0.3347 0.2718
C7_3 C 0.1734(4) 0.4480(3) 0.6248(7)
C8_3 C 0.2526(4) 0.4560(3) 0.7091(6)
H5_3 H 0.2988 0.4452 0.6723
C9_3 C 0.2654(4) 0.4799(3) 0.8491(7)
C10_3 C 0.1963(5) 0.4978(3) 0.9004(8)
H6_3 H 0.2040 0.5139 0.9937
C11_3 C 0.1184(5) 0.4921(3) 0.8166(9)
H7_3 H 0.0725 0.5051 0.8510
C12_3 C 0.1062(5) 0.4672(4) 0.6798(8)
H8_3 H 0.0518 0.4633 0.6233
C13_3 C 0.3514(4) 0.4862(2) 0.9383(7)
C14_2 C 0.1913(4) 0.3149(3) 0.0298(7)
C15_2 C 0.2181(4) 0.2623(3) 0.0723(7)
H9_2 H 0.1908 0.2414 0.1322
C16_2 C 0.2855(4) 0.2402(3) 0.0265(7)
H10_2 H 0.3044 0.2045 0.0581
H17_2 H 0.0076 0.4181 0.0524
N1_2 N 0.1186(4) 0.3377(3) 0.0718(6)
C28_3 C 0.9981(4) 0.3963(3) 0.9673(7)
C29_3 C 0.9327(4) 0.4092(3) 0.8537(8)
H18_3 H 0.8982 0.4394 0.8631
C30_3 C 0.9165(4) 0.3787(3) 0.7254(7)
C31_3 C 0.9688(4) 0.3330(4) 0.7190(8)
H19_3 H 0.9586 0.3105 0.6351
C33_3 C 0.8522(4) 0.3797(3) 0.4562(7)
H21_3 H 0.9013 0.3642 0.4380
C34_3 C 0.7859(4) 0.3907(3) 0.3406(7)
H22_3 H 0.7907 0.3831 0.2446
C35_3 C 0.7127(4) 0.4128(3) 0.3650(7)
H23_3 H 0.6681 0.4200 0.2855
C36_3 C 0.7048(4) 0.4244(3) 0.5060(6)
C37_3 C 0.7725(4) 0.4125(3) 0.6234(7)
H24_3 H 0.7664 0.4190 0.7192
C38_3 C 0.8469(4) 0.3918(3) 0.6034(7)
C39_3 C 0.6286(4) 0.4496(2) 0.5348(6)
O6_2 O 0.5816(3) 0.4762(2) 0.4358(5)
C1_3 C 0.1349(4) 0.1338(3) 0.7103(7)
C2_3 C 0.2037(4) 0.1008(3) 0.7546(7)
H1_3 H 0.2429 0.0972 0.6960
C3_3 C 0.2152(4) 0.0726(3) 0.8889(7)
H2_3 H 0.2606 0.0484 0.9168
C4_3 C 0.1605(4) 0.0799(3) 0.9808(7)
C5_3 C 0.0913(4) 0.1139(4) 0.9332(7)
H3_3 H 0.0521 0.1183 0.9914
C6_3 C 0.0801(5) 0.1413(4) 0.8007(8)
H4_3 H 0.0345 0.1653 0.7718
C14_3 C 0.1913(4) 0.1851(3) 0.5298(7)
C15_3 C 0.2181(4) 0.2377(3) 0.5723(7)
H9_3 H 0.1908 0.2586 0.6322
C16_3 C 0.2855(4) 0.2598(3) 0.5265(7)
H10_3 H 0.3044 0.2955 0.5581
C17_4 C 0.3268(4) 0.2302(3) 0.4336(7)
C18_4 C 0.2979(4) 0.1776(3) 0.3931(7)
H11_4 H 0.3250 0.1562 0.3339
C19_4 C 0.2300(5) 0.1554(3) 0.4370(8)
H12_4 H 0.2099 0.1201 0.4038
C20_4 C 0.3937(4) 0.2559(3) 0.3761(7)
C21_4 C 0.3956(4) 0.3108(3) 0.3477(6)
H13_4 H 0.3545 0.3339 0.3709
C22_4 C 0.4581(4) 0.3346(3) 0.2839(7)
C23_4 C 0.5176(4) 0.3010(4) 0.2461(8)
H14_4 H 0.5582 0.3156 0.2002
C24_4 C 0.5156(5) 0.2449(4) 0.2781(9)
H15_4 H 0.5563 0.2212 0.2554
C25_4 C 0.4560(4) 0.2235(3) 0.3418(8)
H16_4 H 0.4572 0.1853 0.3632
C26_4 C 0.4579(4) 0.3954(3) 0.2582(6)
C27_4 C 0.0510(4) 0.1486(3) 0.4595(7)
H17_3 H 0.0076 0.0819 0.5524
C32_4 C 0.0345(4) 0.1794(3) 0.3328(8)
H20_4 H 0.0690 0.2096 0.3239
N1_3 N 0.1186(4) 0.1623(3) 0.5718(6)
O3_4 O 0.4984(3) 0.41458(17) 0.1688(4)
O4_4 O 0.4215(3) 0.42743(17) 0.3278(4)
O7_4 O 0.5620(3) 0.58746(19) 0.3820(4)
H25_4 H 0.5573 0.6012 0.4632
H26_4 H 0.5546 0.6135 0.3195
O8_4 O 0.4579(3) 0.59481(18) 0.0973(4)
H27_4 H 0.4751 0.5978 0.0186
H28_4 H 0.4058 0.6012 0.0770
O9_2 O 0.5878(3) 0.51688(18) 0.1187(5)
O11_2 O 0.3844(3) 0.5553(2) 0.3394(4)
C28_4 C 0.0019(4) 0.6037(3) 0.0327(7)
C29_4 C 0.0673(4) 0.5908(3) 0.1463(8)
H18_4 H 0.1018 0.5606 0.1369
C30_4 C 0.0835(4) 0.6213(3) 0.2746(7)
C31_4 C 0.0312(4) 0.6670(4) 0.2810(8)
H19_4 H 0.0414 0.6895 0.3649
C33_4 C 0.1478(4) 0.6203(3) 0.5438(7)
H21_4 H 0.0987 0.6358 0.5620
C34_4 C 0.2141(4) 0.6093(3) 0.6594(7)
H22_4 H 0.2093 0.6169 0.7554
C35_4 C 0.2873(4) 0.5872(3) 0.6350(7)
H23_4 H 0.3319 0.5800 0.7145
C36_4 C 0.2952(4) 0.5756(3) 0.4940(6)
C37_4 C 0.2275(4) 0.5875(3) 0.3766(7)
H24_4 H 0.2336 0.5810 0.2808
C38_4 C 0.1531(4) 0.6082(3) 0.3966(7)
C39_4 C 0.3714(4) 0.5504(2) 0.4652(6)
C1_4 C 0.8651(4) 0.6338(3) 0.7897(7)
C2_4 C 0.7963(4) 0.6008(3) 0.7454(7)
H1_4 H 0.7571 0.5972 0.8040
C3_4 C 0.7848(4) 0.5726(3) 0.6111(7)
H2_4 H 0.7394 0.5484 0.5832
C4_4 C 0.8395(4) 0.5799(3) 0.5192(7)
C5_4 C 0.9087(4) 0.6139(4) 0.5668(7)
H3_4 H 0.9479 0.6183 0.5086
C6_4 C 0.9199(5) 0.6413(4) 0.6993(8)
H4_4 H 0.9655 0.6653 0.7282
C7_4 C 0.8266(4) 0.5520(3) 0.3752(7)
C8_4 C 0.7474(4) 0.5440(3) 0.2909(6)
H5_4 H 0.7012 0.5548 0.3277
C9_4 C 0.7346(4) 0.5201(3) 0.1509(7)
C10_4 C 0.8037(5) 0.5022(3) 0.0996(8)
H6_4 H 0.7960 0.4861 0.0063
C11_4 C 0.8816(5) 0.5079(3) 0.1834(9)
H7_4 H 0.9275 0.4949 0.1490
C12_4 C 0.8938(5) 0.5328(4) 0.3202(8)
H8_4 H 0.9482 0.5367 0.3767
C13_4 C 0.6486(4) 0.5138(2) 0.0617(7)
C14_4 C 0.8087(4) 0.6851(3) 0.9702(7)
C15_4 C 0.7819(4) 0.7377(3) 0.9277(7)
H9_4 H 0.8092 0.7586 0.8678
C16_4 C 0.7145(4) 0.7598(3) 0.9735(7)
H10_4 H 0.6956 0.7955 0.9419
H17_4 H 0.9924 0.5819 0.9476
N1_4 N 0.8814(4) 0.6623(3) 0.9282(6)
loop_
_geom_bond_atom_site_label_1
_geom_bond_atom_site_label_2
_geom_bond_site_symmetry_1
_geom_bond_site_symmetry_2
C18 C17 1_555 1_555
H11 C18 1_555 1_555
H12 C19 1_555 1_555
C20 C17 1_555 1_555
C21 C20 1_555 1_555
H13 C21 1_555 1_555
C22 C21 1_555 1_555
C23 C22 1_555 1_555
H14 C23 1_555 1_555
C24 C23 1_555 1_555
H15 C24 1_555 1_555
C25 C20 1_555 1_555
H16 C25 1_555 1_555
C26 C22 1_555 1_555
C32 C27 1_555 1_555
H20 C32 1_555 1_555
O3 C26 1_555 1_555
C18 C19 1_555 1_555
C24 C25 1_555 1_555
C26 O4 1_555 1_555
C8 C7 1_555 1_555
H5 C8 1_555 1_555
C9 C8 1_555 1_555
C10 C9 1_555 1_555
C11 C10 1_555 1_555
C12 C7 1_555 1_555
H8 C12 1_555 1_555
C13 C9 1_555 1_555
O1 C13 1_555 1_555
O10 C13 1_555 1_555
Tb5 O1 1_555 1_555
C11 C12 1_555 1_555
C29 C28 1_555 1_555
H18 C29 1_555 1_555
C30 C29 1_555 1_555
C31 C30 1_555 1_555
H19 C31 1_555 1_555
C37 C36 1_555 1_555
H24 C37 1_555 1_555
C38 C30 1_555 1_555
C39 C36 1_555 1_555
O5 C39 1_555 1_555
Tb5 O5 1_555 1_555
C37 C38 1_555 1_555
C33 H21 1_555 1_555
C34 C33 1_555 1_555
H22 C34 1_555 1_555
C35 C34 1_555 1_555
H23 C35 1_555 1_555
O7 Tb5 1_555 1_555
H25 O7 1_555 1_555
H26 O7 1_555 1_555
O8 Tb5 1_555 1_555
H27 O8 1_555 1_555
H28 O8 1_555 1_555
C33_2 H21_2 1_555 1_555
C34_2 C33_2 1_555 1_555
H22_2 C34_2 1_555 1_555
C35_2 C34_2 1_555 1_555
H23_2 C35_2 1_555 1_555
C29_2 C28_2 1_555 1_555
H18_2 C29_2 1_555 1_555
C30_2 C29_2 1_555 1_555
C31_2 C30_2 1_555 1_555
H19_2 C31_2 1_555 1_555
C37_2 C36_2 1_555 1_555
H24_2 C37_2 1_555 1_555
C38_2 C30_2 1_555 1_555
C39_2 C36_2 1_555 1_555
O5_2 C39_2 1_555 1_555
Tb3 O5_2 1_555 1_555
C37_2 C38_2 1_555 1_555
C8_2 C7_2 1_555 1_555
H5_2 C8_2 1_555 1_555
C9_2 C8_2 1_555 1_555
C10_2 C9_2 1_555 1_555
C11_2 C10_2 1_555 1_555
C12_2 C7_2 1_555 1_555
H8_2 C12_2 1_555 1_555
C13_2 C9_2 1_555 1_555
O1_2 C13_2 1_555 1_555
O2 C13_2 1_555 1_555
Tb3 O1_2 1_555 1_555
C11_2 C12_2 1_555 1_555
O7_2 Tb3 1_555 1_555
H25_2 O7_2 1_555 1_555
H26_2 O7_2 1_555 1_555
O8_2 Tb3 1_555 1_555
H27_2 O8_2 1_555 1_555
H28_2 O8_2 1_555 1_555
C18_2 C17_2 1_555 1_555
H11_2 C18_2 1_555 1_555
H12_2 C19_2 1_555 1_555
C20_2 C17_2 1_555 1_555
C21_2 C20_2 1_555 1_555
H13_2 C21_2 1_555 1_555
C22_2 C21_2 1_555 1_555
C23_2 C22_2 1_555 1_555
H14_2 C23_2 1_555 1_555
C24_2 C23_2 1_555 1_555
H15_2 C24_2 1_555 1_555
C25_2 C20_2 1_555 1_555
H16_2 C25_2 1_555 1_555
C26_2 C22_2 1_555 1_555
C32_2 C27_2 1_555 1_555
H20_2 C32_2 1_555 1_555
O3_2 C26_2 1_555 1_555
C18_2 C19_2 1_555 1_555
C24_2 C25_2 1_555 1_555
C26_2 O4_2 1_555 1_555
Tb1 O3_3 1_555 1_555
C1 C2 1_555 1_555
C2 H1 1_555 1_555
C3 C2 1_555 1_555
H2 C3 1_555 1_555
C4 C3 1_555 1_555
C5 C4 1_555 1_555
H3 C5 1_555 1_555
C6 C1 1_555 1_555
H4 C6 1_555 1_555
C14 C15 1_555 1_555
C15 H9 1_555 1_555
C16 C15 1_555 1_555
H10 C16 1_555 1_555
C17_3 C16 1_555 1_555
C18_3 C17_3 1_555 1_555
H11_3 C18_3 1_555 1_555
C19_3 C14 1_555 1_555
H12_3 C19_3 1_555 1_555
C20_3 C17_3 1_555 1_555
C21_3 C20_3 1_555 1_555
H13_3 C21_3 1_555 1_555
C22_3 C21_3 1_555 1_555
C23_3 C22_3 1_555 1_555
H14_3 C23_3 1_555 1_555
C24_3 C23_3 1_555 1_555
H15_3 C24_3 1_555 1_555
C25_3 C20_3 1_555 1_555
H16_3 C25_3 1_555 1_555
C26_3 C22_3 1_555 1_555
C32_3 C27_3 1_555 1_555
H20_3 C32_3 1_555 1_555
N1 C1 1_555 1_555
O3_3 C26_3 1_555 1_555
O4_3 Tb1 1_555 1_555
O7_3 Tb1 1_555 1_555
H25_3 O7_3 1_555 1_555
H26_3 O7_3 1_555 1_555
O8_3 Tb1 1_555 1_555
H27_3 O8_3 1_555 1_555
H28_3 O8_3 1_555 1_555
O9 Tb1 1_555 1_555
O10_2 Tb1 1_555 1_555
O11 Tb1 1_555 1_555
O12_2 Tb1 1_555 1_555
C5 C6 1_555 1_555
C14 N1 1_555 1_555
C18_3 C19_3 1_555 1_555
C24_3 C25_3 1_555 1_555
C26_3 O4_3 1_555 1_555
C27_3 N1 1_555 1_555
Tb4 O2_2 1_555 1_555
C1_2 C2_2 1_555 1_555
C2_2 H1_2 1_555 1_555
C3_2 C2_2 1_555 1_555
H2_2 C3_2 1_555 1_555
C4_2 C3_2 1_555 1_555
C5_2 C4_2 1_555 1_555
H3_2 C5_2 1_555 1_555
C6_2 C1_2 1_555 1_555
H4_2 C6_2 1_555 1_555
C7_3 C4_2 1_555 1_555
C8_3 C7_3 1_555 1_555
H5_3 C8_3 1_555 1_555
C9_3 C8_3 1_555 1_555
C10_3 C9_3 1_555 1_555
H6_3 C10_3 1_555 1_555
C11_3 C10_3 1_555 1_555
H7_3 C11_3 1_555 1_555
C12_3 C7_3 1_555 1_555
H8_3 C12_3 1_555 1_555
C13_3 C9_3 1_555 1_555
C14_2 C15_2 1_555 1_555
C15_2 H9_2 1_555 1_555
C16_2 C15_2 1_555 1_555
H10_2 C16_2 1_555 1_555
N1_2 C1_2 1_555 1_555
O9 C13_3 1_555 1_555
C5_2 C6_2 1_555 1_555
C11_3 C12_3 1_555 1_555
C14_2 N1_2 1_555 1_555
C29_3 C28_3 1_555 1_555
H18_3 C29_3 1_555 1_555
C30_3 C29_3 1_555 1_555
C31_3 C30_3 1_555 1_555
H19_3 C31_3 1_555 1_555
C33_3 H21_3 1_555 1_555
C34_3 C33_3 1_555 1_555
H22_3 C34_3 1_555 1_555
C35_3 C34_3 1_555 1_555
H23_3 C35_3 1_555 1_555
C36_3 C35_3 1_555 1_555
C37_3 C36_3 1_555 1_555
H24_3 C37_3 1_555 1_555
C38_3 C30_3 1_555 1_555
C39_3 C36_3 1_555 1_555
O11 C39_3 1_555 1_555
O6_2 C39_3 1_555 1_555
Tb4 O6_2 1_555 1_555
C33_3 C38_3 1_555 1_555
C37_3 C38_3 1_555 1_555
Tb4 O3_4 1_555 1_555
C1_3 C2_3 1_555 1_555
C2_3 H1_3 1_555 1_555
C3_3 C2_3 1_555 1_555
H2_3 C3_3 1_555 1_555
C4_3 C3_3 1_555 1_555
C5_3 C4_3 1_555 1_555
H3_3 C5_3 1_555 1_555
C6_3 C1_3 1_555 1_555
H4_3 C6_3 1_555 1_555
C14_3 C15_3 1_555 1_555
C15_3 H9_3 1_555 1_555
C16_3 C15_3 1_555 1_555
H10_3 C16_3 1_555 1_555
C17_4 C16_3 1_555 1_555
C18_4 C17_4 1_555 1_555
H11_4 C18_4 1_555 1_555
C19_4 C14_3 1_555 1_555
H12_4 C19_4 1_555 1_555
C20_4 C17_4 1_555 1_555
C21_4 C20_4 1_555 1_555
H13_4 C21_4 1_555 1_555
C22_4 C21_4 1_555 1_555
C23_4 C22_4 1_555 1_555
H14_4 C23_4 1_555 1_555
C24_4 C23_4 1_555 1_555
H15_4 C24_4 1_555 1_555
C25_4 C20_4 1_555 1_555
H16_4 C25_4 1_555 1_555
C26_4 C22_4 1_555 1_555
C32_4 C27_4 1_555 1_555
H20_4 C32_4 1_555 1_555
N1_3 C1_3 1_555 1_555
O3_4 C26_4 1_555 1_555
O4_4 Tb4 1_555 1_555
O7_4 Tb4 1_555 1_555
H25_4 O7_4 1_555 1_555
H26_4 O7_4 1_555 1_555
O8_4 Tb4 1_555 1_555
H27_4 O8_4 1_555 1_555
H28_4 O8_4 1_555 1_555
O9_2 Tb4 1_555 1_555
O11_2 Tb4 1_555 1_555
C5_3 C6_3 1_555 1_555
C14_3 N1_3 1_555 1_555
C18_4 C19_4 1_555 1_555
C24_4 C25_4 1_555 1_555
C26_4 O4_4 1_555 1_555
C27_4 N1_3 1_555 1_555
C29_4 C28_4 1_555 1_555
H18_4 C29_4 1_555 1_555
C30_4 C29_4 1_555 1_555
C31_4 C30_4 1_555 1_555
H19_4 C31_4 1_555 1_555
C33_4 H21_4 1_555 1_555
C34_4 C33_4 1_555 1_555
H22_4 C34_4 1_555 1_555
C35_4 C34_4 1_555 1_555
H23_4 C35_4 1_555 1_555
C36_4 C35_4 1_555 1_555
C37_4 C36_4 1_555 1_555
H24_4 C37_4 1_555 1_555
C38_4 C30_4 1_555 1_555
C39_4 C36_4 1_555 1_555
O11_2 C39_4 1_555 1_555
O12_2 C39_4 1_555 1_555
C33_4 C38_4 1_555 1_555
C37_4 C38_4 1_555 1_555
C1_4 C2_4 1_555 1_555
C2_4 H1_4 1_555 1_555
C3_4 C2_4 1_555 1_555
H2_4 C3_4 1_555 1_555
C4_4 C3_4 1_555 1_555
C5_4 C4_4 1_555 1_555
H3_4 C5_4 1_555 1_555
C6_4 C1_4 1_555 1_555
H4_4 C6_4 1_555 1_555
C7_4 C4_4 1_555 1_555
C8_4 C7_4 1_555 1_555
H5_4 C8_4 1_555 1_555
C9_4 C8_4 1_555 1_555
C10_4 C9_4 1_555 1_555
H6_4 C10_4 1_555 1_555
C11_4 C10_4 1_555 1_555
H7_4 C11_4 1_555 1_555
C12_4 C7_4 1_555 1_555
H8_4 C12_4 1_555 1_555
C13_4 C9_4 1_555 1_555
C14_4 C15_4 1_555 1_555
C15_4 H9_4 1_555 1_555
C16_4 C15_4 1_555 1_555
H10_4 C16_4 1_555 1_555
N1_4 C1_4 1_555 1_555
O9_2 C13_4 1_555 1_555
C5_4 C6_4 1_555 1_555
C11_4 C12_4 1_555 1_555
C14_4 N1_4 1_555 1_555

#END
