
###############################################################################
#
# This file contains modified crystal structure data generated from the
# MOF subset of the Cambridge Structural Database (CSD) v543 
# hosted by the Cambridge Crystallographic Data Centre (CCDC).
#
# This work is licensed under the Creative Commons
# Attribution-NonCommercial-ShareAlike 4.0 International License.
# To view a copy of this license, visit
# http://creativecommons.org/licenses/by-nc-sa/4.0/
# or send a letter to
# Creative Commons, PO Box 1866, Mountain View, CA 94042, USA.
#
# CIF created using the CSD Python API on 29 September 2022
# The structure has been converted into the P1 space group
# The structure has a 3D framework
# The original CSD entry KOKFIC is in the monoclinic crystal system
# The framework has been calculated to contain at least 10.0% void space
# The void calculation uses a probe of radius 1.32A, grid spacing 0.4
#
###############################################################################

data_KOKFIC
_chemical_formula_moiety         '(C156 H112 Eu4 N4 O30)n'
_symmetry_cell_setting           triclinic
_symmetry_space_group_name_H-M   'P 1'
_symmetry_Int_Tables_number      1
_space_group_name_Hall           'P 1'
loop_
_symmetry_equiv_pos_site_id
_symmetry_equiv_pos_as_xyz
1 x,y,z
_cell_length_a                   16.5969(8)
_cell_length_b                   24.1339(13)
_cell_length_c                   9.4087(5)
_cell_angle_alpha                90
_cell_angle_beta                 103.105(3)
_cell_angle_gamma                90
_cell_volume                     3670.49
loop_
_atom_site_label
_atom_site_type_symbol
_atom_site_fract_x
_atom_site_fract_y
_atom_site_fract_z
C21 C 0.1498(7) 0.1208(5) 0.0473(11)
H13 H 0.1008 0.1352 0.0668
C22 C 0.2184(7) 0.1104(5) 0.1614(10)
H14 H 0.2150 0.1184 0.2577
C23 C 0.2908(6) 0.0887(4) 0.1367(10)
H15 H 0.3362 0.0823 0.2151
O4 O 0.4183(4) 0.0251(3) 0.0602(8)
C16 C 0.0315(6) 0.1663(5) 0.7843(11)
H10 H 0.0418 0.1885 0.8688
C17 C 0.0829(7) 0.1220(5) 0.7782(12)
C18 C 0.0663(6) 0.0900(5) 0.6523(11)
H11 H 0.0994 0.0589 0.6459
C19 C 0.0028(6) 0.1029(5) 0.5383(11)
C20 C 0.1550(6) 0.1094(5) 0.9021(10)
C24 C 0.2961(5) 0.0763(4) 0.9938(9)
C25 C 0.2269(6) 0.0879(4) 0.8791(10)
H16 H 0.2306 0.0804 0.7827
C26 C 0.3722(5) 0.0520(4) 0.9628(9)
O3 O 0.3836(4) 0.0584(3) 0.8368(6)
Eu3 Eu 0.48391(3) 0.011234(19) 0.74113(4)
C33 C 0.8274(6) 0.0513(5) 0.8798(10)
C34 C 0.7477(6) 0.0433(4) 0.7943(9)
H21 H 0.7016 0.0541 0.8302
C35 C 0.7360(6) 0.0195(4) 0.6568(10)
C36 C 0.8043(7) 0.0010(4) 0.6037(12)
C37 C 0.8818(8) 0.0070(5) 0.6884(13)
C38 C 0.8948(7) 0.0316(6) 0.8257(12)
H24 H 0.9489 0.0351 0.8829
C39 C 0.6503(6) 0.0124(4) 0.5629(10)
O5 O 0.5892(5) 0.0164(3) 0.6192(8)
O6 O 0.6437(5) 0.0034(3) 0.4298(7)
O7 O 0.4609(4) 0.0961(3) 0.5948(6)
H25 H 0.4824 0.1002 0.5216
H26 H 0.4118 0.1087 0.5717
O8 O 0.5622(4) 0.0880(3) 0.8841(7)
H27 H 0.5731 0.1051 0.9652
H28 H 0.5607 0.1118 0.8169
H22 H 0.2038 0.0154 0.4891
H23 H 0.0726 0.0057 0.3461
C2 C 0.7714(7) 0.3450(5) 0.0642(11)
H1 H 0.7910 0.3805 0.0962
C3 C 0.7041(6) 0.3228(4) 0.1086(11)
H2 H 0.6767 0.3443 0.1664
C4 C 0.6760(6) 0.2692(4) 0.0691(10)
C7 C 0.6097(6) 0.2442(4) 0.1271(10)
C8 C 0.5470(7) 0.2783(4) 0.1603(12)
H5 H 0.5463 0.3163 0.1389
C9 C 0.4858(7) 0.2558(5) 0.2249(14)
H6 H 0.4451 0.2791 0.2478
C10 C 0.4849(7) 0.1999(5) 0.2549(12)
H7 H 0.4441 0.1849 0.2985
C11 C 0.5456(6) 0.1658(4) 0.2194(9)
C12 C 0.6057(6) 0.1890(4) 0.1555(9)
H8 H 0.6455 0.1655 0.1307
C13 C 0.5446(6) 0.1055(4) 0.2450(9)
C14 C 0.9489(6) 0.3527(5) 0.0458(11)
C15 C 0.9664(7) 0.3207(5) 0.1722(12)
H9 H 0.9330 0.2899 0.1803
O1 O 0.5818(4) 0.0724(3) 0.1751(6)
O2 O 0.5043(4) 0.0857(3) 0.3320(6)
Eu5 Eu 0.51609(3) 0.988766(19) 0.25887(4)
H22_2 H 0.7962 0.9846 0.5109
H23_2 H 0.9274 0.9943 0.6539
C2_2 C 0.2286(7) 0.6550(5) 0.9358(11)
H1_2 H 0.2090 0.6195 0.9038
C3_2 C 0.2959(6) 0.6772(4) 0.8914(11)
H2_2 H 0.3233 0.6557 0.8336
C4_2 C 0.3240(6) 0.7308(4) 0.9309(10)
C7_2 C 0.3903(6) 0.7558(4) 0.8729(10)
C8_2 C 0.4530(7) 0.7217(4) 0.8397(12)
H5_2 H 0.4537 0.6837 0.8611
C9_2 C 0.5142(7) 0.7442(5) 0.7751(14)
H6_2 H 0.5549 0.7209 0.7522
C10_2 C 0.5151(7) 0.8001(5) 0.7451(12)
H7_2 H 0.5559 0.8151 0.7015
C11_2 C 0.4544(6) 0.8342(4) 0.7806(9)
C12_2 C 0.3943(6) 0.8110(4) 0.8445(9)
H8_2 H 0.3545 0.8345 0.8693
C13_2 C 0.4554(6) 0.8945(4) 0.7550(9)
C14_2 C 0.0511(6) 0.6473(5) 0.9542(11)
C15_2 C 0.0336(7) 0.6793(5) 0.8278(12)
H9_2 H 0.0670 0.7101 0.8197
O1_2 O 0.4182(4) 0.9276(3) 0.8249(6)
O2_2 O 0.4957(4) 0.9143(3) 0.6680(6)
O10 O 0.5817(4) 0.9749(3) 0.9398(8)
O12 O 0.3563(5) 0.9966(3) 0.5702(7)
C33_2 C 0.1726(6) 0.9487(5) 0.1202(10)
C34_2 C 0.2523(6) 0.9567(4) 0.2057(9)
H21_2 H 0.2984 0.9459 0.1698
C35_2 C 0.2640(6) 0.9805(4) 0.3432(10)
C36_2 C 0.1957(7) 0.9990(4) 0.3963(12)
C37_2 C 0.1182(8) 0.9930(5) 0.3116(13)
C38_2 C 0.1052(7) 0.9684(6) 0.1743(12)
H24_2 H 0.0511 0.9649 0.1171
C39_2 C 0.3497(6) 0.9876(4) 0.4371(10)
O5_2 O 0.4108(5) 0.9836(3) 0.3808(8)
C16_2 C 0.9685(6) 0.8337(5) 0.2157(11)
H10_2 H 0.9582 0.8115 0.1312
C17_2 C 0.9171(7) 0.8780(5) 0.2218(12)
C18_2 C 0.9337(6) 0.9100(5) 0.3477(11)
H11_2 H 0.9006 0.9411 0.3541
C19_2 C 0.9972(6) 0.8971(5) 0.4617(11)
C20_2 C 0.8450(6) 0.8906(5) 0.0979(10)
C24_2 C 0.7039(5) 0.9237(4) 0.0062(9)
C25_2 C 0.7731(6) 0.9121(4) 0.1209(10)
H16_2 H 0.7694 0.9196 0.2173
C26_2 C 0.6278(5) 0.9480(4) 0.0372(9)
O3_2 O 0.6164(4) 0.9416(3) 0.1632(6)
C21_2 C 0.8502(7) 0.8792(5) 0.9527(11)
H13_2 H 0.8992 0.8648 0.9332
C22_2 C 0.7816(7) 0.8896(5) 0.8386(10)
H14_2 H 0.7850 0.8816 0.7423
C23_2 C 0.7092(6) 0.9113(4) 0.8633(10)
H15_2 H 0.6638 0.9177 0.7849
O7_2 O 0.5391(4) 0.9039(3) 0.4052(6)
H25_2 H 0.5176 0.8998 0.4784
H26_2 H 0.5882 0.8913 0.4283
O8_2 O 0.4378(4) 0.9120(3) 0.1159(7)
H27_2 H 0.4269 0.8949 0.0348
H28_2 H 0.4393 0.8882 0.1831
Eu1 Eu 0.51609(3) 0.511234(19) 0.75887(4)
C1 C 0.8099(6) 0.1847(4) 0.4733(10)
C2_3 C 0.7714(7) 0.1550(5) 0.5642(11)
H1_3 H 0.7910 0.1195 0.5962
C3_3 C 0.7041(6) 0.1772(4) 0.6086(11)
H2_3 H 0.6767 0.1557 0.6664
C4_3 C 0.6760(6) 0.2308(4) 0.5691(10)
C5 C 0.7166(6) 0.2603(4) 0.4775(10)
H3 H 0.6985 0.2962 0.4472
C6 C 0.7833(6) 0.2375(4) 0.4303(10)
H4 H 0.8100 0.2580 0.3695
C7_3 C 0.6097(6) 0.2558(4) 0.6271(10)
C8_3 C 0.5470(7) 0.2217(4) 0.6603(12)
H5_3 H 0.5463 0.1837 0.6389
C9_3 C 0.4858(7) 0.2442(5) 0.7249(14)
H6_3 H 0.4451 0.2209 0.7478
C10_3 C 0.4849(7) 0.3001(5) 0.7549(12)
H7_3 H 0.4441 0.3151 0.7985
C11_3 C 0.5456(6) 0.3342(4) 0.7194(9)
C12_3 C 0.6057(6) 0.3110(4) 0.6555(9)
H8_3 H 0.6455 0.3345 0.6307
C13_3 C 0.5446(6) 0.3945(4) 0.7450(9)
C14_3 C 0.9489(6) 0.1473(5) 0.5458(11)
C15_3 C 0.9664(7) 0.1793(5) 0.6722(12)
H9_3 H 0.9330 0.2101 0.6803
H12 H 0.9947 0.0818 0.4523
C27 C 0.8660(6) 0.1335(4) 0.2912(10)
C28 C 0.7976(6) 0.0997(5) 0.2474(10)
H17 H 0.7596 0.0951 0.3069
C29 C 0.7861(6) 0.0727(5) 0.1132(10)
H18 H 0.7397 0.0497 0.0830
C30 C 0.8411(6) 0.0788(5) 0.0225(10)
C31 C 0.9087(6) 0.1134(6) 0.0708(11)
H19 H 0.9472 0.1183 0.0125
C32 C 0.9204(7) 0.1409(5) 0.2041(11)
H20 H 0.9660 0.1646 0.2341
N1 N 0.8815(5) 0.1619(4) 0.4302(8)
O1_3 O 0.5818(4) 0.4276(3) 0.6751(6)
O2_3 O 0.5043(4) 0.4143(3) 0.8320(6)
O7_3 O 0.5391(4) 0.5961(3) 0.9052(6)
H25_3 H 0.5176 0.6002 0.9784
H26_3 H 0.5882 0.6087 0.9283
O8_3 O 0.4378(4) 0.5880(3) 0.6159(7)
H27_3 H 0.4269 0.6051 0.5348
H28_3 H 0.4393 0.6118 0.6831
O9 O 0.6164(4) 0.5584(3) 0.6632(6)
O10_2 O 0.4183(4) 0.4749(3) 0.5602(8)
O11 O 0.4108(5) 0.5164(3) 0.8808(8)
O12_2 O 0.6437(5) 0.4966(3) 0.9298(7)
O6_2 O 0.3563(5) 0.5034(3) 0.0702(7)
Eu4 Eu 0.48391(3) 0.488766(19) 0.24113(4)
C1_2 C 0.1901(6) 0.6847(4) 0.0267(10)
C5_2 C 0.2834(6) 0.7603(4) 0.0225(10)
H3_2 H 0.3015 0.7962 0.0528
C6_2 C 0.2167(6) 0.7375(4) 0.0697(10)
H4_2 H 0.1900 0.7580 0.1305
H12_2 H 0.0053 0.5818 0.0477
C27_2 C 0.1340(6) 0.6335(4) 0.2088(10)
C28_2 C 0.2024(6) 0.5997(5) 0.2526(10)
H17_2 H 0.2404 0.5951 0.1931
C29_2 C 0.2139(6) 0.5727(5) 0.3868(10)
H18_2 H 0.2603 0.5497 0.4170
C30_2 C 0.1589(6) 0.5788(5) 0.4775(10)
C31_2 C 0.0913(6) 0.6134(6) 0.4292(11)
H19_2 H 0.0528 0.6183 0.4875
C32_2 C 0.0796(7) 0.6409(5) 0.2959(11)
H20_2 H 0.0340 0.6646 0.2659
C33_3 C 0.1726(6) 0.5513(5) 0.6202(10)
C34_3 C 0.2523(6) 0.5433(4) 0.7057(9)
H21_3 H 0.2984 0.5541 0.6698
C35_3 C 0.2640(6) 0.5195(4) 0.8432(10)
C36_3 C 0.1957(7) 0.5010(4) 0.8963(12)
H22_3 H 0.2038 0.4846 0.9891
C37_3 C 0.1182(8) 0.5070(5) 0.8116(13)
H23_3 H 0.0726 0.4943 0.8461
C38_3 C 0.1052(7) 0.5316(6) 0.6743(12)
H24_3 H 0.0511 0.5351 0.6171
C39_3 C 0.3497(6) 0.5124(4) 0.9371(10)
N1_2 N 0.1185(5) 0.6619(4) 0.0698(8)
C16_3 C 0.9685(6) 0.6663(5) 0.7157(11)
H10_3 H 0.9582 0.6885 0.6312
C17_3 C 0.9171(7) 0.6220(5) 0.7218(12)
C18_3 C 0.9337(6) 0.5900(5) 0.8477(11)
H11_3 H 0.9006 0.5589 0.8541
C19_3 C 0.9972(6) 0.6029(5) 0.9617(11)
C20_3 C 0.8450(6) 0.6094(5) 0.5979(10)
C21_3 C 0.8502(7) 0.6208(5) 0.4527(11)
H13_3 H 0.8992 0.6352 0.4332
C22_3 C 0.7816(7) 0.6104(5) 0.3386(10)
H14_3 H 0.7850 0.6184 0.2423
C23_3 C 0.7092(6) 0.5887(4) 0.3633(10)
H15_3 H 0.6638 0.5823 0.2849
C24_3 C 0.7039(5) 0.5763(4) 0.5062(9)
C25_3 C 0.7731(6) 0.5879(4) 0.6209(10)
H16_3 H 0.7694 0.5804 0.7173
C26_3 C 0.6278(5) 0.5520(4) 0.5372(9)
O4_2 O 0.5817(4) 0.5251(3) 0.4398(8)
C1_3 C 0.1901(6) 0.8153(4) 0.5267(10)
C2_4 C 0.2286(7) 0.8450(5) 0.4358(11)
H1_4 H 0.2090 0.8805 0.4038
C3_4 C 0.2959(6) 0.8228(4) 0.3914(11)
H2_4 H 0.3233 0.8443 0.3336
C4_4 C 0.3240(6) 0.7692(4) 0.4309(10)
C5_3 C 0.2834(6) 0.7397(4) 0.5225(10)
H3_3 H 0.3015 0.7038 0.5528
C6_3 C 0.2167(6) 0.7625(4) 0.5697(10)
H4_3 H 0.1900 0.7420 0.6305
C7_4 C 0.3903(6) 0.7442(4) 0.3729(10)
C8_4 C 0.4530(7) 0.7783(4) 0.3397(12)
H5_4 H 0.4537 0.8163 0.3611
C9_4 C 0.5142(7) 0.7558(5) 0.2751(14)
H6_4 H 0.5549 0.7791 0.2522
C10_4 C 0.5151(7) 0.6999(5) 0.2451(12)
H7_4 H 0.5559 0.6849 0.2015
C11_4 C 0.4544(6) 0.6658(4) 0.2806(9)
C12_4 C 0.3943(6) 0.6890(4) 0.3445(9)
H8_4 H 0.3545 0.6655 0.3693
C13_4 C 0.4554(6) 0.6055(4) 0.2550(9)
C14_4 C 0.0511(6) 0.8527(5) 0.4542(11)
C15_4 C 0.0336(7) 0.8207(5) 0.3278(12)
H9_4 H 0.0670 0.7899 0.3197
H12_3 H 0.0053 0.9182 0.5477
C27_3 C 0.1340(6) 0.8665(4) 0.7088(10)
C28_3 C 0.2024(6) 0.9003(5) 0.7526(10)
H17_3 H 0.2404 0.9049 0.6931
C29_3 C 0.2139(6) 0.9273(5) 0.8868(10)
H18_3 H 0.2603 0.9503 0.9170
C30_3 C 0.1589(6) 0.9212(5) 0.9775(10)
C31_3 C 0.0913(6) 0.8866(6) 0.9292(11)
H19_3 H 0.0528 0.8817 0.9875
C32_3 C 0.0796(7) 0.8591(5) 0.7959(11)
H20_3 H 0.0340 0.8354 0.7659
N1_3 N 0.1185(5) 0.8381(4) 0.5698(8)
O1_4 O 0.4182(4) 0.5724(3) 0.3249(6)
O2_4 O 0.4957(4) 0.5857(3) 0.1680(6)
O7_4 O 0.4609(4) 0.4039(3) 0.0948(6)
H25_4 H 0.4824 0.3998 0.0216
H26_4 H 0.4118 0.3913 0.0717
O8_4 O 0.5622(4) 0.4120(3) 0.3841(7)
H27_4 H 0.5731 0.3949 0.4652
H28_4 H 0.5607 0.3882 0.3169
O9_2 O 0.3836(4) 0.4416(3) 0.3368(6)
O11_2 O 0.5892(5) 0.4836(3) 0.1192(8)
C16_4 C 0.0315(6) 0.3337(5) 0.2843(11)
H10_4 H 0.0418 0.3115 0.3688
C17_4 C 0.0829(7) 0.3780(5) 0.2782(12)
C18_4 C 0.0663(6) 0.4100(5) 0.1523(11)
H11_4 H 0.0994 0.4411 0.1459
C19_4 C 0.0028(6) 0.3971(5) 0.0383(11)
C20_4 C 0.1550(6) 0.3906(5) 0.4021(10)
C21_4 C 0.1498(7) 0.3792(5) 0.5473(11)
H13_4 H 0.1008 0.3648 0.5668
C22_4 C 0.2184(7) 0.3896(5) 0.6614(10)
H14_4 H 0.2150 0.3816 0.7577
C23_4 C 0.2908(6) 0.4113(4) 0.6367(10)
H15_4 H 0.3362 0.4177 0.7151
C24_4 C 0.2961(5) 0.4237(4) 0.4938(9)
C25_4 C 0.2269(6) 0.4121(4) 0.3791(10)
H16_4 H 0.2306 0.4196 0.2827
C26_4 C 0.3722(5) 0.4480(4) 0.4628(9)
C1_4 C 0.8099(6) 0.3153(4) 0.9733(10)
C5_4 C 0.7166(6) 0.2397(4) 0.9775(10)
H3_4 H 0.6985 0.2038 0.9472
C6_4 C 0.7833(6) 0.2625(4) 0.9303(10)
H4_4 H 0.8100 0.2420 0.8695
H12_4 H 0.9947 0.4182 0.9523
C27_4 C 0.8660(6) 0.3665(4) 0.7912(10)
C28_4 C 0.7976(6) 0.4003(5) 0.7474(10)
H17_4 H 0.7596 0.4049 0.8069
C29_4 C 0.7861(6) 0.4273(5) 0.6132(10)
H18_4 H 0.7397 0.4503 0.5830
C30_4 C 0.8411(6) 0.4212(5) 0.5225(10)
C31_4 C 0.9087(6) 0.3866(6) 0.5708(11)
H19_4 H 0.9472 0.3817 0.5125
C32_4 C 0.9204(7) 0.3591(5) 0.7041(11)
H20_4 H 0.9660 0.3354 0.7341
C33_4 C 0.8274(6) 0.4487(5) 0.3798(10)
C34_4 C 0.7477(6) 0.4567(4) 0.2943(9)
H21_4 H 0.7016 0.4459 0.3302
C35_4 C 0.7360(6) 0.4805(4) 0.1568(10)
C36_4 C 0.8043(7) 0.4990(4) 0.1037(12)
H22_4 H 0.7962 0.5154 0.0109
C37_4 C 0.8818(8) 0.4930(5) 0.1884(13)
H23_4 H 0.9274 0.5057 0.1539
C38_4 C 0.8948(7) 0.4684(6) 0.3257(12)
H24_4 H 0.9489 0.4649 0.3829
C39_4 C 0.6503(6) 0.4876(4) 0.0629(10)
N1_4 N 0.8815(5) 0.3381(4) 0.9302(8)
loop_
_geom_bond_atom_site_label_1
_geom_bond_atom_site_label_2
_geom_bond_site_symmetry_1
_geom_bond_site_symmetry_2
H13 C21 1_555 1_555
C22 C21 1_555 1_555
H14 C22 1_555 1_555
C23 C22 1_555 1_555
H15 C23 1_555 1_555
H10 C16 1_555 1_555
C17 C16 1_555 1_555
C18 C17 1_555 1_555
H11 C18 1_555 1_555
C20 C17 1_555 1_555
C25 C20 1_555 1_555
H16 C25 1_555 1_555
C26 C24 1_555 1_555
O3 C26 1_555 1_555
Eu3 O3 1_555 1_555
C18 C19 1_555 1_555
C24 C25 1_555 1_555
C34 C33 1_555 1_555
H21 C34 1_555 1_555
C35 C34 1_555 1_555
C36 C35 1_555 1_555
C37 C36 1_555 1_555
C38 C33 1_555 1_555
H24 C38 1_555 1_555
C39 C35 1_555 1_555
O5 C39 1_555 1_555
O6 C39 1_555 1_555
Eu3 O5 1_555 1_555
C37 C38 1_555 1_555
O7 Eu3 1_555 1_555
H25 O7 1_555 1_555
H26 O7 1_555 1_555
O8 Eu3 1_555 1_555
H27 O8 1_555 1_555
H28 O8 1_555 1_555
C2 H1 1_555 1_555
C3 C2 1_555 1_555
H2 C3 1_555 1_555
C4 C3 1_555 1_555
C7 C4 1_555 1_555
C8 C7 1_555 1_555
H5 C8 1_555 1_555
C9 C8 1_555 1_555
H6 C9 1_555 1_555
C10 C9 1_555 1_555
H7 C10 1_555 1_555
C11 C10 1_555 1_555
C12 C7 1_555 1_555
H8 C12 1_555 1_555
C13 C11 1_555 1_555
C14 C15 1_555 1_555
C15 H9 1_555 1_555
O1 C13 1_555 1_555
C11 C12 1_555 1_555
C13 O2 1_555 1_555
C2_2 H1_2 1_555 1_555
C3_2 C2_2 1_555 1_555
H2_2 C3_2 1_555 1_555
C4_2 C3_2 1_555 1_555
C7_2 C4_2 1_555 1_555
C8_2 C7_2 1_555 1_555
H5_2 C8_2 1_555 1_555
C9_2 C8_2 1_555 1_555
H6_2 C9_2 1_555 1_555
C10_2 C9_2 1_555 1_555
H7_2 C10_2 1_555 1_555
C11_2 C10_2 1_555 1_555
C12_2 C7_2 1_555 1_555
H8_2 C12_2 1_555 1_555
C13_2 C11_2 1_555 1_555
C14_2 C15_2 1_555 1_555
C15_2 H9_2 1_555 1_555
O1_2 C13_2 1_555 1_555
C11_2 C12_2 1_555 1_555
C13_2 O2_2 1_555 1_555
C34_2 C33_2 1_555 1_555
H21_2 C34_2 1_555 1_555
C35_2 C34_2 1_555 1_555
C36_2 C35_2 1_555 1_555
C37_2 C36_2 1_555 1_555
C38_2 C33_2 1_555 1_555
H24_2 C38_2 1_555 1_555
C39_2 C35_2 1_555 1_555
O5_2 C39_2 1_555 1_555
O12 C39_2 1_555 1_555
Eu5 O5_2 1_555 1_555
C37_2 C38_2 1_555 1_555
H10_2 C16_2 1_555 1_555
C17_2 C16_2 1_555 1_555
C18_2 C17_2 1_555 1_555
H11_2 C18_2 1_555 1_555
C20_2 C17_2 1_555 1_555
C25_2 C20_2 1_555 1_555
H16_2 C25_2 1_555 1_555
C26_2 C24_2 1_555 1_555
O3_2 C26_2 1_555 1_555
Eu5 O3_2 1_555 1_555
C18_2 C19_2 1_555 1_555
C24_2 C25_2 1_555 1_555
H13_2 C21_2 1_555 1_555
C22_2 C21_2 1_555 1_555
H14_2 C22_2 1_555 1_555
C23_2 C22_2 1_555 1_555
H15_2 C23_2 1_555 1_555
O7_2 Eu5 1_555 1_555
H25_2 O7_2 1_555 1_555
H26_2 O7_2 1_555 1_555
O8_2 Eu5 1_555 1_555
H27_2 O8_2 1_555 1_555
H28_2 O8_2 1_555 1_555
Eu1 O1_3 1_555 1_555
C1 C2_3 1_555 1_555
C2_3 H1_3 1_555 1_555
C3_3 C2_3 1_555 1_555
H2_3 C3_3 1_555 1_555
C4_3 C3_3 1_555 1_555
C5 C4_3 1_555 1_555
H3 C5 1_555 1_555
C6 C1 1_555 1_555
H4 C6 1_555 1_555
C7_3 C4_3 1_555 1_555
C8_3 C7_3 1_555 1_555
H5_3 C8_3 1_555 1_555
C9_3 C8_3 1_555 1_555
H6_3 C9_3 1_555 1_555
C10_3 C9_3 1_555 1_555
H7_3 C10_3 1_555 1_555
C11_3 C10_3 1_555 1_555
C12_3 C7_3 1_555 1_555
H8_3 C12_3 1_555 1_555
C13_3 C11_3 1_555 1_555
C14_3 C15_3 1_555 1_555
C15_3 H9_3 1_555 1_555
C27 C28 1_555 1_555
C28 H17 1_555 1_555
C29 C28 1_555 1_555
H18 C29 1_555 1_555
C30 C29 1_555 1_555
C31 C30 1_555 1_555
H19 C31 1_555 1_555
C32 C27 1_555 1_555
H20 C32 1_555 1_555
N1 C1 1_555 1_555
O1_3 C13_3 1_555 1_555
O2_3 Eu1 1_555 1_555
O7_3 Eu1 1_555 1_555
H25_3 O7_3 1_555 1_555
H26_3 O7_3 1_555 1_555
O8_3 Eu1 1_555 1_555
H27_3 O8_3 1_555 1_555
H28_3 O8_3 1_555 1_555
O9 Eu1 1_555 1_555
O10_2 Eu1 1_555 1_555
O11 Eu1 1_555 1_555
O12_2 Eu1 1_555 1_555
C5 C6 1_555 1_555
C11_3 C12_3 1_555 1_555
C13_3 O2_3 1_555 1_555
C14_3 N1 1_555 1_555
C27 N1 1_555 1_555
C31 C32 1_555 1_555
Eu4 O6_2 1_555 1_555
H3_2 C5_2 1_555 1_555
C6_2 C1_2 1_555 1_555
H4_2 C6_2 1_555 1_555
C27_2 C28_2 1_555 1_555
C28_2 H17_2 1_555 1_555
C29_2 C28_2 1_555 1_555
H18_2 C29_2 1_555 1_555
C30_2 C29_2 1_555 1_555
C31_2 C30_2 1_555 1_555
H19_2 C31_2 1_555 1_555
C32_2 C27_2 1_555 1_555
H20_2 C32_2 1_555 1_555
C33_3 C30_2 1_555 1_555
C34_3 C33_3 1_555 1_555
H21_3 C34_3 1_555 1_555
C35_3 C34_3 1_555 1_555
C36_3 C35_3 1_555 1_555
H22_3 C36_3 1_555 1_555
C37_3 C36_3 1_555 1_555
H23_3 C37_3 1_555 1_555
C38_3 C33_3 1_555 1_555
H24_3 C38_3 1_555 1_555
C39_3 C35_3 1_555 1_555
N1_2 C1_2 1_555 1_555
O11 C39_3 1_555 1_555
C5_2 C6_2 1_555 1_555
C27_2 N1_2 1_555 1_555
C31_2 C32_2 1_555 1_555
C37_3 C38_3 1_555 1_555
H10_3 C16_3 1_555 1_555
C17_3 C16_3 1_555 1_555
C18_3 C17_3 1_555 1_555
H11_3 C18_3 1_555 1_555
C20_3 C17_3 1_555 1_555
C21_3 C20_3 1_555 1_555
H13_3 C21_3 1_555 1_555
C22_3 C21_3 1_555 1_555
H14_3 C22_3 1_555 1_555
C23_3 C22_3 1_555 1_555
H15_3 C23_3 1_555 1_555
C24_3 C23_3 1_555 1_555
C25_3 C20_3 1_555 1_555
H16_3 C25_3 1_555 1_555
C26_3 C24_3 1_555 1_555
O9 C26_3 1_555 1_555
O4_2 C26_3 1_555 1_555
Eu4 O4_2 1_555 1_555
C18_3 C19_3 1_555 1_555
C24_3 C25_3 1_555 1_555
Eu4 O1_4 1_555 1_555
C1_3 C2_4 1_555 1_555
C2_4 H1_4 1_555 1_555
C3_4 C2_4 1_555 1_555
H2_4 C3_4 1_555 1_555
C4_4 C3_4 1_555 1_555
C5_3 C4_4 1_555 1_555
H3_3 C5_3 1_555 1_555
C6_3 C1_3 1_555 1_555
H4_3 C6_3 1_555 1_555
C7_4 C4_4 1_555 1_555
C8_4 C7_4 1_555 1_555
H5_4 C8_4 1_555 1_555
C9_4 C8_4 1_555 1_555
H6_4 C9_4 1_555 1_555
C10_4 C9_4 1_555 1_555
H7_4 C10_4 1_555 1_555
C11_4 C10_4 1_555 1_555
C12_4 C7_4 1_555 1_555
H8_4 C12_4 1_555 1_555
C13_4 C11_4 1_555 1_555
C14_4 C15_4 1_555 1_555
C15_4 H9_4 1_555 1_555
C27_3 C28_3 1_555 1_555
C28_3 H17_3 1_555 1_555
C29_3 C28_3 1_555 1_555
H18_3 C29_3 1_555 1_555
C30_3 C29_3 1_555 1_555
C31_3 C30_3 1_555 1_555
H19_3 C31_3 1_555 1_555
C32_3 C27_3 1_555 1_555
H20_3 C32_3 1_555 1_555
N1_3 C1_3 1_555 1_555
O1_4 C13_4 1_555 1_555
O2_4 Eu4 1_555 1_555
O7_4 Eu4 1_555 1_555
H25_4 O7_4 1_555 1_555
H26_4 O7_4 1_555 1_555
O8_4 Eu4 1_555 1_555
H27_4 O8_4 1_555 1_555
H28_4 O8_4 1_555 1_555
O9_2 Eu4 1_555 1_555
O11_2 Eu4 1_555 1_555
C5_3 C6_3 1_555 1_555
C11_4 C12_4 1_555 1_555
C13_4 O2_4 1_555 1_555
C14_4 N1_3 1_555 1_555
C27_3 N1_3 1_555 1_555
C31_3 C32_3 1_555 1_555
H10_4 C16_4 1_555 1_555
C17_4 C16_4 1_555 1_555
C18_4 C17_4 1_555 1_555
H11_4 C18_4 1_555 1_555
C20_4 C17_4 1_555 1_555
C21_4 C20_4 1_555 1_555
H13_4 C21_4 1_555 1_555
C22_4 C21_4 1_555 1_555
H14_4 C22_4 1_555 1_555
C23_4 C22_4 1_555 1_555
H15_4 C23_4 1_555 1_555
C24_4 C23_4 1_555 1_555
C25_4 C20_4 1_555 1_555
H16_4 C25_4 1_555 1_555
C26_4 C24_4 1_555 1_555
O9_2 C26_4 1_555 1_555
O10_2 C26_4 1_555 1_555
C18_4 C19_4 1_555 1_555
C24_4 C25_4 1_555 1_555
H3_4 C5_4 1_555 1_555
C6_4 C1_4 1_555 1_555
H4_4 C6_4 1_555 1_555
C27_4 C28_4 1_555 1_555
C28_4 H17_4 1_555 1_555
C29_4 C28_4 1_555 1_555
H18_4 C29_4 1_555 1_555
C30_4 C29_4 1_555 1_555
C31_4 C30_4 1_555 1_555
H19_4 C31_4 1_555 1_555
C32_4 C27_4 1_555 1_555
H20_4 C32_4 1_555 1_555
C33_4 C30_4 1_555 1_555
C34_4 C33_4 1_555 1_555
H21_4 C34_4 1_555 1_555
C35_4 C34_4 1_555 1_555
C36_4 C35_4 1_555 1_555
H22_4 C36_4 1_555 1_555
C37_4 C36_4 1_555 1_555
H23_4 C37_4 1_555 1_555
C38_4 C33_4 1_555 1_555
H24_4 C38_4 1_555 1_555
C39_4 C35_4 1_555 1_555
N1_4 C1_4 1_555 1_555
O11_2 C39_4 1_555 1_555
C5_4 C6_4 1_555 1_555
C27_4 N1_4 1_555 1_555
C31_4 C32_4 1_555 1_555
C37_4 C38_4 1_555 1_555

#END
