
###############################################################################
#
# This file contains modified crystal structure data generated from the
# MOF subset of the Cambridge Structural Database (CSD) v543 
# hosted by the Cambridge Crystallographic Data Centre (CCDC).
#
# This work is licensed under the Creative Commons
# Attribution-NonCommercial-ShareAlike 4.0 International License.
# To view a copy of this license, visit
# http://creativecommons.org/licenses/by-nc-sa/4.0/
# or send a letter to
# Creative Commons, PO Box 1866, Mountain View, CA 94042, USA.
#
# CIF created using the CSD Python API on 29 September 2022
# The structure has been converted into the P1 space group
# The structure has a 3D framework
# The original CSD entry KOMGUP is in the orthorhombic crystal system
# The framework has been calculated to contain at least 10.0% void space
# The void calculation uses a probe of radius 1.32A, grid spacing 0.4
#
###############################################################################

data_KOMGUP
_chemical_formula_moiety         '(C20 H24 N32 O12 Zn4)n'
_symmetry_cell_setting           triclinic
_symmetry_space_group_name_H-M   'P 1'
_symmetry_Int_Tables_number      1
_space_group_name_Hall           'P 1'
loop_
_symmetry_equiv_pos_site_id
_symmetry_equiv_pos_as_xyz
1 x,y,z
_cell_length_a                   9.8055(11)
_cell_length_b                   16.1941(19)
_cell_length_c                   9.3531(11)
_cell_angle_alpha                90
_cell_angle_beta                 90
_cell_angle_gamma                90
_cell_volume                     1485.19
loop_
_atom_site_label
_atom_site_type_symbol
_atom_site_fract_x
_atom_site_fract_y
_atom_site_fract_z
N1 N 0.0609(3) 0.4402(2) 0.1455(4)
N2 N 0.1513(4) 0.4989(2) 0.0976(4)
N3 N 0.2428(3) 0.4408(2) 0.2863(4)
N4 N 0.0608(6) 0.3512(4) 0.3466(7)
H2 H 0.1044 0.3317 0.4188
C1 C 0.1210(4) 0.4068(3) 0.2597(6)
C2 C 0.2542(4) 0.4972(3) 0.1824(5)
H3 H 0.3292 0.5319 0.1726
Zn3 Zn 0.37998(4) 0.41766(3) 0.44050(5)
O4 O 0.1622(5) 0.6820(2) 0.0418(4)
Zn2 Zn 0.12002(4) 0.58234(3) 0.94050(5)
N9 N 0.2572(3) 0.5592(2) 0.7863(4)
H4 H 0.0213 0.6648 0.6704
Zn1 Zn 0.87998(4) 0.41766(3) 0.05950(5)
H1 H 0.9787 0.3352 0.3296
O2 O 0.8901(6) 0.2500 0.1502(7)
C3 C 0.8596(6) 0.2500 0.0247(8)
Zn4 Zn 0.87998(4) 0.08234(3) 0.05950(5)
N8 N 0.7428(3) 0.4408(2) 0.2137(4)
O1 O 0.8378(5) 0.3180(2) 0.9582(4)
Zn5 Zn 0.62002(4) 0.58234(3) 0.55950(5)
N5 N 0.9391(3) 0.5598(2) 0.8545(4)
N6 N 0.8487(4) 0.5011(2) 0.9024(4)
N7 N 0.7572(3) 0.5592(2) 0.7137(4)
N10 N 0.9392(6) 0.6488(4) 0.6534(7)
H5 H 0.8956 0.6683 0.5812
O3 O 0.8378(5) 0.1820(2) 0.9582(4)
C4 C 0.8790(4) 0.5932(3) 0.7403(6)
C5 C 0.7458(4) 0.5028(3) 0.8176(5)
H6 H 0.6708 0.4681 0.8274
N1_2 N 0.4391(3) 0.5598(2) 0.6455(4)
N2_2 N 0.3487(4) 0.5011(2) 0.5976(4)
N4_2 N 0.4392(6) 0.6488(4) 0.8466(7)
H1_2 H 0.5213 0.6648 0.8296
H2_2 H 0.3956 0.6683 0.9188
O1_2 O 0.6622(5) 0.6820(2) 0.4582(4)
O2_2 O 0.6099(6) 0.7500 0.6502(7)
C1_2 C 0.3790(4) 0.5932(3) 0.7597(6)
C2_2 C 0.2458(4) 0.5028(3) 0.6824(5)
H3_2 H 0.1708 0.4681 0.6726
C3_2 C 0.6404(6) 0.7500 0.5247(8)
Zn4_2 Zn 0.62002(4) 0.91766(3) 0.55950(5)
N5_2 N 0.5609(3) 0.4402(2) 0.3545(4)
N6_2 N 0.6513(4) 0.4989(2) 0.4024(4)
N10_2 N 0.5608(6) 0.3512(4) 0.1534(7)
H4_2 H 0.4787 0.3352 0.1704
H5_2 H 0.6044 0.3317 0.0812
O3_2 O 0.6622(5) 0.8180(2) 0.4582(4)
O4_2 O 0.3378(5) 0.3180(2) 0.5418(4)
C4_2 C 0.6210(4) 0.4068(3) 0.2403(6)
C5_2 C 0.7542(4) 0.4972(3) 0.3176(5)
H6_2 H 0.8292 0.5319 0.3274
Zn5_2 Zn 0.37998(4) 0.08234(3) 0.44050(5)
N5_3 N 0.0609(3) 0.0598(2) 0.1455(4)
N6_3 N 0.1513(4) 0.0011(2) 0.0976(4)
N7_2 N 0.2428(3) 0.0592(2) 0.2863(4)
N10_3 N 0.0608(6) 0.1488(4) 0.3466(7)
H5_3 H 0.1044 0.1683 0.4188
C4_3 C 0.1210(4) 0.0932(3) 0.2597(6)
C5_3 C 0.2542(4) 0.0028(3) 0.1824(5)
O1_3 O 0.1622(5) 0.8180(2) 0.0418(4)
H6_3 H 0.3292 0.9681 0.1726
Zn1_2 Zn 0.12002(4) 0.91766(3) 0.94050(5)
H1_3 H 0.0213 0.8352 0.6704
O2_3 O 0.1099(6) 0.7500 0.8498(7)
C3_3 C 0.1404(6) 0.7500 0.9753(8)
N8_2 N 0.2572(3) 0.9408(2) 0.7863(4)
N9_2 N 0.7428(3) 0.0592(2) 0.2137(4)
H4_3 H 0.9787 0.1648 0.3296
H3_3 H 0.6708 0.0319 0.8274
N1_3 N 0.9391(3) 0.9402(2) 0.8545(4)
N2_3 N 0.8487(4) 0.9989(2) 0.9024(4)
N3_2 N 0.7572(3) 0.9408(2) 0.7137(4)
N4_3 N 0.9392(6) 0.8512(4) 0.6534(7)
H2_3 H 0.8956 0.8317 0.5812
C1_3 C 0.8790(4) 0.9068(3) 0.7403(6)
C2_3 C 0.7458(4) 0.9972(3) 0.8176(5)
N1_4 N 0.5609(3) 0.0598(2) 0.3545(4)
N2_4 N 0.6513(4) 0.0011(2) 0.4024(4)
N4_4 N 0.5608(6) 0.1488(4) 0.1534(7)
H1_4 H 0.4787 0.1648 0.1704
H2_4 H 0.6044 0.1683 0.0812
O1_4 O 0.3378(5) 0.1820(2) 0.5418(4)
O2_4 O 0.3901(6) 0.2500 0.3498(7)
C1_4 C 0.6210(4) 0.0932(3) 0.2403(6)
C2_4 C 0.7542(4) 0.0028(3) 0.3176(5)
C3_4 C 0.3596(6) 0.2500 0.4753(8)
H6_4 H 0.1708 0.0319 0.6726
H3_4 H 0.8292 0.9681 0.3274
N5_4 N 0.4391(3) 0.9402(2) 0.6455(4)
N6_4 N 0.3487(4) 0.9989(2) 0.5976(4)
N10_4 N 0.4392(6) 0.8512(4) 0.8466(7)
H4_4 H 0.5213 0.8352 0.8296
H5_4 H 0.3956 0.8317 0.9188
C4_4 C 0.3790(4) 0.9068(3) 0.7597(6)
C5_4 C 0.2458(4) 0.9972(3) 0.6824(5)
loop_
_geom_bond_atom_site_label_1
_geom_bond_atom_site_label_2
_geom_bond_site_symmetry_1
_geom_bond_site_symmetry_2
N1 N2 1_555 1_555
N2 C2 1_555 1_555
N3 C1 1_555 1_555
H2 N4 1_555 1_555
C1 N1 1_555 1_555
C2 N3 1_555 1_555
H3 C2 1_555 1_555
Zn3 N3 1_555 1_555
N4 C1 1_555 1_555
N9 Zn2 1_555 1_555
O2 C3 1_555 1_555
N8 Zn1 1_555 1_555
Zn5 N7 1_555 1_555
N7 C4 1_555 1_555
H5 N10 1_555 1_555
C4 N5 1_555 1_555
C5 N6 1_555 1_555
H6 C5 1_555 1_555
N5 N6 1_555 1_555
N7 C5 1_555 1_555
N10 C4 1_555 1_555
Zn5 N1_2 1_555 1_555
N1_2 N2_2 1_555 1_555
N2_2 C2_2 1_555 1_555
N9 C1_2 1_555 1_555
N4_2 H1_2 1_555 1_555
H2_2 N4_2 1_555 1_555
O1_2 Zn5 1_555 1_555
O2_2 C3_2 1_555 1_555
C1_2 N1_2 1_555 1_555
C2_2 N9 1_555 1_555
H3_2 C2_2 1_555 1_555
C3_2 O1_2 1_555 1_555
Zn3 N2_2 1_555 1_555
Zn4_2 O3_2 1_555 1_555
N5_2 Zn3 1_555 1_555
N6_2 Zn5 1_555 1_555
N8 C4_2 1_555 1_555
N10_2 H4_2 1_555 1_555
H5_2 N10_2 1_555 1_555
O3_2 C3_2 1_555 1_555
O4_2 Zn3 1_555 1_555
C4_2 N5_2 1_555 1_555
C5_2 N6_2 1_555 1_555
H6_2 C5_2 1_555 1_555
N4_2 C1_2 1_555 1_555
N5_2 N6_2 1_555 1_555
N8 C5_2 1_555 1_555
N10_2 C4_2 1_555 1_555
Zn5_2 N7_2 1_555 1_555
N7_2 C4_3 1_555 1_555
H5_3 N10_3 1_555 1_555
C4_3 N5_3 1_555 1_555
C5_3 N6_3 1_555 1_555
N5_3 N6_3 1_555 1_555
N7_2 C5_3 1_555 1_555
N10_3 C4_3 1_555 1_555
O2_3 C3_3 1_555 1_555
N8_2 Zn1_2 1_555 1_555
N9_2 Zn4 1_555 1_555
N1_3 N2_3 1_555 1_555
N2_3 C2_3 1_555 1_555
N3_2 C1_3 1_555 1_555
H2_3 N4_3 1_555 1_555
C1_3 N1_3 1_555 1_555
C2_3 N3_2 1_555 1_555
Zn4_2 N3_2 1_555 1_555
N4_3 C1_3 1_555 1_555
Zn5_2 N1_4 1_555 1_555
N1_4 N2_4 1_555 1_555
N2_4 C2_4 1_555 1_555
N9_2 C1_4 1_555 1_555
N4_4 H1_4 1_555 1_555
H2_4 N4_4 1_555 1_555
O1_4 Zn5_2 1_555 1_555
O2_4 C3_4 1_555 1_555
C1_4 N1_4 1_555 1_555
C2_4 N9_2 1_555 1_555
C3_4 O1_4 1_555 1_555
O4_2 C3_4 1_555 1_555
N4_4 C1_4 1_555 1_555
N5_4 Zn4_2 1_555 1_555
N8_2 C4_4 1_555 1_555
N10_4 H4_4 1_555 1_555
H5_4 N10_4 1_555 1_555
C4_4 N5_4 1_555 1_555
C5_4 N6_4 1_555 1_555
N5_4 N6_4 1_555 1_555
N8_2 C5_4 1_555 1_555
N10_4 C4_4 1_555 1_555

#END
