
###############################################################################
#
# This file contains modified crystal structure data generated from the
# MOF subset of the Cambridge Structural Database (CSD) v543 
# hosted by the Cambridge Crystallographic Data Centre (CCDC).
#
# This work is licensed under the Creative Commons
# Attribution-NonCommercial-ShareAlike 4.0 International License.
# To view a copy of this license, visit
# http://creativecommons.org/licenses/by-nc-sa/4.0/
# or send a letter to
# Creative Commons, PO Box 1866, Mountain View, CA 94042, USA.
#
# CIF created using the CSD Python API on 29 September 2022
# The structure has been converted into the P1 space group
# The structure has a 3D framework
# The original CSD entry KOMKOP is in the hexagonal crystal system
# The framework has been calculated to contain at least 10.0% void space
# The void calculation uses a probe of radius 1.32A, grid spacing 0.4
#
###############################################################################

data_KOMKOP
_chemical_formula_moiety         '(C84 H54 Cl4 Na12 Ni26 O30 S12)n'
_symmetry_cell_setting           triclinic
_symmetry_space_group_name_H-M   'P 1'
_symmetry_Int_Tables_number      1
_space_group_name_Hall           'P 1'
loop_
_symmetry_equiv_pos_site_id
_symmetry_equiv_pos_as_xyz
1 x,y,z
_cell_length_a                   13.2027(7)
_cell_length_b                   13.2027(7)
_cell_length_c                   18.3116(12)
_cell_angle_alpha                90
_cell_angle_beta                 90
_cell_angle_gamma                120
_cell_volume                     2764.28
loop_
_atom_site_label
_atom_site_type_symbol
_atom_site_fract_x
_atom_site_fract_y
_atom_site_fract_z
Ni1 Ni 0.000000 0.000000 0.66416(11)
Na1 Na 0.000000 0.000000 0.500000
O1 O 0.0313(5) 0.1424(5) 0.5905(3)
C1 C 0.1634(7) 0.5226(7) 0.4667(5)
H1 H 0.189294 0.584615 0.432392
S1 S 0.04395(18) 0.47486(16) 0.67157(10)
Ni2 Ni 0.02284(14) 0.34698(12) 0.750000
O2 O 0.0062(6) 0.2348(5) 0.6813(3)
C2 C 0.1567(8) 0.4172(9) 0.4466(5)
H2 H 0.180219 0.407978 0.399222
Ni3 Ni 0.18990(13) 0.57426(12) 0.750000
Cl1 Cl 0.333333 0.666667 0.82575(19)
C3 C 0.1158(7) 0.3279(8) 0.4958(4)
H4 H 0.109301 0.255836 0.481263
C4 C 0.0830(6) 0.3384(7) 0.5672(4)
C5 C 0.0394(7) 0.2348(6) 0.6151(4)
C6 C 0.1325(7) 0.5365(7) 0.5366(4)
H5 H 0.139475 0.609197 0.550159
C7 C 0.0916(6) 0.4465(7) 0.5871(4)
O9 O 0.1271(10) 0.1104(7) 0.750000
H13 H 0.170826 0.080237 0.750000
Ni8 Ni 0.000000 0.000000 0.33584(11)
O12 O 0.1424(5) 0.1111(7) 0.4095(3)
C29 C 0.5226(7) 0.3592(10) 0.5333(5)
H20 H 0.584615 0.395321 0.567608
S5 S 0.47486(16) 0.43091(24) 0.32843(10)
O13 O 0.2348(5) 0.2286(8) 0.3187(3)
C30 C 0.4172(9) 0.2605(12) 0.5534(5)
H21 H 0.407978 0.227759 0.600778
C31 C 0.3279(8) 0.2121(11) 0.5042(4)
H22 H 0.255836 0.146535 0.518737
C32 C 0.3384(7) 0.2554(9) 0.4328(4)
C33 C 0.2348(6) 0.1954(9) 0.3849(4)
C34 C 0.5365(7) 0.4040(10) 0.4634(4)
H23 H 0.609197 0.469722 0.449841
C35 C 0.4465(7) 0.3549(9) 0.4129(4)
Cl2 Cl 0.333333 0.666667 0.67425(19)
Ni9 Ni 0.000000 0.000000 0.83584(11)
S7 S 0.04395(18) 0.47486(16) 0.82843(10)
Ni11 Ni 0.34698(12) 0.32414(18) 0.250000
O16 O 0.0062(6) 0.2348(5) 0.8187(3)
O20 O 0.0167(7) 0.1271(10) 0.250000
Ni13 Ni 0.42574(12) 0.61564(18) 0.750000
Ni14 Ni 0.38436(18) 0.81010(13) 0.750000
Ni16 Ni 0.57426(12) 0.38436(18) 0.250000
Ni1_2 Ni -0.000000 1.000000 0.66416(11)
Na1_2 Na 0.000000 1.000000 0.500000
O7 O 0.1111(7) 0.9687(5) 0.5905(3)
C15 C 0.3592(10) 0.8366(7) 0.4667(5)
H11 H 0.395321 0.810706 0.432392
S3 S 0.43091(24) 0.95605(18) 0.67157(10)
Ni6 Ni 0.32414(18) 0.97716(14) 0.750000
O8 O 0.2286(8) 0.9938(6) 0.6813(3)
C16 C 0.2605(12) 0.8433(8) 0.4466(5)
H12 H 0.227759 0.819781 0.399222
C17 C 0.2121(11) 0.8842(7) 0.4958(4)
H14 H 0.146535 0.890699 0.481263
C18 C 0.2554(9) 0.9170(6) 0.5672(4)
C19 C 0.1954(9) 0.9606(7) 0.6151(4)
C20 C 0.4040(10) 0.8675(7) 0.5366(4)
H15 H 0.469722 0.860525 0.550159
C21 C 0.3549(9) 0.9084(6) 0.5871(4)
Ni8_2 Ni -0.000000 1.000000 0.33584(11)
Ni9_2 Ni -0.000000 1.000000 0.83584(11)
S9 S 0.43091(24) 0.95605(18) 0.82843(10)
O18 O 0.2286(8) 0.9938(6) 0.8187(3)
O19 O 0.1104(7) 0.9833(7) 0.250000
Ni1_3 Ni 1.000000 0.000000 0.66416(11)
Na1_3 Na 1.000000 0.000000 0.500000
O3 O 0.8896(7) 0.0167(7) 0.750000
H3 H 0.919763 0.090589 0.750000
Ni8_3 Ni 1.000000 0.000000 0.33584(11)
O14 O 0.8889(7) 0.0313(5) 0.4095(3)
C36 C 0.6408(10) 0.1634(7) 0.5333(5)
H24 H 0.604679 0.189294 0.567608
S6 S 0.56909(24) 0.04395(18) 0.32843(10)
O15 O 0.7714(8) 0.0062(6) 0.3187(3)
C37 C 0.7395(12) 0.1567(8) 0.5534(5)
H25 H 0.772241 0.180219 0.600778
C38 C 0.7879(11) 0.1158(7) 0.5042(4)
H26 H 0.853465 0.109301 0.518737
C39 C 0.7446(9) 0.0830(6) 0.4328(4)
C40 C 0.8046(9) 0.0394(7) 0.3849(4)
C41 C 0.5960(10) 0.1325(7) 0.4634(4)
H27 H 0.530278 0.139475 0.449841
C42 C 0.6451(9) 0.0916(6) 0.4129(4)
Ni9_3 Ni 1.000000 0.000000 0.83584(11)
Ni12 Ni 0.67586(18) 0.02284(14) 0.250000
Ni17 Ni 0.61564(18) 0.18990(13) 0.250000
Ni1_4 Ni 1.000000 1.000000 0.66416(11)
Na1_4 Na 1.000000 1.000000 0.500000
O4 O 0.8576(5) 0.8889(7) 0.5905(3)
C8 C 0.4774(7) 0.6408(10) 0.4667(5)
H6 H 0.415385 0.604679 0.432392
S2 S 0.52514(16) 0.56909(24) 0.67157(10)
Ni4 Ni 0.65302(12) 0.67586(18) 0.750000
O5 O 0.7652(5) 0.7714(8) 0.6813(3)
C9 C 0.5828(9) 0.7395(12) 0.4466(5)
H7 H 0.592022 0.772241 0.399222
O6 O 0.9833(7) 0.8729(10) 0.750000
H8 H 0.909411 0.829174 0.750000
C10 C 0.6721(8) 0.7879(11) 0.4958(4)
H9 H 0.744164 0.853465 0.481263
C11 C 0.6616(7) 0.7446(9) 0.5672(4)
C12 C 0.7652(6) 0.8046(9) 0.6151(4)
C13 C 0.4635(7) 0.5960(10) 0.5366(4)
H10 H 0.390803 0.530278 0.550159
C14 C 0.5535(7) 0.6451(9) 0.5871(4)
Ni8_4 Ni 1.000000 1.000000 0.33584(11)
O10 O 0.9687(5) 0.8576(5) 0.4095(3)
C22 C 0.8366(7) 0.4774(7) 0.5333(5)
H16 H 0.810706 0.415385 0.567608
S4 S 0.95605(18) 0.52514(16) 0.32843(10)
O11 O 0.9938(6) 0.7652(5) 0.3187(3)
C23 C 0.8433(8) 0.5828(9) 0.5534(5)
H17 H 0.819781 0.592022 0.600778
C24 C 0.8842(7) 0.6721(8) 0.5042(4)
H18 H 0.890699 0.744164 0.518737
C25 C 0.9170(6) 0.6616(7) 0.4328(4)
C26 C 0.9606(7) 0.7652(6) 0.3849(4)
C27 C 0.8675(7) 0.4635(7) 0.4634(4)
H19 H 0.860525 0.390803 0.449841
C28 C 0.9084(6) 0.5535(7) 0.4129(4)
Ni9_4 Ni 1.000000 1.000000 0.83584(11)
S8 S 0.52514(16) 0.56909(24) 0.82843(10)
Ni10 Ni 0.97716(14) 0.65302(12) 0.250000
O17 O 0.7652(5) 0.7714(8) 0.8187(3)
O21 O 0.8729(10) 0.8896(7) 0.250000
Ni15 Ni 0.81010(13) 0.42574(12) 0.250000
Ni1_5 Ni 0.000000 -0.000000 0.16416(11)
Na1_5 Na -0.000000 -0.000000 -0.000000
O4_2 O 0.1424(5) 0.1111(7) 0.0905(3)
S2_2 S 0.47486(16) 0.43091(24) 0.17157(10)
O5_2 O 0.2348(5) 0.2286(8) 0.1813(3)
H8_2 H 0.090589 0.170826 0.250000
C11_2 C 0.3384(7) 0.2554(9) 0.0672(4)
C12_2 C 0.2348(6) 0.1954(9) 0.1151(4)
C13_2 C 0.5365(7) 0.4040(10) 0.0366(4)
H10_2 H 0.609197 0.469722 0.050159
C14_2 C 0.4465(7) 0.3549(9) 0.0871(4)
C22_2 C 0.1634(7) 0.5226(7) 0.0333(5)
H16_2 H 0.189294 0.584615 0.067608
C23_2 C 0.1567(8) 0.4172(9) 0.0534(5)
H17_2 H 0.180219 0.407978 0.100778
C24_2 C 0.1158(7) 0.3279(8) 0.0042(4)
H18_2 H 0.109301 0.255836 0.018737
Cl3 Cl 0.666667 0.333333 0.32575(19)
Cl5 Cl 0.666667 0.333333 0.17425(19)
Na1_6 Na 0.000000 0.000000 1.000000
C8_2 C 0.5226(7) 0.3592(10) 0.9667(5)
H6_2 H 0.584615 0.395321 0.932392
C9_2 C 0.4172(9) 0.2605(12) 0.9466(5)
H7_2 H 0.407978 0.227759 0.899222
C10_2 C 0.3279(8) 0.2121(11) 0.9958(4)
H9_2 H 0.255836 0.146535 0.981263
O10_2 O 0.0313(5) 0.1424(5) 0.9095(3)
C25_2 C 0.0830(6) 0.3384(7) 0.9328(4)
C26_2 C 0.0394(7) 0.2348(6) 0.8849(4)
C27_2 C 0.1325(7) 0.5365(7) 0.9634(4)
H19_2 H 0.139475 0.609197 0.949841
C28_2 C 0.0916(6) 0.4465(7) 0.9129(4)
Ni1_6 Ni -0.000000 1.000000 0.16416(11)
Na1_7 Na -0.000000 1.000000 -0.000000
H3_2 H 0.080237 0.909411 0.250000
C36_2 C 0.3592(10) 0.8366(7) 0.0333(5)
H24_2 H 0.395321 0.810706 0.067608
C37_2 C 0.2605(12) 0.8433(8) 0.0534(5)
H25_2 H 0.227759 0.819781 0.100778
C38_2 C 0.2121(11) 0.8842(7) 0.0042(4)
H26_2 H 0.146535 0.890699 0.018737
Na1_8 Na -0.000000 1.000000 1.000000
O14_2 O 0.1111(7) 0.9687(5) 0.9095(3)
C39_2 C 0.2554(9) 0.9170(6) 0.9328(4)
C40_2 C 0.1954(9) 0.9606(7) 0.8849(4)
C41_2 C 0.4040(10) 0.8675(7) 0.9634(4)
H27_2 H 0.469722 0.860525 0.949841
C42_2 C 0.3549(9) 0.9084(6) 0.9129(4)
Ni1_7 Ni 1.000000 -0.000000 0.16416(11)
Na1_9 Na 1.000000 -0.000000 -0.000000
O7_2 O 0.8889(7) 0.0313(5) 0.0905(3)
S3_2 S 0.56909(24) 0.04395(18) 0.17157(10)
O8_2 O 0.7714(8) 0.0062(6) 0.1813(3)
C18_2 C 0.7446(9) 0.0830(6) 0.0672(4)
C19_2 C 0.8046(9) 0.0394(7) 0.1151(4)
C20_2 C 0.5960(10) 0.1325(7) 0.0366(4)
H15_2 H 0.530278 0.139475 0.050159
C21_2 C 0.6451(9) 0.0916(6) 0.0871(4)
Na1_10 Na 1.000000 0.000000 1.000000
C15_2 C 0.6408(10) 0.1634(7) 0.9667(5)
H11_2 H 0.604679 0.189294 0.932392
C16_2 C 0.7395(12) 0.1567(8) 0.9466(5)
H12_2 H 0.772241 0.180219 0.899222
C17_2 C 0.7879(11) 0.1158(7) 0.9958(4)
H14_2 H 0.853465 0.109301 0.981263
Ni1_8 Ni 1.000000 1.000000 0.16416(11)
Na1_11 Na 1.000000 1.000000 -0.000000
O1_2 O 0.9687(5) 0.8576(5) 0.0905(3)
S1_2 S 0.95605(18) 0.52514(16) 0.17157(10)
O2_2 O 0.9938(6) 0.7652(5) 0.1813(3)
C4_2 C 0.9170(6) 0.6616(7) 0.0672(4)
C5_2 C 0.9606(7) 0.7652(6) 0.1151(4)
C6_2 C 0.8675(7) 0.4635(7) 0.0366(4)
H5_2 H 0.860525 0.390803 0.050159
C7_2 C 0.9084(6) 0.5535(7) 0.0871(4)
H13_2 H 0.829174 0.919763 0.250000
C29_2 C 0.4774(7) 0.6408(10) 0.0333(5)
H20_2 H 0.415385 0.604679 0.067608
C30_2 C 0.5828(9) 0.7395(12) 0.0534(5)
H21_2 H 0.592022 0.772241 0.100778
C31_2 C 0.6721(8) 0.7879(11) 0.0042(4)
H22_2 H 0.744164 0.853465 0.018737
Na1_12 Na 1.000000 1.000000 1.000000
C1_2 C 0.8366(7) 0.4774(7) 0.9667(5)
H1_2 H 0.810706 0.415385 0.932392
C2_2 C 0.8433(8) 0.5828(9) 0.9466(5)
H2_2 H 0.819781 0.592022 0.899222
C3_2 C 0.8842(7) 0.6721(8) 0.9958(4)
H4_2 H 0.890699 0.744164 0.981263
O12_2 O 0.8576(5) 0.8889(7) 0.9095(3)
C32_2 C 0.6616(7) 0.7446(9) 0.9328(4)
C33_2 C 0.7652(6) 0.8046(9) 0.8849(4)
C34_2 C 0.4635(7) 0.5960(10) 0.9634(4)
H23_2 H 0.390803 0.530278 0.949841
C35_2 C 0.5535(7) 0.6451(9) 0.9129(4)
loop_
_geom_bond_atom_site_label_1
_geom_bond_atom_site_label_2
_geom_bond_site_symmetry_1
_geom_bond_site_symmetry_2
Ni1 O1 1_555 1_555
Na1 O1 1_555 1_555
O1 C5 1_555 1_555
C1 H1 1_555 1_555
S1 Ni2 1_555 1_555
Ni2 O2 1_555 1_555
O2 C5 1_555 1_555
C2 C1 1_555 1_555
H2 C2 1_555 1_555
Ni3 S1 1_555 1_555
Cl1 Ni3 1_555 1_555
C3 C2 1_555 1_555
H4 C3 1_555 1_555
C4 C3 1_555 1_555
C5 C4 1_555 1_555
C6 C1 1_555 1_555
H5 C6 1_555 1_555
C7 S1 1_555 1_555
O9 Ni1 1_555 1_555
H13 O9 1_555 1_555
O12 Na1 1_555 1_555
C29 H20 1_555 1_555
S5 C35 1_555 1_555
O13 C33 1_555 1_555
C30 C29 1_555 1_555
H21 C30 1_555 1_555
C31 C30 1_555 1_555
H22 C31 1_555 1_555
C32 C31 1_555 1_555
C33 O12 1_555 1_555
C34 C29 1_555 1_555
H23 C34 1_555 1_555
C35 C32 1_555 1_555
Cl2 Ni3 1_555 1_555
S7 Ni2 1_555 1_555
Ni11 S5 1_555 1_555
O16 Ni2 1_555 1_555
O20 Ni8 1_555 1_555
Ni13 Cl1 1_555 1_555
Ni14 Cl1 1_555 1_555
Ni16 S5 1_555 1_555
Ni3 S7 1_555 1_555
C4 C7 1_555 1_555
C6 C7 1_555 1_555
O9 Ni9 1_555 1_555
Ni8 O12 1_555 1_555
O13 Ni11 1_555 1_555
C32 C33 1_555 1_555
C34 C35 1_555 1_555
Cl2 Ni13 1_555 1_555
Cl2 Ni14 1_555 1_555
O7 Ni1_2 1_555 1_555
C15 H11 1_555 1_555
S3 Ni6 1_555 1_555
Ni6 O8 1_555 1_555
O8 C19 1_555 1_555
C16 C15 1_555 1_555
H12 C16 1_555 1_555
Ni14 S3 1_555 1_555
C17 C16 1_555 1_555
H14 C17 1_555 1_555
C18 C17 1_555 1_555
C19 O7 1_555 1_555
C20 C15 1_555 1_555
H15 C20 1_555 1_555
C21 S3 1_555 1_555
S9 Ni6 1_555 1_555
O18 Ni6 1_555 1_555
O19 Ni8_2 1_555 1_555
Na1_2 O7 1_555 1_555
Ni14 S9 1_555 1_555
C18 C19 1_555 1_555
C18 C21 1_555 1_555
C20 C21 1_555 1_555
O3 Ni1_3 1_555 1_555
H3 O3 1_555 1_555
O14 Na1_3 1_555 1_555
C36 H24 1_555 1_555
S6 C42 1_555 1_555
O15 C40 1_555 1_555
C37 C36 1_555 1_555
H25 C37 1_555 1_555
C38 C37 1_555 1_555
H26 C38 1_555 1_555
C39 C38 1_555 1_555
C40 O14 1_555 1_555
C41 C36 1_555 1_555
H27 C41 1_555 1_555
C42 C39 1_555 1_555
Ni9_3 O3 1_555 1_555
Ni12 S6 1_555 1_555
Ni17 S6 1_555 1_555
Ni8_3 O14 1_555 1_555
O15 Ni12 1_555 1_555
C39 C40 1_555 1_555
C41 C42 1_555 1_555
O4 Ni1_4 1_555 1_555
C8 H6 1_555 1_555
S2 Ni4 1_555 1_555
Ni4 O5 1_555 1_555
O5 C12 1_555 1_555
C9 C8 1_555 1_555
H7 C9 1_555 1_555
O6 Ni1_4 1_555 1_555
H8 O6 1_555 1_555
Ni13 S2 1_555 1_555
C10 C9 1_555 1_555
H9 C10 1_555 1_555
C11 C10 1_555 1_555
C12 O4 1_555 1_555
C13 C8 1_555 1_555
H10 C13 1_555 1_555
C14 S2 1_555 1_555
Ni8_4 O10 1_555 1_555
O10 Na1_4 1_555 1_555
C22 H16 1_555 1_555
S4 C28 1_555 1_555
O11 C26 1_555 1_555
C23 C22 1_555 1_555
H17 C23 1_555 1_555
C24 C23 1_555 1_555
H18 C24 1_555 1_555
C25 C24 1_555 1_555
C26 O10 1_555 1_555
C27 C22 1_555 1_555
H19 C27 1_555 1_555
C28 C25 1_555 1_555
S8 Ni4 1_555 1_555
Ni10 S4 1_555 1_555
O17 Ni4 1_555 1_555
O21 Ni8_4 1_555 1_555
Ni15 S4 1_555 1_555
Na1_4 O4 1_555 1_555
O6 Ni9_4 1_555 1_555
Ni13 S8 1_555 1_555
C11 C12 1_555 1_555
C11 C14 1_555 1_555
C13 C14 1_555 1_555
O11 Ni10 1_555 1_555
C25 C26 1_555 1_555
C27 C28 1_555 1_555
O4_2 Ni1_5 1_555 1_555
S2_2 Ni11 1_555 1_555
Ni11 O5_2 1_555 1_555
O5_2 C12_2 1_555 1_555
O20 Ni1_5 1_555 1_555
H8_2 O20 1_555 1_555
Ni16 S2_2 1_555 1_555
C12_2 O4_2 1_555 1_555
H10_2 C13_2 1_555 1_555
C14_2 S2_2 1_555 1_555
C22_2 H16_2 1_555 1_555
C23_2 C22_2 1_555 1_555
H17_2 C23_2 1_555 1_555
C24_2 C23_2 1_555 1_555
H18_2 C24_2 1_555 1_555
Cl3 Ni16 1_555 1_555
Cl5 Ni16 1_555 1_555
Na1_5 O4_2 1_555 1_555
C11_2 C12_2 1_555 1_555
C11_2 C14_2 1_555 1_555
C13_2 C14_2 1_555 1_555
C8_2 H6_2 1_555 1_555
C9_2 C8_2 1_555 1_555
H7_2 C9_2 1_555 1_555
C10_2 C9_2 1_555 1_555
H9_2 C10_2 1_555 1_555
Ni9 O10_2 1_555 1_555
O10_2 Na1_6 1_555 1_555
S7 C28_2 1_555 1_555
O16 C26_2 1_555 1_555
C26_2 O10_2 1_555 1_555
H19_2 C27_2 1_555 1_555
C28_2 C25_2 1_555 1_555
C25_2 C26_2 1_555 1_555
C27_2 C28_2 1_555 1_555
O19 Ni1_6 1_555 1_555
H3_2 O19 1_555 1_555
C36_2 H24_2 1_555 1_555
C37_2 C36_2 1_555 1_555
H25_2 C37_2 1_555 1_555
C38_2 C37_2 1_555 1_555
H26_2 C38_2 1_555 1_555
O14_2 Na1_8 1_555 1_555
S9 C42_2 1_555 1_555
O18 C40_2 1_555 1_555
C40_2 O14_2 1_555 1_555
H27_2 C41_2 1_555 1_555
C42_2 C39_2 1_555 1_555
Ni9_2 O14_2 1_555 1_555
C39_2 C40_2 1_555 1_555
C41_2 C42_2 1_555 1_555
O7_2 Ni1_7 1_555 1_555
S3_2 Ni12 1_555 1_555
Ni12 O8_2 1_555 1_555
O8_2 C19_2 1_555 1_555
Ni17 S3_2 1_555 1_555
C19_2 O7_2 1_555 1_555
H15_2 C20_2 1_555 1_555
C21_2 S3_2 1_555 1_555
Cl3 Ni17 1_555 1_555
Cl5 Ni17 1_555 1_555
Na1_9 O7_2 1_555 1_555
C18_2 C19_2 1_555 1_555
C18_2 C21_2 1_555 1_555
C20_2 C21_2 1_555 1_555
C15_2 H11_2 1_555 1_555
C16_2 C15_2 1_555 1_555
H12_2 C16_2 1_555 1_555
C17_2 C16_2 1_555 1_555
H14_2 C17_2 1_555 1_555
Ni1_8 O1_2 1_555 1_555
Na1_11 O1_2 1_555 1_555
O1_2 C5_2 1_555 1_555
S1_2 Ni10 1_555 1_555
Ni10 O2_2 1_555 1_555
O2_2 C5_2 1_555 1_555
Ni15 S1_2 1_555 1_555
Cl3 Ni15 1_555 1_555
C5_2 C4_2 1_555 1_555
H5_2 C6_2 1_555 1_555
C7_2 S1_2 1_555 1_555
O21 Ni1_8 1_555 1_555
H13_2 O21 1_555 1_555
C29_2 H20_2 1_555 1_555
C30_2 C29_2 1_555 1_555
H21_2 C30_2 1_555 1_555
C31_2 C30_2 1_555 1_555
H22_2 C31_2 1_555 1_555
Cl5 Ni15 1_555 1_555
C4_2 C7_2 1_555 1_555
C6_2 C7_2 1_555 1_555
C1_2 H1_2 1_555 1_555
C2_2 C1_2 1_555 1_555
H2_2 C2_2 1_555 1_555
C3_2 C2_2 1_555 1_555
H4_2 C3_2 1_555 1_555
O12_2 Na1_12 1_555 1_555
S8 C35_2 1_555 1_555
O17 C33_2 1_555 1_555
C33_2 O12_2 1_555 1_555
H23_2 C34_2 1_555 1_555
C35_2 C32_2 1_555 1_555
Ni9_4 O12_2 1_555 1_555
C32_2 C33_2 1_555 1_555
C34_2 C35_2 1_555 1_555

#END
