
###############################################################################
#
# This file contains modified crystal structure data generated from the
# MOF subset of the Cambridge Structural Database (CSD) v543 
# hosted by the Cambridge Crystallographic Data Centre (CCDC).
#
# This work is licensed under the Creative Commons
# Attribution-NonCommercial-ShareAlike 4.0 International License.
# To view a copy of this license, visit
# http://creativecommons.org/licenses/by-nc-sa/4.0/
# or send a letter to
# Creative Commons, PO Box 1866, Mountain View, CA 94042, USA.
#
# CIF created using the CSD Python API on 29 September 2022
# The structure has been converted into the P1 space group
# The structure has a 3D framework
# The original CSD entry KOPKUY is in the monoclinic crystal system
# The framework has been calculated to contain at least 10.0% void space
# The void calculation uses a probe of radius 1.32A, grid spacing 0.4
#
###############################################################################

data_KOPKUY
_chemical_formula_moiety         '(C48 H32 Cu4 N8 O12)n'
_symmetry_cell_setting           triclinic
_symmetry_space_group_name_H-M   'P 1'
_symmetry_Int_Tables_number      1
_space_group_name_Hall           'P 1'
loop_
_symmetry_equiv_pos_site_id
_symmetry_equiv_pos_as_xyz
1 x,y,z
_cell_length_a                   11.4487(8)
_cell_length_b                   12.3600(8)
_cell_length_c                   12.3919(8)
_cell_angle_alpha                90
_cell_angle_beta                 117.201(3)
_cell_angle_gamma                90
_cell_volume                     1559.6
loop_
_atom_site_label
_atom_site_type_symbol
_atom_site_fract_x
_atom_site_fract_y
_atom_site_fract_z
Cu3 Cu 0.21101(9) 0.96574(8) 0.03358(8)
O1 O 0.0801(5) 0.5459(4) 0.6260(4)
N2 N 0.1308(6) 0.8484(5) 0.9101(5)
C1 C 0.0405(7) 0.6853(6) 0.7370(6)
C10 C 0.0152(7) 0.8017(6) 0.8787(7)
C11 C 0.1583(7) 0.7348(6) 0.7675(7)
H7 H 0.2117 0.7125 0.7312
C12 C 0.1988(8) 0.8175(7) 0.8518(7)
H8 H 0.2784 0.8540 0.8692
Cu4 Cu 0.21101(9) 0.53426(8) 0.53358(8)
Cu1 Cu 0.78899(9) 0.46574(8) 0.46642(8)
O2 O 0.6679(5) 0.3598(4) 0.3500(4)
O3 O 0.8738(5) 0.5762(4) 0.5931(4)
O4 O 0.5342(5) 0.3887(4) 0.4334(5)
N1 N 0.3178(6) 0.0858(5) 0.1402(5)
C2 C 0.9961(7) 0.5942(6) 0.6449(6)
C3 C 0.4752(7) 0.2539(6) 0.2811(6)
C4 C 0.5651(7) 0.3420(6) 0.3627(7)
C5 C 0.3998(7) 0.1386(6) 0.1074(6)
H1 H 0.4027 0.1178 0.0348
C6 C 0.3903(7) 0.2000(6) 0.3146(7)
H2 H 0.3838 0.2207 0.3855
C7 C 0.3151(7) 0.1154(6) 0.2426(6)
H3 H 0.2594 0.0771 0.2672
C8 C 0.9662(8) 0.7196(6) 0.7916(7)
H4 H 0.8828 0.6881 0.7705
C9 C 0.4799(7) 0.2220(6) 0.1758(6)
H5 H 0.5374 0.2572 0.1510
H6 H 0.9640 0.8248 0.9169
O5 O 0.9199(5) 0.4541(4) 0.3740(4)
N3 N 0.6822(6) 0.5858(5) 0.3598(5)
N4 N 0.8692(6) 0.3484(5) 0.5899(5)
O2_2 O 0.3321(5) 0.8598(4) 0.1500(4)
O4_2 O 0.4658(5) 0.8887(4) 0.0666(5)
C3_2 C 0.5248(7) 0.7539(6) 0.2189(6)
C4_2 C 0.4349(7) 0.8420(6) 0.1373(7)
C5_2 C 0.6002(7) 0.6386(6) 0.3926(6)
H1_2 H 0.5973 0.6178 0.4652
C6_2 C 0.6097(7) 0.7000(6) 0.1854(7)
H2_2 H 0.6162 0.7207 0.1145
C7_2 C 0.6849(7) 0.6154(6) 0.2574(6)
H3_2 H 0.7406 0.5771 0.2328
C9_2 C 0.5201(7) 0.7220(6) 0.3242(6)
H5_2 H 0.4626 0.7572 0.3490
O5_2 O 0.0801(5) 0.9541(4) 0.1260(4)
O1_2 O 0.9199(5) 0.0459(4) 0.8740(4)
C1_2 C 0.9595(7) 0.1853(6) 0.7630(6)
C10_2 C 0.9848(7) 0.3017(6) 0.6213(7)
C11_2 C 0.8417(7) 0.2348(6) 0.7325(7)
H7_2 H 0.7883 0.2125 0.7688
C12_2 C 0.8012(8) 0.3175(7) 0.6482(7)
H8_2 H 0.7216 0.3540 0.6308
Cu4_2 Cu 0.78899(9) 0.03426(8) 0.96642(8)
O2_3 O 0.3321(5) 0.6402(4) 0.6500(4)
O3_2 O 0.1262(5) 0.4238(4) 0.4069(4)
O4_3 O 0.4658(5) 0.6113(4) 0.5666(5)
N1_2 N 0.6822(6) 0.9142(5) 0.8598(5)
C2_2 C 0.0039(7) 0.4058(6) 0.3551(6)
C3_3 C 0.5248(7) 0.7461(6) 0.7189(6)
C4_3 C 0.4349(7) 0.6580(6) 0.6373(7)
C5_3 C 0.6002(7) 0.8614(6) 0.8926(6)
H1_3 H 0.5973 0.8822 0.9652
C6_3 C 0.6097(7) 0.8000(6) 0.6854(7)
H2_3 H 0.6162 0.7793 0.6145
C7_3 C 0.6849(7) 0.8846(6) 0.7574(6)
H3_3 H 0.7406 0.9229 0.7328
C8_2 C 0.0338(8) 0.2804(6) 0.2084(7)
H4_2 H 0.1172 0.3119 0.2295
C9_3 C 0.5201(7) 0.7780(6) 0.8242(6)
H5_3 H 0.4626 0.7428 0.8490
H6_2 H 0.0360 0.1752 0.0831
N3_2 N 0.3178(6) 0.4142(5) 0.6402(5)
N4_2 N 0.1308(6) 0.6516(5) 0.4101(5)
N2_2 N 0.8692(6) 0.1516(5) 0.0899(5)
C1_3 C 0.9595(7) 0.3147(6) 0.2630(6)
C10_3 C 0.9848(7) 0.1983(6) 0.1213(7)
C11_3 C 0.8417(7) 0.2652(6) 0.2325(7)
H7_3 H 0.7883 0.2875 0.2688
C12_3 C 0.8012(8) 0.1825(7) 0.1482(7)
H8_3 H 0.7216 0.1460 0.1308
C1_4 C 0.0405(7) 0.8147(6) 0.2370(6)
C10_4 C 0.0152(7) 0.6983(6) 0.3787(7)
C11_4 C 0.1583(7) 0.7652(6) 0.2675(7)
H7_4 H 0.2117 0.7875 0.2312
C12_4 C 0.1988(8) 0.6825(7) 0.3518(7)
H8_4 H 0.2784 0.6460 0.3692
O2_4 O 0.6679(5) 0.1402(4) 0.8500(4)
O4_4 O 0.5342(5) 0.1113(4) 0.9334(5)
C3_4 C 0.4752(7) 0.2461(6) 0.7811(6)
C4_4 C 0.5651(7) 0.1580(6) 0.8627(7)
C5_4 C 0.3998(7) 0.3614(6) 0.6074(6)
H1_4 H 0.4027 0.3822 0.5348
C6_4 C 0.3903(7) 0.3000(6) 0.8146(7)
H2_4 H 0.3838 0.2793 0.8855
C7_4 C 0.3151(7) 0.3846(6) 0.7426(6)
H3_4 H 0.2594 0.4229 0.7672
C9_4 C 0.4799(7) 0.2780(6) 0.6758(6)
H5_4 H 0.5374 0.2428 0.6510
O3_3 O 0.1262(5) 0.0762(4) 0.9069(4)
C2_3 C 0.0039(7) 0.0942(6) 0.8551(6)
C8_3 C 0.0338(8) 0.2196(6) 0.7084(7)
H4_3 H 0.1172 0.1881 0.7295
H6_3 H 0.0360 0.3248 0.5831
O3_4 O 0.8738(5) 0.9238(4) 0.0931(4)
C2_4 C 0.9961(7) 0.9058(6) 0.1449(6)
C8_4 C 0.9662(8) 0.7804(6) 0.2916(7)
H4_4 H 0.8828 0.8119 0.2705
H6_4 H 0.9640 0.6752 0.4169
loop_
_geom_bond_atom_site_label_1
_geom_bond_atom_site_label_2
_geom_bond_site_symmetry_1
_geom_bond_site_symmetry_2
N2 C10 1_555 1_555
C11 C1 1_555 1_555
H7 C11 1_555 1_555
C12 N2 1_555 1_555
H8 C12 1_555 1_555
Cu4 O1 1_555 1_555
C11 C12 1_555 1_555
Cu1 O2 1_555 1_555
O2 C4 1_555 1_555
O3 Cu1 1_555 1_555
O4 C4 1_555 1_555
N1 C5 1_555 1_555
C2 O3 1_555 1_555
C3 C4 1_555 1_555
C5 H1 1_555 1_555
C6 C3 1_555 1_555
H2 C6 1_555 1_555
C7 N1 1_555 1_555
H3 C7 1_555 1_555
H4 C8 1_555 1_555
C9 C3 1_555 1_555
H5 C9 1_555 1_555
O5 Cu1 1_555 1_555
N3 Cu1 1_555 1_555
N4 Cu1 1_555 1_555
C5 C9 1_555 1_555
C6 C7 1_555 1_555
Cu3 O2_2 1_555 1_555
O2_2 C4_2 1_555 1_555
O4_2 C4_2 1_555 1_555
N3 C5_2 1_555 1_555
C3_2 C4_2 1_555 1_555
C5_2 H1_2 1_555 1_555
C6_2 C3_2 1_555 1_555
H2_2 C6_2 1_555 1_555
C7_2 N3 1_555 1_555
H3_2 C7_2 1_555 1_555
C9_2 C3_2 1_555 1_555
H5_2 C9_2 1_555 1_555
O5_2 Cu3 1_555 1_555
C5_2 C9_2 1_555 1_555
C6_2 C7_2 1_555 1_555
N4 C10_2 1_555 1_555
C11_2 C1_2 1_555 1_555
H7_2 C11_2 1_555 1_555
C12_2 N4 1_555 1_555
H8_2 C12_2 1_555 1_555
Cu4_2 O1_2 1_555 1_555
C11_2 C12_2 1_555 1_555
Cu4 O2_3 1_555 1_555
O2_3 C4_3 1_555 1_555
O3_2 Cu4 1_555 1_555
O4_3 C4_3 1_555 1_555
N1_2 C5_3 1_555 1_555
C2_2 O3_2 1_555 1_555
C3_3 C4_3 1_555 1_555
C5_3 H1_3 1_555 1_555
C6_3 C3_3 1_555 1_555
H2_3 C6_3 1_555 1_555
C7_3 N1_2 1_555 1_555
H3_3 C7_3 1_555 1_555
H4_2 C8_2 1_555 1_555
C9_3 C3_3 1_555 1_555
H5_3 C9_3 1_555 1_555
N3_2 Cu4 1_555 1_555
N4_2 Cu4 1_555 1_555
C5_3 C9_3 1_555 1_555
C6_3 C7_3 1_555 1_555
N2_2 C10_3 1_555 1_555
C11_3 C1_3 1_555 1_555
H7_3 C11_3 1_555 1_555
C12_3 N2_2 1_555 1_555
H8_3 C12_3 1_555 1_555
C11_3 C12_3 1_555 1_555
N4_2 C10_4 1_555 1_555
C11_4 C1_4 1_555 1_555
H7_4 C11_4 1_555 1_555
C12_4 N4_2 1_555 1_555
H8_4 C12_4 1_555 1_555
C11_4 C12_4 1_555 1_555
Cu4_2 O2_4 1_555 1_555
O2_4 C4_4 1_555 1_555
O4_4 C4_4 1_555 1_555
N3_2 C5_4 1_555 1_555
C3_4 C4_4 1_555 1_555
C5_4 H1_4 1_555 1_555
C6_4 C3_4 1_555 1_555
H2_4 C6_4 1_555 1_555
C7_4 N3_2 1_555 1_555
H3_4 C7_4 1_555 1_555
C9_4 C3_4 1_555 1_555
H5_4 C9_4 1_555 1_555
C5_4 C9_4 1_555 1_555
C6_4 C7_4 1_555 1_555
C2_3 O3_3 1_555 1_555
H4_3 C8_3 1_555 1_555
C2_4 O3_4 1_555 1_555
H4_4 C8_4 1_555 1_555

#END
