
###############################################################################
#
# This file contains modified crystal structure data generated from the
# MOF subset of the Cambridge Structural Database (CSD) v543 
# hosted by the Cambridge Crystallographic Data Centre (CCDC).
#
# This work is licensed under the Creative Commons
# Attribution-NonCommercial-ShareAlike 4.0 International License.
# To view a copy of this license, visit
# http://creativecommons.org/licenses/by-nc-sa/4.0/
# or send a letter to
# Creative Commons, PO Box 1866, Mountain View, CA 94042, USA.
#
# CIF created using the CSD Python API on 29 September 2022
# The structure has been converted into the P1 space group
# The structure has a 3D framework
# The original CSD entry KOPLAF is in the monoclinic crystal system
# The original CSD entry KOPLAF is in a Sohncke space group
# The framework has been calculated to contain at least 10.0% void space
# The void calculation uses a probe of radius 1.32A, grid spacing 0.4
#
###############################################################################

data_KOPLAF
_chemical_formula_moiety         '(C48 H32 Mg4 N8 O15)n'
_symmetry_cell_setting           triclinic
_symmetry_space_group_name_H-M   'P 1'
_symmetry_Int_Tables_number      1
_space_group_name_Hall           'P 1'
loop_
_symmetry_equiv_pos_site_id
_symmetry_equiv_pos_as_xyz
1 x,y,z
_cell_length_a                   9.8763(6)
_cell_length_b                   13.0177(9)
_cell_length_c                   10.6775(7)
_cell_angle_alpha                90
_cell_angle_beta                 100.8430(19)
_cell_angle_gamma                90
_cell_volume                     1348.26
loop_
_atom_site_label
_atom_site_type_symbol
_atom_site_fract_x
_atom_site_fract_y
_atom_site_fract_z
C11 C 0.0080(3) 0.2584(3) 0.1096(3)
H7 H 0.0886 0.2189 0.1389
C12 C 0.0178(3) 0.3428(3) 0.0337(3)
H8 H 0.1034 0.3602 0.0108
Mg1 Mg 0.12293(10) 0.58586(13) 0.75147(10)
H1 H 0.0504 0.7528 0.4899
H2 H 0.0554 0.8965 0.3615
O3 O 0.0203(2) 0.5073(2) 0.8698(2)
N5 N 0.1372(2) 0.4421(3) 0.6453(2)
N6 N 0.1108(2) 0.7293(3) 0.8562(2)
O9 O 0.30648(19) 0.55384(19) 0.87655(19)
O10 O 0.2316(2) 0.6657(2) 0.6357(2)
H14 H 0.3483 0.0225 0.5259
Mg5 Mg 0.87707(10) 0.08586(13) 0.24853(10)
Mg7 Mg 0.37352(10) 0.08678(13) 0.25105(10)
C9 C 0.7792(3) 0.3747(3) 0.0292(2)
H5 H 0.6983 0.4148 0.0043
C10 C 0.7776(3) 0.2877(3) 0.1038(3)
H6 H 0.6933 0.2685 0.1278
C15 C 0.3913(3) 0.4098(3) 0.1079(3)
H9 H 0.3924 0.4759 0.1457
C16 C 0.3855(3) 0.3224(3) 0.1807(3)
H10 H 0.3826 0.3308 0.2685
C17 C 0.3854(3) 0.2182(3) 0.0085(3)
N2 N 0.8892(2) 0.2293(3) 0.1438(2)
N3 N 0.3838(2) 0.2266(3) 0.1343(2)
Mg2 Mg 0.62648(10) 0.58678(13) 0.74895(10)
C1 C 0.8415(3) 0.6778(3) 0.5975(3)
C2 C 0.8501(3) 0.7691(3) 0.5085(3)
C3 C 0.9703(3) 0.7940(3) 0.4667(3)
C4 C 0.9725(3) 0.8804(3) 0.3901(3)
C5 C 0.7451(3) 0.9162(3) 0.3921(3)
H3 H 0.6657 0.9576 0.3652
C6 C 0.7347(3) 0.8311(3) 0.4688(2)
H4 H 0.6497 0.8154 0.4939
C7 C 0.9067(3) 0.4920(3) 0.9043(3)
C8 C 0.9020(3) 0.4019(3) 0.9916(3)
C13 C 0.4049(3) 0.4927(3) 0.8976(3)
C14 C 0.3955(3) 0.4000(3) 0.9808(3)
H11 H 0.3819 0.1513 0.9723
C18 C 0.3919(3) 0.3012(3) 0.9296(3)
H12 H 0.3938 0.2912 0.8418
C19 C 0.3432(3) 0.6784(3) 0.6017(3)
C20 C 0.3521(3) 0.7738(3) 0.5196(3)
C21 C 0.3415(3) 0.8715(3) 0.5674(3)
H13 H 0.3279 0.8808 0.6524
C22 C 0.3508(3) 0.9558(3) 0.4903(3)
C23 C 0.3703(3) 0.8526(3) 0.3210(3)
H15 H 0.3771 0.8455 0.2338
C24 C 0.3683(3) 0.7645(3) 0.3931(3)
H16 H 0.3777 0.6987 0.3571
N1 N 0.8628(2) 0.9421(3) 0.3547(2)
N4 N 0.3631(3) 0.9476(3) 0.3680(2)
O1 O 0.9451(2) 0.6218(2) 0.62385(19)
O2 O 0.7306(2) 0.6704(2) 0.6358(2)
O4 O 0.8002(2) 0.54562(19) 0.8733(2)
O6 O 0.5184(2) 0.5009(2) 0.8589(2)
O7 O 0.4489(2) 0.6235(2) 0.6243(2)
N7 N 0.6162(2) 0.7266(3) 0.8657(2)
N8 N 0.6369(3) 0.4476(3) 0.6320(2)
C1_2 C 0.1585(3) 0.1778(3) 0.4025(3)
C2_2 C 0.1499(3) 0.2691(3) 0.4915(3)
C3_2 C 0.0297(3) 0.2940(3) 0.5333(3)
C4_2 C 0.0275(3) 0.3804(3) 0.6099(3)
C5_2 C 0.2549(3) 0.4162(3) 0.6079(3)
H3_2 H 0.3343 0.4576 0.6348
C6_2 C 0.2653(3) 0.3311(3) 0.5312(2)
H4_2 H 0.3503 0.3154 0.5061
C19_2 C 0.6568(3) 0.1784(3) 0.3983(3)
C20_2 C 0.6479(3) 0.2738(3) 0.4804(3)
C21_2 C 0.6585(3) 0.3715(3) 0.4326(3)
H13_2 H 0.6721 0.3808 0.3476
C22_2 C 0.6492(3) 0.4558(3) 0.5097(3)
H14_2 H 0.6517 0.5225 0.4741
C23_2 C 0.6297(3) 0.3526(3) 0.6790(3)
H15_2 H 0.6229 0.3455 0.7662
C24_2 C 0.6317(3) 0.2645(3) 0.6069(3)
H16_2 H 0.6223 0.1987 0.6429
O1_2 O 0.0549(2) 0.1218(2) 0.37615(19)
O2_2 O 0.2694(2) 0.1704(2) 0.3642(2)
O4_2 O 0.1998(2) 0.04562(19) 0.1267(2)
O5 O 0.69352(19) 0.05384(19) 0.12345(19)
O6_2 O 0.4816(2) 0.0009(2) 0.1411(2)
O7_2 O 0.5511(2) 0.1235(2) 0.3757(2)
O8 O 0.7684(2) 0.1657(2) 0.3643(2)
C7_2 C 0.0933(3) 0.9920(3) 0.0957(3)
C8_2 C 0.0980(3) 0.9019(3) 0.0084(3)
C13_2 C 0.5951(3) 0.9927(3) 0.1024(3)
C14_2 C 0.6045(3) 0.9000(3) 0.0192(3)
H11_2 H 0.6181 0.6513 0.0277
C18_2 C 0.6081(3) 0.8012(3) 0.0704(3)
H12_2 H 0.6062 0.7912 0.1582
C9_2 C 0.2208(3) 0.8747(3) 0.9708(2)
H5_2 H 0.3017 0.9148 0.9957
C10_2 C 0.2224(3) 0.7877(3) 0.8962(3)
H6_2 H 0.3067 0.7685 0.8722
C15_2 C 0.6087(3) 0.9098(3) 0.8921(3)
H9_2 H 0.6076 0.9759 0.8543
C16_2 C 0.6145(3) 0.8224(3) 0.8193(3)
H10_2 H 0.6174 0.8308 0.7315
C17_2 C 0.6146(3) 0.7182(3) 0.9915(3)
H1_2 H 0.9496 0.2528 0.5101
H2_2 H 0.9446 0.3965 0.6385
O3_2 O 0.9797(2) 0.0073(2) 0.1302(2)
C11_2 C 0.9920(3) 0.7584(3) 0.8904(3)
H7_2 H 0.9114 0.7189 0.8611
C12_2 C 0.9822(3) 0.8428(3) 0.9663(3)
H8_2 H 0.8966 0.8602 0.9892
loop_
_geom_bond_atom_site_label_1
_geom_bond_atom_site_label_2
_geom_bond_site_symmetry_1
_geom_bond_site_symmetry_2
C11 H7 1_555 1_555
H8 C12 1_555 1_555
C11 C12 1_555 1_555
O3 Mg1 1_555 1_555
N5 Mg1 1_555 1_555
N6 Mg1 1_555 1_555
O9 Mg1 1_555 1_555
O10 Mg1 1_555 1_555
C9 H5 1_555 1_555
C10 C9 1_555 1_555
H6 C10 1_555 1_555
C15 H9 1_555 1_555
C16 C15 1_555 1_555
H10 C16 1_555 1_555
N2 C10 1_555 1_555
N3 C16 1_555 1_555
Mg5 N2 1_555 1_555
Mg7 N3 1_555 1_555
C17 N3 1_555 1_555
Mg2 O2 1_555 1_555
C1 C2 1_555 1_555
C2 C3 1_555 1_555
C4 C3 1_555 1_555
C5 H3 1_555 1_555
C6 C2 1_555 1_555
H4 C6 1_555 1_555
C7 C8 1_555 1_555
C13 C14 1_555 1_555
C18 C14 1_555 1_555
H12 C18 1_555 1_555
C19 C20 1_555 1_555
C20 C21 1_555 1_555
C21 H13 1_555 1_555
C22 C21 1_555 1_555
C23 H15 1_555 1_555
C24 C20 1_555 1_555
H16 C24 1_555 1_555
N1 C4 1_555 1_555
N4 C22 1_555 1_555
O1 C1 1_555 1_555
O2 C1 1_555 1_555
O4 Mg2 1_555 1_555
O9 C13 1_555 1_555
O6 Mg2 1_555 1_555
O7 Mg2 1_555 1_555
O10 C19 1_555 1_555
N7 Mg2 1_555 1_555
N8 Mg2 1_555 1_555
C5 C6 1_555 1_555
C5 N1 1_555 1_555
C7 O4 1_555 1_555
C13 O6 1_555 1_555
C19 O7 1_555 1_555
C23 C24 1_555 1_555
C23 N4 1_555 1_555
Mg7 O2_2 1_555 1_555
C1_2 C2_2 1_555 1_555
C2_2 C3_2 1_555 1_555
C4_2 C3_2 1_555 1_555
C5_2 H3_2 1_555 1_555
C6_2 C2_2 1_555 1_555
H4_2 C6_2 1_555 1_555
C19_2 C20_2 1_555 1_555
C20_2 C21_2 1_555 1_555
C21_2 H13_2 1_555 1_555
C22_2 C21_2 1_555 1_555
H14_2 C22_2 1_555 1_555
C23_2 H15_2 1_555 1_555
C24_2 C20_2 1_555 1_555
H16_2 C24_2 1_555 1_555
N5 C4_2 1_555 1_555
N8 C22_2 1_555 1_555
O1_2 C1_2 1_555 1_555
O2_2 C1_2 1_555 1_555
O4_2 Mg7 1_555 1_555
O6_2 Mg7 1_555 1_555
O7_2 Mg7 1_555 1_555
O8 C19_2 1_555 1_555
Mg5 O5 1_555 1_555
C5_2 C6_2 1_555 1_555
C5_2 N5 1_555 1_555
C19_2 O7_2 1_555 1_555
C23_2 C24_2 1_555 1_555
C23_2 N8 1_555 1_555
O8 Mg5 1_555 1_555
C7_2 C8_2 1_555 1_555
C13_2 C14_2 1_555 1_555
C18_2 C14_2 1_555 1_555
H12_2 C18_2 1_555 1_555
C9_2 H5_2 1_555 1_555
C10_2 C9_2 1_555 1_555
H6_2 C10_2 1_555 1_555
C15_2 H9_2 1_555 1_555
C16_2 C15_2 1_555 1_555
H10_2 C16_2 1_555 1_555
N6 C10_2 1_555 1_555
N7 C16_2 1_555 1_555
C17_2 N7 1_555 1_555
O3_2 Mg5 1_555 1_555
C11_2 H7_2 1_555 1_555
H8_2 C12_2 1_555 1_555
C11_2 C12_2 1_555 1_555

#END
