
###############################################################################
#
# This file contains modified crystal structure data generated from the
# MOF subset of the Cambridge Structural Database (CSD) v543 
# hosted by the Cambridge Crystallographic Data Centre (CCDC).
#
# This work is licensed under the Creative Commons
# Attribution-NonCommercial-ShareAlike 4.0 International License.
# To view a copy of this license, visit
# http://creativecommons.org/licenses/by-nc-sa/4.0/
# or send a letter to
# Creative Commons, PO Box 1866, Mountain View, CA 94042, USA.
#
# CIF created using the CSD Python API on 29 September 2022
# The structure has been converted into the P1 space group
# The structure has a 3D framework
# The original CSD entry KORKOU is in the triclinic crystal system
# The framework has been calculated to contain at least 10.0% void space
# The void calculation uses a probe of radius 1.32A, grid spacing 0.4
#
###############################################################################

data_KORKOU
_chemical_formula_moiety         '(C38 H26 N4 O20 Tb2)n'
_symmetry_cell_setting           triclinic
_symmetry_space_group_name_H-M   'P 1'
_symmetry_Int_Tables_number      1
_space_group_name_Hall           'P 1'
loop_
_symmetry_equiv_pos_site_id
_symmetry_equiv_pos_as_xyz
1 x,y,z
_cell_length_a                   10.4818(4)
_cell_length_b                   11.7265(4)
_cell_length_c                   11.8443(4)
_cell_angle_alpha                102.2860(10)
_cell_angle_beta                 109.6070(10)
_cell_angle_gamma                114.0020(10)
_cell_volume                     1145
loop_
_atom_site_label
_atom_site_type_symbol
_atom_site_fract_x
_atom_site_fract_y
_atom_site_fract_z
O5 O 0.4623(2) 0.00920(18) 0.34061(17)
O7 O 0.3815(2) 0.09610(19) 0.20519(17)
O9 O 0.5851(2) 0.0107(2) 0.16191(18)
Tb2 Tb 0.68587(2) 0.13928(2) 0.90418(2)
Tb1 Tb 0.31413(2) 0.86072(2) 0.09582(2)
O4 O 0.3812(2) 0.72746(17) 0.19022(17)
O6 O 0.1399(2) 0.79451(19) 0.19972(17)
O8 O 0.0555(2) 0.8548(2) 0.04005(18)
C1 C 0.3031(3) 0.6172(3) 0.1987(2)
C2 C 0.3404(3) 0.6238(3) 0.3358(2)
O10 O 0.1984(2) 0.50633(18) 0.10256(17)
C3 C 0.4218(3) 0.7498(3) 0.4406(2)
C4 C 0.2900(3) 0.5040(3) 0.3561(2)
C5 C 0.4555(3) 0.7559(3) 0.5670(2)
H5 H 0.454239 0.831326 0.426215
C6 C 0.3264(3) 0.5122(3) 0.4828(2)
H6 H 0.231424 0.417669 0.284216
C7 C 0.5424(3) 0.8916(3) 0.6801(2)
C8 C 0.4105(3) 0.6376(3) 0.5890(2)
N1 N 0.2791(2) 0.3893(2) 0.5050(2)
H7 H 0.436603 0.642078 0.675417
C9 C 0.2777(3) 0.3787(3) 0.6146(3)
C10 C 0.2256(3) 0.2613(3) 0.4163(3)
N2 N 0.2272(2) 0.2500(2) 0.5987(2)
H8 H 0.307733 0.451089 0.690954
C11 C 0.1937(3) 0.1747(3) 0.4753(3)
H9 H 0.213570 0.238834 0.329965
C12 C 0.1977(3) 0.1946(2) 0.6911(2)
H10 H 0.155390 0.079808 0.438660
C13 C 0.1016(3) 0.2174(3) 0.7379(2)
C14 C 0.2614(3) 0.1174(3) 0.7261(2)
C15 C 0.0641(3) 0.1559(3) 0.8200(2)
H11 H 0.062325 0.273612 0.714614
C16 C 0.2261(3) 0.0587(2) 0.8101(2)
H12 H 0.328049 0.104556 0.693360
C18 C 0.1249(3) 0.0755(2) 0.8546(2)
H13 H 0.097239 0.031860 0.908777
O11 O 0.6185(2) 0.90390(19) 0.79481(17)
O12 O 0.5377(2) 0.99080(18) 0.65939(17)
O1 O 0.1040(2) 0.62558(18) 0.93963(17)
O2 O 0.2506(2) 0.91875(19) 0.92042(18)
O3 O 0.3997(2) 0.7636(2) 0.9418(2)
H1 H 0.089122 0.614909 0.859047
H2 H 0.011885 0.609927 0.934900
H3 H 0.469704 0.744619 0.983898
H4 H 0.451417 0.826651 0.919110
C19 C 0.3029(3) 0.9828(2) 0.8591(2)
O16 O 0.4149(2) 0.9893(2) 0.83809(18)
C17 C 0.9508(3) 0.1709(2) 0.8637(2)
O13 O 0.9445(2) 0.1452(2) 0.95995(18)
O14 O 0.8601(2) 0.20549(19) 0.80028(17)
C17_2 C 0.0492(3) 0.8291(2) 0.1363(2)
C19_2 C 0.6971(3) 0.0172(2) 0.1409(2)
O15 O 0.7494(2) 0.08125(19) 0.07958(18)
O1_2 O 0.8960(2) 0.37442(18) 0.06037(17)
O3_2 O 0.6003(2) 0.2364(2) 0.0582(2)
H1_2 H 0.910878 0.385091 0.140953
H2_2 H 0.988115 0.390073 0.065100
H3_2 H 0.530296 0.255381 0.016102
H4_2 H 0.548583 0.173349 0.080890
O4_2 O 0.6188(2) 0.27254(17) 0.80978(17)
C1_2 C 0.6969(3) 0.3828(3) 0.8013(2)
C2_2 C 0.6596(3) 0.3762(3) 0.6642(2)
O10_2 O 0.8016(2) 0.49367(18) 0.89744(17)
C3_2 C 0.5782(3) 0.2502(3) 0.5594(2)
C4_2 C 0.7100(3) 0.4960(3) 0.6439(2)
C5_2 C 0.5445(3) 0.2441(3) 0.4330(2)
H5_2 H 0.545761 0.168674 0.573785
C6_2 C 0.6736(3) 0.4878(3) 0.5172(2)
H6_2 H 0.768576 0.582331 0.715784
C7_2 C 0.4576(3) 0.1084(3) 0.3199(2)
C8_2 C 0.5895(3) 0.3624(3) 0.4110(2)
N1_2 N 0.7209(2) 0.6107(2) 0.4950(2)
H7_2 H 0.563397 0.357922 0.324583
C9_2 C 0.7223(3) 0.6213(3) 0.3854(3)
C10_2 C 0.7744(3) 0.7387(3) 0.5837(3)
N2_2 N 0.7728(2) 0.7500(2) 0.4013(2)
H8_2 H 0.692267 0.548911 0.309046
C11_2 C 0.8063(3) 0.8253(3) 0.5247(3)
H9_2 H 0.786430 0.761166 0.670035
C12_2 C 0.8023(3) 0.8054(2) 0.3089(2)
H10_2 H 0.844610 0.920192 0.561340
C13_2 C 0.8984(3) 0.7826(3) 0.2621(2)
C14_2 C 0.7386(3) 0.8826(3) 0.2739(2)
C15_2 C 0.9359(3) 0.8441(3) 0.1800(2)
H11_2 H 0.937675 0.726388 0.285386
C16_2 C 0.7739(3) 0.9413(2) 0.1899(2)
H12_2 H 0.671951 0.895444 0.306640
C18_2 C 0.8751(3) 0.9245(2) 0.1454(2)
H13_2 H 0.902761 0.968140 0.091223
loop_
_geom_bond_atom_site_label_1
_geom_bond_atom_site_label_2
_geom_bond_site_symmetry_1
_geom_bond_site_symmetry_2
O4 Tb1 1_555 1_555
O6 Tb1 1_555 1_555
O8 Tb1 1_555 1_555
C1 O4 1_555 1_555
C2 C1 1_555 1_555
O10 C1 1_555 1_555
C3 C2 1_555 1_555
C4 C2 1_555 1_555
C5 C3 1_555 1_555
H5 C3 1_555 1_555
C6 C4 1_555 1_555
H6 C4 1_555 1_555
C7 C5 1_555 1_555
C8 C5 1_555 1_555
N1 C6 1_555 1_555
H7 C8 1_555 1_555
C9 N1 1_555 1_555
C10 N1 1_555 1_555
N2 C9 1_555 1_555
H8 C9 1_555 1_555
C11 C10 1_555 1_555
H9 C10 1_555 1_555
C12 N2 1_555 1_555
H10 C11 1_555 1_555
C13 C12 1_555 1_555
C14 C12 1_555 1_555
C15 C13 1_555 1_555
H11 C13 1_555 1_555
C16 C14 1_555 1_555
H12 C14 1_555 1_555
C18 C15 1_555 1_555
H13 C18 1_555 1_555
O11 C7 1_555 1_555
O12 C7 1_555 1_555
C6 C8 1_555 1_555
N2 C11 1_555 1_555
C16 C18 1_555 1_555
O1 H1 1_555 1_555
H2 O1 1_555 1_555
H3 O3 1_555 1_555
H4 O3 1_555 1_555
O2 C19 1_555 1_555
O16 C19 1_555 1_555
O13 C17 1_555 1_555
O14 C17 1_555 1_555
Tb2 O13 1_555 1_555
O14 Tb2 1_555 1_555
O8 C17_2 1_555 1_555
O6 C17_2 1_555 1_555
O15 C19_2 1_555 1_555
O9 C19_2 1_555 1_555
O1_2 H1_2 1_555 1_555
H2_2 O1_2 1_555 1_555
H3_2 O3_2 1_555 1_555
H4_2 O3_2 1_555 1_555
O4_2 Tb2 1_555 1_555
C1_2 O4_2 1_555 1_555
C2_2 C1_2 1_555 1_555
O10_2 C1_2 1_555 1_555
C3_2 C2_2 1_555 1_555
C4_2 C2_2 1_555 1_555
C5_2 C3_2 1_555 1_555
H5_2 C3_2 1_555 1_555
C6_2 C4_2 1_555 1_555
H6_2 C4_2 1_555 1_555
C7_2 C5_2 1_555 1_555
C8_2 C5_2 1_555 1_555
N1_2 C6_2 1_555 1_555
H7_2 C8_2 1_555 1_555
C9_2 N1_2 1_555 1_555
C10_2 N1_2 1_555 1_555
N2_2 C9_2 1_555 1_555
H8_2 C9_2 1_555 1_555
C11_2 C10_2 1_555 1_555
H9_2 C10_2 1_555 1_555
C12_2 N2_2 1_555 1_555
H10_2 C11_2 1_555 1_555
C13_2 C12_2 1_555 1_555
C14_2 C12_2 1_555 1_555
C15_2 C13_2 1_555 1_555
H11_2 C13_2 1_555 1_555
C16_2 C14_2 1_555 1_555
H12_2 C14_2 1_555 1_555
C18_2 C15_2 1_555 1_555
H13_2 C18_2 1_555 1_555
O7 C7_2 1_555 1_555
O5 C7_2 1_555 1_555
C6_2 C8_2 1_555 1_555
N2_2 C11_2 1_555 1_555
C16_2 C18_2 1_555 1_555

#END
