
###############################################################################
#
# This file contains modified crystal structure data generated from the
# MOF subset of the Cambridge Structural Database (CSD) v543 
# hosted by the Cambridge Crystallographic Data Centre (CCDC).
#
# This work is licensed under the Creative Commons
# Attribution-NonCommercial-ShareAlike 4.0 International License.
# To view a copy of this license, visit
# http://creativecommons.org/licenses/by-nc-sa/4.0/
# or send a letter to
# Creative Commons, PO Box 1866, Mountain View, CA 94042, USA.
#
# CIF created using the CSD Python API on 29 September 2022
# The structure has been converted into the P1 space group
# The structure has a 3D framework
# The original CSD entry KORKEK is in the triclinic crystal system
# The framework has been calculated to contain at least 10.0% void space
# The void calculation uses a probe of radius 1.32A, grid spacing 0.4
#
###############################################################################

data_KORKEK
_chemical_formula_moiety         '(C38 H26 Gd2 N4 O20)n'
_symmetry_cell_setting           triclinic
_symmetry_space_group_name_H-M   'P 1'
_symmetry_Int_Tables_number      1
_space_group_name_Hall           'P 1'
loop_
_symmetry_equiv_pos_site_id
_symmetry_equiv_pos_as_xyz
1 x,y,z
_cell_length_a                   10.4901(8)
_cell_length_b                   11.7484(9)
_cell_length_c                   11.8599(9)
_cell_angle_alpha                102.363(2)
_cell_angle_beta                 109.664(2)
_cell_angle_gamma                113.970(2)
_cell_volume                     1148.42
loop_
_atom_site_label
_atom_site_type_symbol
_atom_site_fract_x
_atom_site_fract_y
_atom_site_fract_z
O5 O 0.1382(6) 0.7926(5) 0.2005(5)
O6 O 0.0558(6) 0.8544(5) 0.0414(5)
C8 C 0.0490(9) 0.8269(7) 0.1369(7)
Gd5 Gd 0.31425(4) 0.86038(3) 0.09554(3)
O2 O 0.7508(6) 0.0818(5) 0.0823(5)
O7 O 0.5866(6) 0.0082(5) 0.1624(5)
C12 C 0.6993(8) 0.0176(7) 0.1428(6)
Gd2 Gd 0.68575(4) 0.13962(3) 0.90446(3)
O4 O 0.8971(6) 0.3756(5) 0.0606(5)
H1 H 0.897646 0.391375 0.136996
H2 H 0.875921 0.434084 0.035025
O10 O 0.5978(7) 0.2342(5) 0.0580(5)
H3 H 0.555479 0.278648 0.026548
H4 H 0.680920 0.296494 0.133010
O1 O 0.4622(6) 0.0114(5) 0.3405(5)
O3 O 0.6167(6) 0.2735(4) 0.8095(5)
O8 O 0.3831(6) 0.0969(5) 0.2050(5)
O9 O 0.8025(6) 0.4945(5) 0.8973(5)
N1 N 0.7744(7) 0.7515(6) 0.4024(5)
N2 N 0.7210(7) 0.6106(6) 0.4953(5)
C1 C 0.7388(9) 0.8830(7) 0.2745(7)
H5 H 0.672227 0.896168 0.306933
C2 C 0.7750(8) 0.9403(7) 0.1903(7)
C3 C 0.8983(9) 0.7826(7) 0.2625(7)
H6 H 0.936958 0.725993 0.285437
C4 C 0.4589(8) 0.1098(7) 0.3206(7)
C5 C 0.9369(9) 0.8435(7) 0.1805(7)
C6 C 0.8040(9) 0.8051(7) 0.3098(7)
C7 C 0.7742(9) 0.7383(7) 0.5830(7)
H7 H 0.786265 0.761146 0.669294
C9 C 0.5908(8) 0.3642(7) 0.4129(7)
H8 H 0.564926 0.360003 0.326680
C10 C 0.5441(9) 0.2445(7) 0.4327(7)
C11 C 0.8055(9) 0.8240(7) 0.5243(7)
H9 H 0.842701 0.918608 0.561188
C13 C 0.5780(9) 0.2512(7) 0.5593(7)
H10 H 0.544841 0.169636 0.573201
C14 C 0.6600(8) 0.3765(7) 0.6650(7)
C15 C 0.8754(8) 0.9242(7) 0.1459(6)
H11 H 0.902752 0.967855 0.091759
C16 C 0.7105(9) 0.4957(7) 0.6439(7)
H12 H 0.769665 0.582066 0.715734
C17 C 0.6737(9) 0.4880(7) 0.5167(7)
C18 C 0.7245(9) 0.6214(7) 0.3855(7)
H13 H 0.696590 0.549714 0.309621
C19 C 0.6967(8) 0.3834(7) 0.8003(7)
O13 O 0.8618(6) 0.2074(5) 0.7995(5)
O14 O 0.9442(6) 0.1456(5) 0.9586(5)
O11 O 0.5378(6) 0.9886(5) 0.6595(5)
O15 O 0.4134(6) 0.9918(5) 0.8376(5)
O16 O 0.6169(6) 0.9031(5) 0.7950(5)
O3_2 O 0.3833(6) 0.7265(4) 0.1905(5)
O9_2 O 0.1975(6) 0.5055(5) 0.1027(5)
N1_2 N 0.2256(7) 0.2485(6) 0.5976(5)
N2_2 N 0.2790(7) 0.3894(6) 0.5047(5)
C1_2 C 0.2612(9) 0.1170(7) 0.7255(7)
H5_2 H 0.327773 0.103832 0.693067
C2_2 C 0.2250(8) 0.0597(7) 0.8097(7)
C3_2 C 0.1017(9) 0.2174(7) 0.7375(7)
H6_2 H 0.063042 0.274007 0.714563
C4_2 C 0.5411(8) 0.8902(7) 0.6794(7)
C5_2 C 0.0631(9) 0.1565(7) 0.8195(7)
C6_2 C 0.1960(9) 0.1949(7) 0.6902(7)
C7_2 C 0.2258(9) 0.2617(7) 0.4170(7)
H7_2 H 0.213735 0.238854 0.330706
C9_2 C 0.4092(8) 0.6358(7) 0.5871(7)
H8_2 H 0.435074 0.639997 0.673320
C10_2 C 0.4559(9) 0.7555(7) 0.5673(7)
C11_2 C 0.1945(9) 0.1760(7) 0.4757(7)
H9_2 H 0.157299 0.081392 0.438812
C13_2 C 0.4220(9) 0.7488(7) 0.4407(7)
H10_2 H 0.455159 0.830364 0.426799
C14_2 C 0.3400(8) 0.6235(7) 0.3350(7)
C15_2 C 0.1246(8) 0.0758(7) 0.8541(6)
H11_2 H 0.097248 0.032145 0.908241
C16_2 C 0.2895(9) 0.5043(7) 0.3561(7)
H12_2 H 0.230335 0.417934 0.284266
C17_2 C 0.3263(9) 0.5120(7) 0.4833(7)
C18_2 C 0.2755(9) 0.3786(7) 0.6145(7)
H13_2 H 0.303410 0.450286 0.690379
C19_2 C 0.3033(8) 0.6166(7) 0.1997(7)
O4_2 O 0.1029(6) 0.6244(5) 0.9394(5)
H1_2 H 0.102354 0.608625 0.863004
H2_2 H 0.124079 0.565916 0.964975
O10_2 O 0.4022(7) 0.7658(5) 0.9420(5)
H3_2 H 0.444521 0.721352 0.973452
H4_2 H 0.319080 0.703506 0.866990
O12 O 0.2492(6) 0.9182(5) 0.9177(5)
C12_2 C 0.3007(8) 0.9824(7) 0.8572(6)
C8_2 C 0.9510(9) 0.1731(7) 0.8631(7)
loop_
_geom_bond_atom_site_label_1
_geom_bond_atom_site_label_2
_geom_bond_site_symmetry_1
_geom_bond_site_symmetry_2
O5 C8 1_555 1_555
O6 C8 1_555 1_555
Gd5 O5 1_555 1_555
O6 Gd5 1_555 1_555
O2 C12 1_555 1_555
O7 C12 1_555 1_555
H1 O4 1_555 1_555
H2 O4 1_555 1_555
H3 O10 1_555 1_555
H4 O10 1_555 1_555
Gd2 O3 1_555 1_555
O1 C4 1_555 1_555
O3 C19 1_555 1_555
O8 C4 1_555 1_555
O9 C19 1_555 1_555
N1 C6 1_555 1_555
N2 C7 1_555 1_555
C1 H5 1_555 1_555
C2 C1 1_555 1_555
C3 H6 1_555 1_555
C4 C10 1_555 1_555
C5 C3 1_555 1_555
C6 C1 1_555 1_555
C7 H7 1_555 1_555
C9 H8 1_555 1_555
C10 C9 1_555 1_555
C11 N1 1_555 1_555
H9 C11 1_555 1_555
C13 C10 1_555 1_555
H10 C13 1_555 1_555
C14 C13 1_555 1_555
C15 C2 1_555 1_555
H11 C15 1_555 1_555
C16 C14 1_555 1_555
H12 C16 1_555 1_555
C17 N2 1_555 1_555
C18 N1 1_555 1_555
H13 C18 1_555 1_555
C19 C14 1_555 1_555
O13 Gd2 1_555 1_555
O14 Gd2 1_555 1_555
N2 C18 1_555 1_555
C3 C6 1_555 1_555
C5 C15 1_555 1_555
C7 C11 1_555 1_555
C9 C17 1_555 1_555
C16 C17 1_555 1_555
Gd5 O3_2 1_555 1_555
O11 C4_2 1_555 1_555
O3_2 C19_2 1_555 1_555
O16 C4_2 1_555 1_555
O9_2 C19_2 1_555 1_555
N1_2 C6_2 1_555 1_555
N2_2 C7_2 1_555 1_555
C1_2 H5_2 1_555 1_555
C2_2 C1_2 1_555 1_555
C3_2 H6_2 1_555 1_555
C4_2 C10_2 1_555 1_555
C5_2 C3_2 1_555 1_555
C6_2 C1_2 1_555 1_555
C7_2 H7_2 1_555 1_555
C9_2 H8_2 1_555 1_555
C10_2 C9_2 1_555 1_555
C11_2 N1_2 1_555 1_555
H9_2 C11_2 1_555 1_555
C13_2 C10_2 1_555 1_555
H10_2 C13_2 1_555 1_555
C14_2 C13_2 1_555 1_555
C15_2 C2_2 1_555 1_555
H11_2 C15_2 1_555 1_555
C16_2 C14_2 1_555 1_555
H12_2 C16_2 1_555 1_555
C17_2 N2_2 1_555 1_555
C18_2 N1_2 1_555 1_555
H13_2 C18_2 1_555 1_555
C19_2 C14_2 1_555 1_555
N2_2 C18_2 1_555 1_555
C3_2 C6_2 1_555 1_555
C5_2 C15_2 1_555 1_555
C7_2 C11_2 1_555 1_555
C9_2 C17_2 1_555 1_555
C16_2 C17_2 1_555 1_555
H1_2 O4_2 1_555 1_555
H2_2 O4_2 1_555 1_555
H3_2 O10_2 1_555 1_555
H4_2 O10_2 1_555 1_555
O12 C12_2 1_555 1_555
O15 C12_2 1_555 1_555
O13 C8_2 1_555 1_555
O14 C8_2 1_555 1_555

#END
