
###############################################################################
#
# This file contains modified crystal structure data generated from the
# MOF subset of the Cambridge Structural Database (CSD) v543 
# hosted by the Cambridge Crystallographic Data Centre (CCDC).
#
# This work is licensed under the Creative Commons
# Attribution-NonCommercial-ShareAlike 4.0 International License.
# To view a copy of this license, visit
# http://creativecommons.org/licenses/by-nc-sa/4.0/
# or send a letter to
# Creative Commons, PO Box 1866, Mountain View, CA 94042, USA.
#
# CIF created using the CSD Python API on 29 September 2022
# The structure has been converted into the P1 space group
# The structure has a 3D framework
# The original CSD entry KORKIO is in the triclinic crystal system
# The framework has been calculated to contain at least 10.0% void space
# The void calculation uses a probe of radius 1.32A, grid spacing 0.4
#
###############################################################################

data_KORKIO
_chemical_formula_moiety         '(C38 H26 Eu2 N4 O20)n'
_symmetry_cell_setting           triclinic
_symmetry_space_group_name_H-M   'P 1'
_symmetry_Int_Tables_number      1
_space_group_name_Hall           'P 1'
loop_
_symmetry_equiv_pos_site_id
_symmetry_equiv_pos_as_xyz
1 x,y,z
_cell_length_a                   10.5075(5)
_cell_length_b                   11.7614(5)
_cell_length_c                   11.8685(6)
_cell_angle_alpha                102.3090(10)
_cell_angle_beta                 109.7270(10)
_cell_angle_gamma                113.9970(10)
_cell_volume                     1151.83
loop_
_atom_site_label
_atom_site_type_symbol
_atom_site_fract_x
_atom_site_fract_y
_atom_site_fract_z
O5 O 0.3842(5) 0.0984(4) 0.2042(4)
O7 O 0.4598(5) 0.0115(4) 0.3395(4)
O9 O 0.5876(5) 0.0096(4) 0.1640(4)
Eu2 Eu 0.68610(3) 0.13980(3) 0.90479(2)
Eu1 Eu 0.31390(3) 0.86020(3) 0.09521(2)
O4 O 0.3820(4) 0.7259(4) 0.1903(4)
O6 O 0.0557(5) 0.8548(4) 0.0419(4)
O8 O 0.1370(4) 0.7907(4) 0.1999(4)
C1 C 0.3045(6) 0.6164(5) 0.1990(5)
O10 O 0.1991(4) 0.5052(4) 0.1025(4)
C2 C 0.3403(6) 0.6240(6) 0.3358(5)
C3 C 0.4210(6) 0.7484(6) 0.4397(5)
C4 C 0.2890(6) 0.5025(6) 0.3562(5)
C5 C 0.4552(6) 0.7553(6) 0.5669(5)
H5 H 0.453529 0.829692 0.425287
C6 C 0.3249(6) 0.5111(5) 0.4821(5)
H6 H 0.230865 0.416292 0.284445
C7 C 0.5422(6) 0.8906(5) 0.6809(5)
C8 C 0.4102(6) 0.6372(6) 0.5885(5)
N1 N 0.2794(5) 0.3891(5) 0.5046(4)
H7 H 0.437045 0.641831 0.674903
C9 C 0.2265(7) 0.2620(6) 0.4169(5)
C10 C 0.2769(6) 0.3785(6) 0.6137(5)
H8 H 0.214769 0.239759 0.330828
C11 C 0.1944(7) 0.1749(6) 0.4748(5)
N2 N 0.2262(5) 0.2494(5) 0.5973(4)
H9 H 0.306238 0.450522 0.689801
H10 H 0.157014 0.080367 0.438130
C12 C 0.1963(6) 0.1941(6) 0.6899(5)
C13 C 0.1025(6) 0.2184(6) 0.7376(5)
C14 C 0.2601(6) 0.1169(5) 0.7257(5)
C15 C 0.0641(6) 0.1574(6) 0.8181(5)
H11 H 0.065224 0.275890 0.715459
C16 C 0.2249(6) 0.0598(6) 0.8089(5)
H12 H 0.326525 0.103699 0.693378
C18 C 0.1248(6) 0.0761(5) 0.8529(5)
H13 H 0.096852 0.032337 0.906672
O11 O 0.6158(5) 0.9016(4) 0.7958(4)
O12 O 0.5402(5) 0.9885(4) 0.6605(4)
O1 O 0.2472(5) 0.9179(4) 0.9169(4)
O2 O 0.1023(5) 0.6227(4) 0.9373(4)
O3 O 0.3989(5) 0.7634(4) 0.9403(4)
H2 H 0.115311 0.552335 0.964355
H3 H 0.476711 0.752762 0.983878
H4 H 0.441393 0.823733 0.910979
C19 C 0.3002(6) 0.9820(5) 0.8567(5)
O16 O 0.4124(5) 0.9904(4) 0.8360(4)
C17 C 0.9507(6) 0.1719(5) 0.8625(5)
O13 O 0.9443(5) 0.1452(4) 0.9581(4)
O14 O 0.8630(4) 0.2093(4) 0.8001(4)
C17_2 C 0.0493(6) 0.8281(5) 0.1375(5)
C19_2 C 0.6998(6) 0.0180(5) 0.1433(5)
O15 O 0.7528(5) 0.0821(4) 0.0831(4)
O2_2 O 0.8977(5) 0.3773(4) 0.0627(4)
O3_2 O 0.6011(5) 0.2366(4) 0.0597(4)
H2_2 H 0.884689 0.447665 0.035645
H3_2 H 0.523289 0.247238 0.016122
H4_2 H 0.558607 0.176267 0.089021
O4_2 O 0.6180(4) 0.2741(4) 0.8097(4)
C1_2 C 0.6955(6) 0.3836(5) 0.8010(5)
O10_2 O 0.8009(4) 0.4948(4) 0.8975(4)
C2_2 C 0.6597(6) 0.3760(6) 0.6642(5)
C3_2 C 0.5790(6) 0.2516(6) 0.5603(5)
C4_2 C 0.7110(6) 0.4975(6) 0.6438(5)
C5_2 C 0.5448(6) 0.2447(6) 0.4331(5)
H5_2 H 0.546471 0.170308 0.574713
C6_2 C 0.6751(6) 0.4889(5) 0.5179(5)
H6_2 H 0.769135 0.583708 0.715555
C7_2 C 0.4578(6) 0.1094(5) 0.3191(5)
C8_2 C 0.5898(6) 0.3628(6) 0.4115(5)
N1_2 N 0.7206(5) 0.6109(5) 0.4954(4)
H7_2 H 0.562955 0.358169 0.325097
C9_2 C 0.7735(7) 0.7380(6) 0.5831(5)
C10_2 C 0.7231(6) 0.6215(6) 0.3863(5)
H8_2 H 0.785231 0.760241 0.669172
C11_2 C 0.8056(7) 0.8251(6) 0.5252(5)
N2_2 N 0.7738(5) 0.7506(5) 0.4027(4)
H9_2 H 0.693762 0.549478 0.310199
H10_2 H 0.842986 0.919633 0.561870
C12_2 C 0.8037(6) 0.8059(6) 0.3101(5)
C13_2 C 0.8975(6) 0.7816(6) 0.2624(5)
C14_2 C 0.7399(6) 0.8831(5) 0.2743(5)
C15_2 C 0.9359(6) 0.8426(6) 0.1819(5)
H11_2 H 0.934776 0.724110 0.284541
C16_2 C 0.7751(6) 0.9402(6) 0.1911(5)
H12_2 H 0.673475 0.896301 0.306622
C18_2 C 0.8752(6) 0.9239(5) 0.1471(5)
H13_2 H 0.903148 0.967663 0.093328
H1 H 0.993953 0.594046 0.927430
H1_2 H 0.006047 0.405954 0.072570
loop_
_geom_bond_atom_site_label_1
_geom_bond_atom_site_label_2
_geom_bond_site_symmetry_1
_geom_bond_site_symmetry_2
O4 Eu1 1_555 1_555
O6 Eu1 1_555 1_555
O8 Eu1 1_555 1_555
C1 O4 1_555 1_555
O10 C1 1_555 1_555
C2 C1 1_555 1_555
C3 C2 1_555 1_555
C4 C2 1_555 1_555
C5 C3 1_555 1_555
H5 C3 1_555 1_555
C6 C4 1_555 1_555
H6 C4 1_555 1_555
C7 C5 1_555 1_555
C8 C5 1_555 1_555
N1 C6 1_555 1_555
H7 C8 1_555 1_555
C9 N1 1_555 1_555
C10 N1 1_555 1_555
H8 C9 1_555 1_555
C11 C9 1_555 1_555
N2 C10 1_555 1_555
H9 C10 1_555 1_555
H10 C11 1_555 1_555
C12 N2 1_555 1_555
C13 C12 1_555 1_555
C14 C12 1_555 1_555
C15 C13 1_555 1_555
H11 C13 1_555 1_555
C16 C14 1_555 1_555
H12 C14 1_555 1_555
C18 C15 1_555 1_555
H13 C18 1_555 1_555
O11 C7 1_555 1_555
O12 C7 1_555 1_555
C6 C8 1_555 1_555
C11 N2 1_555 1_555
C16 C18 1_555 1_555
H2 O2 1_555 1_555
H3 O3 1_555 1_555
H4 O3 1_555 1_555
O1 C19 1_555 1_555
O16 C19 1_555 1_555
O13 C17 1_555 1_555
O14 C17 1_555 1_555
Eu2 O13 1_555 1_555
O14 Eu2 1_555 1_555
O6 C17_2 1_555 1_555
O8 C17_2 1_555 1_555
O15 C19_2 1_555 1_555
O9 C19_2 1_555 1_555
H2_2 O2_2 1_555 1_555
H3_2 O3_2 1_555 1_555
H4_2 O3_2 1_555 1_555
O4_2 Eu2 1_555 1_555
C1_2 O4_2 1_555 1_555
O10_2 C1_2 1_555 1_555
C2_2 C1_2 1_555 1_555
C3_2 C2_2 1_555 1_555
C4_2 C2_2 1_555 1_555
C5_2 C3_2 1_555 1_555
H5_2 C3_2 1_555 1_555
C6_2 C4_2 1_555 1_555
H6_2 C4_2 1_555 1_555
C7_2 C5_2 1_555 1_555
C8_2 C5_2 1_555 1_555
N1_2 C6_2 1_555 1_555
H7_2 C8_2 1_555 1_555
C9_2 N1_2 1_555 1_555
C10_2 N1_2 1_555 1_555
H8_2 C9_2 1_555 1_555
C11_2 C9_2 1_555 1_555
N2_2 C10_2 1_555 1_555
H9_2 C10_2 1_555 1_555
H10_2 C11_2 1_555 1_555
C12_2 N2_2 1_555 1_555
C13_2 C12_2 1_555 1_555
C14_2 C12_2 1_555 1_555
C15_2 C13_2 1_555 1_555
H11_2 C13_2 1_555 1_555
C16_2 C14_2 1_555 1_555
H12_2 C14_2 1_555 1_555
C18_2 C15_2 1_555 1_555
H13_2 C18_2 1_555 1_555
O5 C7_2 1_555 1_555
O7 C7_2 1_555 1_555
C6_2 C8_2 1_555 1_555
C11_2 N2_2 1_555 1_555
C16_2 C18_2 1_555 1_555

#END
