
###############################################################################
#
# This file contains modified crystal structure data generated from the
# MOF subset of the Cambridge Structural Database (CSD) v543 
# hosted by the Cambridge Crystallographic Data Centre (CCDC).
#
# This work is licensed under the Creative Commons
# Attribution-NonCommercial-ShareAlike 4.0 International License.
# To view a copy of this license, visit
# http://creativecommons.org/licenses/by-nc-sa/4.0/
# or send a letter to
# Creative Commons, PO Box 1866, Mountain View, CA 94042, USA.
#
# CIF created using the CSD Python API on 29 September 2022
# The structure has been converted into the P1 space group
# The structure has a 3D framework
# The original CSD entry KOSJAF is in the rhombohedral crystal system
# The framework has been calculated to contain at least 10.0% void space
# The void calculation uses a probe of radius 1.32A, grid spacing 0.4
#
###############################################################################

data_KOSJAF
_chemical_formula_moiety         '(C72 H18 Co6 O50)n'
_symmetry_cell_setting           triclinic
_symmetry_space_group_name_H-M   'P 1'
_symmetry_Int_Tables_number      1
_space_group_name_Hall           'P 1'
loop_
_symmetry_equiv_pos_site_id
_symmetry_equiv_pos_as_xyz
1 x,y,z
_cell_length_a                   25.8419(17)
_cell_length_b                   25.8419
_cell_length_c                   6.7810(7)
_cell_angle_alpha                90
_cell_angle_beta                 90
_cell_angle_gamma                120
_cell_volume                     3921.69
loop_
_atom_site_label
_atom_site_type_symbol
_atom_site_fract_x
_atom_site_fract_y
_atom_site_fract_z
_atom_site_U_iso_or_equiv
_atom_site_thermal_displace_type
Co6 Co 0.6628(31) 0.0428(16) 0.226(6) 0.0010 Uiso
O9 O 0.6453(13) 0.0170(9) 0.7564(26) 0.0210 Uiso
O11 O 0.7050(9) 0.0213(13) 0.4230(26) 0.0210 Uiso
Co9 Co 0.7133(26) 0.0038(31) 0.892(6) 0.0010 Uiso
C3 C 0.6399(7) 0.8669(7) 0.0453(29) 0.0150 Uiso
C4 C 0.6321(6) 0.9089(6) 0.1640(24) 0.0044 Uiso
O2 O 0.6497(9) 0.9617(9) 0.0897(26) 0.0210 Uiso
O3 O 0.6084(8) 0.8903(7) 0.3303(30) 0.0110 Uiso
C5 C 0.6285(11) 0.8142(6) 0.125(4) 0.0260 Uiso
H2 H 0.6159(22) 0.8080(11) 0.285(8) 0.0370 Uiso
C6 C 0.6399(7) 0.7730(10) 0.0453(29) 0.0150 Uiso
C7 C 0.6321(6) 0.7232(8) 0.1640(24) 0.0044 Uiso
O4 O 0.6497(9) 0.6880(13) 0.0897(26) 0.0210 Uiso
O5 O 0.6084(8) 0.7181(11) 0.3303(30) 0.0110 Uiso
Co3 Co 0.6239(16) 0.9534(26) 0.559(6) 0.0010 Uiso
Co4 Co 0.6239(16) 0.6705(31) 0.559(6) 0.0010 Uiso
Co8 Co 0.6628(31) 0.6201(26) 0.226(6) 0.0010 Uiso
C1 C 0.6573(8) 0.8763(8) 0.8380(29) 0.0180 Uiso
C2 C 0.6645(10) 0.8323(5) 0.747(4) 0.0130 Uiso
H1 H 0.6776(25) 0.8388(13) 0.587(10) 0.0620 Uiso
O1 O 0.6700(8) 0.9255(7) 0.7476(29) 0.0100 Uiso
C8 C 0.6573(8) 0.7810(11) 0.8380(29) 0.0180 Uiso
O6 O 0.6700(8) 0.7445(11) 0.7476(29) 0.0100 Uiso
O7 O 0.5888(11) 0.9967(8) 0.4143(29) 0.0100 Uiso
O8 O 0.5888(11) 0.5922(7) 0.4143(29) 0.0100 Uiso
O10 O 0.6453(13) 0.6284(9) 0.7564(26) 0.0210 Uiso
O12 O 0.7050(9) 0.6836(9) 0.4230(26) 0.0210 Uiso
Co10 Co 0.7133(26) 0.7094(16) 0.892(6) 0.0010 Uiso
Co8_2 Co 0.3799(26) 0.0428(40) 0.226(6) 0.0010 Uiso
O10_2 O 0.3716(9) 0.0170(16) 0.7564(26) 0.0210 Uiso
O12_2 O 0.3164(9) 0.0213(13) 0.4230(26) 0.0210 Uiso
Co10_2 Co 0.2906(16) 0.0038(31) 0.892(6) 0.0010 Uiso
C3_2 C 0.1331(7) 0.7730(10) 0.0453(29) 0.0150 Uiso
C4_2 C 0.0911(6) 0.7232(8) 0.1640(24) 0.0044 Uiso
O2_2 O 0.0383(9) 0.6880(13) 0.0897(26) 0.0210 Uiso
O3_2 O 0.1097(7) 0.7181(11) 0.3303(30) 0.0110 Uiso
C5_2 C 0.1858(6) 0.8143(13) 0.125(4) 0.0260 Uiso
H2_2 H 0.1920(11) 0.8079(25) 0.285(8) 0.0370 Uiso
C6_2 C 0.2270(10) 0.8669(12) 0.0453(29) 0.0150 Uiso
C7_2 C 0.2768(8) 0.9089(10) 0.1640(24) 0.0044 Uiso
O4_2 O 0.3120(13) 0.9617(16) 0.0897(26) 0.0210 Uiso
O5_2 O 0.2819(11) 0.8903(14) 0.3303(30) 0.0110 Uiso
Co3_2 Co 0.0466(26) 0.6705(31) 0.559(6) 0.0010 Uiso
Co4_2 Co 0.3295(31) 0.9534(35) 0.559(6) 0.0010 Uiso
C1_2 C 0.1237(8) 0.7810(11) 0.8380(29) 0.0180 Uiso
C2_2 C 0.1677(5) 0.8322(11) 0.747(4) 0.0130 Uiso
H1_2 H 0.1612(13) 0.8388(28) 0.587(10) 0.0620 Uiso
O1_2 O 0.0745(7) 0.7445(11) 0.7476(29) 0.0100 Uiso
C8_2 C 0.2190(11) 0.8763(14) 0.8380(29) 0.0180 Uiso
O6_2 O 0.2555(11) 0.9255(14) 0.7476(29) 0.0100 Uiso
O7_2 O 0.0033(8) 0.5922(14) 0.4143(29) 0.0100 Uiso
O8_2 O 0.4078(7) 0.9967(13) 0.4143(29) 0.0100 Uiso
Co6_2 Co 0.9572(16) 0.6201(35) 0.226(6) 0.0010 Uiso
O9_2 O 0.9830(9) 0.6284(16) 0.7564(26) 0.0210 Uiso
O11_2 O 0.9787(13) 0.6836(16) 0.4230(26) 0.0210 Uiso
Co9_2 Co 0.9962(31) 0.7094(40) 0.892(6) 0.0010 Uiso
C3_3 C 0.2270(10) 0.3601(7) 0.0453(29) 0.0150 Uiso
C4_3 C 0.2768(8) 0.3679(6) 0.1640(24) 0.0044 Uiso
O2_3 O 0.3120(13) 0.3503(9) 0.0897(26) 0.0210 Uiso
O3_3 O 0.2819(11) 0.3916(8) 0.3303(30) 0.0110 Uiso
C5_3 C 0.1857(13) 0.3715(11) 0.125(4) 0.0260 Uiso
H2_3 H 0.1921(25) 0.3841(22) 0.285(8) 0.0370 Uiso
C6_3 C 0.1331(12) 0.3601(7) 0.0453(29) 0.0150 Uiso
C7_3 C 0.0911(10) 0.3679(6) 0.1640(24) 0.0044 Uiso
O4_3 O 0.0383(16) 0.3503(9) 0.0897(26) 0.0210 Uiso
O5_3 O 0.1097(14) 0.3916(8) 0.3303(30) 0.0110 Uiso
Co3_3 Co 0.3295(31) 0.3761(16) 0.559(6) 0.0010 Uiso
Co4_3 Co 0.0466(35) 0.3761(16) 0.559(6) 0.0010 Uiso
Co6_3 Co 0.3799(35) 0.3372(31) 0.226(6) 0.0010 Uiso
C1_3 C 0.2190(11) 0.3427(8) 0.8380(29) 0.0180 Uiso
C2_3 C 0.1678(11) 0.3355(10) 0.747(4) 0.0130 Uiso
H1_3 H 0.1612(28) 0.3224(25) 0.587(10) 0.0620 Uiso
O1_3 O 0.2555(11) 0.3300(8) 0.7476(29) 0.0100 Uiso
C8_3 C 0.1237(14) 0.3427(8) 0.8380(29) 0.0180 Uiso
O6_3 O 0.0745(14) 0.3300(8) 0.7476(29) 0.0100 Uiso
O7_3 O 0.4078(14) 0.4112(11) 0.4143(29) 0.0100 Uiso
O8_3 O 0.0033(13) 0.4112(11) 0.4143(29) 0.0100 Uiso
O9_3 O 0.3716(16) 0.3547(13) 0.7564(26) 0.0210 Uiso
O11_3 O 0.3164(16) 0.2950(9) 0.4230(26) 0.0210 Uiso
Co9_3 Co 0.2906(40) 0.2867(26) 0.892(6) 0.0010 Uiso
Co8_3 Co 0.9572(40) 0.3372(31) 0.226(6) 0.0010 Uiso
O10_3 O 0.9830(16) 0.3547(13) 0.7564(26) 0.0210 Uiso
O12_3 O 0.9787(13) 0.2950(9) 0.4230(26) 0.0210 Uiso
Co10_3 Co 0.9962(31) 0.2867(26) 0.892(6) 0.0010 Uiso
H1_4 H 0.0109(25) 0.5055(13) 0.254(10) 0.0620 Uiso
C1_4 C 0.9906(8) 0.5430(8) 0.5047(29) 0.0180 Uiso
C2_4 C 0.9978(10) 0.4990(5) 0.414(4) 0.0130 Uiso
C3_4 C 0.9732(7) 0.5336(7) 0.7120(29) 0.0150 Uiso
C4_4 C 0.9654(6) 0.5756(6) 0.8307(24) 0.0044 Uiso
O3_4 O 0.9417(8) 0.5570(7) 0.9970(30) 0.0110 Uiso
C5_4 C 0.9618(11) 0.4809(6) 0.792(4) 0.0260 Uiso
H2_4 H 0.9492(22) 0.4747(11) 0.952(8) 0.0370 Uiso
C6_4 C 0.9732(7) 0.4397(10) 0.7120(29) 0.0150 Uiso
C7_4 C 0.9654(6) 0.3899(8) 0.8307(24) 0.0044 Uiso
O5_4 O 0.9417(8) 0.3848(11) 0.9970(30) 0.0110 Uiso
C8_4 C 0.9906(8) 0.4477(11) 0.5047(29) 0.0180 Uiso
O7_4 O 0.9222(11) 0.6633(8) 0.0809(29) 0.0100 Uiso
O8_4 O 0.9222(11) 0.2588(7) 0.0809(29) 0.0100 Uiso
C1_5 C 0.4570(8) 0.4477(11) 0.5047(29) 0.0180 Uiso
C2_5 C 0.5010(5) 0.4989(11) 0.414(4) 0.0130 Uiso
C3_5 C 0.4664(7) 0.4397(10) 0.7120(29) 0.0150 Uiso
C4_5 C 0.4244(6) 0.3899(8) 0.8307(24) 0.0044 Uiso
H1_5 H 0.4945(13) 0.5055(28) 0.254(10) 0.0620 Uiso
O3_5 O 0.4430(7) 0.3848(11) 0.9970(30) 0.0110 Uiso
C5_5 C 0.5191(6) 0.4810(13) 0.792(4) 0.0260 Uiso
H2_5 H 0.5253(11) 0.4746(25) 0.952(8) 0.0370 Uiso
C6_5 C 0.5603(10) 0.5336(12) 0.7120(29) 0.0150 Uiso
C7_5 C 0.6101(8) 0.5756(10) 0.8307(24) 0.0044 Uiso
O5_5 O 0.6152(11) 0.5570(14) 0.9970(30) 0.0110 Uiso
C8_5 C 0.5523(11) 0.5430(14) 0.5047(29) 0.0180 Uiso
O7_5 O 0.3367(8) 0.2588(14) 0.0809(29) 0.0100 Uiso
O8_5 O 0.7412(7) 0.6633(13) 0.0809(29) 0.0100 Uiso
C1_6 C 0.5523(11) 0.0094(8) 0.5047(29) 0.0180 Uiso
C2_6 C 0.5011(11) 0.0022(10) 0.414(4) 0.0130 Uiso
C3_6 C 0.5603(10) 0.0268(7) 0.7120(29) 0.0150 Uiso
C4_6 C 0.6101(8) 0.0346(6) 0.8307(24) 0.0044 Uiso
O3_6 O 0.6152(11) 0.0583(8) 0.9970(30) 0.0110 Uiso
C5_6 C 0.5190(13) 0.0382(11) 0.792(4) 0.0260 Uiso
H2_6 H 0.5254(25) 0.0508(22) 0.952(8) 0.0370 Uiso
C6_6 C 0.4664(12) 0.0268(7) 0.7120(29) 0.0150 Uiso
C7_6 C 0.4244(10) 0.0346(6) 0.8307(24) 0.0044 Uiso
O5_6 O 0.4430(14) 0.0583(8) 0.9970(30) 0.0110 Uiso
C8_6 C 0.4570(14) 0.0094(8) 0.5047(29) 0.0180 Uiso
O7_6 O 0.7412(14) 0.0778(11) 0.0809(29) 0.0100 Uiso
O8_6 O 0.3367(13) 0.0778(11) 0.0809(29) 0.0100 Uiso
H1_6 H 0.4945(28) 0.9891(25) 0.254(10) 0.0620 Uiso
C1_7 C 0.3240(8) 0.2096(8) 0.1713(29) 0.0180 Uiso
C2_7 C 0.3312(10) 0.1656(5) 0.080(4) 0.0130 Uiso
C3_7 C 0.3066(7) 0.2002(7) 0.3786(29) 0.0150 Uiso
C4_7 C 0.2988(6) 0.2422(6) 0.4973(24) 0.0044 Uiso
O3_7 O 0.2751(8) 0.2236(7) 0.6636(30) 0.0110 Uiso
C5_7 C 0.2952(11) 0.1475(6) 0.458(4) 0.0260 Uiso
H2_7 H 0.2826(22) 0.1413(11) 0.618(8) 0.0370 Uiso
C6_7 C 0.3066(7) 0.1063(10) 0.3786(29) 0.0150 Uiso
C7_7 C 0.2988(6) 0.0565(8) 0.4973(24) 0.0044 Uiso
O5_7 O 0.2751(8) 0.0514(11) 0.6636(30) 0.0110 Uiso
C8_7 C 0.3240(8) 0.1143(11) 0.1713(29) 0.0180 Uiso
H1_7 H 0.3443(25) 0.1721(13) 0.920(10) 0.0620 Uiso
C1_8 C 0.7904(8) 0.1143(11) 0.1713(29) 0.0180 Uiso
C2_8 C 0.8344(5) 0.1655(11) 0.080(4) 0.0130 Uiso
C3_8 C 0.7998(7) 0.1063(10) 0.3786(29) 0.0150 Uiso
C4_8 C 0.7578(6) 0.0565(8) 0.4973(24) 0.0044 Uiso
O3_8 O 0.7764(7) 0.0514(11) 0.6636(30) 0.0110 Uiso
C5_8 C 0.8525(6) 0.1476(13) 0.458(4) 0.0260 Uiso
H2_8 H 0.8587(11) 0.1412(25) 0.618(8) 0.0370 Uiso
C6_8 C 0.8937(10) 0.2002(12) 0.3786(29) 0.0150 Uiso
C7_8 C 0.9435(8) 0.2422(10) 0.4973(24) 0.0044 Uiso
O5_8 O 0.9486(11) 0.2236(14) 0.6636(30) 0.0110 Uiso
C8_8 C 0.8857(11) 0.2096(14) 0.1713(29) 0.0180 Uiso
H1_8 H 0.8279(13) 0.1721(28) 0.920(10) 0.0620 Uiso
C1_9 C 0.8857(11) 0.6760(8) 0.1713(29) 0.0180 Uiso
C2_9 C 0.8345(11) 0.6688(10) 0.080(4) 0.0130 Uiso
C3_9 C 0.8937(10) 0.6934(7) 0.3786(29) 0.0150 Uiso
C4_9 C 0.9435(8) 0.7012(6) 0.4973(24) 0.0044 Uiso
O3_9 O 0.9486(11) 0.7249(8) 0.6636(30) 0.0110 Uiso
C5_9 C 0.8524(13) 0.7048(11) 0.458(4) 0.0260 Uiso
H2_9 H 0.8588(25) 0.7174(22) 0.618(8) 0.0370 Uiso
C6_9 C 0.7998(12) 0.6934(7) 0.3786(29) 0.0150 Uiso
C7_9 C 0.7578(10) 0.7012(6) 0.4973(24) 0.0044 Uiso
O5_9 O 0.7764(14) 0.7249(8) 0.6636(30) 0.0110 Uiso
C8_9 C 0.7904(14) 0.6760(8) 0.1713(29) 0.0180 Uiso
H1_9 H 0.8279(28) 0.6557(25) 0.920(10) 0.0620 Uiso
loop_
_geom_bond_atom_site_label_1
_geom_bond_atom_site_label_2
_geom_bond_site_symmetry_1
_geom_bond_site_symmetry_2
O9 Co9 1_555 1_555
O11 Co6 1_555 1_555
C4 C3 1_555 1_555
O2 C4 1_555 1_555
O3 C4 1_555 1_555
C5 C3 1_555 1_555
H2 C5 1_555 1_555
C6 C5 1_555 1_555
C7 C6 1_555 1_555
O4 C7 1_555 1_555
O5 C7 1_555 1_555
Co3 O3 1_555 1_555
Co4 O5 1_555 1_555
Co8 O4 1_555 1_555
Co4 Co8 1_555 1_555
C1 C2 1_555 1_555
C2 H1 1_555 1_555
O1 C1 1_555 1_555
Co3 O1 1_555 1_555
C8 C2 1_555 1_555
O6 C8 1_555 1_555
Co4 O6 1_555 1_555
O7 Co3 1_555 1_555
O8 Co4 1_555 1_555
O10 Co4 1_555 1_555
O12 Co4 1_555 1_555
O6 Co10 1_555 1_555
Co4 Co10 1_555 1_555
O8 Co8 1_555 1_555
O10 Co10 1_555 1_555
O12 Co8 1_555 1_555
O10_2 Co10_2 1_555 1_555
O12_2 Co8_2 1_555 1_555
C4_2 C3_2 1_555 1_555
O2_2 C4_2 1_555 1_555
O3_2 C4_2 1_555 1_555
C5_2 C3_2 1_555 1_555
H2_2 C5_2 1_555 1_555
C6_2 C5_2 1_555 1_555
C7_2 C6_2 1_555 1_555
O4_2 C7_2 1_555 1_555
O5_2 C7_2 1_555 1_555
Co3_2 O3_2 1_555 1_555
Co4_2 O5_2 1_555 1_555
C1_2 C2_2 1_555 1_555
C2_2 H1_2 1_555 1_555
O1_2 C1_2 1_555 1_555
Co3_2 O1_2 1_555 1_555
C8_2 C2_2 1_555 1_555
O6_2 C8_2 1_555 1_555
Co4_2 O6_2 1_555 1_555
O7_2 Co3_2 1_555 1_555
O8_2 Co4_2 1_555 1_555
O9_2 Co9_2 1_555 1_555
O11_2 Co6_2 1_555 1_555
C4_3 C3_3 1_555 1_555
O2_3 C4_3 1_555 1_555
O3_3 C4_3 1_555 1_555
C5_3 C3_3 1_555 1_555
H2_3 C5_3 1_555 1_555
C6_3 C5_3 1_555 1_555
C7_3 C6_3 1_555 1_555
O4_3 C7_3 1_555 1_555
O5_3 C7_3 1_555 1_555
Co3_3 O3_3 1_555 1_555
Co4_3 O5_3 1_555 1_555
Co6_3 O2_3 1_555 1_555
Co3_3 Co6_3 1_555 1_555
C1_3 C2_3 1_555 1_555
C2_3 H1_3 1_555 1_555
O1_3 C1_3 1_555 1_555
Co3_3 O1_3 1_555 1_555
C8_3 C2_3 1_555 1_555
O6_3 C8_3 1_555 1_555
Co4_3 O6_3 1_555 1_555
O7_3 Co3_3 1_555 1_555
O8_3 Co4_3 1_555 1_555
O9_3 Co3_3 1_555 1_555
O11_3 Co3_3 1_555 1_555
Co9_3 O1_3 1_555 1_555
Co3_3 Co9_3 1_555 1_555
O7_3 Co6_3 1_555 1_555
O9_3 Co9_3 1_555 1_555
O11_3 Co6_3 1_555 1_555
O10_3 Co10_3 1_555 1_555
O12_3 Co8_3 1_555 1_555
C1_4 C2_4 1_555 1_555
C3_4 C1_4 1_555 1_555
C4_4 C3_4 1_555 1_555
O9_2 C4_4 1_555 1_555
O3_4 C4_4 1_555 1_555
C5_4 C3_4 1_555 1_555
H2_4 C5_4 1_555 1_555
C6_4 C5_4 1_555 1_555
C7_4 C6_4 1_555 1_555
O10_3 C7_4 1_555 1_555
O5_4 C7_4 1_555 1_555
C8_4 C2_4 1_555 1_555
O7_4 Co6_2 1_555 1_555
O8_4 Co8_3 1_555 1_555
C6_4 C8_4 1_555 1_555
C1_5 C2_5 1_555 1_555
C2_5 H1_5 1_555 1_555
C3_5 C1_5 1_555 1_555
C4_5 C3_5 1_555 1_555
O7_3 C1_5 1_555 1_555
O9_3 C4_5 1_555 1_555
O3_5 C4_5 1_555 1_555
C5_5 C3_5 1_555 1_555
H2_5 C5_5 1_555 1_555
C6_5 C5_5 1_555 1_555
C7_5 C6_5 1_555 1_555
O10 C7_5 1_555 1_555
O5_5 C7_5 1_555 1_555
C8_5 C2_5 1_555 1_555
O8 C8_5 1_555 1_555
O7_5 Co6_3 1_555 1_555
O8_5 Co8 1_555 1_555
C6_5 C8_5 1_555 1_555
C1_6 C2_6 1_555 1_555
C3_6 C1_6 1_555 1_555
C4_6 C3_6 1_555 1_555
O9 C4_6 1_555 1_555
O3_6 C4_6 1_555 1_555
C5_6 C3_6 1_555 1_555
H2_6 C5_6 1_555 1_555
C6_6 C5_6 1_555 1_555
C7_6 C6_6 1_555 1_555
O10_2 C7_6 1_555 1_555
O5_6 C7_6 1_555 1_555
C8_6 C2_6 1_555 1_555
O7_6 Co6 1_555 1_555
O8_6 Co8_2 1_555 1_555
C6_6 C8_6 1_555 1_555
C1_7 C2_7 1_555 1_555
C3_7 C1_7 1_555 1_555
C4_7 C3_7 1_555 1_555
O7_5 C1_7 1_555 1_555
O11_3 C4_7 1_555 1_555
O3_7 C4_7 1_555 1_555
C5_7 C3_7 1_555 1_555
H2_7 C5_7 1_555 1_555
C6_7 C5_7 1_555 1_555
C7_7 C6_7 1_555 1_555
O12_2 C7_7 1_555 1_555
O5_7 C7_7 1_555 1_555
C8_7 C2_7 1_555 1_555
O8_6 C8_7 1_555 1_555
Co9_3 O3_7 1_555 1_555
Co10_2 O5_7 1_555 1_555
C6_7 C8_7 1_555 1_555
C1_8 C2_8 1_555 1_555
C3_8 C1_8 1_555 1_555
C4_8 C3_8 1_555 1_555
O7_6 C1_8 1_555 1_555
O11 C4_8 1_555 1_555
O3_8 C4_8 1_555 1_555
C5_8 C3_8 1_555 1_555
H2_8 C5_8 1_555 1_555
C6_8 C5_8 1_555 1_555
C7_8 C6_8 1_555 1_555
O12_3 C7_8 1_555 1_555
O5_8 C7_8 1_555 1_555
C8_8 C2_8 1_555 1_555
O8_4 C8_8 1_555 1_555
Co9 O3_8 1_555 1_555
Co10_3 O5_8 1_555 1_555
C6_8 C8_8 1_555 1_555
C1_9 C2_9 1_555 1_555
C3_9 C1_9 1_555 1_555
C4_9 C3_9 1_555 1_555
O7_4 C1_9 1_555 1_555
O11_2 C4_9 1_555 1_555
O3_9 C4_9 1_555 1_555
C5_9 C3_9 1_555 1_555
H2_9 C5_9 1_555 1_555
C6_9 C5_9 1_555 1_555
C7_9 C6_9 1_555 1_555
O12 C7_9 1_555 1_555
O5_9 C7_9 1_555 1_555
C8_9 C2_9 1_555 1_555
O8_5 C8_9 1_555 1_555
Co9_2 O3_9 1_555 1_555
Co10 O5_9 1_555 1_555
C6_9 C8_9 1_555 1_555

#END
