
###############################################################################
#
# This file contains modified crystal structure data generated from the
# MOF subset of the Cambridge Structural Database (CSD) v543 
# hosted by the Cambridge Crystallographic Data Centre (CCDC).
#
# This work is licensed under the Creative Commons
# Attribution-NonCommercial-ShareAlike 4.0 International License.
# To view a copy of this license, visit
# http://creativecommons.org/licenses/by-nc-sa/4.0/
# or send a letter to
# Creative Commons, PO Box 1866, Mountain View, CA 94042, USA.
#
# CIF created using the CSD Python API on 29 September 2022
# The structure has been converted into the P1 space group
# The structure has a 3D framework
# The original CSD entry KOSJIN is in the rhombohedral crystal system
# The framework has been calculated to contain at least 10.0% void space
# The void calculation uses a probe of radius 1.32A, grid spacing 0.4
#
###############################################################################

data_KOSJIN
_chemical_formula_moiety         '(C72 H18 Co6 O44)n'
_symmetry_cell_setting           triclinic
_symmetry_space_group_name_H-M   'P 1'
_symmetry_Int_Tables_number      1
_space_group_name_Hall           'P 1'
loop_
_symmetry_equiv_pos_site_id
_symmetry_equiv_pos_as_xyz
1 x,y,z
_cell_length_a                   25.8521(18)
_cell_length_b                   25.8521
_cell_length_c                   6.7898(7)
_cell_angle_alpha                90
_cell_angle_beta                 90
_cell_angle_gamma                120
_cell_volume                     3929.88
loop_
_atom_site_label
_atom_site_type_symbol
_atom_site_fract_x
_atom_site_fract_y
_atom_site_fract_z
_atom_site_U_iso_or_equiv
_atom_site_thermal_displace_type
Co6 Co 0.6606(36) 0.0387(19) 0.222(7) 0.0040 Uiso
O9 O 0.6444(14) 0.0143(10) 0.7576(32) 0.0220 Uiso
O11 O 0.7032(10) 0.0222(14) 0.4242(32) 0.0220 Uiso
Co9 Co 0.7114(31) 0.0060(36) 0.888(7) 0.0040 Uiso
C3 C 0.6413(9) 0.8676(8) 0.0440(34) 0.0180 Uiso
C4 C 0.6324(7) 0.9091(8) 0.1650(27) 0.0110 Uiso
O2 O 0.6524(10) 0.9635(10) 0.0909(32) 0.0220 Uiso
O3 O 0.6086(10) 0.8924(9) 0.3356(32) 0.0130 Uiso
C5 C 0.6275(12) 0.8138(6) 0.133(4) 0.0180 Uiso
H2 H 0.6154(25) 0.8077(13) 0.273(9) 0.0320 Uiso
C6 C 0.6413(9) 0.7737(12) 0.0440(34) 0.0180 Uiso
C7 C 0.6324(7) 0.7233(11) 0.1650(27) 0.0110 Uiso
O4 O 0.6524(10) 0.6889(14) 0.0909(32) 0.0220 Uiso
O5 O 0.6086(10) 0.7162(13) 0.3356(32) 0.0130 Uiso
Co3 Co 0.6280(19) 0.9553(31) 0.555(7) 0.0040 Uiso
Co4 Co 0.6280(19) 0.6727(36) 0.555(7) 0.0040 Uiso
Co8 Co 0.6606(36) 0.6220(31) 0.222(7) 0.0040 Uiso
C1 C 0.6571(9) 0.8745(9) 0.8382(33) 0.0140 Uiso
C2 C 0.6643(13) 0.8322(6) 0.754(5) 0.0120 Uiso
H1 H 0.6774(28) 0.8387(14) 0.594(11) 0.0580 Uiso
O1 O 0.6706(8) 0.9261(8) 0.7497(35) 0.0080 Uiso
C8 C 0.6571(9) 0.7826(13) 0.8382(33) 0.0140 Uiso
O6 O 0.6706(8) 0.7445(11) 0.7497(35) 0.0080 Uiso
O7 O 0.5888(11) 0.9961(8) 0.4164(35) 0.0080 Uiso
O8 O 0.5888(11) 0.5928(8) 0.4164(35) 0.0080 Uiso
O10 O 0.6444(14) 0.6302(10) 0.7576(32) 0.0220 Uiso
O12 O 0.7032(10) 0.6809(10) 0.4242(32) 0.0220 Uiso
Co10 Co 0.7114(31) 0.7053(19) 0.888(7) 0.0040 Uiso
Co8_2 Co 0.3780(31) 0.0387(48) 0.222(7) 0.0040 Uiso
O10_2 O 0.3698(10) 0.0143(17) 0.7576(32) 0.0220 Uiso
O12_2 O 0.3191(10) 0.0222(14) 0.4242(32) 0.0220 Uiso
Co10_2 Co 0.2947(19) 0.0060(36) 0.888(7) 0.0040 Uiso
C3_2 C 0.1324(8) 0.7737(12) 0.0440(34) 0.0180 Uiso
C4_2 C 0.0909(8) 0.7233(11) 0.1650(27) 0.0110 Uiso
O2_2 O 0.0365(10) 0.6889(14) 0.0909(32) 0.0220 Uiso
O3_2 O 0.1076(9) 0.7162(13) 0.3356(32) 0.0130 Uiso
C5_2 C 0.1862(6) 0.8137(13) 0.133(4) 0.0180 Uiso
H2_2 H 0.1923(13) 0.8077(28) 0.273(9) 0.0320 Uiso
C6_2 C 0.2263(12) 0.8676(15) 0.0440(34) 0.0180 Uiso
C7_2 C 0.2767(11) 0.9091(13) 0.1650(27) 0.0110 Uiso
O4_2 O 0.3111(14) 0.9635(17) 0.0909(32) 0.0220 Uiso
O5_2 O 0.2838(13) 0.8924(16) 0.3356(32) 0.0130 Uiso
Co3_2 Co 0.0447(31) 0.6727(36) 0.555(7) 0.0040 Uiso
Co4_2 Co 0.3273(36) 0.9553(41) 0.555(7) 0.0040 Uiso
C1_2 C 0.1255(9) 0.7826(13) 0.8382(33) 0.0140 Uiso
C2_2 C 0.1678(6) 0.8321(14) 0.754(5) 0.0120 Uiso
H1_2 H 0.1613(14) 0.8387(31) 0.594(11) 0.0580 Uiso
O1_2 O 0.0739(8) 0.7445(11) 0.7497(35) 0.0080 Uiso
C8_2 C 0.2174(13) 0.8745(16) 0.8382(33) 0.0140 Uiso
O6_2 O 0.2555(11) 0.9261(14) 0.7497(35) 0.0080 Uiso
O7_2 O 0.0039(8) 0.5928(14) 0.4164(35) 0.0080 Uiso
O8_2 O 0.4072(8) 0.9961(14) 0.4164(35) 0.0080 Uiso
Co6_2 Co 0.9613(19) 0.6220(41) 0.222(7) 0.0040 Uiso
O9_2 O 0.9857(10) 0.6302(17) 0.7576(32) 0.0220 Uiso
O11_2 O 0.9778(14) 0.6809(17) 0.4242(32) 0.0220 Uiso
Co9_2 Co 0.9940(36) 0.7053(48) 0.888(7) 0.0040 Uiso
C3_3 C 0.2263(12) 0.3587(9) 0.0440(34) 0.0180 Uiso
C4_3 C 0.2767(11) 0.3676(7) 0.1650(27) 0.0110 Uiso
O2_3 O 0.3111(14) 0.3476(10) 0.0909(32) 0.0220 Uiso
O3_3 O 0.2838(13) 0.3914(10) 0.3356(32) 0.0130 Uiso
C5_3 C 0.1863(13) 0.3725(12) 0.133(4) 0.0180 Uiso
H2_3 H 0.1923(28) 0.3846(25) 0.273(9) 0.0320 Uiso
C6_3 C 0.1324(15) 0.3587(9) 0.0440(34) 0.0180 Uiso
C7_3 C 0.0909(13) 0.3676(7) 0.1650(27) 0.0110 Uiso
O4_3 O 0.0365(17) 0.3476(10) 0.0909(32) 0.0220 Uiso
O5_3 O 0.1076(16) 0.3914(10) 0.3356(32) 0.0130 Uiso
Co3_3 Co 0.3273(36) 0.3720(19) 0.555(7) 0.0040 Uiso
Co4_3 Co 0.0447(41) 0.3720(19) 0.555(7) 0.0040 Uiso
Co6_3 Co 0.3780(41) 0.3394(36) 0.222(7) 0.0040 Uiso
C1_3 C 0.2174(13) 0.3429(9) 0.8382(33) 0.0140 Uiso
C2_3 C 0.1679(14) 0.3357(13) 0.754(5) 0.0120 Uiso
H1_3 H 0.1613(31) 0.3226(28) 0.594(11) 0.0580 Uiso
O1_3 O 0.2555(11) 0.3294(8) 0.7497(35) 0.0080 Uiso
C8_3 C 0.1255(16) 0.3429(9) 0.8382(33) 0.0140 Uiso
O6_3 O 0.0739(14) 0.3294(8) 0.7497(35) 0.0080 Uiso
O7_3 O 0.4072(14) 0.4112(11) 0.4164(35) 0.0080 Uiso
O8_3 O 0.0039(14) 0.4112(11) 0.4164(35) 0.0080 Uiso
O9_3 O 0.3698(17) 0.3556(14) 0.7576(32) 0.0220 Uiso
O11_3 O 0.3191(17) 0.2968(10) 0.4242(32) 0.0220 Uiso
Co9_3 Co 0.2947(48) 0.2886(31) 0.888(7) 0.0040 Uiso
Co8_3 Co 0.9613(48) 0.3394(36) 0.222(7) 0.0040 Uiso
O10_3 O 0.9857(17) 0.3556(14) 0.7576(32) 0.0220 Uiso
O12_3 O 0.9778(14) 0.2968(10) 0.4242(32) 0.0220 Uiso
Co10_3 Co 0.9940(36) 0.2886(31) 0.888(7) 0.0040 Uiso
H1_4 H 0.0107(28) 0.5054(14) 0.261(11) 0.0580 Uiso
O3_4 O 0.9419(10) 0.5591(9) 0.0023(32) 0.0130 Uiso
O5_4 O 0.9419(10) 0.3829(13) 0.0023(32) 0.0130 Uiso
C1_4 C 0.9904(9) 0.5412(9) 0.5049(33) 0.0140 Uiso
C2_4 C 0.9976(13) 0.4989(6) 0.421(5) 0.0120 Uiso
C3_4 C 0.9746(9) 0.5343(8) 0.7107(34) 0.0180 Uiso
C4_4 C 0.9657(7) 0.5758(8) 0.8317(27) 0.0110 Uiso
C5_4 C 0.9608(12) 0.4805(6) 0.800(4) 0.0180 Uiso
H2_4 H 0.9487(25) 0.4744(13) 0.940(9) 0.0320 Uiso
C6_4 C 0.9746(9) 0.4404(12) 0.7107(34) 0.0180 Uiso
C7_4 C 0.9657(7) 0.3900(11) 0.8317(27) 0.0110 Uiso
C8_4 C 0.9904(9) 0.4493(13) 0.5049(33) 0.0140 Uiso
O7_4 O 0.9222(11) 0.6627(8) 0.0830(35) 0.0080 Uiso
O8_4 O 0.9222(11) 0.2594(8) 0.0830(35) 0.0080 Uiso
O3_5 O 0.4409(9) 0.3829(13) 0.0023(32) 0.0130 Uiso
O5_5 O 0.6171(13) 0.5591(16) 0.0023(32) 0.0130 Uiso
C1_5 C 0.4588(9) 0.4493(13) 0.5049(33) 0.0140 Uiso
C2_5 C 0.5011(6) 0.4988(14) 0.421(5) 0.0120 Uiso
C3_5 C 0.4657(8) 0.4404(12) 0.7107(34) 0.0180 Uiso
C4_5 C 0.4242(8) 0.3900(11) 0.8317(27) 0.0110 Uiso
H1_5 H 0.4946(14) 0.5054(31) 0.261(11) 0.0580 Uiso
C5_5 C 0.5195(6) 0.4804(13) 0.800(4) 0.0180 Uiso
H2_5 H 0.5256(13) 0.4744(28) 0.940(9) 0.0320 Uiso
C6_5 C 0.5596(12) 0.5343(15) 0.7107(34) 0.0180 Uiso
C7_5 C 0.6100(11) 0.5758(13) 0.8317(27) 0.0110 Uiso
C8_5 C 0.5507(13) 0.5412(16) 0.5049(33) 0.0140 Uiso
O7_5 O 0.3373(8) 0.2594(14) 0.0830(35) 0.0080 Uiso
O8_5 O 0.7406(8) 0.6627(14) 0.0830(35) 0.0080 Uiso
O3_6 O 0.6171(13) 0.0581(10) 0.0023(32) 0.0130 Uiso
O5_6 O 0.4409(16) 0.0581(10) 0.0023(32) 0.0130 Uiso
C1_6 C 0.5507(13) 0.0096(9) 0.5049(33) 0.0140 Uiso
C2_6 C 0.5012(14) 0.0024(13) 0.421(5) 0.0120 Uiso
C3_6 C 0.5596(12) 0.0254(9) 0.7107(34) 0.0180 Uiso
C4_6 C 0.6100(11) 0.0343(7) 0.8317(27) 0.0110 Uiso
C5_6 C 0.5196(13) 0.0392(12) 0.800(4) 0.0180 Uiso
H2_6 H 0.5256(28) 0.0513(25) 0.940(9) 0.0320 Uiso
C6_6 C 0.4657(15) 0.0254(9) 0.7107(34) 0.0180 Uiso
C7_6 C 0.4242(13) 0.0343(7) 0.8317(27) 0.0110 Uiso
C8_6 C 0.4588(16) 0.0096(9) 0.5049(33) 0.0140 Uiso
O7_6 O 0.7406(14) 0.0778(11) 0.0830(35) 0.0080 Uiso
O8_6 O 0.3373(14) 0.0778(11) 0.0830(35) 0.0080 Uiso
H1_6 H 0.4946(31) 0.9893(28) 0.261(11) 0.0580 Uiso
C1_7 C 0.3238(9) 0.2078(9) 0.1715(33) 0.0140 Uiso
C2_7 C 0.3310(13) 0.1655(6) 0.087(5) 0.0120 Uiso
C3_7 C 0.3080(9) 0.2009(8) 0.3773(34) 0.0180 Uiso
C4_7 C 0.2991(7) 0.2424(8) 0.4983(27) 0.0110 Uiso
O3_7 O 0.2753(10) 0.2257(9) 0.6689(32) 0.0130 Uiso
C5_7 C 0.2942(12) 0.1471(6) 0.466(4) 0.0180 Uiso
H2_7 H 0.2821(25) 0.1410(13) 0.606(9) 0.0320 Uiso
C6_7 C 0.3080(9) 0.1070(12) 0.3773(34) 0.0180 Uiso
C7_7 C 0.2991(7) 0.0566(11) 0.4983(27) 0.0110 Uiso
O5_7 O 0.2753(10) 0.0495(13) 0.6689(32) 0.0130 Uiso
C8_7 C 0.3238(9) 0.1159(13) 0.1715(33) 0.0140 Uiso
H1_7 H 0.3441(28) 0.1720(14) 0.927(11) 0.0580 Uiso
C1_8 C 0.7922(9) 0.1159(13) 0.1715(33) 0.0140 Uiso
C2_8 C 0.8345(6) 0.1654(14) 0.087(5) 0.0120 Uiso
C3_8 C 0.7991(8) 0.1070(12) 0.3773(34) 0.0180 Uiso
C4_8 C 0.7576(8) 0.0566(11) 0.4983(27) 0.0110 Uiso
O3_8 O 0.7743(9) 0.0495(13) 0.6689(32) 0.0130 Uiso
C5_8 C 0.8529(6) 0.1470(13) 0.466(4) 0.0180 Uiso
H2_8 H 0.8590(13) 0.1410(28) 0.606(9) 0.0320 Uiso
C6_8 C 0.8930(12) 0.2009(15) 0.3773(34) 0.0180 Uiso
C7_8 C 0.9434(11) 0.2424(13) 0.4983(27) 0.0110 Uiso
O5_8 O 0.9505(13) 0.2257(16) 0.6689(32) 0.0130 Uiso
C8_8 C 0.8841(13) 0.2078(16) 0.1715(33) 0.0140 Uiso
H1_8 H 0.8280(14) 0.1720(31) 0.927(11) 0.0580 Uiso
C1_9 C 0.8841(13) 0.6762(9) 0.1715(33) 0.0140 Uiso
C2_9 C 0.8346(14) 0.6690(13) 0.087(5) 0.0120 Uiso
C3_9 C 0.8930(12) 0.6920(9) 0.3773(34) 0.0180 Uiso
C4_9 C 0.9434(11) 0.7009(7) 0.4983(27) 0.0110 Uiso
O3_9 O 0.9505(13) 0.7247(10) 0.6689(32) 0.0130 Uiso
C5_9 C 0.8530(13) 0.7058(12) 0.466(4) 0.0180 Uiso
H2_9 H 0.8590(28) 0.7179(25) 0.606(9) 0.0320 Uiso
C6_9 C 0.7991(15) 0.6920(9) 0.3773(34) 0.0180 Uiso
C7_9 C 0.7576(13) 0.7009(7) 0.4983(27) 0.0110 Uiso
O5_9 O 0.7743(16) 0.7247(10) 0.6689(32) 0.0130 Uiso
C8_9 C 0.7922(16) 0.6762(9) 0.1715(33) 0.0140 Uiso
H1_9 H 0.8280(31) 0.6559(28) 0.927(11) 0.0580 Uiso
loop_
_geom_bond_atom_site_label_1
_geom_bond_atom_site_label_2
_geom_bond_site_symmetry_1
_geom_bond_site_symmetry_2
O9 Co9 1_555 1_555
O11 Co6 1_555 1_555
C4 C3 1_555 1_555
O2 C4 1_555 1_555
O3 C4 1_555 1_555
C5 C3 1_555 1_555
H2 C5 1_555 1_555
C6 C5 1_555 1_555
C7 C6 1_555 1_555
O4 C7 1_555 1_555
O5 C7 1_555 1_555
Co3 O3 1_555 1_555
Co4 O5 1_555 1_555
Co8 O4 1_555 1_555
Co4 Co8 1_555 1_555
C1 C2 1_555 1_555
C2 H1 1_555 1_555
O1 C1 1_555 1_555
Co3 O1 1_555 1_555
C8 C2 1_555 1_555
O6 C8 1_555 1_555
Co4 O6 1_555 1_555
O7 Co3 1_555 1_555
O8 Co4 1_555 1_555
O10 Co4 1_555 1_555
O12 Co4 1_555 1_555
O6 Co10 1_555 1_555
Co4 Co10 1_555 1_555
O8 Co8 1_555 1_555
O10 Co10 1_555 1_555
O12 Co8 1_555 1_555
O10_2 Co10_2 1_555 1_555
O12_2 Co8_2 1_555 1_555
C4_2 C3_2 1_555 1_555
O2_2 C4_2 1_555 1_555
O3_2 C4_2 1_555 1_555
C5_2 C3_2 1_555 1_555
H2_2 C5_2 1_555 1_555
C6_2 C5_2 1_555 1_555
C7_2 C6_2 1_555 1_555
O4_2 C7_2 1_555 1_555
O5_2 C7_2 1_555 1_555
Co3_2 O3_2 1_555 1_555
Co4_2 O5_2 1_555 1_555
C1_2 C2_2 1_555 1_555
C2_2 H1_2 1_555 1_555
O1_2 C1_2 1_555 1_555
Co3_2 O1_2 1_555 1_555
C8_2 C2_2 1_555 1_555
O6_2 C8_2 1_555 1_555
Co4_2 O6_2 1_555 1_555
O7_2 Co3_2 1_555 1_555
O8_2 Co4_2 1_555 1_555
O9_2 Co9_2 1_555 1_555
O11_2 Co6_2 1_555 1_555
C4_3 C3_3 1_555 1_555
O2_3 C4_3 1_555 1_555
O3_3 C4_3 1_555 1_555
C5_3 C3_3 1_555 1_555
H2_3 C5_3 1_555 1_555
C6_3 C5_3 1_555 1_555
C7_3 C6_3 1_555 1_555
O4_3 C7_3 1_555 1_555
O5_3 C7_3 1_555 1_555
Co3_3 O3_3 1_555 1_555
Co4_3 O5_3 1_555 1_555
Co6_3 O2_3 1_555 1_555
Co3_3 Co6_3 1_555 1_555
C1_3 C2_3 1_555 1_555
C2_3 H1_3 1_555 1_555
O1_3 C1_3 1_555 1_555
Co3_3 O1_3 1_555 1_555
C8_3 C2_3 1_555 1_555
O6_3 C8_3 1_555 1_555
Co4_3 O6_3 1_555 1_555
O7_3 Co3_3 1_555 1_555
O8_3 Co4_3 1_555 1_555
O9_3 Co3_3 1_555 1_555
O11_3 Co3_3 1_555 1_555
Co9_3 O1_3 1_555 1_555
Co3_3 Co9_3 1_555 1_555
O7_3 Co6_3 1_555 1_555
O9_3 Co9_3 1_555 1_555
O11_3 Co6_3 1_555 1_555
O10_3 Co10_3 1_555 1_555
O12_3 Co8_3 1_555 1_555
Co6_2 O3_4 1_555 1_555
Co8_3 O5_4 1_555 1_555
C1_4 C2_4 1_555 1_555
C3_4 C1_4 1_555 1_555
C4_4 C3_4 1_555 1_555
O9_2 C4_4 1_555 1_555
C5_4 C3_4 1_555 1_555
H2_4 C5_4 1_555 1_555
C6_4 C5_4 1_555 1_555
C7_4 C6_4 1_555 1_555
O10_3 C7_4 1_555 1_555
C8_4 C2_4 1_555 1_555
O7_4 Co6_2 1_555 1_555
O8_4 Co8_3 1_555 1_555
C6_4 C8_4 1_555 1_555
Co6_3 O3_5 1_555 1_555
Co8 O5_5 1_555 1_555
C1_5 C2_5 1_555 1_555
C2_5 H1_5 1_555 1_555
C3_5 C1_5 1_555 1_555
C4_5 C3_5 1_555 1_555
O7_3 C1_5 1_555 1_555
O9_3 C4_5 1_555 1_555
C5_5 C3_5 1_555 1_555
H2_5 C5_5 1_555 1_555
C6_5 C5_5 1_555 1_555
C7_5 C6_5 1_555 1_555
O10 C7_5 1_555 1_555
C8_5 C2_5 1_555 1_555
O8 C8_5 1_555 1_555
O7_5 Co6_3 1_555 1_555
O8_5 Co8 1_555 1_555
C6_5 C8_5 1_555 1_555
Co6 O3_6 1_555 1_555
Co8_2 O5_6 1_555 1_555
C1_6 C2_6 1_555 1_555
C3_6 C1_6 1_555 1_555
C4_6 C3_6 1_555 1_555
O9 C4_6 1_555 1_555
C5_6 C3_6 1_555 1_555
H2_6 C5_6 1_555 1_555
C6_6 C5_6 1_555 1_555
C7_6 C6_6 1_555 1_555
O10_2 C7_6 1_555 1_555
C8_6 C2_6 1_555 1_555
O7_6 Co6 1_555 1_555
O8_6 Co8_2 1_555 1_555
C6_6 C8_6 1_555 1_555
C1_7 C2_7 1_555 1_555
C3_7 C1_7 1_555 1_555
C4_7 C3_7 1_555 1_555
O7_5 C1_7 1_555 1_555
O11_3 C4_7 1_555 1_555
O3_7 C4_7 1_555 1_555
C5_7 C3_7 1_555 1_555
H2_7 C5_7 1_555 1_555
C6_7 C5_7 1_555 1_555
C7_7 C6_7 1_555 1_555
O12_2 C7_7 1_555 1_555
O5_7 C7_7 1_555 1_555
C8_7 C2_7 1_555 1_555
O8_6 C8_7 1_555 1_555
Co9_3 O3_7 1_555 1_555
Co10_2 O5_7 1_555 1_555
C6_7 C8_7 1_555 1_555
C1_8 C2_8 1_555 1_555
C3_8 C1_8 1_555 1_555
C4_8 C3_8 1_555 1_555
O7_6 C1_8 1_555 1_555
O11 C4_8 1_555 1_555
O3_8 C4_8 1_555 1_555
C5_8 C3_8 1_555 1_555
H2_8 C5_8 1_555 1_555
C6_8 C5_8 1_555 1_555
C7_8 C6_8 1_555 1_555
O12_3 C7_8 1_555 1_555
O5_8 C7_8 1_555 1_555
C8_8 C2_8 1_555 1_555
O8_4 C8_8 1_555 1_555
Co9 O3_8 1_555 1_555
Co10_3 O5_8 1_555 1_555
C6_8 C8_8 1_555 1_555
C1_9 C2_9 1_555 1_555
C3_9 C1_9 1_555 1_555
C4_9 C3_9 1_555 1_555
O7_4 C1_9 1_555 1_555
O11_2 C4_9 1_555 1_555
O3_9 C4_9 1_555 1_555
C5_9 C3_9 1_555 1_555
H2_9 C5_9 1_555 1_555
C6_9 C5_9 1_555 1_555
C7_9 C6_9 1_555 1_555
O12 C7_9 1_555 1_555
O5_9 C7_9 1_555 1_555
C8_9 C2_9 1_555 1_555
O8_5 C8_9 1_555 1_555
Co9_2 O3_9 1_555 1_555
Co10 O5_9 1_555 1_555
C6_9 C8_9 1_555 1_555

#END
