
###############################################################################
#
# This file contains modified crystal structure data generated from the
# MOF subset of the Cambridge Structural Database (CSD) v543 
# hosted by the Cambridge Crystallographic Data Centre (CCDC).
#
# This work is licensed under the Creative Commons
# Attribution-NonCommercial-ShareAlike 4.0 International License.
# To view a copy of this license, visit
# http://creativecommons.org/licenses/by-nc-sa/4.0/
# or send a letter to
# Creative Commons, PO Box 1866, Mountain View, CA 94042, USA.
#
# CIF created using the CSD Python API on 29 September 2022
# The structure has been converted into the P1 space group
# The structure has a 3D framework
# The original CSD entry KOSKEK is in the rhombohedral crystal system
# The framework has been calculated to contain at least 10.0% void space
# The void calculation uses a probe of radius 1.32A, grid spacing 0.4
#
###############################################################################

data_KOSKEK
_chemical_formula_moiety         '(C72 H18 Co6 O50)n'
_symmetry_cell_setting           triclinic
_symmetry_space_group_name_H-M   'P 1'
_symmetry_Int_Tables_number      1
_space_group_name_Hall           'P 1'
loop_
_symmetry_equiv_pos_site_id
_symmetry_equiv_pos_as_xyz
1 x,y,z
_cell_length_a                   25.8923(17)
_cell_length_b                   25.8923
_cell_length_c                   6.8115(6)
_cell_angle_alpha                90
_cell_angle_beta                 90
_cell_angle_gamma                120
_cell_volume                     3954.71
loop_
_atom_site_label
_atom_site_type_symbol
_atom_site_fract_x
_atom_site_fract_y
_atom_site_fract_z
_atom_site_U_iso_or_equiv
_atom_site_thermal_displace_type
Co6 Co 0.6605(37) 0.0375(20) 0.231(7) 0.0010 Uiso
O9 O 0.6435(13) 0.0134(9) 0.7590(29) 0.0150 Uiso
O11 O 0.7032(10) 0.0231(13) 0.4256(29) 0.0150 Uiso
Co9 Co 0.7103(31) 0.0061(37) 0.897(7) 0.0010 Uiso
C3 C 0.6440(10) 0.8692(9) 0.0469(34) 0.0230 Uiso
C4 C 0.6365(8) 0.9117(9) 0.1632(29) 0.0240 Uiso
O2 O 0.6533(9) 0.9635(10) 0.0923(29) 0.0150 Uiso
O3 O 0.6143(10) 0.8967(10) 0.3329(30) 0.0250 Uiso
C5 C 0.6290(12) 0.8145(6) 0.131(4) 0.0110 Uiso
H2 H 0.6151(22) 0.8076(11) 0.271(8) 0.0170 Uiso
C6 C 0.6440(10) 0.7748(13) 0.0469(34) 0.0230 Uiso
C7 C 0.6365(8) 0.7248(12) 0.1632(29) 0.0240 Uiso
O4 O 0.6533(9) 0.6898(13) 0.0923(29) 0.0150 Uiso
O5 O 0.6143(10) 0.7176(14) 0.3329(30) 0.0250 Uiso
Co3 Co 0.6292(20) 0.9564(31) 0.564(7) 0.0010 Uiso
Co4 Co 0.6292(20) 0.6728(37) 0.564(7) 0.0010 Uiso
Co8 Co 0.6605(37) 0.6231(31) 0.231(7) 0.0010 Uiso
C1 C 0.6593(10) 0.8766(10) 0.8366(33) 0.0180 Uiso
C2 C 0.6671(12) 0.8335(6) 0.752(5) 0.0120 Uiso
H1 H 0.6781(22) 0.8391(11) 0.583(9) 0.0290 Uiso
O1 O 0.6745(9) 0.9275(9) 0.7514(31) 0.0090 Uiso
C8 C 0.6593(10) 0.7827(14) 0.8366(33) 0.0180 Uiso
O6 O 0.6745(9) 0.7470(13) 0.7514(31) 0.0090 Uiso
O7 O 0.5863(13) 0.9922(9) 0.4181(31) 0.0090 Uiso
O8 O 0.5863(13) 0.5942(9) 0.4181(31) 0.0090 Uiso
O10 O 0.6435(13) 0.6302(10) 0.7590(29) 0.0150 Uiso
O12 O 0.7032(10) 0.6800(9) 0.4256(29) 0.0150 Uiso
Co10 Co 0.7103(31) 0.7041(20) 0.897(7) 0.0010 Uiso
Co8_2 Co 0.3769(31) 0.0375(48) 0.231(7) 0.0010 Uiso
O10_2 O 0.3698(10) 0.0134(16) 0.7590(29) 0.0150 Uiso
O12_2 O 0.3200(9) 0.0231(13) 0.4256(29) 0.0150 Uiso
Co10_2 Co 0.2959(20) 0.0061(37) 0.897(7) 0.0010 Uiso
C3_2 C 0.1308(9) 0.7748(13) 0.0469(34) 0.0230 Uiso
C4_2 C 0.0883(9) 0.7248(12) 0.1632(29) 0.0240 Uiso
O2_2 O 0.0365(10) 0.6898(13) 0.0923(29) 0.0150 Uiso
O3_2 O 0.1033(10) 0.7176(14) 0.3329(30) 0.0250 Uiso
C5_2 C 0.1855(6) 0.8145(13) 0.131(4) 0.0110 Uiso
H2_2 H 0.1924(11) 0.8075(25) 0.271(8) 0.0170 Uiso
C6_2 C 0.2252(13) 0.8692(16) 0.0469(34) 0.0230 Uiso
C7_2 C 0.2752(12) 0.9117(14) 0.1632(29) 0.0240 Uiso
O4_2 O 0.3102(13) 0.9635(16) 0.0923(29) 0.0150 Uiso
O5_2 O 0.2824(14) 0.8967(17) 0.3329(30) 0.0250 Uiso
Co3_2 Co 0.0436(31) 0.6728(37) 0.564(7) 0.0010 Uiso
Co4_2 Co 0.3272(37) 0.9564(42) 0.564(7) 0.0010 Uiso
C1_2 C 0.1234(10) 0.7827(14) 0.8366(33) 0.0180 Uiso
C2_2 C 0.1665(6) 0.8336(13) 0.752(5) 0.0120 Uiso
H1_2 H 0.1609(11) 0.8390(25) 0.583(9) 0.0290 Uiso
O1_2 O 0.0725(9) 0.7470(13) 0.7514(31) 0.0090 Uiso
C8_2 C 0.2173(14) 0.8766(17) 0.8366(33) 0.0180 Uiso
O6_2 O 0.2530(13) 0.9275(16) 0.7514(31) 0.0090 Uiso
O7_2 O 0.0078(9) 0.5942(16) 0.4181(31) 0.0090 Uiso
O8_2 O 0.4058(9) 0.9922(16) 0.4181(31) 0.0090 Uiso
Co6_2 Co 0.9625(20) 0.6231(42) 0.231(7) 0.0010 Uiso
O9_2 O 0.9866(9) 0.6302(16) 0.7590(29) 0.0150 Uiso
O11_2 O 0.9769(13) 0.6800(16) 0.4256(29) 0.0150 Uiso
Co9_2 Co 0.9939(37) 0.7041(48) 0.897(7) 0.0010 Uiso
C3_3 C 0.2252(13) 0.3560(10) 0.0469(34) 0.0230 Uiso
C4_3 C 0.2752(12) 0.3635(8) 0.1632(29) 0.0240 Uiso
O2_3 O 0.3102(13) 0.3467(9) 0.0923(29) 0.0150 Uiso
O3_3 O 0.2824(14) 0.3857(10) 0.3329(30) 0.0250 Uiso
C5_3 C 0.1855(13) 0.3710(12) 0.131(4) 0.0110 Uiso
H2_3 H 0.1925(25) 0.3849(22) 0.271(8) 0.0170 Uiso
C6_3 C 0.1308(16) 0.3560(10) 0.0469(34) 0.0230 Uiso
C7_3 C 0.0883(14) 0.3635(8) 0.1632(29) 0.0240 Uiso
O4_3 O 0.0365(16) 0.3467(9) 0.0923(29) 0.0150 Uiso
O5_3 O 0.1033(17) 0.3857(10) 0.3329(30) 0.0250 Uiso
Co3_3 Co 0.3272(37) 0.3708(20) 0.564(7) 0.0010 Uiso
Co4_3 Co 0.0436(42) 0.3708(20) 0.564(7) 0.0010 Uiso
Co6_3 Co 0.3769(42) 0.3395(37) 0.231(7) 0.0010 Uiso
C1_3 C 0.2173(14) 0.3407(10) 0.8366(33) 0.0180 Uiso
C2_3 C 0.1664(13) 0.3329(12) 0.752(5) 0.0120 Uiso
H1_3 H 0.1610(25) 0.3219(22) 0.583(9) 0.0290 Uiso
O1_3 O 0.2530(13) 0.3255(9) 0.7514(31) 0.0090 Uiso
C8_3 C 0.1234(17) 0.3407(10) 0.8366(33) 0.0180 Uiso
O6_3 O 0.0725(16) 0.3255(9) 0.7514(31) 0.0090 Uiso
O7_3 O 0.4058(16) 0.4137(13) 0.4181(31) 0.0090 Uiso
O8_3 O 0.0078(16) 0.4137(13) 0.4181(31) 0.0090 Uiso
O9_3 O 0.3698(16) 0.3565(13) 0.7590(29) 0.0150 Uiso
O11_3 O 0.3200(16) 0.2968(10) 0.4256(29) 0.0150 Uiso
Co9_3 Co 0.2959(48) 0.2897(31) 0.897(7) 0.0010 Uiso
Co8_3 Co 0.9625(48) 0.3395(37) 0.231(7) 0.0010 Uiso
O10_3 O 0.9866(16) 0.3565(13) 0.7590(29) 0.0150 Uiso
O12_3 O 0.9769(13) 0.2968(10) 0.4256(29) 0.0150 Uiso
Co10_3 Co 0.9939(37) 0.2897(31) 0.897(7) 0.0010 Uiso
C2_4 C 0.0004(12) 0.5002(6) 0.419(5) 0.0120 Uiso
H1_4 H 0.0114(22) 0.5058(11) 0.250(9) 0.0290 Uiso
C1_4 C 0.9926(10) 0.5433(10) 0.5033(33) 0.0180 Uiso
C3_4 C 0.9773(10) 0.5359(9) 0.7136(34) 0.0230 Uiso
C4_4 C 0.9698(8) 0.5784(9) 0.8299(29) 0.0240 Uiso
O3_4 O 0.9476(10) 0.5634(10) 0.9996(30) 0.0250 Uiso
C5_4 C 0.9623(12) 0.4812(6) 0.798(4) 0.0110 Uiso
H2_4 H 0.9484(22) 0.4743(11) 0.938(8) 0.0170 Uiso
C6_4 C 0.9773(10) 0.4415(13) 0.7136(34) 0.0230 Uiso
C7_4 C 0.9698(8) 0.3915(12) 0.8299(29) 0.0240 Uiso
O5_4 O 0.9476(10) 0.3843(14) 0.9996(30) 0.0250 Uiso
C8_4 C 0.9926(10) 0.4494(14) 0.5033(33) 0.0180 Uiso
O7_4 O 0.9197(13) 0.6588(9) 0.0847(31) 0.0090 Uiso
O8_4 O 0.9197(13) 0.2608(9) 0.0847(31) 0.0090 Uiso
C1_5 C 0.4567(10) 0.4494(14) 0.5033(33) 0.0180 Uiso
C2_5 C 0.4998(6) 0.5003(13) 0.419(5) 0.0120 Uiso
C3_5 C 0.4641(9) 0.4415(13) 0.7136(34) 0.0230 Uiso
C4_5 C 0.4216(9) 0.3915(12) 0.8299(29) 0.0240 Uiso
H1_5 H 0.4942(11) 0.5057(25) 0.250(9) 0.0290 Uiso
O3_5 O 0.4366(10) 0.3843(14) 0.9996(30) 0.0250 Uiso
C5_5 C 0.5188(6) 0.4812(13) 0.798(4) 0.0110 Uiso
H2_5 H 0.5257(11) 0.4742(25) 0.938(8) 0.0170 Uiso
C6_5 C 0.5585(13) 0.5359(16) 0.7136(34) 0.0230 Uiso
C7_5 C 0.6085(12) 0.5784(14) 0.8299(29) 0.0240 Uiso
O5_5 O 0.6157(14) 0.5634(17) 0.9996(30) 0.0250 Uiso
C8_5 C 0.5506(14) 0.5433(17) 0.5033(33) 0.0180 Uiso
O7_5 O 0.3412(9) 0.2608(16) 0.0847(31) 0.0090 Uiso
O8_5 O 0.7392(9) 0.6588(16) 0.0847(31) 0.0090 Uiso
C1_6 C 0.5506(14) 0.0074(10) 0.5033(33) 0.0180 Uiso
C3_6 C 0.5585(13) 0.0227(10) 0.7136(34) 0.0230 Uiso
C4_6 C 0.6085(12) 0.0302(8) 0.8299(29) 0.0240 Uiso
O3_6 O 0.6157(14) 0.0524(10) 0.9996(30) 0.0250 Uiso
C5_6 C 0.5188(13) 0.0377(12) 0.798(4) 0.0110 Uiso
H2_6 H 0.5258(25) 0.0516(22) 0.938(8) 0.0170 Uiso
C6_6 C 0.4641(16) 0.0227(10) 0.7136(34) 0.0230 Uiso
C7_6 C 0.4216(14) 0.0302(8) 0.8299(29) 0.0240 Uiso
O5_6 O 0.4366(17) 0.0524(10) 0.9996(30) 0.0250 Uiso
C8_6 C 0.4567(17) 0.0074(10) 0.5033(33) 0.0180 Uiso
O7_6 O 0.7392(16) 0.0803(13) 0.0847(31) 0.0090 Uiso
O8_6 O 0.3412(16) 0.0803(13) 0.0847(31) 0.0090 Uiso
C2_6 C 0.4997(13) 0.9996(12) 0.419(5) 0.0120 Uiso
H1_6 H 0.4943(25) 0.9886(22) 0.250(9) 0.0290 Uiso
C1_7 C 0.3260(10) 0.2099(10) 0.1699(33) 0.0180 Uiso
C2_7 C 0.3338(12) 0.1668(6) 0.085(5) 0.0120 Uiso
C3_7 C 0.3107(10) 0.2025(9) 0.3802(34) 0.0230 Uiso
C4_7 C 0.3032(8) 0.2450(9) 0.4965(29) 0.0240 Uiso
O3_7 O 0.2810(10) 0.2300(10) 0.6662(30) 0.0250 Uiso
C5_7 C 0.2957(12) 0.1478(6) 0.464(4) 0.0110 Uiso
H2_7 H 0.2818(22) 0.1409(11) 0.604(8) 0.0170 Uiso
C6_7 C 0.3107(10) 0.1081(13) 0.3802(34) 0.0230 Uiso
C7_7 C 0.3032(8) 0.0581(12) 0.4965(29) 0.0240 Uiso
O5_7 O 0.2810(10) 0.0509(14) 0.6662(30) 0.0250 Uiso
C8_7 C 0.3260(10) 0.1160(14) 0.1699(33) 0.0180 Uiso
H1_7 H 0.3448(22) 0.1724(11) 0.916(9) 0.0290 Uiso
C1_8 C 0.7901(10) 0.1160(14) 0.1699(33) 0.0180 Uiso
C2_8 C 0.8332(6) 0.1669(13) 0.085(5) 0.0120 Uiso
C3_8 C 0.7975(9) 0.1081(13) 0.3802(34) 0.0230 Uiso
C4_8 C 0.7550(9) 0.0581(12) 0.4965(29) 0.0240 Uiso
O3_8 O 0.7700(10) 0.0509(14) 0.6662(30) 0.0250 Uiso
C5_8 C 0.8522(6) 0.1478(13) 0.464(4) 0.0110 Uiso
H2_8 H 0.8591(11) 0.1408(25) 0.604(8) 0.0170 Uiso
C6_8 C 0.8919(13) 0.2025(16) 0.3802(34) 0.0230 Uiso
C7_8 C 0.9419(12) 0.2450(14) 0.4965(29) 0.0240 Uiso
O5_8 O 0.9491(14) 0.2300(17) 0.6662(30) 0.0250 Uiso
C8_8 C 0.8840(14) 0.2099(17) 0.1699(33) 0.0180 Uiso
H1_8 H 0.8276(11) 0.1723(25) 0.916(9) 0.0290 Uiso
C1_9 C 0.8840(14) 0.6740(10) 0.1699(33) 0.0180 Uiso
C2_9 C 0.8331(13) 0.6662(12) 0.085(5) 0.0120 Uiso
C3_9 C 0.8919(13) 0.6893(10) 0.3802(34) 0.0230 Uiso
C4_9 C 0.9419(12) 0.6968(8) 0.4965(29) 0.0240 Uiso
O3_9 O 0.9491(14) 0.7190(10) 0.6662(30) 0.0250 Uiso
C5_9 C 0.8522(13) 0.7043(12) 0.464(4) 0.0110 Uiso
H2_9 H 0.8592(25) 0.7182(22) 0.604(8) 0.0170 Uiso
C6_9 C 0.7975(16) 0.6893(10) 0.3802(34) 0.0230 Uiso
C7_9 C 0.7550(14) 0.6968(8) 0.4965(29) 0.0240 Uiso
O5_9 O 0.7700(17) 0.7190(10) 0.6662(30) 0.0250 Uiso
C8_9 C 0.7901(17) 0.6740(10) 0.1699(33) 0.0180 Uiso
H1_9 H 0.8277(25) 0.6552(22) 0.916(9) 0.0290 Uiso
loop_
_geom_bond_atom_site_label_1
_geom_bond_atom_site_label_2
_geom_bond_site_symmetry_1
_geom_bond_site_symmetry_2
O9 Co9 1_555 1_555
O11 Co6 1_555 1_555
C4 C3 1_555 1_555
O2 C4 1_555 1_555
O3 C4 1_555 1_555
C5 C3 1_555 1_555
H2 C5 1_555 1_555
C6 C5 1_555 1_555
C7 C6 1_555 1_555
O4 C7 1_555 1_555
O5 C7 1_555 1_555
Co3 O3 1_555 1_555
Co4 O5 1_555 1_555
Co8 O4 1_555 1_555
Co4 Co8 1_555 1_555
C1 C2 1_555 1_555
C2 H1 1_555 1_555
O1 C1 1_555 1_555
Co3 O1 1_555 1_555
C8 C2 1_555 1_555
O6 C8 1_555 1_555
Co4 O6 1_555 1_555
O7 Co3 1_555 1_555
O8 Co4 1_555 1_555
O10 Co4 1_555 1_555
O12 Co4 1_555 1_555
O6 Co10 1_555 1_555
Co4 Co10 1_555 1_555
O8 Co8 1_555 1_555
O10 Co10 1_555 1_555
O12 Co8 1_555 1_555
O10_2 Co10_2 1_555 1_555
O12_2 Co8_2 1_555 1_555
C4_2 C3_2 1_555 1_555
O2_2 C4_2 1_555 1_555
O3_2 C4_2 1_555 1_555
C5_2 C3_2 1_555 1_555
H2_2 C5_2 1_555 1_555
C6_2 C5_2 1_555 1_555
C7_2 C6_2 1_555 1_555
O4_2 C7_2 1_555 1_555
O5_2 C7_2 1_555 1_555
Co3_2 O3_2 1_555 1_555
Co4_2 O5_2 1_555 1_555
C1_2 C2_2 1_555 1_555
C2_2 H1_2 1_555 1_555
O1_2 C1_2 1_555 1_555
Co3_2 O1_2 1_555 1_555
C8_2 C2_2 1_555 1_555
O6_2 C8_2 1_555 1_555
Co4_2 O6_2 1_555 1_555
O7_2 Co3_2 1_555 1_555
O8_2 Co4_2 1_555 1_555
O9_2 Co9_2 1_555 1_555
O11_2 Co6_2 1_555 1_555
C4_3 C3_3 1_555 1_555
O2_3 C4_3 1_555 1_555
O3_3 C4_3 1_555 1_555
C5_3 C3_3 1_555 1_555
H2_3 C5_3 1_555 1_555
C6_3 C5_3 1_555 1_555
C7_3 C6_3 1_555 1_555
O4_3 C7_3 1_555 1_555
O5_3 C7_3 1_555 1_555
Co3_3 O3_3 1_555 1_555
Co4_3 O5_3 1_555 1_555
Co6_3 O2_3 1_555 1_555
Co3_3 Co6_3 1_555 1_555
C1_3 C2_3 1_555 1_555
C2_3 H1_3 1_555 1_555
O1_3 C1_3 1_555 1_555
Co3_3 O1_3 1_555 1_555
C8_3 C2_3 1_555 1_555
O6_3 C8_3 1_555 1_555
Co4_3 O6_3 1_555 1_555
O7_3 Co3_3 1_555 1_555
O8_3 Co4_3 1_555 1_555
O9_3 Co3_3 1_555 1_555
O11_3 Co3_3 1_555 1_555
Co9_3 O1_3 1_555 1_555
Co3_3 Co9_3 1_555 1_555
O7_3 Co6_3 1_555 1_555
O9_3 Co9_3 1_555 1_555
O11_3 Co6_3 1_555 1_555
O10_3 Co10_3 1_555 1_555
O12_3 Co8_3 1_555 1_555
C2_4 H1_4 1_555 1_555
C3_4 C1_4 1_555 1_555
C4_4 C3_4 1_555 1_555
O9_2 C4_4 1_555 1_555
O3_4 C4_4 1_555 1_555
C5_4 C3_4 1_555 1_555
H2_4 C5_4 1_555 1_555
C6_4 C5_4 1_555 1_555
C7_4 C6_4 1_555 1_555
O10_3 C7_4 1_555 1_555
O5_4 C7_4 1_555 1_555
O7_4 Co6_2 1_555 1_555
O8_4 Co8_3 1_555 1_555
C6_4 C8_4 1_555 1_555
C1_5 C2_5 1_555 1_555
C2_5 H1_5 1_555 1_555
C3_5 C1_5 1_555 1_555
C4_5 C3_5 1_555 1_555
O7_3 C1_5 1_555 1_555
O9_3 C4_5 1_555 1_555
O3_5 C4_5 1_555 1_555
C5_5 C3_5 1_555 1_555
H2_5 C5_5 1_555 1_555
C6_5 C5_5 1_555 1_555
C7_5 C6_5 1_555 1_555
O10 C7_5 1_555 1_555
O5_5 C7_5 1_555 1_555
C8_5 C2_5 1_555 1_555
O8 C8_5 1_555 1_555
O7_5 Co6_3 1_555 1_555
O8_5 Co8 1_555 1_555
C6_5 C8_5 1_555 1_555
C3_6 C1_6 1_555 1_555
C4_6 C3_6 1_555 1_555
O9 C4_6 1_555 1_555
O3_6 C4_6 1_555 1_555
C5_6 C3_6 1_555 1_555
H2_6 C5_6 1_555 1_555
C6_6 C5_6 1_555 1_555
C7_6 C6_6 1_555 1_555
O10_2 C7_6 1_555 1_555
O5_6 C7_6 1_555 1_555
O7_6 Co6 1_555 1_555
O8_6 Co8_2 1_555 1_555
C6_6 C8_6 1_555 1_555
C2_6 H1_6 1_555 1_555
C1_7 C2_7 1_555 1_555
C3_7 C1_7 1_555 1_555
C4_7 C3_7 1_555 1_555
O7_5 C1_7 1_555 1_555
O11_3 C4_7 1_555 1_555
O3_7 C4_7 1_555 1_555
C5_7 C3_7 1_555 1_555
H2_7 C5_7 1_555 1_555
C6_7 C5_7 1_555 1_555
C7_7 C6_7 1_555 1_555
O12_2 C7_7 1_555 1_555
O5_7 C7_7 1_555 1_555
C8_7 C2_7 1_555 1_555
O8_6 C8_7 1_555 1_555
Co9_3 O3_7 1_555 1_555
Co10_2 O5_7 1_555 1_555
C6_7 C8_7 1_555 1_555
C1_8 C2_8 1_555 1_555
C3_8 C1_8 1_555 1_555
C4_8 C3_8 1_555 1_555
O7_6 C1_8 1_555 1_555
O11 C4_8 1_555 1_555
O3_8 C4_8 1_555 1_555
C5_8 C3_8 1_555 1_555
H2_8 C5_8 1_555 1_555
C6_8 C5_8 1_555 1_555
C7_8 C6_8 1_555 1_555
O12_3 C7_8 1_555 1_555
O5_8 C7_8 1_555 1_555
C8_8 C2_8 1_555 1_555
O8_4 C8_8 1_555 1_555
Co9 O3_8 1_555 1_555
Co10_3 O5_8 1_555 1_555
C6_8 C8_8 1_555 1_555
C1_9 C2_9 1_555 1_555
C3_9 C1_9 1_555 1_555
C4_9 C3_9 1_555 1_555
O7_4 C1_9 1_555 1_555
O11_2 C4_9 1_555 1_555
O3_9 C4_9 1_555 1_555
C5_9 C3_9 1_555 1_555
H2_9 C5_9 1_555 1_555
C6_9 C5_9 1_555 1_555
C7_9 C6_9 1_555 1_555
O12 C7_9 1_555 1_555
O5_9 C7_9 1_555 1_555
C8_9 C2_9 1_555 1_555
O8_5 C8_9 1_555 1_555
Co9_2 O3_9 1_555 1_555
Co10 O5_9 1_555 1_555
C6_9 C8_9 1_555 1_555

#END
