
###############################################################################
#
# This file contains modified crystal structure data generated from the
# MOF subset of the Cambridge Structural Database (CSD) v543 
# hosted by the Cambridge Crystallographic Data Centre (CCDC).
#
# This work is licensed under the Creative Commons
# Attribution-NonCommercial-ShareAlike 4.0 International License.
# To view a copy of this license, visit
# http://creativecommons.org/licenses/by-nc-sa/4.0/
# or send a letter to
# Creative Commons, PO Box 1866, Mountain View, CA 94042, USA.
#
# CIF created using the CSD Python API on 29 September 2022
# The structure has been converted into the P1 space group
# The structure has a 3D framework
# The original CSD entry KOSKIO02 is in the rhombohedral crystal system
# The framework has been calculated to contain at least 10.0% void space
# The void calculation uses a probe of radius 1.32A, grid spacing 0.4
#
###############################################################################

data_KOSKIO02
_chemical_formula_moiety         '(C72 H18 Co14 O50)n'
_symmetry_cell_setting           triclinic
_symmetry_space_group_name_H-M   'P 1'
_symmetry_Int_Tables_number      1
_space_group_name_Hall           'P 1'
loop_
_symmetry_equiv_pos_site_id
_symmetry_equiv_pos_as_xyz
1 x,y,z
_cell_length_a                   25.8825(9)
_cell_length_b                   25.8825
_cell_length_c                   6.7838(4)
_cell_angle_alpha                90
_cell_angle_beta                 90
_cell_angle_gamma                120
_cell_volume                     3935.65
loop_
_atom_site_label
_atom_site_type_symbol
_atom_site_fract_x
_atom_site_fract_y
_atom_site_fract_z
_atom_site_U_iso_or_equiv
_atom_site_thermal_displace_type
O9 O 0.6422(7) 0.0168(5) 0.0048(16) 0.0144 Uiso
Co5 Co 0.6635(22) 0.0388(12) 0.458(4) 0.0060 Uiso
Co7 Co 0.7086(19) 0.0031(22) 0.124(4) 0.0060 Uiso
O11 O 0.7079(5) 0.0244(7) 0.6714(16) 0.0144 Uiso
C1 C 0.6575(5) 0.8751(5) 0.0920(12) 0.0570 Uiso
C3 C 0.6412(5) 0.8666(4) 0.2959(13) 0.0200 Uiso
C4 C 0.6316(5) 0.9085(5) 0.4077(13) 0.0277 Uiso
O2 O 0.6499(5) 0.9588(5) 0.3381(16) 0.0144 Uiso
O3 O 0.6095(5) 0.8945(6) 0.5981(16) 0.0144 Uiso
C5 C 0.6289(8) 0.8145(4) 0.3868(18) 0.0290 Uiso
H2 H 0.6175(10) 0.8087(5) 0.5396(22) 0.0180 Uiso
C6 C 0.6575(5) 0.7824(7) 0.0920(12) 0.0570 Uiso
C7 C 0.6412(5) 0.7746(6) 0.2959(13) 0.0200 Uiso
C8 C 0.6316(5) 0.7231(7) 0.4077(13) 0.0277 Uiso
O5 O 0.6499(5) 0.6911(7) 0.3381(16) 0.0144 Uiso
O6 O 0.6095(5) 0.7150(8) 0.5981(16) 0.0144 Uiso
O10 O 0.6422(7) 0.6255(5) 0.0048(16) 0.0144 Uiso
Co3 Co 0.6279(12) 0.9581(19) 0.791(4) 0.0060 Uiso
Co4 Co 0.6279(12) 0.6698(22) 0.791(4) 0.0060 Uiso
Co6 Co 0.6635(22) 0.6248(19) 0.458(4) 0.0060 Uiso
Co8 Co 0.7086(19) 0.7054(12) 0.124(4) 0.0060 Uiso
C2 C 0.6665(7) 0.8333(4) 0.9952(17) 0.0210 Uiso
H1 H 0.6728(10) 0.8364(5) 0.8399(24) 0.0310 Uiso
O1 O 0.6676(5) 0.9257(5) 0.9904(16) 0.0054 Uiso
O4 O 0.6676(5) 0.7419(7) 0.9904(16) 0.0054 Uiso
O7 O 0.5914(7) 0.9991(5) 0.6571(16) 0.0054 Uiso
O8 O 0.5914(7) 0.5924(5) 0.6571(16) 0.0054 Uiso
O12 O 0.7079(5) 0.6834(5) 0.6714(16) 0.0144 Uiso
O10_2 O 0.3745(5) 0.0168(9) 0.0048(16) 0.0144 Uiso
Co6_2 Co 0.3752(19) 0.0388(29) 0.458(4) 0.0060 Uiso
Co8_2 Co 0.2946(12) 0.0031(22) 0.124(4) 0.0060 Uiso
O12_2 O 0.3166(5) 0.0244(7) 0.6714(16) 0.0144 Uiso
C1_2 C 0.1249(5) 0.7824(7) 0.0920(12) 0.0570 Uiso
C3_2 C 0.1334(4) 0.7746(6) 0.2959(13) 0.0200 Uiso
C4_2 C 0.0915(5) 0.7231(7) 0.4077(13) 0.0277 Uiso
O2_2 O 0.0412(5) 0.6911(7) 0.3381(16) 0.0144 Uiso
O3_2 O 0.1055(6) 0.7150(8) 0.5981(16) 0.0144 Uiso
C5_2 C 0.1855(4) 0.8144(9) 0.3868(18) 0.0290 Uiso
H2_2 H 0.1913(5) 0.8088(11) 0.5396(22) 0.0180 Uiso
C6_2 C 0.2176(7) 0.8751(9) 0.0920(12) 0.0570 Uiso
C7_2 C 0.2254(6) 0.8666(8) 0.2959(13) 0.0200 Uiso
C8_2 C 0.2769(7) 0.9085(9) 0.4077(13) 0.0277 Uiso
O5_2 O 0.3089(7) 0.9588(9) 0.3381(16) 0.0144 Uiso
O6_2 O 0.2850(8) 0.8945(9) 0.5981(16) 0.0144 Uiso
Co3_2 Co 0.0419(19) 0.6698(22) 0.791(4) 0.0060 Uiso
Co4_2 Co 0.3302(22) 0.9581(25) 0.791(4) 0.0060 Uiso
C2_2 C 0.1667(4) 0.8332(8) 0.9952(17) 0.0210 Uiso
H1_2 H 0.1636(5) 0.8364(11) 0.8399(24) 0.0310 Uiso
O1_2 O 0.0743(5) 0.7419(7) 0.9904(16) 0.0054 Uiso
O4_2 O 0.2581(7) 0.9257(9) 0.9904(16) 0.0054 Uiso
O7_2 O 0.0009(5) 0.5924(9) 0.6571(16) 0.0054 Uiso
O8_2 O 0.4076(5) 0.9991(9) 0.6571(16) 0.0054 Uiso
O9_2 O 0.9832(5) 0.6255(9) 0.0048(16) 0.0144 Uiso
Co5_2 Co 0.9612(12) 0.6248(25) 0.458(4) 0.0060 Uiso
Co7_2 Co 0.9969(22) 0.7054(29) 0.124(4) 0.0060 Uiso
O11_2 O 0.9756(7) 0.6834(9) 0.6714(16) 0.0144 Uiso
C1_3 C 0.2176(7) 0.3425(5) 0.0920(12) 0.0570 Uiso
C3_3 C 0.2254(6) 0.3588(5) 0.2959(13) 0.0200 Uiso
C4_3 C 0.2769(7) 0.3684(5) 0.4077(13) 0.0277 Uiso
O2_3 O 0.3089(7) 0.3501(5) 0.3381(16) 0.0144 Uiso
O3_3 O 0.2850(8) 0.3905(5) 0.5981(16) 0.0144 Uiso
C5_3 C 0.1856(9) 0.3711(8) 0.3868(18) 0.0290 Uiso
H2_3 H 0.1912(11) 0.3825(10) 0.5396(22) 0.0180 Uiso
C6_3 C 0.1249(9) 0.3425(5) 0.0920(12) 0.0570 Uiso
C7_3 C 0.1334(8) 0.3588(5) 0.2959(13) 0.0200 Uiso
C8_3 C 0.0915(9) 0.3684(5) 0.4077(13) 0.0277 Uiso
O5_3 O 0.0412(9) 0.3501(5) 0.3381(16) 0.0144 Uiso
O6_3 O 0.1055(9) 0.3905(5) 0.5981(16) 0.0144 Uiso
O9_3 O 0.3745(9) 0.3578(7) 0.0048(16) 0.0144 Uiso
Co3_3 Co 0.3302(22) 0.3721(12) 0.791(4) 0.0060 Uiso
Co4_3 Co 0.0419(25) 0.3721(12) 0.791(4) 0.0060 Uiso
Co5_3 Co 0.3752(25) 0.3365(22) 0.458(4) 0.0060 Uiso
Co7_3 Co 0.2946(29) 0.2914(19) 0.124(4) 0.0060 Uiso
C2_3 C 0.1668(8) 0.3335(7) 0.9952(17) 0.0210 Uiso
H1_3 H 0.1636(11) 0.3272(10) 0.8399(24) 0.0310 Uiso
O1_3 O 0.2581(7) 0.3324(5) 0.9904(16) 0.0054 Uiso
O4_3 O 0.0743(9) 0.3324(5) 0.9904(16) 0.0054 Uiso
O7_3 O 0.4076(9) 0.4086(7) 0.6571(16) 0.0054 Uiso
O8_3 O 0.0009(9) 0.4086(7) 0.6571(16) 0.0054 Uiso
O11_3 O 0.3166(9) 0.2921(5) 0.6714(16) 0.0144 Uiso
O10_3 O 0.9832(9) 0.3578(7) 0.0048(16) 0.0144 Uiso
Co6_3 Co 0.9612(29) 0.3365(22) 0.458(4) 0.0060 Uiso
Co8_3 Co 0.9969(22) 0.2914(19) 0.124(4) 0.0060 Uiso
O12_3 O 0.9756(7) 0.2921(5) 0.6714(16) 0.0144 Uiso
H1_4 H 0.0061(10) 0.5031(5) 0.5066(24) 0.0310 Uiso
C4_4 C 0.9649(5) 0.5752(5) 0.0744(13) 0.0277 Uiso
O3_4 O 0.9428(5) 0.5612(6) 0.2648(16) 0.0144 Uiso
C5_4 C 0.9622(8) 0.4812(4) 0.0535(18) 0.0290 Uiso
H2_4 H 0.9508(10) 0.4754(5) 0.2063(22) 0.0180 Uiso
C8_4 C 0.9649(5) 0.3898(7) 0.0744(13) 0.0277 Uiso
O6_4 O 0.9428(5) 0.3817(8) 0.2648(16) 0.0144 Uiso
C1_4 C 0.9908(5) 0.5418(5) 0.7587(12) 0.0570 Uiso
C2_4 C 0.9998(7) 0.5000(4) 0.6619(17) 0.0210 Uiso
C3_4 C 0.9745(5) 0.5333(4) 0.9626(13) 0.0200 Uiso
C6_4 C 0.9908(5) 0.4491(7) 0.7587(12) 0.0570 Uiso
C7_4 C 0.9745(5) 0.4413(6) 0.9626(13) 0.0200 Uiso
O7_4 O 0.9248(7) 0.6657(5) 0.3237(16) 0.0054 Uiso
O8_4 O 0.9248(7) 0.2590(5) 0.3237(16) 0.0054 Uiso
C4_5 C 0.4248(5) 0.3898(7) 0.0744(13) 0.0277 Uiso
O3_5 O 0.4388(6) 0.3817(8) 0.2648(16) 0.0144 Uiso
C5_5 C 0.5188(4) 0.4811(9) 0.0535(18) 0.0290 Uiso
H2_5 H 0.5246(5) 0.4755(11) 0.2063(22) 0.0180 Uiso
C8_5 C 0.6102(7) 0.5752(9) 0.0744(13) 0.0277 Uiso
O6_5 O 0.6183(8) 0.5612(9) 0.2648(16) 0.0144 Uiso
C1_5 C 0.4582(5) 0.4491(7) 0.7587(12) 0.0570 Uiso
C2_5 C 0.5000(4) 0.4999(8) 0.6619(17) 0.0210 Uiso
C3_5 C 0.4667(4) 0.4413(6) 0.9626(13) 0.0200 Uiso
H1_5 H 0.4969(5) 0.5031(11) 0.5066(24) 0.0310 Uiso
C6_5 C 0.5509(7) 0.5418(9) 0.7587(12) 0.0570 Uiso
C7_5 C 0.5587(6) 0.5333(8) 0.9626(13) 0.0200 Uiso
O7_5 O 0.3343(5) 0.2590(9) 0.3237(16) 0.0054 Uiso
O8_5 O 0.7410(5) 0.6657(9) 0.3237(16) 0.0054 Uiso
C4_6 C 0.6102(7) 0.0351(5) 0.0744(13) 0.0277 Uiso
O3_6 O 0.6183(8) 0.0572(5) 0.2648(16) 0.0144 Uiso
C5_6 C 0.5189(9) 0.0378(8) 0.0535(18) 0.0290 Uiso
H2_6 H 0.5245(11) 0.0492(10) 0.2063(22) 0.0180 Uiso
C8_6 C 0.4248(9) 0.0351(5) 0.0744(13) 0.0277 Uiso
O6_6 O 0.4388(9) 0.0572(5) 0.2648(16) 0.0144 Uiso
C1_6 C 0.5509(7) 0.0092(5) 0.7587(12) 0.0570 Uiso
C2_6 C 0.5001(8) 0.0002(7) 0.6619(17) 0.0210 Uiso
C3_6 C 0.5587(6) 0.0255(5) 0.9626(13) 0.0200 Uiso
C6_6 C 0.4582(9) 0.0092(5) 0.7587(12) 0.0570 Uiso
C7_6 C 0.4667(8) 0.0255(5) 0.9626(13) 0.0200 Uiso
O7_6 O 0.7410(9) 0.0752(7) 0.3237(16) 0.0054 Uiso
O8_6 O 0.3343(9) 0.0752(7) 0.3237(16) 0.0054 Uiso
H1_6 H 0.4969(11) 0.9939(10) 0.5066(24) 0.0310 Uiso
C1_7 C 0.3242(5) 0.2084(5) 0.4253(12) 0.0570 Uiso
C2_7 C 0.3332(7) 0.1666(4) 0.3285(17) 0.0210 Uiso
C3_7 C 0.3079(5) 0.1999(4) 0.6292(13) 0.0200 Uiso
C4_7 C 0.2983(5) 0.2418(5) 0.7410(13) 0.0277 Uiso
H1_7 H 0.3395(10) 0.1697(5) 0.1732(24) 0.0310 Uiso
O3_7 O 0.2762(5) 0.2278(6) 0.9314(16) 0.0144 Uiso
C5_7 C 0.2956(8) 0.1478(4) 0.7201(18) 0.0290 Uiso
H2_7 H 0.2842(10) 0.1420(5) 0.8729(22) 0.0180 Uiso
C6_7 C 0.3242(5) 0.1157(7) 0.4253(12) 0.0570 Uiso
C7_7 C 0.3079(5) 0.1079(6) 0.6292(13) 0.0200 Uiso
C8_7 C 0.2983(5) 0.0564(7) 0.7410(13) 0.0277 Uiso
O6_7 O 0.2762(5) 0.0483(8) 0.9314(16) 0.0144 Uiso
C1_8 C 0.7916(5) 0.1157(7) 0.4253(12) 0.0570 Uiso
C2_8 C 0.8334(4) 0.1665(8) 0.3285(17) 0.0210 Uiso
C3_8 C 0.8001(4) 0.1079(6) 0.6292(13) 0.0200 Uiso
C4_8 C 0.7582(5) 0.0564(7) 0.7410(13) 0.0277 Uiso
H1_8 H 0.8303(5) 0.1697(11) 0.1732(24) 0.0310 Uiso
O3_8 O 0.7722(6) 0.0483(8) 0.9314(16) 0.0144 Uiso
C5_8 C 0.8522(4) 0.1477(9) 0.7201(18) 0.0290 Uiso
H2_8 H 0.8580(5) 0.1421(11) 0.8729(22) 0.0180 Uiso
C6_8 C 0.8843(7) 0.2084(9) 0.4253(12) 0.0570 Uiso
C7_8 C 0.8921(6) 0.1999(8) 0.6292(13) 0.0200 Uiso
C8_8 C 0.9436(7) 0.2418(9) 0.7410(13) 0.0277 Uiso
O6_8 O 0.9517(8) 0.2278(9) 0.9314(16) 0.0144 Uiso
C1_9 C 0.8843(7) 0.6758(5) 0.4253(12) 0.0570 Uiso
C2_9 C 0.8335(8) 0.6668(7) 0.3285(17) 0.0210 Uiso
C3_9 C 0.8921(6) 0.6921(5) 0.6292(13) 0.0200 Uiso
C4_9 C 0.9436(7) 0.7017(5) 0.7410(13) 0.0277 Uiso
H1_9 H 0.8303(11) 0.6605(10) 0.1732(24) 0.0310 Uiso
O3_9 O 0.9517(8) 0.7238(5) 0.9314(16) 0.0144 Uiso
C5_9 C 0.8523(9) 0.7044(8) 0.7201(18) 0.0290 Uiso
H2_9 H 0.8579(11) 0.7158(10) 0.8729(22) 0.0180 Uiso
C6_9 C 0.7916(9) 0.6758(5) 0.4253(12) 0.0570 Uiso
C7_9 C 0.8001(8) 0.6921(5) 0.6292(13) 0.0200 Uiso
C8_9 C 0.7582(9) 0.7017(5) 0.7410(13) 0.0277 Uiso
O6_9 O 0.7722(9) 0.7238(5) 0.9314(16) 0.0144 Uiso
loop_
_geom_bond_atom_site_label_1
_geom_bond_atom_site_label_2
_geom_bond_site_symmetry_1
_geom_bond_site_symmetry_2
O9 Co7 1_555 1_555
C3 C1 1_555 1_555
C4 C3 1_555 1_555
O2 C4 1_555 1_555
O3 C4 1_555 1_555
C5 C3 1_555 1_555
H2 C5 1_555 1_555
C7 C5 1_555 1_555
C8 C7 1_555 1_555
O5 C8 1_555 1_555
O6 C8 1_555 1_555
Co3 O3 1_555 1_555
Co4 O6 1_555 1_555
Co6 O5 1_555 1_555
C6 C7 1_555 1_555
O5 Co8 1_555 1_555
O10 Co8 1_555 1_555
C2 H1 1_555 1_555
Co3 O1 1_555 1_555
Co4 O4 1_555 1_555
O7 Co3 1_555 1_555
O8 Co4 1_555 1_555
O12 Co4 1_555 1_555
O10_2 Co8_2 1_555 1_555
C3_2 C1_2 1_555 1_555
C4_2 C3_2 1_555 1_555
O2_2 C4_2 1_555 1_555
O3_2 C4_2 1_555 1_555
C5_2 C3_2 1_555 1_555
H2_2 C5_2 1_555 1_555
C7_2 C5_2 1_555 1_555
C8_2 C7_2 1_555 1_555
O5_2 C8_2 1_555 1_555
O6_2 C8_2 1_555 1_555
Co3_2 O3_2 1_555 1_555
Co4_2 O6_2 1_555 1_555
C6_2 C7_2 1_555 1_555
C2_2 H1_2 1_555 1_555
Co3_2 O1_2 1_555 1_555
Co4_2 O4_2 1_555 1_555
O7_2 Co3_2 1_555 1_555
O8_2 Co4_2 1_555 1_555
O9_2 Co7_2 1_555 1_555
C3_3 C1_3 1_555 1_555
C4_3 C3_3 1_555 1_555
O2_3 C4_3 1_555 1_555
O3_3 C4_3 1_555 1_555
C5_3 C3_3 1_555 1_555
H2_3 C5_3 1_555 1_555
C7_3 C5_3 1_555 1_555
C8_3 C7_3 1_555 1_555
O5_3 C8_3 1_555 1_555
O6_3 C8_3 1_555 1_555
Co3_3 O3_3 1_555 1_555
Co4_3 O6_3 1_555 1_555
Co5_3 O2_3 1_555 1_555
O2_3 Co7_3 1_555 1_555
C6_3 C7_3 1_555 1_555
O9_3 Co7_3 1_555 1_555
C2_3 H1_3 1_555 1_555
Co3_3 O1_3 1_555 1_555
Co4_3 O4_3 1_555 1_555
O7_3 Co3_3 1_555 1_555
O8_3 Co4_3 1_555 1_555
O11_3 Co3_3 1_555 1_555
O10_3 Co8_3 1_555 1_555
O9_2 C4_4 1_555 1_555
O3_4 C4_4 1_555 1_555
H2_4 C5_4 1_555 1_555
O10_3 C8_4 1_555 1_555
O6_4 C8_4 1_555 1_555
Co5_2 O3_4 1_555 1_555
Co6_3 O6_4 1_555 1_555
C1_4 C2_4 1_555 1_555
C3_4 C1_4 1_555 1_555
C6_4 C2_4 1_555 1_555
O7_4 Co5_2 1_555 1_555
O8_4 Co6_3 1_555 1_555
O11_2 Co5_2 1_555 1_555
O12_3 Co6_3 1_555 1_555
C6_4 C7_4 1_555 1_555
O9_3 C4_5 1_555 1_555
O3_5 C4_5 1_555 1_555
H2_5 C5_5 1_555 1_555
O10 C8_5 1_555 1_555
O6_5 C8_5 1_555 1_555
Co5_3 O3_5 1_555 1_555
Co6 O6_5 1_555 1_555
C1_5 C2_5 1_555 1_555
C2_5 H1_5 1_555 1_555
C3_5 C1_5 1_555 1_555
O7_3 C1_5 1_555 1_555
Co5_3 O7_3 1_555 1_555
C6_5 C2_5 1_555 1_555
O8 C6_5 1_555 1_555
Co6 O8 1_555 1_555
O7_5 Co5_3 1_555 1_555
O8_5 Co6 1_555 1_555
O11_3 Co5_3 1_555 1_555
O12 Co6 1_555 1_555
C6_5 C7_5 1_555 1_555
O9 C4_6 1_555 1_555
O3_6 C4_6 1_555 1_555
H2_6 C5_6 1_555 1_555
O10_2 C8_6 1_555 1_555
O6_6 C8_6 1_555 1_555
Co5 O3_6 1_555 1_555
Co6_2 O6_6 1_555 1_555
C1_6 C2_6 1_555 1_555
C3_6 C1_6 1_555 1_555
C6_6 C2_6 1_555 1_555
O7_6 Co5 1_555 1_555
O8_6 Co6_2 1_555 1_555
O11 Co5 1_555 1_555
O12_2 Co6_2 1_555 1_555
C6_6 C7_6 1_555 1_555
C1_7 C2_7 1_555 1_555
C2_7 H1_7 1_555 1_555
C3_7 C1_7 1_555 1_555
C4_7 C3_7 1_555 1_555
O7_5 C1_7 1_555 1_555
O11_3 C4_7 1_555 1_555
O3_7 C4_7 1_555 1_555
C5_7 C3_7 1_555 1_555
H2_7 C5_7 1_555 1_555
Co7_3 O7_5 1_555 1_555
C6_7 C2_7 1_555 1_555
C7_7 C5_7 1_555 1_555
C8_7 C7_7 1_555 1_555
O8_6 C6_7 1_555 1_555
O12_2 C8_7 1_555 1_555
O6_7 C8_7 1_555 1_555
Co8_2 O8_6 1_555 1_555
C6_7 C7_7 1_555 1_555
C1_8 C2_8 1_555 1_555
C2_8 H1_8 1_555 1_555
C3_8 C1_8 1_555 1_555
C4_8 C3_8 1_555 1_555
O7_6 C1_8 1_555 1_555
O11 C4_8 1_555 1_555
O3_8 C4_8 1_555 1_555
C5_8 C3_8 1_555 1_555
H2_8 C5_8 1_555 1_555
Co7 O7_6 1_555 1_555
C6_8 C2_8 1_555 1_555
C7_8 C5_8 1_555 1_555
C8_8 C7_8 1_555 1_555
O8_4 C6_8 1_555 1_555
O12_3 C8_8 1_555 1_555
O6_8 C8_8 1_555 1_555
Co8_3 O8_4 1_555 1_555
C6_8 C7_8 1_555 1_555
C1_9 C2_9 1_555 1_555
C2_9 H1_9 1_555 1_555
C3_9 C1_9 1_555 1_555
C4_9 C3_9 1_555 1_555
O7_4 C1_9 1_555 1_555
O11_2 C4_9 1_555 1_555
O3_9 C4_9 1_555 1_555
C5_9 C3_9 1_555 1_555
H2_9 C5_9 1_555 1_555
Co7_2 O7_4 1_555 1_555
C6_9 C2_9 1_555 1_555
C7_9 C5_9 1_555 1_555
C8_9 C7_9 1_555 1_555
O8_5 C6_9 1_555 1_555
O12 C8_9 1_555 1_555
O6_9 C8_9 1_555 1_555
Co8 O8_5 1_555 1_555
C6_9 C7_9 1_555 1_555

#END
