
###############################################################################
#
# This file contains modified crystal structure data generated from the
# MOF subset of the Cambridge Structural Database (CSD) v543 
# hosted by the Cambridge Crystallographic Data Centre (CCDC).
#
# This work is licensed under the Creative Commons
# Attribution-NonCommercial-ShareAlike 4.0 International License.
# To view a copy of this license, visit
# http://creativecommons.org/licenses/by-nc-sa/4.0/
# or send a letter to
# Creative Commons, PO Box 1866, Mountain View, CA 94042, USA.
#
# CIF created using the CSD Python API on 29 September 2022
# The structure has been converted into the P1 space group
# The structure has a 3D framework
# The original CSD entry KOSKAG is in the rhombohedral crystal system
# The framework has been calculated to contain at least 10.0% void space
# The void calculation uses a probe of radius 1.32A, grid spacing 0.4
#
###############################################################################

data_KOSKAG
_chemical_formula_moiety         '(C72 H18 Co6 O50)n'
_symmetry_cell_setting           triclinic
_symmetry_space_group_name_H-M   'P 1'
_symmetry_Int_Tables_number      1
_space_group_name_Hall           'P 1'
loop_
_symmetry_equiv_pos_site_id
_symmetry_equiv_pos_as_xyz
1 x,y,z
_cell_length_a                   25.9008(11)
_cell_length_b                   25.9008
_cell_length_c                   6.8104(4)
_cell_angle_alpha                90
_cell_angle_beta                 90
_cell_angle_gamma                120
_cell_volume                     3956.67
loop_
_atom_site_label
_atom_site_type_symbol
_atom_site_fract_x
_atom_site_fract_y
_atom_site_fract_z
_atom_site_U_iso_or_equiv
_atom_site_thermal_displace_type
Co6 Co 0.6614(24) 0.0392(13) 0.232(5) 0.0030 Uiso
O9 O 0.6433(9) 0.0129(6) 0.7565(22) 0.0110 Uiso
O11 O 0.7029(7) 0.0233(9) 0.4231(22) 0.0110 Uiso
Co9 Co 0.7111(20) 0.0052(24) 0.898(5) 0.0030 Uiso
C3 C 0.6425(6) 0.8683(6) 0.0414(26) 0.0190 Uiso
C4 C 0.6357(5) 0.9108(6) 0.1609(24) 0.0150 Uiso
O2 O 0.6538(6) 0.9638(7) 0.0898(22) 0.0110 Uiso
O3 O 0.6130(6) 0.8968(7) 0.3324(23) 0.0190 Uiso
C5 C 0.6295(8) 0.8147(4) 0.1369(28) 0.0080 Uiso
H2 H 0.6204(15) 0.8102(7) 0.267(7) 0.0180 Uiso
C6 C 0.6425(6) 0.7742(8) 0.0414(26) 0.0190 Uiso
C7 C 0.6357(5) 0.7249(8) 0.1609(24) 0.0150 Uiso
O4 O 0.6538(6) 0.6900(9) 0.0898(22) 0.0110 Uiso
O5 O 0.6130(6) 0.7162(9) 0.3324(23) 0.0190 Uiso
Co3 Co 0.6275(13) 0.9556(20) 0.565(5) 0.0030 Uiso
Co4 Co 0.6275(13) 0.6719(24) 0.565(5) 0.0030 Uiso
Co8 Co 0.6614(24) 0.6223(20) 0.232(5) 0.0030 Uiso
C1 C 0.6578(6) 0.8758(6) 0.8323(27) 0.0130 Uiso
C2 C 0.6676(8) 0.8338(4) 0.7388(35) 0.0090 Uiso
H1 H 0.6761(14) 0.8380(7) 0.594(7) 0.0350 Uiso
O1 O 0.6747(5) 0.9287(5) 0.7468(24) 0.0000 Uiso
C8 C 0.6578(6) 0.7820(8) 0.8323(27) 0.0130 Uiso
O6 O 0.6747(5) 0.7460(7) 0.7468(24) 0.0000 Uiso
O7 O 0.5873(7) 0.9920(5) 0.4135(24) 0.0000 Uiso
O8 O 0.5873(7) 0.5954(5) 0.4135(24) 0.0000 Uiso
O10 O 0.6433(9) 0.6305(7) 0.7565(22) 0.0110 Uiso
O12 O 0.7029(7) 0.6795(6) 0.4231(22) 0.0110 Uiso
Co10 Co 0.7111(20) 0.7058(13) 0.898(5) 0.0030 Uiso
Co8_2 Co 0.3777(20) 0.0392(31) 0.232(5) 0.0030 Uiso
O10_2 O 0.3695(7) 0.0129(11) 0.7565(22) 0.0110 Uiso
O12_2 O 0.3205(6) 0.0233(9) 0.4231(22) 0.0110 Uiso
Co10_2 Co 0.2942(13) 0.0052(24) 0.898(5) 0.0030 Uiso
C3_2 C 0.1317(6) 0.7742(8) 0.0414(26) 0.0190 Uiso
C4_2 C 0.0892(6) 0.7249(8) 0.1609(24) 0.0150 Uiso
O2_2 O 0.0362(7) 0.6900(9) 0.0898(22) 0.0110 Uiso
O3_2 O 0.1032(7) 0.7162(9) 0.3324(23) 0.0190 Uiso
C5_2 C 0.1853(4) 0.8148(9) 0.1369(28) 0.0080 Uiso
H2_2 H 0.1898(7) 0.8102(17) 0.267(7) 0.0180 Uiso
C6_2 C 0.2258(8) 0.8683(10) 0.0414(26) 0.0190 Uiso
C7_2 C 0.2751(8) 0.9108(9) 0.1609(24) 0.0150 Uiso
O4_2 O 0.3100(9) 0.9638(11) 0.0898(22) 0.0110 Uiso
O5_2 O 0.2838(9) 0.8968(11) 0.3324(23) 0.0190 Uiso
Co3_2 Co 0.0444(20) 0.6719(24) 0.565(5) 0.0030 Uiso
Co4_2 Co 0.3281(24) 0.9556(27) 0.565(5) 0.0030 Uiso
C1_2 C 0.1242(6) 0.7820(8) 0.8323(27) 0.0130 Uiso
C2_2 C 0.1662(4) 0.8338(9) 0.7388(35) 0.0090 Uiso
H1_2 H 0.1620(7) 0.8381(16) 0.594(7) 0.0350 Uiso
O1_2 O 0.0713(5) 0.7460(7) 0.7468(24) 0.0000 Uiso
C8_2 C 0.2180(8) 0.8758(10) 0.8323(27) 0.0130 Uiso
O6_2 O 0.2540(7) 0.9287(9) 0.7468(24) 0.0000 Uiso
O7_2 O 0.0080(5) 0.5954(9) 0.4135(24) 0.0000 Uiso
O8_2 O 0.4046(5) 0.9920(9) 0.4135(24) 0.0000 Uiso
Co6_2 Co 0.9608(13) 0.6223(27) 0.232(5) 0.0030 Uiso
O9_2 O 0.9871(6) 0.6305(11) 0.7565(22) 0.0110 Uiso
O11_2 O 0.9767(9) 0.6795(11) 0.4231(22) 0.0110 Uiso
Co9_2 Co 0.9948(24) 0.7058(31) 0.898(5) 0.0030 Uiso
C3_3 C 0.2258(8) 0.3575(6) 0.0414(26) 0.0190 Uiso
C4_3 C 0.2751(8) 0.3643(5) 0.1609(24) 0.0150 Uiso
O2_3 O 0.3100(9) 0.3462(6) 0.0898(22) 0.0110 Uiso
O3_3 O 0.2838(9) 0.3870(6) 0.3324(23) 0.0190 Uiso
C5_3 C 0.1852(9) 0.3705(8) 0.1369(28) 0.0080 Uiso
H2_3 H 0.1898(17) 0.3796(15) 0.267(7) 0.0180 Uiso
C6_3 C 0.1317(10) 0.3575(6) 0.0414(26) 0.0190 Uiso
C7_3 C 0.0892(9) 0.3643(5) 0.1609(24) 0.0150 Uiso
O4_3 O 0.0362(11) 0.3462(6) 0.0898(22) 0.0110 Uiso
O5_3 O 0.1032(11) 0.3870(6) 0.3324(23) 0.0190 Uiso
Co3_3 Co 0.3281(24) 0.3725(13) 0.565(5) 0.0030 Uiso
Co4_3 Co 0.0444(27) 0.3725(13) 0.565(5) 0.0030 Uiso
Co6_3 Co 0.3777(27) 0.3386(24) 0.232(5) 0.0030 Uiso
C1_3 C 0.2180(8) 0.3422(6) 0.8323(27) 0.0130 Uiso
C2_3 C 0.1662(9) 0.3324(8) 0.7388(35) 0.0090 Uiso
H1_3 H 0.1619(16) 0.3239(14) 0.594(7) 0.0350 Uiso
O1_3 O 0.2540(7) 0.3253(5) 0.7468(24) 0.0000 Uiso
C8_3 C 0.1242(10) 0.3422(6) 0.8323(27) 0.0130 Uiso
O6_3 O 0.0713(9) 0.3253(5) 0.7468(24) 0.0000 Uiso
O7_3 O 0.4046(9) 0.4127(7) 0.4135(24) 0.0000 Uiso
O8_3 O 0.0080(9) 0.4127(7) 0.4135(24) 0.0000 Uiso
O9_3 O 0.3695(11) 0.3567(9) 0.7565(22) 0.0110 Uiso
O11_3 O 0.3205(11) 0.2971(7) 0.4231(22) 0.0110 Uiso
Co9_3 Co 0.2942(31) 0.2889(20) 0.898(5) 0.0030 Uiso
Co8_3 Co 0.9608(31) 0.3386(24) 0.232(5) 0.0030 Uiso
O10_3 O 0.9871(11) 0.3567(9) 0.7565(22) 0.0110 Uiso
O12_3 O 0.9767(9) 0.2971(7) 0.4231(22) 0.0110 Uiso
Co10_3 Co 0.9948(24) 0.2889(20) 0.898(5) 0.0030 Uiso
C2_4 C 0.0009(8) 0.5005(4) 0.4055(35) 0.0090 Uiso
H1_4 H 0.0094(14) 0.5047(7) 0.261(7) 0.0350 Uiso
C1_4 C 0.9911(6) 0.5425(6) 0.4990(27) 0.0130 Uiso
C3_4 C 0.9758(6) 0.5350(6) 0.7081(26) 0.0190 Uiso
C4_4 C 0.9690(5) 0.5775(6) 0.8276(24) 0.0150 Uiso
O3_4 O 0.9463(6) 0.5635(7) 0.9991(23) 0.0190 Uiso
C5_4 C 0.9628(8) 0.4814(4) 0.8036(28) 0.0080 Uiso
H2_4 H 0.9537(15) 0.4769(7) 0.934(7) 0.0180 Uiso
C6_4 C 0.9758(6) 0.4409(8) 0.7081(26) 0.0190 Uiso
C7_4 C 0.9690(5) 0.3916(8) 0.8276(24) 0.0150 Uiso
O5_4 O 0.9463(6) 0.3829(9) 0.9991(23) 0.0190 Uiso
C8_4 C 0.9911(6) 0.4487(8) 0.4990(27) 0.0130 Uiso
O7_4 O 0.9207(7) 0.6586(5) 0.0801(24) 0.0000 Uiso
O8_4 O 0.9207(7) 0.2620(5) 0.0801(24) 0.0000 Uiso
C1_5 C 0.4575(6) 0.4487(8) 0.4990(27) 0.0130 Uiso
C2_5 C 0.4995(4) 0.5005(9) 0.4055(35) 0.0090 Uiso
C3_5 C 0.4650(6) 0.4409(8) 0.7081(26) 0.0190 Uiso
C4_5 C 0.4225(6) 0.3916(8) 0.8276(24) 0.0150 Uiso
H1_5 H 0.4953(7) 0.5048(16) 0.261(7) 0.0350 Uiso
O3_5 O 0.4365(7) 0.3829(9) 0.9991(23) 0.0190 Uiso
C5_5 C 0.5186(4) 0.4815(9) 0.8036(28) 0.0080 Uiso
H2_5 H 0.5231(7) 0.4769(17) 0.934(7) 0.0180 Uiso
C6_5 C 0.5591(8) 0.5350(10) 0.7081(26) 0.0190 Uiso
C7_5 C 0.6084(8) 0.5775(9) 0.8276(24) 0.0150 Uiso
O5_5 O 0.6171(9) 0.5635(11) 0.9991(23) 0.0190 Uiso
C8_5 C 0.5513(8) 0.5425(10) 0.4990(27) 0.0130 Uiso
O7_5 O 0.3414(5) 0.2620(9) 0.0801(24) 0.0000 Uiso
O8_5 O 0.7380(5) 0.6586(9) 0.0801(24) 0.0000 Uiso
C1_6 C 0.5513(8) 0.0089(6) 0.4990(27) 0.0130 Uiso
C3_6 C 0.5591(8) 0.0242(6) 0.7081(26) 0.0190 Uiso
C4_6 C 0.6084(8) 0.0310(5) 0.8276(24) 0.0150 Uiso
O3_6 O 0.6171(9) 0.0537(6) 0.9991(23) 0.0190 Uiso
C5_6 C 0.5185(9) 0.0372(8) 0.8036(28) 0.0080 Uiso
H2_6 H 0.5231(17) 0.0463(15) 0.934(7) 0.0180 Uiso
C6_6 C 0.4650(10) 0.0242(6) 0.7081(26) 0.0190 Uiso
C7_6 C 0.4225(9) 0.0310(5) 0.8276(24) 0.0150 Uiso
O5_6 O 0.4365(11) 0.0537(6) 0.9991(23) 0.0190 Uiso
C8_6 C 0.4575(10) 0.0089(6) 0.4990(27) 0.0130 Uiso
O7_6 O 0.7380(9) 0.0793(7) 0.0801(24) 0.0000 Uiso
O8_6 O 0.3414(9) 0.0793(7) 0.0801(24) 0.0000 Uiso
C2_6 C 0.4995(9) 0.9991(8) 0.4055(35) 0.0090 Uiso
H1_6 H 0.4952(16) 0.9906(14) 0.261(7) 0.0350 Uiso
C1_7 C 0.3245(6) 0.2091(6) 0.1656(27) 0.0130 Uiso
C2_7 C 0.3343(8) 0.1671(4) 0.0721(35) 0.0090 Uiso
C3_7 C 0.3092(6) 0.2016(6) 0.3747(26) 0.0190 Uiso
C4_7 C 0.3024(5) 0.2441(6) 0.4942(24) 0.0150 Uiso
O3_7 O 0.2797(6) 0.2301(7) 0.6657(23) 0.0190 Uiso
C5_7 C 0.2962(8) 0.1480(4) 0.4702(28) 0.0080 Uiso
H2_7 H 0.2871(15) 0.1435(7) 0.600(7) 0.0180 Uiso
C6_7 C 0.3092(6) 0.1075(8) 0.3747(26) 0.0190 Uiso
C7_7 C 0.3024(5) 0.0582(8) 0.4942(24) 0.0150 Uiso
O5_7 O 0.2797(6) 0.0495(9) 0.6657(23) 0.0190 Uiso
C8_7 C 0.3245(6) 0.1153(8) 0.1656(27) 0.0130 Uiso
H1_7 H 0.3428(14) 0.1713(7) 0.927(7) 0.0350 Uiso
C1_8 C 0.7909(6) 0.1153(8) 0.1656(27) 0.0130 Uiso
C2_8 C 0.8329(4) 0.1671(9) 0.0721(35) 0.0090 Uiso
C3_8 C 0.7984(6) 0.1075(8) 0.3747(26) 0.0190 Uiso
C4_8 C 0.7559(6) 0.0582(8) 0.4942(24) 0.0150 Uiso
O3_8 O 0.7699(7) 0.0495(9) 0.6657(23) 0.0190 Uiso
C5_8 C 0.8520(4) 0.1481(9) 0.4702(28) 0.0080 Uiso
H2_8 H 0.8565(7) 0.1435(17) 0.600(7) 0.0180 Uiso
C6_8 C 0.8925(8) 0.2016(10) 0.3747(26) 0.0190 Uiso
C7_8 C 0.9418(8) 0.2441(9) 0.4942(24) 0.0150 Uiso
O5_8 O 0.9505(9) 0.2301(11) 0.6657(23) 0.0190 Uiso
C8_8 C 0.8847(8) 0.2091(10) 0.1656(27) 0.0130 Uiso
H1_8 H 0.8287(7) 0.1714(16) 0.927(7) 0.0350 Uiso
C1_9 C 0.8847(8) 0.6755(6) 0.1656(27) 0.0130 Uiso
C2_9 C 0.8329(9) 0.6657(8) 0.0721(35) 0.0090 Uiso
C3_9 C 0.8925(8) 0.6908(6) 0.3747(26) 0.0190 Uiso
C4_9 C 0.9418(8) 0.6976(5) 0.4942(24) 0.0150 Uiso
O3_9 O 0.9505(9) 0.7203(6) 0.6657(23) 0.0190 Uiso
C5_9 C 0.8519(9) 0.7038(8) 0.4702(28) 0.0080 Uiso
H2_9 H 0.8565(17) 0.7129(15) 0.600(7) 0.0180 Uiso
C6_9 C 0.7984(10) 0.6908(6) 0.3747(26) 0.0190 Uiso
C7_9 C 0.7559(9) 0.6976(5) 0.4942(24) 0.0150 Uiso
O5_9 O 0.7699(11) 0.7203(6) 0.6657(23) 0.0190 Uiso
C8_9 C 0.7909(10) 0.6755(6) 0.1656(27) 0.0130 Uiso
H1_9 H 0.8286(16) 0.6572(14) 0.927(7) 0.0350 Uiso
loop_
_geom_bond_atom_site_label_1
_geom_bond_atom_site_label_2
_geom_bond_site_symmetry_1
_geom_bond_site_symmetry_2
O9 Co9 1_555 1_555
O11 Co6 1_555 1_555
C4 C3 1_555 1_555
O2 C4 1_555 1_555
O3 C4 1_555 1_555
C5 C3 1_555 1_555
H2 C5 1_555 1_555
C6 C5 1_555 1_555
C7 C6 1_555 1_555
O4 C7 1_555 1_555
O5 C7 1_555 1_555
Co3 O3 1_555 1_555
Co4 O5 1_555 1_555
Co8 O4 1_555 1_555
Co4 Co8 1_555 1_555
C1 C2 1_555 1_555
C2 H1 1_555 1_555
O1 C1 1_555 1_555
Co3 O1 1_555 1_555
C8 C2 1_555 1_555
O6 C8 1_555 1_555
Co4 O6 1_555 1_555
O7 Co3 1_555 1_555
O8 Co4 1_555 1_555
O10 Co4 1_555 1_555
O12 Co4 1_555 1_555
O6 Co10 1_555 1_555
Co4 Co10 1_555 1_555
O8 Co8 1_555 1_555
O10 Co10 1_555 1_555
O12 Co8 1_555 1_555
O10_2 Co10_2 1_555 1_555
O12_2 Co8_2 1_555 1_555
C4_2 C3_2 1_555 1_555
O2_2 C4_2 1_555 1_555
O3_2 C4_2 1_555 1_555
C5_2 C3_2 1_555 1_555
H2_2 C5_2 1_555 1_555
C6_2 C5_2 1_555 1_555
C7_2 C6_2 1_555 1_555
O4_2 C7_2 1_555 1_555
O5_2 C7_2 1_555 1_555
Co3_2 O3_2 1_555 1_555
Co4_2 O5_2 1_555 1_555
C1_2 C2_2 1_555 1_555
C2_2 H1_2 1_555 1_555
O1_2 C1_2 1_555 1_555
Co3_2 O1_2 1_555 1_555
C8_2 C2_2 1_555 1_555
O6_2 C8_2 1_555 1_555
Co4_2 O6_2 1_555 1_555
O7_2 Co3_2 1_555 1_555
O8_2 Co4_2 1_555 1_555
O9_2 Co9_2 1_555 1_555
O11_2 Co6_2 1_555 1_555
C4_3 C3_3 1_555 1_555
O2_3 C4_3 1_555 1_555
O3_3 C4_3 1_555 1_555
C5_3 C3_3 1_555 1_555
H2_3 C5_3 1_555 1_555
C6_3 C5_3 1_555 1_555
C7_3 C6_3 1_555 1_555
O4_3 C7_3 1_555 1_555
O5_3 C7_3 1_555 1_555
Co3_3 O3_3 1_555 1_555
Co4_3 O5_3 1_555 1_555
Co6_3 O2_3 1_555 1_555
Co3_3 Co6_3 1_555 1_555
C1_3 C2_3 1_555 1_555
C2_3 H1_3 1_555 1_555
O1_3 C1_3 1_555 1_555
Co3_3 O1_3 1_555 1_555
C8_3 C2_3 1_555 1_555
O6_3 C8_3 1_555 1_555
Co4_3 O6_3 1_555 1_555
O7_3 Co3_3 1_555 1_555
O8_3 Co4_3 1_555 1_555
O9_3 Co3_3 1_555 1_555
O11_3 Co3_3 1_555 1_555
Co9_3 O1_3 1_555 1_555
Co3_3 Co9_3 1_555 1_555
O7_3 Co6_3 1_555 1_555
O9_3 Co9_3 1_555 1_555
O11_3 Co6_3 1_555 1_555
O10_3 Co10_3 1_555 1_555
O12_3 Co8_3 1_555 1_555
C2_4 H1_4 1_555 1_555
C3_4 C1_4 1_555 1_555
C4_4 C3_4 1_555 1_555
O9_2 C4_4 1_555 1_555
O3_4 C4_4 1_555 1_555
C5_4 C3_4 1_555 1_555
H2_4 C5_4 1_555 1_555
C6_4 C5_4 1_555 1_555
C7_4 C6_4 1_555 1_555
O10_3 C7_4 1_555 1_555
O5_4 C7_4 1_555 1_555
O7_4 Co6_2 1_555 1_555
O8_4 Co8_3 1_555 1_555
C6_4 C8_4 1_555 1_555
C1_5 C2_5 1_555 1_555
C2_5 H1_5 1_555 1_555
C3_5 C1_5 1_555 1_555
C4_5 C3_5 1_555 1_555
O7_3 C1_5 1_555 1_555
O9_3 C4_5 1_555 1_555
O3_5 C4_5 1_555 1_555
C5_5 C3_5 1_555 1_555
H2_5 C5_5 1_555 1_555
C6_5 C5_5 1_555 1_555
C7_5 C6_5 1_555 1_555
O10 C7_5 1_555 1_555
O5_5 C7_5 1_555 1_555
C8_5 C2_5 1_555 1_555
O8 C8_5 1_555 1_555
O7_5 Co6_3 1_555 1_555
O8_5 Co8 1_555 1_555
C6_5 C8_5 1_555 1_555
C3_6 C1_6 1_555 1_555
C4_6 C3_6 1_555 1_555
O9 C4_6 1_555 1_555
O3_6 C4_6 1_555 1_555
C5_6 C3_6 1_555 1_555
H2_6 C5_6 1_555 1_555
C6_6 C5_6 1_555 1_555
C7_6 C6_6 1_555 1_555
O10_2 C7_6 1_555 1_555
O5_6 C7_6 1_555 1_555
O7_6 Co6 1_555 1_555
O8_6 Co8_2 1_555 1_555
C6_6 C8_6 1_555 1_555
C2_6 H1_6 1_555 1_555
C1_7 C2_7 1_555 1_555
C3_7 C1_7 1_555 1_555
C4_7 C3_7 1_555 1_555
O7_5 C1_7 1_555 1_555
O11_3 C4_7 1_555 1_555
O3_7 C4_7 1_555 1_555
C5_7 C3_7 1_555 1_555
H2_7 C5_7 1_555 1_555
C6_7 C5_7 1_555 1_555
C7_7 C6_7 1_555 1_555
O12_2 C7_7 1_555 1_555
O5_7 C7_7 1_555 1_555
C8_7 C2_7 1_555 1_555
O8_6 C8_7 1_555 1_555
Co9_3 O3_7 1_555 1_555
Co10_2 O5_7 1_555 1_555
C6_7 C8_7 1_555 1_555
C1_8 C2_8 1_555 1_555
C3_8 C1_8 1_555 1_555
C4_8 C3_8 1_555 1_555
O7_6 C1_8 1_555 1_555
O11 C4_8 1_555 1_555
O3_8 C4_8 1_555 1_555
C5_8 C3_8 1_555 1_555
H2_8 C5_8 1_555 1_555
C6_8 C5_8 1_555 1_555
C7_8 C6_8 1_555 1_555
O12_3 C7_8 1_555 1_555
O5_8 C7_8 1_555 1_555
C8_8 C2_8 1_555 1_555
O8_4 C8_8 1_555 1_555
Co9 O3_8 1_555 1_555
Co10_3 O5_8 1_555 1_555
C6_8 C8_8 1_555 1_555
C1_9 C2_9 1_555 1_555
C3_9 C1_9 1_555 1_555
C4_9 C3_9 1_555 1_555
O7_4 C1_9 1_555 1_555
O11_2 C4_9 1_555 1_555
O3_9 C4_9 1_555 1_555
C5_9 C3_9 1_555 1_555
H2_9 C5_9 1_555 1_555
C6_9 C5_9 1_555 1_555
C7_9 C6_9 1_555 1_555
O12 C7_9 1_555 1_555
O5_9 C7_9 1_555 1_555
C8_9 C2_9 1_555 1_555
O8_5 C8_9 1_555 1_555
Co9_2 O3_9 1_555 1_555
Co10 O5_9 1_555 1_555
C6_9 C8_9 1_555 1_555

#END
