
###############################################################################
#
# This file contains modified crystal structure data generated from the
# MOF subset of the Cambridge Structural Database (CSD) v543 
# hosted by the Cambridge Crystallographic Data Centre (CCDC).
#
# This work is licensed under the Creative Commons
# Attribution-NonCommercial-ShareAlike 4.0 International License.
# To view a copy of this license, visit
# http://creativecommons.org/licenses/by-nc-sa/4.0/
# or send a letter to
# Creative Commons, PO Box 1866, Mountain View, CA 94042, USA.
#
# CIF created using the CSD Python API on 29 September 2022
# The structure has been converted into the P1 space group
# The structure has a 3D framework
# The original CSD entry KOSLAH is in the rhombohedral crystal system
# The framework has been calculated to contain at least 10.0% void space
# The void calculation uses a probe of radius 1.32A, grid spacing 0.4
#
###############################################################################

data_KOSLAH
_chemical_formula_moiety         '(C72 H18 Co5 O48)n'
_symmetry_cell_setting           triclinic
_symmetry_space_group_name_H-M   'P 1'
_symmetry_Int_Tables_number      1
_space_group_name_Hall           'P 1'
loop_
_symmetry_equiv_pos_site_id
_symmetry_equiv_pos_as_xyz
1 x,y,z
_cell_length_a                   25.8781(10)
_cell_length_b                   25.8781
_cell_length_c                   6.88197(33)
_cell_angle_alpha                90
_cell_angle_beta                 90
_cell_angle_gamma                120
_cell_volume                     3991.24
loop_
_atom_site_label
_atom_site_type_symbol
_atom_site_fract_x
_atom_site_fract_y
_atom_site_fract_z
_atom_site_U_iso_or_equiv
_atom_site_thermal_displace_type
Co1 Co 0.3814(12) 0.3505(12) 0.132(4) 0.0040 Uiso
O1 O 0.3246(6) 0.2940(6) 0.3646(19) 0.0090 Uiso
O2 O 0.3006(6) 0.2281(6) 0.5986(17) 0.0087 Uiso
C1 C 0.3143(6) 0.2450(6) 0.4264(14) 0.0133 Uiso
C2 C 0.3296(5) 0.2087(5) 0.2869(17) 0.0103 Uiso
C3 C 0.3463(5) 0.2251(6) 0.0882(16) 0.0180 Uiso
O6 O 0.3097(6) 0.0588(7) 0.3361(23) 0.0120 Uiso
C6 C 0.3371(5) 0.1246(5) 0.0464(17) 0.0103 Uiso
C7 C 0.3204(5) 0.1082(6) 0.2451(16) 0.0180 Uiso
C8 C 0.3166(5) 0.1522(6) 0.3625(15) 0.0080 Uiso
H2 H 0.3034(8) 0.1388(7) 0.499(4) 0.0100 Uiso
Co4 Co 0.3024(17) 0.2853(12) 0.799(4) 0.0040 Uiso
Co6 Co 0.3162(12) 0.3642(17) 0.465(4) 0.0040 Uiso
Co8 Co 0.3642(17) 0.0481(12) 0.535(4) 0.0040 Uiso
O8 O 0.3027(8) 0.3421(6) 0.0313(19) 0.0090 Uiso
O12 O 0.3922(7) 0.4158(9) 0.3305(23) 0.0120 Uiso
O3 O 0.3570(6) 0.2745(7) 0.9972(23) 0.0120 Uiso
C4 C 0.3501(5) 0.1811(6) 0.9708(15) 0.0080 Uiso
H1 H 0.3633(8) 0.1945(7) 0.834(4) 0.0100 Uiso
O4 O 0.3421(6) 0.0393(6) 0.9687(19) 0.0090 Uiso
O5 O 0.3661(6) 0.1052(6) 0.7347(17) 0.0087 Uiso
C5 C 0.3524(6) 0.0883(6) 0.9069(14) 0.0133 Uiso
O9 O 0.4386(6) 0.4058(8) 0.9319(17) 0.0087 Uiso
O13 O 0.4158(9) 0.0237(6) 0.6695(23) 0.0120 Uiso
Co5 Co 0.2853(12) 0.9828(12) 0.201(4) 0.0040 Uiso
O10 O 0.4058(8) 0.9673(6) 0.0681(17) 0.0087 Uiso
O11 O 0.2745(7) 0.9175(9) 0.0028(23) 0.0120 Uiso
Co2 Co 0.3505(12) 0.9691(17) 0.868(4) 0.0040 Uiso
O7 O 0.2940(6) 0.9694(8) 0.6354(19) 0.0090 Uiso
Co5_2 Co 0.0172(12) 0.3024(17) 0.201(4) 0.0040 Uiso
O10_2 O 0.0327(6) 0.4386(10) 0.0681(17) 0.0087 Uiso
O11_2 O 0.0825(9) 0.3570(11) 0.0028(23) 0.0120 Uiso
Co2_2 Co 0.0309(17) 0.3814(21) 0.868(4) 0.0040 Uiso
O7_2 O 0.0306(8) 0.3246(10) 0.6354(19) 0.0090 Uiso
Co1_2 Co 0.6495(12) 0.0309(17) 0.132(4) 0.0040 Uiso
O1_2 O 0.7060(6) 0.0306(8) 0.3646(19) 0.0090 Uiso
O2_2 O 0.7719(6) 0.0725(8) 0.5986(17) 0.0087 Uiso
C1_2 C 0.7550(6) 0.0693(8) 0.4264(14) 0.0133 Uiso
C2_2 C 0.7913(5) 0.1209(7) 0.2869(17) 0.0103 Uiso
C3_2 C 0.7749(6) 0.1212(8) 0.0882(16) 0.0180 Uiso
O6_2 O 0.9412(7) 0.2508(9) 0.3361(23) 0.0120 Uiso
C6_2 C 0.8754(5) 0.2124(7) 0.0464(17) 0.0103 Uiso
C7_2 C 0.8918(6) 0.2121(8) 0.2451(16) 0.0180 Uiso
C8_2 C 0.8478(6) 0.1643(8) 0.3625(15) 0.0080 Uiso
H2_2 H 0.8612(7) 0.1645(11) 0.499(4) 0.0100 Uiso
Co4_2 Co 0.7147(12) 0.0172(21) 0.799(4) 0.0040 Uiso
Co8_2 Co 0.9519(12) 0.3162(21) 0.535(4) 0.0040 Uiso
O3_2 O 0.7255(7) 0.0825(9) 0.9972(23) 0.0120 Uiso
C4_2 C 0.8189(6) 0.1690(8) 0.9708(15) 0.0080 Uiso
H1_2 H 0.8055(7) 0.1688(11) 0.834(4) 0.0100 Uiso
O4_2 O 0.9607(6) 0.3027(8) 0.9687(19) 0.0090 Uiso
O5_2 O 0.8948(6) 0.2608(8) 0.7347(17) 0.0087 Uiso
C5_2 C 0.9117(6) 0.2640(8) 0.9069(14) 0.0133 Uiso
O9_2 O 0.5942(8) 0.0327(10) 0.9319(17) 0.0087 Uiso
O13_2 O 0.9763(6) 0.3922(11) 0.6695(23) 0.0120 Uiso
Co6_2 Co 0.6358(17) 0.9519(21) 0.465(4) 0.0040 Uiso
O8_2 O 0.6579(6) 0.9607(10) 0.0313(19) 0.0090 Uiso
O12_2 O 0.5842(9) 0.9763(11) 0.3305(23) 0.0120 Uiso
Co6_3 Co 0.0481(21) 0.6838(12) 0.465(4) 0.0040 Uiso
O8_3 O 0.0393(10) 0.6973(8) 0.0313(19) 0.0090 Uiso
O12_3 O 0.0237(11) 0.6078(7) 0.3305(23) 0.0120 Uiso
Co1_3 Co 0.9691(17) 0.6186(12) 0.132(4) 0.0040 Uiso
O1_3 O 0.9694(8) 0.6754(6) 0.3646(19) 0.0090 Uiso
O2_3 O 0.9275(8) 0.6994(6) 0.5986(17) 0.0087 Uiso
C1_3 C 0.9307(8) 0.6857(6) 0.4264(14) 0.0133 Uiso
C2_3 C 0.8791(7) 0.6704(5) 0.2869(17) 0.0103 Uiso
C3_3 C 0.8788(8) 0.6537(5) 0.0882(16) 0.0180 Uiso
O6_3 O 0.7492(9) 0.6903(6) 0.3361(23) 0.0120 Uiso
C6_3 C 0.7876(7) 0.6629(5) 0.0464(17) 0.0103 Uiso
C7_3 C 0.7879(8) 0.6796(5) 0.2451(16) 0.0180 Uiso
C8_3 C 0.8357(8) 0.6834(5) 0.3625(15) 0.0080 Uiso
H2_3 H 0.8355(11) 0.6966(8) 0.499(4) 0.0100 Uiso
Co4_3 Co 0.9828(21) 0.6976(17) 0.799(4) 0.0040 Uiso
Co5_3 Co 0.6976(17) 0.7147(12) 0.201(4) 0.0040 Uiso
Co8_3 Co 0.6838(21) 0.6358(17) 0.535(4) 0.0040 Uiso
O10_3 O 0.5614(10) 0.5942(8) 0.0681(17) 0.0087 Uiso
O11_3 O 0.6430(11) 0.7255(7) 0.0028(23) 0.0120 Uiso
O3_3 O 0.9175(9) 0.6430(6) 0.9972(23) 0.0120 Uiso
C4_3 C 0.8310(8) 0.6499(5) 0.9708(15) 0.0080 Uiso
H1_3 H 0.8312(11) 0.6367(8) 0.834(4) 0.0100 Uiso
O4_3 O 0.6973(8) 0.6579(6) 0.9687(19) 0.0090 Uiso
O5_3 O 0.7392(8) 0.6339(6) 0.7347(17) 0.0087 Uiso
C5_3 C 0.7360(8) 0.6476(6) 0.9069(14) 0.0133 Uiso
Co2_3 Co 0.6186(21) 0.6495(12) 0.868(4) 0.0040 Uiso
O7_3 O 0.6754(10) 0.7060(6) 0.6354(19) 0.0090 Uiso
O9_3 O 0.9673(10) 0.5614(6) 0.9319(17) 0.0087 Uiso
O13_3 O 0.6078(11) 0.5842(9) 0.6695(23) 0.0120 Uiso
O8_4 O 0.6361(8) 0.0087(6) 0.6979(19) 0.0090 Uiso
O2_4 O 0.6339(6) 0.8948(6) 0.2653(17) 0.0087 Uiso
C1_4 C 0.6476(6) 0.9117(6) 0.0931(14) 0.0133 Uiso
C8_4 C 0.6499(5) 0.8189(6) 0.0292(15) 0.0080 Uiso
H2_4 H 0.6367(8) 0.8055(7) 0.166(4) 0.0100 Uiso
O3_4 O 0.6903(6) 0.9412(7) 0.6639(23) 0.0120 Uiso
C2_4 C 0.6629(5) 0.8754(5) 0.9536(17) 0.0103 Uiso
C3_4 C 0.6796(5) 0.8918(6) 0.7549(16) 0.0180 Uiso
C4_4 C 0.6834(5) 0.8478(6) 0.6375(15) 0.0080 Uiso
H1_4 H 0.6966(8) 0.8612(7) 0.501(4) 0.0100 Uiso
O5_4 O 0.6994(6) 0.7719(6) 0.4014(17) 0.0087 Uiso
C5_4 C 0.6857(6) 0.7550(6) 0.5736(14) 0.0133 Uiso
C6_4 C 0.6704(5) 0.7913(5) 0.7131(17) 0.0103 Uiso
C7_4 C 0.6537(5) 0.7749(6) 0.9118(16) 0.0180 Uiso
O7_4 O 0.6273(6) 0.6361(8) 0.3021(19) 0.0090 Uiso
O2_5 O 0.1052(6) 0.7392(8) 0.2653(17) 0.0087 Uiso
C1_5 C 0.0883(6) 0.7360(8) 0.0931(14) 0.0133 Uiso
C8_5 C 0.1811(6) 0.8310(8) 0.0292(15) 0.0080 Uiso
H2_5 H 0.1945(7) 0.8312(11) 0.166(4) 0.0100 Uiso
O3_5 O 0.0588(7) 0.7492(9) 0.6639(23) 0.0120 Uiso
C2_5 C 0.1246(5) 0.7876(7) 0.9536(17) 0.0103 Uiso
C3_5 C 0.1082(6) 0.7879(8) 0.7549(16) 0.0180 Uiso
C4_5 C 0.1522(6) 0.8357(8) 0.6375(15) 0.0080 Uiso
H1_5 H 0.1388(7) 0.8355(11) 0.501(4) 0.0100 Uiso
O5_5 O 0.2281(6) 0.9275(8) 0.4014(17) 0.0087 Uiso
C5_5 C 0.2450(6) 0.9307(8) 0.5736(14) 0.0133 Uiso
C6_5 C 0.2087(5) 0.8791(7) 0.7131(17) 0.0103 Uiso
C7_5 C 0.2251(6) 0.8788(8) 0.9118(16) 0.0180 Uiso
O7_5 O 0.3639(8) 0.9913(10) 0.3021(19) 0.0090 Uiso
O8_5 O 0.9913(6) 0.6273(10) 0.6979(19) 0.0090 Uiso
O2_6 O 0.2608(8) 0.3661(6) 0.2653(17) 0.0087 Uiso
C1_6 C 0.2640(8) 0.3524(6) 0.0931(14) 0.0133 Uiso
C8_6 C 0.1690(8) 0.3501(5) 0.0292(15) 0.0080 Uiso
H2_6 H 0.1688(11) 0.3633(8) 0.166(4) 0.0100 Uiso
O3_6 O 0.2508(9) 0.3097(6) 0.6639(23) 0.0120 Uiso
C2_6 C 0.2124(7) 0.3371(5) 0.9536(17) 0.0103 Uiso
C3_6 C 0.2121(8) 0.3204(5) 0.7549(16) 0.0180 Uiso
C4_6 C 0.1643(8) 0.3166(5) 0.6375(15) 0.0080 Uiso
H1_6 H 0.1645(11) 0.3034(8) 0.501(4) 0.0100 Uiso
O5_6 O 0.0725(8) 0.3006(6) 0.4014(17) 0.0087 Uiso
C5_6 C 0.0693(8) 0.3143(6) 0.5736(14) 0.0133 Uiso
C6_6 C 0.1209(7) 0.3296(5) 0.7131(17) 0.0103 Uiso
C7_6 C 0.1212(8) 0.3463(5) 0.9118(16) 0.0180 Uiso
O7_6 O 0.0087(10) 0.3727(6) 0.3021(19) 0.0090 Uiso
O8_6 O 0.3727(10) 0.3639(8) 0.6979(19) 0.0090 Uiso
C3_7 C 0.0130(5) 0.5584(6) 0.4215(16) 0.0180 Uiso
C4_7 C 0.0168(5) 0.5144(6) 0.3041(15) 0.0080 Uiso
H1_7 H 0.0300(8) 0.5278(7) 0.167(4) 0.0100 Uiso
C5_7 C 0.0190(6) 0.4217(6) 0.2403(14) 0.0133 Uiso
C6_7 C 0.0037(5) 0.4580(5) 0.3798(17) 0.0103 Uiso
C1_7 C 0.9810(6) 0.5783(6) 0.7597(14) 0.0133 Uiso
C2_7 C 0.9963(5) 0.5420(5) 0.6202(17) 0.0103 Uiso
C7_7 C 0.9870(5) 0.4416(6) 0.5785(16) 0.0180 Uiso
C8_7 C 0.9832(5) 0.4856(6) 0.6959(15) 0.0080 Uiso
H2_7 H 0.9700(8) 0.4722(7) 0.833(4) 0.0100 Uiso
C1_8 C 0.4217(6) 0.4026(8) 0.7597(14) 0.0133 Uiso
C2_8 C 0.4580(5) 0.4542(7) 0.6202(17) 0.0103 Uiso
C3_8 C 0.4416(6) 0.4545(8) 0.4215(16) 0.0180 Uiso
C4_8 C 0.4856(6) 0.5023(8) 0.3041(15) 0.0080 Uiso
H1_8 H 0.4722(7) 0.5021(11) 0.167(4) 0.0100 Uiso
C5_8 C 0.5783(6) 0.5974(8) 0.2403(14) 0.0133 Uiso
C6_8 C 0.5420(5) 0.5458(7) 0.3798(17) 0.0103 Uiso
C7_8 C 0.5584(6) 0.5455(8) 0.5785(16) 0.0180 Uiso
C8_8 C 0.5144(6) 0.4977(8) 0.6959(15) 0.0080 Uiso
H2_8 H 0.5278(7) 0.4979(11) 0.833(4) 0.0100 Uiso
C1_9 C 0.5974(8) 0.0190(6) 0.7597(14) 0.0133 Uiso
C2_9 C 0.5458(7) 0.0037(5) 0.6202(17) 0.0103 Uiso
C7_9 C 0.4545(8) 0.0130(5) 0.5785(16) 0.0180 Uiso
C8_9 C 0.5023(8) 0.0168(5) 0.6959(15) 0.0080 Uiso
H2_9 H 0.5021(11) 0.0300(8) 0.833(4) 0.0100 Uiso
C3_9 C 0.5455(8) 0.9870(5) 0.4215(16) 0.0180 Uiso
C4_9 C 0.4977(8) 0.9832(5) 0.3041(15) 0.0080 Uiso
H1_9 H 0.4979(11) 0.9700(8) 0.167(4) 0.0100 Uiso
C5_9 C 0.4026(8) 0.9810(6) 0.2403(14) 0.0133 Uiso
C6_9 C 0.4542(7) 0.9963(5) 0.3798(17) 0.0103 Uiso
loop_
_geom_bond_atom_site_label_1
_geom_bond_atom_site_label_2
_geom_bond_site_symmetry_1
_geom_bond_site_symmetry_2
Co1 O1 1_555 1_555
O1 C1 1_555 1_555
O2 C1 1_555 1_555
C1 C2 1_555 1_555
C2 C3 1_555 1_555
O6 C7 1_555 1_555
C7 C6 1_555 1_555
C8 C2 1_555 1_555
H2 C8 1_555 1_555
Co4 O2 1_555 1_555
Co6 Co1 1_555 1_555
Co8 O6 1_555 1_555
O8 Co1 1_555 1_555
O12 Co1 1_555 1_555
O1 Co6 1_555 1_555
C7 C8 1_555 1_555
Co4 Co6 1_555 1_555
Co6 O12 1_555 1_555
H1 C4 1_555 1_555
O4 C5 1_555 1_555
O5 C5 1_555 1_555
Co8 O5 1_555 1_555
O3 Co4 1_555 1_555
Co8 O13 1_555 1_555
Co5 O11 1_555 1_555
O7 Co2 1_555 1_555
Co5_2 O11_2 1_555 1_555
O7_2 Co2_2 1_555 1_555
Co1_2 O1_2 1_555 1_555
O1_2 C1_2 1_555 1_555
O2_2 C1_2 1_555 1_555
C1_2 C2_2 1_555 1_555
C2_2 C3_2 1_555 1_555
O6_2 C7_2 1_555 1_555
C7_2 C6_2 1_555 1_555
C8_2 C2_2 1_555 1_555
H2_2 C8_2 1_555 1_555
Co4_2 O2_2 1_555 1_555
Co8_2 O6_2 1_555 1_555
C7_2 C8_2 1_555 1_555
H1_2 C4_2 1_555 1_555
O4_2 C5_2 1_555 1_555
O5_2 C5_2 1_555 1_555
Co8_2 O5_2 1_555 1_555
O3_2 Co4_2 1_555 1_555
Co8_2 O13_2 1_555 1_555
Co6_2 O12_2 1_555 1_555
Co6_3 O12_3 1_555 1_555
Co1_3 O1_3 1_555 1_555
O1_3 C1_3 1_555 1_555
O2_3 C1_3 1_555 1_555
C1_3 C2_3 1_555 1_555
C2_3 C3_3 1_555 1_555
O6_3 C7_3 1_555 1_555
C7_3 C6_3 1_555 1_555
C8_3 C2_3 1_555 1_555
H2_3 C8_3 1_555 1_555
Co4_3 O2_3 1_555 1_555
Co8_3 O6_3 1_555 1_555
O6_3 Co5_3 1_555 1_555
C7_3 C8_3 1_555 1_555
Co5_3 Co8_3 1_555 1_555
Co5_3 O11_3 1_555 1_555
H1_3 C4_3 1_555 1_555
O4_3 C5_3 1_555 1_555
O5_3 C5_3 1_555 1_555
Co2_3 O4_3 1_555 1_555
Co8_3 O5_3 1_555 1_555
O7_3 Co2_3 1_555 1_555
O13_3 Co2_3 1_555 1_555
O3_3 Co4_3 1_555 1_555
Co2_3 Co8_3 1_555 1_555
Co8_3 O7_3 1_555 1_555
Co8_3 O13_3 1_555 1_555
O8_4 Co4_2 1_555 1_555
O8_2 C1_4 1_555 1_555
O2_4 C1_4 1_555 1_555
H2_4 C8_4 1_555 1_555
Co6_2 O2_4 1_555 1_555
C2_4 C3_4 1_555 1_555
C3_4 O3_4 1_555 1_555
C4_4 C3_4 1_555 1_555
H1_4 C4_4 1_555 1_555
O7_3 C5_4 1_555 1_555
O5_4 C5_4 1_555 1_555
C5_4 C6_4 1_555 1_555
C6_4 C4_4 1_555 1_555
C7_4 C6_4 1_555 1_555
Co5_3 O5_4 1_555 1_555
O7_4 Co8_3 1_555 1_555
O3_4 Co6_2 1_555 1_555
Co5_3 O7_4 1_555 1_555
O8_3 C1_5 1_555 1_555
O2_5 C1_5 1_555 1_555
H2_5 C8_5 1_555 1_555
Co6_3 O2_5 1_555 1_555
C2_5 C3_5 1_555 1_555
C3_5 O3_5 1_555 1_555
C4_5 C3_5 1_555 1_555
H1_5 C4_5 1_555 1_555
O7 C5_5 1_555 1_555
O5_5 C5_5 1_555 1_555
C5_5 C6_5 1_555 1_555
C6_5 C4_5 1_555 1_555
C7_5 C6_5 1_555 1_555
Co5 O5_5 1_555 1_555
O3_5 Co6_3 1_555 1_555
Co5 O7_5 1_555 1_555
O8_5 Co4_3 1_555 1_555
O8 C1_6 1_555 1_555
O2_6 C1_6 1_555 1_555
H2_6 C8_6 1_555 1_555
Co6 O2_6 1_555 1_555
O3_6 Co4 1_555 1_555
C2_6 C3_6 1_555 1_555
C3_6 O3_6 1_555 1_555
C4_6 C3_6 1_555 1_555
H1_6 C4_6 1_555 1_555
O7_2 C5_6 1_555 1_555
O5_6 C5_6 1_555 1_555
C5_6 C6_6 1_555 1_555
C6_6 C4_6 1_555 1_555
C7_6 C6_6 1_555 1_555
Co5_2 O5_6 1_555 1_555
O8_6 Co4 1_555 1_555
O3_6 Co6 1_555 1_555
Co6 O8_6 1_555 1_555
Co5_2 O7_6 1_555 1_555
C3_7 O12_3 1_555 1_555
C4_7 C3_7 1_555 1_555
H1_7 C4_7 1_555 1_555
O7_6 C5_7 1_555 1_555
O10_2 C5_7 1_555 1_555
C5_7 C6_7 1_555 1_555
C6_7 C4_7 1_555 1_555
O8_5 C1_7 1_555 1_555
O9_3 C1_7 1_555 1_555
C1_7 C2_7 1_555 1_555
O13_2 C7_7 1_555 1_555
C8_7 C2_7 1_555 1_555
H2_7 C8_7 1_555 1_555
C7_7 C8_7 1_555 1_555
O8_6 C1_8 1_555 1_555
O9 C1_8 1_555 1_555
C1_8 C2_8 1_555 1_555
C2_8 C3_8 1_555 1_555
C3_8 O12 1_555 1_555
C4_8 C3_8 1_555 1_555
H1_8 C4_8 1_555 1_555
O7_4 C5_8 1_555 1_555
O10_3 C5_8 1_555 1_555
O13_3 C7_8 1_555 1_555
C5_8 C6_8 1_555 1_555
C6_8 C4_8 1_555 1_555
C7_8 C6_8 1_555 1_555
C8_8 C2_8 1_555 1_555
H2_8 C8_8 1_555 1_555
C7_8 C8_8 1_555 1_555
O8_4 C1_9 1_555 1_555
O9_2 C1_9 1_555 1_555
C1_9 C2_9 1_555 1_555
O13 C7_9 1_555 1_555
C8_9 C2_9 1_555 1_555
H2_9 C8_9 1_555 1_555
C7_9 C8_9 1_555 1_555
C3_9 O12_2 1_555 1_555
C4_9 C3_9 1_555 1_555
H1_9 C4_9 1_555 1_555
O7_5 C5_9 1_555 1_555
O10 C5_9 1_555 1_555
C5_9 C6_9 1_555 1_555
C6_9 C4_9 1_555 1_555

#END
