
###############################################################################
#
# This file contains modified crystal structure data generated from the
# MOF subset of the Cambridge Structural Database (CSD) v543 
# hosted by the Cambridge Crystallographic Data Centre (CCDC).
#
# This work is licensed under the Creative Commons
# Attribution-NonCommercial-ShareAlike 4.0 International License.
# To view a copy of this license, visit
# http://creativecommons.org/licenses/by-nc-sa/4.0/
# or send a letter to
# Creative Commons, PO Box 1866, Mountain View, CA 94042, USA.
#
# CIF created using the CSD Python API on 29 September 2022
# The structure has been converted into the P1 space group
# The structure has a 3D framework
# The original CSD entry KOSLOV is in the rhombohedral crystal system
# The framework has been calculated to contain at least 10.0% void space
# The void calculation uses a probe of radius 1.32A, grid spacing 0.4
#
###############################################################################

data_KOSLOV
_chemical_formula_moiety         '(C72 H18 Ni6 O44)n'
_symmetry_cell_setting           triclinic
_symmetry_space_group_name_H-M   'P 1'
_symmetry_Int_Tables_number      1
_space_group_name_Hall           'P 1'
loop_
_symmetry_equiv_pos_site_id
_symmetry_equiv_pos_as_xyz
1 x,y,z
_cell_length_a                   25.802(5)
_cell_length_b                   25.802
_cell_length_c                   6.7613(17)
_cell_angle_alpha                90
_cell_angle_beta                 90
_cell_angle_gamma                120
_cell_volume                     3898.23
loop_
_atom_site_label
_atom_site_type_symbol
_atom_site_fract_x
_atom_site_fract_y
_atom_site_fract_z
_atom_site_U_iso_or_equiv
_atom_site_thermal_displace_type
Ni6 Ni 0.6601(19) 0.0393(10) 0.224(4) 0.0080 Uiso
O9 O 0.6409(25) 0.0117(18) 0.750(8) 0.0150 Uiso
O11 O 0.7041(18) 0.0257(25) 0.416(8) 0.0150 Uiso
Ni9 Ni 0.7125(16) 0.0065(19) 0.890(4) 0.0080 Uiso
C3 C 0.6469(16) 0.8685(17) 0.057(6) 0.0200 Uiso
C4 C 0.6341(21) 0.9105(18) 0.171(6) 0.0320 Uiso
O2 O 0.6550(18) 0.9626(18) 0.083(8) 0.0150 Uiso
O3 O 0.6120(28) 0.8921(26) 0.347(10) 0.0660 Uiso
C5 C 0.6314(23) 0.8157(12) 0.129(7) 0.0060 Uiso
H2 H 0.620(4) 0.8102(22) 0.282(15) 0.0200 Uiso
C6 C 0.6469(16) 0.7784(23) 0.057(6) 0.0200 Uiso
C7 C 0.6341(21) 0.7236(28) 0.171(6) 0.0320 Uiso
O4 O 0.6550(18) 0.6924(25) 0.083(8) 0.0150 Uiso
O5 O 0.6120(28) 0.7199(38) 0.347(10) 0.0660 Uiso
Ni3 Ni 0.6274(10) 0.9542(16) 0.557(4) 0.0080 Uiso
Ni4 Ni 0.6274(10) 0.6732(19) 0.557(4) 0.0080 Uiso
Ni8 Ni 0.6601(19) 0.6209(16) 0.224(4) 0.0080 Uiso
C1 C 0.6615(18) 0.8775(19) 0.827(7) 0.0070 Uiso
C2 C 0.6718(25) 0.8359(13) 0.748(10) 0.0010 Uiso
H1 H 0.670(6) 0.8348(28) 0.606(24) 0.0700 Uiso
O1 O 0.6709(20) 0.9227(21) 0.763(7) 0.0110 Uiso
C8 C 0.6615(18) 0.7840(26) 0.827(7) 0.0070 Uiso
O6 O 0.6709(20) 0.7482(29) 0.763(7) 0.0110 Uiso
O7 O 0.5851(29) 0.9958(20) 0.430(7) 0.0110 Uiso
O8 O 0.5851(29) 0.5894(21) 0.430(7) 0.0110 Uiso
O10 O 0.6409(25) 0.6293(18) 0.750(8) 0.0150 Uiso
O12 O 0.7041(18) 0.6783(18) 0.416(8) 0.0150 Uiso
Ni10 Ni 0.7125(16) 0.7059(10) 0.890(4) 0.0080 Uiso
Ni8_2 Ni 0.3791(16) 0.0393(25) 0.224(4) 0.0080 Uiso
O10_2 O 0.3707(18) 0.0117(31) 0.750(8) 0.0150 Uiso
O12_2 O 0.3217(18) 0.0257(25) 0.416(8) 0.0150 Uiso
Ni10_2 Ni 0.2941(10) 0.0065(19) 0.890(4) 0.0080 Uiso
C3_2 C 0.1315(17) 0.7784(23) 0.057(6) 0.0200 Uiso
C4_2 C 0.0895(18) 0.7236(28) 0.171(6) 0.0320 Uiso
O2_2 O 0.0374(18) 0.6924(25) 0.083(8) 0.0150 Uiso
O3_2 O 0.1079(26) 0.7199(38) 0.347(10) 0.0660 Uiso
C5_2 C 0.1843(12) 0.8157(26) 0.129(7) 0.0060 Uiso
H2_2 H 0.1898(22) 0.8098(46) 0.282(15) 0.0200 Uiso
C6_2 C 0.2216(23) 0.8685(28) 0.057(6) 0.0200 Uiso
C7_2 C 0.2764(28) 0.9105(35) 0.171(6) 0.0320 Uiso
O4_2 O 0.3076(25) 0.9626(31) 0.083(8) 0.0150 Uiso
O5_2 O 0.2801(38) 0.8921(47) 0.347(10) 0.0660 Uiso
Ni3_2 Ni 0.0458(16) 0.6732(19) 0.557(4) 0.0080 Uiso
Ni4_2 Ni 0.3268(19) 0.9542(21) 0.557(4) 0.0080 Uiso
C1_2 C 0.1225(19) 0.7840(26) 0.827(7) 0.0070 Uiso
C2_2 C 0.1641(13) 0.8359(28) 0.748(10) 0.0010 Uiso
H1_2 H 0.1652(28) 0.8352(66) 0.606(24) 0.0700 Uiso
O1_2 O 0.0773(21) 0.7482(29) 0.763(7) 0.0110 Uiso
C8_2 C 0.2160(26) 0.8775(32) 0.827(7) 0.0070 Uiso
O6_2 O 0.2518(29) 0.9227(35) 0.763(7) 0.0110 Uiso
O7_2 O 0.0042(20) 0.5894(35) 0.430(7) 0.0110 Uiso
O8_2 O 0.4106(21) 0.9958(36) 0.430(7) 0.0110 Uiso
Ni6_2 Ni 0.9607(10) 0.6209(21) 0.224(4) 0.0080 Uiso
O9_2 O 0.9883(18) 0.6293(31) 0.750(8) 0.0150 Uiso
O11_2 O 0.9743(25) 0.6783(31) 0.416(8) 0.0150 Uiso
Ni9_2 Ni 0.9935(19) 0.7059(25) 0.890(4) 0.0080 Uiso
C3_3 C 0.2216(23) 0.3531(16) 0.057(6) 0.0200 Uiso
C4_3 C 0.2764(28) 0.3659(21) 0.171(6) 0.0320 Uiso
O2_3 O 0.3076(25) 0.3450(18) 0.083(8) 0.0150 Uiso
O3_3 O 0.2801(38) 0.3880(28) 0.347(10) 0.0660 Uiso
C5_3 C 0.1843(26) 0.3686(23) 0.129(7) 0.0060 Uiso
H2_3 H 0.1902(46) 0.380(4) 0.282(15) 0.0200 Uiso
C6_3 C 0.1315(28) 0.3531(16) 0.057(6) 0.0200 Uiso
C7_3 C 0.0895(35) 0.3659(21) 0.171(6) 0.0320 Uiso
O4_3 O 0.0374(31) 0.3450(18) 0.083(8) 0.0150 Uiso
O5_3 O 0.1079(47) 0.3880(28) 0.347(10) 0.0660 Uiso
Ni3_3 Ni 0.3268(19) 0.3726(10) 0.557(4) 0.0080 Uiso
Ni4_3 Ni 0.0458(21) 0.3726(10) 0.557(4) 0.0080 Uiso
Ni6_3 Ni 0.3791(21) 0.3399(19) 0.224(4) 0.0080 Uiso
C1_3 C 0.2160(26) 0.3385(18) 0.827(7) 0.0070 Uiso
C2_3 C 0.1641(28) 0.3282(25) 0.748(10) 0.0010 Uiso
H1_3 H 0.1648(66) 0.330(6) 0.606(24) 0.0700 Uiso
O1_3 O 0.2518(29) 0.3291(20) 0.763(7) 0.0110 Uiso
C8_3 C 0.1225(32) 0.3385(18) 0.827(7) 0.0070 Uiso
O6_3 O 0.0773(35) 0.3291(20) 0.763(7) 0.0110 Uiso
O7_3 O 0.4106(35) 0.4149(29) 0.430(7) 0.0110 Uiso
O8_3 O 0.0042(36) 0.4149(29) 0.430(7) 0.0110 Uiso
O9_3 O 0.3707(31) 0.3591(25) 0.750(8) 0.0150 Uiso
O11_3 O 0.3217(31) 0.2959(18) 0.416(8) 0.0150 Uiso
Ni9_3 Ni 0.2941(25) 0.2875(16) 0.890(4) 0.0080 Uiso
Ni8_3 Ni 0.9607(25) 0.3399(19) 0.224(4) 0.0080 Uiso
O10_3 O 0.9883(31) 0.3591(25) 0.750(8) 0.0150 Uiso
O12_3 O 0.9743(25) 0.2959(18) 0.416(8) 0.0150 Uiso
Ni10_3 Ni 0.9935(19) 0.2875(16) 0.890(4) 0.0080 Uiso
C2_4 C 0.0051(25) 0.5026(13) 0.415(10) 0.0010 Uiso
H1_4 H 0.003(6) 0.5015(28) 0.273(24) 0.0700 Uiso
O3_4 O 0.9453(28) 0.5588(26) 0.014(10) 0.0660 Uiso
O5_4 O 0.9453(28) 0.3866(38) 0.014(10) 0.0660 Uiso
C1_4 C 0.9948(18) 0.5442(19) 0.494(7) 0.0070 Uiso
C3_4 C 0.9802(16) 0.5352(17) 0.724(6) 0.0200 Uiso
C4_4 C 0.9674(21) 0.5772(18) 0.838(6) 0.0320 Uiso
C5_4 C 0.9647(23) 0.4824(12) 0.796(7) 0.0060 Uiso
H2_4 H 0.953(4) 0.4769(22) 0.949(15) 0.0200 Uiso
C6_4 C 0.9802(16) 0.4451(23) 0.724(6) 0.0200 Uiso
C7_4 C 0.9674(21) 0.3903(28) 0.838(6) 0.0320 Uiso
C8_4 C 0.9948(18) 0.4507(26) 0.494(7) 0.0070 Uiso
O7_4 O 0.9185(29) 0.6624(20) 0.096(7) 0.0110 Uiso
O8_4 O 0.9185(29) 0.2560(21) 0.096(7) 0.0110 Uiso
O3_5 O 0.4412(26) 0.3866(38) 0.014(10) 0.0660 Uiso
O5_5 O 0.6134(38) 0.5588(47) 0.014(10) 0.0660 Uiso
C1_5 C 0.4558(19) 0.4507(26) 0.494(7) 0.0070 Uiso
C2_5 C 0.4974(13) 0.5026(28) 0.415(10) 0.0010 Uiso
C3_5 C 0.4648(17) 0.4451(23) 0.724(6) 0.0200 Uiso
C4_5 C 0.4228(18) 0.3903(28) 0.838(6) 0.0320 Uiso
H1_5 H 0.4985(28) 0.5019(66) 0.273(24) 0.0700 Uiso
C5_5 C 0.5176(12) 0.4824(26) 0.796(7) 0.0060 Uiso
H2_5 H 0.5231(22) 0.4765(46) 0.949(15) 0.0200 Uiso
C6_5 C 0.5549(23) 0.5352(28) 0.724(6) 0.0200 Uiso
C7_5 C 0.6097(28) 0.5772(35) 0.838(6) 0.0320 Uiso
C8_5 C 0.5493(26) 0.5442(32) 0.494(7) 0.0070 Uiso
O7_5 O 0.3376(20) 0.2560(35) 0.096(7) 0.0110 Uiso
O8_5 O 0.7440(21) 0.6624(36) 0.096(7) 0.0110 Uiso
O3_6 O 0.6134(38) 0.0547(28) 0.014(10) 0.0660 Uiso
O5_6 O 0.4412(47) 0.0547(28) 0.014(10) 0.0660 Uiso
C1_6 C 0.5493(26) 0.0052(18) 0.494(7) 0.0070 Uiso
C3_6 C 0.5549(23) 0.0198(16) 0.724(6) 0.0200 Uiso
C4_6 C 0.6097(28) 0.0326(21) 0.838(6) 0.0320 Uiso
C5_6 C 0.5176(26) 0.0353(23) 0.796(7) 0.0060 Uiso
H2_6 H 0.5235(46) 0.047(4) 0.949(15) 0.0200 Uiso
C6_6 C 0.4648(28) 0.0198(16) 0.724(6) 0.0200 Uiso
C7_6 C 0.4228(35) 0.0326(21) 0.838(6) 0.0320 Uiso
C8_6 C 0.4558(32) 0.0052(18) 0.494(7) 0.0070 Uiso
O7_6 O 0.7440(35) 0.0815(29) 0.096(7) 0.0110 Uiso
O8_6 O 0.3376(36) 0.0815(29) 0.096(7) 0.0110 Uiso
C2_6 C 0.4974(28) 0.9949(25) 0.415(10) 0.0010 Uiso
H1_6 H 0.4981(66) 0.997(6) 0.273(24) 0.0700 Uiso
C1_7 C 0.3282(18) 0.2108(19) 0.160(7) 0.0070 Uiso
C2_7 C 0.3385(25) 0.1692(13) 0.081(10) 0.0010 Uiso
C3_7 C 0.3136(16) 0.2018(17) 0.390(6) 0.0200 Uiso
C4_7 C 0.3008(21) 0.2438(18) 0.504(6) 0.0320 Uiso
O3_7 O 0.2787(28) 0.2254(26) 0.680(10) 0.0660 Uiso
C5_7 C 0.2981(23) 0.1490(12) 0.462(7) 0.0060 Uiso
H2_7 H 0.287(4) 0.1435(22) 0.615(15) 0.0200 Uiso
C6_7 C 0.3136(16) 0.1117(23) 0.390(6) 0.0200 Uiso
C7_7 C 0.3008(21) 0.0569(28) 0.504(6) 0.0320 Uiso
O5_7 O 0.2787(28) 0.0532(38) 0.680(10) 0.0660 Uiso
C8_7 C 0.3282(18) 0.1173(26) 0.160(7) 0.0070 Uiso
H1_7 H 0.337(6) 0.1681(28) 0.939(24) 0.0700 Uiso
C1_8 C 0.7892(19) 0.1173(26) 0.160(7) 0.0070 Uiso
C2_8 C 0.8308(13) 0.1692(28) 0.081(10) 0.0010 Uiso
C3_8 C 0.7982(17) 0.1117(23) 0.390(6) 0.0200 Uiso
C4_8 C 0.7562(18) 0.0569(28) 0.504(6) 0.0320 Uiso
O3_8 O 0.7746(26) 0.0532(38) 0.680(10) 0.0660 Uiso
C5_8 C 0.8510(12) 0.1490(26) 0.462(7) 0.0060 Uiso
H2_8 H 0.8565(22) 0.1431(46) 0.615(15) 0.0200 Uiso
C6_8 C 0.8883(23) 0.2018(28) 0.390(6) 0.0200 Uiso
C7_8 C 0.9431(28) 0.2438(35) 0.504(6) 0.0320 Uiso
O5_8 O 0.9468(38) 0.2254(47) 0.680(10) 0.0660 Uiso
C8_8 C 0.8827(26) 0.2108(32) 0.160(7) 0.0070 Uiso
H1_8 H 0.8319(28) 0.1685(66) 0.939(24) 0.0700 Uiso
C1_9 C 0.8827(26) 0.6718(18) 0.160(7) 0.0070 Uiso
C2_9 C 0.8308(28) 0.6615(25) 0.081(10) 0.0010 Uiso
C3_9 C 0.8883(23) 0.6864(16) 0.390(6) 0.0200 Uiso
C4_9 C 0.9431(28) 0.6992(21) 0.504(6) 0.0320 Uiso
O3_9 O 0.9468(38) 0.7213(28) 0.680(10) 0.0660 Uiso
C5_9 C 0.8510(26) 0.7019(23) 0.462(7) 0.0060 Uiso
H2_9 H 0.8569(46) 0.713(4) 0.615(15) 0.0200 Uiso
C6_9 C 0.7982(28) 0.6864(16) 0.390(6) 0.0200 Uiso
C7_9 C 0.7562(35) 0.6992(21) 0.504(6) 0.0320 Uiso
O5_9 O 0.7746(47) 0.7213(28) 0.680(10) 0.0660 Uiso
C8_9 C 0.7892(32) 0.6718(18) 0.160(7) 0.0070 Uiso
H1_9 H 0.8315(66) 0.663(6) 0.939(24) 0.0700 Uiso
loop_
_geom_bond_atom_site_label_1
_geom_bond_atom_site_label_2
_geom_bond_site_symmetry_1
_geom_bond_site_symmetry_2
O9 Ni9 1_555 1_555
O11 Ni6 1_555 1_555
C4 C3 1_555 1_555
O2 C4 1_555 1_555
O3 C4 1_555 1_555
C5 C3 1_555 1_555
H2 C5 1_555 1_555
C6 C5 1_555 1_555
C7 C6 1_555 1_555
O4 C7 1_555 1_555
O5 C7 1_555 1_555
Ni3 O3 1_555 1_555
Ni4 O5 1_555 1_555
Ni8 O4 1_555 1_555
Ni4 Ni8 1_555 1_555
C1 C2 1_555 1_555
C2 H1 1_555 1_555
O1 C1 1_555 1_555
Ni3 O1 1_555 1_555
C8 C2 1_555 1_555
O6 C8 1_555 1_555
Ni4 O6 1_555 1_555
O7 Ni3 1_555 1_555
O8 Ni4 1_555 1_555
O10 Ni4 1_555 1_555
O12 Ni4 1_555 1_555
O6 Ni10 1_555 1_555
Ni4 Ni10 1_555 1_555
O8 Ni8 1_555 1_555
O10 Ni10 1_555 1_555
O12 Ni8 1_555 1_555
O10_2 Ni10_2 1_555 1_555
O12_2 Ni8_2 1_555 1_555
C4_2 C3_2 1_555 1_555
O2_2 C4_2 1_555 1_555
O3_2 C4_2 1_555 1_555
C5_2 C3_2 1_555 1_555
H2_2 C5_2 1_555 1_555
C6_2 C5_2 1_555 1_555
C7_2 C6_2 1_555 1_555
O4_2 C7_2 1_555 1_555
O5_2 C7_2 1_555 1_555
Ni3_2 O3_2 1_555 1_555
Ni4_2 O5_2 1_555 1_555
C1_2 C2_2 1_555 1_555
C2_2 H1_2 1_555 1_555
O1_2 C1_2 1_555 1_555
Ni3_2 O1_2 1_555 1_555
C8_2 C2_2 1_555 1_555
O6_2 C8_2 1_555 1_555
Ni4_2 O6_2 1_555 1_555
O7_2 Ni3_2 1_555 1_555
O8_2 Ni4_2 1_555 1_555
O9_2 Ni9_2 1_555 1_555
O11_2 Ni6_2 1_555 1_555
C4_3 C3_3 1_555 1_555
O2_3 C4_3 1_555 1_555
O3_3 C4_3 1_555 1_555
C5_3 C3_3 1_555 1_555
H2_3 C5_3 1_555 1_555
C6_3 C5_3 1_555 1_555
C7_3 C6_3 1_555 1_555
O4_3 C7_3 1_555 1_555
O5_3 C7_3 1_555 1_555
Ni3_3 O3_3 1_555 1_555
Ni4_3 O5_3 1_555 1_555
Ni6_3 O2_3 1_555 1_555
Ni3_3 Ni6_3 1_555 1_555
C1_3 C2_3 1_555 1_555
C2_3 H1_3 1_555 1_555
O1_3 C1_3 1_555 1_555
Ni3_3 O1_3 1_555 1_555
C8_3 C2_3 1_555 1_555
O6_3 C8_3 1_555 1_555
Ni4_3 O6_3 1_555 1_555
O7_3 Ni3_3 1_555 1_555
O8_3 Ni4_3 1_555 1_555
O9_3 Ni3_3 1_555 1_555
O11_3 Ni3_3 1_555 1_555
Ni9_3 O1_3 1_555 1_555
Ni3_3 Ni9_3 1_555 1_555
O7_3 Ni6_3 1_555 1_555
O9_3 Ni9_3 1_555 1_555
O11_3 Ni6_3 1_555 1_555
O10_3 Ni10_3 1_555 1_555
O12_3 Ni8_3 1_555 1_555
C2_4 H1_4 1_555 1_555
Ni6_2 O3_4 1_555 1_555
Ni8_3 O5_4 1_555 1_555
C3_4 C1_4 1_555 1_555
C4_4 C3_4 1_555 1_555
O9_2 C4_4 1_555 1_555
C5_4 C3_4 1_555 1_555
H2_4 C5_4 1_555 1_555
C6_4 C5_4 1_555 1_555
C7_4 C6_4 1_555 1_555
O10_3 C7_4 1_555 1_555
O7_4 Ni6_2 1_555 1_555
O8_4 Ni8_3 1_555 1_555
C6_4 C8_4 1_555 1_555
Ni6_3 O3_5 1_555 1_555
Ni8 O5_5 1_555 1_555
C1_5 C2_5 1_555 1_555
C2_5 H1_5 1_555 1_555
C3_5 C1_5 1_555 1_555
C4_5 C3_5 1_555 1_555
O7_3 C1_5 1_555 1_555
O9_3 C4_5 1_555 1_555
C5_5 C3_5 1_555 1_555
H2_5 C5_5 1_555 1_555
C6_5 C5_5 1_555 1_555
C7_5 C6_5 1_555 1_555
O10 C7_5 1_555 1_555
C8_5 C2_5 1_555 1_555
O8 C8_5 1_555 1_555
O7_5 Ni6_3 1_555 1_555
O8_5 Ni8 1_555 1_555
C6_5 C8_5 1_555 1_555
Ni6 O3_6 1_555 1_555
Ni8_2 O5_6 1_555 1_555
C3_6 C1_6 1_555 1_555
C4_6 C3_6 1_555 1_555
O9 C4_6 1_555 1_555
C5_6 C3_6 1_555 1_555
H2_6 C5_6 1_555 1_555
C6_6 C5_6 1_555 1_555
C7_6 C6_6 1_555 1_555
O10_2 C7_6 1_555 1_555
O7_6 Ni6 1_555 1_555
O8_6 Ni8_2 1_555 1_555
C6_6 C8_6 1_555 1_555
C2_6 H1_6 1_555 1_555
C1_7 C2_7 1_555 1_555
C3_7 C1_7 1_555 1_555
C4_7 C3_7 1_555 1_555
O7_5 C1_7 1_555 1_555
O11_3 C4_7 1_555 1_555
O3_7 C4_7 1_555 1_555
C5_7 C3_7 1_555 1_555
H2_7 C5_7 1_555 1_555
C6_7 C5_7 1_555 1_555
C7_7 C6_7 1_555 1_555
O12_2 C7_7 1_555 1_555
O5_7 C7_7 1_555 1_555
C8_7 C2_7 1_555 1_555
O8_6 C8_7 1_555 1_555
Ni9_3 O3_7 1_555 1_555
Ni10_2 O5_7 1_555 1_555
C6_7 C8_7 1_555 1_555
C1_8 C2_8 1_555 1_555
C3_8 C1_8 1_555 1_555
C4_8 C3_8 1_555 1_555
O7_6 C1_8 1_555 1_555
O11 C4_8 1_555 1_555
O3_8 C4_8 1_555 1_555
C5_8 C3_8 1_555 1_555
H2_8 C5_8 1_555 1_555
C6_8 C5_8 1_555 1_555
C7_8 C6_8 1_555 1_555
O12_3 C7_8 1_555 1_555
O5_8 C7_8 1_555 1_555
C8_8 C2_8 1_555 1_555
O8_4 C8_8 1_555 1_555
Ni9 O3_8 1_555 1_555
Ni10_3 O5_8 1_555 1_555
C6_8 C8_8 1_555 1_555
C1_9 C2_9 1_555 1_555
C3_9 C1_9 1_555 1_555
C4_9 C3_9 1_555 1_555
O7_4 C1_9 1_555 1_555
O11_2 C4_9 1_555 1_555
O3_9 C4_9 1_555 1_555
C5_9 C3_9 1_555 1_555
H2_9 C5_9 1_555 1_555
C6_9 C5_9 1_555 1_555
C7_9 C6_9 1_555 1_555
O12 C7_9 1_555 1_555
O5_9 C7_9 1_555 1_555
C8_9 C2_9 1_555 1_555
O8_5 C8_9 1_555 1_555
Ni9_2 O3_9 1_555 1_555
Ni10 O5_9 1_555 1_555
C6_9 C8_9 1_555 1_555

#END
