
###############################################################################
#
# This file contains modified crystal structure data generated from the
# MOF subset of the Cambridge Structural Database (CSD) v543 
# hosted by the Cambridge Crystallographic Data Centre (CCDC).
#
# This work is licensed under the Creative Commons
# Attribution-NonCommercial-ShareAlike 4.0 International License.
# To view a copy of this license, visit
# http://creativecommons.org/licenses/by-nc-sa/4.0/
# or send a letter to
# Creative Commons, PO Box 1866, Mountain View, CA 94042, USA.
#
# CIF created using the CSD Python API on 29 September 2022
# The structure has been converted into the P1 space group
# The structure has a 3D framework
# The original CSD entry KOXJIT is in the monoclinic crystal system
# The framework has been calculated to contain at least 10.0% void space
# The void calculation uses a probe of radius 1.32A, grid spacing 0.4
#
###############################################################################

data_KOXJIT
_chemical_formula_moiety         '(C96 H88 Co6 N15 O4 S4)n'
_symmetry_cell_setting           triclinic
_symmetry_space_group_name_H-M   'P 1'
_symmetry_Int_Tables_number      1
_space_group_name_Hall           'P 1'
loop_
_symmetry_equiv_pos_site_id
_symmetry_equiv_pos_as_xyz
1 x,y,z
_cell_length_a                   10.3756(6)
_cell_length_b                   19.1855(11)
_cell_length_c                   16.2699(9)
_cell_angle_alpha                90
_cell_angle_beta                 106.881(3)
_cell_angle_gamma                90
_cell_volume                     3099.15
loop_
_atom_site_label
_atom_site_type_symbol
_atom_site_fract_x
_atom_site_fract_y
_atom_site_fract_z
Co1 Co 0.0000 0.5000 0.0000
S1 S 0.44655(13) 0.44435(9) 0.17687(9)
N4 N 0.1985(3) 0.47358(14) 0.05735(17)
C1 C 0.3037(3) 0.46329(19) 0.1055(2)
C6 C 0.0265(4) 0.44024(19) 0.1801(2)
C14 C 0.0268(4) 0.15813(16) 0.4603(2)
C23 C 0.0295(7) 0.2911(5) 0.7222(6)
C24 C 0.1212(10) 0.3176(6) 0.6730(7)
H3 H 0.0407 0.3831 0.2875
H4 H 0.1068 0.4222 0.1715
H7 H 0.0479 0.2580 0.4250
H8 H 0.1136 0.1441 0.4583
H18 H 0.0735 0.2898 0.7821
H19 H 0.0013 0.2454 0.7023
H20 H 0.1965 0.2871 0.6848
H21 H 0.1506 0.3631 0.6927
H22 H 0.0785 0.3187 0.6129
Co4 Co 0.0000 0.0000 0.5000
N11 N 0.0529(3) 0.60993(13) 0.01893(17)
Co1_2 Co 0.0000 0.5000 1.0000
N9 N 0.0440(3) 0.51313(13) 0.87607(15)
Co4_2 Co 0.0000 1.0000 0.5000
Co1_3 Co 1.0000 0.5000 0.0000
N1 N 0.9560(3) 0.48687(13) 0.12393(15)
N2 N 0.8651(3) 0.35071(15) 0.36181(19)
N3 N 0.9471(3) 0.10993(13) 0.48107(17)
O1 O 0.6969(4) 0.41775(17) 0.6067(2)
C2 C 0.8455(3) 0.51309(15) 0.1384(2)
C3 C 0.8010(3) 0.49353(18) 0.20771(19)
C4 C 0.8721(4) 0.44363(17) 0.26523(19)
C5 C 0.9876(4) 0.41682(19) 0.2498(2)
C7 C 0.8216(4) 0.41520(18) 0.3359(2)
C8 C 0.7327(4) 0.45285(19) 0.3680(2)
C9 C 0.6839(4) 0.42187(18) 0.4309(2)
C10 C 0.7244(4) 0.35398(17) 0.4558(2)
C11 C 0.8134(4) 0.32030(17) 0.4204(2)
C12 C 0.8626(3) 0.24840(16) 0.44511(19)
C13 C 0.9890(4) 0.22642(17) 0.4411(2)
C15 C 0.8274(3) 0.13215(17) 0.4864(2)
C16 C 0.7820(3) 0.20016(18) 0.4691(2)
C17 C 0.5896(4) 0.46127(17) 0.4676(2)
C18 C 0.5991(4) 0.45828(18) 0.5559(2)
C19 C 0.5103(3) 0.4972(2) 0.58672(19)
C20 C 0.7209(5) 0.4153(3) 0.6953(4)
C21 C 0.8524(6) 0.3800(4) 0.7384(4)
C22 C 0.8898(7) 0.3211(4) 0.6900(5)
H1 H 0.7953 0.5470 0.0996
H2 H 0.7216 0.5138 0.2151
H5 H 0.7055 0.4985 0.3478
H6 H 0.6904 0.3305 0.4966
H9 H 0.7710 0.0995 0.5031
H10 H 0.6956 0.2130 0.4730
H11 H 0.5184 0.4961 0.6464
H12 H 0.7316 0.4613 0.7177
H13 H 0.6467 0.3937 0.7083
H14 H 0.9165 0.4145 0.7653
H15 H 0.8300 0.3528 0.7810
H16 H 0.9036 0.3501 0.6459
H17 H 0.8217 0.2879 0.6656
N6 N 0.1349(3) 0.64929(15) 0.63819(19)
N7 N 0.0529(3) 0.89007(13) 0.51893(17)
O2 O 0.3031(4) 0.58225(17) 0.3933(2)
C25 C 0.1545(3) 0.48691(15) 0.8616(2)
C26 C 0.1990(3) 0.50647(18) 0.79229(19)
C27 C 0.1279(4) 0.55637(17) 0.73477(19)
C28 C 0.0124(4) 0.58318(19) 0.7502(2)
C30 C 0.1784(4) 0.58480(18) 0.6641(2)
C31 C 0.2673(4) 0.54715(19) 0.6320(2)
C32 C 0.3161(4) 0.57813(18) 0.5691(2)
C33 C 0.2756(4) 0.64602(17) 0.5442(2)
C34 C 0.1866(4) 0.67970(17) 0.5796(2)
C35 C 0.1374(3) 0.75160(16) 0.55489(19)
C36 C 0.0110(4) 0.77358(17) 0.5589(2)
C38 C 0.1726(3) 0.86785(17) 0.5136(2)
C39 C 0.2180(3) 0.79984(18) 0.5309(2)
C40 C 0.4104(4) 0.53873(17) 0.5324(2)
C41 C 0.4009(4) 0.54172(18) 0.4441(2)
C42 C 0.4897(3) 0.5028(2) 0.41328(19)
C43 C 0.2791(5) 0.5847(3) 0.3047(4)
C44 C 0.1476(6) 0.6200(4) 0.2616(4)
C45 C 0.1102(7) 0.6789(4) 0.3100(5)
H23 H 0.2047 0.4530 0.9004
H24 H 0.2784 0.4862 0.7849
H27 H 0.2945 0.5015 0.6522
H28 H 0.3096 0.6695 0.5034
H31 H 0.2290 0.9005 0.4969
H32 H 0.3044 0.7870 0.5270
H33 H 0.4816 0.5039 0.3536
H34 H 0.2684 0.5387 0.2823
H35 H 0.3533 0.6063 0.2917
H36 H 0.0835 0.5855 0.2347
H37 H 0.1700 0.6472 0.2190
H38 H 0.0964 0.6499 0.3541
H39 H 0.1783 0.7121 0.3344
Co4_3 Co 1.0000 0.0000 0.5000
Co1_4 Co 1.0000 0.5000 1.0000
S2 S 0.55345(13) 0.55565(9) 0.82313(9)
N8 N 0.8015(3) 0.52642(14) 0.94265(17)
C48 C 0.6963(3) 0.53671(19) 0.8945(2)
N10 N 0.9471(3) 0.39007(13) 0.98107(17)
Co4_4 Co 1.0000 1.0000 0.5000
C29 C 0.9735(4) 0.55976(19) 0.8199(2)
C37 C 0.9732(4) 0.84187(16) 0.5397(2)
C46 C 0.9705(7) 0.7089(5) 0.2778(6)
C47 C 0.8788(10) 0.6824(6) 0.3270(7)
H25 H 0.9593 0.6169 0.7125
H26 H 0.8932 0.5778 0.8285
H29 H 0.9521 0.7420 0.5750
H30 H 0.8864 0.8559 0.5417
H40 H 0.9265 0.7102 0.2179
H41 H 0.9987 0.7546 0.2977
H42 H 0.8035 0.7129 0.3152
H43 H 0.8494 0.6369 0.3073
H44 H 0.9215 0.6813 0.3871
C46_2 C 0.0295(7) 0.2089(5) 0.2222(6)
C47_2 C 0.1212(10) 0.1824(6) 0.1730(7)
H40_2 H 0.0735 0.2102 0.2821
H41_2 H 0.0013 0.2546 0.2023
H42_2 H 0.1965 0.2129 0.1848
H43_2 H 0.1506 0.1369 0.1927
H44_2 H 0.0785 0.1813 0.1129
C29_2 C 0.0265(4) 0.05976(19) 0.6801(2)
C37_2 C 0.0268(4) 0.34187(16) 0.9603(2)
H25_2 H 0.0407 0.1169 0.7875
H26_2 H 0.1068 0.0778 0.6715
H29_2 H 0.0479 0.2420 0.9250
H30_2 H 0.1136 0.3559 0.9583
C2_2 C 0.1545(3) 0.01309(15) 0.3616(2)
H1_2 H 0.2047 0.0470 0.4004
H2_2 H 0.2784 0.0138 0.2849
O2_2 O 0.6969(4) 0.08225(17) 0.1067(2)
C41_2 C 0.5991(4) 0.04172(18) 0.0559(2)
C42_2 C 0.5103(3) 0.0028(2) 0.08672(19)
C43_2 C 0.7209(5) 0.0847(3) 0.1953(4)
C44_2 C 0.8524(6) 0.1200(4) 0.2384(4)
C45_2 C 0.8898(7) 0.1789(4) 0.1900(5)
H31_2 H 0.7710 0.4005 0.0031
H33_2 H 0.5184 0.0039 0.1464
H34_2 H 0.7316 0.0387 0.2177
H35_2 H 0.6467 0.1063 0.2083
H36_2 H 0.9165 0.0855 0.2653
H37_2 H 0.8300 0.1472 0.2810
H38_2 H 0.9036 0.1499 0.1459
H39_2 H 0.8217 0.2121 0.1656
S2_2 S 0.44655(13) 0.05565(9) 0.67687(9)
N8_2 N 0.1985(3) 0.02642(14) 0.55735(17)
C48_2 C 0.3037(3) 0.03671(19) 0.6055(2)
N5 N 0.9560(3) 0.01313(13) 0.62393(15)
N6_2 N 0.8651(3) 0.14929(15) 0.86181(19)
C26_2 C 0.8010(3) 0.00647(18) 0.70771(19)
C27_2 C 0.8721(4) 0.05637(17) 0.76523(19)
C28_2 C 0.9876(4) 0.08318(19) 0.7498(2)
C30_2 C 0.8216(4) 0.08480(18) 0.8359(2)
C31_2 C 0.7327(4) 0.04715(19) 0.8680(2)
C32_2 C 0.6839(4) 0.07813(18) 0.9309(2)
C33_2 C 0.7244(4) 0.14602(17) 0.9558(2)
C34_2 C 0.8134(4) 0.17970(17) 0.9204(2)
C35_2 C 0.8626(3) 0.25160(16) 0.94511(19)
C36_2 C 0.9890(4) 0.27358(17) 0.9411(2)
C38_2 C 0.8274(3) 0.36785(17) 0.9864(2)
C39_2 C 0.7820(3) 0.29984(18) 0.9691(2)
C40_2 C 0.5896(4) 0.03873(17) 0.9676(2)
H27_2 H 0.7055 0.0015 0.8478
H28_2 H 0.6904 0.1695 0.9966
H32_2 H 0.6956 0.2870 0.9730
N1_2 N 0.0440(3) 0.98687(13) 0.37607(15)
N2_2 N 0.1349(3) 0.85071(15) 0.13819(19)
C3_2 C 0.1990(3) 0.99353(18) 0.29229(19)
C4_2 C 0.1279(4) 0.94363(17) 0.23477(19)
C5_2 C 0.0124(4) 0.91682(19) 0.2502(2)
C7_2 C 0.1784(4) 0.91520(18) 0.1641(2)
C8_2 C 0.2673(4) 0.95285(19) 0.1320(2)
C9_2 C 0.3161(4) 0.92187(18) 0.0691(2)
C10_2 C 0.2756(4) 0.85398(17) 0.0442(2)
C11_2 C 0.1866(4) 0.82030(17) 0.0796(2)
C12_2 C 0.1374(3) 0.74840(16) 0.05489(19)
C13_2 C 0.0110(4) 0.72642(17) 0.0589(2)
C15_2 C 0.1726(3) 0.63215(17) 0.0136(2)
C16_2 C 0.2180(3) 0.70016(18) 0.0309(2)
C17_2 C 0.4104(4) 0.96127(17) 0.0324(2)
H5_2 H 0.2945 0.9985 0.1522
H6_2 H 0.3096 0.8305 0.0034
H10_2 H 0.3044 0.7130 0.0270
O1_2 O 0.3031(4) 0.91775(17) 0.8933(2)
C18_2 C 0.4009(4) 0.95828(18) 0.9441(2)
C19_2 C 0.4897(3) 0.9972(2) 0.91328(19)
C20_2 C 0.2791(5) 0.9153(3) 0.8047(4)
C21_2 C 0.1476(6) 0.8800(4) 0.7616(4)
C22_2 C 0.1102(7) 0.8211(4) 0.8100(5)
H9_2 H 0.2290 0.5995 0.9969
H11_2 H 0.4816 0.9961 0.8536
H12_2 H 0.2684 0.9613 0.7823
H13_2 H 0.3533 0.8937 0.7917
H14_2 H 0.0835 0.9145 0.7347
H15_2 H 0.1700 0.8528 0.7190
H16_2 H 0.0964 0.8501 0.8541
H17_2 H 0.1783 0.7879 0.8344
C25_2 C 0.8455(3) 0.98691(15) 0.6384(2)
H23_2 H 0.7953 0.9530 0.5996
H24_2 H 0.7216 0.9862 0.7151
S1_2 S 0.55345(13) 0.94435(9) 0.32313(9)
N4_2 N 0.8015(3) 0.97358(14) 0.44265(17)
C1_2 C 0.6963(3) 0.96329(19) 0.3945(2)
C6_2 C 0.9735(4) 0.94024(19) 0.3199(2)
C14_2 C 0.9732(4) 0.65813(16) 0.0397(2)
H3_2 H 0.9593 0.8831 0.2125
H4_2 H 0.8932 0.9222 0.3285
H7_2 H 0.9521 0.7580 0.0750
H8_2 H 0.8864 0.6441 0.0417
C23_2 C 0.9705(7) 0.7911(5) 0.7778(6)
C24_2 C 0.8788(10) 0.8176(6) 0.8270(7)
H18_2 H 0.9265 0.7898 0.7179
H19_2 H 0.9987 0.7454 0.7977
H20_2 H 0.8035 0.7871 0.8152
H21_2 H 0.8494 0.8631 0.8073
H22_2 H 0.9215 0.8187 0.8871
loop_
_geom_bond_atom_site_label_1
_geom_bond_atom_site_label_2
_geom_bond_site_symmetry_1
_geom_bond_site_symmetry_2
S1 C1 1_555 1_555
N4 Co1 1_555 1_555
C1 N4 1_555 1_555
C24 C23 1_555 1_555
H4 C6 1_555 1_555
H8 C14 1_555 1_555
H18 C23 1_555 1_555
H19 C23 1_555 1_555
H20 C24 1_555 1_555
H21 C24 1_555 1_555
H22 C24 1_555 1_555
N11 Co1 1_555 1_555
N9 Co1_2 1_555 1_555
Co1_3 N1 1_555 1_555
N1 C2 1_555 1_555
N2 C7 1_555 1_555
O1 C18 1_555 1_555
C2 C3 1_555 1_555
C3 C4 1_555 1_555
C4 C5 1_555 1_555
C7 C4 1_555 1_555
C8 C7 1_555 1_555
C9 C8 1_555 1_555
C10 C9 1_555 1_555
C11 N2 1_555 1_555
C12 C11 1_555 1_555
C13 C12 1_555 1_555
C15 N3 1_555 1_555
C16 C12 1_555 1_555
C17 C9 1_555 1_555
C18 C17 1_555 1_555
C19 C18 1_555 1_555
C20 O1 1_555 1_555
C21 C20 1_555 1_555
C22 C21 1_555 1_555
H1 C2 1_555 1_555
H2 C3 1_555 1_555
H5 C8 1_555 1_555
H6 C10 1_555 1_555
H9 C15 1_555 1_555
H10 C16 1_555 1_555
H11 C19 1_555 1_555
H12 C20 1_555 1_555
H13 C20 1_555 1_555
H14 C21 1_555 1_555
H15 C21 1_555 1_555
H16 C22 1_555 1_555
H17 C22 1_555 1_555
N9 C25 1_555 1_555
N6 C30 1_555 1_555
O2 C41 1_555 1_555
C25 C26 1_555 1_555
C26 C27 1_555 1_555
C27 C28 1_555 1_555
C30 C27 1_555 1_555
C31 C30 1_555 1_555
C32 C31 1_555 1_555
C33 C32 1_555 1_555
C34 N6 1_555 1_555
C35 C34 1_555 1_555
C36 C35 1_555 1_555
C38 N7 1_555 1_555
C39 C35 1_555 1_555
C40 C19 1_555 1_555
C41 C40 1_555 1_555
C42 C17 1_555 1_555
C43 O2 1_555 1_555
C44 C43 1_555 1_555
C45 C44 1_555 1_555
H23 C25 1_555 1_555
H24 C26 1_555 1_555
H27 C31 1_555 1_555
H28 C33 1_555 1_555
H31 C38 1_555 1_555
H32 C39 1_555 1_555
H33 C42 1_555 1_555
H34 C43 1_555 1_555
H35 C43 1_555 1_555
H36 C44 1_555 1_555
H37 C44 1_555 1_555
H38 C45 1_555 1_555
H39 C45 1_555 1_555
Co4_2 N7 1_555 1_555
Co4_3 N3 1_555 1_555
C10 C11 1_555 1_555
C15 C16 1_555 1_555
C32 C40 1_555 1_555
C33 C34 1_555 1_555
C38 C39 1_555 1_555
C41 C42 1_555 1_555
S2 C48 1_555 1_555
N8 Co1_4 1_555 1_555
C48 N8 1_555 1_555
N10 Co1_4 1_555 1_555
C47 C46 1_555 1_555
H26 C29 1_555 1_555
H30 C37 1_555 1_555
H40 C46 1_555 1_555
H41 C46 1_555 1_555
H42 C47 1_555 1_555
H43 C47 1_555 1_555
H44 C47 1_555 1_555
C47_2 C46_2 1_555 1_555
H40_2 C46_2 1_555 1_555
H41_2 C46_2 1_555 1_555
H42_2 C47_2 1_555 1_555
H43_2 C47_2 1_555 1_555
H44_2 C47_2 1_555 1_555
H26_2 C29_2 1_555 1_555
H30_2 C37_2 1_555 1_555
H1_2 C2_2 1_555 1_555
O2_2 C41_2 1_555 1_555
C43_2 O2_2 1_555 1_555
C44_2 C43_2 1_555 1_555
C45_2 C44_2 1_555 1_555
H33_2 C42_2 1_555 1_555
H34_2 C43_2 1_555 1_555
H35_2 C43_2 1_555 1_555
H36_2 C44_2 1_555 1_555
H37_2 C44_2 1_555 1_555
H38_2 C45_2 1_555 1_555
H39_2 C45_2 1_555 1_555
S2_2 C48_2 1_555 1_555
N8_2 Co4 1_555 1_555
C48_2 N8_2 1_555 1_555
C41_2 C42_2 1_555 1_555
N6_2 C30_2 1_555 1_555
C26_2 C27_2 1_555 1_555
C27_2 C28_2 1_555 1_555
C30_2 C27_2 1_555 1_555
C31_2 C30_2 1_555 1_555
C32_2 C31_2 1_555 1_555
C33_2 C32_2 1_555 1_555
C34_2 N6_2 1_555 1_555
C35_2 C34_2 1_555 1_555
C36_2 C35_2 1_555 1_555
C38_2 N10 1_555 1_555
C39_2 C35_2 1_555 1_555
H27_2 C31_2 1_555 1_555
H28_2 C33_2 1_555 1_555
H32_2 C39_2 1_555 1_555
Co4_3 N5 1_555 1_555
C32_2 C40_2 1_555 1_555
C33_2 C34_2 1_555 1_555
C38_2 C39_2 1_555 1_555
Co4_2 N1_2 1_555 1_555
N2_2 C7_2 1_555 1_555
C3_2 C4_2 1_555 1_555
C4_2 C5_2 1_555 1_555
C7_2 C4_2 1_555 1_555
C8_2 C7_2 1_555 1_555
C9_2 C8_2 1_555 1_555
C10_2 C9_2 1_555 1_555
C11_2 N2_2 1_555 1_555
C12_2 C11_2 1_555 1_555
C13_2 C12_2 1_555 1_555
C15_2 N11 1_555 1_555
C16_2 C12_2 1_555 1_555
C17_2 C9_2 1_555 1_555
H5_2 C8_2 1_555 1_555
H6_2 C10_2 1_555 1_555
H10_2 C16_2 1_555 1_555
C10_2 C11_2 1_555 1_555
C15_2 C16_2 1_555 1_555
O1_2 C18_2 1_555 1_555
C19_2 C18_2 1_555 1_555
C20_2 O1_2 1_555 1_555
C21_2 C20_2 1_555 1_555
C22_2 C21_2 1_555 1_555
H11_2 C19_2 1_555 1_555
H12_2 C20_2 1_555 1_555
H13_2 C20_2 1_555 1_555
H14_2 C21_2 1_555 1_555
H15_2 C21_2 1_555 1_555
H16_2 C22_2 1_555 1_555
H17_2 C22_2 1_555 1_555
H23_2 C25_2 1_555 1_555
S1_2 C1_2 1_555 1_555
N4_2 Co4_4 1_555 1_555
C1_2 N4_2 1_555 1_555
H4_2 C6_2 1_555 1_555
H8_2 C14_2 1_555 1_555
C24_2 C23_2 1_555 1_555
H18_2 C23_2 1_555 1_555
H19_2 C23_2 1_555 1_555
H20_2 C24_2 1_555 1_555
H21_2 C24_2 1_555 1_555
H22_2 C24_2 1_555 1_555

#END
