
###############################################################################
#
# This file contains modified crystal structure data generated from the
# MOF subset of the Cambridge Structural Database (CSD) v543 
# hosted by the Cambridge Crystallographic Data Centre (CCDC).
#
# This work is licensed under the Creative Commons
# Attribution-NonCommercial-ShareAlike 4.0 International License.
# To view a copy of this license, visit
# http://creativecommons.org/licenses/by-nc-sa/4.0/
# or send a letter to
# Creative Commons, PO Box 1866, Mountain View, CA 94042, USA.
#
# CIF created using the CSD Python API on 29 September 2022
# The structure has been converted into the P1 space group
# The structure has a 3D framework
# The original CSD entry KOXSIC is in the triclinic crystal system
# The framework has been calculated to contain at least 10.0% void space
# The void calculation uses a probe of radius 1.32A, grid spacing 0.4
# The framework is charged, counterions have been retained in the structure
# H atom positions have been added when not included in the experimental data
#
###############################################################################

data_KOXSIC
_chemical_formula_moiety         '(C60 H62 Br2 Eu2 N6 O14 6+)n'
_symmetry_cell_setting           triclinic
_symmetry_space_group_name_H-M   'P 1'
_symmetry_Int_Tables_number      1
_space_group_name_Hall           'P 1'
loop_
_symmetry_equiv_pos_site_id
_symmetry_equiv_pos_as_xyz
1 x,y,z
_cell_length_a                   9.5744(3)
_cell_length_b                   12.8702(6)
_cell_length_c                   18.8207(9)
_cell_angle_alpha                107.276(4)
_cell_angle_beta                 98.664(3)
_cell_angle_gamma                97.376(3)
_cell_volume                     2152.14
loop_
_atom_site_label
_atom_site_type_symbol
_atom_site_fract_x
_atom_site_fract_y
_atom_site_fract_z
Br1 Br 0.4856(3) 0.1365(4) 0.1800(2)
Br1_2 Br 0.5144(3) 0.8635(4) 0.8200(2)
Eu3 Eu 0.23418(2) 0.01062(2) 0.50254(2)
O6 O 0.0946(4) 0.0983(4) 0.4324(2)
O8 O 0.0301(5) 0.8804(4) 0.4286(2)
H11 H 0.096932 0.161059 0.097309
C14 C 0.1112(8) 0.3746(7) 0.1598(5)
H12 H 0.148634 0.311777 0.169765
H13 H 0.097229 0.425502 0.207443
H14 H 0.179953 0.413437 0.138413
H15 H 0.072441 0.529207 0.098687
C19 C 0.1090(7) 0.1205(6) 0.2184(4)
H20 H 0.194512 0.117784 0.198553
C21 C 0.1074(6) 0.1090(6) 0.2888(4)
H22 H 0.193121 0.103211 0.318966
C25 C 0.0740(8) 0.6550(6) 0.2277(4)
H24 H 0.165674 0.650353 0.214836
C27 C 0.0635(7) 0.7262(6) 0.2964(4)
H26 H 0.148050 0.769380 0.331317
O5 O 0.8548(4) 0.0561(4) 0.4024(2)
O7 O 0.7952(4) 0.8299(4) 0.3980(2)
N2 N 0.9907(5) 0.1354(4) 0.1779(3)
N3 N 0.9561(6) 0.5922(4) 0.1788(3)
C8 C 0.7045(6) 0.2543(5) 0.0041(3)
C9 C 0.7767(6) 0.1807(5) 0.0286(3)
C10 C 0.7124(9) 0.0593(6) 0.0026(5)
H7 H 0.609380 0.050240 0.003002
H8 H 0.759622 0.024274 0.036878
C11 C 0.9093(6) 0.2202(4) 0.0785(3)
C12 C 0.9956(7) 0.1397(5) 0.1005(4)
H10 H 0.958399 0.064724 0.063524
C13 C 0.9687(6) 0.3329(5) 0.1039(3)
C15 C 0.8979(7) 0.4062(5) 0.0776(3)
C16 C 0.9693(8) 0.5256(5) 0.1008(4)
H16 H 0.926019 0.559152 0.063807
C17 C 0.7654(7) 0.3673(5) 0.0267(3)
H17 H 0.753108 0.515243 0.005613
H18 H 0.606696 0.461847 0.022722
C20 C 0.8689(6) 0.1360(6) 0.2033(3)
H21 H 0.786823 0.148559 0.173992
C22 C 0.8591(6) 0.1188(6) 0.2710(3)
H23 H 0.769655 0.115632 0.287055
C23 C 0.9794(6) 0.1060(5) 0.3155(3)
C24 C 0.9750(6) 0.0857(5) 0.3901(3)
C26 C 0.8274(7) 0.5972(6) 0.1966(4)
H25 H 0.745028 0.550740 0.161617
C28 C 0.8101(7) 0.6676(5) 0.2641(4)
H27 H 0.717412 0.670172 0.275941
C29 C 0.9323(6) 0.7353(5) 0.3149(3)
C30 C 0.9175(6) 0.8204(4) 0.3870(3)
Eu6 Eu 0.76582(2) 0.98938(2) 0.49746(2)
O1 O 0.4493(4) 0.0391(4) 0.5883(2)
O3 O 0.6830(4) 0.0414(4) 0.6149(2)
O4 O 0.3921(5) 0.1801(4) 0.4996(3)
N1 N 0.5643(5) 0.1731(4) 0.8691(2)
C1 C 0.5643(5) 0.0552(5) 0.6325(3)
C2 C 0.5625(5) 0.0951(4) 0.7166(3)
C3 C 0.4384(6) 0.1146(5) 0.7422(3)
H1 H 0.350871 0.101918 0.706895
C4 C 0.6887(6) 0.1152(5) 0.7699(3)
H2 H 0.775675 0.100998 0.753642
C5 C 0.4405(6) 0.1526(6) 0.8189(3)
H3 H 0.354010 0.164423 0.836447
C6 C 0.6879(5) 0.1555(5) 0.8460(3)
H4 H 0.774616 0.171060 0.882362
C7 C 0.5588(7) 0.2130(7) 0.9523(3)
H5 H 0.507513 0.151521 0.965410
H6 H 0.502602 0.273423 0.961526
H9 H 0.726492 0.024277 0.950958
C18 C 0.6864(11) 0.4461(7) 0.9965(5)
H19 H 0.648769 0.411642 0.941903
O12 O 0.2048(4) 0.1701(4) 0.6020(2)
H30 H 0.482312 0.160188 0.48403
H31 H 0.341102 0.210722 0.462693
O2 O 0.2970(6) 0.8268(5) 0.4883(4)
O9 O 0.3170(4) 0.9586(4) 0.3851(2)
O10 O 0.1452(4) 0.9439(4) 0.5976(2)
H28 H 0.302288 0.812022 0.537416
H29 H 0.222413 0.769399 0.448848
O2_2 O 0.7030(6) 0.1732(5) 0.5117(4)
O13 O 0.9699(5) 0.1196(4) 0.5714(2)
H28_2 H 0.697712 0.187978 0.462584
H29_2 H 0.777587 0.230601 0.551152
O1_2 O 0.5507(4) 0.9609(4) 0.4117(2)
O4_2 O 0.6079(5) 0.8199(4) 0.5004(3)
N1_2 N 0.4357(5) 0.8269(4) 0.1309(2)
C1_2 C 0.4357(5) 0.9448(5) 0.3675(3)
C2_2 C 0.4375(5) 0.9049(4) 0.2834(3)
C3_2 C 0.5616(6) 0.8854(5) 0.2578(3)
H1_2 H 0.649129 0.898082 0.293105
C4_2 C 0.3113(6) 0.8848(5) 0.2301(3)
H2_2 H 0.224325 0.899002 0.246358
C5_2 C 0.5595(6) 0.8474(6) 0.1811(3)
H3_2 H 0.645990 0.835577 0.163553
C6_2 C 0.3121(5) 0.8445(5) 0.1540(3)
H4_2 H 0.225384 0.828940 0.117638
C7_2 C 0.4412(7) 0.7870(7) 0.0477(3)
H5_2 H 0.492487 0.848479 0.034590
H6_2 H 0.497398 0.726577 0.038474
H9_2 H 0.273508 0.975723 0.049042
C18_2 C 0.3136(11) 0.5539(7) 0.0035(5)
H19_2 H 0.351231 0.588358 0.058097
O11 O 0.9054(4) 0.9017(4) 0.5676(2)
H30_2 H 0.517688 0.839812 0.51597
H31_2 H 0.658898 0.789278 0.537307
N2_2 N 0.0093(5) 0.8646(4) 0.8221(3)
N3_2 N 0.0439(6) 0.4078(4) 0.8212(3)
C8_2 C 0.2955(6) 0.7457(5) 0.9959(3)
C9_2 C 0.2233(6) 0.8193(5) 0.9714(3)
C10_2 C 0.2876(9) 0.9407(6) 0.9974(5)
H7_2 H 0.390620 0.949760 0.996998
H8_2 H 0.240378 0.975726 0.963122
C11_2 C 0.0907(6) 0.7798(4) 0.9215(3)
C12_2 C 0.0044(7) 0.8603(5) 0.8995(4)
H10_2 H 0.041601 0.935276 0.936476
C13_2 C 0.0313(6) 0.6671(5) 0.8961(3)
C15_2 C 0.1021(7) 0.5938(5) 0.9224(3)
C16_2 C 0.0307(8) 0.4744(5) 0.8992(4)
H16_2 H 0.073981 0.440848 0.936193
C17_2 C 0.2346(7) 0.6327(5) 0.9733(3)
H17_2 H 0.246892 0.484757 0.994387
H18_2 H 0.393304 0.538153 0.977278
C20_2 C 0.1311(6) 0.8640(6) 0.7967(3)
H21_2 H 0.213177 0.851441 0.826008
C22_2 C 0.1409(6) 0.8812(6) 0.7290(3)
H23_2 H 0.230345 0.884368 0.712945
C23_2 C 0.0206(6) 0.8940(5) 0.6845(3)
C24_2 C 0.0250(6) 0.9143(5) 0.6099(3)
C26_2 C 0.1726(7) 0.4028(6) 0.8034(4)
H25_2 H 0.254972 0.449260 0.838383
C28_2 C 0.1899(7) 0.3324(5) 0.7359(4)
H27_2 H 0.282588 0.329828 0.724059
C29_2 C 0.0677(6) 0.2647(5) 0.6851(3)
C30_2 C 0.0825(6) 0.1796(4) 0.6130(3)
H11_2 H 0.903068 0.838941 0.902691
C14_2 C 0.8888(8) 0.6254(7) 0.8402(5)
H12_2 H 0.851366 0.688223 0.830235
H13_2 H 0.902771 0.574498 0.792557
H14_2 H 0.820047 0.586563 0.861587
H15_2 H 0.927559 0.470793 0.901313
C19_2 C 0.8910(7) 0.8795(6) 0.7816(4)
H20_2 H 0.805488 0.882216 0.801447
C21_2 C 0.8926(6) 0.8910(6) 0.7112(4)
H22_2 H 0.806879 0.896789 0.681034
C25_2 C 0.9260(8) 0.3450(6) 0.7723(4)
H24_2 H 0.834326 0.349647 0.785164
C27_2 C 0.9365(7) 0.2738(6) 0.7036(4)
H26_2 H 0.851950 0.230620 0.668683
loop_
_geom_bond_atom_site_label_1
_geom_bond_atom_site_label_2
_geom_bond_site_symmetry_1
_geom_bond_site_symmetry_2
H12 C14 1_555 1_555
H13 C14 1_555 1_555
H14 C14 1_555 1_555
H20 C19 1_555 1_555
C21 C19 1_555 1_555
H22 C21 1_555 1_555
H24 C25 1_555 1_555
C27 C25 1_555 1_555
H26 C27 1_555 1_555
Eu3 O6 1_555 1_555
O5 C24 1_555 1_555
O7 C30 1_555 1_555
N2 C12 1_555 1_555
N3 C16 1_555 1_555
C9 C8 1_555 1_555
C10 C9 1_555 1_555
H7 C10 1_555 1_555
H8 C10 1_555 1_555
C11 C9 1_555 1_555
C12 C11 1_555 1_555
H10 C12 1_555 1_555
C13 C11 1_555 1_555
C15 C13 1_555 1_555
C16 C15 1_555 1_555
H16 C16 1_555 1_555
C17 C8 1_555 1_555
C20 N2 1_555 1_555
H21 C20 1_555 1_555
C22 C20 1_555 1_555
H23 C22 1_555 1_555
C24 C23 1_555 1_555
C26 N3 1_555 1_555
H25 C26 1_555 1_555
C28 C26 1_555 1_555
H27 C28 1_555 1_555
C30 C29 1_555 1_555
Eu6 O7 1_555 1_555
C15 C17 1_555 1_555
C22 C23 1_555 1_555
C28 C29 1_555 1_555
Eu3 O1 1_555 1_555
O1 C1 1_555 1_555
O3 C1 1_555 1_555
O4 Eu3 1_555 1_555
N1 C5 1_555 1_555
C1 C2 1_555 1_555
C2 C3 1_555 1_555
C3 H1 1_555 1_555
C4 C2 1_555 1_555
H2 C4 1_555 1_555
C5 C3 1_555 1_555
H3 C5 1_555 1_555
C6 N1 1_555 1_555
H4 C6 1_555 1_555
C7 N1 1_555 1_555
H5 C7 1_555 1_555
H6 C7 1_555 1_555
H19 C18 1_555 1_555
O12 Eu3 1_555 1_555
C4 C6 1_555 1_555
O4 H30 1_555 1_555
O4 H31 1_555 1_555
O2 H28 1_555 1_555
O2 H29 1_555 1_555
O2_2 H28_2 1_555 1_555
O2_2 H29_2 1_555 1_555
Eu6 O1_2 1_555 1_555
O1_2 C1_2 1_555 1_555
O9 C1_2 1_555 1_555
O4_2 Eu6 1_555 1_555
N1_2 C5_2 1_555 1_555
C1_2 C2_2 1_555 1_555
C2_2 C3_2 1_555 1_555
C3_2 H1_2 1_555 1_555
C4_2 C2_2 1_555 1_555
H2_2 C4_2 1_555 1_555
C5_2 C3_2 1_555 1_555
H3_2 C5_2 1_555 1_555
C6_2 N1_2 1_555 1_555
H4_2 C6_2 1_555 1_555
C7_2 N1_2 1_555 1_555
H5_2 C7_2 1_555 1_555
H6_2 C7_2 1_555 1_555
H19_2 C18_2 1_555 1_555
O11 Eu6 1_555 1_555
C4_2 C6_2 1_555 1_555
O4_2 H30_2 1_555 1_555
O4_2 H31_2 1_555 1_555
O10 C24_2 1_555 1_555
O12 C30_2 1_555 1_555
N2_2 C12_2 1_555 1_555
N3_2 C16_2 1_555 1_555
C9_2 C8_2 1_555 1_555
C10_2 C9_2 1_555 1_555
H7_2 C10_2 1_555 1_555
H8_2 C10_2 1_555 1_555
C11_2 C9_2 1_555 1_555
C12_2 C11_2 1_555 1_555
H10_2 C12_2 1_555 1_555
C13_2 C11_2 1_555 1_555
C15_2 C13_2 1_555 1_555
C16_2 C15_2 1_555 1_555
H16_2 C16_2 1_555 1_555
C17_2 C8_2 1_555 1_555
C20_2 N2_2 1_555 1_555
H21_2 C20_2 1_555 1_555
C22_2 C20_2 1_555 1_555
H23_2 C22_2 1_555 1_555
C24_2 C23_2 1_555 1_555
C26_2 N3_2 1_555 1_555
H25_2 C26_2 1_555 1_555
C28_2 C26_2 1_555 1_555
H27_2 C28_2 1_555 1_555
C30_2 C29_2 1_555 1_555
C15_2 C17_2 1_555 1_555
C22_2 C23_2 1_555 1_555
C28_2 C29_2 1_555 1_555
H12_2 C14_2 1_555 1_555
H13_2 C14_2 1_555 1_555
H14_2 C14_2 1_555 1_555
H20_2 C19_2 1_555 1_555
C21_2 C19_2 1_555 1_555
H22_2 C21_2 1_555 1_555
H24_2 C25_2 1_555 1_555
C27_2 C25_2 1_555 1_555
H26_2 C27_2 1_555 1_555

#END
