
###############################################################################
#
# This file contains modified crystal structure data generated from the
# MOF subset of the Cambridge Structural Database (CSD) v543 
# hosted by the Cambridge Crystallographic Data Centre (CCDC).
#
# This work is licensed under the Creative Commons
# Attribution-NonCommercial-ShareAlike 4.0 International License.
# To view a copy of this license, visit
# http://creativecommons.org/licenses/by-nc-sa/4.0/
# or send a letter to
# Creative Commons, PO Box 1866, Mountain View, CA 94042, USA.
#
# CIF created using the CSD Python API on 29 September 2022
# The structure has been converted into the P1 space group
# The structure has a 3D framework
# The original CSD entry KUCFUM is in the triclinic crystal system
# The framework has been calculated to contain at least 10.0% void space
# The void calculation uses a probe of radius 1.32A, grid spacing 0.4
# The framework is charged, counterions have been retained in the structure
#
###############################################################################

data_KUCFUM
_chemical_formula_moiety         '(C30 H24 Cu2 N2 O10 P4 3+)n'
_symmetry_cell_setting           triclinic
_symmetry_space_group_name_H-M   'P 1'
_symmetry_Int_Tables_number      1
_space_group_name_Hall           'P 1'
loop_
_symmetry_equiv_pos_site_id
_symmetry_equiv_pos_as_xyz
1 x,y,z
_cell_length_a                   7.2321(11)
_cell_length_b                   10.4515(17)
_cell_length_c                   13.307(2)
_cell_angle_alpha                67.789(11)
_cell_angle_beta                 74.744(9)
_cell_angle_gamma                71.823(9)
_cell_volume                     872.585
loop_
_atom_site_label
_atom_site_type_symbol
_atom_site_fract_x
_atom_site_fract_y
_atom_site_fract_z
_atom_site_U_iso_or_equiv
_atom_site_thermal_displace_type
O10 O 0.0217(4) 0.6638(3) 0.3482(3) 0.0197 Uani
Cu8 Cu 0.28782(7) 0.55264(5) 0.36184(4) 0.0140 Uani
P2 P 0.16992(16) 0.29726(11) 0.57973(9) 0.0142 Uani
O5 O 0.1845(4) 0.3846(3) 0.4589(2) 0.0200 Uani
O6 O 0.3331(4) 0.3019(3) 0.6337(3) 0.0227 Uani
H2 H 0.429792 0.322340 0.584983 0.0340 Uiso
C8 C 0.2389(7) 0.0820(5) 0.4949(4) 0.0204 Uani
H8 H 0.244994 0.155553 0.425847 0.0250 Uiso
C9 C 0.2084(6) 0.1137(4) 0.5892(3) 0.0159 Uani
C10 C 0.2046(6) 0.0021(4) 0.6932(4) 0.0176 Uani
C11 C 0.1808(7) 0.0266(5) 0.7948(4) 0.0251 Uani
H9 H 0.170681 0.119880 0.793826 0.0300 Uiso
Cu1 Cu 0.71218(7) 0.44736(5) 0.63816(4) 0.0140 Uani
P1 P 0.28760(16) 0.65477(11) 0.59394(9) 0.0137 Uani
O1 O 0.4489(4) 0.5615(3) 0.6594(2) 0.0193 Uani
O2 O 0.0893(4) 0.6101(3) 0.6578(2) 0.0220 Uani
H1 H 0.022253 0.616464 0.612553 0.0330 Uiso
O3 O 0.3249(4) 0.6588(3) 0.4759(2) 0.0172 Uani
N1 N 0.6232(5) 0.2881(4) 0.7687(3) 0.0192 Uani
C1 C 0.7043(7) 0.1540(5) 0.7728(4) 0.0208 Uani
H3 H 0.799015 0.136130 0.711934 0.0250 Uiso
C2 C 0.6588(7) 0.0401(5) 0.8599(4) 0.0260 Uani
C3 C 0.5233(7) 0.0603(5) 0.9509(4) 0.0239 Uani
C4 C 0.4350(9) 0.1995(6) 0.9459(5) 0.0506 Uani
C5 C 0.4886(8) 0.3107(5) 0.8539(4) 0.0395 Uani
H6 H 0.426457 0.405906 0.852142 0.0480 Uiso
C6 C 0.2514(6) 0.8335(4) 0.5954(4) 0.0163 Uani
C7 C 0.2615(6) 0.9416(5) 0.4985(4) 0.0189 Uani
H7 H 0.284392 0.921964 0.431561 0.0230 Uiso
C12 C 0.1720(8) 0.9200(5) 0.8933(4) 0.0311 Uani
H10 H 0.161295 0.938441 0.959467 0.0370 Uiso
C13 C 0.1790(9) 0.7825(6) 0.8964(4) 0.0373 Uani
H11 H 0.167916 0.708936 0.965212 0.0450 Uiso
C14 C 0.2017(8) 0.7541(5) 0.8011(4) 0.0297 Uani
H12 H 0.205746 0.660829 0.804469 0.0360 Uiso
C15 C 0.2196(6) 0.8629(4) 0.6962(4) 0.0186 Uani
O14 O 0.6751(4) 0.3412(3) 0.5241(2) 0.0172 Uani
O15 O 0.9783(4) 0.3362(3) 0.6518(3) 0.0197 Uani
O18 O 0.8155(4) 0.6154(3) 0.5411(2) 0.0200 Uani
N2 N 0.3768(5) 0.7119(4) 0.2313(3) 0.0192 Uani
C16 C 0.2957(7) 0.8460(5) 0.2272(4) 0.0208 Uani
H13 H 0.200985 0.863870 0.288066 0.0250 Uiso
C17 C 0.3412(7) 0.9599(5) 0.1401(4) 0.0260 Uani
C18 C 0.4767(7) 0.9397(5) 0.0491(4) 0.0239 Uani
C19 C 0.5650(9) 0.8005(6) 0.0541(5) 0.0506 Uani
C20 C 0.5114(8) 0.6893(5) 0.1461(4) 0.0395 Uani
H16 H 0.573543 0.594094 0.147858 0.0480 Uiso
P3 P 0.71240(16) 0.34523(11) 0.40606(9) 0.0137 Uani
O7 O 0.5511(4) 0.4385(3) 0.3406(2) 0.0193 Uani
O8 O 0.9107(4) 0.3899(3) 0.3422(2) 0.0220 Uani
H17 H 0.977747 0.383536 0.387447 0.0330 Uiso
C21 C 0.7486(6) 0.1665(4) 0.4046(4) 0.0163 Uani
C22 C 0.7385(6) 0.0584(5) 0.5015(4) 0.0189 Uani
H19 H 0.715608 0.078036 0.568439 0.0230 Uiso
C27 C 0.8280(8) 0.0800(5) 0.1067(4) 0.0311 Uani
H22 H 0.838705 0.061559 0.040533 0.0370 Uiso
C28 C 0.8210(9) 0.2175(6) 0.1036(4) 0.0373 Uani
H23 H 0.832084 0.291064 0.034788 0.0450 Uiso
C29 C 0.7983(8) 0.2459(5) 0.1989(4) 0.0297 Uani
H24 H 0.794254 0.339171 0.195531 0.0360 Uiso
C30 C 0.7804(6) 0.1371(4) 0.3038(4) 0.0186 Uani
P4 P 0.83008(16) 0.70274(11) 0.42027(9) 0.0142 Uani
O12 O 0.6669(4) 0.6981(3) 0.3663(3) 0.0227 Uani
H18 H 0.570208 0.677660 0.415017 0.0340 Uiso
C23 C 0.7611(7) 0.9180(5) 0.5051(4) 0.0204 Uani
H20 H 0.755006 0.844447 0.574153 0.0250 Uiso
C24 C 0.7916(6) 0.8863(4) 0.4108(3) 0.0159 Uani
C25 C 0.7954(6) 0.9979(4) 0.3068(4) 0.0176 Uani
C26 C 0.8192(7) 0.9734(5) 0.2052(4) 0.0251 Uani
H21 H 0.829319 0.880120 0.206174 0.0300 Uiso
H5 H 0.337653 0.219985 0.005064 0.0610 Uiso
H14 H 0.279098 0.053721 0.142130 0.0310 Uiso
H4 H 0.720902 0.946279 0.857870 0.0310 Uiso
H15 H 0.662347 0.780015 0.994936 0.0610 Uiso
loop_
_atom_site_aniso_label
_atom_site_aniso_U_11
_atom_site_aniso_U_22
_atom_site_aniso_U_33
_atom_site_aniso_U_23
_atom_site_aniso_U_13
_atom_site_aniso_U_12
O10 0.0122 0.0165 0.0228 -0.0023 -0.0021 0.0011
Cu8 0.0119 0.0107 0.0152 -0.00091 -0.0009 -0.0022
P2 0.0116 0.0106 0.0187 -0.0028 -0.0029 -0.0024
O5 0.0183 0.0136 0.025 -0.002 -0.0004 -0.0075
O6 0.0167 0.0283 0.028 -0.0129 -0.0027 -0.008
C8 0.026 0.016 0.016 -0.0022 -0.004 -0.004
C9 0.014 0.013 0.02 -0.0031 -0.0058 -0.0025
C10 0.017 0.013 0.023 -0.0067 -0.0072 0.0005
C11 0.029 0.021 0.027 -0.009 -0.008 -0.004
Cu1 0.0119 0.0107 0.0152 -0.00091 -0.0009 -0.0022
P1 0.0114 0.0109 0.0169 -0.0044 -0.0011 -0.0013
O1 0.0182 0.0146 0.0191 -0.0025 -0.005 0.0021
O2 0.0162 0.0271 0.0224 -0.007 -0.0002 -0.0086
O3 0.0132 0.0188 0.0195 -0.0075 -0.0005 -0.004
N1 0.0169 0.0165 0.0171 0.0006 -0.0012 -0.0031
C1 0.021 0.018 0.02 -0.0027 -0.002 -0.0053
C2 0.032 0.016 0.023 -0.0012 -0.003 -0.004
C3 0.021 0.022 0.021 0.002 -0.002 -0.007
C4 0.056 0.026 0.031 0.001 0.024 0.004
C5 0.044 0.018 0.03 0 0.014 0.002
C6 0.013 0.013 0.022 -0.0059 -0.0029 -0.0017
C7 0.023 0.016 0.015 -0.0027 -0.0041 -0.0032
C12 0.042 0.03 0.02 -0.008 -0.01 -0.003
C13 0.054 0.028 0.019 0 -0.008 -0.003
C14 0.047 0.015 0.021 -0.0031 -0.005 -0.003
C15 0.019 0.014 0.018 -0.002 -0.0037 -0.001
O14 0.0132 0.0188 0.0195 -0.0075 -0.0005 -0.004
O15 0.0122 0.0165 0.0228 -0.0023 -0.0021 0.0011
O18 0.0183 0.0136 0.025 -0.002 -0.0004 -0.0075
N2 0.0169 0.0165 0.0171 0.0006 -0.0012 -0.0031
C16 0.021 0.018 0.02 -0.0027 -0.002 -0.0053
C17 0.032 0.016 0.023 -0.0012 -0.003 -0.004
C18 0.021 0.022 0.021 0.002 -0.002 -0.007
C19 0.056 0.026 0.031 0.001 0.024 0.004
C20 0.044 0.018 0.03 0 0.014 0.002
P3 0.0114 0.0109 0.0169 -0.0044 -0.0011 -0.0013
O7 0.0182 0.0146 0.0191 -0.0025 -0.005 0.0021
O8 0.0162 0.0271 0.0224 -0.007 -0.0002 -0.0086
C21 0.013 0.013 0.022 -0.0059 -0.0029 -0.0017
C22 0.023 0.016 0.015 -0.0027 -0.0041 -0.0032
C27 0.042 0.03 0.02 -0.008 -0.01 -0.003
C28 0.054 0.028 0.019 0 -0.008 -0.003
C29 0.047 0.015 0.021 -0.0031 -0.005 -0.003
C30 0.019 0.014 0.018 -0.002 -0.0037 -0.001
P4 0.0116 0.0106 0.0187 -0.0028 -0.0029 -0.0024
O12 0.0167 0.0283 0.028 -0.0129 -0.0027 -0.008
C23 0.026 0.016 0.016 -0.0022 -0.004 -0.004
C24 0.014 0.013 0.02 -0.0031 -0.0058 -0.0025
C25 0.017 0.013 0.023 -0.0067 -0.0072 0.0005
C26 0.029 0.021 0.027 -0.009 -0.008 -0.004
loop_
_geom_bond_atom_site_label_1
_geom_bond_atom_site_label_2
_geom_bond_site_symmetry_1
_geom_bond_site_symmetry_2
O10 Cu8 1_555 1_555
O5 P2 1_555 1_555
O6 P2 1_555 1_555
H2 O6 1_555 1_555
H8 C8 1_555 1_555
C9 P2 1_555 1_555
C10 C9 1_555 1_555
C11 C10 1_555 1_555
H9 C11 1_555 1_555
Cu8 O5 1_555 1_555
C8 C9 1_555 1_555
Cu1 O1 1_555 1_555
P1 O1 1_555 1_555
O2 P1 1_555 1_555
H1 O2 1_555 1_555
O3 P1 1_555 1_555
N1 Cu1 1_555 1_555
C1 N1 1_555 1_555
H3 C1 1_555 1_555
C2 C1 1_555 1_555
C3 C2 1_555 1_555
C4 C3 1_555 1_555
C5 N1 1_555 1_555
H6 C5 1_555 1_555
C6 P1 1_555 1_555
C7 C6 1_555 1_555
H7 C7 1_555 1_555
H10 C12 1_555 1_555
C13 C12 1_555 1_555
H11 C13 1_555 1_555
C14 C13 1_555 1_555
H12 C14 1_555 1_555
C15 C6 1_555 1_555
Cu8 O3 1_555 1_555
O14 Cu1 1_555 1_555
O15 Cu1 1_555 1_555
O18 Cu1 1_555 1_555
C4 C5 1_555 1_555
C14 C15 1_555 1_555
N2 C16 1_555 1_555
C16 H13 1_555 1_555
C17 C16 1_555 1_555
C19 C18 1_555 1_555
C20 N2 1_555 1_555
H16 C20 1_555 1_555
Cu8 N2 1_555 1_555
P3 O7 1_555 1_555
O7 Cu8 1_555 1_555
O8 P3 1_555 1_555
H17 O8 1_555 1_555
O14 P3 1_555 1_555
C21 P3 1_555 1_555
C22 C21 1_555 1_555
H19 C22 1_555 1_555
H22 C27 1_555 1_555
C28 C27 1_555 1_555
H23 C28 1_555 1_555
C29 C28 1_555 1_555
H24 C29 1_555 1_555
C30 C21 1_555 1_555
C17 C18 1_555 1_555
C19 C20 1_555 1_555
C29 C30 1_555 1_555
O18 P4 1_555 1_555
O12 P4 1_555 1_555
H18 O12 1_555 1_555
H20 C23 1_555 1_555
C24 P4 1_555 1_555
C25 C24 1_555 1_555
C26 C25 1_555 1_555
H21 C26 1_555 1_555
C23 C24 1_555 1_555

#END
