
###############################################################################
#
# This file contains modified crystal structure data generated from the
# MOF subset of the Cambridge Structural Database (CSD) v543 
# hosted by the Cambridge Crystallographic Data Centre (CCDC).
#
# This work is licensed under the Creative Commons
# Attribution-NonCommercial-ShareAlike 4.0 International License.
# To view a copy of this license, visit
# http://creativecommons.org/licenses/by-nc-sa/4.0/
# or send a letter to
# Creative Commons, PO Box 1866, Mountain View, CA 94042, USA.
#
# CIF created using the CSD Python API on 29 September 2022
# The structure has been converted into the P1 space group
# The structure has a 3D framework
# The original CSD entry KUDVOX is in the monoclinic crystal system
# The framework has been calculated to contain at least 10.0% void space
# The void calculation uses a probe of radius 1.32A, grid spacing 0.4
#
###############################################################################

data_KUDVOX
_chemical_formula_moiety         '(C140 H108 N20 Ni4 O32)n'
_symmetry_cell_setting           triclinic
_symmetry_space_group_name_H-M   'P 1'
_symmetry_Int_Tables_number      1
_space_group_name_Hall           'P 1'
loop_
_symmetry_equiv_pos_site_id
_symmetry_equiv_pos_as_xyz
1 x,y,z
_cell_length_a                   14.5616(14)
_cell_length_b                   21.916(2)
_cell_length_c                   16.4132(17)
_cell_angle_alpha                90
_cell_angle_beta                 99.025(3)
_cell_angle_gamma                90
_cell_volume                     5173.13
loop_
_atom_site_label
_atom_site_type_symbol
_atom_site_fract_x
_atom_site_fract_y
_atom_site_fract_z
H38 H 0.3374 0.6995 0.0401
C54 C 0.3291(2) 0.82790(17) 0.0465(2)
H40 H 0.3562 0.8185 0.1029
H41 H 0.3500 0.8683 0.0336
C55 C 0.2237(2) 0.82815(16) 0.0396(2)
C56 C 0.1834(2) 0.83515(16) 0.1087(2)
H42 H 0.2208 0.8379 0.1599
C57 C 0.0870(2) 0.83817(16) 0.1036(2)
H43 H 0.0609 0.8430 0.1514
C58 C 0.0295(2) 0.83402(16) 0.0280(2)
C10 C 0.0280(3) 0.5378(2) 0.3622(3)
H6 H 0.0230 0.5520 0.3083
C27 C 0.1331(3) 0.18544(17) 0.0452(3)
H19 H 0.1085 0.2037 0.0882
C28 C 0.2289(3) 0.18185(18) 0.0481(3)
H20 H 0.2676 0.1987 0.0929
H21 H 0.4023 0.1620 0.0462
O9 O 0.43636(17) 0.64873(10) 0.76504(15)
O10 O 0.55249(19) 0.59716(11) 0.84016(18)
O11 O 0.28854(19) 0.51934(14) 0.51364(19)
O12 O 0.1543(2) 0.45589(18) 0.7307(2)
O13 O 0.47140(17) 0.32878(10) 0.70460(15)
O14 O 0.5862(2) 0.37908(13) 0.7809(3)
N6 N 0.2204(2) 0.48856(14) 0.6223(2)
C36 C 0.4786(2) 0.60022(15) 0.7906(2)
C37 C 0.4366(2) 0.54162(14) 0.7542(2)
C38 C 0.3485(2) 0.54144(16) 0.7076(2)
H28 H 0.3144 0.5774 0.6995
C39 C 0.3115(2) 0.48734(16) 0.6731(2)
C40 C 0.2167(3) 0.50751(17) 0.5404(3)
C41 C 0.1243(3) 0.51237(17) 0.4901(3)
C42 C 0.0435(2) 0.49771(16) 0.5242(2)
C43 C 0.0513(3) 0.47742(18) 0.6065(3)
C44 C 0.1437(3) 0.47259(19) 0.6592(3)
C46 C 0.1153(3) 0.5322(2) 0.4096(3)
H30 H 0.1681 0.5419 0.3869
C47 C 0.3618(2) 0.43348(15) 0.6837(2)
H31 H 0.3363 0.3974 0.6602
C48 C 0.4502(3) 0.43365(15) 0.7293(2)
C49 C 0.5075(3) 0.37584(16) 0.7391(3)
C50 C 0.4865(2) 0.48743(15) 0.7649(2)
H32 H 0.5454 0.4873 0.7964
Ni2 Ni 0.48207(3) 0.73887(2) 0.78190(3)
O15 O 0.60703(16) 0.71201(10) 0.85605(15)
H33 H 0.6522 0.7141 0.8327
H34 H 0.5978 0.6737 0.8607
O16 O 0.35532(16) 0.76544(11) 0.71010(15)
H35 H 0.3087 0.7612 0.7376
H36 H 0.3551 0.8047 0.7000
N7 N 0.42095(19) 0.74539(13) 0.88712(18)
N8 N 0.3620(2) 0.78363(14) 0.99128(19)
C51 C 0.3982(2) 0.79582(16) 0.9235(2)
H37 H 0.4065 0.8350 0.9041
C52 C 0.3593(3) 0.72157(18) 0.9987(3)
C53 C 0.3952(3) 0.69842(18) 0.9332(3)
H39 H 0.4011 0.6572 0.9217
C59 C 0.0705(3) 0.82508(18) 0.9584(2)
H44 H 0.0334 0.8210 0.9071
C60 C 0.1664(3) 0.82217(19) 0.9644(3)
H45 H 0.1927 0.8161 0.9170
Ni6 Ni 0.51793(3) 0.23887(2) 0.71810(3)
O18 O 0.52860(17) 0.82878(10) 0.79540(15)
N11 N 0.5430(2) 0.73197(13) 0.67640(18)
N4 N 0.4026(2) 0.19492(15) 0.93214(19)
N5 N 0.4570(2) 0.23197(13) 0.82360(18)
C26 C 0.0738(2) 0.16145(16) 0.9775(2)
C29 C 0.2680(3) 0.15415(18) 0.9865(2)
C30 C 0.3725(3) 0.1519(2) 0.9907(3)
H22 H 0.3912 0.1110 0.9782
C31 C 0.4400(2) 0.18205(18) 0.8649(2)
H23 H 0.4527 0.1427 0.8488
C32 C 0.4286(4) 0.2785(2) 0.8704(3)
H24 H 0.4308 0.3198 0.8577
C33 C 0.3975(4) 0.2560(2) 0.9368(3)
H25 H 0.3764 0.2784 0.9783
C34 C 0.2093(3) 0.12921(19) 0.9205(3)
H26 H 0.2342 0.1097 0.8786
C35 C 0.1137(3) 0.13313(19) 0.9164(3)
H27 H 0.0754 0.1163 0.8713
O9_2 O 0.56364(17) 0.14873(10) 0.73496(15)
O10_2 O 0.44751(19) 0.09716(11) 0.65984(18)
O11_2 O 0.71146(19) 0.01934(14) 0.98636(19)
C36_2 C 0.5214(2) 0.10022(15) 0.7094(2)
C37_2 C 0.5634(2) 0.04162(14) 0.7458(2)
C38_2 C 0.6515(2) 0.04144(16) 0.7924(2)
H28_2 H 0.6856 0.0774 0.8005
C40_2 C 0.7833(3) 0.00751(17) 0.9596(3)
O15_2 O 0.39297(16) 0.21201(10) 0.64395(15)
H33_2 H 0.3478 0.2141 0.6673
H34_2 H 0.4022 0.1737 0.6393
O16_2 O 0.64468(16) 0.26544(11) 0.78990(15)
H35_2 H 0.6913 0.2612 0.7624
H36_2 H 0.6449 0.3047 0.8000
N7_2 N 0.57905(19) 0.24539(13) 0.61288(18)
N8_2 N 0.6380(2) 0.28363(14) 0.50872(19)
C51_2 C 0.6018(2) 0.29582(16) 0.5765(2)
H37_2 H 0.5935 0.3350 0.5959
C52_2 C 0.6407(3) 0.22157(18) 0.5013(3)
H38_2 H 0.6626 0.1995 0.4599
C53_2 C 0.6048(3) 0.19842(18) 0.5668(3)
H39_2 H 0.5989 0.1572 0.5783
C54_2 C 0.6709(2) 0.32790(17) 0.4535(2)
H40_2 H 0.6438 0.3185 0.3971
H41_2 H 0.6500 0.3683 0.4664
C55_2 C 0.7763(2) 0.32815(16) 0.4604(2)
C56_2 C 0.8166(2) 0.33515(16) 0.3913(2)
H42_2 H 0.7792 0.3379 0.3401
C57_2 C 0.9130(2) 0.33817(16) 0.3964(2)
H43_2 H 0.9391 0.3430 0.3486
C58_2 C 0.9705(2) 0.33402(16) 0.4720(2)
C59_2 C 0.9295(3) 0.32508(18) 0.5416(2)
H44_2 H 0.9666 0.3210 0.5929
C60_2 C 0.8336(3) 0.32217(19) 0.5356(3)
H45_2 H 0.8073 0.3161 0.5830
N4_2 N 0.5974(2) 0.69492(15) 0.56786(19)
C26_2 C 0.9262(2) 0.66145(16) 0.5225(2)
C27_2 C 0.8669(3) 0.68544(17) 0.4548(3)
H19_2 H 0.8915 0.7037 0.4118
C28_2 C 0.7711(3) 0.68185(18) 0.4519(3)
H20_2 H 0.7324 0.6987 0.4071
C29_2 C 0.7320(3) 0.65415(18) 0.5135(2)
C30_2 C 0.6275(3) 0.6519(2) 0.5093(3)
H21_2 H 0.5977 0.6620 0.4538
H22_2 H 0.6088 0.6110 0.5218
C31_2 C 0.5600(2) 0.68205(18) 0.6351(2)
H23_2 H 0.5473 0.6427 0.6512
C32_2 C 0.5714(4) 0.7785(2) 0.6296(3)
H24_2 H 0.5692 0.8198 0.6423
C33_2 C 0.6025(4) 0.7560(2) 0.5632(3)
H25_2 H 0.6236 0.7784 0.5217
C34_2 C 0.7907(3) 0.62921(19) 0.5795(3)
H26_2 H 0.7658 0.6097 0.6214
C35_2 C 0.8863(3) 0.63313(19) 0.5836(3)
H27_2 H 0.9246 0.6163 0.6287
O12_2 O 0.8457(2) 0.95589(18) 0.7693(2)
O14_2 O 0.4138(2) 0.87908(13) 0.7191(3)
N6_2 N 0.7796(2) 0.98856(14) 0.8777(2)
C39_2 C 0.6885(2) 0.98734(16) 0.8269(2)
C42_2 C 0.9565(2) 0.99771(16) 0.9758(2)
C43_2 C 0.9487(3) 0.97742(18) 0.8935(3)
C44_2 C 0.8563(3) 0.97259(19) 0.8408(3)
C47_2 C 0.6382(2) 0.93348(15) 0.8163(2)
H31_2 H 0.6637 0.8974 0.8398
C48_2 C 0.5498(3) 0.93365(15) 0.7707(2)
C49_2 C 0.4925(3) 0.87584(16) 0.7609(3)
C50_2 C 0.5135(2) 0.98743(15) 0.7351(2)
H32_2 H 0.4546 0.9873 0.7036
N9 N 0.5974(2) 0.80508(15) 0.06786(19)
N10 N 0.5430(2) 0.76803(13) 0.17640(18)
C61 C 0.9262(2) 0.83855(16) 0.0225(2)
C64 C 0.7320(3) 0.84585(18) 0.0135(2)
C65 C 0.6275(3) 0.8481(2) 0.0093(3)
H49 H 0.6088 0.8890 0.0218
C66 C 0.5600(2) 0.81795(18) 0.1351(2)
H50 H 0.5473 0.8573 0.1512
C67 C 0.5714(4) 0.7215(2) 0.1296(3)
H51 H 0.5692 0.6802 0.1423
C68 C 0.6025(4) 0.7440(2) 0.0632(3)
H52 H 0.6236 0.7216 0.0217
C69 C 0.7907(3) 0.87079(19) 0.0795(3)
H53 H 0.7658 0.8903 0.1214
C70 C 0.8863(3) 0.86687(19) 0.0836(3)
H54 H 0.9246 0.8837 0.1287
Ni4 Ni 0.48207(3) 0.76113(2) 0.28190(3)
Ni1 Ni 0.51793(3) 0.26113(2) 0.21810(3)
O1 O 0.56364(17) 0.35127(10) 0.23496(15)
O2 O 0.44751(19) 0.40284(11) 0.15984(18)
O3 O 0.71146(19) 0.48066(14) 0.48636(19)
O4 O 0.8457(2) 0.54411(18) 0.2693(2)
O5 O 0.52860(17) 0.67122(10) 0.29540(15)
O6 O 0.4138(2) 0.62092(13) 0.2191(3)
O7 O 0.39297(16) 0.28799(10) 0.14395(15)
H1 H 0.3478 0.2859 0.1673
H2 H 0.4022 0.3263 0.1393
O8 O 0.64468(16) 0.23456(11) 0.28990(15)
H3 H 0.6913 0.2388 0.2624
H4 H 0.6449 0.1953 0.3000
N1 N 0.7796(2) 0.51144(14) 0.3777(2)
N2 N 0.57905(19) 0.25461(13) 0.11288(18)
N3 N 0.6380(2) 0.21637(14) 0.00872(19)
C1 C 0.5214(2) 0.39978(15) 0.2094(2)
C2 C 0.5634(2) 0.45838(14) 0.2458(2)
C3 C 0.6515(2) 0.45856(16) 0.2924(2)
H5 H 0.6856 0.4226 0.3005
C4 C 0.6885(2) 0.51266(16) 0.3269(2)
C5 C 0.7833(3) 0.49249(17) 0.4596(3)
C6 C 0.8757(3) 0.48763(17) 0.5099(3)
C7 C 0.9565(2) 0.50229(16) 0.4758(2)
C8 C 0.9487(3) 0.52258(18) 0.3935(3)
C9 C 0.8563(3) 0.52741(19) 0.3408(3)
C11 C 0.8847(3) 0.4678(2) 0.5904(3)
H7 H 0.8319 0.4581 0.6131
C12 C 0.6382(2) 0.56652(15) 0.3163(2)
H8 H 0.6637 0.6026 0.3398
C13 C 0.5498(3) 0.56635(15) 0.2707(2)
C14 C 0.4925(3) 0.62416(16) 0.2609(3)
C15 C 0.5135(2) 0.51257(15) 0.2351(2)
H9 H 0.4546 0.5127 0.2036
C16 C 0.6018(2) 0.20418(16) 0.0765(2)
H10 H 0.5935 0.1650 0.0959
C17 C 0.6407(3) 0.27843(18) 0.0013(3)
C18 C 0.6048(3) 0.30158(18) 0.0668(3)
H12 H 0.5989 0.3428 0.0783
C24 C 0.9295(3) 0.17492(18) 0.0416(2)
H17 H 0.9666 0.1790 0.0929
C25 C 0.8336(3) 0.17783(19) 0.0356(3)
H18 H 0.8073 0.1839 0.0830
C45 C 0.9720(3) 0.4622(2) 0.6378(3)
H29 H 0.9770 0.4480 0.6917
C62 C 0.8669(3) 0.81456(17) 0.9548(3)
H46 H 0.8915 0.7963 0.9118
C63 C 0.7711(3) 0.81815(18) 0.9519(3)
H47 H 0.7324 0.8013 0.9071
H48 H 0.5977 0.8380 0.9538
O17 O 0.47140(17) 0.17122(10) 0.20460(15)
N12 N 0.4570(2) 0.26803(13) 0.32360(18)
O4_2 O 0.1543(2) 0.04411(18) 0.2307(2)
O6_2 O 0.5862(2) 0.12092(13) 0.2809(3)
N1_2 N 0.2204(2) 0.01144(14) 0.1223(2)
C4_2 C 0.3115(2) 0.01266(16) 0.1731(2)
C7_2 C 0.0435(2) 0.00229(16) 0.0242(2)
C8_2 C 0.0513(3) 0.02258(18) 0.1065(3)
C9_2 C 0.1437(3) 0.02741(19) 0.1592(3)
C12_2 C 0.3618(2) 0.06652(15) 0.1837(2)
H8_2 H 0.3363 0.1026 0.1602
C13_2 C 0.4502(3) 0.06635(15) 0.2293(2)
C14_2 C 0.5075(3) 0.12416(16) 0.2391(3)
C15_2 C 0.4865(2) 0.01257(15) 0.2649(2)
H9_2 H 0.5454 0.0127 0.2964
N9_2 N 0.4026(2) 0.30508(15) 0.43214(19)
C61_2 C 0.0738(2) 0.33855(16) 0.4775(2)
C62_2 C 0.1331(3) 0.31456(17) 0.5452(3)
H46_2 H 0.1085 0.2963 0.5882
C63_2 C 0.2289(3) 0.31815(18) 0.5481(3)
H47_2 H 0.2676 0.3013 0.5929
C64_2 C 0.2680(3) 0.34585(18) 0.4865(2)
C65_2 C 0.3725(3) 0.3481(2) 0.4907(3)
H48_2 H 0.4023 0.3380 0.5462
H49_2 H 0.3912 0.3890 0.4782
C66_2 C 0.4400(2) 0.31795(18) 0.3649(2)
H50_2 H 0.4527 0.3573 0.3488
C67_2 C 0.4286(4) 0.2215(2) 0.3704(3)
H51_2 H 0.4308 0.1802 0.3577
C68_2 C 0.3975(4) 0.2440(2) 0.4368(3)
H52_2 H 0.3764 0.2216 0.4783
C69_2 C 0.2093(3) 0.37079(19) 0.4205(3)
H53_2 H 0.2342 0.3903 0.3786
C70_2 C 0.1137(3) 0.36687(19) 0.4164(3)
H54_2 H 0.0754 0.3837 0.3713
O1_2 O 0.43636(17) 0.85127(10) 0.26504(15)
O2_2 O 0.55249(19) 0.90284(11) 0.34016(18)
O3_2 O 0.28854(19) 0.98066(14) 0.01364(19)
O7_2 O 0.60703(16) 0.78799(10) 0.35605(15)
H1_2 H 0.6522 0.7859 0.3327
H2_2 H 0.5978 0.8263 0.3607
O8_2 O 0.35532(16) 0.73456(11) 0.21010(15)
H3_2 H 0.3087 0.7388 0.2376
H4_2 H 0.3551 0.6953 0.2000
N2_2 N 0.42095(19) 0.75461(13) 0.38712(18)
N3_2 N 0.3620(2) 0.71637(14) 0.49128(19)
C1_2 C 0.4786(2) 0.89978(15) 0.2906(2)
C2_2 C 0.4366(2) 0.95838(14) 0.2542(2)
C3_2 C 0.3485(2) 0.95856(16) 0.2076(2)
H5_2 H 0.3144 0.9226 0.1995
C5_2 C 0.2167(3) 0.99249(17) 0.0404(3)
C16_2 C 0.3982(2) 0.70418(16) 0.4235(2)
H10_2 H 0.4065 0.6650 0.4041
C17_2 C 0.3593(3) 0.77843(18) 0.4987(3)
H11 H 0.3374 0.8005 0.5401
C18_2 C 0.3952(3) 0.80158(18) 0.4332(3)
H12_2 H 0.4011 0.8428 0.4217
C19 C 0.3291(2) 0.67210(17) 0.5465(2)
H13 H 0.3562 0.6815 0.6029
H14 H 0.3500 0.6317 0.5336
C20 C 0.2237(2) 0.67185(16) 0.5396(2)
C21 C 0.1834(2) 0.66485(16) 0.6087(2)
H15 H 0.2208 0.6621 0.6599
C22 C 0.0870(2) 0.66183(16) 0.6036(2)
H16 H 0.0609 0.6570 0.6514
C23 C 0.0295(2) 0.66598(16) 0.5280(2)
C24_2 C 0.0705(3) 0.67492(18) 0.4584(2)
H17_2 H 0.0334 0.6790 0.4071
C25_2 C 0.1664(3) 0.67783(19) 0.4644(3)
H18_2 H 0.1927 0.6839 0.4170
H11_2 H 0.6626 0.3005 0.9599
C19_2 C 0.6709(2) 0.17210(17) 0.9535(2)
H13_2 H 0.6438 0.1815 0.8971
H14_2 H 0.6500 0.1317 0.9664
C20_2 C 0.7763(2) 0.17185(16) 0.9604(2)
C21_2 C 0.8166(2) 0.16485(16) 0.8913(2)
H15_2 H 0.7792 0.1621 0.8401
C22_2 C 0.9130(2) 0.16183(16) 0.8964(2)
H16_2 H 0.9391 0.1570 0.8486
C23_2 C 0.9705(2) 0.16598(16) 0.9720(2)
C6_2 C 0.1243(3) 0.98763(17) 0.9901(3)
C11_2 C 0.1153(3) 0.9678(2) 0.9096(3)
H7_2 H 0.1681 0.9581 0.8869
C45_2 C 0.0280(3) 0.9622(2) 0.8622(3)
H29_2 H 0.0230 0.9480 0.8083
C10_2 C 0.9720(3) 0.0378(2) 0.1378(3)
H6_2 H 0.9770 0.0520 0.1917
C41_2 C 0.8757(3) 0.01237(17) 0.0099(3)
C46_2 C 0.8847(3) 0.0322(2) 0.0904(3)
H30_2 H 0.8319 0.0419 0.1131
loop_
_geom_bond_atom_site_label_1
_geom_bond_atom_site_label_2
_geom_bond_site_symmetry_1
_geom_bond_site_symmetry_2
H40 C54 1_555 1_555
H41 C54 1_555 1_555
C55 C54 1_555 1_555
C56 C55 1_555 1_555
H42 C56 1_555 1_555
C57 C56 1_555 1_555
H43 C57 1_555 1_555
C58 C57 1_555 1_555
H6 C10 1_555 1_555
H19 C27 1_555 1_555
C28 C27 1_555 1_555
H20 C28 1_555 1_555
O9 C36 1_555 1_555
O10 C36 1_555 1_555
O11 C40 1_555 1_555
O12 C44 1_555 1_555
O13 C49 1_555 1_555
O14 C49 1_555 1_555
N6 C39 1_555 1_555
C36 C37 1_555 1_555
C37 C38 1_555 1_555
C38 H28 1_555 1_555
C39 C38 1_555 1_555
C40 N6 1_555 1_555
C41 C40 1_555 1_555
C43 C42 1_555 1_555
C44 N6 1_555 1_555
C46 C10 1_555 1_555
H30 C46 1_555 1_555
C47 C39 1_555 1_555
H31 C47 1_555 1_555
C48 C47 1_555 1_555
C49 C48 1_555 1_555
C50 C37 1_555 1_555
H32 C50 1_555 1_555
Ni2 O9 1_555 1_555
O15 Ni2 1_555 1_555
H33 O15 1_555 1_555
H34 O15 1_555 1_555
O16 Ni2 1_555 1_555
H35 O16 1_555 1_555
H36 O16 1_555 1_555
N7 Ni2 1_555 1_555
N8 C51 1_555 1_555
C51 N7 1_555 1_555
H37 C51 1_555 1_555
C52 N8 1_555 1_555
C53 N7 1_555 1_555
H39 C53 1_555 1_555
H44 C59 1_555 1_555
H45 C60 1_555 1_555
Ni6 O13 1_555 1_555
O18 Ni2 1_555 1_555
N11 Ni2 1_555 1_555
C41 C42 1_555 1_555
C41 C46 1_555 1_555
C43 C44 1_555 1_555
C48 C50 1_555 1_555
C52 C53 1_555 1_555
C59 C60 1_555 1_555
N4 C30 1_555 1_555
N5 C31 1_555 1_555
C30 C29 1_555 1_555
H22 C30 1_555 1_555
C31 N4 1_555 1_555
H23 C31 1_555 1_555
C32 N5 1_555 1_555
H24 C32 1_555 1_555
C33 N4 1_555 1_555
H25 C33 1_555 1_555
C34 C29 1_555 1_555
H26 C34 1_555 1_555
C35 C26 1_555 1_555
H27 C35 1_555 1_555
Ni6 N5 1_555 1_555
C32 C33 1_555 1_555
C34 C35 1_555 1_555
O9_2 C36_2 1_555 1_555
O10_2 C36_2 1_555 1_555
O11_2 C40_2 1_555 1_555
C36_2 C37_2 1_555 1_555
C37_2 C38_2 1_555 1_555
C38_2 H28_2 1_555 1_555
Ni6 O9_2 1_555 1_555
O15_2 Ni6 1_555 1_555
H33_2 O15_2 1_555 1_555
H34_2 O15_2 1_555 1_555
O16_2 Ni6 1_555 1_555
H35_2 O16_2 1_555 1_555
H36_2 O16_2 1_555 1_555
N7_2 Ni6 1_555 1_555
N8_2 C51_2 1_555 1_555
C51_2 N7_2 1_555 1_555
H37_2 C51_2 1_555 1_555
C52_2 N8_2 1_555 1_555
H38_2 C52_2 1_555 1_555
C53_2 N7_2 1_555 1_555
H39_2 C53_2 1_555 1_555
C54_2 N8_2 1_555 1_555
H40_2 C54_2 1_555 1_555
H41_2 C54_2 1_555 1_555
C55_2 C54_2 1_555 1_555
C56_2 C55_2 1_555 1_555
H42_2 C56_2 1_555 1_555
C57_2 C56_2 1_555 1_555
H43_2 C57_2 1_555 1_555
C58_2 C57_2 1_555 1_555
C59_2 C58_2 1_555 1_555
H44_2 C59_2 1_555 1_555
C60_2 C55_2 1_555 1_555
H45_2 C60_2 1_555 1_555
C52_2 C53_2 1_555 1_555
C59_2 C60_2 1_555 1_555
N4_2 C30_2 1_555 1_555
N11 C31_2 1_555 1_555
C27_2 C26_2 1_555 1_555
H19_2 C27_2 1_555 1_555
C28_2 C27_2 1_555 1_555
H20_2 C28_2 1_555 1_555
C29_2 C28_2 1_555 1_555
C30_2 C29_2 1_555 1_555
H21_2 C30_2 1_555 1_555
H22_2 C30_2 1_555 1_555
C31_2 N4_2 1_555 1_555
H23_2 C31_2 1_555 1_555
C32_2 N11 1_555 1_555
H24_2 C32_2 1_555 1_555
C33_2 N4_2 1_555 1_555
H25_2 C33_2 1_555 1_555
C34_2 C29_2 1_555 1_555
H26_2 C34_2 1_555 1_555
C35_2 C26_2 1_555 1_555
H27_2 C35_2 1_555 1_555
C32_2 C33_2 1_555 1_555
C34_2 C35_2 1_555 1_555
O12_2 C44_2 1_555 1_555
O18 C49_2 1_555 1_555
O14_2 C49_2 1_555 1_555
N6_2 C39_2 1_555 1_555
C43_2 C42_2 1_555 1_555
C44_2 N6_2 1_555 1_555
C47_2 C39_2 1_555 1_555
H31_2 C47_2 1_555 1_555
C48_2 C47_2 1_555 1_555
C49_2 C48_2 1_555 1_555
H32_2 C50_2 1_555 1_555
C43_2 C44_2 1_555 1_555
C48_2 C50_2 1_555 1_555
N9 C65 1_555 1_555
N10 C66 1_555 1_555
C65 C64 1_555 1_555
H49 C65 1_555 1_555
C66 N9 1_555 1_555
H50 C66 1_555 1_555
C67 N10 1_555 1_555
H51 C67 1_555 1_555
C68 N9 1_555 1_555
H52 C68 1_555 1_555
C69 C64 1_555 1_555
H53 C69 1_555 1_555
C70 C61 1_555 1_555
H54 C70 1_555 1_555
Ni4 N10 1_555 1_555
C67 C68 1_555 1_555
C69 C70 1_555 1_555
Ni1 O1 1_555 1_555
O1 C1 1_555 1_555
O2 C1 1_555 1_555
O3 C5 1_555 1_555
O4 C9 1_555 1_555
O5 C14 1_555 1_555
O6 C14 1_555 1_555
O7 Ni1 1_555 1_555
H1 O7 1_555 1_555
H2 O7 1_555 1_555
O8 Ni1 1_555 1_555
H3 O8 1_555 1_555
H4 O8 1_555 1_555
N1 C4 1_555 1_555
N2 Ni1 1_555 1_555
N3 C16 1_555 1_555
C1 C2 1_555 1_555
C2 C3 1_555 1_555
C3 H5 1_555 1_555
C4 C3 1_555 1_555
C5 N1 1_555 1_555
C6 C5 1_555 1_555
C7 C6 1_555 1_555
C8 C7 1_555 1_555
C9 N1 1_555 1_555
C11 C6 1_555 1_555
H7 C11 1_555 1_555
C12 C4 1_555 1_555
H8 C12 1_555 1_555
C13 C12 1_555 1_555
C14 C13 1_555 1_555
C15 C2 1_555 1_555
H9 C15 1_555 1_555
C16 N2 1_555 1_555
H10 C16 1_555 1_555
C17 N3 1_555 1_555
C18 N2 1_555 1_555
H12 C18 1_555 1_555
H17 C24 1_555 1_555
H18 C25 1_555 1_555
C45 C11 1_555 1_555
H29 C45 1_555 1_555
H46 C62 1_555 1_555
C63 C62 1_555 1_555
H47 C63 1_555 1_555
Ni4 O5 1_555 1_555
O17 Ni1 1_555 1_555
N12 Ni1 1_555 1_555
C8 C9 1_555 1_555
C13 C15 1_555 1_555
C17 C18 1_555 1_555
C24 C25 1_555 1_555
O4_2 C9_2 1_555 1_555
O17 C14_2 1_555 1_555
O6_2 C14_2 1_555 1_555
N1_2 C4_2 1_555 1_555
C8_2 C7_2 1_555 1_555
C9_2 N1_2 1_555 1_555
C12_2 C4_2 1_555 1_555
H8_2 C12_2 1_555 1_555
C13_2 C12_2 1_555 1_555
C14_2 C13_2 1_555 1_555
H9_2 C15_2 1_555 1_555
C8_2 C9_2 1_555 1_555
C13_2 C15_2 1_555 1_555
N9_2 C65_2 1_555 1_555
N12 C66_2 1_555 1_555
C62_2 C61_2 1_555 1_555
H46_2 C62_2 1_555 1_555
C63_2 C62_2 1_555 1_555
H47_2 C63_2 1_555 1_555
C64_2 C63_2 1_555 1_555
C65_2 C64_2 1_555 1_555
H48_2 C65_2 1_555 1_555
H49_2 C65_2 1_555 1_555
C66_2 N9_2 1_555 1_555
H50_2 C66_2 1_555 1_555
C67_2 N12 1_555 1_555
H51_2 C67_2 1_555 1_555
C68_2 N9_2 1_555 1_555
H52_2 C68_2 1_555 1_555
C69_2 C64_2 1_555 1_555
H53_2 C69_2 1_555 1_555
C70_2 C61_2 1_555 1_555
H54_2 C70_2 1_555 1_555
C67_2 C68_2 1_555 1_555
C69_2 C70_2 1_555 1_555
Ni4 O1_2 1_555 1_555
O1_2 C1_2 1_555 1_555
O2_2 C1_2 1_555 1_555
O3_2 C5_2 1_555 1_555
O7_2 Ni4 1_555 1_555
H1_2 O7_2 1_555 1_555
H2_2 O7_2 1_555 1_555
O8_2 Ni4 1_555 1_555
H3_2 O8_2 1_555 1_555
H4_2 O8_2 1_555 1_555
N2_2 Ni4 1_555 1_555
N3_2 C16_2 1_555 1_555
C1_2 C2_2 1_555 1_555
C2_2 C3_2 1_555 1_555
C3_2 H5_2 1_555 1_555
C16_2 N2_2 1_555 1_555
H10_2 C16_2 1_555 1_555
C17_2 N3_2 1_555 1_555
H11 C17_2 1_555 1_555
C18_2 N2_2 1_555 1_555
H12_2 C18_2 1_555 1_555
C19 N3_2 1_555 1_555
H13 C19 1_555 1_555
H14 C19 1_555 1_555
C20 C19 1_555 1_555
C21 C20 1_555 1_555
H15 C21 1_555 1_555
C22 C21 1_555 1_555
H16 C22 1_555 1_555
C23 C22 1_555 1_555
C24_2 C23 1_555 1_555
H17_2 C24_2 1_555 1_555
C25_2 C20 1_555 1_555
H18_2 C25_2 1_555 1_555
C17_2 C18_2 1_555 1_555
C24_2 C25_2 1_555 1_555
H13_2 C19_2 1_555 1_555
H14_2 C19_2 1_555 1_555
C20_2 C19_2 1_555 1_555
C21_2 C20_2 1_555 1_555
H15_2 C21_2 1_555 1_555
C22_2 C21_2 1_555 1_555
H16_2 C22_2 1_555 1_555
C23_2 C22_2 1_555 1_555
C11_2 C6_2 1_555 1_555
H7_2 C11_2 1_555 1_555
C45_2 C11_2 1_555 1_555
H29_2 C45_2 1_555 1_555
H6_2 C10_2 1_555 1_555
C46_2 C10_2 1_555 1_555
H30_2 C46_2 1_555 1_555
C41_2 C46_2 1_555 1_555

#END
