
###############################################################################
#
# This file contains modified crystal structure data generated from the
# MOF subset of the Cambridge Structural Database (CSD) v543 
# hosted by the Cambridge Crystallographic Data Centre (CCDC).
#
# This work is licensed under the Creative Commons
# Attribution-NonCommercial-ShareAlike 4.0 International License.
# To view a copy of this license, visit
# http://creativecommons.org/licenses/by-nc-sa/4.0/
# or send a letter to
# Creative Commons, PO Box 1866, Mountain View, CA 94042, USA.
#
# CIF created using the CSD Python API on 29 September 2022
# The structure has been converted into the P1 space group
# The structure has a 3D framework
# The original CSD entry KUFVAK is in the monoclinic crystal system
# The framework has been calculated to contain at least 10.0% void space
# The void calculation uses a probe of radius 1.32A, grid spacing 0.4
#
###############################################################################

data_KUFVAK
_chemical_formula_moiety         '(C88 H88 Mn8 N8 O44)n'
_symmetry_cell_setting           triclinic
_symmetry_space_group_name_H-M   'P 1'
_symmetry_Int_Tables_number      1
_space_group_name_Hall           'P 1'
loop_
_symmetry_equiv_pos_site_id
_symmetry_equiv_pos_as_xyz
1 x,y,z
_cell_length_a                   14.460(3)
_cell_length_b                   13.063(3)
_cell_length_c                   22.054(4)
_cell_angle_alpha                90
_cell_angle_beta                 125.160(10)
_cell_angle_gamma                90
_cell_volume                     3405.74
loop_
_atom_site_label
_atom_site_type_symbol
_atom_site_fract_x
_atom_site_fract_y
_atom_site_fract_z
C18 C 0.5836(15) 0.0450(13) 0.9182(12)
H10 H 0.6411 0.0266 0.9112
H11 H 0.6092 0.0292 0.9681
H12 H 0.5683 0.1169 0.9094
C19 C 0.4286(12) 0.0233(12) 0.7948(8)
H14 H 0.4267 0.0967 0.7934
H20 H 0.0950 0.0056 0.9539
H1 H 0.4247 0.6946 0.0143
O6 O 0.2030(3) 0.0569(3) 0.14976(19)
O7 O 0.3569(3) 0.0818(3) 0.26108(19)
O8 O 0.6441(3) 0.3435(3) 0.28180(17)
O9 O 0.6287(2) 0.3621(2) 0.17728(16)
C9 C 0.2843(4) 0.2838(3) 0.0554(2)
C10 C 0.3962(4) 0.3184(3) 0.0972(2)
H6 H 0.4203 0.3612 0.0752
C11 C 0.4722(3) 0.2901(3) 0.1708(2)
C12 C 0.5884(3) 0.3325(3) 0.2132(2)
C13 C 0.4385(4) 0.2248(3) 0.2042(2)
H7 H 0.4884 0.2079 0.2541
C14 C 0.3292(4) 0.1843(3) 0.1623(2)
C15 C 0.2951(4) 0.1038(4) 0.1939(3)
C16 C 0.2538(4) 0.2156(4) 0.0896(3)
H8 H 0.1803 0.1902 0.0626
C21 C 0.1328(15) 0.8347(12) 0.0314(8)
H17 H 0.0641 0.7989 0.0147
H18 H 0.1361 0.8969 0.0558
H19 H 0.1965 0.7924 0.0655
Mn4 Mn 0.77267(5) 0.44228(5) 0.27293(3)
Mn7 Mn 0.70493(5) 0.27085(5) 0.13121(3)
Mn1 Mn 0.22733(5) 0.55772(5) 0.72707(3)
Mn2 Mn 0.29507(5) 0.72915(5) 0.86879(3)
O1 O 0.2368(3) 0.5891(3) 0.88545(18)
O2 O 0.4446(3) 0.7044(3) 0.9835(2)
H2 H 0.4906 0.7579 0.9999
O3 O 0.1552(3) 0.5021(3) 0.77930(18)
O10 O 0.2105(4) 0.8187(4) 0.9063(2)
O11 O 0.3735(4) 0.8634(3) 0.8610(3)
N1 N 0.1356(5) 0.8590(5) 0.9681(3)
N2 N 0.4851(7) 0.9899(5) 0.8686(6)
C1 C 0.1834(4) 0.5141(4) 0.8443(2)
C2 C 0.1513(4) 0.4290(3) 0.8748(2)
C3 C 0.2241(4) 0.4024(4) 0.9490(2)
H3 H 0.2883 0.4418 0.9803
C4 C 0.2027(4) 0.3175(4) 0.9779(2)
C5 C 0.1017(4) 0.2645(3) 0.9299(2)
H4 H 0.0848 0.2082 0.9477
C6 C 0.0256(3) 0.2937(3) 0.8560(2)
C8 C 0.0519(4) 0.3739(3) 0.8279(2)
H5 H 0.0036 0.3911 0.7780
C17 C 0.4425(12) 0.9168(7) 0.8834(10)
H9 H 0.4908 0.9046 0.9341
H13 H 0.4678 0.9987 0.7744
H15 H 0.3527 0.9972 0.7662
C20 C 0.1944(6) 0.8011(6) 0.9515(4)
H16 H 0.2255 0.7410 0.9785
C22 C 0.0731(11) 0.9459(9) 0.9231(7)
H22 H 0.0889 0.9564 0.8868
O12 O 0.1467(3) 0.7594(3) 0.75856(18)
O13 O 0.0971(3) 0.6600(3) 0.66240(17)
O14 O 0.2030(3) 0.4431(3) 0.64976(19)
O15 O 0.3569(3) 0.4182(3) 0.76108(19)
O16 O 0.3559(3) 0.6565(3) 0.71820(17)
O17 O 0.3713(2) 0.6379(2) 0.82272(16)
Mn5 Mn 0.22733(5) 0.94228(5) 0.22707(3)
O4 O 0.8533(3) 0.2594(3) 0.74144(18)
O5 O 0.9029(3) 0.1600(3) 0.83760(17)
C7 C 0.9182(4) 0.2334(3) 0.8074(2)
H21 H 0.9936 0.9339 0.8985
Mn3 Mn 0.77267(5) 0.05772(5) 0.77293(3)
Mn6 Mn 0.70493(5) 0.22915(5) 0.63121(3)
C7_2 C 0.0818(4) 0.7334(3) 0.6926(2)
O1_2 O 0.7632(3) 0.0891(3) 0.61455(18)
O2_2 O 0.5554(3) 0.2044(3) 0.5165(2)
H1_2 H 0.5753 0.1946 0.4857
H2_2 H 0.5094 0.2579 0.5001
O3_2 O 0.8448(3) 0.0021(3) 0.72070(18)
O10_2 O 0.7895(4) 0.3187(4) 0.5937(2)
O11_2 O 0.6265(4) 0.3634(3) 0.6390(3)
N1_2 N 0.8644(5) 0.3590(5) 0.5319(3)
N2_2 N 0.5149(7) 0.4899(5) 0.6314(6)
C1_2 C 0.8166(4) 0.0141(4) 0.6557(2)
C17_2 C 0.5575(12) 0.4168(7) 0.6166(10)
H9_2 H 0.5092 0.4046 0.5659
C18_2 C 0.4164(15) 0.5450(13) 0.5818(12)
H10_2 H 0.3589 0.5266 0.5888
H11_2 H 0.3908 0.5292 0.5319
H12_2 H 0.4317 0.6169 0.5906
C19_2 C 0.5714(12) 0.5233(12) 0.7052(8)
H13_2 H 0.5322 0.4987 0.7256
H14_2 H 0.5733 0.5967 0.7066
H15_2 H 0.6473 0.4972 0.7338
C20_2 C 0.8056(6) 0.3011(6) 0.5485(4)
H16_2 H 0.7745 0.2410 0.5215
C21_2 C 0.8672(15) 0.3347(12) 0.4686(8)
H17_2 H 0.9359 0.2989 0.4853
H18_2 H 0.8639 0.3969 0.4442
H19_2 H 0.8035 0.2924 0.4345
C22_2 C 0.9269(11) 0.4459(9) 0.5769(7)
H20_2 H 0.9050 0.5056 0.5461
H22_2 H 0.9111 0.4564 0.6132
O16_2 O 0.6441(3) 0.1565(3) 0.78180(17)
O17_2 O 0.6287(2) 0.1379(2) 0.67728(16)
O6_2 O 0.7970(3) 0.5569(3) 0.35024(19)
O7_2 O 0.6431(3) 0.5818(3) 0.23892(19)
O8_2 O 0.3559(3) 0.8435(3) 0.21820(17)
O9_2 O 0.3713(2) 0.8621(2) 0.32272(16)
C2_2 C 0.8487(4) 0.9290(3) 0.6252(2)
C3_2 C 0.7759(4) 0.9024(4) 0.5510(2)
H3_2 H 0.7117 0.9418 0.5197
C4_2 C 0.7973(4) 0.8175(4) 0.5221(2)
C5_2 C 0.8983(4) 0.7645(3) 0.5701(2)
H4_2 H 0.9152 0.7082 0.5523
C6_2 C 0.9744(3) 0.7937(3) 0.6440(2)
C8_2 C 0.9481(4) 0.8739(3) 0.6721(2)
H5_2 H 0.9964 0.8911 0.7220
C9_2 C 0.7157(4) 0.7838(3) 0.4446(2)
C10_2 C 0.6038(4) 0.8184(3) 0.4028(2)
H6_2 H 0.5797 0.8612 0.4248
C11_2 C 0.5278(3) 0.7901(3) 0.3292(2)
C12_2 C 0.4116(3) 0.8325(3) 0.2868(2)
C13_2 C 0.5615(4) 0.7248(3) 0.2958(2)
H7_2 H 0.5116 0.7079 0.2459
C14_2 C 0.6708(4) 0.6843(3) 0.3377(2)
C15_2 C 0.7049(4) 0.6038(4) 0.3061(3)
C16_2 C 0.7462(4) 0.7156(4) 0.4104(3)
H8_2 H 0.8197 0.6902 0.4374
Mn7_2 Mn 0.29507(5) 0.77085(5) 0.36879(3)
O14_2 O 0.7970(3) 0.9431(3) 0.85024(19)
O15_2 O 0.6431(3) 0.9182(3) 0.73892(19)
O4_2 O 0.1467(3) 0.7406(3) 0.25856(18)
O5_2 O 0.0971(3) 0.8400(3) 0.16240(17)
C7_3 C 0.0818(4) 0.7666(3) 0.1926(2)
H21_2 H 0.0064 0.0661 0.1015
O1_3 O 0.7632(3) 0.4109(3) 0.11455(18)
O2_3 O 0.5554(3) 0.2956(3) 0.0165(2)
H2_3 H 0.5094 0.2421 0.0001
O3_3 O 0.8448(3) 0.4979(3) 0.22070(18)
O10_3 O 0.7895(4) 0.1813(4) 0.0937(2)
O11_3 O 0.6265(4) 0.1366(3) 0.1390(3)
N1_3 N 0.8644(5) 0.1410(5) 0.0319(3)
N2_3 N 0.5149(7) 0.0101(5) 0.1314(6)
C1_3 C 0.8166(4) 0.4859(4) 0.1557(2)
C2_3 C 0.8487(4) 0.5710(3) 0.1252(2)
C3_3 C 0.7759(4) 0.5976(4) 0.0510(2)
H3_3 H 0.7117 0.5582 0.0197
C4_3 C 0.7973(4) 0.6825(4) 0.0221(2)
C5_3 C 0.8983(4) 0.7355(3) 0.0701(2)
H4_3 H 0.9152 0.7918 0.0523
C6_3 C 0.9744(3) 0.7063(3) 0.1440(2)
C8_3 C 0.9481(4) 0.6261(3) 0.1721(2)
H5_3 H 0.9964 0.6089 0.2220
C17_3 C 0.5575(12) 0.0832(7) 0.1166(10)
H9_3 H 0.5092 0.0954 0.0659
H13_3 H 0.5322 0.0013 0.2256
H15_3 H 0.6473 0.0028 0.2338
C20_3 C 0.8056(6) 0.1989(6) 0.0485(4)
H16_3 H 0.7745 0.2590 0.0215
C22_3 C 0.9269(11) 0.0541(9) 0.0769(7)
H22_3 H 0.9111 0.0436 0.1132
O12_2 O 0.8533(3) 0.2406(3) 0.24144(18)
O13_2 O 0.9029(3) 0.3400(3) 0.33760(17)
H1_3 H 0.5753 0.3054 0.9857
C9_3 C 0.7157(4) 0.7162(3) 0.9446(2)
C10_3 C 0.6038(4) 0.6816(3) 0.9028(2)
H6_3 H 0.5797 0.6388 0.9248
C11_3 C 0.5278(3) 0.7099(3) 0.8292(2)
C12_3 C 0.4116(3) 0.6675(3) 0.7868(2)
C13_3 C 0.5615(4) 0.7752(3) 0.7958(2)
H7_3 H 0.5116 0.7921 0.7459
C14_3 C 0.6708(4) 0.8157(3) 0.8377(2)
C15_3 C 0.7049(4) 0.8962(4) 0.8061(3)
C16_3 C 0.7462(4) 0.7844(4) 0.9104(3)
H8_3 H 0.8197 0.8098 0.9374
C21_3 C 0.8672(15) 0.1653(12) 0.9686(8)
H17_3 H 0.9359 0.2011 0.9853
H18_3 H 0.8639 0.1031 0.9442
H19_3 H 0.8035 0.2076 0.9345
C2_4 C 0.1513(4) 0.0710(3) 0.3748(2)
C3_4 C 0.2241(4) 0.0976(4) 0.4490(2)
H3_4 H 0.2883 0.0582 0.4803
C4_4 C 0.2027(4) 0.1825(4) 0.4779(2)
C5_4 C 0.1017(4) 0.2355(3) 0.4299(2)
H4_4 H 0.0848 0.2918 0.4477
C6_4 C 0.0256(3) 0.2063(3) 0.3560(2)
C8_4 C 0.0519(4) 0.1261(3) 0.3279(2)
H5_4 H 0.0036 0.1089 0.2780
C9_4 C 0.2843(4) 0.2162(3) 0.5554(2)
C10_4 C 0.3962(4) 0.1816(3) 0.5972(2)
H6_4 H 0.4203 0.1388 0.5752
C11_4 C 0.4722(3) 0.2099(3) 0.6708(2)
C12_4 C 0.5884(3) 0.1675(3) 0.7132(2)
C13_4 C 0.4385(4) 0.2752(3) 0.7042(2)
H7_4 H 0.4884 0.2921 0.7541
C14_4 C 0.3292(4) 0.3157(3) 0.6623(2)
C15_4 C 0.2951(4) 0.3962(4) 0.6939(3)
C16_4 C 0.2538(4) 0.2844(4) 0.5896(3)
H8_4 H 0.1803 0.3098 0.5626
O1_4 O 0.2368(3) 0.9109(3) 0.38545(18)
O2_4 O 0.4446(3) 0.7956(3) 0.4835(2)
H1_4 H 0.4247 0.8054 0.5143
H2_4 H 0.4906 0.7421 0.4999
O3_4 O 0.1552(3) 0.9979(3) 0.27930(18)
O10_4 O 0.2105(4) 0.6813(4) 0.4063(2)
O11_4 O 0.3735(4) 0.6366(3) 0.3610(3)
N1_4 N 0.1356(5) 0.6410(5) 0.4681(3)
N2_4 N 0.4851(7) 0.5101(5) 0.3686(6)
C1_4 C 0.1834(4) 0.9859(4) 0.3443(2)
C17_4 C 0.4425(12) 0.5832(7) 0.3834(10)
H9_4 H 0.4908 0.5954 0.4341
C18_3 C 0.5836(15) 0.4550(13) 0.4182(12)
H10_3 H 0.6411 0.4734 0.4112
H11_3 H 0.6092 0.4708 0.4681
H12_3 H 0.5683 0.3831 0.4094
C19_3 C 0.4286(12) 0.4767(12) 0.2948(8)
H13_4 H 0.4678 0.5013 0.2744
H14_3 H 0.4267 0.4033 0.2934
H15_4 H 0.3527 0.5028 0.2662
C20_4 C 0.1944(6) 0.6989(6) 0.4515(4)
H16_4 H 0.2255 0.7590 0.4785
C21_4 C 0.1328(15) 0.6653(12) 0.5314(8)
H17_4 H 0.0641 0.7011 0.5147
H18_4 H 0.1361 0.6031 0.5558
H19_4 H 0.1965 0.7076 0.5655
C22_4 C 0.0731(11) 0.5541(9) 0.4231(7)
H20_3 H 0.0950 0.4944 0.4539
H22_4 H 0.0889 0.5436 0.3868
C7_4 C 0.9182(4) 0.2666(3) 0.3074(2)
H21_3 H 0.0064 0.4339 0.6015
C18_4 C 0.4164(15) 0.9550(13) 0.0818(12)
H10_4 H 0.3589 0.9734 0.0888
H11_4 H 0.3908 0.9708 0.0319
H12_4 H 0.4317 0.8831 0.0906
C19_4 C 0.5714(12) 0.9767(12) 0.2052(8)
H14_4 H 0.5733 0.9033 0.2066
H20_4 H 0.9050 0.9944 0.0461
H21_4 H 0.9936 0.5661 0.3985
loop_
_geom_bond_atom_site_label_1
_geom_bond_atom_site_label_2
_geom_bond_site_symmetry_1
_geom_bond_site_symmetry_2
H10 C18 1_555 1_555
H11 C18 1_555 1_555
H12 C18 1_555 1_555
H14 C19 1_555 1_555
O6 C15 1_555 1_555
O7 C15 1_555 1_555
O8 C12 1_555 1_555
O9 C12 1_555 1_555
C10 C9 1_555 1_555
H6 C10 1_555 1_555
C11 C10 1_555 1_555
C12 C11 1_555 1_555
C13 C11 1_555 1_555
H7 C13 1_555 1_555
C14 C13 1_555 1_555
C15 C14 1_555 1_555
C16 C9 1_555 1_555
H8 C16 1_555 1_555
H17 C21 1_555 1_555
H18 C21 1_555 1_555
H19 C21 1_555 1_555
Mn4 O8 1_555 1_555
Mn7 O9 1_555 1_555
O9 Mn4 1_555 1_555
C14 C16 1_555 1_555
Mn1 O3 1_555 1_555
Mn2 O1 1_555 1_555
O1 C1 1_555 1_555
O2 Mn2 1_555 1_555
H2 O2 1_555 1_555
O3 C1 1_555 1_555
O10 Mn2 1_555 1_555
O11 Mn2 1_555 1_555
N1 C20 1_555 1_555
N2 C17 1_555 1_555
C1 C2 1_555 1_555
C2 C3 1_555 1_555
C3 H3 1_555 1_555
C4 C3 1_555 1_555
C5 C4 1_555 1_555
H4 C5 1_555 1_555
C6 C5 1_555 1_555
C8 C2 1_555 1_555
H5 C8 1_555 1_555
C17 O11 1_555 1_555
H9 C17 1_555 1_555
C20 O10 1_555 1_555
H16 C20 1_555 1_555
C22 N1 1_555 1_555
H22 C22 1_555 1_555
O12 Mn2 1_555 1_555
O13 Mn1 1_555 1_555
O14 Mn1 1_555 1_555
O15 Mn1 1_555 1_555
O16 Mn1 1_555 1_555
O17 Mn1 1_555 1_555
Mn2 O17 1_555 1_555
C6 C8 1_555 1_555
O4 C7 1_555 1_555
O5 C7 1_555 1_555
Mn3 O5 1_555 1_555
Mn6 O4 1_555 1_555
O12 C7_2 1_555 1_555
O13 C7_2 1_555 1_555
Mn3 O3_2 1_555 1_555
Mn6 O1_2 1_555 1_555
O1_2 C1_2 1_555 1_555
O2_2 Mn6 1_555 1_555
H1_2 O2_2 1_555 1_555
H2_2 O2_2 1_555 1_555
O3_2 C1_2 1_555 1_555
O10_2 Mn6 1_555 1_555
O11_2 Mn6 1_555 1_555
N1_2 C20_2 1_555 1_555
N2_2 C17_2 1_555 1_555
C17_2 O11_2 1_555 1_555
H9_2 C17_2 1_555 1_555
C18_2 N2_2 1_555 1_555
H10_2 C18_2 1_555 1_555
H11_2 C18_2 1_555 1_555
H12_2 C18_2 1_555 1_555
C19_2 N2_2 1_555 1_555
H13_2 C19_2 1_555 1_555
H14_2 C19_2 1_555 1_555
H15_2 C19_2 1_555 1_555
C20_2 O10_2 1_555 1_555
H16_2 C20_2 1_555 1_555
C21_2 N1_2 1_555 1_555
H17_2 C21_2 1_555 1_555
H18_2 C21_2 1_555 1_555
H19_2 C21_2 1_555 1_555
C22_2 N1_2 1_555 1_555
H20_2 C22_2 1_555 1_555
H22_2 C22_2 1_555 1_555
O16_2 Mn3 1_555 1_555
O17_2 Mn3 1_555 1_555
Mn6 O17_2 1_555 1_555
O6_2 C15_2 1_555 1_555
O7_2 C15_2 1_555 1_555
O8_2 C12_2 1_555 1_555
O9_2 C12_2 1_555 1_555
C2_2 C3_2 1_555 1_555
C3_2 H3_2 1_555 1_555
C4_2 C3_2 1_555 1_555
C5_2 C4_2 1_555 1_555
H4_2 C5_2 1_555 1_555
C6_2 C5_2 1_555 1_555
C8_2 C2_2 1_555 1_555
H5_2 C8_2 1_555 1_555
C9_2 C4_2 1_555 1_555
C10_2 C9_2 1_555 1_555
H6_2 C10_2 1_555 1_555
C11_2 C10_2 1_555 1_555
C12_2 C11_2 1_555 1_555
C13_2 C11_2 1_555 1_555
H7_2 C13_2 1_555 1_555
C14_2 C13_2 1_555 1_555
C15_2 C14_2 1_555 1_555
C16_2 C9_2 1_555 1_555
H8_2 C16_2 1_555 1_555
Mn5 O8_2 1_555 1_555
Mn4 O6_2 1_555 1_555
Mn7_2 O9_2 1_555 1_555
O7_2 Mn4 1_555 1_555
O9_2 Mn5 1_555 1_555
C6_2 C8_2 1_555 1_555
C14_2 C16_2 1_555 1_555
O4_2 C7_3 1_555 1_555
O5_2 C7_3 1_555 1_555
Mn5 O5_2 1_555 1_555
Mn7_2 O4_2 1_555 1_555
Mn4 O3_3 1_555 1_555
Mn7 O1_3 1_555 1_555
O1_3 C1_3 1_555 1_555
O2_3 Mn7 1_555 1_555
H2_3 O2_3 1_555 1_555
O3_3 C1_3 1_555 1_555
O10_3 Mn7 1_555 1_555
O11_3 Mn7 1_555 1_555
N1_3 C20_3 1_555 1_555
N2_3 C17_3 1_555 1_555
C1_3 C2_3 1_555 1_555
C2_3 C3_3 1_555 1_555
C3_3 H3_3 1_555 1_555
C4_3 C3_3 1_555 1_555
C5_3 C4_3 1_555 1_555
H4_3 C5_3 1_555 1_555
C6_3 C5_3 1_555 1_555
C8_3 C2_3 1_555 1_555
H5_3 C8_3 1_555 1_555
C17_3 O11_3 1_555 1_555
H9_3 C17_3 1_555 1_555
C20_3 O10_3 1_555 1_555
H16_3 C20_3 1_555 1_555
C22_3 N1_3 1_555 1_555
H22_3 C22_3 1_555 1_555
O12_2 Mn7 1_555 1_555
O13_2 Mn4 1_555 1_555
C6_3 C8_3 1_555 1_555
O14_2 C15_3 1_555 1_555
O15_2 C15_3 1_555 1_555
O16 C12_3 1_555 1_555
O17 C12_3 1_555 1_555
C10_3 C9_3 1_555 1_555
H6_3 C10_3 1_555 1_555
C11_3 C10_3 1_555 1_555
C12_3 C11_3 1_555 1_555
C13_3 C11_3 1_555 1_555
H7_3 C13_3 1_555 1_555
C14_3 C13_3 1_555 1_555
C15_3 C14_3 1_555 1_555
C16_3 C9_3 1_555 1_555
H8_3 C16_3 1_555 1_555
H17_3 C21_3 1_555 1_555
H18_3 C21_3 1_555 1_555
H19_3 C21_3 1_555 1_555
C14_3 C16_3 1_555 1_555
O14 C15_4 1_555 1_555
O15 C15_4 1_555 1_555
O16_2 C12_4 1_555 1_555
O17_2 C12_4 1_555 1_555
C2_4 C3_4 1_555 1_555
C3_4 H3_4 1_555 1_555
C4_4 C3_4 1_555 1_555
C5_4 C4_4 1_555 1_555
H4_4 C5_4 1_555 1_555
C6_4 C5_4 1_555 1_555
C8_4 C2_4 1_555 1_555
H5_4 C8_4 1_555 1_555
C9_4 C4_4 1_555 1_555
C10_4 C9_4 1_555 1_555
H6_4 C10_4 1_555 1_555
C11_4 C10_4 1_555 1_555
C12_4 C11_4 1_555 1_555
C13_4 C11_4 1_555 1_555
H7_4 C13_4 1_555 1_555
C14_4 C13_4 1_555 1_555
C15_4 C14_4 1_555 1_555
C16_4 C9_4 1_555 1_555
H8_4 C16_4 1_555 1_555
C6_4 C8_4 1_555 1_555
C14_4 C16_4 1_555 1_555
Mn5 O3_4 1_555 1_555
Mn7_2 O1_4 1_555 1_555
O1_4 C1_4 1_555 1_555
O2_4 Mn7_2 1_555 1_555
H1_4 O2_4 1_555 1_555
H2_4 O2_4 1_555 1_555
O3_4 C1_4 1_555 1_555
O10_4 Mn7_2 1_555 1_555
O11_4 Mn7_2 1_555 1_555
N1_4 C20_4 1_555 1_555
N2_4 C17_4 1_555 1_555
C17_4 O11_4 1_555 1_555
H9_4 C17_4 1_555 1_555
C18_3 N2_4 1_555 1_555
H10_3 C18_3 1_555 1_555
H11_3 C18_3 1_555 1_555
H12_3 C18_3 1_555 1_555
C19_3 N2_4 1_555 1_555
H13_4 C19_3 1_555 1_555
H14_3 C19_3 1_555 1_555
H15_4 C19_3 1_555 1_555
C20_4 O10_4 1_555 1_555
H16_4 C20_4 1_555 1_555
C21_4 N1_4 1_555 1_555
H17_4 C21_4 1_555 1_555
H18_4 C21_4 1_555 1_555
H19_4 C21_4 1_555 1_555
C22_4 N1_4 1_555 1_555
H20_3 C22_4 1_555 1_555
H22_4 C22_4 1_555 1_555
O12_2 C7_4 1_555 1_555
O13_2 C7_4 1_555 1_555
H10_4 C18_4 1_555 1_555
H11_4 C18_4 1_555 1_555
H12_4 C18_4 1_555 1_555
H14_4 C19_4 1_555 1_555

#END
