
###############################################################################
#
# This file contains modified crystal structure data generated from the
# MOF subset of the Cambridge Structural Database (CSD) v543 
# hosted by the Cambridge Crystallographic Data Centre (CCDC).
#
# This work is licensed under the Creative Commons
# Attribution-NonCommercial-ShareAlike 4.0 International License.
# To view a copy of this license, visit
# http://creativecommons.org/licenses/by-nc-sa/4.0/
# or send a letter to
# Creative Commons, PO Box 1866, Mountain View, CA 94042, USA.
#
# CIF created using the CSD Python API on 29 September 2022
# The structure has been converted into the P1 space group
# The structure has a 3D framework
# The original CSD entry KUHPIP is in the monoclinic crystal system
# The framework has been calculated to contain at least 10.0% void space
# The void calculation uses a probe of radius 1.32A, grid spacing 0.4
#
###############################################################################

data_KUHPIP
_chemical_formula_moiety         '(C88 H72 N12 O16 Pb4)n'
_symmetry_cell_setting           triclinic
_symmetry_space_group_name_H-M   'P 1'
_symmetry_Int_Tables_number      1
_space_group_name_Hall           'P 1'
loop_
_symmetry_equiv_pos_site_id
_symmetry_equiv_pos_as_xyz
1 x,y,z
_cell_length_a                   11.7153(5)
_cell_length_b                   7.8003(3)
_cell_length_c                   23.8533(10)
_cell_angle_alpha                90
_cell_angle_beta                 96.4710(10)
_cell_angle_gamma                90
_cell_volume                     2165.9
loop_
_atom_site_label
_atom_site_type_symbol
_atom_site_fract_x
_atom_site_fract_y
_atom_site_fract_z
O13 O 0.0251(11) 0.1801(15) 0.7031(7)
C29 C 0.4968(11) 0.1685(17) 0.2056(5)
C30 C 0.5797(10) 0.0274(15) 0.1921(4)
C35 C 0.6925(10) 0.0653(19) 0.1899(6)
H27 H 0.7200 0.1765 0.1957
O7 O 0.3991(8) 0.1264(11) 0.2182(4)
O8 O 0.5251(11) 0.3199(15) 0.2031(7)
Pb4 Pb 0.32864(3) 0.39207(5) 0.245053(15)
O9 O 0.2327(6) 0.2159(13) 0.3080(3)
C1 C 0.4452(10) 0.8230(17) 0.3209(4)
H1 H 0.4723 0.8858 0.2920
C2 C 0.5125(10) 0.7583(18) 0.3665(5)
H2 H 0.5916 0.7698 0.3745
C3 C 0.3301(9) 0.6902(14) 0.3718(4)
H3 H 0.2641 0.6461 0.3846
C4 C 0.4685(10) 0.5836(14) 0.4497(4)
C5 C 0.5694(9) 0.4891(16) 0.4572(4)
H4 H 0.6163 0.4803 0.4283
C6 C 0.4012(11) 0.5915(16) 0.4917(5)
H5 H 0.3329 0.6531 0.4862
C14 C 0.1879(9) 0.7170(14) 0.1507(4)
C15 C 0.2132(10) 0.6429(17) 0.0964(5)
C16 C 0.3234(11) 0.579(2) 0.0904(6)
H10 H 0.3810 0.5798 0.1206
C17 C 0.3446(11) 0.513(3) 0.0370(6)
H11 H 0.4171 0.4696 0.0325
C20 C 0.1282(11) 0.6314(17) 0.0527(5)
H13 H 0.0543 0.6671 0.0577
N2 N 0.3331(9) 0.7825(12) 0.3236(4)
N3 N 0.4392(8) 0.6720(13) 0.3984(4)
O1 O 0.0930(7) 0.7875(12) 0.1545(3)
O2 O 0.2673(6) 0.7159(13) 0.1920(3)
Pb1 Pb 0.17136(3) 0.89207(5) 0.254947(15)
C23 C 0.5548(10) 0.1770(17) 0.6791(4)
H19 H 0.5277 0.1142 0.7080
C24 C 0.4875(10) 0.2417(18) 0.6335(5)
H20 H 0.4084 0.2302 0.6255
C25 C 0.6699(9) 0.3098(14) 0.6282(4)
H21 H 0.7359 0.3539 0.6154
C26 C 0.5315(10) 0.4164(14) 0.5503(4)
C27 C 0.4306(9) 0.5109(16) 0.5428(4)
H22 H 0.3837 0.5197 0.5717
C28 C 0.5988(11) 0.4085(16) 0.5083(5)
H23 H 0.6671 0.3469 0.5138
N4 N 0.6669(9) 0.2175(12) 0.6764(4)
N5 N 0.5608(8) 0.3280(13) 0.6016(4)
C36 C 0.8121(9) 0.2830(14) 0.8493(4)
C37 C 0.7868(10) 0.3571(17) 0.9036(5)
C38 C 0.6766(11) 0.421(2) 0.9096(6)
H28 H 0.6190 0.4202 0.8794
C39 C 0.6554(11) 0.487(3) 0.9630(6)
H29 H 0.5829 0.5304 0.9675
C42 C 0.8718(11) 0.3686(17) 0.9473(5)
H31 H 0.9457 0.3329 0.9423
O5 O 0.9070(7) 0.2125(12) 0.8455(3)
O6 O 0.7327(6) 0.2841(13) 0.8080(3)
Pb2 Pb 0.82864(3) 0.10793(5) 0.745053(15)
O11 O 0.8991(8) 0.3736(11) 0.7182(4)
O12 O 0.1009(8) 0.6264(11) 0.2818(4)
Pb6 Pb 0.67136(3) 0.60793(5) 0.754947(15)
O10 O 0.7673(6) 0.7841(13) 0.6920(3)
C7 C 0.5032(11) 0.8315(17) 0.7944(5)
C8 C 0.4203(10) 0.9726(15) 0.8079(4)
C13 C 0.3075(10) 0.9347(19) 0.8101(6)
H9 H 0.2800 0.8235 0.8043
O3 O 0.6009(8) 0.8736(11) 0.7818(4)
O4 O 0.4749(11) 0.6801(15) 0.7969(7)
O14 O 0.9749(11) 0.8199(15) 0.2969(7)
C1_2 C 0.0548(10) 0.3230(17) 0.1791(4)
H1_2 H 0.0277 0.3858 0.2080
C3_2 C 0.1699(9) 0.1902(14) 0.1282(4)
H3_2 H 0.2359 0.1461 0.1154
C4_2 C 0.0315(10) 0.0836(14) 0.0503(4)
C6_2 C 0.0988(11) 0.0915(16) 0.0083(5)
H5_2 H 0.1671 0.1531 0.0138
C14_2 C 0.3121(9) 0.2170(14) 0.3493(4)
C15_2 C 0.2868(10) 0.1429(17) 0.4036(5)
C16_2 C 0.1766(11) 0.079(2) 0.4096(6)
H10_2 H 0.1190 0.0798 0.3794
C17_2 C 0.1554(11) 0.013(3) 0.4630(6)
C18 C 0.2387(10) 0.011(2) 0.5078(5)
C19 C 0.3488(11) 0.0655(18) 0.5004(5)
H12 H 0.4074 0.0589 0.5300
C20_2 C 0.3718(11) 0.1314(17) 0.4473(5)
H13_2 H 0.4457 0.1671 0.4423
H14 H 0.1879 0.0532 0.5860
N2_2 N 0.1669(9) 0.2825(12) 0.1764(4)
N3_2 N 0.0608(8) 0.1720(13) 0.1016(4)
O1_2 O 0.4070(7) 0.2875(12) 0.3455(3)
C27_2 C 0.0694(9) 0.0109(16) 0.9572(4)
H22_2 H 0.1163 0.0197 0.9283
C29_2 C 0.0032(11) 0.6685(17) 0.2944(5)
H24 H 0.0386 0.3389 0.3130
C8_2 C 0.0797(10) 0.4726(15) 0.6921(4)
C9 C 0.0386(10) 0.6376(17) 0.6849(5)
C10 C 0.1135(10) 0.7680(18) 0.6743(5)
H7 H 0.0860 0.8796 0.6699
C11 C 0.2278(10) 0.7359(19) 0.6702(5)
C12 C 0.2648(10) 0.567(2) 0.6788(5)
H8 H 0.3420 0.5430 0.6771
C13_2 C 0.1925(10) 0.4347(19) 0.6899(6)
H9_2 H 0.2200 0.3235 0.6957
H11_2 H 0.0829 0.9696 0.4675
C21 C 0.2136(9) 0.955(3) 0.5657(6)
H15 H 0.1524 0.8709 0.5622
C22 C 0.3081(13) 0.8705(19) 0.6548(6)
H16 H 0.2845 0.9801 0.6688
H17 H 0.3844 0.8456 0.6731
N1 N 0.3131(8) 0.8838(14) 0.5965(5)
H18 H 0.3718 0.8511 0.5807
C30_2 C 0.9203(10) 0.5274(15) 0.3079(4)
C31 C 0.9614(10) 0.3624(17) 0.3151(5)
C32 C 0.8865(10) 0.2320(18) 0.3257(5)
H25 H 0.9140 0.1204 0.3301
C33 C 0.7722(10) 0.2641(19) 0.3298(5)
C34 C 0.7352(10) 0.433(2) 0.3212(5)
H26 H 0.6580 0.4570 0.3229
C35_2 C 0.8075(10) 0.5653(19) 0.3101(6)
H27_2 H 0.7800 0.6765 0.3043
H29_2 H 0.9171 0.0304 0.5325
C43 C 0.7864(9) 0.045(3) 0.4343(6)
H33 H 0.8476 0.1291 0.4378
C44 C 0.6919(13) 0.1295(19) 0.3452(6)
H34 H 0.7155 0.0199 0.3312
H35 H 0.6156 0.1544 0.3269
N6 N 0.6869(8) 0.1162(14) 0.4035(5)
H36 H 0.6282 0.1489 0.4193
C5_2 C 0.9306(9) 0.9891(16) 0.0428(4)
H4_2 H 0.8837 0.9803 0.0717
C7_2 C 0.9968(11) 0.3315(17) 0.7056(5)
H6 H 0.9614 0.6611 0.6870
C23_2 C 0.9452(10) 0.6770(17) 0.8209(4)
H19_2 H 0.9723 0.6142 0.7920
C25_2 C 0.8301(9) 0.8098(14) 0.8718(4)
H21_2 H 0.7641 0.8539 0.8846
C26_2 C 0.9685(10) 0.9164(14) 0.9497(4)
C28_2 C 0.9012(11) 0.9085(16) 0.9917(5)
H23_2 H 0.8329 0.8469 0.9862
N4_2 N 0.8331(9) 0.7175(12) 0.8236(4)
N5_2 N 0.9392(8) 0.8280(13) 0.8984(4)
C36_2 C 0.6879(9) 0.7830(14) 0.6507(4)
C37_2 C 0.7132(10) 0.8571(17) 0.5964(5)
C38_2 C 0.8234(11) 0.921(2) 0.5904(6)
H28_2 H 0.8810 0.9202 0.6206
C39_2 C 0.8446(11) 0.987(3) 0.5370(6)
C40 C 0.7613(10) 0.989(2) 0.4922(5)
C41 C 0.6512(11) 0.9345(18) 0.4996(5)
H30 H 0.5926 0.9411 0.4700
C42_2 C 0.6282(11) 0.8686(17) 0.5527(5)
H31_2 H 0.5543 0.8329 0.5577
H32 H 0.8121 0.9468 0.4140
O5_2 O 0.5930(7) 0.7125(12) 0.6545(3)
C31_2 C 0.5386(10) 0.8624(17) 0.1849(5)
H24_2 H 0.4614 0.8389 0.1870
C32_2 C 0.6135(10) 0.7320(18) 0.1743(5)
H25_2 H 0.5860 0.6204 0.1699
C33_2 C 0.7278(10) 0.7641(19) 0.1702(5)
C34_2 C 0.7648(10) 0.933(2) 0.1788(5)
H26_2 H 0.8420 0.9570 0.1771
C40_2 C 0.7387(10) 0.489(2) 0.0078(5)
C41_2 C 0.8488(11) 0.4345(18) 0.0004(5)
H30_2 H 0.9074 0.4411 0.0300
C43_2 C 0.7136(9) 0.545(3) 0.0657(6)
H32_2 H 0.6879 0.4468 0.0860
H33_2 H 0.6524 0.6291 0.0622
C44_2 C 0.8081(13) 0.6295(19) 0.1548(6)
H34_2 H 0.7845 0.5199 0.1688
H35_2 H 0.8844 0.6544 0.1731
N6_2 N 0.8131(8) 0.6162(14) 0.0965(5)
H36_2 H 0.8718 0.6489 0.0807
C9_2 C 0.4614(10) 0.1376(17) 0.8151(5)
H6_2 H 0.5386 0.1611 0.8130
C10_2 C 0.3865(10) 0.2680(18) 0.8257(5)
H7_2 H 0.4140 0.3796 0.8301
C11_2 C 0.2722(10) 0.2359(19) 0.8298(5)
C12_2 C 0.2352(10) 0.067(2) 0.8212(5)
H8_2 H 0.1580 0.0430 0.8229
C18_2 C 0.2613(10) 0.511(2) 0.9922(5)
C19_2 C 0.1512(11) 0.5655(18) 0.9996(5)
H12_2 H 0.0926 0.5589 0.9700
C21_2 C 0.2864(9) 0.455(3) 0.9343(6)
H14_2 H 0.3121 0.5532 0.9140
H15_2 H 0.3476 0.3709 0.9378
C22_2 C 0.1919(13) 0.3705(19) 0.8452(6)
H16_2 H 0.2155 0.4801 0.8312
H17_2 H 0.1156 0.3456 0.8269
N1_2 N 0.1869(8) 0.3838(14) 0.9035(5)
H18_2 H 0.1282 0.3511 0.9193
C24_2 C 0.0125(10) 0.7417(18) 0.8665(5)
H20_2 H 0.0916 0.7302 0.8745
C2_2 C 0.9875(10) 0.2583(18) 0.1335(5)
H2_2 H 0.9084 0.2698 0.1255
loop_
_geom_bond_atom_site_label_1
_geom_bond_atom_site_label_2
_geom_bond_site_symmetry_1
_geom_bond_site_symmetry_2
C29 C30 1_555 1_555
C35 C30 1_555 1_555
H27 C35 1_555 1_555
O7 C29 1_555 1_555
O8 C29 1_555 1_555
Pb4 O7 1_555 1_555
O8 Pb4 1_555 1_555
C1 H1 1_555 1_555
C2 C1 1_555 1_555
H2 C2 1_555 1_555
C3 H3 1_555 1_555
C4 C5 1_555 1_555
C5 H4 1_555 1_555
C6 C4 1_555 1_555
H5 C6 1_555 1_555
C14 C15 1_555 1_555
C15 C16 1_555 1_555
C16 H10 1_555 1_555
C17 C16 1_555 1_555
H11 C17 1_555 1_555
C20 C15 1_555 1_555
H13 C20 1_555 1_555
N2 C1 1_555 1_555
N3 C2 1_555 1_555
O1 C14 1_555 1_555
O2 C14 1_555 1_555
Pb1 N2 1_555 1_555
C23 H19 1_555 1_555
C24 C23 1_555 1_555
H20 C24 1_555 1_555
C25 H21 1_555 1_555
C26 C27 1_555 1_555
C27 C6 1_555 1_555
H22 C27 1_555 1_555
C28 C5 1_555 1_555
H23 C28 1_555 1_555
N4 C23 1_555 1_555
N5 C24 1_555 1_555
C36 C37 1_555 1_555
C37 C38 1_555 1_555
C38 H28 1_555 1_555
C39 C38 1_555 1_555
H29 C39 1_555 1_555
C42 C37 1_555 1_555
H31 C42 1_555 1_555
O5 C36 1_555 1_555
O6 C36 1_555 1_555
Pb2 N4 1_555 1_555
O11 Pb2 1_555 1_555
O12 Pb1 1_555 1_555
Pb4 O2 1_555 1_555
Pb6 O6 1_555 1_555
C3 N2 1_555 1_555
C3 N3 1_555 1_555
C4 N3 1_555 1_555
O1 Pb1 1_555 1_555
O2 Pb1 1_555 1_555
C25 N4 1_555 1_555
C25 N5 1_555 1_555
C26 C28 1_555 1_555
C26 N5 1_555 1_555
O5 Pb2 1_555 1_555
O6 Pb2 1_555 1_555
C7 C8 1_555 1_555
C13 C8 1_555 1_555
H9 C13 1_555 1_555
O3 C7 1_555 1_555
O4 C7 1_555 1_555
Pb6 O3 1_555 1_555
O4 Pb6 1_555 1_555
C1_2 H1_2 1_555 1_555
C3_2 H3_2 1_555 1_555
C6_2 C4_2 1_555 1_555
H5_2 C6_2 1_555 1_555
C14_2 C15_2 1_555 1_555
C15_2 C16_2 1_555 1_555
C16_2 H10_2 1_555 1_555
C17_2 C16_2 1_555 1_555
C18 C17_2 1_555 1_555
C19 C18 1_555 1_555
H12 C19 1_555 1_555
C20_2 C15_2 1_555 1_555
H13_2 C20_2 1_555 1_555
N2_2 C1_2 1_555 1_555
O1_2 C14_2 1_555 1_555
O9 C14_2 1_555 1_555
Pb4 N2_2 1_555 1_555
C3_2 N2_2 1_555 1_555
C3_2 N3_2 1_555 1_555
C4_2 N3_2 1_555 1_555
C19 C20_2 1_555 1_555
O1_2 Pb4 1_555 1_555
O9 Pb4 1_555 1_555
H22_2 C27_2 1_555 1_555
O12 C29_2 1_555 1_555
C8_2 C9 1_555 1_555
C10 C9 1_555 1_555
H7 C10 1_555 1_555
C11 C10 1_555 1_555
C12 C11 1_555 1_555
H8 C12 1_555 1_555
C13_2 C8_2 1_555 1_555
H9_2 C13_2 1_555 1_555
H15 C21 1_555 1_555
C22 C11 1_555 1_555
H16 C22 1_555 1_555
H17 C22 1_555 1_555
N1 C21 1_555 1_555
H18 N1 1_555 1_555
C12 C13_2 1_555 1_555
C22 N1 1_555 1_555
C30_2 C31 1_555 1_555
C32 C31 1_555 1_555
H25 C32 1_555 1_555
C33 C32 1_555 1_555
C34 C33 1_555 1_555
H26 C34 1_555 1_555
C35_2 C30_2 1_555 1_555
H27_2 C35_2 1_555 1_555
H33 C43 1_555 1_555
C44 C33 1_555 1_555
H34 C44 1_555 1_555
H35 C44 1_555 1_555
N6 C43 1_555 1_555
H36 N6 1_555 1_555
C34 C35_2 1_555 1_555
C44 N6 1_555 1_555
C5_2 H4_2 1_555 1_555
O11 C7_2 1_555 1_555
C23_2 H19_2 1_555 1_555
C25_2 H21_2 1_555 1_555
H23_2 C28_2 1_555 1_555
N4_2 C23_2 1_555 1_555
C36_2 C37_2 1_555 1_555
C37_2 C38_2 1_555 1_555
C38_2 H28_2 1_555 1_555
C39_2 C38_2 1_555 1_555
C40 C39_2 1_555 1_555
C41 C40 1_555 1_555
H30 C41 1_555 1_555
C42_2 C37_2 1_555 1_555
H31_2 C42_2 1_555 1_555
O5_2 C36_2 1_555 1_555
O10 C36_2 1_555 1_555
Pb6 N4_2 1_555 1_555
C25_2 N4_2 1_555 1_555
C25_2 N5_2 1_555 1_555
C26_2 C28_2 1_555 1_555
C26_2 N5_2 1_555 1_555
C41 C42_2 1_555 1_555
O5_2 Pb6 1_555 1_555
O10 Pb6 1_555 1_555
C31_2 H24_2 1_555 1_555
C32_2 C31_2 1_555 1_555
H25_2 C32_2 1_555 1_555
C33_2 C32_2 1_555 1_555
C34_2 C33_2 1_555 1_555
H26_2 C34_2 1_555 1_555
C41_2 C40_2 1_555 1_555
H30_2 C41_2 1_555 1_555
C43_2 C40_2 1_555 1_555
H32_2 C43_2 1_555 1_555
H33_2 C43_2 1_555 1_555
C44_2 C33_2 1_555 1_555
H34_2 C44_2 1_555 1_555
H35_2 C44_2 1_555 1_555
N6_2 C43_2 1_555 1_555
H36_2 N6_2 1_555 1_555
C44_2 N6_2 1_555 1_555
C9_2 H6_2 1_555 1_555
C10_2 C9_2 1_555 1_555
H7_2 C10_2 1_555 1_555
C11_2 C10_2 1_555 1_555
C12_2 C11_2 1_555 1_555
H8_2 C12_2 1_555 1_555
C19_2 C18_2 1_555 1_555
H12_2 C19_2 1_555 1_555
C21_2 C18_2 1_555 1_555
H14_2 C21_2 1_555 1_555
H15_2 C21_2 1_555 1_555
C22_2 C11_2 1_555 1_555
H16_2 C22_2 1_555 1_555
H17_2 C22_2 1_555 1_555
N1_2 C21_2 1_555 1_555
H18_2 N1_2 1_555 1_555
C22_2 N1_2 1_555 1_555
H20_2 C24_2 1_555 1_555
H2_2 C2_2 1_555 1_555

#END
