
###############################################################################
#
# This file contains modified crystal structure data generated from the
# MOF subset of the Cambridge Structural Database (CSD) v543 
# hosted by the Cambridge Crystallographic Data Centre (CCDC).
#
# This work is licensed under the Creative Commons
# Attribution-NonCommercial-ShareAlike 4.0 International License.
# To view a copy of this license, visit
# http://creativecommons.org/licenses/by-nc-sa/4.0/
# or send a letter to
# Creative Commons, PO Box 1866, Mountain View, CA 94042, USA.
#
# CIF created using the CSD Python API on 29 September 2022
# The structure has been converted into the P1 space group
# The structure has a 3D framework
# The original CSD entry KUJCIE is in the monoclinic crystal system
# The framework has been calculated to contain at least 10.0% void space
# The void calculation uses a probe of radius 1.32A, grid spacing 0.4
#
###############################################################################

data_KUJCIE
_chemical_formula_moiety         '(C136 H96 N24 O34 Si4 Zn8)n'
_symmetry_cell_setting           triclinic
_symmetry_space_group_name_H-M   'P 1'
_symmetry_Int_Tables_number      1
_space_group_name_Hall           'P 1'
loop_
_symmetry_equiv_pos_site_id
_symmetry_equiv_pos_as_xyz
1 x,y,z
_cell_length_a                   9.6578(6)
_cell_length_b                   40.024(2)
_cell_length_c                   9.7497(7)
_cell_angle_alpha                90
_cell_angle_beta                 100.403(4)
_cell_angle_gamma                90
_cell_volume                     3706.74
loop_
_atom_site_label
_atom_site_type_symbol
_atom_site_fract_x
_atom_site_fract_y
_atom_site_fract_z
H16 H 0.023306 0.198816 0.133134
O1 O 0.3103(4) 0.04105(9) 0.5829(4)
O2 O 0.2240(4) 0.05682(10) 0.3685(4)
N3 N 0.0815(5) 0.12880(11) 0.8692(5)
N5 N 0.0528(5) 0.15020(11) 0.9620(5)
C6 C 0.0758(5) 0.06280(13) 0.5331(5)
C10 C 0.0814(5) 0.08556(13) 0.6430(5)
H5 H 0.166955 0.093463 0.691448
C12 C 0.2135(5) 0.05259(13) 0.4932(6)
Zn5 Zn 0.30893(6) 0.01454(2) 0.75468(7)
Zn7 Zn 0.41121(6) 0.04543(2) 0.32526(8)
Zn2 Zn 0.08879(6) 0.54543(2) 0.17474(8)
O3 O 0.6208(4) 0.48780(11) 0.3023(4)
O5 O 0.6826(4) 0.03166(9) 0.3144(4)
O6 O 0.5754(4) 0.05955(10) 0.4616(4)
O7 O 0.1185(4) 0.49914(10) 0.2265(4)
O8 O 0.7293(4) 0.44998(11) 0.4437(5)
O9 O 0.0988(5) 0.57452(12) 0.3389(5)
H1 H 0.068591 0.563755 0.402679
H2 H 0.041393 0.590651 0.319837
N1 N 0.9580(5) 0.11982(10) 0.7884(5)
N2 N 0.3403(4) 0.40151(11) 0.6826(5)
N4 N 0.2367(4) 0.36938(12) 0.8097(5)
N6 N 0.2131(4) 0.39238(12) 0.7108(5)
C1 C 0.3483(5) 0.42632(13) 0.5788(5)
C2 C 0.3779(5) 0.36349(13) 0.8442(6)
C3 C 0.9101(6) 0.15541(13) 0.9398(6)
C4 C 0.8243(5) 0.06143(12) 0.5003(6)
C5 C 0.4432(5) 0.38378(13) 0.7624(5)
H3 H 0.539293 0.385072 0.761959
C7 C 0.9540(5) 0.09596(13) 0.6772(5)
C8 C 0.4846(5) 0.45803(13) 0.4425(6)
C9 C 0.2258(5) 0.44116(13) 0.5095(5)
H4 H 0.139197 0.435538 0.532054
C11 C 0.2339(5) 0.46455(13) 0.4058(5)
C13 C 0.8269(5) 0.08400(13) 0.6097(6)
H6 H 0.743636 0.090825 0.636394
C15 C 0.3645(5) 0.47277(13) 0.3722(6)
H7 H 0.369793 0.488236 0.302176
C16 C 0.6858(6) 0.04948(13) 0.4198(6)
C17 C 0.9494(5) 0.05087(13) 0.4608(5)
H8 H 0.947456 0.036055 0.386943
C19 C 0.8494(6) 0.13582(13) 0.8307(6)
H10 H 0.754025 0.133879 0.793401
C21 C 0.4787(5) 0.43493(13) 0.5460(6)
H11 H 0.560862 0.425144 0.593642
C22 C 0.1040(5) 0.48073(14) 0.3276(6)
C24 C 0.4361(6) 0.33857(14) 0.9490(6)
C25 C 0.5804(6) 0.33112(16) 0.9736(6)
H13 H 0.640122 0.342375 0.924434
C30 C 0.6217(6) 0.46598(16) 0.3954(7)
H21 H 0.642184 0.166978 0.947912
Zn3 Zn 0.80893(6) 0.48546(2) 0.25468(7)
O11 O 0.2760(4) 0.55682(10) 0.1315(4)
Zn4 Zn 0.69107(6) 0.98546(2) 0.24532(7)
O4 O 0.9898(3) 0.47387(10) 0.3648(4)
O10 O 0.8103(4) 0.45895(9) 0.0829(4)
O13 O 0.8174(4) 0.53166(9) 0.1856(4)
O14 O 0.9246(4) 0.55955(10) 0.0384(4)
O9_2 O 0.4012(5) 0.07452(12) 0.1611(5)
H1_2 H 0.431409 0.063755 0.097321
H2_2 H 0.458607 0.090651 0.180163
O4_2 O 0.5102(3) 0.97387(10) 0.1352(4)
O7_2 O 0.3815(4) 0.99914(10) 0.2735(4)
C8_2 C 0.0154(5) 0.95803(13) 0.0575(6)
C11_2 C 0.2661(5) 0.96455(13) 0.0942(5)
C15_2 C 0.1355(5) 0.97277(13) 0.1278(6)
H7_2 H 0.130207 0.988236 0.197824
C22_2 C 0.3960(5) 0.98073(14) 0.1724(6)
O10_2 O 0.6897(4) 0.95895(9) 0.4171(4)
O12 O 0.8792(4) 0.98780(11) 0.1977(4)
O15 O 0.7707(4) 0.94998(11) 0.0563(5)
C12_2 C 0.2865(5) 0.55259(13) 0.0068(6)
C16_2 C 0.8142(6) 0.54948(13) 0.0802(6)
C17_2 C 0.5506(5) 0.55087(13) 0.0392(5)
H8_2 H 0.552544 0.536055 0.113057
C30_2 C 0.8783(6) 0.96598(16) 0.1046(7)
Si1 Si 0.8726(2) 0.75708(5) 0.22173(18)
O1_2 O 0.1897(4) 0.54105(9) 0.9171(4)
N1_2 N 0.5420(5) 0.61982(10) 0.7116(5)
N3_2 N 0.4185(5) 0.62880(11) 0.6308(5)
N5_2 N 0.4472(5) 0.65020(11) 0.5380(5)
C3_2 C 0.5899(6) 0.65541(13) 0.5602(6)
C4_2 C 0.6757(5) 0.56143(12) 0.9997(6)
H3_2 H 0.960707 0.885072 0.738041
C6_2 C 0.4242(5) 0.56280(13) 0.9669(5)
C7_2 C 0.5460(5) 0.59596(13) 0.8228(5)
C10_2 C 0.4186(5) 0.58556(13) 0.8570(5)
H5_2 H 0.333045 0.593463 0.808552
C13_2 C 0.6731(5) 0.58400(13) 0.8903(6)
H6_2 H 0.756364 0.590825 0.863606
C14 C 0.9500(6) 0.78987(15) 0.3511(6)
C19_2 C 0.6506(6) 0.63582(13) 0.6693(6)
H10_2 H 0.745975 0.633879 0.706599
C20 C 0.6557(6) 0.67908(14) 0.4760(6)
H11_2 H 0.939138 0.925144 0.906358
C25_2 C 0.9196(6) 0.83112(16) 0.5264(6)
H13_2 H 0.859878 0.842375 0.575566
C26 C 0.6376(7) 0.72289(15) 0.3023(6)
H14 H 0.581117 0.736679 0.238727
C27 C 0.8661(6) 0.80724(16) 0.4299(7)
H15 H 0.770358 0.802446 0.416530
C28 C 0.5743(7) 0.70005(14) 0.3797(7)
H16_2 H 0.476694 0.698816 0.366866
C29 C 0.7819(7) 0.72553(15) 0.3179(6)
H18 H 0.976433 0.720284 0.080299
C32 C 0.8628(7) 0.70406(19) 0.4130(7)
H20 H 0.960463 0.705152 0.424894
C33 C 0.8012(7) 0.68112(19) 0.4902(7)
H21_2 H 0.857816 0.666978 0.552088
C34 C 0.7409(7) 0.77745(17) 0.0852(7)
H22 H 0.674235 0.789483 0.128350
H23 H 0.692620 0.760735 0.023912
H24 H 0.787774 0.792674 0.032704
Zn5_2 Zn 0.19107(6) 0.51454(2) 0.74532(7)
O4_3 O 0.0102(3) 0.52613(10) 0.6352(4)
O12_2 O 0.3792(4) 0.51220(11) 0.6977(4)
O13_2 O 0.1826(4) 0.46834(9) 0.8144(4)
O14_2 O 0.0754(4) 0.44045(10) 0.9616(4)
O15_2 O 0.2707(4) 0.55002(11) 0.5563(5)
Zn2_2 Zn 0.91121(6) 0.45457(2) 0.82526(8)
O5_2 O 0.3174(4) 0.96834(9) 0.6856(4)
O6_2 O 0.4246(4) 0.94045(10) 0.5384(4)
O7_3 O 0.8815(4) 0.50086(10) 0.7735(4)
O9_3 O 0.9012(5) 0.42548(12) 0.6611(5)
H1_3 H 0.931409 0.436245 0.597321
H2_3 H 0.958607 0.409349 0.680163
N1_3 N 0.0420(5) 0.88018(10) 0.2116(5)
N2_2 N 0.6597(4) 0.59849(11) 0.3174(5)
N4_2 N 0.7633(4) 0.63062(12) 0.1903(5)
N6_2 N 0.7869(4) 0.60762(12) 0.2892(5)
C1_2 C 0.6517(5) 0.57368(13) 0.4212(5)
C2_2 C 0.6221(5) 0.63651(13) 0.1558(6)
C3_3 C 0.0899(6) 0.84459(13) 0.0602(6)
C4_3 C 0.1757(5) 0.93857(12) 0.4997(6)
C5_2 C 0.5568(5) 0.61622(13) 0.2376(5)
H3_3 H 0.460707 0.614928 0.238041
C7_3 C 0.0460(5) 0.90404(13) 0.3228(5)
C8_3 C 0.5154(5) 0.54197(13) 0.5575(6)
C9_2 C 0.7742(5) 0.55884(13) 0.4905(5)
H4_2 H 0.860803 0.564462 0.467946
C11_3 C 0.7661(5) 0.53545(13) 0.5942(5)
C13_3 C 0.1731(5) 0.91600(13) 0.3903(6)
H6_3 H 0.256364 0.909175 0.363606
C15_3 C 0.6355(5) 0.52723(13) 0.6278(6)
H7_3 H 0.630207 0.511764 0.697824
C16_3 C 0.3142(6) 0.95052(13) 0.5802(6)
C17_3 C 0.0506(5) 0.94913(13) 0.5392(5)
H8_3 H 0.052544 0.963945 0.613057
C19_3 C 0.1506(6) 0.86418(13) 0.1693(6)
H10_3 H 0.245975 0.866121 0.206599
C21_2 C 0.5213(5) 0.56507(13) 0.4540(6)
H11_3 H 0.439138 0.574856 0.406358
C22_3 C 0.8960(5) 0.51927(14) 0.6724(6)
C24_2 C 0.5639(6) 0.66143(14) 0.0510(6)
C25_3 C 0.4196(6) 0.66888(16) 0.0264(6)
H13_3 H 0.359878 0.657625 0.075566
C30_3 C 0.3783(6) 0.53402(16) 0.6046(7)
H21_3 H 0.357816 0.833022 0.052088
Zn6 Zn 0.58879(6) 0.95457(2) 0.67474(8)
O11_2 O 0.7240(4) 0.44318(10) 0.8685(4)
O2_2 O 0.7760(4) 0.94318(10) 0.6315(4)
N3_3 N 0.9185(5) 0.87120(11) 0.1308(5)
N5_3 N 0.9472(5) 0.84980(11) 0.0380(5)
C6_3 C 0.9242(5) 0.93720(13) 0.4669(5)
C10_3 C 0.9186(5) 0.91444(13) 0.3570(5)
H5_3 H 0.833045 0.906537 0.308552
C12_3 C 0.7865(5) 0.94741(13) 0.5068(6)
Si1_2 Si 0.1274(2) 0.24292(5) 0.77827(18)
N1_4 N 0.4580(5) 0.38018(10) 0.2884(5)
N3_4 N 0.5815(5) 0.37120(11) 0.3692(5)
N5_4 N 0.5528(5) 0.34980(11) 0.4620(5)
C3_4 C 0.4101(6) 0.34459(13) 0.4398(6)
C4_4 C 0.3243(5) 0.43857(12) 0.0003(6)
H3_4 H 0.039293 0.114928 0.261959
C6_4 C 0.5758(5) 0.43720(13) 0.0331(5)
C7_4 C 0.4540(5) 0.40404(13) 0.1772(5)
C10_4 C 0.5814(5) 0.41444(13) 0.1430(5)
H5_4 H 0.666955 0.406537 0.191448
C13_4 C 0.3269(5) 0.41600(13) 0.1097(6)
H6_4 H 0.243636 0.409175 0.136394
C14_2 C 0.0500(6) 0.21013(15) 0.6489(6)
C19_4 C 0.3494(6) 0.36418(13) 0.3307(6)
H10_4 H 0.254025 0.366121 0.293401
C20_2 C 0.3443(6) 0.32092(14) 0.5240(6)
H11_4 H 0.060862 0.074856 0.093642
C25_4 C 0.0804(6) 0.16888(16) 0.4736(6)
H13_4 H 0.140122 0.157625 0.424434
C26_2 C 0.3624(7) 0.27711(15) 0.6977(6)
H14_2 H 0.418883 0.263321 0.761273
C27_2 C 0.1339(6) 0.19276(16) 0.5701(7)
H15_2 H 0.229642 0.197554 0.583470
C28_2 C 0.4257(7) 0.29995(14) 0.6203(7)
H16_3 H 0.523306 0.301184 0.633134
C29_2 C 0.2181(7) 0.27447(15) 0.6821(6)
H18_2 H 0.023567 0.279716 0.919701
C32_2 C 0.1372(7) 0.29594(19) 0.5870(7)
H20_2 H 0.039537 0.294848 0.575106
C33_2 C 0.1988(7) 0.31888(19) 0.5098(7)
H21_4 H 0.142184 0.333022 0.447912
C34_2 C 0.2591(7) 0.22255(17) 0.9148(7)
H22_2 H 0.325765 0.210517 0.871650
H23_2 H 0.307380 0.239265 0.976088
H24_2 H 0.212226 0.207326 0.967296
O3_2 O 0.1208(4) 0.01220(11) 0.8023(4)
O8_2 O 0.2293(4) 0.05002(11) 0.9437(5)
C12_4 C 0.7135(5) 0.44741(13) 0.9932(6)
C16_4 C 0.1858(6) 0.45052(13) 0.9198(6)
C17_4 C 0.4494(5) 0.44913(13) 0.9608(5)
H8_4 H 0.447456 0.463945 0.886943
C30_4 C 0.1217(6) 0.03402(16) 0.8954(7)
O4_4 O 0.4898(3) 0.02613(10) 0.8648(4)
O7_4 O 0.6185(4) 0.00086(10) 0.7265(4)
C8_4 C 0.9846(5) 0.04197(13) 0.9425(6)
C11_4 C 0.7339(5) 0.03545(13) 0.9058(5)
C15_4 C 0.8645(5) 0.02723(13) 0.8722(6)
H7_4 H 0.869793 0.011764 0.802176
C22_4 C 0.6040(5) 0.01927(14) 0.8276(6)
O9_4 O 0.5988(5) 0.92548(12) 0.8389(5)
H1_4 H 0.568591 0.936245 0.902679
H2_4 H 0.541393 0.909349 0.819837
Si1_3 Si 0.6274(2) 0.25708(5) 0.27827(18)
C14_3 C 0.5500(6) 0.28987(15) 0.1489(6)
C18 C 0.4068(7) 0.29799(14) 0.1241(6)
H9 H 0.347325 0.287178 0.174895
C20_3 C 0.8443(6) 0.17908(14) 0.0240(6)
C23 C 0.3513(6) 0.32161(14) 0.0262(6)
H12 H 0.255396 0.326230 0.011945
C26_3 C 0.8624(7) 0.22289(15) 0.1977(6)
H14_3 H 0.918883 0.236679 0.261273
C27_3 C 0.6339(6) 0.30724(16) 0.0701(7)
H15_3 H 0.729642 0.302446 0.083470
C28_3 C 0.9257(7) 0.20005(14) 0.1203(7)
C29_3 C 0.7181(7) 0.22553(15) 0.1821(6)
C31 C 0.4838(8) 0.23637(17) 0.3507(7)
H17 H 0.432516 0.252848 0.392738
H18_3 H 0.523567 0.220284 0.419701
H19 H 0.421190 0.225296 0.276963
C32_3 C 0.6372(7) 0.20406(19) 0.0870(7)
H20_3 H 0.539537 0.205152 0.075106
C33_3 C 0.6988(7) 0.18112(19) 0.0098(7)
C34_3 C 0.7591(7) 0.27745(17) 0.4148(7)
H22_3 H 0.825765 0.289483 0.371650
H23_3 H 0.807380 0.260735 0.476088
H24_3 H 0.712226 0.292674 0.467296
N2_3 N 0.1597(4) 0.90151(11) 0.8174(5)
N4_3 N 0.2633(4) 0.86938(12) 0.6903(5)
N6_3 N 0.2869(4) 0.89238(12) 0.7892(5)
C1_3 C 0.1517(5) 0.92632(13) 0.9212(5)
C2_3 C 0.1221(5) 0.86349(13) 0.6558(6)
C5_3 C 0.0568(5) 0.88378(13) 0.7376(5)
C9_3 C 0.2742(5) 0.94116(13) 0.9905(5)
H4_3 H 0.360803 0.935538 0.967946
C18_2 C 0.0932(7) 0.79799(14) 0.3759(6)
H9_2 H 0.152675 0.787178 0.325105
C21_3 C 0.0213(5) 0.93493(13) 0.9540(6)
C23_2 C 0.1487(6) 0.82161(14) 0.4738(6)
H12_2 H 0.244604 0.826230 0.488055
C24_3 C 0.0639(6) 0.83857(14) 0.5510(6)
C31_2 C 0.0162(8) 0.73637(17) 0.1493(7)
H17_2 H 0.067484 0.752848 0.107262
H19_2 H 0.078810 0.725296 0.223037
Si1_4 Si 0.3726(2) 0.74292(5) 0.72173(18)
C14_4 C 0.4500(6) 0.71013(15) 0.8511(6)
C18_3 C 0.5932(7) 0.70201(14) 0.8759(6)
H9_3 H 0.652675 0.712822 0.825105
C20_4 C 0.1557(6) 0.82092(14) 0.9760(6)
C23_3 C 0.6487(6) 0.67839(14) 0.9738(6)
H12_3 H 0.744604 0.673770 0.988055
C26_4 C 0.1376(7) 0.77711(15) 0.8023(6)
H14_4 H 0.081117 0.763321 0.738727
C27_4 C 0.3661(6) 0.69276(16) 0.9299(7)
H15_4 H 0.270358 0.697554 0.916530
C28_4 C 0.0743(7) 0.79995(14) 0.8797(7)
C29_4 C 0.2819(7) 0.77447(15) 0.8179(6)
C31_3 C 0.5162(8) 0.76363(17) 0.6493(7)
H17_3 H 0.567484 0.747152 0.607262
H18_4 H 0.476433 0.779716 0.580299
H19_3 H 0.578810 0.774704 0.723037
C32_4 C 0.3628(7) 0.79594(19) 0.9130(7)
H20_4 H 0.460463 0.794848 0.924894
C33_4 C 0.3012(7) 0.81888(19) 0.9902(7)
C34_4 C 0.2409(7) 0.72255(17) 0.5852(7)
H22_4 H 0.174235 0.710517 0.628350
H23_4 H 0.192620 0.739265 0.523912
H24_4 H 0.287774 0.707326 0.532704
H16_4 H 0.976694 0.801184 0.866866
N2_4 N 0.8403(4) 0.09849(11) 0.1826(5)
N4_4 N 0.7367(4) 0.13062(12) 0.3097(5)
N6_4 N 0.7131(4) 0.10762(12) 0.2108(5)
C1_4 C 0.8483(5) 0.07368(13) 0.0788(5)
C2_4 C 0.8779(5) 0.13651(13) 0.3442(6)
C5_4 C 0.9432(5) 0.11622(13) 0.2624(5)
C9_4 C 0.7258(5) 0.05884(13) 0.0095(5)
H4_4 H 0.639197 0.064462 0.032054
C18_4 C 0.9068(7) 0.20201(14) 0.6241(6)
H9_4 H 0.847325 0.212822 0.674895
C21_4 C 0.9787(5) 0.06507(13) 0.0460(6)
C23_4 C 0.8513(6) 0.17839(14) 0.5262(6)
H12_4 H 0.755396 0.173770 0.511945
C24_4 C 0.9361(6) 0.16143(14) 0.4490(6)
C31_4 C 0.9838(8) 0.26363(17) 0.8507(7)
H17_4 H 0.932516 0.247152 0.892738
H19_4 H 0.921190 0.274704 0.776963
loop_
_geom_bond_atom_site_label_1
_geom_bond_atom_site_label_2
_geom_bond_site_symmetry_1
_geom_bond_site_symmetry_2
O1 C12 1_555 1_555
O2 C12 1_555 1_555
N3 N5 1_555 1_555
C6 C10 1_555 1_555
H5 C10 1_555 1_555
C12 C6 1_555 1_555
Zn5 O1 1_555 1_555
Zn7 O2 1_555 1_555
Zn2 O7 1_555 1_555
O3 C30 1_555 1_555
O5 C16 1_555 1_555
O6 C16 1_555 1_555
O7 C22 1_555 1_555
O8 C30 1_555 1_555
O9 Zn2 1_555 1_555
H1 O9 1_555 1_555
H2 O9 1_555 1_555
N2 N6 1_555 1_555
N4 N6 1_555 1_555
C1 N2 1_555 1_555
C2 N4 1_555 1_555
C3 C19 1_555 1_555
C4 C13 1_555 1_555
C5 N2 1_555 1_555
H3 C5 1_555 1_555
C7 N1 1_555 1_555
C8 C15 1_555 1_555
C9 C1 1_555 1_555
H4 C9 1_555 1_555
C11 C9 1_555 1_555
C13 C7 1_555 1_555
H6 C13 1_555 1_555
C15 C11 1_555 1_555
H7 C15 1_555 1_555
C16 C4 1_555 1_555
C17 C4 1_555 1_555
H8 C17 1_555 1_555
C19 N1 1_555 1_555
H10 C19 1_555 1_555
C21 C1 1_555 1_555
H11 C21 1_555 1_555
C22 C11 1_555 1_555
C24 C2 1_555 1_555
C25 C24 1_555 1_555
H13 C25 1_555 1_555
C30 C8 1_555 1_555
Zn3 O3 1_555 1_555
Zn7 O6 1_555 1_555
O11 Zn2 1_555 1_555
O8 Zn3 1_555 1_555
C2 C5 1_555 1_555
C8 C21 1_555 1_555
Zn3 O4 1_555 1_555
O10 Zn3 1_555 1_555
O13 Zn3 1_555 1_555
O9_2 Zn7 1_555 1_555
H1_2 O9_2 1_555 1_555
H2_2 O9_2 1_555 1_555
Zn4 O4_2 1_555 1_555
O4_2 C22_2 1_555 1_555
O7_2 C22_2 1_555 1_555
C8_2 C15_2 1_555 1_555
C15_2 C11_2 1_555 1_555
H7_2 C15_2 1_555 1_555
C22_2 C11_2 1_555 1_555
O10_2 Zn4 1_555 1_555
O12 Zn4 1_555 1_555
O15 Zn4 1_555 1_555
O11 C12_2 1_555 1_555
O12 C30_2 1_555 1_555
O13 C16_2 1_555 1_555
O14 C16_2 1_555 1_555
O15 C30_2 1_555 1_555
H8_2 C17_2 1_555 1_555
Si1 C14 1_555 1_555
N1_2 N3_2 1_555 1_555
N3_2 N5_2 1_555 1_555
N5_2 C3_2 1_555 1_555
C3_2 C19_2 1_555 1_555
C4_2 C13_2 1_555 1_555
C6_2 C10_2 1_555 1_555
C7_2 N1_2 1_555 1_555
C10_2 C7_2 1_555 1_555
H5_2 C10_2 1_555 1_555
C13_2 C7_2 1_555 1_555
H6_2 C13_2 1_555 1_555
C19_2 N1_2 1_555 1_555
H10_2 C19_2 1_555 1_555
C20 C3_2 1_555 1_555
H13_2 C25_2 1_555 1_555
C26 H14 1_555 1_555
C27 C14 1_555 1_555
H15 C27 1_555 1_555
C28 C20 1_555 1_555
H16_2 C28 1_555 1_555
C29 Si1 1_555 1_555
C32 C29 1_555 1_555
H20 C32 1_555 1_555
C33 C20 1_555 1_555
H21_2 C33 1_555 1_555
C34 Si1 1_555 1_555
H22 C34 1_555 1_555
H23 C34 1_555 1_555
H24 C34 1_555 1_555
Zn5_2 O1_2 1_555 1_555
C25_2 C27 1_555 1_555
C26 C28 1_555 1_555
C26 C29 1_555 1_555
C32 C33 1_555 1_555
Zn5_2 O4_3 1_555 1_555
O12_2 Zn5_2 1_555 1_555
O13_2 Zn5_2 1_555 1_555
O15_2 Zn5_2 1_555 1_555
Zn2_2 O7_3 1_555 1_555
O12_2 C30_3 1_555 1_555
O5_2 C16_3 1_555 1_555
O6_2 C16_3 1_555 1_555
O7_3 C22_3 1_555 1_555
O15_2 C30_3 1_555 1_555
O9_3 Zn2_2 1_555 1_555
H1_3 O9_3 1_555 1_555
H2_3 O9_3 1_555 1_555
N2_2 N6_2 1_555 1_555
N4_2 N6_2 1_555 1_555
C1_2 N2_2 1_555 1_555
C2_2 N4_2 1_555 1_555
C3_3 C19_3 1_555 1_555
C4_3 C13_3 1_555 1_555
C5_2 N2_2 1_555 1_555
H3_3 C5_2 1_555 1_555
C7_3 N1_3 1_555 1_555
C8_3 C15_3 1_555 1_555
C9_2 C1_2 1_555 1_555
H4_2 C9_2 1_555 1_555
C11_3 C9_2 1_555 1_555
C13_3 C7_3 1_555 1_555
H6_3 C13_3 1_555 1_555
C15_3 C11_3 1_555 1_555
H7_3 C15_3 1_555 1_555
C16_3 C4_3 1_555 1_555
C17_3 C4_3 1_555 1_555
H8_3 C17_3 1_555 1_555
C19_3 N1_3 1_555 1_555
H10_3 C19_3 1_555 1_555
C21_2 C1_2 1_555 1_555
H11_3 C21_2 1_555 1_555
C22_3 C11_3 1_555 1_555
C24_2 C2_2 1_555 1_555
C25_3 C24_2 1_555 1_555
H13_3 C25_3 1_555 1_555
C30_3 C8_3 1_555 1_555
Zn6 O6_2 1_555 1_555
O11_2 Zn2_2 1_555 1_555
C2_2 C5_2 1_555 1_555
C8_3 C21_2 1_555 1_555
O10_2 C12_3 1_555 1_555
O2_2 C12_3 1_555 1_555
N3_3 N5_3 1_555 1_555
C6_3 C10_3 1_555 1_555
H5_3 C10_3 1_555 1_555
C12_3 C6_3 1_555 1_555
Zn6 O2_2 1_555 1_555
Si1_2 C14_2 1_555 1_555
N1_4 N3_4 1_555 1_555
N3_4 N5_4 1_555 1_555
N5_4 C3_4 1_555 1_555
C3_4 C19_4 1_555 1_555
C4_4 C13_4 1_555 1_555
C6_4 C10_4 1_555 1_555
C7_4 N1_4 1_555 1_555
C10_4 C7_4 1_555 1_555
H5_4 C10_4 1_555 1_555
C13_4 C7_4 1_555 1_555
H6_4 C13_4 1_555 1_555
C19_4 N1_4 1_555 1_555
H10_4 C19_4 1_555 1_555
C20_2 C3_4 1_555 1_555
H13_4 C25_4 1_555 1_555
C26_2 H14_2 1_555 1_555
C27_2 C14_2 1_555 1_555
H15_2 C27_2 1_555 1_555
C28_2 C20_2 1_555 1_555
H16_3 C28_2 1_555 1_555
C29_2 Si1_2 1_555 1_555
C32_2 C29_2 1_555 1_555
H20_2 C32_2 1_555 1_555
C33_2 C20_2 1_555 1_555
H21_4 C33_2 1_555 1_555
C34_2 Si1_2 1_555 1_555
H22_2 C34_2 1_555 1_555
H23_2 C34_2 1_555 1_555
H24_2 C34_2 1_555 1_555
C25_4 C27_2 1_555 1_555
C26_2 C28_2 1_555 1_555
C26_2 C29_2 1_555 1_555
C32_2 C33_2 1_555 1_555
O11_2 C12_4 1_555 1_555
O3_2 C30_4 1_555 1_555
O13_2 C16_4 1_555 1_555
O14_2 C16_4 1_555 1_555
O8_2 C30_4 1_555 1_555
H8_4 C17_4 1_555 1_555
Zn5 O3_2 1_555 1_555
O8_2 Zn5 1_555 1_555
Zn5 O4_4 1_555 1_555
O4_4 C22_4 1_555 1_555
O7_4 C22_4 1_555 1_555
C8_4 C15_4 1_555 1_555
C15_4 C11_4 1_555 1_555
H7_4 C15_4 1_555 1_555
C22_4 C11_4 1_555 1_555
O9_4 Zn6 1_555 1_555
H1_4 O9_4 1_555 1_555
H2_4 O9_4 1_555 1_555
Si1_3 C14_3 1_555 1_555
C14_3 C18 1_555 1_555
C18 H9 1_555 1_555
C23 C18 1_555 1_555
H12 C23 1_555 1_555
C26_3 H14_3 1_555 1_555
C27_3 C14_3 1_555 1_555
H15_3 C27_3 1_555 1_555
C28_3 C20_3 1_555 1_555
C29_3 Si1_3 1_555 1_555
C31 Si1_3 1_555 1_555
H17 C31 1_555 1_555
H18_3 C31 1_555 1_555
H19 C31 1_555 1_555
C32_3 C29_3 1_555 1_555
H20_3 C32_3 1_555 1_555
C33_3 C20_3 1_555 1_555
C34_3 Si1_3 1_555 1_555
H22_3 C34_3 1_555 1_555
H23_3 C34_3 1_555 1_555
H24_3 C34_3 1_555 1_555
C26_3 C28_3 1_555 1_555
C26_3 C29_3 1_555 1_555
C32_3 C33_3 1_555 1_555
N2_3 N6_3 1_555 1_555
N4_3 N6_3 1_555 1_555
C1_3 N2_3 1_555 1_555
C2_3 N4_3 1_555 1_555
C5_3 N2_3 1_555 1_555
C9_3 C1_3 1_555 1_555
H4_3 C9_3 1_555 1_555
C18_2 H9_2 1_555 1_555
C21_3 C1_3 1_555 1_555
C23_2 C18_2 1_555 1_555
H12_2 C23_2 1_555 1_555
C24_3 C2_3 1_555 1_555
H17_2 C31_2 1_555 1_555
H19_2 C31_2 1_555 1_555
C2_3 C5_3 1_555 1_555
C23_2 C24_3 1_555 1_555
Si1_4 C14_4 1_555 1_555
C14_4 C18_3 1_555 1_555
C18_3 H9_3 1_555 1_555
C23_3 C18_3 1_555 1_555
H12_3 C23_3 1_555 1_555
C26_4 H14_4 1_555 1_555
C27_4 C14_4 1_555 1_555
H15_4 C27_4 1_555 1_555
C28_4 C20_4 1_555 1_555
C29_4 Si1_4 1_555 1_555
C31_3 Si1_4 1_555 1_555
H17_3 C31_3 1_555 1_555
H18_4 C31_3 1_555 1_555
H19_3 C31_3 1_555 1_555
C32_4 C29_4 1_555 1_555
H20_4 C32_4 1_555 1_555
C33_4 C20_4 1_555 1_555
C34_4 Si1_4 1_555 1_555
H22_4 C34_4 1_555 1_555
H23_4 C34_4 1_555 1_555
H24_4 C34_4 1_555 1_555
C26_4 C28_4 1_555 1_555
C26_4 C29_4 1_555 1_555
C32_4 C33_4 1_555 1_555
N2_4 N6_4 1_555 1_555
N4_4 N6_4 1_555 1_555
C1_4 N2_4 1_555 1_555
C2_4 N4_4 1_555 1_555
C5_4 N2_4 1_555 1_555
C9_4 C1_4 1_555 1_555
H4_4 C9_4 1_555 1_555
C18_4 H9_4 1_555 1_555
C21_4 C1_4 1_555 1_555
C23_4 C18_4 1_555 1_555
H12_4 C23_4 1_555 1_555
C24_4 C2_4 1_555 1_555
H17_4 C31_4 1_555 1_555
H19_4 C31_4 1_555 1_555
C2_4 C5_4 1_555 1_555
C23_4 C24_4 1_555 1_555

#END
