
###############################################################################
#
# This file contains modified crystal structure data generated from the
# MOF subset of the Cambridge Structural Database (CSD) v543 
# hosted by the Cambridge Crystallographic Data Centre (CCDC).
#
# This work is licensed under the Creative Commons
# Attribution-NonCommercial-ShareAlike 4.0 International License.
# To view a copy of this license, visit
# http://creativecommons.org/licenses/by-nc-sa/4.0/
# or send a letter to
# Creative Commons, PO Box 1866, Mountain View, CA 94042, USA.
#
# CIF created using the CSD Python API on 29 September 2022
# The structure has been converted into the P1 space group
# The structure has a 3D framework
# The original CSD entry KUJDIF is in the monoclinic crystal system
# The framework has been calculated to contain at least 10.0% void space
# The void calculation uses a probe of radius 1.32A, grid spacing 0.4
#
###############################################################################

data_KUJDIF
_chemical_formula_moiety         '(C96 H88 Cd4 N16 O16)n'
_symmetry_cell_setting           triclinic
_symmetry_space_group_name_H-M   'P 1'
_symmetry_Int_Tables_number      1
_space_group_name_Hall           'P 1'
loop_
_symmetry_equiv_pos_site_id
_symmetry_equiv_pos_as_xyz
1 x,y,z
_cell_length_a                   14.6124(13)
_cell_length_b                   14.2124(13)
_cell_length_c                   19.6615(13)
_cell_angle_alpha                90
_cell_angle_beta                 132.202(4)
_cell_angle_gamma                90
_cell_volume                     3024.79
loop_
_atom_site_label
_atom_site_type_symbol
_atom_site_fract_x
_atom_site_fract_y
_atom_site_fract_z
C5 C 0.0848(8) 0.6536(5) 0.5572(6)
C6 C 0.0168(6) 0.5413(6) 0.6070(6)
H1 H 0.0681 0.7058 0.5201
C9 C 0.2015(7) 0.6128(5) 0.6156(7)
C10 C 0.1336(7) 0.5006(5) 0.6655(6)
H5 H 0.2646 0.6373 0.6186
C13 C 0.2259(6) 0.5364(5) 0.6698(6)
H6 H 0.1503 0.4484 0.7025
N3 N 0.3464(9) 0.4983(6) 0.7322(6)
C15 C 0.4512(10) 0.5487(7) 0.8053(8)
C16 C 0.3878(11) 0.4087(8) 0.7376(8)
H9 H 0.4545 0.6132 0.8197
C19 C 0.5472(11) 0.4869(7) 0.8517(8)
C20 C 0.3103(14) 0.3343(10) 0.6661(11)
H11 H 0.6297 0.5005 0.9060
H12 H 0.3505 0.2725 0.6931
H13 H 0.2289 0.3324 0.6484
C23 C 0.2906(16) 0.3488(16) 0.5822(12)
H17 H 0.2679 0.4145 0.5620
H18 H 0.2265 0.3071 0.5320
H19 H 0.3697 0.3349 0.5997
N5 N 0.5054(9) 0.4014(6) 0.8070(6)
Cd2 Cd 0.63004(5) 0.27176(5) 0.86838(4)
N4 N 0.5153(11) 0.1174(7) 0.9961(8)
C17 C 0.5984(17) 0.1387(9) 0.9861(13)
C18 C 0.4287(17) 0.1891(10) 0.9542(13)
C22 C 0.4525(19) 0.2458(12) 0.9149(14)
H10 H 0.3637 0.1960 0.9538
H15 H 0.7338 0.0967 0.9899
H16 H 0.4053 0.2993 0.8786
N6 N 0.5609(13) 0.2132(8) 0.9359(10)
O1 O 0.7860(10) 0.3727(9) 0.9871(9)
O2 O 0.8482(17) 0.2639(10) 0.9537(13)
O3 O 0.5829(14) 0.1268(7) 0.7997(8)
O4 O 0.5929(14) 0.2407(9) 0.7339(10)
C1 C 0.8625(11) 0.3390(9) 0.9901(9)
C2 C 0.5774(14) 0.1551(8) 0.7399(11)
C4 C 0.5575(10) 0.0849(4) 0.6727(6)
C8 C 0.5517(12) 0.1135(3) 0.6023(7)
C12 C 0.5367(11) 0.0472(5) 0.5435(6)
H4 H 0.5581 0.1784 0.5944
H8 H 0.5328 0.0668 0.4954
C7 C 0.5482(11) 0.0100(5) 0.1842(6)
H3 H 0.5521 0.0296 0.2323
C11 C 0.5331(11) 0.0763(3) 0.1254(7)
H7 H 0.5267 0.1412 0.1333
C14 C 0.5274(10) 0.0477(4) 0.0550(6)
C21 C 0.7098(14) 0.0850(9) 0.0258(11)
H14 H 0.6926 0.0169 0.0222
C24 C 0.8144(18) 0.1122(18) 0.1241(18)
H20 H 0.8454 0.1731 0.1238
H21 H 0.8810 0.0656 0.1555
H22 H 0.7849 0.1182 0.1563
Cd1 Cd 0.63004(5) 0.72824(5) 0.36838(4)
O1_2 O 0.7860(10) 0.6273(9) 0.4871(9)
O2_2 O 0.8482(17) 0.7361(10) 0.4537(13)
O3_2 O 0.5829(14) 0.8732(7) 0.2997(8)
O4_2 O 0.5929(14) 0.7593(9) 0.2339(10)
N1 N 0.5054(9) 0.5986(6) 0.3070(6)
N2 N 0.5609(13) 0.7868(8) 0.4359(10)
C1_2 C 0.8625(11) 0.6610(9) 0.4901(9)
C2_2 C 0.5774(14) 0.8449(8) 0.2399(11)
C3 C 0.9924(6) 0.6178(6) 0.5528(6)
C4_2 C 0.5575(10) 0.9151(4) 0.1727(6)
C8_2 C 0.5517(12) 0.8865(3) 0.1023(7)
H2 H 0.9537 0.5169 0.6041
C12_2 C 0.5367(11) 0.9528(5) 0.0435(6)
H4_2 H 0.5581 0.8216 0.0944
C5_2 C 0.0848(8) 0.3464(5) 0.0572(6)
C6_2 C 0.0168(6) 0.4587(6) 0.1070(6)
H1_2 H 0.0681 0.2942 0.0201
C9_2 C 0.2015(7) 0.3872(5) 0.1156(7)
C10_2 C 0.1336(7) 0.4994(5) 0.1655(6)
H5_2 H 0.2646 0.3627 0.1186
C13_2 C 0.2259(6) 0.4636(5) 0.1698(6)
H6_2 H 0.1503 0.5516 0.2025
N3_2 N 0.3464(9) 0.5017(6) 0.2322(6)
C15_2 C 0.4512(10) 0.4513(7) 0.3053(8)
C16_2 C 0.3878(11) 0.5913(8) 0.2376(8)
H9_2 H 0.4545 0.3868 0.3197
C19_2 C 0.5472(11) 0.5131(7) 0.3517(8)
C20_2 C 0.3103(14) 0.6657(10) 0.1661(11)
H11_2 H 0.6297 0.4995 0.4060
H12_2 H 0.3505 0.7275 0.1931
H13_2 H 0.2289 0.6676 0.1484
C23_2 C 0.2906(16) 0.6512(16) 0.0822(12)
H17_2 H 0.2679 0.5855 0.0620
H18_2 H 0.2265 0.6929 0.0320
H19_2 H 0.3697 0.6651 0.0997
C7_2 C 0.5482(11) 0.9900(5) 0.6842(6)
H3_2 H 0.5521 0.9704 0.7323
C11_2 C 0.5331(11) 0.9237(3) 0.6254(7)
H7_2 H 0.5267 0.8588 0.6333
C14_2 C 0.5274(10) 0.9523(4) 0.5550(6)
N4_2 N 0.5153(11) 0.8826(7) 0.4961(8)
C17_2 C 0.5984(17) 0.8613(9) 0.4861(13)
C18_2 C 0.4287(17) 0.8109(10) 0.4542(13)
C21_2 C 0.7098(14) 0.9150(9) 0.5258(11)
C22_2 C 0.4525(19) 0.7542(12) 0.4149(14)
H10_2 H 0.3637 0.8040 0.4538
H14_2 H 0.6926 0.9831 0.5222
H15_2 H 0.7338 0.9033 0.4899
C24_2 C 0.8144(18) 0.8878(18) 0.6241(18)
H16_2 H 0.4053 0.7007 0.3786
H20_2 H 0.8454 0.8269 0.6238
H21_2 H 0.8810 0.9344 0.6555
H22_2 H 0.7849 0.8818 0.6563
H8_2 H 0.5328 0.9332 0.9954
C3_2 C 0.9924(6) 0.3822(6) 0.0528(6)
H2_2 H 0.9537 0.4831 0.1041
H35 H 0.0171 0.3789 0.4630
N8 N 0.0049(12) 0.0372(10) 0.5717(9)
C30 C 0.0090(16) 0.1486(10) 0.6717(11)
H24 H 0.0764 0.1086 0.7233
C31 C 0.0577(19) 0.2466(13) 0.6866(15)
H26 H 0.0839 0.2747 0.7429
H27 H 0.1291 0.2406 0.6919
C36 C 0.2285(8) 0.0397(4) 0.6926(7)
H30 H 0.2261 0.1050 0.6813
H31 H 0.4160 0.0299 0.7930
O7 O 0.7531(9) 0.6272(6) 0.0253(7)
C37 C 0.9384(17) 0.3467(18) 0.4155(17)
H34 H 0.9425 0.2827 0.4358
H36 H 0.9225 0.3441 0.3585
C38 C 0.8288(13) 0.3969(11) 0.3997(10)
H37 H 0.8432 0.3919 0.4565
N9 N 0.6459(10) 0.2878(7) 0.3269(7)
C39 C 0.7084(12) 0.3567(10) 0.3236(9)
C40 C 0.7387(13) 0.6552(10) 0.0791(10)
N10 N 0.6395(10) 0.3806(7) 0.2323(7)
C41 C 0.6696(8) 0.4486(4) 0.1988(6)
O8 O 0.7221(14) 0.7394(6) 0.0850(9)
C42 C 0.5371(13) 0.2740(7) 0.2372(9)
C43 C 0.5334(12) 0.3275(8) 0.1799(8)
H38 H 0.8284 0.4646 0.3875
C44 C 0.6908(9) 0.6106(3) 0.1756(6)
C45 C 0.6664(9) 0.5438(4) 0.2133(6)
C46 C 0.6971(9) 0.4202(4) 0.1466(6)
C47 C 0.7183(9) 0.5822(4) 0.1234(6)
C48 C 0.7215(9) 0.4870(5) 0.1089(6)
H39 H 0.7403 0.4676 0.0733
H40 H 0.4734 0.2319 0.2188
H41 H 0.4694 0.3287 0.1149
H42 H 0.6886 0.6757 0.1854
H43 H 0.6476 0.5633 0.2489
H44 H 0.6993 0.3551 0.1368
Cd6 Cd 0.69609(5) 0.22776(5) 0.45563(4)
Cd4 Cd 0.69609(5) 0.77224(5) 0.95563(4)
N7 N 0.8420(11) 0.8730(10) 0.9970(8)
O5 O 0.5649(7) 0.8971(5) 0.8839(6)
C25 C 0.4702(15) 0.8509(10) 0.8467(11)
O6 O 0.4714(11) 0.7657(6) 0.8635(10)
C28 C 0.1193(6) 0.9887(6) 0.6428(6)
C32 C 0.3449(6) 0.8995(5) 0.7755(6)
C33 C 0.2357(8) 0.8485(4) 0.7257(7)
C34 C 0.3413(6) 0.9951(5) 0.7590(6)
H28 H 0.2381 0.7832 0.7370
C35 C 0.1228(6) 0.8931(6) 0.6593(7)
H29 H 0.0482 0.8582 0.6253
N12 N 0.6459(10) 0.7122(7) 0.8269(7)
C26 C 0.8330(18) 0.0664(15) 0.4406(14)
C27 C 0.9579(13) 0.1027(10) 0.5821(10)
C29 C 0.9233(17) 0.0085(18) 0.4838(15)
H23 H 0.9428 0.1502 0.6733
H25 H 0.9952 0.2868 0.6341
H33 H 0.7670 0.0664 0.3758
N11 N 0.8420(11) 0.1270(10) 0.4970(8)
O5_2 O 0.5649(7) 0.1029(5) 0.3839(6)
C25_2 C 0.4702(15) 0.1491(10) 0.3467(11)
O6_2 O 0.4714(11) 0.2343(6) 0.3635(10)
C28_2 C 0.1193(6) 0.0113(6) 0.1428(6)
C32_2 C 0.3449(6) 0.1005(5) 0.2755(6)
C33_2 C 0.2357(8) 0.1515(4) 0.2257(7)
C34_2 C 0.3413(6) 0.0049(5) 0.2590(6)
H28_2 H 0.2381 0.2168 0.2370
C35_2 C 0.1228(6) 0.1069(6) 0.1593(7)
H29_2 H 0.0482 0.1418 0.1253
O7_2 O 0.7531(9) 0.3728(6) 0.5253(7)
C37_2 C 0.9384(17) 0.6533(18) 0.9155(17)
H34_2 H 0.9425 0.7173 0.9358
H36_2 H 0.9225 0.6559 0.8585
C38_2 C 0.8288(13) 0.6031(11) 0.8997(10)
H37_2 H 0.8432 0.6081 0.9565
C39_2 C 0.7084(12) 0.6433(10) 0.8236(9)
C40_2 C 0.7387(13) 0.3448(10) 0.5791(10)
N10_2 N 0.6395(10) 0.6194(7) 0.7323(7)
C41_2 C 0.6696(8) 0.5514(4) 0.6988(6)
O8_2 O 0.7221(14) 0.2606(6) 0.5850(9)
C42_2 C 0.5371(13) 0.7260(7) 0.7372(9)
C43_2 C 0.5334(12) 0.6725(8) 0.6799(8)
H38_2 H 0.8284 0.5354 0.8875
C44_2 C 0.6908(9) 0.3894(3) 0.6756(6)
C45_2 C 0.6664(9) 0.4562(4) 0.7133(6)
C46_2 C 0.6971(9) 0.5798(4) 0.6466(6)
C47_2 C 0.7183(9) 0.4178(4) 0.6234(6)
C48_2 C 0.7215(9) 0.5130(5) 0.6089(6)
H39_2 H 0.7403 0.5324 0.5733
H40_2 H 0.4734 0.7681 0.7188
H41_2 H 0.4694 0.6713 0.6149
H42_2 H 0.6886 0.3243 0.6854
H43_2 H 0.6476 0.4367 0.7489
H44_2 H 0.6993 0.6449 0.6368
C26_2 C 0.8330(18) 0.9336(15) 0.9406(14)
C29_2 C 0.9233(17) 0.9915(18) 0.9838(15)
H33_2 H 0.7670 0.9336 0.8758
H32 H 0.9312 0.9555 0.4586
H35_2 H 0.0171 0.6211 0.9630
N8_2 N 0.0049(12) 0.9628(10) 0.0717(9)
C30_2 C 0.0090(16) 0.8514(10) 0.1717(11)
H24_2 H 0.0764 0.8914 0.2233
C31_2 C 0.0577(19) 0.7534(13) 0.1866(15)
H26_2 H 0.0839 0.7253 0.2429
H27_2 H 0.1291 0.7594 0.1919
C36_2 C 0.2285(8) 0.9603(4) 0.1926(7)
H30_2 H 0.2261 0.8950 0.1813
H31_2 H 0.4160 0.9701 0.2930
H32_2 H 0.9312 0.0445 0.9586
C27_2 C 0.9579(13) 0.8973(10) 0.0821(10)
H23_2 H 0.9428 0.8498 0.1733
H25_2 H 0.9952 0.7132 0.1341
loop_
_geom_bond_atom_site_label_1
_geom_bond_atom_site_label_2
_geom_bond_site_symmetry_1
_geom_bond_site_symmetry_2
H1 C5 1_555 1_555
C9 C5 1_555 1_555
C10 C6 1_555 1_555
H5 C9 1_555 1_555
C13 C9 1_555 1_555
H6 C10 1_555 1_555
N3 C13 1_555 1_555
C15 N3 1_555 1_555
C16 N3 1_555 1_555
H9 C15 1_555 1_555
C19 C15 1_555 1_555
C20 C16 1_555 1_555
H11 C19 1_555 1_555
H12 C20 1_555 1_555
H13 C20 1_555 1_555
C23 C20 1_555 1_555
H17 C23 1_555 1_555
H18 C23 1_555 1_555
H19 C23 1_555 1_555
N5 C16 1_555 1_555
Cd2 N5 1_555 1_555
C10 C13 1_555 1_555
C19 N5 1_555 1_555
C17 N4 1_555 1_555
C18 N4 1_555 1_555
C22 C18 1_555 1_555
H10 C18 1_555 1_555
H16 C22 1_555 1_555
N6 C17 1_555 1_555
Cd2 N6 1_555 1_555
C22 N6 1_555 1_555
Cd2 O1 1_555 1_555
O1 C1 1_555 1_555
O2 Cd2 1_555 1_555
O3 Cd2 1_555 1_555
O4 Cd2 1_555 1_555
C1 O2 1_555 1_555
C2 O3 1_555 1_555
C4 C2 1_555 1_555
C8 C4 1_555 1_555
C12 C8 1_555 1_555
H4 C8 1_555 1_555
H8 C12 1_555 1_555
O4 C2 1_555 1_555
H3 C7 1_555 1_555
C11 C7 1_555 1_555
H7 C11 1_555 1_555
C14 C11 1_555 1_555
H14 C21 1_555 1_555
C24 C21 1_555 1_555
H20 C24 1_555 1_555
H21 C24 1_555 1_555
H22 C24 1_555 1_555
Cd1 O1_2 1_555 1_555
O1_2 C1_2 1_555 1_555
O2_2 Cd1 1_555 1_555
O3_2 Cd1 1_555 1_555
O4_2 Cd1 1_555 1_555
N1 Cd1 1_555 1_555
N2 Cd1 1_555 1_555
C1_2 O2_2 1_555 1_555
C2_2 O3_2 1_555 1_555
C3 C1_2 1_555 1_555
C4_2 C2_2 1_555 1_555
C8_2 C4_2 1_555 1_555
C12_2 C8_2 1_555 1_555
H4_2 C8_2 1_555 1_555
O4_2 C2_2 1_555 1_555
H1_2 C5_2 1_555 1_555
C9_2 C5_2 1_555 1_555
C10_2 C6_2 1_555 1_555
H5_2 C9_2 1_555 1_555
C13_2 C9_2 1_555 1_555
H6_2 C10_2 1_555 1_555
N3_2 C13_2 1_555 1_555
C15_2 N3_2 1_555 1_555
C16_2 N3_2 1_555 1_555
H9_2 C15_2 1_555 1_555
C19_2 C15_2 1_555 1_555
C20_2 C16_2 1_555 1_555
H11_2 C19_2 1_555 1_555
H12_2 C20_2 1_555 1_555
H13_2 C20_2 1_555 1_555
C23_2 C20_2 1_555 1_555
H17_2 C23_2 1_555 1_555
H18_2 C23_2 1_555 1_555
H19_2 C23_2 1_555 1_555
N1 C16_2 1_555 1_555
C10_2 C13_2 1_555 1_555
C19_2 N1 1_555 1_555
H3_2 C7_2 1_555 1_555
C11_2 C7_2 1_555 1_555
H7_2 C11_2 1_555 1_555
C14_2 C11_2 1_555 1_555
N4_2 C14_2 1_555 1_555
C17_2 N4_2 1_555 1_555
C18_2 N4_2 1_555 1_555
C21_2 C17_2 1_555 1_555
C22_2 C18_2 1_555 1_555
H10_2 C18_2 1_555 1_555
H14_2 C21_2 1_555 1_555
H15_2 C21_2 1_555 1_555
C24_2 C21_2 1_555 1_555
H16_2 C22_2 1_555 1_555
H20_2 C24_2 1_555 1_555
H21_2 C24_2 1_555 1_555
H22_2 C24_2 1_555 1_555
N2 C17_2 1_555 1_555
C22_2 N2 1_555 1_555
H24 C30 1_555 1_555
C31 C30 1_555 1_555
H26 C31 1_555 1_555
H27 C31 1_555 1_555
H30 C36 1_555 1_555
C37 H34 1_555 1_555
H36 C37 1_555 1_555
C38 C37 1_555 1_555
H37 C38 1_555 1_555
N9 C39 1_555 1_555
C39 C38 1_555 1_555
C40 O7 1_555 1_555
N10 C39 1_555 1_555
C41 N10 1_555 1_555
C42 N9 1_555 1_555
C43 N10 1_555 1_555
H38 C38 1_555 1_555
C44 C45 1_555 1_555
C45 C41 1_555 1_555
C46 C41 1_555 1_555
C47 C40 1_555 1_555
C48 C46 1_555 1_555
H39 C48 1_555 1_555
H40 C42 1_555 1_555
H41 C43 1_555 1_555
H42 C44 1_555 1_555
H43 C45 1_555 1_555
H44 C46 1_555 1_555
Cd6 N9 1_555 1_555
C40 O8 1_555 1_555
C42 C43 1_555 1_555
C44 C47 1_555 1_555
C47 C48 1_555 1_555
Cd4 N7 1_555 1_555
O5 Cd4 1_555 1_555
C25 O5 1_555 1_555
O6 Cd4 1_555 1_555
C28 C35 1_555 1_555
C32 C25 1_555 1_555
C33 C32 1_555 1_555
C34 C32 1_555 1_555
H28 C33 1_555 1_555
C35 C33 1_555 1_555
H29 C35 1_555 1_555
N12 Cd4 1_555 1_555
C25 O6 1_555 1_555
C26 C29 1_555 1_555
H33 C26 1_555 1_555
Cd6 N11 1_555 1_555
N11 C26 1_555 1_555
C27 N11 1_555 1_555
O5_2 Cd6 1_555 1_555
C25_2 O5_2 1_555 1_555
O6_2 Cd6 1_555 1_555
C28_2 C35_2 1_555 1_555
C32_2 C25_2 1_555 1_555
C33_2 C32_2 1_555 1_555
C34_2 C32_2 1_555 1_555
H28_2 C33_2 1_555 1_555
C35_2 C33_2 1_555 1_555
H29_2 C35_2 1_555 1_555
O7_2 Cd6 1_555 1_555
C37_2 H34_2 1_555 1_555
H36_2 C37_2 1_555 1_555
C38_2 C37_2 1_555 1_555
H37_2 C38_2 1_555 1_555
N12 C39_2 1_555 1_555
C39_2 C38_2 1_555 1_555
C40_2 O7_2 1_555 1_555
N10_2 C39_2 1_555 1_555
C41_2 N10_2 1_555 1_555
O8_2 Cd6 1_555 1_555
C42_2 N12 1_555 1_555
C43_2 N10_2 1_555 1_555
H38_2 C38_2 1_555 1_555
C44_2 C45_2 1_555 1_555
C45_2 C41_2 1_555 1_555
C46_2 C41_2 1_555 1_555
C47_2 C40_2 1_555 1_555
C48_2 C46_2 1_555 1_555
H39_2 C48_2 1_555 1_555
H40_2 C42_2 1_555 1_555
H41_2 C43_2 1_555 1_555
H42_2 C44_2 1_555 1_555
H43_2 C45_2 1_555 1_555
H44_2 C46_2 1_555 1_555
C25_2 O6_2 1_555 1_555
C40_2 O8_2 1_555 1_555
C42_2 C43_2 1_555 1_555
C44_2 C47_2 1_555 1_555
C47_2 C48_2 1_555 1_555
C26_2 C29_2 1_555 1_555
H33_2 C26_2 1_555 1_555
N7 C26_2 1_555 1_555
H24_2 C30_2 1_555 1_555
C31_2 C30_2 1_555 1_555
H26_2 C31_2 1_555 1_555
H27_2 C31_2 1_555 1_555
H30_2 C36_2 1_555 1_555

#END
