
###############################################################################
#
# This file contains modified crystal structure data generated from the
# MOF subset of the Cambridge Structural Database (CSD) v543 
# hosted by the Cambridge Crystallographic Data Centre (CCDC).
#
# This work is licensed under the Creative Commons
# Attribution-NonCommercial-ShareAlike 4.0 International License.
# To view a copy of this license, visit
# http://creativecommons.org/licenses/by-nc-sa/4.0/
# or send a letter to
# Creative Commons, PO Box 1866, Mountain View, CA 94042, USA.
#
# CIF created using the CSD Python API on 29 September 2022
# The structure has been converted into the P1 space group
# The structure has a 3D framework
# The original CSD entry KUKBUQ is in the monoclinic crystal system
# The framework has been calculated to contain at least 10.0% void space
# The void calculation uses a probe of radius 1.32A, grid spacing 0.4
#
###############################################################################

data_KUKBUQ
_chemical_formula_moiety         '(C152 H80 N16 O48 S8 Zn8)n'
_symmetry_cell_setting           triclinic
_symmetry_space_group_name_H-M   'P 1'
_symmetry_Int_Tables_number      1
_space_group_name_Hall           'P 1'
loop_
_symmetry_equiv_pos_site_id
_symmetry_equiv_pos_as_xyz
1 x,y,z
_cell_length_a                   22.7246(8)
_cell_length_b                   17.0304(6)
_cell_length_c                   12.6018(6)
_cell_angle_alpha                90
_cell_angle_beta                 90.354(4)
_cell_angle_gamma                90
_cell_volume                     4876.92
loop_
_atom_site_label
_atom_site_type_symbol
_atom_site_fract_x
_atom_site_fract_y
_atom_site_fract_z
Zn6 Zn 0.68647(2) 0.32506(3) 0.02969(4)
S1 S 0.71167(5) 0.42472(7) 0.76869(10)
Zn1 Zn 0.68647(2) 0.67494(3) 0.52969(4)
N1 N 0.60272(15) 0.66241(19) 0.4798(3)
N2 N 0.38158(16) 0.6745(2) 0.4001(3)
O1 O 0.73523(17) 0.58199(18) 0.5524(3)
O2 O 0.66113(18) 0.5627(2) 0.6598(3)
O3 O 0.72306(13) 0.28267(18) 0.8979(2)
O4 O 0.81710(13) 0.25894(17) 0.8640(2)
O5 O 0.38525(16) 0.5863(2) 0.5334(3)
O6 O 0.38374(16) 0.7695(3) 0.2734(3)
C1 C 0.7097(2) 0.5462(3) 0.6222(4)
C2 C 0.7411(2) 0.4730(3) 0.6662(4)
C3 C 0.7921(2) 0.4433(3) 0.6332(4)
H1 H 0.8138 0.4639 0.5753
C4 C 0.8108(2) 0.3759(3) 0.6956(4)
H2 H 0.8460 0.3469 0.6848
C5 C 0.77032(19) 0.3606(2) 0.7716(3)
C6 C 0.77012(19) 0.2978(2) 0.8507(3)
C7 C 0.5824(2) 0.5926(3) 0.4526(4)
H3 H 0.6076 0.5485 0.4605
C8 C 0.5263(2) 0.5804(3) 0.4134(4)
H4 H 0.5136 0.5290 0.3952
C9 C 0.48945(19) 0.6425(3) 0.4011(4)
C10 C 0.5091(2) 0.7160(3) 0.4324(5)
H5 H 0.4839 0.7604 0.4282
C11 C 0.5658(2) 0.7233(3) 0.4697(5)
H6 H 0.5795 0.7740 0.4893
C12 C 0.4300(2) 0.6313(4) 0.3485(5)
H7 H 0.4326 0.6485 0.2737
H8 H 0.4203 0.5746 0.3485
C13 C 0.36007(19) 0.6407(3) 0.4929(4)
C14 C 0.30450(18) 0.6738(2) 0.5354(3)
C15 C 0.27731(17) 0.7358(2) 0.4809(3)
C16 C 0.30266(18) 0.7709(3) 0.3903(3)
C17 C 0.3588(2) 0.7409(3) 0.3487(4)
C18 C 0.2743(2) 0.8310(3) 0.3386(4)
H9 H 0.2916 0.8539 0.2776
C19 C 0.2798(2) 0.6411(3) 0.6251(4)
H10 H 0.2995 0.6000 0.6618
N4 N 0.11842(16) 0.8255(2) 0.5999(3)
O7 O 0.11475(16) 0.9137(2) 0.4666(3)
O8 O 0.11626(16) 0.7305(3) 0.7266(3)
C22 C 0.01055(19) 0.8575(3) 0.5989(4)
H13 H 0.0161 0.7396 0.5718
C25 C 0.0700(2) 0.8687(4) 0.6515(5)
H15 H 0.0674 0.8515 0.7263
H16 H 0.0797 0.9254 0.6515
C26 C 0.13993(19) 0.8593(3) 0.5071(4)
C27 C 0.19550(18) 0.8262(2) 0.4646(3)
C28 C 0.22269(17) 0.7642(2) 0.5191(3)
C29 C 0.19734(18) 0.7291(3) 0.6097(3)
C30 C 0.1412(2) 0.7591(3) 0.6513(4)
C31 C 0.2257(2) 0.6690(3) 0.6614(4)
H17 H 0.2084 0.6461 0.7224
C32 C 0.2202(2) 0.8589(3) 0.3749(4)
H18 H 0.2005 0.9000 0.3382
Zn4 Zn 0.81353(2) 0.17494(3) 0.97031(4)
O14 O 0.72306(13) 0.71733(18) 0.3979(2)
O15 O 0.68290(13) 0.75894(17) 0.6360(2)
S2 S 0.78833(5) 0.07528(7) 0.23131(10)
O11 O 0.77694(13) 0.21733(18) 0.1021(2)
O12 O 0.68290(13) 0.24106(17) 0.1360(2)
C34 C 0.7589(2) 0.0270(3) 0.3338(4)
C35 C 0.7079(2) 0.0567(3) 0.3668(4)
H19 H 0.6862 0.0361 0.4247
C36 C 0.6892(2) 0.1241(3) 0.3044(4)
H20 H 0.6540 0.1531 0.3152
C37 C 0.72968(19) 0.1394(2) 0.2284(3)
C38 C 0.72988(19) 0.2022(2) 0.1493(3)
N3 N 0.89728(15) 0.83759(19) 0.5202(3)
C20 C 0.9176(2) 0.9074(3) 0.5474(4)
H11 H 0.8924 0.9515 0.5395
C21 C 0.9737(2) 0.9196(3) 0.5866(4)
H12 H 0.9864 0.9710 0.6048
C23 C 0.9909(2) 0.7840(3) 0.5676(5)
C24 C 0.9342(2) 0.7767(3) 0.5303(5)
H14 H 0.9205 0.7260 0.5107
Zn2 Zn 0.81353(2) 0.82506(3) 0.47031(4)
O9 O 0.76477(17) 0.91801(18) 0.4476(3)
O10 O 0.83887(18) 0.9373(2) 0.3402(3)
C33 C 0.7903(2) 0.9538(3) 0.3778(4)
O13 O 0.77694(13) 0.78267(18) 0.6021(2)
O16 O 0.81710(13) 0.74106(17) 0.3640(2)
N2_2 N 0.11842(16) 0.1745(2) 0.0999(3)
O6_2 O 0.11626(16) 0.2695(3) 0.2266(3)
C9_2 C 0.01055(19) 0.1425(3) 0.0989(4)
H5_2 H 0.0161 0.2604 0.0718
C12_2 C 0.0700(2) 0.1313(4) 0.1515(5)
H7_2 H 0.0674 0.1485 0.2263
H8_2 H 0.0797 0.0746 0.1515
C13_2 C 0.13993(19) 0.1407(3) 0.0071(4)
C15_2 C 0.22269(17) 0.2358(2) 0.0191(3)
C16_2 C 0.19734(18) 0.2709(3) 0.1097(3)
C17_2 C 0.1412(2) 0.2409(3) 0.1513(4)
C18_2 C 0.2257(2) 0.3310(3) 0.1614(4)
H9_2 H 0.2084 0.3539 0.2224
O7_2 O 0.38525(16) 0.4137(2) 0.0334(3)
C27_2 C 0.30450(18) 0.3262(2) 0.0354(3)
C32_2 C 0.2798(2) 0.3589(3) 0.1251(4)
H18_2 H 0.2995 0.4000 0.1618
S2_2 S 0.71167(5) 0.57528(7) 0.26869(10)
O9_2 O 0.73523(17) 0.41801(18) 0.0524(3)
O10_2 O 0.66113(18) 0.4373(2) 0.1598(3)
C33_2 C 0.7097(2) 0.4538(3) 0.1222(4)
C34_2 C 0.7411(2) 0.5270(3) 0.1662(4)
C35_2 C 0.7921(2) 0.5567(3) 0.1332(4)
H19_2 H 0.8138 0.5361 0.0753
C36_2 C 0.8108(2) 0.6241(3) 0.1956(4)
H20_2 H 0.8460 0.6531 0.1848
C37_2 C 0.77032(19) 0.6394(2) 0.2716(3)
C38_2 C 0.77012(19) 0.7022(2) 0.3507(3)
O5_2 O 0.11475(16) 0.0863(2) 0.9666(3)
C14_2 C 0.19550(18) 0.1738(2) 0.9646(3)
C19_2 C 0.2202(2) 0.1411(3) 0.8749(4)
H10_2 H 0.2005 0.1000 0.8382
N3_2 N 0.60272(15) 0.33759(19) 0.9798(3)
N4_2 N 0.38158(16) 0.3255(2) 0.9001(3)
O8_2 O 0.38374(16) 0.2305(3) 0.7734(3)
C20_2 C 0.5824(2) 0.4074(3) 0.9526(4)
H11_2 H 0.6076 0.4515 0.9605
C21_2 C 0.5263(2) 0.4196(3) 0.9134(4)
H12_2 H 0.5136 0.4710 0.8952
C22_2 C 0.48945(19) 0.3575(3) 0.9011(4)
C23_2 C 0.5091(2) 0.2840(3) 0.9324(5)
H13_2 H 0.4839 0.2396 0.9282
C24_2 C 0.5658(2) 0.2767(3) 0.9697(5)
H14_2 H 0.5795 0.2260 0.9893
C25_2 C 0.4300(2) 0.3687(4) 0.8485(5)
H15_2 H 0.4326 0.3515 0.7737
H16_2 H 0.4203 0.4254 0.8485
C26_2 C 0.36007(19) 0.3593(3) 0.9929(4)
C28_2 C 0.27731(17) 0.2642(2) 0.9809(3)
C29_2 C 0.30266(18) 0.2291(3) 0.8903(3)
C30_2 C 0.3588(2) 0.2591(3) 0.8487(4)
C31_2 C 0.2743(2) 0.1690(3) 0.8386(4)
H17_2 H 0.2916 0.1461 0.7776
N1_2 N 0.89728(15) 0.16241(19) 0.0202(3)
C7_2 C 0.9176(2) 0.0926(3) 0.0474(4)
H3_2 H 0.8924 0.0485 0.0395
C8_2 C 0.9737(2) 0.0804(3) 0.0866(4)
H4_2 H 0.9864 0.0290 0.1048
C10_2 C 0.9909(2) 0.2160(3) 0.0676(5)
C11_2 C 0.9342(2) 0.2233(3) 0.0303(5)
H6_2 H 0.9205 0.2740 0.0107
O1_2 O 0.76477(17) 0.08199(18) 0.9476(3)
O2_2 O 0.83887(18) 0.0627(2) 0.8402(3)
C1_2 C 0.7903(2) 0.0462(3) 0.8778(4)
S1_2 S 0.78833(5) 0.92472(7) 0.73131(10)
C2_2 C 0.7589(2) 0.9730(3) 0.8338(4)
C3_2 C 0.7079(2) 0.9433(3) 0.8668(4)
H1_2 H 0.6862 0.9639 0.9247
C4_2 C 0.6892(2) 0.8759(3) 0.8044(4)
H2_2 H 0.6540 0.8469 0.8152
C5_2 C 0.72968(19) 0.8606(2) 0.7284(3)
C6_2 C 0.72988(19) 0.7978(2) 0.6493(3)
S2_3 S 0.21167(5) 0.07528(7) 0.26869(10)
O11_2 O 0.22306(13) 0.21733(18) 0.3979(2)
O12_2 O 0.31710(13) 0.24106(17) 0.3640(2)
C34_3 C 0.2411(2) 0.0270(3) 0.1662(4)
C35_3 C 0.2921(2) 0.0567(3) 0.1332(4)
H19_3 H 0.3138 0.0361 0.0753
C36_3 C 0.3108(2) 0.1241(3) 0.1956(4)
H20_3 H 0.3460 0.1531 0.1848
C37_3 C 0.27032(19) 0.1394(2) 0.2716(3)
C38_3 C 0.27012(19) 0.2022(2) 0.3507(3)
Zn3 Zn 0.18647(2) 0.17494(3) 0.52969(4)
Zn5 Zn 0.31353(2) 0.32506(3) 0.47031(4)
Zn2_2 Zn 0.18647(2) 0.82506(3) 0.02969(4)
O9_3 O 0.23523(17) 0.91801(18) 0.0524(3)
O10_3 O 0.16113(18) 0.9373(2) 0.1598(3)
C33_3 C 0.2097(2) 0.9538(3) 0.1222(4)
O16_2 O 0.18290(13) 0.74106(17) 0.1360(2)
N3_3 N 0.10272(15) 0.83759(19) 0.9798(3)
C20_3 C 0.0824(2) 0.9074(3) 0.9526(4)
H11_3 H 0.1076 0.9515 0.9605
C21_3 C 0.0263(2) 0.9196(3) 0.9134(4)
H12_3 H 0.0136 0.9710 0.8952
C23_3 C 0.0091(2) 0.7840(3) 0.9324(5)
C24_3 C 0.0658(2) 0.7767(3) 0.9697(5)
H14_3 H 0.0795 0.7260 0.9893
O13_2 O 0.22306(13) 0.78267(18) 0.8979(2)
N1_3 N 0.39728(15) 0.66241(19) 0.0202(3)
N2_3 N 0.61842(16) 0.6745(2) 0.0999(3)
O6_3 O 0.61626(16) 0.7695(3) 0.2266(3)
C7_3 C 0.4176(2) 0.5926(3) 0.0474(4)
H3_3 H 0.3924 0.5485 0.0395
C8_3 C 0.4737(2) 0.5804(3) 0.0866(4)
H4_3 H 0.4864 0.5290 0.1048
C9_3 C 0.51055(19) 0.6425(3) 0.0989(4)
C10_3 C 0.4909(2) 0.7160(3) 0.0676(5)
H5_3 H 0.5161 0.7604 0.0718
C11_3 C 0.4342(2) 0.7233(3) 0.0303(5)
H6_3 H 0.4205 0.7740 0.0107
C12_3 C 0.5700(2) 0.6313(4) 0.1515(5)
H7_3 H 0.5674 0.6485 0.2263
H8_3 H 0.5797 0.5746 0.1515
C13_3 C 0.63993(19) 0.6407(3) 0.0071(4)
C15_3 C 0.72269(17) 0.7358(2) 0.0191(3)
C16_3 C 0.69734(18) 0.7709(3) 0.1097(3)
C17_3 C 0.6412(2) 0.7409(3) 0.1513(4)
C18_3 C 0.7257(2) 0.8310(3) 0.1614(4)
H9_3 H 0.7084 0.8539 0.2224
O7_3 O 0.88525(16) 0.9137(2) 0.0334(3)
C27_3 C 0.80450(18) 0.8262(2) 0.0354(3)
C32_3 C 0.7798(2) 0.8589(3) 0.1251(4)
H18_3 H 0.7995 0.9000 0.1618
O14_2 O 0.27694(13) 0.71733(18) 0.1021(2)
S1_3 S 0.28833(5) 0.42472(7) 0.73131(10)
Zn1_2 Zn 0.31353(2) 0.67494(3) 0.97031(4)
O1_3 O 0.26477(17) 0.58199(18) 0.9476(3)
O2_3 O 0.33887(18) 0.5627(2) 0.8402(3)
O3_2 O 0.27694(13) 0.28267(18) 0.6021(2)
O4_2 O 0.18290(13) 0.25894(17) 0.6360(2)
O5_3 O 0.61475(16) 0.5863(2) 0.9666(3)
C1_3 C 0.2903(2) 0.5462(3) 0.8778(4)
C2_3 C 0.2589(2) 0.4730(3) 0.8338(4)
C3_3 C 0.2079(2) 0.4433(3) 0.8668(4)
H1_3 H 0.1862 0.4639 0.9247
C4_3 C 0.1892(2) 0.3759(3) 0.8044(4)
H2_3 H 0.1540 0.3469 0.8152
C5_3 C 0.22968(19) 0.3606(2) 0.7284(3)
C6_3 C 0.22988(19) 0.2978(2) 0.6493(3)
C14_3 C 0.69550(18) 0.6738(2) 0.9646(3)
C19_3 C 0.7202(2) 0.6411(3) 0.8749(4)
H10_3 H 0.7005 0.6000 0.8382
N4_3 N 0.88158(16) 0.8255(2) 0.9001(3)
O8_3 O 0.88374(16) 0.7305(3) 0.7734(3)
C22_3 C 0.98945(19) 0.8575(3) 0.9011(4)
H13_3 H 0.9839 0.7396 0.9282
C25_3 C 0.9300(2) 0.8687(4) 0.8485(5)
H15_3 H 0.9326 0.8515 0.7737
H16_3 H 0.9203 0.9254 0.8485
C26_3 C 0.86007(19) 0.8593(3) 0.9929(4)
C28_3 C 0.77731(17) 0.7642(2) 0.9809(3)
C29_3 C 0.80266(18) 0.7291(3) 0.8903(3)
C30_3 C 0.8588(2) 0.7591(3) 0.8487(4)
C31_3 C 0.7743(2) 0.6690(3) 0.8386(4)
H17_3 H 0.7916 0.6461 0.7776
O15_2 O 0.31710(13) 0.75894(17) 0.8640(2)
N1_4 N 0.10272(15) 0.16241(19) 0.4798(3)
O1_4 O 0.23523(17) 0.08199(18) 0.5524(3)
O2_4 O 0.16113(18) 0.0627(2) 0.6598(3)
C1_4 C 0.2097(2) 0.0462(3) 0.6222(4)
C7_4 C 0.0824(2) 0.0926(3) 0.4526(4)
H3_4 H 0.1076 0.0485 0.4605
C8_4 C 0.0263(2) 0.0804(3) 0.4134(4)
H4_4 H 0.0136 0.0290 0.3952
C10_4 C 0.0091(2) 0.2160(3) 0.4324(5)
C11_4 C 0.0658(2) 0.2233(3) 0.4697(5)
H6_4 H 0.0795 0.2740 0.4893
S1_4 S 0.21167(5) 0.92472(7) 0.76869(10)
C2_4 C 0.2411(2) 0.9730(3) 0.6662(4)
C3_4 C 0.2921(2) 0.9433(3) 0.6332(4)
H1_4 H 0.3138 0.9639 0.5753
C4_4 C 0.3108(2) 0.8759(3) 0.6956(4)
H2_4 H 0.3460 0.8469 0.6848
C5_4 C 0.27032(19) 0.8606(2) 0.7716(3)
C6_4 C 0.27012(19) 0.7978(2) 0.8507(3)
N2_4 N 0.88158(16) 0.1745(2) 0.4001(3)
O5_4 O 0.88525(16) 0.0863(2) 0.5334(3)
O6_4 O 0.88374(16) 0.2695(3) 0.2734(3)
C9_4 C 0.98945(19) 0.1425(3) 0.4011(4)
H5_4 H 0.9839 0.2604 0.4282
C12_4 C 0.9300(2) 0.1313(4) 0.3485(5)
H7_4 H 0.9326 0.1485 0.2737
H8_4 H 0.9203 0.0746 0.3485
C13_4 C 0.86007(19) 0.1407(3) 0.4929(4)
C14_4 C 0.80450(18) 0.1738(2) 0.5354(3)
C15_4 C 0.77731(17) 0.2358(2) 0.4809(3)
C16_4 C 0.80266(18) 0.2709(3) 0.3903(3)
C17_4 C 0.8588(2) 0.2409(3) 0.3487(4)
C18_4 C 0.7743(2) 0.3310(3) 0.3386(4)
H9_4 H 0.7916 0.3539 0.2776
C19_4 C 0.7798(2) 0.1411(3) 0.6251(4)
H10_4 H 0.7995 0.1000 0.6618
N3_4 N 0.39728(15) 0.33759(19) 0.5202(3)
N4_4 N 0.61842(16) 0.3255(2) 0.5999(3)
O7_4 O 0.61475(16) 0.4137(2) 0.4666(3)
O8_4 O 0.61626(16) 0.2305(3) 0.7266(3)
C20_4 C 0.4176(2) 0.4074(3) 0.5474(4)
H11_4 H 0.3924 0.4515 0.5395
C21_4 C 0.4737(2) 0.4196(3) 0.5866(4)
H12_4 H 0.4864 0.4710 0.6048
C22_4 C 0.51055(19) 0.3575(3) 0.5989(4)
C23_4 C 0.4909(2) 0.2840(3) 0.5676(5)
H13_4 H 0.5161 0.2396 0.5718
C24_4 C 0.4342(2) 0.2767(3) 0.5303(5)
H14_4 H 0.4205 0.2260 0.5107
C25_4 C 0.5700(2) 0.3687(4) 0.6515(5)
H15_4 H 0.5674 0.3515 0.7263
H16_4 H 0.5797 0.4254 0.6515
C26_4 C 0.63993(19) 0.3593(3) 0.5071(4)
C27_4 C 0.69550(18) 0.3262(2) 0.4646(3)
C28_4 C 0.72269(17) 0.2642(2) 0.5191(3)
C29_4 C 0.69734(18) 0.2291(3) 0.6097(3)
C30_4 C 0.6412(2) 0.2591(3) 0.6513(4)
C31_4 C 0.7257(2) 0.1690(3) 0.6614(4)
H17_4 H 0.7084 0.1461 0.7224
C32_4 C 0.7202(2) 0.3589(3) 0.3749(4)
H18_4 H 0.7005 0.4000 0.3382
S2_4 S 0.28833(5) 0.57528(7) 0.23131(10)
O9_4 O 0.26477(17) 0.41801(18) 0.4476(3)
O10_4 O 0.33887(18) 0.4373(2) 0.3402(3)
C33_4 C 0.2903(2) 0.4538(3) 0.3778(4)
C34_4 C 0.2589(2) 0.5270(3) 0.3338(4)
C35_4 C 0.2079(2) 0.5567(3) 0.3668(4)
H19_4 H 0.1862 0.5361 0.4247
C36_4 C 0.1892(2) 0.6241(3) 0.3044(4)
H20_4 H 0.1540 0.6531 0.3152
C37_4 C 0.22968(19) 0.6394(2) 0.2284(3)
C38_4 C 0.22988(19) 0.7022(2) 0.1493(3)
loop_
_geom_bond_atom_site_label_1
_geom_bond_atom_site_label_2
_geom_bond_site_symmetry_1
_geom_bond_site_symmetry_2
S1 C2 1_555 1_555
Zn1 N1 1_555 1_555
N1 C7 1_555 1_555
N2 C12 1_555 1_555
O1 Zn1 1_555 1_555
O2 C1 1_555 1_555
O3 C6 1_555 1_555
O4 C6 1_555 1_555
O5 C13 1_555 1_555
O6 C17 1_555 1_555
C1 O1 1_555 1_555
C2 C1 1_555 1_555
C3 C2 1_555 1_555
H1 C3 1_555 1_555
C4 C3 1_555 1_555
H2 C4 1_555 1_555
C5 S1 1_555 1_555
C6 C5 1_555 1_555
C7 H3 1_555 1_555
C8 C7 1_555 1_555
H4 C8 1_555 1_555
C9 C8 1_555 1_555
C10 C9 1_555 1_555
H5 C10 1_555 1_555
C11 N1 1_555 1_555
H6 C11 1_555 1_555
C12 C9 1_555 1_555
H7 C12 1_555 1_555
H8 C12 1_555 1_555
C13 N2 1_555 1_555
C14 C13 1_555 1_555
C15 C14 1_555 1_555
C16 C15 1_555 1_555
C17 N2 1_555 1_555
C18 C16 1_555 1_555
H9 C18 1_555 1_555
C19 C14 1_555 1_555
H10 C19 1_555 1_555
N4 C25 1_555 1_555
O7 C26 1_555 1_555
O8 C30 1_555 1_555
C25 C22 1_555 1_555
H15 C25 1_555 1_555
H16 C25 1_555 1_555
C26 N4 1_555 1_555
C27 C26 1_555 1_555
C28 C15 1_555 1_555
C29 C28 1_555 1_555
C30 N4 1_555 1_555
C31 C19 1_555 1_555
H17 C31 1_555 1_555
C32 C18 1_555 1_555
H18 C32 1_555 1_555
Zn4 O4 1_555 1_555
O14 Zn1 1_555 1_555
O15 Zn1 1_555 1_555
C4 C5 1_555 1_555
C10 C11 1_555 1_555
C16 C17 1_555 1_555
C27 C28 1_555 1_555
C27 C32 1_555 1_555
C29 C30 1_555 1_555
C29 C31 1_555 1_555
S2 C34 1_555 1_555
O11 C38 1_555 1_555
O12 C38 1_555 1_555
C35 C34 1_555 1_555
H19 C35 1_555 1_555
C36 C35 1_555 1_555
H20 C36 1_555 1_555
C37 S2 1_555 1_555
C38 C37 1_555 1_555
Zn6 O12 1_555 1_555
C36 C37 1_555 1_555
N3 C20 1_555 1_555
C20 H11 1_555 1_555
C21 C20 1_555 1_555
H12 C21 1_555 1_555
C24 N3 1_555 1_555
H14 C24 1_555 1_555
Zn2 N3 1_555 1_555
O9 Zn2 1_555 1_555
O10 C33 1_555 1_555
C33 O9 1_555 1_555
O13 Zn2 1_555 1_555
O16 Zn2 1_555 1_555
C23 C24 1_555 1_555
N2_2 C12_2 1_555 1_555
O6_2 C17_2 1_555 1_555
C12_2 C9_2 1_555 1_555
H7_2 C12_2 1_555 1_555
H8_2 C12_2 1_555 1_555
C13_2 N2_2 1_555 1_555
C16_2 C15_2 1_555 1_555
C17_2 N2_2 1_555 1_555
C18_2 C16_2 1_555 1_555
H9_2 C18_2 1_555 1_555
C32_2 C18_2 1_555 1_555
H18_2 C32_2 1_555 1_555
S2_2 C34_2 1_555 1_555
O9_2 Zn6 1_555 1_555
O10_2 C33_2 1_555 1_555
O14 C38_2 1_555 1_555
O16 C38_2 1_555 1_555
C33_2 O9_2 1_555 1_555
C34_2 C33_2 1_555 1_555
C35_2 C34_2 1_555 1_555
H19_2 C35_2 1_555 1_555
C36_2 C35_2 1_555 1_555
H20_2 C36_2 1_555 1_555
C37_2 S2_2 1_555 1_555
C38_2 C37_2 1_555 1_555
C16_2 C17_2 1_555 1_555
C27_2 C32_2 1_555 1_555
C36_2 C37_2 1_555 1_555
C19_2 C14_2 1_555 1_555
H10_2 C19_2 1_555 1_555
N3_2 C20_2 1_555 1_555
N4_2 C25_2 1_555 1_555
O8_2 C30_2 1_555 1_555
C20_2 H11_2 1_555 1_555
C21_2 C20_2 1_555 1_555
H12_2 C21_2 1_555 1_555
C22_2 C21_2 1_555 1_555
C23_2 C22_2 1_555 1_555
H13_2 C23_2 1_555 1_555
C24_2 N3_2 1_555 1_555
H14_2 C24_2 1_555 1_555
C25_2 C22_2 1_555 1_555
H15_2 C25_2 1_555 1_555
H16_2 C25_2 1_555 1_555
C26_2 N4_2 1_555 1_555
C29_2 C28_2 1_555 1_555
C30_2 N4_2 1_555 1_555
C31_2 C19_2 1_555 1_555
H17_2 C31_2 1_555 1_555
C23_2 C24_2 1_555 1_555
C29_2 C30_2 1_555 1_555
C29_2 C31_2 1_555 1_555
N1_2 C7_2 1_555 1_555
C7_2 H3_2 1_555 1_555
C8_2 C7_2 1_555 1_555
H4_2 C8_2 1_555 1_555
C11_2 N1_2 1_555 1_555
H6_2 C11_2 1_555 1_555
C10_2 C11_2 1_555 1_555
O1_2 Zn4 1_555 1_555
O2_2 C1_2 1_555 1_555
C1_2 O1_2 1_555 1_555
S1_2 C2_2 1_555 1_555
O13 C6_2 1_555 1_555
O15 C6_2 1_555 1_555
C3_2 C2_2 1_555 1_555
H1_2 C3_2 1_555 1_555
C4_2 C3_2 1_555 1_555
H2_2 C4_2 1_555 1_555
C5_2 S1_2 1_555 1_555
C6_2 C5_2 1_555 1_555
C4_2 C5_2 1_555 1_555
S2_3 C34_3 1_555 1_555
O11_2 C38_3 1_555 1_555
O12_2 C38_3 1_555 1_555
C35_3 C34_3 1_555 1_555
H19_3 C35_3 1_555 1_555
C36_3 C35_3 1_555 1_555
H20_3 C36_3 1_555 1_555
C37_3 S2_3 1_555 1_555
C38_3 C37_3 1_555 1_555
Zn3 O11_2 1_555 1_555
Zn5 O12_2 1_555 1_555
C36_3 C37_3 1_555 1_555
O9_3 Zn2_2 1_555 1_555
O10_3 C33_3 1_555 1_555
C33_3 O9_3 1_555 1_555
O16_2 Zn2_2 1_555 1_555
N3_3 C20_3 1_555 1_555
C20_3 H11_3 1_555 1_555
C21_3 C20_3 1_555 1_555
H12_3 C21_3 1_555 1_555
C24_3 N3_3 1_555 1_555
H14_3 C24_3 1_555 1_555
C23_3 C24_3 1_555 1_555
N1_3 C7_3 1_555 1_555
N2_3 C12_3 1_555 1_555
O6_3 C17_3 1_555 1_555
C7_3 H3_3 1_555 1_555
C8_3 C7_3 1_555 1_555
H4_3 C8_3 1_555 1_555
C9_3 C8_3 1_555 1_555
C10_3 C9_3 1_555 1_555
H5_3 C10_3 1_555 1_555
C11_3 N1_3 1_555 1_555
H6_3 C11_3 1_555 1_555
C12_3 C9_3 1_555 1_555
H7_3 C12_3 1_555 1_555
H8_3 C12_3 1_555 1_555
C13_3 N2_3 1_555 1_555
C16_3 C15_3 1_555 1_555
C17_3 N2_3 1_555 1_555
C18_3 C16_3 1_555 1_555
H9_3 C18_3 1_555 1_555
C32_3 C18_3 1_555 1_555
H18_3 C32_3 1_555 1_555
C10_3 C11_3 1_555 1_555
C16_3 C17_3 1_555 1_555
C27_3 C32_3 1_555 1_555
S1_3 C2_3 1_555 1_555
O1_3 Zn1_2 1_555 1_555
O2_3 C1_3 1_555 1_555
O3_2 C6_3 1_555 1_555
O4_2 C6_3 1_555 1_555
C1_3 O1_3 1_555 1_555
C2_3 C1_3 1_555 1_555
C3_3 C2_3 1_555 1_555
H1_3 C3_3 1_555 1_555
C4_3 C3_3 1_555 1_555
H2_3 C4_3 1_555 1_555
C5_3 S1_3 1_555 1_555
C6_3 C5_3 1_555 1_555
C19_3 C14_3 1_555 1_555
H10_3 C19_3 1_555 1_555
N4_3 C25_3 1_555 1_555
O8_3 C30_3 1_555 1_555
C25_3 C22_3 1_555 1_555
H15_3 C25_3 1_555 1_555
H16_3 C25_3 1_555 1_555
C26_3 N4_3 1_555 1_555
C29_3 C28_3 1_555 1_555
C30_3 N4_3 1_555 1_555
C31_3 C19_3 1_555 1_555
H17_3 C31_3 1_555 1_555
Zn3 O4_2 1_555 1_555
Zn5 O3_2 1_555 1_555
O15_2 Zn1_2 1_555 1_555
C4_3 C5_3 1_555 1_555
C29_3 C30_3 1_555 1_555
C29_3 C31_3 1_555 1_555
Zn3 N1_4 1_555 1_555
N1_4 C7_4 1_555 1_555
O1_4 Zn3 1_555 1_555
O2_4 C1_4 1_555 1_555
C1_4 O1_4 1_555 1_555
C7_4 H3_4 1_555 1_555
C8_4 C7_4 1_555 1_555
H4_4 C8_4 1_555 1_555
C11_4 N1_4 1_555 1_555
H6_4 C11_4 1_555 1_555
C10_4 C11_4 1_555 1_555
S1_4 C2_4 1_555 1_555
O13_2 C6_4 1_555 1_555
O15_2 C6_4 1_555 1_555
C3_4 C2_4 1_555 1_555
H1_4 C3_4 1_555 1_555
C4_4 C3_4 1_555 1_555
H2_4 C4_4 1_555 1_555
C5_4 S1_4 1_555 1_555
C6_4 C5_4 1_555 1_555
C4_4 C5_4 1_555 1_555
N2_4 C12_4 1_555 1_555
O5_4 C13_4 1_555 1_555
O6_4 C17_4 1_555 1_555
C12_4 C9_4 1_555 1_555
H7_4 C12_4 1_555 1_555
H8_4 C12_4 1_555 1_555
C13_4 N2_4 1_555 1_555
C14_4 C13_4 1_555 1_555
C15_4 C14_4 1_555 1_555
C16_4 C15_4 1_555 1_555
C17_4 N2_4 1_555 1_555
C18_4 C16_4 1_555 1_555
H9_4 C18_4 1_555 1_555
C19_4 C14_4 1_555 1_555
H10_4 C19_4 1_555 1_555
N3_4 C20_4 1_555 1_555
N4_4 C25_4 1_555 1_555
O7_4 C26_4 1_555 1_555
O8_4 C30_4 1_555 1_555
C20_4 H11_4 1_555 1_555
C21_4 C20_4 1_555 1_555
H12_4 C21_4 1_555 1_555
C22_4 C21_4 1_555 1_555
C23_4 C22_4 1_555 1_555
H13_4 C23_4 1_555 1_555
C24_4 N3_4 1_555 1_555
H14_4 C24_4 1_555 1_555
C25_4 C22_4 1_555 1_555
H15_4 C25_4 1_555 1_555
H16_4 C25_4 1_555 1_555
C26_4 N4_4 1_555 1_555
C27_4 C26_4 1_555 1_555
C28_4 C15_4 1_555 1_555
C29_4 C28_4 1_555 1_555
C30_4 N4_4 1_555 1_555
C31_4 C19_4 1_555 1_555
H17_4 C31_4 1_555 1_555
C32_4 C18_4 1_555 1_555
H18_4 C32_4 1_555 1_555
S2_4 C34_4 1_555 1_555
Zn5 N3_4 1_555 1_555
O9_4 Zn5 1_555 1_555
O10_4 C33_4 1_555 1_555
O14_2 C38_4 1_555 1_555
O16_2 C38_4 1_555 1_555
C33_4 O9_4 1_555 1_555
C34_4 C33_4 1_555 1_555
C35_4 C34_4 1_555 1_555
H19_4 C35_4 1_555 1_555
C36_4 C35_4 1_555 1_555
H20_4 C36_4 1_555 1_555
C37_4 S2_4 1_555 1_555
C38_4 C37_4 1_555 1_555
C16_4 C17_4 1_555 1_555
C23_4 C24_4 1_555 1_555
C27_4 C28_4 1_555 1_555
C27_4 C32_4 1_555 1_555
C29_4 C30_4 1_555 1_555
C29_4 C31_4 1_555 1_555
C36_4 C37_4 1_555 1_555

#END
