
###############################################################################
#
# This file contains modified crystal structure data generated from the
# MOF subset of the Cambridge Structural Database (CSD) v543 
# hosted by the Cambridge Crystallographic Data Centre (CCDC).
#
# This work is licensed under the Creative Commons
# Attribution-NonCommercial-ShareAlike 4.0 International License.
# To view a copy of this license, visit
# http://creativecommons.org/licenses/by-nc-sa/4.0/
# or send a letter to
# Creative Commons, PO Box 1866, Mountain View, CA 94042, USA.
#
# CIF created using the CSD Python API on 29 September 2022
# The structure has been converted into the P1 space group
# The structure has a 3D framework
# The original CSD entry KULZIC is in the monoclinic crystal system
# The framework has been calculated to contain at least 10.0% void space
# The void calculation uses a probe of radius 1.32A, grid spacing 0.4
# H atom positions have been added when not included in the experimental data
#
###############################################################################

data_KULZIC
_chemical_formula_moiety         '(C108 H84 Co4 N12 O24)n'
_symmetry_cell_setting           triclinic
_symmetry_space_group_name_H-M   'P 1'
_symmetry_Int_Tables_number      1
_space_group_name_Hall           'P 1'
loop_
_symmetry_equiv_pos_site_id
_symmetry_equiv_pos_as_xyz
1 x,y,z
_cell_length_a                   17.033(4)
_cell_length_b                   9.182(2)
_cell_length_c                   23.177(4)
_cell_angle_alpha                90
_cell_angle_beta                 131.684(12)
_cell_angle_gamma                90
_cell_volume                     2707.1
loop_
_atom_site_label
_atom_site_type_symbol
_atom_site_fract_x
_atom_site_fract_y
_atom_site_fract_z
C47 C 0.2550(2) 0.0729(3) 0.17446(16)
C48 C 0.2104(2) 0.2050(3) 0.16945(17)
H37 H 0.1484 0.2369 0.1220
C49 C 0.2575(2) 0.2876(3) 0.23402(17)
H38 H 0.2263 0.3751 0.2294
C50 C 0.3500(2) 0.2464(3) 0.30612(15)
C51 C 0.4013(2) 0.3416(3) 0.37526(16)
C52 C 0.3921(3) 0.1140(3) 0.31089(17)
H39 H 0.4534 0.0819 0.3586
C53 C 0.3455(3) 0.0277(3) 0.24652(17)
O11 O 0.35203(16) 0.4542(2) 0.36689(11)
O12 O 0.49087(16) 0.30488(19) 0.43720(11)
Co3 Co 0.58526(3) 0.40569(3) 0.542876(19)
Co6 Co 0.41474(3) 0.59431(3) 0.457124(19)
C1 C 0.6086(3) 0.6267(3) 0.47235(16)
C2 C 0.6582(2) 0.7209(3) 0.45158(15)
C3 C 0.7633(2) 0.7081(3) 0.48810(15)
H1 H 0.8046 0.6379 0.5263
C4 C 0.8075(2) 0.7974(3) 0.46885(15)
H2 H 0.8788 0.7888 0.4955
C5 C 0.7478(2) 0.9005(3) 0.41028(16)
C6 C 0.6430(2) 0.9152(3) 0.37468(18)
H3 H 0.6016 0.9849 0.3362
C7 C 0.5992(2) 0.8274(3) 0.39567(17)
H4 H 0.5291 0.8403 0.3718
H8 H 0.6247 0.9383 0.2483
C15 C 0.7520(3) 0.2236(3) 0.67951(17)
H9 H 0.7537 0.3011 0.7062
C16 C 0.8217(3) 0.1116(3) 0.72172(18)
H10 H 0.8696 0.1137 0.7754
C19 C 0.6781(3) 0.1127(3) 0.56641(17)
H12 H 0.6273 0.1112 0.5127
N1 N 0.68186(17) 0.2283(2) 0.60246(12)
N3 N 0.79714(19) 0.9889(2) 0.39296(13)
O1 O 0.66020(16) 0.5198(2) 0.51662(12)
O2 O 0.51780(17) 0.6610(2) 0.44457(12)
O13 O 0.48220(17) 0.3390(2) 0.55543(12)
O16 O 0.64797(16) 0.5458(2) 0.63311(11)
H41 H 0.876888 0.992436 0.432293
C1_2 C 0.3914(3) 0.3733(3) 0.52765(16)
C2_2 C 0.3418(2) 0.2791(3) 0.54842(15)
C3_2 C 0.2367(2) 0.2919(3) 0.51190(15)
H1_2 H 0.1954 0.3621 0.4737
C4_2 C 0.1925(2) 0.2026(3) 0.53115(15)
H2_2 H 0.1212 0.2112 0.5045
C5_2 C 0.2522(2) 0.0995(3) 0.58972(16)
C6_2 C 0.3570(2) 0.0848(3) 0.62532(18)
H3_2 H 0.3984 0.0151 0.6638
C7_2 C 0.4008(2) 0.1726(3) 0.60433(17)
H4_2 H 0.4709 0.1597 0.6282
H8_2 H 0.3753 0.0617 0.7517
C15_2 C 0.2480(3) 0.7764(3) 0.32049(17)
H9_2 H 0.2463 0.6989 0.2938
C16_2 C 0.1783(3) 0.8884(3) 0.27828(18)
H10_2 H 0.1304 0.8863 0.2246
C19_2 C 0.3219(3) 0.8873(3) 0.43359(17)
H12_2 H 0.3727 0.8888 0.4873
N1_2 N 0.31814(17) 0.7717(2) 0.39754(12)
N3_2 N 0.20286(19) 0.0111(2) 0.60704(13)
O1_2 O 0.33980(16) 0.4802(2) 0.48338(12)
O18 O 0.50913(16) 0.69512(19) 0.56280(11)
H41_2 H 0.123112 0.00756378 0.567707
C47_2 C 0.7450(2) 0.9271(3) 0.82554(16)
C48_2 C 0.7896(2) 0.7950(3) 0.83055(17)
H37_2 H 0.8516 0.7631 0.8780
C49_2 C 0.7425(2) 0.7124(3) 0.76598(17)
H38_2 H 0.7737 0.6249 0.7706
C50_2 C 0.6500(2) 0.7536(3) 0.69388(15)
C51_2 C 0.5987(2) 0.6584(3) 0.62474(16)
C52_2 C 0.6079(3) 0.8860(3) 0.68911(17)
H39_2 H 0.5466 0.9181 0.6414
C53_2 C 0.6545(3) 0.9723(3) 0.75348(17)
C40 C 0.3914(3) 0.6267(3) 0.02765(16)
C41 C 0.3418(2) 0.7209(3) 0.04842(15)
C42 C 0.2367(2) 0.7081(3) 0.01190(15)
C43 C 0.1925(2) 0.7974(3) 0.03115(15)
H34 H 0.1212 0.7888 0.0045
C44 C 0.2522(2) 0.9005(3) 0.08972(16)
C45 C 0.3570(2) 0.9152(3) 0.12532(18)
H35 H 0.3984 0.9849 0.1638
C46 C 0.4008(2) 0.8274(3) 0.10433(17)
H36 H 0.4709 0.8403 0.1282
H40 H 0.3753 0.9383 0.2517
N6 N 0.20286(19) 0.9889(2) 0.10704(13)
O10 O 0.48220(17) 0.6610(2) 0.05543(12)
Co8 Co 0.58526(3) 0.59431(3) 0.042876(19)
O17 O 0.50913(16) 0.30488(19) 0.06280(11)
H42 H 0.123112 0.992436 0.0677069
C8 C 0.7450(2) 0.0729(3) 0.32554(16)
C9 C 0.7896(2) 0.2050(3) 0.33055(17)
H5 H 0.8516 0.2369 0.3780
C10 C 0.7425(2) 0.2876(3) 0.26598(17)
H6 H 0.7737 0.3751 0.2706
C11 C 0.6500(2) 0.2464(3) 0.19388(15)
C12 C 0.5987(2) 0.3416(3) 0.12474(16)
C13 C 0.6079(3) 0.1140(3) 0.18911(17)
H7 H 0.5466 0.0819 0.1414
C14 C 0.6545(3) 0.0277(3) 0.25348(17)
O3 O 0.64797(16) 0.4542(2) 0.13311(11)
C28 C 0.7520(3) 0.7764(3) 0.17951(17)
H21 H 0.7537 0.6989 0.2062
C29 C 0.8217(3) 0.8884(3) 0.22172(18)
H22 H 0.8696 0.8863 0.2754
C32 C 0.6781(3) 0.8873(3) 0.06641(17)
H24 H 0.6273 0.8888 0.0127
N4 N 0.68186(17) 0.7717(2) 0.10246(12)
H33 H 0.8046 0.3621 0.0263
O9 O 0.66020(16) 0.4802(2) 0.01662(12)
C28_2 C 0.2480(3) 0.2236(3) 0.82049(17)
H21_2 H 0.2463 0.3011 0.7938
C29_2 C 0.1783(3) 0.1116(3) 0.77828(18)
H22_2 H 0.1304 0.1137 0.7246
C32_2 C 0.3219(3) 0.1127(3) 0.93359(17)
H24_2 H 0.3727 0.1112 0.9873
N4_2 N 0.31814(17) 0.2283(2) 0.89754(12)
H33_2 H 0.1954 0.6379 0.9737
Co2 Co 0.41474(3) 0.40569(3) 0.957124(19)
O9_2 O 0.33980(16) 0.5198(2) 0.98338(12)
O14 O 0.51780(17) 0.3390(2) 0.94457(12)
O15 O 0.35203(16) 0.5458(2) 0.86689(11)
C8_2 C 0.2550(2) 0.9271(3) 0.67446(16)
C9_2 C 0.2104(2) 0.7950(3) 0.66945(17)
H5_2 H 0.1484 0.7631 0.6220
C10_2 C 0.2575(2) 0.7124(3) 0.73402(17)
H6_2 H 0.2263 0.6249 0.7294
C11_2 C 0.3500(2) 0.7536(3) 0.80612(15)
C12_2 C 0.4013(2) 0.6584(3) 0.87526(16)
C13_2 C 0.3921(3) 0.8860(3) 0.81089(17)
H7_2 H 0.4534 0.9181 0.8586
C14_2 C 0.3455(3) 0.9723(3) 0.74652(17)
O4 O 0.49087(16) 0.69512(19) 0.93720(11)
C40_2 C 0.6086(3) 0.3733(3) 0.97235(16)
C41_2 C 0.6582(2) 0.2791(3) 0.95158(15)
C42_2 C 0.7633(2) 0.2919(3) 0.98810(15)
C43_2 C 0.8075(2) 0.2026(3) 0.96885(15)
H34_2 H 0.8788 0.2112 0.9955
C44_2 C 0.7478(2) 0.0995(3) 0.91028(16)
C45_2 C 0.6430(2) 0.0848(3) 0.87468(18)
H35_2 H 0.6016 0.0151 0.8362
C46_2 C 0.5992(2) 0.1726(3) 0.89567(17)
H36_2 H 0.5291 0.1597 0.8718
H40_2 H 0.6247 0.0617 0.7483
N6_2 N 0.79714(19) 0.0111(2) 0.89296(13)
H42_2 H 0.876888 0.00756378 0.932293
C21 C 0.0000 0.6904(3) 0.7500
C22 C 0.0286(2) 0.5961(3) 0.71180(16)
H15 H 0.0419 0.6570 0.6849
H16 H 0.0913 0.5396 0.7505
C24 C 0.0356(3) 0.3885(3) 0.6257(2)
H17 H 0.0914 0.4538 0.6546
C25 C 0.0346(3) 0.2752(4) 0.5853(2)
H18 H 0.0923 0.2668 0.5891
C30 C 0.1811(2) 0.9955(2) 0.81741(16)
C31 C 0.2555(3) 0.9946(3) 0.89687(17)
H23 H 0.2608 0.9167 0.9249
C33 C 0.0953(2) 0.7834(3) 0.81162(15)
H25 H 0.0844 0.8316 0.8431
H26 H 0.1576 0.7230 0.8449
C35 C 0.0470(2) 0.4009(3) 0.87820(17)
C38 C 0.1205(4) 0.1959(5) 0.9601(3)
H31 H 0.1760 0.1302 0.9897
C39 C 0.1268(3) 0.3025(4) 0.9224(2)
H32 H 0.1851 0.3081 0.9267
N5 N 0.0412(3) 0.1793(4) 0.9577(2)
O7 O 0.05782(15) 0.50226(18) 0.84115(12)
O8 O 0.10819(16) 0.88930(18) 0.77308(11)
C17 C 0.8189(2) 0.9955(2) 0.68259(16)
C18 C 0.7445(3) 0.9946(3) 0.60313(17)
H11 H 0.7392 0.9167 0.5751
C20 C 0.9047(2) 0.7834(3) 0.68838(15)
H13 H 0.9156 0.8316 0.6569
H14 H 0.8424 0.7230 0.6551
C21_2 C 1.0000 0.6904(3) 0.7500
C23 C 0.9530(2) 0.4009(3) 0.62180(17)
C26 C 0.8795(4) 0.1959(5) 0.5399(3)
H19 H 0.8240 0.1302 0.5103
C27 C 0.8732(3) 0.3025(4) 0.5776(2)
H20 H 0.8149 0.3081 0.5733
N2 N 0.9588(3) 0.1793(4) 0.5423(2)
O5 O 0.94218(15) 0.50226(18) 0.65885(12)
O6 O 0.89181(16) 0.88930(18) 0.72692(11)
C34 C 0.9714(2) 0.5961(3) 0.78820(16)
H27 H 0.9581 0.6570 0.8151
H28 H 0.9087 0.5396 0.7495
C36 C 0.9644(3) 0.3885(3) 0.8743(2)
H29 H 0.9086 0.4538 0.8454
C37 C 0.9654(3) 0.2752(4) 0.9147(2)
H30 H 0.9077 0.2668 0.9109
C17_2 C 0.1811(2) 0.0045(2) 0.31741(16)
C18_2 C 0.2555(3) 0.0054(3) 0.39687(17)
H11_2 H 0.2608 0.0833 0.4249
C20_2 C 0.0953(2) 0.2166(3) 0.31162(15)
H13_2 H 0.0844 0.1684 0.3431
H14_2 H 0.1576 0.2770 0.3449
C21_3 C 0.0000 0.3096(3) 0.2500
C23_2 C 0.0470(2) 0.5991(3) 0.37820(17)
C26_2 C 0.1205(4) 0.8041(5) 0.4601(3)
H19_2 H 0.1760 0.8698 0.4897
C27_2 C 0.1268(3) 0.6975(4) 0.4224(2)
H20_2 H 0.1851 0.6919 0.4267
N2_2 N 0.0412(3) 0.8207(4) 0.4577(2)
O5_2 O 0.05782(15) 0.49774(18) 0.34115(12)
O6_2 O 0.10819(16) 0.11070(18) 0.27308(11)
C34_2 C 0.0286(2) 0.4039(3) 0.21180(16)
H27_2 H 0.0419 0.3430 0.1849
H28_2 H 0.0913 0.4604 0.2505
C36_2 C 0.0356(3) 0.6115(3) 0.1257(2)
H29_2 H 0.0914 0.5462 0.1546
C37_2 C 0.0346(3) 0.7248(4) 0.0853(2)
H30_2 H 0.0923 0.7332 0.0891
C21_4 C 1.0000 0.3096(3) 0.2500
C22_2 C 0.9714(2) 0.4039(3) 0.28820(16)
H15_2 H 0.9581 0.3430 0.3151
H16_2 H 0.9087 0.4604 0.2495
C24_2 C 0.9644(3) 0.6115(3) 0.3743(2)
H17_2 H 0.9086 0.5462 0.3454
C25_2 C 0.9654(3) 0.7248(4) 0.4147(2)
H18_2 H 0.9077 0.7332 0.4109
C30_2 C 0.8189(2) 0.0045(2) 0.18259(16)
C31_2 C 0.7445(3) 0.0054(3) 0.10313(17)
H23_2 H 0.7392 0.0833 0.0751
C33_2 C 0.9047(2) 0.2166(3) 0.18838(15)
H25_2 H 0.9156 0.1684 0.1569
H26_2 H 0.8424 0.2770 0.1551
C35_2 C 0.9530(2) 0.5991(3) 0.12180(17)
C38_2 C 0.8795(4) 0.8041(5) 0.0399(3)
H31_2 H 0.8240 0.8698 0.0103
C39_2 C 0.8732(3) 0.6975(4) 0.0776(2)
H32_2 H 0.8149 0.6919 0.0733
N5_2 N 0.9588(3) 0.8207(4) 0.0423(2)
O7_2 O 0.94218(15) 0.49774(18) 0.15885(12)
O8_2 O 0.89181(16) 0.11070(18) 0.22692(11)
loop_
_geom_bond_atom_site_label_1
_geom_bond_atom_site_label_2
_geom_bond_site_symmetry_1
_geom_bond_site_symmetry_2
C47 C48 1_555 1_555
C48 H37 1_555 1_555
C49 C48 1_555 1_555
H38 C49 1_555 1_555
C50 C49 1_555 1_555
C51 C50 1_555 1_555
C52 C50 1_555 1_555
H39 C52 1_555 1_555
C53 C47 1_555 1_555
O11 C51 1_555 1_555
O12 C51 1_555 1_555
Co3 O12 1_555 1_555
Co6 O11 1_555 1_555
C52 C53 1_555 1_555
Co3 Co6 1_555 1_555
C1 C2 1_555 1_555
C2 C3 1_555 1_555
C3 H1 1_555 1_555
C4 C3 1_555 1_555
H2 C4 1_555 1_555
C5 C4 1_555 1_555
C6 C5 1_555 1_555
H3 C6 1_555 1_555
C7 C2 1_555 1_555
H4 C7 1_555 1_555
C15 H9 1_555 1_555
C16 C15 1_555 1_555
H10 C16 1_555 1_555
H12 C19 1_555 1_555
Co3 N1 1_555 1_555
N1 C15 1_555 1_555
N3 C5 1_555 1_555
O1 C1 1_555 1_555
O2 C1 1_555 1_555
O13 Co3 1_555 1_555
O16 Co3 1_555 1_555
C6 C7 1_555 1_555
C19 N1 1_555 1_555
Co3 O1 1_555 1_555
O2 Co6 1_555 1_555
N3 H41 1_555 1_555
C1_2 C2_2 1_555 1_555
C2_2 C3_2 1_555 1_555
C3_2 H1_2 1_555 1_555
C4_2 C3_2 1_555 1_555
H2_2 C4_2 1_555 1_555
C5_2 C4_2 1_555 1_555
C6_2 C5_2 1_555 1_555
H3_2 C6_2 1_555 1_555
C7_2 C2_2 1_555 1_555
H4_2 C7_2 1_555 1_555
C15_2 H9_2 1_555 1_555
C16_2 C15_2 1_555 1_555
H10_2 C16_2 1_555 1_555
H12_2 C19_2 1_555 1_555
Co6 N1_2 1_555 1_555
N1_2 C15_2 1_555 1_555
N3_2 C5_2 1_555 1_555
O1_2 C1_2 1_555 1_555
O13 C1_2 1_555 1_555
O18 Co6 1_555 1_555
C6_2 C7_2 1_555 1_555
C19_2 N1_2 1_555 1_555
Co6 O1_2 1_555 1_555
N3_2 H41_2 1_555 1_555
C47_2 C48_2 1_555 1_555
C48_2 H37_2 1_555 1_555
C49_2 C48_2 1_555 1_555
H38_2 C49_2 1_555 1_555
C50_2 C49_2 1_555 1_555
C51_2 C50_2 1_555 1_555
C52_2 C50_2 1_555 1_555
H39_2 C52_2 1_555 1_555
C53_2 C47_2 1_555 1_555
O16 C51_2 1_555 1_555
O18 C51_2 1_555 1_555
C52_2 C53_2 1_555 1_555
C40 C41 1_555 1_555
C41 C42 1_555 1_555
C43 C42 1_555 1_555
H34 C43 1_555 1_555
C44 C43 1_555 1_555
C45 C44 1_555 1_555
H35 C45 1_555 1_555
C46 C41 1_555 1_555
H36 C46 1_555 1_555
N6 C44 1_555 1_555
O10 C40 1_555 1_555
C45 C46 1_555 1_555
O10 Co8 1_555 1_555
N6 H42 1_555 1_555
C8 C9 1_555 1_555
C9 H5 1_555 1_555
C10 C9 1_555 1_555
H6 C10 1_555 1_555
C11 C10 1_555 1_555
C12 C11 1_555 1_555
C13 C11 1_555 1_555
H7 C13 1_555 1_555
C14 C8 1_555 1_555
O3 C12 1_555 1_555
O17 C12 1_555 1_555
Co8 O3 1_555 1_555
C13 C14 1_555 1_555
C28 H21 1_555 1_555
C29 C28 1_555 1_555
H22 C29 1_555 1_555
H24 C32 1_555 1_555
N4 C28 1_555 1_555
Co8 N4 1_555 1_555
C32 N4 1_555 1_555
Co8 O9 1_555 1_555
C28_2 H21_2 1_555 1_555
C29_2 C28_2 1_555 1_555
H22_2 C29_2 1_555 1_555
H24_2 C32_2 1_555 1_555
N4_2 C28_2 1_555 1_555
Co2 N4_2 1_555 1_555
O14 Co2 1_555 1_555
O15 Co2 1_555 1_555
C32_2 N4_2 1_555 1_555
Co2 O9_2 1_555 1_555
C8_2 C9_2 1_555 1_555
C9_2 H5_2 1_555 1_555
C10_2 C9_2 1_555 1_555
H6_2 C10_2 1_555 1_555
C11_2 C10_2 1_555 1_555
C12_2 C11_2 1_555 1_555
C13_2 C11_2 1_555 1_555
H7_2 C13_2 1_555 1_555
C14_2 C8_2 1_555 1_555
O15 C12_2 1_555 1_555
O4 C12_2 1_555 1_555
C13_2 C14_2 1_555 1_555
C40_2 C41_2 1_555 1_555
C41_2 C42_2 1_555 1_555
C43_2 C42_2 1_555 1_555
H34_2 C43_2 1_555 1_555
C44_2 C43_2 1_555 1_555
C45_2 C44_2 1_555 1_555
H35_2 C45_2 1_555 1_555
C46_2 C41_2 1_555 1_555
H36_2 C46_2 1_555 1_555
N6_2 C44_2 1_555 1_555
O14 C40_2 1_555 1_555
C45_2 C46_2 1_555 1_555
N6_2 H42_2 1_555 1_555
C22 C21 1_555 1_555
H15 C22 1_555 1_555
H16 C22 1_555 1_555
C24 H17 1_555 1_555
C25 C24 1_555 1_555
H18 C25 1_555 1_555
C31 C30 1_555 1_555
H23 C31 1_555 1_555
C33 C21 1_555 1_555
H25 C33 1_555 1_555
H26 C33 1_555 1_555
C38 H31 1_555 1_555
C39 C35 1_555 1_555
H32 C39 1_555 1_555
O8 C30 1_555 1_555
C33 O8 1_555 1_555
C35 O7 1_555 1_555
C38 C39 1_555 1_555
C38 N5 1_555 1_555
C18 C17 1_555 1_555
H11 C18 1_555 1_555
C20 H13 1_555 1_555
H14 C20 1_555 1_555
C21_2 C20 1_555 1_555
C26 H19 1_555 1_555
C27 C23 1_555 1_555
H20 C27 1_555 1_555
O6 C17 1_555 1_555
C34 C21_2 1_555 1_555
H27 C34 1_555 1_555
H28 C34 1_555 1_555
C36 H29 1_555 1_555
C37 C36 1_555 1_555
H30 C37 1_555 1_555
C20 O6 1_555 1_555
C23 O5 1_555 1_555
C26 C27 1_555 1_555
C26 N2 1_555 1_555
C18_2 C17_2 1_555 1_555
H11_2 C18_2 1_555 1_555
C20_2 H13_2 1_555 1_555
H14_2 C20_2 1_555 1_555
C21_3 C20_2 1_555 1_555
C26_2 H19_2 1_555 1_555
C27_2 C23_2 1_555 1_555
H20_2 C27_2 1_555 1_555
O6_2 C17_2 1_555 1_555
C34_2 C21_3 1_555 1_555
H27_2 C34_2 1_555 1_555
H28_2 C34_2 1_555 1_555
C36_2 H29_2 1_555 1_555
C37_2 C36_2 1_555 1_555
H30_2 C37_2 1_555 1_555
C20_2 O6_2 1_555 1_555
C23_2 O5_2 1_555 1_555
C26_2 C27_2 1_555 1_555
C26_2 N2_2 1_555 1_555
C22_2 C21_4 1_555 1_555
H15_2 C22_2 1_555 1_555
H16_2 C22_2 1_555 1_555
C24_2 H17_2 1_555 1_555
C25_2 C24_2 1_555 1_555
H18_2 C25_2 1_555 1_555
C31_2 C30_2 1_555 1_555
H23_2 C31_2 1_555 1_555
C33_2 C21_4 1_555 1_555
H25_2 C33_2 1_555 1_555
H26_2 C33_2 1_555 1_555
C38_2 H31_2 1_555 1_555
C39_2 C35_2 1_555 1_555
H32_2 C39_2 1_555 1_555
O8_2 C30_2 1_555 1_555
C33_2 O8_2 1_555 1_555
C35_2 O7_2 1_555 1_555
C38_2 C39_2 1_555 1_555
C38_2 N5_2 1_555 1_555

#END
