
###############################################################################
#
# This file contains modified crystal structure data generated from the
# MOF subset of the Cambridge Structural Database (CSD) v543 
# hosted by the Cambridge Crystallographic Data Centre (CCDC).
#
# This work is licensed under the Creative Commons
# Attribution-NonCommercial-ShareAlike 4.0 International License.
# To view a copy of this license, visit
# http://creativecommons.org/licenses/by-nc-sa/4.0/
# or send a letter to
# Creative Commons, PO Box 1866, Mountain View, CA 94042, USA.
#
# CIF created using the CSD Python API on 29 September 2022
# The structure has been converted into the P1 space group
# The structure has a 3D framework
# The original CSD entry KUMBUR is in the triclinic crystal system
# The framework has been calculated to contain at least 10.0% void space
# The void calculation uses a probe of radius 1.32A, grid spacing 0.4
#
###############################################################################

data_KUMBUR
_chemical_formula_moiety         '(C96 H56 N8 O24 Tb4)n'
_symmetry_cell_setting           triclinic
_symmetry_space_group_name_H-M   'P 1'
_symmetry_Int_Tables_number      1
_space_group_name_Hall           'P 1'
loop_
_symmetry_equiv_pos_site_id
_symmetry_equiv_pos_as_xyz
1 x,y,z
_cell_length_a                   12.6080(2)
_cell_length_b                   14.21450(10)
_cell_length_c                   14.8980(5)
_cell_angle_alpha                69.321(11)
_cell_angle_beta                 67.503(12)
_cell_angle_gamma                78.329(15)
_cell_volume                     2300.88
loop_
_atom_site_label
_atom_site_type_symbol
_atom_site_fract_x
_atom_site_fract_y
_atom_site_fract_z
Tb8 Tb 0.05119(2) 0.053891(19) 0.093367(19)
H4 H 0.6761 0.0087 0.3145
O8 O 0.0085(4) 0.0490(4) 0.2682(4)
N2 N 0.2471(5) 0.0244(5) 0.1255(4)
N3 N 0.1689(5) 0.2085(4) 0.0206(4)
H6 H 0.8314 0.2797 0.0477
H8 H 0.7029 0.4218 0.0530
C23 C 0.3185(5) 0.1024(5) 0.0771(5)
C25 C 0.2783(6) 0.1976(5) 0.0215(5)
C30 C 0.4312(6) 0.0868(7) 0.0814(6)
C46 C 0.5026(7) 0.1712(9) 0.0274(7)
H26 H 0.5769 0.1628 0.0293
O14 O 0.1300(4) 0.0120(4) 0.8317(4)
O17 O 0.0368(4) 0.8554(4) 0.0252(4)
O2 O 0.0709(4) 0.8204(4) 0.8238(3)
O6 O 0.3639(4) 0.5818(4) 0.6373(3)
O7 O 0.3082(4) 0.5623(4) 0.5192(4)
C9 C 0.3041(5) 0.6071(5) 0.5800(5)
C10 C 0.1065(5) 0.8283(5) 0.6524(5)
C13 C 0.0526(5) 0.8689(5) 0.7412(5)
C16 C 0.1812(6) 0.7422(5) 0.6568(5)
H5 H 0.2020 0.7107 0.7147
C22 C 0.2257(5) 0.7021(5) 0.5759(5)
C26 C 0.0776(7) 0.8772(5) 0.5643(5)
H9 H 0.0278 0.9353 0.5609
C32 C 0.1229(8) 0.8391(6) 0.4818(6)
H13 H 0.1048 0.8721 0.4228
C41 C 0.1949(7) 0.7517(6) 0.4889(5)
H21 H 0.2236 0.7252 0.4346
Tb3 Tb 0.43554(2) 0.481388(18) 0.404049(19)
Tb5 Tb 0.56446(2) 0.518612(18) 0.595951(19)
C31 C 0.7146(7) 0.0643(6) 0.8220(7)
H12 H 0.7633 0.1165 0.7878
C43 C 0.6043(8) 0.0813(7) 0.8168(7)
H23 H 0.5817 0.1441 0.7785
C48 C 0.5297(8) 0.0096(8) 0.8655(8)
H28 H 0.4548 0.0227 0.8645
O18 O 0.8992(4) 0.1241(3) 0.8643(4)
O1 O 0.4447(4) 0.5087(3) 0.2230(4)
O3 O 0.5306(4) 0.6044(3) 0.4406(3)
O4 O 0.8040(4) 0.9528(3) 0.0649(3)
O5 O 0.8700(4) 0.9880(4) 0.1683(4)
C1 C 0.5342(5) 0.6716(4) 0.3553(4)
O10 O 0.5070(5) 0.6545(4) 0.2910(4)
N1 N 0.2648(5) 0.3613(4) 0.5181(4)
O11 O 0.2875(4) 0.5597(5) 0.3296(4)
C2 C 0.6998(5) 0.9062(4) 0.2419(4)
C3 C 0.7996(5) 0.9530(4) 0.1510(5)
O12 O 0.1008(4) 0.8759(3) 0.1357(4)
C4 C 0.1726(5) 0.7303(4) 0.0827(4)
C5 C 0.5708(5) 0.7731(4) 0.3384(4)
C6 C 0.6590(5) 0.8182(4) 0.2504(4)
H1 H 0.6905 0.7896 0.1975
C7 C 0.2939(5) 0.5983(4) 0.1594(5)
C8 C 0.2174(5) 0.6828(4) 0.1619(4)
H2 H 0.1956 0.7083 0.2165
N4 N 0.4459(5) 0.3152(4) 0.3641(4)
C11 C 0.0980(5) 0.8268(4) 0.0819(4)
C12 C 0.5166(6) 0.8202(5) 0.4131(5)
H3 H 0.4568 0.7908 0.4712
C14 C 0.6473(5) 0.9515(4) 0.3185(5)
C15 C 0.3457(5) 0.5524(4) 0.2422(5)
C17 C 0.2654(6) 0.2755(5) 0.4971(5)
C18 C 0.2009(6) 0.6902(5) 0.0035(5)
C19 C 0.3251(6) 0.5595(5) 0.0782(5)
H7 H 0.3775 0.5033 0.0756
C20 C 0.2775(7) 0.6049(6) 0.0005(6)
C21 C 0.3585(6) 0.2532(5) 0.4131(5)
C24 C 0.6475(7) 0.7233(6) 0.0303(6)
C27 C 0.5521(6) 0.9118(5) 0.4008(5)
H10 H 0.5119 0.9466 0.4480
C28 C 0.1774(7) 0.2081(5) 0.5549(6)
C29 C 0.5317(7) 0.2948(5) 0.2858(6)
H11 H 0.5927 0.3359 0.2525
C33 C 0.7976(8) 0.6199(6) 0.0877(7)
H14 H 0.8261 0.5589 0.1239
C34 C 0.3587(7) 0.1674(5) 0.3859(6)
C35 C 0.0908(7) 0.3154(7) 0.6595(6)
H15 H 0.0332 0.3318 0.7145
C36 C 0.1820(8) 0.1214(6) 0.5254(7)
H16 H 0.1246 0.0768 0.5636
C37 C 0.5351(8) 0.2150(6) 0.2509(7)
H17 H 0.5953 0.2054 0.1937
C38 C 0.1810(7) 0.3786(6) 0.5968(6)
H18 H 0.1810 0.4364 0.6125
C39 C 0.8670(7) 0.7018(5) 0.0332(6)
H19 H 0.9415 0.6932 0.0346
C40 C 0.0889(7) 0.2311(6) 0.6388(6)
H20 H 0.0299 0.1885 0.6793
C42 C 0.6906(8) 0.6309(6) 0.0866(7)
H22 H 0.6438 0.5774 0.1232
C44 C 0.2650(9) 0.1029(6) 0.4456(7)
H24 H 0.2633 0.0472 0.4274
C45 C 0.5344(8) 0.7399(9) 0.0248(8)
H25 H 0.4858 0.6877 0.0582
C47 C 0.4486(9) 0.1509(6) 0.3020(7)
H27 H 0.4503 0.0965 0.2805
O13 O 0.4694(4) 0.3956(3) 0.5594(3)
O15 O 0.6361(4) 0.4182(4) 0.3627(3)
O1_2 O 0.5553(4) 0.4913(3) 0.7770(4)
O4_2 O 0.1960(4) 0.0472(3) 0.9351(3)
O9 O 0.9632(4) 0.1446(4) 0.9748(4)
C1_2 C 0.4658(5) 0.3284(4) 0.6447(4)
O10_2 O 0.4930(5) 0.3455(4) 0.7090(4)
N1_2 N 0.7352(5) 0.6387(4) 0.4819(4)
O11_2 O 0.7125(4) 0.4403(5) 0.6704(4)
C2_2 C 0.3002(5) 0.0938(4) 0.7581(4)
C3_2 C 0.2004(5) 0.0470(4) 0.8490(5)
C4_2 C 0.8274(5) 0.2697(4) 0.9173(4)
C5_2 C 0.4292(5) 0.2269(4) 0.6616(4)
C6_2 C 0.3410(5) 0.1818(4) 0.7496(4)
H1_2 H 0.3095 0.2104 0.8025
C7_2 C 0.7061(5) 0.4017(4) 0.8406(5)
C8_2 C 0.7826(5) 0.3172(4) 0.8381(4)
H2_2 H 0.8044 0.2917 0.7835
N4_2 N 0.5541(5) 0.6848(4) 0.6359(4)
C11_2 C 0.9020(5) 0.1732(4) 0.9181(4)
C12_2 C 0.4834(6) 0.1798(5) 0.5869(5)
H3_2 H 0.5432 0.2092 0.5288
C14_2 C 0.3527(5) 0.0485(4) 0.6815(5)
C15_2 C 0.6543(5) 0.4476(4) 0.7578(5)
C17_2 C 0.7346(6) 0.7245(5) 0.5029(5)
C18_2 C 0.7991(6) 0.3098(5) 0.9965(5)
C19_2 C 0.6749(6) 0.4405(5) 0.9218(5)
H7_2 H 0.6225 0.4967 0.9244
C20_2 C 0.7225(7) 0.3951(6) 0.9995(6)
C21_2 C 0.6415(6) 0.7468(5) 0.5869(5)
C24_2 C 0.3525(7) 0.2767(6) 0.9697(6)
C27_2 C 0.4479(6) 0.0882(5) 0.5992(5)
H10_2 H 0.4881 0.0534 0.5520
C28_2 C 0.8226(7) 0.7919(5) 0.4451(6)
C29_2 C 0.4683(7) 0.7052(5) 0.7142(6)
H11_2 H 0.4073 0.6641 0.7475
C33_2 C 0.2024(8) 0.3801(6) 0.9123(7)
H14_2 H 0.1739 0.4411 0.8761
C34_2 C 0.6413(7) 0.8326(5) 0.6141(6)
C35_2 C 0.9092(7) 0.6846(7) 0.3405(6)
H15_2 H 0.9668 0.6682 0.2855
C36_2 C 0.8180(8) 0.8786(6) 0.4746(7)
H16_2 H 0.8754 0.9232 0.4364
C37_2 C 0.4649(8) 0.7850(6) 0.7491(7)
H17_2 H 0.4047 0.7946 0.8063
C38_2 C 0.8190(7) 0.6214(6) 0.4032(6)
H18_2 H 0.8190 0.5636 0.3875
C39_2 C 0.1330(7) 0.2982(5) 0.9668(6)
H19_2 H 0.0585 0.3068 0.9654
C40_2 C 0.9111(7) 0.7689(6) 0.3612(6)
H20_2 H 0.9701 0.8115 0.3207
C42_2 C 0.3094(8) 0.3691(6) 0.9134(7)
H22_2 H 0.3562 0.4226 0.8768
C44_2 C 0.7350(9) 0.8971(6) 0.5544(7)
H24_2 H 0.7367 0.9528 0.5726
C45_2 C 0.4656(8) 0.2601(9) 0.9752(8)
H25_2 H 0.5142 0.3123 0.9418
C47_2 C 0.5514(9) 0.8491(6) 0.6980(7)
H27_2 H 0.5497 0.9035 0.7195
O16 O 0.6918(4) 0.4377(4) 0.4808(4)
C31_2 C 0.2854(7) 0.9357(6) 0.1780(7)
H12_2 H 0.2367 0.8835 0.2122
C43_2 C 0.3957(8) 0.9187(7) 0.1832(7)
H23_2 H 0.4183 0.8559 0.2215
C48_2 C 0.4703(8) 0.9904(8) 0.1345(8)
H28_2 H 0.5452 0.9773 0.1355
O2_2 O 0.9291(4) 0.1796(4) 0.1762(3)
C9_2 C 0.6959(5) 0.3929(5) 0.4200(5)
C10_2 C 0.8935(5) 0.1717(5) 0.3476(5)
C13_2 C 0.9474(5) 0.1311(5) 0.2588(5)
C16_2 C 0.8188(6) 0.2578(5) 0.3432(5)
H5_2 H 0.7980 0.2893 0.2853
C22_2 C 0.7743(5) 0.2979(5) 0.4241(5)
C26_2 C 0.9224(7) 0.1228(5) 0.4357(5)
H9_2 H 0.9722 0.0647 0.4391
C32_2 C 0.8771(8) 0.1609(6) 0.5182(6)
H13_2 H 0.8952 0.1279 0.5772
C41_2 C 0.8051(7) 0.2483(6) 0.5111(5)
H21_2 H 0.7764 0.2748 0.5654
Tb2 Tb 0.94881(2) 0.946109(19) 0.906633(19)
O8_2 O 0.9915(4) 0.9510(4) 0.7318(4)
N2_2 N 0.7529(5) 0.9756(5) 0.8745(4)
N3_2 N 0.8311(5) 0.7915(4) 0.9794(4)
H6_2 H 0.1686 0.7203 0.9523
H8_2 H 0.2971 0.5782 0.9470
C23_2 C 0.6815(5) 0.8976(5) 0.9229(5)
C25_2 C 0.7217(6) 0.8024(5) 0.9785(5)
C30_2 C 0.5688(6) 0.9132(7) 0.9186(6)
C46_2 C 0.4974(7) 0.8288(9) 0.9726(7)
H26_2 H 0.4231 0.8372 0.9707
H4_2 H 0.3239 0.9913 0.6855
loop_
_geom_bond_atom_site_label_1
_geom_bond_atom_site_label_2
_geom_bond_site_symmetry_1
_geom_bond_site_symmetry_2
O8 Tb8 1_555 1_555
N2 Tb8 1_555 1_555
N3 Tb8 1_555 1_555
C23 N2 1_555 1_555
C25 N3 1_555 1_555
C30 C23 1_555 1_555
C46 C30 1_555 1_555
H26 C46 1_555 1_555
C23 C25 1_555 1_555
O2 C13 1_555 1_555
O6 C9 1_555 1_555
O7 C9 1_555 1_555
C9 C22 1_555 1_555
C10 C13 1_555 1_555
C16 C10 1_555 1_555
H5 C16 1_555 1_555
C22 C16 1_555 1_555
C26 C10 1_555 1_555
H9 C26 1_555 1_555
C32 C26 1_555 1_555
H13 C32 1_555 1_555
C41 C22 1_555 1_555
H21 C41 1_555 1_555
Tb3 O7 1_555 1_555
Tb5 O6 1_555 1_555
C32 C41 1_555 1_555
H12 C31 1_555 1_555
C43 C31 1_555 1_555
H23 C43 1_555 1_555
H28 C48 1_555 1_555
C43 C48 1_555 1_555
Tb3 O1 1_555 1_555
O1 C15 1_555 1_555
O3 Tb3 1_555 1_555
O5 C3 1_555 1_555
O17 C11 1_555 1_555
C1 O3 1_555 1_555
O10 Tb3 1_555 1_555
N1 Tb3 1_555 1_555
O11 Tb3 1_555 1_555
C2 C3 1_555 1_555
C3 O4 1_555 1_555
O12 C11 1_555 1_555
C4 C8 1_555 1_555
C5 C1 1_555 1_555
C6 C2 1_555 1_555
H1 C6 1_555 1_555
C7 C8 1_555 1_555
C8 H2 1_555 1_555
N4 Tb3 1_555 1_555
C11 C4 1_555 1_555
C12 C5 1_555 1_555
H3 C12 1_555 1_555
C14 C2 1_555 1_555
C15 O11 1_555 1_555
C17 N1 1_555 1_555
C18 C4 1_555 1_555
C19 C7 1_555 1_555
H7 C19 1_555 1_555
C20 C18 1_555 1_555
C21 N4 1_555 1_555
C27 C12 1_555 1_555
H10 C27 1_555 1_555
C28 C17 1_555 1_555
C29 N4 1_555 1_555
H11 C29 1_555 1_555
C33 H14 1_555 1_555
C34 C21 1_555 1_555
C35 H15 1_555 1_555
C36 C28 1_555 1_555
H16 C36 1_555 1_555
C37 C29 1_555 1_555
H17 C37 1_555 1_555
C38 N1 1_555 1_555
H18 C38 1_555 1_555
H19 C39 1_555 1_555
C40 C28 1_555 1_555
H20 C40 1_555 1_555
C42 C24 1_555 1_555
H22 C42 1_555 1_555
C44 C34 1_555 1_555
H24 C44 1_555 1_555
C45 C24 1_555 1_555
H25 C45 1_555 1_555
C47 C34 1_555 1_555
H27 C47 1_555 1_555
Tb5 O3 1_555 1_555
O13 Tb3 1_555 1_555
O15 Tb3 1_555 1_555
C1 O10 1_555 1_555
C5 C6 1_555 1_555
C7 C15 1_555 1_555
C14 C27 1_555 1_555
C17 C21 1_555 1_555
C19 C20 1_555 1_555
C33 C39 1_555 1_555
C33 C42 1_555 1_555
C35 C38 1_555 1_555
C35 C40 1_555 1_555
C36 C44 1_555 1_555
C37 C47 1_555 1_555
Tb5 O13 1_555 1_555
Tb5 O1_2 1_555 1_555
O1_2 C15_2 1_555 1_555
O14 C3_2 1_555 1_555
O9 C11_2 1_555 1_555
C1_2 O13 1_555 1_555
O10_2 Tb5 1_555 1_555
N1_2 Tb5 1_555 1_555
O11_2 Tb5 1_555 1_555
C2_2 C3_2 1_555 1_555
C3_2 O4_2 1_555 1_555
O18 C11_2 1_555 1_555
C4_2 C8_2 1_555 1_555
C5_2 C1_2 1_555 1_555
C6_2 C2_2 1_555 1_555
H1_2 C6_2 1_555 1_555
C7_2 C8_2 1_555 1_555
C8_2 H2_2 1_555 1_555
N4_2 Tb5 1_555 1_555
C11_2 C4_2 1_555 1_555
C12_2 C5_2 1_555 1_555
H3_2 C12_2 1_555 1_555
C14_2 C2_2 1_555 1_555
C15_2 O11_2 1_555 1_555
C17_2 N1_2 1_555 1_555
C18_2 C4_2 1_555 1_555
C19_2 C7_2 1_555 1_555
H7_2 C19_2 1_555 1_555
C20_2 C18_2 1_555 1_555
C21_2 N4_2 1_555 1_555
C27_2 C12_2 1_555 1_555
H10_2 C27_2 1_555 1_555
C28_2 C17_2 1_555 1_555
C29_2 N4_2 1_555 1_555
H11_2 C29_2 1_555 1_555
C33_2 H14_2 1_555 1_555
C34_2 C21_2 1_555 1_555
C35_2 H15_2 1_555 1_555
C36_2 C28_2 1_555 1_555
H16_2 C36_2 1_555 1_555
C37_2 C29_2 1_555 1_555
H17_2 C37_2 1_555 1_555
C38_2 N1_2 1_555 1_555
H18_2 C38_2 1_555 1_555
H19_2 C39_2 1_555 1_555
C40_2 C28_2 1_555 1_555
H20_2 C40_2 1_555 1_555
C42_2 C24_2 1_555 1_555
H22_2 C42_2 1_555 1_555
C44_2 C34_2 1_555 1_555
H24_2 C44_2 1_555 1_555
C45_2 C24_2 1_555 1_555
H25_2 C45_2 1_555 1_555
C47_2 C34_2 1_555 1_555
H27_2 C47_2 1_555 1_555
O16 Tb5 1_555 1_555
C1_2 O10_2 1_555 1_555
C5_2 C6_2 1_555 1_555
C7_2 C15_2 1_555 1_555
C14_2 C27_2 1_555 1_555
C17_2 C21_2 1_555 1_555
C19_2 C20_2 1_555 1_555
C33_2 C39_2 1_555 1_555
C33_2 C42_2 1_555 1_555
C35_2 C38_2 1_555 1_555
C35_2 C40_2 1_555 1_555
C36_2 C44_2 1_555 1_555
C37_2 C47_2 1_555 1_555
H12_2 C31_2 1_555 1_555
C43_2 C31_2 1_555 1_555
H23_2 C43_2 1_555 1_555
H28_2 C48_2 1_555 1_555
C43_2 C48_2 1_555 1_555
O2_2 C13_2 1_555 1_555
O15 C9_2 1_555 1_555
O16 C9_2 1_555 1_555
C9_2 C22_2 1_555 1_555
C10_2 C13_2 1_555 1_555
C16_2 C10_2 1_555 1_555
H5_2 C16_2 1_555 1_555
C22_2 C16_2 1_555 1_555
C26_2 C10_2 1_555 1_555
H9_2 C26_2 1_555 1_555
C32_2 C26_2 1_555 1_555
H13_2 C32_2 1_555 1_555
C41_2 C22_2 1_555 1_555
H21_2 C41_2 1_555 1_555
C32_2 C41_2 1_555 1_555
O8_2 Tb2 1_555 1_555
N2_2 Tb2 1_555 1_555
N3_2 Tb2 1_555 1_555
C23_2 N2_2 1_555 1_555
C25_2 N3_2 1_555 1_555
C30_2 C23_2 1_555 1_555
C46_2 C30_2 1_555 1_555
H26_2 C46_2 1_555 1_555
C23_2 C25_2 1_555 1_555

#END
