
###############################################################################
#
# This file contains modified crystal structure data generated from the
# MOF subset of the Cambridge Structural Database (CSD) v543 
# hosted by the Cambridge Crystallographic Data Centre (CCDC).
#
# This work is licensed under the Creative Commons
# Attribution-NonCommercial-ShareAlike 4.0 International License.
# To view a copy of this license, visit
# http://creativecommons.org/licenses/by-nc-sa/4.0/
# or send a letter to
# Creative Commons, PO Box 1866, Mountain View, CA 94042, USA.
#
# CIF created using the CSD Python API on 29 September 2022
# The structure has been converted into the P1 space group
# The structure has a 3D framework
# The original CSD entry KUNQUH is in the monoclinic crystal system
# The framework has been calculated to contain at least 10.0% void space
# The void calculation uses a probe of radius 1.32A, grid spacing 0.4
#
###############################################################################

data_KUNQUH
_chemical_formula_moiety         '(C128 H80 N46 O32 Zn16)n'
_symmetry_cell_setting           triclinic
_symmetry_space_group_name_H-M   'P 1'
_symmetry_Int_Tables_number      1
_space_group_name_Hall           'P 1'
loop_
_symmetry_equiv_pos_site_id
_symmetry_equiv_pos_as_xyz
1 x,y,z
_cell_length_a                   13.609(2)
_cell_length_b                   27.181(5)
_cell_length_c                   13.617(3)
_cell_angle_alpha                90
_cell_angle_beta                 92.463(12)
_cell_angle_gamma                90
_cell_volume                     5032.36
loop_
_atom_site_label
_atom_site_type_symbol
_atom_site_fract_x
_atom_site_fract_y
_atom_site_fract_z
Zn1 Zn 0.16984(17) 0.19426(9) 0.17784(18)
H2 H 0.0055 0.2797 0.0979
N1 N 0.0269(11) 0.2190(6) 0.1860(12)
O9 O 0.1449(17) 0.1251(7) 0.1842(19)
N15 N 0.2271(11) 0.2377(6) 0.0790(12)
N16 N 0.2359(11) 0.2143(6) 0.3054(12)
Zn2 Zn 0.75027(17) 0.20187(9) 0.29386(18)
Zn3 Zn 0.78036(18) 0.30386(9) 0.10975(19)
O3 O 0.6934(12) 0.1348(5) 0.2826(10)
O4 O 0.8382(11) 0.1270(5) 0.3559(10)
C1 C 0.9605(13) 0.1983(8) 0.2448(14)
H1 H 0.9735 0.1722 0.2898
C2 C 0.9762(14) 0.2569(8) 0.1408(15)
N2 N 0.8843(11) 0.2586(6) 0.1627(11)
N3 N 0.8745(11) 0.2204(6) 0.2293(11)
C3 C 0.5548(17) 0.2461(9) 0.2622(17)
H3 H 0.5292 0.2241 0.3091
C4 C 0.5647(13) 0.3039(8) 0.1541(13)
H4 H 0.5506 0.3309 0.1115
N4 N 0.4968(11) 0.2820(6) 0.2082(12)
N5 N 0.6533(11) 0.2839(6) 0.1664(11)
N6 N 0.6457(11) 0.2472(6) 0.2395(11)
C5 C 0.7094(15) 0.2618(8) 0.4797(16)
H5 H 0.6671 0.2844 0.4455
C6 C 0.8120(13) 0.2040(7) 0.5104(13)
H6 H 0.8555 0.1771 0.5028
N7 N 0.7577(12) 0.2266(6) 0.4371(12)
N8 N 0.7932(11) 0.2267(6) 0.5958(12)
N9 N 0.7271(11) 0.2623(6) 0.5790(12)
C9 C 0.7612(16) 0.1095(8) 0.3228(15)
C10 C 0.7507(9) 0.0541(4) 0.3291(9)
C11 C 0.7679(8) 0.0341(5) 0.4222(7)
H9 H 0.7835 0.0550 0.4766
C15 C 0.7279(6) 0.0235(4) 0.2496(7)
C16 C 0.7107(9) 0.0435(5) 0.1565(8)
H11 H 0.7146 0.0781 0.1472
C17 C 0.6879(10) 0.0129(7) 0.0769(7)
H12 H 0.6762 0.0266 0.0133
Zn7 Zn 0.66984(17) 0.30574(9) 0.67784(18)
Zn9 Zn 0.85476(18) 0.20370(9) 0.72507(18)
Zn10 Zn 0.35476(18) 0.29630(9) 0.22507(18)
O10 O 0.8223(10) 0.3703(5) 0.1591(10)
O11 O 0.6926(12) 0.3820(6) 0.0599(11)
O5 O 0.8894(14) 0.1148(6) 0.6383(16)
O6 O 0.8145(12) 0.1401(6) 0.7721(11)
C7 C 0.7202(14) 0.3072(7) 0.8925(14)
H7 H 0.6727 0.3321 0.9022
C8 C 0.8299(18) 0.2553(10) 0.9205(19)
H8 H 0.8797 0.2356 0.9518
N10 N 0.7823(10) 0.2880(5) 0.9658(11)
N11 N 0.8045(12) 0.2513(7) 0.8280(13)
N12 N 0.7359(11) 0.2857(6) 0.8054(12)
C21 C 0.836(2) 0.1077(12) 0.719(2)
C22 C 0.8172(9) 0.0518(5) 0.7394(9)
C23 C 0.8906(8) 0.0174(6) 0.7246(10)
H15 H 0.9517 0.0276 0.7000
C27 C 0.7278(8) 0.0369(4) 0.7752(7)
C28 C 0.6544(10) 0.0714(4) 0.7901(10)
H17 H 0.6653 0.1051 0.7757
C29 C 0.5651(9) 0.0565(6) 0.8259(11)
H18 H 0.5149 0.0800 0.8361
C30 C 0.5491(8) 0.0071(7) 0.8470(11)
N13 N 0.9968(11) 0.2180(6) 0.7082(12)
O7 O 0.6777(10) 0.8703(5) 0.3409(10)
O8 O 0.8074(12) 0.8820(6) 0.4401(11)
C12 C 0.7623(8) 0.9835(5) 0.4358(7)
H10 H 0.7740 0.9699 0.4994
C13 C 0.7395(9) 0.9529(4) 0.3563(9)
C14 C 0.7223(6) 0.9729(4) 0.2631(7)
C18 C 0.6823(10) 0.9623(7) 0.0905(8)
H13 H 0.6667 0.9414 0.0361
C19 C 0.6995(10) 0.9423(5) 0.1836(9)
H14 H 0.6956 0.9078 0.1929
C20 C 0.7398(18) 0.8978(9) 0.3797(18)
Zn8 Zn 0.71964(18) 0.80386(9) 0.39025(19)
O1 O 0.695(2) 0.8819(9) 0.809(2)
O2 O 0.8551(17) 0.8749(7) 0.8158(19)
C24 C 0.8747(9) 0.9681(6) 0.7456(10)
H16 H 0.9249 0.9445 0.7355
C25 C 0.7853(10) 0.9532(4) 0.7815(10)
C26 C 0.7119(8) 0.9876(4) 0.7963(7)
H19 H 0.4881 0.9969 0.8715
C31 C 0.6226(9) 0.9727(5) 0.8321(10)
H20 H 0.6117 0.9390 0.8465
C32 C 0.792(3) 0.8972(13) 0.809(2)
Zn5 Zn 0.83016(17) 0.80574(9) 0.82216(18)
N4_2 N 0.0032(11) 0.7820(6) 0.2918(12)
H19_2 H 0.0119 0.4969 0.6285
Zn10_2 Zn 0.14524(18) 0.79630(9) 0.27493(18)
Zn1_2 Zn 0.33016(17) 0.69426(9) 0.32216(18)
Zn2_2 Zn 0.74973(17) 0.70187(9) 0.20614(18)
Zn4 Zn 0.64524(18) 0.70370(9) 0.77493(18)
O1_2 O 0.805(2) 0.3819(9) 0.691(2)
O2_2 O 0.6449(17) 0.3749(7) 0.6842(19)
O3_2 O 0.8066(12) 0.6348(5) 0.2174(10)
O4_2 O 0.6618(11) 0.6270(5) 0.1441(10)
O5_2 O 0.6106(14) 0.6148(6) 0.8617(16)
O6_2 O 0.6855(12) 0.6401(6) 0.7279(11)
C1_2 C 0.5395(13) 0.6983(8) 0.2552(14)
H1_2 H 0.5265 0.6722 0.2102
C2_2 C 0.5238(14) 0.7569(8) 0.3592(15)
H2_2 H 0.4945 0.7797 0.4021
N1_2 N 0.4731(11) 0.7190(6) 0.3140(12)
N2_2 N 0.6157(11) 0.7586(6) 0.3373(11)
N3_2 N 0.6255(11) 0.7204(6) 0.2707(11)
C3_2 C 0.9452(17) 0.7461(9) 0.2378(17)
H3_2 H 0.9708 0.7241 0.1909
C4_2 C 0.9353(13) 0.8039(8) 0.3459(13)
H4_2 H 0.9494 0.8309 0.3885
N5_2 N 0.8467(11) 0.7839(6) 0.3336(11)
N6_2 N 0.8543(11) 0.7472(6) 0.2605(11)
C5_2 C 0.7906(15) 0.7618(8) 0.0203(16)
H5_2 H 0.8329 0.7844 0.0545
N7_2 N 0.7423(12) 0.7266(6) 0.0629(12)
C7_2 C 0.7798(14) 0.8072(7) 0.6075(14)
H7_2 H 0.8273 0.8321 0.5978
C8_2 C 0.6701(18) 0.7553(10) 0.5795(19)
H8_2 H 0.6203 0.7356 0.5482
N10_2 N 0.7177(10) 0.7880(5) 0.5342(11)
N11_2 N 0.6955(12) 0.7513(7) 0.6720(13)
N12_2 N 0.7641(11) 0.7857(6) 0.6946(12)
C9_2 C 0.7388(16) 0.6095(8) 0.1772(15)
C10_2 C 0.7493(9) 0.5541(4) 0.1709(9)
C11_2 C 0.7321(8) 0.5341(5) 0.0778(7)
H9_2 H 0.7165 0.5550 0.0234
C12_2 C 0.7377(8) 0.4835(5) 0.0642(7)
H10_2 H 0.7260 0.4699 0.0006
C13_2 C 0.7605(9) 0.4529(4) 0.1437(9)
C14_2 C 0.7777(6) 0.4729(4) 0.2369(7)
C15_2 C 0.7721(6) 0.5235(4) 0.2504(7)
C16_2 C 0.7893(9) 0.5435(5) 0.3435(8)
H11_2 H 0.7854 0.5781 0.3528
C17_2 C 0.8121(10) 0.5129(7) 0.4231(7)
H12_2 H 0.8238 0.5266 0.4867
C18_2 C 0.8177(10) 0.4623(7) 0.4095(8)
H13_2 H 0.8333 0.4414 0.4639
C19_2 C 0.8005(10) 0.4423(5) 0.3164(9)
H14_2 H 0.8044 0.4078 0.3071
C20_2 C 0.7602(18) 0.3978(9) 0.1203(18)
C21_2 C 0.664(2) 0.6077(12) 0.781(2)
C22_2 C 0.6828(9) 0.5518(5) 0.7606(9)
C23_2 C 0.6094(8) 0.5174(6) 0.7754(10)
H15_2 H 0.5483 0.5276 0.8000
C24_2 C 0.6253(9) 0.4681(6) 0.7544(10)
H16_2 H 0.5751 0.4445 0.7645
C25_2 C 0.7147(10) 0.4532(4) 0.7185(10)
C26_2 C 0.7881(8) 0.4876(4) 0.7037(7)
C27_2 C 0.7722(8) 0.5369(4) 0.7248(7)
C28_2 C 0.8456(10) 0.5714(4) 0.7099(10)
H17_2 H 0.8347 0.6051 0.7243
C29_2 C 0.9349(9) 0.5565(6) 0.6741(11)
H18_2 H 0.9851 0.5800 0.6639
C30_2 C 0.9509(8) 0.5071(7) 0.6530(11)
C31_2 C 0.8774(9) 0.4727(5) 0.6679(10)
H20_2 H 0.8883 0.4390 0.6535
C32_2 C 0.708(3) 0.3972(13) 0.691(2)
O9_2 O 0.3551(17) 0.6251(7) 0.3158(19)
N13_2 N 0.5032(11) 0.7180(6) 0.7918(12)
N14 N 0.7068(11) 0.7267(6) 0.9042(12)
N15_2 N 0.2729(11) 0.7377(6) 0.4210(12)
N16_2 N 0.2641(11) 0.7143(6) 0.1946(12)
C6_2 C 0.6880(13) 0.7040(7) 0.9896(13)
H6_2 H 0.6445 0.6771 0.9972
N9_2 N 0.7729(11) 0.7623(6) 0.9210(12)
O1_3 O 0.305(2) 0.1181(9) 0.191(2)
C24_3 C 0.1253(9) 0.0319(6) 0.2544(10)
H16_3 H 0.0751 0.0555 0.2645
C25_3 C 0.2147(10) 0.0468(4) 0.2185(10)
C26_3 C 0.2881(8) 0.0124(4) 0.2037(7)
H19_3 H 0.5119 0.0031 0.1285
C31_3 C 0.3774(9) 0.0273(5) 0.1679(10)
H20_3 H 0.3883 0.0610 0.1535
C32_3 C 0.208(3) 0.1028(13) 0.191(2)
O7_2 O 0.3223(10) 0.1297(5) 0.6591(10)
O8_2 O 0.1926(12) 0.1180(6) 0.5599(11)
C12_3 C 0.2377(8) 0.0165(5) 0.5642(7)
H10_3 H 0.2260 0.0301 0.5006
C13_3 C 0.2605(9) 0.0471(4) 0.6437(9)
C14_3 C 0.2777(6) 0.0271(4) 0.7369(7)
C18_3 C 0.3177(10) 0.0377(7) 0.9095(8)
H13_3 H 0.3333 0.0586 0.9639
C19_3 C 0.3005(10) 0.0577(5) 0.8164(9)
H14_3 H 0.3044 0.0922 0.8071
C20_3 C 0.2602(18) 0.1022(9) 0.6203(18)
Zn8_2 Zn 0.28036(18) 0.19614(9) 0.60975(19)
O5_3 O 0.1106(14) 0.8852(6) 0.3617(16)
O6_3 O 0.1855(12) 0.8599(6) 0.2279(11)
C7_3 C 0.2798(14) 0.6928(7) 0.1075(14)
H7_3 H 0.3273 0.6679 0.0978
C8_3 C 0.1701(18) 0.7447(10) 0.0795(19)
H8_3 H 0.1203 0.7644 0.0482
N10_3 N 0.2177(10) 0.7120(5) 0.0342(11)
N11_3 N 0.1955(12) 0.7487(7) 0.1720(13)
C21_3 C 0.164(2) 0.8923(12) 0.281(2)
C22_3 C 0.1828(9) 0.9482(5) 0.2606(9)
C23_3 C 0.1094(8) 0.9826(6) 0.2754(10)
H15_3 H 0.0483 0.9724 0.3000
C27_3 C 0.2722(8) 0.9631(4) 0.2248(7)
C28_3 C 0.3456(10) 0.9286(4) 0.2099(10)
H17_3 H 0.3347 0.8949 0.2243
C29_3 C 0.4349(9) 0.9435(6) 0.1741(11)
H18_3 H 0.4851 0.9200 0.1639
C30_3 C 0.4509(8) 0.9929(7) 0.1530(11)
N14_2 N 0.2068(11) 0.7733(6) 0.4042(12)
Zn2_3 Zn 0.24973(17) 0.79813(9) 0.70614(18)
Zn3_2 Zn 0.21964(18) 0.69614(9) 0.89025(19)
O3_3 O 0.3066(12) 0.8652(5) 0.7174(10)
O4_3 O 0.1618(11) 0.8730(5) 0.6441(10)
C1_3 C 0.0395(13) 0.8017(8) 0.7552(14)
H1_3 H 0.0265 0.8278 0.7102
C2_3 C 0.0238(14) 0.7431(8) 0.8592(15)
N2_3 N 0.1157(11) 0.7414(6) 0.8373(11)
N3_3 N 0.1255(11) 0.7796(6) 0.7707(11)
C3_3 C 0.4452(17) 0.7539(9) 0.7378(17)
H3_3 H 0.4708 0.7759 0.6909
C4_3 C 0.4353(13) 0.6961(8) 0.8459(13)
H4_3 H 0.4494 0.6691 0.8885
N5_3 N 0.3467(11) 0.7161(6) 0.8336(11)
N6_3 N 0.3543(11) 0.7528(6) 0.7605(11)
C5_3 C 0.2906(15) 0.7382(8) 0.5203(16)
H5_3 H 0.3329 0.7156 0.5545
C6_3 C 0.1880(13) 0.7960(7) 0.4896(13)
H6_3 H 0.1445 0.8229 0.4972
N7_3 N 0.2423(12) 0.7734(6) 0.5629(12)
C9_3 C 0.2388(16) 0.8905(8) 0.6772(15)
C10_3 C 0.2493(9) 0.9459(4) 0.6709(9)
C11_3 C 0.2321(8) 0.9659(5) 0.5778(7)
H9_3 H 0.2165 0.9450 0.5234
C15_3 C 0.2721(6) 0.9765(4) 0.7504(7)
C16_3 C 0.2893(9) 0.9565(5) 0.8435(8)
H11_3 H 0.2854 0.9219 0.8528
C17_3 C 0.3121(10) 0.9871(7) 0.9231(7)
H12_3 H 0.3238 0.9734 0.9867
O10_2 O 0.1777(10) 0.6297(5) 0.8409(10)
O11_2 O 0.3074(12) 0.6180(6) 0.9401(11)
H2_3 H 0.9945 0.7203 0.9021
N1_3 N 0.9731(11) 0.7810(6) 0.8140(12)
C6_4 C 0.3120(13) 0.2960(7) 0.0104(13)
H6_4 H 0.3555 0.3229 0.0028
N8_2 N 0.2932(11) 0.2733(6) 0.0958(12)
Zn2_4 Zn 0.25027(17) 0.29813(9) 0.79386(18)
O1_4 O 0.195(2) 0.6181(9) 0.309(2)
O3_4 O 0.1934(12) 0.3652(5) 0.7826(10)
O4_4 O 0.3382(11) 0.3730(5) 0.8559(10)
O5_4 O 0.3894(14) 0.3852(6) 0.1383(16)
O6_4 O 0.3145(12) 0.3599(6) 0.2721(11)
C1_4 C 0.4605(13) 0.3017(8) 0.7448(14)
H1_4 H 0.4735 0.3278 0.7898
C2_4 C 0.4762(14) 0.2431(8) 0.6408(15)
H2_4 H 0.5055 0.2203 0.5979
N1_4 N 0.5269(11) 0.2810(6) 0.6860(12)
N2_4 N 0.3843(11) 0.2414(6) 0.6627(11)
N3_4 N 0.3745(11) 0.2796(6) 0.7293(11)
C3_4 C 0.0548(17) 0.2539(9) 0.7622(17)
H3_4 H 0.0292 0.2759 0.8091
C4_4 C 0.0647(13) 0.1961(8) 0.6541(13)
H4_4 H 0.0506 0.1691 0.6115
N5_4 N 0.1533(11) 0.2161(6) 0.6664(11)
N6_4 N 0.1457(11) 0.2528(6) 0.7395(11)
C5_4 C 0.2094(15) 0.2382(8) 0.9797(16)
H5_4 H 0.1671 0.2156 0.9455
N7_4 N 0.2577(12) 0.2734(6) 0.9371(12)
C7_4 C 0.2202(14) 0.1928(7) 0.3925(14)
H7_4 H 0.1727 0.1679 0.4022
C8_4 C 0.3299(18) 0.2447(10) 0.4205(19)
H8_4 H 0.3797 0.2644 0.4518
N10_4 N 0.2823(10) 0.2120(5) 0.4658(11)
N11_4 N 0.3045(12) 0.2487(7) 0.3280(13)
C9_4 C 0.2612(16) 0.3905(8) 0.8228(15)
C10_4 C 0.2507(9) 0.4459(4) 0.8291(9)
C11_4 C 0.2679(8) 0.4659(5) 0.9222(7)
H9_4 H 0.2835 0.4450 0.9766
C12_4 C 0.2623(8) 0.5165(5) 0.9358(7)
H10_4 H 0.2740 0.5301 0.9994
C13_4 C 0.2395(9) 0.5471(4) 0.8563(9)
C14_4 C 0.2223(6) 0.5271(4) 0.7631(7)
C15_4 C 0.2279(6) 0.4765(4) 0.7496(7)
C16_4 C 0.2107(9) 0.4565(5) 0.6565(8)
H11_4 H 0.2146 0.4219 0.6472
C17_4 C 0.1879(10) 0.4871(7) 0.5769(7)
H12_4 H 0.1762 0.4734 0.5133
C18_4 C 0.1823(10) 0.5377(7) 0.5905(8)
H13_4 H 0.1667 0.5586 0.5361
C19_4 C 0.1995(10) 0.5577(5) 0.6836(9)
H14_4 H 0.1956 0.5922 0.6929
C20_4 C 0.2398(18) 0.6022(9) 0.8797(18)
C21_4 C 0.336(2) 0.3923(12) 0.219(2)
C22_4 C 0.3172(9) 0.4482(5) 0.2394(9)
C23_4 C 0.3906(8) 0.4826(6) 0.2246(10)
H15_4 H 0.4517 0.4724 0.2000
C24_4 C 0.3747(9) 0.5319(6) 0.2456(10)
H16_4 H 0.4249 0.5555 0.2355
C25_4 C 0.2853(10) 0.5468(4) 0.2815(10)
C26_4 C 0.2119(8) 0.5124(4) 0.2963(7)
C27_4 C 0.2278(8) 0.4631(4) 0.2752(7)
C28_4 C 0.1544(10) 0.4286(4) 0.2901(10)
H17_4 H 0.1653 0.3949 0.2757
C29_4 C 0.0651(9) 0.4435(6) 0.3259(11)
H18_4 H 0.0149 0.4200 0.3361
C30_4 C 0.0491(8) 0.4929(7) 0.3470(11)
C31_4 C 0.1226(9) 0.5273(5) 0.3321(10)
H20_4 H 0.1117 0.5610 0.3465
C32_4 C 0.292(3) 0.6028(13) 0.309(2)
H19_4 H 0.9881 0.5031 0.3715
loop_
_geom_bond_atom_site_label_1
_geom_bond_atom_site_label_2
_geom_bond_site_symmetry_1
_geom_bond_site_symmetry_2
Zn1 N1 1_555 1_555
O9 Zn1 1_555 1_555
N15 Zn1 1_555 1_555
N16 Zn1 1_555 1_555
Zn2 O3 1_555 1_555
Zn3 N2 1_555 1_555
O3 C9 1_555 1_555
O4 Zn2 1_555 1_555
C1 H1 1_555 1_555
N2 C2 1_555 1_555
N3 Zn2 1_555 1_555
C3 H3 1_555 1_555
C4 H4 1_555 1_555
N4 C3 1_555 1_555
N5 Zn3 1_555 1_555
N6 Zn2 1_555 1_555
C5 H5 1_555 1_555
C6 H6 1_555 1_555
N7 Zn2 1_555 1_555
N8 C6 1_555 1_555
N9 C5 1_555 1_555
C9 O4 1_555 1_555
C10 C9 1_555 1_555
C11 C10 1_555 1_555
H9 C11 1_555 1_555
C15 C10 1_555 1_555
C16 C15 1_555 1_555
H11 C16 1_555 1_555
C17 C16 1_555 1_555
H12 C17 1_555 1_555
Zn7 N9 1_555 1_555
Zn9 N8 1_555 1_555
Zn10 N4 1_555 1_555
O10 Zn3 1_555 1_555
O11 Zn3 1_555 1_555
C1 N3 1_555 1_555
N2 N3 1_555 1_555
C3 N6 1_555 1_555
C4 N4 1_555 1_555
C4 N5 1_555 1_555
N5 N6 1_555 1_555
C5 N7 1_555 1_555
C6 N7 1_555 1_555
N8 N9 1_555 1_555
Zn9 O6 1_555 1_555
O5 C21 1_555 1_555
O6 C21 1_555 1_555
C7 H7 1_555 1_555
C8 H8 1_555 1_555
N11 Zn9 1_555 1_555
N12 C7 1_555 1_555
C21 C22 1_555 1_555
C22 C23 1_555 1_555
C23 H15 1_555 1_555
C27 C22 1_555 1_555
C28 C27 1_555 1_555
H17 C28 1_555 1_555
C29 C28 1_555 1_555
H18 C29 1_555 1_555
C30 C29 1_555 1_555
Zn7 N12 1_555 1_555
N13 Zn9 1_555 1_555
C7 N10 1_555 1_555
C8 N10 1_555 1_555
C8 N11 1_555 1_555
N11 N12 1_555 1_555
O7 C20 1_555 1_555
O8 C20 1_555 1_555
H10 C12 1_555 1_555
C13 C12 1_555 1_555
C14 C13 1_555 1_555
H13 C18 1_555 1_555
C19 C14 1_555 1_555
H14 C19 1_555 1_555
C20 C13 1_555 1_555
Zn8 O7 1_555 1_555
O8 Zn8 1_555 1_555
C18 C19 1_555 1_555
O1 C32 1_555 1_555
O2 C32 1_555 1_555
H16 C24 1_555 1_555
C25 C24 1_555 1_555
C26 C25 1_555 1_555
C31 C26 1_555 1_555
H20 C31 1_555 1_555
C32 C25 1_555 1_555
Zn5 O2 1_555 1_555
Zn10_2 N4_2 1_555 1_555
Zn1_2 N1_2 1_555 1_555
Zn2_2 O3_2 1_555 1_555
Zn8 N2_2 1_555 1_555
Zn4 O6_2 1_555 1_555
O1_2 C32_2 1_555 1_555
O2_2 C32_2 1_555 1_555
O3_2 C9_2 1_555 1_555
O4_2 Zn2_2 1_555 1_555
O5_2 C21_2 1_555 1_555
O6_2 C21_2 1_555 1_555
O10 C20_2 1_555 1_555
O11 C20_2 1_555 1_555
C1_2 H1_2 1_555 1_555
C2_2 H2_2 1_555 1_555
N1_2 C1_2 1_555 1_555
N2_2 C2_2 1_555 1_555
N3_2 Zn2_2 1_555 1_555
C3_2 H3_2 1_555 1_555
C4_2 H4_2 1_555 1_555
N5_2 Zn8 1_555 1_555
N6_2 Zn2_2 1_555 1_555
C5_2 H5_2 1_555 1_555
N7_2 Zn2_2 1_555 1_555
C7_2 H7_2 1_555 1_555
C8_2 H8_2 1_555 1_555
N10_2 Zn8 1_555 1_555
N11_2 Zn4 1_555 1_555
N12_2 C7_2 1_555 1_555
C9_2 O4_2 1_555 1_555
C10_2 C9_2 1_555 1_555
C11_2 C10_2 1_555 1_555
H9_2 C11_2 1_555 1_555
C12_2 C11_2 1_555 1_555
H10_2 C12_2 1_555 1_555
C13_2 C12_2 1_555 1_555
C14_2 C13_2 1_555 1_555
C15_2 C10_2 1_555 1_555
C16_2 C15_2 1_555 1_555
H11_2 C16_2 1_555 1_555
C17_2 C16_2 1_555 1_555
H12_2 C17_2 1_555 1_555
C18_2 C17_2 1_555 1_555
H13_2 C18_2 1_555 1_555
C19_2 C14_2 1_555 1_555
H14_2 C19_2 1_555 1_555
C20_2 C13_2 1_555 1_555
C21_2 C22_2 1_555 1_555
C22_2 C23_2 1_555 1_555
C23_2 H15_2 1_555 1_555
C24_2 C23_2 1_555 1_555
H16_2 C24_2 1_555 1_555
C25_2 C24_2 1_555 1_555
C26_2 C25_2 1_555 1_555
C27_2 C22_2 1_555 1_555
C28_2 C27_2 1_555 1_555
H17_2 C28_2 1_555 1_555
C29_2 C28_2 1_555 1_555
H18_2 C29_2 1_555 1_555
C30_2 C29_2 1_555 1_555
C31_2 C26_2 1_555 1_555
H20_2 C31_2 1_555 1_555
C32_2 C25_2 1_555 1_555
Zn7 O2_2 1_555 1_555
Zn5 N12_2 1_555 1_555
O9_2 Zn1_2 1_555 1_555
N13_2 Zn4 1_555 1_555
N14 Zn4 1_555 1_555
N15_2 Zn1_2 1_555 1_555
N16_2 Zn1_2 1_555 1_555
C1_2 N3_2 1_555 1_555
C2_2 N1_2 1_555 1_555
N2_2 N3_2 1_555 1_555
C3_2 N6_2 1_555 1_555
C4_2 N5_2 1_555 1_555
N5_2 N6_2 1_555 1_555
C5_2 N7_2 1_555 1_555
C7_2 N10_2 1_555 1_555
C8_2 N10_2 1_555 1_555
C8_2 N11_2 1_555 1_555
N11_2 N12_2 1_555 1_555
C14_2 C15_2 1_555 1_555
C18_2 C19_2 1_555 1_555
C26_2 C27_2 1_555 1_555
C30_2 C31_2 1_555 1_555
C6_2 H6_2 1_555 1_555
N14 C6_2 1_555 1_555
Zn5 N9_2 1_555 1_555
N14 N9_2 1_555 1_555
O1_3 C32_3 1_555 1_555
O9 C32_3 1_555 1_555
H16_3 C24_3 1_555 1_555
C25_3 C24_3 1_555 1_555
C26_3 C25_3 1_555 1_555
C31_3 C26_3 1_555 1_555
H20_3 C31_3 1_555 1_555
C32_3 C25_3 1_555 1_555
O7_2 C20_3 1_555 1_555
O8_2 C20_3 1_555 1_555
H10_3 C12_3 1_555 1_555
C13_3 C12_3 1_555 1_555
C14_3 C13_3 1_555 1_555
H13_3 C18_3 1_555 1_555
C19_3 C14_3 1_555 1_555
H14_3 C19_3 1_555 1_555
C20_3 C13_3 1_555 1_555
Zn8_2 O7_2 1_555 1_555
O8_2 Zn8_2 1_555 1_555
C18_3 C19_3 1_555 1_555
Zn10_2 O6_3 1_555 1_555
O5_3 C21_3 1_555 1_555
O6_3 C21_3 1_555 1_555
C7_3 H7_3 1_555 1_555
C8_3 H8_3 1_555 1_555
N11_3 Zn10_2 1_555 1_555
N16_2 C7_3 1_555 1_555
C21_3 C22_3 1_555 1_555
C22_3 C23_3 1_555 1_555
C23_3 H15_3 1_555 1_555
C27_3 C22_3 1_555 1_555
C28_3 C27_3 1_555 1_555
H17_3 C28_3 1_555 1_555
C29_3 C28_3 1_555 1_555
H18_3 C29_3 1_555 1_555
C30_3 C29_3 1_555 1_555
N14_2 Zn10_2 1_555 1_555
C7_3 N10_3 1_555 1_555
C8_3 N10_3 1_555 1_555
C8_3 N11_3 1_555 1_555
N11_3 N16_2 1_555 1_555
Zn2_3 O3_3 1_555 1_555
Zn3_2 N2_3 1_555 1_555
O3_3 C9_3 1_555 1_555
O4_3 Zn2_3 1_555 1_555
C1_3 H1_3 1_555 1_555
N2_3 C2_3 1_555 1_555
N3_3 Zn2_3 1_555 1_555
C3_3 H3_3 1_555 1_555
C4_3 H4_3 1_555 1_555
N13_2 C3_3 1_555 1_555
N5_3 Zn3_2 1_555 1_555
N6_3 Zn2_3 1_555 1_555
C5_3 H5_3 1_555 1_555
C6_3 H6_3 1_555 1_555
N7_3 Zn2_3 1_555 1_555
N14_2 C6_3 1_555 1_555
N15_2 C5_3 1_555 1_555
C9_3 O4_3 1_555 1_555
C10_3 C9_3 1_555 1_555
C11_3 C10_3 1_555 1_555
H9_3 C11_3 1_555 1_555
C15_3 C10_3 1_555 1_555
C16_3 C15_3 1_555 1_555
H11_3 C16_3 1_555 1_555
C17_3 C16_3 1_555 1_555
H12_3 C17_3 1_555 1_555
O10_2 Zn3_2 1_555 1_555
O11_2 Zn3_2 1_555 1_555
C1_3 N3_3 1_555 1_555
N2_3 N3_3 1_555 1_555
C3_3 N6_3 1_555 1_555
C4_3 N13_2 1_555 1_555
C4_3 N5_3 1_555 1_555
N5_3 N6_3 1_555 1_555
C5_3 N7_3 1_555 1_555
C6_3 N7_3 1_555 1_555
N14_2 N15_2 1_555 1_555
Zn5 N1_3 1_555 1_555
C6_4 H6_4 1_555 1_555
N8_2 C6_4 1_555 1_555
Zn10 N8_2 1_555 1_555
N8_2 N15 1_555 1_555
Zn7 N1_4 1_555 1_555
Zn2_4 O3_4 1_555 1_555
Zn8_2 N2_4 1_555 1_555
Zn10 O6_4 1_555 1_555
O1_4 C32_4 1_555 1_555
O9_2 C32_4 1_555 1_555
O3_4 C9_4 1_555 1_555
O4_4 Zn2_4 1_555 1_555
O5_4 C21_4 1_555 1_555
O6_4 C21_4 1_555 1_555
O10_2 C20_4 1_555 1_555
O11_2 C20_4 1_555 1_555
C1_4 H1_4 1_555 1_555
C2_4 H2_4 1_555 1_555
N1_4 C1_4 1_555 1_555
N2_4 C2_4 1_555 1_555
N3_4 Zn2_4 1_555 1_555
C3_4 H3_4 1_555 1_555
C4_4 H4_4 1_555 1_555
N5_4 Zn8_2 1_555 1_555
N6_4 Zn2_4 1_555 1_555
C5_4 H5_4 1_555 1_555
N7_4 Zn2_4 1_555 1_555
C7_4 H7_4 1_555 1_555
C8_4 H8_4 1_555 1_555
N10_4 Zn8_2 1_555 1_555
N11_4 Zn10 1_555 1_555
N16 C7_4 1_555 1_555
C9_4 O4_4 1_555 1_555
C10_4 C9_4 1_555 1_555
C11_4 C10_4 1_555 1_555
H9_4 C11_4 1_555 1_555
C12_4 C11_4 1_555 1_555
H10_4 C12_4 1_555 1_555
C13_4 C12_4 1_555 1_555
C14_4 C13_4 1_555 1_555
C15_4 C10_4 1_555 1_555
C16_4 C15_4 1_555 1_555
H11_4 C16_4 1_555 1_555
C17_4 C16_4 1_555 1_555
H12_4 C17_4 1_555 1_555
C18_4 C17_4 1_555 1_555
H13_4 C18_4 1_555 1_555
C19_4 C14_4 1_555 1_555
H14_4 C19_4 1_555 1_555
C20_4 C13_4 1_555 1_555
C21_4 C22_4 1_555 1_555
C22_4 C23_4 1_555 1_555
C23_4 H15_4 1_555 1_555
C24_4 C23_4 1_555 1_555
H16_4 C24_4 1_555 1_555
C25_4 C24_4 1_555 1_555
C26_4 C25_4 1_555 1_555
C27_4 C22_4 1_555 1_555
C28_4 C27_4 1_555 1_555
H17_4 C28_4 1_555 1_555
C29_4 C28_4 1_555 1_555
H18_4 C29_4 1_555 1_555
C30_4 C29_4 1_555 1_555
C31_4 C26_4 1_555 1_555
H20_4 C31_4 1_555 1_555
C32_4 C25_4 1_555 1_555
C1_4 N3_4 1_555 1_555
C2_4 N1_4 1_555 1_555
N2_4 N3_4 1_555 1_555
C3_4 N6_4 1_555 1_555
C4_4 N5_4 1_555 1_555
N5_4 N6_4 1_555 1_555
C5_4 N7_4 1_555 1_555
C7_4 N10_4 1_555 1_555
C8_4 N10_4 1_555 1_555
C8_4 N11_4 1_555 1_555
N11_4 N16 1_555 1_555
C14_4 C15_4 1_555 1_555
C18_4 C19_4 1_555 1_555
C26_4 C27_4 1_555 1_555
C30_4 C31_4 1_555 1_555

#END
