
###############################################################################
#
# This file contains modified crystal structure data generated from the
# MOF subset of the Cambridge Structural Database (CSD) v543 
# hosted by the Cambridge Crystallographic Data Centre (CCDC).
#
# This work is licensed under the Creative Commons
# Attribution-NonCommercial-ShareAlike 4.0 International License.
# To view a copy of this license, visit
# http://creativecommons.org/licenses/by-nc-sa/4.0/
# or send a letter to
# Creative Commons, PO Box 1866, Mountain View, CA 94042, USA.
#
# CIF created using the CSD Python API on 29 September 2022
# The structure has been converted into the P1 space group
# The structure has a 3D framework
# The original CSD entry KUNRAO is in the orthorhombic crystal system
# The framework has been calculated to contain at least 10.0% void space
# The void calculation uses a probe of radius 1.32A, grid spacing 0.4
#
###############################################################################

data_KUNRAO
_chemical_formula_moiety         '(C128 H80 N48 O32 Zn16)n'
_symmetry_cell_setting           triclinic
_symmetry_space_group_name_H-M   'P 1'
_symmetry_Int_Tables_number      1
_space_group_name_Hall           'P 1'
loop_
_symmetry_equiv_pos_site_id
_symmetry_equiv_pos_as_xyz
1 x,y,z
_cell_length_a                   30.978(6)
_cell_length_b                   12.620(3)
_cell_length_c                   13.339(3)
_cell_angle_alpha                90
_cell_angle_beta                 90
_cell_angle_gamma                90
_cell_volume                     5214.78
loop_
_atom_site_label
_atom_site_type_symbol
_atom_site_fract_x
_atom_site_fract_y
_atom_site_fract_z
Zn1 Zn 0.20299(5) 0.40042(15) 0.10042(13)
O1 O 0.1465(3) 0.4666(9) 0.0663(7)
N1 N 0.2185(4) 0.3836(11) 0.2446(11)
N2 N 0.2162(4) 0.2660(9) 0.0323(10)
N3 N 0.2498(4) 0.5059(10) 0.0614(10)
C1 C 0.1188(4) 0.4046(11) 0.1101(12)
C2 C 0.1959(5) 0.3549(13) 0.3210(13)
C3 C 0.2562(6) 0.4095(14) 0.2866(14)
C4 C 0.1944(5) 0.1726(12) 0.0385(16)
O2 O 0.1268(3) 0.3250(9) 0.1523(9)
C5 C 0.0731(5) 0.4448(12) 0.1021(14)
N5 N 0.2162(4) 0.3507(11) 0.4078(11)
H1 H 0.1661 0.3377 0.3151
N6 N 0.2552(4) 0.3904(9) 0.3836(10)
H2 H 0.2802 0.4378 0.2515
H3 H 0.1685 0.1628 0.0757
C7 C 0.0418(6) 0.4024(15) 0.1631(15)
C8 C 0.0610(5) 0.5230(12) 0.0414(14)
Zn3 Zn 0.19533(5) 0.30376(14) 0.54339(13)
Zn4 Zn 0.30157(6) 0.43654(17) 0.48712(15)
H5 H 0.0498 0.3484 0.2091
H6 H 0.0831 0.5538 0.0015
C10 C 0.0188(5) 0.5661(13) 0.0294(14)
N8 N 0.2118(4) 0.1502(9) 0.5441(11)
O3 O 0.1390(4) 0.3635(12) 0.5791(8)
N9 N 0.2388(4) 0.3542(10) 0.6430(11)
C13 C 0.1945(5) 0.0692(12) 0.4939(14)
C14 C 0.2465(5) 0.1044(13) 0.5861(13)
H9 H 0.1677 0.0739 0.4593
H10 H 0.2661 0.1404 0.6291
C22 C 0.0513(5) 0.0397(13) 0.0378(15)
H15 H 0.0662 0.0624 0.0963
C25 C 0.0068(6) 0.0707(13) 0.0222(14)
H18 H 0.0005 0.1623 0.1436
N15 N 0.2502(4) 0.0059(10) 0.5614(10)
N4 N 0.2526(4) 0.2384(10) 0.9751(10)
C6 C 0.2493(5) 0.1429(12) 0.9497(13)
Zn2 Zn 0.29566(5) 0.34578(17) 0.92689(13)
N7 N 0.2140(4) 0.0961(11) 0.9855(12)
H4 H 0.2699 0.1075 0.9089
C12 C 0.0070(7) 0.6461(15) 0.9665(16)
H8 H 0.0281 0.6776 0.9245
O5 O 0.1361(4) 0.9800(15) 0.0644(11)
N10 N 0.2210(4) 0.8928(9) 0.1223(10)
C16 C 0.2007(5) 0.8907(13) 0.2069(15)
N11 N 0.2167(4) 0.9865(10) 0.4968(11)
C20 C 0.2613(5) 0.8404(12) 0.2413(12)
N12 N 0.2244(4) 0.8658(11) 0.2833(11)
H11 H 0.1708 0.9062 0.2126
H14 H 0.2856 0.8149 0.2776
O6 O 0.1419(4) 0.872(2) 0.3965(14)
N14 N 0.2612(4) 0.8542(10) 0.1430(11)
Zn6 Zn 0.30467(5) 0.80376(14) 0.04339(13)
Zn7 Zn 0.20434(5) 0.84578(17) 0.42689(13)
Zn8 Zn 0.29701(5) 0.90042(15) 0.60042(13)
N16 N 0.2474(4) 0.7384(10) 0.4751(10)
O4 O 0.1408(4) 0.9180(15) 0.9088(17)
C15 C 0.1186(6) 0.9586(15) 0.9860(17)
C19 C 0.0716(6) 0.9785(14) 0.9694(14)
C23 C 0.0486(7) 0.9316(18) 0.8881(18)
H16 H 0.0630 0.8827 0.8454
C26 C 0.0063(6) 0.9557(14) 0.8705(15)
Zn5 Zn 0.19843(6) 0.93654(17) 0.98712(15)
N13 N 0.2448(4) 0.8904(9) 0.8836(10)
C9 C 0.9996(5) 0.4345(13) 0.1605(13)
H7 H 0.9787 0.4027 0.2031
C11 C 0.9875(5) 0.5167(12) 0.0924(13)
C17 C 0.9439(5) 0.5562(12) 0.0912(13)
C21 C 0.9341(6) 0.6328(14) 0.0246(15)
H12 H 0.9227 0.5291 0.1359
C24 C 0.8885(6) 0.6794(14) 0.0166(14)
C28 C 0.9855(6) 0.1364(15) 0.0866(17)
C30 C 0.9429(8) 0.1674(19) 0.0731(19)
H20 H 0.9291 0.2157 0.1173
O8 O 0.8525(4) 0.1966(15) 0.053(2)
O9 O 0.8610(4) 0.6365(12) 0.0791(8)
Zn9 Zn 0.80467(5) 0.69624(14) 0.04339(13)
C18 C 0.9656(6) 0.6819(15) 0.9624(16)
H13 H 0.9579 0.7385 0.9190
O7 O 0.8789(3) 0.7487(11) 0.9574(9)
C27 C 0.9855(5) 0.0208(13) 0.9455(13)
C29 C 0.9412(6) 0.0546(14) 0.9287(15)
C31 C 0.9214(7) 0.1233(15) 0.9899(17)
H19 H 0.9258 0.0271 0.8728
C32 C 0.8729(9) 0.153(2) 0.974(2)
O10 O 0.8581(4) 0.128(2) 0.8965(14)
Zn10 Zn 0.79566(5) 0.15422(17) 0.92689(13)
C9_2 C 0.0004(5) 0.5655(13) 0.6605(13)
H7_2 H 0.0213 0.5973 0.7031
C11_2 C 0.0125(5) 0.4833(12) 0.5924(13)
C17_2 C 0.0561(5) 0.4438(12) 0.5912(13)
C18_2 C 0.0344(6) 0.3181(15) 0.4624(16)
C21_2 C 0.0659(6) 0.3672(14) 0.5246(15)
H12_2 H 0.0773 0.4709 0.6359
H13_2 H 0.0421 0.2615 0.4190
C24_2 C 0.1115(6) 0.3206(14) 0.5166(14)
O7_2 O 0.1211(3) 0.2513(11) 0.4574(9)
C27_2 C 0.0145(5) 0.9792(13) 0.4455(13)
C28_2 C 0.0145(6) 0.8636(15) 0.5866(17)
C29_2 C 0.0588(6) 0.9454(14) 0.4287(15)
C30_2 C 0.0571(8) 0.8326(19) 0.5731(19)
C31_2 C 0.0786(7) 0.8767(15) 0.4899(17)
H19_2 H 0.0742 0.9729 0.3728
H20_2 H 0.0709 0.7843 0.6173
C32_2 C 0.1271(9) 0.847(2) 0.474(2)
O8_2 O 0.1475(4) 0.8034(15) 0.553(2)
Zn8_2 Zn 0.70299(5) 0.09958(15) 0.10042(13)
O4_2 O 0.8592(4) 0.0820(15) 0.4088(17)
O5_2 O 0.8639(4) 0.0200(15) 0.5644(11)
N10_2 N 0.7790(4) 0.1072(9) 0.6223(10)
C15_2 C 0.8814(6) 0.0414(15) 0.4860(17)
C16_2 C 0.7993(5) 0.1093(13) 0.7069(15)
N11_2 N 0.7833(4) 0.0135(10) 0.9968(11)
C19_2 C 0.9284(6) 0.0215(14) 0.4694(14)
C20_2 C 0.7387(5) 0.1596(12) 0.7413(12)
N12_2 N 0.7756(4) 0.1342(11) 0.7833(11)
H11_2 H 0.8292 0.0938 0.7126
C23_2 C 0.9514(7) 0.0684(18) 0.3881(18)
H14_2 H 0.7144 0.1851 0.7776
H16_2 H 0.9370 0.1173 0.3454
C26_2 C 0.9937(6) 0.0443(14) 0.3705(15)
Zn5_2 Zn 0.80157(6) 0.06346(17) 0.48712(15)
N13_2 N 0.7552(4) 0.1096(9) 0.3836(10)
N14_2 N 0.7388(4) 0.1458(10) 0.6430(11)
Zn6_2 Zn 0.69533(5) 0.19624(14) 0.54339(13)
N16_2 N 0.7526(4) 0.2616(10) 0.9751(10)
N8_2 N 0.7882(4) 0.8498(9) 0.0441(11)
N9_2 N 0.7612(4) 0.6458(10) 0.1430(11)
C14_2 C 0.7535(5) 0.8956(13) 0.0861(13)
H10_2 H 0.7339 0.8596 0.1291
N15_2 N 0.7498(4) 0.9941(10) 0.0614(10)
Zn1_2 Zn 0.79701(5) 0.59958(15) 0.60042(13)
O1_2 O 0.8535(3) 0.5334(9) 0.5663(7)
N1_2 N 0.7815(4) 0.6164(11) 0.7446(11)
N2_2 N 0.7838(4) 0.7340(9) 0.5323(10)
N3_2 N 0.7502(4) 0.4941(10) 0.5614(10)
C1_2 C 0.8812(4) 0.5954(11) 0.6101(12)
C2_2 C 0.8041(5) 0.6451(13) 0.8210(13)
C3_2 C 0.7438(6) 0.5905(14) 0.7866(14)
N4_2 N 0.7474(4) 0.7616(10) 0.4751(10)
C4_2 C 0.8056(5) 0.8274(12) 0.5385(16)
O2_2 O 0.8732(3) 0.6750(9) 0.6523(9)
C5_2 C 0.9269(5) 0.5552(12) 0.6021(14)
N5_2 N 0.7838(4) 0.6493(11) 0.9078(11)
H1_2 H 0.8339 0.6623 0.8151
N6_2 N 0.7448(4) 0.6096(9) 0.8836(10)
H2_2 H 0.7198 0.5622 0.7515
C6_2 C 0.7507(5) 0.8571(12) 0.4497(13)
Zn2_2 Zn 0.70434(5) 0.65422(17) 0.42689(13)
N7_2 N 0.7860(4) 0.9039(11) 0.4855(12)
H3_2 H 0.8315 0.8372 0.5757
C7_2 C 0.9582(6) 0.5976(15) 0.6631(15)
C8_2 C 0.9390(5) 0.4770(12) 0.5414(14)
Zn4_2 Zn 0.69843(6) 0.56346(17) 0.98712(15)
H4_2 H 0.7301 0.8925 0.4089
H5_2 H 0.9502 0.6516 0.7091
H6_2 H 0.9169 0.4462 0.5015
C10_2 C 0.9812(5) 0.4339(13) 0.5294(14)
C12_2 C 0.9930(7) 0.3539(15) 0.4665(16)
C13_2 C 0.8055(5) 0.9308(12) 0.9939(14)
H8_2 H 0.9719 0.3224 0.4245
H9_2 H 0.8323 0.9261 0.9593
C22_2 C 0.9487(5) 0.9603(13) 0.5378(15)
H15_2 H 0.9338 0.9376 0.5963
C25_2 C 0.9932(6) 0.9293(13) 0.5222(14)
H18_2 H 0.9995 0.8377 0.6436
O1_3 O 0.6465(3) 0.0334(9) 0.0663(7)
N1_3 N 0.7185(4) 0.1164(11) 0.2446(11)
N2_3 N 0.7162(4) 0.2340(9) 0.0323(10)
C1_3 C 0.6188(4) 0.0954(11) 0.1101(12)
C2_3 C 0.6959(5) 0.1451(13) 0.3210(13)
C3_3 C 0.7562(6) 0.0905(14) 0.2866(14)
C4_3 C 0.6944(5) 0.3274(12) 0.0385(16)
O2_3 O 0.6268(3) 0.1750(9) 0.1523(9)
C5_3 C 0.5731(5) 0.0552(12) 0.1021(14)
N5_3 N 0.7162(4) 0.1493(11) 0.4078(11)
H1_3 H 0.6661 0.1623 0.3151
H2_3 H 0.7802 0.0622 0.2515
H3_3 H 0.6685 0.3372 0.0757
C7_3 C 0.5418(6) 0.0976(15) 0.1631(15)
C9_3 C 0.4996(5) 0.0655(13) 0.1605(13)
H5_3 H 0.5498 0.1516 0.2091
N8_3 N 0.7118(4) 0.3498(9) 0.5441(11)
O3_2 O 0.6390(4) 0.1365(12) 0.5791(8)
O5_3 O 0.6361(4) 0.5200(15) 0.0644(11)
N10_3 N 0.7210(4) 0.6072(9) 0.1223(10)
H7_3 H 0.4787 0.0973 0.2031
C13_3 C 0.6945(5) 0.4308(12) 0.4939(14)
C14_3 C 0.7465(5) 0.3956(13) 0.5861(13)
C16_3 C 0.7007(5) 0.6093(13) 0.2069(15)
N11_3 N 0.7167(4) 0.5135(10) 0.4968(11)
H9_3 H 0.6677 0.4261 0.4593
H10_3 H 0.7661 0.3596 0.6291
C20_3 C 0.7613(5) 0.6596(12) 0.2413(12)
N12_3 N 0.7244(4) 0.6342(11) 0.2833(11)
H11_3 H 0.6708 0.5938 0.2126
C22_3 C 0.5513(5) 0.4603(13) 0.0378(15)
H14_3 H 0.7856 0.6851 0.2776
O6_2 O 0.6419(4) 0.628(2) 0.3965(14)
H15_3 H 0.5662 0.4376 0.0963
C25_3 C 0.5068(6) 0.4293(13) 0.0222(14)
C28_3 C 0.4855(6) 0.3636(15) 0.0866(17)
H18_3 H 0.5005 0.3377 0.1436
C30_3 C 0.4429(8) 0.3326(19) 0.0731(19)
H20_3 H 0.4291 0.2843 0.1173
O8_3 O 0.3525(4) 0.3034(15) 0.053(2)
C6_3 C 0.7493(5) 0.3571(12) 0.9497(13)
N7_3 N 0.7140(4) 0.4039(11) 0.9855(12)
H4_3 H 0.7699 0.3925 0.9089
O4_3 O 0.6408(4) 0.5820(15) 0.9088(17)
C15_3 C 0.6186(6) 0.5414(15) 0.9860(17)
C19_3 C 0.5716(6) 0.5215(14) 0.9694(14)
C23_3 C 0.5486(7) 0.5684(18) 0.8881(18)
H16_3 H 0.5630 0.6173 0.8454
C26_3 C 0.5063(6) 0.5443(14) 0.8705(15)
C27_3 C 0.4855(5) 0.4792(13) 0.9455(13)
H17 H 0.4915 0.5687 0.8126
C29_3 C 0.4412(6) 0.4454(14) 0.9287(15)
C31_3 C 0.4214(7) 0.3767(15) 0.9899(17)
H19_3 H 0.4258 0.4729 0.8728
C32_3 C 0.3729(9) 0.347(2) 0.974(2)
O10_2 O 0.3581(4) 0.372(2) 0.8965(14)
C8_3 C 0.5610(5) 0.9770(12) 0.0414(14)
H6_3 H 0.5831 0.9462 0.0015
C10_3 C 0.5188(5) 0.9339(13) 0.0294(14)
C11_3 C 0.4875(5) 0.9833(12) 0.0924(13)
C17_3 C 0.4439(5) 0.9438(12) 0.0912(13)
C21_3 C 0.4341(6) 0.8672(14) 0.0246(15)
H12_3 H 0.4227 0.9709 0.1359
C24_3 C 0.3885(6) 0.8206(14) 0.0166(14)
O9_2 O 0.3610(4) 0.8635(12) 0.0791(8)
C8_4 C 0.4390(5) 0.0230(12) 0.5414(14)
H6_4 H 0.4169 0.0538 0.5015
C10_4 C 0.4812(5) 0.0661(13) 0.5294(14)
C11_4 C 0.5125(5) 0.0167(12) 0.5924(13)
C12_3 C 0.4930(7) 0.1461(15) 0.4665(16)
C17_4 C 0.5561(5) 0.0562(12) 0.5912(13)
C18_3 C 0.5344(6) 0.1819(15) 0.4624(16)
H8_3 H 0.4719 0.1776 0.4245
C21_4 C 0.5659(6) 0.1328(14) 0.5246(15)
H12_4 H 0.5773 0.0291 0.6359
H13_3 H 0.5421 0.2385 0.4190
C24_4 C 0.6115(6) 0.1794(14) 0.5166(14)
O7_3 O 0.6211(3) 0.2487(11) 0.4574(9)
N8_4 N 0.2882(4) 0.6502(9) 0.0441(11)
C14_4 C 0.2535(5) 0.6044(13) 0.0861(13)
H10_4 H 0.2339 0.6404 0.1291
O1_4 O 0.3535(3) 0.9666(9) 0.5663(7)
N1_4 N 0.2815(4) 0.8836(11) 0.7446(11)
N2_4 N 0.2838(4) 0.7660(9) 0.5323(10)
C1_4 C 0.3812(4) 0.9046(11) 0.6101(12)
C2_4 C 0.3041(5) 0.8549(13) 0.8210(13)
C3_4 C 0.2438(6) 0.9095(14) 0.7866(14)
C4_4 C 0.3056(5) 0.6726(12) 0.5385(16)
O2_4 O 0.3732(3) 0.8250(9) 0.6523(9)
C5_4 C 0.4269(5) 0.9448(12) 0.6021(14)
N5_4 N 0.2838(4) 0.8507(11) 0.9078(11)
H1_4 H 0.3339 0.8377 0.8151
H2_4 H 0.2198 0.9378 0.7515
C6_4 C 0.2507(5) 0.6429(12) 0.4497(13)
N7_4 N 0.2860(4) 0.5961(11) 0.4855(12)
H3_4 H 0.3315 0.6628 0.5757
C7_4 C 0.4582(6) 0.9024(15) 0.6631(15)
H4_4 H 0.2301 0.6075 0.4089
C9_4 C 0.5004(5) 0.9345(13) 0.6605(13)
H5_4 H 0.4502 0.8484 0.7091
O4_4 O 0.3592(4) 0.4180(15) 0.4088(17)
O5_4 O 0.3639(4) 0.4800(15) 0.5644(11)
N10_4 N 0.2790(4) 0.3928(9) 0.6223(10)
H7_4 H 0.5213 0.9027 0.7031
C13_4 C 0.3055(5) 0.5692(12) 0.9939(14)
C15_4 C 0.3814(6) 0.4586(15) 0.4860(17)
C16_4 C 0.2993(5) 0.3907(13) 0.7069(15)
N11_4 N 0.2833(4) 0.4865(10) 0.9968(11)
H9_4 H 0.3323 0.5739 0.9593
C19_4 C 0.4284(6) 0.4785(14) 0.4694(14)
C20_4 C 0.2387(5) 0.3404(12) 0.7413(12)
N12_4 N 0.2756(4) 0.3658(11) 0.7833(11)
H11_4 H 0.3292 0.4062 0.7126
C22_4 C 0.4487(5) 0.5397(13) 0.5378(15)
C23_4 C 0.4514(7) 0.4316(18) 0.3881(18)
H14_4 H 0.2144 0.3149 0.7776
H15_4 H 0.4338 0.5624 0.5963
C25_4 C 0.4932(6) 0.5707(13) 0.5222(14)
H16_4 H 0.4370 0.3827 0.3454
C26_4 C 0.4937(6) 0.4557(14) 0.3705(15)
C27_4 C 0.5145(5) 0.5208(13) 0.4455(13)
C28_4 C 0.5145(6) 0.6364(15) 0.5866(17)
H17_2 H 0.5085 0.4313 0.3126
C29_4 C 0.5588(6) 0.5546(14) 0.4287(15)
H18_4 H 0.4995 0.6623 0.6436
C30_4 C 0.5571(8) 0.6674(19) 0.5731(19)
C31_4 C 0.5786(7) 0.6233(15) 0.4899(17)
H19_4 H 0.5742 0.5271 0.3728
H20_4 H 0.5709 0.7157 0.6173
C32_4 C 0.6271(9) 0.653(2) 0.474(2)
O8_4 O 0.6475(4) 0.6966(15) 0.553(2)
H17_3 H 0.9915 0.9313 0.8126
H17_4 H 0.0085 0.0687 0.3126
C12_4 C 0.5070(7) 0.8539(15) 0.9665(16)
C18_4 C 0.4656(6) 0.8181(15) 0.9624(16)
H8_4 H 0.5281 0.8224 0.9245
H13_4 H 0.4579 0.7615 0.9190
O7_4 O 0.3789(3) 0.7513(11) 0.9574(9)
loop_
_geom_bond_atom_site_label_1
_geom_bond_atom_site_label_2
_geom_bond_site_symmetry_1
_geom_bond_site_symmetry_2
Zn1 O1 1_555 1_555
O1 C1 1_555 1_555
N1 Zn1 1_555 1_555
N2 Zn1 1_555 1_555
N3 Zn1 1_555 1_555
C1 O2 1_555 1_555
C2 N1 1_555 1_555
C3 N1 1_555 1_555
C4 N2 1_555 1_555
C5 C1 1_555 1_555
N5 C2 1_555 1_555
H1 C2 1_555 1_555
N6 C3 1_555 1_555
H2 C3 1_555 1_555
H3 C4 1_555 1_555
C7 C5 1_555 1_555
C8 C5 1_555 1_555
Zn3 N5 1_555 1_555
Zn4 N6 1_555 1_555
H5 C7 1_555 1_555
H6 C8 1_555 1_555
C10 C8 1_555 1_555
N8 Zn3 1_555 1_555
O3 Zn3 1_555 1_555
N9 Zn3 1_555 1_555
C13 N8 1_555 1_555
C14 N8 1_555 1_555
H9 C13 1_555 1_555
H10 C14 1_555 1_555
C22 H15 1_555 1_555
C25 C22 1_555 1_555
N15 C14 1_555 1_555
N5 N6 1_555 1_555
C6 N4 1_555 1_555
Zn2 N4 1_555 1_555
H4 C6 1_555 1_555
H8 C12 1_555 1_555
C6 N7 1_555 1_555
N10 C16 1_555 1_555
C16 N12 1_555 1_555
C20 N12 1_555 1_555
N12 Zn7 1_555 1_555
H11 C16 1_555 1_555
H14 C20 1_555 1_555
O6 Zn7 1_555 1_555
N14 N10 1_555 1_555
Zn6 N14 1_555 1_555
Zn7 N11 1_555 1_555
N16 Zn7 1_555 1_555
C20 N14 1_555 1_555
O4 C15 1_555 1_555
C15 C19 1_555 1_555
C23 C19 1_555 1_555
H16 C23 1_555 1_555
C26 C23 1_555 1_555
N13 Zn5 1_555 1_555
O4 Zn5 1_555 1_555
H7 C9 1_555 1_555
C11 C9 1_555 1_555
C17 C11 1_555 1_555
C21 C17 1_555 1_555
H12 C17 1_555 1_555
C24 C21 1_555 1_555
C30 C28 1_555 1_555
H20 C30 1_555 1_555
O9 C24 1_555 1_555
Zn9 O9 1_555 1_555
H13 C18 1_555 1_555
C29 C27 1_555 1_555
C31 C29 1_555 1_555
H19 C29 1_555 1_555
C32 C31 1_555 1_555
O10 C32 1_555 1_555
Zn10 O10 1_555 1_555
H7_2 C9_2 1_555 1_555
C11_2 C9_2 1_555 1_555
C17_2 C11_2 1_555 1_555
C21_2 C17_2 1_555 1_555
H12_2 C17_2 1_555 1_555
H13_2 C18_2 1_555 1_555
C24_2 C21_2 1_555 1_555
O7_2 C24_2 1_555 1_555
C29_2 C27_2 1_555 1_555
C30_2 C28_2 1_555 1_555
C31_2 C29_2 1_555 1_555
H19_2 C29_2 1_555 1_555
H20_2 C30_2 1_555 1_555
C32_2 C31_2 1_555 1_555
O8_2 C32_2 1_555 1_555
O3 C24_2 1_555 1_555
O6 C32_2 1_555 1_555
C18_2 C21_2 1_555 1_555
C30_2 C31_2 1_555 1_555
O4_2 C15_2 1_555 1_555
O5_2 C15_2 1_555 1_555
N10_2 C16_2 1_555 1_555
C15_2 C19_2 1_555 1_555
C16_2 N12_2 1_555 1_555
C20_2 N12_2 1_555 1_555
N12_2 Zn10 1_555 1_555
H11_2 C16_2 1_555 1_555
C23_2 C19_2 1_555 1_555
H14_2 C20_2 1_555 1_555
H16_2 C23_2 1_555 1_555
C26_2 C23_2 1_555 1_555
N13_2 Zn5_2 1_555 1_555
N14_2 N10_2 1_555 1_555
Zn6_2 N14_2 1_555 1_555
Zn10 N11_2 1_555 1_555
N16_2 Zn10 1_555 1_555
O4_2 Zn5_2 1_555 1_555
O5_2 Zn5_2 1_555 1_555
N10_2 Zn5_2 1_555 1_555
C20_2 N14_2 1_555 1_555
N8_2 Zn9 1_555 1_555
N9_2 Zn9 1_555 1_555
C14_2 N8_2 1_555 1_555
H10_2 C14_2 1_555 1_555
N15_2 C14_2 1_555 1_555
Zn1_2 O1_2 1_555 1_555
O1_2 C1_2 1_555 1_555
N1_2 Zn1_2 1_555 1_555
N2_2 Zn1_2 1_555 1_555
N3_2 Zn1_2 1_555 1_555
C1_2 O2_2 1_555 1_555
C2_2 N1_2 1_555 1_555
C3_2 N1_2 1_555 1_555
N4_2 N2_2 1_555 1_555
C4_2 N2_2 1_555 1_555
C5_2 C1_2 1_555 1_555
N5_2 C2_2 1_555 1_555
H1_2 C2_2 1_555 1_555
N6_2 C3_2 1_555 1_555
H2_2 C3_2 1_555 1_555
C6_2 N4_2 1_555 1_555
Zn2_2 N4_2 1_555 1_555
N7_2 C4_2 1_555 1_555
H3_2 C4_2 1_555 1_555
C7_2 C5_2 1_555 1_555
C8_2 C5_2 1_555 1_555
Zn4_2 N6_2 1_555 1_555
H4_2 C6_2 1_555 1_555
H5_2 C7_2 1_555 1_555
H6_2 C8_2 1_555 1_555
C10_2 C8_2 1_555 1_555
C12_2 C10_2 1_555 1_555
H8_2 C12_2 1_555 1_555
H9_2 C13_2 1_555 1_555
C22_2 H15_2 1_555 1_555
C25_2 C22_2 1_555 1_555
N5_2 N6_2 1_555 1_555
C6_2 N7_2 1_555 1_555
Zn8_2 O1_3 1_555 1_555
O1_3 C1_3 1_555 1_555
N1_3 Zn8_2 1_555 1_555
N2_3 Zn8_2 1_555 1_555
C1_3 O2_3 1_555 1_555
C2_3 N1_3 1_555 1_555
C3_3 N1_3 1_555 1_555
C4_3 N2_3 1_555 1_555
C5_3 C1_3 1_555 1_555
N5_3 C2_3 1_555 1_555
H1_3 C2_3 1_555 1_555
N13_2 C3_3 1_555 1_555
H2_3 C3_3 1_555 1_555
H3_3 C4_3 1_555 1_555
C7_3 C5_3 1_555 1_555
Zn6_2 N5_3 1_555 1_555
C9_3 C7_3 1_555 1_555
H5_3 C7_3 1_555 1_555
N8_3 Zn6_2 1_555 1_555
O3_2 Zn6_2 1_555 1_555
N10_3 C16_3 1_555 1_555
H7_3 C9_3 1_555 1_555
C13_3 N8_3 1_555 1_555
C14_3 N8_3 1_555 1_555
C16_3 N12_3 1_555 1_555
N11_3 C13_3 1_555 1_555
H9_3 C13_3 1_555 1_555
H10_3 C14_3 1_555 1_555
C20_3 N12_3 1_555 1_555
N12_3 Zn2_2 1_555 1_555
H11_3 C16_3 1_555 1_555
C22_3 H15_3 1_555 1_555
H14_3 C20_3 1_555 1_555
O6_2 Zn2_2 1_555 1_555
C25_3 C22_3 1_555 1_555
C28_3 C25_3 1_555 1_555
H18_3 C28_3 1_555 1_555
C30_3 C28_3 1_555 1_555
H20_3 C30_3 1_555 1_555
N9_2 N10_3 1_555 1_555
N3_2 C14_3 1_555 1_555
Zn2_2 N11_3 1_555 1_555
N5_3 N13_2 1_555 1_555
N11_3 N3_2 1_555 1_555
C20_3 N9_2 1_555 1_555
C6_3 N16_2 1_555 1_555
H4_3 C6_3 1_555 1_555
O4_3 C15_3 1_555 1_555
C15_3 C19_3 1_555 1_555
C23_3 C19_3 1_555 1_555
H16_3 C23_3 1_555 1_555
C26_3 C23_3 1_555 1_555
H17 C26_3 1_555 1_555
C29_3 C27_3 1_555 1_555
C31_3 C29_3 1_555 1_555
H19_3 C29_3 1_555 1_555
C32_3 C31_3 1_555 1_555
Zn4_2 N7_3 1_555 1_555
O10_2 C32_3 1_555 1_555
Zn2 O10_2 1_555 1_555
C6_3 N7_3 1_555 1_555
O4_3 Zn4_2 1_555 1_555
C26_3 C27_3 1_555 1_555
H6_3 C8_3 1_555 1_555
C10_3 C8_3 1_555 1_555
C17_3 C11_3 1_555 1_555
C21_3 C17_3 1_555 1_555
H12_3 C17_3 1_555 1_555
C24_3 C21_3 1_555 1_555
O9_2 C24_3 1_555 1_555
Zn6 O9_2 1_555 1_555
C10_3 C11_3 1_555 1_555
H6_4 C8_4 1_555 1_555
C10_4 C8_4 1_555 1_555
C12_3 C10_4 1_555 1_555
C17_4 C11_4 1_555 1_555
C18_3 C12_3 1_555 1_555
H8_3 C12_3 1_555 1_555
C21_4 C17_4 1_555 1_555
H12_4 C17_4 1_555 1_555
H13_3 C18_3 1_555 1_555
C24_4 C21_4 1_555 1_555
O7_3 C24_4 1_555 1_555
O3_2 C24_4 1_555 1_555
C10_4 C11_4 1_555 1_555
C18_3 C21_4 1_555 1_555
N8_4 Zn6 1_555 1_555
C14_4 N8_4 1_555 1_555
H10_4 C14_4 1_555 1_555
N3 C14_4 1_555 1_555
Zn8 O1_4 1_555 1_555
O1_4 C1_4 1_555 1_555
N1_4 Zn8 1_555 1_555
N2_4 Zn8 1_555 1_555
C1_4 O2_4 1_555 1_555
C2_4 N1_4 1_555 1_555
C3_4 N1_4 1_555 1_555
N16 N2_4 1_555 1_555
C4_4 N2_4 1_555 1_555
C5_4 C1_4 1_555 1_555
N5_4 C2_4 1_555 1_555
H1_4 C2_4 1_555 1_555
N13 C3_4 1_555 1_555
H2_4 C3_4 1_555 1_555
C6_4 N16 1_555 1_555
N7_4 C4_4 1_555 1_555
H3_4 C4_4 1_555 1_555
C7_4 C5_4 1_555 1_555
H4_4 C6_4 1_555 1_555
C9_4 C7_4 1_555 1_555
H5_4 C7_4 1_555 1_555
O4_4 C15_4 1_555 1_555
O5_4 C15_4 1_555 1_555
N10_4 C16_4 1_555 1_555
H7_4 C9_4 1_555 1_555
C15_4 C19_4 1_555 1_555
C16_4 N12_4 1_555 1_555
N11_4 C13_4 1_555 1_555
H9_4 C13_4 1_555 1_555
C19_4 C22_4 1_555 1_555
C20_4 N12_4 1_555 1_555
N12_4 Zn2 1_555 1_555
H11_4 C16_4 1_555 1_555
C22_4 H15_4 1_555 1_555
C23_4 C19_4 1_555 1_555
H14_4 C20_4 1_555 1_555
C25_4 C22_4 1_555 1_555
H16_4 C23_4 1_555 1_555
C26_4 C23_4 1_555 1_555
C27_4 C25_4 1_555 1_555
C28_4 C25_4 1_555 1_555
H17_2 C26_4 1_555 1_555
C29_4 C27_4 1_555 1_555
H18_4 C28_4 1_555 1_555
C30_4 C28_4 1_555 1_555
C31_4 C29_4 1_555 1_555
H19_4 C29_4 1_555 1_555
H20_4 C30_4 1_555 1_555
C32_4 C31_4 1_555 1_555
O8_4 C32_4 1_555 1_555
Zn4 N7_4 1_555 1_555
N9 N10_4 1_555 1_555
Zn2 N11_4 1_555 1_555
O6_2 C32_4 1_555 1_555
N5_4 N13 1_555 1_555
C6_4 N7_4 1_555 1_555
O4_4 Zn4 1_555 1_555
O5_4 Zn4 1_555 1_555
N10_4 Zn4 1_555 1_555
C20_4 N9 1_555 1_555
C26_4 C27_4 1_555 1_555
C30_4 C31_4 1_555 1_555
C18_4 C12_4 1_555 1_555
H8_4 C12_4 1_555 1_555
H13_4 C18_4 1_555 1_555

#END
