
###############################################################################
#
# This file contains modified crystal structure data generated from the
# MOF subset of the Cambridge Structural Database (CSD) v543 
# hosted by the Cambridge Crystallographic Data Centre (CCDC).
#
# This work is licensed under the Creative Commons
# Attribution-NonCommercial-ShareAlike 4.0 International License.
# To view a copy of this license, visit
# http://creativecommons.org/licenses/by-nc-sa/4.0/
# or send a letter to
# Creative Commons, PO Box 1866, Mountain View, CA 94042, USA.
#
# CIF created using the CSD Python API on 29 September 2022
# The structure has been converted into the P1 space group
# The structure has a 3D framework
# The original CSD entry KUNTAQ02 is in the orthorhombic crystal system
# The framework has been calculated to contain at least 10.0% void space
# The void calculation uses a probe of radius 1.32A, grid spacing 0.4
# H atom positions have been added when not included in the experimental data
#
###############################################################################

data_KUNTAQ02
_chemical_formula_moiety         '(C40 H16 Al3 F2 O16)n'
_symmetry_cell_setting           triclinic
_symmetry_space_group_name_H-M   'P 1'
_symmetry_Int_Tables_number      1
_space_group_name_Hall           'P 1'
loop_
_symmetry_equiv_pos_site_id
_symmetry_equiv_pos_as_xyz
1 x,y,z
_cell_length_a                   6.56509(13)
_cell_length_b                   16.3991(4)
_cell_length_c                   13.1951(5)
_cell_angle_alpha                90
_cell_angle_beta                 90
_cell_angle_gamma                90
_cell_volume                     1420.61
loop_
_atom_site_label
_atom_site_type_symbol
_atom_site_fract_x
_atom_site_fract_y
_atom_site_fract_z
_atom_site_U_iso_or_equiv
_atom_site_thermal_displace_type
Al1 Al 0.250 0.250 0.750 0.0318 Uiso
F1 F 0.000 0.250 0.6911(4) 0.0145 Uiso
O1 O 0.1711(4) 0.16713(17) 0.84207(24) 0.0145 Uiso
C2 C 0.000 0.0619(4) 0.9422(6) 0.0268 Uiso
C3 C 0.000 0.1379(5) 0.8706(6) 0.0268 Uiso
C4 C 0.1945(5) 0.0320(4) 0.9645(5) 0.0268 Uiso
F2 F 0.500 0.250 0.8089(4) 0.0145 Uiso
O5 O 0.1711(4) 0.33287(17) 0.84207(24) 0.0145 Uiso
O6 O 0.3289(4) 0.33287(17) 0.65793(24) 0.0145 Uiso
O7 O 0.3289(4) 0.16713(17) 0.65793(24) 0.0145 Uiso
H2 H 0.332872 0.0560091 0.930131 . .
C5 C 0.1945(5) 0.9680(4) 0.0355(5) 0.0268 Uiso
C6 C 0.000 0.9381(4) 0.0578(6) 0.0268 Uiso
C7 C -0.000 0.8621(5) 0.1294(6) 0.0268 Uiso
O4 O 0.1711(4) 0.83287(17) 0.15793(24) 0.0145 Uiso
Al4 Al 0.250 0.750 0.250 0.0318 Uiso
H4 H 0.332872 0.943991 0.0698685 . .
F1_2 F 1.000 0.250 0.6911(4) 0.0145 Uiso
C1 C 0.8055(5) 0.0320(4) 0.9645(5) 0.0268 Uiso
C2_2 C 1.000 0.0619(4) 0.9422(6) 0.0268 Uiso
C3_2 C 1.000 0.1379(5) 0.8706(6) 0.0268 Uiso
O2 O 0.8289(4) 0.16713(17) 0.84207(24) 0.0145 Uiso
Al2 Al 0.750 0.250 0.750 0.0318 Uiso
H1 H 0.667128 0.0560091 0.930131 . .
O3 O 0.8289(4) 0.83287(17) 0.15793(24) 0.0145 Uiso
C6_2 C 1.000 0.9381(4) 0.0578(6) 0.0268 Uiso
C7_2 C 1.000 0.8621(5) 0.1294(6) 0.0268 Uiso
C8 C 0.8055(5) 0.9680(4) 0.0355(5) 0.0268 Uiso
Al3 Al 0.750 0.750 0.250 0.0318 Uiso
H3 H 0.667128 0.943991 0.0698685 . .
O3_2 O 0.1711(4) 0.66713(17) 0.15793(24) 0.0145 Uiso
C6_3 C -0.000 0.5619(4) 0.0578(6) 0.0268 Uiso
C7_3 C 0.000 0.6379(5) 0.1294(6) 0.0268 Uiso
C8_2 C 0.1945(5) 0.5320(4) 0.0355(5) 0.0268 Uiso
H3_2 H 0.332872 0.556009 0.0698685 . .
C1_2 C 0.1945(5) 0.4680(4) 0.9645(5) 0.0268 Uiso
C2_3 C -0.000 0.4381(4) 0.9422(6) 0.0268 Uiso
C3_3 C 0.000 0.3621(5) 0.8706(6) 0.0268 Uiso
H1_2 H 0.332872 0.443991 0.930131 . .
C5_2 C 0.8055(5) 0.5320(4) 0.0355(5) 0.0268 Uiso
C6_4 C 1.000 0.5619(4) 0.0578(6) 0.0268 Uiso
C7_4 C 1.000 0.6379(5) 0.1294(6) 0.0268 Uiso
O4_2 O 0.8289(4) 0.66713(17) 0.15793(24) 0.0145 Uiso
H4_2 H 0.667128 0.556009 0.0698685 . .
O1_2 O 0.8289(4) 0.33287(17) 0.84207(24) 0.0145 Uiso
C2_4 C 1.000 0.4381(4) 0.9422(6) 0.0268 Uiso
C3_4 C 1.000 0.3621(5) 0.8706(6) 0.0268 Uiso
C4_2 C 0.8055(5) 0.4680(4) 0.9645(5) 0.0268 Uiso
O6_2 O 0.6711(4) 0.16713(17) 0.65793(24) 0.0145 Uiso
O7_2 O 0.6711(4) 0.33287(17) 0.65793(24) 0.0145 Uiso
H2_2 H 0.667128 0.443991 0.930131 . .
F1_3 F 0.000 0.750 0.3089(4) 0.0145 Uiso
F2_2 F 0.500 0.750 0.1911(4) 0.0145 Uiso
O6_3 O 0.3289(4) 0.66713(17) 0.34207(24) 0.0145 Uiso
O7_3 O 0.3289(4) 0.83287(17) 0.34207(24) 0.0145 Uiso
F1_4 F 1.000 0.750 0.3089(4) 0.0145 Uiso
O6_4 O 0.6711(4) 0.83287(17) 0.34207(24) 0.0145 Uiso
O7_4 O 0.6711(4) 0.66713(17) 0.34207(24) 0.0145 Uiso
C1_3 C 0.3055(5) 0.5320(4) 0.4645(5) 0.0268 Uiso
C2_5 C 0.500 0.5619(4) 0.4422(6) 0.0268 Uiso
C3_5 C 0.500 0.6379(5) 0.3706(6) 0.0268 Uiso
C4_3 C 0.6945(5) 0.5320(4) 0.4645(5) 0.0268 Uiso
C5_3 C 0.6945(5) 0.4680(4) 0.5355(5) 0.0268 Uiso
C6_5 C 0.500 0.4381(4) 0.5578(6) 0.0268 Uiso
C7_5 C 0.500 0.3621(5) 0.6294(6) 0.0268 Uiso
C8_3 C 0.3055(5) 0.4680(4) 0.5355(5) 0.0268 Uiso
H1_3 H 0.167128 0.556009 0.430131 . .
H2_3 H 0.832872 0.556009 0.430131 . .
H3_3 H 0.167128 0.443991 0.569869 . .
H4_3 H 0.832872 0.443991 0.569869 . .
C5_4 C 0.3055(5) 0.0320(4) 0.5355(5) 0.0268 Uiso
C6_6 C 0.500 0.0619(4) 0.5578(6) 0.0268 Uiso
C7_6 C 0.500 0.1379(5) 0.6294(6) 0.0268 Uiso
C8_4 C 0.6945(5) 0.0320(4) 0.5355(5) 0.0268 Uiso
H3_4 H 0.832872 0.0560091 0.569869 . .
H4_4 H 0.167128 0.0560091 0.569869 . .
C1_4 C 0.6945(5) 0.9680(4) 0.4645(5) 0.0268 Uiso
C2_6 C 0.500 0.9381(4) 0.4422(6) 0.0268 Uiso
C3_6 C 0.500 0.8621(5) 0.3706(6) 0.0268 Uiso
C4_4 C 0.3055(5) 0.9680(4) 0.4645(5) 0.0268 Uiso
H1_4 H 0.832872 0.943991 0.430131 . .
H2_4 H 0.167128 0.943991 0.430131 . .
loop_
_geom_bond_atom_site_label_1
_geom_bond_atom_site_label_2
_geom_bond_site_symmetry_1
_geom_bond_site_symmetry_2
Al1 F1 1_555 1_555
O1 Al1 1_555 1_555
C2 C3 1_555 1_555
C3 O1 1_555 1_555
C4 C2 1_555 1_555
F2 Al1 1_555 1_555
O5 Al1 1_555 1_555
O6 Al1 1_555 1_555
O7 Al1 1_555 1_555
C4 H2 1_555 1_555
C6 C5 1_555 1_555
C7 C6 1_555 1_555
O4 C7 1_555 1_555
Al4 O4 1_555 1_555
C5 H4 1_555 1_555
F1_2 Al2 1_555 1_555
C1 C2_2 1_555 1_555
C2_2 C3_2 1_555 1_555
O2 C3_2 1_555 1_555
Al2 O2 1_555 1_555
C1 H1 1_555 1_555
O3 C7_2 1_555 1_555
C7_2 C6_2 1_555 1_555
Al3 O3 1_555 1_555
C6_2 C8 1_555 1_555
C8 H3 1_555 1_555
O3_2 C7_3 1_555 1_555
C7_3 C6_3 1_555 1_555
Al4 O3_2 1_555 1_555
C6_3 C8_2 1_555 1_555
C8_2 H3_2 1_555 1_555
C1_2 C2_3 1_555 1_555
C2_3 C3_3 1_555 1_555
O5 C3_3 1_555 1_555
C1_2 H1_2 1_555 1_555
C6_4 C5_2 1_555 1_555
C7_4 C6_4 1_555 1_555
O4_2 C7_4 1_555 1_555
Al3 O4_2 1_555 1_555
C5_2 H4_2 1_555 1_555
O1_2 Al2 1_555 1_555
C2_4 C3_4 1_555 1_555
C3_4 O1_2 1_555 1_555
C4_2 C2_4 1_555 1_555
F2 Al2 1_555 1_555
O6_2 Al2 1_555 1_555
O7_2 Al2 1_555 1_555
C4_2 H2_2 1_555 1_555
Al4 F1_3 1_555 1_555
F2_2 Al4 1_555 1_555
O6_3 Al4 1_555 1_555
O7_3 Al4 1_555 1_555
F1_4 Al3 1_555 1_555
F2_2 Al3 1_555 1_555
O6_4 Al3 1_555 1_555
O7_4 Al3 1_555 1_555
C1_3 C2_5 1_555 1_555
C2_5 C3_5 1_555 1_555
C3_5 O7_4 1_555 1_555
O6_3 C3_5 1_555 1_555
C4_3 C2_5 1_555 1_555
O6 C7_5 1_555 1_555
C5_3 C4_3 1_555 1_555
C6_5 C5_3 1_555 1_555
C7_5 C6_5 1_555 1_555
O7_2 C7_5 1_555 1_555
C8_3 C1_3 1_555 1_555
C6_5 C8_3 1_555 1_555
C1_3 H1_3 1_555 1_555
C4_3 H2_3 1_555 1_555
C8_3 H3_3 1_555 1_555
C5_3 H4_3 1_555 1_555
O6_2 C7_6 1_555 1_555
C6_6 C5_4 1_555 1_555
C7_6 C6_6 1_555 1_555
O7 C7_6 1_555 1_555
C6_6 C8_4 1_555 1_555
C8_4 H3_4 1_555 1_555
C5_4 H4_4 1_555 1_555
C1_4 C2_6 1_555 1_555
C2_6 C3_6 1_555 1_555
C3_6 O7_3 1_555 1_555
O6_4 C3_6 1_555 1_555
C4_4 C2_6 1_555 1_555
C1_4 H1_4 1_555 1_555
C4_4 H2_4 1_555 1_555

#END
