
###############################################################################
#
# This file contains modified crystal structure data generated from the
# MOF subset of the Cambridge Structural Database (CSD) v543 
# hosted by the Cambridge Crystallographic Data Centre (CCDC).
#
# This work is licensed under the Creative Commons
# Attribution-NonCommercial-ShareAlike 4.0 International License.
# To view a copy of this license, visit
# http://creativecommons.org/licenses/by-nc-sa/4.0/
# or send a letter to
# Creative Commons, PO Box 1866, Mountain View, CA 94042, USA.
#
# CIF created using the CSD Python API on 29 September 2022
# The structure has been converted into the P1 space group
# The structure has a 3D framework
# The original CSD entry KUNTAQ is in the monoclinic crystal system
# The framework has been calculated to contain at least 10.0% void space
# The void calculation uses a probe of radius 1.32A, grid spacing 0.4
# H atom positions have been added when not included in the experimental data
#
###############################################################################

data_KUNTAQ
_chemical_formula_moiety         '(C32 H16 Al4 F2 O14)n'
_symmetry_cell_setting           triclinic
_symmetry_space_group_name_H-M   'P 1'
_symmetry_Int_Tables_number      1
_space_group_name_Hall           'P 1'
loop_
_symmetry_equiv_pos_site_id
_symmetry_equiv_pos_as_xyz
1 x,y,z
_cell_length_a                   6.55591(13)
_cell_length_b                   16.4362(4)
_cell_length_c                   13.1423(4)
_cell_angle_alpha                90
_cell_angle_beta                 90
_cell_angle_gamma                90.4875(15)
_cell_volume                     1416.09
loop_
_atom_site_label
_atom_site_type_symbol
_atom_site_fract_x
_atom_site_fract_y
_atom_site_fract_z
_atom_site_U_iso_or_equiv
_atom_site_thermal_displace_type
Al1 Al 0.250 0.250 0.750 0.0352 Uiso
F1 F -0.000 0.250 0.6917(4) 0.0144 Uiso
O1 O 0.1631(6) 0.17316(26) 0.8535(4) 0.0144 Uiso
C4 C 0.1925(14) 0.0384(6) 0.9720(8) 0.0231 Uiso
F2 F 0.500 0.250 0.8083(4) 0.0144 Uiso
O5 O 0.3369(6) 0.32684(26) 0.6465(4) 0.0144 Uiso
O6 O 0.1801(7) 0.33939(26) 0.8330(5) 0.0144 Uiso
O7 O 0.3199(7) 0.16061(26) 0.6670(5) 0.0144 Uiso
H1 H 0.32994 0.0642145 0.937927 . .
C5 C 0.0020(18) 0.9359(4) 0.0556(6) 0.0231 Uiso
C6 C 0.0028(13) 0.8629(5) 0.1340(6) 0.0231 Uiso
O4 O 0.1801(7) 0.83939(26) 0.1670(5) 0.0144 Uiso
C7 C 0.2003(13) 0.9768(6) 0.0469(7) 0.0231 Uiso
Al4 Al 0.250 0.750 0.250 0.0352 Uiso
H3 H 0.334642 0.961918 0.0917048 . .
F1_2 F 1.000 0.250 0.6917(4) 0.0144 Uiso
O2 O 0.8199(7) 0.16061(26) 0.8330(5) 0.0144 Uiso
C1 C 0.7997(13) 0.0232(6) 0.9531(7) 0.0231 Uiso
C2 C 0.9980(18) 0.0641(4) 0.9444(6) 0.0231 Uiso
C3 C 0.9972(13) 0.1371(5) 0.8660(6) 0.0231 Uiso
Al2 Al 0.750 0.250 0.750 0.0352 Uiso
H2 H 0.665358 0.0380821 0.908295 . .
O3 O 0.8369(6) 0.82684(26) 0.1465(4) 0.0144 Uiso
C8 C 0.8075(14) 0.9616(6) 0.0280(8) 0.0231 Uiso
Al3 Al 0.750 0.750 0.250 0.0352 Uiso
H4 H 0.67006 0.935785 0.0620727 . .
O3_2 O 0.1631(6) 0.67316(26) 0.1465(4) 0.0144 Uiso
C8_2 C 0.1925(14) 0.5384(6) 0.0280(8) 0.0231 Uiso
H4_2 H 0.32994 0.564215 0.0620727 . .
C1_2 C 0.2003(13) 0.4768(6) 0.9531(7) 0.0231 Uiso
C2_2 C 0.0020(18) 0.4359(4) 0.9444(6) 0.0231 Uiso
C3_2 C 0.0028(13) 0.3629(5) 0.8660(6) 0.0231 Uiso
H2_2 H 0.334642 0.461918 0.908295 . .
C5_2 C 0.9980(18) 0.5641(4) 0.0556(6) 0.0231 Uiso
C6_2 C 0.9972(13) 0.6371(5) 0.1340(6) 0.0231 Uiso
O4_2 O 0.8199(7) 0.66061(26) 0.1670(5) 0.0144 Uiso
C7_2 C 0.7997(13) 0.5232(6) 0.0469(7) 0.0231 Uiso
H3_2 H 0.665358 0.538082 0.0917048 . .
O1_2 O 0.8369(6) 0.32684(26) 0.8535(4) 0.0144 Uiso
C4_2 C 0.8075(14) 0.4616(6) 0.9720(8) 0.0231 Uiso
O5_2 O 0.6631(6) 0.17316(26) 0.6465(4) 0.0144 Uiso
O7_2 O 0.6801(7) 0.33939(26) 0.6670(5) 0.0144 Uiso
H1_2 H 0.67006 0.435785 0.937927 . .
F2_2 F -0.000 0.750 0.3083(4) 0.0144 Uiso
F1_3 F 0.500 0.750 0.1917(4) 0.0144 Uiso
O1_3 O 0.6631(6) 0.67316(26) 0.3535(4) 0.0144 Uiso
O2_2 O 0.3199(7) 0.66061(26) 0.3330(5) 0.0144 Uiso
C1_3 C 0.2997(13) 0.5232(6) 0.4531(7) 0.0231 Uiso
C2_3 C 0.4980(18) 0.5641(4) 0.4444(6) 0.0231 Uiso
C3_3 C 0.4972(13) 0.6371(5) 0.3660(6) 0.0231 Uiso
C4_3 C 0.6925(14) 0.5384(6) 0.4720(8) 0.0231 Uiso
C5_3 C 0.5020(18) 0.4359(4) 0.5556(6) 0.0231 Uiso
C6_3 C 0.5028(13) 0.3629(5) 0.6340(6) 0.0231 Uiso
C7_3 C 0.7003(13) 0.4768(6) 0.5469(7) 0.0231 Uiso
C8_3 C 0.3075(14) 0.4616(6) 0.5280(8) 0.0231 Uiso
F2_3 F 1.000 0.750 0.3083(4) 0.0144 Uiso
O6_2 O 0.6801(7) 0.83939(26) 0.3330(5) 0.0144 Uiso
H1_3 H 0.82994 0.564215 0.437927 . .
H2_3 H 0.165358 0.538082 0.408295 . .
H3_3 H 0.834642 0.461918 0.591705 . .
H4_3 H 0.17006 0.435785 0.562073 . .
C5_4 C 0.4980(18) 0.0641(4) 0.5556(6) 0.0231 Uiso
C6_4 C 0.4972(13) 0.1371(5) 0.6340(6) 0.0231 Uiso
C7_4 C 0.2997(13) 0.0232(6) 0.5469(7) 0.0231 Uiso
C8_4 C 0.6925(14) 0.0384(6) 0.5280(8) 0.0231 Uiso
H3_4 H 0.165358 0.0380821 0.591705 . .
H4_4 H 0.82994 0.0642145 0.562073 . .
O1_4 O 0.3369(6) 0.82684(26) 0.3535(4) 0.0144 Uiso
C1_4 C 0.7003(13) 0.9768(6) 0.4531(7) 0.0231 Uiso
C2_4 C 0.5020(18) 0.9359(4) 0.4444(6) 0.0231 Uiso
C3_4 C 0.5028(13) 0.8629(5) 0.3660(6) 0.0231 Uiso
C4_4 C 0.3075(14) 0.9616(6) 0.4720(8) 0.0231 Uiso
H1_4 H 0.17006 0.935785 0.437927 . .
H2_4 H 0.834642 0.961918 0.408295 . .
loop_
_geom_bond_atom_site_label_1
_geom_bond_atom_site_label_2
_geom_bond_site_symmetry_1
_geom_bond_site_symmetry_2
Al1 F1 1_555 1_555
O1 Al1 1_555 1_555
F2 Al1 1_555 1_555
O5 Al1 1_555 1_555
O6 Al1 1_555 1_555
O7 Al1 1_555 1_555
C4 H1 1_555 1_555
C5 C6 1_555 1_555
C6 O4 1_555 1_555
O4 Al4 1_555 1_555
C5 C7 1_555 1_555
C7 H3 1_555 1_555
F1_2 Al2 1_555 1_555
O2 C3 1_555 1_555
C1 C2 1_555 1_555
C2 C3 1_555 1_555
Al2 O2 1_555 1_555
C1 H2 1_555 1_555
Al3 O3 1_555 1_555
C8 H4 1_555 1_555
Al4 O3_2 1_555 1_555
C8_2 H4_2 1_555 1_555
O6 C3_2 1_555 1_555
C1_2 C2_2 1_555 1_555
C2_2 C3_2 1_555 1_555
C1_2 H2_2 1_555 1_555
C5_2 C6_2 1_555 1_555
C6_2 O4_2 1_555 1_555
O4_2 Al3 1_555 1_555
C5_2 C7_2 1_555 1_555
C7_2 H3_2 1_555 1_555
O1_2 Al2 1_555 1_555
F2 Al2 1_555 1_555
O5_2 Al2 1_555 1_555
O7_2 Al2 1_555 1_555
C4_2 H1_2 1_555 1_555
Al3 F1_3 1_555 1_555
F1_3 Al4 1_555 1_555
O1_3 Al3 1_555 1_555
O2_2 C3_3 1_555 1_555
C1_3 C2_3 1_555 1_555
C2_3 C3_3 1_555 1_555
C3_3 O1_3 1_555 1_555
C4_3 C2_3 1_555 1_555
O5 C6_3 1_555 1_555
C5_3 C6_3 1_555 1_555
C6_3 O7_2 1_555 1_555
C7_3 C4_3 1_555 1_555
C8_3 C1_3 1_555 1_555
Al4 O2_2 1_555 1_555
F2_3 Al3 1_555 1_555
O6_2 Al3 1_555 1_555
C5_3 C7_3 1_555 1_555
C5_3 C8_3 1_555 1_555
C4_3 H1_3 1_555 1_555
C1_3 H2_3 1_555 1_555
C7_3 H3_3 1_555 1_555
C8_3 H4_3 1_555 1_555
O5_2 C6_4 1_555 1_555
C5_4 C6_4 1_555 1_555
C6_4 O7 1_555 1_555
C5_4 C7_4 1_555 1_555
C5_4 C8_4 1_555 1_555
C7_4 H3_4 1_555 1_555
C8_4 H4_4 1_555 1_555
O1_4 Al4 1_555 1_555
O6_2 C3_4 1_555 1_555
C1_4 C2_4 1_555 1_555
C2_4 C3_4 1_555 1_555
C3_4 O1_4 1_555 1_555
C4_4 C2_4 1_555 1_555
F2_2 Al4 1_555 1_555
C4_4 H1_4 1_555 1_555
C1_4 H2_4 1_555 1_555

#END
