
###############################################################################
#
# This file contains modified crystal structure data generated from the
# MOF subset of the Cambridge Structural Database (CSD) v543 
# hosted by the Cambridge Crystallographic Data Centre (CCDC).
#
# This work is licensed under the Creative Commons
# Attribution-NonCommercial-ShareAlike 4.0 International License.
# To view a copy of this license, visit
# http://creativecommons.org/licenses/by-nc-sa/4.0/
# or send a letter to
# Creative Commons, PO Box 1866, Mountain View, CA 94042, USA.
#
# CIF created using the CSD Python API on 29 September 2022
# The structure has been converted into the P1 space group
# The structure has a 3D framework
# The original CSD entry KURSOH is in the monoclinic crystal system
# The framework has been calculated to contain at least 10.0% void space
# The void calculation uses a probe of radius 1.32A, grid spacing 0.4
#
###############################################################################

data_KURSOH
_chemical_formula_moiety         '(C80 H48 N20 O16 Zn4)n'
_symmetry_cell_setting           triclinic
_symmetry_space_group_name_H-M   'P 1'
_symmetry_Int_Tables_number      1
_space_group_name_Hall           'P 1'
loop_
_symmetry_equiv_pos_site_id
_symmetry_equiv_pos_as_xyz
1 x,y,z
_cell_length_a                   6.981(1)
_cell_length_b                   26.778(4)
_cell_length_c                   13.660(2)
_cell_angle_alpha                90
_cell_angle_beta                 98.150(5)
_cell_angle_gamma                90
_cell_volume                     2527.77
loop_
_atom_site_label
_atom_site_type_symbol
_atom_site_fract_x
_atom_site_fract_y
_atom_site_fract_z
Zn4 Zn 0.13343(10) 0.52820(3) 0.60653(5)
O12 O 0.7552(6) 0.01824(19) 0.0152(3)
O10 O 0.9845(6) 0.0296(2) 0.1446(3)
O5 O 0.9674(7) 0.9145(2) 0.1000(3)
C28 C 0.9395(11) 0.8287(4) 0.1204(7)
C30 C 0.9144(15) 0.7436(5) 0.1774(7)
H18 H 0.9733 0.7152 0.2068
C31 C 0.7114(10) 0.7491(4) 0.1613(7)
C32 C 0.6247(11) 0.7899(4) 0.1228(6)
H19 H 0.4906 0.7911 0.1083
C33 C 0.7390(11) 0.8317(4) 0.1039(6)
H20 H 0.6793 0.8613 0.0804
N9 N 0.5867(9) 0.7101(3) 0.1883(6)
N10 N 0.6684(9) 0.6776(3) 0.2447(5)
C34 C 0.5356(10) 0.6430(4) 0.2772(6)
C35 C 0.3469(11) 0.6360(4) 0.2356(6)
H21 H 0.2964 0.6550 0.1810
C36 C 0.2312(9) 0.6015(3) 0.2731(5)
H22 H 0.1050 0.5963 0.2427
C37 C 0.3049(9) 0.5743(3) 0.3574(5)
C38 C 0.4990(9) 0.5791(3) 0.3982(5)
H23 H 0.5518 0.5597 0.4516
C39 C 0.6125(10) 0.6144(4) 0.3559(5)
H24 H 0.7420 0.6183 0.3820
C40 C 0.1826(8) 0.5379(3) 0.4046(5)
O7 O 0.0155(6) 0.5296(2) 0.3554(3)
O8 O 0.2448(6) 0.51824(19) 0.4848(3)
O5_2 O 0.0326(7) 0.4145(2) 0.4000(3)
C28_2 C 0.0605(11) 0.3287(4) 0.3796(7)
C30_2 C 0.0856(15) 0.2436(5) 0.3226(7)
H18_2 H 0.0267 0.2152 0.2932
C31_2 C 0.2886(10) 0.2491(4) 0.3387(7)
C32_2 C 0.3753(11) 0.2899(4) 0.3772(6)
H19_2 H 0.5094 0.2911 0.3917
C33_2 C 0.2610(11) 0.3317(4) 0.3961(6)
H20_2 H 0.3207 0.3613 0.4196
N9_2 N 0.4133(9) 0.2101(3) 0.3117(6)
N10_2 N 0.3316(9) 0.1776(3) 0.2553(5)
C34_2 C 0.4644(10) 0.1430(4) 0.2228(6)
C35_2 C 0.6531(11) 0.1360(4) 0.2644(6)
H21_2 H 0.7036 0.1550 0.3190
C36_2 C 0.7688(9) 0.1015(3) 0.2269(5)
H22_2 H 0.8950 0.0963 0.2573
C37_2 C 0.6951(9) 0.0743(3) 0.1426(5)
C38_2 C 0.5010(9) 0.0791(3) 0.1018(5)
H23_2 H 0.4482 0.0597 0.0484
C39_2 C 0.3875(10) 0.1144(4) 0.1441(5)
H24_2 H 0.2580 0.1183 0.1180
C40_2 C 0.8174(8) 0.0379(3) 0.0954(5)
O2 O 0.2353(8) 0.6295(3) 0.6119(5)
C1 C 0.0618(12) 0.6256(4) 0.6102(6)
C3 C 0.0212(12) 0.7174(4) 0.6474(9)
H1 H 0.1525 0.7221 0.6452
N3 N 0.3625(8) 0.5221(2) 0.7111(4)
C15 C 0.3608(9) 0.4919(3) 0.7881(5)
H9 H 0.2485 0.4740 0.7934
C16 C 0.5166(10) 0.4858(3) 0.8598(5)
H10 H 0.5088 0.4642 0.9124
C17 C 0.6841(9) 0.5116(4) 0.8542(5)
C18 C 0.6877(10) 0.5436(3) 0.7746(5)
H11 H 0.7978 0.5622 0.7683
C19 C 0.5245(10) 0.5472(4) 0.7052(5)
H12 H 0.5280 0.5684 0.6514
C20 C 0.8572(10) 0.5056(4) 0.9327(6)
O1 O 0.0326(7) 0.0855(2) 0.9000(3)
C2 C 0.0605(11) 0.1713(4) 0.8796(7)
C4 C 0.0856(15) 0.2564(5) 0.8226(7)
H2 H 0.0267 0.2848 0.7932
C5 C 0.2886(10) 0.2509(4) 0.8387(7)
C6 C 0.3753(11) 0.2101(4) 0.8772(6)
H3 H 0.5094 0.2089 0.8917
C7 C 0.2610(11) 0.1683(4) 0.8961(6)
H4 H 0.3207 0.1387 0.9196
N1 N 0.4133(9) 0.2899(3) 0.8117(6)
N2 N 0.3316(9) 0.3224(3) 0.7553(5)
C8 C 0.4644(10) 0.3570(4) 0.7228(6)
C9 C 0.6531(11) 0.3640(4) 0.7644(6)
H5 H 0.7036 0.3450 0.8190
C10 C 0.7688(9) 0.3985(3) 0.7269(5)
H6 H 0.8950 0.4037 0.7573
C11 C 0.6951(9) 0.4257(3) 0.6426(5)
C12 C 0.5010(9) 0.4209(3) 0.6018(5)
H7 H 0.4482 0.4403 0.5484
C13 C 0.3875(10) 0.3856(4) 0.6441(5)
H8 H 0.2580 0.3817 0.6180
C14 C 0.8174(8) 0.4621(3) 0.5954(5)
O3 O 0.9845(6) 0.4704(2) 0.6446(3)
O4 O 0.7552(6) 0.48176(19) 0.5152(3)
Zn6 Zn 0.86657(10) 0.47180(3) 0.39347(5)
O9 O 0.0155(6) 0.9704(2) 0.8554(3)
O11 O 0.2448(6) 0.98176(19) 0.9848(3)
N6 N 0.6375(8) 0.4779(2) 0.2889(4)
C21 C 0.6392(9) 0.5081(3) 0.2119(5)
H13 H 0.7515 0.5260 0.2066
C22 C 0.4834(10) 0.5142(3) 0.1402(5)
H14 H 0.4912 0.5358 0.0876
C23 C 0.3159(9) 0.4884(4) 0.1458(5)
C24 C 0.3123(10) 0.4564(3) 0.2254(5)
H15 H 0.2022 0.4378 0.2317
C25 C 0.4755(10) 0.4528(4) 0.2948(5)
H16 H 0.4720 0.4316 0.3486
C26 C 0.1428(10) 0.4944(4) 0.0673(6)
O6 O 0.7647(8) 0.3705(3) 0.3881(5)
C27 C 0.9382(12) 0.3744(4) 0.3898(6)
C29 C 0.9788(12) 0.2826(4) 0.3526(9)
H17 H 0.8475 0.2779 0.3548
O1_2 O 0.9674(7) 0.5855(2) 0.6000(3)
C2_2 C 0.9395(11) 0.6713(4) 0.6204(7)
C4_2 C 0.9144(15) 0.7564(5) 0.6774(7)
H2_2 H 0.9733 0.7848 0.7068
C5_2 C 0.7114(10) 0.7509(4) 0.6613(7)
C6_2 C 0.6247(11) 0.7101(4) 0.6228(6)
H3_2 H 0.4906 0.7089 0.6083
C7_2 C 0.7390(11) 0.6683(4) 0.6039(6)
H4_2 H 0.6793 0.6387 0.5804
N1_2 N 0.5867(9) 0.7899(3) 0.6883(6)
N2_2 N 0.6684(9) 0.8224(3) 0.7447(5)
C8_2 C 0.5356(10) 0.8570(4) 0.7772(6)
C9_2 C 0.3469(11) 0.8640(4) 0.7356(6)
H5_2 H 0.2964 0.8450 0.6810
C10_2 C 0.2312(9) 0.8985(3) 0.7731(5)
H6_2 H 0.1050 0.9037 0.7427
C11_2 C 0.3049(9) 0.9257(3) 0.8574(5)
C12_2 C 0.4990(9) 0.9209(3) 0.8982(5)
H7_2 H 0.5518 0.9403 0.9516
C13_2 C 0.6125(10) 0.8856(4) 0.8559(5)
H8_2 H 0.7420 0.8817 0.8820
C14_2 C 0.1826(8) 0.9621(3) 0.9046(5)
Zn1 Zn 0.86657(10) 0.02820(3) 0.89347(5)
O2_2 O 0.7647(8) 0.1295(3) 0.8881(5)
C1_2 C 0.9382(12) 0.1256(4) 0.8898(6)
C3_2 C 0.9788(12) 0.2174(4) 0.8526(9)
H1_2 H 0.8475 0.2221 0.8548
N3_2 N 0.6375(8) 0.0221(2) 0.7889(4)
C17_2 C 0.3159(9) 0.0116(4) 0.6458(5)
C18_2 C 0.3123(10) 0.0436(3) 0.7254(5)
H11_2 H 0.2022 0.0622 0.7317
C19_2 C 0.4755(10) 0.0472(4) 0.7948(5)
H12_2 H 0.4720 0.0684 0.8486
C20_2 C 0.1428(10) 0.0056(4) 0.5673(6)
C15_2 C 0.6392(9) 0.9919(3) 0.7119(5)
H9_2 H 0.7515 0.9740 0.7066
C16_2 C 0.4834(10) 0.9858(3) 0.6402(5)
H10_2 H 0.4912 0.9642 0.5876
N4 N 0.1664(9) 0.9754(3) 0.4914(5)
N8 N 0.0117(10) 0.9713(3) 0.4187(5)
N5 N 0.9883(10) 0.0287(3) 0.5813(5)
C21_2 C 0.3608(9) 0.0081(3) 0.2881(5)
H13_2 H 0.2485 0.0260 0.2934
C22_2 C 0.5166(10) 0.0142(3) 0.3598(5)
H14_2 H 0.5088 0.0358 0.4124
N7 N 0.8336(9) 0.0246(3) 0.5086(5)
N6_2 N 0.3625(8) 0.9779(2) 0.2111(4)
C23_2 C 0.6841(9) 0.9884(4) 0.3542(5)
C24_2 C 0.6877(10) 0.9564(3) 0.2746(5)
H15_2 H 0.7978 0.9378 0.2683
C25_2 C 0.5245(10) 0.9528(4) 0.2052(5)
H16_2 H 0.5280 0.9316 0.1514
C26_2 C 0.8572(10) 0.9944(4) 0.4327(6)
Zn2 Zn 0.13343(10) 0.97180(3) 0.10653(5)
O6_2 O 0.2353(8) 0.8705(3) 0.1119(5)
C27_2 C 0.0618(12) 0.8744(4) 0.1102(6)
C29_2 C 0.0212(12) 0.7826(4) 0.1474(9)
H17_2 H 0.1525 0.7779 0.1452
N5_2 N 0.0117(10) 0.5287(3) 0.9187(5)
N7_2 N 0.1664(9) 0.5246(3) 0.9914(5)
N4_2 N 0.8336(9) 0.4754(3) 0.0086(5)
N8_2 N 0.9883(10) 0.4713(3) 0.0813(5)
loop_
_geom_bond_atom_site_label_1
_geom_bond_atom_site_label_2
_geom_bond_site_symmetry_1
_geom_bond_site_symmetry_2
H18 C30 1_555 1_555
C31 C30 1_555 1_555
C32 C31 1_555 1_555
H19 C32 1_555 1_555
C33 C28 1_555 1_555
H20 C33 1_555 1_555
N9 C31 1_555 1_555
N10 N9 1_555 1_555
C34 N10 1_555 1_555
C35 C34 1_555 1_555
H21 C35 1_555 1_555
C36 C35 1_555 1_555
H22 C36 1_555 1_555
C37 C36 1_555 1_555
C38 C37 1_555 1_555
H23 C38 1_555 1_555
C39 C34 1_555 1_555
H24 C39 1_555 1_555
C40 C37 1_555 1_555
O7 C40 1_555 1_555
O8 C40 1_555 1_555
Zn4 O8 1_555 1_555
C32 C33 1_555 1_555
C38 C39 1_555 1_555
H18_2 C30_2 1_555 1_555
C31_2 C30_2 1_555 1_555
C32_2 C31_2 1_555 1_555
H19_2 C32_2 1_555 1_555
C33_2 C28_2 1_555 1_555
H20_2 C33_2 1_555 1_555
N9_2 C31_2 1_555 1_555
N10_2 N9_2 1_555 1_555
C34_2 N10_2 1_555 1_555
C35_2 C34_2 1_555 1_555
H21_2 C35_2 1_555 1_555
C36_2 C35_2 1_555 1_555
H22_2 C36_2 1_555 1_555
C37_2 C36_2 1_555 1_555
C38_2 C37_2 1_555 1_555
H23_2 C38_2 1_555 1_555
C39_2 C34_2 1_555 1_555
H24_2 C39_2 1_555 1_555
C40_2 C37_2 1_555 1_555
O10 C40_2 1_555 1_555
O12 C40_2 1_555 1_555
C32_2 C33_2 1_555 1_555
C38_2 C39_2 1_555 1_555
O2 C1 1_555 1_555
C3 H1 1_555 1_555
N3 Zn4 1_555 1_555
C15 N3 1_555 1_555
H9 C15 1_555 1_555
C16 C15 1_555 1_555
H10 C16 1_555 1_555
C17 C16 1_555 1_555
C18 C17 1_555 1_555
H11 C18 1_555 1_555
C19 N3 1_555 1_555
H12 C19 1_555 1_555
C20 C17 1_555 1_555
C18 C19 1_555 1_555
H2 C4 1_555 1_555
C5 C4 1_555 1_555
C6 C5 1_555 1_555
H3 C6 1_555 1_555
C7 C2 1_555 1_555
H4 C7 1_555 1_555
N1 C5 1_555 1_555
N2 N1 1_555 1_555
C8 N2 1_555 1_555
C9 C8 1_555 1_555
H5 C9 1_555 1_555
C10 C9 1_555 1_555
H6 C10 1_555 1_555
C11 C10 1_555 1_555
C12 C11 1_555 1_555
H7 C12 1_555 1_555
C13 C8 1_555 1_555
H8 C13 1_555 1_555
C14 C11 1_555 1_555
O3 C14 1_555 1_555
O4 C14 1_555 1_555
Zn6 O4 1_555 1_555
C6 C7 1_555 1_555
C12 C13 1_555 1_555
N6 C21 1_555 1_555
C21 H13 1_555 1_555
C22 C21 1_555 1_555
H14 C22 1_555 1_555
C23 C22 1_555 1_555
C24 C23 1_555 1_555
H15 C24 1_555 1_555
C25 N6 1_555 1_555
H16 C25 1_555 1_555
C26 C23 1_555 1_555
Zn6 N6 1_555 1_555
O6 C27 1_555 1_555
H17 C29 1_555 1_555
C24 C25 1_555 1_555
H2_2 C4_2 1_555 1_555
C5_2 C4_2 1_555 1_555
C6_2 C5_2 1_555 1_555
H3_2 C6_2 1_555 1_555
C7_2 C2_2 1_555 1_555
H4_2 C7_2 1_555 1_555
N1_2 C5_2 1_555 1_555
N2_2 N1_2 1_555 1_555
C8_2 N2_2 1_555 1_555
C9_2 C8_2 1_555 1_555
H5_2 C9_2 1_555 1_555
C10_2 C9_2 1_555 1_555
H6_2 C10_2 1_555 1_555
C11_2 C10_2 1_555 1_555
C12_2 C11_2 1_555 1_555
H7_2 C12_2 1_555 1_555
C13_2 C8_2 1_555 1_555
H8_2 C13_2 1_555 1_555
C14_2 C11_2 1_555 1_555
O9 C14_2 1_555 1_555
O11 C14_2 1_555 1_555
C6_2 C7_2 1_555 1_555
C12_2 C13_2 1_555 1_555
O2_2 C1_2 1_555 1_555
C3_2 H1_2 1_555 1_555
N3_2 Zn1 1_555 1_555
C18_2 C17_2 1_555 1_555
H11_2 C18_2 1_555 1_555
C19_2 N3_2 1_555 1_555
H12_2 C19_2 1_555 1_555
C20_2 C17_2 1_555 1_555
C18_2 C19_2 1_555 1_555
H9_2 C15_2 1_555 1_555
C16_2 C15_2 1_555 1_555
H10_2 C16_2 1_555 1_555
N8 N4 1_555 1_555
C21_2 H13_2 1_555 1_555
C22_2 C21_2 1_555 1_555
H14_2 C22_2 1_555 1_555
N7 N5 1_555 1_555
C24_2 C23_2 1_555 1_555
H15_2 C24_2 1_555 1_555
C25_2 N6_2 1_555 1_555
H16_2 C25_2 1_555 1_555
C26_2 C23_2 1_555 1_555
Zn2 N6_2 1_555 1_555
O6_2 C27_2 1_555 1_555
H17_2 C29_2 1_555 1_555
C24_2 C25_2 1_555 1_555
N7_2 N5_2 1_555 1_555
N8_2 N4_2 1_555 1_555

#END
