
###############################################################################
#
# This file contains modified crystal structure data generated from the
# MOF subset of the Cambridge Structural Database (CSD) v543 
# hosted by the Cambridge Crystallographic Data Centre (CCDC).
#
# This work is licensed under the Creative Commons
# Attribution-NonCommercial-ShareAlike 4.0 International License.
# To view a copy of this license, visit
# http://creativecommons.org/licenses/by-nc-sa/4.0/
# or send a letter to
# Creative Commons, PO Box 1866, Mountain View, CA 94042, USA.
#
# CIF created using the CSD Python API on 29 September 2022
# The structure has been converted into the P1 space group
# The structure has a 3D framework
# The original CSD entry KUSTEA is in the orthorhombic crystal system
# The framework has been calculated to contain at least 10.0% void space
# The void calculation uses a probe of radius 1.32A, grid spacing 0.4
# The framework is charged, counterions have been retained in the structure
#
###############################################################################

data_KUSTEA
_chemical_formula_moiety         '(C112 H88 F24 N40 P4 S8 Zn6 6+)n'
_symmetry_cell_setting           triclinic
_symmetry_space_group_name_H-M   'P 1'
_symmetry_Int_Tables_number      1
_space_group_name_Hall           'P 1'
loop_
_symmetry_equiv_pos_site_id
_symmetry_equiv_pos_as_xyz
1 x,y,z
_cell_length_a                   25.0377(8)
_cell_length_b                   15.2435(4)
_cell_length_c                   15.0498(6)
_cell_angle_alpha                90
_cell_angle_beta                 90
_cell_angle_gamma                90
_cell_volume                     5743.94
loop_
_atom_site_label
_atom_site_type_symbol
_atom_site_fract_x
_atom_site_fract_y
_atom_site_fract_z
C17 C 0.1106(4) 0.0122(5) 0.4870(7)
H13 H 0.0833 0.0145 0.5309
C18 C 0.1446(4) 0.0822(5) 0.4755(7)
H14 H 0.1409 0.1329 0.5117
C19 C 0.1840(3) 0.0790(5) 0.4116(6)
H15 H 0.2072 0.1277 0.4040
N10 N 0.1899(2) 0.0071(3) 0.3595(4)
Zn4 Zn 0.2500 0.0000 0.25923(9)
C15 C 0.1564(3) 0.9407(4) 0.3705(5)
H12 H 0.1600 0.8912 0.3326
C16 C 0.1163(3) 0.9392(5) 0.4348(6)
C20 C 0.0814(3) 0.8615(5) 0.4440(6)
C21 C 0.0857(4) 0.7840(5) 0.3993(8)
H16 H 0.1128 0.7709 0.3572
N6 N 0.0392(3) 0.8669(4) 0.5009(5)
C22 C 0.0115(3) 0.7927(5) 0.4984(7)
S2 S 0.03571(11) 0.71374(15) 0.4292(2)
Zn4_2 Zn 0.2500 1.0000 0.25923(9)
Zn2 Zn 0.7500 0.0000 0.74077(9)
C1 C 0.3436(3) 0.0593(4) 0.3705(5)
H1 H 0.3400 0.1088 0.3326
C2 C 0.3837(3) 0.0608(5) 0.4348(6)
C6 C 0.4186(3) 0.1385(5) 0.4440(6)
C7 C 0.4143(4) 0.2160(5) 0.3993(8)
H5 H 0.3872 0.2291 0.3572
N1 N 0.4608(3) 0.1331(4) 0.5009(5)
C8 C 0.4885(3) 0.2073(5) 0.4984(7)
N2 N 0.5317(3) 0.2205(4) 0.5520(6)
H6 H 0.5430 0.1807 0.5900
N3 N 0.5562(3) 0.3011(4) 0.5421(6)
C9 C 0.5935(3) 0.3181(5) 0.5979(6)
H7 H 0.6027 0.2761 0.6420
C10 C 0.6593(2) 0.4190(4) 0.6587(5)
H8 H 0.6644 0.3770 0.7045
C11 C 0.6140(4) 0.4639(6) 0.5304(7)
H9 H 0.5878 0.4547 0.4857
C12 C 0.6221(3) 0.4021(5) 0.5942(6)
C13 C 0.6439(4) 0.5398(6) 0.5308(8)
H10 H 0.6389 0.5833 0.4864
C14 C 0.6814(3) 0.5513(5) 0.5975(6)
H11 H 0.7022 0.6033 0.5978
N4 N 0.6891(2) 0.4930(3) 0.6601(4)
S1 S 0.46429(11) 0.28626(15) 0.4292(2)
Zn1 Zn 0.7500 0.5000 0.75923(9)
F1 F 0.67545(19) 0.7500 0.7500
F2 F 0.74243(13) 0.63605(19) 0.7564(3)
F3 F 0.74177(18) 0.7560(2) 0.8595(3)
F4 F 0.80873(19) 0.7500 0.7500
P1 P 0.74290(11) 0.7500 0.7500
F5 F 0.74243(13) 0.86395(19) 0.7436(3)
F6 F 0.74177(18) 0.7440(2) 0.6405(3)
N7 N 0.9683(3) 0.7795(4) 0.5520(6)
H17 H 0.9570 0.8193 0.5900
N8 N 0.9438(3) 0.6989(4) 0.5421(6)
C23 C 0.9065(3) 0.6819(5) 0.5979(6)
H18 H 0.8973 0.7239 0.6420
C24 C 0.8407(2) 0.5810(4) 0.6587(5)
H19 H 0.8356 0.6230 0.7045
C25 C 0.8860(4) 0.5361(6) 0.5304(7)
H20 H 0.9122 0.5453 0.4857
C26 C 0.8779(3) 0.5979(5) 0.5942(6)
C27 C 0.8561(4) 0.4602(6) 0.5308(8)
H21 H 0.8611 0.4167 0.4864
C28 C 0.8186(3) 0.4487(5) 0.5975(6)
H22 H 0.7978 0.3967 0.5978
N9 N 0.8109(2) 0.5070(3) 0.6601(4)
N11 N 0.6899(2) 0.4929(3) 0.8595(4)
N12 N 0.8101(2) 0.5071(3) 0.8595(4)
Zn2_2 Zn 0.7500 1.0000 0.74077(9)
F7 F 0.75757(13) 0.36395(19) 0.7564(3)
C3 C 0.3894(4) 0.9878(5) 0.4870(7)
H2 H 0.4167 0.9855 0.5309
C4 C 0.3554(4) 0.9178(5) 0.4755(7)
H3 H 0.3591 0.8671 0.5117
C5 C 0.3160(3) 0.9210(5) 0.4116(6)
H4 H 0.2928 0.8723 0.4040
N5 N 0.3101(2) 0.9929(3) 0.3595(4)
F1_2 F 0.82455(19) 0.2500 0.7500
F3_2 F 0.75823(18) 0.2440(2) 0.8595(3)
F4_2 F 0.69127(19) 0.2500 0.7500
P1_2 P 0.75710(11) 0.2500 0.7500
F5_2 F 0.75757(13) 0.13605(19) 0.7436(3)
F6_2 F 0.75823(18) 0.2560(2) 0.6405(3)
C15_2 C 0.1564(3) 0.5593(4) 0.1295(5)
H12_2 H 0.1600 0.6088 0.1674
C16_2 C 0.1163(3) 0.5608(5) 0.0652(6)
C17_2 C 0.1106(4) 0.4878(5) 0.0130(7)
C18_2 C 0.1446(4) 0.4178(5) 0.0245(7)
C19_2 C 0.1840(3) 0.4210(5) 0.0884(6)
H15_2 H 0.2072 0.3723 0.0960
C20_2 C 0.0814(3) 0.6385(5) 0.0560(6)
C21_2 C 0.0857(4) 0.7160(5) 0.1007(8)
H16_2 H 0.1128 0.7291 0.1428
C22_2 C 0.0115(3) 0.7073(5) 0.0016(7)
N10_2 N 0.1899(2) 0.4929(3) 0.1405(4)
S2_2 S 0.03571(11) 0.78626(15) 0.0708(2)
Zn4_3 Zn 0.2500 0.5000 0.24077(9)
C1_2 C 0.3436(3) 0.4407(4) 0.1295(5)
H1_2 H 0.3400 0.3912 0.1674
C2_2 C 0.3837(3) 0.4392(5) 0.0652(6)
C3_2 C 0.3894(4) 0.5122(5) 0.0130(7)
C4_2 C 0.3554(4) 0.5822(5) 0.0245(7)
C5_2 C 0.3160(3) 0.5790(5) 0.0884(6)
H4_2 H 0.2928 0.6277 0.0960
C6_2 C 0.4186(3) 0.3615(5) 0.0560(6)
C7_2 C 0.4143(4) 0.2840(5) 0.1007(8)
H5_2 H 0.3872 0.2709 0.1428
C8_2 C 0.4885(3) 0.2927(5) 0.0016(7)
H9_2 H 0.5878 0.0453 0.0143
N5_2 N 0.3101(2) 0.5071(3) 0.1405(4)
S1_2 S 0.46429(11) 0.21374(15) 0.0708(2)
H21_2 H 0.8611 0.0833 0.0136
H2_2 H 0.4167 0.5145 0.9691
H3_2 H 0.3591 0.6329 0.9883
N1_2 N 0.4608(3) 0.3669(4) 0.9991(5)
N2_2 N 0.5317(3) 0.2795(4) 0.9480(6)
H6_2 H 0.5430 0.3193 0.9100
N3_2 N 0.5562(3) 0.1989(4) 0.9579(6)
C9_2 C 0.5935(3) 0.1819(5) 0.9021(6)
H7_2 H 0.6027 0.2239 0.8580
C10_2 C 0.6593(2) 0.0810(4) 0.8413(5)
H8_2 H 0.6644 0.1230 0.7955
C11_2 C 0.6140(4) 0.0361(6) 0.9696(7)
C12_2 C 0.6221(3) 0.0979(5) 0.9058(6)
N4_2 N 0.6891(2) 0.0070(3) 0.8399(4)
C27_2 C 0.8561(4) 0.0398(6) 0.9692(8)
C28_2 C 0.8186(3) 0.0513(5) 0.9025(6)
H22_2 H 0.7978 0.1033 0.9022
N11_2 N 0.6899(2) 0.0071(3) 0.6405(4)
C13_2 C 0.6439(4) 0.9602(6) 0.9692(8)
C14_2 C 0.6814(3) 0.9487(5) 0.9025(6)
H11_2 H 0.7022 0.8967 0.9022
N7_2 N 0.9683(3) 0.7205(4) 0.9480(6)
H17_2 H 0.9570 0.6807 0.9100
N8_2 N 0.9438(3) 0.8011(4) 0.9579(6)
C23_2 C 0.9065(3) 0.8181(5) 0.9021(6)
H18_2 H 0.8973 0.7761 0.8580
C24_2 C 0.8407(2) 0.9190(4) 0.8413(5)
H19_2 H 0.8356 0.8770 0.7955
C25_2 C 0.8860(4) 0.9639(6) 0.9696(7)
C26_2 C 0.8779(3) 0.9021(5) 0.9058(6)
N9_2 N 0.8109(2) 0.9930(3) 0.8399(4)
N12_2 N 0.8101(2) 0.9929(3) 0.6405(4)
C3_3 C 0.6106(4) 0.0122(5) 0.5130(7)
H2_3 H 0.5833 0.0145 0.4691
C4_3 C 0.6446(4) 0.0822(5) 0.5245(7)
H3_3 H 0.6409 0.1329 0.4883
C5_3 C 0.6840(3) 0.0790(5) 0.5884(6)
H4_3 H 0.7072 0.1277 0.5960
C1_3 C 0.6564(3) 0.9407(4) 0.6295(5)
H1_3 H 0.6600 0.8912 0.6674
C2_3 C 0.6163(3) 0.9392(5) 0.5652(6)
C6_3 C 0.5814(3) 0.8615(5) 0.5560(6)
C7_3 C 0.5857(4) 0.7840(5) 0.6007(8)
H5_3 H 0.6128 0.7709 0.6428
N1_3 N 0.5392(3) 0.8669(4) 0.4991(5)
C8_3 C 0.5115(3) 0.7927(5) 0.5016(7)
N2_3 N 0.4683(3) 0.7795(4) 0.4480(6)
H6_3 H 0.4570 0.8193 0.4100
N3_3 N 0.4438(3) 0.6989(4) 0.4579(6)
C9_3 C 0.4065(3) 0.6819(5) 0.4021(6)
H7_3 H 0.3973 0.7239 0.3580
C10_3 C 0.3407(2) 0.5810(4) 0.3413(5)
H8_3 H 0.3356 0.6230 0.2955
C11_3 C 0.3860(4) 0.5361(6) 0.4696(7)
H9_3 H 0.4122 0.5453 0.5143
C12_3 C 0.3779(3) 0.5979(5) 0.4058(6)
C13_3 C 0.3561(4) 0.4602(6) 0.4692(8)
H10_2 H 0.3611 0.4167 0.5136
C14_3 C 0.3186(3) 0.4487(5) 0.4025(6)
H11_3 H 0.2978 0.3967 0.4022
N4_3 N 0.3109(2) 0.5070(3) 0.3399(4)
S1_3 S 0.53571(11) 0.71374(15) 0.5708(2)
F1_3 F 0.32455(19) 0.2500 0.2500
F2_2 F 0.25757(13) 0.36395(19) 0.2436(3)
F3_3 F 0.25823(18) 0.2440(2) 0.1405(3)
F4_3 F 0.19127(19) 0.2500 0.2500
P1_3 P 0.25710(11) 0.2500 0.2500
F5_3 F 0.25757(13) 0.13605(19) 0.2564(3)
F6_3 F 0.25823(18) 0.2560(2) 0.3595(3)
N7_3 N 0.0317(3) 0.2205(4) 0.4480(6)
H17_3 H 0.0430 0.1807 0.4100
N8_3 N 0.0562(3) 0.3011(4) 0.4579(6)
C23_3 C 0.0935(3) 0.3181(5) 0.4021(6)
H18_3 H 0.1027 0.2761 0.3580
C24_3 C 0.1593(2) 0.4190(4) 0.3413(5)
H19_3 H 0.1644 0.3770 0.2955
C25_3 C 0.1140(4) 0.4639(6) 0.4696(7)
H20_2 H 0.0878 0.4547 0.5143
C26_3 C 0.1221(3) 0.4021(5) 0.4058(6)
C27_3 C 0.1439(4) 0.5398(6) 0.4692(8)
H21_3 H 0.1389 0.5833 0.5136
C28_3 C 0.1814(3) 0.5513(5) 0.4025(6)
H22_3 H 0.2022 0.6033 0.4022
N9_3 N 0.1891(2) 0.4930(3) 0.3399(4)
F7_2 F 0.24243(13) 0.63605(19) 0.2436(3)
C15_3 C 0.8436(3) 0.0593(4) 0.6295(5)
H12_3 H 0.8400 0.1088 0.6674
C16_3 C 0.8837(3) 0.0608(5) 0.5652(6)
C20_3 C 0.9186(3) 0.1385(5) 0.5560(6)
C21_3 C 0.9143(4) 0.2160(5) 0.6007(8)
H16_3 H 0.8872 0.2291 0.6428
N6_2 N 0.9608(3) 0.1331(4) 0.4991(5)
C22_3 C 0.9885(3) 0.2073(5) 0.5016(7)
S2_3 S 0.96429(11) 0.28626(15) 0.5708(2)
C17_3 C 0.8894(4) 0.9878(5) 0.5130(7)
H13_2 H 0.9167 0.9855 0.4691
C18_3 C 0.8554(4) 0.9178(5) 0.5245(7)
H14_2 H 0.8591 0.8671 0.4883
C19_3 C 0.8160(3) 0.9210(5) 0.5884(6)
H15_3 H 0.7928 0.8723 0.5960
F1_4 F 0.17545(19) 0.7500 0.2500
F3_4 F 0.24177(18) 0.7560(2) 0.1405(3)
F4_4 F 0.30873(19) 0.7500 0.2500
P1_4 P 0.24290(11) 0.7500 0.2500
F5_4 F 0.24243(13) 0.86395(19) 0.2564(3)
F6_4 F 0.24177(18) 0.7440(2) 0.3595(3)
C13_4 C 0.3561(4) 0.0398(6) 0.0308(8)
C14_4 C 0.3186(3) 0.0513(5) 0.0975(6)
H11_4 H 0.2978 0.1033 0.0978
N7_4 N 0.0317(3) 0.2795(4) 0.0520(6)
H17_4 H 0.0430 0.3193 0.0900
N8_4 N 0.0562(3) 0.1989(4) 0.0421(6)
C23_4 C 0.0935(3) 0.1819(5) 0.0979(6)
H18_4 H 0.1027 0.2239 0.1420
C24_4 C 0.1593(2) 0.0810(4) 0.1587(5)
H19_4 H 0.1644 0.1230 0.2045
C25_4 C 0.1140(4) 0.0361(6) 0.0304(7)
C26_4 C 0.1221(3) 0.0979(5) 0.0942(6)
N9_4 N 0.1891(2) 0.0070(3) 0.1601(4)
H2_4 H 0.5833 0.4855 0.0309
H3_4 H 0.6409 0.3671 0.0117
N1_4 N 0.5392(3) 0.6331(4) 0.0009(5)
N2_4 N 0.4683(3) 0.7205(4) 0.0520(6)
H6_4 H 0.4570 0.6807 0.0900
N3_4 N 0.4438(3) 0.8011(4) 0.0421(6)
C9_4 C 0.4065(3) 0.8181(5) 0.0979(6)
H7_4 H 0.3973 0.7761 0.1420
C10_4 C 0.3407(2) 0.9190(4) 0.1587(5)
H8_4 H 0.3356 0.8770 0.2045
C11_4 C 0.3860(4) 0.9639(6) 0.0304(7)
C12_4 C 0.3779(3) 0.9021(5) 0.0942(6)
N4_4 N 0.3109(2) 0.9930(3) 0.1601(4)
C27_4 C 0.1439(4) 0.9602(6) 0.0308(8)
C28_4 C 0.1814(3) 0.9487(5) 0.0975(6)
H22_4 H 0.2022 0.8967 0.0978
C1_4 C 0.6564(3) 0.5593(4) 0.8705(5)
H1_4 H 0.6600 0.6088 0.8326
C2_4 C 0.6163(3) 0.5608(5) 0.9348(6)
C3_4 C 0.6106(4) 0.4878(5) 0.9870(7)
C4_4 C 0.6446(4) 0.4178(5) 0.9755(7)
C5_4 C 0.6840(3) 0.4210(5) 0.9116(6)
H4_4 H 0.7072 0.3723 0.9040
C6_4 C 0.5814(3) 0.6385(5) 0.9440(6)
C7_4 C 0.5857(4) 0.7160(5) 0.8993(8)
H5_4 H 0.6128 0.7291 0.8572
C8_4 C 0.5115(3) 0.7073(5) 0.9984(7)
H9_4 H 0.4122 0.9547 0.9857
S1_4 S 0.53571(11) 0.78626(15) 0.9292(2)
H21_4 H 0.1389 0.9167 0.9864
C15_4 C 0.8436(3) 0.4407(4) 0.8705(5)
H12_4 H 0.8400 0.3912 0.8326
C16_4 C 0.8837(3) 0.4392(5) 0.9348(6)
C17_4 C 0.8894(4) 0.5122(5) 0.9870(7)
C18_4 C 0.8554(4) 0.5822(5) 0.9755(7)
C19_4 C 0.8160(3) 0.5790(5) 0.9116(6)
H15_4 H 0.7928 0.6277 0.9040
C20_4 C 0.9186(3) 0.3615(5) 0.9440(6)
C21_4 C 0.9143(4) 0.2840(5) 0.8993(8)
H16_4 H 0.8872 0.2709 0.8572
C22_4 C 0.9885(3) 0.2927(5) 0.9984(7)
S2_4 S 0.96429(11) 0.21374(15) 0.9292(2)
H13_3 H 0.0833 0.4855 0.9691
H14_3 H 0.1409 0.3671 0.9883
N6_3 N 0.0392(3) 0.6331(4) 0.9991(5)
H10_3 H 0.6389 0.9167 0.0136
H20_3 H 0.9122 0.9547 0.0143
H10_4 H 0.3611 0.0833 0.9864
H20_4 H 0.0878 0.0453 0.9857
H13_4 H 0.9167 0.5145 0.0309
H14_4 H 0.8591 0.6329 0.0117
N6_4 N 0.9608(3) 0.3669(4) 0.0009(5)
loop_
_geom_bond_atom_site_label_1
_geom_bond_atom_site_label_2
_geom_bond_site_symmetry_1
_geom_bond_site_symmetry_2
H13 C17 1_555 1_555
C18 C17 1_555 1_555
H14 C18 1_555 1_555
C19 C18 1_555 1_555
H15 C19 1_555 1_555
Zn4 N10 1_555 1_555
C19 N10 1_555 1_555
C15 H12 1_555 1_555
C16 C15 1_555 1_555
C20 C16 1_555 1_555
C21 C20 1_555 1_555
H16 C21 1_555 1_555
N6 C20 1_555 1_555
C22 N6 1_555 1_555
S2 C21 1_555 1_555
C22 S2 1_555 1_555
C1 H1 1_555 1_555
C2 C1 1_555 1_555
C6 C2 1_555 1_555
C7 C6 1_555 1_555
H5 C7 1_555 1_555
N1 C6 1_555 1_555
C8 N1 1_555 1_555
N2 C8 1_555 1_555
H6 N2 1_555 1_555
N3 N2 1_555 1_555
C9 N3 1_555 1_555
H7 C9 1_555 1_555
C10 H8 1_555 1_555
C11 H9 1_555 1_555
C12 C9 1_555 1_555
C13 C11 1_555 1_555
H10 C13 1_555 1_555
C14 C13 1_555 1_555
H11 C14 1_555 1_555
N4 C10 1_555 1_555
S1 C7 1_555 1_555
Zn1 N4 1_555 1_555
F1 P1 1_555 1_555
F2 Zn1 1_555 1_555
F3 P1 1_555 1_555
F4 P1 1_555 1_555
P1 F2 1_555 1_555
F5 P1 1_555 1_555
F6 P1 1_555 1_555
H17 N7 1_555 1_555
N8 N7 1_555 1_555
C23 N8 1_555 1_555
H18 C23 1_555 1_555
C24 H19 1_555 1_555
C25 H20 1_555 1_555
C26 C23 1_555 1_555
C27 C25 1_555 1_555
H21 C27 1_555 1_555
C28 C27 1_555 1_555
H22 C28 1_555 1_555
N9 Zn1 1_555 1_555
N11 Zn1 1_555 1_555
N12 Zn1 1_555 1_555
Zn2_2 F5 1_555 1_555
F7 Zn1 1_555 1_555
C8 S1 1_555 1_555
C10 C12 1_555 1_555
C11 C12 1_555 1_555
C14 N4 1_555 1_555
C24 C26 1_555 1_555
C24 N9 1_555 1_555
C25 C26 1_555 1_555
C28 N9 1_555 1_555
H2 C3 1_555 1_555
C4 C3 1_555 1_555
H3 C4 1_555 1_555
C5 C4 1_555 1_555
H4 C5 1_555 1_555
Zn4_2 N5 1_555 1_555
C5 N5 1_555 1_555
F1_2 P1_2 1_555 1_555
F3_2 P1_2 1_555 1_555
F4_2 P1_2 1_555 1_555
P1_2 F7 1_555 1_555
F5_2 P1_2 1_555 1_555
F6_2 P1_2 1_555 1_555
Zn2 F5_2 1_555 1_555
C15_2 H12_2 1_555 1_555
C16_2 C15_2 1_555 1_555
C17_2 C16_2 1_555 1_555
C18_2 C17_2 1_555 1_555
C19_2 C18_2 1_555 1_555
H15_2 C19_2 1_555 1_555
C20_2 C16_2 1_555 1_555
C21_2 C20_2 1_555 1_555
H16_2 C21_2 1_555 1_555
N10_2 C15_2 1_555 1_555
S2_2 C21_2 1_555 1_555
Zn4_3 N10_2 1_555 1_555
C19_2 N10_2 1_555 1_555
C22_2 S2_2 1_555 1_555
C1_2 H1_2 1_555 1_555
C2_2 C1_2 1_555 1_555
C3_2 C2_2 1_555 1_555
C4_2 C3_2 1_555 1_555
C5_2 C4_2 1_555 1_555
H4_2 C5_2 1_555 1_555
C6_2 C2_2 1_555 1_555
C7_2 C6_2 1_555 1_555
H5_2 C7_2 1_555 1_555
N5_2 C1_2 1_555 1_555
S1_2 C7_2 1_555 1_555
Zn4_3 N5_2 1_555 1_555
C5_2 N5_2 1_555 1_555
C8_2 S1_2 1_555 1_555
H6_2 N2_2 1_555 1_555
N3_2 N2_2 1_555 1_555
C9_2 N3_2 1_555 1_555
H7_2 C9_2 1_555 1_555
C10_2 H8_2 1_555 1_555
C12_2 C9_2 1_555 1_555
N4_2 C10_2 1_555 1_555
Zn2 N4_2 1_555 1_555
C28_2 C27_2 1_555 1_555
H22_2 C28_2 1_555 1_555
N11_2 Zn2 1_555 1_555
C10_2 C12_2 1_555 1_555
C11_2 C12_2 1_555 1_555
C14_2 C13_2 1_555 1_555
H11_2 C14_2 1_555 1_555
H17_2 N7_2 1_555 1_555
N8_2 N7_2 1_555 1_555
C23_2 N8_2 1_555 1_555
H18_2 C23_2 1_555 1_555
C24_2 H19_2 1_555 1_555
C26_2 C23_2 1_555 1_555
N9_2 Zn2_2 1_555 1_555
N12_2 Zn2_2 1_555 1_555
C24_2 C26_2 1_555 1_555
C24_2 N9_2 1_555 1_555
C25_2 C26_2 1_555 1_555
H2_3 C3_3 1_555 1_555
C4_3 C3_3 1_555 1_555
H3_3 C4_3 1_555 1_555
C5_3 C4_3 1_555 1_555
H4_3 C5_3 1_555 1_555
C5_3 N11_2 1_555 1_555
C1_3 H1_3 1_555 1_555
C2_3 C1_3 1_555 1_555
C6_3 C2_3 1_555 1_555
C7_3 C6_3 1_555 1_555
H5_3 C7_3 1_555 1_555
N1_3 C6_3 1_555 1_555
C8_3 N1_3 1_555 1_555
N2_3 C8_3 1_555 1_555
H6_3 N2_3 1_555 1_555
N3_3 N2_3 1_555 1_555
C9_3 N3_3 1_555 1_555
H7_3 C9_3 1_555 1_555
C10_3 H8_3 1_555 1_555
C11_3 H9_3 1_555 1_555
C12_3 C9_3 1_555 1_555
C13_3 C11_3 1_555 1_555
H10_2 C13_3 1_555 1_555
C14_3 C13_3 1_555 1_555
H11_3 C14_3 1_555 1_555
N4_3 C10_3 1_555 1_555
S1_3 C7_3 1_555 1_555
Zn4_3 N4_3 1_555 1_555
F1_3 P1_3 1_555 1_555
F2_2 Zn4_3 1_555 1_555
F3_3 P1_3 1_555 1_555
F4_3 P1_3 1_555 1_555
P1_3 F2_2 1_555 1_555
F5_3 P1_3 1_555 1_555
F6_3 P1_3 1_555 1_555
H17_3 N7_3 1_555 1_555
N8_3 N7_3 1_555 1_555
C23_3 N8_3 1_555 1_555
H18_3 C23_3 1_555 1_555
C24_3 H19_3 1_555 1_555
C25_3 H20_2 1_555 1_555
C26_3 C23_3 1_555 1_555
C27_3 C25_3 1_555 1_555
H21_3 C27_3 1_555 1_555
C28_3 C27_3 1_555 1_555
H22_3 C28_3 1_555 1_555
N9_3 Zn4_3 1_555 1_555
Zn4 F5_3 1_555 1_555
F7_2 Zn4_3 1_555 1_555
C8_3 S1_3 1_555 1_555
C10_3 C12_3 1_555 1_555
C11_3 C12_3 1_555 1_555
C14_3 N4_3 1_555 1_555
C24_3 C26_3 1_555 1_555
C24_3 N9_3 1_555 1_555
C25_3 C26_3 1_555 1_555
C28_3 N9_3 1_555 1_555
C15_3 H12_3 1_555 1_555
C16_3 C15_3 1_555 1_555
C20_3 C16_3 1_555 1_555
C21_3 C20_3 1_555 1_555
H16_3 C21_3 1_555 1_555
N6_2 C20_3 1_555 1_555
C22_3 N6_2 1_555 1_555
S2_3 C21_3 1_555 1_555
C22_3 S2_3 1_555 1_555
H13_2 C17_3 1_555 1_555
C18_3 C17_3 1_555 1_555
H14_2 C18_3 1_555 1_555
C19_3 C18_3 1_555 1_555
H15_3 C19_3 1_555 1_555
C19_3 N12_2 1_555 1_555
F1_4 P1_4 1_555 1_555
F3_4 P1_4 1_555 1_555
F4_4 P1_4 1_555 1_555
P1_4 F7_2 1_555 1_555
F5_4 P1_4 1_555 1_555
F6_4 P1_4 1_555 1_555
Zn4_2 F5_4 1_555 1_555
C14_4 C13_4 1_555 1_555
H11_4 C14_4 1_555 1_555
H17_4 N7_4 1_555 1_555
N8_4 N7_4 1_555 1_555
C23_4 N8_4 1_555 1_555
H18_4 C23_4 1_555 1_555
C24_4 H19_4 1_555 1_555
C26_4 C23_4 1_555 1_555
N9_4 Zn4 1_555 1_555
C24_4 C26_4 1_555 1_555
C24_4 N9_4 1_555 1_555
C25_4 C26_4 1_555 1_555
H6_4 N2_4 1_555 1_555
N3_4 N2_4 1_555 1_555
C9_4 N3_4 1_555 1_555
H7_4 C9_4 1_555 1_555
C10_4 H8_4 1_555 1_555
C12_4 C9_4 1_555 1_555
N4_4 C10_4 1_555 1_555
Zn4_2 N4_4 1_555 1_555
C28_4 C27_4 1_555 1_555
H22_4 C28_4 1_555 1_555
C10_4 C12_4 1_555 1_555
C11_4 C12_4 1_555 1_555
C1_4 H1_4 1_555 1_555
C2_4 C1_4 1_555 1_555
C3_4 C2_4 1_555 1_555
C4_4 C3_4 1_555 1_555
C5_4 C4_4 1_555 1_555
H4_4 C5_4 1_555 1_555
C6_4 C2_4 1_555 1_555
C7_4 C6_4 1_555 1_555
H5_4 C7_4 1_555 1_555
N11 C1_4 1_555 1_555
S1_4 C7_4 1_555 1_555
C5_4 N11 1_555 1_555
C8_4 S1_4 1_555 1_555
C15_4 H12_4 1_555 1_555
C16_4 C15_4 1_555 1_555
C17_4 C16_4 1_555 1_555
C18_4 C17_4 1_555 1_555
C19_4 C18_4 1_555 1_555
H15_4 C19_4 1_555 1_555
C20_4 C16_4 1_555 1_555
C21_4 C20_4 1_555 1_555
H16_4 C21_4 1_555 1_555
N12 C15_4 1_555 1_555
S2_4 C21_4 1_555 1_555
C19_4 N12 1_555 1_555
C22_4 S2_4 1_555 1_555

#END
