
###############################################################################
#
# This file contains modified crystal structure data generated from the
# MOF subset of the Cambridge Structural Database (CSD) v543 
# hosted by the Cambridge Crystallographic Data Centre (CCDC).
#
# This work is licensed under the Creative Commons
# Attribution-NonCommercial-ShareAlike 4.0 International License.
# To view a copy of this license, visit
# http://creativecommons.org/licenses/by-nc-sa/4.0/
# or send a letter to
# Creative Commons, PO Box 1866, Mountain View, CA 94042, USA.
#
# CIF created using the CSD Python API on 29 September 2022
# The structure has been converted into the P1 space group
# The structure has a 3D framework
# The original CSD entry KUWPAV is in the triclinic crystal system
# The framework has been calculated to contain at least 10.0% void space
# The void calculation uses a probe of radius 1.32A, grid spacing 0.4
# H atom positions have been added when not included in the experimental data
# Generated hydrogen atom positions removed from atoms on special positions
#
###############################################################################

data_KUWPAV
_chemical_formula_moiety         '(C110 H76 Co8 N4 O36)n'
_symmetry_cell_setting           triclinic
_symmetry_space_group_name_H-M   'P 1'
_symmetry_Int_Tables_number      1
_space_group_name_Hall           'P 1'
loop_
_symmetry_equiv_pos_site_id
_symmetry_equiv_pos_as_xyz
1 x,y,z
_cell_length_a                   9.4950(19)
_cell_length_b                   15.284(3)
_cell_length_c                   19.639(4)
_cell_angle_alpha                109.44(3)
_cell_angle_beta                 93.93(3)
_cell_angle_gamma                103.48(3)
_cell_volume                     2580.13
loop_
_atom_site_label
_atom_site_type_symbol
_atom_site_fract_x
_atom_site_fract_y
_atom_site_fract_z
Co21 Co 0.15291(9) 0.13758(6) 0.29258(5)
Co17 Co 0.01997(11) 0.89315(7) 0.24283(6)
O5 O 0.9834(5) 0.0155(3) 0.2133(3)
O6 O 0.9112(5) 0.1432(3) 0.2740(3)
O8 O 0.3313(5) 0.0874(3) 0.2640(3)
O16 O 0.0813(6) 0.0944(3) 0.3762(3)
O19 O 0.1850(6) 0.1998(4) 0.2099(3)
N2 N 0.2811(6) 0.2718(4) 0.3701(3)
C18 C 0.8789(7) 0.0573(4) 0.2308(4)
C19 C 0.6077(7) 0.0326(4) 0.2308(4)
H9 H 0.6277 0.0927 0.2680
C22 C 0.3313(7) 0.0000(4) 0.2397(3)
H19 H 0.0342 0.1774 0.5079
C50 C 0.2262(8) 0.3294(6) 0.4215(5)
H25 H 0.1271 0.3087 0.4239
C51 C 0.3061(9) 0.4182(6) 0.4720(5)
H26 H 0.2595 0.4556 0.5056
C52 C 0.4550(7) 0.4515(4) 0.4727(3)
C53 C 0.5147(7) 0.3925(5) 0.4211(4)
H27 H 0.6145 0.4106 0.4193
C54 C 0.4257(7) 0.3046(5) 0.3711(4)
H28 H 0.4695 0.2665 0.3363
N4 N 0.7189(6) 0.7282(4) 0.6299(3)
C60 C 0.7738(8) 0.6706(6) 0.5785(5)
H33 H 0.8729 0.6913 0.5761
C61 C 0.6939(9) 0.5818(6) 0.5280(5)
H34 H 0.7405 0.5444 0.4944
C62 C 0.5450(7) 0.5485(4) 0.5273(3)
C63 C 0.4853(7) 0.6075(5) 0.5789(4)
H35 H 0.3855 0.5894 0.5807
C64 C 0.5743(7) 0.6954(5) 0.6289(4)
H36 H 0.5305 0.7335 0.6637
Co14 Co 0.09015(14) 0.40255(7) 0.73039(6)
Co23 Co 0.84709(9) 0.86242(6) 0.70742(5)
O2 O 0.0167(6) 0.5561(3) 0.1874(3)
O7 O 0.2315(5) 0.9303(3) 0.2422(3)
C2 C 0.0508(8) 0.4510(5) 0.0727(4)
C3 C 0.0137(9) 0.3576(5) 0.0203(4)
C7 C 0.2457(8) 0.5059(5) 0.0089(4)
C8 C 0.1664(8) 0.5229(5) 0.0664(4)
H3 H 0.1908 0.5843 0.1022
C9 C 0.3665(8) 0.5852(5) 0.0028(4)
C13 C 0.5148(7) 0.7540(5) 0.0527(4)
C14 C 0.4025(7) 0.6782(5) 0.0576(4)
H7 H 0.3520 0.6896 0.0972
C15 C 0.5459(7) 0.8516(5) 0.1138(4)
C16 C 0.6929(7) 0.9106(5) 0.1414(4)
H8 H 0.7702 0.8895 0.1212
C17 C 0.7218(6) 0.9987(4) 0.1980(4)
C20 C 0.4608(7) 0.9726(4) 0.2056(4)
C21 C 0.4350(7) 0.8839(5) 0.1479(4)
H10 H 0.3391 0.8450 0.1319
C22_2 C 0.3313(7) 1.0000(4) 0.2397(3)
O45 O 0.0497(5) 0.3457(3) 0.2304(3)
O50 O 0.0567(6) 0.7873(4) 0.2952(3)
O52 O 0.0038(7) 0.7001(4) 0.3644(3)
O4 O 0.0884(6) 0.2257(3) 0.8404(3)
C4 C 0.0909(8) 0.3375(5) 0.9606(4)
C5 C 0.0444(8) 0.2380(6) 0.9043(4)
C6 C 0.2053(8) 0.4109(5) 0.9561(4)
H2 H 0.2568 0.3969 0.9170
C10 C 0.4421(9) 0.5717(5) 0.9428(4)
H4 H 0.4177 0.5120 0.9050
C11 C 0.5517(9) 0.6458(5) 0.9396(4)
H5 H 0.6021 0.6349 0.9000
C12 C 0.5899(8) 0.7376(5) 0.9943(4)
H6 H 0.6652 0.7868 0.9913
O31 O 0.0199(5) 0.5315(4) 0.7018(3)
Co10 Co 0.19514(10) 0.64494(6) 0.77928(5)
O13 O 0.9433(6) 0.2127(4) 0.7048(3)
O14 O 0.9962(7) 0.2999(4) 0.6356(3)
C38 C 0.7747(8) 0.0584(5) 0.5723(4)
H18 H 0.7342 0.0628 0.6147
C39 C 0.8927(9) 0.1345(5) 0.5726(4)
C40 C 0.9464(9) 0.2220(6) 0.6422(5)
C41 C 0.9574(8) 0.1273(5) 0.5085(4)
C42 C 0.9034(8) 0.0431(4) 0.4460(4)
C44 C 0.9773(7) 0.0287(5) 0.3789(4)
Co20 Co 0.98003(11) 0.10685(7) 0.75717(6)
Co1 Co 0.80486(10) 0.35506(6) 0.22072(5)
Co2 Co 0.90985(14) 0.59745(7) 0.26961(6)
O1 O 0.8636(6) 0.4071(4) 0.1398(3)
O9 O 0.6152(6) 0.3968(4) 0.2419(3)
O10 O 0.7461(6) 0.5389(5) 0.3121(4)
O15 O 0.9240(6) 0.9459(3) 0.3265(3)
O17 O 0.7768(6) 0.2903(4) 0.3029(3)
O18 O 0.7692(8) 0.6499(5) 0.2173(4)
N1 N 0.6945(6) 0.2214(4) 0.1411(3)
C1 C 0.9713(9) 0.4737(5) 0.1387(4)
H1 H 0.9389 0.3093 0.0247
C23 C 0.6252(8) 0.4790(6) 0.2844(4)
C24 C 0.4961(7) 0.5121(5) 0.3101(4)
C25 C 0.3513(8) 0.4526(5) 0.2814(4)
H11 H 0.3339 0.3913 0.2461
C26 C 0.2390(7) 0.4875(5) 0.3066(4)
C27 C 0.0815(7) 0.4294(5) 0.2771(4)
C28 C 0.2643(8) 0.5785(5) 0.3635(4)
H12 H 0.1853 0.5995 0.3815
C29 C 0.4075(8) 0.6369(5) 0.3927(4)
C30 C 0.5217(8) 0.6020(5) 0.3649(4)
H13 H 0.6178 0.6397 0.3832
C31 C 0.4351(8) 0.7317(5) 0.4515(4)
C32 C 0.3417(9) 0.7505(5) 0.5039(4)
H14 H 0.2591 0.7026 0.5022
C33 C 0.3732(9) 0.8407(6) 0.5580(4)
H15 H 0.3118 0.8521 0.5930
C34 C 0.4949(9) 0.9157(5) 0.5619(4)
H16 H 0.5121 0.9764 0.5981
C35 C 0.5909(8) 0.8979(5) 0.5103(4)
C36 C 0.5567(8) 0.8061(5) 0.4564(4)
H17 H 0.6187 0.7940 0.4218
C37 C 0.7197(8) 0.9791(5) 0.5110(4)
C43 C 0.7857(8) 0.9706(5) 0.4478(4)
H20 H 0.7496 0.9152 0.4063
C45 C 0.7620(7) 0.1745(5) 0.0899(4)
H21 H 0.8613 0.2009 0.0912
C46 C 0.6901(8) 0.0873(5) 0.0340(4)
C47 C 0.5422(7) 0.0461(4) 0.0305(4)
C48 C 0.4730(8) 0.0952(5) 0.0848(4)
H23 H 0.3738 0.0701 0.0848
C49 C 0.5510(8) 0.1817(5) 0.1393(4)
H24 H 0.5028 0.2131 0.1755
O40 O 0.9116(6) 0.7743(3) 0.1596(3)
O47 O 0.9801(5) 0.4685(4) 0.2982(3)
O3 O 0.9668(9) 0.1713(4) 0.9163(5)
H22 H 0.7416 0.0567 0.9992
H30 H 0.2584 0.9433 0.0008
O22 O 0.0332(9) 0.8287(4) 0.0837(5)
N3 N 0.3055(6) 0.7786(4) 0.8589(3)
C55 C 0.2380(7) 0.8255(5) 0.9101(4)
H29 H 0.1387 0.7991 0.9088
C56 C 0.3099(8) 0.9127(5) 0.9660(4)
C57 C 0.4578(7) 0.9539(4) 0.9695(4)
C58 C 0.5270(8) 0.9048(5) 0.9152(4)
H31 H 0.6262 0.9299 0.9152
C59 C 0.4490(8) 0.8183(5) 0.8607(4)
H32 H 0.4972 0.7869 0.8245
O20 O 0.1364(6) 0.5929(4) 0.8602(3)
O28 O 0.3848(6) 0.6032(4) 0.7581(3)
O29 O 0.2539(6) 0.4611(5) 0.6879(4)
O30 O 0.9503(5) 0.6543(3) 0.7696(3)
O34 O 0.0760(6) 0.0541(3) 0.6735(3)
O36 O 0.2232(6) 0.7097(4) 0.6971(3)
O37 O 0.2308(8) 0.3501(5) 0.7827(4)
C65 C 0.0287(9) 0.5263(5) 0.8613(4)
H37 H 0.0611 0.6907 0.9753
C87 C 0.3748(8) 0.5210(6) 0.7156(4)
C88 C 0.5039(7) 0.4879(5) 0.6899(4)
C89 C 0.6487(8) 0.5474(5) 0.7186(4)
H47 H 0.6661 0.6087 0.7539
C90 C 0.7610(7) 0.5125(5) 0.6934(4)
C91 C 0.9185(7) 0.5706(5) 0.7229(4)
C92 C 0.7357(8) 0.4215(5) 0.6365(4)
H48 H 0.8147 0.4005 0.6185
C93 C 0.5925(8) 0.3631(5) 0.6073(4)
C94 C 0.4783(8) 0.3980(5) 0.6351(4)
H49 H 0.3822 0.3603 0.6168
C95 C 0.5649(8) 0.2683(5) 0.5485(4)
C96 C 0.6583(9) 0.2495(5) 0.4961(4)
H50 H 0.7409 0.2974 0.4978
C97 C 0.6268(9) 0.1593(6) 0.4420(4)
H51 H 0.6882 0.1479 0.4070
C98 C 0.5051(9) 0.0843(5) 0.4381(4)
H52 H 0.4879 0.0236 0.4019
C99 C 0.4091(8) 0.1021(5) 0.4897(4)
C100 C 0.4433(8) 0.1939(5) 0.5436(4)
H53 H 0.3813 0.2060 0.5782
C101 C 0.2803(8) 0.0209(5) 0.4890(4)
C107 C 0.2143(8) 0.0294(5) 0.5522(4)
H56 H 0.2504 0.0848 0.5937
C102 C 0.2253(8) 0.9416(5) 0.4277(4)
H54 H 0.2658 0.9372 0.3853
C103 C 0.1073(9) 0.8655(5) 0.4274(4)
C104 C 0.0536(9) 0.7780(6) 0.3578(5)
C105 C 0.0426(8) 0.8727(5) 0.4915(4)
C106 C 0.0966(8) 0.9569(4) 0.5540(4)
C108 C 0.0227(7) 0.9713(5) 0.6211(4)
O42 O 0.0166(5) 0.9845(3) 0.7867(3)
O44 O 0.0888(5) 0.8568(3) 0.7260(3)
C68 C 0.9091(8) 0.6625(5) 0.0394(4)
C69 C 0.9556(8) 0.7620(6) 0.0957(4)
C70 C 0.7947(8) 0.5891(5) 0.0439(4)
H38 H 0.7432 0.6031 0.0830
C74 C 0.5579(9) 0.4283(5) 0.0572(4)
H40 H 0.5823 0.4880 0.0950
C75 C 0.4483(9) 0.3542(5) 0.0604(4)
H41 H 0.3979 0.3651 0.1000
C76 C 0.4101(8) 0.2624(5) 0.0057(4)
H42 H 0.3348 0.2132 0.0087
O21 O 0.9833(6) 0.4439(3) 0.8126(3)
O26 O 0.7685(5) 0.0697(3) 0.7578(3)
C66 C 0.9492(8) 0.5490(5) 0.9273(4)
C67 C 0.9863(9) 0.6424(5) 0.9797(4)
C71 C 0.7543(8) 0.4941(5) 0.9911(4)
C72 C 0.8336(8) 0.4771(5) 0.9336(4)
H39 H 0.8092 0.4157 0.8978
C73 C 0.6335(8) 0.4148(5) 0.9972(4)
C77 C 0.4852(7) 0.2460(5) 0.9473(4)
C78 C 0.5975(7) 0.3218(5) 0.9424(4)
H43 H 0.6480 0.3104 0.9028
C79 C 0.4541(7) 0.1484(5) 0.8862(4)
C80 C 0.3071(7) 0.0894(5) 0.8586(4)
H44 H 0.2298 0.1105 0.8788
C81 C 0.2782(6) 0.0013(4) 0.8020(4)
C84 C 0.5392(7) 0.0274(4) 0.7944(4)
C85 C 0.5650(7) 0.1161(5) 0.8521(4)
H46 H 0.6609 0.1550 0.8681
C86 C 0.6687(7) 0.0000(4) 0.7603(3)
O27 O 0.6687(5) 0.9126(3) 0.7360(3)
O35 O 0.9187(6) 0.9056(3) 0.6238(3)
O38 O 0.8150(6) 0.8002(4) 0.7901(3)
C82 C 0.1211(7) 0.9427(4) 0.7692(4)
C83 C 0.3923(7) 0.9674(4) 0.7692(4)
H45 H 0.3723 0.9073 0.7320
C86_2 C 0.6687(7) 1.0000(4) 0.7603(3)
H55 H 0.9658 0.8226 0.4921
loop_
_geom_bond_atom_site_label_1
_geom_bond_atom_site_label_2
_geom_bond_site_symmetry_1
_geom_bond_site_symmetry_2
Co21 O8 1_555 1_555
O5 C18 1_555 1_555
O6 C18 1_555 1_555
O8 C22 1_555 1_555
O16 Co21 1_555 1_555
O19 Co21 1_555 1_555
N2 Co21 1_555 1_555
H9 C19 1_555 1_555
C50 N2 1_555 1_555
H25 C50 1_555 1_555
C51 C50 1_555 1_555
H26 C51 1_555 1_555
C52 C51 1_555 1_555
C53 C52 1_555 1_555
H27 C53 1_555 1_555
C54 N2 1_555 1_555
H28 C54 1_555 1_555
N4 C60 1_555 1_555
C60 H33 1_555 1_555
C61 C60 1_555 1_555
H34 C61 1_555 1_555
C62 C52 1_555 1_555
C63 C62 1_555 1_555
H35 C63 1_555 1_555
C64 N4 1_555 1_555
H36 C64 1_555 1_555
Co23 N4 1_555 1_555
C53 C54 1_555 1_555
C61 C62 1_555 1_555
C63 C64 1_555 1_555
Co17 O7 1_555 1_555
O7 C22_2 1_555 1_555
C2 C3 1_555 1_555
C8 C2 1_555 1_555
H3 C8 1_555 1_555
C9 C7 1_555 1_555
C14 C9 1_555 1_555
H7 C14 1_555 1_555
C15 C13 1_555 1_555
C16 C15 1_555 1_555
H8 C16 1_555 1_555
C17 C16 1_555 1_555
C21 C15 1_555 1_555
H10 C21 1_555 1_555
C22_2 C20 1_555 1_555
O50 Co17 1_555 1_555
C7 C8 1_555 1_555
C13 C14 1_555 1_555
C20 C21 1_555 1_555
O4 C5 1_555 1_555
C5 C4 1_555 1_555
C6 C4 1_555 1_555
H2 C6 1_555 1_555
H4 C10 1_555 1_555
C11 C10 1_555 1_555
H5 C11 1_555 1_555
C12 C11 1_555 1_555
H6 C12 1_555 1_555
Co14 O31 1_555 1_555
O31 Co10 1_555 1_555
O13 C40 1_555 1_555
O14 C40 1_555 1_555
H18 C38 1_555 1_555
C39 C38 1_555 1_555
C40 C39 1_555 1_555
C41 C39 1_555 1_555
C42 C41 1_555 1_555
Co20 O13 1_555 1_555
C42 C44 1_555 1_555
Co1 O1 1_555 1_555
O1 C1 1_555 1_555
O9 Co1 1_555 1_555
O10 Co2 1_555 1_555
O45 C27 1_555 1_555
O17 Co1 1_555 1_555
O18 Co2 1_555 1_555
N1 Co1 1_555 1_555
C23 O9 1_555 1_555
C24 C23 1_555 1_555
C25 C24 1_555 1_555
H11 C25 1_555 1_555
C26 C25 1_555 1_555
C27 C26 1_555 1_555
C28 C26 1_555 1_555
H12 C28 1_555 1_555
C29 C28 1_555 1_555
C30 C24 1_555 1_555
H13 C30 1_555 1_555
C31 C29 1_555 1_555
C32 C31 1_555 1_555
H14 C32 1_555 1_555
C33 C32 1_555 1_555
H15 C33 1_555 1_555
C34 C33 1_555 1_555
H16 C34 1_555 1_555
C35 C34 1_555 1_555
C36 C31 1_555 1_555
H17 C36 1_555 1_555
C37 C35 1_555 1_555
C43 C37 1_555 1_555
H20 C43 1_555 1_555
C45 N1 1_555 1_555
H21 C45 1_555 1_555
C46 C45 1_555 1_555
C47 C46 1_555 1_555
C48 C47 1_555 1_555
H23 C48 1_555 1_555
C49 N1 1_555 1_555
H24 C49 1_555 1_555
O47 Co1 1_555 1_555
Co2 O47 1_555 1_555
O10 C23 1_555 1_555
C29 C30 1_555 1_555
C35 C36 1_555 1_555
C48 C49 1_555 1_555
N3 C55 1_555 1_555
C55 H29 1_555 1_555
C56 C55 1_555 1_555
C58 C57 1_555 1_555
H31 C58 1_555 1_555
C59 N3 1_555 1_555
H32 C59 1_555 1_555
Co10 N3 1_555 1_555
O20 Co10 1_555 1_555
O28 Co10 1_555 1_555
O29 Co14 1_555 1_555
O30 C91 1_555 1_555
O36 Co10 1_555 1_555
O37 Co14 1_555 1_555
C65 O20 1_555 1_555
C87 O28 1_555 1_555
C88 C87 1_555 1_555
C89 C88 1_555 1_555
H47 C89 1_555 1_555
C90 C89 1_555 1_555
C91 C90 1_555 1_555
C92 C90 1_555 1_555
H48 C92 1_555 1_555
C93 C92 1_555 1_555
C94 C88 1_555 1_555
H49 C94 1_555 1_555
C95 C93 1_555 1_555
C96 C95 1_555 1_555
H50 C96 1_555 1_555
C97 C96 1_555 1_555
H51 C97 1_555 1_555
C98 C97 1_555 1_555
H52 C98 1_555 1_555
C99 C98 1_555 1_555
C100 C95 1_555 1_555
H53 C100 1_555 1_555
C101 C99 1_555 1_555
C107 C101 1_555 1_555
H56 C107 1_555 1_555
C56 C57 1_555 1_555
C58 C59 1_555 1_555
O29 C87 1_555 1_555
C93 C94 1_555 1_555
C99 C100 1_555 1_555
O50 C104 1_555 1_555
O52 C104 1_555 1_555
H54 C102 1_555 1_555
C103 C102 1_555 1_555
C104 C103 1_555 1_555
C105 C103 1_555 1_555
C106 C105 1_555 1_555
C106 C108 1_555 1_555
O40 C69 1_555 1_555
C69 C68 1_555 1_555
C70 C68 1_555 1_555
H38 C70 1_555 1_555
H40 C74 1_555 1_555
C75 C74 1_555 1_555
H41 C75 1_555 1_555
C76 C75 1_555 1_555
H42 C76 1_555 1_555
Co20 O26 1_555 1_555
O26 C86 1_555 1_555
C67 C66 1_555 1_555
C72 C66 1_555 1_555
H39 C72 1_555 1_555
C73 C71 1_555 1_555
C78 C73 1_555 1_555
H43 C78 1_555 1_555
C79 C77 1_555 1_555
C80 C79 1_555 1_555
H44 C80 1_555 1_555
C81 C80 1_555 1_555
C85 C79 1_555 1_555
H46 C85 1_555 1_555
C86 C84 1_555 1_555
C71 C72 1_555 1_555
C77 C78 1_555 1_555
C84 C85 1_555 1_555
Co23 O27 1_555 1_555
O42 C82 1_555 1_555
O44 C82 1_555 1_555
O27 C86_2 1_555 1_555
O35 Co23 1_555 1_555
O38 Co23 1_555 1_555
H45 C83 1_555 1_555

#END
