
###############################################################################
#
# This file contains modified crystal structure data generated from the
# MOF subset of the Cambridge Structural Database (CSD) v543 
# hosted by the Cambridge Crystallographic Data Centre (CCDC).
#
# This work is licensed under the Creative Commons
# Attribution-NonCommercial-ShareAlike 4.0 International License.
# To view a copy of this license, visit
# http://creativecommons.org/licenses/by-nc-sa/4.0/
# or send a letter to
# Creative Commons, PO Box 1866, Mountain View, CA 94042, USA.
#
# CIF created using the CSD Python API on 29 September 2022
# The structure has been converted into the P1 space group
# The structure has a 3D framework
# The original CSD entry KUXSIH03 is in the hexagonal crystal system
# The framework has been calculated to contain at least 10.0% void space
# The void calculation uses a probe of radius 1.32A, grid spacing 0.4
#
###############################################################################

data_KUXSIH03
_chemical_formula_moiety         '(C84 H48 Fe6 N12 O25)n'
_symmetry_cell_setting           triclinic
_symmetry_space_group_name_H-M   'P 1'
_symmetry_Int_Tables_number      1
_space_group_name_Hall           'P 1'
loop_
_symmetry_equiv_pos_site_id
_symmetry_equiv_pos_as_xyz
1 x,y,z
_cell_length_a                   16.7722(6)
_cell_length_b                   16.7722(6)
_cell_length_c                   15.0089(7)
_cell_angle_alpha                90
_cell_angle_beta                 90
_cell_angle_gamma                120
_cell_volume                     3656.45
loop_
_atom_site_label
_atom_site_type_symbol
_atom_site_fract_x
_atom_site_fract_y
_atom_site_fract_z
Fe1 Fe 0.26745(2) 0.53491(4) 0.7500
O1 O 0.34536(12) 0.52176(11) 0.65574(12)
O2 O 0.3333 0.6667 0.7500
N1 N 0.19263(12) 0.3853(2) 0.7500
C1 C 0.46419(12) 0.53581(12) 0.5614(2)
C2 C 0.42620(11) 0.57380(11) 0.6290(2)
C3 C 0.41056(19) 0.44629(19) 0.5310(2)
H1 H 0.3507 0.4101 0.5519
C4 C 0.09605(19) 0.1921(4) 0.7500
N2 N 0.0949(3) 0.04744(17) 0.7500
C5 C 0.2364(3) 0.3359(3) 0.7500
H2 H 0.3005 0.3679 0.7500
C6 C 0.1914(3) 0.2404(3) 0.7500
H3 H 0.2245 0.2095 0.7500
C7 C 0.0449(2) 0.0898(4) 0.7500
O3 O 0.52176(11) 0.34536(12) 0.34426(12)
C8 C 0.53581(12) 0.46419(12) 0.4386(2)
C9 C 0.57380(11) 0.42620(11) 0.3710(2)
C10 C 0.44629(19) 0.41056(19) 0.4690(2)
H4 H 0.4101 0.3507 0.4481
O4 O 0.65464(12) 0.47824(11) 0.34426(12)
C11 C 0.58944(19) 0.55371(19) 0.4690(2)
H5 H 0.6493 0.5899 0.4481
O5 O 0.47824(11) 0.65464(12) 0.65574(12)
C12 C 0.55371(19) 0.58944(19) 0.5310(2)
H6 H 0.5899 0.6493 0.5519
C21 C 0.0995(4) 0.3359(3) 0.7500
H11 H 0.0674 0.3679 0.7500
C22 C 0.0490(4) 0.2404(3) 0.7500
H14 H 0.2245 0.0150 0.7500
Fe5 Fe 0.46509(4) 0.73254(4) 0.7500
Fe7 Fe 0.26746(4) 0.73255(2) 0.7500
Fe9 Fe 0.73255(2) 0.46509(4) 0.2500
Fe11 Fe 0.53491(4) 0.26746(4) 0.2500
O15 O 0.17640(16) 0.52176(11) 0.84426(12)
O17 O 0.34536(12) 0.52176(11) 0.84426(12)
O21 O 0.17640(16) 0.52176(11) 0.65574(12)
N5 N 0.19267(23) 0.80737(12) 0.7500
C17 C 0.09605(44) 0.90395(19) 0.7500
C18 C 0.0995(4) 0.7636(3) 0.7500
H9 H 0.0674 0.6995 0.7500
C19 C 0.0490(4) 0.8086(3) 0.7500
C20 C 0.0449(4) 0.9551(2) 0.7500
C23 C 0.2364(3) 0.9005(4) 0.7500
H13 H 0.3005 0.9326 0.7500
C24 C 0.1914(3) 0.9510(4) 0.7500
O10 O 0.17640(16) 0.65464(12) 0.65574(12)
C35 C 0.07162(17) 0.53581(12) 0.5614(2)
C36 C 0.14760(16) 0.57380(11) 0.6290(2)
C37 C 0.03573(27) 0.58944(19) 0.5310(2)
H21 H 0.0594 0.6493 0.5519
C42 C 0.03573(27) 0.44629(19) 0.5310(2)
H24 H 0.0594 0.4101 0.5519
O16 O 0.34536(12) 0.82360(16) 0.84426(12)
O19 O 0.17640(16) 0.65464(12) 0.84426(12)
O22 O 0.34536(12) 0.82360(16) 0.65574(12)
N4 N 0.95256(17) 0.04746(34) 0.7500
H8 H 0.7905 0.0150 0.7500
H12 H 0.9850 0.2095 0.7500
O7 O 0.65464(12) 0.17640(16) 0.34426(12)
C30 C 0.53581(12) 0.07162(17) 0.4386(2)
C31 C 0.57380(11) 0.14760(16) 0.3710(2)
C32 C 0.58944(19) 0.03573(27) 0.4690(2)
H18 H 0.6493 0.0594 0.4481
O8 O 0.52176(11) 0.17640(16) 0.34426(12)
C33 C 0.44629(19) 0.03573(27) 0.4690(2)
H19 H 0.4101 0.0594 0.4481
Fe13 Fe 0.73254(4) 0.26745(2) 0.2500
N3 N 0.6147(2) 0.80733(23) 0.7500
C13 C 0.8079(4) 0.90395(44) 0.7500
C14 C 0.6641(3) 0.9005(4) 0.7500
H7 H 0.6321 0.9326 0.7500
C15 C 0.7596(3) 0.9510(4) 0.7500
C16 C 0.9102(4) 0.9551(4) 0.7500
N6 N 0.95254(34) 0.9051(3) 0.7500
H10 H 0.9850 0.7755 0.7500
C25 C 0.6641(3) 0.7636(3) 0.7500
H15 H 0.6321 0.6995 0.7500
C26 C 0.7596(3) 0.8086(3) 0.7500
H16 H 0.7905 0.7755 0.7500
O6 O 0.47824(11) 0.82360(16) 0.65574(12)
C27 C 0.46419(12) 0.92838(17) 0.5614(2)
C28 C 0.42620(11) 0.85240(16) 0.6290(2)
C29 C 0.55371(19) 0.96427(27) 0.5310(2)
H17 H 0.5899 0.9406 0.5519
C34 C 0.41056(19) 0.96427(27) 0.5310(2)
H20 H 0.3507 0.9406 0.5519
O11 O 0.82360(16) 0.47824(11) 0.34426(12)
C38 C 0.92838(17) 0.46419(12) 0.4386(2)
C39 C 0.85240(16) 0.42620(11) 0.3710(2)
C40 C 0.96427(27) 0.55371(19) 0.4690(2)
H22 H 0.9406 0.5899 0.4481
O12 O 0.82360(16) 0.34536(12) 0.34426(12)
C41 C 0.96427(27) 0.41056(19) 0.4690(2)
H23 H 0.9406 0.3507 0.4481
O14 O 0.47824(11) 0.65464(12) 0.84426(12)
O18 O 0.47824(11) 0.82360(16) 0.84426(12)
N3_2 N 0.3853(2) 0.19267(23) 0.2500
C13_2 C 0.1921(4) 0.09605(44) 0.2500
C14_2 C 0.3359(3) 0.0995(4) 0.2500
H7_2 H 0.3679 0.0674 0.2500
C15_2 C 0.2404(3) 0.0490(4) 0.2500
C16_2 C 0.0898(4) 0.0449(4) 0.2500
N6_2 N 0.04746(34) 0.0949(3) 0.2500
H10_2 H 0.0150 0.2245 0.2500
C25_2 C 0.3359(3) 0.2364(3) 0.2500
H15_2 H 0.3679 0.3005 0.2500
C26_2 C 0.2404(3) 0.1914(3) 0.2500
H16_2 H 0.2095 0.2245 0.2500
O6_2 O 0.52176(11) 0.17640(16) 0.15574(12)
C27_2 C 0.53581(12) 0.07162(17) 0.0614(2)
C28_2 C 0.57380(11) 0.14760(16) 0.1290(2)
C29_2 C 0.44629(19) 0.03573(27) 0.0310(2)
H17_2 H 0.4101 0.0594 0.0519
O9 O 0.65464(12) 0.17640(16) 0.15574(12)
C34_2 C 0.58944(19) 0.03573(27) 0.0310(2)
H20_2 H 0.6493 0.0594 0.0519
O20 O 0.52176(11) 0.34536(12) 0.15574(12)
O23 O 0.6667 0.3333 0.2500
C38_2 C 0.07162(17) 0.53581(12) 0.9386(2)
C39_2 C 0.14760(16) 0.57380(11) 0.8710(2)
C40_2 C 0.03573(27) 0.44629(19) 0.9690(2)
H22_2 H 0.0594 0.4101 0.9481
C41_2 C 0.03573(27) 0.58944(19) 0.9690(2)
H23_2 H 0.0594 0.6493 0.9481
N4_2 N 0.04744(17) 0.95254(34) 0.2500
H8_2 H 0.2095 0.9850 0.2500
H12_2 H 0.0150 0.7905 0.2500
C30_2 C 0.46419(12) 0.92838(17) 0.9386(2)
C31_2 C 0.42620(11) 0.85240(16) 0.8710(2)
C32_2 C 0.41056(19) 0.96427(27) 0.9690(2)
H18_2 H 0.3507 0.9406 0.9481
C33_2 C 0.55371(19) 0.96427(27) 0.9690(2)
H19_2 H 0.5899 0.9406 0.9481
N5_2 N 0.80733(23) 0.19263(12) 0.2500
C17_2 C 0.90395(44) 0.09605(19) 0.2500
C18_2 C 0.9005(4) 0.2364(3) 0.2500
H9_2 H 0.9326 0.3005 0.2500
C19_2 C 0.9510(4) 0.1914(3) 0.2500
C20_2 C 0.9551(4) 0.0449(2) 0.2500
C23_2 C 0.7636(3) 0.0995(4) 0.2500
H13_2 H 0.6995 0.0674 0.2500
C24_2 C 0.8086(3) 0.0490(4) 0.2500
O10_2 O 0.82360(16) 0.34536(12) 0.15574(12)
C35_2 C 0.92838(17) 0.46419(12) 0.0614(2)
C36_2 C 0.85240(16) 0.42620(11) 0.1290(2)
C37_2 C 0.96427(27) 0.41056(19) 0.0310(2)
H21_2 H 0.9406 0.3507 0.0519
O13 O 0.82360(16) 0.47824(11) 0.15574(12)
C42_2 C 0.96427(27) 0.55371(19) 0.0310(2)
H24_2 H 0.9406 0.5899 0.0519
O1_2 O 0.65464(12) 0.47824(11) 0.15574(12)
N1_2 N 0.80737(12) 0.6147(2) 0.2500
C1_2 C 0.53581(12) 0.46419(12) 0.0614(2)
C2_2 C 0.57380(11) 0.42620(11) 0.1290(2)
C3_2 C 0.58944(19) 0.55371(19) 0.0310(2)
H1_2 H 0.6493 0.5899 0.0519
C4_2 C 0.90395(19) 0.8079(4) 0.2500
N2_2 N 0.9051(3) 0.95256(17) 0.2500
C5_2 C 0.7636(3) 0.6641(3) 0.2500
H2_2 H 0.6995 0.6321 0.2500
C6_2 C 0.8086(3) 0.7596(3) 0.2500
H3_2 H 0.7755 0.7905 0.2500
C7_2 C 0.9551(2) 0.9102(4) 0.2500
C12_2 C 0.44629(19) 0.41056(19) 0.0310(2)
H6_2 H 0.4101 0.3507 0.0519
C21_2 C 0.9005(4) 0.6641(3) 0.2500
H11_2 H 0.9326 0.6321 0.2500
C22_2 C 0.9510(4) 0.7596(3) 0.2500
H14_2 H 0.7755 0.9850 0.2500
C8_2 C 0.46419(12) 0.53581(12) 0.9386(2)
C9_2 C 0.42620(11) 0.57380(11) 0.8710(2)
C10_2 C 0.55371(19) 0.58944(19) 0.9690(2)
H4_2 H 0.5899 0.6493 0.9481
C11_2 C 0.41056(19) 0.44629(19) 0.9690(2)
H5_2 H 0.3507 0.4101 0.9481
loop_
_geom_bond_atom_site_label_1
_geom_bond_atom_site_label_2
_geom_bond_site_symmetry_1
_geom_bond_site_symmetry_2
Fe1 O1 1_555 1_555
O1 C2 1_555 1_555
O2 Fe1 1_555 1_555
N1 Fe1 1_555 1_555
C1 C2 1_555 1_555
C2 O5 1_555 1_555
C3 C1 1_555 1_555
H1 C3 1_555 1_555
C4 C6 1_555 1_555
N2 C7 1_555 1_555
C5 N1 1_555 1_555
H2 C5 1_555 1_555
C6 C5 1_555 1_555
H3 C6 1_555 1_555
C7 C4 1_555 1_555
O3 C9 1_555 1_555
C8 C9 1_555 1_555
C9 O4 1_555 1_555
C10 C3 1_555 1_555
H4 C10 1_555 1_555
O4 Fe9 1_555 1_555
C11 C8 1_555 1_555
H5 C11 1_555 1_555
O5 Fe5 1_555 1_555
C12 C1 1_555 1_555
H6 C12 1_555 1_555
C21 N1 1_555 1_555
H11 C21 1_555 1_555
C22 C4 1_555 1_555
Fe5 O2 1_555 1_555
Fe7 O2 1_555 1_555
Fe11 O3 1_555 1_555
O15 Fe1 1_555 1_555
O17 Fe1 1_555 1_555
O21 Fe1 1_555 1_555
C8 C10 1_555 1_555
C11 C12 1_555 1_555
C21 C22 1_555 1_555
N5 C18 1_555 1_555
C17 C19 1_555 1_555
C18 H9 1_555 1_555
C19 C18 1_555 1_555
C23 N5 1_555 1_555
H13 C23 1_555 1_555
C24 C17 1_555 1_555
Fe7 N5 1_555 1_555
O10 Fe7 1_555 1_555
C35 C36 1_555 1_555
C36 O10 1_555 1_555
C37 C35 1_555 1_555
H21 C37 1_555 1_555
O21 C36 1_555 1_555
C42 C35 1_555 1_555
H24 C42 1_555 1_555
O16 Fe7 1_555 1_555
O19 Fe7 1_555 1_555
O22 Fe7 1_555 1_555
C17 C20 1_555 1_555
C23 C24 1_555 1_555
O7 C31 1_555 1_555
C30 C31 1_555 1_555
C31 O8 1_555 1_555
H18 C32 1_555 1_555
O8 Fe11 1_555 1_555
C33 C30 1_555 1_555
H19 C33 1_555 1_555
Fe13 O7 1_555 1_555
C30 C32 1_555 1_555
N3 C14 1_555 1_555
C13 C15 1_555 1_555
C14 H7 1_555 1_555
C15 C14 1_555 1_555
C16 C13 1_555 1_555
N6 C16 1_555 1_555
C25 N3 1_555 1_555
H15 C25 1_555 1_555
C26 C13 1_555 1_555
H16 C26 1_555 1_555
Fe5 N3 1_555 1_555
O6 Fe5 1_555 1_555
C27 C28 1_555 1_555
C28 O6 1_555 1_555
C29 C27 1_555 1_555
H17 C29 1_555 1_555
O22 C28 1_555 1_555
C34 C27 1_555 1_555
H20 C34 1_555 1_555
O11 C39 1_555 1_555
C38 C39 1_555 1_555
C39 O12 1_555 1_555
H22 C40 1_555 1_555
O12 Fe13 1_555 1_555
C41 C38 1_555 1_555
H23 C41 1_555 1_555
Fe9 O11 1_555 1_555
O14 Fe5 1_555 1_555
O18 Fe5 1_555 1_555
C25 C26 1_555 1_555
C38 C40 1_555 1_555
N3_2 C14_2 1_555 1_555
C13_2 C15_2 1_555 1_555
C14_2 H7_2 1_555 1_555
C15_2 C14_2 1_555 1_555
C16_2 C13_2 1_555 1_555
N6_2 C16_2 1_555 1_555
C25_2 N3_2 1_555 1_555
H15_2 C25_2 1_555 1_555
C26_2 C13_2 1_555 1_555
H16_2 C26_2 1_555 1_555
Fe11 N3_2 1_555 1_555
O6_2 Fe11 1_555 1_555
C27_2 C28_2 1_555 1_555
C28_2 O6_2 1_555 1_555
C29_2 C27_2 1_555 1_555
H17_2 C29_2 1_555 1_555
O9 C28_2 1_555 1_555
C34_2 C27_2 1_555 1_555
H20_2 C34_2 1_555 1_555
Fe13 O9 1_555 1_555
O20 Fe11 1_555 1_555
O23 Fe11 1_555 1_555
C25_2 C26_2 1_555 1_555
Fe13 O23 1_555 1_555
O15 C39_2 1_555 1_555
C38_2 C39_2 1_555 1_555
C39_2 O19 1_555 1_555
H22_2 C40_2 1_555 1_555
C41_2 C38_2 1_555 1_555
H23_2 C41_2 1_555 1_555
C38_2 C40_2 1_555 1_555
O16 C31_2 1_555 1_555
C30_2 C31_2 1_555 1_555
C31_2 O18 1_555 1_555
H18_2 C32_2 1_555 1_555
C33_2 C30_2 1_555 1_555
H19_2 C33_2 1_555 1_555
C30_2 C32_2 1_555 1_555
N5_2 C18_2 1_555 1_555
C17_2 C19_2 1_555 1_555
C18_2 H9_2 1_555 1_555
C19_2 C18_2 1_555 1_555
C23_2 N5_2 1_555 1_555
H13_2 C23_2 1_555 1_555
C24_2 C17_2 1_555 1_555
Fe13 N5_2 1_555 1_555
O10_2 Fe13 1_555 1_555
C35_2 C36_2 1_555 1_555
C36_2 O10_2 1_555 1_555
C37_2 C35_2 1_555 1_555
H21_2 C37_2 1_555 1_555
O13 C36_2 1_555 1_555
C42_2 C35_2 1_555 1_555
H24_2 C42_2 1_555 1_555
Fe9 O13 1_555 1_555
C17_2 C20_2 1_555 1_555
C23_2 C24_2 1_555 1_555
Fe9 O23 1_555 1_555
Fe9 O1_2 1_555 1_555
O1_2 C2_2 1_555 1_555
N1_2 Fe9 1_555 1_555
C1_2 C2_2 1_555 1_555
C2_2 O20 1_555 1_555
C3_2 C1_2 1_555 1_555
H1_2 C3_2 1_555 1_555
C4_2 C6_2 1_555 1_555
N2_2 C7_2 1_555 1_555
C5_2 N1_2 1_555 1_555
H2_2 C5_2 1_555 1_555
C6_2 C5_2 1_555 1_555
H3_2 C6_2 1_555 1_555
C7_2 C4_2 1_555 1_555
C12_2 C1_2 1_555 1_555
H6_2 C12_2 1_555 1_555
C21_2 N1_2 1_555 1_555
H11_2 C21_2 1_555 1_555
C22_2 C4_2 1_555 1_555
C21_2 C22_2 1_555 1_555
O14 C9_2 1_555 1_555
C8_2 C9_2 1_555 1_555
C9_2 O17 1_555 1_555
H4_2 C10_2 1_555 1_555
C11_2 C8_2 1_555 1_555
H5_2 C11_2 1_555 1_555
C8_2 C10_2 1_555 1_555

#END
