
###############################################################################
#
# This file contains modified crystal structure data generated from the
# MOF subset of the Cambridge Structural Database (CSD) v543 
# hosted by the Cambridge Crystallographic Data Centre (CCDC).
#
# This work is licensed under the Creative Commons
# Attribution-NonCommercial-ShareAlike 4.0 International License.
# To view a copy of this license, visit
# http://creativecommons.org/licenses/by-nc-sa/4.0/
# or send a letter to
# Creative Commons, PO Box 1866, Mountain View, CA 94042, USA.
#
# CIF created using the CSD Python API on 29 September 2022
# The structure has been converted into the P1 space group
# The structure has a 3D framework
# The original CSD entry KUYHIY is in the triclinic crystal system
# The framework has been calculated to contain at least 10.0% void space
# The void calculation uses a probe of radius 1.32A, grid spacing 0.4
# H atom positions have been added when not included in the experimental data
# Generated hydrogen atom positions removed from atoms on special positions
#
###############################################################################

data_KUYHIY
_chemical_formula_moiety         '(C94 H64 N8 O16 Zn3)n'
_symmetry_cell_setting           triclinic
_symmetry_space_group_name_H-M   'P 1'
_symmetry_Int_Tables_number      1
_space_group_name_Hall           'P 1'
loop_
_symmetry_equiv_pos_site_id
_symmetry_equiv_pos_as_xyz
1 x,y,z
_cell_length_a                   9.797(4)
_cell_length_b                   15.252(6)
_cell_length_c                   16.948(7)
_cell_angle_alpha                75.387(7)
_cell_angle_beta                 73.275(7)
_cell_angle_gamma                85.170(7)
_cell_volume                     2346.67
loop_
_atom_site_label
_atom_site_type_symbol
_atom_site_fract_x
_atom_site_fract_y
_atom_site_fract_z
_atom_site_U_iso_or_equiv
_atom_site_thermal_displace_type
Zn11 Zn 0.05873(7) 0.99238(5) 0.40608(5) 0.0465 Uani
N7 N 0.0122(11) 0.9396(7) 0.2991(6) 0.1496 Uani
C58 C 0.0503(11) 0.9873(6) 0.2144(6) 0.1894 Uani
C62 C 0.0859(16) 0.9242(10) 0.0302(7) 0.2565 Uani
C63 C 0.1812(16) 0.8509(10) 0.0591(8) 0.2486 Uani
H40 H 0.178554 0.833042 0.116230 0.2480 Uiso
H41 H 0.340682 0.759551 0.015904 0.2960 Uiso
C1 C 0.2209(6) 0.7383(4) 0.3691(3) 0.0382 Uani
C2 C 0.3285(7) 0.7772(4) 0.2997(4) 0.0504 Uani
H1 H 0.343736 0.839136 0.287353 0.0500 Uiso
C3 C 0.4150(7) 0.7254(4) 0.2475(4) 0.0513 Uani
H2 H 0.488502 0.752845 0.201467 0.0510 Uiso
C4 C 0.3930(6) 0.6347(4) 0.2632(4) 0.0423 Uani
C5 C 0.2821(6) 0.5953(4) 0.3335(4) 0.0416 Uani
H3 H 0.265258 0.533680 0.344950 0.0420 Uiso
C6 C 0.1977(7) 0.6465(4) 0.3858(4) 0.0470 Uani
H4 H 0.124957 0.619209 0.432401 0.0470 Uiso
C7 C 0.4863(6) 0.5794(4) 0.2087(3) 0.0346 Uani
C8 C 0.5331(7) 0.6122(4) 0.1216(4) 0.0452 Uani
H5 H 0.503477 0.669613 0.097339 0.0450 Uiso
C9 C 0.6226(6) 0.5619(4) 0.0696(3) 0.0383 Uani
C10 C 0.6682(7) 0.4785(4) 0.1065(4) 0.0445 Uani
H6 H 0.732123 0.445469 0.072405 0.0450 Uiso
C11 C 0.6217(6) 0.4414(4) 0.1937(3) 0.0342 Uani
C12 C 0.5314(6) 0.4926(4) 0.2435(3) 0.0342 Uani
H7 H 0.499495 0.468819 0.301779 0.0340 Uiso
C19 C 0.6722(6) 0.3513(4) 0.2319(3) 0.0385 Uani
C20 C 0.8125(6) 0.3259(4) 0.2150(4) 0.0460 Uani
H12 H 0.879457 0.364475 0.173201 0.0460 Uiso
C21 C 0.8573(7) 0.2459(4) 0.2574(4) 0.0456 Uani
H13 H 0.954123 0.231636 0.245399 0.0460 Uiso
C22 C 0.7609(6) 0.1855(4) 0.3181(3) 0.0378 Uani
C23 C 0.6180(6) 0.2076(4) 0.3331(4) 0.0410 Uani
H14 H 0.550895 0.166962 0.372095 0.0410 Uiso
C24 C 0.5737(7) 0.2894(4) 0.2906(4) 0.0439 Uani
H15 H 0.476893 0.303514 0.301285 0.0440 Uiso
C25 C 0.1309(7) 0.7935(4) 0.4240(4) 0.0429 Uani
C26 C 0.8105(7) 0.1011(4) 0.3682(4) 0.0459 Uani
O1 O 0.1606(6) 0.8740(4) 0.4090(4) 0.0994 Uani
O2 O 0.0311(4) 0.7570(3) 0.4837(3) 0.0525 Uani
O3 O 0.9428(4) 0.0923(3) 0.3587(3) 0.0600 Uani
O4 O 0.7209(4) 0.0449(3) 0.4177(3) 0.0610 Uani
C64 C 0.2806(17) 0.8058(9) 0.9976(10) 0.3012 Uani
C65 C 0.2848(16) 0.8341(10) 0.9072(10) 0.2740 Uani
H42 H 0.347571 0.805644 0.868338 0.2760 Uiso
C66 C 0.1895(17) 0.9073(10) 0.8782(7) 0.2651 Uani
H43 H 0.192101 0.925103 0.821071 0.2650 Uiso
C67 C 0.0901(17) 0.9524(10) 0.9397(8) 0.2271 Uani
O20 O 0.0572(4) 0.9077(3) 0.6413(3) 0.0600 Uani
C44 C 0.7194(17) 0.1942(9) 0.0024(10) 0.3012 Uani
C45 C 0.7152(16) 0.1659(10) 0.0928(10) 0.2740 Uani
H28 H 0.652429 0.194356 0.131662 0.2760 Uiso
C46 C 0.8105(17) 0.0927(10) 0.1218(7) 0.2651 Uani
H29 H 0.807899 0.074897 0.178929 0.2650 Uiso
C47 C 0.9099(17) 0.0476(10) 0.0603(8) 0.2271 Uani
Zn2 Zn 0.94127(7) 0.00762(5) 0.59392(5) 0.0465 Uani
N3 N 0.9878(11) 0.0604(7) 0.7009(6) 0.1496 Uani
C38 C 0.9497(11) 0.0127(6) 0.7856(6) 0.1894 Uani
C42 C 0.9141(16) 0.0758(10) 0.9698(7) 0.2565 Uani
C43 C 0.8188(16) 0.1491(10) 0.9409(8) 0.2486 Uani
H26 H 0.821446 0.166958 0.883770 0.2480 Uiso
H27 H 0.659318 0.240449 0.984096 0.2960 Uiso
O18 O 0.8394(6) 0.1260(4) 0.5910(4) 0.0994 Uani
C68 C 0.7791(6) 0.2617(4) 0.6309(3) 0.0382 Uani
C69 C 0.6715(7) 0.2228(4) 0.7003(4) 0.0504 Uani
H44 H 0.656264 0.160864 0.712647 0.0500 Uiso
C70 C 0.5850(7) 0.2746(4) 0.7525(4) 0.0513 Uani
H45 H 0.511498 0.247155 0.798533 0.0510 Uiso
C71 C 0.6070(6) 0.3653(4) 0.7368(4) 0.0423 Uani
C72 C 0.7179(6) 0.4047(4) 0.6665(4) 0.0416 Uani
H46 H 0.734742 0.466320 0.655050 0.0420 Uiso
C73 C 0.8023(7) 0.3535(4) 0.6142(4) 0.0470 Uani
H47 H 0.875043 0.380791 0.567599 0.0470 Uiso
C74 C 0.5137(6) 0.4206(4) 0.7913(3) 0.0346 Uani
C75 C 0.4669(7) 0.3878(4) 0.8784(4) 0.0452 Uani
H48 H 0.496523 0.330387 0.902661 0.0450 Uiso
C76 C 0.3774(6) 0.4381(4) 0.9304(3) 0.0383 Uani
C77 C 0.3318(7) 0.5215(4) 0.8935(4) 0.0445 Uani
H49 H 0.267877 0.554531 0.927595 0.0450 Uiso
C78 C 0.3783(6) 0.5586(4) 0.8063(3) 0.0342 Uani
C79 C 0.4686(6) 0.5074(4) 0.7565(3) 0.0342 Uani
H50 H 0.500505 0.531181 0.698221 0.0340 Uiso
C86 C 0.3278(6) 0.6487(4) 0.7681(3) 0.0385 Uani
C87 C 0.1875(6) 0.6741(4) 0.7850(4) 0.0460 Uani
H55 H 0.120543 0.635525 0.826799 0.0460 Uiso
C88 C 0.1427(7) 0.7541(4) 0.7426(4) 0.0456 Uani
H56 H 0.045877 0.768364 0.754601 0.0460 Uiso
C89 C 0.2391(6) 0.8145(4) 0.6819(3) 0.0378 Uani
C90 C 0.3820(6) 0.7924(4) 0.6669(4) 0.0410 Uani
H57 H 0.449105 0.833038 0.627905 0.0410 Uiso
C91 C 0.4263(7) 0.7106(4) 0.7094(4) 0.0439 Uani
H58 H 0.523107 0.696486 0.698715 0.0440 Uiso
C92 C 0.8691(7) 0.2065(4) 0.5760(4) 0.0429 Uani
C93 C 0.1895(7) 0.8989(4) 0.6318(4) 0.0459 Uani
O10 O 0.9689(4) 0.2430(3) 0.5163(3) 0.0525 Uani
O12 O 0.2791(4) 0.9551(3) 0.5823(3) 0.0610 Uani
H37 H 0.106685 0.038629 0.191704 0.1890 Uiso
N4 N 0.0110(10) 0.0555(7) 0.8305(5) 0.2452 Uani
C39 C 0.0870(14) 0.1296(8) 0.7734(7) 0.2443 Uani
H24 H 0.138261 0.169908 0.786506 0.2440 Uiso
C40 C 0.0727(14) 0.1326(8) 0.6933(6) 0.2452 Uani
H25 H 0.112732 0.175249 0.643547 0.2450 Uiso
C41 C 0.0030(17) 0.0277(11) 0.9187(7) 0.2497 Uani
O24 O 0.1131(4) 0.0564(3) 0.4870(2) 0.0410 Uani
C13 C 0.6678(6) 0.5970(4) 0.9757(3) 0.0366 Uani
C14 C 0.6790(9) 0.6877(5) 0.9381(4) 0.0624 Uani
H8 H 0.654614 0.729029 0.972099 0.0620 Uiso
C15 C 0.7246(8) 0.7193(4) 0.8524(4) 0.0550 Uani
H9 H 0.733904 0.781373 0.829098 0.0550 Uiso
C16 C 0.7568(6) 0.6612(4) 0.8003(3) 0.0327 Uani
C17 C 0.7405(7) 0.5698(4) 0.8368(4) 0.0454 Uani
H10 H 0.759386 0.529101 0.802179 0.0460 Uiso
C18 C 0.6973(7) 0.5379(4) 0.9225(4) 0.0506 Uani
H11 H 0.687485 0.475836 0.945654 0.0510 Uiso
C27 C 0.8007(6) 0.6910(4) 0.7051(3) 0.0351 Uani
O5 O 0.8103(5) 0.7768(3) 0.6735(2) 0.0464 Uani
O6 O 0.8245(5) 0.6358(3) 0.6618(2) 0.0496 Uani
Zn5 Zn 0.86743(7) 0.81334(5) 0.54982(4) 0.0355 Uani
N8 N 0.9890(10) 0.9445(7) 0.1695(5) 0.2452 Uani
C59 C 0.9130(14) 0.8704(8) 0.2266(7) 0.2443 Uani
H38 H 0.861739 0.830092 0.213494 0.2440 Uiso
C60 C 0.9273(14) 0.8674(8) 0.3067(6) 0.2452 Uani
H39 H 0.887268 0.824751 0.356453 0.2450 Uiso
C61 C 0.9970(17) 0.9723(11) 0.0813(7) 0.2497 Uani
C28 C 0.5436(7) 0.5869(5) 0.4918(4) 0.0423 Uani
C29 C 0.6444(7) 0.5246(5) 0.4577(4) 0.0487 Uani
C30 C 0.5986(7) 0.4363(5) 0.4666(4) 0.0463 Uani
C31 C 0.7004(8) 0.3717(5) 0.4318(4) 0.0535 Uani
H16 H 0.672399 0.313504 0.436251 0.0530 Uiso
C32 C 0.8335(8) 0.3971(6) 0.3935(5) 0.0595 Uani
H17 H 0.899582 0.355410 0.372341 0.0590 Uiso
C33 C 0.8774(8) 0.4835(6) 0.3840(5) 0.0679 Uani
H18 H 0.971464 0.498807 0.354788 0.0680 Uiso
C34 C 0.7888(7) 0.5468(6) 0.4157(5) 0.0599 Uani
H19 H 0.822113 0.604029 0.409962 0.0600 Uiso
C35 C 0.6377(9) 0.8152(5) 0.4533(5) 0.0655 Uani
H20 H 0.637675 0.877167 0.429420 0.0650 Uiso
C36 C 0.5640(10) 0.7548(6) 0.4383(6) 0.0761 Uani
H21 H 0.504740 0.766326 0.402654 0.0760 Uiso
C37 C 0.6817(6) 0.6882(4) 0.5263(4) 0.0407 Uani
H22 H 0.717257 0.642598 0.563363 0.0410 Uiso
N1 N 0.7140(6) 0.7726(4) 0.5093(3) 0.0467 Uani
N2 N 0.5927(6) 0.6735(4) 0.4853(3) 0.0477 Uani
O7 O 0.7542(5) 0.9498(3) 0.6910(3) 0.0623 Uani
O8 O 0.8869(4) 0.9436(3) 0.5130(2) 0.0410 Uani
H23 H 0.893315 0.961371 0.808296 0.1890 Uiso
C48 C 0.4564(7) 0.4131(5) 0.5082(4) 0.0423 Uani
C49 C 0.3556(7) 0.4754(5) 0.5423(4) 0.0487 Uani
C50 C 0.4014(7) 0.5637(5) 0.5334(4) 0.0463 Uani
C51 C 0.2996(8) 0.6283(5) 0.5682(4) 0.0535 Uani
H30 H 0.327601 0.686496 0.563749 0.0530 Uiso
C52 C 0.1665(8) 0.6029(6) 0.6065(5) 0.0595 Uani
H31 H 0.100418 0.644590 0.627659 0.0590 Uiso
C53 C 0.1226(8) 0.5165(6) 0.6160(5) 0.0679 Uani
H32 H 0.028536 0.501193 0.645212 0.0680 Uiso
C54 C 0.2112(7) 0.4532(6) 0.5843(5) 0.0599 Uani
H33 H 0.177887 0.395971 0.590038 0.0600 Uiso
C55 C 0.3623(9) 0.1848(5) 0.5467(5) 0.0655 Uani
H34 H 0.362325 0.122833 0.570580 0.0650 Uiso
C56 C 0.4360(10) 0.2452(6) 0.5617(6) 0.0761 Uani
H35 H 0.495260 0.233674 0.597346 0.0760 Uiso
C57 C 0.3183(6) 0.3118(4) 0.4737(4) 0.0407 Uani
H36 H 0.282743 0.357402 0.436637 0.0410 Uiso
N5 N 0.2860(6) 0.2274(4) 0.4907(3) 0.0467 Uani
N6 N 0.4073(6) 0.3265(4) 0.5147(3) 0.0477 Uani
Zn3 Zn 0.13257(7) 0.18666(5) 0.45018(4) 0.0355 Uani
O15 O 0.2458(5) 0.0502(3) 0.3090(3) 0.0623 Uani
O22 O 0.1897(5) 0.2232(3) 0.3265(2) 0.0464 Uani
C80 C 0.3322(6) 0.4030(4) 0.0243(3) 0.0366 Uani
C81 C 0.3210(9) 0.3123(5) 0.0619(4) 0.0624 Uani
H51 H 0.345386 0.270971 0.027901 0.0620 Uiso
C82 C 0.2754(8) 0.2807(4) 0.1476(4) 0.0550 Uani
H52 H 0.266096 0.218627 0.170902 0.0550 Uiso
C83 C 0.2432(6) 0.3388(4) 0.1997(3) 0.0327 Uani
C84 C 0.2595(7) 0.4302(4) 0.1632(4) 0.0454 Uani
H53 H 0.240614 0.470899 0.197821 0.0460 Uiso
C85 C 0.3027(7) 0.4621(4) 0.0775(4) 0.0506 Uani
H54 H 0.312515 0.524164 0.054346 0.0510 Uiso
C94 C 0.1993(6) 0.3090(4) 0.2949(3) 0.0351 Uani
O14 O 0.1755(5) 0.3642(3) 0.3382(2) 0.0496 Uani
loop_
_atom_site_aniso_label
_atom_site_aniso_U_11
_atom_site_aniso_U_22
_atom_site_aniso_U_33
_atom_site_aniso_U_23
_atom_site_aniso_U_13
_atom_site_aniso_U_12
Zn11 0.0358 0.0327 0.0577 0.0095 -0.0114 0.0049
N7 0.203 0.161 0.113 -0.054 -0.067 -0.009
C58 0.254 0.211 0.122 0 -0.11 -0.023
C62 0.27 0.3 0.114 -0.012 0.014 0.112
C63 0.23 0.28 0.212 -0.059 -0.052 0.096
C1 0.046 0.037 0.025 -0.015 0.005 0.007
C2 0.062 0.022 0.047 -0.013 0.02 0.001
C3 0.057 0.035 0.042 -0.008 0.015 0.004
C4 0.048 0.033 0.03 -0.003 0.004 0.021
C5 0.05 0.029 0.036 -0.013 0.003 0.016
C6 0.05 0.039 0.036 -0.014 0.013 0.014
C7 0.038 0.043 0.023 -0.015 -0.008 0.019
C8 0.06 0.033 0.03 -0.004 -0.003 0.024
C9 0.043 0.036 0.026 -0.006 0 0.015
C10 0.055 0.036 0.032 -0.01 0 0.02
C11 0.042 0.031 0.024 -0.009 -0.003 0.016
C12 0.045 0.034 0.022 -0.011 -0.007 0.014
C19 0.045 0.036 0.026 -0.006 -0.003 0.017
C20 0.04 0.042 0.035 0 0.009 0.018
C21 0.039 0.039 0.044 0.002 -0.004 0.018
C22 0.031 0.037 0.033 -0.003 0 0.02
C23 0.041 0.034 0.036 0.001 -0.003 0.009
C24 0.041 0.046 0.04 -0.01 -0.01 0.021
C25 0.046 0.031 0.043 -0.017 0.007 0.004
C26 0.037 0.039 0.048 0.001 -0.004 0.012
O1 0.091 0.071 0.106 -0.053 0.05 -0.012
O2 0.049 0.041 0.043 -0.006 0.016 0.019
O3 0.037 0.06 0.059 0.02 -0.01 0.015
O4 0.041 0.043 0.078 0.016 -0.012 0.005
C64 0.3 0.41 0.27 -0.2 -0.14 0.16
C65 0.4 0.26 0.269 -0.19 -0.18 0.11
C66 0.39 0.23 0.197 -0.139 -0.071 0.112
C67 0.32 0.23 0.116 -0.064 -0.034 0.057
O20 0.037 0.06 0.059 0.02 -0.01 0.015
C44 0.3 0.41 0.27 -0.2 -0.14 0.16
C45 0.4 0.26 0.269 -0.19 -0.18 0.11
C46 0.39 0.23 0.197 -0.139 -0.071 0.112
C47 0.32 0.23 0.116 -0.064 -0.034 0.057
Zn2 0.0358 0.0327 0.0577 0.0095 -0.0114 0.0049
N3 0.203 0.161 0.113 -0.054 -0.067 -0.009
C38 0.254 0.211 0.122 0 -0.11 -0.023
C42 0.27 0.3 0.114 -0.012 0.014 0.112
C43 0.23 0.28 0.212 -0.059 -0.052 0.096
O18 0.091 0.071 0.106 -0.053 0.05 -0.012
C68 0.046 0.037 0.025 -0.015 0.005 0.007
C69 0.062 0.022 0.047 -0.013 0.02 0.001
C70 0.057 0.035 0.042 -0.008 0.015 0.004
C71 0.048 0.033 0.03 -0.003 0.004 0.021
C72 0.05 0.029 0.036 -0.013 0.003 0.016
C73 0.05 0.039 0.036 -0.014 0.013 0.014
C74 0.038 0.043 0.023 -0.015 -0.008 0.019
C75 0.06 0.033 0.03 -0.004 -0.003 0.024
C76 0.043 0.036 0.026 -0.006 0 0.015
C77 0.055 0.036 0.032 -0.01 0 0.02
C78 0.042 0.031 0.024 -0.009 -0.003 0.016
C79 0.045 0.034 0.022 -0.011 -0.007 0.014
C86 0.045 0.036 0.026 -0.006 -0.003 0.017
C87 0.04 0.042 0.035 0 0.009 0.018
C88 0.039 0.039 0.044 0.002 -0.004 0.018
C89 0.031 0.037 0.033 -0.003 0 0.02
C90 0.041 0.034 0.036 0.001 -0.003 0.009
C91 0.041 0.046 0.04 -0.01 -0.01 0.021
C92 0.046 0.031 0.043 -0.017 0.007 0.004
C93 0.037 0.039 0.048 0.001 -0.004 0.012
O10 0.049 0.041 0.043 -0.006 0.016 0.019
O12 0.041 0.043 0.078 0.016 -0.012 0.005
N4 0.287 0.336 0.122 -0.027 -0.059 -0.133
C39 0.286 0.339 0.119 -0.028 -0.058 -0.141
C40 0.281 0.332 0.135 -0.026 -0.062 -0.148
C41 0.3 0.31 0.089 -0.022 -0.042 0.15
O24 0.029 0.03 0.046 0.0105 -0.0009 0.004
C13 0.048 0.037 0.022 -0.014 -0.005 0.019
C14 0.116 0.035 0.022 -0.008 -0.001 0.017
C15 0.095 0.023 0.034 -0.001 -0.005 0.008
C16 0.039 0.037 0.02 -0.012 -0.003 0.008
C17 0.072 0.038 0.023 -0.012 -0.008 0.014
C18 0.071 0.032 0.034 -0.004 0.001 0.013
C27 0.029 0.04 0.025 -0.003 0.005 0.002
O5 0.061 0.031 0.035 -0.0002 -0.001 0
O6 0.067 0.048 0.023 -0.014 0.004 0.017
Zn5 0.0369 0.0293 0.0294 -0.0051 0.0043 0.0058
N8 0.287 0.336 0.122 -0.027 -0.059 -0.133
C59 0.286 0.339 0.119 -0.028 -0.058 -0.141
C60 0.281 0.332 0.135 -0.026 -0.062 -0.148
C61 0.3 0.31 0.089 -0.022 -0.042 0.15
C28 0.05 0.043 0.042 -0.02 -0.019 0.007
C29 0.048 0.049 0.051 -0.015 -0.016 0.006
C30 0.058 0.047 0.042 -0.021 -0.021 0.012
C31 0.057 0.05 0.061 -0.025 -0.024 0.021
C32 0.058 0.062 0.061 -0.029 -0.013 0.018
C33 0.051 0.084 0.067 -0.034 0 0
C34 0.048 0.06 0.066 -0.019 -0.005 0.005
C35 0.095 0.043 0.065 -0.003 -0.044 0.01
C36 0.101 0.05 0.094 -0.008 -0.063 0.007
C37 0.047 0.038 0.033 -0.009 -0.006 0.005
N1 0.052 0.035 0.046 -0.01 -0.003 0.002
N2 0.051 0.043 0.05 -0.011 -0.017 0.005
O7 0.063 0.047 0.062 -0.014 0.008 -0.005
O8 0.029 0.03 0.046 0.0105 -0.0009 0.004
C48 0.05 0.043 0.042 -0.02 -0.019 0.007
C49 0.048 0.049 0.051 -0.015 -0.016 0.006
C50 0.058 0.047 0.042 -0.021 -0.021 0.012
C51 0.057 0.05 0.061 -0.025 -0.024 0.021
C52 0.058 0.062 0.061 -0.029 -0.013 0.018
C53 0.051 0.084 0.067 -0.034 0 0
C54 0.048 0.06 0.066 -0.019 -0.005 0.005
C55 0.095 0.043 0.065 -0.003 -0.044 0.01
C56 0.101 0.05 0.094 -0.008 -0.063 0.007
C57 0.047 0.038 0.033 -0.009 -0.006 0.005
N5 0.052 0.035 0.046 -0.01 -0.003 0.002
N6 0.051 0.043 0.05 -0.011 -0.017 0.005
Zn3 0.0369 0.0293 0.0294 -0.0051 0.0043 0.0058
O15 0.063 0.047 0.062 -0.014 0.008 -0.005
O22 0.061 0.031 0.035 -0.0002 -0.001 0
C80 0.048 0.037 0.022 -0.014 -0.005 0.019
C81 0.116 0.035 0.022 -0.008 -0.001 0.017
C82 0.095 0.023 0.034 -0.001 -0.005 0.008
C83 0.039 0.037 0.02 -0.012 -0.003 0.008
C84 0.072 0.038 0.023 -0.012 -0.008 0.014
C85 0.071 0.032 0.034 -0.004 0.001 0.013
C94 0.029 0.04 0.025 -0.003 0.005 0.002
O14 0.067 0.048 0.023 -0.014 0.004 0.017
loop_
_geom_bond_atom_site_label_1
_geom_bond_atom_site_label_2
_geom_bond_site_symmetry_1
_geom_bond_site_symmetry_2
N7 C58 1_555 1_555
C63 C62 1_555 1_555
H40 C63 1_555 1_555
Zn11 N7 1_555 1_555
C1 C2 1_555 1_555
C2 H1 1_555 1_555
C3 C2 1_555 1_555
H2 C3 1_555 1_555
C4 C3 1_555 1_555
C5 C4 1_555 1_555
H3 C5 1_555 1_555
C6 C1 1_555 1_555
H4 C6 1_555 1_555
C7 C4 1_555 1_555
C8 C7 1_555 1_555
H5 C8 1_555 1_555
C9 C8 1_555 1_555
C10 C9 1_555 1_555
H6 C10 1_555 1_555
C11 C10 1_555 1_555
C12 C7 1_555 1_555
H7 C12 1_555 1_555
C19 C11 1_555 1_555
C20 C19 1_555 1_555
H12 C20 1_555 1_555
C21 C20 1_555 1_555
H13 C21 1_555 1_555
C22 C21 1_555 1_555
C23 C22 1_555 1_555
H14 C23 1_555 1_555
C24 C19 1_555 1_555
H15 C24 1_555 1_555
C25 C1 1_555 1_555
C26 C22 1_555 1_555
O1 C25 1_555 1_555
O3 C26 1_555 1_555
O4 C26 1_555 1_555
C65 C64 1_555 1_555
H42 C65 1_555 1_555
C66 C65 1_555 1_555
H43 C66 1_555 1_555
Zn11 O1 1_555 1_555
C5 C6 1_555 1_555
C11 C12 1_555 1_555
C23 C24 1_555 1_555
C25 O2 1_555 1_555
C66 C67 1_555 1_555
C45 C44 1_555 1_555
H28 C45 1_555 1_555
C46 C45 1_555 1_555
H29 C46 1_555 1_555
C46 C47 1_555 1_555
N3 Zn2 1_555 1_555
C38 N3 1_555 1_555
C43 C42 1_555 1_555
H26 C43 1_555 1_555
O18 Zn2 1_555 1_555
C68 C69 1_555 1_555
C69 H44 1_555 1_555
C70 C69 1_555 1_555
H45 C70 1_555 1_555
C71 C70 1_555 1_555
C72 C71 1_555 1_555
H46 C72 1_555 1_555
C73 C68 1_555 1_555
H47 C73 1_555 1_555
C74 C71 1_555 1_555
C75 C74 1_555 1_555
H48 C75 1_555 1_555
C76 C75 1_555 1_555
C77 C76 1_555 1_555
H49 C77 1_555 1_555
C78 C77 1_555 1_555
C79 C74 1_555 1_555
H50 C79 1_555 1_555
C86 C78 1_555 1_555
C87 C86 1_555 1_555
H55 C87 1_555 1_555
C88 C87 1_555 1_555
H56 C88 1_555 1_555
C89 C88 1_555 1_555
C90 C89 1_555 1_555
H57 C90 1_555 1_555
C91 C86 1_555 1_555
H58 C91 1_555 1_555
C92 C68 1_555 1_555
C93 C89 1_555 1_555
O18 C92 1_555 1_555
O20 C93 1_555 1_555
O12 C93 1_555 1_555
C72 C73 1_555 1_555
C78 C79 1_555 1_555
C90 C91 1_555 1_555
C92 O10 1_555 1_555
C39 N4 1_555 1_555
H24 C39 1_555 1_555
H25 C40 1_555 1_555
C41 N4 1_555 1_555
C39 C40 1_555 1_555
C14 C13 1_555 1_555
H8 C14 1_555 1_555
C15 C14 1_555 1_555
H9 C15 1_555 1_555
C16 C15 1_555 1_555
C17 C16 1_555 1_555
H10 C17 1_555 1_555
C18 C13 1_555 1_555
H11 C18 1_555 1_555
C27 C16 1_555 1_555
O5 C27 1_555 1_555
O6 C27 1_555 1_555
Zn5 O5 1_555 1_555
C17 C18 1_555 1_555
C59 N8 1_555 1_555
H38 C59 1_555 1_555
H39 C60 1_555 1_555
N8 C61 1_555 1_555
C59 C60 1_555 1_555
Zn5 N1 1_555 1_555
C28 C29 1_555 1_555
C29 C30 1_555 1_555
C30 C31 1_555 1_555
C31 H16 1_555 1_555
C32 C31 1_555 1_555
H17 C32 1_555 1_555
C33 C32 1_555 1_555
H18 C33 1_555 1_555
C34 C29 1_555 1_555
H19 C34 1_555 1_555
C35 H20 1_555 1_555
C36 C35 1_555 1_555
H21 C36 1_555 1_555
C37 H22 1_555 1_555
N1 C35 1_555 1_555
N2 C28 1_555 1_555
O8 Zn5 1_555 1_555
C48 C30 1_555 1_555
C49 C48 1_555 1_555
C50 C28 1_555 1_555
C51 C50 1_555 1_555
H30 C51 1_555 1_555
C52 C51 1_555 1_555
H31 C52 1_555 1_555
C53 C52 1_555 1_555
H32 C53 1_555 1_555
C54 C49 1_555 1_555
H33 C54 1_555 1_555
C55 H34 1_555 1_555
C56 C55 1_555 1_555
H35 C56 1_555 1_555
C57 H36 1_555 1_555
N5 C55 1_555 1_555
N6 C48 1_555 1_555
Zn3 N5 1_555 1_555
O24 Zn3 1_555 1_555
O22 Zn3 1_555 1_555
C33 C34 1_555 1_555
C36 N2 1_555 1_555
C37 N1 1_555 1_555
C37 N2 1_555 1_555
C49 C50 1_555 1_555
C53 C54 1_555 1_555
C56 N6 1_555 1_555
C57 N5 1_555 1_555
C57 N6 1_555 1_555
C81 C80 1_555 1_555
H51 C81 1_555 1_555
C82 C81 1_555 1_555
H52 C82 1_555 1_555
C83 C82 1_555 1_555
C84 C83 1_555 1_555
H53 C84 1_555 1_555
C85 C80 1_555 1_555
H54 C85 1_555 1_555
C94 C83 1_555 1_555
O22 C94 1_555 1_555
O14 C94 1_555 1_555
C84 C85 1_555 1_555

#END
