
###############################################################################
#
# This file contains modified crystal structure data generated from the
# MOF subset of the Cambridge Structural Database (CSD) v543 
# hosted by the Cambridge Crystallographic Data Centre (CCDC).
#
# This work is licensed under the Creative Commons
# Attribution-NonCommercial-ShareAlike 4.0 International License.
# To view a copy of this license, visit
# http://creativecommons.org/licenses/by-nc-sa/4.0/
# or send a letter to
# Creative Commons, PO Box 1866, Mountain View, CA 94042, USA.
#
# CIF created using the CSD Python API on 29 September 2022
# The structure has been converted into the P1 space group
# The structure has a 3D framework
# The original CSD entry KUYJUM is in the monoclinic crystal system
# The framework has been calculated to contain at least 10.0% void space
# The void calculation uses a probe of radius 1.32A, grid spacing 0.4
#
###############################################################################

data_KUYJUM
_chemical_formula_moiety         '(C76 H36 Ag4 F12 N20 O24 Ru4 S4)n'
_symmetry_cell_setting           triclinic
_symmetry_space_group_name_H-M   'P 1'
_symmetry_Int_Tables_number      1
_space_group_name_Hall           'P 1'
loop_
_symmetry_equiv_pos_site_id
_symmetry_equiv_pos_as_xyz
1 x,y,z
_cell_length_a                   11.1459(16)
_cell_length_b                   23.537(4)
_cell_length_c                   11.6244(16)
_cell_angle_alpha                90
_cell_angle_beta                 94.558(4)
_cell_angle_gamma                90
_cell_volume                     3039.91
loop_
_atom_site_label
_atom_site_type_symbol
_atom_site_fract_x
_atom_site_fract_y
_atom_site_fract_z
N9 N 0.0443(10) 0.6019(6) 0.2289(10)
O11 O 0.0038(8) 0.0367(5) 0.7178(8)
Ag6 Ag 0.18005(10) 0.62395(6) 0.10906(10)
N5 N 0.3662(11) 0.5978(5) 0.0705(10)
C8 C 0.6691(12) 0.6106(6) 0.0205(12)
H3 H 0.669272 0.635489 0.084760
C15 C 0.4524(14) 0.5941(7) 0.0275(13)
Ru1 Ru 0.56429(9) 0.49983(5) 0.58142(9)
Ag1 Ag 0.18005(10) 0.87605(6) 0.60906(10)
S1 S 0.0929(3) 0.9392(2) 0.3534(3)
O1 O 0.6860(8) 0.5025(4) 0.7450(8)
O2 O 0.4323(7) 0.4693(4) 0.6753(7)
O3 O 0.5218(8) 0.5802(4) 0.6198(8)
N1 N 0.3025(8) 0.4699(5) 0.5139(9)
O4 O 0.1820(9) 0.9779(5) 0.3967(9)
F1 F 0.2023(8) 0.9260(4) 0.1641(7)
O6 O 0.0520(9) 0.8968(5) 0.4356(8)
N2 N 0.7725(10) 0.5615(5) 0.8788(9)
N3 N 0.3863(9) 0.5814(5) 0.4590(9)
F2 F 0.1008(10) 0.8542(5) 0.2080(9)
F3 F 0.2668(9) 0.8709(5) 0.3041(8)
C1 C 0.4381(12) 0.6060(6) 0.5552(13)
C2 C 0.5636(12) 0.5836(6) 0.9742(11)
C3 C 0.4009(13) 0.6610(6) 0.5899(13)
H1 H 0.436624 0.679065 0.657212
C4 C 0.0294(12) 0.4115(7) 0.7125(11)
C5 C 0.5647(12) 0.5473(6) 0.8797(11)
H2 H 0.492255 0.529880 0.849056
C6 C 0.6725(12) 0.5366(6) 0.8299(11)
C7 C 0.1218(12) 0.4316(7) 0.6446(11)
C9 C 0.0994(12) 0.4411(7) 0.5245(11)
H4 H 0.021450 0.434127 0.488124
C10 C 0.2367(11) 0.4377(6) 0.6946(12)
H5 H 0.255867 0.427869 0.773203
C11 C 0.3264(11) 0.4592(6) 0.6260(12)
C12 C 0.7716(13) 0.5988(6) 0.9675(12)
H6 H 0.844355 0.617337 0.993802
C13 C 0.3130(14) 0.6856(7) 0.5224(14)
C14 C 0.1846(12) 0.4592(7) 0.4634(13)
H7 H 0.167385 0.465405 0.383001
C16 C 0.1683(16) 0.8963(9) 0.2556(15)
C17 C 0.2956(13) 0.6066(7) 0.3958(14)
H8 H 0.258764 0.587459 0.330192
C18 C 0.2677(16) 0.7410(8) 0.5554(16)
C19 C 0.2550(14) 0.6592(7) 0.4239(14)
H9 H 0.190660 0.677199 0.379330
N6 N 0.2258(15) 0.7836(7) 0.5846(14)
Ru2 Ru 0.43571(9) 0.50017(5) 0.41858(9)
O7 O 0.5677(7) 0.5307(4) 0.3247(7)
O8 O 0.4782(8) 0.4198(4) 0.3802(8)
N7 N 0.6975(8) 0.5301(5) 0.4861(9)
N8 N 0.6137(9) 0.4186(5) 0.5410(9)
C20 C 0.5619(12) 0.3940(6) 0.4448(13)
C21 C 0.5991(13) 0.3390(6) 0.4101(13)
H10 H 0.563376 0.320935 0.342788
C22 C 0.9706(12) 0.5885(7) 0.2875(11)
C23 C 0.8782(12) 0.5684(7) 0.3554(11)
C24 C 0.9006(12) 0.5589(7) 0.4755(11)
H11 H 0.978550 0.565873 0.511876
C25 C 0.7633(11) 0.5623(6) 0.3054(12)
H12 H 0.744133 0.572131 0.226797
C26 C 0.6736(11) 0.5408(6) 0.3740(12)
C27 C 0.6870(14) 0.3144(7) 0.4776(14)
C28 C 0.8154(12) 0.5408(7) 0.5366(13)
H13 H 0.832615 0.534595 0.616999
C29 C 0.7044(13) 0.3934(7) 0.6042(14)
H14 H 0.741236 0.412541 0.669808
C30 C 0.7323(16) 0.2590(8) 0.4446(16)
C31 C 0.7450(14) 0.3408(7) 0.5761(14)
H15 H 0.809340 0.322801 0.620670
N10 N 0.7742(15) 0.2164(7) 0.4154(14)
O9 O 0.3140(8) 0.4975(4) 0.2550(8)
N11 N 0.2275(10) 0.4385(5) 0.1212(9)
C32 C 0.4364(12) 0.4164(6) 0.0258(11)
C33 C 0.4353(12) 0.4527(6) 0.1203(11)
H16 H 0.507745 0.470120 0.150944
C34 C 0.3275(12) 0.4634(6) 0.1701(11)
C36 C 0.2284(13) 0.4012(6) 0.0325(12)
H18 H 0.155645 0.382663 0.006198
Ag2 Ag 0.81995(10) 0.12395(6) 0.39094(10)
S2 S 0.9071(3) 0.0608(2) 0.6466(3)
O10 O 0.8180(9) 0.0221(5) 0.6033(9)
F4 F 0.7977(8) 0.0740(4) 0.8359(7)
O12 O 0.9480(9) 0.1032(5) 0.5644(8)
F5 F 0.8992(10) 0.1458(5) 0.7920(9)
F6 F 0.7332(9) 0.1291(5) 0.6959(8)
C38 C 0.8317(16) 0.1037(9) 0.7444(15)
N13 N 0.0443(10) 0.8981(6) 0.7289(10)
N14 N 0.9557(10) 0.1019(6) 0.2711(10)
N15 N 0.6338(11) 0.0978(5) 0.4295(10)
N16 N 0.3662(11) 0.9022(5) 0.5705(10)
N12 N 0.6338(11) 0.4022(5) 0.9295(10)
C35 C 0.3309(12) 0.3894(6) 0.9795(12)
H17 H 0.330728 0.364511 0.915240
C37 C 0.5476(14) 0.4059(7) 0.9725(13)
Ag4 Ag 0.81995(10) 0.37605(6) 0.89094(10)
O5 O 0.9962(8) 0.9633(5) 0.2822(8)
N4 N 0.9557(10) 0.3981(6) 0.7711(10)
O1_2 O 0.3140(8) 0.0025(4) 0.7550(8)
O3_2 O 0.4782(8) 0.0802(4) 0.8802(8)
N2_2 N 0.2275(10) 0.0615(5) 0.6212(9)
C1_2 C 0.5619(12) 0.1060(6) 0.9448(13)
C2_2 C 0.4364(12) 0.0836(6) 0.5258(11)
C3_2 C 0.5991(13) 0.1610(6) 0.9101(13)
H1_2 H 0.563376 0.179065 0.842788
C5_2 C 0.4353(12) 0.0473(6) 0.6203(11)
H2_2 H 0.507745 0.029880 0.650944
C6_2 C 0.3275(12) 0.0366(6) 0.6701(11)
C8_2 C 0.3309(12) 0.1106(6) 0.4795(12)
H3_2 H 0.330728 0.135489 0.415240
C12_2 C 0.2284(13) 0.0988(6) 0.5325(12)
H6_2 H 0.155645 0.117337 0.506198
C13_2 C 0.6870(14) 0.1856(7) 0.9776(14)
C15_2 C 0.5476(14) 0.0941(7) 0.4725(13)
C18_2 C 0.7323(16) 0.2410(8) 0.9446(16)
N6_2 N 0.7742(15) 0.2836(7) 0.9154(14)
H11_2 H 0.021450 0.065873 0.988124
C28_2 C 0.1846(12) 0.0408(7) 0.9634(13)
H13_2 H 0.167385 0.034595 0.883001
H4_2 H 0.978550 0.934127 0.011876
C14_2 C 0.8154(12) 0.9592(7) 0.0366(13)
H7_2 H 0.832615 0.965405 0.116999
O8_2 O 0.5218(8) 0.9198(4) 0.1198(8)
C20_2 C 0.4381(12) 0.8940(6) 0.0552(13)
C21_2 C 0.4009(13) 0.8390(6) 0.0899(13)
H10_2 H 0.436624 0.820935 0.157212
C27_2 C 0.3130(14) 0.8144(7) 0.0224(14)
C30_2 C 0.2677(16) 0.7590(8) 0.0554(16)
N10_2 N 0.2258(15) 0.7164(7) 0.0846(14)
O9_2 O 0.6860(8) 0.9975(4) 0.2450(8)
N11_2 N 0.7725(10) 0.9385(5) 0.3788(9)
C32_2 C 0.5636(12) 0.9164(6) 0.4742(11)
C33_2 C 0.5647(12) 0.9527(6) 0.3797(11)
H16_2 H 0.492255 0.970120 0.349056
C34_2 C 0.6725(12) 0.9634(6) 0.3299(11)
C35_2 C 0.6691(12) 0.8894(6) 0.5205(12)
H17_2 H 0.669272 0.864511 0.584760
C36_2 C 0.7716(13) 0.9012(6) 0.4675(12)
H18_2 H 0.844355 0.882663 0.493802
C37_2 C 0.4524(14) 0.9059(7) 0.5275(13)
O5_2 O 0.0038(8) 0.4633(5) 0.2178(8)
S1_2 S 0.9071(3) 0.4392(2) 0.1466(3)
O4_2 O 0.8180(9) 0.4779(5) 0.1033(9)
F1_2 F 0.7977(8) 0.4260(4) 0.3359(7)
O6_2 O 0.9480(9) 0.3968(5) 0.0644(8)
N3_2 N 0.6137(9) 0.0814(5) 0.0410(9)
F2_2 F 0.8992(10) 0.3542(5) 0.2920(9)
F3_2 F 0.7332(9) 0.3709(5) 0.1959(8)
C16_2 C 0.8317(16) 0.3963(9) 0.2444(15)
C17_2 C 0.7044(13) 0.1066(7) 0.1042(14)
H8_2 H 0.741236 0.087459 0.169808
C19_2 C 0.7450(14) 0.1592(7) 0.0761(14)
H9_2 H 0.809340 0.177199 0.120670
Ru2_2 Ru 0.56429(9) 0.00017(5) 0.08142(9)
O7_2 O 0.4323(7) 0.0307(4) 0.1753(7)
N7_2 N 0.3025(8) 0.0301(5) 0.0139(9)
C22_2 C 0.0294(12) 0.0885(7) 0.2125(11)
C23_2 C 0.1218(12) 0.0684(7) 0.1446(11)
C24_2 C 0.0994(12) 0.0589(7) 0.0245(11)
C25_2 C 0.2367(11) 0.0623(6) 0.1946(12)
H12_2 H 0.255867 0.072131 0.273203
C26_2 C 0.3264(11) 0.0408(6) 0.1260(12)
Ru1_2 Ru 0.43571(9) 0.99983(5) 0.91858(9)
O2_2 O 0.5677(7) 0.9693(4) 0.8247(7)
N1_2 N 0.6975(8) 0.9699(5) 0.9861(9)
C4_2 C 0.9706(12) 0.9115(7) 0.7875(11)
C7_2 C 0.8782(12) 0.9316(7) 0.8554(11)
C9_2 C 0.9006(12) 0.9411(7) 0.9755(11)
C10_2 C 0.7633(11) 0.9377(6) 0.8054(12)
H5_2 H 0.744133 0.927869 0.726797
C11_2 C 0.6736(11) 0.9592(6) 0.8740(12)
N8_2 N 0.3863(9) 0.9186(5) 0.9590(9)
C29_2 C 0.2956(13) 0.8934(7) 0.8958(14)
H14_2 H 0.258764 0.912541 0.830192
C31_2 C 0.2550(14) 0.8408(7) 0.9239(14)
H15_2 H 0.190660 0.822801 0.879330
S2_2 S 0.0929(3) 0.5608(2) 0.8534(3)
O10_2 O 0.1820(9) 0.5221(5) 0.8967(9)
F4_2 F 0.2023(8) 0.5740(4) 0.6641(7)
O12_2 O 0.0520(9) 0.6032(5) 0.9356(8)
F5_2 F 0.1008(10) 0.6458(5) 0.7080(9)
F6_2 F 0.2668(9) 0.6291(5) 0.8041(8)
C38_2 C 0.1683(16) 0.6037(9) 0.7556(15)
O11_2 O 0.9962(8) 0.5367(5) 0.7822(8)
loop_
_geom_bond_atom_site_label_1
_geom_bond_atom_site_label_2
_geom_bond_site_symmetry_1
_geom_bond_site_symmetry_2
Ag6 N9 1_555 1_555
N5 C15 1_555 1_555
H3 C8 1_555 1_555
Ag6 N5 1_555 1_555
Ru1 O1 1_555 1_555
Ag1 O6 1_555 1_555
S1 O4 1_555 1_555
O1 C6 1_555 1_555
O2 Ru1 1_555 1_555
O3 Ru1 1_555 1_555
N1 C11 1_555 1_555
F1 C16 1_555 1_555
O6 S1 1_555 1_555
N2 C6 1_555 1_555
N3 C1 1_555 1_555
F2 C16 1_555 1_555
F3 C16 1_555 1_555
C1 O3 1_555 1_555
C2 C5 1_555 1_555
C3 C1 1_555 1_555
H1 C3 1_555 1_555
C4 C7 1_555 1_555
C5 H2 1_555 1_555
C6 C5 1_555 1_555
C7 C9 1_555 1_555
C9 H4 1_555 1_555
C10 C7 1_555 1_555
H5 C10 1_555 1_555
C11 O2 1_555 1_555
C12 N2 1_555 1_555
H6 C12 1_555 1_555
C13 C3 1_555 1_555
C14 N1 1_555 1_555
H7 C14 1_555 1_555
C16 S1 1_555 1_555
C17 N3 1_555 1_555
H8 C17 1_555 1_555
C18 C13 1_555 1_555
C19 C13 1_555 1_555
H9 C19 1_555 1_555
N6 Ag1 1_555 1_555
Ru2 Ru1 1_555 1_555
O7 Ru2 1_555 1_555
O8 Ru2 1_555 1_555
N7 Ru1 1_555 1_555
N8 Ru1 1_555 1_555
C20 O8 1_555 1_555
C21 C20 1_555 1_555
H10 C21 1_555 1_555
C22 C23 1_555 1_555
C23 C24 1_555 1_555
C24 H11 1_555 1_555
C25 C23 1_555 1_555
H12 C25 1_555 1_555
C26 O7 1_555 1_555
C27 C21 1_555 1_555
C28 N7 1_555 1_555
H13 C28 1_555 1_555
C29 N8 1_555 1_555
H14 C29 1_555 1_555
C30 C27 1_555 1_555
C31 C27 1_555 1_555
H15 C31 1_555 1_555
N10 C30 1_555 1_555
O9 Ru2 1_555 1_555
N11 C34 1_555 1_555
C32 C33 1_555 1_555
C33 H16 1_555 1_555
C34 O9 1_555 1_555
C36 N11 1_555 1_555
H18 C36 1_555 1_555
Ag2 N10 1_555 1_555
S2 O10 1_555 1_555
F4 C38 1_555 1_555
O12 Ag2 1_555 1_555
F5 C38 1_555 1_555
F6 C38 1_555 1_555
C38 S2 1_555 1_555
N13 Ag1 1_555 1_555
N14 Ag2 1_555 1_555
N15 Ag2 1_555 1_555
N16 Ag1 1_555 1_555
N1 Ru2 1_555 1_555
N3 Ru2 1_555 1_555
C9 C14 1_555 1_555
C10 C11 1_555 1_555
C17 C19 1_555 1_555
C18 N6 1_555 1_555
N7 C26 1_555 1_555
N8 C20 1_555 1_555
C24 C28 1_555 1_555
C25 C26 1_555 1_555
C29 C31 1_555 1_555
C33 C34 1_555 1_555
S2 O12 1_555 1_555
N12 C37 1_555 1_555
H17 C35 1_555 1_555
Ag4 N12 1_555 1_555
Ag4 N4 1_555 1_555
O1_2 C6_2 1_555 1_555
N2_2 C6_2 1_555 1_555
N15 C15_2 1_555 1_555
C1_2 O3_2 1_555 1_555
C2_2 C5_2 1_555 1_555
C3_2 C1_2 1_555 1_555
H1_2 C3_2 1_555 1_555
C5_2 H2_2 1_555 1_555
C6_2 C5_2 1_555 1_555
C8_2 C2_2 1_555 1_555
H3_2 C8_2 1_555 1_555
C12_2 N2_2 1_555 1_555
H6_2 C12_2 1_555 1_555
C13_2 C3_2 1_555 1_555
C15_2 C2_2 1_555 1_555
C18_2 C13_2 1_555 1_555
N6_2 Ag4 1_555 1_555
H13_2 C28_2 1_555 1_555
C8_2 C12_2 1_555 1_555
C18_2 N6_2 1_555 1_555
H7_2 C14_2 1_555 1_555
C20_2 O8_2 1_555 1_555
C21_2 C20_2 1_555 1_555
H10_2 C21_2 1_555 1_555
C27_2 C21_2 1_555 1_555
C30_2 C27_2 1_555 1_555
N10_2 C30_2 1_555 1_555
N11_2 C34_2 1_555 1_555
N16 C37_2 1_555 1_555
C32_2 C33_2 1_555 1_555
C33_2 H16_2 1_555 1_555
C34_2 O9_2 1_555 1_555
C35_2 C32_2 1_555 1_555
H17_2 C35_2 1_555 1_555
C36_2 N11_2 1_555 1_555
H18_2 C36_2 1_555 1_555
C37_2 C32_2 1_555 1_555
Ag6 N10_2 1_555 1_555
C33_2 C34_2 1_555 1_555
C35_2 C36_2 1_555 1_555
S1_2 O4_2 1_555 1_555
F1_2 C16_2 1_555 1_555
O6_2 S1_2 1_555 1_555
F2_2 C16_2 1_555 1_555
F3_2 C16_2 1_555 1_555
C16_2 S1_2 1_555 1_555
C17_2 N3_2 1_555 1_555
H8_2 C17_2 1_555 1_555
H9_2 C19_2 1_555 1_555
O7_2 Ru2_2 1_555 1_555
C22_2 C23_2 1_555 1_555
C23_2 C24_2 1_555 1_555
C25_2 C23_2 1_555 1_555
H12_2 C25_2 1_555 1_555
C26_2 O7_2 1_555 1_555
N3_2 Ru2_2 1_555 1_555
C17_2 C19_2 1_555 1_555
N7_2 C26_2 1_555 1_555
C25_2 C26_2 1_555 1_555
O2_2 Ru1_2 1_555 1_555
N1_2 C11_2 1_555 1_555
C4_2 C7_2 1_555 1_555
C7_2 C9_2 1_555 1_555
C10_2 C7_2 1_555 1_555
H5_2 C10_2 1_555 1_555
C11_2 O2_2 1_555 1_555
N8_2 Ru1_2 1_555 1_555
C29_2 N8_2 1_555 1_555
H14_2 C29_2 1_555 1_555
H15_2 C31_2 1_555 1_555
S2_2 O10_2 1_555 1_555
F4_2 C38_2 1_555 1_555
F5_2 C38_2 1_555 1_555
F6_2 C38_2 1_555 1_555
C38_2 S2_2 1_555 1_555
C10_2 C11_2 1_555 1_555
C29_2 C31_2 1_555 1_555
S2_2 O12_2 1_555 1_555

#END
