
###############################################################################
#
# This file contains modified crystal structure data generated from the
# MOF subset of the Cambridge Structural Database (CSD) v543 
# hosted by the Cambridge Crystallographic Data Centre (CCDC).
#
# This work is licensed under the Creative Commons
# Attribution-NonCommercial-ShareAlike 4.0 International License.
# To view a copy of this license, visit
# http://creativecommons.org/licenses/by-nc-sa/4.0/
# or send a letter to
# Creative Commons, PO Box 1866, Mountain View, CA 94042, USA.
#
# CIF created using the CSD Python API on 29 September 2022
# The structure has been converted into the P1 space group
# The structure has a 3D framework
# The original CSD entry KUZBAL is in the triclinic crystal system
# The framework has been calculated to contain at least 10.0% void space
# The void calculation uses a probe of radius 1.32A, grid spacing 0.4
#
###############################################################################

data_KUZBAL
_chemical_formula_moiety         '(C28 H14 N2 O15 Zn4)n'
_symmetry_cell_setting           triclinic
_symmetry_space_group_name_H-M   'P 1'
_symmetry_Int_Tables_number      1
_space_group_name_Hall           'P 1'
loop_
_symmetry_equiv_pos_site_id
_symmetry_equiv_pos_as_xyz
1 x,y,z
_cell_length_a                   10.5578(4)
_cell_length_b                   11.4588(4)
_cell_length_c                   11.8208(4)
_cell_angle_alpha                110.7830(10)
_cell_angle_beta                 98.5230(10)
_cell_angle_gamma                104.7920(10)
_cell_volume                     1246.79
loop_
_atom_site_label
_atom_site_type_symbol
_atom_site_fract_x
_atom_site_fract_y
_atom_site_fract_z
Zn5 Zn 0.37040(3) 0.03613(3) 0.95287(3)
H1 H 0.384220 0.843739 0.014495
Zn4 Zn 0.62960(3) 0.96387(3) 0.04713(3)
Zn2 Zn 0.36373(3) 0.74916(3) 0.79700(3)
O4 O 0.18086(17) 0.73214(18) 0.71645(17)
O5 O 0.16585(17) 0.91611(18) 0.86023(17)
O8 O 0.41797(17) 0.87676(17) 0.97114(16)
C8 C 0.1173(2) 0.8085(3) 0.7663(2)
O12 O 0.51604(18) 0.72810(19) 0.72546(18)
O15 O 0.41636(19) 0.95233(19) 0.76447(17)
N2 N 0.3193(2) 0.5629(2) 0.8058(2)
O9 O 0.58364(19) 0.04767(19) 0.23553(17)
H2 H 0.503772 0.018762 0.238797
H3 H 0.638522 0.051422 0.301187
Zn8 Zn 0.63627(3) 0.25084(3) 0.20300(3)
O10 O 0.83415(17) 0.08389(18) 0.13977(17)
O14 O 0.58203(17) 0.12324(17) 0.02886(16)
O1 O 0.6531(2) 0.81300(19) 0.09069(17)
O2 O 0.7270(2) 0.9115(2) 0.30080(18)
O3 O 0.73364(18) 0.51298(17) 0.40250(15)
O6 O 0.68606(18) 0.89131(19) 0.88422(17)
N1 N 0.6807(2) 0.4371(2) 0.1942(2)
C1 C 0.6945(3) 0.8153(3) 0.1973(3)
C2 C 0.6985(3) 0.6836(3) 0.1965(3)
C3 C 0.7256(3) 0.6688(3) 0.3082(2)
H4 H 0.750543 0.742491 0.386787
C4 C 0.7154(2) 0.5440(3) 0.3019(2)
C5 C 0.7818(3) 0.6157(2) 0.5237(2)
C6 C 0.9193(3) 0.6631(3) 0.5801(2)
H5 H 0.980000 0.630799 0.535992
C7 C 0.9677(2) 0.7590(3) 0.7031(2)
C9 C 0.8775(2) 0.8042(3) 0.7674(2)
H6 H 0.910771 0.870712 0.850721
C10 C 0.7390(2) 0.7523(2) 0.7100(2)
C11 C 0.6400(3) 0.7949(3) 0.7803(2)
C12 C 0.6904(2) 0.6564(2) 0.5864(2)
H7 H 0.595842 0.619912 0.546402
C13 C 0.6601(3) 0.4539(3) 0.0871(3)
H8 H 0.638711 0.379043 0.009977
C14 C 0.6686(3) 0.5740(3) 0.0836(3)
H9 H 0.654499 0.582286 0.005931
O11 O 0.31394(18) 0.10869(19) 0.11578(17)
O1_2 O 0.3469(2) 0.18700(19) 0.90931(17)
O2_2 O 0.2730(2) 0.0885(2) 0.69920(18)
O3_2 O 0.26636(18) 0.48702(17) 0.59750(15)
O7 O 0.48396(18) 0.27190(19) 0.27454(18)
C1_2 C 0.3055(3) 0.1847(3) 0.8027(3)
C2_2 C 0.3015(3) 0.3164(3) 0.8035(3)
C3_2 C 0.2744(3) 0.3312(3) 0.6918(2)
H4_2 H 0.249457 0.257509 0.613213
C4_2 C 0.2846(2) 0.4560(3) 0.6981(2)
C5_2 C 0.2182(3) 0.3843(2) 0.4763(2)
C6_2 C 0.0807(3) 0.3369(3) 0.4199(2)
H5_2 H 0.020000 0.369201 0.464008
C7_2 C 0.0323(2) 0.2410(3) 0.2969(2)
C9_2 C 0.1225(2) 0.1958(3) 0.2326(2)
H6_2 H 0.089229 0.129288 0.149279
C10_2 C 0.2610(2) 0.2477(2) 0.2900(2)
C11_2 C 0.3600(3) 0.2051(3) 0.2197(2)
C12_2 C 0.3096(2) 0.3436(2) 0.4136(2)
H7_2 H 0.404158 0.380088 0.453598
C13_2 C 0.3399(3) 0.5461(3) 0.9129(3)
H8_2 H 0.361289 0.620957 0.990023
C14_2 C 0.3314(3) 0.4260(3) 0.9164(3)
H9_2 H 0.345501 0.417714 0.994069
H2_2 H 0.496228 0.981238 0.761203
H3_2 H 0.361478 0.948578 0.698813
O4_2 O 0.81914(17) 0.26786(18) 0.28355(17)
C8_2 C 0.8827(2) 0.1915(3) 0.2337(2)
H1_2 H 0.615780 0.156261 0.985505
loop_
_geom_bond_atom_site_label_1
_geom_bond_atom_site_label_2
_geom_bond_site_symmetry_1
_geom_bond_site_symmetry_2
Zn2 O4 1_555 1_555
O4 C8 1_555 1_555
O5 C8 1_555 1_555
O8 Zn2 1_555 1_555
O12 Zn2 1_555 1_555
O15 Zn2 1_555 1_555
N2 Zn2 1_555 1_555
H2 O9 1_555 1_555
H3 O9 1_555 1_555
Zn8 O9 1_555 1_555
Zn8 O14 1_555 1_555
Zn4 O1 1_555 1_555
O1 C1 1_555 1_555
O2 C1 1_555 1_555
O3 C4 1_555 1_555
O6 C11 1_555 1_555
O12 C11 1_555 1_555
N1 C4 1_555 1_555
C1 C2 1_555 1_555
C2 C3 1_555 1_555
C3 H4 1_555 1_555
C4 C3 1_555 1_555
C5 O3 1_555 1_555
C6 C5 1_555 1_555
H5 C6 1_555 1_555
C7 C6 1_555 1_555
C9 C7 1_555 1_555
H6 C9 1_555 1_555
C10 C9 1_555 1_555
C11 C10 1_555 1_555
C12 C5 1_555 1_555
H7 C12 1_555 1_555
C13 N1 1_555 1_555
H8 C13 1_555 1_555
C14 C2 1_555 1_555
H9 C14 1_555 1_555
Zn8 N1 1_555 1_555
C10 C12 1_555 1_555
C13 C14 1_555 1_555
Zn5 O1_2 1_555 1_555
O1_2 C1_2 1_555 1_555
O2_2 C1_2 1_555 1_555
O3_2 C4_2 1_555 1_555
O11 C11_2 1_555 1_555
O7 C11_2 1_555 1_555
N2 C4_2 1_555 1_555
C1_2 C2_2 1_555 1_555
C2_2 C3_2 1_555 1_555
C3_2 H4_2 1_555 1_555
C4_2 C3_2 1_555 1_555
C5_2 O3_2 1_555 1_555
C6_2 C5_2 1_555 1_555
H5_2 C6_2 1_555 1_555
C7_2 C6_2 1_555 1_555
C9_2 C7_2 1_555 1_555
H6_2 C9_2 1_555 1_555
C10_2 C9_2 1_555 1_555
C11_2 C10_2 1_555 1_555
C12_2 C5_2 1_555 1_555
H7_2 C12_2 1_555 1_555
C13_2 N2 1_555 1_555
H8_2 C13_2 1_555 1_555
C14_2 C2_2 1_555 1_555
H9_2 C14_2 1_555 1_555
Zn8 O7 1_555 1_555
C10_2 C12_2 1_555 1_555
C13_2 C14_2 1_555 1_555
H2_2 O15 1_555 1_555
H3_2 O15 1_555 1_555
Zn8 O4_2 1_555 1_555
O4_2 C8_2 1_555 1_555
O10 C8_2 1_555 1_555

#END
