
###############################################################################
#
# This file contains modified crystal structure data generated from the
# MOF subset of the Cambridge Structural Database (CSD) v543 
# hosted by the Cambridge Crystallographic Data Centre (CCDC).
#
# This work is licensed under the Creative Commons
# Attribution-NonCommercial-ShareAlike 4.0 International License.
# To view a copy of this license, visit
# http://creativecommons.org/licenses/by-nc-sa/4.0/
# or send a letter to
# Creative Commons, PO Box 1866, Mountain View, CA 94042, USA.
#
# CIF created using the CSD Python API on 29 September 2022
# The structure has been converted into the P1 space group
# The structure has a 3D framework
# The original CSD entry KUZQAA is in the tetragonal crystal system
# The framework has been calculated to contain at least 10.0% void space
# The void calculation uses a probe of radius 1.32A, grid spacing 0.4
# H atom positions have been added when not included in the experimental data
#
###############################################################################

data_KUZQAA
_chemical_formula_moiety         '(C96 H64 Al16 N36 O64)n'
_symmetry_cell_setting           triclinic
_symmetry_space_group_name_H-M   'P 1'
_symmetry_Int_Tables_number      1
_space_group_name_Hall           'P 1'
loop_
_symmetry_equiv_pos_site_id
_symmetry_equiv_pos_as_xyz
1 x,y,z
_cell_length_a                   21.1772(2)
_cell_length_b                   21.1772(2)
_cell_length_c                   10.70116(17)
_cell_angle_alpha                90
_cell_angle_beta                 90
_cell_angle_gamma                90
_cell_volume                     4799.19
loop_
_atom_site_label
_atom_site_type_symbol
_atom_site_fract_x
_atom_site_fract_y
_atom_site_fract_z
Al1 Al 0.1881(3) 0.2528(5) 0.217(9)
O1 O 0.2467(8) 0.2448(8) 0.103(9)
N1 N 0.0006(4) 0.2910(7) 0.420(9)
O2 O 0.1607(4) 0.3248(7) 0.482(9)
O3 O 0.1184(6) 0.2669(6) 0.336(9)
C1 C 0.0540(4) 0.3174(4) 0.469(9)
C2 C 0.1145(4) 0.3032(4) 0.431(9)
C3 C 0.0349(6) 0.3584(6) 0.552(9)
O4 O 0.1201(6) 0.2545(6) 0.096(9)
C4 C 0.1124(4) 0.2232(4) 0.003(9)
N2 N 0.0009(4) 0.2383(6) 0.000(9)
Al3 Al 0.2528(5) 0.3119(3) 0.467(9)
O11 O 0.2448(8) 0.2533(8) 0.353(9)
O13 O 0.1752(7) 0.1607(4) 0.232(9)
O15 O 0.1927(6) 0.3436(4) 0.199(9)
H1 H 0.000846307 0.256041 0.355115
H5 H 0.00125727 0.259732 0.0848354
H6 H 0.0651121 0.387489 0.610887
O5 O 0.1564(4) 0.1927(6) 0.949(9)
C5 C 0.0336(6) 0.2076(7) 0.820(9)
C6 C 0.0534(4) 0.2239(3) 0.943(9)
N2_2 N 0.0009(4) 0.2383(6) 1.000(9)
Al5 Al 0.2472(5) 0.1881(3) 0.967(9)
H2 H 0.0641421 0.197105 0.740807
O6 O 0.8393(4) 0.3248(7) 0.482(9)
O7 O 0.8816(6) 0.2669(6) 0.336(9)
C7 C 0.9460(4) 0.3174(4) 0.469(9)
C8 C 0.8855(4) 0.3032(4) 0.431(9)
C9 C 0.9651(6) 0.3584(6) 0.552(9)
O8 O 0.8799(6) 0.2545(6) 0.096(9)
C10 C 0.8876(4) 0.2232(4) 0.003(9)
Al2 Al 0.8119(3) 0.2528(5) 0.217(9)
O10 O 0.7533(8) 0.2448(8) 0.103(9)
Al4 Al 0.7472(5) 0.3119(3) 0.467(9)
O12 O 0.7552(8) 0.2533(8) 0.353(9)
O14 O 0.8248(7) 0.1607(4) 0.232(9)
O16 O 0.8073(6) 0.3436(4) 0.199(9)
H4 H 0.934888 0.387489 0.610887
O9 O 0.8436(4) 0.1927(6) 0.949(9)
C11 C 0.9664(6) 0.2076(7) 0.820(9)
C12 C 0.9466(4) 0.2239(3) 0.943(9)
Al6 Al 0.7528(5) 0.1881(3) 0.967(9)
H3 H 0.935858 0.197105 0.740807
O6_2 O 0.1607(4) 0.6752(7) 0.482(9)
O7_2 O 0.1184(6) 0.7331(6) 0.336(9)
C7_2 C 0.0540(4) 0.6826(4) 0.469(9)
C8_2 C 0.1145(4) 0.6968(4) 0.431(9)
C9_2 C 0.0349(6) 0.6416(6) 0.552(9)
O8_2 O 0.1201(6) 0.7455(6) 0.096(9)
C10_2 C 0.1124(4) 0.7768(4) 0.003(9)
Al2_2 Al 0.1881(3) 0.7472(5) 0.217(9)
O10_2 O 0.2467(8) 0.7552(8) 0.103(9)
Al4_2 Al 0.2528(5) 0.6881(3) 0.467(9)
O12_2 O 0.2448(8) 0.7467(8) 0.353(9)
O14_2 O 0.1752(7) 0.8393(4) 0.232(9)
O16_2 O 0.1927(6) 0.6564(4) 0.199(9)
H4_2 H 0.0651121 0.612511 0.610887
O9_2 O 0.1564(4) 0.8073(6) 0.949(9)
C11_2 C 0.0336(6) 0.7924(7) 0.820(9)
C12_2 C 0.0534(4) 0.7761(3) 0.943(9)
Al6_2 Al 0.2472(5) 0.8119(3) 0.967(9)
H3_2 H 0.0641421 0.802895 0.740807
Al1_2 Al 0.8119(3) 0.7472(5) 0.217(9)
O1_2 O 0.7533(8) 0.7552(8) 0.103(9)
N1_2 N 0.9994(4) 0.7090(7) 0.420(9)
O2_2 O 0.8393(4) 0.6752(7) 0.482(9)
O3_2 O 0.8816(6) 0.7331(6) 0.336(9)
C1_2 C 0.9460(4) 0.6826(4) 0.469(9)
C2_2 C 0.8855(4) 0.6968(4) 0.431(9)
C3_2 C 0.9651(6) 0.6416(6) 0.552(9)
O4_2 O 0.8799(6) 0.7455(6) 0.096(9)
C4_2 C 0.8876(4) 0.7768(4) 0.003(9)
N2_3 N 0.9991(4) 0.7617(6) 0.000(9)
Al3_2 Al 0.7472(5) 0.6881(3) 0.467(9)
O11_2 O 0.7552(8) 0.7467(8) 0.353(9)
O13_2 O 0.8248(7) 0.8393(4) 0.232(9)
O15_2 O 0.8073(6) 0.6564(4) 0.199(9)
H1_2 H 0.999154 0.743959 0.355115
H5_2 H 0.998743 0.740268 0.0848354
H6_2 H 0.934888 0.612511 0.610887
O5_2 O 0.8436(4) 0.8073(6) 0.949(9)
C5_2 C 0.9664(6) 0.7924(7) 0.820(9)
C6_2 C 0.9466(4) 0.7761(3) 0.943(9)
N2_4 N 0.9991(4) 0.7617(6) 1.000(9)
Al5_2 Al 0.7528(5) 0.8119(3) 0.967(9)
H2_2 H 0.935858 0.802895 0.740807
N1_3 N 0.7090(7) 0.5006(4) 0.670(9)
O2_3 O 0.6752(7) 0.6607(4) 0.732(9)
O3_3 O 0.7331(6) 0.6184(6) 0.586(9)
C1_3 C 0.6826(4) 0.5540(4) 0.719(9)
C2_3 C 0.6968(4) 0.6145(4) 0.681(9)
C3_3 C 0.6416(6) 0.5349(6) 0.802(9)
O4_3 O 0.7455(6) 0.6201(6) 0.346(9)
C4_3 C 0.7768(4) 0.6124(4) 0.253(9)
C5_3 C 0.7924(7) 0.5336(6) 0.070(9)
C6_3 C 0.7761(3) 0.5534(4) 0.193(9)
N2_5 N 0.7617(6) 0.5009(4) 0.250(9)
O6_3 O 0.6752(7) 0.3393(4) 0.732(9)
O7_3 O 0.7331(6) 0.3816(6) 0.586(9)
C7_3 C 0.6826(4) 0.4460(4) 0.719(9)
C8_3 C 0.6968(4) 0.3855(4) 0.681(9)
C9_3 C 0.6416(6) 0.4651(6) 0.802(9)
O8_3 O 0.7455(6) 0.3799(6) 0.346(9)
C10_3 C 0.7768(4) 0.3876(4) 0.253(9)
C11_3 C 0.7924(7) 0.4664(6) 0.070(9)
C12_3 C 0.7761(3) 0.4466(4) 0.193(9)
Al3_3 Al 0.6881(3) 0.7528(5) 0.717(9)
Al4_3 Al 0.6881(3) 0.2472(5) 0.717(9)
O11_3 O 0.7467(8) 0.7448(8) 0.603(9)
O12_3 O 0.7467(8) 0.2552(8) 0.603(9)
O15_3 O 0.6564(4) 0.6927(6) 0.449(9)
O16_3 O 0.6564(4) 0.3073(6) 0.449(9)
H1_3 H 0.743959 0.500846 0.605115
H4_3 H 0.612511 0.434888 0.860887
H5_3 H 0.740268 0.501257 0.334835
H6_3 H 0.612511 0.565112 0.860887
N1_4 N 0.2910(7) 0.4994(4) 0.670(9)
O2_4 O 0.3248(7) 0.3393(4) 0.732(9)
O3_4 O 0.2669(6) 0.3816(6) 0.586(9)
C1_4 C 0.3174(4) 0.4460(4) 0.719(9)
C2_4 C 0.3032(4) 0.3855(4) 0.681(9)
C3_4 C 0.3584(6) 0.4651(6) 0.802(9)
O4_4 O 0.2545(6) 0.3799(6) 0.346(9)
C4_4 C 0.2232(4) 0.3876(4) 0.253(9)
C5_4 C 0.2076(7) 0.4664(6) 0.070(9)
C6_4 C 0.2239(3) 0.4466(4) 0.193(9)
N2_6 N 0.2383(6) 0.4991(4) 0.250(9)
O6_4 O 0.3248(7) 0.6607(4) 0.732(9)
O7_4 O 0.2669(6) 0.6184(6) 0.586(9)
C7_4 C 0.3174(4) 0.5540(4) 0.719(9)
C8_4 C 0.3032(4) 0.6145(4) 0.681(9)
C9_4 C 0.3584(6) 0.5349(6) 0.802(9)
O8_4 O 0.2545(6) 0.6201(6) 0.346(9)
C10_4 C 0.2232(4) 0.6124(4) 0.253(9)
C11_4 C 0.2076(7) 0.5336(6) 0.070(9)
C12_4 C 0.2239(3) 0.5534(4) 0.193(9)
Al3_4 Al 0.3119(3) 0.2472(5) 0.717(9)
Al4_4 Al 0.3119(3) 0.7528(5) 0.717(9)
O11_4 O 0.2533(8) 0.2552(8) 0.603(9)
O12_4 O 0.2533(8) 0.7448(8) 0.603(9)
O15_4 O 0.3436(4) 0.3073(6) 0.449(9)
O16_4 O 0.3436(4) 0.6927(6) 0.449(9)
H1_4 H 0.256041 0.499154 0.605115
H4_4 H 0.387489 0.565112 0.860887
H5_4 H 0.259732 0.498743 0.334835
H6_4 H 0.387489 0.434888 0.860887
N1_5 N 0.0006(4) 0.7090(7) 0.420(9)
N2_7 N 0.0009(4) 0.7617(6) 0.000(9)
H1_5 H 0.000846307 0.743959 0.355115
H5_5 H 0.00125727 0.740268 0.0848354
N2_8 N 0.0009(4) 0.7617(6) 1.000(9)
N1_6 N 0.9994(4) 0.2910(7) 0.420(9)
N2_9 N 0.9991(4) 0.2383(6) 0.000(9)
H1_6 H 0.999154 0.256041 0.355115
H5_6 H 0.998743 0.259732 0.0848354
N2_10 N 0.9991(4) 0.2383(6) 1.000(9)
N1_7 N 0.7090(7) 0.4994(4) 0.670(9)
N2_11 N 0.7617(6) 0.4991(4) 0.250(9)
H1_7 H 0.743959 0.499154 0.605115
H5_7 H 0.740268 0.498743 0.334835
N1_8 N 0.2910(7) 0.5006(4) 0.670(9)
N2_12 N 0.2383(6) 0.5009(4) 0.250(9)
H1_8 H 0.256041 0.500846 0.605115
H5_8 H 0.259732 0.501257 0.334835
N1_9 N 0.5006(4) 0.7910(7) 0.920(9)
O2_5 O 0.6607(4) 0.8248(7) 0.982(9)
O3_5 O 0.6184(6) 0.7669(6) 0.836(9)
C1_5 C 0.5540(4) 0.8174(4) 0.969(9)
C2_5 C 0.6145(4) 0.8032(4) 0.931(9)
O4_5 O 0.6201(6) 0.7545(6) 0.596(9)
C4_5 C 0.6124(4) 0.7232(4) 0.503(9)
C5_5 C 0.5336(6) 0.7076(7) 0.320(9)
C6_5 C 0.5534(4) 0.7239(3) 0.443(9)
N2_13 N 0.5009(4) 0.7383(6) 0.500(9)
O6_5 O 0.3393(4) 0.8248(7) 0.982(9)
O7_5 O 0.3816(6) 0.7669(6) 0.836(9)
C7_5 C 0.4460(4) 0.8174(4) 0.969(9)
C8_5 C 0.3855(4) 0.8032(4) 0.931(9)
O8_5 O 0.3799(6) 0.7545(6) 0.596(9)
C10_5 C 0.3876(4) 0.7232(4) 0.503(9)
C11_5 C 0.4664(6) 0.7076(7) 0.320(9)
C12_5 C 0.4466(4) 0.7239(3) 0.443(9)
O11_5 O 0.7448(8) 0.7533(8) 0.853(9)
O12_5 O 0.2552(8) 0.7533(8) 0.853(9)
O15_5 O 0.6927(6) 0.8436(4) 0.699(9)
O16_5 O 0.3073(6) 0.8436(4) 0.699(9)
H1_9 H 0.500846 0.756041 0.855115
H2_3 H 0.564142 0.697105 0.240807
H3_3 H 0.435858 0.697105 0.240807
H5_9 H 0.501257 0.759732 0.584835
N1_10 N 0.4994(4) 0.2090(7) 0.920(9)
O2_6 O 0.3393(4) 0.1752(7) 0.982(9)
O3_6 O 0.3816(6) 0.2331(6) 0.836(9)
C1_6 C 0.4460(4) 0.1826(4) 0.969(9)
C2_6 C 0.3855(4) 0.1968(4) 0.931(9)
O4_6 O 0.3799(6) 0.2455(6) 0.596(9)
C4_6 C 0.3876(4) 0.2768(4) 0.503(9)
C5_6 C 0.4664(6) 0.2924(7) 0.320(9)
C6_6 C 0.4466(4) 0.2761(3) 0.443(9)
N2_14 N 0.4991(4) 0.2617(6) 0.500(9)
O6_6 O 0.6607(4) 0.1752(7) 0.982(9)
O7_6 O 0.6184(6) 0.2331(6) 0.836(9)
C7_6 C 0.5540(4) 0.1826(4) 0.969(9)
C8_6 C 0.6145(4) 0.1968(4) 0.931(9)
O8_6 O 0.6201(6) 0.2455(6) 0.596(9)
C10_6 C 0.6124(4) 0.2768(4) 0.503(9)
C11_6 C 0.5336(6) 0.2924(7) 0.320(9)
C12_6 C 0.5534(4) 0.2761(3) 0.443(9)
O11_6 O 0.2552(8) 0.2467(8) 0.853(9)
O12_6 O 0.7448(8) 0.2467(8) 0.853(9)
O15_6 O 0.3073(6) 0.1564(4) 0.699(9)
O16_6 O 0.6927(6) 0.1564(4) 0.699(9)
H1_10 H 0.499154 0.243959 0.855115
H2_4 H 0.435858 0.302895 0.240807
H3_4 H 0.564142 0.302895 0.240807
H5_10 H 0.498743 0.240268 0.584835
N1_11 N 0.2090(7) 0.0006(4) 0.170(9)
O3_7 O 0.2331(6) 0.1184(6) 0.086(9)
C1_7 C 0.1826(4) 0.0540(4) 0.219(9)
C2_7 C 0.1968(4) 0.1145(4) 0.181(9)
C3_5 C 0.1416(6) 0.0349(6) 0.302(9)
H1_11 H 0.243959 0.000846307 0.105115
H6_5 H 0.112511 0.0651121 0.360887
O4_7 O 0.2455(6) 0.1201(6) 0.846(9)
C4_7 C 0.2768(4) 0.1124(4) 0.753(9)
C5_7 C 0.2924(7) 0.0336(6) 0.570(9)
C6_7 C 0.2761(3) 0.0534(4) 0.693(9)
N2_15 N 0.2617(6) 0.0009(4) 0.750(9)
H2_5 H 0.302895 0.0641421 0.490807
H5_11 H 0.240268 0.00125727 0.834835
O7_7 O 0.2331(6) 0.8816(6) 0.086(9)
C7_7 C 0.1826(4) 0.9460(4) 0.219(9)
C8_7 C 0.1968(4) 0.8855(4) 0.181(9)
C9_5 C 0.1416(6) 0.9651(6) 0.302(9)
H4_5 H 0.112511 0.934888 0.360887
O8_7 O 0.2455(6) 0.8799(6) 0.846(9)
C10_7 C 0.2768(4) 0.8876(4) 0.753(9)
C11_7 C 0.2924(7) 0.9664(6) 0.570(9)
C12_7 C 0.2761(3) 0.9466(4) 0.693(9)
H3_5 H 0.302895 0.935858 0.490807
O7_8 O 0.7669(6) 0.1184(6) 0.086(9)
C7_8 C 0.8174(4) 0.0540(4) 0.219(9)
C8_8 C 0.8032(4) 0.1145(4) 0.181(9)
C9_6 C 0.8584(6) 0.0349(6) 0.302(9)
H4_6 H 0.887489 0.0651121 0.360887
O8_8 O 0.7545(6) 0.1201(6) 0.846(9)
C10_8 C 0.7232(4) 0.1124(4) 0.753(9)
C11_8 C 0.7076(7) 0.0336(6) 0.570(9)
C12_8 C 0.7239(3) 0.0534(4) 0.693(9)
H3_6 H 0.697105 0.0641421 0.490807
N1_12 N 0.7910(7) 0.9994(4) 0.170(9)
O3_8 O 0.7669(6) 0.8816(6) 0.086(9)
C1_8 C 0.8174(4) 0.9460(4) 0.219(9)
C2_8 C 0.8032(4) 0.8855(4) 0.181(9)
C3_6 C 0.8584(6) 0.9651(6) 0.302(9)
H1_12 H 0.756041 0.999154 0.105115
H6_6 H 0.887489 0.934888 0.360887
O4_8 O 0.7545(6) 0.8799(6) 0.846(9)
C4_8 C 0.7232(4) 0.8876(4) 0.753(9)
C5_8 C 0.7076(7) 0.9664(6) 0.570(9)
C6_8 C 0.7239(3) 0.9466(4) 0.693(9)
N2_16 N 0.7383(6) 0.9991(4) 0.750(9)
H2_6 H 0.697105 0.935858 0.490807
H5_12 H 0.759732 0.998743 0.834835
N1_13 N 0.5006(4) 0.2090(7) 0.920(9)
N2_17 N 0.5009(4) 0.2617(6) 0.500(9)
H1_13 H 0.500846 0.243959 0.855115
H5_13 H 0.501257 0.240268 0.584835
N1_14 N 0.4994(4) 0.7910(7) 0.920(9)
N2_18 N 0.4991(4) 0.7383(6) 0.500(9)
H1_14 H 0.499154 0.756041 0.855115
H5_14 H 0.498743 0.759732 0.584835
N1_15 N 0.2090(7) 0.9994(4) 0.170(9)
H1_15 H 0.243959 0.999154 0.105115
N2_19 N 0.2617(6) 0.9991(4) 0.750(9)
H5_15 H 0.240268 0.998743 0.834835
N1_16 N 0.7910(7) 0.0006(4) 0.170(9)
H1_16 H 0.756041 0.000846307 0.105115
N2_20 N 0.7383(6) 0.0009(4) 0.750(9)
H5_16 H 0.759732 0.00125727 0.834835
H2_7 H 0.802895 0.564142 0.990807
H3_7 H 0.802895 0.435858 0.990807
H2_8 H 0.197105 0.435858 0.990807
H3_8 H 0.197105 0.564142 0.990807
C3_7 C 0.5349(6) 0.8584(6) 0.052(9)
C9_7 C 0.4651(6) 0.8584(6) 0.052(9)
H4_7 H 0.434888 0.887489 0.110887
H6_7 H 0.565112 0.887489 0.110887
C3_8 C 0.4651(6) 0.1416(6) 0.052(9)
C9_8 C 0.5349(6) 0.1416(6) 0.052(9)
H4_8 H 0.565112 0.112511 0.110887
H6_8 H 0.434888 0.112511 0.110887
loop_
_geom_bond_atom_site_label_1
_geom_bond_atom_site_label_2
_geom_bond_site_symmetry_1
_geom_bond_site_symmetry_2
Al1 O1 1_555 1_555
N1 C1 1_555 1_555
O2 C2 1_555 1_555
O3 Al1 1_555 1_555
C1 C2 1_555 1_555
C2 O3 1_555 1_555
C3 C1 1_555 1_555
O4 Al1 1_555 1_555
C4 O4 1_555 1_555
Al3 O2 1_555 1_555
O11 Al1 1_555 1_555
O13 Al1 1_555 1_555
O15 Al1 1_555 1_555
Al3 O11 1_555 1_555
N1 H1 1_555 1_555
N2 H5 1_555 1_555
C3 H6 1_555 1_555
C5 C6 1_555 1_555
N2_2 C6 1_555 1_555
Al5 O5 1_555 1_555
C5 H2 1_555 1_555
O6 C8 1_555 1_555
O7 C8 1_555 1_555
C8 C7 1_555 1_555
O8 C10 1_555 1_555
Al2 O7 1_555 1_555
O10 Al2 1_555 1_555
Al4 O6 1_555 1_555
O12 Al2 1_555 1_555
O14 Al2 1_555 1_555
O16 Al2 1_555 1_555
C7 C9 1_555 1_555
O8 Al2 1_555 1_555
Al4 O12 1_555 1_555
C9 H4 1_555 1_555
Al6 O9 1_555 1_555
C11 C12 1_555 1_555
C11 H3 1_555 1_555
O6_2 C8_2 1_555 1_555
O7_2 C8_2 1_555 1_555
C8_2 C7_2 1_555 1_555
O8_2 C10_2 1_555 1_555
Al2_2 O7_2 1_555 1_555
O10_2 Al2_2 1_555 1_555
Al4_2 O6_2 1_555 1_555
O12_2 Al2_2 1_555 1_555
O14_2 Al2_2 1_555 1_555
O16_2 Al2_2 1_555 1_555
C7_2 C9_2 1_555 1_555
O8_2 Al2_2 1_555 1_555
Al4_2 O12_2 1_555 1_555
C9_2 H4_2 1_555 1_555
Al6_2 O9_2 1_555 1_555
C11_2 C12_2 1_555 1_555
C11_2 H3_2 1_555 1_555
Al1_2 O1_2 1_555 1_555
N1_2 C1_2 1_555 1_555
O2_2 C2_2 1_555 1_555
O3_2 Al1_2 1_555 1_555
C1_2 C2_2 1_555 1_555
C2_2 O3_2 1_555 1_555
C3_2 C1_2 1_555 1_555
O4_2 Al1_2 1_555 1_555
C4_2 O4_2 1_555 1_555
Al3_2 O2_2 1_555 1_555
O11_2 Al1_2 1_555 1_555
O13_2 Al1_2 1_555 1_555
O15_2 Al1_2 1_555 1_555
Al3_2 O11_2 1_555 1_555
N1_2 H1_2 1_555 1_555
N2_3 H5_2 1_555 1_555
C3_2 H6_2 1_555 1_555
C5_2 C6_2 1_555 1_555
N2_4 C6_2 1_555 1_555
Al5_2 O5_2 1_555 1_555
C5_2 H2_2 1_555 1_555
N1_3 C1_3 1_555 1_555
O2_3 C2_3 1_555 1_555
O3_3 Al3_2 1_555 1_555
C1_3 C2_3 1_555 1_555
C2_3 O3_3 1_555 1_555
C3_3 C1_3 1_555 1_555
O4_3 Al3_2 1_555 1_555
O15_2 C4_3 1_555 1_555
C4_3 O4_3 1_555 1_555
C5_3 C6_3 1_555 1_555
C6_3 C4_3 1_555 1_555
N2_5 C6_3 1_555 1_555
O6_3 C8_3 1_555 1_555
O7_3 C8_3 1_555 1_555
C7_3 N1_3 1_555 1_555
C8_3 C7_3 1_555 1_555
C9_3 C3_3 1_555 1_555
O8_3 C10_3 1_555 1_555
O16 C10_3 1_555 1_555
C10_3 C12_3 1_555 1_555
C11_3 C5_3 1_555 1_555
C12_3 N2_5 1_555 1_555
Al4 O7_3 1_555 1_555
Al3_3 O2_3 1_555 1_555
Al4_3 O6_3 1_555 1_555
O11_3 Al3_2 1_555 1_555
O12_3 Al4 1_555 1_555
O15_3 Al3_2 1_555 1_555
O16_3 Al4 1_555 1_555
C7_3 C9_3 1_555 1_555
O8_3 Al4 1_555 1_555
C11_3 C12_3 1_555 1_555
Al3_3 O11_3 1_555 1_555
Al4_3 O12_3 1_555 1_555
N1_3 H1_3 1_555 1_555
C9_3 H4_3 1_555 1_555
N2_5 H5_3 1_555 1_555
C3_3 H6_3 1_555 1_555
N1_4 C1_4 1_555 1_555
O2_4 C2_4 1_555 1_555
O3_4 Al3 1_555 1_555
C1_4 C2_4 1_555 1_555
C2_4 O3_4 1_555 1_555
C3_4 C1_4 1_555 1_555
O4_4 Al3 1_555 1_555
O15 C4_4 1_555 1_555
C4_4 O4_4 1_555 1_555
C5_4 C6_4 1_555 1_555
C6_4 C4_4 1_555 1_555
N2_6 C6_4 1_555 1_555
O6_4 C8_4 1_555 1_555
O7_4 C8_4 1_555 1_555
C7_4 N1_4 1_555 1_555
C8_4 C7_4 1_555 1_555
C9_4 C3_4 1_555 1_555
O8_4 C10_4 1_555 1_555
O16_2 C10_4 1_555 1_555
C10_4 C12_4 1_555 1_555
C11_4 C5_4 1_555 1_555
C12_4 N2_6 1_555 1_555
Al4_2 O7_4 1_555 1_555
Al3_4 O2_4 1_555 1_555
Al4_4 O6_4 1_555 1_555
O11_4 Al3 1_555 1_555
O12_4 Al4_2 1_555 1_555
O15_4 Al3 1_555 1_555
O16_4 Al4_2 1_555 1_555
C7_4 C9_4 1_555 1_555
O8_4 Al4_2 1_555 1_555
C11_4 C12_4 1_555 1_555
Al3_4 O11_4 1_555 1_555
Al4_4 O12_4 1_555 1_555
N1_4 H1_4 1_555 1_555
C9_4 H4_4 1_555 1_555
N2_6 H5_4 1_555 1_555
C3_4 H6_4 1_555 1_555
N1_5 C7_2 1_555 1_555
N1_5 H1_5 1_555 1_555
N2_7 H5_5 1_555 1_555
N2_8 C12_2 1_555 1_555
N1_6 C7 1_555 1_555
N1_6 H1_6 1_555 1_555
N2_9 H5_6 1_555 1_555
N2_10 C12 1_555 1_555
N1_7 C7_3 1_555 1_555
N2_11 C12_3 1_555 1_555
C1_3 N1_7 1_555 1_555
C6_3 N2_11 1_555 1_555
N1_7 H1_7 1_555 1_555
N2_11 H5_7 1_555 1_555
N1_8 C7_4 1_555 1_555
N2_12 C12_4 1_555 1_555
C1_4 N1_8 1_555 1_555
C6_4 N2_12 1_555 1_555
N1_8 H1_8 1_555 1_555
N2_12 H5_8 1_555 1_555
N1_9 C1_5 1_555 1_555
O2_5 C2_5 1_555 1_555
O3_5 Al3_3 1_555 1_555
C1_5 C2_5 1_555 1_555
C2_5 O3_5 1_555 1_555
O4_5 Al3_3 1_555 1_555
O15_3 C4_5 1_555 1_555
C4_5 O4_5 1_555 1_555
C5_5 C6_5 1_555 1_555
C6_5 C4_5 1_555 1_555
N2_13 C6_5 1_555 1_555
O6_5 C8_5 1_555 1_555
O7_5 C8_5 1_555 1_555
C7_5 N1_9 1_555 1_555
C8_5 C7_5 1_555 1_555
O8_5 C10_5 1_555 1_555
O16_4 C10_5 1_555 1_555
C10_5 C12_5 1_555 1_555
C11_5 C5_5 1_555 1_555
C12_5 N2_13 1_555 1_555
Al4_4 O7_5 1_555 1_555
Al5_2 O2_5 1_555 1_555
Al6_2 O6_5 1_555 1_555
O11_5 Al3_3 1_555 1_555
O12_5 Al4_4 1_555 1_555
O15_5 Al3_3 1_555 1_555
O16_5 Al4_4 1_555 1_555
O8_5 Al4_4 1_555 1_555
C11_5 C12_5 1_555 1_555
Al5_2 O11_5 1_555 1_555
Al6_2 O12_5 1_555 1_555
N1_9 H1_9 1_555 1_555
C5_5 H2_3 1_555 1_555
C11_5 H3_3 1_555 1_555
N2_13 H5_9 1_555 1_555
N1_10 C1_6 1_555 1_555
O2_6 C2_6 1_555 1_555
O3_6 Al3_4 1_555 1_555
C1_6 C2_6 1_555 1_555
C2_6 O3_6 1_555 1_555
O4_6 Al3_4 1_555 1_555
O15_4 C4_6 1_555 1_555
C4_6 O4_6 1_555 1_555
C5_6 C6_6 1_555 1_555
C6_6 C4_6 1_555 1_555
N2_14 C6_6 1_555 1_555
O6_6 C8_6 1_555 1_555
O7_6 C8_6 1_555 1_555
C7_6 N1_10 1_555 1_555
C8_6 C7_6 1_555 1_555
O8_6 C10_6 1_555 1_555
O16_3 C10_6 1_555 1_555
C10_6 C12_6 1_555 1_555
C11_6 C5_6 1_555 1_555
C12_6 N2_14 1_555 1_555
Al4_3 O7_6 1_555 1_555
Al5 O2_6 1_555 1_555
Al6 O6_6 1_555 1_555
O11_6 Al3_4 1_555 1_555
O12_6 Al4_3 1_555 1_555
O15_6 Al3_4 1_555 1_555
O16_6 Al4_3 1_555 1_555
O8_6 Al4_3 1_555 1_555
C11_6 C12_6 1_555 1_555
Al5 O11_6 1_555 1_555
Al6 O12_6 1_555 1_555
N1_10 H1_10 1_555 1_555
C5_6 H2_4 1_555 1_555
C11_6 H3_4 1_555 1_555
N2_14 H5_10 1_555 1_555
N1_11 C1_7 1_555 1_555
O13 C2_7 1_555 1_555
C1_7 C2_7 1_555 1_555
C2_7 O3_7 1_555 1_555
C3_5 C1_7 1_555 1_555
N1_11 H1_11 1_555 1_555
C3_5 H6_5 1_555 1_555
O4_7 Al5 1_555 1_555
O15_6 C4_7 1_555 1_555
C4_7 O4_7 1_555 1_555
C5_7 C6_7 1_555 1_555
C6_7 C4_7 1_555 1_555
N2_15 C6_7 1_555 1_555
C5_7 H2_5 1_555 1_555
N2_15 H5_11 1_555 1_555
O14_2 C8_7 1_555 1_555
O7_7 C8_7 1_555 1_555
C8_7 C7_7 1_555 1_555
C7_7 C9_5 1_555 1_555
C9_5 H4_5 1_555 1_555
O8_7 C10_7 1_555 1_555
O16_5 C10_7 1_555 1_555
C10_7 C12_7 1_555 1_555
O8_7 Al6_2 1_555 1_555
C11_7 C12_7 1_555 1_555
C11_7 H3_5 1_555 1_555
O14 C8_8 1_555 1_555
O7_8 C8_8 1_555 1_555
C8_8 C7_8 1_555 1_555
C7_8 C9_6 1_555 1_555
C9_6 H4_6 1_555 1_555
O8_8 C10_8 1_555 1_555
O16_6 C10_8 1_555 1_555
C10_8 C12_8 1_555 1_555
O8_8 Al6 1_555 1_555
C11_8 C12_8 1_555 1_555
C11_8 H3_6 1_555 1_555
N1_12 C1_8 1_555 1_555
O13_2 C2_8 1_555 1_555
C1_8 C2_8 1_555 1_555
C2_8 O3_8 1_555 1_555
C3_6 C1_8 1_555 1_555
N1_12 H1_12 1_555 1_555
C3_6 H6_6 1_555 1_555
O4_8 Al5_2 1_555 1_555
O15_5 C4_8 1_555 1_555
C4_8 O4_8 1_555 1_555
C5_8 C6_8 1_555 1_555
C6_8 C4_8 1_555 1_555
N2_16 C6_8 1_555 1_555
C5_8 H2_6 1_555 1_555
N2_16 H5_12 1_555 1_555
N1_13 C7_6 1_555 1_555
N2_17 C12_6 1_555 1_555
C1_6 N1_13 1_555 1_555
C6_6 N2_17 1_555 1_555
N1_13 H1_13 1_555 1_555
N2_17 H5_13 1_555 1_555
N1_14 C7_5 1_555 1_555
N2_18 C12_5 1_555 1_555
C1_5 N1_14 1_555 1_555
C6_5 N2_18 1_555 1_555
N1_14 H1_14 1_555 1_555
N2_18 H5_14 1_555 1_555
N1_15 C7_7 1_555 1_555
N1_15 H1_15 1_555 1_555
N2_19 C12_7 1_555 1_555
N2_19 H5_15 1_555 1_555
N1_16 C7_8 1_555 1_555
N1_16 H1_16 1_555 1_555
N2_20 C12_8 1_555 1_555
N2_20 H5_16 1_555 1_555
C9_7 C3_7 1_555 1_555
C9_7 H4_7 1_555 1_555
C3_7 H6_7 1_555 1_555
C9_8 C3_8 1_555 1_555
C9_8 H4_8 1_555 1_555
C3_8 H6_8 1_555 1_555

#END
