
###############################################################################
#
# This file contains modified crystal structure data generated from the
# MOF subset of the Cambridge Structural Database (CSD) v543 
# hosted by the Cambridge Crystallographic Data Centre (CCDC).
#
# This work is licensed under the Creative Commons
# Attribution-NonCommercial-ShareAlike 4.0 International License.
# To view a copy of this license, visit
# http://creativecommons.org/licenses/by-nc-sa/4.0/
# or send a letter to
# Creative Commons, PO Box 1866, Mountain View, CA 94042, USA.
#
# CIF created using the CSD Python API on 29 September 2022
# The structure has been converted into the P1 space group
# The structure has a 3D framework
# The original CSD entry KUZRAB is in the tetragonal crystal system
# The framework has been calculated to contain at least 10.0% void space
# The void calculation uses a probe of radius 1.32A, grid spacing 0.4
#
###############################################################################

data_KUZRAB
_chemical_formula_moiety         '(C34 H8 N10 O16 Zn10)n'
_symmetry_cell_setting           triclinic
_symmetry_space_group_name_H-M   'P 1'
_symmetry_Int_Tables_number      1
_space_group_name_Hall           'P 1'
loop_
_symmetry_equiv_pos_site_id
_symmetry_equiv_pos_as_xyz
1 x,y,z
_cell_length_a                   7.0725(16)
_cell_length_b                   7.0725(16)
_cell_length_c                   19.778(3)
_cell_angle_alpha                90
_cell_angle_beta                 90
_cell_angle_gamma                90
_cell_volume                     989.301
loop_
_atom_site_label
_atom_site_type_symbol
_atom_site_fract_x
_atom_site_fract_y
_atom_site_fract_z
Zn1 Zn -0.000 -0 0.27778(12)
N1 N -0.000 0 0.1756(6)
C4 C 0.000 -0 0.0350(3)
O11 O 0.1435(14) 0.1435(14) 0.3385(5)
N2 N 0 0.000 0.8244(6)
C11 C 0 0.000 0.9650(3)
Zn2 Zn 0 0.000 0.72222(12)
O10 O 0.1435(14) 0.1435(14) 0.6615(5)
Zn1_2 Zn -0.000 1 0.27778(12)
N1_2 N -0.000 1 0.1756(6)
O1 O 0.2248(10) 0.7752(10) 0.2536(6)
O2 O 0.3565(14) 0.6435(14) 0.1615(5)
C1 C 0.2357(10) 0.7643(10) 0.1927(4)
C2 C 0.1185(8) 0.8815(8) 0.0726(4)
C3 C 0.1136(8) 0.8864(8) 0.1431(6)
C4_2 C 0.000 1 0.0350(3)
H1 H 0.20266 0.79734 0.049948
Zn6 Zn 0.500 0.5 0.22222(12)
N2_2 N 0 1.000 0.8244(6)
C11_2 C 0 1.000 0.9650(3)
O7 O 0.2248(10) 0.7752(10) 0.7464(6)
O8 O 0.3565(14) 0.6435(14) 0.8385(5)
C12 C 0.2357(10) 0.7643(10) 0.8073(4)
C13 C 0.1185(8) 0.8815(8) 0.9274(4)
C14 C 0.1136(8) 0.8864(8) 0.8569(6)
H4 H 0.20266 0.79734 0.950052
Zn2_2 Zn -0 1.000 0.72222(12)
Zn4 Zn 0.5 0.500 0.77778(12)
Zn1_3 Zn 1.000 -0 0.27778(12)
N1_3 N 1.000 0 0.1756(6)
C4_3 C 1.000 -0 0.0350(3)
O3 O 0.7752(10) 0.2248(10) 0.2536(6)
O4 O 0.6435(14) 0.3565(14) 0.1615(5)
C5 C 0.7643(10) 0.2357(10) 0.1927(4)
C6 C 0.8815(8) 0.1185(8) 0.0726(4)
C7 C 0.8864(8) 0.1136(8) 0.1431(6)
H2 H 0.79734 0.20266 0.049948
N2_3 N 1 0.000 0.8244(6)
O5 O 0.7752(10) 0.2248(10) 0.7464(6)
O6 O 0.6435(14) 0.3565(14) 0.8385(5)
C8 C 0.7643(10) 0.2357(10) 0.8073(4)
C9 C 0.8815(8) 0.1185(8) 0.9274(4)
C10 C 0.8864(8) 0.1136(8) 0.8569(6)
C11_3 C 1 0.000 0.9650(3)
H3 H 0.79734 0.20266 0.950052
Zn2_3 Zn 1 0.000 0.72222(12)
Zn1_4 Zn 1.000 1 0.27778(12)
N1_4 N 1.000 1 0.1756(6)
C4_4 C 1.000 1 0.0350(3)
O12 O 0.8565(14) 0.8565(14) 0.3385(5)
N2_4 N 1 1.000 0.8244(6)
C11_4 C 1 1.000 0.9650(3)
Zn2_4 Zn 1 1.000 0.72222(12)
O9 O 0.8565(14) 0.8565(14) 0.6615(5)
N1_5 N 0.5 0.500 0.6756(6)
O1_2 O 0.7248(10) 0.7248(10) 0.7536(6)
C1_2 C 0.7357(10) 0.7357(10) 0.6927(4)
C2_2 C 0.6185(8) 0.6185(8) 0.5726(4)
C3_2 C 0.6136(8) 0.6136(8) 0.6431(6)
C4_5 C 0.5 0.500 0.5350(3)
H1_2 H 0.70266 0.70266 0.549948
O3_2 O 0.2752(10) 0.2752(10) 0.7536(6)
C5_2 C 0.2643(10) 0.2643(10) 0.6927(4)
C6_2 C 0.3815(8) 0.3815(8) 0.5726(4)
C7_2 C 0.3864(8) 0.3864(8) 0.6431(6)
H2_2 H 0.29734 0.29734 0.549948
N2_5 N 0.500 0.5 0.3244(6)
O5_2 O 0.2752(10) 0.2752(10) 0.2464(6)
C8_2 C 0.2643(10) 0.2643(10) 0.3073(4)
C9_2 C 0.3815(8) 0.3815(8) 0.4274(4)
C10_2 C 0.3864(8) 0.3864(8) 0.3569(6)
C11_5 C 0.500 0.5 0.4650(3)
H3_2 H 0.29734 0.29734 0.450052
O7_2 O 0.7248(10) 0.7248(10) 0.2464(6)
C12_2 C 0.7357(10) 0.7357(10) 0.3073(4)
C13_2 C 0.6185(8) 0.6185(8) 0.4274(4)
C14_2 C 0.6136(8) 0.6136(8) 0.3569(6)
H4_2 H 0.70266 0.70266 0.450052
loop_
_geom_bond_atom_site_label_1
_geom_bond_atom_site_label_2
_geom_bond_site_symmetry_1
_geom_bond_site_symmetry_2
Zn1 N1 1_555 1_555
O11 Zn1 1_555 1_555
Zn2 N2 1_555 1_555
O10 Zn2 1_555 1_555
Zn1_2 N1_2 1_555 1_555
N1_2 C3 1_555 1_555
O1 Zn1_2 1_555 1_555
O2 C1 1_555 1_555
C1 O1 1_555 1_555
C2 C3 1_555 1_555
C3 C1 1_555 1_555
C4_2 C2 1_555 1_555
H1 C2 1_555 1_555
Zn6 O2 1_555 1_555
O7 C12 1_555 1_555
O8 C12 1_555 1_555
C12 C14 1_555 1_555
C13 C11_2 1_555 1_555
C14 N2_2 1_555 1_555
H4 C13 1_555 1_555
Zn2_2 N2_2 1_555 1_555
Zn4 O8 1_555 1_555
O7 Zn2_2 1_555 1_555
C13 C14 1_555 1_555
Zn1_3 N1_3 1_555 1_555
O3 Zn1_3 1_555 1_555
O4 C5 1_555 1_555
C5 O3 1_555 1_555
C6 C4_3 1_555 1_555
C7 N1_3 1_555 1_555
H2 C6 1_555 1_555
Zn6 O4 1_555 1_555
C5 C7 1_555 1_555
C6 C7 1_555 1_555
N2_3 C10 1_555 1_555
O5 C8 1_555 1_555
O6 C8 1_555 1_555
C8 C10 1_555 1_555
C9 C10 1_555 1_555
H3 C9 1_555 1_555
Zn2_3 N2_3 1_555 1_555
Zn4 O6 1_555 1_555
O5 Zn2_3 1_555 1_555
C9 C11_3 1_555 1_555
Zn1_4 N1_4 1_555 1_555
O12 Zn1_4 1_555 1_555
Zn2_4 N2_4 1_555 1_555
O9 Zn2_4 1_555 1_555
Zn4 N1_5 1_555 1_555
N1_5 C3_2 1_555 1_555
O1_2 Zn4 1_555 1_555
O9 C1_2 1_555 1_555
C1_2 O1_2 1_555 1_555
C2_2 C3_2 1_555 1_555
C3_2 C1_2 1_555 1_555
C4_5 C2_2 1_555 1_555
H1_2 C2_2 1_555 1_555
O3_2 Zn4 1_555 1_555
O10 C5_2 1_555 1_555
C5_2 O3_2 1_555 1_555
C6_2 C4_5 1_555 1_555
C7_2 N1_5 1_555 1_555
H2_2 C6_2 1_555 1_555
N2_5 C10_2 1_555 1_555
O5_2 C8_2 1_555 1_555
O11 C8_2 1_555 1_555
C8_2 C10_2 1_555 1_555
C9_2 C10_2 1_555 1_555
C11_5 C4_5 1_555 1_555
H3_2 C9_2 1_555 1_555
O7_2 C12_2 1_555 1_555
O12 C12_2 1_555 1_555
C12_2 C14_2 1_555 1_555
C13_2 C11_5 1_555 1_555
C14_2 N2_5 1_555 1_555
H4_2 C13_2 1_555 1_555
Zn6 N2_5 1_555 1_555
C5_2 C7_2 1_555 1_555
C6_2 C7_2 1_555 1_555
O5_2 Zn6 1_555 1_555
C9_2 C11_5 1_555 1_555
O7_2 Zn6 1_555 1_555
C13_2 C14_2 1_555 1_555

#END
