
###############################################################################
#
# This file contains modified crystal structure data generated from the
# MOF subset of the Cambridge Structural Database (CSD) v543 
# hosted by the Cambridge Crystallographic Data Centre (CCDC).
#
# This work is licensed under the Creative Commons
# Attribution-NonCommercial-ShareAlike 4.0 International License.
# To view a copy of this license, visit
# http://creativecommons.org/licenses/by-nc-sa/4.0/
# or send a letter to
# Creative Commons, PO Box 1866, Mountain View, CA 94042, USA.
#
# CIF created using the CSD Python API on 29 September 2022
# The structure has been converted into the P1 space group
# The structure has a 3D framework
# The original CSD entry LABZEW is in the tetragonal crystal system
# The original CSD entry LABZEW is in a Sohncke space group
# The framework has been calculated to contain at least 10.0% void space
# The void calculation uses a probe of radius 1.32A, grid spacing 0.4
#
###############################################################################

data_LABZEW
_chemical_formula_moiety         '(C104 H56 N16 O48 Zn13)n'
_symmetry_cell_setting           triclinic
_symmetry_space_group_name_H-M   'P 1'
_symmetry_Int_Tables_number      1
_space_group_name_Hall           'P 1'
loop_
_symmetry_equiv_pos_site_id
_symmetry_equiv_pos_as_xyz
1 x,y,z
_cell_length_a                   15.320(2)
_cell_length_b                   15.320(2)
_cell_length_c                   23.240(5)
_cell_angle_alpha                90
_cell_angle_beta                 90
_cell_angle_gamma                90
_cell_volume                     5454.48
loop_
_atom_site_label
_atom_site_type_symbol
_atom_site_fract_x
_atom_site_fract_y
_atom_site_fract_z
C2 C 0.06704(19) 0.2019(3) 0.21146(14)
C3 C 0.0866(2) 0.1752(5) 0.26702(18)
H1 H 0.0417 0.1621 0.2925
C4 C 0.1704(3) 0.1682(6) 0.28429(19)
H2 H 0.1835 0.1489 0.3212
C5 C 0.2372(2) 0.1904(4) 0.24597(15)
C6 C 0.13684(17) 0.2176(2) 0.17488(12)
H3 H 0.1252 0.2320 0.1368
C7 C 0.3303(2) 0.1907(4) 0.26231(14)
C8 C 0.3587(3) 0.1700(6) 0.31813(18)
H4 H 0.3187 0.1546 0.3465
C9 C 0.4466(2) 0.1730(5) 0.33030(17)
H5 H 0.4661 0.1611 0.3674
C10 C 0.50524(19) 0.1932(3) 0.28822(14)
C11 C 0.47371(18) 0.2116(2) 0.23317(13)
H6 H 0.5135 0.2249 0.2042
C12 C 0.60210(19) 0.1940(2) 0.30076(13)
N1 N 0.22014(15) 0.21284(18) 0.19193(10)
N2 N 0.38872(15) 0.2108(2) 0.22046(10)
O3 O 0.62229(14) 0.1706(2) 0.35051(10)
O4 O 0.65164(14) 0.2176(2) 0.26103(11)
Zn5 Zn 0.78516(2) 0.21484(2) 0.2500
Zn8 Zn 0.33683(2) 0.23722(2) 0.13959(2)
Zn9 Zn 0.73722(2) 0.16317(2) 0.38959(2)
Zn2 Zn 0.83683(2) 0.26278(2) 0.11041(2)
C1 C 0.97355(17) 0.2142(2) 0.19301(13)
C13 C 0.7556(4) 0.1123(3) 0.1389(2)
H7 H 0.7233 0.0699 0.1580
O1 O 0.91913(14) 0.2113(2) 0.23329(10)
O2 O 0.95861(13) 0.22798(17) 0.14139(9)
O5 O 0.76605(14) 0.18510(14) 0.16337(8)
O6 O 0.7850(5) 0.0945(3) 0.09269(19)
C14 C 0.7858(2) 0.02645(17) 0.30699(13)
C26 C 0.8877(3) 0.2444(4) 0.3611(2)
H14 H 0.9301 0.2767 0.3420
O7 O 0.7887(2) 0.08087(14) 0.26671(10)
O8 O 0.77202(17) 0.04139(13) 0.35861(9)
O11 O 0.81490(14) 0.23395(14) 0.33663(8)
O12 O 0.9055(3) 0.2150(5) 0.40731(19)
N5 N 0.71284(18) 0.27986(15) 0.44193(10)
N6 N 0.72014(15) 0.28716(18) 0.05807(10)
N7 N 0.7108(2) 0.11128(15) 0.47046(10)
N8 N 0.88872(15) 0.2892(2) 0.02954(10)
O14 O 0.8294(2) 0.37771(14) 0.14949(10)
O16 O 0.7824(2) 0.34836(14) 0.23897(11)
C15 C 0.7981(3) 0.93296(19) 0.28854(14)
C16 C 0.8248(5) 0.9134(2) 0.23298(18)
H8 H 0.8379 0.9583 0.2075
C17 C 0.8318(6) 0.8296(3) 0.21571(19)
H9 H 0.8511 0.8165 0.1788
C18 C 0.8096(4) 0.7628(2) 0.25403(15)
C19 C 0.7824(2) 0.86316(17) 0.32512(12)
H10 H 0.7680 0.8748 0.3632
C20 C 0.8093(4) 0.6697(2) 0.23769(14)
C21 C 0.8300(6) 0.6413(3) 0.18187(18)
H11 H 0.8454 0.6813 0.1535
C22 C 0.8270(5) 0.5534(2) 0.16970(17)
H12 H 0.8389 0.5339 0.1326
C23 C 0.8068(3) 0.49476(19) 0.21178(14)
C24 C 0.7884(2) 0.52629(18) 0.26683(13)
H13 H 0.7751 0.4865 0.2958
C25 C 0.8060(2) 0.39790(19) 0.19924(13)
N3 N 0.78716(18) 0.77986(15) 0.30807(10)
N4 N 0.7892(2) 0.61128(15) 0.27954(10)
Zn7 Zn 0.76278(2) 0.66317(2) 0.36041(2)
H13_2 H 0.0135 0.2751 0.0458
Zn4 Zn 0.28516(2) 0.28516(2) 0.0000
C23_2 C 0.00524(19) 0.3068(3) 0.96178(14)
C25_2 C 0.10210(19) 0.3060(2) 0.94924(13)
O9 O 0.12229(14) 0.3294(2) 0.89949(10)
O10 O 0.15164(14) 0.2824(2) 0.98897(11)
Zn4_2 Zn 0.28516(2) 0.28516(2) 1.0000
Zn6 Zn 0.23722(2) 0.33683(2) 0.86041(2)
C10_2 C 0.3068(3) 0.00524(19) 0.03822(14)
C12_2 C 0.3060(2) 0.10210(19) 0.05076(13)
O3_2 O 0.3294(2) 0.12229(14) 0.10051(10)
O4_2 O 0.2824(2) 0.15164(14) 0.01103(11)
H6_2 H 0.2751 0.0135 0.9542
C3_2 C 0.3248(5) 0.5866(2) 0.01702(18)
H1_2 H 0.3379 0.5417 0.0425
C4_2 C 0.3318(6) 0.6704(3) 0.03429(19)
H2_2 H 0.3511 0.6835 0.0712
C7_2 C 0.3093(4) 0.8303(2) 0.01231(14)
C8_2 C 0.3300(6) 0.8587(3) 0.06813(18)
H4_2 H 0.3454 0.8187 0.0965
C9_2 C 0.3270(5) 0.9466(2) 0.08030(17)
H5_2 H 0.3389 0.9661 0.1174
C14_2 C 0.47355(17) 0.2858(2) 0.05699(13)
C15_2 C 0.56704(19) 0.2981(3) 0.03854(14)
C18_2 C 0.7372(2) 0.3096(4) 0.00403(15)
C19_2 C 0.63684(17) 0.2824(2) 0.07512(12)
H10_2 H 0.6252 0.2680 0.1132
C24_2 C 0.97371(18) 0.2884(2) 0.01683(13)
C26_2 C 0.2556(4) 0.3877(3) 0.1111(2)
H14_2 H 0.2233 0.4301 0.0920
O7_2 O 0.41913(14) 0.2887(2) 0.01671(10)
O8_2 O 0.45861(13) 0.27202(17) 0.10861(9)
O11_2 O 0.26605(14) 0.31490(14) 0.08663(8)
O12_2 O 0.2850(5) 0.4055(3) 0.15731(19)
C1_2 C 0.2858(2) 0.47355(17) 0.94301(13)
C2_2 C 0.2981(3) 0.56704(19) 0.96146(14)
C5_2 C 0.3096(4) 0.7372(2) 0.99597(15)
C6_2 C 0.2824(2) 0.63684(17) 0.92488(12)
H3_2 H 0.2680 0.6252 0.8868
C11_2 C 0.2884(2) 0.97371(18) 0.98317(13)
C13_2 C 0.3877(3) 0.2556(4) 0.8889(2)
H7_2 H 0.4301 0.2233 0.9080
N1_2 N 0.28716(18) 0.72014(15) 0.94193(10)
N2_2 N 0.2892(2) 0.88872(15) 0.97046(10)
O1_2 O 0.2887(2) 0.41913(14) 0.98329(10)
O2_2 O 0.27202(17) 0.45861(13) 0.89139(9)
O5_2 O 0.31490(14) 0.26605(14) 0.91337(8)
O6_2 O 0.4055(3) 0.2850(5) 0.84269(19)
C16_2 C 0.5866(2) 0.3248(5) 0.98298(18)
H8_2 H 0.5417 0.3379 0.9575
C17_2 C 0.6704(3) 0.3318(6) 0.96571(19)
H9_2 H 0.6835 0.3511 0.9288
C20_2 C 0.8303(2) 0.3093(4) 0.98769(14)
C21_2 C 0.8587(3) 0.3300(6) 0.93187(18)
H11_2 H 0.8187 0.3454 0.9035
C22_2 C 0.9466(2) 0.3270(5) 0.91970(17)
H12_2 H 0.9661 0.3389 0.8826
Zn8_2 Zn 0.26278(2) 0.83683(2) 0.88959(2)
N6_2 N 0.21284(18) 0.22014(15) 0.80807(10)
N8_2 N 0.2108(2) 0.38872(15) 0.77954(10)
C15_3 C 0.2019(3) 0.06704(19) 0.78854(14)
C16_3 C 0.1752(5) 0.0866(2) 0.73298(18)
H8_3 H 0.1621 0.0417 0.7075
C17_3 C 0.1682(6) 0.1704(3) 0.71571(19)
H9_3 H 0.1489 0.1835 0.6788
C18_3 C 0.1904(4) 0.2372(2) 0.75403(15)
C19_3 C 0.2176(2) 0.13684(17) 0.82512(12)
H10_3 H 0.2320 0.1252 0.8632
C20_3 C 0.1907(4) 0.3303(2) 0.73769(14)
C21_3 C 0.1700(6) 0.3587(3) 0.68187(18)
H11_3 H 0.1546 0.3187 0.6535
C22_3 C 0.1730(5) 0.4466(2) 0.66970(17)
H12_3 H 0.1611 0.4661 0.6326
C23_3 C 0.1932(3) 0.50524(19) 0.71178(14)
C24_3 C 0.2116(2) 0.47371(18) 0.76683(13)
H13_3 H 0.2249 0.5135 0.7958
C25_3 C 0.1940(2) 0.60210(19) 0.69924(13)
O9_2 O 0.1706(2) 0.62229(14) 0.64949(10)
O10_2 O 0.2176(2) 0.65164(14) 0.73897(11)
Zn4_3 Zn 0.21484(2) 0.78516(2) 0.7500
Zn6_2 Zn 0.16317(2) 0.73722(2) 0.61041(2)
C1_3 C 0.02645(17) 0.7858(2) 0.69301(13)
C13_3 C 0.2444(4) 0.8877(3) 0.6389(2)
H7_3 H 0.2767 0.9301 0.6580
O1_3 O 0.08087(14) 0.7887(2) 0.73329(10)
O2_3 O 0.04139(13) 0.77202(17) 0.64139(9)
O5_3 O 0.23395(14) 0.81490(14) 0.66337(8)
O6_3 O 0.2150(5) 0.9055(3) 0.59269(19)
C14_3 C 0.2142(2) 0.97355(17) 0.80699(13)
C26_3 C 0.1123(3) 0.7556(4) 0.8611(2)
H14_3 H 0.0699 0.7233 0.8420
O7_3 O 0.2113(2) 0.91913(14) 0.76671(10)
O8_3 O 0.22798(17) 0.95861(13) 0.85861(9)
O11_3 O 0.18510(14) 0.76605(14) 0.83663(8)
O12_3 O 0.0945(3) 0.7850(5) 0.90731(19)
N6_3 N 0.27986(15) 0.71284(18) 0.55807(10)
N8_3 N 0.11128(15) 0.7108(2) 0.52954(10)
O13 O 0.37771(14) 0.8294(2) 0.85051(10)
O15 O 0.34836(14) 0.7824(2) 0.76103(11)
C2_3 C 0.93296(19) 0.7981(3) 0.71146(14)
C3_3 C 0.9134(2) 0.8248(5) 0.76702(18)
H1_3 H 0.9583 0.8379 0.7925
C4_3 C 0.8296(3) 0.8318(6) 0.78429(19)
H2_3 H 0.8165 0.8511 0.8212
C5_3 C 0.7628(2) 0.8096(4) 0.74597(15)
C6_3 C 0.86316(17) 0.7824(2) 0.67488(12)
H3_3 H 0.8748 0.7680 0.6368
C7_3 C 0.6697(2) 0.8093(4) 0.76231(14)
C8_3 C 0.6413(3) 0.8300(6) 0.81813(18)
H4_3 H 0.6813 0.8454 0.8465
C9_3 C 0.5534(2) 0.8270(5) 0.83030(17)
H5_3 H 0.5339 0.8389 0.8674
C10_3 C 0.49476(19) 0.8068(3) 0.78822(14)
C11_3 C 0.52629(18) 0.7884(2) 0.73317(13)
H6_3 H 0.4865 0.7751 0.7042
C12_3 C 0.39790(19) 0.8060(2) 0.80076(13)
N1_3 N 0.77986(15) 0.78716(18) 0.69193(10)
N2_3 N 0.61128(15) 0.7892(2) 0.72046(10)
Zn8_3 Zn 0.66317(2) 0.76278(2) 0.63959(2)
Zn1 Zn 0.71484(2) 0.71484(2) 0.5000
C1_4 C 0.7142(2) 0.52645(17) 0.44301(13)
C2_4 C 0.7019(3) 0.43296(19) 0.46146(14)
C3_4 C 0.6752(5) 0.4134(2) 0.51702(18)
H1_4 H 0.6621 0.4583 0.5425
C4_4 C 0.6682(6) 0.3296(3) 0.53429(19)
H2_4 H 0.6489 0.3165 0.5712
C5_4 C 0.6904(4) 0.2628(2) 0.49597(15)
C6_4 C 0.7176(2) 0.36316(17) 0.42488(12)
H3_4 H 0.7320 0.3748 0.3868
C7_4 C 0.6907(4) 0.1697(2) 0.51231(14)
C8_4 C 0.6700(6) 0.1413(3) 0.56813(18)
H4_4 H 0.6546 0.1813 0.5965
C9_4 C 0.6730(5) 0.0534(2) 0.58030(17)
H5_4 H 0.6611 0.0339 0.6174
C11_4 C 0.7116(2) 0.02629(18) 0.48317(13)
C13_4 C 0.6123(3) 0.7444(4) 0.3889(2)
H7_4 H 0.5699 0.7767 0.4080
O1_4 O 0.7113(2) 0.58087(14) 0.48329(10)
O2_4 O 0.72798(17) 0.54139(13) 0.39139(9)
O5_4 O 0.68510(14) 0.73395(14) 0.41337(8)
O6_4 O 0.5945(3) 0.7150(5) 0.34269(19)
C14_4 C 0.52645(17) 0.7142(2) 0.55699(13)
C15_4 C 0.43296(19) 0.7019(3) 0.53854(14)
C16_4 C 0.4134(2) 0.6752(5) 0.48298(18)
H8_4 H 0.4583 0.6621 0.4575
C17_4 C 0.3296(3) 0.6682(6) 0.46571(19)
H9_4 H 0.3165 0.6489 0.4288
C18_4 C 0.2628(2) 0.6904(4) 0.50403(15)
C19_4 C 0.36316(17) 0.7176(2) 0.57512(12)
H10_4 H 0.3748 0.7320 0.6132
C20_4 C 0.1697(2) 0.6907(4) 0.48769(14)
C21_4 C 0.1413(3) 0.6700(6) 0.43187(18)
H11_4 H 0.1813 0.6546 0.4035
C22_4 C 0.0534(2) 0.6730(5) 0.41970(17)
H12_4 H 0.0339 0.6611 0.3826
C24_4 C 0.02629(18) 0.7116(2) 0.51683(13)
C26_4 C 0.7444(4) 0.6123(3) 0.6111(2)
H14_4 H 0.7767 0.5699 0.5920
O7_4 O 0.58087(14) 0.7113(2) 0.51671(10)
O8_4 O 0.54139(13) 0.72798(17) 0.60861(9)
O11_4 O 0.73395(14) 0.68510(14) 0.58663(8)
O12_4 O 0.7150(5) 0.5945(3) 0.65731(19)
O13_2 O 0.6706(2) 0.87771(14) 0.60051(10)
O14_2 O 0.87771(14) 0.6706(2) 0.39949(10)
O15_2 O 0.7176(2) 0.84836(14) 0.51103(11)
O16_2 O 0.84836(14) 0.7176(2) 0.48897(11)
C10_4 C 0.6932(3) 0.99476(19) 0.53822(14)
H6_4 H 0.7249 0.9865 0.4542
C12_4 C 0.6940(2) 0.89790(19) 0.55076(13)
C23_4 C 0.99476(19) 0.6932(3) 0.46178(14)
H13_4 H 0.9865 0.7249 0.5458
C25_4 C 0.89790(19) 0.6940(2) 0.44924(13)
loop_
_geom_bond_atom_site_label_1
_geom_bond_atom_site_label_2
_geom_bond_site_symmetry_1
_geom_bond_site_symmetry_2
C2 C3 1_555 1_555
C3 H1 1_555 1_555
C4 C3 1_555 1_555
H2 C4 1_555 1_555
C5 C4 1_555 1_555
C6 C2 1_555 1_555
H3 C6 1_555 1_555
C7 C5 1_555 1_555
C8 C7 1_555 1_555
H4 C8 1_555 1_555
C9 C8 1_555 1_555
H5 C9 1_555 1_555
C10 C9 1_555 1_555
C11 C10 1_555 1_555
H6 C11 1_555 1_555
C12 C10 1_555 1_555
N1 C5 1_555 1_555
N2 C7 1_555 1_555
O3 C12 1_555 1_555
O4 C12 1_555 1_555
Zn5 O4 1_555 1_555
Zn8 N1 1_555 1_555
Zn9 O3 1_555 1_555
C6 N1 1_555 1_555
C11 N2 1_555 1_555
N2 Zn8 1_555 1_555
Zn5 O1 1_555 1_555
Zn2 O2 1_555 1_555
C13 H7 1_555 1_555
O1 C1 1_555 1_555
O2 C1 1_555 1_555
O5 Zn5 1_555 1_555
O6 C13 1_555 1_555
Zn9 O8 1_555 1_555
C26 H14 1_555 1_555
O7 Zn5 1_555 1_555
O8 C14 1_555 1_555
O11 Zn5 1_555 1_555
O12 C26 1_555 1_555
N5 Zn9 1_555 1_555
N6 Zn2 1_555 1_555
N7 Zn9 1_555 1_555
N8 Zn2 1_555 1_555
O14 Zn2 1_555 1_555
O16 Zn5 1_555 1_555
Zn2 O5 1_555 1_555
C13 O5 1_555 1_555
Zn9 O11 1_555 1_555
C14 O7 1_555 1_555
C26 O11 1_555 1_555
C15 C16 1_555 1_555
C16 H8 1_555 1_555
C17 C16 1_555 1_555
H9 C17 1_555 1_555
C18 C17 1_555 1_555
C19 C15 1_555 1_555
H10 C19 1_555 1_555
C20 C18 1_555 1_555
C21 C20 1_555 1_555
H11 C21 1_555 1_555
C22 C21 1_555 1_555
H12 C22 1_555 1_555
C23 C22 1_555 1_555
C24 C23 1_555 1_555
H13 C24 1_555 1_555
C25 C23 1_555 1_555
N3 C18 1_555 1_555
N4 C20 1_555 1_555
O14 C25 1_555 1_555
O16 C25 1_555 1_555
Zn7 N3 1_555 1_555
C19 N3 1_555 1_555
C24 N4 1_555 1_555
N4 Zn7 1_555 1_555
C25_2 C23_2 1_555 1_555
O9 C25_2 1_555 1_555
O10 C25_2 1_555 1_555
Zn4_2 O10 1_555 1_555
Zn6 O9 1_555 1_555
C12_2 C10_2 1_555 1_555
O3_2 C12_2 1_555 1_555
O4_2 C12_2 1_555 1_555
Zn4 O4_2 1_555 1_555
Zn8 O3_2 1_555 1_555
C3_2 H1_2 1_555 1_555
C4_2 C3_2 1_555 1_555
H2_2 C4_2 1_555 1_555
C8_2 C7_2 1_555 1_555
H4_2 C8_2 1_555 1_555
C9_2 C8_2 1_555 1_555
H5_2 C9_2 1_555 1_555
Zn8 O8_2 1_555 1_555
C14_2 C15_2 1_555 1_555
C19_2 C15_2 1_555 1_555
H10_2 C19_2 1_555 1_555
C26_2 H14_2 1_555 1_555
N6 C18_2 1_555 1_555
O7_2 Zn4 1_555 1_555
O8_2 C14_2 1_555 1_555
O11_2 Zn4 1_555 1_555
O12_2 C26_2 1_555 1_555
Zn8 O11_2 1_555 1_555
C14_2 O7_2 1_555 1_555
C19_2 N6 1_555 1_555
C24_2 N8 1_555 1_555
C26_2 O11_2 1_555 1_555
Zn4_2 O1_2 1_555 1_555
Zn6 O2_2 1_555 1_555
C1_2 C2_2 1_555 1_555
C6_2 C2_2 1_555 1_555
H3_2 C6_2 1_555 1_555
C13_2 H7_2 1_555 1_555
N1_2 C5_2 1_555 1_555
O1_2 C1_2 1_555 1_555
O2_2 C1_2 1_555 1_555
O5_2 Zn4_2 1_555 1_555
O6_2 C13_2 1_555 1_555
C16_2 H8_2 1_555 1_555
C17_2 C16_2 1_555 1_555
H9_2 C17_2 1_555 1_555
C21_2 C20_2 1_555 1_555
H11_2 C21_2 1_555 1_555
C22_2 C21_2 1_555 1_555
H12_2 C22_2 1_555 1_555
Zn8_2 N1_2 1_555 1_555
N6_2 Zn6 1_555 1_555
N8_2 Zn6 1_555 1_555
Zn6 O5_2 1_555 1_555
C6_2 N1_2 1_555 1_555
C11_2 N2_2 1_555 1_555
C13_2 O5_2 1_555 1_555
N2_2 Zn8_2 1_555 1_555
C15_3 C16_3 1_555 1_555
C16_3 H8_3 1_555 1_555
C17_3 C16_3 1_555 1_555
H9_3 C17_3 1_555 1_555
C18_3 C17_3 1_555 1_555
C19_3 C15_3 1_555 1_555
H10_3 C19_3 1_555 1_555
C20_3 C18_3 1_555 1_555
C21_3 C20_3 1_555 1_555
H11_3 C21_3 1_555 1_555
C22_3 C21_3 1_555 1_555
H12_3 C22_3 1_555 1_555
C23_3 C22_3 1_555 1_555
C24_3 C23_3 1_555 1_555
H13_3 C24_3 1_555 1_555
C25_3 C23_3 1_555 1_555
N6_2 C18_3 1_555 1_555
N8_2 C20_3 1_555 1_555
O9_2 C25_3 1_555 1_555
O10_2 C25_3 1_555 1_555
Zn4_3 O10_2 1_555 1_555
Zn6_2 O9_2 1_555 1_555
C19_3 N6_2 1_555 1_555
C24_3 N8_2 1_555 1_555
Zn4_3 O1_3 1_555 1_555
Zn6_2 O2_3 1_555 1_555
C13_3 H7_3 1_555 1_555
O1_3 C1_3 1_555 1_555
O2_3 C1_3 1_555 1_555
O5_3 Zn4_3 1_555 1_555
O6_3 C13_3 1_555 1_555
Zn8_2 O8_3 1_555 1_555
C26_3 H14_3 1_555 1_555
O7_3 Zn4_3 1_555 1_555
O8_3 C14_3 1_555 1_555
O11_3 Zn4_3 1_555 1_555
O12_3 C26_3 1_555 1_555
N6_3 Zn6_2 1_555 1_555
N8_3 Zn6_2 1_555 1_555
O13 Zn8_2 1_555 1_555
O15 Zn4_3 1_555 1_555
Zn6_2 O5_3 1_555 1_555
C13_3 O5_3 1_555 1_555
Zn8_2 O11_3 1_555 1_555
C14_3 O7_3 1_555 1_555
C26_3 O11_3 1_555 1_555
C2_3 C3_3 1_555 1_555
C3_3 H1_3 1_555 1_555
C4_3 C3_3 1_555 1_555
H2_3 C4_3 1_555 1_555
C5_3 C4_3 1_555 1_555
C6_3 C2_3 1_555 1_555
H3_3 C6_3 1_555 1_555
C7_3 C5_3 1_555 1_555
C8_3 C7_3 1_555 1_555
H4_3 C8_3 1_555 1_555
C9_3 C8_3 1_555 1_555
H5_3 C9_3 1_555 1_555
C10_3 C9_3 1_555 1_555
C11_3 C10_3 1_555 1_555
H6_3 C11_3 1_555 1_555
C12_3 C10_3 1_555 1_555
N1_3 C5_3 1_555 1_555
N2_3 C7_3 1_555 1_555
O13 C12_3 1_555 1_555
O15 C12_3 1_555 1_555
Zn8_3 N1_3 1_555 1_555
C6_3 N1_3 1_555 1_555
C11_3 N2_3 1_555 1_555
N2_3 Zn8_3 1_555 1_555
Zn1 O1_4 1_555 1_555
Zn7 O2_4 1_555 1_555
C1_4 C2_4 1_555 1_555
C2_4 C3_4 1_555 1_555
C3_4 H1_4 1_555 1_555
C4_4 C3_4 1_555 1_555
H2_4 C4_4 1_555 1_555
C5_4 C4_4 1_555 1_555
C6_4 C2_4 1_555 1_555
H3_4 C6_4 1_555 1_555
C7_4 C5_4 1_555 1_555
C8_4 C7_4 1_555 1_555
H4_4 C8_4 1_555 1_555
C9_4 C8_4 1_555 1_555
H5_4 C9_4 1_555 1_555
C13_4 H7_4 1_555 1_555
N5 C5_4 1_555 1_555
N7 C7_4 1_555 1_555
O1_4 C1_4 1_555 1_555
O2_4 C1_4 1_555 1_555
O5_4 Zn1 1_555 1_555
O6_4 C13_4 1_555 1_555
Zn8_3 O8_4 1_555 1_555
C14_4 C15_4 1_555 1_555
C15_4 C16_4 1_555 1_555
C16_4 H8_4 1_555 1_555
C17_4 C16_4 1_555 1_555
H9_4 C17_4 1_555 1_555
C18_4 C17_4 1_555 1_555
C19_4 C15_4 1_555 1_555
H10_4 C19_4 1_555 1_555
C20_4 C18_4 1_555 1_555
C21_4 C20_4 1_555 1_555
H11_4 C21_4 1_555 1_555
C22_4 C21_4 1_555 1_555
H12_4 C22_4 1_555 1_555
C26_4 H14_4 1_555 1_555
N6_3 C18_4 1_555 1_555
N8_3 C20_4 1_555 1_555
O7_4 Zn1 1_555 1_555
O8_4 C14_4 1_555 1_555
O11_4 Zn1 1_555 1_555
O12_4 C26_4 1_555 1_555
O13_2 Zn8_3 1_555 1_555
O14_2 Zn7 1_555 1_555
O15_2 Zn1 1_555 1_555
O16_2 Zn1 1_555 1_555
Zn7 O5_4 1_555 1_555
C6_4 N5 1_555 1_555
C11_4 N7 1_555 1_555
C13_4 O5_4 1_555 1_555
Zn8_3 O11_4 1_555 1_555
C14_4 O7_4 1_555 1_555
C19_4 N6_3 1_555 1_555
C24_4 N8_3 1_555 1_555
C26_4 O11_4 1_555 1_555
C12_4 C10_4 1_555 1_555
O13_2 C12_4 1_555 1_555
O15_2 C12_4 1_555 1_555
C25_4 C23_4 1_555 1_555
O14_2 C25_4 1_555 1_555
O16_2 C25_4 1_555 1_555

#END
