
###############################################################################
#
# This file contains modified crystal structure data generated from the
# MOF subset of the Cambridge Structural Database (CSD) v543 
# hosted by the Cambridge Crystallographic Data Centre (CCDC).
#
# This work is licensed under the Creative Commons
# Attribution-NonCommercial-ShareAlike 4.0 International License.
# To view a copy of this license, visit
# http://creativecommons.org/licenses/by-nc-sa/4.0/
# or send a letter to
# Creative Commons, PO Box 1866, Mountain View, CA 94042, USA.
#
# CIF created using the CSD Python API on 29 September 2022
# The structure has been converted into the P1 space group
# The structure has a 3D framework
# The original CSD entry LACFOM is in the orthorhombic crystal system
# The framework has been calculated to contain at least 10.0% void space
# The void calculation uses a probe of radius 1.32A, grid spacing 0.4
#
###############################################################################

data_LACFOM
_chemical_formula_moiety         '(C56 H32 O24 Pb2 S4)n'
_symmetry_cell_setting           triclinic
_symmetry_space_group_name_H-M   'P 1'
_symmetry_Int_Tables_number      1
_space_group_name_Hall           'P 1'
loop_
_symmetry_equiv_pos_site_id
_symmetry_equiv_pos_as_xyz
1 x,y,z
_cell_length_a                   5.9527(3)
_cell_length_b                   13.0441(6)
_cell_length_c                   19.5781(10)
_cell_angle_alpha                90
_cell_angle_beta                 90
_cell_angle_gamma                90
_cell_volume                     1520.19
loop_
_atom_site_label
_atom_site_type_symbol
_atom_site_fract_x
_atom_site_fract_y
_atom_site_fract_z
H4 H 0.1125 0.0034 0.8225
Pb2 Pb 0.24268(3) 0.2500 0.810317(11)
O10 O 0.0269(6) 0.3690(3) 0.64998(17)
O11 O 0.0269(6) 0.1310(3) 0.64998(17)
O4 O 0.0077(8) 0.7500 0.0632(2)
S1 S 0.1065(3) 0.7500 0.99564(8)
O3 O 0.3485(8) 0.7500 0.9895(2)
C6 C 0.1184(8) 0.8961(4) 0.8958(2)
H3 H 0.2572 0.8684 0.8842
C7 C 0.0314(8) 0.9763(4) 0.8588(2)
C13 C 0.1184(8) 0.6039(4) 0.8958(2)
H7 H 0.2572 0.6316 0.8842
C14 C 0.0314(8) 0.5237(4) 0.8588(2)
H8 H 0.1125 0.4966 0.8225
Pb1 Pb 0.74268(3) 0.2500 0.689683(11)
O1 O 0.8366(6) 0.1376(3) 0.78565(18)
O2 O 0.5269(6) 0.1310(3) 0.85002(17)
C1 C 0.7202(8) 0.1029(4) 0.8340(3)
C2 C 0.8229(7) 0.0173(3) 0.8756(2)
H1 H 0.5645 0.0047 0.9415
O6 O 0.3366(6) 0.3624(3) 0.71435(18)
O7 O 0.3366(6) 0.1376(3) 0.71435(18)
O8 O 0.8366(6) 0.3624(3) 0.78565(18)
O12 O 0.4923(8) 0.2500 0.5632(2)
H2 H 0.7105 0.8685 0.0049
Pb4 Pb 0.75732(3) 0.7500 0.189683(11)
H6 H 0.7105 0.6315 0.0049
C3 C 0.7037(8) 0.9771(4) 0.9302(2)
C4 C 0.7903(7) 0.8958(4) 0.9683(2)
C5 C 0.9985(7) 0.8568(3) 0.9502(2)
O9 O 0.5269(6) 0.3690(3) 0.85002(17)
C8 C 0.7202(8) 0.3971(4) 0.8340(3)
C9 C 0.8229(7) 0.4827(3) 0.8756(2)
C10 C 0.7037(8) 0.5229(4) 0.9302(2)
H5 H 0.5645 0.4953 0.9415
C11 C 0.7903(7) 0.6042(4) 0.9683(2)
C12 C 0.9985(7) 0.6432(3) 0.9502(2)
Pb7 Pb 0.25732(3) 0.7500 0.310317(11)
O6_2 O 0.1634(6) 0.6376(3) 0.21435(18)
O7_2 O 0.1634(6) 0.8624(3) 0.21435(18)
S1_2 S 0.3935(3) 0.2500 0.49564(8)
O3_2 O 0.1515(8) 0.2500 0.4895(2)
C3_2 C 0.7963(8) 0.0229(4) 0.4302(2)
C4_2 C 0.7097(7) 0.1042(4) 0.4683(2)
H2_2 H 0.7895 0.1315 0.5049
C5_2 C 0.5015(7) 0.1432(3) 0.4502(2)
C6_2 C 0.3816(8) 0.1039(4) 0.3958(2)
H3_2 H 0.2428 0.1316 0.3842
C7_2 C 0.4686(8) 0.0237(4) 0.3588(2)
O5 O 0.6634(6) 0.6376(3) 0.28565(18)
O9_2 O 0.9731(6) 0.6310(3) 0.35002(17)
C8_2 C 0.7798(8) 0.6029(4) 0.3340(3)
C9_2 C 0.6771(7) 0.5173(3) 0.3756(2)
C10_2 C 0.7963(8) 0.4771(4) 0.4302(2)
H5_2 H 0.9355 0.5047 0.4415
C11_2 C 0.7097(7) 0.3958(4) 0.4683(2)
H6_2 H 0.7895 0.3685 0.5049
C12_2 C 0.5015(7) 0.3568(3) 0.4502(2)
C13_2 C 0.3816(8) 0.3961(4) 0.3958(2)
H7_2 H 0.2428 0.3684 0.3842
C14_2 C 0.4686(8) 0.4763(4) 0.3588(2)
H8_2 H 0.3875 0.5034 0.3225
O1_2 O 0.6634(6) 0.8624(3) 0.28565(18)
O2_2 O 0.9731(6) 0.8690(3) 0.35002(17)
C1_2 C 0.7798(8) 0.8971(4) 0.3340(3)
C2_2 C 0.6771(7) 0.9827(3) 0.3756(2)
H1_2 H 0.9355 0.9953 0.4415
H4_2 H 0.3875 0.9966 0.3225
O10_2 O 0.4731(6) 0.6310(3) 0.14998(17)
O11_2 O 0.4731(6) 0.8690(3) 0.14998(17)
C1_3 C 0.2798(8) 0.6029(4) 0.1660(3)
C2_3 C 0.1771(7) 0.5173(3) 0.1244(2)
C3_3 C 0.2963(8) 0.4771(4) 0.0698(2)
H1_3 H 0.4355 0.5047 0.0585
C4_3 C 0.2097(7) 0.3958(4) 0.0317(2)
C5_3 C 0.0015(7) 0.3568(3) 0.0498(2)
O12_2 O 0.5077(8) 0.7500 0.4368(2)
C10_3 C 0.2963(8) 0.0229(4) 0.0698(2)
C11_3 C 0.2097(7) 0.1042(4) 0.0317(2)
C12_3 C 0.0015(7) 0.1432(3) 0.0498(2)
H2_3 H 0.2895 0.3685 0.9951
H6_3 H 0.2895 0.1315 0.9951
C8_3 C 0.2798(8) 0.8971(4) 0.1660(3)
C9_3 C 0.1771(7) 0.9827(3) 0.1244(2)
H5_3 H 0.4355 0.9953 0.0585
S1_3 S 0.8935(3) 0.2500 0.00436(8)
O3_3 O 0.6515(8) 0.2500 0.0105(2)
C6_3 C 0.8816(8) 0.3961(4) 0.1042(2)
H3_3 H 0.7428 0.3684 0.1158
C7_3 C 0.9686(8) 0.4763(4) 0.1412(2)
H4_3 H 0.8875 0.5034 0.1775
C13_3 C 0.8816(8) 0.1039(4) 0.1042(2)
H7_3 H 0.7428 0.1316 0.1158
C14_3 C 0.9686(8) 0.0237(4) 0.1412(2)
O4_2 O 0.9923(8) 0.2500 0.9368(2)
H8_3 H 0.8875 0.9966 0.1775
C8_4 C 0.2202(8) 0.1029(4) 0.6660(3)
C9_4 C 0.3229(7) 0.0173(3) 0.6244(2)
H5_4 H 0.0645 0.0047 0.5585
H8_4 H 0.6125 0.0034 0.6775
S1_4 S 0.6065(3) 0.7500 0.50436(8)
O3_4 O 0.8485(8) 0.7500 0.5105(2)
C1_4 C 0.2202(8) 0.3971(4) 0.6660(3)
C2_4 C 0.3229(7) 0.4827(3) 0.6244(2)
C3_4 C 0.2037(8) 0.5229(4) 0.5698(2)
H1_4 H 0.0645 0.4953 0.5585
C4_4 C 0.2903(7) 0.6042(4) 0.5317(2)
H2_4 H 0.2105 0.6315 0.4951
C5_4 C 0.4985(7) 0.6432(3) 0.5498(2)
C6_4 C 0.6184(8) 0.6039(4) 0.6042(2)
H3_4 H 0.7572 0.6316 0.6158
C7_4 C 0.5314(8) 0.5237(4) 0.6412(2)
H4_4 H 0.6125 0.4966 0.6775
C10_4 C 0.2037(8) 0.9771(4) 0.5698(2)
C11_4 C 0.2903(7) 0.8958(4) 0.5317(2)
H6_4 H 0.2105 0.8685 0.4951
C12_4 C 0.4985(7) 0.8568(3) 0.5498(2)
C13_4 C 0.6184(8) 0.8961(4) 0.6042(2)
H7_4 H 0.7572 0.8684 0.6158
C14_4 C 0.5314(8) 0.9763(4) 0.6412(2)
loop_
_geom_bond_atom_site_label_1
_geom_bond_atom_site_label_2
_geom_bond_site_symmetry_1
_geom_bond_site_symmetry_2
S1 O3 1_555 1_555
H3 C6 1_555 1_555
H7 C13 1_555 1_555
H8 C14 1_555 1_555
C6 C7 1_555 1_555
C13 C14 1_555 1_555
Pb1 O1 1_555 1_555
O1 C1 1_555 1_555
O2 C1 1_555 1_555
C1 C2 1_555 1_555
Pb2 O2 1_555 1_555
O6 Pb1 1_555 1_555
O7 Pb1 1_555 1_555
O8 Pb1 1_555 1_555
O12 Pb1 1_555 1_555
Pb2 O6 1_555 1_555
Pb2 O7 1_555 1_555
C4 C3 1_555 1_555
Pb2 O9 1_555 1_555
O8 C8 1_555 1_555
O9 C8 1_555 1_555
C8 C9 1_555 1_555
C9 C10 1_555 1_555
C10 H5 1_555 1_555
C11 C10 1_555 1_555
C4 C5 1_555 1_555
C11 C12 1_555 1_555
Pb7 O6_2 1_555 1_555
Pb7 O7_2 1_555 1_555
S1_2 O3_2 1_555 1_555
O12 S1_2 1_555 1_555
C4_2 C3_2 1_555 1_555
H2_2 C4_2 1_555 1_555
C5_2 S1_2 1_555 1_555
C6_2 C5_2 1_555 1_555
H3_2 C6_2 1_555 1_555
Pb4 O5 1_555 1_555
Pb7 O5 1_555 1_555
O5 C8_2 1_555 1_555
O9_2 C8_2 1_555 1_555
C8_2 C9_2 1_555 1_555
C9_2 C10_2 1_555 1_555
C10_2 H5_2 1_555 1_555
C11_2 C10_2 1_555 1_555
H6_2 C11_2 1_555 1_555
C12_2 S1_2 1_555 1_555
C13_2 C12_2 1_555 1_555
H7_2 C13_2 1_555 1_555
C14_2 C9_2 1_555 1_555
H8_2 C14_2 1_555 1_555
C4_2 C5_2 1_555 1_555
C6_2 C7_2 1_555 1_555
C11_2 C12_2 1_555 1_555
C13_2 C14_2 1_555 1_555
Pb4 O1_2 1_555 1_555
O1_2 C1_2 1_555 1_555
O2_2 C1_2 1_555 1_555
C1_2 C2_2 1_555 1_555
Pb7 O1_2 1_555 1_555
O10_2 Pb4 1_555 1_555
O11_2 Pb4 1_555 1_555
O6_2 C1_3 1_555 1_555
O10_2 C1_3 1_555 1_555
C1_3 C2_3 1_555 1_555
C2_3 C3_3 1_555 1_555
C3_3 H1_3 1_555 1_555
C4_3 C3_3 1_555 1_555
O12_2 Pb7 1_555 1_555
C11_3 C10_3 1_555 1_555
C4_3 C5_3 1_555 1_555
C11_3 C12_3 1_555 1_555
O7_2 C8_3 1_555 1_555
O11_2 C8_3 1_555 1_555
C8_3 C9_3 1_555 1_555
S1_3 O3_3 1_555 1_555
H3_3 C6_3 1_555 1_555
H4_3 C7_3 1_555 1_555
H7_3 C13_3 1_555 1_555
C6_3 C7_3 1_555 1_555
C13_3 C14_3 1_555 1_555
O7 C8_4 1_555 1_555
O11 C8_4 1_555 1_555
C8_4 C9_4 1_555 1_555
S1_4 O3_4 1_555 1_555
O6 C1_4 1_555 1_555
O10 C1_4 1_555 1_555
O12_2 S1_4 1_555 1_555
C1_4 C2_4 1_555 1_555
C2_4 C3_4 1_555 1_555
C3_4 H1_4 1_555 1_555
C4_4 C3_4 1_555 1_555
H2_4 C4_4 1_555 1_555
C5_4 S1_4 1_555 1_555
C6_4 C5_4 1_555 1_555
H3_4 C6_4 1_555 1_555
C7_4 C2_4 1_555 1_555
H4_4 C7_4 1_555 1_555
C11_4 C10_4 1_555 1_555
H6_4 C11_4 1_555 1_555
C12_4 S1_4 1_555 1_555
C13_4 C12_4 1_555 1_555
H7_4 C13_4 1_555 1_555
C4_4 C5_4 1_555 1_555
C6_4 C7_4 1_555 1_555
C11_4 C12_4 1_555 1_555
C13_4 C14_4 1_555 1_555

#END
