
###############################################################################
#
# This file contains modified crystal structure data generated from the
# MOF subset of the Cambridge Structural Database (CSD) v543 
# hosted by the Cambridge Crystallographic Data Centre (CCDC).
#
# This work is licensed under the Creative Commons
# Attribution-NonCommercial-ShareAlike 4.0 International License.
# To view a copy of this license, visit
# http://creativecommons.org/licenses/by-nc-sa/4.0/
# or send a letter to
# Creative Commons, PO Box 1866, Mountain View, CA 94042, USA.
#
# CIF created using the CSD Python API on 29 September 2022
# The structure has been converted into the P1 space group
# The structure has a 3D framework
# The original CSD entry LACFIG is in the orthorhombic crystal system
# The framework has been calculated to contain at least 10.0% void space
# The void calculation uses a probe of radius 1.32A, grid spacing 0.4
#
###############################################################################

data_LACFIG
_chemical_formula_moiety         '(C120 H120 Br16 Cu18 N24 O24)n'
_symmetry_cell_setting           triclinic
_symmetry_space_group_name_H-M   'P 1'
_symmetry_Int_Tables_number      1
_space_group_name_Hall           'P 1'
loop_
_symmetry_equiv_pos_site_id
_symmetry_equiv_pos_as_xyz
1 x,y,z
_cell_length_a                   14.0625(13)
_cell_length_b                   21.702(2)
_cell_length_c                   13.4908(13)
_cell_angle_alpha                90
_cell_angle_beta                 90
_cell_angle_gamma                90
_cell_volume                     4117.18
loop_
_atom_site_label
_atom_site_type_symbol
_atom_site_fract_x
_atom_site_fract_y
_atom_site_fract_z
Cu7 Cu 0.07810(11) 0.84626(7) 0.14903(10)
N6 N 0.0212(6) 0.8992(4) 0.2472(6)
C29 C 0.0439(9) 0.8918(5) 0.3532(8)
H27 H 0.1119 0.8945 0.3644
H28 H 0.0212 0.8525 0.3779
H30 H 0.0372 0.9734 0.4313
O3 O 0.5608(6) 0.0271(4) 0.3221(6)
N3 N 0.4788(6) 0.1008(4) 0.2472(6)
C5 C 0.5779(7) 0.0310(5) 0.1490(8)
C6 C 0.5872(7) 0.0666(5) 0.0621(8)
H3 H 0.5733 0.1085 0.0636
C13 C 0.5374(8) 0.0561(5) 0.2379(8)
C14 C 0.4561(9) 0.1082(5) 0.3532(8)
H12 H 0.3881 0.1055 0.3644
H13 H 0.4788 0.1475 0.3779
C15 C 0.5075(10) 0.0556(6) 0.4024(9)
H14 H 0.5498 0.0704 0.4539
H15 H 0.4628 0.0266 0.4313
Cu6 Cu 0.42190(11) 0.15374(7) 0.14903(10)
O5 O 0.8333(6) 0.1515(3) 0.1410(6)
C18 C 0.8707(7) 0.0589(5) 0.0562(8)
C19 C 0.8997(7) 0.0318(5) 0.1452(8)
H17 H 0.9042 0.0556 0.2023
C25 C 0.8548(8) 0.1257(5) 0.0525(8)
C26 C 0.8338(9) 0.2239(5) 0.0133(9)
C27 C 0.8338(10) 0.2177(5) 0.1231(9)
H25 H 0.8900 0.2366 0.1515
H26 H 0.7778 0.2369 0.1515
Cu1 Cu 0.7500 -0.0000 0.76026(14)
Br1 Br 0.7500 0.0000 0.58150(13)
O1 O 0.5776(6) 0.1315(3) 0.8907(6)
N1 N 0.6710(6) 0.0670(4) 0.8055(7)
C1 C 0.6166(7) 0.0396(4) 0.9751(8)
C7 C 0.6240(8) 0.0779(5) 0.8851(8)
C8 C 0.6535(9) 0.1192(6) 0.7379(9)
H4 H 0.6144 0.1066 0.6823
H5 H 0.7129 0.1358 0.7129
C9 C 0.6021(10) 0.1663(6) 0.8015(10)
H6 H 0.6432 0.2009 0.8171
H7 H 0.5455 0.1815 0.7684
Cu4 Cu 0.92190(11) 0.15374(7) 0.85097(10)
Br4 Br 0.84248(11) 0.2500 0.7500
N5 N 0.8597(6) 0.1609(4) 0.9790(6)
N8 N 0.9788(6) 0.1008(4) 0.7528(6)
C17 C 0.8632(7) 0.0223(5) 0.9718(8)
H16 H 0.8441 0.0400 0.9122
H23 H 0.8804 0.2540 0.9917
H24 H 0.7716 0.2358 0.9890
Cu1_2 Cu 0.7500 1.0000 0.76026(14)
Cu2 Cu 0.57810(11) 0.84626(7) 0.85097(10)
Br1_2 Br 0.7500 1.0000 0.58150(13)
Br2 Br 0.65752(11) 0.7500 0.7500
Cu3 Cu 0.4751(2) 0.7500 0.7500
Br3 Br 0.41970(12) 0.76208(7) 0.90872(16)
N2 N 0.6403(6) 0.8391(4) 0.9790(6)
C2 C 0.6368(7) 0.9777(5) 0.9718(8)
H1 H 0.6559 0.9600 0.9122
H8 H 0.6196 0.7460 0.9917
H9 H 0.7284 0.7642 0.9890
Cu5 Cu 0.57810(11) 0.65374(7) 0.64903(10)
Br5 Br 0.41970(12) 0.73792(7) 0.59128(16)
O4 O 0.9224(6) 0.8685(3) 0.8907(6)
N4 N 0.8290(6) 0.9330(4) 0.8055(7)
N7 N 0.5212(6) 0.8992(4) 0.7528(6)
C16 C 0.8834(7) 0.9604(4) 0.9751(8)
C22 C 0.8760(8) 0.9221(5) 0.8851(8)
C23 C 0.8465(9) 0.8808(6) 0.7379(9)
H19 H 0.8856 0.8934 0.6823
H20 H 0.7871 0.8642 0.7129
C24 C 0.8979(10) 0.8337(6) 0.8015(10)
H21 H 0.8568 0.7991 0.8171
H22 H 0.9545 0.8185 0.7684
Cu3_2 Cu 0.0249(2) 0.2500 0.7500
Br3_2 Br 0.08030(12) 0.23792(7) 0.90872(16)
Br5_2 Br 0.08030(12) 0.26208(7) 0.59128(16)
Cu5_2 Cu 0.92190(11) 0.34626(7) 0.64903(10)
Cu7_2 Cu 0.07810(11) 0.65374(7) 0.35097(10)
N6_2 N 0.0212(6) 0.6008(4) 0.2528(6)
C29_2 C 0.0439(9) 0.6082(5) 0.1468(8)
H27_2 H 0.1119 0.6055 0.1356
H28_2 H 0.0212 0.6475 0.1221
H30_2 H 0.0372 0.5266 0.0687
Cu1_3 Cu 0.7500 0.5000 0.73974(14)
Br1_3 Br 0.7500 0.5000 0.91850(13)
O1_2 O 0.5776(6) 0.3685(3) 0.6093(6)
O2 O 0.6667(6) 0.6515(3) 0.3590(6)
O3_2 O 0.5608(6) 0.4729(4) 0.1779(6)
N1_2 N 0.6710(6) 0.4330(4) 0.6945(7)
N2_2 N 0.6403(6) 0.6609(4) 0.5210(6)
N3_2 N 0.4788(6) 0.3992(4) 0.2528(6)
C1_2 C 0.6166(7) 0.4604(4) 0.5249(8)
C2_2 C 0.6368(7) 0.5223(5) 0.5282(8)
H1_2 H 0.6559 0.5400 0.5878
C3 C 0.6293(7) 0.5589(5) 0.4438(8)
C4 C 0.6003(7) 0.5318(5) 0.3548(8)
H2 H 0.5958 0.5556 0.2977
C5_2 C 0.5779(7) 0.4690(5) 0.3510(8)
C6_2 C 0.5872(7) 0.4334(5) 0.4379(8)
H3_2 H 0.5733 0.3915 0.4364
C7_2 C 0.6240(8) 0.4221(5) 0.6149(8)
C8_2 C 0.6535(9) 0.3808(6) 0.7621(9)
H4_2 H 0.6144 0.3934 0.8177
H5_2 H 0.7129 0.3642 0.7871
C9_2 C 0.6021(10) 0.3337(6) 0.6985(10)
H6_2 H 0.6432 0.2991 0.6829
H7_2 H 0.5455 0.3185 0.7316
C10 C 0.6452(8) 0.6257(5) 0.4475(8)
C11 C 0.6662(9) 0.7239(5) 0.4867(9)
H8_2 H 0.6196 0.7540 0.5083
H9_2 H 0.7284 0.7358 0.5110
C12 C 0.6662(10) 0.7177(5) 0.3769(9)
H10 H 0.6100 0.7366 0.3485
H11 H 0.7222 0.7369 0.3485
C13_2 C 0.5374(8) 0.4439(5) 0.2621(8)
C14_2 C 0.4561(9) 0.3918(5) 0.1468(8)
H12_2 H 0.3881 0.3945 0.1356
H13_2 H 0.4788 0.3525 0.1221
C15_2 C 0.5075(10) 0.4444(6) 0.0976(9)
H14_2 H 0.5498 0.4296 0.0461
H15_2 H 0.4628 0.4734 0.0687
Cu6_2 Cu 0.42190(11) 0.34626(7) 0.35097(10)
O4_2 O 0.9224(6) 0.6315(3) 0.6093(6)
O5_2 O 0.8333(6) 0.3485(3) 0.3590(6)
O6 O 0.9392(6) 0.5271(4) 0.1779(6)
N4_2 N 0.8290(6) 0.5670(4) 0.6945(7)
N5_2 N 0.8597(6) 0.3391(4) 0.5210(6)
N7_2 N 0.5212(6) 0.6008(4) 0.7472(6)
N8_2 N 0.9788(6) 0.3992(4) 0.7472(6)
C16_2 C 0.8834(7) 0.5396(4) 0.5249(8)
C17_2 C 0.8632(7) 0.4777(5) 0.5282(8)
H16_2 H 0.8441 0.4600 0.5878
C18_2 C 0.8707(7) 0.4411(5) 0.4438(8)
C19_2 C 0.8997(7) 0.4682(5) 0.3548(8)
H17_2 H 0.9042 0.4444 0.2977
C20 C 0.9221(7) 0.5310(5) 0.3510(8)
C21 C 0.9128(7) 0.5666(5) 0.4379(8)
H18 H 0.9267 0.6085 0.4364
C22_2 C 0.8760(8) 0.5779(5) 0.6149(8)
C23_2 C 0.8465(9) 0.6192(6) 0.7621(9)
H19_2 H 0.8856 0.6066 0.8177
H20_2 H 0.7871 0.6358 0.7871
C24_2 C 0.8979(10) 0.6663(6) 0.6985(10)
H21_2 H 0.8568 0.7009 0.6829
H22_2 H 0.9545 0.6815 0.7316
C25_2 C 0.8548(8) 0.3743(5) 0.4475(8)
C26_2 C 0.8338(9) 0.2761(5) 0.4867(9)
H23_2 H 0.8804 0.2460 0.5083
H24_2 H 0.7716 0.2642 0.5110
C27_2 C 0.8338(10) 0.2823(5) 0.3769(9)
H25_2 H 0.8900 0.2634 0.3485
H26_2 H 0.7778 0.2631 0.3485
C28 C 0.9626(8) 0.5561(5) 0.2621(8)
C30 C 0.9925(10) 0.5556(6) 0.0976(9)
H29 H 0.9502 0.5704 0.0461
Cu1_4 Cu 0.2500 -0.0000 0.23974(14)
Br1_4 Br 0.2500 -0.0000 0.41850(13)
Br2_2 Br 0.34248(11) 0.2500 0.2500
Cu3_3 Cu 0.5249(2) 0.2500 0.2500
Br3_3 Br 0.58030(12) 0.23792(7) 0.09128(16)
N2_3 N 0.3597(6) 0.1609(4) 0.0210(6)
C2_3 C 0.3632(7) 0.0223(5) 0.0282(8)
H1_3 H 0.3441 0.0400 0.0878
H8_3 H 0.3804 0.2540 0.0083
H9_3 H 0.2716 0.2358 0.0110
Br5_3 Br 0.58030(12) 0.26208(7) 0.40872(16)
O4_3 O 0.0776(6) 0.1315(3) 0.1093(6)
N4_3 N 0.1710(6) 0.0670(4) 0.1945(7)
C16_3 C 0.1166(7) 0.0396(4) 0.0249(8)
C22_3 C 0.1240(8) 0.0779(5) 0.1149(8)
C23_3 C 0.1535(9) 0.1192(6) 0.2621(9)
H19_3 H 0.1144 0.1066 0.3177
H20_3 H 0.2129 0.1358 0.2871
C24_3 C 0.1021(10) 0.1663(6) 0.1985(10)
H21_3 H 0.1432 0.2009 0.1829
H22_3 H 0.0455 0.1815 0.2316
Cu1_5 Cu 0.2500 1.0000 0.23974(14)
Br1_5 Br 0.2500 1.0000 0.41850(13)
O1_3 O 0.4224(6) 0.8685(3) 0.1093(6)
N1_3 N 0.3290(6) 0.9330(4) 0.1945(7)
C1_3 C 0.3834(7) 0.9604(4) 0.0249(8)
C7_3 C 0.3760(8) 0.9221(5) 0.1149(8)
C8_3 C 0.3465(9) 0.8808(6) 0.2621(9)
H4_3 H 0.3856 0.8934 0.3177
H5_3 H 0.2871 0.8642 0.2871
C9_3 C 0.3979(10) 0.8337(6) 0.1985(10)
H6_3 H 0.3568 0.7991 0.1829
H7_3 H 0.4545 0.8185 0.2316
Br4_2 Br 0.15752(11) 0.7500 0.2500
N5_3 N 0.1403(6) 0.8391(4) 0.0210(6)
C17_3 C 0.1368(7) 0.9777(5) 0.0282(8)
H16_3 H 0.1559 0.9600 0.0878
H23_3 H 0.1196 0.7460 0.0083
H24_3 H 0.2284 0.7642 0.0110
O3_3 O 0.4392(6) 0.9729(4) 0.6779(6)
C5_3 C 0.4221(7) 0.9690(5) 0.8510(8)
C6_3 C 0.4128(7) 0.9334(5) 0.9379(8)
H3_3 H 0.4267 0.8915 0.9364
C13_3 C 0.4626(8) 0.9439(5) 0.7621(8)
C14_3 C 0.5439(9) 0.8918(5) 0.6468(8)
H12_3 H 0.6119 0.8945 0.6356
H13_3 H 0.5212 0.8525 0.6221
C15_3 C 0.4925(10) 0.9444(6) 0.5976(9)
H14_3 H 0.4502 0.9296 0.5461
H15_3 H 0.5372 0.9734 0.5687
O5_3 O 0.1667(6) 0.8485(3) 0.8590(6)
C18_3 C 0.1293(7) 0.9411(5) 0.9438(8)
C19_3 C 0.1003(7) 0.9682(5) 0.8548(8)
H17_3 H 0.0958 0.9444 0.7977
C25_3 C 0.1452(8) 0.8743(5) 0.9475(8)
C26_3 C 0.1662(9) 0.7761(5) 0.9867(9)
C27_3 C 0.1662(10) 0.7823(5) 0.8769(9)
H25_3 H 0.1100 0.7634 0.8485
H26_3 H 0.2222 0.7631 0.8485
C29_3 C 0.9561(9) 0.1082(5) 0.6468(8)
H27_3 H 0.8881 0.1055 0.6356
H28_3 H 0.9788 0.1475 0.6221
H30_3 H 0.9628 0.0266 0.5687
Cu3_4 Cu 0.9751(2) 0.7500 0.2500
Br3_4 Br 0.91970(12) 0.76208(7) 0.09128(16)
Br5_4 Br 0.91970(12) 0.73792(7) 0.40872(16)
Cu1_6 Cu 0.2500 0.5000 0.26026(14)
Br1_6 Br 0.2500 0.5000 0.08150(13)
O1_4 O 0.4224(6) 0.6315(3) 0.3907(6)
O2_2 O 0.3333(6) 0.3485(3) 0.6410(6)
O3_4 O 0.4392(6) 0.5271(4) 0.8221(6)
N1_4 N 0.3290(6) 0.5670(4) 0.3055(7)
N2_4 N 0.3597(6) 0.3391(4) 0.4790(6)
C1_4 C 0.3834(7) 0.5396(4) 0.4751(8)
C2_4 C 0.3632(7) 0.4777(5) 0.4718(8)
H1_4 H 0.3441 0.4600 0.4122
C3_2 C 0.3707(7) 0.4411(5) 0.5562(8)
C4_2 C 0.3997(7) 0.4682(5) 0.6452(8)
H2_2 H 0.4042 0.4444 0.7023
C5_4 C 0.4221(7) 0.5310(5) 0.6490(8)
C6_4 C 0.4128(7) 0.5666(5) 0.5621(8)
H3_4 H 0.4267 0.6085 0.5636
C7_4 C 0.3760(8) 0.5779(5) 0.3851(8)
C8_4 C 0.3465(9) 0.6192(6) 0.2379(9)
H4_4 H 0.3856 0.6066 0.1823
H5_4 H 0.2871 0.6358 0.2129
C9_4 C 0.3979(10) 0.6663(6) 0.3015(10)
H6_4 H 0.3568 0.7009 0.3171
H7_4 H 0.4545 0.6815 0.2684
C10_2 C 0.3548(8) 0.3743(5) 0.5525(8)
C11_2 C 0.3338(9) 0.2761(5) 0.5133(9)
H8_4 H 0.3804 0.2460 0.4917
H9_4 H 0.2716 0.2642 0.4890
C12_2 C 0.3338(10) 0.2823(5) 0.6231(9)
H10_2 H 0.3900 0.2634 0.6515
H11_2 H 0.2778 0.2631 0.6515
C13_4 C 0.4626(8) 0.5561(5) 0.7379(8)
C14_4 C 0.5439(9) 0.6082(5) 0.8532(8)
H12_4 H 0.6119 0.6055 0.8644
H13_4 H 0.5212 0.6475 0.8779
C15_4 C 0.4925(10) 0.5556(6) 0.9024(9)
H14_4 H 0.4502 0.5704 0.9539
H15_4 H 0.5372 0.5266 0.9313
O4_4 O 0.0776(6) 0.3685(3) 0.3907(6)
O5_4 O 0.1667(6) 0.6515(3) 0.6410(6)
O6_2 O 0.0608(6) 0.4729(4) 0.8221(6)
N4_4 N 0.1710(6) 0.4330(4) 0.3055(7)
N5_4 N 0.1403(6) 0.6609(4) 0.4790(6)
C16_4 C 0.1166(7) 0.4604(4) 0.4751(8)
C17_4 C 0.1368(7) 0.5223(5) 0.4718(8)
H16_4 H 0.1559 0.5400 0.4122
C18_4 C 0.1293(7) 0.5589(5) 0.5562(8)
C19_4 C 0.1003(7) 0.5318(5) 0.6452(8)
H17_4 H 0.0958 0.5556 0.7023
C20_2 C 0.0779(7) 0.4690(5) 0.6490(8)
C21_2 C 0.0872(7) 0.4334(5) 0.5621(8)
H18_2 H 0.0733 0.3915 0.5636
C22_4 C 0.1240(8) 0.4221(5) 0.3851(8)
C23_4 C 0.1535(9) 0.3808(6) 0.2379(9)
H19_4 H 0.1144 0.3934 0.1823
H20_4 H 0.2129 0.3642 0.2129
C24_4 C 0.1021(10) 0.3337(6) 0.3015(10)
H21_4 H 0.1432 0.2991 0.3171
H22_4 H 0.0455 0.3185 0.2684
C25_4 C 0.1452(8) 0.6257(5) 0.5525(8)
C26_4 C 0.1662(9) 0.7239(5) 0.5133(9)
H23_4 H 0.1196 0.7540 0.4917
H24_4 H 0.2284 0.7358 0.4890
C27_4 C 0.1662(10) 0.7177(5) 0.6231(9)
H25_4 H 0.1100 0.7366 0.6515
H26_4 H 0.2222 0.7369 0.6515
C28_2 C 0.0374(8) 0.4439(5) 0.7379(8)
C30_2 C 0.0075(10) 0.4444(6) 0.9024(9)
H29_2 H 0.0498 0.4296 0.9539
C29_4 C 0.9561(9) 0.3918(5) 0.8532(8)
H27_4 H 0.8881 0.3945 0.8644
H28_4 H 0.9788 0.3525 0.8779
H30_4 H 0.9628 0.4734 0.9313
O2_3 O 0.6667(6) 0.8485(3) 0.1410(6)
C3_3 C 0.6293(7) 0.9411(5) 0.0562(8)
C4_3 C 0.6003(7) 0.9682(5) 0.1452(8)
H2_3 H 0.5958 0.9444 0.2023
C10_3 C 0.6452(8) 0.8743(5) 0.0525(8)
C11_3 C 0.6662(9) 0.7761(5) 0.0133(9)
C12_3 C 0.6662(10) 0.7823(5) 0.1231(9)
H10_3 H 0.6100 0.7634 0.1515
H11_3 H 0.7222 0.7631 0.1515
O6_3 O 0.9392(6) 0.9729(4) 0.3221(6)
C20_3 C 0.9221(7) 0.9690(5) 0.1490(8)
C21_3 C 0.9128(7) 0.9334(5) 0.0621(8)
H18_3 H 0.9267 0.8915 0.0636
C28_3 C 0.9626(8) 0.9439(5) 0.2379(8)
C30_3 C 0.9925(10) 0.9444(6) 0.4024(9)
H29_3 H 0.9502 0.9296 0.4539
O2_4 O 0.3333(6) 0.1515(3) 0.8590(6)
C3_4 C 0.3707(7) 0.0589(5) 0.9438(8)
C4_4 C 0.3997(7) 0.0318(5) 0.8548(8)
H2_4 H 0.4042 0.0556 0.7977
C10_4 C 0.3548(8) 0.1257(5) 0.9475(8)
C11_4 C 0.3338(9) 0.2239(5) 0.9867(9)
C12_4 C 0.3338(10) 0.2177(5) 0.8769(9)
H10_4 H 0.3900 0.2366 0.8485
H11_4 H 0.2778 0.2369 0.8485
O6_4 O 0.0608(6) 0.0271(4) 0.6779(6)
C20_4 C 0.0779(7) 0.0310(5) 0.8510(8)
C21_4 C 0.0872(7) 0.0666(5) 0.9379(8)
H18_4 H 0.0733 0.1085 0.9364
C28_4 C 0.0374(8) 0.0561(5) 0.7621(8)
C30_4 C 0.0075(10) 0.0556(6) 0.5976(9)
H29_4 H 0.0498 0.0704 0.5461
loop_
_geom_bond_atom_site_label_1
_geom_bond_atom_site_label_2
_geom_bond_site_symmetry_1
_geom_bond_site_symmetry_2
Cu7 N6 1_555 1_555
C29 N6 1_555 1_555
H27 C29 1_555 1_555
H28 C29 1_555 1_555
O3 C13 1_555 1_555
N3 C13 1_555 1_555
H3 C6 1_555 1_555
C13 C5 1_555 1_555
C14 N3 1_555 1_555
H12 C14 1_555 1_555
H13 C14 1_555 1_555
C15 O3 1_555 1_555
H14 C15 1_555 1_555
H15 C15 1_555 1_555
Cu6 N3 1_555 1_555
O5 C25 1_555 1_555
C19 C18 1_555 1_555
H17 C19 1_555 1_555
C27 O5 1_555 1_555
H25 C27 1_555 1_555
H26 C27 1_555 1_555
C5 C6 1_555 1_555
C14 C15 1_555 1_555
C18 C25 1_555 1_555
C26 C27 1_555 1_555
Cu1 Br1 1_555 1_555
O1 C7 1_555 1_555
N1 Cu1 1_555 1_555
C7 N1 1_555 1_555
C8 N1 1_555 1_555
H4 C8 1_555 1_555
H5 C8 1_555 1_555
C9 O1 1_555 1_555
H6 C9 1_555 1_555
H7 C9 1_555 1_555
Cu4 Br4 1_555 1_555
N5 Cu4 1_555 1_555
N8 Cu4 1_555 1_555
C17 H16 1_555 1_555
C1 C7 1_555 1_555
C8 C9 1_555 1_555
Cu1_2 Br1_2 1_555 1_555
Cu2 Br2 1_555 1_555
Br2 Cu3 1_555 1_555
Cu3 Br3 1_555 1_555
N2 Cu2 1_555 1_555
C2 H1 1_555 1_555
Cu5 Br2 1_555 1_555
Br5 Cu3 1_555 1_555
O4 C22 1_555 1_555
N4 Cu1_2 1_555 1_555
N7 Cu2 1_555 1_555
C22 N4 1_555 1_555
C23 N4 1_555 1_555
H19 C23 1_555 1_555
H20 C23 1_555 1_555
C24 O4 1_555 1_555
H21 C24 1_555 1_555
H22 C24 1_555 1_555
C16 C22 1_555 1_555
C23 C24 1_555 1_555
Cu3_2 Br3_2 1_555 1_555
Br5_2 Cu3_2 1_555 1_555
Cu5_2 Br4 1_555 1_555
Cu7_2 N6_2 1_555 1_555
C29_2 N6_2 1_555 1_555
H27_2 C29_2 1_555 1_555
H28_2 C29_2 1_555 1_555
Cu1_3 Br1_3 1_555 1_555
O1_2 C7_2 1_555 1_555
O2 C10 1_555 1_555
O3_2 C13_2 1_555 1_555
N1_2 Cu1_3 1_555 1_555
N2_2 Cu5 1_555 1_555
N3_2 C13_2 1_555 1_555
C1_2 C2_2 1_555 1_555
C2_2 H1_2 1_555 1_555
C3 C2_2 1_555 1_555
C4 C3 1_555 1_555
H2 C4 1_555 1_555
C5_2 C4 1_555 1_555
C6_2 C1_2 1_555 1_555
H3_2 C6_2 1_555 1_555
C7_2 N1_2 1_555 1_555
C8_2 N1_2 1_555 1_555
H4_2 C8_2 1_555 1_555
H5_2 C8_2 1_555 1_555
C9_2 O1_2 1_555 1_555
H6_2 C9_2 1_555 1_555
H7_2 C9_2 1_555 1_555
C10 N2_2 1_555 1_555
C11 N2_2 1_555 1_555
H8_2 C11 1_555 1_555
H9_2 C11 1_555 1_555
C12 O2 1_555 1_555
H10 C12 1_555 1_555
H11 C12 1_555 1_555
C13_2 C5_2 1_555 1_555
C14_2 N3_2 1_555 1_555
H12_2 C14_2 1_555 1_555
H13_2 C14_2 1_555 1_555
C15_2 O3_2 1_555 1_555
H14_2 C15_2 1_555 1_555
H15_2 C15_2 1_555 1_555
Cu6_2 N3_2 1_555 1_555
O4_2 C22_2 1_555 1_555
O5_2 C25_2 1_555 1_555
O6 C28 1_555 1_555
N4_2 Cu1_3 1_555 1_555
N5_2 Cu5_2 1_555 1_555
N7_2 Cu5 1_555 1_555
N8_2 Cu5_2 1_555 1_555
C16_2 C17_2 1_555 1_555
C17_2 H16_2 1_555 1_555
C18_2 C17_2 1_555 1_555
C19_2 C18_2 1_555 1_555
H17_2 C19_2 1_555 1_555
C20 C19_2 1_555 1_555
C21 C16_2 1_555 1_555
H18 C21 1_555 1_555
C22_2 N4_2 1_555 1_555
C23_2 N4_2 1_555 1_555
H19_2 C23_2 1_555 1_555
H20_2 C23_2 1_555 1_555
C24_2 O4_2 1_555 1_555
H21_2 C24_2 1_555 1_555
H22_2 C24_2 1_555 1_555
C25_2 N5_2 1_555 1_555
C26_2 N5_2 1_555 1_555
H23_2 C26_2 1_555 1_555
H24_2 C26_2 1_555 1_555
C27_2 O5_2 1_555 1_555
H25_2 C27_2 1_555 1_555
H26_2 C27_2 1_555 1_555
C28 C20 1_555 1_555
C30 O6 1_555 1_555
H29 C30 1_555 1_555
C1_2 C7_2 1_555 1_555
C3 C10 1_555 1_555
C5_2 C6_2 1_555 1_555
C8_2 C9_2 1_555 1_555
C11 C12 1_555 1_555
C14_2 C15_2 1_555 1_555
C16_2 C22_2 1_555 1_555
C18_2 C25_2 1_555 1_555
C20 C21 1_555 1_555
C23_2 C24_2 1_555 1_555
C26_2 C27_2 1_555 1_555
Cu1_4 Br1_4 1_555 1_555
Cu6 Br2_2 1_555 1_555
Br2_2 Cu3_3 1_555 1_555
Cu3_3 Br3_3 1_555 1_555
N2_3 Cu6 1_555 1_555
C2_3 H1_3 1_555 1_555
Cu6_2 Br2_2 1_555 1_555
Br5_3 Cu3_3 1_555 1_555
O4_3 C22_3 1_555 1_555
N4_3 Cu1_4 1_555 1_555
C22_3 N4_3 1_555 1_555
C23_3 N4_3 1_555 1_555
H19_3 C23_3 1_555 1_555
H20_3 C23_3 1_555 1_555
C24_3 O4_3 1_555 1_555
H21_3 C24_3 1_555 1_555
H22_3 C24_3 1_555 1_555
C16_3 C22_3 1_555 1_555
C23_3 C24_3 1_555 1_555
Cu1_5 Br1_5 1_555 1_555
O1_3 C7_3 1_555 1_555
N1_3 Cu1_5 1_555 1_555
C7_3 N1_3 1_555 1_555
C8_3 N1_3 1_555 1_555
H4_3 C8_3 1_555 1_555
H5_3 C8_3 1_555 1_555
C9_3 O1_3 1_555 1_555
H6_3 C9_3 1_555 1_555
H7_3 C9_3 1_555 1_555
Cu7 Br4_2 1_555 1_555
N5_3 Cu7 1_555 1_555
C17_3 H16_3 1_555 1_555
C1_3 C7_3 1_555 1_555
C8_3 C9_3 1_555 1_555
O3_3 C13_3 1_555 1_555
N7 C13_3 1_555 1_555
H3_3 C6_3 1_555 1_555
C13_3 C5_3 1_555 1_555
C14_3 N7 1_555 1_555
H12_3 C14_3 1_555 1_555
H13_3 C14_3 1_555 1_555
C15_3 O3_3 1_555 1_555
H14_3 C15_3 1_555 1_555
H15_3 C15_3 1_555 1_555
O5_3 C25_3 1_555 1_555
C19_3 C18_3 1_555 1_555
H17_3 C19_3 1_555 1_555
C27_3 O5_3 1_555 1_555
H25_3 C27_3 1_555 1_555
H26_3 C27_3 1_555 1_555
C5_3 C6_3 1_555 1_555
C14_3 C15_3 1_555 1_555
C18_3 C25_3 1_555 1_555
C26_3 C27_3 1_555 1_555
C29_3 N8 1_555 1_555
H27_3 C29_3 1_555 1_555
H28_3 C29_3 1_555 1_555
Cu7_2 Br4_2 1_555 1_555
Cu3_4 Br3_4 1_555 1_555
Br5_4 Cu3_4 1_555 1_555
Cu1_6 Br1_6 1_555 1_555
O1_4 C7_4 1_555 1_555
O2_2 C10_2 1_555 1_555
O3_4 C13_4 1_555 1_555
N1_4 Cu1_6 1_555 1_555
N2_4 Cu6_2 1_555 1_555
N7_2 C13_4 1_555 1_555
C1_4 C2_4 1_555 1_555
C2_4 H1_4 1_555 1_555
C3_2 C2_4 1_555 1_555
C4_2 C3_2 1_555 1_555
H2_2 C4_2 1_555 1_555
C5_4 C4_2 1_555 1_555
C6_4 C1_4 1_555 1_555
H3_4 C6_4 1_555 1_555
C7_4 N1_4 1_555 1_555
C8_4 N1_4 1_555 1_555
H4_4 C8_4 1_555 1_555
H5_4 C8_4 1_555 1_555
C9_4 O1_4 1_555 1_555
H6_4 C9_4 1_555 1_555
H7_4 C9_4 1_555 1_555
C10_2 N2_4 1_555 1_555
C11_2 N2_4 1_555 1_555
H8_4 C11_2 1_555 1_555
H9_4 C11_2 1_555 1_555
C12_2 O2_2 1_555 1_555
H10_2 C12_2 1_555 1_555
H11_2 C12_2 1_555 1_555
C13_4 C5_4 1_555 1_555
C14_4 N7_2 1_555 1_555
H12_4 C14_4 1_555 1_555
H13_4 C14_4 1_555 1_555
C15_4 O3_4 1_555 1_555
H14_4 C15_4 1_555 1_555
H15_4 C15_4 1_555 1_555
O4_4 C22_4 1_555 1_555
O5_4 C25_4 1_555 1_555
O6_2 C28_2 1_555 1_555
N4_4 Cu1_6 1_555 1_555
N5_4 Cu7_2 1_555 1_555
C16_4 C17_4 1_555 1_555
C17_4 H16_4 1_555 1_555
C18_4 C17_4 1_555 1_555
C19_4 C18_4 1_555 1_555
H17_4 C19_4 1_555 1_555
C20_2 C19_4 1_555 1_555
C21_2 C16_4 1_555 1_555
H18_2 C21_2 1_555 1_555
C22_4 N4_4 1_555 1_555
C23_4 N4_4 1_555 1_555
H19_4 C23_4 1_555 1_555
H20_4 C23_4 1_555 1_555
C24_4 O4_4 1_555 1_555
H21_4 C24_4 1_555 1_555
H22_4 C24_4 1_555 1_555
C25_4 N5_4 1_555 1_555
C26_4 N5_4 1_555 1_555
H23_4 C26_4 1_555 1_555
H24_4 C26_4 1_555 1_555
C27_4 O5_4 1_555 1_555
H25_4 C27_4 1_555 1_555
H26_4 C27_4 1_555 1_555
C28_2 C20_2 1_555 1_555
C30_2 O6_2 1_555 1_555
H29_2 C30_2 1_555 1_555
C1_4 C7_4 1_555 1_555
C3_2 C10_2 1_555 1_555
C5_4 C6_4 1_555 1_555
C8_4 C9_4 1_555 1_555
C11_2 C12_2 1_555 1_555
C14_4 C15_4 1_555 1_555
C16_4 C22_4 1_555 1_555
C18_4 C25_4 1_555 1_555
C20_2 C21_2 1_555 1_555
C23_4 C24_4 1_555 1_555
C26_4 C27_4 1_555 1_555
C29_4 N8_2 1_555 1_555
H27_4 C29_4 1_555 1_555
H28_4 C29_4 1_555 1_555
O2_3 C10_3 1_555 1_555
C4_3 C3_3 1_555 1_555
H2_3 C4_3 1_555 1_555
C12_3 O2_3 1_555 1_555
H10_3 C12_3 1_555 1_555
H11_3 C12_3 1_555 1_555
O6_3 C28_3 1_555 1_555
H18_3 C21_3 1_555 1_555
C28_3 C20_3 1_555 1_555
C30_3 O6_3 1_555 1_555
H29_3 C30_3 1_555 1_555
C3_3 C10_3 1_555 1_555
C11_3 C12_3 1_555 1_555
C20_3 C21_3 1_555 1_555
O2_4 C10_4 1_555 1_555
C4_4 C3_4 1_555 1_555
H2_4 C4_4 1_555 1_555
C12_4 O2_4 1_555 1_555
H10_4 C12_4 1_555 1_555
H11_4 C12_4 1_555 1_555
O6_4 C28_4 1_555 1_555
H18_4 C21_4 1_555 1_555
C28_4 C20_4 1_555 1_555
C30_4 O6_4 1_555 1_555
H29_4 C30_4 1_555 1_555
C3_4 C10_4 1_555 1_555
C11_4 C12_4 1_555 1_555
C20_4 C21_4 1_555 1_555

#END
