
###############################################################################
#
# This file contains modified crystal structure data generated from the
# MOF subset of the Cambridge Structural Database (CSD) v543 
# hosted by the Cambridge Crystallographic Data Centre (CCDC).
#
# This work is licensed under the Creative Commons
# Attribution-NonCommercial-ShareAlike 4.0 International License.
# To view a copy of this license, visit
# http://creativecommons.org/licenses/by-nc-sa/4.0/
# or send a letter to
# Creative Commons, PO Box 1866, Mountain View, CA 94042, USA.
#
# CIF created using the CSD Python API on 29 September 2022
# The structure has been converted into the P1 space group
# The structure has a 3D framework
# The original CSD entry LACQIS is in the tetragonal crystal system
# The framework has been calculated to contain at least 10.0% void space
# The void calculation uses a probe of radius 1.32A, grid spacing 0.4
# The framework is charged, counterions have been retained in the structure
#
###############################################################################

data_LACQIS
_chemical_formula_moiety         '(C72 H72 Cl8 N30 O56 Zn8)n'
_symmetry_cell_setting           triclinic
_symmetry_space_group_name_H-M   'P 1'
_symmetry_Int_Tables_number      1
_space_group_name_Hall           'P 1'
loop_
_symmetry_equiv_pos_site_id
_symmetry_equiv_pos_as_xyz
1 x,y,z
_cell_length_a                   18.1111(7)
_cell_length_b                   18.1111(7)
_cell_length_c                   11.2507(9)
_cell_angle_alpha                90
_cell_angle_beta                 90
_cell_angle_gamma                90
_cell_volume                     3690.36
loop_
_atom_site_label
_atom_site_type_symbol
_atom_site_fract_x
_atom_site_fract_y
_atom_site_fract_z
Zn1 Zn 0.21145(3) 0.42349(3) 0.16977(4)
C1 C 0.2858(2) 0.3467(2) 0.3834(4)
C2 C 0.2202(2) 0.3638(2) 0.4610(4)
H1 H 0.1871 0.3217 0.4595
H2 H 0.2376 0.3693 0.5421
C3 C 0.1768(2) 0.4312(2) 0.4295(4)
C4 C 0.1082(2) 0.5276(3) 0.4458(4)
C5 C 0.0634(2) 0.5868(2) 0.4978(4)
C6 C 0.0439(3) 0.5874(3) 0.6169(5)
H3 H 0.0579 0.5488 0.6665
C7 C 0.0033(3) 0.6461(3) 0.6614(5)
C9 C 0.0385(3) 0.6442(3) 0.4279(4)
H6 H 0.0489 0.6452 0.3470
N1 N 0.1677(2) 0.4599(2) 0.3236(3)
N2 N 0.1240(2) 0.5222(2) 0.3332(3)
N3 N 0.1399(2) 0.4722(2) 0.5066(3)
H7 H 0.1372 0.4650 0.5820
O1 O 0.28962(16) 0.36657(16) 0.2781(3)
O2 O 0.33578(16) 0.30831(17) 0.4324(3)
O3 O 0.1297(2) 0.4801(2) 0.0707(3)
H8 H 0.1249 0.4596 0.0033
H9 H 0.1433 0.5245 0.0597
Zn3 Zn 0.42349(3) 0.28855(3) 0.33023(4)
N5 N 0.2977(2) 0.4813(2) 0.0942(3)
O4 O 0.19169(17) 0.33578(16) 0.0676(3)
H2_2 H 0.6307 0.7376 0.0421
C6_2 C 0.4126(3) 0.5439(3) 0.1169(5)
H3_2 H 0.4512 0.5579 0.1665
C7_2 C 0.3539(3) 0.5033(3) 0.1614(5)
H4 H 0.3536 0.4913 0.2418
N3_2 N 0.5278(2) 0.6399(2) 0.0066(3)
H7_2 H 0.5350 0.6372 0.0820
Zn1_2 Zn 0.28855(3) 0.07651(3) 0.16977(4)
C1_2 C 0.2142(2) 0.1533(2) 0.3834(4)
C2_2 C 0.2798(2) 0.1362(2) 0.4610(4)
H1_2 H 0.3129 0.1783 0.4595
H2_3 H 0.2624 0.1307 0.5421
C3_2 C 0.3232(2) 0.0688(2) 0.4295(4)
N1_2 N 0.3323(2) 0.0401(2) 0.3236(3)
N3_3 N 0.3601(2) 0.0278(2) 0.5066(3)
H7_3 H 0.3628 0.0350 0.5820
O1_2 O 0.21038(16) 0.13343(16) 0.2781(3)
O2_2 O 0.16422(16) 0.19169(17) 0.4324(3)
O3_2 O 0.3703(2) 0.0199(2) 0.0707(3)
H8_2 H 0.3751 0.0404 0.0033
Zn3_2 Zn 0.07651(3) 0.21145(3) 0.33023(4)
N5_2 N 0.2023(2) 0.0187(2) 0.0942(3)
O4_2 O 0.30831(17) 0.16422(16) 0.0676(3)
H4_2 H 0.1464 0.0087 0.2418
H4_3 H 0.0087 0.3536 0.2582
C8 C 0.0022(3) 0.3000(3) 0.5206(5)
H5 H 0.0187 0.2618 0.5691
N4 N 0.0187(2) 0.2977(2) 0.4058(3)
C1_3 C 0.3467(2) 0.2142(2) 0.1166(4)
C2_3 C 0.3638(2) 0.2798(2) 0.0390(4)
H1_3 H 0.3217 0.3129 0.0405
C3_3 C 0.4312(2) 0.3232(2) 0.0705(4)
C4_2 C 0.5276(3) 0.3918(2) 0.0542(4)
C5_2 C 0.5868(2) 0.4366(2) 0.0022(4)
C8_2 C 0.7000(3) 0.5022(3) 0.0206(5)
H5_2 H 0.7382 0.5187 0.0691
C9_2 C 0.6442(3) 0.4615(3) 0.0721(4)
H6_2 H 0.6452 0.4511 0.1530
N1_3 N 0.4599(2) 0.3323(2) 0.1764(3)
N2_2 N 0.5222(2) 0.3760(2) 0.1668(3)
O1_3 O 0.36657(16) 0.21038(16) 0.2219(3)
O3_3 O 0.4801(2) 0.3703(2) 0.4293(3)
H8_3 H 0.4596 0.3751 0.4967
H9_2 H 0.5245 0.3567 0.4403
N5_3 N 0.4813(2) 0.2023(2) 0.4058(3)
C4_3 C 0.6082(2) 0.0276(3) 0.5542(4)
C5_3 C 0.5634(2) 0.0868(2) 0.5022(4)
C6_3 C 0.5439(3) 0.0874(3) 0.3831(5)
H3_3 H 0.5579 0.0488 0.3335
C7_3 C 0.5033(3) 0.1461(3) 0.3386(5)
H4_4 H 0.4913 0.1464 0.2582
C8_3 C 0.4978(3) 0.2000(3) 0.5206(5)
H5_3 H 0.4813 0.2382 0.5691
C9_3 C 0.5385(3) 0.1442(3) 0.5721(4)
H6_3 H 0.5489 0.1452 0.6530
N2_3 N 0.6240(2) 0.0222(2) 0.6668(3)
H9_3 H 0.6433 0.0245 0.9403
C1_4 C 0.1533(2) 0.2858(2) 0.1166(4)
C2_4 C 0.1362(2) 0.2202(2) 0.0390(4)
H1_4 H 0.1783 0.1871 0.0405
C3_4 C 0.0688(2) 0.1768(2) 0.0705(4)
N1_4 N 0.0401(2) 0.1677(2) 0.1764(3)
O1_4 O 0.13343(16) 0.28962(16) 0.2219(3)
O3_4 O 0.0199(2) 0.1297(2) 0.4293(3)
H8_4 H 0.0404 0.1249 0.4967
H4_5 H 0.9913 0.6464 0.7418
C8_4 C 0.9978(3) 0.7000(3) 0.4794(5)
H5_4 H 0.9813 0.7382 0.4309
N4_2 N 0.9813(2) 0.7023(2) 0.5942(3)
Zn2 Zn 0.92349(3) 0.78855(3) 0.66977(4)
Zn1_3 Zn 0.57651(3) 0.71145(3) 0.66977(4)
C1_5 C 0.6533(2) 0.7858(2) 0.8834(4)
C2_5 C 0.6362(2) 0.7202(2) 0.9610(4)
H1_5 H 0.6783 0.6871 0.9595
C3_5 C 0.5688(2) 0.6768(2) 0.9295(4)
C4_4 C 0.4724(3) 0.6082(2) 0.9458(4)
C5_4 C 0.4132(2) 0.5634(2) 0.9978(4)
C8_5 C 0.3000(3) 0.4978(3) 0.9794(5)
H5_5 H 0.2618 0.4813 0.9309
C9_4 C 0.3558(3) 0.5385(3) 0.9279(4)
H6_4 H 0.3548 0.5489 0.8470
N1_5 N 0.5401(2) 0.6677(2) 0.8236(3)
N2_4 N 0.4778(2) 0.6240(2) 0.8332(3)
O1_5 O 0.63343(16) 0.78962(16) 0.7781(3)
O2_3 O 0.69169(17) 0.83578(16) 0.9324(3)
O3_5 O 0.5199(2) 0.6297(2) 0.5707(3)
H8_5 H 0.5404 0.6249 0.5033
H9_4 H 0.4755 0.6433 0.5597
Zn3_3 Zn 0.71145(3) 0.92349(3) 0.83023(4)
N5_4 N 0.5187(2) 0.7977(2) 0.5942(3)
O4_3 O 0.66422(16) 0.69169(17) 0.5676(3)
C4_5 C 0.3918(2) 0.9724(3) 0.4458(4)
C5_5 C 0.4366(2) 0.9132(2) 0.4978(4)
C6_4 C 0.4561(3) 0.9126(3) 0.6169(5)
H3_4 H 0.4421 0.9512 0.6665
C7_4 C 0.4967(3) 0.8539(3) 0.6614(5)
H4_6 H 0.5087 0.8536 0.7418
C8_6 C 0.5022(3) 0.8000(3) 0.4794(5)
H5_6 H 0.5187 0.7618 0.4309
C9_5 C 0.4615(3) 0.8558(3) 0.4279(4)
H6_5 H 0.4511 0.8548 0.3470
N2_5 N 0.3760(2) 0.9778(2) 0.3332(3)
H9_5 H 0.3567 0.9755 0.0597
C1_6 C 0.8467(2) 0.7142(2) 0.8834(4)
C2_6 C 0.8638(2) 0.7798(2) 0.9610(4)
H1_6 H 0.8217 0.8129 0.9595
C3_6 C 0.9312(2) 0.8232(2) 0.9295(4)
N1_6 N 0.9599(2) 0.8323(2) 0.8236(3)
O1_6 O 0.86657(16) 0.71038(16) 0.7781(3)
O2_4 O 0.80831(17) 0.66422(16) 0.9324(3)
O3_6 O 0.9801(2) 0.8703(2) 0.5707(3)
H8_6 H 0.9596 0.8751 0.5033
Zn3_4 Zn 0.78855(3) 0.57651(3) 0.83023(4)
O4_4 O 0.83578(16) 0.80831(17) 0.5676(3)
C1_7 C 0.7142(2) 0.6533(2) 0.6166(4)
C2_7 C 0.7798(2) 0.6362(2) 0.5390(4)
H1_7 H 0.8129 0.6783 0.5405
H2_4 H 0.7624 0.6307 0.4579
C3_7 C 0.8232(2) 0.5688(2) 0.5705(4)
C4_6 C 0.8918(2) 0.4724(3) 0.5542(4)
C5_6 C 0.9366(2) 0.4132(2) 0.5022(4)
C6_5 C 0.9561(3) 0.4126(3) 0.3831(5)
H3_5 H 0.9421 0.4512 0.3335
C7_5 C 0.9967(3) 0.3539(3) 0.3386(5)
C9_6 C 0.9615(3) 0.3558(3) 0.5721(4)
H6_6 H 0.9511 0.3548 0.6530
N1_7 N 0.8323(2) 0.5401(2) 0.6764(3)
N2_6 N 0.8760(2) 0.4778(2) 0.6668(3)
N3_4 N 0.8601(2) 0.5278(2) 0.4934(3)
H7_4 H 0.8628 0.5350 0.4180
O1_7 O 0.71038(16) 0.63343(16) 0.7219(3)
O3_7 O 0.8703(2) 0.5199(2) 0.9293(3)
H8_7 H 0.8751 0.5404 0.9967
H9_6 H 0.8567 0.4755 0.9403
N5_5 N 0.7023(2) 0.5187(2) 0.9058(3)
H2_5 H 0.3693 0.2624 0.9579
C6_6 C 0.5874(3) 0.4561(3) 0.8831(5)
H3_6 H 0.5488 0.4421 0.8335
C7_6 C 0.6461(3) 0.4967(3) 0.8386(5)
H4_7 H 0.6464 0.5087 0.7582
N3_5 N 0.4722(2) 0.3601(2) 0.9934(3)
H7_5 H 0.4650 0.3628 0.9180
C1_8 C 0.7858(2) 0.8467(2) 0.6166(4)
C2_8 C 0.7202(2) 0.8638(2) 0.5390(4)
H1_8 H 0.6871 0.8217 0.5405
H2_6 H 0.7376 0.8693 0.4579
C3_8 C 0.6768(2) 0.9312(2) 0.5705(4)
N1_8 N 0.6677(2) 0.9599(2) 0.6764(3)
N3_6 N 0.6399(2) 0.9722(2) 0.4934(3)
H7_6 H 0.6372 0.9650 0.4180
O1_8 O 0.78962(16) 0.86657(16) 0.7219(3)
O3_8 O 0.6297(2) 0.9801(2) 0.9293(3)
H8_8 H 0.6249 0.9596 0.9967
N5_6 N 0.7977(2) 0.9813(2) 0.9058(3)
H4_8 H 0.8536 0.9913 0.7582
C8_7 C 0.2000(3) 0.0022(3) 0.9794(5)
H5_7 H 0.2382 0.0187 0.9309
C6_7 C 0.0874(3) 0.9561(3) 0.1169(5)
H3_7 H 0.0488 0.9421 0.1665
C7_7 C 0.1461(3) 0.9967(3) 0.1614(5)
C4_7 C 0.0276(3) 0.8918(2) 0.9458(4)
C5_7 C 0.0868(2) 0.9366(2) 0.9978(4)
C9_7 C 0.1442(3) 0.9615(3) 0.9279(4)
H6_7 H 0.1452 0.9511 0.8470
N2_7 N 0.0222(2) 0.8760(2) 0.8332(3)
H9_7 H 0.0245 0.8567 0.5597
H2_7 H 0.8693 0.7624 0.0421
N3_7 N 0.9722(2) 0.8601(2) 0.0066(3)
H7_7 H 0.9650 0.8628 0.0820
H2_8 H 0.1307 0.2376 0.9579
N3_8 N 0.0278(2) 0.1399(2) 0.9934(3)
H7_8 H 0.0350 0.1372 0.9180
C4_8 C 0.9724(3) 0.1082(2) 0.0542(4)
C5_8 C 0.9132(2) 0.0634(2) 0.0022(4)
C9_8 C 0.8558(3) 0.0385(3) 0.0721(4)
H6_8 H 0.8548 0.0489 0.1530
N2_8 N 0.9778(2) 0.1240(2) 0.1668(3)
H9_8 H 0.9755 0.1433 0.4403
C6_8 C 0.9126(3) 0.0439(3) 0.8831(5)
H3_8 H 0.9512 0.0579 0.8335
C7_8 C 0.8539(3) 0.0033(3) 0.8386(5)
C8_8 C 0.8000(3) 0.9978(3) 0.0206(5)
H5_8 H 0.7618 0.9813 0.0691
Cl1 Cl 0.01582(10) 0.64694(10) 0.06802(15)
O5 O 0.0905(3) 0.6382(4) 0.0899(7)
O6 O 0.9824(5) 0.6973(4) 0.1488(5)
O7 O 0.9853(4) 0.5765(4) 0.0978(8)
O8 O 0.9983(4) 0.6672(5) 0.9564(5)
Cl1_2 Cl 0.35306(10) 0.51582(10) 0.56802(15)
O5_2 O 0.3618(4) 0.5905(3) 0.5899(7)
O6_2 O 0.3027(4) 0.4824(5) 0.6488(5)
O7_2 O 0.4235(4) 0.4853(4) 0.5978(8)
O8_2 O 0.3328(5) 0.4983(4) 0.4564(5)
Cl1_3 Cl 0.48418(10) 0.85306(10) 0.06802(15)
O5_3 O 0.4095(3) 0.8618(4) 0.0899(7)
O6_3 O 0.5176(5) 0.8027(4) 0.1488(5)
O7_3 O 0.5147(4) 0.9235(4) 0.0978(8)
O8_3 O 0.5017(4) 0.8328(5) 0.9564(5)
O6_4 O 0.1973(4) 0.0176(5) 0.6488(5)
O7_4 O 0.0765(4) 0.0147(4) 0.5978(8)
O8_4 O 0.1672(5) 0.0017(4) 0.4564(5)
Cl1_4 Cl 0.14694(10) 0.98418(10) 0.56802(15)
O5_4 O 0.1382(4) 0.9095(3) 0.5899(7)
O8_5 O 0.0017(4) 0.3328(5) 0.0436(5)
O6_5 O 0.0176(5) 0.3027(4) 0.8512(5)
O7_5 O 0.0147(4) 0.4235(4) 0.9022(8)
Cl1_5 Cl 0.98418(10) 0.35306(10) 0.93198(15)
O5_5 O 0.9095(3) 0.3618(4) 0.9101(7)
Cl1_6 Cl 0.64694(10) 0.48418(10) 0.43198(15)
O5_6 O 0.6382(4) 0.4095(3) 0.4101(7)
O6_6 O 0.6973(4) 0.5176(5) 0.3512(5)
O7_6 O 0.5765(4) 0.5147(4) 0.4022(8)
O8_6 O 0.6672(5) 0.5017(4) 0.5436(5)
O8_7 O 0.4983(4) 0.1672(5) 0.0436(5)
Cl1_7 Cl 0.51582(10) 0.14694(10) 0.93198(15)
O5_7 O 0.5905(3) 0.1382(4) 0.9101(7)
O6_7 O 0.4824(5) 0.1973(4) 0.8512(5)
O7_7 O 0.4853(4) 0.0765(4) 0.9022(8)
Cl1_8 Cl 0.85306(10) 0.01582(10) 0.43198(15)
O5_8 O 0.8618(4) 0.0905(3) 0.4101(7)
O6_8 O 0.8027(4) 0.9824(5) 0.3512(5)
O7_8 O 0.9235(4) 0.9853(4) 0.4022(8)
O8_8 O 0.8328(5) 0.9983(4) 0.5436(5)
loop_
_geom_bond_atom_site_label_1
_geom_bond_atom_site_label_2
_geom_bond_site_symmetry_1
_geom_bond_site_symmetry_2
Zn1 N1 1_555 1_555
C1 C2 1_555 1_555
C2 H1 1_555 1_555
H2 C2 1_555 1_555
C3 C2 1_555 1_555
C4 C5 1_555 1_555
C5 C6 1_555 1_555
C6 H3 1_555 1_555
C7 C6 1_555 1_555
C9 C5 1_555 1_555
H6 C9 1_555 1_555
N1 C3 1_555 1_555
N2 C4 1_555 1_555
N3 C3 1_555 1_555
H7 N3 1_555 1_555
O1 Zn1 1_555 1_555
O2 C1 1_555 1_555
O3 Zn1 1_555 1_555
H8 O3 1_555 1_555
H9 O3 1_555 1_555
Zn3 O2 1_555 1_555
N5 Zn1 1_555 1_555
O4 Zn1 1_555 1_555
C1 O1 1_555 1_555
C4 N3 1_555 1_555
N1 N2 1_555 1_555
C6_2 H3_2 1_555 1_555
C7_2 C6_2 1_555 1_555
H4 C7_2 1_555 1_555
H7_2 N3_2 1_555 1_555
N5 C7_2 1_555 1_555
Zn1_2 N1_2 1_555 1_555
C1_2 C2_2 1_555 1_555
C2_2 H1_2 1_555 1_555
H2_3 C2_2 1_555 1_555
C3_2 C2_2 1_555 1_555
N1_2 C3_2 1_555 1_555
N3_3 C3_2 1_555 1_555
H7_3 N3_3 1_555 1_555
O1_2 Zn1_2 1_555 1_555
O2_2 C1_2 1_555 1_555
O3_2 Zn1_2 1_555 1_555
H8_2 O3_2 1_555 1_555
Zn3_2 O2_2 1_555 1_555
N5_2 Zn1_2 1_555 1_555
O4_2 Zn1_2 1_555 1_555
C1_2 O1_2 1_555 1_555
C8 H5 1_555 1_555
Zn3_2 N4 1_555 1_555
C8 N4 1_555 1_555
Zn3 N1_3 1_555 1_555
C1_3 C2_3 1_555 1_555
C2_3 H1_3 1_555 1_555
C3_3 C2_3 1_555 1_555
C4_2 C5_2 1_555 1_555
C8_2 H5_2 1_555 1_555
C9_2 C5_2 1_555 1_555
H6_2 C9_2 1_555 1_555
N1_3 C3_3 1_555 1_555
N2_2 C4_2 1_555 1_555
O1_3 Zn3 1_555 1_555
O4_2 C1_3 1_555 1_555
O3_3 Zn3 1_555 1_555
H8_3 O3_3 1_555 1_555
H9_2 O3_3 1_555 1_555
N5_3 Zn3 1_555 1_555
C1_3 O1_3 1_555 1_555
C8_2 C9_2 1_555 1_555
N1_3 N2_2 1_555 1_555
C4_3 C5_3 1_555 1_555
C5_3 C6_3 1_555 1_555
C6_3 H3_3 1_555 1_555
C7_3 C6_3 1_555 1_555
H4_4 C7_3 1_555 1_555
C8_3 H5_3 1_555 1_555
C9_3 C5_3 1_555 1_555
H6_3 C9_3 1_555 1_555
N2_3 C4_3 1_555 1_555
N5_3 C7_3 1_555 1_555
C8_3 C9_3 1_555 1_555
C8_3 N5_3 1_555 1_555
Zn3_2 N1_4 1_555 1_555
C1_4 C2_4 1_555 1_555
C2_4 H1_4 1_555 1_555
C3_4 C2_4 1_555 1_555
N1_4 C3_4 1_555 1_555
O1_4 Zn3_2 1_555 1_555
O4 C1_4 1_555 1_555
O3_4 Zn3_2 1_555 1_555
H8_4 O3_4 1_555 1_555
C1_4 O1_4 1_555 1_555
C8_4 H5_4 1_555 1_555
Zn2 N4_2 1_555 1_555
C8_4 N4_2 1_555 1_555
Zn1_3 N1_5 1_555 1_555
C1_5 C2_5 1_555 1_555
C2_5 H1_5 1_555 1_555
C3_5 C2_5 1_555 1_555
C4_4 C5_4 1_555 1_555
C8_5 H5_5 1_555 1_555
C9_4 C5_4 1_555 1_555
H6_4 C9_4 1_555 1_555
N1_5 C3_5 1_555 1_555
N2_4 C4_4 1_555 1_555
O1_5 Zn1_3 1_555 1_555
O2_3 C1_5 1_555 1_555
O3_5 Zn1_3 1_555 1_555
H8_5 O3_5 1_555 1_555
H9_4 O3_5 1_555 1_555
Zn3_3 O2_3 1_555 1_555
N5_4 Zn1_3 1_555 1_555
O4_3 Zn1_3 1_555 1_555
C1_5 O1_5 1_555 1_555
C8_5 C9_4 1_555 1_555
N1_5 N2_4 1_555 1_555
C4_5 C5_5 1_555 1_555
C5_5 C6_4 1_555 1_555
C6_4 H3_4 1_555 1_555
C7_4 C6_4 1_555 1_555
H4_6 C7_4 1_555 1_555
C8_6 H5_6 1_555 1_555
C9_5 C5_5 1_555 1_555
H6_5 C9_5 1_555 1_555
N2_5 C4_5 1_555 1_555
N5_4 C7_4 1_555 1_555
C8_6 C9_5 1_555 1_555
C8_6 N5_4 1_555 1_555
Zn2 N1_6 1_555 1_555
C1_6 C2_6 1_555 1_555
C2_6 H1_6 1_555 1_555
C3_6 C2_6 1_555 1_555
N1_6 C3_6 1_555 1_555
O1_6 Zn2 1_555 1_555
O2_4 C1_6 1_555 1_555
O3_6 Zn2 1_555 1_555
H8_6 O3_6 1_555 1_555
Zn3_4 O2_4 1_555 1_555
O4_4 Zn2 1_555 1_555
C1_6 O1_6 1_555 1_555
Zn3_4 N1_7 1_555 1_555
C1_7 C2_7 1_555 1_555
C2_7 H1_7 1_555 1_555
H2_4 C2_7 1_555 1_555
C3_7 C2_7 1_555 1_555
C4_6 C5_6 1_555 1_555
C5_6 C6_5 1_555 1_555
C6_5 H3_5 1_555 1_555
C7_5 C6_5 1_555 1_555
C9_6 C5_6 1_555 1_555
H6_6 C9_6 1_555 1_555
N1_7 C3_7 1_555 1_555
N2_6 C4_6 1_555 1_555
N3_4 C3_7 1_555 1_555
H7_4 N3_4 1_555 1_555
O1_7 Zn3_4 1_555 1_555
O4_3 C1_7 1_555 1_555
O3_7 Zn3_4 1_555 1_555
H8_7 O3_7 1_555 1_555
H9_6 O3_7 1_555 1_555
N5_5 Zn3_4 1_555 1_555
C1_7 O1_7 1_555 1_555
C4_6 N3_4 1_555 1_555
N1_7 N2_6 1_555 1_555
C6_6 H3_6 1_555 1_555
C7_6 C6_6 1_555 1_555
H4_7 C7_6 1_555 1_555
H7_5 N3_5 1_555 1_555
N5_5 C7_6 1_555 1_555
Zn3_3 N1_8 1_555 1_555
C1_8 C2_8 1_555 1_555
C2_8 H1_8 1_555 1_555
H2_6 C2_8 1_555 1_555
C3_8 C2_8 1_555 1_555
N1_8 C3_8 1_555 1_555
N3_6 C3_8 1_555 1_555
H7_6 N3_6 1_555 1_555
O1_8 Zn3_3 1_555 1_555
O4_4 C1_8 1_555 1_555
O3_8 Zn3_3 1_555 1_555
H8_8 O3_8 1_555 1_555
N5_6 Zn3_3 1_555 1_555
C1_8 O1_8 1_555 1_555
C8_7 H5_7 1_555 1_555
C6_7 H3_7 1_555 1_555
C7_7 C6_7 1_555 1_555
C4_7 C5_7 1_555 1_555
C9_7 C5_7 1_555 1_555
H6_7 C9_7 1_555 1_555
N2_7 C4_7 1_555 1_555
H7_7 N3_7 1_555 1_555
H7_8 N3_8 1_555 1_555
C4_8 C5_8 1_555 1_555
C9_8 C5_8 1_555 1_555
H6_8 C9_8 1_555 1_555
N2_8 C4_8 1_555 1_555
C6_8 H3_8 1_555 1_555
C7_8 C6_8 1_555 1_555
C8_8 H5_8 1_555 1_555
Cl1 O5 1_555 1_555
Cl1_2 O5_2 1_555 1_555
O6_2 Cl1_2 1_555 1_555
O7_2 Cl1_2 1_555 1_555
O8_2 Cl1_2 1_555 1_555
Cl1_3 O5_3 1_555 1_555
O6_3 Cl1_3 1_555 1_555
O7_3 Cl1_3 1_555 1_555
Cl1_4 O5_4 1_555 1_555
Cl1_5 O5_5 1_555 1_555
Cl1_6 O5_6 1_555 1_555
O6_6 Cl1_6 1_555 1_555
O7_6 Cl1_6 1_555 1_555
O8_6 Cl1_6 1_555 1_555
Cl1_7 O5_7 1_555 1_555
O6_7 Cl1_7 1_555 1_555
O7_7 Cl1_7 1_555 1_555
Cl1_8 O5_8 1_555 1_555

#END
