
###############################################################################
#
# This file contains modified crystal structure data generated from the
# MOF subset of the Cambridge Structural Database (CSD) v543 
# hosted by the Cambridge Crystallographic Data Centre (CCDC).
#
# This work is licensed under the Creative Commons
# Attribution-NonCommercial-ShareAlike 4.0 International License.
# To view a copy of this license, visit
# http://creativecommons.org/licenses/by-nc-sa/4.0/
# or send a letter to
# Creative Commons, PO Box 1866, Mountain View, CA 94042, USA.
#
# CIF created using the CSD Python API on 29 September 2022
# The structure has been converted into the P1 space group
# The structure has a 3D framework
# The original CSD entry LADQOZ is in the triclinic crystal system
# The framework has been calculated to contain at least 10.0% void space
# The void calculation uses a probe of radius 1.32A, grid spacing 0.4
# H atom positions have been added when not included in the experimental data
#
###############################################################################

data_LADQOZ
_chemical_formula_moiety         '(C110 H102 N2 O32 Sm4)n'
_symmetry_cell_setting           triclinic
_symmetry_space_group_name_H-M   'P 1'
_symmetry_Int_Tables_number      1
_space_group_name_Hall           'P 1'
loop_
_symmetry_equiv_pos_site_id
_symmetry_equiv_pos_as_xyz
1 x,y,z
_cell_length_a                   11.4087(8)
_cell_length_b                   13.6584(8)
_cell_length_c                   24.0230(12)
_cell_angle_alpha                93.171(4)
_cell_angle_beta                 103.627(5)
_cell_angle_gamma                112.671(6)
_cell_volume                     3312.04
loop_
_atom_site_label
_atom_site_type_symbol
_atom_site_fract_x
_atom_site_fract_y
_atom_site_fract_z
C11 C 0.5199(13) 0.0031(10) 0.7022(6)
C12 C 0.6110(19) 0.0843(12) 0.8088(6)
H4 H 0.3480 0.0078 0.7599
C14 C 0.4922(13) 0.0796(10) 0.6721(6)
H7 H 0.5801 0.1406 0.8055
H8 H 0.6168 0.0654 0.8473
H9 H 0.6961 0.1087 0.8019
C15 C 0.5325(14) 0.0061(11) 0.5887(6)
C16 C 0.4968(13) 0.0795(11) 0.6155(6)
H11 H 0.4709 0.1299 0.6901
H12 H 0.5353 0.0069 0.5504
C17 C 0.4636(13) 0.1621(11) 0.5819(6)
O5 O 0.4561(11) 0.1550(8) 0.5289(4)
O6 O 0.4396(10) 0.2305(7) 0.6078(4)
Sm2 Sm 0.37573(6) 0.29807(5) 0.51771(3)
O7 O 0.1579(10) 0.1480(9) 0.4851(4)
O8 O 0.2682(9) 0.1951(7) 0.4212(4)
C18 C 0.1641(13) 0.1365(10) 0.4341(6)
C19 C 0.0522(15) 0.0524(11) 0.3874(6)
C20 C 0.0619(13) 0.0537(11) 0.3301(6)
H13 H 0.1353 0.1031 0.3213
H18 H 0.0312 0.1196 0.2096
O11 O 0.4528(10) 0.5419(8) 0.4236(4)
O12 O 0.3173(9) 0.4180(7) 0.4627(4)
C35 C 0.3414(14) 0.4707(10) 0.4216(6)
C36 C 0.2297(13) 0.4477(10) 0.3690(5)
C37 C 0.1133(16) 0.3558(11) 0.3580(6)
C38 C 0.2426(13) 0.5213(11) 0.3301(6)
C39 C 0.0081(13) 0.3377(11) 0.3105(6)
H25 H 0.1061 0.3056 0.3831
C40 C 0.1400(14) 0.5058(11) 0.2839(6)
H26 H 0.3222 0.5811 0.3362
C41 C 0.0207(13) 0.4142(11) 0.2734(5)
C42 C 0.1261(14) 0.5762(12) 0.2383(6)
C44 C 0.2277(15) 0.5883(17) 0.2030(8)
C45 C 0.1462(18) 0.6873(13) 0.2656(8)
H28 H 0.2198 0.5187 0.1879
H29 H 0.3147 0.6283 0.2283
H30 H 0.2119 0.6261 0.1711
H31 H 0.0862 0.6800 0.2888
H32 H 0.2347 0.7250 0.2898
H33 H 0.1296 0.7269 0.2347
O15 O 0.2587(11) 0.3505(9) 0.5733(5)
C52 C 0.213(2) 0.4157(15) 0.5851(10)
N1 N 0.249(3) 0.4739(18) 0.6328(10)
C53 C 0.115(2) 0.439(2) 0.5384(13)
C54 C 0.361(4) 0.452(3) 0.6773(12)
C55 C 0.206(5) 0.555(3) 0.6509(15)
H37 H 0.1172 0.5097 0.5463
H38 H 0.0304 0.3861 0.5382
H39 H 0.1301 0.4297 0.5009
H40 H 0.4251 0.4458 0.6593
H41 H 0.4019 0.5136 0.7074
H42 H 0.3242 0.3883 0.6941
H43 H 0.2451 0.6211 0.6366
H44 H 0.1121 0.5268 0.6356
H45 H 0.2291 0.5683 0.6928
O16 O 0.5423(10) 0.3567(8) 0.4651(5)
Sm7 Sm 0.62427(6) 0.70193(5) 0.48229(3)
O21 O 0.5472(10) 0.4581(8) 0.5764(4)
H50 H 0.51992 0.299676 0.432017
H51 H 0.544703 0.423654 0.450231
C11_2 C 0.4801(13) 0.9969(10) 0.2978(6)
C12_2 C 0.3890(19) 0.9157(12) 0.1912(6)
H4_2 H 0.6520 0.9922 0.2401
C14_2 C 0.5078(13) 0.9204(10) 0.3279(6)
H7_2 H 0.4199 0.8594 0.1945
H8_2 H 0.3832 0.9346 0.1527
H9_2 H 0.3039 0.8913 0.1981
C15_2 C 0.4675(14) 0.9939(11) 0.4113(6)
C16_2 C 0.5032(13) 0.9205(11) 0.3845(6)
H11_2 H 0.5291 0.8701 0.3099
H12_2 H 0.4647 0.9931 0.4496
C17_2 C 0.5364(13) 0.8379(11) 0.4181(6)
O5_2 O 0.5439(11) 0.8450(8) 0.4711(4)
O6_2 O 0.5604(10) 0.7695(7) 0.3922(4)
O7_2 O 0.8421(10) 0.8520(9) 0.5149(4)
O8_2 O 0.7318(9) 0.8049(7) 0.5788(4)
C18_2 C 0.8359(13) 0.8635(10) 0.5659(6)
C19_2 C 0.9478(15) 0.9476(11) 0.6126(6)
C20_2 C 0.9381(13) 0.9463(11) 0.6699(6)
H13_2 H 0.8647 0.8969 0.6787
H18_2 H 0.9688 0.8804 0.7904
O12_2 O 0.6827(9) 0.5820(7) 0.5373(4)
C35_2 C 0.6586(14) 0.5293(10) 0.5784(6)
C36_2 C 0.7703(13) 0.5523(10) 0.6310(5)
C37_2 C 0.8867(16) 0.6442(11) 0.6420(6)
C38_2 C 0.7574(13) 0.4787(11) 0.6699(6)
C39_2 C 0.9919(13) 0.6623(11) 0.6895(6)
H25_2 H 0.8939 0.6944 0.6169
C40_2 C 0.8600(14) 0.4942(11) 0.7161(6)
H26_2 H 0.6778 0.4189 0.6638
C41_2 C 0.9793(13) 0.5858(11) 0.7266(5)
C42_2 C 0.8739(14) 0.4238(12) 0.7617(6)
C44_2 C 0.7723(15) 0.4117(17) 0.7970(8)
C45_2 C 0.8538(18) 0.3127(13) 0.7344(8)
H28_2 H 0.7802 0.4813 0.8121
H29_2 H 0.6853 0.3717 0.7717
H30_2 H 0.7881 0.3739 0.8289
H31_2 H 0.9138 0.3200 0.7112
H32_2 H 0.7653 0.2750 0.7102
H33_2 H 0.8704 0.2731 0.7653
O15_2 O 0.7413(11) 0.6495(9) 0.4267(5)
C52_2 C 0.787(2) 0.5843(15) 0.4149(10)
N1_2 N 0.751(3) 0.5261(18) 0.3672(10)
C53_2 C 0.885(2) 0.561(2) 0.4616(13)
C54_2 C 0.639(4) 0.548(3) 0.3227(12)
C55_2 C 0.794(5) 0.445(3) 0.3491(15)
H37_2 H 0.8828 0.4903 0.4537
H38_2 H 0.9696 0.6139 0.4618
H39_2 H 0.8699 0.5703 0.4991
H40_2 H 0.5749 0.5542 0.3407
H41_2 H 0.5981 0.4864 0.2926
H42_2 H 0.6758 0.6117 0.3059
H43_2 H 0.7549 0.3789 0.3634
H44_2 H 0.8879 0.4732 0.3644
H45_2 H 0.7709 0.4317 0.3072
O16_2 O 0.4577(10) 0.6433(8) 0.5349(5)
H50_2 H 0.48008 0.700324 0.567983
H51_2 H 0.455297 0.576346 0.549769
O17 O 0.6041(12) 0.6896(8) 0.0350(4)
O19 O 0.7726(11) 0.5647(10) 0.0481(5)
H49 H 0.909666 0.742646 0.0232107
C26 C 0.9460(18) 0.0615(14) 0.1953(8)
H16 H 0.9248 0.0447 0.1535
H17 H 0.8817 0.0824 0.2056
O10 O 0.5843(11) 0.4683(9) 0.0654(5)
H27 H 0.9303 0.2758 0.3033
C43 C 0.9238(13) 0.4208(11) 0.2226(6)
C46 C 0.9857(14) 0.5141(12) 0.2016(6)
C47 C 0.7890(14) 0.3526(12) 0.1971(6)
C48 C 0.9146(14) 0.5409(12) 0.1541(6)
C49 C 0.7215(14) 0.3822(12) 0.1505(6)
H34 H 0.7475 0.2902 0.2113
C50 C 0.7835(14) 0.4749(12) 0.1295(6)
H35 H 0.9553 0.6027 0.1392
H36 H 0.6326 0.3391 0.1328
C51 C 0.7070(15) 0.5044(12) 0.0771(6)
Sm6 Sm 0.35302(7) 0.40226(5) 0.03794(3)
O4 O 0.4335(11) 0.5900(8) 0.0659(5)
C21 C 0.9450(15) 0.9793(12) 0.4008(6)
C22 C 0.9561(14) 0.9772(11) 0.2872(6)
C23 C 0.8414(13) 0.9028(11) 0.3566(5)
H14 H 0.9413 0.9806 0.4391
C24 C 0.9427(15) 0.9606(12) 0.2218(6)
C25 C 0.8478(14) 0.9025(11) 0.3003(6)
H15 H 0.7686 0.8523 0.3653
C27 C 0.8075(14) 0.8663(11) 0.1999(6)
C29 C 0.7558(15) 0.8333(11) 0.2462(6)
C30 C 0.7418(14) 0.8127(11) 0.1442(6)
C31 C 0.6317(15) 0.7484(12) 0.2360(6)
H22 H 0.7786 0.8337 0.1139
C32 C 0.6179(14) 0.7255(11) 0.1338(6)
C33 C 0.5646(16) 0.6948(12) 0.1792(6)
H23 H 0.5945 0.7281 0.2664
C34 C 0.5481(17) 0.6648(11) 0.0735(7)
H24 H 0.4825 0.6374 0.1718
O1 O 0.3630(12) 0.3893(9) 0.1424(5)
O3 O 0.3732(11) 0.2582(8) 0.0882(4)
C1 C 0.3744(14) 0.3003(11) 0.1369(7)
C2 C 0.3866(15) 0.2444(11) 0.1885(6)
C3 C 0.4233(13) 0.1574(11) 0.1845(6)
C4 C 0.3691(15) 0.2761(11) 0.2393(7)
H1 H 0.4350 0.1344 0.1499
C5 C 0.4417(13) 0.1069(10) 0.2309(6)
C6 C 0.3835(15) 0.2247(11) 0.2874(6)
H2 H 0.3467 0.3345 0.2422
C7 C 0.4201(14) 0.1392(10) 0.2825(6)
C8 C 0.4840(13) 0.0137(10) 0.2369(6)
H3 H 0.3691 0.2468 0.3215
C9 C 0.4408(13) 0.0685(10) 0.3244(6)
C10 C 0.6235(16) 0.0487(14) 0.2314(7)
C13 C 0.4364(14) 0.0672(12) 0.3810(6)
H5 H 0.6248 0.0615 0.1922
H6 H 0.6814 0.1132 0.2585
H10 H 0.4125 0.1159 0.3988
C28 C 0.9484(18) 0.0686(17) 0.7904(8)
H19 H 0.9438 0.1269 0.7703
H20 H 0.9665 0.0897 0.8317
H21 H 0.8661 0.0071 0.7767
O13 O 0.133(3) 0.275(2) 0.0193(12)
O14 O 0.143(4) 0.411(3) 0.0593(16)
H46 H 0.0938609 0.344049 0.0730889
H47 H 0.0852441 0.418389 0.0232604
H48 H 0.132187 0.208707 0.0345535
Sm1 Sm 0.64698(7) 0.59774(5) 0.96206(3)
O1_2 O 0.6370(12) 0.6107(9) 0.8576(5)
O3_2 O 0.6268(11) 0.7418(8) 0.9118(4)
C1_2 C 0.6256(14) 0.6997(11) 0.8631(7)
C2_2 C 0.6134(15) 0.7556(11) 0.8115(6)
C3_2 C 0.5767(13) 0.8426(11) 0.8155(6)
C4_2 C 0.6309(15) 0.7239(11) 0.7607(7)
H1_2 H 0.5650 0.8656 0.8501
C5_2 C 0.5583(13) 0.8931(10) 0.7691(6)
C6_2 C 0.6165(15) 0.7753(11) 0.7126(6)
H2_2 H 0.6533 0.6655 0.7578
C7_2 C 0.5799(14) 0.8608(10) 0.7175(6)
C8_2 C 0.5160(13) 0.9863(10) 0.7631(6)
H3_2 H 0.6309 0.7532 0.6785
C9_2 C 0.5592(13) 0.9315(10) 0.6756(6)
C10_2 C 0.3765(16) 0.9513(14) 0.7686(7)
C13_2 C 0.5636(14) 0.9328(12) 0.6190(6)
H5_2 H 0.3752 0.9385 0.8078
H6_2 H 0.3186 0.8868 0.7415
H10_2 H 0.5875 0.8841 0.6012
C28_2 C 0.0516(18) 0.9314(17) 0.2096(8)
H19_2 H 0.0562 0.8731 0.2297
H20_2 H 0.0335 0.9103 0.1683
H21_2 H 0.1339 0.9929 0.2233
O13_2 O 0.867(3) 0.725(2) 0.9807(12)
O14_2 O 0.857(4) 0.589(3) 0.9407(16)
O18 O 0.5665(11) 0.4100(8) 0.9341(5)
O20 O 0.4157(11) 0.5317(9) 0.9346(5)
H46_2 H 0.906139 0.655951 0.926911
H47_2 H 0.914756 0.581611 0.97674
H48_2 H 0.867813 0.791293 0.965446
O2 O 0.3959(12) 0.3104(8) 0.9650(4)
C21_2 C 0.0550(15) 0.0207(12) 0.5992(6)
C22_2 C 0.0439(14) 0.0228(11) 0.7128(6)
C23_2 C 0.1586(13) 0.0972(11) 0.6434(5)
H14_2 H 0.0587 0.0194 0.5609
C24_2 C 0.0573(15) 0.0394(12) 0.7782(6)
C25_2 C 0.1522(14) 0.0975(11) 0.6997(6)
H15_2 H 0.2314 0.1477 0.6347
C27_2 C 0.1925(14) 0.1337(11) 0.8001(6)
C29_2 C 0.2442(15) 0.1667(11) 0.7538(6)
C30_2 C 0.2582(14) 0.1873(11) 0.8558(6)
C31_2 C 0.3683(15) 0.2516(12) 0.7640(6)
H22_2 H 0.2214 0.1663 0.8861
C32_2 C 0.3821(14) 0.2745(11) 0.8662(6)
C33_2 C 0.4354(16) 0.3052(12) 0.8208(6)
H23_2 H 0.4055 0.2719 0.7336
C34_2 C 0.4519(17) 0.3352(11) 0.9265(7)
H24_2 H 0.5175 0.3626 0.8282
C26_2 C 0.0540(18) 0.9385(14) 0.8047(8)
H16_2 H 0.0752 0.9553 0.8465
H17_2 H 0.1183 0.9176 0.7944
O9 O 0.2274(11) 0.4353(10) 0.9519(5)
H27_2 H 0.0697 0.7242 0.6967
C43_2 C 0.0762(13) 0.5792(11) 0.7774(6)
C46_2 C 0.0143(14) 0.4859(12) 0.7984(6)
C47_2 C 0.2110(14) 0.6474(12) 0.8029(6)
C48_2 C 0.0854(14) 0.4591(12) 0.8459(6)
C49_2 C 0.2785(14) 0.6178(12) 0.8495(6)
H34_2 H 0.2525 0.7098 0.7887
C50_2 C 0.2165(14) 0.5251(12) 0.8705(6)
H35_2 H 0.0447 0.3973 0.8608
H36_2 H 0.3674 0.6609 0.8672
C51_2 C 0.2930(15) 0.4956(12) 0.9229(6)
H49_2 H 0.0903336 0.257354 0.976789
loop_
_geom_bond_atom_site_label_1
_geom_bond_atom_site_label_2
_geom_bond_site_symmetry_1
_geom_bond_site_symmetry_2
C14 C11 1_555 1_555
H7 C12 1_555 1_555
H8 C12 1_555 1_555
H9 C12 1_555 1_555
C16 C14 1_555 1_555
H11 C14 1_555 1_555
H12 C15 1_555 1_555
C17 C16 1_555 1_555
O5 C17 1_555 1_555
O6 C17 1_555 1_555
Sm2 O5 1_555 1_555
O7 Sm2 1_555 1_555
O8 Sm2 1_555 1_555
C18 O7 1_555 1_555
C19 C18 1_555 1_555
C20 C19 1_555 1_555
H13 C20 1_555 1_555
O11 C35 1_555 1_555
O12 Sm2 1_555 1_555
C35 O12 1_555 1_555
C36 C35 1_555 1_555
C37 C36 1_555 1_555
C38 C36 1_555 1_555
C39 C37 1_555 1_555
H25 C37 1_555 1_555
C40 C38 1_555 1_555
H26 C38 1_555 1_555
C41 C39 1_555 1_555
C42 C40 1_555 1_555
C44 C42 1_555 1_555
C45 C42 1_555 1_555
H28 C44 1_555 1_555
H29 C44 1_555 1_555
H30 C44 1_555 1_555
H31 C45 1_555 1_555
H32 C45 1_555 1_555
H33 C45 1_555 1_555
O15 Sm2 1_555 1_555
C52 O15 1_555 1_555
N1 C52 1_555 1_555
C53 C52 1_555 1_555
C54 N1 1_555 1_555
C55 N1 1_555 1_555
H37 C53 1_555 1_555
H38 C53 1_555 1_555
H39 C53 1_555 1_555
H40 C54 1_555 1_555
H41 C54 1_555 1_555
H42 C54 1_555 1_555
H43 C55 1_555 1_555
H44 C55 1_555 1_555
H45 C55 1_555 1_555
O16 Sm2 1_555 1_555
Sm7 O11 1_555 1_555
O21 Sm2 1_555 1_555
C15 C16 1_555 1_555
O6 Sm2 1_555 1_555
O8 C18 1_555 1_555
C40 C41 1_555 1_555
O16 H50 1_555 1_555
O16 H51 1_555 1_555
C14_2 C11_2 1_555 1_555
H7_2 C12_2 1_555 1_555
H8_2 C12_2 1_555 1_555
H9_2 C12_2 1_555 1_555
C16_2 C14_2 1_555 1_555
H11_2 C14_2 1_555 1_555
H12_2 C15_2 1_555 1_555
C17_2 C16_2 1_555 1_555
O5_2 C17_2 1_555 1_555
O6_2 C17_2 1_555 1_555
Sm7 O5_2 1_555 1_555
O7_2 Sm7 1_555 1_555
O8_2 Sm7 1_555 1_555
C18_2 O7_2 1_555 1_555
C19_2 C18_2 1_555 1_555
C20_2 C19_2 1_555 1_555
H13_2 C20_2 1_555 1_555
O21 C35_2 1_555 1_555
O12_2 Sm7 1_555 1_555
C35_2 O12_2 1_555 1_555
C36_2 C35_2 1_555 1_555
C37_2 C36_2 1_555 1_555
C38_2 C36_2 1_555 1_555
C39_2 C37_2 1_555 1_555
H25_2 C37_2 1_555 1_555
C40_2 C38_2 1_555 1_555
H26_2 C38_2 1_555 1_555
C41_2 C39_2 1_555 1_555
C42_2 C40_2 1_555 1_555
C44_2 C42_2 1_555 1_555
C45_2 C42_2 1_555 1_555
H28_2 C44_2 1_555 1_555
H29_2 C44_2 1_555 1_555
H30_2 C44_2 1_555 1_555
H31_2 C45_2 1_555 1_555
H32_2 C45_2 1_555 1_555
H33_2 C45_2 1_555 1_555
O15_2 Sm7 1_555 1_555
C52_2 O15_2 1_555 1_555
N1_2 C52_2 1_555 1_555
C53_2 C52_2 1_555 1_555
C54_2 N1_2 1_555 1_555
C55_2 N1_2 1_555 1_555
H37_2 C53_2 1_555 1_555
H38_2 C53_2 1_555 1_555
H39_2 C53_2 1_555 1_555
H40_2 C54_2 1_555 1_555
H41_2 C54_2 1_555 1_555
H42_2 C54_2 1_555 1_555
H43_2 C55_2 1_555 1_555
H44_2 C55_2 1_555 1_555
H45_2 C55_2 1_555 1_555
O16_2 Sm7 1_555 1_555
C15_2 C16_2 1_555 1_555
O6_2 Sm7 1_555 1_555
O8_2 C18_2 1_555 1_555
C40_2 C41_2 1_555 1_555
O16_2 H50_2 1_555 1_555
O16_2 H51_2 1_555 1_555
H16 C26 1_555 1_555
H17 C26 1_555 1_555
O19 C51 1_555 1_555
O10 C51 1_555 1_555
C47 C43 1_555 1_555
C48 C46 1_555 1_555
C49 C47 1_555 1_555
H34 C47 1_555 1_555
C50 C48 1_555 1_555
H35 C48 1_555 1_555
H36 C49 1_555 1_555
C51 C50 1_555 1_555
Sm6 O10 1_555 1_555
C43 C46 1_555 1_555
C49 C50 1_555 1_555
O17 C34 1_555 1_555
O4 C34 1_555 1_555
C23 C21 1_555 1_555
H14 C21 1_555 1_555
C24 C22 1_555 1_555
C25 C22 1_555 1_555
H15 C23 1_555 1_555
C27 C24 1_555 1_555
C29 C25 1_555 1_555
C30 C27 1_555 1_555
C31 C29 1_555 1_555
H22 C30 1_555 1_555
C32 C30 1_555 1_555
C33 C31 1_555 1_555
H23 C31 1_555 1_555
C34 C32 1_555 1_555
H24 C33 1_555 1_555
Sm6 O4 1_555 1_555
C23 C25 1_555 1_555
C27 C29 1_555 1_555
C32 C33 1_555 1_555
Sm6 O1 1_555 1_555
O1 C1 1_555 1_555
O3 Sm6 1_555 1_555
C1 O3 1_555 1_555
C2 C1 1_555 1_555
C3 C2 1_555 1_555
C4 C2 1_555 1_555
H1 C3 1_555 1_555
C5 C3 1_555 1_555
C6 C4 1_555 1_555
H2 C4 1_555 1_555
C7 C5 1_555 1_555
C8 C5 1_555 1_555
H3 C6 1_555 1_555
C9 C7 1_555 1_555
C10 C8 1_555 1_555
C13 C9 1_555 1_555
H5 C10 1_555 1_555
H6 C10 1_555 1_555
H10 C13 1_555 1_555
H19 C28 1_555 1_555
H20 C28 1_555 1_555
H21 C28 1_555 1_555
O13 Sm6 1_555 1_555
O14 Sm6 1_555 1_555
C6 C7 1_555 1_555
O14 H46 1_555 1_555
O14 H47 1_555 1_555
O13 H48 1_555 1_555
Sm1 O1_2 1_555 1_555
O1_2 C1_2 1_555 1_555
O3_2 Sm1 1_555 1_555
C1_2 O3_2 1_555 1_555
C2_2 C1_2 1_555 1_555
C3_2 C2_2 1_555 1_555
C4_2 C2_2 1_555 1_555
H1_2 C3_2 1_555 1_555
C5_2 C3_2 1_555 1_555
C6_2 C4_2 1_555 1_555
H2_2 C4_2 1_555 1_555
C7_2 C5_2 1_555 1_555
C8_2 C5_2 1_555 1_555
H3_2 C6_2 1_555 1_555
C9_2 C7_2 1_555 1_555
C10_2 C8_2 1_555 1_555
C13_2 C9_2 1_555 1_555
H5_2 C10_2 1_555 1_555
H6_2 C10_2 1_555 1_555
H10_2 C13_2 1_555 1_555
H19_2 C28_2 1_555 1_555
H20_2 C28_2 1_555 1_555
H21_2 C28_2 1_555 1_555
O13_2 Sm1 1_555 1_555
O14_2 Sm1 1_555 1_555
O18 Sm1 1_555 1_555
O20 Sm1 1_555 1_555
C6_2 C7_2 1_555 1_555
O14_2 H46_2 1_555 1_555
O14_2 H47_2 1_555 1_555
O13_2 H48_2 1_555 1_555
O2 C34_2 1_555 1_555
O18 C34_2 1_555 1_555
C23_2 C21_2 1_555 1_555
H14_2 C21_2 1_555 1_555
C24_2 C22_2 1_555 1_555
C25_2 C22_2 1_555 1_555
H15_2 C23_2 1_555 1_555
C27_2 C24_2 1_555 1_555
C29_2 C25_2 1_555 1_555
C30_2 C27_2 1_555 1_555
C31_2 C29_2 1_555 1_555
H22_2 C30_2 1_555 1_555
C32_2 C30_2 1_555 1_555
C33_2 C31_2 1_555 1_555
H23_2 C31_2 1_555 1_555
C34_2 C32_2 1_555 1_555
H24_2 C33_2 1_555 1_555
C23_2 C25_2 1_555 1_555
C27_2 C29_2 1_555 1_555
C32_2 C33_2 1_555 1_555
H16_2 C26_2 1_555 1_555
H17_2 C26_2 1_555 1_555
O9 C51_2 1_555 1_555
O20 C51_2 1_555 1_555
C47_2 C43_2 1_555 1_555
C48_2 C46_2 1_555 1_555
C49_2 C47_2 1_555 1_555
H34_2 C47_2 1_555 1_555
C50_2 C48_2 1_555 1_555
H35_2 C48_2 1_555 1_555
H36_2 C49_2 1_555 1_555
C51_2 C50_2 1_555 1_555
C43_2 C46_2 1_555 1_555
C49_2 C50_2 1_555 1_555

#END
