
###############################################################################
#
# This file contains modified crystal structure data generated from the
# MOF subset of the Cambridge Structural Database (CSD) v543 
# hosted by the Cambridge Crystallographic Data Centre (CCDC).
#
# This work is licensed under the Creative Commons
# Attribution-NonCommercial-ShareAlike 4.0 International License.
# To view a copy of this license, visit
# http://creativecommons.org/licenses/by-nc-sa/4.0/
# or send a letter to
# Creative Commons, PO Box 1866, Mountain View, CA 94042, USA.
#
# CIF created using the CSD Python API on 29 September 2022
# The structure has been converted into the P1 space group
# The structure has a 3D framework
# The original CSD entry LAFJOV is in the monoclinic crystal system
# The framework has been calculated to contain at least 10.0% void space
# The void calculation uses a probe of radius 1.32A, grid spacing 0.4
#
###############################################################################

data_LAFJOV
_chemical_formula_moiety         '(C68 H52 N12 O20 Pb4)n'
_symmetry_cell_setting           triclinic
_symmetry_space_group_name_H-M   'P 1'
_symmetry_Int_Tables_number      1
_space_group_name_Hall           'P 1'
loop_
_symmetry_equiv_pos_site_id
_symmetry_equiv_pos_as_xyz
1 x,y,z
_cell_length_a                   6.5699(14)
_cell_length_b                   23.504(5)
_cell_length_c                   13.622(3)
_cell_angle_alpha                90
_cell_angle_beta                 98.525(4)
_cell_angle_gamma                90
_cell_volume                     2080.25
loop_
_atom_site_label
_atom_site_type_symbol
_atom_site_fract_x
_atom_site_fract_y
_atom_site_fract_z
C3 C 0.1673(15) 0.0830(4) 0.2574(7)
H1 H 0.247557 0.082751 0.206610
C4 C 0.2493(16) 0.1019(4) 0.3523(8)
H2 H 0.385696 0.113830 0.364169
C5 C 0.1351(17) 0.1035(4) 0.4280(7)
C8 C 0.2140(16) 0.1319(4) 0.5272(7)
C9 C 0.2907(16) 0.1919(4) 0.5104(7)
C10 C 0.1483(19) 0.2352(5) 0.4944(10)
H5 H 0.010217 0.226942 0.495524
C11 C 0.2047(19) 0.2908(5) 0.4767(9)
H6 H 0.105788 0.319407 0.467823
C12 C 0.4084(16) 0.3034(4) 0.4723(7)
C13 C 0.5517(18) 0.2607(5) 0.4863(9)
H7 H 0.688860 0.268792 0.482394
C14 C 0.4942(18) 0.2051(5) 0.5064(9)
H8 H 0.593888 0.176821 0.517204
C15 C 0.4795(17) 0.3632(4) 0.4520(8)
C16 C 0.628(2) 0.0492(5) 0.6364(8)
H9 H 0.747582 0.028139 0.635728
C17 C 0.3750(19) 0.0860(5) 0.6872(8)
H10 H 0.277065 0.098190 0.725303
N1 N 0.3685(13) 0.0971(4) 0.5892(6)
N2 N 0.5342(17) 0.0745(4) 0.5571(7)
N3 N 0.5394(16) 0.0557(4) 0.7211(7)
O3 O 0.3517(12) 0.4035(3) 0.4446(6)
O4 O 0.6657(11) 0.3696(3) 0.4419(6)
H13 H 0.096(15) 0.135(4) 0.572(6)
Pb2 Pb 0.70299(6) 0.02955(2) 0.92411(3)
Pb4 Pb 0.70299(6) 0.47045(2) 0.42411(3)
Pb3 Pb 0.29701(6) 0.97045(2) 0.07589(3)
O5 O 0.9789(11) 0.0704(3) 0.8401(5)
H12 H 0.940838 0.096055 0.797933
O7 O 0.3517(12) 0.0965(3) 0.9446(6)
O8 O 0.6657(11) 0.1304(3) 0.9419(6)
Pb1 Pb 0.29701(6) 0.52955(2) 0.57589(3)
C1 C 0.1397(17) 0.5492(4) 0.3646(8)
C2 C 0.0378(16) 0.5644(4) 0.2602(7)
C6 C 0.0638(17) 0.5823(5) 0.0883(8)
H3 H 0.141028 0.580884 0.036420
C7 C 0.1490(16) 0.5630(4) 0.1827(8)
H4 H 0.283010 0.549113 0.193006
O1 O 0.0252(11) 0.5483(3) 0.4327(5)
O2 O 0.3257(11) 0.5415(3) 0.3800(5)
O5_2 O 0.0211(11) 0.5704(3) 0.6599(5)
H12_2 H 0.059162 0.596055 0.702067
N4 N 0.4606(16) 0.5557(4) 0.7789(7)
O7_2 O 0.6483(12) 0.5965(3) 0.5554(6)
O8_2 O 0.3343(11) 0.6304(3) 0.5581(6)
C3_2 C 0.8327(15) 0.5830(4) 0.2426(7)
H1_2 H 0.752443 0.582751 0.293390
C4_2 C 0.7507(16) 0.6019(4) 0.1477(8)
H2_2 H 0.614304 0.613830 0.135831
C5_2 C 0.8649(17) 0.6035(4) 0.0720(7)
C10_2 C 0.8517(19) 0.7352(5) 0.0056(10)
H5_2 H 0.989783 0.726942 0.004476
C11_2 C 0.7953(19) 0.7908(5) 0.0233(9)
H6_2 H 0.894212 0.819407 0.032177
C12_2 C 0.5916(16) 0.8034(4) 0.0277(7)
C13_2 C 0.4483(18) 0.7607(5) 0.0137(9)
H7_2 H 0.311140 0.768792 0.017606
C15_2 C 0.5205(17) 0.8632(4) 0.0480(8)
O3_2 O 0.6483(12) 0.9035(3) 0.0554(6)
O4_2 O 0.3343(11) 0.8696(3) 0.0581(6)
H11 H 0.920952 0.578685 0.614897
O6 O 0.9748(11) 0.4517(3) 0.5673(5)
C8_2 C 0.7860(16) 0.6319(4) 0.9728(7)
C9_2 C 0.7093(16) 0.6919(4) 0.9896(7)
C14_2 C 0.5058(18) 0.7051(5) 0.9936(9)
H8_2 H 0.406112 0.676821 0.982796
C16_2 C 0.372(2) 0.5492(5) 0.8636(8)
H9_2 H 0.252418 0.528139 0.864272
C17_2 C 0.6250(19) 0.5860(5) 0.8128(8)
H10_2 H 0.722935 0.598190 0.774697
N1_2 N 0.6315(13) 0.5971(4) 0.9108(6)
N2_2 N 0.4658(17) 0.5745(4) 0.9429(7)
H13_2 H 0.904(15) 0.635(4) 0.928(6)
O5_3 O 0.0211(11) 0.9296(3) 0.1599(5)
H12_3 H 0.059162 0.903945 0.202067
N4_2 N 0.4606(16) 0.9443(4) 0.2789(7)
C3_3 C 0.8327(15) 0.9170(4) 0.7426(7)
H1_3 H 0.752443 0.917249 0.793390
C4_3 C 0.7507(16) 0.8981(4) 0.6477(8)
H2_3 H 0.614304 0.886170 0.635831
C5_3 C 0.8649(17) 0.8965(4) 0.5720(7)
C8_3 C 0.7860(16) 0.8681(4) 0.4728(7)
C9_3 C 0.7093(16) 0.8081(4) 0.4896(7)
C10_3 C 0.8517(19) 0.7648(5) 0.5056(10)
H5_3 H 0.989783 0.773058 0.504476
C11_3 C 0.7953(19) 0.7092(5) 0.5233(9)
H6_3 H 0.894212 0.680593 0.532177
C12_3 C 0.5916(16) 0.6966(4) 0.5277(7)
C13_3 C 0.4483(18) 0.7393(5) 0.5137(9)
H7_3 H 0.311140 0.731208 0.517606
C14_3 C 0.5058(18) 0.7949(5) 0.4936(9)
H8_3 H 0.406112 0.823179 0.482796
C15_3 C 0.5205(17) 0.6368(4) 0.5480(8)
C16_3 C 0.372(2) 0.9508(5) 0.3636(8)
H9_3 H 0.252418 0.971861 0.364272
C17_3 C 0.6250(19) 0.9140(5) 0.3128(8)
H10_3 H 0.722935 0.901810 0.274697
N1_3 N 0.6315(13) 0.9029(4) 0.4108(6)
N2_3 N 0.4658(17) 0.9255(4) 0.4429(7)
H13_3 H 0.904(15) 0.865(4) 0.428(6)
C8_4 C 0.2140(16) 0.3681(4) 0.0272(7)
C9_4 C 0.2907(16) 0.3081(4) 0.0104(7)
C14_4 C 0.4942(18) 0.2949(5) 0.0064(9)
H8_4 H 0.593888 0.323179 0.017204
C16_4 C 0.628(2) 0.4508(5) 0.1364(8)
H9_4 H 0.747582 0.471861 0.135728
C17_4 C 0.3750(19) 0.4140(5) 0.1872(8)
H10_4 H 0.277065 0.401810 0.225303
N1_4 N 0.3685(13) 0.4029(4) 0.0892(6)
N2_4 N 0.5342(17) 0.4255(4) 0.0571(7)
N3_2 N 0.5394(16) 0.4443(4) 0.2211(7)
H13_4 H 0.096(15) 0.365(4) 0.072(6)
C3_4 C 0.1673(15) 0.4170(4) 0.7574(7)
H1_4 H 0.247557 0.417249 0.706610
C4_4 C 0.2493(16) 0.3981(4) 0.8523(8)
H2_4 H 0.385696 0.386170 0.864169
C5_4 C 0.1351(17) 0.3965(4) 0.9280(7)
C10_4 C 0.1483(19) 0.2648(5) 0.9944(10)
H5_4 H 0.010217 0.273058 0.995524
C11_4 C 0.2047(19) 0.2092(5) 0.9767(9)
H6_4 H 0.105788 0.180593 0.967823
C12_4 C 0.4084(16) 0.1966(4) 0.9723(7)
C13_4 C 0.5517(18) 0.2393(5) 0.9863(9)
H7_4 H 0.688860 0.231208 0.982394
C15_4 C 0.4795(17) 0.1368(4) 0.9520(8)
H11_2 H 0.079048 0.421315 0.385103
C1_2 C 0.8603(17) 0.4508(4) 0.6354(8)
C2_2 C 0.9622(16) 0.4356(4) 0.7398(7)
C6_2 C 0.9362(17) 0.4177(5) 0.9117(8)
H3_2 H 0.858972 0.419116 0.963580
C7_2 C 0.8510(16) 0.4370(4) 0.8173(8)
H4_2 H 0.716990 0.450887 0.806994
O2_2 O 0.6743(11) 0.4585(3) 0.6200(5)
O5_4 O 0.9789(11) 0.4296(3) 0.3401(5)
H12_4 H 0.940838 0.403945 0.297933
H11_3 H 0.079048 0.078685 0.885103
O6_2 O 0.0252(11) 0.9517(3) 0.9327(5)
C1_3 C 0.1397(17) 0.9508(4) 0.8646(8)
C2_3 C 0.0378(16) 0.9356(4) 0.7602(7)
C6_3 C 0.0638(17) 0.9177(5) 0.5883(8)
H3_3 H 0.141028 0.919116 0.536420
C7_3 C 0.1490(16) 0.9370(4) 0.6827(8)
H4_3 H 0.283010 0.950887 0.693006
O2_3 O 0.3257(11) 0.9585(3) 0.8800(5)
C1_4 C 0.8603(17) 0.0492(4) 0.1354(8)
C2_4 C 0.9622(16) 0.0644(4) 0.2398(7)
C6_4 C 0.9362(17) 0.0823(5) 0.4117(8)
H3_4 H 0.858972 0.080884 0.463580
C7_4 C 0.8510(16) 0.0630(4) 0.3173(8)
H4_4 H 0.716990 0.049113 0.306994
O1_2 O 0.9748(11) 0.0483(3) 0.0673(5)
O2_4 O 0.6743(11) 0.0415(3) 0.1200(5)
H11_4 H 0.920952 0.921315 0.114897
loop_
_geom_bond_atom_site_label_1
_geom_bond_atom_site_label_2
_geom_bond_site_symmetry_1
_geom_bond_site_symmetry_2
C3 H1 1_555 1_555
C4 C3 1_555 1_555
H2 C4 1_555 1_555
C5 C4 1_555 1_555
C8 C5 1_555 1_555
C9 C8 1_555 1_555
C10 C9 1_555 1_555
H5 C10 1_555 1_555
C11 C10 1_555 1_555
H6 C11 1_555 1_555
C12 C11 1_555 1_555
C13 C12 1_555 1_555
H7 C13 1_555 1_555
C14 C9 1_555 1_555
H8 C14 1_555 1_555
C15 C12 1_555 1_555
C16 H9 1_555 1_555
C17 H10 1_555 1_555
N1 C8 1_555 1_555
N2 C16 1_555 1_555
N3 C16 1_555 1_555
O3 C15 1_555 1_555
O4 C15 1_555 1_555
H13 C8 1_555 1_555
Pb2 N3 1_555 1_555
Pb4 O3 1_555 1_555
C13 C14 1_555 1_555
C17 N1 1_555 1_555
C17 N3 1_555 1_555
N1 N2 1_555 1_555
O4 Pb4 1_555 1_555
O5 Pb2 1_555 1_555
H12 O5 1_555 1_555
O7 Pb2 1_555 1_555
O8 Pb2 1_555 1_555
Pb1 O1 1_555 1_555
C1 C2 1_555 1_555
H3 C6 1_555 1_555
C7 C2 1_555 1_555
H4 C7 1_555 1_555
O1 C1 1_555 1_555
O2 Pb1 1_555 1_555
O5_2 Pb1 1_555 1_555
H12_2 O5_2 1_555 1_555
N4 Pb1 1_555 1_555
O7_2 Pb1 1_555 1_555
O8_2 Pb1 1_555 1_555
C1 O2 1_555 1_555
C6 C7 1_555 1_555
C3_2 H1_2 1_555 1_555
C4_2 C3_2 1_555 1_555
H2_2 C4_2 1_555 1_555
C5_2 C4_2 1_555 1_555
H5_2 C10_2 1_555 1_555
C11_2 C10_2 1_555 1_555
H6_2 C11_2 1_555 1_555
C12_2 C11_2 1_555 1_555
C13_2 C12_2 1_555 1_555
H7_2 C13_2 1_555 1_555
C15_2 C12_2 1_555 1_555
O3_2 C15_2 1_555 1_555
O4_2 C15_2 1_555 1_555
Pb3 O3_2 1_555 1_555
O4_2 Pb3 1_555 1_555
Pb4 O6 1_555 1_555
C9_2 C8_2 1_555 1_555
C14_2 C9_2 1_555 1_555
H8_2 C14_2 1_555 1_555
C16_2 H9_2 1_555 1_555
C17_2 H10_2 1_555 1_555
N1_2 C8_2 1_555 1_555
N2_2 C16_2 1_555 1_555
N4 C16_2 1_555 1_555
H13_2 C8_2 1_555 1_555
C17_2 N1_2 1_555 1_555
C17_2 N4 1_555 1_555
N1_2 N2_2 1_555 1_555
O5_3 Pb3 1_555 1_555
H12_3 O5_3 1_555 1_555
N4_2 Pb3 1_555 1_555
C3_3 H1_3 1_555 1_555
C4_3 C3_3 1_555 1_555
H2_3 C4_3 1_555 1_555
C5_3 C4_3 1_555 1_555
C8_3 C5_3 1_555 1_555
C9_3 C8_3 1_555 1_555
C10_3 C9_3 1_555 1_555
H5_3 C10_3 1_555 1_555
C11_3 C10_3 1_555 1_555
H6_3 C11_3 1_555 1_555
C12_3 C11_3 1_555 1_555
C13_3 C12_3 1_555 1_555
H7_3 C13_3 1_555 1_555
C14_3 C9_3 1_555 1_555
H8_3 C14_3 1_555 1_555
C15_3 C12_3 1_555 1_555
C16_3 H9_3 1_555 1_555
C17_3 H10_3 1_555 1_555
N1_3 C8_3 1_555 1_555
N2_3 C16_3 1_555 1_555
N4_2 C16_3 1_555 1_555
O7_2 C15_3 1_555 1_555
O8_2 C15_3 1_555 1_555
H13_3 C8_3 1_555 1_555
C13_3 C14_3 1_555 1_555
C17_3 N1_3 1_555 1_555
C17_3 N4_2 1_555 1_555
N1_3 N2_3 1_555 1_555
C9_4 C8_4 1_555 1_555
C14_4 C9_4 1_555 1_555
H8_4 C14_4 1_555 1_555
C16_4 H9_4 1_555 1_555
C17_4 H10_4 1_555 1_555
N1_4 C8_4 1_555 1_555
N2_4 C16_4 1_555 1_555
N3_2 C16_4 1_555 1_555
H13_4 C8_4 1_555 1_555
Pb4 N3_2 1_555 1_555
C17_4 N1_4 1_555 1_555
C17_4 N3_2 1_555 1_555
N1_4 N2_4 1_555 1_555
C3_4 H1_4 1_555 1_555
C4_4 C3_4 1_555 1_555
H2_4 C4_4 1_555 1_555
C5_4 C4_4 1_555 1_555
H5_4 C10_4 1_555 1_555
C11_4 C10_4 1_555 1_555
H6_4 C11_4 1_555 1_555
C12_4 C11_4 1_555 1_555
C13_4 C12_4 1_555 1_555
H7_4 C13_4 1_555 1_555
C15_4 C12_4 1_555 1_555
O7 C15_4 1_555 1_555
O8 C15_4 1_555 1_555
C1_2 C2_2 1_555 1_555
H3_2 C6_2 1_555 1_555
C7_2 C2_2 1_555 1_555
H4_2 C7_2 1_555 1_555
O6 C1_2 1_555 1_555
O2_2 Pb4 1_555 1_555
O5_4 Pb4 1_555 1_555
H12_4 O5_4 1_555 1_555
C1_2 O2_2 1_555 1_555
C6_2 C7_2 1_555 1_555
C1_3 C2_3 1_555 1_555
H3_3 C6_3 1_555 1_555
C7_3 C2_3 1_555 1_555
H4_3 C7_3 1_555 1_555
O6_2 C1_3 1_555 1_555
C1_3 O2_3 1_555 1_555
C6_3 C7_3 1_555 1_555
C1_4 C2_4 1_555 1_555
H3_4 C6_4 1_555 1_555
C7_4 C2_4 1_555 1_555
H4_4 C7_4 1_555 1_555
O1_2 C1_4 1_555 1_555
C1_4 O2_4 1_555 1_555
C6_4 C7_4 1_555 1_555

#END
