
###############################################################################
#
# This file contains modified crystal structure data generated from the
# MOF subset of the Cambridge Structural Database (CSD) v543 
# hosted by the Cambridge Crystallographic Data Centre (CCDC).
#
# This work is licensed under the Creative Commons
# Attribution-NonCommercial-ShareAlike 4.0 International License.
# To view a copy of this license, visit
# http://creativecommons.org/licenses/by-nc-sa/4.0/
# or send a letter to
# Creative Commons, PO Box 1866, Mountain View, CA 94042, USA.
#
# CIF created using the CSD Python API on 29 September 2022
# The structure has been converted into the P1 space group
# The structure has a 3D framework
# The original CSD entry LAGCIH is in the trigonal crystal system
# The framework has been calculated to contain at least 10.0% void space
# The void calculation uses a probe of radius 1.32A, grid spacing 0.4
# The framework is charged, counterions have been retained in the structure
#
###############################################################################

data_LAGCIH
_chemical_formula_moiety         '(C102 H54 Ag6 Cl6 N12 O36 Zn2 4-)n'
_symmetry_cell_setting           triclinic
_symmetry_space_group_name_H-M   'P 1'
_symmetry_Int_Tables_number      1
_space_group_name_Hall           'P 1'
loop_
_symmetry_equiv_pos_site_id
_symmetry_equiv_pos_as_xyz
1 x,y,z
_cell_length_a                   15.4572(14)
_cell_length_b                   15.4572(14)
_cell_length_c                   16.483(3)
_cell_angle_alpha                90
_cell_angle_beta                 90
_cell_angle_gamma                120
_cell_volume                     3410.58
loop_
_atom_site_label
_atom_site_type_symbol
_atom_site_fract_x
_atom_site_fract_y
_atom_site_fract_z
C6 C 0.0287(4) 0.6372(4) 0.0789(3)
H3 H 0.0534 0.6474 0.1316
C8 C 0.0855(4) 0.7032(5) 0.0175(3)
H5 H 0.1487 0.7568 0.0288
C13 C 0.0199(3) 0.4443(4) 0.3343(2)
H7 H 0.0574 0.4769 0.2885
C15 C 0.0669(4) 0.4390(4) 0.4034(3)
H9 H 0.1359 0.4664 0.4040
C16 C 0.0116(3) 0.3932(3) 0.4716(2)
C17 C 0.0608(3) 0.3903(3) 0.5446(2)
N1 N 0.1017(3) 0.3917(3) 0.6021(2)
Ag4 Ag 0.13431(3) 0.40369(3) 0.731959(19)
C9 C 0.0476(3) 0.6885(4) 0.9402(3)
C10 C 0.1071(3) 0.7569(4) 0.8765(3)
N2 N 0.1519(3) 0.8085(3) 0.8259(2)
Ag5 Ag 0.26938(4) 0.86569(3) 0.731959(19)
C1 C 0.8613(3) 0.4024(3) 0.25836(19)
C2 C 0.9111(3) 0.4812(3) 0.2020(2)
H1 H 0.9730 0.5348 0.2163
C3 C 0.8713(3) 0.4828(3) 0.1245(2)
C4 C 0.9369(3) 0.5576(3) 0.0619(2)
C11 C 0.9169(3) 0.4011(3) 0.3325(2)
C12 C 0.8612(3) 0.3529(3) 0.4007(2)
H6 H 0.7919 0.3228 0.3994
C14 C 0.9086(3) 0.3495(3) 0.4708(2)
H8 H 0.8716 0.3182 0.5170
O1 O 0.77250(18) 0.33075(18) 0.25188(13)
O2 O 0.78343(18) 0.42346(19) 0.10268(13)
Zn1 Zn 0.6667 0.3333 0.17608(4)
Ag1 Ag 0.86569(3) 0.59631(3) 0.268041(19)
C18 C 0.5411(4) 0.1387(3) 0.25836(19)
C19 C 0.5976(3) 0.4589(4) 0.25836(19)
C20 C 0.5701(4) 0.0889(3) 0.2020(2)
C21 C 0.5188(3) 0.4299(4) 0.2020(2)
H10 H 0.5618 0.0270 0.2163
H11 H 0.4652 0.4382 0.2163
C22 C 0.6115(4) 0.1287(3) 0.1245(2)
C23 C 0.5172(3) 0.3885(4) 0.1245(2)
C24 C 0.6207(4) 0.0631(3) 0.0619(2)
C25 C 0.4424(3) 0.3793(4) 0.0619(2)
C29 C 0.3628(4) 0.3915(6) 0.0789(3)
H15 H 0.3526 0.4060 0.1316
C33 C 0.2968(5) 0.3823(6) 0.0175(3)
H19 H 0.2432 0.3919 0.0288
C38 C 0.4842(4) 0.0831(3) 0.3325(2)
C39 C 0.5989(3) 0.5158(4) 0.3325(2)
C40 C 0.4917(4) 0.1388(3) 0.4007(2)
C41 C 0.6471(3) 0.5083(4) 0.4007(2)
H20 H 0.5309 0.2081 0.3994
H21 H 0.6772 0.4691 0.3994
C43 C 0.5557(4) 0.5756(5) 0.3343(2)
H23 H 0.5231 0.5805 0.2885
C44 C 0.4409(4) 0.0914(3) 0.4708(2)
C45 C 0.6505(3) 0.5591(4) 0.4708(2)
H24 H 0.4466 0.1284 0.5170
H25 H 0.6818 0.5534 0.5170
C47 C 0.5610(4) 0.6279(6) 0.4034(3)
H27 H 0.5336 0.6695 0.4040
C49 C 0.6068(3) 0.6184(4) 0.4716(2)
C51 C 0.6097(3) 0.6705(4) 0.5446(2)
N4 N 0.6083(3) 0.7100(4) 0.6021(2)
N5 N 0.8983(3) 0.6083(3) 0.3979(2)
N6 N 0.7100(4) 0.1017(3) 0.3979(2)
N7 N 0.3917(3) 0.2900(4) 0.3979(2)
N10 N 0.8085(3) 0.6566(4) 0.1741(2)
N11 N 0.8481(3) 0.1915(3) 0.1741(2)
N12 N 0.3434(4) 0.1519(3) 0.1741(2)
O3 O 0.55825(25) 0.22750(18) 0.25188(13)
O4 O 0.66925(18) 0.44175(25) 0.25188(13)
O5 O 0.64003(26) 0.21657(18) 0.10268(13)
O6 O 0.57654(19) 0.35997(26) 0.10268(13)
Ag2 Ag 0.73062(4) 0.13431(3) 0.268041(19)
Ag3 Ag 0.40369(3) 0.26938(4) 0.268041(19)
Ag8 Ag 0.59631(3) 0.73062(4) 0.731959(19)
C5 C 0.9008(3) 0.5443(4) 0.9840(2)
H2 H 0.8383 0.4900 0.9722
C7 C 0.9557(3) 0.6100(4) 0.9229(3)
H4 H 0.9301 0.6007 0.8705
C26 C 0.6435(5) 0.0992(3) 0.9840(2)
C27 C 0.4557(4) 0.3565(5) 0.9840(2)
H12 H 0.6517 0.1617 0.9722
H13 H 0.5100 0.3483 0.9722
C30 C 0.6543(5) 0.0443(3) 0.9229(3)
C31 C 0.3900(4) 0.3457(5) 0.9229(3)
H16 H 0.6706 0.0699 0.8705
H17 H 0.3993 0.3294 0.8705
C35 C 0.3115(4) 0.3591(5) 0.9402(3)
C37 C 0.2431(4) 0.3502(5) 0.8765(3)
N9 N 0.1915(3) 0.3434(4) 0.8259(2)
C28 C 0.6085(6) 0.9713(4) 0.0789(3)
H14 H 0.5940 0.9466 0.1316
C32 C 0.6177(6) 0.9145(4) 0.0175(3)
H18 H 0.6081 0.8513 0.0288
C42 C 0.4244(5) 0.9801(3) 0.3343(2)
H22 H 0.4195 0.9426 0.2885
C46 C 0.3721(6) 0.9331(4) 0.4034(3)
H26 H 0.3305 0.8641 0.4040
C48 C 0.3816(4) 0.9884(3) 0.4716(2)
C50 C 0.3295(4) 0.9392(3) 0.5446(2)
N3 N 0.2900(4) 0.8983(3) 0.6021(2)
C34 C 0.6409(5) 0.9524(3) 0.9402(3)
C36 C 0.6498(5) 0.8929(3) 0.8765(3)
N8 N 0.6566(4) 0.8481(3) 0.8259(2)
C34_2 C 0.3591(5) 0.0476(3) 0.0598(3)
C36_2 C 0.3502(5) 0.1071(3) 0.1235(3)
C28_2 C 0.3915(6) 0.0287(4) 0.9211(3)
H14_2 H 0.4060 0.0534 0.8684
C32_2 C 0.3823(6) 0.0855(4) 0.9825(3)
H18_2 H 0.3919 0.1487 0.9712
C42_2 C 0.5756(5) 0.0199(3) 0.6657(2)
H22_2 H 0.5805 0.0574 0.7115
C46_2 C 0.6279(6) 0.0669(4) 0.5966(3)
H26_2 H 0.6695 0.1359 0.5960
C48_2 C 0.6184(4) 0.0116(3) 0.5284(2)
C50_2 C 0.6705(4) 0.0608(3) 0.4554(2)
C5_2 C 0.0992(3) 0.4557(4) 0.0160(2)
H2_2 H 0.1617 0.5100 0.0278
C7_2 C 0.0443(3) 0.3900(4) 0.0771(3)
H4_2 H 0.0699 0.3993 0.1295
C26_2 C 0.3565(5) 0.9008(3) 0.0160(2)
C27_2 C 0.5443(4) 0.6435(5) 0.0160(2)
H12_2 H 0.3483 0.8383 0.0278
H13_2 H 0.4900 0.6517 0.0278
C30_2 C 0.3457(5) 0.9557(3) 0.0771(3)
C31_2 C 0.6100(4) 0.6543(5) 0.0771(3)
H16_2 H 0.3294 0.9301 0.1295
H17_2 H 0.6007 0.6706 0.1295
C35_2 C 0.6885(4) 0.6409(5) 0.0598(3)
C37_2 C 0.7569(4) 0.6498(5) 0.1235(3)
C1_2 C 0.1387(3) 0.5976(3) 0.74164(19)
C2_2 C 0.0889(3) 0.5188(3) 0.7980(2)
H1_2 H 0.0270 0.4652 0.7837
C3_2 C 0.1287(3) 0.5172(3) 0.8755(2)
C4_2 C 0.0631(3) 0.4424(3) 0.9381(2)
C11_2 C 0.0831(3) 0.5989(3) 0.6675(2)
C12_2 C 0.1388(3) 0.6471(3) 0.5993(2)
H6_2 H 0.2081 0.6772 0.6006
C14_2 C 0.0914(3) 0.6505(3) 0.5292(2)
H8_2 H 0.1284 0.6818 0.4830
O1_2 O 0.22750(18) 0.66925(18) 0.74812(13)
O2_2 O 0.21657(18) 0.57654(19) 0.89732(13)
Zn1_2 Zn 0.3333 0.6667 0.82392(4)
C18_2 C 0.4589(4) 0.8613(3) 0.74164(19)
C19_2 C 0.4024(3) 0.5411(4) 0.74164(19)
C20_2 C 0.4299(4) 0.9111(3) 0.7980(2)
C21_2 C 0.4812(3) 0.5701(4) 0.7980(2)
H10_2 H 0.4382 0.9730 0.7837
H11_2 H 0.5348 0.5618 0.7837
C22_2 C 0.3885(4) 0.8713(3) 0.8755(2)
C23_2 C 0.4828(3) 0.6115(4) 0.8755(2)
C24_2 C 0.3793(4) 0.9369(3) 0.9381(2)
C25_2 C 0.5576(3) 0.6207(4) 0.9381(2)
C29_2 C 0.6372(4) 0.6085(6) 0.9211(3)
H15_2 H 0.6474 0.5940 0.8684
C33_2 C 0.7032(5) 0.6177(6) 0.9825(3)
H19_2 H 0.7568 0.6081 0.9712
C38_2 C 0.5158(4) 0.9169(3) 0.6675(2)
C39_2 C 0.4011(3) 0.4842(4) 0.6675(2)
C40_2 C 0.5083(4) 0.8612(3) 0.5993(2)
C41_2 C 0.3529(3) 0.4917(4) 0.5993(2)
H20_2 H 0.4691 0.7919 0.6006
H21_2 H 0.3228 0.5309 0.6006
C43_2 C 0.4443(4) 0.4244(5) 0.6657(2)
H23_2 H 0.4769 0.4195 0.7115
C44_2 C 0.5591(4) 0.9086(3) 0.5292(2)
C45_2 C 0.3495(3) 0.4409(4) 0.5292(2)
H24_2 H 0.5534 0.8716 0.4830
H25_2 H 0.3182 0.4466 0.4830
C47_2 C 0.4390(4) 0.3721(6) 0.5966(3)
H27_2 H 0.4664 0.3305 0.5960
C49_2 C 0.3932(3) 0.3816(4) 0.5284(2)
C51_2 C 0.3903(3) 0.3295(4) 0.4554(2)
O3_2 O 0.44175(25) 0.77250(18) 0.74812(13)
O4_2 O 0.33075(18) 0.55825(25) 0.74812(13)
O5_2 O 0.35997(26) 0.78343(18) 0.89732(13)
O6_2 O 0.42346(19) 0.64003(26) 0.89732(13)
C9_2 C 0.9524(3) 0.3115(4) 0.0598(3)
C10_2 C 0.8929(3) 0.2431(4) 0.1235(3)
C6_2 C 0.9713(4) 0.3628(4) 0.9211(3)
H3_2 H 0.9466 0.3526 0.8684
C8_2 C 0.9145(4) 0.2968(5) 0.9825(3)
H5_2 H 0.8513 0.2432 0.9712
C13_2 C 0.9801(3) 0.5557(4) 0.6657(2)
H7_2 H 0.9426 0.5231 0.7115
C15_2 C 0.9331(4) 0.5610(4) 0.5966(3)
H9_2 H 0.8641 0.5336 0.5960
C16_2 C 0.9884(3) 0.6068(3) 0.5284(2)
C17_2 C 0.9392(3) 0.6097(3) 0.4554(2)
O7 O 0.0402(4) 0.7659(5) 0.2567(3)
O8 O 0.1374(4) 0.8148(5) 0.3710(3)
O9 O 0.2099(4) 0.8435(5) 0.2453(3)
O10 O 0.1225(6) 0.6846(5) 0.2945(5)
Cl1 Cl 0.12788(17) 0.7781(2) 0.29219(13)
O7_2 O 0.2341(5) 0.2743(6) 0.2567(3)
O8_2 O 0.1852(5) 0.3226(6) 0.3710(3)
O9_2 O 0.1565(5) 0.3664(6) 0.2453(3)
O10_2 O 0.3154(5) 0.4379(8) 0.2945(5)
Cl1_2 Cl 0.2219(2) 0.34978(26) 0.29219(13)
O7_3 O 0.7257(6) 0.9598(4) 0.2567(3)
O8_3 O 0.6774(6) 0.8626(4) 0.3710(3)
O9_3 O 0.6336(6) 0.7901(4) 0.2453(3)
O10_3 O 0.5621(8) 0.8775(6) 0.2945(5)
Cl1_3 Cl 0.65022(26) 0.87212(17) 0.29219(13)
O7_4 O 0.9598(4) 0.2341(5) 0.7433(3)
O8_4 O 0.8626(4) 0.1852(5) 0.6290(3)
O9_4 O 0.7901(4) 0.1565(5) 0.7547(3)
O10_4 O 0.8775(6) 0.3154(5) 0.7055(5)
Cl1_4 Cl 0.87212(17) 0.2219(2) 0.70781(13)
O7_5 O 0.7659(5) 0.7257(6) 0.7433(3)
O8_5 O 0.8148(5) 0.6774(6) 0.6290(3)
O9_5 O 0.8435(5) 0.6336(6) 0.7547(3)
O10_5 O 0.6846(5) 0.5621(8) 0.7055(5)
Cl1_5 Cl 0.7781(2) 0.65022(26) 0.70781(13)
O7_6 O 0.2743(6) 0.0402(4) 0.7433(3)
O8_6 O 0.3226(6) 0.1374(4) 0.6290(3)
O9_6 O 0.3664(6) 0.2099(4) 0.7547(3)
O10_6 O 0.4379(8) 0.1225(6) 0.7055(5)
Cl1_6 Cl 0.34978(26) 0.12788(17) 0.70781(13)
loop_
_geom_bond_atom_site_label_1
_geom_bond_atom_site_label_2
_geom_bond_site_symmetry_1
_geom_bond_site_symmetry_2
H3 C6 1_555 1_555
C8 C6 1_555 1_555
H5 C8 1_555 1_555
H7 C13 1_555 1_555
C15 C13 1_555 1_555
H9 C15 1_555 1_555
C17 C16 1_555 1_555
N1 C17 1_555 1_555
Ag4 N1 1_555 1_555
C15 C16 1_555 1_555
C10 C9 1_555 1_555
N2 C10 1_555 1_555
Ag5 N2 1_555 1_555
C1 C2 1_555 1_555
C2 H1 1_555 1_555
C3 C2 1_555 1_555
C4 C3 1_555 1_555
C11 C1 1_555 1_555
C12 C11 1_555 1_555
H6 C12 1_555 1_555
C14 C12 1_555 1_555
H8 C14 1_555 1_555
O1 C1 1_555 1_555
O2 C3 1_555 1_555
Zn1 O1 1_555 1_555
Ag1 C2 1_555 1_555
C18 C20 1_555 1_555
C19 C21 1_555 1_555
C20 H10 1_555 1_555
C21 H11 1_555 1_555
C22 C20 1_555 1_555
C23 C21 1_555 1_555
C24 C22 1_555 1_555
C25 C23 1_555 1_555
C29 C25 1_555 1_555
H15 C29 1_555 1_555
C33 C29 1_555 1_555
H19 C33 1_555 1_555
C38 C18 1_555 1_555
C39 C19 1_555 1_555
C40 C38 1_555 1_555
C41 C39 1_555 1_555
H20 C40 1_555 1_555
H21 C41 1_555 1_555
C43 C39 1_555 1_555
H23 C43 1_555 1_555
C44 C40 1_555 1_555
C45 C41 1_555 1_555
H24 C44 1_555 1_555
H25 C45 1_555 1_555
C47 C43 1_555 1_555
H27 C47 1_555 1_555
C49 C45 1_555 1_555
C51 C49 1_555 1_555
N4 C51 1_555 1_555
N5 Ag1 1_555 1_555
N6 Ag2 1_555 1_555
N7 Ag3 1_555 1_555
N10 Ag1 1_555 1_555
N11 Ag2 1_555 1_555
N12 Ag3 1_555 1_555
O3 Zn1 1_555 1_555
O4 Zn1 1_555 1_555
O5 Zn1 1_555 1_555
O6 Zn1 1_555 1_555
Ag2 C20 1_555 1_555
Ag3 C21 1_555 1_555
Ag8 N4 1_555 1_555
O2 Zn1 1_555 1_555
C18 O3 1_555 1_555
C19 O4 1_555 1_555
C22 O5 1_555 1_555
C23 O6 1_555 1_555
C47 C49 1_555 1_555
H2 C5 1_555 1_555
C7 C5 1_555 1_555
H4 C7 1_555 1_555
H12 C26 1_555 1_555
H13 C27 1_555 1_555
C30 C26 1_555 1_555
C31 C27 1_555 1_555
H16 C30 1_555 1_555
H17 C31 1_555 1_555
C35 C31 1_555 1_555
C37 C35 1_555 1_555
N9 C37 1_555 1_555
Ag4 N9 1_555 1_555
H14 C28 1_555 1_555
C32 C28 1_555 1_555
H18 C32 1_555 1_555
H22 C42 1_555 1_555
C46 C42 1_555 1_555
H26 C46 1_555 1_555
C50 C48 1_555 1_555
N3 C50 1_555 1_555
Ag5 N3 1_555 1_555
C46 C48 1_555 1_555
C36 C34 1_555 1_555
N8 C36 1_555 1_555
Ag8 N8 1_555 1_555
C36_2 C34_2 1_555 1_555
N12 C36_2 1_555 1_555
H14_2 C28_2 1_555 1_555
C32_2 C28_2 1_555 1_555
H18_2 C32_2 1_555 1_555
H22_2 C42_2 1_555 1_555
C46_2 C42_2 1_555 1_555
H26_2 C46_2 1_555 1_555
C50_2 C48_2 1_555 1_555
N6 C50_2 1_555 1_555
C46_2 C48_2 1_555 1_555
H2_2 C5_2 1_555 1_555
C7_2 C5_2 1_555 1_555
H4_2 C7_2 1_555 1_555
H12_2 C26_2 1_555 1_555
H13_2 C27_2 1_555 1_555
C30_2 C26_2 1_555 1_555
C31_2 C27_2 1_555 1_555
H16_2 C30_2 1_555 1_555
H17_2 C31_2 1_555 1_555
C35_2 C31_2 1_555 1_555
C37_2 C35_2 1_555 1_555
N10 C37_2 1_555 1_555
C1_2 C2_2 1_555 1_555
C2_2 H1_2 1_555 1_555
C3_2 C2_2 1_555 1_555
C4_2 C3_2 1_555 1_555
C11_2 C1_2 1_555 1_555
C12_2 C11_2 1_555 1_555
H6_2 C12_2 1_555 1_555
C14_2 C12_2 1_555 1_555
H8_2 C14_2 1_555 1_555
O1_2 C1_2 1_555 1_555
O2_2 C3_2 1_555 1_555
Zn1_2 O1_2 1_555 1_555
Ag4 C2_2 1_555 1_555
C18_2 C20_2 1_555 1_555
C19_2 C21_2 1_555 1_555
C20_2 H10_2 1_555 1_555
C21_2 H11_2 1_555 1_555
C22_2 C20_2 1_555 1_555
C23_2 C21_2 1_555 1_555
C24_2 C22_2 1_555 1_555
C25_2 C23_2 1_555 1_555
C29_2 C25_2 1_555 1_555
H15_2 C29_2 1_555 1_555
C33_2 C29_2 1_555 1_555
H19_2 C33_2 1_555 1_555
C38_2 C18_2 1_555 1_555
C39_2 C19_2 1_555 1_555
C40_2 C38_2 1_555 1_555
C41_2 C39_2 1_555 1_555
H20_2 C40_2 1_555 1_555
H21_2 C41_2 1_555 1_555
C43_2 C39_2 1_555 1_555
H23_2 C43_2 1_555 1_555
C44_2 C40_2 1_555 1_555
C45_2 C41_2 1_555 1_555
H24_2 C44_2 1_555 1_555
H25_2 C45_2 1_555 1_555
C47_2 C43_2 1_555 1_555
H27_2 C47_2 1_555 1_555
C49_2 C45_2 1_555 1_555
C51_2 C49_2 1_555 1_555
N7 C51_2 1_555 1_555
O3_2 Zn1_2 1_555 1_555
O4_2 Zn1_2 1_555 1_555
O5_2 Zn1_2 1_555 1_555
O6_2 Zn1_2 1_555 1_555
Ag5 C20_2 1_555 1_555
Ag8 C21_2 1_555 1_555
O2_2 Zn1_2 1_555 1_555
C18_2 O3_2 1_555 1_555
C19_2 O4_2 1_555 1_555
C22_2 O5_2 1_555 1_555
C23_2 O6_2 1_555 1_555
C47_2 C49_2 1_555 1_555
C10_2 C9_2 1_555 1_555
N11 C10_2 1_555 1_555
H3_2 C6_2 1_555 1_555
C8_2 C6_2 1_555 1_555
H5_2 C8_2 1_555 1_555
H7_2 C13_2 1_555 1_555
C15_2 C13_2 1_555 1_555
H9_2 C15_2 1_555 1_555
C17_2 C16_2 1_555 1_555
N5 C17_2 1_555 1_555
C15_2 C16_2 1_555 1_555
O7 Cl1 1_555 1_555
O8 Cl1 1_555 1_555
O9 Cl1 1_555 1_555
O10 Cl1 1_555 1_555
O7_2 Cl1_2 1_555 1_555
O8_2 Cl1_2 1_555 1_555
O9_2 Cl1_2 1_555 1_555
O10_2 Cl1_2 1_555 1_555
O7_3 Cl1_3 1_555 1_555
O8_3 Cl1_3 1_555 1_555
O9_3 Cl1_3 1_555 1_555
O10_3 Cl1_3 1_555 1_555
O7_4 Cl1_4 1_555 1_555
O8_4 Cl1_4 1_555 1_555
O9_4 Cl1_4 1_555 1_555
O10_4 Cl1_4 1_555 1_555
O7_5 Cl1_5 1_555 1_555
O8_5 Cl1_5 1_555 1_555
O9_5 Cl1_5 1_555 1_555
O10_5 Cl1_5 1_555 1_555
O7_6 Cl1_6 1_555 1_555
O8_6 Cl1_6 1_555 1_555
O9_6 Cl1_6 1_555 1_555
O10_6 Cl1_6 1_555 1_555

#END
