
###############################################################################
#
# This file contains modified crystal structure data generated from the
# MOF subset of the Cambridge Structural Database (CSD) v543 
# hosted by the Cambridge Crystallographic Data Centre (CCDC).
#
# This work is licensed under the Creative Commons
# Attribution-NonCommercial-ShareAlike 4.0 International License.
# To view a copy of this license, visit
# http://creativecommons.org/licenses/by-nc-sa/4.0/
# or send a letter to
# Creative Commons, PO Box 1866, Mountain View, CA 94042, USA.
#
# CIF created using the CSD Python API on 29 September 2022
# The structure has been converted into the P1 space group
# The structure has a 3D framework
# The original CSD entry LAGCUT is in the trigonal crystal system
# The framework has been calculated to contain at least 10.0% void space
# The void calculation uses a probe of radius 1.32A, grid spacing 0.4
# The framework is charged, counterions have been retained in the structure
#
###############################################################################

data_LAGCUT
_chemical_formula_moiety         '(C102 H54 Ag6 N12 O12 Zn2 2+)n'
_symmetry_cell_setting           triclinic
_symmetry_space_group_name_H-M   'P 1'
_symmetry_Int_Tables_number      1
_space_group_name_Hall           'P 1'
loop_
_symmetry_equiv_pos_site_id
_symmetry_equiv_pos_as_xyz
1 x,y,z
_cell_length_a                   15.649(6)
_cell_length_b                   15.649(6)
_cell_length_c                   16.472(8)
_cell_angle_alpha                90
_cell_angle_beta                 90
_cell_angle_gamma                120
_cell_volume                     3493.41
loop_
_atom_site_label
_atom_site_type_symbol
_atom_site_fract_x
_atom_site_fract_y
_atom_site_fract_z
C36 C 0.0577(8) 0.6630(11) 0.0446(5)
N8 N 0.1041(7) 0.7064(10) 0.1010(5)
Ag7 Ag 0.13715(6) 0.72949(8) 0.23214(4)
C30 C 0.0105(7) 0.6166(10) 0.9703(5)
C32 C 0.0619(8) 0.6240(13) 0.9032(6)
H16 H 0.1300 0.6653 0.9020
C34 C 0.0133(7) 0.5704(11) 0.8370(5)
H18 H 0.0509 0.5736 0.7921
C44 C 0.0492(7) 0.3690(11) 0.4376(5)
C46 C 0.0861(8) 0.4004(13) 0.5122(7)
H24 H 0.1514 0.4186 0.5228
C48 C 0.0279(8) 0.4063(11) 0.5750(6)
H26 H 0.0545 0.4274 0.6265
C50 C 0.1050(8) 0.3573(11) 0.3755(6)
N3 N 0.1525(6) 0.3545(9) 0.3231(5)
Ag6 Ag 0.27051(8) 0.40766(6) 0.23214(4)
H3 H 0.6811 0.1222 0.0185
H14 H 0.8778 0.5589 0.0185
H15 H 0.4411 0.3189 0.0185
C37 C 0.3370(11) 0.3947(7) 0.0446(5)
N9 N 0.2936(10) 0.3977(7) 0.1010(5)
C1 C 0.5213(6) 0.1347(6) 0.6237(4)
C2 C 0.5215(7) 0.0938(6) 0.7023(4)
H1 H 0.4688 0.0320 0.7156
C3 C 0.5950(6) 0.1410(6) 0.7583(4)
C4 C 0.5986(7) 0.0857(6) 0.8313(4)
C5 C 0.6489(6) 0.1394(7) 0.9009(4)
H2 H 0.6812 0.2080 0.9007
C6 C 0.6499(7) 0.0876(7) 0.9715(5)
C11 C 0.4450(7) 0.0630(7) 0.5604(5)
C12 C 0.4523(8) 0.1018(7) 0.4842(5)
H6 H 0.4989 0.1674 0.4744
C13 C 0.3915(8) 0.0448(7) 0.4222(5)
H7 H 0.3997 0.0706 0.3701
O1 O 0.5763(4) 0.2181(4) 0.6019(3)
O2 O 0.6668(4) 0.2288(4) 0.7544(3)
Zn1 Zn 0.6667 0.3333 0.67645(7)
Ag1 Ag 0.40766(6) 0.13715(6) 0.76786(4)
C18 C 0.8653(6) 0.3866(8) 0.6237(4)
C19 C 0.6134(8) 0.4787(6) 0.6237(4)
C20 C 0.9062(6) 0.4277(9) 0.7023(4)
C21 C 0.5723(9) 0.4785(7) 0.7023(4)
H10 H 0.9680 0.4368 0.7156
H11 H 0.5632 0.5312 0.7156
C22 C 0.8590(6) 0.4540(8) 0.7583(4)
C23 C 0.5460(8) 0.4050(6) 0.7583(4)
C24 C 0.9143(6) 0.5129(9) 0.8313(4)
C25 C 0.4871(9) 0.4014(7) 0.8313(4)
C26 C 0.8606(7) 0.5095(9) 0.9009(4)
C27 C 0.4905(9) 0.3511(6) 0.9009(4)
H12 H 0.7920 0.4732 0.9007
H13 H 0.5268 0.3188 0.9007
C28 C 0.9124(7) 0.5623(10) 0.9715(5)
C29 C 0.4377(10) 0.3501(7) 0.9715(5)
C31 C 0.3834(10) 0.3939(7) 0.9703(5)
C33 C 0.3760(13) 0.4379(10) 0.9032(6)
H17 H 0.3347 0.4647 0.9020
C35 C 0.4296(11) 0.4429(8) 0.8370(5)
H19 H 0.4264 0.4773 0.7921
C38 C 0.9370(7) 0.3820(10) 0.5604(5)
C39 C 0.6180(10) 0.5550(7) 0.5604(5)
C40 C 0.8982(7) 0.3505(11) 0.4842(5)
C41 C 0.6495(11) 0.5477(8) 0.4842(5)
H20 H 0.8326 0.3315 0.4744
H21 H 0.6685 0.5011 0.4744
C42 C 0.9552(7) 0.3467(11) 0.4222(5)
C43 C 0.6533(11) 0.6085(8) 0.4222(5)
H22 H 0.9294 0.3291 0.3701
H23 H 0.6709 0.6003 0.3701
C45 C 0.6310(11) 0.6802(8) 0.4376(5)
C47 C 0.5996(13) 0.6857(10) 0.5122(7)
H25 H 0.5814 0.7328 0.5228
C49 C 0.5937(11) 0.6216(8) 0.5750(6)
H27 H 0.5726 0.6271 0.6265
C51 C 0.6427(11) 0.7477(8) 0.3755(6)
N4 N 0.6455(9) 0.7980(7) 0.3231(5)
N5 N 0.3545(9) 0.2020(7) 0.6769(5)
N6 N 0.7980(7) 0.1525(6) 0.6769(5)
N7 N 0.8475(6) 0.6455(9) 0.6769(5)
N10 N 0.3977(7) 0.1041(7) 0.8990(5)
N11 N 0.8959(7) 0.2936(10) 0.8990(5)
N12 N 0.7064(10) 0.6023(7) 0.8990(5)
O3 O 0.7819(4) 0.3582(6) 0.6019(3)
O4 O 0.6418(6) 0.4237(4) 0.6019(3)
O5 O 0.7712(4) 0.4380(6) 0.7544(3)
O6 O 0.5620(6) 0.3332(4) 0.7544(3)
Ag2 Ag 0.86285(6) 0.27051(8) 0.76786(4)
Ag3 Ag 0.72949(8) 0.59234(6) 0.76786(4)
Ag8 Ag 0.59234(6) 0.86285(6) 0.23214(4)
C10 C 0.6053(7) 0.9423(8) 0.0446(5)
N2 N 0.6023(7) 0.8959(7) 0.1010(5)
C7 C 0.6061(7) 0.9895(7) 0.9703(5)
C8 C 0.5621(10) 0.9381(8) 0.9032(6)
H4 H 0.5353 0.8700 0.9020
C9 C 0.5571(8) 0.9867(7) 0.8370(5)
H5 H 0.5227 0.9491 0.7921
C14 C 0.3198(8) 0.9508(7) 0.4376(5)
C15 C 0.3143(10) 0.9139(8) 0.5122(7)
H8 H 0.2672 0.8486 0.5228
C16 C 0.3784(8) 0.9721(8) 0.5750(6)
H9 H 0.3729 0.9455 0.6265
C17 C 0.2523(8) 0.8950(8) 0.3755(6)
N1 N 0.2020(7) 0.8475(6) 0.3231(5)
C7_2 C 0.3939(7) 0.0105(7) 0.0297(5)
C8_2 C 0.4379(10) 0.0619(8) 0.0968(6)
H4_2 H 0.4647 0.1300 0.0980
C9_2 C 0.4429(8) 0.0133(7) 0.1630(5)
H5_2 H 0.4773 0.0509 0.2079
C14_2 C 0.6802(8) 0.0492(7) 0.5624(5)
C15_2 C 0.6857(10) 0.0861(8) 0.4878(7)
H8_2 H 0.7328 0.1514 0.4772
C16_2 C 0.6216(8) 0.0279(8) 0.4250(6)
H9_2 H 0.6271 0.0545 0.3735
C17_2 C 0.7477(8) 0.1050(8) 0.6245(6)
C10_2 C 0.3947(7) 0.0577(8) 0.9554(5)
C1_2 C 0.4787(6) 0.8653(6) 0.3763(4)
C2_2 C 0.4785(7) 0.9062(6) 0.2977(4)
H1_2 H 0.5312 0.9680 0.2844
C3_2 C 0.4050(6) 0.8590(6) 0.2417(4)
C4_2 C 0.4014(7) 0.9143(6) 0.1687(4)
C5_2 C 0.3511(6) 0.8606(7) 0.0991(4)
H2_2 H 0.3188 0.7920 0.0993
C6_2 C 0.3501(7) 0.9124(7) 0.0285(5)
C11_2 C 0.5550(7) 0.9370(7) 0.4396(5)
C12_2 C 0.5477(8) 0.8982(7) 0.5158(5)
H6_2 H 0.5011 0.8326 0.5256
C13_2 C 0.6085(8) 0.9552(7) 0.5778(5)
H7_2 H 0.6003 0.9294 0.6299
O1_2 O 0.4237(4) 0.7819(4) 0.3981(3)
O2_2 O 0.3332(4) 0.7712(4) 0.2456(3)
Zn1_2 Zn 0.3333 0.6667 0.32355(7)
C18_2 C 0.1347(6) 0.6134(8) 0.3763(4)
C19_2 C 0.3866(8) 0.5213(6) 0.3763(4)
C20_2 C 0.0938(6) 0.5723(9) 0.2977(4)
C21_2 C 0.4277(9) 0.5215(7) 0.2977(4)
H10_2 H 0.0320 0.5632 0.2844
H11_2 H 0.4368 0.4688 0.2844
C22_2 C 0.1410(6) 0.5460(8) 0.2417(4)
C23_2 C 0.4540(8) 0.5950(6) 0.2417(4)
C24_2 C 0.0857(6) 0.4871(9) 0.1687(4)
C25_2 C 0.5129(9) 0.5986(7) 0.1687(4)
C26_2 C 0.1394(7) 0.4905(9) 0.0991(4)
C27_2 C 0.5095(9) 0.6489(6) 0.0991(4)
H12_2 H 0.2080 0.5268 0.0993
H13_2 H 0.4732 0.6812 0.0993
C28_2 C 0.0876(7) 0.4377(10) 0.0285(5)
C29_2 C 0.5623(10) 0.6499(7) 0.0285(5)
C31_2 C 0.6166(10) 0.6061(7) 0.0297(5)
C33_2 C 0.6240(13) 0.5621(10) 0.0968(6)
H17_2 H 0.6653 0.5353 0.0980
C35_2 C 0.5704(11) 0.5571(8) 0.1630(5)
H19_2 H 0.5736 0.5227 0.2079
C38_2 C 0.0630(7) 0.6180(10) 0.4396(5)
C39_2 C 0.3820(10) 0.4450(7) 0.4396(5)
C40_2 C 0.1018(7) 0.6495(11) 0.5158(5)
C41_2 C 0.3505(11) 0.4523(8) 0.5158(5)
H20_2 H 0.1674 0.6685 0.5256
H21_2 H 0.3315 0.4989 0.5256
C42_2 C 0.0448(7) 0.6533(11) 0.5778(5)
C43_2 C 0.3467(11) 0.3915(8) 0.5778(5)
H22_2 H 0.0706 0.6709 0.6299
H23_2 H 0.3291 0.3997 0.6299
C45_2 C 0.3690(11) 0.3198(8) 0.5624(5)
C47_2 C 0.4004(13) 0.3143(10) 0.4878(7)
H25_2 H 0.4186 0.2672 0.4772
C49_2 C 0.4063(11) 0.3784(8) 0.4250(6)
H27_2 H 0.4274 0.3729 0.3735
C51_2 C 0.3573(11) 0.2523(8) 0.6245(6)
O3_2 O 0.2181(4) 0.6418(6) 0.3981(3)
O4_2 O 0.3582(6) 0.5763(4) 0.3981(3)
O5_2 O 0.2288(4) 0.5620(6) 0.2456(3)
O6_2 O 0.4380(6) 0.6668(4) 0.2456(3)
H3_2 H 0.3189 0.8778 0.9815
H14_2 H 0.1222 0.4411 0.9815
H15_2 H 0.5589 0.6811 0.9815
C37_2 C 0.6630(11) 0.6053(7) 0.9554(5)
C30_2 C 0.9895(7) 0.3834(10) 0.0297(5)
C32_2 C 0.9381(8) 0.3760(13) 0.0968(6)
H16_2 H 0.8700 0.3347 0.0980
C34_2 C 0.9867(7) 0.4296(11) 0.1630(5)
H18_2 H 0.9491 0.4264 0.2079
C44_2 C 0.9508(7) 0.6310(11) 0.5624(5)
C46_2 C 0.9139(8) 0.5996(13) 0.4878(7)
H24_2 H 0.8486 0.5814 0.4772
C48_2 C 0.9721(8) 0.5937(11) 0.4250(6)
H26_2 H 0.9455 0.5726 0.3735
C50_2 C 0.8950(8) 0.6427(11) 0.6245(6)
C36_2 C 0.9423(8) 0.3370(11) 0.9554(5)
loop_
_geom_bond_atom_site_label_1
_geom_bond_atom_site_label_2
_geom_bond_site_symmetry_1
_geom_bond_site_symmetry_2
N8 C36 1_555 1_555
Ag7 N8 1_555 1_555
C32 C30 1_555 1_555
H16 C32 1_555 1_555
H18 C34 1_555 1_555
C46 C44 1_555 1_555
H24 C46 1_555 1_555
H26 C48 1_555 1_555
C50 C44 1_555 1_555
N3 C50 1_555 1_555
Ag6 N3 1_555 1_555
C32 C34 1_555 1_555
C46 C48 1_555 1_555
N9 C37 1_555 1_555
Ag6 N9 1_555 1_555
C1 C2 1_555 1_555
C2 H1 1_555 1_555
C3 C2 1_555 1_555
C4 C3 1_555 1_555
C5 C4 1_555 1_555
H2 C5 1_555 1_555
C6 C5 1_555 1_555
C11 C1 1_555 1_555
C12 C11 1_555 1_555
H6 C12 1_555 1_555
C13 C12 1_555 1_555
H7 C13 1_555 1_555
O1 C1 1_555 1_555
O2 C3 1_555 1_555
Zn1 O1 1_555 1_555
Ag1 C2 1_555 1_555
C18 C20 1_555 1_555
C19 C21 1_555 1_555
C20 H10 1_555 1_555
C21 H11 1_555 1_555
C22 C20 1_555 1_555
C23 C21 1_555 1_555
C24 C22 1_555 1_555
C25 C23 1_555 1_555
C26 C24 1_555 1_555
C27 C25 1_555 1_555
H12 C26 1_555 1_555
H13 C27 1_555 1_555
C28 C26 1_555 1_555
C29 C27 1_555 1_555
C31 C29 1_555 1_555
C33 C31 1_555 1_555
H17 C33 1_555 1_555
C35 C25 1_555 1_555
H19 C35 1_555 1_555
C38 C18 1_555 1_555
C39 C19 1_555 1_555
C40 C38 1_555 1_555
C41 C39 1_555 1_555
H20 C40 1_555 1_555
H21 C41 1_555 1_555
C42 C40 1_555 1_555
C43 C41 1_555 1_555
H22 C42 1_555 1_555
H23 C43 1_555 1_555
C45 C43 1_555 1_555
C47 C45 1_555 1_555
H25 C47 1_555 1_555
C49 C39 1_555 1_555
H27 C49 1_555 1_555
C51 C45 1_555 1_555
N4 C51 1_555 1_555
N5 Ag1 1_555 1_555
N6 Ag2 1_555 1_555
N7 Ag3 1_555 1_555
N10 Ag1 1_555 1_555
N11 Ag2 1_555 1_555
N12 Ag3 1_555 1_555
O3 Zn1 1_555 1_555
O4 Zn1 1_555 1_555
O5 Zn1 1_555 1_555
O6 Zn1 1_555 1_555
Ag2 C20 1_555 1_555
Ag3 C21 1_555 1_555
Ag8 N4 1_555 1_555
O2 Zn1 1_555 1_555
C18 O3 1_555 1_555
C19 O4 1_555 1_555
C22 O5 1_555 1_555
C23 O6 1_555 1_555
C33 C35 1_555 1_555
C47 C49 1_555 1_555
N2 C10 1_555 1_555
Ag8 N2 1_555 1_555
C8 C7 1_555 1_555
H4 C8 1_555 1_555
H5 C9 1_555 1_555
C15 C14 1_555 1_555
H8 C15 1_555 1_555
H9 C16 1_555 1_555
C17 C14 1_555 1_555
N1 C17 1_555 1_555
Ag7 N1 1_555 1_555
C8 C9 1_555 1_555
C15 C16 1_555 1_555
C8_2 C7_2 1_555 1_555
H4_2 C8_2 1_555 1_555
H5_2 C9_2 1_555 1_555
C15_2 C14_2 1_555 1_555
H8_2 C15_2 1_555 1_555
H9_2 C16_2 1_555 1_555
C17_2 C14_2 1_555 1_555
N6 C17_2 1_555 1_555
C8_2 C9_2 1_555 1_555
C15_2 C16_2 1_555 1_555
N10 C10_2 1_555 1_555
C1_2 C2_2 1_555 1_555
C2_2 H1_2 1_555 1_555
C3_2 C2_2 1_555 1_555
C4_2 C3_2 1_555 1_555
C5_2 C4_2 1_555 1_555
H2_2 C5_2 1_555 1_555
C6_2 C5_2 1_555 1_555
C11_2 C1_2 1_555 1_555
C12_2 C11_2 1_555 1_555
H6_2 C12_2 1_555 1_555
C13_2 C12_2 1_555 1_555
H7_2 C13_2 1_555 1_555
O1_2 C1_2 1_555 1_555
O2_2 C3_2 1_555 1_555
Zn1_2 O1_2 1_555 1_555
Ag8 C2_2 1_555 1_555
C18_2 C20_2 1_555 1_555
C19_2 C21_2 1_555 1_555
C20_2 H10_2 1_555 1_555
C21_2 H11_2 1_555 1_555
C22_2 C20_2 1_555 1_555
C23_2 C21_2 1_555 1_555
C24_2 C22_2 1_555 1_555
C25_2 C23_2 1_555 1_555
C26_2 C24_2 1_555 1_555
C27_2 C25_2 1_555 1_555
H12_2 C26_2 1_555 1_555
H13_2 C27_2 1_555 1_555
C28_2 C26_2 1_555 1_555
C29_2 C27_2 1_555 1_555
C31_2 C29_2 1_555 1_555
C33_2 C31_2 1_555 1_555
H17_2 C33_2 1_555 1_555
C35_2 C25_2 1_555 1_555
H19_2 C35_2 1_555 1_555
C38_2 C18_2 1_555 1_555
C39_2 C19_2 1_555 1_555
C40_2 C38_2 1_555 1_555
C41_2 C39_2 1_555 1_555
H20_2 C40_2 1_555 1_555
H21_2 C41_2 1_555 1_555
C42_2 C40_2 1_555 1_555
C43_2 C41_2 1_555 1_555
H22_2 C42_2 1_555 1_555
H23_2 C43_2 1_555 1_555
C45_2 C43_2 1_555 1_555
C47_2 C45_2 1_555 1_555
H25_2 C47_2 1_555 1_555
C49_2 C39_2 1_555 1_555
H27_2 C49_2 1_555 1_555
C51_2 C45_2 1_555 1_555
N5 C51_2 1_555 1_555
O3_2 Zn1_2 1_555 1_555
O4_2 Zn1_2 1_555 1_555
O5_2 Zn1_2 1_555 1_555
O6_2 Zn1_2 1_555 1_555
Ag7 C20_2 1_555 1_555
Ag6 C21_2 1_555 1_555
O2_2 Zn1_2 1_555 1_555
C18_2 O3_2 1_555 1_555
C19_2 O4_2 1_555 1_555
C22_2 O5_2 1_555 1_555
C23_2 O6_2 1_555 1_555
C33_2 C35_2 1_555 1_555
C47_2 C49_2 1_555 1_555
N12 C37_2 1_555 1_555
C32_2 C30_2 1_555 1_555
H16_2 C32_2 1_555 1_555
H18_2 C34_2 1_555 1_555
C46_2 C44_2 1_555 1_555
H24_2 C46_2 1_555 1_555
H26_2 C48_2 1_555 1_555
C50_2 C44_2 1_555 1_555
N7 C50_2 1_555 1_555
C32_2 C34_2 1_555 1_555
C46_2 C48_2 1_555 1_555
N11 C36_2 1_555 1_555

#END
