
###############################################################################
#
# This file contains modified crystal structure data generated from the
# MOF subset of the Cambridge Structural Database (CSD) v543 
# hosted by the Cambridge Crystallographic Data Centre (CCDC).
#
# This work is licensed under the Creative Commons
# Attribution-NonCommercial-ShareAlike 4.0 International License.
# To view a copy of this license, visit
# http://creativecommons.org/licenses/by-nc-sa/4.0/
# or send a letter to
# Creative Commons, PO Box 1866, Mountain View, CA 94042, USA.
#
# CIF created using the CSD Python API on 29 September 2022
# The structure has been converted into the P1 space group
# The structure has a 3D framework
# The original CSD entry LAGCAZ is in the trigonal crystal system
# The framework has been calculated to contain at least 10.0% void space
# The void calculation uses a probe of radius 1.32A, grid spacing 0.4
# The framework is charged, counterions have been retained in the structure
#
###############################################################################

data_LAGCAZ
_chemical_formula_moiety         '(C102 H58 Ag6 Fe2 N12 O12 6+)n'
_symmetry_cell_setting           triclinic
_symmetry_space_group_name_H-M   'P 1'
_symmetry_Int_Tables_number      1
_space_group_name_Hall           'P 1'
loop_
_symmetry_equiv_pos_site_id
_symmetry_equiv_pos_as_xyz
1 x,y,z
_cell_length_a                   14.6201(7)
_cell_length_b                   14.6201(7)
_cell_length_c                   17.0459(16)
_cell_angle_alpha                90
_cell_angle_beta                 90
_cell_angle_gamma                120
_cell_volume                     3155.38
loop_
_atom_site_label
_atom_site_type_symbol
_atom_site_fract_x
_atom_site_fract_y
_atom_site_fract_z
H10 H 0.5553 0.0000 0.2123
C26 C 0.4828(6) 0.0495(8) 0.3435(3)
H12 H 0.5274 0.0903 0.3031
C30 C 0.4722(6) 0.0981(8) 0.4101(4)
H16 H 0.5087 0.1714 0.4141
C34 C 0.4074(6) 0.0373(8) 0.4699(3)
C36 C 0.3902(7) 0.0844(9) 0.5384(4)
C40 C 0.6623(6) 0.0290(9) 0.0793(4)
H20 H 0.6867 0.0580 0.1288
C44 C 0.7206(6) 0.0777(9) 0.0115(4)
H24 H 0.7851 0.1399 0.0156
N3 N 0.3742(6) 0.1163(8) 0.5956(3)
N8 N 0.3343(5) 0.2082(5) 0.8163(4)
Ag2 Ag 0.30741(7) 0.14622(10) 0.69784(4)
C13 C 0.3627(4) 0.4700(5) 0.9957(3)
H7 H 0.3634 0.5337 0.9903
C15 C 0.3553(5) 0.4116(5) 0.9308(3)
H9 H 0.3532 0.4364 0.8810
C16 C 0.3511(5) 0.3169(5) 0.9398(3)
C17 C 0.3419(6) 0.2544(6) 0.8691(4)
C42 C 0.5300(5) 0.8927(6) 0.9957(3)
C43 C 0.1073(6) 0.6373(4) 0.9957(3)
H22 H 0.4663 0.8297 0.9903
H23 H 0.1703 0.6366 0.9903
C46 C 0.5884(5) 0.9437(7) 0.9308(3)
C47 C 0.0563(7) 0.6447(5) 0.9308(3)
H26 H 0.5636 0.9168 0.8810
H27 H 0.0832 0.6468 0.8810
C48 C 0.6831(5) 0.0342(7) 0.9398(3)
C50 C 0.7456(6) 0.0875(8) 0.8691(4)
N5 N 0.7918(5) 0.1261(7) 0.8163(4)
Ag5 Ag 0.85378(10) 0.16119(7) 0.69784(4)
H11 H 1.0000 0.5553 0.2123
C27 C 0.9505(8) 0.4333(5) 0.3435(3)
H13 H 0.9097 0.4371 0.3031
C31 C 0.9019(8) 0.3741(6) 0.4101(4)
H17 H 0.8286 0.3373 0.4141
C35 C 0.9627(8) 0.3701(5) 0.4699(3)
C37 C 0.9156(9) 0.3058(6) 0.5384(4)
C41 C 0.9710(9) 0.6333(7) 0.0793(4)
H21 H 0.9420 0.6287 0.1288
C45 C 0.9223(9) 0.6429(7) 0.0115(4)
H25 H 0.8601 0.6452 0.0156
N4 N 0.8837(8) 0.2579(5) 0.5956(3)
C1 C 0.3765(4) 0.5008(4) 0.1386(3)
C2 C 0.4271(5) 0.4974(5) 0.2067(3)
H1 H 0.4447 0.4447 0.2123
C3 C 0.4525(4) 0.5719(5) 0.2676(3)
C4 C 0.5121(5) 0.5741(5) 0.3370(3)
C5 C 0.5667(5) 0.5172(6) 0.3435(3)
H2 H 0.5629 0.4726 0.3031
C6 C 0.5139(5) 0.6342(6) 0.4005(3)
H3 H 0.4742 0.6678 0.3986
C7 C 0.6259(6) 0.5278(6) 0.4101(4)
H4 H 0.6627 0.4913 0.4141
C8 C 0.5736(6) 0.6453(6) 0.4668(4)
H5 H 0.5756 0.6875 0.5084
C9 C 0.6299(5) 0.5926(6) 0.4699(3)
C10 C 0.6942(6) 0.6098(7) 0.5384(4)
C11 C 0.3691(4) 0.4338(5) 0.0699(3)
C12 C 0.3667(7) 0.3377(6) 0.0793(4)
H6 H 0.3713 0.3133 0.1288
C14 C 0.3571(7) 0.2794(6) 0.0115(4)
H8 H 0.3548 0.2149 0.0156
N1 N 0.7421(5) 0.6258(6) 0.5956(3)
O1 O 0.4271(3) 0.6430(3) 0.2667(2)
O2 O 0.3404(3) 0.5617(3) 0.1267(2)
Fe1 Fe 0.3333 0.6667 0.19615(7)
Ag1 Ag 0.83881(7) 0.69259(7) 0.69784(4)
C18 C 0.4992(4) 0.8757(6) 0.1386(3)
C19 C 0.1243(6) 0.6235(4) 0.1386(3)
C20 C 0.5026(5) 0.9297(7) 0.2067(3)
C21 C 0.0703(7) 0.5729(5) 0.2067(3)
H10_2 H 0.5553 1.0000 0.2123
H11_2 H -0.0000 0.5553 0.2123
C22 C 0.4281(5) 0.8806(6) 0.2676(3)
C23 C 0.1194(6) 0.5475(4) 0.2676(3)
C24 C 0.4259(5) 0.9380(7) 0.3370(3)
C25 C 0.0620(7) 0.4879(5) 0.3370(3)
C28 C 0.3658(6) 0.8797(8) 0.4005(3)
C29 C 0.1203(8) 0.4861(5) 0.4005(3)
H14 H 0.3322 0.8064 0.3986
H15 H 0.1936 0.5258 0.3986
C32 C 0.3547(6) 0.9283(8) 0.4668(4)
C33 C 0.0717(8) 0.4264(6) 0.4668(4)
H18 H 0.3125 0.8881 0.5084
H19 H 0.1119 0.4244 0.5084
C38 C 0.5662(5) 0.9353(6) 0.0699(3)
C39 C 0.0647(6) 0.6309(4) 0.0699(3)
N7 N 0.8739(7) 0.6657(5) 0.8163(4)
O3 O 0.3570(3) 0.7841(4) 0.2667(2)
O4 O 0.2159(4) 0.5729(3) 0.2667(2)
O5 O 0.4383(3) 0.7787(4) 0.1267(2)
O6 O 0.2213(4) 0.6596(3) 0.1267(2)
C49 C 0.9658(7) 0.6489(5) 0.9398(3)
C51 C 0.9125(8) 0.6581(6) 0.8691(4)
C49_2 C 0.0342(7) 0.3511(5) 0.0602(3)
C51_2 C 0.0875(8) 0.3419(6) 0.1309(4)
N6 N 0.1261(7) 0.3343(5) 0.1837(4)
Ag6 Ag 0.16119(7) 0.30741(7) 0.30216(4)
C1_2 C 0.6235(4) 0.4992(4) 0.8614(3)
C2_2 C 0.5729(5) 0.5026(5) 0.7933(3)
H1_2 H 0.5553 0.5553 0.7877
C3_2 C 0.5475(4) 0.4281(5) 0.7324(3)
C4_2 C 0.4879(5) 0.4259(5) 0.6630(3)
C5_2 C 0.4333(5) 0.4828(6) 0.6565(3)
H2_2 H 0.4371 0.5274 0.6969
C6_2 C 0.4861(5) 0.3658(6) 0.5995(3)
H3_2 H 0.5258 0.3322 0.6014
C7_2 C 0.3741(6) 0.4722(6) 0.5899(4)
H4_2 H 0.3373 0.5087 0.5859
C8_2 C 0.4264(6) 0.3547(6) 0.5332(4)
H5_2 H 0.4244 0.3125 0.4916
C9_2 C 0.3701(5) 0.4074(6) 0.5301(3)
C10_2 C 0.3058(6) 0.3902(7) 0.4616(4)
C11_2 C 0.6309(4) 0.5662(5) 0.9301(3)
C12_2 C 0.6333(7) 0.6623(6) 0.9207(4)
H6_2 H 0.6287 0.6867 0.8712
C14_2 C 0.6429(7) 0.7206(6) 0.9885(4)
H8_2 H 0.6452 0.7851 0.9844
N1_2 N 0.2579(5) 0.3742(6) 0.4044(3)
O1_2 O 0.5729(3) 0.3570(3) 0.7333(2)
O2_2 O 0.6596(3) 0.4383(3) 0.8733(2)
Fe1_2 Fe 0.6667 0.3333 0.80385(7)
C18_2 C 0.5008(4) 0.1243(6) 0.8614(3)
C19_2 C 0.8757(6) 0.3765(4) 0.8614(3)
C20_2 C 0.4974(5) 0.0703(7) 0.7933(3)
C21_2 C 0.9297(7) 0.4271(5) 0.7933(3)
H10_3 H 0.4447 0.0000 0.7877
H11_3 H 1.0000 0.4447 0.7877
C22_2 C 0.5719(5) 0.1194(6) 0.7324(3)
C23_2 C 0.8806(6) 0.4525(4) 0.7324(3)
C24_2 C 0.5741(5) 0.0620(7) 0.6630(3)
C25_2 C 0.9380(7) 0.5121(5) 0.6630(3)
C28_2 C 0.6342(6) 0.1203(8) 0.5995(3)
C29_2 C 0.8797(8) 0.5139(5) 0.5995(3)
H14_2 H 0.6678 0.1936 0.6014
H15_2 H 0.8064 0.4742 0.6014
C32_2 C 0.6453(6) 0.0717(8) 0.5332(4)
C33_2 C 0.9283(8) 0.5736(6) 0.5332(4)
H18_2 H 0.6875 0.1119 0.4916
H19_2 H 0.8881 0.5756 0.4916
C38_2 C 0.4338(5) 0.0647(6) 0.9301(3)
C39_2 C 0.9353(6) 0.3691(4) 0.9301(3)
O3_2 O 0.6430(3) 0.2159(4) 0.7333(2)
O4_2 O 0.7841(4) 0.4271(3) 0.7333(2)
O5_2 O 0.5617(3) 0.2213(4) 0.8733(2)
O6_2 O 0.7787(4) 0.3404(3) 0.8733(2)
H11_4 H 0.0000 0.4447 0.7877
C27_2 C 0.0495(8) 0.5667(5) 0.6565(3)
H13_2 H 0.0903 0.5629 0.6969
C31_2 C 0.0981(8) 0.6259(6) 0.5899(4)
H17_2 H 0.1714 0.6627 0.5859
C35_2 C 0.0373(8) 0.6299(5) 0.5301(3)
C37_2 C 0.0844(9) 0.6942(6) 0.4616(4)
C41_2 C 0.0290(9) 0.3667(7) 0.9207(4)
H21_2 H 0.0580 0.3713 0.8712
C45_2 C 0.0777(9) 0.3571(7) 0.9885(4)
H25_2 H 0.1399 0.3548 0.9844
N4_2 N 0.1163(8) 0.7421(5) 0.4044(3)
N9 N 0.2082(5) 0.8739(7) 0.1837(4)
Ag3 Ag 0.14622(10) 0.83881(7) 0.30216(4)
C48_2 C 0.3169(5) 0.9658(7) 0.0602(3)
C50_2 C 0.2544(6) 0.9125(8) 0.1309(4)
C13_2 C 0.6373(4) 0.5300(5) 0.0043(3)
H7_2 H 0.6366 0.4663 0.0097
C15_2 C 0.6447(5) 0.5884(5) 0.0692(3)
H9_2 H 0.6468 0.5636 0.1190
C16_2 C 0.6489(5) 0.6831(5) 0.0602(3)
C17_2 C 0.6581(6) 0.7456(6) 0.1309(4)
N2 N 0.6657(5) 0.7918(5) 0.1837(4)
C42_2 C 0.4700(5) 0.1073(6) 0.0043(3)
C43_2 C 0.8927(6) 0.3627(4) 0.0043(3)
H22_2 H 0.5337 0.1703 0.0097
H23_2 H 0.8297 0.3634 0.0097
C46_2 C 0.4116(5) 0.0563(7) 0.0692(3)
C47_2 C 0.9437(7) 0.3553(5) 0.0692(3)
H26_2 H 0.4364 0.0832 0.1190
H27_2 H 0.9168 0.3532 0.1190
Ag4 Ag 0.69259(7) 0.85378(10) 0.30216(4)
H10_4 H 0.4447 1.0000 0.7877
C26_2 C 0.5172(6) 0.9505(8) 0.6565(3)
H12_2 H 0.4726 0.9097 0.6969
C30_2 C 0.5278(6) 0.9019(8) 0.5899(4)
H16_2 H 0.4913 0.8286 0.5859
C34_2 C 0.5926(6) 0.9627(8) 0.5301(3)
C36_2 C 0.6098(7) 0.9156(9) 0.4616(4)
C40_2 C 0.3377(6) 0.9710(9) 0.9207(4)
H20_2 H 0.3133 0.9420 0.8712
C44_2 C 0.2794(6) 0.9223(9) 0.9885(4)
H24_2 H 0.2149 0.8601 0.9844
N3_2 N 0.6258(6) 0.8837(8) 0.4044(3)
loop_
_geom_bond_atom_site_label_1
_geom_bond_atom_site_label_2
_geom_bond_site_symmetry_1
_geom_bond_site_symmetry_2
H12 C26 1_555 1_555
C30 C26 1_555 1_555
H16 C30 1_555 1_555
C34 C30 1_555 1_555
C36 C34 1_555 1_555
H20 C40 1_555 1_555
C44 C40 1_555 1_555
H24 C44 1_555 1_555
N3 C36 1_555 1_555
N8 Ag2 1_555 1_555
Ag2 N3 1_555 1_555
H7 C13 1_555 1_555
C15 C13 1_555 1_555
H9 C15 1_555 1_555
C17 C16 1_555 1_555
N8 C17 1_555 1_555
H22 C42 1_555 1_555
H23 C43 1_555 1_555
C46 C42 1_555 1_555
C47 C43 1_555 1_555
H26 C46 1_555 1_555
H27 C47 1_555 1_555
C15 C16 1_555 1_555
C50 C48 1_555 1_555
N5 C50 1_555 1_555
Ag5 N5 1_555 1_555
H13 C27 1_555 1_555
C31 C27 1_555 1_555
H17 C31 1_555 1_555
C35 C31 1_555 1_555
C37 C35 1_555 1_555
H21 C41 1_555 1_555
C45 C41 1_555 1_555
H25 C45 1_555 1_555
N4 C37 1_555 1_555
Ag5 N4 1_555 1_555
C1 C2 1_555 1_555
C2 H1 1_555 1_555
C3 C2 1_555 1_555
C4 C3 1_555 1_555
C5 C4 1_555 1_555
H2 C5 1_555 1_555
C6 C4 1_555 1_555
H3 C6 1_555 1_555
C7 C5 1_555 1_555
H4 C7 1_555 1_555
C8 C6 1_555 1_555
H5 C8 1_555 1_555
C9 C7 1_555 1_555
C10 C9 1_555 1_555
C11 C1 1_555 1_555
C12 C11 1_555 1_555
H6 C12 1_555 1_555
C14 C12 1_555 1_555
H8 C14 1_555 1_555
N1 C10 1_555 1_555
O1 C3 1_555 1_555
O2 C1 1_555 1_555
Fe1 O1 1_555 1_555
Ag1 N1 1_555 1_555
C18 C20 1_555 1_555
C19 C21 1_555 1_555
C20 H10_2 1_555 1_555
C21 H11_2 1_555 1_555
C22 C20 1_555 1_555
C23 C21 1_555 1_555
C24 C22 1_555 1_555
C25 C23 1_555 1_555
C28 C24 1_555 1_555
C29 C25 1_555 1_555
H14 C28 1_555 1_555
H15 C29 1_555 1_555
C32 C28 1_555 1_555
C33 C29 1_555 1_555
H18 C32 1_555 1_555
H19 C33 1_555 1_555
C38 C18 1_555 1_555
C39 C19 1_555 1_555
N7 Ag1 1_555 1_555
O3 Fe1 1_555 1_555
O4 Fe1 1_555 1_555
O5 Fe1 1_555 1_555
O6 Fe1 1_555 1_555
C8 C9 1_555 1_555
O2 Fe1 1_555 1_555
C18 O5 1_555 1_555
C19 O6 1_555 1_555
C22 O3 1_555 1_555
C23 O4 1_555 1_555
C51 C49 1_555 1_555
N7 C51 1_555 1_555
C51_2 C49_2 1_555 1_555
N6 C51_2 1_555 1_555
Ag6 N6 1_555 1_555
C1_2 C2_2 1_555 1_555
C2_2 H1_2 1_555 1_555
C3_2 C2_2 1_555 1_555
C4_2 C3_2 1_555 1_555
C5_2 C4_2 1_555 1_555
H2_2 C5_2 1_555 1_555
C6_2 C4_2 1_555 1_555
H3_2 C6_2 1_555 1_555
C7_2 C5_2 1_555 1_555
H4_2 C7_2 1_555 1_555
C8_2 C6_2 1_555 1_555
H5_2 C8_2 1_555 1_555
C9_2 C7_2 1_555 1_555
C10_2 C9_2 1_555 1_555
C11_2 C1_2 1_555 1_555
C12_2 C11_2 1_555 1_555
H6_2 C12_2 1_555 1_555
C14_2 C12_2 1_555 1_555
H8_2 C14_2 1_555 1_555
N1_2 C10_2 1_555 1_555
O1_2 C3_2 1_555 1_555
O2_2 C1_2 1_555 1_555
Fe1_2 O1_2 1_555 1_555
Ag6 N1_2 1_555 1_555
C18_2 C20_2 1_555 1_555
C19_2 C21_2 1_555 1_555
C20_2 H10_3 1_555 1_555
C21_2 H11_3 1_555 1_555
C22_2 C20_2 1_555 1_555
C23_2 C21_2 1_555 1_555
C24_2 C22_2 1_555 1_555
C25_2 C23_2 1_555 1_555
C28_2 C24_2 1_555 1_555
C29_2 C25_2 1_555 1_555
H14_2 C28_2 1_555 1_555
H15_2 C29_2 1_555 1_555
C32_2 C28_2 1_555 1_555
C33_2 C29_2 1_555 1_555
H18_2 C32_2 1_555 1_555
H19_2 C33_2 1_555 1_555
C38_2 C18_2 1_555 1_555
C39_2 C19_2 1_555 1_555
O3_2 Fe1_2 1_555 1_555
O4_2 Fe1_2 1_555 1_555
O5_2 Fe1_2 1_555 1_555
O6_2 Fe1_2 1_555 1_555
C8_2 C9_2 1_555 1_555
O2_2 Fe1_2 1_555 1_555
C18_2 O5_2 1_555 1_555
C19_2 O6_2 1_555 1_555
C22_2 O3_2 1_555 1_555
C23_2 O4_2 1_555 1_555
H13_2 C27_2 1_555 1_555
C31_2 C27_2 1_555 1_555
H17_2 C31_2 1_555 1_555
C35_2 C31_2 1_555 1_555
C37_2 C35_2 1_555 1_555
H21_2 C41_2 1_555 1_555
C45_2 C41_2 1_555 1_555
H25_2 C45_2 1_555 1_555
N4_2 C37_2 1_555 1_555
N9 Ag3 1_555 1_555
Ag3 N4_2 1_555 1_555
C50_2 C48_2 1_555 1_555
N9 C50_2 1_555 1_555
H7_2 C13_2 1_555 1_555
C15_2 C13_2 1_555 1_555
H9_2 C15_2 1_555 1_555
C17_2 C16_2 1_555 1_555
N2 C17_2 1_555 1_555
H22_2 C42_2 1_555 1_555
H23_2 C43_2 1_555 1_555
C46_2 C42_2 1_555 1_555
C47_2 C43_2 1_555 1_555
H26_2 C46_2 1_555 1_555
H27_2 C47_2 1_555 1_555
Ag4 N2 1_555 1_555
C15_2 C16_2 1_555 1_555
H12_2 C26_2 1_555 1_555
C30_2 C26_2 1_555 1_555
H16_2 C30_2 1_555 1_555
C34_2 C30_2 1_555 1_555
C36_2 C34_2 1_555 1_555
H20_2 C40_2 1_555 1_555
C44_2 C40_2 1_555 1_555
H24_2 C44_2 1_555 1_555
N3_2 C36_2 1_555 1_555
Ag4 N3_2 1_555 1_555

#END
