
###############################################################################
#
# This file contains modified crystal structure data generated from the
# MOF subset of the Cambridge Structural Database (CSD) v543 
# hosted by the Cambridge Crystallographic Data Centre (CCDC).
#
# This work is licensed under the Creative Commons
# Attribution-NonCommercial-ShareAlike 4.0 International License.
# To view a copy of this license, visit
# http://creativecommons.org/licenses/by-nc-sa/4.0/
# or send a letter to
# Creative Commons, PO Box 1866, Mountain View, CA 94042, USA.
#
# CIF created using the CSD Python API on 29 September 2022
# The structure has been converted into the P1 space group
# The structure has a 3D framework
# The original CSD entry LAGCUU is in the orthorhombic crystal system
# The framework has been calculated to contain at least 10.0% void space
# The void calculation uses a probe of radius 1.32A, grid spacing 0.4
#
###############################################################################

data_LAGCUU
_chemical_formula_moiety         '(C80 H136 Ag8 N24 O16 P8)n'
_symmetry_cell_setting           triclinic
_symmetry_space_group_name_H-M   'P 1'
_symmetry_Int_Tables_number      1
_space_group_name_Hall           'P 1'
loop_
_symmetry_equiv_pos_site_id
_symmetry_equiv_pos_as_xyz
1 x,y,z
_cell_length_a                   20.9473(8)
_cell_length_b                   13.3532(4)
_cell_length_c                   11.1554(4)
_cell_angle_alpha                90
_cell_angle_beta                 90
_cell_angle_gamma                90
_cell_volume                     3120.32
loop_
_atom_site_label
_atom_site_type_symbol
_atom_site_fract_x
_atom_site_fract_y
_atom_site_fract_z
C1 C 0.6031(3) 0.0669(6) 0.3406(6)
C2 C 0.5446(3) 0.0192(5) 0.4011(6)
H3 H 0.5850 0.0090 0.5732
C4 C 0.4911(3) 0.0920(5) 0.4290(6)
H4 H 0.4775 0.1257 0.3542
H5 H 0.5070 0.1440 0.4848
C6 C 0.7351(3) 0.3740(4) 0.1811(5)
H8 H 0.7145 0.3791 0.2608
H9 H 0.7817 0.3675 0.1937
C7 C 0.6230(3) 0.3064(5) 0.0730(6)
H10 H 0.6014 0.2587 0.0184
H11 H 0.5984 0.3088 0.1488
H15 H 0.7990 0.4485 0.0035
C10 C 0.6529(3) 0.4829(5) 0.0951(6)
H16 H 0.6455 0.5498 0.0595
H17 H 0.6318 0.4816 0.1745
N2 N 0.7219(3) 0.4682(4) 0.1115(4)
N3 N 0.6234(2) 0.4066(4) 0.0178(5)
O1 O 0.6405(2) 0.0078(4) 0.2852(4)
O2 O 0.6134(2) 0.1577(4) 0.3514(5)
P1 P 0.70538(8) 0.26124(11) 0.10432(14)
Ag1 Ag 0.72215(2) 0.10856(3) 0.20979(4)
H18 H 0.4730 0.0314 0.6561
C13 C 0.4337(3) 0.0384(6) 0.4854(6)
H19 H 0.4006 0.0881 0.5071
N7 N 0.7741(3) 0.1120(4) 0.4117(4)
N9 N 0.2219(3) 0.0318(4) 0.8885(4)
Ag6 Ag 0.77785(2) 0.60856(3) 0.20979(4)
C5 C 0.7388(3) 0.2854(5) 0.9536(5)
H6 H 0.7855 0.2743 0.9556
H7 H 0.7201 0.2372 0.8960
C8 C 0.6566(3) 0.4062(5) 0.9010(5)
H12 H 0.6497 0.4716 0.8611
H13 H 0.6376 0.3537 0.8496
C9 C 0.7531(3) 0.4632(5) 0.9921(5)
H14 H 0.7497 0.5297 0.9534
N1 N 0.7259(3) 0.3880(4) 0.9117(4)
Ag3 Ag 0.77785(2) 0.39144(3) 0.70979(4)
C15 C 0.2612(3) 0.7146(5) 0.0464(5)
H23 H 0.2145 0.7257 0.0444
H24 H 0.2799 0.7628 0.1040
C18 C 0.3434(3) 0.5938(5) 0.0990(5)
H29 H 0.3503 0.5284 0.1389
H30 H 0.3624 0.6463 0.1504
C19 C 0.2469(3) 0.5368(5) 0.0079(5)
H31 H 0.2503 0.4703 0.0466
N4 N 0.2741(3) 0.6120(4) 0.0883(4)
Ag5 Ag 0.22215(2) 0.60856(3) 0.29021(4)
H1 H 0.5270 0.9686 0.3439
C3 C 0.5663(3) 0.9616(6) 0.5146(6)
H2 H 0.5994 0.9119 0.4929
C11 C 0.3969(3) 0.9331(6) 0.6594(6)
C12 C 0.4554(3) 0.9808(5) 0.5989(6)
H20 H 0.4150 0.9910 0.4268
C14 C 0.5089(3) 0.9080(5) 0.5710(6)
H21 H 0.5225 0.8743 0.6458
H22 H 0.4930 0.8560 0.5152
O3 O 0.3595(2) 0.9922(4) 0.7148(4)
O4 O 0.3866(2) 0.8423(4) 0.6486(5)
C16 C 0.2649(3) 0.6260(4) 0.8189(5)
H25 H 0.2855 0.6209 0.7392
H26 H 0.2183 0.6325 0.8063
C17 C 0.3770(3) 0.6936(5) 0.9270(6)
H27 H 0.3986 0.7413 0.9816
H28 H 0.4016 0.6912 0.8512
H32 H 0.2010 0.5515 0.9965
C20 C 0.3471(3) 0.5171(5) 0.9049(6)
H33 H 0.3545 0.4502 0.9405
H34 H 0.3682 0.5184 0.8255
N5 N 0.2781(3) 0.5318(4) 0.8885(4)
N6 N 0.3766(2) 0.5934(4) 0.9822(5)
P2 P 0.29462(8) 0.73876(11) 0.89568(14)
Ag2 Ag 0.27785(2) 0.89144(3) 0.79021(4)
N8 N 0.2259(3) 0.8880(4) 0.5883(4)
N10 N 0.7781(3) 0.9682(4) 0.1115(4)
Ag4 Ag 0.22215(2) 0.39144(3) 0.79021(4)
H31_2 H 0.2497 0.0297 0.5466
H33_2 H 0.1455 0.0498 0.4405
Ag4_2 Ag 0.27785(2) 0.10856(3) 0.29021(4)
C11_2 C 0.1031(3) 0.5669(6) 0.1594(6)
C12_2 C 0.0446(3) 0.5192(5) 0.0989(6)
H18_2 H 0.0270 0.4686 0.1561
H19_2 H 0.0994 0.4119 0.0071
H22_2 H 0.0070 0.6440 0.0152
O3_2 O 0.1405(2) 0.5078(4) 0.2148(4)
O4_2 O 0.1134(2) 0.6577(4) 0.1486(5)
C15_2 C 0.2388(3) 0.7854(5) 0.5464(5)
H23_2 H 0.2855 0.7743 0.5444
H24_2 H 0.2201 0.7372 0.6040
C16_2 C 0.2351(3) 0.8740(4) 0.3189(5)
H25_2 H 0.2145 0.8791 0.2392
H26_2 H 0.2817 0.8675 0.3063
C17_2 C 0.1230(3) 0.8064(5) 0.4270(6)
H27_2 H 0.1014 0.7587 0.4816
H28_2 H 0.0984 0.8088 0.3512
C18_2 C 0.1566(3) 0.9062(5) 0.5990(5)
H29_2 H 0.1497 0.9716 0.6389
H30_2 H 0.1376 0.8537 0.6504
C19_2 C 0.2531(3) 0.9632(5) 0.5079(5)
H32_2 H 0.2990 0.9485 0.4965
C20_2 C 0.1529(3) 0.9829(5) 0.4049(6)
H34_2 H 0.1318 0.9816 0.3255
N5_2 N 0.2219(3) 0.9682(4) 0.3885(4)
N6_2 N 0.1234(2) 0.9066(4) 0.4822(5)
P2_2 P 0.20538(8) 0.76124(11) 0.39568(14)
N9_2 N 0.2781(3) 0.4682(4) 0.3885(4)
C1_2 C 0.8969(3) 0.4331(6) 0.8406(6)
C2_2 C 0.9554(3) 0.4808(5) 0.9011(6)
H1_2 H 0.9730 0.5314 0.8439
H2_2 H 0.9006 0.5881 0.9929
H5_2 H 0.9930 0.3560 0.9848
C5_2 C 0.7612(3) 0.2146(5) 0.4536(5)
H6_2 H 0.7145 0.2257 0.4556
H7_2 H 0.7799 0.2628 0.3960
C6_2 C 0.7649(3) 0.1260(4) 0.6811(5)
H8_2 H 0.7855 0.1209 0.7608
H9_2 H 0.7183 0.1325 0.6937
C7_2 C 0.8770(3) 0.1936(5) 0.5730(6)
H10_2 H 0.8986 0.2413 0.5184
H11_2 H 0.9016 0.1912 0.6488
C8_2 C 0.8434(3) 0.0938(5) 0.4010(5)
H12_2 H 0.8503 0.0284 0.3611
H13_2 H 0.8624 0.1463 0.3496
C9_2 C 0.7469(3) 0.0368(5) 0.4921(5)
H15_2 H 0.7010 0.0515 0.5035
C10_2 C 0.8471(3) 0.0171(5) 0.5951(6)
H17_2 H 0.8682 0.0184 0.6745
N2_2 N 0.7781(3) 0.0318(4) 0.6115(4)
N3_2 N 0.8766(2) 0.0934(4) 0.5178(5)
O1_2 O 0.8595(2) 0.4922(4) 0.7852(4)
O2_2 O 0.8866(2) 0.3423(4) 0.8514(5)
P1_2 P 0.79462(8) 0.23876(11) 0.60432(14)
N10_2 N 0.7219(3) 0.5318(4) 0.6115(4)
H14_2 H 0.7503 0.9703 0.4534
H16_2 H 0.8545 0.9502 0.5595
Ag6_2 Ag 0.72215(2) 0.89144(3) 0.70979(4)
C5_3 C 0.2388(3) 0.2146(5) 0.0464(5)
H6_3 H 0.2855 0.2257 0.0444
H7_3 H 0.2201 0.2628 0.1040
C8_3 C 0.1566(3) 0.0938(5) 0.0990(5)
H12_3 H 0.1497 0.0284 0.1389
H13_3 H 0.1376 0.1463 0.1504
C9_3 C 0.2531(3) 0.0368(5) 0.0079(5)
N1_2 N 0.2259(3) 0.1120(4) 0.0883(4)
C1_3 C 0.1031(3) 0.4331(6) 0.6594(6)
C2_3 C 0.0446(3) 0.4808(5) 0.5989(6)
H1_3 H 0.0270 0.5314 0.6561
C3_2 C 0.0663(3) 0.5384(6) 0.4854(6)
H2_3 H 0.0994 0.5881 0.5071
H3_2 H 0.0850 0.4910 0.4268
H5_3 H 0.0070 0.3560 0.5152
C6_3 C 0.2351(3) 0.1260(4) 0.8189(5)
H8_3 H 0.2145 0.1209 0.7392
H9_3 H 0.2817 0.1325 0.8063
C7_3 C 0.1230(3) 0.1936(5) 0.9270(6)
H10_3 H 0.1014 0.2413 0.9816
H11_3 H 0.0984 0.1912 0.8512
H15_3 H 0.2990 0.0515 0.9965
C10_3 C 0.1529(3) 0.0171(5) 0.9049(6)
H17_3 H 0.1318 0.0184 0.8255
N3_3 N 0.1234(2) 0.0934(4) 0.9822(5)
O1_3 O 0.1405(2) 0.4922(4) 0.7148(4)
O2_3 O 0.1134(2) 0.3423(4) 0.6486(5)
P1_3 P 0.20538(8) 0.23876(11) 0.89568(14)
C14_2 C 0.0089(3) 0.5920(5) 0.4290(6)
H21_2 H 0.0225 0.6257 0.3542
N7_2 N 0.2741(3) 0.3880(4) 0.5883(4)
H16_3 H 0.1455 0.9502 0.9405
H33_3 H 0.8545 0.0498 0.0595
C4_2 C 0.9911(3) 0.4080(5) 0.5710(6)
H4_2 H 0.9775 0.3743 0.6458
C11_3 C 0.8969(3) 0.5669(6) 0.3406(6)
C12_3 C 0.9554(3) 0.5192(5) 0.4011(6)
H18_3 H 0.9730 0.4686 0.3439
C13_2 C 0.9337(3) 0.4616(6) 0.5146(6)
H19_3 H 0.9006 0.4119 0.4929
H20_2 H 0.9150 0.5090 0.5732
H22_3 H 0.9930 0.6440 0.4848
O3_3 O 0.8595(2) 0.5078(4) 0.2852(4)
O4_3 O 0.8866(2) 0.6577(4) 0.3514(5)
C16_3 C 0.7649(3) 0.8740(4) 0.1811(5)
H25_3 H 0.7855 0.8791 0.2608
H26_3 H 0.7183 0.8675 0.1937
C17_3 C 0.8770(3) 0.8064(5) 0.0730(6)
H27_3 H 0.8986 0.7587 0.0184
H28_3 H 0.9016 0.8088 0.1488
H32_3 H 0.7010 0.9485 0.0035
C20_3 C 0.8471(3) 0.9829(5) 0.0951(6)
H34_3 H 0.8682 0.9816 0.1745
N6_3 N 0.8766(2) 0.9066(4) 0.0178(5)
P2_3 P 0.79462(8) 0.76124(11) 0.10432(14)
N8_2 N 0.7259(3) 0.6120(4) 0.4117(4)
C15_3 C 0.7612(3) 0.7854(5) 0.9536(5)
H23_3 H 0.7145 0.7743 0.9556
H24_3 H 0.7799 0.7372 0.8960
C18_3 C 0.8434(3) 0.9062(5) 0.9010(5)
H29_3 H 0.8503 0.9716 0.8611
H30_3 H 0.8624 0.8537 0.8496
C19_3 C 0.7469(3) 0.9632(5) 0.9921(5)
N4_2 N 0.7741(3) 0.8880(4) 0.9117(4)
C1_4 C 0.3969(3) 0.0669(6) 0.1594(6)
C2_4 C 0.4554(3) 0.0192(5) 0.0989(6)
C4_3 C 0.5089(3) 0.0920(5) 0.0710(6)
H4_3 H 0.5225 0.1257 0.1458
H5_4 H 0.4930 0.1440 0.0152
C5_4 C 0.2612(3) 0.2854(5) 0.5464(5)
H6_4 H 0.2145 0.2743 0.5444
H7_4 H 0.2799 0.2372 0.6040
C6_4 C 0.2649(3) 0.3740(4) 0.3189(5)
H8_4 H 0.2855 0.3791 0.2392
H9_4 H 0.2183 0.3675 0.3063
C7_4 C 0.3770(3) 0.3064(5) 0.4270(6)
H10_4 H 0.3986 0.2587 0.4816
H11_4 H 0.4016 0.3088 0.3512
C8_4 C 0.3434(3) 0.4062(5) 0.5990(5)
H12_4 H 0.3503 0.4716 0.6389
H13_4 H 0.3624 0.3537 0.6504
C9_4 C 0.2469(3) 0.4632(5) 0.5079(5)
H14_3 H 0.2503 0.5297 0.5466
H15_4 H 0.2010 0.4485 0.4965
C10_4 C 0.3471(3) 0.4829(5) 0.4049(6)
H16_4 H 0.3545 0.5498 0.4405
H17_4 H 0.3682 0.4816 0.3255
N3_4 N 0.3766(2) 0.4066(4) 0.4822(5)
O1_4 O 0.3595(2) 0.0078(4) 0.2148(4)
O2_4 O 0.3866(2) 0.1577(4) 0.1486(5)
P1_4 P 0.29462(8) 0.26124(11) 0.39568(14)
C13_3 C 0.5663(3) 0.0384(6) 0.0146(6)
H3_3 H 0.4150 0.0090 0.9268
H18_4 H 0.5270 0.0314 0.8439
H19_4 H 0.5994 0.0881 0.9929
H1_4 H 0.4730 0.9686 0.1561
H2_4 H 0.4006 0.9119 0.0071
H20_3 H 0.5850 0.9910 0.0732
C3_3 C 0.4337(3) 0.9616(6) 0.9854(6)
C11_4 C 0.6031(3) 0.9331(6) 0.8406(6)
C12_4 C 0.5446(3) 0.9808(5) 0.9011(6)
C14_3 C 0.4911(3) 0.9080(5) 0.9290(6)
H21_3 H 0.4775 0.8743 0.8542
H22_4 H 0.5070 0.8560 0.9848
O3_4 O 0.6405(2) 0.9922(4) 0.7852(4)
O4_4 O 0.6134(2) 0.8423(4) 0.8514(5)
C15_4 C 0.7388(3) 0.7146(5) 0.4536(5)
H23_4 H 0.7855 0.7257 0.4556
H24_4 H 0.7201 0.7628 0.3960
C16_4 C 0.7351(3) 0.6260(4) 0.6811(5)
H25_4 H 0.7145 0.6209 0.7608
H26_4 H 0.7817 0.6325 0.6937
C17_4 C 0.6230(3) 0.6936(5) 0.5730(6)
H27_4 H 0.6014 0.7413 0.5184
H28_4 H 0.5984 0.6912 0.6488
C18_4 C 0.6566(3) 0.5938(5) 0.4010(5)
H29_4 H 0.6497 0.5284 0.3611
H30_4 H 0.6376 0.6463 0.3496
C19_4 C 0.7531(3) 0.5368(5) 0.4921(5)
H31_3 H 0.7497 0.4703 0.4534
H32_4 H 0.7990 0.5515 0.5035
C20_4 C 0.6529(3) 0.5171(5) 0.5951(6)
H33_4 H 0.6455 0.4502 0.5595
H34_4 H 0.6318 0.5184 0.6745
N6_4 N 0.6234(2) 0.5934(4) 0.5178(5)
P2_4 P 0.70538(8) 0.73876(11) 0.60432(14)
C4_4 C 0.0089(3) 0.4080(5) 0.9290(6)
H4_4 H 0.0225 0.3743 0.8542
C13_4 C 0.0663(3) 0.4616(6) 0.9854(6)
H20_4 H 0.0850 0.5090 0.9268
C3_4 C 0.9337(3) 0.5384(6) 0.0146(6)
H3_4 H 0.9150 0.4910 0.0732
C14_4 C 0.9911(3) 0.5920(5) 0.0710(6)
H21_4 H 0.9775 0.6257 0.1458
H14_4 H 0.2497 0.9703 0.0466
H31_4 H 0.7503 0.0297 0.9534
loop_
_geom_bond_atom_site_label_1
_geom_bond_atom_site_label_2
_geom_bond_site_symmetry_1
_geom_bond_site_symmetry_2
C1 C2 1_555 1_555
C4 C2 1_555 1_555
H4 C4 1_555 1_555
H5 C4 1_555 1_555
C6 H8 1_555 1_555
H9 C6 1_555 1_555
C7 H10 1_555 1_555
H11 C7 1_555 1_555
C10 H16 1_555 1_555
H17 C10 1_555 1_555
N2 C6 1_555 1_555
N3 C7 1_555 1_555
O1 C1 1_555 1_555
O2 C1 1_555 1_555
Ag1 O1 1_555 1_555
C13 C4 1_555 1_555
H19 C13 1_555 1_555
N7 Ag1 1_555 1_555
Ag6 N2 1_555 1_555
C6 P1 1_555 1_555
C7 P1 1_555 1_555
C10 N2 1_555 1_555
C10 N3 1_555 1_555
P1 Ag1 1_555 1_555
C5 H6 1_555 1_555
H7 C5 1_555 1_555
C8 H12 1_555 1_555
H13 C8 1_555 1_555
C9 H14 1_555 1_555
N1 C5 1_555 1_555
Ag3 N1 1_555 1_555
C8 N1 1_555 1_555
C9 N1 1_555 1_555
C15 H23 1_555 1_555
H24 C15 1_555 1_555
C18 H29 1_555 1_555
H30 C18 1_555 1_555
C19 H31 1_555 1_555
N4 C15 1_555 1_555
Ag5 N4 1_555 1_555
C18 N4 1_555 1_555
C19 N4 1_555 1_555
H2 C3 1_555 1_555
C11 C12 1_555 1_555
C14 C3 1_555 1_555
H21 C14 1_555 1_555
H22 C14 1_555 1_555
O3 C11 1_555 1_555
O4 C11 1_555 1_555
C16 H25 1_555 1_555
H26 C16 1_555 1_555
C17 H27 1_555 1_555
H28 C17 1_555 1_555
C20 H33 1_555 1_555
H34 C20 1_555 1_555
N5 C16 1_555 1_555
N6 C17 1_555 1_555
Ag2 O3 1_555 1_555
N8 Ag2 1_555 1_555
Ag4 N5 1_555 1_555
C12 C14 1_555 1_555
C16 P2 1_555 1_555
C17 P2 1_555 1_555
C20 N5 1_555 1_555
C20 N6 1_555 1_555
P2 Ag2 1_555 1_555
C11_2 C12_2 1_555 1_555
C12_2 H18_2 1_555 1_555
O3_2 C11_2 1_555 1_555
O4_2 C11_2 1_555 1_555
C15_2 H23_2 1_555 1_555
H24_2 C15_2 1_555 1_555
C16_2 H25_2 1_555 1_555
H26_2 C16_2 1_555 1_555
C17_2 H27_2 1_555 1_555
H28_2 C17_2 1_555 1_555
C18_2 H29_2 1_555 1_555
H30_2 C18_2 1_555 1_555
H32_2 C19_2 1_555 1_555
H34_2 C20_2 1_555 1_555
N8 C15_2 1_555 1_555
N5_2 C16_2 1_555 1_555
N6_2 C17_2 1_555 1_555
P2_2 C15_2 1_555 1_555
Ag5 O3_2 1_555 1_555
N9_2 Ag5 1_555 1_555
C16_2 P2_2 1_555 1_555
C17_2 P2_2 1_555 1_555
C18_2 N8 1_555 1_555
C18_2 N6_2 1_555 1_555
C19_2 N8 1_555 1_555
C19_2 N5_2 1_555 1_555
C20_2 N5_2 1_555 1_555
C20_2 N6_2 1_555 1_555
P2_2 Ag5 1_555 1_555
C1_2 C2_2 1_555 1_555
C2_2 H1_2 1_555 1_555
C5_2 H6_2 1_555 1_555
H7_2 C5_2 1_555 1_555
C6_2 H8_2 1_555 1_555
H9_2 C6_2 1_555 1_555
C7_2 H10_2 1_555 1_555
H11_2 C7_2 1_555 1_555
C8_2 H12_2 1_555 1_555
H13_2 C8_2 1_555 1_555
H15_2 C9_2 1_555 1_555
H17_2 C10_2 1_555 1_555
N7 C5_2 1_555 1_555
N2_2 C6_2 1_555 1_555
N3_2 C7_2 1_555 1_555
O1_2 C1_2 1_555 1_555
O2_2 C1_2 1_555 1_555
P1_2 C5_2 1_555 1_555
Ag3 O1_2 1_555 1_555
N10_2 Ag3 1_555 1_555
C6_2 P1_2 1_555 1_555
C7_2 P1_2 1_555 1_555
C8_2 N7 1_555 1_555
C8_2 N3_2 1_555 1_555
C9_2 N7 1_555 1_555
C9_2 N2_2 1_555 1_555
C10_2 N2_2 1_555 1_555
C10_2 N3_2 1_555 1_555
P1_2 Ag3 1_555 1_555
C5_3 H6_3 1_555 1_555
H7_3 C5_3 1_555 1_555
C8_3 H12_3 1_555 1_555
H13_3 C8_3 1_555 1_555
N1_2 C5_3 1_555 1_555
Ag4_2 N1_2 1_555 1_555
C8_3 N1_2 1_555 1_555
C9_3 N1_2 1_555 1_555
C1_3 C2_3 1_555 1_555
C2_3 H1_3 1_555 1_555
C3_2 C2_3 1_555 1_555
H2_3 C3_2 1_555 1_555
H3_2 C3_2 1_555 1_555
C6_3 H8_3 1_555 1_555
H9_3 C6_3 1_555 1_555
C7_3 H10_3 1_555 1_555
H11_3 C7_3 1_555 1_555
H17_3 C10_3 1_555 1_555
N9 C6_3 1_555 1_555
N3_3 C7_3 1_555 1_555
O1_3 C1_3 1_555 1_555
O2_3 C1_3 1_555 1_555
Ag4 O1_3 1_555 1_555
C14_2 C3_2 1_555 1_555
H21_2 C14_2 1_555 1_555
N7_2 Ag4 1_555 1_555
C6_3 P1_3 1_555 1_555
C7_3 P1_3 1_555 1_555
C10_3 N9 1_555 1_555
C10_3 N3_3 1_555 1_555
P1_3 Ag4 1_555 1_555
H4_2 C4_2 1_555 1_555
C11_3 C12_3 1_555 1_555
C12_3 H18_3 1_555 1_555
C13_2 C4_2 1_555 1_555
H19_3 C13_2 1_555 1_555
H20_2 C13_2 1_555 1_555
O3_3 C11_3 1_555 1_555
O4_3 C11_3 1_555 1_555
C16_3 H25_3 1_555 1_555
H26_3 C16_3 1_555 1_555
C17_3 H27_3 1_555 1_555
H28_3 C17_3 1_555 1_555
H34_3 C20_3 1_555 1_555
N10 C16_3 1_555 1_555
N6_3 C17_3 1_555 1_555
Ag6 O3_3 1_555 1_555
N8_2 Ag6 1_555 1_555
C12_3 C13_2 1_555 1_555
C16_3 P2_3 1_555 1_555
C17_3 P2_3 1_555 1_555
C20_3 N10 1_555 1_555
C20_3 N6_3 1_555 1_555
P2_3 Ag6 1_555 1_555
C15_3 H23_3 1_555 1_555
H24_3 C15_3 1_555 1_555
C18_3 H29_3 1_555 1_555
H30_3 C18_3 1_555 1_555
N4_2 C15_3 1_555 1_555
Ag6_2 N4_2 1_555 1_555
C18_3 N4_2 1_555 1_555
C19_3 N4_2 1_555 1_555
C1_4 C2_4 1_555 1_555
C4_3 C2_4 1_555 1_555
H4_3 C4_3 1_555 1_555
H5_4 C4_3 1_555 1_555
C5_4 H6_4 1_555 1_555
H7_4 C5_4 1_555 1_555
C6_4 H8_4 1_555 1_555
H9_4 C6_4 1_555 1_555
C7_4 H10_4 1_555 1_555
H11_4 C7_4 1_555 1_555
C8_4 H12_4 1_555 1_555
H13_4 C8_4 1_555 1_555
C9_4 H14_3 1_555 1_555
H15_4 C9_4 1_555 1_555
C10_4 H16_4 1_555 1_555
H17_4 C10_4 1_555 1_555
N7_2 C5_4 1_555 1_555
N9_2 C6_4 1_555 1_555
N3_4 C7_4 1_555 1_555
O1_4 C1_4 1_555 1_555
O2_4 C1_4 1_555 1_555
P1_4 C5_4 1_555 1_555
Ag4_2 O1_4 1_555 1_555
C13_3 C4_3 1_555 1_555
C6_4 P1_4 1_555 1_555
C7_4 P1_4 1_555 1_555
C8_4 N7_2 1_555 1_555
C8_4 N3_4 1_555 1_555
C9_4 N7_2 1_555 1_555
C9_4 N9_2 1_555 1_555
C10_4 N9_2 1_555 1_555
C10_4 N3_4 1_555 1_555
P1_4 Ag4_2 1_555 1_555
C11_4 C12_4 1_555 1_555
C14_3 C3_3 1_555 1_555
H21_3 C14_3 1_555 1_555
H22_4 C14_3 1_555 1_555
O3_4 C11_4 1_555 1_555
O4_4 C11_4 1_555 1_555
C15_4 H23_4 1_555 1_555
H24_4 C15_4 1_555 1_555
C16_4 H25_4 1_555 1_555
H26_4 C16_4 1_555 1_555
C17_4 H27_4 1_555 1_555
H28_4 C17_4 1_555 1_555
C18_4 H29_4 1_555 1_555
H30_4 C18_4 1_555 1_555
C19_4 H31_3 1_555 1_555
H32_4 C19_4 1_555 1_555
C20_4 H33_4 1_555 1_555
H34_4 C20_4 1_555 1_555
N8_2 C15_4 1_555 1_555
N10_2 C16_4 1_555 1_555
N6_4 C17_4 1_555 1_555
P2_4 C15_4 1_555 1_555
Ag6_2 O3_4 1_555 1_555
C12_4 C14_3 1_555 1_555
C16_4 P2_4 1_555 1_555
C17_4 P2_4 1_555 1_555
C18_4 N8_2 1_555 1_555
C18_4 N6_4 1_555 1_555
C19_4 N8_2 1_555 1_555
C19_4 N10_2 1_555 1_555
C20_4 N10_2 1_555 1_555
C20_4 N6_4 1_555 1_555
P2_4 Ag6_2 1_555 1_555
H4_4 C4_4 1_555 1_555
C13_4 C4_4 1_555 1_555
H20_4 C13_4 1_555 1_555
H3_4 C3_4 1_555 1_555
C14_4 C3_4 1_555 1_555
H21_4 C14_4 1_555 1_555

#END
