
###############################################################################
#
# This file contains modified crystal structure data generated from the
# MOF subset of the Cambridge Structural Database (CSD) v543 
# hosted by the Cambridge Crystallographic Data Centre (CCDC).
#
# This work is licensed under the Creative Commons
# Attribution-NonCommercial-ShareAlike 4.0 International License.
# To view a copy of this license, visit
# http://creativecommons.org/licenses/by-nc-sa/4.0/
# or send a letter to
# Creative Commons, PO Box 1866, Mountain View, CA 94042, USA.
#
# CIF created using the CSD Python API on 29 September 2022
# The structure has been converted into the P1 space group
# The structure has a 3D framework
# The original CSD entry LAGVOG is in the monoclinic crystal system
# The framework has been calculated to contain at least 10.0% void space
# The void calculation uses a probe of radius 1.32A, grid spacing 0.4
#
###############################################################################

data_LAGVOG
_chemical_formula_moiety         '(C60 H64 N8 O28 Y4)n'
_symmetry_cell_setting           triclinic
_symmetry_space_group_name_H-M   'P 1'
_symmetry_Int_Tables_number      1
_space_group_name_Hall           'P 1'
loop_
_symmetry_equiv_pos_site_id
_symmetry_equiv_pos_as_xyz
1 x,y,z
_cell_length_a                   9.652(2)
_cell_length_b                   16.212(3)
_cell_length_c                   14.067(2)
_cell_angle_alpha                90
_cell_angle_beta                 106.580(7)
_cell_angle_gamma                90
_cell_volume                     2109.66
loop_
_atom_site_label
_atom_site_type_symbol
_atom_site_fract_x
_atom_site_fract_y
_atom_site_fract_z
O1 O 0.0535(12) 0.0856(7) 0.3423(10)
O5 O 0.6061(12) 0.0695(8) 0.4553(10)
O6 O 0.3656(12) 0.0598(7) 0.4219(10)
H4 H 0.0053 0.2001 0.2212
C9 C 0.4912(19) 0.0367(10) 0.4654(12)
H12 H 0.2043 0.0091 0.1709
Y5 Y 0.82691(16) 0.01748(9) 0.55258(11)
O11 O 0.2066(12) 0.0836(7) 0.5656(10)
O15 O 0.0268(14) 0.0923(8) 0.6381(11)
Y6 Y 0.32691(16) 0.48252(9) 0.05258(11)
Y1 Y 0.17309(16) 0.98252(9) 0.44742(11)
O7 O 0.2401(17) 0.9114(9) 0.3316(12)
C10 C 0.207(2) 0.8614(15) 0.259(2)
C11 C 0.108(5) 0.842(2) 0.073(2)
H5 H 0.0032 0.8378 0.0529
H6 H 0.1380 0.8664 0.0194
C12 C 0.177(4) 0.7561(16) 0.100(2)
H7 H 0.1281 0.7184 0.0477
H8 H 0.2767 0.7600 0.0977
C13 C 0.180(3) 0.7191(16) 0.191(2)
H9 H 0.2494 0.6744 0.2050
H10 H 0.0852 0.6959 0.1862
C14 C 0.120(5) 0.976(2) 0.143(2)
H11 H 0.0863 0.9847 0.0729
H13 H 0.0459 0.9903 0.1730
C15 C 0.268(4) 0.7510(14) 0.388(3)
H14 H 0.2889 0.7982 0.4313
H15 H 0.3522 0.7171 0.3997
H16 H 0.1909 0.7198 0.4019
N1 N 0.156(3) 0.8922(17) 0.162(2)
N2 N 0.219(2) 0.7811(12) 0.2750(15)
Y7 Y 0.67309(16) 0.51748(9) 0.94742(11)
O9 O 0.1043(14) 0.9145(8) 0.5686(9)
O10 O 0.2934(12) 0.5836(7) 0.9344(10)
O13 O 0.4732(14) 0.5923(8) 0.8619(11)
O16 O 0.3939(12) 0.9305(8) 0.5447(10)
O18 O 0.6344(12) 0.9402(7) 0.5781(10)
C16 C 0.1355(17) 0.8152(9) 0.6965(13)
C17 C 0.260(2) 0.7838(11) 0.6826(15)
H17 H 0.2972 0.8060 0.6339
C18 C 0.329(2) 0.7212(12) 0.7388(15)
H18 H 0.4139 0.7009 0.7290
C19 C 0.2760(17) 0.6859(11) 0.8115(15)
C20 C 0.147(2) 0.7152(12) 0.8232(16)
H19 H 0.1075 0.6904 0.8690
C21 C 0.079(2) 0.7793(12) 0.7687(15)
C22 C 0.055(2) 0.8896(11) 0.6331(14)
C23 C 0.350(2) 0.6136(11) 0.8761(14)
C24 C 0.5088(19) 0.9633(10) 0.5346(12)
O2 O 0.8957(14) 0.0855(8) 0.4314(9)
O3 O 0.7066(12) 0.4164(7) 0.0656(10)
O4 O 0.5268(14) 0.4077(8) 0.1381(11)
C1 C 0.8645(17) 0.1848(9) 0.3035(13)
C2 C 0.740(2) 0.2162(11) 0.3174(15)
H1 H 0.7028 0.1940 0.3661
C3 C 0.671(2) 0.2788(12) 0.2612(15)
H2 H 0.5861 0.2991 0.2710
C4 C 0.7240(17) 0.3141(11) 0.1885(15)
C5 C 0.853(2) 0.2848(12) 0.1768(16)
H3 H 0.8925 0.3096 0.1310
C6 C 0.921(2) 0.2207(12) 0.2313(15)
C7 C 0.945(2) 0.1104(11) 0.3669(14)
C8 C 0.650(2) 0.3864(11) 0.1239(14)
O20 O 0.7599(17) 0.0886(9) 0.6684(12)
C25 C 0.793(2) 0.1386(15) 0.741(2)
C26 C 0.892(5) 0.158(2) 0.927(2)
H21 H 0.9968 0.1622 0.9471
H22 H 0.8620 0.1336 0.9806
C27 C 0.823(4) 0.2439(16) 0.900(2)
H23 H 0.8719 0.2816 0.9523
H24 H 0.7233 0.2400 0.9023
C28 C 0.820(3) 0.2809(16) 0.809(2)
H25 H 0.7506 0.3256 0.7950
H26 H 0.9148 0.3041 0.8138
C29 C 0.880(5) 0.024(2) 0.857(2)
H27 H 0.9137 0.0153 0.9271
H29 H 0.9541 0.0097 0.8270
C30 C 0.732(4) 0.2490(14) 0.612(3)
H30 H 0.7111 0.2018 0.5687
H31 H 0.6478 0.2829 0.6003
H32 H 0.8091 0.2802 0.5981
N3 N 0.844(3) 0.1078(17) 0.838(2)
N4 N 0.781(2) 0.2189(12) 0.7250(15)
O8 O 0.9465(12) 0.9144(7) 0.6577(10)
O12 O 0.7934(12) 0.9164(7) 0.4344(10)
O14 O 0.9732(14) 0.9077(8) 0.3619(11)
H20 H 0.9947 0.7999 0.7788
H28 H 0.7957 0.9909 0.8291
O1_2 O 0.4465(12) 0.5856(7) 0.1577(10)
O2_2 O 0.6043(14) 0.5855(8) 0.0686(9)
O6_2 O 0.1344(12) 0.5598(7) 0.0781(10)
O7_2 O 0.2599(17) 0.4114(9) 0.1684(12)
C1_2 C 0.6355(17) 0.6848(9) 0.1965(13)
C2_2 C 0.760(2) 0.7162(11) 0.1826(15)
H1_2 H 0.7972 0.6940 0.1339
C3_2 C 0.829(2) 0.7788(12) 0.2388(15)
H2_2 H 0.9139 0.7991 0.2290
C4_2 C 0.7760(17) 0.8141(11) 0.3115(15)
C5_2 C 0.647(2) 0.7848(12) 0.3232(16)
H3_2 H 0.6075 0.8096 0.3690
C6_2 C 0.579(2) 0.7207(12) 0.2687(15)
H4_2 H 0.4947 0.7001 0.2788
C7_2 C 0.555(2) 0.6104(11) 0.1331(14)
C8_2 C 0.850(2) 0.8864(11) 0.3761(14)
C9_2 C 0.0088(19) 0.5367(10) 0.0346(12)
C10_2 C 0.293(2) 0.3614(15) 0.241(2)
C11_2 C 0.392(5) 0.342(2) 0.427(2)
H5_2 H 0.4968 0.3378 0.4471
H6_2 H 0.3620 0.3664 0.4806
C12_2 C 0.323(4) 0.2561(16) 0.400(2)
H7_2 H 0.3719 0.2184 0.4523
H8_2 H 0.2233 0.2600 0.4023
C13_2 C 0.320(3) 0.2191(16) 0.309(2)
H9_2 H 0.2506 0.1744 0.2950
H10_2 H 0.4148 0.1959 0.3138
C14_2 C 0.380(5) 0.476(2) 0.357(2)
H11_2 H 0.4137 0.4847 0.4271
H12_2 H 0.2957 0.5091 0.3291
H13_2 H 0.4541 0.4903 0.3270
C15_2 C 0.232(4) 0.2510(14) 0.112(3)
H14_2 H 0.2111 0.2982 0.0687
H15_2 H 0.1478 0.2171 0.1003
H16_2 H 0.3091 0.2198 0.0981
N1_2 N 0.344(3) 0.3922(17) 0.338(2)
N2_2 N 0.281(2) 0.2811(12) 0.2250(15)
O17 O 0.8939(12) 0.5695(8) 0.0447(10)
O8_2 O 0.5535(12) 0.4144(7) 0.8423(10)
O9_2 O 0.3957(14) 0.4145(8) 0.9314(9)
O16_2 O 0.1061(12) 0.4305(8) 0.9553(10)
O19 O 0.8656(12) 0.4402(7) 0.9219(10)
O20_2 O 0.7401(17) 0.5886(9) 0.8316(12)
C16_2 C 0.3645(17) 0.3152(9) 0.8035(13)
C17_2 C 0.240(2) 0.2838(11) 0.8174(15)
H17_2 H 0.2028 0.3060 0.8661
C18_2 C 0.171(2) 0.2212(12) 0.7612(15)
H18_2 H 0.0861 0.2009 0.7710
C19_2 C 0.2240(17) 0.1859(11) 0.6885(15)
C20_2 C 0.353(2) 0.2152(12) 0.6768(16)
H19_2 H 0.3925 0.1904 0.6310
C21_2 C 0.421(2) 0.2793(12) 0.7313(15)
H20_2 H 0.5053 0.2999 0.7212
C22_2 C 0.445(2) 0.3896(11) 0.8669(14)
C23_2 C 0.150(2) 0.1136(11) 0.6239(14)
C25_2 C 0.707(2) 0.6386(15) 0.759(2)
C26_2 C 0.608(5) 0.658(2) 0.573(2)
H21_2 H 0.5032 0.6622 0.5529
H22_2 H 0.6380 0.6336 0.5194
C27_2 C 0.677(4) 0.7439(16) 0.600(2)
H23_2 H 0.6281 0.7816 0.5477
H24_2 H 0.7767 0.7400 0.5977
C28_2 C 0.680(3) 0.7809(16) 0.691(2)
H25_2 H 0.7494 0.8256 0.7050
H26_2 H 0.5852 0.8041 0.6862
C29_2 C 0.620(5) 0.524(2) 0.643(2)
H27_2 H 0.5863 0.5153 0.5729
H28_2 H 0.7043 0.4909 0.6709
H29_2 H 0.5459 0.5097 0.6730
C30_2 C 0.768(4) 0.7490(14) 0.888(3)
H30_2 H 0.7889 0.7018 0.9313
H31_2 H 0.8522 0.7829 0.8997
H32_2 H 0.6909 0.7802 0.9019
N3_2 N 0.656(3) 0.6078(17) 0.662(2)
N4_2 N 0.719(2) 0.7189(12) 0.7750(15)
C24_2 C 0.9912(19) 0.4633(10) 0.9654(12)
loop_
_geom_bond_atom_site_label_1
_geom_bond_atom_site_label_2
_geom_bond_site_symmetry_1
_geom_bond_site_symmetry_2
O5 C9 1_555 1_555
C9 O6 1_555 1_555
Y5 O5 1_555 1_555
O7 Y1 1_555 1_555
C10 O7 1_555 1_555
C11 H5 1_555 1_555
H6 C11 1_555 1_555
C12 C11 1_555 1_555
H7 C12 1_555 1_555
H8 C12 1_555 1_555
C13 C12 1_555 1_555
H9 C13 1_555 1_555
H10 C13 1_555 1_555
C14 H11 1_555 1_555
H13 C14 1_555 1_555
C15 H14 1_555 1_555
H15 C15 1_555 1_555
H16 C15 1_555 1_555
N1 C10 1_555 1_555
N2 C10 1_555 1_555
Y7 O13 1_555 1_555
O9 Y1 1_555 1_555
O10 C23 1_555 1_555
O13 C23 1_555 1_555
O16 Y1 1_555 1_555
C16 C17 1_555 1_555
C17 H17 1_555 1_555
C18 C17 1_555 1_555
H18 C18 1_555 1_555
C19 C18 1_555 1_555
C20 C19 1_555 1_555
H19 C20 1_555 1_555
C21 C16 1_555 1_555
C23 C19 1_555 1_555
C11 N1 1_555 1_555
C13 N2 1_555 1_555
C14 N1 1_555 1_555
C15 N2 1_555 1_555
O9 C22 1_555 1_555
O16 C24 1_555 1_555
O18 C24 1_555 1_555
C16 C22 1_555 1_555
C20 C21 1_555 1_555
O2 C7 1_555 1_555
O3 C8 1_555 1_555
O4 C8 1_555 1_555
C1 C2 1_555 1_555
C2 H1 1_555 1_555
C3 C2 1_555 1_555
H2 C3 1_555 1_555
C4 C3 1_555 1_555
C5 C4 1_555 1_555
H3 C5 1_555 1_555
C6 C1 1_555 1_555
C7 C1 1_555 1_555
C8 C4 1_555 1_555
Y5 O2 1_555 1_555
Y6 O4 1_555 1_555
O20 Y5 1_555 1_555
C25 O20 1_555 1_555
C26 H21 1_555 1_555
H22 C26 1_555 1_555
C27 C26 1_555 1_555
H23 C27 1_555 1_555
H24 C27 1_555 1_555
C28 C27 1_555 1_555
H25 C28 1_555 1_555
H26 C28 1_555 1_555
C29 H27 1_555 1_555
H29 C29 1_555 1_555
C30 H30 1_555 1_555
H31 C30 1_555 1_555
H32 C30 1_555 1_555
N3 C25 1_555 1_555
N4 C25 1_555 1_555
C5 C6 1_555 1_555
C26 N3 1_555 1_555
C28 N4 1_555 1_555
C29 N3 1_555 1_555
C30 N4 1_555 1_555
Y6 O1_2 1_555 1_555
O1_2 C7_2 1_555 1_555
O2_2 C7_2 1_555 1_555
O12 C8_2 1_555 1_555
O14 C8_2 1_555 1_555
O6_2 Y6 1_555 1_555
O7_2 Y6 1_555 1_555
C1_2 C2_2 1_555 1_555
C2_2 H1_2 1_555 1_555
C3_2 C2_2 1_555 1_555
H2_2 C3_2 1_555 1_555
C4_2 C3_2 1_555 1_555
C5_2 C4_2 1_555 1_555
H3_2 C5_2 1_555 1_555
C6_2 C1_2 1_555 1_555
H4_2 C6_2 1_555 1_555
C7_2 C1_2 1_555 1_555
C8_2 C4_2 1_555 1_555
C9_2 O6_2 1_555 1_555
C10_2 O7_2 1_555 1_555
C11_2 H5_2 1_555 1_555
H6_2 C11_2 1_555 1_555
C12_2 C11_2 1_555 1_555
H7_2 C12_2 1_555 1_555
H8_2 C12_2 1_555 1_555
C13_2 C12_2 1_555 1_555
H9_2 C13_2 1_555 1_555
H10_2 C13_2 1_555 1_555
C14_2 H11_2 1_555 1_555
H12_2 C14_2 1_555 1_555
H13_2 C14_2 1_555 1_555
C15_2 H14_2 1_555 1_555
H15_2 C15_2 1_555 1_555
H16_2 C15_2 1_555 1_555
N1_2 C10_2 1_555 1_555
N2_2 C10_2 1_555 1_555
C5_2 C6_2 1_555 1_555
C11_2 N1_2 1_555 1_555
C13_2 N2_2 1_555 1_555
C14_2 N1_2 1_555 1_555
C15_2 N2_2 1_555 1_555
O8_2 Y7 1_555 1_555
O11 C23_2 1_555 1_555
O15 C23_2 1_555 1_555
O19 Y7 1_555 1_555
O20_2 Y7 1_555 1_555
C16_2 C17_2 1_555 1_555
C17_2 H17_2 1_555 1_555
C18_2 C17_2 1_555 1_555
H18_2 C18_2 1_555 1_555
C19_2 C18_2 1_555 1_555
C20_2 C19_2 1_555 1_555
H19_2 C20_2 1_555 1_555
C21_2 C16_2 1_555 1_555
H20_2 C21_2 1_555 1_555
C22_2 O8_2 1_555 1_555
C23_2 C19_2 1_555 1_555
C25_2 O20_2 1_555 1_555
C26_2 H21_2 1_555 1_555
H22_2 C26_2 1_555 1_555
C27_2 C26_2 1_555 1_555
H23_2 C27_2 1_555 1_555
H24_2 C27_2 1_555 1_555
C28_2 C27_2 1_555 1_555
H25_2 C28_2 1_555 1_555
H26_2 C28_2 1_555 1_555
C29_2 H27_2 1_555 1_555
H28_2 C29_2 1_555 1_555
H29_2 C29_2 1_555 1_555
C30_2 H30_2 1_555 1_555
H31_2 C30_2 1_555 1_555
H32_2 C30_2 1_555 1_555
N3_2 C25_2 1_555 1_555
N4_2 C25_2 1_555 1_555
O9_2 C22_2 1_555 1_555
C16_2 C22_2 1_555 1_555
C20_2 C21_2 1_555 1_555
C26_2 N3_2 1_555 1_555
C28_2 N4_2 1_555 1_555
C29_2 N3_2 1_555 1_555
C30_2 N4_2 1_555 1_555
O19 C24_2 1_555 1_555

#END
