
###############################################################################
#
# This file contains modified crystal structure data generated from the
# MOF subset of the Cambridge Structural Database (CSD) v543 
# hosted by the Cambridge Crystallographic Data Centre (CCDC).
#
# This work is licensed under the Creative Commons
# Attribution-NonCommercial-ShareAlike 4.0 International License.
# To view a copy of this license, visit
# http://creativecommons.org/licenses/by-nc-sa/4.0/
# or send a letter to
# Creative Commons, PO Box 1866, Mountain View, CA 94042, USA.
#
# CIF created using the CSD Python API on 29 September 2022
# The structure has been converted into the P1 space group
# The structure has a 3D framework
# The original CSD entry LAGWEX is in the monoclinic crystal system
# The framework has been calculated to contain at least 10.0% void space
# The void calculation uses a probe of radius 1.32A, grid spacing 0.4
# H atom positions have been added when not included in the experimental data
# Generated hydrogen atom positions removed from atoms on special positions
#
###############################################################################

data_LAGWEX
_chemical_formula_moiety         '(C96 H72 Cd11 O54)n'
_symmetry_cell_setting           triclinic
_symmetry_space_group_name_H-M   'P 1'
_symmetry_Int_Tables_number      1
_space_group_name_Hall           'P 1'
loop_
_symmetry_equiv_pos_site_id
_symmetry_equiv_pos_as_xyz
1 x,y,z
_cell_length_a                   24.6677(4)
_cell_length_b                   12.4498(2)
_cell_length_c                   16.5193(3)
_cell_angle_alpha                90
_cell_angle_beta                 128.0600(10)
_cell_angle_gamma                90
_cell_volume                     3994.47
loop_
_atom_site_label
_atom_site_type_symbol
_atom_site_fract_x
_atom_site_fract_y
_atom_site_fract_z
C12 C 0.0698(3) 0.0225(6) 0.0696(5)
H6 H 0.12459 0.0401762 0.124337
H8 H 0.203805 0.0149697 0.482624
Cd4 Cd 0.0000 0.28265(4) 0.7500
C21 C 0.0312(3) 0.0645(6) 0.9704(5)
H15 H 0.0557055 0.114838 0.947391
Cd1 Cd 0.0000 0.71735(4) 0.2500
Cd2 Cd 0.171861(17) 0.81428(3) 0.38997(3)
O1 O 0.21049(19) 0.7027(3) 0.5337(3)
O2 O 0.09912(18) 0.7297(3) 0.4251(3)
O3 O 0.1633(2) 0.3446(4) 0.8119(3)
O4 O 0.0528(2) 0.8557(4) 0.2326(3)
O5 O 0.0521(2) 0.3929(4) 0.7151(3)
O6 O 0.1443(2) 0.9257(4) 0.2628(3)
O7 O 0.2108(2) 0.9428(4) 0.5133(3)
C1 C 0.1507(3) 0.6857(4) 0.5050(4)
C2 C 0.1414(3) 0.6136(4) 0.5687(4)
C3 C 0.1858(3) 0.4787(5) 0.6995(4)
C4 C 0.0810(3) 0.9109(5) 0.2049(4)
C5 C 0.0385(3) 0.9581(5) 0.0988(4)
C6 C 0.1944(3) 0.5466(5) 0.6414(4)
C7 C 0.1125(3) 0.3980(5) 0.7423(4)
C8 C 0.1238(3) 0.4777(5) 0.6837(4)
C10 C 0.0792(3) 0.6132(5) 0.5534(4)
C11 C 0.0706(3) 0.5460(5) 0.6113(4)
Cd6 Cd 0.328139(17) 0.68572(3) 0.61003(3)
Cd7 Cd 0.171861(17) 0.18572(3) 0.88997(3)
O9 O 0.28951(19) 0.7973(3) 0.4663(3)
O14 O 0.1633(2) 0.6554(4) 0.3119(3)
O20 O 0.0521(2) 0.6071(4) 0.2151(3)
H1 H 0.242964 0.547027 0.653161
H2 H 0.0374065 0.665762 0.495899
H4 H 0.227709 0.426462 0.757261
H5 H 0.0223094 0.546442 0.600342
H7 H 0.2606 0.931402 0.569693
Cd4_2 Cd 1.0000 0.28265(4) 0.7500
Cd8 Cd 0.828139(17) 0.18572(3) 0.61003(3)
O16 O 0.9472(2) 0.1443(4) 0.7674(3)
O21 O 0.8557(2) 0.0743(4) 0.7372(3)
C16 C 0.9190(3) 0.0891(5) 0.7951(4)
C17 C 0.9615(3) 0.0419(5) 0.9012(4)
Cd1_2 Cd 1.0000 0.71735(4) 0.2500
C9 C 0.9688(3) 0.9355(6) 0.0296(5)
Cd9 Cd 0.671861(17) 0.31428(3) 0.38997(3)
Cd10 Cd 0.828139(17) 0.81428(3) 0.11003(3)
O8 O 0.78951(19) 0.2973(3) 0.4663(3)
O10 O 0.71049(19) 0.2027(3) 0.5337(3)
O11 O 0.90088(18) 0.2703(3) 0.5749(3)
O12 O 0.90088(18) 0.7297(3) 0.0749(3)
O13 O 0.8367(2) 0.6554(4) 0.1881(3)
O15 O 0.8367(2) 0.3446(4) 0.6881(3)
O17 O 0.9472(2) 0.8557(4) 0.2674(3)
O19 O 0.9479(2) 0.6071(4) 0.2849(3)
O23 O 0.7892(2) 0.0572(4) 0.4867(3)
C13 C 0.8493(3) 0.3143(4) 0.4950(4)
C14 C 0.8586(3) 0.3864(4) 0.4313(4)
C15 C 0.8142(3) 0.5213(5) 0.3005(4)
C18 C 0.8056(3) 0.4534(5) 0.3586(4)
C19 C 0.8875(3) 0.6020(5) 0.2577(4)
C20 C 0.8762(3) 0.5223(5) 0.3163(4)
C22 C 0.9208(3) 0.3868(5) 0.4466(4)
C23 C 0.9294(3) 0.4540(5) 0.3887(4)
H3 H 0.944294 0.885162 0.0526087
H9 H 0.757036 0.452973 0.346839
H10 H 0.815082 0.0621172 0.458818
H12 H 0.962594 0.334238 0.504101
H14 H 0.772291 0.573538 0.242739
H16 H 0.977691 0.453558 0.399658
O16_2 O 0.0528(2) 0.1443(4) 0.7326(3)
O21_2 O 0.1443(2) 0.0743(4) 0.7628(3)
C16_2 C 0.0810(3) 0.0891(5) 0.7049(4)
C17_2 C 0.0385(3) 0.0419(5) 0.5988(4)
C9_2 C 0.0312(3) 0.9355(6) 0.4704(5)
Cd9_2 Cd 0.328139(17) 0.31428(3) 0.11003(3)
O8_2 O 0.21049(19) 0.2973(3) 0.0337(3)
O23_2 O 0.2108(2) 0.0572(4) 0.0133(3)
C13_2 C 0.1507(3) 0.3143(4) 0.0050(4)
C14_2 C 0.1414(3) 0.3864(4) 0.0687(4)
C15_2 C 0.1858(3) 0.5213(5) 0.1995(4)
C18_2 C 0.1944(3) 0.4534(5) 0.1414(4)
C19_2 C 0.1125(3) 0.6020(5) 0.2423(4)
C20_2 C 0.1238(3) 0.5223(5) 0.1837(4)
C22_2 C 0.0792(3) 0.3868(5) 0.0534(4)
C23_2 C 0.0706(3) 0.4540(5) 0.1113(4)
C24 C 0.0698(3) 0.9775(6) 0.5696(5)
H3_2 H 0.0557055 0.885162 0.447391
H9_2 H 0.242964 0.452973 0.153161
H10_2 H 0.184918 0.0621172 0.0411815
H13 H 0.12459 0.959824 0.624337
H14_2 H 0.227709 0.573538 0.257261
H16_2 H 0.0223094 0.453558 0.100342
O10_2 O 0.28951(19) 0.2027(3) 0.9663(3)
O11_2 O 0.09912(18) 0.2703(3) 0.9251(3)
H12_2 H 0.0374065 0.334238 0.995899
H11 H 0.203805 0.98503 0.982624
C12_2 C 0.9302(3) 0.0225(6) 0.4304(5)
C21_2 C 0.9688(3) 0.0645(6) 0.5296(5)
H6_2 H 0.87541 0.0401762 0.375663
H8_2 H 0.796195 0.0149697 0.0173759
H15_2 H 0.944294 0.114838 0.552609
O6_2 O 0.8557(2) 0.9257(4) 0.2372(3)
C4_2 C 0.9190(3) 0.9109(5) 0.2951(4)
C5_2 C 0.9615(3) 0.9581(5) 0.4012(4)
O9_2 O 0.71049(19) 0.7973(3) 0.0337(3)
H2_2 H 0.962594 0.665762 0.0041013
O1_2 O 0.78951(19) 0.7027(3) 0.9663(3)
O5_2 O 0.9479(2) 0.3929(4) 0.7849(3)
O7_2 O 0.7892(2) 0.9428(4) 0.9867(3)
C1_2 C 0.8493(3) 0.6857(4) 0.9950(4)
C2_2 C 0.8586(3) 0.6136(4) 0.9313(4)
C3_2 C 0.8142(3) 0.4787(5) 0.8005(4)
C6_2 C 0.8056(3) 0.5466(5) 0.8586(4)
C7_2 C 0.8875(3) 0.3980(5) 0.7577(4)
C8_2 C 0.8762(3) 0.4777(5) 0.8163(4)
C10_2 C 0.9208(3) 0.6132(5) 0.9466(4)
C11_2 C 0.9294(3) 0.5460(5) 0.8887(4)
Cd6_2 Cd 0.671861(17) 0.68572(3) 0.88997(3)
H1_2 H 0.757036 0.547027 0.846839
H4_2 H 0.772291 0.426462 0.742739
H5_2 H 0.977691 0.546442 0.899658
H7_2 H 0.7394 0.931402 0.930307
Cd1_3 Cd 0.5000 0.21735(4) 0.2500
O2_2 O 0.59912(18) 0.2297(3) 0.4251(3)
O4_2 O 0.5528(2) 0.3557(4) 0.2326(3)
O6_3 O 0.6443(2) 0.4257(4) 0.2628(3)
O7_3 O 0.7108(2) 0.4428(4) 0.5133(3)
C1_3 C 0.6507(3) 0.1857(4) 0.5050(4)
C2_3 C 0.6414(3) 0.1136(4) 0.5687(4)
C4_3 C 0.5810(3) 0.4109(5) 0.2049(4)
C5_3 C 0.5385(3) 0.4581(5) 0.0988(4)
C6_3 C 0.6944(3) 0.0466(5) 0.6414(4)
C9_3 C 0.4688(3) 0.4355(6) 0.0296(5)
C10_3 C 0.5792(3) 0.1132(5) 0.5534(4)
C11_3 C 0.5706(3) 0.0460(5) 0.6113(4)
C12_3 C 0.5698(3) 0.5225(6) 0.0696(5)
O12_2 O 0.40088(18) 0.2297(3) 0.0749(3)
O13_2 O 0.3367(2) 0.1554(4) 0.1881(3)
O14_2 O 0.6633(2) 0.1554(4) 0.3119(3)
O17_2 O 0.4472(2) 0.3557(4) 0.2674(3)
O19_2 O 0.4479(2) 0.1071(4) 0.2849(3)
O20_2 O 0.5521(2) 0.1071(4) 0.2151(3)
C15_3 C 0.3142(3) 0.0213(5) 0.3005(4)
C19_3 C 0.3875(3) 0.1020(5) 0.2577(4)
C20_3 C 0.3762(3) 0.0223(5) 0.3163(4)
H1_3 H 0.742964 0.0470267 0.653161
H2_3 H 0.537406 0.165762 0.495899
H3_3 H 0.444294 0.385162 0.0526087
H5_3 H 0.522309 0.0464415 0.600342
H6_3 H 0.62459 0.540176 0.124337
H14_3 H 0.272291 0.073538 0.242739
Cd4_3 Cd 0.5000 0.78265(4) 0.7500
O16_3 O 0.4472(2) 0.6443(4) 0.7674(3)
O21_3 O 0.3557(2) 0.5743(4) 0.7372(3)
C16_3 C 0.4190(3) 0.5891(5) 0.7951(4)
C17_3 C 0.4615(3) 0.5419(5) 0.9012(4)
C21_3 C 0.5312(3) 0.5645(6) 0.9704(5)
C24_2 C 0.4302(3) 0.4775(6) 0.9304(5)
H13_2 H 0.37541 0.459824 0.875663
H15_3 H 0.555706 0.614838 0.947391
O3_2 O 0.6633(2) 0.8446(4) 0.8119(3)
O5_3 O 0.5521(2) 0.8929(4) 0.7151(3)
C3_3 C 0.6858(3) 0.9787(5) 0.6995(4)
C7_3 C 0.6125(3) 0.8980(5) 0.7423(4)
C8_3 C 0.6238(3) 0.9777(5) 0.6837(4)
O11_3 O 0.40088(18) 0.7703(3) 0.5749(3)
O15_2 O 0.3367(2) 0.8446(4) 0.6881(3)
O23_3 O 0.2892(2) 0.5572(4) 0.4867(3)
C13_3 C 0.3493(3) 0.8143(4) 0.4950(4)
C14_3 C 0.3586(3) 0.8864(4) 0.4313(4)
C18_3 C 0.3056(3) 0.9534(5) 0.3586(4)
C22_3 C 0.4208(3) 0.8868(5) 0.4466(4)
C23_3 C 0.4294(3) 0.9540(5) 0.3887(4)
H4_3 H 0.727709 0.926462 0.757261
H9_3 H 0.257036 0.952973 0.346839
H12_3 H 0.462594 0.834238 0.504101
H16_3 H 0.477691 0.953558 0.399658
O6_4 O 0.3557(2) 0.4257(4) 0.2372(3)
C4_4 C 0.4190(3) 0.4109(5) 0.2951(4)
C5_4 C 0.4615(3) 0.4581(5) 0.4012(4)
C9_4 C 0.5312(3) 0.4355(6) 0.4704(5)
C12_4 C 0.4302(3) 0.5225(6) 0.4304(5)
O16_4 O 0.5528(2) 0.6443(4) 0.7326(3)
O21_4 O 0.6443(2) 0.5743(4) 0.7628(3)
C15_4 C 0.6858(3) 0.0213(5) 0.1995(4)
C16_4 C 0.5810(3) 0.5891(5) 0.7049(4)
C17_4 C 0.5385(3) 0.5419(5) 0.5988(4)
C19_4 C 0.6125(3) 0.1020(5) 0.2423(4)
C20_4 C 0.6238(3) 0.0223(5) 0.1837(4)
C21_4 C 0.4688(3) 0.5645(6) 0.5296(5)
C24_3 C 0.5698(3) 0.4775(6) 0.5696(5)
H2_4 H 0.462594 0.165762 0.0041013
H3_4 H 0.555706 0.385162 0.447391
H6_4 H 0.37541 0.540176 0.375663
H8_3 H 0.296195 0.51497 0.0173759
H13_3 H 0.62459 0.459824 0.624337
H14_4 H 0.727709 0.073538 0.257261
H15_4 H 0.444294 0.614838 0.552609
O7_4 O 0.2892(2) 0.4428(4) 0.9867(3)
C1_4 C 0.3493(3) 0.1857(4) 0.9950(4)
C2_4 C 0.3586(3) 0.1136(4) 0.9313(4)
C6_4 C 0.3056(3) 0.0466(5) 0.8586(4)
C10_4 C 0.4208(3) 0.1132(5) 0.9466(4)
C11_4 C 0.4294(3) 0.0460(5) 0.8887(4)
H1_4 H 0.257036 0.0470267 0.846839
H5_4 H 0.477691 0.0464415 0.899658
H7_3 H 0.2394 0.431402 0.930307
O23_4 O 0.7108(2) 0.5572(4) 0.0133(3)
C13_4 C 0.6507(3) 0.8143(4) 0.0050(4)
C14_4 C 0.6414(3) 0.8864(4) 0.0687(4)
C18_4 C 0.6944(3) 0.9534(5) 0.1414(4)
C22_4 C 0.5792(3) 0.8868(5) 0.0534(4)
C23_4 C 0.5706(3) 0.9540(5) 0.1113(4)
H9_4 H 0.742964 0.952973 0.153161
H10_3 H 0.684918 0.562117 0.0411815
H16_4 H 0.522309 0.953558 0.100342
O5_4 O 0.4479(2) 0.8929(4) 0.7849(3)
C3_4 C 0.3142(3) 0.9787(5) 0.8005(4)
C7_4 C 0.3875(3) 0.8980(5) 0.7577(4)
C8_4 C 0.3762(3) 0.9777(5) 0.8163(4)
O11_4 O 0.59912(18) 0.7703(3) 0.9251(3)
H4_4 H 0.272291 0.926462 0.742739
H11_2 H 0.703805 0.48503 0.982624
H12_4 H 0.537406 0.834238 0.995899
H10_4 H 0.184918 0.937883 0.541182
H7_4 H 0.7394 0.068598 0.430307
H7_5 H 0.2606 0.068598 0.0696933
H10_5 H 0.815082 0.937883 0.958818
H10_6 H 0.315082 0.437883 0.958818
H7_6 H 0.7606 0.568598 0.0696933
C24_4 C 0.9302(3) 0.9775(6) 0.9304(5)
H13_4 H 0.87541 0.959824 0.875663
H11_3 H 0.796195 0.98503 0.517376
loop_
_geom_bond_atom_site_label_1
_geom_bond_atom_site_label_2
_geom_bond_site_symmetry_1
_geom_bond_site_symmetry_2
C12 H6 1_555 1_555
C21 H15 1_555 1_555
Cd1 O2 1_555 1_555
Cd2 O1 1_555 1_555
O1 C1 1_555 1_555
O2 Cd2 1_555 1_555
O3 C7 1_555 1_555
O4 Cd1 1_555 1_555
O5 C7 1_555 1_555
O6 Cd2 1_555 1_555
O7 Cd2 1_555 1_555
C1 O2 1_555 1_555
C2 C1 1_555 1_555
C3 C6 1_555 1_555
C4 O4 1_555 1_555
C5 C4 1_555 1_555
C6 C2 1_555 1_555
C7 C8 1_555 1_555
C8 C3 1_555 1_555
C10 C2 1_555 1_555
C11 C8 1_555 1_555
Cd4 O5 1_555 1_555
Cd6 O1 1_555 1_555
Cd7 O3 1_555 1_555
O9 Cd2 1_555 1_555
O14 Cd2 1_555 1_555
O20 Cd1 1_555 1_555
Cd2 O4 1_555 1_555
O6 C4 1_555 1_555
C10 C11 1_555 1_555
Cd6 O9 1_555 1_555
C6 H1 1_555 1_555
C10 H2 1_555 1_555
C3 H4 1_555 1_555
C11 H5 1_555 1_555
O7 H7 1_555 1_555
Cd4_2 O16 1_555 1_555
Cd8 O16 1_555 1_555
O16 C16 1_555 1_555
O21 Cd8 1_555 1_555
C16 O21 1_555 1_555
C17 C16 1_555 1_555
Cd8 O8 1_555 1_555
Cd9 O8 1_555 1_555
Cd10 O12 1_555 1_555
O8 C13 1_555 1_555
O10 Cd8 1_555 1_555
O11 Cd4_2 1_555 1_555
O12 Cd1_2 1_555 1_555
O13 Cd10 1_555 1_555
O15 Cd8 1_555 1_555
O17 Cd1_2 1_555 1_555
O19 Cd1_2 1_555 1_555
O23 Cd8 1_555 1_555
C13 O11 1_555 1_555
C14 C13 1_555 1_555
C15 C18 1_555 1_555
C18 C14 1_555 1_555
C19 O13 1_555 1_555
C20 C15 1_555 1_555
C22 C14 1_555 1_555
C23 C20 1_555 1_555
Cd8 O11 1_555 1_555
Cd9 O10 1_555 1_555
Cd10 O17 1_555 1_555
O19 C19 1_555 1_555
C19 C20 1_555 1_555
C22 C23 1_555 1_555
C9 H3 1_555 1_555
C18 H9 1_555 1_555
O23 H10 1_555 1_555
C22 H12 1_555 1_555
C15 H14 1_555 1_555
C23 H16 1_555 1_555
Cd4 O16_2 1_555 1_555
Cd7 O16_2 1_555 1_555
O16_2 C16_2 1_555 1_555
O21_2 Cd7 1_555 1_555
C16_2 O21_2 1_555 1_555
C17_2 C16_2 1_555 1_555
Cd9_2 O8_2 1_555 1_555
O8_2 C13_2 1_555 1_555
C14_2 C13_2 1_555 1_555
C15_2 C18_2 1_555 1_555
C18_2 C14_2 1_555 1_555
C19_2 O14 1_555 1_555
C20_2 C15_2 1_555 1_555
C22_2 C14_2 1_555 1_555
C23_2 C20_2 1_555 1_555
C24 C9_2 1_555 1_555
O20 C19_2 1_555 1_555
C19_2 C20_2 1_555 1_555
C22_2 C23_2 1_555 1_555
C9_2 H3_2 1_555 1_555
C18_2 H9_2 1_555 1_555
O23_2 H10_2 1_555 1_555
C24 H13 1_555 1_555
C15_2 H14_2 1_555 1_555
C23_2 H16_2 1_555 1_555
O10_2 Cd7 1_555 1_555
O11_2 Cd4 1_555 1_555
Cd7 O11_2 1_555 1_555
C21_2 C12_2 1_555 1_555
C12_2 H6_2 1_555 1_555
C21_2 H15_2 1_555 1_555
O6_2 Cd10 1_555 1_555
C4_2 O17 1_555 1_555
C5_2 C4_2 1_555 1_555
O9_2 Cd10 1_555 1_555
O6_2 C4_2 1_555 1_555
O1_2 C1_2 1_555 1_555
O15 C7_2 1_555 1_555
O5_2 C7_2 1_555 1_555
C2_2 C1_2 1_555 1_555
C3_2 C6_2 1_555 1_555
C6_2 C2_2 1_555 1_555
C7_2 C8_2 1_555 1_555
C8_2 C3_2 1_555 1_555
C10_2 C2_2 1_555 1_555
C11_2 C8_2 1_555 1_555
Cd4_2 O5_2 1_555 1_555
Cd6_2 O1_2 1_555 1_555
C10_2 C11_2 1_555 1_555
C6_2 H1_2 1_555 1_555
C3_2 H4_2 1_555 1_555
C11_2 H5_2 1_555 1_555
O7_2 H7_2 1_555 1_555
Cd1_3 O2_2 1_555 1_555
O10 C1_3 1_555 1_555
O2_2 Cd9 1_555 1_555
O4_2 Cd1_3 1_555 1_555
O6_3 Cd9 1_555 1_555
O7_3 Cd9 1_555 1_555
C1_3 O2_2 1_555 1_555
C2_3 C1_3 1_555 1_555
C4_3 O4_2 1_555 1_555
C5_3 C4_3 1_555 1_555
C6_3 C2_3 1_555 1_555
C9_3 C5_3 1_555 1_555
C10_3 C2_3 1_555 1_555
C12_3 C5_3 1_555 1_555
Cd9_2 O12_2 1_555 1_555
O12_2 Cd1_3 1_555 1_555
O13_2 Cd9_2 1_555 1_555
O14_2 Cd9 1_555 1_555
O17_2 Cd1_3 1_555 1_555
O19_2 Cd1_3 1_555 1_555
O20_2 Cd1_3 1_555 1_555
C19_3 O13_2 1_555 1_555
C20_3 C15_3 1_555 1_555
Cd9 O4_2 1_555 1_555
O6_3 C4_3 1_555 1_555
C10_3 C11_3 1_555 1_555
Cd9_2 O17_2 1_555 1_555
O19_2 C19_3 1_555 1_555
C19_3 C20_3 1_555 1_555
C6_3 H1_3 1_555 1_555
C10_3 H2_3 1_555 1_555
C9_3 H3_3 1_555 1_555
C11_3 H5_3 1_555 1_555
C12_3 H6_3 1_555 1_555
C15_3 H14_3 1_555 1_555
Cd4_3 O16_3 1_555 1_555
Cd6 O16_3 1_555 1_555
O16_3 C16_3 1_555 1_555
O21_3 Cd6 1_555 1_555
C16_3 O21_3 1_555 1_555
C17_3 C16_3 1_555 1_555
C17_3 C21_3 1_555 1_555
C17_3 C24_2 1_555 1_555
C24_2 H13_2 1_555 1_555
C21_3 H15_3 1_555 1_555
O3_2 C7_3 1_555 1_555
O5_3 C7_3 1_555 1_555
C7_3 C8_3 1_555 1_555
C8_3 C3_3 1_555 1_555
Cd4_3 O5_3 1_555 1_555
Cd6_2 O3_2 1_555 1_555
O9 C13_3 1_555 1_555
O11_3 Cd4_3 1_555 1_555
O15_2 Cd6 1_555 1_555
O23_3 Cd6 1_555 1_555
C13_3 O11_3 1_555 1_555
C14_3 C13_3 1_555 1_555
C18_3 C14_3 1_555 1_555
C22_3 C14_3 1_555 1_555
Cd6 O11_3 1_555 1_555
C22_3 C23_3 1_555 1_555
C3_3 H4_3 1_555 1_555
C18_3 H9_3 1_555 1_555
C22_3 H12_3 1_555 1_555
C23_3 H16_3 1_555 1_555
O6_4 Cd9_2 1_555 1_555
C4_4 O17_2 1_555 1_555
C5_4 C4_4 1_555 1_555
C9_4 C5_4 1_555 1_555
C12_4 C5_4 1_555 1_555
Cd4_3 O16_4 1_555 1_555
Cd6_2 O16_4 1_555 1_555
O16_4 C16_4 1_555 1_555
O21_4 Cd6_2 1_555 1_555
C16_4 O21_4 1_555 1_555
C17_4 C16_4 1_555 1_555
C19_4 O14_2 1_555 1_555
C20_4 C15_4 1_555 1_555
C21_4 C12_4 1_555 1_555
C24_3 C9_4 1_555 1_555
O6_4 C4_4 1_555 1_555
O20_2 C19_4 1_555 1_555
C17_4 C21_4 1_555 1_555
C17_4 C24_3 1_555 1_555
C19_4 C20_4 1_555 1_555
C9_4 H3_4 1_555 1_555
C12_4 H6_4 1_555 1_555
C24_3 H13_3 1_555 1_555
C15_4 H14_4 1_555 1_555
C21_4 H15_4 1_555 1_555
O10_2 C1_4 1_555 1_555
C2_4 C1_4 1_555 1_555
C6_4 C2_4 1_555 1_555
C10_4 C2_4 1_555 1_555
C10_4 C11_4 1_555 1_555
C6_4 H1_4 1_555 1_555
C11_4 H5_4 1_555 1_555
O7_4 H7_3 1_555 1_555
O9_2 C13_4 1_555 1_555
C14_4 C13_4 1_555 1_555
C18_4 C14_4 1_555 1_555
C22_4 C14_4 1_555 1_555
C22_4 C23_4 1_555 1_555
C18_4 H9_4 1_555 1_555
O23_4 H10_3 1_555 1_555
C23_4 H16_4 1_555 1_555
O15_2 C7_4 1_555 1_555
O5_4 C7_4 1_555 1_555
C7_4 C8_4 1_555 1_555
C8_4 C3_4 1_555 1_555
Cd4_3 O5_4 1_555 1_555
O11_4 Cd4_3 1_555 1_555
Cd6_2 O11_4 1_555 1_555
C3_4 H4_4 1_555 1_555
O7 H10_4 1_555 1_555
O23 H7_4 1_555 1_555
O23_2 H7_5 1_555 1_555
O7_2 H10_5 1_555 1_555
O7_4 H10_6 1_555 1_555
O23_4 H7_6 1_555 1_555
C24_4 H13_4 1_555 1_555

#END
