
###############################################################################
#
# This file contains modified crystal structure data generated from the
# MOF subset of the Cambridge Structural Database (CSD) v543 
# hosted by the Cambridge Crystallographic Data Centre (CCDC).
#
# This work is licensed under the Creative Commons
# Attribution-NonCommercial-ShareAlike 4.0 International License.
# To view a copy of this license, visit
# http://creativecommons.org/licenses/by-nc-sa/4.0/
# or send a letter to
# Creative Commons, PO Box 1866, Mountain View, CA 94042, USA.
#
# CIF created using the CSD Python API on 29 September 2022
# The structure has been converted into the P1 space group
# The structure has a 3D framework
# The original CSD entry LAGWUN is in the orthorhombic crystal system
# The original CSD entry LAGWUN is in a Sohncke space group
# The framework has been calculated to contain at least 10.0% void space
# The void calculation uses a probe of radius 1.32A, grid spacing 0.4
# H atom positions have been added when not included in the experimental data
#
###############################################################################

data_LAGWUN
_chemical_formula_moiety         '(C72 H40 O58 Zn13)n'
_symmetry_cell_setting           triclinic
_symmetry_space_group_name_H-M   'P 1'
_symmetry_Int_Tables_number      1
_space_group_name_Hall           'P 1'
loop_
_symmetry_equiv_pos_site_id
_symmetry_equiv_pos_as_xyz
1 x,y,z
_cell_length_a                   10.830(4)
_cell_length_b                   17.049(6)
_cell_length_c                   17.293(7)
_cell_angle_alpha                90
_cell_angle_beta                 90
_cell_angle_gamma                90
_cell_volume                     3192.99
loop_
_atom_site_label
_atom_site_type_symbol
_atom_site_fract_x
_atom_site_fract_y
_atom_site_fract_z
Zn1 Zn 0.32429(9) 0.21729(5) 0.50465(7)
Zn2 Zn 0.28635(9) 0.39849(6) 0.48873(7)
Zn3 Zn 0.55691(10) 0.35187(7) 0.56810(8)
Zn4 Zn 0.16919(11) 0.09753(8) 0.60746(8)
O1 O 0.2170(6) 0.2940(4) 0.4200(4)
O2 O 0.4303(5) 0.3222(3) 0.4959(4)
O3 O 0.2302(7) 0.2857(5) 0.5801(5)
O4 O 0.1658(7) 0.5238(4) 0.9075(4)
O5 O 0.1859(7) 0.5360(4) 0.0789(5)
C1 C 0.1492(11) 0.2679(7) 0.6293(7)
O7 O 0.1996(5) 0.1243(3) 0.4991(4)
C2 C 0.0166(8) 0.3813(6) 0.6896(7)
O10 O 0.0943(7) 0.2214(4) 0.3484(4)
C4 C 0.1310(8) 0.3486(5) 0.2999(6)
C5 C 0.2323(10) 0.3662(6) 0.2547(7)
H1 H 0.3070 0.3408 0.2638
C6 C 0.1468(8) 0.2847(6) 0.3594(5)
O11 O 0.0987(6) 0.2029(4) 0.6407(5)
C7 C 0.0207(9) 0.3890(7) 0.2935(7)
O12 O 0.1093(6) 0.4329(3) 0.4917(4)
C9 C 0.2187(10) 0.3467(7) 0.7409(7)
H2 H 0.2954 0.3229 0.7352
C10 C 0.1242(10) 0.3294(6) 0.6909(6)
C11 C 0.0939(9) 0.4473(6) 0.8027(7)
C12 C 0.1987(10) 0.4002(7) 0.8000(8)
H3 H 0.2572 0.4048 0.8391
C13 C 0.1101(10) 0.4606(6) 0.1879(7)
C14 C 0.2240(9) 0.4200(6) 0.1971(7)
H4 H 0.2907 0.4301 0.1647
C15 C 0.0753(11) 0.5084(7) 0.8609(7)
C16 C 0.0126(9) 0.4453(6) 0.2325(7)
C17 C 0.0040(10) 0.4352(7) 0.7463(7)
C18 C 0.1004(10) 0.5227(6) 0.1227(6)
Zn6 Zn 0.21365(9) 0.60151(6) 0.98873(7)
Zn8 Zn 0.05691(10) 0.14813(7) 0.43190(8)
O17 O 0.3342(7) 0.4762(4) 0.4075(4)
O18 O 0.3141(7) 0.4640(4) 0.5789(5)
O19 O 0.4408(6) 0.1753(4) 0.4235(4)
O20 O 0.6996(5) 0.3757(3) 0.5009(4)
O21 O 0.4290(6) 0.1614(4) 0.5939(5)
O22 O 0.5943(7) 0.2786(4) 0.6516(4)
O23 O 0.5069(7) 0.4436(4) 0.6254(5)
O24 O 0.3084(6) 0.0986(5) 0.6733(4)
O25 O 0.0229(9) 0.0456(5) 0.6379(5)
H7 H 0.0587906 0.3921 0.517751
H8 H 0.102691 0.482982 0.520722
O6 O 0.9408(6) 0.3247(4) 0.5765(4)
O8 O 0.8379(9) 0.4224(6) 0.6270(6)
O9 O 0.9290(6) 0.3386(4) 0.4061(5)
C3 C 0.9123(9) 0.3748(6) 0.3442(6)
C8 C 0.9191(10) 0.3689(7) 0.6296(8)
O13 O 0.9931(7) 0.5564(4) 0.1254(5)
O14 O 0.8084(6) 0.4014(5) 0.3267(4)
H5 H 0.9386 0.4714 0.2237
O15 O 0.9771(9) 0.5456(5) 0.8621(5)
H6 H 0.9326 0.4654 0.7478
Zn5 Zn 0.82429(9) 0.28271(5) 0.49535(7)
Zn9 Zn 0.94309(10) 0.64813(7) 0.06810(8)
Zn10 Zn 0.66919(11) 0.40247(8) 0.39254(8)
Zn11 Zn 0.83081(11) 0.59753(8) 0.89254(8)
Zn1_2 Zn 0.17571(9) 0.78271(5) 0.00465(7)
Zn4_2 Zn 0.33081(11) 0.90247(8) 0.10746(8)
O3_2 O 0.2698(7) 0.7143(5) 0.0801(5)
O6_2 O 0.5592(6) 0.6753(4) 0.0765(4)
C1_2 C 0.3508(11) 0.7321(7) 0.1293(7)
O8_2 O 0.6621(9) 0.5776(6) 0.1270(6)
C2_2 C 0.4834(8) 0.6187(6) 0.1896(7)
O11_2 O 0.4013(6) 0.7971(4) 0.1407(5)
C8_2 C 0.5809(10) 0.6311(7) 0.1296(8)
C9_2 C 0.2813(10) 0.6533(7) 0.2409(7)
H2_2 H 0.2046 0.6771 0.2352
C10_2 C 0.3758(10) 0.6706(6) 0.1909(6)
C11_2 C 0.4061(9) 0.5527(6) 0.3027(7)
C12_2 C 0.3013(10) 0.5998(7) 0.3000(8)
H3_2 H 0.2428 0.5952 0.3391
C15_2 C 0.4247(11) 0.4916(7) 0.3609(7)
O15_2 O 0.5229(9) 0.4544(5) 0.3621(5)
C17_2 C 0.4960(10) 0.5648(7) 0.2463(7)
H6_2 H 0.5674 0.5346 0.2478
O21_2 O 0.0710(6) 0.8386(4) 0.0939(5)
O24_2 O 0.1916(6) 0.9014(5) 0.1733(4)
O25_2 O 0.4771(9) 0.9544(5) 0.1379(5)
H7_2 H 0.441209 0.6079 0.0177514
H8_2 H 0.397309 0.517018 0.020722
O1_2 O 0.2830(6) 0.7060(4) 0.9200(4)
O2_2 O 0.0697(5) 0.6778(3) 0.9959(4)
O7_2 O 0.3004(5) 0.8757(3) 0.9991(4)
O9_2 O 0.5710(6) 0.6614(4) 0.9061(5)
C3_2 C 0.5877(9) 0.6252(6) 0.8442(6)
O10_2 O 0.4057(7) 0.7786(4) 0.8484(4)
C4_2 C 0.3690(8) 0.6514(5) 0.7999(6)
C5_2 C 0.2677(10) 0.6338(6) 0.7547(7)
H1_2 H 0.1930 0.6592 0.7638
C6_2 C 0.3532(8) 0.7153(6) 0.8594(5)
C7_2 C 0.4793(9) 0.6110(7) 0.7935(7)
O12_2 O 0.3907(6) 0.5671(3) 0.9917(4)
O14_2 O 0.6916(6) 0.5986(5) 0.8267(4)
C13_2 C 0.3899(10) 0.5394(6) 0.6879(7)
C14_2 C 0.2760(9) 0.5800(6) 0.6971(7)
H4_2 H 0.2093 0.5699 0.6647
C16_2 C 0.4874(9) 0.5547(6) 0.7325(7)
H5_2 H 0.5614 0.5286 0.7237
C18_2 C 0.3996(10) 0.4773(6) 0.6227(6)
Zn5_2 Zn 0.67571(9) 0.71729(5) 0.99535(7)
Zn8_2 Zn 0.44309(10) 0.85187(7) 0.93190(8)
O19_2 O 0.0592(6) 0.8247(4) 0.9235(4)
O20_2 O 0.8004(5) 0.6243(3) 0.0009(4)
O22_2 O 0.9057(7) 0.7214(4) 0.1516(4)
O13_2 O 0.0069(7) 0.0564(4) 0.3746(5)
C3_3 C 0.0877(9) 0.8748(6) 0.1558(6)
H5_3 H 0.0614 0.9714 0.2763
O8_3 O 0.1621(9) 0.9224(6) 0.8730(6)
C8_3 C 0.0809(10) 0.8689(7) 0.8704(8)
H6_3 H 0.0674 0.9654 0.7522
O5_2 O 0.8141(7) 0.0360(4) 0.4211(5)
C18_3 C 0.8996(10) 0.0227(6) 0.3773(6)
Zn7 Zn 0.78635(9) 0.10151(6) 0.51127(7)
O4_2 O 0.8342(7) 0.0238(4) 0.5925(4)
C15_3 C 0.9247(11) 0.0084(7) 0.6391(7)
Zn2_2 Zn 0.71365(9) 0.89849(6) 0.01127(7)
O1_3 O 0.7830(6) 0.7940(4) 0.0800(4)
O2_3 O 0.5697(5) 0.8222(3) 0.0041(4)
C4_3 C 0.8690(8) 0.8486(5) 0.2001(6)
C5_3 C 0.7677(10) 0.8662(6) 0.2453(7)
H1_3 H 0.6930 0.8408 0.2362
C6_3 C 0.8532(8) 0.7847(6) 0.1406(5)
C7_3 C 0.9793(9) 0.8890(7) 0.2065(7)
O12_3 O 0.8907(6) 0.9329(3) 0.0083(4)
C13_3 C 0.8899(10) 0.9606(6) 0.3121(7)
C14_3 C 0.7760(9) 0.9200(6) 0.3029(7)
H4_3 H 0.7093 0.9301 0.3353
C16_3 C 0.9874(9) 0.9453(6) 0.2675(7)
O17_2 O 0.6658(7) 0.9762(4) 0.0925(4)
O3_3 O 0.7698(7) 0.7857(5) 0.9199(5)
C1_3 C 0.8508(11) 0.7679(7) 0.8707(7)
C2_3 C 0.9834(8) 0.8813(6) 0.8104(7)
O11_3 O 0.9013(6) 0.7029(4) 0.8593(5)
C9_3 C 0.7813(10) 0.8467(7) 0.7591(7)
H2_3 H 0.7046 0.8229 0.7648
C10_3 C 0.8758(10) 0.8294(6) 0.8091(6)
C11_3 C 0.9061(9) 0.9473(6) 0.6973(7)
C12_3 C 0.8013(10) 0.9002(7) 0.7000(8)
H3_3 H 0.7428 0.9048 0.6609
C17_3 C 0.9960(10) 0.9352(7) 0.7537(7)
O16 O 0.7695(17) 0.4761(10) 0.9164(12)
O18_2 O 0.6859(7) 0.9640(4) 0.9211(5)
O23_2 O 0.4931(7) 0.9436(4) 0.8746(5)
H7_3 H 0.941209 0.8921 0.982249
H8_3 H 0.897309 0.982982 0.979278
H9 H 0.682857 0.476795 0.935175
H10 H 0.7746 0.44457 0.868226
O1_4 O 0.7170(6) 0.2060(4) 0.5800(4)
O2_4 O 0.9303(5) 0.1778(3) 0.5041(4)
O3_4 O 0.7302(7) 0.2143(5) 0.4199(5)
C1_4 C 0.6492(11) 0.2321(7) 0.3707(7)
O8_4 O 0.3379(9) 0.0776(6) 0.3730(6)
C2_4 C 0.5166(8) 0.1187(6) 0.3104(7)
C3_4 C 0.4123(9) 0.1252(6) 0.6558(6)
C4_4 C 0.6310(8) 0.1514(5) 0.7001(6)
C5_4 C 0.7323(10) 0.1338(6) 0.7453(7)
H1_4 H 0.8070 0.1592 0.7362
C6_4 C 0.6468(8) 0.2153(6) 0.6406(5)
O11_4 O 0.5987(6) 0.2971(4) 0.3593(5)
C7_4 C 0.5207(9) 0.1110(7) 0.7065(7)
C8_4 C 0.4191(10) 0.1311(7) 0.3704(8)
O12_4 O 0.6093(6) 0.0671(3) 0.5083(4)
C9_4 C 0.7187(10) 0.1533(7) 0.2591(7)
H2_4 H 0.7954 0.1771 0.2648
C10_4 C 0.6242(10) 0.1706(6) 0.3091(6)
C11_4 C 0.5939(9) 0.0527(6) 0.1973(7)
C12_4 C 0.6987(10) 0.0998(7) 0.2000(8)
H3_4 H 0.7572 0.0952 0.1609
C13_4 C 0.6101(10) 0.0394(6) 0.8121(7)
C14_4 C 0.7240(9) 0.0800(6) 0.8029(7)
H4_4 H 0.7907 0.0699 0.8353
C16_4 C 0.5126(9) 0.0547(6) 0.7675(7)
H5_4 H 0.4386 0.0286 0.7763
C17_4 C 0.5040(10) 0.0648(7) 0.2537(7)
H6_4 H 0.4326 0.0346 0.2522
O16_2 O 0.7305(17) 0.5239(10) 0.4164(12)
H7_4 H 0.558791 0.1079 0.482249
H8_4 H 0.602691 0.0170184 0.479278
H9_2 H 0.817143 0.523205 0.435175
H10_2 H 0.7254 0.55543 0.368226
C15_4 C 0.5753(11) 0.9916(7) 0.1391(7)
C18_4 C 0.6004(10) 0.9773(6) 0.8773(6)
O16_3 O 0.2305(17) 0.9761(10) 0.5836(12)
H9_3 H 0.317143 0.976795 0.564825
H10_3 H 0.2254 0.94457 0.631774
O16_4 O 0.2695(17) 0.0239(10) 0.0836(12)
H9_4 H 0.182857 0.0232049 0.0648247
H10_4 H 0.2746 0.0554305 0.131774
loop_
_geom_bond_atom_site_label_1
_geom_bond_atom_site_label_2
_geom_bond_site_symmetry_1
_geom_bond_site_symmetry_2
Zn1 O1 1_555 1_555
Zn2 O1 1_555 1_555
Zn3 O2 1_555 1_555
Zn4 O7 1_555 1_555
O1 C6 1_555 1_555
O2 Zn1 1_555 1_555
O3 Zn1 1_555 1_555
O4 C15 1_555 1_555
O5 C18 1_555 1_555
C1 O3 1_555 1_555
O7 Zn1 1_555 1_555
O10 C6 1_555 1_555
C4 C5 1_555 1_555
C5 H1 1_555 1_555
C6 C4 1_555 1_555
O11 Zn4 1_555 1_555
C7 C4 1_555 1_555
O12 Zn2 1_555 1_555
C9 H2 1_555 1_555
C10 C1 1_555 1_555
C11 C12 1_555 1_555
C12 C9 1_555 1_555
H3 C12 1_555 1_555
C13 C14 1_555 1_555
C14 C5 1_555 1_555
H4 C14 1_555 1_555
C15 C11 1_555 1_555
C16 C7 1_555 1_555
C17 C2 1_555 1_555
C18 C13 1_555 1_555
Zn6 O4 1_555 1_555
Zn8 O7 1_555 1_555
O17 Zn2 1_555 1_555
O18 Zn2 1_555 1_555
O19 Zn1 1_555 1_555
O20 Zn3 1_555 1_555
O21 Zn1 1_555 1_555
O22 Zn3 1_555 1_555
O23 Zn3 1_555 1_555
O24 Zn4 1_555 1_555
O25 Zn4 1_555 1_555
Zn2 O2 1_555 1_555
C1 O11 1_555 1_555
C2 C10 1_555 1_555
O10 Zn8 1_555 1_555
C9 C10 1_555 1_555
C11 C17 1_555 1_555
C13 C16 1_555 1_555
O12 H7 1_555 1_555
O12 H8 1_555 1_555
O6 C8 1_555 1_555
O8 C8 1_555 1_555
O9 C3 1_555 1_555
O14 C3 1_555 1_555
Zn5 O6 1_555 1_555
Zn9 O13 1_555 1_555
Zn10 O14 1_555 1_555
Zn11 O15 1_555 1_555
O9 Zn5 1_555 1_555
O3_2 Zn1_2 1_555 1_555
O17 C15_2 1_555 1_555
O6_2 C8_2 1_555 1_555
C1_2 O3_2 1_555 1_555
O8_2 C8_2 1_555 1_555
C2_2 C8_2 1_555 1_555
O11_2 Zn4_2 1_555 1_555
C9_2 H2_2 1_555 1_555
C10_2 C1_2 1_555 1_555
C11_2 C12_2 1_555 1_555
C12_2 C9_2 1_555 1_555
H3_2 C12_2 1_555 1_555
C15_2 C11_2 1_555 1_555
O15_2 C15_2 1_555 1_555
C17_2 C2_2 1_555 1_555
H6_2 C17_2 1_555 1_555
Zn10 O15_2 1_555 1_555
O21_2 Zn1_2 1_555 1_555
O24_2 Zn4_2 1_555 1_555
O25_2 Zn4_2 1_555 1_555
C1_2 O11_2 1_555 1_555
C2_2 C10_2 1_555 1_555
C9_2 C10_2 1_555 1_555
C11_2 C17_2 1_555 1_555
Zn6 O1_2 1_555 1_555
O1_2 C6_2 1_555 1_555
O18 C18_2 1_555 1_555
O9_2 C3_2 1_555 1_555
C3_2 C7_2 1_555 1_555
O10_2 C6_2 1_555 1_555
C4_2 C5_2 1_555 1_555
C5_2 H1_2 1_555 1_555
C6_2 C4_2 1_555 1_555
C7_2 C4_2 1_555 1_555
O12_2 Zn6 1_555 1_555
O23 C18_2 1_555 1_555
O14_2 C3_2 1_555 1_555
C13_2 C14_2 1_555 1_555
C14_2 C5_2 1_555 1_555
H4_2 C14_2 1_555 1_555
C16_2 C7_2 1_555 1_555
H5_2 C16_2 1_555 1_555
C18_2 C13_2 1_555 1_555
Zn8_2 O7_2 1_555 1_555
Zn11 O14_2 1_555 1_555
Zn6 O2_2 1_555 1_555
O9_2 Zn5_2 1_555 1_555
O10_2 Zn8_2 1_555 1_555
C13_2 C16_2 1_555 1_555
O20_2 Zn9 1_555 1_555
O22_2 Zn9 1_555 1_555
Zn8 O13_2 1_555 1_555
O21_2 C3_3 1_555 1_555
O24_2 C3_3 1_555 1_555
O19_2 C8_3 1_555 1_555
O8_3 C8_3 1_555 1_555
O5_2 C18_3 1_555 1_555
Zn7 O5_2 1_555 1_555
O4_2 C15_3 1_555 1_555
Zn7 O4_2 1_555 1_555
Zn2_2 O1_3 1_555 1_555
O1_3 C6_3 1_555 1_555
O22_2 C6_3 1_555 1_555
C4_3 C5_3 1_555 1_555
C5_3 H1_3 1_555 1_555
C6_3 C4_3 1_555 1_555
C7_3 C4_3 1_555 1_555
O12_3 Zn2_2 1_555 1_555
C13_3 C14_3 1_555 1_555
C14_3 C5_3 1_555 1_555
H4_3 C14_3 1_555 1_555
C16_3 C7_3 1_555 1_555
O17_2 Zn2_2 1_555 1_555
Zn2_2 O2_3 1_555 1_555
C13_3 C16_3 1_555 1_555
O3_3 Zn5_2 1_555 1_555
C1_3 O3_3 1_555 1_555
O11_3 Zn11 1_555 1_555
C9_3 H2_3 1_555 1_555
C10_3 C1_3 1_555 1_555
C11_3 C12_3 1_555 1_555
C12_3 C9_3 1_555 1_555
H3_3 C12_3 1_555 1_555
C17_3 C2_3 1_555 1_555
O16 Zn11 1_555 1_555
O23_2 Zn8_2 1_555 1_555
C1_3 O11_3 1_555 1_555
C2_3 C10_3 1_555 1_555
C9_3 C10_3 1_555 1_555
C11_3 C17_3 1_555 1_555
O16 H9 1_555 1_555
O16 H10 1_555 1_555
Zn5 O1_4 1_555 1_555
Zn7 O1_4 1_555 1_555
Zn10 O20 1_555 1_555
O1_4 C6_4 1_555 1_555
O2_4 Zn5 1_555 1_555
O3_4 Zn5 1_555 1_555
O19 C8_4 1_555 1_555
C1_4 O3_4 1_555 1_555
O20 Zn5 1_555 1_555
O8_4 C8_4 1_555 1_555
O21 C3_4 1_555 1_555
C2_4 C8_4 1_555 1_555
C3_4 C7_4 1_555 1_555
O22 C6_4 1_555 1_555
C4_4 C5_4 1_555 1_555
C5_4 H1_4 1_555 1_555
C6_4 C4_4 1_555 1_555
O11_4 Zn10 1_555 1_555
C7_4 C4_4 1_555 1_555
O12_4 Zn7 1_555 1_555
C9_4 H2_4 1_555 1_555
O24 C3_4 1_555 1_555
C10_4 C1_4 1_555 1_555
C11_4 C12_4 1_555 1_555
C12_4 C9_4 1_555 1_555
H3_4 C12_4 1_555 1_555
C13_4 C14_4 1_555 1_555
C14_4 C5_4 1_555 1_555
H4_4 C14_4 1_555 1_555
C16_4 C7_4 1_555 1_555
H5_4 C16_4 1_555 1_555
C17_4 C2_4 1_555 1_555
H6_4 C17_4 1_555 1_555
O16_2 Zn10 1_555 1_555
Zn7 O2_4 1_555 1_555
C1_4 O11_4 1_555 1_555
C2_4 C10_4 1_555 1_555
C9_4 C10_4 1_555 1_555
C11_4 C17_4 1_555 1_555
C13_4 C16_4 1_555 1_555
O12_4 H7_4 1_555 1_555
O12_4 H8_4 1_555 1_555
O16_2 H9_2 1_555 1_555
O16_2 H10_2 1_555 1_555
O17_2 C15_4 1_555 1_555
O18_2 C18_4 1_555 1_555
O23_2 C18_4 1_555 1_555
O25_2 C15_4 1_555 1_555
O16_3 H9_3 1_555 1_555
O16_3 H10_3 1_555 1_555
O16_4 H9_4 1_555 1_555
O16_4 H10_4 1_555 1_555

#END
