
###############################################################################
#
# This file contains modified crystal structure data generated from the
# MOF subset of the Cambridge Structural Database (CSD) v543 
# hosted by the Cambridge Crystallographic Data Centre (CCDC).
#
# This work is licensed under the Creative Commons
# Attribution-NonCommercial-ShareAlike 4.0 International License.
# To view a copy of this license, visit
# http://creativecommons.org/licenses/by-nc-sa/4.0/
# or send a letter to
# Creative Commons, PO Box 1866, Mountain View, CA 94042, USA.
#
# CIF created using the CSD Python API on 29 September 2022
# The structure has been converted into the P1 space group
# The structure has a 3D framework
# The original CSD entry LAJNES is in the monoclinic crystal system
# The framework has been calculated to contain at least 10.0% void space
# The void calculation uses a probe of radius 1.32A, grid spacing 0.4
# H atom positions have been added when not included in the experimental data
#
###############################################################################

data_LAJNES
_chemical_formula_moiety         '(C152 H124 Cl2 Co4 N16 O8)n'
_symmetry_cell_setting           triclinic
_symmetry_space_group_name_H-M   'P 1'
_symmetry_Int_Tables_number      1
_space_group_name_Hall           'P 1'
loop_
_symmetry_equiv_pos_site_id
_symmetry_equiv_pos_as_xyz
1 x,y,z
_cell_length_a                   10.357(2)
_cell_length_b                   28.295(6)
_cell_length_c                   12.713(3)
_cell_angle_alpha                90
_cell_angle_beta                 106.56(3)
_cell_angle_gamma                90
_cell_volume                     3571.03
loop_
_atom_site_label
_atom_site_type_symbol
_atom_site_fract_x
_atom_site_fract_y
_atom_site_fract_z
N5 N 0.6848(2) 0.53308(7) 0.77703(16)
N6 N 0.1479(2) 0.72232(7) 0.34219(16)
C44 C 0.0347(2) 0.66493(8) 0.06810(19)
H25 H 0.0103 0.6344 0.0381
C46 C 0.0668(2) 0.74751(8) 0.0447(2)
C47 C 0.5522(2) 0.60401(8) 0.74690(19)
H28 H 0.5235 0.6312 0.7779
C49 C 0.1534(2) 0.78888(8) 0.46625(19)
H29 H 0.2485 0.7861 0.4934
C52 C 0.5487(3) 0.55455(8) 0.5963(2)
H31 H 0.5186 0.5470 0.5205
C53 C 0.4187(2) 0.63491(8) 0.45123(18)
H32 H 0.4827 0.6175 0.4262
C55 C 0.2362(2) 0.69106(8) 0.41466(18)
C58 C 0.0813(2) 0.75849(8) 0.38421(19)
C59 C 0.6356(3) 0.52437(8) 0.6686(2)
H36 H 0.6621 0.4960 0.6405
C60 C 0.4135(2) 0.62891(7) 0.55874(18)
C61 C 0.3323(2) 0.66580(8) 0.38023(18)
H37 H 0.3386 0.6698 0.3077
C62 C 0.2294(2) 0.68485(9) 0.5221(2)
H38 H 0.1636 0.7015 0.5465
C65 C 0.1101(2) 0.71510(8) 0.22678(19)
C66 C 0.0862(2) 0.82327(8) 0.50842(19)
H41 H 0.1356 0.8434 0.5657
C67 C 0.5052(2) 0.59599(8) 0.63443(19)
C69 C 0.3181(2) 0.65464(8) 0.59315(19)
H42 H 0.3139 0.6514 0.6665
C71 C 0.0742(2) 0.67055(8) 0.18107(19)
H43 H 0.0768 0.6440 0.2274
C72 C 0.1066(2) 0.75345(8) 0.1574(2)
H44 H 0.1318 0.7839 0.1877
C75 C 0.6409(2) 0.57229(8) 0.81386(19)
H47 H 0.6721 0.5789 0.8902
Co6 Co 0.86292(3) 0.494645(10) 0.87197(2)
Cl2 Cl 0.90567(5) 0.543832(18) 0.02789(4)
N6_2 N 0.3521(2) 0.22232(7) 0.15781(16)
C44_2 C 0.4653(2) 0.16493(8) 0.43190(19)
H25_2 H 0.4897 0.1344 0.4619
C46_2 C 0.4332(2) 0.24751(8) 0.4553(2)
H27 H 0.4356 0.2742 0.5013
C48 C 0.5140(2) 0.19661(9) 0.6240(2)
C49_2 C 0.3466(2) 0.28888(8) 0.03375(19)
H29_2 H 0.2515 0.2861 0.0066
C50 C 0.6241(2) 0.29825(8) 0.11562(19)
H30 H 0.7189 0.3016 0.1443
C53_2 C 0.0813(2) 0.13491(8) 0.04877(18)
H32_2 H 0.0173 0.1175 0.0738
C54 C 0.7325(2) 0.38982(8) 0.06432(18)
H33 H 0.7612 0.3809 0.1395
C55_2 C 0.2638(2) 0.19106(8) 0.08534(18)
C56 C 0.7970(2) 0.42606(8) 0.02692(18)
H34 H 0.8688 0.4421 0.0779
C57 C 0.5582(2) 0.26346(8) 0.1568(2)
H35 H 0.6078 0.2430 0.2130
C58_2 C 0.4187(2) 0.25849(8) 0.11579(19)
C61_2 C 0.1677(2) 0.16580(8) 0.11977(18)
H37_2 H 0.1614 0.1698 0.1923
C63 C 0.5382(4) 0.22337(12) 0.8081(2)
H39 H 0.5248 0.2478 0.8552
C65_2 C 0.3899(2) 0.21510(8) 0.27322(19)
N8 N 0.5962(3) 0.18340(11) 0.8543(2)
C68 C 0.5531(2) 0.32856(7) 0.03250(18)
C70 C 0.4700(2) 0.20323(8) 0.50306(19)
C71_2 C 0.4258(2) 0.17055(8) 0.31893(19)
H43_2 H 0.4232 0.1440 0.2726
C72_2 C 0.3934(2) 0.25345(8) 0.3426(2)
H44_2 H 0.3682 0.2839 0.3123
C73 C 0.4963(3) 0.23151(10) 0.6963(2)
H45 H 0.4555 0.2608 0.6687
C74 C 0.6112(4) 0.14979(12) 0.7857(2)
H46 H 0.6500 0.1206 0.8161
C76 C 0.5736(3) 0.15457(10) 0.6723(2)
H48 H 0.5884 0.1294 0.6277
C35 C 0.9101(4) 0.47833(19) 0.4068(3)
C37 C 0.8062(5) 0.4569(2) 0.3090(3)
O3 O 0.96644(19) 0.52961(7) 0.77325(13)
O4 O 0.87357(17) 0.46000(6) 0.72513(13)
C39 C 0.9381(3) 0.49560(11) 0.7067(2)
C40 C 0.9745(4) 0.49828(15) 0.6014(2)
C42 C 0.8873(4) 0.47747(19) 0.5096(3)
N7 N 0.76225(18) 0.43955(6) 0.92160(15)
C45 C 0.5904(2) 0.38007(8) 0.88187(18)
H26 H 0.5189 0.3648 0.8291
C51 C 0.6253(2) 0.36622(7) 0.99170(17)
C60_2 C 0.0865(2) 0.12891(7) 0.94126(18)
C62_2 C 0.2706(2) 0.18485(9) 0.9779(2)
H38_2 H 0.3364 0.2015 0.9535
C64 C 0.6615(2) 0.41632(8) 0.85087(18)
H40 H 0.6376 0.4252 0.7757
C66_2 C 0.4138(2) 0.32327(8) 0.99158(19)
H41_2 H 0.3644 0.3434 0.9343
C69_2 C 0.1819(2) 0.15464(8) 0.90685(19)
H42_2 H 0.1861 0.1514 0.8335
H52 H 0.797506 0.459768 0.518225
H53 H 0.854061 0.430139 0.271192
H54 H 0.725971 0.440715 0.336362
H55 H 0.764103 0.484487 0.249354
H49 H 0.793537 0.41957 0.324415
H50 H 0.84022 0.460666 0.235895
H51 H 0.710378 0.475105 0.296598
H27_2 H 0.0644 0.7742 0.9987
C70_2 C 0.0300(2) 0.70323(8) 0.99694(19)
C73_2 C 0.0037(3) 0.73151(10) 0.8037(2)
H45_2 H 0.0445 0.7608 0.8313
C5 C 0.0140(2) 0.30339(9) 0.1240(2)
C21 C 0.0382(4) 0.27663(12) 0.3081(2)
H15 H 0.0248 0.2522 0.3552
N4 N 0.0962(3) 0.31660(11) 0.3543(2)
C33 C 0.1112(4) 0.35021(12) 0.2857(2)
H22 H 0.1500 0.3794 0.3161
C38 C 0.0736(3) 0.34543(10) 0.1723(2)
H24 H 0.0884 0.3706 0.1277
Co1 Co 0.36292(3) 0.005355(10) 0.37197(2)
O2 O 0.37357(17) 0.04000(6) 0.22513(13)
N3 N 0.26225(18) 0.06045(6) 0.42160(15)
C2 C 0.0904(2) 0.11993(8) 0.38187(18)
H2 H 0.0189 0.1352 0.3291
C7 C 0.1241(2) 0.20175(8) 0.61562(19)
H6 H 0.2189 0.1984 0.6443
C8 C 0.1253(2) 0.13378(7) 0.49170(17)
C11 C 0.2325(2) 0.11018(8) 0.56432(18)
H9 H 0.2612 0.1191 0.6395
C13 C 0.4381(3) 0.00440(11) 0.2067(2)
C14 C 0.2970(2) 0.07394(8) 0.52692(18)
H10 H 0.3688 0.0579 0.5779
C15 C 0.0582(2) 0.23654(8) 0.6568(2)
H11 H 0.1078 0.2570 0.7130
C22 C 0.1615(2) 0.08368(8) 0.35087(18)
H16 H 0.1376 0.0748 0.2757
C26 C 0.0531(2) 0.17144(7) 0.53250(18)
C32 C 0.4745(4) 0.00172(15) 0.1014(2)
C36 C 0.3873(4) 0.02253(19) 0.0096(3)
Cl4 Cl 0.59433(5) 0.043832(18) 0.47211(4)
H56 H 0.297506 0.0402321 0.018225
O3_2 O 0.53356(19) 0.02961(7) 0.72675(13)
C41 C 0.4101(4) 0.02167(19) 0.9068(3)
C43 C 0.3062(5) 0.0431(2) 0.8090(3)
N10 N 0.8152(2) 0.03308(7) 0.72297(16)
H49_2 H 0.293537 0.08043 0.824415
H50_2 H 0.34022 0.0393341 0.735895
H51_2 H 0.210378 0.0248946 0.796598
H12 H 0.1621 0.0040 0.1405
C47_2 C 0.9478(2) 0.10401(8) 0.75310(19)
H28_2 H 0.9765 0.1312 0.7221
C52_2 C 0.9513(3) 0.05455(8) 0.9037(2)
H31_2 H 0.9814 0.0470 0.9795
C59_2 C 0.8644(3) 0.02437(8) 0.8314(2)
C67_2 C 0.9948(2) 0.09599(8) 0.86557(19)
C75_2 C 0.8591(2) 0.07229(8) 0.68614(19)
H47_2 H 0.8279 0.0789 0.6098
H53_2 H 0.354061 0.0698609 0.771192
H54_2 H 0.225971 0.0592848 0.836362
H55_2 H 0.264103 0.0155128 0.749354
Cl1 Cl 0.40567(5) 0.956168(18) 0.52789(4)
O1 O 0.46644(19) 0.97039(7) 0.27325(13)
C35_2 C 0.5899(4) 0.97833(19) 0.0932(3)
C37_2 C 0.6938(5) 0.9569(2) 0.1910(3)
Co5 Co 0.63708(3) 0.994645(10) 0.62803(2)
N9 N 0.1848(2) 0.96692(7) 0.27703(16)
H53_3 H 0.645939 0.930139 0.228808
H54_3 H 0.774029 0.940715 0.163638
H55_3 H 0.735897 0.984487 0.250646
O4_2 O 0.62643(17) 0.96000(6) 0.77487(13)
C39_2 C 0.5619(3) 0.99560(11) 0.7933(2)
C40_2 C 0.5255(4) 0.99828(15) 0.8986(2)
C42_2 C 0.6127(4) 0.97747(19) 0.9904(3)
N7_2 N 0.73775(18) 0.93955(6) 0.57840(15)
C45_2 C 0.9096(2) 0.88007(8) 0.61813(18)
H26_2 H 0.9811 0.8648 0.6709
C50_2 C 0.8759(2) 0.79825(8) 0.38438(19)
H30_2 H 0.7811 0.8016 0.3557
C51_2 C 0.8747(2) 0.86622(7) 0.50830(17)
C54_2 C 0.7675(2) 0.88982(8) 0.43568(18)
H33_2 H 0.7388 0.8809 0.3605
C56_2 C 0.7030(2) 0.92606(8) 0.47308(18)
H34_2 H 0.6312 0.9421 0.4221
C57_2 C 0.9418(2) 0.76346(8) 0.3432(2)
H35_2 H 0.8922 0.7430 0.2870
C64_2 C 0.8385(2) 0.91632(8) 0.64913(18)
H40_2 H 0.8624 0.9252 0.7243
C68_2 C 0.9469(2) 0.82856(7) 0.46750(18)
H52_2 H 0.702494 0.959768 0.981775
C4 C 0.0522(2) 0.89599(8) 0.24690(19)
H4 H 0.0235 0.8688 0.2779
C9 C 0.0487(3) 0.94545(8) 0.0963(2)
H7 H 0.0186 0.9530 0.0205
C17 C 0.1356(3) 0.97563(8) 0.1686(2)
C25 C 0.0052(2) 0.90401(8) 0.13443(19)
C34 C 0.1409(2) 0.92771(8) 0.31386(19)
H23 H 0.1721 0.9211 0.3902
H36_2 H 0.8379 0.9960 0.8595
H49_3 H 0.706463 0.91957 0.175585
H50_3 H 0.65978 0.960666 0.264105
H51_3 H 0.789622 0.975105 0.203402
C48_2 C 0.9860(2) 0.69661(9) 0.8760(2)
C63_2 C 0.9618(4) 0.72337(12) 0.6919(2)
H39_2 H 0.9752 0.7478 0.6448
N8_2 N 0.9038(3) 0.68340(11) 0.6457(2)
C74_2 C 0.8888(4) 0.64979(12) 0.7143(2)
H46_2 H 0.8500 0.6206 0.6839
C76_2 C 0.9264(3) 0.65457(10) 0.8277(2)
H48_2 H 0.9116 0.6294 0.8723
H3 H 0.9356 0.2258 0.0013
C28 C 0.9700(2) 0.29677(8) 0.00306(19)
C31 C 0.9963(3) 0.26849(10) 0.1963(2)
H21 H 0.9555 0.2392 0.1687
N1 N 0.3152(2) 0.46692(7) 0.22297(16)
N2 N 0.8521(2) 0.27768(7) 0.65781(16)
C1 C 0.9653(2) 0.33507(8) 0.93190(19)
H1 H 0.9897 0.3656 0.9619
C3 C 0.9332(2) 0.25249(8) 0.9553(2)
C4_2 C 0.4478(2) 0.39599(8) 0.25310(19)
H4_2 H 0.4765 0.3688 0.2221
C6 C 0.8466(2) 0.21112(8) 0.53375(19)
H5 H 0.7515 0.2139 0.5066
C9_2 C 0.4513(3) 0.44545(8) 0.4037(2)
H7_2 H 0.4814 0.4530 0.4795
C10 C 0.5813(2) 0.36509(8) 0.54877(18)
H8 H 0.5173 0.3825 0.5738
C12 C 0.7638(2) 0.30894(8) 0.58534(18)
C16 C 0.9187(2) 0.24151(8) 0.61579(19)
C17_2 C 0.3644(3) 0.47563(8) 0.3314(2)
H12_2 H 0.3379 0.5040 0.3595
C18 C 0.5865(2) 0.37109(7) 0.44126(18)
C19 C 0.6677(2) 0.33420(8) 0.61977(18)
H13 H 0.6614 0.3302 0.6923
C20 C 0.7706(2) 0.31515(9) 0.4779(2)
H14 H 0.8364 0.2985 0.4535
C23 C 0.8899(2) 0.28490(8) 0.77322(19)
C24 C 0.9138(2) 0.17673(8) 0.49158(19)
H17 H 0.8644 0.1566 0.4343
C25_2 C 0.4948(2) 0.40401(8) 0.36557(19)
C27 C 0.6819(2) 0.34536(8) 0.40685(19)
H18 H 0.6861 0.3486 0.3335
C29 C 0.9258(2) 0.32945(8) 0.81893(19)
H19 H 0.9232 0.3560 0.7726
C30 C 0.8934(2) 0.24655(8) 0.8426(2)
H20 H 0.8682 0.2161 0.8123
C34_2 C 0.3591(2) 0.42771(8) 0.18614(19)
H23_2 H 0.3279 0.4211 0.1098
Co4 Co 0.13708(3) 0.505355(10) 0.12803(2)
O1_2 O 0.03356(19) 0.47039(7) 0.22675(13)
O2_2 O 0.12643(17) 0.54000(6) 0.27487(13)
N3_2 N 0.23775(18) 0.56045(6) 0.07840(15)
C2_2 C 0.4096(2) 0.61993(8) 0.11813(18)
H2_2 H 0.4811 0.6352 0.1709
C8_2 C 0.3747(2) 0.63378(7) 0.00830(17)
C13_2 C 0.0619(3) 0.50440(11) 0.2933(2)
C18_2 C 0.9135(2) 0.87109(7) 0.05874(18)
C20_2 C 0.7294(2) 0.81515(9) 0.0221(2)
H14_2 H 0.6636 0.7985 0.0465
C22_2 C 0.3385(2) 0.58368(8) 0.14913(18)
H16_2 H 0.3624 0.5748 0.2243
C24_2 C 0.5862(2) 0.67673(8) 0.00842(19)
H17_2 H 0.6356 0.6566 0.0657
C27_2 C 0.8181(2) 0.84536(8) 0.09315(19)
H18_2 H 0.8139 0.8486 0.1665
C32_2 C 0.0255(4) 0.50172(15) 0.3986(2)
C36_2 C 0.1127(4) 0.52253(19) 0.4904(3)
C41_2 C 0.0899(4) 0.52167(19) 0.5932(3)
C43_2 C 0.1938(5) 0.5431(2) 0.6910(3)
Cl3 Cl 0.09433(5) 0.456168(18) 0.97211(4)
H49_4 H 0.206463 0.58043 0.675585
H50_4 H 0.15978 0.539334 0.764105
H51_4 H 0.289622 0.524895 0.703402
H56_2 H 0.202494 0.540232 0.481775
N2_2 N 0.6479(2) 0.77768(7) 0.84219(16)
C1_2 C 0.5347(2) 0.83507(8) 0.56810(19)
H1_2 H 0.5103 0.8656 0.5381
C3_2 C 0.5668(2) 0.75249(8) 0.5447(2)
H3_2 H 0.5644 0.7258 0.4987
C5_2 C 0.4860(2) 0.80339(9) 0.3760(2)
C6_2 C 0.6534(2) 0.71112(8) 0.96625(19)
H5_2 H 0.7485 0.7139 0.9934
C7_2 C 0.3759(2) 0.70175(8) 0.88438(19)
H6_2 H 0.2811 0.6984 0.8557
C10_2 C 0.9187(2) 0.86509(8) 0.95123(18)
H8_2 H 0.9827 0.8825 0.9262
C11_2 C 0.2675(2) 0.61018(8) 0.93568(18)
H9_2 H 0.2388 0.6191 0.8605
C12_2 C 0.7362(2) 0.80894(8) 0.91466(18)
C14_2 C 0.2030(2) 0.57394(8) 0.97308(18)
H10_2 H 0.1312 0.5579 0.9221
C15_2 C 0.4418(2) 0.73654(8) 0.8432(2)
H11_2 H 0.3922 0.7570 0.7870
C16_2 C 0.5813(2) 0.74151(8) 0.88421(19)
C19_2 C 0.8323(2) 0.83420(8) 0.88023(18)
H13_2 H 0.8386 0.8302 0.8077
C21_2 C 0.4618(4) 0.77663(12) 0.1919(2)
H15_2 H 0.4752 0.7522 0.1448
C23_2 C 0.6101(2) 0.78490(8) 0.72678(19)
N4_2 N 0.4038(3) 0.81660(11) 0.1457(2)
C26_2 C 0.4469(2) 0.67144(7) 0.96750(18)
C28_2 C 0.5300(2) 0.79677(8) 0.49694(19)
C29_2 C 0.5742(2) 0.82945(8) 0.68107(19)
H19_2 H 0.5768 0.8560 0.7274
C30_2 C 0.6066(2) 0.74655(8) 0.6574(2)
H20_2 H 0.6318 0.7161 0.6877
C31_2 C 0.5037(3) 0.76849(10) 0.3037(2)
H21_2 H 0.5445 0.7392 0.3313
C33_2 C 0.3888(4) 0.85021(12) 0.2143(2)
H22_2 H 0.3500 0.8794 0.1839
C38_2 C 0.4264(3) 0.84543(10) 0.3277(2)
H24_2 H 0.4116 0.8706 0.3723
H53_4 H 0.145939 0.569861 0.728808
H54_4 H 0.274029 0.559285 0.663638
H55_4 H 0.235897 0.515513 0.750646
loop_
_geom_bond_atom_site_label_1
_geom_bond_atom_site_label_2
_geom_bond_site_symmetry_1
_geom_bond_site_symmetry_2
N5 C59 1_555 1_555
N6 C55 1_555 1_555
C44 H25 1_555 1_555
C47 H28 1_555 1_555
C49 H29 1_555 1_555
C52 H31 1_555 1_555
C53 H32 1_555 1_555
C55 C61 1_555 1_555
C58 N6 1_555 1_555
C59 C52 1_555 1_555
H36 C59 1_555 1_555
C60 C53 1_555 1_555
C61 C53 1_555 1_555
H37 C61 1_555 1_555
C62 C55 1_555 1_555
H38 C62 1_555 1_555
C65 N6 1_555 1_555
C66 C49 1_555 1_555
H41 C66 1_555 1_555
C67 C47 1_555 1_555
C69 C60 1_555 1_555
H42 C69 1_555 1_555
C71 C44 1_555 1_555
H43 C71 1_555 1_555
C72 C46 1_555 1_555
H44 C72 1_555 1_555
C75 N5 1_555 1_555
H47 C75 1_555 1_555
Co6 N5 1_555 1_555
C47 C75 1_555 1_555
C49 C58 1_555 1_555
C52 C67 1_555 1_555
C60 C67 1_555 1_555
C62 C69 1_555 1_555
C65 C71 1_555 1_555
C65 C72 1_555 1_555
N6_2 C55_2 1_555 1_555
C44_2 H25_2 1_555 1_555
C46_2 H27 1_555 1_555
C48 C70 1_555 1_555
C49_2 H29_2 1_555 1_555
C50 H30 1_555 1_555
C53_2 H32_2 1_555 1_555
H33 C54 1_555 1_555
C55_2 C61_2 1_555 1_555
H34 C56 1_555 1_555
C57 C50 1_555 1_555
H35 C57 1_555 1_555
C58_2 N6_2 1_555 1_555
C61_2 C53_2 1_555 1_555
H37_2 C61_2 1_555 1_555
C63 H39 1_555 1_555
C65_2 N6_2 1_555 1_555
N8 C63 1_555 1_555
C68 C50 1_555 1_555
C70 C44_2 1_555 1_555
C71_2 C44_2 1_555 1_555
H43_2 C71_2 1_555 1_555
C72_2 C46_2 1_555 1_555
H44_2 C72_2 1_555 1_555
C73 C48 1_555 1_555
H45 C73 1_555 1_555
C74 N8 1_555 1_555
H46 C74 1_555 1_555
C76 C48 1_555 1_555
H48 C76 1_555 1_555
C46_2 C70 1_555 1_555
C49_2 C58_2 1_555 1_555
C54 C56 1_555 1_555
C57 C58_2 1_555 1_555
C63 C73 1_555 1_555
C65_2 C71_2 1_555 1_555
C65_2 C72_2 1_555 1_555
C74 C76 1_555 1_555
C37 C35 1_555 1_555
O3 C39 1_555 1_555
O4 C39 1_555 1_555
C39 C40 1_555 1_555
C42 C35 1_555 1_555
Co6 O3 1_555 1_555
N7 Co6 1_555 1_555
C45 H26 1_555 1_555
C51 C45 1_555 1_555
H38_2 C62_2 1_555 1_555
C64 N7 1_555 1_555
H40 C64 1_555 1_555
H41_2 C66_2 1_555 1_555
C69_2 C60_2 1_555 1_555
H42_2 C69_2 1_555 1_555
O4 Co6 1_555 1_555
C40 C42 1_555 1_555
C45 C64 1_555 1_555
C62_2 C69_2 1_555 1_555
C42 H52 1_555 1_555
C37 H53 1_555 1_555
C37 H54 1_555 1_555
C37 H55 1_555 1_555
C37 H49 1_555 1_555
C37 H50 1_555 1_555
C37 H51 1_555 1_555
H45_2 C73_2 1_555 1_555
C21 H15 1_555 1_555
N4 C21 1_555 1_555
C33 N4 1_555 1_555
H22 C33 1_555 1_555
C38 C5 1_555 1_555
H24 C38 1_555 1_555
C33 C38 1_555 1_555
O2 Co1 1_555 1_555
N3 Co1 1_555 1_555
C2 H2 1_555 1_555
C7 H6 1_555 1_555
C8 C2 1_555 1_555
C11 C8 1_555 1_555
H9 C11 1_555 1_555
C14 N3 1_555 1_555
H10 C14 1_555 1_555
C15 C7 1_555 1_555
H11 C15 1_555 1_555
C22 N3 1_555 1_555
H16 C22 1_555 1_555
C26 C7 1_555 1_555
C32 C13 1_555 1_555
C36 C32 1_555 1_555
Cl4 Co1 1_555 1_555
O2 C13 1_555 1_555
C2 C22 1_555 1_555
C8 C26 1_555 1_555
C11 C14 1_555 1_555
C36 H56 1_555 1_555
C43 C41 1_555 1_555
C43 H49_2 1_555 1_555
C43 H50_2 1_555 1_555
C43 H51_2 1_555 1_555
N10 C59_2 1_555 1_555
C47_2 H28_2 1_555 1_555
C52_2 H31_2 1_555 1_555
C59_2 C52_2 1_555 1_555
C67_2 C47_2 1_555 1_555
C75_2 N10 1_555 1_555
H47_2 C75_2 1_555 1_555
C47_2 C75_2 1_555 1_555
C52_2 C67_2 1_555 1_555
C43 H53_2 1_555 1_555
C43 H54_2 1_555 1_555
C43 H55_2 1_555 1_555
Cl1 Co5 1_555 1_555
C37_2 C35_2 1_555 1_555
C37_2 H53_3 1_555 1_555
C37_2 H54_3 1_555 1_555
C37_2 H55_3 1_555 1_555
O4_2 C39_2 1_555 1_555
C39_2 C40_2 1_555 1_555
N7_2 Co5 1_555 1_555
C45_2 H26_2 1_555 1_555
C50_2 H30_2 1_555 1_555
C51_2 C45_2 1_555 1_555
C54_2 C51_2 1_555 1_555
H33_2 C54_2 1_555 1_555
C56_2 N7_2 1_555 1_555
H34_2 C56_2 1_555 1_555
C57_2 C50_2 1_555 1_555
H35_2 C57_2 1_555 1_555
C64_2 N7_2 1_555 1_555
H40_2 C64_2 1_555 1_555
C68_2 C50_2 1_555 1_555
O4_2 Co5 1_555 1_555
C40_2 C42_2 1_555 1_555
C45_2 C64_2 1_555 1_555
C51_2 C68_2 1_555 1_555
C54_2 C56_2 1_555 1_555
C42_2 H52_2 1_555 1_555
N9 C17 1_555 1_555
C4 H4 1_555 1_555
C9 H7 1_555 1_555
C17 C9 1_555 1_555
C25 C4 1_555 1_555
C34 N9 1_555 1_555
H23 C34 1_555 1_555
C4 C34 1_555 1_555
C9 C25 1_555 1_555
C37_2 H49_3 1_555 1_555
C37_2 H50_3 1_555 1_555
C37_2 H51_3 1_555 1_555
C63_2 H39_2 1_555 1_555
N8_2 C63_2 1_555 1_555
C74_2 N8_2 1_555 1_555
H46_2 C74_2 1_555 1_555
C76_2 C48_2 1_555 1_555
H48_2 C76_2 1_555 1_555
C74_2 C76_2 1_555 1_555
H21 C31 1_555 1_555
N1 C17_2 1_555 1_555
N2 C12 1_555 1_555
C1 H1 1_555 1_555
C4_2 H4_2 1_555 1_555
C6 H5 1_555 1_555
C9_2 H7_2 1_555 1_555
C10 H8 1_555 1_555
C12 C19 1_555 1_555
C16 N2 1_555 1_555
C17_2 C9_2 1_555 1_555
H12_2 C17_2 1_555 1_555
C18 C10 1_555 1_555
C19 C10 1_555 1_555
H13 C19 1_555 1_555
C20 C12 1_555 1_555
H14 C20 1_555 1_555
C23 N2 1_555 1_555
C24 C6 1_555 1_555
H17 C24 1_555 1_555
C25_2 C4_2 1_555 1_555
C27 C18 1_555 1_555
H18 C27 1_555 1_555
C29 C1 1_555 1_555
H19 C29 1_555 1_555
C30 C3 1_555 1_555
H20 C30 1_555 1_555
C34_2 N1 1_555 1_555
H23_2 C34_2 1_555 1_555
Co4 N1 1_555 1_555
C4_2 C34_2 1_555 1_555
C6 C16 1_555 1_555
C9_2 C25_2 1_555 1_555
C18 C25_2 1_555 1_555
C20 C27 1_555 1_555
C23 C29 1_555 1_555
C23 C30 1_555 1_555
O1_2 Co4 1_555 1_555
O2_2 Co4 1_555 1_555
N3_2 Co4 1_555 1_555
C2_2 H2_2 1_555 1_555
C8_2 C2_2 1_555 1_555
C13_2 O1_2 1_555 1_555
H14_2 C20_2 1_555 1_555
C22_2 N3_2 1_555 1_555
H16_2 C22_2 1_555 1_555
H17_2 C24_2 1_555 1_555
C27_2 C18_2 1_555 1_555
H18_2 C27_2 1_555 1_555
C32_2 C13_2 1_555 1_555
C36_2 C32_2 1_555 1_555
C41_2 C36_2 1_555 1_555
C43_2 C41_2 1_555 1_555
O2_2 C13_2 1_555 1_555
C2_2 C22_2 1_555 1_555
C20_2 C27_2 1_555 1_555
C43_2 H49_4 1_555 1_555
C43_2 H50_4 1_555 1_555
C43_2 H51_4 1_555 1_555
C36_2 H56_2 1_555 1_555
N2_2 C12_2 1_555 1_555
C1_2 H1_2 1_555 1_555
C3_2 H3_2 1_555 1_555
C5_2 C28_2 1_555 1_555
C6_2 H5_2 1_555 1_555
C7_2 H6_2 1_555 1_555
C10_2 H8_2 1_555 1_555
H9_2 C11_2 1_555 1_555
C12_2 C19_2 1_555 1_555
H10_2 C14_2 1_555 1_555
C15_2 C7_2 1_555 1_555
H11_2 C15_2 1_555 1_555
C16_2 N2_2 1_555 1_555
C19_2 C10_2 1_555 1_555
H13_2 C19_2 1_555 1_555
C21_2 H15_2 1_555 1_555
C23_2 N2_2 1_555 1_555
N4_2 C21_2 1_555 1_555
C26_2 C7_2 1_555 1_555
C28_2 C1_2 1_555 1_555
C29_2 C1_2 1_555 1_555
H19_2 C29_2 1_555 1_555
C30_2 C3_2 1_555 1_555
H20_2 C30_2 1_555 1_555
C31_2 C5_2 1_555 1_555
H21_2 C31_2 1_555 1_555
C33_2 N4_2 1_555 1_555
H22_2 C33_2 1_555 1_555
C38_2 C5_2 1_555 1_555
H24_2 C38_2 1_555 1_555
C3_2 C28_2 1_555 1_555
C6_2 C16_2 1_555 1_555
C11_2 C14_2 1_555 1_555
C15_2 C16_2 1_555 1_555
C21_2 C31_2 1_555 1_555
C23_2 C29_2 1_555 1_555
C23_2 C30_2 1_555 1_555
C33_2 C38_2 1_555 1_555
C43_2 H53_4 1_555 1_555
C43_2 H54_4 1_555 1_555
C43_2 H55_4 1_555 1_555

#END
