
###############################################################################
#
# This file contains modified crystal structure data generated from the
# MOF subset of the Cambridge Structural Database (CSD) v543 
# hosted by the Cambridge Crystallographic Data Centre (CCDC).
#
# This work is licensed under the Creative Commons
# Attribution-NonCommercial-ShareAlike 4.0 International License.
# To view a copy of this license, visit
# http://creativecommons.org/licenses/by-nc-sa/4.0/
# or send a letter to
# Creative Commons, PO Box 1866, Mountain View, CA 94042, USA.
#
# CIF created using the CSD Python API on 29 September 2022
# The structure has been converted into the P1 space group
# The structure has a 3D framework
# The original CSD entry LAJNAO is in the monoclinic crystal system
# The framework has been calculated to contain at least 10.0% void space
# The void calculation uses a probe of radius 1.32A, grid spacing 0.4
#
###############################################################################

data_LAJNAO
_chemical_formula_moiety         '(C148 H104 Cl4 Co4 N16 O8)n'
_symmetry_cell_setting           triclinic
_symmetry_space_group_name_H-M   'P 1'
_symmetry_Int_Tables_number      1
_space_group_name_Hall           'P 1'
loop_
_symmetry_equiv_pos_site_id
_symmetry_equiv_pos_as_xyz
1 x,y,z
_cell_length_a                   10.317(2)
_cell_length_b                   28.340(6)
_cell_length_c                   12.500(3)
_cell_angle_alpha                90
_cell_angle_beta                 108.99(3)
_cell_angle_gamma                90
_cell_volume                     3455.89
loop_
_atom_site_label
_atom_site_type_symbol
_atom_site_fract_x
_atom_site_fract_y
_atom_site_fract_z
C2 C 0.5335(2) 0.44666(7) 0.58595(18)
H2 H 0.5065 0.4528 0.5087
C3 C 0.6251(2) 0.47637(7) 0.66161(18)
H3 H 0.6563 0.5028 0.6334
N2 N 0.11972(17) 0.27974(6) 0.31825(13)
C10 C 0.05899(19) 0.24261(6) 0.36132(15)
C12 C 0.08292(19) 0.28641(6) 0.19952(15)
N3 N 0.67126(16) 0.46886(6) 0.77435(14)
C14 C 0.0535(2) 0.33115(6) 0.15201(16)
H9 H 0.0587 0.3572 0.1983
C16 C 0.1927(2) 0.32109(7) 0.49956(16)
H10 H 0.1224 0.3067 0.5190
C19 C 0.01656(19) 0.33692(6) 0.03581(16)
C21 C 0.38637(19) 0.37441(6) 0.54708(15)
C22 C 0.07717(18) 0.17955(6) 0.49478(15)
H14 H 0.1308 0.1613 0.5547
C26 C 0.13821(18) 0.21469(6) 0.45040(16)
H17 H 0.2323 0.2196 0.4802
C27 C 0.3987(2) 0.36575(7) 0.44099(16)
H18 H 0.4669 0.3810 0.4204
C29 C 0.3115(2) 0.33483(7) 0.36593(16)
H20 H 0.3223 0.3292 0.2960
C30 C 0.0385(2) 0.25395(7) 0.01287(16)
C31 C 0.48145(19) 0.40719(6) 0.62658(16)
C32 C 0.0758(2) 0.24784(6) 0.12832(16)
H22 H 0.0963 0.2178 0.1590
C33 C 0.2825(2) 0.35142(7) 0.57509(16)
H23 H 0.2732 0.3565 0.6457
C34 C 0.5285(2) 0.39998(7) 0.74305(16)
H24 H 0.4972 0.3743 0.7742
C35 C 0.6218(2) 0.43106(8) 0.81236(16)
H25 H 0.6520 0.4254 0.8898
C37 C 0.20749(19) 0.31197(6) 0.39420(15)
Co3 Co 0.85563(2) 0.505840(8) 0.871593(19)
N1 N 0.6351(2) 0.81884(8) 0.90021(16)
C1 C 0.5263(2) 0.77045(8) 0.73657(18)
H1 H 0.4853 0.7418 0.7090
C4 C 0.5752(3) 0.77883(9) 0.85228(19)
H4 H 0.5655 0.7548 0.8999
C5 C 0.6441(3) 0.85255(9) 0.82834(19)
H5 H 0.6828 0.8812 0.8586
N2_2 N 0.38028(17) 0.77974(6) 0.18175(13)
C10_2 C 0.44101(19) 0.74261(6) 0.13868(15)
C11 C 0.62966(17) 0.63304(6) 0.00525(14)
C12_2 C 0.41708(19) 0.78641(6) 0.30048(15)
C13 C 0.64189(18) 0.69911(6) 0.13922(15)
H8 H 0.7358 0.6940 0.1698
C14_2 C 0.4465(2) 0.83115(6) 0.34799(16)
H9_2 H 0.4413 0.8572 0.3017
C15 C 0.49311(18) 0.79854(6) 0.53697(15)
C16_2 C 0.3073(2) 0.82109(7) 0.00044(16)
C17 C 0.53924(19) 0.80554(7) 0.66156(16)
C18 C 0.73448(19) 0.60643(7) 0.07919(15)
H11 H 0.7635 0.6129 0.1563
C19_2 C 0.48344(19) 0.83692(6) 0.46419(16)
H12 H 0.5023 0.8671 0.4946
C20 C 0.79522(19) 0.57051(7) 0.03790(15)
H13 H 0.8647 0.5531 0.0886
C22_2 C 0.42283(18) 0.67955(6) 0.00522(15)
C25 C 0.56406(17) 0.67121(6) 0.04942(14)
C26_2 C 0.36179(18) 0.71469(6) 0.04960(16)
H17_2 H 0.2677 0.7196 0.0198
C27_2 C 0.1013(2) 0.86575(7) 0.05901(16)
H18_2 H 0.0331 0.8810 0.0796
C28 C 0.58147(19) 0.73441(7) 0.18357(16)
H19 H 0.6349 0.7527 0.2435
C29_2 C 0.1885(2) 0.83483(7) 0.13407(16)
H20_2 H 0.1777 0.8292 0.2040
C30_2 C 0.4615(2) 0.75395(7) 0.48713(16)
H21 H 0.4657 0.7278 0.5331
C32_2 C 0.4242(2) 0.74784(6) 0.37168(16)
H22_2 H 0.4037 0.7178 0.3410
C36 C 0.5996(2) 0.84763(8) 0.71171(17)
H26 H 0.6100 0.8725 0.6666
C37_2 C 0.29251(19) 0.81197(6) 0.10580(15)
Cl2 Cl 0.90891(4) 0.455371(15) 0.02943(4)
O1 O 0.95054(15) 0.46935(5) 0.76829(11)
O2 O 0.86634(15) 0.54073(5) 0.72276(11)
C6 C 0.9264(2) 0.50451(7) 0.70219(15)
C7 C 0.9652(2) 0.50239(7) 0.59745(16)
C8 C 0.9356(2) 0.54022(7) 0.52295(16)
H6 H 0.8924 0.5669 0.5386
H10_2 H 0.3776 0.8067 0.9810
N4 N 0.75801(15) 0.55979(5) 0.92751(12)
C21_2 C 0.11363(19) 0.87441(6) 0.95292(15)
H14_2 H 0.3692 0.6613 0.9453
C23 C 0.59108(18) 0.62167(6) 0.89080(15)
H15 H 0.5212 0.6383 0.8383
C24 C 0.65770(18) 0.58537(6) 0.85603(15)
H16 H 0.6315 0.5784 0.7792
C31_2 C 0.01855(19) 0.90719(6) 0.87342(16)
C33_2 C 0.2175(2) 0.85142(7) 0.92491(16)
H23_2 H 0.2268 0.8565 0.8543
H24_2 H 0.0028 0.8743 0.7258
C41 C 0.9708(2) 0.53797(7) 0.42512(16)
H28 H 0.9519 0.5632 0.3749
H1_2 H 0.0147 0.2418 0.7910
C15_2 C 0.00689(18) 0.29854(6) 0.96303(15)
H21_2 H 0.0343 0.2278 0.9669
O3 O 0.45054(15) 0.03065(5) 0.26829(11)
C41_2 C 0.5292(2) 0.03797(7) 0.07488(16)
H28_2 H 0.5481 0.0632 0.1251
O2_2 O 0.63366(15) 0.04073(5) 0.77724(11)
C6_2 C 0.5736(2) 0.00451(7) 0.79781(15)
C7_2 C 0.5348(2) 0.00239(7) 0.90255(16)
C8_2 C 0.5644(2) 0.04022(7) 0.97705(16)
H6_2 H 0.6076 0.0669 0.9614
Co1 Co 0.64437(2) 0.005840(8) 0.628407(19)
Cl1 Cl 0.40891(4) 0.044629(15) 0.52943(4)
C11_2 C 0.87034(17) 0.13304(6) 0.49475(14)
C13_2 C 0.85811(18) 0.19911(6) 0.36078(15)
H8_2 H 0.7642 0.1940 0.3302
C18_2 C 0.76552(19) 0.10643(7) 0.42081(15)
H11_2 H 0.7365 0.1129 0.3437
H12_2 H 0.9977 0.3671 0.0054
C20_2 C 0.70478(19) 0.07051(7) 0.46210(15)
H13_2 H 0.6353 0.0531 0.4114
N4_2 N 0.74199(15) 0.05979(5) 0.57249(12)
C23_2 C 0.90892(18) 0.12167(6) 0.60920(15)
H15_2 H 0.9788 0.1383 0.6617
C24_2 C 0.84230(18) 0.08537(6) 0.64397(15)
H16_2 H 0.8685 0.0784 0.7208
C25_2 C 0.93594(17) 0.17121(6) 0.45058(14)
C28_2 C 0.91853(19) 0.23441(7) 0.31643(16)
H19_2 H 0.8651 0.2527 0.2565
N10 N 0.17126(16) 0.03114(6) 0.27435(14)
N1_2 N 0.8649(2) 0.31884(8) 0.59979(16)
C1_2 C 0.9737(2) 0.27045(8) 0.76343(18)
C4_2 C 0.9248(3) 0.27883(9) 0.64772(19)
H4_2 H 0.9345 0.2548 0.6001
C5_2 C 0.8559(3) 0.35255(9) 0.67166(19)
H5_2 H 0.8172 0.3812 0.6414
C17_2 C 0.96076(19) 0.30554(7) 0.83844(16)
C36_2 C 0.9004(2) 0.34763(8) 0.78829(17)
H26_2 H 0.8900 0.3725 0.8334
C43 C 0.0335(2) 0.05334(7) 0.08595(18)
H30 H 0.0065 0.0472 0.0087
C44 C 0.1251(2) 0.02363(7) 0.16161(18)
C71 C 0.0285(2) 0.10002(7) 0.24305(16)
C72 C 0.1218(2) 0.06894(8) 0.31236(16)
H51 H 0.1520 0.0746 0.3898
H3_2 H 0.8437 0.0028 0.8666
O4 O 0.36634(15) 0.95927(5) 0.22276(11)
C38 C 0.4264(2) 0.99549(7) 0.20219(15)
C39 C 0.4652(2) 0.99761(7) 0.09745(16)
C40 C 0.4356(2) 0.95978(7) 0.02295(16)
H27 H 0.3924 0.9331 0.0386
N5 N 0.1351(2) 0.68116(8) 0.40021(16)
C42 C 0.0263(2) 0.72955(8) 0.23657(18)
C45 C 0.0752(3) 0.72117(9) 0.35228(19)
H32 H 0.0655 0.7452 0.3999
C46 C 0.1441(3) 0.64745(9) 0.32834(19)
H33 H 0.1828 0.6188 0.3586
C54 C 0.03924(19) 0.69446(7) 0.16156(16)
C73 C 0.0996(2) 0.65237(8) 0.21171(17)
H52 H 0.1100 0.6275 0.1666
Co4 Co 0.35563(2) 0.994160(8) 0.371593(19)
O1_2 O 0.54946(15) 0.96935(5) 0.73171(11)
C9 C 0.4708(2) 0.96203(7) 0.92512(16)
H7 H 0.4519 0.9368 0.8749
Cl2_2 Cl 0.59109(4) 0.955371(15) 0.47057(4)
C48 C 0.12966(17) 0.86696(6) 0.50525(14)
C50 C 0.14189(18) 0.80089(6) 0.63922(15)
H34 H 0.2358 0.8060 0.6698
C55 C 0.23448(19) 0.89357(7) 0.57919(15)
H37 H 0.2635 0.8871 0.6563
H38 H 0.0023 0.6329 0.9946
C57 C 0.29522(19) 0.92949(7) 0.53790(15)
H39 H 0.3647 0.9469 0.5886
N8 N 0.25801(15) 0.94021(5) 0.42751(12)
C60 C 0.09108(18) 0.87833(6) 0.39080(15)
H41 H 0.0212 0.8617 0.3383
C61 C 0.15770(18) 0.91463(6) 0.35603(15)
H42 H 0.1315 0.9216 0.2792
C62 C 0.06406(17) 0.82879(6) 0.54942(14)
C65 C 0.08147(19) 0.76559(7) 0.68357(16)
H45 H 0.1349 0.7473 0.7435
N9 N 0.82874(16) 0.96886(6) 0.72565(14)
H31 H 0.1563 0.9972 0.1334
C2_2 C 0.9665(2) 0.94666(7) 0.91405(18)
H2_2 H 0.9935 0.9528 0.9913
C3_2 C 0.8749(2) 0.97637(7) 0.83839(18)
C34_2 C 0.9715(2) 0.89998(7) 0.75695(16)
C35_2 C 0.8782(2) 0.93106(8) 0.68764(16)
H25_2 H 0.8480 0.9254 0.6102
H29 H 0.9853 0.7582 0.2090
C52 C 0.99311(18) 0.70146(6) 0.03697(15)
H47 H 0.9657 0.7722 0.0331
C43_2 C 0.4665(2) 0.55334(7) 0.41405(18)
H30_2 H 0.4935 0.5472 0.4913
C44_2 C 0.3749(2) 0.52363(7) 0.33839(18)
H31_2 H 0.3437 0.4972 0.3666
N6 N 0.88028(17) 0.72026(6) 0.68175(13)
C47 C 0.94101(19) 0.75739(6) 0.63868(15)
C49 C 0.91708(19) 0.71359(6) 0.80048(15)
N7 N 0.32874(16) 0.53114(6) 0.22565(14)
C51 C 0.9465(2) 0.66885(6) 0.84799(16)
H35 H 0.9413 0.6428 0.8017
C53 C 0.8073(2) 0.67891(7) 0.50044(16)
H36 H 0.8776 0.6933 0.4810
C56 C 0.98344(19) 0.66308(6) 0.96419(16)
C58 C 0.61363(19) 0.62559(6) 0.45292(15)
C59 C 0.92283(18) 0.82045(6) 0.50522(15)
H40 H 0.8692 0.8387 0.4453
C63 C 0.86179(18) 0.78531(6) 0.54960(16)
H43 H 0.7677 0.7804 0.5198
C64 C 0.6013(2) 0.63425(7) 0.55901(16)
H44 H 0.5331 0.6190 0.5796
C66 C 0.6885(2) 0.66517(7) 0.63407(16)
H46 H 0.6777 0.6708 0.7040
C67 C 0.9615(2) 0.74605(7) 0.98713(16)
C68 C 0.51855(19) 0.59281(6) 0.37342(16)
C69 C 0.9242(2) 0.75216(6) 0.87168(16)
H48 H 0.9037 0.7822 0.8410
C70 C 0.7175(2) 0.64858(7) 0.42491(16)
H49 H 0.7268 0.6435 0.3543
C71_2 C 0.4715(2) 0.60002(7) 0.25695(16)
H50 H 0.5028 0.6257 0.2258
C72_2 C 0.3782(2) 0.56894(8) 0.18764(16)
H51_2 H 0.3480 0.5746 0.1102
C74 C 0.79251(19) 0.68803(6) 0.60580(15)
Co5 Co 0.14437(2) 0.494160(8) 0.128407(19)
H36_2 H 0.6224 0.1933 0.0190
N8_2 N 0.24199(15) 0.44021(5) 0.07249(12)
C58_2 C 0.88637(19) 0.12559(6) 0.04708(15)
H40_2 H 0.6308 0.3387 0.0547
C60_2 C 0.40892(18) 0.37833(6) 0.10920(15)
H41_2 H 0.4788 0.3617 0.1617
C61_2 C 0.34230(18) 0.41463(6) 0.14397(15)
H42_2 H 0.3685 0.4216 0.2208
C68_2 C 0.98145(19) 0.09281(6) 0.12658(16)
C70_2 C 0.7825(2) 0.14858(7) 0.07509(16)
H49_2 H 0.7732 0.1435 0.1457
H50_2 H 0.9972 0.1257 0.2742
O5 O 0.04946(15) 0.53065(5) 0.23171(11)
O6 O 0.13366(15) 0.45927(5) 0.27724(11)
C9_2 C 0.0292(2) 0.46203(7) 0.57488(16)
H7_2 H 0.0481 0.4368 0.6251
Cl1_2 Cl 0.09109(4) 0.544629(15) 0.97057(4)
C38_2 C 0.0736(2) 0.49549(7) 0.29781(15)
C39_2 C 0.0348(2) 0.49761(7) 0.40255(16)
C40_2 C 0.0644(2) 0.45978(7) 0.47705(16)
H27_2 H 0.1076 0.4331 0.4614
N5_2 N 0.3649(2) 0.18116(8) 0.09979(16)
C42_2 C 0.4737(2) 0.22955(8) 0.26343(18)
H29_2 H 0.5147 0.2582 0.2910
C45_2 C 0.4248(3) 0.22117(9) 0.14772(19)
H32_2 H 0.4345 0.2452 0.1001
C46_2 C 0.3559(3) 0.14745(9) 0.17166(19)
H33_2 H 0.3172 0.1188 0.1414
N6_2 N 0.61972(17) 0.22026(6) 0.81825(13)
C47_2 C 0.55899(19) 0.25739(6) 0.86132(15)
C48_2 C 0.37034(17) 0.36696(6) 0.99475(14)
C49_2 C 0.58292(19) 0.21359(6) 0.69952(15)
C50_2 C 0.35811(18) 0.30089(6) 0.86078(15)
H34_2 H 0.2642 0.3060 0.8302
C51_2 C 0.5535(2) 0.16885(6) 0.65201(16)
H35_2 H 0.5587 0.1428 0.6983
C52_2 C 0.50689(18) 0.20146(6) 0.46303(15)
C53_2 C 0.6927(2) 0.17891(7) 0.99956(16)
C54_2 C 0.46076(19) 0.19446(7) 0.33844(16)
C55_2 C 0.26552(19) 0.39357(7) 0.92081(15)
H37_2 H 0.2365 0.3871 0.8437
C56_2 C 0.51656(19) 0.16308(6) 0.53581(16)
H38_2 H 0.4977 0.1329 0.5054
C57_2 C 0.20478(19) 0.42949(7) 0.96210(15)
H39_2 H 0.1353 0.4469 0.9114
C59_2 C 0.57717(18) 0.32045(6) 0.99478(15)
C62_2 C 0.43594(17) 0.32879(6) 0.95058(14)
C63_2 C 0.63821(18) 0.28531(6) 0.95040(16)
H43_2 H 0.7323 0.2804 0.9802
C64_2 C 0.8987(2) 0.13425(7) 0.94099(16)
H44_2 H 0.9669 0.1190 0.9204
C65_2 C 0.41853(19) 0.26559(7) 0.81643(16)
H45_2 H 0.3651 0.2473 0.7565
C66_2 C 0.8115(2) 0.16517(7) 0.86593(16)
H46_2 H 0.8223 0.1708 0.7960
C67_2 C 0.5385(2) 0.24605(7) 0.51287(16)
H47_2 H 0.5343 0.2722 0.4669
C69_2 C 0.5758(2) 0.25216(6) 0.62832(16)
H48_2 H 0.5963 0.2822 0.6590
C73_2 C 0.4004(2) 0.15237(8) 0.28829(17)
H52_2 H 0.3900 0.1275 0.3334
C74_2 C 0.70749(19) 0.18803(6) 0.89420(15)
loop_
_geom_bond_atom_site_label_1
_geom_bond_atom_site_label_2
_geom_bond_site_symmetry_1
_geom_bond_site_symmetry_2
C2 H2 1_555 1_555
C3 C2 1_555 1_555
H3 C3 1_555 1_555
N2 C10 1_555 1_555
C10 C26 1_555 1_555
C12 N2 1_555 1_555
N3 C3 1_555 1_555
C14 C12 1_555 1_555
H9 C14 1_555 1_555
C16 H10 1_555 1_555
C19 C14 1_555 1_555
C21 C27 1_555 1_555
C22 H14 1_555 1_555
C26 C22 1_555 1_555
H17 C26 1_555 1_555
C27 H18 1_555 1_555
C29 C27 1_555 1_555
H20 C29 1_555 1_555
C31 C2 1_555 1_555
C32 C12 1_555 1_555
H22 C32 1_555 1_555
C33 C16 1_555 1_555
H23 C33 1_555 1_555
C34 C31 1_555 1_555
H24 C34 1_555 1_555
C35 N3 1_555 1_555
H25 C35 1_555 1_555
C37 N2 1_555 1_555
Co3 N3 1_555 1_555
C16 C37 1_555 1_555
C21 C31 1_555 1_555
C21 C33 1_555 1_555
C29 C37 1_555 1_555
C30 C32 1_555 1_555
C34 C35 1_555 1_555
N1 C4 1_555 1_555
C1 H1 1_555 1_555
C4 C1 1_555 1_555
H4 C4 1_555 1_555
C5 N1 1_555 1_555
H5 C5 1_555 1_555
N2_2 C10_2 1_555 1_555
C10_2 C26_2 1_555 1_555
C11 C18 1_555 1_555
C12_2 N2_2 1_555 1_555
C13 H8 1_555 1_555
C14_2 C12_2 1_555 1_555
H9_2 C14_2 1_555 1_555
C15 C17 1_555 1_555
C17 C1 1_555 1_555
C18 H11 1_555 1_555
C19_2 C14_2 1_555 1_555
H12 C19_2 1_555 1_555
C20 C18 1_555 1_555
H13 C20 1_555 1_555
C25 C11 1_555 1_555
C26_2 C22_2 1_555 1_555
H17_2 C26_2 1_555 1_555
C27_2 H18_2 1_555 1_555
C28 C10_2 1_555 1_555
H19 C28 1_555 1_555
C29_2 C27_2 1_555 1_555
H20_2 C29_2 1_555 1_555
C30_2 C15 1_555 1_555
H21 C30_2 1_555 1_555
C32_2 C12_2 1_555 1_555
H22_2 C32_2 1_555 1_555
C36 C5 1_555 1_555
H26 C36 1_555 1_555
C37_2 N2_2 1_555 1_555
C13 C25 1_555 1_555
C13 C28 1_555 1_555
C15 C19_2 1_555 1_555
C16_2 C37_2 1_555 1_555
C17 C36 1_555 1_555
C22_2 C25 1_555 1_555
C29_2 C37_2 1_555 1_555
C30_2 C32_2 1_555 1_555
O1 C6 1_555 1_555
O2 C6 1_555 1_555
C6 C7 1_555 1_555
C7 C8 1_555 1_555
C8 H6 1_555 1_555
Co3 O1 1_555 1_555
N4 Co3 1_555 1_555
H15 C23 1_555 1_555
C24 N4 1_555 1_555
H16 C24 1_555 1_555
H23_2 C33_2 1_555 1_555
C41 C8 1_555 1_555
H28 C41 1_555 1_555
O2 Co3 1_555 1_555
C21_2 C31_2 1_555 1_555
C21_2 C33_2 1_555 1_555
C23 C24 1_555 1_555
H28_2 C41_2 1_555 1_555
O2_2 C6_2 1_555 1_555
C6_2 C7_2 1_555 1_555
C7_2 C8_2 1_555 1_555
C8_2 H6_2 1_555 1_555
Cl1 Co1 1_555 1_555
C11_2 C18_2 1_555 1_555
C13_2 H8_2 1_555 1_555
C18_2 H11_2 1_555 1_555
C20_2 C18_2 1_555 1_555
H13_2 C20_2 1_555 1_555
N4_2 Co1 1_555 1_555
C23_2 C11_2 1_555 1_555
H15_2 C23_2 1_555 1_555
C24_2 N4_2 1_555 1_555
H16_2 C24_2 1_555 1_555
C25_2 C11_2 1_555 1_555
H19_2 C28_2 1_555 1_555
O2_2 Co1 1_555 1_555
C13_2 C25_2 1_555 1_555
C13_2 C28_2 1_555 1_555
C20_2 N4_2 1_555 1_555
C23_2 C24_2 1_555 1_555
N1_2 C4_2 1_555 1_555
C4_2 C1_2 1_555 1_555
H4_2 C4_2 1_555 1_555
C5_2 N1_2 1_555 1_555
H5_2 C5_2 1_555 1_555
C17_2 C1_2 1_555 1_555
C36_2 C5_2 1_555 1_555
H26_2 C36_2 1_555 1_555
C17_2 C36_2 1_555 1_555
C43 H30 1_555 1_555
C44 C43 1_555 1_555
N10 C44 1_555 1_555
C72 N10 1_555 1_555
H51 C72 1_555 1_555
C71 C72 1_555 1_555
O4 C38 1_555 1_555
C38 C39 1_555 1_555
C39 C40 1_555 1_555
H27 C40 1_555 1_555
N5 C45 1_555 1_555
C45 C42 1_555 1_555
H32 C45 1_555 1_555
C46 N5 1_555 1_555
H33 C46 1_555 1_555
C54 C42 1_555 1_555
C73 C46 1_555 1_555
H52 C73 1_555 1_555
O4 Co4 1_555 1_555
C54 C73 1_555 1_555
H7 C9 1_555 1_555
C48 C55 1_555 1_555
C50 H34 1_555 1_555
C55 H37 1_555 1_555
C57 C55 1_555 1_555
H39 C57 1_555 1_555
N8 Co4 1_555 1_555
C60 C48 1_555 1_555
H41 C60 1_555 1_555
C61 N8 1_555 1_555
H42 C61 1_555 1_555
C62 C48 1_555 1_555
H45 C65 1_555 1_555
Co4 Cl2_2 1_555 1_555
C50 C62 1_555 1_555
C50 C65 1_555 1_555
C57 N8 1_555 1_555
C60 C61 1_555 1_555
C2_2 H2_2 1_555 1_555
C3_2 C2_2 1_555 1_555
N9 C3_2 1_555 1_555
C35_2 N9 1_555 1_555
H25_2 C35_2 1_555 1_555
C34_2 C35_2 1_555 1_555
C43_2 H30_2 1_555 1_555
C44_2 C43_2 1_555 1_555
H31_2 C44_2 1_555 1_555
N6 C47 1_555 1_555
C47 C63 1_555 1_555
C49 N6 1_555 1_555
N7 C44_2 1_555 1_555
C51 C49 1_555 1_555
H35 C51 1_555 1_555
C53 H36 1_555 1_555
C56 C51 1_555 1_555
C58 C64 1_555 1_555
C59 H40 1_555 1_555
C63 C59 1_555 1_555
H43 C63 1_555 1_555
C64 H44 1_555 1_555
C66 C64 1_555 1_555
H46 C66 1_555 1_555
C68 C43_2 1_555 1_555
C69 C49 1_555 1_555
H48 C69 1_555 1_555
C70 C53 1_555 1_555
H49 C70 1_555 1_555
C71_2 C68 1_555 1_555
H50 C71_2 1_555 1_555
C72_2 N7 1_555 1_555
H51_2 C72_2 1_555 1_555
C74 N6 1_555 1_555
Co5 N7 1_555 1_555
C53 C74 1_555 1_555
C58 C68 1_555 1_555
C58 C70 1_555 1_555
C66 C74 1_555 1_555
C67 C69 1_555 1_555
C71_2 C72_2 1_555 1_555
N8_2 Co5 1_555 1_555
H41_2 C60_2 1_555 1_555
C61_2 N8_2 1_555 1_555
H42_2 C61_2 1_555 1_555
H49_2 C70_2 1_555 1_555
O5 Co5 1_555 1_555
O6 Co5 1_555 1_555
C58_2 C68_2 1_555 1_555
C58_2 C70_2 1_555 1_555
C60_2 C61_2 1_555 1_555
H7_2 C9_2 1_555 1_555
O5 C38_2 1_555 1_555
O6 C38_2 1_555 1_555
C38_2 C39_2 1_555 1_555
C39_2 C40_2 1_555 1_555
C40_2 C9_2 1_555 1_555
H27_2 C40_2 1_555 1_555
N5_2 C45_2 1_555 1_555
C42_2 H29_2 1_555 1_555
C45_2 C42_2 1_555 1_555
H32_2 C45_2 1_555 1_555
C46_2 N5_2 1_555 1_555
H33_2 C46_2 1_555 1_555
N6_2 C47_2 1_555 1_555
C47_2 C63_2 1_555 1_555
C48_2 C55_2 1_555 1_555
C49_2 N6_2 1_555 1_555
C50_2 H34_2 1_555 1_555
C51_2 C49_2 1_555 1_555
H35_2 C51_2 1_555 1_555
C52_2 C54_2 1_555 1_555
C54_2 C42_2 1_555 1_555
C55_2 H37_2 1_555 1_555
C56_2 C51_2 1_555 1_555
H38_2 C56_2 1_555 1_555
C57_2 C55_2 1_555 1_555
H39_2 C57_2 1_555 1_555
C62_2 C48_2 1_555 1_555
C63_2 C59_2 1_555 1_555
H43_2 C63_2 1_555 1_555
C64_2 H44_2 1_555 1_555
C65_2 C47_2 1_555 1_555
H45_2 C65_2 1_555 1_555
C66_2 C64_2 1_555 1_555
H46_2 C66_2 1_555 1_555
C67_2 C52_2 1_555 1_555
H47_2 C67_2 1_555 1_555
C69_2 C49_2 1_555 1_555
H48_2 C69_2 1_555 1_555
C73_2 C46_2 1_555 1_555
H52_2 C73_2 1_555 1_555
C74_2 N6_2 1_555 1_555
C50_2 C62_2 1_555 1_555
C50_2 C65_2 1_555 1_555
C52_2 C56_2 1_555 1_555
C53_2 C74_2 1_555 1_555
C54_2 C73_2 1_555 1_555
C59_2 C62_2 1_555 1_555
C66_2 C74_2 1_555 1_555
C67_2 C69_2 1_555 1_555

#END
