
###############################################################################
#
# This file contains modified crystal structure data generated from the
# MOF subset of the Cambridge Structural Database (CSD) v543 
# hosted by the Cambridge Crystallographic Data Centre (CCDC).
#
# This work is licensed under the Creative Commons
# Attribution-NonCommercial-ShareAlike 4.0 International License.
# To view a copy of this license, visit
# http://creativecommons.org/licenses/by-nc-sa/4.0/
# or send a letter to
# Creative Commons, PO Box 1866, Mountain View, CA 94042, USA.
#
# CIF created using the CSD Python API on 29 September 2022
# The structure has been converted into the P1 space group
# The structure has a 3D framework
# The original CSD entry LAJREX is in the triclinic crystal system
# The framework has been calculated to contain at least 10.0% void space
# The void calculation uses a probe of radius 1.32A, grid spacing 0.4
#
###############################################################################

data_LAJREX
_chemical_formula_moiety         'C44 H26 Eu2 O18'
_symmetry_cell_setting           triclinic
_symmetry_space_group_name_H-M   'P 1'
_symmetry_Int_Tables_number      1
_space_group_name_Hall           'P 1'
loop_
_symmetry_equiv_pos_site_id
_symmetry_equiv_pos_as_xyz
1 x,y,z
_cell_length_a                   9.839(3)
_cell_length_b                   10.617(3)
_cell_length_c                   10.851(3)
_cell_angle_alpha                82.065(10)
_cell_angle_beta                 86.784(10)
_cell_angle_gamma                87.139(11)
_cell_volume                     1119.86
loop_
_atom_site_label
_atom_site_type_symbol
_atom_site_fract_x
_atom_site_fract_y
_atom_site_fract_z
Eu5 Eu 0.00353(4) 0.02033(3) 0.21373(3)
O10 O 0.0183(7) 0.1899(6) 0.8361(6)
O14 O 0.2488(6) 0.0082(6) 0.7885(6)
O15 O 0.1498(6) 0.0549(6) 0.6102(5)
O11 O 0.1018(6) 0.7729(5) 0.8359(6)
O12 O 0.7499(6) 0.0221(7) 0.7847(6)
O13 O 0.8639(6) 0.1252(6) 0.6263(5)
O1 O 0.0760(7) 0.1404(6) 0.3660(6)
H1 H 0.0807 0.0917 0.4371
H2 H 0.1559 0.1695 0.3429
O3 O 0.0983(6) 0.1023(5) 0.0163(6)
C5 C 0.2699(9) 0.4476(8) 0.0631(7)
C6 C 0.2177(8) 0.3311(7) 0.0471(7)
H6 H 0.2430 0.2568 0.1016
C9 C 0.7538(9) 0.0914(8) 0.6787(8)
C10 C 0.2530(9) 0.0529(7) 0.6739(8)
C11 C 0.3700(8) 0.4535(8) 0.1602(7)
C12 C 0.4521(9) 0.5585(9) 0.1534(9)
H7 H 0.4423 0.6257 0.0865
C13 C 0.5447(10) 0.5636(9) 0.2426(9)
H8 H 0.5992 0.6357 0.2368
C14 C 0.5596(9) 0.4684(8) 0.3406(8)
H9 H 0.6239 0.4733 0.4017
C15 C 0.4806(8) 0.3615(8) 0.3494(8)
C16 C 0.3874(8) 0.3562(8) 0.2593(8)
H10 H 0.3329 0.2840 0.2651
C17 C 0.4926(8) 0.2575(8) 0.4568(7)
C18 C 0.6166(8) 0.2191(8) 0.5123(8)
H11 H 0.6976 0.2575 0.4772
C19 C 0.6229(8) 0.1279(8) 0.6172(8)
C20 C 0.5034(9) 0.0736(8) 0.6682(8)
H12 H 0.5068 0.0112 0.7399
C21 C 0.3810(8) 0.1072(7) 0.6146(8)
C22 C 0.3767(8) 0.1986(7) 0.5090(7)
H13 H 0.2921 0.2225 0.4723
O4 O 0.0690(9) 0.6484(6) 0.6927(6)
H3 H 0.0206 0.7110 0.6619
C1 C 0.1322(8) 0.3238(7) 0.9511(7)
C2 C 0.0973(9) 0.4319(8) 0.8702(7)
H4 H 0.0389 0.4262 0.8045
C3 C 0.1429(9) 0.5491(8) 0.8850(8)
C4 C 0.2271(8) 0.5552(8) 0.9841(8)
H5 H 0.2602 0.6352 0.9952
C7 C 0.0786(8) 0.1965(7) 0.9336(8)
C8 C 0.1019(9) 0.6657(8) 0.7985(8)
O2 O 0.9817(7) 0.8101(6) 0.1639(6)
O4_2 O 0.9310(9) 0.3516(6) 0.3073(6)
H3_2 H 0.9794 0.2890 0.3381
O5 O 0.8982(6) 0.2271(5) 0.1641(6)
C1_2 C 0.8678(8) 0.6762(7) 0.0489(7)
C2_2 C 0.9027(9) 0.5681(8) 0.1298(7)
H4_2 H 0.9611 0.5738 0.1955
C3_2 C 0.8571(9) 0.4509(8) 0.1150(8)
C4_2 C 0.7729(8) 0.4448(8) 0.0159(8)
H5_2 H 0.7398 0.3648 0.0048
C7_2 C 0.9214(8) 0.8035(7) 0.0664(8)
C8_2 C 0.8981(9) 0.3343(8) 0.2015(8)
Eu1 Eu 0.99647(4) 0.97967(3) 0.78627(3)
O1_2 O 0.9240(7) 0.8596(6) 0.6340(6)
H1_2 H 0.9193 0.9083 0.5629
H2_2 H 0.8441 0.8305 0.6571
O3_2 O 0.9017(6) 0.8977(5) 0.9837(6)
O6 O 0.2501(6) 0.9779(7) 0.2153(6)
O7 O 0.1361(6) 0.8748(6) 0.3737(5)
O8 O 0.7512(6) 0.9918(6) 0.2115(6)
O9 O 0.8502(6) 0.9451(6) 0.3898(5)
C5_2 C 0.7301(9) 0.5524(8) 0.9369(7)
C6_2 C 0.7823(8) 0.6689(7) 0.9529(7)
H6_2 H 0.7570 0.7432 0.8984
C9_2 C 0.2462(9) 0.9086(8) 0.3213(8)
C10_2 C 0.7470(9) 0.9471(7) 0.3261(8)
C11_2 C 0.6300(8) 0.5465(8) 0.8398(7)
C12_2 C 0.5479(9) 0.4415(9) 0.8466(9)
H7_2 H 0.5577 0.3743 0.9135
C13_2 C 0.4553(10) 0.4364(9) 0.7574(9)
H8_2 H 0.4008 0.3643 0.7632
C14_2 C 0.4404(9) 0.5316(8) 0.6594(8)
H9_2 H 0.3761 0.5267 0.5983
C15_2 C 0.5194(8) 0.6385(8) 0.6506(8)
C16_2 C 0.6126(8) 0.6438(8) 0.7407(8)
H10_2 H 0.6671 0.7160 0.7349
C17_2 C 0.5074(8) 0.7425(8) 0.5432(7)
C18_2 C 0.3834(8) 0.7809(8) 0.4877(8)
H11_2 H 0.3024 0.7425 0.5228
C19_2 C 0.3771(8) 0.8721(8) 0.3828(8)
C20_2 C 0.4966(9) 0.9264(8) 0.3318(8)
H12_2 H 0.4932 0.9888 0.2601
C21_2 C 0.6190(8) 0.8928(7) 0.3854(8)
C22_2 C 0.6233(8) 0.8014(7) 0.4910(7)
H13_2 H 0.7079 0.7775 0.5277
loop_
_geom_bond_atom_site_label_1
_geom_bond_atom_site_label_2
_geom_bond_site_symmetry_1
_geom_bond_site_symmetry_2
Eu5 O1 1_555 1_555
O1 H1 1_555 1_555
H2 O1 1_555 1_555
O3 Eu5 1_555 1_555
O12 C9 1_555 1_555
O13 C9 1_555 1_555
O14 C10 1_555 1_555
O15 C10 1_555 1_555
H6 C6 1_555 1_555
C9 C19 1_555 1_555
C10 C21 1_555 1_555
C11 C5 1_555 1_555
C12 C11 1_555 1_555
H7 C12 1_555 1_555
C13 C12 1_555 1_555
H8 C13 1_555 1_555
C14 C13 1_555 1_555
H9 C14 1_555 1_555
C15 C14 1_555 1_555
C16 C11 1_555 1_555
H10 C16 1_555 1_555
C17 C15 1_555 1_555
C18 C17 1_555 1_555
H11 C18 1_555 1_555
C19 C18 1_555 1_555
C20 C19 1_555 1_555
H12 C20 1_555 1_555
C21 C20 1_555 1_555
C22 C17 1_555 1_555
H13 C22 1_555 1_555
C5 C6 1_555 1_555
C15 C16 1_555 1_555
C21 C22 1_555 1_555
O10 C7 1_555 1_555
O4 H3 1_555 1_555
O11 C8 1_555 1_555
C1 C2 1_555 1_555
C2 H4 1_555 1_555
C3 C2 1_555 1_555
C4 C3 1_555 1_555
H5 C4 1_555 1_555
C8 O4 1_555 1_555
C1 C7 1_555 1_555
C3 C8 1_555 1_555
O2 C7_2 1_555 1_555
O4_2 H3_2 1_555 1_555
O5 C8_2 1_555 1_555
C1_2 C2_2 1_555 1_555
C2_2 H4_2 1_555 1_555
C3_2 C2_2 1_555 1_555
C4_2 C3_2 1_555 1_555
H5_2 C4_2 1_555 1_555
C8_2 O4_2 1_555 1_555
C1_2 C7_2 1_555 1_555
C3_2 C8_2 1_555 1_555
Eu1 O1_2 1_555 1_555
O1_2 H1_2 1_555 1_555
H2_2 O1_2 1_555 1_555
O3_2 Eu1 1_555 1_555
O6 C9_2 1_555 1_555
O7 C9_2 1_555 1_555
O8 C10_2 1_555 1_555
O9 C10_2 1_555 1_555
H6_2 C6_2 1_555 1_555
C9_2 C19_2 1_555 1_555
C10_2 C21_2 1_555 1_555
C11_2 C5_2 1_555 1_555
C12_2 C11_2 1_555 1_555
H7_2 C12_2 1_555 1_555
C13_2 C12_2 1_555 1_555
H8_2 C13_2 1_555 1_555
C14_2 C13_2 1_555 1_555
H9_2 C14_2 1_555 1_555
C15_2 C14_2 1_555 1_555
C16_2 C11_2 1_555 1_555
H10_2 C16_2 1_555 1_555
C17_2 C15_2 1_555 1_555
C18_2 C17_2 1_555 1_555
H11_2 C18_2 1_555 1_555
C19_2 C18_2 1_555 1_555
C20_2 C19_2 1_555 1_555
H12_2 C20_2 1_555 1_555
C21_2 C20_2 1_555 1_555
C22_2 C17_2 1_555 1_555
H13_2 C22_2 1_555 1_555
C5_2 C6_2 1_555 1_555
C15_2 C16_2 1_555 1_555
C21_2 C22_2 1_555 1_555

#END
