
###############################################################################
#
# This file contains modified crystal structure data generated from the
# MOF subset of the Cambridge Structural Database (CSD) v543 
# hosted by the Cambridge Crystallographic Data Centre (CCDC).
#
# This work is licensed under the Creative Commons
# Attribution-NonCommercial-ShareAlike 4.0 International License.
# To view a copy of this license, visit
# http://creativecommons.org/licenses/by-nc-sa/4.0/
# or send a letter to
# Creative Commons, PO Box 1866, Mountain View, CA 94042, USA.
#
# CIF created using the CSD Python API on 29 September 2022
# The structure has been converted into the P1 space group
# The structure has a 3D framework
# The original CSD entry LAKBUX is in the orthorhombic crystal system
# The framework has been calculated to contain at least 10.0% void space
# The void calculation uses a probe of radius 1.32A, grid spacing 0.4
#
###############################################################################

data_LAKBUX
_chemical_formula_moiety         '(C84 H64 Cu4 N16 O20)n'
_symmetry_cell_setting           triclinic
_symmetry_space_group_name_H-M   'P 1'
_symmetry_Int_Tables_number      1
_space_group_name_Hall           'P 1'
loop_
_symmetry_equiv_pos_site_id
_symmetry_equiv_pos_as_xyz
1 x,y,z
_cell_length_a                   9.4000(2)
_cell_length_b                   19.5102(3)
_cell_length_c                   14.7022(2)
_cell_angle_alpha                90
_cell_angle_beta                 90
_cell_angle_gamma                90
_cell_volume                     2696.32
loop_
_atom_site_label
_atom_site_type_symbol
_atom_site_fract_x
_atom_site_fract_y
_atom_site_fract_z
C3 C 0.0841(3) 0.2500 0.55859(17)
H1 H 0.1379 0.2500 0.5007
H2 H 0.1532 0.2500 0.6094
H4 H 0.0091 0.1384 0.4416
H12 H 0.0091 0.3616 0.4416
O6 O 0.1326(2) 0.2500 0.79119(13)
Cu1 Cu 0.88348(3) 0.2500 0.736225(19)
O1 O 0.6326(2) 0.2500 0.70881(13)
N1 N 0.92060(18) 0.17760(8) 0.64109(10)
N2 N 0.99517(17) 0.18940(7) 0.56369(10)
C2 C 0.8732(2) 0.09485(10) 0.53814(12)
C4 C 0.8556(2) 0.00836(10) 0.41325(12)
H3 H 0.9303 0.0311 0.3818
C5 C 0.9690(2) 0.14074(9) 0.50080(12)
C7 C 0.8468(2) 0.12071(9) 0.62595(12)
H6 H 0.7844 0.1001 0.6688
C8 C 0.8098(2) 0.03319(10) 0.49734(13)
H7 H 0.6707 0.0140 0.6002
H9 H 0.612(3) 0.2830(10) 0.6785(16)
H10 H 0.612(3) 0.2170(10) 0.6785(16)
O4 O 0.47822(17) 0.65218(9) 0.39796(12)
O5 O 0.67518(15) 0.67578(6) 0.31860(8)
N3 N 0.92060(18) 0.32240(8) 0.64109(10)
N4 N 0.99517(17) 0.31060(7) 0.56369(10)
C12 C 0.6045(2) 0.64151(10) 0.37557(12)
C13 C 0.8732(2) 0.40515(10) 0.53814(12)
C14 C 0.8556(2) 0.49164(10) 0.41325(12)
H11 H 0.9303 0.4689 0.3818
C15 C 0.9690(2) 0.35926(9) 0.50080(12)
C16 C 0.7927(2) 0.54930(10) 0.37520(12)
H13 H 0.8267 0.5665 0.3188
C17 C 0.8468(2) 0.37929(9) 0.62595(12)
H14 H 0.7844 0.3999 0.6688
C18 C 0.8098(2) 0.46681(10) 0.49734(13)
C19 C 0.6811(2) 0.58204(10) 0.41863(12)
C20 C 0.7012(3) 0.50160(12) 0.54217(15)
H15 H 0.6707 0.4860 0.6002
C21 C 0.63716(16) 0.55824(8) 0.50407(9)
H16 H 0.5631 0.5812 0.5358
Cu3 Cu 0.61652(3) 0.7500 0.236225(19)
Cu4 Cu 0.38348(3) 0.2500 0.763775(19)
O7 O 0.82482(15) 0.17578(6) 0.81860(8)
O8 O 0.82482(15) 0.32422(6) 0.81860(8)
O2 O 0.47822(17) 0.84782(9) 0.39796(12)
O3 O 0.67518(15) 0.82422(6) 0.31860(8)
C1 C 0.6045(2) 0.85849(10) 0.37557(12)
C6 C 0.7927(2) 0.95070(10) 0.37520(12)
H5 H 0.8267 0.9335 0.3188
C9 C 0.6811(2) 0.91796(10) 0.41863(12)
C10 C 0.7012(3) 0.99840(12) 0.54217(15)
C11 C 0.63716(16) 0.94176(8) 0.50407(9)
H8 H 0.5631 0.9188 0.5358
Cu4_2 Cu 0.11652(3) 0.7500 0.263775(19)
C1_2 C 0.8955(2) 0.14151(10) 0.87557(12)
C6_2 C 0.7073(2) 0.04930(10) 0.87520(12)
H5_2 H 0.6733 0.0665 0.8188
C9_2 C 0.8189(2) 0.08204(10) 0.91863(12)
O1_2 O 0.8674(2) 0.7500 0.20881(13)
N1_2 N 0.57940(18) 0.82240(8) 0.14109(10)
N2_2 N 0.50483(17) 0.81060(7) 0.06369(10)
C2_2 C 0.6268(2) 0.90515(10) 0.03814(12)
C3_2 C 0.4159(3) 0.7500 0.05859(17)
H1_2 H 0.3621 0.7500 0.0007
H2_2 H 0.3468 0.7500 0.1094
C5_2 C 0.5310(2) 0.85926(9) 0.00080(12)
C7_2 C 0.6532(2) 0.87929(9) 0.12595(12)
H6_2 H 0.7156 0.8999 0.1688
H7_2 H 0.8293 0.9860 0.1002
H9_2 H 0.888(3) 0.7170(10) 0.1785(16)
H10_2 H 0.888(3) 0.7830(10) 0.1785(16)
N3_2 N 0.57940(18) 0.67760(8) 0.14109(10)
N4_2 N 0.50483(17) 0.68940(7) 0.06369(10)
C13_2 C 0.6268(2) 0.59485(10) 0.03814(12)
C15_2 C 0.5310(2) 0.64074(9) 0.00080(12)
C17_2 C 0.6532(2) 0.62071(9) 0.12595(12)
H14_2 H 0.7156 0.6001 0.1688
C20_2 C 0.7988(3) 0.49840(12) 0.04217(15)
H15_2 H 0.8293 0.5140 0.1002
C21_2 C 0.86284(16) 0.44176(8) 0.00407(9)
H16_2 H 0.9369 0.4188 0.0358
O6_2 O 0.3674(2) 0.7500 0.29119(13)
C4_2 C 0.6444(2) 0.99164(10) 0.91325(12)
H3_2 H 0.5697 0.9689 0.8818
H4_2 H 0.4909 0.8616 0.9416
C8_2 C 0.6902(2) 0.96681(10) 0.99734(13)
C12_2 C 0.8955(2) 0.35849(10) 0.87557(12)
C14_2 C 0.6444(2) 0.50836(10) 0.91325(12)
H11_2 H 0.5697 0.5311 0.8818
H12_2 H 0.4909 0.6384 0.9416
C16_2 C 0.7073(2) 0.45070(10) 0.87520(12)
H13_2 H 0.6733 0.4335 0.8188
C18_2 C 0.6902(2) 0.53319(10) 0.99734(13)
C19_2 C 0.8189(2) 0.41796(10) 0.91863(12)
O3_2 O 0.17518(15) 0.67578(6) 0.18140(8)
C1_3 C 0.1045(2) 0.64151(10) 0.12443(12)
C4_3 C 0.3556(2) 0.49164(10) 0.08675(12)
H3_3 H 0.4303 0.4689 0.1182
H4_3 H 0.5091 0.3616 0.0584
C6_3 C 0.2927(2) 0.54930(10) 0.12480(12)
H5_3 H 0.3267 0.5665 0.1812
C8_3 C 0.3098(2) 0.46681(10) 0.00266(13)
C9_3 C 0.1811(2) 0.58204(10) 0.08137(12)
C14_3 C 0.3556(2) 0.00836(10) 0.08675(12)
H11_3 H 0.4303 0.0311 0.1182
H12_3 H 0.5091 0.1384 0.0584
C18_3 C 0.3098(2) 0.03319(10) 0.00266(13)
N1_3 N 0.42060(18) 0.32240(8) 0.85891(10)
N2_3 N 0.49517(17) 0.31060(7) 0.93631(10)
C2_3 C 0.3732(2) 0.40515(10) 0.96186(12)
C3_3 C 0.5841(3) 0.2500 0.94141(17)
H1_3 H 0.6379 0.2500 0.9993
H2_3 H 0.6532 0.2500 0.8906
C5_3 C 0.4690(2) 0.35926(9) 0.99920(12)
C7_3 C 0.3468(2) 0.37929(9) 0.87405(12)
H6_3 H 0.2844 0.3999 0.8312
C10_2 C 0.2012(3) 0.50160(12) 0.95783(15)
H7_3 H 0.1707 0.4860 0.8998
C11_2 C 0.13716(16) 0.55824(8) 0.99593(9)
H8_2 H 0.0631 0.5812 0.9642
H9_3 H 0.112(3) 0.2170(10) 0.8215(16)
H10_3 H 0.112(3) 0.2830(10) 0.8215(16)
N3_3 N 0.42060(18) 0.17760(8) 0.85891(10)
N4_3 N 0.49517(17) 0.18940(7) 0.93631(10)
C13_3 C 0.3732(2) 0.09485(10) 0.96186(12)
C15_3 C 0.4690(2) 0.14074(9) 0.99920(12)
C17_3 C 0.3468(2) 0.12071(9) 0.87405(12)
H14_3 H 0.2844 0.1001 0.8312
H15_3 H 0.1707 0.0140 0.8998
O7_2 O 0.32482(15) 0.32422(6) 0.68140(8)
O8_2 O 0.32482(15) 0.17578(6) 0.68140(8)
O5_2 O 0.17518(15) 0.82422(6) 0.18140(8)
C12_3 C 0.1045(2) 0.85849(10) 0.12443(12)
C16_3 C 0.2927(2) 0.95070(10) 0.12480(12)
H13_3 H 0.3267 0.9335 0.1812
C19_3 C 0.1811(2) 0.91796(10) 0.08137(12)
O4_2 O 0.52178(17) 0.15218(9) 0.60204(12)
C12_4 C 0.3955(2) 0.14151(10) 0.62443(12)
C16_4 C 0.2073(2) 0.04930(10) 0.62480(12)
H13_4 H 0.1733 0.0665 0.6812
C19_4 C 0.3189(2) 0.08204(10) 0.58137(12)
C20_3 C 0.2988(3) 0.00160(12) 0.45783(15)
C21_3 C 0.36284(16) 0.05824(8) 0.49593(9)
H16_3 H 0.4369 0.0812 0.4642
O2_2 O 0.52178(17) 0.34782(9) 0.60204(12)
N1_4 N 0.07940(18) 0.67760(8) 0.35891(10)
N2_4 N 0.00483(17) 0.68940(7) 0.43631(10)
C1_4 C 0.3955(2) 0.35849(10) 0.62443(12)
C2_4 C 0.1268(2) 0.59485(10) 0.46186(12)
C4_4 C 0.1444(2) 0.50836(10) 0.58675(12)
H3_4 H 0.0697 0.5311 0.6182
C5_4 C 0.0310(2) 0.64074(9) 0.49920(12)
C6_4 C 0.2073(2) 0.45070(10) 0.62480(12)
H5_4 H 0.1733 0.4335 0.6812
C7_4 C 0.1532(2) 0.62071(9) 0.37405(12)
H6_4 H 0.2156 0.6001 0.3312
C8_4 C 0.1902(2) 0.53319(10) 0.50266(13)
C9_4 C 0.3189(2) 0.41796(10) 0.58137(12)
C10_3 C 0.2988(3) 0.49840(12) 0.45783(15)
H7_4 H 0.3293 0.5140 0.3998
C11_3 C 0.36284(16) 0.44176(8) 0.49593(9)
H8_3 H 0.4369 0.4188 0.4642
H9_4 H 0.388(3) 0.7830(10) 0.3215(16)
H10_4 H 0.388(3) 0.7170(10) 0.3215(16)
N3_4 N 0.07940(18) 0.82240(8) 0.35891(10)
N4_4 N 0.00483(17) 0.81060(7) 0.43631(10)
C13_4 C 0.1268(2) 0.90515(10) 0.46186(12)
C14_4 C 0.1444(2) 0.99164(10) 0.58675(12)
H11_4 H 0.0697 0.9689 0.6182
C15_4 C 0.0310(2) 0.85926(9) 0.49920(12)
C17_4 C 0.1532(2) 0.87929(9) 0.37405(12)
H14_4 H 0.2156 0.8999 0.3312
C18_4 C 0.1902(2) 0.96681(10) 0.50266(13)
H15_4 H 0.3293 0.9860 0.3998
C3_4 C 0.9159(3) 0.7500 0.44141(17)
H1_4 H 0.8621 0.7500 0.4993
H2_4 H 0.8468 0.7500 0.3906
H4_4 H 0.9909 0.6384 0.5584
H12_4 H 0.9909 0.8616 0.5584
O2_3 O 0.02178(17) 0.15218(9) 0.89796(12)
O4_3 O 0.02178(17) 0.34782(9) 0.89796(12)
C10_4 C 0.7988(3) 0.00160(12) 0.04217(15)
C11_4 C 0.86284(16) 0.05824(8) 0.00407(9)
H8_4 H 0.9369 0.0812 0.0358
C20_4 C 0.2012(3) 0.99840(12) 0.95783(15)
C21_4 C 0.13716(16) 0.94176(8) 0.99593(9)
H16_4 H 0.0631 0.9188 0.9642
O2_4 O 0.97822(17) 0.65218(9) 0.10204(12)
O4_4 O 0.97822(17) 0.84782(9) 0.10204(12)
loop_
_geom_bond_atom_site_label_1
_geom_bond_atom_site_label_2
_geom_bond_site_symmetry_1
_geom_bond_site_symmetry_2
H1 C3 1_555 1_555
H2 C3 1_555 1_555
Cu1 O1 1_555 1_555
O1 H9 1_555 1_555
N1 Cu1 1_555 1_555
N2 N1 1_555 1_555
C2 C5 1_555 1_555
C4 H3 1_555 1_555
C5 N2 1_555 1_555
C7 N1 1_555 1_555
H6 C7 1_555 1_555
C8 C2 1_555 1_555
H10 O1 1_555 1_555
O4 C12 1_555 1_555
O5 C12 1_555 1_555
N3 Cu1 1_555 1_555
C12 C19 1_555 1_555
C13 C15 1_555 1_555
C14 H11 1_555 1_555
C15 N4 1_555 1_555
C16 C14 1_555 1_555
H13 C16 1_555 1_555
C17 N3 1_555 1_555
H14 C17 1_555 1_555
C18 C13 1_555 1_555
C19 C16 1_555 1_555
C20 C18 1_555 1_555
H15 C20 1_555 1_555
C21 C19 1_555 1_555
H16 C21 1_555 1_555
Cu3 O5 1_555 1_555
Cu4 O1 1_555 1_555
O7 Cu1 1_555 1_555
O8 Cu1 1_555 1_555
C2 C7 1_555 1_555
C4 C8 1_555 1_555
N3 N4 1_555 1_555
C13 C17 1_555 1_555
C14 C18 1_555 1_555
C20 C21 1_555 1_555
O2 C1 1_555 1_555
O3 C1 1_555 1_555
C1 C9 1_555 1_555
H5 C6 1_555 1_555
C9 C6 1_555 1_555
C11 C9 1_555 1_555
H8 C11 1_555 1_555
Cu3 O3 1_555 1_555
C10 C11 1_555 1_555
O7 C1_2 1_555 1_555
C1_2 C9_2 1_555 1_555
H5_2 C6_2 1_555 1_555
C9_2 C6_2 1_555 1_555
Cu3 O1_2 1_555 1_555
O1_2 H9_2 1_555 1_555
N1_2 Cu3 1_555 1_555
N2_2 N1_2 1_555 1_555
C2_2 C5_2 1_555 1_555
C3_2 N2_2 1_555 1_555
H1_2 C3_2 1_555 1_555
H2_2 C3_2 1_555 1_555
C5_2 N2_2 1_555 1_555
C7_2 N1_2 1_555 1_555
H6_2 C7_2 1_555 1_555
H10_2 O1_2 1_555 1_555
N3_2 Cu3 1_555 1_555
N4_2 C3_2 1_555 1_555
C13_2 C15_2 1_555 1_555
C15_2 N4_2 1_555 1_555
C17_2 N3_2 1_555 1_555
H14_2 C17_2 1_555 1_555
H15_2 C20_2 1_555 1_555
H16_2 C21_2 1_555 1_555
O6_2 Cu3 1_555 1_555
C2_2 C7_2 1_555 1_555
N3_2 N4_2 1_555 1_555
C13_2 C17_2 1_555 1_555
C20_2 C21_2 1_555 1_555
C4_2 H3_2 1_555 1_555
O8 C12_2 1_555 1_555
C12_2 C19_2 1_555 1_555
C14_2 H11_2 1_555 1_555
C16_2 C14_2 1_555 1_555
H13_2 C16_2 1_555 1_555
C19_2 C16_2 1_555 1_555
C4_2 C8_2 1_555 1_555
C14_2 C18_2 1_555 1_555
O3_2 C1_3 1_555 1_555
C1_3 C9_3 1_555 1_555
C4_3 H3_3 1_555 1_555
C6_3 C4_3 1_555 1_555
H5_3 C6_3 1_555 1_555
C9_3 C6_3 1_555 1_555
C14_3 H11_3 1_555 1_555
Cu4_2 O3_2 1_555 1_555
C4_3 C8_3 1_555 1_555
C14_3 C18_3 1_555 1_555
Cu4 O6 1_555 1_555
O6 H9_3 1_555 1_555
N1_3 Cu4 1_555 1_555
N2_3 N1_3 1_555 1_555
C2_3 C5_3 1_555 1_555
C3_3 N2_3 1_555 1_555
H1_3 C3_3 1_555 1_555
H2_3 C3_3 1_555 1_555
C5_3 N2_3 1_555 1_555
C7_3 N1_3 1_555 1_555
H6_3 C7_3 1_555 1_555
H7_3 C10_2 1_555 1_555
H8_2 C11_2 1_555 1_555
H10_3 O6 1_555 1_555
N3_3 Cu4 1_555 1_555
N4_3 C3_3 1_555 1_555
C13_3 C15_3 1_555 1_555
C15_3 N4_3 1_555 1_555
C17_3 N3_3 1_555 1_555
H14_3 C17_3 1_555 1_555
O7_2 Cu4 1_555 1_555
O8_2 Cu4 1_555 1_555
C2_3 C7_3 1_555 1_555
C10_2 C11_2 1_555 1_555
N3_3 N4_3 1_555 1_555
C13_3 C17_3 1_555 1_555
O5_2 C12_3 1_555 1_555
C12_3 C19_3 1_555 1_555
H13_3 C16_3 1_555 1_555
C19_3 C16_3 1_555 1_555
Cu4_2 O5_2 1_555 1_555
O4_2 C12_4 1_555 1_555
O8_2 C12_4 1_555 1_555
C12_4 C19_4 1_555 1_555
H13_4 C16_4 1_555 1_555
C19_4 C16_4 1_555 1_555
C21_3 C19_4 1_555 1_555
H16_3 C21_3 1_555 1_555
C20_3 C21_3 1_555 1_555
Cu4_2 O6_2 1_555 1_555
O6_2 H9_4 1_555 1_555
O2_2 C1_4 1_555 1_555
O7_2 C1_4 1_555 1_555
N1_4 Cu4_2 1_555 1_555
N2_4 N1_4 1_555 1_555
C1_4 C9_4 1_555 1_555
C2_4 C5_4 1_555 1_555
C4_4 H3_4 1_555 1_555
C5_4 N2_4 1_555 1_555
C6_4 C4_4 1_555 1_555
H5_4 C6_4 1_555 1_555
C7_4 N1_4 1_555 1_555
H6_4 C7_4 1_555 1_555
C8_4 C2_4 1_555 1_555
C9_4 C6_4 1_555 1_555
C10_3 C8_4 1_555 1_555
H7_4 C10_3 1_555 1_555
C11_3 C9_4 1_555 1_555
H8_3 C11_3 1_555 1_555
H10_4 O6_2 1_555 1_555
N3_4 Cu4_2 1_555 1_555
C13_4 C15_4 1_555 1_555
C14_4 H11_4 1_555 1_555
C15_4 N4_4 1_555 1_555
C17_4 N3_4 1_555 1_555
H14_4 C17_4 1_555 1_555
C18_4 C13_4 1_555 1_555
C2_4 C7_4 1_555 1_555
C4_4 C8_4 1_555 1_555
C10_3 C11_3 1_555 1_555
N3_4 N4_4 1_555 1_555
C13_4 C17_4 1_555 1_555
C14_4 C18_4 1_555 1_555
H1_4 C3_4 1_555 1_555
H2_4 C3_4 1_555 1_555
H8_4 C11_4 1_555 1_555
C10_4 C11_4 1_555 1_555
H16_4 C21_4 1_555 1_555
C20_4 C21_4 1_555 1_555

#END
