
###############################################################################
#
# This file contains modified crystal structure data generated from the
# MOF subset of the Cambridge Structural Database (CSD) v543 
# hosted by the Cambridge Crystallographic Data Centre (CCDC).
#
# This work is licensed under the Creative Commons
# Attribution-NonCommercial-ShareAlike 4.0 International License.
# To view a copy of this license, visit
# http://creativecommons.org/licenses/by-nc-sa/4.0/
# or send a letter to
# Creative Commons, PO Box 1866, Mountain View, CA 94042, USA.
#
# CIF created using the CSD Python API on 29 September 2022
# The structure has been converted into the P1 space group
# The structure has a 3D framework
# The original CSD entry LALPIZ is in the triclinic crystal system
# The framework has been calculated to contain at least 10.0% void space
# The void calculation uses a probe of radius 1.32A, grid spacing 0.4
# H atom positions have been added when not included in the experimental data
# Generated hydrogen atom positions removed from atoms on special positions
#
###############################################################################

data_LALPIZ
_chemical_formula_moiety         '(C30 H46 N24 O16 S6 Y2)n'
_symmetry_cell_setting           triclinic
_symmetry_space_group_name_H-M   'P 1'
_symmetry_Int_Tables_number      1
_space_group_name_Hall           'P 1'
loop_
_symmetry_equiv_pos_site_id
_symmetry_equiv_pos_as_xyz
1 x,y,z
_cell_length_a                   9.4609(19)
_cell_length_b                   11.458(2)
_cell_length_c                   14.593(3)
_cell_angle_alpha                69.96(3)
_cell_angle_beta                 85.42(3)
_cell_angle_gamma                86.41(3)
_cell_volume                     1480.35
loop_
_atom_site_label
_atom_site_type_symbol
_atom_site_fract_x
_atom_site_fract_y
_atom_site_fract_z
_atom_site_U_iso_or_equiv
_atom_site_thermal_displace_type
Y5 Y 0.79683(4) 0.95472(3) 0.00251(3) 0.0205 Uani
H38 H 0.0795 0.3882 0.0088 0.0420 Uiso
S5 S 0.56907(11) 0.63481(10) 0.85031(9) 0.0367 Uani
N13 N 0.3091(3) 0.5320(3) 0.9051(2) 0.0287 Uani
N14 N 0.2077(4) 0.6316(3) 0.9978(3) 0.0360 Uani
N17 N 0.3444(4) 0.6754(3) 0.9673(3) 0.0349 Uani
N19 N 0.3383(4) 0.4521(4) 0.8505(3) 0.0411 Uani
H23 H 0.341(5) 0.378(5) 0.898(4) 0.0490 Uiso
H24 H 0.262(5) 0.476(4) 0.812(4) 0.0490 Uiso
O20 O 0.6872(3) 0.7776(3) 0.9708(2) 0.0345 Uani
O22 O 0.6482(3) 0.9654(3) 0.8672(2) 0.0349 Uani
C26 C 0.5798(4) 0.8005(4) 0.8199(3) 0.0327 Uani
H35 H 0.4848 0.8372 0.8087 0.0390 Uiso
H36 H 0.6358 0.8318 0.7584 0.0390 Uiso
C27 C 0.6414(4) 0.8477(4) 0.8922(3) 0.0275 Uani
C28 C 0.4027(4) 0.6151(4) 0.9124(3) 0.0286 Uani
C29 C 0.1899(4) 0.5459(4) 0.9599(3) 0.0296 Uani
C30 C 0.0593(4) 0.4752(4) 0.9727(3) 0.0353 Uani
H37 H 0.0293 0.4814 0.9092 0.0420 Uiso
O3 O 0.8726(3) 0.7635(3) 0.1218(2) 0.0339 Uani
N4 N 0.9780(4) 0.7955(3) 0.3380(3) 0.0384 Uani
C3 C 0.9994(4) 0.7838(3) 0.1270(3) 0.0258 Uani
N9 N 0.9411(4) 0.8632(4) 0.4018(3) 0.0414 Uani
H25 H 0.8788 0.9423 0.5569 0.0530 Uiso
S1 S 0.95139(12) 0.77395(12) 0.76421(9) 0.0398 Uani
O4 O 0.9497(3) 0.8916(3) 0.8943(2) 0.0342 Uani
N3 N 0.9237(4) 0.6522(3) 0.6388(3) 0.0345 Uani
N8 N 0.7769(4) 0.6750(5) 0.6433(4) 0.0756 Uani
H7 H 0.7245 0.6508 0.6082 0.0910 Uiso
H8 H 0.7390 0.7132 0.6811 0.0910 Uiso
C10 C 0.9427(5) 0.5295(4) 0.5255(3) 0.0397 Uani
H11 H 0.8812 0.4655 0.5676 0.0480 Uiso
H12 H 0.8854 0.5885 0.4769 0.0480 Uiso
O9 O 0.8281(3) 0.0414(3) 0.1243(2) 0.0311 Uani
C16 C 0.9253(4) 0.0976(4) 0.1423(3) 0.0260 Uani
C21 C 0.9839(5) 0.3031(4) 0.3154(3) 0.0343 Uani
C22 C 0.8888(4) 0.1591(4) 0.2195(3) 0.0296 Uani
H29 H 0.8553 0.0980 0.2806 0.0350 Uiso
H30 H 0.8148 0.2233 0.1980 0.0350 Uiso
N22 N 0.8633(4) 0.3974(4) 0.4041(3) 0.0559 Uani
N23 N 0.8539(4) 0.3306(4) 0.3395(3) 0.0580 Uani
C24 C 0.9963(5) 0.4056(4) 0.4151(3) 0.0360 Uani
O25 O 0.6013(3) 0.8821(3) 0.1271(2) 0.0335 Uani
S2 S 0.43093(11) 0.36519(10) 0.14969(9) 0.0367 Uani
N1 N 0.6909(3) 0.4680(3) 0.0949(2) 0.0287 Uani
N2 N 0.7923(4) 0.3684(3) 0.0022(3) 0.0360 Uani
N5 N 0.6556(4) 0.3246(3) 0.0327(3) 0.0349 Uani
N7 N 0.6617(4) 0.5479(4) 0.1495(3) 0.0411 Uani
H3 H 0.659(5) 0.622(5) 0.102(4) 0.0490 Uiso
H4 H 0.738(5) 0.524(4) 0.188(4) 0.0490 Uiso
H5 H 0.1212 0.0577 0.4431 0.0530 Uiso
O5 O 0.3128(3) 0.2224(3) 0.0292(2) 0.0345 Uani
O6 O 0.3518(3) 0.0346(3) 0.1328(2) 0.0349 Uani
C11 C 0.4202(4) 0.1995(4) 0.1801(3) 0.0327 Uani
H15 H 0.5152 0.1628 0.1913 0.0390 Uiso
H16 H 0.3642 0.1682 0.2416 0.0390 Uiso
C12 C 0.3586(4) 0.1523(4) 0.1078(3) 0.0275 Uani
C13 C 0.5973(4) 0.3849(4) 0.0876(3) 0.0286 Uani
C14 C 0.8101(4) 0.4541(4) 0.0401(3) 0.0296 Uani
C15 C 0.9407(4) 0.5248(4) 0.0273(3) 0.0353 Uani
H17 H 0.9707 0.5186 0.0908 0.0420 Uiso
Y7 Y 0.20317(4) 0.04528(3) 0.99749(3) 0.0205 Uani
O14 O 0.1274(3) 0.2365(3) 0.8782(2) 0.0339 Uani
O18 O 0.0503(3) 0.1084(3) 0.1057(2) 0.0342 Uani
N16 N 0.0220(4) 0.2045(3) 0.6620(3) 0.0384 Uani
C18 C 0.0006(4) 0.2162(3) 0.8730(3) 0.0258 Uani
N21 N 0.0589(4) 0.1368(4) 0.5982(3) 0.0414 Uani
H18 H 0.9205 0.6118 0.9912 0.0420 Uiso
O8 O 0.3987(3) 0.1179(3) 0.8729(2) 0.0335 Uani
O1 O 0.1719(3) 0.9586(3) 0.8757(2) 0.0311 Uani
C1 C 0.0747(4) 0.9024(4) 0.8577(3) 0.0260 Uani
C6 C 0.0161(5) 0.6969(4) 0.6846(3) 0.0343 Uani
C7 C 0.1112(4) 0.8409(4) 0.7805(3) 0.0296 Uani
H9 H 0.1447 0.9020 0.7194 0.0350 Uiso
H10 H 0.1852 0.7767 0.8020 0.0350 Uiso
N10 N 0.1367(4) 0.6026(4) 0.5959(3) 0.0559 Uani
N11 N 0.1461(4) 0.6694(4) 0.6605(3) 0.0580 Uani
C9 C 0.0037(5) 0.5944(4) 0.5849(3) 0.0360 Uani
S4 S 0.04861(12) 0.22605(12) 0.23579(9) 0.0398 Uani
N15 N 0.0763(4) 0.3478(3) 0.3612(3) 0.0345 Uani
N20 N 0.2231(4) 0.3250(5) 0.3567(4) 0.0756 Uani
H27 H 0.2755 0.3492 0.3918 0.0910 Uiso
H28 H 0.2610 0.2868 0.3189 0.0910 Uiso
C25 C 0.0573(5) 0.4705(4) 0.4745(3) 0.0397 Uani
H31 H 0.1188 0.5345 0.4324 0.0480 Uiso
H32 H 0.1146 0.4115 0.5231 0.0480 Uiso
S3 S 0.22413(12) 0.73560(11) 0.24817(8) 0.0396 Uani
O2 O 0.0527(3) 0.8854(2) 0.0751(2) 0.0306 Uani
C2 C 0.1143(5) 0.8026(4) 0.3188(3) 0.0331 Uani
C4 C 0.0889(4) 0.6817(4) 0.1951(3) 0.0321 Uani
H1 H 0.1334 0.6306 0.1591 0.0390 Uiso
H2 H 0.0270 0.6295 0.2472 0.0390 Uiso
N6 N 0.1693(4) 0.8722(3) 0.3665(3) 0.0360 Uani
C5 C 0.0721(5) 0.9826(5) 0.4802(3) 0.0446 Uani
H6 H 0.1286 0.9357 0.5345 0.0530 Uiso
C8 C 0.0581(5) 0.9071(4) 0.4167(3) 0.0366 Uani
N12 N 0.3090(4) 0.9072(4) 0.3608(3) 0.0544 Uani
H13 H 0.3309 0.9555 0.3910 0.0650 Uiso
H14 H 0.3735 0.8805 0.3270 0.0650 Uiso
O7 O 0.3686(3) 0.8779(3) 0.0188(2) 0.0326 Uani
H19 H 0.3719 0.8098 0.0052 0.0390 Uiso
H20 H 0.4281 0.8430 0.0707 0.0390 Uiso
S6 S 0.77587(12) 0.26440(11) 0.75183(8) 0.0396 Uani
O10 O 0.9473(3) 0.1146(2) 0.9249(2) 0.0306 Uani
C17 C 0.8857(5) 0.1974(4) 0.6812(3) 0.0331 Uani
C19 C 0.9111(4) 0.3183(4) 0.8049(3) 0.0321 Uani
H21 H 0.8666 0.3694 0.8409 0.0390 Uiso
H22 H 0.9730 0.3705 0.7528 0.0390 Uiso
N18 N 0.8307(4) 0.1278(3) 0.6335(3) 0.0360 Uani
C20 C 0.9279(5) 0.0174(5) 0.5198(3) 0.0446 Uani
H26 H 0.8714 0.0643 0.4655 0.0530 Uiso
C23 C 0.9419(5) 0.0929(4) 0.5833(3) 0.0366 Uani
N24 N 0.6910(4) 0.0928(4) 0.6392(3) 0.0544 Uani
H33 H 0.6691 0.0445 0.6090 0.0650 Uiso
H34 H 0.6265 0.1195 0.6730 0.0650 Uiso
O24 O 0.6314(3) 0.1221(3) 0.9812(2) 0.0326 Uani
H39 H 0.6281 0.1902 0.9948 0.0390 Uiso
H40 H 0.5719 0.1570 0.9293 0.0390 Uiso
loop_
_atom_site_aniso_label
_atom_site_aniso_U_11
_atom_site_aniso_U_22
_atom_site_aniso_U_33
_atom_site_aniso_U_23
_atom_site_aniso_U_13
_atom_site_aniso_U_12
Y5 0.0193 0.0228 0.0243 -0.01392 -0.00016 -0.00405
S5 0.0287 0.0361 0.0536 -0.0268 0.0075 -0.0097
N13 0.0272 0.0266 0.037 -0.0173 0.0044 -0.0055
N14 0.034 0.033 0.049 -0.0253 0.0096 -0.01
N17 0.0309 0.036 0.047 -0.0261 0.0049 -0.0104
N19 0.045 0.037 0.052 -0.03 0.0091 -0.0095
O20 0.0354 0.0366 0.0346 -0.014 -0.0055 -0.0086
O22 0.0387 0.0282 0.0447 -0.0203 -0.0058 -0.0035
C26 0.033 0.034 0.036 -0.0163 -0.0003 -0.014
C27 0.0167 0.036 0.035 -0.019 0.0029 -0.0057
C28 0.027 0.029 0.034 -0.0158 -0.0011 -0.0047
C29 0.028 0.028 0.034 -0.0127 0.0021 -0.0036
C30 0.03 0.033 0.048 -0.021 0.0047 -0.0073
O3 0.0325 0.0314 0.0376 -0.0098 -0.0061 -0.0063
N4 0.041 0.047 0.034 -0.0219 -0.0052 -0.0015
C3 0.034 0.023 0.025 -0.0147 0.0011 -0.0021
N9 0.045 0.044 0.044 -0.0264 -0.0012 -0.0018
S1 0.0356 0.0556 0.0452 -0.0387 0.0022 -0.0089
O4 0.0228 0.0503 0.0429 -0.0337 0.005 -0.006
N3 0.036 0.044 0.033 -0.0249 0.0027 -0.0091
N8 0.041 0.123 0.107 -0.096 0.003 -0.011
C10 0.057 0.035 0.036 -0.022 0.001 -0.015
O9 0.024 0.0432 0.0355 -0.0249 0.001 -0.0076
C16 0.025 0.03 0.029 -0.0176 -0.0011 -0.0016
C21 0.041 0.039 0.03 -0.02 -0.0034 -0.0041
C22 0.03 0.037 0.028 -0.019 -0.0014 -0.0023
N22 0.051 0.075 0.068 -0.059 -0.005 0.004
N23 0.046 0.083 0.075 -0.066 -0.006 0.004
C24 0.047 0.036 0.033 -0.022 0.001 -0.007
O25 0.0273 0.04 0.0377 -0.0193 0.0049 -0.0079
S2 0.0287 0.0361 0.0536 -0.0268 0.0075 -0.0097
N1 0.0272 0.0266 0.037 -0.0173 0.0044 -0.0055
N2 0.034 0.033 0.049 -0.0253 0.0096 -0.01
N5 0.0309 0.036 0.047 -0.0261 0.0049 -0.0104
N7 0.045 0.037 0.052 -0.03 0.0091 -0.0095
O5 0.0354 0.0366 0.0346 -0.014 -0.0055 -0.0086
O6 0.0387 0.0282 0.0447 -0.0203 -0.0058 -0.0035
C11 0.033 0.034 0.036 -0.0163 -0.0003 -0.014
C12 0.0167 0.036 0.035 -0.019 0.0029 -0.0057
C13 0.027 0.029 0.034 -0.0158 -0.0011 -0.0047
C14 0.028 0.028 0.034 -0.0127 0.0021 -0.0036
C15 0.03 0.033 0.048 -0.021 0.0047 -0.0073
Y7 0.0193 0.0228 0.0243 -0.01392 -0.00016 -0.00405
O14 0.0325 0.0314 0.0376 -0.0098 -0.0061 -0.0063
O18 0.0228 0.0503 0.0429 -0.0337 0.005 -0.006
N16 0.041 0.047 0.034 -0.0219 -0.0052 -0.0015
C18 0.034 0.023 0.025 -0.0147 0.0011 -0.0021
N21 0.045 0.044 0.044 -0.0264 -0.0012 -0.0018
O8 0.0273 0.04 0.0377 -0.0193 0.0049 -0.0079
O1 0.024 0.0432 0.0355 -0.0249 0.001 -0.0076
C1 0.025 0.03 0.029 -0.0176 -0.0011 -0.0016
C6 0.041 0.039 0.03 -0.02 -0.0034 -0.0041
C7 0.03 0.037 0.028 -0.019 -0.0014 -0.0023
N10 0.051 0.075 0.068 -0.059 -0.005 0.004
N11 0.046 0.083 0.075 -0.066 -0.006 0.004
C9 0.047 0.036 0.033 -0.022 0.001 -0.007
S4 0.0356 0.0556 0.0452 -0.0387 0.0022 -0.0089
N15 0.036 0.044 0.033 -0.0249 0.0027 -0.0091
N20 0.041 0.123 0.107 -0.096 0.003 -0.011
C25 0.057 0.035 0.036 -0.022 0.001 -0.015
S3 0.0341 0.055 0.0362 -0.0237 -0.0065 0.0039
O2 0.0346 0.0246 0.0333 -0.0108 0.0017 -0.0053
C2 0.038 0.031 0.032 -0.0128 -0.0021 -0.0022
C4 0.041 0.029 0.03 -0.0148 -0.0029 0.0008
N6 0.043 0.037 0.033 -0.0173 -0.0031 -0.0064
C5 0.056 0.045 0.038 -0.02 -0.006 -0.002
C8 0.049 0.035 0.028 -0.0136 -0.003 0
N12 0.042 0.077 0.065 -0.049 0.003 -0.02
O7 0.0307 0.0319 0.0442 -0.0239 -0.0102 0.0047
S6 0.0341 0.055 0.0362 -0.0237 -0.0065 0.0039
O10 0.0346 0.0246 0.0333 -0.0108 0.0017 -0.0053
C17 0.038 0.031 0.032 -0.0128 -0.0021 -0.0022
C19 0.041 0.029 0.03 -0.0148 -0.0029 0.0008
N18 0.043 0.037 0.033 -0.0173 -0.0031 -0.0064
C20 0.056 0.045 0.038 -0.02 -0.006 -0.002
C23 0.049 0.035 0.028 -0.0136 -0.003 0
N24 0.042 0.077 0.065 -0.049 0.003 -0.02
O24 0.0307 0.0319 0.0442 -0.0239 -0.0102 0.0047
loop_
_geom_bond_atom_site_label_1
_geom_bond_atom_site_label_2
_geom_bond_site_symmetry_1
_geom_bond_site_symmetry_2
S5 C26 1_555 1_555
N13 N19 1_555 1_555
N14 N17 1_555 1_555
N17 C28 1_555 1_555
N19 H23 1_555 1_555
H24 N19 1_555 1_555
O20 C27 1_555 1_555
C26 H35 1_555 1_555
H36 C26 1_555 1_555
C27 O22 1_555 1_555
C28 S5 1_555 1_555
C29 N13 1_555 1_555
H37 C30 1_555 1_555
N13 C28 1_555 1_555
N14 C29 1_555 1_555
C26 C27 1_555 1_555
C29 C30 1_555 1_555
O3 C3 1_555 1_555
N4 N9 1_555 1_555
O3 Y5 1_555 1_555
N8 N3 1_555 1_555
H7 N8 1_555 1_555
H8 N8 1_555 1_555
H11 C10 1_555 1_555
H12 C10 1_555 1_555
O9 C16 1_555 1_555
C21 N23 1_555 1_555
H29 C22 1_555 1_555
H30 C22 1_555 1_555
N22 N23 1_555 1_555
C16 C22 1_555 1_555
N22 C24 1_555 1_555
O25 Y5 1_555 1_555
S2 C11 1_555 1_555
N1 N7 1_555 1_555
N2 N5 1_555 1_555
N5 C13 1_555 1_555
N7 H3 1_555 1_555
H4 N7 1_555 1_555
C11 H15 1_555 1_555
H16 C11 1_555 1_555
C12 O5 1_555 1_555
C13 S2 1_555 1_555
C14 N1 1_555 1_555
C15 C14 1_555 1_555
H17 C15 1_555 1_555
O14 Y7 1_555 1_555
N16 N21 1_555 1_555
C18 O14 1_555 1_555
N1 C13 1_555 1_555
N2 C14 1_555 1_555
O6 C12 1_555 1_555
C11 C12 1_555 1_555
O8 Y7 1_555 1_555
O1 C1 1_555 1_555
C1 C7 1_555 1_555
C6 N11 1_555 1_555
H9 C7 1_555 1_555
H10 C7 1_555 1_555
N10 N11 1_555 1_555
N20 N15 1_555 1_555
H27 N20 1_555 1_555
H28 N20 1_555 1_555
H31 C25 1_555 1_555
H32 C25 1_555 1_555
N10 C9 1_555 1_555
S3 C2 1_555 1_555
C4 S3 1_555 1_555
H1 C4 1_555 1_555
H2 C4 1_555 1_555
N6 C2 1_555 1_555
H6 C5 1_555 1_555
C8 N6 1_555 1_555
N12 N6 1_555 1_555
H13 N12 1_555 1_555
H14 N12 1_555 1_555
H19 O7 1_555 1_555
H20 O7 1_555 1_555
C5 C8 1_555 1_555
S6 C17 1_555 1_555
C19 S6 1_555 1_555
H21 C19 1_555 1_555
H22 C19 1_555 1_555
N18 C17 1_555 1_555
H26 C20 1_555 1_555
C23 N18 1_555 1_555
N24 N18 1_555 1_555
H33 N24 1_555 1_555
H34 N24 1_555 1_555
C20 C23 1_555 1_555
H39 O24 1_555 1_555
H40 O24 1_555 1_555

#END
