
###############################################################################
#
# This file contains modified crystal structure data generated from the
# MOF subset of the Cambridge Structural Database (CSD) v543 
# hosted by the Cambridge Crystallographic Data Centre (CCDC).
#
# This work is licensed under the Creative Commons
# Attribution-NonCommercial-ShareAlike 4.0 International License.
# To view a copy of this license, visit
# http://creativecommons.org/licenses/by-nc-sa/4.0/
# or send a letter to
# Creative Commons, PO Box 1866, Mountain View, CA 94042, USA.
#
# CIF created using the CSD Python API on 29 September 2022
# The structure has been converted into the P1 space group
# The structure has a 3D framework
# The original CSD entry LANGOA is in the orthorhombic crystal system
# The framework has been calculated to contain at least 10.0% void space
# The void calculation uses a probe of radius 1.32A, grid spacing 0.4
#
###############################################################################

data_LANGOA
_chemical_formula_moiety         '(C24 H16 N16 Ni6)n'
_symmetry_cell_setting           triclinic
_symmetry_space_group_name_H-M   'P 1'
_symmetry_Int_Tables_number      1
_space_group_name_Hall           'P 1'
loop_
_symmetry_equiv_pos_site_id
_symmetry_equiv_pos_as_xyz
1 x,y,z
_cell_length_a                   14.6077(5)
_cell_length_b                   6.9426(2)
_cell_length_c                   10.0037(4)
_cell_angle_alpha                90
_cell_angle_beta                 90
_cell_angle_gamma                90
_cell_volume                     1014.53
loop_
_atom_site_label
_atom_site_type_symbol
_atom_site_fract_x
_atom_site_fract_y
_atom_site_fract_z
Ni3 Ni 0.000000 0.000000 0.000000
Ni3_2 Ni 0.000000 -0.000000 1.000000
Ni3_3 Ni 0.000000 1.000000 0.000000
Ni4 Ni 0.000000 0.500000 0.000000
Ni3_4 Ni 0.000000 1.000000 1.000000
Ni4_2 Ni 0.000000 0.500000 1.000000
H3 H 0.677(2) 0.038(3) 0.331(3)
H4 H 0.823(2) 0.038(3) 0.169(3)
Ni2 Ni 0.500000 -0.000000 0.500000
Ni3_5 Ni 1.000000 0.000000 0.000000
Ni3_6 Ni 1.000000 -0.000000 1.000000
Ni1 Ni 0.500000 0.500000 0.500000
N1 N 0.59149(14) 0.6522(3) 0.4188(2)
C1 C 0.66262(18) 0.5935(4) 0.3455(3)
C2 C 0.7098(2) 0.750000 0.2943(4)
H1 H 0.677(2) 0.462(3) 0.331(3)
N2 N 0.90851(14) 0.6522(3) 0.0812(2)
C3 C 0.83738(18) 0.5935(4) 0.1545(3)
C4 C 0.7902(2) 0.750000 0.2057(4)
H2 H 0.823(2) 0.462(3) 0.169(3)
N3 N 0.59149(14) 0.8478(3) 0.4188(2)
C5 C 0.66262(18) 0.9065(4) 0.3455(3)
N4 N 0.90851(14) 0.8478(3) 0.0812(2)
C6 C 0.83738(18) 0.9065(4) 0.1545(3)
Ni2_2 Ni 0.500000 1.000000 0.500000
Ni3_7 Ni 1.000000 1.000000 0.000000
Ni4_3 Ni 1.000000 0.500000 0.000000
N5 N 0.59149(14) 0.3478(3) 0.5812(2)
N6 N 0.40851(14) 0.3478(3) 0.5812(2)
N7 N 0.40851(14) 0.6522(3) 0.4188(2)
Ni3_8 Ni 1.000000 1.000000 1.000000
Ni4_4 Ni 1.000000 0.500000 1.000000
H1_2 H 0.323(2) 0.038(3) 0.331(3)
H2_2 H 0.177(2) 0.038(3) 0.169(3)
N5_2 N 0.40851(14) 0.1522(3) 0.5812(2)
N6_2 N 0.59149(14) 0.1522(3) 0.5812(2)
N1_2 N 0.40851(14) 0.8478(3) 0.4188(2)
C1_2 C 0.33738(18) 0.9065(4) 0.3455(3)
C2_2 C 0.2902(2) 0.750000 0.2943(4)
N2_2 N 0.09149(14) 0.8478(3) 0.0812(2)
C3_2 C 0.16262(18) 0.9065(4) 0.1545(3)
C4_2 C 0.2098(2) 0.750000 0.2057(4)
C5_2 C 0.33738(18) 0.5935(4) 0.3455(3)
H3_2 H 0.323(2) 0.462(3) 0.331(3)
N4_2 N 0.09149(14) 0.6522(3) 0.0812(2)
C6_2 C 0.16262(18) 0.5935(4) 0.1545(3)
H4_2 H 0.177(2) 0.462(3) 0.169(3)
C1_3 C 0.33738(18) 0.0935(4) 0.6545(3)
C2_3 C 0.2902(2) 0.250000 0.7057(4)
N2_3 N 0.09149(14) 0.1522(3) 0.9188(2)
C3_3 C 0.16262(18) 0.0935(4) 0.8455(3)
C4_3 C 0.2098(2) 0.250000 0.7943(4)
C5_3 C 0.33738(18) 0.4065(4) 0.6545(3)
H3_3 H 0.323(2) 0.538(3) 0.669(3)
N4_3 N 0.09149(14) 0.3478(3) 0.9188(2)
C6_3 C 0.16262(18) 0.4065(4) 0.8455(3)
H4_3 H 0.177(2) 0.538(3) 0.831(3)
H1_3 H 0.323(2) 0.962(3) 0.669(3)
H2_3 H 0.177(2) 0.962(3) 0.831(3)
C1_4 C 0.66262(18) 0.4065(4) 0.6545(3)
C2_4 C 0.7098(2) 0.250000 0.7057(4)
H1_4 H 0.677(2) 0.538(3) 0.669(3)
N2_4 N 0.90851(14) 0.3478(3) 0.9188(2)
C3_4 C 0.83738(18) 0.4065(4) 0.8455(3)
C4_4 C 0.7902(2) 0.250000 0.7943(4)
H2_4 H 0.823(2) 0.538(3) 0.831(3)
C5_4 C 0.66262(18) 0.0935(4) 0.6545(3)
N4_4 N 0.90851(14) 0.1522(3) 0.9188(2)
C6_4 C 0.83738(18) 0.0935(4) 0.8455(3)
H3_4 H 0.677(2) 0.962(3) 0.669(3)
H4_4 H 0.823(2) 0.962(3) 0.831(3)
loop_
_geom_bond_atom_site_label_1
_geom_bond_atom_site_label_2
_geom_bond_site_symmetry_1
_geom_bond_site_symmetry_2
Ni1 N1 1_555 1_555
N1 C1 1_555 1_555
C1 C2 1_555 1_555
C2 C4 1_555 1_555
H1 C1 1_555 1_555
N2 C3 1_555 1_555
C3 C4 1_555 1_555
C4 C6 1_555 1_555
H2 C3 1_555 1_555
N3 N1 1_555 1_555
C5 C2 1_555 1_555
N4 N2 1_555 1_555
C6 N4 1_555 1_555
Ni2_2 N3 1_555 1_555
Ni3_7 N4 1_555 1_555
Ni4_3 N2 1_555 1_555
N5 Ni1 1_555 1_555
N6 Ni1 1_555 1_555
N7 Ni1 1_555 1_555
N3 C5 1_555 1_555
N5_2 Ni2 1_555 1_555
N6_2 Ni2 1_555 1_555
Ni2_2 N1_2 1_555 1_555
N1_2 C1_2 1_555 1_555
C1_2 C2_2 1_555 1_555
C2_2 C4_2 1_555 1_555
N2_2 C3_2 1_555 1_555
C3_2 C4_2 1_555 1_555
C4_2 C6_2 1_555 1_555
N7 N1_2 1_555 1_555
C5_2 C2_2 1_555 1_555
H3_2 C5_2 1_555 1_555
N4_2 N2_2 1_555 1_555
C6_2 N4_2 1_555 1_555
H4_2 C6_2 1_555 1_555
Ni4 N4_2 1_555 1_555
Ni3_3 N2_2 1_555 1_555
N7 C5_2 1_555 1_555
N5_2 C1_3 1_555 1_555
C1_3 C2_3 1_555 1_555
C2_3 C4_3 1_555 1_555
N2_3 C3_3 1_555 1_555
C3_3 C4_3 1_555 1_555
C4_3 C6_3 1_555 1_555
N6 N5_2 1_555 1_555
C5_3 C2_3 1_555 1_555
H3_3 C5_3 1_555 1_555
N4_3 N2_3 1_555 1_555
C6_3 N4_3 1_555 1_555
H4_3 C6_3 1_555 1_555
Ni4_2 N4_3 1_555 1_555
Ni3_2 N2_3 1_555 1_555
N6 C5_3 1_555 1_555
N5 C1_4 1_555 1_555
C1_4 C2_4 1_555 1_555
C2_4 C4_4 1_555 1_555
H1_4 C1_4 1_555 1_555
N2_4 C3_4 1_555 1_555
C3_4 C4_4 1_555 1_555
C4_4 C6_4 1_555 1_555
H2_4 C3_4 1_555 1_555
N6_2 N5 1_555 1_555
C5_4 C2_4 1_555 1_555
N4_4 N2_4 1_555 1_555
C6_4 N4_4 1_555 1_555
Ni3_6 N4_4 1_555 1_555
Ni4_4 N2_4 1_555 1_555
N6_2 C5_4 1_555 1_555

#END
