
###############################################################################
#
# This file contains modified crystal structure data generated from the
# MOF subset of the Cambridge Structural Database (CSD) v543 
# hosted by the Cambridge Crystallographic Data Centre (CCDC).
#
# This work is licensed under the Creative Commons
# Attribution-NonCommercial-ShareAlike 4.0 International License.
# To view a copy of this license, visit
# http://creativecommons.org/licenses/by-nc-sa/4.0/
# or send a letter to
# Creative Commons, PO Box 1866, Mountain View, CA 94042, USA.
#
# CIF created using the CSD Python API on 29 September 2022
# The structure has been converted into the P1 space group
# The structure has a 3D framework
# The original CSD entry LAPTAB is in the monoclinic crystal system
# The framework has been calculated to contain at least 10.0% void space
# The void calculation uses a probe of radius 1.32A, grid spacing 0.4
#
###############################################################################

data_LAPTAB
_chemical_formula_moiety         '(C52 H32 N12 O8 Zn4)n'
_symmetry_cell_setting           triclinic
_symmetry_space_group_name_H-M   'P 1'
_symmetry_Int_Tables_number      1
_space_group_name_Hall           'P 1'
loop_
_symmetry_equiv_pos_site_id
_symmetry_equiv_pos_as_xyz
1 x,y,z
_cell_length_a                   15.9545(9)
_cell_length_b                   9.4496(5)
_cell_length_c                   11.2888(5)
_cell_angle_alpha                90
_cell_angle_beta                 110.631(2)
_cell_angle_gamma                90
_cell_volume                     1592.79
loop_
_atom_site_label
_atom_site_type_symbol
_atom_site_fract_x
_atom_site_fract_y
_atom_site_fract_z
O3 O 0.31712(13) 0.3149(2) 0.0399(2)
C16 C 0.15830(18) 0.2112(3) 0.0611(3)
H9 H 0.190794 0.279412 0.121757
C17 C 0.08706(19) 0.1400(3) 0.0772(3)
H10 H 0.071489 0.160503 0.149189
O4 O 0.27948(14) 0.2374(3) 0.8441(2)
C14 C 0.26365(18) 0.2496(3) 0.9434(3)
C15 C 0.18224(17) 0.1830(3) 0.9565(3)
C18 C 0.03764(19) 0.0391(3) 0.9904(3)
C19 C 0.0625(2) 0.0129(4) 0.8852(3)
C20 C 0.1336(2) 0.0839(4) 0.8683(3)
H12 H 0.148981 0.064610 0.795964
Zn4 Zn 0.41915(2) 0.36118(3) 0.98910(3)
Zn1 Zn 0.58085(2) 0.63882(3) 0.01090(3)
O2 O 0.72052(14) 0.7626(3) 0.1559(2)
C7 C 0.73635(18) 0.7504(3) 0.0566(3)
C8 C 0.81776(17) 0.8170(3) 0.0435(3)
C11 C 0.96236(19) 0.9609(3) 0.0096(3)
C12 C 0.9375(2) 0.9871(4) 0.1148(3)
C13 C 0.8664(2) 0.9161(4) 0.1317(3)
H8 H 0.851019 0.935390 0.204036
N4 N 0.50895(15) 0.4392(2) 0.1496(2)
N5 N 0.58616(15) 0.5056(2) 0.1541(2)
N6 N 0.48978(15) 0.2954(3) 0.4396(2)
C21 C 0.57137(19) 0.3398(3) 0.5209(3)
H13 H 0.587629 0.316952 0.608112
C22 C 0.6306(2) 0.4153(3) 0.4836(3)
H14 H 0.686228 0.446305 0.542946
C23 C 0.60605(18) 0.4454(3) 0.3534(3)
C24 C 0.52130(18) 0.4017(3) 0.2712(2)
C25 C 0.46325(18) 0.3273(3) 0.3180(3)
H15 H 0.405364 0.300270 0.262575
C26 C 0.64420(18) 0.5112(3) 0.2725(3)
H16 H 0.702054 0.552839 0.298188
Zn3 Zn 0.41915(2) 0.13882(3) 0.48910(3)
N8 N 0.51022(15) 0.7954(3) 0.0604(2)
O1 O 0.68288(13) 0.6851(2) 0.9601(2)
N1 N 0.49105(15) 0.5608(2) 0.8504(2)
N2 N 0.41384(15) 0.4944(2) 0.8459(2)
N3 N 0.51022(15) 0.7046(3) 0.5604(2)
C1 C 0.42863(19) 0.6602(3) 0.4791(3)
H1 H 0.412371 0.683048 0.391888
C2 C 0.3694(2) 0.5847(3) 0.5164(3)
H2 H 0.313772 0.553695 0.457054
C3 C 0.39395(18) 0.5546(3) 0.6466(3)
C4 C 0.47870(18) 0.5983(3) 0.7288(2)
C5 C 0.53675(18) 0.6727(3) 0.6820(3)
H3 H 0.594636 0.699730 0.737425
C6 C 0.35580(18) 0.4888(3) 0.7275(3)
H4 H 0.297946 0.447161 0.701812
C9 C 0.84170(18) 0.7888(3) 0.9389(3)
H5 H 0.809206 0.720588 0.878243
C10 C 0.91294(19) 0.8600(3) 0.9228(3)
H6 H 0.928511 0.839497 0.850811
Zn5 Zn 0.58085(2) 0.86118(3) 0.51090(3)
N7 N 0.48978(15) 0.2046(3) 0.9396(2)
O1_2 O 0.31712(13) 0.1851(2) 0.5399(2)
O2_2 O 0.27948(14) 0.2626(3) 0.3441(2)
N1_2 N 0.50895(15) 0.0608(2) 0.6496(2)
C2_2 C 0.6306(2) 0.0847(3) 0.9836(3)
C3_2 C 0.60605(18) 0.0546(3) 0.8534(3)
C4_2 C 0.52130(18) 0.0983(3) 0.7712(2)
C5_2 C 0.46325(18) 0.1727(3) 0.8180(3)
H3_2 H 0.405364 0.199730 0.762575
C7_2 C 0.26365(18) 0.2504(3) 0.4434(3)
C8_2 C 0.18224(17) 0.3170(3) 0.4565(3)
C9_2 C 0.15830(18) 0.2888(3) 0.5611(3)
H5_2 H 0.190794 0.220588 0.621757
C10_2 C 0.08706(19) 0.3600(3) 0.5772(3)
H6_2 H 0.071489 0.339497 0.649189
C11_2 C 0.03764(19) 0.4609(3) 0.4904(3)
C12_2 C 0.0625(2) 0.4871(4) 0.3852(3)
H7 H 0.030038 0.554904 0.324146
C13_2 C 0.1336(2) 0.4161(4) 0.3683(3)
H8_2 H 0.148981 0.435390 0.295964
N5_2 N 0.41384(15) 0.0056(2) 0.3459(2)
C26_2 C 0.35580(18) 0.0112(3) 0.2275(3)
H16_2 H 0.297946 0.052839 0.201812
N2_2 N 0.58616(15) 0.9944(2) 0.6541(2)
C6_2 C 0.64420(18) 0.9888(3) 0.7725(3)
H4_2 H 0.702054 0.947161 0.798188
N4_2 N 0.49105(15) 0.9392(2) 0.3504(2)
C22_2 C 0.3694(2) 0.9153(3) 0.0164(3)
C23_2 C 0.39395(18) 0.9454(3) 0.1466(3)
C24_2 C 0.47870(18) 0.9017(3) 0.2288(2)
C25_2 C 0.53675(18) 0.8273(3) 0.1820(3)
H15_2 H 0.594636 0.800270 0.237425
O5 O 0.68288(13) 0.8149(2) 0.4601(2)
O6 O 0.72052(14) 0.7374(3) 0.6559(2)
C14_2 C 0.73635(18) 0.7496(3) 0.5566(3)
C15_2 C 0.81776(17) 0.6830(3) 0.5435(3)
C16_2 C 0.84170(18) 0.7112(3) 0.4389(3)
H9_2 H 0.809206 0.779412 0.378243
C17_2 C 0.91294(19) 0.6400(3) 0.4228(3)
H10_2 H 0.928511 0.660503 0.350811
C18_2 C 0.96236(19) 0.5391(3) 0.5096(3)
C19_2 C 0.9375(2) 0.5129(4) 0.6148(3)
H11 H 0.969962 0.445096 0.675854
C20_2 C 0.8664(2) 0.5839(4) 0.6317(3)
H12_2 H 0.851019 0.564610 0.704036
H11_2 H 0.030038 0.945096 0.824146
H7_2 H 0.969962 0.054904 0.175854
C1_2 C 0.57137(19) 0.1602(3) 0.0209(3)
H1_2 H 0.587629 0.183048 0.108112
H2_2 H 0.686228 0.053695 0.042946
C21_2 C 0.42863(19) 0.8398(3) 0.9791(3)
H13_2 H 0.412371 0.816952 0.891888
H14_2 H 0.313772 0.946305 0.957054
loop_
_geom_bond_atom_site_label_1
_geom_bond_atom_site_label_2
_geom_bond_site_symmetry_1
_geom_bond_site_symmetry_2
C16 H9 1_555 1_555
C17 C16 1_555 1_555
H10 C17 1_555 1_555
O4 C14 1_555 1_555
C14 C15 1_555 1_555
C19 C18 1_555 1_555
C20 C15 1_555 1_555
H12 C20 1_555 1_555
O4 Zn4 1_555 1_555
C19 C20 1_555 1_555
O2 Zn1 1_555 1_555
C7 O2 1_555 1_555
C8 C7 1_555 1_555
C12 C11 1_555 1_555
C13 C8 1_555 1_555
H8 C13 1_555 1_555
N5 Zn1 1_555 1_555
N6 C21 1_555 1_555
C21 H13 1_555 1_555
C22 C21 1_555 1_555
H14 C22 1_555 1_555
C23 C22 1_555 1_555
C24 N4 1_555 1_555
C25 N6 1_555 1_555
H15 C25 1_555 1_555
C26 N5 1_555 1_555
H16 C26 1_555 1_555
Zn3 N6 1_555 1_555
N8 Zn1 1_555 1_555
C12 C13 1_555 1_555
N4 N5 1_555 1_555
C23 C24 1_555 1_555
C23 C26 1_555 1_555
C24 C25 1_555 1_555
N2 N1 1_555 1_555
N3 C1 1_555 1_555
C1 H1 1_555 1_555
C2 C1 1_555 1_555
H2 C2 1_555 1_555
C3 C2 1_555 1_555
C4 N1 1_555 1_555
C5 N3 1_555 1_555
H3 C5 1_555 1_555
C6 N2 1_555 1_555
H4 C6 1_555 1_555
H5 C9 1_555 1_555
C10 C9 1_555 1_555
H6 C10 1_555 1_555
Zn4 N2 1_555 1_555
Zn5 N3 1_555 1_555
N7 Zn4 1_555 1_555
C3 C4 1_555 1_555
C3 C6 1_555 1_555
C4 C5 1_555 1_555
Zn3 O1_2 1_555 1_555
O1_2 C7_2 1_555 1_555
O2_2 Zn3 1_555 1_555
N1_2 Zn3 1_555 1_555
C3_2 C2_2 1_555 1_555
C4_2 N1_2 1_555 1_555
C5_2 N7 1_555 1_555
H3_2 C5_2 1_555 1_555
C7_2 O2_2 1_555 1_555
C8_2 C7_2 1_555 1_555
C9_2 C8_2 1_555 1_555
H5_2 C9_2 1_555 1_555
C10_2 C9_2 1_555 1_555
H6_2 C10_2 1_555 1_555
C11_2 C10_2 1_555 1_555
C12_2 C11_2 1_555 1_555
H7 C12_2 1_555 1_555
C13_2 C8_2 1_555 1_555
H8_2 C13_2 1_555 1_555
N5_2 Zn3 1_555 1_555
C26_2 N5_2 1_555 1_555
H16_2 C26_2 1_555 1_555
C3_2 C4_2 1_555 1_555
C4_2 C5_2 1_555 1_555
C12_2 C13_2 1_555 1_555
C6_2 N2_2 1_555 1_555
H4_2 C6_2 1_555 1_555
Zn5 N2_2 1_555 1_555
N4_2 Zn5 1_555 1_555
C23_2 C22_2 1_555 1_555
C24_2 N4_2 1_555 1_555
C25_2 N8 1_555 1_555
H15_2 C25_2 1_555 1_555
O5 Zn5 1_555 1_555
O6 Zn5 1_555 1_555
C23_2 C24_2 1_555 1_555
C24_2 C25_2 1_555 1_555
O5 C14_2 1_555 1_555
O6 C14_2 1_555 1_555
C14_2 C15_2 1_555 1_555
C15_2 C16_2 1_555 1_555
C16_2 H9_2 1_555 1_555
C17_2 C16_2 1_555 1_555
H10_2 C17_2 1_555 1_555
C19_2 C18_2 1_555 1_555
H11 C19_2 1_555 1_555
C20_2 C15_2 1_555 1_555
H12_2 C20_2 1_555 1_555
C17_2 C18_2 1_555 1_555
C19_2 C20_2 1_555 1_555
C1_2 H1_2 1_555 1_555
C21_2 H13_2 1_555 1_555

#END
