
###############################################################################
#
# This file contains modified crystal structure data generated from the
# MOF subset of the Cambridge Structural Database (CSD) v543 
# hosted by the Cambridge Crystallographic Data Centre (CCDC).
#
# This work is licensed under the Creative Commons
# Attribution-NonCommercial-ShareAlike 4.0 International License.
# To view a copy of this license, visit
# http://creativecommons.org/licenses/by-nc-sa/4.0/
# or send a letter to
# Creative Commons, PO Box 1866, Mountain View, CA 94042, USA.
#
# CIF created using the CSD Python API on 29 September 2022
# The structure has been converted into the P1 space group
# The structure has a 3D framework
# The original CSD entry LAQXUA is in the triclinic crystal system
# The framework has been calculated to contain at least 10.0% void space
# The void calculation uses a probe of radius 1.32A, grid spacing 0.4
#
###############################################################################

data_LAQXUA
_chemical_formula_moiety         '(C88 H70 Co7 N6 O19)n'
_symmetry_cell_setting           triclinic
_symmetry_space_group_name_H-M   'P 1'
_symmetry_Int_Tables_number      1
_space_group_name_Hall           'P 1'
loop_
_symmetry_equiv_pos_site_id
_symmetry_equiv_pos_as_xyz
1 x,y,z
_cell_length_a                   11.665(2)
_cell_length_b                   13.444(3)
_cell_length_c                   13.972(3)
_cell_angle_alpha                89.501(3)
_cell_angle_beta                 73.353(3)
_cell_angle_gamma                85.895(3)
_cell_volume                     2093.77
loop_
_atom_site_label
_atom_site_type_symbol
_atom_site_fract_x
_atom_site_fract_y
_atom_site_fract_z
Co19 Co 0.000000 0.000000 0.000000
C1 C 0.1520(3) 0.1484(3) 0.1002(2)
O2 O 0.1429(2) 0.06223(19) 0.07216(18)
O4 O 0.6166(2) 0.0899(2) 0.01957(17)
O5 O 0.0792(2) 0.2225(2) 0.0946(2)
O6 O 0.6472(2) 0.1014(2) 0.16921(18)
N2 N 0.2795(3) 0.3057(2) 0.3687(2)
O8 O 0.0837(2) 0.1029(3) 0.8884(2)
C2 C 0.3057(3) 0.2446(3) 0.2831(2)
C3 C 0.4207(3) 0.1988(3) 0.2437(3)
H1 H 0.477980 0.205430 0.277382
C4 C 0.2496(3) 0.1692(3) 0.1462(3)
C5 C 0.5814(3) 0.1065(3) 0.1124(3)
C6 C 0.4518(3) 0.1436(3) 0.1554(2)
O9 O 0.2346(3) 0.7362(2) 0.0710(2)
O10 O 0.0531(3) 0.6876(2) 0.0773(2)
C7 C 0.2208(3) 0.2305(3) 0.2322(3)
H2 H 0.144310 0.262134 0.255484
C8 C 0.0435(3) 0.1227(3) 0.8167(3)
C9 C 0.3649(3) 0.1270(3) 0.1066(3)
H3 H 0.384653 0.088279 0.048632
C10 C 0.3388(3) 0.2852(3) 0.4475(3)
H4 H 0.368019 0.346710 0.463851
H5 H 0.407894 0.238541 0.421069
C11 C 0.2656(4) 0.5593(4) 0.1799(4)
H6 H 0.335001 0.579356 0.134551
C12 C 0.2599(3) 0.2426(3) 0.5437(3)
C15 C 0.1562(3) 0.1970(3) 0.5465(3)
H9 H 0.133009 0.191350 0.488532
C16 C 0.5558(3) 0.0160(3) 0.4009(3)
H10 H 0.593091 0.027192 0.333769
C17 C 0.0872(3) 0.1597(3) 0.6353(3)
H11 H 0.016388 0.131036 0.636921
C20 C 0.1222(3) 0.1645(3) 0.7219(3)
C23 C 0.0540(4) 0.5755(4) 0.2504(4)
H14 H 0.225671 0.021958 0.409678
C25 C 0.1488(4) 0.6821(3) 0.1046(3)
C27 C 0.2272(3) 0.2075(4) 0.7185(3)
H15 H 0.252928 0.209384 0.775530
C31 C 0.2944(3) 0.2479(4) 0.6304(3)
H19 H 0.363410 0.278977 0.629451
C32 C 0.0635(4) 0.5036(4) 0.3179(3)
C33 C 0.1732(4) 0.4544(3) 0.3162(3)
C35 C 0.1557(4) 0.6051(3) 0.1803(3)
C40 C 0.2737(4) 0.4838(4) 0.2462(4)
H26 H 0.348336 0.452492 0.243384
C41 C 0.1764(4) 0.3753(3) 0.3930(3)
H27 H 0.171705 0.408267 0.455681
H28 H 0.105441 0.338382 0.403702
N4 N 0.7081(3) 0.0829(2) 0.8074(2)
O12 O 0.7216(2) 0.0789(2) 0.44896(19)
C45 C 0.7718(3) 0.0310(3) 0.7241(3)
H36 H 0.849739 0.006522 0.719762
C46 C 0.5970(3) 0.1173(3) 0.8125(3)
H37 H 0.552594 0.154510 0.868350
C48 C 0.5450(3) 0.0997(3) 0.7375(3)
H39 H 0.466262 0.123425 0.743951
C49 C 0.6112(3) 0.0463(3) 0.6520(3)
C50 C 0.6124(3) 0.0392(3) 0.4714(3)
C51 C 0.5553(3) 0.0237(3) 0.5719(3)
C52 C 0.7268(3) 0.0129(3) 0.6466(3)
C53 C 0.7819(4) 0.0978(4) 0.3480(3)
H41 H 0.785307 0.039023 0.307254
H42 H 0.739228 0.152196 0.323498
C54 C 0.9046(4) 0.1243(4) 0.3416(4)
H43 H 0.942135 0.074702 0.374953
H44 H 0.950550 0.127183 0.272777
H45 H 0.900889 0.188095 0.373094
Co8 Co 0.21655(4) 0.90349(4) 0.07403(3)
Co12 Co 0.78345(4) 0.09651(4) 0.92597(3)
Co19_2 Co -0.000000 0.000000 1.000000
Co16 Co 0.05786(5) 0.77106(4) 0.96207(4)
Co19_3 Co -0.000000 1.000000 0.000000
N1 N 0.2919(3) 0.9171(2) 0.1926(2)
O7 O 0.2784(2) 0.9211(2) 0.55104(19)
C13 C 0.2282(3) 0.9690(3) 0.2759(3)
H7 H 0.150261 0.993478 0.280238
C14 C 0.4030(3) 0.8827(3) 0.1875(3)
H8 H 0.447406 0.845490 0.131650
C18 C 0.4550(3) 0.9003(3) 0.2625(3)
H12 H 0.533738 0.876575 0.256049
C19 C 0.3888(3) 0.9537(3) 0.3480(3)
C21 C 0.3876(3) 0.9608(3) 0.5286(3)
C22 C 0.4447(3) 0.9763(3) 0.4281(3)
C24 C 0.2732(3) 0.9871(3) 0.3534(3)
C29 C 0.2181(4) 0.9022(4) 0.6520(3)
H17 H 0.214693 0.960977 0.692746
H18 H 0.260772 0.847804 0.676502
C43 C 0.0954(4) 0.8757(4) 0.6584(4)
H30 H 0.057865 0.925298 0.625047
H31 H 0.049450 0.872817 0.727223
H32 H 0.099111 0.811905 0.626906
C47 C 0.4442(3) 0.9840(3) 0.5991(3)
H38 H 0.406909 0.972808 0.666231
H40 H 0.774329 0.978042 0.590322
Co19_4 Co 0.000000 1.000000 1.000000
O27 O 0.0607(2) 0.8887(2) 0.18406(18)
O1 O 0.1349(2) 0.89625(18) 0.95520(17)
O29 O 0.3834(2) 0.9101(2) 0.98043(17)
Co19_5 Co 1.000000 0.000000 0.000000
Co2 Co 0.94214(5) 0.22894(4) 0.03793(4)
O3 O 0.9393(2) 0.1113(2) 0.81594(18)
N3 N 0.8281(3) 0.3172(3) 0.1532(3)
O11 O 0.6911(3) 0.3737(3) 0.5148(2)
H13 H 0.978913 0.604698 0.251480
C26 C 0.6704(4) 0.4143(3) 0.3226(3)
C28 C 0.6308(4) 0.3780(4) 0.2466(3)
H16 H 0.549779 0.385909 0.250334
C30 C 0.5867(4) 0.4599(3) 0.4146(3)
H20 H 0.994686 0.486904 0.366314
C34 C 0.7105(4) 0.3301(3) 0.1656(3)
H21 H 0.680524 0.305227 0.116397
C36 C 0.5948(4) 0.4349(4) 0.5102(3)
C37 C 0.4907(4) 0.5255(3) 0.4071(3)
H22 H 0.484799 0.542841 0.343987
C38 C 0.7943(4) 0.4030(4) 0.3083(4)
H23 H 0.826631 0.427425 0.356250
C39 C 0.6856(5) 0.3168(5) 0.6004(5)
H24 H 0.628835 0.266239 0.605856
H25 H 0.657950 0.359462 0.659388
C42 C 0.8683(4) 0.3561(4) 0.2241(4)
H29 H 0.950512 0.351054 0.216036
C44 C 0.8047(5) 0.2689(4) 0.5948(4)
H33 H 0.825000 0.217208 0.544536
H34 H 0.803715 0.240511 0.658297
H35 H 0.863309 0.317676 0.577870
N5 N 0.1719(3) 0.6828(3) 0.8468(3)
O13 O 0.3089(3) 0.6263(3) 0.4852(2)
C55 C 0.3296(4) 0.5857(3) 0.6774(3)
C56 C 0.3692(4) 0.6220(4) 0.7534(3)
H46 H 0.450221 0.614091 0.749666
C57 C 0.4133(4) 0.5401(3) 0.5854(3)
C58 C 0.2895(4) 0.6699(3) 0.8344(3)
H47 H 0.319476 0.694773 0.883603
C59 C 0.4052(4) 0.5651(4) 0.4898(3)
C60 C 0.5093(4) 0.4745(3) 0.5929(3)
H48 H 0.515201 0.457159 0.656013
C61 C 0.2057(4) 0.5970(4) 0.6917(4)
H49 H 0.173369 0.572575 0.643750
C62 C 0.3144(5) 0.6832(5) 0.3996(5)
H50 H 0.371165 0.733761 0.394144
H51 H 0.342050 0.640538 0.340612
C63 C 0.1317(4) 0.6439(4) 0.7759(4)
H52 H 0.049488 0.648946 0.783964
C64 C 0.1953(5) 0.7311(4) 0.4052(4)
H53 H 0.175000 0.782792 0.455464
H54 H 0.196285 0.759489 0.341703
H55 H 0.136691 0.682324 0.422130
H64 H 0.021087 0.395302 0.748520
H67 H 0.005314 0.513096 0.633686
Co19_6 Co 1.000000 0.000000 1.000000
O24 O 0.8651(2) 0.10375(18) 0.04480(17)
O35 O 0.9469(3) 0.3124(2) 0.9227(2)
Co19_7 Co 1.000000 1.000000 0.000000
Co19_8 Co 1.000000 1.000000 1.000000
O31 O 0.9163(2) 0.8971(3) 0.1116(2)
O25 O 0.8571(2) 0.93777(19) 0.92784(18)
O33 O 0.7654(3) 0.2638(2) 0.9290(2)
C65 C 0.8480(3) 0.8516(3) 0.8998(2)
O18 O 0.9208(2) 0.7775(2) 0.9054(2)
O19 O 0.3528(2) 0.8986(2) 0.83079(18)
N6 N 0.7205(3) 0.6943(2) 0.6313(2)
C66 C 0.6943(3) 0.7554(3) 0.7169(2)
C67 C 0.5793(3) 0.8012(3) 0.7563(3)
H56 H 0.522020 0.794570 0.722618
C68 C 0.7504(3) 0.8308(3) 0.8538(3)
C69 C 0.4186(3) 0.8935(3) 0.8876(3)
C70 C 0.5482(3) 0.8564(3) 0.8446(2)
C71 C 0.7792(3) 0.7695(3) 0.7678(3)
H57 H 0.855690 0.737866 0.744516
C72 C 0.9565(3) 0.8773(3) 0.1833(3)
C73 C 0.6351(3) 0.8730(3) 0.8934(3)
H58 H 0.615347 0.911721 0.951368
C74 C 0.6612(3) 0.7148(3) 0.5525(3)
H59 H 0.631981 0.653290 0.536149
H60 H 0.592106 0.761459 0.578931
C75 C 0.7344(4) 0.4407(4) 0.8201(4)
H61 H 0.664999 0.420644 0.865449
C76 C 0.7401(3) 0.7574(3) 0.4563(3)
C77 C 0.8438(3) 0.8030(3) 0.4535(3)
H62 H 0.866991 0.808650 0.511468
C78 C 0.9128(3) 0.8403(3) 0.3647(3)
H63 H 0.983612 0.868964 0.363079
C79 C 0.8778(3) 0.8355(3) 0.2781(3)
C80 C 0.9460(4) 0.4245(4) 0.7496(4)
C81 C 0.8512(4) 0.3179(3) 0.8954(3)
C82 C 0.7728(3) 0.7925(4) 0.2815(3)
H65 H 0.747072 0.790616 0.224470
C83 C 0.7056(3) 0.7521(4) 0.3696(3)
H66 H 0.636590 0.721023 0.370549
C84 C 0.9365(4) 0.4964(4) 0.6821(3)
C85 C 0.8268(4) 0.5456(3) 0.6838(3)
C86 C 0.8443(4) 0.3949(3) 0.8197(3)
C87 C 0.7263(4) 0.5162(4) 0.7538(4)
H68 H 0.651664 0.547508 0.756616
C88 C 0.8236(4) 0.6247(3) 0.6070(3)
H69 H 0.828295 0.591733 0.544319
H70 H 0.894559 0.661618 0.596298
loop_
_geom_bond_atom_site_label_1
_geom_bond_atom_site_label_2
_geom_bond_site_symmetry_1
_geom_bond_site_symmetry_2
C1 O2 1_555 1_555
O4 C5 1_555 1_555
O5 C1 1_555 1_555
O6 C5 1_555 1_555
N2 C2 1_555 1_555
O8 C8 1_555 1_555
C2 C3 1_555 1_555
C3 H1 1_555 1_555
C4 C1 1_555 1_555
C5 C6 1_555 1_555
C6 C3 1_555 1_555
O9 C25 1_555 1_555
O10 C25 1_555 1_555
C7 C2 1_555 1_555
H2 C7 1_555 1_555
C8 C20 1_555 1_555
C9 C4 1_555 1_555
H3 C9 1_555 1_555
C10 N2 1_555 1_555
H4 C10 1_555 1_555
H5 C10 1_555 1_555
C11 H6 1_555 1_555
C12 C10 1_555 1_555
C15 C12 1_555 1_555
H9 C15 1_555 1_555
C16 H10 1_555 1_555
C17 C15 1_555 1_555
H11 C17 1_555 1_555
C20 C17 1_555 1_555
C25 C35 1_555 1_555
C27 C20 1_555 1_555
H15 C27 1_555 1_555
C31 C12 1_555 1_555
H19 C31 1_555 1_555
C32 C23 1_555 1_555
C33 C32 1_555 1_555
C35 C11 1_555 1_555
C40 C11 1_555 1_555
H26 C40 1_555 1_555
C41 N2 1_555 1_555
H27 C41 1_555 1_555
H28 C41 1_555 1_555
N4 C45 1_555 1_555
O12 C50 1_555 1_555
C45 H36 1_555 1_555
C46 N4 1_555 1_555
H37 C46 1_555 1_555
C48 C46 1_555 1_555
H39 C48 1_555 1_555
C49 C48 1_555 1_555
C50 C16 1_555 1_555
C52 C45 1_555 1_555
C53 O12 1_555 1_555
H41 C53 1_555 1_555
H42 C53 1_555 1_555
C54 C53 1_555 1_555
H43 C54 1_555 1_555
H44 C54 1_555 1_555
H45 C54 1_555 1_555
Co8 O9 1_555 1_555
Co12 N4 1_555 1_555
Co19_2 O8 1_555 1_555
Co19 O2 1_555 1_555
C4 C7 1_555 1_555
C6 C9 1_555 1_555
C23 C35 1_555 1_555
C27 C31 1_555 1_555
C33 C40 1_555 1_555
C33 C41 1_555 1_555
C49 C51 1_555 1_555
C49 C52 1_555 1_555
C50 C51 1_555 1_555
N1 Co8 1_555 1_555
O7 C21 1_555 1_555
C13 N1 1_555 1_555
H7 C13 1_555 1_555
C14 N1 1_555 1_555
H8 C14 1_555 1_555
C18 C14 1_555 1_555
H12 C18 1_555 1_555
C19 C18 1_555 1_555
C21 C22 1_555 1_555
C24 C13 1_555 1_555
C29 O7 1_555 1_555
H17 C29 1_555 1_555
H18 C29 1_555 1_555
C43 C29 1_555 1_555
H30 C43 1_555 1_555
H31 C43 1_555 1_555
H32 C43 1_555 1_555
C47 C21 1_555 1_555
H38 C47 1_555 1_555
O27 Co8 1_555 1_555
C19 C22 1_555 1_555
C19 C24 1_555 1_555
Co19_4 O1 1_555 1_555
O1 Co16 1_555 1_555
N3 Co2 1_555 1_555
O11 C36 1_555 1_555
C26 C28 1_555 1_555
C28 H16 1_555 1_555
C30 C26 1_555 1_555
C34 N3 1_555 1_555
H21 C34 1_555 1_555
C36 C30 1_555 1_555
C37 C30 1_555 1_555
H22 C37 1_555 1_555
C38 C26 1_555 1_555
H23 C38 1_555 1_555
C39 O11 1_555 1_555
H24 C39 1_555 1_555
H25 C39 1_555 1_555
C42 N3 1_555 1_555
H29 C42 1_555 1_555
C44 C39 1_555 1_555
H33 C44 1_555 1_555
H34 C44 1_555 1_555
H35 C44 1_555 1_555
N5 C58 1_555 1_555
O13 C59 1_555 1_555
C55 C56 1_555 1_555
C56 H46 1_555 1_555
C57 C55 1_555 1_555
C58 C56 1_555 1_555
H47 C58 1_555 1_555
C59 C37 1_555 1_555
C60 C36 1_555 1_555
H48 C60 1_555 1_555
C61 C55 1_555 1_555
H49 C61 1_555 1_555
C62 O13 1_555 1_555
H50 C62 1_555 1_555
H51 C62 1_555 1_555
C63 N5 1_555 1_555
H52 C63 1_555 1_555
C64 C62 1_555 1_555
H53 C64 1_555 1_555
H54 C64 1_555 1_555
H55 C64 1_555 1_555
Co16 N5 1_555 1_555
Co12 O3 1_555 1_555
O24 Co2 1_555 1_555
Co19_5 O24 1_555 1_555
C28 C34 1_555 1_555
C38 C42 1_555 1_555
C57 C59 1_555 1_555
C57 C60 1_555 1_555
C61 C63 1_555 1_555
O31 Co19_7 1_555 1_555
O25 Co19_8 1_555 1_555
O33 Co12 1_555 1_555
C65 O25 1_555 1_555
O29 C69 1_555 1_555
O19 C69 1_555 1_555
N6 C66 1_555 1_555
O31 C72 1_555 1_555
C66 C67 1_555 1_555
C67 H56 1_555 1_555
C68 C65 1_555 1_555
C69 C70 1_555 1_555
C70 C67 1_555 1_555
O33 C81 1_555 1_555
O35 C81 1_555 1_555
C71 C66 1_555 1_555
H57 C71 1_555 1_555
C72 C79 1_555 1_555
C73 C68 1_555 1_555
H58 C73 1_555 1_555
C74 N6 1_555 1_555
H59 C74 1_555 1_555
H60 C74 1_555 1_555
C75 H61 1_555 1_555
C76 C74 1_555 1_555
C77 C76 1_555 1_555
H62 C77 1_555 1_555
C78 C77 1_555 1_555
H63 C78 1_555 1_555
C79 C78 1_555 1_555
C81 C86 1_555 1_555
C82 C79 1_555 1_555
H65 C82 1_555 1_555
C83 C76 1_555 1_555
H66 C83 1_555 1_555
C84 C80 1_555 1_555
C85 C84 1_555 1_555
C86 C75 1_555 1_555
C87 C75 1_555 1_555
H68 C87 1_555 1_555
C88 N6 1_555 1_555
H69 C88 1_555 1_555
H70 C88 1_555 1_555
C65 O18 1_555 1_555
C68 C71 1_555 1_555
C70 C73 1_555 1_555
C80 C86 1_555 1_555
C82 C83 1_555 1_555
C85 C87 1_555 1_555
C85 C88 1_555 1_555

#END
