
###############################################################################
#
# This file contains modified crystal structure data generated from the
# MOF subset of the Cambridge Structural Database (CSD) v543 
# hosted by the Cambridge Crystallographic Data Centre (CCDC).
#
# This work is licensed under the Creative Commons
# Attribution-NonCommercial-ShareAlike 4.0 International License.
# To view a copy of this license, visit
# http://creativecommons.org/licenses/by-nc-sa/4.0/
# or send a letter to
# Creative Commons, PO Box 1866, Mountain View, CA 94042, USA.
#
# CIF created using the CSD Python API on 29 September 2022
# The structure has been converted into the P1 space group
# The structure has a 3D framework
# The original CSD entry LAQZOV is in the monoclinic crystal system
# The framework has been calculated to contain at least 10.0% void space
# The void calculation uses a probe of radius 1.32A, grid spacing 0.4
#
###############################################################################

data_LAQZOV
_chemical_formula_moiety         '(C88 H72 Ce8 N8 O72)n'
_symmetry_cell_setting           triclinic
_symmetry_space_group_name_H-M   'P 1'
_symmetry_Int_Tables_number      1
_space_group_name_Hall           'P 1'
loop_
_symmetry_equiv_pos_site_id
_symmetry_equiv_pos_as_xyz
1 x,y,z
_cell_length_a                   25.5147(15)
_cell_length_b                   13.4137(8)
_cell_length_c                   14.6329(9)
_cell_angle_alpha                90
_cell_angle_beta                 101.9661(9)
_cell_angle_gamma                90
_cell_volume                     4899.24
loop_
_atom_site_label
_atom_site_type_symbol
_atom_site_fract_x
_atom_site_fract_y
_atom_site_fract_z
Ce1 Ce 0.32595(2) 0.30895(3) 0.54866(3)
O1 O 0.2238(3) 0.3468(5) 0.4479(5)
O2 O 0.2891(3) 0.4507(5) 0.4429(5)
O3 O 0.2628(3) 0.6444(6) 0.1451(5)
O4 O 0.1871(3) 0.7293(5) 0.1056(5)
O5 O 0.4099(5) 0.3447(9) 0.4767(8)
O6 O 0.4117(5) 0.2008(10) 0.5395(9)
O7 O 0.4718(5) 0.2335(13) 0.4638(11)
O8 O 0.3720(3) 0.4558(6) 0.6250(6)
H1 H 0.4004 0.4649 0.6059
H2 H 0.3521 0.5060 0.6124
O9 O 0.3670(4) 0.2562(7) 0.7097(6)
H3 H 0.3967 0.2291 0.7100
H4 H 0.3714 0.3056 0.7456
N1 N 0.4314(5) 0.2594(14) 0.4941(10)
C1 C 0.2420(4) 0.4256(7) 0.4179(6)
C2 C 0.2044(4) 0.4866(7) 0.3477(6)
C3 C 0.2263(4) 0.5483(7) 0.2881(7)
H5 H 0.2632 0.5532 0.2950
C4 C 0.1927(4) 0.6026(7) 0.2183(7)
C5 C 0.1376(4) 0.5967(7) 0.2107(7)
H6 H 0.1154 0.6341 0.1650
C6 C 0.1148(4) 0.5373(7) 0.2687(7)
C7 C 0.1495(3) 0.4825(7) 0.3398(7)
H7 H 0.1351 0.4437 0.3812
C8 C 0.2157(4) 0.6635(7) 0.1515(7)
C9 C 0.0559(4) 0.5344(7) 0.2606(7)
C10 C 0.0330(4) 0.5323(8) 0.3371(7)
H8 H 0.0546 0.5308 0.3967
C22 C 0.0224(4) 0.5325(10) 0.1739(8)
H14 H 0.0373 0.5313 0.1211
Ce6 Ce 0.32595(2) 0.69105(3) 0.04866(3)
Ce7 Ce 0.17405(2) 0.19105(3) 0.45134(3)
O19 O 0.2762(3) 0.1532(5) 0.5521(5)
O22 O 0.2628(3) 0.3556(6) 0.6451(5)
O24 O 0.3129(3) 0.2293(5) 0.3944(5)
Ce4 Ce 0.17405(2) 0.80895(3) 0.95134(3)
C11 C 0.9776(4) 0.5325(10) 0.3261(8)
H9 H 0.9627 0.5313 0.3789
O10 O 0.7762(3) 0.3468(5) 0.0521(5)
O11 O 0.7109(3) 0.4507(5) 0.0571(5)
O12 O 0.7372(3) 0.6444(6) 0.3549(5)
O13 O 0.8129(3) 0.7293(5) 0.3944(5)
C12 C 0.7580(4) 0.4256(7) 0.0821(6)
C13 C 0.7956(4) 0.4866(7) 0.1523(6)
C14 C 0.7737(4) 0.5483(7) 0.2119(7)
H10 H 0.7368 0.5532 0.2050
C15 C 0.8073(4) 0.6026(7) 0.2817(7)
C16 C 0.8624(4) 0.5967(7) 0.2893(7)
H11 H 0.8846 0.6341 0.3350
C17 C 0.8852(4) 0.5373(7) 0.2313(7)
C18 C 0.8505(3) 0.4825(7) 0.1602(7)
H12 H 0.8649 0.4437 0.1188
C19 C 0.7843(4) 0.6635(7) 0.3485(7)
C20 C 0.9441(4) 0.5344(7) 0.2394(7)
C21 C 0.9670(4) 0.5323(8) 0.1629(7)
H13 H 0.9454 0.5308 0.1033
O14 O 0.5901(5) 0.3447(9) 0.0233(8)
O16 O 0.5282(5) 0.2335(13) 0.0362(11)
N2 N 0.5686(5) 0.2594(14) 0.0059(10)
Ce3 Ce 0.82595(2) 0.80895(3) 0.54866(3)
Ce5 Ce 0.67405(2) 0.69105(3) 0.45134(3)
Ce8 Ce 0.82595(2) 0.19105(3) 0.04866(3)
O23 O 0.6871(3) 0.2293(5) 0.1056(5)
Ce2 Ce 0.67405(2) 0.30895(3) 0.95134(3)
O15 O 0.5883(5) 0.2008(10) 0.9605(9)
O17 O 0.6280(3) 0.4558(6) 0.8750(6)
H15 H 0.5996 0.4649 0.8941
H16 H 0.6479 0.5060 0.8876
O18 O 0.6330(4) 0.2562(7) 0.7903(6)
H17 H 0.6033 0.2291 0.7900
H18 H 0.6286 0.3056 0.7544
O20 O 0.7238(3) 0.1532(5) 0.9479(5)
O21 O 0.7372(3) 0.3556(6) 0.8549(5)
O3_2 O 0.7628(3) 0.1444(6) 0.1451(5)
H2_2 H 0.8521 0.0060 0.6124
C3_2 C 0.7263(4) 0.0483(7) 0.2881(7)
H5_2 H 0.7632 0.0532 0.2950
C4_2 C 0.6927(4) 0.1026(7) 0.2183(7)
C5_2 C 0.6376(4) 0.0967(7) 0.2107(7)
H6_2 H 0.6154 0.1341 0.1650
C6_2 C 0.6148(4) 0.0373(7) 0.2687(7)
C8_2 C 0.7157(4) 0.1635(7) 0.1515(7)
C9_2 C 0.5559(4) 0.0344(7) 0.2606(7)
C10_2 C 0.5330(4) 0.0323(8) 0.3371(7)
H8_2 H 0.5546 0.0308 0.3967
C11_2 C 0.4776(4) 0.0325(10) 0.3261(8)
H9_2 H 0.4627 0.0313 0.3789
O12_2 O 0.2372(3) 0.1444(6) 0.3549(5)
C14_2 C 0.2737(4) 0.0483(7) 0.2119(7)
H10_2 H 0.2368 0.0532 0.2050
C15_2 C 0.3073(4) 0.1026(7) 0.2817(7)
C16_2 C 0.3624(4) 0.0967(7) 0.2893(7)
H11_2 H 0.3846 0.1341 0.3350
C17_2 C 0.3852(4) 0.0373(7) 0.2313(7)
C19_2 C 0.2843(4) 0.1635(7) 0.3485(7)
C20_2 C 0.4441(4) 0.0344(7) 0.2394(7)
C21_2 C 0.4670(4) 0.0323(8) 0.1629(7)
H13_2 H 0.4454 0.0308 0.1033
C22_2 C 0.5224(4) 0.0325(10) 0.1739(8)
H14_2 H 0.5373 0.0313 0.1211
H16_2 H 0.1479 0.0060 0.8876
O1_2 O 0.7238(3) 0.8468(5) 0.4479(5)
O2_2 O 0.7891(3) 0.9507(5) 0.4429(5)
O5_2 O 0.9099(5) 0.8447(9) 0.4767(8)
O6_2 O 0.9117(5) 0.7008(10) 0.5395(9)
O7_2 O 0.9718(5) 0.7335(13) 0.4638(11)
O8_2 O 0.8720(3) 0.9558(6) 0.6250(6)
H1_2 H 0.9004 0.9649 0.6059
O9_2 O 0.8670(4) 0.7562(7) 0.7097(6)
H3_2 H 0.8967 0.7291 0.7100
H4_2 H 0.8714 0.8056 0.7456
N1_2 N 0.9314(5) 0.7594(14) 0.4941(10)
C1_2 C 0.7420(4) 0.9256(7) 0.4179(6)
C2_2 C 0.7044(4) 0.9866(7) 0.3477(6)
C7_2 C 0.6495(3) 0.9825(7) 0.3398(7)
H7_2 H 0.6351 0.9437 0.3812
O10_2 O 0.2762(3) 0.8468(5) 0.0521(5)
O11_2 O 0.2109(3) 0.9507(5) 0.0571(5)
C12_2 C 0.2580(4) 0.9256(7) 0.0821(6)
C13_2 C 0.2956(4) 0.9866(7) 0.1523(6)
C18_2 C 0.3505(3) 0.9825(7) 0.1602(7)
H12_2 H 0.3649 0.9437 0.1188
O14_2 O 0.0901(5) 0.8447(9) 0.0233(8)
O16_2 O 0.0282(5) 0.7335(13) 0.0362(11)
N2_2 N 0.0686(5) 0.7594(14) 0.0059(10)
O19_2 O 0.7762(3) 0.6532(5) 0.5521(5)
O22_2 O 0.7628(3) 0.8556(6) 0.6451(5)
O15_2 O 0.0883(5) 0.7008(10) 0.9605(9)
O17_2 O 0.1280(3) 0.9558(6) 0.8750(6)
H15_2 H 0.0996 0.9649 0.8941
O18_2 O 0.1330(4) 0.7562(7) 0.7903(6)
H17_2 H 0.1033 0.7291 0.7900
H18_2 H 0.1286 0.8056 0.7544
O20_2 O 0.2238(3) 0.6532(5) 0.9479(5)
O21_2 O 0.2372(3) 0.8556(6) 0.8549(5)
O15_3 O 0.4117(5) 0.7992(10) 0.0395(9)
O17_3 O 0.3720(3) 0.5442(6) 0.1250(6)
H15_3 H 0.4004 0.5351 0.1059
H16_3 H 0.3521 0.4940 0.1124
O18_3 O 0.3670(4) 0.7438(7) 0.2097(6)
H17_3 H 0.3967 0.7709 0.2100
H18_3 H 0.3714 0.6944 0.2456
C11_3 C 0.0224(4) 0.4675(10) 0.6739(8)
H9_3 H 0.0373 0.4687 0.6211
O11_3 O 0.2891(3) 0.5493(5) 0.9429(5)
O13_2 O 0.1871(3) 0.2707(5) 0.6056(5)
C12_3 C 0.2420(4) 0.5744(7) 0.9179(6)
C13_3 C 0.2044(4) 0.5134(7) 0.8477(6)
C14_3 C 0.2263(4) 0.4517(7) 0.7881(7)
H10_3 H 0.2632 0.4468 0.7950
C15_3 C 0.1927(4) 0.3974(7) 0.7183(7)
C16_3 C 0.1376(4) 0.4033(7) 0.7107(7)
H11_3 H 0.1154 0.3659 0.6650
C17_3 C 0.1148(4) 0.4627(7) 0.7687(7)
C18_3 C 0.1495(3) 0.5175(7) 0.8398(7)
H12_3 H 0.1351 0.5563 0.8812
C19_3 C 0.2157(4) 0.3365(7) 0.6515(7)
C20_3 C 0.0559(4) 0.4656(7) 0.7606(7)
C21_3 C 0.0330(4) 0.4677(8) 0.8371(7)
H13_3 H 0.0546 0.4692 0.8967
O14_3 O 0.4099(5) 0.6553(9) 0.9767(8)
O16_3 O 0.4718(5) 0.7665(13) 0.9638(11)
N2_3 N 0.4314(5) 0.7406(14) 0.9941(10)
O23_2 O 0.3129(3) 0.7707(5) 0.8944(5)
O2_3 O 0.7109(3) 0.5493(5) 0.5571(5)
O4_2 O 0.8129(3) 0.2707(5) 0.8944(5)
O5_3 O 0.5901(5) 0.6553(9) 0.5233(8)
O6_3 O 0.5883(5) 0.7992(10) 0.4605(9)
O7_3 O 0.5282(5) 0.7665(13) 0.5362(11)
O8_3 O 0.6280(3) 0.5442(6) 0.3750(6)
H1_3 H 0.5996 0.5351 0.3941
H2_3 H 0.6479 0.4940 0.3876
O9_3 O 0.6330(4) 0.7438(7) 0.2903(6)
H3_3 H 0.6033 0.7709 0.2900
H4_3 H 0.6286 0.6944 0.2544
N1_3 N 0.5686(5) 0.7406(14) 0.5059(10)
C1_3 C 0.7580(4) 0.5744(7) 0.5821(6)
C2_3 C 0.7956(4) 0.5134(7) 0.6523(6)
C3_3 C 0.7737(4) 0.4517(7) 0.7119(7)
H5_3 H 0.7368 0.4468 0.7050
C4_3 C 0.8073(4) 0.3974(7) 0.7817(7)
C5_3 C 0.8624(4) 0.4033(7) 0.7893(7)
H6_3 H 0.8846 0.3659 0.8350
C6_3 C 0.8852(4) 0.4627(7) 0.7313(7)
C7_3 C 0.8505(3) 0.5175(7) 0.6602(7)
H7_3 H 0.8649 0.5563 0.6188
C8_3 C 0.7843(4) 0.3365(7) 0.8485(7)
C9_3 C 0.9441(4) 0.4656(7) 0.7394(7)
C10_3 C 0.9670(4) 0.4677(8) 0.6629(7)
H8_3 H 0.9454 0.4692 0.6033
C22_3 C 0.9776(4) 0.4675(10) 0.8261(8)
H14_3 H 0.9627 0.4687 0.8789
O24_2 O 0.6871(3) 0.7707(5) 0.6056(5)
O15_4 O 0.9117(5) 0.2992(10) 0.0395(9)
O17_4 O 0.8720(3) 0.0442(6) 0.1250(6)
H15_4 H 0.9004 0.0351 0.1059
O18_4 O 0.8670(4) 0.2438(7) 0.2097(6)
H17_4 H 0.8967 0.2709 0.2100
H18_4 H 0.8714 0.1944 0.2456
O2_4 O 0.2109(3) 0.0493(5) 0.5571(5)
O5_4 O 0.0901(5) 0.1553(9) 0.5233(8)
O6_4 O 0.0883(5) 0.2992(10) 0.4605(9)
O7_4 O 0.0282(5) 0.2665(13) 0.5362(11)
O8_4 O 0.1280(3) 0.0442(6) 0.3750(6)
H1_4 H 0.0996 0.0351 0.3941
O9_4 O 0.1330(4) 0.2438(7) 0.2903(6)
H3_4 H 0.1033 0.2709 0.2900
H4_4 H 0.1286 0.1944 0.2544
N1_4 N 0.0686(5) 0.2406(14) 0.5059(10)
C1_4 C 0.2580(4) 0.0744(7) 0.5821(6)
C2_4 C 0.2956(4) 0.0134(7) 0.6523(6)
C7_4 C 0.3505(3) 0.0175(7) 0.6602(7)
H7_4 H 0.3649 0.0563 0.6188
O11_4 O 0.7891(3) 0.0493(5) 0.9429(5)
C12_4 C 0.7420(4) 0.0744(7) 0.9179(6)
C13_4 C 0.7044(4) 0.0134(7) 0.8477(6)
C18_4 C 0.6495(3) 0.0175(7) 0.8398(7)
H12_4 H 0.6351 0.0563 0.8812
O14_4 O 0.9099(5) 0.1553(9) 0.9767(8)
O16_4 O 0.9718(5) 0.2665(13) 0.9638(11)
N2_4 N 0.9314(5) 0.2406(14) 0.9941(10)
H16_4 H 0.8521 0.9940 0.1124
H2_4 H 0.1479 0.9940 0.3876
C3_4 C 0.2737(4) 0.9517(7) 0.7119(7)
H5_4 H 0.2368 0.9468 0.7050
C4_4 C 0.3073(4) 0.8974(7) 0.7817(7)
C5_4 C 0.3624(4) 0.9033(7) 0.7893(7)
H6_4 H 0.3846 0.8659 0.8350
C6_4 C 0.3852(4) 0.9627(7) 0.7313(7)
C8_4 C 0.2843(4) 0.8365(7) 0.8485(7)
C9_4 C 0.4441(4) 0.9656(7) 0.7394(7)
C10_4 C 0.4670(4) 0.9677(8) 0.6629(7)
H8_4 H 0.4454 0.9692 0.6033
C11_4 C 0.5224(4) 0.9675(10) 0.6739(8)
H9_4 H 0.5373 0.9687 0.6211
C14_4 C 0.7263(4) 0.9517(7) 0.7881(7)
H10_4 H 0.7632 0.9468 0.7950
C15_4 C 0.6927(4) 0.8974(7) 0.7183(7)
C16_4 C 0.6376(4) 0.9033(7) 0.7107(7)
H11_4 H 0.6154 0.8659 0.6650
C17_4 C 0.6148(4) 0.9627(7) 0.7687(7)
C19_4 C 0.7157(4) 0.8365(7) 0.6515(7)
C20_4 C 0.5559(4) 0.9656(7) 0.7606(7)
C21_4 C 0.5330(4) 0.9677(8) 0.8371(7)
H13_4 H 0.5546 0.9692 0.8967
C22_4 C 0.4776(4) 0.9675(10) 0.8261(8)
H14_4 H 0.4627 0.9687 0.8789
loop_
_geom_bond_atom_site_label_1
_geom_bond_atom_site_label_2
_geom_bond_site_symmetry_1
_geom_bond_site_symmetry_2
Ce1 O1 1_555 1_555
O1 C1 1_555 1_555
O2 Ce1 1_555 1_555
O3 C8 1_555 1_555
O4 C8 1_555 1_555
O5 Ce1 1_555 1_555
O6 Ce1 1_555 1_555
O7 N1 1_555 1_555
O8 Ce1 1_555 1_555
H1 O8 1_555 1_555
H2 O8 1_555 1_555
O9 Ce1 1_555 1_555
H3 O9 1_555 1_555
H4 O9 1_555 1_555
N1 O5 1_555 1_555
C1 O2 1_555 1_555
C2 C1 1_555 1_555
C3 C2 1_555 1_555
H5 C3 1_555 1_555
C4 C3 1_555 1_555
C5 C4 1_555 1_555
H6 C5 1_555 1_555
C6 C5 1_555 1_555
C7 C2 1_555 1_555
H7 C7 1_555 1_555
C8 C4 1_555 1_555
C9 C6 1_555 1_555
C10 C9 1_555 1_555
H8 C10 1_555 1_555
C22 C9 1_555 1_555
H14 C22 1_555 1_555
Ce6 O3 1_555 1_555
Ce7 O1 1_555 1_555
O19 Ce1 1_555 1_555
O22 Ce1 1_555 1_555
O24 Ce1 1_555 1_555
O6 N1 1_555 1_555
C6 C7 1_555 1_555
Ce7 O19 1_555 1_555
H9 C11 1_555 1_555
O10 C12 1_555 1_555
O11 C12 1_555 1_555
O12 C19 1_555 1_555
O13 C19 1_555 1_555
C12 C13 1_555 1_555
C13 C14 1_555 1_555
C14 H10 1_555 1_555
C15 C14 1_555 1_555
C16 C15 1_555 1_555
H11 C16 1_555 1_555
C17 C16 1_555 1_555
C18 C13 1_555 1_555
H12 C18 1_555 1_555
C19 C15 1_555 1_555
C20 C11 1_555 1_555
C21 C20 1_555 1_555
H13 C21 1_555 1_555
O16 N2 1_555 1_555
N2 O14 1_555 1_555
Ce3 O13 1_555 1_555
Ce5 O12 1_555 1_555
Ce8 O10 1_555 1_555
C17 C18 1_555 1_555
C17 C20 1_555 1_555
O15 Ce2 1_555 1_555
O17 Ce2 1_555 1_555
H15 O17 1_555 1_555
H16 O17 1_555 1_555
O18 Ce2 1_555 1_555
H17 O18 1_555 1_555
H18 O18 1_555 1_555
O20 Ce2 1_555 1_555
O21 Ce2 1_555 1_555
O3_2 C8_2 1_555 1_555
O23 C8_2 1_555 1_555
H5_2 C3_2 1_555 1_555
C4_2 C3_2 1_555 1_555
C5_2 C4_2 1_555 1_555
H6_2 C5_2 1_555 1_555
C6_2 C5_2 1_555 1_555
C8_2 C4_2 1_555 1_555
C9_2 C6_2 1_555 1_555
C10_2 C9_2 1_555 1_555
H8_2 C10_2 1_555 1_555
C11_2 C10_2 1_555 1_555
H9_2 C11_2 1_555 1_555
O12_2 C19_2 1_555 1_555
O24 C19_2 1_555 1_555
C14_2 H10_2 1_555 1_555
C15_2 C14_2 1_555 1_555
C16_2 C15_2 1_555 1_555
H11_2 C16_2 1_555 1_555
C17_2 C16_2 1_555 1_555
C19_2 C15_2 1_555 1_555
C20_2 C11_2 1_555 1_555
C21_2 C20_2 1_555 1_555
H13_2 C21_2 1_555 1_555
C22_2 C9_2 1_555 1_555
H14_2 C22_2 1_555 1_555
Ce7 O12_2 1_555 1_555
Ce8 O3_2 1_555 1_555
C17_2 C20_2 1_555 1_555
C21_2 C22_2 1_555 1_555
Ce3 O1_2 1_555 1_555
O1_2 C1_2 1_555 1_555
O2_2 Ce3 1_555 1_555
O5_2 Ce3 1_555 1_555
O6_2 Ce3 1_555 1_555
O7_2 N1_2 1_555 1_555
O8_2 Ce3 1_555 1_555
H1_2 O8_2 1_555 1_555
O9_2 Ce3 1_555 1_555
H3_2 O9_2 1_555 1_555
H4_2 O9_2 1_555 1_555
N1_2 O5_2 1_555 1_555
C1_2 O2_2 1_555 1_555
C2_2 C1_2 1_555 1_555
C7_2 C2_2 1_555 1_555
H7_2 C7_2 1_555 1_555
O10_2 C12_2 1_555 1_555
O11_2 C12_2 1_555 1_555
C12_2 C13_2 1_555 1_555
C18_2 C13_2 1_555 1_555
H12_2 C18_2 1_555 1_555
O16_2 N2_2 1_555 1_555
N2_2 O14_2 1_555 1_555
Ce5 O1_2 1_555 1_555
Ce6 O10_2 1_555 1_555
O19_2 Ce3 1_555 1_555
O22_2 Ce3 1_555 1_555
O6_2 N1_2 1_555 1_555
Ce5 O19_2 1_555 1_555
O15_2 Ce4 1_555 1_555
O17_2 Ce4 1_555 1_555
H15_2 O17_2 1_555 1_555
O18_2 Ce4 1_555 1_555
H17_2 O18_2 1_555 1_555
H18_2 O18_2 1_555 1_555
O20_2 Ce4 1_555 1_555
O21_2 Ce4 1_555 1_555
O15_3 Ce6 1_555 1_555
O17_3 Ce6 1_555 1_555
H15_3 O17_3 1_555 1_555
H16_3 O17_3 1_555 1_555
O18_3 Ce6 1_555 1_555
H17_3 O18_3 1_555 1_555
H18_3 O18_3 1_555 1_555
H9_3 C11_3 1_555 1_555
O20_2 C12_3 1_555 1_555
O11_3 C12_3 1_555 1_555
O22 C19_3 1_555 1_555
O13_2 C19_3 1_555 1_555
C12_3 C13_3 1_555 1_555
C13_3 C14_3 1_555 1_555
C14_3 H10_3 1_555 1_555
C15_3 C14_3 1_555 1_555
C16_3 C15_3 1_555 1_555
H11_3 C16_3 1_555 1_555
C17_3 C16_3 1_555 1_555
C18_3 C13_3 1_555 1_555
H12_3 C18_3 1_555 1_555
C19_3 C15_3 1_555 1_555
C20_3 C11_3 1_555 1_555
C21_3 C20_3 1_555 1_555
H13_3 C21_3 1_555 1_555
O16_3 N2_3 1_555 1_555
N2_3 O14_3 1_555 1_555
Ce7 O13_2 1_555 1_555
C17_3 C18_3 1_555 1_555
C17_3 C20_3 1_555 1_555
O19_2 C1_3 1_555 1_555
O2_3 Ce5 1_555 1_555
O21 C8_3 1_555 1_555
O4_2 C8_3 1_555 1_555
O5_3 Ce5 1_555 1_555
O6_3 Ce5 1_555 1_555
O7_3 N1_3 1_555 1_555
O8_3 Ce5 1_555 1_555
H1_3 O8_3 1_555 1_555
H2_3 O8_3 1_555 1_555
O9_3 Ce5 1_555 1_555
H3_3 O9_3 1_555 1_555
H4_3 O9_3 1_555 1_555
N1_3 O5_3 1_555 1_555
C1_3 O2_3 1_555 1_555
C2_3 C1_3 1_555 1_555
C3_3 C2_3 1_555 1_555
H5_3 C3_3 1_555 1_555
C4_3 C3_3 1_555 1_555
C5_3 C4_3 1_555 1_555
H6_3 C5_3 1_555 1_555
C6_3 C5_3 1_555 1_555
C7_3 C2_3 1_555 1_555
H7_3 C7_3 1_555 1_555
C8_3 C4_3 1_555 1_555
C9_3 C6_3 1_555 1_555
C10_3 C9_3 1_555 1_555
H8_3 C10_3 1_555 1_555
C22_3 C9_3 1_555 1_555
H14_3 C22_3 1_555 1_555
O24_2 Ce5 1_555 1_555
O6_3 N1_3 1_555 1_555
C6_3 C7_3 1_555 1_555
O15_4 Ce8 1_555 1_555
O17_4 Ce8 1_555 1_555
H15_4 O17_4 1_555 1_555
O18_4 Ce8 1_555 1_555
H17_4 O18_4 1_555 1_555
H18_4 O18_4 1_555 1_555
O19 C1_4 1_555 1_555
O2_4 Ce7 1_555 1_555
O5_4 Ce7 1_555 1_555
O6_4 Ce7 1_555 1_555
O7_4 N1_4 1_555 1_555
O8_4 Ce7 1_555 1_555
H1_4 O8_4 1_555 1_555
O9_4 Ce7 1_555 1_555
H3_4 O9_4 1_555 1_555
H4_4 O9_4 1_555 1_555
N1_4 O5_4 1_555 1_555
C1_4 O2_4 1_555 1_555
C2_4 C1_4 1_555 1_555
C7_4 C2_4 1_555 1_555
H7_4 C7_4 1_555 1_555
O20 C12_4 1_555 1_555
O11_4 C12_4 1_555 1_555
C12_4 C13_4 1_555 1_555
C18_4 C13_4 1_555 1_555
H12_4 C18_4 1_555 1_555
O16_4 N2_4 1_555 1_555
N2_4 O14_4 1_555 1_555
O6_4 N1_4 1_555 1_555
O21_2 C8_4 1_555 1_555
O23_2 C8_4 1_555 1_555
H5_4 C3_4 1_555 1_555
C4_4 C3_4 1_555 1_555
C5_4 C4_4 1_555 1_555
H6_4 C5_4 1_555 1_555
C6_4 C5_4 1_555 1_555
C8_4 C4_4 1_555 1_555
C9_4 C6_4 1_555 1_555
C10_4 C9_4 1_555 1_555
H8_4 C10_4 1_555 1_555
C11_4 C10_4 1_555 1_555
H9_4 C11_4 1_555 1_555
O22_2 C19_4 1_555 1_555
O24_2 C19_4 1_555 1_555
C14_4 H10_4 1_555 1_555
C15_4 C14_4 1_555 1_555
C16_4 C15_4 1_555 1_555
H11_4 C16_4 1_555 1_555
C17_4 C16_4 1_555 1_555
C19_4 C15_4 1_555 1_555
C20_4 C11_4 1_555 1_555
C21_4 C20_4 1_555 1_555
H13_4 C21_4 1_555 1_555
C22_4 C9_4 1_555 1_555
H14_4 C22_4 1_555 1_555
C17_4 C20_4 1_555 1_555
C21_4 C22_4 1_555 1_555

#END
