
###############################################################################
#
# This file contains modified crystal structure data generated from the
# MOF subset of the Cambridge Structural Database (CSD) v543 
# hosted by the Cambridge Crystallographic Data Centre (CCDC).
#
# This work is licensed under the Creative Commons
# Attribution-NonCommercial-ShareAlike 4.0 International License.
# To view a copy of this license, visit
# http://creativecommons.org/licenses/by-nc-sa/4.0/
# or send a letter to
# Creative Commons, PO Box 1866, Mountain View, CA 94042, USA.
#
# CIF created using the CSD Python API on 29 September 2022
# The structure has been converted into the P1 space group
# The structure has a 3D framework
# The original CSD entry LARQEE is in the triclinic crystal system
# The framework has been calculated to contain at least 10.0% void space
# The void calculation uses a probe of radius 1.32A, grid spacing 0.4
#
###############################################################################

data_LARQEE
_chemical_formula_moiety         '(C106 H72 Cd6 N12 O26)n'
_symmetry_cell_setting           triclinic
_symmetry_space_group_name_H-M   'P 1'
_symmetry_Int_Tables_number      1
_space_group_name_Hall           'P 1'
loop_
_symmetry_equiv_pos_site_id
_symmetry_equiv_pos_as_xyz
1 x,y,z
_cell_length_a                   14.7456(3)
_cell_length_b                   14.8727(3)
_cell_length_c                   19.8711(5)
_cell_angle_alpha                95.8630(10)
_cell_angle_beta                 103.1660(10)
_cell_angle_gamma                112.2630(10)
_cell_volume                     3840.17
loop_
_atom_site_label
_atom_site_type_symbol
_atom_site_fract_x
_atom_site_fract_y
_atom_site_fract_z
O8 O 0.3935(3) 0.7684(3) 0.5697(2)
O9 O 0.4420(3) 0.6672(3) 0.6263(2)
C16 C 0.0659(4) 0.5354(3) 0.6068(2)
C20 C 0.2660(4) 0.6362(4) 0.5975(3)
C24 C 0.1424(4) 0.5035(4) 0.6330(3)
H8 H 0.1269(4) 0.4471(4) 0.6541(3)
C30 C 0.1882(4) 0.6643(4) 0.5677(3)
H13 H 0.2032(4) 0.7188(4) 0.5446(3)
C31 C 0.3722(4) 0.6933(4) 0.5965(3)
C38 C 0.2404(4) 0.5536(4) 0.6282(3)
H20 H 0.2915(4) 0.5310(4) 0.6464(3)
C39 C 0.0900(4) 0.6146(4) 0.5711(3)
H21 H 0.0379(4) 0.6339(4) 0.5492(3)
H25 H 0.0412(4) 0.6724(4) 0.6969(3)
Cd9 Cd 0.56651(3) 0.79181(3) 0.594887(19)
O10 O 0.0788(3) 0.1323(3) 0.8524(2)
C15 C 0.0301(4) 0.0424(4) 0.8473(2)
C42 C 0.1852(4) 0.0121(4) 0.8431(3)
H23 H 0.2197(4) 0.0803(4) 0.8425(3)
O16 O 0.8342(3) 0.1280(2) 0.77024(18)
O18 O 0.9376(3) 0.0065(3) 0.84777(18)
O19 O 0.8317(3) 0.0489(2) 0.66957(19)
Cd1 Cd 0.79895(2) 0.95302(2) 0.752552(18)
O1 O 0.6116(2) 0.8987(2) 0.70427(17)
O4 O 0.6846(3) 0.8901(3) 0.8120(2)
O6 O 0.8278(3) 0.8353(3) 0.7004(2)
O7 O 0.0574(3) 0.3267(2) 0.8461(2)
O11 O 0.6789(3) 0.7259(3) 0.6263(2)
N1 N 0.9681(3) 0.4945(3) 0.6166(2)
N2 N 0.2382(3) 0.7895(3) 0.8437(2)
O13 O 0.2502(3) 0.4964(3) 0.2363(2)
C1 C 0.8439(3) 0.1278(3) 0.7080(3)
C2 C 0.6058(3) 0.8819(3) 0.7641(3)
N4 N 0.2896(4) 0.3692(4) 0.1962(2)
C3 C 0.8685(3) 0.2216(3) 0.6809(2)
C4 C 0.1863(3) 0.8496(3) 0.8421(2)
C5 C 0.3285(3) 0.8141(3) 0.8220(3)
C6 C 0.0839(4) 0.8140(3) 0.8418(3)
H1 H 0.0471(4) 0.7452(3) 0.8395(3)
C7 C 0.0353(4) 0.8760(3) 0.8449(3)
N5 N 0.5180(4) 0.7003(4) 0.4809(3)
C8 C 0.9317(4) 0.4016(3) 0.6369(2)
C9 C 0.7723(4) 0.7548(3) 0.6580(3)
C10 C 0.8219(3) 0.6848(3) 0.6451(2)
N6 N 0.3981(4) 0.4853(4) 0.2950(3)
C11 C 0.9181(3) 0.5594(3) 0.6258(3)
C12 C 0.5084(3) 0.8567(3) 0.7840(2)
C13 C 0.8895(4) 0.3917(4) 0.6930(3)
H3 H 0.8822(4) 0.4464(4) 0.7164(3)
C14 C 0.0935(4) 0.4973(4) 0.8708(3)
C17 C 0.9067(4) 0.2303(3) 0.6239(2)
H4 H 0.9113(4) 0.1747(3) 0.5992(2)
C18 C 0.0835(4) 0.9751(3) 0.8445(3)
C19 C 0.0693(4) 0.3054(4) 0.0425(3)
H5 H 0.0159(4) 0.3260(4) 0.0263(3)
C21 C 0.1931(3) 0.6903(3) 0.8553(3)
O14 O 0.6497(5) 0.9305(4) 0.5605(3)
C22 C 0.8583(4) 0.3024(3) 0.7146(3)
H6 H 0.8295(4) 0.2960(3) 0.7530(3)
C23 C 0.1377(4) 0.5161(4) 0.8163(3)
H7 H 0.1346(4) 0.4624(4) 0.7842(3)
C25 C 0.1453(4) 0.2033(4) 0.0245(3)
C26 C 0.1024(4) 0.5758(3) 0.9193(3)
H10 H 0.0728(4) 0.5634(3) 0.9570(3)
C27 C 0.1357(4) 0.3528(4) 0.1089(3)
H11 H 0.1278(4) 0.4035(4) 0.1370(3)
C28 C 0.0372(4) 0.3921(4) 0.8759(3)
C29 C 0.4259(4) 0.8650(4) 0.7404(3)
H12 H 0.4306(4) 0.8859(4) 0.6972(3)
C32 C 0.1550(4) 0.6738(3) 0.9131(3)
H14 H 0.1644(4) 0.7281(3) 0.9477(3)
C33 C 0.3357(4) 0.8431(4) 0.7593(3)
H15 H 0.2789(4) 0.8482(4) 0.7287(3)
C34 C 0.9240(4) 0.7130(4) 0.6802(3)
H16 H 0.9619(4) 0.7764(4) 0.7109(3)
C35 C 0.9388(4) 0.3211(4) 0.6018(3)
H17 H 0.9657(4) 0.3269(4) 0.5625(3)
C36 C 0.1861(4) 0.6118(4) 0.8086(3)
H18 H 0.2150(4) 0.6238(4) 0.7705(3)
C37 C 0.4132(4) 0.8062(4) 0.8661(3)
H19 H 0.4093(4) 0.7860(4) 0.9096(3)
C40 C 0.5012(4) 0.8276(4) 0.8469(3)
H22 H 0.5581(4) 0.8223(4) 0.8772(3)
C41 C 0.2141(4) 0.3247(4) 0.1335(3)
C43 C 0.7699(4) 0.5927(4) 0.6007(3)
H24 H 0.6996(4) 0.5714(4) 0.5763(3)
C44 C 0.9713(4) 0.6518(4) 0.6716(3)
C45 C 0.8173(4) 0.5303(4) 0.5908(3)
H26 H 0.7798(4) 0.4673(4) 0.5596(3)
C46 C 0.2363(4) 0.9517(4) 0.8428(3)
H27 H 0.3060(4) 0.9790(4) 0.8429(3)
C47 C 0.2153(4) 0.2427(4) 0.0901(3)
H28 H 0.2635(4) 0.2161(4) 0.1064(3)
C48 C 0.3069(4) 0.4573(4) 0.2413(3)
C49 C 0.3932(4) 0.6269(4) 0.3672(3)
H29 H 0.3345(4) 0.6249(4) 0.3339(3)
C50 C 0.4365(4) 0.5622(5) 0.3534(3)
C51 C 0.4374(5) 0.6946(5) 0.4306(3)
H30 H 0.4087(5) 0.7405(5) 0.4392(3)
C52 C 0.5622(5) 0.6421(6) 0.4656(4)
H31 H 0.6231(5) 0.6489(6) 0.4989(4)
C53 C 0.5243(6) 0.5711(7) 0.4029(4)
H32 H 0.5580(6) 0.5297(7) 0.3942(4)
H33 H 0.6072(15) 0.956(4) 0.543(4)
H34 H 0.672(6) 0.9163(10) 0.526(3)
H35 H 0.4344(4) 0.4507(4) 0.2914(3)
H36 H 0.3310(4) 0.3404(4) 0.2096(2)
Cd8 Cd 0.96832(2) 0.19299(2) 0.881266(18)
N7 N 0.0729(3) 0.2336(3) 0.9991(2)
H9 H 0.1488(4) 0.1507(4) 0.9953(3)
O12 O 0.9733(3) 0.3715(3) 0.9107(2)
H2 H 0.9668(4) 0.8499(3) 0.8473(3)
Cd6 Cd 0.03168(2) 0.80701(2) 0.118734(18)
O12_2 O 0.0267(3) 0.6285(3) 0.0893(2)
H2_2 H 0.0332(4) 0.1501(3) 0.1527(3)
Cd4 Cd 0.20105(2) 0.04698(2) 0.247448(18)
O15 O 0.1658(3) 0.8720(2) 0.22976(18)
O17 O 0.0624(3) 0.9935(3) 0.15223(18)
N3 N 0.9271(3) 0.7664(3) 0.0009(2)
H9_2 H 0.8512(4) 0.8493(4) 0.0047(3)
Cd3 Cd 0.43349(3) 0.20819(3) 0.405113(19)
O1_2 O 0.3884(2) 0.1013(2) 0.29573(17)
O4_2 O 0.3154(3) 0.1099(3) 0.1880(2)
O5 O 0.1683(3) 0.9511(2) 0.33043(19)
O6_2 O 0.1722(3) 0.1647(3) 0.2996(2)
O7_2 O 0.9426(3) 0.6733(2) 0.1539(2)
O11_2 O 0.3211(3) 0.2741(3) 0.3737(2)
N1_2 N 0.0319(3) 0.5055(3) 0.3834(2)
N2_2 N 0.7618(3) 0.2105(3) 0.1563(2)
O13_2 O 0.7498(3) 0.5036(3) 0.7637(2)
C1_2 C 0.1561(3) 0.8722(3) 0.2920(3)
C2_2 C 0.3942(3) 0.1181(3) 0.2359(3)
N4_2 N 0.7104(4) 0.6308(4) 0.8038(2)
C3_2 C 0.1315(3) 0.7784(3) 0.3191(2)
C4_2 C 0.8137(3) 0.1504(3) 0.1579(2)
C5_2 C 0.6715(3) 0.1859(3) 0.1780(3)
C6_2 C 0.9161(4) 0.1860(3) 0.1582(3)
H1_2 H 0.9529(4) 0.2548(3) 0.1605(3)
C7_2 C 0.9647(4) 0.1240(3) 0.1551(3)
N5_2 N 0.4820(4) 0.2997(4) 0.5191(3)
C8_2 C 0.0683(4) 0.5984(3) 0.3631(2)
C9_2 C 0.2277(4) 0.2452(3) 0.3420(3)
C10_2 C 0.1781(3) 0.3152(3) 0.3549(2)
N6_2 N 0.6019(4) 0.5147(4) 0.7050(3)
C11_2 C 0.0819(3) 0.4406(3) 0.3742(3)
C12_2 C 0.4916(3) 0.1433(3) 0.2160(2)
C13_2 C 0.1105(4) 0.6083(4) 0.3070(3)
H3_2 H 0.1178(4) 0.5536(4) 0.2836(3)
C14_2 C 0.9065(4) 0.5027(4) 0.1292(3)
C17_2 C 0.0933(4) 0.7697(3) 0.3761(2)
H4_2 H 0.0887(4) 0.8253(3) 0.4008(2)
C18_2 C 0.9165(4) 0.0249(3) 0.1555(3)
C19_2 C 0.9307(4) 0.6946(4) 0.9575(3)
H5_2 H 0.9841(4) 0.6740(4) 0.9737(3)
C21_2 C 0.8069(3) 0.3097(3) 0.1447(3)
O14_2 O 0.3503(5) 0.0695(4) 0.4395(3)
C22_2 C 0.1417(4) 0.6976(3) 0.2854(3)
H6_2 H 0.1705(4) 0.7040(3) 0.2470(3)
C23_2 C 0.8623(4) 0.4839(4) 0.1837(3)
H7_2 H 0.8654(4) 0.5376(4) 0.2158(3)
C25_2 C 0.8547(4) 0.7967(4) 0.9755(3)
C26_2 C 0.8976(4) 0.4242(3) 0.0807(3)
H10_2 H 0.9272(4) 0.4366(3) 0.0430(3)
C27_2 C 0.8643(4) 0.6472(4) 0.8911(3)
H11_2 H 0.8722(4) 0.5965(4) 0.8630(3)
C28_2 C 0.9628(4) 0.6079(4) 0.1241(3)
C29_2 C 0.5741(4) 0.1350(4) 0.2596(3)
H12_2 H 0.5694(4) 0.1141(4) 0.3028(3)
C32_2 C 0.8450(4) 0.3262(3) 0.0869(3)
H14_2 H 0.8356(4) 0.2719(3) 0.0523(3)
C33_2 C 0.6643(4) 0.1569(4) 0.2407(3)
H15_2 H 0.7211(4) 0.1518(4) 0.2713(3)
C34_2 C 0.0760(4) 0.2870(4) 0.3198(3)
H16_2 H 0.0381(4) 0.2236(4) 0.2891(3)
C35_2 C 0.0612(4) 0.6789(4) 0.3982(3)
H17_2 H 0.0343(4) 0.6731(4) 0.4375(3)
C36_2 C 0.8139(4) 0.3882(4) 0.1914(3)
H18_2 H 0.7850(4) 0.3762(4) 0.2295(3)
C37_2 C 0.5868(4) 0.1938(4) 0.1339(3)
H19_2 H 0.5907(4) 0.2140(4) 0.0904(3)
C40_2 C 0.4988(4) 0.1724(4) 0.1531(3)
H22_2 H 0.4419(4) 0.1777(4) 0.1228(3)
C41_2 C 0.7859(4) 0.6753(4) 0.8665(3)
C43_2 C 0.2301(4) 0.4073(4) 0.3993(3)
H24_2 H 0.3004(4) 0.4286(4) 0.4237(3)
C44_2 C 0.0287(4) 0.3482(4) 0.3284(3)
C45_2 C 0.1827(4) 0.4697(4) 0.4092(3)
H26_2 H 0.2202(4) 0.5327(4) 0.4404(3)
C46_2 C 0.7637(4) 0.0483(4) 0.1572(3)
H27_2 H 0.6940(4) 0.0210(4) 0.1571(3)
C47_2 C 0.7847(4) 0.7573(4) 0.9099(3)
H28_2 H 0.7365(4) 0.7839(4) 0.8936(3)
C48_2 C 0.6931(4) 0.5427(4) 0.7587(3)
C49_2 C 0.6068(4) 0.3731(4) 0.6328(3)
H29_2 H 0.6655(4) 0.3751(4) 0.6661(3)
C50_2 C 0.5635(4) 0.4378(5) 0.6466(3)
C51_2 C 0.5626(5) 0.3054(5) 0.5694(3)
H30_2 H 0.5913(5) 0.2595(5) 0.5608(3)
C52_2 C 0.4378(5) 0.3579(6) 0.5344(4)
H31_2 H 0.3769(5) 0.3511(6) 0.5011(4)
C53_2 C 0.4757(6) 0.4289(7) 0.5971(4)
H32_2 H 0.4420(6) 0.4703(7) 0.6058(4)
H33_2 H 0.3928(15) 0.044(4) 0.457(4)
H34_2 H 0.328(6) 0.0837(10) 0.474(3)
H35_2 H 0.5656(4) 0.5493(4) 0.7086(3)
H36_2 H 0.6690(4) 0.6596(4) 0.7904(2)
O20 O 0.6065(3) 0.2316(3) 0.4303(2)
O21 O 0.5580(3) 0.3328(3) 0.3737(2)
O22 O 0.9212(3) 0.8677(3) 0.1476(2)
C15_2 C 0.9699(4) 0.9576(4) 0.1527(2)
C42_2 C 0.8148(4) 0.9879(4) 0.1569(3)
H23_2 H 0.7803(4) 0.9197(4) 0.1575(3)
C16_2 C 0.9341(4) 0.4646(3) 0.3932(2)
C20_2 C 0.7340(4) 0.3638(4) 0.4025(3)
C24_2 C 0.8576(4) 0.4965(4) 0.3670(3)
H8_2 H 0.8731(4) 0.5529(4) 0.3459(3)
C30_2 C 0.8118(4) 0.3357(4) 0.4323(3)
H13_2 H 0.7968(4) 0.2812(4) 0.4554(3)
C31_2 C 0.6278(4) 0.3067(4) 0.4035(3)
C38_2 C 0.7596(4) 0.4464(4) 0.3718(3)
H20_2 H 0.7085(4) 0.4690(4) 0.3536(3)
C39_2 C 0.9100(4) 0.3854(4) 0.4289(3)
H21_2 H 0.9621(4) 0.3661(4) 0.4508(3)
H25_2 H 0.9588(4) 0.3276(4) 0.3031(3)
loop_
_geom_bond_atom_site_label_1
_geom_bond_atom_site_label_2
_geom_bond_site_symmetry_1
_geom_bond_site_symmetry_2
O8 C31 1_555 1_555
O9 C31 1_555 1_555
C20 C30 1_555 1_555
C24 C16 1_555 1_555
H8 C24 1_555 1_555
C30 H13 1_555 1_555
C31 C20 1_555 1_555
C38 C20 1_555 1_555
H20 C38 1_555 1_555
C39 C16 1_555 1_555
H21 C39 1_555 1_555
Cd9 O8 1_555 1_555
O9 Cd9 1_555 1_555
C24 C38 1_555 1_555
C30 C39 1_555 1_555
O10 C15 1_555 1_555
H23 C42 1_555 1_555
Cd1 O1 1_555 1_555
Cd9 O1 1_555 1_555
O1 C2 1_555 1_555
O16 C1 1_555 1_555
O4 Cd1 1_555 1_555
O19 C1 1_555 1_555
O6 Cd1 1_555 1_555
O7 C28 1_555 1_555
O11 Cd9 1_555 1_555
N1 C8 1_555 1_555
N2 C4 1_555 1_555
O13 C48 1_555 1_555
C1 C3 1_555 1_555
C2 O4 1_555 1_555
N4 C41 1_555 1_555
C3 C17 1_555 1_555
C4 C6 1_555 1_555
C5 N2 1_555 1_555
C6 H1 1_555 1_555
C7 C6 1_555 1_555
N5 Cd9 1_555 1_555
C8 C13 1_555 1_555
C9 O6 1_555 1_555
C10 C9 1_555 1_555
N6 C48 1_555 1_555
C11 N1 1_555 1_555
C12 C2 1_555 1_555
C13 H3 1_555 1_555
C14 C23 1_555 1_555
C17 H4 1_555 1_555
C18 C7 1_555 1_555
C19 H5 1_555 1_555
C21 N2 1_555 1_555
O14 Cd9 1_555 1_555
C22 C3 1_555 1_555
H6 C22 1_555 1_555
C23 H7 1_555 1_555
C26 C14 1_555 1_555
H10 C26 1_555 1_555
C27 C19 1_555 1_555
H11 C27 1_555 1_555
C29 C12 1_555 1_555
H12 C29 1_555 1_555
C32 C21 1_555 1_555
H14 C32 1_555 1_555
C33 C5 1_555 1_555
H15 C33 1_555 1_555
C34 C10 1_555 1_555
H16 C34 1_555 1_555
C35 C8 1_555 1_555
H17 C35 1_555 1_555
C36 C21 1_555 1_555
H18 C36 1_555 1_555
C37 C5 1_555 1_555
H19 C37 1_555 1_555
C40 C12 1_555 1_555
H22 C40 1_555 1_555
C41 C27 1_555 1_555
C43 C10 1_555 1_555
H24 C43 1_555 1_555
C44 C11 1_555 1_555
C45 C11 1_555 1_555
H26 C45 1_555 1_555
C46 C4 1_555 1_555
H27 C46 1_555 1_555
C47 C25 1_555 1_555
H28 C47 1_555 1_555
C48 N4 1_555 1_555
C49 H29 1_555 1_555
C50 N6 1_555 1_555
C51 N5 1_555 1_555
H30 C51 1_555 1_555
C52 N5 1_555 1_555
H31 C52 1_555 1_555
C53 C50 1_555 1_555
H32 C53 1_555 1_555
H33 O14 1_555 1_555
H34 O14 1_555 1_555
H35 N6 1_555 1_555
H36 N4 1_555 1_555
Cd8 O16 1_555 1_555
O11 C9 1_555 1_555
C13 C22 1_555 1_555
C14 C28 1_555 1_555
C17 C35 1_555 1_555
C23 C36 1_555 1_555
C26 C32 1_555 1_555
C29 C33 1_555 1_555
C34 C44 1_555 1_555
C37 C40 1_555 1_555
C41 C47 1_555 1_555
C43 C45 1_555 1_555
C49 C50 1_555 1_555
C49 C51 1_555 1_555
C52 C53 1_555 1_555
Cd8 O18 1_555 1_555
O12 Cd8 1_555 1_555
O12_2 Cd6 1_555 1_555
O15 Cd6 1_555 1_555
O17 Cd6 1_555 1_555
Cd4 O1_2 1_555 1_555
Cd3 O1_2 1_555 1_555
O1_2 C2_2 1_555 1_555
O15 C1_2 1_555 1_555
O4_2 Cd4 1_555 1_555
O5 C1_2 1_555 1_555
O6_2 Cd4 1_555 1_555
O7_2 C28_2 1_555 1_555
O11_2 Cd3 1_555 1_555
N1_2 C8_2 1_555 1_555
N2_2 C4_2 1_555 1_555
O13_2 C48_2 1_555 1_555
C1_2 C3_2 1_555 1_555
C2_2 O4_2 1_555 1_555
N4_2 C41_2 1_555 1_555
C3_2 C17_2 1_555 1_555
C4_2 C6_2 1_555 1_555
C5_2 N2_2 1_555 1_555
C6_2 H1_2 1_555 1_555
C7_2 C6_2 1_555 1_555
N5_2 Cd3 1_555 1_555
C8_2 C13_2 1_555 1_555
C9_2 O6_2 1_555 1_555
C10_2 C9_2 1_555 1_555
N6_2 C48_2 1_555 1_555
C11_2 N1_2 1_555 1_555
C12_2 C2_2 1_555 1_555
C13_2 H3_2 1_555 1_555
C14_2 C23_2 1_555 1_555
C17_2 H4_2 1_555 1_555
C18_2 C7_2 1_555 1_555
C19_2 H5_2 1_555 1_555
C21_2 N2_2 1_555 1_555
O14_2 Cd3 1_555 1_555
C22_2 C3_2 1_555 1_555
H6_2 C22_2 1_555 1_555
C23_2 H7_2 1_555 1_555
C26_2 C14_2 1_555 1_555
H10_2 C26_2 1_555 1_555
C27_2 C19_2 1_555 1_555
H11_2 C27_2 1_555 1_555
C29_2 C12_2 1_555 1_555
H12_2 C29_2 1_555 1_555
C32_2 C21_2 1_555 1_555
H14_2 C32_2 1_555 1_555
C33_2 C5_2 1_555 1_555
H15_2 C33_2 1_555 1_555
C34_2 C10_2 1_555 1_555
H16_2 C34_2 1_555 1_555
C35_2 C8_2 1_555 1_555
H17_2 C35_2 1_555 1_555
C36_2 C21_2 1_555 1_555
H18_2 C36_2 1_555 1_555
C37_2 C5_2 1_555 1_555
H19_2 C37_2 1_555 1_555
C40_2 C12_2 1_555 1_555
H22_2 C40_2 1_555 1_555
C41_2 C27_2 1_555 1_555
C43_2 C10_2 1_555 1_555
H24_2 C43_2 1_555 1_555
C44_2 C11_2 1_555 1_555
C45_2 C11_2 1_555 1_555
H26_2 C45_2 1_555 1_555
C46_2 C4_2 1_555 1_555
H27_2 C46_2 1_555 1_555
C47_2 C25_2 1_555 1_555
H28_2 C47_2 1_555 1_555
C48_2 N4_2 1_555 1_555
C49_2 H29_2 1_555 1_555
C50_2 N6_2 1_555 1_555
C51_2 N5_2 1_555 1_555
H30_2 C51_2 1_555 1_555
C52_2 N5_2 1_555 1_555
H31_2 C52_2 1_555 1_555
C53_2 C50_2 1_555 1_555
H32_2 C53_2 1_555 1_555
H33_2 O14_2 1_555 1_555
H34_2 O14_2 1_555 1_555
H35_2 N6_2 1_555 1_555
H36_2 N4_2 1_555 1_555
O20 Cd3 1_555 1_555
O21 Cd3 1_555 1_555
O11_2 C9_2 1_555 1_555
C13_2 C22_2 1_555 1_555
C14_2 C28_2 1_555 1_555
C17_2 C35_2 1_555 1_555
C23_2 C36_2 1_555 1_555
C26_2 C32_2 1_555 1_555
C29_2 C33_2 1_555 1_555
C34_2 C44_2 1_555 1_555
C37_2 C40_2 1_555 1_555
C41_2 C47_2 1_555 1_555
C43_2 C45_2 1_555 1_555
C49_2 C50_2 1_555 1_555
C49_2 C51_2 1_555 1_555
C52_2 C53_2 1_555 1_555
O22 C15_2 1_555 1_555
H23_2 C42_2 1_555 1_555
O20 C31_2 1_555 1_555
O21 C31_2 1_555 1_555
C20_2 C30_2 1_555 1_555
C24_2 C16_2 1_555 1_555
H8_2 C24_2 1_555 1_555
C30_2 H13_2 1_555 1_555
C31_2 C20_2 1_555 1_555
C38_2 C20_2 1_555 1_555
H20_2 C38_2 1_555 1_555
C39_2 C16_2 1_555 1_555
H21_2 C39_2 1_555 1_555
C24_2 C38_2 1_555 1_555
C30_2 C39_2 1_555 1_555

#END
