
###############################################################################
#
# This file contains modified crystal structure data generated from the
# MOF subset of the Cambridge Structural Database (CSD) v543 
# hosted by the Cambridge Crystallographic Data Centre (CCDC).
#
# This work is licensed under the Creative Commons
# Attribution-NonCommercial-ShareAlike 4.0 International License.
# To view a copy of this license, visit
# http://creativecommons.org/licenses/by-nc-sa/4.0/
# or send a letter to
# Creative Commons, PO Box 1866, Mountain View, CA 94042, USA.
#
# CIF created using the CSD Python API on 29 September 2022
# The structure has been converted into the P1 space group
# The structure has a 3D framework
# The original CSD entry LARVIL is in the hexagonal crystal system
# The original CSD entry LARVIL is in a Sohncke space group
# The framework has been calculated to contain at least 10.0% void space
# The void calculation uses a probe of radius 1.32A, grid spacing 0.4
# H atom positions have been added when not included in the experimental data
#
###############################################################################

data_LARVIL
_chemical_formula_moiety         '(C30 H72 Cu8 I8 N12)n'
_symmetry_cell_setting           triclinic
_symmetry_space_group_name_H-M   'P 1'
_symmetry_Int_Tables_number      1
_space_group_name_Hall           'P 1'
loop_
_symmetry_equiv_pos_site_id
_symmetry_equiv_pos_as_xyz
1 x,y,z
_cell_length_a                   18.120(3)
_cell_length_b                   18.120(3)
_cell_length_c                   7.5177(15)
_cell_angle_alpha                90
_cell_angle_beta                 90
_cell_angle_gamma                120
_cell_volume                     2137.63
loop_
_atom_site_label
_atom_site_type_symbol
_atom_site_fract_x
_atom_site_fract_y
_atom_site_fract_z
N1 N 0.4534(4) 0.3152(4) 0.1179(8)
C1 C 0.3660(6) 0.2457(6) 0.0882(16)
H1 H 0.3290 0.2679 0.1201
C2 C 0.3308(13) 0.1654(6) 0.1667
C3 C 0.5177(6) 0.2901(5) 0.1024(13)
H3 H 0.5730 0.3415 0.1099
I2 I 0.64037(3) 0.53994(3) 0.04406(6)
I3 I 0.35963(3) 0.46006(3) 0.04406(6)
Cu4 Cu 0.47942(7) 0.06027(9) 0.37195(13)
N2 N 0.4534(4) 0.1382(6) 0.2154(8)
C4 C 0.3660(6) 0.1203(8) 0.2451(16)
H5 H 0.3290 0.0611 0.2132
H6 H 0.3601 0.1240 0.3725
C5 C 0.5177(6) 0.2276(8) 0.2309(13)
H7 H 0.5730 0.2315 0.2234
H8 H 0.5131 0.2460 0.3494
H9 H 0.455687 0.334168 0.245808
H10 H 0.290711 0.122749 0.0617607
H11 H 0.290757 0.167996 0.271702
H12 H 0.455687 0.121519 0.0875257
I1 I 0.10043(4) 0.46006(3) 0.95594(6)
N3 N 0.1382(6) 0.6848(4) 0.8821(8)
I4 I 0.89957(4) 0.53994(3) 0.95594(6)
I1_2 I 0.64037(3) 0.10043(4) 0.28928(6)
Cu1 Cu 0.58085(6) 0.06027(9) 0.62805(13)
N1_2 N 0.6848(4) 0.1382(6) 0.7846(8)
C1_2 C 0.7543(6) 0.1203(8) 0.7549(16)
H1_2 H 0.7321 0.0611 0.7868
H2 H 0.7639 0.1240 0.6275
C2_2 C 0.8346(6) 0.1654(14) 0.8334
C3_2 C 0.7099(5) 0.2276(8) 0.7691(13)
H3_2 H 0.6585 0.2315 0.7766
H4 H 0.7329 0.2460 0.6506
I2_2 I 0.46006(3) 0.10043(4) 0.71072(6)
N2_2 N 0.8618(6) 0.3152(7) 0.8821(8)
C4_2 C 0.8797(8) 0.2457(10) 0.9118(16)
H5_2 H 0.9389 0.2679 0.8799
C5_2 C 0.7724(8) 0.2901(10) 0.8976(13)
H7_2 H 0.7685 0.3415 0.8901
H9_2 H 0.665832 0.121519 0.912474
H10_2 H 0.877251 0.167962 0.728427
H11_2 H 0.832004 0.122761 0.938368
H12_2 H 0.878481 0.334168 0.754192
I3_2 I 0.53994(3) 0.89957(4) 0.71072(6)
I4_2 I 0.35963(3) 0.89957(4) 0.28928(6)
Cu3 Cu 0.52058(7) 0.93973(9) 0.37195(13)
Cu5 Cu 0.41915(6) 0.93973(9) 0.62805(13)
N1_3 N 0.5466(4) 0.6848(4) 0.1179(8)
C1_3 C 0.6340(6) 0.7543(6) 0.0882(16)
H1_3 H 0.6710 0.7321 0.1201
C2_3 C 0.6692(13) 0.8346(6) 0.1667
C3_3 C 0.4823(6) 0.7099(5) 0.1024(13)
H3_3 H 0.4270 0.6585 0.1099
N2_3 N 0.5466(4) 0.8618(6) 0.2154(8)
C4_3 C 0.6340(6) 0.8797(8) 0.2451(16)
H5_3 H 0.6710 0.9389 0.2132
H6_2 H 0.6399 0.8760 0.3725
C5_3 C 0.4823(6) 0.7724(8) 0.2309(13)
H7_3 H 0.4270 0.7685 0.2234
H8_2 H 0.4869 0.7540 0.3494
H9_3 H 0.544313 0.665832 0.245808
H10_3 H 0.709289 0.877251 0.0617607
H11_3 H 0.709243 0.832004 0.271702
H12_3 H 0.544313 0.878481 0.0875257
N1_4 N 0.3152(4) 0.8618(6) 0.7846(8)
C1_4 C 0.2457(6) 0.8797(8) 0.7549(16)
H1_4 H 0.2679 0.9389 0.7868
H2_2 H 0.2361 0.8760 0.6275
C2_4 C 0.1654(6) 0.8346(14) 0.8334
C3_4 C 0.2901(5) 0.7724(8) 0.7691(13)
H3_4 H 0.3415 0.7685 0.7766
H4_2 H 0.2671 0.7540 0.6506
C4_4 C 0.1203(8) 0.7543(10) 0.9118(16)
H5_4 H 0.0611 0.7321 0.8799
C5_4 C 0.2276(8) 0.7099(10) 0.8976(13)
H7_4 H 0.2315 0.6585 0.8901
H9_4 H 0.334168 0.878481 0.912474
H10_4 H 0.122749 0.832038 0.728427
H11_4 H 0.167996 0.877239 0.938368
H12_4 H 0.121519 0.665832 0.754192
I1_3 I 0.46006(3) 0.35963(3) 0.62261(6)
Cu1_2 Cu 0.47942(7) 0.41915(6) 0.96138(13)
H2_3 H 0.3601 0.2361 0.9608
H4_3 H 0.5131 0.2671 0.9839
I4_3 I 0.53994(3) 0.64037(3) 0.62261(6)
Cu2 Cu 0.58085(6) 0.52058(7) 0.70529(13)
Cu3_2 Cu 0.41915(6) 0.47942(7) 0.70529(13)
Cu5_2 Cu 0.52058(7) 0.58085(6) 0.96138(13)
N3_2 N 0.6848(4) 0.5466(4) 0.5488(8)
Cu1_3 Cu 0.06027(9) 0.47942(7) 0.29471(13)
N1_5 N 0.1382(6) 0.4534(4) 0.4512(8)
C1_5 C 0.1203(8) 0.3660(6) 0.4215(16)
H1_5 H 0.0611 0.3290 0.4534
H2_4 H 0.1240 0.3601 0.2941
C2_5 C 0.1654(14) 0.3308(13) 0.5000
C3_5 C 0.2276(8) 0.5177(6) 0.4357(13)
H3_5 H 0.2315 0.5730 0.4432
H4_4 H 0.2460 0.5131 0.3172
I2_3 I 0.10043(4) 0.64037(3) 0.37739(6)
Cu2_2 Cu 0.06027(9) 0.58085(6) 0.03862(13)
N2_4 N 0.3152(7) 0.4534(4) 0.5488(8)
C4_5 C 0.2457(10) 0.3660(6) 0.5785(16)
H5_5 H 0.2679 0.3290 0.5466
H6_3 H 0.2361 0.3601 0.7059
C5_5 C 0.2901(10) 0.5177(6) 0.5643(13)
H7_5 H 0.3415 0.5730 0.5568
H8_3 H 0.2671 0.5131 0.6828
H9_5 H 0.121519 0.455687 0.579141
H10_5 H 0.167962 0.290711 0.395094
H11_5 H 0.122761 0.290757 0.605035
H12_5 H 0.334168 0.455687 0.420859
I3_3 I 0.89957(4) 0.35963(3) 0.37739(6)
Cu3_3 Cu 0.93973(9) 0.41915(6) 0.03862(13)
Cu5_3 Cu 0.93973(9) 0.52058(7) 0.29471(13)
H6_4 H 0.8760 0.2361 0.0392
H8_4 H 0.7540 0.2671 0.0161
H2_5 H 0.6399 0.7639 0.9608
H4_5 H 0.4869 0.7329 0.9839
N1_6 N 0.8618(6) 0.5466(4) 0.4512(8)
C1_6 C 0.8797(8) 0.6340(6) 0.4215(16)
H1_6 H 0.9389 0.6710 0.4534
H2_6 H 0.8760 0.6399 0.2941
C2_6 C 0.8346(14) 0.6692(13) 0.5000
C3_6 C 0.7724(8) 0.4823(6) 0.4357(13)
H3_6 H 0.7685 0.4270 0.4432
H4_6 H 0.7540 0.4869 0.3172
C4_6 C 0.7543(10) 0.6340(6) 0.5785(16)
H5_6 H 0.7321 0.6710 0.5466
H6_5 H 0.7639 0.6399 0.7059
C5_6 C 0.7099(10) 0.4823(6) 0.5643(13)
H7_6 H 0.6585 0.4270 0.5568
H8_5 H 0.7329 0.4869 0.6828
H9_6 H 0.878481 0.544313 0.579141
H10_6 H 0.832038 0.709289 0.395094
H11_6 H 0.877239 0.709243 0.605035
H12_6 H 0.665832 0.544313 0.420859
H6_6 H 0.1240 0.7639 0.0392
H8_6 H 0.2460 0.7329 0.0161
loop_
_geom_bond_atom_site_label_1
_geom_bond_atom_site_label_2
_geom_bond_site_symmetry_1
_geom_bond_site_symmetry_2
N1 C1 1_555 1_555
C1 H1 1_555 1_555
C2 C1 1_555 1_555
C3 N1 1_555 1_555
H3 C3 1_555 1_555
Cu4 N2 1_555 1_555
N2 C4 1_555 1_555
C4 C2 1_555 1_555
H5 C4 1_555 1_555
H6 C4 1_555 1_555
C5 C3 1_555 1_555
H7 C5 1_555 1_555
H8 C5 1_555 1_555
N2 C5 1_555 1_555
N1 H9 1_555 1_555
C2 H10 1_555 1_555
C2 H11 1_555 1_555
N2 H12 1_555 1_555
I1_2 Cu1 1_555 1_555
Cu1 N1_2 1_555 1_555
N1_2 C1_2 1_555 1_555
C1_2 H1_2 1_555 1_555
H2 C1_2 1_555 1_555
C2_2 C1_2 1_555 1_555
C3_2 N1_2 1_555 1_555
H3_2 C3_2 1_555 1_555
H4 C3_2 1_555 1_555
I2_2 Cu1 1_555 1_555
Cu4 I1_2 1_555 1_555
N2_2 C4_2 1_555 1_555
C4_2 C2_2 1_555 1_555
H5_2 C4_2 1_555 1_555
C5_2 C3_2 1_555 1_555
H7_2 C5_2 1_555 1_555
I2_2 Cu4 1_555 1_555
N2_2 C5_2 1_555 1_555
N1_2 H9_2 1_555 1_555
C2_2 H10_2 1_555 1_555
C2_2 H11_2 1_555 1_555
N2_2 H12_2 1_555 1_555
I3_2 Cu3 1_555 1_555
I3_2 Cu5 1_555 1_555
I4_2 Cu3 1_555 1_555
I4_2 Cu5 1_555 1_555
N1_3 C1_3 1_555 1_555
C1_3 H1_3 1_555 1_555
C2_3 C1_3 1_555 1_555
C3_3 N1_3 1_555 1_555
H3_3 C3_3 1_555 1_555
Cu3 N2_3 1_555 1_555
N2_3 C4_3 1_555 1_555
C4_3 C2_3 1_555 1_555
H5_3 C4_3 1_555 1_555
H6_2 C4_3 1_555 1_555
C5_3 C3_3 1_555 1_555
H7_3 C5_3 1_555 1_555
H8_2 C5_3 1_555 1_555
N2_3 C5_3 1_555 1_555
N1_3 H9_3 1_555 1_555
C2_3 H10_3 1_555 1_555
C2_3 H11_3 1_555 1_555
N2_3 H12_3 1_555 1_555
Cu5 N1_4 1_555 1_555
N1_4 C1_4 1_555 1_555
C1_4 H1_4 1_555 1_555
H2_2 C1_4 1_555 1_555
C2_4 C1_4 1_555 1_555
C3_4 N1_4 1_555 1_555
H3_4 C3_4 1_555 1_555
H4_2 C3_4 1_555 1_555
N3 C4_4 1_555 1_555
C4_4 C2_4 1_555 1_555
H5_4 C4_4 1_555 1_555
C5_4 C3_4 1_555 1_555
H7_4 C5_4 1_555 1_555
N3 C5_4 1_555 1_555
N1_4 H9_4 1_555 1_555
C2_4 H10_4 1_555 1_555
C2_4 H11_4 1_555 1_555
N3 H12_4 1_555 1_555
I1_3 Cu1_2 1_555 1_555
I4_3 Cu2 1_555 1_555
Cu2 I1_3 1_555 1_555
Cu3_2 I1_3 1_555 1_555
N3_2 Cu2 1_555 1_555
I4_3 Cu3_2 1_555 1_555
I4_3 Cu5_2 1_555 1_555
Cu1_3 N1_5 1_555 1_555
N1_5 C1_5 1_555 1_555
C1_5 H1_5 1_555 1_555
H2_4 C1_5 1_555 1_555
C2_5 C1_5 1_555 1_555
C3_5 N1_5 1_555 1_555
H3_5 C3_5 1_555 1_555
H4_4 C3_5 1_555 1_555
I2_3 Cu1_3 1_555 1_555
Cu3_2 N2_4 1_555 1_555
N2_4 C4_5 1_555 1_555
C4_5 C2_5 1_555 1_555
H5_5 C4_5 1_555 1_555
H6_3 C4_5 1_555 1_555
C5_5 C3_5 1_555 1_555
H7_5 C5_5 1_555 1_555
H8_3 C5_5 1_555 1_555
I2_3 Cu2_2 1_555 1_555
N2_4 C5_5 1_555 1_555
N1_5 H9_5 1_555 1_555
C2_5 H10_5 1_555 1_555
C2_5 H11_5 1_555 1_555
N2_4 H12_5 1_555 1_555
I3_3 Cu3_3 1_555 1_555
I3_3 Cu5_3 1_555 1_555
Cu5_3 N1_6 1_555 1_555
N1_6 C1_6 1_555 1_555
C1_6 H1_6 1_555 1_555
H2_6 C1_6 1_555 1_555
C2_6 C1_6 1_555 1_555
C3_6 N1_6 1_555 1_555
H3_6 C3_6 1_555 1_555
H4_6 C3_6 1_555 1_555
N3_2 C4_6 1_555 1_555
C4_6 C2_6 1_555 1_555
H5_6 C4_6 1_555 1_555
H6_5 C4_6 1_555 1_555
C5_6 C3_6 1_555 1_555
H7_6 C5_6 1_555 1_555
H8_5 C5_6 1_555 1_555
N3_2 C5_6 1_555 1_555
N1_6 H9_6 1_555 1_555
C2_6 H10_6 1_555 1_555
C2_6 H11_6 1_555 1_555
N3_2 H12_6 1_555 1_555

#END
