
###############################################################################
#
# This file contains modified crystal structure data generated from the
# MOF subset of the Cambridge Structural Database (CSD) v543 
# hosted by the Cambridge Crystallographic Data Centre (CCDC).
#
# This work is licensed under the Creative Commons
# Attribution-NonCommercial-ShareAlike 4.0 International License.
# To view a copy of this license, visit
# http://creativecommons.org/licenses/by-nc-sa/4.0/
# or send a letter to
# Creative Commons, PO Box 1866, Mountain View, CA 94042, USA.
#
# CIF created using the CSD Python API on 29 September 2022
# The structure has been converted into the P1 space group
# The structure has a 3D framework
# The original CSD entry LASQON is in the triclinic crystal system
# The framework has been calculated to contain at least 10.0% void space
# The void calculation uses a probe of radius 1.32A, grid spacing 0.4
#
###############################################################################

data_LASQON
_chemical_formula_moiety         '(C54 H40 N12 Ni5 O12)n'
_symmetry_cell_setting           triclinic
_symmetry_space_group_name_H-M   'P 1'
_symmetry_Int_Tables_number      1
_space_group_name_Hall           'P 1'
loop_
_symmetry_equiv_pos_site_id
_symmetry_equiv_pos_as_xyz
1 x,y,z
_cell_length_a                   10.047(2)
_cell_length_b                   12.658(3)
_cell_length_c                   13.494(3)
_cell_angle_alpha                86.56(3)
_cell_angle_beta                 71.43(3)
_cell_angle_gamma                72.16(3)
_cell_volume                     1547.19
loop_
_atom_site_label
_atom_site_type_symbol
_atom_site_fract_x
_atom_site_fract_y
_atom_site_fract_z
Ni10 Ni 0.0000 0.5000 0.0000
N3 N 0.5399(4) 0.2325(3) 0.5263(3)
N4 N 0.3790(4) 0.3926(3) 0.5125(3)
C5 C 0.0760(5) 0.6375(4) 0.4891(4)
H4 H 0.0513 0.6855 0.4383
C6 C 0.0153(5) 0.5798(4) 0.6654(4)
C7 C 0.4052(5) 0.2984(3) 0.5656(4)
H6 H 0.3353 0.2823 0.6236
C8 C 0.6051(5) 0.2866(4) 0.4434(4)
H7 H 0.7020 0.2596 0.3999
C9 C 0.5087(5) 0.3851(4) 0.4333(4)
H8 H 0.5265 0.4372 0.3832
C10 C 0.2430(5) 0.4811(3) 0.5384(4)
C11 C 0.2073(5) 0.5513(4) 0.4627(4)
H9 H 0.2709 0.5410 0.3943
C12 C 0.1475(5) 0.4949(4) 0.6395(4)
H10 H 0.1720 0.4470 0.6903
Ni6 Ni 0.61641(5) 0.07533(4) 0.57872(4)
Ni10_2 Ni 0.0000 0.5000 1.0000
H32 H 0.0905 0.6982 0.8449
N5 N 0.0863(4) 0.3464(3) 0.0596(3)
N6 N 0.2383(5) 0.1775(3) 0.0566(3)
C13 C 0.2226(6) 0.2823(4) 0.0234(4)
C14 C 0.0101(6) 0.2795(4) 0.1195(5)
C15 C 0.1025(6) 0.1768(5) 0.1192(5)
H13 H 0.0780 0.1168 0.1550
C16 C 0.3716(6) 0.0870(4) 0.0282(4)
C18 C 0.4057(6) 0.0127(4) 0.1023(4)
H15 H 0.3421 0.0217 0.1707
Ni8 Ni 0.38359(5) 0.92467(4) 0.42128(4)
O12 O 0.1668(3) 0.9102(2) 0.4435(2)
O15 O 0.3450(3) 0.8529(2) 0.2949(2)
O18 O 0.2283(3) 0.5983(3) 0.0748(3)
C48 C 0.1026(4) 0.8508(3) 0.3057(3)
C49 C 0.1479(4) 0.7644(3) 0.2314(3)
H37 H 0.2476 0.7267 0.2025
C50 C 0.0450(5) 0.7343(3) 0.2001(3)
C53 C 0.2113(4) 0.8727(3) 0.3503(3)
C54 C 0.0926(5) 0.6353(4) 0.1261(3)
O1 O 0.4028(3) 0.0894(2) 0.6639(2)
O6 O 0.0044(3) 0.4040(2) 0.8796(2)
H11 H 0.2997 0.3060 0.9799
C17 C 0.4658(6) 0.0745(4) 0.9255(4)
H14 H 0.4421 0.1248 0.8760
C19 C 0.1508(4) 0.1169(3) 0.6862(3)
C20 C 0.0459(4) 0.0895(3) 0.6541(3)
H16 H 0.0756 0.0310 0.6056
C24 C 0.1055(5) 0.2066(3) 0.7574(3)
H18 H 0.1753 0.2273 0.7767
C25 C 0.3129(4) 0.0554(3) 0.6362(3)
O10 O 0.6521(3) 0.0216(2) 0.4289(2)
O13 O 0.8332(3) 0.0898(2) 0.5565(2)
O16 O 0.6550(3) 0.1471(2) 0.7051(2)
O20 O 0.2080(3) 0.5055(3) 0.9100(3)
H39 H 0.2271 0.5350 0.9566
H40 H 0.2710 0.4441 0.8831
Ni10_3 Ni 1.0000 0.5000 0.0000
H31 H 0.7003 0.6940 0.0201
C44 C 0.5342(6) 0.9255(4) 0.0745(4)
H34 H 0.5579 0.8752 0.1240
O2 O 0.3479(3) 0.9784(2) 0.5711(2)
N1 N 0.6966(4) 0.9127(3) 0.6193(3)
N2 N 0.8473(4) 0.7435(3) 0.6172(3)
C1 C 0.8355(5) 0.8502(3) 0.5913(3)
H1 H 0.9152 0.8761 0.5581
C2 C 0.6162(5) 0.8422(4) 0.6650(4)
H2 H 0.5140 0.8630 0.6922
C3 C 0.7070(5) 0.7379(4) 0.6648(4)
H3 H 0.6799 0.6754 0.6915
C4 C 0.9820(5) 0.6520(3) 0.5908(4)
H5 H 0.9497 0.5878 0.7331
Ni10_4 Ni 1.0000 0.5000 1.0000
N13 N 0.9137(4) 0.6536(3) 0.9404(3)
N15 N 0.7617(5) 0.8225(3) 0.9434(3)
C40 C 0.7774(6) 0.7177(4) 0.9766(4)
C41 C 0.9899(6) 0.7205(4) 0.8805(5)
C42 C 0.8975(6) 0.8232(5) 0.8808(5)
H33 H 0.9220 0.8832 0.8450
C43 C 0.6284(6) 0.9130(4) 0.9718(4)
C45 C 0.5943(6) 0.9873(4) 0.8977(4)
H35 H 0.6579 0.9783 0.8293
N8 N 0.3034(4) 0.0873(3) 0.3807(3)
O7 O 0.7920(3) 0.4945(3) 0.0900(3)
H12 H 0.9095 0.3018 0.1551
H19 H 0.7729 0.4650 0.0434
H20 H 0.7290 0.5559 0.1169
O8 O 0.5972(3) 0.9106(2) 0.3361(2)
O19 O 0.9956(3) 0.5960(2) 0.1204(2)
N11 N 0.4601(4) 0.7675(3) 0.4737(3)
C46 C 0.8492(4) 0.8831(3) 0.3138(3)
C47 C 0.9541(4) 0.9105(3) 0.3459(3)
H36 H 0.9244 0.9690 0.3944
C51 C 0.8945(5) 0.7934(3) 0.2426(3)
H38 H 0.8247 0.7727 0.2233
C52 C 0.6871(4) 0.9446(3) 0.3638(3)
O5 O 0.7717(3) 0.4017(3) 0.9252(3)
C21 C 0.8974(4) 0.1492(3) 0.6943(3)
C22 C 0.8521(4) 0.2356(3) 0.7686(3)
H17 H 0.7524 0.2733 0.7975
C23 C 0.9550(5) 0.2657(3) 0.7999(3)
C26 C 0.7887(4) 0.1273(3) 0.6497(3)
C27 C 0.9074(5) 0.3647(4) 0.8739(3)
N9 N 0.1527(4) 0.2565(3) 0.3828(3)
C28 C 0.1645(5) 0.1498(3) 0.4087(3)
H21 H 0.0848 0.1239 0.4419
C29 C 0.3838(5) 0.1578(4) 0.3350(4)
H22 H 0.4860 0.1370 0.3078
C30 C 0.2930(5) 0.2621(4) 0.3352(4)
H23 H 0.3201 0.3246 0.3085
C31 C 0.0180(5) 0.3480(3) 0.4092(4)
H25 H 0.0503 0.4122 0.2669
N12 N 0.6210(4) 0.6074(3) 0.4875(3)
C32 C 0.9240(5) 0.3625(4) 0.5109(4)
H24 H 0.9487 0.3145 0.5617
C33 C 0.9847(5) 0.4202(4) 0.3346(4)
C34 C 0.5948(5) 0.7016(3) 0.4344(4)
H26 H 0.6647 0.7177 0.3764
C35 C 0.3949(5) 0.7134(4) 0.5566(4)
H27 H 0.2980 0.7404 0.6001
C36 C 0.4913(5) 0.6149(4) 0.5667(4)
H28 H 0.4735 0.5628 0.6168
C37 C 0.7570(5) 0.5189(3) 0.4616(4)
C38 C 0.7927(5) 0.4487(4) 0.5373(4)
H29 H 0.7291 0.4590 0.6057
C39 C 0.8525(5) 0.5051(4) 0.3605(4)
H30 H 0.8280 0.5530 0.3097
loop_
_geom_bond_atom_site_label_1
_geom_bond_atom_site_label_2
_geom_bond_site_symmetry_1
_geom_bond_site_symmetry_2
N3 C7 1_555 1_555
N4 C7 1_555 1_555
H4 C5 1_555 1_555
C7 H6 1_555 1_555
C8 N3 1_555 1_555
H7 C8 1_555 1_555
C9 N4 1_555 1_555
H8 C9 1_555 1_555
C10 N4 1_555 1_555
C11 C5 1_555 1_555
H9 C11 1_555 1_555
C12 C6 1_555 1_555
H10 C12 1_555 1_555
Ni6 N3 1_555 1_555
C8 C9 1_555 1_555
C10 C11 1_555 1_555
C10 C12 1_555 1_555
N5 Ni10 1_555 1_555
N6 C13 1_555 1_555
C13 N5 1_555 1_555
C14 N5 1_555 1_555
C15 N6 1_555 1_555
H13 C15 1_555 1_555
C16 N6 1_555 1_555
C18 C16 1_555 1_555
H15 C18 1_555 1_555
Ni8 O12 1_555 1_555
O12 C53 1_555 1_555
O15 Ni8 1_555 1_555
O18 C54 1_555 1_555
C49 C48 1_555 1_555
H37 C49 1_555 1_555
C50 C49 1_555 1_555
C53 O15 1_555 1_555
C14 C15 1_555 1_555
C48 C53 1_555 1_555
C50 C54 1_555 1_555
Ni6 O1 1_555 1_555
Ni10_2 O6 1_555 1_555
O1 C25 1_555 1_555
H14 C17 1_555 1_555
C19 C20 1_555 1_555
C20 H16 1_555 1_555
C24 C19 1_555 1_555
H18 C24 1_555 1_555
C25 C19 1_555 1_555
O10 Ni6 1_555 1_555
O13 Ni6 1_555 1_555
O16 Ni6 1_555 1_555
O20 Ni10_2 1_555 1_555
H39 O20 1_555 1_555
H40 O20 1_555 1_555
H34 C44 1_555 1_555
N2 C1 1_555 1_555
C1 N1 1_555 1_555
H1 C1 1_555 1_555
C2 N1 1_555 1_555
H2 C2 1_555 1_555
C3 N2 1_555 1_555
H3 C3 1_555 1_555
C4 N2 1_555 1_555
Ni8 O2 1_555 1_555
Ni10_4 N13 1_555 1_555
N13 C40 1_555 1_555
N15 C40 1_555 1_555
C41 N13 1_555 1_555
C42 N15 1_555 1_555
H33 C42 1_555 1_555
C43 N15 1_555 1_555
H35 C45 1_555 1_555
C2 C3 1_555 1_555
C41 C42 1_555 1_555
C43 C45 1_555 1_555
O7 Ni10_3 1_555 1_555
H19 O7 1_555 1_555
H20 O7 1_555 1_555
Ni8 O8 1_555 1_555
O8 C52 1_555 1_555
O19 Ni10_3 1_555 1_555
N11 Ni8 1_555 1_555
C46 C47 1_555 1_555
C47 H36 1_555 1_555
C51 C46 1_555 1_555
H38 C51 1_555 1_555
C52 C46 1_555 1_555
O13 C26 1_555 1_555
O16 C26 1_555 1_555
O5 C27 1_555 1_555
C22 C21 1_555 1_555
H17 C22 1_555 1_555
C23 C22 1_555 1_555
C26 C21 1_555 1_555
C27 C23 1_555 1_555
N8 C28 1_555 1_555
N9 C28 1_555 1_555
C28 H21 1_555 1_555
C29 N8 1_555 1_555
H22 C29 1_555 1_555
C30 N9 1_555 1_555
H23 C30 1_555 1_555
C31 N9 1_555 1_555
C29 C30 1_555 1_555
N12 C34 1_555 1_555
H24 C32 1_555 1_555
C34 N11 1_555 1_555
H26 C34 1_555 1_555
C35 N11 1_555 1_555
H27 C35 1_555 1_555
C36 N12 1_555 1_555
H28 C36 1_555 1_555
C37 N12 1_555 1_555
C38 C32 1_555 1_555
H29 C38 1_555 1_555
C39 C33 1_555 1_555
H30 C39 1_555 1_555
C35 C36 1_555 1_555
C37 C38 1_555 1_555
C37 C39 1_555 1_555

#END
