
###############################################################################
#
# This file contains modified crystal structure data generated from the
# MOF subset of the Cambridge Structural Database (CSD) v543 
# hosted by the Cambridge Crystallographic Data Centre (CCDC).
#
# This work is licensed under the Creative Commons
# Attribution-NonCommercial-ShareAlike 4.0 International License.
# To view a copy of this license, visit
# http://creativecommons.org/licenses/by-nc-sa/4.0/
# or send a letter to
# Creative Commons, PO Box 1866, Mountain View, CA 94042, USA.
#
# CIF created using the CSD Python API on 29 September 2022
# The structure has been converted into the P1 space group
# The structure has a 3D framework
# The original CSD entry LATQOP is in the monoclinic crystal system
# The framework has been calculated to contain at least 10.0% void space
# The void calculation uses a probe of radius 1.32A, grid spacing 0.4
#
###############################################################################

data_LATQOP
_chemical_formula_moiety         '(C124 H92 Cd6 N12 O32)n'
_symmetry_cell_setting           triclinic
_symmetry_space_group_name_H-M   'P 1'
_symmetry_Int_Tables_number      1
_space_group_name_Hall           'P 1'
loop_
_symmetry_equiv_pos_site_id
_symmetry_equiv_pos_as_xyz
1 x,y,z
_cell_length_a                   16.164(5)
_cell_length_b                   11.755(5)
_cell_length_c                   20.199(4)
_cell_angle_alpha                90
_cell_angle_beta                 120.402(17)
_cell_angle_gamma                90
_cell_volume                     3310.23
loop_
_atom_site_label
_atom_site_type_symbol
_atom_site_fract_x
_atom_site_fract_y
_atom_site_fract_z
O4 O 0.4508(4) 0.1317(5) 0.0176(3)
O7 O 0.2008(3) 0.0261(4) 0.0766(2)
C2 C 0.6679(5) 0.2290(6) 0.0154(4)
C3 C 0.7596(5) 0.2608(6) 0.0715(4)
H3 H 0.803221 0.283477 0.056989
C5 C 0.7883(6) 0.2595(6) 0.1496(4)
H5 H 0.850710 0.278475 0.186718
C7 C 0.7219(6) 0.2297(7) 0.1699(4)
H7 H 0.739110 0.230775 0.221347
C8 C 0.6317(6) 0.1987(7) 0.1159(4)
H8 H 0.588516 0.178368 0.131415
C9 C 0.6013(5) 0.1962(7) 0.0373(4)
C13 C 0.3055(5) 0.0734(6) 0.0068(4)
H12 H 0.334187 0.083128 0.059590
C20 C 0.1589(5) 0.0123(5) 0.0055(4)
Cd6 Cd 0.08828(4) 0.00098(4) 0.11094(3)
Cd2 Cd 0.500000 0.21012(6) 0.750000
O1 O 0.7098(4) 0.2662(4) 0.9211(3)
O3 O 0.5598(4) 0.2090(4) 0.8801(3)
O5 O 0.2260(3) 0.0510(4) 0.7337(2)
O8 O 0.3399(3) 0.2211(4) 0.7237(3)
H1 H 0.326804 0.162281 0.741395
H2 H 0.302091 0.224349 0.675339
N1 N 0.500000 0.0129(6) 0.750000
C1 C 0.6437(6) 0.2337(6) 0.9313(4)
C10 C 0.5025(5) 0.1558(7) 0.9792(4)
H9 H 0.469324 0.213985 0.940568
H10 H 0.506732 0.087799 0.953885
C11 C 0.3572(5) 0.0949(7) 0.9707(4)
H11 H 0.007436 0.212446 0.844604
C14 C 0.3142(5) 0.0829(7) 0.8918(4)
H13 H 0.348592 0.098717 0.867384
C16 C 0.2193(5) 0.0471(6) 0.8493(4)
C18 C 0.2122(5) 0.0377(5) 0.9649(4)
C19 C 0.1676(5) 0.0257(5) 0.8859(4)
H14 H 0.103615 0.003602 0.857571
H15 H 0.012252 0.408199 0.843904
C22 C 0.1759(5) 0.0302(5) 0.7638(4)
H17 H 0.018902 0.591842 0.852959
H23 H 0.006140 0.784885 0.849132
N5 N 0.0595(4) 0.1952(5) 0.5987(3)
C40 C 0.1067(6) 0.3726(6) 0.5707(4)
H29 H 0.136557 0.410235 0.547940
C42 C 0.1003(6) 0.2552(6) 0.5682(4)
H31 H 0.126584 0.216170 0.543149
C48 C 0.0208(6) 0.2529(6) 0.6324(5)
C51 C 0.0734(5) 0.5559(6) 0.6108(4)
C53 C 0.0686(5) 0.4331(6) 0.6071(4)
C57 C 0.0203(6) 0.3711(7) 0.6354(5)
C59 C 0.1347(5) 0.6170(6) 0.5934(4)
H41 H 0.173903 0.577513 0.579962
C60 C 0.0220(6) 0.6255(6) 0.6329(4)
C61 C 0.1381(5) 0.7338(6) 0.5957(4)
H43 H 0.179839 0.769953 0.583508
C62 C 0.0292(6) 0.7428(6) 0.6348(4)
N6 N 0.0852(4) 0.7982(5) 0.6142(3)
O16 O 0.6601(3) 0.2211(4) 0.7763(3)
H45 H 0.673196 0.162281 0.758605
H46 H 0.697909 0.224349 0.824661
Cd5 Cd 0.08828(4) 0.99902(4) 0.61094(3)
O17 O 0.4402(4) 0.2090(4) 0.6199(3)
O19 O 0.0727(3) 0.0255(4) 0.4680(3)
N7 N 0.500000 0.4130(7) 0.750000
O2 O 0.0905(3) 0.9964(4) 0.7262(3)
O6 O 0.0727(3) 0.9745(4) 0.9680(3)
C25 C 0.5813(5) 0.9528(6) 0.7782(4)
H18 H 0.638956 0.992179 0.798192
C26 C 0.5838(5) 0.8376(6) 0.7791(4)
H19 H 0.642991 0.801662 0.799680
C27 C 0.500000 0.7694(9) 0.750000
C28 C 0.500000 0.6460(7) 0.750000
C29 C 0.5750(6) 0.5894(6) 0.8069(4)
H20 H 0.626880 0.628280 0.845915
C30 C 0.5721(6) 0.4701(6) 0.8053(4)
H21 H 0.622759 0.429989 0.844626
C33 C 0.4187(5) 0.9528(6) 0.7218(4)
H24 H 0.361044 0.992179 0.701808
C34 C 0.4162(5) 0.8376(6) 0.7209(4)
H25 H 0.357009 0.801662 0.700320
C35 C 0.4250(6) 0.5894(6) 0.6931(4)
H26 H 0.373120 0.628280 0.654085
C36 C 0.4279(6) 0.4701(6) 0.6947(4)
H27 H 0.377241 0.429989 0.655374
O21 O 0.2008(3) 0.9739(4) 0.5766(2)
O18 O 0.9273(3) 0.0255(4) 0.0320(3)
N2 N 0.9405(4) 0.1952(5) 0.9013(3)
C4 C 0.8933(6) 0.3726(6) 0.9293(4)
H4 H 0.863443 0.410235 0.952060
C6 C 0.8997(6) 0.2552(6) 0.9318(4)
H6 H 0.873416 0.216170 0.956851
C12 C 0.9792(6) 0.2529(6) 0.8676(5)
C15 C 0.9266(5) 0.5559(6) 0.8892(4)
C17 C 0.9314(5) 0.4331(6) 0.8929(4)
C21 C 0.9797(6) 0.3711(7) 0.8646(5)
C23 C 0.8653(5) 0.6170(6) 0.9066(4)
H16 H 0.826097 0.577513 0.920038
C24 C 0.9780(6) 0.6255(6) 0.8671(4)
C31 C 0.8619(5) 0.7338(6) 0.9043(4)
H22 H 0.820161 0.769953 0.916492
C32 C 0.9708(6) 0.7428(6) 0.8652(4)
N4 N 0.9148(4) 0.7982(5) 0.8858(3)
O9 O 0.2902(4) 0.2662(4) 0.5789(3)
O12 O 0.5492(4) 0.1317(5) 0.4824(3)
O13 O 0.7740(3) 0.0510(4) 0.7663(2)
O15 O 0.7992(3) 0.0261(4) 0.4234(2)
C37 C 0.3563(6) 0.2337(6) 0.5687(4)
C38 C 0.3321(5) 0.2290(6) 0.4846(4)
C39 C 0.2404(5) 0.2608(6) 0.4285(4)
H28 H 0.196779 0.283477 0.443011
C41 C 0.2117(6) 0.2595(6) 0.3504(4)
H30 H 0.149290 0.278475 0.313282
C43 C 0.2781(6) 0.2297(7) 0.3301(4)
H32 H 0.260890 0.230775 0.278653
C44 C 0.3683(6) 0.1987(7) 0.3841(4)
H33 H 0.411484 0.178368 0.368585
C45 C 0.3987(5) 0.1962(7) 0.4627(4)
C46 C 0.4975(5) 0.1558(7) 0.5208(4)
H34 H 0.530676 0.213985 0.559432
H35 H 0.493268 0.087799 0.546115
C47 C 0.6428(5) 0.0949(7) 0.5293(4)
H36 H 0.992564 0.212446 0.655396
C49 C 0.6945(5) 0.0734(6) 0.4932(4)
H37 H 0.665813 0.083128 0.440410
C50 C 0.6858(5) 0.0829(7) 0.6082(4)
H38 H 0.651408 0.098717 0.632616
C52 C 0.7807(5) 0.0471(6) 0.6507(4)
C54 C 0.7878(5) 0.0377(5) 0.5351(4)
C55 C 0.8324(5) 0.0257(5) 0.6141(4)
H39 H 0.896385 0.003602 0.642429
C56 C 0.8411(5) 0.0123(5) 0.4945(4)
H40 H 0.987748 0.408199 0.656096
C58 C 0.8241(5) 0.0302(5) 0.7362(4)
H42 H 0.981098 0.591842 0.647041
H44 H 0.993860 0.784885 0.650868
Cd4 Cd 0.91172(4) 0.99902(4) 0.88906(3)
Cd7 Cd 0.91172(4) 0.00098(4) 0.38906(3)
O10 O 0.9095(3) 0.9964(4) 0.7738(3)
O14 O 0.9273(3) 0.9745(4) 0.5320(3)
O20 O 0.7992(3) 0.9739(4) 0.9234(2)
O10_2 O 0.0905(3) 0.0036(4) 0.2262(3)
N8 N 0.0852(4) 0.2018(5) 0.1142(3)
N2_2 N 0.0595(4) 0.8048(5) 0.0987(3)
C4_2 C 0.1067(6) 0.6274(6) 0.0707(4)
H4_2 H 0.136557 0.589765 0.047940
C6_2 C 0.1003(6) 0.7448(6) 0.0682(4)
H6_2 H 0.126584 0.783830 0.043149
C12_2 C 0.0208(6) 0.7471(6) 0.1324(5)
C15_2 C 0.0734(5) 0.4441(6) 0.1108(4)
C17_2 C 0.0686(5) 0.5669(6) 0.1071(4)
C21_2 C 0.0203(6) 0.6289(7) 0.1354(5)
C23_2 C 0.1347(5) 0.3830(6) 0.0934(4)
H16_2 H 0.173903 0.422487 0.079962
C24_2 C 0.0220(6) 0.3745(6) 0.1329(4)
C31_2 C 0.1381(5) 0.2662(6) 0.0957(4)
H22_2 H 0.179839 0.230047 0.083508
C32_2 C 0.0292(6) 0.2572(6) 0.1348(4)
O9_2 O 0.7098(4) 0.7338(4) 0.4211(3)
O11 O 0.5598(4) 0.7910(4) 0.3801(3)
O12_2 O 0.4508(4) 0.8683(5) 0.5176(3)
O13_2 O 0.2260(3) 0.9490(4) 0.2337(2)
C37_2 C 0.6437(6) 0.7663(6) 0.4313(4)
C38_2 C 0.6679(5) 0.7710(6) 0.5154(4)
C39_2 C 0.7596(5) 0.7392(6) 0.5715(4)
H28_2 H 0.803221 0.716523 0.556989
C41_2 C 0.7883(6) 0.7405(6) 0.6496(4)
H30_2 H 0.850710 0.721525 0.686718
C43_2 C 0.7219(6) 0.7703(7) 0.6699(4)
H32_2 H 0.739110 0.769225 0.721347
C44_2 C 0.6317(6) 0.8013(7) 0.6159(4)
H33_2 H 0.588516 0.821632 0.631415
C45_2 C 0.6013(5) 0.8038(7) 0.5373(4)
C46_2 C 0.5025(5) 0.8442(7) 0.4792(4)
H34_2 H 0.469324 0.786015 0.440568
H35_2 H 0.506732 0.912201 0.453885
C47_2 C 0.3572(5) 0.9051(7) 0.4707(4)
H36_2 H 0.007436 0.787554 0.344604
C49_2 C 0.3055(5) 0.9266(6) 0.5068(4)
H37_2 H 0.334187 0.916872 0.559590
C50_2 C 0.3142(5) 0.9171(7) 0.3918(4)
H38_2 H 0.348592 0.901283 0.367384
C52_2 C 0.2193(5) 0.9529(6) 0.3493(4)
C54_2 C 0.2122(5) 0.9623(5) 0.4649(4)
C55_2 C 0.1676(5) 0.9743(5) 0.3859(4)
H39_2 H 0.103615 0.996398 0.357571
C56_2 C 0.1589(5) 0.9877(5) 0.5055(4)
H40_2 H 0.012252 0.591801 0.343904
C58_2 C 0.1759(5) 0.9698(5) 0.2638(4)
H42_2 H 0.018902 0.408158 0.352959
H44_2 H 0.006140 0.215115 0.349132
Cd8 Cd 0.500000 0.78988(6) 0.250000
O2_2 O 0.9095(3) 0.0036(4) 0.2738(3)
C25_2 C 0.4187(5) 0.0472(6) 0.2218(4)
H18_2 H 0.361044 0.007821 0.201808
C26_2 C 0.4162(5) 0.1624(6) 0.2209(4)
H19_2 H 0.357009 0.198338 0.200320
C27_2 C 0.500000 0.2306(9) 0.250000
C28_2 C 0.500000 0.3540(7) 0.250000
C29_2 C 0.4250(6) 0.4106(6) 0.1931(4)
H20_2 H 0.373120 0.371720 0.154085
C30_2 C 0.4279(6) 0.5299(6) 0.1947(4)
H21_2 H 0.377241 0.570011 0.155374
N3 N 0.500000 0.5870(7) 0.250000
C33_2 C 0.5813(5) 0.0472(6) 0.2782(4)
H24_2 H 0.638956 0.007821 0.298192
C34_2 C 0.5838(5) 0.1624(6) 0.2791(4)
H25_2 H 0.642991 0.198338 0.299680
C35_2 C 0.5750(6) 0.4106(6) 0.3069(4)
H26_2 H 0.626880 0.371720 0.345915
C36_2 C 0.5721(6) 0.5299(6) 0.3053(4)
H27_2 H 0.622759 0.570011 0.344626
N9 N 0.9148(4) 0.2018(5) 0.3858(3)
O1_2 O 0.2902(4) 0.7338(4) 0.0789(3)
O3_2 O 0.4402(4) 0.7910(4) 0.1199(3)
O5_2 O 0.7740(3) 0.9490(4) 0.2663(2)
O8_2 O 0.6601(3) 0.7789(4) 0.2763(3)
H1_2 H 0.673196 0.837719 0.258605
H2_2 H 0.697909 0.775651 0.324661
N1_2 N 0.500000 0.9871(6) 0.250000
C1_2 C 0.3563(6) 0.7663(6) 0.0687(4)
C10_2 C 0.4975(5) 0.8442(7) 0.0208(4)
H9_2 H 0.530676 0.786015 0.059432
H10_2 H 0.493268 0.912201 0.046115
C11_2 C 0.6428(5) 0.9051(7) 0.0293(4)
H11_2 H 0.992564 0.787554 0.155396
C14_2 C 0.6858(5) 0.9171(7) 0.1082(4)
H13_2 H 0.651408 0.901283 0.132616
C16_2 C 0.7807(5) 0.9529(6) 0.1507(4)
C18_2 C 0.7878(5) 0.9623(5) 0.0351(4)
C19_2 C 0.8324(5) 0.9743(5) 0.1141(4)
H14_2 H 0.896385 0.996398 0.142429
H15_2 H 0.987748 0.591801 0.156096
C22_2 C 0.8241(5) 0.9698(5) 0.2362(4)
H17_2 H 0.981098 0.408158 0.147041
H23_2 H 0.993860 0.215115 0.150868
N5_2 N 0.9405(4) 0.8048(5) 0.4013(3)
C40_2 C 0.8933(6) 0.6274(6) 0.4293(4)
H29_2 H 0.863443 0.589765 0.452060
C42_2 C 0.8997(6) 0.7448(6) 0.4318(4)
H31_2 H 0.873416 0.783830 0.456851
C48_2 C 0.9792(6) 0.7471(6) 0.3676(5)
C51_2 C 0.9266(5) 0.4441(6) 0.3892(4)
C53_2 C 0.9314(5) 0.5669(6) 0.3929(4)
C57_2 C 0.9797(6) 0.6289(7) 0.3646(5)
C59_2 C 0.8653(5) 0.3830(6) 0.4066(4)
H41_2 H 0.826097 0.422487 0.420038
C60_2 C 0.9780(6) 0.3745(6) 0.3671(4)
C61_2 C 0.8619(5) 0.2662(6) 0.4043(4)
H43_2 H 0.820161 0.230047 0.416492
C62_2 C 0.9708(6) 0.2572(6) 0.3652(4)
O16_2 O 0.3399(3) 0.7789(4) 0.2237(3)
H45_2 H 0.326804 0.837719 0.241395
H46_2 H 0.302091 0.775651 0.175339
O4_2 O 0.5492(4) 0.8683(5) 0.9824(3)
C2_2 C 0.3321(5) 0.7710(6) 0.9846(4)
C3_2 C 0.2404(5) 0.7392(6) 0.9285(4)
H3_2 H 0.196779 0.716523 0.943011
C5_2 C 0.2117(6) 0.7405(6) 0.8504(4)
H5_2 H 0.149290 0.721525 0.813282
C7_2 C 0.2781(6) 0.7703(7) 0.8301(4)
H7_2 H 0.260890 0.769225 0.778653
C8_2 C 0.3683(6) 0.8013(7) 0.8841(4)
H8_2 H 0.411484 0.821632 0.868585
C9_2 C 0.3987(5) 0.8038(7) 0.9627(4)
C13_2 C 0.6945(5) 0.9266(6) 0.9932(4)
H12_2 H 0.665813 0.916872 0.940410
C20_2 C 0.8411(5) 0.9877(5) 0.9945(4)
loop_
_geom_bond_atom_site_label_1
_geom_bond_atom_site_label_2
_geom_bond_site_symmetry_1
_geom_bond_site_symmetry_2
O7 C20 1_555 1_555
C2 C3 1_555 1_555
C3 H3 1_555 1_555
C5 C3 1_555 1_555
H5 C5 1_555 1_555
C7 C5 1_555 1_555
H7 C7 1_555 1_555
C8 C7 1_555 1_555
H8 C8 1_555 1_555
C9 C2 1_555 1_555
H12 C13 1_555 1_555
O7 Cd6 1_555 1_555
C8 C9 1_555 1_555
Cd2 O3 1_555 1_555
O1 C1 1_555 1_555
O3 C1 1_555 1_555
O5 C22 1_555 1_555
O8 Cd2 1_555 1_555
H1 O8 1_555 1_555
H2 O8 1_555 1_555
N1 Cd2 1_555 1_555
H9 C10 1_555 1_555
H10 C10 1_555 1_555
C14 C11 1_555 1_555
H13 C14 1_555 1_555
C16 C14 1_555 1_555
C19 C16 1_555 1_555
H14 C19 1_555 1_555
C22 C16 1_555 1_555
C40 H29 1_555 1_555
C42 N5 1_555 1_555
H31 C42 1_555 1_555
C48 N5 1_555 1_555
C51 C53 1_555 1_555
C53 C40 1_555 1_555
C57 C48 1_555 1_555
C59 C51 1_555 1_555
H41 C59 1_555 1_555
C60 C51 1_555 1_555
C61 C59 1_555 1_555
H43 C61 1_555 1_555
C62 C60 1_555 1_555
N6 C61 1_555 1_555
O16 Cd2 1_555 1_555
H45 O16 1_555 1_555
H46 O16 1_555 1_555
Cd5 N6 1_555 1_555
O17 Cd2 1_555 1_555
N7 Cd2 1_555 1_555
C18 C19 1_555 1_555
C40 C42 1_555 1_555
C53 C57 1_555 1_555
C62 N6 1_555 1_555
H18 C25 1_555 1_555
C26 C25 1_555 1_555
H19 C26 1_555 1_555
C27 C26 1_555 1_555
C28 C27 1_555 1_555
C29 C28 1_555 1_555
H20 C29 1_555 1_555
C30 C29 1_555 1_555
H21 C30 1_555 1_555
N7 C30 1_555 1_555
H24 C33 1_555 1_555
C34 C27 1_555 1_555
H25 C34 1_555 1_555
C35 C28 1_555 1_555
H26 C35 1_555 1_555
C36 N7 1_555 1_555
H27 C36 1_555 1_555
Cd5 O2 1_555 1_555
O21 Cd5 1_555 1_555
C33 C34 1_555 1_555
C35 C36 1_555 1_555
C4 H4 1_555 1_555
C6 N2 1_555 1_555
H6 C6 1_555 1_555
C12 N2 1_555 1_555
C15 C17 1_555 1_555
C17 C4 1_555 1_555
C21 C12 1_555 1_555
C23 C15 1_555 1_555
H16 C23 1_555 1_555
C24 C15 1_555 1_555
C31 C23 1_555 1_555
H22 C31 1_555 1_555
C32 C24 1_555 1_555
N4 C31 1_555 1_555
O9 C37 1_555 1_555
O17 C37 1_555 1_555
O12 C46 1_555 1_555
O15 C56 1_555 1_555
C37 C38 1_555 1_555
C38 C39 1_555 1_555
C39 H28 1_555 1_555
C41 C39 1_555 1_555
H30 C41 1_555 1_555
C43 C41 1_555 1_555
H32 C43 1_555 1_555
C44 C43 1_555 1_555
H33 C44 1_555 1_555
C45 C38 1_555 1_555
C46 C45 1_555 1_555
H34 C46 1_555 1_555
H35 C46 1_555 1_555
C47 O12 1_555 1_555
C49 C47 1_555 1_555
H37 C49 1_555 1_555
C50 C47 1_555 1_555
H38 C50 1_555 1_555
C52 C50 1_555 1_555
C54 C49 1_555 1_555
C55 C52 1_555 1_555
H39 C55 1_555 1_555
Cd4 N4 1_555 1_555
C4 C6 1_555 1_555
C17 C21 1_555 1_555
C32 N4 1_555 1_555
O13 C58 1_555 1_555
O15 Cd7 1_555 1_555
C44 C45 1_555 1_555
C52 C58 1_555 1_555
C54 C55 1_555 1_555
C54 C56 1_555 1_555
O10 Cd4 1_555 1_555
O20 Cd4 1_555 1_555
O10_2 Cd6 1_555 1_555
N8 Cd6 1_555 1_555
C4_2 H4_2 1_555 1_555
C6_2 N2_2 1_555 1_555
H6_2 C6_2 1_555 1_555
C12_2 N2_2 1_555 1_555
C15_2 C17_2 1_555 1_555
C17_2 C4_2 1_555 1_555
C21_2 C12_2 1_555 1_555
C23_2 C15_2 1_555 1_555
H16_2 C23_2 1_555 1_555
C24_2 C15_2 1_555 1_555
C31_2 C23_2 1_555 1_555
H22_2 C31_2 1_555 1_555
C32_2 C24_2 1_555 1_555
N8 C31_2 1_555 1_555
O9_2 C37_2 1_555 1_555
O11 C37_2 1_555 1_555
O12_2 C46_2 1_555 1_555
O21 C56_2 1_555 1_555
C37_2 C38_2 1_555 1_555
C38_2 C39_2 1_555 1_555
C39_2 H28_2 1_555 1_555
C41_2 C39_2 1_555 1_555
H30_2 C41_2 1_555 1_555
C43_2 C41_2 1_555 1_555
H32_2 C43_2 1_555 1_555
C44_2 C43_2 1_555 1_555
H33_2 C44_2 1_555 1_555
C45_2 C38_2 1_555 1_555
C46_2 C45_2 1_555 1_555
H34_2 C46_2 1_555 1_555
H35_2 C46_2 1_555 1_555
C47_2 O12_2 1_555 1_555
C49_2 C47_2 1_555 1_555
H37_2 C49_2 1_555 1_555
C50_2 C47_2 1_555 1_555
H38_2 C50_2 1_555 1_555
C52_2 C50_2 1_555 1_555
C54_2 C49_2 1_555 1_555
C55_2 C52_2 1_555 1_555
H39_2 C55_2 1_555 1_555
Cd8 O11 1_555 1_555
C4_2 C6_2 1_555 1_555
C17_2 C21_2 1_555 1_555
C32_2 N8 1_555 1_555
O13_2 C58_2 1_555 1_555
C44_2 C45_2 1_555 1_555
C52_2 C58_2 1_555 1_555
C54_2 C55_2 1_555 1_555
C54_2 C56_2 1_555 1_555
H18_2 C25_2 1_555 1_555
C26_2 C25_2 1_555 1_555
H19_2 C26_2 1_555 1_555
C27_2 C26_2 1_555 1_555
C28_2 C27_2 1_555 1_555
C29_2 C28_2 1_555 1_555
H20_2 C29_2 1_555 1_555
C30_2 C29_2 1_555 1_555
H21_2 C30_2 1_555 1_555
N3 C30_2 1_555 1_555
H24_2 C33_2 1_555 1_555
C34_2 C27_2 1_555 1_555
H25_2 C34_2 1_555 1_555
C35_2 C28_2 1_555 1_555
H26_2 C35_2 1_555 1_555
C36_2 N3 1_555 1_555
H27_2 C36_2 1_555 1_555
Cd7 O2_2 1_555 1_555
Cd8 N3 1_555 1_555
N9 Cd7 1_555 1_555
C33_2 C34_2 1_555 1_555
C35_2 C36_2 1_555 1_555
Cd8 O3_2 1_555 1_555
O1_2 C1_2 1_555 1_555
O3_2 C1_2 1_555 1_555
O5_2 C22_2 1_555 1_555
O8_2 Cd8 1_555 1_555
H1_2 O8_2 1_555 1_555
H2_2 O8_2 1_555 1_555
N1_2 Cd8 1_555 1_555
H9_2 C10_2 1_555 1_555
H10_2 C10_2 1_555 1_555
C14_2 C11_2 1_555 1_555
H13_2 C14_2 1_555 1_555
C16_2 C14_2 1_555 1_555
C19_2 C16_2 1_555 1_555
H14_2 C19_2 1_555 1_555
C22_2 C16_2 1_555 1_555
C40_2 H29_2 1_555 1_555
C42_2 N5_2 1_555 1_555
H31_2 C42_2 1_555 1_555
C48_2 N5_2 1_555 1_555
C51_2 C53_2 1_555 1_555
C53_2 C40_2 1_555 1_555
C57_2 C48_2 1_555 1_555
C59_2 C51_2 1_555 1_555
H41_2 C59_2 1_555 1_555
C60_2 C51_2 1_555 1_555
C61_2 C59_2 1_555 1_555
H43_2 C61_2 1_555 1_555
C62_2 C60_2 1_555 1_555
N9 C61_2 1_555 1_555
O16_2 Cd8 1_555 1_555
H45_2 O16_2 1_555 1_555
H46_2 O16_2 1_555 1_555
C18_2 C19_2 1_555 1_555
C40_2 C42_2 1_555 1_555
C53_2 C57_2 1_555 1_555
C62_2 N9 1_555 1_555
O20 C20_2 1_555 1_555
C2_2 C3_2 1_555 1_555
C3_2 H3_2 1_555 1_555
C5_2 C3_2 1_555 1_555
H5_2 C5_2 1_555 1_555
C7_2 C5_2 1_555 1_555
H7_2 C7_2 1_555 1_555
C8_2 C7_2 1_555 1_555
H8_2 C8_2 1_555 1_555
C9_2 C2_2 1_555 1_555
H12_2 C13_2 1_555 1_555
C8_2 C9_2 1_555 1_555

#END
