
###############################################################################
#
# This file contains modified crystal structure data generated from the
# MOF subset of the Cambridge Structural Database (CSD) v543 
# hosted by the Cambridge Crystallographic Data Centre (CCDC).
#
# This work is licensed under the Creative Commons
# Attribution-NonCommercial-ShareAlike 4.0 International License.
# To view a copy of this license, visit
# http://creativecommons.org/licenses/by-nc-sa/4.0/
# or send a letter to
# Creative Commons, PO Box 1866, Mountain View, CA 94042, USA.
#
# CIF created using the CSD Python API on 29 September 2022
# The structure has been converted into the P1 space group
# The structure has a 3D framework
# The original CSD entry LAVTEJ is in the tetragonal crystal system
# The original CSD entry LAVTEJ is in a Sohncke space group
# The framework has been calculated to contain at least 10.0% void space
# The void calculation uses a probe of radius 1.32A, grid spacing 0.4
# H atom positions have been added when not included in the experimental data
# Generated hydrogen atom positions removed from atoms on special positions
#
###############################################################################

data_LAVTEJ
_chemical_formula_moiety         '(C54 H34 Dy4 O28)n'
_symmetry_cell_setting           triclinic
_symmetry_space_group_name_H-M   'P 1'
_symmetry_Int_Tables_number      1
_space_group_name_Hall           'P 1'
loop_
_symmetry_equiv_pos_site_id
_symmetry_equiv_pos_as_xyz
1 x,y,z
_cell_length_a                   10.3200(15)
_cell_length_b                   10.3200(15)
_cell_length_c                   14.500(3)
_cell_angle_alpha                90
_cell_angle_beta                 90
_cell_angle_gamma                90
_cell_volume                     1544.28
loop_
_atom_site_label
_atom_site_type_symbol
_atom_site_fract_x
_atom_site_fract_y
_atom_site_fract_z
Dy2 Dy 0.14787(2) 0.14787(2) 0.1250
C1 C 0.0431(6) 0.6042(5) 0.0773(4)
H1 H 0.0715 0.5589 0.1289
C2 C 0.0000 0.5373(7) 0.0000
C3 C -0.0000 0.3896(8) 0.0000
O1 O 0.0952(5) 0.7564(5) 0.2357(3)
C4 C 0.0436(6) 0.7391(5) 0.0771(3)
C5 C 0.0870(6) 0.8146(6) 0.1611(4)
O2 O 0.0709(5) 0.3364(4) 0.0584(3)
O3 O 0.1096(5) 0.9307(4) 0.1514(3)
C6 C -0.0000 0.8070(8) 0.0000
H2 H 0.0000 0.8971 0.0000
O4 O 0.3125(5) 0.3125(5) 0.1250
Dy6 Dy 0.14787(2) 0.85213(2) 0.3750
O7 O 0.0952(5) 0.2436(5) 0.2643(3)
O9 O 0.3364(4) 0.0709(5) 0.1916(3)
C2_2 C 0.0000 0.5373(7) 1.0000
C3_2 C -0.0000 0.3896(8) 1.0000
C6_2 C 0.0000 0.8070(8) 1.0000
H2_2 H 0.0000 0.8971 1.0000
O6 O 0.2436(5) 0.0952(5) 0.9857(3)
Dy5 Dy 0.85213(2) 0.14787(2) 0.8750
C2_3 C 1.0000 0.5373(7) 0.0000
C3_3 C 1.0000 0.3896(8) 0.0000
C6_3 C 1.0000 0.8070(8) 0.0000
H2_3 H 1.0000 0.8971 0.0000
O12 O 0.9307(4) 0.1096(5) 0.0986(3)
C2_4 C 1.0000 0.5373(7) 1.0000
C3_4 C 1.0000 0.3896(8) 1.0000
C6_4 C 1.0000 0.8070(8) 1.0000
H2_4 H 1.0000 0.8971 1.0000
Dy3 Dy 0.85213(2) 0.85213(2) 0.6250
C7 C 0.9569(6) 0.6042(5) 0.9227(4)
H3 H 0.9285 0.5589 0.8711
O5 O 0.9048(5) 0.7564(5) 0.7643(3)
C8 C 0.9564(6) 0.7391(5) 0.9229(3)
C9 C 0.9130(6) 0.8146(6) 0.8389(4)
O8 O 0.9291(5) 0.3364(4) 0.9416(3)
O10 O 0.8904(5) 0.9307(4) 0.8486(3)
C2_5 C -0.0000 0.4627(7) 0.5000
C3_5 C 0.0000 0.6104(8) 0.5000
C6_5 C 0.0000 0.1930(8) 0.5000
H2_5 H -0.0000 0.1029 0.5000
C7_2 C 0.0431(6) 0.3958(5) 0.4227(4)
H3_2 H 0.0715 0.4411 0.3711
C8_2 C 0.0436(6) 0.2609(5) 0.4229(3)
C9_2 C 0.0870(6) 0.1854(6) 0.3389(4)
O8_2 O 0.0709(5) 0.6636(4) 0.4416(3)
O10_2 O 0.1096(5) 0.0693(4) 0.3486(3)
O12_2 O 0.0693(4) 0.8904(5) 0.5986(3)
O11 O 0.8904(5) 0.0693(4) 0.6514(3)
C1_2 C 0.9569(6) 0.3958(5) 0.5773(4)
H1_2 H 0.9285 0.4411 0.6289
C2_6 C 1.0000 0.4627(7) 0.5000
C3_6 C 1.0000 0.6104(8) 0.5000
O1_2 O 0.9048(5) 0.2436(5) 0.7357(3)
C4_2 C 0.9564(6) 0.2609(5) 0.5771(3)
C5_2 C 0.9130(6) 0.1854(6) 0.6611(4)
O2_2 O 0.9291(5) 0.6636(4) 0.5584(3)
C6_6 C 1.0000 0.1930(8) 0.5000
H2_6 H 1.0000 0.1029 0.5000
O4_2 O 0.6875(5) 0.6875(5) 0.6250
O6_2 O 0.7564(5) 0.9048(5) 0.4857(3)
O9_2 O 0.6636(4) 0.9291(5) 0.6916(3)
O11_2 O 0.0693(4) 0.1096(5) 0.9014(3)
O7_2 O 0.7564(5) 0.0952(5) 0.0143(3)
C1_3 C 0.3958(5) 0.0431(6) 0.8273(4)
H1_3 H 0.4411 0.0715 0.8789
C2_7 C 0.4627(7) 0.0000 0.7500
C3_7 C 0.6104(8) 0.0000 0.7500
C4_3 C 0.2609(5) 0.0436(6) 0.8271(3)
C5_3 C 0.1854(6) 0.0870(6) 0.9111(4)
O2_3 O 0.6636(4) 0.0709(5) 0.8084(3)
C6_7 C 0.1930(8) 0.0000 0.7500
H2_7 H 0.1029 0.0000 0.7500
O4_3 O 0.6875(5) 0.3125(5) 0.8750
C2_8 C 0.4627(7) 1.0000 0.7500
C3_8 C 0.6104(8) 1.0000 0.7500
C6_8 C 0.1930(8) 1.0000 0.7500
H2_8 H 0.1029 1.0000 0.7500
C7_3 C 0.3958(5) 0.9569(6) 0.6727(4)
H3_3 H 0.4411 0.9285 0.6211
O5_2 O 0.2436(5) 0.9048(5) 0.5143(3)
C8_3 C 0.2609(5) 0.9564(6) 0.6729(3)
C9_3 C 0.1854(6) 0.9130(6) 0.5889(4)
C2_9 C 0.5373(7) 0.0000 0.2500
C3_9 C 0.3896(8) 0.0000 0.2500
C6_9 C 0.8070(8) 0.0000 0.2500
H2_9 H 0.8971 -0.0000 0.2500
C7_4 C 0.6042(5) 0.0431(6) 0.1727(4)
H3_4 H 0.5589 0.0715 0.1211
C8_4 C 0.7391(5) 0.0436(6) 0.1729(3)
C9_4 C 0.8146(6) 0.0870(6) 0.0889(4)
C1_4 C 0.6042(5) 0.9569(6) 0.3273(4)
H1_4 H 0.5589 0.9285 0.3789
C2_10 C 0.5373(7) 1.0000 0.2500
C3_10 C 0.3896(8) 1.0000 0.2500
C4_4 C 0.7391(5) 0.9564(6) 0.3271(3)
C5_4 C 0.8146(6) 0.9130(6) 0.4111(4)
O2_4 O 0.3364(4) 0.9291(5) 0.3084(3)
O3_2 O 0.9307(4) 0.8904(5) 0.4014(3)
C6_10 C 0.8070(8) 1.0000 0.2500
H2_10 H 0.8971 1.0000 0.2500
O4_4 O 0.3125(5) 0.6875(5) 0.3750
loop_
_geom_bond_atom_site_label_1
_geom_bond_atom_site_label_2
_geom_bond_site_symmetry_1
_geom_bond_site_symmetry_2
Dy2 O2 1_555 1_555
C1 H1 1_555 1_555
C2 C1 1_555 1_555
C3 C2 1_555 1_555
O1 C5 1_555 1_555
C4 C1 1_555 1_555
C5 C4 1_555 1_555
O2 C3 1_555 1_555
O3 C5 1_555 1_555
C6 C4 1_555 1_555
H2 C6 1_555 1_555
O4 Dy2 1_555 1_555
Dy6 O1 1_555 1_555
O7 Dy2 1_555 1_555
O9 Dy2 1_555 1_555
C3_2 C2_2 1_555 1_555
H2_2 C6_2 1_555 1_555
C3_3 C2_3 1_555 1_555
H2_3 C6_3 1_555 1_555
C3_4 C2_4 1_555 1_555
H2_4 C6_4 1_555 1_555
Dy3 O5 1_555 1_555
Dy5 O8 1_555 1_555
C7 C2_4 1_555 1_555
H3 C7 1_555 1_555
O5 C9 1_555 1_555
C8 C6_4 1_555 1_555
C9 C8 1_555 1_555
O8 C3_4 1_555 1_555
O10 C9 1_555 1_555
C7 C8 1_555 1_555
C3_5 C2_5 1_555 1_555
H2_5 C6_5 1_555 1_555
Dy6 O8_2 1_555 1_555
C7_2 C2_5 1_555 1_555
H3_2 C7_2 1_555 1_555
O7 C9_2 1_555 1_555
C8_2 C6_5 1_555 1_555
C9_2 C8_2 1_555 1_555
O8_2 C3_5 1_555 1_555
O10_2 C9_2 1_555 1_555
C7_2 C8_2 1_555 1_555
Dy3 O2_2 1_555 1_555
C1_2 H1_2 1_555 1_555
C2_6 C1_2 1_555 1_555
C3_6 C2_6 1_555 1_555
O1_2 C5_2 1_555 1_555
C4_2 C1_2 1_555 1_555
C5_2 C4_2 1_555 1_555
O2_2 C3_6 1_555 1_555
O11 C5_2 1_555 1_555
C6_6 C4_2 1_555 1_555
H2_6 C6_6 1_555 1_555
O4_2 Dy3 1_555 1_555
Dy5 O1_2 1_555 1_555
O6_2 Dy3 1_555 1_555
O9_2 Dy3 1_555 1_555
Dy5 O2_3 1_555 1_555
C1_3 H1_3 1_555 1_555
C2_7 C1_3 1_555 1_555
C3_7 C2_7 1_555 1_555
O6 C5_3 1_555 1_555
C4_3 C1_3 1_555 1_555
C5_3 C4_3 1_555 1_555
O2_3 C3_7 1_555 1_555
O11_2 C5_3 1_555 1_555
C6_7 C4_3 1_555 1_555
H2_7 C6_7 1_555 1_555
O4_3 Dy5 1_555 1_555
C3_8 C2_8 1_555 1_555
H2_8 C6_8 1_555 1_555
Dy6 O5_2 1_555 1_555
C7_3 C2_8 1_555 1_555
H3_3 C7_3 1_555 1_555
O5_2 C9_3 1_555 1_555
C8_3 C6_8 1_555 1_555
C9_3 C8_3 1_555 1_555
O9_2 C3_8 1_555 1_555
O12_2 C9_3 1_555 1_555
C7_3 C8_3 1_555 1_555
C3_9 C2_9 1_555 1_555
H2_9 C6_9 1_555 1_555
C7_4 C2_9 1_555 1_555
H3_4 C7_4 1_555 1_555
O7_2 C9_4 1_555 1_555
C8_4 C6_9 1_555 1_555
C9_4 C8_4 1_555 1_555
O9 C3_9 1_555 1_555
O12 C9_4 1_555 1_555
C7_4 C8_4 1_555 1_555
Dy6 O2_4 1_555 1_555
C1_4 H1_4 1_555 1_555
C2_10 C1_4 1_555 1_555
C3_10 C2_10 1_555 1_555
O6_2 C5_4 1_555 1_555
C4_4 C1_4 1_555 1_555
C5_4 C4_4 1_555 1_555
O2_4 C3_10 1_555 1_555
O3_2 C5_4 1_555 1_555
C6_10 C4_4 1_555 1_555
H2_10 C6_10 1_555 1_555
O4_4 Dy6 1_555 1_555

#END
