
###############################################################################
#
# This file contains modified crystal structure data generated from the
# MOF subset of the Cambridge Structural Database (CSD) v543 
# hosted by the Cambridge Crystallographic Data Centre (CCDC).
#
# This work is licensed under the Creative Commons
# Attribution-NonCommercial-ShareAlike 4.0 International License.
# To view a copy of this license, visit
# http://creativecommons.org/licenses/by-nc-sa/4.0/
# or send a letter to
# Creative Commons, PO Box 1866, Mountain View, CA 94042, USA.
#
# CIF created using the CSD Python API on 29 September 2022
# The structure has been converted into the P1 space group
# The structure has a 3D framework
# The original CSD entry LAVTIN is in the tetragonal crystal system
# The original CSD entry LAVTIN is in a Sohncke space group
# The framework has been calculated to contain at least 10.0% void space
# The void calculation uses a probe of radius 1.32A, grid spacing 0.4
# H atom positions have been added when not included in the experimental data
# Generated hydrogen atom positions removed from atoms on special positions
#
###############################################################################

data_LAVTIN
_chemical_formula_moiety         '(C39 H29 Er4 O28)n'
_symmetry_cell_setting           triclinic
_symmetry_space_group_name_H-M   'P 1'
_symmetry_Int_Tables_number      1
_space_group_name_Hall           'P 1'
loop_
_symmetry_equiv_pos_site_id
_symmetry_equiv_pos_as_xyz
1 x,y,z
_cell_length_a                   10.2700(15)
_cell_length_b                   10.2700(15)
_cell_length_c                   14.460(3)
_cell_angle_alpha                90
_cell_angle_beta                 90
_cell_angle_gamma                90
_cell_volume                     1525.14
loop_
_atom_site_label
_atom_site_type_symbol
_atom_site_fract_x
_atom_site_fract_y
_atom_site_fract_z
Er1 Er 0.648672(19) 0.351328(19) 0.1250
O1 O 0.5723(5) 0.1639(4) 0.0580(3)
O2 O 0.8123(4) 0.1877(4) 0.1250
C4 C 0.5000 0.1103(7) 0.0000
O6 O 0.8361(4) 0.4277(5) 0.1920(3)
O8 O 0.6114(5) 0.5669(4) 0.1501(3)
O9 O 0.4331(4) 0.3886(5) 0.0999(3)
O12 O 0.5959(4) 0.2583(4) 0.2633(2)
C4_2 C 0.5000 0.1103(7) 1.0000
Er6 Er 0.351328(19) 0.351328(19) 0.8750
O5 O 0.4277(5) 0.1639(4) 0.9420(3)
O11 O 0.7417(4) 0.4041(4) 0.9867(2)
O4 O 0.5959(4) 0.7417(4) 0.2367(2)
C1 C 0.5878(5) 0.6834(5) 0.1607(4)
C2 C 0.5446(6) 0.8954(5) 0.0772(3)
H1 H 0.5751 0.9408 0.1284
C3 C 0.5432(6) 0.7600(5) 0.0773(3)
C5 C 0.5000 0.9626(7) 0.0000
C6 C 0.5000 0.6913(8) 0.0000
H2 H 0.5000 0.6008 0.0000
Er4 Er 0.648672(19) 0.648672(19) 0.3750
C5_2 C 0.5000 0.9626(7) 1.0000
C6_2 C 0.5000 0.6913(8) 1.0000
H2_2 H 0.5000 0.6008 1.0000
Er3 Er 0.351328(19) 0.648672(19) 0.6250
O7 O 0.3886(5) 0.5669(4) 0.8499(3)
O10 O 0.4041(4) 0.7417(4) 0.7633(2)
C7 C 0.4122(5) 0.6834(5) 0.8393(4)
C8 C 0.4554(6) 0.8954(5) 0.9228(3)
H3 H 0.4249 0.9408 0.8716
C9 C 0.4568(6) 0.7600(5) 0.9227(3)
O3 O 0.3886(5) 0.4331(4) 0.6501(3)
O4_2 O 0.4041(4) 0.2583(4) 0.7367(2)
C1_2 C 0.4122(5) 0.3166(5) 0.6607(4)
C2_2 C 0.4554(6) 0.1046(5) 0.5772(3)
H1_2 H 0.4249 0.0592 0.6284
C3_2 C 0.4568(6) 0.2400(5) 0.5773(3)
C5_3 C 0.5000 0.0374(7) 0.5000
C6_3 C 0.5000 0.3087(8) 0.5000
H2_3 H 0.5000 0.3992 0.5000
O7_2 O 0.6114(5) 0.4331(4) 0.3499(3)
C7_2 C 0.5878(5) 0.3166(5) 0.3393(4)
C8_2 C 0.5446(6) 0.1046(5) 0.4228(3)
H3_2 H 0.5751 0.0592 0.3716
C9_2 C 0.5432(6) 0.2400(5) 0.4227(3)
O1_2 O 0.4277(5) 0.8361(4) 0.5580(3)
O2_2 O 0.1877(4) 0.8123(4) 0.6250
C4_3 C 0.5000 0.8897(7) 0.5000
O5_2 O 0.5723(5) 0.8361(4) 0.4420(3)
O6_2 O 0.1639(4) 0.5723(5) 0.6920(3)
O9_2 O 0.5669(4) 0.6114(5) 0.5999(3)
O11_2 O 0.2583(4) 0.5959(4) 0.4867(2)
O3_2 O 0.4331(4) 0.6114(5) 0.4001(3)
C1_3 C 0.3166(5) 0.5878(5) 0.4107(4)
C2_3 C 0.1046(5) 0.5446(6) 0.3272(3)
H1_3 H 0.0592 0.5751 0.3784
C3_3 C 0.2400(5) 0.5432(6) 0.3273(3)
C5_4 C 0.0374(7) 0.5000 0.2500
C6_4 C 0.3087(8) 0.5000 0.2500
H2_4 H 0.3992 0.5000 0.2500
O10_2 O 0.2583(4) 0.4041(4) 0.0133(2)
C7_3 C 0.3166(5) 0.4122(5) 0.0893(4)
C8_3 C 0.1046(5) 0.4554(6) 0.1728(3)
H3_3 H 0.0592 0.4249 0.1216
C9_3 C 0.2400(5) 0.4568(6) 0.1727(3)
O1_3 O 0.8361(4) 0.5723(5) 0.3080(3)
O2_3 O 0.8123(4) 0.8123(4) 0.3750
C4_4 C 0.8897(7) 0.5000 0.2500
O12_2 O 0.7417(4) 0.5959(4) 0.5133(2)
O1_4 O 0.1639(4) 0.4277(5) 0.8080(3)
O2_4 O 0.1877(4) 0.1877(4) 0.8750
C4_5 C 0.1103(7) 0.5000 0.7500
O8_2 O 0.5669(4) 0.3886(5) 0.9001(3)
C1_4 C 0.6834(5) 0.4122(5) 0.9107(4)
C2_4 C 0.8954(5) 0.4554(6) 0.8272(3)
H1_4 H 0.9408 0.4249 0.8784
C3_4 C 0.7600(5) 0.4568(6) 0.8273(3)
C5_5 C 0.9626(7) 0.5000 0.7500
C6_5 C 0.6913(8) 0.5000 0.7500
H2_5 H 0.6008 0.5000 0.7500
C7_4 C 0.6834(5) 0.5878(5) 0.5893(4)
C8_4 C 0.8954(5) 0.5446(6) 0.6728(3)
H3_4 H 0.9408 0.5751 0.6216
C9_4 C 0.7600(5) 0.5432(6) 0.6727(3)
loop_
_geom_bond_atom_site_label_1
_geom_bond_atom_site_label_2
_geom_bond_site_symmetry_1
_geom_bond_site_symmetry_2
Er1 O1 1_555 1_555
O1 C4 1_555 1_555
O2 Er1 1_555 1_555
O6 Er1 1_555 1_555
O8 Er1 1_555 1_555
O9 Er1 1_555 1_555
O12 Er1 1_555 1_555
Er6 O5 1_555 1_555
O5 C4_2 1_555 1_555
O8 C1 1_555 1_555
O4 C1 1_555 1_555
C1 C3 1_555 1_555
C2 H1 1_555 1_555
C3 C2 1_555 1_555
C5 C2 1_555 1_555
C6 C3 1_555 1_555
H2 C6 1_555 1_555
Er4 O4 1_555 1_555
H2_2 C6_2 1_555 1_555
Er3 O10 1_555 1_555
Er6 O7 1_555 1_555
O7 C7 1_555 1_555
O10 C7 1_555 1_555
C7 C9 1_555 1_555
C8 C5_2 1_555 1_555
H3 C8 1_555 1_555
C9 C6_2 1_555 1_555
C8 C9 1_555 1_555
O3 C1_2 1_555 1_555
O4_2 C1_2 1_555 1_555
C1_2 C3_2 1_555 1_555
C2_2 H1_2 1_555 1_555
C3_2 C2_2 1_555 1_555
C5_3 C2_2 1_555 1_555
C6_3 C3_2 1_555 1_555
H2_3 C6_3 1_555 1_555
Er3 O3 1_555 1_555
Er6 O4_2 1_555 1_555
Er4 O7_2 1_555 1_555
O7_2 C7_2 1_555 1_555
O12 C7_2 1_555 1_555
C7_2 C9_2 1_555 1_555
C8_2 C5_3 1_555 1_555
H3_2 C8_2 1_555 1_555
C9_2 C6_3 1_555 1_555
C8_2 C9_2 1_555 1_555
Er3 O1_2 1_555 1_555
O1_2 C4_3 1_555 1_555
O2_2 Er3 1_555 1_555
Er4 O5_2 1_555 1_555
O5_2 C4_3 1_555 1_555
O6_2 Er3 1_555 1_555
O9_2 Er3 1_555 1_555
O11_2 Er3 1_555 1_555
O3_2 C1_3 1_555 1_555
O11_2 C1_3 1_555 1_555
C1_3 C3_3 1_555 1_555
C2_3 H1_3 1_555 1_555
C3_3 C2_3 1_555 1_555
C5_4 C2_3 1_555 1_555
C6_4 C3_3 1_555 1_555
H2_4 C6_4 1_555 1_555
Er4 O3_2 1_555 1_555
O9 C7_3 1_555 1_555
O10_2 C7_3 1_555 1_555
C7_3 C9_3 1_555 1_555
C8_3 C5_4 1_555 1_555
H3_3 C8_3 1_555 1_555
C9_3 C6_4 1_555 1_555
C8_3 C9_3 1_555 1_555
Er4 O1_3 1_555 1_555
O1_3 C4_4 1_555 1_555
O2_3 Er4 1_555 1_555
O6 C4_4 1_555 1_555
O12_2 Er4 1_555 1_555
Er6 O1_4 1_555 1_555
O1_4 C4_5 1_555 1_555
O2_4 Er6 1_555 1_555
O6_2 C4_5 1_555 1_555
O8_2 Er6 1_555 1_555
O8_2 C1_4 1_555 1_555
O11 C1_4 1_555 1_555
C1_4 C3_4 1_555 1_555
C2_4 H1_4 1_555 1_555
C3_4 C2_4 1_555 1_555
C5_5 C2_4 1_555 1_555
C6_5 C3_4 1_555 1_555
H2_5 C6_5 1_555 1_555
O9_2 C7_4 1_555 1_555
O12_2 C7_4 1_555 1_555
C7_4 C9_4 1_555 1_555
C8_4 C5_5 1_555 1_555
H3_4 C8_4 1_555 1_555
C9_4 C6_5 1_555 1_555
C8_4 C9_4 1_555 1_555

#END
