
###############################################################################
#
# This file contains modified crystal structure data generated from the
# MOF subset of the Cambridge Structural Database (CSD) v543 
# hosted by the Cambridge Crystallographic Data Centre (CCDC).
#
# This work is licensed under the Creative Commons
# Attribution-NonCommercial-ShareAlike 4.0 International License.
# To view a copy of this license, visit
# http://creativecommons.org/licenses/by-nc-sa/4.0/
# or send a letter to
# Creative Commons, PO Box 1866, Mountain View, CA 94042, USA.
#
# CIF created using the CSD Python API on 29 September 2022
# The structure has been converted into the P1 space group
# The structure has a 3D framework
# The original CSD entry LAVYIT is in the orthorhombic crystal system
# The framework has been calculated to contain at least 10.0% void space
# The void calculation uses a probe of radius 1.32A, grid spacing 0.4
# The framework is charged, counterions have been retained in the structure
#
###############################################################################

data_LAVYIT
_chemical_formula_moiety         '(C112 H96 Ag6 N36 O36 4-)n'
_symmetry_cell_setting           triclinic
_symmetry_space_group_name_H-M   'P 1'
_symmetry_Int_Tables_number      1
_space_group_name_Hall           'P 1'
loop_
_symmetry_equiv_pos_site_id
_symmetry_equiv_pos_as_xyz
1 x,y,z
_cell_length_a                   10.730(2)
_cell_length_b                   15.741(3)
_cell_length_c                   21.884(4)
_cell_angle_alpha                90
_cell_angle_beta                 90
_cell_angle_gamma                90
_cell_volume                     3696.23
loop_
_atom_site_label
_atom_site_type_symbol
_atom_site_fract_x
_atom_site_fract_y
_atom_site_fract_z
Ag1 Ag 0.000000 0.18594(6) 0.250000
N8 N 0.1223(4) 0.1923(3) 0.1749(2)
N3 N 0.3431(3) 0.2135(2) 0.01812(14)
C1 C 0.2593(4) 0.2737(3) 0.1118(2)
H1 H 0.301628 0.325774 0.104677
C2 C 0.1856(5) 0.2647(3) 0.1623(2)
H2 H 0.178429 0.311152 0.189701
C3 C 0.1344(4) 0.1272(4) 0.1359(2)
H3 H 0.090609 0.076065 0.144372
C4 C 0.2068(4) 0.1306(3) 0.0844(2)
H4 H 0.212621 0.082633 0.058139
C5 C 0.2727(4) 0.2059(3) 0.07045(18)
C6 C 0.4317(4) 0.2788(3) 0.01123(18)
C9 C 0.5997(4) 0.3636(3) 0.0489(2)
H7 H 0.654270 0.378294 0.081438
C10 C 0.5144(4) 0.2992(3) 0.0584(2)
H8 H 0.511956 0.269378 0.096100
C14 C 0.4939(3) 0.0664(3) 0.04147(17)
H12 H 0.489599 0.111772 0.070056
Ag1_2 Ag 1.000000 0.18594(6) 0.250000
Ag2 Ag 0.250000 0.500000 0.51496(3)
N1 N 0.8777(4) 0.1923(3) 0.3251(2)
N2 N 0.3908(4) 0.4066(3) 0.5040(2)
N3_2 N 0.6569(3) 0.2135(2) 0.48188(14)
C1_2 C 0.7407(4) 0.2737(3) 0.3882(2)
H1_2 H 0.698372 0.325774 0.395323
C2_2 C 0.8144(5) 0.2647(3) 0.3377(2)
H2_2 H 0.821571 0.311152 0.310299
C3_2 C 0.8656(4) 0.1272(4) 0.3641(2)
H3_2 H 0.909391 0.076065 0.355628
C4_2 C 0.7932(4) 0.1306(3) 0.4156(2)
H4_2 H 0.787379 0.082633 0.441861
C5_2 C 0.7273(4) 0.2059(3) 0.42955(18)
C6_2 C 0.5683(4) 0.2788(3) 0.48877(18)
C7 C 0.5590(4) 0.3230(3) 0.5437(2)
H5 H 0.612723 0.309885 0.576884
C8 C 0.4709(4) 0.3858(3) 0.5491(2)
H6 H 0.466117 0.416219 0.586557
C9_2 C 0.4003(4) 0.3636(3) 0.4511(2)
H7_2 H 0.345730 0.378294 0.418562
C10_2 C 0.4856(4) 0.2992(3) 0.4416(2)
H8_2 H 0.488044 0.269378 0.403900
C11 C 0.6596(4) 0.1454(3) 0.52799(18)
H9 H 0.632513 0.168997 0.567764
H10 H 0.746406 0.125195 0.532735
C12 C 0.5768(4) 0.0701(3) 0.51204(17)
C13 C 0.5708(4) 0.0031(3) 0.55335(17)
H11 H 0.619023 0.004709 0.589722
C14_2 C 0.5061(3) 0.0664(3) 0.45853(17)
H12_2 H 0.510401 0.111772 0.429944
N4 N 0.250000 0.500000 0.6581(5)
O1 O 0.3347(6) 0.5336(7) 0.6281(5)
O2 O 0.250000 0.500000 0.7148(5)
O3 O 0.1653(6) 0.4664(7) 0.6281(5)
N9 N 0.1092(4) 0.5934(3) 0.5040(2)
C8_2 C 0.0291(4) 0.6142(3) 0.5491(2)
H6_2 H 0.033883 0.583781 0.586557
C9_3 C 0.0997(4) 0.6364(3) 0.4511(2)
H7_3 H 0.154270 0.621706 0.418562
C10_3 C 0.0144(4) 0.7008(3) 0.4416(2)
H8_3 H 0.011956 0.730622 0.403900
N5 N 0.1223(4) 0.8077(3) 0.6749(2)
N6 N 0.6092(4) 0.5934(3) 0.4960(2)
N7 N 0.3431(3) 0.7865(2) 0.51812(14)
C15 C 0.2593(4) 0.7263(3) 0.6118(2)
H13 H 0.301628 0.674226 0.604677
C16 C 0.1856(5) 0.7353(3) 0.6623(2)
H14 H 0.178429 0.688848 0.689701
C17 C 0.1344(4) 0.8728(4) 0.6359(2)
H15 H 0.090609 0.923935 0.644372
C18 C 0.2068(4) 0.8694(3) 0.5844(2)
H16 H 0.212621 0.917367 0.558139
C19 C 0.2727(4) 0.7941(3) 0.57045(18)
C20 C 0.4317(4) 0.7212(3) 0.51123(18)
C21 C 0.4410(4) 0.6770(3) 0.4563(2)
H17 H 0.387277 0.690115 0.423116
C22 C 0.5291(4) 0.6142(3) 0.4509(2)
H18 H 0.533883 0.583781 0.413443
C23 C 0.5997(4) 0.6364(3) 0.5489(2)
H19 H 0.654270 0.621706 0.581438
C24 C 0.5144(4) 0.7008(3) 0.5584(2)
H20 H 0.511956 0.730622 0.596100
C25 C 0.3404(4) 0.8546(3) 0.47201(18)
H21 H 0.367487 0.831003 0.432236
H22 H 0.253594 0.874805 0.467265
C26 C 0.4232(4) 0.9299(3) 0.48796(17)
C27 C 0.4292(4) 0.9969(3) 0.44665(17)
H23 H 0.380977 0.995291 0.410278
C28 C 0.4939(3) 0.9336(3) 0.54147(17)
H24 H 0.489599 0.888228 0.570056
Ag3 Ag -0.000000 0.81406(6) 0.750000
Ag4 Ag 0.750000 0.500000 0.48504(3)
N6_2 N 0.8908(4) 0.4066(3) 0.4960(2)
C22_2 C 0.9709(4) 0.3858(3) 0.4509(2)
H18_2 H 0.966117 0.416219 0.413443
C23_2 C 0.9003(4) 0.3636(3) 0.5489(2)
H19_2 H 0.845730 0.378294 0.581438
C24_2 C 0.9856(4) 0.2992(3) 0.5584(2)
H20_2 H 0.988044 0.269378 0.596100
N4_2 N 0.750000 0.500000 0.3419(5)
O1_2 O 0.6653(6) 0.4664(7) 0.3719(5)
O2_2 O 0.750000 0.500000 0.2852(5)
O3_2 O 0.8347(6) 0.5336(7) 0.3719(5)
Ag3_2 Ag 1.000000 0.81406(6) 0.750000
N5_2 N 0.8777(4) 0.8077(3) 0.8251(2)
N7_2 N 0.6569(3) 0.7865(2) 0.98188(14)
C15_2 C 0.7407(4) 0.7263(3) 0.8882(2)
H13_2 H 0.698372 0.674226 0.895323
C16_2 C 0.8144(5) 0.7353(3) 0.8377(2)
H14_2 H 0.821571 0.688848 0.810299
C17_2 C 0.8656(4) 0.8728(4) 0.8641(2)
H15_2 H 0.909391 0.923935 0.855628
C18_2 C 0.7932(4) 0.8694(3) 0.9156(2)
H16_2 H 0.787379 0.917367 0.941861
C19_2 C 0.7273(4) 0.7941(3) 0.92955(18)
C20_2 C 0.5683(4) 0.7212(3) 0.98877(18)
C23_3 C 0.4003(4) 0.6364(3) 0.9511(2)
H19_3 H 0.345730 0.621706 0.918562
C24_3 C 0.4856(4) 0.7008(3) 0.9416(2)
H20_3 H 0.488044 0.730622 0.903900
C28_2 C 0.5061(3) 0.9336(3) 0.95853(17)
H24_2 H 0.510401 0.888228 0.929944
N5_3 N 0.3777(4) 0.1923(3) 0.6749(2)
N7_3 N 0.1569(3) 0.2135(2) 0.51812(14)
C15_3 C 0.2407(4) 0.2737(3) 0.6118(2)
H13_3 H 0.198372 0.325774 0.604677
C16_3 C 0.3144(5) 0.2647(3) 0.6623(2)
H14_3 H 0.321571 0.311152 0.689701
C17_3 C 0.3656(4) 0.1272(4) 0.6359(2)
H15_3 H 0.409391 0.076065 0.644372
C18_3 C 0.2932(4) 0.1306(3) 0.5844(2)
H16_3 H 0.287379 0.082633 0.558139
C19_3 C 0.2273(4) 0.2059(3) 0.57045(18)
C20_3 C 0.0683(4) 0.2788(3) 0.51123(18)
C21_2 C 0.0590(4) 0.3230(3) 0.4563(2)
H17_2 H 0.112723 0.309885 0.423116
C25_2 C 0.1596(4) 0.1454(3) 0.47201(18)
H21_2 H 0.132513 0.168997 0.432236
H22_2 H 0.246406 0.125195 0.467265
C26_2 C 0.0768(4) 0.0701(3) 0.48796(17)
C27_2 C 0.0708(4) 0.0031(3) 0.44665(17)
H23_2 H 0.119023 0.004709 0.410278
C28_3 C 0.0061(3) 0.0664(3) 0.54147(17)
H24_3 H 0.010401 0.111772 0.570056
Ag3_3 Ag 0.500000 0.18594(6) 0.750000
N5_4 N 0.6223(4) 0.1923(3) 0.8251(2)
N7_4 N 0.8431(3) 0.2135(2) 0.98188(14)
C15_4 C 0.7593(4) 0.2737(3) 0.8882(2)
H13_4 H 0.801628 0.325774 0.895323
C16_4 C 0.6856(5) 0.2647(3) 0.8377(2)
H14_4 H 0.678429 0.311152 0.810299
C17_4 C 0.6344(4) 0.1272(4) 0.8641(2)
H15_4 H 0.590609 0.076065 0.855628
C18_4 C 0.7068(4) 0.1306(3) 0.9156(2)
H16_4 H 0.712621 0.082633 0.941861
C19_4 C 0.7727(4) 0.2059(3) 0.92955(18)
C20_4 C 0.9317(4) 0.2788(3) 0.98877(18)
C28_4 C 0.9939(3) 0.0664(3) 0.95853(17)
H24_4 H 0.989599 0.111772 0.929944
Ag1_3 Ag 0.500000 0.81406(6) 0.250000
N1_2 N 0.6223(4) 0.8077(3) 0.3251(2)
N3_3 N 0.8431(3) 0.7865(2) 0.48188(14)
C1_3 C 0.7593(4) 0.7263(3) 0.3882(2)
H1_3 H 0.801628 0.674226 0.395323
C2_3 C 0.6856(5) 0.7353(3) 0.3377(2)
H2_3 H 0.678429 0.688848 0.310299
C3_3 C 0.6344(4) 0.8728(4) 0.3641(2)
H3_3 H 0.590609 0.923935 0.355628
C4_3 C 0.7068(4) 0.8694(3) 0.4156(2)
H4_3 H 0.712621 0.917367 0.441861
C5_3 C 0.7727(4) 0.7941(3) 0.42955(18)
C6_3 C 0.9317(4) 0.7212(3) 0.48877(18)
C7_2 C 0.9410(4) 0.6770(3) 0.5437(2)
H5_2 H 0.887277 0.690115 0.576884
C11_2 C 0.8404(4) 0.8546(3) 0.52799(18)
H9_2 H 0.867487 0.831003 0.567764
H10_2 H 0.753594 0.874805 0.532735
C12_2 C 0.9232(4) 0.9299(3) 0.51204(17)
C13_2 C 0.9292(4) 0.9969(3) 0.55335(17)
H11_2 H 0.880977 0.995291 0.589722
C14_3 C 0.9939(3) 0.9336(3) 0.45853(17)
H12_3 H 0.989599 0.888228 0.429944
N8_2 N 0.3777(4) 0.8077(3) 0.1749(2)
N3_4 N 0.1569(3) 0.7865(2) 0.01812(14)
C1_4 C 0.2407(4) 0.7263(3) 0.1118(2)
H1_4 H 0.198372 0.674226 0.104677
C2_4 C 0.3144(5) 0.7353(3) 0.1623(2)
H2_4 H 0.321571 0.688848 0.189701
C3_4 C 0.3656(4) 0.8728(4) 0.1359(2)
H3_4 H 0.409391 0.923935 0.144372
C4_4 C 0.2932(4) 0.8694(3) 0.0844(2)
H4_4 H 0.287379 0.917367 0.058139
C5_4 C 0.2273(4) 0.7941(3) 0.07045(18)
C6_4 C 0.0683(4) 0.7212(3) 0.01123(18)
C14_4 C 0.0061(3) 0.9336(3) 0.04147(17)
H12_4 H 0.010401 0.888228 0.070056
Ag2_2 Ag 0.750000 0.500000 0.98504(3)
N2_2 N 0.6092(4) 0.4066(3) 0.9960(2)
C7_3 C 0.4410(4) 0.3230(3) 0.9563(2)
H5_3 H 0.387277 0.309885 0.923116
C8_3 C 0.5291(4) 0.3858(3) 0.9509(2)
H6_3 H 0.533883 0.416219 0.913443
C11_3 C 0.3404(4) 0.1454(3) 0.97201(18)
H9_3 H 0.367487 0.168997 0.932236
H10_3 H 0.253594 0.125195 0.967265
C12_3 C 0.4232(4) 0.0701(3) 0.98796(17)
C13_3 C 0.4292(4) 0.0031(3) 0.94665(17)
H11_3 H 0.380977 0.004709 0.910278
N4_3 N 0.750000 0.500000 0.8419(5)
O1_3 O 0.6653(6) 0.5336(7) 0.8719(5)
O2_3 O 0.750000 0.500000 0.7852(5)
O3_3 O 0.8347(6) 0.4664(7) 0.8719(5)
N9_2 N 0.8908(4) 0.5934(3) 0.9960(2)
C8_4 C 0.9709(4) 0.6142(3) 0.9509(2)
H6_4 H 0.966117 0.583781 0.913443
N6_3 N 0.3908(4) 0.5934(3) 0.0040(2)
C21_3 C 0.5590(4) 0.6770(3) 0.0437(2)
H17_3 H 0.612723 0.690115 0.076884
C22_3 C 0.4709(4) 0.6142(3) 0.0491(2)
H18_3 H 0.466117 0.583781 0.086557
C25_3 C 0.6596(4) 0.8546(3) 0.02799(18)
H21_3 H 0.632513 0.831003 0.067764
H22_3 H 0.746406 0.874805 0.032735
C26_3 C 0.5768(4) 0.9299(3) 0.01204(17)
C27_3 C 0.5708(4) 0.9969(3) 0.05335(17)
H23_3 H 0.619023 0.995291 0.089722
Ag4_2 Ag 0.250000 0.500000 0.01496(3)
N6_4 N 0.1092(4) 0.4066(3) 0.0040(2)
C22_4 C 0.0291(4) 0.3858(3) 0.0491(2)
H18_4 H 0.033883 0.416219 0.086557
N4_4 N 0.250000 0.500000 0.1581(5)
O1_4 O 0.3347(6) 0.4664(7) 0.1281(5)
O2_4 O 0.250000 0.500000 0.2148(5)
O3_4 O 0.1653(6) 0.5336(7) 0.1281(5)
C23_4 C 0.0997(4) 0.3636(3) 0.9511(2)
H19_4 H 0.154270 0.378294 0.918562
C24_4 C 0.0144(4) 0.2992(3) 0.9416(2)
H20_4 H 0.011956 0.269378 0.903900
C7_4 C 0.0590(4) 0.6770(3) 0.9563(2)
H5_4 H 0.112723 0.690115 0.923116
C11_4 C 0.1596(4) 0.8546(3) 0.97201(18)
H9_4 H 0.132513 0.831003 0.932236
H10_4 H 0.246406 0.874805 0.967265
C12_4 C 0.0768(4) 0.9299(3) 0.98796(17)
C13_4 C 0.0708(4) 0.9969(3) 0.94665(17)
H11_4 H 0.119023 0.995291 0.910278
C21_4 C 0.9410(4) 0.3230(3) 0.0437(2)
H17_4 H 0.887277 0.309885 0.076884
C25_4 C 0.8404(4) 0.1454(3) 0.02799(18)
H21_4 H 0.867487 0.168997 0.067764
H22_4 H 0.753594 0.125195 0.032735
C26_4 C 0.9232(4) 0.0701(3) 0.01204(17)
C27_4 C 0.9292(4) 0.0031(3) 0.05335(17)
H23_4 H 0.880977 0.004709 0.089722
C9_4 C 0.9003(4) 0.6364(3) 0.0489(2)
H7_4 H 0.845730 0.621706 0.081438
C10_4 C 0.9856(4) 0.7008(3) 0.0584(2)
H8_4 H 0.988044 0.730622 0.096100
N10 N 0.7233(14) 0.1834(6) 0.1738(9)
O4 O 0.6116(15) 0.1756(19) 0.1872(15)
O5 O 0.7765(14) 0.1134(7) 0.1741(8)
O6 O 0.7522(12) 0.2595(7) 0.1709(7)
N10_2 N 0.7767(14) 0.8166(6) 0.1738(9)
O4_2 O 0.8884(15) 0.8244(19) 0.1872(15)
O5_2 O 0.7235(14) 0.8866(7) 0.1741(8)
O6_2 O 0.7478(12) 0.7405(7) 0.1709(7)
N10_3 N 0.2767(14) 0.1834(6) 0.3262(9)
O4_3 O 0.3884(15) 0.1756(19) 0.3128(15)
O5_3 O 0.2235(14) 0.1134(7) 0.3259(8)
O6_3 O 0.2478(12) 0.2595(7) 0.3291(7)
N10_4 N 0.2233(14) 0.8166(6) 0.3262(9)
O4_4 O 0.1116(15) 0.8244(19) 0.3128(15)
O5_4 O 0.2765(14) 0.8866(7) 0.3259(8)
O6_4 O 0.2522(12) 0.7405(7) 0.3291(7)
N10_5 N 0.2767(14) 0.8166(6) 0.8262(9)
O4_5 O 0.3884(15) 0.8244(19) 0.8128(15)
O5_5 O 0.2235(14) 0.8866(7) 0.8259(8)
O6_5 O 0.2478(12) 0.7405(7) 0.8291(7)
N10_6 N 0.2233(14) 0.1834(6) 0.8262(9)
O4_6 O 0.1116(15) 0.1756(19) 0.8128(15)
O5_6 O 0.2765(14) 0.1134(7) 0.8259(8)
O6_6 O 0.2522(12) 0.2595(7) 0.8291(7)
N10_7 N 0.7233(14) 0.8166(6) 0.6738(9)
O4_7 O 0.6116(15) 0.8244(19) 0.6872(15)
O5_7 O 0.7765(14) 0.8866(7) 0.6741(8)
O6_7 O 0.7522(12) 0.7405(7) 0.6709(7)
N10_8 N 0.7767(14) 0.1834(6) 0.6738(9)
O4_8 O 0.8884(15) 0.1756(19) 0.6872(15)
O5_8 O 0.7235(14) 0.1134(7) 0.6741(8)
O6_8 O 0.7478(12) 0.2595(7) 0.6709(7)
loop_
_geom_bond_atom_site_label_1
_geom_bond_atom_site_label_2
_geom_bond_site_symmetry_1
_geom_bond_site_symmetry_2
N8 Ag1 1_555 1_555
N8 C2 1_555 1_555
N3 C5 1_555 1_555
C1 H1 1_555 1_555
C2 C1 1_555 1_555
H2 C2 1_555 1_555
C3 N8 1_555 1_555
H3 C3 1_555 1_555
C4 C3 1_555 1_555
H4 C4 1_555 1_555
C5 C1 1_555 1_555
C6 N3 1_555 1_555
H7 C9 1_555 1_555
C10 C6 1_555 1_555
H8 C10 1_555 1_555
H12 C14 1_555 1_555
C4 C5 1_555 1_555
C9 C10 1_555 1_555
Ag1_2 N1 1_555 1_555
Ag2 N2 1_555 1_555
N1 C2_2 1_555 1_555
N2 C8 1_555 1_555
N3_2 C5_2 1_555 1_555
C1_2 H1_2 1_555 1_555
C2_2 C1_2 1_555 1_555
H2_2 C2_2 1_555 1_555
C3_2 N1 1_555 1_555
H3_2 C3_2 1_555 1_555
C4_2 C3_2 1_555 1_555
H4_2 C4_2 1_555 1_555
C5_2 C1_2 1_555 1_555
C6_2 N3_2 1_555 1_555
C7 C6_2 1_555 1_555
H5 C7 1_555 1_555
C8 C7 1_555 1_555
H6 C8 1_555 1_555
C9_2 N2 1_555 1_555
H7_2 C9_2 1_555 1_555
C10_2 C6_2 1_555 1_555
H8_2 C10_2 1_555 1_555
C11 N3_2 1_555 1_555
H9 C11 1_555 1_555
H10 C11 1_555 1_555
C12 C11 1_555 1_555
C13 C12 1_555 1_555
H11 C13 1_555 1_555
C14_2 C12 1_555 1_555
H12_2 C14_2 1_555 1_555
N4 O1 1_555 1_555
O1 Ag2 1_555 1_555
O2 N4 1_555 1_555
O3 Ag2 1_555 1_555
N9 Ag2 1_555 1_555
C4_2 C5_2 1_555 1_555
C9_2 C10_2 1_555 1_555
N4 O3 1_555 1_555
N9 C8_2 1_555 1_555
H6_2 C8_2 1_555 1_555
C9_3 N9 1_555 1_555
H7_3 C9_3 1_555 1_555
H8_3 C10_3 1_555 1_555
C9_3 C10_3 1_555 1_555
N5 C16 1_555 1_555
N6 C22 1_555 1_555
N7 C19 1_555 1_555
C15 H13 1_555 1_555
C16 C15 1_555 1_555
H14 C16 1_555 1_555
C17 N5 1_555 1_555
H15 C17 1_555 1_555
C18 C17 1_555 1_555
H16 C18 1_555 1_555
C19 C15 1_555 1_555
C20 N7 1_555 1_555
C21 C20 1_555 1_555
H17 C21 1_555 1_555
C22 C21 1_555 1_555
H18 C22 1_555 1_555
C23 N6 1_555 1_555
H19 C23 1_555 1_555
C24 C20 1_555 1_555
H20 C24 1_555 1_555
C25 N7 1_555 1_555
H21 C25 1_555 1_555
H22 C25 1_555 1_555
C26 C25 1_555 1_555
H23 C27 1_555 1_555
H24 C28 1_555 1_555
Ag3 N5 1_555 1_555
Ag4 N6 1_555 1_555
C18 C19 1_555 1_555
C23 C24 1_555 1_555
C26 C27 1_555 1_555
C26 C28 1_555 1_555
N6_2 C22_2 1_555 1_555
H18_2 C22_2 1_555 1_555
C23_2 N6_2 1_555 1_555
H19_2 C23_2 1_555 1_555
H20_2 C24_2 1_555 1_555
Ag4 N6_2 1_555 1_555
C23_2 C24_2 1_555 1_555
N4_2 O1_2 1_555 1_555
O1_2 Ag4 1_555 1_555
O2_2 N4_2 1_555 1_555
O3_2 Ag4 1_555 1_555
N4_2 O3_2 1_555 1_555
N5_2 C16_2 1_555 1_555
N7_2 C19_2 1_555 1_555
C15_2 H13_2 1_555 1_555
C16_2 C15_2 1_555 1_555
H14_2 C16_2 1_555 1_555
C17_2 N5_2 1_555 1_555
H15_2 C17_2 1_555 1_555
C18_2 C17_2 1_555 1_555
H16_2 C18_2 1_555 1_555
C19_2 C15_2 1_555 1_555
C20_2 N7_2 1_555 1_555
H19_3 C23_3 1_555 1_555
C24_3 C20_2 1_555 1_555
H20_3 C24_3 1_555 1_555
H24_2 C28_2 1_555 1_555
Ag3_2 N5_2 1_555 1_555
C18_2 C19_2 1_555 1_555
C23_3 C24_3 1_555 1_555
N5_3 C16_3 1_555 1_555
N7_3 C19_3 1_555 1_555
C15_3 H13_3 1_555 1_555
C16_3 C15_3 1_555 1_555
H14_3 C16_3 1_555 1_555
C17_3 N5_3 1_555 1_555
H15_3 C17_3 1_555 1_555
C18_3 C17_3 1_555 1_555
H16_3 C18_3 1_555 1_555
C19_3 C15_3 1_555 1_555
C20_3 N7_3 1_555 1_555
C21_2 C20_3 1_555 1_555
H17_2 C21_2 1_555 1_555
C25_2 N7_3 1_555 1_555
H21_2 C25_2 1_555 1_555
H22_2 C25_2 1_555 1_555
C26_2 C25_2 1_555 1_555
H23_2 C27_2 1_555 1_555
H24_3 C28_3 1_555 1_555
Ag3_3 N5_3 1_555 1_555
C18_3 C19_3 1_555 1_555
C26_2 C27_2 1_555 1_555
C26_2 C28_3 1_555 1_555
N5_4 C16_4 1_555 1_555
N7_4 C19_4 1_555 1_555
C15_4 H13_4 1_555 1_555
C16_4 C15_4 1_555 1_555
H14_4 C16_4 1_555 1_555
C17_4 N5_4 1_555 1_555
H15_4 C17_4 1_555 1_555
C18_4 C17_4 1_555 1_555
H16_4 C18_4 1_555 1_555
C19_4 C15_4 1_555 1_555
C20_4 N7_4 1_555 1_555
H24_4 C28_4 1_555 1_555
Ag3_3 N5_4 1_555 1_555
C18_4 C19_4 1_555 1_555
Ag1_3 N1_2 1_555 1_555
N1_2 C2_3 1_555 1_555
N3_3 C5_3 1_555 1_555
C1_3 H1_3 1_555 1_555
C2_3 C1_3 1_555 1_555
H2_3 C2_3 1_555 1_555
C3_3 N1_2 1_555 1_555
H3_3 C3_3 1_555 1_555
C4_3 C3_3 1_555 1_555
H4_3 C4_3 1_555 1_555
C5_3 C1_3 1_555 1_555
C6_3 N3_3 1_555 1_555
C7_2 C6_3 1_555 1_555
H5_2 C7_2 1_555 1_555
C11_2 N3_3 1_555 1_555
H9_2 C11_2 1_555 1_555
H10_2 C11_2 1_555 1_555
C12_2 C11_2 1_555 1_555
C13_2 C12_2 1_555 1_555
H11_2 C13_2 1_555 1_555
C14_3 C12_2 1_555 1_555
H12_3 C14_3 1_555 1_555
N8_2 Ag1_3 1_555 1_555
C4_3 C5_3 1_555 1_555
N8_2 C2_4 1_555 1_555
N3_4 C5_4 1_555 1_555
C1_4 H1_4 1_555 1_555
C2_4 C1_4 1_555 1_555
H2_4 C2_4 1_555 1_555
C3_4 N8_2 1_555 1_555
H3_4 C3_4 1_555 1_555
C4_4 C3_4 1_555 1_555
H4_4 C4_4 1_555 1_555
C5_4 C1_4 1_555 1_555
C6_4 N3_4 1_555 1_555
H12_4 C14_4 1_555 1_555
C4_4 C5_4 1_555 1_555
Ag2_2 N2_2 1_555 1_555
N2_2 C8_3 1_555 1_555
H5_3 C7_3 1_555 1_555
C8_3 C7_3 1_555 1_555
H6_3 C8_3 1_555 1_555
H9_3 C11_3 1_555 1_555
H10_3 C11_3 1_555 1_555
C12_3 C11_3 1_555 1_555
C13_3 C12_3 1_555 1_555
H11_3 C13_3 1_555 1_555
N4_3 O1_3 1_555 1_555
O1_3 Ag2_2 1_555 1_555
O2_3 N4_3 1_555 1_555
O3_3 Ag2_2 1_555 1_555
N9_2 Ag2_2 1_555 1_555
N4_3 O3_3 1_555 1_555
N9_2 C8_4 1_555 1_555
H6_4 C8_4 1_555 1_555
N6_3 C22_3 1_555 1_555
H17_3 C21_3 1_555 1_555
C22_3 C21_3 1_555 1_555
H18_3 C22_3 1_555 1_555
H21_3 C25_3 1_555 1_555
H22_3 C25_3 1_555 1_555
C26_3 C25_3 1_555 1_555
H23_3 C27_3 1_555 1_555
Ag4_2 N6_3 1_555 1_555
C26_3 C27_3 1_555 1_555
N6_4 C22_4 1_555 1_555
H18_4 C22_4 1_555 1_555
Ag4_2 N6_4 1_555 1_555
N4_4 O1_4 1_555 1_555
O1_4 Ag4_2 1_555 1_555
O2_4 N4_4 1_555 1_555
O3_4 Ag4_2 1_555 1_555
N4_4 O3_4 1_555 1_555
H19_4 C23_4 1_555 1_555
H20_4 C24_4 1_555 1_555
C23_4 C24_4 1_555 1_555
H5_4 C7_4 1_555 1_555
H9_4 C11_4 1_555 1_555
H10_4 C11_4 1_555 1_555
C12_4 C11_4 1_555 1_555
C13_4 C12_4 1_555 1_555
H11_4 C13_4 1_555 1_555
H17_4 C21_4 1_555 1_555
H21_4 C25_4 1_555 1_555
H22_4 C25_4 1_555 1_555
C26_4 C25_4 1_555 1_555
H23_4 C27_4 1_555 1_555
C26_4 C27_4 1_555 1_555
H7_4 C9_4 1_555 1_555
H8_4 C10_4 1_555 1_555
C9_4 C10_4 1_555 1_555
N10 O4 1_555 1_555
O5 N10 1_555 1_555
O6 N10 1_555 1_555
N10_2 O4_2 1_555 1_555
O5_2 N10_2 1_555 1_555
O6_2 N10_2 1_555 1_555
N10_3 O4_3 1_555 1_555
O5_3 N10_3 1_555 1_555
O6_3 N10_3 1_555 1_555
N10_4 O4_4 1_555 1_555
O5_4 N10_4 1_555 1_555
O6_4 N10_4 1_555 1_555
N10_5 O4_5 1_555 1_555
O5_5 N10_5 1_555 1_555
O6_5 N10_5 1_555 1_555
N10_6 O4_6 1_555 1_555
O5_6 N10_6 1_555 1_555
O6_6 N10_6 1_555 1_555
N10_7 O4_7 1_555 1_555
O5_7 N10_7 1_555 1_555
O6_7 N10_7 1_555 1_555
N10_8 O4_8 1_555 1_555
O5_8 N10_8 1_555 1_555
O6_8 N10_8 1_555 1_555

#END
