
###############################################################################
#
# This file contains modified crystal structure data generated from the
# MOF subset of the Cambridge Structural Database (CSD) v543 
# hosted by the Cambridge Crystallographic Data Centre (CCDC).
#
# This work is licensed under the Creative Commons
# Attribution-NonCommercial-ShareAlike 4.0 International License.
# To view a copy of this license, visit
# http://creativecommons.org/licenses/by-nc-sa/4.0/
# or send a letter to
# Creative Commons, PO Box 1866, Mountain View, CA 94042, USA.
#
# CIF created using the CSD Python API on 29 September 2022
# The structure has been converted into the P1 space group
# The structure has a 3D framework
# The original CSD entry LAVYEP is in the monoclinic crystal system
# The framework has been calculated to contain at least 10.0% void space
# The void calculation uses a probe of radius 1.32A, grid spacing 0.4
# The framework is charged, counterions have been retained in the structure
#
###############################################################################

data_LAVYEP
_chemical_formula_moiety         '(C112 H96 Ag2 N24 2+)n'
_symmetry_cell_setting           triclinic
_symmetry_space_group_name_H-M   'P 1'
_symmetry_Int_Tables_number      1
_space_group_name_Hall           'P 1'
loop_
_symmetry_equiv_pos_site_id
_symmetry_equiv_pos_as_xyz
1 x,y,z
_cell_length_a                   13.338(3)
_cell_length_b                   18.510(4)
_cell_length_c                   13.703(3)
_cell_angle_alpha                90
_cell_angle_beta                 113.28(3)
_cell_angle_gamma                90
_cell_volume                     3107.65
loop_
_atom_site_label
_atom_site_type_symbol
_atom_site_fract_x
_atom_site_fract_y
_atom_site_fract_z
Ag1 Ag -0.000000 0.37664(2) 0.250000
H2 H 0.002098 0.538561 0.339522
N7 N 0.07479(15) 0.44735(10) 0.15906(15)
N8 N 0.11003(15) 0.28089(11) 0.34518(15)
Ag1_2 Ag 1.000000 0.37664(2) 0.250000
N1 N 0.92521(15) 0.44735(10) 0.34094(15)
N2 N 0.61003(15) 0.78089(11) 0.34518(15)
N3 N 0.74744(13) 0.57842(10) 0.46802(14)
C1 C 0.88994(15) 0.56409(11) 0.39786(15)
H1 H 0.907843 0.613975 0.407818
C2 C 0.94583(16) 0.51851(11) 0.35713(15)
C3 C 0.84640(19) 0.42052(13) 0.3680(2)
H3 H 0.830873 0.370330 0.357968
C4 C 0.78645(18) 0.46189(12) 0.4097(2)
H4 H 0.731932 0.440078 0.428227
C5 C 0.80665(15) 0.53584(11) 0.42425(15)
C6 C 0.70134(15) 0.64435(11) 0.42546(16)
C7 C 0.64555(16) 0.68589(12) 0.47456(17)
H5 H 0.637198 0.668372 0.536078
C8 C 0.60322(16) 0.75237(12) 0.43207(17)
H6 H 0.566813 0.779643 0.466946
C9 C 0.65850(19) 0.73900(13) 0.29600(18)
H7 H 0.661815 0.756879 0.232357
C10 C 0.70367(17) 0.67198(12) 0.33149(16)
H8 H 0.735934 0.644976 0.292489
C11 C 0.72452(15) 0.54707(11) 0.55506(16)
H9 H 0.743173 0.583070 0.612999
H10 H 0.772649 0.504704 0.583207
C12 C 0.60760(15) 0.52360(11) 0.52469(15)
C13 C 0.57149(17) 0.50786(13) 0.60467(16)
H11 H 0.620260 0.512929 0.676892
C14 C 0.53509(17) 0.51522(13) 0.41951(16)
H12 H 0.558402 0.525297 0.363783
N4 N 0.07479(15) 0.55265(10) 0.65906(15)
N5 N 0.38997(15) 0.21911(11) 0.65482(15)
N6 N 0.25256(13) 0.42158(10) 0.53198(14)
C15 C 0.11006(15) 0.43591(11) 0.60214(15)
H13 H 0.092157 0.386025 0.592182
C16 C 0.05417(16) 0.48149(11) 0.64287(15)
C17 C 0.15360(19) 0.57948(13) 0.6320(2)
H15 H 0.169127 0.629670 0.642032
C18 C 0.21355(18) 0.53811(12) 0.5903(2)
H16 H 0.268068 0.559922 0.571773
C19 C 0.19335(15) 0.46416(11) 0.57575(15)
C20 C 0.29866(15) 0.35565(11) 0.57454(16)
C21 C 0.35445(16) 0.31411(12) 0.52544(17)
H17 H 0.362802 0.331628 0.463922
C22 C 0.39678(16) 0.24763(12) 0.56793(17)
H18 H 0.433187 0.220357 0.533054
C23 C 0.34150(19) 0.26100(13) 0.70400(18)
H19 H 0.338185 0.243121 0.767643
C24 C 0.29633(17) 0.32802(12) 0.66851(16)
H20 H 0.264066 0.355024 0.707511
C25 C 0.27548(15) 0.45293(11) 0.44494(16)
H21 H 0.256827 0.416930 0.387001
H22 H 0.227351 0.495296 0.416793
C26 C 0.39240(15) 0.47640(11) 0.47531(15)
C27 C 0.42851(17) 0.49214(13) 0.39533(16)
H23 H 0.379740 0.487071 0.323108
C28 C 0.46491(17) 0.48478(13) 0.58049(16)
H24 H 0.441598 0.474703 0.636217
Ag2 Ag 0.500000 0.87664(2) 0.250000
Ag3 Ag 0.000000 0.62336(2) 0.750000
Ag4 Ag 0.500000 0.12336(2) 0.750000
N9 N 0.88997(15) 0.28089(11) 0.15482(15)
H14 H 0.997902 0.461439 0.660478
Ag3_2 Ag 1.000000 0.62336(2) 0.750000
H14_2 H 0.002098 0.461439 0.839522
N2_2 N 0.38997(15) 0.78089(11) 0.15482(15)
N3_2 N 0.25256(13) 0.57842(10) 0.03198(14)
C1_2 C 0.11006(15) 0.56409(11) 0.10214(15)
H1_2 H 0.092157 0.613975 0.092182
C2_2 C 0.05417(16) 0.51851(11) 0.14287(15)
C3_2 C 0.15360(19) 0.42052(13) 0.1320(2)
H3_2 H 0.169127 0.370330 0.142032
C4_2 C 0.21355(18) 0.46189(12) 0.0903(2)
H4_2 H 0.268068 0.440078 0.071773
C5_2 C 0.19335(15) 0.53584(11) 0.07575(15)
C6_2 C 0.29866(15) 0.64435(11) 0.07454(16)
C7_2 C 0.35445(16) 0.68589(12) 0.02544(17)
C8_2 C 0.39678(16) 0.75237(12) 0.06793(17)
H6_2 H 0.433187 0.779643 0.033054
C9_2 C 0.34150(19) 0.73900(13) 0.20400(18)
H7_2 H 0.338185 0.756879 0.267643
C10_2 C 0.29633(17) 0.67198(12) 0.16851(16)
H8_2 H 0.264066 0.644976 0.207511
C14_2 C 0.46491(17) 0.51522(13) 0.08049(16)
H12_2 H 0.441598 0.525297 0.136217
H17_2 H 0.637198 0.331628 0.036078
C25_2 C 0.72452(15) 0.45293(11) 0.05506(16)
H21_2 H 0.743173 0.416930 0.112999
H22_2 H 0.772649 0.495296 0.083207
C26_2 C 0.60760(15) 0.47640(11) 0.02469(15)
C27_2 C 0.57149(17) 0.49214(13) 0.10467(16)
H23_2 H 0.620260 0.487071 0.176892
H5_2 H 0.362802 0.668372 0.963922
C11_2 C 0.27548(15) 0.54707(11) 0.94494(16)
H9_2 H 0.256827 0.583070 0.887001
H10_2 H 0.227351 0.504704 0.916793
C12_2 C 0.39240(15) 0.52360(11) 0.97531(15)
C13_2 C 0.42851(17) 0.50786(13) 0.89533(16)
H11_2 H 0.379740 0.512929 0.823108
N4_2 N 0.92521(15) 0.55265(10) 0.84094(15)
N5_2 N 0.61003(15) 0.21911(11) 0.84518(15)
N6_2 N 0.74744(13) 0.42158(10) 0.96802(14)
C15_2 C 0.88994(15) 0.43591(11) 0.89786(15)
H13_2 H 0.907843 0.386025 0.907818
C16_2 C 0.94583(16) 0.48149(11) 0.85713(15)
C17_2 C 0.84640(19) 0.57948(13) 0.8680(2)
H15_2 H 0.830873 0.629670 0.857968
C18_2 C 0.78645(18) 0.53811(12) 0.9097(2)
H16_2 H 0.731932 0.559922 0.928227
C19_2 C 0.80665(15) 0.46416(11) 0.92425(15)
C20_2 C 0.70134(15) 0.35565(11) 0.92546(16)
C21_2 C 0.64555(16) 0.31411(12) 0.97456(17)
C22_2 C 0.60322(16) 0.24763(12) 0.93207(17)
H18_2 H 0.566813 0.220357 0.966946
C23_2 C 0.65850(19) 0.26100(13) 0.79600(18)
H19_2 H 0.661815 0.243121 0.732357
C24_2 C 0.70367(17) 0.32802(12) 0.83149(16)
H20_2 H 0.735934 0.355024 0.792489
C28_2 C 0.53509(17) 0.48478(13) 0.91951(16)
H24_2 H 0.558402 0.474703 0.863783
H2_2 H 0.997902 0.538561 0.160478
N3_3 N 0.24744(13) 0.07842(10) 0.46802(14)
C1_3 C 0.38994(15) 0.06409(11) 0.39786(15)
H1_3 H 0.407843 0.113975 0.407818
C2_3 C 0.44583(16) 0.01851(11) 0.35713(15)
H2_3 H 0.502098 0.038561 0.339522
C5_3 C 0.30665(15) 0.03584(11) 0.42425(15)
C6_3 C 0.20134(15) 0.14435(11) 0.42546(16)
C7_3 C 0.14555(16) 0.18589(12) 0.47456(17)
H5_3 H 0.137198 0.168372 0.536078
C8_3 C 0.10322(16) 0.25237(12) 0.43207(17)
H6_3 H 0.066813 0.279643 0.466946
C9_3 C 0.15850(19) 0.23900(13) 0.29600(18)
H7_3 H 0.161815 0.256879 0.232357
C10_3 C 0.20367(17) 0.17198(12) 0.33149(16)
H8_3 H 0.235934 0.144976 0.292489
C11_3 C 0.22452(15) 0.04707(11) 0.55506(16)
H9_3 H 0.243173 0.083070 0.612999
H10_3 H 0.272649 0.004704 0.583207
C12_3 C 0.10760(15) 0.02360(11) 0.52469(15)
C13_3 C 0.07149(17) 0.00786(13) 0.60467(16)
H11_3 H 0.120260 0.012929 0.676892
C14_3 C 0.03509(17) 0.01522(13) 0.41951(16)
H12_3 H 0.058402 0.025297 0.363783
N1_2 N 0.42521(15) 0.94735(10) 0.34094(15)
C3_3 C 0.34640(19) 0.92052(13) 0.3680(2)
H3_3 H 0.330873 0.870330 0.357968
C4_3 C 0.28645(18) 0.96189(12) 0.4097(2)
H4_3 H 0.231932 0.940078 0.428227
N7_2 N 0.57479(15) 0.94735(10) 0.15906(15)
N4_3 N 0.57479(15) 0.05265(10) 0.65906(15)
C17_3 C 0.65360(19) 0.07948(13) 0.6320(2)
H15_3 H 0.669127 0.129670 0.642032
C18_3 C 0.71355(18) 0.03811(12) 0.5903(2)
H16_3 H 0.768068 0.059922 0.571773
N5_3 N 0.88997(15) 0.71911(11) 0.65482(15)
N6_3 N 0.75256(13) 0.92158(10) 0.53198(14)
C15_3 C 0.61006(15) 0.93591(11) 0.60214(15)
H13_3 H 0.592157 0.886025 0.592182
C16_3 C 0.55417(16) 0.98149(11) 0.64287(15)
H14_3 H 0.497902 0.961439 0.660478
C19_3 C 0.69335(15) 0.96416(11) 0.57575(15)
C20_3 C 0.79866(15) 0.85565(11) 0.57454(16)
C21_3 C 0.85445(16) 0.81411(12) 0.52544(17)
H17_3 H 0.862802 0.831628 0.463922
C22_3 C 0.89678(16) 0.74763(12) 0.56793(17)
H18_3 H 0.933187 0.720357 0.533054
C23_3 C 0.84150(19) 0.76100(13) 0.70400(18)
H19_3 H 0.838185 0.743121 0.767643
C24_3 C 0.79633(17) 0.82802(12) 0.66851(16)
H20_3 H 0.764066 0.855024 0.707511
C25_3 C 0.77548(15) 0.95293(11) 0.44494(16)
H21_3 H 0.756827 0.916930 0.387001
H22_3 H 0.727351 0.995296 0.416793
C26_3 C 0.89240(15) 0.97640(11) 0.47531(15)
C27_3 C 0.92851(17) 0.99214(13) 0.39533(16)
H23_3 H 0.879740 0.987071 0.323108
C28_3 C 0.96491(17) 0.98478(13) 0.58049(16)
H24_3 H 0.941598 0.974703 0.636217
N4_4 N 0.42521(15) 0.05265(10) 0.84094(15)
C17_4 C 0.34640(19) 0.07948(13) 0.8680(2)
H15_4 H 0.330873 0.129670 0.857968
C18_4 C 0.28645(18) 0.03811(12) 0.9097(2)
H16_4 H 0.231932 0.059922 0.928227
N5_4 N 0.11003(15) 0.71911(11) 0.84518(15)
N6_4 N 0.24744(13) 0.92158(10) 0.96802(14)
C15_4 C 0.38994(15) 0.93591(11) 0.89786(15)
H13_4 H 0.407843 0.886025 0.907818
C16_4 C 0.44583(16) 0.98149(11) 0.85713(15)
H14_4 H 0.502098 0.961439 0.839522
C19_4 C 0.30665(15) 0.96416(11) 0.92425(15)
C20_4 C 0.20134(15) 0.85565(11) 0.92546(16)
C21_4 C 0.14555(16) 0.81411(12) 0.97456(17)
C22_4 C 0.10322(16) 0.74763(12) 0.93207(17)
H18_4 H 0.066813 0.720357 0.966946
C23_4 C 0.15850(19) 0.76100(13) 0.79600(18)
H19_4 H 0.161815 0.743121 0.732357
C24_4 C 0.20367(17) 0.82802(12) 0.83149(16)
H20_4 H 0.235934 0.855024 0.792489
C28_4 C 0.03509(17) 0.98478(13) 0.91951(16)
H24_4 H 0.058402 0.974703 0.863783
N3_4 N 0.75256(13) 0.07842(10) 0.03198(14)
C1_4 C 0.61006(15) 0.06409(11) 0.10214(15)
H1_4 H 0.592157 0.113975 0.092182
C2_4 C 0.55417(16) 0.01851(11) 0.14287(15)
H2_4 H 0.497902 0.038561 0.160478
C5_4 C 0.69335(15) 0.03584(11) 0.07575(15)
C6_4 C 0.79866(15) 0.14435(11) 0.07454(16)
C7_4 C 0.85445(16) 0.18589(12) 0.02544(17)
C8_4 C 0.89678(16) 0.25237(12) 0.06793(17)
H6_4 H 0.933187 0.279643 0.033054
C9_4 C 0.84150(19) 0.23900(13) 0.20400(18)
H7_4 H 0.838185 0.256879 0.267643
C10_4 C 0.79633(17) 0.17198(12) 0.16851(16)
H8_4 H 0.764066 0.144976 0.207511
C14_4 C 0.96491(17) 0.01522(13) 0.08049(16)
H12_4 H 0.941598 0.025297 0.136217
C3_4 C 0.65360(19) 0.92052(13) 0.1320(2)
H3_4 H 0.669127 0.870330 0.142032
C4_4 C 0.71355(18) 0.96189(12) 0.0903(2)
H4_4 H 0.768068 0.940078 0.071773
H17_4 H 0.137198 0.831628 0.036078
C25_4 C 0.22452(15) 0.95293(11) 0.05506(16)
H21_4 H 0.243173 0.916930 0.112999
H22_4 H 0.272649 0.995296 0.083207
C26_4 C 0.10760(15) 0.97640(11) 0.02469(15)
C27_4 C 0.07149(17) 0.99214(13) 0.10467(16)
H23_4 H 0.120260 0.987071 0.176892
H5_4 H 0.862802 0.168372 0.963922
C11_4 C 0.77548(15) 0.04707(11) 0.94494(16)
H9_4 H 0.756827 0.083070 0.887001
H10_4 H 0.727351 0.004704 0.916793
C12_4 C 0.89240(15) 0.02360(11) 0.97531(15)
C13_4 C 0.92851(17) 0.00786(13) 0.89533(16)
H11_4 H 0.879740 0.012929 0.823108
loop_
_geom_bond_atom_site_label_1
_geom_bond_atom_site_label_2
_geom_bond_site_symmetry_1
_geom_bond_site_symmetry_2
N7 Ag1 1_555 1_555
N8 Ag1 1_555 1_555
Ag1_2 N1 1_555 1_555
N1 C2 1_555 1_555
N2 C8 1_555 1_555
N3 C5 1_555 1_555
C1 H1 1_555 1_555
C2 C1 1_555 1_555
C3 N1 1_555 1_555
H3 C3 1_555 1_555
C4 C3 1_555 1_555
H4 C4 1_555 1_555
C5 C1 1_555 1_555
C6 N3 1_555 1_555
C7 C6 1_555 1_555
H5 C7 1_555 1_555
C8 C7 1_555 1_555
H6 C8 1_555 1_555
C9 N2 1_555 1_555
H7 C9 1_555 1_555
C10 C6 1_555 1_555
H8 C10 1_555 1_555
C11 N3 1_555 1_555
H9 C11 1_555 1_555
H10 C11 1_555 1_555
C12 C11 1_555 1_555
C13 C12 1_555 1_555
H11 C13 1_555 1_555
C14 C12 1_555 1_555
H12 C14 1_555 1_555
N4 C16 1_555 1_555
N5 C22 1_555 1_555
N6 C19 1_555 1_555
C15 H13 1_555 1_555
C16 C15 1_555 1_555
C17 N4 1_555 1_555
H15 C17 1_555 1_555
C18 C17 1_555 1_555
H16 C18 1_555 1_555
C19 C15 1_555 1_555
C20 N6 1_555 1_555
C21 C20 1_555 1_555
H17 C21 1_555 1_555
C22 C21 1_555 1_555
H18 C22 1_555 1_555
C23 N5 1_555 1_555
H19 C23 1_555 1_555
C24 C20 1_555 1_555
H20 C24 1_555 1_555
C25 N6 1_555 1_555
H21 C25 1_555 1_555
H22 C25 1_555 1_555
C26 C25 1_555 1_555
C27 C14 1_555 1_555
H23 C27 1_555 1_555
C28 C13 1_555 1_555
H24 C28 1_555 1_555
Ag2 N2 1_555 1_555
Ag3 N4 1_555 1_555
Ag4 N5 1_555 1_555
N9 Ag1_2 1_555 1_555
C4 C5 1_555 1_555
C9 C10 1_555 1_555
C18 C19 1_555 1_555
C23 C24 1_555 1_555
C26 C27 1_555 1_555
C26 C28 1_555 1_555
N7 C2_2 1_555 1_555
N2_2 C8_2 1_555 1_555
N3_2 C5_2 1_555 1_555
C1_2 H1_2 1_555 1_555
C2_2 C1_2 1_555 1_555
C3_2 N7 1_555 1_555
H3_2 C3_2 1_555 1_555
C4_2 C3_2 1_555 1_555
H4_2 C4_2 1_555 1_555
C5_2 C1_2 1_555 1_555
C6_2 N3_2 1_555 1_555
C7_2 C6_2 1_555 1_555
C8_2 C7_2 1_555 1_555
H6_2 C8_2 1_555 1_555
C9_2 N2_2 1_555 1_555
H7_2 C9_2 1_555 1_555
C10_2 C6_2 1_555 1_555
H8_2 C10_2 1_555 1_555
H12_2 C14_2 1_555 1_555
H21_2 C25_2 1_555 1_555
H22_2 C25_2 1_555 1_555
C26_2 C25_2 1_555 1_555
C27_2 C14_2 1_555 1_555
H23_2 C27_2 1_555 1_555
Ag2 N2_2 1_555 1_555
C4_2 C5_2 1_555 1_555
C9_2 C10_2 1_555 1_555
C26_2 C27_2 1_555 1_555
H9_2 C11_2 1_555 1_555
H10_2 C11_2 1_555 1_555
C12_2 C11_2 1_555 1_555
C13_2 C12_2 1_555 1_555
H11_2 C13_2 1_555 1_555
N4_2 C16_2 1_555 1_555
N5_2 C22_2 1_555 1_555
N6_2 C19_2 1_555 1_555
C15_2 H13_2 1_555 1_555
C16_2 C15_2 1_555 1_555
C17_2 N4_2 1_555 1_555
H15_2 C17_2 1_555 1_555
C18_2 C17_2 1_555 1_555
H16_2 C18_2 1_555 1_555
C19_2 C15_2 1_555 1_555
C20_2 N6_2 1_555 1_555
C21_2 C20_2 1_555 1_555
C22_2 C21_2 1_555 1_555
H18_2 C22_2 1_555 1_555
C23_2 N5_2 1_555 1_555
H19_2 C23_2 1_555 1_555
C24_2 C20_2 1_555 1_555
H20_2 C24_2 1_555 1_555
C28_2 C13_2 1_555 1_555
H24_2 C28_2 1_555 1_555
Ag3_2 N4_2 1_555 1_555
Ag4 N5_2 1_555 1_555
C18_2 C19_2 1_555 1_555
C23_2 C24_2 1_555 1_555
N8 C8_3 1_555 1_555
N3_3 C5_3 1_555 1_555
C1_3 H1_3 1_555 1_555
C2_3 C1_3 1_555 1_555
H2_3 C2_3 1_555 1_555
C5_3 C1_3 1_555 1_555
C6_3 N3_3 1_555 1_555
C7_3 C6_3 1_555 1_555
H5_3 C7_3 1_555 1_555
C8_3 C7_3 1_555 1_555
H6_3 C8_3 1_555 1_555
C9_3 N8 1_555 1_555
H7_3 C9_3 1_555 1_555
C10_3 C6_3 1_555 1_555
H8_3 C10_3 1_555 1_555
C11_3 N3_3 1_555 1_555
H9_3 C11_3 1_555 1_555
H10_3 C11_3 1_555 1_555
C12_3 C11_3 1_555 1_555
C13_3 C12_3 1_555 1_555
H11_3 C13_3 1_555 1_555
C14_3 C12_3 1_555 1_555
H12_3 C14_3 1_555 1_555
C9_3 C10_3 1_555 1_555
Ag2 N1_2 1_555 1_555
C3_3 N1_2 1_555 1_555
H3_3 C3_3 1_555 1_555
C4_3 C3_3 1_555 1_555
H4_3 C4_3 1_555 1_555
N7_2 Ag2 1_555 1_555
C17_3 N4_3 1_555 1_555
H15_3 C17_3 1_555 1_555
C18_3 C17_3 1_555 1_555
H16_3 C18_3 1_555 1_555
Ag4 N4_3 1_555 1_555
N5_3 C22_3 1_555 1_555
N6_3 C19_3 1_555 1_555
C15_3 H13_3 1_555 1_555
C16_3 C15_3 1_555 1_555
H14_3 C16_3 1_555 1_555
C19_3 C15_3 1_555 1_555
C20_3 N6_3 1_555 1_555
C21_3 C20_3 1_555 1_555
H17_3 C21_3 1_555 1_555
C22_3 C21_3 1_555 1_555
H18_3 C22_3 1_555 1_555
C23_3 N5_3 1_555 1_555
H19_3 C23_3 1_555 1_555
C24_3 C20_3 1_555 1_555
H20_3 C24_3 1_555 1_555
C25_3 N6_3 1_555 1_555
H21_3 C25_3 1_555 1_555
H22_3 C25_3 1_555 1_555
C26_3 C25_3 1_555 1_555
H23_3 C27_3 1_555 1_555
H24_3 C28_3 1_555 1_555
Ag3_2 N5_3 1_555 1_555
C23_3 C24_3 1_555 1_555
C26_3 C27_3 1_555 1_555
C26_3 C28_3 1_555 1_555
C17_4 N4_4 1_555 1_555
H15_4 C17_4 1_555 1_555
C18_4 C17_4 1_555 1_555
H16_4 C18_4 1_555 1_555
Ag4 N4_4 1_555 1_555
N5_4 C22_4 1_555 1_555
N6_4 C19_4 1_555 1_555
C15_4 H13_4 1_555 1_555
C16_4 C15_4 1_555 1_555
H14_4 C16_4 1_555 1_555
C19_4 C15_4 1_555 1_555
C20_4 N6_4 1_555 1_555
C21_4 C20_4 1_555 1_555
C22_4 C21_4 1_555 1_555
H18_4 C22_4 1_555 1_555
C23_4 N5_4 1_555 1_555
H19_4 C23_4 1_555 1_555
C24_4 C20_4 1_555 1_555
H20_4 C24_4 1_555 1_555
H24_4 C28_4 1_555 1_555
Ag3 N5_4 1_555 1_555
C23_4 C24_4 1_555 1_555
N9 C8_4 1_555 1_555
N3_4 C5_4 1_555 1_555
C1_4 H1_4 1_555 1_555
C2_4 C1_4 1_555 1_555
H2_4 C2_4 1_555 1_555
C5_4 C1_4 1_555 1_555
C6_4 N3_4 1_555 1_555
C7_4 C6_4 1_555 1_555
C8_4 C7_4 1_555 1_555
H6_4 C8_4 1_555 1_555
C9_4 N9 1_555 1_555
H7_4 C9_4 1_555 1_555
C10_4 C6_4 1_555 1_555
H8_4 C10_4 1_555 1_555
H12_4 C14_4 1_555 1_555
C9_4 C10_4 1_555 1_555
C3_4 N7_2 1_555 1_555
H3_4 C3_4 1_555 1_555
C4_4 C3_4 1_555 1_555
H4_4 C4_4 1_555 1_555
H21_4 C25_4 1_555 1_555
H22_4 C25_4 1_555 1_555
C26_4 C25_4 1_555 1_555
H23_4 C27_4 1_555 1_555
C26_4 C27_4 1_555 1_555
H9_4 C11_4 1_555 1_555
H10_4 C11_4 1_555 1_555
C12_4 C11_4 1_555 1_555
C13_4 C12_4 1_555 1_555
H11_4 C13_4 1_555 1_555

#END
