
###############################################################################
#
# This file contains modified crystal structure data generated from the
# MOF subset of the Cambridge Structural Database (CSD) v543 
# hosted by the Cambridge Crystallographic Data Centre (CCDC).
#
# This work is licensed under the Creative Commons
# Attribution-NonCommercial-ShareAlike 4.0 International License.
# To view a copy of this license, visit
# http://creativecommons.org/licenses/by-nc-sa/4.0/
# or send a letter to
# Creative Commons, PO Box 1866, Mountain View, CA 94042, USA.
#
# CIF created using the CSD Python API on 29 September 2022
# The structure has been converted into the P1 space group
# The structure has a 3D framework
# The original CSD entry LAVZOA is in the triclinic crystal system
# The framework has been calculated to contain at least 10.0% void space
# The void calculation uses a probe of radius 1.32A, grid spacing 0.4
# H atom positions have been added when not included in the experimental data
# Generated hydrogen atom positions removed from atoms on special positions
#
###############################################################################

data_LAVZOA
_chemical_formula_moiety         '(C56 H64 O92 P16 U10)n'
_symmetry_cell_setting           triclinic
_symmetry_space_group_name_H-M   'P 1'
_symmetry_Int_Tables_number      1
_space_group_name_Hall           'P 1'
loop_
_symmetry_equiv_pos_site_id
_symmetry_equiv_pos_as_xyz
1 x,y,z
_cell_length_a                   14.3893(7)
_cell_length_b                   14.7147(7)
_cell_length_c                   15.3534(8)
_cell_angle_alpha                98.3060(10)
_cell_angle_beta                 93.8760(10)
_cell_angle_gamma                96.2960(10)
_cell_volume                     3185.81
loop_
_atom_site_label
_atom_site_type_symbol
_atom_site_fract_x
_atom_site_fract_y
_atom_site_fract_z
O32 O 0.0954(8) 0.4853(9) 0.6208(15)
O36 O 0.0101(6) 0.1418(6) 0.6366(6)
O37 O 0.0439(9) 0.4478(9) 0.8350(18)
H20 H 0.0232 0.3206 0.5879
C28 C 0.0118(11) 0.5001(11) 0.6170(18)
U10 U 0.07349(3) 0.07461(3) 0.75301(3)
H21 H 0.00704628 0.602898 0.560545
O47 O 0.0673(6) 0.8778(6) 0.2010(6)
U8 U 0.30009(3) 0.02875(3) 0.11635(3)
U4 U 0.60350(3) 0.60731(3) 0.74385(3)
P1 P 0.6068(2) 0.4115(2) 0.8742(2)
P2 P 0.8378(2) 0.12724(19) 0.8296(2)
P4 P 0.2760(2) 0.0053(2) 0.87743(19)
P5 P 0.4401(2) 0.15973(18) 0.31756(19)
P7 P 0.9229(2) 0.1403(2) 0.5783(2)
P8 P 0.6529(2) 0.3810(2) 0.6182(2)
O2 O 0.6360(6) 0.0538(6) 0.5986(6)
O3 O 0.7583(6) 0.0656(5) 0.7679(5)
O4 O 0.8381(6) 0.0783(6) 0.5948(6)
O6 O 0.8249(6) 0.0961(6) 0.9193(6)
O7 O 0.9327(6) 0.1222(6) 0.7990(6)
O8 O 0.6188(6) 0.0489(6) 0.9144(6)
O14 O 0.9873(6) 0.0350(6) 0.2865(6)
O17 O 0.8786(8) 0.2833(8) 0.3710(12)
H2 H 0.9127 0.3323 0.3747
O18 O 0.4861(7) 0.5629(6) 0.7099(6)
O19 O 0.7205(7) 0.6510(7) 0.7775(7)
O20 O 0.2514(6) 0.0378(6) 0.9710(5)
O21 O 0.1966(6) 0.0042(6) 0.8092(5)
O22 O 0.3660(7) 0.0653(6) 0.8560(6)
H3 H 0.3806 0.1089 0.8961
O25 O 0.6530(7) 0.4794(6) 0.6579(6)
O26 O 0.6111(7) 0.5023(7) 0.8408(6)
O27 O 0.5287(7) 0.3391(7) 0.8369(9)
O28 O 0.5979(8) 0.4259(8) 0.9762(7)
H4 H 0.6166 0.4798 0.9972
O29 O 0.6091(7) 0.3076(6) 0.6670(8)
O30 O 0.6044(7) 0.3638(8) 0.5234(7)
H5 H 0.6165 0.4097 0.4997
O31 O 0.9852(9) 0.5791(8) 0.6139(14)
O35 O 0.9458(7) 0.1096(7) 0.4796(6)
H7 H 0.9827 0.1499 0.4647
O38 O 0.9478(13) 0.5571(13) 0.8382(12)
H8 H 0.9963 0.5927 0.8410
O39 O 0.3861(5) 0.0741(5) 0.2589(5)
O40 O 0.4341(6) 0.2464(5) 0.2789(6)
O41 O 0.3983(5) 0.1610(5) 0.4065(5)
O42 O 0.7690(7) 0.3758(7) 0.3598(9)
O44 O 0.6327(11) 0.6411(8) 0.5916(8)
C1 C 0.7175(9) 0.3689(9) 0.8591(11)
C2 C 0.7284(8) 0.2746(7) 0.8507(8)
H9 H 0.6774 0.2309 0.8539
C3 C 0.8178(8) 0.2469(7) 0.8374(9)
C4 C 0.8938(9) 0.3117(10) 0.8357(14)
H10 H 0.9522 0.2926 0.8260
C5 C 0.8842(13) 0.4057(12) 0.8483(12)
C6 C 0.7944(11) 0.4362(12) 0.8599(11)
H11 H 0.7872 0.4988 0.8678
C7 C 0.9693(17) 0.4712(17) 0.8485(15)
C15 C 0.5619(7) 0.1464(7) 0.3343(7)
C16 C 0.5911(8) 0.0605(8) 0.3490(8)
H15 H 0.5469 0.0089 0.3467
C17 C 0.6862(7) 0.0534(8) 0.3671(7)
C18 C 0.7506(9) 0.1304(8) 0.3695(8)
H16 H 0.8143 0.1256 0.3792
C19 C 0.7221(9) 0.2141(8) 0.3578(9)
C20 C 0.6277(8) 0.2239(8) 0.3414(8)
H17 H 0.6090 0.2814 0.3352
C21 C 0.7934(10) 0.2980(10) 0.3632(12)
C22 C 0.8920(8) 0.2547(8) 0.5878(9)
C23 C 0.7981(9) 0.2722(8) 0.5936(9)
H18 H 0.7511 0.2225 0.5878
C24 C 0.7740(9) 0.3614(8) 0.6078(10)
C25 C 0.8417(11) 0.4350(10) 0.6131(14)
H19 H 0.8256 0.4949 0.6205
C26 C 0.9359(11) 0.4196(10) 0.6074(16)
C27 C 0.9609(10) 0.3299(9) 0.5934(13)
U6 U 0.28214(3) 0.02219(3) 0.37557(3)
U12 U 0.39650(3) 0.39269(3) 0.25615(3)
U13 U 0.46534(3) 0.24140(3) 0.70440(3)
O48 O 0.5602(6) 0.6768(6) 0.8833(6)
O55 O 0.5659(6) 0.7536(5) 0.7211(6)
H23 H 0.979812 0.00752383 0.087243
H24 H 0.589763 0.68511 0.574388
H25 H 0.698752 0.668835 0.591283
O12 O 0.5420(7) 0.7687(7) 0.0303(6)
H1 H 0.5691 0.8184 0.0556
O49 O 0.7486(6) 0.9622(6) 0.0290(5)
U1 U 0.71786(3) 0.97781(3) 0.62443(3)
U2 U 0.69991(3) 0.97125(3) 0.88365(3)
U3 U 0.92651(3) 0.92539(3) 0.24699(3)
U5 U 0.53466(3) 0.75860(3) 0.29560(3)
P3 P 0.5368(2) 0.7681(2) 0.9264(2)
P6 P 0.72782(19) 0.94406(19) 0.38256(18)
O1 O 0.7979(6) 0.9023(5) 0.6505(5)
O5 O 0.7212(6) 0.9283(5) 0.4773(5)
O9 O 0.7814(6) 0.8944(6) 0.8524(6)
O10 O 0.5984(6) 0.8533(6) 0.9129(6)
O13 O 0.8632(6) 0.8169(6) 0.2058(6)
O15 O 0.8303(5) 0.9545(6) 0.3635(5)
O16 O 0.6677(6) 0.8675(6) 0.3215(6)
O23 O 0.5880(7) 0.6791(7) 0.3509(8)
O24 O 0.4805(6) 0.8412(6) 0.2470(6)
O33 O 0.1968(9) 0.5698(9) 0.8511(15)
H6 H 0.1481 0.5342 0.8468
O34 O 0.0941(12) 0.6727(12) 0.8434(11)
O43 O 0.9435(11) 0.9465(10) 0.0890(8)
O45 O 0.6594(7) 0.7280(7) 0.1893(7)
O46 O 0.5115(6) 0.8482(7) 0.4351(6)
C8 C 0.4175(7) 0.7840(8) 0.8958(8)
C9 C 0.3468(9) 0.7105(9) 0.8809(10)
H12 H 0.3604 0.6504 0.8827
C10 C 0.2562(11) 0.7282(11) 0.8633(14)
C11 C 0.2356(9) 0.8166(9) 0.8558(10)
H13 H 0.1746 0.8268 0.8397
C12 C 0.3063(9) 0.8890(8) 0.8725(7)
C13 C 0.3978(8) 0.8733(8) 0.8885(7)
H14 H 0.4461 0.9218 0.8944
C14 C 0.1772(14) 0.6528(14) 0.8557(13)
O50 O 0.8034(6) 0.9958(6) 0.1908(5)
O51 O 0.4713(7) 0.6609(7) 0.1631(9)
O52 O 0.3909(7) 0.6924(6) 0.3330(8)
O53 O 0.9899(6) 0.8582(6) 0.3634(6)
O54 O 0.6139(5) 0.9259(5) 0.7411(5)
O56 O 0.6017(5) 0.8390(5) 0.5935(5)
H22 H 0.880367 0.943739 0.0576244
H26 H 0.509519 0.913863 0.427514
H27 H 0.451374 0.823654 0.456121
H28 H 0.718481 0.719668 0.222922
H29 H 0.637651 0.671073 0.146567
P3_2 P 0.4632(2) 0.2319(2) 0.0736(2)
P6_2 P 0.27218(19) 0.05594(19) 0.61744(18)
O1_2 O 0.2021(6) 0.0977(5) 0.3495(5)
O5_2 O 0.2788(6) 0.0717(5) 0.5227(5)
O9_2 O 0.2186(6) 0.1056(6) 0.1476(6)
O10_2 O 0.4016(6) 0.1467(6) 0.0871(6)
O11 O 0.4398(6) 0.3232(6) 0.1167(6)
O13_2 O 0.1368(6) 0.1831(6) 0.7942(6)
O15_2 O 0.1697(5) 0.0455(6) 0.6365(5)
O16_2 O 0.3323(6) 0.1325(6) 0.6785(6)
O23_2 O 0.4120(7) 0.3209(7) 0.6491(8)
O24_2 O 0.5195(6) 0.1588(6) 0.7530(6)
O33_2 O 0.8032(9) 0.4302(9) 0.1489(15)
H6_2 H 0.8519 0.4658 0.1532
O34_2 O 0.9059(12) 0.3273(12) 0.1566(11)
O43_2 O 0.0565(11) 0.0535(10) 0.9110(8)
O45_2 O 0.3406(7) 0.2720(7) 0.8107(7)
O46_2 O 0.4885(6) 0.1518(7) 0.5649(6)
C8_2 C 0.5825(7) 0.2160(8) 0.1042(8)
C9_2 C 0.6532(9) 0.2895(9) 0.1191(10)
H12_2 H 0.6396 0.3496 0.1173
C10_2 C 0.7438(11) 0.2718(11) 0.1367(14)
C11_2 C 0.7644(9) 0.1834(9) 0.1442(10)
H13_2 H 0.8254 0.1732 0.1603
C12_2 C 0.6937(9) 0.1110(8) 0.1275(7)
C13_2 C 0.6022(8) 0.1267(8) 0.1115(7)
H14_2 H 0.5539 0.0782 0.1056
C14_2 C 0.8228(14) 0.3472(14) 0.1443(13)
H22_2 H 0.119633 0.0562614 0.942376
H26_2 H 0.490481 0.0861371 0.572486
H27_2 H 0.548626 0.176346 0.543879
H28_2 H 0.281519 0.280332 0.777078
H29_2 H 0.362349 0.328927 0.853433
O12_2 O 0.4580(7) 0.2313(7) 0.9697(6)
H1_2 H 0.4309 0.1816 0.9444
P1_2 P 0.3932(2) 0.5885(2) 0.1258(2)
P2_2 P 0.1622(2) 0.87276(19) 0.1704(2)
P4_2 P 0.7240(2) 0.9947(2) 0.12257(19)
P5_2 P 0.5599(2) 0.84027(18) 0.68244(19)
P7_2 P 0.0771(2) 0.8597(2) 0.4217(2)
P8_2 P 0.3471(2) 0.6190(2) 0.3818(2)
O2_2 O 0.3640(6) 0.9462(6) 0.4014(6)
O3_2 O 0.2417(6) 0.9344(5) 0.2321(5)
O4_2 O 0.1619(6) 0.9217(6) 0.4052(6)
O6_2 O 0.1751(6) 0.9039(6) 0.0807(6)
O8_2 O 0.3812(6) 0.9511(6) 0.0856(6)
O14_2 O 0.0127(6) 0.9650(6) 0.7135(6)
O17_2 O 0.1214(8) 0.7167(8) 0.6290(12)
H2_2 H 0.0873 0.6677 0.6253
O18_2 O 0.5139(7) 0.4371(6) 0.2901(6)
O19_2 O 0.2795(7) 0.3490(7) 0.2225(7)
O22_2 O 0.6340(7) 0.9347(6) 0.1440(6)
H3_2 H 0.6194 0.8911 0.1039
O25_2 O 0.3470(7) 0.5206(6) 0.3421(6)
O26_2 O 0.3889(7) 0.4977(7) 0.1592(6)
O28_2 O 0.4021(8) 0.5741(8) 0.0238(7)
H4_2 H 0.3834 0.5202 0.0028
O30_2 O 0.3956(7) 0.6362(8) 0.4766(7)
H5_2 H 0.3835 0.5903 0.5003
O31_2 O 0.0148(9) 0.4209(8) 0.3861(14)
O35_2 O 0.0542(7) 0.8904(7) 0.5204(6)
H7_2 H 0.0173 0.8501 0.5353
O38_2 O 0.0522(13) 0.4429(13) 0.1618(12)
H8_2 H 0.0037 0.4073 0.1590
O42_2 O 0.2310(7) 0.6242(7) 0.6402(9)
O44_2 O 0.3673(11) 0.3589(8) 0.4084(8)
C1_2 C 0.2825(9) 0.6311(9) 0.1409(11)
C2_2 C 0.2716(8) 0.7254(7) 0.1493(8)
H9_2 H 0.3226 0.7691 0.1461
C3_2 C 0.1822(8) 0.7531(7) 0.1626(9)
C4_2 C 0.1062(9) 0.6883(10) 0.1643(14)
H10_2 H 0.0478 0.7074 0.1740
C5_2 C 0.1158(13) 0.5943(12) 0.1517(12)
C6_2 C 0.2056(11) 0.5638(12) 0.1401(11)
H11_2 H 0.2128 0.5012 0.1322
C7_2 C 0.0307(17) 0.5288(17) 0.1515(15)
C15_2 C 0.4381(7) 0.8536(7) 0.6657(7)
C16_2 C 0.4089(8) 0.9395(8) 0.6510(8)
H15_2 H 0.4531 0.9911 0.6533
C17_2 C 0.3138(7) 0.9466(8) 0.6329(7)
C18_2 C 0.2494(9) 0.8696(8) 0.6305(8)
H16_2 H 0.1857 0.8744 0.6208
C19_2 C 0.2779(9) 0.7859(8) 0.6422(9)
C20_2 C 0.3723(8) 0.7761(8) 0.6586(8)
H17_2 H 0.3910 0.7186 0.6648
C21_2 C 0.2066(10) 0.7020(10) 0.6368(12)
C22_2 C 0.1080(8) 0.7453(8) 0.4122(9)
C23_2 C 0.2019(9) 0.7278(8) 0.4064(9)
H18_2 H 0.2489 0.7775 0.4122
C24_2 C 0.2260(9) 0.6386(8) 0.3922(10)
C25_2 C 0.1583(11) 0.5650(10) 0.3869(14)
H19_2 H 0.1744 0.5051 0.3795
C26_2 C 0.0641(11) 0.5804(10) 0.3926(16)
C27_2 C 0.0391(10) 0.6701(9) 0.4066(13)
H23_2 H 0.0201878 0.992476 0.912757
H24_2 H 0.410237 0.31489 0.425612
H25_2 H 0.301248 0.331165 0.408717
O32_2 O 0.9046(8) 0.5147(9) 0.3792(15)
O37_2 O 0.9561(9) 0.5522(9) 0.1650(18)
H20_2 H 0.9768 0.6794 0.4121
C28_2 C 0.9882(11) 0.4999(11) 0.3830(18)
H21_2 H 0.992954 0.397102 0.439455
O57 O 0.6393(12) 0.5131(12) 0.4402(11)
O57_2 O 0.3607(12) 0.4869(12) 0.5598(11)
loop_
_geom_bond_atom_site_label_1
_geom_bond_atom_site_label_2
_geom_bond_site_symmetry_1
_geom_bond_site_symmetry_2
O32 C28 1_555 1_555
O36 U10 1_555 1_555
U4 O18 1_555 1_555
P1 O26 1_555 1_555
P2 O3 1_555 1_555
P4 O20 1_555 1_555
P5 O39 1_555 1_555
P7 O4 1_555 1_555
P8 O25 1_555 1_555
O7 P2 1_555 1_555
O17 H2 1_555 1_555
O19 U4 1_555 1_555
O21 P4 1_555 1_555
O22 P4 1_555 1_555
H3 O22 1_555 1_555
O25 U4 1_555 1_555
O26 U4 1_555 1_555
O27 P1 1_555 1_555
O28 P1 1_555 1_555
H4 O28 1_555 1_555
O29 P8 1_555 1_555
O30 P8 1_555 1_555
H5 O30 1_555 1_555
O35 P7 1_555 1_555
H7 O35 1_555 1_555
O38 H8 1_555 1_555
O39 U6 1_555 1_555
O40 P5 1_555 1_555
O41 P5 1_555 1_555
O42 C21 1_555 1_555
O44 U4 1_555 1_555
C1 P1 1_555 1_555
C2 C1 1_555 1_555
H9 C2 1_555 1_555
C3 P2 1_555 1_555
C4 C3 1_555 1_555
H10 C4 1_555 1_555
C5 C4 1_555 1_555
C6 C1 1_555 1_555
H11 C6 1_555 1_555
C7 O38 1_555 1_555
C15 P5 1_555 1_555
C16 C15 1_555 1_555
H15 C16 1_555 1_555
C18 C17 1_555 1_555
H16 C18 1_555 1_555
C19 C18 1_555 1_555
C20 C15 1_555 1_555
H17 C20 1_555 1_555
C21 O17 1_555 1_555
C22 P7 1_555 1_555
C23 C22 1_555 1_555
H18 C23 1_555 1_555
C24 P8 1_555 1_555
C25 C24 1_555 1_555
H19 C25 1_555 1_555
C26 C25 1_555 1_555
C27 C22 1_555 1_555
U6 O41 1_555 1_555
U8 O39 1_555 1_555
U10 O21 1_555 1_555
U12 O40 1_555 1_555
U13 O27 1_555 1_555
O48 U4 1_555 1_555
O55 U4 1_555 1_555
P2 O6 1_555 1_555
O29 U13 1_555 1_555
C2 C3 1_555 1_555
C5 C6 1_555 1_555
C5 C7 1_555 1_555
C16 C17 1_555 1_555
C19 C20 1_555 1_555
C19 C21 1_555 1_555
C23 C24 1_555 1_555
C26 C27 1_555 1_555
O44 H24 1_555 1_555
O44 H25 1_555 1_555
H1 O12 1_555 1_555
U1 O1 1_555 1_555
U3 O13 1_555 1_555
U5 O16 1_555 1_555
P3 O10 1_555 1_555
P6 O5 1_555 1_555
O5 U1 1_555 1_555
O9 U2 1_555 1_555
O10 U2 1_555 1_555
O48 P3 1_555 1_555
O15 U3 1_555 1_555
O16 P6 1_555 1_555
O23 U5 1_555 1_555
O24 U5 1_555 1_555
O33 H6 1_555 1_555
O34 C14 1_555 1_555
O43 U3 1_555 1_555
O45 U5 1_555 1_555
O46 U5 1_555 1_555
C8 P3 1_555 1_555
C9 C8 1_555 1_555
H12 C9 1_555 1_555
C10 C9 1_555 1_555
C11 C10 1_555 1_555
H13 C11 1_555 1_555
C13 C8 1_555 1_555
H14 C13 1_555 1_555
C14 O33 1_555 1_555
O50 U3 1_555 1_555
O51 U5 1_555 1_555
O52 U5 1_555 1_555
O53 U3 1_555 1_555
O54 U1 1_555 1_555
O56 U1 1_555 1_555
U2 O54 1_555 1_555
P6 O15 1_555 1_555
C10 C14 1_555 1_555
C11 C12 1_555 1_555
C12 C13 1_555 1_555
O43 H22 1_555 1_555
O46 H26 1_555 1_555
O46 H27 1_555 1_555
O45 H28 1_555 1_555
O45 H29 1_555 1_555
U6 O1_2 1_555 1_555
U10 O13_2 1_555 1_555
U13 O16_2 1_555 1_555
P3_2 O10_2 1_555 1_555
P6_2 O5_2 1_555 1_555
O5_2 U6 1_555 1_555
O9_2 U8 1_555 1_555
O10_2 U8 1_555 1_555
O11 P3_2 1_555 1_555
O15_2 U10 1_555 1_555
O16_2 P6_2 1_555 1_555
O23_2 U13 1_555 1_555
O24_2 U13 1_555 1_555
O33_2 H6_2 1_555 1_555
O34_2 C14_2 1_555 1_555
O43_2 U10 1_555 1_555
O45_2 U13 1_555 1_555
O46_2 U13 1_555 1_555
C8_2 P3_2 1_555 1_555
C9_2 C8_2 1_555 1_555
H12_2 C9_2 1_555 1_555
C10_2 C9_2 1_555 1_555
C11_2 C10_2 1_555 1_555
H13_2 C11_2 1_555 1_555
C13_2 C8_2 1_555 1_555
H14_2 C13_2 1_555 1_555
C14_2 O33_2 1_555 1_555
U12 O11 1_555 1_555
P6_2 O15_2 1_555 1_555
C10_2 C14_2 1_555 1_555
C11_2 C12_2 1_555 1_555
C12_2 C13_2 1_555 1_555
O43_2 H22_2 1_555 1_555
O46_2 H26_2 1_555 1_555
O46_2 H27_2 1_555 1_555
O45_2 H28_2 1_555 1_555
O45_2 H29_2 1_555 1_555
H1_2 O12_2 1_555 1_555
U12 O18_2 1_555 1_555
P1_2 O26_2 1_555 1_555
P2_2 O3_2 1_555 1_555
P4_2 O49 1_555 1_555
P5_2 O54 1_555 1_555
P7_2 O4_2 1_555 1_555
P8_2 O25_2 1_555 1_555
O47 P2_2 1_555 1_555
O17_2 H2_2 1_555 1_555
O19_2 U12 1_555 1_555
O50 P4_2 1_555 1_555
O22_2 P4_2 1_555 1_555
H3_2 O22_2 1_555 1_555
O25_2 U12 1_555 1_555
O26_2 U12 1_555 1_555
O51 P1_2 1_555 1_555
O28_2 P1_2 1_555 1_555
H4_2 O28_2 1_555 1_555
O52 P8_2 1_555 1_555
O30_2 P8_2 1_555 1_555
H5_2 O30_2 1_555 1_555
O35_2 P7_2 1_555 1_555
H7_2 O35_2 1_555 1_555
O38_2 H8_2 1_555 1_555
O55 P5_2 1_555 1_555
O56 P5_2 1_555 1_555
O42_2 C21_2 1_555 1_555
O44_2 U12 1_555 1_555
C1_2 P1_2 1_555 1_555
C2_2 C1_2 1_555 1_555
H9_2 C2_2 1_555 1_555
C3_2 P2_2 1_555 1_555
C4_2 C3_2 1_555 1_555
H10_2 C4_2 1_555 1_555
C5_2 C4_2 1_555 1_555
C6_2 C1_2 1_555 1_555
H11_2 C6_2 1_555 1_555
C7_2 O38_2 1_555 1_555
C15_2 P5_2 1_555 1_555
C16_2 C15_2 1_555 1_555
H15_2 C16_2 1_555 1_555
C18_2 C17_2 1_555 1_555
H16_2 C18_2 1_555 1_555
C19_2 C18_2 1_555 1_555
C20_2 C15_2 1_555 1_555
H17_2 C20_2 1_555 1_555
C21_2 O17_2 1_555 1_555
C22_2 P7_2 1_555 1_555
C23_2 C22_2 1_555 1_555
H18_2 C23_2 1_555 1_555
C24_2 P8_2 1_555 1_555
C25_2 C24_2 1_555 1_555
H19_2 C25_2 1_555 1_555
C26_2 C25_2 1_555 1_555
C27_2 C22_2 1_555 1_555
P2_2 O6_2 1_555 1_555
C2_2 C3_2 1_555 1_555
C5_2 C6_2 1_555 1_555
C5_2 C7_2 1_555 1_555
C16_2 C17_2 1_555 1_555
C19_2 C20_2 1_555 1_555
C19_2 C21_2 1_555 1_555
C23_2 C24_2 1_555 1_555
C26_2 C27_2 1_555 1_555
O44_2 H24_2 1_555 1_555
O44_2 H25_2 1_555 1_555
O32_2 C28_2 1_555 1_555

#END
