
###############################################################################
#
# This file contains modified crystal structure data generated from the
# MOF subset of the Cambridge Structural Database (CSD) v543 
# hosted by the Cambridge Crystallographic Data Centre (CCDC).
#
# This work is licensed under the Creative Commons
# Attribution-NonCommercial-ShareAlike 4.0 International License.
# To view a copy of this license, visit
# http://creativecommons.org/licenses/by-nc-sa/4.0/
# or send a letter to
# Creative Commons, PO Box 1866, Mountain View, CA 94042, USA.
#
# CIF created using the CSD Python API on 29 September 2022
# The structure has been converted into the P1 space group
# The structure has a 3D framework
# The original CSD entry LAWPEI is in the orthorhombic crystal system
# The framework has been calculated to contain at least 10.0% void space
# The void calculation uses a probe of radius 1.32A, grid spacing 0.4
#
###############################################################################

data_LAWPEI
_chemical_formula_moiety         '(C24 H16 N16 Ni6)n'
_symmetry_cell_setting           triclinic
_symmetry_space_group_name_H-M   'P 1'
_symmetry_Int_Tables_number      1
_space_group_name_Hall           'P 1'
loop_
_symmetry_equiv_pos_site_id
_symmetry_equiv_pos_as_xyz
1 x,y,z
_cell_length_a                   15.1089(8)
_cell_length_b                   6.9090(4)
_cell_length_c                   9.4550(6)
_cell_angle_alpha                90
_cell_angle_beta                 90
_cell_angle_gamma                90
_cell_volume                     986.983
loop_
_atom_site_label
_atom_site_type_symbol
_atom_site_fract_x
_atom_site_fract_y
_atom_site_fract_z
Ni3 Ni 0.000000 -0.000000 0.000000
Ni4 Ni -0.000000 0.500000 0.000000
Ni1 Ni 0.500000 0.500000 0.500000
N1 N 0.4109(2) 0.3471(5) 0.5888(4)
C1 C 0.2909(4) 0.250000 0.7088(8)
C2 C 0.3387(3) 0.4070(7) 0.6600(5)
H1 H 0.323252 0.535782 0.674324
N2 N 0.0891(2) 0.3471(5) 0.9112(4)
C3 C 0.2091(4) 0.250000 0.7912(8)
C4 C 0.1613(3) 0.4070(7) 0.8400(5)
H2 H 0.176748 0.535782 0.825676
N3 N 0.4109(2) 0.1529(5) 0.5888(4)
C5 C 0.3387(3) 0.0930(7) 0.6600(5)
N4 N 0.0891(2) 0.1529(5) 0.9112(4)
C6 C 0.1613(3) 0.0930(7) 0.8400(5)
Ni2 Ni 0.500000 -0.000000 0.500000
Ni3_2 Ni 0.000000 -0.000000 1.000000
Ni4_2 Ni -0.000000 0.500000 1.000000
N5 N 0.4109(2) 0.6529(5) 0.4112(4)
N6 N 0.5891(2) 0.6529(5) 0.4112(4)
N7 N 0.5891(2) 0.3471(5) 0.5888(4)
Ni3_3 Ni 0.000000 1.000000 0.000000
H3 H 0.323252 0.964218 0.674324
H4 H 0.176748 0.964218 0.825676
Ni2_2 Ni 0.500000 1.000000 0.500000
Ni3_4 Ni -0.000000 1.000000 1.000000
Ni3_5 Ni 1.000000 -0.000000 0.000000
Ni4_3 Ni 1.000000 0.500000 0.000000
Ni3_6 Ni 1.000000 -0.000000 1.000000
Ni4_4 Ni 1.000000 0.500000 1.000000
Ni3_7 Ni 1.000000 1.000000 0.000000
Ni3_8 Ni 1.000000 1.000000 1.000000
N1_2 N 0.5891(2) 0.1529(5) 0.5888(4)
C1_2 C 0.7091(4) 0.250000 0.7088(8)
C2_2 C 0.6613(3) 0.0930(7) 0.6600(5)
N2_2 N 0.9109(2) 0.1529(5) 0.9112(4)
C3_2 C 0.7909(4) 0.250000 0.7912(8)
C4_2 C 0.8387(3) 0.0930(7) 0.8400(5)
C5_2 C 0.6613(3) 0.4070(7) 0.6600(5)
H3_2 H 0.676748 0.535782 0.674324
N4_2 N 0.9109(2) 0.3471(5) 0.9112(4)
C6_2 C 0.8387(3) 0.4070(7) 0.8400(5)
H4_2 H 0.823252 0.535782 0.825676
H1_2 H 0.676748 0.964218 0.674324
H2_2 H 0.823252 0.964218 0.825676
N5_2 N 0.5891(2) 0.8471(5) 0.4112(4)
N6_2 N 0.4109(2) 0.8471(5) 0.4112(4)
H1_3 H 0.676748 0.035782 0.325676
H2_3 H 0.823252 0.035782 0.174324
C1_3 C 0.7091(4) 0.750000 0.2912(8)
C2_3 C 0.6613(3) 0.9070(7) 0.3400(5)
N2_3 N 0.9109(2) 0.8471(5) 0.0888(4)
C3_3 C 0.7909(4) 0.750000 0.2088(8)
C4_3 C 0.8387(3) 0.9070(7) 0.1600(5)
C5_3 C 0.6613(3) 0.5930(7) 0.3400(5)
H3_3 H 0.676748 0.464218 0.325676
N4_3 N 0.9109(2) 0.6529(5) 0.0888(4)
C6_3 C 0.8387(3) 0.5930(7) 0.1600(5)
H4_3 H 0.823252 0.464218 0.174324
H3_4 H 0.323252 0.035782 0.325676
H4_4 H 0.176748 0.035782 0.174324
C1_4 C 0.2909(4) 0.750000 0.2912(8)
C2_4 C 0.3387(3) 0.5930(7) 0.3400(5)
H1_4 H 0.323252 0.464218 0.325676
N2_4 N 0.0891(2) 0.6529(5) 0.0888(4)
C3_4 C 0.2091(4) 0.750000 0.2088(8)
C4_4 C 0.1613(3) 0.5930(7) 0.1600(5)
H2_4 H 0.176748 0.464218 0.174324
C5_4 C 0.3387(3) 0.9070(7) 0.3400(5)
N4_4 N 0.0891(2) 0.8471(5) 0.0888(4)
C6_4 C 0.1613(3) 0.9070(7) 0.1600(5)
loop_
_geom_bond_atom_site_label_1
_geom_bond_atom_site_label_2
_geom_bond_site_symmetry_1
_geom_bond_site_symmetry_2
Ni1 N1 1_555 1_555
N1 C2 1_555 1_555
C1 C2 1_555 1_555
C2 H1 1_555 1_555
N2 C4 1_555 1_555
C3 C1 1_555 1_555
C4 C3 1_555 1_555
H2 C4 1_555 1_555
N3 N1 1_555 1_555
C5 C1 1_555 1_555
N4 N2 1_555 1_555
C6 C3 1_555 1_555
Ni2 N3 1_555 1_555
Ni3_2 N4 1_555 1_555
Ni4_2 N2 1_555 1_555
N5 Ni1 1_555 1_555
N6 Ni1 1_555 1_555
N7 Ni1 1_555 1_555
N3 C5 1_555 1_555
N4 C6 1_555 1_555
Ni2 N1_2 1_555 1_555
N1_2 C2_2 1_555 1_555
C1_2 C2_2 1_555 1_555
N2_2 C4_2 1_555 1_555
C3_2 C1_2 1_555 1_555
C4_2 C3_2 1_555 1_555
N7 N1_2 1_555 1_555
C5_2 C1_2 1_555 1_555
H3_2 C5_2 1_555 1_555
N4_2 N2_2 1_555 1_555
C6_2 C3_2 1_555 1_555
H4_2 C6_2 1_555 1_555
Ni4_4 N4_2 1_555 1_555
Ni3_6 N2_2 1_555 1_555
N7 C5_2 1_555 1_555
N4_2 C6_2 1_555 1_555
N5_2 Ni2_2 1_555 1_555
N6_2 Ni2_2 1_555 1_555
N5_2 C2_3 1_555 1_555
C1_3 C2_3 1_555 1_555
N2_3 C4_3 1_555 1_555
C3_3 C1_3 1_555 1_555
C4_3 C3_3 1_555 1_555
N6 N5_2 1_555 1_555
C5_3 C1_3 1_555 1_555
H3_3 C5_3 1_555 1_555
N4_3 N2_3 1_555 1_555
C6_3 C3_3 1_555 1_555
H4_3 C6_3 1_555 1_555
Ni4_3 N4_3 1_555 1_555
Ni3_7 N2_3 1_555 1_555
N6 C5_3 1_555 1_555
N4_3 C6_3 1_555 1_555
N5 C2_4 1_555 1_555
C1_4 C2_4 1_555 1_555
C2_4 H1_4 1_555 1_555
N2_4 C4_4 1_555 1_555
C3_4 C1_4 1_555 1_555
C4_4 C3_4 1_555 1_555
H2_4 C4_4 1_555 1_555
N6_2 N5 1_555 1_555
C5_4 C1_4 1_555 1_555
N4_4 N2_4 1_555 1_555
C6_4 C3_4 1_555 1_555
Ni3_3 N4_4 1_555 1_555
Ni4 N2_4 1_555 1_555
N6_2 C5_4 1_555 1_555
N4_4 C6_4 1_555 1_555

#END
