
###############################################################################
#
# This file contains modified crystal structure data generated from the
# MOF subset of the Cambridge Structural Database (CSD) v543 
# hosted by the Cambridge Crystallographic Data Centre (CCDC).
#
# This work is licensed under the Creative Commons
# Attribution-NonCommercial-ShareAlike 4.0 International License.
# To view a copy of this license, visit
# http://creativecommons.org/licenses/by-nc-sa/4.0/
# or send a letter to
# Creative Commons, PO Box 1866, Mountain View, CA 94042, USA.
#
# CIF created using the CSD Python API on 29 September 2022
# The structure has been converted into the P1 space group
# The structure has a 3D framework
# The original CSD entry LAXMOP is in the orthorhombic crystal system
# The framework has been calculated to contain at least 10.0% void space
# The void calculation uses a probe of radius 1.32A, grid spacing 0.4
#
###############################################################################

data_LAXMOP
_chemical_formula_moiety         '(C24 H12 Mn8 N56 O2)n'
_symmetry_cell_setting           triclinic
_symmetry_space_group_name_H-M   'P 1'
_symmetry_Int_Tables_number      1
_space_group_name_Hall           'P 1'
loop_
_symmetry_equiv_pos_site_id
_symmetry_equiv_pos_as_xyz
1 x,y,z
_cell_length_a                   9.9436(11)
_cell_length_b                   7.4358(9)
_cell_length_c                   19.781(2)
_cell_angle_alpha                90
_cell_angle_beta                 90
_cell_angle_gamma                90
_cell_volume                     1462.58
loop_
_atom_site_label
_atom_site_type_symbol
_atom_site_fract_x
_atom_site_fract_y
_atom_site_fract_z
Mn4 Mn 0.11011(5) 0.7500 0.5000
N17 N 0.0591(2) 0.1600(3) 0.43378(10)
N18 N 0.0591(2) 0.3400(3) 0.56622(10)
Mn7 Mn 0.51101(5) 0.02650(6) 0.7500
Mn1 Mn 0.88989(5) 0.2500 0.5000
Mn2 Mn 0.48899(5) 0.52650(6) 0.7500
O1 O 0.6320(2) 0.7614(3) 0.7500
N2 N 0.6222(2) 0.1930(3) 0.67235(10)
N4 N 0.5897(2) 0.3723(3) 0.66564(10)
N5 N 0.7287(2) 0.3057(3) 0.58246(10)
C1 C 0.6533(2) 0.4332(3) 0.61186(12)
H1 H 0.6467 0.5508 0.5961
C2 C 0.7065(2) 0.1608(3) 0.62176(11)
H2 H 0.685(3) 0.773(5) 0.7185(14)
H3 H 0.685(3) 0.773(5) 0.7815(14)
N8 N 0.87674(19) 0.5011(2) 0.43923(10)
N9 N 0.6222(2) 0.3070(3) 0.32765(10)
N10 N 0.9409(2) 0.6600(3) 0.43378(10)
N11 N 0.5897(2) 0.1277(3) 0.33436(10)
N12 N 0.7287(2) 0.1943(3) 0.41754(10)
N13 N 0.7850(2) 0.6552(3) 0.35567(11)
N14 N 0.8857(2) 0.7519(3) 0.38418(12)
C4 C 0.6533(2) 0.0668(3) 0.38814(12)
C5 C 0.7065(2) 0.3392(3) 0.37824(11)
C6 C 0.7840(2) 0.5023(3) 0.39062(11)
Mn5 Mn 0.51101(5) 0.47350(6) 0.2500
O2 O 0.3680(2) 0.2614(3) 0.7500
N15 N 0.3778(2) 0.6930(3) 0.82765(10)
N16 N 0.3778(2) 0.6930(3) 0.67235(10)
N19 N 0.5897(2) 0.3723(3) 0.83436(10)
N1 N 0.87674(19) 0.9989(2) 0.56077(10)
N3 N 0.9409(2) 0.8400(3) 0.56622(10)
N6 N 0.7850(2) 0.8448(3) 0.64433(11)
N7 N 0.8857(2) 0.7481(3) 0.61582(12)
C3 C 0.7840(2) 0.9977(3) 0.60938(11)
H4 H 0.6467 0.9492 0.4039
Mn8 Mn 0.48899(5) 0.97350(6) 0.2500
N1_2 N 0.12326(19) 0.0011(2) 0.06077(10)
N3_2 N 0.0591(2) 0.1600(3) 0.06622(10)
N6_2 N 0.2150(2) 0.1552(3) 0.14433(11)
N7_2 N 0.1143(2) 0.2519(3) 0.11582(12)
C3_2 C 0.2160(2) 0.0023(3) 0.10938(11)
H4_2 H 0.3533 0.0508 0.9039
Mn1_2 Mn 0.11011(5) 0.7500 -0.0000
O1_2 O 0.3680(2) 0.2386(3) 0.2500
N2_2 N 0.3778(2) 0.8070(3) 0.17235(10)
N4_2 N 0.4103(2) 0.6277(3) 0.16564(10)
N5_2 N 0.2713(2) 0.6943(3) 0.08246(10)
C1_2 C 0.3467(2) 0.5668(3) 0.11186(12)
H1_2 H 0.3533 0.4492 0.0961
C2_2 C 0.2935(2) 0.8392(3) 0.12176(11)
H2_2 H 0.315(3) 0.227(5) 0.2185(14)
H3_2 H 0.315(3) 0.227(5) 0.2815(14)
O2_2 O 0.6320(2) 0.7386(3) 0.2500
N16_2 N 0.6222(2) 0.3070(3) 0.17235(10)
N19_2 N 0.4103(2) 0.6277(3) 0.33436(10)
Mn1_3 Mn 0.11011(5) 0.7500 1.0000
N8_2 N 0.12326(19) 0.4989(2) 0.93923(10)
N10_2 N 0.0591(2) 0.3400(3) 0.93378(10)
N11_2 N 0.4103(2) 0.8723(3) 0.83436(10)
N12_2 N 0.2713(2) 0.8057(3) 0.91754(10)
N13_2 N 0.2150(2) 0.3448(3) 0.85567(11)
N14_2 N 0.1143(2) 0.2481(3) 0.88418(12)
C4_2 C 0.3467(2) 0.9332(3) 0.88814(12)
C5_2 C 0.2935(2) 0.6608(3) 0.87824(11)
C6_2 C 0.2160(2) 0.4977(3) 0.89062(11)
Mn3 Mn 0.88989(5) 0.2500 -0.0000
Mn3_2 Mn 0.88989(5) 0.2500 1.0000
N18_2 N 0.9409(2) 0.6600(3) 0.06622(10)
N17_2 N 0.9409(2) 0.8400(3) 0.93378(10)
H2_3 H 0.315(3) 0.273(5) 0.7815(14)
H3_3 H 0.315(3) 0.273(5) 0.7185(14)
N16_3 N 0.6222(2) 0.1930(3) 0.82765(10)
N19_3 N 0.4103(2) 0.8723(3) 0.66564(10)
N19_4 N 0.5897(2) 0.1277(3) 0.16564(10)
H2_4 H 0.685(3) 0.727(5) 0.2815(14)
H3_4 H 0.685(3) 0.727(5) 0.2185(14)
N16_4 N 0.3778(2) 0.8070(3) 0.32765(10)
N1_3 N 0.12326(19) 0.0011(2) 0.43923(10)
N6_3 N 0.2150(2) 0.1552(3) 0.35567(11)
N7_3 N 0.1143(2) 0.2519(3) 0.38418(12)
C3_3 C 0.2160(2) 0.0023(3) 0.39062(11)
H4_3 H 0.3533 0.0508 0.5961
N5_3 N 0.2713(2) 0.6943(3) 0.41754(10)
C1_3 C 0.3467(2) 0.5668(3) 0.38814(12)
H1_3 H 0.3533 0.4492 0.4039
C2_3 C 0.2935(2) 0.8392(3) 0.37824(11)
N8_3 N 0.12326(19) 0.4989(2) 0.56077(10)
N12_3 N 0.2713(2) 0.8057(3) 0.58246(10)
N13_3 N 0.2150(2) 0.3448(3) 0.64433(11)
N14_3 N 0.1143(2) 0.2481(3) 0.61582(12)
C4_3 C 0.3467(2) 0.9332(3) 0.61186(12)
C5_3 C 0.2935(2) 0.6608(3) 0.62176(11)
C6_3 C 0.2160(2) 0.4977(3) 0.60938(11)
N8_4 N 0.87674(19) 0.5011(2) 0.06077(10)
N12_4 N 0.7287(2) 0.1943(3) 0.08246(10)
N13_4 N 0.7850(2) 0.6552(3) 0.14433(11)
N14_4 N 0.8857(2) 0.7519(3) 0.11582(12)
C4_4 C 0.6533(2) 0.0668(3) 0.11186(12)
C5_4 C 0.7065(2) 0.3392(3) 0.12176(11)
C6_4 C 0.7840(2) 0.5023(3) 0.10938(11)
N5_4 N 0.7287(2) 0.3057(3) 0.91754(10)
C1_4 C 0.6533(2) 0.4332(3) 0.88814(12)
H1_4 H 0.6467 0.5508 0.9039
C2_4 C 0.7065(2) 0.1608(3) 0.87824(11)
H4_4 H 0.6467 0.9492 0.0961
N1_4 N 0.87674(19) 0.9989(2) 0.93923(10)
N6_4 N 0.7850(2) 0.8448(3) 0.85567(11)
N7_4 N 0.8857(2) 0.7481(3) 0.88418(12)
C3_4 C 0.7840(2) 0.9977(3) 0.89062(11)
loop_
_geom_bond_atom_site_label_1
_geom_bond_atom_site_label_2
_geom_bond_site_symmetry_1
_geom_bond_site_symmetry_2
Mn2 O1 1_555 1_555
O1 H2 1_555 1_555
N2 N4 1_555 1_555
N4 Mn2 1_555 1_555
N5 Mn1 1_555 1_555
C1 N4 1_555 1_555
H1 C1 1_555 1_555
C2 N2 1_555 1_555
H3 O1 1_555 1_555
N8 Mn1 1_555 1_555
N9 N11 1_555 1_555
N10 N8 1_555 1_555
N11 C4 1_555 1_555
N12 Mn1 1_555 1_555
N13 N14 1_555 1_555
N14 N10 1_555 1_555
C4 N12 1_555 1_555
C5 N9 1_555 1_555
C6 N8 1_555 1_555
Mn5 N9 1_555 1_555
Mn7 N2 1_555 1_555
O2 Mn2 1_555 1_555
N15 Mn2 1_555 1_555
N16 Mn2 1_555 1_555
N19 Mn2 1_555 1_555
N5 C1 1_555 1_555
N5 C2 1_555 1_555
N12 C5 1_555 1_555
N13 C6 1_555 1_555
C5 C6 1_555 1_555
Mn7 O2 1_555 1_555
N1 N3 1_555 1_555
N3 N7 1_555 1_555
N6 N7 1_555 1_555
C3 N1 1_555 1_555
N6 C3 1_555 1_555
N1_2 N3_2 1_555 1_555
N3_2 N7_2 1_555 1_555
N6_2 N7_2 1_555 1_555
C3_2 N1_2 1_555 1_555
N6_2 C3_2 1_555 1_555
Mn5 O1_2 1_555 1_555
O1_2 H2_2 1_555 1_555
N2_2 N4_2 1_555 1_555
N4_2 Mn5 1_555 1_555
N5_2 Mn1_2 1_555 1_555
C1_2 N4_2 1_555 1_555
H1_2 C1_2 1_555 1_555
C2_2 N2_2 1_555 1_555
H3_2 O1_2 1_555 1_555
Mn8 N2_2 1_555 1_555
O2_2 Mn5 1_555 1_555
N16_2 Mn5 1_555 1_555
N19_2 Mn5 1_555 1_555
N5_2 C1_2 1_555 1_555
N5_2 C2_2 1_555 1_555
Mn8 O2_2 1_555 1_555
N8_2 Mn1_3 1_555 1_555
N15 N11_2 1_555 1_555
N10_2 N8_2 1_555 1_555
N11_2 C4_2 1_555 1_555
N12_2 Mn1_3 1_555 1_555
N13_2 N14_2 1_555 1_555
N14_2 N10_2 1_555 1_555
C4_2 N12_2 1_555 1_555
C5_2 N15 1_555 1_555
C6_2 N8_2 1_555 1_555
N12_2 C5_2 1_555 1_555
N13_2 C6_2 1_555 1_555
C5_2 C6_2 1_555 1_555
O2 H2_3 1_555 1_555
H3_3 O2 1_555 1_555
N16_3 Mn7 1_555 1_555
O2_2 H2_4 1_555 1_555
H3_4 O2_2 1_555 1_555
N16_4 Mn8 1_555 1_555
N1_3 N17 1_555 1_555
N17 N7_3 1_555 1_555
N6_3 N7_3 1_555 1_555
C3_3 N1_3 1_555 1_555
N6_3 C3_3 1_555 1_555
N16_4 N19_2 1_555 1_555
N5_3 Mn4 1_555 1_555
C1_3 N19_2 1_555 1_555
H1_3 C1_3 1_555 1_555
C2_3 N16_4 1_555 1_555
N8_3 Mn4 1_555 1_555
N16 N19_3 1_555 1_555
N18 N8_3 1_555 1_555
N19_3 C4_3 1_555 1_555
N12_3 Mn4 1_555 1_555
N13_3 N14_3 1_555 1_555
N14_3 N18 1_555 1_555
C4_3 N12_3 1_555 1_555
C5_3 N16 1_555 1_555
C6_3 N8_3 1_555 1_555
N5_3 C1_3 1_555 1_555
N5_3 C2_3 1_555 1_555
N12_3 C5_3 1_555 1_555
N13_3 C6_3 1_555 1_555
C5_3 C6_3 1_555 1_555
N8_4 Mn3 1_555 1_555
N16_2 N19_4 1_555 1_555
N18_2 N8_4 1_555 1_555
N19_4 C4_4 1_555 1_555
N12_4 Mn3 1_555 1_555
N13_4 N14_4 1_555 1_555
N14_4 N18_2 1_555 1_555
C4_4 N12_4 1_555 1_555
C5_4 N16_2 1_555 1_555
C6_4 N8_4 1_555 1_555
N12_4 C5_4 1_555 1_555
N13_4 C6_4 1_555 1_555
C5_4 C6_4 1_555 1_555
N16_3 N19 1_555 1_555
N5_4 Mn3_2 1_555 1_555
C1_4 N19 1_555 1_555
H1_4 C1_4 1_555 1_555
C2_4 N16_3 1_555 1_555
N5_4 C1_4 1_555 1_555
N5_4 C2_4 1_555 1_555
N1_4 N17_2 1_555 1_555
N17_2 N7_4 1_555 1_555
N6_4 N7_4 1_555 1_555
C3_4 N1_4 1_555 1_555
N6_4 C3_4 1_555 1_555

#END
