
###############################################################################
#
# This file contains modified crystal structure data generated from the
# MOF subset of the Cambridge Structural Database (CSD) v543 
# hosted by the Cambridge Crystallographic Data Centre (CCDC).
#
# This work is licensed under the Creative Commons
# Attribution-NonCommercial-ShareAlike 4.0 International License.
# To view a copy of this license, visit
# http://creativecommons.org/licenses/by-nc-sa/4.0/
# or send a letter to
# Creative Commons, PO Box 1866, Mountain View, CA 94042, USA.
#
# CIF created using the CSD Python API on 29 September 2022
# The structure has been converted into the P1 space group
# The structure has a 3D framework
# The original CSD entry LAZHUR is in the monoclinic crystal system
# The framework has been calculated to contain at least 10.0% void space
# The void calculation uses a probe of radius 1.32A, grid spacing 0.4
# H atom positions have been added when not included in the experimental data
# Generated hydrogen atom positions removed from atoms on special positions
#
###############################################################################

data_LAZHUR
_chemical_formula_moiety         '(C82 H80 Co7 N8 O28)n'
_symmetry_cell_setting           triclinic
_symmetry_space_group_name_H-M   'P 1'
_symmetry_Int_Tables_number      1
_space_group_name_Hall           'P 1'
loop_
_symmetry_equiv_pos_site_id
_symmetry_equiv_pos_as_xyz
1 x,y,z
_cell_length_a                   10.4063(12)
_cell_length_b                   9.3137(11)
_cell_length_c                   23.889(3)
_cell_angle_alpha                90
_cell_angle_beta                 91.603(2)
_cell_angle_gamma                90
_cell_volume                     2314.44
loop_
_atom_site_label
_atom_site_type_symbol
_atom_site_fract_x
_atom_site_fract_y
_atom_site_fract_z
Co4 Co -0.0000 0.14072(6) 0.7500
C2 C 0.6145(3) 0.7535(3) 0.73482(13)
H2 H 0.5991 0.7079 0.6988
H3 H 0.6914 0.8119 0.7328
C9 C 0.7059(3) 0.5351(4) 0.76848(14)
C13 C 0.7080(4) 0.4259(4) 0.80776(17)
H8 H 0.6576 0.4316 0.8392
C15 C 0.5000 0.8458(4) 0.7500
C16 C 0.7818(4) 0.5207(4) 0.72289(15)
H10 H 0.7819 0.5909 0.6952
C19 C 0.8570(4) 0.4016(4) 0.71887(16)
H13 H 0.9096 0.3940 0.6882
C20 C 0.7855(4) 0.3090(4) 0.79959(17)
H14 H 0.7853 0.2360 0.8261
Co1 Co -0.0000 0.85928(6) 0.2500
N1 N 0.8600(3) 0.2941(3) 0.75657(12)
O3 O 0.0477(3) 0.9633(3) 0.31790(11)
O6 O 0.6297(3) 0.6468(2) 0.77813(10)
C21 C 0.4597(3) 0.9373(3) 0.69991(13)
H15 H 0.4299 0.8764 0.6693
C23 C 0.3855(3) 0.7535(3) 0.76518(13)
H18 H 0.4009 0.7079 0.8012
H19 H 0.3086 0.8119 0.7672
C30 C 0.2941(3) 0.5351(4) 0.73152(14)
C34 C 0.2920(4) 0.4259(4) 0.69224(17)
H24 H 0.3424 0.4316 0.6608
C36 C 0.2182(4) 0.5207(4) 0.77711(15)
H26 H 0.2181 0.5909 0.8048
C39 C 0.1430(4) 0.4016(4) 0.78113(16)
H29 H 0.0904 0.3940 0.8118
C40 C 0.2145(4) 0.3090(4) 0.70041(17)
H30 H 0.2147 0.2360 0.6739
Co4_2 Co 1.0000 0.14072(6) 0.7500
N3 N 0.1400(3) 0.2941(3) 0.74343(12)
N4 N 0.1400(3) 0.7059(3) 0.24343(12)
O14 O 0.3703(3) 0.6468(2) 0.72187(10)
C41 C 0.5403(3) 0.9373(3) 0.80009(13)
H31 H 0.5701 0.8764 0.8307
Co1_2 Co 1.0000 0.85928(6) 0.2500
N5 N 0.8600(3) 0.7059(3) 0.25657(12)
O11 O 0.9523(3) 0.9633(3) 0.18210(11)
O11_2 O 0.0477(3) 0.0367(3) 0.81790(11)
C2_2 C 0.3855(3) 0.2465(3) 0.26518(13)
H2_2 H 0.4009 0.2921 0.3012
H3_2 H 0.3086 0.1881 0.2672
C9_2 C 0.2941(3) 0.4649(4) 0.23152(14)
C13_2 C 0.2920(4) 0.5741(4) 0.19224(17)
H8_2 H 0.3424 0.5684 0.1608
C15_2 C 0.5000 0.1542(4) 0.2500
C16_2 C 0.2182(4) 0.4793(4) 0.27711(15)
H10_2 H 0.2181 0.4091 0.3048
C19_2 C 0.1430(4) 0.5984(4) 0.28113(16)
H13_2 H 0.0904 0.6060 0.3118
C20_2 C 0.2145(4) 0.6910(4) 0.20041(17)
H14_2 H 0.2147 0.7640 0.1739
O3_2 O 0.9523(3) 0.0367(3) 0.68210(11)
O6_2 O 0.3703(3) 0.3532(2) 0.22187(10)
C21_2 C 0.5403(3) 0.0627(3) 0.30009(13)
H15_2 H 0.5701 0.1236 0.3307
C23_2 C 0.6145(3) 0.2465(3) 0.23482(13)
H18_2 H 0.5991 0.2921 0.1988
H19_2 H 0.6914 0.1881 0.2328
C30_2 C 0.7059(3) 0.4649(4) 0.26848(14)
C34_2 C 0.7080(4) 0.5741(4) 0.30776(17)
H24_2 H 0.6576 0.5684 0.3392
C36_2 C 0.7818(4) 0.4793(4) 0.22289(15)
H26_2 H 0.7819 0.4091 0.1952
C39_2 C 0.8570(4) 0.5984(4) 0.21887(16)
H29_2 H 0.9096 0.6060 0.1882
C40_2 C 0.7855(4) 0.6910(4) 0.29959(17)
H30_2 H 0.7853 0.7640 0.3261
O14_2 O 0.6297(3) 0.3532(2) 0.27813(10)
C41_2 C 0.4597(3) 0.0627(3) 0.19991(13)
H31_2 H 0.4299 0.1236 0.1693
Co5 Co 0.5000 0.5000 0.0000
C1 C 0.1259(3) 0.1962(4) 0.38280(13)
H1 H 0.1879 0.1306 0.3721
C3 C 0.4350(4) 0.1338(4) 0.61171(15)
H4 H 0.3643 0.0752 0.6177
C4 C 0.0687(4) 0.4080(4) 0.43235(16)
H5 H 0.0915 0.4841 0.4558
C6 C 0.1609(3) 0.3115(4) 0.41660(13)
C8 C 0.5490(3) 0.1139(4) 0.64202(14)
C10 C 0.4284(4) 0.2413(4) 0.57282(15)
H6 H 0.3508 0.2535 0.5531
C11 C 0.3002(4) 0.3308(4) 0.43415(15)
C14 C 0.6519(4) 0.1967(5) 0.6279(2)
H9 H 0.7324 0.1811 0.6447
C18 C 0.6346(4) 0.3026(5) 0.5888(2)
H12 H 0.7050 0.3601 0.5809
Co2 Co 0.5000 0.5000 0.5000
N2 N 0.5242(3) 0.3297(3) 0.56093(12)
O1 O 0.3817(3) 0.2642(4) 0.40783(14)
O2 O 0.3241(2) 0.4192(2) 0.47290(9)
O5 O 0.5679(2) 0.0190(2) 0.68343(10)
O7 O 0.6003(3) 0.3719(3) 0.44014(11)
H16 H 0.3901 0.0009 0.7098
C24 C 0.5650(4) 0.1338(4) 0.88829(15)
H20 H 0.6357 0.0752 0.8823
C26 C 0.0012(3) 0.1777(4) 0.13519(14)
C28 C 0.0390(4) 0.0537(4) 0.17094(16)
C29 C 0.4510(3) 0.1139(4) 0.85798(14)
C31 C 0.5716(4) 0.2413(4) 0.92718(15)
H22 H 0.6492 0.2535 0.9469
C33 C 0.0920(4) 0.2771(4) 0.11973(17)
H23 H 0.1771 0.2661 0.1319
C35 C 0.3481(4) 0.1967(5) 0.8721(2)
H25 H 0.2676 0.1811 0.8553
C37 C 0.0573(4) 0.3932(5) 0.08626(18)
H27 H 0.1186 0.4607 0.0764
C38 C 0.3654(4) 0.3026(5) 0.9112(2)
H28 H 0.2950 0.3601 0.9191
Co5_2 Co 0.5000 0.5000 1.0000
N6 N 0.4758(3) 0.3297(3) 0.93907(12)
N7 N 0.4758(3) 0.6703(3) 0.43907(12)
O10 O 0.6759(2) 0.5808(2) 0.52710(9)
O12 O 0.1489(3) 0.0418(4) 0.18996(18)
O13 O 0.4321(2) 0.0190(2) 0.81657(10)
O15 O 0.3997(3) 0.6281(3) 0.55986(11)
H32 H 0.6099 0.0009 0.7902
C5 C 0.9988(3) 0.1777(4) 0.36481(14)
C7 C 0.9610(4) 0.0537(4) 0.32906(16)
C12 C 0.9080(4) 0.2771(4) 0.38027(17)
H7 H 0.8229 0.2661 0.3681
C17 C 0.9427(4) 0.3932(5) 0.41374(18)
H11 H 0.8814 0.4607 0.4236
O4 O 0.8511(3) 0.0418(4) 0.31004(18)
C22 C 0.8741(3) 0.1962(4) 0.11720(13)
H17 H 0.8121 0.1306 0.1279
C25 C 0.9313(4) 0.4080(4) 0.06765(16)
H21 H 0.9085 0.4841 0.0442
C27 C 0.8391(3) 0.3115(4) 0.08340(13)
C32 C 0.6998(4) 0.3308(4) 0.06585(15)
O8 O 0.6183(3) 0.2642(4) 0.09217(14)
O9 O 0.6759(2) 0.4192(2) 0.02710(9)
O7_2 O 0.3997(3) 0.3719(3) 0.05986(11)
N7_2 N 0.5242(3) 0.6703(3) 0.06093(12)
O10_2 O 0.3241(2) 0.5808(2) 0.97290(9)
O15_2 O 0.6003(3) 0.6281(3) 0.94014(11)
C5_2 C 0.0012(3) 0.8223(4) 0.63519(14)
C7_2 C 0.0390(4) 0.9463(4) 0.67094(16)
C12_2 C 0.0920(4) 0.7229(4) 0.61973(17)
H7_2 H 0.1771 0.7339 0.6319
C17_2 C 0.0573(4) 0.6068(5) 0.58626(18)
H11_2 H 0.1186 0.5393 0.5764
O4_2 O 0.1489(3) 0.9582(4) 0.68996(18)
C22_2 C 0.1259(3) 0.8038(4) 0.88280(13)
H17_2 H 0.1879 0.8694 0.8721
C25_2 C 0.0687(4) 0.5920(4) 0.93235(16)
H21_2 H 0.0915 0.5159 0.9558
C27_2 C 0.1609(3) 0.6885(4) 0.91660(13)
C32_2 C 0.3002(4) 0.6692(4) 0.93415(15)
O8_2 O 0.3817(3) 0.7358(4) 0.90783(14)
C1_2 C 0.8741(3) 0.8038(4) 0.61720(13)
H1_2 H 0.8121 0.8694 0.6279
C3_2 C 0.5650(4) 0.8662(4) 0.38829(15)
H4_2 H 0.6357 0.9248 0.3823
C4_2 C 0.9313(4) 0.5920(4) 0.56765(16)
H5_2 H 0.9085 0.5159 0.5442
C6_2 C 0.8391(3) 0.6885(4) 0.58340(13)
C8_2 C 0.4510(3) 0.8861(4) 0.35798(14)
C10_2 C 0.5716(4) 0.7587(4) 0.42718(15)
H6_2 H 0.6492 0.7465 0.4469
C11_2 C 0.6998(4) 0.6692(4) 0.56585(15)
C14_2 C 0.3481(4) 0.8033(5) 0.3721(2)
H9_2 H 0.2676 0.8189 0.3553
C18_2 C 0.3654(4) 0.6974(5) 0.4112(2)
H12_2 H 0.2950 0.6399 0.4191
O1_2 O 0.6183(3) 0.7358(4) 0.59217(14)
O5_2 O 0.4321(2) 0.9810(2) 0.31657(10)
H16_2 H 0.6099 0.9991 0.2902
C24_2 C 0.4350(4) 0.8662(4) 0.11171(15)
H20_2 H 0.3643 0.9248 0.1177
C26_2 C 0.9988(3) 0.8223(4) 0.86481(14)
C28_2 C 0.9610(4) 0.9463(4) 0.82906(16)
C29_2 C 0.5490(3) 0.8861(4) 0.14202(14)
C31_2 C 0.4284(4) 0.7587(4) 0.07282(15)
H22_2 H 0.3508 0.7465 0.0531
C33_2 C 0.9080(4) 0.7229(4) 0.88027(17)
H23_2 H 0.8229 0.7339 0.8681
C35_2 C 0.6519(4) 0.8033(5) 0.1279(2)
H25_2 H 0.7324 0.8189 0.1447
C37_2 C 0.9427(4) 0.6068(5) 0.91374(18)
H27_2 H 0.8814 0.5393 0.9236
C38_2 C 0.6346(4) 0.6974(5) 0.0888(2)
H28_2 H 0.7050 0.6399 0.0809
O12_2 O 0.8511(3) 0.9582(4) 0.81004(18)
O13_2 O 0.5679(2) 0.9810(2) 0.18343(10)
H32_2 H 0.3901 0.9991 0.2098
loop_
_geom_bond_atom_site_label_1
_geom_bond_atom_site_label_2
_geom_bond_site_symmetry_1
_geom_bond_site_symmetry_2
C2 H2 1_555 1_555
H3 C2 1_555 1_555
C9 C13 1_555 1_555
C13 H8 1_555 1_555
C15 C2 1_555 1_555
C16 C9 1_555 1_555
H10 C16 1_555 1_555
C19 C16 1_555 1_555
H13 C19 1_555 1_555
C20 C13 1_555 1_555
H14 C20 1_555 1_555
Co1 O3 1_555 1_555
N1 C19 1_555 1_555
O6 C2 1_555 1_555
C21 C15 1_555 1_555
H15 C21 1_555 1_555
C23 C15 1_555 1_555
H18 C23 1_555 1_555
H19 C23 1_555 1_555
C30 C34 1_555 1_555
C34 H24 1_555 1_555
C36 C30 1_555 1_555
H26 C36 1_555 1_555
C39 C36 1_555 1_555
H29 C39 1_555 1_555
C40 C34 1_555 1_555
H30 C40 1_555 1_555
Co4 N3 1_555 1_555
Co4_2 N1 1_555 1_555
N3 C39 1_555 1_555
N4 Co1 1_555 1_555
O14 C23 1_555 1_555
C41 C15 1_555 1_555
H31 C41 1_555 1_555
C9 O6 1_555 1_555
C20 N1 1_555 1_555
C30 O14 1_555 1_555
C40 N3 1_555 1_555
N5 Co1_2 1_555 1_555
O11 Co1_2 1_555 1_555
O11_2 Co4 1_555 1_555
C2_2 H2_2 1_555 1_555
H3_2 C2_2 1_555 1_555
C9_2 C13_2 1_555 1_555
C13_2 H8_2 1_555 1_555
C15_2 C2_2 1_555 1_555
C16_2 C9_2 1_555 1_555
H10_2 C16_2 1_555 1_555
C19_2 C16_2 1_555 1_555
H13_2 C19_2 1_555 1_555
C20_2 C13_2 1_555 1_555
H14_2 C20_2 1_555 1_555
Co4_2 O3_2 1_555 1_555
N4 C19_2 1_555 1_555
O6_2 C2_2 1_555 1_555
C21_2 C15_2 1_555 1_555
H15_2 C21_2 1_555 1_555
C23_2 C15_2 1_555 1_555
H18_2 C23_2 1_555 1_555
H19_2 C23_2 1_555 1_555
C30_2 C34_2 1_555 1_555
C34_2 H24_2 1_555 1_555
C36_2 C30_2 1_555 1_555
H26_2 C36_2 1_555 1_555
C39_2 C36_2 1_555 1_555
H29_2 C39_2 1_555 1_555
C40_2 C34_2 1_555 1_555
H30_2 C40_2 1_555 1_555
N5 C39_2 1_555 1_555
O14_2 C23_2 1_555 1_555
C41_2 C15_2 1_555 1_555
H31_2 C41_2 1_555 1_555
C9_2 O6_2 1_555 1_555
C20_2 N4 1_555 1_555
C30_2 O14_2 1_555 1_555
C40_2 N5 1_555 1_555
C1 H1 1_555 1_555
C3 H4 1_555 1_555
C4 H5 1_555 1_555
C6 C1 1_555 1_555
C8 C3 1_555 1_555
C10 C3 1_555 1_555
H6 C10 1_555 1_555
C11 C6 1_555 1_555
C14 C8 1_555 1_555
H9 C14 1_555 1_555
C18 C14 1_555 1_555
H12 C18 1_555 1_555
Co2 N2 1_555 1_555
N2 C10 1_555 1_555
O1 C11 1_555 1_555
O2 C11 1_555 1_555
O5 C8 1_555 1_555
O7 Co2 1_555 1_555
C24 H20 1_555 1_555
C28 C26 1_555 1_555
C29 C24 1_555 1_555
C31 C24 1_555 1_555
H22 C31 1_555 1_555
C33 C26 1_555 1_555
H23 C33 1_555 1_555
C35 C29 1_555 1_555
H25 C35 1_555 1_555
H27 C37 1_555 1_555
C38 C35 1_555 1_555
H28 C38 1_555 1_555
Co5_2 N6 1_555 1_555
N6 C31 1_555 1_555
N7 Co2 1_555 1_555
O10 Co2 1_555 1_555
O12 C28 1_555 1_555
O13 C29 1_555 1_555
O15 Co2 1_555 1_555
C4 C6 1_555 1_555
C18 N2 1_555 1_555
Co2 O2 1_555 1_555
C33 C37 1_555 1_555
C38 N6 1_555 1_555
C7 C5 1_555 1_555
C12 C5 1_555 1_555
H7 C12 1_555 1_555
H11 C17 1_555 1_555
O4 C7 1_555 1_555
C22 H17 1_555 1_555
C25 H21 1_555 1_555
C27 C22 1_555 1_555
C32 C27 1_555 1_555
Co5 O9 1_555 1_555
O8 C32 1_555 1_555
O9 C32 1_555 1_555
C12 C17 1_555 1_555
C25 C27 1_555 1_555
O7_2 Co5 1_555 1_555
N7_2 Co5 1_555 1_555
O10_2 Co5_2 1_555 1_555
O15_2 Co5_2 1_555 1_555
C7_2 C5_2 1_555 1_555
C12_2 C5_2 1_555 1_555
H7_2 C12_2 1_555 1_555
H11_2 C17_2 1_555 1_555
O4_2 C7_2 1_555 1_555
C22_2 H17_2 1_555 1_555
C25_2 H21_2 1_555 1_555
C27_2 C22_2 1_555 1_555
C32_2 C27_2 1_555 1_555
O8_2 C32_2 1_555 1_555
O10_2 C32_2 1_555 1_555
C12_2 C17_2 1_555 1_555
C25_2 C27_2 1_555 1_555
C1_2 H1_2 1_555 1_555
C3_2 H4_2 1_555 1_555
C4_2 H5_2 1_555 1_555
C6_2 C1_2 1_555 1_555
C8_2 C3_2 1_555 1_555
C10_2 C3_2 1_555 1_555
H6_2 C10_2 1_555 1_555
C11_2 C6_2 1_555 1_555
C14_2 C8_2 1_555 1_555
H9_2 C14_2 1_555 1_555
C18_2 C14_2 1_555 1_555
H12_2 C18_2 1_555 1_555
N7 C10_2 1_555 1_555
O1_2 C11_2 1_555 1_555
O10 C11_2 1_555 1_555
O5_2 C8_2 1_555 1_555
C24_2 H20_2 1_555 1_555
C28_2 C26_2 1_555 1_555
C29_2 C24_2 1_555 1_555
C31_2 C24_2 1_555 1_555
H22_2 C31_2 1_555 1_555
C33_2 C26_2 1_555 1_555
H23_2 C33_2 1_555 1_555
C35_2 C29_2 1_555 1_555
H25_2 C35_2 1_555 1_555
H27_2 C37_2 1_555 1_555
C38_2 C35_2 1_555 1_555
H28_2 C38_2 1_555 1_555
N7_2 C31_2 1_555 1_555
O12_2 C28_2 1_555 1_555
O13_2 C29_2 1_555 1_555
C4_2 C6_2 1_555 1_555
C18_2 N7 1_555 1_555
C33_2 C37_2 1_555 1_555
C38_2 N7_2 1_555 1_555

#END
