
###############################################################################
#
# This file contains modified crystal structure data generated from the
# MOF subset of the Cambridge Structural Database (CSD) v543 
# hosted by the Cambridge Crystallographic Data Centre (CCDC).
#
# This work is licensed under the Creative Commons
# Attribution-NonCommercial-ShareAlike 4.0 International License.
# To view a copy of this license, visit
# http://creativecommons.org/licenses/by-nc-sa/4.0/
# or send a letter to
# Creative Commons, PO Box 1866, Mountain View, CA 94042, USA.
#
# CIF created using the CSD Python API on 29 September 2022
# The structure has been converted into the P1 space group
# The structure has a 3D framework
# The original CSD entry LAZJAZ is in the monoclinic crystal system
# The original CSD entry LAZJAZ is in a Sohncke space group
# The framework has been calculated to contain at least 10.0% void space
# The void calculation uses a probe of radius 1.32A, grid spacing 0.4
# H atom positions have been added when not included in the experimental data
#
###############################################################################

data_LAZJAZ
_chemical_formula_moiety         '(C44 H32 N4 O14 Zn2)n'
_symmetry_cell_setting           triclinic
_symmetry_space_group_name_H-M   'P 1'
_symmetry_Int_Tables_number      1
_space_group_name_Hall           'P 1'
loop_
_symmetry_equiv_pos_site_id
_symmetry_equiv_pos_as_xyz
1 x,y,z
_cell_length_a                   10.7263(16)
_cell_length_b                   9.0056(13)
_cell_length_c                   12.9899(19)
_cell_angle_alpha                90
_cell_angle_beta                 104.047(3)
_cell_angle_gamma                90
_cell_volume                     1217.26
loop_
_atom_site_label
_atom_site_type_symbol
_atom_site_fract_x
_atom_site_fract_y
_atom_site_fract_z
Zn2 Zn 0.0000 0.06554(7) 0.5000
N5 N 0.0024(3) 0.2052(4) 0.6238(3)
H29 H 0.4070 0.0076 0.5831
H31 H 0.644818 0.077409 0.66479
C7 C -0.0000 0.6590(7) 0.0000
C9 C 0.2116(4) 0.9817(5) 0.0303(3)
O5 O 0.1367(3) 0.8711(4) 0.0487(2)
C22 C 0.0993(4) 0.2578(6) 0.3494(4)
H16 H 0.1795 0.2242 0.3868
C23 C 0.0949(4) 0.3592(5) 0.2698(3)
H17 H 0.1700 0.3972 0.2563
C27 C 0.0589(4) 0.5624(6) 0.0958(3)
H20 H 0.1153 0.4883 0.0773
H21 H 0.1081 0.6227 0.1534
C3 C 0.0253(4) 0.4037(5) 0.7904(3)
C4 C 0.1308(4) 0.3513(6) 0.7616(4)
H3 H 0.2125 0.3805 0.7987
C5 C 0.1164(4) 0.2568(6) 0.6791(4)
H4 H 0.1899 0.2255 0.6593
C7_2 C 0.0000 0.6590(7) 1.0000
C8 C 0.1032(4) 0.7567(5) 0.9715(3)
H7 H 0.1784 0.6974 0.9703
H8 H 0.0709 0.7997 0.9017
C13 C 0.2687(5) 0.9875(6) 0.9475(4)
H12 H 0.2576 0.9110 0.8979
O6 O 0.0455(3) 0.4938(4) 0.8742(3)
O11 O 0.1721(3) 0.9861(4) 0.5402(2)
C12 C 0.3431(5) 0.1086(6) 0.9389(4)
H11 H 0.3810 0.1121 0.8817
Zn1 Zn 0.5000 0.38074(7) 1.0000
C34 C 0.5235(4) 0.5783(5) 0.8567(3)
C35 C 0.4876(4) 0.7043(5) 0.7798(3)
C36 C 0.3610(4) 0.7409(5) 0.7361(3)
H28 H 0.2957 0.6885 0.7557
C37 C 0.3308(4) 0.8546(5) 0.6637(3)
C38 C 0.4275(4) 0.9317(5) 0.6329(4)
C39 C 0.5822(4) 0.7841(5) 0.7509(4)
H30 H 0.6676 0.7623 0.7826
C40 C 0.1914(4) 0.8959(6) 0.6168(4)
N7 N 0.6356(3) 0.2205(4) 0.9938(3)
O8 O 0.6351(3) 0.5560(4) 0.9013(3)
O9 O 0.4332(3) 0.4965(3) 0.8720(2)
O12 O 0.1091(3) 0.8465(5) 0.6546(3)
C41 C 0.5549(4) 0.8953(6) 0.6765(3)
O15 O 0.6500(3) 0.9706(4) 0.6473(3)
C30 C 0.7696(4) 0.0989(5) 0.9004(4)
H24 H 0.8088 0.0997 0.8439
C31 C 0.6932(4) 0.2143(5) 0.9143(4)
H25 H 0.6808 0.2923 0.8660
H14 H 0.5930 0.0076 0.4169
Zn2_2 Zn 1.0000 0.06554(7) 0.5000
N4 N 0.9976(3) 0.2052(4) 0.3762(3)
H32 H 0.355182 0.077409 0.33521
C7_3 C 1.0000 0.6590(7) 0.0000
C24 C 0.9747(4) 0.4037(5) 0.2096(3)
C25 C 0.8692(4) 0.3513(6) 0.2384(4)
H18 H 0.7875 0.3805 0.2013
C26 C 0.8836(4) 0.2568(6) 0.3209(4)
H19 H 0.8101 0.2255 0.3407
C28 C 0.8968(4) 0.7567(5) 0.0285(3)
H22 H 0.8216 0.6974 0.0297
H23 H 0.9291 0.7997 0.0983
C33 C 0.7313(5) 0.9875(6) 0.0525(4)
H27 H 0.7424 0.9110 0.1021
O14 O 0.9545(3) 0.4938(4) 0.1258(3)
C1 C 0.9007(4) 0.2578(6) 0.6506(4)
H1 H 0.8205 0.2242 0.6132
C2 C 0.9051(4) 0.3592(5) 0.7302(3)
H2 H 0.8300 0.3972 0.7437
C6 C 0.9411(4) 0.5624(6) 0.9042(3)
H5 H 0.8847 0.4883 0.9227
H6 H 0.8919 0.6227 0.8466
C7_4 C 1.0000 0.6590(7) 1.0000
C29 C 0.7884(4) 0.9817(5) 0.9697(3)
O13 O 0.8633(3) 0.8711(4) 0.9513(2)
C10 C 0.2304(4) 0.0989(5) 0.0996(4)
H9 H 0.1912 0.0997 0.1561
C11 C 0.3068(4) 0.2143(5) 0.0857(4)
H10 H 0.3192 0.2923 0.1340
C14 C 0.4765(4) 0.5783(5) 0.1433(3)
C15 C 0.5124(4) 0.7043(5) 0.2202(3)
C16 C 0.6390(4) 0.7409(5) 0.2639(3)
H13 H 0.7043 0.6885 0.2443
C17 C 0.6692(4) 0.8546(5) 0.3363(3)
C18 C 0.5725(4) 0.9317(5) 0.3671(4)
C19 C 0.4178(4) 0.7841(5) 0.2491(4)
H15 H 0.3324 0.7623 0.2174
C20 C 0.8086(4) 0.8959(6) 0.3832(4)
N2 N 0.3644(3) 0.2205(4) 0.0062(3)
O1 O 0.3649(3) 0.5560(4) 0.0987(3)
O2 O 0.5668(3) 0.4965(3) 0.1280(2)
O3 O 0.8279(3) 0.9861(4) 0.4598(2)
O4 O 0.8909(3) 0.8465(5) 0.3454(3)
Zn1_2 Zn 0.5000 0.38074(7) 0.0000
C21 C 0.4451(4) 0.8953(6) 0.3235(3)
O7 O 0.3500(3) 0.9706(4) 0.3527(3)
C32 C 0.6569(5) 0.1086(6) 0.0611(4)
H26 H 0.6190 0.1121 0.1183
loop_
_geom_bond_atom_site_label_1
_geom_bond_atom_site_label_2
_geom_bond_site_symmetry_1
_geom_bond_site_symmetry_2
N5 Zn2 1_555 1_555
C22 H16 1_555 1_555
C23 C22 1_555 1_555
H17 C23 1_555 1_555
C27 C7 1_555 1_555
H20 C27 1_555 1_555
H21 C27 1_555 1_555
C9 O5 1_555 1_555
C4 C3 1_555 1_555
H3 C4 1_555 1_555
C5 C4 1_555 1_555
H4 C5 1_555 1_555
C8 C7_2 1_555 1_555
H7 C8 1_555 1_555
H8 C8 1_555 1_555
H12 C13 1_555 1_555
O6 C3 1_555 1_555
C5 N5 1_555 1_555
C12 H11 1_555 1_555
C34 C35 1_555 1_555
C35 C36 1_555 1_555
C36 H28 1_555 1_555
C37 C36 1_555 1_555
C38 C37 1_555 1_555
C39 C35 1_555 1_555
H30 C39 1_555 1_555
C40 C37 1_555 1_555
N7 Zn1 1_555 1_555
O8 C34 1_555 1_555
O9 Zn1 1_555 1_555
O11 C40 1_555 1_555
O12 C40 1_555 1_555
C41 C38 1_555 1_555
O15 C41 1_555 1_555
C34 O9 1_555 1_555
C39 C41 1_555 1_555
C30 H24 1_555 1_555
C31 C30 1_555 1_555
H25 C31 1_555 1_555
N7 C31 1_555 1_555
N4 Zn2_2 1_555 1_555
C25 C24 1_555 1_555
H18 C25 1_555 1_555
C26 C25 1_555 1_555
H19 C26 1_555 1_555
C28 C7_3 1_555 1_555
H22 C28 1_555 1_555
H23 C28 1_555 1_555
H27 C33 1_555 1_555
O14 C24 1_555 1_555
C26 N4 1_555 1_555
C1 H1 1_555 1_555
C2 C1 1_555 1_555
H2 C2 1_555 1_555
C6 H5 1_555 1_555
H6 C6 1_555 1_555
C7_4 C6 1_555 1_555
C29 O13 1_555 1_555
C10 H9 1_555 1_555
C11 C10 1_555 1_555
H10 C11 1_555 1_555
C14 C15 1_555 1_555
C15 C16 1_555 1_555
C16 H13 1_555 1_555
C17 C16 1_555 1_555
C18 C17 1_555 1_555
C19 C15 1_555 1_555
H15 C19 1_555 1_555
C20 C17 1_555 1_555
N2 C11 1_555 1_555
O1 C14 1_555 1_555
O2 C14 1_555 1_555
O3 C20 1_555 1_555
O4 C20 1_555 1_555
Zn1_2 N2 1_555 1_555
C21 C18 1_555 1_555
O7 C21 1_555 1_555
C19 C21 1_555 1_555
O2 Zn1_2 1_555 1_555
C32 H26 1_555 1_555

#END
