
###############################################################################
#
# This file contains modified crystal structure data generated from the
# MOF subset of the Cambridge Structural Database (CSD) v543 
# hosted by the Cambridge Crystallographic Data Centre (CCDC).
#
# This work is licensed under the Creative Commons
# Attribution-NonCommercial-ShareAlike 4.0 International License.
# To view a copy of this license, visit
# http://creativecommons.org/licenses/by-nc-sa/4.0/
# or send a letter to
# Creative Commons, PO Box 1866, Mountain View, CA 94042, USA.
#
# CIF created using the CSD Python API on 29 September 2022
# The structure has been converted into the P1 space group
# The structure has a 3D framework
# The original CSD entry LAZQUA is in the monoclinic crystal system
# The framework has been calculated to contain at least 10.0% void space
# The void calculation uses a probe of radius 1.32A, grid spacing 0.4
# H atom positions have been added when not included in the experimental data
#
###############################################################################

data_LAZQUA
_chemical_formula_moiety         '(C108 H84 Co11 N4 O42)n'
_symmetry_cell_setting           triclinic
_symmetry_space_group_name_H-M   'P 1'
_symmetry_Int_Tables_number      1
_space_group_name_Hall           'P 1'
loop_
_symmetry_equiv_pos_site_id
_symmetry_equiv_pos_as_xyz
1 x,y,z
_cell_length_a                   17.4870(19)
_cell_length_b                   10.8823(11)
_cell_length_c                   18.0449(19)
_cell_angle_alpha                90
_cell_angle_beta                 116.170(2)
_cell_angle_gamma                90
_cell_volume                     3081.91
loop_
_atom_site_label
_atom_site_type_symbol
_atom_site_fract_x
_atom_site_fract_y
_atom_site_fract_z
H13 H 0.3414 0.0306 0.4490
O2 O 0.04412(17) 0.0732(2) 0.24536(16)
C49 C 0.74371(19) 0.0505(3) 0.65726(19)
H31 H 0.7922 0.0118 0.6555
C50 C 0.66426(19) 0.0243(3) 0.59479(19)
C51 C 0.59272(18) 0.0763(3) 0.59474(17)
C52 C 0.6055(2) 0.1568(3) 0.6593(2)
H33 H 0.5578 0.1967 0.6618
C53 C 0.6868(2) 0.1783(3) 0.7195(2)
H34 H 0.6942 0.2344 0.7633
C54 C 0.50285(19) 0.0495(3) 0.53104(19)
Co6 Co 0.88013(2) 0.18311(3) 0.80616(2)
N2 N 0.75677(15) 0.1265(2) 0.71975(15)
H41 H 0.465965 0.0194083 0.563062
H42 H 0.475519 0.133917 0.497329
C28 C 0.96847(18) 0.0252(3) 0.72676(17)
O12 O 0.93806(13) 0.1291(2) 0.73077(13)
O23 O 0.83304(13) 0.21983(19) 0.89053(12)
O24 O 0.99410(14) 0.2736(2) 0.87885(13)
O25 O 0.84711(15) 0.3577(2) 0.74912(14)
H37 H 0.8870 0.4081 0.7566
H38 H 0.8036 0.3628 0.7027
O28 O 0.91699(12) 0.00483(16) 0.86809(11)
Co10 Co 1.0000 -0.0000 1.0000
Co10_2 Co 1.0000 1.0000 1.0000
C12 C 0.7224(2) 0.2718(4) 0.9594(2)
C13 C 0.6675(3) 0.2915(4) 0.9945(3)
H7 H 0.6115 0.3241 0.9621
C14 C 0.86058(18) 0.1928(2) 0.96539(17)
H8 H 0.6043 0.6803 0.9807
C17 C 0.7024(2) 0.7663(3) 0.9678(2)
H9 H 0.6806 0.7553 0.9110
H10 H 0.7061 0.2934 0.9053
C21 C 0.82929(18) 0.8758(3) 0.96772(17)
O6 O 0.79229(13) 0.9049(2) 0.89337(12)
H41_2 H 0.0340348 0.519408 0.936938
C1 C 0.03153(18) 0.9748(3) 0.27324(17)
C22 C 0.25629(19) 0.9495(3) 0.34274(19)
H12 H 0.2078 0.9882 0.3445
C23 C 0.33574(19) 0.9757(3) 0.40521(19)
C24 C 0.40728(18) 0.9237(3) 0.40526(17)
C25 C 0.3945(2) 0.8432(3) 0.3407(2)
H14 H 0.4422 0.8033 0.3382
C26 C 0.3132(2) 0.8217(3) 0.2805(2)
H15 H 0.3058 0.7656 0.2367
C27 C 0.49715(19) 0.9505(3) 0.46896(19)
Co1 Co 0.11987(2) 0.81689(3) 0.19384(2)
N1 N 0.24323(15) 0.8735(2) 0.28025(15)
O1 O 0.06194(13) 0.8709(2) 0.26923(13)
O9 O 0.00590(14) 0.7264(2) 0.12115(13)
O10 O 0.15289(15) 0.6423(2) 0.25088(14)
H18 H 0.1130 0.5919 0.2434
H19 H 0.1964 0.6372 0.2973
H32 H 0.6586 0.9694 0.5510
O22 O 0.16696(13) 0.78017(19) 0.10947(12)
O27 O 0.08301(12) 0.99517(16) 0.13191(11)
H39 H 0.534035 0.980592 0.436938
H40 H 0.524481 0.866083 0.502671
O13 O 0.95588(17) 0.9268(2) 0.75464(16)
Co10_3 Co -0.0000 -0.0000 0.0000
C39 C 0.2776(2) 0.7282(4) 0.0406(2)
C40 C 0.3325(3) 0.7085(4) 0.0055(3)
H26 H 0.3885 0.6759 0.0379
C41 C 0.13942(18) 0.8072(2) 0.03461(17)
H27 H 0.3957 0.3197 0.0193
C44 C 0.2976(2) 0.2337(3) 0.0322(2)
H28 H 0.3194 0.2447 0.0890
H29 H 0.2939 0.7066 0.0947
C48 C 0.17071(18) 0.1242(3) 0.03228(17)
Co10_4 Co -0.0000 1.0000 0.0000
O17 O 0.20771(13) 0.0951(2) 0.10663(12)
H39_2 H 0.965965 0.480592 0.0630623
C29 C 0.02697(18) 0.0200(3) 0.68485(17)
C30 C 0.0533(2) 0.1271(3) 0.6613(2)
H20 H 0.0317 0.2055 0.6676
C31 C 0.1114(2) 0.1187(3) 0.6284(2)
C32 C 0.1421(2) 0.0071(3) 0.6167(2)
H21 H 0.1824 0.0030 0.5939
C35 C 0.1936(3) 0.2374(4) 0.5760(3)
C36 C 0.2734(3) 0.2840(4) 0.6229(3)
H24 H 0.2910 0.3023 0.6802
C37 C 0.3283(2) 0.3039(4) 0.5879(2)
H25 H 0.3826 0.3346 0.6199
C38 C 0.30252(19) 0.2784(3) 0.50500(18)
C39_2 C 0.2224(2) 0.2282(4) 0.4594(2)
C40_2 C 0.1675(3) 0.2085(4) 0.4945(3)
H26_2 H 0.1115 0.1759 0.4621
C41_2 C 0.36058(18) 0.3072(2) 0.46539(17)
H29_2 H 0.2061 0.2066 0.4053
Co7 Co 0.38013(2) 0.31689(3) 0.30616(2)
Co10_5 Co 0.5000 0.5000 0.5000
O14 O 0.1366(2) 0.2308(3) 0.6111(2)
O18 O 0.43137(13) 0.35409(19) 0.51062(12)
O21 O 0.33304(13) 0.28017(19) 0.39053(12)
H35 H 0.0394 0.2308 0.8981
H36 H 0.0002 0.3459 0.8644
C6 C 0.8865(2) 0.0986(3) 0.3602(2)
C7 C 0.9439(2) 0.0933(3) 0.3267(2)
H3 H 0.9642 0.1673 0.3126
H4 H 0.6354 0.3818 0.3745
C15 C 0.8103(3) 0.2417(3) 0.4072(3)
C16 C 0.8427(3) 0.2229(4) 0.4902(3)
H8_2 H 0.8957 0.1803 0.5193
C17_2 C 0.7976(2) 0.2663(3) 0.5322(2)
H9_2 H 0.8194 0.2553 0.5890
C18 C 0.72021(19) 0.3259(3) 0.48914(18)
C19 C 0.6892(2) 0.3426(4) 0.4047(2)
C20 C 0.7343(3) 0.3003(4) 0.3634(2)
H11 H 0.7125 0.3121 0.3049
C21_2 C 0.67071(18) 0.3758(3) 0.53228(17)
O4 O 0.8567(2) 0.2138(3) 0.3629(2)
O5 O 0.59087(12) 0.3879(2) 0.48782(12)
O6_2 O 0.70771(13) 0.4049(2) 0.60663(12)
O11 O 0.41699(12) 0.49517(16) 0.36809(11)
C33 C 0.1135(2) 0.9014(3) 0.6398(2)
C34 C 0.0561(2) 0.9067(3) 0.6733(2)
H22 H 0.0358 0.8327 0.6874
H23 H 0.3646 0.6182 0.6255
C42 C 0.1897(3) 0.7583(3) 0.5928(3)
C43 C 0.1573(3) 0.7771(4) 0.5098(3)
H27_2 H 0.1043 0.8197 0.4807
C44_2 C 0.2024(2) 0.7337(3) 0.4678(2)
H28_2 H 0.1806 0.7447 0.4110
C45 C 0.27979(19) 0.6741(3) 0.51086(18)
C46 C 0.3108(2) 0.6574(4) 0.5953(2)
C47 C 0.2657(3) 0.6997(4) 0.6366(2)
H30 H 0.2875 0.6879 0.6951
C48_2 C 0.32929(18) 0.6242(3) 0.46772(17)
Co8 Co 0.61987(2) 0.68311(3) 0.69384(2)
O15 O 0.1433(2) 0.7862(3) 0.6371(2)
O16 O 0.40913(12) 0.6121(2) 0.51218(12)
O17_2 O 0.29229(13) 0.5951(2) 0.39337(12)
O19 O 0.56863(13) 0.64591(19) 0.48938(12)
O26 O 0.58301(12) 0.50483(16) 0.63191(11)
C2 C 0.97303(18) 0.9800(3) 0.31515(17)
C3 C 0.9467(2) 0.8729(3) 0.3387(2)
H1 H 0.9683 0.7945 0.3324
C4 C 0.8886(2) 0.8813(3) 0.3716(2)
C5 C 0.8579(2) 0.9929(3) 0.3833(2)
H2 H 0.8176 0.9970 0.4061
C8 C 0.8064(3) 0.7626(4) 0.4240(3)
C9 C 0.7266(3) 0.7160(4) 0.3771(3)
H5 H 0.7090 0.6977 0.3198
C10 C 0.6717(2) 0.6961(4) 0.4121(2)
H6 H 0.6174 0.6654 0.3801
C11 C 0.69748(19) 0.7216(3) 0.49500(18)
C12_2 C 0.7776(2) 0.7718(4) 0.5406(2)
C13_2 C 0.8325(3) 0.7915(4) 0.5055(3)
H7_2 H 0.8885 0.8241 0.5379
C14_2 C 0.63942(18) 0.6928(2) 0.53461(17)
H10_2 H 0.7939 0.7934 0.5947
O3 O 0.8634(2) 0.7692(3) 0.3889(2)
O8 O 0.66696(13) 0.71983(19) 0.60947(12)
H16 H 0.9606 0.7692 0.1019
H17 H 0.9998 0.6541 0.1356
Co10_6 Co -0.0000 -0.0000 1.0000
C28_2 C 0.53153(18) 0.5252(3) 0.77324(17)
C29_2 C 0.47303(18) 0.5200(3) 0.81515(17)
C30_2 C 0.4467(2) 0.6271(3) 0.8387(2)
H20_2 H 0.4683 0.7055 0.8324
C31_2 C 0.3886(2) 0.6187(3) 0.8716(2)
C32_2 C 0.3579(2) 0.5071(3) 0.8833(2)
H21_2 H 0.3176 0.5030 0.9061
C33_2 C 0.3865(2) 0.4014(3) 0.8602(2)
C34_2 C 0.4439(2) 0.4067(3) 0.8267(2)
H22_2 H 0.4642 0.3327 0.8126
C35_2 C 0.3064(3) 0.7374(4) 0.9240(3)
H23_2 H 0.1354 0.1182 0.8745
C36_2 C 0.2266(3) 0.7840(4) 0.8771(3)
H24_2 H 0.2090 0.8023 0.8198
C37_2 C 0.1717(2) 0.8039(4) 0.9121(2)
H25_2 H 0.1174 0.8346 0.8801
C38_2 C 0.19748(19) 0.7784(3) 0.99500(18)
C42_2 C 0.3103(3) 0.2583(3) 0.9072(3)
C43_2 C 0.3427(3) 0.2771(4) 0.9902(3)
C45_2 C 0.22021(19) 0.1741(3) 0.98914(18)
C46_2 C 0.1892(2) 0.1574(4) 0.9047(2)
C47_2 C 0.2343(3) 0.1997(4) 0.8634(2)
H30_2 H 0.2125 0.1879 0.8049
Co10_7 Co -0.0000 1.0000 1.0000
N3 N 0.74323(15) 0.6265(2) 0.78025(15)
O12_2 O 0.56194(13) 0.6291(2) 0.76923(13)
O13_2 O 0.54412(17) 0.4268(2) 0.74536(16)
O14_2 O 0.3634(2) 0.7308(3) 0.8889(2)
O15_2 O 0.3567(2) 0.2862(3) 0.8629(2)
O16_2 O 0.09087(12) 0.1121(2) 0.98782(12)
O18_2 O 0.06863(13) 0.85409(19) 0.98938(12)
O24_2 O 0.50590(14) 0.7736(2) 0.62115(13)
H35_2 H 0.4606 0.7308 0.6019
H36_2 H 0.4998 0.8459 0.6356
O25_2 O 0.65289(15) 0.8577(2) 0.75088(14)
H37_2 H 0.6130 0.9081 0.7434
H38_2 H 0.6964 0.8628 0.7973
Co10_8 Co 1.0000 -0.0000 0.0000
Co10_9 Co 1.0000 1.0000 0.0000
O19_2 O 0.93137(13) 0.14591(19) 0.01062(12)
C1_2 C 0.46847(18) 0.4748(3) 0.22676(17)
C2_2 C 0.52697(18) 0.4800(3) 0.18485(17)
C3_2 C 0.5533(2) 0.3729(3) 0.1613(2)
H1_2 H 0.5317 0.2945 0.1676
C4_2 C 0.6114(2) 0.3813(3) 0.1284(2)
C5_2 C 0.6421(2) 0.4929(3) 0.1167(2)
H2_2 H 0.6824 0.4970 0.0939
C6_2 C 0.6135(2) 0.5986(3) 0.1398(2)
C7_2 C 0.5561(2) 0.5933(3) 0.1733(2)
H3_2 H 0.5358 0.6673 0.1874
C8_2 C 0.6936(3) 0.2626(4) 0.0760(3)
H4_2 H 0.8646 0.8818 0.1255
C9_2 C 0.7734(3) 0.2160(4) 0.1229(3)
H5_2 H 0.7910 0.1977 0.1802
C10_2 C 0.8283(2) 0.1961(4) 0.0879(2)
H6_2 H 0.8826 0.1654 0.1199
C11_2 C 0.80252(19) 0.2216(3) 0.00500(18)
C15_2 C 0.6897(3) 0.7417(3) 0.0928(3)
C16_2 C 0.6573(3) 0.7229(4) 0.0098(3)
C18_2 C 0.77979(19) 0.8259(3) 0.01086(18)
C19_2 C 0.8108(2) 0.8426(4) 0.0953(2)
C20_2 C 0.7657(3) 0.8003(4) 0.1366(2)
H11_2 H 0.7875 0.8121 0.1951
C22_2 C 0.24371(19) 0.4495(3) 0.15726(19)
H12_2 H 0.2922 0.4882 0.1555
C23_2 C 0.16426(19) 0.4757(3) 0.09479(19)
H13_2 H 0.1586 0.5306 0.0510
C24_2 C 0.09272(18) 0.4237(3) 0.09474(17)
C25_2 C 0.1055(2) 0.3432(3) 0.1593(2)
H14_2 H 0.0578 0.3033 0.1618
C26_2 C 0.1868(2) 0.3217(3) 0.2195(2)
H15_2 H 0.1942 0.2656 0.2633
C27_2 C 0.00285(19) 0.4505(3) 0.03104(19)
N1_2 N 0.25677(15) 0.3735(2) 0.21975(15)
O1_2 O 0.43806(13) 0.3709(2) 0.23077(13)
O2_2 O 0.45588(17) 0.5732(2) 0.25464(16)
O3_2 O 0.6366(2) 0.2692(3) 0.1111(2)
O4_2 O 0.6433(2) 0.7138(3) 0.1371(2)
O5_2 O 0.90913(12) 0.8879(2) 0.01218(12)
O9_2 O 0.49410(14) 0.2264(2) 0.37885(13)
H16_2 H 0.5394 0.2692 0.3981
H17_2 H 0.5002 0.1541 0.3644
O10_2 O 0.34711(15) 0.1423(2) 0.24912(14)
H18_2 H 0.3870 0.0919 0.2566
H19_2 H 0.3036 0.1372 0.2027
H42_2 H 0.0244805 0.633917 0.00267054
C49_2 C 0.75629(19) 0.5505(3) 0.84274(19)
H31_2 H 0.7078 0.5118 0.8445
C50_2 C 0.83574(19) 0.5243(3) 0.90521(19)
H32_2 H 0.8414 0.4694 0.9490
C51_2 C 0.90728(18) 0.5763(3) 0.90526(17)
C52_2 C 0.8945(2) 0.6568(3) 0.8407(2)
H33_2 H 0.9422 0.6967 0.8382
C53_2 C 0.8132(2) 0.6783(3) 0.7805(2)
H34_2 H 0.8058 0.7344 0.7367
C54_2 C 0.99715(19) 0.5495(3) 0.96896(19)
H40_2 H 0.975519 0.366083 0.997329
loop_
_geom_bond_atom_site_label_1
_geom_bond_atom_site_label_2
_geom_bond_site_symmetry_1
_geom_bond_site_symmetry_2
C49 H31 1_555 1_555
C50 C49 1_555 1_555
C51 C50 1_555 1_555
C52 C51 1_555 1_555
H33 C52 1_555 1_555
C53 C52 1_555 1_555
H34 C53 1_555 1_555
Co6 N2 1_555 1_555
N2 C49 1_555 1_555
C51 C54 1_555 1_555
C53 N2 1_555 1_555
C54 H41 1_555 1_555
C54 H42 1_555 1_555
O12 C28 1_555 1_555
O23 Co6 1_555 1_555
O24 Co6 1_555 1_555
O25 Co6 1_555 1_555
H37 O25 1_555 1_555
H38 O25 1_555 1_555
O28 Co6 1_555 1_555
Co6 O12 1_555 1_555
O28 Co10 1_555 1_555
H7 C13 1_555 1_555
H9 C17 1_555 1_555
H10 C12 1_555 1_555
O6 C21 1_555 1_555
O23 C14 1_555 1_555
C12 C13 1_555 1_555
C22 H12 1_555 1_555
C23 C22 1_555 1_555
C24 C23 1_555 1_555
C25 C24 1_555 1_555
H14 C25 1_555 1_555
C26 C25 1_555 1_555
H15 C26 1_555 1_555
C27 C24 1_555 1_555
Co1 N1 1_555 1_555
N1 C22 1_555 1_555
O1 C1 1_555 1_555
O9 Co1 1_555 1_555
O10 Co1 1_555 1_555
H18 O10 1_555 1_555
H19 O10 1_555 1_555
O22 Co1 1_555 1_555
O27 Co1 1_555 1_555
C26 N1 1_555 1_555
Co1 O1 1_555 1_555
C27 H39 1_555 1_555
C27 H40 1_555 1_555
H26 C40 1_555 1_555
H28 C44 1_555 1_555
H29 C39 1_555 1_555
O17 C48 1_555 1_555
O22 C41 1_555 1_555
C39 C40 1_555 1_555
O27 Co10_4 1_555 1_555
C29 C30 1_555 1_555
C30 H20 1_555 1_555
C31 C30 1_555 1_555
C32 C31 1_555 1_555
H21 C32 1_555 1_555
C35 C36 1_555 1_555
C36 H24 1_555 1_555
C37 C36 1_555 1_555
H25 C37 1_555 1_555
C38 C37 1_555 1_555
C39_2 C38 1_555 1_555
C40_2 C35 1_555 1_555
H26_2 C40_2 1_555 1_555
C41_2 C38 1_555 1_555
H29_2 C39_2 1_555 1_555
Co7 O21 1_555 1_555
Co10_5 O18 1_555 1_555
O14 C31 1_555 1_555
O18 C41_2 1_555 1_555
O21 C41_2 1_555 1_555
C35 O14 1_555 1_555
C39_2 C40_2 1_555 1_555
H3 C7 1_555 1_555
H4 C19 1_555 1_555
C15 C16 1_555 1_555
C16 H8_2 1_555 1_555
C17_2 C16 1_555 1_555
H9_2 C17_2 1_555 1_555
C18 C17_2 1_555 1_555
C19 C18 1_555 1_555
C20 C15 1_555 1_555
H11 C20 1_555 1_555
C21_2 C18 1_555 1_555
Co10_5 O5 1_555 1_555
O4 C6 1_555 1_555
O5 C21_2 1_555 1_555
O6_2 C21_2 1_555 1_555
O11 Co10_5 1_555 1_555
H22 C34 1_555 1_555
H23 C46 1_555 1_555
C42 C43 1_555 1_555
C43 H27_2 1_555 1_555
C44_2 C43 1_555 1_555
H28_2 C44_2 1_555 1_555
C45 C44_2 1_555 1_555
C46 C45 1_555 1_555
C47 C42 1_555 1_555
H30 C47 1_555 1_555
C48_2 C45 1_555 1_555
Co7 O11 1_555 1_555
Co8 O26 1_555 1_555
O15 C33 1_555 1_555
O16 Co10_5 1_555 1_555
O17_2 C48_2 1_555 1_555
O19 Co10_5 1_555 1_555
O26 Co10_5 1_555 1_555
C6 C7 1_555 1_555
C15 O4 1_555 1_555
C19 C20 1_555 1_555
C33 C34 1_555 1_555
C42 O15 1_555 1_555
C46 C47 1_555 1_555
C48_2 O16 1_555 1_555
C2 C3 1_555 1_555
C3 H1 1_555 1_555
C4 C3 1_555 1_555
C5 C4 1_555 1_555
H2 C5 1_555 1_555
C8 C9 1_555 1_555
C9 H5 1_555 1_555
C10 C9 1_555 1_555
H6 C10 1_555 1_555
C11 C10 1_555 1_555
C12_2 C11 1_555 1_555
C13_2 C8 1_555 1_555
H7_2 C13_2 1_555 1_555
C14_2 C11 1_555 1_555
H10_2 C12_2 1_555 1_555
O3 C4 1_555 1_555
O19 C14_2 1_555 1_555
O8 C14_2 1_555 1_555
Co8 O8 1_555 1_555
C8 O3 1_555 1_555
C12_2 C13_2 1_555 1_555
C28_2 C29_2 1_555 1_555
C29_2 C30_2 1_555 1_555
C30_2 H20_2 1_555 1_555
C31_2 C30_2 1_555 1_555
C32_2 C31_2 1_555 1_555
H21_2 C32_2 1_555 1_555
C33_2 C32_2 1_555 1_555
C34_2 C29_2 1_555 1_555
H22_2 C34_2 1_555 1_555
C35_2 C36_2 1_555 1_555
H23_2 C46_2 1_555 1_555
C36_2 H24_2 1_555 1_555
C37_2 C36_2 1_555 1_555
H25_2 C37_2 1_555 1_555
C38_2 C37_2 1_555 1_555
C42_2 C43_2 1_555 1_555
C46_2 C45_2 1_555 1_555
C47_2 C42_2 1_555 1_555
H30_2 C47_2 1_555 1_555
Co8 N3 1_555 1_555
Co10_7 O18_2 1_555 1_555
O12_2 C28_2 1_555 1_555
O13_2 C28_2 1_555 1_555
O14_2 C31_2 1_555 1_555
O15_2 C33_2 1_555 1_555
O16_2 Co10_6 1_555 1_555
O24_2 Co8 1_555 1_555
H35_2 O24_2 1_555 1_555
H36_2 O24_2 1_555 1_555
O25_2 Co8 1_555 1_555
H37_2 O25_2 1_555 1_555
H38_2 O25_2 1_555 1_555
C33_2 C34_2 1_555 1_555
C35_2 O14_2 1_555 1_555
C42_2 O15_2 1_555 1_555
C46_2 C47_2 1_555 1_555
Co8 O12_2 1_555 1_555
O19_2 Co10_8 1_555 1_555
C1_2 C2_2 1_555 1_555
C2_2 C3_2 1_555 1_555
C3_2 H1_2 1_555 1_555
C4_2 C3_2 1_555 1_555
C5_2 C4_2 1_555 1_555
H2_2 C5_2 1_555 1_555
C6_2 C5_2 1_555 1_555
C7_2 C2_2 1_555 1_555
H3_2 C7_2 1_555 1_555
C8_2 C9_2 1_555 1_555
H4_2 C19_2 1_555 1_555
C9_2 H5_2 1_555 1_555
C10_2 C9_2 1_555 1_555
H6_2 C10_2 1_555 1_555
C11_2 C10_2 1_555 1_555
C15_2 C16_2 1_555 1_555
C19_2 C18_2 1_555 1_555
C20_2 C15_2 1_555 1_555
H11_2 C20_2 1_555 1_555
C22_2 H12_2 1_555 1_555
C23_2 C22_2 1_555 1_555
H13_2 C23_2 1_555 1_555
C24_2 C23_2 1_555 1_555
C25_2 C24_2 1_555 1_555
H14_2 C25_2 1_555 1_555
C26_2 C25_2 1_555 1_555
H15_2 C26_2 1_555 1_555
C27_2 C24_2 1_555 1_555
Co7 N1_2 1_555 1_555
Co10_9 O5_2 1_555 1_555
N1_2 C22_2 1_555 1_555
O1_2 C1_2 1_555 1_555
O2_2 C1_2 1_555 1_555
O3_2 C4_2 1_555 1_555
O4_2 C6_2 1_555 1_555
O9_2 Co7 1_555 1_555
H16_2 O9_2 1_555 1_555
H17_2 O9_2 1_555 1_555
O10_2 Co7 1_555 1_555
H18_2 O10_2 1_555 1_555
H19_2 O10_2 1_555 1_555
C6_2 C7_2 1_555 1_555
C8_2 O3_2 1_555 1_555
C15_2 O4_2 1_555 1_555
C19_2 C20_2 1_555 1_555
C26_2 N1_2 1_555 1_555
Co7 O1_2 1_555 1_555
C49_2 H31_2 1_555 1_555
C50_2 C49_2 1_555 1_555
H32_2 C50_2 1_555 1_555
C51_2 C50_2 1_555 1_555
C52_2 C51_2 1_555 1_555
H33_2 C52_2 1_555 1_555
C53_2 C52_2 1_555 1_555
H34_2 C53_2 1_555 1_555
N3 C49_2 1_555 1_555
C51_2 C54_2 1_555 1_555
C53_2 N3 1_555 1_555

#END
