
###############################################################################
#
# This file contains modified crystal structure data generated from the
# MOF subset of the Cambridge Structural Database (CSD) v543 
# hosted by the Cambridge Crystallographic Data Centre (CCDC).
#
# This work is licensed under the Creative Commons
# Attribution-NonCommercial-ShareAlike 4.0 International License.
# To view a copy of this license, visit
# http://creativecommons.org/licenses/by-nc-sa/4.0/
# or send a letter to
# Creative Commons, PO Box 1866, Mountain View, CA 94042, USA.
#
# CIF created using the CSD Python API on 29 September 2022
# The structure has been converted into the P1 space group
# The structure has a 3D framework
# The original CSD entry LEBBUS is in the tetragonal crystal system
# The original CSD entry LEBBUS is in a Sohncke space group
# The framework has been calculated to contain at least 10.0% void space
# The void calculation uses a probe of radius 1.32A, grid spacing 0.4
# H atom positions have been added when not included in the experimental data
#
###############################################################################

data_LEBBUS
_chemical_formula_moiety         '(C48 H64 Cu8 N8 O24 S8)n'
_symmetry_cell_setting           triclinic
_symmetry_space_group_name_H-M   'P 1'
_symmetry_Int_Tables_number      1
_space_group_name_Hall           'P 1'
loop_
_symmetry_equiv_pos_site_id
_symmetry_equiv_pos_as_xyz
1 x,y,z
_cell_length_a                   12.9735(2)
_cell_length_b                   12.9735(2)
_cell_length_c                   11.5283(3)
_cell_angle_alpha                90
_cell_angle_beta                 90
_cell_angle_gamma                90
_cell_volume                     1940.35
loop_
_atom_site_label
_atom_site_type_symbol
_atom_site_fract_x
_atom_site_fract_y
_atom_site_fract_z
C2 C 0.0323(8) 0.2795(7) 0.0080(9)
O4 O 0.1301(5) 0.2795(6) 0.0042(7)
S2 S 0.1235(2) 0.2268(2) 0.3562(3)
C3 C 0.0203(8) 0.1426(7) 0.1645(9)
H2 H 0.0275 0.0974 0.0958
H3 H 0.0031 0.3013 0.1835
C8 C 0.1227(8) 0.1421(7) 0.2310(8)
H5 H 0.1786 0.1632 0.1776
H6 H 0.1375 0.0709 0.2570
C10 C 0.0282(9) 0.1652(16) 0.4488(13)
H9 H 0.0210 0.2047 0.5209
H10 H 0.0505 0.0949 0.4670
Cu6 Cu 0.30170(9) 0.17509(9) 0.45744(10)
Cu4 Cu 0.18999(9) 0.32742(8) 0.86010(10)
O2 O 0.5211(6) 0.1804(7) 0.3903(7)
C1 C 0.4636(7) 0.2104(7) 0.3082(9)
O3 O 0.3674(6) 0.2177(6) 0.3133(7)
H1 H 0.9665 0.1122 0.2149
Cu1 Cu 0.67258(8) 0.18999(9) 0.36010(10)
O5 O 0.8134(5) 0.2041(6) 0.2888(6)
O6 O 0.6847(5) 0.2953(6) 0.0348(7)
N1 N 0.6239(6) 0.2288(6) 0.2102(7)
N2 N 0.8724(6) 0.2555(6) 0.1045(7)
C4 C 0.8021(7) 0.2376(7) 0.1829(8)
C5 C 0.9834(7) 0.2490(7) 0.1238(8)
C6 C 0.5148(7) 0.2380(8) 0.1918(9)
H4 H 0.4978 0.3109 0.1712
C7 C 0.6943(7) 0.2570(7) 0.1357(8)
C9 C 0.4755(8) 0.1649(11) 0.0939(11)
H7 H 0.5274 0.1638 0.0310
H8 H 0.4708 0.0942 0.1257
H11 H 0.9617 0.1630 0.4085
C11 C 0.3728(9) 0.1928(10) 0.0421(11)
H12 H 0.3227 0.2058 0.1051
O8 O 0.7205(6) 0.1301(5) 0.5042(7)
S3 S 0.6929(6) 0.3823(4) 0.4507(6)
O1 O 0.9767(6) 0.3028(7) 0.9245(7)
S1 S 0.3823(4) 0.3071(6) 0.9507(6)
Cu2 Cu 0.82491(9) 0.30170(9) 0.95744(10)
H13 H 0.3471 0.1343 0.9952
C12 C 0.459(2) 0.236(2) 0.838(2)
O7 O 0.7823(6) 0.3674(6) 0.8133(7)
S4 S 0.7732(2) 0.1235(2) 0.8562(3)
H14 H 0.413865 0.171568 0.80505
H15 H 0.477658 0.288073 0.766948
H16 H 0.52994 0.207143 0.876671
O2_2 O 0.4789(6) 0.8196(7) 0.3903(7)
C1_2 C 0.5364(7) 0.7896(7) 0.3082(9)
O3_2 O 0.6326(6) 0.7823(6) 0.3133(7)
H1_2 H 0.0335 0.8878 0.2149
Cu1_2 Cu 0.32742(8) 0.81001(9) 0.36010(10)
O5_2 O 0.1866(5) 0.7959(6) 0.2888(6)
O6_2 O 0.3153(5) 0.7047(6) 0.0348(7)
N1_2 N 0.3761(6) 0.7712(6) 0.2102(7)
N2_2 N 0.1276(6) 0.7445(6) 0.1045(7)
C4_2 C 0.1979(7) 0.7624(7) 0.1829(8)
C5_2 C 0.0166(7) 0.7510(7) 0.1238(8)
C6_2 C 0.4852(7) 0.7620(8) 0.1918(9)
H4_2 H 0.5022 0.6891 0.1712
C7_2 C 0.3057(7) 0.7430(7) 0.1357(8)
C9_2 C 0.5245(8) 0.8351(11) 0.0939(11)
H7_2 H 0.4726 0.8362 0.0310
H8_2 H 0.5292 0.9058 0.1257
H11_2 H 0.0383 0.8370 0.4085
C11_2 C 0.6272(9) 0.8072(10) 0.0421(11)
H12_2 H 0.6773 0.7942 0.1051
O8_2 O 0.2795(6) 0.8699(5) 0.5042(7)
S3_2 S 0.3071(6) 0.6177(4) 0.4507(6)
Cu5 Cu 0.69830(9) 0.82491(9) 0.45744(10)
O1_2 O 0.0233(6) 0.6972(7) 0.9245(7)
S1_2 S 0.6177(4) 0.6929(6) 0.9507(6)
Cu2_2 Cu 0.17509(9) 0.69830(9) 0.95744(10)
H13_2 H 0.6529 0.8657 0.9952
C12_2 C 0.541(2) 0.764(2) 0.838(2)
O7_2 O 0.2177(6) 0.6326(6) 0.8133(7)
S4_2 S 0.2268(2) 0.8765(2) 0.8562(3)
Cu3 Cu 0.81001(9) 0.67258(8) 0.86010(10)
H14_2 H 0.586135 0.828432 0.80505
H15_2 H 0.522342 0.711927 0.766948
H16_2 H 0.47006 0.792857 0.876671
C2_2 C 0.9677(8) 0.7205(7) 0.0080(9)
O4_2 O 0.8699(5) 0.7205(6) 0.0042(7)
S2_2 S 0.8765(2) 0.7732(2) 0.3562(3)
C3_2 C 0.9797(8) 0.8574(7) 0.1645(9)
H2_2 H 0.9725 0.9026 0.0958
H3_2 H 0.9969 0.6987 0.1835
C8_2 C 0.8773(8) 0.8579(7) 0.2310(8)
H5_2 H 0.8214 0.8368 0.1776
H6_2 H 0.8625 0.9291 0.2570
C10_2 C 0.9718(9) 0.8348(16) 0.4488(13)
H9_2 H 0.9790 0.7953 0.5209
H10_2 H 0.9495 0.9051 0.4670
C2_3 C 0.7205(7) 0.0323(8) 0.5080(9)
C3_3 C 0.8574(7) 0.0203(8) 0.6645(9)
H2_3 H 0.9026 0.0275 0.5958
H3_3 H 0.6987 0.0031 0.6835
C8_3 C 0.8579(7) 0.1227(8) 0.7310(8)
H5_3 H 0.8368 0.1786 0.6776
H6_3 H 0.9291 0.1375 0.7570
C10_3 C 0.8348(16) 0.0282(9) 0.9488(13)
H10_3 H 0.9051 0.0505 0.9670
O1_3 O 0.6972(7) 0.9767(6) 0.4245(7)
O2_3 O 0.8196(7) 0.5211(6) 0.8903(7)
C1_3 C 0.7896(7) 0.4636(7) 0.8082(9)
H1_3 H 0.8878 0.9665 0.7149
O5_3 O 0.7959(6) 0.8134(5) 0.7888(6)
O6_3 O 0.7047(6) 0.6847(5) 0.5348(7)
N1_3 N 0.7712(6) 0.6239(6) 0.7102(7)
N2_3 N 0.7445(6) 0.8724(6) 0.6045(7)
C4_3 C 0.7624(7) 0.8021(7) 0.6829(8)
C5_3 C 0.7510(7) 0.9834(7) 0.6238(8)
C6_3 C 0.7620(8) 0.5148(7) 0.6918(9)
H4_3 H 0.6891 0.4978 0.6712
C7_3 C 0.7430(7) 0.6943(7) 0.6357(8)
C9_3 C 0.8351(11) 0.4755(8) 0.5939(11)
H7_3 H 0.8362 0.5274 0.5310
H8_3 H 0.9058 0.4708 0.6257
H11_3 H 0.8370 0.9617 0.9085
C11_3 C 0.8072(10) 0.3728(9) 0.5421(11)
H12_3 H 0.7942 0.3227 0.6051
H13_3 H 0.8657 0.3471 0.4952
C12_3 C 0.764(2) 0.459(2) 0.338(2)
H14_3 H 0.828432 0.413865 0.30505
H15_3 H 0.711927 0.477658 0.266948
H16_3 H 0.792857 0.52994 0.376671
O1_4 O 0.3028(7) 0.0233(6) 0.4245(7)
O2_4 O 0.1804(7) 0.4789(6) 0.8903(7)
C1_4 C 0.2104(7) 0.5364(7) 0.8082(9)
H1_4 H 0.1122 0.0335 0.7149
O5_4 O 0.2041(6) 0.1866(5) 0.7888(6)
O6_4 O 0.2953(6) 0.3153(5) 0.5348(7)
N1_4 N 0.2288(6) 0.3761(6) 0.7102(7)
N2_4 N 0.2555(6) 0.1276(6) 0.6045(7)
C4_4 C 0.2376(7) 0.1979(7) 0.6829(8)
C5_4 C 0.2490(7) 0.0166(7) 0.6238(8)
C6_4 C 0.2380(8) 0.4852(7) 0.6918(9)
H4_4 H 0.3109 0.5022 0.6712
C7_4 C 0.2570(7) 0.3057(7) 0.6357(8)
C9_4 C 0.1649(11) 0.5245(8) 0.5939(11)
H7_4 H 0.1638 0.4726 0.5310
H8_4 H 0.0942 0.5292 0.6257
H11_4 H 0.1630 0.0383 0.9085
C11_4 C 0.1928(10) 0.6272(9) 0.5421(11)
H12_4 H 0.2058 0.6773 0.6051
H13_4 H 0.1343 0.6529 0.4952
C12_4 C 0.236(2) 0.541(2) 0.338(2)
H14_4 H 0.171568 0.586135 0.30505
H15_4 H 0.288073 0.522342 0.266948
H16_4 H 0.207143 0.47006 0.376671
C2_4 C 0.2795(7) 0.9677(8) 0.5080(9)
C3_4 C 0.1426(7) 0.9797(8) 0.6645(9)
H2_4 H 0.0974 0.9725 0.5958
H3_4 H 0.3013 0.9969 0.6835
C8_4 C 0.1421(7) 0.8773(8) 0.7310(8)
H5_4 H 0.1632 0.8214 0.6776
H6_4 H 0.0709 0.8625 0.7570
C10_4 C 0.1652(16) 0.9718(9) 0.9488(13)
H10_4 H 0.0949 0.9495 0.9670
H9_3 H 0.7953 0.0210 0.0209
H9_4 H 0.2047 0.9790 0.0209
loop_
_geom_bond_atom_site_label_1
_geom_bond_atom_site_label_2
_geom_bond_site_symmetry_1
_geom_bond_site_symmetry_2
C2 O4 1_555 1_555
S2 C8 1_555 1_555
H2 C3 1_555 1_555
C8 C3 1_555 1_555
H5 C8 1_555 1_555
H6 C8 1_555 1_555
C10 S2 1_555 1_555
H9 C10 1_555 1_555
H10 C10 1_555 1_555
Cu6 S2 1_555 1_555
O2 C1 1_555 1_555
C1 O3 1_555 1_555
O3 Cu6 1_555 1_555
Cu1 O2 1_555 1_555
O5 Cu1 1_555 1_555
N1 Cu1 1_555 1_555
C4 O5 1_555 1_555
C6 C1 1_555 1_555
H4 C6 1_555 1_555
C7 O6 1_555 1_555
C9 C6 1_555 1_555
H7 C9 1_555 1_555
H8 C9 1_555 1_555
C11 C9 1_555 1_555
H12 C11 1_555 1_555
O8 Cu1 1_555 1_555
S3 Cu1 1_555 1_555
N1 C6 1_555 1_555
N1 C7 1_555 1_555
N2 C4 1_555 1_555
N2 C5 1_555 1_555
C4 C7 1_555 1_555
Cu2 O1 1_555 1_555
C12 S1 1_555 1_555
O7 Cu2 1_555 1_555
S4 Cu2 1_555 1_555
Cu4 S1 1_555 1_555
C12 H14 1_555 1_555
C12 H15 1_555 1_555
C12 H16 1_555 1_555
O2_2 C1_2 1_555 1_555
C1_2 O3_2 1_555 1_555
O3_2 Cu5 1_555 1_555
Cu1_2 O2_2 1_555 1_555
O5_2 Cu1_2 1_555 1_555
N1_2 Cu1_2 1_555 1_555
C4_2 O5_2 1_555 1_555
C6_2 C1_2 1_555 1_555
H4_2 C6_2 1_555 1_555
C7_2 O6_2 1_555 1_555
C9_2 C6_2 1_555 1_555
H7_2 C9_2 1_555 1_555
H8_2 C9_2 1_555 1_555
C11_2 C9_2 1_555 1_555
H12_2 C11_2 1_555 1_555
O8_2 Cu1_2 1_555 1_555
S3_2 Cu1_2 1_555 1_555
N1_2 C6_2 1_555 1_555
N1_2 C7_2 1_555 1_555
N2_2 C4_2 1_555 1_555
N2_2 C5_2 1_555 1_555
C4_2 C7_2 1_555 1_555
Cu2_2 O1_2 1_555 1_555
C12_2 S1_2 1_555 1_555
O7_2 Cu2_2 1_555 1_555
S4_2 Cu2_2 1_555 1_555
Cu3 S1_2 1_555 1_555
C12_2 H14_2 1_555 1_555
C12_2 H15_2 1_555 1_555
C12_2 H16_2 1_555 1_555
C2_2 O4_2 1_555 1_555
S2_2 C8_2 1_555 1_555
H2_2 C3_2 1_555 1_555
C8_2 C3_2 1_555 1_555
H5_2 C8_2 1_555 1_555
H6_2 C8_2 1_555 1_555
C10_2 S2_2 1_555 1_555
H9_2 C10_2 1_555 1_555
H10_2 C10_2 1_555 1_555
Cu5 S2_2 1_555 1_555
C2_3 O8 1_555 1_555
S4 C8_3 1_555 1_555
H2_3 C3_3 1_555 1_555
C8_3 C3_3 1_555 1_555
H5_3 C8_3 1_555 1_555
H6_3 C8_3 1_555 1_555
C10_3 S4 1_555 1_555
H10_3 C10_3 1_555 1_555
O2_3 C1_3 1_555 1_555
C1_3 O7 1_555 1_555
S3 C11_3 1_555 1_555
Cu3 O2_3 1_555 1_555
Cu5 O1_3 1_555 1_555
O5_3 Cu3 1_555 1_555
O6_3 Cu5 1_555 1_555
N1_3 Cu3 1_555 1_555
N2_3 Cu5 1_555 1_555
C4_3 O5_3 1_555 1_555
C6_3 C1_3 1_555 1_555
H4_3 C6_3 1_555 1_555
C7_3 O6_3 1_555 1_555
C9_3 C6_3 1_555 1_555
H7_3 C9_3 1_555 1_555
H8_3 C9_3 1_555 1_555
C11_3 C9_3 1_555 1_555
H12_3 C11_3 1_555 1_555
H13_3 C11_3 1_555 1_555
C12_3 S3 1_555 1_555
N1_3 C6_3 1_555 1_555
N1_3 C7_3 1_555 1_555
N2_3 C4_3 1_555 1_555
N2_3 C5_3 1_555 1_555
C4_3 C7_3 1_555 1_555
C12_3 H14_3 1_555 1_555
C12_3 H15_3 1_555 1_555
C12_3 H16_3 1_555 1_555
O2_4 C1_4 1_555 1_555
C1_4 O7_2 1_555 1_555
S3_2 C11_4 1_555 1_555
Cu4 O2_4 1_555 1_555
Cu6 O1_4 1_555 1_555
O5_4 Cu4 1_555 1_555
O6_4 Cu6 1_555 1_555
N1_4 Cu4 1_555 1_555
N2_4 Cu6 1_555 1_555
C4_4 O5_4 1_555 1_555
C6_4 C1_4 1_555 1_555
H4_4 C6_4 1_555 1_555
C7_4 O6_4 1_555 1_555
C9_4 C6_4 1_555 1_555
H7_4 C9_4 1_555 1_555
H8_4 C9_4 1_555 1_555
C11_4 C9_4 1_555 1_555
H12_4 C11_4 1_555 1_555
H13_4 C11_4 1_555 1_555
C12_4 S3_2 1_555 1_555
N1_4 C6_4 1_555 1_555
N1_4 C7_4 1_555 1_555
N2_4 C4_4 1_555 1_555
N2_4 C5_4 1_555 1_555
C4_4 C7_4 1_555 1_555
C12_4 H14_4 1_555 1_555
C12_4 H15_4 1_555 1_555
C12_4 H16_4 1_555 1_555
C2_4 O8_2 1_555 1_555
S4_2 C8_4 1_555 1_555
H2_4 C3_4 1_555 1_555
C8_4 C3_4 1_555 1_555
H5_4 C8_4 1_555 1_555
H6_4 C8_4 1_555 1_555
C10_4 S4_2 1_555 1_555
H10_4 C10_4 1_555 1_555

#END
