
###############################################################################
#
# This file contains modified crystal structure data generated from the
# MOF subset of the Cambridge Structural Database (CSD) v543 
# hosted by the Cambridge Crystallographic Data Centre (CCDC).
#
# This work is licensed under the Creative Commons
# Attribution-NonCommercial-ShareAlike 4.0 International License.
# To view a copy of this license, visit
# http://creativecommons.org/licenses/by-nc-sa/4.0/
# or send a letter to
# Creative Commons, PO Box 1866, Mountain View, CA 94042, USA.
#
# CIF created using the CSD Python API on 29 September 2022
# The structure has been converted into the P1 space group
# The structure has a 3D framework
# The original CSD entry LEBBOM is in the tetragonal crystal system
# The original CSD entry LEBBOM is in a Sohncke space group
# The framework has been calculated to contain at least 10.0% void space
# The void calculation uses a probe of radius 1.32A, grid spacing 0.4
#
###############################################################################

data_LEBBOM
_chemical_formula_moiety         '(C48 H64 Cu8 N8 O24 S8)n'
_symmetry_cell_setting           triclinic
_symmetry_space_group_name_H-M   'P 1'
_symmetry_Int_Tables_number      1
_space_group_name_Hall           'P 1'
loop_
_symmetry_equiv_pos_site_id
_symmetry_equiv_pos_as_xyz
1 x,y,z
_cell_length_a                   13.6593(2)
_cell_length_b                   13.6593(2)
_cell_length_c                   12.0051(4)
_cell_angle_alpha                90
_cell_angle_beta                 90
_cell_angle_gamma                90
_cell_volume                     2239.87
loop_
_atom_site_label
_atom_site_type_symbol
_atom_site_fract_x
_atom_site_fract_y
_atom_site_fract_z
O1 O 0.3236(5) 0.0162(5) 0.5690(6)
O2 O 0.1981(5) 0.4799(5) 0.1034(6)
C1 C 0.2183(8) 0.5357(8) 0.1930(10)
O3 O 0.2158(5) 0.6342(5) 0.1904(6)
C3 C 0.3553(8) 0.6213(8) 0.4173(9)
H1 H 0.3346 0.6741 0.3660
H2 H 0.4231 0.6356 0.4414
C4 C 0.3544(7) 0.5199(7) 0.3515(8)
H3 H 0.3819 0.4687 0.4008
H4 H 0.3984 0.5259 0.2863
S1 S 0.2717(2) 0.62188(19) 0.5446(3)
C5 C 0.3308(10) 0.5268(8) 0.6373(12)
H5 H 0.4008 0.5413 0.6450
H6 H 0.3226 0.4618 0.6040
H7 H 0.2997 0.5280 0.7108
H8 H 0.2040 0.0372 0.0545
H11 H 0.3295 0.0327 0.2104
Cu1 Cu 0.19703(8) 0.32728(8) 0.13720(8)
Cu2 Cu 0.30524(8) 0.16932(8) 0.54419(8)
O5 O 0.1984(5) 0.1864(5) 0.2141(6)
O6 O 0.2877(5) 0.3109(5) 0.4728(6)
N1 N 0.2386(6) 0.3740(6) 0.2887(7)
N2 N 0.2634(6) 0.1230(6) 0.3910(7)
C9 C 0.2366(7) 0.1948(7) 0.3171(9)
C10 C 0.2581(8) 0.0135(7) 0.3691(9)
C11 C 0.2482(8) 0.4838(7) 0.3084(9)
H16 H 0.1987 0.5030 0.3657
C12 C 0.2555(7) 0.3021(8) 0.3672(9)
O7 O 0.3658(5) 0.2158(5) 0.6904(6)
S3 S 0.37812(19) 0.2717(2) 0.0446(3)
S4 S 0.1185(2) 0.1679(2) 0.6446(3)
Cu4 Cu 0.32728(8) 0.80297(8) 0.63720(8)
Cu6 Cu 0.16932(8) 0.69476(8) 0.04419(8)
O8 O 0.1349(5) 0.2846(6) 0.9890(6)
C2 C 0.2903(7) 0.9602(8) 0.4845(9)
O4 O 0.2846(6) 0.8651(5) 0.4890(6)
S2 S 0.1679(2) 0.8815(2) 0.1446(3)
C6 C 0.1877(14) 0.9726(12) 0.0241(15)
C7 C 0.3289(8) 0.9801(8) 0.2672(9)
H12 H 0.3964 0.9730 0.2959
C8 C 0.2974(9) 0.8795(8) 0.2083(9)
H13 H 0.3008 0.8262 0.2639
H14 H 0.3451 0.8644 0.1487
H15 H 0.1891 0.9952 0.3510
C2_2 C 0.7097(7) 0.0398(8) 0.4845(9)
O4_2 O 0.7154(6) 0.1349(5) 0.4890(6)
S2_2 S 0.8321(2) 0.1185(2) 0.1446(3)
C6_2 C 0.8123(14) 0.0274(12) 0.0241(15)
C7_2 C 0.6711(8) 0.0199(8) 0.2672(9)
H12_2 H 0.6036 0.0270 0.2959
C8_2 C 0.7026(9) 0.1205(8) 0.2083(9)
H13_2 H 0.6992 0.1738 0.2639
H14_2 H 0.6549 0.1356 0.1487
H15_2 H 0.8109 0.0048 0.3510
Cu3 Cu 0.67272(8) 0.19703(8) 0.63720(8)
Cu5 Cu 0.83068(8) 0.30524(8) 0.04419(8)
O1_2 O 0.6764(5) 0.9838(5) 0.5690(6)
O2_2 O 0.8019(5) 0.5201(5) 0.1034(6)
C1_2 C 0.7817(8) 0.4643(8) 0.1930(10)
O3_2 O 0.7842(5) 0.3658(5) 0.1904(6)
C3_2 C 0.6447(8) 0.3787(8) 0.4173(9)
H1_2 H 0.6654 0.3259 0.3660
H2_2 H 0.5769 0.3644 0.4414
C4_2 C 0.6456(7) 0.4801(7) 0.3515(8)
H3_2 H 0.6181 0.5313 0.4008
H4_2 H 0.6016 0.4741 0.2863
S1_2 S 0.7283(2) 0.37812(19) 0.5446(3)
C5_2 C 0.6692(10) 0.4732(8) 0.6373(12)
H5_2 H 0.5992 0.4587 0.6450
H6_2 H 0.6774 0.5382 0.6040
H7_2 H 0.7003 0.4720 0.7108
H8_2 H 0.7960 0.9628 0.0545
H11_2 H 0.6705 0.9673 0.2104
Cu1_2 Cu 0.80297(8) 0.67272(8) 0.13720(8)
Cu2_2 Cu 0.69476(8) 0.83068(8) 0.54419(8)
O5_2 O 0.8016(5) 0.8136(5) 0.2141(6)
O6_2 O 0.7123(5) 0.6891(5) 0.4728(6)
N1_2 N 0.7614(6) 0.6260(6) 0.2887(7)
N2_2 N 0.7366(6) 0.8770(6) 0.3910(7)
C9_2 C 0.7634(7) 0.8052(7) 0.3171(9)
C10_2 C 0.7419(8) 0.9865(7) 0.3691(9)
C11_2 C 0.7518(8) 0.5162(7) 0.3084(9)
H16_2 H 0.8013 0.4970 0.3657
C12_2 C 0.7445(7) 0.6979(8) 0.3672(9)
O7_2 O 0.6342(5) 0.7842(5) 0.6904(6)
S3_2 S 0.62188(19) 0.7283(2) 0.0446(3)
S4_2 S 0.8815(2) 0.8321(2) 0.6446(3)
O8_2 O 0.8651(5) 0.7154(6) 0.9890(6)
C2_3 C 0.0398(8) 0.2903(7) 0.9845(9)
C6_3 C 0.0274(12) 0.1877(14) 0.5241(15)
H9 H 0.0226 0.1276 0.4797
H10 H 0.0503 0.2415 0.4768
C7_3 C 0.0199(8) 0.3289(8) 0.7672(9)
H12_3 H 0.0270 0.3964 0.7959
C8_3 C 0.1205(8) 0.2974(9) 0.7083(9)
H13_3 H 0.1738 0.3008 0.7639
H14_3 H 0.1356 0.3451 0.6487
H15_3 H 0.0048 0.1891 0.8510
O1_3 O 0.9838(5) 0.3236(5) 0.0690(6)
C5_3 C 0.4732(8) 0.3308(10) 0.1373(12)
H5_3 H 0.4587 0.4008 0.1450
H6_3 H 0.5382 0.3226 0.1040
H7_3 H 0.4720 0.2997 0.2108
O2_3 O 0.5201(5) 0.1981(5) 0.6034(6)
C1_3 C 0.4643(8) 0.2183(8) 0.6930(10)
C3_3 C 0.3787(8) 0.3553(8) 0.9173(9)
H1_3 H 0.3259 0.3346 0.8660
H2_3 H 0.3644 0.4231 0.9414
C4_3 C 0.4801(7) 0.3544(7) 0.8515(8)
H3_3 H 0.5313 0.3819 0.9008
H4_3 H 0.4741 0.3984 0.7863
H8_3 H 0.9628 0.2040 0.5545
H11_3 H 0.9673 0.3295 0.7104
O5_3 O 0.8136(5) 0.1984(5) 0.7141(6)
O6_3 O 0.6891(5) 0.2877(5) 0.9728(6)
N1_3 N 0.6260(6) 0.2386(6) 0.7887(7)
N2_3 N 0.8770(6) 0.2634(6) 0.8910(7)
C9_3 C 0.8052(7) 0.2366(7) 0.8171(9)
C10_3 C 0.9865(7) 0.2581(8) 0.8691(9)
C11_3 C 0.5162(7) 0.2482(8) 0.8084(9)
H16_3 H 0.4970 0.1987 0.8657
C12_3 C 0.6979(8) 0.2555(7) 0.8672(9)
O1_4 O 0.0162(5) 0.6764(5) 0.0690(6)
C5_4 C 0.5268(8) 0.6692(10) 0.1373(12)
H5_4 H 0.5413 0.5992 0.1450
H6_4 H 0.4618 0.6774 0.1040
H7_4 H 0.5280 0.7003 0.2108
O2_4 O 0.4799(5) 0.8019(5) 0.6034(6)
C1_4 C 0.5357(8) 0.7817(8) 0.6930(10)
C3_4 C 0.6213(8) 0.6447(8) 0.9173(9)
H1_4 H 0.6741 0.6654 0.8660
H2_4 H 0.6356 0.5769 0.9414
C4_4 C 0.5199(7) 0.6456(7) 0.8515(8)
H3_4 H 0.4687 0.6181 0.9008
H4_4 H 0.5259 0.6016 0.7863
H8_4 H 0.0372 0.7960 0.5545
H11_4 H 0.0327 0.6705 0.7104
O5_4 O 0.1864(5) 0.8016(5) 0.7141(6)
O6_4 O 0.3109(5) 0.7123(5) 0.9728(6)
N1_4 N 0.3740(6) 0.7614(6) 0.7887(7)
N2_4 N 0.1230(6) 0.7366(6) 0.8910(7)
C9_4 C 0.1948(7) 0.7634(7) 0.8171(9)
C10_4 C 0.0135(7) 0.7419(8) 0.8691(9)
C11_4 C 0.4838(7) 0.7518(8) 0.8084(9)
H16_4 H 0.5030 0.8013 0.8657
C12_4 C 0.3021(8) 0.7445(7) 0.8672(9)
C2_4 C 0.9602(8) 0.7097(7) 0.9845(9)
C6_4 C 0.9726(12) 0.8123(14) 0.5241(15)
H9_2 H 0.9774 0.8724 0.4797
H10_2 H 0.9497 0.7585 0.4768
C7_4 C 0.9801(8) 0.6711(8) 0.7672(9)
H12_4 H 0.9730 0.6036 0.7959
C8_4 C 0.8795(8) 0.7026(9) 0.7083(9)
H13_4 H 0.8262 0.6992 0.7639
H14_4 H 0.8644 0.6549 0.6487
H15_4 H 0.9952 0.8109 0.8510
H9_3 H 0.1276 0.9774 0.9797
H10_3 H 0.2415 0.9497 0.9768
H9_4 H 0.8724 0.0226 0.9797
H10_4 H 0.7585 0.0503 0.9768
loop_
_geom_bond_atom_site_label_1
_geom_bond_atom_site_label_2
_geom_bond_site_symmetry_1
_geom_bond_site_symmetry_2
O2 C1 1_555 1_555
C1 O3 1_555 1_555
O3 Cu6 1_555 1_555
C3 H1 1_555 1_555
H2 C3 1_555 1_555
C4 C3 1_555 1_555
H3 C4 1_555 1_555
H4 C4 1_555 1_555
S1 C3 1_555 1_555
C5 S1 1_555 1_555
H5 C5 1_555 1_555
H6 C5 1_555 1_555
H7 C5 1_555 1_555
Cu1 O2 1_555 1_555
Cu2 O1 1_555 1_555
O5 Cu1 1_555 1_555
O6 Cu2 1_555 1_555
N1 Cu1 1_555 1_555
N2 Cu2 1_555 1_555
C9 O5 1_555 1_555
C11 C1 1_555 1_555
H16 C11 1_555 1_555
C12 O6 1_555 1_555
O7 Cu2 1_555 1_555
S3 Cu1 1_555 1_555
S4 Cu2 1_555 1_555
Cu4 S1 1_555 1_555
C4 C11 1_555 1_555
N1 C11 1_555 1_555
N1 C12 1_555 1_555
N2 C9 1_555 1_555
N2 C10 1_555 1_555
C9 C12 1_555 1_555
C2 O4 1_555 1_555
O4 Cu4 1_555 1_555
S2 C6 1_555 1_555
H12 C7 1_555 1_555
C8 S2 1_555 1_555
H13 C8 1_555 1_555
H14 C8 1_555 1_555
Cu6 S2 1_555 1_555
C7 C8 1_555 1_555
C2_2 O4_2 1_555 1_555
O4_2 Cu3 1_555 1_555
S2_2 C6_2 1_555 1_555
H12_2 C7_2 1_555 1_555
C8_2 S2_2 1_555 1_555
H13_2 C8_2 1_555 1_555
H14_2 C8_2 1_555 1_555
Cu5 S2_2 1_555 1_555
C7_2 C8_2 1_555 1_555
O2_2 C1_2 1_555 1_555
C1_2 O3_2 1_555 1_555
O3_2 Cu5 1_555 1_555
C3_2 H1_2 1_555 1_555
H2_2 C3_2 1_555 1_555
C4_2 C3_2 1_555 1_555
H3_2 C4_2 1_555 1_555
H4_2 C4_2 1_555 1_555
S1_2 C3_2 1_555 1_555
C5_2 S1_2 1_555 1_555
H5_2 C5_2 1_555 1_555
H6_2 C5_2 1_555 1_555
H7_2 C5_2 1_555 1_555
Cu1_2 O2_2 1_555 1_555
Cu2_2 O1_2 1_555 1_555
O5_2 Cu1_2 1_555 1_555
O6_2 Cu2_2 1_555 1_555
N1_2 Cu1_2 1_555 1_555
N2_2 Cu2_2 1_555 1_555
C9_2 O5_2 1_555 1_555
C11_2 C1_2 1_555 1_555
H16_2 C11_2 1_555 1_555
C12_2 O6_2 1_555 1_555
O7_2 Cu2_2 1_555 1_555
S3_2 Cu1_2 1_555 1_555
S4_2 Cu2_2 1_555 1_555
Cu3 S1_2 1_555 1_555
C4_2 C11_2 1_555 1_555
N1_2 C11_2 1_555 1_555
N1_2 C12_2 1_555 1_555
N2_2 C9_2 1_555 1_555
N2_2 C10_2 1_555 1_555
C9_2 C12_2 1_555 1_555
C2_3 O8 1_555 1_555
S4 C6_3 1_555 1_555
H9 C6_3 1_555 1_555
H10 C6_3 1_555 1_555
H12_3 C7_3 1_555 1_555
C8_3 S4 1_555 1_555
H13_3 C8_3 1_555 1_555
H14_3 C8_3 1_555 1_555
C7_3 C8_3 1_555 1_555
C5_3 S3 1_555 1_555
H5_3 C5_3 1_555 1_555
H6_3 C5_3 1_555 1_555
H7_3 C5_3 1_555 1_555
Cu5 O1_3 1_555 1_555
O2_3 C1_3 1_555 1_555
C1_3 O7 1_555 1_555
C3_3 H1_3 1_555 1_555
H2_3 C3_3 1_555 1_555
C4_3 C3_3 1_555 1_555
H3_3 C4_3 1_555 1_555
H4_3 C4_3 1_555 1_555
Cu3 O2_3 1_555 1_555
O5_3 Cu3 1_555 1_555
N1_3 Cu3 1_555 1_555
C9_3 O5_3 1_555 1_555
C11_3 C1_3 1_555 1_555
H16_3 C11_3 1_555 1_555
C12_3 O6_3 1_555 1_555
C4_3 C11_3 1_555 1_555
N1_3 C11_3 1_555 1_555
N1_3 C12_3 1_555 1_555
N2_3 C9_3 1_555 1_555
N2_3 C10_3 1_555 1_555
C9_3 C12_3 1_555 1_555
C5_4 S3_2 1_555 1_555
H5_4 C5_4 1_555 1_555
H6_4 C5_4 1_555 1_555
H7_4 C5_4 1_555 1_555
Cu6 O1_4 1_555 1_555
O2_4 C1_4 1_555 1_555
C1_4 O7_2 1_555 1_555
C3_4 H1_4 1_555 1_555
H2_4 C3_4 1_555 1_555
C4_4 C3_4 1_555 1_555
H3_4 C4_4 1_555 1_555
H4_4 C4_4 1_555 1_555
Cu4 O2_4 1_555 1_555
O5_4 Cu4 1_555 1_555
N1_4 Cu4 1_555 1_555
C9_4 O5_4 1_555 1_555
C11_4 C1_4 1_555 1_555
H16_4 C11_4 1_555 1_555
C12_4 O6_4 1_555 1_555
C4_4 C11_4 1_555 1_555
N1_4 C11_4 1_555 1_555
N1_4 C12_4 1_555 1_555
N2_4 C9_4 1_555 1_555
N2_4 C10_4 1_555 1_555
C9_4 C12_4 1_555 1_555
C2_4 O8_2 1_555 1_555
S4_2 C6_4 1_555 1_555
H9_2 C6_4 1_555 1_555
H10_2 C6_4 1_555 1_555
H12_4 C7_4 1_555 1_555
C8_4 S4_2 1_555 1_555
H13_4 C8_4 1_555 1_555
H14_4 C8_4 1_555 1_555
C7_4 C8_4 1_555 1_555

#END
