
###############################################################################
#
# This file contains modified crystal structure data generated from the
# MOF subset of the Cambridge Structural Database (CSD) v543 
# hosted by the Cambridge Crystallographic Data Centre (CCDC).
#
# This work is licensed under the Creative Commons
# Attribution-NonCommercial-ShareAlike 4.0 International License.
# To view a copy of this license, visit
# http://creativecommons.org/licenses/by-nc-sa/4.0/
# or send a letter to
# Creative Commons, PO Box 1866, Mountain View, CA 94042, USA.
#
# CIF created using the CSD Python API on 29 September 2022
# The structure has been converted into the P1 space group
# The structure has a 3D framework
# The original CSD entry LEBZEB is in the monoclinic crystal system
# The framework has been calculated to contain at least 10.0% void space
# The void calculation uses a probe of radius 1.32A, grid spacing 0.4
#
###############################################################################

data_LEBZEB
_chemical_formula_moiety         '(C120 H98 Co8 N8 O27 P8)n'
_symmetry_cell_setting           triclinic
_symmetry_space_group_name_H-M   'P 1'
_symmetry_Int_Tables_number      1
_space_group_name_Hall           'P 1'
loop_
_symmetry_equiv_pos_site_id
_symmetry_equiv_pos_as_xyz
1 x,y,z
_cell_length_a                   22.5059(6)
_cell_length_b                   15.5816(4)
_cell_length_c                   9.3576(2)
_cell_angle_alpha                90
_cell_angle_beta                 104.4860(10)
_cell_angle_gamma                90
_cell_volume                     3177.18
loop_
_atom_site_label
_atom_site_type_symbol
_atom_site_fract_x
_atom_site_fract_y
_atom_site_fract_z
Co1 Co 0.45395(2) 0.43687(2) 0.29400(3)
Co2 Co 0.31453(2) 0.45156(2) 0.44541(3)
P1 P 0.45069(3) 0.38736(5) 0.62964(8)
P2 P 0.31639(3) 0.37966(5) 0.11496(8)
O1 O 0.48776(11) 0.45540(13) 0.7324(2)
O2 O 0.46960(11) 0.38248(15) 0.4859(2)
O3 O 0.38185(9) 0.40174(13) 0.6084(2)
O4 O 0.29498(10) 0.39318(13) 0.2552(2)
O5 O 0.38580(9) 0.39345(13) 0.1372(2)
O7 O 0.38633(11) 0.52547(12) 0.3745(3)
H1 H 0.378809 0.555627 0.289788
H2 H 0.399313 0.557554 0.456304
C1 C 0.46753(14) 0.28364(19) 0.7172(3)
C2 C 0.42508(16) 0.2484(2) 0.7830(4)
H3 H 0.389198 0.279980 0.784976
C3 C 0.4339(2) 0.1658(3) 0.8477(5)
H4 H 0.405209 0.143569 0.897332
C4 C 0.4835(2) 0.1185(3) 0.8388(6)
H5 H 0.487957 0.061944 0.878080
C5 C 0.52809(18) 0.1511(2) 0.7730(4)
C6 C 0.52228(15) 0.2360(2) 0.7159(3)
C7 C 0.57060(15) 0.2689(3) 0.6606(4)
H6 H 0.568732 0.326444 0.626433
C8 C 0.62027(18) 0.2188(3) 0.6556(4)
H7 H 0.652412 0.242276 0.618631
C9 C 0.6241(2) 0.1338(3) 0.7042(5)
H8 H 0.657695 0.098917 0.696059
C10 C 0.5796(2) 0.1013(3) 0.7631(5)
H9 H 0.582980 0.043911 0.798439
C11 C 0.30219(14) 0.26829(19) 0.0636(3)
C15 C 0.31640(16) 0.1136(2) 0.1150(4)
C16 C 0.34143(19) 0.0458(2) 0.2118(4)
C17 C 0.3766(2) 0.0626(2) 0.3503(5)
H14 H 0.392340 0.016497 0.415272
C18 C 0.38971(19) 0.1475(2) 0.3970(4)
H15 H 0.414936 0.158685 0.492907
C19 C 0.36648(15) 0.2141(2) 0.3060(4)
H16 H 0.376063 0.271255 0.339233
C20 C 0.32831(14) 0.20008(19) 0.1625(3)
C21 C 0.53602(17) 0.2850(2) 0.2903(4)
H17 H 0.519612 0.267196 0.369709
C22 C 0.57961(17) 0.2338(2) 0.2515(4)
H18 H 0.593715 0.183006 0.305514
C23 C 0.60266(14) 0.2575(2) 0.1321(3)
C24 C 0.57968(14) 0.3319(2) 0.0571(3)
C25 C 0.53705(15) 0.3794(2) 0.1054(3)
H20 H 0.521827 0.430274 0.052889
C26 C 0.65226(13) 0.2082(2) 0.0910(3)
C27 C 0.66022(14) 0.1210(2) 0.1213(4)
H21 H 0.633359 0.091346 0.168039
C28 C 0.70735(14) 0.0779(2) 0.0829(4)
H22 H 0.712589 0.018512 0.105710
C30 C 0.69291(15) 0.2472(2) 0.0225(4)
H24 H 0.689274 0.306766 0.000036
N1 N 0.51588(11) 0.35849(17) 0.2210(3)
N2 N 0.74617(12) 0.11573(17) 0.0148(3)
Co3 Co 0.45395(2) 0.56313(2) 0.79400(3)
O8 O 0.48776(11) 0.54460(13) 0.2324(2)
O9 O 0.28172(10) 0.56493(13) 0.4867(2)
N3 N 0.24617(12) 0.38427(17) 0.5148(3)
O6 O 0.28172(10) 0.43507(13) 0.9867(2)
C12 C 0.26624(15) 0.2487(2) 0.9253(3)
H10 H 0.248769 0.293713 0.859730
C13 C 0.25506(18) 0.1626(2) 0.8799(4)
H11 H 0.230351 0.150400 0.783876
C14 C 0.27919(18) 0.0971(2) 0.9717(4)
H12 H 0.271014 0.039471 0.939400
H19 H 0.593207 0.349779 0.973412
C29 C 0.73883(15) 0.1994(2) 0.9870(4)
H23 H 0.766456 0.227426 0.940467
H24_2 H 0.689274 0.306766 1.000036
Co4 Co 0.31453(2) 0.54844(2) 0.94541(3)
Co5 Co 0.81453(2) 0.04844(2) 0.94541(3)
P1_2 P 0.45069(3) 0.61264(5) 0.12964(8)
O3_2 O 0.38185(9) 0.59826(13) 0.1084(2)
C1_2 C 0.46753(14) 0.71636(19) 0.2172(3)
C2_2 C 0.42508(16) 0.7516(2) 0.2830(4)
H3_2 H 0.389198 0.720020 0.284976
C3_2 C 0.4339(2) 0.8342(3) 0.3477(5)
H4_2 H 0.405209 0.856431 0.397332
C4_2 C 0.4835(2) 0.8815(3) 0.3388(6)
H5_2 H 0.487957 0.938056 0.378080
C5_2 C 0.52809(18) 0.8489(2) 0.2730(4)
C6_2 C 0.52228(15) 0.7640(2) 0.2159(3)
C7_2 C 0.57060(15) 0.7311(3) 0.1606(4)
H6_2 H 0.568732 0.673556 0.126433
C8_2 C 0.62027(18) 0.7812(3) 0.1556(4)
H7_2 H 0.652412 0.757724 0.118631
C9_2 C 0.6241(2) 0.8662(3) 0.2042(5)
H8_2 H 0.657695 0.901083 0.196059
C10_2 C 0.5796(2) 0.8987(3) 0.2631(5)
H9_2 H 0.582980 0.956089 0.298439
N3_2 N 0.24617(12) 0.61573(17) 0.0148(3)
P2_2 P 0.31639(3) 0.62034(5) 0.61496(8)
O2_2 O 0.46960(11) 0.61752(15) 0.9859(2)
O4_2 O 0.29498(10) 0.60682(13) 0.7552(2)
O5_2 O 0.38580(9) 0.60655(13) 0.6372(2)
O7_2 O 0.38633(11) 0.47453(12) 0.8745(3)
H1_2 H 0.378809 0.444373 0.789788
H2_2 H 0.399313 0.442446 0.956304
C11_2 C 0.30219(14) 0.73171(19) 0.5636(3)
C12_2 C 0.26624(15) 0.7513(2) 0.4253(3)
H10_2 H 0.248769 0.706287 0.359730
C13_2 C 0.25506(18) 0.8374(2) 0.3799(4)
H11_2 H 0.230351 0.849600 0.283876
C14_2 C 0.27919(18) 0.9029(2) 0.4717(4)
H12_2 H 0.271014 0.960529 0.439400
C15_2 C 0.31640(16) 0.8864(2) 0.6150(4)
C16_2 C 0.34143(19) 0.9542(2) 0.7118(4)
C17_2 C 0.3766(2) 0.9374(2) 0.8503(5)
H14_2 H 0.392340 0.983503 0.915272
C18_2 C 0.38971(19) 0.8525(2) 0.8970(4)
H15_2 H 0.414936 0.841315 0.992907
C19_2 C 0.36648(15) 0.7859(2) 0.8060(4)
H16_2 H 0.376063 0.728745 0.839233
C20_2 C 0.32831(14) 0.79992(19) 0.6625(3)
C21_2 C 0.53602(17) 0.7150(2) 0.7903(4)
H17_2 H 0.519612 0.732804 0.869709
C22_2 C 0.57961(17) 0.7662(2) 0.7515(4)
H18_2 H 0.593715 0.816994 0.805514
C23_2 C 0.60266(14) 0.7425(2) 0.6321(3)
C24_2 C 0.57968(14) 0.6681(2) 0.5571(3)
H19_2 H 0.593207 0.650221 0.473412
C25_2 C 0.53705(15) 0.6206(2) 0.6054(3)
H20_2 H 0.521827 0.569726 0.552889
C26_2 C 0.65226(13) 0.7918(2) 0.5910(3)
C27_2 C 0.66022(14) 0.8790(2) 0.6213(4)
H21_2 H 0.633359 0.908654 0.668039
C28_2 C 0.70735(14) 0.9221(2) 0.5829(4)
H22_2 H 0.712589 0.981488 0.605710
C29_2 C 0.73883(15) 0.8006(2) 0.4870(4)
H23_2 H 0.766456 0.772574 0.440467
C30_2 C 0.69291(15) 0.7528(2) 0.5225(4)
H24_3 H 0.689274 0.693234 0.500036
N1_2 N 0.51588(11) 0.64151(17) 0.7210(3)
N2_2 N 0.74617(12) 0.88427(17) 0.5148(3)
Co5_2 Co 0.81453(2) 0.95156(2) 0.44541(3)
C5_3 C 0.02809(18) 0.6511(2) 0.7730(4)
C6_3 C 0.02228(15) 0.7360(2) 0.7159(3)
C7_3 C 0.07060(15) 0.7689(3) 0.6606(4)
H6_3 H 0.068732 0.826444 0.626433
C8_3 C 0.12027(18) 0.7188(3) 0.6556(4)
H7_3 H 0.152412 0.742276 0.618631
C9_3 C 0.1241(2) 0.6338(3) 0.7042(5)
H8_3 H 0.157695 0.598917 0.696059
C10_3 C 0.0796(2) 0.6013(3) 0.7631(5)
H9_3 H 0.082980 0.543911 0.798439
C21_3 C 0.03602(17) 0.7850(2) 0.2903(4)
H17_3 H 0.019612 0.767196 0.369709
C22_3 C 0.07961(17) 0.7338(2) 0.2515(4)
H18_3 H 0.093715 0.683006 0.305514
C23_3 C 0.10266(14) 0.7575(2) 0.1321(3)
C24_3 C 0.07968(14) 0.8319(2) 0.0571(3)
C25_3 C 0.03705(15) 0.8794(2) 0.1054(3)
H20_3 H 0.021827 0.930274 0.052889
C26_3 C 0.15226(13) 0.7082(2) 0.0910(3)
C27_3 C 0.16022(14) 0.6210(2) 0.1213(4)
H21_3 H 0.133359 0.591346 0.168039
C28_3 C 0.20735(14) 0.5779(2) 0.0829(4)
H22_3 H 0.212589 0.518512 0.105710
C30_3 C 0.19291(15) 0.7472(2) 0.0225(4)
H24_4 H 0.189274 0.806766 0.000036
N1_3 N 0.01588(11) 0.85849(17) 0.2210(3)
H19_3 H 0.093207 0.849779 0.973412
C29_3 C 0.23883(15) 0.6994(2) 0.9870(4)
H23_3 H 0.266456 0.727426 0.940467
H24_5 H 0.189274 0.806766 1.000036
O7_3 O 0.88633(11) 0.02547(12) 0.3745(3)
H1_3 H 0.878809 0.055627 0.289788
H2_3 H 0.899313 0.057554 0.456304
Co3_2 Co 0.95395(2) 0.06313(2) 0.79400(3)
O8_2 O 0.98776(11) 0.04460(13) 0.2324(2)
O9_2 O 0.78172(10) 0.06493(13) 0.4867(2)
Co1_2 Co 0.95395(2) 0.93687(2) 0.29400(3)
P1_3 P 0.95069(3) 0.88736(5) 0.62964(8)
P2_3 P 0.81639(3) 0.87966(5) 0.11496(8)
O1_2 O 0.98776(11) 0.95540(13) 0.7324(2)
O2_3 O 0.96960(11) 0.88248(15) 0.4859(2)
O3_3 O 0.88185(9) 0.90174(13) 0.6084(2)
O4_3 O 0.79498(10) 0.89318(13) 0.2552(2)
O5_3 O 0.88580(9) 0.89345(13) 0.1372(2)
C1_3 C 0.96753(14) 0.78364(19) 0.7172(3)
C2_3 C 0.92508(16) 0.7484(2) 0.7830(4)
H3_3 H 0.889198 0.779980 0.784976
C3_3 C 0.9339(2) 0.6658(3) 0.8477(5)
H4_3 H 0.905209 0.643569 0.897332
C4_3 C 0.9835(2) 0.6185(3) 0.8388(6)
H5_3 H 0.987957 0.561944 0.878080
C11_3 C 0.80219(14) 0.76829(19) 0.0636(3)
C15_3 C 0.81640(16) 0.6136(2) 0.1150(4)
C16_3 C 0.84143(19) 0.5458(2) 0.2118(4)
H13 H 0.833674 0.488035 0.180101
C17_3 C 0.8766(2) 0.5626(2) 0.3503(5)
H14_3 H 0.892340 0.516497 0.415272
C18_3 C 0.88971(19) 0.6475(2) 0.3970(4)
H15_3 H 0.914936 0.658685 0.492907
C19_3 C 0.86648(15) 0.7141(2) 0.3060(4)
H16_3 H 0.876063 0.771255 0.339233
C20_3 C 0.82831(14) 0.70008(19) 0.1625(3)
O6_2 O 0.78172(10) 0.93507(13) 0.9867(2)
C12_3 C 0.76624(15) 0.7487(2) 0.9253(3)
H10_3 H 0.748769 0.793713 0.859730
C13_3 C 0.75506(18) 0.6626(2) 0.8799(4)
H11_3 H 0.730351 0.650400 0.783876
C14_3 C 0.77919(18) 0.5971(2) 0.9717(4)
H12_3 H 0.771014 0.539471 0.939400
C21_4 C 0.03602(17) 0.2150(2) 0.7903(4)
H17_4 H 0.019612 0.232804 0.869709
C22_4 C 0.07961(17) 0.2662(2) 0.7515(4)
H18_4 H 0.093715 0.316994 0.805514
C23_4 C 0.10266(14) 0.2425(2) 0.6321(3)
C24_4 C 0.07968(14) 0.1681(2) 0.5571(3)
H19_4 H 0.093207 0.150221 0.473412
C25_4 C 0.03705(15) 0.1206(2) 0.6054(3)
H20_4 H 0.021827 0.069726 0.552889
C26_4 C 0.15226(13) 0.2918(2) 0.5910(3)
C27_4 C 0.16022(14) 0.3790(2) 0.6213(4)
H21_4 H 0.133359 0.408654 0.668039
C28_4 C 0.20735(14) 0.4221(2) 0.5829(4)
H22_4 H 0.212589 0.481488 0.605710
C29_4 C 0.23883(15) 0.3006(2) 0.4870(4)
H23_4 H 0.266456 0.272574 0.440467
C30_4 C 0.19291(15) 0.2528(2) 0.5225(4)
H24_6 H 0.189274 0.193234 0.500036
N1_4 N 0.01588(11) 0.14151(17) 0.7210(3)
P1_4 P 0.95069(3) 0.11264(5) 0.12964(8)
O3_4 O 0.88185(9) 0.09826(13) 0.1084(2)
C1_4 C 0.96753(14) 0.21636(19) 0.2172(3)
C2_4 C 0.92508(16) 0.2516(2) 0.2830(4)
H3_4 H 0.889198 0.220020 0.284976
C3_4 C 0.9339(2) 0.3342(3) 0.3477(5)
H4_4 H 0.905209 0.356431 0.397332
C4_4 C 0.9835(2) 0.3815(3) 0.3388(6)
H5_4 H 0.987957 0.438056 0.378080
P2_4 P 0.81639(3) 0.12034(5) 0.61496(8)
O2_4 O 0.96960(11) 0.11752(15) 0.9859(2)
O4_4 O 0.79498(10) 0.10682(13) 0.7552(2)
O5_4 O 0.88580(9) 0.10655(13) 0.6372(2)
C11_4 C 0.80219(14) 0.23171(19) 0.5636(3)
C12_4 C 0.76624(15) 0.2513(2) 0.4253(3)
H10_4 H 0.748769 0.206287 0.359730
C13_4 C 0.75506(18) 0.3374(2) 0.3799(4)
H11_4 H 0.730351 0.349600 0.283876
C14_4 C 0.77919(18) 0.4029(2) 0.4717(4)
H12_4 H 0.771014 0.460529 0.439400
C15_4 C 0.81640(16) 0.3864(2) 0.6150(4)
C16_4 C 0.84143(19) 0.4542(2) 0.7118(4)
H13_2 H 0.833674 0.511965 0.680101
C17_4 C 0.8766(2) 0.4374(2) 0.8503(5)
H14_4 H 0.892340 0.483503 0.915272
C18_4 C 0.88971(19) 0.3525(2) 0.8970(4)
H15_4 H 0.914936 0.341315 0.992907
C19_4 C 0.86648(15) 0.2859(2) 0.8060(4)
H16_4 H 0.876063 0.228745 0.839233
C20_4 C 0.82831(14) 0.29992(19) 0.6625(3)
O7_4 O 0.88633(11) 0.97453(12) 0.8745(3)
H1_4 H 0.878809 0.944373 0.789788
H2_4 H 0.899313 0.942446 0.956304
H13_3 H 0.333674 0.988035 0.180101
H13_4 H 0.333674 0.011965 0.680101
C5_4 C 0.02809(18) 0.3489(2) 0.2730(4)
C6_4 C 0.02228(15) 0.2640(2) 0.2159(3)
C7_4 C 0.07060(15) 0.2311(3) 0.1606(4)
H6_4 H 0.068732 0.173556 0.126433
C8_4 C 0.12027(18) 0.2812(3) 0.1556(4)
H7_4 H 0.152412 0.257724 0.118631
C9_4 C 0.1241(2) 0.3662(3) 0.2042(5)
H8_4 H 0.157695 0.401083 0.196059
C10_4 C 0.0796(2) 0.3987(3) 0.2631(5)
H9_4 H 0.082980 0.456089 0.298439
loop_
_geom_bond_atom_site_label_1
_geom_bond_atom_site_label_2
_geom_bond_site_symmetry_1
_geom_bond_site_symmetry_2
Co1 O2 1_555 1_555
Co2 O3 1_555 1_555
P1 O1 1_555 1_555
P2 O4 1_555 1_555
O1 Co3 1_555 1_555
O2 P1 1_555 1_555
O3 P1 1_555 1_555
O4 Co2 1_555 1_555
O5 Co1 1_555 1_555
O7 Co1 1_555 1_555
H1 O7 1_555 1_555
H2 O7 1_555 1_555
C1 P1 1_555 1_555
C2 C1 1_555 1_555
H3 C2 1_555 1_555
C3 C2 1_555 1_555
H4 C3 1_555 1_555
C4 C3 1_555 1_555
H5 C4 1_555 1_555
C5 C4 1_555 1_555
C6 C1 1_555 1_555
C7 C6 1_555 1_555
H6 C7 1_555 1_555
C8 C7 1_555 1_555
H7 C8 1_555 1_555
C9 C8 1_555 1_555
H8 C9 1_555 1_555
C10 C5 1_555 1_555
H9 C10 1_555 1_555
C11 P2 1_555 1_555
C16 C15 1_555 1_555
C17 C16 1_555 1_555
H14 C17 1_555 1_555
C18 C17 1_555 1_555
H15 C18 1_555 1_555
C19 C18 1_555 1_555
H16 C19 1_555 1_555
C20 C11 1_555 1_555
C21 H17 1_555 1_555
C22 C21 1_555 1_555
H18 C22 1_555 1_555
C23 C22 1_555 1_555
C24 C23 1_555 1_555
C25 C24 1_555 1_555
H20 C25 1_555 1_555
C26 C23 1_555 1_555
C27 C26 1_555 1_555
H21 C27 1_555 1_555
C28 C27 1_555 1_555
H22 C28 1_555 1_555
C30 C26 1_555 1_555
H24 C30 1_555 1_555
N1 Co1 1_555 1_555
N2 C28 1_555 1_555
O8 Co1 1_555 1_555
O9 Co2 1_555 1_555
N3 Co2 1_555 1_555
Co2 O7 1_555 1_555
P2 O5 1_555 1_555
C5 C6 1_555 1_555
C9 C10 1_555 1_555
C15 C20 1_555 1_555
C19 C20 1_555 1_555
C21 N1 1_555 1_555
C25 N1 1_555 1_555
H10 C12 1_555 1_555
C13 C12 1_555 1_555
H11 C13 1_555 1_555
C14 C13 1_555 1_555
H12 C14 1_555 1_555
C29 H23 1_555 1_555
Co4 O6 1_555 1_555
P1_2 O8 1_555 1_555
O3_2 P1_2 1_555 1_555
C1_2 P1_2 1_555 1_555
C2_2 C1_2 1_555 1_555
H3_2 C2_2 1_555 1_555
C3_2 C2_2 1_555 1_555
H4_2 C3_2 1_555 1_555
C4_2 C3_2 1_555 1_555
H5_2 C4_2 1_555 1_555
C5_2 C4_2 1_555 1_555
C6_2 C1_2 1_555 1_555
C7_2 C6_2 1_555 1_555
H6_2 C7_2 1_555 1_555
C8_2 C7_2 1_555 1_555
H7_2 C8_2 1_555 1_555
C9_2 C8_2 1_555 1_555
H8_2 C9_2 1_555 1_555
C10_2 C5_2 1_555 1_555
H9_2 C10_2 1_555 1_555
C5_2 C6_2 1_555 1_555
C9_2 C10_2 1_555 1_555
Co3 O2_2 1_555 1_555
P2_2 O4_2 1_555 1_555
O4_2 Co4 1_555 1_555
O5_2 Co3 1_555 1_555
O9 P2_2 1_555 1_555
O7_2 Co3 1_555 1_555
H1_2 O7_2 1_555 1_555
H2_2 O7_2 1_555 1_555
C11_2 P2_2 1_555 1_555
C12_2 C11_2 1_555 1_555
H10_2 C12_2 1_555 1_555
C13_2 C12_2 1_555 1_555
H11_2 C13_2 1_555 1_555
C14_2 C13_2 1_555 1_555
H12_2 C14_2 1_555 1_555
C15_2 C14_2 1_555 1_555
C16_2 C15_2 1_555 1_555
C17_2 C16_2 1_555 1_555
H14_2 C17_2 1_555 1_555
C18_2 C17_2 1_555 1_555
H15_2 C18_2 1_555 1_555
C19_2 C18_2 1_555 1_555
H16_2 C19_2 1_555 1_555
C20_2 C11_2 1_555 1_555
C21_2 H17_2 1_555 1_555
C22_2 C21_2 1_555 1_555
H18_2 C22_2 1_555 1_555
C23_2 C22_2 1_555 1_555
C24_2 C23_2 1_555 1_555
H19_2 C24_2 1_555 1_555
C25_2 C24_2 1_555 1_555
H20_2 C25_2 1_555 1_555
C26_2 C23_2 1_555 1_555
C27_2 C26_2 1_555 1_555
H21_2 C27_2 1_555 1_555
C28_2 C27_2 1_555 1_555
H22_2 C28_2 1_555 1_555
C29_2 H23_2 1_555 1_555
C30_2 C26_2 1_555 1_555
H24_3 C30_2 1_555 1_555
N1_2 Co3 1_555 1_555
N2_2 C28_2 1_555 1_555
Co5_2 N2_2 1_555 1_555
Co4 O7_2 1_555 1_555
P2_2 O5_2 1_555 1_555
C15_2 C20_2 1_555 1_555
C19_2 C20_2 1_555 1_555
C21_2 N1_2 1_555 1_555
C25_2 N1_2 1_555 1_555
C29_2 C30_2 1_555 1_555
C29_2 N2_2 1_555 1_555
C7_3 C6_3 1_555 1_555
H6_3 C7_3 1_555 1_555
C8_3 C7_3 1_555 1_555
H7_3 C8_3 1_555 1_555
C9_3 C8_3 1_555 1_555
H8_3 C9_3 1_555 1_555
C10_3 C5_3 1_555 1_555
H9_3 C10_3 1_555 1_555
C21_3 H17_3 1_555 1_555
C22_3 C21_3 1_555 1_555
H18_3 C22_3 1_555 1_555
C23_3 C22_3 1_555 1_555
C24_3 C23_3 1_555 1_555
C25_3 C24_3 1_555 1_555
H20_3 C25_3 1_555 1_555
C26_3 C23_3 1_555 1_555
C27_3 C26_3 1_555 1_555
H21_3 C27_3 1_555 1_555
C28_3 C27_3 1_555 1_555
H22_3 C28_3 1_555 1_555
C30_3 C26_3 1_555 1_555
H24_4 C30_3 1_555 1_555
N3_2 C28_3 1_555 1_555
C5_3 C6_3 1_555 1_555
C9_3 C10_3 1_555 1_555
C21_3 N1_3 1_555 1_555
C25_3 N1_3 1_555 1_555
C29_3 H23_3 1_555 1_555
H1_3 O7_3 1_555 1_555
H2_3 O7_3 1_555 1_555
Co1_2 O2_3 1_555 1_555
Co5_2 O3_3 1_555 1_555
P1_3 O1_2 1_555 1_555
P2_3 O4_3 1_555 1_555
O2_3 P1_3 1_555 1_555
O3_3 P1_3 1_555 1_555
O4_3 Co5_2 1_555 1_555
O5_3 Co1_2 1_555 1_555
C1_3 P1_3 1_555 1_555
C2_3 C1_3 1_555 1_555
H3_3 C2_3 1_555 1_555
C3_3 C2_3 1_555 1_555
H4_3 C3_3 1_555 1_555
C4_3 C3_3 1_555 1_555
H5_3 C4_3 1_555 1_555
C11_3 P2_3 1_555 1_555
C16_3 C15_3 1_555 1_555
H13 C16_3 1_555 1_555
C17_3 C16_3 1_555 1_555
H14_3 C17_3 1_555 1_555
C18_3 C17_3 1_555 1_555
H15_3 C18_3 1_555 1_555
C19_3 C18_3 1_555 1_555
H16_3 C19_3 1_555 1_555
C20_3 C11_3 1_555 1_555
P2_3 O5_3 1_555 1_555
C15_3 C20_3 1_555 1_555
C19_3 C20_3 1_555 1_555
H10_3 C12_3 1_555 1_555
C13_3 C12_3 1_555 1_555
H11_3 C13_3 1_555 1_555
C14_3 C13_3 1_555 1_555
H12_3 C14_3 1_555 1_555
C21_4 H17_4 1_555 1_555
C22_4 C21_4 1_555 1_555
H18_4 C22_4 1_555 1_555
C23_4 C22_4 1_555 1_555
C24_4 C23_4 1_555 1_555
H19_4 C24_4 1_555 1_555
C25_4 C24_4 1_555 1_555
H20_4 C25_4 1_555 1_555
C26_4 C23_4 1_555 1_555
C27_4 C26_4 1_555 1_555
H21_4 C27_4 1_555 1_555
C28_4 C27_4 1_555 1_555
H22_4 C28_4 1_555 1_555
C29_4 H23_4 1_555 1_555
C30_4 C26_4 1_555 1_555
H24_6 C30_4 1_555 1_555
N3 C28_4 1_555 1_555
C21_4 N1_4 1_555 1_555
C25_4 N1_4 1_555 1_555
C29_4 C30_4 1_555 1_555
C29_4 N3 1_555 1_555
P1_4 O8_2 1_555 1_555
O3_4 P1_4 1_555 1_555
C1_4 P1_4 1_555 1_555
C2_4 C1_4 1_555 1_555
H3_4 C2_4 1_555 1_555
C3_4 C2_4 1_555 1_555
H4_4 C3_4 1_555 1_555
C4_4 C3_4 1_555 1_555
H5_4 C4_4 1_555 1_555
Co3_2 O2_4 1_555 1_555
P2_4 O4_4 1_555 1_555
O4_4 Co5 1_555 1_555
O5_4 Co3_2 1_555 1_555
O9_2 P2_4 1_555 1_555
C11_4 P2_4 1_555 1_555
C12_4 C11_4 1_555 1_555
H10_4 C12_4 1_555 1_555
C13_4 C12_4 1_555 1_555
H11_4 C13_4 1_555 1_555
C14_4 C13_4 1_555 1_555
H12_4 C14_4 1_555 1_555
C15_4 C14_4 1_555 1_555
C16_4 C15_4 1_555 1_555
H13_2 C16_4 1_555 1_555
C17_4 C16_4 1_555 1_555
H14_4 C17_4 1_555 1_555
C18_4 C17_4 1_555 1_555
H15_4 C18_4 1_555 1_555
C19_4 C18_4 1_555 1_555
H16_4 C19_4 1_555 1_555
C20_4 C11_4 1_555 1_555
P2_4 O5_4 1_555 1_555
C15_4 C20_4 1_555 1_555
C19_4 C20_4 1_555 1_555
H1_4 O7_4 1_555 1_555
H2_4 O7_4 1_555 1_555
C7_4 C6_4 1_555 1_555
H6_4 C7_4 1_555 1_555
C8_4 C7_4 1_555 1_555
H7_4 C8_4 1_555 1_555
C9_4 C8_4 1_555 1_555
H8_4 C9_4 1_555 1_555
C10_4 C5_4 1_555 1_555
H9_4 C10_4 1_555 1_555
C5_4 C6_4 1_555 1_555
C9_4 C10_4 1_555 1_555

#END
