
###############################################################################
#
# This file contains modified crystal structure data generated from the
# MOF subset of the Cambridge Structural Database (CSD) v543 
# hosted by the Cambridge Crystallographic Data Centre (CCDC).
#
# This work is licensed under the Creative Commons
# Attribution-NonCommercial-ShareAlike 4.0 International License.
# To view a copy of this license, visit
# http://creativecommons.org/licenses/by-nc-sa/4.0/
# or send a letter to
# Creative Commons, PO Box 1866, Mountain View, CA 94042, USA.
#
# CIF created using the CSD Python API on 29 September 2022
# The structure has been converted into the P1 space group
# The structure has a 3D framework
# The original CSD entry LECQEQ is in the rhombohedral crystal system
# The framework has been calculated to contain at least 10.0% void space
# The void calculation uses a probe of radius 1.32A, grid spacing 0.4
#
###############################################################################

data_LECQEQ
_chemical_formula_moiety         '(C72 H18 Ni7 O48)n'
_symmetry_cell_setting           triclinic
_symmetry_space_group_name_H-M   'P 1'
_symmetry_Int_Tables_number      1
_space_group_name_Hall           'P 1'
loop_
_symmetry_equiv_pos_site_id
_symmetry_equiv_pos_as_xyz
1 x,y,z
_cell_length_a                   25.7856(12)
_cell_length_b                   25.7856(12)
_cell_length_c                   6.7701(10)
_cell_angle_alpha                90
_cell_angle_beta                 90
_cell_angle_gamma                120
_cell_volume                     3898.34
loop_
_atom_site_label
_atom_site_type_symbol
_atom_site_fract_x
_atom_site_fract_y
_atom_site_fract_z
C1 C 0.5934(14) 0.5814(15) 0.252(3)
C2 C 0.5459(15) 0.5417(10) 0.127(3)
C4 C 0.5015(16) 0.4834(13) 0.202(3)
H1 H 0.504(2) 0.471(3) 0.36(3)
Ni1 Ni 0.7135(6) 0.6954(5) 0.3119(17)
O1 O 0.5962(15) 0.5658(14) 0.432(5)
O2 O 0.6336(15) 0.6309(15) 0.187(4)
C7 C 0.4566(10) 0.4422(6) 0.077(3)
Ni4 Ni 0.6486(8) 0.6198(6) 0.6452(17)
Ni7 Ni 0.3621(5) 0.3152(8) 0.0214(17)
Ni8 Ni 0.3514(8) 0.3802(6) 0.3548(17)
O5 O 0.7675(14) 0.6971(21) 0.099(5)
O8 O 0.6640(21) 0.6997(15) 0.520(4)
O10 O 0.4162(16) 0.3878(14) 0.146(4)
O11 O 0.7211(14) 0.6383(21) 0.521(4)
O13 O 0.6951(21) 0.7495(16) 0.187(4)
C3 C 0.5434(10) 0.5578(6) 0.923(3)
O3 O 0.5838(16) 0.6122(14) 0.854(4)
C5 C 0.4066(14) 0.4186(15) 0.748(3)
C6 C 0.4541(15) 0.4583(10) 0.873(3)
C8 C 0.4985(16) 0.5166(13) 0.798(3)
H2 H 0.496(2) 0.529(3) 0.64(3)
Ni3 Ni 0.6379(5) 0.6848(8) 0.9786(17)
Ni6 Ni 0.2865(6) 0.3046(5) 0.6881(17)
O4 O 0.4038(15) 0.4342(14) 0.568(5)
O6 O 0.2325(14) 0.3029(21) 0.901(5)
O7 O 0.3664(15) 0.3691(15) 0.813(4)
O9 O 0.3360(21) 0.3003(15) 0.480(4)
O12 O 0.2789(14) 0.3617(21) 0.479(4)
O14 O 0.3049(21) 0.2505(16) 0.813(4)
C1_2 C 0.4186(15) 0.0120(21) 0.252(3)
C2_2 C 0.4583(10) 0.0042(18) 0.127(3)
C4_2 C 0.5166(13) 0.0181(21) 0.202(3)
H1_2 H 0.529(3) 0.033(4) 0.36(3)
Ni1_2 Ni 0.3046(5) 0.0181(8) 0.3119(17)
O1_2 O 0.4342(14) 0.0304(21) 0.432(5)
O2_2 O 0.3691(15) 0.0027(21) 0.187(4)
C7_2 C 0.5578(6) 0.0144(12) 0.077(3)
Ni4_2 Ni 0.3802(6) 0.0287(10) 0.6452(17)
Ni7_2 Ni 0.6848(8) 0.0468(9) 0.0214(17)
O5_2 O 0.3029(21) 0.0705(25) 0.099(5)
O10_2 O 0.6122(14) 0.0284(21) 0.146(4)
O11_2 O 0.3617(21) 0.0829(25) 0.521(4)
O9_2 O 0.6997(15) 0.0358(26) 0.480(4)
O14_2 O 0.7495(16) 0.0545(26) 0.813(4)
Ni8_2 Ni 0.6198(6) 0.9713(10) 0.3548(17)
O8_2 O 0.3003(15) 0.9642(26) 0.520(4)
O13_2 O 0.2505(16) 0.9455(26) 0.187(4)
C3_2 C 0.4422(6) 0.9856(12) 0.923(3)
O3_2 O 0.3878(14) 0.9716(21) 0.854(4)
C5_2 C 0.5814(15) 0.9880(21) 0.748(3)
C6_2 C 0.5417(10) 0.9958(18) 0.873(3)
C8_2 C 0.4834(13) 0.9819(21) 0.798(3)
H2_2 H 0.471(3) 0.967(4) 0.64(3)
Ni3_2 Ni 0.3152(8) 0.9532(9) 0.9786(17)
Ni6_2 Ni 0.6954(5) 0.9819(8) 0.6881(17)
O4_2 O 0.5658(14) 0.9696(21) 0.568(5)
O6_2 O 0.6971(21) 0.9295(25) 0.901(5)
O7_2 O 0.6309(15) 0.9973(21) 0.813(4)
O12_2 O 0.6383(21) 0.9171(25) 0.479(4)
Ni8_3 Ni 0.0287(10) 0.6486(8) 0.3548(17)
O8_3 O 0.0358(26) 0.3360(21) 0.520(4)
O13_3 O 0.0545(26) 0.3049(21) 0.187(4)
C3_3 C 0.0144(12) 0.4566(10) 0.923(3)
O3_3 O 0.0284(21) 0.4162(16) 0.854(4)
C5_3 C 0.0120(21) 0.5934(14) 0.748(3)
C6_3 C 0.0042(18) 0.5459(15) 0.873(3)
C8_3 C 0.0181(21) 0.5015(16) 0.798(3)
H2_3 H 0.033(4) 0.504(2) 0.64(3)
Ni3_3 Ni 0.0468(9) 0.3621(5) 0.9786(17)
Ni6_3 Ni 0.0181(8) 0.7135(6) 0.6881(17)
O4_3 O 0.0304(21) 0.5962(15) 0.568(5)
O6_3 O 0.0705(25) 0.7675(14) 0.901(5)
O7_3 O 0.0027(21) 0.6336(15) 0.813(4)
O12_3 O 0.0829(25) 0.7211(14) 0.479(4)
C1_3 C 0.9880(21) 0.4066(14) 0.252(3)
C2_3 C 0.9958(18) 0.4541(15) 0.127(3)
C4_3 C 0.9819(21) 0.4985(16) 0.202(3)
H1_3 H 0.967(4) 0.496(2) 0.36(3)
Ni1_3 Ni 0.9819(8) 0.2865(6) 0.3119(17)
O1_3 O 0.9696(21) 0.4038(15) 0.432(5)
O2_3 O 0.9973(21) 0.3664(15) 0.187(4)
C7_3 C 0.9856(12) 0.5434(10) 0.077(3)
Ni4_3 Ni 0.9713(10) 0.3514(8) 0.6452(17)
Ni7_3 Ni 0.9532(9) 0.6379(5) 0.0214(17)
O5_3 O 0.9295(25) 0.2325(14) 0.099(5)
O10_3 O 0.9716(21) 0.5838(16) 0.146(4)
O11_3 O 0.9171(25) 0.2789(14) 0.521(4)
O9_3 O 0.9642(26) 0.6640(21) 0.480(4)
O14_3 O 0.9455(26) 0.6951(21) 0.813(4)
O8_4 O 0.3306(21) 0.0331(15) 0.854(4)
C1_4 C 0.2601(14) 0.9147(15) 0.585(3)
C2_4 C 0.2126(15) 0.8750(10) 0.460(3)
C3_4 C 0.2101(10) 0.8911(6) 0.256(3)
C4_4 C 0.1682(16) 0.8167(13) 0.535(3)
H1_4 H 0.171(2) 0.804(3) 0.69(3)
O1_4 O 0.2629(15) 0.8991(14) 0.765(5)
C5_4 C 0.0733(14) 0.7519(15) 0.081(3)
C6_4 C 0.1208(15) 0.7916(10) 0.206(3)
C7_4 C 0.1233(10) 0.7755(6) 0.410(3)
C8_4 C 0.1652(16) 0.8499(13) 0.131(3)
O7_4 O 0.0331(15) 0.7024(15) 0.146(4)
H2_4 H 0.163(2) 0.862(3) 0.97(3)
O6_4 O 0.8991(14) 0.6363(21) 0.235(5)
C1_5 C 0.0853(15) 0.3453(21) 0.585(3)
C2_5 C 0.1250(10) 0.3375(18) 0.460(3)
C3_5 C 0.1089(6) 0.3189(12) 0.256(3)
C4_5 C 0.1833(13) 0.3514(21) 0.535(3)
H1_5 H 0.196(3) 0.366(4) 0.69(3)
O1_5 O 0.1009(14) 0.3637(21) 0.765(5)
C5_5 C 0.2481(15) 0.3213(21) 0.081(3)
C6_5 C 0.2084(10) 0.3291(18) 0.206(3)
C7_5 C 0.2245(6) 0.3477(12) 0.410(3)
C8_5 C 0.1501(13) 0.3152(21) 0.131(3)
O6_5 O 0.3637(21) 0.2629(25) 0.235(5)
O7_5 O 0.2976(15) 0.3306(21) 0.146(4)
H2_5 H 0.138(3) 0.300(4) 0.97(3)
O8_5 O 0.9669(15) 0.2976(26) 0.854(4)
O6_6 O 0.7371(25) 0.1009(14) 0.235(5)
C1_6 C 0.6547(21) 0.7399(14) 0.585(3)
C2_6 C 0.6625(18) 0.7874(15) 0.460(3)
C3_6 C 0.6811(12) 0.7899(10) 0.256(3)
C4_6 C 0.6486(21) 0.8318(16) 0.535(3)
H1_6 H 0.634(4) 0.829(2) 0.69(3)
O1_6 O 0.6363(21) 0.7371(15) 0.765(5)
C5_6 C 0.6787(21) 0.9267(14) 0.081(3)
C6_6 C 0.6709(18) 0.8792(15) 0.206(3)
C7_6 C 0.6523(12) 0.8767(10) 0.410(3)
C8_6 C 0.6848(21) 0.8348(16) 0.131(3)
O7_6 O 0.6694(21) 0.9669(15) 0.146(4)
O8_6 O 0.7024(26) 0.6694(21) 0.854(4)
H2_6 H 0.700(4) 0.837(2) 0.97(3)
H1_7 H 0.837(2) 0.138(3) 0.03(3)
C1_7 C 0.9267(14) 0.2481(15) 0.919(3)
C2_7 C 0.8792(15) 0.2084(10) 0.794(3)
C3_7 C 0.8767(10) 0.2245(6) 0.590(3)
C4_7 C 0.8348(16) 0.1501(13) 0.869(3)
C5_7 C 0.7399(14) 0.0853(15) 0.415(3)
C6_7 C 0.7874(15) 0.1250(10) 0.540(3)
C7_7 C 0.7899(10) 0.1089(6) 0.744(3)
C8_7 C 0.8318(16) 0.1833(13) 0.465(3)
H2_7 H 0.829(2) 0.196(3) 0.31(3)
H1_8 H 0.862(3) 0.700(4) 0.03(3)
C1_8 C 0.7519(15) 0.6787(21) 0.919(3)
C2_8 C 0.7916(10) 0.6709(18) 0.794(3)
C3_8 C 0.7755(6) 0.6523(12) 0.590(3)
C4_8 C 0.8499(13) 0.6848(21) 0.869(3)
C5_8 C 0.9147(15) 0.6547(21) 0.415(3)
C6_8 C 0.8750(10) 0.6625(18) 0.540(3)
C7_8 C 0.8911(6) 0.6811(12) 0.744(3)
C8_8 C 0.8167(13) 0.6486(21) 0.465(3)
H2_8 H 0.804(3) 0.634(4) 0.31(3)
H1_9 H 0.300(4) 0.163(2) 0.03(3)
C1_9 C 0.3213(21) 0.0733(14) 0.919(3)
C2_9 C 0.3291(18) 0.1208(15) 0.794(3)
C3_9 C 0.3477(12) 0.1233(10) 0.590(3)
C4_9 C 0.3152(21) 0.1652(16) 0.869(3)
C5_9 C 0.3453(21) 0.2601(14) 0.415(3)
C6_9 C 0.3375(18) 0.2126(15) 0.540(3)
C7_9 C 0.3189(12) 0.2101(10) 0.744(3)
C8_9 C 0.3514(21) 0.1682(16) 0.465(3)
H2_9 H 0.366(4) 0.171(2) 0.31(3)
loop_
_geom_bond_atom_site_label_1
_geom_bond_atom_site_label_2
_geom_bond_site_symmetry_1
_geom_bond_site_symmetry_2
C1 C2 1_555 1_555
C4 C2 1_555 1_555
H1 C4 1_555 1_555
Ni1 O2 1_555 1_555
O1 C1 1_555 1_555
O2 C1 1_555 1_555
C7 C4 1_555 1_555
Ni4 O1 1_555 1_555
Ni8 O10 1_555 1_555
O5 Ni1 1_555 1_555
O8 Ni1 1_555 1_555
O10 C7 1_555 1_555
O11 Ni1 1_555 1_555
O13 Ni1 1_555 1_555
Ni4 O8 1_555 1_555
Ni4 O11 1_555 1_555
Ni7 O10 1_555 1_555
C3 O3 1_555 1_555
O3 Ni3 1_555 1_555
C5 C6 1_555 1_555
C8 C3 1_555 1_555
H2 C8 1_555 1_555
Ni8 O4 1_555 1_555
Ni4 O3 1_555 1_555
Ni6 O6 1_555 1_555
O4 C5 1_555 1_555
O7 C5 1_555 1_555
O9 Ni8 1_555 1_555
O12 Ni8 1_555 1_555
O14 Ni6 1_555 1_555
C6 C8 1_555 1_555
Ni6 O7 1_555 1_555
Ni6 O9 1_555 1_555
Ni6 O12 1_555 1_555
C1_2 C2_2 1_555 1_555
C4_2 C2_2 1_555 1_555
H1_2 C4_2 1_555 1_555
Ni1_2 O2_2 1_555 1_555
O1_2 C1_2 1_555 1_555
O2_2 C1_2 1_555 1_555
C7_2 C4_2 1_555 1_555
Ni4_2 O1_2 1_555 1_555
O5_2 Ni1_2 1_555 1_555
O10_2 C7_2 1_555 1_555
O11_2 Ni1_2 1_555 1_555
Ni4_2 O11_2 1_555 1_555
Ni7_2 O10_2 1_555 1_555
C3_2 O3_2 1_555 1_555
O3_2 Ni3_2 1_555 1_555
C5_2 C6_2 1_555 1_555
C8_2 C3_2 1_555 1_555
H2_2 C8_2 1_555 1_555
Ni8_2 O4_2 1_555 1_555
Ni6_2 O6_2 1_555 1_555
O4_2 C5_2 1_555 1_555
O7_2 C5_2 1_555 1_555
O12_2 Ni8_2 1_555 1_555
C6_2 C8_2 1_555 1_555
Ni6_2 O7_2 1_555 1_555
Ni6_2 O12_2 1_555 1_555
C3_3 O3_3 1_555 1_555
O3_3 Ni3_3 1_555 1_555
C5_3 C6_3 1_555 1_555
C8_3 C3_3 1_555 1_555
H2_3 C8_3 1_555 1_555
Ni8_3 O4_3 1_555 1_555
Ni6_3 O6_3 1_555 1_555
O4_3 C5_3 1_555 1_555
O7_3 C5_3 1_555 1_555
O12_3 Ni8_3 1_555 1_555
C6_3 C8_3 1_555 1_555
Ni6_3 O7_3 1_555 1_555
Ni6_3 O12_3 1_555 1_555
C1_3 C2_3 1_555 1_555
C4_3 C2_3 1_555 1_555
H1_3 C4_3 1_555 1_555
Ni1_3 O2_3 1_555 1_555
O1_3 C1_3 1_555 1_555
O2_3 C1_3 1_555 1_555
C7_3 C4_3 1_555 1_555
Ni4_3 O1_3 1_555 1_555
O5_3 Ni1_3 1_555 1_555
O10_3 C7_3 1_555 1_555
O11_3 Ni1_3 1_555 1_555
Ni4_3 O11_3 1_555 1_555
Ni7_3 O10_3 1_555 1_555
O8_4 Ni4_2 1_555 1_555
C1_4 C2_4 1_555 1_555
C2_4 C3_4 1_555 1_555
C3_4 O13_2 1_555 1_555
C4_4 C2_4 1_555 1_555
H1_4 C4_4 1_555 1_555
O1_4 C1_4 1_555 1_555
O8_2 C1_4 1_555 1_555
C5_4 C6_4 1_555 1_555
C6_4 C7_4 1_555 1_555
C7_4 C4_4 1_555 1_555
C8_4 C3_4 1_555 1_555
Ni3_2 O1_4 1_555 1_555
Ni8_3 O7_4 1_555 1_555
O7_4 C5_4 1_555 1_555
O12_3 C7_4 1_555 1_555
C6_4 C8_4 1_555 1_555
Ni7_3 O6_4 1_555 1_555
C1_5 C2_5 1_555 1_555
C2_5 C3_5 1_555 1_555
C3_5 O13_3 1_555 1_555
C4_5 C2_5 1_555 1_555
H1_5 C4_5 1_555 1_555
O1_5 C1_5 1_555 1_555
O8_3 C1_5 1_555 1_555
C5_5 C6_5 1_555 1_555
C6_5 C7_5 1_555 1_555
C7_5 C4_5 1_555 1_555
C8_5 C3_5 1_555 1_555
Ni3_3 O1_5 1_555 1_555
Ni7 O6_5 1_555 1_555
Ni8 O7_5 1_555 1_555
O7_5 C5_5 1_555 1_555
O12 C7_5 1_555 1_555
C6_5 C8_5 1_555 1_555
Ni7 O7_5 1_555 1_555
O8_5 Ni4_3 1_555 1_555
Ni7_2 O6_6 1_555 1_555
C1_6 C2_6 1_555 1_555
C2_6 C3_6 1_555 1_555
C3_6 O13 1_555 1_555
C4_6 C2_6 1_555 1_555
H1_6 C4_6 1_555 1_555
O1_6 C1_6 1_555 1_555
O8 C1_6 1_555 1_555
C5_6 C6_6 1_555 1_555
C6_6 C7_6 1_555 1_555
C7_6 C4_6 1_555 1_555
C8_6 C3_6 1_555 1_555
Ni3 O1_6 1_555 1_555
Ni8_2 O7_6 1_555 1_555
O7_6 C5_6 1_555 1_555
O8_6 Ni4 1_555 1_555
O12_2 C7_6 1_555 1_555
C6_6 C8_6 1_555 1_555
Ni3 O8_6 1_555 1_555
C1_7 C2_7 1_555 1_555
C2_7 C3_7 1_555 1_555
C3_7 O11_3 1_555 1_555
C4_7 C2_7 1_555 1_555
O8_5 C1_7 1_555 1_555
C5_7 C6_7 1_555 1_555
C6_7 C7_7 1_555 1_555
C7_7 C4_7 1_555 1_555
C8_7 C3_7 1_555 1_555
H2_7 C8_7 1_555 1_555
O6_6 C5_7 1_555 1_555
O9_2 C5_7 1_555 1_555
O14_2 C7_7 1_555 1_555
C6_7 C8_7 1_555 1_555
C1_8 C2_8 1_555 1_555
C2_8 C3_8 1_555 1_555
C3_8 O11 1_555 1_555
C4_8 C2_8 1_555 1_555
O8_6 C1_8 1_555 1_555
C5_8 C6_8 1_555 1_555
C6_8 C7_8 1_555 1_555
C7_8 C4_8 1_555 1_555
C8_8 C3_8 1_555 1_555
H2_8 C8_8 1_555 1_555
O6_4 C5_8 1_555 1_555
O9_3 C5_8 1_555 1_555
O14_3 C7_8 1_555 1_555
C6_8 C8_8 1_555 1_555
C1_9 C2_9 1_555 1_555
C2_9 C3_9 1_555 1_555
C3_9 O11_2 1_555 1_555
C4_9 C2_9 1_555 1_555
O8_4 C1_9 1_555 1_555
C5_9 C6_9 1_555 1_555
C6_9 C7_9 1_555 1_555
C7_9 C4_9 1_555 1_555
C8_9 C3_9 1_555 1_555
H2_9 C8_9 1_555 1_555
O6_5 C5_9 1_555 1_555
O9 C5_9 1_555 1_555
O14 C7_9 1_555 1_555
C6_9 C8_9 1_555 1_555

#END
