
###############################################################################
#
# This file contains modified crystal structure data generated from the
# MOF subset of the Cambridge Structural Database (CSD) v543 
# hosted by the Cambridge Crystallographic Data Centre (CCDC).
#
# This work is licensed under the Creative Commons
# Attribution-NonCommercial-ShareAlike 4.0 International License.
# To view a copy of this license, visit
# http://creativecommons.org/licenses/by-nc-sa/4.0/
# or send a letter to
# Creative Commons, PO Box 1866, Mountain View, CA 94042, USA.
#
# CIF created using the CSD Python API on 29 September 2022
# The structure has been converted into the P1 space group
# The structure has a 3D framework
# The original CSD entry LECQEQ02 is in the rhombohedral crystal system
# The framework has been calculated to contain at least 10.0% void space
# The void calculation uses a probe of radius 1.32A, grid spacing 0.4
#
###############################################################################

data_LECQEQ02
_chemical_formula_moiety         '(C72 H18 Ni7 O54)n'
_symmetry_cell_setting           triclinic
_symmetry_space_group_name_H-M   'P 1'
_symmetry_Int_Tables_number      1
_space_group_name_Hall           'P 1'
loop_
_symmetry_equiv_pos_site_id
_symmetry_equiv_pos_as_xyz
1 x,y,z
_cell_length_a                   25.7018(6)
_cell_length_b                   25.7018(6)
_cell_length_c                   6.7719(2)
_cell_angle_alpha                90
_cell_angle_beta                 90
_cell_angle_gamma                120
_cell_volume                     3874.08
loop_
_atom_site_label
_atom_site_type_symbol
_atom_site_fract_x
_atom_site_fract_y
_atom_site_fract_z
Ni7 Ni 0.37996(6) 0.35119(4) 0.14530(10)
O12 O 0.35878(28) 0.2757(2) 0.0020(5)
O14 O 0.3006(2) 0.3348(3) 0.0362(6)
Ni1 Ni 0.68452(4) 0.63789(4) 0.52137(10)
O1 O 0.6090(2) 0.58355(19) 0.6647(5)
O2 O 0.6324(2) 0.6339(2) 0.2971(6)
C1 C 0.5569(3) 0.5450(3) 0.5769(7)
C2 C 0.5806(3) 0.5935(3) 0.2329(7)
C3 C 0.5153(3) 0.4979(3) 0.6921(7)
C4 C 0.5412(3) 0.5459(3) 0.3790(8)
O3 O 0.5643(2) 0.5940(2) 0.0629(6)
H1 H 0.525265 0.495308 0.822392
O4 O 0.74978(19) 0.69212(28) 0.3314(5)
Ni2 Ni 0.62004(6) 0.64881(4) 0.85470(10)
Ni3 Ni 0.69544(4) 0.71330(6) 0.18804(10)
O6 O 0.6964(3) 0.7690(2) 0.3962(6)
C5 C 0.4588(3) 0.4541(3) 0.6210(8)
C6 C 0.4847(3) 0.5021(3) 0.3079(7)
C7 C 0.4194(3) 0.4065(3) 0.7671(7)
C8 C 0.4431(3) 0.4550(3) 0.4231(7)
H2 H 0.474735 0.504692 0.177608
O8 O 0.3676(2) 0.3661(2) 0.7029(6)
O9 O 0.4357(2) 0.4060(2) 0.9371(6)
O10 O 0.3910(2) 0.41645(19) 0.3353(5)
Ni5 Ni 0.31548(4) 0.36211(4) 0.47863(10)
Ni6 Ni 0.30456(4) 0.28670(6) 0.81196(10)
O11 O 0.25022(19) 0.30788(28) 0.6686(5)
O13 O 0.3036(3) 0.2310(2) 0.6038(6)
O5 O 0.64122(28) 0.7243(2) 0.9980(5)
O7 O 0.6994(2) 0.6652(3) 0.9638(6)
Ni7_2 Ni 0.64881(4) 0.02878(7) 0.14530(10)
O12_2 O 0.7243(2) 0.08312(34) 0.0020(5)
Ni1_2 Ni 0.36211(4) 0.04663(6) 0.52137(10)
O1_2 O 0.41645(19) 0.02545(28) 0.6647(5)
C1_2 C 0.4550(3) 0.0119(4) 0.5769(7)
C3_2 C 0.5021(3) 0.0174(4) 0.6921(7)
H1_2 H 0.504692 0.029957 0.822392
O4_2 O 0.30788(28) 0.05767(34) 0.3314(5)
C5_2 C 0.5459(3) 0.0047(4) 0.6210(8)
C7_2 C 0.5935(3) 0.0129(4) 0.7671(7)
O8_2 O 0.6339(2) 0.0015(3) 0.7029(6)
O9_2 O 0.5940(2) 0.0297(3) 0.9371(6)
Ni6_2 Ni 0.71330(6) 0.01785(7) 0.81196(10)
O13_2 O 0.7690(2) 0.0727(4) 0.6038(6)
O7_2 O 0.3348(3) 0.0343(4) 0.9638(6)
O14_2 O 0.6652(3) 0.9657(4) 0.0362(6)
O2_2 O 0.3661(2) 0.9985(3) 0.2971(6)
C2_2 C 0.4065(3) 0.9871(4) 0.2329(7)
C4_2 C 0.4541(3) 0.9953(4) 0.3790(8)
O3_2 O 0.4060(2) 0.9703(3) 0.0629(6)
Ni2_2 Ni 0.35119(4) 0.97122(7) 0.85470(10)
Ni3_2 Ni 0.28670(6) 0.98215(7) 0.18804(10)
O6_2 O 0.2310(2) 0.9273(4) 0.3962(6)
C6_2 C 0.4979(3) 0.9826(4) 0.3079(7)
C8_2 C 0.5450(3) 0.9881(4) 0.4231(7)
H2_2 H 0.495308 0.970043 0.177608
O10_2 O 0.58355(19) 0.97455(28) 0.3353(5)
Ni5_2 Ni 0.63789(4) 0.95337(6) 0.47863(10)
O11_2 O 0.69212(28) 0.94233(34) 0.6686(5)
O5_2 O 0.2757(2) 0.91688(34) 0.9980(5)
O14_3 O 0.0343(4) 0.6994(2) 0.0362(6)
O2_3 O 0.0015(3) 0.3676(2) 0.2971(6)
C2_3 C 0.0129(4) 0.4194(3) 0.2329(7)
C4_3 C 0.0047(4) 0.4588(3) 0.3790(8)
O3_3 O 0.0297(3) 0.4357(2) 0.0629(6)
Ni2_3 Ni 0.02878(7) 0.37996(6) 0.85470(10)
Ni3_3 Ni 0.01785(7) 0.30456(4) 0.18804(10)
O6_3 O 0.0727(4) 0.3036(3) 0.3962(6)
C6_3 C 0.0174(4) 0.5153(3) 0.3079(7)
C8_3 C 0.0119(4) 0.5569(3) 0.4231(7)
H2_3 H 0.029957 0.525265 0.177608
O10_3 O 0.02545(28) 0.6090(2) 0.3353(5)
Ni5_3 Ni 0.04663(6) 0.68452(4) 0.47863(10)
O11_3 O 0.05767(34) 0.74978(19) 0.6686(5)
O5_3 O 0.08312(34) 0.35878(28) 0.9980(5)
Ni7_3 Ni 0.97122(7) 0.62004(6) 0.14530(10)
O12_3 O 0.91688(34) 0.64122(28) 0.0020(5)
Ni1_3 Ni 0.95337(6) 0.31548(4) 0.52137(10)
O1_3 O 0.97455(28) 0.3910(2) 0.6647(5)
C1_3 C 0.9881(4) 0.4431(3) 0.5769(7)
C3_3 C 0.9826(4) 0.4847(3) 0.6921(7)
H1_3 H 0.970043 0.474735 0.822392
O4_3 O 0.94233(34) 0.25022(19) 0.3314(5)
C5_3 C 0.9953(4) 0.5412(3) 0.6210(8)
C7_3 C 0.9871(4) 0.5806(3) 0.7671(7)
O8_3 O 0.9985(3) 0.6324(2) 0.7029(6)
O9_3 O 0.9703(3) 0.5643(2) 0.9371(6)
Ni6_3 Ni 0.98215(7) 0.69544(4) 0.81196(10)
O13_3 O 0.9273(4) 0.6964(3) 0.6038(6)
O7_3 O 0.9657(4) 0.3006(2) 0.9638(6)
O6_4 O 0.3630(3) 0.1024(2) 0.7296(6)
C3_4 C 0.1820(3) 0.8312(3) 0.0254(7)
H1_4 H 0.191932 0.828641 0.155725
C7_4 C 0.0861(3) 0.7398(3) 0.1004(7)
O9_4 O 0.1024(2) 0.7393(2) 0.2704(6)
O2_4 O 0.2991(2) 0.9672(2) 0.6304(6)
C1_4 C 0.2236(3) 0.8783(3) 0.9102(7)
C2_4 C 0.2473(3) 0.9268(3) 0.5662(7)
C4_4 C 0.2079(3) 0.8792(3) 0.7123(8)
C5_4 C 0.1255(3) 0.7874(3) 0.9543(8)
C6_4 C 0.1514(3) 0.8354(3) 0.6412(7)
C8_4 C 0.1098(3) 0.7883(3) 0.7564(7)
H2_4 H 0.141402 0.838025 0.510941
O14_4 O 0.9672(2) 0.6682(3) 0.3696(6)
C3_5 C 0.1688(3) 0.3507(4) 0.0254(7)
H1_5 H 0.171359 0.363290 0.155725
C7_5 C 0.2602(3) 0.3462(4) 0.1004(7)
O9_5 O 0.2607(2) 0.3630(3) 0.2704(6)
O14_5 O 0.3318(3) 0.2991(4) 0.3696(6)
O2_5 O 0.0328(2) 0.3318(3) 0.6304(6)
C1_5 C 0.1217(3) 0.3452(4) 0.9102(7)
C2_5 C 0.0732(3) 0.3204(4) 0.5662(7)
C4_5 C 0.1208(3) 0.3286(4) 0.7123(8)
C5_5 C 0.2126(3) 0.3380(4) 0.9543(8)
C6_5 C 0.1646(3) 0.3159(4) 0.6412(7)
C8_5 C 0.2117(3) 0.3214(4) 0.7564(7)
H2_5 H 0.161975 0.303376 0.510941
O6_5 O 0.8976(2) 0.2607(4) 0.7296(6)
O14_6 O 0.7009(4) 0.0328(2) 0.3696(6)
C3_6 C 0.6493(4) 0.8180(3) 0.0254(7)
H1_6 H 0.636710 0.808068 0.155725
C7_6 C 0.6538(4) 0.9139(3) 0.1004(7)
O9_6 O 0.6370(3) 0.8976(2) 0.2704(6)
O2_6 O 0.6682(3) 0.7009(2) 0.6304(6)
C1_6 C 0.6548(4) 0.7764(3) 0.9102(7)
C2_6 C 0.6796(4) 0.7527(3) 0.5662(7)
C4_6 C 0.6714(4) 0.7921(3) 0.7123(8)
O6_6 O 0.7393(4) 0.6370(3) 0.7296(6)
C5_6 C 0.6620(4) 0.8745(3) 0.9543(8)
C6_6 C 0.6841(4) 0.8486(3) 0.6412(7)
C8_6 C 0.6786(4) 0.8902(3) 0.7564(7)
H2_6 H 0.696624 0.858598 0.510941
C1_7 C 0.8902(3) 0.2117(3) 0.2436(7)
C3_7 C 0.8486(3) 0.1646(3) 0.3588(7)
C4_7 C 0.8745(3) 0.2126(3) 0.0457(8)
H1_7 H 0.858598 0.161975 0.489059
C5_7 C 0.7921(3) 0.1208(3) 0.2877(8)
C7_7 C 0.7527(3) 0.0732(3) 0.4338(7)
C8_7 C 0.7764(3) 0.1217(3) 0.0898(7)
C2_7 C 0.9139(3) 0.2602(3) 0.8996(7)
C6_7 C 0.8180(3) 0.1688(3) 0.9746(7)
H2_7 H 0.808068 0.171359 0.844275
C1_8 C 0.7883(3) 0.6786(4) 0.2436(7)
C3_8 C 0.8354(3) 0.6841(4) 0.3588(7)
C4_8 C 0.7874(3) 0.6620(4) 0.0457(8)
H1_8 H 0.838025 0.696624 0.489059
C5_8 C 0.8792(3) 0.6714(4) 0.2877(8)
C7_8 C 0.9268(3) 0.6796(4) 0.4338(7)
C8_8 C 0.8783(3) 0.6548(4) 0.0898(7)
C2_8 C 0.7398(3) 0.6538(4) 0.8996(7)
C6_8 C 0.8312(3) 0.6493(4) 0.9746(7)
H2_8 H 0.828641 0.636710 0.844275
C1_9 C 0.3214(4) 0.1098(3) 0.2436(7)
C3_9 C 0.3159(4) 0.1514(3) 0.3588(7)
C4_9 C 0.3380(4) 0.1255(3) 0.0457(8)
H1_9 H 0.303376 0.141402 0.489059
C5_9 C 0.3286(4) 0.2079(3) 0.2877(8)
C7_9 C 0.3204(4) 0.2473(3) 0.4338(7)
C8_9 C 0.3452(4) 0.2236(3) 0.0898(7)
C2_9 C 0.3462(4) 0.0861(3) 0.8996(7)
C6_9 C 0.3507(4) 0.1820(3) 0.9746(7)
H2_9 H 0.363290 0.191932 0.844275
loop_
_geom_bond_atom_site_label_1
_geom_bond_atom_site_label_2
_geom_bond_site_symmetry_1
_geom_bond_site_symmetry_2
Ni7 O12 1_555 1_555
Ni7 O14 1_555 1_555
Ni1 O1 1_555 1_555
O1 C1 1_555 1_555
O2 Ni1 1_555 1_555
C1 C3 1_555 1_555
C2 O2 1_555 1_555
C3 H1 1_555 1_555
C4 C1 1_555 1_555
O3 C2 1_555 1_555
O4 Ni1 1_555 1_555
Ni2 O1 1_555 1_555
Ni3 O2 1_555 1_555
O6 Ni3 1_555 1_555
C5 C3 1_555 1_555
C6 C4 1_555 1_555
C7 C5 1_555 1_555
C8 C5 1_555 1_555
H2 C6 1_555 1_555
O8 C7 1_555 1_555
O9 C7 1_555 1_555
O10 C8 1_555 1_555
Ni5 O8 1_555 1_555
Ni6 O8 1_555 1_555
Ni7 O10 1_555 1_555
O11 Ni5 1_555 1_555
O13 Ni6 1_555 1_555
C2 C4 1_555 1_555
O4 Ni3 1_555 1_555
C6 C8 1_555 1_555
O10 Ni5 1_555 1_555
Ni6 O11 1_555 1_555
O5 Ni2 1_555 1_555
O7 Ni2 1_555 1_555
Ni7_2 O12_2 1_555 1_555
Ni1_2 O1_2 1_555 1_555
O1_2 C1_2 1_555 1_555
C1_2 C3_2 1_555 1_555
C3_2 H1_2 1_555 1_555
O4_2 Ni1_2 1_555 1_555
C5_2 C3_2 1_555 1_555
C7_2 C5_2 1_555 1_555
O8_2 C7_2 1_555 1_555
O9_2 C7_2 1_555 1_555
Ni6_2 O8_2 1_555 1_555
O13_2 Ni6_2 1_555 1_555
C2_2 O2_2 1_555 1_555
O3_2 C2_2 1_555 1_555
Ni3_2 O2_2 1_555 1_555
O6_2 Ni3_2 1_555 1_555
C6_2 C4_2 1_555 1_555
H2_2 C6_2 1_555 1_555
O10_2 C8_2 1_555 1_555
O11_2 Ni5_2 1_555 1_555
C2_2 C4_2 1_555 1_555
C6_2 C8_2 1_555 1_555
O10_2 Ni5_2 1_555 1_555
O5_2 Ni2_2 1_555 1_555
C2_3 O2_3 1_555 1_555
O3_3 C2_3 1_555 1_555
Ni3_3 O2_3 1_555 1_555
O6_3 Ni3_3 1_555 1_555
C6_3 C4_3 1_555 1_555
H2_3 C6_3 1_555 1_555
O10_3 C8_3 1_555 1_555
O11_3 Ni5_3 1_555 1_555
C2_3 C4_3 1_555 1_555
C6_3 C8_3 1_555 1_555
O10_3 Ni5_3 1_555 1_555
O5_3 Ni2_3 1_555 1_555
Ni7_3 O12_3 1_555 1_555
Ni1_3 O1_3 1_555 1_555
O1_3 C1_3 1_555 1_555
C1_3 C3_3 1_555 1_555
C3_3 H1_3 1_555 1_555
O4_3 Ni1_3 1_555 1_555
C5_3 C3_3 1_555 1_555
C7_3 C5_3 1_555 1_555
O8_3 C7_3 1_555 1_555
O9_3 C7_3 1_555 1_555
Ni6_3 O8_3 1_555 1_555
O13_3 Ni6_3 1_555 1_555
O6_4 Ni1_2 1_555 1_555
C3_4 H1_4 1_555 1_555
O14_3 C7_4 1_555 1_555
O9_4 C7_4 1_555 1_555
Ni5_3 O9_4 1_555 1_555
O5_2 C1_4 1_555 1_555
O2_4 Ni2_2 1_555 1_555
C2_4 O2_4 1_555 1_555
C4_4 C1_4 1_555 1_555
O6_2 C2_4 1_555 1_555
C6_4 C4_4 1_555 1_555
C8_4 C5_4 1_555 1_555
H2_4 C6_4 1_555 1_555
O11_3 C8_4 1_555 1_555
C2_4 C4_4 1_555 1_555
C6_4 C8_4 1_555 1_555
O14_4 Ni7_3 1_555 1_555
C3_5 H1_5 1_555 1_555
O14 C7_5 1_555 1_555
O9_5 C7_5 1_555 1_555
Ni5 O9_5 1_555 1_555
O14_5 Ni7 1_555 1_555
Ni5 O14_5 1_555 1_555
O5_3 C1_5 1_555 1_555
O2_5 Ni2_3 1_555 1_555
C2_5 O2_5 1_555 1_555
C4_5 C1_5 1_555 1_555
O6_3 C2_5 1_555 1_555
C6_5 C4_5 1_555 1_555
C8_5 C5_5 1_555 1_555
H2_5 C6_5 1_555 1_555
O11 C8_5 1_555 1_555
C2_5 C4_5 1_555 1_555
C6_5 C8_5 1_555 1_555
O6_5 Ni1_3 1_555 1_555
O14_6 Ni7_2 1_555 1_555
C3_6 H1_6 1_555 1_555
O14_2 C7_6 1_555 1_555
O9_6 C7_6 1_555 1_555
Ni5_2 O9_6 1_555 1_555
O5 C1_6 1_555 1_555
O2_6 Ni2 1_555 1_555
C2_6 O2_6 1_555 1_555
C4_6 C1_6 1_555 1_555
O6 C2_6 1_555 1_555
Ni1 O2_6 1_555 1_555
O6_6 Ni1 1_555 1_555
C6_6 C4_6 1_555 1_555
C8_6 C5_6 1_555 1_555
H2_6 C6_6 1_555 1_555
O11_2 C8_6 1_555 1_555
C2_6 C4_6 1_555 1_555
C6_6 C8_6 1_555 1_555
O4_3 C1_7 1_555 1_555
C1_7 C3_7 1_555 1_555
C3_7 H1_7 1_555 1_555
C4_7 C1_7 1_555 1_555
C5_7 C3_7 1_555 1_555
C7_7 C5_7 1_555 1_555
C8_7 C5_7 1_555 1_555
O14_6 C7_7 1_555 1_555
O13_2 C7_7 1_555 1_555
O12_2 C8_7 1_555 1_555
C2_7 O7_3 1_555 1_555
O6_5 C2_7 1_555 1_555
H2_7 C6_7 1_555 1_555
O4 C1_8 1_555 1_555
C1_8 C3_8 1_555 1_555
C3_8 H1_8 1_555 1_555
C4_8 C1_8 1_555 1_555
C5_8 C3_8 1_555 1_555
C7_8 C5_8 1_555 1_555
C8_8 C5_8 1_555 1_555
O14_4 C7_8 1_555 1_555
O13_3 C7_8 1_555 1_555
O12_3 C8_8 1_555 1_555
C2_8 O7 1_555 1_555
O6_6 C2_8 1_555 1_555
H2_8 C6_8 1_555 1_555
O4_2 C1_9 1_555 1_555
C1_9 C3_9 1_555 1_555
C3_9 H1_9 1_555 1_555
C4_9 C1_9 1_555 1_555
C5_9 C3_9 1_555 1_555
C7_9 C5_9 1_555 1_555
C8_9 C5_9 1_555 1_555
O14_5 C7_9 1_555 1_555
O13 C7_9 1_555 1_555
O12 C8_9 1_555 1_555
C2_9 O7_2 1_555 1_555
O6_4 C2_9 1_555 1_555
H2_9 C6_9 1_555 1_555

#END
