
###############################################################################
#
# This file contains modified crystal structure data generated from the
# MOF subset of the Cambridge Structural Database (CSD) v543 
# hosted by the Cambridge Crystallographic Data Centre (CCDC).
#
# This work is licensed under the Creative Commons
# Attribution-NonCommercial-ShareAlike 4.0 International License.
# To view a copy of this license, visit
# http://creativecommons.org/licenses/by-nc-sa/4.0/
# or send a letter to
# Creative Commons, PO Box 1866, Mountain View, CA 94042, USA.
#
# CIF created using the CSD Python API on 29 September 2022
# The structure has been converted into the P1 space group
# The structure has a 3D framework
# The original CSD entry LECQEQ01 is in the rhombohedral crystal system
# The framework has been calculated to contain at least 10.0% void space
# The void calculation uses a probe of radius 1.32A, grid spacing 0.4
#
###############################################################################

data_LECQEQ01
_chemical_formula_moiety         '(C72 H18 Ni6 O48)n'
_symmetry_cell_setting           triclinic
_symmetry_space_group_name_H-M   'P 1'
_symmetry_Int_Tables_number      1
_space_group_name_Hall           'P 1'
loop_
_symmetry_equiv_pos_site_id
_symmetry_equiv_pos_as_xyz
1 x,y,z
_cell_length_a                   25.79436(23)
_cell_length_b                   25.79436(23)
_cell_length_c                   6.763680(65)
_cell_angle_alpha                90
_cell_angle_beta                 90
_cell_angle_gamma                120
_cell_volume                     3897.29
loop_
_atom_site_label
_atom_site_type_symbol
_atom_site_fract_x
_atom_site_fract_y
_atom_site_fract_z
O4 O 0.05725(32) 0.30940(22) 0.16692(78)
O5 O 0.03312(31) 0.33538(19) 0.53540(67)
Ni8 Ni 0.028550(55) 0.648959(99) 0.35484(15)
Ni1 Ni 0.046257(82) 0.361883(55) 0.97849(15)
O1 O 0.02393(22) 0.41451(23) 0.83359(78)
C1 C 0.01090(34) 0.45633(33) 0.91914(96)
C3 C 0.02147(18) 0.50528(15) 0.79099(63)
H1 H 0.0361(15) 0.5076(14) 0.6420(58)
C5 C 0.00430(38) 0.54531(36) 0.87345(95)
C7 C 0.01347(47) 0.59477(40) 0.7364(11)
O8 O 0.02949(26) 0.59381(28) 0.56192(80)
O9 O 0.00205(19) 0.63560(24) 0.79793(67)
Ni7 Ni 0.017707(99) 0.712924(82) 0.68818(15)
O11 O 0.08118(23) 0.72391(32) 0.49974(78)
O14 O 0.07286(28) 0.76901(38) 0.89525(80)
O2 O 0.99795(19) 0.36440(24) 0.20207(67)
C2 C 0.98653(47) 0.40523(40) 0.2636(11)
C4 C 0.99570(38) 0.45469(36) 0.12655(95)
O3 O 0.97051(26) 0.40619(28) 0.43808(80)
Ni3 Ni 0.982293(99) 0.287076(82) 0.31182(15)
O6 O 0.91882(23) 0.27609(32) 0.50026(78)
O7 O 0.92714(28) 0.23099(38) 0.10475(80)
C6 C 0.97853(18) 0.49472(15) 0.20901(63)
Ni4 Ni 0.971450(55) 0.351041(99) 0.64516(15)
C8 C 0.98910(34) 0.54367(33) 0.08086(96)
H2 H 0.9639(15) 0.4924(14) 0.3580(58)
O10 O 0.97607(22) 0.58549(23) 0.16641(78)
Ni6 Ni 0.953743(82) 0.638117(55) 0.02151(15)
O12 O 0.96688(31) 0.66462(19) 0.46460(67)
O13 O 0.94275(32) 0.69060(22) 0.83308(78)
O2_2 O 0.36645(31) 0.00205(19) 0.20207(67)
C2_2 C 0.41870(62) 0.01347(47) 0.2636(11)
C4_2 C 0.45899(52) 0.00430(38) 0.12655(95)
O3_2 O 0.43568(38) 0.02949(26) 0.43808(80)
Ni3_2 Ni 0.30478(13) 0.017707(99) 0.31182(15)
O6_2 O 0.35726(39) 0.08118(23) 0.50026(78)
O7_2 O 0.30384(47) 0.07286(28) 0.10475(80)
C6_2 C 0.51619(23) 0.02147(18) 0.20901(63)
Ni4_2 Ni 0.37959(11) 0.028550(55) 0.64516(15)
C8_2 C 0.55457(47) 0.01090(34) 0.08086(96)
H2_2 H 0.5285(21) 0.0361(15) 0.3580(58)
O10_2 O 0.60942(32) 0.02393(22) 0.16641(78)
Ni6_2 Ni 0.684374(99) 0.046257(82) 0.02151(15)
O12_2 O 0.69773(36) 0.03312(31) 0.46460(67)
O13_2 O 0.74784(39) 0.05725(32) 0.83308(78)
O4_2 O 0.25216(39) 0.94275(32) 0.16692(78)
O5_2 O 0.30227(36) 0.96688(31) 0.53540(67)
Ni8_2 Ni 0.62041(11) 0.971450(55) 0.35484(15)
Ni1_2 Ni 0.315626(99) 0.953743(82) 0.97849(15)
O1_2 O 0.39058(32) 0.97607(22) 0.83359(78)
C1_2 C 0.44543(47) 0.98910(34) 0.91914(96)
C3_2 C 0.48381(23) 0.97853(18) 0.79099(63)
H1_2 H 0.4715(21) 0.9639(15) 0.6420(58)
C5_2 C 0.54101(52) 0.99570(38) 0.87345(95)
C7_2 C 0.58130(62) 0.98653(47) 0.7364(11)
O8_2 O 0.56432(38) 0.97051(26) 0.56192(80)
O9_2 O 0.63355(31) 0.99795(19) 0.79793(67)
Ni7_2 Ni 0.69522(13) 0.982293(99) 0.68818(15)
O11_2 O 0.64274(39) 0.91882(23) 0.49974(78)
O14_2 O 0.69616(47) 0.92714(28) 0.89525(80)
O12_3 O 0.03107(36) 0.69978(31) 0.13126(67)
O3_3 O 0.76901(38) 0.69616(26) 0.10475(80)
O5_3 O 0.63560(36) 0.63355(31) 0.20207(67)
O6_3 O 0.69060(39) 0.74784(23) 0.16692(78)
Ni4_3 Ni 0.71292(11) 0.695216(55) 0.31182(15)
H2_3 H 0.8618(21) 0.7028(15) 0.0247(58)
Ni1_3 Ni 0.648959(99) 0.620410(82) 0.64516(15)
O1_3 O 0.72391(32) 0.64274(22) 0.50026(78)
O2_3 O 0.69978(31) 0.66872(19) 0.86874(67)
C1_3 C 0.77876(47) 0.65577(34) 0.58581(96)
C2_3 C 0.75203(62) 0.68014(47) 0.9303(11)
C3_3 C 0.81714(23) 0.64520(18) 0.45766(63)
C4_3 C 0.79232(52) 0.67097(38) 0.79322(95)
H1_3 H 0.8048(21) 0.6306(15) 0.3087(58)
O4_3 O 0.58549(39) 0.60942(32) 0.83359(78)
Ni3_3 Ni 0.63812(13) 0.684374(99) 0.97849(15)
O7_3 O 0.63718(47) 0.73952(28) 0.77141(80)
C5_3 C 0.87434(52) 0.66237(38) 0.54012(95)
C6_3 C 0.84952(23) 0.68814(18) 0.87568(63)
C7_3 C 0.91463(62) 0.65320(47) 0.4031(11)
C8_3 C 0.88790(47) 0.67757(34) 0.74753(96)
O8_3 O 0.89765(38) 0.63718(26) 0.22859(80)
C1_4 C 0.11210(47) 0.32243(34) 0.25247(96)
C2_4 C 0.08537(62) 0.34680(47) 0.5969(11)
C3_4 C 0.15048(23) 0.31186(18) 0.12432(63)
C4_4 C 0.12566(52) 0.33763(38) 0.45988(95)
O3_4 O 0.10235(38) 0.36282(26) 0.77141(80)
C5_4 C 0.20768(52) 0.32903(38) 0.20678(95)
C6_4 C 0.18286(23) 0.35480(18) 0.54234(63)
C7_4 C 0.24797(62) 0.31986(47) 0.0697(11)
C8_4 C 0.22124(47) 0.34423(34) 0.41419(96)
H2_4 H 0.1952(21) 0.3694(15) 0.6913(58)
O9_3 O 0.30022(31) 0.33128(19) 0.13126(67)
O10_3 O 0.27609(32) 0.35726(22) 0.49974(78)
Ni6_3 Ni 0.351041(99) 0.379590(82) 0.35484(15)
Ni7_3 Ni 0.36188(13) 0.315626(99) 0.02151(15)
Ni8_3 Ni 0.28708(11) 0.304784(55) 0.68818(15)
O13_3 O 0.41451(39) 0.39058(32) 0.16641(78)
O14_3 O 0.36282(47) 0.26048(28) 0.22859(80)
H1_4 H 0.1382(21) 0.2972(15) 0.9753(58)
O8_4 O 0.23099(38) 0.30384(26) 0.89525(80)
O11_3 O 0.30940(39) 0.25216(23) 0.83308(78)
O12_4 O 0.36440(36) 0.36645(31) 0.79793(67)
O5_4 O 0.96893(36) 0.30022(31) 0.86874(67)
C2_5 C 0.59477(40) 0.58130(62) 0.2636(11)
C4_5 C 0.54531(36) 0.54101(52) 0.12655(95)
O3_5 O 0.59381(28) 0.56432(38) 0.43808(80)
O5_5 O 0.66462(19) 0.69773(36) 0.53540(67)
C6_5 C 0.50528(15) 0.48381(23) 0.20901(63)
C8_5 C 0.45633(33) 0.44543(47) 0.08086(96)
H2_5 H 0.5076(14) 0.4715(21) 0.3580(58)
C1_5 C 0.54367(33) 0.55457(47) 0.91914(96)
C3_5 C 0.49472(15) 0.51619(23) 0.79099(63)
H1_5 H 0.4924(14) 0.5285(21) 0.6420(58)
C5_5 C 0.45469(36) 0.45899(52) 0.87345(95)
C7_5 C 0.40523(40) 0.41870(62) 0.7364(11)
O8_5 O 0.40619(28) 0.43568(38) 0.56192(80)
O12_5 O 0.33538(19) 0.30227(36) 0.46460(67)
H2_6 H 0.8409(14) 0.1382(21) 0.0247(58)
C1_6 C 0.87700(33) 0.22124(47) 0.58581(96)
C2_6 C 0.92810(40) 0.24797(62) 0.9303(11)
C3_6 C 0.82805(15) 0.18286(23) 0.45766(63)
C4_6 C 0.87864(36) 0.20768(52) 0.79322(95)
H1_6 H 0.8257(14) 0.1952(21) 0.3087(58)
C5_6 C 0.78802(36) 0.12566(52) 0.54012(95)
C6_6 C 0.83861(15) 0.15048(23) 0.87568(63)
C7_6 C 0.73856(40) 0.08537(62) 0.4031(11)
C8_6 C 0.78966(33) 0.11210(47) 0.74753(96)
O8_6 O 0.73952(28) 0.10235(38) 0.22859(80)
O12_6 O 0.66872(19) 0.96893(36) 0.13126(67)
O5_6 O 0.33128(19) 0.03107(36) 0.86874(67)
C1_7 C 0.21034(33) 0.88790(47) 0.25247(96)
C2_7 C 0.26144(40) 0.91463(62) 0.5969(11)
C3_7 C 0.16139(15) 0.84952(23) 0.12432(63)
C4_7 C 0.21198(36) 0.87434(52) 0.45988(95)
O3_6 O 0.26048(28) 0.89765(38) 0.77141(80)
C5_7 C 0.12136(36) 0.79232(52) 0.20678(95)
C6_7 C 0.17195(15) 0.81714(23) 0.54234(63)
C7_7 C 0.07190(40) 0.75203(62) 0.0697(11)
C8_7 C 0.12300(33) 0.77876(47) 0.41419(96)
H2_7 H 0.1743(14) 0.8048(21) 0.6913(58)
H1_7 H 0.1591(14) 0.8618(21) 0.9753(58)
H2_8 H 0.2972(15) 0.1591(14) 0.0247(58)
C1_8 C 0.34423(34) 0.12300(33) 0.58581(96)
C2_8 C 0.31986(47) 0.07190(40) 0.9303(11)
C3_8 C 0.35480(18) 0.17195(15) 0.45766(63)
C4_8 C 0.32903(38) 0.12136(36) 0.79322(95)
H1_8 H 0.3694(15) 0.1743(14) 0.3087(58)
C5_8 C 0.33763(38) 0.21198(36) 0.54012(95)
C6_8 C 0.31186(18) 0.16139(15) 0.87568(63)
C7_8 C 0.34680(47) 0.26144(40) 0.4031(11)
C8_8 C 0.32243(34) 0.21034(33) 0.74753(96)
C1_9 C 0.67757(34) 0.78966(33) 0.25247(96)
C2_9 C 0.65320(47) 0.73856(40) 0.5969(11)
C3_9 C 0.68814(18) 0.83861(15) 0.12432(63)
C4_9 C 0.66237(38) 0.78802(36) 0.45988(95)
C5_9 C 0.67097(38) 0.87864(36) 0.20678(95)
C6_9 C 0.64520(18) 0.82805(15) 0.54234(63)
C7_9 C 0.68014(47) 0.92810(40) 0.0697(11)
C8_9 C 0.65577(34) 0.87700(33) 0.41419(96)
H2_9 H 0.6306(15) 0.8257(14) 0.6913(58)
H1_9 H 0.7028(15) 0.8409(14) 0.9753(58)
loop_
_geom_bond_atom_site_label_1
_geom_bond_atom_site_label_2
_geom_bond_site_symmetry_1
_geom_bond_site_symmetry_2
Ni1 O1 1_555 1_555
O1 C1 1_555 1_555
C1 C3 1_555 1_555
C3 H1 1_555 1_555
C5 C3 1_555 1_555
C7 C5 1_555 1_555
O8 C7 1_555 1_555
O9 C7 1_555 1_555
Ni8 O8 1_555 1_555
Ni7 O9 1_555 1_555
O11 Ni8 1_555 1_555
O14 Ni7 1_555 1_555
Ni7 O11 1_555 1_555
C2 O2 1_555 1_555
O3 C2 1_555 1_555
Ni3 O2 1_555 1_555
O6 Ni3 1_555 1_555
O7 Ni3 1_555 1_555
C6 C4 1_555 1_555
Ni4 O3 1_555 1_555
H2 C6 1_555 1_555
O10 C8 1_555 1_555
C2 C4 1_555 1_555
O6 Ni4 1_555 1_555
C6 C8 1_555 1_555
O10 Ni6 1_555 1_555
C2_2 O2_2 1_555 1_555
O3_2 C2_2 1_555 1_555
Ni3_2 O2_2 1_555 1_555
O6_2 Ni3_2 1_555 1_555
O7_2 Ni3_2 1_555 1_555
C6_2 C4_2 1_555 1_555
Ni4_2 O3_2 1_555 1_555
H2_2 C6_2 1_555 1_555
O10_2 C8_2 1_555 1_555
C2_2 C4_2 1_555 1_555
O6_2 Ni4_2 1_555 1_555
C6_2 C8_2 1_555 1_555
O10_2 Ni6_2 1_555 1_555
Ni1_2 O1_2 1_555 1_555
O1_2 C1_2 1_555 1_555
C1_2 C3_2 1_555 1_555
C3_2 H1_2 1_555 1_555
C5_2 C3_2 1_555 1_555
C7_2 C5_2 1_555 1_555
O8_2 C7_2 1_555 1_555
O9_2 C7_2 1_555 1_555
Ni8_2 O8_2 1_555 1_555
Ni7_2 O9_2 1_555 1_555
O11_2 Ni8_2 1_555 1_555
O14_2 Ni7_2 1_555 1_555
Ni7_2 O11_2 1_555 1_555
Ni8 O12_3 1_555 1_555
Ni4_3 O3_3 1_555 1_555
O5_3 Ni4_3 1_555 1_555
O6_3 Ni4_3 1_555 1_555
Ni1_3 O1_3 1_555 1_555
O1_3 C1_3 1_555 1_555
O2_3 Ni1_3 1_555 1_555
C1_3 C3_3 1_555 1_555
C2_3 O2_3 1_555 1_555
C3_3 H1_3 1_555 1_555
C4_3 C1_3 1_555 1_555
O4_3 Ni1_3 1_555 1_555
Ni4_3 O1_3 1_555 1_555
Ni3_3 O2_3 1_555 1_555
O7_3 Ni3_3 1_555 1_555
C5_3 C3_3 1_555 1_555
C6_3 C4_3 1_555 1_555
C7_3 C5_3 1_555 1_555
C8_3 C5_3 1_555 1_555
O8_3 C7_3 1_555 1_555
O12 C7_3 1_555 1_555
O13 C8_3 1_555 1_555
Ni6 O8_3 1_555 1_555
C2_3 C4_3 1_555 1_555
O4_3 Ni3_3 1_555 1_555
C6_3 C8_3 1_555 1_555
O4 C1_4 1_555 1_555
C1_4 C3_4 1_555 1_555
C2_4 O5 1_555 1_555
C4_4 C1_4 1_555 1_555
O3_4 C2_4 1_555 1_555
C5_4 C3_4 1_555 1_555
C6_4 C4_4 1_555 1_555
Ni1 O3_4 1_555 1_555
C7_4 C5_4 1_555 1_555
C8_4 C5_4 1_555 1_555
H2_4 C6_4 1_555 1_555
O9_3 C7_4 1_555 1_555
O10_3 C8_4 1_555 1_555
Ni6_3 O9_3 1_555 1_555
Ni7_3 O9_3 1_555 1_555
Ni8_3 O10_3 1_555 1_555
O13_3 Ni6_3 1_555 1_555
O14_3 Ni7_3 1_555 1_555
C2_4 C4_4 1_555 1_555
C6_4 C8_4 1_555 1_555
O10_3 Ni6_3 1_555 1_555
Ni7_3 O13_3 1_555 1_555
Ni8_3 O8_4 1_555 1_555
O11_3 Ni8_3 1_555 1_555
O12_4 Ni8_3 1_555 1_555
O5_4 Ni4 1_555 1_555
C2_5 O5_3 1_555 1_555
O3_5 C2_5 1_555 1_555
O5_5 Ni4_3 1_555 1_555
C6_5 C4_5 1_555 1_555
Ni1_3 O3_5 1_555 1_555
H2_5 C6_5 1_555 1_555
O13_3 C8_5 1_555 1_555
C2_5 C4_5 1_555 1_555
O5_5 Ni1_3 1_555 1_555
C6_5 C8_5 1_555 1_555
O4_3 C1_5 1_555 1_555
C1_5 C3_5 1_555 1_555
C3_5 H1_5 1_555 1_555
C5_5 C3_5 1_555 1_555
C7_5 C5_5 1_555 1_555
O8_5 C7_5 1_555 1_555
O12_4 C7_5 1_555 1_555
Ni6_3 O8_5 1_555 1_555
O12_5 Ni6_3 1_555 1_555
Ni8_3 O12_5 1_555 1_555
O6 C1_6 1_555 1_555
C1_6 C3_6 1_555 1_555
C2_6 O5_4 1_555 1_555
C3_6 H1_6 1_555 1_555
C4_6 C1_6 1_555 1_555
C5_6 C3_6 1_555 1_555
C6_6 C4_6 1_555 1_555
C7_6 C5_6 1_555 1_555
C8_6 C5_6 1_555 1_555
O8_6 C7_6 1_555 1_555
O12_2 C7_6 1_555 1_555
O13_2 C8_6 1_555 1_555
Ni6_2 O8_6 1_555 1_555
C2_6 C4_6 1_555 1_555
C6_6 C8_6 1_555 1_555
Ni8_2 O12_6 1_555 1_555
O5_6 Ni4_2 1_555 1_555
O4_2 C1_7 1_555 1_555
C1_7 C3_7 1_555 1_555
C2_7 O5_2 1_555 1_555
C4_7 C1_7 1_555 1_555
O3_6 C2_7 1_555 1_555
C5_7 C3_7 1_555 1_555
C6_7 C4_7 1_555 1_555
Ni1_2 O3_6 1_555 1_555
C7_7 C5_7 1_555 1_555
C8_7 C5_7 1_555 1_555
H2_7 C6_7 1_555 1_555
O12_3 C7_7 1_555 1_555
O11 C8_7 1_555 1_555
C2_7 C4_7 1_555 1_555
C6_7 C8_7 1_555 1_555
O6_2 C1_8 1_555 1_555
C1_8 C3_8 1_555 1_555
C2_8 O5_6 1_555 1_555
C3_8 H1_8 1_555 1_555
C4_8 C1_8 1_555 1_555
C5_8 C3_8 1_555 1_555
C6_8 C4_8 1_555 1_555
C7_8 C5_8 1_555 1_555
C8_8 C5_8 1_555 1_555
O14_3 C7_8 1_555 1_555
O12_5 C7_8 1_555 1_555
O11_3 C8_8 1_555 1_555
C2_8 C4_8 1_555 1_555
C6_8 C8_8 1_555 1_555
O6_3 C1_9 1_555 1_555
C1_9 C3_9 1_555 1_555
C2_9 O5_5 1_555 1_555
C4_9 C1_9 1_555 1_555
O7_3 C2_9 1_555 1_555
C5_9 C3_9 1_555 1_555
C6_9 C4_9 1_555 1_555
C7_9 C5_9 1_555 1_555
C8_9 C5_9 1_555 1_555
H2_9 C6_9 1_555 1_555
O12_6 C7_9 1_555 1_555
O11_2 C8_9 1_555 1_555
C2_9 C4_9 1_555 1_555
C6_9 C8_9 1_555 1_555

#END
