
###############################################################################
#
# This file contains modified crystal structure data generated from the
# MOF subset of the Cambridge Structural Database (CSD) v543 
# hosted by the Cambridge Crystallographic Data Centre (CCDC).
#
# This work is licensed under the Creative Commons
# Attribution-NonCommercial-ShareAlike 4.0 International License.
# To view a copy of this license, visit
# http://creativecommons.org/licenses/by-nc-sa/4.0/
# or send a letter to
# Creative Commons, PO Box 1866, Mountain View, CA 94042, USA.
#
# CIF created using the CSD Python API on 29 September 2022
# The structure has been converted into the P1 space group
# The structure has a 3D framework
# The original CSD entry LEDCOO is in the monoclinic crystal system
# The framework has been calculated to contain at least 10.0% void space
# The void calculation uses a probe of radius 1.32A, grid spacing 0.4
#
###############################################################################

data_LEDCOO
_chemical_formula_moiety         '(C148 H136 Co4 N24 O16)n'
_symmetry_cell_setting           triclinic
_symmetry_space_group_name_H-M   'P 1'
_symmetry_Int_Tables_number      1
_space_group_name_Hall           'P 1'
loop_
_symmetry_equiv_pos_site_id
_symmetry_equiv_pos_as_xyz
1 x,y,z
_cell_length_a                   17.915(4)
_cell_length_b                   11.898(2)
_cell_length_c                   17.083(3)
_cell_angle_alpha                90
_cell_angle_beta                 107.76(3)
_cell_angle_gamma                90
_cell_volume                     3467.75
loop_
_atom_site_label
_atom_site_type_symbol
_atom_site_fract_x
_atom_site_fract_y
_atom_site_fract_z
C4 C 0.3468(5) 0.2349(8) 0.7122(5)
H3 H 0.3289 0.2958 0.7357
C13 C 0.0300(5) 0.0213(9) 0.6606(6)
C15 C 0.3254(6) 0.0590(9) 0.6459(7)
C20 C 0.0789(5) 0.1098(10) 0.6669(6)
C21 C 0.0494(4) 0.2177(8) 0.6793(5)
H17 H 0.0798 0.2813 0.6801
C25 C 0.4019(5) 0.0572(8) 0.6419(7)
C26 C 0.1590(5) 0.0941(9) 0.6605(6)
H22 H 0.1689 0.0265 0.6381
C27 C 0.5354(5) 0.1467(9) 0.6761(5)
C28 C 0.4517(4) 0.1444(7) 0.6751(5)
C34 C 0.4237(5) 0.2343(7) 0.7115(5)
H30 H 0.4569 0.2934 0.7352
C36 C 0.2967(5) 0.1504(9) 0.6802(6)
C37 C 0.2147(5) 0.1623(10) 0.6823(7)
H34 H 0.2031 0.2304 0.7027
O3 O 0.5592(3) 0.0659(5) 0.6426(4)
O4 O 0.5780(4) 0.2227(6) 0.7113(4)
Co4 Co 0.67888(6) 0.06854(8) 0.65912(6)
C5 C 0.9573(5) 0.0320(8) 0.6702(6)
C9 C 0.8526(5) 0.1446(8) 0.7024(5)
C11 C 0.9301(4) 0.1352(7) 0.6867(4)
C30 C 0.9760(4) 0.2288(7) 0.6901(5)
H24 H 0.9579 0.2992 0.6997
O1 O 0.8013(3) 0.0706(5) 0.6733(4)
O2 O 0.8444(3) 0.2267(6) 0.7440(4)
N7 N 0.6610(3) 0.2034(5) 0.5753(3)
C1 C 0.5076(4) 0.4748(7) 0.4199(5)
C2 C 0.4435(4) 0.4776(7) 0.4468(4)
C3 C 0.5402(4) 0.3619(7) 0.4029(4)
H1 H 0.4973 0.3087 0.3855
H2 H 0.5618 0.3713 0.3576
H4 H 0.9256 0.9688 0.6656
C6 C 0.4082(4) 0.5815(7) 0.4528(4)
C7 C 0.4415(4) 0.6815(6) 0.4380(5)
C8 C 0.5428(4) 0.5749(7) 0.4030(4)
C10 C 0.5991(4) 0.9077(6) 0.5220(5)
H5 H 0.5505 0.9348 0.5222
C12 C 0.5098(4) 0.6803(6) 0.4149(4)
C14 C 0.5471(4) 0.7877(6) 0.3969(5)
H7 H 0.5697 0.7733 0.3529
H8 H 0.5065 0.8440 0.3775
C16 C 0.1877(4) 0.5765(7) 0.3887(5)
H10 H 0.1662 0.6006 0.4288
C17 C 0.7219(4) 0.8823(7) 0.5538(5)
H11 H 0.7754 0.8858 0.5811
C18 C 0.3318(4) 0.5828(7) 0.4721(5)
H12 H 0.3316 0.5233 0.5108
H13 H 0.3260 0.6540 0.4973
C19 C 0.6127(4) 0.5728(7) 0.3707(5)
H14 H 0.6014 0.6171 0.3215
H15 H 0.6233 0.4967 0.3587
H16 H 0.6576 0.6032 0.4114
C22 C 0.1486(4) 0.5444(7) 0.3122(5)
H18 H 0.0943 0.5454 0.2899
C23 C 0.5946(4) 0.2252(7) 0.5166(5)
H19 H 0.5488 0.1834 0.5069
C24 C 0.2688(4) 0.5239(7) 0.3247(5)
H20 H 0.3155 0.5061 0.3144
C29 C 0.6770(5) 0.3547(7) 0.5053(6)
H23 H 0.6984 0.4170 0.4871
C31 C 0.6868(4) 0.8188(7) 0.4851(6)
H25 H 0.7120 0.7744 0.4561
C32 C 0.4017(4) 0.7921(8) 0.4460(6)
H26 H 0.4189 0.8497 0.4161
H27 H 0.4151 0.8128 0.5030
H28 H 0.3459 0.7835 0.4241
C33 C 0.7127(4) 0.2844(7) 0.5682(5)
H29 H 0.7645 0.2904 0.6014
C35 C 0.4074(5) 0.3700(8) 0.4675(6)
H31 H 0.3776 0.3336 0.4176
H32 H 0.3736 0.3879 0.4998
H33 H 0.4483 0.3206 0.4981
N1 N 0.6653(3) 0.9389(5) 0.5748(4)
N2 N 0.6086(3) 0.8335(5) 0.4680(4)
N3 N 0.6023(3) 0.3132(5) 0.4745(4)
N4 N 0.2655(3) 0.5669(5) 0.3963(4)
N6 N 0.1997(3) 0.5096(6) 0.2708(4)
Co3 Co 0.17888(6) 0.43146(8) 0.15912(6)
N8 N 0.6997(3) 0.9904(6) 0.7708(4)
C27_2 C 0.0354(5) 0.3533(9) 0.1761(5)
O3_2 O 0.0592(3) 0.4341(5) 0.1426(4)
O4_2 O 0.0780(4) 0.2773(6) 0.2113(4)
C23_2 C 0.0946(4) 0.2748(7) 0.0166(5)
H19_2 H 0.0488 0.3166 0.0069
C29_2 C 0.1770(5) 0.1453(7) 0.0053(6)
C33_2 C 0.2127(4) 0.2156(7) 0.0682(5)
H29_2 H 0.2645 0.2096 0.1014
N5 N 0.1610(3) 0.2966(5) 0.0753(3)
C4_2 C 0.8468(5) 0.2651(8) 0.2122(5)
H3_2 H 0.8289 0.2042 0.2357
C5_2 C 0.4573(5) 0.4680(8) 0.1702(6)
H4_2 H 0.4256 0.5312 0.1656
C9_2 C 0.3526(5) 0.3554(8) 0.2024(5)
C10_2 C 0.0991(4) 0.5923(6) 0.0220(5)
H5_2 H 0.0505 0.5652 0.0222
C11_2 C 0.4301(4) 0.3648(7) 0.1867(4)
C13_2 C 0.5300(5) 0.4787(9) 0.1606(6)
H6 H 0.5465 0.5493 0.1494
C15_2 C 0.8254(6) 0.4410(9) 0.1459(7)
H9 H 0.7926 0.5017 0.1254
C17_2 C 0.2219(4) 0.6177(7) 0.0538(5)
H11_2 H 0.2754 0.6142 0.0811
C20_2 C 0.5789(5) 0.3902(10) 0.1669(6)
C21_2 C 0.5494(4) 0.2823(8) 0.1793(5)
H17_2 H 0.5798 0.2187 0.1801
C25_2 C 0.9019(5) 0.4428(8) 0.1419(7)
H21 H 0.9190 0.5026 0.1168
C26_2 C 0.6590(5) 0.4059(9) 0.1605(6)
H22_2 H 0.6689 0.4735 0.1381
C28_2 C 0.9517(4) 0.3556(7) 0.1751(5)
C30_2 C 0.4760(4) 0.2712(7) 0.1901(5)
H24_2 H 0.4579 0.2008 0.1997
C34_2 C 0.9237(5) 0.2657(7) 0.2115(5)
H30_2 H 0.9569 0.2066 0.2352
C36_2 C 0.7967(5) 0.3496(9) 0.1802(6)
C37_2 C 0.7147(5) 0.3377(10) 0.1823(7)
H34_2 H 0.7031 0.2696 0.2027
N1_2 N 0.1653(3) 0.5611(5) 0.0748(4)
O1_2 O 0.3013(3) 0.4294(5) 0.1733(4)
O2_2 O 0.3444(3) 0.2733(6) 0.2440(4)
C2_2 C 0.9435(4) 0.0224(7) 0.9468(4)
H1_2 H 0.9973 0.1913 0.8855
C35_2 C 0.9074(5) 0.1300(8) 0.9675(6)
H31_2 H 0.8776 0.1664 0.9176
H32_2 H 0.8736 0.1121 0.9998
H33_2 H 0.9483 0.1794 0.9981
C6_2 C 0.9082(4) 0.9185(7) 0.9528(4)
C7_2 C 0.9415(4) 0.8185(6) 0.9380(5)
C16_2 C 0.6877(4) 0.9235(7) 0.8887(5)
H10_2 H 0.6662 0.8994 0.9288
C18_2 C 0.8318(4) 0.9172(7) 0.9721(5)
H13_2 H 0.8260 0.8460 0.9973
C22_2 C 0.6486(4) 0.9556(7) 0.8122(5)
H18_2 H 0.5943 0.9546 0.7899
C24_2 C 0.7688(4) 0.9761(7) 0.8247(5)
H20_2 H 0.8155 0.9939 0.8144
C32_2 C 0.9017(4) 0.7079(8) 0.9460(6)
H26_2 H 0.9189 0.6503 0.9161
H28_2 H 0.8459 0.7165 0.9241
N4_2 N 0.7655(3) 0.9331(5) 0.8963(4)
H6_2 H 0.0465 0.9507 0.6494
H9_2 H 0.2926 0.9983 0.6254
H21_2 H 0.4190 0.9974 0.6168
H6_3 H 0.0465 0.0493 0.1494
H9_3 H 0.2926 0.0017 0.1254
H21_3 H 0.4190 0.0026 0.1168
C4_3 C 0.3468(5) 0.7651(8) 0.2122(5)
H3_3 H 0.3289 0.7042 0.2357
C13_3 C 0.0300(5) 0.9787(9) 0.1606(6)
C15_3 C 0.3254(6) 0.9410(9) 0.1459(7)
C20_3 C 0.0789(5) 0.8902(10) 0.1669(6)
C21_3 C 0.0494(4) 0.7823(8) 0.1793(5)
H17_3 H 0.0798 0.7187 0.1801
C25_3 C 0.4019(5) 0.9428(8) 0.1419(7)
C26_3 C 0.1590(5) 0.9059(9) 0.1605(6)
H22_3 H 0.1689 0.9735 0.1381
C27_3 C 0.5354(5) 0.8533(9) 0.1761(5)
C28_3 C 0.4517(4) 0.8556(7) 0.1751(5)
C34_3 C 0.4237(5) 0.7657(7) 0.2115(5)
H30_3 H 0.4569 0.7066 0.2352
C36_3 C 0.2967(5) 0.8496(9) 0.1802(6)
C37_3 C 0.2147(5) 0.8377(10) 0.1823(7)
H34_3 H 0.2031 0.7696 0.2027
O3_3 O 0.5592(3) 0.9341(5) 0.1426(4)
O4_3 O 0.5780(4) 0.7773(6) 0.2113(4)
Co4_2 Co 0.67888(6) 0.93146(8) 0.15912(6)
H4_3 H 0.9256 0.0312 0.1656
C10_3 C 0.5991(4) 0.0923(6) 0.0220(5)
H5_3 H 0.5505 0.0652 0.0222
C17_3 C 0.7219(4) 0.1177(7) 0.0538(5)
H11_3 H 0.7754 0.1142 0.0811
H12_2 H 0.3316 0.4767 0.0108
C23_3 C 0.5946(4) 0.7748(7) 0.0166(5)
H19_3 H 0.5488 0.8166 0.0069
C29_3 C 0.6770(5) 0.6453(7) 0.0053(6)
H27_2 H 0.4151 0.1872 0.0030
C33_3 C 0.7127(4) 0.7156(7) 0.0682(5)
H29_3 H 0.7645 0.7096 0.1014
N1_3 N 0.6653(3) 0.0611(5) 0.0748(4)
N5_2 N 0.6610(3) 0.7966(5) 0.0753(3)
N8_2 N 0.6997(3) 0.0096(6) 0.2708(4)
C5_3 C 0.9573(5) 0.9680(8) 0.1702(6)
C9_3 C 0.8526(5) 0.8554(8) 0.2024(5)
C11_3 C 0.9301(4) 0.8648(7) 0.1867(4)
C30_3 C 0.9760(4) 0.7712(7) 0.1901(5)
H24_3 H 0.9579 0.7008 0.1997
O1_3 O 0.8013(3) 0.9294(5) 0.1733(4)
O2_3 O 0.8444(3) 0.7733(6) 0.2440(4)
C6_3 C 0.9082(4) 0.0815(7) 0.4528(4)
C7_3 C 0.9415(4) 0.1815(6) 0.4380(5)
C16_3 C 0.6877(4) 0.0765(7) 0.3887(5)
H10_3 H 0.6662 0.1006 0.4288
C18_3 C 0.8318(4) 0.0828(7) 0.4721(5)
H12_3 H 0.8316 0.0233 0.5108
H13_3 H 0.8260 0.1540 0.4973
C22_3 C 0.6486(4) 0.0444(7) 0.3122(5)
H18_3 H 0.5943 0.0454 0.2899
C24_3 C 0.7688(4) 0.0239(7) 0.3247(5)
H20_3 H 0.8155 0.0061 0.3144
C32_3 C 0.9017(4) 0.2921(8) 0.4460(6)
H26_3 H 0.9189 0.3497 0.4161
H27_3 H 0.9151 0.3128 0.5030
H28_3 H 0.8459 0.2835 0.4241
N4_3 N 0.7655(3) 0.0669(5) 0.3963(4)
C2_3 C 0.9435(4) 0.9776(7) 0.4468(4)
H1_3 H 0.9973 0.8087 0.3855
C35_3 C 0.9074(5) 0.8700(8) 0.4675(6)
H31_3 H 0.8776 0.8336 0.4176
H32_3 H 0.8736 0.8879 0.4998
H33_3 H 0.9483 0.8206 0.4981
C1_2 C 0.5076(4) 0.5252(7) 0.9199(5)
C2_4 C 0.4435(4) 0.5224(7) 0.9468(4)
C3_2 C 0.5402(4) 0.6381(7) 0.9029(4)
H1_4 H 0.4973 0.6913 0.8855
H2_2 H 0.5618 0.6287 0.8576
C6_4 C 0.4082(4) 0.4185(7) 0.9528(4)
C7_4 C 0.4415(4) 0.3185(6) 0.9380(5)
C8_2 C 0.5428(4) 0.4251(7) 0.9030(4)
C12_2 C 0.5098(4) 0.3197(6) 0.9149(4)
C14_2 C 0.5471(4) 0.2123(6) 0.8969(5)
H7_2 H 0.5697 0.2267 0.8529
H8_2 H 0.5065 0.1560 0.8775
C16_4 C 0.1877(4) 0.4235(7) 0.8887(5)
H10_4 H 0.1662 0.3994 0.9288
C18_4 C 0.3318(4) 0.4172(7) 0.9721(5)
H13_4 H 0.3260 0.3460 0.9973
C19_2 C 0.6127(4) 0.4272(7) 0.8707(5)
H14_2 H 0.6014 0.3829 0.8215
H15_2 H 0.6233 0.5033 0.8587
H16_2 H 0.6576 0.3968 0.9114
C22_4 C 0.1486(4) 0.4556(7) 0.8122(5)
H18_4 H 0.0943 0.4546 0.7899
C24_4 C 0.2688(4) 0.4761(7) 0.8247(5)
H20_4 H 0.3155 0.4939 0.8144
H23_2 H 0.6984 0.5830 0.9871
C31_2 C 0.6868(4) 0.1812(7) 0.9851(6)
H25_2 H 0.7120 0.2256 0.9561
C32_4 C 0.4017(4) 0.2079(8) 0.9460(6)
H26_4 H 0.4189 0.1503 0.9161
H28_4 H 0.3459 0.2165 0.9241
C35_4 C 0.4074(5) 0.6300(8) 0.9675(6)
H31_4 H 0.3776 0.6664 0.9176
H32_4 H 0.3736 0.6121 0.9998
H33_4 H 0.4483 0.6794 0.9981
N2_2 N 0.6086(3) 0.1665(5) 0.9680(4)
N3_2 N 0.6023(3) 0.6868(5) 0.9745(4)
N4_4 N 0.2655(3) 0.4331(5) 0.8963(4)
N6_2 N 0.1997(3) 0.4904(6) 0.7708(4)
Co3_2 Co 0.17888(6) 0.56854(8) 0.65912(6)
C27_4 C 0.0354(5) 0.6467(9) 0.6761(5)
O3_4 O 0.0592(3) 0.5659(5) 0.6426(4)
O4_4 O 0.0780(4) 0.7227(6) 0.7113(4)
C4_4 C 0.8468(5) 0.7349(8) 0.7122(5)
H3_4 H 0.8289 0.7958 0.7357
C5_4 C 0.4573(5) 0.5320(8) 0.6702(6)
H4_4 H 0.4256 0.4688 0.6656
C8_3 C 0.0428(4) 0.0749(7) 0.4030(4)
C9_4 C 0.3526(5) 0.6446(8) 0.7024(5)
C10_4 C 0.0991(4) 0.4077(6) 0.5220(5)
H5_4 H 0.0505 0.4348 0.5222
C11_4 C 0.4301(4) 0.6352(7) 0.6867(4)
C12_3 C 0.0098(4) 0.1803(6) 0.4149(4)
C13_4 C 0.5300(5) 0.5213(9) 0.6606(6)
H6_4 H 0.5465 0.4507 0.6494
C14_3 C 0.0471(4) 0.2877(6) 0.3969(5)
H7_3 H 0.0697 0.2733 0.3529
H8_3 H 0.0065 0.3440 0.3775
C15_4 C 0.8254(6) 0.5590(9) 0.6459(7)
H9_4 H 0.7926 0.4983 0.6254
C17_4 C 0.2219(4) 0.3823(7) 0.5538(5)
H11_4 H 0.2754 0.3858 0.5811
C19_3 C 0.1127(4) 0.0728(7) 0.3707(5)
H14_3 H 0.1014 0.1171 0.3215
H16_3 H 0.1576 0.1032 0.4114
C20_4 C 0.5789(5) 0.6098(10) 0.6669(6)
C21_4 C 0.5494(4) 0.7177(8) 0.6793(5)
H17_4 H 0.5798 0.7813 0.6801
C25_4 C 0.9019(5) 0.5572(8) 0.6419(7)
H21_4 H 0.9190 0.4974 0.6168
C26_4 C 0.6590(5) 0.5941(9) 0.6605(6)
H22_4 H 0.6689 0.5265 0.6381
C28_4 C 0.9517(4) 0.6444(7) 0.6751(5)
C30_4 C 0.4760(4) 0.7288(7) 0.6901(5)
H24_4 H 0.4579 0.7992 0.6997
C31_3 C 0.1868(4) 0.3188(7) 0.4851(6)
H25_3 H 0.2120 0.2744 0.4561
C34_4 C 0.9237(5) 0.7343(7) 0.7115(5)
H30_4 H 0.9569 0.7934 0.7352
C36_4 C 0.7967(5) 0.6504(9) 0.6802(6)
C37_4 C 0.7147(5) 0.6623(10) 0.6823(7)
H34_4 H 0.7031 0.7304 0.7027
N1_4 N 0.1653(3) 0.4389(5) 0.5748(4)
N2_3 N 0.1086(3) 0.3335(5) 0.4680(4)
O1_4 O 0.3013(3) 0.5706(5) 0.6733(4)
O2_4 O 0.3444(3) 0.7267(6) 0.7440(4)
N7_2 N 0.1610(3) 0.7034(5) 0.5753(3)
C1_3 C 0.0076(4) 0.9748(7) 0.4199(5)
C3_3 C 0.0402(4) 0.8619(7) 0.4029(4)
H2_3 H 0.0618 0.8713 0.3576
H15_3 H 0.1233 0.9967 0.3587
C23_4 C 0.0946(4) 0.7252(7) 0.5166(5)
H19_4 H 0.0488 0.6834 0.5069
C29_4 C 0.1770(5) 0.8547(7) 0.5053(6)
H23_3 H 0.1984 0.9170 0.4871
C33_4 C 0.2127(4) 0.7844(7) 0.5682(5)
H29_4 H 0.2645 0.7904 0.6014
N3_3 N 0.1023(3) 0.8132(5) 0.4745(4)
C1_4 C 0.0076(4) 0.0252(7) 0.9199(5)
C3_4 C 0.0402(4) 0.1381(7) 0.9029(4)
H2_4 H 0.0618 0.1287 0.8576
H15_4 H 0.1233 0.0033 0.8587
H23_4 H 0.1984 0.0830 0.9871
N3_4 N 0.1023(3) 0.1868(5) 0.9745(4)
C8_4 C 0.0428(4) 0.9251(7) 0.9030(4)
C12_4 C 0.0098(4) 0.8197(6) 0.9149(4)
C14_4 C 0.0471(4) 0.7123(6) 0.8969(5)
H7_4 H 0.0697 0.7267 0.8529
H8_4 H 0.0065 0.6560 0.8775
C19_4 C 0.1127(4) 0.9272(7) 0.8707(5)
H14_4 H 0.1014 0.8829 0.8215
H16_4 H 0.1576 0.8968 0.9114
C31_4 C 0.1868(4) 0.6812(7) 0.9851(6)
H25_4 H 0.2120 0.7256 0.9561
N2_4 N 0.1086(3) 0.6665(5) 0.9680(4)
H12_4 H 0.8316 0.9767 0.0108
H27_4 H 0.9151 0.6872 0.0030
loop_
_geom_bond_atom_site_label_1
_geom_bond_atom_site_label_2
_geom_bond_site_symmetry_1
_geom_bond_site_symmetry_2
C4 H3 1_555 1_555
C20 C13 1_555 1_555
C21 C20 1_555 1_555
H17 C21 1_555 1_555
C25 C15 1_555 1_555
C26 C20 1_555 1_555
H22 C26 1_555 1_555
C27 C28 1_555 1_555
C28 C25 1_555 1_555
C34 C4 1_555 1_555
H30 C34 1_555 1_555
C36 C4 1_555 1_555
C37 C26 1_555 1_555
H34 C37 1_555 1_555
O3 C27 1_555 1_555
O4 C27 1_555 1_555
Co4 O3 1_555 1_555
C15 C36 1_555 1_555
C28 C34 1_555 1_555
C36 C37 1_555 1_555
C9 C11 1_555 1_555
C11 C5 1_555 1_555
C30 C11 1_555 1_555
H24 C30 1_555 1_555
O1 C9 1_555 1_555
O2 C9 1_555 1_555
N7 Co4 1_555 1_555
Co4 O1 1_555 1_555
C1 C2 1_555 1_555
C2 C6 1_555 1_555
C3 C1 1_555 1_555
H1 C3 1_555 1_555
H2 C3 1_555 1_555
C6 C7 1_555 1_555
C7 C12 1_555 1_555
C8 C1 1_555 1_555
C10 H5 1_555 1_555
C12 C8 1_555 1_555
C14 C12 1_555 1_555
H7 C14 1_555 1_555
H8 C14 1_555 1_555
C16 H10 1_555 1_555
C17 H11 1_555 1_555
C18 C6 1_555 1_555
H12 C18 1_555 1_555
H13 C18 1_555 1_555
C19 C8 1_555 1_555
H14 C19 1_555 1_555
H15 C19 1_555 1_555
H16 C19 1_555 1_555
C22 C16 1_555 1_555
H18 C22 1_555 1_555
C23 H19 1_555 1_555
C24 H20 1_555 1_555
C29 H23 1_555 1_555
C31 C17 1_555 1_555
H25 C31 1_555 1_555
C32 C7 1_555 1_555
H26 C32 1_555 1_555
H27 C32 1_555 1_555
H28 C32 1_555 1_555
C33 C29 1_555 1_555
H29 C33 1_555 1_555
C35 C2 1_555 1_555
H31 C35 1_555 1_555
H32 C35 1_555 1_555
H33 C35 1_555 1_555
N1 C10 1_555 1_555
N2 C10 1_555 1_555
N3 C3 1_555 1_555
N4 C16 1_555 1_555
N7 C23 1_555 1_555
N6 C22 1_555 1_555
Co3 N6 1_555 1_555
C14 N2 1_555 1_555
C17 N1 1_555 1_555
C18 N4 1_555 1_555
C23 N3 1_555 1_555
C24 N4 1_555 1_555
C24 N6 1_555 1_555
C29 N3 1_555 1_555
C31 N2 1_555 1_555
C33 N7 1_555 1_555
O3_2 C27_2 1_555 1_555
O4_2 C27_2 1_555 1_555
Co3 O3_2 1_555 1_555
C23_2 H19_2 1_555 1_555
C33_2 C29_2 1_555 1_555
H29_2 C33_2 1_555 1_555
N5 C23_2 1_555 1_555
Co3 N5 1_555 1_555
C33_2 N5 1_555 1_555
C4_2 H3_2 1_555 1_555
C5_2 H4_2 1_555 1_555
C9_2 C11_2 1_555 1_555
C10_2 H5_2 1_555 1_555
C11_2 C5_2 1_555 1_555
C13_2 C5_2 1_555 1_555
H6 C13_2 1_555 1_555
C15_2 H9 1_555 1_555
C17_2 H11_2 1_555 1_555
C20_2 C13_2 1_555 1_555
C21_2 C20_2 1_555 1_555
H17_2 C21_2 1_555 1_555
C25_2 C15_2 1_555 1_555
H21 C25_2 1_555 1_555
C26_2 C20_2 1_555 1_555
H22_2 C26_2 1_555 1_555
C28_2 C25_2 1_555 1_555
C30_2 C11_2 1_555 1_555
H24_2 C30_2 1_555 1_555
C34_2 C4_2 1_555 1_555
H30_2 C34_2 1_555 1_555
C36_2 C4_2 1_555 1_555
C37_2 C26_2 1_555 1_555
H34_2 C37_2 1_555 1_555
Co3 N1_2 1_555 1_555
N1_2 C10_2 1_555 1_555
O1_2 C9_2 1_555 1_555
O2_2 C9_2 1_555 1_555
C15_2 C36_2 1_555 1_555
C17_2 N1_2 1_555 1_555
C21_2 C30_2 1_555 1_555
C28_2 C34_2 1_555 1_555
C36_2 C37_2 1_555 1_555
Co3 O1_2 1_555 1_555
C35_2 C2_2 1_555 1_555
H31_2 C35_2 1_555 1_555
H32_2 C35_2 1_555 1_555
H33_2 C35_2 1_555 1_555
C6_2 C7_2 1_555 1_555
C16_2 H10_2 1_555 1_555
C18_2 C6_2 1_555 1_555
H13_2 C18_2 1_555 1_555
C22_2 C16_2 1_555 1_555
H18_2 C22_2 1_555 1_555
C24_2 H20_2 1_555 1_555
C32_2 C7_2 1_555 1_555
H26_2 C32_2 1_555 1_555
H28_2 C32_2 1_555 1_555
N4_2 C16_2 1_555 1_555
N8 C22_2 1_555 1_555
C18_2 N4_2 1_555 1_555
C24_2 N4_2 1_555 1_555
C24_2 N8 1_555 1_555
C4_3 H3_3 1_555 1_555
C20_3 C13_3 1_555 1_555
C21_3 C20_3 1_555 1_555
H17_3 C21_3 1_555 1_555
C25_3 C15_3 1_555 1_555
C26_3 C20_3 1_555 1_555
H22_3 C26_3 1_555 1_555
C27_3 C28_3 1_555 1_555
C28_3 C25_3 1_555 1_555
C34_3 C4_3 1_555 1_555
H30_3 C34_3 1_555 1_555
C36_3 C4_3 1_555 1_555
C37_3 C26_3 1_555 1_555
H34_3 C37_3 1_555 1_555
O3_3 C27_3 1_555 1_555
O4_3 C27_3 1_555 1_555
Co4_2 O3_3 1_555 1_555
C15_3 C36_3 1_555 1_555
C28_3 C34_3 1_555 1_555
C36_3 C37_3 1_555 1_555
C10_3 H5_3 1_555 1_555
C17_3 H11_3 1_555 1_555
C23_3 H19_3 1_555 1_555
C33_3 C29_3 1_555 1_555
H29_3 C33_3 1_555 1_555
N1_3 C10_3 1_555 1_555
N5_2 C23_3 1_555 1_555
Co4_2 N5_2 1_555 1_555
C17_3 N1_3 1_555 1_555
C33_3 N5_2 1_555 1_555
C9_3 C11_3 1_555 1_555
C11_3 C5_3 1_555 1_555
C30_3 C11_3 1_555 1_555
H24_3 C30_3 1_555 1_555
O1_3 C9_3 1_555 1_555
O2_3 C9_3 1_555 1_555
Co4_2 O1_3 1_555 1_555
C6_3 C7_3 1_555 1_555
C16_3 H10_3 1_555 1_555
C18_3 C6_3 1_555 1_555
H12_3 C18_3 1_555 1_555
H13_3 C18_3 1_555 1_555
C22_3 C16_3 1_555 1_555
H18_3 C22_3 1_555 1_555
C24_3 H20_3 1_555 1_555
C32_3 C7_3 1_555 1_555
H26_3 C32_3 1_555 1_555
H27_3 C32_3 1_555 1_555
H28_3 C32_3 1_555 1_555
N4_3 C16_3 1_555 1_555
N8_2 C22_3 1_555 1_555
C18_3 N4_3 1_555 1_555
C24_3 N4_3 1_555 1_555
C24_3 N8_2 1_555 1_555
C35_3 C2_3 1_555 1_555
H31_3 C35_3 1_555 1_555
H32_3 C35_3 1_555 1_555
H33_3 C35_3 1_555 1_555
C1_2 C2_4 1_555 1_555
C2_4 C6_4 1_555 1_555
C3_2 C1_2 1_555 1_555
H1_4 C3_2 1_555 1_555
H2_2 C3_2 1_555 1_555
C6_4 C7_4 1_555 1_555
C7_4 C12_2 1_555 1_555
C8_2 C1_2 1_555 1_555
C12_2 C8_2 1_555 1_555
C14_2 C12_2 1_555 1_555
H7_2 C14_2 1_555 1_555
H8_2 C14_2 1_555 1_555
C16_4 H10_4 1_555 1_555
C18_4 C6_4 1_555 1_555
H13_4 C18_4 1_555 1_555
C19_2 C8_2 1_555 1_555
H14_2 C19_2 1_555 1_555
H15_2 C19_2 1_555 1_555
H16_2 C19_2 1_555 1_555
C22_4 C16_4 1_555 1_555
H18_4 C22_4 1_555 1_555
C24_4 H20_4 1_555 1_555
H25_2 C31_2 1_555 1_555
C32_4 C7_4 1_555 1_555
H26_4 C32_4 1_555 1_555
H28_4 C32_4 1_555 1_555
C35_4 C2_4 1_555 1_555
H31_4 C35_4 1_555 1_555
H32_4 C35_4 1_555 1_555
H33_4 C35_4 1_555 1_555
N3_2 C3_2 1_555 1_555
N4_4 C16_4 1_555 1_555
N6_2 C22_4 1_555 1_555
Co3_2 N6_2 1_555 1_555
C14_2 N2_2 1_555 1_555
C18_4 N4_4 1_555 1_555
C24_4 N4_4 1_555 1_555
C24_4 N6_2 1_555 1_555
C31_2 N2_2 1_555 1_555
O3_4 C27_4 1_555 1_555
O4_4 C27_4 1_555 1_555
Co3_2 O3_4 1_555 1_555
C4_4 H3_4 1_555 1_555
C5_4 H4_4 1_555 1_555
C9_4 C11_4 1_555 1_555
C10_4 H5_4 1_555 1_555
C11_4 C5_4 1_555 1_555
C12_3 C8_3 1_555 1_555
C13_4 C5_4 1_555 1_555
H6_4 C13_4 1_555 1_555
C14_3 C12_3 1_555 1_555
H7_3 C14_3 1_555 1_555
H8_3 C14_3 1_555 1_555
C15_4 H9_4 1_555 1_555
C17_4 H11_4 1_555 1_555
C19_3 C8_3 1_555 1_555
H14_3 C19_3 1_555 1_555
H16_3 C19_3 1_555 1_555
C20_4 C13_4 1_555 1_555
C21_4 C20_4 1_555 1_555
H17_4 C21_4 1_555 1_555
C25_4 C15_4 1_555 1_555
H21_4 C25_4 1_555 1_555
C26_4 C20_4 1_555 1_555
H22_4 C26_4 1_555 1_555
C28_4 C25_4 1_555 1_555
C30_4 C11_4 1_555 1_555
H24_4 C30_4 1_555 1_555
C31_3 C17_4 1_555 1_555
H25_3 C31_3 1_555 1_555
C34_4 C4_4 1_555 1_555
H30_4 C34_4 1_555 1_555
C36_4 C4_4 1_555 1_555
C37_4 C26_4 1_555 1_555
H34_4 C37_4 1_555 1_555
Co3_2 N1_4 1_555 1_555
N1_4 C10_4 1_555 1_555
N2_3 C10_4 1_555 1_555
O1_4 C9_4 1_555 1_555
O2_4 C9_4 1_555 1_555
N7_2 Co3_2 1_555 1_555
C14_3 N2_3 1_555 1_555
C15_4 C36_4 1_555 1_555
C17_4 N1_4 1_555 1_555
C21_4 C30_4 1_555 1_555
C28_4 C34_4 1_555 1_555
C31_3 N2_3 1_555 1_555
C36_4 C37_4 1_555 1_555
Co3_2 O1_4 1_555 1_555
C3_3 C1_3 1_555 1_555
H2_3 C3_3 1_555 1_555
C23_4 H19_4 1_555 1_555
C29_4 H23_3 1_555 1_555
C33_4 C29_4 1_555 1_555
H29_4 C33_4 1_555 1_555
N3_3 C3_3 1_555 1_555
N7_2 C23_4 1_555 1_555
C23_4 N3_3 1_555 1_555
C29_4 N3_3 1_555 1_555
C33_4 N7_2 1_555 1_555
C3_4 C1_4 1_555 1_555
H2_4 C3_4 1_555 1_555
N3_4 C3_4 1_555 1_555
C12_4 C8_4 1_555 1_555
C14_4 C12_4 1_555 1_555
H7_4 C14_4 1_555 1_555
H8_4 C14_4 1_555 1_555
C19_4 C8_4 1_555 1_555
H14_4 C19_4 1_555 1_555
H16_4 C19_4 1_555 1_555
H25_4 C31_4 1_555 1_555
C14_4 N2_4 1_555 1_555
C31_4 N2_4 1_555 1_555

#END
