
###############################################################################
#
# This file contains modified crystal structure data generated from the
# MOF subset of the Cambridge Structural Database (CSD) v543 
# hosted by the Cambridge Crystallographic Data Centre (CCDC).
#
# This work is licensed under the Creative Commons
# Attribution-NonCommercial-ShareAlike 4.0 International License.
# To view a copy of this license, visit
# http://creativecommons.org/licenses/by-nc-sa/4.0/
# or send a letter to
# Creative Commons, PO Box 1866, Mountain View, CA 94042, USA.
#
# CIF created using the CSD Python API on 29 September 2022
# The structure has been converted into the P1 space group
# The structure has a 3D framework
# The original CSD entry LEDWUQ is in the monoclinic crystal system
# The framework has been calculated to contain at least 10.0% void space
# The void calculation uses a probe of radius 1.32A, grid spacing 0.4
# The framework is charged, counterions have been retained in the structure
#
###############################################################################

data_LEDWUQ
_chemical_formula_moiety         '(C24 Mn9 N36 6+)n'
_symmetry_cell_setting           triclinic
_symmetry_space_group_name_H-M   'P 1'
_symmetry_Int_Tables_number      1
_space_group_name_Hall           'P 1'
loop_
_symmetry_equiv_pos_site_id
_symmetry_equiv_pos_as_xyz
1 x,y,z
_cell_length_a                   17.0068(11)
_cell_length_b                   9.7001(7)
_cell_length_c                   14.1261(10)
_cell_angle_alpha                90
_cell_angle_beta                 105.638(6)
_cell_angle_gamma                90
_cell_volume                     2244.09
loop_
_atom_site_label
_atom_site_type_symbol
_atom_site_fract_x
_atom_site_fract_y
_atom_site_fract_z
_atom_site_U_iso_or_equiv
_atom_site_thermal_displace_type
Mn5 Mn -0.0000(1) 0.0000(1) -0.0000(1) 0.0000 Uiso
Mn1 Mn -0.0000(1) 0.5000(1) 0.5000(1) 0.0000 Uiso
Mn5_2 Mn -0.0000(1) 0.0000(1) 1.0000(1) 0.0000 Uiso
N21 N 0.0352(1) 0.6743(1) 0.4195(1) 0.0000 Uiso
N22 N 0.0400(1) 0.6116(1) 0.6400(1) 0.0000 Uiso
N23 N 0.1268(1) 0.4210(1) 0.5272(1) 0.0000 Uiso
Mn5_3 Mn -0.0000(1) 1.0000(1) -0.0000(1) 0.0000 Uiso
Mn5_4 Mn -0.0000(1) 1.0000(1) 1.0000(1) 0.0000 Uiso
Mn7 Mn 0.5000(1) 0.0000(1) 0.0000(1) 0.0000 Uiso
Mn7_2 Mn 0.5000(1) 0.0000(1) 1.0000(1) 0.0000 Uiso
Mn5_5 Mn 1.0000(1) 0.0000(1) -0.0000(1) 0.0000 Uiso
Mn1_2 Mn 1.0000(1) 0.5000(1) 0.5000(1) 0.0000 Uiso
Mn2 Mn 0.5000(1) 0.5000(1) 0.5000(1) 0.0000 Uiso
N1 N 0.5109(1) 0.8134(1) 0.0847(1) 0.0000 Uiso
N2 N 0.9648(1) 0.1743(1) 0.0805(1) 0.0000 Uiso
N3 N 0.9600(1) 0.3884(1) 0.3600(1) 0.0000 Uiso
N4 N 0.5014(1) 0.6155(1) 0.3635(1) 0.0000 Uiso
N5 N 0.8732(1) 0.5790(1) 0.4728(1) 0.0000 Uiso
N6 N 0.6327(1) 0.4981(1) 0.5293(1) 0.0000 Uiso
N7 N 0.5616(1) 0.6586(1) 0.2288(1) 0.0000 Uiso
N8 N 0.7395(1) 0.6290(1) 0.4582(1) 0.0000 Uiso
N9 N 0.8963(1) 0.3108(1) 0.1839(1) 0.0000 Uiso
C1 C 0.9358(1) 0.2385(1) 0.1366(1) 0.0000 Uiso
C2 C 0.9338(1) 0.3504(1) 0.2755(1) 0.0000 Uiso
C3 C 0.5274(1) 0.6428(1) 0.2999(1) 0.0000 Uiso
C4 C 0.5356(1) 0.7450(1) 0.1568(1) 0.0000 Uiso
C5 C 0.8109(1) 0.5891(1) 0.4726(1) 0.0000 Uiso
C6 C 0.6888(1) 0.5699(1) 0.5075(1) 0.0000 Uiso
N10 N 0.4891(1) 0.1866(1) 0.9153(1) 0.0000 Uiso
N11 N 0.4986(1) 0.3845(1) 0.6365(1) 0.0000 Uiso
N13 N 0.3673(1) 0.5019(1) 0.4707(1) 0.0000 Uiso
N14 N 0.4384(1) 0.3414(1) 0.7712(1) 0.0000 Uiso
N15 N 0.2605(1) 0.3710(1) 0.5418(1) 0.0000 Uiso
C7 C 0.4726(1) 0.3572(1) 0.7001(1) 0.0000 Uiso
C8 C 0.4644(1) 0.2550(1) 0.8432(1) 0.0000 Uiso
C9 C 0.1891(1) 0.4109(1) 0.5274(1) 0.0000 Uiso
C10 C 0.3112(1) 0.4301(1) 0.4925(1) 0.0000 Uiso
N16 N 0.9648(1) 0.3257(1) 0.5805(1) 0.0000 Uiso
N17 N 0.9600(1) 0.1116(1) 0.8600(1) 0.0000 Uiso
N18 N 0.8963(1) 0.1892(1) 0.6839(1) 0.0000 Uiso
C11 C 0.9358(1) 0.2615(1) 0.6366(1) 0.0000 Uiso
C12 C 0.9338(1) 0.1496(1) 0.7755(1) 0.0000 Uiso
Mn5_6 Mn 1.0000(1) 0.0000(1) 1.0000(1) 0.0000 Uiso
Mn7_3 Mn 0.5000(1) 1.0000(1) 0.0000(1) 0.0000 Uiso
N19 N 0.4891(1) 0.3134(1) 0.4153(1) 0.0000 Uiso
N20 N 0.5109(1) 0.6866(1) 0.5847(1) 0.0000 Uiso
Mn7_4 Mn 0.5000(1) 1.0000(1) 1.0000(1) 0.0000 Uiso
Mn5_7 Mn 1.0000(1) 1.0000(1) -0.0000(1) 0.0000 Uiso
Mn5_8 Mn 1.0000(1) 1.0000(1) 1.0000(1) 0.0000 Uiso
N4_2 N 0.4986(1) 0.1155(1) 0.1365(1) 0.0000 Uiso
N5_2 N 0.1268(1) 0.0790(1) 0.0272(1) 0.0000 Uiso
N7_2 N 0.4384(1) 0.1586(1) 0.2712(1) 0.0000 Uiso
N8_2 N 0.2605(1) 0.1290(1) 0.0418(1) 0.0000 Uiso
C3_2 C 0.4726(1) 0.1428(1) 0.2001(1) 0.0000 Uiso
C4_2 C 0.4644(1) 0.2450(1) 0.3432(1) 0.0000 Uiso
C5_2 C 0.1891(1) 0.0891(1) 0.0274(1) 0.0000 Uiso
N13_2 N 0.6327(1) 0.0019(1) 0.0293(1) 0.0000 Uiso
C6_2 C 0.3112(1) 0.0699(1) 0.9925(1) 0.0000 Uiso
N3_2 N 0.0400(1) 0.8884(1) 0.1400(1) 0.0000 Uiso
N9_2 N 0.1037(1) 0.8108(1) 0.3161(1) 0.0000 Uiso
C1_2 C 0.0642(1) 0.7385(1) 0.3634(1) 0.0000 Uiso
C2_2 C 0.0662(1) 0.8504(1) 0.2245(1) 0.0000 Uiso
C10_2 C 0.6888(1) 0.9301(1) 0.0075(1) 0.0000 Uiso
N6_2 N 0.3673(1) 0.9981(1) 0.9707(1) 0.0000 Uiso
N11_2 N 0.5014(1) 0.8845(1) 0.8635(1) 0.0000 Uiso
N12 N 0.8732(1) 0.9210(1) 0.9728(1) 0.0000 Uiso
N14_2 N 0.5616(1) 0.8414(1) 0.7288(1) 0.0000 Uiso
N15_2 N 0.7395(1) 0.8710(1) 0.9582(1) 0.0000 Uiso
C7_2 C 0.5274(1) 0.8572(1) 0.7999(1) 0.0000 Uiso
C8_2 C 0.5356(1) 0.7550(1) 0.6568(1) 0.0000 Uiso
C9_2 C 0.8109(1) 0.9109(1) 0.9726(1) 0.0000 Uiso
N16_2 N 0.0352(1) 0.8257(1) 0.9195(1) 0.0000 Uiso
N18_2 N 0.1037(1) 0.6892(1) 0.8161(1) 0.0000 Uiso
C11_2 C 0.0642(1) 0.7615(1) 0.8634(1) 0.0000 Uiso
C12_2 C 0.0662(1) 0.6496(1) 0.7245(1) 0.0000 Uiso
loop_
_geom_bond_atom_site_label_1
_geom_bond_atom_site_label_2
_geom_bond_site_symmetry_1
_geom_bond_site_symmetry_2
N21 Mn1 1_555 1_555
N22 Mn1 1_555 1_555
N23 Mn1 1_555 1_555
Mn1_2 N3 1_555 1_555
Mn2 N4 1_555 1_555
N1 C4 1_555 1_555
N2 C1 1_555 1_555
N3 C2 1_555 1_555
N4 C3 1_555 1_555
N5 Mn1_2 1_555 1_555
N6 Mn2 1_555 1_555
N7 C3 1_555 1_555
N8 C5 1_555 1_555
N9 C1 1_555 1_555
C2 N9 1_555 1_555
C4 N7 1_555 1_555
C5 N5 1_555 1_555
C6 N6 1_555 1_555
N10 C8 1_555 1_555
N11 Mn2 1_555 1_555
N23 C9 1_555 1_555
N13 Mn2 1_555 1_555
N14 C7 1_555 1_555
N15 C9 1_555 1_555
C7 N11 1_555 1_555
C8 N14 1_555 1_555
C10 N13 1_555 1_555
N16 Mn1_2 1_555 1_555
N17 C12 1_555 1_555
N18 C11 1_555 1_555
C11 N16 1_555 1_555
C12 N18 1_555 1_555
Mn5_5 N2 1_555 1_555
Mn5_6 N17 1_555 1_555
Mn7_2 N10 1_555 1_555
Mn7_3 N1 1_555 1_555
N19 Mn2 1_555 1_555
N20 Mn2 1_555 1_555
N8 C6 1_555 1_555
N15 C10 1_555 1_555
Mn7 N4_2 1_555 1_555
N19 C4_2 1_555 1_555
N4_2 C3_2 1_555 1_555
N5_2 Mn5 1_555 1_555
N7_2 C3_2 1_555 1_555
N8_2 C5_2 1_555 1_555
C4_2 N7_2 1_555 1_555
C5_2 N5_2 1_555 1_555
N13_2 Mn7 1_555 1_555
Mn5_3 N3_2 1_555 1_555
N21 C1_2 1_555 1_555
N3_2 C2_2 1_555 1_555
N9_2 C1_2 1_555 1_555
C2_2 N9_2 1_555 1_555
N6_2 Mn7_4 1_555 1_555
N20 C8_2 1_555 1_555
N11_2 Mn7_4 1_555 1_555
N12 C9_2 1_555 1_555
N14_2 C7_2 1_555 1_555
N15_2 C9_2 1_555 1_555
C7_2 N11_2 1_555 1_555
C8_2 N14_2 1_555 1_555
N16_2 Mn5_4 1_555 1_555
N22 C12_2 1_555 1_555
N18_2 C11_2 1_555 1_555
C11_2 N16_2 1_555 1_555
C12_2 N18_2 1_555 1_555
Mn5_8 N12 1_555 1_555

#END
