
###############################################################################
#
# This file contains modified crystal structure data generated from the
# MOF subset of the Cambridge Structural Database (CSD) v543 
# hosted by the Cambridge Crystallographic Data Centre (CCDC).
#
# This work is licensed under the Creative Commons
# Attribution-NonCommercial-ShareAlike 4.0 International License.
# To view a copy of this license, visit
# http://creativecommons.org/licenses/by-nc-sa/4.0/
# or send a letter to
# Creative Commons, PO Box 1866, Mountain View, CA 94042, USA.
#
# CIF created using the CSD Python API on 29 September 2022
# The structure has been converted into the P1 space group
# The structure has a 3D framework
# The original CSD entry LEDZIG is in the monoclinic crystal system
# The framework has been calculated to contain at least 10.0% void space
# The void calculation uses a probe of radius 1.32A, grid spacing 0.4
#
###############################################################################

data_LEDZIG
_chemical_formula_moiety         '(C56 H36 Cd4 N24 S8)n'
_symmetry_cell_setting           triclinic
_symmetry_space_group_name_H-M   'P 1'
_symmetry_Int_Tables_number      1
_space_group_name_Hall           'P 1'
loop_
_symmetry_equiv_pos_site_id
_symmetry_equiv_pos_as_xyz
1 x,y,z
_cell_length_a                   7.615(2)
_cell_length_b                   10.017(3)
_cell_length_c                   26.635(4)
_cell_angle_alpha                90
_cell_angle_beta                 94.229(5)
_cell_angle_gamma                90
_cell_volume                     2026.17
loop_
_atom_site_label
_atom_site_type_symbol
_atom_site_fract_x
_atom_site_fract_y
_atom_site_fract_z
N4 N 0.1105(6) 0.1740(4) 0.66700(16)
C12 C 0.0697(6) 0.0466(5) 0.65859(18)
C13 C 0.0618(12) 0.2619(6) 0.6303(3)
H8 H 0.091910 0.351156 0.635087
Cd4 Cd 0.26108(5) 0.24595(3) 0.74371(2)
N4_2 N 0.8895(6) 0.6740(4) 0.83300(16)
C12_2 C 0.9303(6) 0.5466(5) 0.84141(18)
H7 H 0.894405 0.484082 0.816957
C13_2 C 0.9382(12) 0.7619(6) 0.8697(3)
H8_2 H 0.908090 0.851156 0.864913
Cd4_2 Cd 0.73892(5) 0.74595(3) 0.75629(2)
S2 S 0.0214(2) 0.70657(17) 0.69746(8)
N2 N 0.1587(6) 0.4610(4) 0.72953(19)
C2 C 0.1002(6) 0.5623(5) 0.71688(18)
N1 N 0.3391(6) 0.0279(4) 0.76065(18)
N5 N 0.3260(5) 0.0662(4) 0.52571(14)
N6 N 0.2302(6) 0.0700(5) 0.47682(15)
H2 H 0.648448 0.006637 0.686075
H3 H 0.511782 0.079662 0.611226
H6 H 0.050879 0.087933 0.389274
S1 S 0.4505(2) 0.79525(17) 0.81113(7)
N3 N 0.5772(5) 0.8193(4) 0.68071(15)
N7 N 0.2296(6) 0.8631(5) 0.50733(15)
H1 H 0.210448 0.778735 0.509440
C1 C 0.3845(6) 0.9315(5) 0.78108(18)
C3 C 0.5848(6) 0.9458(5) 0.66558(18)
C4 C 0.5020(7) 0.9907(5) 0.62066(18)
C5 C 0.4043(6) 0.9017(5) 0.58980(18)
C6 C 0.3917(9) 0.7707(6) 0.6062(2)
H4 H 0.324462 0.708900 0.587140
C7 C 0.4807(9) 0.7332(6) 0.6513(3)
H5 H 0.473293 0.644851 0.661738
C8 C 0.3174(6) 0.9426(6) 0.54073(18)
C9 C 0.1785(7) 0.9466(5) 0.46977(18)
C10 C 0.0773(7) 0.9071(5) 0.42232(18)
C11 C 0.0242(7) 0.9978(5) 0.38514(18)
C14 C 0.0315(11) 0.7746(6) 0.4147(3)
H9 H 0.062465 0.710868 0.439109
N8 N 0.6609(6) 0.5279(4) 0.73935(18)
N9 N 0.8413(6) 0.9610(4) 0.77047(19)
S1_2 S 0.5495(2) 0.29525(17) 0.68887(7)
N3_2 N 0.4228(5) 0.3193(4) 0.81929(15)
N5_2 N 0.6740(5) 0.5662(4) 0.97429(14)
N7_2 N 0.7704(6) 0.3631(5) 0.99267(15)
H1_2 H 0.789552 0.278735 0.990560
C1_2 C 0.6155(6) 0.4315(5) 0.71892(18)
C3_2 C 0.4152(6) 0.4458(5) 0.83442(18)
H2_2 H 0.351552 0.506637 0.813925
C4_2 C 0.4980(7) 0.4907(5) 0.87934(18)
H3_2 H 0.488218 0.579662 0.888774
C5_2 C 0.5957(6) 0.4017(5) 0.91020(18)
C6_2 C 0.6083(9) 0.2707(6) 0.8938(2)
H4_2 H 0.675538 0.208900 0.912860
C7_2 C 0.5193(9) 0.2332(6) 0.8487(3)
H5_2 H 0.526707 0.144851 0.838262
C8_2 C 0.6826(6) 0.4426(6) 0.95927(18)
H7_2 H 0.105595 0.984082 0.683043
Cd1 Cd 0.26108(5) 0.25405(3) 0.24371(2)
S1_3 S 0.5495(2) 0.20475(17) 0.18887(7)
N3_3 N 0.4228(5) 0.1807(4) 0.31929(15)
N7_3 N 0.7704(6) 0.1369(5) 0.49267(15)
H1_3 H 0.789552 0.221265 0.490560
C1_3 C 0.6155(6) 0.0685(5) 0.21892(18)
C3_3 C 0.4152(6) 0.0542(5) 0.33442(18)
C4_3 C 0.4980(7) 0.0093(5) 0.37934(18)
C5_3 C 0.5957(6) 0.0983(5) 0.41020(18)
C6_3 C 0.6083(9) 0.2293(6) 0.3938(2)
H4_3 H 0.675538 0.291100 0.412860
C7_3 C 0.5193(9) 0.2668(6) 0.3487(3)
H5_3 H 0.526707 0.355149 0.338262
C8_3 C 0.6826(6) 0.0574(6) 0.45927(18)
C9_2 C 0.8215(7) 0.0534(5) 0.53023(18)
C10_2 C 0.9227(7) 0.0929(5) 0.57768(18)
C11_2 C 0.9758(7) 0.0022(5) 0.61486(18)
C14_2 C 0.9685(11) 0.2254(6) 0.5853(3)
H9_2 H 0.937535 0.289132 0.560891
N8_2 N 0.3391(6) 0.4721(4) 0.26065(18)
N9_2 N 0.1587(6) 0.0390(4) 0.22953(19)
N10 N 0.1105(6) 0.3260(4) 0.16700(16)
N1_2 N 0.6609(6) 0.9721(4) 0.23935(18)
N5_3 N 0.6740(5) 0.9338(4) 0.47429(14)
N6_2 N 0.7698(6) 0.9300(5) 0.52318(15)
H2_3 H 0.351552 0.993363 0.313925
H3_3 H 0.488218 0.920338 0.388774
H6_2 H 0.949121 0.912067 0.610726
Cd3 Cd 0.73892(5) 0.75405(3) 0.25629(2)
S2_2 S 0.9786(2) 0.29343(17) 0.30254(8)
N2_2 N 0.8413(6) 0.5390(4) 0.27047(19)
C2_2 C 0.8998(6) 0.4377(5) 0.28312(18)
S1_4 S 0.4505(2) 0.70475(17) 0.31113(7)
N3_4 N 0.5772(5) 0.6807(4) 0.18071(15)
N5_4 N 0.3260(5) 0.4338(4) 0.02571(14)
N7_4 N 0.2296(6) 0.6369(5) 0.00733(15)
H1_4 H 0.210448 0.721265 0.009440
C1_4 C 0.3845(6) 0.5685(5) 0.28108(18)
C3_4 C 0.5848(6) 0.5542(5) 0.16558(18)
H2_4 H 0.648448 0.493363 0.186075
C4_4 C 0.5020(7) 0.5093(5) 0.12066(18)
H3_4 H 0.511782 0.420338 0.111226
C5_4 C 0.4043(6) 0.5983(5) 0.08980(18)
C6_4 C 0.3917(9) 0.7293(6) 0.1062(2)
H4_4 H 0.324462 0.791100 0.087140
C7_4 C 0.4807(9) 0.7668(6) 0.1513(3)
H5_4 H 0.473293 0.855149 0.161738
C8_4 C 0.3174(6) 0.5574(6) 0.04073(18)
N10_2 N 0.8895(6) 0.8260(4) 0.33300(16)
C12_3 C 0.9303(6) 0.9534(5) 0.34141(18)
C13_3 C 0.9382(12) 0.7381(6) 0.3697(3)
H8_3 H 0.908090 0.648844 0.364913
C12_4 C 0.0697(6) 0.4534(5) 0.15859(18)
H7_3 H 0.105595 0.515918 0.183043
C13_4 C 0.0618(12) 0.2381(6) 0.1303(3)
H8_4 H 0.091910 0.148844 0.135087
S2_3 S 0.0214(2) 0.79343(17) 0.19746(8)
C2_3 C 0.1002(6) 0.9377(5) 0.21688(18)
N6_3 N 0.2302(6) 0.4300(5) 0.97682(15)
C9_3 C 0.1785(7) 0.5534(5) 0.96977(18)
C10_3 C 0.0773(7) 0.5929(5) 0.92232(18)
C11_3 C 0.0242(7) 0.5022(5) 0.88514(18)
H6_3 H 0.050879 0.412067 0.889274
C14_3 C 0.0315(11) 0.7254(6) 0.9147(3)
H9_3 H 0.062465 0.789132 0.939109
H7_4 H 0.894405 0.015918 0.316957
N6_4 N 0.7698(6) 0.5700(5) 0.02318(15)
C9_4 C 0.8215(7) 0.4466(5) 0.03023(18)
C10_4 C 0.9227(7) 0.4071(5) 0.07768(18)
C11_4 C 0.9758(7) 0.4978(5) 0.11486(18)
H6_4 H 0.949121 0.587933 0.110726
C14_4 C 0.9685(11) 0.2746(6) 0.0853(3)
H9_4 H 0.937535 0.210868 0.060891
S2_4 S 0.9786(2) 0.20657(17) 0.80254(8)
C2_4 C 0.8998(6) 0.0623(5) 0.78312(18)
loop_
_geom_bond_atom_site_label_1
_geom_bond_atom_site_label_2
_geom_bond_site_symmetry_1
_geom_bond_site_symmetry_2
N4 C12 1_555 1_555
C13 N4 1_555 1_555
H8 C13 1_555 1_555
Cd4 N4 1_555 1_555
N4_2 C12_2 1_555 1_555
H7 C12_2 1_555 1_555
C13_2 N4_2 1_555 1_555
H8_2 C13_2 1_555 1_555
Cd4_2 N4_2 1_555 1_555
N2 C2 1_555 1_555
C2 S2 1_555 1_555
Cd4 N2 1_555 1_555
N5 N6 1_555 1_555
Cd4 N1 1_555 1_555
Cd4_2 S1 1_555 1_555
S1 C1 1_555 1_555
N3 Cd4_2 1_555 1_555
N7 H1 1_555 1_555
C3 N3 1_555 1_555
C4 C3 1_555 1_555
C5 C4 1_555 1_555
C6 C5 1_555 1_555
H4 C6 1_555 1_555
C7 N3 1_555 1_555
H5 C7 1_555 1_555
C9 N7 1_555 1_555
C10 C9 1_555 1_555
C11 C10 1_555 1_555
C14 C10 1_555 1_555
H9 C14 1_555 1_555
N8 Cd4_2 1_555 1_555
N9 Cd4_2 1_555 1_555
N7 C8 1_555 1_555
C5 C8 1_555 1_555
C6 C7 1_555 1_555
Cd4 S1_2 1_555 1_555
S1_2 C1_2 1_555 1_555
N8 C1_2 1_555 1_555
N3_2 Cd4 1_555 1_555
N7_2 H1_2 1_555 1_555
C3_2 N3_2 1_555 1_555
H2_2 C3_2 1_555 1_555
C4_2 C3_2 1_555 1_555
H3_2 C4_2 1_555 1_555
C5_2 C4_2 1_555 1_555
C6_2 C5_2 1_555 1_555
H4_2 C6_2 1_555 1_555
C7_2 N3_2 1_555 1_555
H5_2 C7_2 1_555 1_555
C8_2 N5_2 1_555 1_555
N7_2 C8_2 1_555 1_555
C5_2 C8_2 1_555 1_555
C6_2 C7_2 1_555 1_555
Cd1 S1_3 1_555 1_555
S1_3 C1_3 1_555 1_555
N3_3 Cd1 1_555 1_555
N7_3 H1_3 1_555 1_555
C3_3 N3_3 1_555 1_555
C4_3 C3_3 1_555 1_555
C5_3 C4_3 1_555 1_555
C6_3 C5_3 1_555 1_555
H4_3 C6_3 1_555 1_555
C7_3 N3_3 1_555 1_555
H5_3 C7_3 1_555 1_555
C9_2 N7_3 1_555 1_555
C10_2 C9_2 1_555 1_555
C11_2 C10_2 1_555 1_555
C14_2 C10_2 1_555 1_555
H9_2 C14_2 1_555 1_555
N8_2 Cd1 1_555 1_555
N9_2 Cd1 1_555 1_555
N10 Cd1 1_555 1_555
N7_3 C8_3 1_555 1_555
C5_3 C8_3 1_555 1_555
C6_3 C7_3 1_555 1_555
N5_3 N6_2 1_555 1_555
Cd3 N1_2 1_555 1_555
N2_2 C2_2 1_555 1_555
C2_2 S2_2 1_555 1_555
Cd3 N2_2 1_555 1_555
Cd3 S1_4 1_555 1_555
S1_4 C1_4 1_555 1_555
N8_2 C1_4 1_555 1_555
N3_4 Cd3 1_555 1_555
N7_4 H1_4 1_555 1_555
C3_4 N3_4 1_555 1_555
H2_4 C3_4 1_555 1_555
C4_4 C3_4 1_555 1_555
H3_4 C4_4 1_555 1_555
C5_4 C4_4 1_555 1_555
C6_4 C5_4 1_555 1_555
H4_4 C6_4 1_555 1_555
C7_4 N3_4 1_555 1_555
H5_4 C7_4 1_555 1_555
C8_4 N5_4 1_555 1_555
N10_2 Cd3 1_555 1_555
N7_4 C8_4 1_555 1_555
C5_4 C8_4 1_555 1_555
C6_4 C7_4 1_555 1_555
N10_2 C12_3 1_555 1_555
C13_3 N10_2 1_555 1_555
H8_3 C13_3 1_555 1_555
N10 C12_4 1_555 1_555
H7_3 C12_4 1_555 1_555
C13_4 N10 1_555 1_555
H8_4 C13_4 1_555 1_555
C2_3 S2_3 1_555 1_555
N6_3 C9_3 1_555 1_555
C10_3 C9_3 1_555 1_555
C11_3 C10_3 1_555 1_555
H6_3 C11_3 1_555 1_555
C14_3 C10_3 1_555 1_555
H9_3 C14_3 1_555 1_555
N6_4 C9_4 1_555 1_555
C10_4 C9_4 1_555 1_555
C11_4 C10_4 1_555 1_555
H6_4 C11_4 1_555 1_555
C14_4 C10_4 1_555 1_555
H9_4 C14_4 1_555 1_555
C2_4 S2_4 1_555 1_555

#END
