
###############################################################################
#
# This file contains modified crystal structure data generated from the
# MOF subset of the Cambridge Structural Database (CSD) v543 
# hosted by the Cambridge Crystallographic Data Centre (CCDC).
#
# This work is licensed under the Creative Commons
# Attribution-NonCommercial-ShareAlike 4.0 International License.
# To view a copy of this license, visit
# http://creativecommons.org/licenses/by-nc-sa/4.0/
# or send a letter to
# Creative Commons, PO Box 1866, Mountain View, CA 94042, USA.
#
# CIF created using the CSD Python API on 29 September 2022
# The structure has been converted into the P1 space group
# The structure has a 3D framework
# The original CSD entry LEHNIY is in the monoclinic crystal system
# The framework has been calculated to contain at least 10.0% void space
# The void calculation uses a probe of radius 1.32A, grid spacing 0.4
#
###############################################################################

data_LEHNIY
_chemical_formula_moiety         '(C56 H38 Cd6 N26 S8)n'
_symmetry_cell_setting           triclinic
_symmetry_space_group_name_H-M   'P 1'
_symmetry_Int_Tables_number      1
_space_group_name_Hall           'P 1'
loop_
_symmetry_equiv_pos_site_id
_symmetry_equiv_pos_as_xyz
1 x,y,z
_cell_length_a                   27.106(4)
_cell_length_b                   10.0401(11)
_cell_length_c                   7.4419(10)
_cell_angle_alpha                90
_cell_angle_beta                 101.855(6)
_cell_angle_gamma                90
_cell_volume                     1982.09
loop_
_atom_site_label
_atom_site_type_symbol
_atom_site_fract_x
_atom_site_fract_y
_atom_site_fract_z
N1 N 0.23572(11) 0.0313(3) 0.5703(4)
Cd4 Cd 0.2500 0.2500 0.5000
Cd1 Cd 0.2500 0.7500 0.0000
N2 N 0.17448(9) 0.6834(3) 0.0874(3)
N3 N 0.02427(9) 0.4413(3) 0.2270(4)
N4 N 0.0000 0.6492(4) 0.2500
H1 H 0.0000 0.7348 0.2500
C2 C 0.16201(11) 0.5557(3) 0.0931(4)
H2 H 0.1846 0.4924 0.0669
C3 C 0.11768(11) 0.5112(3) 0.1354(4)
H3 H 0.1105 0.4208 0.1375
C4 C 0.08388(9) 0.6066(3) 0.1753(4)
C5 C 0.0966(3) 0.7401(3) 0.1734(13)
H4 H 0.0751 0.8058 0.2005
C6 C 0.1425(2) 0.7728(5) 0.1298(10)
H5 H 0.1513 0.8623 0.1302
C7 C 0.03558(11) 0.5673(3) 0.2191(4)
S2 S 0.30535(4) 0.71053(13) 0.34771(13)
N7 N 0.26428(11) 0.4687(3) 0.4297(4)
C14 C 0.28105(11) 0.5680(3) 0.3954(4)
N9 N 0.23572(11) 0.9687(3) 0.0703(4)
Cd1_2 Cd 0.2500 0.7500 1.0000
S1 S 0.19465(4) 0.78947(13) 0.65229(13)
C1 C 0.21895(11) 0.9320(3) 0.6046(4)
N8 N 0.26428(11) 0.5313(3) 0.9297(4)
N10 N 0.32552(9) 0.8166(3) 0.9126(3)
N4_2 N 1.0000 0.6492(4) 0.2500
H1_2 H 1.0000 0.7348 0.2500
N5 N 0.82552(9) 0.6834(3) 0.4126(3)
N6 N 0.97573(9) 0.4413(3) 0.2730(4)
C8 C 0.83799(11) 0.5557(3) 0.4069(4)
H6 H 0.8154 0.4924 0.4331
C9 C 0.88232(11) 0.5112(3) 0.3646(4)
H7 H 0.8895 0.4208 0.3625
C10 C 0.91612(9) 0.6066(3) 0.3247(4)
C11 C 0.9034(3) 0.7401(3) 0.3266(13)
H8 H 0.9249 0.8058 0.2995
C12 C 0.8575(2) 0.7728(5) 0.3702(10)
H9 H 0.8487 0.8623 0.3698
C13 C 0.96442(11) 0.5673(3) 0.2809(4)
Cd2 Cd 0.7500 0.7500 0.5000
Cd4_2 Cd 0.7500 0.2500 0.0000
N1_2 N 0.76428(11) 0.0313(3) 0.9297(4)
Cd4_3 Cd 0.7500 0.2500 1.0000
S1_2 S 0.80535(4) 0.78947(13) 0.84771(13)
C1_2 C 0.78105(11) 0.9320(3) 0.8954(4)
S2_2 S 0.69465(4) 0.71053(13) 0.15229(13)
N7_2 N 0.73572(11) 0.4687(3) 0.0703(4)
C14_2 C 0.71895(11) 0.5680(3) 0.1046(4)
N8_2 N 0.73572(11) 0.5313(3) 0.5703(4)
N9_2 N 0.76428(11) 0.9687(3) 0.4297(4)
N10_2 N 0.67448(9) 0.8166(3) 0.5874(3)
N2_2 N 0.67448(9) 0.1834(3) 0.0874(3)
N4_3 N 0.5000 0.1492(4) 0.2500
H1_3 H 0.5000 0.2348 0.2500
C2_2 C 0.66201(11) 0.0557(3) 0.0931(4)
C3_2 C 0.61768(11) 0.0112(3) 0.1354(4)
C4_2 C 0.58388(9) 0.1066(3) 0.1753(4)
C5_2 C 0.5966(3) 0.2401(3) 0.1734(13)
H4_2 H 0.5751 0.3058 0.2005
C6_2 C 0.6425(2) 0.2728(5) 0.1298(10)
H5_2 H 0.6513 0.3623 0.1302
C7_2 C 0.53558(11) 0.0673(3) 0.2191(4)
N5_2 N 0.32552(9) 0.1834(3) 0.4126(3)
C8_2 C 0.33799(11) 0.0557(3) 0.4069(4)
C9_2 C 0.38232(11) 0.0112(3) 0.3646(4)
C10_2 C 0.41612(9) 0.1066(3) 0.3247(4)
C11_2 C 0.4034(3) 0.2401(3) 0.3266(13)
H8_2 H 0.4249 0.3058 0.2995
C12_2 C 0.3575(2) 0.2728(5) 0.3702(10)
H9_2 H 0.3487 0.3623 0.3698
C13_2 C 0.46442(11) 0.0673(3) 0.2809(4)
S2_3 S 0.80535(4) 0.21053(13) 0.34771(13)
C14_3 C 0.78105(11) 0.0680(3) 0.3954(4)
S1_3 S 0.69465(4) 0.28947(13) 0.65229(13)
C1_3 C 0.71895(11) 0.4320(3) 0.6046(4)
N10_3 N 0.82552(9) 0.3166(3) 0.9126(3)
N3_2 N 0.52427(9) 0.9413(3) 0.2270(4)
H2_2 H 0.6846 0.9924 0.0669
H3_2 H 0.6105 0.9208 0.1375
N6_2 N 0.47573(9) 0.9413(3) 0.2730(4)
H6_2 H 0.3154 0.9924 0.4331
H7_2 H 0.3895 0.9208 0.3625
S1_4 S 0.30535(4) 0.28947(13) 0.84771(13)
C1_4 C 0.28105(11) 0.4320(3) 0.8954(4)
S2_4 S 0.19465(4) 0.21053(13) 0.15229(13)
C14_4 C 0.21895(11) 0.0680(3) 0.1046(4)
N10_4 N 0.17448(9) 0.3166(3) 0.5874(3)
N4_4 N 0.0000 0.3508(4) 0.7500
H1_4 H 0.0000 0.2652 0.7500
N6_3 N 0.02427(9) 0.5587(3) 0.7270(4)
C8_3 C 0.16201(11) 0.4443(3) 0.5931(4)
H6_3 H 0.1846 0.5076 0.5669
C9_3 C 0.11768(11) 0.4888(3) 0.6354(4)
H7_3 H 0.1105 0.5792 0.6375
C10_3 C 0.08388(9) 0.3934(3) 0.6753(4)
C11_3 C 0.0966(3) 0.2599(3) 0.6734(13)
H8_3 H 0.0751 0.1942 0.7005
C12_3 C 0.1425(2) 0.2272(5) 0.6298(10)
H9_3 H 0.1513 0.1377 0.6302
C13_3 C 0.03558(11) 0.4327(3) 0.7191(4)
N3_3 N 0.97573(9) 0.5587(3) 0.7730(4)
N4_5 N 1.0000 0.3508(4) 0.7500
H1_5 H 1.0000 0.2652 0.7500
C2_3 C 0.83799(11) 0.4443(3) 0.9069(4)
H2_3 H 0.8154 0.5076 0.9331
C3_3 C 0.88232(11) 0.4888(3) 0.8646(4)
H3_3 H 0.8895 0.5792 0.8625
C4_3 C 0.91612(9) 0.3934(3) 0.8247(4)
C5_3 C 0.9034(3) 0.2599(3) 0.8266(13)
H4_3 H 0.9249 0.1942 0.7995
C6_3 C 0.8575(2) 0.2272(5) 0.8702(10)
H5_3 H 0.8487 0.1377 0.8698
C7_3 C 0.96442(11) 0.4327(3) 0.7809(4)
N3_4 N 0.47573(9) 0.0587(3) 0.7730(4)
H2_4 H 0.3154 0.0076 0.9331
H3_4 H 0.3895 0.0792 0.8625
N6_4 N 0.52427(9) 0.0587(3) 0.7270(4)
H6_4 H 0.6846 0.0076 0.5669
H7_4 H 0.6105 0.0792 0.6375
N4_6 N 0.5000 0.8508(4) 0.7500
H1_6 H 0.5000 0.7652 0.7500
C2_4 C 0.33799(11) 0.9443(3) 0.9069(4)
C3_4 C 0.38232(11) 0.9888(3) 0.8646(4)
C4_4 C 0.41612(9) 0.8934(3) 0.8247(4)
C5_4 C 0.4034(3) 0.7599(3) 0.8266(13)
H4_4 H 0.4249 0.6942 0.7995
C6_4 C 0.3575(2) 0.7272(5) 0.8702(10)
H5_4 H 0.3487 0.6377 0.8698
C7_4 C 0.46442(11) 0.9327(3) 0.7809(4)
C8_4 C 0.66201(11) 0.9443(3) 0.5931(4)
C9_4 C 0.61768(11) 0.9888(3) 0.6354(4)
C10_4 C 0.58388(9) 0.8934(3) 0.6753(4)
C11_4 C 0.5966(3) 0.7599(3) 0.6734(13)
H8_4 H 0.5751 0.6942 0.7005
C12_4 C 0.6425(2) 0.7272(5) 0.6298(10)
H9_4 H 0.6513 0.6377 0.6302
C13_4 C 0.53558(11) 0.9327(3) 0.7191(4)
loop_
_geom_bond_atom_site_label_1
_geom_bond_atom_site_label_2
_geom_bond_site_symmetry_1
_geom_bond_site_symmetry_2
Cd4 N1 1_555 1_555
N2 Cd1 1_555 1_555
N3 C7 1_555 1_555
N4 H1 1_555 1_555
C2 N2 1_555 1_555
H2 C2 1_555 1_555
C3 C2 1_555 1_555
H3 C3 1_555 1_555
C4 C3 1_555 1_555
C5 C4 1_555 1_555
H4 C5 1_555 1_555
C6 N2 1_555 1_555
H5 C6 1_555 1_555
C7 N4 1_555 1_555
S2 Cd1 1_555 1_555
N7 C14 1_555 1_555
C14 S2 1_555 1_555
Cd4 N7 1_555 1_555
N9 Cd1 1_555 1_555
C4 C7 1_555 1_555
C5 C6 1_555 1_555
Cd1_2 S1 1_555 1_555
S1 C1 1_555 1_555
N8 Cd1_2 1_555 1_555
N10 Cd1_2 1_555 1_555
N4_2 H1_2 1_555 1_555
N5 C8 1_555 1_555
C8 H6 1_555 1_555
C9 C8 1_555 1_555
H7 C9 1_555 1_555
C10 C9 1_555 1_555
C11 C10 1_555 1_555
H8 C11 1_555 1_555
C12 N5 1_555 1_555
H9 C12 1_555 1_555
C13 N4_2 1_555 1_555
Cd2 N5 1_555 1_555
N6 C13 1_555 1_555
C10 C13 1_555 1_555
C11 C12 1_555 1_555
Cd4_3 N1_2 1_555 1_555
Cd2 S1_2 1_555 1_555
S1_2 C1_2 1_555 1_555
S2_2 Cd2 1_555 1_555
N7_2 C14_2 1_555 1_555
C14_2 S2_2 1_555 1_555
Cd4_2 N7_2 1_555 1_555
N8_2 Cd2 1_555 1_555
N9_2 Cd2 1_555 1_555
N10_2 Cd2 1_555 1_555
N2_2 Cd4_2 1_555 1_555
N4_3 H1_3 1_555 1_555
C2_2 N2_2 1_555 1_555
C3_2 C2_2 1_555 1_555
C4_2 C3_2 1_555 1_555
C5_2 C4_2 1_555 1_555
H4_2 C5_2 1_555 1_555
C6_2 N2_2 1_555 1_555
H5_2 C6_2 1_555 1_555
C7_2 N4_3 1_555 1_555
N5_2 C8_2 1_555 1_555
C9_2 C8_2 1_555 1_555
C10_2 C9_2 1_555 1_555
C11_2 C10_2 1_555 1_555
H8_2 C11_2 1_555 1_555
C12_2 N5_2 1_555 1_555
H9_2 C12_2 1_555 1_555
C13_2 N4_3 1_555 1_555
S2_3 Cd4_2 1_555 1_555
C14_3 S2_3 1_555 1_555
Cd4 N5_2 1_555 1_555
C4_2 C7_2 1_555 1_555
C5_2 C6_2 1_555 1_555
C10_2 C13_2 1_555 1_555
C11_2 C12_2 1_555 1_555
Cd4_3 S1_3 1_555 1_555
S1_3 C1_3 1_555 1_555
N8_2 C1_3 1_555 1_555
N10_3 Cd4_3 1_555 1_555
N6_2 N3_2 1_555 1_555
Cd4 S1_4 1_555 1_555
S1_4 C1_4 1_555 1_555
N8 C1_4 1_555 1_555
S2_4 Cd4 1_555 1_555
C14_4 S2_4 1_555 1_555
N10_4 Cd4 1_555 1_555
N4_4 H1_4 1_555 1_555
N10_4 C8_3 1_555 1_555
C8_3 H6_3 1_555 1_555
C9_3 C8_3 1_555 1_555
H7_3 C9_3 1_555 1_555
C10_3 C9_3 1_555 1_555
C11_3 C10_3 1_555 1_555
H8_3 C11_3 1_555 1_555
C12_3 N10_4 1_555 1_555
H9_3 C12_3 1_555 1_555
C13_3 N4_4 1_555 1_555
N6_3 C13_3 1_555 1_555
C10_3 C13_3 1_555 1_555
C11_3 C12_3 1_555 1_555
N3_3 C7_3 1_555 1_555
N4_5 H1_5 1_555 1_555
C2_3 N10_3 1_555 1_555
H2_3 C2_3 1_555 1_555
C3_3 C2_3 1_555 1_555
H3_3 C3_3 1_555 1_555
C4_3 C3_3 1_555 1_555
C5_3 C4_3 1_555 1_555
H4_3 C5_3 1_555 1_555
C6_3 N10_3 1_555 1_555
H5_3 C6_3 1_555 1_555
C7_3 N4_5 1_555 1_555
C4_3 C7_3 1_555 1_555
C5_3 C6_3 1_555 1_555
N6_4 N3_4 1_555 1_555
N4_6 H1_6 1_555 1_555
C2_4 N10 1_555 1_555
C3_4 C2_4 1_555 1_555
C4_4 C3_4 1_555 1_555
C5_4 C4_4 1_555 1_555
H4_4 C5_4 1_555 1_555
C6_4 N10 1_555 1_555
H5_4 C6_4 1_555 1_555
C7_4 N4_6 1_555 1_555
N10_2 C8_4 1_555 1_555
C9_4 C8_4 1_555 1_555
C10_4 C9_4 1_555 1_555
C11_4 C10_4 1_555 1_555
H8_4 C11_4 1_555 1_555
C12_4 N10_2 1_555 1_555
H9_4 C12_4 1_555 1_555
C13_4 N4_6 1_555 1_555
C4_4 C7_4 1_555 1_555
C5_4 C6_4 1_555 1_555
C10_4 C13_4 1_555 1_555
C11_4 C12_4 1_555 1_555

#END
