
###############################################################################
#
# This file contains modified crystal structure data generated from the
# MOF subset of the Cambridge Structural Database (CSD) v543 
# hosted by the Cambridge Crystallographic Data Centre (CCDC).
#
# This work is licensed under the Creative Commons
# Attribution-NonCommercial-ShareAlike 4.0 International License.
# To view a copy of this license, visit
# http://creativecommons.org/licenses/by-nc-sa/4.0/
# or send a letter to
# Creative Commons, PO Box 1866, Mountain View, CA 94042, USA.
#
# CIF created using the CSD Python API on 29 September 2022
# The structure has been converted into the P1 space group
# The structure has a 3D framework
# The original CSD entry LEJGUG is in the monoclinic crystal system
# The framework has been calculated to contain at least 10.0% void space
# The void calculation uses a probe of radius 1.32A, grid spacing 0.4
#
###############################################################################

data_LEJGUG
_chemical_formula_moiety         '(C32 H32 N36 O32 Zn14)n'
_symmetry_cell_setting           triclinic
_symmetry_space_group_name_H-M   'P 1'
_symmetry_Int_Tables_number      1
_space_group_name_Hall           'P 1'
loop_
_symmetry_equiv_pos_site_id
_symmetry_equiv_pos_as_xyz
1 x,y,z
_cell_length_a                   11.7936(5)
_cell_length_b                   13.9051(6)
_cell_length_c                   11.1436(5)
_cell_angle_alpha                90
_cell_angle_beta                 94.211(4)
_cell_angle_gamma                90
_cell_volume                     1822.52
loop_
_atom_site_label
_atom_site_type_symbol
_atom_site_fract_x
_atom_site_fract_y
_atom_site_fract_z
Zn2 Zn 0.03566(3) 0.66051(2) 0.81943(3)
N1 N 0.1452(2) 0.83737(17) 0.5607(2)
N2 N 0.0759(2) 0.78295(18) 0.4843(2)
N3 N 0.0733(2) 0.72995(18) 0.6695(2)
N4 N 0.1438(2) 0.80642(18) 0.6693(2)
C3 C 0.0318(3) 0.7167(2) 0.5545(3)
Zn5 Zn 0.2500 0.95230(3) 0.5000
Zn9 Zn 0.03566(3) 0.83949(2) 0.31943(3)
O10 O 0.13624(18) 0.54771(14) 0.84736(19)
N14 N 0.0759(2) 0.71705(18) 0.9843(2)
Zn1 Zn 0.7500 0.45230(3) 0.0000
Zn3 Zn 0.46434(3) 0.66051(2) 0.18057(3)
O5 O 0.86376(18) 0.45229(14) 0.15264(19)
O6 O 0.65395(18) 0.55029(16) 0.0846(2)
O7 O 0.62794(19) 0.66116(15) 0.2204(2)
O8 O 0.9617(2) 0.52329(19) 0.3036(2)
N6 N 0.3548(2) 0.83737(17) 0.4393(2)
N7 N 0.4241(2) 0.78295(18) 0.5157(2)
N8 N 0.4267(2) 0.72995(18) 0.3305(2)
N9 N 0.3562(2) 0.80642(18) 0.3307(2)
C5 C 0.8861(3) 0.5252(2) 0.2236(3)
C6 C 0.6915(3) 0.6060(2) 0.1649(3)
C7 C 0.4682(3) 0.7167(2) 0.4455(3)
N10 N 0.5447(3) 0.6488(2) 0.4828(3)
H5 H 0.5772 0.6158 0.4272
H6 H 0.5414 0.6405 0.5522
C8 C 0.8179(3) 0.6163(2) 0.1982(3)
H7 H 0.8275 0.6569 0.2690
H8 H 0.8512 0.6502 0.1333
Zn6 Zn 0.96434(3) 0.33949(2) 0.18057(3)
Zn8 Zn 0.46434(3) 0.83949(2) 0.68057(3)
O9 O 0.36376(18) 0.54771(14) 0.15264(19)
N11 N 0.6452(2) 0.33737(17) 0.0607(2)
N13 N 0.4241(2) 0.71705(18) 0.0157(2)
Zn1_2 Zn 0.7500 0.45230(3) 1.0000
O1 O 0.63624(18) 0.45229(14) 0.84736(19)
O2 O 0.84605(18) 0.55029(16) 0.9154(2)
O3 O 0.87206(19) 0.66116(15) 0.7796(2)
O4 O 0.5383(2) 0.52329(19) 0.6964(2)
C1 C 0.6139(3) 0.5252(2) 0.7764(3)
C2 C 0.8085(3) 0.6060(2) 0.8351(3)
N5 N 0.9553(3) 0.6488(2) 0.5172(3)
H1 H 0.9228 0.6158 0.5728
H2 H 0.9586 0.6405 0.4478
C4 C 0.6821(3) 0.6163(2) 0.8018(3)
H3 H 0.6725 0.6569 0.7310
H4 H 0.6488 0.6502 0.8667
Zn7 Zn 0.53566(3) 0.33949(2) 0.81943(3)
N12 N 0.8548(2) 0.33737(17) 0.9393(2)
Zn2_2 Zn 0.53566(3) 0.16051(2) 0.31943(3)
O2_2 O 0.34605(18) 0.05029(16) 0.4154(2)
O3_2 O 0.37206(19) 0.16116(15) 0.2796(2)
O4_2 O 0.0383(2) 0.02329(19) 0.1964(2)
N3_2 N 0.5733(2) 0.22995(18) 0.1695(2)
N4_2 N 0.6438(2) 0.30642(18) 0.1693(2)
C1_2 C 0.1139(3) 0.0252(2) 0.2764(3)
C2_2 C 0.3085(3) 0.1060(2) 0.3351(3)
C3_2 C 0.5318(3) 0.2167(2) 0.0545(3)
N5_2 N 0.4553(3) 0.1488(2) 0.0172(3)
H1_2 H 0.4228 0.1158 0.0728
C4_2 C 0.1821(3) 0.1163(2) 0.3018(3)
H3_2 H 0.1725 0.1569 0.2310
H4_2 H 0.1488 0.1502 0.3667
O6_2 O 0.15395(18) 0.05029(16) 0.5846(2)
O7_2 O 0.12794(19) 0.16116(15) 0.7204(2)
O8_2 O 0.4617(2) 0.02329(19) 0.8036(2)
C5_2 C 0.3861(3) 0.0252(2) 0.7236(3)
C6_2 C 0.1915(3) 0.1060(2) 0.6649(3)
N10_2 N 0.0447(3) 0.1488(2) 0.9828(3)
H5_2 H 0.0772 0.1158 0.9272
C8_2 C 0.3179(3) 0.1163(2) 0.6982(3)
H7_2 H 0.3275 0.1569 0.7690
H8_2 H 0.3512 0.1502 0.6333
O10_2 O 0.63624(18) 0.04771(14) 0.34736(19)
N14_2 N 0.5759(2) 0.21705(18) 0.4843(2)
N2_2 N 0.5759(2) 0.28295(18) 0.9843(2)
H2_2 H 0.4586 0.1405 0.9478
O1_2 O 0.13624(18) 0.95229(14) 0.34736(19)
O5_2 O 0.36376(18) 0.95229(14) 0.65264(19)
N7_2 N 0.9241(2) 0.28295(18) 0.0157(2)
Zn3_2 Zn 0.96434(3) 0.16051(2) 0.68057(3)
N8_2 N 0.9267(2) 0.22995(18) 0.8305(2)
N9_2 N 0.8562(2) 0.30642(18) 0.8307(2)
C7_2 C 0.9682(3) 0.2167(2) 0.9455(3)
O9_2 O 0.86376(18) 0.04771(14) 0.65264(19)
N13_2 N 0.9241(2) 0.21705(18) 0.5157(2)
Zn1_3 Zn 0.2500 0.54770(3) 0.0000
O2_3 O 0.15395(18) 0.44971(16) 0.0846(2)
O3_3 O 0.12794(19) 0.33884(15) 0.2204(2)
O4_3 O 0.4617(2) 0.47671(19) 0.3036(2)
C1_3 C 0.3861(3) 0.4748(2) 0.2236(3)
C2_3 C 0.1915(3) 0.3940(2) 0.1649(3)
N5_3 N 0.0447(3) 0.3512(2) 0.4828(3)
H1_3 H 0.0772 0.3842 0.4272
H2_3 H 0.0414 0.3595 0.5522
C4_3 C 0.3179(3) 0.3837(2) 0.1982(3)
H3_3 H 0.3275 0.3431 0.2690
H4_3 H 0.3512 0.3498 0.1333
N12_2 N 0.1452(2) 0.66263(17) 0.0607(2)
Zn1_4 Zn 0.2500 0.54770(3) 1.0000
O6_3 O 0.34605(18) 0.44971(16) 0.9154(2)
O7_3 O 0.37206(19) 0.33884(15) 0.7796(2)
O8_3 O 0.0383(2) 0.47671(19) 0.6964(2)
N6_2 N 0.6452(2) 0.16263(17) 0.5607(2)
N8_3 N 0.5733(2) 0.27005(18) 0.6695(2)
N9_3 N 0.6438(2) 0.19358(18) 0.6693(2)
C5_3 C 0.1139(3) 0.4748(2) 0.7764(3)
C6_3 C 0.3085(3) 0.3940(2) 0.8351(3)
C7_3 C 0.5318(3) 0.2833(2) 0.5545(3)
N10_3 N 0.4553(3) 0.3512(2) 0.5172(3)
H5_3 H 0.4228 0.3842 0.5728
H6_2 H 0.4586 0.3595 0.4478
C8_3 C 0.1821(3) 0.3837(2) 0.8018(3)
H7_3 H 0.1725 0.3431 0.7310
H8_3 H 0.1488 0.3498 0.8667
Zn4 Zn 0.7500 0.04770(3) 0.5000
N11_2 N 0.3548(2) 0.66263(17) 0.9393(2)
N1_2 N 0.8548(2) 0.16263(17) 0.4393(2)
N3_3 N 0.9267(2) 0.27005(18) 0.3305(2)
N4_3 N 0.8562(2) 0.19358(18) 0.3307(2)
C3_3 C 0.9682(3) 0.2833(2) 0.4455(3)
N8_4 N 0.0733(2) 0.77005(18) 0.1695(2)
N9_4 N 0.1438(2) 0.69358(18) 0.1693(2)
C7_4 C 0.0318(3) 0.7833(2) 0.0545(3)
H2_4 H 0.5414 0.8595 0.0522
O2_4 O 0.65395(18) 0.94971(16) 0.5846(2)
O3_4 O 0.62794(19) 0.83884(15) 0.7204(2)
O4_4 O 0.9617(2) 0.97671(19) 0.8036(2)
N3_4 N 0.4267(2) 0.77005(18) 0.8305(2)
N4_4 N 0.3562(2) 0.69358(18) 0.8307(2)
C1_4 C 0.8861(3) 0.9748(2) 0.7236(3)
C2_4 C 0.6915(3) 0.8940(2) 0.6649(3)
C3_4 C 0.4682(3) 0.7833(2) 0.9455(3)
N5_4 N 0.5447(3) 0.8512(2) 0.9828(3)
H1_4 H 0.5772 0.8842 0.9272
C4_4 C 0.8179(3) 0.8837(2) 0.6982(3)
H3_4 H 0.8275 0.8431 0.7690
H4_4 H 0.8512 0.8498 0.6333
O6_4 O 0.84605(18) 0.94971(16) 0.4154(2)
O7_4 O 0.87206(19) 0.83884(15) 0.2796(2)
O8_4 O 0.5383(2) 0.97671(19) 0.1964(2)
C5_4 C 0.6139(3) 0.9748(2) 0.2764(3)
C6_4 C 0.8085(3) 0.8940(2) 0.3351(3)
N10_4 N 0.9553(3) 0.8512(2) 0.0172(3)
H5_4 H 0.9228 0.8842 0.0728
C8_4 C 0.6821(3) 0.8837(2) 0.3018(3)
H7_4 H 0.6725 0.8431 0.2310
H8_4 H 0.6488 0.8498 0.3667
H6_3 H 0.0414 0.1405 0.0522
H6_4 H 0.9586 0.8595 0.9478
loop_
_geom_bond_atom_site_label_1
_geom_bond_atom_site_label_2
_geom_bond_site_symmetry_1
_geom_bond_site_symmetry_2
N1 N2 1_555 1_555
N2 C3 1_555 1_555
N3 Zn2 1_555 1_555
N4 N1 1_555 1_555
C3 N3 1_555 1_555
Zn5 N1 1_555 1_555
Zn9 N2 1_555 1_555
O10 Zn2 1_555 1_555
N14 Zn2 1_555 1_555
N3 N4 1_555 1_555
Zn3 O7 1_555 1_555
O5 Zn1 1_555 1_555
O6 Zn1 1_555 1_555
O7 C6 1_555 1_555
O8 C5 1_555 1_555
N6 N7 1_555 1_555
N7 C7 1_555 1_555
N8 Zn3 1_555 1_555
N9 N6 1_555 1_555
C5 O5 1_555 1_555
C6 O6 1_555 1_555
C7 N8 1_555 1_555
N10 C7 1_555 1_555
H5 N10 1_555 1_555
H6 N10 1_555 1_555
C8 C5 1_555 1_555
H7 C8 1_555 1_555
H8 C8 1_555 1_555
Zn5 N6 1_555 1_555
Zn6 O5 1_555 1_555
Zn8 N7 1_555 1_555
O9 Zn3 1_555 1_555
N11 Zn1 1_555 1_555
N13 Zn3 1_555 1_555
N8 N9 1_555 1_555
C6 C8 1_555 1_555
Zn1_2 O1 1_555 1_555
O1 C1 1_555 1_555
O2 Zn1_2 1_555 1_555
O3 C2 1_555 1_555
O4 C1 1_555 1_555
C1 C4 1_555 1_555
C2 O2 1_555 1_555
H1 N5 1_555 1_555
H2 N5 1_555 1_555
C4 C2 1_555 1_555
H3 C4 1_555 1_555
H4 C4 1_555 1_555
Zn7 O1 1_555 1_555
N12 Zn1_2 1_555 1_555
Zn2_2 O3_2 1_555 1_555
O3_2 C2_2 1_555 1_555
O4_2 C1_2 1_555 1_555
N3_2 Zn2_2 1_555 1_555
N4_2 N11 1_555 1_555
C1_2 C4_2 1_555 1_555
C2_2 O2_2 1_555 1_555
C3_2 N3_2 1_555 1_555
N5_2 C3_2 1_555 1_555
H1_2 N5_2 1_555 1_555
C4_2 C2_2 1_555 1_555
H3_2 C4_2 1_555 1_555
H4_2 C4_2 1_555 1_555
O7_2 C6_2 1_555 1_555
O8_2 C5_2 1_555 1_555
C6_2 O6_2 1_555 1_555
H5_2 N10_2 1_555 1_555
C8_2 C5_2 1_555 1_555
H7_2 C8_2 1_555 1_555
H8_2 C8_2 1_555 1_555
O10_2 Zn2_2 1_555 1_555
N14_2 Zn2_2 1_555 1_555
N3_2 N4_2 1_555 1_555
C6_2 C8_2 1_555 1_555
Zn7 N2_2 1_555 1_555
Zn5 O1_2 1_555 1_555
O5_2 Zn5 1_555 1_555
Zn8 O5_2 1_555 1_555
Zn9 O1_2 1_555 1_555
Zn6 N7_2 1_555 1_555
N8_2 Zn3_2 1_555 1_555
N9_2 N12 1_555 1_555
C7_2 N8_2 1_555 1_555
O9_2 Zn3_2 1_555 1_555
N13_2 Zn3_2 1_555 1_555
N8_2 N9_2 1_555 1_555
Zn1_3 O9 1_555 1_555
O9 C1_3 1_555 1_555
O2_3 Zn1_3 1_555 1_555
O3_3 C2_3 1_555 1_555
O4_3 C1_3 1_555 1_555
C1_3 C4_3 1_555 1_555
C2_3 O2_3 1_555 1_555
H1_3 N5_3 1_555 1_555
H2_3 N5_3 1_555 1_555
C4_3 C2_3 1_555 1_555
H3_3 C4_3 1_555 1_555
H4_3 C4_3 1_555 1_555
N12_2 Zn1_3 1_555 1_555
Zn7 O7_3 1_555 1_555
O10 Zn1_4 1_555 1_555
O6_3 Zn1_4 1_555 1_555
O7_3 C6_3 1_555 1_555
O8_3 C5_3 1_555 1_555
N6_2 N14_2 1_555 1_555
N14_2 C7_3 1_555 1_555
N8_3 Zn7 1_555 1_555
N9_3 N6_2 1_555 1_555
C5_3 O10 1_555 1_555
C6_3 O6_3 1_555 1_555
C7_3 N8_3 1_555 1_555
N10_3 C7_3 1_555 1_555
H5_3 N10_3 1_555 1_555
H6_2 N10_3 1_555 1_555
C8_3 C5_3 1_555 1_555
H7_3 C8_3 1_555 1_555
H8_3 C8_3 1_555 1_555
Zn4 N6_2 1_555 1_555
N11_2 Zn1_4 1_555 1_555
N8_3 N9_3 1_555 1_555
C6_3 C8_3 1_555 1_555
N1_2 N13_2 1_555 1_555
N13_2 C3_3 1_555 1_555
N3_3 Zn6 1_555 1_555
N4_3 N1_2 1_555 1_555
C3_3 N3_3 1_555 1_555
Zn4 N1_2 1_555 1_555
N3_3 N4_3 1_555 1_555
N8_4 Zn9 1_555 1_555
N9_4 N12_2 1_555 1_555
C7_4 N8_4 1_555 1_555
N8_4 N9_4 1_555 1_555
Zn4 O9_2 1_555 1_555
O10_2 Zn4 1_555 1_555
Zn8 O3_4 1_555 1_555
O3_4 C2_4 1_555 1_555
O4_4 C1_4 1_555 1_555
N3_4 Zn8 1_555 1_555
N4_4 N11_2 1_555 1_555
C1_4 C4_4 1_555 1_555
C2_4 O2_4 1_555 1_555
C3_4 N3_4 1_555 1_555
N5_4 C3_4 1_555 1_555
H1_4 N5_4 1_555 1_555
C4_4 C2_4 1_555 1_555
H3_4 C4_4 1_555 1_555
H4_4 C4_4 1_555 1_555
O7_4 C6_4 1_555 1_555
O8_4 C5_4 1_555 1_555
C6_4 O6_4 1_555 1_555
H5_4 N10_4 1_555 1_555
C8_4 C5_4 1_555 1_555
H7_4 C8_4 1_555 1_555
H8_4 C8_4 1_555 1_555
N3_4 N4_4 1_555 1_555
C6_4 C8_4 1_555 1_555

#END
