
###############################################################################
#
# This file contains modified crystal structure data generated from the
# MOF subset of the Cambridge Structural Database (CSD) v543 
# hosted by the Cambridge Crystallographic Data Centre (CCDC).
#
# This work is licensed under the Creative Commons
# Attribution-NonCommercial-ShareAlike 4.0 International License.
# To view a copy of this license, visit
# http://creativecommons.org/licenses/by-nc-sa/4.0/
# or send a letter to
# Creative Commons, PO Box 1866, Mountain View, CA 94042, USA.
#
# CIF created using the CSD Python API on 29 September 2022
# The structure has been converted into the P1 space group
# The structure has a 3D framework
# The original CSD entry LEJRIC01 is in the rhombohedral crystal system
# The framework has been calculated to contain at least 10.0% void space
# The void calculation uses a probe of radius 1.32A, grid spacing 0.4
#
###############################################################################

data_LEJRIC01
_chemical_formula_moiety         '(C72 H54 Ni18 O72)n'
_symmetry_cell_setting           triclinic
_symmetry_space_group_name_H-M   'P 1'
_symmetry_Int_Tables_number      1
_space_group_name_Hall           'P 1'
loop_
_symmetry_equiv_pos_site_id
_symmetry_equiv_pos_as_xyz
1 x,y,z
_cell_length_a                   25.7450(4)
_cell_length_b                   25.7450(4)
_cell_length_c                   6.80430(10)
_cell_angle_alpha                90
_cell_angle_beta                 90
_cell_angle_gamma                120
_cell_volume                     3905.71
loop_
_atom_site_label
_atom_site_type_symbol
_atom_site_fract_x
_atom_site_fract_y
_atom_site_fract_z
Ni7 Ni 0.38200(4) 0.35096(3) 0.15063(8)
O13 O 0.30403(16) 0.34010(23) 0.0303(5)
O16 O 0.35966(23) 0.27585(16) 0.0021(5)
H6 H 0.226931 0.180914 0.014783
Ni1 Ni 0.68429(3) 0.63562(3) 0.51604(8)
O1 O 0.60918(16) 0.58285(16) 0.6646(5)
O2 O 0.63059(16) 0.63736(16) 0.3030(5)
C1 C 0.5572(2) 0.5445(2) 0.5781(7)
C2 C 0.5813(2) 0.5953(2) 0.2384(6)
C3 C 0.5145(2) 0.4975(2) 0.6930(7)
C4 C 0.5419(2) 0.5466(2) 0.3778(7)
O3 O 0.56444(17) 0.59335(18) 0.0644(5)
O4 O 0.7730(3) 0.7932(3) 0.0679(9)
H1 H 0.522(3) 0.493(3) 0.841(9)
H2 H 0.810849 0.806407 0.092158
O5 O 0.75048(16) 0.69300(23) 0.3313(5)
Ni2 Ni 0.61800(4) 0.64904(3) 0.84937(8)
Ni3 Ni 0.69771(3) 0.71534(4) 0.18271(8)
O7 O 0.69558(25) 0.76889(17) 0.3977(5)
C5 C 0.4581(2) 0.4534(2) 0.6222(7)
C6 C 0.4855(2) 0.5025(2) 0.3070(7)
C7 C 0.4187(2) 0.4047(2) 0.7616(6)
C8 C 0.4428(2) 0.4555(2) 0.4219(7)
H4 H 0.478(3) 0.507(3) 0.159(9)
O9 O 0.36941(16) 0.36264(16) 0.6970(5)
O10 O 0.43556(17) 0.40665(18) 0.9356(5)
O11 O 0.39082(16) 0.41715(16) 0.3354(5)
Ni5 Ni 0.31571(3) 0.36438(3) 0.48396(8)
Ni6 Ni 0.30229(3) 0.28466(4) 0.81729(8)
O12 O 0.24952(16) 0.30700(23) 0.6687(5)
O14 O 0.30442(25) 0.23111(17) 0.6023(5)
O15 O 0.2270(3) 0.2068(3) 0.9321(9)
H5 H 0.189151 0.193593 0.907842
H3 H 0.773069 0.819086 0.985217
O6 O 0.69597(16) 0.65990(23) 0.9697(5)
O8 O 0.64034(23) 0.72415(16) 0.9979(5)
Ni7_2 Ni 0.64904(3) 0.03105(5) 0.15063(8)
O16_2 O 0.72415(16) 0.08382(28) 0.0021(5)
H6_2 H 0.819086 0.046017 0.014783
Ni1_2 Ni 0.36438(3) 0.04867(4) 0.51604(8)
O1_2 O 0.41715(16) 0.02633(23) 0.6646(5)
C1_2 C 0.4555(2) 0.0127(3) 0.5781(7)
C3_2 C 0.5025(2) 0.0170(3) 0.6930(7)
H1_2 H 0.507(3) 0.029(4) 0.841(9)
H2_2 H 0.193593 0.004442 0.092158
O5_2 O 0.30700(23) 0.05749(28) 0.3313(5)
C5_2 C 0.5466(2) 0.0047(3) 0.6222(7)
C7_2 C 0.5953(2) 0.0140(3) 0.7616(6)
O9_2 O 0.63736(16) 0.00677(23) 0.6970(5)
O10_2 O 0.59335(18) 0.02891(25) 0.9356(5)
Ni6_2 Ni 0.71534(4) 0.01762(5) 0.81729(8)
O14_2 O 0.76889(17) 0.07332(30) 0.6023(5)
O15_2 O 0.7932(3) 0.0202(4) 0.9321(9)
O6_2 O 0.34010(23) 0.03608(28) 0.9697(5)
O13_2 O 0.65990(23) 0.96392(28) 0.0303(5)
O2_2 O 0.36264(16) 0.99323(23) 0.3030(5)
C2_2 C 0.4047(2) 0.9860(3) 0.2384(6)
C4_2 C 0.4534(2) 0.9953(3) 0.3778(7)
O3_2 O 0.40665(18) 0.97109(25) 0.0644(5)
O4_2 O 0.2068(3) 0.9798(4) 0.0679(9)
Ni2_2 Ni 0.35096(3) 0.96895(5) 0.84937(8)
Ni3_2 Ni 0.28466(4) 0.98238(5) 0.18271(8)
O7_2 O 0.23111(17) 0.92668(30) 0.3977(5)
C6_2 C 0.4975(2) 0.9830(3) 0.3070(7)
C8_2 C 0.5445(2) 0.9873(3) 0.4219(7)
H4_2 H 0.493(3) 0.971(4) 0.159(9)
O11_2 O 0.58285(16) 0.97367(23) 0.3354(5)
Ni5_2 Ni 0.63562(3) 0.95133(4) 0.48396(8)
O12_2 O 0.69300(23) 0.94251(28) 0.6687(5)
H5_2 H 0.806407 0.995558 0.907842
H3_2 H 0.180914 0.953983 0.985217
O8_2 O 0.27585(16) 0.91618(28) 0.9979(5)
O13_3 O 0.03608(28) 0.69597(16) 0.0303(5)
O2_3 O 0.00677(23) 0.36941(16) 0.3030(5)
C2_3 C 0.0140(3) 0.4187(2) 0.2384(6)
C4_3 C 0.0047(3) 0.4581(2) 0.3778(7)
O3_3 O 0.02891(25) 0.43556(17) 0.0644(5)
O4_3 O 0.0202(4) 0.2270(3) 0.0679(9)
Ni2_3 Ni 0.03105(5) 0.38200(4) 0.84937(8)
Ni3_3 Ni 0.01762(5) 0.30229(3) 0.18271(8)
O7_3 O 0.07332(30) 0.30442(25) 0.3977(5)
C6_3 C 0.0170(3) 0.5145(2) 0.3070(7)
C8_3 C 0.0127(3) 0.5572(2) 0.4219(7)
H4_3 H 0.029(4) 0.522(3) 0.159(9)
O11_3 O 0.02633(23) 0.60918(16) 0.3354(5)
Ni5_3 Ni 0.04867(4) 0.68429(3) 0.48396(8)
O12_3 O 0.05749(28) 0.75048(16) 0.6687(5)
H5_3 H 0.004442 0.810849 0.907842
H3_3 H 0.046017 0.226931 0.985217
O8_3 O 0.08382(28) 0.35966(23) 0.9979(5)
Ni7_3 Ni 0.96895(5) 0.61800(4) 0.15063(8)
O16_3 O 0.91618(28) 0.64034(23) 0.0021(5)
H6_3 H 0.953983 0.773069 0.014783
Ni1_3 Ni 0.95133(4) 0.31571(3) 0.51604(8)
O1_3 O 0.97367(23) 0.39082(16) 0.6646(5)
C1_3 C 0.9873(3) 0.4428(2) 0.5781(7)
C3_3 C 0.9830(3) 0.4855(2) 0.6930(7)
H1_3 H 0.971(4) 0.478(3) 0.841(9)
H2_3 H 0.995558 0.189151 0.092158
O5_3 O 0.94251(28) 0.24952(16) 0.3313(5)
C5_3 C 0.9953(3) 0.5419(2) 0.6222(7)
C7_3 C 0.9860(3) 0.5813(2) 0.7616(6)
O9_3 O 0.99323(23) 0.63059(16) 0.6970(5)
O10_3 O 0.97109(25) 0.56444(17) 0.9356(5)
Ni6_3 Ni 0.98238(5) 0.69771(3) 0.81729(8)
O14_3 O 0.92668(30) 0.69558(25) 0.6023(5)
O15_3 O 0.9798(4) 0.7730(3) 0.9321(9)
O6_3 O 0.96392(28) 0.30403(16) 0.9697(5)
O4_4 O 0.4397(3) 0.1265(3) 0.4012(9)
H2_4 H 0.477516 0.139740 0.425491
H3_4 H 0.439736 0.152419 0.318550
O7_4 O 0.36224(25) 0.10223(17) 0.7311(5)
C3_4 C 0.1812(2) 0.8308(2) 0.0263(7)
H1_4 H 0.189(3) 0.826(3) 0.174(9)
C7_4 C 0.0854(2) 0.7380(2) 0.0949(6)
O10_4 O 0.10223(17) 0.73998(18) 0.2689(5)
O2_4 O 0.29726(16) 0.97069(16) 0.6363(5)
C1_4 C 0.2239(2) 0.8778(2) 0.9114(7)
C2_4 C 0.2480(2) 0.9286(2) 0.5717(6)
C4_4 C 0.2086(2) 0.8799(2) 0.7111(7)
C5_4 C 0.1248(2) 0.7867(2) 0.9555(7)
C6_4 C 0.1522(2) 0.8358(2) 0.6403(7)
C8_4 C 0.1095(2) 0.7888(2) 0.7552(7)
H4_4 H 0.145(3) 0.840(3) 0.492(9)
O13_4 O 0.97069(16) 0.67344(23) 0.3637(5)
O15_4 O 0.8937(3) 0.5401(3) 0.2654(9)
H5_4 H 0.855818 0.526926 0.241175
H6_4 H 0.893598 0.514247 0.348116
C3_5 C 0.1692(2) 0.3503(3) 0.0263(7)
H1_5 H 0.174(3) 0.362(4) 0.174(9)
C7_5 C 0.2620(2) 0.3473(3) 0.0949(6)
O10_5 O 0.26002(18) 0.36224(25) 0.2689(5)
O13_5 O 0.32656(23) 0.29726(28) 0.3637(5)
O15_5 O 0.4599(3) 0.3535(4) 0.2654(9)
H5_5 H 0.473074 0.328891 0.241175
H6_5 H 0.485753 0.379350 0.348116
O2_5 O 0.02931(16) 0.32656(23) 0.6363(5)
C1_5 C 0.1222(2) 0.3460(3) 0.9114(7)
C2_5 C 0.0714(2) 0.3193(3) 0.5717(6)
C4_5 C 0.1201(2) 0.3286(3) 0.7111(7)
C5_5 C 0.2133(2) 0.3380(3) 0.9555(7)
C6_5 C 0.1642(2) 0.3163(3) 0.6403(7)
C8_5 C 0.2112(2) 0.3206(3) 0.7552(7)
H4_5 H 0.160(3) 0.304(4) 0.492(9)
O4_5 O 0.8735(3) 0.3131(4) 0.4012(9)
H2_5 H 0.860260 0.337775 0.425491
H3_5 H 0.847581 0.287316 0.318550
O7_5 O 0.89777(17) 0.26002(30) 0.7311(5)
O13_6 O 0.70274(28) 0.02931(16) 0.3637(5)
O15_6 O 0.6465(4) 0.1063(3) 0.2654(9)
H5_6 H 0.671109 0.144182 0.241175
H6_6 H 0.620650 0.106402 0.348116
C3_6 C 0.6497(3) 0.8188(2) 0.0263(7)
H1_6 H 0.638(4) 0.811(3) 0.174(9)
C7_6 C 0.6527(3) 0.9146(2) 0.0949(6)
O10_6 O 0.63776(25) 0.89777(17) 0.2689(5)
O2_6 O 0.67344(23) 0.70274(16) 0.6363(5)
C1_6 C 0.6540(3) 0.7761(2) 0.9114(7)
C2_6 C 0.6807(3) 0.7520(2) 0.5717(6)
C4_6 C 0.6714(3) 0.7914(2) 0.7111(7)
O4_6 O 0.6869(4) 0.5603(3) 0.4012(9)
H2_6 H 0.662225 0.522484 0.425491
H3_6 H 0.712684 0.560264 0.318550
O7_6 O 0.73998(30) 0.63776(25) 0.7311(5)
C5_6 C 0.6620(3) 0.8752(2) 0.9555(7)
C6_6 C 0.6837(3) 0.8478(2) 0.6403(7)
C8_6 C 0.6794(3) 0.8905(2) 0.7552(7)
H4_6 H 0.696(4) 0.855(3) 0.492(9)
O4_7 O 0.1063(3) 0.4599(3) 0.7346(9)
H2_7 H 0.144182 0.473074 0.758825
H3_7 H 0.106402 0.485753 0.651884
C1_7 C 0.8905(2) 0.2112(2) 0.2448(7)
C3_7 C 0.8478(2) 0.1642(2) 0.3597(7)
C4_7 C 0.8752(2) 0.2133(2) 0.0445(7)
H1_7 H 0.855(3) 0.160(3) 0.508(9)
C5_7 C 0.7914(2) 0.1201(2) 0.2889(7)
C7_7 C 0.7520(2) 0.0714(2) 0.4283(6)
C8_7 C 0.7761(2) 0.1222(2) 0.0886(7)
C2_7 C 0.9146(2) 0.2620(2) 0.9051(6)
C6_7 C 0.8188(2) 0.1692(2) 0.9737(7)
H4_7 H 0.811(3) 0.174(3) 0.826(9)
O15_7 O 0.5603(3) 0.8735(3) 0.5988(9)
H5_7 H 0.522484 0.860260 0.574509
H6_7 H 0.560264 0.847581 0.681450
O15_8 O 0.1265(3) 0.6869(4) 0.5988(9)
H5_8 H 0.139740 0.662225 0.574509
H6_8 H 0.152419 0.712684 0.681450
C1_8 C 0.7888(2) 0.6794(3) 0.2448(7)
C3_8 C 0.8358(2) 0.6837(3) 0.3597(7)
C4_8 C 0.7867(2) 0.6620(3) 0.0445(7)
H1_8 H 0.840(3) 0.696(4) 0.508(9)
C5_8 C 0.8799(2) 0.6714(3) 0.2889(7)
C7_8 C 0.9286(2) 0.6807(3) 0.4283(6)
C8_8 C 0.8778(2) 0.6540(3) 0.0886(7)
C2_8 C 0.7380(2) 0.6527(3) 0.9051(6)
O4_8 O 0.5401(3) 0.6465(4) 0.7346(9)
H2_8 H 0.526926 0.671109 0.758825
H3_8 H 0.514247 0.620650 0.651884
C6_8 C 0.8308(2) 0.6497(3) 0.9737(7)
H4_8 H 0.826(3) 0.638(4) 0.826(9)
C1_9 C 0.3206(3) 0.1095(2) 0.2448(7)
C3_9 C 0.3163(3) 0.1522(2) 0.3597(7)
C4_9 C 0.3380(3) 0.1248(2) 0.0445(7)
H1_9 H 0.304(4) 0.145(3) 0.508(9)
C5_9 C 0.3286(3) 0.2086(2) 0.2889(7)
C7_9 C 0.3193(3) 0.2480(2) 0.4283(6)
C8_9 C 0.3460(3) 0.2239(2) 0.0886(7)
O15_9 O 0.3131(4) 0.4397(3) 0.5988(9)
H5_9 H 0.337775 0.477516 0.574509
H6_9 H 0.287316 0.439736 0.681450
C2_9 C 0.3473(3) 0.0854(2) 0.9051(6)
C6_9 C 0.3503(3) 0.1812(2) 0.9737(7)
H4_9 H 0.362(4) 0.189(3) 0.826(9)
O4_9 O 0.3535(4) 0.8937(3) 0.7346(9)
H2_9 H 0.328891 0.855818 0.758825
H3_9 H 0.379350 0.893598 0.651884
loop_
_geom_bond_atom_site_label_1
_geom_bond_atom_site_label_2
_geom_bond_site_symmetry_1
_geom_bond_site_symmetry_2
Ni7 O13 1_555 1_555
Ni7 O16 1_555 1_555
Ni1 O1 1_555 1_555
O1 C1 1_555 1_555
O2 Ni1 1_555 1_555
C1 C3 1_555 1_555
C2 O2 1_555 1_555
C3 H1 1_555 1_555
C4 C1 1_555 1_555
O3 C2 1_555 1_555
O4 H2 1_555 1_555
O5 Ni1 1_555 1_555
Ni2 O1 1_555 1_555
Ni3 O2 1_555 1_555
O7 Ni3 1_555 1_555
C5 C3 1_555 1_555
C6 C4 1_555 1_555
C7 C5 1_555 1_555
C8 C5 1_555 1_555
H4 C6 1_555 1_555
O9 C7 1_555 1_555
O10 C7 1_555 1_555
O11 C8 1_555 1_555
Ni5 O9 1_555 1_555
Ni6 O9 1_555 1_555
Ni7 O11 1_555 1_555
O12 Ni5 1_555 1_555
O14 Ni6 1_555 1_555
O15 Ni6 1_555 1_555
H5 O15 1_555 1_555
C2 C4 1_555 1_555
O4 Ni3 1_555 1_555
O5 Ni3 1_555 1_555
C6 C8 1_555 1_555
O11 Ni5 1_555 1_555
Ni6 O12 1_555 1_555
O6 Ni2 1_555 1_555
O8 Ni2 1_555 1_555
Ni7_2 O16_2 1_555 1_555
Ni1_2 O1_2 1_555 1_555
O1_2 C1_2 1_555 1_555
C1_2 C3_2 1_555 1_555
C3_2 H1_2 1_555 1_555
O5_2 Ni1_2 1_555 1_555
C5_2 C3_2 1_555 1_555
C7_2 C5_2 1_555 1_555
O9_2 C7_2 1_555 1_555
O10_2 C7_2 1_555 1_555
Ni6_2 O9_2 1_555 1_555
O14_2 Ni6_2 1_555 1_555
O15_2 Ni6_2 1_555 1_555
C2_2 O2_2 1_555 1_555
O3_2 C2_2 1_555 1_555
Ni3_2 O2_2 1_555 1_555
O7_2 Ni3_2 1_555 1_555
C6_2 C4_2 1_555 1_555
H4_2 C6_2 1_555 1_555
O11_2 C8_2 1_555 1_555
O12_2 Ni5_2 1_555 1_555
C2_2 C4_2 1_555 1_555
O4_2 Ni3_2 1_555 1_555
C6_2 C8_2 1_555 1_555
O11_2 Ni5_2 1_555 1_555
O8_2 Ni2_2 1_555 1_555
C2_3 O2_3 1_555 1_555
O3_3 C2_3 1_555 1_555
Ni3_3 O2_3 1_555 1_555
O7_3 Ni3_3 1_555 1_555
C6_3 C4_3 1_555 1_555
H4_3 C6_3 1_555 1_555
O11_3 C8_3 1_555 1_555
O12_3 Ni5_3 1_555 1_555
C2_3 C4_3 1_555 1_555
O4_3 Ni3_3 1_555 1_555
C6_3 C8_3 1_555 1_555
O11_3 Ni5_3 1_555 1_555
O8_3 Ni2_3 1_555 1_555
Ni7_3 O16_3 1_555 1_555
Ni1_3 O1_3 1_555 1_555
O1_3 C1_3 1_555 1_555
C1_3 C3_3 1_555 1_555
C3_3 H1_3 1_555 1_555
O5_3 Ni1_3 1_555 1_555
C5_3 C3_3 1_555 1_555
C7_3 C5_3 1_555 1_555
O9_3 C7_3 1_555 1_555
O10_3 C7_3 1_555 1_555
Ni6_3 O9_3 1_555 1_555
O14_3 Ni6_3 1_555 1_555
O15_3 Ni6_3 1_555 1_555
O4_4 H2_4 1_555 1_555
H3_4 O4_4 1_555 1_555
O7_4 Ni1_2 1_555 1_555
O4_4 Ni1_2 1_555 1_555
C3_4 H1_4 1_555 1_555
O13_3 C7_4 1_555 1_555
O10_4 C7_4 1_555 1_555
Ni5_3 O10_4 1_555 1_555
O8_2 C1_4 1_555 1_555
O2_4 Ni2_2 1_555 1_555
C2_4 O2_4 1_555 1_555
C4_4 C1_4 1_555 1_555
O7_2 C2_4 1_555 1_555
C6_4 C4_4 1_555 1_555
C8_4 C5_4 1_555 1_555
H4_4 C6_4 1_555 1_555
O12_3 C8_4 1_555 1_555
C2_4 C4_4 1_555 1_555
C6_4 C8_4 1_555 1_555
O13_4 Ni7_3 1_555 1_555
O15_4 Ni7_3 1_555 1_555
H5_4 O15_4 1_555 1_555
H6_4 O15_4 1_555 1_555
C3_5 H1_5 1_555 1_555
O13 C7_5 1_555 1_555
O10_5 C7_5 1_555 1_555
Ni5 O10_5 1_555 1_555
O13_5 Ni7 1_555 1_555
O15_5 Ni7 1_555 1_555
H5_5 O15_5 1_555 1_555
H6_5 O15_5 1_555 1_555
Ni5 O13_5 1_555 1_555
O8_3 C1_5 1_555 1_555
O2_5 Ni2_3 1_555 1_555
C2_5 O2_5 1_555 1_555
C4_5 C1_5 1_555 1_555
O7_3 C2_5 1_555 1_555
C6_5 C4_5 1_555 1_555
C8_5 C5_5 1_555 1_555
H4_5 C6_5 1_555 1_555
O12 C8_5 1_555 1_555
C2_5 C4_5 1_555 1_555
C6_5 C8_5 1_555 1_555
O4_5 H2_5 1_555 1_555
H3_5 O4_5 1_555 1_555
O7_5 Ni1_3 1_555 1_555
O4_5 Ni1_3 1_555 1_555
O13_6 Ni7_2 1_555 1_555
O15_6 Ni7_2 1_555 1_555
H5_6 O15_6 1_555 1_555
H6_6 O15_6 1_555 1_555
C3_6 H1_6 1_555 1_555
O13_2 C7_6 1_555 1_555
O10_6 C7_6 1_555 1_555
Ni5_2 O10_6 1_555 1_555
O8 C1_6 1_555 1_555
O2_6 Ni2 1_555 1_555
C2_6 O2_6 1_555 1_555
C4_6 C1_6 1_555 1_555
O7 C2_6 1_555 1_555
O4_6 H2_6 1_555 1_555
H3_6 O4_6 1_555 1_555
Ni1 O2_6 1_555 1_555
O7_6 Ni1 1_555 1_555
C6_6 C4_6 1_555 1_555
C8_6 C5_6 1_555 1_555
H4_6 C6_6 1_555 1_555
O12_2 C8_6 1_555 1_555
C2_6 C4_6 1_555 1_555
O4_6 Ni1 1_555 1_555
C6_6 C8_6 1_555 1_555
O4_7 H2_7 1_555 1_555
H3_7 O4_7 1_555 1_555
O4_7 Ni2_3 1_555 1_555
O5_3 C1_7 1_555 1_555
C1_7 C3_7 1_555 1_555
C3_7 H1_7 1_555 1_555
C4_7 C1_7 1_555 1_555
C5_7 C3_7 1_555 1_555
C7_7 C5_7 1_555 1_555
C8_7 C5_7 1_555 1_555
O13_6 C7_7 1_555 1_555
O14_2 C7_7 1_555 1_555
O16_2 C8_7 1_555 1_555
C2_7 O6_3 1_555 1_555
O7_5 C2_7 1_555 1_555
H4_7 C6_7 1_555 1_555
O15_7 Ni5_2 1_555 1_555
H5_7 O15_7 1_555 1_555
H6_7 O15_7 1_555 1_555
O15_8 Ni5_3 1_555 1_555
H5_8 O15_8 1_555 1_555
H6_8 O15_8 1_555 1_555
O5 C1_8 1_555 1_555
C1_8 C3_8 1_555 1_555
C3_8 H1_8 1_555 1_555
C4_8 C1_8 1_555 1_555
C5_8 C3_8 1_555 1_555
C7_8 C5_8 1_555 1_555
C8_8 C5_8 1_555 1_555
O13_4 C7_8 1_555 1_555
O14_3 C7_8 1_555 1_555
O16_3 C8_8 1_555 1_555
C2_8 O6 1_555 1_555
O7_6 C2_8 1_555 1_555
O4_8 H2_8 1_555 1_555
H3_8 O4_8 1_555 1_555
H4_8 C6_8 1_555 1_555
O4_8 Ni2 1_555 1_555
O5_2 C1_9 1_555 1_555
C1_9 C3_9 1_555 1_555
C3_9 H1_9 1_555 1_555
C4_9 C1_9 1_555 1_555
C5_9 C3_9 1_555 1_555
C7_9 C5_9 1_555 1_555
C8_9 C5_9 1_555 1_555
O13_5 C7_9 1_555 1_555
O14 C7_9 1_555 1_555
O16 C8_9 1_555 1_555
O15_9 Ni5 1_555 1_555
H5_9 O15_9 1_555 1_555
H6_9 O15_9 1_555 1_555
C2_9 O6_2 1_555 1_555
O7_4 C2_9 1_555 1_555
H4_9 C6_9 1_555 1_555
O4_9 H2_9 1_555 1_555
H3_9 O4_9 1_555 1_555
O4_9 Ni2_2 1_555 1_555

#END
