
###############################################################################
#
# This file contains modified crystal structure data generated from the
# MOF subset of the Cambridge Structural Database (CSD) v543 
# hosted by the Cambridge Crystallographic Data Centre (CCDC).
#
# This work is licensed under the Creative Commons
# Attribution-NonCommercial-ShareAlike 4.0 International License.
# To view a copy of this license, visit
# http://creativecommons.org/licenses/by-nc-sa/4.0/
# or send a letter to
# Creative Commons, PO Box 1866, Mountain View, CA 94042, USA.
#
# CIF created using the CSD Python API on 29 September 2022
# The structure has been converted into the P1 space group
# The structure has a 3D framework
# The original CSD entry LEPLAV is in the monoclinic crystal system
# The framework has been calculated to contain at least 10.0% void space
# The void calculation uses a probe of radius 1.32A, grid spacing 0.4
# H atom positions have been added when not included in the experimental data
#
###############################################################################

data_LEPLAV
_chemical_formula_moiety         '(C96 H80 Eu8 O64)n'
_symmetry_cell_setting           triclinic
_symmetry_space_group_name_H-M   'P 1'
_symmetry_Int_Tables_number      1
_space_group_name_Hall           'P 1'
loop_
_symmetry_equiv_pos_site_id
_symmetry_equiv_pos_as_xyz
1 x,y,z
_cell_length_a                   13.3471(14)
_cell_length_b                   17.8963(19)
_cell_length_c                   18.7773(14)
_cell_angle_alpha                90
_cell_angle_beta                 133.570(5)
_cell_angle_gamma                90
_cell_volume                     3249.69
loop_
_atom_site_label
_atom_site_type_symbol
_atom_site_fract_x
_atom_site_fract_y
_atom_site_fract_z
H7 H 0.0189 0.7277 0.4624
Eu1 Eu 0.54821(3) 0.029660(13) 0.142660(17)
C1 C 0.5851(5) 0.3976(3) 0.3007(4)
C2 C 0.6432(5) 0.3279(3) 0.3624(4)
C3 C 0.6433(5) 0.2603(3) 0.3259(4)
H1 H 0.6161 0.2590 0.2651
C4 C 0.6836(5) 0.1949(3) 0.3794(3)
C5 C 0.7287(5) 0.1971(3) 0.4722(4)
H2 H 0.7558 0.1535 0.5085
C6 C 0.7326(6) 0.2650(3) 0.5097(4)
H3 H 0.7652 0.2669 0.5722
C7 C 0.6889(6) 0.3292(3) 0.4555(4)
H4 H 0.6897 0.3741 0.4808
C8 C 0.6691(5) 0.1206(3) 0.3352(3)
O1 O 0.5672(4) 0.45420(19) 0.3305(3)
O2 O 0.5570(4) 0.39545(19) 0.2216(3)
O3 O 0.6481(4) 0.06383(19) 0.3618(3)
O4 O 0.6751(4) 0.11985(19) 0.2711(3)
O15 O 0.4984(4) 0.1427(2) 0.0470(3)
O16 O 0.3798(4) 0.1048(2) 0.1261(3)
H17 H 0.370(7) 0.094(4) 0.168(4)
H18 H 0.342(7) 0.1496(19) 0.103(4)
Eu4 Eu 0.45179(3) 0.529660(13) 0.357340(17)
Eu8 Eu 0.44959(3) 0.487430(13) 0.097580(17)
O19 O 0.4616(4) 0.11442(19) 0.3961(2)
O20 O 0.3562(4) 0.05943(18) 0.2545(2)
O21 O 0.7541(4) 0.0420(2) 0.1739(3)
O22 O 0.7524(4) 0.0233(2) 0.5656(3)
H20 H 0.581874 0.174974 0.0894365
Eu2 Eu 0.55041(3) 0.987430(13) 0.402420(17)
C9 C 0.6308(5) 0.6145(3) 0.1975(4)
C10 C 0.7211(5) 0.6805(3) 0.2529(4)
C11 C 0.6747(5) 0.7515(3) 0.2128(3)
H5 H 0.5908 0.7573 0.1481
C12 C 0.7528(5) 0.8141(3) 0.2685(3)
C13 C 0.8810(6) 0.8046(3) 0.3633(4)
H6 H 0.9336 0.8461 0.4015
C14 C 0.9304(6) 0.7338(3) 0.4006(4)
C15 C 0.8496(5) 0.6717(3) 0.3469(4)
H8 H 0.8817 0.6242 0.3741
C16 C 0.6954(5) 0.8901(3) 0.2277(3)
O5 O 0.7310(4) 0.94367(19) 0.2849(2)
O6 O 0.6075(4) 0.89989(18) 0.1355(2)
O7 O 0.5384(4) 0.61442(19) 0.1039(2)
O8 O 0.6438(4) 0.55943(18) 0.2455(2)
O13 O 0.7423(4) 0.9188(2) 0.4382(3)
H13 H 0.743(7) 0.923(3) 0.392(3)
O14 O 0.6026(6) 0.8740(2) 0.4949(4)
H14 H 0.602(10) 0.828(2) 0.477(6)
H15 H 0.572(7) 0.862(4) 0.523(5)
O17 O 0.4328(4) 0.95420(19) 0.1695(3)
O18 O 0.4430(4) 0.89545(19) 0.2784(3)
O23 O 0.3718(4) 0.9661(2) 0.3976(3)
H19 H 0.73381 0.865032 0.446347
C17 C 0.2509(5) 0.9831(3) 0.8909(4)
O9 O 0.3632(4) 0.9941(2) 0.9781(3)
O10 O 0.2459(4) 0.9580(2) 0.8261(3)
Eu3 Eu 0.45179(3) 0.970340(13) 0.857340(17)
C19 C 0.9966(5) 0.0060(3) 0.7627(4)
C20 C 0.8732(5) 0.0282(3) 0.7339(4)
C21 C 0.8713(6) 0.0477(3) 0.8046(4)
H10 H 0.7893 0.0629 0.7858
C22 C 0.9921(6) 0.0441(4) 0.9030(4)
H11 H 0.9909 0.0569 0.9504
C24 C 0.7423(5) 0.0288(3) 0.6272(4)
O12 O 0.6282(4) 0.0339(2) 0.6024(3)
Eu7 Eu 0.44959(3) 0.012570(13) 0.597580(17)
H9 H 0.9976 0.9929 0.7153
C19_2 C 0.0034(5) 0.5060(3) 0.7373(4)
H9_2 H 0.0024 0.4929 0.7847
C20_2 C 0.1268(5) 0.5282(3) 0.7661(4)
C21_2 C 0.1287(6) 0.5477(3) 0.6954(4)
H10_2 H 0.2107 0.5629 0.7142
C22_2 C 0.0079(6) 0.5441(4) 0.5970(4)
H11_2 H 0.0091 0.5569 0.5496
C24_2 C 0.2577(5) 0.5288(3) 0.8728(4)
O11 O 0.2476(4) 0.5233(2) 0.9344(3)
O12_2 O 0.3718(4) 0.5339(2) 0.8976(3)
Eu7_2 Eu 0.55041(3) 0.512570(13) 0.902420(17)
C1_2 C 0.4149(5) 0.8976(3) 0.1993(4)
C2_2 C 0.3568(5) 0.8279(3) 0.1376(4)
C3_2 C 0.3567(5) 0.7603(3) 0.1741(4)
H1_2 H 0.3839 0.7590 0.2349
C4_2 C 0.3164(5) 0.6949(3) 0.1206(3)
C5_2 C 0.2713(5) 0.6971(3) 0.0278(4)
C7_2 C 0.3111(6) 0.8292(3) 0.0445(4)
H4_2 H 0.3103 0.8741 0.0192
C8_2 C 0.3309(5) 0.6206(3) 0.1648(3)
C9_2 C 0.3692(5) 0.1145(3) 0.3025(4)
C10_2 C 0.2789(5) 0.1805(3) 0.2471(4)
C11_2 C 0.3253(5) 0.2515(3) 0.2872(3)
H5_2 H 0.4092 0.2573 0.3519
C12_2 C 0.2472(5) 0.3141(3) 0.2315(3)
C13_2 C 0.1190(6) 0.3046(3) 0.1367(4)
H6_2 H 0.0664 0.3461 0.0985
C14_2 C 0.0696(6) 0.2338(3) 0.0994(4)
C15_2 C 0.1504(5) 0.1717(3) 0.1531(4)
H8_2 H 0.1183 0.1242 0.1259
C16_2 C 0.3046(5) 0.3901(3) 0.2723(3)
C17_2 C 0.7491(5) 0.4831(3) 0.6091(4)
C18 C 0.8822(5) 0.5031(3) 0.6389(4)
C23 C 0.8859(6) 0.5220(3) 0.5685(4)
H12 H 0.8054 0.5196 0.5021
O3_2 O 0.3519(4) 0.56383(19) 0.1382(3)
O4_2 O 0.3249(4) 0.61985(19) 0.2289(3)
O5_2 O 0.2690(4) 0.44367(19) 0.2151(2)
O6_2 O 0.3925(4) 0.39989(18) 0.3645(2)
O9_2 O 0.6368(4) 0.4941(2) 0.5219(3)
O10_2 O 0.7541(4) 0.4580(2) 0.6739(3)
O13_2 O 0.2577(4) 0.4188(2) 0.0618(3)
H13_2 H 0.257(7) 0.423(3) 0.108(3)
O14_2 O 0.3974(6) 0.3740(2) 0.0051(4)
H14_2 H 0.398(10) 0.328(2) 0.023(6)
O15_2 O 0.5016(4) 0.6427(2) 0.4530(3)
H16 H 0.523(7) 0.636(4) 0.508(3)
O16_2 O 0.6202(4) 0.6048(2) 0.3739(3)
H17_2 H 0.630(7) 0.594(4) 0.332(4)
H18_2 H 0.658(7) 0.6496(19) 0.397(4)
Eu3_2 Eu 0.54821(3) 0.470340(13) 0.642660(17)
O21_2 O 0.2459(4) 0.5420(2) 0.3261(3)
O23_2 O 0.6282(4) 0.4661(2) 0.1024(3)
H19_2 H 0.26619 0.365032 0.053653
H20_2 H 0.418126 0.674974 0.410564
H2_2 H 0.2442 0.6535 0.9915
C6_2 C 0.2674(6) 0.7650(3) 0.9903(4)
H3_2 H 0.2348 0.7669 0.9278
H15_2 H 0.428(7) 0.362(4) 0.977(5)
H9_3 H 0.0024 0.0071 0.2847
C19_3 C 0.0034(5) 0.9940(3) 0.2373(4)
C20_3 C 0.1268(5) 0.9718(3) 0.2661(4)
C21_3 C 0.1287(6) 0.9523(3) 0.1954(4)
H10_3 H 0.2107 0.9371 0.2142
C22_3 C 0.0079(6) 0.9559(4) 0.0970(4)
H11_3 H 0.0091 0.9431 0.0496
C24_3 C 0.2577(5) 0.9712(3) 0.3728(4)
O11_2 O 0.2476(4) 0.9767(2) 0.4344(3)
C17_3 C 0.7491(5) 0.0169(3) 0.1091(4)
O9_3 O 0.6368(4) 0.0059(2) 0.0219(3)
C9_3 C 0.3692(5) 0.3855(3) 0.8025(4)
C10_3 C 0.2789(5) 0.3195(3) 0.7471(4)
C11_3 C 0.3253(5) 0.2485(3) 0.7872(3)
H5_3 H 0.4092 0.2427 0.8519
C12_3 C 0.2472(5) 0.1859(3) 0.7315(3)
C13_3 C 0.1190(6) 0.1954(3) 0.6367(4)
H6_3 H 0.0664 0.1539 0.5985
C14_3 C 0.0696(6) 0.2662(3) 0.5994(4)
C15_3 C 0.1504(5) 0.3283(3) 0.6531(4)
H8_3 H 0.1183 0.3758 0.6259
C16_3 C 0.3046(5) 0.1099(3) 0.7723(3)
O5_3 O 0.2690(4) 0.05633(19) 0.7151(2)
O6_3 O 0.3925(4) 0.10011(18) 0.8645(2)
O7_2 O 0.4616(4) 0.38558(19) 0.8961(2)
O8_2 O 0.3562(4) 0.44057(18) 0.7545(2)
O13_3 O 0.2577(4) 0.0812(2) 0.5618(3)
H13_3 H 0.257(7) 0.077(3) 0.608(3)
O14_3 O 0.3974(6) 0.1260(2) 0.5051(4)
H14_3 H 0.398(10) 0.172(2) 0.523(6)
H15_3 H 0.428(7) 0.138(4) 0.477(5)
O17_2 O 0.5672(4) 0.04580(19) 0.8305(3)
O18_2 O 0.5570(4) 0.10455(19) 0.7216(3)
H19_3 H 0.26619 0.134968 0.553653
C1_3 C 0.4149(5) 0.6024(3) 0.6993(4)
C2_3 C 0.3568(5) 0.6721(3) 0.6376(4)
C3_3 C 0.3567(5) 0.7397(3) 0.6741(4)
H1_3 H 0.3839 0.7410 0.7349
C4_3 C 0.3164(5) 0.8051(3) 0.6206(3)
C5_3 C 0.2713(5) 0.8029(3) 0.5278(4)
H2_3 H 0.2442 0.8465 0.4915
C6_3 C 0.2674(6) 0.7350(3) 0.4903(4)
H3_3 H 0.2348 0.7331 0.4278
C7_3 C 0.3111(6) 0.6708(3) 0.5445(4)
H4_3 H 0.3103 0.6259 0.5192
C8_3 C 0.3309(5) 0.8794(3) 0.6648(3)
O1_2 O 0.4328(4) 0.54580(19) 0.6695(3)
O2_2 O 0.4430(4) 0.60455(19) 0.7784(3)
O3_3 O 0.3519(4) 0.93617(19) 0.6382(3)
O4_3 O 0.3249(4) 0.88015(19) 0.7289(3)
O15_3 O 0.5016(4) 0.8573(2) 0.9530(3)
O16_3 O 0.6202(4) 0.8952(2) 0.8739(3)
H17_3 H 0.630(7) 0.906(4) 0.832(4)
H18_3 H 0.658(7) 0.8504(19) 0.897(4)
O19_2 O 0.5384(4) 0.88558(19) 0.6039(2)
O20_2 O 0.6438(4) 0.94057(18) 0.7455(2)
H20_3 H 0.418126 0.825026 0.910564
H2_4 H 0.7558 0.3465 0.0085
C6_4 C 0.7326(6) 0.2350(3) 0.0097(4)
H3_4 H 0.7652 0.2331 0.0722
H15_4 H 0.572(7) 0.638(4) 0.023(5)
O22_2 O 0.7524(4) 0.4767(2) 0.0656(3)
C1_4 C 0.5851(5) 0.1024(3) 0.8007(4)
C2_4 C 0.6432(5) 0.1721(3) 0.8624(4)
C3_4 C 0.6433(5) 0.2397(3) 0.8259(4)
H1_4 H 0.6161 0.2410 0.7651
C4_4 C 0.6836(5) 0.3051(3) 0.8794(3)
C5_4 C 0.7287(5) 0.3029(3) 0.9722(4)
C7_4 C 0.6889(6) 0.1708(3) 0.9555(4)
H4_4 H 0.6897 0.1259 0.9808
C8_4 C 0.6691(5) 0.3794(3) 0.8352(3)
C9_4 C 0.6308(5) 0.8855(3) 0.6975(4)
C10_4 C 0.7211(5) 0.8195(3) 0.7529(4)
C11_4 C 0.6747(5) 0.7485(3) 0.7128(3)
H5_4 H 0.5908 0.7427 0.6481
C12_4 C 0.7528(5) 0.6859(3) 0.7685(3)
C13_4 C 0.8810(6) 0.6954(3) 0.8633(4)
H6_4 H 0.9336 0.6539 0.9015
C14_4 C 0.9304(6) 0.7662(3) 0.9006(4)
C15_4 C 0.8496(5) 0.8283(3) 0.8469(4)
H8_4 H 0.8817 0.8758 0.8741
C16_4 C 0.6954(5) 0.6099(3) 0.7277(3)
C17_4 C 0.2509(5) 0.5169(3) 0.3909(4)
C18_2 C 0.1178(5) 0.4969(3) 0.3611(4)
C23_2 C 0.1141(6) 0.4780(3) 0.4315(4)
H12_2 H 0.1946 0.4804 0.4979
O3_4 O 0.6481(4) 0.43617(19) 0.8618(3)
O4_4 O 0.6751(4) 0.38015(19) 0.7711(3)
O5_4 O 0.7310(4) 0.55633(19) 0.7849(2)
O6_4 O 0.6075(4) 0.60011(18) 0.6355(2)
O9_4 O 0.3632(4) 0.5059(2) 0.4781(3)
O13_4 O 0.7423(4) 0.5812(2) 0.9382(3)
H13_4 H 0.743(7) 0.577(3) 0.892(3)
O14_4 O 0.6026(6) 0.6260(2) 0.9949(4)
H14_4 H 0.602(10) 0.672(2) 0.977(6)
O15_4 O 0.4984(4) 0.3573(2) 0.5470(3)
H16_2 H 0.477(7) 0.364(4) 0.492(3)
O16_4 O 0.3798(4) 0.3952(2) 0.6261(3)
H17_4 H 0.370(7) 0.406(4) 0.668(4)
H18_4 H 0.342(7) 0.3504(19) 0.603(4)
H19_4 H 0.73381 0.634968 0.946347
H20_4 H 0.581874 0.325026 0.589436
C19_4 C 0.9966(5) 0.4940(3) 0.2627(4)
H9_4 H 0.9976 0.5071 0.2153
C20_4 C 0.8732(5) 0.4718(3) 0.2339(4)
C21_4 C 0.8713(6) 0.4523(3) 0.3046(4)
H10_4 H 0.7893 0.4371 0.2858
C22_4 C 0.9921(6) 0.4559(4) 0.4030(4)
H11_4 H 0.9909 0.4431 0.4504
C24_4 C 0.7423(5) 0.4712(3) 0.1272(4)
C18_3 C 0.1178(5) 0.0031(3) 0.8611(4)
C23_3 C 0.1141(6) 0.0220(3) 0.9315(4)
H12_3 H 0.1946 0.0196 0.9979
H16_3 H 0.477(7) 0.136(4) 0.992(3)
H7_2 H 0.9811 0.2277 0.0376
C18_4 C 0.8822(5) 0.9969(3) 0.1389(4)
C23_4 C 0.8859(6) 0.9780(3) 0.0685(4)
H12_4 H 0.8054 0.9804 0.0021
H16_4 H 0.523(7) 0.864(4) 0.008(3)
H7_3 H 0.9811 0.2723 0.5376
H7_4 H 0.0189 0.7723 0.9624
loop_
_geom_bond_atom_site_label_1
_geom_bond_atom_site_label_2
_geom_bond_site_symmetry_1
_geom_bond_site_symmetry_2
Eu1 O4 1_555 1_555
C1 C2 1_555 1_555
C2 C3 1_555 1_555
C3 H1 1_555 1_555
C4 C3 1_555 1_555
C5 C4 1_555 1_555
H2 C5 1_555 1_555
C6 C5 1_555 1_555
H3 C6 1_555 1_555
C7 C2 1_555 1_555
H4 C7 1_555 1_555
C8 C4 1_555 1_555
O1 C1 1_555 1_555
O2 C1 1_555 1_555
O3 C8 1_555 1_555
O4 C8 1_555 1_555
O15 Eu1 1_555 1_555
O16 Eu1 1_555 1_555
H17 O16 1_555 1_555
H18 O16 1_555 1_555
Eu4 O1 1_555 1_555
Eu8 O2 1_555 1_555
O21 Eu1 1_555 1_555
C6 C7 1_555 1_555
O15 H20 1_555 1_555
C9 C10 1_555 1_555
C10 C11 1_555 1_555
C11 H5 1_555 1_555
C12 C11 1_555 1_555
C13 C12 1_555 1_555
H6 C13 1_555 1_555
C14 C13 1_555 1_555
C15 C10 1_555 1_555
H8 C15 1_555 1_555
C16 C12 1_555 1_555
O7 C9 1_555 1_555
O8 C9 1_555 1_555
O13 Eu2 1_555 1_555
H13 O13 1_555 1_555
O14 Eu2 1_555 1_555
H14 O14 1_555 1_555
H15 O14 1_555 1_555
Eu8 O7 1_555 1_555
O18 Eu2 1_555 1_555
O23 Eu2 1_555 1_555
C14 C15 1_555 1_555
C16 O5 1_555 1_555
C16 O6 1_555 1_555
O8 Eu8 1_555 1_555
O13 H19 1_555 1_555
O10 C17 1_555 1_555
Eu3 O10 1_555 1_555
C17 O9 1_555 1_555
C20 C19 1_555 1_555
C21 C20 1_555 1_555
H10 C21 1_555 1_555
C22 C21 1_555 1_555
H11 C22 1_555 1_555
C24 C20 1_555 1_555
O22 C24 1_555 1_555
O12 C24 1_555 1_555
Eu7 O12 1_555 1_555
C19_2 H9_2 1_555 1_555
C20_2 C19_2 1_555 1_555
C21_2 C20_2 1_555 1_555
H10_2 C21_2 1_555 1_555
C22_2 C21_2 1_555 1_555
H11_2 C22_2 1_555 1_555
C24_2 C20_2 1_555 1_555
O11 C24_2 1_555 1_555
O12_2 C24_2 1_555 1_555
Eu7_2 O12_2 1_555 1_555
Eu4 O4_2 1_555 1_555
Eu8 O3_2 1_555 1_555
C1_2 C2_2 1_555 1_555
C2_2 C3_2 1_555 1_555
C3_2 H1_2 1_555 1_555
C4_2 C3_2 1_555 1_555
C5_2 C4_2 1_555 1_555
C7_2 C2_2 1_555 1_555
H4_2 C7_2 1_555 1_555
C8_2 C4_2 1_555 1_555
C9_2 C10_2 1_555 1_555
C10_2 C11_2 1_555 1_555
C11_2 H5_2 1_555 1_555
C12_2 C11_2 1_555 1_555
C13_2 C12_2 1_555 1_555
H6_2 C13_2 1_555 1_555
C14_2 C13_2 1_555 1_555
C15_2 C10_2 1_555 1_555
H8_2 C15_2 1_555 1_555
C16_2 C12_2 1_555 1_555
C17_2 C18 1_555 1_555
C23 C18 1_555 1_555
H12 C23 1_555 1_555
O17 C1_2 1_555 1_555
O18 C1_2 1_555 1_555
O3_2 C8_2 1_555 1_555
O4_2 C8_2 1_555 1_555
O5_2 Eu4 1_555 1_555
O6_2 Eu4 1_555 1_555
O19 C9_2 1_555 1_555
O20 C9_2 1_555 1_555
O9_2 Eu4 1_555 1_555
O10_2 C17_2 1_555 1_555
O13_2 Eu8 1_555 1_555
H13_2 O13_2 1_555 1_555
O14_2 Eu8 1_555 1_555
H14_2 O14_2 1_555 1_555
O15_2 Eu4 1_555 1_555
H16 O15_2 1_555 1_555
O16_2 Eu4 1_555 1_555
H17_2 O16_2 1_555 1_555
H18_2 O16_2 1_555 1_555
Eu3_2 O10_2 1_555 1_555
O21_2 Eu4 1_555 1_555
O23_2 Eu8 1_555 1_555
C14_2 C15_2 1_555 1_555
C16_2 O5_2 1_555 1_555
C16_2 O6_2 1_555 1_555
C17_2 O9_2 1_555 1_555
O13_2 H19_2 1_555 1_555
O15_2 H20_2 1_555 1_555
H3_2 C6_2 1_555 1_555
C20_3 C19_3 1_555 1_555
C21_3 C20_3 1_555 1_555
H10_3 C21_3 1_555 1_555
C22_3 C21_3 1_555 1_555
H11_3 C22_3 1_555 1_555
C24_3 C20_3 1_555 1_555
O11_2 C24_3 1_555 1_555
O23 C24_3 1_555 1_555
O21 C17_3 1_555 1_555
C17_3 O9_3 1_555 1_555
C9_3 C10_3 1_555 1_555
C10_3 C11_3 1_555 1_555
C11_3 H5_3 1_555 1_555
C12_3 C11_3 1_555 1_555
C13_3 C12_3 1_555 1_555
H6_3 C13_3 1_555 1_555
C14_3 C13_3 1_555 1_555
C15_3 C10_3 1_555 1_555
H8_3 C15_3 1_555 1_555
C16_3 C12_3 1_555 1_555
O7_2 C9_3 1_555 1_555
O8_2 C9_3 1_555 1_555
O13_3 Eu7 1_555 1_555
H13_3 O13_3 1_555 1_555
O14_3 Eu7 1_555 1_555
H14_3 O14_3 1_555 1_555
H15_3 O14_3 1_555 1_555
Eu7_2 O7_2 1_555 1_555
O18_2 Eu7 1_555 1_555
C14_3 C15_3 1_555 1_555
C16_3 O5_3 1_555 1_555
C16_3 O6_3 1_555 1_555
O8_2 Eu7_2 1_555 1_555
O13_3 H19_3 1_555 1_555
Eu3 O4_3 1_555 1_555
C1_3 C2_3 1_555 1_555
C2_3 C3_3 1_555 1_555
C3_3 H1_3 1_555 1_555
C4_3 C3_3 1_555 1_555
C5_3 C4_3 1_555 1_555
H2_3 C5_3 1_555 1_555
C6_3 C5_3 1_555 1_555
H3_3 C6_3 1_555 1_555
C7_3 C2_3 1_555 1_555
H4_3 C7_3 1_555 1_555
C8_3 C4_3 1_555 1_555
O1_2 C1_3 1_555 1_555
O2_2 C1_3 1_555 1_555
O3_3 C8_3 1_555 1_555
O4_3 C8_3 1_555 1_555
O15_3 Eu3 1_555 1_555
O16_3 Eu3 1_555 1_555
H17_3 O16_3 1_555 1_555
H18_3 O16_3 1_555 1_555
Eu3_2 O1_2 1_555 1_555
Eu7_2 O2_2 1_555 1_555
C6_3 C7_3 1_555 1_555
O15_3 H20_3 1_555 1_555
H3_4 C6_4 1_555 1_555
Eu3_2 O4_4 1_555 1_555
Eu7_2 O3_4 1_555 1_555
C1_4 C2_4 1_555 1_555
C2_4 C3_4 1_555 1_555
C3_4 H1_4 1_555 1_555
C4_4 C3_4 1_555 1_555
C5_4 C4_4 1_555 1_555
C7_4 C2_4 1_555 1_555
H4_4 C7_4 1_555 1_555
C8_4 C4_4 1_555 1_555
C9_4 C10_4 1_555 1_555
C10_4 C11_4 1_555 1_555
C11_4 H5_4 1_555 1_555
C12_4 C11_4 1_555 1_555
C13_4 C12_4 1_555 1_555
H6_4 C13_4 1_555 1_555
C14_4 C13_4 1_555 1_555
C15_4 C10_4 1_555 1_555
H8_4 C15_4 1_555 1_555
C16_4 C12_4 1_555 1_555
C17_4 C18_2 1_555 1_555
C23_2 C18_2 1_555 1_555
H12_2 C23_2 1_555 1_555
O17_2 C1_4 1_555 1_555
O18_2 C1_4 1_555 1_555
O3_4 C8_4 1_555 1_555
O4_4 C8_4 1_555 1_555
O5_4 Eu3_2 1_555 1_555
O6_4 Eu3_2 1_555 1_555
O19_2 C9_4 1_555 1_555
O20_2 C9_4 1_555 1_555
O9_4 Eu3_2 1_555 1_555
O21_2 C17_4 1_555 1_555
O13_4 Eu7_2 1_555 1_555
H13_4 O13_4 1_555 1_555
O14_4 Eu7_2 1_555 1_555
H14_4 O14_4 1_555 1_555
O15_4 Eu3_2 1_555 1_555
H16_2 O15_4 1_555 1_555
O16_4 Eu3_2 1_555 1_555
H17_4 O16_4 1_555 1_555
H18_4 O16_4 1_555 1_555
C14_4 C15_4 1_555 1_555
C16_4 O5_4 1_555 1_555
C16_4 O6_4 1_555 1_555
C17_4 O9_4 1_555 1_555
O13_4 H19_4 1_555 1_555
O15_4 H20_4 1_555 1_555
C19_4 H9_4 1_555 1_555
C20_4 C19_4 1_555 1_555
C21_4 C20_4 1_555 1_555
H10_4 C21_4 1_555 1_555
C22_4 C21_4 1_555 1_555
H11_4 C22_4 1_555 1_555
C24_4 C20_4 1_555 1_555
O22_2 C24_4 1_555 1_555
O23_2 C24_4 1_555 1_555
C23_3 C18_3 1_555 1_555
H12_3 C23_3 1_555 1_555
C23_4 C18_4 1_555 1_555
H12_4 C23_4 1_555 1_555

#END
