
###############################################################################
#
# This file contains modified crystal structure data generated from the
# MOF subset of the Cambridge Structural Database (CSD) v543 
# hosted by the Cambridge Crystallographic Data Centre (CCDC).
#
# This work is licensed under the Creative Commons
# Attribution-NonCommercial-ShareAlike 4.0 International License.
# To view a copy of this license, visit
# http://creativecommons.org/licenses/by-nc-sa/4.0/
# or send a letter to
# Creative Commons, PO Box 1866, Mountain View, CA 94042, USA.
#
# CIF created using the CSD Python API on 29 September 2022
# The structure has been converted into the P1 space group
# The structure has a 3D framework
# The original CSD entry LEQCOB is in the monoclinic crystal system
# The framework has been calculated to contain at least 10.0% void space
# The void calculation uses a probe of radius 1.32A, grid spacing 0.4
#
###############################################################################

data_LEQCOB
_chemical_formula_moiety         '(C72 H48 N16 O16 Zn4)n'
_symmetry_cell_setting           triclinic
_symmetry_space_group_name_H-M   'P 1'
_symmetry_Int_Tables_number      1
_space_group_name_Hall           'P 1'
loop_
_symmetry_equiv_pos_site_id
_symmetry_equiv_pos_as_xyz
1 x,y,z
_cell_length_a                   11.5888(5)
_cell_length_b                   15.4052(6)
_cell_length_c                   12.2398(5)
_cell_angle_alpha                90
_cell_angle_beta                 111.770(2)
_cell_angle_gamma                90
_cell_volume                     2029.3
loop_
_atom_site_label
_atom_site_type_symbol
_atom_site_fract_x
_atom_site_fract_y
_atom_site_fract_z
H3 H 0.0221 0.5084 0.1816
C6 C 0.1887(5) 0.4121(3) 0.5746(5)
C7 C 0.2704(8) 0.4768(5) 0.5918(5)
H5 H 0.2562 0.5207 0.5362
C8 C 0.3768(8) 0.4779(5) 0.6938(6)
H6 H 0.4316 0.5242 0.7057
C9 C 0.3194(6) 0.3552(5) 0.7581(7)
H7 H 0.3329 0.3133 0.8163
C12 C 0.2115(7) 0.3502(5) 0.6583(7)
H8 H 0.1557 0.3049 0.6492
N2 N 0.0786(4) 0.4403(3) 0.3828(4)
N3 N 0.0752(4) 0.4046(3) 0.4743(4)
N4 N 0.4035(3) 0.4165(2) 0.7741(3)
Zn2 Zn 0.57755(4) 0.41396(3) 0.92847(4)
C10 C 0.7040(7) 0.3507(5) 0.8064(5)
C11 C 0.7625(4) 0.2906(4) 0.7420(4)
C13 C 0.7517(4) 0.2008(4) 0.7494(4)
H9 H 0.7080 0.1771 0.7925
C14 C 0.8077(4) 0.1469(3) 0.6909(4)
H10 H 0.8021 0.0869 0.6954
C15 C 0.8242(5) 0.3270(3) 0.6753(5)
H11 H 0.8289 0.3869 0.6693
C16 C 0.8789(4) 0.2728(3) 0.6174(4)
H12 H 0.9207 0.2963 0.5726
C17 C 0.8708(4) 0.1833(3) 0.6269(3)
C18 C 0.9341(3) 0.1241(3) 0.5680(3)
O1 O 0.6393(4) 0.3173(3) 0.8550(4)
O2 O 0.7167(5) 0.4258(3) 0.8078(4)
O3 O 0.9962(4) 0.1599(3) 0.5141(4)
O4 O 0.9249(4) 0.0460(4) 0.5763(4)
O6 O 0.5751(4) 0.5460(4) 0.9237(4)
Zn4 Zn 0.92245(4) 0.91396(3) 0.57153(4)
H3_2 H 0.4779 0.0084 0.3184
H4 H 0.6612 0.0019 0.4805
C1 C 0.7400(5) 0.8798(5) 0.3189(6)
H1 H 0.8067 0.8461 0.3191
C2 C 0.6329(6) 0.8821(5) 0.2166(6)
H2 H 0.6281 0.8503 0.1504
C3 C 0.5445(6) 0.9758(4) 0.3160(5)
C4 C 0.6540(6) 0.9708(4) 0.4132(5)
C5 C 0.5362(5) 0.9319(3) 0.2163(4)
C10_2 C 0.7960(7) 0.8507(5) 0.6936(5)
C11_2 C 0.7375(4) 0.7906(4) 0.7580(4)
C13_2 C 0.7483(4) 0.7008(4) 0.7506(4)
H9_2 H 0.7920 0.6771 0.7075
C14_2 C 0.6923(4) 0.6469(3) 0.8091(4)
H10_2 H 0.6979 0.5869 0.8046
C15_2 C 0.6758(5) 0.8270(3) 0.8247(5)
H11_2 H 0.6711 0.8869 0.8307
C16_2 C 0.6211(4) 0.7728(3) 0.8826(4)
H12_2 H 0.5793 0.7963 0.9274
C17_2 C 0.6292(4) 0.6833(3) 0.8731(3)
C18_2 C 0.5659(3) 0.6241(3) 0.9320(3)
N1 N 0.7506(3) 0.9223(2) 0.4130(4)
N2_2 N 0.4214(4) 0.9403(3) 0.1172(4)
N3_2 N 0.4248(4) 0.9046(3) 0.0257(4)
O1_2 O 0.8607(4) 0.8173(3) 0.6450(4)
O2_2 O 0.7833(5) 0.9258(3) 0.6922(4)
O3_2 O 0.5038(4) 0.6599(3) 0.9859(4)
C1_2 C 0.2400(5) 0.6202(5) 0.8189(6)
H1_2 H 0.3067 0.6539 0.8191
C2_2 C 0.1329(6) 0.6179(5) 0.7166(6)
H2_2 H 0.1281 0.6497 0.6504
C3_2 C 0.0445(6) 0.5242(4) 0.8160(5)
C4_2 C 0.1540(6) 0.5292(4) 0.9132(5)
H4_2 H 0.1612 0.4981 0.9805
C5_2 C 0.0362(5) 0.5681(3) 0.7163(4)
N1_2 N 0.2506(3) 0.5777(2) 0.9130(4)
C6_2 C 0.6887(5) 0.0879(3) 0.0746(5)
C7_2 C 0.7704(8) 0.0232(5) 0.0918(5)
C8_2 C 0.8768(8) 0.0221(5) 0.1938(6)
C9_2 C 0.8194(6) 0.1448(5) 0.2581(7)
H7_2 H 0.8329 0.1867 0.3163
C12_2 C 0.7115(7) 0.1498(5) 0.1583(7)
H8_2 H 0.6557 0.1951 0.1492
N4_2 N 0.9035(3) 0.0835(2) 0.2741(3)
Zn3 Zn 0.07755(4) 0.08604(3) 0.42847(4)
C1_3 C 0.7600(5) 0.3798(5) 0.1811(6)
H1_3 H 0.6933 0.3461 0.1809
C2_3 C 0.8671(6) 0.3821(5) 0.2834(6)
H2_3 H 0.8719 0.3503 0.3496
C3_3 C 0.9555(6) 0.4758(4) 0.1840(5)
C4_3 C 0.8460(6) 0.4708(4) 0.0868(5)
H4_3 H 0.8388 0.5019 0.0195
C5_3 C 0.9638(5) 0.4319(3) 0.2837(4)
N1_3 N 0.7494(3) 0.4223(2) 0.0870(4)
O5 O 0.4962(4) 0.3401(3) 0.0141(4)
N5 N 0.0965(3) 0.9165(2) 0.7259(3)
O5_2 O 0.0038(4) 0.8401(3) 0.4859(4)
Zn3_2 Zn 0.42245(4) 0.58604(3) 0.07153(4)
C6_3 C 0.3113(5) 0.9121(3) 0.9254(5)
C7_3 C 0.2296(8) 0.9768(5) 0.9082(5)
C8_3 C 0.1232(8) 0.9779(5) 0.8062(6)
C9_3 C 0.1806(6) 0.8552(5) 0.7419(7)
H7_3 H 0.1671 0.8133 0.6837
C12_3 C 0.2885(7) 0.8502(5) 0.8417(7)
H8_3 H 0.3443 0.8049 0.8508
C10_3 C 0.2960(7) 0.6493(5) 0.1936(5)
C11_3 C 0.2375(4) 0.7094(4) 0.2580(4)
C13_3 C 0.2483(4) 0.7992(4) 0.2506(4)
H9_3 H 0.2920 0.8229 0.2075
C14_3 C 0.1923(4) 0.8531(3) 0.3091(4)
H10_3 H 0.1979 0.9131 0.3046
C15_3 C 0.1758(5) 0.6730(3) 0.3247(5)
H11_3 H 0.1711 0.6131 0.3307
C16_3 C 0.1211(4) 0.7272(3) 0.3826(4)
H12_3 H 0.0793 0.7037 0.4274
C17_3 C 0.1292(4) 0.8167(3) 0.3731(3)
C18_3 C 0.0659(3) 0.8759(3) 0.4320(3)
O1_3 O 0.3607(4) 0.6827(3) 0.1450(4)
O2_3 O 0.2833(5) 0.5742(3) 0.1922(4)
O4_2 O 0.0751(4) 0.9540(4) 0.4237(4)
N5_2 N 0.5965(3) 0.5835(2) 0.2259(3)
O6_2 O 0.4249(4) 0.4540(4) 0.0763(4)
H3_3 H 0.9779 0.4916 0.8184
C6_4 C 0.8113(5) 0.5879(3) 0.4254(5)
C7_4 C 0.7296(8) 0.5232(5) 0.4082(5)
H5_2 H 0.7438 0.4793 0.4638
C8_4 C 0.6232(8) 0.5221(5) 0.3062(6)
H6_2 H 0.5684 0.4758 0.2943
C9_4 C 0.6806(6) 0.6448(5) 0.2419(7)
H7_4 H 0.6671 0.6867 0.1837
C12_4 C 0.7885(7) 0.6498(5) 0.3417(7)
H8_4 H 0.8443 0.6951 0.3508
N2_3 N 0.9214(4) 0.5597(3) 0.6172(4)
N3_3 N 0.9248(4) 0.5954(3) 0.5257(4)
C1_4 C 0.2600(5) 0.1202(5) 0.6811(6)
H1_4 H 0.1933 0.1539 0.6809
C2_4 C 0.3671(6) 0.1179(5) 0.7834(6)
H2_4 H 0.3719 0.1497 0.8496
C3_4 C 0.4555(6) 0.0242(4) 0.6840(5)
C4_4 C 0.3460(6) 0.0292(4) 0.5868(5)
C5_4 C 0.4638(5) 0.0681(3) 0.7837(4)
C10_4 C 0.2040(7) 0.1493(5) 0.3064(5)
C11_4 C 0.2625(4) 0.2094(4) 0.2420(4)
C13_4 C 0.2517(4) 0.2992(4) 0.2494(4)
H9_4 H 0.2080 0.3229 0.2925
C14_4 C 0.3077(4) 0.3531(3) 0.1909(4)
H10_4 H 0.3021 0.4131 0.1954
C15_4 C 0.3242(5) 0.1730(3) 0.1753(5)
H11_4 H 0.3289 0.1131 0.1693
C16_4 C 0.3789(4) 0.2272(3) 0.1174(4)
H12_4 H 0.4207 0.2037 0.0726
C17_4 C 0.3708(4) 0.3167(3) 0.1269(3)
C18_4 C 0.4341(3) 0.3759(3) 0.0680(3)
N1_4 N 0.2494(3) 0.0777(2) 0.5870(4)
N2_4 N 0.5786(4) 0.0597(3) 0.8828(4)
N3_4 N 0.5752(4) 0.0954(3) 0.9743(4)
O1_4 O 0.1393(4) 0.1827(3) 0.3550(4)
O2_4 O 0.2167(5) 0.0742(3) 0.3078(4)
H3_4 H 0.5221 0.9916 0.6816
H4_4 H 0.3388 0.9981 0.5195
H5_3 H 0.2438 0.0207 0.9638
H6_3 H 0.0684 0.0242 0.7943
H5_4 H 0.7562 0.9793 0.0362
H6_4 H 0.9316 0.9758 0.2057
loop_
_geom_bond_atom_site_label_1
_geom_bond_atom_site_label_2
_geom_bond_site_symmetry_1
_geom_bond_site_symmetry_2
C6 C7 1_555 1_555
C7 H5 1_555 1_555
C8 C7 1_555 1_555
H6 C8 1_555 1_555
C9 H7 1_555 1_555
C12 C6 1_555 1_555
H8 C12 1_555 1_555
N3 C6 1_555 1_555
N4 C8 1_555 1_555
Zn2 N4 1_555 1_555
C9 C12 1_555 1_555
C9 N4 1_555 1_555
N2 N3 1_555 1_555
C10 C11 1_555 1_555
C11 C13 1_555 1_555
C13 H9 1_555 1_555
C14 C13 1_555 1_555
H10 C14 1_555 1_555
C15 C11 1_555 1_555
H11 C15 1_555 1_555
C16 C15 1_555 1_555
H12 C16 1_555 1_555
C17 C14 1_555 1_555
C18 C17 1_555 1_555
O1 C10 1_555 1_555
O2 C10 1_555 1_555
O3 C18 1_555 1_555
O4 C18 1_555 1_555
O6 Zn2 1_555 1_555
C16 C17 1_555 1_555
O1 Zn2 1_555 1_555
O2 Zn2 1_555 1_555
C1 H1 1_555 1_555
C2 C1 1_555 1_555
H2 C2 1_555 1_555
C4 C3 1_555 1_555
C5 C2 1_555 1_555
C10_2 C11_2 1_555 1_555
C11_2 C13_2 1_555 1_555
C13_2 H9_2 1_555 1_555
C14_2 C13_2 1_555 1_555
H10_2 C14_2 1_555 1_555
C15_2 C11_2 1_555 1_555
H11_2 C15_2 1_555 1_555
C16_2 C15_2 1_555 1_555
H12_2 C16_2 1_555 1_555
C17_2 C14_2 1_555 1_555
C18_2 C17_2 1_555 1_555
N1 C1 1_555 1_555
N2_2 C5 1_555 1_555
O1_2 C10_2 1_555 1_555
O2_2 C10_2 1_555 1_555
O3_2 C18_2 1_555 1_555
O6 C18_2 1_555 1_555
Zn4 N1 1_555 1_555
C3 C5 1_555 1_555
C4 N1 1_555 1_555
C16_2 C17_2 1_555 1_555
N2_2 N3_2 1_555 1_555
O1_2 Zn4 1_555 1_555
O2_2 Zn4 1_555 1_555
C1_2 H1_2 1_555 1_555
C2_2 C1_2 1_555 1_555
H2_2 C2_2 1_555 1_555
C4_2 C3_2 1_555 1_555
H4_2 C4_2 1_555 1_555
C5_2 C2_2 1_555 1_555
N1_2 C1_2 1_555 1_555
C3_2 C5_2 1_555 1_555
C4_2 N1_2 1_555 1_555
C6_2 C7_2 1_555 1_555
C8_2 C7_2 1_555 1_555
C9_2 H7_2 1_555 1_555
C12_2 C6_2 1_555 1_555
H8_2 C12_2 1_555 1_555
N4_2 C8_2 1_555 1_555
C9_2 C12_2 1_555 1_555
C9_2 N4_2 1_555 1_555
C1_3 H1_3 1_555 1_555
C2_3 C1_3 1_555 1_555
H2_3 C2_3 1_555 1_555
C4_3 C3_3 1_555 1_555
H4_3 C4_3 1_555 1_555
C5_3 C2_3 1_555 1_555
N1_3 C1_3 1_555 1_555
C3_3 C5_3 1_555 1_555
C4_3 N1_3 1_555 1_555
C6_3 C7_3 1_555 1_555
C8_3 C7_3 1_555 1_555
C9_3 H7_3 1_555 1_555
C12_3 C6_3 1_555 1_555
H8_3 C12_3 1_555 1_555
N5 C8_3 1_555 1_555
C9_3 C12_3 1_555 1_555
C9_3 N5 1_555 1_555
C10_3 C11_3 1_555 1_555
C11_3 C13_3 1_555 1_555
C13_3 H9_3 1_555 1_555
C14_3 C13_3 1_555 1_555
H10_3 C14_3 1_555 1_555
C15_3 C11_3 1_555 1_555
H11_3 C15_3 1_555 1_555
C16_3 C15_3 1_555 1_555
H12_3 C16_3 1_555 1_555
C17_3 C14_3 1_555 1_555
C18_3 C17_3 1_555 1_555
O1_3 C10_3 1_555 1_555
O2_3 C10_3 1_555 1_555
O5_2 C18_3 1_555 1_555
O4_2 C18_3 1_555 1_555
N5_2 Zn3_2 1_555 1_555
O6_2 Zn3_2 1_555 1_555
C16_3 C17_3 1_555 1_555
O1_3 Zn3_2 1_555 1_555
O2_3 Zn3_2 1_555 1_555
C6_4 C7_4 1_555 1_555
C7_4 H5_2 1_555 1_555
C8_4 C7_4 1_555 1_555
H6_2 C8_4 1_555 1_555
C9_4 H7_4 1_555 1_555
C12_4 C6_4 1_555 1_555
H8_4 C12_4 1_555 1_555
N3_3 C6_4 1_555 1_555
N5_2 C8_4 1_555 1_555
C9_4 C12_4 1_555 1_555
C9_4 N5_2 1_555 1_555
N2_3 N3_3 1_555 1_555
C1_4 H1_4 1_555 1_555
C2_4 C1_4 1_555 1_555
H2_4 C2_4 1_555 1_555
C4_4 C3_4 1_555 1_555
C5_4 C2_4 1_555 1_555
C10_4 C11_4 1_555 1_555
C11_4 C13_4 1_555 1_555
C13_4 H9_4 1_555 1_555
C14_4 C13_4 1_555 1_555
H10_4 C14_4 1_555 1_555
C15_4 C11_4 1_555 1_555
H11_4 C15_4 1_555 1_555
C16_4 C15_4 1_555 1_555
H12_4 C16_4 1_555 1_555
C17_4 C14_4 1_555 1_555
C18_4 C17_4 1_555 1_555
N1_4 C1_4 1_555 1_555
N2_4 C5_4 1_555 1_555
O1_4 C10_4 1_555 1_555
O2_4 C10_4 1_555 1_555
O5 C18_4 1_555 1_555
O6_2 C18_4 1_555 1_555
Zn3 N1_4 1_555 1_555
C3_4 C5_4 1_555 1_555
C4_4 N1_4 1_555 1_555
C16_4 C17_4 1_555 1_555
N2_4 N3_4 1_555 1_555
O1_4 Zn3 1_555 1_555
O2_4 Zn3 1_555 1_555

#END
