
###############################################################################
#
# This file contains modified crystal structure data generated from the
# MOF subset of the Cambridge Structural Database (CSD) v543 
# hosted by the Cambridge Crystallographic Data Centre (CCDC).
#
# This work is licensed under the Creative Commons
# Attribution-NonCommercial-ShareAlike 4.0 International License.
# To view a copy of this license, visit
# http://creativecommons.org/licenses/by-nc-sa/4.0/
# or send a letter to
# Creative Commons, PO Box 1866, Mountain View, CA 94042, USA.
#
# CIF created using the CSD Python API on 29 September 2022
# The structure has been converted into the P1 space group
# The structure has a 3D framework
# The original CSD entry LEQVAF is in the triclinic crystal system
# The framework has been calculated to contain at least 10.0% void space
# The void calculation uses a probe of radius 1.32A, grid spacing 0.4
#
###############################################################################

data_LEQVAF
_chemical_formula_moiety         '(C40 H28 Co1 N4 O6)n'
_symmetry_cell_setting           triclinic
_symmetry_space_group_name_H-M   'P 1'
_symmetry_Int_Tables_number      1
_space_group_name_Hall           'P 1'
loop_
_symmetry_equiv_pos_site_id
_symmetry_equiv_pos_as_xyz
1 x,y,z
_cell_length_a                   9.3725(12)
_cell_length_b                   9.8814(12)
_cell_length_c                   12.1524(15)
_cell_angle_alpha                96.188(2)
_cell_angle_beta                 102.547(2)
_cell_angle_gamma                115.685(2)
_cell_volume                     963.602
loop_
_atom_site_label
_atom_site_type_symbol
_atom_site_fract_x
_atom_site_fract_y
_atom_site_fract_z
_atom_site_U_iso_or_equiv
_atom_site_thermal_displace_type
Co2 Co 0.48169(4) 0.12433(4) 0.13877(3) 0.0223 Uani
O8 O 0.6752(2) 0.1900(2) 0.07529(16) 0.0330 Uani
O10 O 0.5793(3) 0.3568(2) 0.24133(17) 0.0386 Uani
O12 O 0.3476(3) 0.1737(2) 0.25378(17) 0.0403 Uani
N6 N 0.6292(3) 0.0911(3) 0.28649(19) 0.0324 Uani
Co5 Co 0.51831(4) 0.87567(4) 0.86123(3) 0.0223 Uani
O6 O 0.3248(2) 0.8100(2) 0.92471(16) 0.0330 Uani
C40 C 0.0779(4) 0.5173(3) 0.9143(3) 0.0380 Uani
H28 H 0.1305 0.5288 0.8566 0.0460 Uiso
N2 N 0.3708(3) 0.9089(3) 0.71351(19) 0.0324 Uani
C7 C 0.2145(4) 0.8032(4) 0.6627(3) 0.0519 Uani
H6 H 0.1659 0.7253 0.6999 0.0620 Uiso
C10 C 0.1199(4) 0.8019(4) 0.5584(3) 0.0572 Uani
H9 H 0.0108 0.7247 0.5274 0.0690 Uiso
C16 C 0.1860(4) 0.9146(4) 0.4994(3) 0.0396 Uani
C19 C 0.0959(4) 0.9194(4) 0.3869(3) 0.0449 Uani
H5 H 0.8737 0.0205 0.0170 0.0420 Uiso
C20 C 0.9221(4) 0.4827(3) 0.0857(3) 0.0380 Uani
H14 H 0.8695 0.4712 0.1434 0.0460 Uiso
O3 O 0.4207(3) 0.6432(2) 0.75867(17) 0.0386 Uani
O4 O 0.6524(3) 0.8263(2) 0.74622(17) 0.0403 Uani
C1 C 0.5175(4) 0.5912(3) 0.6022(3) 0.0353 Uani
C8 C 0.3632(4) 0.4848(4) 0.5314(3) 0.0526 Uani
H7 H 0.2694 0.4740 0.5519 0.0630 Uiso
C13 C 0.6538(4) 0.6064(4) 0.5701(3) 0.0549 Uani
H11 H 0.7590 0.6787 0.6171 0.0660 Uiso
C18 C 0.5330(4) 0.6923(3) 0.7103(2) 0.0336 Uani
C21 C 0.4825(4) 0.4088(3) 0.3978(3) 0.0353 Uani
C28 C 0.6368(4) 0.5152(4) 0.4686(3) 0.0526 Uani
H21 H 0.7306 0.5260 0.4481 0.0630 Uiso
C33 C 0.3462(4) 0.3936(4) 0.4299(3) 0.0549 Uani
H25 H 0.2410 0.3213 0.3829 0.0660 Uiso
C38 C 0.4670(4) 0.3077(3) 0.2897(2) 0.0336 Uani
H19 H 0.1263 0.9795 0.9830 0.0420 Uiso
C27 C 0.7855(4) 0.1968(4) 0.3373(3) 0.0519 Uani
H20 H 0.8341 0.2747 0.3001 0.0620 Uiso
C30 C 0.8801(4) 0.1981(4) 0.4416(3) 0.0572 Uani
H23 H 0.9892 0.2753 0.4726 0.0690 Uiso
C36 C 0.8140(4) 0.0854(4) 0.5006(3) 0.0396 Uani
C39 C 0.9041(4) 0.0806(4) 0.6131(3) 0.0449 Uani
N4 N 0.3351(3) 0.1580(3) 0.99323(19) 0.0310 Uani
C23 C 0.0576(4) 0.1796(4) 0.6734(3) 0.0473 Uani
H16 H 0.1137 0.2617 0.6420 0.0570 Uiso
C25 C 0.0791(4) 0.0583(4) 0.8429(3) 0.0378 Uani
C26 C 0.1754(4) 0.0564(3) 0.9451(2) 0.0349 Uani
C31 C 0.3129(4) 0.2831(4) 0.8380(3) 0.0445 Uani
H24 H 0.3639 0.3646 0.8044 0.0530 Uiso
C34 C 0.3996(4) 0.2713(3) 0.9396(3) 0.0405 Uani
H26 H 0.5094 0.3463 0.9731 0.0490 Uiso
C37 C 0.1482(4) 0.1728(4) 0.7848(3) 0.0387 Uani
C2 C 0.4339(4) 0.0197(4) 0.6584(3) 0.0478 Uani
H1 H 0.5426 0.0967 0.6922 0.0570 Uiso
H4 H 0.0314 0.0164 0.1872 0.0450 Uiso
C9 C 0.3470(4) 0.0266(4) 0.5539(3) 0.0522 Uani
H8 H 0.3974 0.1077 0.5198 0.0630 Uiso
H13 H 0.1526 0.0003 0.3546 0.0540 Uiso
O5 O 0.3272(2) 0.8966(2) 0.10235(16) 0.0334 Uani
C24 C 0.0534(4) 0.6230(3) 0.0914(3) 0.0379 Uani
H17 H 0.0896 0.7058 0.1533 0.0460 Uiso
C32 C 0.2737(3) 0.7941(3) 0.0112(2) 0.0261 Uani
C35 C 0.1313(3) 0.6411(3) 0.0058(2) 0.0274 Uani
O1 O 0.6728(2) 0.1034(2) 0.89765(16) 0.0334 Uani
C4 C 0.9466(4) 0.3770(3) 0.9086(3) 0.0379 Uani
H3 H 0.9104 0.2942 0.8467 0.0460 Uiso
C12 C 0.7263(3) 0.2059(3) 0.9888(2) 0.0261 Uani
C15 C 0.8687(3) 0.3589(3) 0.9942(2) 0.0274 Uani
C22 C 0.5661(4) 0.9803(4) 0.3416(3) 0.0478 Uani
H15 H 0.4574 0.9033 0.3078 0.0570 Uiso
H18 H 0.9686 0.9836 0.8128 0.0450 Uiso
C29 C 0.6530(4) 0.9734(4) 0.4461(3) 0.0522 Uani
H22 H 0.6026 0.8923 0.4802 0.0630 Uiso
H27 H 0.8474 0.9997 0.6454 0.0540 Uiso
N1 N 0.6649(3) 0.8420(3) 0.00677(19) 0.0310 Uani
C3 C 0.9424(4) 0.8204(4) 0.3266(3) 0.0473 Uani
H2 H 0.8863 0.7383 0.3580 0.0570 Uiso
C5 C 0.9209(4) 0.9417(4) 0.1571(3) 0.0378 Uani
C6 C 0.8246(4) 0.9436(3) 0.0549(2) 0.0349 Uani
C11 C 0.6871(4) 0.7169(4) 0.1620(3) 0.0445 Uani
H10 H 0.6361 0.6354 0.1956 0.0530 Uiso
C14 C 0.6004(4) 0.7287(3) 0.0604(3) 0.0405 Uani
H12 H 0.4906 0.6537 0.0269 0.0490 Uiso
C17 C 0.8518(4) 0.8272(4) 0.2152(3) 0.0387 Uani
loop_
_atom_site_aniso_label
_atom_site_aniso_U_11
_atom_site_aniso_U_22
_atom_site_aniso_U_33
_atom_site_aniso_U_23
_atom_site_aniso_U_13
_atom_site_aniso_U_12
Co2 0.0218 0.0207 0.0162 0.00189 0.00168 0.00525
O8 0.0282 0.0345 0.031 0.0091 0.0137 0.0075
O10 0.0462 0.032 0.0316 0.0012 0.0158 0.0125
O12 0.039 0.0338 0.0328 -0.0059 0.0099 0.0071
N6 0.0299 0.0352 0.0238 0.0079 0.0019 0.0105
Co5 0.0218 0.0207 0.0162 0.00189 0.00168 0.00525
O6 0.0282 0.0345 0.031 0.0091 0.0137 0.0075
C40 0.0415 0.0316 0.0319 0.0018 0.0225 0.0052
N2 0.0299 0.0352 0.0238 0.0079 0.0019 0.0105
C7 0.037 0.056 0.0404 0.0264 -0.001 0.0048
C10 0.0289 0.07 0.044 0.0275 -0.0059 0.0026
C16 0.0345 0.0501 0.0303 0.0129 0.0022 0.019
C19 0.0419 0.054 0.0327 0.0193 0.0029 0.019
C20 0.0415 0.0316 0.0319 0.0018 0.0225 0.0052
O3 0.0462 0.032 0.0316 0.0012 0.0158 0.0125
O4 0.039 0.0338 0.0328 -0.0059 0.0099 0.0071
C1 0.0374 0.031 0.0307 0.0009 0.0116 0.0109
C8 0.0349 0.056 0.049 -0.0153 0.0183 0.0092
C13 0.0339 0.052 0.047 -0.0235 0.0066 0.0029
C18 0.0376 0.0337 0.0255 0.0028 0.0052 0.0161
C21 0.0374 0.031 0.0307 0.0009 0.0116 0.0109
C28 0.0349 0.056 0.049 -0.0153 0.0183 0.0092
C33 0.0339 0.052 0.047 -0.0235 0.0066 0.0029
C38 0.0376 0.0337 0.0255 0.0028 0.0052 0.0161
C27 0.037 0.056 0.0404 0.0264 -0.001 0.0048
C30 0.0289 0.07 0.044 0.0275 -0.0059 0.0026
C36 0.0345 0.0501 0.0303 0.0129 0.0022 0.019
C39 0.0419 0.054 0.0327 0.0193 0.0029 0.019
N4 0.029 0.0336 0.0245 0.0059 0.0018 0.0126
C23 0.0388 0.062 0.0355 0.0239 0.0027 0.0197
C25 0.0258 0.0452 0.0334 0.0127 0.0008 0.0116
C26 0.0295 0.0428 0.0312 0.0157 0.0074 0.015
C31 0.0374 0.0438 0.0432 0.0232 0.0019 0.0127
C34 0.032 0.0335 0.0405 0.0101 -0.0037 0.0081
C37 0.035 0.0479 0.0314 0.0138 0.004 0.0196
C2 0.0368 0.0443 0.0372 0.0152 -0.0054 0.0035
C9 0.047 0.052 0.0372 0.0257 -0.0001 0.0078
O5 0.0365 0.0214 0.0238 0.0027 0.0015 0.0016
C24 0.0438 0.0248 0.03 -0.0068 0.0151 0.0039
C32 0.0229 0.0274 0.0249 0.0064 0.0029 0.011
C35 0.0264 0.0235 0.0256 0.0024 0.0077 0.0065
O1 0.0365 0.0214 0.0238 0.0027 0.0015 0.0016
C4 0.0438 0.0248 0.03 -0.0068 0.0151 0.0039
C12 0.0229 0.0274 0.0249 0.0064 0.0029 0.011
C15 0.0264 0.0235 0.0256 0.0024 0.0077 0.0065
C22 0.0368 0.0443 0.0372 0.0152 -0.0054 0.0035
C29 0.047 0.052 0.0372 0.0257 -0.0001 0.0078
N1 0.029 0.0336 0.0245 0.0059 0.0018 0.0126
C3 0.0388 0.062 0.0355 0.0239 0.0027 0.0197
C5 0.0258 0.0452 0.0334 0.0127 0.0008 0.0116
C6 0.0295 0.0428 0.0312 0.0157 0.0074 0.015
C11 0.0374 0.0438 0.0432 0.0232 0.0019 0.0127
C14 0.032 0.0335 0.0405 0.0101 -0.0037 0.0081
C17 0.035 0.0479 0.0314 0.0138 0.004 0.0196
loop_
_geom_bond_atom_site_label_1
_geom_bond_atom_site_label_2
_geom_bond_site_symmetry_1
_geom_bond_site_symmetry_2
O8 Co2 1_555 1_555
O10 Co2 1_555 1_555
O12 Co2 1_555 1_555
N6 Co2 1_555 1_555
Co5 O6 1_555 1_555
H28 C40 1_555 1_555
C7 N2 1_555 1_555
H6 C7 1_555 1_555
C10 C7 1_555 1_555
H9 C10 1_555 1_555
Co5 N2 1_555 1_555
C10 C16 1_555 1_555
C16 C19 1_555 1_555
H14 C20 1_555 1_555
O3 Co5 1_555 1_555
O4 Co5 1_555 1_555
C1 C8 1_555 1_555
C8 H7 1_555 1_555
C13 C1 1_555 1_555
H11 C13 1_555 1_555
C18 O3 1_555 1_555
O10 C38 1_555 1_555
C21 C28 1_555 1_555
C28 C13 1_555 1_555
H21 C28 1_555 1_555
C33 C8 1_555 1_555
H25 C33 1_555 1_555
C38 O12 1_555 1_555
O4 C18 1_555 1_555
C1 C18 1_555 1_555
C21 C33 1_555 1_555
C21 C38 1_555 1_555
C27 N6 1_555 1_555
H20 C27 1_555 1_555
C30 C27 1_555 1_555
H23 C30 1_555 1_555
C30 C36 1_555 1_555
C36 C39 1_555 1_555
N4 C26 1_555 1_555
C23 H16 1_555 1_555
C26 C25 1_555 1_555
C31 H24 1_555 1_555
C34 N4 1_555 1_555
H26 C34 1_555 1_555
C37 C23 1_555 1_555
C25 C37 1_555 1_555
C31 C34 1_555 1_555
C31 C37 1_555 1_555
C2 H1 1_555 1_555
C9 C2 1_555 1_555
H8 C9 1_555 1_555
O5 C32 1_555 1_555
H17 C24 1_555 1_555
C32 C35 1_555 1_555
C35 C24 1_555 1_555
O1 C12 1_555 1_555
C4 H3 1_555 1_555
C12 C15 1_555 1_555
C15 C4 1_555 1_555
H15 C22 1_555 1_555
C29 C22 1_555 1_555
H22 C29 1_555 1_555
C3 H2 1_555 1_555
C6 N1 1_555 1_555
C11 H10 1_555 1_555
C14 N1 1_555 1_555
H12 C14 1_555 1_555
C17 C3 1_555 1_555
C5 C6 1_555 1_555
C5 C17 1_555 1_555
C11 C14 1_555 1_555
C11 C17 1_555 1_555

#END
