
###############################################################################
#
# This file contains modified crystal structure data generated from the
# MOF subset of the Cambridge Structural Database (CSD) v543 
# hosted by the Cambridge Crystallographic Data Centre (CCDC).
#
# This work is licensed under the Creative Commons
# Attribution-NonCommercial-ShareAlike 4.0 International License.
# To view a copy of this license, visit
# http://creativecommons.org/licenses/by-nc-sa/4.0/
# or send a letter to
# Creative Commons, PO Box 1866, Mountain View, CA 94042, USA.
#
# CIF created using the CSD Python API on 29 September 2022
# The structure has been converted into the P1 space group
# The structure has a 3D framework
# The original CSD entry LESBET is in the monoclinic crystal system
# The framework has been calculated to contain at least 10.0% void space
# The void calculation uses a probe of radius 1.32A, grid spacing 0.4
#
###############################################################################

data_LESBET
_chemical_formula_moiety         '(C48 H32 Eu4 N8 O26)n'
_symmetry_cell_setting           triclinic
_symmetry_space_group_name_H-M   'P 1'
_symmetry_Int_Tables_number      1
_space_group_name_Hall           'P 1'
loop_
_symmetry_equiv_pos_site_id
_symmetry_equiv_pos_as_xyz
1 x,y,z
_cell_length_a                   9.1641(11)
_cell_length_b                   13.8913(17)
_cell_length_c                   11.6898(14)
_cell_angle_alpha                90
_cell_angle_beta                 91.055(2)
_cell_angle_gamma                90
_cell_volume                     1487.87
loop_
_atom_site_label
_atom_site_type_symbol
_atom_site_fract_x
_atom_site_fract_y
_atom_site_fract_z
Eu1 Eu 0.27305(2) 0.632058(14) 0.050114(17)
O5 O 0.1006(3) 0.5203(2) 0.1255(2)
O6 O 0.0552(4) 0.7371(3) 0.0504(3)
C12 C 0.0016(5) 0.4849(3) 0.0640(4)
H8 H 0.043(5) 0.788(2) 0.089(4)
H15 H 0.001(5) 0.261(3) 0.008(3)
O16 O 0.2366(3) 0.6858(2) 0.2420(2)
N6 N 0.4538(4) 0.7659(2) 0.1218(3)
O18 O 0.4154(3) 0.5294(2) 0.1717(2)
O1 O 0.2366(3) 0.8142(2) 0.7420(2)
N1 N 0.5722(4) 0.5980(3) 0.6498(3)
N2 N 0.4538(4) 0.7341(2) 0.6218(3)
C1 C 0.5522(5) 0.6742(3) 0.5796(4)
C2 C 0.3099(5) 0.7508(3) 0.7945(4)
C3 C 0.4129(4) 0.6937(3) 0.7256(4)
C4 C 0.6359(5) 0.6879(3) 0.4749(4)
C5 C 0.6676(6) 0.6106(4) 0.4039(4)
H1 H 0.6321 0.5497 0.4214
C6 C 0.6902(5) 0.7782(3) 0.4467(4)
H2 H 0.6702 0.8309 0.4930
O2 O 0.3021(3) 0.7380(2) 0.9002(2)
C7 C 0.4871(4) 0.6097(3) 0.7432(4)
C8 C 0.4899(5) 0.5361(3) 0.8378(4)
C9 C 0.7505(6) 0.6227(4) 0.3083(5)
H3 H 0.7701 0.5704 0.2614
C10 C 0.7727(5) 0.7903(4) 0.3512(4)
H4 H 0.8075 0.8511 0.3330
C11 C 0.8049(6) 0.7127(4) 0.2817(5)
H5 H 0.8625 0.7210 0.2178
O3 O 0.4010(3) 0.5436(2) 0.9166(3)
O4 O 0.5846(3) 0.4706(2) 0.8283(2)
H6 H 0.629(5) 0.552(3) 0.630(5)
O9 O 0.0944(3) 0.5733(2) 0.9050(2)
Eu5 Eu 0.72695(2) 0.367942(14) 0.949886(17)
Eu6 Eu 0.27305(2) 0.867942(14) 0.550114(17)
O7 O 0.9056(3) 0.4267(2) 0.0950(2)
O10 O 0.7634(3) 0.1858(2) 0.2580(2)
N3 N 0.4278(4) 0.4020(3) 0.3502(3)
N4 N 0.5462(4) 0.2659(2) 0.3782(3)
C14 C 0.4478(5) 0.3258(3) 0.4204(4)
C15 C 0.6901(5) 0.2492(3) 0.2055(4)
C16 C 0.5871(4) 0.3063(3) 0.2744(4)
C17 C 0.3641(5) 0.3121(3) 0.5251(4)
C18 C 0.3324(6) 0.3894(4) 0.5961(4)
H9 H 0.3679 0.4503 0.5786
C19 C 0.3098(5) 0.2218(3) 0.5533(4)
H10 H 0.3298 0.1691 0.5070
O11 O 0.6979(3) 0.2620(2) 0.0998(2)
C20 C 0.5129(4) 0.3903(3) 0.2568(4)
C21 C 0.5101(5) 0.4639(3) 0.1622(4)
C22 C 0.2495(6) 0.3773(4) 0.6917(5)
H11 H 0.2299 0.4296 0.7386
C23 C 0.2273(5) 0.2097(4) 0.6488(4)
H12 H 0.1925 0.1489 0.6670
C24 C 0.1951(6) 0.2873(4) 0.7183(5)
H13 H 0.1375 0.2790 0.7822
O12 O 0.5990(3) 0.4564(2) 0.0834(3)
H14 H 0.371(5) 0.448(3) 0.370(5)
Eu4 Eu 0.72695(2) 0.132058(14) 0.449886(17)
H7 H 0.999(5) 0.739(3) 0.992(3)
O8 O 0.8994(3) 0.4797(2) 0.8745(2)
C13 C 0.9984(5) 0.5151(3) 0.9360(4)
O14 O 0.9448(4) 0.2629(3) 0.9496(3)
H16 H 0.957(5) 0.212(2) 0.911(4)
O15 O 0.7634(3) 0.3142(2) 0.7580(2)
N5 N 0.5462(4) 0.2341(2) 0.8782(3)
H7_2 H 0.001(5) 0.239(3) 0.508(3)
C13_2 C 0.0016(5) 0.0151(3) 0.5640(4)
O13 O 0.5846(3) 0.0294(2) 0.3283(2)
O7_2 O 0.0944(3) 0.9267(2) 0.4050(2)
O8_2 O 0.1006(3) 0.9797(2) 0.6255(2)
N3_2 N 0.5722(4) 0.9020(3) 0.1498(3)
C14_2 C 0.5522(5) 0.8258(3) 0.0796(4)
C15_2 C 0.3099(5) 0.7492(3) 0.2945(4)
C16_2 C 0.4129(4) 0.8063(3) 0.2256(4)
O11_2 O 0.3021(3) 0.7620(2) 0.4002(2)
C20_2 C 0.4871(4) 0.8903(3) 0.2432(4)
C21_2 C 0.4899(5) 0.9639(3) 0.3378(4)
O12_2 O 0.4010(3) 0.9564(2) 0.4166(3)
O14_2 O 0.0552(4) 0.7629(3) 0.5504(3)
H14_2 H 0.629(5) 0.948(3) 0.130(5)
H16_2 H 0.043(5) 0.712(2) 0.589(4)
O17 O 0.4154(3) 0.9706(2) 0.6717(2)
N1_2 N 0.4278(4) 0.0980(3) 0.8502(3)
C1_2 C 0.4478(5) 0.1742(3) 0.9204(4)
C2_2 C 0.6901(5) 0.2508(3) 0.7055(4)
C3_2 C 0.5871(4) 0.1937(3) 0.7744(4)
O2_2 O 0.6979(3) 0.2380(2) 0.5998(2)
C7_2 C 0.5129(4) 0.1097(3) 0.7568(4)
C8_2 C 0.5101(5) 0.0361(3) 0.6622(4)
O3_2 O 0.5990(3) 0.0436(2) 0.5834(3)
O5_2 O 0.8994(3) 0.0203(2) 0.3745(2)
O6_2 O 0.9448(4) 0.2371(3) 0.4496(3)
H6_2 H 0.371(5) 0.052(3) 0.870(5)
H8_2 H 0.957(5) 0.288(2) 0.411(4)
O9_2 O 0.9056(3) 0.0733(2) 0.5950(2)
C12_2 C 0.9984(5) 0.9849(3) 0.4360(4)
H15_2 H 0.999(5) 0.761(3) 0.492(3)
C17_2 C 0.6359(5) 0.8121(3) 0.9749(4)
C18_2 C 0.6676(6) 0.8894(4) 0.9039(4)
H9_2 H 0.6321 0.9503 0.9214
C19_2 C 0.6902(5) 0.7218(3) 0.9467(4)
H10_2 H 0.6702 0.6691 0.9930
C22_2 C 0.7505(6) 0.8773(4) 0.8083(5)
H11_2 H 0.7701 0.9296 0.7614
C23_2 C 0.7727(5) 0.7097(4) 0.8512(4)
H12_2 H 0.8075 0.6489 0.8330
C24_2 C 0.8049(6) 0.7873(4) 0.7817(5)
H13_2 H 0.8625 0.7790 0.7178
C4_2 C 0.3641(5) 0.1879(3) 0.0251(4)
C5_2 C 0.3324(6) 0.1106(4) 0.0961(4)
H1_2 H 0.3679 0.0497 0.0786
C6_2 C 0.3098(5) 0.2782(3) 0.0533(4)
H2_2 H 0.3298 0.3309 0.0070
C9_2 C 0.2495(6) 0.1227(4) 0.1917(5)
H3_2 H 0.2299 0.0704 0.2386
C10_2 C 0.2273(5) 0.2903(4) 0.1488(4)
H4_2 H 0.1925 0.3511 0.1670
C11_2 C 0.1951(6) 0.2127(4) 0.2183(5)
H5_2 H 0.1375 0.2210 0.2822
loop_
_geom_bond_atom_site_label_1
_geom_bond_atom_site_label_2
_geom_bond_site_symmetry_1
_geom_bond_site_symmetry_2
O5 Eu1 1_555 1_555
O6 Eu1 1_555 1_555
C12 O5 1_555 1_555
H8 O6 1_555 1_555
O16 Eu1 1_555 1_555
N6 Eu1 1_555 1_555
O18 Eu1 1_555 1_555
O1 C2 1_555 1_555
N1 C1 1_555 1_555
N2 C1 1_555 1_555
C1 C4 1_555 1_555
C2 C3 1_555 1_555
C3 N2 1_555 1_555
C4 C5 1_555 1_555
C5 H1 1_555 1_555
C6 C4 1_555 1_555
H2 C6 1_555 1_555
O2 C2 1_555 1_555
C7 N1 1_555 1_555
C8 C7 1_555 1_555
C9 C5 1_555 1_555
H3 C9 1_555 1_555
C10 C6 1_555 1_555
H4 C10 1_555 1_555
C11 C9 1_555 1_555
H5 C11 1_555 1_555
O4 C8 1_555 1_555
H6 N1 1_555 1_555
Eu5 O4 1_555 1_555
Eu6 O1 1_555 1_555
N2 Eu6 1_555 1_555
C3 C7 1_555 1_555
C8 O3 1_555 1_555
C10 C11 1_555 1_555
O10 C15 1_555 1_555
N3 C14 1_555 1_555
N4 C14 1_555 1_555
C14 C17 1_555 1_555
C15 C16 1_555 1_555
C16 N4 1_555 1_555
C17 C18 1_555 1_555
C18 H9 1_555 1_555
C19 C17 1_555 1_555
H10 C19 1_555 1_555
C20 N3 1_555 1_555
C21 C20 1_555 1_555
C22 C18 1_555 1_555
H11 C22 1_555 1_555
C23 C19 1_555 1_555
H12 C23 1_555 1_555
C24 C22 1_555 1_555
H13 C24 1_555 1_555
O18 C21 1_555 1_555
H14 N3 1_555 1_555
Eu4 O10 1_555 1_555
N4 Eu4 1_555 1_555
C15 O11 1_555 1_555
C16 C20 1_555 1_555
C21 O12 1_555 1_555
C23 C24 1_555 1_555
O8 C13 1_555 1_555
O14 Eu5 1_555 1_555
H16 O14 1_555 1_555
O15 Eu5 1_555 1_555
N5 Eu5 1_555 1_555
O8 Eu5 1_555 1_555
Eu4 O13 1_555 1_555
Eu6 O7_2 1_555 1_555
O16 C15_2 1_555 1_555
N3_2 C14_2 1_555 1_555
N6 C14_2 1_555 1_555
C15_2 C16_2 1_555 1_555
C16_2 N6 1_555 1_555
O11_2 Eu6 1_555 1_555
C20_2 N3_2 1_555 1_555
C21_2 C20_2 1_555 1_555
O12_2 Eu6 1_555 1_555
O14_2 Eu6 1_555 1_555
H14_2 N3_2 1_555 1_555
H16_2 O14_2 1_555 1_555
O17 Eu6 1_555 1_555
O8_2 Eu6 1_555 1_555
C15_2 O11_2 1_555 1_555
C16_2 C20_2 1_555 1_555
C21_2 O12_2 1_555 1_555
Eu4 O2_2 1_555 1_555
O15 C2_2 1_555 1_555
N1_2 C1_2 1_555 1_555
N5 C1_2 1_555 1_555
C2_2 C3_2 1_555 1_555
C3_2 N5 1_555 1_555
O2_2 C2_2 1_555 1_555
C7_2 N1_2 1_555 1_555
C8_2 C7_2 1_555 1_555
O3_2 Eu4 1_555 1_555
O5_2 Eu4 1_555 1_555
O6_2 Eu4 1_555 1_555
H6_2 N1_2 1_555 1_555
H8_2 O6_2 1_555 1_555
O9_2 Eu4 1_555 1_555
C3_2 C7_2 1_555 1_555
C8_2 O3_2 1_555 1_555
C17_2 C18_2 1_555 1_555
C18_2 H9_2 1_555 1_555
C19_2 C17_2 1_555 1_555
H10_2 C19_2 1_555 1_555
C22_2 C18_2 1_555 1_555
H11_2 C22_2 1_555 1_555
C23_2 C19_2 1_555 1_555
H12_2 C23_2 1_555 1_555
C24_2 C22_2 1_555 1_555
H13_2 C24_2 1_555 1_555
C23_2 C24_2 1_555 1_555
C4_2 C5_2 1_555 1_555
C5_2 H1_2 1_555 1_555
C6_2 C4_2 1_555 1_555
H2_2 C6_2 1_555 1_555
C9_2 C5_2 1_555 1_555
H3_2 C9_2 1_555 1_555
C10_2 C6_2 1_555 1_555
H4_2 C10_2 1_555 1_555
C11_2 C9_2 1_555 1_555
H5_2 C11_2 1_555 1_555
C10_2 C11_2 1_555 1_555

#END
