
###############################################################################
#
# This file contains modified crystal structure data generated from the
# MOF subset of the Cambridge Structural Database (CSD) v543 
# hosted by the Cambridge Crystallographic Data Centre (CCDC).
#
# This work is licensed under the Creative Commons
# Attribution-NonCommercial-ShareAlike 4.0 International License.
# To view a copy of this license, visit
# http://creativecommons.org/licenses/by-nc-sa/4.0/
# or send a letter to
# Creative Commons, PO Box 1866, Mountain View, CA 94042, USA.
#
# CIF created using the CSD Python API on 29 September 2022
# The structure has been converted into the P1 space group
# The structure has a 3D framework
# The original CSD entry LETBOE is in the triclinic crystal system
# The framework has been calculated to contain at least 10.0% void space
# The void calculation uses a probe of radius 1.32A, grid spacing 0.4
#
###############################################################################

data_LETBOE
_chemical_formula_moiety         '(C68 H38 Eu1 N8 O10)n'
_symmetry_cell_setting           triclinic
_symmetry_space_group_name_H-M   'P 1'
_symmetry_Int_Tables_number      1
_space_group_name_Hall           'P 1'
loop_
_symmetry_equiv_pos_site_id
_symmetry_equiv_pos_as_xyz
1 x,y,z
_cell_length_a                   9.6170(12)
_cell_length_b                   11.2343(13)
_cell_length_c                   14.6852(17)
_cell_angle_alpha                82.526(2)
_cell_angle_beta                 84.202(2)
_cell_angle_gamma                83.670(2)
_cell_volume                     1557.46
loop_
_atom_site_label
_atom_site_type_symbol
_atom_site_fract_x
_atom_site_fract_y
_atom_site_fract_z
_atom_site_U_iso_or_equiv
_atom_site_thermal_displace_type
C37 C 0.0821(19) 0.2441(13) 0.4027(13) 0.1518 Uani
H20 H 0.1499 0.2976 0.4008 0.1820 Uiso
C38 C 0.0903(19) 0.1391(16) 0.4625(12) 0.1203 Uani
H21 H 0.1629 0.1232 0.5010 0.1440 Uiso
O7 O 0.0446(7) 0.4663(5) 0.2873(4) 0.0500 Uani
C18 C 0.3794(9) 0.6269(7) 0.0705(6) 0.0323 Uani
H9 H 0.3512 0.5959 0.1305 0.0390 Uiso
C19 C 0.4741(9) 0.7123(7) 0.0552(6) 0.0337 Uani
H10 H 0.5103 0.7377 0.1050 0.0410 Uiso
C20 C 0.2122(8) 0.5033(6) 0.0119(6) 0.0276 Uani
N3 N 0.6730(7) 0.9022(6) 0.0123(5) 0.0322 Uani
H19 H 0.6712 0.8753 0.0700 0.0380 Uiso
O1 O 0.1354(6) 0.5009(5) 0.0867(4) 0.0368 Uani
C53 C 0.1114(8) 0.8385(6) 0.0639(5) 0.0249 Uani
C54 C 0.1409(8) 0.8268(7) 0.1601(6) 0.0310 Uani
C55 C 0.1074(11) 0.7281(8) 0.3069(7) 0.0481 Uani
H31 H 0.0674 0.6677 0.3471 0.0580 Uiso
C56 C 0.1899(12) 0.8022(10) 0.3428(7) 0.0613 Uani
H32 H 0.2031 0.7923 0.4053 0.0740 Uiso
C57 C 0.2520(11) 0.8913(8) 0.2828(7) 0.0506 Uani
H33 H 0.3088 0.9414 0.3043 0.0610 Uiso
C58 C 0.2277(9) 0.9048(7) 0.1888(6) 0.0319 Uani
C59 C 0.2864(8) 0.9940(7) 0.1228(6) 0.0321 Uani
N5 N 0.0248(7) 0.7617(5) 0.0398(4) 0.0281 Uani
N6 N 0.0826(7) 0.7388(6) 0.2184(4) 0.0319 Uani
C1 C 0.0032(9) 0.2289(7) 0.0474(6) 0.0342 Uani
H1 H 0.0601 0.2828 0.0642 0.0410 Uiso
Eu1 Eu 0.06317(4) 0.40485(3) 0.83865(3) 0.0282 Uani
C21 C 0.0335(10) 0.6157(8) 0.7179(6) 0.0404 Uani
C22 C 0.0224(11) 0.7296(8) 0.6527(6) 0.0447 Uani
C25 C 0.0063(12) 0.9422(8) 0.5340(8) 0.0586 Uani
C26 C 0.1119(11) 0.9138(9) 0.5875(7) 0.0560 Uani
H13 H 0.1808 0.9664 0.5850 0.0670 Uiso
C27 C 0.1207(11) 0.8089(9) 0.6457(7) 0.0526 Uani
H14 H 0.1963 0.7912 0.6817 0.0630 Uiso
C28 C 0.3800(15) 0.2358(10) 0.5794(7) 0.0746 Uani
H15 H 0.3609 0.3181 0.5621 0.0900 Uiso
C29 C 0.4420(15) 0.1603(9) 0.5134(7) 0.0766 Uani
H16 H 0.4629 0.1938 0.4530 0.0920 Uiso
C30 C 0.4716(9) 0.0398(8) 0.5366(6) 0.0411 Uani
C32 C 0.3883(10) 0.0654(8) 0.6939(6) 0.0421 Uani
H18 H 0.3747 0.0324 0.7552 0.0510 Uiso
C33 C 0.3481(9) 0.1877(8) 0.6690(6) 0.0388 Uani
C34 C 0.2693(10) 0.2639(8) 0.7348(6) 0.0406 Uani
O4 O 0.1203(7) 0.6040(5) 0.7769(4) 0.0442 Uani
O5 O 0.2220(8) 0.3695(6) 0.7049(5) 0.0625 Uani
O6 O 0.2424(6) 0.2250(5) 0.8183(4) 0.0375 Uani
C45 C 0.5519(10) 0.0073(8) 0.3721(6) 0.0400 Uani
H26 H 0.5272 0.0889 0.3546 0.0480 Uiso
O13 O 0.1976(6) 0.4401(5) 0.9492(4) 0.0345 Uani
C12 C 0.7433(8) 0.9961(6) 0.9683(5) 0.0281 Uani
C13 C 0.6065(9) 0.8595(7) 0.9472(6) 0.0347 Uani
C14 C 0.5161(8) 0.7610(7) 0.9659(6) 0.0294 Uani
C15 C 0.4645(10) 0.7185(8) 0.8930(6) 0.0420 Uani
H7 H 0.4918 0.7496 0.8328 0.0510 Uiso
C16 C 0.3723(9) 0.6298(7) 0.9089(6) 0.0366 Uani
H8 H 0.3420 0.5994 0.8592 0.0440 Uiso
C17 C 0.3255(8) 0.5866(6) 0.9963(6) 0.0278 Uani
N4 N 0.6281(8) 0.9217(6) 0.8637(5) 0.0373 Uani
C50 C 0.0487(9) 0.8580(7) 0.8847(5) 0.0319 Uani
H29 H 0.0242 0.8625 0.8246 0.0380 Uiso
C51 C 0.1359(9) 0.9367(7) 0.9068(6) 0.0334 Uani
H30 H 0.1719 0.9946 0.8622 0.0400 Uiso
C52 C 0.1694(8) 0.9279(6) 0.9978(5) 0.0265 Uani
C31 C 0.4481(10) 0.9927(8) 0.6279(6) 0.0400 Uani
H17 H 0.4728 0.9111 0.6454 0.0480 Uiso
C42 C 0.6200(15) 0.7642(10) 0.4206(7) 0.0746 Uani
H24 H 0.6391 0.6819 0.4379 0.0900 Uiso
C43 C 0.5580(15) 0.8397(9) 0.4866(7) 0.0766 Uani
H25 H 0.5371 0.8062 0.5470 0.0920 Uiso
C44 C 0.5284(9) 0.9602(8) 0.4634(6) 0.0411 Uani
C46 C 0.6117(10) 0.9346(8) 0.3061(6) 0.0421 Uani
H27 H 0.6253 0.9676 0.2448 0.0510 Uiso
C47 C 0.6519(9) 0.8123(8) 0.3310(6) 0.0388 Uani
C48 C 0.7307(10) 0.7361(8) 0.2652(6) 0.0406 Uani
O9 O 0.7780(8) 0.6305(6) 0.2951(5) 0.0625 Uani
O10 O 0.7576(6) 0.7750(5) 0.1817(4) 0.0375 Uani
Eu6 Eu 0.93683(4) 0.59515(3) 0.16135(3) 0.0282 Uani
C35 C 0.9665(10) 0.3843(8) 0.2821(6) 0.0404 Uani
C36 C 0.9776(11) 0.2704(8) 0.3473(6) 0.0447 Uani
C39 C 0.9937(12) 0.0578(8) 0.4660(8) 0.0586 Uani
C40 C 0.8881(11) 0.0862(9) 0.4125(7) 0.0560 Uani
H22 H 0.8192 0.0336 0.4150 0.0670 Uiso
C41 C 0.8793(11) 0.1911(9) 0.3543(7) 0.0526 Uani
H23 H 0.8037 0.2088 0.3183 0.0630 Uiso
O8 O 0.8797(7) 0.3960(5) 0.2231(4) 0.0442 Uani
C2 C 0.9513(9) 0.1420(7) 0.1153(5) 0.0319 Uani
H2 H 0.9758 0.1375 0.1754 0.0380 Uiso
C3 C 0.8641(9) 0.0633(7) 0.0932(6) 0.0334 Uani
H3 H 0.8281 0.0054 0.1378 0.0400 Uiso
C4 C 0.8306(8) 0.0721(6) 0.0022(5) 0.0265 Uani
C60 C 0.2567(8) 0.0039(6) 0.0317(5) 0.0281 Uani
C61 C 0.3935(9) 0.1405(7) 0.0528(6) 0.0347 Uani
C62 C 0.4839(8) 0.2390(7) 0.0341(6) 0.0294 Uani
C63 C 0.5355(10) 0.2815(8) 0.1070(6) 0.0420 Uani
H34 H 0.5082 0.2504 0.1672 0.0510 Uiso
C64 C 0.6277(9) 0.3702(7) 0.0911(6) 0.0366 Uani
H35 H 0.6580 0.4006 0.1408 0.0440 Uiso
C65 C 0.6745(8) 0.4134(6) 0.0037(6) 0.0278 Uani
N8 N 0.3719(8) 0.0783(6) 0.1363(5) 0.0373 Uani
O12 O 0.8024(6) 0.5599(5) 0.0508(4) 0.0345 Uani
C5 C 0.8886(8) 0.1615(6) 0.9361(5) 0.0249 Uani
C6 C 0.8591(8) 0.1732(7) 0.8399(6) 0.0310 Uani
C7 C 0.8926(11) 0.2719(8) 0.6931(7) 0.0481 Uani
H4 H 0.9326 0.3323 0.6529 0.0580 Uiso
C8 C 0.8101(12) 0.1978(10) 0.6572(7) 0.0613 Uani
H5 H 0.7969 0.2077 0.5947 0.0740 Uiso
C9 C 0.7480(11) 0.1087(8) 0.7172(7) 0.0506 Uani
H6 H 0.6912 0.0586 0.6957 0.0610 Uiso
C10 C 0.7723(9) 0.0952(7) 0.8112(6) 0.0319 Uani
C11 C 0.7136(8) 0.0060(7) 0.8772(6) 0.0321 Uani
C23 C 0.9179(19) 0.7559(13) 0.5973(13) 0.1518 Uani
H11 H 0.8501 0.7024 0.5992 0.1820 Uiso
C24 C 0.9097(19) 0.8609(16) 0.5375(12) 0.1203 Uani
H12 H 0.8371 0.8768 0.4990 0.1440 Uiso
N1 N 0.9752(7) 0.2383(5) 0.9602(4) 0.0281 Uani
N2 N 0.9174(7) 0.2612(6) 0.7816(4) 0.0319 Uani
O3 O 0.9554(7) 0.5337(5) 0.7127(4) 0.0500 Uani
C66 C 0.6206(9) 0.3731(7) 0.9295(6) 0.0323 Uani
H36 H 0.6488 0.4041 0.8695 0.0390 Uiso
C67 C 0.5259(9) 0.2877(7) 0.9448(6) 0.0337 Uani
H37 H 0.4897 0.2623 0.8950 0.0410 Uiso
C68 C 0.7878(8) 0.4967(6) 0.9881(6) 0.0276 Uani
N7 N 0.3270(7) 0.0978(6) 0.9877(5) 0.0322 Uani
H38 H 0.3288 0.1247 0.9300 0.0380 Uiso
O11 O 0.8646(6) 0.4991(5) 0.9133(4) 0.0368 Uani
C49 C 0.9968(9) 0.7711(7) 0.9526(6) 0.0342 Uani
H28 H 0.9399 0.7172 0.9358 0.0410 Uiso
loop_
_atom_site_aniso_label
_atom_site_aniso_U_11
_atom_site_aniso_U_22
_atom_site_aniso_U_33
_atom_site_aniso_U_23
_atom_site_aniso_U_13
_atom_site_aniso_U_12
C37 0.16 0.095 0.211 0.112 -0.141 -0.099
C38 0.12 0.12 0.121 -0.0135 -0.0115 -0.0122
O7 0.065 0.035 0.051 0.009 -0.018 -0.014
C18 0.037 0.029 0.03 0 -0.004 -0.002
C19 0.038 0.029 0.037 -0.009 -0.004 -0.01
C20 0.024 0.017 0.038 0.011 -0.005 0
N3 0.031 0.027 0.038 0.002 0.001 -0.011
O1 0.037 0.022 0.049 -0.002 0.009 -0.006
C53 0.027 0.018 0.03 -0.003 -0.002 -0.004
C54 0.032 0.022 0.039 -0.003 -0.004 -0.002
C55 0.062 0.038 0.046 0.005 -0.006 -0.023
C56 0.086 0.067 0.038 0.001 -0.023 -0.031
C57 0.064 0.044 0.051 -0.003 -0.018 -0.028
C58 0.034 0.03 0.034 -0.004 -0.009 -0.007
C59 0.03 0.026 0.041 -0.001 -0.003 -0.01
N5 0.029 0.023 0.033 -0.004 -0.002 -0.006
N6 0.041 0.028 0.029 -0.002 -0.006 -0.013
C1 0.041 0.024 0.041 -0.014 -0.001 -0.009
Eu1 0.0346 0.0199 0.0305 -0.00304 -1e-05 -0.00643
C21 0.05 0.029 0.043 -0.002 -0.01 -0.005
C22 0.058 0.032 0.045 0.006 -0.015 -0.011
C25 0.064 0.031 0.083 0.01 -0.019 -0.023
C26 0.06 0.057 0.052 0.015 -0.019 -0.023
C27 0.058 0.048 0.052 0.016 -0.027 -0.012
C28 0.129 0.045 0.041 -0.004 0.021 0.003
C29 0.135 0.044 0.04 -0.008 0.025 0.012
C30 0.036 0.042 0.046 -0.018 0.01 -0.005
C32 0.049 0.04 0.034 -0.003 0.006 0
C33 0.04 0.042 0.035 -0.013 0.004 -0.004
C34 0.044 0.041 0.038 -0.01 0.002 -0.008
O4 0.064 0.025 0.045 0.007 -0.014 -0.015
O5 0.087 0.036 0.052 0.004 0.024 0.011
O6 0.048 0.036 0.029 -0.009 -0.002 -0.001
C45 0.052 0.031 0.035 -0.006 -0.004 0.007
O13 0.04 0.027 0.04 -0.007 -0.007 -0.012
C12 0.029 0.021 0.034 -0.003 -0.001 -0.003
C13 0.032 0.027 0.048 -0.01 -0.001 -0.011
C14 0.028 0.021 0.041 -0.006 -0.006 -0.005
C15 0.046 0.045 0.036 -0.002 0.002 -0.018
C16 0.044 0.035 0.036 -0.011 -0.005 -0.017
C17 0.024 0.017 0.043 -0.005 0.001 -0.007
N4 0.041 0.03 0.045 -0.006 -0.01 -0.014
C50 0.044 0.028 0.025 -0.006 -0.007 -0.003
C51 0.036 0.027 0.036 -0.001 0 -0.004
C52 0.024 0.019 0.037 -0.007 0.002 -0.004
C31 0.052 0.031 0.035 -0.006 -0.004 0.007
C42 0.129 0.045 0.041 -0.004 0.021 0.003
C43 0.135 0.044 0.04 -0.008 0.025 0.012
C44 0.036 0.042 0.046 -0.018 0.01 -0.005
C46 0.049 0.04 0.034 -0.003 0.006 0
C47 0.04 0.042 0.035 -0.013 0.004 -0.004
C48 0.044 0.041 0.038 -0.01 0.002 -0.008
O9 0.087 0.036 0.052 0.004 0.024 0.011
O10 0.048 0.036 0.029 -0.009 -0.002 -0.001
Eu6 0.0346 0.0199 0.0305 -0.00304 -1e-05 -0.00643
C35 0.05 0.029 0.043 -0.002 -0.01 -0.005
C36 0.058 0.032 0.045 0.006 -0.015 -0.011
C39 0.064 0.031 0.083 0.01 -0.019 -0.023
C40 0.06 0.057 0.052 0.015 -0.019 -0.023
C41 0.058 0.048 0.052 0.016 -0.027 -0.012
O8 0.064 0.025 0.045 0.007 -0.014 -0.015
C2 0.044 0.028 0.025 -0.006 -0.007 -0.003
C3 0.036 0.027 0.036 -0.001 0 -0.004
C4 0.024 0.019 0.037 -0.007 0.002 -0.004
C60 0.029 0.021 0.034 -0.003 -0.001 -0.003
C61 0.032 0.027 0.048 -0.01 -0.001 -0.011
C62 0.028 0.021 0.041 -0.006 -0.006 -0.005
C63 0.046 0.045 0.036 -0.002 0.002 -0.018
C64 0.044 0.035 0.036 -0.011 -0.005 -0.017
C65 0.024 0.017 0.043 -0.005 0.001 -0.007
N8 0.041 0.03 0.045 -0.006 -0.01 -0.014
O12 0.04 0.027 0.04 -0.007 -0.007 -0.012
C5 0.027 0.018 0.03 -0.003 -0.002 -0.004
C6 0.032 0.022 0.039 -0.003 -0.004 -0.002
C7 0.062 0.038 0.046 0.005 -0.006 -0.023
C8 0.086 0.067 0.038 0.001 -0.023 -0.031
C9 0.064 0.044 0.051 -0.003 -0.018 -0.028
C10 0.034 0.03 0.034 -0.004 -0.009 -0.007
C11 0.03 0.026 0.041 -0.001 -0.003 -0.01
C23 0.16 0.095 0.211 0.112 -0.141 -0.099
C24 0.12 0.12 0.121 -0.0135 -0.0115 -0.0122
N1 0.029 0.023 0.033 -0.004 -0.002 -0.006
N2 0.041 0.028 0.029 -0.002 -0.006 -0.013
O3 0.065 0.035 0.051 0.009 -0.018 -0.014
C66 0.037 0.029 0.03 0 -0.004 -0.002
C67 0.038 0.029 0.037 -0.009 -0.004 -0.01
C68 0.024 0.017 0.038 0.011 -0.005 0
N7 0.031 0.027 0.038 0.002 0.001 -0.011
O11 0.037 0.022 0.049 -0.002 0.009 -0.006
C49 0.041 0.024 0.041 -0.014 -0.001 -0.009
loop_
_geom_bond_atom_site_label_1
_geom_bond_atom_site_label_2
_geom_bond_site_symmetry_1
_geom_bond_site_symmetry_2
C37 H20 1_555 1_555
C38 C37 1_555 1_555
H21 C38 1_555 1_555
H9 C18 1_555 1_555
H10 C19 1_555 1_555
H19 N3 1_555 1_555
O1 C20 1_555 1_555
C54 C53 1_555 1_555
C55 H31 1_555 1_555
C56 C55 1_555 1_555
H32 C56 1_555 1_555
C57 C56 1_555 1_555
H33 C57 1_555 1_555
C58 C54 1_555 1_555
C59 C58 1_555 1_555
C18 C19 1_555 1_555
C53 N5 1_555 1_555
C54 N6 1_555 1_555
C55 N6 1_555 1_555
C57 C58 1_555 1_555
C1 H1 1_555 1_555
C21 C22 1_555 1_555
C26 C25 1_555 1_555
H13 C26 1_555 1_555
C27 C22 1_555 1_555
H14 C27 1_555 1_555
C28 H15 1_555 1_555
C29 C28 1_555 1_555
H16 C29 1_555 1_555
C30 C29 1_555 1_555
H18 C32 1_555 1_555
C33 C28 1_555 1_555
C34 C33 1_555 1_555
O4 Eu1 1_555 1_555
O5 Eu1 1_555 1_555
O6 Eu1 1_555 1_555
H26 C45 1_555 1_555
O13 Eu1 1_555 1_555
C21 O4 1_555 1_555
C26 C27 1_555 1_555
C32 C33 1_555 1_555
C34 O5 1_555 1_555
C34 O6 1_555 1_555
C13 C14 1_555 1_555
C14 C15 1_555 1_555
C15 H7 1_555 1_555
C16 C15 1_555 1_555
H8 C16 1_555 1_555
C17 C16 1_555 1_555
H29 C50 1_555 1_555
C51 C50 1_555 1_555
H30 C51 1_555 1_555
C52 C51 1_555 1_555
C13 N4 1_555 1_555
H17 C31 1_555 1_555
C42 H24 1_555 1_555
C43 C42 1_555 1_555
H25 C43 1_555 1_555
H27 C46 1_555 1_555
C47 C42 1_555 1_555
C48 C47 1_555 1_555
O9 C48 1_555 1_555
O10 C48 1_555 1_555
Eu6 O9 1_555 1_555
C43 C44 1_555 1_555
C46 C47 1_555 1_555
O10 Eu6 1_555 1_555
C35 C36 1_555 1_555
C40 C39 1_555 1_555
H22 C40 1_555 1_555
C41 C36 1_555 1_555
H23 C41 1_555 1_555
O8 C35 1_555 1_555
C40 C41 1_555 1_555
O8 Eu6 1_555 1_555
H2 C2 1_555 1_555
C3 C2 1_555 1_555
H3 C3 1_555 1_555
C4 C3 1_555 1_555
C61 C62 1_555 1_555
C62 C63 1_555 1_555
C63 H34 1_555 1_555
C64 C63 1_555 1_555
H35 C64 1_555 1_555
C65 C64 1_555 1_555
Eu6 O12 1_555 1_555
C61 N8 1_555 1_555
C6 C5 1_555 1_555
C7 H4 1_555 1_555
C8 C7 1_555 1_555
H5 C8 1_555 1_555
C9 C8 1_555 1_555
H6 C9 1_555 1_555
C10 C6 1_555 1_555
C11 C10 1_555 1_555
C23 H11 1_555 1_555
C24 C23 1_555 1_555
H12 C24 1_555 1_555
H36 C66 1_555 1_555
H37 C67 1_555 1_555
H38 N7 1_555 1_555
C5 N1 1_555 1_555
C6 N2 1_555 1_555
C7 N2 1_555 1_555
C9 C10 1_555 1_555
C66 C67 1_555 1_555
C68 O11 1_555 1_555
C49 H28 1_555 1_555

#END
