
###############################################################################
#
# This file contains modified crystal structure data generated from the
# MOF subset of the Cambridge Structural Database (CSD) v543 
# hosted by the Cambridge Crystallographic Data Centre (CCDC).
#
# This work is licensed under the Creative Commons
# Attribution-NonCommercial-ShareAlike 4.0 International License.
# To view a copy of this license, visit
# http://creativecommons.org/licenses/by-nc-sa/4.0/
# or send a letter to
# Creative Commons, PO Box 1866, Mountain View, CA 94042, USA.
#
# CIF created using the CSD Python API on 29 September 2022
# The structure has been converted into the P1 space group
# The structure has a 3D framework
# The original CSD entry LETNEG is in the monoclinic crystal system
# The framework has been calculated to contain at least 10.0% void space
# The void calculation uses a probe of radius 1.32A, grid spacing 0.4
#
###############################################################################

data_LETNEG
_chemical_formula_moiety         '(C108 H120 N16 Ni2 O24)n'
_symmetry_cell_setting           triclinic
_symmetry_space_group_name_H-M   'P 1'
_symmetry_Int_Tables_number      1
_space_group_name_Hall           'P 1'
loop_
_symmetry_equiv_pos_site_id
_symmetry_equiv_pos_as_xyz
1 x,y,z
_cell_length_a                   10.145(5)
_cell_length_b                   28.117(14)
_cell_length_c                   9.878(5)
_cell_angle_alpha                90
_cell_angle_beta                 101.921(6)
_cell_angle_gamma                90
_cell_volume                     2756.9
loop_
_atom_site_label
_atom_site_type_symbol
_atom_site_fract_x
_atom_site_fract_y
_atom_site_fract_z
Ni2 Ni 0.65080(5) 0.02349(2) 0.88144(6)
Ni1 Ni 0.34920(5) 0.52349(2) 0.61856(6)
O2 O 0.3575(3) 0.47533(11) 0.4666(3)
O3 O 0.4636(3) 0.44821(11) 0.3062(3)
N1 N 0.6049(3) 0.96608(13) 0.7437(4)
N2 N 0.2994(3) 0.57692(13) 0.4632(4)
O5 O 0.5187(4) 0.80356(12) 0.5327(4)
C1 C 0.2286(4) 0.38024(16) 0.2971(5)
H1 H 0.3077 0.3663 0.2676
H2 H 0.2371 0.3738 0.3970
C2 C 0.1956(5) 0.70248(16) 0.2130(5)
C3 C 0.5117(5) 0.84356(17) 0.4791(5)
C4 C 0.5424(4) 0.88676(16) 0.5704(5)
O6 O 0.0861(3) 0.72148(13) 0.2137(4)
C6 C 0.4990(4) 0.96589(16) 0.6360(5)
H3 H 0.4445 0.9936 0.6200
C7 C 0.1017(4) 0.45540(15) 0.3194(5)
H4 H 0.1107 0.4498 0.4198
H5 H 0.0983 0.4902 0.3035
N3 N 0.4786(4) 0.85101(14) 0.3442(4)
H6 H 0.4737 0.8806 0.3142
C8 C 0.2250(4) 0.43449(15) 0.2719(5)
C9 C 0.2342(4) 0.65684(16) 0.2919(5)
C10 C 0.3575(4) 0.45524(15) 0.3537(5)
C11 C 0.4651(4) 0.92789(16) 0.5476(5)
H7 H 0.3900 0.9298 0.4723
N4 N 0.2870(4) 0.72108(13) 0.1467(4)
H8 H 0.3612 0.7051 0.1451
C12 C 0.2086(4) 0.44401(18) 0.1155(5)
H9 H 0.2060 0.4787 0.0985
H10 H 0.2868 0.4307 0.0827
C14 C 0.6787(4) 0.92582(17) 0.7649(5)
H13 H 0.7544 0.9251 0.8398
C15 C 0.1691(4) 0.58835(17) 0.4062(5)
H14 H 0.0992 0.5685 0.4247
C17 C 0.3678(5) 0.64422(17) 0.3458(5)
H15 H 0.4395 0.6627 0.3252
C18 C 0.6508(4) 0.88575(16) 0.6845(5)
H16 H 0.7039 0.8579 0.7058
C19 C 0.1351(5) 0.62760(16) 0.3227(5)
H17 H 0.0430 0.6346 0.2861
C21 C 0.0984(5) 0.35725(17) 0.2148(6)
H20 H 0.1018 0.3221 0.2307
C22 C 0.2660(5) 0.76721(17) 0.0774(5)
H21 H 0.1710 0.7698 0.0275
H22 H 0.3240 0.7695 0.0084
C23 C 0.4494(5) 0.81242(17) 0.2415(5)
H23 H 0.4823 0.7819 0.2861
H24 H 0.4982 0.8185 0.1662
C24 C 0.3947(4) 0.60434(17) 0.4299(5)
H25 H 0.4862 0.5962 0.4655
C25 C 0.0783(4) 0.42117(19) 0.0350(5)
C26 C 0.2985(5) 0.80841(16) 0.1801(5)
H27 H 0.2666 0.8385 0.1325
H28 H 0.2495 0.8037 0.2560
C27 C 0.0858(5) 0.36731(19) 0.0605(6)
H29 H 0.0035 0.3519 0.0071
H30 H 0.1646 0.3540 0.0289
Ni4 Ni 0.65080(5) 0.47651(2) 0.38144(6)
O7 O 0.1396(3) 0.51398(11) 0.6250(3)
O8 O 0.5364(3) 0.55179(11) 0.6938(3)
O9 O 0.2665(3) 0.56673(11) 0.7549(3)
N5 N 0.3951(3) 0.46608(13) 0.7563(4)
O1 O 0.8604(3) 0.48602(11) 0.3750(3)
O4 O 0.7335(3) 0.43327(11) 0.2451(3)
C5 C 0.9703(4) 0.43264(15) 0.2404(4)
C13 C 0.9770(4) 0.37812(16) 0.2643(5)
H11 H 0.9851 0.3712 0.3640
H12 H 0.8931 0.3632 0.2130
C16 C 0.8484(4) 0.45223(16) 0.2888(4)
C20 C 0.9564(4) 0.44165(19) 0.0847(5)
H18 H 0.8728 0.4265 0.0332
H19 H 0.9501 0.4763 0.0663
O1_2 O 0.1396(3) 0.98602(11) 0.1250(3)
O4_2 O 0.2665(3) 0.93327(11) 0.2549(3)
C5_2 C 0.0297(4) 0.93264(15) 0.2596(4)
C13_2 C 0.0230(4) 0.87812(16) 0.2357(5)
H11_2 H 0.0149 0.8712 0.1360
H12_2 H 0.1069 0.8632 0.2870
C16_2 C 0.1516(4) 0.95223(16) 0.2112(4)
C20_2 C 0.0436(4) 0.94165(19) 0.4153(5)
H18_2 H 0.1272 0.9265 0.4668
H19_2 H 0.0499 0.9763 0.4337
Ni3 Ni 0.34920(5) 0.97651(2) 0.11856(6)
O5_2 O 0.4813(4) 0.30356(12) 0.9673(4)
C4_2 C 0.4576(4) 0.38676(16) 0.9296(5)
C6_2 C 0.5010(4) 0.46589(16) 0.8640(5)
H3_2 H 0.5555 0.4936 0.8800
C11_2 C 0.5349(4) 0.42789(16) 0.9524(5)
C14_2 C 0.3213(4) 0.42582(17) 0.7351(5)
H13_2 H 0.2456 0.4251 0.6602
C18_2 C 0.3492(4) 0.38575(16) 0.8155(5)
H16_2 H 0.2961 0.3579 0.7942
O7_2 O 0.8604(3) 0.01398(11) 0.8750(3)
O8_2 O 0.4636(3) 0.05179(11) 0.8062(3)
O9_2 O 0.7335(3) 0.06673(11) 0.7451(3)
O2_2 O 0.6425(3) 0.97533(11) 0.0334(3)
O3_2 O 0.5364(3) 0.94821(11) 0.1938(3)
C1_2 C 0.7714(4) 0.88024(16) 0.2029(5)
H1_2 H 0.6923 0.8663 0.2324
H2_2 H 0.7629 0.8738 0.1030
C7_2 C 0.8983(4) 0.95540(15) 0.1806(5)
H4_2 H 0.8893 0.9498 0.0802
H5_2 H 0.9017 0.9902 0.1965
C8_2 C 0.7750(4) 0.93449(15) 0.2281(5)
C10_2 C 0.6425(4) 0.95524(15) 0.1463(5)
C12_2 C 0.7914(4) 0.94401(18) 0.3845(5)
H9_2 H 0.7940 0.9787 0.4015
H10_2 H 0.7132 0.9307 0.4173
C21_2 C 0.9016(5) 0.85725(17) 0.2852(6)
H20_2 H 0.8982 0.8221 0.2693
C25_2 C 0.9217(4) 0.92117(19) 0.4650(5)
H26 H 0.9311 0.9277 0.5661
C27_2 C 0.9142(5) 0.86731(19) 0.4395(6)
H29_2 H 0.9965 0.8519 0.4929
H30_2 H 0.8354 0.8540 0.4711
C5_3 C 0.0297(4) 0.56736(15) 0.7596(4)
C13_3 C 0.0230(4) 0.62188(16) 0.7357(5)
H11_3 H 0.0149 0.6288 0.6360
H12_3 H 0.1069 0.6368 0.7870
C16_3 C 0.1516(4) 0.54777(16) 0.7112(4)
C20_3 C 0.0436(4) 0.55835(19) 0.9153(5)
H18_3 H 0.1272 0.5735 0.9668
H19_3 H 0.0499 0.5237 0.9337
O2_3 O 0.6425(3) 0.52467(11) 0.5334(3)
N1_2 N 0.3951(3) 0.03392(13) 0.2563(4)
N2_2 N 0.7006(3) 0.42308(13) 0.5368(4)
O5_3 O 0.4813(4) 0.19644(12) 0.4673(4)
C1_3 C 0.7714(4) 0.61976(16) 0.7029(5)
H1_3 H 0.6923 0.6337 0.7324
H2_3 H 0.7629 0.6262 0.6030
C2_2 C 0.8044(5) 0.29752(16) 0.7870(5)
C3_2 C 0.4883(5) 0.15644(17) 0.5209(5)
C4_3 C 0.4576(4) 0.11324(16) 0.4296(5)
O6_2 O 0.9139(3) 0.27852(13) 0.7863(4)
C6_3 C 0.5010(4) 0.03411(16) 0.3640(5)
H3_3 H 0.5555 0.0064 0.3800
C7_3 C 0.8983(4) 0.54460(15) 0.6806(5)
H4_3 H 0.8893 0.5502 0.5802
H5_3 H 0.9017 0.5098 0.6965
N3_2 N 0.5214(4) 0.14899(14) 0.6558(4)
H6_2 H 0.5263 0.1194 0.6858
C8_3 C 0.7750(4) 0.56551(15) 0.7281(5)
C9_2 C 0.7658(4) 0.34316(16) 0.7081(5)
C10_3 C 0.6425(4) 0.54476(15) 0.6463(5)
C11_3 C 0.5349(4) 0.07211(16) 0.4524(5)
H7_2 H 0.6100 0.0702 0.5277
N4_2 N 0.7130(4) 0.27892(13) 0.8533(4)
H8_2 H 0.6388 0.2949 0.8549
C12_3 C 0.7914(4) 0.55599(18) 0.8845(5)
H9_3 H 0.7940 0.5213 0.9015
H10_3 H 0.7132 0.5693 0.9173
C14_3 C 0.3213(4) 0.07418(17) 0.2351(5)
H13_3 H 0.2456 0.0749 0.1602
C15_2 C 0.8309(4) 0.41165(17) 0.5938(5)
H14_2 H 0.9008 0.4315 0.5753
C17_2 C 0.6322(5) 0.35578(17) 0.6542(5)
H15_2 H 0.5605 0.3373 0.6748
C18_3 C 0.3492(4) 0.11425(16) 0.3155(5)
H16_3 H 0.2961 0.1421 0.2942
C19_2 C 0.8649(5) 0.37240(16) 0.6773(5)
H17_2 H 0.9570 0.3654 0.7139
C21_3 C 0.9016(5) 0.64275(17) 0.7852(6)
H20_3 H 0.8982 0.6779 0.7693
C22_2 C 0.7340(5) 0.23279(17) 0.9226(5)
H21_2 H 0.8290 0.2302 0.9725
H22_2 H 0.6760 0.2305 0.9916
C23_2 C 0.5506(5) 0.18758(17) 0.7585(5)
H23_2 H 0.5177 0.2181 0.7139
H24_2 H 0.5018 0.1815 0.8338
C24_2 C 0.6053(4) 0.39566(17) 0.5701(5)
H25_2 H 0.5138 0.4038 0.5345
C25_3 C 0.9217(4) 0.57883(19) 0.9650(5)
C26_2 C 0.7015(5) 0.19159(16) 0.8199(5)
H27_2 H 0.7334 0.1615 0.8675
H28_2 H 0.7505 0.1963 0.7440
C27_3 C 0.9142(5) 0.63269(19) 0.9395(6)
H29_3 H 0.9965 0.6481 0.9929
H30_3 H 0.8354 0.6460 0.9711
N5_2 N 0.6049(3) 0.53392(13) 0.2437(4)
O2_4 O 0.3575(3) 0.02467(11) 0.9666(3)
C1_4 C 0.2286(4) 0.11976(16) 0.7971(5)
H1_4 H 0.3077 0.1337 0.7676
H2_4 H 0.2371 0.1262 0.8970
C7_4 C 0.1017(4) 0.04460(15) 0.8194(5)
H4_4 H 0.1107 0.0502 0.9198
H5_4 H 0.0983 0.0098 0.8035
C8_4 C 0.2250(4) 0.06551(15) 0.7719(5)
C10_4 C 0.3575(4) 0.04476(15) 0.8537(5)
C12_4 C 0.2086(4) 0.05599(18) 0.6155(5)
H9_4 H 0.2060 0.0213 0.5985
H10_4 H 0.2868 0.0693 0.5827
C21_4 C 0.0984(5) 0.14275(17) 0.7148(6)
H20_4 H 0.1018 0.1779 0.7307
C25_4 C 0.0783(4) 0.07883(19) 0.5350(5)
H26_2 H 0.0689 0.0723 0.4339
C27_4 C 0.0858(5) 0.13269(19) 0.5605(6)
H29_4 H 0.0035 0.1481 0.5071
H30_4 H 0.1646 0.1460 0.5289
O5_4 O 0.5187(4) 0.69644(12) 0.0327(4)
C4_4 C 0.5424(4) 0.61324(16) 0.0704(5)
C6_4 C 0.4990(4) 0.53411(16) 0.1360(5)
H3_4 H 0.4445 0.5064 0.1200
C11_4 C 0.4651(4) 0.57211(16) 0.0476(5)
C14_4 C 0.6787(4) 0.57418(17) 0.2649(5)
H13_4 H 0.7544 0.5749 0.3398
C18_4 C 0.6508(4) 0.61425(16) 0.1845(5)
H16_4 H 0.7039 0.6421 0.2058
C5_4 C 0.9703(4) 0.06736(15) 0.7404(4)
C13_4 C 0.9770(4) 0.12188(16) 0.7643(5)
H11_4 H 0.9851 0.1288 0.8640
H12_4 H 0.8931 0.1368 0.7130
C16_4 C 0.8484(4) 0.04777(16) 0.7888(4)
C20_4 C 0.9564(4) 0.05835(19) 0.5847(5)
H18_4 H 0.8728 0.0735 0.5332
H19_4 H 0.9501 0.0237 0.5663
H26_3 H 0.0689 0.4277 0.9339
N2_3 N 0.7006(3) 0.07692(13) 0.0368(4)
C2_3 C 0.8044(5) 0.20248(16) 0.2870(5)
C3_3 C 0.4883(5) 0.34356(17) 0.0209(5)
O6_3 O 0.9139(3) 0.22148(13) 0.2863(4)
N3_3 N 0.5214(4) 0.35101(14) 0.1558(4)
H6_3 H 0.5263 0.3806 0.1858
C9_3 C 0.7658(4) 0.15684(16) 0.2081(5)
H7_3 H 0.6100 0.4298 0.0277
N4_3 N 0.7130(4) 0.22108(13) 0.3533(4)
H8_3 H 0.6388 0.2051 0.3549
C15_3 C 0.8309(4) 0.08835(17) 0.0938(5)
H14_3 H 0.9008 0.0685 0.0753
C17_3 C 0.6322(5) 0.14422(17) 0.1542(5)
H15_3 H 0.5605 0.1627 0.1748
C19_3 C 0.8649(5) 0.12760(16) 0.1773(5)
H17_3 H 0.9570 0.1346 0.2139
C22_3 C 0.7340(5) 0.26721(17) 0.4226(5)
H21_3 H 0.8290 0.2698 0.4725
H22_3 H 0.6760 0.2695 0.4916
C23_3 C 0.5506(5) 0.31242(17) 0.2585(5)
H23_3 H 0.5177 0.2819 0.2139
H24_3 H 0.5018 0.3185 0.3338
C24_3 C 0.6053(4) 0.10434(17) 0.0701(5)
H25_3 H 0.5138 0.0962 0.0345
C26_3 C 0.7015(5) 0.30841(16) 0.3199(5)
H27_3 H 0.7334 0.3385 0.3675
H28_3 H 0.7505 0.3037 0.2440
H26_4 H 0.9311 0.5723 0.0661
N2_4 N 0.2994(3) 0.92308(13) 0.9632(4)
C2_4 C 0.1956(5) 0.79752(16) 0.7130(5)
C3_4 C 0.5117(5) 0.65644(17) 0.9791(5)
O6_4 O 0.0861(3) 0.77852(13) 0.7137(4)
N3_4 N 0.4786(4) 0.64899(14) 0.8442(4)
H6_4 H 0.4737 0.6194 0.8142
C9_4 C 0.2342(4) 0.84316(16) 0.7919(5)
H7_4 H 0.3900 0.5702 0.9723
N4_4 N 0.2870(4) 0.77892(13) 0.6467(4)
H8_4 H 0.3612 0.7949 0.6451
C15_4 C 0.1691(4) 0.91165(17) 0.9062(5)
H14_4 H 0.0992 0.9315 0.9247
C17_4 C 0.3678(5) 0.85578(17) 0.8458(5)
H15_4 H 0.4395 0.8373 0.8252
C19_4 C 0.1351(5) 0.87240(16) 0.8227(5)
H17_4 H 0.0430 0.8654 0.7861
C22_4 C 0.2660(5) 0.73279(17) 0.5774(5)
H21_4 H 0.1710 0.7302 0.5275
H22_4 H 0.3240 0.7305 0.5084
C23_4 C 0.4494(5) 0.68758(17) 0.7415(5)
H23_4 H 0.4823 0.7181 0.7861
H24_4 H 0.4982 0.6815 0.6662
C24_4 C 0.3947(4) 0.89566(17) 0.9299(5)
H25_4 H 0.4862 0.9038 0.9655
C26_4 C 0.2985(5) 0.69159(16) 0.6801(5)
H27_4 H 0.2666 0.6615 0.6325
H28_4 H 0.2495 0.6963 0.7560
loop_
_geom_bond_atom_site_label_1
_geom_bond_atom_site_label_2
_geom_bond_site_symmetry_1
_geom_bond_site_symmetry_2
Ni1 O2 1_555 1_555
O2 C10 1_555 1_555
O3 C10 1_555 1_555
N1 C6 1_555 1_555
N2 Ni1 1_555 1_555
O5 C3 1_555 1_555
C1 H1 1_555 1_555
H2 C1 1_555 1_555
C2 O6 1_555 1_555
C3 C4 1_555 1_555
C4 C11 1_555 1_555
C6 H3 1_555 1_555
C7 H4 1_555 1_555
H5 C7 1_555 1_555
N3 C3 1_555 1_555
H6 N3 1_555 1_555
C8 C1 1_555 1_555
C9 C2 1_555 1_555
C10 C8 1_555 1_555
C11 C6 1_555 1_555
H7 C11 1_555 1_555
N4 C2 1_555 1_555
H8 N4 1_555 1_555
C12 C8 1_555 1_555
H9 C12 1_555 1_555
H10 C12 1_555 1_555
C14 N1 1_555 1_555
H13 C14 1_555 1_555
C15 N2 1_555 1_555
H14 C15 1_555 1_555
C17 C9 1_555 1_555
H15 C17 1_555 1_555
C18 C4 1_555 1_555
H16 C18 1_555 1_555
C19 C9 1_555 1_555
H17 C19 1_555 1_555
C21 C1 1_555 1_555
H20 C21 1_555 1_555
C22 N4 1_555 1_555
H21 C22 1_555 1_555
H22 C22 1_555 1_555
C23 N3 1_555 1_555
H23 C23 1_555 1_555
H24 C23 1_555 1_555
C24 N2 1_555 1_555
H25 C24 1_555 1_555
C25 C12 1_555 1_555
C26 C22 1_555 1_555
H27 C26 1_555 1_555
H28 C26 1_555 1_555
C27 C21 1_555 1_555
H29 C27 1_555 1_555
H30 C27 1_555 1_555
Ni4 O3 1_555 1_555
O7 Ni1 1_555 1_555
O8 Ni1 1_555 1_555
O9 Ni1 1_555 1_555
N5 Ni1 1_555 1_555
C7 C8 1_555 1_555
C14 C18 1_555 1_555
C15 C19 1_555 1_555
C17 C24 1_555 1_555
C23 C26 1_555 1_555
C25 C27 1_555 1_555
O1 C16 1_555 1_555
O4 C16 1_555 1_555
C13 C5 1_555 1_555
H11 C13 1_555 1_555
H12 C13 1_555 1_555
C16 C5 1_555 1_555
C20 C5 1_555 1_555
H18 C20 1_555 1_555
H19 C20 1_555 1_555
Ni4 O1 1_555 1_555
O4 Ni4 1_555 1_555
O1_2 C16_2 1_555 1_555
O4_2 C16_2 1_555 1_555
C13_2 C5_2 1_555 1_555
H11_2 C13_2 1_555 1_555
H12_2 C13_2 1_555 1_555
C16_2 C5_2 1_555 1_555
C20_2 C5_2 1_555 1_555
H18_2 C20_2 1_555 1_555
H19_2 C20_2 1_555 1_555
Ni3 O1_2 1_555 1_555
O4_2 Ni3 1_555 1_555
N5 C6_2 1_555 1_555
C4_2 C11_2 1_555 1_555
C6_2 H3_2 1_555 1_555
C11_2 C6_2 1_555 1_555
C14_2 N5 1_555 1_555
H13_2 C14_2 1_555 1_555
C18_2 C4_2 1_555 1_555
H16_2 C18_2 1_555 1_555
O7_2 Ni2 1_555 1_555
O8_2 Ni2 1_555 1_555
O9_2 Ni2 1_555 1_555
C14_2 C18_2 1_555 1_555
O2_2 C10_2 1_555 1_555
O3_2 C10_2 1_555 1_555
C1_2 H1_2 1_555 1_555
H2_2 C1_2 1_555 1_555
C7_2 H4_2 1_555 1_555
H5_2 C7_2 1_555 1_555
C8_2 C1_2 1_555 1_555
C10_2 C8_2 1_555 1_555
C12_2 C8_2 1_555 1_555
H9_2 C12_2 1_555 1_555
H10_2 C12_2 1_555 1_555
C21_2 C1_2 1_555 1_555
H20_2 C21_2 1_555 1_555
C25_2 C12_2 1_555 1_555
H26 C25_2 1_555 1_555
C27_2 C21_2 1_555 1_555
H29_2 C27_2 1_555 1_555
H30_2 C27_2 1_555 1_555
Ni3 O3_2 1_555 1_555
C7_2 C8_2 1_555 1_555
C25_2 C27_2 1_555 1_555
O7 C16_3 1_555 1_555
O9 C16_3 1_555 1_555
C13_3 C5_3 1_555 1_555
H11_3 C13_3 1_555 1_555
H12_3 C13_3 1_555 1_555
C16_3 C5_3 1_555 1_555
C20_3 C5_3 1_555 1_555
H18_3 C20_3 1_555 1_555
H19_3 C20_3 1_555 1_555
Ni4 O2_3 1_555 1_555
O2_3 C10_3 1_555 1_555
O8 C10_3 1_555 1_555
N1_2 C6_3 1_555 1_555
N2_2 Ni4 1_555 1_555
O5_3 C3_2 1_555 1_555
C1_3 H1_3 1_555 1_555
H2_3 C1_3 1_555 1_555
C2_2 O6_2 1_555 1_555
C3_2 C4_3 1_555 1_555
C4_3 C11_3 1_555 1_555
C6_3 H3_3 1_555 1_555
C7_3 H4_3 1_555 1_555
H5_3 C7_3 1_555 1_555
N3_2 C3_2 1_555 1_555
H6_2 N3_2 1_555 1_555
C8_3 C1_3 1_555 1_555
C9_2 C2_2 1_555 1_555
C10_3 C8_3 1_555 1_555
C11_3 C6_3 1_555 1_555
H7_2 C11_3 1_555 1_555
N4_2 C2_2 1_555 1_555
H8_2 N4_2 1_555 1_555
C12_3 C8_3 1_555 1_555
H9_3 C12_3 1_555 1_555
H10_3 C12_3 1_555 1_555
C14_3 N1_2 1_555 1_555
H13_3 C14_3 1_555 1_555
C15_2 N2_2 1_555 1_555
H14_2 C15_2 1_555 1_555
C17_2 C9_2 1_555 1_555
H15_2 C17_2 1_555 1_555
C18_3 C4_3 1_555 1_555
H16_3 C18_3 1_555 1_555
C19_2 C9_2 1_555 1_555
H17_2 C19_2 1_555 1_555
C21_3 C1_3 1_555 1_555
H20_3 C21_3 1_555 1_555
C22_2 N4_2 1_555 1_555
H21_2 C22_2 1_555 1_555
H22_2 C22_2 1_555 1_555
C23_2 N3_2 1_555 1_555
H23_2 C23_2 1_555 1_555
H24_2 C23_2 1_555 1_555
C24_2 N2_2 1_555 1_555
H25_2 C24_2 1_555 1_555
C25_3 C12_3 1_555 1_555
C26_2 C22_2 1_555 1_555
H27_2 C26_2 1_555 1_555
H28_2 C26_2 1_555 1_555
C27_3 C21_3 1_555 1_555
H29_3 C27_3 1_555 1_555
H30_3 C27_3 1_555 1_555
N5_2 Ni4 1_555 1_555
C7_3 C8_3 1_555 1_555
C14_3 C18_3 1_555 1_555
C15_2 C19_2 1_555 1_555
C17_2 C24_2 1_555 1_555
C23_2 C26_2 1_555 1_555
C25_3 C27_3 1_555 1_555
O2_4 C10_4 1_555 1_555
O8_2 C10_4 1_555 1_555
C1_4 H1_4 1_555 1_555
H2_4 C1_4 1_555 1_555
C7_4 H4_4 1_555 1_555
H5_4 C7_4 1_555 1_555
C8_4 C1_4 1_555 1_555
C10_4 C8_4 1_555 1_555
C12_4 C8_4 1_555 1_555
H9_4 C12_4 1_555 1_555
H10_4 C12_4 1_555 1_555
C21_4 C1_4 1_555 1_555
H20_4 C21_4 1_555 1_555
C25_4 C12_4 1_555 1_555
H26_2 C25_4 1_555 1_555
C27_4 C21_4 1_555 1_555
H29_4 C27_4 1_555 1_555
H30_4 C27_4 1_555 1_555
C7_4 C8_4 1_555 1_555
C25_4 C27_4 1_555 1_555
N5_2 C6_4 1_555 1_555
C4_4 C11_4 1_555 1_555
C6_4 H3_4 1_555 1_555
C11_4 C6_4 1_555 1_555
C14_4 N5_2 1_555 1_555
H13_4 C14_4 1_555 1_555
C18_4 C4_4 1_555 1_555
H16_4 C18_4 1_555 1_555
C14_4 C18_4 1_555 1_555
O7_2 C16_4 1_555 1_555
O9_2 C16_4 1_555 1_555
C13_4 C5_4 1_555 1_555
H11_4 C13_4 1_555 1_555
H12_4 C13_4 1_555 1_555
C16_4 C5_4 1_555 1_555
C20_4 C5_4 1_555 1_555
H18_4 C20_4 1_555 1_555
H19_4 C20_4 1_555 1_555
C2_3 O6_3 1_555 1_555
N3_3 C3_3 1_555 1_555
H6_3 N3_3 1_555 1_555
C9_3 C2_3 1_555 1_555
N4_3 C2_3 1_555 1_555
H8_3 N4_3 1_555 1_555
C15_3 N2_3 1_555 1_555
H14_3 C15_3 1_555 1_555
C17_3 C9_3 1_555 1_555
H15_3 C17_3 1_555 1_555
C19_3 C9_3 1_555 1_555
H17_3 C19_3 1_555 1_555
C22_3 N4_3 1_555 1_555
H21_3 C22_3 1_555 1_555
H22_3 C22_3 1_555 1_555
C23_3 N3_3 1_555 1_555
H23_3 C23_3 1_555 1_555
H24_3 C23_3 1_555 1_555
C24_3 N2_3 1_555 1_555
H25_3 C24_3 1_555 1_555
C26_3 C22_3 1_555 1_555
H27_3 C26_3 1_555 1_555
H28_3 C26_3 1_555 1_555
C15_3 C19_3 1_555 1_555
C17_3 C24_3 1_555 1_555
C23_3 C26_3 1_555 1_555
C2_4 O6_4 1_555 1_555
N3_4 C3_4 1_555 1_555
H6_4 N3_4 1_555 1_555
C9_4 C2_4 1_555 1_555
N4_4 C2_4 1_555 1_555
H8_4 N4_4 1_555 1_555
C15_4 N2_4 1_555 1_555
H14_4 C15_4 1_555 1_555
C17_4 C9_4 1_555 1_555
H15_4 C17_4 1_555 1_555
C19_4 C9_4 1_555 1_555
H17_4 C19_4 1_555 1_555
C22_4 N4_4 1_555 1_555
H21_4 C22_4 1_555 1_555
H22_4 C22_4 1_555 1_555
C23_4 N3_4 1_555 1_555
H23_4 C23_4 1_555 1_555
H24_4 C23_4 1_555 1_555
C24_4 N2_4 1_555 1_555
H25_4 C24_4 1_555 1_555
C26_4 C22_4 1_555 1_555
H27_4 C26_4 1_555 1_555
H28_4 C26_4 1_555 1_555
C15_4 C19_4 1_555 1_555
C17_4 C24_4 1_555 1_555
C23_4 C26_4 1_555 1_555

#END
