
###############################################################################
#
# This file contains modified crystal structure data generated from the
# MOF subset of the Cambridge Structural Database (CSD) v543 
# hosted by the Cambridge Crystallographic Data Centre (CCDC).
#
# This work is licensed under the Creative Commons
# Attribution-NonCommercial-ShareAlike 4.0 International License.
# To view a copy of this license, visit
# http://creativecommons.org/licenses/by-nc-sa/4.0/
# or send a letter to
# Creative Commons, PO Box 1866, Mountain View, CA 94042, USA.
#
# CIF created using the CSD Python API on 29 September 2022
# The structure has been converted into the P1 space group
# The structure has a 3D framework
# The original CSD entry LETROT is in the monoclinic crystal system
# The framework has been calculated to contain at least 10.0% void space
# The void calculation uses a probe of radius 1.32A, grid spacing 0.4
#
###############################################################################

data_LETROT
_chemical_formula_moiety         '(C56 H32 N24 O24 Zn7)n'
_symmetry_cell_setting           triclinic
_symmetry_space_group_name_H-M   'P 1'
_symmetry_Int_Tables_number      1
_space_group_name_Hall           'P 1'
loop_
_symmetry_equiv_pos_site_id
_symmetry_equiv_pos_as_xyz
1 x,y,z
_cell_length_a                   19.092(3)
_cell_length_b                   10.3933(16)
_cell_length_c                   11.0647(17)
_cell_angle_alpha                90
_cell_angle_beta                 90.418(2)
_cell_angle_gamma                90
_cell_volume                     2195.5
loop_
_atom_site_label
_atom_site_type_symbol
_atom_site_fract_x
_atom_site_fract_y
_atom_site_fract_z
Zn3 Zn -0.0000 0.62220(8) 0.2500
Zn1 Zn 0.5000 0.12220(8) 0.2500
O1 O 0.63320(18) 0.2243(4) 0.0582(3)
O2 O 0.57893(18) 0.2543(4) 0.2352(3)
O3 O 0.48529(16) 0.1067(3) 0.0656(3)
H1 H 0.4554 0.0482 0.0502
N1 N 0.8792(2) 0.4619(4) 0.3633(3)
N2 N 0.91558(19) 0.4702(4) 0.2615(3)
N3 N 0.8781(2) 0.4295(4) 0.1670(3)
C1 C 0.8149(3) 0.4140(5) 0.3337(4)
C2 C 0.8142(2) 0.3926(5) 0.2097(4)
C3 C 0.7534(3) 0.3447(5) 0.1510(4)
H2 H 0.7523 0.3304 0.0681
C4 C 0.6965(3) 0.3204(5) 0.2216(4)
C5 C 0.6972(3) 0.3438(6) 0.3472(4)
H3 H 0.6570 0.3275 0.3916
C6 C 0.7559(3) 0.3902(6) 0.4058(4)
H4 H 0.7566 0.4049 0.4887
C7 C 0.6307(3) 0.2631(5) 0.1660(4)
Zn3_2 Zn 1.0000 0.62220(8) 0.2500
Zn6 Zn 0.92284(3) 0.55949(6) 0.50382(4)
Zn7 Zn 0.92284(3) 0.44051(6) 0.00382(4)
Zn9 Zn 0.42284(3) 0.05949(6) 0.50382(4)
O4 O 0.36680(18) 0.2243(4) 0.4418(3)
O6 O 0.42107(18) 0.2543(4) 0.2648(3)
O8 O 0.51471(16) 0.1067(3) 0.4344(3)
H5 H 0.5446 0.0482 0.4498
N10 N 0.3781(2) 0.0705(4) 0.6670(3)
Zn2 Zn 0.57716(3) 0.05949(6) 0.99618(4)
N8 N 0.6219(2) 0.0705(4) 0.8330(3)
Zn5 Zn 0.42284(3) 0.94051(6) 0.00382(4)
Zn8 Zn 0.57716(3) 0.94051(6) 0.49618(4)
O5 O 0.13320(18) 0.7243(4) 0.0582(3)
O7 O 0.07893(18) 0.7543(4) 0.2352(3)
O10 O 0.48529(16) 0.8933(3) 0.5656(3)
H7 H 0.4554 0.9518 0.5502
N4 N 0.6208(2) 0.9619(4) 0.1367(3)
N5 N 0.3792(2) 0.9619(4) 0.3633(3)
N6 N 0.58442(19) 0.9702(4) 0.2385(3)
N7 N 0.41558(19) 0.9702(4) 0.2615(3)
N9 N 0.3781(2) 0.9295(4) 0.1670(3)
C8 C 0.3149(3) 0.9140(5) 0.3337(4)
C9 C 0.3142(2) 0.8926(5) 0.2097(4)
C10 C 0.2534(3) 0.8447(5) 0.1510(4)
H8 H 0.2523 0.8304 0.0681
C11 C 0.1965(3) 0.8204(5) 0.2216(4)
C12 C 0.1972(3) 0.8438(6) 0.3472(4)
H9 H 0.1570 0.8275 0.3916
C13 C 0.2559(3) 0.8902(6) 0.4058(4)
H10 H 0.2566 0.9049 0.4887
C14 C 0.1307(3) 0.7631(5) 0.1660(4)
Zn10 Zn 0.07716(3) 0.55949(6) 0.99618(4)
O9 O 0.51471(16) 0.8933(3) 0.9344(3)
H6 H 0.5446 0.9518 0.9498
N1_2 N 0.1208(2) 0.4619(4) 0.1367(3)
N2_2 N 0.08442(19) 0.4702(4) 0.2385(3)
N3_2 N 0.1219(2) 0.4295(4) 0.3330(3)
C1_2 C 0.1851(3) 0.4140(5) 0.1663(4)
C2_2 C 0.1858(2) 0.3926(5) 0.2903(4)
C3_2 C 0.2466(3) 0.3447(5) 0.3490(4)
H2_2 H 0.2477 0.3304 0.4319
C4_2 C 0.3035(3) 0.3204(5) 0.2784(4)
C5_2 C 0.3028(3) 0.3438(6) 0.1528(4)
H3_2 H 0.3430 0.3275 0.1084
C6_2 C 0.2441(3) 0.3902(6) 0.0942(4)
H4_2 H 0.2434 0.4049 0.0113
C7_2 C 0.3693(3) 0.2631(5) 0.3340(4)
Zn7_2 Zn 0.07716(3) 0.44051(6) 0.49618(4)
O5_2 O 0.86680(18) 0.7243(4) 0.4418(3)
O7_2 O 0.92107(18) 0.7543(4) 0.2648(3)
N9_2 N 0.6219(2) 0.9295(4) 0.3330(3)
C8_2 C 0.6851(3) 0.9140(5) 0.1663(4)
C9_2 C 0.6858(2) 0.8926(5) 0.2903(4)
C10_2 C 0.7466(3) 0.8447(5) 0.3490(4)
H8_2 H 0.7477 0.8304 0.4319
C11_2 C 0.8035(3) 0.8204(5) 0.2784(4)
C12_2 C 0.8028(3) 0.8438(6) 0.1528(4)
H9_2 H 0.8430 0.8275 0.1084
C13_2 C 0.7441(3) 0.8902(6) 0.0942(4)
H10_2 H 0.7434 0.9049 0.0113
C14_2 C 0.8693(3) 0.7631(5) 0.3340(4)
O8_2 O 0.01471(16) 0.6067(3) 0.4344(3)
H5_2 H 0.0446 0.5482 0.4498
O9_2 O 0.01471(16) 0.3933(3) 0.9344(3)
H6_2 H 0.0446 0.4518 0.9498
N8_2 N 0.1219(2) 0.5705(4) 0.8330(3)
O3_2 O 0.98529(16) 0.6067(3) 0.0656(3)
H1_2 H 0.9554 0.5482 0.0502
O10_2 O 0.98529(16) 0.3933(3) 0.5656(3)
H7_2 H 0.9554 0.4518 0.5502
N10_2 N 0.8781(2) 0.5705(4) 0.6670(3)
Zn4 Zn 0.0000 0.37780(8) 0.7500
Zn4_2 Zn 1.0000 0.37780(8) 0.7500
O5_3 O 0.86680(18) 0.2757(4) 0.9418(3)
O7_3 O 0.92107(18) 0.2457(4) 0.7648(3)
N4_2 N 0.3792(2) 0.0381(4) 0.8633(3)
N5_2 N 0.6208(2) 0.0381(4) 0.6367(3)
N6_2 N 0.41558(19) 0.0298(4) 0.7615(3)
N7_2 N 0.58442(19) 0.0298(4) 0.7385(3)
C8_3 C 0.6851(3) 0.0860(5) 0.6663(4)
C9_3 C 0.6858(2) 0.1074(5) 0.7903(4)
C10_3 C 0.7466(3) 0.1553(5) 0.8490(4)
H8_3 H 0.7477 0.1696 0.9319
C11_3 C 0.8035(3) 0.1796(5) 0.7784(4)
C12_3 C 0.8028(3) 0.1562(6) 0.6528(4)
H9_3 H 0.8430 0.1725 0.6084
C13_3 C 0.7441(3) 0.1098(6) 0.5942(4)
H10_3 H 0.7434 0.0951 0.5113
C14_3 C 0.8693(3) 0.2369(5) 0.8340(4)
Zn1_2 Zn 0.5000 0.87780(8) 0.7500
O1_2 O 0.36680(18) 0.7757(4) 0.9418(3)
O2_2 O 0.42107(18) 0.7457(4) 0.7648(3)
N1_3 N 0.1208(2) 0.5381(4) 0.6367(3)
N2_3 N 0.08442(19) 0.5298(4) 0.7385(3)
C1_3 C 0.1851(3) 0.5860(5) 0.6663(4)
C2_3 C 0.1858(2) 0.6074(5) 0.7903(4)
C3_3 C 0.2466(3) 0.6553(5) 0.8490(4)
H2_3 H 0.2477 0.6696 0.9319
C4_3 C 0.3035(3) 0.6796(5) 0.7784(4)
C5_3 C 0.3028(3) 0.6562(6) 0.6528(4)
H3_3 H 0.3430 0.6725 0.6084
C6_3 C 0.2441(3) 0.6098(6) 0.5942(4)
H4_3 H 0.2434 0.5951 0.5113
C7_3 C 0.3693(3) 0.7369(5) 0.8340(4)
O4_2 O 0.63320(18) 0.7757(4) 0.5582(3)
O6_2 O 0.57893(18) 0.7457(4) 0.7352(3)
O5_4 O 0.13320(18) 0.2757(4) 0.5582(3)
O7_4 O 0.07893(18) 0.2457(4) 0.7352(3)
C8_4 C 0.3149(3) 0.0860(5) 0.8337(4)
C9_4 C 0.3142(2) 0.1074(5) 0.7097(4)
C10_4 C 0.2534(3) 0.1553(5) 0.6510(4)
H8_4 H 0.2523 0.1696 0.5681
C11_4 C 0.1965(3) 0.1796(5) 0.7216(4)
C12_4 C 0.1972(3) 0.1562(6) 0.8472(4)
H9_4 H 0.1570 0.1725 0.8916
C13_4 C 0.2559(3) 0.1098(6) 0.9058(4)
H10_4 H 0.2566 0.0951 0.9887
C14_4 C 0.1307(3) 0.2369(5) 0.6660(4)
N1_4 N 0.8792(2) 0.5381(4) 0.8633(3)
N2_4 N 0.91558(19) 0.5298(4) 0.7615(3)
C1_4 C 0.8149(3) 0.5860(5) 0.8337(4)
C2_4 C 0.8142(2) 0.6074(5) 0.7097(4)
C3_4 C 0.7534(3) 0.6553(5) 0.6510(4)
H2_4 H 0.7523 0.6696 0.5681
C4_4 C 0.6965(3) 0.6796(5) 0.7216(4)
C5_4 C 0.6972(3) 0.6562(6) 0.8472(4)
H3_4 H 0.6570 0.6725 0.8916
C6_4 C 0.7559(3) 0.6098(6) 0.9058(4)
H4_4 H 0.7566 0.5951 0.9887
C7_4 C 0.6307(3) 0.7369(5) 0.6660(4)
loop_
_geom_bond_atom_site_label_1
_geom_bond_atom_site_label_2
_geom_bond_site_symmetry_1
_geom_bond_site_symmetry_2
Zn1 O2 1_555 1_555
O1 C7 1_555 1_555
O2 C7 1_555 1_555
O3 Zn1 1_555 1_555
H1 O3 1_555 1_555
N1 N2 1_555 1_555
N2 N3 1_555 1_555
N3 C2 1_555 1_555
C1 N1 1_555 1_555
C2 C1 1_555 1_555
C3 C2 1_555 1_555
H2 C3 1_555 1_555
C4 C3 1_555 1_555
C5 C4 1_555 1_555
H3 C5 1_555 1_555
C6 C1 1_555 1_555
H4 C6 1_555 1_555
C7 C4 1_555 1_555
Zn3_2 N2 1_555 1_555
Zn6 N1 1_555 1_555
Zn7 N3 1_555 1_555
Zn9 O4 1_555 1_555
O6 Zn1 1_555 1_555
O8 Zn1 1_555 1_555
H5 O8 1_555 1_555
N10 Zn9 1_555 1_555
C5 C6 1_555 1_555
Zn9 O8 1_555 1_555
N8 Zn2 1_555 1_555
Zn3 O7 1_555 1_555
O5 C14 1_555 1_555
O7 C14 1_555 1_555
O10 Zn8 1_555 1_555
H7 O10 1_555 1_555
N9 Zn5 1_555 1_555
C8 N5 1_555 1_555
C9 N9 1_555 1_555
C10 C9 1_555 1_555
H8 C10 1_555 1_555
C11 C10 1_555 1_555
C12 C11 1_555 1_555
H9 C12 1_555 1_555
C13 C8 1_555 1_555
H10 C13 1_555 1_555
C14 C11 1_555 1_555
N4 N6 1_555 1_555
N5 N7 1_555 1_555
N7 N9 1_555 1_555
C8 C9 1_555 1_555
C12 C13 1_555 1_555
H6 O9 1_555 1_555
O4 C7_2 1_555 1_555
O6 C7_2 1_555 1_555
N1_2 N2_2 1_555 1_555
N2_2 N3_2 1_555 1_555
N3_2 C2_2 1_555 1_555
C1_2 N1_2 1_555 1_555
C2_2 C1_2 1_555 1_555
C3_2 C2_2 1_555 1_555
H2_2 C3_2 1_555 1_555
C4_2 C3_2 1_555 1_555
C5_2 C4_2 1_555 1_555
H3_2 C5_2 1_555 1_555
C6_2 C1_2 1_555 1_555
H4_2 C6_2 1_555 1_555
C7_2 C4_2 1_555 1_555
Zn3 N2_2 1_555 1_555
Zn7_2 N3_2 1_555 1_555
C5_2 C6_2 1_555 1_555
Zn3_2 O7_2 1_555 1_555
Zn6 O5_2 1_555 1_555
O5_2 C14_2 1_555 1_555
O7_2 C14_2 1_555 1_555
N9_2 Zn8 1_555 1_555
C8_2 N4 1_555 1_555
C9_2 N9_2 1_555 1_555
C10_2 C9_2 1_555 1_555
H8_2 C10_2 1_555 1_555
C11_2 C10_2 1_555 1_555
C12_2 C11_2 1_555 1_555
H9_2 C12_2 1_555 1_555
C13_2 C8_2 1_555 1_555
H10_2 C13_2 1_555 1_555
C14_2 C11_2 1_555 1_555
N6 N9_2 1_555 1_555
C8_2 C9_2 1_555 1_555
C12_2 C13_2 1_555 1_555
Zn7_2 O8_2 1_555 1_555
O8_2 Zn3 1_555 1_555
H5_2 O8_2 1_555 1_555
O9_2 Zn10 1_555 1_555
H6_2 O9_2 1_555 1_555
N8_2 Zn10 1_555 1_555
O3_2 Zn3_2 1_555 1_555
H1_2 O3_2 1_555 1_555
Zn7 O3_2 1_555 1_555
H7_2 O10_2 1_555 1_555
N10_2 Zn6 1_555 1_555
Zn6 O10_2 1_555 1_555
Zn4_2 O7_3 1_555 1_555
O5_3 C14_3 1_555 1_555
O7_3 C14_3 1_555 1_555
C8_3 N5_2 1_555 1_555
C9_3 N8 1_555 1_555
C10_3 C9_3 1_555 1_555
H8_3 C10_3 1_555 1_555
C11_3 C10_3 1_555 1_555
C12_3 C11_3 1_555 1_555
H9_3 C12_3 1_555 1_555
C13_3 C8_3 1_555 1_555
H10_3 C13_3 1_555 1_555
C14_3 C11_3 1_555 1_555
N4_2 N6_2 1_555 1_555
N5_2 N7_2 1_555 1_555
N7_2 N8 1_555 1_555
C8_3 C9_3 1_555 1_555
C12_3 C13_3 1_555 1_555
Zn1_2 O2_2 1_555 1_555
O1_2 C7_3 1_555 1_555
O2_2 C7_3 1_555 1_555
O9 Zn1_2 1_555 1_555
N1_3 N2_3 1_555 1_555
N2_3 N8_2 1_555 1_555
N8_2 C2_3 1_555 1_555
C1_3 N1_3 1_555 1_555
C2_3 C1_3 1_555 1_555
C3_3 C2_3 1_555 1_555
H2_3 C3_3 1_555 1_555
C4_3 C3_3 1_555 1_555
C5_3 C4_3 1_555 1_555
H3_3 C5_3 1_555 1_555
C6_3 C1_3 1_555 1_555
H4_3 C6_3 1_555 1_555
C7_3 C4_3 1_555 1_555
Zn4 N2_3 1_555 1_555
Zn7_2 N1_3 1_555 1_555
Zn8 O4_2 1_555 1_555
O6_2 Zn1_2 1_555 1_555
O10 Zn1_2 1_555 1_555
C5_3 C6_3 1_555 1_555
Zn4 O7_4 1_555 1_555
Zn7_2 O5_4 1_555 1_555
O5_4 C14_4 1_555 1_555
O7_4 C14_4 1_555 1_555
C8_4 N4_2 1_555 1_555
C9_4 N10 1_555 1_555
C10_4 C9_4 1_555 1_555
H8_4 C10_4 1_555 1_555
C11_4 C10_4 1_555 1_555
C12_4 C11_4 1_555 1_555
H9_4 C12_4 1_555 1_555
C13_4 C8_4 1_555 1_555
H10_4 C13_4 1_555 1_555
C14_4 C11_4 1_555 1_555
N6_2 N10 1_555 1_555
C8_4 C9_4 1_555 1_555
C12_4 C13_4 1_555 1_555
O4_2 C7_4 1_555 1_555
O6_2 C7_4 1_555 1_555
N1_4 N2_4 1_555 1_555
N2_4 N10_2 1_555 1_555
N10_2 C2_4 1_555 1_555
C1_4 N1_4 1_555 1_555
C2_4 C1_4 1_555 1_555
C3_4 C2_4 1_555 1_555
H2_4 C3_4 1_555 1_555
C4_4 C3_4 1_555 1_555
C5_4 C4_4 1_555 1_555
H3_4 C5_4 1_555 1_555
C6_4 C1_4 1_555 1_555
H4_4 C6_4 1_555 1_555
C7_4 C4_4 1_555 1_555
Zn4_2 N2_4 1_555 1_555
C5_4 C6_4 1_555 1_555
O9_2 Zn4 1_555 1_555
O10_2 Zn4_2 1_555 1_555

#END
