
###############################################################################
#
# This file contains modified crystal structure data generated from the
# MOF subset of the Cambridge Structural Database (CSD) v543 
# hosted by the Cambridge Crystallographic Data Centre (CCDC).
#
# This work is licensed under the Creative Commons
# Attribution-NonCommercial-ShareAlike 4.0 International License.
# To view a copy of this license, visit
# http://creativecommons.org/licenses/by-nc-sa/4.0/
# or send a letter to
# Creative Commons, PO Box 1866, Mountain View, CA 94042, USA.
#
# CIF created using the CSD Python API on 29 September 2022
# The structure has been converted into the P1 space group
# The structure has a 3D framework
# The original CSD entry LEWRAJ is in the triclinic crystal system
# The framework has been calculated to contain at least 10.0% void space
# The void calculation uses a probe of radius 1.32A, grid spacing 0.4
#
###############################################################################

data_LEWRAJ
_chemical_formula_moiety         '(C20 H30 Cu7 Mo6 N12 O24)n'
_symmetry_cell_setting           triclinic
_symmetry_space_group_name_H-M   'P 1'
_symmetry_Int_Tables_number      1
_space_group_name_Hall           'P 1'
loop_
_symmetry_equiv_pos_site_id
_symmetry_equiv_pos_as_xyz
1 x,y,z
_cell_length_a                   10.005(3)
_cell_length_b                   10.285(2)
_cell_length_c                   13.167(4)
_cell_angle_alpha                106.84(2)
_cell_angle_beta                 96.26(2)
_cell_angle_gamma                111.225(16)
_cell_volume                     1173.57
loop_
_atom_site_label
_atom_site_type_symbol
_atom_site_fract_x
_atom_site_fract_y
_atom_site_fract_z
Cu3 Cu -0.0000 0.0000 0.5000
H1 H 0.0426 0.2172 0.6458
H3 H 0.0308 0.0580 0.2702
H7 H 0.0207 0.4217 0.2312
Cu3_2 Cu -0.0000 1.0000 0.5000
N10 N 0.0468(5) 0.9026(5) 0.5968(4)
O21 O 0.0357(4) 0.8629(4) 0.3824(3)
Cu8 Cu 0.80398(7) 0.18546(7) 0.56954(5)
Mo1 Mo 0.47526(5) 0.14880(5) 0.40120(4)
O1 O 0.6422(4) 0.2349(4) 0.5216(3)
O2 O 0.4633(4) 0.3663(4) 0.5073(3)
O3 O 0.3288(4) 0.1516(4) 0.2844(3)
O4 O 0.5179(5) 0.0179(4) 0.3167(3)
O5 O 0.3403(4) 0.0523(4) 0.4549(3)
O6 O 0.6035(4) 0.3368(4) 0.3538(3)
Cu2 Cu 0.60677(8) 0.38194(7) 0.62917(5)
Mo2 Mo 0.65531(5) 0.53226(5) 0.44028(4)
Mo3 Mo 0.38147(5) 0.27869(5) 0.20740(4)
N1 N 0.8680(5) 0.1743(5) 0.4326(4)
O7 O 0.9643(4) 0.1371(4) 0.6176(3)
N2 N 0.7877(5) 0.2648(5) 0.7226(3)
O8 O 0.7692(4) 0.5600(4) 0.5584(3)
O9 O 0.5435(4) 0.5214(4) 0.7155(3)
N3 N 0.7073(5) 0.3480(5) 0.7483(3)
O10 O 0.7688(4) 0.6361(5) 0.3792(3)
O11 O 0.2155(5) 0.2395(5) 0.1265(3)
O12 O 0.4872(4) 0.2424(4) 0.1184(3)
N4 N 0.9532(5) 0.0974(5) 0.4032(4)
C1 C 0.8422(6) 0.2203(7) 0.3536(4)
Cu3_3 Cu 1.0000 0.0000 0.5000
C2 C 0.9754(6) 0.1011(6) 0.3084(4)
N5 N 0.9065(5) 0.1764(5) 0.2740(4)
H2 H 0.7869 0.2758 0.3523
C3 C 0.8923(6) 0.1974(6) 0.1676(4)
H4 H 0.9660 0.1731 0.1324
C4 C 0.7410(6) 0.0937(6) 0.0936(4)
C5 C 0.9231(7) 0.3572(6) 0.1838(5)
H5 H 0.6661 0.1154 0.1270
H8 H 0.8516 0.3838 0.2189
C7 C 0.9146(7) 0.3802(7) 0.0749(5)
H11 H 0.9290 0.4822 0.0862
H12 H 0.9925 0.3631 0.0432
H13 H 0.6897 0.2999 0.0274
Mo4 Mo 0.34469(5) 0.46774(5) 0.55972(4)
O14 O 0.4565(4) 0.4786(4) 0.2845(3)
O15 O 0.5367(4) 0.6337(4) 0.4927(3)
O16 O 0.3965(4) 0.6632(4) 0.6462(3)
O17 O 0.2312(4) 0.3639(5) 0.6208(3)
O18 O 0.2308(4) 0.4400(4) 0.4416(3)
Mo5 Mo 0.61853(5) 0.72131(5) 0.79260(4)
Cu5 Cu 0.39323(8) 0.61806(7) 0.37083(5)
Mo6 Mo 0.52474(5) 0.85120(5) 0.59880(4)
O22 O 0.6712(4) 0.8484(4) 0.7156(3)
O23 O 0.7845(5) 0.7605(5) 0.8735(3)
O24 O 0.5128(4) 0.7576(4) 0.8816(3)
O25 O 0.3578(4) 0.7651(4) 0.4784(3)
N11 N 0.2927(5) 0.6520(5) 0.2517(3)
O26 O 0.4821(5) 0.9821(4) 0.6833(3)
O27 O 0.6597(4) 0.9477(4) 0.5451(3)
Cu7 Cu 0.19602(7) 0.81454(7) 0.43046(5)
H21 H 0.2764 0.0088 0.9164
C6 C 0.7302(7) 0.1131(6) 0.9837(5)
H9 H 0.7985 0.0819 0.9472
H10 H 0.6311 0.0503 0.9383
C8 C 0.7658(6) 0.2738(6) 0.9974(4)
N6 N 0.7604(5) 0.2899(5) 0.8883(3)
C9 C 0.8190(6) 0.2313(6) 0.8082(4)
C10 C 0.6937(6) 0.3624(6) 0.8479(4)
H14 H 0.8732 0.1757 0.8133
H15 H 0.6449 0.4151 0.8854
C16 C 0.2698(7) 0.8869(6) 0.0163(5)
H24 H 0.2015 0.9181 0.0528
H25 H 0.3689 0.9497 0.0617
C18 C 0.2342(6) 0.7262(6) 0.0026(4)
N13 N 0.2396(5) 0.7101(5) 0.1117(3)
C19 C 0.1810(6) 0.7687(6) 0.1918(4)
C20 C 0.3063(6) 0.6376(6) 0.1521(4)
N16 N 0.2123(5) 0.7352(5) 0.2774(3)
H29 H 0.1268 0.8243 0.1867
H30 H 0.3551 0.5849 0.1146
Cu3_4 Cu 1.0000 1.0000 0.5000
H6 H 0.7236 0.9912 0.0836
N7 N 0.1320(5) 0.8257(5) 0.5674(4)
C11 C 0.1578(6) 0.7797(7) 0.6464(4)
C12 C 0.0246(6) 0.8989(6) 0.6916(4)
N12 N 0.0935(5) 0.8236(5) 0.7260(4)
H17 H 0.2131 0.7242 0.6477
C13 C 0.1077(6) 0.8026(6) 0.8324(4)
H19 H 0.0340 0.8269 0.8676
C14 C 0.2590(6) 0.9063(6) 0.9064(4)
C15 C 0.0769(7) 0.6428(6) 0.8162(5)
H20 H 0.3339 0.8846 0.8730
H23 H 0.1484 0.6162 0.7811
C17 C 0.0854(7) 0.6198(7) 0.9251(5)
H26 H 0.0710 0.5178 0.9138
H27 H 0.0075 0.6369 0.9568
H28 H 0.3103 0.7001 0.9726
H16 H 0.9574 0.7828 0.3542
H18 H 0.9692 0.9420 0.7298
H22 H 0.9793 0.5783 0.7688
loop_
_geom_bond_atom_site_label_1
_geom_bond_atom_site_label_2
_geom_bond_site_symmetry_1
_geom_bond_site_symmetry_2
N10 Cu3_2 1_555 1_555
O21 Cu3_2 1_555 1_555
Mo1 O1 1_555 1_555
O1 Cu8 1_555 1_555
O2 Mo1 1_555 1_555
O3 Mo1 1_555 1_555
O4 Mo1 1_555 1_555
O5 Mo1 1_555 1_555
O6 Mo1 1_555 1_555
Cu8 N1 1_555 1_555
Cu2 O1 1_555 1_555
Mo2 O2 1_555 1_555
Mo3 O3 1_555 1_555
N1 N4 1_555 1_555
O7 Cu8 1_555 1_555
N2 Cu8 1_555 1_555
O8 Cu2 1_555 1_555
O9 Cu2 1_555 1_555
N3 Cu2 1_555 1_555
O10 Mo2 1_555 1_555
O11 Mo3 1_555 1_555
O12 Mo3 1_555 1_555
N4 Cu3_3 1_555 1_555
C1 N1 1_555 1_555
Cu3_3 O7 1_555 1_555
C2 N4 1_555 1_555
N5 C1 1_555 1_555
H2 C1 1_555 1_555
C3 N5 1_555 1_555
H4 C3 1_555 1_555
C4 C3 1_555 1_555
C5 C3 1_555 1_555
H5 C4 1_555 1_555
H8 C5 1_555 1_555
C7 C5 1_555 1_555
H11 C7 1_555 1_555
H12 C7 1_555 1_555
Mo4 O2 1_555 1_555
O14 Mo2 1_555 1_555
O15 Mo2 1_555 1_555
O16 Mo4 1_555 1_555
O17 Mo4 1_555 1_555
O18 Mo4 1_555 1_555
Mo5 O9 1_555 1_555
Cu5 O14 1_555 1_555
Mo6 O15 1_555 1_555
O22 Mo5 1_555 1_555
O23 Mo5 1_555 1_555
O24 Mo5 1_555 1_555
O25 Cu5 1_555 1_555
N11 Cu5 1_555 1_555
O26 Mo6 1_555 1_555
O27 Mo6 1_555 1_555
Cu7 O25 1_555 1_555
O2 Cu2 1_555 1_555
O6 Mo2 1_555 1_555
O6 Mo3 1_555 1_555
Mo2 O8 1_555 1_555
Mo3 O14 1_555 1_555
N2 N3 1_555 1_555
O9 Mo4 1_555 1_555
C2 N5 1_555 1_555
Mo4 O15 1_555 1_555
O15 Cu5 1_555 1_555
O16 Mo5 1_555 1_555
O16 Mo6 1_555 1_555
O18 Cu5 1_555 1_555
Mo6 O22 1_555 1_555
Mo6 O25 1_555 1_555
H9 C6 1_555 1_555
H10 C6 1_555 1_555
C8 C6 1_555 1_555
N6 C8 1_555 1_555
C9 N6 1_555 1_555
C10 N6 1_555 1_555
H14 C9 1_555 1_555
H15 C10 1_555 1_555
N2 C9 1_555 1_555
N3 C10 1_555 1_555
H24 C16 1_555 1_555
H25 C16 1_555 1_555
C18 C16 1_555 1_555
N13 C18 1_555 1_555
C19 N13 1_555 1_555
C20 N13 1_555 1_555
N16 C19 1_555 1_555
H29 C19 1_555 1_555
N11 C20 1_555 1_555
H30 C20 1_555 1_555
Cu7 N16 1_555 1_555
N16 N11 1_555 1_555
N7 Cu7 1_555 1_555
O21 Cu7 1_555 1_555
N10 N7 1_555 1_555
C11 N7 1_555 1_555
C12 N10 1_555 1_555
N12 C11 1_555 1_555
H17 C11 1_555 1_555
C13 N12 1_555 1_555
H19 C13 1_555 1_555
C14 C13 1_555 1_555
C15 C13 1_555 1_555
H20 C14 1_555 1_555
H23 C15 1_555 1_555
C17 C15 1_555 1_555
H26 C17 1_555 1_555
H27 C17 1_555 1_555
C12 N12 1_555 1_555

#END
