
###############################################################################
#
# This file contains modified crystal structure data generated from the
# MOF subset of the Cambridge Structural Database (CSD) v543 
# hosted by the Cambridge Crystallographic Data Centre (CCDC).
#
# This work is licensed under the Creative Commons
# Attribution-NonCommercial-ShareAlike 4.0 International License.
# To view a copy of this license, visit
# http://creativecommons.org/licenses/by-nc-sa/4.0/
# or send a letter to
# Creative Commons, PO Box 1866, Mountain View, CA 94042, USA.
#
# CIF created using the CSD Python API on 29 September 2022
# The structure has been converted into the P1 space group
# The structure has a 3D framework
# The original CSD entry LEYGOO is in the monoclinic crystal system
# The framework has been calculated to contain at least 10.0% void space
# The void calculation uses a probe of radius 1.32A, grid spacing 0.4
#
###############################################################################

data_LEYGOO
_chemical_formula_moiety         '(C92 H52 N12 Ni2 O16)n'
_symmetry_cell_setting           triclinic
_symmetry_space_group_name_H-M   'P 1'
_symmetry_Int_Tables_number      1
_space_group_name_Hall           'P 1'
loop_
_symmetry_equiv_pos_site_id
_symmetry_equiv_pos_as_xyz
1 x,y,z
_cell_length_a                   18.3324(10)
_cell_length_b                   8.4996(5)
_cell_length_c                   20.0672(12)
_cell_angle_alpha                90
_cell_angle_beta                 107.688(6)
_cell_angle_gamma                90
_cell_volume                     2979.01
loop_
_atom_site_label
_atom_site_type_symbol
_atom_site_fract_x
_atom_site_fract_y
_atom_site_fract_z
O6 O 0.6005(2) 0.2655(6) 0.0129(2)
O3 O 0.9374(2) 0.0942(6) 0.4731(2)
O4 O 0.8299(3) 0.0912(9) 0.3847(3)
H6 H 0.9282 0.0766 0.6929
H13 H 0.9146 0.0003 0.5807
C23 C 0.8671(3) 0.0593(8) 0.4448(4)
N1 N 0.9514(3) 0.3986(6) 0.4016(3)
N2 N 0.9512(3) 0.1626(5) 0.3205(2)
C1 C 0.9548(4) 0.5140(11) 0.4464(4)
H1 H 0.9859 0.5014 0.4923
C2 C 0.9134(7) 0.6552(12) 0.4281(6)
H2 H 0.9166 0.7346 0.4608
C3 C 0.8678(6) 0.6706(10) 0.3594(6)
H3 H 0.8396 0.7622 0.3451
C4 C 0.8640(5) 0.5538(9) 0.3130(4)
H4 H 0.8336 0.5652 0.2668
C5 C 0.9054(3) 0.4167(8) 0.3343(3)
C6 C 0.9049(3) 0.2801(7) 0.2879(3)
C7 C 0.8648(3) 0.2691(7) 0.2171(3)
H5 H 0.8339 0.3517 0.1945
C8 C 0.8714(3) 0.1330(7) 0.1803(3)
C9 C 0.9209(3) 0.0136(7) 0.2163(3)
C10 C 0.9586(3) 0.0317(7) 0.2867(3)
C16 C 0.8315(3) 0.1179(7) 0.1056(3)
C17 C 0.7567(3) 0.1780(7) 0.0765(3)
H11 H 0.7325 0.2308 0.1045
C18 C 0.7192(3) 0.1573(6) 0.0051(3)
C21 C 0.8655(3) 0.0403(7) 0.0619(3)
Ni1 Ni 0.50734(4) 0.31757(8) 0.92122(4)
O1 O 0.1102(2) 0.2824(5) 0.4082(2)
O2 O 0.1005(2) 0.2345(6) 0.5129(2)
O3_2 O 0.4374(2) 0.5942(6) 0.4731(2)
O4_2 O 0.3299(3) 0.5912(9) 0.3847(3)
N1_2 N 0.4514(3) 0.1014(6) 0.9016(3)
N2_2 N 0.4512(3) 0.3374(5) 0.8205(2)
N3 N 0.5421(3) 0.5398(6) 0.9000(3)
C5_2 C 0.4054(3) 0.0833(8) 0.8343(3)
C6_2 C 0.4049(3) 0.2199(7) 0.7879(3)
C7_2 C 0.3648(3) 0.2309(7) 0.7171(3)
H5_2 H 0.3339 0.1483 0.6945
C8_2 C 0.3714(3) 0.3670(7) 0.6803(3)
C9_2 C 0.4209(3) 0.4864(7) 0.7163(3)
H6_2 H 0.4282 0.5766 0.6929
C10_2 C 0.4586(3) 0.4683(7) 0.7867(3)
C11 C 0.5127(3) 0.5867(7) 0.8312(3)
C12 C 0.5294(5) 0.7294(9) 0.8070(4)
H7 H 0.5073 0.7568 0.7603
C13 C 0.5790(7) 0.8320(11) 0.8522(6)
H8 H 0.5932 0.9269 0.8368
C14 C 0.6072(7) 0.7854(12) 0.9238(7)
H9 H 0.6375 0.8537 0.9570
C15 C 0.5895(5) 0.6404(10) 0.9430(5)
H10 H 0.6120 0.6094 0.9892
C16_2 C 0.3315(3) 0.3821(7) 0.6056(3)
C17_2 C 0.2567(3) 0.3220(7) 0.5765(3)
H11_2 H 0.2325 0.2692 0.6045
C18_2 C 0.2192(3) 0.3427(6) 0.5051(3)
C19 C 0.2553(3) 0.4181(7) 0.4628(3)
H12 H 0.2305 0.4287 0.4151
C20 C 0.3290(3) 0.4785(7) 0.4916(3)
C21_2 C 0.3655(3) 0.4597(7) 0.5619(3)
H13_2 H 0.4146 0.5003 0.5807
C22 C 0.1382(3) 0.2828(7) 0.4752(3)
C23_2 C 0.3671(3) 0.5593(8) 0.4448(4)
Ni2 Ni 0.50734(4) 0.68243(8) 0.42122(4)
Ni3 Ni 0.00734(4) 0.18243(8) 0.42122(4)
O5 O 0.6102(2) 0.2176(5) 0.9082(2)
O7 O 0.4374(2) 0.4058(6) 0.9731(2)
O2_2 O 0.1005(2) 0.7655(6) 0.0129(2)
N1_3 N 0.4514(3) 0.8986(6) 0.4016(3)
N2_3 N 0.4512(3) 0.6626(5) 0.3205(2)
N3_2 N 0.5421(3) 0.4602(6) 0.4000(3)
C5_3 C 0.4054(3) 0.9167(8) 0.3343(3)
C6_3 C 0.4049(3) 0.7801(7) 0.2879(3)
C7_3 C 0.3648(3) 0.7691(7) 0.2171(3)
H5_3 H 0.3339 0.8517 0.1945
C8_3 C 0.3714(3) 0.6330(7) 0.1803(3)
C9_3 C 0.4209(3) 0.5136(7) 0.2163(3)
H6_3 H 0.4282 0.4234 0.1929
C10_3 C 0.4586(3) 0.5317(7) 0.2867(3)
C11_2 C 0.5127(3) 0.4133(7) 0.3312(3)
C12_2 C 0.5294(5) 0.2706(9) 0.3070(4)
H7_2 H 0.5073 0.2432 0.2603
C13_2 C 0.5790(7) 0.1680(11) 0.3522(6)
H8_2 H 0.5932 0.0731 0.3368
C14_2 C 0.6072(7) 0.2146(12) 0.4238(7)
H9_2 H 0.6375 0.1463 0.4570
C15_2 C 0.5895(5) 0.3596(10) 0.4430(5)
H10_2 H 0.6120 0.3906 0.4892
C16_3 C 0.3315(3) 0.6179(7) 0.1056(3)
C17_3 C 0.2567(3) 0.6780(7) 0.0765(3)
H11_3 H 0.2325 0.7308 0.1045
C18_3 C 0.2192(3) 0.6573(6) 0.0051(3)
C21_3 C 0.3655(3) 0.5403(7) 0.0619(3)
H13_3 H 0.4146 0.4997 0.0807
O5_2 O 0.6102(2) 0.7824(5) 0.4082(2)
O6_2 O 0.6005(2) 0.7345(6) 0.5129(2)
O1_2 O 0.1102(2) 0.7176(5) 0.9082(2)
O4_3 O 0.3299(3) 0.4088(9) 0.8847(3)
C19_2 C 0.2553(3) 0.5819(7) 0.9628(3)
H12_2 H 0.2305 0.5713 0.9151
C20_2 C 0.3290(3) 0.5215(7) 0.9916(3)
C22_2 C 0.1382(3) 0.7172(7) 0.9752(3)
C23_3 C 0.3671(3) 0.4407(8) 0.9448(4)
Ni3_2 Ni 0.00734(4) 0.81757(8) 0.92122(4)
N3_3 N 0.0421(3) 0.0398(6) 0.9000(3)
C11_3 C 0.0127(3) 0.0867(7) 0.8312(3)
C12_3 C 0.0294(5) 0.2294(9) 0.8070(4)
H7_3 H 0.0073 0.2568 0.7603
C13_3 C 0.0790(7) 0.3320(11) 0.8522(6)
H8_3 H 0.0932 0.4269 0.8368
C14_3 C 0.1072(7) 0.2854(12) 0.9238(7)
H9_3 H 0.1375 0.3537 0.9570
C15_3 C 0.0895(5) 0.1404(10) 0.9430(5)
H10_3 H 0.1120 0.1094 0.9892
N1_4 N 0.9514(3) 0.6014(6) 0.9016(3)
N2_4 N 0.9512(3) 0.8374(5) 0.8205(2)
C1_2 C 0.9548(4) 0.4860(11) 0.9464(4)
H1_2 H 0.9859 0.4986 0.9923
C2_2 C 0.9134(7) 0.3448(12) 0.9281(6)
H2_2 H 0.9166 0.2654 0.9608
C3_2 C 0.8678(6) 0.3294(10) 0.8594(6)
H3_2 H 0.8396 0.2378 0.8451
C4_2 C 0.8640(5) 0.4462(9) 0.8130(4)
H4_2 H 0.8336 0.4348 0.7668
C5_4 C 0.9054(3) 0.5833(8) 0.8343(3)
C6_4 C 0.9049(3) 0.7199(7) 0.7879(3)
C7_4 C 0.8648(3) 0.7309(7) 0.7171(3)
H5_4 H 0.8339 0.6483 0.6945
C8_4 C 0.8714(3) 0.8670(7) 0.6803(3)
C9_4 C 0.9209(3) 0.9864(7) 0.7163(3)
C10_4 C 0.9586(3) 0.9683(7) 0.7867(3)
C16_4 C 0.8315(3) 0.8821(7) 0.6056(3)
C17_4 C 0.7567(3) 0.8220(7) 0.5765(3)
H11_4 H 0.7325 0.7692 0.6045
C18_4 C 0.7192(3) 0.8427(6) 0.5051(3)
C19_3 C 0.7553(3) 0.9181(7) 0.4628(3)
H12_3 H 0.7305 0.9287 0.4151
C20_3 C 0.8290(3) 0.9785(7) 0.4916(3)
C21_4 C 0.8655(3) 0.9597(7) 0.5619(3)
C22_3 C 0.6382(3) 0.7828(7) 0.4752(3)
O7_2 O 0.9374(2) 0.9058(6) 0.9731(2)
C19_4 C 0.7553(3) 0.0819(7) 0.9628(3)
H12_4 H 0.7305 0.0713 0.9151
C20_4 C 0.8290(3) 0.0215(7) 0.9916(3)
C22_4 C 0.6382(3) 0.2172(7) 0.9752(3)
O4_4 O 0.8299(3) 0.9088(9) 0.8847(3)
C23_4 C 0.8671(3) 0.9407(8) 0.9448(4)
C1_3 C 0.4548(4) 0.9860(11) 0.9464(4)
H1_3 H 0.4859 0.9986 0.9923
C2_3 C 0.4134(7) 0.8448(12) 0.9281(6)
H2_3 H 0.4166 0.7654 0.9608
C3_3 C 0.3678(6) 0.8294(10) 0.8594(6)
H3_3 H 0.3396 0.7378 0.8451
C4_3 C 0.3640(5) 0.9462(9) 0.8130(4)
H4_3 H 0.3336 0.9348 0.7668
C1_4 C 0.4548(4) 0.0140(11) 0.4464(4)
H1_4 H 0.4859 0.0014 0.4923
C2_4 C 0.4134(7) 0.1552(12) 0.4281(6)
H2_4 H 0.4166 0.2346 0.4608
C3_4 C 0.3678(6) 0.1706(10) 0.3594(6)
H3_4 H 0.3396 0.2622 0.3451
C4_4 C 0.3640(5) 0.0538(9) 0.3130(4)
H4_4 H 0.3336 0.0652 0.2668
N3_4 N 0.0421(3) 0.9602(6) 0.4000(3)
C11_4 C 0.0127(3) 0.9133(7) 0.3312(3)
C12_4 C 0.0294(5) 0.7706(9) 0.3070(4)
H7_4 H 0.0073 0.7432 0.2603
C13_4 C 0.0790(7) 0.6680(11) 0.3522(6)
H8_4 H 0.0932 0.5731 0.3368
C14_4 C 0.1072(7) 0.7146(12) 0.4238(7)
H9_4 H 0.1375 0.6463 0.4570
C15_4 C 0.0895(5) 0.8596(10) 0.4430(5)
H10_4 H 0.1120 0.8906 0.4892
H6_4 H 0.9282 0.9234 0.1929
H13_4 H 0.9146 0.9997 0.0807
loop_
_geom_bond_atom_site_label_1
_geom_bond_atom_site_label_2
_geom_bond_site_symmetry_1
_geom_bond_site_symmetry_2
O3 C23 1_555 1_555
O4 C23 1_555 1_555
N1 C1 1_555 1_555
C1 H1 1_555 1_555
C2 C1 1_555 1_555
H2 C2 1_555 1_555
C3 C2 1_555 1_555
H3 C3 1_555 1_555
C4 C3 1_555 1_555
H4 C4 1_555 1_555
C5 N1 1_555 1_555
C6 N2 1_555 1_555
C7 C6 1_555 1_555
H5 C7 1_555 1_555
C8 C7 1_555 1_555
C9 C8 1_555 1_555
C10 N2 1_555 1_555
C16 C8 1_555 1_555
C17 C16 1_555 1_555
H11 C17 1_555 1_555
C18 C17 1_555 1_555
C21 C16 1_555 1_555
C4 C5 1_555 1_555
C5 C6 1_555 1_555
C9 C10 1_555 1_555
Ni1 N1_2 1_555 1_555
O1 C22 1_555 1_555
O2 C22 1_555 1_555
O3_2 C23_2 1_555 1_555
O4_2 C23_2 1_555 1_555
N2_2 Ni1 1_555 1_555
N3 Ni1 1_555 1_555
C5_2 N1_2 1_555 1_555
C6_2 N2_2 1_555 1_555
C7_2 C6_2 1_555 1_555
H5_2 C7_2 1_555 1_555
C8_2 C7_2 1_555 1_555
C9_2 C8_2 1_555 1_555
H6_2 C9_2 1_555 1_555
C10_2 N2_2 1_555 1_555
C11 N3 1_555 1_555
C12 C11 1_555 1_555
H7 C12 1_555 1_555
C13 C12 1_555 1_555
H8 C13 1_555 1_555
C14 C13 1_555 1_555
H9 C14 1_555 1_555
C15 N3 1_555 1_555
H10 C15 1_555 1_555
C16_2 C8_2 1_555 1_555
C17_2 C16_2 1_555 1_555
H11_2 C17_2 1_555 1_555
C18_2 C17_2 1_555 1_555
C19 C18_2 1_555 1_555
H12 C19 1_555 1_555
C20 C19 1_555 1_555
C21_2 C16_2 1_555 1_555
H13_2 C21_2 1_555 1_555
C22 C18_2 1_555 1_555
C23_2 C20 1_555 1_555
Ni2 O3_2 1_555 1_555
Ni3 O1 1_555 1_555
O5 Ni1 1_555 1_555
O7 Ni1 1_555 1_555
O2 Ni3 1_555 1_555
C5_2 C6_2 1_555 1_555
C9_2 C10_2 1_555 1_555
C10_2 C11 1_555 1_555
C14 C15 1_555 1_555
C20 C21_2 1_555 1_555
Ni2 N1_3 1_555 1_555
N2_3 Ni2 1_555 1_555
N3_2 Ni2 1_555 1_555
C5_3 N1_3 1_555 1_555
C6_3 N2_3 1_555 1_555
C7_3 C6_3 1_555 1_555
H5_3 C7_3 1_555 1_555
C8_3 C7_3 1_555 1_555
C9_3 C8_3 1_555 1_555
H6_3 C9_3 1_555 1_555
C10_3 N2_3 1_555 1_555
C11_2 N3_2 1_555 1_555
C12_2 C11_2 1_555 1_555
H7_2 C12_2 1_555 1_555
C13_2 C12_2 1_555 1_555
H8_2 C13_2 1_555 1_555
C14_2 C13_2 1_555 1_555
H9_2 C14_2 1_555 1_555
C15_2 N3_2 1_555 1_555
H10_2 C15_2 1_555 1_555
C16_3 C8_3 1_555 1_555
C17_3 C16_3 1_555 1_555
H11_3 C17_3 1_555 1_555
C18_3 C17_3 1_555 1_555
C21_3 C16_3 1_555 1_555
H13_3 C21_3 1_555 1_555
O5_2 Ni2 1_555 1_555
O6_2 Ni2 1_555 1_555
C5_3 C6_3 1_555 1_555
C9_3 C10_3 1_555 1_555
C10_3 C11_2 1_555 1_555
C14_2 C15_2 1_555 1_555
O1_2 C22_2 1_555 1_555
O7 C23_3 1_555 1_555
O4_3 C23_3 1_555 1_555
H12_2 C19_2 1_555 1_555
C20_2 C19_2 1_555 1_555
C23_3 C20_2 1_555 1_555
Ni3_2 O1_2 1_555 1_555
C11_3 N3_3 1_555 1_555
C12_3 C11_3 1_555 1_555
H7_3 C12_3 1_555 1_555
C13_3 C12_3 1_555 1_555
H8_3 C13_3 1_555 1_555
C14_3 C13_3 1_555 1_555
H9_3 C14_3 1_555 1_555
C15_3 N3_3 1_555 1_555
H10_3 C15_3 1_555 1_555
C14_3 C15_3 1_555 1_555
O5_2 C22_3 1_555 1_555
O6_2 C22_3 1_555 1_555
N1_4 C1_2 1_555 1_555
C1_2 H1_2 1_555 1_555
C2_2 C1_2 1_555 1_555
H2_2 C2_2 1_555 1_555
C3_2 C2_2 1_555 1_555
H3_2 C3_2 1_555 1_555
C4_2 C3_2 1_555 1_555
H4_2 C4_2 1_555 1_555
C5_4 N1_4 1_555 1_555
C6_4 N2_4 1_555 1_555
C7_4 C6_4 1_555 1_555
H5_4 C7_4 1_555 1_555
C8_4 C7_4 1_555 1_555
C9_4 C8_4 1_555 1_555
C10_4 N2_4 1_555 1_555
C16_4 C8_4 1_555 1_555
C17_4 C16_4 1_555 1_555
H11_4 C17_4 1_555 1_555
C18_4 C17_4 1_555 1_555
C19_3 C18_4 1_555 1_555
H12_3 C19_3 1_555 1_555
C20_3 C19_3 1_555 1_555
C21_4 C16_4 1_555 1_555
C22_3 C18_4 1_555 1_555
C4_2 C5_4 1_555 1_555
C5_4 C6_4 1_555 1_555
C9_4 C10_4 1_555 1_555
C20_3 C21_4 1_555 1_555
O5 C22_4 1_555 1_555
H12_4 C19_4 1_555 1_555
C20_4 C19_4 1_555 1_555
O7_2 C23_4 1_555 1_555
O4_4 C23_4 1_555 1_555
C1_3 H1_3 1_555 1_555
C2_3 C1_3 1_555 1_555
H2_3 C2_3 1_555 1_555
C3_3 C2_3 1_555 1_555
H3_3 C3_3 1_555 1_555
C4_3 C3_3 1_555 1_555
H4_3 C4_3 1_555 1_555
C1_4 H1_4 1_555 1_555
C2_4 C1_4 1_555 1_555
H2_4 C2_4 1_555 1_555
C3_4 C2_4 1_555 1_555
H3_4 C3_4 1_555 1_555
C4_4 C3_4 1_555 1_555
H4_4 C4_4 1_555 1_555
C11_4 N3_4 1_555 1_555
C12_4 C11_4 1_555 1_555
H7_4 C12_4 1_555 1_555
C13_4 C12_4 1_555 1_555
H8_4 C13_4 1_555 1_555
C14_4 C13_4 1_555 1_555
H9_4 C14_4 1_555 1_555
C15_4 N3_4 1_555 1_555
H10_4 C15_4 1_555 1_555
C14_4 C15_4 1_555 1_555

#END
