
###############################################################################
#
# This file contains modified crystal structure data generated from the
# MOF subset of the Cambridge Structural Database (CSD) v543 
# hosted by the Cambridge Crystallographic Data Centre (CCDC).
#
# This work is licensed under the Creative Commons
# Attribution-NonCommercial-ShareAlike 4.0 International License.
# To view a copy of this license, visit
# http://creativecommons.org/licenses/by-nc-sa/4.0/
# or send a letter to
# Creative Commons, PO Box 1866, Mountain View, CA 94042, USA.
#
# CIF created using the CSD Python API on 29 September 2022
# The structure has been converted into the P1 space group
# The structure has a 3D framework
# The original CSD entry LEYTIV is in the orthorhombic crystal system
# The framework has been calculated to contain at least 10.0% void space
# The void calculation uses a probe of radius 1.32A, grid spacing 0.4
#
###############################################################################

data_LEYTIV
_chemical_formula_moiety         '(C108 H80 Cl6 Cu12 N12 O32)n'
_symmetry_cell_setting           triclinic
_symmetry_space_group_name_H-M   'P 1'
_symmetry_Int_Tables_number      1
_space_group_name_Hall           'P 1'
loop_
_symmetry_equiv_pos_site_id
_symmetry_equiv_pos_as_xyz
1 x,y,z
_cell_length_a                   16.261(11)
_cell_length_b                   29.33(2)
_cell_length_c                   14.304(9)
_cell_angle_alpha                90
_cell_angle_beta                 90
_cell_angle_gamma                90
_cell_volume                     6822.08
loop_
_atom_site_label
_atom_site_type_symbol
_atom_site_fract_x
_atom_site_fract_y
_atom_site_fract_z
Cu8 Cu 0.95850(3) 0.30016(2) 0.000000
Cu12 Cu 0.95448(3) 0.20814(2) 0.000000
N3 N 0.4247(3) 0.36382(16) 0.500000
N4 N 0.1810(3) 0.46292(17) 0.500000
H11 H 0.173(6) 0.447(3) 0.556(6)
C15 C 0.3994(3) 0.38344(14) 0.4195(3)
H12 H 0.416169 0.370108 0.362073
C16 C 0.3507(3) 0.42171(14) 0.4165(3)
H13 H 0.334288 0.434426 0.358366
C17 C 0.3259(4) 0.44139(19) 0.500000
C18 C 0.2672(4) 0.4817(2) 0.500000
H14 H 0.273(6) 0.502(3) 0.559(7)
C19 C 0.1184(4) 0.5000(2) 0.500000
H15 H 0.135(6) 0.517(3) 0.440(6)
C20 C 0.0315(4) 0.4810(2) 0.500000
H16 H 0.020(6) 0.461(3) 0.444(7)
H17 H 0.173(6) 0.447(3) 0.444(6)
C21 C 0.3994(3) 0.38344(14) 0.5805(3)
H18 H 0.416169 0.370108 0.637927
C22 C 0.3507(3) 0.42171(14) 0.5835(3)
H19 H 0.334288 0.434426 0.641634
H20 H 0.273(6) 0.502(3) 0.441(7)
H21 H 0.135(6) 0.517(3) 0.560(6)
H22 H 0.020(6) 0.461(3) 0.556(7)
Cu3 Cu 0.45850(3) 0.19984(2) 0.500000
Cu4 Cu 0.45448(3) 0.29186(2) 0.500000
Cl2 Cl 0.46148(9) 0.11691(4) 0.500000
O5 O 0.54309(16) 0.21169(9) 0.4025(2)
O6 O 0.5399(2) 0.28828(11) 0.4054(3)
O7 O 0.8705(2) 0.21874(11) 0.0951(3)
O8 O 0.87197(17) 0.29489(8) 0.09786(19)
C25 C 0.5688(2) 0.25041(13) 0.3790(3)
C26 C 0.64079(15) 0.25266(8) 0.31268(19)
C27 C 0.66815(17) 0.21292(7) 0.2698(2)
H29 H 0.641451 0.184758 0.282264
C28 C 0.73456(17) 0.21440(7) 0.2087(2)
H30 H 0.753257 0.187238 0.179397
C29 C 0.77362(15) 0.25561(8) 0.19047(19)
C30 C 0.74627(17) 0.29535(7) 0.2334(2)
H31 H 0.772969 0.323513 0.220894
C31 C 0.67986(17) 0.29387(7) 0.2945(2)
H32 H 0.661162 0.321034 0.323762
C32 C 0.8447(2) 0.25672(13) 0.1225(3)
O9 O 0.54309(16) 0.21169(9) 0.5975(2)
O10 O 0.5399(2) 0.28828(11) 0.5946(3)
O11 O 0.8705(2) 0.21874(11) 0.9049(3)
O12 O 0.87197(17) 0.29489(8) 0.90214(19)
C33 C 0.5688(2) 0.25041(13) 0.6210(3)
C34 C 0.64079(15) 0.25266(8) 0.68732(19)
C35 C 0.66815(17) 0.21292(7) 0.7302(2)
H33 H 0.641451 0.184758 0.717736
C36 C 0.73456(17) 0.21440(7) 0.7913(2)
H34 H 0.753257 0.187238 0.820603
C37 C 0.77362(15) 0.25561(8) 0.80953(19)
C38 C 0.74627(17) 0.29535(7) 0.7666(2)
H35 H 0.772969 0.323513 0.779106
C39 C 0.67986(17) 0.29387(7) 0.7055(2)
H36 H 0.661162 0.321034 0.676238
C40 C 0.8447(2) 0.25672(13) 0.8775(3)
Cu8_2 Cu 0.95850(3) 0.30016(2) 1.000000
Cu12_2 Cu 0.95448(3) 0.20814(2) 1.000000
O18 O 0.3705(2) 0.28126(11) 0.4049(3)
O19 O 0.3705(2) 0.28126(11) 0.5951(3)
O22 O 0.37197(17) 0.20511(8) 0.40214(19)
O23 O 0.37197(17) 0.20511(8) 0.59786(19)
O5_2 O 0.04309(16) 0.28831(9) 0.0975(2)
O6_2 O 0.0399(2) 0.21172(11) 0.0946(3)
C25_2 C 0.0688(2) 0.24959(13) 0.1210(3)
C26_2 C 0.14079(15) 0.24734(8) 0.18732(19)
C27_2 C 0.16815(17) 0.28708(7) 0.2302(2)
H29_2 H 0.141451 0.315242 0.217736
C28_2 C 0.23456(17) 0.28560(7) 0.2913(2)
H30_2 H 0.253257 0.312762 0.320603
C29_2 C 0.27362(15) 0.24439(8) 0.30953(19)
C30_2 C 0.24627(17) 0.20465(7) 0.2666(2)
H31_2 H 0.272969 0.176487 0.279106
C31_2 C 0.17986(17) 0.20613(7) 0.2055(2)
H32_2 H 0.161162 0.178966 0.176238
C32_2 C 0.3447(2) 0.24328(13) 0.3775(3)
O9_2 O 0.04309(16) 0.28831(9) 0.9025(2)
O10_2 O 0.0399(2) 0.21172(11) 0.9054(3)
C33_2 C 0.0688(2) 0.24959(13) 0.8790(3)
C34_2 C 0.14079(15) 0.24734(8) 0.81268(19)
C35_2 C 0.16815(17) 0.28708(7) 0.7698(2)
H33_2 H 0.141451 0.315242 0.782264
C36_2 C 0.23456(17) 0.28560(7) 0.7087(2)
H34_2 H 0.253257 0.312762 0.679397
C37_2 C 0.27362(15) 0.24439(8) 0.69047(19)
C38_2 C 0.24627(17) 0.20465(7) 0.7334(2)
H35_2 H 0.272969 0.176487 0.720894
C39_2 C 0.17986(17) 0.20613(7) 0.7945(2)
H36_2 H 0.161162 0.178966 0.823762
C40_2 C 0.3447(2) 0.24328(13) 0.6225(3)
C13 C 0.3816(4) 0.0000(2) 0.000000
H9 H 0.365(6) 0.017(3) 0.060(6)
N3_2 N 0.9247(3) 0.13618(16) 0.000000
N4_2 N 0.6810(3) 0.03708(17) 0.000000
C15_2 C 0.8994(3) 0.11656(14) 0.0805(3)
H12_2 H 0.916169 0.129892 0.137927
C16_2 C 0.8507(3) 0.07829(14) 0.0835(3)
H13_2 H 0.834288 0.065574 0.141634
C17_2 C 0.8259(4) 0.05861(19) 0.000000
C18_2 C 0.7672(4) 0.0183(2) 0.000000
C19_2 C 0.6184(4) 0.0000(2) 0.000000
C20_2 C 0.5315(4) 0.0190(2) 0.000000
H16_2 H 0.520(6) 0.039(3) 0.056(7)
H17_2 H 0.673(6) 0.053(3) 0.056(6)
H26 H 0.227(6) 0.002(3) 0.059(7)
Cl2_2 Cl 0.96148(9) 0.38309(4) 0.000000
H8 H 0.227(6) 0.002(3) 0.941(7)
C13_2 C 0.3816(4) 0.0000(2) 1.000000
N3_3 N 0.9247(3) 0.13618(16) 1.000000
N4_3 N 0.6810(3) 0.03708(17) 1.000000
H11_2 H 0.673(6) 0.053(3) 0.944(6)
C17_3 C 0.8259(4) 0.05861(19) 1.000000
C18_3 C 0.7672(4) 0.0183(2) 1.000000
C19_3 C 0.6184(4) 0.0000(2) 1.000000
C20_3 C 0.5315(4) 0.0190(2) 1.000000
C21_2 C 0.8994(3) 0.11656(14) 0.9195(3)
H18_2 H 0.916169 0.129892 0.862073
C22_2 C 0.8507(3) 0.07829(14) 0.9165(3)
H19_2 H 0.834288 0.065574 0.858366
H22_2 H 0.520(6) 0.039(3) 0.944(7)
H27 H 0.365(6) 0.017(3) 0.940(6)
Cl2_3 Cl 0.96148(9) 0.38309(4) 1.000000
Cu6 Cu 0.04150(3) 0.69984(2) 0.000000
Cu10 Cu 0.04552(3) 0.79186(2) 0.000000
Cu1 Cu 0.54150(3) 0.80016(2) 0.500000
Cu2 Cu 0.54552(3) 0.70814(2) 0.500000
Cl1 Cl 0.53852(9) 0.88309(4) 0.500000
O1 O 0.45691(16) 0.78831(9) 0.4025(2)
O2 O 0.4601(2) 0.71172(11) 0.4054(3)
O3 O 0.1295(2) 0.78126(11) 0.0951(3)
O4 O 0.12803(17) 0.70511(8) 0.09786(19)
N1 N 0.5753(3) 0.63618(16) 0.500000
N2 N 0.8190(3) 0.53708(17) 0.500000
H1 H 0.827(6) 0.553(3) 0.556(6)
C1 C 0.4312(2) 0.74959(13) 0.3790(3)
C2 C 0.35921(15) 0.74734(8) 0.31268(19)
C3 C 0.33185(17) 0.78708(7) 0.2698(2)
H2 H 0.358549 0.815242 0.282264
C4 C 0.26544(17) 0.78560(7) 0.2087(2)
H3 H 0.246743 0.812762 0.179397
C5 C 0.22638(15) 0.74439(8) 0.19047(19)
C6 C 0.25373(17) 0.70465(7) 0.2334(2)
H4 H 0.227031 0.676487 0.220894
C7 C 0.32014(17) 0.70613(7) 0.2945(2)
H5 H 0.338838 0.678966 0.323762
C8 C 0.1553(2) 0.74328(13) 0.1225(3)
C9 C 0.6006(3) 0.61656(14) 0.4195(3)
H6 H 0.583831 0.629892 0.362073
C10 C 0.6493(3) 0.57829(14) 0.4165(3)
H7 H 0.665712 0.565574 0.358366
C11 C 0.6741(4) 0.55861(19) 0.500000
C12 C 0.7328(4) 0.5183(2) 0.500000
H8_2 H 0.727(6) 0.498(3) 0.559(7)
C13_3 C 0.8816(4) 0.5000(2) 0.500000
H9_2 H 0.865(6) 0.483(3) 0.440(6)
C14 C 0.9685(4) 0.5190(2) 0.500000
H10 H 0.980(6) 0.539(3) 0.444(7)
H23 H 0.827(6) 0.553(3) 0.444(6)
C23 C 0.6006(3) 0.61656(14) 0.5805(3)
H24 H 0.583831 0.629892 0.637927
C24 C 0.6493(3) 0.57829(14) 0.5835(3)
H25 H 0.665712 0.565574 0.641634
H26_2 H 0.727(6) 0.498(3) 0.441(7)
H27_2 H 0.865(6) 0.483(3) 0.560(6)
H28 H 0.980(6) 0.539(3) 0.556(7)
O13 O 0.45691(16) 0.78831(9) 0.5975(2)
O14 O 0.4601(2) 0.71172(11) 0.5946(3)
O15 O 0.1295(2) 0.78126(11) 0.9049(3)
O16 O 0.12803(17) 0.70511(8) 0.90214(19)
C41 C 0.4312(2) 0.74959(13) 0.6210(3)
C42 C 0.35921(15) 0.74734(8) 0.68732(19)
C43 C 0.33185(17) 0.78708(7) 0.7302(2)
H37 H 0.358549 0.815242 0.717736
C44 C 0.26544(17) 0.78560(7) 0.7913(2)
H38 H 0.246743 0.812762 0.820603
C45 C 0.22638(15) 0.74439(8) 0.80953(19)
C46 C 0.25373(17) 0.70465(7) 0.7666(2)
H39 H 0.227031 0.676487 0.779106
C47 C 0.32014(17) 0.70613(7) 0.7055(2)
H40 H 0.338838 0.678966 0.676238
C48 C 0.1553(2) 0.74328(13) 0.8775(3)
Cu6_2 Cu 0.04150(3) 0.69984(2) 1.000000
Cu10_2 Cu 0.04552(3) 0.79186(2) 1.000000
O17 O 0.6295(2) 0.71874(11) 0.4049(3)
O20 O 0.6295(2) 0.71874(11) 0.5951(3)
O21 O 0.62803(17) 0.79489(8) 0.40214(19)
O24 O 0.62803(17) 0.79489(8) 0.59786(19)
Cl1_2 Cl 0.03852(9) 0.61691(4) 0.000000
N1_2 N 0.0753(3) 0.86382(16) 0.000000
N2_2 N 0.3190(3) 0.96292(17) 0.000000
C9_2 C 0.1006(3) 0.88344(14) 0.0805(3)
H6_2 H 0.083831 0.870108 0.137927
C10_2 C 0.1493(3) 0.92171(14) 0.0835(3)
H7_2 H 0.165712 0.934426 0.141634
C11_2 C 0.1741(4) 0.94139(19) 0.000000
C12_2 C 0.2328(4) 0.9817(2) 0.000000
C13_4 C 0.3816(4) 1.0000(2) 0.000000
C14_2 C 0.4685(4) 0.9810(2) 0.000000
H10_2 H 0.480(6) 0.961(3) 0.056(7)
C19_4 C 0.6184(4) 1.0000(2) 0.000000
H15_2 H 0.635(6) 0.983(3) 0.060(6)
H20_2 H 0.773(6) 0.998(3) 0.059(7)
H23_2 H 0.327(6) 0.947(3) 0.056(6)
Cl1_3 Cl 0.03852(9) 0.61691(4) 1.000000
N1_3 N 0.0753(3) 0.86382(16) 1.000000
N2_3 N 0.3190(3) 0.96292(17) 1.000000
H1_2 H 0.327(6) 0.947(3) 0.944(6)
C11_3 C 0.1741(4) 0.94139(19) 1.000000
C12_3 C 0.2328(4) 0.9817(2) 1.000000
C13_5 C 0.3816(4) 1.0000(2) 1.000000
C14_3 C 0.4685(4) 0.9810(2) 1.000000
H14_2 H 0.773(6) 0.998(3) 0.941(7)
C19_5 C 0.6184(4) 1.0000(2) 1.000000
H21_2 H 0.635(6) 0.983(3) 0.940(6)
C23_2 C 0.1006(3) 0.88344(14) 0.9195(3)
H24_2 H 0.083831 0.870108 0.862073
C24_2 C 0.1493(3) 0.92171(14) 0.9165(3)
H25_2 H 0.165712 0.934426 0.858366
H28_2 H 0.480(6) 0.961(3) 0.944(7)
O1_2 O 0.95691(16) 0.71169(9) 0.0975(2)
O2_2 O 0.9601(2) 0.78828(11) 0.0946(3)
C1_2 C 0.9312(2) 0.75041(13) 0.1210(3)
C2_2 C 0.85921(15) 0.75266(8) 0.18732(19)
C3_2 C 0.83185(17) 0.71292(7) 0.2302(2)
H2_2 H 0.858549 0.684758 0.217736
C4_2 C 0.76544(17) 0.71440(7) 0.2913(2)
H3_2 H 0.746743 0.687238 0.320603
C5_2 C 0.72638(15) 0.75561(8) 0.30953(19)
C6_2 C 0.75373(17) 0.79535(7) 0.2666(2)
H4_2 H 0.727031 0.823513 0.279106
C7_2 C 0.82014(17) 0.79387(7) 0.2055(2)
H5_2 H 0.838838 0.821034 0.176238
C8_2 C 0.6553(2) 0.75672(13) 0.3775(3)
O13_2 O 0.95691(16) 0.71169(9) 0.9025(2)
O14_2 O 0.9601(2) 0.78828(11) 0.9054(3)
C41_2 C 0.9312(2) 0.75041(13) 0.8790(3)
C42_2 C 0.85921(15) 0.75266(8) 0.81268(19)
C43_2 C 0.83185(17) 0.71292(7) 0.7698(2)
H37_2 H 0.858549 0.684758 0.782264
C44_2 C 0.76544(17) 0.71440(7) 0.7087(2)
H38_2 H 0.746743 0.687238 0.679397
C45_2 C 0.72638(15) 0.75561(8) 0.69047(19)
C46_2 C 0.75373(17) 0.79535(7) 0.7334(2)
H39_2 H 0.727031 0.823513 0.720894
C47_2 C 0.82014(17) 0.79387(7) 0.7945(2)
H40_2 H 0.838838 0.821034 0.823762
C48_2 C 0.6553(2) 0.75672(13) 0.6225(3)
loop_
_geom_bond_atom_site_label_1
_geom_bond_atom_site_label_2
_geom_bond_site_symmetry_1
_geom_bond_site_symmetry_2
N3 C15 1_555 1_555
N4 H11 1_555 1_555
C15 H12 1_555 1_555
C16 C15 1_555 1_555
H13 C16 1_555 1_555
C17 C16 1_555 1_555
C18 N4 1_555 1_555
H14 C18 1_555 1_555
C19 N4 1_555 1_555
H15 C19 1_555 1_555
H16 C20 1_555 1_555
H17 N4 1_555 1_555
C21 N3 1_555 1_555
H18 C21 1_555 1_555
C22 C17 1_555 1_555
H19 C22 1_555 1_555
H20 C18 1_555 1_555
H21 C19 1_555 1_555
H22 C20 1_555 1_555
Cu3 Cl2 1_555 1_555
Cu4 N3 1_555 1_555
O5 Cu3 1_555 1_555
O6 Cu4 1_555 1_555
O7 C32 1_555 1_555
O8 C32 1_555 1_555
C25 O5 1_555 1_555
C26 C25 1_555 1_555
C27 C26 1_555 1_555
H29 C27 1_555 1_555
C28 C27 1_555 1_555
H30 C28 1_555 1_555
C29 C28 1_555 1_555
C30 C29 1_555 1_555
H31 C30 1_555 1_555
C31 C26 1_555 1_555
H32 C31 1_555 1_555
C32 C29 1_555 1_555
O9 Cu3 1_555 1_555
O10 Cu4 1_555 1_555
O11 C40 1_555 1_555
O12 C40 1_555 1_555
C33 O9 1_555 1_555
C34 C33 1_555 1_555
C35 C34 1_555 1_555
H33 C35 1_555 1_555
C36 C35 1_555 1_555
H34 C36 1_555 1_555
C37 C36 1_555 1_555
C38 C37 1_555 1_555
H35 C38 1_555 1_555
C39 C34 1_555 1_555
H36 C39 1_555 1_555
C40 C37 1_555 1_555
Cu8 O8 1_555 1_555
Cu8_2 O12 1_555 1_555
Cu12 O7 1_555 1_555
Cu12_2 O11 1_555 1_555
O18 Cu4 1_555 1_555
O19 Cu4 1_555 1_555
O22 Cu3 1_555 1_555
O23 Cu3 1_555 1_555
C17 C18 1_555 1_555
C19 C20 1_555 1_555
C21 C22 1_555 1_555
O6 C25 1_555 1_555
C30 C31 1_555 1_555
O10 C33 1_555 1_555
C38 C39 1_555 1_555
O18 C32_2 1_555 1_555
O22 C32_2 1_555 1_555
C25_2 O5_2 1_555 1_555
C26_2 C25_2 1_555 1_555
C27_2 C26_2 1_555 1_555
H29_2 C27_2 1_555 1_555
C28_2 C27_2 1_555 1_555
H30_2 C28_2 1_555 1_555
C29_2 C28_2 1_555 1_555
C30_2 C29_2 1_555 1_555
H31_2 C30_2 1_555 1_555
C31_2 C26_2 1_555 1_555
H32_2 C31_2 1_555 1_555
C32_2 C29_2 1_555 1_555
O6_2 C25_2 1_555 1_555
C30_2 C31_2 1_555 1_555
O19 C40_2 1_555 1_555
O23 C40_2 1_555 1_555
C33_2 O9_2 1_555 1_555
C34_2 C33_2 1_555 1_555
C35_2 C34_2 1_555 1_555
H33_2 C35_2 1_555 1_555
C36_2 C35_2 1_555 1_555
H34_2 C36_2 1_555 1_555
C37_2 C36_2 1_555 1_555
C38_2 C37_2 1_555 1_555
H35_2 C38_2 1_555 1_555
C39_2 C34_2 1_555 1_555
H36_2 C39_2 1_555 1_555
C40_2 C37_2 1_555 1_555
O10_2 C33_2 1_555 1_555
C38_2 C39_2 1_555 1_555
H9 C13 1_555 1_555
N3_2 C15_2 1_555 1_555
C15_2 H12_2 1_555 1_555
C16_2 C15_2 1_555 1_555
H13_2 C16_2 1_555 1_555
C17_2 C16_2 1_555 1_555
C18_2 N4_2 1_555 1_555
C19_2 N4_2 1_555 1_555
H16_2 C20_2 1_555 1_555
H17_2 N4_2 1_555 1_555
Cu8 Cl2_2 1_555 1_555
Cu12 N3_2 1_555 1_555
C17_2 C18_2 1_555 1_555
C19_2 C20_2 1_555 1_555
N4_3 H11_2 1_555 1_555
C18_3 N4_3 1_555 1_555
C19_3 N4_3 1_555 1_555
C21_2 N3_3 1_555 1_555
H18_2 C21_2 1_555 1_555
C22_2 C17_3 1_555 1_555
H19_2 C22_2 1_555 1_555
H22_2 C20_3 1_555 1_555
H27 C13_2 1_555 1_555
Cu8_2 Cl2_3 1_555 1_555
Cu12_2 N3_3 1_555 1_555
C17_3 C18_3 1_555 1_555
C19_3 C20_3 1_555 1_555
C21_2 C22_2 1_555 1_555
Cu1 Cl1 1_555 1_555
Cu2 O2 1_555 1_555
O1 Cu1 1_555 1_555
O2 C1 1_555 1_555
O3 C8 1_555 1_555
O4 C8 1_555 1_555
N1 Cu2 1_555 1_555
N2 H1 1_555 1_555
C1 O1 1_555 1_555
C2 C1 1_555 1_555
C3 C2 1_555 1_555
H2 C3 1_555 1_555
C4 C3 1_555 1_555
H3 C4 1_555 1_555
C5 C4 1_555 1_555
C6 C5 1_555 1_555
H4 C6 1_555 1_555
C7 C2 1_555 1_555
H5 C7 1_555 1_555
C8 C5 1_555 1_555
C9 N1 1_555 1_555
H6 C9 1_555 1_555
C10 C9 1_555 1_555
H7 C10 1_555 1_555
C11 C10 1_555 1_555
C12 N2 1_555 1_555
H8_2 C12 1_555 1_555
C13_3 N2 1_555 1_555
H9_2 C13_3 1_555 1_555
C14 C13_3 1_555 1_555
H10 C14 1_555 1_555
H23 N2 1_555 1_555
C23 N1 1_555 1_555
H24 C23 1_555 1_555
C24 C11 1_555 1_555
H25 C24 1_555 1_555
H26_2 C12 1_555 1_555
H27_2 C13_3 1_555 1_555
H28 C14 1_555 1_555
O13 Cu1 1_555 1_555
O14 Cu2 1_555 1_555
O15 C48 1_555 1_555
O16 C48 1_555 1_555
C41 O13 1_555 1_555
C42 C41 1_555 1_555
C43 C42 1_555 1_555
H37 C43 1_555 1_555
C44 C43 1_555 1_555
H38 C44 1_555 1_555
C45 C44 1_555 1_555
C46 C45 1_555 1_555
H39 C46 1_555 1_555
C47 C42 1_555 1_555
H40 C47 1_555 1_555
C48 C45 1_555 1_555
Cu6 O4 1_555 1_555
Cu6_2 O16 1_555 1_555
Cu10 O3 1_555 1_555
Cu10_2 O15 1_555 1_555
O17 Cu2 1_555 1_555
O20 Cu2 1_555 1_555
O21 Cu1 1_555 1_555
O24 Cu1 1_555 1_555
C6 C7 1_555 1_555
C11 C12 1_555 1_555
C23 C24 1_555 1_555
O14 C41 1_555 1_555
C46 C47 1_555 1_555
Cu6 Cl1_2 1_555 1_555
N1_2 Cu10 1_555 1_555
C9_2 N1_2 1_555 1_555
H6_2 C9_2 1_555 1_555
C10_2 C9_2 1_555 1_555
H7_2 C10_2 1_555 1_555
C11_2 C10_2 1_555 1_555
C12_2 N2_2 1_555 1_555
C13_4 N2_2 1_555 1_555
C14_2 C13_4 1_555 1_555
H10_2 C14_2 1_555 1_555
H15_2 C19_4 1_555 1_555
H23_2 N2_2 1_555 1_555
C11_2 C12_2 1_555 1_555
Cu6_2 Cl1_3 1_555 1_555
N1_3 Cu10_2 1_555 1_555
N2_3 H1_2 1_555 1_555
C12_3 N2_3 1_555 1_555
C13_5 N2_3 1_555 1_555
C14_3 C13_5 1_555 1_555
H21_2 C19_5 1_555 1_555
C23_2 N1_3 1_555 1_555
H24_2 C23_2 1_555 1_555
C24_2 C11_3 1_555 1_555
H25_2 C24_2 1_555 1_555
H28_2 C14_3 1_555 1_555
C11_3 C12_3 1_555 1_555
C23_2 C24_2 1_555 1_555
O2_2 C1_2 1_555 1_555
O17 C8_2 1_555 1_555
O21 C8_2 1_555 1_555
C1_2 O1_2 1_555 1_555
C2_2 C1_2 1_555 1_555
C3_2 C2_2 1_555 1_555
H2_2 C3_2 1_555 1_555
C4_2 C3_2 1_555 1_555
H3_2 C4_2 1_555 1_555
C5_2 C4_2 1_555 1_555
C6_2 C5_2 1_555 1_555
H4_2 C6_2 1_555 1_555
C7_2 C2_2 1_555 1_555
H5_2 C7_2 1_555 1_555
C8_2 C5_2 1_555 1_555
C6_2 C7_2 1_555 1_555
O20 C48_2 1_555 1_555
O24 C48_2 1_555 1_555
C41_2 O13_2 1_555 1_555
C42_2 C41_2 1_555 1_555
C43_2 C42_2 1_555 1_555
H37_2 C43_2 1_555 1_555
C44_2 C43_2 1_555 1_555
H38_2 C44_2 1_555 1_555
C45_2 C44_2 1_555 1_555
C46_2 C45_2 1_555 1_555
H39_2 C46_2 1_555 1_555
C47_2 C42_2 1_555 1_555
H40_2 C47_2 1_555 1_555
C48_2 C45_2 1_555 1_555
O14_2 C41_2 1_555 1_555
C46_2 C47_2 1_555 1_555

#END
