
###############################################################################
#
# This file contains modified crystal structure data generated from the
# MOF subset of the Cambridge Structural Database (CSD) v543 
# hosted by the Cambridge Crystallographic Data Centre (CCDC).
#
# This work is licensed under the Creative Commons
# Attribution-NonCommercial-ShareAlike 4.0 International License.
# To view a copy of this license, visit
# http://creativecommons.org/licenses/by-nc-sa/4.0/
# or send a letter to
# Creative Commons, PO Box 1866, Mountain View, CA 94042, USA.
#
# CIF created using the CSD Python API on 29 September 2022
# The structure has been converted into the P1 space group
# The structure has a 3D framework
# The original CSD entry LEYTER is in the orthorhombic crystal system
# The framework has been calculated to contain at least 10.0% void space
# The void calculation uses a probe of radius 1.32A, grid spacing 0.4
#
###############################################################################

data_LEYTER
_chemical_formula_moiety         '(C104 H80 Cl6 Cu12 N12 O32)n'
_symmetry_cell_setting           triclinic
_symmetry_space_group_name_H-M   'P 1'
_symmetry_Int_Tables_number      1
_space_group_name_Hall           'P 1'
loop_
_symmetry_equiv_pos_site_id
_symmetry_equiv_pos_as_xyz
1 x,y,z
_cell_length_a                   16.418(7)
_cell_length_b                   29.213(13)
_cell_length_c                   14.052(5)
_cell_angle_alpha                90
_cell_angle_beta                 90
_cell_angle_gamma                90
_cell_volume                     6739.61
loop_
_atom_site_label
_atom_site_type_symbol
_atom_site_fract_x
_atom_site_fract_y
_atom_site_fract_z
O23 O 0.04398(12) 0.70632(6) 0.40384(15)
O26 O 0.04398(12) 0.70632(6) 0.59616(15)
Cu1 Cu 0.46463(2) 0.70291(2) 0.000000
Cu2 Cu 0.95715(2) 0.70520(2) 0.500000
Cl1 Cl 0.47844(7) 0.62159(3) 0.000000
O1 O 0.87527(13) 0.71785(6) 0.40182(15)
O2 O 0.87899(12) 0.79403(6) 0.40136(13)
O3 O 0.54694(11) 0.71702(6) 0.09844(14)
O4 O 0.54398(12) 0.79368(6) 0.09616(15)
N1 N 0.9192(2) 0.63394(10) 0.500000
N2 N 0.6807(2) 0.53390(11) 0.500000
H1 H 0.674128 0.551499 0.551132
C1 C 0.77933(17) 0.75676(9) 0.30854(19)
C2 C 0.75481(18) 0.79679(9) 0.2636(2)
H2 H 0.783355 0.823811 0.274171
C3 C 0.68830(18) 0.79679(9) 0.2033(2)
H3 H 0.672957 0.823681 0.172732
C4 C 0.64419(17) 0.75682(9) 0.18802(19)
C5 C 0.66902(18) 0.71683(10) 0.2334(2)
H4 H 0.640362 0.689817 0.223243
C6 C 0.73506(19) 0.71675(10) 0.2929(2)
H5 H 0.750510 0.689781 0.323099
C7 C 0.85033(16) 0.75622(9) 0.37544(18)
C8 C 0.57284(16) 0.75585(9) 0.12297(18)
C9 C 0.8948(2) 0.61405(10) 0.4197(2)
H6 H 0.910865 0.627157 0.362365
C10 C 0.8474(2) 0.57529(10) 0.4164(2)
H7 H 0.832144 0.562746 0.358191
C11 C 0.8228(3) 0.55537(13) 0.500000
C12 C 0.7642(3) 0.51564(13) 0.500000
H8 H 0.772848 0.496828 0.444020
C13 C 0.6173(2) 0.49845(12) 0.500000
H9 H 0.624178 0.479268 0.555759
C14 C 0.5320(2) 0.51777(13) 0.500000
H10 H 0.525103 0.536966 0.555752
N3 N 0.0808(2) 0.36606(10) 0.500000
N4 N 0.3193(2) 0.46610(11) 0.500000
H11 H 0.325872 0.448501 0.551132
C15 C 0.1052(2) 0.38595(10) 0.4197(2)
H12 H 0.089135 0.372843 0.362365
C16 C 0.1526(2) 0.42471(10) 0.4164(2)
H13 H 0.167856 0.437254 0.358191
C17 C 0.1772(3) 0.44463(13) 0.500000
C18 C 0.2358(3) 0.48436(13) 0.500000
H14 H 0.227152 0.503172 0.444020
C19 C 0.3827(2) 0.50155(12) 0.500000
H15 H 0.375822 0.520732 0.555759
C20 C 0.4680(2) 0.48223(13) 0.500000
H16 H 0.474897 0.463034 0.555752
H17 H 0.325872 0.448501 0.448868
C21 C 0.1052(2) 0.38595(10) 0.5803(2)
H18 H 0.089135 0.372843 0.637635
C22 C 0.1526(2) 0.42471(10) 0.5836(2)
H19 H 0.167856 0.437254 0.641809
H20 H 0.227152 0.503172 0.555980
H21 H 0.375822 0.520732 0.444241
H22 H 0.474897 0.463034 0.444248
H23 H 0.674128 0.551499 0.448868
C23 C 0.8948(2) 0.61405(10) 0.5803(2)
H24 H 0.910865 0.627157 0.637635
C24 C 0.8474(2) 0.57529(10) 0.5836(2)
H25 H 0.832144 0.562746 0.641809
H26 H 0.772848 0.496828 0.555980
H27 H 0.624178 0.479268 0.444241
H28 H 0.525103 0.536966 0.444248
Cu3 Cu 0.53537(2) 0.29709(2) 0.000000
Cu4 Cu 0.04285(2) 0.29480(2) 0.500000
Cl2 Cl 0.52156(7) 0.37841(3) 0.000000
O5 O 0.12473(13) 0.28215(6) 0.40182(15)
O6 O 0.12101(12) 0.20597(6) 0.40136(13)
O7 O 0.45306(11) 0.28298(6) 0.09844(14)
O8 O 0.45602(12) 0.20632(6) 0.09616(15)
C25 C 0.22067(17) 0.24324(9) 0.30854(19)
C26 C 0.24519(18) 0.20321(9) 0.2636(2)
H29 H 0.216645 0.176189 0.274171
C27 C 0.31170(18) 0.20321(9) 0.2033(2)
H30 H 0.327043 0.176319 0.172732
C28 C 0.35581(17) 0.24318(9) 0.18802(19)
C29 C 0.33098(18) 0.28317(10) 0.2334(2)
H31 H 0.359638 0.310183 0.223243
C30 C 0.26494(19) 0.28325(10) 0.2929(2)
H32 H 0.249490 0.310219 0.323099
C31 C 0.14967(16) 0.24378(9) 0.37544(18)
C32 C 0.42716(16) 0.24415(9) 0.12297(18)
Cu6 Cu 0.96463(2) 0.79709(2) 0.500000
Cu8 Cu 0.03537(2) 0.20291(2) 0.500000
Cu10 Cu 0.45715(2) 0.79480(2) 0.000000
Cu11 Cu 0.54285(2) 0.20520(2) 0.000000
O17 O 0.12473(13) 0.28215(6) 0.59818(15)
O18 O 0.87527(13) 0.71785(6) 0.59818(15)
O19 O 0.37899(12) 0.70597(6) 0.09864(13)
O20 O 0.62101(12) 0.29403(6) 0.09864(13)
Cu1_2 Cu 0.46463(2) 0.70291(2) 1.000000
Cl1_2 Cl 0.47844(7) 0.62159(3) 1.000000
Cu3_2 Cu 0.53537(2) 0.29709(2) 1.000000
Cl2_2 Cl 0.52156(7) 0.37841(3) 1.000000
O10 O 0.12101(12) 0.20597(6) 0.59864(13)
O11 O 0.45306(11) 0.28298(6) 0.90156(14)
O12 O 0.45602(12) 0.20632(6) 0.90384(15)
C33 C 0.22067(17) 0.24324(9) 0.69146(19)
C34 C 0.24519(18) 0.20321(9) 0.7364(2)
H33 H 0.216645 0.176189 0.725829
C35 C 0.31170(18) 0.20321(9) 0.7967(2)
H34 H 0.327043 0.176319 0.827268
C36 C 0.35581(17) 0.24318(9) 0.81198(19)
C37 C 0.33098(18) 0.28317(10) 0.7666(2)
H35 H 0.359638 0.310183 0.776757
C38 C 0.26494(19) 0.28325(10) 0.7071(2)
H36 H 0.249490 0.310219 0.676901
C39 C 0.14967(16) 0.24378(9) 0.62456(18)
C40 C 0.42716(16) 0.24415(9) 0.87703(18)
O14 O 0.87899(12) 0.79403(6) 0.59864(13)
O15 O 0.54694(11) 0.71702(6) 0.90156(14)
O16 O 0.54398(12) 0.79368(6) 0.90384(15)
C41 C 0.77933(17) 0.75676(9) 0.69146(19)
C42 C 0.75481(18) 0.79679(9) 0.7364(2)
H37 H 0.783355 0.823811 0.725829
C43 C 0.68830(18) 0.79679(9) 0.7967(2)
H38 H 0.672957 0.823681 0.827268
C44 C 0.64419(17) 0.75682(9) 0.81198(19)
C45 C 0.66902(18) 0.71683(10) 0.7666(2)
H39 H 0.640362 0.689817 0.776757
C46 C 0.73506(19) 0.71675(10) 0.7071(2)
H40 H 0.750510 0.689781 0.676901
C47 C 0.85033(16) 0.75622(9) 0.62456(18)
C48 C 0.57284(16) 0.75585(9) 0.87703(18)
Cu10_2 Cu 0.45715(2) 0.79480(2) 1.000000
Cu11_2 Cu 0.54285(2) 0.20520(2) 1.000000
O21 O 0.62101(12) 0.29403(6) 0.90136(13)
O22 O 0.37899(12) 0.70597(6) 0.90136(13)
O24 O 0.95602(12) 0.29368(6) 0.40384(15)
O25 O 0.95602(12) 0.29368(6) 0.59616(15)
H8_2 H 0.272848 0.003172 0.055980
C13_2 C 0.1173(2) 0.00155(12) 0.000000
H27_2 H 0.124178 0.020732 0.055759
Cl2_3 Cl 0.02156(7) 0.12159(3) 0.500000
C13_3 C 0.1173(2) 0.00155(12) 1.000000
H9_2 H 0.124178 0.020732 0.944241
H26_2 H 0.272848 0.003172 0.944020
O1_2 O 0.37527(13) 0.78215(6) 0.09818(15)
O3_2 O 0.04694(11) 0.78298(6) 0.40156(14)
N1_2 N 0.4192(2) 0.86606(10) 0.000000
N2_2 N 0.1807(2) 0.96610(11) 0.000000
C1_2 C 0.27933(17) 0.74324(9) 0.19146(19)
C2_2 C 0.25481(18) 0.70321(9) 0.2364(2)
H2_2 H 0.283355 0.676189 0.225829
C3_2 C 0.18830(18) 0.70321(9) 0.2967(2)
H3_2 H 0.172957 0.676319 0.327268
C4_2 C 0.14419(17) 0.74318(9) 0.31198(19)
C5_2 C 0.16902(18) 0.78317(10) 0.2666(2)
H4_2 H 0.140362 0.810183 0.276757
C6_2 C 0.23506(19) 0.78325(10) 0.2071(2)
H5_2 H 0.250510 0.810219 0.176901
C7_2 C 0.35033(16) 0.74378(9) 0.12456(18)
C8_2 C 0.07284(16) 0.74415(9) 0.37703(18)
C9_2 C 0.3948(2) 0.88595(10) 0.0803(2)
H6_2 H 0.410865 0.872843 0.137635
C10_2 C 0.3474(2) 0.92471(10) 0.0836(2)
H7_2 H 0.332144 0.937254 0.141809
C11_2 C 0.3228(3) 0.94463(13) 0.000000
C12_2 C 0.2642(3) 0.98436(13) 0.000000
C14_2 C 0.0320(2) 0.98223(13) 0.000000
H23_2 H 0.174128 0.948501 0.051132
H28_2 H 0.025103 0.963034 0.055752
O13 O 0.37527(13) 0.78215(6) 0.90182(15)
O15_2 O 0.04694(11) 0.78298(6) 0.59844(14)
C41_2 C 0.27933(17) 0.74324(9) 0.80854(19)
C42_2 C 0.25481(18) 0.70321(9) 0.7636(2)
H37_2 H 0.283355 0.676189 0.774171
C43_2 C 0.18830(18) 0.70321(9) 0.7033(2)
H38_2 H 0.172957 0.676319 0.672732
C44_2 C 0.14419(17) 0.74318(9) 0.68802(19)
C45_2 C 0.16902(18) 0.78317(10) 0.7334(2)
H39_2 H 0.140362 0.810183 0.723243
C46_2 C 0.23506(19) 0.78325(10) 0.7929(2)
H40_2 H 0.250510 0.810219 0.823099
C47_2 C 0.35033(16) 0.74378(9) 0.87544(18)
C48_2 C 0.07284(16) 0.74415(9) 0.62297(18)
N1_3 N 0.4192(2) 0.86606(10) 1.000000
N2_3 N 0.1807(2) 0.96610(11) 1.000000
H1_2 H 0.174128 0.948501 0.948868
C11_3 C 0.3228(3) 0.94463(13) 1.000000
C12_3 C 0.2642(3) 0.98436(13) 1.000000
C14_3 C 0.0320(2) 0.98223(13) 1.000000
H10_2 H 0.025103 0.963034 0.944248
C23_2 C 0.3948(2) 0.88595(10) 0.9197(2)
H24_2 H 0.410865 0.872843 0.862365
C24_2 C 0.3474(2) 0.92471(10) 0.9164(2)
H25_2 H 0.332144 0.937254 0.858191
N3_2 N 0.5808(2) 0.13394(10) 0.000000
N4_2 N 0.8193(2) 0.03390(11) 0.000000
C15_2 C 0.6052(2) 0.11405(10) 0.0803(2)
H12_2 H 0.589135 0.127157 0.137635
C16_2 C 0.6526(2) 0.07529(10) 0.0836(2)
H13_2 H 0.667856 0.062746 0.141809
C17_2 C 0.6772(3) 0.05537(13) 0.000000
C18_2 C 0.7358(3) 0.01564(13) 0.000000
C20_2 C 0.9680(2) 0.01777(13) 0.000000
H17_2 H 0.825872 0.051499 0.051132
H22_2 H 0.974897 0.036966 0.055752
O5_2 O 0.62473(13) 0.21785(6) 0.09818(15)
O7_2 O 0.95306(11) 0.21702(6) 0.40156(14)
C25_2 C 0.72067(17) 0.25676(9) 0.19146(19)
C26_2 C 0.74519(18) 0.29679(9) 0.2364(2)
H29_2 H 0.716645 0.323811 0.225829
C27_2 C 0.81170(18) 0.29679(9) 0.2967(2)
H30_2 H 0.827043 0.323681 0.327268
C28_2 C 0.85581(17) 0.25682(9) 0.31198(19)
C29_2 C 0.83098(18) 0.21683(10) 0.2666(2)
H31_2 H 0.859638 0.189817 0.276757
C30_2 C 0.76494(19) 0.21675(10) 0.2071(2)
H32_2 H 0.749490 0.189781 0.176901
C31_2 C 0.64967(16) 0.25622(9) 0.12456(18)
C32_2 C 0.92716(16) 0.25585(9) 0.37703(18)
O9 O 0.62473(13) 0.21785(6) 0.90182(15)
O11_2 O 0.95306(11) 0.21702(6) 0.59844(14)
C33_2 C 0.72067(17) 0.25676(9) 0.80854(19)
C34_2 C 0.74519(18) 0.29679(9) 0.7636(2)
H33_2 H 0.716645 0.323811 0.774171
C35_2 C 0.81170(18) 0.29679(9) 0.7033(2)
H34_2 H 0.827043 0.323681 0.672732
C36_2 C 0.85581(17) 0.25682(9) 0.68802(19)
C37_2 C 0.83098(18) 0.21683(10) 0.7334(2)
H35_2 H 0.859638 0.189817 0.723243
C38_2 C 0.76494(19) 0.21675(10) 0.7929(2)
H36_2 H 0.749490 0.189781 0.823099
C39_2 C 0.64967(16) 0.25622(9) 0.87544(18)
C40_2 C 0.92716(16) 0.25585(9) 0.62297(18)
N3_3 N 0.5808(2) 0.13394(10) 1.000000
N4_3 N 0.8193(2) 0.03390(11) 1.000000
H11_2 H 0.825872 0.051499 0.948868
C17_3 C 0.6772(3) 0.05537(13) 1.000000
C18_3 C 0.7358(3) 0.01564(13) 1.000000
C20_3 C 0.9680(2) 0.01777(13) 1.000000
H16_2 H 0.974897 0.036966 0.944248
C21_2 C 0.6052(2) 0.11405(10) 0.9197(2)
H18_2 H 0.589135 0.127157 0.862365
C22_2 C 0.6526(2) 0.07529(10) 0.9164(2)
H19_2 H 0.667856 0.062746 0.858191
Cl1_3 Cl 0.97844(7) 0.87841(3) 0.500000
H14_2 H 0.727152 0.996828 0.055980
C19_2 C 0.8827(2) 0.99845(12) 0.000000
H21_2 H 0.875822 0.979268 0.055759
C19_3 C 0.8827(2) 0.99845(12) 1.000000
H15_2 H 0.875822 0.979268 0.944241
H20_2 H 0.727152 0.996828 0.944020
loop_
_geom_bond_atom_site_label_1
_geom_bond_atom_site_label_2
_geom_bond_site_symmetry_1
_geom_bond_site_symmetry_2
Cu1 Cl1 1_555 1_555
Cu2 O1 1_555 1_555
O1 C7 1_555 1_555
O2 C7 1_555 1_555
O3 Cu1 1_555 1_555
O4 C8 1_555 1_555
N1 Cu2 1_555 1_555
N2 H1 1_555 1_555
C1 C2 1_555 1_555
C2 H2 1_555 1_555
C3 C2 1_555 1_555
H3 C3 1_555 1_555
C4 C3 1_555 1_555
C5 C4 1_555 1_555
H4 C5 1_555 1_555
C6 C1 1_555 1_555
H5 C6 1_555 1_555
C7 C1 1_555 1_555
C8 O3 1_555 1_555
C9 N1 1_555 1_555
H6 C9 1_555 1_555
C10 C9 1_555 1_555
H7 C10 1_555 1_555
C11 C10 1_555 1_555
C12 N2 1_555 1_555
H8 C12 1_555 1_555
C13 N2 1_555 1_555
H9 C13 1_555 1_555
C14 C13 1_555 1_555
H10 C14 1_555 1_555
N3 C15 1_555 1_555
N4 H11 1_555 1_555
C15 H12 1_555 1_555
C16 C15 1_555 1_555
H13 C16 1_555 1_555
C17 C16 1_555 1_555
C18 N4 1_555 1_555
H14 C18 1_555 1_555
C19 N4 1_555 1_555
H15 C19 1_555 1_555
C20 C14 1_555 1_555
H16 C20 1_555 1_555
H17 N4 1_555 1_555
C21 N3 1_555 1_555
H18 C21 1_555 1_555
C22 C17 1_555 1_555
H19 C22 1_555 1_555
H20 C18 1_555 1_555
H21 C19 1_555 1_555
H22 C20 1_555 1_555
H23 N2 1_555 1_555
C23 N1 1_555 1_555
H24 C23 1_555 1_555
C24 C11 1_555 1_555
H25 C24 1_555 1_555
H26 C12 1_555 1_555
H27 C13 1_555 1_555
H28 C14 1_555 1_555
Cu3 Cl2 1_555 1_555
Cu4 N3 1_555 1_555
O5 Cu4 1_555 1_555
O6 C31 1_555 1_555
O7 Cu3 1_555 1_555
O8 C32 1_555 1_555
C25 C26 1_555 1_555
C26 H29 1_555 1_555
C27 C26 1_555 1_555
H30 C27 1_555 1_555
C28 C27 1_555 1_555
C29 C28 1_555 1_555
H31 C29 1_555 1_555
C30 C25 1_555 1_555
H32 C30 1_555 1_555
C31 O5 1_555 1_555
C32 O7 1_555 1_555
Cu6 O2 1_555 1_555
Cu8 O6 1_555 1_555
Cu10 O4 1_555 1_555
Cu11 O8 1_555 1_555
O17 Cu4 1_555 1_555
O18 Cu2 1_555 1_555
O19 Cu1 1_555 1_555
O20 Cu3 1_555 1_555
C4 C8 1_555 1_555
C5 C6 1_555 1_555
C11 C12 1_555 1_555
C17 C18 1_555 1_555
C19 C20 1_555 1_555
C21 C22 1_555 1_555
C23 C24 1_555 1_555
C25 C31 1_555 1_555
C28 C32 1_555 1_555
C29 C30 1_555 1_555
Cu1_2 Cl1_2 1_555 1_555
Cu3_2 Cl2_2 1_555 1_555
O17 C39 1_555 1_555
O10 C39 1_555 1_555
O11 Cu3_2 1_555 1_555
O12 C40 1_555 1_555
C33 C34 1_555 1_555
C34 H33 1_555 1_555
C35 C34 1_555 1_555
H34 C35 1_555 1_555
C36 C35 1_555 1_555
C37 C36 1_555 1_555
H35 C37 1_555 1_555
C38 C33 1_555 1_555
H36 C38 1_555 1_555
C39 C33 1_555 1_555
C40 O11 1_555 1_555
O18 C47 1_555 1_555
O14 C47 1_555 1_555
O15 Cu1_2 1_555 1_555
O16 C48 1_555 1_555
C41 C42 1_555 1_555
C42 H37 1_555 1_555
C43 C42 1_555 1_555
H38 C43 1_555 1_555
C44 C43 1_555 1_555
C45 C44 1_555 1_555
H39 C45 1_555 1_555
C46 C41 1_555 1_555
H40 C46 1_555 1_555
C47 C41 1_555 1_555
C48 O15 1_555 1_555
Cu6 O14 1_555 1_555
Cu8 O10 1_555 1_555
O21 Cu3_2 1_555 1_555
O22 Cu1_2 1_555 1_555
O12 Cu11_2 1_555 1_555
C36 C40 1_555 1_555
C37 C38 1_555 1_555
O16 Cu10_2 1_555 1_555
C44 C48 1_555 1_555
C45 C46 1_555 1_555
H27_2 C13_2 1_555 1_555
Cu8 Cl2_3 1_555 1_555
H9_2 C13_3 1_555 1_555
Cu10 O1_2 1_555 1_555
O1_2 C7_2 1_555 1_555
O19 C7_2 1_555 1_555
O23 C8_2 1_555 1_555
N1_2 Cu10 1_555 1_555
C1_2 C2_2 1_555 1_555
C2_2 H2_2 1_555 1_555
C3_2 C2_2 1_555 1_555
H3_2 C3_2 1_555 1_555
C4_2 C3_2 1_555 1_555
C5_2 C4_2 1_555 1_555
H4_2 C5_2 1_555 1_555
C6_2 C1_2 1_555 1_555
H5_2 C6_2 1_555 1_555
C7_2 C1_2 1_555 1_555
C8_2 O3_2 1_555 1_555
C9_2 N1_2 1_555 1_555
H6_2 C9_2 1_555 1_555
C10_2 C9_2 1_555 1_555
H7_2 C10_2 1_555 1_555
C11_2 C10_2 1_555 1_555
C12_2 N2_2 1_555 1_555
H23_2 N2_2 1_555 1_555
H28_2 C14_2 1_555 1_555
O13 C47_2 1_555 1_555
O22 C47_2 1_555 1_555
O26 C48_2 1_555 1_555
C41_2 C42_2 1_555 1_555
C42_2 H37_2 1_555 1_555
C43_2 C42_2 1_555 1_555
H38_2 C43_2 1_555 1_555
C44_2 C43_2 1_555 1_555
C45_2 C44_2 1_555 1_555
H39_2 C45_2 1_555 1_555
C46_2 C41_2 1_555 1_555
H40_2 C46_2 1_555 1_555
C47_2 C41_2 1_555 1_555
C48_2 O15_2 1_555 1_555
Cu10_2 O13 1_555 1_555
C4_2 C8_2 1_555 1_555
C5_2 C6_2 1_555 1_555
C11_2 C12_2 1_555 1_555
C44_2 C48_2 1_555 1_555
C45_2 C46_2 1_555 1_555
N1_3 Cu10_2 1_555 1_555
N2_3 H1_2 1_555 1_555
C12_3 N2_3 1_555 1_555
H10_2 C14_3 1_555 1_555
C23_2 N1_3 1_555 1_555
H24_2 C23_2 1_555 1_555
C24_2 C11_3 1_555 1_555
H25_2 C24_2 1_555 1_555
C11_3 C12_3 1_555 1_555
C23_2 C24_2 1_555 1_555
N3_2 C15_2 1_555 1_555
C15_2 H12_2 1_555 1_555
C16_2 C15_2 1_555 1_555
H13_2 C16_2 1_555 1_555
C17_2 C16_2 1_555 1_555
C18_2 N4_2 1_555 1_555
H17_2 N4_2 1_555 1_555
H22_2 C20_2 1_555 1_555
Cu11 N3_2 1_555 1_555
O5_2 Cu11 1_555 1_555
O20 C31_2 1_555 1_555
O24 C32_2 1_555 1_555
C25_2 C26_2 1_555 1_555
C26_2 H29_2 1_555 1_555
C27_2 C26_2 1_555 1_555
H30_2 C27_2 1_555 1_555
C28_2 C27_2 1_555 1_555
C29_2 C28_2 1_555 1_555
H31_2 C29_2 1_555 1_555
C30_2 C25_2 1_555 1_555
H32_2 C30_2 1_555 1_555
C31_2 O5_2 1_555 1_555
C32_2 O7_2 1_555 1_555
O9 C39_2 1_555 1_555
O21 C39_2 1_555 1_555
O25 C40_2 1_555 1_555
C33_2 C34_2 1_555 1_555
C34_2 H33_2 1_555 1_555
C35_2 C34_2 1_555 1_555
H34_2 C35_2 1_555 1_555
C36_2 C35_2 1_555 1_555
C37_2 C36_2 1_555 1_555
H35_2 C37_2 1_555 1_555
C38_2 C33_2 1_555 1_555
H36_2 C38_2 1_555 1_555
C39_2 C33_2 1_555 1_555
C40_2 O11_2 1_555 1_555
Cu11_2 O9 1_555 1_555
C17_2 C18_2 1_555 1_555
C25_2 C31_2 1_555 1_555
C28_2 C32_2 1_555 1_555
C29_2 C30_2 1_555 1_555
C36_2 C40_2 1_555 1_555
C37_2 C38_2 1_555 1_555
N4_3 H11_2 1_555 1_555
C18_3 N4_3 1_555 1_555
H16_2 C20_3 1_555 1_555
C21_2 N3_3 1_555 1_555
H18_2 C21_2 1_555 1_555
C22_2 C17_3 1_555 1_555
H19_2 C22_2 1_555 1_555
Cu11_2 N3_3 1_555 1_555
C17_3 C18_3 1_555 1_555
C21_2 C22_2 1_555 1_555
Cu6 Cl1_3 1_555 1_555
H21_2 C19_2 1_555 1_555
H15_2 C19_3 1_555 1_555

#END
