
###############################################################################
#
# This file contains modified crystal structure data generated from the
# MOF subset of the Cambridge Structural Database (CSD) v543 
# hosted by the Cambridge Crystallographic Data Centre (CCDC).
#
# This work is licensed under the Creative Commons
# Attribution-NonCommercial-ShareAlike 4.0 International License.
# To view a copy of this license, visit
# http://creativecommons.org/licenses/by-nc-sa/4.0/
# or send a letter to
# Creative Commons, PO Box 1866, Mountain View, CA 94042, USA.
#
# CIF created using the CSD Python API on 29 September 2022
# The structure has been converted into the P1 space group
# The structure has a 3D framework
# The original CSD entry LEZNOV is in the rhombohedral crystal system
# The original CSD entry LEZNOV is in a Sohncke space group
# The framework has been calculated to contain at least 10.0% void space
# The void calculation uses a probe of radius 1.32A, grid spacing 0.4
#
###############################################################################

data_LEZNOV
_chemical_formula_moiety         '(C68 H52 N18 O70 Yb11)n'
_symmetry_cell_setting           triclinic
_symmetry_space_group_name_H-M   'P 1'
_symmetry_Int_Tables_number      1
_space_group_name_Hall           'P 1'
loop_
_symmetry_equiv_pos_site_id
_symmetry_equiv_pos_as_xyz
1 x,y,z
_cell_length_a                   12.2284(16)
_cell_length_b                   12.2284(16)
_cell_length_c                   19.605(5)
_cell_angle_alpha                90
_cell_angle_beta                 90
_cell_angle_gamma                120
_cell_volume                     2538.85
loop_
_atom_site_label
_atom_site_type_symbol
_atom_site_fract_x
_atom_site_fract_y
_atom_site_fract_z
C4 C 0.0563(6) 0.6667 0.6667
N1 N 0.0287(3) 0.7205(4) 0.7212(2)
O3 O 0.1593(5) 0.6667 0.6667
Yb2 Yb 0.15694(3) 0.82364(3) 0.8333
Yb4 Yb -0.0000 0.50969(3) 0.5000
O9 O 0.8411(6) 0.0394(4) 0.83140(18)
C1 C 0.8899(6) 0.7767(4) 0.7797(2)
C2 C 0.9195(5) 0.7194(4) 0.7195(3)
C3 C 0.8323(7) 0.6667 0.6667
H1 H 0.7563 0.6667 0.6667
O1 O 0.7980(3) 0.7932(4) 0.7748(2)
O2 O 0.9606(4) 0.8017(4) 0.83140(18)
O4 O 0.7907(3) 0.8218(3) 0.91434(18)
H2 H 0.8631 0.8358 0.9090
H3 H 0.7951 0.8551 0.9514
Yb1 Yb 0.6667 0.84306(3) 0.8333
C5 C 0.7799(7) 0.5566(4) 0.5536(2)
C6 C 0.8668(6) 0.6139(4) 0.6138(3)
N2 N 0.9749(5) 0.6128(4) 0.6121(2)
O5 O 0.6715(5) 0.5401(4) 0.5585(2)
O6 O 0.8256(6) 0.5316(4) 0.50193(18)
O7 O 0.5426(3) 0.6978(4) 0.75233(18)
H4 H 0.4702 0.6394 0.7577
H5 H 0.5382 0.7267 0.7153
N3 N 0.6918(5) 0.9713(3) 0.7212(2)
N4 N 0.6415(5) 0.9462(4) 0.9455(2)
O8 O 0.5353(3) 0.6619(5) 0.8919(2)
O10 O 0.4922(6) 0.8650(4) 0.83527(18)
Yb3 Yb 0.49031(3) 0.49027(3) 0.5000
Yb4_2 Yb 1.0000 0.50969(3) 0.5000
C1_2 C 0.2233(4) 0.1132(7) 0.7797(2)
C2_2 C 0.2806(4) 0.2001(6) 0.7195(3)
C3_2 C 0.3333 0.1656(7) 0.6667
H1_2 H 0.3333 0.0896 0.6667
C4_2 C 0.3333 0.3896(6) 0.6667
N1_2 N 0.2795(4) 0.3082(5) 0.7212(2)
O1_2 O 0.2068(4) 0.0048(5) 0.7748(2)
O2_2 O 0.1983(4) 0.1589(6) 0.83140(18)
O3_2 O 0.3333 0.4926(5) 0.6667
H2_2 H 0.1642 0.0273 0.9090
C5_2 C 0.4434(4) 0.2232(8) 0.5536(2)
C6_2 C 0.3861(4) 0.2528(7) 0.6138(3)
N2_2 N 0.3872(4) 0.3620(6) 0.6121(2)
O5_2 O 0.4599(4) 0.1313(6) 0.5585(2)
O6_2 O 0.4684(4) 0.2939(7) 0.50193(18)
Yb2_2 Yb 0.17636(3) 0.33330(4) 0.8333
Yb3_2 Yb 0.50973(3) 0.00003(4) 0.5000
O4_2 O 0.1782(3) 0.9689(4) 0.91434(18)
H3_2 H 0.1449 0.9400 0.9514
O7_2 O 0.3022(4) 0.8449(5) 0.75233(18)
H4_2 H 0.3606 0.8309 0.7577
H5_2 H 0.2733 0.8116 0.7153
N4_2 N 0.0538(4) 0.6954(6) 0.9455(2)
O8_2 O 0.3381(5) 0.8735(6) 0.8919(2)
O10_2 O 0.1350(4) 0.6273(7) 0.83527(18)
Yb3_3 Yb 0.50973(3) 1.00003(4) 0.5000
O4_3 O 0.0311(4) 0.2093(3) 0.91434(18)
H3_3 H 0.0600 0.2049 0.9514
O7_3 O 0.1551(5) 0.4574(3) 0.75233(18)
H4_3 H 0.1691 0.5298 0.7577
H5_3 H 0.1884 0.4618 0.7153
N4_3 N 0.3046(6) 0.3585(5) 0.9455(2)
O8_3 O 0.1265(6) 0.4647(3) 0.8919(2)
O10_3 O 0.3727(7) 0.5078(6) 0.83527(18)
C1_3 C 0.8868(7) 0.1101(6) 0.7797(2)
C2_3 C 0.7999(6) 0.0805(5) 0.7195(3)
C3_3 C 0.8344(7) 0.1677(7) 0.6667
H1_3 H 0.9104 0.2437 0.6667
O1_3 O 0.9952(5) 0.2020(3) 0.7748(2)
H2_3 H 0.9727 0.1369 0.9090
C5_3 C 0.7768(8) 0.2201(7) 0.5536(2)
C6_3 C 0.7472(7) 0.1332(6) 0.6138(3)
N2_3 N 0.6380(6) 0.0251(5) 0.6121(2)
O5_3 O 0.8687(6) 0.3285(5) 0.5585(2)
O6_3 O 0.7061(7) 0.1744(6) 0.50193(18)
C4_3 C 0.6104(6) 0.9437(6) 0.6667
O3_3 O 0.5074(5) 0.8407(5) 0.6667
O9_2 O 0.0394(4) 0.8411(6) 0.16860(18)
C4_4 C 0.6667 0.0563(6) 0.3333
N1_3 N 0.7205(4) 0.0287(3) 0.2788(2)
O3_4 O 0.6667 0.1593(5) 0.3333
Yb2_3 Yb 0.82364(3) 0.15694(3) 0.1667
C1_4 C 0.7767(4) 0.8899(6) 0.2203(2)
C2_4 C 0.7194(4) 0.9195(5) 0.2805(3)
C3_4 C 0.6667 0.8323(7) 0.3333
H1_4 H 0.6667 0.7563 0.3333
O1_4 O 0.7932(4) 0.7980(3) 0.2252(2)
O2_3 O 0.8017(4) 0.9606(4) 0.16860(18)
O4_4 O 0.8218(3) 0.7907(3) 0.08566(18)
H2_4 H 0.8358 0.8631 0.0910
H3_4 H 0.8551 0.7951 0.0486
Yb1_2 Yb 0.84306(3) 0.6667 0.1667
C5_4 C 0.5566(4) 0.7799(7) 0.4464(2)
C6_4 C 0.6139(4) 0.8668(6) 0.3862(3)
N2_4 N 0.6128(4) 0.9749(5) 0.3879(2)
O5_4 O 0.5401(4) 0.6715(5) 0.4415(2)
O6_4 O 0.5316(4) 0.8256(6) 0.49807(18)
O7_4 O 0.6978(4) 0.5426(3) 0.24767(18)
H4_4 H 0.6394 0.4702 0.2423
H5_4 H 0.7267 0.5382 0.2847
N3_2 N 0.9713(3) 0.6918(5) 0.2788(2)
N4_4 N 0.9462(4) 0.6415(5) 0.0545(2)
O8_4 O 0.6619(5) 0.5353(3) 0.1081(2)
O10_4 O 0.8650(4) 0.4922(6) 0.16473(18)
C1_5 C 0.1132(7) 0.2233(4) 0.2203(2)
C2_5 C 0.2001(6) 0.2806(4) 0.2805(3)
C3_5 C 0.1656(7) 0.3333 0.3333
H1_5 H 0.0896 0.3333 0.3333
C4_5 C 0.3896(6) 0.3333 0.3333
N1_4 N 0.3082(5) 0.2795(4) 0.2788(2)
O1_5 O 0.0048(5) 0.2068(4) 0.2252(2)
O2_4 O 0.1589(6) 0.1983(4) 0.16860(18)
O3_5 O 0.4926(5) 0.3333 0.3333
H2_5 H 0.0273 0.1642 0.0910
C5_5 C 0.2232(8) 0.4434(4) 0.4464(2)
C6_5 C 0.2528(7) 0.3861(4) 0.3862(3)
N2_5 N 0.3620(6) 0.3872(4) 0.3879(2)
O5_5 O 0.1313(6) 0.4599(4) 0.4415(2)
O6_5 O 0.2939(7) 0.4684(4) 0.49807(18)
Yb2_4 Yb 0.33330(4) 0.17636(3) 0.1667
O4_5 O 0.9689(4) 0.1782(3) 0.08566(18)
H3_5 H 0.9400 0.1449 0.0486
O7_5 O 0.8449(5) 0.3022(4) 0.24767(18)
H4_5 H 0.8309 0.3606 0.2423
H5_5 H 0.8116 0.2733 0.2847
N4_5 N 0.6954(6) 0.0538(4) 0.0545(2)
O8_5 O 0.8735(6) 0.3381(5) 0.1081(2)
O10_5 O 0.6273(7) 0.1350(4) 0.16473(18)
O4_6 O 0.2093(3) 0.0311(4) 0.08566(18)
H3_6 H 0.2049 0.0600 0.0486
O7_6 O 0.4574(3) 0.1551(5) 0.24767(18)
H4_6 H 0.5298 0.1691 0.2423
H5_6 H 0.4618 0.1884 0.2847
N4_6 N 0.3585(5) 0.3046(6) 0.0545(2)
O8_6 O 0.4647(3) 0.1265(6) 0.1081(2)
O10_6 O 0.5078(6) 0.3727(7) 0.16473(18)
C1_6 C 0.1101(6) 0.8868(7) 0.2203(2)
C2_6 C 0.0805(5) 0.7999(6) 0.2805(3)
C3_6 C 0.1677(7) 0.8344(7) 0.3333
H1_6 H 0.2437 0.9104 0.3333
O1_6 O 0.2020(3) 0.9952(5) 0.2252(2)
H2_6 H 0.1369 0.9727 0.0910
C5_6 C 0.2201(7) 0.7768(8) 0.4464(2)
C6_6 C 0.1332(6) 0.7472(7) 0.3862(3)
N2_6 N 0.0251(5) 0.6380(6) 0.3879(2)
O5_6 O 0.3285(5) 0.8687(6) 0.4415(2)
O6_6 O 0.1744(6) 0.7061(7) 0.49807(18)
C4_6 C 0.9437(6) 0.6104(6) 0.3333
O3_6 O 0.8407(5) 0.5074(5) 0.3333
C1_7 C 0.5566(6) 0.1100(4) 0.1130(2)
C2_7 C 0.5862(5) 0.0527(4) 0.0528(3)
C3_7 C 0.4990(7) 0.0000 0.0000
H1_7 H 0.4230 0.0000 0.0000
C4_7 C 0.7230(6) 0.0000 0.0000
O3_7 O 0.8260(5) 0.0000 0.0000
C3_8 C 0.4990(7) 0.0000 1.0000
H1_8 H 0.4230 0.0000 1.0000
C4_8 C 0.7230(6) 0.0000 1.0000
O3_8 O 0.8260(5) 0.0000 1.0000
C3_9 C 0.4990(7) 1.0000 0.0000
H1_9 H 0.4230 1.0000 0.0000
C4_9 C 0.7230(6) 1.0000 0.0000
O3_9 O 0.8260(5) 1.0000 0.0000
C3_10 C 0.4990(7) 1.0000 1.0000
H1_10 H 0.4230 1.0000 1.0000
C4_10 C 0.7230(6) 1.0000 1.0000
O3_10 O 0.8260(5) 1.0000 1.0000
C5_7 C 0.4465(7) 0.8900(4) 0.8870(2)
C6_7 C 0.5334(6) 0.9473(4) 0.9472(3)
C3_11 C -0.0000 0.4989(7) 0.0000
H1_11 H -0.0000 0.4229 0.0000
C4_11 C -0.0000 0.7229(6) 0.0000
O3_11 O -0.0000 0.8259(5) 0.0000
C3_12 C -0.0000 0.4989(7) 1.0000
H1_12 H -0.0000 0.4229 1.0000
C4_12 C -0.0000 0.7229(6) 1.0000
O3_12 O -0.0000 0.8259(5) 1.0000
C5_8 C 0.1100(4) 0.5566(8) 0.8870(2)
C6_8 C 0.0527(4) 0.5862(7) 0.9472(3)
C1_8 C 0.8900(4) 0.4465(7) 0.1130(2)
C2_8 C 0.9473(4) 0.5334(6) 0.0528(3)
C3_13 C 1.0000 0.4989(7) 0.0000
H1_13 H 1.0000 0.4229 0.0000
C4_13 C 1.0000 0.7229(6) 0.0000
O3_13 O 1.0000 0.8259(5) 0.0000
C3_14 C 1.0000 0.4989(7) 1.0000
H1_14 H 1.0000 0.4229 1.0000
C4_14 C 1.0000 0.7229(6) 1.0000
O3_14 O 1.0000 0.8259(5) 1.0000
C1_9 C 0.5535(7) 0.4434(6) 0.1130(2)
C2_9 C 0.4666(6) 0.4138(5) 0.0528(3)
C3_15 C 0.5011(7) 0.5010(7) 0.0000
H1_15 H 0.5771 0.5770 0.0000
C4_15 C 0.2771(6) 0.2770(6) 0.0000
O3_15 O 0.1741(5) 0.1740(5) 0.0000
C3_16 C 0.5011(7) 0.5010(7) 1.0000
H1_16 H 0.5771 0.5770 1.0000
C4_16 C 0.2771(6) 0.2770(6) 1.0000
O3_16 O 0.1741(5) 0.1740(5) 1.0000
C5_9 C 0.4434(8) 0.5535(7) 0.8870(2)
C6_9 C 0.4138(7) 0.4666(6) 0.9472(3)
O4_7 O 0.4885(3) 0.1240(3) 0.41899(18)
H2_7 H 0.5025 0.1964 0.4243
H3_7 H 0.5218 0.1284 0.3819
O7_7 O 0.3644(4) 0.8760(3) 0.58101(18)
H4_7 H 0.3060 0.8036 0.5757
H5_7 H 0.3933 0.8716 0.6181
O4_8 O 0.6356(4) 0.5115(3) 0.41899(18)
H2_8 H 0.6940 0.4975 0.4243
H3_8 H 0.6067 0.4782 0.3819
O7_8 O 0.5115(5) 0.6356(4) 0.58101(18)
H4_8 H 0.4975 0.6940 0.5757
H5_8 H 0.4782 0.6067 0.6181
O7_9 O 0.1240(3) 0.4885(5) 0.58101(18)
H4_9 H 0.1964 0.5025 0.5757
H5_9 H 0.1284 0.5218 0.6181
O4_9 O 0.8760(3) 0.3644(4) 0.41899(18)
H2_9 H 0.8036 0.3060 0.4243
H3_9 H 0.8716 0.3933 0.3819
loop_
_geom_bond_atom_site_label_1
_geom_bond_atom_site_label_2
_geom_bond_site_symmetry_1
_geom_bond_site_symmetry_2
C4 N1 1_555 1_555
O3 C4 1_555 1_555
Yb2 N1 1_555 1_555
C1 C2 1_555 1_555
C2 C3 1_555 1_555
C3 H1 1_555 1_555
O1 C1 1_555 1_555
O2 C1 1_555 1_555
O4 H2 1_555 1_555
H3 O4 1_555 1_555
Yb1 O1 1_555 1_555
C5 C6 1_555 1_555
C6 C3 1_555 1_555
O5 C5 1_555 1_555
O6 C5 1_555 1_555
O7 Yb1 1_555 1_555
H4 O7 1_555 1_555
H5 O7 1_555 1_555
N3 Yb1 1_555 1_555
N4 Yb1 1_555 1_555
O8 Yb1 1_555 1_555
O10 Yb1 1_555 1_555
Yb3 O5 1_555 1_555
Yb4_2 N2 1_555 1_555
O4 Yb1 1_555 1_555
C6 N2 1_555 1_555
O6 Yb4_2 1_555 1_555
C1_2 C2_2 1_555 1_555
C2_2 C3_2 1_555 1_555
C3_2 H1_2 1_555 1_555
C4_2 N1_2 1_555 1_555
N1_2 C2_2 1_555 1_555
O1_2 C1_2 1_555 1_555
O2_2 C1_2 1_555 1_555
O3_2 C4_2 1_555 1_555
C5_2 C6_2 1_555 1_555
C6_2 C3_2 1_555 1_555
N2_2 C4_2 1_555 1_555
O5_2 C5_2 1_555 1_555
O6_2 C5_2 1_555 1_555
Yb2_2 N1_2 1_555 1_555
Yb3_2 O5_2 1_555 1_555
Yb3 N2_2 1_555 1_555
O2_2 Yb2_2 1_555 1_555
C6_2 N2_2 1_555 1_555
O6_2 Yb3 1_555 1_555
H3_2 O4_2 1_555 1_555
O7_2 Yb2 1_555 1_555
H4_2 O7_2 1_555 1_555
H5_2 O7_2 1_555 1_555
N4_2 Yb2 1_555 1_555
O8_2 Yb2 1_555 1_555
O10_2 Yb2 1_555 1_555
O4_2 Yb2 1_555 1_555
H3_3 O4_3 1_555 1_555
O7_3 Yb2_2 1_555 1_555
H4_3 O7_3 1_555 1_555
H5_3 O7_3 1_555 1_555
N4_3 Yb2_2 1_555 1_555
O8_3 Yb2_2 1_555 1_555
O10_3 Yb2_2 1_555 1_555
O4_3 Yb2_2 1_555 1_555
C1_3 C2_3 1_555 1_555
C2_3 C3_3 1_555 1_555
C3_3 H1_3 1_555 1_555
O1_3 C1_3 1_555 1_555
O9 C1_3 1_555 1_555
C5_3 C6_3 1_555 1_555
C6_3 C3_3 1_555 1_555
O5_3 C5_3 1_555 1_555
O6_3 C5_3 1_555 1_555
Yb4_2 O5_3 1_555 1_555
Yb3_2 N2_3 1_555 1_555
C6_3 N2_3 1_555 1_555
O6_3 Yb3_2 1_555 1_555
C4_3 N3 1_555 1_555
O3_3 C4_3 1_555 1_555
C4_4 N1_3 1_555 1_555
O3_4 C4_4 1_555 1_555
Yb2_3 N1_3 1_555 1_555
C1_4 C2_4 1_555 1_555
C2_4 C3_4 1_555 1_555
C3_4 H1_4 1_555 1_555
O1_4 C1_4 1_555 1_555
O2_3 C1_4 1_555 1_555
O4_4 H2_4 1_555 1_555
H3_4 O4_4 1_555 1_555
Yb1_2 O1_4 1_555 1_555
C5_4 C6_4 1_555 1_555
C6_4 C3_4 1_555 1_555
O5_4 C5_4 1_555 1_555
O6_4 C5_4 1_555 1_555
O7_4 Yb1_2 1_555 1_555
H4_4 O7_4 1_555 1_555
H5_4 O7_4 1_555 1_555
N3_2 Yb1_2 1_555 1_555
N4_4 Yb1_2 1_555 1_555
O8_4 Yb1_2 1_555 1_555
O10_4 Yb1_2 1_555 1_555
Yb3 O5_4 1_555 1_555
Yb3_3 N2_4 1_555 1_555
O4_4 Yb1_2 1_555 1_555
C6_4 N2_4 1_555 1_555
O6_4 Yb3_3 1_555 1_555
C1_5 C2_5 1_555 1_555
C2_5 C3_5 1_555 1_555
C3_5 H1_5 1_555 1_555
C4_5 N1_4 1_555 1_555
N1_4 C2_5 1_555 1_555
O1_5 C1_5 1_555 1_555
O2_4 C1_5 1_555 1_555
O3_5 C4_5 1_555 1_555
C5_5 C6_5 1_555 1_555
C6_5 C3_5 1_555 1_555
N2_5 C4_5 1_555 1_555
O5_5 C5_5 1_555 1_555
O6_5 C5_5 1_555 1_555
Yb2_4 N1_4 1_555 1_555
Yb4 O5_5 1_555 1_555
Yb3 N2_5 1_555 1_555
O2_4 Yb2_4 1_555 1_555
C6_5 N2_5 1_555 1_555
O6_5 Yb3 1_555 1_555
H3_5 O4_5 1_555 1_555
O7_5 Yb2_3 1_555 1_555
H4_5 O7_5 1_555 1_555
H5_5 O7_5 1_555 1_555
N4_5 Yb2_3 1_555 1_555
O8_5 Yb2_3 1_555 1_555
O10_5 Yb2_3 1_555 1_555
O4_5 Yb2_3 1_555 1_555
H3_6 O4_6 1_555 1_555
O7_6 Yb2_4 1_555 1_555
H4_6 O7_6 1_555 1_555
H5_6 O7_6 1_555 1_555
N4_6 Yb2_4 1_555 1_555
O8_6 Yb2_4 1_555 1_555
O10_6 Yb2_4 1_555 1_555
O4_6 Yb2_4 1_555 1_555
C1_6 C2_6 1_555 1_555
C2_6 C3_6 1_555 1_555
C3_6 H1_6 1_555 1_555
O1_6 C1_6 1_555 1_555
O9_2 C1_6 1_555 1_555
C5_6 C6_6 1_555 1_555
C6_6 C3_6 1_555 1_555
O5_6 C5_6 1_555 1_555
O6_6 C5_6 1_555 1_555
Yb3_3 O5_6 1_555 1_555
Yb4 N2_6 1_555 1_555
C6_6 N2_6 1_555 1_555
O6_6 Yb4 1_555 1_555
C4_6 N3_2 1_555 1_555
O3_6 C4_6 1_555 1_555
C1_7 C2_7 1_555 1_555
C2_7 C3_7 1_555 1_555
C3_7 H1_7 1_555 1_555
C4_7 N4_5 1_555 1_555
N4_5 C2_7 1_555 1_555
O8_6 C1_7 1_555 1_555
O10_5 C1_7 1_555 1_555
O3_7 C4_7 1_555 1_555
C3_8 H1_8 1_555 1_555
O3_8 C4_8 1_555 1_555
C3_9 H1_9 1_555 1_555
O3_9 C4_9 1_555 1_555
C3_10 H1_10 1_555 1_555
O3_10 C4_10 1_555 1_555
C5_7 C6_7 1_555 1_555
C6_7 C3_10 1_555 1_555
N4 C4_10 1_555 1_555
O8_2 C5_7 1_555 1_555
O10 C5_7 1_555 1_555
C6_7 N4 1_555 1_555
C3_11 H1_11 1_555 1_555
O3_11 C4_11 1_555 1_555
C3_12 H1_12 1_555 1_555
O3_12 C4_12 1_555 1_555
C5_8 C6_8 1_555 1_555
C6_8 C3_12 1_555 1_555
N4_2 C4_12 1_555 1_555
O8_3 C5_8 1_555 1_555
O10_2 C5_8 1_555 1_555
C6_8 N4_2 1_555 1_555
C1_8 C2_8 1_555 1_555
C2_8 C3_13 1_555 1_555
C3_13 H1_13 1_555 1_555
C4_13 N4_4 1_555 1_555
N4_4 C2_8 1_555 1_555
O8_5 C1_8 1_555 1_555
O10_4 C1_8 1_555 1_555
O3_13 C4_13 1_555 1_555
C3_14 H1_14 1_555 1_555
O3_14 C4_14 1_555 1_555
C1_9 C2_9 1_555 1_555
C2_9 C3_15 1_555 1_555
C3_15 H1_15 1_555 1_555
C4_15 N4_6 1_555 1_555
N4_6 C2_9 1_555 1_555
O8_4 C1_9 1_555 1_555
O10_6 C1_9 1_555 1_555
O3_15 C4_15 1_555 1_555
C3_16 H1_16 1_555 1_555
O3_16 C4_16 1_555 1_555
C5_9 C6_9 1_555 1_555
C6_9 C3_16 1_555 1_555
N4_3 C4_16 1_555 1_555
O8 C5_9 1_555 1_555
O10_3 C5_9 1_555 1_555
C6_9 N4_3 1_555 1_555
O4_7 H2_7 1_555 1_555
H3_7 O4_7 1_555 1_555
O4_7 Yb3_2 1_555 1_555
O7_7 Yb3_3 1_555 1_555
H4_7 O7_7 1_555 1_555
H5_7 O7_7 1_555 1_555
O4_8 H2_8 1_555 1_555
H3_8 O4_8 1_555 1_555
O7_8 Yb3 1_555 1_555
H4_8 O7_8 1_555 1_555
H5_8 O7_8 1_555 1_555
O4_8 Yb3 1_555 1_555
O7_9 Yb4 1_555 1_555
H4_9 O7_9 1_555 1_555
H5_9 O7_9 1_555 1_555
O4_9 H2_9 1_555 1_555
H3_9 O4_9 1_555 1_555
O4_9 Yb4_2 1_555 1_555

#END
