
###############################################################################
#
# This file contains modified crystal structure data generated from the
# MOF subset of the Cambridge Structural Database (CSD) v543 
# hosted by the Cambridge Crystallographic Data Centre (CCDC).
#
# This work is licensed under the Creative Commons
# Attribution-NonCommercial-ShareAlike 4.0 International License.
# To view a copy of this license, visit
# http://creativecommons.org/licenses/by-nc-sa/4.0/
# or send a letter to
# Creative Commons, PO Box 1866, Mountain View, CA 94042, USA.
#
# CIF created using the CSD Python API on 29 September 2022
# The structure has been converted into the P1 space group
# The structure has a 3D framework
# The original CSD entry LIDWIG is in the triclinic crystal system
# The framework has been calculated to contain at least 10.0% void space
# The void calculation uses a probe of radius 1.32A, grid spacing 0.4
#
###############################################################################

data_LIDWIG
_chemical_formula_moiety         '(C96 H64 Co4 N8 O16)n'
_symmetry_cell_setting           triclinic
_symmetry_space_group_name_H-M   'P 1'
_symmetry_Int_Tables_number      1
_space_group_name_Hall           'P 1'
loop_
_symmetry_equiv_pos_site_id
_symmetry_equiv_pos_as_xyz
1 x,y,z
_cell_length_a                   12.228(2)
_cell_length_b                   13.654(3)
_cell_length_c                   16.958(3)
_cell_angle_alpha                77.040(10)
_cell_angle_beta                 71.340(10)
_cell_angle_gamma                87.900(10)
_cell_volume                     2612.27
loop_
_atom_site_label
_atom_site_type_symbol
_atom_site_fract_x
_atom_site_fract_y
_atom_site_fract_z
O7 O 0.1364(2) 0.3601(2) 0.22115(19)
O8 O 0.0693(2) 0.3673(2) 0.35634(18)
C36 C 0.0549(4) 0.3642(3) 0.2870(3)
Co4 Co 0.27462(5) 0.36808(4) 0.11565(4)
Co7 Co 0.23372(5) 0.37044(4) 0.36173(4)
O1 O 0.1575(3) 0.3826(2) 0.03649(18)
O5 O 0.4334(2) 0.3497(2) 0.13338(18)
O6 O 0.3729(2) 0.3998(2) 0.25600(18)
N1 N 0.2616(3) 0.2069(3) 0.1324(2)
N3 N 0.2436(3) 0.2116(3) 0.3697(2)
C1 C 0.3555(4) 0.1544(4) 0.1096(3)
H1 H 0.4275 0.1865 0.0940
C2 C 0.3507(4) 0.0549(4) 0.1082(3)
H2 H 0.4188 0.0212 0.0918
C3 C 0.2447(4) 0.0035(3) 0.1312(3)
C4 C 0.1477(4) 0.0573(4) 0.1589(3)
H3 H 0.0745 0.0265 0.1783
C5 C 0.1611(4) 0.1565(4) 0.1573(3)
H4 H 0.0944 0.1917 0.1751
C25 C 0.4501(4) 0.3720(3) 0.1979(3)
C26 C 0.5706(3) 0.3671(3) 0.2018(3)
C27 C 0.5917(3) 0.3704(3) 0.2755(3)
H17 H 0.5300 0.3749 0.3237
C28 C 0.7057(3) 0.3672(3) 0.2800(3)
C29 C 0.7993(4) 0.3614(3) 0.2064(3)
C30 C 0.7758(4) 0.3573(3) 0.1296(3)
H18 H 0.8367 0.3543 0.0805
C31 C 0.6650(4) 0.3579(3) 0.1279(3)
H19 H 0.6507 0.3522 0.0784
C32 C 0.9137(3) 0.3614(3) 0.2101(3)
H20 H 0.9758 0.3591 0.1616
C33 C 0.9329(3) 0.3647(3) 0.2846(3)
C34 C 0.8395(4) 0.3682(3) 0.3585(3)
H21 H 0.8530 0.3693 0.4093
C35 C 0.7296(4) 0.3702(3) 0.3555(3)
H22 H 0.6687 0.3736 0.4045
C37 C 0.3444(4) 0.1677(4) 0.3434(3)
H23 H 0.4116 0.2065 0.3297
C38 C 0.3565(4) 0.0694(4) 0.3351(3)
H24 H 0.4294 0.0442 0.3151
C39 C 0.2590(5) 0.0094(4) 0.3568(3)
C40 C 0.1527(5) 0.0521(4) 0.3869(4)
H25 H 0.0844 0.0139 0.4033
C41 C 0.1497(4) 0.1528(4) 0.3921(3)
H26 H 0.0781 0.1801 0.4124
O9 O 0.3538(3) 0.3673(3) 0.4360(2)
O10 O 0.1670(3) 0.3522(2) 0.49784(18)
N5 N 0.2902(3) 0.5281(2) 0.0988(2)
N6 N 0.2178(3) 0.5293(3) 0.3498(2)
O2 O 0.3452(2) 0.3761(2) 0.98069(18)
C13 C 0.2451(4) 0.3797(3) 0.9733(3)
C14 C 0.2318(4) 0.3762(3) 0.8898(3)
C15 C 0.1197(4) 0.3715(4) 0.8843(3)
H11 H 0.0555 0.3708 0.9322
C16 C 0.1062(4) 0.3679(4) 0.8086(3)
H12 H 0.0321 0.3654 0.8050
C17 C 0.2014(4) 0.3679(3) 0.7358(3)
C18 C 0.3140(4) 0.3759(3) 0.7402(3)
C19 C 0.3245(4) 0.3785(3) 0.8207(3)
H13 H 0.3978 0.3819 0.8255
C20 C 0.1889(4) 0.3635(3) 0.6560(3)
H14 H 0.1152 0.3587 0.6522
C21 C 0.2821(4) 0.3660(3) 0.5853(3)
C22 C 0.3945(4) 0.3747(4) 0.5896(3)
H15 H 0.4585 0.3764 0.5414
C23 C 0.4089(4) 0.3807(4) 0.6653(3)
H16 H 0.4832 0.3882 0.6673
C24 C 0.2689(4) 0.3621(3) 0.5005(3)
C6 C 0.2324(4) 0.8973(4) 0.1286(3)
H5 H 0.1587 0.8673 0.1538
C7 C 0.3160(4) 0.8407(4) 0.0941(3)
H6 H 0.3894 0.8712 0.0680
C8 C 0.3044(4) 0.7344(3) 0.0930(3)
C9 C 0.1997(4) 0.6833(4) 0.1073(3)
H7 H 0.1319 0.7184 0.1147
C10 C 0.1967(4) 0.5847(3) 0.1104(3)
H8 H 0.1254 0.5534 0.1213
C11 C 0.3906(4) 0.5779(3) 0.0808(3)
H9 H 0.4575 0.5414 0.0705
C12 C 0.4020(4) 0.6772(3) 0.0764(3)
H10 H 0.4749 0.7071 0.0625
C42 C 0.2679(5) 0.9033(4) 0.3485(4)
H27 H 0.3421 0.8816 0.3260
C43 C 0.1863(5) 0.8390(4) 0.3687(3)
H28 H 0.1118 0.8601 0.3909
C44 C 0.1979(4) 0.7340(4) 0.3602(3)
C45 C 0.2987(4) 0.6960(4) 0.3113(3)
H29 H 0.3627 0.7392 0.2809
C46 C 0.3052(4) 0.5958(4) 0.3074(3)
H30 H 0.3735 0.5740 0.2737
C47 C 0.1194(4) 0.5662(4) 0.3938(3)
H31 H 0.0554 0.5224 0.4214
C48 C 0.1073(4) 0.6663(4) 0.4005(3)
H32 H 0.0371 0.6869 0.4327
N2 N 0.7098(3) 0.4719(2) 0.9012(2)
N4 N 0.7822(3) 0.4707(3) 0.6502(2)
C6_2 C 0.7676(4) 0.1027(4) 0.8714(3)
H5_2 H 0.8413 0.1327 0.8462
C7_2 C 0.6840(4) 0.1593(4) 0.9059(3)
H6_2 H 0.6106 0.1288 0.9320
C8_2 C 0.6956(4) 0.2656(3) 0.9070(3)
C9_2 C 0.8003(4) 0.3167(4) 0.8927(3)
H7_2 H 0.8681 0.2816 0.8853
C10_2 C 0.8033(4) 0.4153(3) 0.8896(3)
H8_2 H 0.8746 0.4466 0.8787
C11_2 C 0.6094(4) 0.4221(3) 0.9192(3)
H9_2 H 0.5425 0.4586 0.9295
C12_2 C 0.5980(4) 0.3228(3) 0.9236(3)
H10_2 H 0.5251 0.2929 0.9375
C42_2 C 0.7321(5) 0.0967(4) 0.6515(4)
H27_2 H 0.6579 0.1184 0.6740
C43_2 C 0.8137(5) 0.1610(4) 0.6313(3)
H28_2 H 0.8882 0.1399 0.6091
C44_2 C 0.8021(4) 0.2660(4) 0.6398(3)
C45_2 C 0.7013(4) 0.3040(4) 0.6887(3)
H29_2 H 0.6373 0.2608 0.7191
C46_2 C 0.6948(4) 0.4042(4) 0.6926(3)
H30_2 H 0.6265 0.4260 0.7263
C47_2 C 0.8806(4) 0.4338(4) 0.6062(3)
H31_2 H 0.9446 0.4776 0.5786
C48_2 C 0.8927(4) 0.3337(4) 0.5995(3)
H32_2 H 0.9629 0.3131 0.5673
Co3 Co 0.72538(5) 0.63192(4) 0.88435(4)
Co5 Co 0.76628(5) 0.62956(4) 0.63827(4)
O2_2 O 0.6548(2) 0.6239(2) 0.01931(18)
O3 O 0.6462(3) 0.6327(3) 0.5640(2)
O4 O 0.8330(3) 0.6478(2) 0.50216(18)
C13_2 C 0.7549(4) 0.6203(3) 0.0267(3)
C14_2 C 0.7682(4) 0.6238(3) 0.1102(3)
C15_2 C 0.8803(4) 0.6285(4) 0.1157(3)
H11_2 H 0.9445 0.6292 0.0678
C16_2 C 0.8938(4) 0.6321(4) 0.1914(3)
H12_2 H 0.9679 0.6346 0.1950
C17_2 C 0.7986(4) 0.6321(3) 0.2642(3)
C18_2 C 0.6860(4) 0.6241(3) 0.2598(3)
C19_2 C 0.6755(4) 0.6215(3) 0.1793(3)
H13_2 H 0.6022 0.6181 0.1745
C20_2 C 0.8111(4) 0.6365(3) 0.3440(3)
H14_2 H 0.8848 0.6413 0.3478
C21_2 C 0.7179(4) 0.6340(3) 0.4147(3)
C22_2 C 0.6055(4) 0.6253(4) 0.4104(3)
H15_2 H 0.5415 0.6236 0.4586
C23_2 C 0.5911(4) 0.6193(4) 0.3347(3)
H16_2 H 0.5168 0.6118 0.3327
C24_2 C 0.7311(4) 0.6379(3) 0.4995(3)
O1_2 O 0.8425(3) 0.6174(2) 0.96351(18)
O5_2 O 0.5666(2) 0.6503(2) 0.86662(18)
O6_2 O 0.6271(2) 0.6002(2) 0.74400(18)
N1_2 N 0.7384(3) 0.7931(3) 0.8676(2)
N3_2 N 0.7564(3) 0.7884(3) 0.6303(2)
C1_2 C 0.6445(4) 0.8456(4) 0.8904(3)
H1_2 H 0.5725 0.8135 0.9060
C2_2 C 0.6493(4) 0.9451(4) 0.8918(3)
H2_2 H 0.5812 0.9788 0.9082
C3_2 C 0.7553(4) 0.9965(3) 0.8688(3)
C4_2 C 0.8523(4) 0.9427(4) 0.8411(3)
H3_2 H 0.9255 0.9735 0.8217
C5_2 C 0.8389(4) 0.8435(4) 0.8427(3)
H4_2 H 0.9056 0.8083 0.8249
C25_2 C 0.5499(4) 0.6280(3) 0.8021(3)
C26_2 C 0.4294(3) 0.6329(3) 0.7982(3)
C27_2 C 0.4083(3) 0.6296(3) 0.7245(3)
H17_2 H 0.4700 0.6251 0.6763
C28_2 C 0.2943(3) 0.6328(3) 0.7200(3)
C29_2 C 0.2007(4) 0.6386(3) 0.7936(3)
C30_2 C 0.2242(4) 0.6427(3) 0.8704(3)
H18_2 H 0.1633 0.6457 0.9195
C31_2 C 0.3350(4) 0.6421(3) 0.8721(3)
H19_2 H 0.3493 0.6478 0.9216
C32_2 C 0.0863(3) 0.6386(3) 0.7899(3)
H20_2 H 0.0242 0.6409 0.8384
C33_2 C 0.0671(3) 0.6353(3) 0.7154(3)
C34_2 C 0.1605(4) 0.6318(3) 0.6415(3)
H21_2 H 0.1470 0.6307 0.5907
C35_2 C 0.2704(4) 0.6298(3) 0.6445(3)
H22_2 H 0.3313 0.6264 0.5955
C37_2 C 0.6556(4) 0.8323(4) 0.6566(3)
H23_2 H 0.5884 0.7935 0.6703
C38_2 C 0.6435(4) 0.9306(4) 0.6649(3)
H24_2 H 0.5706 0.9558 0.6849
C39_2 C 0.7410(5) 0.9906(4) 0.6432(3)
C40_2 C 0.8473(5) 0.9479(4) 0.6131(4)
H25_2 H 0.9156 0.9861 0.5967
C41_2 C 0.8503(4) 0.8472(4) 0.6079(3)
H26_2 H 0.9219 0.8199 0.5876
O11 O 0.8636(2) 0.6399(2) 0.77885(19)
O12 O 0.9307(2) 0.6327(2) 0.64366(18)
C36_2 C 0.9451(4) 0.6358(3) 0.7130(3)
loop_
_geom_bond_atom_site_label_1
_geom_bond_atom_site_label_2
_geom_bond_site_symmetry_1
_geom_bond_site_symmetry_2
O7 C36 1_555 1_555
O8 C36 1_555 1_555
Co4 O7 1_555 1_555
Co7 O8 1_555 1_555
Co4 O1 1_555 1_555
Co7 O6 1_555 1_555
O5 Co4 1_555 1_555
O6 C25 1_555 1_555
N1 Co4 1_555 1_555
N3 Co7 1_555 1_555
C1 N1 1_555 1_555
H1 C1 1_555 1_555
C2 C1 1_555 1_555
H2 C2 1_555 1_555
C3 C2 1_555 1_555
C4 C3 1_555 1_555
H3 C4 1_555 1_555
C5 N1 1_555 1_555
H4 C5 1_555 1_555
C25 O5 1_555 1_555
C26 C25 1_555 1_555
C27 C26 1_555 1_555
H17 C27 1_555 1_555
C28 C27 1_555 1_555
C29 C28 1_555 1_555
C30 C29 1_555 1_555
H18 C30 1_555 1_555
C31 C26 1_555 1_555
H19 C31 1_555 1_555
C32 C29 1_555 1_555
H20 C32 1_555 1_555
C33 C32 1_555 1_555
C34 C33 1_555 1_555
H21 C34 1_555 1_555
C35 C28 1_555 1_555
H22 C35 1_555 1_555
C37 N3 1_555 1_555
H23 C37 1_555 1_555
C38 C37 1_555 1_555
H24 C38 1_555 1_555
C39 C38 1_555 1_555
C40 C39 1_555 1_555
H25 C40 1_555 1_555
C41 N3 1_555 1_555
H26 C41 1_555 1_555
O9 Co7 1_555 1_555
O10 Co7 1_555 1_555
N5 Co4 1_555 1_555
N6 Co7 1_555 1_555
C4 C5 1_555 1_555
C30 C31 1_555 1_555
C34 C35 1_555 1_555
C40 C41 1_555 1_555
O9 C24 1_555 1_555
O10 C24 1_555 1_555
C13 O2 1_555 1_555
C14 C13 1_555 1_555
C15 C14 1_555 1_555
H11 C15 1_555 1_555
C16 C15 1_555 1_555
H12 C16 1_555 1_555
C17 C16 1_555 1_555
C18 C17 1_555 1_555
C19 C14 1_555 1_555
H13 C19 1_555 1_555
C20 C17 1_555 1_555
H14 C20 1_555 1_555
C21 C20 1_555 1_555
C22 C21 1_555 1_555
H15 C22 1_555 1_555
C23 C18 1_555 1_555
H16 C23 1_555 1_555
C24 C21 1_555 1_555
C18 C19 1_555 1_555
C22 C23 1_555 1_555
N5 C10 1_555 1_555
N6 C46 1_555 1_555
H5 C6 1_555 1_555
C7 C6 1_555 1_555
H6 C7 1_555 1_555
C8 C7 1_555 1_555
C9 C8 1_555 1_555
H7 C9 1_555 1_555
C10 C9 1_555 1_555
H8 C10 1_555 1_555
C11 N5 1_555 1_555
H9 C11 1_555 1_555
C12 C8 1_555 1_555
H10 C12 1_555 1_555
H27 C42 1_555 1_555
C43 C42 1_555 1_555
H28 C43 1_555 1_555
C44 C43 1_555 1_555
C45 C44 1_555 1_555
H29 C45 1_555 1_555
C46 C45 1_555 1_555
H30 C46 1_555 1_555
C47 N6 1_555 1_555
H31 C47 1_555 1_555
C48 C44 1_555 1_555
H32 C48 1_555 1_555
C11 C12 1_555 1_555
C47 C48 1_555 1_555
N2 C10_2 1_555 1_555
N4 C46_2 1_555 1_555
H5_2 C6_2 1_555 1_555
C7_2 C6_2 1_555 1_555
H6_2 C7_2 1_555 1_555
C8_2 C7_2 1_555 1_555
C9_2 C8_2 1_555 1_555
H7_2 C9_2 1_555 1_555
C10_2 C9_2 1_555 1_555
H8_2 C10_2 1_555 1_555
C11_2 N2 1_555 1_555
H9_2 C11_2 1_555 1_555
C12_2 C8_2 1_555 1_555
H10_2 C12_2 1_555 1_555
H27_2 C42_2 1_555 1_555
C43_2 C42_2 1_555 1_555
H28_2 C43_2 1_555 1_555
C44_2 C43_2 1_555 1_555
C45_2 C44_2 1_555 1_555
H29_2 C45_2 1_555 1_555
C46_2 C45_2 1_555 1_555
H30_2 C46_2 1_555 1_555
C47_2 N4 1_555 1_555
H31_2 C47_2 1_555 1_555
C48_2 C44_2 1_555 1_555
H32_2 C48_2 1_555 1_555
Co3 N2 1_555 1_555
Co5 N4 1_555 1_555
C11_2 C12_2 1_555 1_555
C47_2 C48_2 1_555 1_555
O3 C24_2 1_555 1_555
O4 C24_2 1_555 1_555
C13_2 O2_2 1_555 1_555
C14_2 C13_2 1_555 1_555
C15_2 C14_2 1_555 1_555
H11_2 C15_2 1_555 1_555
C16_2 C15_2 1_555 1_555
H12_2 C16_2 1_555 1_555
C17_2 C16_2 1_555 1_555
C18_2 C17_2 1_555 1_555
C19_2 C14_2 1_555 1_555
H13_2 C19_2 1_555 1_555
C20_2 C17_2 1_555 1_555
H14_2 C20_2 1_555 1_555
C21_2 C20_2 1_555 1_555
C22_2 C21_2 1_555 1_555
H15_2 C22_2 1_555 1_555
C23_2 C18_2 1_555 1_555
H16_2 C23_2 1_555 1_555
C24_2 C21_2 1_555 1_555
Co5 O3 1_555 1_555
O4 Co5 1_555 1_555
C18_2 C19_2 1_555 1_555
C22_2 C23_2 1_555 1_555
Co3 O1_2 1_555 1_555
Co5 O6_2 1_555 1_555
O5_2 Co3 1_555 1_555
O6_2 C25_2 1_555 1_555
N1_2 Co3 1_555 1_555
N3_2 Co5 1_555 1_555
C1_2 N1_2 1_555 1_555
H1_2 C1_2 1_555 1_555
C2_2 C1_2 1_555 1_555
H2_2 C2_2 1_555 1_555
C3_2 C2_2 1_555 1_555
C4_2 C3_2 1_555 1_555
H3_2 C4_2 1_555 1_555
C5_2 N1_2 1_555 1_555
H4_2 C5_2 1_555 1_555
C25_2 O5_2 1_555 1_555
C26_2 C25_2 1_555 1_555
C27_2 C26_2 1_555 1_555
H17_2 C27_2 1_555 1_555
C28_2 C27_2 1_555 1_555
C29_2 C28_2 1_555 1_555
C30_2 C29_2 1_555 1_555
H18_2 C30_2 1_555 1_555
C31_2 C26_2 1_555 1_555
H19_2 C31_2 1_555 1_555
C32_2 C29_2 1_555 1_555
H20_2 C32_2 1_555 1_555
C33_2 C32_2 1_555 1_555
C34_2 C33_2 1_555 1_555
H21_2 C34_2 1_555 1_555
C35_2 C28_2 1_555 1_555
H22_2 C35_2 1_555 1_555
C37_2 N3_2 1_555 1_555
H23_2 C37_2 1_555 1_555
C38_2 C37_2 1_555 1_555
H24_2 C38_2 1_555 1_555
C39_2 C38_2 1_555 1_555
C40_2 C39_2 1_555 1_555
H25_2 C40_2 1_555 1_555
C41_2 N3_2 1_555 1_555
H26_2 C41_2 1_555 1_555
O11 Co3 1_555 1_555
O12 Co5 1_555 1_555
C4_2 C5_2 1_555 1_555
C30_2 C31_2 1_555 1_555
C34_2 C35_2 1_555 1_555
C40_2 C41_2 1_555 1_555
O11 C36_2 1_555 1_555
O12 C36_2 1_555 1_555

#END
