
###############################################################################
#
# This file contains modified crystal structure data generated from the
# MOF subset of the Cambridge Structural Database (CSD) v543 
# hosted by the Cambridge Crystallographic Data Centre (CCDC).
#
# This work is licensed under the Creative Commons
# Attribution-NonCommercial-ShareAlike 4.0 International License.
# To view a copy of this license, visit
# http://creativecommons.org/licenses/by-nc-sa/4.0/
# or send a letter to
# Creative Commons, PO Box 1866, Mountain View, CA 94042, USA.
#
# CIF created using the CSD Python API on 29 September 2022
# The structure has been converted into the P1 space group
# The structure has a 3D framework
# The original CSD entry LIDZOP is in the monoclinic crystal system
# The framework has been calculated to contain at least 10.0% void space
# The void calculation uses a probe of radius 1.32A, grid spacing 0.4
#
###############################################################################

data_LIDZOP
_chemical_formula_moiety         '(C56 H32 O22 S4 Sr2)n'
_symmetry_cell_setting           triclinic
_symmetry_space_group_name_H-M   'P 1'
_symmetry_Int_Tables_number      1
_space_group_name_Hall           'P 1'
loop_
_symmetry_equiv_pos_site_id
_symmetry_equiv_pos_as_xyz
1 x,y,z
_cell_length_a                   12.1722(5)
_cell_length_b                   5.7277(2)
_cell_length_c                   22.9034(9)
_cell_angle_alpha                90
_cell_angle_beta                 98.857(2)
_cell_angle_gamma                90
_cell_volume                     1577.75
loop_
_atom_site_label
_atom_site_type_symbol
_atom_site_fract_x
_atom_site_fract_y
_atom_site_fract_z
Sr3 Sr 0.133477(19) 0.24465(4) 0.724331(10)
O1 O 0.00441(17) 0.5179(3) 0.75922(10)
O2 O 0.03928(18) 0.8953(4) 0.75117(10)
C6 C 0.6953(3) 0.0619(5) 0.00510(12)
C7 C 0.7235(3) 0.0149(5) 0.06480(12)
H4 H 0.7602 0.1273 0.0899
Sr5 Sr 0.633477(19) 0.25535(4) 0.224331(10)
O6 O 0.58171(18) 0.2092(3) 0.88830(9)
H3 H 0.7132 0.2050 0.9898
H7 H 0.9432 0.1073 0.8284
C13 C 0.7979(2) 0.0498(4) 0.85834(12)
H8 H 0.7953 0.1910 0.8782
O7 O 0.49559(17) 0.0179(3) 0.74078(10)
O11 O 0.26170(16) 0.0711(3) 0.81349(8)
O3 O 0.73481(16) 0.5482(3) 0.17037(8)
O4 O 0.73830(16) 0.9289(3) 0.18651(8)
C1 C 0.7239(2) 0.7538(4) 0.15248(12)
C2 C 0.6973(2) 0.8010(4) 0.08729(11)
C3 C 0.6448(2) 0.6325(5) 0.04927(12)
H1 H 0.6289 0.4873 0.0641
Sr6 Sr 0.866523(19) 0.75535(4) 0.275669(10)
Sr1 Sr 0.366523(19) 0.74465(4) 0.775669(10)
S1 S 0.59866(5) 0.96171(11) 0.89285(3)
O5 O 0.50781(16) 0.8057(3) 0.87108(8)
C4 C 0.6160(2) 0.6773(5) 0.98997(12)
H2 H 0.5807 0.5638 0.9647
C5 C 0.6401(2) 0.8929(4) 0.96843(11)
C8 C 0.7129(2) 0.8878(4) 0.85750(11)
C9 C 0.7162(2) 0.6737(5) 0.82983(12)
H5 H 0.6592 0.5659 0.8300
C10 C 0.8062(2) 0.6240(4) 0.80193(12)
H6 H 0.8097 0.4806 0.7833
C11 C 0.8916(2) 0.7845(4) 0.80118(13)
C12 C 0.8868(2) 0.9983(5) 0.82919(13)
C14 C 0.9871(2) 0.7280(4) 0.76794(13)
O8 O 0.46072(18) 0.3953(4) 0.74883(10)
O9 O 0.26519(16) 0.4518(3) 0.82963(8)
O10 O 0.23481(16) 0.9518(3) 0.67037(8)
O12 O 0.23830(16) 0.5711(3) 0.68651(8)
S1_2 S 0.90134(5) 0.46171(11) 0.60715(3)
O3_2 O 0.76519(16) 0.0482(3) 0.32963(8)
O4_2 O 0.76170(16) 0.4289(3) 0.31349(8)
O5_2 O 0.99219(16) 0.3057(3) 0.62892(8)
O6_2 O 0.91829(18) 0.7092(3) 0.61170(9)
C1_2 C 0.7761(2) 0.2538(4) 0.34752(12)
C2_2 C 0.8027(2) 0.3010(4) 0.41271(11)
C3_2 C 0.8552(2) 0.1325(5) 0.45073(12)
C4_2 C 0.8840(2) 0.1773(5) 0.51003(12)
H2_2 H 0.9193 0.0638 0.5353
C5_2 C 0.8599(2) 0.3929(4) 0.53157(11)
C6_2 C 0.8047(3) 0.5619(5) 0.49490(12)
H3_2 H 0.7868 0.7050 0.5102
C7_2 C 0.7765(3) 0.5149(5) 0.43520(12)
H4_2 H 0.7398 0.6273 0.4101
C8_2 C 0.7871(2) 0.3878(4) 0.64250(11)
C9_2 C 0.7838(2) 0.1737(5) 0.67017(12)
H5_2 H 0.8408 0.0659 0.6700
C10_2 C 0.6938(2) 0.1240(4) 0.69807(12)
C11_2 C 0.6084(2) 0.2845(4) 0.69882(13)
C12_2 C 0.6132(2) 0.4983(5) 0.67081(13)
H7_2 H 0.5568 0.6073 0.6716
C13_2 C 0.7021(2) 0.5498(4) 0.64166(12)
H8_2 H 0.7047 0.6910 0.6218
C14_2 C 0.5129(2) 0.2280(4) 0.73206(13)
H1_2 H 0.8711 0.9873 0.4359
H6_2 H 0.6903 0.9806 0.7167
S1_3 S 0.40134(5) 0.03829(11) 0.10715(3)
O5_3 O 0.49219(16) 0.1943(3) 0.12892(8)
C4_3 C 0.3840(2) 0.3227(5) 0.01003(12)
H2_3 H 0.4193 0.4362 0.0353
C5_3 C 0.3599(2) 0.1071(4) 0.03157(11)
C8_3 C 0.2871(2) 0.1122(4) 0.14250(11)
C9_3 C 0.2838(2) 0.3263(5) 0.17017(12)
H5_3 H 0.3408 0.4341 0.1700
C10_3 C 0.1938(2) 0.3760(4) 0.19807(12)
H6_3 H 0.1903 0.5194 0.2167
C11_3 C 0.1084(2) 0.2155(4) 0.19882(13)
C12_3 C 0.1132(2) 0.0017(5) 0.17081(13)
C14_3 C 0.0129(2) 0.2720(4) 0.23206(13)
O8_2 O 0.53928(18) 0.6047(4) 0.25117(10)
C1_3 C 0.2761(2) 0.2462(4) 0.84752(12)
C2_3 C 0.3027(2) 0.1990(4) 0.91271(11)
C3_3 C 0.3552(2) 0.3675(5) 0.95073(12)
H1_3 H 0.3711 0.5127 0.9359
O6_3 O 0.41829(18) 0.7908(3) 0.11170(9)
H3_3 H 0.2868 0.7950 0.0102
H7_3 H 0.0568 0.8927 0.1716
C13_3 C 0.2021(2) 0.9502(4) 0.14166(12)
H8_3 H 0.2047 0.8090 0.1218
O7_2 O 0.50441(17) 0.9821(3) 0.25922(10)
C6_3 C 0.3047(3) 0.9381(5) 0.99490(12)
C7_3 C 0.2765(3) 0.9851(5) 0.93520(12)
H4_3 H 0.2398 0.8727 0.9101
O1_2 O 0.99559(17) 0.4821(3) 0.24078(10)
O2_2 O 0.96072(18) 0.1047(4) 0.24883(10)
H1_4 H 0.1289 0.0127 0.5641
H6_4 H 0.3097 0.0194 0.2833
S1_4 S 0.09866(5) 0.53829(11) 0.39285(3)
O5_4 O 0.00781(16) 0.6943(3) 0.37108(8)
O6_4 O 0.08171(18) 0.2908(3) 0.38830(9)
C1_4 C 0.2239(2) 0.7462(4) 0.65248(12)
C2_4 C 0.1973(2) 0.6990(4) 0.58729(11)
C3_4 C 0.1448(2) 0.8675(5) 0.54927(12)
C4_4 C 0.1160(2) 0.8227(5) 0.48997(12)
H2_4 H 0.0807 0.9362 0.4647
C5_4 C 0.1401(2) 0.6071(4) 0.46843(11)
C6_4 C 0.1953(3) 0.4381(5) 0.50510(12)
H3_4 H 0.2132 0.2950 0.4898
C7_4 C 0.2235(3) 0.4851(5) 0.56480(12)
H4_4 H 0.2602 0.3727 0.5899
C8_4 C 0.2129(2) 0.6122(4) 0.35750(11)
C9_4 C 0.2162(2) 0.8263(5) 0.32983(12)
H5_4 H 0.1592 0.9341 0.3300
C10_4 C 0.3062(2) 0.8760(4) 0.30193(12)
C11_4 C 0.3916(2) 0.7155(4) 0.30118(13)
C12_4 C 0.3868(2) 0.5017(5) 0.32919(13)
H7_4 H 0.4432 0.3927 0.3284
C13_4 C 0.2979(2) 0.4502(4) 0.35834(12)
H8_4 H 0.2953 0.3090 0.3782
C14_4 C 0.4871(2) 0.7720(4) 0.26794(13)
loop_
_geom_bond_atom_site_label_1
_geom_bond_atom_site_label_2
_geom_bond_site_symmetry_1
_geom_bond_site_symmetry_2
Sr3 O1 1_555 1_555
H4 C7 1_555 1_555
C6 C7 1_555 1_555
H8 C13 1_555 1_555
O3 C1 1_555 1_555
O4 C1 1_555 1_555
C1 C2 1_555 1_555
C2 C3 1_555 1_555
C3 H1 1_555 1_555
Sr5 O3 1_555 1_555
Sr6 O3 1_555 1_555
O4 Sr6 1_555 1_555
Sr1 O5 1_555 1_555
S1 O5 1_555 1_555
H2 C4 1_555 1_555
C5 S1 1_555 1_555
C8 S1 1_555 1_555
C9 C8 1_555 1_555
H5 C9 1_555 1_555
C10 C9 1_555 1_555
H6 C10 1_555 1_555
C11 C10 1_555 1_555
C12 C11 1_555 1_555
C14 C11 1_555 1_555
O8 Sr1 1_555 1_555
O9 Sr1 1_555 1_555
O10 Sr1 1_555 1_555
O12 Sr1 1_555 1_555
C4 C5 1_555 1_555
O9 Sr3 1_555 1_555
O12 Sr3 1_555 1_555
O11 Sr3 1_555 1_555
S1_2 O5_2 1_555 1_555
O7 C14_2 1_555 1_555
O8 C14_2 1_555 1_555
O3_2 C1_2 1_555 1_555
O4_2 C1_2 1_555 1_555
O6_2 S1_2 1_555 1_555
C1_2 C2_2 1_555 1_555
C2_2 C3_2 1_555 1_555
C4_2 C3_2 1_555 1_555
H2_2 C4_2 1_555 1_555
C5_2 S1_2 1_555 1_555
C6_2 C5_2 1_555 1_555
H3_2 C6_2 1_555 1_555
C7_2 C2_2 1_555 1_555
H4_2 C7_2 1_555 1_555
C8_2 S1_2 1_555 1_555
C9_2 C8_2 1_555 1_555
H5_2 C9_2 1_555 1_555
C10_2 C9_2 1_555 1_555
C11_2 C10_2 1_555 1_555
C12_2 C11_2 1_555 1_555
H7_2 C12_2 1_555 1_555
C13_2 C8_2 1_555 1_555
H8_2 C13_2 1_555 1_555
C14_2 C11_2 1_555 1_555
Sr6 O4_2 1_555 1_555
Sr5 O3_2 1_555 1_555
O4_2 Sr5 1_555 1_555
C4_2 C5_2 1_555 1_555
C6_2 C7_2 1_555 1_555
C12_2 C13_2 1_555 1_555
Sr5 O5_3 1_555 1_555
S1_3 O5_3 1_555 1_555
H2_3 C4_3 1_555 1_555
C5_3 S1_3 1_555 1_555
C8_3 S1_3 1_555 1_555
C9_3 C8_3 1_555 1_555
H5_3 C9_3 1_555 1_555
C10_3 C9_3 1_555 1_555
H6_3 C10_3 1_555 1_555
C11_3 C10_3 1_555 1_555
C12_3 C11_3 1_555 1_555
C14_3 C11_3 1_555 1_555
O8_2 Sr5 1_555 1_555
C4_3 C5_3 1_555 1_555
O9 C1_3 1_555 1_555
O11 C1_3 1_555 1_555
C1_3 C2_3 1_555 1_555
C2_3 C3_3 1_555 1_555
C3_3 H1_3 1_555 1_555
H8_3 C13_3 1_555 1_555
H4_3 C7_3 1_555 1_555
C6_3 C7_3 1_555 1_555
Sr6 O1_2 1_555 1_555
S1_4 O5_4 1_555 1_555
O7_2 C14_4 1_555 1_555
O8_2 C14_4 1_555 1_555
O10 C1_4 1_555 1_555
O12 C1_4 1_555 1_555
O6_4 S1_4 1_555 1_555
C1_4 C2_4 1_555 1_555
C2_4 C3_4 1_555 1_555
C4_4 C3_4 1_555 1_555
H2_4 C4_4 1_555 1_555
C5_4 S1_4 1_555 1_555
C6_4 C5_4 1_555 1_555
H3_4 C6_4 1_555 1_555
C7_4 C2_4 1_555 1_555
H4_4 C7_4 1_555 1_555
C8_4 S1_4 1_555 1_555
C9_4 C8_4 1_555 1_555
H5_4 C9_4 1_555 1_555
C10_4 C9_4 1_555 1_555
C11_4 C10_4 1_555 1_555
C12_4 C11_4 1_555 1_555
H7_4 C12_4 1_555 1_555
C13_4 C8_4 1_555 1_555
H8_4 C13_4 1_555 1_555
C14_4 C11_4 1_555 1_555
C4_4 C5_4 1_555 1_555
C6_4 C7_4 1_555 1_555
C12_4 C13_4 1_555 1_555

#END
