
###############################################################################
#
# This file contains modified crystal structure data generated from the
# MOF subset of the Cambridge Structural Database (CSD) v543 
# hosted by the Cambridge Crystallographic Data Centre (CCDC).
#
# This work is licensed under the Creative Commons
# Attribution-NonCommercial-ShareAlike 4.0 International License.
# To view a copy of this license, visit
# http://creativecommons.org/licenses/by-nc-sa/4.0/
# or send a letter to
# Creative Commons, PO Box 1866, Mountain View, CA 94042, USA.
#
# CIF created using the CSD Python API on 29 September 2022
# The structure has been converted into the P1 space group
# The structure has a 3D framework
# The original CSD entry LIHZOU is in the monoclinic crystal system
# The framework has been calculated to contain at least 10.0% void space
# The void calculation uses a probe of radius 1.32A, grid spacing 0.4
#
###############################################################################

data_LIHZOU
_chemical_formula_moiety         '(C140 H96 N8 O42 Zn8)n'
_symmetry_cell_setting           triclinic
_symmetry_space_group_name_H-M   'P 1'
_symmetry_Int_Tables_number      1
_space_group_name_Hall           'P 1'
loop_
_symmetry_equiv_pos_site_id
_symmetry_equiv_pos_as_xyz
1 x,y,z
_cell_length_a                   20.228(3)
_cell_length_b                   16.090(2)
_cell_length_c                   14.644(2)
_cell_angle_alpha                90
_cell_angle_beta                 99.626(2)
_cell_angle_gamma                90
_cell_volume                     4699.05
loop_
_atom_site_label
_atom_site_type_symbol
_atom_site_fract_x
_atom_site_fract_y
_atom_site_fract_z
C17 C 0.0154(2) 0.5476(3) 0.3977(3)
H14 H 0.039473 0.585843 0.440290
C18 C 0.0145(2) 0.4371(3) 0.3017(4)
H15 H 0.038195 0.395241 0.274729
N2 N 0.04961(17) 0.49367(17) 0.3573(2)
Zn3 Zn 0.15135(2) 0.49817(2) 0.37269(3)
Zn5 Zn 0.15135(2) 0.00183(2) 0.87269(3)
Zn2 Zn 0.29998(2) 0.50081(2) 0.41105(3)
C1 C 0.6294(2) 0.6506(3) 0.1408(3)
C2 C 0.64028(19) 0.5898(3) 0.2093(3)
C3 C 0.70293(19) 0.5574(3) 0.2378(3)
H1 H 0.709559 0.514932 0.283484
C4 C 0.75692(19) 0.5869(3) 0.1993(3)
C5 C 0.7468(2) 0.6473(3) 0.1305(3)
H2 H 0.783393 0.666752 0.103362
C6 C 0.6832(2) 0.6787(3) 0.1019(3)
H3 H 0.676286 0.720041 0.054978
C7 C 0.5621(2) 0.6876(3) 0.1116(3)
H4 H 0.526673 0.670800 0.142701
C8 C 0.5928(2) 0.5111(3) 0.3240(3)
H5 H 0.627228 0.533165 0.374105
H6 H 0.606165 0.454585 0.307572
C9 C 0.5252(2) 0.5093(2) 0.3539(3)
C10 C 0.4878(2) 0.5812(3) 0.3511(3)
H7 H 0.504745 0.632372 0.332201
C11 C 0.4247(2) 0.5769(3) 0.3768(3)
H8 H 0.398548 0.626121 0.374257
C12 C 0.4367(2) 0.4389(2) 0.4097(3)
H9 H 0.419474 0.388623 0.430444
C13 C 0.50041(19) 0.4385(3) 0.3856(3)
H10 H 0.526387 0.388982 0.391334
C14 C 0.8350(2) 0.5022(3) 0.2983(3)
H11 H 0.815358 0.447422 0.278752
H12 H 0.816032 0.521508 0.352679
C15 C 0.9106(2) 0.4962(3) 0.3219(3)
C16 C 0.9460(2) 0.5516(3) 0.3817(4)
H13 H 0.923362 0.592325 0.411818
C19 C 0.9457(2) 0.4372(3) 0.2822(4)
H16 H 0.922665 0.396763 0.241541
C20 C 0.22543(18) 0.3264(2) 0.1913(3)
C21 C 0.16751(19) 0.2944(2) 0.1383(3)
H17 H 0.125019 0.316691 0.144647
C22 C 0.17143(19) 0.2306(2) 0.0765(3)
H18 H 0.131784 0.209373 0.040034
C23 C 0.23336(18) 0.1976(2) 0.0679(2)
C24 C 0.2912(2) 0.2299(2) 0.1200(3)
H19 H 0.333736 0.208046 0.113060
C25 C 0.28744(19) 0.2932(2) 0.1813(3)
H20 H 0.327271 0.314571 0.217167
C26 C 0.22189(19) 0.3935(2) 0.2607(3)
C27 C 0.2362(2) 0.1242(2) 0.0044(3)
C28 C 0.22459(19) 0.6743(2) 0.5906(3)
C29 C 0.1637(2) 0.7093(3) 0.6016(3)
H21 H 0.123179 0.689049 0.566461
C30 C 0.1621(2) 0.7731(3) 0.6634(3)
H22 H 0.120187 0.796074 0.671370
C31 C 0.22061(19) 0.8045(2) 0.7142(3)
C32 C 0.2814(2) 0.7705(3) 0.7033(3)
H23 H 0.321819 0.791852 0.737819
C33 C 0.2837(2) 0.7052(3) 0.6419(3)
H24 H 0.325591 0.681514 0.634839
C34 C 0.2266(2) 0.6054(2) 0.5222(2)
C35 C 0.2187(2) 0.8760(2) 0.7802(2)
N1 N 0.39933(16) 0.50679(17) 0.4049(2)
O1 O 0.55001(17) 0.7387(2) 0.0495(2)
O2 O 0.58507(13) 0.5650(2) 0.2442(2)
O3 O 0.82124(13) 0.5610(2) 0.2241(2)
O4 O 0.27561(14) 0.42095(19) 0.3031(2)
O5 O 0.16414(14) 0.41803(19) 0.2720(2)
O8 O 0.17126(15) 0.57993(18) 0.4791(2)
O9 O 0.28288(15) 0.57648(19) 0.5143(2)
O10 O 0.16198(13) 0.90421(18) 0.7881(2)
O11 O 0.27340(15) 0.90274(19) 0.8220(2)
Zn7 Zn 0.29998(2) 0.99919(2) 0.91105(3)
O12 O 0.29377(14) 0.40183(18) 0.4953(2)
O13 O 0.18185(14) 0.40523(17) 0.4649(2)
O14 O 0.16198(13) 0.59579(18) 0.2881(2)
O15 O 0.27340(15) 0.59726(19) 0.3220(2)
O6 O 0.29377(14) 0.09817(18) 0.9953(2)
O7 O 0.18185(14) 0.09477(17) 0.9649(2)
C18_2 C 0.0145(2) 0.0629(3) 0.8017(4)
H15_2 H 0.038195 0.104759 0.774729
N2_2 N 0.04961(17) 0.00633(17) 0.8573(2)
H6_2 H 0.606165 0.045415 0.807572
C12_2 C 0.4367(2) 0.0611(2) 0.9097(3)
H9_2 H 0.419474 0.111377 0.930444
C13_2 C 0.50041(19) 0.0615(3) 0.8856(3)
H10_2 H 0.526387 0.111018 0.891334
H11_2 H 0.815358 0.052578 0.778752
C15_2 C 0.9106(2) 0.0038(3) 0.8219(3)
C19_2 C 0.9457(2) 0.0628(3) 0.7822(4)
H16_2 H 0.922665 0.103237 0.741541
C20_2 C 0.22543(18) 0.1736(2) 0.6913(3)
C21_2 C 0.16751(19) 0.2056(2) 0.6383(3)
H17_2 H 0.125019 0.183309 0.644647
C22_2 C 0.17143(19) 0.2694(2) 0.5765(3)
H18_2 H 0.131784 0.290627 0.540034
C23_2 C 0.23336(18) 0.3024(2) 0.5679(2)
C24_2 C 0.2912(2) 0.2701(2) 0.6200(3)
H19_2 H 0.333736 0.291954 0.613060
C25_2 C 0.28744(19) 0.2068(2) 0.6813(3)
H20_2 H 0.327271 0.185429 0.717167
C26_2 C 0.22189(19) 0.1065(2) 0.7607(3)
C27_2 C 0.2362(2) 0.3758(2) 0.5044(3)
O4_2 O 0.27561(14) 0.07905(19) 0.8031(2)
O5_2 O 0.16414(14) 0.08197(19) 0.7720(2)
C28_2 C 0.22459(19) 0.8257(2) 0.0906(3)
C29_2 C 0.1637(2) 0.7907(3) 0.1016(3)
H21_2 H 0.123179 0.810951 0.066461
C30_2 C 0.1621(2) 0.7269(3) 0.1634(3)
H22_2 H 0.120187 0.703926 0.171370
C31_2 C 0.22061(19) 0.6955(2) 0.2142(3)
C32_2 C 0.2814(2) 0.7295(3) 0.2033(3)
H23_2 H 0.321819 0.708148 0.237819
C33_2 C 0.2837(2) 0.7948(3) 0.1419(3)
H24_2 H 0.325591 0.818486 0.134839
C34_2 C 0.2266(2) 0.8946(2) 0.0222(2)
C35_2 C 0.2187(2) 0.6240(2) 0.2802(2)
O9_2 O 0.28288(15) 0.92352(19) 0.0143(2)
C1_2 C 0.6294(2) 0.8494(3) 0.6408(3)
C2_2 C 0.64028(19) 0.9102(3) 0.7093(3)
C3_2 C 0.70293(19) 0.9426(3) 0.7378(3)
H1_2 H 0.709559 0.985068 0.783484
C4_2 C 0.75692(19) 0.9131(3) 0.6993(3)
C5_2 C 0.7468(2) 0.8527(3) 0.6305(3)
H2_2 H 0.783393 0.833248 0.603362
C6_2 C 0.6832(2) 0.8213(3) 0.6019(3)
H3_2 H 0.676286 0.779959 0.554978
C7_2 C 0.5621(2) 0.8124(3) 0.6116(3)
H4_2 H 0.526673 0.829200 0.642701
C8_2 C 0.5928(2) 0.9889(3) 0.8240(3)
H5_2 H 0.627228 0.966835 0.874105
C9_2 C 0.5252(2) 0.9907(2) 0.8539(3)
C10_2 C 0.4878(2) 0.9188(3) 0.8511(3)
H7_2 H 0.504745 0.867628 0.832201
C11_2 C 0.4247(2) 0.9231(3) 0.8768(3)
H8_2 H 0.398548 0.873879 0.874257
C14_2 C 0.8350(2) 0.9978(3) 0.7983(3)
H12_2 H 0.816032 0.978492 0.852679
C16_2 C 0.9460(2) 0.9484(3) 0.8817(4)
H13_2 H 0.923362 0.907675 0.911818
N1_2 N 0.39933(16) 0.99321(17) 0.9049(2)
O1_2 O 0.55001(17) 0.7613(2) 0.5495(2)
O2_2 O 0.58507(13) 0.9350(2) 0.7442(2)
O3_2 O 0.82124(13) 0.9390(2) 0.7241(2)
O8_2 O 0.17126(15) 0.92007(18) 0.9791(2)
Zn2_2 Zn 0.70002(2) 0.00081(2) 0.08895(3)
C1_3 C 0.3706(2) 0.1506(3) 0.3592(3)
C2_3 C 0.35972(19) 0.0898(3) 0.2907(3)
C3_3 C 0.29707(19) 0.0574(3) 0.2622(3)
H1_3 H 0.290441 0.014932 0.216516
C4_3 C 0.24308(19) 0.0869(3) 0.3007(3)
C5_3 C 0.2532(2) 0.1473(3) 0.3695(3)
H2_3 H 0.216607 0.166752 0.396638
C6_3 C 0.3168(2) 0.1787(3) 0.3981(3)
H3_3 H 0.323714 0.220041 0.445022
C7_3 C 0.4379(2) 0.1876(3) 0.3884(3)
H4_3 H 0.473327 0.170800 0.357299
C8_3 C 0.4072(2) 0.0111(3) 0.1760(3)
H5_3 H 0.372772 0.033165 0.125895
C9_3 C 0.4748(2) 0.0093(2) 0.1461(3)
C10_3 C 0.5122(2) 0.0812(3) 0.1489(3)
H7_3 H 0.495255 0.132372 0.167799
C11_3 C 0.5753(2) 0.0769(3) 0.1232(3)
H8_3 H 0.601452 0.126121 0.125743
C14_3 C 0.1650(2) 0.0022(3) 0.2017(3)
H12_3 H 0.183968 0.021508 0.147321
C16_3 C 0.0540(2) 0.0516(3) 0.1183(4)
H13_3 H 0.076638 0.092325 0.088182
N1_3 N 0.60067(16) 0.00679(17) 0.0951(2)
O1_3 O 0.44999(17) 0.2387(2) 0.4505(2)
O2_3 O 0.41493(13) 0.0650(2) 0.2558(2)
O3_3 O 0.17876(13) 0.0610(2) 0.2759(2)
O8_3 O 0.82874(15) 0.07993(18) 0.0209(2)
O14_2 O 0.83802(13) 0.09579(18) 0.2119(2)
O15_2 O 0.72660(15) 0.09726(19) 0.1780(2)
C28_3 C 0.77541(19) 0.1743(2) 0.9094(3)
C29_3 C 0.8363(2) 0.2093(3) 0.8984(3)
H21_3 H 0.876821 0.189049 0.933539
C30_3 C 0.8379(2) 0.2731(3) 0.8366(3)
H22_3 H 0.879813 0.296074 0.828630
C31_3 C 0.77939(19) 0.3045(2) 0.7858(3)
C32_3 C 0.7186(2) 0.2705(3) 0.7967(3)
H23_3 H 0.678181 0.291852 0.762181
C33_3 C 0.7163(2) 0.2052(3) 0.8581(3)
H24_3 H 0.674409 0.181514 0.865161
C34_3 C 0.7734(2) 0.1054(2) 0.9778(2)
C35_3 C 0.7813(2) 0.3760(2) 0.7198(2)
O9_3 O 0.71712(15) 0.07648(19) 0.9857(2)
O10_2 O 0.83802(13) 0.40421(18) 0.7119(2)
O11_2 O 0.72660(15) 0.40274(19) 0.6780(2)
Zn5_2 Zn 0.84865(2) 0.50183(2) 0.62731(3)
Zn7_2 Zn 0.70002(2) 0.49919(2) 0.58895(3)
Zn1 Zn 0.84865(2) 0.99817(2) 0.12731(3)
H6_3 H 0.393835 0.954585 0.192428
C12_3 C 0.5633(2) 0.9389(2) 0.0903(3)
H9_3 H 0.580526 0.888623 0.069556
C13_3 C 0.49959(19) 0.9385(3) 0.1144(3)
H10_3 H 0.473613 0.888982 0.108666
H11_3 H 0.184642 0.947422 0.221248
C15_3 C 0.0894(2) 0.9962(3) 0.1781(3)
C19_3 C 0.0543(2) 0.9372(3) 0.2178(4)
H16_3 H 0.077335 0.896763 0.258459
C20_3 C 0.77457(18) 0.8264(2) 0.3087(3)
C21_3 C 0.83249(19) 0.7944(2) 0.3617(3)
H17_3 H 0.874981 0.816691 0.355353
C22_3 C 0.82857(19) 0.7306(2) 0.4235(3)
H18_3 H 0.868216 0.709373 0.459966
C23_3 C 0.76664(18) 0.6976(2) 0.4321(2)
C24_3 C 0.7088(2) 0.7299(2) 0.3800(3)
H19_3 H 0.666264 0.708046 0.386940
C25_3 C 0.71256(19) 0.7932(2) 0.3187(3)
H20_3 H 0.672729 0.814571 0.282833
C26_3 C 0.77811(19) 0.8935(2) 0.2393(3)
C27_3 C 0.7638(2) 0.6242(2) 0.4956(3)
O4_3 O 0.72439(14) 0.92095(19) 0.1969(2)
O5_3 O 0.83586(14) 0.91803(19) 0.2280(2)
O6_2 O 0.70623(14) 0.59817(18) 0.5047(2)
O7_2 O 0.81815(14) 0.59477(17) 0.5351(2)
N3 N 0.95039(17) 0.99367(17) 0.1427(2)
O12_2 O 0.70623(14) 0.90183(18) 0.0047(2)
O13_2 O 0.81815(14) 0.90523(17) 0.0351(2)
C18_3 C 0.9855(2) 0.9371(3) 0.1983(4)
H15_3 H 0.961805 0.895241 0.225271
C1_4 C 0.3706(2) 0.3494(3) 0.8592(3)
C2_4 C 0.35972(19) 0.4102(3) 0.7907(3)
C3_4 C 0.29707(19) 0.4426(3) 0.7622(3)
H1_4 H 0.290441 0.485068 0.716516
C4_4 C 0.24308(19) 0.4131(3) 0.8007(3)
C5_4 C 0.2532(2) 0.3527(3) 0.8695(3)
H2_4 H 0.216607 0.333248 0.896638
C6_4 C 0.3168(2) 0.3213(3) 0.8981(3)
H3_4 H 0.323714 0.279959 0.945022
C7_4 C 0.4379(2) 0.3124(3) 0.8884(3)
H4_4 H 0.473327 0.329200 0.857299
C8_4 C 0.4072(2) 0.4889(3) 0.6760(3)
H5_4 H 0.372772 0.466835 0.625895
H6_4 H 0.393835 0.545415 0.692428
C9_4 C 0.4748(2) 0.4907(2) 0.6461(3)
C10_4 C 0.5122(2) 0.4188(3) 0.6489(3)
H7_4 H 0.495255 0.367628 0.667799
C11_4 C 0.5753(2) 0.4231(3) 0.6232(3)
H8_4 H 0.601452 0.373879 0.625743
C12_4 C 0.5633(2) 0.5611(2) 0.5903(3)
H9_4 H 0.580526 0.611377 0.569556
C13_4 C 0.49959(19) 0.5615(3) 0.6144(3)
H10_4 H 0.473613 0.611018 0.608666
C14_4 C 0.1650(2) 0.4978(3) 0.7017(3)
H11_4 H 0.184642 0.552578 0.721248
H12_4 H 0.183968 0.478492 0.647321
C15_4 C 0.0894(2) 0.5038(3) 0.6781(3)
C16_4 C 0.0540(2) 0.4484(3) 0.6183(4)
H13_4 H 0.076638 0.407675 0.588182
C19_4 C 0.0543(2) 0.5628(3) 0.7178(4)
H16_4 H 0.077335 0.603237 0.758459
C20_4 C 0.77457(18) 0.6736(2) 0.8087(3)
C21_4 C 0.83249(19) 0.7056(2) 0.8617(3)
H17_4 H 0.874981 0.683309 0.855353
C22_4 C 0.82857(19) 0.7694(2) 0.9235(3)
H18_4 H 0.868216 0.790627 0.959966
C23_4 C 0.76664(18) 0.8024(2) 0.9321(2)
C24_4 C 0.7088(2) 0.7701(2) 0.8800(3)
H19_4 H 0.666264 0.791954 0.886940
C25_4 C 0.71256(19) 0.7068(2) 0.8187(3)
H20_4 H 0.672729 0.685429 0.782833
C26_4 C 0.77811(19) 0.6065(2) 0.7393(3)
C27_4 C 0.7638(2) 0.8758(2) 0.9956(3)
C28_4 C 0.77541(19) 0.3257(2) 0.4094(3)
C29_4 C 0.8363(2) 0.2907(3) 0.3984(3)
H21_4 H 0.876821 0.310951 0.433539
C30_4 C 0.8379(2) 0.2269(3) 0.3366(3)
H22_4 H 0.879813 0.203926 0.328630
C31_4 C 0.77939(19) 0.1955(2) 0.2858(3)
C32_4 C 0.7186(2) 0.2295(3) 0.2967(3)
H23_4 H 0.678181 0.208148 0.262181
C33_4 C 0.7163(2) 0.2948(3) 0.3581(3)
H24_4 H 0.674409 0.318486 0.365161
C34_4 C 0.7734(2) 0.3946(2) 0.4778(2)
C35_4 C 0.7813(2) 0.1240(2) 0.2198(2)
N1_4 N 0.60067(16) 0.49321(17) 0.5951(2)
O1_4 O 0.44999(17) 0.2613(2) 0.9505(2)
O2_4 O 0.41493(13) 0.4350(2) 0.7558(2)
O3_4 O 0.17876(13) 0.4390(2) 0.7759(2)
O4_4 O 0.72439(14) 0.57905(19) 0.6969(2)
O5_4 O 0.83586(14) 0.58197(19) 0.7280(2)
O8_4 O 0.82874(15) 0.42007(18) 0.5209(2)
O9_4 O 0.71712(15) 0.42352(19) 0.4857(2)
N3_2 N 0.95039(17) 0.50633(17) 0.6427(2)
C17_2 C 0.9846(2) 0.4524(3) 0.6023(3)
H14_2 H 0.960527 0.414157 0.559710
C18_4 C 0.9855(2) 0.5629(3) 0.6983(4)
H15_4 H 0.961805 0.604759 0.725271
C17_3 C 0.9846(2) 0.0476(3) 0.1023(3)
H14_3 H 0.960527 0.085843 0.059710
C17_4 C 0.0154(2) 0.9524(3) 0.8977(3)
H14_4 H 0.039473 0.914157 0.940290
loop_
_geom_bond_atom_site_label_1
_geom_bond_atom_site_label_2
_geom_bond_site_symmetry_1
_geom_bond_site_symmetry_2
H14 C17 1_555 1_555
C18 H15 1_555 1_555
N2 C17 1_555 1_555
Zn3 N2 1_555 1_555
C18 N2 1_555 1_555
Zn3 O5 1_555 1_555
Zn2 N1 1_555 1_555
C1 C2 1_555 1_555
C2 C3 1_555 1_555
C3 H1 1_555 1_555
C4 C3 1_555 1_555
C5 C4 1_555 1_555
H2 C5 1_555 1_555
C6 C1 1_555 1_555
H3 C6 1_555 1_555
C7 C1 1_555 1_555
H4 C7 1_555 1_555
C8 H5 1_555 1_555
H6 C8 1_555 1_555
C9 C8 1_555 1_555
C10 C9 1_555 1_555
H7 C10 1_555 1_555
C11 C10 1_555 1_555
H8 C11 1_555 1_555
C12 H9 1_555 1_555
C13 C9 1_555 1_555
H10 C13 1_555 1_555
C14 H11 1_555 1_555
H12 C14 1_555 1_555
C15 C14 1_555 1_555
C16 C15 1_555 1_555
H13 C16 1_555 1_555
C19 C15 1_555 1_555
H16 C19 1_555 1_555
C20 C21 1_555 1_555
C21 H17 1_555 1_555
C22 C21 1_555 1_555
H18 C22 1_555 1_555
C23 C22 1_555 1_555
C24 C23 1_555 1_555
H19 C24 1_555 1_555
C25 C20 1_555 1_555
H20 C25 1_555 1_555
C26 C20 1_555 1_555
C27 C23 1_555 1_555
C28 C29 1_555 1_555
C29 H21 1_555 1_555
C30 C29 1_555 1_555
H22 C30 1_555 1_555
C31 C30 1_555 1_555
C32 C31 1_555 1_555
H23 C32 1_555 1_555
C33 C28 1_555 1_555
H24 C33 1_555 1_555
C34 C28 1_555 1_555
C35 C31 1_555 1_555
N1 C11 1_555 1_555
O1 C7 1_555 1_555
O2 C2 1_555 1_555
O3 C4 1_555 1_555
O4 Zn2 1_555 1_555
O5 C26 1_555 1_555
O8 Zn3 1_555 1_555
O9 Zn2 1_555 1_555
O10 C35 1_555 1_555
O11 C35 1_555 1_555
Zn7 O11 1_555 1_555
O12 Zn2 1_555 1_555
O13 Zn3 1_555 1_555
O14 Zn3 1_555 1_555
O15 Zn2 1_555 1_555
C5 C6 1_555 1_555
C8 O2 1_555 1_555
C12 C13 1_555 1_555
C12 N1 1_555 1_555
C14 O3 1_555 1_555
C24 C25 1_555 1_555
C26 O4 1_555 1_555
C32 C33 1_555 1_555
C34 O8 1_555 1_555
C34 O9 1_555 1_555
Zn5 O7 1_555 1_555
C18_2 H15_2 1_555 1_555
Zn5 N2_2 1_555 1_555
C18_2 N2_2 1_555 1_555
Zn5 O5_2 1_555 1_555
C12_2 H9_2 1_555 1_555
H10_2 C13_2 1_555 1_555
C19_2 C15_2 1_555 1_555
H16_2 C19_2 1_555 1_555
C20_2 C21_2 1_555 1_555
C21_2 H17_2 1_555 1_555
C22_2 C21_2 1_555 1_555
H18_2 C22_2 1_555 1_555
C23_2 C22_2 1_555 1_555
C24_2 C23_2 1_555 1_555
H19_2 C24_2 1_555 1_555
C25_2 C20_2 1_555 1_555
H20_2 C25_2 1_555 1_555
C26_2 C20_2 1_555 1_555
C27_2 C23_2 1_555 1_555
O5_2 C26_2 1_555 1_555
O12 C27_2 1_555 1_555
O13 C27_2 1_555 1_555
C12_2 C13_2 1_555 1_555
C24_2 C25_2 1_555 1_555
C26_2 O4_2 1_555 1_555
C28_2 C29_2 1_555 1_555
C29_2 H21_2 1_555 1_555
C30_2 C29_2 1_555 1_555
H22_2 C30_2 1_555 1_555
C31_2 C30_2 1_555 1_555
C32_2 C31_2 1_555 1_555
H23_2 C32_2 1_555 1_555
C33_2 C28_2 1_555 1_555
H24_2 C33_2 1_555 1_555
C34_2 C28_2 1_555 1_555
C35_2 C31_2 1_555 1_555
O14 C35_2 1_555 1_555
O15 C35_2 1_555 1_555
C32_2 C33_2 1_555 1_555
C34_2 O9_2 1_555 1_555
Zn7 N1_2 1_555 1_555
C1_2 C2_2 1_555 1_555
C2_2 C3_2 1_555 1_555
C3_2 H1_2 1_555 1_555
C4_2 C3_2 1_555 1_555
C5_2 C4_2 1_555 1_555
H2_2 C5_2 1_555 1_555
C6_2 C1_2 1_555 1_555
H3_2 C6_2 1_555 1_555
C7_2 C1_2 1_555 1_555
H4_2 C7_2 1_555 1_555
C8_2 H5_2 1_555 1_555
C9_2 C8_2 1_555 1_555
C10_2 C9_2 1_555 1_555
H7_2 C10_2 1_555 1_555
C11_2 C10_2 1_555 1_555
H8_2 C11_2 1_555 1_555
H12_2 C14_2 1_555 1_555
H13_2 C16_2 1_555 1_555
N1_2 C11_2 1_555 1_555
O1_2 C7_2 1_555 1_555
O2_2 C2_2 1_555 1_555
O3_2 C4_2 1_555 1_555
C5_2 C6_2 1_555 1_555
C8_2 O2_2 1_555 1_555
C14_2 O3_2 1_555 1_555
Zn2_2 N1_3 1_555 1_555
C1_3 C2_3 1_555 1_555
C2_3 C3_3 1_555 1_555
C3_3 H1_3 1_555 1_555
C4_3 C3_3 1_555 1_555
C5_3 C4_3 1_555 1_555
H2_3 C5_3 1_555 1_555
C6_3 C1_3 1_555 1_555
H3_3 C6_3 1_555 1_555
C7_3 C1_3 1_555 1_555
H4_3 C7_3 1_555 1_555
C8_3 H5_3 1_555 1_555
C9_3 C8_3 1_555 1_555
C10_3 C9_3 1_555 1_555
H7_3 C10_3 1_555 1_555
C11_3 C10_3 1_555 1_555
H8_3 C11_3 1_555 1_555
H12_3 C14_3 1_555 1_555
H13_3 C16_3 1_555 1_555
N1_3 C11_3 1_555 1_555
O1_3 C7_3 1_555 1_555
O2_3 C2_3 1_555 1_555
O3_3 C4_3 1_555 1_555
O15_2 Zn2_2 1_555 1_555
C5_3 C6_3 1_555 1_555
C8_3 O2_3 1_555 1_555
C14_3 O3_3 1_555 1_555
C28_3 C29_3 1_555 1_555
C29_3 H21_3 1_555 1_555
C30_3 C29_3 1_555 1_555
H22_3 C30_3 1_555 1_555
C31_3 C30_3 1_555 1_555
C32_3 C31_3 1_555 1_555
H23_3 C32_3 1_555 1_555
C33_3 C28_3 1_555 1_555
H24_3 C33_3 1_555 1_555
C34_3 C28_3 1_555 1_555
C35_3 C31_3 1_555 1_555
O10_2 C35_3 1_555 1_555
O11_2 C35_3 1_555 1_555
Zn5_2 O10_2 1_555 1_555
Zn7_2 O11_2 1_555 1_555
C32_3 C33_3 1_555 1_555
C34_3 O9_3 1_555 1_555
Zn1 O5_3 1_555 1_555
C12_3 H9_3 1_555 1_555
H10_3 C13_3 1_555 1_555
C19_3 C15_3 1_555 1_555
H16_3 C19_3 1_555 1_555
C20_3 C21_3 1_555 1_555
C21_3 H17_3 1_555 1_555
C22_3 C21_3 1_555 1_555
H18_3 C22_3 1_555 1_555
C23_3 C22_3 1_555 1_555
C24_3 C23_3 1_555 1_555
H19_3 C24_3 1_555 1_555
C25_3 C20_3 1_555 1_555
H20_3 C25_3 1_555 1_555
C26_3 C20_3 1_555 1_555
C27_3 C23_3 1_555 1_555
O5_3 C26_3 1_555 1_555
O6_2 C27_3 1_555 1_555
O7_2 C27_3 1_555 1_555
Zn5_2 O7_2 1_555 1_555
Zn7_2 O6_2 1_555 1_555
N3 Zn1 1_555 1_555
O13_2 Zn1 1_555 1_555
C12_3 C13_3 1_555 1_555
C24_3 C25_3 1_555 1_555
C26_3 O4_3 1_555 1_555
C18_3 H15_3 1_555 1_555
C18_3 N3 1_555 1_555
Zn5_2 O5_4 1_555 1_555
Zn7_2 N1_4 1_555 1_555
C1_4 C2_4 1_555 1_555
C2_4 C3_4 1_555 1_555
C3_4 H1_4 1_555 1_555
C4_4 C3_4 1_555 1_555
C5_4 C4_4 1_555 1_555
H2_4 C5_4 1_555 1_555
C6_4 C1_4 1_555 1_555
H3_4 C6_4 1_555 1_555
C7_4 C1_4 1_555 1_555
H4_4 C7_4 1_555 1_555
C8_4 H5_4 1_555 1_555
H6_4 C8_4 1_555 1_555
C9_4 C8_4 1_555 1_555
C10_4 C9_4 1_555 1_555
H7_4 C10_4 1_555 1_555
C11_4 C10_4 1_555 1_555
H8_4 C11_4 1_555 1_555
C12_4 H9_4 1_555 1_555
C13_4 C9_4 1_555 1_555
H10_4 C13_4 1_555 1_555
C14_4 H11_4 1_555 1_555
H12_4 C14_4 1_555 1_555
C15_4 C14_4 1_555 1_555
C16_4 C15_4 1_555 1_555
H13_4 C16_4 1_555 1_555
C19_4 C15_4 1_555 1_555
H16_4 C19_4 1_555 1_555
C20_4 C21_4 1_555 1_555
C21_4 H17_4 1_555 1_555
C22_4 C21_4 1_555 1_555
H18_4 C22_4 1_555 1_555
C23_4 C22_4 1_555 1_555
C24_4 C23_4 1_555 1_555
H19_4 C24_4 1_555 1_555
C25_4 C20_4 1_555 1_555
H20_4 C25_4 1_555 1_555
C26_4 C20_4 1_555 1_555
C27_4 C23_4 1_555 1_555
C28_4 C29_4 1_555 1_555
C29_4 H21_4 1_555 1_555
C30_4 C29_4 1_555 1_555
H22_4 C30_4 1_555 1_555
C31_4 C30_4 1_555 1_555
C32_4 C31_4 1_555 1_555
H23_4 C32_4 1_555 1_555
C33_4 C28_4 1_555 1_555
H24_4 C33_4 1_555 1_555
C34_4 C28_4 1_555 1_555
C35_4 C31_4 1_555 1_555
N1_4 C11_4 1_555 1_555
O1_4 C7_4 1_555 1_555
O2_4 C2_4 1_555 1_555
O3_4 C4_4 1_555 1_555
O4_4 Zn7_2 1_555 1_555
O5_4 C26_4 1_555 1_555
O8_4 Zn5_2 1_555 1_555
O9_4 Zn7_2 1_555 1_555
O14_2 C35_4 1_555 1_555
O15_2 C35_4 1_555 1_555
N3_2 Zn5_2 1_555 1_555
C5_4 C6_4 1_555 1_555
C8_4 O2_4 1_555 1_555
C12_4 C13_4 1_555 1_555
C12_4 N1_4 1_555 1_555
C14_4 O3_4 1_555 1_555
C24_4 C25_4 1_555 1_555
C26_4 O4_4 1_555 1_555
C32_4 C33_4 1_555 1_555
C34_4 O8_4 1_555 1_555
C34_4 O9_4 1_555 1_555
H14_2 C17_2 1_555 1_555
C18_4 H15_4 1_555 1_555
N3_2 C17_2 1_555 1_555
C18_4 N3_2 1_555 1_555
H14_3 C17_3 1_555 1_555
H14_4 C17_4 1_555 1_555

#END
