
###############################################################################
#
# This file contains modified crystal structure data generated from the
# MOF subset of the Cambridge Structural Database (CSD) v543 
# hosted by the Cambridge Crystallographic Data Centre (CCDC).
#
# This work is licensed under the Creative Commons
# Attribution-NonCommercial-ShareAlike 4.0 International License.
# To view a copy of this license, visit
# http://creativecommons.org/licenses/by-nc-sa/4.0/
# or send a letter to
# Creative Commons, PO Box 1866, Mountain View, CA 94042, USA.
#
# CIF created using the CSD Python API on 29 September 2022
# The structure has been converted into the P1 space group
# The structure has a 3D framework
# The original CSD entry LIHZUA is in the monoclinic crystal system
# The framework has been calculated to contain at least 10.0% void space
# The void calculation uses a probe of radius 1.32A, grid spacing 0.4
#
###############################################################################

data_LIHZUA
_chemical_formula_moiety         '(C140 H96 Co8 N8 O40)n'
_symmetry_cell_setting           triclinic
_symmetry_space_group_name_H-M   'P 1'
_symmetry_Int_Tables_number      1
_space_group_name_Hall           'P 1'
loop_
_symmetry_equiv_pos_site_id
_symmetry_equiv_pos_as_xyz
1 x,y,z
_cell_length_a                   20.2688(10)
_cell_length_b                   16.1961(7)
_cell_length_c                   14.5060(6)
_cell_angle_alpha                90
_cell_angle_beta                 100.1780(10)
_cell_angle_gamma                90
_cell_volume                     4687.03
loop_
_atom_site_label
_atom_site_type_symbol
_atom_site_fract_x
_atom_site_fract_y
_atom_site_fract_z
C17 C 0.01352(16) 0.5595(2) 0.8037(3)
H14 H 0.036262 0.602253 0.777199
C18 C 0.01537(15) 0.4512(3) 0.8977(3)
H15 H 0.039851 0.413389 0.940790
N2 N 0.04945(11) 0.50426(12) 0.85618(16)
Co5 Co 0.15076(2) 0.50184(2) 0.87074(2)
Co4 Co 0.29883(2) 0.00086(2) 0.41206(2)
C28 C 0.22418(12) 0.32834(15) 0.09362(17)
C29 C 0.16397(13) 0.29096(17) 0.10140(19)
H21 H 0.123488 0.310272 0.064477
C30 C 0.16227(13) 0.22576(17) 0.16247(19)
H22 H 0.120678 0.200616 0.167346
C31 C 0.22079(12) 0.19703(15) 0.21641(17)
C32 C 0.28082(13) 0.23456(17) 0.2095(2)
H23 H 0.321151 0.215461 0.246974
C33 C 0.28278(13) 0.29995(17) 0.1482(2)
H24 H 0.324375 0.325282 0.143773
C34 C 0.22578(12) 0.39702(15) 0.02536(17)
C35 C 0.21880(12) 0.12466(15) 0.28052(17)
O8 O 0.28169(9) 0.42914(11) 0.02149(12)
O10 O 0.27349(9) 0.10231(11) 0.32920(13)
O11 O 0.16295(9) 0.09166(11) 0.28177(13)
Co1 Co 0.29883(2) 0.49914(2) 0.91206(2)
C1 C 0.62696(13) 0.34471(17) 0.64184(18)
C2 C 0.63846(13) 0.40700(17) 0.71008(18)
C3 C 0.70180(12) 0.43963(17) 0.73906(18)
H1 H 0.708959 0.482380 0.784573
C4 C 0.75449(13) 0.40889(19) 0.70058(19)
C5 C 0.74400(15) 0.3480(2) 0.6317(2)
H2 H 0.780287 0.328445 0.604350
C6 C 0.68111(14) 0.31673(19) 0.6040(2)
H3 H 0.674238 0.274711 0.557595
C7 C 0.56048(15) 0.30842(18) 0.6133(2)
H4 H 0.525456 0.326538 0.644189
C8 C 0.59127(13) 0.48634(18) 0.82399(19)
H5 H 0.604295 0.542289 0.806340
H6 H 0.626161 0.465273 0.875053
C9 C 0.52429(13) 0.48845(16) 0.85440(18)
C10 C 0.49862(12) 0.56083(16) 0.88431(18)
H7 H 0.524034 0.610395 0.888273
C11 C 0.43554(12) 0.56032(15) 0.90842(18)
H8 H 0.418364 0.610458 0.928612
C12 C 0.42381(13) 0.42164(16) 0.87859(19)
H9 H 0.398096 0.372473 0.877274
C13 C 0.48627(13) 0.41757(17) 0.8539(2)
H10 H 0.503163 0.366229 0.836516
C14 C 0.83458(14) 0.49352(18) 0.8001(2)
H11 H 0.816854 0.474441 0.855803
H12 H 0.814611 0.547950 0.780686
C15 C 0.90979(14) 0.49936(17) 0.8216(2)
C16 C 0.94359(17) 0.5589(3) 0.7847(3)
H13 H 0.919889 0.600386 0.745965
C19 C 0.94670(16) 0.4469(3) 0.8829(3)
H16 H 0.925072 0.407196 0.915522
C20 C 0.22426(13) 0.67221(15) 0.68818(17)
C21 C 0.28615(12) 0.70314(15) 0.67874(17)
H17 H 0.325638 0.679798 0.714202
C22 C 0.29122(13) 0.76773(16) 0.61818(17)
H18 H 0.334027 0.788681 0.612150
C23 C 0.23369(12) 0.80197(15) 0.56617(16)
C24 C 0.17147(13) 0.76994(16) 0.57429(18)
H19 H 0.131990 0.792470 0.537919
C25 C 0.16671(13) 0.70526(16) 0.63522(18)
H20 H 0.124032 0.683568 0.640700
C26 C 0.21934(12) 0.60464(15) 0.75743(16)
C27 C 0.23802(13) 0.87443(15) 0.50353(17)
N1 N 0.39783(10) 0.49260(11) 0.90454(14)
O1 O 0.54724(11) 0.25577(13) 0.55176(16)
O2 O 0.58340(9) 0.43201(13) 0.74479(14)
O3 O 0.81932(9) 0.43472(14) 0.72494(14)
O4 O 0.27261(9) 0.57239(11) 0.79741(12)
O5 O 0.16138(9) 0.58520(12) 0.77097(13)
O6 O 0.29545(9) 0.89817(11) 0.49217(12)
O7 O 0.18334(9) 0.90768(11) 0.46716(13)
O9 O 0.17087(9) 0.41805(11) 0.97709(12)
Co7 Co 0.15076(2) 0.99816(2) 0.37074(2)
O12 O 0.29545(9) 0.60183(11) 0.99217(12)
O13 O 0.18334(9) 0.59232(11) 0.96716(13)
O14 O 0.27349(9) 0.39769(11) 0.82920(13)
O15 O 0.16295(9) 0.40834(11) 0.78177(13)
C17_2 C 0.01352(16) 0.9405(2) 0.3037(3)
H14_2 H 0.036262 0.897747 0.277199
N2_2 N 0.04945(11) 0.99574(12) 0.35618(16)
C1_2 C 0.62696(13) 0.15529(17) 0.14184(18)
C2_2 C 0.63846(13) 0.09300(17) 0.21008(18)
C3_2 C 0.70180(12) 0.06037(17) 0.23906(18)
H1_2 H 0.708959 0.017620 0.284573
C4_2 C 0.75449(13) 0.09111(19) 0.20058(19)
C5_2 C 0.74400(15) 0.1520(2) 0.1317(2)
H2_2 H 0.780287 0.171555 0.104350
C6_2 C 0.68111(14) 0.18327(19) 0.1040(2)
H3_2 H 0.674238 0.225289 0.057595
C7_2 C 0.56048(15) 0.19158(18) 0.1133(2)
H4_2 H 0.525456 0.173462 0.144189
C8_2 C 0.59127(13) 0.01366(18) 0.32399(19)
H6_2 H 0.626161 0.034727 0.375053
C9_2 C 0.52429(13) 0.01155(16) 0.35440(18)
C12_2 C 0.42381(13) 0.07836(16) 0.37859(19)
H9_2 H 0.398096 0.127527 0.377274
C13_2 C 0.48627(13) 0.08243(17) 0.3539(2)
H10_2 H 0.503163 0.133771 0.336516
C14_2 C 0.83458(14) 0.00648(18) 0.3001(2)
H11_2 H 0.816854 0.025559 0.355803
C15_2 C 0.90979(14) 0.00064(17) 0.3216(2)
C19_2 C 0.94670(16) 0.0531(3) 0.3829(3)
H16_2 H 0.925072 0.092804 0.415522
C28_2 C 0.22418(12) 0.17166(15) 0.59362(17)
C29_2 C 0.16397(13) 0.20904(17) 0.60140(19)
H21_2 H 0.123488 0.189728 0.564477
C30_2 C 0.16227(13) 0.27424(17) 0.66247(19)
H22_2 H 0.120678 0.299384 0.667346
C31_2 C 0.22079(12) 0.30297(15) 0.71641(17)
C32_2 C 0.28082(13) 0.26544(17) 0.7095(2)
H23_2 H 0.321151 0.284539 0.746974
C33_2 C 0.28278(13) 0.20005(17) 0.6482(2)
H24_2 H 0.324375 0.174718 0.643773
C34_2 C 0.22578(12) 0.10298(15) 0.52536(17)
C35_2 C 0.21880(12) 0.37534(15) 0.78052(17)
N1_2 N 0.39783(10) 0.00740(11) 0.40454(14)
O1_2 O 0.54724(11) 0.24423(13) 0.05176(16)
O2_2 O 0.58340(9) 0.06799(13) 0.24479(14)
O3_2 O 0.81932(9) 0.06528(14) 0.22494(14)
O8_2 O 0.28169(9) 0.07086(11) 0.52149(12)
O9_2 O 0.17087(9) 0.08195(11) 0.47709(12)
H5_2 H 0.604295 0.957711 0.306340
C10_2 C 0.49862(12) 0.93917(16) 0.38431(18)
H7_2 H 0.524034 0.889605 0.388273
C11_2 C 0.43554(12) 0.93968(15) 0.40842(18)
H8_2 H 0.418364 0.889542 0.428612
H12_2 H 0.814611 0.952050 0.280686
C16_2 C 0.94359(17) 0.9411(3) 0.2847(3)
H13_2 H 0.919889 0.899614 0.245965
C20_2 C 0.22426(13) 0.82779(15) 0.18818(17)
C21_2 C 0.28615(12) 0.79686(15) 0.17874(17)
H17_2 H 0.325638 0.820202 0.214202
C22_2 C 0.29122(13) 0.73227(16) 0.11818(17)
H18_2 H 0.334027 0.711319 0.112150
C23_2 C 0.23369(12) 0.69803(15) 0.06617(16)
C24_2 C 0.17147(13) 0.73006(16) 0.07429(18)
H19_2 H 0.131990 0.707530 0.037919
C25_2 C 0.16671(13) 0.79474(16) 0.13522(18)
H20_2 H 0.124032 0.816432 0.140700
C26_2 C 0.21934(12) 0.89536(15) 0.25743(16)
C27_2 C 0.23802(13) 0.62557(15) 0.00353(17)
O4_2 O 0.27261(9) 0.92761(11) 0.29741(12)
O5_2 O 0.16138(9) 0.91480(12) 0.27097(13)
O6_2 O 0.70455(9) 0.39817(11) 0.00783(12)
O7_2 O 0.81666(9) 0.40768(11) 0.03284(13)
Co4_2 Co 0.70117(2) 0.50086(2) 0.08794(2)
Co7_2 Co 0.84924(2) 0.49816(2) 0.12926(2)
Co2 Co 0.84924(2) 0.00184(2) 0.62926(2)
H5_3 H 0.395705 0.042289 0.693660
C10_3 C 0.50138(12) 0.06083(16) 0.61569(18)
H7_3 H 0.475966 0.110395 0.611727
C11_3 C 0.56446(12) 0.06032(15) 0.59158(18)
H8_3 H 0.581636 0.110458 0.571388
H12_3 H 0.185389 0.047950 0.719314
C16_3 C 0.05641(17) 0.0589(3) 0.7153(3)
H13_3 H 0.080111 0.100386 0.754035
C20_3 C 0.77574(13) 0.17221(15) 0.81182(17)
C21_3 C 0.71385(12) 0.20314(15) 0.82126(17)
H17_3 H 0.674362 0.179798 0.785798
C22_3 C 0.70878(13) 0.26773(16) 0.88182(17)
H18_3 H 0.665973 0.288681 0.887850
C23_3 C 0.76631(12) 0.30197(15) 0.93383(16)
C24_3 C 0.82853(13) 0.26994(16) 0.92571(18)
H19_3 H 0.868010 0.292470 0.962081
C25_3 C 0.83329(13) 0.20526(16) 0.86478(18)
H20_3 H 0.875968 0.183568 0.859300
C26_3 C 0.78066(12) 0.10464(15) 0.74257(16)
C27_3 C 0.76198(13) 0.37443(15) 0.99647(17)
O4_3 O 0.72739(9) 0.07239(11) 0.70259(12)
O5_3 O 0.83862(9) 0.08520(12) 0.72903(13)
N3 N 0.95055(11) 0.00426(12) 0.64382(16)
O12_2 O 0.70455(9) 0.10183(11) 0.50783(12)
O13_2 O 0.81666(9) 0.09232(11) 0.53284(13)
Co1_2 Co 0.70117(2) 0.99914(2) 0.58794(2)
C1_3 C 0.37304(13) 0.84471(17) 0.85816(18)
C2_3 C 0.36154(13) 0.90700(17) 0.78992(18)
C3_3 C 0.29820(12) 0.93963(17) 0.76094(18)
H1_3 H 0.291041 0.982380 0.715427
C4_3 C 0.24551(13) 0.90889(19) 0.79942(19)
C5_3 C 0.25600(15) 0.8480(2) 0.8683(2)
H2_3 H 0.219713 0.828445 0.895650
C6_3 C 0.31889(14) 0.81673(19) 0.8960(2)
H3_3 H 0.325762 0.774711 0.942405
C7_3 C 0.43952(15) 0.80842(18) 0.8867(2)
H4_3 H 0.474544 0.826538 0.855811
C8_3 C 0.40873(13) 0.98634(18) 0.67601(19)
H6_3 H 0.373839 0.965273 0.624947
C9_3 C 0.47571(13) 0.98845(16) 0.64560(18)
C12_3 C 0.57619(13) 0.92164(16) 0.62141(19)
H9_3 H 0.601904 0.872473 0.622726
C13_3 C 0.51373(13) 0.91757(17) 0.6461(2)
H10_3 H 0.496837 0.866229 0.663484
C14_3 C 0.16542(14) 0.99352(18) 0.6999(2)
H11_3 H 0.183146 0.974441 0.644197
C15_3 C 0.09021(14) 0.99936(17) 0.6784(2)
C19_3 C 0.05330(16) 0.9469(3) 0.6171(3)
H16_3 H 0.074928 0.907196 0.584478
C28_3 C 0.77582(12) 0.82834(15) 0.40638(17)
C29_3 C 0.83603(13) 0.79096(17) 0.39860(19)
H21_3 H 0.876512 0.810272 0.435523
C30_3 C 0.83773(13) 0.72576(17) 0.33753(19)
H22_3 H 0.879322 0.700616 0.332654
C31_3 C 0.77921(12) 0.69703(15) 0.28359(17)
C32_3 C 0.71918(13) 0.73456(17) 0.2905(2)
H23_3 H 0.678849 0.715461 0.253026
C33_3 C 0.71722(13) 0.79995(17) 0.3518(2)
H24_3 H 0.675625 0.825282 0.356227
C34_3 C 0.77422(12) 0.89702(15) 0.47464(17)
C35_3 C 0.78120(12) 0.62466(15) 0.21948(17)
N1_3 N 0.60217(10) 0.99260(11) 0.59546(14)
O1_3 O 0.45276(11) 0.75577(13) 0.94824(16)
O2_3 O 0.41660(9) 0.93201(13) 0.75521(14)
O3_3 O 0.18068(9) 0.93472(14) 0.77506(14)
O8_3 O 0.71831(9) 0.92914(11) 0.47851(12)
O9_3 O 0.82913(9) 0.91805(11) 0.52291(12)
O10_2 O 0.72651(9) 0.60231(11) 0.17080(13)
O11_2 O 0.83705(9) 0.59166(11) 0.21823(13)
O14_2 O 0.72651(9) 0.89769(11) 0.67080(13)
O15_2 O 0.83705(9) 0.90834(11) 0.71823(13)
C17_3 C 0.98648(16) 0.0595(2) 0.6963(3)
H14_3 H 0.963738 0.102253 0.722801
C1_4 C 0.37304(13) 0.65529(17) 0.35816(18)
C2_4 C 0.36154(13) 0.59300(17) 0.28992(18)
C3_4 C 0.29820(12) 0.56037(17) 0.26094(18)
H1_4 H 0.291041 0.517620 0.215427
C4_4 C 0.24551(13) 0.59111(19) 0.29942(19)
C5_4 C 0.25600(15) 0.6520(2) 0.3683(2)
H2_4 H 0.219713 0.671555 0.395650
C6_4 C 0.31889(14) 0.68327(19) 0.3960(2)
H3_4 H 0.325762 0.725289 0.442405
C7_4 C 0.43952(15) 0.69158(18) 0.3867(2)
H4_4 H 0.474544 0.673462 0.355811
C8_4 C 0.40873(13) 0.51366(18) 0.17601(19)
H5_4 H 0.395705 0.457711 0.193660
H6_4 H 0.373839 0.534727 0.124947
C9_4 C 0.47571(13) 0.51155(16) 0.14560(18)
C10_4 C 0.50138(12) 0.43917(16) 0.11569(18)
H7_4 H 0.475966 0.389605 0.111727
C11_4 C 0.56446(12) 0.43968(15) 0.09158(18)
H8_4 H 0.581636 0.389542 0.071388
C12_4 C 0.57619(13) 0.57836(16) 0.12141(19)
H9_4 H 0.601904 0.627527 0.122726
C13_4 C 0.51373(13) 0.58243(17) 0.1461(2)
H10_4 H 0.496837 0.633771 0.163484
C14_4 C 0.16542(14) 0.50648(18) 0.1999(2)
H11_4 H 0.183146 0.525559 0.144197
H12_4 H 0.185389 0.452050 0.219314
C15_4 C 0.09021(14) 0.50064(17) 0.1784(2)
C16_4 C 0.05641(17) 0.4411(3) 0.2153(3)
H13_4 H 0.080111 0.399614 0.254035
C19_4 C 0.05330(16) 0.5531(3) 0.1171(3)
H16_4 H 0.074928 0.592804 0.084478
C20_4 C 0.77574(13) 0.32779(15) 0.31182(17)
C21_4 C 0.71385(12) 0.29686(15) 0.32126(17)
H17_4 H 0.674362 0.320202 0.285798
C22_4 C 0.70878(13) 0.23227(16) 0.38182(17)
H18_4 H 0.665973 0.211319 0.387850
C23_4 C 0.76631(12) 0.19803(15) 0.43383(16)
C24_4 C 0.82853(13) 0.23006(16) 0.42571(18)
H19_4 H 0.868010 0.207530 0.462081
C25_4 C 0.83329(13) 0.29474(16) 0.36478(18)
H20_4 H 0.875968 0.316432 0.359300
C26_4 C 0.78066(12) 0.39536(15) 0.24257(16)
C27_4 C 0.76198(13) 0.12557(15) 0.49647(17)
N1_4 N 0.60217(10) 0.50740(11) 0.09546(14)
O1_4 O 0.45276(11) 0.74423(13) 0.44824(16)
O2_4 O 0.41660(9) 0.56799(13) 0.25521(14)
O3_4 O 0.18068(9) 0.56528(14) 0.27506(14)
O4_4 O 0.72739(9) 0.42761(11) 0.20259(12)
O5_4 O 0.83862(9) 0.41480(12) 0.22903(13)
O9_4 O 0.82913(9) 0.58195(11) 0.02291(12)
N3_2 N 0.95055(11) 0.49574(12) 0.14382(16)
C28_4 C 0.77582(12) 0.67166(15) 0.90638(17)
C29_4 C 0.83603(13) 0.70904(17) 0.89860(19)
H21_4 H 0.876512 0.689728 0.935523
C30_4 C 0.83773(13) 0.77424(17) 0.83753(19)
H22_4 H 0.879322 0.799384 0.832654
C31_4 C 0.77921(12) 0.80297(15) 0.78359(17)
C32_4 C 0.71918(13) 0.76544(17) 0.7905(2)
H23_4 H 0.678849 0.784539 0.753026
C33_4 C 0.71722(13) 0.70005(17) 0.8518(2)
H24_4 H 0.675625 0.674718 0.856227
C34_4 C 0.77422(12) 0.60298(15) 0.97464(17)
C35_4 C 0.78120(12) 0.87534(15) 0.71948(17)
O8_4 O 0.71831(9) 0.57086(11) 0.97851(12)
C17_4 C 0.98648(16) 0.4405(2) 0.1963(3)
H14_4 H 0.963738 0.397747 0.222801
C18_2 C 0.98463(15) 0.5488(3) 0.1023(3)
H15_2 H 0.960149 0.586611 0.059210
C18_3 C 0.98463(15) 0.9512(3) 0.6023(3)
H15_3 H 0.960149 0.913389 0.559210
C18_4 C 0.01537(15) 0.0488(3) 0.3977(3)
H15_4 H 0.039851 0.086611 0.440790
loop_
_geom_bond_atom_site_label_1
_geom_bond_atom_site_label_2
_geom_bond_site_symmetry_1
_geom_bond_site_symmetry_2
H14 C17 1_555 1_555
C18 H15 1_555 1_555
N2 C17 1_555 1_555
Co5 N2 1_555 1_555
C18 N2 1_555 1_555
C28 C29 1_555 1_555
C29 H21 1_555 1_555
C30 C29 1_555 1_555
H22 C30 1_555 1_555
C31 C30 1_555 1_555
C32 C31 1_555 1_555
H23 C32 1_555 1_555
C33 C28 1_555 1_555
H24 C33 1_555 1_555
C34 C28 1_555 1_555
C35 C31 1_555 1_555
O10 C35 1_555 1_555
O11 C35 1_555 1_555
Co4 O10 1_555 1_555
C32 C33 1_555 1_555
C34 O8 1_555 1_555
Co1 N1 1_555 1_555
Co5 O5 1_555 1_555
C1 C2 1_555 1_555
C2 C3 1_555 1_555
C3 H1 1_555 1_555
C4 C3 1_555 1_555
C5 C4 1_555 1_555
H2 C5 1_555 1_555
C6 C1 1_555 1_555
H3 C6 1_555 1_555
C7 C1 1_555 1_555
H4 C7 1_555 1_555
C8 H5 1_555 1_555
H6 C8 1_555 1_555
C9 C8 1_555 1_555
C10 C9 1_555 1_555
H7 C10 1_555 1_555
C11 C10 1_555 1_555
H8 C11 1_555 1_555
C12 H9 1_555 1_555
C13 C9 1_555 1_555
H10 C13 1_555 1_555
C14 H11 1_555 1_555
H12 C14 1_555 1_555
C15 C14 1_555 1_555
C16 C15 1_555 1_555
H13 C16 1_555 1_555
C19 C15 1_555 1_555
H16 C19 1_555 1_555
C20 C21 1_555 1_555
C21 H17 1_555 1_555
C22 C21 1_555 1_555
H18 C22 1_555 1_555
C23 C22 1_555 1_555
C24 C23 1_555 1_555
H19 C24 1_555 1_555
C25 C20 1_555 1_555
H20 C25 1_555 1_555
C26 C20 1_555 1_555
C27 C23 1_555 1_555
N1 C11 1_555 1_555
O1 C7 1_555 1_555
O2 C2 1_555 1_555
O3 C4 1_555 1_555
O4 Co1 1_555 1_555
O5 C26 1_555 1_555
O6 C27 1_555 1_555
O7 C27 1_555 1_555
O9 Co5 1_555 1_555
Co7 O7 1_555 1_555
O12 Co1 1_555 1_555
O13 Co5 1_555 1_555
O14 Co1 1_555 1_555
O15 Co5 1_555 1_555
C5 C6 1_555 1_555
C8 O2 1_555 1_555
C12 C13 1_555 1_555
C12 N1 1_555 1_555
C14 O3 1_555 1_555
C24 C25 1_555 1_555
C26 O4 1_555 1_555
H14_2 C17_2 1_555 1_555
N2_2 C17_2 1_555 1_555
Co7 N2_2 1_555 1_555
Co4 N1_2 1_555 1_555
C1_2 C2_2 1_555 1_555
C2_2 C3_2 1_555 1_555
C3_2 H1_2 1_555 1_555
C4_2 C3_2 1_555 1_555
C5_2 C4_2 1_555 1_555
H2_2 C5_2 1_555 1_555
C6_2 C1_2 1_555 1_555
H3_2 C6_2 1_555 1_555
C7_2 C1_2 1_555 1_555
H4_2 C7_2 1_555 1_555
H6_2 C8_2 1_555 1_555
C9_2 C8_2 1_555 1_555
C12_2 H9_2 1_555 1_555
C13_2 C9_2 1_555 1_555
H10_2 C13_2 1_555 1_555
C14_2 H11_2 1_555 1_555
C15_2 C14_2 1_555 1_555
C19_2 C15_2 1_555 1_555
H16_2 C19_2 1_555 1_555
C28_2 C29_2 1_555 1_555
C29_2 H21_2 1_555 1_555
C30_2 C29_2 1_555 1_555
H22_2 C30_2 1_555 1_555
C31_2 C30_2 1_555 1_555
C32_2 C31_2 1_555 1_555
H23_2 C32_2 1_555 1_555
C33_2 C28_2 1_555 1_555
H24_2 C33_2 1_555 1_555
C34_2 C28_2 1_555 1_555
C35_2 C31_2 1_555 1_555
O1_2 C7_2 1_555 1_555
O2_2 C2_2 1_555 1_555
O3_2 C4_2 1_555 1_555
O8_2 Co4 1_555 1_555
O14 C35_2 1_555 1_555
O15 C35_2 1_555 1_555
C5_2 C6_2 1_555 1_555
C8_2 O2_2 1_555 1_555
C12_2 C13_2 1_555 1_555
C12_2 N1_2 1_555 1_555
C14_2 O3_2 1_555 1_555
C32_2 C33_2 1_555 1_555
C34_2 O8_2 1_555 1_555
C34_2 O9_2 1_555 1_555
Co7 O5_2 1_555 1_555
H7_2 C10_2 1_555 1_555
C11_2 C10_2 1_555 1_555
H8_2 C11_2 1_555 1_555
H13_2 C16_2 1_555 1_555
C20_2 C21_2 1_555 1_555
C21_2 H17_2 1_555 1_555
C22_2 C21_2 1_555 1_555
H18_2 C22_2 1_555 1_555
C23_2 C22_2 1_555 1_555
C24_2 C23_2 1_555 1_555
H19_2 C24_2 1_555 1_555
C25_2 C20_2 1_555 1_555
H20_2 C25_2 1_555 1_555
C26_2 C20_2 1_555 1_555
C27_2 C23_2 1_555 1_555
O5_2 C26_2 1_555 1_555
C24_2 C25_2 1_555 1_555
C26_2 O4_2 1_555 1_555
Co4_2 O6_2 1_555 1_555
Co7_2 O7_2 1_555 1_555
Co2 O5_3 1_555 1_555
H7_3 C10_3 1_555 1_555
C11_3 C10_3 1_555 1_555
H8_3 C11_3 1_555 1_555
H13_3 C16_3 1_555 1_555
C20_3 C21_3 1_555 1_555
C21_3 H17_3 1_555 1_555
C22_3 C21_3 1_555 1_555
H18_3 C22_3 1_555 1_555
C23_3 C22_3 1_555 1_555
C24_3 C23_3 1_555 1_555
H19_3 C24_3 1_555 1_555
C25_3 C20_3 1_555 1_555
H20_3 C25_3 1_555 1_555
C26_3 C20_3 1_555 1_555
C27_3 C23_3 1_555 1_555
O5_3 C26_3 1_555 1_555
N3 Co2 1_555 1_555
O13_2 Co2 1_555 1_555
C24_3 C25_3 1_555 1_555
C26_3 O4_3 1_555 1_555
Co1_2 N1_3 1_555 1_555
C1_3 C2_3 1_555 1_555
C2_3 C3_3 1_555 1_555
C3_3 H1_3 1_555 1_555
C4_3 C3_3 1_555 1_555
C5_3 C4_3 1_555 1_555
H2_3 C5_3 1_555 1_555
C6_3 C1_3 1_555 1_555
H3_3 C6_3 1_555 1_555
C7_3 C1_3 1_555 1_555
H4_3 C7_3 1_555 1_555
H6_3 C8_3 1_555 1_555
C9_3 C8_3 1_555 1_555
C12_3 H9_3 1_555 1_555
C13_3 C9_3 1_555 1_555
H10_3 C13_3 1_555 1_555
C14_3 H11_3 1_555 1_555
C15_3 C14_3 1_555 1_555
C19_3 C15_3 1_555 1_555
H16_3 C19_3 1_555 1_555
C28_3 C29_3 1_555 1_555
C29_3 H21_3 1_555 1_555
C30_3 C29_3 1_555 1_555
H22_3 C30_3 1_555 1_555
C31_3 C30_3 1_555 1_555
C32_3 C31_3 1_555 1_555
H23_3 C32_3 1_555 1_555
C33_3 C28_3 1_555 1_555
H24_3 C33_3 1_555 1_555
C34_3 C28_3 1_555 1_555
C35_3 C31_3 1_555 1_555
O1_3 C7_3 1_555 1_555
O2_3 C2_3 1_555 1_555
O3_3 C4_3 1_555 1_555
O8_3 Co1_2 1_555 1_555
O10_2 C35_3 1_555 1_555
O11_2 C35_3 1_555 1_555
Co4_2 O10_2 1_555 1_555
Co7_2 O11_2 1_555 1_555
O14_2 Co1_2 1_555 1_555
C5_3 C6_3 1_555 1_555
C8_3 O2_3 1_555 1_555
C12_3 C13_3 1_555 1_555
C12_3 N1_3 1_555 1_555
C14_3 O3_3 1_555 1_555
C32_3 C33_3 1_555 1_555
C34_3 O8_3 1_555 1_555
C34_3 O9_3 1_555 1_555
H14_3 C17_3 1_555 1_555
N3 C17_3 1_555 1_555
Co4_2 N1_4 1_555 1_555
Co7_2 O5_4 1_555 1_555
C1_4 C2_4 1_555 1_555
C2_4 C3_4 1_555 1_555
C3_4 H1_4 1_555 1_555
C4_4 C3_4 1_555 1_555
C5_4 C4_4 1_555 1_555
H2_4 C5_4 1_555 1_555
C6_4 C1_4 1_555 1_555
H3_4 C6_4 1_555 1_555
C7_4 C1_4 1_555 1_555
H4_4 C7_4 1_555 1_555
C8_4 H5_4 1_555 1_555
H6_4 C8_4 1_555 1_555
C9_4 C8_4 1_555 1_555
C10_4 C9_4 1_555 1_555
H7_4 C10_4 1_555 1_555
C11_4 C10_4 1_555 1_555
H8_4 C11_4 1_555 1_555
C12_4 H9_4 1_555 1_555
C13_4 C9_4 1_555 1_555
H10_4 C13_4 1_555 1_555
C14_4 H11_4 1_555 1_555
H12_4 C14_4 1_555 1_555
C15_4 C14_4 1_555 1_555
C16_4 C15_4 1_555 1_555
H13_4 C16_4 1_555 1_555
C19_4 C15_4 1_555 1_555
H16_4 C19_4 1_555 1_555
C20_4 C21_4 1_555 1_555
C21_4 H17_4 1_555 1_555
C22_4 C21_4 1_555 1_555
H18_4 C22_4 1_555 1_555
C23_4 C22_4 1_555 1_555
C24_4 C23_4 1_555 1_555
H19_4 C24_4 1_555 1_555
C25_4 C20_4 1_555 1_555
H20_4 C25_4 1_555 1_555
C26_4 C20_4 1_555 1_555
C27_4 C23_4 1_555 1_555
N1_4 C11_4 1_555 1_555
O1_4 C7_4 1_555 1_555
O2_4 C2_4 1_555 1_555
O3_4 C4_4 1_555 1_555
O4_4 Co4_2 1_555 1_555
O5_4 C26_4 1_555 1_555
O12_2 C27_4 1_555 1_555
O13_2 C27_4 1_555 1_555
O9_4 Co7_2 1_555 1_555
N3_2 Co7_2 1_555 1_555
C5_4 C6_4 1_555 1_555
C8_4 O2_4 1_555 1_555
C12_4 C13_4 1_555 1_555
C12_4 N1_4 1_555 1_555
C14_4 O3_4 1_555 1_555
C24_4 C25_4 1_555 1_555
C26_4 O4_4 1_555 1_555
C28_4 C29_4 1_555 1_555
C29_4 H21_4 1_555 1_555
C30_4 C29_4 1_555 1_555
H22_4 C30_4 1_555 1_555
C31_4 C30_4 1_555 1_555
C32_4 C31_4 1_555 1_555
H23_4 C32_4 1_555 1_555
C33_4 C28_4 1_555 1_555
H24_4 C33_4 1_555 1_555
C34_4 C28_4 1_555 1_555
C35_4 C31_4 1_555 1_555
O14_2 C35_4 1_555 1_555
O15_2 C35_4 1_555 1_555
C32_4 C33_4 1_555 1_555
C34_4 O8_4 1_555 1_555
H14_4 C17_4 1_555 1_555
C18_2 H15_2 1_555 1_555
N3_2 C17_4 1_555 1_555
C18_2 N3_2 1_555 1_555
C18_3 H15_3 1_555 1_555
C18_4 H15_4 1_555 1_555

#END
