
###############################################################################
#
# This file contains modified crystal structure data generated from the
# MOF subset of the Cambridge Structural Database (CSD) v543 
# hosted by the Cambridge Crystallographic Data Centre (CCDC).
#
# This work is licensed under the Creative Commons
# Attribution-NonCommercial-ShareAlike 4.0 International License.
# To view a copy of this license, visit
# http://creativecommons.org/licenses/by-nc-sa/4.0/
# or send a letter to
# Creative Commons, PO Box 1866, Mountain View, CA 94042, USA.
#
# CIF created using the CSD Python API on 29 September 2022
# The structure has been converted into the P1 space group
# The structure has a 3D framework
# The original CSD entry LIKBAL is in the triclinic crystal system
# The framework has been calculated to contain at least 10.0% void space
# The void calculation uses a probe of radius 1.32A, grid spacing 0.4
# H atom positions have been added when not included in the experimental data
#
###############################################################################

data_LIKBAL
_chemical_formula_moiety         '(C84 H68 N4 Ni8 O36)n'
_symmetry_cell_setting           triclinic
_symmetry_space_group_name_H-M   'P 1'
_symmetry_Int_Tables_number      1
_space_group_name_Hall           'P 1'
loop_
_symmetry_equiv_pos_site_id
_symmetry_equiv_pos_as_xyz
1 x,y,z
_cell_length_a                   8.802(2)
_cell_length_b                   14.584(4)
_cell_length_c                   19.847(5)
_cell_angle_alpha                82.702(5)
_cell_angle_beta                 79.862(5)
_cell_angle_gamma                84.429(5)
_cell_volume                     2480.34
loop_
_atom_site_label
_atom_site_type_symbol
_atom_site_fract_x
_atom_site_fract_y
_atom_site_fract_z
O8 O 0.3280(6) 0.4201(3) 0.7074(3)
O16 O 0.0819(6) 0.4734(3) 0.7475(3)
O17 O 0.0496(6) 0.4787(4) 0.1213(3)
H8 H 0.1249 0.4301 0.1065
O18 O 0.0749(5) 0.3548(4) 0.2404(3)
H9 H 0.0401 0.3045 0.2739
H10 H 0.1478 0.3308 0.2037
C20 C 0.1149(9) 0.3648(5) 0.6687(4)
C22 C 0.1832(11) 0.4257(5) 0.7112(4)
H26 H 0.0067 0.1399 0.1747
C36 C 0.1988(11) 0.2830(5) 0.6490(5)
H27 H 0.2970 0.2677 0.6603
C37 C 0.1366(10) 0.2246(6) 0.6128(5)
H28 H 0.1908 0.1696 0.6005
H29 H 0.0343 0.0123 0.5611
Ni7 Ni 0.11568(11) 0.57754(6) 0.79933(5)
Ni9 Ni 0.44771(12) 0.50603(6) 0.74711(5)
O10 O 0.5530(6) 0.8758(3) 0.7610(3)
O13 O 0.7280(6) 0.7846(3) 0.7044(3)
N1 N 0.8888(7) 0.8826(4) 0.1054(3)
C5 C 0.8594(9) 0.9764(5) 0.1187(4)
H11 H 0.6470 0.9953 0.0911
C8 C 0.8100(8) 0.8436(5) 0.0601(4)
C11 C 0.7530(10) 0.9484(5) 0.6784(4)
C17 C 0.6721(10) 0.8657(5) 0.7171(4)
H19 H 0.9907 0.8233 0.2211
C33 C 0.7030(9) 0.7120(5) 0.0336(4)
H25 H 0.6688 0.6530 0.0468
C35 C 0.8805(10) 0.9395(6) 0.6308(5)
C40 C 0.7557(10) 0.7555(5) 0.0807(4)
H31 H 0.7557 0.7275 0.1255
Ni11 Ni 0.54141(11) 0.73176(6) 0.77828(5)
H34 H 0.934772 0.870844 0.621717
O6 O 0.5960(5) 0.6225(3) 0.9335(2)
O7 O 0.6727(6) 0.7367(3) 0.8527(3)
C14 C 0.6499(9) 0.7001(5) 0.9142(4)
C23 C 0.6982(8) 0.7522(5) 0.9670(4)
C24 C 0.7342(9) 0.8431(5) 0.9496(4)
H17 H 0.7222 0.8737 0.9065
C39 C 0.7890(9) 0.8888(5) 0.9974(4)
H30 H 0.8114 0.9504 0.9864
Ni6 Ni 0.45319(11) 0.56374(6) 0.88227(5)
O1 O 0.2919(5) 0.6161(3) 0.7171(2)
O2 O 0.2963(5) 0.5089(3) 0.8380(2)
H1 H 0.2730 0.4466 0.8597
O3 O 0.3625(6) 0.6984(3) 0.8578(2)
O4 O 0.5705(5) 0.5933(3) 0.7850(2)
H2 H 0.6801 0.5712 0.7814
O9 O 0.3280(6) 0.5367(3) 0.9820(3)
H3 H 0.3542 0.4740 0.9999
H4 H 0.2193 0.5449 0.9801
O11 O 0.5986(6) 0.5151(4) 0.6532(3)
H5 H 0.5515 0.4919 0.6193
H6 H 0.6185 0.5788 0.6389
O12 O 0.1117(6) 0.6933(3) 0.8457(3)
O15 O 0.4132(6) 0.7467(3) 0.7014(3)
C1 C 0.1921(9) 0.8380(4) 0.8621(4)
C2 C 0.2210(9) 0.7364(5) 0.8543(4)
N2 N 0.0753(8) 0.8129(4) 0.4398(3)
H7 H 0.0008 0.4944 0.9165
C3 C 0.3203(8) 0.6959(5) 0.6847(4)
C6 C 0.1294(11) 0.8952(6) 0.3970(4)
C7 C 0.2785(8) 0.9746(5) 0.8941(4)
C9 C 0.2346(10) 0.8374(5) 0.5227(4)
H12 H 0.2630 0.8929 0.4970
C12 C 0.1354(10) 0.7843(5) 0.4990(4)
C13 C 0.2529(9) 0.7272(5) 0.6228(4)
C15 C 0.3053(9) 0.8826(5) 0.8852(4)
H13 H 0.3970 0.8500 0.8943
C19 C 0.2914(9) 0.8096(5) 0.5831(4)
H15 H 0.3567 0.8468 0.5976
C27 C 0.0384(9) 0.9795(5) 0.8535(4)
C28 C 0.0237(10) 0.6112(5) 0.3514(4)
H21 H 0.0764 0.5550 0.3409
C29 C 0.0895(9) 0.6683(6) 0.3875(4)
H22 H 0.1866 0.6515 0.3997
C30 C 0.0105(10) 0.7492(5) 0.4048(4)
C31 C 0.0935(9) 0.7029(5) 0.5403(4)
H23 H 0.0235 0.6671 0.5277
C32 C 0.1549(9) 0.6747(5) 0.6001(4)
H24 H 0.1289 0.6187 0.6255
C34 C 0.0638(9) 0.8883(5) 0.8441(4)
C38 C 0.0563(11) 0.9819(6) 0.4071(4)
C41 C 0.3175(11) 0.9643(6) 0.3088(5)
H32 H 0.4048 0.9583 0.2751
C42 C 0.2545(11) 0.8865(6) 0.3474(5)
H33 H 0.2991 0.8278 0.3389
O19 O 0.5749(5) 0.4363(3) 0.8939(3)
O25 O 0.5784(6) 0.3951(3) 0.7883(3)
C4 C 0.9742(9) 0.1735(5) 0.8817(4)
C10 C 0.7310(8) 0.3032(4) 0.8606(4)
C16 C 0.6181(9) 0.3837(5) 0.8458(4)
C18 C 0.8730(10) 0.2036(5) 0.9361(4)
H14 H 0.8863 0.1803 0.9807
C21 C 0.8253(10) 0.2660(5) 0.8058(4)
H16 H 0.8066 0.2849 0.7612
C25 C 0.7515(9) 0.2679(5) 0.9261(4)
H18 H 0.6831 0.2874 0.9638
C26 C 0.9467(10) 0.2013(5) 0.8162(4)
H20 H 0.9502 0.0129 0.8410
O5 O 0.4251(5) 0.5637(3) 0.1061(3)
O14 O 0.4216(6) 0.6049(3) 0.2117(3)
C4_2 C 0.0258(9) 0.8265(5) 0.1183(4)
C10_2 C 0.2690(8) 0.6968(4) 0.1394(4)
C16_2 C 0.3819(9) 0.6163(5) 0.1542(4)
C18_2 C 0.1270(10) 0.7964(5) 0.0639(4)
H14_2 H 0.1137 0.8197 0.0193
C21_2 C 0.1747(10) 0.7340(5) 0.1942(4)
H16_2 H 0.1934 0.7151 0.2388
C25_2 C 0.2485(9) 0.7321(5) 0.0739(4)
H18_2 H 0.3169 0.7126 0.0362
C26_2 C 0.0533(10) 0.7987(5) 0.1838(4)
H20_2 H 0.0498 0.9871 0.1590
Ni5 Ni 0.54681(11) 0.43626(6) 0.11773(5)
Ni8 Ni 0.55229(12) 0.49397(6) 0.25289(5)
Ni2 Ni 0.88432(11) 0.42246(6) 0.20067(5)
Ni4 Ni 0.45859(11) 0.26824(6) 0.22172(5)
O1_2 O 0.7081(5) 0.3839(3) 0.2829(2)
O2_2 O 0.7037(5) 0.4911(3) 0.1620(2)
H1_2 H 0.7270 0.5534 0.1403
O3_2 O 0.6375(6) 0.3016(3) 0.1422(2)
O4_2 O 0.4295(5) 0.4067(3) 0.2150(2)
H2_2 H 0.3199 0.4288 0.2186
O9_2 O 0.6720(6) 0.4633(3) 0.0180(3)
H3_2 H 0.6458 0.5260 0.0001
H4_2 H 0.7807 0.4551 0.0199
O11_2 O 0.4014(6) 0.4849(4) 0.3468(3)
H5_2 H 0.4485 0.5081 0.3807
H6_2 H 0.3815 0.4212 0.3611
O12_2 O 0.8883(6) 0.3067(3) 0.1543(3)
O15_2 O 0.5868(6) 0.2533(3) 0.2986(3)
C1_2 C 0.8079(9) 0.1620(4) 0.1379(4)
C2_2 C 0.7790(9) 0.2636(5) 0.1457(4)
N2_2 N 0.9247(8) 0.1871(4) 0.5602(3)
H7_2 H 0.9992 0.5056 0.0835
C3_2 C 0.6797(8) 0.3041(5) 0.3153(4)
C6_2 C 0.8706(11) 0.1048(6) 0.6030(4)
C7_2 C 0.7215(8) 0.0254(5) 0.1059(4)
C9_2 C 0.7654(10) 0.1626(5) 0.4773(4)
H12_2 H 0.7370 0.1071 0.5030
C12_2 C 0.8646(10) 0.2157(5) 0.5010(4)
C13_2 C 0.7471(9) 0.2728(5) 0.3772(4)
C15_2 C 0.6947(9) 0.1174(5) 0.1148(4)
H13_2 H 0.6030 0.1500 0.1057
C19_2 C 0.7086(9) 0.1904(5) 0.4169(4)
H15_2 H 0.6433 0.1532 0.4024
C27_2 C 0.9616(9) 0.0205(5) 0.1465(4)
C28_2 C 0.9763(10) 0.3888(5) 0.6486(4)
H21_2 H 0.9236 0.4450 0.6591
C29_2 C 0.9105(9) 0.3317(6) 0.6125(4)
H22_2 H 0.8134 0.3485 0.6003
C30_2 C 0.9895(10) 0.2508(5) 0.5952(4)
C31_2 C 0.9065(9) 0.2971(5) 0.4597(4)
H23_2 H 0.9765 0.3329 0.4723
C32_2 C 0.8451(9) 0.3253(5) 0.3999(4)
H24_2 H 0.8711 0.3813 0.3745
C34_2 C 0.9362(9) 0.1117(5) 0.1559(4)
C38_2 C 0.9437(11) 0.0181(6) 0.5929(4)
C41_2 C 0.6825(11) 0.0357(6) 0.6912(5)
H32_2 H 0.5952 0.0417 0.7249
C42_2 C 0.7455(11) 0.1135(6) 0.6526(5)
H33_2 H 0.7009 0.1722 0.6611
O20 O 0.4040(5) 0.3775(3) 0.0665(2)
O21 O 0.3273(6) 0.2633(3) 0.1473(3)
O22 O 0.6720(6) 0.5799(3) 0.2926(3)
O23 O 0.4470(6) 0.1242(3) 0.2390(3)
O24 O 0.2720(6) 0.2154(3) 0.2956(3)
O26 O 0.9181(6) 0.5266(3) 0.2525(3)
C14_2 C 0.3501(9) 0.2999(5) 0.0858(4)
C23_2 C 0.3018(8) 0.2478(5) 0.0330(4)
C24_2 C 0.2658(9) 0.1569(5) 0.0504(4)
H17_2 H 0.2778 0.1263 0.0935
C39_2 C 0.2110(9) 0.1112(5) 0.0026(4)
H30_2 H 0.1886 0.0496 0.0136
N1_2 N 0.1112(7) 0.1174(4) 0.8946(3)
C5_2 C 0.1406(9) 0.0236(5) 0.8813(4)
H11_2 H 0.3530 0.0047 0.9089
C8_2 C 0.1900(8) 0.1564(5) 0.9399(4)
C11_2 C 0.2470(10) 0.0516(5) 0.3216(4)
C17_2 C 0.3279(10) 0.1343(5) 0.2829(4)
H19_2 H 0.0093 0.1767 0.7789
C33_2 C 0.2970(9) 0.2880(5) 0.9664(4)
H25_2 H 0.3312 0.3470 0.9532
C35_2 C 0.1195(10) 0.0605(6) 0.3692(5)
C40_2 C 0.2443(10) 0.2445(5) 0.9193(4)
H31_2 H 0.2443 0.2725 0.8745
H34_2 H 0.0652283 0.129156 0.378283
O17_2 O 0.9504(6) 0.5213(4) 0.8787(3)
H8_2 H 0.8751 0.5699 0.8935
O18_2 O 0.9251(5) 0.6452(4) 0.7596(3)
H9_2 H 0.9599 0.6955 0.7261
H10_2 H 0.8522 0.6692 0.7963
C20_2 C 0.8851(9) 0.6352(5) 0.3313(4)
C22_2 C 0.8168(11) 0.5743(5) 0.2888(4)
H26_2 H 0.9933 0.8601 0.8253
C36_2 C 0.8012(11) 0.7170(5) 0.3510(5)
H27_2 H 0.7030 0.7323 0.3397
C37_2 C 0.8634(10) 0.7754(6) 0.3872(5)
H28_2 H 0.8092 0.8304 0.3995
H29_2 H 0.9657 0.9877 0.4389
loop_
_geom_bond_atom_site_label_1
_geom_bond_atom_site_label_2
_geom_bond_site_symmetry_1
_geom_bond_site_symmetry_2
O8 C22 1_555 1_555
O16 C22 1_555 1_555
H8 O17 1_555 1_555
H9 O18 1_555 1_555
H10 O18 1_555 1_555
C20 C22 1_555 1_555
C36 C20 1_555 1_555
H27 C36 1_555 1_555
H28 C37 1_555 1_555
Ni7 O16 1_555 1_555
Ni9 O8 1_555 1_555
C36 C37 1_555 1_555
O10 C17 1_555 1_555
O13 C17 1_555 1_555
C5 N1 1_555 1_555
C8 N1 1_555 1_555
C11 C17 1_555 1_555
H25 C33 1_555 1_555
C35 C11 1_555 1_555
C40 C8 1_555 1_555
H31 C40 1_555 1_555
Ni11 O10 1_555 1_555
O13 Ni11 1_555 1_555
C33 C40 1_555 1_555
C35 H34 1_555 1_555
O6 C14 1_555 1_555
O7 C14 1_555 1_555
C14 C23 1_555 1_555
C23 C24 1_555 1_555
C24 H17 1_555 1_555
H30 C39 1_555 1_555
Ni6 O6 1_555 1_555
Ni11 O7 1_555 1_555
C24 C39 1_555 1_555
Ni6 O2 1_555 1_555
Ni7 O1 1_555 1_555
Ni9 O1 1_555 1_555
Ni11 O3 1_555 1_555
O1 C3 1_555 1_555
O2 Ni7 1_555 1_555
H1 O2 1_555 1_555
O3 Ni6 1_555 1_555
O4 Ni6 1_555 1_555
H2 O4 1_555 1_555
O9 Ni6 1_555 1_555
H3 O9 1_555 1_555
H4 O9 1_555 1_555
O11 Ni9 1_555 1_555
H5 O11 1_555 1_555
H6 O11 1_555 1_555
O12 Ni7 1_555 1_555
O15 Ni11 1_555 1_555
C1 C2 1_555 1_555
C2 O3 1_555 1_555
N2 C6 1_555 1_555
C3 O15 1_555 1_555
C6 C38 1_555 1_555
C9 H12 1_555 1_555
C12 N2 1_555 1_555
C13 C3 1_555 1_555
C15 C1 1_555 1_555
H13 C15 1_555 1_555
C19 C9 1_555 1_555
H15 C19 1_555 1_555
H21 C28 1_555 1_555
C29 C28 1_555 1_555
H22 C29 1_555 1_555
C30 N2 1_555 1_555
C31 C12 1_555 1_555
H23 C31 1_555 1_555
C32 C13 1_555 1_555
H24 C32 1_555 1_555
C34 C1 1_555 1_555
H32 C41 1_555 1_555
C42 C6 1_555 1_555
H33 C42 1_555 1_555
O19 Ni6 1_555 1_555
O25 Ni9 1_555 1_555
Ni9 O2 1_555 1_555
Ni9 O4 1_555 1_555
Ni11 O4 1_555 1_555
O12 C2 1_555 1_555
C7 C15 1_555 1_555
C9 C12 1_555 1_555
C13 C19 1_555 1_555
C27 C34 1_555 1_555
C29 C30 1_555 1_555
C31 C32 1_555 1_555
C41 C42 1_555 1_555
O19 C16 1_555 1_555
O25 C16 1_555 1_555
C4 C18 1_555 1_555
C10 C16 1_555 1_555
C18 H14 1_555 1_555
C21 C10 1_555 1_555
H16 C21 1_555 1_555
C25 C10 1_555 1_555
H18 C25 1_555 1_555
C26 C4 1_555 1_555
C18 C25 1_555 1_555
C21 C26 1_555 1_555
O5 C16_2 1_555 1_555
O14 C16_2 1_555 1_555
C4_2 C18_2 1_555 1_555
C10_2 C16_2 1_555 1_555
C18_2 H14_2 1_555 1_555
C21_2 C10_2 1_555 1_555
H16_2 C21_2 1_555 1_555
C25_2 C10_2 1_555 1_555
H18_2 C25_2 1_555 1_555
C26_2 C4_2 1_555 1_555
Ni5 O5 1_555 1_555
Ni8 O14 1_555 1_555
C18_2 C25_2 1_555 1_555
C21_2 C26_2 1_555 1_555
Ni5 O2_2 1_555 1_555
Ni2 O1_2 1_555 1_555
Ni8 O1_2 1_555 1_555
Ni4 O3_2 1_555 1_555
O1_2 C3_2 1_555 1_555
O2_2 Ni2 1_555 1_555
H1_2 O2_2 1_555 1_555
O3_2 Ni5 1_555 1_555
O4_2 Ni5 1_555 1_555
H2_2 O4_2 1_555 1_555
O9_2 Ni5 1_555 1_555
H3_2 O9_2 1_555 1_555
H4_2 O9_2 1_555 1_555
O11_2 Ni8 1_555 1_555
H5_2 O11_2 1_555 1_555
H6_2 O11_2 1_555 1_555
O12_2 Ni2 1_555 1_555
O15_2 Ni4 1_555 1_555
C1_2 C2_2 1_555 1_555
C2_2 O3_2 1_555 1_555
N2_2 C6_2 1_555 1_555
C3_2 O15_2 1_555 1_555
C6_2 C38_2 1_555 1_555
C9_2 H12_2 1_555 1_555
C12_2 N2_2 1_555 1_555
C13_2 C3_2 1_555 1_555
C15_2 C1_2 1_555 1_555
H13_2 C15_2 1_555 1_555
C19_2 C9_2 1_555 1_555
H15_2 C19_2 1_555 1_555
H21_2 C28_2 1_555 1_555
C29_2 C28_2 1_555 1_555
H22_2 C29_2 1_555 1_555
C30_2 N2_2 1_555 1_555
C31_2 C12_2 1_555 1_555
H23_2 C31_2 1_555 1_555
C32_2 C13_2 1_555 1_555
H24_2 C32_2 1_555 1_555
C34_2 C1_2 1_555 1_555
H32_2 C41_2 1_555 1_555
C42_2 C6_2 1_555 1_555
H33_2 C42_2 1_555 1_555
O20 Ni5 1_555 1_555
O21 Ni4 1_555 1_555
O22 Ni8 1_555 1_555
O23 Ni4 1_555 1_555
O24 Ni4 1_555 1_555
O26 Ni2 1_555 1_555
Ni8 O2_2 1_555 1_555
Ni8 O4_2 1_555 1_555
Ni4 O4_2 1_555 1_555
O12_2 C2_2 1_555 1_555
C7_2 C15_2 1_555 1_555
C9_2 C12_2 1_555 1_555
C13_2 C19_2 1_555 1_555
C27_2 C34_2 1_555 1_555
C29_2 C30_2 1_555 1_555
C31_2 C32_2 1_555 1_555
C41_2 C42_2 1_555 1_555
O20 C14_2 1_555 1_555
O21 C14_2 1_555 1_555
C14_2 C23_2 1_555 1_555
C23_2 C24_2 1_555 1_555
C24_2 H17_2 1_555 1_555
H30_2 C39_2 1_555 1_555
C24_2 C39_2 1_555 1_555
O23 C17_2 1_555 1_555
O24 C17_2 1_555 1_555
C5_2 N1_2 1_555 1_555
C8_2 N1_2 1_555 1_555
C11_2 C17_2 1_555 1_555
H25_2 C33_2 1_555 1_555
C35_2 C11_2 1_555 1_555
C40_2 C8_2 1_555 1_555
H31_2 C40_2 1_555 1_555
C33_2 C40_2 1_555 1_555
C35_2 H34_2 1_555 1_555
O22 C22_2 1_555 1_555
O26 C22_2 1_555 1_555
H8_2 O17_2 1_555 1_555
H9_2 O18_2 1_555 1_555
H10_2 O18_2 1_555 1_555
C20_2 C22_2 1_555 1_555
C36_2 C20_2 1_555 1_555
H27_2 C36_2 1_555 1_555
H28_2 C37_2 1_555 1_555
C36_2 C37_2 1_555 1_555

#END
