
###############################################################################
#
# This file contains modified crystal structure data generated from the
# MOF subset of the Cambridge Structural Database (CSD) v543 
# hosted by the Cambridge Crystallographic Data Centre (CCDC).
#
# This work is licensed under the Creative Commons
# Attribution-NonCommercial-ShareAlike 4.0 International License.
# To view a copy of this license, visit
# http://creativecommons.org/licenses/by-nc-sa/4.0/
# or send a letter to
# Creative Commons, PO Box 1866, Mountain View, CA 94042, USA.
#
# CIF created using the CSD Python API on 29 September 2022
# The structure has been converted into the P1 space group
# The structure has a 3D framework
# The original CSD entry LIKWOU is in the hexagonal crystal system
# The original CSD entry LIKWOU is in a Sohncke space group
# The framework has been calculated to contain at least 10.0% void space
# The void calculation uses a probe of radius 1.32A, grid spacing 0.4
#
###############################################################################

data_LIKWOU
_chemical_formula_moiety         '(C48 H48 Cu12 N12 O56 Sr2)n'
_symmetry_cell_setting           triclinic
_symmetry_space_group_name_H-M   'P 1'
_symmetry_Int_Tables_number      1
_space_group_name_Hall           'P 1'
loop_
_symmetry_equiv_pos_site_id
_symmetry_equiv_pos_as_xyz
1 x,y,z
_cell_length_a                   17.9036(8)
_cell_length_b                   17.9036(8)
_cell_length_c                   13.2840(8)
_cell_angle_alpha                90
_cell_angle_beta                 90
_cell_angle_gamma                120
_cell_volume                     3687.57
loop_
_atom_site_label
_atom_site_type_symbol
_atom_site_fract_x
_atom_site_fract_y
_atom_site_fract_z
N3 N 0.0959(5) 0.6005(8) 0.0621(8)
O12 O 0.0148(5) 0.4503(7) 0.1588(7)
O13 O 0.2351(4) 0.6781(6) 0.1642(6)
O17 O 0.2991(5) 0.8019(8) 0.0709(7)
C10 C 0.0210(7) 0.5469(10) 0.0226(9)
C11 C 0.1546(8) 0.6903(12) 0.0273(11)
C12 C 0.2363(8) 0.7262(11) 0.0917(11)
C16 C 0.1118(7) 0.7486(10) 0.0422(11)
H13 H 0.1527 0.8075 0.0177
O19 O 0.0890(7) 0.7545(10) 0.1403(11)
H16 H 0.1101 0.8066 0.1561
Sr4 Sr 0.3333 0.6667 0.3005(2)
Cu8 Cu 0.42810(8) 0.86799(8) 0.17652(7)
Cu10 Cu 0.13201(8) 0.56011(11) 0.17652(7)
N2 N 0.5060(7) 0.0984(6) 0.0458(8)
O5 O 0.4931(5) 0.2891(5) 0.0210(7)
C1 C 0.4848(7) 0.0232(6) 0.0824(9)
C5 C 0.5120(7) 0.2339(6) 0.0072(11)
C6 C 0.4795(9) 0.1578(7) 0.0855(11)
H2 H 0.4151 0.1274 0.0886
C7 C 0.5192(14) 0.1870(17) 0.203(2)
H3 H 0.4907 0.2166 0.2338
H4 H 0.5010 0.1335 0.2419
O8 O 0.603(2) 0.237(2) 0.216(2)
H7 H 0.6152 0.2886 0.2164
N4 N 0.9016(6) 0.4076(9) 0.0458(8)
O15 O 0.7109(5) 0.2040(7) 0.0210(7)
C9 C 0.9768(6) 0.4616(9) 0.0824(9)
C13 C 0.7661(6) 0.2781(9) 0.0072(11)
C14 C 0.8422(7) 0.3217(11) 0.0855(11)
H10 H 0.8726 0.2877 0.0886
C15 C 0.8130(17) 0.3322(22) 0.203(2)
H11 H 0.7834 0.2741 0.2338
H12 H 0.8665 0.3675 0.2419
O18 O 0.763(2) 0.366(3) 0.216(2)
H15 H 0.7114 0.3266 0.2164
N5 N 0.3995(8) 0.4954(6) 0.0621(8)
N6 N 0.5924(9) 0.4940(7) 0.0458(8)
O22 O 0.5497(7) 0.5645(5) 0.1588(7)
O23 O 0.3219(6) 0.5570(4) 0.1642(6)
O25 O 0.7960(7) 0.5069(5) 0.0210(7)
O27 O 0.1981(8) 0.4972(6) 0.0709(7)
C17 C 0.5384(9) 0.5152(7) 0.0824(9)
C18 C 0.4531(10) 0.4741(7) 0.0226(9)
C19 C 0.3097(12) 0.4643(9) 0.0273(11)
C20 C 0.2738(11) 0.5101(8) 0.0917(11)
C21 C 0.7219(9) 0.4880(7) 0.0072(11)
C22 C 0.6783(11) 0.5205(9) 0.0855(11)
H18 H 0.7123 0.5849 0.0886
C23 C 0.6678(22) 0.4808(14) 0.203(2)
H19 H 0.7259 0.5093 0.2338
H20 H 0.6325 0.4990 0.2419
C24 C 0.2514(10) 0.3632(7) 0.0422(11)
H21 H 0.1925 0.3452 0.0177
O28 O 0.634(3) 0.397(2) 0.216(2)
H23 H 0.6734 0.3848 0.2164
O29 O 0.2455(10) 0.3345(7) 0.1403(11)
H24 H 0.1934 0.3035 0.1561
Cu12 Cu 0.43989(11) 0.57190(8) 0.17652(7)
Sr1 Sr 0.6667 0.3333 0.8005(2)
Cu1 Cu 0.57190(8) 0.13201(8) 0.67652(7)
Cu2 Cu 0.57808(7) 0.13276(7) 0.92745(6)
O1 O 0.6365(3) 0.1705(3) 0.8005(7)
O4 O 0.5714(5) 0.0173(4) 0.9466(6)
O6 O 0.5584(5) 0.2353(4) 0.9319(6)
O10 O 0.4366(10) 0.0505(7) 0.8138(12)
Cu3 Cu 0.86799(8) 0.43989(11) 0.67652(7)
Cu4 Cu 0.86724(7) 0.44532(10) 0.92745(6)
O11 O 0.8295(3) 0.4660(4) 0.8005(7)
O14 O 0.9827(4) 0.5541(6) 0.9466(6)
O16 O 0.7647(4) 0.3231(6) 0.9319(6)
O20 O 0.9495(7) 0.3861(12) 0.8138(12)
Cu5 Cu 0.56011(11) 0.42810(8) 0.67652(7)
Cu6 Cu 0.55468(10) 0.42192(7) 0.92745(6)
O21 O 0.5340(4) 0.3635(3) 0.8005(7)
O24 O 0.4459(6) 0.4286(5) 0.9466(6)
O26 O 0.6769(6) 0.4416(5) 0.9319(6)
H17 H 0.3100 0.4794 0.9547
H22 H 0.2747 0.3343 0.9995
O30 O 0.6139(12) 0.5634(10) 0.8138(12)
N7 N 0.4954(6) 0.0959(5) 0.5621(8)
N8 N 0.9041(5) 0.3995(8) 0.5621(8)
N9 N 0.6005(8) 0.5046(6) 0.5621(8)
O31 O 0.5645(5) 0.0148(5) 0.6588(7)
O32 O 0.9852(5) 0.5497(7) 0.6588(7)
O33 O 0.4503(7) 0.4355(5) 0.6588(7)
O34 O 0.5570(4) 0.2351(4) 0.6642(6)
O35 O 0.7649(4) 0.3219(6) 0.6642(6)
O36 O 0.6781(6) 0.4430(4) 0.6642(6)
O37 O 0.4972(6) 0.2991(5) 0.5709(7)
O38 O 0.7009(5) 0.1981(8) 0.5709(7)
O39 O 0.8019(8) 0.5028(6) 0.5709(7)
N1 N 0.5046(6) 0.9041(5) 0.0621(8)
O2 O 0.4355(5) 0.9852(5) 0.1588(7)
O3 O 0.4430(4) 0.7649(4) 0.1642(6)
O7 O 0.5028(6) 0.7009(5) 0.0709(7)
C2 C 0.5259(7) 0.9790(7) 0.0226(9)
C3 C 0.5357(9) 0.8454(8) 0.0273(11)
C4 C 0.4899(8) 0.7637(8) 0.0917(11)
C8 C 0.6368(7) 0.8882(7) 0.0422(11)
H5 H 0.6548 0.8473 0.0177
O9 O 0.6655(7) 0.9110(7) 0.1403(11)
H8 H 0.6965 0.8899 0.1561
C2_2 C 0.4741(7) 0.0210(7) 0.5226(9)
C3_2 C 0.4643(9) 0.1546(8) 0.5273(11)
H1 H 0.4794 0.1694 0.4547
C4_2 C 0.5101(8) 0.2363(8) 0.5917(11)
C8_2 C 0.3632(7) 0.1118(7) 0.5422(11)
H5_2 H 0.3452 0.1527 0.5177
H6 H 0.3343 0.0596 0.4995
O9_2 O 0.3345(7) 0.0890(7) 0.6403(11)
H8_2 H 0.3035 0.1101 0.6561
Cu2_2 Cu 0.42192(7) 0.86724(7) 0.42745(6)
O1_2 O 0.3635(3) 0.8295(3) 0.3005(7)
N2_2 N 0.4940(7) 0.9016(6) 0.5458(8)
O4_2 O 0.4286(5) 0.9827(4) 0.4466(6)
O5_2 O 0.5069(5) 0.7109(5) 0.5210(7)
O6_2 O 0.4416(5) 0.7647(4) 0.4319(6)
C1_2 C 0.5152(7) 0.9768(6) 0.5824(9)
C5_2 C 0.4880(7) 0.7661(6) 0.5072(11)
C6_2 C 0.5205(9) 0.8422(7) 0.5855(11)
H2_2 H 0.5849 0.8726 0.5886
C7_2 C 0.4808(14) 0.8130(17) 0.703(2)
H3_2 H 0.5093 0.7834 0.7338
H4_2 H 0.4990 0.8665 0.7419
O8_2 O 0.397(2) 0.763(2) 0.716(2)
H7_2 H 0.3848 0.7114 0.7164
O10_2 O 0.5634(10) 0.9495(7) 0.3138(12)
Cu4_2 Cu 0.13276(7) 0.55468(10) 0.42745(6)
O11_2 O 0.1705(3) 0.5340(4) 0.3005(7)
N4_2 N 0.0984(6) 0.5924(9) 0.5458(8)
O14_2 O 0.0173(4) 0.4459(6) 0.4466(6)
O15_2 O 0.2891(5) 0.7960(7) 0.5210(7)
O16_2 O 0.2353(4) 0.6769(6) 0.4319(6)
C9_2 C 0.0232(6) 0.5384(9) 0.5824(9)
C13_2 C 0.2339(6) 0.7219(9) 0.5072(11)
C14_2 C 0.1578(7) 0.6783(11) 0.5855(11)
H10_2 H 0.1274 0.7123 0.5886
C15_2 C 0.1870(17) 0.6678(22) 0.703(2)
H11_2 H 0.2166 0.7259 0.7338
H12_2 H 0.1335 0.6325 0.7419
O18_2 O 0.237(2) 0.634(3) 0.716(2)
H15_2 H 0.2886 0.6734 0.7164
O20_2 O 0.0505(7) 0.6139(12) 0.3138(12)
Cu6_2 Cu 0.44532(10) 0.57808(7) 0.42745(6)
O21_2 O 0.4660(4) 0.6365(3) 0.3005(7)
N6_2 N 0.4076(9) 0.5060(7) 0.5458(8)
O24_2 O 0.5541(6) 0.5714(5) 0.4466(6)
O25_2 O 0.2040(7) 0.4931(5) 0.5210(7)
O26_2 O 0.3231(6) 0.5584(5) 0.4319(6)
C17_2 C 0.4616(9) 0.4848(7) 0.5824(9)
C18_2 C 0.5469(10) 0.5259(7) 0.5226(9)
C19_2 C 0.6903(12) 0.5357(9) 0.5273(11)
H17_2 H 0.6900 0.5206 0.4547
C20_2 C 0.7262(11) 0.4899(8) 0.5917(11)
C21_2 C 0.2781(9) 0.5120(7) 0.5072(11)
C22_2 C 0.3217(11) 0.4795(9) 0.5855(11)
H18_2 H 0.2877 0.4151 0.5886
C23_2 C 0.3322(22) 0.5192(14) 0.703(2)
H19_2 H 0.2741 0.4907 0.7338
H20_2 H 0.3675 0.5010 0.7419
C24_2 C 0.7486(10) 0.6368(7) 0.5422(11)
H21_2 H 0.8075 0.6548 0.5177
H22_2 H 0.7253 0.6657 0.4995
O28_2 O 0.366(3) 0.603(2) 0.716(2)
H23_2 H 0.3266 0.6152 0.7164
O29_2 O 0.7545(10) 0.6655(7) 0.6403(11)
H24_2 H 0.8066 0.6965 0.6561
O30_2 O 0.3861(12) 0.4366(10) 0.3138(12)
C10_2 C 0.9790(7) 0.4531(10) 0.5226(9)
C11_2 C 0.8454(8) 0.3097(12) 0.5273(11)
H9 H 0.8306 0.3100 0.4547
C12_2 C 0.7637(8) 0.2738(11) 0.5917(11)
C16_2 C 0.8882(7) 0.2514(10) 0.5422(11)
H13_2 H 0.8473 0.1925 0.5177
H14 H 0.9404 0.2747 0.4995
O19_2 O 0.9110(7) 0.2455(10) 0.6403(11)
H16_2 H 0.8899 0.1934 0.6561
H9_2 H 0.1694 0.6900 0.9547
H14_2 H 0.0596 0.7253 0.9995
H1_2 H 0.5206 0.8306 0.9547
H6_2 H 0.6657 0.9404 0.9995
loop_
_geom_bond_atom_site_label_1
_geom_bond_atom_site_label_2
_geom_bond_site_symmetry_1
_geom_bond_site_symmetry_2
N3 C10 1_555 1_555
O13 C12 1_555 1_555
O17 C12 1_555 1_555
C11 N3 1_555 1_555
C12 C11 1_555 1_555
C16 C11 1_555 1_555
H13 C16 1_555 1_555
O19 C16 1_555 1_555
H16 O19 1_555 1_555
Sr4 O13 1_555 1_555
Cu8 O17 1_555 1_555
Cu10 N3 1_555 1_555
O12 Cu10 1_555 1_555
O13 Cu10 1_555 1_555
O5 C5 1_555 1_555
C1 N2 1_555 1_555
C6 N2 1_555 1_555
H2 C6 1_555 1_555
C7 C6 1_555 1_555
H3 C7 1_555 1_555
H4 C7 1_555 1_555
O8 C7 1_555 1_555
H7 O8 1_555 1_555
C9 N4 1_555 1_555
C13 O15 1_555 1_555
C14 N4 1_555 1_555
H10 C14 1_555 1_555
C15 C14 1_555 1_555
H11 C15 1_555 1_555
H12 C15 1_555 1_555
O18 C15 1_555 1_555
H15 O18 1_555 1_555
N5 C18 1_555 1_555
O22 C17 1_555 1_555
O23 C20 1_555 1_555
O27 C20 1_555 1_555
C17 N6 1_555 1_555
C19 N5 1_555 1_555
C20 C19 1_555 1_555
C21 O25 1_555 1_555
C22 N6 1_555 1_555
H18 C22 1_555 1_555
C23 C22 1_555 1_555
H19 C23 1_555 1_555
H20 C23 1_555 1_555
C24 C19 1_555 1_555
H21 C24 1_555 1_555
O28 C23 1_555 1_555
H23 O28 1_555 1_555
O29 C24 1_555 1_555
H24 O29 1_555 1_555
Sr4 O23 1_555 1_555
Cu10 O27 1_555 1_555
Cu12 N5 1_555 1_555
C5 C6 1_555 1_555
C13 C14 1_555 1_555
O22 Cu12 1_555 1_555
O23 Cu12 1_555 1_555
C17 C18 1_555 1_555
C21 C22 1_555 1_555
Sr1 O1 1_555 1_555
Cu1 O1 1_555 1_555
Cu2 O1 1_555 1_555
O4 Cu2 1_555 1_555
O6 Sr1 1_555 1_555
O10 Cu1 1_555 1_555
Cu3 O11 1_555 1_555
Cu4 O11 1_555 1_555
O11 Sr1 1_555 1_555
O14 Cu4 1_555 1_555
O16 Sr1 1_555 1_555
O20 Cu3 1_555 1_555
Cu5 O21 1_555 1_555
O21 Sr1 1_555 1_555
O24 Cu6 1_555 1_555
O26 Sr1 1_555 1_555
O30 Cu5 1_555 1_555
N7 Cu1 1_555 1_555
N8 Cu3 1_555 1_555
N9 Cu5 1_555 1_555
O31 Cu1 1_555 1_555
O32 Cu3 1_555 1_555
O33 Cu5 1_555 1_555
O34 Sr1 1_555 1_555
O35 Sr1 1_555 1_555
O36 Sr1 1_555 1_555
O37 Cu5 1_555 1_555
O38 Cu1 1_555 1_555
O39 Cu3 1_555 1_555
Cu1 O34 1_555 1_555
Cu2 O6 1_555 1_555
Cu2 O10 1_555 1_555
Cu3 O35 1_555 1_555
Cu4 O16 1_555 1_555
Cu4 O20 1_555 1_555
Cu5 O36 1_555 1_555
Cu6 O21 1_555 1_555
Cu6 O26 1_555 1_555
Cu6 O30 1_555 1_555
N1 C2 1_555 1_555
O3 C4 1_555 1_555
O7 C4 1_555 1_555
C3 N1 1_555 1_555
C4 C3 1_555 1_555
C8 C3 1_555 1_555
H5 C8 1_555 1_555
O9 C8 1_555 1_555
H8 O9 1_555 1_555
Sr4 O3 1_555 1_555
Cu8 N1 1_555 1_555
Cu12 O7 1_555 1_555
O2 Cu8 1_555 1_555
O3 Cu8 1_555 1_555
N7 C2_2 1_555 1_555
O34 C4_2 1_555 1_555
O37 C4_2 1_555 1_555
C3_2 N7 1_555 1_555
H1 C3_2 1_555 1_555
C4_2 C3_2 1_555 1_555
C8_2 C3_2 1_555 1_555
H5_2 C8_2 1_555 1_555
H6 C8_2 1_555 1_555
O9_2 C8_2 1_555 1_555
H8_2 O9_2 1_555 1_555
Sr4 O1_2 1_555 1_555
Cu8 O1_2 1_555 1_555
Cu2_2 O1_2 1_555 1_555
N2_2 Cu2_2 1_555 1_555
O4_2 Cu2_2 1_555 1_555
O5_2 C5_2 1_555 1_555
O6_2 Sr4 1_555 1_555
C1_2 N2_2 1_555 1_555
C5_2 O6_2 1_555 1_555
C6_2 N2_2 1_555 1_555
H2_2 C6_2 1_555 1_555
C7_2 C6_2 1_555 1_555
H3_2 C7_2 1_555 1_555
H4_2 C7_2 1_555 1_555
O8_2 C7_2 1_555 1_555
H7_2 O8_2 1_555 1_555
O10_2 Cu8 1_555 1_555
Cu10 O11_2 1_555 1_555
Cu4_2 O11_2 1_555 1_555
O11_2 Sr4 1_555 1_555
N4_2 Cu4_2 1_555 1_555
O14_2 Cu4_2 1_555 1_555
O15_2 Cu2_2 1_555 1_555
O16_2 Sr4 1_555 1_555
C9_2 N4_2 1_555 1_555
C13_2 O15_2 1_555 1_555
C14_2 N4_2 1_555 1_555
H10_2 C14_2 1_555 1_555
C15_2 C14_2 1_555 1_555
H11_2 C15_2 1_555 1_555
H12_2 C15_2 1_555 1_555
O18_2 C15_2 1_555 1_555
H15_2 O18_2 1_555 1_555
O20_2 Cu10 1_555 1_555
Cu12 O21_2 1_555 1_555
Cu6_2 O5_2 1_555 1_555
O21_2 Sr4 1_555 1_555
N9 C18_2 1_555 1_555
N6_2 Cu6_2 1_555 1_555
O33 C17_2 1_555 1_555
O36 C20_2 1_555 1_555
O24_2 Cu6_2 1_555 1_555
O25_2 Cu4_2 1_555 1_555
O26_2 Sr4 1_555 1_555
O39 C20_2 1_555 1_555
C17_2 N6_2 1_555 1_555
C18_2 O24_2 1_555 1_555
C19_2 N9 1_555 1_555
H17_2 C19_2 1_555 1_555
C20_2 C19_2 1_555 1_555
C21_2 O25_2 1_555 1_555
C22_2 N6_2 1_555 1_555
H18_2 C22_2 1_555 1_555
C23_2 C22_2 1_555 1_555
H19_2 C23_2 1_555 1_555
H20_2 C23_2 1_555 1_555
C24_2 C19_2 1_555 1_555
H21_2 C24_2 1_555 1_555
H22_2 C24_2 1_555 1_555
O28_2 C23_2 1_555 1_555
H23_2 O28_2 1_555 1_555
O29_2 C24_2 1_555 1_555
H24_2 O29_2 1_555 1_555
O30_2 Cu12 1_555 1_555
Cu2_2 O6_2 1_555 1_555
Cu2_2 O10_2 1_555 1_555
C5_2 C6_2 1_555 1_555
Cu4_2 O16_2 1_555 1_555
Cu4_2 O20_2 1_555 1_555
O16_2 C13_2 1_555 1_555
C13_2 C14_2 1_555 1_555
Cu6_2 O21_2 1_555 1_555
Cu6_2 O26_2 1_555 1_555
Cu6_2 O30_2 1_555 1_555
O26_2 C21_2 1_555 1_555
C17_2 C18_2 1_555 1_555
C21_2 C22_2 1_555 1_555
N8 C10_2 1_555 1_555
O35 C12_2 1_555 1_555
O38 C12_2 1_555 1_555
C11_2 N8 1_555 1_555
H9 C11_2 1_555 1_555
C12_2 C11_2 1_555 1_555
C16_2 C11_2 1_555 1_555
H13_2 C16_2 1_555 1_555
H14 C16_2 1_555 1_555
O19_2 C16_2 1_555 1_555
H16_2 O19_2 1_555 1_555

#END
