
###############################################################################
#
# This file contains modified crystal structure data generated from the
# MOF subset of the Cambridge Structural Database (CSD) v543 
# hosted by the Cambridge Crystallographic Data Centre (CCDC).
#
# This work is licensed under the Creative Commons
# Attribution-NonCommercial-ShareAlike 4.0 International License.
# To view a copy of this license, visit
# http://creativecommons.org/licenses/by-nc-sa/4.0/
# or send a letter to
# Creative Commons, PO Box 1866, Mountain View, CA 94042, USA.
#
# CIF created using the CSD Python API on 29 September 2022
# The structure has been converted into the P1 space group
# The structure has a 3D framework
# The original CSD entry LIKWUA is in the hexagonal crystal system
# The original CSD entry LIKWUA is in a Sohncke space group
# The framework has been calculated to contain at least 10.0% void space
# The void calculation uses a probe of radius 1.32A, grid spacing 0.4
# H atom positions have been added when not included in the experimental data
# Generated hydrogen atom positions removed from atoms on special positions
#
###############################################################################

data_LIKWUA
_chemical_formula_moiety         '(C48 H84 Cu12 N12 O54 Sr2)n'
_symmetry_cell_setting           triclinic
_symmetry_space_group_name_H-M   'P 1'
_symmetry_Int_Tables_number      1
_space_group_name_Hall           'P 1'
loop_
_symmetry_equiv_pos_site_id
_symmetry_equiv_pos_as_xyz
1 x,y,z
_cell_length_a                   17.89510(10)
_cell_length_b                   17.89510(10)
_cell_length_c                   12.9291(2)
_cell_angle_alpha                90
_cell_angle_beta                 90
_cell_angle_gamma                120
_cell_volume                     3585.64
loop_
_atom_site_label
_atom_site_type_symbol
_atom_site_fract_x
_atom_site_fract_y
_atom_site_fract_z
N6 N 0.0951(7) 0.5989(5) 0.1243(6)
O19 O 0.2967(6) 0.7986(4) 0.1311(6)
O20 O 0.0189(6) 0.4518(4) 0.2209(5)
O24 O 0.2368(5) 0.6779(3) 0.2268(4)
C18 C 0.1523(10) 0.6918(6) 0.0888(10)
H9 H 0.1669 0.6926 0.0140
C19 C 0.2362(8) 0.7258(5) 0.1560(8)
C20 C 0.0206(7) 0.5461(5) 0.0864(6)
C23 C 0.1108(11) 0.7485(7) 0.1058(17)
O25 O 0.0874(12) 0.7498(9) 0.2094(15)
H11 H 0.0342 0.7162 0.2166
Sr3 Sr 0.3333 0.6667 0.36465(12)
Cu12 Cu 0.42452(6) 0.86528(8) 0.23657(5)
Cu13 Cu 0.13472(8) 0.55924(6) 0.23657(5)
H21 H 0.0531345 0.72356 0.0579705
H22 H 0.156779 0.814251 0.0822622
Cu1 Cu 0.44624(5) 0.58200(5) 0.49512(5)
Cu2 Cu 0.44076(6) 0.57548(6) 0.23657(5)
N1 N 0.5926(5) 0.4927(5) 0.1140(6)
N2 N 0.4011(5) 0.4962(5) 0.1243(6)
O1 O 0.4661(2) 0.6388(2) 0.3628(5)
O2 O 0.2014(4) 0.4981(5) 0.1311(6)
O3 O 0.5482(4) 0.5671(4) 0.2209(5)
O4 O 0.4448(4) 0.4251(4) 0.0097(5)
O5 O 0.7971(6) 0.5083(5) 0.0908(5)
O6 O 0.6755(3) 0.4407(3) 0.0014(5)
O7 O 0.3221(3) 0.5589(4) 0.2268(4)
C1 C 0.7199(5) 0.4888(6) 0.0796(7)
C2 C 0.3082(6) 0.4605(8) 0.0888(10)
H1 H 0.3074 0.4743 0.0140
C3 C 0.2742(5) 0.5104(6) 0.1560(8)
C4 C 0.4539(5) 0.4745(5) 0.0864(6)
C5 C 0.5387(5) 0.5159(6) 0.1464(7)
C6 C 0.6766(5) 0.5210(7) 0.1518(7)
H2 H 0.7100 0.5855 0.1557
C7 C 0.2515(7) 0.3623(9) 0.1058(17)
O8 O 0.2502(9) 0.3376(8) 0.2094(15)
H3 H 0.2838 0.3180 0.2166
C8 C 0.6736(9) 0.4800(14) 0.2624(9)
O9 O 0.6286(17) 0.3958(14) 0.270(2)
H4 H 0.6622 0.3757 0.2704
O10 O 0.3826(8) 0.4352(8) 0.3679(17)
N3 N 0.5073(5) 0.0999(7) 0.1140(6)
O13 O 0.5749(4) 0.0197(6) 0.0097(5)
O14 O 0.4917(5) 0.2888(8) 0.0908(5)
O15 O 0.5593(3) 0.2348(4) 0.0014(5)
C9 C 0.5112(6) 0.2311(8) 0.0796(7)
C13 C 0.4841(6) 0.0228(8) 0.1464(7)
C14 C 0.4790(7) 0.1556(9) 0.1518(7)
H6 H 0.4145 0.1245 0.1557
C16 C 0.5200(14) 0.1936(17) 0.2624(9)
O18 O 0.6042(14) 0.2328(22) 0.270(2)
H8 H 0.6243 0.2865 0.2704
N5 N 0.9001(7) 0.4074(5) 0.1140(6)
O21 O 0.9803(6) 0.5552(4) 0.0097(5)
O22 O 0.7112(8) 0.2029(6) 0.0908(5)
O23 O 0.7652(4) 0.3245(3) 0.0014(5)
C17 C 0.7689(8) 0.2801(5) 0.0796(7)
C21 C 0.9772(8) 0.4613(5) 0.1464(7)
C22 C 0.8444(9) 0.3234(5) 0.1518(7)
H10 H 0.8755 0.2900 0.1557
C24 C 0.8064(17) 0.3264(9) 0.2624(9)
O26 O 0.7672(22) 0.3714(17) 0.270(2)
H12 H 0.7135 0.3378 0.2704
Cu3 Cu 0.41800(5) 0.86424(7) 0.49512(5)
O27 O 0.3612(2) 0.8273(3) 0.3628(5)
O28 O 0.5648(8) 0.9474(11) 0.3679(17)
Cu5 Cu 0.13576(7) 0.55376(5) 0.49512(5)
O29 O 0.1727(3) 0.5339(2) 0.3628(5)
O30 O 0.0526(11) 0.6174(8) 0.3679(17)
N7 N 0.4074(5) 0.5073(5) 0.6140(6)
N8 N 0.4927(5) 0.9001(7) 0.6140(6)
N9 N 0.0999(7) 0.5926(5) 0.6140(6)
N10 N 0.5038(5) 0.9049(7) 0.1243(6)
O31 O 0.5019(5) 0.7033(6) 0.1311(6)
O33 O 0.4329(4) 0.9811(6) 0.2209(5)
O35 O 0.5552(4) 0.5749(4) 0.5097(5)
O36 O 0.4251(4) 0.9803(6) 0.5097(5)
O37 O 0.0197(6) 0.4448(4) 0.5097(5)
O38 O 0.2029(6) 0.4917(5) 0.5908(5)
O39 O 0.5083(5) 0.7112(8) 0.5908(5)
O40 O 0.2888(8) 0.7971(6) 0.5908(5)
O41 O 0.3245(3) 0.5593(3) 0.5014(5)
O42 O 0.4407(3) 0.7652(4) 0.5014(5)
O43 O 0.2348(4) 0.6755(3) 0.5014(5)
O44 O 0.4411(4) 0.7632(5) 0.2268(4)
H13 H 0.646617 0.50651 0.317016
H14 H 0.739748 0.500033 0.284354
H15 H 0.49349 0.140106 0.317016
H16 H 0.499967 0.239715 0.284354
H25 H 0.859894 0.353383 0.317016
H26 H 0.760285 0.260252 0.284354
H29 H 0.27644 0.329574 0.0579705
H30 H 0.185749 0.342528 0.0822622
Sr4 Sr 0.6667 0.3333 0.86465(12)
Cu7 Cu 0.55376(5) 0.41800(5) 0.99512(5)
Cu8 Cu 0.58200(5) 0.13576(7) 0.99512(5)
Cu9 Cu 0.86424(7) 0.44624(5) 0.99512(5)
C10 C 0.5395(8) 0.8477(10) 0.0888(10)
H5 H 0.5257 0.8331 0.0140
C11 C 0.4896(6) 0.7638(8) 0.1560(8)
C12 C 0.5255(5) 0.9794(7) 0.0864(6)
C15 C 0.6377(9) 0.8892(11) 0.1058(17)
O17 O 0.6624(8) 0.9126(12) 0.2094(15)
H7 H 0.6820 0.9658 0.2166
H17 H 0.670426 0.946865 0.0579705
H18 H 0.657472 0.843221 0.0822622
H19 H 0.59709 0.0100646 0.351932
H19_2 H 0.989935 0.587025 0.351932
N4 N 0.4962(5) 0.0951(7) 0.6243(6)
O11 O 0.4981(5) 0.2967(6) 0.6311(6)
O12 O 0.5671(4) 0.0189(6) 0.7209(5)
O16 O 0.5589(4) 0.2368(5) 0.7268(4)
C10_2 C 0.4605(8) 0.1523(10) 0.5888(10)
H5_2 H 0.4743 0.1669 0.5140
C11_2 C 0.5104(6) 0.2362(8) 0.6560(8)
C12_2 C 0.4745(5) 0.0206(7) 0.5864(6)
C15_2 C 0.3623(9) 0.1108(11) 0.6058(17)
O17_2 O 0.3376(8) 0.0874(12) 0.7094(15)
H7_2 H 0.3180 0.0342 0.7166
Cu10 Cu 0.55924(6) 0.42452(6) 0.73657(5)
Cu11 Cu 0.57548(6) 0.13472(8) 0.73657(5)
H17_2 H 0.329574 0.0531345 0.557971
H18_2 H 0.342528 0.156779 0.582262
N2_2 N 0.5989(5) 0.5038(5) 0.6243(6)
O1_2 O 0.5339(2) 0.3612(2) 0.8628(5)
O2_2 O 0.7986(4) 0.5019(5) 0.6311(6)
O3_2 O 0.4518(4) 0.4329(4) 0.7209(5)
O7_2 O 0.6779(3) 0.4411(4) 0.7268(4)
C1_2 C 0.2801(5) 0.5112(6) 0.5796(7)
C2_2 C 0.6918(6) 0.5395(8) 0.5888(10)
H1_2 H 0.6926 0.5257 0.5140
C3_2 C 0.7258(5) 0.4896(6) 0.6560(8)
C4_2 C 0.5461(5) 0.5255(5) 0.5864(6)
C5_2 C 0.4613(5) 0.4841(6) 0.6464(7)
C6_2 C 0.3234(5) 0.4790(7) 0.6518(7)
H2_2 H 0.2900 0.4145 0.6557
C7_2 C 0.7485(7) 0.6377(9) 0.6058(17)
O8_2 O 0.7498(9) 0.6624(8) 0.7094(15)
H3_2 H 0.7162 0.6820 0.7166
C8_2 C 0.3264(9) 0.5200(14) 0.7624(9)
O9_2 O 0.3714(17) 0.6042(14) 0.770(2)
H4_2 H 0.3378 0.6243 0.7704
O10_2 O 0.6174(8) 0.5648(8) 0.8679(17)
C9_2 C 0.4888(6) 0.7689(8) 0.5796(7)
C13_2 C 0.5159(6) 0.9772(8) 0.6464(7)
C14_2 C 0.5210(7) 0.8444(9) 0.6518(7)
H6_2 H 0.5855 0.8755 0.6557
C16_2 C 0.4800(14) 0.8064(17) 0.7624(9)
O18_2 O 0.3958(14) 0.7672(22) 0.770(2)
H8_2 H 0.3757 0.7135 0.7704
C17_2 C 0.2311(8) 0.7199(5) 0.5796(7)
C21_2 C 0.0228(8) 0.5387(5) 0.6464(7)
C22_2 C 0.1556(9) 0.6766(5) 0.6518(7)
H10_2 H 0.1245 0.7100 0.6557
C24_2 C 0.1936(17) 0.6736(9) 0.7624(9)
O26_2 O 0.2328(22) 0.6286(17) 0.770(2)
H12_2 H 0.2865 0.6622 0.7704
O27_2 O 0.6388(2) 0.1727(3) 0.8628(5)
O28_2 O 0.4352(8) 0.0526(11) 0.8679(17)
Cu6 Cu 0.86528(8) 0.44076(6) 0.73657(5)
O29_2 O 0.8273(3) 0.4661(2) 0.8628(5)
O30_2 O 0.9474(11) 0.3826(8) 0.8679(17)
N11 N 0.9049(7) 0.4011(5) 0.6243(6)
O32 O 0.7033(6) 0.2014(4) 0.6311(6)
O34 O 0.9811(6) 0.5482(4) 0.7209(5)
O45 O 0.7632(5) 0.3221(3) 0.7268(4)
H13_2 H 0.353383 0.49349 0.817016
H14_2 H 0.260252 0.499967 0.784354
H15_2 H 0.50651 0.859894 0.817016
H16_2 H 0.500033 0.760285 0.784354
H25_2 H 0.140106 0.646617 0.817016
H26_2 H 0.239715 0.739748 0.784354
H29_2 H 0.72356 0.670426 0.557971
H30_2 H 0.814251 0.657472 0.582262
C18_2 C 0.8477(10) 0.3082(6) 0.5888(10)
H9_2 H 0.8331 0.3074 0.5140
C19_2 C 0.7638(8) 0.2742(5) 0.6560(8)
C20_2 C 0.9794(7) 0.4539(5) 0.5864(6)
C23_2 C 0.8892(11) 0.2515(7) 0.6058(17)
O25_2 O 0.9126(12) 0.2502(9) 0.7094(15)
H11_2 H 0.9658 0.2838 0.7166
H21_2 H 0.946865 0.27644 0.557971
H22_2 H 0.843221 0.185749 0.582262
H19_3 H 0.40291 0.989935 0.851932
H19_4 H 0.0100646 0.412975 0.851932
loop_
_geom_bond_atom_site_label_1
_geom_bond_atom_site_label_2
_geom_bond_site_symmetry_1
_geom_bond_site_symmetry_2
N6 C18 1_555 1_555
O19 C19 1_555 1_555
O24 C19 1_555 1_555
C18 H9 1_555 1_555
C19 C18 1_555 1_555
C20 N6 1_555 1_555
C23 C18 1_555 1_555
O25 C23 1_555 1_555
H11 O25 1_555 1_555
Sr3 O24 1_555 1_555
Cu12 O19 1_555 1_555
Cu13 N6 1_555 1_555
O20 Cu13 1_555 1_555
O24 Cu13 1_555 1_555
C23 H21 1_555 1_555
C23 H22 1_555 1_555
Sr3 O1 1_555 1_555
Cu1 O1 1_555 1_555
Cu2 N2 1_555 1_555
N1 C5 1_555 1_555
N2 C2 1_555 1_555
O1 Cu2 1_555 1_555
O2 C3 1_555 1_555
O3 Cu2 1_555 1_555
O4 C4 1_555 1_555
O5 C1 1_555 1_555
O6 C1 1_555 1_555
O7 Sr3 1_555 1_555
C1 C6 1_555 1_555
C2 H1 1_555 1_555
C3 O7 1_555 1_555
C4 N2 1_555 1_555
C5 O3 1_555 1_555
C6 N1 1_555 1_555
H2 C6 1_555 1_555
C7 C2 1_555 1_555
O8 C7 1_555 1_555
H3 O8 1_555 1_555
C8 C6 1_555 1_555
O9 C8 1_555 1_555
H4 O9 1_555 1_555
O10 Cu2 1_555 1_555
N3 C13 1_555 1_555
O14 C9 1_555 1_555
O15 C9 1_555 1_555
C9 C14 1_555 1_555
C14 N3 1_555 1_555
H6 C14 1_555 1_555
C16 C14 1_555 1_555
O18 C16 1_555 1_555
H8 O18 1_555 1_555
N5 C21 1_555 1_555
O22 C17 1_555 1_555
O23 C17 1_555 1_555
C17 C22 1_555 1_555
C22 N5 1_555 1_555
H10 C22 1_555 1_555
C24 C22 1_555 1_555
O26 C24 1_555 1_555
H12 O26 1_555 1_555
Cu3 O27 1_555 1_555
Cu12 O27 1_555 1_555
O27 Sr3 1_555 1_555
O28 Cu12 1_555 1_555
Cu5 O29 1_555 1_555
Cu13 O2 1_555 1_555
O29 Sr3 1_555 1_555
O30 Cu13 1_555 1_555
N7 Cu1 1_555 1_555
N8 Cu3 1_555 1_555
N9 Cu5 1_555 1_555
N10 Cu12 1_555 1_555
O31 Cu2 1_555 1_555
O33 Cu12 1_555 1_555
O35 Cu1 1_555 1_555
O36 Cu3 1_555 1_555
O37 Cu5 1_555 1_555
O38 Cu5 1_555 1_555
O39 Cu1 1_555 1_555
O40 Cu3 1_555 1_555
O41 Sr3 1_555 1_555
O42 Sr3 1_555 1_555
O43 Sr3 1_555 1_555
O44 Sr3 1_555 1_555
Cu1 O41 1_555 1_555
Cu2 O7 1_555 1_555
C2 C3 1_555 1_555
C4 C5 1_555 1_555
Cu3 O42 1_555 1_555
Cu12 O44 1_555 1_555
Cu5 O43 1_555 1_555
Cu13 O29 1_555 1_555
C8 H13 1_555 1_555
C8 H14 1_555 1_555
C16 H15 1_555 1_555
C16 H16 1_555 1_555
C24 H25 1_555 1_555
C24 H26 1_555 1_555
C7 H29 1_555 1_555
C7 H30 1_555 1_555
N10 C10 1_555 1_555
O31 C11 1_555 1_555
O44 C11 1_555 1_555
C10 H5 1_555 1_555
C11 C10 1_555 1_555
C12 N10 1_555 1_555
C15 C10 1_555 1_555
O17 C15 1_555 1_555
H7 O17 1_555 1_555
C15 H17 1_555 1_555
C15 H18 1_555 1_555
N4 C10_2 1_555 1_555
O11 C11_2 1_555 1_555
O16 C11_2 1_555 1_555
C10_2 H5_2 1_555 1_555
C11_2 C10_2 1_555 1_555
C12_2 N4 1_555 1_555
C15_2 C10_2 1_555 1_555
O17_2 C15_2 1_555 1_555
H7_2 O17_2 1_555 1_555
Sr4 O16 1_555 1_555
Cu10 O11 1_555 1_555
Cu11 N4 1_555 1_555
O12 Cu11 1_555 1_555
O16 Cu11 1_555 1_555
C15_2 H17_2 1_555 1_555
C15_2 H18_2 1_555 1_555
Sr4 O1_2 1_555 1_555
Cu7 O1_2 1_555 1_555
Cu10 N2_2 1_555 1_555
N7 C5_2 1_555 1_555
N2_2 C2_2 1_555 1_555
O1_2 Cu10 1_555 1_555
O2_2 C3_2 1_555 1_555
O3_2 Cu10 1_555 1_555
O35 C4_2 1_555 1_555
O38 C1_2 1_555 1_555
O41 C1_2 1_555 1_555
O7_2 Sr4 1_555 1_555
C1_2 C6_2 1_555 1_555
C2_2 H1_2 1_555 1_555
C3_2 O7_2 1_555 1_555
C4_2 N2_2 1_555 1_555
C5_2 O3_2 1_555 1_555
C6_2 N7 1_555 1_555
H2_2 C6_2 1_555 1_555
C7_2 C2_2 1_555 1_555
O8_2 C7_2 1_555 1_555
H3_2 O8_2 1_555 1_555
C8_2 C6_2 1_555 1_555
O9_2 C8_2 1_555 1_555
H4_2 O9_2 1_555 1_555
O10_2 Cu10 1_555 1_555
N8 C13_2 1_555 1_555
O39 C9_2 1_555 1_555
O42 C9_2 1_555 1_555
C9_2 C14_2 1_555 1_555
C14_2 N8 1_555 1_555
H6_2 C14_2 1_555 1_555
C16_2 C14_2 1_555 1_555
O18_2 C16_2 1_555 1_555
H8_2 O18_2 1_555 1_555
N9 C21_2 1_555 1_555
O40 C17_2 1_555 1_555
O43 C17_2 1_555 1_555
C17_2 C22_2 1_555 1_555
C22_2 N9 1_555 1_555
H10_2 C22_2 1_555 1_555
C24_2 C22_2 1_555 1_555
O26_2 C24_2 1_555 1_555
H12_2 O26_2 1_555 1_555
Cu8 O27_2 1_555 1_555
Cu11 O27_2 1_555 1_555
O27_2 Sr4 1_555 1_555
O28_2 Cu11 1_555 1_555
Cu9 O29_2 1_555 1_555
Cu6 O2_2 1_555 1_555
O29_2 Sr4 1_555 1_555
O30_2 Cu6 1_555 1_555
N11 Cu6 1_555 1_555
O32 Cu11 1_555 1_555
O34 Cu6 1_555 1_555
O45 Sr4 1_555 1_555
Cu10 O7_2 1_555 1_555
C2_2 C3_2 1_555 1_555
C4_2 C5_2 1_555 1_555
Cu6 O29_2 1_555 1_555
Cu6 O45 1_555 1_555
C8_2 H13_2 1_555 1_555
C8_2 H14_2 1_555 1_555
C16_2 H15_2 1_555 1_555
C16_2 H16_2 1_555 1_555
C24_2 H25_2 1_555 1_555
C24_2 H26_2 1_555 1_555
C7_2 H29_2 1_555 1_555
C7_2 H30_2 1_555 1_555
N11 C18_2 1_555 1_555
O32 C19_2 1_555 1_555
O45 C19_2 1_555 1_555
C18_2 H9_2 1_555 1_555
C19_2 C18_2 1_555 1_555
C20_2 N11 1_555 1_555
C23_2 C18_2 1_555 1_555
O25_2 C23_2 1_555 1_555
H11_2 O25_2 1_555 1_555
C23_2 H21_2 1_555 1_555
C23_2 H22_2 1_555 1_555

#END
