
###############################################################################
#
# This file contains modified crystal structure data generated from the
# MOF subset of the Cambridge Structural Database (CSD) v543 
# hosted by the Cambridge Crystallographic Data Centre (CCDC).
#
# This work is licensed under the Creative Commons
# Attribution-NonCommercial-ShareAlike 4.0 International License.
# To view a copy of this license, visit
# http://creativecommons.org/licenses/by-nc-sa/4.0/
# or send a letter to
# Creative Commons, PO Box 1866, Mountain View, CA 94042, USA.
#
# CIF created using the CSD Python API on 29 September 2022
# The structure has been converted into the P1 space group
# The structure has a 3D framework
# The original CSD entry LIKWIO is in the hexagonal crystal system
# The original CSD entry LIKWIO is in a Sohncke space group
# The framework has been calculated to contain at least 10.0% void space
# The void calculation uses a probe of radius 1.32A, grid spacing 0.4
#
###############################################################################

data_LIKWIO
_chemical_formula_moiety         '(C60 H72 Cu12 N12 O52 Sr2)n'
_symmetry_cell_setting           triclinic
_symmetry_space_group_name_H-M   'P 1'
_symmetry_Int_Tables_number      1
_space_group_name_Hall           'P 1'
loop_
_symmetry_equiv_pos_site_id
_symmetry_equiv_pos_as_xyz
1 x,y,z
_cell_length_a                   17.9151(10)
_cell_length_b                   17.9151(10)
_cell_length_c                   12.7448(7)
_cell_angle_alpha                90
_cell_angle_beta                 90
_cell_angle_gamma                120
_cell_volume                     3542.44
loop_
_atom_site_label
_atom_site_type_symbol
_atom_site_fract_x
_atom_site_fract_y
_atom_site_fract_z
O14 O 0.5599(7) 0.2362(9) 0.5117(8)
O15 O 0.5772(7) 0.0249(10) 0.5015(8)
O16 O 0.4966(8) 0.2922(11) 0.4150(9)
N4 N 0.4879(8) 0.0902(11) 0.4181(9)
C14 C 0.4737(9) 0.0182(13) 0.3700(12)
C15 C 0.4520(11) 0.1428(16) 0.3849(15)
H14 H 0.4541 0.1486 0.3068
C16 C 0.5055(9) 0.2309(13) 0.4369(13)
C19 C 0.3566(10) 0.1076(16) 0.4270(19)
H19 H 0.3364 0.1469 0.4001
C20 C 0.3574(12) 0.1123(22) 0.5469(16)
H20 H 0.3852 0.1726 0.5691
H21 H 0.3893 0.0856 0.5753
H22 H 0.2980 0.0814 0.5732
O19 O 0.295(2) 0.021(3) 0.393(2)
H24 H 0.3007 0.0166 0.3280
Cu8 Cu 0.55935(11) 0.42459(12) 0.52131(10)
Cu10 Cu 0.57541(12) 0.13476(16) 0.52131(10)
Sr4 Sr 0.6667 0.3333 0.6493(3)
Cu1 Cu 0.44341(11) 0.57793(11) 0.27884(9)
Cu2 Cu 0.44065(11) 0.57541(12) 0.02131(10)
Sr1 Sr 0.3333 0.6667 0.1493(3)
O1 O 0.4660(3) 0.6398(3) 0.1507(10)
O2 O 0.3235(6) 0.5571(6) 0.2881(8)
O3 O 0.5521(7) 0.5743(7) 0.2968(9)
O4 O 0.6763(6) 0.4401(7) 0.5117(8)
O5 O 0.4477(7) 0.4228(7) 0.5015(8)
O6 O 0.7956(7) 0.5034(8) 0.4150(9)
N1 N 0.4048(8) 0.5011(9) 0.3998(10)
N2 N 0.6023(8) 0.5121(8) 0.4181(9)
C1 C 0.3119(10) 0.4586(11) 0.4244(14)
H1 H 0.2829 0.3969 0.4018
C2 C 0.2779(11) 0.5094(12) 0.3558(16)
O7 O 0.2011(7) 0.4914(7) 0.3806(9)
C3 C 0.4574(11) 0.4763(11) 0.4252(13)
C4 C 0.5445(9) 0.5263(9) 0.3700(12)
C5 C 0.6908(12) 0.5480(11) 0.3849(15)
H2 H 0.6945 0.5459 0.3068
C6 C 0.7254(9) 0.4945(9) 0.4369(13)
C7 C 0.2999(7) 0.4636(8) 0.5421(11)
H3 H 0.3216 0.4284 0.5780
C8 C 0.3479(10) 0.5535(10) 0.5875(13)
H4 H 0.4083 0.5699 0.5994
H5 H 0.3214 0.5548 0.6542
H6 H 0.3452 0.5941 0.5383
C9 C 0.7510(12) 0.6434(10) 0.4270(19)
H7 H 0.8105 0.6636 0.4001
C10 C 0.7549(18) 0.6426(12) 0.5469(16)
H8 H 0.7874 0.6148 0.5691
H9 H 0.6963 0.6107 0.5753
H10 H 0.7834 0.7020 0.5732
O8 O 0.2080(5) 0.4232(6) 0.5630(9)
H11 H 0.1906 0.4575 0.5469
O9 O 0.726(2) 0.705(2) 0.393(2)
H12 H 0.7159 0.6993 0.3280
O10 O 0.3824(8) 0.4388(7) 0.1605(18)
Cu3 Cu 0.42207(11) 0.86548(16) 0.27884(9)
Cu4 Cu 0.42459(12) 0.86524(16) 0.02131(10)
O11 O 0.3602(3) 0.8262(4) 0.1507(10)
O12 O 0.4429(6) 0.7664(8) 0.2881(8)
O13 O 0.4257(7) 0.9778(10) 0.2968(9)
N3 N 0.4989(9) 0.9037(12) 0.3998(10)
C11 C 0.5414(11) 0.8533(15) 0.4244(14)
H13 H 0.6031 0.8860 0.4018
C12 C 0.4906(12) 0.7685(16) 0.3558(16)
O17 O 0.5086(7) 0.7097(10) 0.3806(9)
C13 C 0.5237(11) 0.9811(16) 0.4252(13)
C17 C 0.5364(8) 0.8363(11) 0.5421(11)
H15 H 0.5716 0.8932 0.5780
C18 C 0.4465(10) 0.7944(14) 0.5875(13)
H16 H 0.4301 0.8384 0.5994
H17 H 0.4452 0.7666 0.6542
H18 H 0.4059 0.7511 0.5383
O18 O 0.5768(6) 0.7848(8) 0.5630(9)
H23 H 0.5425 0.7331 0.5469
O20 O 0.5612(7) 0.9436(11) 0.1605(18)
Cu5 Cu 0.13452(16) 0.55659(11) 0.27884(9)
Cu6 Cu 0.13476(16) 0.55935(11) 0.02131(10)
O21 O 0.1738(4) 0.5340(3) 0.1507(10)
O22 O 0.2336(8) 0.6765(6) 0.2881(8)
O23 O 0.0222(10) 0.4479(7) 0.2968(9)
N5 N 0.0963(12) 0.5952(8) 0.3998(10)
C21 C 0.1467(15) 0.6881(10) 0.4244(14)
H25 H 0.1140 0.7171 0.4018
C22 C 0.2315(16) 0.7221(11) 0.3558(16)
O27 O 0.2903(10) 0.7989(7) 0.3806(9)
C23 C 0.0189(16) 0.5426(11) 0.4252(13)
C27 C 0.1637(11) 0.7001(7) 0.5421(11)
H27 H 0.1068 0.6784 0.5780
C28 C 0.2056(14) 0.6521(10) 0.5875(13)
H28 H 0.1616 0.5917 0.5994
H29 H 0.2334 0.6786 0.6542
H30 H 0.2489 0.6548 0.5383
O28 O 0.2152(8) 0.7920(5) 0.5630(9)
H35 H 0.2669 0.8094 0.5469
O30 O 0.0564(11) 0.6176(8) 0.1605(18)
Cu12 Cu 0.86524(16) 0.44065(11) 0.52131(10)
O31 O 0.3237(6) 0.5599(7) 0.0117(8)
O32 O 0.4401(7) 0.7638(9) 0.0117(8)
O33 O 0.2362(9) 0.6763(6) 0.0117(8)
O34 O 0.5523(7) 0.5772(7) 0.0015(8)
O35 O 0.4228(7) 0.9751(10) 0.0015(8)
O36 O 0.0249(10) 0.4477(7) 0.0015(8)
O37 O 0.2044(7) 0.4966(8) 0.9150(9)
O38 O 0.5034(8) 0.7078(11) 0.9150(9)
O39 O 0.2922(11) 0.7956(7) 0.9150(9)
N7 N 0.3977(8) 0.4879(8) 0.9181(9)
N8 N 0.5121(8) 0.9098(11) 0.9181(9)
N9 N 0.0902(11) 0.6023(8) 0.9181(9)
O24 O 0.7638(9) 0.3237(6) 0.5117(8)
O25 O 0.9751(10) 0.5523(7) 0.5015(8)
O26 O 0.7078(11) 0.2044(7) 0.4150(9)
N6 N 0.9098(11) 0.3977(8) 0.4181(9)
C24 C 0.9818(13) 0.4555(9) 0.3700(12)
C25 C 0.8572(16) 0.3092(12) 0.3849(15)
H26 H 0.8514 0.3055 0.3068
C26 C 0.7691(13) 0.2746(9) 0.4369(13)
C29 C 0.8924(16) 0.2490(12) 0.4270(19)
H31 H 0.8531 0.1895 0.4001
C30 C 0.8877(22) 0.2451(18) 0.5469(16)
H32 H 0.8274 0.2126 0.5691
H33 H 0.9144 0.3037 0.5753
H34 H 0.9186 0.2166 0.5732
O29 O 0.979(3) 0.274(2) 0.393(2)
H36 H 0.9834 0.2841 0.3280
C30_2 C 0.1123(22) 0.7549(18) 0.0469(16)
H32_2 H 0.1726 0.7874 0.0691
H33_2 H 0.0856 0.6963 0.0753
H34_2 H 0.0814 0.7834 0.0732
C24_2 C 0.0182(13) 0.5445(9) 0.8700(12)
C25_2 C 0.1428(16) 0.6908(12) 0.8849(15)
H26_2 H 0.1486 0.6945 0.8068
C26_2 C 0.2309(13) 0.7254(9) 0.9369(13)
C29_2 C 0.1076(16) 0.7510(12) 0.9270(19)
H31_2 H 0.1469 0.8105 0.9001
O29_2 O 0.021(3) 0.726(2) 0.893(2)
H36_2 H 0.0166 0.7159 0.8280
C7_2 C 0.7001(7) 0.5364(8) 0.0421(11)
H3_2 H 0.6784 0.5716 0.0780
C8_2 C 0.6521(10) 0.4465(10) 0.0875(13)
H4_2 H 0.5917 0.4301 0.0994
H5_2 H 0.6786 0.4452 0.1542
H6_2 H 0.6548 0.4059 0.0383
C10_2 C 0.2451(18) 0.3574(12) 0.0469(16)
H8_2 H 0.2126 0.3852 0.0691
H9_2 H 0.3037 0.3893 0.0753
H10_2 H 0.2166 0.2980 0.0732
O8_2 O 0.7920(5) 0.5768(6) 0.0630(9)
H11_2 H 0.8094 0.5425 0.0469
C17_2 C 0.4636(8) 0.1637(11) 0.0421(11)
H15_2 H 0.4284 0.1068 0.0780
C18_2 C 0.5535(10) 0.2056(14) 0.0875(13)
H16_2 H 0.5699 0.1616 0.0994
H17_2 H 0.5548 0.2334 0.1542
H18_2 H 0.5941 0.2489 0.0383
O18_2 O 0.4232(6) 0.2152(8) 0.0630(9)
H23_2 H 0.4575 0.2669 0.0469
C27_2 C 0.8363(11) 0.2999(7) 0.0421(11)
H27_2 H 0.8932 0.3216 0.0780
C28_2 C 0.7944(14) 0.3479(10) 0.0875(13)
H28_2 H 0.8384 0.4083 0.0994
H29_2 H 0.7666 0.3214 0.1542
H30_2 H 0.7511 0.3452 0.0383
O28_2 O 0.7848(8) 0.2080(5) 0.0630(9)
H35_2 H 0.7331 0.1906 0.0469
Cu1_2 Cu 0.55659(11) 0.42207(11) 0.77884(9)
O1_2 O 0.5340(3) 0.3602(3) 0.6507(10)
O2_2 O 0.6765(6) 0.4429(6) 0.7881(8)
O3_2 O 0.4479(7) 0.4257(7) 0.7968(9)
N1_2 N 0.5952(8) 0.4989(9) 0.8998(10)
C1_2 C 0.6881(10) 0.5414(11) 0.9244(14)
H1_2 H 0.7171 0.6031 0.9018
C2_2 C 0.7221(11) 0.4906(12) 0.8558(16)
O7_2 O 0.7989(7) 0.5086(7) 0.8806(9)
C3_2 C 0.5426(11) 0.5237(11) 0.9252(13)
C4_2 C 0.4555(9) 0.4737(9) 0.8700(12)
C5_2 C 0.3092(12) 0.4520(11) 0.8849(15)
H2_2 H 0.3055 0.4541 0.8068
C6_2 C 0.2746(9) 0.5055(9) 0.9369(13)
C9_2 C 0.2490(12) 0.3566(10) 0.9270(19)
H7_2 H 0.1895 0.3364 0.9001
O9_2 O 0.274(2) 0.295(2) 0.893(2)
H12_2 H 0.2841 0.3007 0.8280
O10_2 O 0.6176(8) 0.5612(7) 0.6605(18)
Cu3_2 Cu 0.57793(11) 0.13452(16) 0.77884(9)
O11_2 O 0.6398(3) 0.1738(4) 0.6507(10)
O12_2 O 0.5571(6) 0.2336(8) 0.7881(8)
O13_2 O 0.5743(7) 0.0222(10) 0.7968(9)
N3_2 N 0.5011(9) 0.0963(12) 0.8998(10)
C11_2 C 0.4586(11) 0.1467(15) 0.9244(14)
H13_2 H 0.3969 0.1140 0.9018
C12_2 C 0.5094(12) 0.2315(16) 0.8558(16)
O17_2 O 0.4914(7) 0.2903(10) 0.8806(9)
C13_2 C 0.4763(11) 0.0189(16) 0.9252(13)
O20_2 O 0.4388(7) 0.0564(11) 0.6605(18)
Cu5_2 Cu 0.86548(16) 0.44341(11) 0.77884(9)
O21_2 O 0.8262(4) 0.4660(3) 0.6507(10)
O22_2 O 0.7664(8) 0.3235(6) 0.7881(8)
O23_2 O 0.9778(10) 0.5521(7) 0.7968(9)
N5_2 N 0.9037(12) 0.4048(8) 0.8998(10)
C21_2 C 0.8533(15) 0.3119(10) 0.9244(14)
H25_2 H 0.8860 0.2829 0.9018
C22_2 C 0.7685(16) 0.2779(11) 0.8558(16)
O27_2 O 0.7097(10) 0.2011(7) 0.8806(9)
C23_2 C 0.9811(16) 0.4574(11) 0.9252(13)
O30_2 O 0.9436(11) 0.3824(8) 0.6605(18)
C20_2 C 0.6426(12) 0.8877(22) 0.0469(16)
H20_2 H 0.6148 0.8274 0.0691
H21_2 H 0.6107 0.9144 0.0753
H22_2 H 0.7020 0.9186 0.0732
C14_2 C 0.5263(9) 0.9818(13) 0.8700(12)
C15_2 C 0.5480(11) 0.8572(16) 0.8849(15)
H14_2 H 0.5459 0.8514 0.8068
C16_2 C 0.4945(9) 0.7691(13) 0.9369(13)
C19_2 C 0.6434(10) 0.8924(16) 0.9270(19)
H19_2 H 0.6636 0.8531 0.9001
O19_2 O 0.705(2) 0.979(3) 0.893(2)
H24_2 H 0.6993 0.9834 0.8280
loop_
_geom_bond_atom_site_label_1
_geom_bond_atom_site_label_2
_geom_bond_site_symmetry_1
_geom_bond_site_symmetry_2
O14 C16 1_555 1_555
O16 C16 1_555 1_555
N4 C14 1_555 1_555
C15 N4 1_555 1_555
H14 C15 1_555 1_555
C16 C15 1_555 1_555
C19 C15 1_555 1_555
H19 C19 1_555 1_555
C20 C19 1_555 1_555
H20 C20 1_555 1_555
H21 C20 1_555 1_555
H22 C20 1_555 1_555
O19 C19 1_555 1_555
H24 O19 1_555 1_555
Cu8 O16 1_555 1_555
Cu10 O14 1_555 1_555
Sr4 O14 1_555 1_555
O15 Cu10 1_555 1_555
N4 Cu10 1_555 1_555
Cu1 O1 1_555 1_555
Cu2 O1 1_555 1_555
Sr1 O1 1_555 1_555
O2 Cu1 1_555 1_555
O3 Cu1 1_555 1_555
O4 C6 1_555 1_555
O5 C3 1_555 1_555
O6 C6 1_555 1_555
N1 Cu1 1_555 1_555
N2 C4 1_555 1_555
C1 N1 1_555 1_555
H1 C1 1_555 1_555
C2 O2 1_555 1_555
O7 C2 1_555 1_555
C3 N1 1_555 1_555
C4 O3 1_555 1_555
C5 N2 1_555 1_555
H2 C5 1_555 1_555
C6 C5 1_555 1_555
C7 C1 1_555 1_555
H3 C7 1_555 1_555
C8 C7 1_555 1_555
H4 C8 1_555 1_555
H5 C8 1_555 1_555
H6 C8 1_555 1_555
C9 C5 1_555 1_555
H7 C9 1_555 1_555
C10 C9 1_555 1_555
H8 C10 1_555 1_555
H9 C10 1_555 1_555
H10 C10 1_555 1_555
O8 C7 1_555 1_555
H11 O8 1_555 1_555
O9 C9 1_555 1_555
H12 O9 1_555 1_555
O10 Cu1 1_555 1_555
Cu3 O11 1_555 1_555
Cu4 O11 1_555 1_555
O11 Sr1 1_555 1_555
O12 Sr1 1_555 1_555
O13 Cu3 1_555 1_555
N3 Cu3 1_555 1_555
C11 N3 1_555 1_555
H13 C11 1_555 1_555
C12 O12 1_555 1_555
O17 Cu1 1_555 1_555
C13 N3 1_555 1_555
C17 C11 1_555 1_555
H15 C17 1_555 1_555
C18 C17 1_555 1_555
H16 C18 1_555 1_555
H17 C18 1_555 1_555
H18 C18 1_555 1_555
O18 C17 1_555 1_555
H23 O18 1_555 1_555
O20 Cu3 1_555 1_555
Cu5 O7 1_555 1_555
Cu6 O21 1_555 1_555
O21 Sr1 1_555 1_555
O22 Sr1 1_555 1_555
O23 Cu5 1_555 1_555
N5 Cu5 1_555 1_555
C21 N5 1_555 1_555
H25 C21 1_555 1_555
C22 O22 1_555 1_555
O27 Cu3 1_555 1_555
C23 N5 1_555 1_555
C27 C21 1_555 1_555
H27 C27 1_555 1_555
C28 C27 1_555 1_555
H28 C28 1_555 1_555
H29 C28 1_555 1_555
H30 C28 1_555 1_555
O28 C27 1_555 1_555
H35 O28 1_555 1_555
O30 Cu5 1_555 1_555
Cu8 O4 1_555 1_555
Cu12 O6 1_555 1_555
Sr4 O4 1_555 1_555
O31 Cu2 1_555 1_555
O32 Sr1 1_555 1_555
O33 Sr1 1_555 1_555
O34 Cu2 1_555 1_555
O35 Cu4 1_555 1_555
O36 Cu6 1_555 1_555
Cu2 O10 1_555 1_555
Sr1 O2 1_555 1_555
Sr1 O31 1_555 1_555
O5 Cu8 1_555 1_555
N2 Cu8 1_555 1_555
C1 C2 1_555 1_555
C3 C4 1_555 1_555
Cu3 O12 1_555 1_555
Cu4 O20 1_555 1_555
Cu4 O32 1_555 1_555
C11 C12 1_555 1_555
C12 O17 1_555 1_555
Cu5 O21 1_555 1_555
Cu5 O22 1_555 1_555
Cu6 O30 1_555 1_555
Cu6 O33 1_555 1_555
C21 C22 1_555 1_555
C22 O27 1_555 1_555
O24 C26 1_555 1_555
O26 C26 1_555 1_555
N6 C24 1_555 1_555
C25 N6 1_555 1_555
H26 C25 1_555 1_555
C26 C25 1_555 1_555
C29 C25 1_555 1_555
H31 C29 1_555 1_555
C30 C29 1_555 1_555
H32 C30 1_555 1_555
H33 C30 1_555 1_555
H34 C30 1_555 1_555
O29 C29 1_555 1_555
H36 O29 1_555 1_555
Cu10 O26 1_555 1_555
Cu12 O24 1_555 1_555
Sr4 O24 1_555 1_555
O25 Cu12 1_555 1_555
N6 Cu12 1_555 1_555
H32_2 C30_2 1_555 1_555
H33_2 C30_2 1_555 1_555
H34_2 C30_2 1_555 1_555
O39 C26_2 1_555 1_555
N9 C24_2 1_555 1_555
C25_2 N9 1_555 1_555
H26_2 C25_2 1_555 1_555
C26_2 C25_2 1_555 1_555
C29_2 C25_2 1_555 1_555
H31_2 C29_2 1_555 1_555
O29_2 C29_2 1_555 1_555
H36_2 O29_2 1_555 1_555
H3_2 C7_2 1_555 1_555
C8_2 C7_2 1_555 1_555
H4_2 C8_2 1_555 1_555
H5_2 C8_2 1_555 1_555
H6_2 C8_2 1_555 1_555
H8_2 C10_2 1_555 1_555
H9_2 C10_2 1_555 1_555
H10_2 C10_2 1_555 1_555
O8_2 C7_2 1_555 1_555
H11_2 O8_2 1_555 1_555
H15_2 C17_2 1_555 1_555
C18_2 C17_2 1_555 1_555
H16_2 C18_2 1_555 1_555
H17_2 C18_2 1_555 1_555
H18_2 C18_2 1_555 1_555
O18_2 C17_2 1_555 1_555
H23_2 O18_2 1_555 1_555
H27_2 C27_2 1_555 1_555
C28_2 C27_2 1_555 1_555
H28_2 C28_2 1_555 1_555
H29_2 C28_2 1_555 1_555
H30_2 C28_2 1_555 1_555
O28_2 C27_2 1_555 1_555
H35_2 O28_2 1_555 1_555
Cu1_2 O1_2 1_555 1_555
Cu8 O1_2 1_555 1_555
Sr4 O1_2 1_555 1_555
O2_2 Cu1_2 1_555 1_555
O3_2 Cu1_2 1_555 1_555
O37 C6_2 1_555 1_555
N1_2 Cu1_2 1_555 1_555
N7 C4_2 1_555 1_555
C1_2 N1_2 1_555 1_555
H1_2 C1_2 1_555 1_555
C2_2 O2_2 1_555 1_555
O7_2 C2_2 1_555 1_555
C3_2 N1_2 1_555 1_555
C4_2 O3_2 1_555 1_555
C5_2 N7 1_555 1_555
H2_2 C5_2 1_555 1_555
C6_2 C5_2 1_555 1_555
C9_2 C5_2 1_555 1_555
H7_2 C9_2 1_555 1_555
O9_2 C9_2 1_555 1_555
H12_2 O9_2 1_555 1_555
O10_2 Cu1_2 1_555 1_555
Cu3_2 O11_2 1_555 1_555
Cu10 O11_2 1_555 1_555
O11_2 Sr4 1_555 1_555
O12_2 Sr4 1_555 1_555
O13_2 Cu3_2 1_555 1_555
N3_2 Cu3_2 1_555 1_555
C11_2 N3_2 1_555 1_555
H13_2 C11_2 1_555 1_555
C12_2 O12_2 1_555 1_555
O17_2 Cu1_2 1_555 1_555
C13_2 N3_2 1_555 1_555
O20_2 Cu3_2 1_555 1_555
Cu5_2 O7_2 1_555 1_555
Cu12 O21_2 1_555 1_555
O21_2 Sr4 1_555 1_555
O22_2 Sr4 1_555 1_555
O23_2 Cu5_2 1_555 1_555
N5_2 Cu5_2 1_555 1_555
C21_2 N5_2 1_555 1_555
H25_2 C21_2 1_555 1_555
C22_2 O22_2 1_555 1_555
O27_2 Cu3_2 1_555 1_555
C23_2 N5_2 1_555 1_555
O30_2 Cu5_2 1_555 1_555
Cu8 O10_2 1_555 1_555
Sr4 O2_2 1_555 1_555
C1_2 C2_2 1_555 1_555
C3_2 C4_2 1_555 1_555
Cu3_2 O12_2 1_555 1_555
Cu10 O20_2 1_555 1_555
C11_2 C12_2 1_555 1_555
C12_2 O17_2 1_555 1_555
Cu5_2 O21_2 1_555 1_555
Cu5_2 O22_2 1_555 1_555
Cu12 O30_2 1_555 1_555
C21_2 C22_2 1_555 1_555
C22_2 O27_2 1_555 1_555
H20_2 C20_2 1_555 1_555
H21_2 C20_2 1_555 1_555
H22_2 C20_2 1_555 1_555
O38 C16_2 1_555 1_555
N8 C14_2 1_555 1_555
C15_2 N8 1_555 1_555
H14_2 C15_2 1_555 1_555
C16_2 C15_2 1_555 1_555
C19_2 C15_2 1_555 1_555
H19_2 C19_2 1_555 1_555
O19_2 C19_2 1_555 1_555
H24_2 O19_2 1_555 1_555

#END
