
###############################################################################
#
# This file contains modified crystal structure data generated from the
# MOF subset of the Cambridge Structural Database (CSD) v543 
# hosted by the Cambridge Crystallographic Data Centre (CCDC).
#
# This work is licensed under the Creative Commons
# Attribution-NonCommercial-ShareAlike 4.0 International License.
# To view a copy of this license, visit
# http://creativecommons.org/licenses/by-nc-sa/4.0/
# or send a letter to
# Creative Commons, PO Box 1866, Mountain View, CA 94042, USA.
#
# CIF created using the CSD Python API on 29 September 2022
# The structure has been converted into the P1 space group
# The structure has a 3D framework
# The original CSD entry LIKXEL is in the hexagonal crystal system
# The original CSD entry LIKXEL is in a Sohncke space group
# The framework has been calculated to contain at least 10.0% void space
# The void calculation uses a probe of radius 1.32A, grid spacing 0.4
# The framework is charged, counterions have been retained in the structure
#
###############################################################################

data_LIKXEL
_chemical_formula_moiety         '(C60 H72 Ce6 Cu9 N12 O56 Sr2 18+)n'
_symmetry_cell_setting           triclinic
_symmetry_space_group_name_H-M   'P 1'
_symmetry_Int_Tables_number      1
_space_group_name_Hall           'P 1'
loop_
_symmetry_equiv_pos_site_id
_symmetry_equiv_pos_as_xyz
1 x,y,z
_cell_length_a                   18.0450(10)
_cell_length_b                   18.0450(10)
_cell_length_c                   12.8410(8)
_cell_angle_alpha                90
_cell_angle_beta                 90
_cell_angle_gamma                120
_cell_volume                     3621.12
loop_
_atom_site_label
_atom_site_type_symbol
_atom_site_fract_x
_atom_site_fract_y
_atom_site_fract_z
Ce1 Ce 0.4169(15) 0.3047(14) 0.114(2)
Ce1_2 Ce 0.6953(14) 0.1122(21) 0.114(2)
Ce1_3 Ce 0.8878(21) 0.5831(15) 0.114(2)
Ce1_4 Ce 0.5831(15) 0.6953(14) 0.614(2)
Ce1_5 Ce 0.3047(14) 0.8878(21) 0.614(2)
Ce1_6 Ce 0.1122(21) 0.4169(15) 0.614(2)
N3 N 0.4935(8) 0.0911(11) 0.2746(9)
O12 O 0.5597(7) 0.2344(9) 0.3756(8)
O15 O 0.5814(6) 0.0250(8) 0.3583(7)
O17 O 0.4964(7) 0.2912(12) 0.2804(8)
C11 C 0.5069(9) 0.2307(13) 0.3045(11)
C12 C 0.4565(9) 0.1440(13) 0.2461(13)
H13 H 0.4590 0.1531 0.1691
C13 C 0.4771(9) 0.0184(13) 0.2346(11)
C19 C 0.3603(9) 0.1010(14) 0.2872(19)
H20 H 0.3388 0.1407 0.2685
O19 O 0.3626(16) 0.0983(24) 0.4021(18)
H21 H 0.3909 0.0752 0.4206
C20 C 0.2953(18) 0.0133(27) 0.247(6)
H24 H 0.2903 0.0162 0.1712
Sr4 Sr 0.6667 0.3333 0.5115(2)
Cu8 Cu 0.55557(10) 0.42058(10) 0.38196(8)
Cu10 Cu 0.57942(10) 0.13499(14) 0.38196(8)
Sr1 Sr 0.3333 0.6667 0.0115(2)
Cu1 Cu 0.44150(10) 0.57535(10) 0.13948(8)
N1 N 0.5976(8) 0.5065(8) 0.2746(9)
N2 N 0.4005(8) 0.4956(8) 0.2541(10)
O1 O 0.4662(3) 0.6401(3) 0.0116(9)
O2 O 0.6747(6) 0.4403(7) 0.3756(8)
O3 O 0.3239(6) 0.5583(6) 0.1497(7)
O4 O 0.2038(7) 0.4963(7) 0.2437(8)
O5 O 0.4436(6) 0.4186(6) 0.3583(7)
O6 O 0.5488(6) 0.5689(6) 0.1536(8)
O7 O 0.7948(10) 0.5036(7) 0.2804(8)
C1 C 0.7238(9) 0.4931(9) 0.3045(11)
C2 C 0.6875(10) 0.5435(9) 0.2461(13)
H1 H 0.6941 0.5410 0.1691
C3 C 0.5413(9) 0.5229(9) 0.2346(11)
C4 C 0.2767(8) 0.5084(9) 0.2232(11)
C5 C 0.3123(10) 0.4598(10) 0.2854(11)
H2 H 0.2801 0.3981 0.2647
C6 C 0.4543(9) 0.4740(10) 0.2896(11)
C7 C 0.2996(7) 0.4664(8) 0.4028(9)
H3 H 0.3196 0.4307 0.4395
O8 O 0.2094(6) 0.4301(7) 0.4259(8)
H4 H 0.1855 0.4411 0.3769
C8 C 0.3521(9) 0.5566(9) 0.4437(12)
H5 H 0.3418 0.5572 0.5186
H6 H 0.3356 0.5940 0.4075
H7 H 0.4130 0.5772 0.4317
C9 C 0.7407(11) 0.6397(9) 0.2872(19)
H8 H 0.8019 0.6612 0.2685
O9 O 0.7357(18) 0.6374(16) 0.4021(18)
H9 H 0.6843 0.6091 0.4206
C10 C 0.718(2) 0.7047(18) 0.247(6)
H10 H 0.7560 0.7604 0.2792
H11 H 0.6587 0.6863 0.2642
H12 H 0.7259 0.7097 0.1712
O10 O 0.3992(16) 0.4377(9) 0.007(2)
Cu3 Cu 0.42465(10) 0.86615(14) 0.13948(8)
N4 N 0.5044(8) 0.9049(11) 0.2541(10)
O11 O 0.3599(3) 0.8261(4) 0.0116(9)
O13 O 0.4417(6) 0.7656(8) 0.1497(7)
O14 O 0.5037(7) 0.7075(10) 0.2437(8)
O16 O 0.4311(6) 0.9799(8) 0.1536(8)
C14 C 0.4916(9) 0.7683(12) 0.2232(11)
C15 C 0.5402(10) 0.8525(14) 0.2854(11)
H14 H 0.6019 0.8820 0.2647
C16 C 0.5260(10) 0.9803(13) 0.2896(11)
C17 C 0.5336(8) 0.8332(11) 0.4028(9)
H15 H 0.5693 0.8889 0.4395
O18 O 0.5699(7) 0.7793(9) 0.4259(8)
H16 H 0.5589 0.7444 0.3769
C18 C 0.4434(9) 0.7955(13) 0.4437(12)
H17 H 0.4428 0.7846 0.5186
H18 H 0.4060 0.7416 0.4075
H19 H 0.4228 0.8358 0.4317
H22 H 0.2396 0.9956 0.2792
H23 H 0.3137 0.9724 0.2642
O20 O 0.5623(9) 0.9615(18) 0.007(2)
Cu5 Cu 0.13385(14) 0.55850(10) 0.13948(8)
N6 N 0.0951(11) 0.5995(8) 0.2541(10)
O21 O 0.1739(4) 0.5338(3) 0.0116(9)
O23 O 0.2344(8) 0.6761(6) 0.1497(7)
O24 O 0.2925(10) 0.7962(7) 0.2437(8)
O26 O 0.0201(8) 0.4512(6) 0.1536(8)
C24 C 0.2317(12) 0.7233(8) 0.2232(11)
C25 C 0.1475(14) 0.6877(10) 0.2854(11)
H26 H 0.1180 0.7199 0.2647
C26 C 0.0197(13) 0.5457(9) 0.2896(11)
C27 C 0.1668(11) 0.7004(7) 0.4028(9)
H27 H 0.1111 0.6804 0.4395
O28 O 0.2207(9) 0.7906(6) 0.4259(8)
H28 H 0.2556 0.8145 0.3769
C28 C 0.2045(13) 0.6479(9) 0.4437(12)
H29 H 0.2154 0.6582 0.5186
H30 H 0.2584 0.6644 0.4075
H31 H 0.1642 0.5870 0.4317
H34 H 0.0044 0.2440 0.2792
H35 H 0.0276 0.3413 0.2642
O30 O 0.0385(18) 0.6008(16) 0.007(2)
Cu12 Cu 0.86501(14) 0.44443(10) 0.38196(8)
Cu2 Cu 0.44443(10) 0.57942(10) 0.88196(8)
Cu4 Cu 0.42058(10) 0.86501(14) 0.88196(8)
Cu6 Cu 0.13499(14) 0.55557(10) 0.88196(8)
N7 N 0.4024(8) 0.4935(8) 0.7746(9)
N8 N 0.5065(8) 0.9089(11) 0.7746(9)
N9 N 0.0911(11) 0.5976(8) 0.7746(9)
O31 O 0.3253(6) 0.5597(7) 0.8756(8)
O32 O 0.4403(7) 0.7656(9) 0.8756(8)
O33 O 0.2344(9) 0.6747(6) 0.8756(8)
O34 O 0.5564(6) 0.5814(6) 0.8583(7)
O35 O 0.4186(6) 0.9750(8) 0.8583(7)
O36 O 0.0250(8) 0.4436(6) 0.8583(7)
O37 O 0.2052(10) 0.4964(7) 0.7804(8)
O38 O 0.5036(7) 0.7088(12) 0.7804(8)
O39 O 0.2912(12) 0.7948(10) 0.7804(8)
N5 N 0.9089(11) 0.4024(8) 0.2746(9)
O22 O 0.7656(9) 0.3253(6) 0.3756(8)
O25 O 0.9750(8) 0.5564(6) 0.3583(7)
O27 O 0.7088(12) 0.2052(10) 0.2804(8)
C21 C 0.7693(13) 0.2762(9) 0.3045(11)
C22 C 0.8560(13) 0.3125(10) 0.2461(13)
H25 H 0.8469 0.3059 0.1691
C23 C 0.9816(13) 0.4587(9) 0.2346(11)
C29 C 0.8990(14) 0.2593(11) 0.2872(19)
H32 H 0.8593 0.1981 0.2685
O29 O 0.9017(24) 0.2643(18) 0.4021(18)
H33 H 0.9248 0.3157 0.4206
C30 C 0.9867(27) 0.282(2) 0.247(6)
H36 H 0.9838 0.2741 0.1712
C21_2 C 0.2307(13) 0.7238(9) 0.8045(11)
C22_2 C 0.1440(13) 0.6875(10) 0.7461(13)
H25_2 H 0.1531 0.6941 0.6691
C23_2 C 0.0184(13) 0.5413(9) 0.7346(11)
C29_2 C 0.1010(14) 0.7407(11) 0.7872(19)
H32_2 H 0.1407 0.8019 0.7685
O29_2 O 0.0983(24) 0.7357(18) 0.9021(18)
H33_2 H 0.0752 0.6843 0.9206
C30_2 C 0.0133(27) 0.718(2) 0.747(6)
H36_2 H 0.0162 0.7259 0.6712
H5_2 H 0.6582 0.4428 0.0186
H17_2 H 0.5572 0.2154 0.0186
H29_2 H 0.7846 0.3418 0.0186
Cu1_2 Cu 0.55850(10) 0.42465(10) 0.63948(8)
N2_2 N 0.5995(8) 0.5044(8) 0.7541(10)
O1_2 O 0.5338(3) 0.3599(3) 0.5116(9)
O3_2 O 0.6761(6) 0.4417(6) 0.6497(7)
O4_2 O 0.7962(7) 0.5037(7) 0.7437(8)
O6_2 O 0.4512(6) 0.4311(6) 0.6536(8)
C1_2 C 0.2762(9) 0.5069(9) 0.8045(11)
C2_2 C 0.3125(10) 0.4565(9) 0.7461(13)
H1_2 H 0.3059 0.4590 0.6691
C3_2 C 0.4587(9) 0.4771(9) 0.7346(11)
C4_2 C 0.7233(8) 0.4916(9) 0.7232(11)
C5_2 C 0.6877(10) 0.5402(10) 0.7854(11)
H2_2 H 0.7199 0.6019 0.7647
C6_2 C 0.5457(9) 0.5260(10) 0.7896(11)
C7_2 C 0.7004(7) 0.5336(8) 0.9028(9)
H3_2 H 0.6804 0.5693 0.9395
O8_2 O 0.7906(6) 0.5699(7) 0.9259(8)
H4_2 H 0.8145 0.5589 0.8769
C8_2 C 0.6479(9) 0.4434(9) 0.9437(12)
H6_2 H 0.6644 0.4060 0.9075
H7_2 H 0.5870 0.4228 0.9317
C9_2 C 0.2593(11) 0.3603(9) 0.7872(19)
H8_2 H 0.1981 0.3388 0.7685
O9_2 O 0.2643(18) 0.3626(16) 0.9021(18)
H9_2 H 0.3157 0.3909 0.9206
C10_2 C 0.282(2) 0.2953(18) 0.747(6)
H10_2 H 0.2440 0.2396 0.7792
H11_2 H 0.3413 0.3137 0.7642
H12_2 H 0.2741 0.2903 0.6712
O10_2 O 0.6008(16) 0.5623(9) 0.507(2)
Cu3_2 Cu 0.57535(10) 0.13385(14) 0.63948(8)
N4_2 N 0.4956(8) 0.0951(11) 0.7541(10)
O11_2 O 0.6401(3) 0.1739(4) 0.5116(9)
O13_2 O 0.5583(6) 0.2344(8) 0.6497(7)
O14_2 O 0.4963(7) 0.2925(10) 0.7437(8)
O16_2 O 0.5689(6) 0.0201(8) 0.6536(8)
C14_2 C 0.5084(9) 0.2317(12) 0.7232(11)
C15_2 C 0.4598(10) 0.1475(14) 0.7854(11)
H14_2 H 0.3981 0.1180 0.7647
C16_2 C 0.4740(10) 0.0197(13) 0.7896(11)
C17_2 C 0.4664(8) 0.1668(11) 0.9028(9)
H15_2 H 0.4307 0.1111 0.9395
O18_2 O 0.4301(7) 0.2207(9) 0.9259(8)
H16_2 H 0.4411 0.2556 0.8769
C18_2 C 0.5566(9) 0.2045(13) 0.9437(12)
H18_2 H 0.5940 0.2584 0.9075
H19_2 H 0.5772 0.1642 0.9317
H22_2 H 0.7604 0.0044 0.7792
H23_2 H 0.6863 0.0276 0.7642
O20_2 O 0.4377(9) 0.0385(18) 0.507(2)
Cu5_2 Cu 0.86615(14) 0.44150(10) 0.63948(8)
N6_2 N 0.9049(11) 0.4005(8) 0.7541(10)
O21_2 O 0.8261(4) 0.4662(3) 0.5116(9)
O23_2 O 0.7656(8) 0.3239(6) 0.6497(7)
O24_2 O 0.7075(10) 0.2038(7) 0.7437(8)
O26_2 O 0.9799(8) 0.5488(6) 0.6536(8)
C24_2 C 0.7683(12) 0.2767(8) 0.7232(11)
C25_2 C 0.8525(14) 0.3123(10) 0.7854(11)
H26_2 H 0.8820 0.2801 0.7647
C26_2 C 0.9803(13) 0.4543(9) 0.7896(11)
C27_2 C 0.8332(11) 0.2996(7) 0.9028(9)
H27_2 H 0.8889 0.3196 0.9395
O28_2 O 0.7793(9) 0.2094(6) 0.9259(8)
H28_2 H 0.7444 0.1855 0.8769
C28_2 C 0.7955(13) 0.3521(9) 0.9437(12)
H30_2 H 0.7416 0.3356 0.9075
H31_2 H 0.8358 0.4130 0.9317
H34_2 H 0.9956 0.7560 0.7792
H35_2 H 0.9724 0.6587 0.7642
O30_2 O 0.9615(18) 0.3992(16) 0.507(2)
C11_2 C 0.4931(9) 0.7693(13) 0.8045(11)
C12_2 C 0.5435(9) 0.8560(13) 0.7461(13)
H13_2 H 0.5410 0.8469 0.6691
C13_2 C 0.5229(9) 0.9816(13) 0.7346(11)
C19_2 C 0.6397(9) 0.8990(14) 0.7872(19)
H20_2 H 0.6612 0.8593 0.7685
O19_2 O 0.6374(16) 0.9017(24) 0.9021(18)
H21_2 H 0.6091 0.9248 0.9206
C20_2 C 0.7047(18) 0.9867(27) 0.747(6)
H24_2 H 0.7097 0.9838 0.6712
loop_
_geom_bond_atom_site_label_1
_geom_bond_atom_site_label_2
_geom_bond_site_symmetry_1
_geom_bond_site_symmetry_2
N3 C12 1_555 1_555
O12 C11 1_555 1_555
O17 C11 1_555 1_555
C11 C12 1_555 1_555
C12 H13 1_555 1_555
C13 N3 1_555 1_555
C19 C12 1_555 1_555
H20 C19 1_555 1_555
O19 C19 1_555 1_555
H21 O19 1_555 1_555
C20 C19 1_555 1_555
H24 C20 1_555 1_555
Sr4 O12 1_555 1_555
Cu8 O17 1_555 1_555
Cu10 N3 1_555 1_555
O12 Cu10 1_555 1_555
O15 Cu10 1_555 1_555
Sr1 O1 1_555 1_555
Cu1 N2 1_555 1_555
N1 C2 1_555 1_555
N2 C5 1_555 1_555
O1 Cu1 1_555 1_555
O2 C1 1_555 1_555
O3 Sr1 1_555 1_555
O4 C4 1_555 1_555
O5 C6 1_555 1_555
O6 Cu1 1_555 1_555
O7 C1 1_555 1_555
C1 C2 1_555 1_555
C2 H1 1_555 1_555
C3 N1 1_555 1_555
C4 O3 1_555 1_555
C5 C4 1_555 1_555
H2 C5 1_555 1_555
C6 N2 1_555 1_555
C7 C5 1_555 1_555
H3 C7 1_555 1_555
O8 C7 1_555 1_555
H4 O8 1_555 1_555
C8 C7 1_555 1_555
H5 C8 1_555 1_555
H6 C8 1_555 1_555
H7 C8 1_555 1_555
C9 C2 1_555 1_555
H8 C9 1_555 1_555
O9 C9 1_555 1_555
H9 O9 1_555 1_555
C10 C9 1_555 1_555
H10 C10 1_555 1_555
H11 C10 1_555 1_555
H12 C10 1_555 1_555
O10 Cu1 1_555 1_555
Cu3 N4 1_555 1_555
N4 C15 1_555 1_555
O11 Sr1 1_555 1_555
O13 Sr1 1_555 1_555
O14 Cu1 1_555 1_555
O16 Cu3 1_555 1_555
C14 O13 1_555 1_555
C15 C14 1_555 1_555
H14 C15 1_555 1_555
C16 N4 1_555 1_555
C17 C15 1_555 1_555
H15 C17 1_555 1_555
O18 C17 1_555 1_555
H16 O18 1_555 1_555
C18 C17 1_555 1_555
H17 C18 1_555 1_555
H18 C18 1_555 1_555
H19 C18 1_555 1_555
O20 Cu3 1_555 1_555
Cu5 O4 1_555 1_555
N6 Cu5 1_555 1_555
O21 Sr1 1_555 1_555
O23 Sr1 1_555 1_555
O24 Cu3 1_555 1_555
O26 Cu5 1_555 1_555
C24 O23 1_555 1_555
C25 N6 1_555 1_555
H26 C25 1_555 1_555
C26 N6 1_555 1_555
C27 C25 1_555 1_555
H27 C27 1_555 1_555
O28 C27 1_555 1_555
H28 O28 1_555 1_555
C28 C27 1_555 1_555
H29 C28 1_555 1_555
H30 C28 1_555 1_555
H31 C28 1_555 1_555
O30 Cu5 1_555 1_555
Sr4 O2 1_555 1_555
Cu8 N1 1_555 1_555
Cu12 O7 1_555 1_555
Cu1 O3 1_555 1_555
O2 Cu8 1_555 1_555
O5 Cu8 1_555 1_555
O6 C3 1_555 1_555
C3 C6 1_555 1_555
Cu3 O11 1_555 1_555
Cu3 O13 1_555 1_555
O14 C14 1_555 1_555
Cu5 O21 1_555 1_555
Cu5 O23 1_555 1_555
O24 C24 1_555 1_555
C24 C25 1_555 1_555
N7 Cu2 1_555 1_555
N8 Cu4 1_555 1_555
N9 Cu6 1_555 1_555
O34 Cu2 1_555 1_555
O35 Cu4 1_555 1_555
O36 Cu6 1_555 1_555
O37 Cu6 1_555 1_555
O38 Cu2 1_555 1_555
O39 Cu4 1_555 1_555
Cu2 O31 1_555 1_555
Cu4 O32 1_555 1_555
Cu6 O33 1_555 1_555
N5 C22 1_555 1_555
O22 C21 1_555 1_555
O27 C21 1_555 1_555
C21 C22 1_555 1_555
C22 H25 1_555 1_555
C23 N5 1_555 1_555
C29 C22 1_555 1_555
H32 C29 1_555 1_555
O29 C29 1_555 1_555
H33 O29 1_555 1_555
C30 C29 1_555 1_555
H36 C30 1_555 1_555
Sr4 O22 1_555 1_555
Cu10 O27 1_555 1_555
Cu12 N5 1_555 1_555
O22 Cu12 1_555 1_555
O25 Cu12 1_555 1_555
N9 C22_2 1_555 1_555
O33 C21_2 1_555 1_555
O39 C21_2 1_555 1_555
C21_2 C22_2 1_555 1_555
C22_2 H25_2 1_555 1_555
C23_2 N9 1_555 1_555
C29_2 C22_2 1_555 1_555
H32_2 C29_2 1_555 1_555
O29_2 C29_2 1_555 1_555
H33_2 O29_2 1_555 1_555
C30_2 C29_2 1_555 1_555
H36_2 C30_2 1_555 1_555
Sr4 O1_2 1_555 1_555
Cu1_2 N2_2 1_555 1_555
Cu8 O1_2 1_555 1_555
N7 C2_2 1_555 1_555
N2_2 C5_2 1_555 1_555
O1_2 Cu1_2 1_555 1_555
O31 C1_2 1_555 1_555
O3_2 Sr4 1_555 1_555
O4_2 C4_2 1_555 1_555
O34 C6_2 1_555 1_555
O6_2 Cu1_2 1_555 1_555
O37 C1_2 1_555 1_555
C1_2 C2_2 1_555 1_555
C2_2 H1_2 1_555 1_555
C3_2 N7 1_555 1_555
C4_2 O3_2 1_555 1_555
C5_2 C4_2 1_555 1_555
H2_2 C5_2 1_555 1_555
C6_2 N2_2 1_555 1_555
C7_2 C5_2 1_555 1_555
H3_2 C7_2 1_555 1_555
O8_2 C7_2 1_555 1_555
H4_2 O8_2 1_555 1_555
C8_2 C7_2 1_555 1_555
H6_2 C8_2 1_555 1_555
H7_2 C8_2 1_555 1_555
C9_2 C2_2 1_555 1_555
H8_2 C9_2 1_555 1_555
O9_2 C9_2 1_555 1_555
H9_2 O9_2 1_555 1_555
C10_2 C9_2 1_555 1_555
H10_2 C10_2 1_555 1_555
H11_2 C10_2 1_555 1_555
H12_2 C10_2 1_555 1_555
O10_2 Cu1_2 1_555 1_555
Cu3_2 N4_2 1_555 1_555
Cu10 O11_2 1_555 1_555
N4_2 C15_2 1_555 1_555
O11_2 Sr4 1_555 1_555
O13_2 Sr4 1_555 1_555
O14_2 Cu1_2 1_555 1_555
O16_2 Cu3_2 1_555 1_555
C14_2 O13_2 1_555 1_555
C15_2 C14_2 1_555 1_555
H14_2 C15_2 1_555 1_555
C16_2 N4_2 1_555 1_555
C17_2 C15_2 1_555 1_555
H15_2 C17_2 1_555 1_555
O18_2 C17_2 1_555 1_555
H16_2 O18_2 1_555 1_555
C18_2 C17_2 1_555 1_555
H18_2 C18_2 1_555 1_555
H19_2 C18_2 1_555 1_555
O20_2 Cu3_2 1_555 1_555
Cu5_2 O4_2 1_555 1_555
Cu12 O21_2 1_555 1_555
N6_2 Cu5_2 1_555 1_555
O21_2 Sr4 1_555 1_555
O23_2 Sr4 1_555 1_555
O24_2 Cu3_2 1_555 1_555
O26_2 Cu5_2 1_555 1_555
C24_2 O23_2 1_555 1_555
C25_2 N6_2 1_555 1_555
H26_2 C25_2 1_555 1_555
C26_2 N6_2 1_555 1_555
C27_2 C25_2 1_555 1_555
H27_2 C27_2 1_555 1_555
O28_2 C27_2 1_555 1_555
H28_2 O28_2 1_555 1_555
C28_2 C27_2 1_555 1_555
H30_2 C28_2 1_555 1_555
H31_2 C28_2 1_555 1_555
O30_2 Cu5_2 1_555 1_555
Cu1_2 O3_2 1_555 1_555
Cu8 O10_2 1_555 1_555
O6_2 C3_2 1_555 1_555
C3_2 C6_2 1_555 1_555
Cu3_2 O11_2 1_555 1_555
Cu3_2 O13_2 1_555 1_555
Cu10 O20_2 1_555 1_555
O14_2 C14_2 1_555 1_555
Cu5_2 O21_2 1_555 1_555
Cu5_2 O23_2 1_555 1_555
Cu12 O30_2 1_555 1_555
O24_2 C24_2 1_555 1_555
C24_2 C25_2 1_555 1_555
N8 C12_2 1_555 1_555
O32 C11_2 1_555 1_555
O38 C11_2 1_555 1_555
C11_2 C12_2 1_555 1_555
C12_2 H13_2 1_555 1_555
C13_2 N8 1_555 1_555
C19_2 C12_2 1_555 1_555
H20_2 C19_2 1_555 1_555
O19_2 C19_2 1_555 1_555
H21_2 O19_2 1_555 1_555
C20_2 C19_2 1_555 1_555
H24_2 C20_2 1_555 1_555

#END
