
###############################################################################
#
# This file contains modified crystal structure data generated from the
# MOF subset of the Cambridge Structural Database (CSD) v543 
# hosted by the Cambridge Crystallographic Data Centre (CCDC).
#
# This work is licensed under the Creative Commons
# Attribution-NonCommercial-ShareAlike 4.0 International License.
# To view a copy of this license, visit
# http://creativecommons.org/licenses/by-nc-sa/4.0/
# or send a letter to
# Creative Commons, PO Box 1866, Mountain View, CA 94042, USA.
#
# CIF created using the CSD Python API on 29 September 2022
# The structure has been converted into the P1 space group
# The structure has a 3D framework
# The original CSD entry LIKXOV is in the hexagonal crystal system
# The original CSD entry LIKXOV is in a Sohncke space group
# The framework has been calculated to contain at least 10.0% void space
# The void calculation uses a probe of radius 1.32A, grid spacing 0.4
#
###############################################################################

data_LIKXOV
_chemical_formula_moiety         '(C48 H48 Cu9 N12 O56 Sr2)n'
_symmetry_cell_setting           triclinic
_symmetry_space_group_name_H-M   'P 1'
_symmetry_Int_Tables_number      1
_space_group_name_Hall           'P 1'
loop_
_symmetry_equiv_pos_site_id
_symmetry_equiv_pos_as_xyz
1 x,y,z
_cell_length_a                   17.90120(10)
_cell_length_b                   17.90120(10)
_cell_length_c                   12.99000(10)
_cell_angle_alpha                90
_cell_angle_beta                 90
_cell_angle_gamma                120
_cell_volume                     3604.99
loop_
_atom_site_label
_atom_site_type_symbol
_atom_site_fract_x
_atom_site_fract_y
_atom_site_fract_z
O25 O 0.0183(7) 0.4458(5) 0.5719(5)
O26 O 0.2349(6) 0.6748(4) 0.5645(5)
O27 O 0.2903(9) 0.7964(7) 0.6550(7)
N6 N 0.0981(8) 0.5917(5) 0.6731(7)
C18 C 0.0218(8) 0.5398(6) 0.7066(8)
C21 C 0.2325(9) 0.7208(6) 0.6409(8)
C22 C 0.1565(11) 0.6786(7) 0.7117(9)
H18 H 0.1264 0.7129 0.7148
C24 C 0.1928(18) 0.6739(10) 0.8244(10)
H22 H 0.2315 0.7332 0.8501
H23 H 0.1440 0.6449 0.8731
O29 O 0.2344(26) 0.633(2) 0.821(3)
H24 H 0.2874 0.6680 0.8207
Sr4 Sr 0.3333 0.6667 0.42617(13)
Cu10 Cu 0.41960(6) 0.86523(8) 0.55567(6)
Cu12 Cu 0.13477(8) 0.55437(6) 0.55567(6)
Cu2 Cu 0.55437(6) 0.41960(6) 0.05567(6)
Cu4 Cu 0.58040(6) 0.13477(8) 0.05567(6)
Cu6 Cu 0.86523(8) 0.44563(6) 0.05567(6)
O31 O 0.4458(5) 0.4275(5) 0.0719(5)
O32 O 0.5725(5) 0.0183(7) 0.0719(5)
O33 O 0.9817(7) 0.5542(5) 0.0719(5)
O34 O 0.6748(4) 0.4399(4) 0.0645(5)
O35 O 0.5601(4) 0.2349(6) 0.0645(5)
O36 O 0.7651(6) 0.3252(4) 0.0645(5)
O37 O 0.7964(7) 0.5061(5) 0.1550(7)
O38 O 0.4939(5) 0.2903(9) 0.1550(7)
O39 O 0.7097(9) 0.2036(7) 0.1550(7)
N7 N 0.5917(5) 0.4936(6) 0.1731(7)
N8 N 0.5064(6) 0.0981(8) 0.1731(7)
N9 N 0.9019(8) 0.4083(5) 0.1731(7)
Sr1 Sr 0.6667 0.3333 0.92617(13)
Cu1 Cu 0.55922(6) 0.42526(7) 0.79943(6)
O1 O 0.5343(2) 0.3618(2) 0.9267(6)
O2 O 0.6792(4) 0.4429(4) 0.7894(5)
O3 O 0.7984(8) 0.5025(6) 0.6956(7)
O4 O 0.4512(5) 0.4321(5) 0.7825(6)
O5 O 0.5542(5) 0.5725(5) 0.5719(5)
O6 O 0.3252(4) 0.5601(4) 0.5645(5)
O7 O 0.2036(7) 0.4939(5) 0.6550(7)
N1 N 0.6000(6) 0.5026(6) 0.6834(7)
N2 N 0.4083(5) 0.5064(6) 0.6731(7)
C1 C 0.5453(6) 0.5236(6) 0.6465(7)
C2 C 0.4602(6) 0.4820(6) 0.7066(8)
C3 C 0.7234(6) 0.4876(6) 0.7169(9)
C4 C 0.6877(8) 0.5348(9) 0.6484(12)
H1 H 0.6885 0.5208 0.5740
C5 C 0.2792(6) 0.5117(7) 0.6409(8)
C6 C 0.3214(7) 0.4779(9) 0.7117(9)
H2 H 0.2871 0.4135 0.7148
C7 C 0.7461(8) 0.6364(9) 0.6678(18)
H3 H 0.8057 0.6548 0.6452
H4 H 0.7242 0.6665 0.6240
O8 O 0.7492(10) 0.6635(9) 0.7710(17)
H5 H 0.7741 0.6439 0.8078
C8 C 0.3261(10) 0.5189(15) 0.8244(10)
H6 H 0.2668 0.4983 0.8501
H7 H 0.3551 0.4991 0.8731
O9 O 0.367(2) 0.6014(17) 0.821(3)
H8 H 0.3320 0.6194 0.8207
O10 O 0.6188(9) 0.5652(9) 0.9319(16)
Cu3 Cu 0.57474(7) 0.13396(9) 0.79943(6)
O11 O 0.6382(2) 0.1725(3) 0.9267(6)
O12 O 0.5571(4) 0.2363(6) 0.7894(5)
O13 O 0.4975(6) 0.2959(10) 0.6956(7)
O14 O 0.5679(5) 0.0191(7) 0.7825(6)
N3 N 0.4974(6) 0.0974(8) 0.6834(7)
C9 C 0.4764(6) 0.0217(8) 0.6465(7)
C11 C 0.5124(6) 0.2358(8) 0.7169(9)
C12 C 0.4652(9) 0.1529(12) 0.6484(12)
H9 H 0.4792 0.1677 0.5740
C15 C 0.3636(9) 0.1097(12) 0.6678(18)
H11 H 0.3452 0.1509 0.6452
H12 H 0.3335 0.0577 0.6240
O18 O 0.3365(9) 0.0857(13) 0.7710(17)
H13 H 0.3561 0.1302 0.8078
O20 O 0.4348(9) 0.0536(13) 0.9319(16)
Cu5 Cu 0.86604(9) 0.44078(6) 0.79943(6)
O21 O 0.8275(3) 0.4657(2) 0.9267(6)
O22 O 0.7637(6) 0.3208(4) 0.7894(5)
O23 O 0.7041(10) 0.2016(8) 0.6956(7)
O24 O 0.9809(7) 0.5488(5) 0.7825(6)
N5 N 0.9026(8) 0.4000(6) 0.6834(7)
C17 C 0.9783(8) 0.4547(6) 0.6465(7)
C19 C 0.7642(8) 0.2766(6) 0.7169(9)
C20 C 0.8471(12) 0.3123(8) 0.6484(12)
H17 H 0.8323 0.3115 0.5740
C23 C 0.8903(12) 0.2539(8) 0.6678(18)
H19 H 0.8491 0.1943 0.6452
H20 H 0.9423 0.2758 0.6240
O28 O 0.9143(13) 0.2508(10) 0.7710(17)
H21 H 0.8698 0.2259 0.8078
O30 O 0.9464(13) 0.3812(9) 0.9319(16)
Cu8 Cu 0.44563(6) 0.58040(6) 0.55567(6)
O15 O 0.4275(5) 0.9817(7) 0.5719(5)
O16 O 0.4399(4) 0.7651(6) 0.5645(5)
O17 O 0.5061(5) 0.7097(9) 0.6550(7)
N4 N 0.4936(6) 0.9019(8) 0.6731(7)
C10 C 0.5180(6) 0.9782(8) 0.7066(8)
C13 C 0.4883(7) 0.7675(9) 0.6409(8)
C14 C 0.5221(9) 0.8435(11) 0.7117(9)
H10 H 0.5865 0.8736 0.7148
C16 C 0.4811(15) 0.8072(18) 0.8244(10)
H14 H 0.5017 0.7685 0.8501
H15 H 0.5009 0.8560 0.8731
O19 O 0.3986(17) 0.7656(26) 0.821(3)
H16 H 0.3806 0.7126 0.8207
C10_2 C 0.4820(6) 0.0218(8) 0.2066(8)
C13_2 C 0.5117(7) 0.2325(9) 0.1409(8)
C14_2 C 0.4779(9) 0.1565(11) 0.2117(9)
H10_2 H 0.4135 0.1264 0.2148
C16_2 C 0.5189(15) 0.1928(18) 0.3244(10)
H14_2 H 0.4983 0.2315 0.3501
H15_2 H 0.4991 0.1440 0.3731
O19_2 O 0.6014(17) 0.2344(26) 0.321(3)
H16_2 H 0.6194 0.2874 0.3207
Cu1_2 Cu 0.44078(6) 0.57474(7) 0.29943(6)
O1_2 O 0.4657(2) 0.6382(2) 0.4267(6)
O2_2 O 0.3208(4) 0.5571(4) 0.2894(5)
O3_2 O 0.2016(8) 0.4975(6) 0.1956(7)
O4_2 O 0.5488(5) 0.5679(5) 0.2825(6)
N1_2 N 0.4000(6) 0.4974(6) 0.1834(7)
C1_2 C 0.4547(6) 0.4764(6) 0.1465(7)
C2_2 C 0.5398(6) 0.5180(6) 0.2066(8)
C3_2 C 0.2766(6) 0.5124(6) 0.2169(9)
C4_2 C 0.3123(8) 0.4652(9) 0.1484(12)
H1_2 H 0.3115 0.4792 0.0740
C5_2 C 0.7208(6) 0.4883(7) 0.1409(8)
C6_2 C 0.6786(7) 0.5221(9) 0.2117(9)
H2_2 H 0.7129 0.5865 0.2148
C7_2 C 0.2539(8) 0.3636(9) 0.1678(18)
H3_2 H 0.1943 0.3452 0.1452
H4_2 H 0.2758 0.3335 0.1240
O8_2 O 0.2508(10) 0.3365(9) 0.2710(17)
H5_2 H 0.2259 0.3561 0.3078
C8_2 C 0.6739(10) 0.4811(15) 0.3244(10)
H6_2 H 0.7332 0.5017 0.3501
H7_2 H 0.6449 0.5009 0.3731
O9_2 O 0.633(2) 0.3986(17) 0.321(3)
H8_2 H 0.6680 0.3806 0.3207
O10_2 O 0.3812(9) 0.4348(9) 0.4319(16)
Cu3_2 Cu 0.42526(7) 0.86604(9) 0.29943(6)
O11_2 O 0.3618(2) 0.8275(3) 0.4267(6)
O12_2 O 0.4429(4) 0.7637(6) 0.2894(5)
O13_2 O 0.5025(6) 0.7041(10) 0.1956(7)
O14_2 O 0.4321(5) 0.9809(7) 0.2825(6)
N3_2 N 0.5026(6) 0.9026(8) 0.1834(7)
C9_2 C 0.5236(6) 0.9783(8) 0.1465(7)
C11_2 C 0.4876(6) 0.7642(8) 0.2169(9)
C12_2 C 0.5348(9) 0.8471(12) 0.1484(12)
H9_2 H 0.5208 0.8323 0.0740
C15_2 C 0.6364(9) 0.8903(12) 0.1678(18)
H11_2 H 0.6548 0.8491 0.1452
H12_2 H 0.6665 0.9423 0.1240
O18_2 O 0.6635(9) 0.9143(13) 0.2710(17)
H13_2 H 0.6439 0.8698 0.3078
O20_2 O 0.5652(9) 0.9464(13) 0.4319(16)
Cu5_2 Cu 0.13396(9) 0.55922(6) 0.29943(6)
O21_2 O 0.1725(3) 0.5343(2) 0.4267(6)
O22_2 O 0.2363(6) 0.6792(4) 0.2894(5)
O23_2 O 0.2959(10) 0.7984(8) 0.1956(7)
O24_2 O 0.0191(7) 0.4512(5) 0.2825(6)
N5_2 N 0.0974(8) 0.6000(6) 0.1834(7)
C17_2 C 0.0217(8) 0.5453(6) 0.1465(7)
C19_2 C 0.2358(8) 0.7234(6) 0.2169(9)
C20_2 C 0.1529(12) 0.6877(8) 0.1484(12)
H17_2 H 0.1677 0.6885 0.0740
C23_2 C 0.1097(12) 0.7461(8) 0.1678(18)
H19_2 H 0.1509 0.8057 0.1452
H20_2 H 0.0577 0.7242 0.1240
O28_2 O 0.0857(13) 0.7492(10) 0.2710(17)
H21_2 H 0.1302 0.7741 0.3078
O30_2 O 0.0536(13) 0.6188(9) 0.4319(16)
C18_2 C 0.9782(8) 0.4602(6) 0.2066(8)
C21_2 C 0.7675(9) 0.2792(6) 0.1409(8)
C22_2 C 0.8435(11) 0.3214(7) 0.2117(9)
H18_2 H 0.8736 0.2871 0.2148
C24_2 C 0.8072(18) 0.3261(10) 0.3244(10)
H22_2 H 0.7685 0.2668 0.3501
H23_2 H 0.8560 0.3551 0.3731
O29_2 O 0.7656(26) 0.367(2) 0.321(3)
H24_2 H 0.7126 0.3320 0.3207
loop_
_geom_bond_atom_site_label_1
_geom_bond_atom_site_label_2
_geom_bond_site_symmetry_1
_geom_bond_site_symmetry_2
O26 C21 1_555 1_555
O27 C21 1_555 1_555
N6 C18 1_555 1_555
C21 C22 1_555 1_555
C22 N6 1_555 1_555
H18 C22 1_555 1_555
C24 C22 1_555 1_555
H22 C24 1_555 1_555
H23 C24 1_555 1_555
O29 C24 1_555 1_555
H24 O29 1_555 1_555
Sr4 O26 1_555 1_555
Cu10 O27 1_555 1_555
Cu12 O25 1_555 1_555
O26 Cu12 1_555 1_555
N6 Cu12 1_555 1_555
O31 Cu2 1_555 1_555
O32 Cu4 1_555 1_555
O33 Cu6 1_555 1_555
O37 Cu6 1_555 1_555
O38 Cu2 1_555 1_555
O39 Cu4 1_555 1_555
N7 Cu2 1_555 1_555
N8 Cu4 1_555 1_555
N9 Cu6 1_555 1_555
Cu2 O34 1_555 1_555
Cu4 O35 1_555 1_555
Cu6 O36 1_555 1_555
Sr1 O1 1_555 1_555
Cu1 O1 1_555 1_555
O2 Sr1 1_555 1_555
O3 C3 1_555 1_555
O4 Cu1 1_555 1_555
O5 C1 1_555 1_555
O6 C5 1_555 1_555
O7 C5 1_555 1_555
N1 Cu1 1_555 1_555
N2 C2 1_555 1_555
C1 N1 1_555 1_555
C2 O4 1_555 1_555
C3 O2 1_555 1_555
C4 N1 1_555 1_555
H1 C4 1_555 1_555
C5 C6 1_555 1_555
C6 N2 1_555 1_555
H2 C6 1_555 1_555
C7 C4 1_555 1_555
H3 C7 1_555 1_555
H4 C7 1_555 1_555
O8 C7 1_555 1_555
H5 O8 1_555 1_555
C8 C6 1_555 1_555
H6 C8 1_555 1_555
H7 C8 1_555 1_555
O9 C8 1_555 1_555
H8 O9 1_555 1_555
O10 Cu1 1_555 1_555
Cu3 O11 1_555 1_555
O11 Sr1 1_555 1_555
O12 Sr1 1_555 1_555
O13 Cu1 1_555 1_555
O14 Cu3 1_555 1_555
N3 Cu3 1_555 1_555
C9 N3 1_555 1_555
C11 O12 1_555 1_555
C12 N3 1_555 1_555
H9 C12 1_555 1_555
C15 C12 1_555 1_555
H11 C15 1_555 1_555
H12 C15 1_555 1_555
O18 C15 1_555 1_555
H13 O18 1_555 1_555
O20 Cu3 1_555 1_555
Cu5 O3 1_555 1_555
O21 Sr1 1_555 1_555
O22 Sr1 1_555 1_555
O23 Cu3 1_555 1_555
O24 Cu5 1_555 1_555
N5 Cu5 1_555 1_555
C17 N5 1_555 1_555
C19 O22 1_555 1_555
C20 N5 1_555 1_555
H17 C20 1_555 1_555
C23 C20 1_555 1_555
H19 C23 1_555 1_555
H20 C23 1_555 1_555
O28 C23 1_555 1_555
H21 O28 1_555 1_555
O30 Cu5 1_555 1_555
Sr4 O6 1_555 1_555
Cu8 O5 1_555 1_555
Cu12 O7 1_555 1_555
Cu1 O2 1_555 1_555
O6 Cu8 1_555 1_555
N2 Cu8 1_555 1_555
C1 C2 1_555 1_555
C3 C4 1_555 1_555
Cu3 O12 1_555 1_555
O13 C11 1_555 1_555
C11 C12 1_555 1_555
Cu5 O21 1_555 1_555
Cu5 O22 1_555 1_555
O23 C19 1_555 1_555
C19 C20 1_555 1_555
O16 C13 1_555 1_555
O17 C13 1_555 1_555
N4 C10 1_555 1_555
C13 C14 1_555 1_555
C14 N4 1_555 1_555
H10 C14 1_555 1_555
C16 C14 1_555 1_555
H14 C16 1_555 1_555
H15 C16 1_555 1_555
O19 C16 1_555 1_555
H16 O19 1_555 1_555
Sr4 O16 1_555 1_555
Cu8 O17 1_555 1_555
Cu10 O15 1_555 1_555
O16 Cu10 1_555 1_555
N4 Cu10 1_555 1_555
O35 C13_2 1_555 1_555
O38 C13_2 1_555 1_555
N8 C10_2 1_555 1_555
C13_2 C14_2 1_555 1_555
C14_2 N8 1_555 1_555
H10_2 C14_2 1_555 1_555
C16_2 C14_2 1_555 1_555
H14_2 C16_2 1_555 1_555
H15_2 C16_2 1_555 1_555
O19_2 C16_2 1_555 1_555
H16_2 O19_2 1_555 1_555
Sr4 O1_2 1_555 1_555
Cu1_2 O1_2 1_555 1_555
Cu8 O1_2 1_555 1_555
O2_2 Sr4 1_555 1_555
O3_2 C3_2 1_555 1_555
O4_2 Cu1_2 1_555 1_555
O31 C1_2 1_555 1_555
O34 C5_2 1_555 1_555
O37 C5_2 1_555 1_555
N1_2 Cu1_2 1_555 1_555
N7 C2_2 1_555 1_555
C1_2 N1_2 1_555 1_555
C2_2 O4_2 1_555 1_555
C3_2 O2_2 1_555 1_555
C4_2 N1_2 1_555 1_555
H1_2 C4_2 1_555 1_555
C5_2 C6_2 1_555 1_555
C6_2 N7 1_555 1_555
H2_2 C6_2 1_555 1_555
C7_2 C4_2 1_555 1_555
H3_2 C7_2 1_555 1_555
H4_2 C7_2 1_555 1_555
O8_2 C7_2 1_555 1_555
H5_2 O8_2 1_555 1_555
C8_2 C6_2 1_555 1_555
H6_2 C8_2 1_555 1_555
H7_2 C8_2 1_555 1_555
O9_2 C8_2 1_555 1_555
H8_2 O9_2 1_555 1_555
O10_2 Cu1_2 1_555 1_555
Cu3_2 O11_2 1_555 1_555
Cu10 O11_2 1_555 1_555
O11_2 Sr4 1_555 1_555
O12_2 Sr4 1_555 1_555
O13_2 Cu1_2 1_555 1_555
O14_2 Cu3_2 1_555 1_555
N3_2 Cu3_2 1_555 1_555
C9_2 N3_2 1_555 1_555
C11_2 O12_2 1_555 1_555
C12_2 N3_2 1_555 1_555
H9_2 C12_2 1_555 1_555
C15_2 C12_2 1_555 1_555
H11_2 C15_2 1_555 1_555
H12_2 C15_2 1_555 1_555
O18_2 C15_2 1_555 1_555
H13_2 O18_2 1_555 1_555
O20_2 Cu3_2 1_555 1_555
Cu5_2 O3_2 1_555 1_555
Cu12 O21_2 1_555 1_555
O21_2 Sr4 1_555 1_555
O22_2 Sr4 1_555 1_555
O23_2 Cu3_2 1_555 1_555
O24_2 Cu5_2 1_555 1_555
N5_2 Cu5_2 1_555 1_555
C17_2 N5_2 1_555 1_555
C19_2 O22_2 1_555 1_555
C20_2 N5_2 1_555 1_555
H17_2 C20_2 1_555 1_555
C23_2 C20_2 1_555 1_555
H19_2 C23_2 1_555 1_555
H20_2 C23_2 1_555 1_555
O28_2 C23_2 1_555 1_555
H21_2 O28_2 1_555 1_555
O30_2 Cu5_2 1_555 1_555
Cu1_2 O2_2 1_555 1_555
Cu8 O10_2 1_555 1_555
C1_2 C2_2 1_555 1_555
C3_2 C4_2 1_555 1_555
Cu3_2 O12_2 1_555 1_555
Cu10 O20_2 1_555 1_555
O13_2 C11_2 1_555 1_555
C11_2 C12_2 1_555 1_555
Cu5_2 O21_2 1_555 1_555
Cu5_2 O22_2 1_555 1_555
Cu12 O30_2 1_555 1_555
O23_2 C19_2 1_555 1_555
C19_2 C20_2 1_555 1_555
O36 C21_2 1_555 1_555
O39 C21_2 1_555 1_555
N9 C18_2 1_555 1_555
C21_2 C22_2 1_555 1_555
C22_2 N9 1_555 1_555
H18_2 C22_2 1_555 1_555
C24_2 C22_2 1_555 1_555
H22_2 C24_2 1_555 1_555
H23_2 C24_2 1_555 1_555
O29_2 C24_2 1_555 1_555
H24_2 O29_2 1_555 1_555

#END
