
###############################################################################
#
# This file contains modified crystal structure data generated from the
# MOF subset of the Cambridge Structural Database (CSD) v543 
# hosted by the Cambridge Crystallographic Data Centre (CCDC).
#
# This work is licensed under the Creative Commons
# Attribution-NonCommercial-ShareAlike 4.0 International License.
# To view a copy of this license, visit
# http://creativecommons.org/licenses/by-nc-sa/4.0/
# or send a letter to
# Creative Commons, PO Box 1866, Mountain View, CA 94042, USA.
#
# CIF created using the CSD Python API on 29 September 2022
# The structure has been converted into the P1 space group
# The structure has a 3D framework
# The original CSD entry LIKXUB is in the hexagonal crystal system
# The original CSD entry LIKXUB is in a Sohncke space group
# The framework has been calculated to contain at least 10.0% void space
# The void calculation uses a probe of radius 1.32A, grid spacing 0.4
# H atom positions have been added when not included in the experimental data
#
###############################################################################

data_LIKXUB
_chemical_formula_moiety         '(C60 H84 Cu9 N12 O56 Sr2)n'
_symmetry_cell_setting           triclinic
_symmetry_space_group_name_H-M   'P 1'
_symmetry_Int_Tables_number      1
_space_group_name_Hall           'P 1'
loop_
_symmetry_equiv_pos_site_id
_symmetry_equiv_pos_as_xyz
1 x,y,z
_cell_length_a                   18.036(4)
_cell_length_b                   18.036(4)
_cell_length_c                   12.824(4)
_cell_angle_alpha                90
_cell_angle_beta                 90
_cell_angle_gamma                120
_cell_volume                     3612.72
loop_
_atom_site_label
_atom_site_type_symbol
_atom_site_fract_x
_atom_site_fract_y
_atom_site_fract_z
N2 N 0.4989(10) 0.0957(9) 0.7203(11)
O5 O 0.5742(8) 0.0198(7) 0.6207(11)
O6 O 0.5585(8) 0.2353(7) 0.6103(9)
O7 O 0.4922(9) 0.2901(8) 0.7038(10)
C4 C 0.4805(11) 0.0222(13) 0.7478(12)
C5 C 0.5117(12) 0.2316(11) 0.6839(16)
C6 C 0.4634(13) 0.1460(13) 0.7471(16)
H2 H 0.4022 0.1154 0.7243
C9 C 0.4658(12) 0.1657(11) 0.8641(12)
H7 H 0.4257 0.1087 0.8957
C10 C 0.4253(8) 0.2167(8) 0.8863(9)
H8 H 0.4278 0.2277 0.9615
H9 H 0.3654 0.1854 0.8637
H10 H 0.4556 0.2712 0.8488
O9 O 0.5460(16) 0.193(2) 0.9188(18)
H12 H 0.5393 0.1982 0.9826
Sr4 Sr 0.6667 0.3333 0.4727(3)
Cu8 Cu 0.57963(13) 0.13504(13) 0.60322(10)
Cu12 Cu 0.55541(18) 0.42037(13) 0.60322(10)
Cu2 Cu 0.42037(13) 0.86496(13) 0.10322(10)
Cu4 Cu 0.13504(13) 0.55541(18) 0.10322(10)
Cu6 Cu 0.44459(18) 0.57963(13) 0.10322(10)
N7 N 0.5011(10) 0.9043(9) 0.2203(11)
N8 N 0.0957(9) 0.5968(13) 0.2203(11)
N9 N 0.4032(13) 0.4989(10) 0.2203(11)
O31 O 0.4258(8) 0.9802(7) 0.1207(11)
O32 O 0.0198(7) 0.4456(11) 0.1207(11)
O33 O 0.5544(11) 0.5742(8) 0.1207(11)
O34 O 0.4415(8) 0.7647(7) 0.1103(9)
O35 O 0.2353(7) 0.6768(11) 0.1103(9)
O36 O 0.3232(11) 0.5585(8) 0.1103(9)
O37 O 0.5078(9) 0.7099(8) 0.2038(10)
O38 O 0.2901(8) 0.7979(12) 0.2038(10)
O39 O 0.2021(12) 0.4922(9) 0.2038(10)
H38 H 0.612146 0.988993 0.0322605
H40 H 0.376847 0.387854 0.0322605
H42 H 0.0110069 0.623153 0.0322605
Sr1 Sr 0.3333 0.6667 0.9727(3)
Cu1 Cu 0.42257(15) 0.86460(14) 0.84283(12)
N1 N 0.5069(9) 0.9087(8) 0.7397(12)
O1 O 0.3597(4) 0.8255(4) 0.9760(11)
O2 O 0.4407(8) 0.7660(7) 0.8350(10)
O3 O 0.4200(7) 0.9724(7) 0.8251(9)
O4 O 0.5050(7) 0.7106(8) 0.7424(10)
C1 C 0.4957(10) 0.7687(11) 0.7645(15)
C2 C 0.5482(12) 0.8556(12) 0.7065(16)
H1 H 0.5475 0.8482 0.6291
C3 C 0.5304(10) 0.9833(9) 0.6910(15)
C7 C 0.6440(12) 0.8973(14) 0.755(2)
H3 H 0.6723 0.9578 0.7297
C8 C 0.700(5) 0.864(5) 0.708(5)
H4 H 0.7568 0.8932 0.7419
H5 H 0.7071 0.8754 0.6333
H6 H 0.6734 0.8022 0.7205
O8 O 0.6510(19) 0.906(3) 0.865(2)
H11 H 0.6193 0.9249 0.8865
O10 O 0.5619(10) 0.9564(15) 0.986(2)
Cu3 Cu 0.13540(14) 0.55797(21) 0.84283(12)
N3 N 0.0913(8) 0.5982(12) 0.7397(12)
O11 O 0.1745(4) 0.5342(6) 0.9760(11)
O12 O 0.2340(7) 0.6747(11) 0.8350(10)
O13 O 0.0276(7) 0.4476(10) 0.8251(9)
O14 O 0.2894(8) 0.7944(11) 0.7424(10)
C11 C 0.2313(11) 0.7270(15) 0.7645(15)
C12 C 0.1444(12) 0.6926(17) 0.7065(16)
H13 H 0.1518 0.6993 0.6291
C13 C 0.0167(9) 0.5471(13) 0.6910(15)
C17 C 0.1027(14) 0.7467(18) 0.755(2)
H15 H 0.0422 0.7145 0.7297
C18 C 0.136(5) 0.836(7) 0.708(5)
H16 H 0.1068 0.8636 0.7419
H17 H 0.1246 0.8317 0.6333
H18 H 0.1978 0.8712 0.7205
O18 O 0.094(3) 0.7450(36) 0.865(2)
H23 H 0.0751 0.6944 0.8865
O20 O 0.0436(15) 0.6055(18) 0.986(2)
Cu5 Cu 0.44203(21) 0.57743(15) 0.84283(12)
N5 N 0.4018(12) 0.4931(9) 0.7397(12)
N6 N 0.5968(13) 0.5011(10) 0.7203(11)
O21 O 0.4658(6) 0.6403(4) 0.9760(11)
O22 O 0.3253(11) 0.5593(8) 0.8350(10)
O23 O 0.5524(10) 0.5800(7) 0.8251(9)
O24 O 0.2056(11) 0.4950(7) 0.7424(10)
O25 O 0.4456(11) 0.4258(8) 0.6207(11)
O26 O 0.6768(11) 0.4415(8) 0.6103(9)
O27 O 0.7979(12) 0.5078(9) 0.7038(10)
C21 C 0.2730(15) 0.5043(10) 0.7645(15)
C22 C 0.3074(17) 0.4518(12) 0.7065(16)
H25 H 0.3007 0.4525 0.6291
C23 C 0.4529(13) 0.4696(10) 0.6910(15)
C24 C 0.5417(17) 0.5195(11) 0.7478(12)
C25 C 0.7199(16) 0.4883(12) 0.6839(16)
C26 C 0.6826(18) 0.5366(13) 0.7471(16)
H26 H 0.7132 0.5978 0.7243
C27 C 0.2533(18) 0.3560(12) 0.755(2)
H27 H 0.2855 0.3277 0.7297
C28 C 0.164(7) 0.300(5) 0.708(5)
H28 H 0.1364 0.2432 0.7419
H29 H 0.1683 0.2929 0.6333
H30 H 0.1288 0.3266 0.7205
C29 C 0.6999(16) 0.5342(12) 0.8641(12)
H31 H 0.6830 0.5743 0.8957
C30 C 0.7914(11) 0.5747(8) 0.8863(9)
H32 H 0.7999 0.5722 0.9615
H33 H 0.8200 0.6346 0.8637
H34 H 0.8156 0.5444 0.8488
O28 O 0.2550(36) 0.3490(19) 0.865(2)
H35 H 0.3056 0.3807 0.8865
O29 O 0.6470(26) 0.4540(16) 0.9188(18)
H36 H 0.6589 0.4607 0.9826
O30 O 0.3945(18) 0.4381(10) 0.986(2)
Cu10 Cu 0.86496(13) 0.44459(18) 0.60322(10)
H37 H 0.554106 0.996888 0.941178
H39 H 0.442782 0.445894 0.941178
H41 H 0.00311201 0.557218 0.941178
N4 N 0.9043(9) 0.4032(13) 0.7203(11)
O15 O 0.9802(7) 0.5544(11) 0.6207(11)
O16 O 0.7647(7) 0.3232(11) 0.6103(9)
O17 O 0.7099(8) 0.2021(12) 0.7038(10)
C14 C 0.9778(13) 0.4583(17) 0.7478(12)
C15 C 0.7684(11) 0.2801(16) 0.6839(16)
C16 C 0.8540(13) 0.3174(18) 0.7471(16)
H14 H 0.8846 0.2868 0.7243
C19 C 0.8343(11) 0.3001(16) 0.8641(12)
H19 H 0.8913 0.3170 0.8957
C20 C 0.7833(8) 0.2086(11) 0.8863(9)
H20 H 0.7723 0.2001 0.9615
H21 H 0.8146 0.1800 0.8637
H22 H 0.7288 0.1844 0.8488
O19 O 0.807(2) 0.3530(26) 0.9188(18)
H24 H 0.8018 0.3411 0.9826
C14_2 C 0.0222(13) 0.5417(17) 0.2478(12)
C15_2 C 0.2316(11) 0.7199(16) 0.1839(16)
C16_2 C 0.1460(13) 0.6826(18) 0.2471(16)
H14_2 H 0.1154 0.7132 0.2243
C19_2 C 0.1657(11) 0.6999(16) 0.3641(12)
H19_2 H 0.1087 0.6830 0.3957
C20_2 C 0.2167(8) 0.7914(11) 0.3863(9)
H20_2 H 0.2277 0.7999 0.4615
H21_2 H 0.1854 0.8200 0.3637
H22_2 H 0.2712 0.8156 0.3488
O19_2 O 0.193(2) 0.6470(26) 0.4188(18)
H24_2 H 0.1982 0.6589 0.4826
Cu1_2 Cu 0.57743(15) 0.13540(14) 0.34283(12)
N1_2 N 0.4931(9) 0.0913(8) 0.2397(12)
O1_2 O 0.6403(4) 0.1745(4) 0.4760(11)
O2_2 O 0.5593(8) 0.2340(7) 0.3350(10)
O3_2 O 0.5800(7) 0.0276(7) 0.3251(9)
O4_2 O 0.4950(7) 0.2894(8) 0.2424(10)
C1_2 C 0.5043(10) 0.2313(11) 0.2645(15)
C2_2 C 0.4518(12) 0.1444(12) 0.2065(16)
H1_2 H 0.4525 0.1518 0.1291
C3_2 C 0.4696(10) 0.0167(9) 0.1910(15)
C7_2 C 0.3560(12) 0.1027(14) 0.255(2)
H3_2 H 0.3277 0.0422 0.2297
C8_2 C 0.300(5) 0.136(5) 0.208(5)
H4_2 H 0.2432 0.1068 0.2419
H5_2 H 0.2929 0.1246 0.1333
H6_2 H 0.3266 0.1978 0.2205
O8_2 O 0.3490(19) 0.094(3) 0.365(2)
H11_2 H 0.3807 0.0751 0.3865
O10_2 O 0.4381(10) 0.0436(15) 0.486(2)
Cu3_2 Cu 0.86460(14) 0.44203(21) 0.34283(12)
N3_2 N 0.9087(8) 0.4018(12) 0.2397(12)
O11_2 O 0.8255(4) 0.4658(6) 0.4760(11)
O12_2 O 0.7660(7) 0.3253(11) 0.3350(10)
O13_2 O 0.9724(7) 0.5524(10) 0.3251(9)
O14_2 O 0.7106(8) 0.2056(11) 0.2424(10)
C11_2 C 0.7687(11) 0.2730(15) 0.2645(15)
C12_2 C 0.8556(12) 0.3074(17) 0.2065(16)
H13_2 H 0.8482 0.3007 0.1291
C13_2 C 0.9833(9) 0.4529(13) 0.1910(15)
C17_2 C 0.8973(14) 0.2533(18) 0.255(2)
H15_2 H 0.9578 0.2855 0.2297
C18_2 C 0.864(5) 0.164(7) 0.208(5)
H16_2 H 0.8932 0.1364 0.2419
H17_2 H 0.8754 0.1683 0.1333
H18_2 H 0.8022 0.1288 0.2205
O18_2 O 0.906(3) 0.2550(36) 0.365(2)
H23_2 H 0.9249 0.3056 0.3865
O20_2 O 0.9564(15) 0.3945(18) 0.486(2)
Cu5_2 Cu 0.55797(21) 0.42257(15) 0.34283(12)
N5_2 N 0.5982(12) 0.5069(9) 0.2397(12)
O21_2 O 0.5342(6) 0.3597(4) 0.4760(11)
O22_2 O 0.6747(11) 0.4407(8) 0.3350(10)
O23_2 O 0.4476(10) 0.4200(7) 0.3251(9)
O24_2 O 0.7944(11) 0.5050(7) 0.2424(10)
C21_2 C 0.7270(15) 0.4957(10) 0.2645(15)
C22_2 C 0.6926(17) 0.5482(12) 0.2065(16)
H25_2 H 0.6993 0.5475 0.1291
C23_2 C 0.5471(13) 0.5304(10) 0.1910(15)
C24_2 C 0.4583(17) 0.4805(11) 0.2478(12)
C25_2 C 0.2801(16) 0.5117(12) 0.1839(16)
C26_2 C 0.3174(18) 0.4634(13) 0.2471(16)
H26_2 H 0.2868 0.4022 0.2243
C27_2 C 0.7467(18) 0.6440(12) 0.255(2)
H27_2 H 0.7145 0.6723 0.2297
C28_2 C 0.836(7) 0.700(5) 0.208(5)
H28_2 H 0.8636 0.7568 0.2419
H29_2 H 0.8317 0.7071 0.1333
H30_2 H 0.8712 0.6734 0.2205
C29_2 C 0.3001(16) 0.4658(12) 0.3641(12)
H31_2 H 0.3170 0.4257 0.3957
C30_2 C 0.2086(11) 0.4253(8) 0.3863(9)
H32_2 H 0.2001 0.4278 0.4615
H33_2 H 0.1800 0.3654 0.3637
H34_2 H 0.1844 0.4556 0.3488
O28_2 O 0.7450(36) 0.6510(19) 0.365(2)
H35_2 H 0.6944 0.6193 0.3865
O29_2 O 0.3530(26) 0.5460(16) 0.4188(18)
H36_2 H 0.3411 0.5393 0.4826
O30_2 O 0.6055(18) 0.5619(10) 0.486(2)
H37_2 H 0.445894 0.00311201 0.441178
H38_2 H 0.387854 0.0110069 0.532261
H39_2 H 0.557218 0.554106 0.441178
H40_2 H 0.623153 0.612146 0.532261
H41_2 H 0.996888 0.442782 0.441178
H42_2 H 0.988993 0.376847 0.532261
C4_2 C 0.5195(11) 0.9778(13) 0.2478(12)
C5_2 C 0.4883(12) 0.7684(11) 0.1839(16)
C6_2 C 0.5366(13) 0.8540(13) 0.2471(16)
H2_2 H 0.5978 0.8846 0.2243
C9_2 C 0.5342(12) 0.8343(11) 0.3641(12)
H7_2 H 0.5743 0.8913 0.3957
C10_2 C 0.5747(8) 0.7833(8) 0.3863(9)
H8_2 H 0.5722 0.7723 0.4615
H9_2 H 0.6346 0.8146 0.3637
H10_2 H 0.5444 0.7288 0.3488
O9_2 O 0.4540(16) 0.807(2) 0.4188(18)
H12_2 H 0.4607 0.8018 0.4826
loop_
_geom_bond_atom_site_label_1
_geom_bond_atom_site_label_2
_geom_bond_site_symmetry_1
_geom_bond_site_symmetry_2
N2 C4 1_555 1_555
O6 C5 1_555 1_555
O7 C5 1_555 1_555
C5 C6 1_555 1_555
C6 N2 1_555 1_555
H2 C6 1_555 1_555
C9 C6 1_555 1_555
H7 C9 1_555 1_555
C10 C9 1_555 1_555
H8 C10 1_555 1_555
H9 C10 1_555 1_555
H10 C10 1_555 1_555
O9 C9 1_555 1_555
H12 O9 1_555 1_555
Sr4 O6 1_555 1_555
Cu8 N2 1_555 1_555
Cu12 O7 1_555 1_555
O5 Cu8 1_555 1_555
O6 Cu8 1_555 1_555
N7 Cu2 1_555 1_555
N8 Cu4 1_555 1_555
N9 Cu6 1_555 1_555
O31 Cu2 1_555 1_555
O32 Cu4 1_555 1_555
O33 Cu6 1_555 1_555
O37 Cu6 1_555 1_555
O38 Cu2 1_555 1_555
O39 Cu4 1_555 1_555
Cu2 O34 1_555 1_555
Cu4 O35 1_555 1_555
Cu6 O36 1_555 1_555
Sr1 O1 1_555 1_555
Cu1 N1 1_555 1_555
N1 C2 1_555 1_555
O1 Cu1 1_555 1_555
O2 Sr1 1_555 1_555
O3 Cu1 1_555 1_555
O4 C1 1_555 1_555
C1 O2 1_555 1_555
C2 C1 1_555 1_555
H1 C2 1_555 1_555
C3 N1 1_555 1_555
C7 C2 1_555 1_555
H3 C7 1_555 1_555
C8 C7 1_555 1_555
H4 C8 1_555 1_555
H5 C8 1_555 1_555
H6 C8 1_555 1_555
O8 C7 1_555 1_555
H11 O8 1_555 1_555
Cu3 N3 1_555 1_555
N3 C12 1_555 1_555
O11 Sr1 1_555 1_555
O12 Sr1 1_555 1_555
O13 Cu3 1_555 1_555
O14 Cu1 1_555 1_555
C11 O12 1_555 1_555
C12 C11 1_555 1_555
H13 C12 1_555 1_555
C13 N3 1_555 1_555
C17 C12 1_555 1_555
H15 C17 1_555 1_555
C18 C17 1_555 1_555
H16 C18 1_555 1_555
H17 C18 1_555 1_555
H18 C18 1_555 1_555
O18 C17 1_555 1_555
H23 O18 1_555 1_555
Cu5 O4 1_555 1_555
N5 Cu5 1_555 1_555
N6 C24 1_555 1_555
O21 Sr1 1_555 1_555
O22 Sr1 1_555 1_555
O23 Cu5 1_555 1_555
O24 Cu3 1_555 1_555
O25 C23 1_555 1_555
O26 C25 1_555 1_555
O27 C25 1_555 1_555
C21 O22 1_555 1_555
C22 N5 1_555 1_555
H25 C22 1_555 1_555
C23 N5 1_555 1_555
C24 O23 1_555 1_555
C25 C26 1_555 1_555
C26 N6 1_555 1_555
H26 C26 1_555 1_555
C27 C22 1_555 1_555
H27 C27 1_555 1_555
C28 C27 1_555 1_555
H28 C28 1_555 1_555
H29 C28 1_555 1_555
H30 C28 1_555 1_555
C29 C26 1_555 1_555
H31 C29 1_555 1_555
C30 C29 1_555 1_555
H32 C30 1_555 1_555
H33 C30 1_555 1_555
H34 C30 1_555 1_555
O28 C27 1_555 1_555
H35 O28 1_555 1_555
O29 C29 1_555 1_555
H36 O29 1_555 1_555
Sr4 O26 1_555 1_555
Cu10 O27 1_555 1_555
Cu12 N6 1_555 1_555
Cu1 O2 1_555 1_555
Cu3 O11 1_555 1_555
Cu3 O12 1_555 1_555
O14 C11 1_555 1_555
Cu5 O21 1_555 1_555
Cu5 O22 1_555 1_555
O24 C21 1_555 1_555
O25 Cu12 1_555 1_555
O26 Cu12 1_555 1_555
C21 C22 1_555 1_555
C23 C24 1_555 1_555
O10 H37 1_555 1_555
O30 H39 1_555 1_555
O20 H41 1_555 1_555
N4 C14 1_555 1_555
O16 C15 1_555 1_555
O17 C15 1_555 1_555
C15 C16 1_555 1_555
C16 N4 1_555 1_555
H14 C16 1_555 1_555
C19 C16 1_555 1_555
H19 C19 1_555 1_555
C20 C19 1_555 1_555
H20 C20 1_555 1_555
H21 C20 1_555 1_555
H22 C20 1_555 1_555
O19 C19 1_555 1_555
H24 O19 1_555 1_555
Sr4 O16 1_555 1_555
Cu8 O17 1_555 1_555
Cu10 N4 1_555 1_555
O15 Cu10 1_555 1_555
O16 Cu10 1_555 1_555
N8 C14_2 1_555 1_555
O35 C15_2 1_555 1_555
O38 C15_2 1_555 1_555
C15_2 C16_2 1_555 1_555
C16_2 N8 1_555 1_555
H14_2 C16_2 1_555 1_555
C19_2 C16_2 1_555 1_555
H19_2 C19_2 1_555 1_555
C20_2 C19_2 1_555 1_555
H20_2 C20_2 1_555 1_555
H21_2 C20_2 1_555 1_555
H22_2 C20_2 1_555 1_555
O19_2 C19_2 1_555 1_555
H24_2 O19_2 1_555 1_555
Sr4 O1_2 1_555 1_555
Cu1_2 N1_2 1_555 1_555
Cu8 O1_2 1_555 1_555
N1_2 C2_2 1_555 1_555
O1_2 Cu1_2 1_555 1_555
O2_2 Sr4 1_555 1_555
O3_2 Cu1_2 1_555 1_555
O4_2 C1_2 1_555 1_555
C1_2 O2_2 1_555 1_555
C2_2 C1_2 1_555 1_555
H1_2 C2_2 1_555 1_555
C3_2 N1_2 1_555 1_555
C7_2 C2_2 1_555 1_555
H3_2 C7_2 1_555 1_555
C8_2 C7_2 1_555 1_555
H4_2 C8_2 1_555 1_555
H5_2 C8_2 1_555 1_555
H6_2 C8_2 1_555 1_555
O8_2 C7_2 1_555 1_555
H11_2 O8_2 1_555 1_555
O10_2 Cu8 1_555 1_555
Cu3_2 N3_2 1_555 1_555
Cu10 O11_2 1_555 1_555
N3_2 C12_2 1_555 1_555
O11_2 Sr4 1_555 1_555
O12_2 Sr4 1_555 1_555
O13_2 Cu3_2 1_555 1_555
O14_2 Cu1_2 1_555 1_555
C11_2 O12_2 1_555 1_555
C12_2 C11_2 1_555 1_555
H13_2 C12_2 1_555 1_555
C13_2 N3_2 1_555 1_555
C17_2 C12_2 1_555 1_555
H15_2 C17_2 1_555 1_555
C18_2 C17_2 1_555 1_555
H16_2 C18_2 1_555 1_555
H17_2 C18_2 1_555 1_555
H18_2 C18_2 1_555 1_555
O18_2 C17_2 1_555 1_555
H23_2 O18_2 1_555 1_555
O20_2 Cu10 1_555 1_555
Cu5_2 O4_2 1_555 1_555
Cu12 O21_2 1_555 1_555
N5_2 Cu5_2 1_555 1_555
N9 C24_2 1_555 1_555
O21_2 Sr4 1_555 1_555
O22_2 Sr4 1_555 1_555
O23_2 Cu5_2 1_555 1_555
O24_2 Cu3_2 1_555 1_555
O33 C23_2 1_555 1_555
O36 C25_2 1_555 1_555
O39 C25_2 1_555 1_555
C21_2 O22_2 1_555 1_555
C22_2 N5_2 1_555 1_555
H25_2 C22_2 1_555 1_555
C23_2 N5_2 1_555 1_555
C24_2 O23_2 1_555 1_555
C25_2 C26_2 1_555 1_555
C26_2 N9 1_555 1_555
H26_2 C26_2 1_555 1_555
C27_2 C22_2 1_555 1_555
H27_2 C27_2 1_555 1_555
C28_2 C27_2 1_555 1_555
H28_2 C28_2 1_555 1_555
H29_2 C28_2 1_555 1_555
H30_2 C28_2 1_555 1_555
C29_2 C26_2 1_555 1_555
H31_2 C29_2 1_555 1_555
C30_2 C29_2 1_555 1_555
H32_2 C30_2 1_555 1_555
H33_2 C30_2 1_555 1_555
H34_2 C30_2 1_555 1_555
O28_2 C27_2 1_555 1_555
H35_2 O28_2 1_555 1_555
O29_2 C29_2 1_555 1_555
H36_2 O29_2 1_555 1_555
O30_2 Cu12 1_555 1_555
Cu1_2 O2_2 1_555 1_555
Cu3_2 O11_2 1_555 1_555
Cu3_2 O12_2 1_555 1_555
O14_2 C11_2 1_555 1_555
Cu5_2 O21_2 1_555 1_555
Cu5_2 O22_2 1_555 1_555
O24_2 C21_2 1_555 1_555
C21_2 C22_2 1_555 1_555
C23_2 C24_2 1_555 1_555
O10_2 H37_2 1_555 1_555
O10_2 H38_2 1_555 1_555
O30_2 H39_2 1_555 1_555
O30_2 H40_2 1_555 1_555
O20_2 H41_2 1_555 1_555
O20_2 H42_2 1_555 1_555
N7 C4_2 1_555 1_555
O34 C5_2 1_555 1_555
O37 C5_2 1_555 1_555
C5_2 C6_2 1_555 1_555
C6_2 N7 1_555 1_555
H2_2 C6_2 1_555 1_555
C9_2 C6_2 1_555 1_555
H7_2 C9_2 1_555 1_555
C10_2 C9_2 1_555 1_555
H8_2 C10_2 1_555 1_555
H9_2 C10_2 1_555 1_555
H10_2 C10_2 1_555 1_555
O9_2 C9_2 1_555 1_555
H12_2 O9_2 1_555 1_555

#END
