
###############################################################################
#
# This file contains modified crystal structure data generated from the
# MOF subset of the Cambridge Structural Database (CSD) v543 
# hosted by the Cambridge Crystallographic Data Centre (CCDC).
#
# This work is licensed under the Creative Commons
# Attribution-NonCommercial-ShareAlike 4.0 International License.
# To view a copy of this license, visit
# http://creativecommons.org/licenses/by-nc-sa/4.0/
# or send a letter to
# Creative Commons, PO Box 1866, Mountain View, CA 94042, USA.
#
# CIF created using the CSD Python API on 29 September 2022
# The structure has been converted into the P1 space group
# The structure has a 3D framework
# The original CSD entry LIKYEM is in the hexagonal crystal system
# The original CSD entry LIKYEM is in a Sohncke space group
# The framework has been calculated to contain at least 10.0% void space
# The void calculation uses a probe of radius 1.32A, grid spacing 0.4
# H atom positions have been added when not included in the experimental data
#
###############################################################################

data_LIKYEM
_chemical_formula_moiety         '(C60 H84 Cu12 N12 O56 Sr2)n'
_symmetry_cell_setting           triclinic
_symmetry_space_group_name_H-M   'P 1'
_symmetry_Int_Tables_number      1
_space_group_name_Hall           'P 1'
loop_
_symmetry_equiv_pos_site_id
_symmetry_equiv_pos_as_xyz
1 x,y,z
_cell_length_a                   17.9591(8)
_cell_length_b                   17.9591(8)
_cell_length_c                   12.7131(6)
_cell_angle_alpha                90
_cell_angle_beta                 90
_cell_angle_gamma                120
_cell_volume                     3551
loop_
_atom_site_label
_atom_site_type_symbol
_atom_site_fract_x
_atom_site_fract_y
_atom_site_fract_z
N2 N 0.0946(12) 0.5961(13) 0.2714(13)
O5 O 0.0224(9) 0.4481(10) 0.1695(12)
O6 O 0.2905(11) 0.7971(10) 0.2531(12)
O7 O 0.2341(8) 0.6758(9) 0.1623(9)
C3 C 0.1471(15) 0.6871(15) 0.2986(17)
H2 H 0.1167 0.7184 0.2764
C4 C 0.2329(16) 0.7208(16) 0.2319(19)
C6 C 0.0219(15) 0.5481(15) 0.2990(17)
C9 C 0.1641(12) 0.6981(11) 0.4170(14)
H7 H 0.1082 0.6764 0.4550
C10 C 0.2087(13) 0.6518(12) 0.4571(15)
H8 H 0.2178 0.6609 0.5331
H9 H 0.2643 0.6742 0.4217
H10 H 0.1730 0.5902 0.4427
O9 O 0.2201(8) 0.7928(8) 0.4384(10)
H12 H 0.2544 0.8160 0.3881
Sr4 Sr 0.3333 0.6667 0.0242(4)
Cu8 Cu 0.13474(18) 0.55614(17) 0.15369(10)
Cu12 Cu 0.42140(25) 0.86526(18) 0.15369(10)
Sr1 Sr 0.6667 0.3333 0.5242(4)
Cu1 Cu 0.86431(17) 0.44255(16) 0.39418(11)
Cu2 Cu 0.86526(18) 0.44386(17) 0.65369(10)
N1 N 0.9069(10) 0.3992(10) 0.2900(12)
O1 O 0.8260(4) 0.4665(4) 0.5262(13)
O2 O 0.7648(8) 0.3250(9) 0.3859(10)
O3 O 0.9754(9) 0.5548(9) 0.3732(10)
O4 O 0.7096(10) 0.2057(10) 0.2903(12)
C1 C 0.8573(16) 0.3119(16) 0.2584(19)
H1 H 0.8510 0.3067 0.1802
C2 C 0.7699(13) 0.2749(12) 0.3123(17)
C5 C 0.9842(13) 0.4608(15) 0.2457(16)
C7 C 0.8995(15) 0.2586(15) 0.303(3)
H3 H 0.8605 0.1980 0.2798
C8 C 0.900(2) 0.255(2) 0.422(2)
H4 H 0.9263 0.2217 0.4453
H5 H 0.8402 0.2275 0.4482
H6 H 0.9321 0.3135 0.4506
O8 O 0.977(4) 0.278(4) 0.268(4)
H11 H 0.9990 0.3253 0.2357
O10 O 0.9519(18) 0.3895(13) 0.530(4)
Cu3 Cu 0.55745(16) 0.42176(23) 0.39418(11)
Cu4 Cu 0.55614(17) 0.42140(25) 0.65369(10)
N3 N 0.6008(10) 0.5077(14) 0.2900(12)
N4 N 0.4039(13) 0.4985(18) 0.2714(13)
O11 O 0.5335(4) 0.3595(6) 0.5262(13)
O12 O 0.6750(9) 0.4398(12) 0.3859(10)
O13 O 0.4452(9) 0.4206(13) 0.3732(10)
O14 O 0.7943(10) 0.5039(14) 0.2903(12)
O15 O 0.5519(10) 0.5743(13) 0.1695(12)
O16 O 0.2029(10) 0.4934(15) 0.2531(12)
O17 O 0.3242(9) 0.5583(12) 0.1623(9)
C11 C 0.6881(16) 0.5454(23) 0.2584(19)
H13 H 0.6933 0.5443 0.1802
C12 C 0.7251(12) 0.4950(18) 0.3123(17)
C13 C 0.3129(15) 0.4600(21) 0.2986(17)
H14 H 0.2816 0.3983 0.2764
C14 C 0.2792(16) 0.5121(23) 0.2319(19)
C15 C 0.5392(15) 0.5234(20) 0.2457(16)
C16 C 0.4519(15) 0.4738(21) 0.2990(17)
C17 C 0.7414(15) 0.6409(21) 0.303(3)
H15 H 0.8020 0.6625 0.2798
C18 C 0.745(2) 0.645(3) 0.422(2)
H16 H 0.7783 0.7046 0.4453
H17 H 0.7725 0.6127 0.4482
H18 H 0.6865 0.6186 0.4506
C19 C 0.3019(11) 0.4660(16) 0.4170(14)
H19 H 0.3236 0.4318 0.4550
C20 C 0.3482(12) 0.5569(18) 0.4571(15)
H20 H 0.3391 0.5569 0.5331
H21 H 0.3258 0.5901 0.4217
H22 H 0.4098 0.5828 0.4427
O18 O 0.722(4) 0.699(6) 0.268(4)
H23 H 0.6747 0.6737 0.2357
O19 O 0.2072(8) 0.4273(11) 0.4384(10)
H24 H 0.1840 0.4384 0.3881
O20 O 0.6105(13) 0.5624(22) 0.530(4)
Cu5 Cu 0.57824(23) 0.13569(17) 0.39418(11)
Cu6 Cu 0.57860(25) 0.13474(18) 0.65369(10)
N5 N 0.4923(14) 0.0931(10) 0.2900(12)
O21 O 0.6405(6) 0.1740(4) 0.5262(13)
O22 O 0.5602(12) 0.2352(8) 0.3859(10)
O23 O 0.5794(13) 0.0246(9) 0.3732(10)
O24 O 0.4961(14) 0.2904(10) 0.2903(12)
C21 C 0.4546(23) 0.1427(16) 0.2584(19)
H25 H 0.4557 0.1490 0.1802
C22 C 0.5050(18) 0.2301(13) 0.3123(17)
C25 C 0.4766(20) 0.0158(13) 0.2457(16)
C27 C 0.3591(21) 0.1005(15) 0.303(3)
H27 H 0.3375 0.1395 0.2798
C28 C 0.355(3) 0.100(2) 0.422(2)
H28 H 0.2954 0.0737 0.4453
H29 H 0.3873 0.1598 0.4482
H30 H 0.3814 0.0679 0.4506
O28 O 0.301(6) 0.023(4) 0.268(4)
H35 H 0.3263 0.0010 0.2357
O30 O 0.4376(22) 0.0481(18) 0.530(4)
Cu10 Cu 0.44386(17) 0.57860(25) 0.15369(10)
N7 N 0.9054(12) 0.4039(13) 0.7714(13)
N8 N 0.5961(13) 0.5015(18) 0.7714(13)
N9 N 0.4985(18) 0.0946(12) 0.7714(13)
O31 O 0.9776(9) 0.5519(10) 0.6695(12)
O32 O 0.4481(10) 0.4257(13) 0.6695(12)
O33 O 0.5743(13) 0.0224(9) 0.6695(12)
O34 O 0.7095(11) 0.2029(10) 0.7531(12)
O35 O 0.7971(10) 0.5066(15) 0.7531(12)
O36 O 0.4934(15) 0.2905(11) 0.7531(12)
O37 O 0.7659(8) 0.3242(9) 0.6623(9)
O38 O 0.6758(9) 0.4417(12) 0.6623(9)
O39 O 0.5583(12) 0.2341(8) 0.6623(9)
H37 H 0.562484 0.555179 0.484305
H38 H 0.629816 0.614078 0.574932
H39 H 0.992694 0.437516 0.484305
H40 H 0.984263 0.370184 0.574932
H41 H 0.444821 0.00730578 0.484305
H42 H 0.385922 0.0157373 0.574932
N6 N 0.5015(18) 0.9054(12) 0.2714(13)
O25 O 0.4257(13) 0.9776(9) 0.1695(12)
O26 O 0.5066(15) 0.7095(11) 0.2531(12)
O27 O 0.4417(12) 0.7659(8) 0.1623(9)
C23 C 0.5400(21) 0.8529(15) 0.2986(17)
H26 H 0.6017 0.8833 0.2764
C24 C 0.4879(23) 0.7671(16) 0.2319(19)
C26 C 0.5262(21) 0.9781(15) 0.2990(17)
C29 C 0.5340(16) 0.8359(12) 0.4170(14)
H31 H 0.5682 0.8918 0.4550
C30 C 0.4431(18) 0.7913(13) 0.4571(15)
H32 H 0.4431 0.7822 0.5331
H33 H 0.4099 0.7357 0.4217
H34 H 0.4172 0.8270 0.4427
O29 O 0.5727(11) 0.7799(8) 0.4384(10)
H36 H 0.5616 0.7456 0.3881
C23_2 C 0.4600(21) 0.1471(15) 0.7986(17)
H26_2 H 0.3983 0.1167 0.7764
C24_2 C 0.5121(23) 0.2329(16) 0.7319(19)
C26_2 C 0.4738(21) 0.0219(15) 0.7990(17)
C29_2 C 0.4660(16) 0.1641(12) 0.9170(14)
H31_2 H 0.4318 0.1082 0.9550
C30_2 C 0.5569(18) 0.2087(13) 0.9571(15)
H33_2 H 0.5901 0.2643 0.9217
H34_2 H 0.5828 0.1730 0.9427
O29_2 O 0.4273(11) 0.2201(8) 0.9384(10)
H36_2 H 0.4384 0.2544 0.8881
O1_2 O 0.1740(4) 0.5335(4) 0.0262(13)
O10_2 O 0.0481(18) 0.6105(13) 0.030(4)
O11_2 O 0.4665(4) 0.6405(6) 0.0262(13)
H20_2 H 0.6609 0.4431 0.0331
O20_2 O 0.3895(13) 0.4376(22) 0.030(4)
O21_2 O 0.3595(6) 0.8260(4) 0.0262(13)
O30_2 O 0.5624(22) 0.9519(18) 0.030(4)
H38_2 H 0.370184 0.385922 0.074932
H40_2 H 0.0157373 0.629816 0.074932
H42_2 H 0.614078 0.984263 0.074932
Cu1_2 Cu 0.13569(17) 0.55745(16) 0.89418(11)
N1_2 N 0.0931(10) 0.6008(10) 0.7900(12)
O2_2 O 0.2352(8) 0.6750(9) 0.8859(10)
O3_2 O 0.0246(9) 0.4452(9) 0.8732(10)
O4_2 O 0.2904(10) 0.7943(10) 0.7903(12)
C1_2 C 0.1427(16) 0.6881(16) 0.7584(19)
H1_2 H 0.1490 0.6933 0.6802
C2_2 C 0.2301(13) 0.7251(12) 0.8123(17)
C5_2 C 0.0158(13) 0.5392(15) 0.7457(16)
C7_2 C 0.1005(15) 0.7414(15) 0.803(3)
H3_2 H 0.1395 0.8020 0.7798
C8_2 C 0.100(2) 0.745(2) 0.922(2)
H4_2 H 0.0737 0.7783 0.9453
H5_2 H 0.1598 0.7725 0.9482
H6_2 H 0.0679 0.6865 0.9506
O8_2 O 0.023(4) 0.722(4) 0.768(4)
H11_2 H 0.0010 0.6747 0.7357
Cu3_2 Cu 0.44255(16) 0.57824(23) 0.89418(11)
N3_2 N 0.3992(10) 0.4923(14) 0.7900(12)
O12_2 O 0.3250(9) 0.5602(12) 0.8859(10)
O13_2 O 0.5548(9) 0.5794(13) 0.8732(10)
O14_2 O 0.2057(10) 0.4961(14) 0.7903(12)
C11_2 C 0.3119(16) 0.4546(23) 0.7584(19)
H13_2 H 0.3067 0.4557 0.6802
C12_2 C 0.2749(12) 0.5050(18) 0.8123(17)
C13_2 C 0.6871(15) 0.5400(21) 0.7986(17)
H14_2 H 0.7184 0.6017 0.7764
C14_2 C 0.7208(16) 0.4879(23) 0.7319(19)
C15_2 C 0.4608(15) 0.4766(20) 0.7457(16)
C16_2 C 0.5481(15) 0.5262(21) 0.7990(17)
C17_2 C 0.2586(15) 0.3591(21) 0.803(3)
H15_2 H 0.1980 0.3375 0.7798
C18_2 C 0.255(2) 0.355(3) 0.922(2)
H16_2 H 0.2217 0.2954 0.9453
H17_2 H 0.2275 0.3873 0.9482
H18_2 H 0.3135 0.3814 0.9506
C19_2 C 0.6981(11) 0.5340(16) 0.9170(14)
H19_2 H 0.6764 0.5682 0.9550
C20_2 C 0.6518(12) 0.4431(18) 0.9571(15)
H21_2 H 0.6742 0.4099 0.9217
H22_2 H 0.5902 0.4172 0.9427
O18_2 O 0.278(4) 0.301(6) 0.768(4)
H23_2 H 0.3253 0.3263 0.7357
O19_2 O 0.7928(8) 0.5727(11) 0.9384(10)
H24_2 H 0.8160 0.5616 0.8881
Cu5_2 Cu 0.42176(23) 0.86431(17) 0.89418(11)
N5_2 N 0.5077(14) 0.9069(10) 0.7900(12)
O22_2 O 0.4398(12) 0.7648(8) 0.8859(10)
O23_2 O 0.4206(13) 0.9754(9) 0.8732(10)
O24_2 O 0.5039(14) 0.7096(10) 0.7903(12)
C21_2 C 0.5454(23) 0.8573(16) 0.7584(19)
H25_2 H 0.5443 0.8510 0.6802
C22_2 C 0.4950(18) 0.7699(13) 0.8123(17)
C25_2 C 0.5234(20) 0.9842(13) 0.7457(16)
C27_2 C 0.6409(21) 0.8995(15) 0.803(3)
H27_2 H 0.6625 0.8605 0.7798
C28_2 C 0.645(3) 0.900(2) 0.922(2)
H28_2 H 0.7046 0.9263 0.9453
H29_2 H 0.6127 0.8402 0.9482
H30_2 H 0.6186 0.9321 0.9506
O28_2 O 0.699(6) 0.977(4) 0.768(4)
H35_2 H 0.6737 0.9990 0.7357
H37_2 H 0.437516 0.444821 0.984305
H39_2 H 0.00730578 0.562484 0.984305
H41_2 H 0.555179 0.992694 0.984305
C3_2 C 0.8529(15) 0.3129(15) 0.7986(17)
H2_2 H 0.8833 0.2816 0.7764
C4_2 C 0.7671(16) 0.2792(16) 0.7319(19)
C6_2 C 0.9781(15) 0.4519(15) 0.7990(17)
C9_2 C 0.8359(12) 0.3019(11) 0.9170(14)
H7_2 H 0.8918 0.3236 0.9550
C10_2 C 0.7913(13) 0.3482(12) 0.9571(15)
H9_2 H 0.7357 0.3258 0.9217
H10_2 H 0.8270 0.4098 0.9427
O9_2 O 0.7799(8) 0.2072(8) 0.9384(10)
H12_2 H 0.7456 0.1840 0.8881
H32_2 H 0.5569 0.2178 0.0331
H8_2 H 0.7822 0.3391 0.0331
loop_
_geom_bond_atom_site_label_1
_geom_bond_atom_site_label_2
_geom_bond_site_symmetry_1
_geom_bond_site_symmetry_2
N2 C3 1_555 1_555
O6 C4 1_555 1_555
O7 C4 1_555 1_555
C3 H2 1_555 1_555
C4 C3 1_555 1_555
C6 N2 1_555 1_555
C9 C3 1_555 1_555
H7 C9 1_555 1_555
C10 C9 1_555 1_555
H8 C10 1_555 1_555
H9 C10 1_555 1_555
H10 C10 1_555 1_555
O9 C9 1_555 1_555
H12 O9 1_555 1_555
Sr4 O7 1_555 1_555
Cu8 N2 1_555 1_555
Cu12 O6 1_555 1_555
O5 Cu8 1_555 1_555
O7 Cu8 1_555 1_555
Sr1 O1 1_555 1_555
Cu1 N1 1_555 1_555
Cu2 O1 1_555 1_555
N1 C1 1_555 1_555
O1 Cu1 1_555 1_555
O2 Sr1 1_555 1_555
O3 Cu1 1_555 1_555
O4 C2 1_555 1_555
C1 H1 1_555 1_555
C2 O2 1_555 1_555
C5 N1 1_555 1_555
C7 C1 1_555 1_555
H3 C7 1_555 1_555
C8 C7 1_555 1_555
H4 C8 1_555 1_555
H5 C8 1_555 1_555
H6 C8 1_555 1_555
O8 C7 1_555 1_555
H11 O8 1_555 1_555
O10 Cu2 1_555 1_555
Cu3 N3 1_555 1_555
Cu4 O11 1_555 1_555
N3 C11 1_555 1_555
N4 C13 1_555 1_555
O11 Sr1 1_555 1_555
O12 Sr1 1_555 1_555
O13 Cu3 1_555 1_555
O14 Cu1 1_555 1_555
O15 C15 1_555 1_555
O16 C14 1_555 1_555
O17 C14 1_555 1_555
C11 H13 1_555 1_555
C12 O12 1_555 1_555
C13 H14 1_555 1_555
C14 C13 1_555 1_555
C15 N3 1_555 1_555
C16 N4 1_555 1_555
C17 C11 1_555 1_555
H15 C17 1_555 1_555
C18 C17 1_555 1_555
H16 C18 1_555 1_555
H17 C18 1_555 1_555
H18 C18 1_555 1_555
C19 C13 1_555 1_555
H19 C19 1_555 1_555
C20 C19 1_555 1_555
H20 C20 1_555 1_555
H21 C20 1_555 1_555
H22 C20 1_555 1_555
O18 C17 1_555 1_555
H23 O18 1_555 1_555
O19 C19 1_555 1_555
H24 O19 1_555 1_555
O20 Cu4 1_555 1_555
Cu5 O4 1_555 1_555
Cu6 O21 1_555 1_555
N5 Cu5 1_555 1_555
O21 Sr1 1_555 1_555
O22 Sr1 1_555 1_555
O23 Cu5 1_555 1_555
O24 Cu3 1_555 1_555
C21 N5 1_555 1_555
H25 C21 1_555 1_555
C22 O22 1_555 1_555
C25 N5 1_555 1_555
C27 C21 1_555 1_555
H27 C27 1_555 1_555
C28 C27 1_555 1_555
H28 C28 1_555 1_555
H29 C28 1_555 1_555
H30 C28 1_555 1_555
O28 C27 1_555 1_555
H35 O28 1_555 1_555
O30 Cu6 1_555 1_555
Sr4 O17 1_555 1_555
Cu8 O16 1_555 1_555
Cu10 N4 1_555 1_555
N7 Cu2 1_555 1_555
N8 Cu4 1_555 1_555
N9 Cu6 1_555 1_555
O31 Cu2 1_555 1_555
O32 Cu4 1_555 1_555
O33 Cu6 1_555 1_555
O34 Cu6 1_555 1_555
O35 Cu2 1_555 1_555
O36 Cu4 1_555 1_555
O37 Sr1 1_555 1_555
O38 Sr1 1_555 1_555
O39 Sr1 1_555 1_555
Cu1 O2 1_555 1_555
Cu2 O37 1_555 1_555
C1 C2 1_555 1_555
Cu3 O11 1_555 1_555
Cu3 O12 1_555 1_555
Cu4 O38 1_555 1_555
O13 C16 1_555 1_555
O14 C12 1_555 1_555
O15 Cu10 1_555 1_555
O17 Cu10 1_555 1_555
C11 C12 1_555 1_555
C15 C16 1_555 1_555
Cu5 O21 1_555 1_555
Cu5 O22 1_555 1_555
Cu6 O39 1_555 1_555
O24 C22 1_555 1_555
C21 C22 1_555 1_555
O20 H37 1_555 1_555
O20 H38 1_555 1_555
O10 H39 1_555 1_555
O10 H40 1_555 1_555
O30 H41 1_555 1_555
O30 H42 1_555 1_555
N6 C23 1_555 1_555
O26 C24 1_555 1_555
O27 C24 1_555 1_555
C23 H26 1_555 1_555
C24 C23 1_555 1_555
C26 N6 1_555 1_555
C29 C23 1_555 1_555
H31 C29 1_555 1_555
C30 C29 1_555 1_555
H32 C30 1_555 1_555
H33 C30 1_555 1_555
H34 C30 1_555 1_555
O29 C29 1_555 1_555
H36 O29 1_555 1_555
Sr4 O27 1_555 1_555
Cu10 O26 1_555 1_555
Cu12 N6 1_555 1_555
O25 Cu12 1_555 1_555
O27 Cu12 1_555 1_555
N9 C23_2 1_555 1_555
O36 C24_2 1_555 1_555
O39 C24_2 1_555 1_555
C23_2 H26_2 1_555 1_555
C24_2 C23_2 1_555 1_555
C26_2 N9 1_555 1_555
C29_2 C23_2 1_555 1_555
H31_2 C29_2 1_555 1_555
C30_2 C29_2 1_555 1_555
H33_2 C30_2 1_555 1_555
H34_2 C30_2 1_555 1_555
O29_2 C29_2 1_555 1_555
H36_2 O29_2 1_555 1_555
Sr4 O1_2 1_555 1_555
Cu8 O1_2 1_555 1_555
O10_2 Cu8 1_555 1_555
Cu10 O11_2 1_555 1_555
O11_2 Sr4 1_555 1_555
O20_2 Cu10 1_555 1_555
Cu12 O21_2 1_555 1_555
O21_2 Sr4 1_555 1_555
O30_2 Cu12 1_555 1_555
O20_2 H38_2 1_555 1_555
O10_2 H40_2 1_555 1_555
O30_2 H42_2 1_555 1_555
Cu1_2 N1_2 1_555 1_555
N1_2 C1_2 1_555 1_555
O3_2 Cu1_2 1_555 1_555
O4_2 C2_2 1_555 1_555
C1_2 H1_2 1_555 1_555
C2_2 O2_2 1_555 1_555
C5_2 N1_2 1_555 1_555
C7_2 C1_2 1_555 1_555
H3_2 C7_2 1_555 1_555
C8_2 C7_2 1_555 1_555
H4_2 C8_2 1_555 1_555
H5_2 C8_2 1_555 1_555
H6_2 C8_2 1_555 1_555
O8_2 C7_2 1_555 1_555
H11_2 O8_2 1_555 1_555
Cu3_2 N3_2 1_555 1_555
N3_2 C11_2 1_555 1_555
N8 C13_2 1_555 1_555
O13_2 Cu3_2 1_555 1_555
O14_2 Cu1_2 1_555 1_555
O32 C15_2 1_555 1_555
O35 C14_2 1_555 1_555
O38 C14_2 1_555 1_555
C11_2 H13_2 1_555 1_555
C12_2 O12_2 1_555 1_555
C13_2 H14_2 1_555 1_555
C14_2 C13_2 1_555 1_555
C15_2 N3_2 1_555 1_555
C16_2 N8 1_555 1_555
C17_2 C11_2 1_555 1_555
H15_2 C17_2 1_555 1_555
C18_2 C17_2 1_555 1_555
H16_2 C18_2 1_555 1_555
H17_2 C18_2 1_555 1_555
H18_2 C18_2 1_555 1_555
C19_2 C13_2 1_555 1_555
H19_2 C19_2 1_555 1_555
C20_2 C19_2 1_555 1_555
H21_2 C20_2 1_555 1_555
H22_2 C20_2 1_555 1_555
O18_2 C17_2 1_555 1_555
H23_2 O18_2 1_555 1_555
O19_2 C19_2 1_555 1_555
H24_2 O19_2 1_555 1_555
Cu5_2 O4_2 1_555 1_555
N5_2 Cu5_2 1_555 1_555
O23_2 Cu5_2 1_555 1_555
O24_2 Cu3_2 1_555 1_555
C21_2 N5_2 1_555 1_555
H25_2 C21_2 1_555 1_555
C22_2 O22_2 1_555 1_555
C25_2 N5_2 1_555 1_555
C27_2 C21_2 1_555 1_555
H27_2 C27_2 1_555 1_555
C28_2 C27_2 1_555 1_555
H28_2 C28_2 1_555 1_555
H29_2 C28_2 1_555 1_555
H30_2 C28_2 1_555 1_555
O28_2 C27_2 1_555 1_555
H35_2 O28_2 1_555 1_555
Cu1_2 O2_2 1_555 1_555
C1_2 C2_2 1_555 1_555
Cu3_2 O12_2 1_555 1_555
O13_2 C16_2 1_555 1_555
O14_2 C12_2 1_555 1_555
C11_2 C12_2 1_555 1_555
C15_2 C16_2 1_555 1_555
Cu5_2 O22_2 1_555 1_555
O24_2 C22_2 1_555 1_555
C21_2 C22_2 1_555 1_555
N7 C3_2 1_555 1_555
O34 C4_2 1_555 1_555
O37 C4_2 1_555 1_555
C3_2 H2_2 1_555 1_555
C4_2 C3_2 1_555 1_555
C6_2 N7 1_555 1_555
C9_2 C3_2 1_555 1_555
H7_2 C9_2 1_555 1_555
C10_2 C9_2 1_555 1_555
H9_2 C10_2 1_555 1_555
H10_2 C10_2 1_555 1_555
O9_2 C9_2 1_555 1_555
H12_2 O9_2 1_555 1_555

#END
