
###############################################################################
#
# This file contains modified crystal structure data generated from the
# MOF subset of the Cambridge Structural Database (CSD) v543 
# hosted by the Cambridge Crystallographic Data Centre (CCDC).
#
# This work is licensed under the Creative Commons
# Attribution-NonCommercial-ShareAlike 4.0 International License.
# To view a copy of this license, visit
# http://creativecommons.org/licenses/by-nc-sa/4.0/
# or send a letter to
# Creative Commons, PO Box 1866, Mountain View, CA 94042, USA.
#
# CIF created using the CSD Python API on 29 September 2022
# The structure has been converted into the P1 space group
# The structure has a 3D framework
# The original CSD entry LIKYAI is in the hexagonal crystal system
# The original CSD entry LIKYAI is in a Sohncke space group
# The framework has been calculated to contain at least 10.0% void space
# The void calculation uses a probe of radius 1.32A, grid spacing 0.4
# The framework is charged, counterions have been retained in the structure
# H atom positions have been added when not included in the experimental data
#
###############################################################################

data_LIKYAI
_chemical_formula_moiety         '(C48 H48 Cl6 Cu12 Er6 N12 O52 Sr2 12+)n'
_symmetry_cell_setting           triclinic
_symmetry_space_group_name_H-M   'P 1'
_symmetry_Int_Tables_number      1
_space_group_name_Hall           'P 1'
loop_
_symmetry_equiv_pos_site_id
_symmetry_equiv_pos_as_xyz
1 x,y,z
_cell_length_a                   17.89360(10)
_cell_length_b                   17.89360(10)
_cell_length_c                   12.94290(10)
_cell_angle_alpha                90
_cell_angle_beta                 90
_cell_angle_gamma                120
_cell_volume                     3588.87
loop_
_atom_site_label
_atom_site_type_symbol
_atom_site_fract_x
_atom_site_fract_y
_atom_site_fract_z
Er1 Er 0.0152(5) 0.3370(5) 0.1501(8)
Er1_2 Er 0.6630(5) 0.6782(7) 0.1501(8)
Er1_3 Er 0.3218(7) 0.9848(5) 0.1501(8)
Er1_4 Er 0.9848(5) 0.6630(5) 0.6501(8)
Er1_5 Er 0.3370(5) 0.3218(7) 0.6501(8)
Er1_6 Er 0.6782(7) 0.0152(5) 0.6501(8)
Cl1 Cl 0.149(2) 0.299(3) 0.165(2)
Cl1_2 Cl 0.701(3) 0.850(4) 0.165(2)
Cl1_3 Cl 0.150(4) 0.851(2) 0.165(2)
Cl1_4 Cl 0.851(2) 0.701(3) 0.665(2)
Cl1_5 Cl 0.299(3) 0.150(4) 0.665(2)
Cl1_6 Cl 0.850(4) 0.149(2) 0.665(2)
N2 N 0.0996(4) 0.5087(5) 0.3990(5)
O4 O 0.2902(4) 0.4925(6) 0.4243(6)
O5 O 0.2350(3) 0.5593(3) 0.5134(5)
O7 O 0.0198(3) 0.5752(4) 0.5054(5)
C1 C 0.1552(5) 0.4787(6) 0.3619(8)
H1 H 0.1233 0.4142 0.3596
C2 C 0.2320(5) 0.5113(6) 0.4373(9)
C5 C 0.0221(5) 0.4827(5) 0.3674(7)
C8 C 0.1905(9) 0.5154(14) 0.2537(10)
O9 O 0.2402(15) 0.6041(12) 0.251(2)
Sr4 Sr 0.3333 0.6667 0.65010(12)
Cu8 Cu 0.13553(5) 0.58203(5) 0.51993(6)
Cu10 Cu 0.41797(5) 0.55350(7) 0.51993(6)
H9 H 0.136022 0.495683 0.201576
H10 H 0.229812 0.488391 0.227204
H12 H 0.290643 0.623219 0.297556
Sr1 Sr 0.6667 0.3333 0.15010(12)
Cu1 Cu 0.86519(5) 0.42445(6) 0.27839(6)
Cu2 Cu 0.86447(5) 0.41797(5) 0.01993(6)
N1 N 0.9041(4) 0.5052(4) 0.3890(6)
O1 O 0.8270(2) 0.3613(2) 0.1501(5)
O2 O 0.7631(3) 0.4409(4) 0.2886(5)
O3 O 0.7035(5) 0.5021(6) 0.3839(7)
O6 O 0.9808(3) 0.4330(4) 0.2942(5)
C3 C 0.7637(5) 0.4891(5) 0.3607(7)
C4 C 0.8471(6) 0.5386(7) 0.4234(10)
H2 H 0.8335 0.5249 0.4983
C6 C 0.9788(4) 0.5248(5) 0.4285(7)
C7 C 0.8894(7) 0.6379(9) 0.4080(17)
O8 O 0.9157(11) 0.6631(9) 0.300(2)
O10 O 0.9444(9) 0.5633(9) 0.1417(17)
Cu3 Cu 0.57555(6) 0.44074(8) 0.27839(6)
Cu4 Cu 0.58203(5) 0.44650(7) 0.01993(6)
N3 N 0.4948(4) 0.3989(6) 0.3890(6)
N4 N 0.4913(5) 0.5909(6) 0.3990(5)
O11 O 0.6387(2) 0.4657(3) 0.1501(5)
O12 O 0.5591(4) 0.3222(5) 0.2886(5)
O13 O 0.4979(6) 0.2014(8) 0.3839(7)
O14 O 0.5075(6) 0.7977(7) 0.4243(6)
O15 O 0.4407(3) 0.6757(4) 0.5134(5)
O16 O 0.5670(4) 0.5478(5) 0.2942(5)
O17 O 0.4248(4) 0.4446(5) 0.5054(5)
C9 C 0.5213(6) 0.6765(8) 0.3619(8)
H3 H 0.5858 0.7091 0.3596
C10 C 0.4887(6) 0.7207(8) 0.4373(9)
C11 C 0.5109(5) 0.2746(7) 0.3607(7)
C12 C 0.4614(7) 0.3085(9) 0.4234(10)
H4 H 0.4751 0.3086 0.4983
C13 C 0.5173(5) 0.5394(7) 0.3674(7)
C14 C 0.4752(5) 0.4540(6) 0.4285(7)
C15 C 0.3621(9) 0.2515(11) 0.4080(17)
C16 C 0.4846(14) 0.6751(17) 0.2537(10)
O18 O 0.3369(9) 0.2526(14) 0.300(2)
O19 O 0.3959(12) 0.6361(19) 0.251(2)
O20 O 0.4367(9) 0.3811(13) 0.1417(17)
Cu5 Cu 0.55926(8) 0.13481(5) 0.27839(6)
Cu6 Cu 0.55350(7) 0.13553(5) 0.01993(6)
N5 N 0.6011(6) 0.0959(4) 0.3890(6)
O21 O 0.5343(3) 0.1730(2) 0.1501(5)
O22 O 0.6778(5) 0.2369(3) 0.2886(5)
O23 O 0.7986(8) 0.2965(5) 0.3839(7)
O26 O 0.4522(5) 0.0192(3) 0.2942(5)
C19 C 0.7254(7) 0.2363(5) 0.3607(7)
C20 C 0.6915(9) 0.1529(6) 0.4234(10)
H6 H 0.6914 0.1665 0.4983
C22 C 0.5460(6) 0.0212(4) 0.4285(7)
C23 C 0.7485(11) 0.1106(7) 0.4080(17)
O28 O 0.7474(14) 0.0843(11) 0.300(2)
O30 O 0.6189(13) 0.0556(9) 0.1417(17)
Cu12 Cu 0.44650(7) 0.86447(5) 0.51993(6)
O34 O 0.7650(3) 0.4407(3) 0.0134(5)
O35 O 0.5593(3) 0.3243(4) 0.0134(5)
O36 O 0.6757(4) 0.2350(3) 0.0134(5)
O37 O 0.9802(3) 0.4248(4) 0.0054(5)
O38 O 0.5752(4) 0.5554(5) 0.0054(5)
O39 O 0.4446(5) 0.0198(3) 0.0054(5)
H7 H 0.946112 0.670291 0.457374
H8 H 0.843099 0.657752 0.429724
H11 H 0.864291 0.634113 0.254425
H13 H 0.724179 0.0538882 0.457374
H14 H 0.814652 0.156901 0.429724
H15 H 0.504317 0.640339 0.201576
H16 H 0.511609 0.74142 0.227204
H18 H 0.365887 0.230178 0.254425
H19 H 0.376781 0.667424 0.297556
H20 H 0.329709 0.275821 0.457374
H21 H 0.342248 0.185348 0.429724
H24 H 0.769822 0.135709 0.254425
N7 N 0.9004(4) 0.4913(5) 0.8990(5)
N8 N 0.5087(5) 0.4091(6) 0.8990(5)
N9 N 0.5909(6) 0.0996(4) 0.8990(5)
O31 O 0.7098(4) 0.5075(6) 0.9243(6)
O32 O 0.4925(6) 0.2023(7) 0.9243(6)
O33 O 0.7977(7) 0.2902(4) 0.9243(6)
N6 N 0.4091(6) 0.9004(4) 0.3990(5)
O24 O 0.2023(7) 0.7098(4) 0.4243(6)
O25 O 0.3243(4) 0.7650(3) 0.5134(5)
O27 O 0.5554(5) 0.9802(3) 0.5054(5)
C17 C 0.3235(8) 0.8448(5) 0.3619(8)
H5 H 0.2909 0.8767 0.3596
C18 C 0.2793(8) 0.7680(5) 0.4373(9)
C21 C 0.4606(7) 0.9779(5) 0.3674(7)
C24 C 0.3249(17) 0.8095(9) 0.2537(10)
O29 O 0.3639(19) 0.7598(15) 0.251(2)
H17 H 0.332576 0.709357 0.297556
H22 H 0.359661 0.863978 0.201576
H23 H 0.25858 0.770188 0.227204
C17_2 C 0.6765(8) 0.1552(5) 0.8619(8)
H5_2 H 0.7091 0.1233 0.8596
C18_2 C 0.7207(8) 0.2320(5) 0.9373(9)
C21_2 C 0.5394(7) 0.0221(5) 0.8674(7)
C24_2 C 0.6751(17) 0.1905(9) 0.7537(10)
O29_2 O 0.6361(19) 0.2402(15) 0.751(2)
H17_2 H 0.667424 0.290643 0.797556
H22_2 H 0.640339 0.136022 0.701576
H23_2 H 0.74142 0.229812 0.727204
Cu1_2 Cu 0.13481(5) 0.57555(6) 0.77839(6)
N1_2 N 0.0959(4) 0.4948(4) 0.8890(6)
O1_2 O 0.1730(2) 0.6387(2) 0.6501(5)
O2_2 O 0.2369(3) 0.5591(4) 0.7886(5)
O3_2 O 0.2965(5) 0.4979(6) 0.8839(7)
O6_2 O 0.0192(3) 0.5670(4) 0.7942(5)
C3_2 C 0.2363(5) 0.5109(5) 0.8607(7)
C4_2 C 0.1529(6) 0.4614(7) 0.9234(10)
H2_2 H 0.1665 0.4751 0.9983
C6_2 C 0.0212(4) 0.4752(5) 0.9285(7)
C7_2 C 0.1106(7) 0.3621(9) 0.9080(17)
O8_2 O 0.0843(11) 0.3369(9) 0.800(2)
O10_2 O 0.0556(9) 0.4367(9) 0.6417(17)
Cu3_2 Cu 0.42445(6) 0.55926(8) 0.77839(6)
N3_2 N 0.5052(4) 0.6011(6) 0.8890(6)
O11_2 O 0.3613(2) 0.5343(3) 0.6501(5)
O12_2 O 0.4409(4) 0.6778(5) 0.7886(5)
O13_2 O 0.5021(6) 0.7986(8) 0.8839(7)
O16_2 O 0.4330(4) 0.4522(5) 0.7942(5)
C9_2 C 0.4787(6) 0.3235(8) 0.8619(8)
H3_2 H 0.4142 0.2909 0.8596
C10_2 C 0.5113(6) 0.2793(8) 0.9373(9)
C11_2 C 0.4891(5) 0.7254(7) 0.8607(7)
C12_2 C 0.5386(7) 0.6915(9) 0.9234(10)
H4_2 H 0.5249 0.6914 0.9983
C13_2 C 0.4827(5) 0.4606(7) 0.8674(7)
C14_2 C 0.5248(5) 0.5460(6) 0.9285(7)
C15_2 C 0.6379(9) 0.7485(11) 0.9080(17)
C16_2 C 0.5154(14) 0.3249(17) 0.7537(10)
O18_2 O 0.6631(9) 0.7474(14) 0.800(2)
O19_2 O 0.6041(12) 0.3639(19) 0.751(2)
O20_2 O 0.5633(9) 0.6189(13) 0.6417(17)
Cu5_2 Cu 0.44074(8) 0.86519(5) 0.77839(6)
N5_2 N 0.3989(6) 0.9041(4) 0.8890(6)
O21_2 O 0.4657(3) 0.8270(2) 0.6501(5)
O22_2 O 0.3222(5) 0.7631(3) 0.7886(5)
O23_2 O 0.2014(8) 0.7035(5) 0.8839(7)
O26_2 O 0.5478(5) 0.9808(3) 0.7942(5)
C19_2 C 0.2746(7) 0.7637(5) 0.8607(7)
C20_2 C 0.3085(9) 0.8471(6) 0.9234(10)
H6_2 H 0.3086 0.8335 0.9983
C22_2 C 0.4540(6) 0.9788(4) 0.9285(7)
C23_2 C 0.2515(11) 0.8894(7) 0.9080(17)
O28_2 O 0.2526(14) 0.9157(11) 0.800(2)
O30_2 O 0.3811(13) 0.9444(9) 0.6417(17)
H7_2 H 0.0538882 0.329709 0.957374
H8_2 H 0.156901 0.342248 0.929724
H11_2 H 0.135709 0.365887 0.754425
H13_2 H 0.275821 0.946112 0.957374
H14_2 H 0.185348 0.843099 0.929724
H15_2 H 0.495683 0.359661 0.701576
H16_2 H 0.488391 0.25858 0.727204
H18_2 H 0.634113 0.769822 0.754425
H19_2 H 0.623219 0.332576 0.797556
H20_2 H 0.670291 0.724179 0.957374
H21_2 H 0.657752 0.814652 0.929724
H24_2 H 0.230178 0.864291 0.754425
C1_2 C 0.8448(5) 0.5213(6) 0.8619(8)
H1_2 H 0.8767 0.5858 0.8596
C2_2 C 0.7680(5) 0.4887(6) 0.9373(9)
C5_2 C 0.9779(5) 0.5173(5) 0.8674(7)
C8_2 C 0.8095(9) 0.4846(14) 0.7537(10)
O9_2 O 0.7598(15) 0.3959(12) 0.751(2)
H9_2 H 0.863978 0.504317 0.701576
H10_2 H 0.770188 0.511609 0.727204
H12_2 H 0.709357 0.376781 0.797556
loop_
_geom_bond_atom_site_label_1
_geom_bond_atom_site_label_2
_geom_bond_site_symmetry_1
_geom_bond_site_symmetry_2
N2 C1 1_555 1_555
O4 C2 1_555 1_555
O5 C2 1_555 1_555
C1 H1 1_555 1_555
C2 C1 1_555 1_555
C5 N2 1_555 1_555
C8 C1 1_555 1_555
O9 C8 1_555 1_555
Sr4 O5 1_555 1_555
Cu8 N2 1_555 1_555
Cu10 O4 1_555 1_555
O5 Cu8 1_555 1_555
O7 Cu8 1_555 1_555
C8 H9 1_555 1_555
C8 H10 1_555 1_555
O9 H12 1_555 1_555
Sr1 O1 1_555 1_555
Cu1 N1 1_555 1_555
Cu2 O1 1_555 1_555
N1 C4 1_555 1_555
O1 Cu1 1_555 1_555
O2 Sr1 1_555 1_555
O3 C3 1_555 1_555
O6 Cu1 1_555 1_555
C3 O2 1_555 1_555
C4 C3 1_555 1_555
H2 C4 1_555 1_555
C6 N1 1_555 1_555
C7 C4 1_555 1_555
O8 C7 1_555 1_555
O10 Cu1 1_555 1_555
Cu3 O3 1_555 1_555
Cu4 O11 1_555 1_555
N3 Cu3 1_555 1_555
N4 C9 1_555 1_555
O11 Sr1 1_555 1_555
O12 Sr1 1_555 1_555
O13 C11 1_555 1_555
O14 C10 1_555 1_555
O15 C10 1_555 1_555
O16 Cu3 1_555 1_555
O17 C14 1_555 1_555
C9 H3 1_555 1_555
C10 C9 1_555 1_555
C11 O12 1_555 1_555
C12 N3 1_555 1_555
H4 C12 1_555 1_555
C13 N4 1_555 1_555
C14 N3 1_555 1_555
C15 C12 1_555 1_555
C16 C9 1_555 1_555
O18 C15 1_555 1_555
O19 C16 1_555 1_555
O20 Cu3 1_555 1_555
Cu5 O13 1_555 1_555
Cu6 O21 1_555 1_555
N5 Cu5 1_555 1_555
O21 Sr1 1_555 1_555
O22 Sr1 1_555 1_555
O23 Cu1 1_555 1_555
O26 Cu5 1_555 1_555
C19 O22 1_555 1_555
C20 N5 1_555 1_555
H6 C20 1_555 1_555
C22 N5 1_555 1_555
C23 C20 1_555 1_555
O28 C23 1_555 1_555
O30 Cu5 1_555 1_555
Sr4 O15 1_555 1_555
Cu10 N4 1_555 1_555
Cu12 O14 1_555 1_555
O34 Sr1 1_555 1_555
O35 Sr1 1_555 1_555
O36 Sr1 1_555 1_555
O37 Cu2 1_555 1_555
O38 Cu4 1_555 1_555
O39 Cu6 1_555 1_555
Cu1 O2 1_555 1_555
Cu2 O10 1_555 1_555
Cu2 O34 1_555 1_555
Cu3 O11 1_555 1_555
Cu3 O12 1_555 1_555
Cu4 O20 1_555 1_555
Cu4 O35 1_555 1_555
O15 Cu10 1_555 1_555
O16 C13 1_555 1_555
O17 Cu10 1_555 1_555
C11 C12 1_555 1_555
C13 C14 1_555 1_555
Cu5 O21 1_555 1_555
Cu5 O22 1_555 1_555
Cu6 O30 1_555 1_555
Cu6 O36 1_555 1_555
O23 C19 1_555 1_555
C19 C20 1_555 1_555
C7 H7 1_555 1_555
C7 H8 1_555 1_555
O8 H11 1_555 1_555
C23 H13 1_555 1_555
C23 H14 1_555 1_555
C16 H15 1_555 1_555
C16 H16 1_555 1_555
O18 H18 1_555 1_555
O19 H19 1_555 1_555
C15 H20 1_555 1_555
C15 H21 1_555 1_555
O28 H24 1_555 1_555
N6 C17 1_555 1_555
O24 C18 1_555 1_555
O25 C18 1_555 1_555
C17 H5 1_555 1_555
C18 C17 1_555 1_555
C21 N6 1_555 1_555
C24 C17 1_555 1_555
O29 C24 1_555 1_555
Sr4 O25 1_555 1_555
Cu8 O24 1_555 1_555
Cu12 N6 1_555 1_555
O25 Cu12 1_555 1_555
O27 Cu12 1_555 1_555
O29 H17 1_555 1_555
C24 H22 1_555 1_555
C24 H23 1_555 1_555
N9 C17_2 1_555 1_555
O33 C18_2 1_555 1_555
C17_2 H5_2 1_555 1_555
C18_2 C17_2 1_555 1_555
C21_2 N9 1_555 1_555
C24_2 C17_2 1_555 1_555
O29_2 C24_2 1_555 1_555
O29_2 H17_2 1_555 1_555
C24_2 H22_2 1_555 1_555
C24_2 H23_2 1_555 1_555
Sr4 O1_2 1_555 1_555
Cu1_2 N1_2 1_555 1_555
Cu8 O1_2 1_555 1_555
N1_2 C4_2 1_555 1_555
O1_2 Cu1_2 1_555 1_555
O2_2 Sr4 1_555 1_555
O3_2 C3_2 1_555 1_555
O6_2 Cu1_2 1_555 1_555
C3_2 O2_2 1_555 1_555
C4_2 C3_2 1_555 1_555
H2_2 C4_2 1_555 1_555
C6_2 N1_2 1_555 1_555
C7_2 C4_2 1_555 1_555
O8_2 C7_2 1_555 1_555
O10_2 Cu1_2 1_555 1_555
Cu3_2 O3_2 1_555 1_555
Cu10 O11_2 1_555 1_555
N3_2 Cu3_2 1_555 1_555
N8 C9_2 1_555 1_555
O11_2 Sr4 1_555 1_555
O12_2 Sr4 1_555 1_555
O13_2 C11_2 1_555 1_555
O32 C10_2 1_555 1_555
O16_2 Cu3_2 1_555 1_555
C9_2 H3_2 1_555 1_555
C10_2 C9_2 1_555 1_555
C11_2 O12_2 1_555 1_555
C12_2 N3_2 1_555 1_555
H4_2 C12_2 1_555 1_555
C13_2 N8 1_555 1_555
C14_2 N3_2 1_555 1_555
C15_2 C12_2 1_555 1_555
C16_2 C9_2 1_555 1_555
O18_2 C15_2 1_555 1_555
O19_2 C16_2 1_555 1_555
O20_2 Cu3_2 1_555 1_555
Cu5_2 O13_2 1_555 1_555
Cu12 O21_2 1_555 1_555
N5_2 Cu5_2 1_555 1_555
O21_2 Sr4 1_555 1_555
O22_2 Sr4 1_555 1_555
O23_2 Cu1_2 1_555 1_555
O26_2 Cu5_2 1_555 1_555
C19_2 O22_2 1_555 1_555
C20_2 N5_2 1_555 1_555
H6_2 C20_2 1_555 1_555
C22_2 N5_2 1_555 1_555
C23_2 C20_2 1_555 1_555
O28_2 C23_2 1_555 1_555
O30_2 Cu5_2 1_555 1_555
Cu1_2 O2_2 1_555 1_555
Cu8 O10_2 1_555 1_555
Cu3_2 O11_2 1_555 1_555
Cu3_2 O12_2 1_555 1_555
Cu10 O20_2 1_555 1_555
O16_2 C13_2 1_555 1_555
C11_2 C12_2 1_555 1_555
C13_2 C14_2 1_555 1_555
Cu5_2 O21_2 1_555 1_555
Cu5_2 O22_2 1_555 1_555
Cu12 O30_2 1_555 1_555
O23_2 C19_2 1_555 1_555
C19_2 C20_2 1_555 1_555
C7_2 H7_2 1_555 1_555
C7_2 H8_2 1_555 1_555
O8_2 H11_2 1_555 1_555
C23_2 H13_2 1_555 1_555
C23_2 H14_2 1_555 1_555
C16_2 H15_2 1_555 1_555
C16_2 H16_2 1_555 1_555
O18_2 H18_2 1_555 1_555
O19_2 H19_2 1_555 1_555
C15_2 H20_2 1_555 1_555
C15_2 H21_2 1_555 1_555
O28_2 H24_2 1_555 1_555
N7 C1_2 1_555 1_555
O31 C2_2 1_555 1_555
C1_2 H1_2 1_555 1_555
C2_2 C1_2 1_555 1_555
C5_2 N7 1_555 1_555
C8_2 C1_2 1_555 1_555
O9_2 C8_2 1_555 1_555
C8_2 H9_2 1_555 1_555
C8_2 H10_2 1_555 1_555
O9_2 H12_2 1_555 1_555

#END
