
###############################################################################
#
# This file contains modified crystal structure data generated from the
# MOF subset of the Cambridge Structural Database (CSD) v543 
# hosted by the Cambridge Crystallographic Data Centre (CCDC).
#
# This work is licensed under the Creative Commons
# Attribution-NonCommercial-ShareAlike 4.0 International License.
# To view a copy of this license, visit
# http://creativecommons.org/licenses/by-nc-sa/4.0/
# or send a letter to
# Creative Commons, PO Box 1866, Mountain View, CA 94042, USA.
#
# CIF created using the CSD Python API on 29 September 2022
# The structure has been converted into the P1 space group
# The structure has a 3D framework
# The original CSD entry LIKZAJ is in the tetragonal crystal system
# The original CSD entry LIKZAJ is in a Sohncke space group
# The framework has been calculated to contain at least 10.0% void space
# The void calculation uses a probe of radius 1.32A, grid spacing 0.4
#
###############################################################################

data_LIKZAJ
_chemical_formula_moiety         '(C120 H56 Cu8 N8 O56)n'
_symmetry_cell_setting           triclinic
_symmetry_space_group_name_H-M   'P 1'
_symmetry_Int_Tables_number      1
_space_group_name_Hall           'P 1'
loop_
_symmetry_equiv_pos_site_id
_symmetry_equiv_pos_as_xyz
1 x,y,z
_cell_length_a                   18.2466(3)
_cell_length_b                   18.2466(3)
_cell_length_c                   16.9110(4)
_cell_angle_alpha                90
_cell_angle_beta                 90
_cell_angle_gamma                90
_cell_volume                     5630.32
loop_
_atom_site_label
_atom_site_type_symbol
_atom_site_fract_x
_atom_site_fract_y
_atom_site_fract_z
Cu1 Cu 0.20141(4) 0.72434(4) 0.05321(5)
O7 O 0.1366(3) 0.6611(3) 0.1354(3)
H6 H 0.1183 0.6892 0.1703
H7 H 0.1024 0.6397 0.1103
Cu7 Cu 0.22434(4) 0.29859(4) 0.05321(5)
O15 O 0.3569(2) 0.7670(2) 0.0150(2)
O17 O 0.2546(2) 0.8807(2) 0.0168(2)
O18 O 0.2926(2) 0.7109(2) 0.1101(2)
O20 O 0.1871(3) 0.8198(2) 0.1072(2)
O1 O 0.2330(2) 0.6431(2) 0.9850(2)
O2 O 0.2454(2) 0.3807(2) 0.9832(2)
O3 O 0.2891(2) 0.7074(2) 0.8899(2)
O4 O 0.3129(3) 0.3198(2) 0.8928(2)
C1 C 0.3365(4) 0.4507(3) 0.8078(3)
H1 H 0.3552 0.4085 0.7843
C2 C 0.2986(3) 0.4466(3) 0.8803(3)
C3 C 0.2767(3) 0.5123(3) 0.9154(3)
H2 H 0.2533 0.5112 0.9643
O5 O 0.4736(3) 0.5903(3) 0.7429(3)
N1 N 0.3767(4) 0.5212(3) 0.6931(3)
C4 C 0.3218(3) 0.5812(3) 0.8070(4)
H3 H 0.3282 0.6257 0.7810
C5 C 0.2866(3) 0.3783(3) 0.9223(3)
C6 C 0.3454(4) 0.5166(4) 0.7731(3)
C7 C 0.2685(3) 0.6495(3) 0.9223(3)
C8 C 0.4588(4) 0.5915(4) 0.6025(4)
O6 O 0.2891(4) 0.4502(4) 0.6426(3)
C9 C 0.2890(4) 0.5787(3) 0.8792(4)
C10 C 0.4396(4) 0.5706(4) 0.6848(4)
C11 C 0.5105(5) 0.6421(5) 0.5917(4)
H4 H 0.5350 0.6620 0.6349
C12 C 0.3398(5) 0.4917(5) 0.6304(4)
C13 C 0.3346(6) 0.4721(5) 0.4869(5)
H5 H 0.2969 0.4385 0.4950
C14 C 0.3673(4) 0.5043(3) 0.5491(4)
C15 C 0.4217(4) 0.5558(4) 0.5376(3)
O9 O 0.6193(2) 0.7546(2) 0.0168(2)
O11 O 0.6802(2) 0.6871(3) 0.1072(2)
C16 C 0.5493(3) 0.6635(4) 0.1922(3)
H8 H 0.5915 0.6448 0.2157
C17 C 0.5534(3) 0.7014(3) 0.1197(3)
C18 C 0.4877(3) 0.7233(3) 0.0846(3)
H9 H 0.4888 0.7467 0.0357
O12 O 0.4097(3) 0.5264(3) 0.2571(3)
N2 N 0.4788(3) 0.6233(4) 0.3069(3)
C19 C 0.4188(3) 0.6782(3) 0.1930(4)
H10 H 0.3743 0.6718 0.2190
C20 C 0.6217(3) 0.7134(3) 0.0777(3)
C21 C 0.4834(4) 0.6546(4) 0.2269(3)
C22 C 0.3505(3) 0.7315(3) 0.0777(3)
C23 C 0.4085(4) 0.5412(4) 0.3975(4)
O13 O 0.5498(4) 0.7109(4) 0.3574(3)
C24 C 0.4213(3) 0.7110(4) 0.1208(4)
C25 C 0.4294(4) 0.5604(4) 0.3152(4)
C26 C 0.3579(5) 0.4895(5) 0.4083(4)
H11 H 0.3380 0.4650 0.3651
C27 C 0.5083(5) 0.6602(5) 0.3696(4)
C28 C 0.5279(5) 0.6654(6) 0.5131(5)
H12 H 0.5615 0.7031 0.5050
C29 C 0.4957(3) 0.6327(4) 0.4509(4)
C30 C 0.4442(4) 0.5783(4) 0.4624(3)
Cu2 Cu 0.27566(4) 0.79859(4) 0.94679(5)
O14 O 0.3389(3) 0.8634(3) 0.8646(3)
H13 H 0.3108 0.8817 0.8297
H14 H 0.3603 0.8976 0.8897
Cu4 Cu 0.77566(4) 0.70141(4) 0.05321(5)
Cu8 Cu 0.29859(4) 0.22434(4) 0.94679(5)
O16 O 0.1193(2) 0.7454(2) 0.9832(2)
O19 O 0.1802(2) 0.8129(3) 0.8928(2)
Cu5 Cu 0.70141(4) 0.77566(4) 0.94679(5)
C1_2 C 0.0493(3) 0.8365(4) 0.8078(3)
H1_2 H 0.0915 0.8552 0.7843
C2_2 C 0.0534(3) 0.7986(3) 0.8803(3)
C5_2 C 0.1217(3) 0.7866(3) 0.9223(3)
O6_2 O 0.0498(4) 0.7891(4) 0.6426(3)
C12_2 C 0.0083(5) 0.8398(5) 0.6304(4)
C13_2 C 0.0279(5) 0.8346(6) 0.4869(5)
H5_2 H 0.0615 0.7969 0.4950
C26_2 C 0.0105(5) 0.8579(5) 0.4083(4)
H11_2 H 0.0350 0.8380 0.3651
C11_2 C 0.8579(5) 0.0105(5) 0.5917(4)
H4_2 H 0.8380 0.0350 0.6349
O9_2 O 0.7454(2) 0.1193(2) 0.0168(2)
O11_2 O 0.8129(3) 0.1802(2) 0.1072(2)
C16_2 C 0.8365(4) 0.0493(3) 0.1922(3)
H8_2 H 0.8552 0.0915 0.2157
C17_2 C 0.7986(3) 0.0534(3) 0.1197(3)
C20_2 C 0.7866(3) 0.1217(3) 0.0777(3)
O13_2 O 0.7891(4) 0.0498(4) 0.3574(3)
C27_2 C 0.8398(5) 0.0083(5) 0.3696(4)
C28_2 C 0.8346(6) 0.0279(5) 0.5131(5)
H12_2 H 0.7969 0.0615 0.5050
Cu4_2 Cu 0.79859(4) 0.27566(4) 0.05321(5)
Cu5_2 Cu 0.72434(4) 0.20141(4) 0.94679(5)
O7_2 O 0.8389(3) 0.6366(3) 0.1354(3)
H6_2 H 0.8108 0.6183 0.1703
H7_2 H 0.8603 0.6024 0.1103
O15_2 O 0.7330(2) 0.8569(2) 0.0150(2)
O18_2 O 0.7891(2) 0.7926(2) 0.1101(2)
O1_2 O 0.8569(2) 0.7330(2) 0.9850(2)
O3_2 O 0.7926(2) 0.7891(2) 0.8899(2)
C3_2 C 0.9877(3) 0.7767(3) 0.9154(3)
H2_2 H 0.9888 0.7533 0.9643
O5_2 O 0.9097(3) 0.9736(3) 0.7429(3)
N1_2 N 0.9788(3) 0.8767(4) 0.6931(3)
C4_2 C 0.9188(3) 0.8218(3) 0.8070(4)
H3_2 H 0.8743 0.8282 0.7810
C6_2 C 0.9834(4) 0.8454(4) 0.7731(3)
C7_2 C 0.8505(3) 0.7685(3) 0.9223(3)
C8_2 C 0.9085(4) 0.9588(4) 0.6025(4)
C9_2 C 0.9213(3) 0.7890(4) 0.8792(4)
C10_2 C 0.9294(4) 0.9396(4) 0.6848(4)
C14_2 C 0.9957(3) 0.8673(4) 0.5491(4)
C15_2 C 0.9442(4) 0.9217(4) 0.5376(3)
C18_2 C 0.7767(3) 0.9877(3) 0.0846(3)
H9_2 H 0.7533 0.9888 0.0357
O12_2 O 0.9736(3) 0.9097(3) 0.2571(3)
N2_2 N 0.8767(4) 0.9788(3) 0.3069(3)
C19_2 C 0.8218(3) 0.9188(3) 0.1930(4)
H10_2 H 0.8282 0.8743 0.2190
C21_2 C 0.8454(4) 0.9834(4) 0.2269(3)
C22_2 C 0.7685(3) 0.8505(3) 0.0777(3)
C23_2 C 0.9588(4) 0.9085(4) 0.3975(4)
C24_2 C 0.7890(4) 0.9213(3) 0.1208(4)
C25_2 C 0.9396(4) 0.9294(4) 0.3152(4)
C29_2 C 0.8673(4) 0.9957(3) 0.4509(4)
C30_2 C 0.9217(4) 0.9442(4) 0.4624(3)
O14_2 O 0.6366(3) 0.8389(3) 0.8646(3)
H13_2 H 0.6183 0.8108 0.8297
H14_2 H 0.6024 0.8603 0.8897
O16_2 O 0.7546(2) 0.6193(2) 0.9832(2)
O19_2 O 0.6871(3) 0.6802(2) 0.8928(2)
O7_3 O 0.8634(3) 0.3389(3) 0.1354(3)
H6_3 H 0.8817 0.3108 0.1703
H7_3 H 0.8976 0.3603 0.1103
O15_3 O 0.6431(2) 0.2330(2) 0.0150(2)
O18_3 O 0.7074(2) 0.2891(2) 0.1101(2)
O1_3 O 0.7670(2) 0.3569(2) 0.9850(2)
O3_3 O 0.7109(2) 0.2926(2) 0.8899(2)
C1_3 C 0.6635(4) 0.5493(3) 0.8078(3)
H1_3 H 0.6448 0.5915 0.7843
C2_3 C 0.7014(3) 0.5534(3) 0.8803(3)
C3_3 C 0.7233(3) 0.4877(3) 0.9154(3)
H2_3 H 0.7467 0.4888 0.9643
O5_3 O 0.5264(3) 0.4097(3) 0.7429(3)
N1_3 N 0.6233(4) 0.4788(3) 0.6931(3)
C4_3 C 0.6782(3) 0.4188(3) 0.8070(4)
H3_3 H 0.6718 0.3743 0.7810
C5_3 C 0.7134(3) 0.6217(3) 0.9223(3)
C6_3 C 0.6546(4) 0.4834(4) 0.7731(3)
C7_3 C 0.7315(3) 0.3505(3) 0.9223(3)
C8_3 C 0.5412(4) 0.4085(4) 0.6025(4)
O6_3 O 0.7109(4) 0.5498(4) 0.6426(3)
C9_3 C 0.7110(4) 0.4213(3) 0.8792(4)
C10_3 C 0.5604(4) 0.4294(4) 0.6848(4)
C11_3 C 0.4895(5) 0.3579(5) 0.5917(4)
H4_3 H 0.4650 0.3380 0.6349
C12_3 C 0.6602(5) 0.5083(5) 0.6304(4)
C13_3 C 0.6654(6) 0.5279(5) 0.4869(5)
H5_3 H 0.7031 0.5615 0.4950
C14_3 C 0.6327(4) 0.4957(3) 0.5491(4)
C15_3 C 0.5783(4) 0.4442(4) 0.5376(3)
O9_3 O 0.3807(2) 0.2454(2) 0.0168(2)
O11_3 O 0.3198(2) 0.3129(3) 0.1072(2)
C16_3 C 0.4507(3) 0.3365(4) 0.1922(3)
H8_3 H 0.4085 0.3552 0.2157
C17_3 C 0.4466(3) 0.2986(3) 0.1197(3)
C18_3 C 0.5123(3) 0.2767(3) 0.0846(3)
H9_3 H 0.5112 0.2533 0.0357
O12_3 O 0.5903(3) 0.4736(3) 0.2571(3)
N2_3 N 0.5212(3) 0.3767(4) 0.3069(3)
C19_3 C 0.5812(3) 0.3218(3) 0.1930(4)
H10_3 H 0.6257 0.3282 0.2190
C20_3 C 0.3783(3) 0.2866(3) 0.0777(3)
C21_3 C 0.5166(4) 0.3454(4) 0.2269(3)
C22_3 C 0.6495(3) 0.2685(3) 0.0777(3)
C23_3 C 0.5915(4) 0.4588(4) 0.3975(4)
O13_3 O 0.4502(4) 0.2891(4) 0.3574(3)
C24_3 C 0.5787(3) 0.2890(4) 0.1208(4)
C25_3 C 0.5706(4) 0.4396(4) 0.3152(4)
C26_3 C 0.6421(5) 0.5105(5) 0.4083(4)
H11_3 H 0.6620 0.5350 0.3651
C27_3 C 0.4917(5) 0.3398(5) 0.3696(4)
C28_3 C 0.4721(5) 0.3346(6) 0.5131(5)
H12_3 H 0.4385 0.2969 0.5050
C29_3 C 0.5043(3) 0.3673(4) 0.4509(4)
C30_3 C 0.5558(4) 0.4217(4) 0.4624(3)
O14_3 O 0.6611(3) 0.1366(3) 0.8646(3)
H13_3 H 0.6892 0.1183 0.8297
H14_3 H 0.6397 0.1024 0.8897
O16_3 O 0.8807(2) 0.2546(2) 0.9832(2)
O19_3 O 0.8198(2) 0.1871(3) 0.8928(2)
O7_4 O 0.1611(3) 0.3634(3) 0.1354(3)
H6_4 H 0.1892 0.3817 0.1703
H7_4 H 0.1397 0.3976 0.1103
O15_4 O 0.2670(2) 0.1431(2) 0.0150(2)
O18_4 O 0.2109(2) 0.2074(2) 0.1101(2)
O1_4 O 0.1431(2) 0.2670(2) 0.9850(2)
O3_4 O 0.2074(2) 0.2109(2) 0.8899(2)
C3_4 C 0.0123(3) 0.2233(3) 0.9154(3)
H2_4 H 0.0112 0.2467 0.9643
O5_4 O 0.0903(3) 0.0264(3) 0.7429(3)
N1_4 N 0.0212(3) 0.1233(4) 0.6931(3)
C4_4 C 0.0812(3) 0.1782(3) 0.8070(4)
H3_4 H 0.1257 0.1718 0.7810
C6_4 C 0.0166(4) 0.1546(4) 0.7731(3)
C7_4 C 0.1495(3) 0.2315(3) 0.9223(3)
C8_4 C 0.0915(4) 0.0412(4) 0.6025(4)
C9_4 C 0.0787(3) 0.2110(4) 0.8792(4)
C10_4 C 0.0706(4) 0.0604(4) 0.6848(4)
C14_4 C 0.0043(3) 0.1327(4) 0.5491(4)
C15_4 C 0.0558(4) 0.0783(4) 0.5376(3)
C18_4 C 0.2233(3) 0.0123(3) 0.0846(3)
H9_4 H 0.2467 0.0112 0.0357
O12_4 O 0.0264(3) 0.0903(3) 0.2571(3)
N2_4 N 0.1233(4) 0.0212(3) 0.3069(3)
C19_4 C 0.1782(3) 0.0812(3) 0.1930(4)
H10_4 H 0.1718 0.1257 0.2190
C21_4 C 0.1546(4) 0.0166(4) 0.2269(3)
C22_4 C 0.2315(3) 0.1495(3) 0.0777(3)
C23_4 C 0.0412(4) 0.0915(4) 0.3975(4)
C24_4 C 0.2110(4) 0.0787(3) 0.1208(4)
C25_4 C 0.0604(4) 0.0706(4) 0.3152(4)
C29_4 C 0.1327(4) 0.0043(3) 0.4509(4)
C30_4 C 0.0783(4) 0.0558(4) 0.4624(3)
O14_4 O 0.3634(3) 0.1611(3) 0.8646(3)
H13_4 H 0.3817 0.1892 0.8297
H14_4 H 0.3976 0.1397 0.8897
C11_4 C 0.1421(5) 0.9895(5) 0.5917(4)
H4_4 H 0.1620 0.9650 0.6349
C16_4 C 0.1635(4) 0.9507(3) 0.1922(3)
H8_4 H 0.1448 0.9085 0.2157
C17_4 C 0.2014(3) 0.9466(3) 0.1197(3)
C20_4 C 0.2134(3) 0.8783(3) 0.0777(3)
O13_4 O 0.2109(4) 0.9502(4) 0.3574(3)
C27_4 C 0.1602(5) 0.9917(5) 0.3696(4)
C28_4 C 0.1654(6) 0.9721(5) 0.5131(5)
H12_4 H 0.2031 0.9385 0.5050
C1_4 C 0.9507(3) 0.1635(4) 0.8078(3)
H1_4 H 0.9085 0.1448 0.7843
C2_4 C 0.9466(3) 0.2014(3) 0.8803(3)
C5_4 C 0.8783(3) 0.2134(3) 0.9223(3)
O6_4 O 0.9502(4) 0.2109(4) 0.6426(3)
C12_4 C 0.9917(5) 0.1602(5) 0.6304(4)
C13_4 C 0.9721(5) 0.1654(6) 0.4869(5)
H5_4 H 0.9385 0.2031 0.4950
C26_4 C 0.9895(5) 0.1421(5) 0.4083(4)
H11_4 H 0.9650 0.1620 0.3651
loop_
_geom_bond_atom_site_label_1
_geom_bond_atom_site_label_2
_geom_bond_site_symmetry_1
_geom_bond_site_symmetry_2
O7 Cu1 1_555 1_555
H6 O7 1_555 1_555
H7 O7 1_555 1_555
O18 Cu1 1_555 1_555
O20 Cu1 1_555 1_555
O1 C7 1_555 1_555
O2 C5 1_555 1_555
O3 C7 1_555 1_555
O4 C5 1_555 1_555
C1 H1 1_555 1_555
C2 C1 1_555 1_555
C3 C2 1_555 1_555
H2 C3 1_555 1_555
O5 C10 1_555 1_555
N1 C6 1_555 1_555
C4 H3 1_555 1_555
C5 C2 1_555 1_555
C6 C1 1_555 1_555
C7 C9 1_555 1_555
C8 C10 1_555 1_555
O6 C12 1_555 1_555
C9 C3 1_555 1_555
C10 N1 1_555 1_555
C11 C8 1_555 1_555
H4 C11 1_555 1_555
C12 N1 1_555 1_555
C13 H5 1_555 1_555
C14 C12 1_555 1_555
C15 C8 1_555 1_555
O15 C22 1_555 1_555
O9 C20 1_555 1_555
O18 C22 1_555 1_555
O11 C20 1_555 1_555
C16 H8 1_555 1_555
C17 C16 1_555 1_555
C18 C17 1_555 1_555
H9 C18 1_555 1_555
O12 C25 1_555 1_555
N2 C21 1_555 1_555
C19 H10 1_555 1_555
C20 C17 1_555 1_555
C21 C16 1_555 1_555
C22 C24 1_555 1_555
C23 C25 1_555 1_555
O13 C27 1_555 1_555
C24 C18 1_555 1_555
C25 N2 1_555 1_555
C26 C13 1_555 1_555
H11 C26 1_555 1_555
C27 N2 1_555 1_555
C28 C11 1_555 1_555
H12 C28 1_555 1_555
C29 C27 1_555 1_555
C30 C15 1_555 1_555
O14 Cu2 1_555 1_555
H13 O14 1_555 1_555
H14 O14 1_555 1_555
Cu4 O11 1_555 1_555
Cu8 O4 1_555 1_555
O19 Cu2 1_555 1_555
O3 Cu2 1_555 1_555
C4 C6 1_555 1_555
C4 C9 1_555 1_555
C13 C14 1_555 1_555
C14 C15 1_555 1_555
C19 C21 1_555 1_555
C19 C24 1_555 1_555
C23 C26 1_555 1_555
C23 C30 1_555 1_555
C28 C29 1_555 1_555
C29 C30 1_555 1_555
O16 C5_2 1_555 1_555
O19 C5_2 1_555 1_555
C1_2 H1_2 1_555 1_555
C2_2 C1_2 1_555 1_555
C5_2 C2_2 1_555 1_555
O6_2 C12_2 1_555 1_555
C13_2 H5_2 1_555 1_555
C26_2 C13_2 1_555 1_555
H11_2 C26_2 1_555 1_555
H4_2 C11_2 1_555 1_555
O9_2 C20_2 1_555 1_555
O11_2 C20_2 1_555 1_555
C16_2 H8_2 1_555 1_555
C17_2 C16_2 1_555 1_555
C20_2 C17_2 1_555 1_555
O13_2 C27_2 1_555 1_555
C28_2 C11_2 1_555 1_555
H12_2 C28_2 1_555 1_555
Cu4_2 O11_2 1_555 1_555
O7_2 Cu4 1_555 1_555
H6_2 O7_2 1_555 1_555
H7_2 O7_2 1_555 1_555
O18_2 Cu4 1_555 1_555
O1_2 C7_2 1_555 1_555
O3_2 C7_2 1_555 1_555
H2_2 C3_2 1_555 1_555
O5_2 C10_2 1_555 1_555
N1_2 C6_2 1_555 1_555
C4_2 H3_2 1_555 1_555
C7_2 C9_2 1_555 1_555
C8_2 C10_2 1_555 1_555
C9_2 C3_2 1_555 1_555
C10_2 N1_2 1_555 1_555
C15_2 C8_2 1_555 1_555
O15_2 C22_2 1_555 1_555
O18_2 C22_2 1_555 1_555
H9_2 C18_2 1_555 1_555
O12_2 C25_2 1_555 1_555
N2_2 C21_2 1_555 1_555
C19_2 H10_2 1_555 1_555
C22_2 C24_2 1_555 1_555
C23_2 C25_2 1_555 1_555
C24_2 C18_2 1_555 1_555
C25_2 N2_2 1_555 1_555
C30_2 C15_2 1_555 1_555
O14_2 Cu5 1_555 1_555
H13_2 O14_2 1_555 1_555
H14_2 O14_2 1_555 1_555
O19_2 Cu5 1_555 1_555
O3_2 Cu5 1_555 1_555
C4_2 C6_2 1_555 1_555
C4_2 C9_2 1_555 1_555
C14_2 C15_2 1_555 1_555
C19_2 C21_2 1_555 1_555
C19_2 C24_2 1_555 1_555
C23_2 C30_2 1_555 1_555
C29_2 C30_2 1_555 1_555
O7_3 Cu4_2 1_555 1_555
H6_3 O7_3 1_555 1_555
H7_3 O7_3 1_555 1_555
O18_3 Cu4_2 1_555 1_555
O1_3 C7_3 1_555 1_555
O16_2 C5_3 1_555 1_555
O3_3 C7_3 1_555 1_555
O19_2 C5_3 1_555 1_555
C1_3 H1_3 1_555 1_555
C2_3 C1_3 1_555 1_555
C3_3 C2_3 1_555 1_555
H2_3 C3_3 1_555 1_555
O5_3 C10_3 1_555 1_555
N1_3 C6_3 1_555 1_555
C4_3 H3_3 1_555 1_555
C5_3 C2_3 1_555 1_555
C6_3 C1_3 1_555 1_555
C7_3 C9_3 1_555 1_555
C8_3 C10_3 1_555 1_555
O6_3 C12_3 1_555 1_555
C9_3 C3_3 1_555 1_555
C10_3 N1_3 1_555 1_555
C11_3 C8_3 1_555 1_555
H4_3 C11_3 1_555 1_555
C12_3 N1_3 1_555 1_555
C13_3 H5_3 1_555 1_555
C14_3 C12_3 1_555 1_555
C15_3 C8_3 1_555 1_555
O15_3 C22_3 1_555 1_555
O9_3 C20_3 1_555 1_555
O18_3 C22_3 1_555 1_555
O11_3 C20_3 1_555 1_555
C16_3 H8_3 1_555 1_555
C17_3 C16_3 1_555 1_555
C18_3 C17_3 1_555 1_555
H9_3 C18_3 1_555 1_555
O12_3 C25_3 1_555 1_555
N2_3 C21_3 1_555 1_555
C19_3 H10_3 1_555 1_555
C20_3 C17_3 1_555 1_555
C21_3 C16_3 1_555 1_555
C22_3 C24_3 1_555 1_555
C23_3 C25_3 1_555 1_555
O13_3 C27_3 1_555 1_555
C24_3 C18_3 1_555 1_555
C25_3 N2_3 1_555 1_555
C26_3 C13_3 1_555 1_555
H11_3 C26_3 1_555 1_555
C27_3 N2_3 1_555 1_555
C28_3 C11_3 1_555 1_555
H12_3 C28_3 1_555 1_555
C29_3 C27_3 1_555 1_555
C30_3 C15_3 1_555 1_555
O14_3 Cu5_2 1_555 1_555
H13_3 O14_3 1_555 1_555
H14_3 O14_3 1_555 1_555
Cu7 O11_3 1_555 1_555
O19_3 Cu5_2 1_555 1_555
O3_3 Cu5_2 1_555 1_555
C4_3 C6_3 1_555 1_555
C4_3 C9_3 1_555 1_555
C13_3 C14_3 1_555 1_555
C14_3 C15_3 1_555 1_555
C19_3 C21_3 1_555 1_555
C19_3 C24_3 1_555 1_555
C23_3 C26_3 1_555 1_555
C23_3 C30_3 1_555 1_555
C28_3 C29_3 1_555 1_555
C29_3 C30_3 1_555 1_555
O7_4 Cu7 1_555 1_555
H6_4 O7_4 1_555 1_555
H7_4 O7_4 1_555 1_555
O18_4 Cu7 1_555 1_555
O1_4 C7_4 1_555 1_555
O3_4 C7_4 1_555 1_555
H2_4 C3_4 1_555 1_555
O5_4 C10_4 1_555 1_555
N1_4 C6_4 1_555 1_555
C4_4 H3_4 1_555 1_555
C7_4 C9_4 1_555 1_555
C8_4 C10_4 1_555 1_555
C9_4 C3_4 1_555 1_555
C10_4 N1_4 1_555 1_555
C15_4 C8_4 1_555 1_555
O15_4 C22_4 1_555 1_555
O18_4 C22_4 1_555 1_555
H9_4 C18_4 1_555 1_555
O12_4 C25_4 1_555 1_555
N2_4 C21_4 1_555 1_555
C19_4 H10_4 1_555 1_555
C22_4 C24_4 1_555 1_555
C23_4 C25_4 1_555 1_555
C24_4 C18_4 1_555 1_555
C25_4 N2_4 1_555 1_555
C30_4 C15_4 1_555 1_555
O14_4 Cu8 1_555 1_555
H13_4 O14_4 1_555 1_555
H14_4 O14_4 1_555 1_555
O3_4 Cu8 1_555 1_555
C4_4 C6_4 1_555 1_555
C4_4 C9_4 1_555 1_555
C14_4 C15_4 1_555 1_555
C19_4 C21_4 1_555 1_555
C19_4 C24_4 1_555 1_555
C23_4 C30_4 1_555 1_555
C29_4 C30_4 1_555 1_555
H4_4 C11_4 1_555 1_555
O17 C20_4 1_555 1_555
O20 C20_4 1_555 1_555
C16_4 H8_4 1_555 1_555
C17_4 C16_4 1_555 1_555
C20_4 C17_4 1_555 1_555
O13_4 C27_4 1_555 1_555
C28_4 C11_4 1_555 1_555
H12_4 C28_4 1_555 1_555
O16_3 C5_4 1_555 1_555
O19_3 C5_4 1_555 1_555
C1_4 H1_4 1_555 1_555
C2_4 C1_4 1_555 1_555
C5_4 C2_4 1_555 1_555
O6_4 C12_4 1_555 1_555
C13_4 H5_4 1_555 1_555
C26_4 C13_4 1_555 1_555
H11_4 C26_4 1_555 1_555

#END
