
###############################################################################
#
# This file contains modified crystal structure data generated from the
# MOF subset of the Cambridge Structural Database (CSD) v543 
# hosted by the Cambridge Crystallographic Data Centre (CCDC).
#
# This work is licensed under the Creative Commons
# Attribution-NonCommercial-ShareAlike 4.0 International License.
# To view a copy of this license, visit
# http://creativecommons.org/licenses/by-nc-sa/4.0/
# or send a letter to
# Creative Commons, PO Box 1866, Mountain View, CA 94042, USA.
#
# CIF created using the CSD Python API on 29 September 2022
# The structure has been converted into the P1 space group
# The structure has a 3D framework
# The original CSD entry LIQHAX is in the triclinic crystal system
# The framework has been calculated to contain at least 10.0% void space
# The void calculation uses a probe of radius 1.32A, grid spacing 0.4
#
###############################################################################

data_LIQHAX
_chemical_formula_moiety         '(C76 H60 Mg4 N6 O22)n'
_symmetry_cell_setting           triclinic
_symmetry_space_group_name_H-M   'P 1'
_symmetry_Int_Tables_number      1
_space_group_name_Hall           'P 1'
loop_
_symmetry_equiv_pos_site_id
_symmetry_equiv_pos_as_xyz
1 x,y,z
_cell_length_a                   13.033(6)
_cell_length_b                   18.532(9)
_cell_length_c                   18.881(9)
_cell_angle_alpha                60.752(7)
_cell_angle_beta                 80.205(8)
_cell_angle_gamma                77.194(7)
_cell_volume                     3869.68
loop_
_atom_site_label
_atom_site_type_symbol
_atom_site_fract_x
_atom_site_fract_y
_atom_site_fract_z
N1 N 0.0055(4) 0.0484(3) 0.7263(3)
Mg5 Mg 0.10947(17) 0.14141(13) 0.67007(12)
C20 C 0.3244(5) 0.0296(4) 0.6754(3)
O8 O 0.2275(3) 0.0429(2) 0.6953(2)
O9 O 0.3909(3) 0.0662(2) 0.6784(2)
Mg7 Mg 0.36580(16) 0.18005(13) 0.67795(12)
Mg1 Mg 0.89053(17) 0.85859(13) 0.32993(12)
Mg2 Mg 0.63420(16) 0.81995(13) 0.32205(12)
C1 C 0.8107(6) 0.8635(4) 0.1846(4)
C2 C 0.8404(5) 0.8828(4) 0.0975(4)
C3 C 0.9427(5) 0.8931(4) 0.0627(4)
H1 H 0.9960 0.8872 0.0946
C7 C 0.7689(6) 0.8893(5) 0.0522(4)
H4 H 0.7000 0.8789 0.0763
C21 C 0.3574(6) 0.9656(4) 0.6477(4)
C22 C 0.4587(5) 0.9430(4) 0.6245(3)
H11 H 0.5129 0.9663 0.6302
C23 C 0.4856(5) 0.8874(4) 0.5931(4)
H12 H 0.5569 0.8752 0.5753
C24 C 0.4121(5) 0.8506(4) 0.5876(4)
C25 C 0.3065(5) 0.8712(4) 0.6116(4)
H13 H 0.2532 0.8464 0.6069
C26 C 0.2806(5) 0.9274(4) 0.6421(4)
H14 H 0.2093 0.9403 0.6596
C27 C 0.4380(5) 0.7948(4) 0.5501(4)
C28 C 0.5017(5) 0.8163(4) 0.4806(4)
H15 H 0.5304 0.8662 0.4610
C29 C 0.4858(4) 0.7133(4) 0.4612(4)
H16 H 0.4966 0.6874 0.4272
C30 C 0.4225(5) 0.6770(3) 0.5349(4)
C31 C 0.3975(5) 0.7203(4) 0.5802(4)
C32 C 0.3878(4) 0.5974(2) 0.5551(3)
C33 C 0.2924(4) 0.5994(2) 0.5301(3)
H17 H 0.2503 0.6516 0.4989
C34 C 0.2588(3) 0.5249(3) 0.5507(3)
H18 H 0.1936 0.5263 0.5336
C35 C 0.3205(4) 0.4485(2) 0.5963(3)
C36 C 0.4159(4) 0.4466(2) 0.6213(3)
H19 H 0.4580 0.3944 0.6525
C37 C 0.4495(3) 0.5210(3) 0.6007(3)
H20 H 0.5147 0.5197 0.6179
C38 C 0.2882(5) 0.3675(4) 0.6208(5)
N3 N 0.5287(4) 0.7763(3) 0.4370(3)
N4 N 0.3382(4) 0.6862(3) 0.6549(3)
H23 H 0.3260 0.7230 0.6739
H24 H 0.3671 0.6401 0.6909
O1 O 0.7169(3) 0.8538(2) 0.2134(2)
O2 O 0.8853(3) 0.8578(3) 0.2240(2)
O5 O 0.7701(3) 0.7820(2) 0.3875(2)
H25 H 0.7534 0.7858 0.4297
H26 H 0.7943 0.7352 0.3986
O6 O 0.5011(4) 0.8461(3) 0.2647(3)
H27 H 0.4632 0.8463 0.2329
H28 H 0.4684 0.8743 0.2878
O10 O 0.2098(4) 0.3739(3) 0.5801(3)
O11 O 0.3469(4) 0.3009(3) 0.6606(3)
N5 N 0.9945(4) 0.9516(3) 0.2737(3)
O12 O 0.9025(3) 0.8521(2) 0.4403(3)
O13 O 0.7725(3) 0.9571(2) 0.3047(2)
O14 O 0.6091(3) 0.9338(2) 0.3216(2)
O15 O 0.6531(4) 0.6991(3) 0.3394(3)
C4 C 0.9661(5) 0.9111(4) 0.9850(4)
C5 C 0.8930(5) 0.9209(4) 0.9360(4)
C6 C 0.7917(6) 0.9110(5) 0.9692(4)
H3 H 0.7379 0.9187 0.9368
C8 C 0.9155(5) 0.9511(4) 0.8478(4)
C11 C 0.9256(5) 0.9452(4) 0.7233(4)
C12 C 0.8966(5) 0.9109(4) 0.8056(4)
C13 C 0.9023(6) 0.9158(4) 0.6656(4)
C14 C 0.9817(5) 0.9103(4) 0.6079(4)
C15 C 0.9594(5) 0.8877(4) 0.5514(3)
C16 C 0.8571(5) 0.8667(4) 0.5576(3)
C17 C 0.7805(5) 0.8742(4) 0.6164(4)
H9 H 0.7115 0.8646 0.6171
C18 C 0.8005(6) 0.8948(5) 0.6733(4)
H10 H 0.7491 0.8951 0.7154
C19 C 0.8341(5) 0.8434(4) 0.4979(4)
N2 N 0.8517(5) 0.8418(3) 0.8455(3)
H21 H 0.8323 0.8311 0.8089
H22 H 0.7971 0.8525 0.8748
O3 O 0.7533(3) 0.8127(3) 0.5113(2)
C4_2 C 0.0339(5) 0.0889(4) 0.0150(4)
C5_2 C 0.1070(5) 0.0791(4) 0.0640(4)
C6_2 C 0.2083(6) 0.0890(5) 0.0308(4)
H3_2 H 0.2621 0.0813 0.0632
C8_2 C 0.0845(5) 0.0489(4) 0.1522(4)
C11_2 C 0.0744(5) 0.0548(4) 0.2767(4)
C12_2 C 0.1034(5) 0.0891(4) 0.1944(4)
C13_2 C 0.0977(6) 0.0842(4) 0.3344(4)
C14_2 C 0.0183(5) 0.0897(4) 0.3921(4)
C15_2 C 0.0406(5) 0.1123(4) 0.4486(3)
C16_2 C 0.1429(5) 0.1333(4) 0.4424(3)
C17_2 C 0.2195(5) 0.1258(4) 0.3836(4)
H9_2 H 0.2885 0.1354 0.3829
C18_2 C 0.1995(6) 0.1052(5) 0.3267(4)
H10_2 H 0.2509 0.1049 0.2846
C19_2 C 0.1659(5) 0.1566(4) 0.5021(4)
N2_2 N 0.1483(5) 0.1582(3) 0.1545(3)
H21_2 H 0.1677 0.1689 0.1911
H22_2 H 0.2029 0.1475 0.1252
O3_2 O 0.2467(3) 0.1873(3) 0.4887(2)
O4 O 0.0975(3) 0.1479(2) 0.5597(3)
C1_2 C 0.1893(6) 0.1365(4) 0.8154(4)
C2_2 C 0.1596(5) 0.1172(4) 0.9025(4)
C3_2 C 0.0573(5) 0.1069(4) 0.9373(4)
H1_2 H 0.0040 0.1128 0.9054
C7_2 C 0.2311(6) 0.1107(5) 0.9478(4)
H4_2 H 0.3000 0.1211 0.9237
C21_2 C 0.6426(6) 0.0344(4) 0.3523(4)
C22_2 C 0.5413(5) 0.0570(4) 0.3755(3)
H11_2 H 0.4871 0.0337 0.3698
C23_2 C 0.5144(5) 0.1126(4) 0.4069(4)
H12_2 H 0.4431 0.1248 0.4247
C24_2 C 0.5879(5) 0.1494(4) 0.4124(4)
C25_2 C 0.6935(5) 0.1288(4) 0.3884(4)
H13_2 H 0.7468 0.1536 0.3931
C26_2 C 0.7194(5) 0.0726(4) 0.3579(4)
H14_2 H 0.7907 0.0597 0.3404
C27_2 C 0.5620(5) 0.2052(4) 0.4499(4)
C28_2 C 0.4983(5) 0.1837(4) 0.5194(4)
H15_2 H 0.4696 0.1338 0.5390
C29_2 C 0.5142(4) 0.2867(4) 0.5388(4)
H16_2 H 0.5034 0.3126 0.5728
C30_2 C 0.5775(5) 0.3230(3) 0.4651(4)
C31_2 C 0.6025(5) 0.2797(4) 0.4198(4)
C32_2 C 0.6122(4) 0.4026(2) 0.4449(3)
C33_2 C 0.7076(4) 0.4006(2) 0.4699(3)
H17_2 H 0.7497 0.3484 0.5011
C34_2 C 0.7412(3) 0.4751(3) 0.4493(3)
H18_2 H 0.8064 0.4737 0.4664
C35_2 C 0.6795(4) 0.5515(2) 0.4037(3)
C36_2 C 0.5841(4) 0.5534(2) 0.3787(3)
H19_2 H 0.5420 0.6056 0.3475
C37_2 C 0.5505(3) 0.4790(3) 0.3993(3)
H20_2 H 0.4853 0.4803 0.3821
C38_2 C 0.7118(5) 0.6325(4) 0.3792(5)
N3_2 N 0.4713(4) 0.2237(3) 0.5630(3)
N4_2 N 0.6618(4) 0.3138(3) 0.3451(3)
H23_2 H 0.6740 0.2770 0.3261
H24_2 H 0.6329 0.3599 0.3091
O1_2 O 0.2831(3) 0.1462(2) 0.7866(2)
O2_2 O 0.1147(3) 0.1422(3) 0.7760(2)
O5_2 O 0.2299(3) 0.2180(2) 0.6125(2)
H25_2 H 0.2466 0.2142 0.5703
H26_2 H 0.2057 0.2648 0.6014
O6_2 O 0.4989(4) 0.1539(3) 0.7353(3)
H27_2 H 0.5368 0.1537 0.7671
H28_2 H 0.5316 0.1257 0.7122
O10_2 O 0.7902(4) 0.6261(3) 0.4199(3)
C20_2 C 0.6756(5) 0.9704(4) 0.3246(3)
O7 O 0.0109(3) 0.7584(4) 0.3560(3)
H29 H 0.0583 0.7221 0.3783
H30 H 0.0037 0.7563 0.3131
H2 H 0.0367 0.9174 0.9629
H7 H 0.0498 0.9217 0.6066
H8 H 0.0111 0.8864 0.5099
C9 C 0.9729(5) 0.0168(4) 0.8035(4)
H5 H 0.9905 0.0416 0.8326
C10 C 0.9784(5) 0.0134(4) 0.6831(4)
H6 H 0.9962 0.0361 0.6262
C9_2 C 0.0271(5) 0.9832(4) 0.1965(4)
H5_2 H 0.0095 0.9584 0.1674
C10_2 C 0.0216(5) 0.9866(4) 0.3169(4)
H6_2 H 0.0038 0.9639 0.3738
H2_2 H 0.9633 0.0826 0.0371
H7_2 H 0.9502 0.0783 0.3934
H8_2 H 0.9889 0.1136 0.4901
O7_2 O 0.9891(3) 0.2416(4) 0.6440(3)
H29_2 H 0.9417 0.2779 0.6217
H30_2 H 0.9963 0.2437 0.6869
loop_
_geom_bond_atom_site_label_1
_geom_bond_atom_site_label_2
_geom_bond_site_symmetry_1
_geom_bond_site_symmetry_2
Mg5 N1 1_555 1_555
O8 C20 1_555 1_555
O9 C20 1_555 1_555
Mg5 O8 1_555 1_555
Mg7 O9 1_555 1_555
Mg1 O2 1_555 1_555
Mg2 N3 1_555 1_555
C1 C2 1_555 1_555
C2 C3 1_555 1_555
C3 H1 1_555 1_555
C7 C2 1_555 1_555
H4 C7 1_555 1_555
C21 C22 1_555 1_555
C22 H11 1_555 1_555
C23 C22 1_555 1_555
H12 C23 1_555 1_555
C24 C23 1_555 1_555
C25 C24 1_555 1_555
H13 C25 1_555 1_555
C26 C21 1_555 1_555
H14 C26 1_555 1_555
C27 C24 1_555 1_555
C28 C27 1_555 1_555
H15 C28 1_555 1_555
C29 H16 1_555 1_555
C30 C29 1_555 1_555
C31 C27 1_555 1_555
C32 C30 1_555 1_555
C33 C32 1_555 1_555
H17 C33 1_555 1_555
C34 C33 1_555 1_555
H18 C34 1_555 1_555
C35 C34 1_555 1_555
C36 C35 1_555 1_555
H19 C36 1_555 1_555
C37 C32 1_555 1_555
H20 C37 1_555 1_555
C38 C35 1_555 1_555
N3 C28 1_555 1_555
N4 C31 1_555 1_555
H23 N4 1_555 1_555
H24 N4 1_555 1_555
O1 Mg2 1_555 1_555
O2 C1 1_555 1_555
O5 Mg1 1_555 1_555
H25 O5 1_555 1_555
H26 O5 1_555 1_555
O6 Mg2 1_555 1_555
H27 O6 1_555 1_555
H28 O6 1_555 1_555
O10 C38 1_555 1_555
O11 C38 1_555 1_555
Mg7 O11 1_555 1_555
N5 Mg1 1_555 1_555
O12 Mg1 1_555 1_555
O13 Mg1 1_555 1_555
O14 Mg2 1_555 1_555
O15 Mg2 1_555 1_555
Mg2 O5 1_555 1_555
C1 O1 1_555 1_555
C25 C26 1_555 1_555
C29 N3 1_555 1_555
C30 C31 1_555 1_555
C36 C37 1_555 1_555
C5 C4 1_555 1_555
C6 C5 1_555 1_555
H3 C6 1_555 1_555
C8 C5 1_555 1_555
C12 C8 1_555 1_555
C13 C11 1_555 1_555
C14 C13 1_555 1_555
C15 C14 1_555 1_555
C16 C15 1_555 1_555
C17 C16 1_555 1_555
H9 C17 1_555 1_555
C18 C13 1_555 1_555
H10 C18 1_555 1_555
C19 C16 1_555 1_555
N2 C12 1_555 1_555
H21 N2 1_555 1_555
H22 N2 1_555 1_555
O3 C19 1_555 1_555
O12 C19 1_555 1_555
C11 C12 1_555 1_555
C17 C18 1_555 1_555
C5_2 C4_2 1_555 1_555
C6_2 C5_2 1_555 1_555
H3_2 C6_2 1_555 1_555
C8_2 C5_2 1_555 1_555
C12_2 C8_2 1_555 1_555
C13_2 C11_2 1_555 1_555
C14_2 C13_2 1_555 1_555
C15_2 C14_2 1_555 1_555
C16_2 C15_2 1_555 1_555
C17_2 C16_2 1_555 1_555
H9_2 C17_2 1_555 1_555
C18_2 C13_2 1_555 1_555
H10_2 C18_2 1_555 1_555
C19_2 C16_2 1_555 1_555
N2_2 C12_2 1_555 1_555
H21_2 N2_2 1_555 1_555
H22_2 N2_2 1_555 1_555
O3_2 C19_2 1_555 1_555
O4 C19_2 1_555 1_555
Mg5 O4 1_555 1_555
C11_2 C12_2 1_555 1_555
C17_2 C18_2 1_555 1_555
Mg5 O2_2 1_555 1_555
Mg7 N3_2 1_555 1_555
C1_2 C2_2 1_555 1_555
C2_2 C3_2 1_555 1_555
C3_2 H1_2 1_555 1_555
C7_2 C2_2 1_555 1_555
H4_2 C7_2 1_555 1_555
C21_2 C22_2 1_555 1_555
C22_2 H11_2 1_555 1_555
C23_2 C22_2 1_555 1_555
H12_2 C23_2 1_555 1_555
C24_2 C23_2 1_555 1_555
C25_2 C24_2 1_555 1_555
H13_2 C25_2 1_555 1_555
C26_2 C21_2 1_555 1_555
H14_2 C26_2 1_555 1_555
C27_2 C24_2 1_555 1_555
C28_2 C27_2 1_555 1_555
H15_2 C28_2 1_555 1_555
C29_2 H16_2 1_555 1_555
C30_2 C29_2 1_555 1_555
C31_2 C27_2 1_555 1_555
C32_2 C30_2 1_555 1_555
C33_2 C32_2 1_555 1_555
H17_2 C33_2 1_555 1_555
C34_2 C33_2 1_555 1_555
H18_2 C34_2 1_555 1_555
C35_2 C34_2 1_555 1_555
C36_2 C35_2 1_555 1_555
H19_2 C36_2 1_555 1_555
C37_2 C32_2 1_555 1_555
H20_2 C37_2 1_555 1_555
C38_2 C35_2 1_555 1_555
N3_2 C28_2 1_555 1_555
N4_2 C31_2 1_555 1_555
H23_2 N4_2 1_555 1_555
H24_2 N4_2 1_555 1_555
O1_2 Mg7 1_555 1_555
O2_2 C1_2 1_555 1_555
O5_2 Mg5 1_555 1_555
H25_2 O5_2 1_555 1_555
H26_2 O5_2 1_555 1_555
O6_2 Mg7 1_555 1_555
H27_2 O6_2 1_555 1_555
H28_2 O6_2 1_555 1_555
O10_2 C38_2 1_555 1_555
O15 C38_2 1_555 1_555
Mg7 O5_2 1_555 1_555
C1_2 O1_2 1_555 1_555
C25_2 C26_2 1_555 1_555
C29_2 N3_2 1_555 1_555
C30_2 C31_2 1_555 1_555
C36_2 C37_2 1_555 1_555
O13 C20_2 1_555 1_555
O14 C20_2 1_555 1_555
H29 O7 1_555 1_555
H30 O7 1_555 1_555
H5 C9 1_555 1_555
C10 H6 1_555 1_555
H5_2 C9_2 1_555 1_555
C10_2 H6_2 1_555 1_555
H29_2 O7_2 1_555 1_555
H30_2 O7_2 1_555 1_555

#END
