
###############################################################################
#
# This file contains modified crystal structure data generated from the
# MOF subset of the Cambridge Structural Database (CSD) v543 
# hosted by the Cambridge Crystallographic Data Centre (CCDC).
#
# This work is licensed under the Creative Commons
# Attribution-NonCommercial-ShareAlike 4.0 International License.
# To view a copy of this license, visit
# http://creativecommons.org/licenses/by-nc-sa/4.0/
# or send a letter to
# Creative Commons, PO Box 1866, Mountain View, CA 94042, USA.
#
# CIF created using the CSD Python API on 29 September 2022
# The structure has been converted into the P1 space group
# The structure has a 3D framework
# The original CSD entry LITCUO is in the monoclinic crystal system
# The framework has been calculated to contain at least 10.0% void space
# The void calculation uses a probe of radius 1.32A, grid spacing 0.4
#
###############################################################################

data_LITCUO
_chemical_formula_moiety         '(C136 H112 Co8 O60)n'
_symmetry_cell_setting           triclinic
_symmetry_space_group_name_H-M   'P 1'
_symmetry_Int_Tables_number      1
_space_group_name_Hall           'P 1'
loop_
_symmetry_equiv_pos_site_id
_symmetry_equiv_pos_as_xyz
1 x,y,z
_cell_length_a                   10.168(3)
_cell_length_b                   18.035(5)
_cell_length_c                   27.054(8)
_cell_angle_alpha                90
_cell_angle_beta                 99.321(5)
_cell_angle_gamma                90
_cell_volume                     4895.65
loop_
_atom_site_label
_atom_site_type_symbol
_atom_site_fract_x
_atom_site_fract_y
_atom_site_fract_z
H15 H 0.0592 0.0998 0.4297
H49 H 0.0191 0.1330 0.6458
O1 O 0.3550(2) 0.64781(15) 0.35658(9)
O2 O 0.2418(2) 0.70493(16) 0.29330(10)
C2 C 0.2454(3) 0.6676(2) 0.33175(13)
C3 C 0.1200(3) 0.6474(2) 0.35020(12)
C4 C 0.1237(3) 0.6027(2) 0.39145(13)
H1 H 0.2049 0.5835 0.4069
C10 C 0.0808(3) 0.5632(2) 0.50189(12)
C11 C 0.0097(3) 0.5400(2) 0.45619(12)
C13 C 0.0096(3) 0.5857(2) 0.41031(12)
C18 C 0.0691(3) 0.5229(2) 0.54650(13)
O9 O 0.3088(3) 0.7111(2) 0.55812(13)
O10 O 0.2858(4) 0.6408(3) 0.63694(13)
C21 C 0.1605(4) 0.6288(2) 0.50628(14)
H7 H 0.1654 0.6571 0.4779
C23 C 0.1376(4) 0.5508(3) 0.59238(14)
H8 H 0.1289 0.5266 0.6220
C25 C 0.2281(4) 0.6502(3) 0.55033(16)
C28 C 0.2150(4) 0.6112(3) 0.59418(15)
C30 C 0.3257(6) 0.7527(3) 0.5152(2)
H11 H 0.3764 0.7243 0.4949
H12 H 0.3722 0.7979 0.5255
H13 H 0.2400 0.7642 0.4962
C33 C 0.2748(8) 0.6026(5) 0.6828(2)
H20 H 0.3164 0.5548 0.6828
H21 H 0.1824 0.5964 0.6854
H22 H 0.3181 0.6310 0.7107
O18 O 0.3451(2) 0.33149(17) 0.66126(10)
C35 C 0.2480(3) 0.3167(2) 0.68185(12)
O19 O 0.2517(2) 0.28304(19) 0.72133(10)
C39 C 0.1161(3) 0.3429(2) 0.65595(12)
C40 C 0.1098(3) 0.3857(2) 0.61344(12)
H30 H 0.1874 0.3955 0.6006
C43 C 0.0009(3) 0.3261(2) 0.67395(12)
H31 H 0.0044 0.2967 0.7024
Co5 Co 0.46930(4) 0.69084(2) 0.309507(15)
Co8 Co 0.53070(4) 0.30916(2) 0.690493(15)
Co11 Co 0.35915(5) 0.23429(3) 0.783089(17)
O7 O 0.5451(3) 0.11749(17) 0.24296(11)
C9 C 0.5194(3) 0.05416(19) 0.31537(12)
C19 C 0.5100(4) 0.0583(2) 0.36574(13)
H6 H 0.5040 0.1043 0.3808
C20 C 0.6139(4) 0.0242(2) 0.48113(13)
O11 O 0.9545(3) 0.0935(2) 0.48449(12)
C26 C 0.7327(5) 0.0458(2) 0.46473(15)
H10 H 0.7380 0.0418 0.4308
O12 O 0.4837(4) 0.18283(16) 0.30331(12)
C29 C 0.8391(5) 0.0721(3) 0.49601(16)
C31 C 0.9695(6) 0.0865(4) 0.4328(2)
H14 H 0.9084 0.1197 0.4130
H16 H 0.9521 0.0366 0.4213
C34 C 0.5142(4) 0.1243(2) 0.28512(15)
O22 O 0.4374(3) 0.15520(15) 0.74601(10)
C52 C 0.4959(4) 0.0029(2) 0.55151(13)
O23 O 0.5183(3) 0.20285(15) 0.68197(12)
C53 C 0.4767(3) 0.07735(19) 0.68020(12)
C55 C 0.4907(4) 0.0061(2) 0.60603(12)
C56 C 0.4722(3) 0.01290(19) 0.70725(13)
H40 H 0.4634 0.0151 0.7409
C57 C 0.4842(4) 0.07321(19) 0.63010(13)
H41 H 0.4850 0.1168 0.6118
C58 C 0.4757(3) 0.1511(2) 0.70457(13)
O25 O 0.9386(4) 0.1110(2) 0.57579(12)
C61 C 0.6083(4) 0.02780(19) 0.53372(13)
C62 C 0.7190(5) 0.0569(2) 0.56555(15)
H43 H 0.7159 0.0607 0.5996
C64 C 0.8310(5) 0.0799(3) 0.54825(16)
C67 C 0.9308(8) 0.1288(5) 0.6271(2)
H48 H 0.8835 0.0902 0.6412
H50 H 0.8845 0.1750 0.6284
Co4 Co 0.35915(5) 0.26571(3) 0.283089(17)
O28 O 0.4430(3) 0.31652(19) 0.35118(11)
H51 H 0.4712 0.2830 0.3723
H52 H 0.5112 0.3470 0.3473
O29 O 0.1947(7) 0.3062(4) 0.2977(3)
H53 H 0.1940 0.3317 0.3241
H54 H 0.1230 0.2997 0.2772
O30 O 0.2222(12) 0.2255(7) 0.3226(5)
H55 H 0.1665 0.1849 0.3080
H56 H 0.2468 0.2232 0.3588
Co6 Co 0.53070(4) 0.19084(2) 0.190493(15)
O34 O 0.4374(3) 0.34480(15) 0.24601(10)
O35 O 0.2517(2) 0.21696(19) 0.22133(10)
Co2 Co 0.64085(5) 0.76571(3) 0.216911(17)
O3 O 0.6549(2) 0.66851(17) 0.33874(10)
O4 O 0.5626(3) 0.84480(15) 0.25399(10)
C1 C 0.7520(3) 0.6833(2) 0.31815(12)
O5 O 0.7483(2) 0.71696(19) 0.27867(10)
C5 C 0.5041(4) 0.9971(2) 0.44849(13)
O6 O 0.4817(3) 0.79715(15) 0.31803(12)
C6 C 0.8839(3) 0.6571(2) 0.34405(12)
C7 C 0.5233(3) 0.92265(19) 0.31980(12)
C8 C 0.8902(3) 0.6143(2) 0.38656(12)
H2 H 0.8126 0.6045 0.3994
C12 C 0.9991(3) 0.6739(2) 0.32605(12)
H3 H 0.9956 0.7033 0.2976
C14 C 0.5093(4) 0.9939(2) 0.39397(12)
C15 C 0.5278(3) 0.98710(19) 0.29275(13)
H4 H 0.5366 0.9849 0.2591
C16 C 0.5158(4) 0.92679(19) 0.36990(13)
H5 H 0.5150 0.8832 0.3882
C17 C 0.5243(3) 0.8489(2) 0.29543(13)
O8 O 0.0614(4) 0.8890(2) 0.42421(12)
C22 C 0.3917(4) 0.97220(19) 0.46628(13)
C24 C 0.2810(5) 0.9431(2) 0.43445(15)
H9 H 0.2841 0.9393 0.4004
C27 C 0.1690(5) 0.9201(3) 0.45175(16)
C32 C 0.0692(8) 0.8712(5) 0.3729(2)
H17 H 0.1165 0.9098 0.3588
H19 H 0.1155 0.8250 0.3716
O13 O 0.5570(3) 0.81652(19) 0.14882(11)
H23 H 0.5288 0.7830 0.1277
H24 H 0.4888 0.8470 0.1527
O14 O 0.8053(7) 0.8062(4) 0.2023(3)
H25 H 0.8060 0.8317 0.1759
H26 H 0.8770 0.7997 0.2228
O15 O 0.7778(12) 0.7255(7) 0.1774(5)
H27 H 0.8335 0.6849 0.1920
H28 H 0.7532 0.7232 0.1412
O16 O 0.6450(2) 0.35219(15) 0.64342(9)
O17 O 0.7582(2) 0.29507(16) 0.70670(10)
C36 C 0.7546(3) 0.3324(2) 0.66825(13)
C37 C 0.8800(3) 0.3526(2) 0.64980(12)
C38 C 0.8763(3) 0.3973(2) 0.60855(13)
H29 H 0.7951 0.4165 0.5931
C41 C 0.9192(3) 0.4368(2) 0.49811(12)
C42 C 0.9903(3) 0.4600(2) 0.54381(12)
C44 C 0.9904(3) 0.4143(2) 0.58969(12)
C45 C 0.9309(3) 0.4771(2) 0.45350(13)
O20 O 0.6912(3) 0.2889(2) 0.44188(13)
O21 O 0.7142(4) 0.3592(3) 0.36306(13)
C46 C 0.8395(4) 0.3712(2) 0.49372(14)
H32 H 0.8346 0.3429 0.5221
C47 C 0.8624(4) 0.4492(3) 0.40762(14)
H33 H 0.8711 0.4734 0.3780
C48 C 0.7719(4) 0.3498(3) 0.44967(16)
C49 C 0.7850(4) 0.3888(3) 0.40582(15)
C50 C 0.6743(6) 0.2473(3) 0.4848(2)
H34 H 0.6236 0.2757 0.5051
H35 H 0.6278 0.2021 0.4745
H36 H 0.7600 0.2358 0.5038
C51 C 0.7252(8) 0.3974(5) 0.3172(2)
H37 H 0.6836 0.4452 0.3172
H38 H 0.8176 0.4036 0.3146
H39 H 0.6819 0.3690 0.2893
O24 O 0.4549(3) 0.88251(17) 0.75704(11)
C54 C 0.4806(3) 0.94584(19) 0.68463(12)
C59 C 0.4900(4) 0.9417(2) 0.63426(13)
H42 H 0.4960 0.8957 0.6192
C60 C 0.3861(4) 0.9758(2) 0.51887(13)
O26 O 0.0455(3) 0.9065(2) 0.51551(12)
C63 C 0.2673(5) 0.9542(2) 0.53527(15)
H44 H 0.2620 0.9582 0.5692
O27 O 0.5163(4) 0.81717(16) 0.69669(12)
C65 C 0.1609(5) 0.9279(3) 0.50399(16)
C66 C 0.0305(6) 0.9135(4) 0.5672(2)
H45 H 0.0916 0.8803 0.5870
H47 H 0.0479 0.9634 0.5787
C68 C 0.4858(4) 0.8757(2) 0.71488(15)
Co9 Co 0.46930(4) 0.80916(2) 0.809507(15)
Co12 Co 0.64085(5) 0.73429(3) 0.716911(17)
O37 O 0.4549(3) 0.61749(17) 0.25704(11)
O38 O 0.5451(3) 0.38251(17) 0.74296(11)
O39 O 0.5163(4) 0.68283(16) 0.19669(12)
H46 H 0.0592 0.4002 0.9297
O3_2 O 0.3451(2) 0.16851(17) 0.16126(10)
C1_2 C 0.2480(3) 0.1833(2) 0.18185(12)
C5_2 C 0.4959(4) 0.4971(2) 0.05151(13)
O6_2 O 0.5183(3) 0.29715(15) 0.18197(12)
C6_2 C 0.1161(3) 0.1571(2) 0.15595(12)
C7_2 C 0.4767(3) 0.42265(19) 0.18020(12)
C8_2 C 0.1098(3) 0.1143(2) 0.11344(12)
H2_2 H 0.1874 0.1045 0.1006
C9_2 C 0.4806(3) 0.55416(19) 0.18463(12)
C12_2 C 0.0009(3) 0.1739(2) 0.17395(12)
H3_2 H 0.0044 0.2033 0.2024
C14_2 C 0.4907(4) 0.4939(2) 0.10603(12)
C15_2 C 0.4722(3) 0.48710(19) 0.20725(13)
H4_2 H 0.4634 0.4849 0.2409
C16_2 C 0.4842(4) 0.42679(19) 0.13010(13)
H5_2 H 0.4850 0.3832 0.1118
C17_2 C 0.4757(3) 0.3489(2) 0.20457(13)
C19_2 C 0.4900(4) 0.5583(2) 0.13426(13)
H6_2 H 0.4960 0.6043 0.1192
O8_2 O 0.9386(4) 0.3890(2) 0.07579(12)
C20_2 C 0.3861(4) 0.5242(2) 0.01887(13)
C22_2 C 0.6083(4) 0.47220(19) 0.03372(13)
C24_2 C 0.7190(5) 0.4431(2) 0.06555(15)
H9_2 H 0.7159 0.4393 0.0996
O11_2 O 0.0455(3) 0.5935(2) 0.01551(12)
C26_2 C 0.2673(5) 0.5458(2) 0.03527(15)
H10_2 H 0.2620 0.5418 0.0692
C27_2 C 0.8310(5) 0.4201(3) 0.04825(16)
C29_2 C 0.1609(5) 0.5721(3) 0.00399(16)
C31_2 C 0.0305(6) 0.5865(4) 0.0672(2)
H14_2 H 0.0916 0.6197 0.0870
H16_2 H 0.0479 0.5366 0.0787
C32_2 C 0.9308(8) 0.3712(5) 0.1271(2)
H17_2 H 0.8835 0.4098 0.1412
H19_2 H 0.8845 0.3250 0.1284
C34_2 C 0.4858(4) 0.6243(2) 0.21488(15)
O31 O 0.6450(2) 0.14781(15) 0.14342(9)
O32 O 0.7582(2) 0.20493(16) 0.20670(10)
O22_2 O 0.5626(3) 0.65520(15) 0.75399(10)
C52_2 C 0.5041(4) 0.5029(2) 0.94849(13)
O23_2 O 0.4817(3) 0.70285(15) 0.81803(12)
C53_2 C 0.5233(3) 0.57735(19) 0.81980(12)
C54_2 C 0.5194(3) 0.44584(19) 0.81537(12)
C55_2 C 0.5093(4) 0.5061(2) 0.89397(12)
C56_2 C 0.5278(3) 0.51290(19) 0.79275(13)
H40_2 H 0.5366 0.5151 0.7591
C57_2 C 0.5158(4) 0.57321(19) 0.86990(13)
H41_2 H 0.5150 0.6168 0.8882
C58_2 C 0.5243(3) 0.6511(2) 0.79543(13)
C59_2 C 0.5100(4) 0.4417(2) 0.86574(13)
H42_2 H 0.5040 0.3957 0.8808
O25_2 O 0.0614(4) 0.6110(2) 0.92421(12)
C60_2 C 0.6139(4) 0.4758(2) 0.98113(13)
C61_2 C 0.3917(4) 0.52780(19) 0.96628(13)
C62_2 C 0.2810(5) 0.5569(2) 0.93445(15)
H43_2 H 0.2841 0.5607 0.9004
O26_2 O 0.9545(3) 0.4065(2) 0.98449(12)
C63_2 C 0.7327(5) 0.4542(2) 0.96473(15)
H44_2 H 0.7380 0.4582 0.9308
O27_2 O 0.4837(4) 0.31717(16) 0.80331(12)
C64_2 C 0.1690(5) 0.5799(3) 0.95175(16)
C65_2 C 0.8391(5) 0.4279(3) 0.99601(16)
C66_2 C 0.9695(6) 0.4135(4) 0.9328(2)
H45_2 H 0.9084 0.3803 0.9130
H47_2 H 0.9521 0.4634 0.9213
C67_2 C 0.0692(8) 0.6288(5) 0.8729(2)
H48_2 H 0.1165 0.5902 0.8588
H50_2 H 0.1155 0.6750 0.8716
C68_2 C 0.5142(4) 0.3757(2) 0.78512(15)
O16_2 O 0.3550(2) 0.85219(15) 0.85658(9)
O17_2 O 0.2418(2) 0.79507(16) 0.79330(10)
C36_2 C 0.2454(3) 0.8324(2) 0.83175(13)
C37_2 C 0.1200(3) 0.8526(2) 0.85020(12)
C38_2 C 0.1237(3) 0.8973(2) 0.89145(13)
H29_2 H 0.2049 0.9165 0.9069
C42_2 C 0.0097(3) 0.9600(2) 0.95619(12)
C44_2 C 0.0096(3) 0.9143(2) 0.91031(12)
H32_2 H 0.1654 0.8429 0.9779
H34_2 H 0.3764 0.7757 0.9949
H36_2 H 0.2400 0.7358 0.9962
O33 O 0.6549(2) 0.83149(17) 0.83874(10)
C2_2 C 0.7546(3) 0.1676(2) 0.16825(13)
C3_2 C 0.8800(3) 0.1474(2) 0.14980(12)
C4_2 C 0.8763(3) 0.1027(2) 0.10855(13)
H1_2 H 0.7951 0.0835 0.0931
C11_2 C 0.9903(3) 0.0400(2) 0.04381(12)
C13_2 C 0.9904(3) 0.0857(2) 0.08969(12)
H7_2 H 0.8346 0.1571 0.0221
H11_2 H 0.6236 0.2243 0.0051
H13_2 H 0.7600 0.2642 0.0038
H15_2 H 0.9408 0.5998 0.0703
C35_2 C 0.7520(3) 0.8167(2) 0.81815(12)
O19_2 O 0.7483(2) 0.78304(19) 0.77867(10)
C39_2 C 0.8839(3) 0.8429(2) 0.84405(12)
C40_2 C 0.8902(3) 0.8857(2) 0.88656(12)
H30_2 H 0.8126 0.8955 0.8994
C43_2 C 0.9991(3) 0.8261(2) 0.82605(12)
H31_2 H 0.9956 0.7967 0.7976
O13_2 O 0.4430(3) 0.18348(19) 0.85118(11)
H23_2 H 0.4712 0.2170 0.8723
H24_2 H 0.5112 0.1530 0.8473
O14_2 O 0.1947(7) 0.1938(4) 0.7977(3)
H25_2 H 0.1940 0.1683 0.8241
H26_2 H 0.1230 0.2003 0.7772
O15_2 O 0.2222(12) 0.2745(7) 0.8226(5)
H27_2 H 0.1665 0.3151 0.8080
H28_2 H 0.2468 0.2768 0.8588
O28_2 O 0.5570(3) 0.68348(19) 0.64882(11)
H51_2 H 0.5288 0.7170 0.6277
H52_2 H 0.4888 0.6530 0.6527
O29_2 O 0.8053(7) 0.6938(4) 0.7023(3)
H53_2 H 0.8060 0.6683 0.6759
H54_2 H 0.8770 0.7003 0.7228
O30_2 O 0.7778(12) 0.7745(7) 0.6774(5)
H55_2 H 0.8335 0.8151 0.6920
H56_2 H 0.7532 0.7768 0.6412
H18 H 0.9809 0.8670 0.3542
H46_2 H 0.9408 0.9002 0.5703
H18_2 H 0.0191 0.3670 0.1458
C41_2 C 0.0808(3) 0.9368(2) 0.00189(12)
C45_2 C 0.0691(3) 0.9771(2) 0.04650(13)
O20_2 O 0.3088(3) 0.7889(2) 0.05812(13)
O21_2 O 0.2858(4) 0.8592(3) 0.13694(13)
C46_2 C 0.1605(4) 0.8712(2) 0.00628(14)
C47_2 C 0.1376(4) 0.9492(3) 0.09238(14)
H33_2 H 0.1289 0.9734 0.1220
C48_2 C 0.2281(4) 0.8498(3) 0.05033(16)
C49_2 C 0.2150(4) 0.8888(3) 0.09418(15)
C50_2 C 0.3257(6) 0.7473(3) 0.0152(2)
H35_2 H 0.3722 0.7021 0.0255
C51_2 C 0.2748(8) 0.8974(5) 0.1828(2)
H37_2 H 0.3164 0.9452 0.1828
H38_2 H 0.1824 0.9036 0.1854
H39_2 H 0.3181 0.8690 0.2107
C10_2 C 0.9192(3) 0.0632(2) 0.99811(12)
C18_2 C 0.9309(3) 0.0229(2) 0.95350(13)
O9_2 O 0.6912(3) 0.2111(2) 0.94188(13)
O10_2 O 0.7142(4) 0.1408(3) 0.86306(13)
C21_2 C 0.8395(4) 0.1288(2) 0.99372(14)
C23_2 C 0.8624(4) 0.0508(3) 0.90762(14)
H8_2 H 0.8711 0.0266 0.8780
C25_2 C 0.7719(4) 0.1502(3) 0.94967(16)
C28_2 C 0.7850(4) 0.1112(3) 0.90582(15)
C30_2 C 0.6743(6) 0.2527(3) 0.9848(2)
H12_2 H 0.6278 0.2979 0.9745
C33_2 C 0.7252(8) 0.1026(5) 0.8172(2)
H20_2 H 0.6836 0.0548 0.8172
H21_2 H 0.8176 0.0964 0.8146
H22_2 H 0.6819 0.1310 0.7893
H49_2 H 0.9809 0.6330 0.8542
loop_
_geom_bond_atom_site_label_1
_geom_bond_atom_site_label_2
_geom_bond_site_symmetry_1
_geom_bond_site_symmetry_2
O1 C2 1_555 1_555
O2 C2 1_555 1_555
C2 C3 1_555 1_555
C3 C4 1_555 1_555
C4 H1 1_555 1_555
C10 C11 1_555 1_555
C11 C13 1_555 1_555
C13 C4 1_555 1_555
C18 C10 1_555 1_555
O9 C25 1_555 1_555
O10 C28 1_555 1_555
C21 C10 1_555 1_555
H7 C21 1_555 1_555
C23 C18 1_555 1_555
H8 C23 1_555 1_555
C25 C21 1_555 1_555
C28 C23 1_555 1_555
C30 O9 1_555 1_555
H11 C30 1_555 1_555
H12 C30 1_555 1_555
H13 C30 1_555 1_555
C33 O10 1_555 1_555
H20 C33 1_555 1_555
H21 C33 1_555 1_555
H22 C33 1_555 1_555
O18 C35 1_555 1_555
C35 O19 1_555 1_555
O19 Co11 1_555 1_555
C39 C35 1_555 1_555
C40 C39 1_555 1_555
H30 C40 1_555 1_555
H31 C43 1_555 1_555
Co5 O1 1_555 1_555
Co8 O18 1_555 1_555
O2 Co5 1_555 1_555
C25 C28 1_555 1_555
C39 C43 1_555 1_555
O7 C34 1_555 1_555
C19 C9 1_555 1_555
H6 C19 1_555 1_555
O11 C29 1_555 1_555
C26 C20 1_555 1_555
H10 C26 1_555 1_555
O12 C34 1_555 1_555
C29 C26 1_555 1_555
C31 O11 1_555 1_555
H14 C31 1_555 1_555
H16 C31 1_555 1_555
C34 C9 1_555 1_555
O22 C58 1_555 1_555
C52 C55 1_555 1_555
O23 C58 1_555 1_555
C53 C56 1_555 1_555
C55 C57 1_555 1_555
C56 H40 1_555 1_555
C57 C53 1_555 1_555
H41 C57 1_555 1_555
C58 C53 1_555 1_555
O25 C64 1_555 1_555
C61 C20 1_555 1_555
C62 C61 1_555 1_555
H43 C62 1_555 1_555
C64 C29 1_555 1_555
C67 O25 1_555 1_555
H48 C67 1_555 1_555
H50 C67 1_555 1_555
Co4 O12 1_555 1_555
O28 Co4 1_555 1_555
H51 O28 1_555 1_555
H52 O28 1_555 1_555
O29 Co4 1_555 1_555
H53 O29 1_555 1_555
H54 O29 1_555 1_555
O30 Co4 1_555 1_555
H55 O30 1_555 1_555
H56 O30 1_555 1_555
Co6 O7 1_555 1_555
Co8 O23 1_555 1_555
Co11 O22 1_555 1_555
O34 Co4 1_555 1_555
O35 Co4 1_555 1_555
C52 C61 1_555 1_555
C62 C64 1_555 1_555
Co5 O3 1_555 1_555
Co2 O4 1_555 1_555
O3 C1 1_555 1_555
O4 C17 1_555 1_555
C1 O5 1_555 1_555
O5 Co2 1_555 1_555
C5 C14 1_555 1_555
O6 Co5 1_555 1_555
C6 C1 1_555 1_555
C7 C15 1_555 1_555
C8 C6 1_555 1_555
H2 C8 1_555 1_555
H3 C12 1_555 1_555
C14 C16 1_555 1_555
C15 H4 1_555 1_555
C16 C7 1_555 1_555
H5 C16 1_555 1_555
C17 O6 1_555 1_555
O8 C27 1_555 1_555
C22 C5 1_555 1_555
C24 C22 1_555 1_555
H9 C24 1_555 1_555
C27 C24 1_555 1_555
C32 O8 1_555 1_555
H17 C32 1_555 1_555
H19 C32 1_555 1_555
O13 Co2 1_555 1_555
H23 O13 1_555 1_555
H24 O13 1_555 1_555
O14 Co2 1_555 1_555
H25 O14 1_555 1_555
H26 O14 1_555 1_555
O15 Co2 1_555 1_555
H27 O15 1_555 1_555
H28 O15 1_555 1_555
O16 C36 1_555 1_555
O17 C36 1_555 1_555
C36 C37 1_555 1_555
C37 C38 1_555 1_555
C38 H29 1_555 1_555
C41 C42 1_555 1_555
C44 C38 1_555 1_555
O20 C48 1_555 1_555
O21 C49 1_555 1_555
C46 C41 1_555 1_555
H32 C46 1_555 1_555
C47 C45 1_555 1_555
H33 C47 1_555 1_555
C48 C46 1_555 1_555
C49 C47 1_555 1_555
C50 O20 1_555 1_555
H34 C50 1_555 1_555
H35 C50 1_555 1_555
H36 C50 1_555 1_555
C51 O21 1_555 1_555
H37 C51 1_555 1_555
H38 C51 1_555 1_555
H39 C51 1_555 1_555
O24 C68 1_555 1_555
C59 C54 1_555 1_555
H42 C59 1_555 1_555
C60 C22 1_555 1_555
O26 C65 1_555 1_555
C63 C60 1_555 1_555
H44 C63 1_555 1_555
O27 C68 1_555 1_555
C65 C27 1_555 1_555
C66 O26 1_555 1_555
H45 C66 1_555 1_555
H47 C66 1_555 1_555
C68 C54 1_555 1_555
Co8 O16 1_555 1_555
Co9 O24 1_555 1_555
Co12 O27 1_555 1_555
O37 Co5 1_555 1_555
O38 Co8 1_555 1_555
O39 Co2 1_555 1_555
C6 C12 1_555 1_555
C7 C17 1_555 1_555
O17 Co8 1_555 1_555
C41 C45 1_555 1_555
C42 C44 1_555 1_555
C48 C49 1_555 1_555
C63 C65 1_555 1_555
Co6 O3_2 1_555 1_555
O3_2 C1_2 1_555 1_555
O34 C17_2 1_555 1_555
C1_2 O35 1_555 1_555
C5_2 C14_2 1_555 1_555
O6_2 Co6 1_555 1_555
C6_2 C1_2 1_555 1_555
O37 C34_2 1_555 1_555
C7_2 C15_2 1_555 1_555
C8_2 C6_2 1_555 1_555
H2_2 C8_2 1_555 1_555
C9_2 C15_2 1_555 1_555
H3_2 C12_2 1_555 1_555
C14_2 C16_2 1_555 1_555
C15_2 H4_2 1_555 1_555
C16_2 C7_2 1_555 1_555
H5_2 C16_2 1_555 1_555
C17_2 O6_2 1_555 1_555
C19_2 C9_2 1_555 1_555
H6_2 C19_2 1_555 1_555
O8_2 C27_2 1_555 1_555
C20_2 C5_2 1_555 1_555
C22_2 C5_2 1_555 1_555
C24_2 C22_2 1_555 1_555
H9_2 C24_2 1_555 1_555
O11_2 C29_2 1_555 1_555
C26_2 C20_2 1_555 1_555
H10_2 C26_2 1_555 1_555
O39 C34_2 1_555 1_555
C27_2 C24_2 1_555 1_555
C29_2 C26_2 1_555 1_555
C31_2 O11_2 1_555 1_555
H14_2 C31_2 1_555 1_555
H16_2 C31_2 1_555 1_555
C32_2 O8_2 1_555 1_555
H17_2 C32_2 1_555 1_555
H19_2 C32_2 1_555 1_555
C34_2 C9_2 1_555 1_555
O31 Co6 1_555 1_555
O32 Co6 1_555 1_555
C6_2 C12_2 1_555 1_555
C7_2 C17_2 1_555 1_555
C14_2 C19_2 1_555 1_555
O22_2 C58_2 1_555 1_555
C52_2 C55_2 1_555 1_555
O23_2 C58_2 1_555 1_555
O38 C68_2 1_555 1_555
C53_2 C56_2 1_555 1_555
C54_2 C56_2 1_555 1_555
C55_2 C57_2 1_555 1_555
C56_2 H40_2 1_555 1_555
C57_2 C53_2 1_555 1_555
H41_2 C57_2 1_555 1_555
C58_2 C53_2 1_555 1_555
C59_2 C54_2 1_555 1_555
H42_2 C59_2 1_555 1_555
O25_2 C64_2 1_555 1_555
C62_2 C61_2 1_555 1_555
H43_2 C62_2 1_555 1_555
O26_2 C65_2 1_555 1_555
C63_2 C60_2 1_555 1_555
H44_2 C63_2 1_555 1_555
O27_2 C68_2 1_555 1_555
C66_2 O26_2 1_555 1_555
H45_2 C66_2 1_555 1_555
H47_2 C66_2 1_555 1_555
C67_2 O25_2 1_555 1_555
H48_2 C67_2 1_555 1_555
H50_2 C67_2 1_555 1_555
C68_2 C54_2 1_555 1_555
Co9 O23_2 1_555 1_555
Co12 O22_2 1_555 1_555
Co11 O27_2 1_555 1_555
C52_2 C60_2 1_555 1_555
C52_2 C61_2 1_555 1_555
C55_2 C59_2 1_555 1_555
C62_2 C64_2 1_555 1_555
C63_2 C65_2 1_555 1_555
O16_2 C36_2 1_555 1_555
O17_2 C36_2 1_555 1_555
C36_2 C37_2 1_555 1_555
C37_2 C38_2 1_555 1_555
C38_2 H29_2 1_555 1_555
C44_2 C38_2 1_555 1_555
Co9 O16_2 1_555 1_555
O33 Co9 1_555 1_555
O17_2 Co9 1_555 1_555
C42_2 C44_2 1_555 1_555
O31 C2_2 1_555 1_555
O32 C2_2 1_555 1_555
C2_2 C3_2 1_555 1_555
C3_2 C4_2 1_555 1_555
C4_2 H1_2 1_555 1_555
C11_2 C13_2 1_555 1_555
C13_2 C4_2 1_555 1_555
O33 C35_2 1_555 1_555
C35_2 O19_2 1_555 1_555
O19_2 Co12 1_555 1_555
C39_2 C35_2 1_555 1_555
C40_2 C39_2 1_555 1_555
H30_2 C40_2 1_555 1_555
H31_2 C43_2 1_555 1_555
C39_2 C43_2 1_555 1_555
O13_2 Co11 1_555 1_555
H23_2 O13_2 1_555 1_555
H24_2 O13_2 1_555 1_555
O14_2 Co11 1_555 1_555
H25_2 O14_2 1_555 1_555
H26_2 O14_2 1_555 1_555
O15_2 Co11 1_555 1_555
H27_2 O15_2 1_555 1_555
H28_2 O15_2 1_555 1_555
O28_2 Co12 1_555 1_555
H51_2 O28_2 1_555 1_555
H52_2 O28_2 1_555 1_555
O29_2 Co12 1_555 1_555
H53_2 O29_2 1_555 1_555
H54_2 O29_2 1_555 1_555
O30_2 Co12 1_555 1_555
H55_2 O30_2 1_555 1_555
H56_2 O30_2 1_555 1_555
O20_2 C48_2 1_555 1_555
O21_2 C49_2 1_555 1_555
C46_2 C41_2 1_555 1_555
C47_2 C45_2 1_555 1_555
H33_2 C47_2 1_555 1_555
C48_2 C46_2 1_555 1_555
C49_2 C47_2 1_555 1_555
C50_2 O20_2 1_555 1_555
H35_2 C50_2 1_555 1_555
C51_2 O21_2 1_555 1_555
H37_2 C51_2 1_555 1_555
H38_2 C51_2 1_555 1_555
H39_2 C51_2 1_555 1_555
C41_2 C45_2 1_555 1_555
C48_2 C49_2 1_555 1_555
C18_2 C10_2 1_555 1_555
O9_2 C25_2 1_555 1_555
O10_2 C28_2 1_555 1_555
C21_2 C10_2 1_555 1_555
C23_2 C18_2 1_555 1_555
H8_2 C23_2 1_555 1_555
C25_2 C21_2 1_555 1_555
C28_2 C23_2 1_555 1_555
C30_2 O9_2 1_555 1_555
H12_2 C30_2 1_555 1_555
C33_2 O10_2 1_555 1_555
H20_2 C33_2 1_555 1_555
H21_2 C33_2 1_555 1_555
H22_2 C33_2 1_555 1_555
C25_2 C28_2 1_555 1_555

#END
