
###############################################################################
#
# This file contains modified crystal structure data generated from the
# MOF subset of the Cambridge Structural Database (CSD) v543 
# hosted by the Cambridge Crystallographic Data Centre (CCDC).
#
# This work is licensed under the Creative Commons
# Attribution-NonCommercial-ShareAlike 4.0 International License.
# To view a copy of this license, visit
# http://creativecommons.org/licenses/by-nc-sa/4.0/
# or send a letter to
# Creative Commons, PO Box 1866, Mountain View, CA 94042, USA.
#
# CIF created using the CSD Python API on 29 September 2022
# The structure has been converted into the P1 space group
# The structure has a 3D framework
# The original CSD entry LITKIL is in the monoclinic crystal system
# The framework has been calculated to contain at least 10.0% void space
# The void calculation uses a probe of radius 1.32A, grid spacing 0.4
# The framework is charged, counterions have been retained in the structure
# H atom positions have been added when not included in the experimental data
# Generated hydrogen atom positions removed from atoms on special positions
#
###############################################################################

data_LITKIL
_chemical_formula_moiety         '(C40 H68 Cl7 Cu25 N60 O8 5+)n'
_symmetry_cell_setting           triclinic
_symmetry_space_group_name_H-M   'P 1'
_symmetry_Int_Tables_number      1
_space_group_name_Hall           'P 1'
loop_
_symmetry_equiv_pos_site_id
_symmetry_equiv_pos_as_xyz
1 x,y,z
_cell_length_a                   12.985(8)
_cell_length_b                   16.589(9)
_cell_length_c                   20.224(11)
_cell_angle_alpha                90
_cell_angle_beta                 97.959(10)
_cell_angle_gamma                90
_cell_volume                     4314.45
loop_
_atom_site_label
_atom_site_type_symbol
_atom_site_fract_x
_atom_site_fract_y
_atom_site_fract_z
C3 C 0.003(5) 0.278(4) 0.070(3)
C4 C 0.014(4) 0.324(4) 0.130(3)
N1 N 0.001(3) 0.406(2) 0.0497(18)
N2 N 0.004(3) 0.336(2) 0.0202(17)
N8 N 0.007(3) 0.398(3) 0.1160(19)
Cu1 Cu 0.0000 0.5000 0.0000
Cu15 Cu 0.0084(5) 0.5043(4) 0.1614(3)
H10 H 0.0265402 0.299062 0.180283
Cu1_2 Cu 0.0000 0.5000 1.0000
Cu2 Cu 0.0028(5) 0.3246(4) 0.9246(3)
Cl2 Cl 0.051(3) 0.441(2) 0.9250(18)
N35 N 0.011(4) 0.323(3) 0.828(2)
H9 H 0.0770574 0.121608 0.954001
C1 C 0.689(5) 0.112(4) 0.135(3)
C5 C 0.521(5) 0.232(4) 0.283(3)
C6 C 0.511(5) 0.196(4) 0.220(3)
C7 C 0.744(4) 0.137(4) 0.076(3)
N9 N 0.506(3) 0.108(3) 0.295(2)
N10 N 0.503(3) 0.122(2) 0.2279(19)
N11 N 0.511(4) 0.177(3) 0.328(2)
N13 N 0.692(4) 0.089(3) 0.027(2)
N14 N 0.604(3) 0.068(3) 0.054(2)
N15 N 0.607(3) 0.083(3) 0.117(2)
Cu1_3 Cu 1.0000 0.5000 0.0000
Cu3 Cu 0.4916(5) 0.0043(4) 0.3386(3)
Cu5 Cu 0.5000 0.0000 0.0000
Cu6 Cu 0.4959(5) 0.0336(4) 0.1615(3)
O3 O 0.245(5) 0.061(4) 0.050(3)
Cu13 Cu 0.5028(5) 0.1754(4) 0.4246(3)
Cl6 Cl 0.949(3) 0.559(2) 0.0750(18)
Cl7 Cl 0.551(3) 0.059(2) 0.4250(18)
H1 H 0.995562 0.212892 0.0643418
H2 H 0.510327 0.227102 0.172522
H3 H 0.80636 0.180334 0.0735652
H4 H 0.721569 0.120004 0.187165
H5 H 0.534937 0.29585 0.293066
C2 C 0.937(5) 0.090(4) 0.945(3)
C8 C 0.994(4) 0.134(3) 0.944(2)
C9 C 0.746(5) 0.102(4) 0.788(3)
C10 C 0.698(4) 0.080(3) 0.726(3)
N3 N 0.620(3) 0.037(2) 0.7318(18)
N4 N 0.613(3) 0.025(2) 0.7994(19)
N5 N 0.689(3) 0.069(3) 0.836(2)
N6 N 0.853(4) 0.199(4) 0.927(2)
N7 N 0.952(5) 0.212(3) 0.9282(19)
N12 N 0.840(3) 0.119(3) 0.9370(19)
Cu1_4 Cu 1.0000 0.5000 1.0000
Cu4 Cu 0.6981(6) 0.0736(4) 0.9310(3)
Cu5_2 Cu 0.5000 0.0000 1.0000
Cl1 Cl 0.550(3) 0.034(2) 0.9186(16)
O4 O 0.386(3) 0.043(2) 0.7481(17)
N31 N 0.999(3) 0.594(2) 0.9503(18)
N33 N 0.507(3) 0.102(3) 0.6160(19)
Cu17 Cu 0.9916(5) 0.4957(4) 0.8386(3)
H6 H 0.81599 0.138601 0.798401
H7 H 0.72351 0.09714 0.678885
H8 H 0.954808 0.0261545 0.951934
Cu5_3 Cu 0.5000 1.0000 0.0000
O2 O 0.614(3) 0.957(2) 0.2519(17)
C12 C 0.063(5) 0.910(4) 0.055(3)
C18 C 0.006(4) 0.866(3) 0.056(2)
C19 C 0.254(5) 0.898(4) 0.212(3)
C20 C 0.302(4) 0.920(3) 0.274(3)
N18 N 0.380(3) 0.963(2) 0.2682(18)
N19 N 0.387(3) 0.975(2) 0.2006(19)
N20 N 0.311(3) 0.931(3) 0.164(2)
N21 N 0.147(4) 0.801(4) 0.073(2)
N22 N 0.048(5) 0.788(3) 0.0718(19)
N27 N 0.160(3) 0.881(3) 0.0630(19)
Cu9 Cu 0.3019(6) 0.9264(4) 0.0690(3)
Cl3 Cl 0.450(3) 0.966(2) 0.0814(16)
N32 N 0.493(3) 0.898(3) 0.3840(19)
H13 H 0.27649 0.90286 0.321115
H14 H 0.0451921 0.973846 0.0480656
H22 H 0.18401 0.861399 0.201599
Cu5_4 Cu 0.5000 1.0000 1.0000
O1 O 0.755(5) 0.939(4) 0.950(3)
C11 C 0.311(5) 0.888(4) 0.865(3)
C15 C 0.479(5) 0.768(4) 0.717(3)
C16 C 0.489(5) 0.804(4) 0.780(3)
C17 C 0.256(4) 0.863(4) 0.924(3)
N24 N 0.494(3) 0.892(3) 0.705(2)
N25 N 0.497(3) 0.878(2) 0.7721(19)
N26 N 0.489(4) 0.823(3) 0.672(2)
N28 N 0.308(4) 0.911(3) 0.973(2)
N29 N 0.396(3) 0.932(3) 0.946(2)
N30 N 0.393(3) 0.917(3) 0.883(2)
Cu8 Cu 0.5084(5) 0.9957(4) 0.6614(3)
Cu10 Cu 0.5041(5) 0.9664(4) 0.8385(3)
Cu12 Cu 0.4972(5) 0.8246(4) 0.5754(3)
Cl5 Cl 0.449(3) 0.941(2) 0.5750(18)
H15 H 0.19364 0.819666 0.926435
H19 H 0.00443782 0.787108 0.935658
H21 H 0.465063 0.70415 0.706934
H23 H 0.278431 0.879996 0.812835
H24 H 0.489673 0.772898 0.827478
Cu7 Cu 0.9972(5) 0.6754(4) 0.0754(3)
N34 N 0.989(4) 0.677(3) 0.172(2)
H16 H 0.922943 0.878392 0.0459994
C13 C 0.997(5) 0.722(4) 0.930(3)
C14 C 0.986(4) 0.676(4) 0.870(3)
N17 N 0.996(3) 0.664(2) 0.9798(17)
N23 N 0.993(3) 0.602(3) 0.8840(19)
H20 H 0.97346 0.700938 0.819717
Cu5_5 Cu 0.0000 0.5000 0.5000
Cu6_2 Cu 0.0041(5) 0.5336(4) 0.3385(3)
C11_2 C 0.189(5) 0.388(4) 0.635(3)
C12_2 C 0.437(5) 0.410(4) 0.445(3)
C13_2 C 0.503(5) 0.222(4) 0.570(3)
C14_2 C 0.514(4) 0.176(4) 0.630(3)
C15_2 C 0.021(5) 0.268(4) 0.783(3)
C16_2 C 0.011(5) 0.304(4) 0.720(3)
C17_2 C 0.244(4) 0.363(4) 0.576(3)
C18_2 C 0.494(4) 0.366(3) 0.444(2)
C19_2 C 0.246(5) 0.398(4) 0.288(3)
C20_2 C 0.198(4) 0.420(3) 0.226(3)
N16 N 0.501(3) 0.094(2) 0.5497(18)
N17_2 N 0.504(3) 0.164(2) 0.5202(17)
N18_2 N 0.120(3) 0.463(2) 0.2318(18)
N19_2 N 0.113(3) 0.475(2) 0.2994(19)
N20_2 N 0.189(3) 0.431(3) 0.336(2)
N21_2 N 0.353(4) 0.301(4) 0.427(2)
N22_2 N 0.452(5) 0.288(3) 0.4282(19)
N24_2 N 0.006(3) 0.392(3) 0.795(2)
N25_2 N 0.003(3) 0.378(2) 0.7279(19)
N27_2 N 0.340(3) 0.381(3) 0.4370(19)
N28_2 N 0.192(4) 0.411(3) 0.527(2)
N29_2 N 0.104(3) 0.432(3) 0.554(2)
N30_2 N 0.107(3) 0.417(3) 0.617(2)
Cu9_2 Cu 0.1981(6) 0.4264(4) 0.4310(3)
Cl3_2 Cl 0.050(3) 0.466(2) 0.4186(16)
O3_2 O 0.255(5) 0.561(4) 0.450(3)
O4_2 O 0.114(3) 0.543(2) 0.7519(17)
Cu11 Cu 0.5000 0.0000 0.5000
H13_2 H 0.22351 0.40286 0.178885
H14_2 H 0.454808 0.473846 0.451934
H15_2 H 0.30636 0.319666 0.573565
H16_2 H 0.577057 0.378392 0.454001
H19_2 H 0.495562 0.287108 0.564342
H20_2 H 0.52654 0.200938 0.680283
H21_2 H 0.0349372 0.20415 0.793066
H22_2 H 0.31599 0.361399 0.298401
H23_2 H 0.221569 0.379996 0.687165
H24_2 H 0.0103273 0.272898 0.672522
Cu11_2 Cu 0.5000 1.0000 0.5000
C1_2 C 0.811(5) 0.612(4) 0.365(3)
C2_2 C 0.563(5) 0.590(4) 0.555(3)
C3_2 C 0.497(5) 0.778(4) 0.430(3)
C4_2 C 0.486(4) 0.824(4) 0.370(3)
C5_2 C 0.979(5) 0.732(4) 0.217(3)
C6_2 C 0.989(5) 0.696(4) 0.280(3)
C7_2 C 0.756(4) 0.637(4) 0.424(3)
C8_2 C 0.506(4) 0.634(3) 0.556(2)
C9_2 C 0.754(5) 0.602(4) 0.712(3)
C10_2 C 0.802(4) 0.580(3) 0.774(3)
N1_2 N 0.499(3) 0.906(2) 0.4503(18)
N2_2 N 0.496(3) 0.836(2) 0.4798(17)
N3_2 N 0.880(3) 0.537(2) 0.7682(18)
N4_2 N 0.887(3) 0.525(2) 0.7006(19)
N5_2 N 0.811(3) 0.569(3) 0.664(2)
N6_2 N 0.647(4) 0.699(4) 0.573(2)
N7_2 N 0.548(5) 0.712(3) 0.5718(19)
N9_2 N 0.994(3) 0.608(3) 0.205(2)
N10_2 N 0.997(3) 0.622(2) 0.2721(19)
N12_2 N 0.660(3) 0.619(3) 0.5630(19)
N13_2 N 0.808(4) 0.589(3) 0.473(2)
N14_2 N 0.896(3) 0.568(3) 0.446(2)
N15_2 N 0.893(3) 0.583(3) 0.383(2)
Cu4_2 Cu 0.8019(6) 0.5736(4) 0.5690(3)
Cu5_6 Cu 1.0000 0.5000 0.5000
Cl1_2 Cl 0.950(3) 0.534(2) 0.5814(16)
O1_2 O 0.745(5) 0.439(4) 0.550(3)
O2_2 O 0.886(3) 0.457(2) 0.2481(17)
Cu10_2 Cu 0.9959(5) 0.4664(4) 0.6615(3)
H1_2 H 0.504438 0.712892 0.435658
H2_2 H 0.989673 0.727102 0.327478
H3_2 H 0.69364 0.680334 0.426435
H4_2 H 0.778431 0.620004 0.312835
H5_2 H 0.965063 0.79585 0.206934
H6_2 H 0.68401 0.638601 0.701599
H7_2 H 0.77649 0.59714 0.821115
H8_2 H 0.545192 0.526154 0.548066
H9_2 H 0.422943 0.621608 0.545999
H10_2 H 0.47346 0.799062 0.319717
loop_
_geom_bond_atom_site_label_1
_geom_bond_atom_site_label_2
_geom_bond_site_symmetry_1
_geom_bond_site_symmetry_2
C3 C4 1_555 1_555
C4 N8 1_555 1_555
N1 N2 1_555 1_555
N2 C3 1_555 1_555
N8 N1 1_555 1_555
Cu1 N1 1_555 1_555
Cu15 N8 1_555 1_555
C4 H10 1_555 1_555
Cl2 Cu1_2 1_555 1_555
N35 Cu2 1_555 1_555
Cu2 Cl2 1_555 1_555
C1 C7 1_555 1_555
C5 C6 1_555 1_555
C6 N10 1_555 1_555
C7 N13 1_555 1_555
N9 N10 1_555 1_555
N10 Cu6 1_555 1_555
N11 C5 1_555 1_555
N13 N14 1_555 1_555
N14 N15 1_555 1_555
N15 C1 1_555 1_555
Cu3 N9 1_555 1_555
Cu5 N14 1_555 1_555
Cu6 N15 1_555 1_555
Cu13 N11 1_555 1_555
Cl6 Cu1_3 1_555 1_555
Cl7 Cu3 1_555 1_555
N9 N11 1_555 1_555
Cu13 Cl7 1_555 1_555
C6 H2 1_555 1_555
C7 H3 1_555 1_555
C1 H4 1_555 1_555
C5 H5 1_555 1_555
C2 C8 1_555 1_555
C8 N7 1_555 1_555
C9 C10 1_555 1_555
C10 N3 1_555 1_555
N3 N4 1_555 1_555
N4 N5 1_555 1_555
N5 C9 1_555 1_555
N6 N7 1_555 1_555
N12 C2 1_555 1_555
Cu4 N5 1_555 1_555
Cl1 Cu4 1_555 1_555
N31 Cu1_4 1_555 1_555
N6 N12 1_555 1_555
N12 Cu4 1_555 1_555
Cu5_2 Cl1 1_555 1_555
C9 H6 1_555 1_555
C10 H7 1_555 1_555
C2 H8 1_555 1_555
C12 C18 1_555 1_555
C18 N22 1_555 1_555
C19 C20 1_555 1_555
C20 N18 1_555 1_555
N20 C19 1_555 1_555
N21 N22 1_555 1_555
N27 C12 1_555 1_555
Cu9 N20 1_555 1_555
Cl3 Cu5_3 1_555 1_555
N18 N19 1_555 1_555
N19 N20 1_555 1_555
N21 N27 1_555 1_555
N27 Cu9 1_555 1_555
Cu9 Cl3 1_555 1_555
C20 H13 1_555 1_555
C12 H14 1_555 1_555
C19 H22 1_555 1_555
C11 C17 1_555 1_555
C15 C16 1_555 1_555
C16 N25 1_555 1_555
C17 N28 1_555 1_555
N24 N25 1_555 1_555
N25 Cu10 1_555 1_555
N26 C15 1_555 1_555
N28 N29 1_555 1_555
N29 Cu5_4 1_555 1_555
N30 C11 1_555 1_555
Cu12 N26 1_555 1_555
Cl5 Cu8 1_555 1_555
N24 N26 1_555 1_555
N24 Cu8 1_555 1_555
N29 N30 1_555 1_555
N30 Cu10 1_555 1_555
Cu12 Cl5 1_555 1_555
C17 H15 1_555 1_555
C15 H21 1_555 1_555
C11 H23 1_555 1_555
C16 H24 1_555 1_555
Cl6 Cu7 1_555 1_555
N34 Cu7 1_555 1_555
C13 C14 1_555 1_555
C14 N23 1_555 1_555
N31 N17 1_555 1_555
N17 C13 1_555 1_555
N23 N31 1_555 1_555
Cu17 N23 1_555 1_555
C14 H20 1_555 1_555
C11_2 C17_2 1_555 1_555
C12_2 C18_2 1_555 1_555
C13_2 C14_2 1_555 1_555
C14_2 N33 1_555 1_555
C15_2 C16_2 1_555 1_555
C16_2 N25_2 1_555 1_555
C17_2 N28_2 1_555 1_555
C18_2 N22_2 1_555 1_555
C19_2 C20_2 1_555 1_555
C20_2 N18_2 1_555 1_555
N16 N17_2 1_555 1_555
N17_2 C13_2 1_555 1_555
N18_2 Cu15 1_555 1_555
N19_2 Cu6_2 1_555 1_555
N20_2 C19_2 1_555 1_555
N21_2 N22_2 1_555 1_555
N22_2 Cu13 1_555 1_555
N33 N16 1_555 1_555
N24_2 N25_2 1_555 1_555
N35 C15_2 1_555 1_555
N27_2 C12_2 1_555 1_555
N28_2 N29_2 1_555 1_555
N29_2 Cu5_5 1_555 1_555
N30_2 C11_2 1_555 1_555
Cu13 N17_2 1_555 1_555
Cu9_2 N20_2 1_555 1_555
Cl3_2 Cu5_5 1_555 1_555
O3_2 Cu9_2 1_555 1_555
Cu11 N16 1_555 1_555
Cu6_2 Cl3_2 1_555 1_555
N18_2 N19_2 1_555 1_555
N19_2 N20_2 1_555 1_555
N21_2 N27_2 1_555 1_555
N24_2 N35 1_555 1_555
N27_2 Cu9_2 1_555 1_555
N28_2 Cu9_2 1_555 1_555
N29_2 N30_2 1_555 1_555
Cu9_2 Cl3_2 1_555 1_555
Cl7 Cu11 1_555 1_555
C20_2 H13_2 1_555 1_555
C12_2 H14_2 1_555 1_555
C17_2 H15_2 1_555 1_555
C18_2 H16_2 1_555 1_555
C13_2 H19_2 1_555 1_555
C14_2 H20_2 1_555 1_555
C15_2 H21_2 1_555 1_555
C19_2 H22_2 1_555 1_555
C11_2 H23_2 1_555 1_555
C16_2 H24_2 1_555 1_555
C1_2 C7_2 1_555 1_555
C2_2 C8_2 1_555 1_555
C3_2 C4_2 1_555 1_555
C4_2 N32 1_555 1_555
C5_2 C6_2 1_555 1_555
C6_2 N10_2 1_555 1_555
C7_2 N13_2 1_555 1_555
C8_2 N7_2 1_555 1_555
C9_2 C10_2 1_555 1_555
C10_2 N3_2 1_555 1_555
N1_2 N2_2 1_555 1_555
N2_2 C3_2 1_555 1_555
N3_2 N4_2 1_555 1_555
N4_2 N5_2 1_555 1_555
N5_2 C9_2 1_555 1_555
N6_2 N7_2 1_555 1_555
N7_2 Cu12 1_555 1_555
N32 N1_2 1_555 1_555
N9_2 N10_2 1_555 1_555
N34 C5_2 1_555 1_555
N12_2 C2_2 1_555 1_555
N13_2 N14_2 1_555 1_555
N14_2 N15_2 1_555 1_555
N15_2 C1_2 1_555 1_555
Cu11_2 N1_2 1_555 1_555
Cu12 N2_2 1_555 1_555
Cu4_2 N5_2 1_555 1_555
Cu5_6 N14_2 1_555 1_555
Cl1_2 Cu4_2 1_555 1_555
Cl5 Cu11_2 1_555 1_555
O1_2 Cu4_2 1_555 1_555
Cu17 N3_2 1_555 1_555
Cu10_2 N4_2 1_555 1_555
N6_2 N12_2 1_555 1_555
N9_2 N34 1_555 1_555
N12_2 Cu4_2 1_555 1_555
N13_2 Cu4_2 1_555 1_555
Cu5_6 Cl1_2 1_555 1_555
Cl1_2 Cu10_2 1_555 1_555
C3_2 H1_2 1_555 1_555
C6_2 H2_2 1_555 1_555
C7_2 H3_2 1_555 1_555
C1_2 H4_2 1_555 1_555
C5_2 H5_2 1_555 1_555
C9_2 H6_2 1_555 1_555
C10_2 H7_2 1_555 1_555
C2_2 H8_2 1_555 1_555
C8_2 H9_2 1_555 1_555
C4_2 H10_2 1_555 1_555

#END
