
###############################################################################
#
# This file contains modified crystal structure data generated from the
# MOF subset of the Cambridge Structural Database (CSD) v543 
# hosted by the Cambridge Crystallographic Data Centre (CCDC).
#
# This work is licensed under the Creative Commons
# Attribution-NonCommercial-ShareAlike 4.0 International License.
# To view a copy of this license, visit
# http://creativecommons.org/licenses/by-nc-sa/4.0/
# or send a letter to
# Creative Commons, PO Box 1866, Mountain View, CA 94042, USA.
#
# CIF created using the CSD Python API on 29 September 2022
# The structure has been converted into the P1 space group
# The structure has a 3D framework
# The original CSD entry LIVLUZ01 is in the orthorhombic crystal system
# The framework has been calculated to contain at least 10.0% void space
# The void calculation uses a probe of radius 1.32A, grid spacing 0.4
#
###############################################################################

data_LIVLUZ01
_chemical_formula_moiety         '(C72 H48 Cd4 N24 O16)n'
_symmetry_cell_setting           triclinic
_symmetry_space_group_name_H-M   'P 1'
_symmetry_Int_Tables_number      1
_space_group_name_Hall           'P 1'
loop_
_symmetry_equiv_pos_site_id
_symmetry_equiv_pos_as_xyz
1 x,y,z
_cell_length_a                   18.8515(19)
_cell_length_b                   8.2335(8)
_cell_length_c                   18.1781(18)
_cell_angle_alpha                90
_cell_angle_beta                 90
_cell_angle_gamma                90
_cell_volume                     2821.49
loop_
_atom_site_label
_atom_site_type_symbol
_atom_site_fract_x
_atom_site_fract_y
_atom_site_fract_z
O4 O 0.00276(19) 0.2257(4) 0.68020(18)
C8 C 0.0328(2) 0.1519(6) 0.8727(3)
H5 H 0.0321(2) 0.2589(6) 0.8890(3)
C9 C 0.0167(2) 0.1182(6) 0.7996(3)
C12 C 0.0498(3) 0.0287(6) 0.9217(3)
H7 H 0.0608(3) 0.0516(6) 0.9705(3)
N7 N 0.08336(17) 0.5835(4) 0.6654(3)
C3 C 0.3479(2) 0.9587(5) 0.6460(3)
H1 H 0.3956(2) 0.9386(5) 0.6367(3)
N2 N 0.18065(17) 0.7306(4) 0.6701(2)
C4 C 0.3001(2) 0.8302(5) 0.6505(4)
H2 H 0.3157(2) 0.7236(5) 0.6454(4)
C5 C 0.2295(2) 0.8628(5) 0.6624(4)
C11 C 0.1133(2) 0.7232(5) 0.6459(3)
H6 H 0.0908(2) 0.8046(5) 0.6191(3)
C14 C 0.1342(3) 0.4990(5) 0.7032(3)
H9 H 0.1277(3) 0.3962(5) 0.7234(3)
N6 N 0.1963(3) 0.5864(6) 0.7074(3)
N4 N 0.0588(2) 0.5891(5) 0.0446(2)
C13 C 0.0396(3) 0.7276(6) 0.0150(3)
H8 H 0.0129(3) 0.8069(6) 0.0387(3)
Cd2 Cd 0.029850(12) 0.49844(3) 0.156552(18)
C1 C 0.1238(2) 0.2549(4) 0.1543(3)
C2 C 0.1758(2) 0.1168(4) 0.1556(4)
O1 O 0.01936(18) 0.6103(4) 0.2737(2)
O2 O 0.06236(16) 0.2280(4) 0.1295(2)
O3 O 0.14295(16) 0.3922(4) 0.17790(19)
C6 C 0.2957(2) 0.0205(5) 0.1705(3)
H3 H 0.3437(2) 0.0407(5) 0.1781(3)
C7 C 0.2471(2) 0.1467(5) 0.1668(4)
H4 H 0.2627(2) 0.2532(5) 0.1721(4)
C10 C 0.0013(2) 0.7464(6) 0.2474(3)
N3 N 0.0987(3) 0.5056(6) 0.9917(3)
N5 N 0.0640(2) 0.7393(4) 0.9451(2)
C15 C 0.1012(3) 0.5981(6) 0.9294(3)
H10 H 0.1235(3) 0.5718(6) 0.8854(3)
C16 C 0.0181(3) 0.9600(6) 0.7750(3)
H11 H 0.0083(3) 0.9375(6) 0.7259(3)
C17 C 0.0339(3) 0.8344(6) 0.8227(3)
H12 H 0.0338(3) 0.7275(6) 0.8063(3)
C18 C 0.0499(2) 0.8702(6) 0.8956(3)
N1 N 0.58336(17) 0.4165(4) 0.6654(3)
C3_2 C 0.8479(2) 0.0413(5) 0.6460(3)
H1_2 H 0.8956(2) 0.0614(5) 0.6367(3)
N2_2 N 0.68065(17) 0.2694(4) 0.6701(2)
C4_2 C 0.8001(2) 0.1698(5) 0.6505(4)
H2_2 H 0.8157(2) 0.2764(5) 0.6454(4)
C5_2 C 0.7295(2) 0.1372(5) 0.6624(4)
C11_2 C 0.6133(2) 0.2768(5) 0.6459(3)
H6_2 H 0.5908(2) 0.1954(5) 0.6191(3)
C14_2 C 0.6342(3) 0.5010(5) 0.7032(3)
H9_2 H 0.6277(3) 0.6038(5) 0.7234(3)
N6_2 N 0.6963(3) 0.4136(6) 0.7074(3)
Cd3 Cd 0.470150(12) 0.49844(3) 0.656552(18)
N3_2 N 0.4013(3) 0.5056(6) 0.4917(3)
N4_2 N 0.4412(2) 0.5891(5) 0.5446(2)
C13_2 C 0.4604(3) 0.7276(6) 0.5150(3)
H8_2 H 0.4871(3) 0.8069(6) 0.5387(3)
N5_2 N 0.4360(2) 0.7393(4) 0.4451(2)
C15_2 C 0.3988(3) 0.5981(6) 0.4294(3)
H10_2 H 0.3765(3) 0.5718(6) 0.3854(3)
C16_2 C 0.4819(3) 0.9600(6) 0.2750(3)
H11_2 H 0.4917(3) 0.9375(6) 0.2259(3)
C17_2 C 0.4661(3) 0.8344(6) 0.3227(3)
H12_2 H 0.4662(3) 0.7275(6) 0.3063(3)
C18_2 C 0.4501(2) 0.8702(6) 0.3956(3)
C1_2 C 0.3762(2) 0.2549(4) 0.6543(3)
C2_2 C 0.3242(2) 0.1168(4) 0.6556(4)
O1_2 O 0.48064(18) 0.6103(4) 0.7737(2)
O2_2 O 0.43764(16) 0.2280(4) 0.6295(2)
O3_2 O 0.35705(16) 0.3922(4) 0.67790(19)
O4_2 O 0.50276(19) 0.7743(4) 0.68020(18)
C6_2 C 0.2043(2) 0.0205(5) 0.6705(3)
H3_2 H 0.1563(2) 0.0407(5) 0.6781(3)
C7_2 C 0.2529(2) 0.1467(5) 0.6668(4)
H4_2 H 0.2373(2) 0.2532(5) 0.6721(4)
C8_2 C 0.5328(2) 0.8481(6) 0.8727(3)
H5_2 H 0.5321(2) 0.7411(6) 0.8890(3)
C9_2 C 0.5167(2) 0.8818(6) 0.7996(3)
C10_2 C 0.4987(2) 0.7464(6) 0.7474(3)
C12_2 C 0.5498(3) 0.9713(6) 0.9217(3)
H7_2 H 0.5608(3) 0.9484(6) 0.9705(3)
Cd1 Cd 0.970150(12) 0.50156(3) 0.656552(18)
C1_3 C 0.8762(2) 0.7451(4) 0.6543(3)
C2_3 C 0.8242(2) 0.8832(4) 0.6556(4)
O1_3 O 0.98064(18) 0.3897(4) 0.7737(2)
O2_3 O 0.93764(16) 0.7720(4) 0.6295(2)
O3_3 O 0.85705(16) 0.6078(4) 0.67790(19)
C6_3 C 0.7043(2) 0.9795(5) 0.6705(3)
H3_3 H 0.6563(2) 0.9593(5) 0.6781(3)
C7_3 C 0.7529(2) 0.8533(5) 0.6668(4)
H4_3 H 0.7373(2) 0.7468(5) 0.6721(4)
C10_3 C 0.9987(2) 0.2536(6) 0.7474(3)
N8 N 0.9412(2) 0.4109(5) 0.5446(2)
N3_3 N 0.9013(3) 0.4944(6) 0.4917(3)
C13_3 C 0.9604(3) 0.2724(6) 0.5150(3)
H8_3 H 0.9871(3) 0.1931(6) 0.5387(3)
N5_3 N 0.9360(2) 0.2607(4) 0.4451(2)
C15_3 C 0.8988(3) 0.4019(6) 0.4294(3)
H10_3 H 0.8765(3) 0.4282(6) 0.3854(3)
C16_3 C 0.9819(3) 0.0400(6) 0.2750(3)
H11_3 H 0.9917(3) 0.0625(6) 0.2259(3)
C17_3 C 0.9661(3) 0.1656(6) 0.3227(3)
H12_3 H 0.9662(3) 0.2725(6) 0.3063(3)
C18_3 C 0.9501(2) 0.1298(6) 0.3956(3)
N1_2 N 0.41664(17) 0.5835(4) 0.1654(3)
C3_3 C 0.1521(2) 0.9587(5) 0.1460(3)
H1_3 H 0.1044(2) 0.9386(5) 0.1367(3)
N2_3 N 0.31935(17) 0.7306(4) 0.1701(2)
C4_3 C 0.1999(2) 0.8302(5) 0.1505(4)
H2_3 H 0.1843(2) 0.7236(5) 0.1454(4)
C5_3 C 0.2705(2) 0.8628(5) 0.1624(4)
C11_3 C 0.3867(2) 0.7232(5) 0.1459(3)
H6_3 H 0.4092(2) 0.8046(5) 0.1191(3)
C14_3 C 0.3658(3) 0.4990(5) 0.2032(3)
H9_3 H 0.3723(3) 0.3962(5) 0.2234(3)
N6_3 N 0.3037(3) 0.5864(6) 0.2074(3)
Cd3_2 Cd 0.529850(12) 0.50156(3) 0.156552(18)
C1_4 C 0.6238(2) 0.7451(4) 0.1543(3)
C2_4 C 0.6758(2) 0.8832(4) 0.1556(4)
O1_4 O 0.51936(18) 0.3897(4) 0.2737(2)
O2_4 O 0.56236(16) 0.7720(4) 0.1295(2)
O3_4 O 0.64295(16) 0.6078(4) 0.17790(19)
O4_3 O 0.49724(19) 0.2257(4) 0.18020(18)
C6_4 C 0.7957(2) 0.9795(5) 0.1705(3)
H3_4 H 0.8437(2) 0.9593(5) 0.1781(3)
C7_4 C 0.7471(2) 0.8533(5) 0.1668(4)
H4_4 H 0.7627(2) 0.7468(5) 0.1721(4)
C8_3 C 0.4672(2) 0.1519(6) 0.3727(3)
H5_3 H 0.4679(2) 0.2589(6) 0.3890(3)
C9_3 C 0.4833(2) 0.1182(6) 0.2996(3)
C10_4 C 0.5013(2) 0.2536(6) 0.2474(3)
C12_3 C 0.4502(3) 0.0287(6) 0.4217(3)
H7_3 H 0.4392(3) 0.0516(6) 0.4705(3)
N8_2 N 0.5588(2) 0.4109(5) 0.0446(2)
C13_4 C 0.5396(3) 0.2724(6) 0.0150(3)
H8_4 H 0.5129(3) 0.1931(6) 0.0387(3)
O4_4 O 0.99724(19) 0.7743(4) 0.18020(18)
C8_4 C 0.9672(2) 0.8481(6) 0.3727(3)
H5_4 H 0.9679(2) 0.7411(6) 0.3890(3)
C9_4 C 0.9833(2) 0.8818(6) 0.2996(3)
C12_4 C 0.9502(3) 0.9713(6) 0.4217(3)
H7_4 H 0.9392(3) 0.9484(6) 0.4705(3)
N7_2 N 0.91664(17) 0.4165(4) 0.1654(3)
C3_4 C 0.6521(2) 0.0413(5) 0.1460(3)
H1_4 H 0.6044(2) 0.0614(5) 0.1367(3)
N2_4 N 0.81935(17) 0.2694(4) 0.1701(2)
C4_4 C 0.6999(2) 0.1698(5) 0.1505(4)
H2_4 H 0.6843(2) 0.2764(5) 0.1454(4)
C5_4 C 0.7705(2) 0.1372(5) 0.1624(4)
C11_4 C 0.8867(2) 0.2768(5) 0.1459(3)
H6_4 H 0.9092(2) 0.1954(5) 0.1191(3)
C14_4 C 0.8658(3) 0.5010(5) 0.2032(3)
H9_4 H 0.8723(3) 0.6038(5) 0.2234(3)
N6_4 N 0.8037(3) 0.4136(6) 0.2074(3)
N3_4 N 0.5987(3) 0.4944(6) 0.9917(3)
N5_4 N 0.5640(2) 0.2607(4) 0.9451(2)
C15_4 C 0.6012(3) 0.4019(6) 0.9294(3)
H10_4 H 0.6235(3) 0.4282(6) 0.8854(3)
C16_4 C 0.5181(3) 0.0400(6) 0.7750(3)
H11_4 H 0.5083(3) 0.0625(6) 0.7259(3)
C17_4 C 0.5339(3) 0.1656(6) 0.8227(3)
H12_4 H 0.5338(3) 0.2725(6) 0.8063(3)
C18_4 C 0.5499(2) 0.1298(6) 0.8956(3)
loop_
_geom_bond_atom_site_label_1
_geom_bond_atom_site_label_2
_geom_bond_site_symmetry_1
_geom_bond_site_symmetry_2
C8 H5 1_555 1_555
C9 C8 1_555 1_555
C12 C8 1_555 1_555
H7 C12 1_555 1_555
N7 C11 1_555 1_555
C3 H1 1_555 1_555
N2 C5 1_555 1_555
C4 C3 1_555 1_555
H2 C4 1_555 1_555
C5 C4 1_555 1_555
C11 N2 1_555 1_555
H6 C11 1_555 1_555
C14 N7 1_555 1_555
H9 C14 1_555 1_555
N6 N2 1_555 1_555
C14 N6 1_555 1_555
N4 C13 1_555 1_555
C13 H8 1_555 1_555
Cd2 N4 1_555 1_555
Cd2 O1 1_555 1_555
C1 C2 1_555 1_555
O1 C10 1_555 1_555
O2 Cd2 1_555 1_555
O3 Cd2 1_555 1_555
H3 C6 1_555 1_555
C7 C2 1_555 1_555
H4 C7 1_555 1_555
C1 O2 1_555 1_555
C1 O3 1_555 1_555
C6 C7 1_555 1_555
C15 N3 1_555 1_555
H10 C15 1_555 1_555
H11 C16 1_555 1_555
C17 C16 1_555 1_555
H12 C17 1_555 1_555
N5 C15 1_555 1_555
N5 C18 1_555 1_555
C17 C18 1_555 1_555
N1 C11_2 1_555 1_555
C3_2 H1_2 1_555 1_555
N2_2 C5_2 1_555 1_555
C4_2 C3_2 1_555 1_555
H2_2 C4_2 1_555 1_555
C5_2 C4_2 1_555 1_555
C11_2 N2_2 1_555 1_555
H6_2 C11_2 1_555 1_555
C14_2 N1 1_555 1_555
H9_2 C14_2 1_555 1_555
N6_2 N2_2 1_555 1_555
Cd3 N1 1_555 1_555
C14_2 N6_2 1_555 1_555
N3_2 N4_2 1_555 1_555
N4_2 C13_2 1_555 1_555
C13_2 H8_2 1_555 1_555
N5_2 C13_2 1_555 1_555
C15_2 N3_2 1_555 1_555
H10_2 C15_2 1_555 1_555
H11_2 C16_2 1_555 1_555
C17_2 C16_2 1_555 1_555
H12_2 C17_2 1_555 1_555
Cd3 N4_2 1_555 1_555
N5_2 C15_2 1_555 1_555
N5_2 C18_2 1_555 1_555
C17_2 C18_2 1_555 1_555
Cd3 O1_2 1_555 1_555
C1_2 C2_2 1_555 1_555
O1_2 C10_2 1_555 1_555
O2_2 Cd3 1_555 1_555
O3_2 Cd3 1_555 1_555
O4_2 Cd3 1_555 1_555
H3_2 C6_2 1_555 1_555
C7_2 C2_2 1_555 1_555
H4_2 C7_2 1_555 1_555
C8_2 H5_2 1_555 1_555
C9_2 C8_2 1_555 1_555
C10_2 O4_2 1_555 1_555
C12_2 C8_2 1_555 1_555
H7_2 C12_2 1_555 1_555
C1_2 O2_2 1_555 1_555
C1_2 O3_2 1_555 1_555
C6_2 C7_2 1_555 1_555
C9_2 C10_2 1_555 1_555
Cd1 O1_3 1_555 1_555
C1_3 C2_3 1_555 1_555
O1_3 C10_3 1_555 1_555
O2_3 Cd1 1_555 1_555
O3_3 Cd1 1_555 1_555
H3_3 C6_3 1_555 1_555
C7_3 C2_3 1_555 1_555
H4_3 C7_3 1_555 1_555
N8 Cd1 1_555 1_555
C1_3 O2_3 1_555 1_555
C1_3 O3_3 1_555 1_555
C6_3 C7_3 1_555 1_555
N3_3 N8 1_555 1_555
N8 C13_3 1_555 1_555
C13_3 H8_3 1_555 1_555
N5_3 C13_3 1_555 1_555
C15_3 N3_3 1_555 1_555
H10_3 C15_3 1_555 1_555
H11_3 C16_3 1_555 1_555
C17_3 C16_3 1_555 1_555
H12_3 C17_3 1_555 1_555
N5_3 C15_3 1_555 1_555
N5_3 C18_3 1_555 1_555
C17_3 C18_3 1_555 1_555
N1_2 C11_3 1_555 1_555
C3_3 H1_3 1_555 1_555
N2_3 C5_3 1_555 1_555
C4_3 C3_3 1_555 1_555
H2_3 C4_3 1_555 1_555
C5_3 C4_3 1_555 1_555
C11_3 N2_3 1_555 1_555
H6_3 C11_3 1_555 1_555
C14_3 N1_2 1_555 1_555
H9_3 C14_3 1_555 1_555
N6_3 N2_3 1_555 1_555
Cd3_2 N1_2 1_555 1_555
C14_3 N6_3 1_555 1_555
Cd3_2 O1_4 1_555 1_555
C1_4 C2_4 1_555 1_555
O1_4 C10_4 1_555 1_555
O2_4 Cd3_2 1_555 1_555
O3_4 Cd3_2 1_555 1_555
O4_3 Cd3_2 1_555 1_555
H3_4 C6_4 1_555 1_555
C7_4 C2_4 1_555 1_555
H4_4 C7_4 1_555 1_555
C8_3 H5_3 1_555 1_555
C9_3 C8_3 1_555 1_555
C10_4 O4_3 1_555 1_555
C12_3 C8_3 1_555 1_555
H7_3 C12_3 1_555 1_555
N8_2 Cd3_2 1_555 1_555
C1_4 O2_4 1_555 1_555
C1_4 O3_4 1_555 1_555
C6_4 C7_4 1_555 1_555
C9_3 C10_4 1_555 1_555
N8_2 C13_4 1_555 1_555
C13_4 H8_4 1_555 1_555
C8_4 H5_4 1_555 1_555
C9_4 C8_4 1_555 1_555
C12_4 C8_4 1_555 1_555
H7_4 C12_4 1_555 1_555
N7_2 C11_4 1_555 1_555
C3_4 H1_4 1_555 1_555
N2_4 C5_4 1_555 1_555
C4_4 C3_4 1_555 1_555
H2_4 C4_4 1_555 1_555
C5_4 C4_4 1_555 1_555
C11_4 N2_4 1_555 1_555
H6_4 C11_4 1_555 1_555
C14_4 N7_2 1_555 1_555
H9_4 C14_4 1_555 1_555
N6_4 N2_4 1_555 1_555
C14_4 N6_4 1_555 1_555
C15_4 N3_4 1_555 1_555
H10_4 C15_4 1_555 1_555
H11_4 C16_4 1_555 1_555
C17_4 C16_4 1_555 1_555
H12_4 C17_4 1_555 1_555
N5_4 C15_4 1_555 1_555
N5_4 C18_4 1_555 1_555
C17_4 C18_4 1_555 1_555

#END
