
###############################################################################
#
# This file contains modified crystal structure data generated from the
# MOF subset of the Cambridge Structural Database (CSD) v543 
# hosted by the Cambridge Crystallographic Data Centre (CCDC).
#
# This work is licensed under the Creative Commons
# Attribution-NonCommercial-ShareAlike 4.0 International License.
# To view a copy of this license, visit
# http://creativecommons.org/licenses/by-nc-sa/4.0/
# or send a letter to
# Creative Commons, PO Box 1866, Mountain View, CA 94042, USA.
#
# CIF created using the CSD Python API on 29 September 2022
# The structure has been converted into the P1 space group
# The structure has a 3D framework
# The original CSD entry LIWTET is in the monoclinic crystal system
# The framework has been calculated to contain at least 10.0% void space
# The void calculation uses a probe of radius 1.32A, grid spacing 0.4
#
###############################################################################

data_LIWTET
_chemical_formula_moiety         '(C88 H80 Mn12 O64 S12)n'
_symmetry_cell_setting           triclinic
_symmetry_space_group_name_H-M   'P 1'
_symmetry_Int_Tables_number      1
_space_group_name_Hall           'P 1'
loop_
_symmetry_equiv_pos_site_id
_symmetry_equiv_pos_as_xyz
1 x,y,z
_cell_length_a                   12.8279(2)
_cell_length_b                   17.1897(2)
_cell_length_c                   20.8119(3)
_cell_angle_alpha                90
_cell_angle_beta                 121.7480(10)
_cell_angle_gamma                90
_cell_volume                     3902.51
loop_
_atom_site_label
_atom_site_type_symbol
_atom_site_fract_x
_atom_site_fract_y
_atom_site_fract_z
O6 O 0.75212(13) 0.63198(9) 0.01550(8)
H5 H 0.7944 0.6057 0.0044
H6 H 0.8027 0.6617 0.0511
C21 C 0.5699(2) 0.55425(14) 0.05562(12)
H17 H 0.5253 0.5575 0.0814
H18 H 0.6403 0.5886 0.0812
O19 O 0.50776(14) 0.42151(9) 0.02142(9)
C26 C 0.6119(2) 0.47305(15) 0.05881(13)
H27 H 0.6649 0.4573 0.1111
H28 H 0.6586 0.4700 0.0344
Mn15 Mn 0.42503(3) 0.34796(2) 0.07815(2)
Mn1 Mn 0.27329(3) 0.67883(2) 0.76782(2)
Mn3 Mn 0.57497(3) 0.65204(2) 0.92185(2)
S1 S 0.07751(5) 0.43878(3) 0.80316(3)
S2 S 0.23630(5) 0.73807(4) 0.48589(3)
S3 S 0.56392(5) 0.40896(3) 0.77950(3)
O1 O 0.15576(13) 0.58749(8) 0.76396(8)
O5 O 0.05590(13) 0.28823(8) 0.87542(8)
O8 O 0.24270(14) 0.64806(9) 0.66015(8)
O9 O 0.09435(13) 0.70975(9) 0.55813(8)
O10 O 0.51782(14) 0.75690(9) 0.46118(9)
O11 O 0.32009(14) 0.78863(9) 0.38257(8)
O12 O 0.42819(12) 0.59434(8) 0.81844(8)
O13 O 0.61653(13) 0.55019(9) 0.87226(9)
O14 O 0.39080(13) 0.23927(8) 0.63792(8)
O15 O 0.59019(13) 0.26362(9) 0.71886(8)
O17 O 0.49224(14) 0.57849(9) 0.97858(9)
C1 C 0.04887(18) 0.56900(12) 0.71378(11)
C7 C 0.20238(19) 0.68549(12) 0.60014(11)
C8 C 0.28763(19) 0.70138(13) 0.57433(11)
C9 C 0.4109(2) 0.68850(16) 0.61308(13)
H9 H 0.4546 0.6684 0.6618
C10 C 0.4651(2) 0.70881(16) 0.57164(13)
H10 H 0.5486 0.7046 0.5903
C11 C 0.38162(19) 0.73524(13) 0.50125(12)
C12 C 0.4064(2) 0.76183(12) 0.44323(12)
C13 C 0.50506(18) 0.54522(12) 0.82184(11)
C14 C 0.46254(19) 0.48026(12) 0.76888(12)
C15 C 0.3470(2) 0.46432(14) 0.71144(14)
H11 H 0.2805 0.4969 0.6971
C16 C 0.3388(2) 0.39326(14) 0.67587(14)
H12 H 0.2660 0.3735 0.6357
C17 C 0.44899(19) 0.35641(13) 0.70665(12)
C18 C 0.48030(19) 0.28083(12) 0.68696(12)
H13 H 0.0139 0.6126 0.4467
C22 C 0.3881(2) 0.52695(15) 0.94119(13)
H19 H 0.3351 0.5427 0.8889
H20 H 0.3414 0.5300 0.9656
O18 O 0.06622(14) 0.43276(9) 0.50256(9)
C23 C 0.0106(2) 0.43870(14) 0.54676(12)
H22 H 0.0698 0.4592 0.5964
C24 C 0.0997(2) 0.50879(13) 0.49115(14)
H23 H 0.1609 0.5308 0.5395
H24 H 0.1352 0.5049 0.4601
C25 C 0.4301(2) 0.44575(14) 0.94438(12)
H25 H 0.4747 0.4425 0.9186
H26 H 0.3597 0.4114 0.9188
Mn5 Mn 0.05675(3) 0.31743(2) 0.43261(2)
O21 O 0.14721(13) 0.26308(9) 0.54388(8)
H29 H 0.2218 0.2580 0.5747
H30 H 0.1113 0.2433 0.5642
O22 O 0.01962(13) 0.39672(9) 0.34798(8)
O23 O 0.25066(14) 0.33175(10) 0.46003(11)
H31 H 0.2951 0.2970 0.4906
H32 H 0.2601 0.3627 0.4316
O26 O 0.13652(14) 0.73496(9) 0.21660(9)
C28 C 0.00626(18) 0.50104(12) 0.27324(11)
C29 C 0.1231(2) 0.52653(14) 0.31750(13)
H35 H 0.1820 0.5009 0.3611
C30 C 0.1467(2) 0.59560(14) 0.29095(13)
H36 H 0.2224 0.6204 0.3150
C31 C 0.04626(18) 0.62203(12) 0.22623(11)
C32 C 0.04217(19) 0.69475(12) 0.18642(12)
Mn8 Mn 0.72671(3) 0.17883(2) 0.73218(2)
Mn10 Mn 0.27329(3) 0.82117(2) 0.26782(2)
Mn11 Mn 0.05675(3) 0.18257(2) 0.93261(2)
Mn14 Mn 0.42503(3) 0.15204(2) 0.57815(2)
Mn17 Mn 0.57497(3) 0.84796(2) 0.42185(2)
O36 O 0.05590(13) 0.21177(8) 0.37542(8)
O37 O 0.13652(14) 0.76504(9) 0.71660(9)
O40 O 0.51782(14) 0.74310(9) 0.96118(9)
O42 O 0.32009(14) 0.71137(9) 0.88257(8)
O43 O 0.60920(13) 0.73927(8) 0.86208(8)
O45 O 0.40981(13) 0.76362(9) 0.78114(8)
Mn2 Mn 0.94325(3) 0.68257(2) 0.56739(2)
O2 O 0.85279(13) 0.73692(9) 0.45612(8)
H1 H 0.7782 0.7420 0.4253
H2 H 0.8887 0.7567 0.4358
O3 O 0.98038(13) 0.60328(9) 0.65202(8)
O4 O 0.74934(14) 0.66825(10) 0.53997(11)
H3 H 0.7049 0.7030 0.5094
H4 H 0.7399 0.6373 0.5684
O7 O 0.86348(14) 0.26504(9) 0.78340(9)
O16 O 0.93378(14) 0.56724(9) 0.49744(9)
C2 C 0.99374(18) 0.49896(12) 0.72676(11)
C3 C 0.8769(2) 0.47347(14) 0.68250(13)
H7 H 0.8180 0.4991 0.6389
C4 C 0.8533(2) 0.40440(14) 0.70905(13)
H8 H 0.7776 0.3796 0.6850
C5 C 0.95374(18) 0.37797(12) 0.77377(11)
C6 C 0.95783(19) 0.30525(12) 0.81358(12)
C19 C 0.9894(2) 0.56130(14) 0.45324(12)
H14 H 0.9302 0.5408 0.4036
C20 C 0.9003(2) 0.49121(13) 0.50885(14)
H15 H 0.8391 0.4692 0.4605
H16 H 0.8648 0.4951 0.5399
H21 H 0.9861 0.3874 0.5533
Mn4 Mn 0.72671(3) 0.32117(2) 0.23218(2)
S4 S 0.92249(5) 0.56122(3) 0.19684(3)
S5 S 0.76370(5) 0.26193(4) 0.51411(3)
S6 S 0.43608(5) 0.59104(3) 0.22050(3)
O20 O 0.84424(13) 0.41251(8) 0.23604(8)
O24 O 0.94410(13) 0.71177(8) 0.12458(8)
O27 O 0.75730(14) 0.35194(9) 0.33985(8)
O28 O 0.90565(13) 0.29025(9) 0.44187(8)
O29 O 0.48218(14) 0.24310(9) 0.53882(9)
O30 O 0.67991(14) 0.21137(9) 0.61743(8)
O31 O 0.57181(12) 0.40566(8) 0.18156(8)
O32 O 0.38347(13) 0.44981(9) 0.12774(9)
O33 O 0.60920(13) 0.76073(8) 0.36208(8)
O34 O 0.40981(13) 0.73638(9) 0.28114(8)
C27 C 0.95113(18) 0.43100(12) 0.28622(11)
C33 C 0.79762(19) 0.31451(12) 0.39986(11)
C34 C 0.71237(19) 0.29862(13) 0.42567(11)
C35 C 0.5891(2) 0.31150(16) 0.38692(13)
H37 H 0.5454 0.3316 0.3382
C36 C 0.5349(2) 0.29119(16) 0.42836(13)
H38 H 0.4514 0.2954 0.4097
C37 C 0.61838(19) 0.26476(13) 0.49875(12)
C38 C 0.5936(2) 0.23817(12) 0.55677(12)
C39 C 0.49494(18) 0.45478(12) 0.17816(11)
C40 C 0.53746(19) 0.51974(12) 0.23112(12)
C41 C 0.6530(2) 0.53568(14) 0.28856(14)
H39 H 0.7195 0.5031 0.3029
C42 C 0.6612(2) 0.60674(14) 0.32413(14)
H40 H 0.7340 0.6265 0.3643
C43 C 0.55101(19) 0.64359(13) 0.29335(12)
C44 C 0.51970(19) 0.71917(12) 0.31304(12)
Mn12 Mn 0.94325(3) 0.81743(2) 0.06739(2)
O35 O 0.94410(13) 0.78823(8) 0.62458(8)
O38 O 0.86348(14) 0.23496(9) 0.28340(9)
O39 O 0.48218(14) 0.25690(9) 0.03882(9)
O41 O 0.67991(14) 0.28863(9) 0.11743(8)
O44 O 0.39080(13) 0.26073(8) 0.13792(8)
O46 O 0.59019(13) 0.23638(9) 0.21886(8)
O25 O 0.24788(13) 0.36802(9) 0.98450(8)
H33 H 0.2056 0.3943 0.9956
H34 H 0.1973 0.3383 0.9489
O2_2 O 0.14721(13) 0.23692(9) 0.04388(8)
H1_2 H 0.2218 0.2420 0.0747
H2_2 H 0.1113 0.2567 0.0642
O16_2 O 0.06622(14) 0.06724(9) 0.00256(9)
C19_2 C 0.0106(2) 0.06130(14) 0.04676(12)
H14_2 H 0.0698 0.0408 0.0964
S4_2 S 0.07751(5) 0.06122(3) 0.30316(3)
S6_2 S 0.56392(5) 0.09104(3) 0.27950(3)
C40_2 C 0.46254(19) 0.01974(12) 0.26888(12)
C41_2 C 0.3470(2) 0.03568(14) 0.21144(14)
H39_2 H 0.2805 0.0031 0.1971
C42_2 C 0.3388(2) 0.10674(14) 0.17587(14)
H40_2 H 0.2660 0.1265 0.1357
C43_2 C 0.44899(19) 0.14359(13) 0.20665(12)
C44_2 C 0.48030(19) 0.21917(12) 0.18696(12)
O3_2 O 0.01962(13) 0.10328(9) 0.84798(8)
O4_2 O 0.25066(14) 0.16825(10) 0.96003(11)
H3_2 H 0.2951 0.2030 0.9906
H4_2 H 0.2601 0.1373 0.9316
H15_2 H 0.1609 0.9692 0.0395
O20_2 O 0.15576(13) 0.91251(8) 0.26396(8)
O25_2 O 0.75212(13) 0.86802(9) 0.51550(8)
H33_2 H 0.7944 0.8943 0.5044
H34_2 H 0.8027 0.8383 0.5511
O27_2 O 0.24270(14) 0.85194(9) 0.16015(8)
O28_2 O 0.09435(13) 0.79025(9) 0.05813(8)
O31_2 O 0.42819(12) 0.90566(8) 0.31844(8)
O32_2 O 0.61653(13) 0.94981(9) 0.37226(9)
C27_2 C 0.04887(18) 0.93100(12) 0.21378(11)
C33_2 C 0.20238(19) 0.81451(12) 0.10014(11)
C34_2 C 0.28763(19) 0.79862(13) 0.07433(11)
C35_2 C 0.4109(2) 0.81150(16) 0.11308(13)
H37_2 H 0.4546 0.8316 0.1618
C36_2 C 0.4651(2) 0.79119(16) 0.07164(13)
H38_2 H 0.5486 0.7954 0.0903
C37_2 C 0.38162(19) 0.76476(13) 0.00125(12)
C39_2 C 0.50506(18) 0.95478(12) 0.32184(11)
O47 O 0.49224(14) 0.92151(9) 0.47858(9)
C2_2 C 0.00626(18) 0.99896(12) 0.77324(11)
C3_2 C 0.1231(2) 0.97347(14) 0.81750(13)
H7_2 H 0.1820 0.9991 0.8611
C4_2 C 0.1467(2) 0.90440(14) 0.79095(13)
H8_2 H 0.2224 0.8796 0.8150
C5_2 C 0.04626(18) 0.87797(12) 0.72623(11)
C6_2 C 0.04217(19) 0.80525(12) 0.68642(12)
C20_2 C 0.0997(2) 0.99121(13) 0.99115(14)
H16_2 H 0.1352 0.9951 0.9601
H21_2 H 0.0139 0.8874 0.9467
S5_2 S 0.23630(5) 0.76193(4) 0.98589(3)
C38_2 C 0.4064(2) 0.73817(12) 0.94323(12)
S2_2 S 0.76370(5) 0.23807(4) 0.01411(3)
C12_2 C 0.5936(2) 0.26183(12) 0.05677(12)
H13_2 H 0.9861 0.1126 0.0533
C24_2 C 0.9003(2) 0.00879(13) 0.00885(14)
H24_2 H 0.8648 0.0049 0.0399
C28_2 C 0.99374(18) 0.00104(12) 0.22676(11)
C29_2 C 0.8769(2) 0.02653(14) 0.18250(13)
H35_2 H 0.8180 0.0009 0.1389
C30_2 C 0.8533(2) 0.09560(14) 0.20905(13)
H36_2 H 0.7776 0.1204 0.1850
C31_2 C 0.95374(18) 0.12203(12) 0.27377(11)
C32_2 C 0.95783(19) 0.19475(12) 0.31358(12)
O1_2 O 0.84424(13) 0.08749(8) 0.73604(8)
O6_2 O 0.24788(13) 0.13198(9) 0.48450(8)
H5_2 H 0.2056 0.1057 0.4956
H6_2 H 0.1973 0.1617 0.4489
O8_2 O 0.75730(14) 0.14806(9) 0.83985(8)
O9_2 O 0.90565(13) 0.20975(9) 0.94187(8)
O12_2 O 0.57181(12) 0.09434(8) 0.68156(8)
O13_2 O 0.38347(13) 0.05019(9) 0.62774(9)
O17_2 O 0.50776(14) 0.07849(9) 0.52142(9)
C1_2 C 0.95113(18) 0.06900(12) 0.78622(11)
C7_2 C 0.79762(19) 0.18549(12) 0.89986(11)
C8_2 C 0.71237(19) 0.20138(13) 0.92567(11)
C9_2 C 0.5891(2) 0.18850(16) 0.88692(13)
H9_2 H 0.5454 0.1684 0.8382
C10_2 C 0.5349(2) 0.20881(16) 0.92836(13)
H10_2 H 0.4514 0.2046 0.9097
C11_2 C 0.61838(19) 0.23524(13) 0.99875(12)
C13_2 C 0.49494(18) 0.04522(12) 0.67816(11)
C21_2 C 0.4301(2) 0.05425(14) 0.44438(12)
H17_2 H 0.4747 0.0575 0.4186
H18_2 H 0.3597 0.0886 0.4188
C22_2 C 0.6119(2) 0.02695(15) 0.55881(13)
H19_2 H 0.6649 0.0427 0.6111
H20_2 H 0.6586 0.0300 0.5344
H23_2 H 0.8391 0.0308 0.9605
O22_2 O 0.98038(13) 0.89672(9) 0.15202(8)
O23_2 O 0.74934(14) 0.83175(10) 0.03997(11)
H31_2 H 0.7049 0.7970 0.0094
H32_2 H 0.7399 0.8627 0.0684
S1_2 S 0.92249(5) 0.93878(3) 0.69684(3)
S3_2 S 0.43608(5) 0.90896(3) 0.72050(3)
C14_2 C 0.53746(19) 0.98026(12) 0.73112(12)
C15_2 C 0.6530(2) 0.96432(14) 0.78856(14)
H11_2 H 0.7195 0.9969 0.8029
C16_2 C 0.6612(2) 0.89326(14) 0.82413(14)
H12_2 H 0.7340 0.8735 0.8643
C17_2 C 0.55101(19) 0.85641(13) 0.79335(12)
C18_2 C 0.51970(19) 0.78083(12) 0.81304(12)
O18_2 O 0.93378(14) 0.93276(9) 0.99744(9)
C23_2 C 0.9894(2) 0.93870(14) 0.95324(12)
H22_2 H 0.9302 0.9592 0.9036
C25_2 C 0.5699(2) 0.94575(14) 0.55562(12)
H25_2 H 0.5253 0.9425 0.5814
H26_2 H 0.6403 0.9114 0.5812
C26_2 C 0.3881(2) 0.97305(15) 0.44119(13)
H27_2 H 0.3351 0.9573 0.3889
H28_2 H 0.3414 0.9700 0.4656
O21_2 O 0.85279(13) 0.76308(9) 0.95612(8)
H29_2 H 0.7782 0.7580 0.9253
H30_2 H 0.8887 0.7433 0.9358
loop_
_geom_bond_atom_site_label_1
_geom_bond_atom_site_label_2
_geom_bond_site_symmetry_1
_geom_bond_site_symmetry_2
O6 H5 1_555 1_555
H6 O6 1_555 1_555
H17 C21 1_555 1_555
H18 C21 1_555 1_555
C26 C21 1_555 1_555
H27 C26 1_555 1_555
H28 C26 1_555 1_555
Mn15 O19 1_555 1_555
O19 C26 1_555 1_555
Mn1 O1 1_555 1_555
S2 C8 1_555 1_555
S3 C14 1_555 1_555
O1 C1 1_555 1_555
O8 Mn1 1_555 1_555
O10 C12 1_555 1_555
O11 C12 1_555 1_555
O12 Mn1 1_555 1_555
O13 Mn3 1_555 1_555
O14 C18 1_555 1_555
O15 C18 1_555 1_555
O17 Mn3 1_555 1_555
C7 O8 1_555 1_555
C8 C7 1_555 1_555
C9 C8 1_555 1_555
H9 C9 1_555 1_555
C10 C9 1_555 1_555
H10 C10 1_555 1_555
C11 S2 1_555 1_555
C12 C11 1_555 1_555
C13 O12 1_555 1_555
C14 C13 1_555 1_555
C15 C14 1_555 1_555
H11 C15 1_555 1_555
C16 C15 1_555 1_555
H12 C16 1_555 1_555
C17 S3 1_555 1_555
C18 C17 1_555 1_555
C22 O17 1_555 1_555
H19 C22 1_555 1_555
H20 C22 1_555 1_555
O18 C23 1_555 1_555
H22 C23 1_555 1_555
H23 C24 1_555 1_555
H24 C24 1_555 1_555
C25 C22 1_555 1_555
H25 C25 1_555 1_555
H26 C25 1_555 1_555
Mn5 O18 1_555 1_555
O21 Mn5 1_555 1_555
H29 O21 1_555 1_555
H30 O21 1_555 1_555
O22 Mn5 1_555 1_555
O23 Mn5 1_555 1_555
H31 O23 1_555 1_555
H32 O23 1_555 1_555
O26 C32 1_555 1_555
C29 C28 1_555 1_555
H35 C29 1_555 1_555
C30 C29 1_555 1_555
H36 C30 1_555 1_555
C32 C31 1_555 1_555
Mn8 O15 1_555 1_555
Mn10 O11 1_555 1_555
Mn11 O5 1_555 1_555
Mn14 O14 1_555 1_555
Mn17 O10 1_555 1_555
O36 Mn5 1_555 1_555
O37 Mn1 1_555 1_555
O40 Mn3 1_555 1_555
O42 Mn1 1_555 1_555
O43 Mn3 1_555 1_555
O45 Mn1 1_555 1_555
Mn3 O12 1_555 1_555
O9 C7 1_555 1_555
O13 C13 1_555 1_555
C10 C11 1_555 1_555
C16 C17 1_555 1_555
O18 C24 1_555 1_555
O26 Mn10 1_555 1_555
C30 C31 1_555 1_555
Mn2 O2 1_555 1_555
O2 H1 1_555 1_555
H2 O2 1_555 1_555
O3 Mn2 1_555 1_555
O4 Mn2 1_555 1_555
H3 O4 1_555 1_555
H4 O4 1_555 1_555
O7 C6 1_555 1_555
O16 Mn2 1_555 1_555
C3 C2 1_555 1_555
H7 C3 1_555 1_555
C4 C3 1_555 1_555
H8 C4 1_555 1_555
C6 C5 1_555 1_555
C19 O16 1_555 1_555
H14 C19 1_555 1_555
C20 O16 1_555 1_555
H15 C20 1_555 1_555
H16 C20 1_555 1_555
Mn4 O20 1_555 1_555
S5 C34 1_555 1_555
S6 C40 1_555 1_555
O20 C27 1_555 1_555
O27 Mn4 1_555 1_555
O29 C38 1_555 1_555
O30 C38 1_555 1_555
O31 Mn4 1_555 1_555
O32 Mn15 1_555 1_555
O33 C44 1_555 1_555
O34 C44 1_555 1_555
C33 O27 1_555 1_555
C34 C33 1_555 1_555
C35 C34 1_555 1_555
H37 C35 1_555 1_555
C36 C35 1_555 1_555
H38 C36 1_555 1_555
C37 S5 1_555 1_555
C38 C37 1_555 1_555
C39 O31 1_555 1_555
C40 C39 1_555 1_555
C41 C40 1_555 1_555
H39 C41 1_555 1_555
C42 C41 1_555 1_555
H40 C42 1_555 1_555
C43 S6 1_555 1_555
C44 C43 1_555 1_555
Mn8 O7 1_555 1_555
Mn10 O34 1_555 1_555
Mn12 O24 1_555 1_555
Mn14 O29 1_555 1_555
Mn17 O33 1_555 1_555
O35 Mn2 1_555 1_555
O38 Mn4 1_555 1_555
O39 Mn15 1_555 1_555
O41 Mn4 1_555 1_555
O44 Mn15 1_555 1_555
O46 Mn4 1_555 1_555
C4 C5 1_555 1_555
Mn15 O31 1_555 1_555
O28 C33 1_555 1_555
O30 Mn8 1_555 1_555
O32 C39 1_555 1_555
C36 C37 1_555 1_555
C42 C43 1_555 1_555
O25 H33 1_555 1_555
H34 O25 1_555 1_555
O2_2 H1_2 1_555 1_555
H2_2 O2_2 1_555 1_555
C19_2 O16_2 1_555 1_555
H14_2 C19_2 1_555 1_555
S6_2 C40_2 1_555 1_555
O44 C44_2 1_555 1_555
O46 C44_2 1_555 1_555
C41_2 C40_2 1_555 1_555
H39_2 C41_2 1_555 1_555
C42_2 C41_2 1_555 1_555
H40_2 C42_2 1_555 1_555
C43_2 S6_2 1_555 1_555
C44_2 C43_2 1_555 1_555
C42_2 C43_2 1_555 1_555
O3_2 Mn11 1_555 1_555
O4_2 Mn11 1_555 1_555
H3_2 O4_2 1_555 1_555
H4_2 O4_2 1_555 1_555
Mn10 O20_2 1_555 1_555
Mn17 O25_2 1_555 1_555
O20_2 C27_2 1_555 1_555
O25_2 H33_2 1_555 1_555
H34_2 O25_2 1_555 1_555
O27_2 Mn10 1_555 1_555
O31_2 Mn10 1_555 1_555
O32_2 Mn17 1_555 1_555
C33_2 O27_2 1_555 1_555
C34_2 C33_2 1_555 1_555
C35_2 C34_2 1_555 1_555
H37_2 C35_2 1_555 1_555
C36_2 C35_2 1_555 1_555
H38_2 C36_2 1_555 1_555
C39_2 O31_2 1_555 1_555
O47 Mn17 1_555 1_555
Mn17 O31_2 1_555 1_555
O28_2 C33_2 1_555 1_555
O32_2 C39_2 1_555 1_555
C36_2 C37_2 1_555 1_555
O37 C6_2 1_555 1_555
C3_2 C2_2 1_555 1_555
H7_2 C3_2 1_555 1_555
C4_2 C3_2 1_555 1_555
H8_2 C4_2 1_555 1_555
C6_2 C5_2 1_555 1_555
H16_2 C20_2 1_555 1_555
O40 C38_2 1_555 1_555
O42 C38_2 1_555 1_555
C4_2 C5_2 1_555 1_555
O39 C12_2 1_555 1_555
O41 C12_2 1_555 1_555
H24_2 C24_2 1_555 1_555
O38 C32_2 1_555 1_555
C29_2 C28_2 1_555 1_555
H35_2 C29_2 1_555 1_555
C30_2 C29_2 1_555 1_555
H36_2 C30_2 1_555 1_555
C32_2 C31_2 1_555 1_555
C30_2 C31_2 1_555 1_555
Mn8 O1_2 1_555 1_555
Mn14 O6_2 1_555 1_555
O1_2 C1_2 1_555 1_555
O6_2 H5_2 1_555 1_555
H6_2 O6_2 1_555 1_555
O8_2 Mn8 1_555 1_555
O12_2 Mn8 1_555 1_555
O13_2 Mn14 1_555 1_555
O17_2 Mn14 1_555 1_555
C7_2 O8_2 1_555 1_555
C8_2 C7_2 1_555 1_555
C9_2 C8_2 1_555 1_555
H9_2 C9_2 1_555 1_555
C10_2 C9_2 1_555 1_555
H10_2 C10_2 1_555 1_555
C13_2 O12_2 1_555 1_555
C21_2 O17_2 1_555 1_555
H17_2 C21_2 1_555 1_555
H18_2 C21_2 1_555 1_555
C22_2 O17_2 1_555 1_555
H19_2 C22_2 1_555 1_555
H20_2 C22_2 1_555 1_555
Mn14 O12_2 1_555 1_555
O9_2 C7_2 1_555 1_555
O13_2 C13_2 1_555 1_555
C10_2 C11_2 1_555 1_555
O22_2 Mn12 1_555 1_555
O23_2 Mn12 1_555 1_555
H31_2 O23_2 1_555 1_555
H32_2 O23_2 1_555 1_555
S3_2 C14_2 1_555 1_555
O43 C18_2 1_555 1_555
O45 C18_2 1_555 1_555
C15_2 C14_2 1_555 1_555
H11_2 C15_2 1_555 1_555
C16_2 C15_2 1_555 1_555
H12_2 C16_2 1_555 1_555
C17_2 S3_2 1_555 1_555
C18_2 C17_2 1_555 1_555
O18_2 C23_2 1_555 1_555
H22_2 C23_2 1_555 1_555
O47 C25_2 1_555 1_555
H25_2 C25_2 1_555 1_555
H26_2 C25_2 1_555 1_555
H27_2 C26_2 1_555 1_555
H28_2 C26_2 1_555 1_555
H29_2 O21_2 1_555 1_555
H30_2 O21_2 1_555 1_555
C16_2 C17_2 1_555 1_555
O47 C26_2 1_555 1_555

#END
