
###############################################################################
#
# This file contains modified crystal structure data generated from the
# MOF subset of the Cambridge Structural Database (CSD) v543 
# hosted by the Cambridge Crystallographic Data Centre (CCDC).
#
# This work is licensed under the Creative Commons
# Attribution-NonCommercial-ShareAlike 4.0 International License.
# To view a copy of this license, visit
# http://creativecommons.org/licenses/by-nc-sa/4.0/
# or send a letter to
# Creative Commons, PO Box 1866, Mountain View, CA 94042, USA.
#
# CIF created using the CSD Python API on 29 September 2022
# The structure has been converted into the P1 space group
# The structure has a 3D framework
# The original CSD entry LIYSUK is in the triclinic crystal system
# The framework has been calculated to contain at least 10.0% void space
# The void calculation uses a probe of radius 1.32A, grid spacing 0.4
# H atom positions have been added when not included in the experimental data
#
###############################################################################

data_LIYSUK
_chemical_formula_moiety         '(C72 H44 O30 Zn8)n'
_symmetry_cell_setting           triclinic
_symmetry_space_group_name_H-M   'P 1'
_symmetry_Int_Tables_number      1
_space_group_name_Hall           'P 1'
loop_
_symmetry_equiv_pos_site_id
_symmetry_equiv_pos_as_xyz
1 x,y,z
_cell_length_a                   8.0196(3)
_cell_length_b                   9.7508(3)
_cell_length_c                   27.0019(8)
_cell_angle_alpha                93.158(3)
_cell_angle_beta                 93.282(3)
_cell_angle_gamma                100.647(3)
_cell_volume                     2067.08
loop_
_atom_site_label
_atom_site_type_symbol
_atom_site_fract_x
_atom_site_fract_y
_atom_site_fract_z
Zn12 Zn 0.16794(8) 0.01939(6) 0.44505(2)
Zn1 Zn 0.17654(7) 0.02736(6) 0.04733(2)
O1 O 0.3823(4) 0.0802(3) 0.48305(11)
O3 O 0.2063(5) 0.0830(4) 0.37739(13)
O4 O 0.4805(4) 0.0231(4) 0.12406(12)
O5 O 0.3603(5) 0.7642(4) 0.44643(14)
O7 O 0.2350(4) 0.1040(4) 0.11902(12)
O12 O 0.3870(4) 0.0839(3) 0.01629(11)
O16 O 0.0996(4) 0.8143(3) 0.43513(13)
C4 C 0.3401(7) 0.0641(5) 0.30176(18)
C5 C 0.2736(10) 0.4314(7) 0.2329(2)
H5 H 0.2660 0.5145 0.2184
C6 C 0.3042(8) 0.3217(6) 0.2045(2)
H6 H 0.3115 0.3280 0.1705
C14 C 0.2710(7) 0.3063(6) 0.3072(2)
H12 H 0.2581 0.3035 0.3411
C15 C 0.2530(10) 0.4220(7) 0.2836(2)
H13 H 0.2262 0.4978 0.3019
C17 C 0.3265(6) 0.0425(5) 0.35593(18)
C18 C 0.3099(6) 0.1878(6) 0.27951(19)
C19 C 0.2021(6) 0.7306(5) 0.43762(17)
C20 C 0.3609(6) 0.0704(5) 0.14264(17)
C22 C 0.3253(7) 0.1964(6) 0.22672(19)
C25 C 0.1262(6) 0.5764(5) 0.43211(17)
C29 C 0.1006(6) 0.3515(5) 0.46747(18)
H16 H 0.1385 0.2964 0.4911
C31 C 0.1820(6) 0.4949(5) 0.46645(18)
H18 H 0.2728 0.5323 0.4892
C32 C 0.3626(7) 0.0780(5) 0.19867(18)
Zn10 Zn 0.53914(7) 0.95222(6) 0.44497(2)
Zn11 Zn 0.46086(7) 0.04778(6) 0.55503(2)
O24 O 0.7332(4) 0.1580(3) 0.06383(13)
Zn8 Zn 0.44276(7) 0.02936(6) 0.94504(2)
Zn2 Zn 0.55724(7) 0.97064(6) 0.05496(2)
O2 O 0.4332(5) 0.9796(4) 0.37612(12)
O10 O 0.3770(5) 0.7832(4) 0.05098(15)
O14 O 0.7261(5) 0.8603(4) 0.09135(15)
H2 H 0.6816 0.7708 0.0913
O15 O 0.1205(5) 0.8309(4) 0.06393(13)
C9 C 0.0239(10) 0.6478(6) 0.1461(2)
H8 H 0.0765 0.7413 0.1470
C11 C 0.1127(6) 0.3607(5) 0.03232(18)
H9 H 0.1381 0.2964 0.0086
C12 C 0.3906(7) 0.9587(6) 0.2735(2)
H10 H 0.4200 0.8827 0.2890
C16 C 0.2254(7) 0.7491(5) 0.06088(18)
C21 C 0.3981(7) 0.9643(6) 0.2217(2)
H14 H 0.4274 0.8903 0.2031
C26 C 0.1583(6) 0.5970(5) 0.06767(18)
C27 C 0.1951(6) 0.5003(5) 0.03342(18)
H15 H 0.2756 0.5277 0.0107
C35 C 0.0491(7) 0.5546(5) 0.10599(18)
H21 H 0.751429 0.899559 0.126262
O22 O 0.0489(4) 0.9246(3) 0.96310(12)
O23 O 0.6130(4) 0.9161(3) 0.98371(11)
O8 O 0.7088(4) 0.1376(3) 0.43922(13)
O9 O 0.9440(4) 0.0579(3) 0.45702(13)
C1 C 0.9447(7) 0.5975(6) 0.3552(2)
H3 H 0.9953 0.6911 0.3544
C23 C 0.8656(6) 0.1539(5) 0.44311(17)
C24 C 0.9681(6) 0.2949(5) 0.43418(17)
C28 C 0.9149(6) 0.3758(5) 0.39498(17)
C30 C 0.7449(9) 0.3963(7) 0.3196(2)
H17 H 0.6618 0.3567 0.2949
C33 C 0.7904(7) 0.3170(6) 0.35620(19)
H19 H 0.7395 0.2231 0.3558
C34 C 0.8230(9) 0.5380(7) 0.3190(2)
H20 H 0.7914 0.5913 0.2938
C36 C 0.9950(6) 0.5188(5) 0.39403(17)
O21 O 0.9511(4) 0.0754(3) 0.03690(12)
O6 O 0.6986(5) 0.8298(4) 0.41158(15)
H1 H 0.6636 0.7509 0.3917
C2 C 0.9240(12) 0.6020(6) 0.1831(2)
H4 H 0.9122 0.6641 0.2095
C3 C 0.8863(6) 0.1745(5) 0.05625(17)
C7 C 0.8607(8) 0.3696(5) 0.1443(2)
H7 H 0.8055 0.2770 0.1443
C8 C 0.9948(5) 0.3171(5) 0.06583(17)
C10 C 0.9655(6) 0.4119(5) 0.10557(18)
C13 C 0.8392(11) 0.4639(7) 0.1821(2)
H11 H 0.7677 0.4352 0.2070
O18 O 0.6177(4) 0.9198(3) 0.51695(11)
H22 H 0.76819 0.802095 0.439582
Zn6 Zn 0.82346(7) 0.97264(6) 0.95267(2)
O6_2 O 0.3014(5) 0.1702(4) 0.58842(15)
H1_2 H 0.3364 0.2491 0.6083
O13 O 0.2668(4) 0.8420(3) 0.93617(13)
C2_2 C 0.0760(12) 0.3980(6) 0.8169(2)
H4_2 H 0.0878 0.3359 0.7905
C3_2 C 0.1137(6) 0.8255(5) 0.94375(17)
C7_2 C 0.1393(8) 0.6304(5) 0.8557(2)
H7_2 H 0.1945 0.7230 0.8557
C8_2 C 0.0052(5) 0.6829(5) 0.93417(17)
C10_2 C 0.0345(6) 0.5881(5) 0.89443(18)
C13_2 C 0.1608(11) 0.5361(7) 0.8179(2)
H11_2 H 0.2323 0.5648 0.7930
O19 O 0.5668(5) 0.0204(4) 0.62388(12)
O20 O 0.6397(5) 0.2358(4) 0.55357(14)
H22_2 H 0.23181 0.197905 0.560418
O8_2 O 0.2912(4) 0.8624(3) 0.56078(13)
O9_2 O 0.0560(4) 0.9421(3) 0.54298(13)
C1_2 C 0.0553(7) 0.4025(6) 0.6448(2)
H3_2 H 0.0047 0.3089 0.6456
C23_2 C 0.1344(6) 0.8461(5) 0.55689(17)
C24_2 C 0.0319(6) 0.7051(5) 0.56582(17)
C28_2 C 0.0851(6) 0.6242(5) 0.60502(17)
C30_2 C 0.2551(9) 0.6037(7) 0.6804(2)
H17_2 H 0.3382 0.6433 0.7051
C33_2 C 0.2096(7) 0.6830(6) 0.64380(19)
H19_2 H 0.2605 0.7769 0.6442
C34_2 C 0.1770(9) 0.4620(7) 0.6810(2)
H20_2 H 0.2086 0.4087 0.7062
C36_2 C 0.0050(6) 0.4812(5) 0.60597(17)
O10_2 O 0.6230(5) 0.2168(4) 0.94902(15)
O14_2 O 0.2739(5) 0.1397(4) 0.90865(15)
H2_2 H 0.3184 0.2292 0.9087
O15_2 O 0.8795(5) 0.1691(4) 0.93607(13)
C9_2 C 0.9761(10) 0.3522(6) 0.8539(2)
H8_2 H 0.9235 0.2587 0.8530
C11_2 C 0.8873(6) 0.6393(5) 0.96768(18)
H9_2 H 0.8619 0.7036 0.9914
C12_2 C 0.6094(7) 0.0413(6) 0.7265(2)
H10_2 H 0.5800 0.1173 0.7110
C16_2 C 0.7746(7) 0.2509(5) 0.93912(18)
C21_2 C 0.6019(7) 0.0357(6) 0.7783(2)
H14_2 H 0.5726 0.1097 0.7969
C26_2 C 0.8417(6) 0.4030(5) 0.93233(18)
C27_2 C 0.8049(6) 0.4997(5) 0.96658(18)
H15_2 H 0.7244 0.4723 0.9893
C35_2 C 0.9509(7) 0.4454(5) 0.89401(18)
O25 O 0.9004(4) 0.1857(3) 0.56487(13)
H21_2 H 0.248571 0.100441 0.873738
Zn4 Zn 0.83206(8) 0.98061(6) 0.55495(2)
O3_2 O 0.7937(5) 0.9170(4) 0.62261(13)
O4_2 O 0.5195(4) 0.9769(4) 0.87594(12)
O7_2 O 0.7650(4) 0.8960(4) 0.88098(12)
C4_2 C 0.6599(7) 0.9359(5) 0.69824(18)
C5_2 C 0.7264(10) 0.5686(7) 0.7671(2)
H5_2 H 0.7340 0.4855 0.7816
C6_2 C 0.6958(8) 0.6783(6) 0.7955(2)
H6_2 H 0.6885 0.6720 0.8295
C14_2 C 0.7290(7) 0.6937(6) 0.6928(2)
H12_2 H 0.7419 0.6965 0.6589
C15_2 C 0.7470(10) 0.5780(7) 0.7164(2)
H13_2 H 0.7738 0.5022 0.6981
C17_2 C 0.6735(6) 0.9575(5) 0.64407(18)
C18_2 C 0.6901(6) 0.8122(6) 0.72049(19)
C19_2 C 0.7979(6) 0.2694(5) 0.56238(17)
C20_2 C 0.6391(6) 0.9296(5) 0.85736(17)
C22_2 C 0.6747(7) 0.8036(6) 0.77328(19)
C25_2 C 0.8738(6) 0.4236(5) 0.56789(17)
C29_2 C 0.8994(6) 0.6485(5) 0.53253(18)
H16_2 H 0.8615 0.7036 0.5089
C31_2 C 0.8180(6) 0.5051(5) 0.53355(18)
H18_2 H 0.7272 0.4677 0.5108
C32_2 C 0.6374(7) 0.9220(5) 0.80133(18)
loop_
_geom_bond_atom_site_label_1
_geom_bond_atom_site_label_2
_geom_bond_site_symmetry_1
_geom_bond_site_symmetry_2
Zn1 O7 1_555 1_555
Zn12 O1 1_555 1_555
O3 Zn12 1_555 1_555
O4 C20 1_555 1_555
O5 C19 1_555 1_555
O7 C20 1_555 1_555
O12 Zn1 1_555 1_555
O16 C19 1_555 1_555
C5 H5 1_555 1_555
C6 C5 1_555 1_555
H6 C6 1_555 1_555
C14 H12 1_555 1_555
C15 C5 1_555 1_555
H13 C15 1_555 1_555
C17 O3 1_555 1_555
C18 C4 1_555 1_555
C19 C25 1_555 1_555
C20 C32 1_555 1_555
C22 C6 1_555 1_555
C25 C31 1_555 1_555
H16 C29 1_555 1_555
C31 C29 1_555 1_555
H18 C31 1_555 1_555
Zn10 O5 1_555 1_555
Zn11 O1 1_555 1_555
C4 C17 1_555 1_555
C14 C15 1_555 1_555
C14 C18 1_555 1_555
C18 C22 1_555 1_555
C22 C32 1_555 1_555
O10 Zn2 1_555 1_555
O14 Zn2 1_555 1_555
H2 O14 1_555 1_555
H8 C9 1_555 1_555
H9 C11 1_555 1_555
C12 H10 1_555 1_555
C16 O10 1_555 1_555
C21 C12 1_555 1_555
H14 C21 1_555 1_555
C26 C16 1_555 1_555
C27 C11 1_555 1_555
H15 C27 1_555 1_555
C35 C9 1_555 1_555
Zn10 O2 1_555 1_555
O15 C16 1_555 1_555
C26 C27 1_555 1_555
C26 C35 1_555 1_555
O14 H21 1_555 1_555
C1 H3 1_555 1_555
C23 O8 1_555 1_555
C24 C23 1_555 1_555
C28 C24 1_555 1_555
C30 H17 1_555 1_555
C33 C28 1_555 1_555
H19 C33 1_555 1_555
C34 C1 1_555 1_555
H20 C34 1_555 1_555
C36 C1 1_555 1_555
O9 C23 1_555 1_555
C28 C36 1_555 1_555
C30 C33 1_555 1_555
C30 C34 1_555 1_555
Zn10 O6 1_555 1_555
O6 H1 1_555 1_555
O21 C3 1_555 1_555
O24 C3 1_555 1_555
C2 H4 1_555 1_555
C3 C8 1_555 1_555
C7 H7 1_555 1_555
C8 C10 1_555 1_555
C10 C7 1_555 1_555
C13 C2 1_555 1_555
H11 C13 1_555 1_555
O18 Zn10 1_555 1_555
C7 C13 1_555 1_555
O6 H22 1_555 1_555
Zn11 O6_2 1_555 1_555
O6_2 H1_2 1_555 1_555
O22 C3_2 1_555 1_555
O13 C3_2 1_555 1_555
C2_2 H4_2 1_555 1_555
C3_2 C8_2 1_555 1_555
C7_2 H7_2 1_555 1_555
C8_2 C10_2 1_555 1_555
C10_2 C7_2 1_555 1_555
C13_2 C2_2 1_555 1_555
H11_2 C13_2 1_555 1_555
O19 Zn11 1_555 1_555
O20 Zn11 1_555 1_555
C7_2 C13_2 1_555 1_555
O6_2 H22_2 1_555 1_555
C1_2 H3_2 1_555 1_555
C23_2 O8_2 1_555 1_555
C24_2 C23_2 1_555 1_555
C28_2 C24_2 1_555 1_555
C30_2 H17_2 1_555 1_555
C33_2 C28_2 1_555 1_555
H19_2 C33_2 1_555 1_555
C34_2 C1_2 1_555 1_555
H20_2 C34_2 1_555 1_555
C36_2 C1_2 1_555 1_555
O9_2 C23_2 1_555 1_555
C28_2 C36_2 1_555 1_555
C30_2 C33_2 1_555 1_555
C30_2 C34_2 1_555 1_555
O10_2 Zn8 1_555 1_555
O14_2 Zn8 1_555 1_555
H2_2 O14_2 1_555 1_555
H8_2 C9_2 1_555 1_555
H9_2 C11_2 1_555 1_555
C12_2 H10_2 1_555 1_555
C16_2 O10_2 1_555 1_555
C21_2 C12_2 1_555 1_555
H14_2 C21_2 1_555 1_555
C26_2 C16_2 1_555 1_555
C27_2 C11_2 1_555 1_555
H15_2 C27_2 1_555 1_555
C35_2 C9_2 1_555 1_555
O15_2 C16_2 1_555 1_555
C26_2 C27_2 1_555 1_555
C26_2 C35_2 1_555 1_555
O14_2 H21_2 1_555 1_555
Zn6 O7_2 1_555 1_555
Zn4 O18 1_555 1_555
O3_2 Zn4 1_555 1_555
O4_2 C20_2 1_555 1_555
O20 C19_2 1_555 1_555
O7_2 C20_2 1_555 1_555
O23 Zn6 1_555 1_555
O25 C19_2 1_555 1_555
C5_2 H5_2 1_555 1_555
C6_2 C5_2 1_555 1_555
H6_2 C6_2 1_555 1_555
C14_2 H12_2 1_555 1_555
C15_2 C5_2 1_555 1_555
H13_2 C15_2 1_555 1_555
C17_2 O3_2 1_555 1_555
C18_2 C4_2 1_555 1_555
C19_2 C25_2 1_555 1_555
C20_2 C32_2 1_555 1_555
C22_2 C6_2 1_555 1_555
C25_2 C31_2 1_555 1_555
H16_2 C29_2 1_555 1_555
C31_2 C29_2 1_555 1_555
H18_2 C31_2 1_555 1_555
C4_2 C17_2 1_555 1_555
C14_2 C15_2 1_555 1_555
C14_2 C18_2 1_555 1_555
C18_2 C22_2 1_555 1_555
C22_2 C32_2 1_555 1_555

#END
