
###############################################################################
#
# This file contains modified crystal structure data generated from the
# MOF subset of the Cambridge Structural Database (CSD) v543 
# hosted by the Cambridge Crystallographic Data Centre (CCDC).
#
# This work is licensed under the Creative Commons
# Attribution-NonCommercial-ShareAlike 4.0 International License.
# To view a copy of this license, visit
# http://creativecommons.org/licenses/by-nc-sa/4.0/
# or send a letter to
# Creative Commons, PO Box 1866, Mountain View, CA 94042, USA.
#
# CIF created using the CSD Python API on 29 September 2022
# The structure has been converted into the P1 space group
# The structure has a 3D framework
# The original CSD entry LIZFUY is in the triclinic crystal system
# The framework has been calculated to contain at least 10.0% void space
# The void calculation uses a probe of radius 1.32A, grid spacing 0.4
# H atom positions have been added when not included in the experimental data
# Generated hydrogen atom positions removed from atoms on special positions
#
###############################################################################

data_LIZFUY
_chemical_formula_moiety         '(C42 H52 Eu2 N6 Na11 O35)n'
_symmetry_cell_setting           triclinic
_symmetry_space_group_name_H-M   'P 1'
_symmetry_Int_Tables_number      1
_space_group_name_Hall           'P 1'
loop_
_symmetry_equiv_pos_site_id
_symmetry_equiv_pos_as_xyz
1 x,y,z
_cell_length_a                   10.3577(8)
_cell_length_b                   11.0179(9)
_cell_length_c                   17.2902(14)
_cell_angle_alpha                74.4890(10)
_cell_angle_beta                 77.4690(10)
_cell_angle_gamma                72.6980(10)
_cell_volume                     1794.89
loop_
_atom_site_label
_atom_site_type_symbol
_atom_site_fract_x
_atom_site_fract_y
_atom_site_fract_z
Na9 Na 0.01009(15) 0.24840(12) 0.25482(8)
Na2 Na -0.0000 0.0000 0.5000
O10 O 0.2059(3) 0.0695(3) 0.2228(2)
C3 C 0.2460(5) 0.0272(4) 0.0608(2)
H1 H 0.2855 0.0900 0.0653
O45 O 0.0753(4) 0.1959(3) 0.4952(2)
Na1 Na 0.0000 0.5000 0.0000
Na2_2 Na -0.0000 1.0000 0.5000
Na4 Na 0.6489(3) 0.3022(3) 0.23767(18)
O7 O 0.2138(3) 0.5916(3) 0.21532(15)
O8 O 0.3979(3) 0.4323(3) 0.2486(2)
O9 O 0.1128(3) 0.8996(2) 0.27004(14)
O14 O 0.0840(5) 0.4141(4) 0.1336(2)
O15 O 0.2101(4) 0.9273(4) 0.4100(2)
O17 O 0.6451(5) 0.2058(7) 0.3703(4)
O18 O 0.6395(5) 0.4186(5) 0.1053(3)
O19 O 0.8845(4) 0.2062(3) 0.1763(2)
N2 N 0.1337(3) 0.6240(3) 0.36380(16)
N3 N 0.1129(3) 0.8738(3) 0.12363(16)
C1 C 0.1635(4) 0.9810(4) 0.2131(3)
C2 C 0.1759(4) 0.9612(3) 0.1282(2)
C6 C 0.1205(4) 0.8475(3) 0.0510(2)
C7 C 0.0466(5) 0.7465(4) 0.0533(3)
C16 C 0.0917(4) 0.6512(3) 0.4377(2)
C17 C 0.1656(5) 0.5900(4) 0.5011(2)
H7 H 0.1354 0.6122 0.5515
C18 C 0.2872(6) 0.4937(6) 0.4884(4)
H8 H 0.3388 0.4503 0.5300
C19 C 0.3279(4) 0.4653(4) 0.4124(2)
H9 H 0.4066 0.4003 0.4025
C20 C 0.2510(4) 0.5339(3) 0.3512(2)
C21 C 0.2924(4) 0.5156(4) 0.2645(3)
O20 O 0.1302(4) 0.3073(3) 0.3335(2)
O40 O 0.0791(4) 0.9114(4) 0.6315(2)
O41 O 0.8048(4) 0.4130(3) 0.2896(3)
O43 O 0.6155(4) 0.0920(3) 0.2358(2)
Na1_2 Na 0.0000 0.5000 1.0000
O12 O 0.0575(4) 0.7063(4) 0.9921(2)
C4 C 0.2562(6) 0.9978(6) 0.9864(3)
C5 C 0.1926(5) 0.9068(4) 0.9817(2)
H3 H 0.1984 0.8857 0.9322
Eu2 Eu 0.005458(14) 0.250275(12) 0.749776(8)
O21 O 0.0612(3) 0.4602(2) 0.71131(15)
O22 O 0.1952(4) 0.5870(3) 0.7104(3)
O23 O 0.1710(2) 0.0347(2) 0.77545(15)
O25 O 0.1045(3) 0.2087(2) 0.61597(14)
O31 O 0.0235(3) 0.2907(2) 0.87831(14)
O33 O 0.2102(5) 0.3926(5) 0.9280(3)
N4 N 0.2558(3) 0.2468(3) 0.73951(16)
C29 C 0.1746(5) 0.4793(4) 0.7158(3)
C30 C 0.2912(4) 0.3589(3) 0.7276(2)
C31 C 0.4231(4) 0.3619(4) 0.7278(3)
H13 H 0.4446 0.4408 0.7202
C32 C 0.5231(5) 0.2457(4) 0.7394(4)
H14 H 0.6131 0.2451 0.7391
C33 C 0.4862(4) 0.1295(4) 0.7514(3)
H15 H 0.5511 0.0499 0.7596
C34 C 0.3521(3) 0.1348(3) 0.7510(2)
C35 C 0.3014(4) 0.0143(4) 0.7638(3)
C36 C 0.0398(5) 0.2430(4) 0.5557(3)
Na16 Na 0.3511(3) 0.6978(3) 0.76233(18)
O51 O 0.1155(4) 0.7938(3) 0.8237(2)
O24 O 0.3845(4) 0.9080(3) 0.7642(2)
Na2_3 Na 1.0000 0.0000 0.5000
O16 O 0.9209(4) 0.0886(4) 0.3685(2)
O39 O 0.7899(4) 0.0727(4) 0.5900(2)
Eu1 Eu 0.994542(14) 0.749725(12) 0.250224(8)
Na1_3 Na 1.0000 0.5000 0.0000
Na2_4 Na 1.0000 1.0000 0.5000
O1 O 0.9388(3) 0.5398(2) 0.28869(15)
O3 O 0.8290(2) 0.9653(2) 0.22455(15)
O5 O 0.8955(3) 0.7913(2) 0.38403(14)
O6 O 0.9247(4) 0.8041(3) 0.5048(2)
O11 O 0.9765(3) 0.7093(2) 0.12169(14)
O13 O 0.7898(5) 0.6074(5) 0.0720(3)
N1 N 0.7442(3) 0.7532(3) 0.26049(16)
C8 C 0.8254(5) 0.5207(4) 0.2842(3)
C9 C 0.7088(4) 0.6411(3) 0.2724(2)
C10 C 0.5769(4) 0.6381(4) 0.2722(3)
H4 H 0.5554 0.5592 0.2798
C11 C 0.4769(5) 0.7543(4) 0.2606(4)
H5 H 0.3869 0.7549 0.2609
C12 C 0.5138(4) 0.8705(4) 0.2486(3)
H6 H 0.4489 0.9501 0.2404
C13 C 0.6479(3) 0.8652(3) 0.2490(2)
C14 C 0.6986(4) 0.9857(4) 0.2362(3)
C15 C 0.9602(5) 0.7570(4) 0.4443(3)
O32 O 0.9425(4) 0.2937(4) 0.0079(2)
C25 C 0.7438(6) 0.0022(6) 0.0136(3)
C26 C 0.8074(5) 0.0932(4) 0.0183(2)
H12 H 0.8016 0.1143 0.0678
Na12 Na 0.98991(15) 0.75160(12) 0.74518(8)
Na1_4 Na 1.0000 0.5000 1.0000
O27 O 0.7862(3) 0.4084(3) 0.78468(15)
O28 O 0.6021(3) 0.5677(3) 0.7514(2)
O29 O 0.8872(3) 0.1004(2) 0.72996(14)
O34 O 0.9160(5) 0.5859(4) 0.8664(2)
O35 O 0.3549(5) 0.7942(7) 0.6297(4)
O36 O 0.3605(5) 0.5814(5) 0.8947(3)
N5 N 0.8663(3) 0.3760(3) 0.63620(16)
N6 N 0.8871(3) 0.1262(3) 0.87637(16)
C22 C 0.8365(4) 0.0190(4) 0.7869(3)
C23 C 0.8241(4) 0.0388(3) 0.8718(2)
C27 C 0.8795(4) 0.1525(3) 0.9490(2)
C28 C 0.9534(5) 0.2535(4) 0.9467(3)
C37 C 0.9083(4) 0.3488(3) 0.5623(2)
C38 C 0.8344(5) 0.4100(4) 0.4989(2)
H16 H 0.8646 0.3878 0.4485
C39 C 0.7128(6) 0.5063(6) 0.5116(4)
H17 H 0.6612 0.5497 0.4700
C40 C 0.6721(4) 0.5347(4) 0.5876(2)
H18 H 0.5934 0.5997 0.5975
C41 C 0.7490(4) 0.4661(3) 0.6488(2)
C42 C 0.7076(4) 0.4844(4) 0.7355(3)
O38 O 0.8698(4) 0.6927(3) 0.6665(2)
O47 O 0.7941(3) 0.9305(3) 0.7772(2)
C24 C 0.7540(5) 0.9728(4) 0.9392(2)
H10 H 0.7145 0.9100 0.9347
H2 H 0.3051 0.0388 0.9402
H11 H 0.6949 0.9612 0.0598
loop_
_geom_bond_atom_site_label_1
_geom_bond_atom_site_label_2
_geom_bond_site_symmetry_1
_geom_bond_site_symmetry_2
H1 C3 1_555 1_555
Na9 O10 1_555 1_555
O45 Na2 1_555 1_555
Na4 O8 1_555 1_555
O8 C21 1_555 1_555
O14 Na1 1_555 1_555
O15 Na2_2 1_555 1_555
O17 Na4 1_555 1_555
O18 Na4 1_555 1_555
O19 Na4 1_555 1_555
C1 O9 1_555 1_555
C2 N3 1_555 1_555
C6 N3 1_555 1_555
C16 N2 1_555 1_555
C17 C16 1_555 1_555
H7 C17 1_555 1_555
C18 C17 1_555 1_555
H8 C18 1_555 1_555
C19 C18 1_555 1_555
H9 C19 1_555 1_555
C20 N2 1_555 1_555
C21 O7 1_555 1_555
O20 Na9 1_555 1_555
O40 Na2_2 1_555 1_555
O41 Na4 1_555 1_555
O43 Na4 1_555 1_555
Na9 O14 1_555 1_555
C1 C2 1_555 1_555
C6 C7 1_555 1_555
C19 C20 1_555 1_555
C20 C21 1_555 1_555
Na1_2 O12 1_555 1_555
C5 C4 1_555 1_555
H3 C5 1_555 1_555
Eu2 O21 1_555 1_555
O21 C29 1_555 1_555
O22 C29 1_555 1_555
O23 Eu2 1_555 1_555
O25 Eu2 1_555 1_555
O45 C36 1_555 1_555
O31 Eu2 1_555 1_555
O33 Na1_2 1_555 1_555
N4 Eu2 1_555 1_555
C29 C30 1_555 1_555
C30 N4 1_555 1_555
C31 C30 1_555 1_555
H13 C31 1_555 1_555
C32 C31 1_555 1_555
H14 C32 1_555 1_555
C33 C32 1_555 1_555
H15 C33 1_555 1_555
C34 N4 1_555 1_555
C35 O23 1_555 1_555
C36 O25 1_555 1_555
Na16 O22 1_555 1_555
C33 C34 1_555 1_555
C34 C35 1_555 1_555
Na16 O51 1_555 1_555
Na16 O24 1_555 1_555
O16 Na2_3 1_555 1_555
O39 Na2_3 1_555 1_555
Eu1 O1 1_555 1_555
Na2_4 O6 1_555 1_555
O1 C8 1_555 1_555
O41 C8 1_555 1_555
O3 Eu1 1_555 1_555
O5 Eu1 1_555 1_555
O6 C15 1_555 1_555
O11 Eu1 1_555 1_555
O13 Na1_3 1_555 1_555
N1 Eu1 1_555 1_555
C8 C9 1_555 1_555
C9 N1 1_555 1_555
C10 C9 1_555 1_555
H4 C10 1_555 1_555
C11 C10 1_555 1_555
H5 C11 1_555 1_555
C12 C11 1_555 1_555
H6 C12 1_555 1_555
C13 N1 1_555 1_555
C14 O3 1_555 1_555
C15 O5 1_555 1_555
O32 Na1_3 1_555 1_555
C26 C25 1_555 1_555
H12 C26 1_555 1_555
C12 C13 1_555 1_555
C13 C14 1_555 1_555
Na16 O28 1_555 1_555
O28 C42 1_555 1_555
O34 Na1_4 1_555 1_555
O35 Na16 1_555 1_555
O36 Na16 1_555 1_555
C22 O29 1_555 1_555
C23 N6 1_555 1_555
C27 N6 1_555 1_555
C37 N5 1_555 1_555
C38 C37 1_555 1_555
H16 C38 1_555 1_555
C39 C38 1_555 1_555
H17 C39 1_555 1_555
C40 C39 1_555 1_555
H18 C40 1_555 1_555
C41 N5 1_555 1_555
C42 O27 1_555 1_555
O38 Na12 1_555 1_555
O47 Na12 1_555 1_555
Na12 O34 1_555 1_555
C22 C23 1_555 1_555
C27 C28 1_555 1_555
C40 C41 1_555 1_555
C41 C42 1_555 1_555
H10 C24 1_555 1_555

#END
