
###############################################################################
#
# This file contains modified crystal structure data generated from the
# MOF subset of the Cambridge Structural Database (CSD) v543 
# hosted by the Cambridge Crystallographic Data Centre (CCDC).
#
# This work is licensed under the Creative Commons
# Attribution-NonCommercial-ShareAlike 4.0 International License.
# To view a copy of this license, visit
# http://creativecommons.org/licenses/by-nc-sa/4.0/
# or send a letter to
# Creative Commons, PO Box 1866, Mountain View, CA 94042, USA.
#
# CIF created using the CSD Python API on 29 September 2022
# The structure has been converted into the P1 space group
# The structure has a 3D framework
# The original CSD entry LOBBUC is in the hexagonal crystal system
# The framework has been calculated to contain at least 10.0% void space
# The void calculation uses a probe of radius 1.32A, grid spacing 0.4
# H atom positions have been added when not included in the experimental data
# Generated hydrogen atom positions removed from atoms on special positions
#
###############################################################################

data_LOBBUC
_chemical_formula_moiety         '(C62 H56 O20 Sc6)n'
_symmetry_cell_setting           triclinic
_symmetry_space_group_name_H-M   'P 1'
_symmetry_Int_Tables_number      1
_space_group_name_Hall           'P 1'
loop_
_symmetry_equiv_pos_site_id
_symmetry_equiv_pos_as_xyz
1 x,y,z
_cell_length_a                   20.2836(10)
_cell_length_b                   20.2836(10)
_cell_length_c                   10.3925(8)
_cell_angle_alpha                90
_cell_angle_beta                 90
_cell_angle_gamma                120
_cell_volume                     3702.89
loop_
_atom_site_label
_atom_site_type_symbol
_atom_site_fract_x
_atom_site_fract_y
_atom_site_fract_z
Sc6 Sc 0.27620(9) 0.55240(18) 0.000000
Sc9 Sc 0.27620(20) 0.72380(9) 0.000000
O1 O 0.2147(3) 0.4294(6) 0.000000
O2 O 0.333333 0.666667 0.000000
O3 O 0.1978(3) 0.5457(3) 0.1415(5)
C5 C 0.0941(9) 0.5471(5) 0.2310(13)
C8 C 0.0603(6) 0.5838(6) 0.2624(12)
H4 H 0.084610 0.636438 0.242034
C9 C 0.1699(9) 0.5850(5) 0.1701(18)
O5 O 0.1978(3) 0.5457(3) 0.8585(5)
C22 C 0.0941(9) 0.5471(5) 0.7690(13)
C25 C 0.0603(6) 0.5838(6) 0.7376(12)
H11 H 0.084610 0.636438 0.757966
C26 C 0.1699(9) 0.5850(5) 0.8299(18)
O10 O 0.1978(3) 0.6521(4) 0.8585(5)
C54 C 0.0603(6) 0.4765(8) 0.7376(12)
H24 H 0.084610 0.448172 0.757966
O13 O 0.1978(3) 0.6521(4) 0.1415(5)
C60 C 0.0603(6) 0.4765(8) 0.2624(12)
H30 H 0.084610 0.448172 0.242034
Sc3 Sc 0.44760(18) 0.72380(20) 0.000000
O16 O 0.5706(6) 0.7853(7) 0.000000
Sc6_2 Sc 0.27620(9) 0.55240(18) 1.000000
Sc9_2 Sc 0.27620(20) 0.72380(9) 1.000000
O19 O 0.4543(3) 0.6521(4) 0.1415(5)
O23 O 0.3479(4) 0.5457(3) 0.1415(5)
O25 O 0.4543(3) 0.8022(3) 0.1415(5)
O1_2 O 0.2147(3) 0.4294(6) 1.000000
O2_2 O 0.333333 0.666667 1.000000
Sc3_2 Sc 0.44760(18) 0.72380(20) 1.000000
O16_2 O 0.5706(6) 0.7853(7) 1.000000
O21 O 0.4543(3) 0.6521(4) 0.8585(5)
O22 O 0.4543(3) 0.8022(3) 0.8585(5)
O26 O 0.3479(4) 0.5457(3) 0.8585(5)
C1 C 0.666667 0.333333 0.3643(17)
H1 H 0.666667 0.333335 0.268039
C2 C 0.7425(7) 0.3712(3) 0.4331(9)
C3 C 0.8820(8) 0.4410(4) 0.4344(11)
C4 C 0.9542(8) 0.4771(4) 0.3653(13)
C6 C 0.8180(8) 0.4090(4) 0.3605(12)
H2 H 0.820231 0.410116 0.269183
C7 C 0.9888(7) 0.5506(6) 0.3259(11)
H3 H 0.965067 0.580164 0.340755
C10 C 0.6288(3) 0.3713(8) 0.4331(9)
C11 C 0.5590(4) 0.4410(9) 0.4344(11)
C12 C 0.5229(4) 0.4771(9) 0.3653(13)
C13 C 0.4529(5) 0.5470(10) 0.2310(13)
C14 C 0.5910(4) 0.4090(9) 0.3605(12)
H5 H 0.589884 0.410115 0.269183
C15 C 0.4494(6) 0.4382(9) 0.3259(11)
H6 H 0.419836 0.384903 0.340755
C16 C 0.4162(6) 0.4765(8) 0.2624(12)
H7 H 0.363562 0.448172 0.242034
C17 C 0.4150(5) 0.5849(10) 0.1701(18)
C18 C 0.666666 0.333333 0.6357(17)
H8 H 0.666668 0.333333 0.731961
C19 C 0.7425(7) 0.3712(3) 0.5669(9)
C20 C 0.8820(8) 0.4410(4) 0.5656(11)
C21 C 0.9542(8) 0.4771(4) 0.6347(13)
C23 C 0.8180(8) 0.4090(4) 0.6395(12)
H9 H 0.820231 0.410116 0.730817
C24 C 0.9888(7) 0.5506(6) 0.6741(11)
H10 H 0.965067 0.580164 0.659245
C27 C 0.6287(8) 0.2575(7) 0.4331(9)
C28 C 0.5590(9) 0.1180(8) 0.4344(11)
C29 C 0.5229(9) 0.0458(8) 0.3653(13)
C31 C 0.5910(9) 0.1820(8) 0.3605(12)
H12 H 0.589885 0.179769 0.269183
C32 C 0.5618(9) 0.0112(7) 0.3259(11)
H13 H 0.615097 0.034933 0.340755
C35 C 0.6288(3) 0.3713(8) 0.5669(9)
C36 C 0.5590(4) 0.4410(9) 0.5656(11)
C37 C 0.5229(4) 0.4771(9) 0.6347(13)
C38 C 0.4529(5) 0.5470(10) 0.7690(13)
C39 C 0.5910(4) 0.4090(9) 0.6395(12)
H15 H 0.589884 0.410115 0.730817
C40 C 0.4494(6) 0.4382(9) 0.6741(11)
H16 H 0.419836 0.384903 0.659245
C41 C 0.4162(6) 0.4765(8) 0.7376(12)
H17 H 0.363562 0.448172 0.757966
C42 C 0.4150(5) 0.5849(10) 0.8299(18)
C43 C 0.6287(8) 0.2575(7) 0.5669(9)
C44 C 0.5590(9) 0.1180(8) 0.5656(11)
C45 C 0.5229(9) 0.0458(8) 0.6347(13)
C47 C 0.5910(9) 0.1820(8) 0.6395(12)
H18 H 0.589885 0.179769 0.730817
C48 C 0.4494(6) 0.0112(7) 0.6741(11)
H19 H 0.419836 0.034933 0.659245
C51 C 0.5618(9) 0.5506(6) 0.3259(11)
H21 H 0.615097 0.580164 0.340755
C52 C 0.5235(8) 0.5838(6) 0.2624(12)
H22 H 0.551828 0.636438 0.242034
C53 C 0.9888(7) 0.4382(9) 0.6741(11)
H23 H 0.965067 0.384903 0.659245
C55 C 0.4494(6) 0.0112(7) 0.3259(11)
H25 H 0.419836 0.034933 0.340755
C57 C 0.5618(9) 0.5506(6) 0.6741(11)
H27 H 0.615097 0.580164 0.659245
C58 C 0.5235(8) 0.5838(6) 0.7376(12)
H28 H 0.551828 0.636438 0.757966
C59 C 0.9888(7) 0.4382(9) 0.3259(11)
H29 H 0.965067 0.384903 0.340755
C61 C 0.5618(9) 0.0112(7) 0.6741(11)
H31 H 0.615097 0.034933 0.659245
O6 O 0.3479(4) 0.8022(3) 0.1415(5)
C30 C 0.4530(10) 0.9059(9) 0.2310(13)
C33 C 0.5235(8) 0.9397(6) 0.2624(12)
H14 H 0.551828 0.915390 0.242034
C34 C 0.4151(10) 0.8301(9) 0.1701(18)
C46 C 0.4530(10) 0.9059(9) 0.7690(13)
C49 C 0.4162(6) 0.9397(6) 0.7376(12)
H20 H 0.363562 0.915390 0.757966
C50 C 0.4151(10) 0.8301(9) 0.8299(18)
C56 C 0.4162(6) 0.9397(6) 0.2624(12)
H26 H 0.363562 0.915390 0.242034
O14 O 0.3479(4) 0.8022(3) 0.8585(5)
C62 C 0.5235(8) 0.9397(6) 0.7376(12)
H32 H 0.551828 0.915390 0.757966
O15 O 0.2147(7) 0.7853(3) 0.000000
O15_2 O 0.2147(7) 0.7853(3) 1.000000
loop_
_geom_bond_atom_site_label_1
_geom_bond_atom_site_label_2
_geom_bond_site_symmetry_1
_geom_bond_site_symmetry_2
Sc6 O1 1_555 1_555
O2 Sc6 1_555 1_555
O3 Sc6 1_555 1_555
C5 C8 1_555 1_555
H4 C8 1_555 1_555
C9 O3 1_555 1_555
O5 C26 1_555 1_555
C22 C25 1_555 1_555
H11 C25 1_555 1_555
C26 C22 1_555 1_555
O10 C26 1_555 1_555
C54 C22 1_555 1_555
H24 C54 1_555 1_555
O13 C9 1_555 1_555
C60 C5 1_555 1_555
H30 C60 1_555 1_555
Sc3 O2 1_555 1_555
O16 Sc3 1_555 1_555
Sc6_2 O5 1_555 1_555
Sc9 O2 1_555 1_555
Sc9_2 O10 1_555 1_555
O19 Sc3 1_555 1_555
O23 Sc6 1_555 1_555
O25 Sc3 1_555 1_555
C5 C9 1_555 1_555
O13 Sc9 1_555 1_555
Sc6_2 O1_2 1_555 1_555
O2_2 Sc6_2 1_555 1_555
Sc3_2 O2_2 1_555 1_555
O16_2 Sc3_2 1_555 1_555
Sc9_2 O2_2 1_555 1_555
O21 Sc3_2 1_555 1_555
O22 Sc3_2 1_555 1_555
O26 Sc6_2 1_555 1_555
C1 H1 1_555 1_555
C2 C1 1_555 1_555
C3 C4 1_555 1_555
C4 C7 1_555 1_555
C6 C2 1_555 1_555
H2 C6 1_555 1_555
C7 H3 1_555 1_555
O19 C17 1_555 1_555
C10 C1 1_555 1_555
C11 C12 1_555 1_555
C12 C15 1_555 1_555
C13 C16 1_555 1_555
C14 C10 1_555 1_555
H5 C14 1_555 1_555
C15 H6 1_555 1_555
C16 C15 1_555 1_555
H7 C16 1_555 1_555
C17 C13 1_555 1_555
C18 H8 1_555 1_555
C19 C2 1_555 1_555
C20 C3 1_555 1_555
C21 C20 1_555 1_555
C23 C19 1_555 1_555
H9 C23 1_555 1_555
C24 C21 1_555 1_555
H10 C24 1_555 1_555
C27 C1 1_555 1_555
C28 C29 1_555 1_555
C29 C32 1_555 1_555
C31 C27 1_555 1_555
H12 C31 1_555 1_555
C32 H13 1_555 1_555
O21 C42 1_555 1_555
C35 C10 1_555 1_555
C36 C11 1_555 1_555
C37 C36 1_555 1_555
C38 C41 1_555 1_555
C39 C35 1_555 1_555
H15 C39 1_555 1_555
C40 C37 1_555 1_555
H16 C40 1_555 1_555
C41 C40 1_555 1_555
H17 C41 1_555 1_555
C42 C38 1_555 1_555
C43 C18 1_555 1_555
C44 C28 1_555 1_555
C45 C44 1_555 1_555
C47 C43 1_555 1_555
H18 C47 1_555 1_555
C48 C45 1_555 1_555
H19 C48 1_555 1_555
O23 C17 1_555 1_555
C51 C12 1_555 1_555
H21 C51 1_555 1_555
C52 C13 1_555 1_555
H22 C52 1_555 1_555
C53 C21 1_555 1_555
H23 C53 1_555 1_555
C55 C29 1_555 1_555
H25 C55 1_555 1_555
O26 C42 1_555 1_555
C57 C37 1_555 1_555
H27 C57 1_555 1_555
C58 C38 1_555 1_555
H28 C58 1_555 1_555
C59 C4 1_555 1_555
H29 C59 1_555 1_555
C61 C45 1_555 1_555
H31 C61 1_555 1_555
C3 C6 1_555 1_555
C11 C14 1_555 1_555
C18 C19 1_555 1_555
C18 C35 1_555 1_555
C20 C23 1_555 1_555
C27 C43 1_555 1_555
C28 C31 1_555 1_555
C36 C39 1_555 1_555
C44 C47 1_555 1_555
C51 C52 1_555 1_555
C57 C58 1_555 1_555
O6 C34 1_555 1_555
C30 C33 1_555 1_555
H14 C33 1_555 1_555
C34 C30 1_555 1_555
O22 C50 1_555 1_555
C46 C49 1_555 1_555
H20 C49 1_555 1_555
C50 C46 1_555 1_555
O25 C34 1_555 1_555
C56 C30 1_555 1_555
H26 C56 1_555 1_555
O14 C50 1_555 1_555
C62 C46 1_555 1_555
H32 C62 1_555 1_555
Sc9 O6 1_555 1_555
O15 Sc9 1_555 1_555
Sc9_2 O14 1_555 1_555
O15_2 Sc9_2 1_555 1_555

#END
