
###############################################################################
#
# This file contains modified crystal structure data generated from the
# MOF subset of the Cambridge Structural Database (CSD) v543 
# hosted by the Cambridge Crystallographic Data Centre (CCDC).
#
# This work is licensed under the Creative Commons
# Attribution-NonCommercial-ShareAlike 4.0 International License.
# To view a copy of this license, visit
# http://creativecommons.org/licenses/by-nc-sa/4.0/
# or send a letter to
# Creative Commons, PO Box 1866, Mountain View, CA 94042, USA.
#
# CIF created using the CSD Python API on 29 September 2022
# The structure has been converted into the P1 space group
# The structure has a 3D framework
# The original CSD entry LOBBIQ is in the hexagonal crystal system
# The framework has been calculated to contain at least 10.0% void space
# The void calculation uses a probe of radius 1.32A, grid spacing 0.4
# H atom positions have been added when not included in the experimental data
# Generated hydrogen atom positions removed from atoms on special positions
#
###############################################################################

data_LOBBIQ
_chemical_formula_moiety         '(C62 H68 Cr6 O26)n'
_symmetry_cell_setting           triclinic
_symmetry_space_group_name_H-M   'P 1'
_symmetry_Int_Tables_number      1
_space_group_name_Hall           'P 1'
loop_
_symmetry_equiv_pos_site_id
_symmetry_equiv_pos_as_xyz
1 x,y,z
_cell_length_a                   19.503(2)
_cell_length_b                   19.503(2)
_cell_length_c                   11.1225(17)
_cell_angle_alpha                90
_cell_angle_beta                 90
_cell_angle_gamma                120
_cell_volume                     3663.83
loop_
_atom_site_label
_atom_site_type_symbol
_atom_site_fract_x
_atom_site_fract_y
_atom_site_fract_z
Cr6 Cr 0.05650(5) 0.11300(9) 0.000000
Cr9 Cr 0.05650(10) 0.94350(5) 0.000000
Cr6_2 Cr 0.05650(5) 0.11300(9) 1.000000
Cr9_2 Cr 0.05650(10) 0.94350(5) 1.000000
Cr13 Cr 0.88700(9) 0.94350(10) 0.000000
O1 O 0.1167(2) 0.2334(4) 0.000000
O2 O 0.1271(2) 0.1205(2) 0.1239(5)
O3 O 0.000000 0.000000 0.000000
C1 C 0.666667 0.333333 0.3893(12)
H1 H 0.666667 0.333333 0.301173
C2 C 0.5827(4) 0.2913(2) 0.4400(6)
C3 C 0.4437(4) 0.2218(2) 0.4385(6)
C4 C 0.3661(4) 0.18306(19) 0.3713(7)
C5 C 0.2288(3) 0.11441(17) 0.2308(5)
C6 C 0.5129(4) 0.2564(2) 0.3747(7)
H2 H 0.513062 0.256531 0.289274
C7 C 0.3337(5) 0.1112(5) 0.3197(11)
H3 H 0.362542 0.085098 0.326027
C8 C 0.1539(6) 0.0770(3) 0.1536(7)
C9 C 0.2667(5) 0.0745(5) 0.2619(9)
H4 H 0.245065 0.021449 0.241593
O4 O 0.8795(2) 0.0066(3) 0.1239(5)
C10 C 0.7087(2) 0.2914(4) 0.4400(6)
C11 C 0.7782(2) 0.2219(4) 0.4385(6)
C12 C 0.81694(19) 0.18304(44) 0.3713(7)
C13 C 0.88559(17) 0.11439(34) 0.2308(5)
C14 C 0.7436(2) 0.2565(4) 0.3747(7)
H5 H 0.743469 0.256531 0.289274
C15 C 0.8888(5) 0.2225(7) 0.3197(11)
H6 H 0.914902 0.277444 0.326027
C16 C 0.9230(3) 0.0769(7) 0.1536(7)
C17 C 0.9255(5) 0.1922(7) 0.2619(9)
H7 H 0.978551 0.223616 0.241593
O5 O 0.1271(2) 0.1205(2) 0.8761(5)
C18 C 0.666666 0.333333 0.6107(12)
H8 H 0.666666 0.333333 0.698827
C19 C 0.5827(4) 0.2913(2) 0.5600(6)
C20 C 0.4437(4) 0.2218(2) 0.5615(6)
C21 C 0.3661(4) 0.18306(19) 0.6287(7)
C22 C 0.2288(3) 0.11441(17) 0.7692(5)
C23 C 0.5129(4) 0.2564(2) 0.6253(7)
H9 H 0.513062 0.256531 0.710726
C24 C 0.3337(5) 0.1112(5) 0.6803(11)
H10 H 0.362542 0.085098 0.673973
C25 C 0.1539(6) 0.0770(3) 0.8464(7)
C26 C 0.2667(5) 0.0745(5) 0.7381(9)
H11 H 0.245065 0.021449 0.758407
O6 O 0.9934(3) 0.8729(2) 0.1239(5)
C27 C 0.7086(4) 0.4173(4) 0.4400(6)
C28 C 0.7781(4) 0.5563(4) 0.4385(6)
C29 C 0.81696(44) 0.6339(4) 0.3713(7)
C30 C 0.88561(34) 0.7712(3) 0.2308(5)
C31 C 0.7435(4) 0.4871(4) 0.3747(7)
H12 H 0.743469 0.486938 0.289274
C32 C 0.7775(7) 0.6663(5) 0.3197(11)
H13 H 0.722556 0.637458 0.326027
C33 C 0.9231(7) 0.8461(6) 0.1536(7)
C34 C 0.8078(7) 0.7333(5) 0.2619(9)
H14 H 0.776384 0.754935 0.241593
O7 O 0.8795(2) 0.0066(3) 0.8761(5)
C35 C 0.7087(2) 0.2914(4) 0.5600(6)
C36 C 0.7782(2) 0.2219(4) 0.5615(6)
C37 C 0.81694(19) 0.18304(44) 0.6287(7)
C38 C 0.88559(17) 0.11439(34) 0.7692(5)
C39 C 0.7436(2) 0.2565(4) 0.6253(7)
H15 H 0.743469 0.256531 0.710726
C40 C 0.8888(5) 0.2225(7) 0.6803(11)
H16 H 0.914902 0.277444 0.673973
C41 C 0.9230(3) 0.0769(7) 0.8464(7)
C42 C 0.9255(5) 0.1922(7) 0.7381(9)
H17 H 0.978551 0.223616 0.758407
O8 O 0.8795(2) 0.8729(2) 0.8761(5)
C43 C 0.7086(4) 0.4173(4) 0.5600(6)
C44 C 0.7781(4) 0.5563(4) 0.5615(6)
C45 C 0.81696(44) 0.6339(4) 0.6287(7)
C46 C 0.88561(34) 0.7712(3) 0.7692(5)
C47 C 0.7435(4) 0.4871(4) 0.6253(7)
H18 H 0.743469 0.486938 0.710726
C48 C 0.8888(5) 0.6663(5) 0.6803(11)
H19 H 0.914902 0.637458 0.673973
C49 C 0.9231(7) 0.8461(6) 0.8464(7)
C50 C 0.9255(5) 0.7333(5) 0.7381(9)
H20 H 0.978551 0.754935 0.758407
O9 O 0.9934(3) 0.1205(2) 0.1239(5)
C51 C 0.7775(7) 0.1112(5) 0.3197(11)
H21 H 0.722556 0.085098 0.326027
C52 C 0.8078(7) 0.0745(5) 0.2619(9)
H22 H 0.776384 0.021449 0.241593
O10 O 0.1271(2) 0.0066(3) 0.8761(5)
C53 C 0.3337(5) 0.2225(7) 0.6803(11)
H23 H 0.362542 0.277444 0.673973
C54 C 0.2667(5) 0.1922(7) 0.7381(9)
H24 H 0.245065 0.223616 0.758407
O11 O 0.8795(2) 0.8729(2) 0.1239(5)
C55 C 0.8888(5) 0.6663(5) 0.3197(11)
H25 H 0.914902 0.637458 0.326027
C56 C 0.9255(5) 0.7333(5) 0.2619(9)
H26 H 0.978551 0.754935 0.241593
O12 O 0.9934(3) 0.1205(2) 0.8761(5)
C57 C 0.7775(7) 0.1112(5) 0.6803(11)
H27 H 0.722556 0.085098 0.673973
C58 C 0.8078(7) 0.0745(5) 0.7381(9)
H28 H 0.776384 0.021449 0.758407
O13 O 0.1271(2) 0.0066(3) 0.1239(5)
C59 C 0.3337(5) 0.2225(7) 0.3197(11)
H29 H 0.362542 0.277444 0.326027
C60 C 0.2667(5) 0.1922(7) 0.2619(9)
H30 H 0.245065 0.223616 0.241593
O14 O 0.9934(3) 0.8729(2) 0.8761(5)
C61 C 0.7775(7) 0.6663(5) 0.6803(11)
H31 H 0.722556 0.637458 0.673973
C62 C 0.8078(7) 0.7333(5) 0.7381(9)
H32 H 0.776384 0.754935 0.758407
Cr13_2 Cr 0.88700(9) 0.94350(10) 1.000000
O1_2 O 0.1167(2) 0.2334(4) 1.000000
O3_2 O 0.000000 0.000000 1.000000
O3_3 O -0.000000 1.000000 0.000000
O15 O 0.1167(4) 0.8833(2) 0.000000
O3_4 O -0.000000 1.000000 1.000000
O15_2 O 0.1167(4) 0.8833(2) 1.000000
O3_5 O 1.000000 0.000000 0.000000
O3_6 O 1.000000 0.000000 1.000000
O3_7 O 1.000000 1.000000 0.000000
O16 O 0.7666(4) 0.8833(4) 0.000000
O3_8 O 1.000000 1.000000 1.000000
O16_2 O 0.7666(4) 0.8833(4) 1.000000
loop_
_geom_bond_atom_site_label_1
_geom_bond_atom_site_label_2
_geom_bond_site_symmetry_1
_geom_bond_site_symmetry_2
Cr6 O1 1_555 1_555
O2 Cr6 1_555 1_555
O3 Cr6 1_555 1_555
C1 H1 1_555 1_555
C2 C1 1_555 1_555
C3 C4 1_555 1_555
C4 C7 1_555 1_555
C5 C8 1_555 1_555
C6 C2 1_555 1_555
H2 C6 1_555 1_555
C7 H3 1_555 1_555
C8 O2 1_555 1_555
C9 C5 1_555 1_555
H4 C9 1_555 1_555
O4 C16 1_555 1_555
C10 C1 1_555 1_555
C11 C12 1_555 1_555
C12 C15 1_555 1_555
C13 C16 1_555 1_555
C14 C10 1_555 1_555
H5 C14 1_555 1_555
C15 H6 1_555 1_555
C16 O9 1_555 1_555
C17 C13 1_555 1_555
H7 C17 1_555 1_555
O5 C25 1_555 1_555
C18 H8 1_555 1_555
C19 C2 1_555 1_555
C20 C3 1_555 1_555
C21 C20 1_555 1_555
C22 C25 1_555 1_555
C23 C19 1_555 1_555
H9 C23 1_555 1_555
C24 C21 1_555 1_555
H10 C24 1_555 1_555
C25 O10 1_555 1_555
C26 C22 1_555 1_555
H11 C26 1_555 1_555
O6 C33 1_555 1_555
C27 C1 1_555 1_555
C28 C29 1_555 1_555
C29 C32 1_555 1_555
C30 C33 1_555 1_555
C31 C27 1_555 1_555
H12 C31 1_555 1_555
C32 H13 1_555 1_555
C33 O11 1_555 1_555
C34 C30 1_555 1_555
H14 C34 1_555 1_555
O7 C41 1_555 1_555
C35 C10 1_555 1_555
C36 C11 1_555 1_555
C37 C36 1_555 1_555
C38 C41 1_555 1_555
C39 C35 1_555 1_555
H15 C39 1_555 1_555
C40 C37 1_555 1_555
H16 C40 1_555 1_555
C41 O12 1_555 1_555
C42 C38 1_555 1_555
H17 C42 1_555 1_555
O8 C49 1_555 1_555
C43 C18 1_555 1_555
C44 C28 1_555 1_555
C45 C44 1_555 1_555
C46 C49 1_555 1_555
C47 C43 1_555 1_555
H18 C47 1_555 1_555
C48 C45 1_555 1_555
H19 C48 1_555 1_555
C49 O14 1_555 1_555
C50 C46 1_555 1_555
H20 C50 1_555 1_555
C51 C12 1_555 1_555
H21 C51 1_555 1_555
C52 C13 1_555 1_555
H22 C52 1_555 1_555
C53 C21 1_555 1_555
H23 C53 1_555 1_555
C54 C22 1_555 1_555
H24 C54 1_555 1_555
O11 Cr13 1_555 1_555
C55 C29 1_555 1_555
H25 C55 1_555 1_555
C56 C30 1_555 1_555
H26 C56 1_555 1_555
C57 C37 1_555 1_555
H27 C57 1_555 1_555
C58 C38 1_555 1_555
H28 C58 1_555 1_555
O13 C8 1_555 1_555
C59 C4 1_555 1_555
H29 C59 1_555 1_555
C60 C5 1_555 1_555
H30 C60 1_555 1_555
C61 C45 1_555 1_555
H31 C61 1_555 1_555
C62 C46 1_555 1_555
H32 C62 1_555 1_555
Cr6_2 O5 1_555 1_555
Cr13_2 O8 1_555 1_555
C3 C6 1_555 1_555
C7 C9 1_555 1_555
C11 C14 1_555 1_555
C15 C17 1_555 1_555
C18 C19 1_555 1_555
C18 C35 1_555 1_555
C20 C23 1_555 1_555
C24 C26 1_555 1_555
C27 C43 1_555 1_555
C28 C31 1_555 1_555
C32 C34 1_555 1_555
C36 C39 1_555 1_555
C40 C42 1_555 1_555
C44 C47 1_555 1_555
C48 C50 1_555 1_555
C51 C52 1_555 1_555
C53 C54 1_555 1_555
C55 C56 1_555 1_555
C57 C58 1_555 1_555
C59 C60 1_555 1_555
C61 C62 1_555 1_555
Cr6_2 O1_2 1_555 1_555
O3_2 Cr6_2 1_555 1_555
Cr9 O3_3 1_555 1_555
O15 Cr9 1_555 1_555
Cr9_2 O3_4 1_555 1_555
O15_2 Cr9_2 1_555 1_555
Cr13 O3_7 1_555 1_555
O16 Cr13 1_555 1_555
Cr13_2 O3_8 1_555 1_555
O16_2 Cr13_2 1_555 1_555

#END
