
###############################################################################
#
# This file contains modified crystal structure data generated from the
# MOF subset of the Cambridge Structural Database (CSD) v543 
# hosted by the Cambridge Crystallographic Data Centre (CCDC).
#
# This work is licensed under the Creative Commons
# Attribution-NonCommercial-ShareAlike 4.0 International License.
# To view a copy of this license, visit
# http://creativecommons.org/licenses/by-nc-sa/4.0/
# or send a letter to
# Creative Commons, PO Box 1866, Mountain View, CA 94042, USA.
#
# CIF created using the CSD Python API on 29 September 2022
# The structure has been converted into the P1 space group
# The structure has a 3D framework
# The original CSD entry LOBBOW is in the hexagonal crystal system
# The framework has been calculated to contain at least 10.0% void space
# The void calculation uses a probe of radius 1.32A, grid spacing 0.4
# H atom positions have been added when not included in the experimental data
# Generated hydrogen atom positions removed from atoms on special positions
#
###############################################################################

data_LOBBOW
_chemical_formula_moiety         '(C62 H68 Fe6 O20)n'
_symmetry_cell_setting           triclinic
_symmetry_space_group_name_H-M   'P 1'
_symmetry_Int_Tables_number      1
_space_group_name_Hall           'P 1'
loop_
_symmetry_equiv_pos_site_id
_symmetry_equiv_pos_as_xyz
1 x,y,z
_cell_length_a                   19.5705(16)
_cell_length_b                   19.5705(16)
_cell_length_c                   11.2629(15)
_cell_angle_alpha                90
_cell_angle_beta                 90
_cell_angle_gamma                120
_cell_volume                     3735.81
loop_
_atom_site_label
_atom_site_type_symbol
_atom_site_fract_x
_atom_site_fract_y
_atom_site_fract_z
Fe9 Fe 0.27668(9) 0.55337(8) 0.000000
Fe13 Fe 0.27669(4) 0.72332(9) 0.000000
O6 O 0.2005(4) 0.5439(3) 0.8758(4)
C28 C 0.10286(27) 0.55143(19) 0.7689(6)
C31 C 0.1736(3) 0.5868(2) 0.8417(7)
C34 C 0.0659(8) 0.5887(5) 0.7330(13)
H14 H 0.088099 0.642749 0.753604
O9 O 0.2005(4) 0.6566(2) 0.8758(4)
C46 C 0.0659(8) 0.4772(6) 0.7330(13)
H21 H 0.088099 0.445350 0.753604
O12 O 0.2005(4) 0.6566(2) 0.1242(4)
C52 C 0.10286(27) 0.55143(19) 0.2311(6)
C55 C 0.1736(3) 0.5868(2) 0.1583(7)
C58 C 0.0659(8) 0.4772(6) 0.2670(13)
H28 H 0.088099 0.445350 0.246396
O14 O 0.2005(4) 0.5439(3) 0.1242(4)
C62 C 0.0659(8) 0.5887(5) 0.2670(13)
H32 H 0.088099 0.642749 0.246396
Fe9_2 Fe 0.27668(9) 0.55337(8) 1.000000
Fe13_2 Fe 0.27669(4) 0.72332(9) 1.000000
Fe1 Fe 0.44663(8) 0.72331(4) 0.000000
O1 O 0.5646(4) 0.78229(19) 0.000000
O2 O 0.333333 0.666667 0.000000
O15 O 0.21769(44) 0.4354(4) 0.000000
O16 O 0.21771(19) 0.78231(44) 0.000000
O19 O 0.4561(3) 0.6566(2) 0.1242(4)
O21 O 0.3434(2) 0.7995(4) 0.1242(4)
O22 O 0.3434(2) 0.5439(3) 0.1242(4)
O24 O 0.4561(3) 0.7995(4) 0.1242(4)
Fe1_2 Fe 0.44663(8) 0.72331(4) 1.000000
O1_2 O 0.5646(4) 0.78229(19) 1.000000
O2_2 O 0.333333 0.666667 1.000000
O3 O 0.4561(3) 0.6566(2) 0.8758(4)
C1 C 0.6260(2) 0.3740(2) 0.5620(6)
C2 C 0.666667 0.333333 0.6147(12)
H1 H 0.666667 0.333333 0.703484
C3 C 0.44857(19) 0.55143(19) 0.7689(6)
C4 C 0.5542(2) 0.4458(2) 0.5626(7)
C5 C 0.5177(2) 0.4823(2) 0.6308(8)
C6 C 0.4132(2) 0.5868(2) 0.8417(7)
C7 C 0.5901(2) 0.4099(2) 0.6241(7)
H2 H 0.590143 0.409857 0.708408
C8 C 0.4446(5) 0.4443(5) 0.6698(12)
H3 H 0.413613 0.389732 0.651672
C9 C 0.4113(5) 0.4772(6) 0.7330(13)
H4 H 0.357251 0.445350 0.753604
C10 C 0.6260(2) 0.2520(3) 0.5620(6)
C12 C 0.5542(2) 0.1084(3) 0.5626(7)
C13 C 0.5177(2) 0.0354(3) 0.6308(8)
C15 C 0.5901(2) 0.1802(3) 0.6241(7)
H5 H 0.590143 0.180286 0.708408
C16 C 0.5557(5) 0.0003(7) 0.6698(12)
H6 H 0.610268 0.023881 0.651672
C18 C 0.6260(2) 0.3740(2) 0.4380(6)
C19 C 0.666666 0.333333 0.3853(12)
H8 H 0.666666 0.333333 0.296516
C20 C 0.44857(19) 0.55143(19) 0.2311(6)
C21 C 0.5542(2) 0.4458(2) 0.4374(7)
C22 C 0.5177(2) 0.4823(2) 0.3692(8)
C23 C 0.4132(2) 0.5868(2) 0.1583(7)
C24 C 0.5901(2) 0.4099(2) 0.3759(7)
H9 H 0.590143 0.409857 0.291592
C25 C 0.4446(5) 0.4443(5) 0.3302(12)
H10 H 0.413613 0.389732 0.348328
C26 C 0.4113(5) 0.4772(6) 0.2670(13)
H11 H 0.357251 0.445350 0.246396
C27 C 0.7480(3) 0.3740(2) 0.5620(6)
C29 C 0.8916(3) 0.4458(2) 0.5626(7)
C30 C 0.9646(3) 0.4823(2) 0.6308(8)
C32 C 0.8198(3) 0.4099(2) 0.6241(7)
H12 H 0.819714 0.409857 0.708408
C33 C 0.9997(7) 0.5554(5) 0.6698(12)
H13 H 0.976119 0.586387 0.651672
C35 C 0.6260(2) 0.2520(3) 0.4380(6)
C37 C 0.5542(2) 0.1084(3) 0.4374(7)
C38 C 0.5177(2) 0.0354(3) 0.3692(8)
C40 C 0.5901(2) 0.1802(3) 0.3759(7)
H15 H 0.590143 0.180286 0.291592
C41 C 0.5557(5) 0.0003(7) 0.3302(12)
H16 H 0.610268 0.023881 0.348328
C43 C 0.5557(5) 0.5554(5) 0.3302(12)
H18 H 0.610268 0.586387 0.348328
C44 C 0.5228(6) 0.5887(5) 0.2670(13)
H19 H 0.554650 0.642749 0.246396
C45 C 0.9997(7) 0.4443(5) 0.6698(12)
H20 H 0.976119 0.389732 0.651672
C47 C 0.4446(5) 0.0003(7) 0.3302(12)
H22 H 0.413613 0.023881 0.348328
O11 O 0.3434(2) 0.5439(3) 0.8758(4)
C49 C 0.5557(5) 0.5554(5) 0.6698(12)
H24 H 0.610268 0.586387 0.651672
C50 C 0.5228(6) 0.5887(5) 0.7330(13)
H25 H 0.554650 0.642749 0.753604
C51 C 0.7480(3) 0.3740(2) 0.4380(6)
C53 C 0.8916(3) 0.4458(2) 0.4374(7)
C54 C 0.9646(3) 0.4823(2) 0.3692(8)
C56 C 0.8198(3) 0.4099(2) 0.3759(7)
H26 H 0.819714 0.409857 0.291592
C57 C 0.9997(7) 0.4443(5) 0.3302(12)
H27 H 0.976119 0.389732 0.348328
C59 C 0.4446(5) 0.0003(7) 0.6698(12)
H29 H 0.413613 0.023881 0.651672
C61 C 0.9997(7) 0.5554(5) 0.3302(12)
H31 H 0.976119 0.586387 0.348328
O15_2 O 0.21769(44) 0.4354(4) 1.000000
O16_2 O 0.21771(19) 0.78231(44) 1.000000
O18 O 0.3434(2) 0.7995(4) 0.8758(4)
O26 O 0.4561(3) 0.7995(4) 0.8758(4)
C11 C 0.44857(19) 0.89714(27) 0.7689(6)
C14 C 0.4132(2) 0.8264(3) 0.8417(7)
C17 C 0.5228(6) 0.9341(8) 0.7330(13)
H7 H 0.554650 0.911901 0.753604
C36 C 0.44857(19) 0.89714(27) 0.2311(6)
C39 C 0.4132(2) 0.8264(3) 0.1583(7)
C42 C 0.5228(6) 0.9341(8) 0.2670(13)
H17 H 0.554650 0.911901 0.246396
C48 C 0.4113(5) 0.9341(8) 0.2670(13)
H23 H 0.357251 0.911901 0.246396
C60 C 0.4113(5) 0.9341(8) 0.7330(13)
H30 H 0.357251 0.911901 0.753604
loop_
_geom_bond_atom_site_label_1
_geom_bond_atom_site_label_2
_geom_bond_site_symmetry_1
_geom_bond_site_symmetry_2
O6 C31 1_555 1_555
C28 C31 1_555 1_555
C31 O9 1_555 1_555
C34 C28 1_555 1_555
H14 C34 1_555 1_555
O9 Fe13_2 1_555 1_555
C46 C28 1_555 1_555
H21 C46 1_555 1_555
O12 C55 1_555 1_555
C52 C55 1_555 1_555
C55 O14 1_555 1_555
C58 C52 1_555 1_555
H28 C58 1_555 1_555
O14 Fe9 1_555 1_555
C62 C52 1_555 1_555
H32 C62 1_555 1_555
Fe9_2 O6 1_555 1_555
Fe13 O12 1_555 1_555
Fe1 O1 1_555 1_555
O2 Fe1 1_555 1_555
Fe9 O2 1_555 1_555
O15 Fe9 1_555 1_555
Fe13 O2 1_555 1_555
O16 Fe13 1_555 1_555
O19 Fe1 1_555 1_555
O21 Fe13 1_555 1_555
O22 Fe9 1_555 1_555
O24 Fe1 1_555 1_555
Fe1_2 O1_2 1_555 1_555
O2_2 Fe1_2 1_555 1_555
O3 Fe1_2 1_555 1_555
C1 C2 1_555 1_555
C2 H1 1_555 1_555
C3 C6 1_555 1_555
C4 C5 1_555 1_555
C5 C8 1_555 1_555
C6 O3 1_555 1_555
C7 C1 1_555 1_555
H2 C7 1_555 1_555
C8 H3 1_555 1_555
C9 C3 1_555 1_555
H4 C9 1_555 1_555
C10 C2 1_555 1_555
C12 C13 1_555 1_555
C13 C16 1_555 1_555
C15 C10 1_555 1_555
H5 C15 1_555 1_555
C16 H6 1_555 1_555
O19 C23 1_555 1_555
C18 C1 1_555 1_555
C19 C18 1_555 1_555
H8 C19 1_555 1_555
C20 C23 1_555 1_555
C21 C4 1_555 1_555
C22 C21 1_555 1_555
C23 O22 1_555 1_555
C24 C18 1_555 1_555
H9 C24 1_555 1_555
C25 C22 1_555 1_555
H10 C25 1_555 1_555
C26 C20 1_555 1_555
H11 C26 1_555 1_555
C27 C2 1_555 1_555
C29 C30 1_555 1_555
C30 C33 1_555 1_555
C32 C27 1_555 1_555
H12 C32 1_555 1_555
C33 H13 1_555 1_555
C35 C10 1_555 1_555
C37 C12 1_555 1_555
C38 C37 1_555 1_555
C40 C35 1_555 1_555
H15 C40 1_555 1_555
C41 C38 1_555 1_555
H16 C41 1_555 1_555
C43 C22 1_555 1_555
H18 C43 1_555 1_555
C44 C20 1_555 1_555
H19 C44 1_555 1_555
C45 C30 1_555 1_555
H20 C45 1_555 1_555
C47 C38 1_555 1_555
H22 C47 1_555 1_555
O11 C6 1_555 1_555
C49 C5 1_555 1_555
H24 C49 1_555 1_555
C50 C3 1_555 1_555
H25 C50 1_555 1_555
C51 C19 1_555 1_555
C53 C29 1_555 1_555
C54 C53 1_555 1_555
C56 C51 1_555 1_555
H26 C56 1_555 1_555
C57 C54 1_555 1_555
H27 C57 1_555 1_555
C59 C13 1_555 1_555
H29 C59 1_555 1_555
C61 C54 1_555 1_555
H31 C61 1_555 1_555
Fe9_2 O2_2 1_555 1_555
O15_2 Fe9_2 1_555 1_555
Fe13_2 O2_2 1_555 1_555
O16_2 Fe13_2 1_555 1_555
O18 Fe13_2 1_555 1_555
O26 Fe1_2 1_555 1_555
C4 C7 1_555 1_555
C8 C9 1_555 1_555
C12 C15 1_555 1_555
C19 C35 1_555 1_555
C21 C24 1_555 1_555
C25 C26 1_555 1_555
C27 C51 1_555 1_555
C29 C32 1_555 1_555
C37 C40 1_555 1_555
C43 C44 1_555 1_555
O11 Fe9_2 1_555 1_555
C49 C50 1_555 1_555
C53 C56 1_555 1_555
O18 C14 1_555 1_555
C11 C14 1_555 1_555
C14 O26 1_555 1_555
C17 C11 1_555 1_555
H7 C17 1_555 1_555
O21 C39 1_555 1_555
C36 C39 1_555 1_555
C39 O24 1_555 1_555
C42 C36 1_555 1_555
H17 C42 1_555 1_555
C48 C36 1_555 1_555
H23 C48 1_555 1_555
C60 C11 1_555 1_555
H30 C60 1_555 1_555

#END
