
###############################################################################
#
# This file contains modified crystal structure data generated from the
# MOF subset of the Cambridge Structural Database (CSD) v543 
# hosted by the Cambridge Crystallographic Data Centre (CCDC).
#
# This work is licensed under the Creative Commons
# Attribution-NonCommercial-ShareAlike 4.0 International License.
# To view a copy of this license, visit
# http://creativecommons.org/licenses/by-nc-sa/4.0/
# or send a letter to
# Creative Commons, PO Box 1866, Mountain View, CA 94042, USA.
#
# CIF created using the CSD Python API on 29 September 2022
# The structure has been converted into the P1 space group
# The structure has a 3D framework
# The original CSD entry LOJLAZ is in the orthorhombic crystal system
# The framework has been calculated to contain at least 10.0% void space
# The void calculation uses a probe of radius 1.32A, grid spacing 0.4
#
###############################################################################

data_LOJLAZ
_chemical_formula_moiety         '(C72 H32 Au4 Fe6 N44)n'
_symmetry_cell_setting           triclinic
_symmetry_space_group_name_H-M   'P 1'
_symmetry_Int_Tables_number      1
_space_group_name_Hall           'P 1'
loop_
_symmetry_equiv_pos_site_id
_symmetry_equiv_pos_as_xyz
1 x,y,z
_cell_length_a                   12.066(2)
_cell_length_b                   16.121(3)
_cell_length_c                   15.099(3)
_cell_angle_alpha                90
_cell_angle_beta                 90
_cell_angle_gamma                90
_cell_volume                     2937
loop_
_atom_site_label
_atom_site_type_symbol
_atom_site_fract_x
_atom_site_fract_y
_atom_site_fract_z
Au1 Au 0.7500 -0.0000 0.392711(15)
Fe1 Fe 0.5000 0.2500 0.38450(8)
N1 N 0.6102(3) 0.1631(2) 0.3855(2)
C1 C 0.6640(4) 0.1042(3) 0.3891(3)
N2 N 0.5000 0.2500 0.2527(5)
C2 C 0.5950(5) 0.2500 0.2061(4)
H1 H 0.6629 0.2500 0.2380
C3 C 0.5995(5) 0.2500 0.1150(4)
H2 H 0.6689 0.2500 0.0852
C4 C 0.5000 0.2500 0.0670(6)
C10 C 0.4050(5) 0.2500 0.2061(4)
H5 H 0.3371 0.2500 0.2380
C11 C 0.4005(5) 0.2500 0.1150(4)
H6 H 0.3311 0.2500 0.0852
Au2 Au 0.2500 0.5000 0.392711(15)
N8 N 0.3898(3) 0.3369(2) 0.3855(2)
C14 C 0.3360(4) 0.3958(3) 0.3891(3)
N9 N 0.6102(3) 0.3369(2) 0.3855(2)
C15 C 0.6640(4) 0.3958(3) 0.3891(3)
N10 N 0.3898(3) 0.1631(2) 0.3855(2)
C16 C 0.3360(4) 0.1042(3) 0.3891(3)
Au3 Au 0.7500 0.5000 0.392711(15)
Au4 Au 0.2500 -0.0000 0.392711(15)
C17 C 0.1640(4) 0.6042(3) 0.3891(3)
N11 N 0.5000 0.2500 0.5164(5)
N3 N 0.5987(5) 0.2500 0.9278(4)
N4 N 0.5982(5) 0.2500 0.8398(4)
C5 C 0.5000 0.2500 0.9689(7)
C6 C 0.5000 0.2500 0.7998(7)
C7 C 0.5000 0.2500 0.7006(7)
C8 C 0.5969(5) 0.2500 0.6552(5)
H3 H 0.6655 0.2500 0.6860
C9 C 0.5949(5) 0.2500 0.5629(4)
H4 H 0.6633 0.2500 0.5317
N6 N 0.4013(5) 0.2500 0.9278(4)
N7 N 0.4018(5) 0.2500 0.8398(4)
C12 C 0.4031(5) 0.2500 0.6552(5)
H7 H 0.3345 0.2500 0.6860
C13 C 0.4051(5) 0.2500 0.5629(4)
H8 H 0.3367 0.2500 0.5317
Au1_2 Au 0.7500 1.0000 0.392711(15)
Au4_2 Au 0.2500 1.0000 0.392711(15)
C18 C 0.8360(4) 0.8958(3) 0.3891(3)
Fe1_2 Fe -0.0000 0.7500 0.38450(8)
N1_2 N 0.1102(3) 0.6631(2) 0.3855(2)
N2_2 N -0.0000 0.7500 0.2527(5)
C2_2 C 0.0950(5) 0.7500 0.2061(4)
H1_2 H 0.1629 0.7500 0.2380
C3_2 C 0.0995(5) 0.7500 0.1150(4)
H2_2 H 0.1689 0.7500 0.0852
C4_2 C -0.0000 0.7500 0.0670(6)
N9_2 N 0.1102(3) 0.8369(2) 0.3855(2)
C15_2 C 0.1640(4) 0.8958(3) 0.3891(3)
N11_2 N 0.0000 0.7500 0.5164(5)
N3_2 N 0.0987(5) 0.7500 0.9278(4)
N4_2 N 0.0982(5) 0.7500 0.8398(4)
C5_2 C -0.0000 0.7500 0.9689(7)
C6_2 C -0.0000 0.7500 0.7998(7)
C7_2 C -0.0000 0.7500 0.7006(7)
C8_2 C 0.0969(5) 0.7500 0.6552(5)
H3_2 H 0.1655 0.7500 0.6860
C9_2 C 0.0949(5) 0.7500 0.5629(4)
H4_2 H 0.1633 0.7500 0.5317
Fe1_3 Fe 1.0000 0.7500 0.38450(8)
N2_3 N 1.0000 0.7500 0.2527(5)
C4_3 C 1.0000 0.7500 0.0670(6)
C10_2 C 0.9050(5) 0.7500 0.2061(4)
H5_2 H 0.8371 0.7500 0.2380
C11_2 C 0.9005(5) 0.7500 0.1150(4)
H6_2 H 0.8311 0.7500 0.0852
N8_2 N 0.8898(3) 0.8369(2) 0.3855(2)
N10_2 N 0.8898(3) 0.6631(2) 0.3855(2)
C16_2 C 0.8360(4) 0.6042(3) 0.3891(3)
N11_3 N 1.0000 0.7500 0.5164(5)
C5_3 C 1.0000 0.7500 0.9689(7)
C6_3 C 1.0000 0.7500 0.7998(7)
C7_3 C 1.0000 0.7500 0.7006(7)
N6_2 N 0.9013(5) 0.7500 0.9278(4)
N7_2 N 0.9018(5) 0.7500 0.8398(4)
C12_2 C 0.9031(5) 0.7500 0.6552(5)
H7_2 H 0.8345 0.7500 0.6860
C13_2 C 0.9051(5) 0.7500 0.5629(4)
H8_2 H 0.8367 0.7500 0.5317
Au2_2 Au 0.7500 0.0000 0.607289(15)
Au3_2 Au 0.2500 0.0000 0.607289(15)
C17_2 C 0.8360(4) 0.1042(3) 0.6109(3)
N3_3 N 0.4013(5) 0.7500 0.0722(4)
N4_3 N 0.4018(5) 0.7500 0.1602(4)
N5 N 0.5000 0.7500 0.4836(5)
C5_4 C 0.5000 0.7500 0.0311(7)
C6_4 C 0.5000 0.7500 0.2002(7)
C7_4 C 0.5000 0.7500 0.2994(7)
C8_3 C 0.4031(5) 0.7500 0.3448(5)
H3_3 H 0.3345 0.7500 0.3140
C9_3 C 0.4051(5) 0.7500 0.4371(4)
H4_3 H 0.3367 0.7500 0.4683
N6_3 N 0.5987(5) 0.7500 0.0722(4)
N7_3 N 0.5982(5) 0.7500 0.1602(4)
C12_3 C 0.5969(5) 0.7500 0.3448(5)
H7_3 H 0.6655 0.7500 0.3140
C13_3 C 0.5949(5) 0.7500 0.4371(4)
H8_3 H 0.6633 0.7500 0.4683
Fe2 Fe 0.5000 0.7500 0.61550(8)
Au1_3 Au 0.2500 0.5000 0.607289(15)
N1_3 N 0.3898(3) 0.6631(2) 0.6145(2)
C1_2 C 0.3360(4) 0.6042(3) 0.6109(3)
N2_4 N 0.5000 0.7500 0.7473(5)
C2_3 C 0.4050(5) 0.7500 0.7939(4)
H1_3 H 0.3371 0.7500 0.7620
C3_3 C 0.4005(5) 0.7500 0.8850(4)
H2_3 H 0.3311 0.7500 0.9148
C4_4 C 0.5000 0.7500 0.9330(6)
C10_3 C 0.5950(5) 0.7500 0.7939(4)
H5_3 H 0.6629 0.7500 0.7620
C11_3 C 0.5995(5) 0.7500 0.8850(4)
H6_3 H 0.6689 0.7500 0.9148
Au2_3 Au 0.7500 1.0000 0.607289(15)
N8_3 N 0.6102(3) 0.8369(2) 0.6145(2)
C14_2 C 0.6640(4) 0.8958(3) 0.6109(3)
N9_3 N 0.3898(3) 0.8369(2) 0.6145(2)
C15_3 C 0.3360(4) 0.8958(3) 0.6109(3)
N10_3 N 0.6102(3) 0.6631(2) 0.6145(2)
C16_3 C 0.6640(4) 0.6042(3) 0.6109(3)
Au3_3 Au 0.2500 1.0000 0.607289(15)
Au4_3 Au 0.7500 0.5000 0.607289(15)
C18_2 C 0.1640(4) 0.3958(3) 0.6109(3)
N5_2 N -0.0000 0.2500 0.4836(5)
C5_5 C -0.0000 0.2500 0.0311(7)
C6_5 C -0.0000 0.2500 0.2002(7)
C7_5 C -0.0000 0.2500 0.2994(7)
N6_4 N 0.0987(5) 0.2500 0.0722(4)
N7_4 N 0.0982(5) 0.2500 0.1602(4)
C12_4 C 0.0969(5) 0.2500 0.3448(5)
H7_4 H 0.1655 0.2500 0.3140
C13_4 C 0.0949(5) 0.2500 0.4371(4)
H8_4 H 0.1633 0.2500 0.4683
Fe2_2 Fe -0.0000 0.2500 0.61550(8)
N2_5 N -0.0000 0.2500 0.7473(5)
C4_5 C -0.0000 0.2500 0.9330(6)
C10_4 C 0.0950(5) 0.2500 0.7939(4)
H5_4 H 0.1629 0.2500 0.7620
C11_4 C 0.0995(5) 0.2500 0.8850(4)
H6_4 H 0.1689 0.2500 0.9148
N8_4 N 0.1102(3) 0.3369(2) 0.6145(2)
N10_4 N 0.1102(3) 0.1631(2) 0.6145(2)
C16_4 C 0.1640(4) 0.1042(3) 0.6109(3)
N3_4 N 0.9013(5) 0.2500 0.0722(4)
N4_4 N 0.9018(5) 0.2500 0.1602(4)
N5_3 N 1.0000 0.2500 0.4836(5)
C5_6 C 1.0000 0.2500 0.0311(7)
C6_6 C 1.0000 0.2500 0.2002(7)
C7_6 C 1.0000 0.2500 0.2994(7)
C8_4 C 0.9031(5) 0.2500 0.3448(5)
H3_4 H 0.8345 0.2500 0.3140
C9_4 C 0.9051(5) 0.2500 0.4371(4)
H4_4 H 0.8367 0.2500 0.4683
Fe2_3 Fe 1.0000 0.2500 0.61550(8)
N1_4 N 0.8898(3) 0.1631(2) 0.6145(2)
N2_6 N 1.0000 0.2500 0.7473(5)
C2_4 C 0.9050(5) 0.2500 0.7939(4)
H1_4 H 0.8371 0.2500 0.7620
C3_4 C 0.9005(5) 0.2500 0.8850(4)
H2_4 H 0.8311 0.2500 0.9148
C4_6 C 1.0000 0.2500 0.9330(6)
N9_4 N 0.8898(3) 0.3369(2) 0.6145(2)
C15_4 C 0.8360(4) 0.3958(3) 0.6109(3)
loop_
_geom_bond_atom_site_label_1
_geom_bond_atom_site_label_2
_geom_bond_site_symmetry_1
_geom_bond_site_symmetry_2
Au1 C1 1_555 1_555
Fe1 N1 1_555 1_555
N1 C1 1_555 1_555
N2 Fe1 1_555 1_555
C2 N2 1_555 1_555
H1 C2 1_555 1_555
C3 C2 1_555 1_555
H2 C3 1_555 1_555
C4 C3 1_555 1_555
C10 N2 1_555 1_555
H5 C10 1_555 1_555
C11 C4 1_555 1_555
H6 C11 1_555 1_555
Au2 C14 1_555 1_555
N8 Fe1 1_555 1_555
C14 N8 1_555 1_555
N9 Fe1 1_555 1_555
C15 N9 1_555 1_555
N10 Fe1 1_555 1_555
C16 N10 1_555 1_555
Au3 C15 1_555 1_555
Au4 C16 1_555 1_555
C17 Au2 1_555 1_555
N11 Fe1 1_555 1_555
C10 C11 1_555 1_555
N3 N4 1_555 1_555
N4 C6 1_555 1_555
N11 C9 1_555 1_555
C5 N3 1_555 1_555
C6 C7 1_555 1_555
C7 C8 1_555 1_555
C8 H3 1_555 1_555
C9 C8 1_555 1_555
H4 C9 1_555 1_555
N6 C5 1_555 1_555
N7 C6 1_555 1_555
C12 C7 1_555 1_555
H7 C12 1_555 1_555
C13 N11 1_555 1_555
H8 C13 1_555 1_555
N6 N7 1_555 1_555
C12 C13 1_555 1_555
C18 Au1_2 1_555 1_555
Fe1_2 N1_2 1_555 1_555
N1_2 C17 1_555 1_555
N2_2 Fe1_2 1_555 1_555
C2_2 N2_2 1_555 1_555
H1_2 C2_2 1_555 1_555
C3_2 C2_2 1_555 1_555
H2_2 C3_2 1_555 1_555
C4_2 C3_2 1_555 1_555
N9_2 Fe1_2 1_555 1_555
C15_2 N9_2 1_555 1_555
Au4_2 C15_2 1_555 1_555
N11_2 Fe1_2 1_555 1_555
N3_2 N4_2 1_555 1_555
N4_2 C6_2 1_555 1_555
N11_2 C9_2 1_555 1_555
C5_2 N3_2 1_555 1_555
C6_2 C7_2 1_555 1_555
C7_2 C8_2 1_555 1_555
C8_2 H3_2 1_555 1_555
C9_2 C8_2 1_555 1_555
H4_2 C9_2 1_555 1_555
N2_3 Fe1_3 1_555 1_555
C10_2 N2_3 1_555 1_555
H5_2 C10_2 1_555 1_555
C11_2 C4_3 1_555 1_555
H6_2 C11_2 1_555 1_555
N8_2 Fe1_3 1_555 1_555
C18 N8_2 1_555 1_555
N10_2 Fe1_3 1_555 1_555
C16_2 N10_2 1_555 1_555
Au3 C16_2 1_555 1_555
N11_3 Fe1_3 1_555 1_555
C10_2 C11_2 1_555 1_555
C6_3 C7_3 1_555 1_555
N6_2 C5_3 1_555 1_555
N7_2 C6_3 1_555 1_555
C12_2 C7_3 1_555 1_555
H7_2 C12_2 1_555 1_555
C13_2 N11_3 1_555 1_555
H8_2 C13_2 1_555 1_555
N6_2 N7_2 1_555 1_555
C12_2 C13_2 1_555 1_555
C17_2 Au2_2 1_555 1_555
N3_3 N4_3 1_555 1_555
N4_3 C6_4 1_555 1_555
N5 C9_3 1_555 1_555
C5_4 N3_3 1_555 1_555
C6_4 C7_4 1_555 1_555
C7_4 C8_3 1_555 1_555
C8_3 H3_3 1_555 1_555
C9_3 C8_3 1_555 1_555
H4_3 C9_3 1_555 1_555
N6_3 C5_4 1_555 1_555
N7_3 C6_4 1_555 1_555
C12_3 C7_4 1_555 1_555
H7_3 C12_3 1_555 1_555
C13_3 N5 1_555 1_555
H8_3 C13_3 1_555 1_555
Fe2 N5 1_555 1_555
N6_3 N7_3 1_555 1_555
C12_3 C13_3 1_555 1_555
Au1_3 C1_2 1_555 1_555
Fe2 N1_3 1_555 1_555
N1_3 C1_2 1_555 1_555
N2_4 Fe2 1_555 1_555
C2_3 N2_4 1_555 1_555
H1_3 C2_3 1_555 1_555
C3_3 C2_3 1_555 1_555
H2_3 C3_3 1_555 1_555
C4_4 C3_3 1_555 1_555
C10_3 N2_4 1_555 1_555
H5_3 C10_3 1_555 1_555
C11_3 C4_4 1_555 1_555
H6_3 C11_3 1_555 1_555
Au2_3 C14_2 1_555 1_555
N8_3 Fe2 1_555 1_555
C14_2 N8_3 1_555 1_555
N9_3 Fe2 1_555 1_555
C15_3 N9_3 1_555 1_555
N10_3 Fe2 1_555 1_555
C16_3 N10_3 1_555 1_555
Au3_3 C15_3 1_555 1_555
Au4_3 C16_3 1_555 1_555
C18_2 Au1_3 1_555 1_555
C10_3 C11_3 1_555 1_555
C6_5 C7_5 1_555 1_555
N6_4 C5_5 1_555 1_555
N7_4 C6_5 1_555 1_555
C12_4 C7_5 1_555 1_555
H7_4 C12_4 1_555 1_555
C13_4 N5_2 1_555 1_555
H8_4 C13_4 1_555 1_555
Fe2_2 N5_2 1_555 1_555
N6_4 N7_4 1_555 1_555
C12_4 C13_4 1_555 1_555
N2_5 Fe2_2 1_555 1_555
C10_4 N2_5 1_555 1_555
H5_4 C10_4 1_555 1_555
C11_4 C4_5 1_555 1_555
H6_4 C11_4 1_555 1_555
N8_4 Fe2_2 1_555 1_555
C18_2 N8_4 1_555 1_555
N10_4 Fe2_2 1_555 1_555
C16_4 N10_4 1_555 1_555
Au3_2 C16_4 1_555 1_555
C10_4 C11_4 1_555 1_555
N3_4 N4_4 1_555 1_555
N4_4 C6_6 1_555 1_555
N5_3 C9_4 1_555 1_555
C5_6 N3_4 1_555 1_555
C6_6 C7_6 1_555 1_555
C7_6 C8_4 1_555 1_555
C8_4 H3_4 1_555 1_555
C9_4 C8_4 1_555 1_555
H4_4 C9_4 1_555 1_555
Fe2_3 N5_3 1_555 1_555
Fe2_3 N1_4 1_555 1_555
N1_4 C17_2 1_555 1_555
N2_6 Fe2_3 1_555 1_555
C2_4 N2_6 1_555 1_555
H1_4 C2_4 1_555 1_555
C3_4 C2_4 1_555 1_555
H2_4 C3_4 1_555 1_555
C4_6 C3_4 1_555 1_555
N9_4 Fe2_3 1_555 1_555
C15_4 N9_4 1_555 1_555
Au4_3 C15_4 1_555 1_555

#END
