
###############################################################################
#
# This file contains modified crystal structure data generated from the
# MOF subset of the Cambridge Structural Database (CSD) v543 
# hosted by the Cambridge Crystallographic Data Centre (CCDC).
#
# This work is licensed under the Creative Commons
# Attribution-NonCommercial-ShareAlike 4.0 International License.
# To view a copy of this license, visit
# http://creativecommons.org/licenses/by-nc-sa/4.0/
# or send a letter to
# Creative Commons, PO Box 1866, Mountain View, CA 94042, USA.
#
# CIF created using the CSD Python API on 29 September 2022
# The structure has been converted into the P1 space group
# The structure has a 3D framework
# The original CSD entry LOJLAZ01 is in the orthorhombic crystal system
# The framework has been calculated to contain at least 10.0% void space
# The void calculation uses a probe of radius 1.32A, grid spacing 0.4
#
###############################################################################

data_LOJLAZ01
_chemical_formula_moiety         '(C72 H32 Au4 Fe6 N44)n'
_symmetry_cell_setting           triclinic
_symmetry_space_group_name_H-M   'P 1'
_symmetry_Int_Tables_number      1
_space_group_name_Hall           'P 1'
loop_
_symmetry_equiv_pos_site_id
_symmetry_equiv_pos_as_xyz
1 x,y,z
_cell_length_a                   11.9183(7)
_cell_length_b                   16.9983(8)
_cell_length_c                   15.4986(10)
_cell_angle_alpha                90
_cell_angle_beta                 90
_cell_angle_gamma                90
_cell_volume                     3139.87
loop_
_atom_site_label
_atom_site_type_symbol
_atom_site_fract_x
_atom_site_fract_y
_atom_site_fract_z
Au1 Au 0.7500 0.0000 0.39434(4)
Fe1 Fe 0.5000 0.2500 0.38594(12)
N1 N 0.6245(5) 0.1599(4) 0.3867(4)
C1 C 0.6714(7) 0.1028(5) 0.3900(5)
N2 N 0.5000 0.2500 0.2424(9)
C2 C 0.5934(11) 0.2500 0.1990(8)
H1 H 0.6605 0.2500 0.2296
C3 C 0.5984(12) 0.2500 0.1095(8)
H2 H 0.6671 0.2500 0.0811
C4 C 0.5000 0.2500 0.0638(11)
C10 C 0.4066(11) 0.2500 0.1990(8)
H5 H 0.3395 0.2500 0.2296
C11 C 0.4016(12) 0.2500 0.1095(8)
H6 H 0.3329 0.2500 0.0811
Au2 Au 0.2500 0.5000 0.39434(4)
N8 N 0.3755(5) 0.3401(4) 0.3867(4)
C14 C 0.3286(7) 0.3972(5) 0.3900(5)
N9 N 0.6245(5) 0.3401(4) 0.3867(4)
C15 C 0.6714(7) 0.3972(5) 0.3900(5)
N10 N 0.3755(5) 0.1599(4) 0.3867(4)
C16 C 0.3286(7) 0.1028(5) 0.3900(5)
Au3 Au 0.7500 0.5000 0.39434(4)
Au4 Au 0.2500 0.0000 0.39434(4)
C17 C 0.1714(7) 0.6028(5) 0.3900(5)
N11 N 0.5000 0.2500 0.5269(8)
N3 N 0.6002(10) 0.2500 0.9273(8)
N4 N 0.5982(11) 0.2500 0.8409(8)
C5 C 0.5000 0.2500 0.9689(14)
C6 C 0.5000 0.2500 0.8051(14)
C7 C 0.5000 0.2500 0.7076(13)
C8 C 0.5970(11) 0.2500 0.6625(9)
H3 H 0.6658 0.2500 0.6909
C9 C 0.5920(9) 0.2500 0.5714(8)
H4 H 0.6595 0.2500 0.5413
N6 N 0.3998(10) 0.2500 0.9273(8)
N7 N 0.4018(11) 0.2500 0.8409(8)
C12 C 0.4030(11) 0.2500 0.6625(9)
H7 H 0.3342 0.2500 0.6909
C13 C 0.4080(9) 0.2500 0.5714(8)
H8 H 0.3405 0.2500 0.5413
Au1_2 Au 0.7500 1.0000 0.39434(4)
Au4_2 Au 0.2500 1.0000 0.39434(4)
C18 C 0.8286(7) 0.8972(5) 0.3900(5)
Fe1_2 Fe -0.0000 0.7500 0.38594(12)
N1_2 N 0.1245(5) 0.6599(4) 0.3867(4)
N2_2 N 0.0000 0.7500 0.2424(9)
C2_2 C 0.0934(11) 0.7500 0.1990(8)
H1_2 H 0.1605 0.7500 0.2296
C3_2 C 0.0984(12) 0.7500 0.1095(8)
H2_2 H 0.1671 0.7500 0.0811
C4_2 C -0.0000 0.7500 0.0638(11)
N9_2 N 0.1245(5) 0.8401(4) 0.3867(4)
C15_2 C 0.1714(7) 0.8972(5) 0.3900(5)
N11_2 N -0.0000 0.7500 0.5269(8)
N3_2 N 0.1002(10) 0.7500 0.9273(8)
N4_2 N 0.0982(11) 0.7500 0.8409(8)
C5_2 C -0.0000 0.7500 0.9689(14)
C6_2 C -0.0000 0.7500 0.8051(14)
C7_2 C -0.0000 0.7500 0.7076(13)
C8_2 C 0.0970(11) 0.7500 0.6625(9)
H3_2 H 0.1658 0.7500 0.6909
C9_2 C 0.0920(9) 0.7500 0.5714(8)
H4_2 H 0.1595 0.7500 0.5413
Fe1_3 Fe 1.0000 0.7500 0.38594(12)
N2_3 N 1.0000 0.7500 0.2424(9)
C4_3 C 1.0000 0.7500 0.0638(11)
C10_2 C 0.9066(11) 0.7500 0.1990(8)
H5_2 H 0.8395 0.7500 0.2296
C11_2 C 0.9016(12) 0.7500 0.1095(8)
H6_2 H 0.8329 0.7500 0.0811
N8_2 N 0.8755(5) 0.8401(4) 0.3867(4)
N10_2 N 0.8755(5) 0.6599(4) 0.3867(4)
C16_2 C 0.8286(7) 0.6028(5) 0.3900(5)
N11_3 N 1.0000 0.7500 0.5269(8)
C5_3 C 1.0000 0.7500 0.9689(14)
C6_3 C 1.0000 0.7500 0.8051(14)
C7_3 C 1.0000 0.7500 0.7076(13)
N6_2 N 0.8998(10) 0.7500 0.9273(8)
N7_2 N 0.9018(11) 0.7500 0.8409(8)
C12_2 C 0.9030(11) 0.7500 0.6625(9)
H7_2 H 0.8342 0.7500 0.6909
C13_2 C 0.9080(9) 0.7500 0.5714(8)
H8_2 H 0.8405 0.7500 0.5413
Au2_2 Au 0.7500 0.0000 0.60566(4)
Au3_2 Au 0.2500 0.0000 0.60566(4)
C17_2 C 0.8286(7) 0.1028(5) 0.6100(5)
N3_3 N 0.3998(10) 0.7500 0.0727(8)
N4_3 N 0.4018(11) 0.7500 0.1591(8)
N5 N 0.5000 0.7500 0.4731(8)
C5_4 C 0.5000 0.7500 0.0311(14)
C6_4 C 0.5000 0.7500 0.1949(14)
C7_4 C 0.5000 0.7500 0.2924(13)
C8_3 C 0.4030(11) 0.7500 0.3375(9)
H3_3 H 0.3342 0.7500 0.3091
C9_3 C 0.4080(9) 0.7500 0.4286(8)
H4_3 H 0.3405 0.7500 0.4587
N6_3 N 0.6002(10) 0.7500 0.0727(8)
N7_3 N 0.5982(11) 0.7500 0.1591(8)
C12_3 C 0.5970(11) 0.7500 0.3375(9)
H7_3 H 0.6658 0.7500 0.3091
C13_3 C 0.5920(9) 0.7500 0.4286(8)
H8_3 H 0.6595 0.7500 0.4587
Fe2 Fe 0.5000 0.7500 0.61406(12)
Au1_3 Au 0.2500 0.5000 0.60566(4)
N1_3 N 0.3755(5) 0.6599(4) 0.6133(4)
C1_2 C 0.3286(7) 0.6028(5) 0.6100(5)
N2_4 N 0.5000 0.7500 0.7576(9)
C2_3 C 0.4066(11) 0.7500 0.8010(8)
H1_3 H 0.3395 0.7500 0.7704
C3_3 C 0.4016(12) 0.7500 0.8905(8)
H2_3 H 0.3329 0.7500 0.9189
C4_4 C 0.5000 0.7500 0.9362(11)
C10_3 C 0.5934(11) 0.7500 0.8010(8)
H5_3 H 0.6605 0.7500 0.7704
C11_3 C 0.5984(12) 0.7500 0.8905(8)
H6_3 H 0.6671 0.7500 0.9189
Au2_3 Au 0.7500 1.0000 0.60566(4)
N8_3 N 0.6245(5) 0.8401(4) 0.6133(4)
C14_2 C 0.6714(7) 0.8972(5) 0.6100(5)
N9_3 N 0.3755(5) 0.8401(4) 0.6133(4)
C15_3 C 0.3286(7) 0.8972(5) 0.6100(5)
N10_3 N 0.6245(5) 0.6599(4) 0.6133(4)
C16_3 C 0.6714(7) 0.6028(5) 0.6100(5)
Au3_3 Au 0.2500 1.0000 0.60566(4)
Au4_3 Au 0.7500 0.5000 0.60566(4)
C18_2 C 0.1714(7) 0.3972(5) 0.6100(5)
N5_2 N 0.0000 0.2500 0.4731(8)
C5_5 C -0.0000 0.2500 0.0311(14)
C6_5 C 0.0000 0.2500 0.1949(14)
C7_5 C -0.0000 0.2500 0.2924(13)
N6_4 N 0.1002(10) 0.2500 0.0727(8)
N7_4 N 0.0982(11) 0.2500 0.1591(8)
C12_4 C 0.0970(11) 0.2500 0.3375(9)
H7_4 H 0.1658 0.2500 0.3091
C13_4 C 0.0920(9) 0.2500 0.4286(8)
H8_4 H 0.1595 0.2500 0.4587
Fe2_2 Fe 0.0000 0.2500 0.61406(12)
N2_5 N -0.0000 0.2500 0.7576(9)
C4_5 C -0.0000 0.2500 0.9362(11)
C10_4 C 0.0934(11) 0.2500 0.8010(8)
H5_4 H 0.1605 0.2500 0.7704
C11_4 C 0.0984(12) 0.2500 0.8905(8)
H6_4 H 0.1671 0.2500 0.9189
N8_4 N 0.1245(5) 0.3401(4) 0.6133(4)
N10_4 N 0.1245(5) 0.1599(4) 0.6133(4)
C16_4 C 0.1714(7) 0.1028(5) 0.6100(5)
N3_4 N 0.8998(10) 0.2500 0.0727(8)
N4_4 N 0.9018(11) 0.2500 0.1591(8)
N5_3 N 1.0000 0.2500 0.4731(8)
C5_6 C 1.0000 0.2500 0.0311(14)
C6_6 C 1.0000 0.2500 0.1949(14)
C7_6 C 1.0000 0.2500 0.2924(13)
C8_4 C 0.9030(11) 0.2500 0.3375(9)
H3_4 H 0.8342 0.2500 0.3091
C9_4 C 0.9080(9) 0.2500 0.4286(8)
H4_4 H 0.8405 0.2500 0.4587
Fe2_3 Fe 1.0000 0.2500 0.61406(12)
N1_4 N 0.8755(5) 0.1599(4) 0.6133(4)
N2_6 N 1.0000 0.2500 0.7576(9)
C2_4 C 0.9066(11) 0.2500 0.8010(8)
H1_4 H 0.8395 0.2500 0.7704
C3_4 C 0.9016(12) 0.2500 0.8905(8)
H2_4 H 0.8329 0.2500 0.9189
C4_6 C 1.0000 0.2500 0.9362(11)
N9_4 N 0.8755(5) 0.3401(4) 0.6133(4)
C15_4 C 0.8286(7) 0.3972(5) 0.6100(5)
loop_
_geom_bond_atom_site_label_1
_geom_bond_atom_site_label_2
_geom_bond_site_symmetry_1
_geom_bond_site_symmetry_2
Au1 C1 1_555 1_555
Fe1 N1 1_555 1_555
N1 C1 1_555 1_555
N2 Fe1 1_555 1_555
C2 N2 1_555 1_555
H1 C2 1_555 1_555
C3 C2 1_555 1_555
H2 C3 1_555 1_555
C4 C3 1_555 1_555
C10 N2 1_555 1_555
H5 C10 1_555 1_555
C11 C4 1_555 1_555
H6 C11 1_555 1_555
Au2 C14 1_555 1_555
N8 Fe1 1_555 1_555
C14 N8 1_555 1_555
N9 Fe1 1_555 1_555
C15 N9 1_555 1_555
N10 Fe1 1_555 1_555
C16 N10 1_555 1_555
Au3 C15 1_555 1_555
Au4 C16 1_555 1_555
C17 Au2 1_555 1_555
N11 Fe1 1_555 1_555
C10 C11 1_555 1_555
N3 N4 1_555 1_555
N4 C6 1_555 1_555
N11 C9 1_555 1_555
C5 N3 1_555 1_555
C6 C7 1_555 1_555
C7 C8 1_555 1_555
C8 H3 1_555 1_555
C9 C8 1_555 1_555
H4 C9 1_555 1_555
N6 C5 1_555 1_555
N7 C6 1_555 1_555
C12 C7 1_555 1_555
H7 C12 1_555 1_555
C13 N11 1_555 1_555
H8 C13 1_555 1_555
N6 N7 1_555 1_555
C12 C13 1_555 1_555
C18 Au1_2 1_555 1_555
Fe1_2 N1_2 1_555 1_555
N1_2 C17 1_555 1_555
N2_2 Fe1_2 1_555 1_555
C2_2 N2_2 1_555 1_555
H1_2 C2_2 1_555 1_555
C3_2 C2_2 1_555 1_555
H2_2 C3_2 1_555 1_555
C4_2 C3_2 1_555 1_555
N9_2 Fe1_2 1_555 1_555
C15_2 N9_2 1_555 1_555
Au4_2 C15_2 1_555 1_555
N11_2 Fe1_2 1_555 1_555
N3_2 N4_2 1_555 1_555
N4_2 C6_2 1_555 1_555
N11_2 C9_2 1_555 1_555
C5_2 N3_2 1_555 1_555
C6_2 C7_2 1_555 1_555
C7_2 C8_2 1_555 1_555
C8_2 H3_2 1_555 1_555
C9_2 C8_2 1_555 1_555
H4_2 C9_2 1_555 1_555
N2_3 Fe1_3 1_555 1_555
C10_2 N2_3 1_555 1_555
H5_2 C10_2 1_555 1_555
C11_2 C4_3 1_555 1_555
H6_2 C11_2 1_555 1_555
N8_2 Fe1_3 1_555 1_555
C18 N8_2 1_555 1_555
N10_2 Fe1_3 1_555 1_555
C16_2 N10_2 1_555 1_555
Au3 C16_2 1_555 1_555
N11_3 Fe1_3 1_555 1_555
C10_2 C11_2 1_555 1_555
C6_3 C7_3 1_555 1_555
N6_2 C5_3 1_555 1_555
N7_2 C6_3 1_555 1_555
C12_2 C7_3 1_555 1_555
H7_2 C12_2 1_555 1_555
C13_2 N11_3 1_555 1_555
H8_2 C13_2 1_555 1_555
N6_2 N7_2 1_555 1_555
C12_2 C13_2 1_555 1_555
C17_2 Au2_2 1_555 1_555
N3_3 N4_3 1_555 1_555
N4_3 C6_4 1_555 1_555
N5 C9_3 1_555 1_555
C5_4 N3_3 1_555 1_555
C6_4 C7_4 1_555 1_555
C7_4 C8_3 1_555 1_555
C8_3 H3_3 1_555 1_555
C9_3 C8_3 1_555 1_555
H4_3 C9_3 1_555 1_555
N6_3 C5_4 1_555 1_555
N7_3 C6_4 1_555 1_555
C12_3 C7_4 1_555 1_555
H7_3 C12_3 1_555 1_555
C13_3 N5 1_555 1_555
H8_3 C13_3 1_555 1_555
Fe2 N5 1_555 1_555
N6_3 N7_3 1_555 1_555
C12_3 C13_3 1_555 1_555
Au1_3 C1_2 1_555 1_555
Fe2 N1_3 1_555 1_555
N1_3 C1_2 1_555 1_555
N2_4 Fe2 1_555 1_555
C2_3 N2_4 1_555 1_555
H1_3 C2_3 1_555 1_555
C3_3 C2_3 1_555 1_555
H2_3 C3_3 1_555 1_555
C4_4 C3_3 1_555 1_555
C10_3 N2_4 1_555 1_555
H5_3 C10_3 1_555 1_555
C11_3 C4_4 1_555 1_555
H6_3 C11_3 1_555 1_555
Au2_3 C14_2 1_555 1_555
N8_3 Fe2 1_555 1_555
C14_2 N8_3 1_555 1_555
N9_3 Fe2 1_555 1_555
C15_3 N9_3 1_555 1_555
N10_3 Fe2 1_555 1_555
C16_3 N10_3 1_555 1_555
Au3_3 C15_3 1_555 1_555
Au4_3 C16_3 1_555 1_555
C18_2 Au1_3 1_555 1_555
C10_3 C11_3 1_555 1_555
C6_5 C7_5 1_555 1_555
N6_4 C5_5 1_555 1_555
N7_4 C6_5 1_555 1_555
C12_4 C7_5 1_555 1_555
H7_4 C12_4 1_555 1_555
C13_4 N5_2 1_555 1_555
H8_4 C13_4 1_555 1_555
Fe2_2 N5_2 1_555 1_555
N6_4 N7_4 1_555 1_555
C12_4 C13_4 1_555 1_555
N2_5 Fe2_2 1_555 1_555
C10_4 N2_5 1_555 1_555
H5_4 C10_4 1_555 1_555
C11_4 C4_5 1_555 1_555
H6_4 C11_4 1_555 1_555
N8_4 Fe2_2 1_555 1_555
C18_2 N8_4 1_555 1_555
N10_4 Fe2_2 1_555 1_555
C16_4 N10_4 1_555 1_555
Au3_2 C16_4 1_555 1_555
C10_4 C11_4 1_555 1_555
N3_4 N4_4 1_555 1_555
N4_4 C6_6 1_555 1_555
N5_3 C9_4 1_555 1_555
C5_6 N3_4 1_555 1_555
C6_6 C7_6 1_555 1_555
C7_6 C8_4 1_555 1_555
C8_4 H3_4 1_555 1_555
C9_4 C8_4 1_555 1_555
H4_4 C9_4 1_555 1_555
Fe2_3 N5_3 1_555 1_555
Fe2_3 N1_4 1_555 1_555
N1_4 C17_2 1_555 1_555
N2_6 Fe2_3 1_555 1_555
C2_4 N2_6 1_555 1_555
H1_4 C2_4 1_555 1_555
C3_4 C2_4 1_555 1_555
H2_4 C3_4 1_555 1_555
C4_6 C3_4 1_555 1_555
N9_4 Fe2_3 1_555 1_555
C15_4 N9_4 1_555 1_555
Au4_3 C15_4 1_555 1_555

#END
