
###############################################################################
#
# This file contains modified crystal structure data generated from the
# MOF subset of the Cambridge Structural Database (CSD) v543 
# hosted by the Cambridge Crystallographic Data Centre (CCDC).
#
# This work is licensed under the Creative Commons
# Attribution-NonCommercial-ShareAlike 4.0 International License.
# To view a copy of this license, visit
# http://creativecommons.org/licenses/by-nc-sa/4.0/
# or send a letter to
# Creative Commons, PO Box 1866, Mountain View, CA 94042, USA.
#
# CIF created using the CSD Python API on 29 September 2022
# The structure has been converted into the P1 space group
# The structure has a 3D framework
# The original CSD entry LONRAK is in the monoclinic crystal system
# The framework has been calculated to contain at least 10.0% void space
# The void calculation uses a probe of radius 1.32A, grid spacing 0.4
#
###############################################################################

data_LONRAK
_chemical_formula_moiety         '(C92 H72 O38 Zn6)n'
_symmetry_cell_setting           triclinic
_symmetry_space_group_name_H-M   'P 1'
_symmetry_Int_Tables_number      1
_space_group_name_Hall           'P 1'
loop_
_symmetry_equiv_pos_site_id
_symmetry_equiv_pos_as_xyz
1 x,y,z
_cell_length_a                   14.6551(4)
_cell_length_b                   29.4915(6)
_cell_length_c                   6.47240(10)
_cell_angle_alpha                90
_cell_angle_beta                 99.603(2)
_cell_angle_gamma                90
_cell_volume                     2758.18
loop_
_atom_site_label
_atom_site_type_symbol
_atom_site_fract_x
_atom_site_fract_y
_atom_site_fract_z
H8 H 0.3724 0.1979 0.0761
C9 C 0.2304(2) 0.19441(11) 0.0568(5)
C10 C 0.2282(2) 0.17931(12) 0.2574(5)
H9 H 0.2829 0.1705 0.3426
C11 C 0.1452(2) 0.17705(12) 0.3333(5)
H10 H 0.1443 0.1661 0.4677
C12 C 0.0636(2) 0.19106(11) 0.2096(5)
C13 C 0.0660(2) 0.20660(12) 0.0067(5)
O1 O 0.32213(16) 0.14820(8) 0.8798(4)
O2 O 0.37774(17) 0.05302(8) 0.3433(4)
O3 O 0.58504(16) 0.19175(8) 0.2914(3)
O4 O 0.58874(19) 0.22313(9) 0.6053(4)
C1 C 0.3754(2) 0.14150(11) 0.7264(5)
C2 C 0.3553(2) 0.10278(11) 0.6086(5)
H4 H 0.3096 0.0831 0.6384
C3 C 0.4028(2) 0.09290(11) 0.4454(5)
C4 C 0.4686(2) 0.12299(11) 0.3954(5)
H5 H 0.4987 0.1173 0.2825
C5 C 0.4888(2) 0.16178(11) 0.5166(5)
C6 C 0.4436(2) 0.17116(11) 0.6840(5)
H6 H 0.4587 0.1968 0.7662
C7 C 0.5602(2) 0.19465(11) 0.4656(5)
C8 C 0.3193(2) 0.19291(12) 0.9672(5)
H7 H 0.3190 0.2158 0.8596
H11 H 0.0117 0.2160 0.9219
C14 C 0.1486(2) 0.20795(12) 0.9321(5)
H12 H 0.1496 0.2181 0.7964
C16 C 0.4196(3) 0.04179(12) 0.1679(6)
H13 H 0.4863 0.0405 0.2087
H14 H 0.4050 0.0646 0.0596
Zn4 Zn 0.68134(2) 0.27054(2) 0.65366(5)
Zn7 Zn 0.68134(2) 0.22946(2) 0.15366(5)
O7 O 0.29310(16) 0.83253(7) 0.9656(3)
O8 O 0.24006(16) 0.86627(8) 0.6600(3)
C18 C 0.3436(3) 0.99075(13) 0.8797(6)
C19 C 0.3104(3) 0.94925(12) 0.8026(6)
H16 H 0.2835 0.9465 0.6625
C20 C 0.3170(2) 0.91175(11) 0.9323(5)
C23 C 0.2806(2) 0.86689(11) 0.8464(5)
Zn3 Zn 0.16397(2) 0.81638(2) 0.52032(5)
Zn5 Zn 0.31866(2) 0.77054(2) 0.84634(5)
Zn1 Zn 0.83603(2) 0.18362(2) 0.47968(5)
O5 O 0.90503(18) 0.21061(11) 0.1897(5)
O6 O 0.97019(17) 0.17401(10) 0.4669(4)
O9 O 0.76076(13) 0.24042(7) 0.4404(3)
H1 H 0.8047 0.2641 0.4155
O10 O 0.83923(17) 0.16388(10) 0.7731(4)
H2 H 0.7844 0.1638 0.8000
H3 H 0.8618 0.1373 0.7891
C15 C 0.9732(2) 0.19196(13) 0.2903(6)
O11 O 0.58504(16) 0.30825(8) 0.7914(3)
O13 O 0.70690(16) 0.33253(7) 0.5344(3)
O14 O 0.75994(16) 0.13373(8) 0.3400(3)
O15 O 0.76076(13) 0.25958(7) 0.9404(3)
Zn1_2 Zn 0.16397(2) 0.68362(2) 0.02032(5)
O5_2 O 0.09497(18) 0.71061(11) 0.3103(5)
O6_2 O 0.02981(17) 0.67401(10) 0.0331(4)
O9_2 O 0.23924(13) 0.74042(7) 0.0596(3)
H1_2 H 0.1953 0.7641 0.0845
C15_2 C 0.0268(2) 0.69196(13) 0.2097(6)
Zn6 Zn 0.31866(2) 0.72946(2) 0.34634(5)
O14_2 O 0.24006(16) 0.63373(8) 0.1600(3)
O10_2 O 0.16077(17) 0.66388(10) 0.7269(4)
H2_2 H 0.2156 0.6638 0.7000
H3_2 H 0.1382 0.6373 0.7109
O11_2 O 0.41496(16) 0.80825(8) 0.7086(3)
O12 O 0.41126(19) 0.72313(9) 0.8947(4)
O15_2 O 0.23924(13) 0.75958(7) 0.5596(3)
O2_2 O 0.62226(17) 0.55302(8) 0.1567(4)
O3_2 O 0.41496(16) 0.69175(8) 0.2086(3)
O8_2 O 0.75994(16) 0.36627(8) 0.8400(3)
C3_2 C 0.5972(2) 0.59290(11) 0.0546(5)
C4_2 C 0.5314(2) 0.62299(11) 0.1046(5)
H5_2 H 0.5013 0.6173 0.2175
C7_2 C 0.4398(2) 0.69465(11) 0.0344(5)
C16_2 C 0.5804(3) 0.54179(12) 0.3321(6)
H13_2 H 0.5137 0.5405 0.2913
H14_2 H 0.5950 0.5646 0.4404
C17 C 0.6169(2) 0.49635(12) 0.4132(6)
C18_2 C 0.6564(3) 0.49075(13) 0.6203(6)
H15 H 0.6608 0.5156 0.7101
C19_2 C 0.6896(3) 0.44925(12) 0.6974(6)
H16_2 H 0.7165 0.4465 0.8375
C20_2 C 0.6830(2) 0.41175(11) 0.5677(5)
C21 C 0.6415(3) 0.41657(12) 0.3615(5)
H17 H 0.6348 0.3916 0.2727
C22 C 0.6098(3) 0.45877(13) 0.2866(6)
H18 H 0.5829 0.4617 0.1466
C23_2 C 0.7194(2) 0.36689(11) 0.6536(5)
Zn3_2 Zn 0.83603(2) 0.31638(2) 0.97968(5)
O1_2 O 0.67787(16) 0.64820(8) 0.6202(4)
C1_2 C 0.6246(2) 0.64150(11) 0.7736(5)
C2_2 C 0.6447(2) 0.60278(11) 0.8914(5)
H4_2 H 0.6904 0.5831 0.8616
C5_2 C 0.5112(2) 0.66178(11) 0.9834(5)
C6_2 C 0.5564(2) 0.67116(11) 0.8160(5)
H6_2 H 0.5413 0.6968 0.7338
C8_2 C 0.6807(2) 0.69291(12) 0.5328(5)
H7_2 H 0.6810 0.7158 0.6404
H8_2 H 0.6276 0.6979 0.4239
C9_2 C 0.7696(2) 0.69441(11) 0.4432(5)
C10_2 C 0.7718(2) 0.67931(12) 0.2426(5)
H9_2 H 0.7171 0.6705 0.1574
C11_2 C 0.8548(2) 0.67705(12) 0.1667(5)
H10_2 H 0.8557 0.6661 0.0323
C12_2 C 0.9364(2) 0.69106(11) 0.2904(5)
C13_2 C 0.9340(2) 0.70660(12) 0.4933(5)
H11_2 H 0.9883 0.7160 0.5781
C14_2 C 0.8514(2) 0.70795(12) 0.5679(5)
H12_2 H 0.8504 0.7181 0.7036
O5_3 O 0.09497(18) 0.78939(11) 0.8103(5)
O6_3 O 0.02981(17) 0.82599(10) 0.5331(4)
H1_3 H 0.1953 0.7359 0.5845
O10_3 O 0.16077(17) 0.83612(10) 0.2269(4)
H2_3 H 0.2156 0.8362 0.2000
H3_3 H 0.1382 0.8627 0.2109
C15_3 C 0.0268(2) 0.80804(13) 0.7097(6)
O12_2 O 0.41126(19) 0.77687(9) 0.3947(4)
O13_2 O 0.29310(16) 0.66747(7) 0.4656(3)
O7_2 O 0.70690(16) 0.16747(7) 0.0344(3)
C18_3 C 0.6564(3) 0.00925(13) 0.1203(6)
C19_3 C 0.6896(3) 0.05075(12) 0.1974(6)
H16_3 H 0.7165 0.0535 0.3375
C20_3 C 0.6830(2) 0.08825(11) 0.0677(5)
C23_3 C 0.7194(2) 0.13311(11) 0.1536(5)
O1_3 O 0.67787(16) 0.85180(8) 0.1202(4)
O2_3 O 0.62226(17) 0.94698(8) 0.6567(4)
C1_3 C 0.6246(2) 0.85850(11) 0.2736(5)
C2_3 C 0.6447(2) 0.89722(11) 0.3914(5)
H4_3 H 0.6904 0.9169 0.3616
C3_3 C 0.5972(2) 0.90710(11) 0.5546(5)
C4_3 C 0.5314(2) 0.87701(11) 0.6046(5)
H5_3 H 0.5013 0.8827 0.7175
C5_3 C 0.5112(2) 0.83822(11) 0.4834(5)
C6_3 C 0.5564(2) 0.82884(11) 0.3160(5)
H6_3 H 0.5413 0.8032 0.2338
C7_3 C 0.4398(2) 0.80535(11) 0.5344(5)
C8_3 C 0.6807(2) 0.80709(12) 0.0328(5)
H7_3 H 0.6810 0.7842 0.1404
H11_3 H 0.9883 0.7840 0.0781
C14_3 C 0.8514(2) 0.79205(12) 0.0679(5)
H12_3 H 0.8504 0.7819 0.2036
C16_3 C 0.5804(3) 0.95821(12) 0.8321(6)
H13_3 H 0.5137 0.9595 0.7913
H14_3 H 0.5950 0.9354 0.9404
O1_4 O 0.32213(16) 0.35180(8) 0.3798(4)
O4_2 O 0.58874(19) 0.27687(9) 0.1053(4)
C1_4 C 0.3754(2) 0.35850(11) 0.2264(5)
C2_4 C 0.3553(2) 0.39722(11) 0.1086(5)
H4_4 H 0.3096 0.4169 0.1384
C5_4 C 0.4888(2) 0.33822(11) 0.0166(5)
C6_4 C 0.4436(2) 0.32884(11) 0.1840(5)
H6_4 H 0.4587 0.3032 0.2662
C8_4 C 0.3193(2) 0.30709(12) 0.4672(5)
H7_4 H 0.3190 0.2842 0.3596
H8_3 H 0.3724 0.3021 0.5761
C9_3 C 0.2304(2) 0.30559(11) 0.5568(5)
C10_3 C 0.2282(2) 0.32069(12) 0.7574(5)
H9_3 H 0.2829 0.3295 0.8426
C11_3 C 0.1452(2) 0.32295(12) 0.8333(5)
H10_3 H 0.1443 0.3339 0.9677
C12_3 C 0.0636(2) 0.30894(11) 0.7096(5)
C13_3 C 0.0660(2) 0.29340(12) 0.5067(5)
H11_4 H 0.0117 0.2840 0.4219
C14_4 C 0.1486(2) 0.29205(12) 0.4321(5)
H12_4 H 0.1496 0.2819 0.2964
O2_4 O 0.37774(17) 0.44698(8) 0.8433(4)
C3_4 C 0.4028(2) 0.40710(11) 0.9454(5)
C4_4 C 0.4686(2) 0.37701(11) 0.8954(5)
H5_4 H 0.4987 0.3827 0.7825
C7_4 C 0.5602(2) 0.30535(11) 0.9656(5)
C16_4 C 0.4196(3) 0.45821(12) 0.6679(6)
H13_4 H 0.4863 0.4595 0.7087
H14_4 H 0.4050 0.4354 0.5596
C17_2 C 0.3831(2) 0.50365(12) 0.5868(6)
C18_4 C 0.3436(3) 0.50925(13) 0.3797(6)
H15_2 H 0.3392 0.4844 0.2899
C19_4 C 0.3104(3) 0.55075(12) 0.3026(6)
H16_4 H 0.2835 0.5535 0.1625
C20_4 C 0.3170(2) 0.58825(11) 0.4323(5)
C21_2 C 0.3585(3) 0.58343(12) 0.6385(5)
H17_2 H 0.3652 0.6084 0.7273
C22_2 C 0.3902(3) 0.54123(13) 0.7134(6)
H18_2 H 0.4171 0.5383 0.8534
C23_4 C 0.2806(2) 0.63311(11) 0.3464(5)
O10_4 O 0.83923(17) 0.33612(10) 0.2731(4)
H2_4 H 0.7844 0.3362 0.3000
H3_4 H 0.8618 0.3627 0.2891
O5_4 O 0.90503(18) 0.28939(11) 0.6897(5)
O6_4 O 0.97019(17) 0.32599(10) 0.9669(4)
H1_4 H 0.8047 0.2359 0.9155
C15_4 C 0.9732(2) 0.30804(13) 0.7903(6)
H15_3 H 0.3392 0.0156 0.7899
C17_3 C 0.3831(2) 0.99635(12) 0.0868(6)
C21_3 C 0.3585(3) 0.91657(12) 0.1385(5)
H17_3 H 0.3652 0.8916 0.2273
C22_3 C 0.3902(3) 0.95877(13) 0.2134(6)
H18_3 H 0.4171 0.9617 0.3534
C17_4 C 0.6169(2) 0.00365(12) 0.9132(6)
C21_4 C 0.6415(3) 0.08343(12) 0.8615(5)
H17_4 H 0.6348 0.1084 0.7727
C22_4 C 0.6098(3) 0.04123(13) 0.7866(6)
H18_4 H 0.5829 0.0383 0.6466
H15_4 H 0.6608 0.9844 0.2101
H8_4 H 0.6276 0.8021 0.9239
C9_4 C 0.7696(2) 0.80559(11) 0.9432(5)
C10_4 C 0.7718(2) 0.82069(12) 0.7426(5)
H9_4 H 0.7171 0.8295 0.6574
C11_4 C 0.8548(2) 0.82295(12) 0.6667(5)
H10_4 H 0.8557 0.8339 0.5323
C12_4 C 0.9364(2) 0.80894(11) 0.7904(5)
C13_4 C 0.9340(2) 0.79340(12) 0.9933(5)
loop_
_geom_bond_atom_site_label_1
_geom_bond_atom_site_label_2
_geom_bond_site_symmetry_1
_geom_bond_site_symmetry_2
C10 C9 1_555 1_555
H9 C10 1_555 1_555
C11 C10 1_555 1_555
H10 C11 1_555 1_555
C12 C11 1_555 1_555
C13 C12 1_555 1_555
O1 C1 1_555 1_555
O2 C3 1_555 1_555
O3 C7 1_555 1_555
O4 C7 1_555 1_555
C1 C2 1_555 1_555
C2 H4 1_555 1_555
C3 C2 1_555 1_555
C4 C3 1_555 1_555
H5 C4 1_555 1_555
C5 C4 1_555 1_555
C6 C1 1_555 1_555
H6 C6 1_555 1_555
C7 C5 1_555 1_555
C8 O1 1_555 1_555
H7 C8 1_555 1_555
H12 C14 1_555 1_555
C16 O2 1_555 1_555
H13 C16 1_555 1_555
H14 C16 1_555 1_555
Zn4 O4 1_555 1_555
Zn7 O3 1_555 1_555
C5 C6 1_555 1_555
O7 C23 1_555 1_555
O8 C23 1_555 1_555
C19 C18 1_555 1_555
H16 C19 1_555 1_555
C20 C19 1_555 1_555
C23 C20 1_555 1_555
Zn3 O8 1_555 1_555
Zn5 O7 1_555 1_555
Zn1 O5 1_555 1_555
Zn4 O9 1_555 1_555
O5 C15 1_555 1_555
O6 Zn1 1_555 1_555
O9 Zn1 1_555 1_555
H1 O9 1_555 1_555
O10 Zn1 1_555 1_555
H2 O10 1_555 1_555
H3 O10 1_555 1_555
C15 O6 1_555 1_555
Zn7 O9 1_555 1_555
O11 Zn4 1_555 1_555
O13 Zn4 1_555 1_555
O14 Zn1 1_555 1_555
O15 Zn4 1_555 1_555
Zn1_2 O5_2 1_555 1_555
O5_2 C15_2 1_555 1_555
O6_2 Zn1_2 1_555 1_555
O9_2 Zn1_2 1_555 1_555
H1_2 O9_2 1_555 1_555
C15_2 O6_2 1_555 1_555
Zn6 O9_2 1_555 1_555
O14_2 Zn1_2 1_555 1_555
H2_2 O10_2 1_555 1_555
H3_2 O10_2 1_555 1_555
O11_2 Zn5 1_555 1_555
O12 Zn5 1_555 1_555
O15_2 Zn5 1_555 1_555
O2_2 C3_2 1_555 1_555
O3_2 C7_2 1_555 1_555
O13 C23_2 1_555 1_555
O8_2 C23_2 1_555 1_555
C4_2 C3_2 1_555 1_555
H5_2 C4_2 1_555 1_555
C16_2 O2_2 1_555 1_555
H13_2 C16_2 1_555 1_555
H14_2 C16_2 1_555 1_555
C17 C16_2 1_555 1_555
C18_2 C17 1_555 1_555
H15 C18_2 1_555 1_555
C19_2 C18_2 1_555 1_555
H16_2 C19_2 1_555 1_555
C20_2 C19_2 1_555 1_555
C21 C20_2 1_555 1_555
H17 C21 1_555 1_555
C22 C17 1_555 1_555
H18 C22 1_555 1_555
C23_2 C20_2 1_555 1_555
Zn3_2 O8_2 1_555 1_555
Zn6 O3_2 1_555 1_555
C21 C22 1_555 1_555
O1_2 C1_2 1_555 1_555
C1_2 C2_2 1_555 1_555
C2_2 H4_2 1_555 1_555
C6_2 C1_2 1_555 1_555
H6_2 C6_2 1_555 1_555
C8_2 O1_2 1_555 1_555
H7_2 C8_2 1_555 1_555
H8_2 C8_2 1_555 1_555
C9_2 C8_2 1_555 1_555
C10_2 C9_2 1_555 1_555
H9_2 C10_2 1_555 1_555
C11_2 C10_2 1_555 1_555
H10_2 C11_2 1_555 1_555
C12_2 C11_2 1_555 1_555
C13_2 C12_2 1_555 1_555
H11_2 C13_2 1_555 1_555
C14_2 C9_2 1_555 1_555
H12_2 C14_2 1_555 1_555
C5_2 C6_2 1_555 1_555
C13_2 C14_2 1_555 1_555
Zn3 O5_3 1_555 1_555
Zn6 O15_2 1_555 1_555
O5_3 C15_3 1_555 1_555
O6_3 Zn3 1_555 1_555
O15_2 Zn3 1_555 1_555
H1_3 O15_2 1_555 1_555
O10_3 Zn3 1_555 1_555
H2_3 O10_3 1_555 1_555
H3_3 O10_3 1_555 1_555
C15_3 O6_3 1_555 1_555
O12_2 Zn6 1_555 1_555
O13_2 Zn6 1_555 1_555
O7_2 C23_3 1_555 1_555
O14 C23_3 1_555 1_555
C19_3 C18_3 1_555 1_555
H16_3 C19_3 1_555 1_555
C20_3 C19_3 1_555 1_555
C23_3 C20_3 1_555 1_555
Zn7 O7_2 1_555 1_555
O1_3 C1_3 1_555 1_555
O2_3 C3_3 1_555 1_555
O11_2 C7_3 1_555 1_555
O12_2 C7_3 1_555 1_555
C1_3 C2_3 1_555 1_555
C2_3 H4_3 1_555 1_555
C3_3 C2_3 1_555 1_555
C4_3 C3_3 1_555 1_555
H5_3 C4_3 1_555 1_555
C5_3 C4_3 1_555 1_555
C6_3 C1_3 1_555 1_555
H6_3 C6_3 1_555 1_555
C7_3 C5_3 1_555 1_555
C8_3 O1_3 1_555 1_555
H7_3 C8_3 1_555 1_555
H12_3 C14_3 1_555 1_555
C16_3 O2_3 1_555 1_555
H13_3 C16_3 1_555 1_555
H14_3 C16_3 1_555 1_555
C5_3 C6_3 1_555 1_555
O1_4 C1_4 1_555 1_555
C1_4 C2_4 1_555 1_555
C2_4 H4_4 1_555 1_555
C6_4 C1_4 1_555 1_555
H6_4 C6_4 1_555 1_555
C8_4 O1_4 1_555 1_555
H7_4 C8_4 1_555 1_555
H8_3 C8_4 1_555 1_555
C9_3 C8_4 1_555 1_555
C10_3 C9_3 1_555 1_555
H9_3 C10_3 1_555 1_555
C11_3 C10_3 1_555 1_555
H10_3 C11_3 1_555 1_555
C12_3 C11_3 1_555 1_555
C13_3 C12_3 1_555 1_555
H11_4 C13_3 1_555 1_555
C14_4 C9_3 1_555 1_555
H12_4 C14_4 1_555 1_555
Zn7 O4_2 1_555 1_555
C5_4 C6_4 1_555 1_555
C13_3 C14_4 1_555 1_555
O2_4 C3_4 1_555 1_555
O11 C7_4 1_555 1_555
O13_2 C23_4 1_555 1_555
O14_2 C23_4 1_555 1_555
C4_4 C3_4 1_555 1_555
H5_4 C4_4 1_555 1_555
C16_4 O2_4 1_555 1_555
H13_4 C16_4 1_555 1_555
H14_4 C16_4 1_555 1_555
C17_2 C16_4 1_555 1_555
C18_4 C17_2 1_555 1_555
H15_2 C18_4 1_555 1_555
C19_4 C18_4 1_555 1_555
H16_4 C19_4 1_555 1_555
C20_4 C19_4 1_555 1_555
C21_2 C20_4 1_555 1_555
H17_2 C21_2 1_555 1_555
C22_2 C17_2 1_555 1_555
H18_2 C22_2 1_555 1_555
C23_4 C20_4 1_555 1_555
C21_2 C22_2 1_555 1_555
H2_4 O10_4 1_555 1_555
H3_4 O10_4 1_555 1_555
Zn3_2 O5_4 1_555 1_555
O5_4 C15_4 1_555 1_555
O6_4 Zn3_2 1_555 1_555
O15 Zn3_2 1_555 1_555
H1_4 O15 1_555 1_555
C15_4 O6_4 1_555 1_555
H17_3 C21_3 1_555 1_555
C22_3 C17_3 1_555 1_555
H18_3 C22_3 1_555 1_555
C21_3 C22_3 1_555 1_555
H17_4 C21_4 1_555 1_555
C22_4 C17_4 1_555 1_555
H18_4 C22_4 1_555 1_555
C21_4 C22_4 1_555 1_555
C10_4 C9_4 1_555 1_555
H9_4 C10_4 1_555 1_555
C11_4 C10_4 1_555 1_555
H10_4 C11_4 1_555 1_555
C12_4 C11_4 1_555 1_555
C13_4 C12_4 1_555 1_555

#END
