
###############################################################################
#
# This file contains modified crystal structure data generated from the
# MOF subset of the Cambridge Structural Database (CSD) v543 
# hosted by the Cambridge Crystallographic Data Centre (CCDC).
#
# This work is licensed under the Creative Commons
# Attribution-NonCommercial-ShareAlike 4.0 International License.
# To view a copy of this license, visit
# http://creativecommons.org/licenses/by-nc-sa/4.0/
# or send a letter to
# Creative Commons, PO Box 1866, Mountain View, CA 94042, USA.
#
# CIF created using the CSD Python API on 29 September 2022
# The structure has been converted into the P1 space group
# The structure has a 3D framework
# The original CSD entry LONREO is in the orthorhombic crystal system
# The framework has been calculated to contain at least 10.0% void space
# The void calculation uses a probe of radius 1.32A, grid spacing 0.4
#
###############################################################################

data_LONREO
_chemical_formula_moiety         '(C92 H64 O31 Zn4)n'
_symmetry_cell_setting           triclinic
_symmetry_space_group_name_H-M   'P 1'
_symmetry_Int_Tables_number      1
_space_group_name_Hall           'P 1'
loop_
_symmetry_equiv_pos_site_id
_symmetry_equiv_pos_as_xyz
1 x,y,z
_cell_length_a                   18.9825(12)
_cell_length_b                   24.5273(15)
_cell_length_c                   4.6807(3)
_cell_angle_alpha                90
_cell_angle_beta                 90
_cell_angle_gamma                90
_cell_volume                     2179.28
loop_
_atom_site_label
_atom_site_type_symbol
_atom_site_fract_x
_atom_site_fract_y
_atom_site_fract_z
Zn4 Zn 0.05241(3) 0.04546(2) 0.8044(3)
Zn1 Zn 0.44759(3) 0.54546(2) 0.3044(3)
O3 O 0.4334(4) 0.6215(3) 0.0229(16)
O5 O 0.0565(3) 0.9775(3) 0.1640(16)
O6 O 0.1211(4) 0.9926(3) 0.5495(16)
C8 C 0.3104(5) 0.7995(4) 0.046(3)
H5 H 0.330431 0.784496 0.224529
C9 C 0.2615(5) 0.8447(4) 0.111(3)
C11 C 0.1489(5) 0.8905(4) 0.020(2)
C12 C 0.1647(5) 0.9268(4) 0.2282(18)
C13 C 0.2275(5) 0.9246(4) 0.377(2)
H9 H 0.237756 0.951104 0.518999
C14 C 0.2760(5) 0.8833(4) 0.317(3)
H10 H 0.319214 0.881728 0.418800
C15 C 0.1108(4) 0.9695(3) 0.317(3)
O9 O 0.4960(4) 0.6032(3) 0.6323(15)
O10 O 0.4435(3) 0.4775(3) 0.6640(16)
O11 O 0.5565(3) 0.5225(3) 0.1640(16)
O12 O 0.3789(4) 0.4926(3) 0.0495(16)
O13 O 0.3384(3) 0.5717(3) 0.4943(15)
O1 O 0.3661(3) 0.8206(3) 0.8667(19)
O2 O 0.5610(3) 0.7861(3) 0.258(2)
C1 C 0.4131(5) 0.7840(4) 0.763(2)
C2 C 0.4618(5) 0.8048(4) 0.565(2)
H2 H 0.460835 0.842196 0.511538
C3 C 0.5112(4) 0.7699(4) 0.449(2)
C4 C 0.5125(5) 0.7149(4) 0.514(2)
H3 H 0.545705 0.691161 0.426620
C5 C 0.4635(5) 0.6950(4) 0.713(2)
C6 C 0.4158(5) 0.7299(4) 0.839(3)
H4 H 0.384370 0.716406 0.980659
C7 C 0.4641(4) 0.6355(3) 0.784(3)
H6 H 0.285094 0.769891 0.945115
C10 C 0.1953(5) 0.8490(4) 0.962(3)
H7 H 0.183691 0.822663 0.820503
H8 H 0.106225 0.893747 0.914686
C16 C 0.5666(6) 0.8429(4) 0.202(2)
H11 H 0.572765 0.862997 0.383988
H12 H 0.523061 0.856169 0.108813
C17 C 0.6287(5) 0.8523(4) 0.011(2)
C18 C 0.6619(5) 0.9035(4) 0.012(3)
H13 H 0.645670 0.931373 0.136377
O7 O 0.8265(3) 0.8441(2) 0.313(2)
H1 H 0.860663 0.854166 0.212197
O8 O 0.8384(3) 0.9283(3) 0.4943(15)
C19 C 0.7187(5) 0.9134(4) 0.830(3)
H14 H 0.740071 0.948423 0.828158
C20 C 0.7443(5) 0.8727(4) 0.652(2)
C21 C 0.7131(5) 0.8223(4) 0.661(2)
H15 H 0.731030 0.793851 0.543489
C22 C 0.6559(5) 0.8119(4) 0.838(3)
H16 H 0.635133 0.776613 0.838968
C23 C 0.8067(5) 0.8847(4) 0.480(2)
Zn6 Zn 0.94759(3) 0.95454(2) 0.3044(3)
O6_2 O 0.8789(4) 0.0074(3) 0.0495(16)
H9_2 H 0.762244 0.048896 0.018999
O9_2 O 0.5040(4) 0.3968(3) 0.1323(15)
Zn1_2 Zn 0.55241(3) 0.45454(2) 0.8044(3)
O1_2 O 0.6339(3) 0.1794(3) 0.3667(19)
O3_2 O 0.5666(4) 0.3785(3) 0.5229(16)
O5_2 O 0.9435(3) 0.0225(3) 0.6640(16)
C1_2 C 0.5869(5) 0.2160(4) 0.263(2)
C2_2 C 0.5382(5) 0.1952(4) 0.065(2)
H2_2 H 0.539165 0.157804 0.011538
C4_2 C 0.4875(5) 0.2851(4) 0.014(2)
C5_2 C 0.5365(5) 0.3050(4) 0.213(2)
C6_2 C 0.5842(5) 0.2701(4) 0.339(3)
H4_2 H 0.615630 0.283594 0.480659
C7_2 C 0.5359(4) 0.3645(3) 0.284(3)
C8_2 C 0.6896(5) 0.2005(4) 0.546(3)
H5_2 H 0.669569 0.215504 0.724529
H6_2 H 0.714906 0.230109 0.445115
C9_2 C 0.7385(5) 0.1553(4) 0.611(3)
C10_2 C 0.8047(5) 0.1510(4) 0.462(3)
H7_2 H 0.816309 0.177337 0.320503
C11_2 C 0.8511(5) 0.1095(4) 0.520(2)
H8_2 H 0.893775 0.106253 0.414686
C12_2 C 0.8353(5) 0.0732(4) 0.7282(18)
C13_2 C 0.7725(5) 0.0754(4) 0.877(2)
C14_2 C 0.7240(5) 0.1167(4) 0.817(3)
H10_2 H 0.680786 0.118272 0.918800
C15_2 C 0.8892(4) 0.0305(3) 0.817(3)
O12_2 O 0.6211(4) 0.5074(3) 0.5495(16)
O13_2 O 0.6616(3) 0.4283(3) 0.9943(15)
O2_2 O 0.4390(3) 0.2139(3) 0.758(2)
C3_2 C 0.4888(4) 0.2301(4) 0.949(2)
H3_2 H 0.454295 0.308839 0.926620
C16_2 C 0.4334(6) 0.1571(4) 0.702(2)
H11_2 H 0.427235 0.137003 0.883988
H12_2 H 0.476939 0.143831 0.608813
C17_2 C 0.3713(5) 0.1477(4) 0.511(2)
C18_2 C 0.3381(5) 0.0965(4) 0.512(3)
H13_2 H 0.354330 0.068627 0.636377
C19_2 C 0.2813(5) 0.0866(4) 0.330(3)
H14_2 H 0.259929 0.051577 0.328158
C20_2 C 0.2557(5) 0.1273(4) 0.152(2)
C21_2 C 0.2869(5) 0.1777(4) 0.161(2)
H15_2 H 0.268970 0.206149 0.043489
C22_2 C 0.3441(5) 0.1881(4) 0.338(3)
H16_2 H 0.364867 0.223387 0.338968
O7_2 O 0.1735(3) 0.1559(2) 0.813(2)
H1_2 H 0.139337 0.145834 0.712197
O8_2 O 0.1616(3) 0.0717(3) 0.9943(15)
C23_2 C 0.1933(5) 0.1153(4) 0.980(2)
H9_3 H 0.262244 0.451104 0.018999
O9_3 O 0.0040(4) 0.1032(3) 0.1323(15)
O1_3 O 0.1339(3) 0.3206(3) 0.3667(19)
O3_3 O 0.0666(4) 0.1215(3) 0.5229(16)
C1_3 C 0.0869(5) 0.2840(4) 0.263(2)
C2_3 C 0.0382(5) 0.3048(4) 0.065(2)
H2_3 H 0.039165 0.342196 0.011538
C5_3 C 0.0365(5) 0.1950(4) 0.213(2)
C6_3 C 0.0842(5) 0.2299(4) 0.339(3)
H4_3 H 0.115630 0.216406 0.480659
C7_3 C 0.0359(4) 0.1355(3) 0.284(3)
C8_3 C 0.1896(5) 0.2995(4) 0.546(3)
H5_3 H 0.169569 0.284496 0.724529
H6_3 H 0.214906 0.269891 0.445115
C9_3 C 0.2385(5) 0.3447(4) 0.611(3)
C10_3 C 0.3047(5) 0.3490(4) 0.462(3)
H7_3 H 0.316309 0.322663 0.320503
C11_3 C 0.3511(5) 0.3905(4) 0.520(2)
H8_3 H 0.393775 0.393747 0.414686
C12_3 C 0.3353(5) 0.4268(4) 0.7282(18)
C13_3 C 0.2725(5) 0.4246(4) 0.877(2)
C14_3 C 0.2240(5) 0.3833(4) 0.817(3)
H10_3 H 0.180786 0.381728 0.918800
C15_3 C 0.3892(4) 0.4695(3) 0.817(3)
C4_3 C 0.9875(5) 0.2149(4) 0.014(2)
O7_3 O 0.6735(3) 0.3441(2) 0.813(2)
H1_3 H 0.639337 0.354166 0.712197
C23_3 C 0.6933(5) 0.3847(4) 0.980(2)
O7_4 O 0.3265(3) 0.6559(2) 0.313(2)
H1_4 H 0.360663 0.645834 0.212197
C19_3 C 0.2187(5) 0.5866(4) 0.830(3)
H14_3 H 0.240071 0.551577 0.828158
C20_3 C 0.2443(5) 0.6273(4) 0.652(2)
C21_3 C 0.2131(5) 0.6777(4) 0.661(2)
H15_3 H 0.231030 0.706149 0.543489
C22_3 C 0.1559(5) 0.6881(4) 0.838(3)
H16_3 H 0.135133 0.723387 0.838968
C23_4 C 0.3067(5) 0.6153(4) 0.480(2)
O3_4 O 0.9334(4) 0.8785(3) 0.0229(16)
C8_4 C 0.8104(5) 0.7005(4) 0.046(3)
H5_4 H 0.830431 0.715504 0.224529
C9_4 C 0.7615(5) 0.6553(4) 0.111(3)
C11_4 C 0.6489(5) 0.6095(4) 0.020(2)
C12_4 C 0.6647(5) 0.5732(4) 0.2282(18)
C13_4 C 0.7275(5) 0.5754(4) 0.377(2)
H9_4 H 0.737756 0.548896 0.518999
C14_4 C 0.7760(5) 0.6167(4) 0.317(3)
H10_4 H 0.819214 0.618272 0.418800
C15_4 C 0.6108(4) 0.5305(3) 0.317(3)
O9_4 O 0.9960(4) 0.8968(3) 0.6323(15)
O1_4 O 0.8661(3) 0.6794(3) 0.8667(19)
C1_4 C 0.9131(5) 0.7160(4) 0.763(2)
C2_4 C 0.9618(5) 0.6952(4) 0.565(2)
H2_4 H 0.960835 0.657804 0.511538
C5_4 C 0.9635(5) 0.8050(4) 0.713(2)
C6_4 C 0.9158(5) 0.7701(4) 0.839(3)
H4_4 H 0.884370 0.783594 0.980659
C7_4 C 0.9641(4) 0.8645(3) 0.784(3)
H6_4 H 0.785094 0.730109 0.945115
C10_4 C 0.6953(5) 0.6510(4) 0.962(3)
H7_4 H 0.683691 0.677337 0.820503
H8_4 H 0.606225 0.606253 0.914686
O2_3 O 0.9390(3) 0.2861(3) 0.758(2)
C3_3 C 0.9888(4) 0.2699(4) 0.949(2)
H3_3 H 0.954295 0.191161 0.926620
C16_3 C 0.9334(6) 0.3429(4) 0.702(2)
H11_3 H 0.927235 0.362997 0.883988
H12_3 H 0.976939 0.356169 0.608813
C17_3 C 0.8713(5) 0.3523(4) 0.511(2)
C18_3 C 0.8381(5) 0.4035(4) 0.512(3)
H13_3 H 0.854330 0.431373 0.636377
C19_4 C 0.7813(5) 0.4134(4) 0.330(3)
H14_4 H 0.759929 0.448423 0.328158
C20_4 C 0.7557(5) 0.3727(4) 0.152(2)
C21_4 C 0.7869(5) 0.3223(4) 0.161(2)
H15_4 H 0.768970 0.293851 0.043489
C22_4 C 0.8441(5) 0.3119(4) 0.338(3)
H16_4 H 0.864867 0.276613 0.338968
O2_4 O 0.0610(3) 0.7139(3) 0.258(2)
C3_4 C 0.0112(4) 0.7301(4) 0.449(2)
C4_4 C 0.0125(5) 0.7851(4) 0.514(2)
H3_4 H 0.045705 0.808839 0.426620
C16_4 C 0.0666(6) 0.6571(4) 0.202(2)
H11_4 H 0.072765 0.637003 0.383988
H12_4 H 0.023061 0.643831 0.108813
C17_4 C 0.1287(5) 0.6477(4) 0.011(2)
C18_4 C 0.1619(5) 0.5965(4) 0.012(3)
H13_4 H 0.145670 0.568627 0.136377
loop_
_geom_bond_atom_site_label_1
_geom_bond_atom_site_label_2
_geom_bond_site_symmetry_1
_geom_bond_site_symmetry_2
Zn1 O3 1_555 1_555
O5 C15 1_555 1_555
O6 C15 1_555 1_555
H5 C8 1_555 1_555
C9 C8 1_555 1_555
C12 C11 1_555 1_555
C13 C12 1_555 1_555
H9 C13 1_555 1_555
C14 C9 1_555 1_555
H10 C14 1_555 1_555
C15 C12 1_555 1_555
O9 Zn1 1_555 1_555
O10 Zn1 1_555 1_555
O11 Zn1 1_555 1_555
O12 Zn1 1_555 1_555
O13 Zn1 1_555 1_555
C13 C14 1_555 1_555
O1 C1 1_555 1_555
O2 C3 1_555 1_555
O9 C7 1_555 1_555
C1 C2 1_555 1_555
C2 H2 1_555 1_555
C3 C2 1_555 1_555
C4 C3 1_555 1_555
H3 C4 1_555 1_555
C5 C4 1_555 1_555
C6 C1 1_555 1_555
H4 C6 1_555 1_555
C7 C5 1_555 1_555
H7 C10 1_555 1_555
C16 O2 1_555 1_555
H11 C16 1_555 1_555
H12 C16 1_555 1_555
C17 C16 1_555 1_555
C18 C17 1_555 1_555
H13 C18 1_555 1_555
C5 C6 1_555 1_555
O7 H1 1_555 1_555
O8 C23 1_555 1_555
H14 C19 1_555 1_555
C20 C19 1_555 1_555
C21 C20 1_555 1_555
H15 C21 1_555 1_555
H16 C22 1_555 1_555
C23 O7 1_555 1_555
Zn6 O8 1_555 1_555
C20 C23 1_555 1_555
C21 C22 1_555 1_555
Zn1_2 O3_2 1_555 1_555
O1_2 C1_2 1_555 1_555
O3_2 C7_2 1_555 1_555
O9_2 C7_2 1_555 1_555
O5_2 C15_2 1_555 1_555
C1_2 C2_2 1_555 1_555
C2_2 H2_2 1_555 1_555
C5_2 C4_2 1_555 1_555
C6_2 C1_2 1_555 1_555
H4_2 C6_2 1_555 1_555
C7_2 C5_2 1_555 1_555
C8_2 O1_2 1_555 1_555
H5_2 C8_2 1_555 1_555
H6_2 C8_2 1_555 1_555
C9_2 C8_2 1_555 1_555
C10_2 C9_2 1_555 1_555
H7_2 C10_2 1_555 1_555
C11_2 C10_2 1_555 1_555
H8_2 C11_2 1_555 1_555
C12_2 C11_2 1_555 1_555
C13_2 C12_2 1_555 1_555
C14_2 C9_2 1_555 1_555
H10_2 C14_2 1_555 1_555
C15_2 C12_2 1_555 1_555
O10 Zn1_2 1_555 1_555
O12_2 Zn1_2 1_555 1_555
O13_2 Zn1_2 1_555 1_555
C5_2 C6_2 1_555 1_555
C13_2 C14_2 1_555 1_555
O2_2 C3_2 1_555 1_555
C16_2 O2_2 1_555 1_555
H11_2 C16_2 1_555 1_555
H12_2 C16_2 1_555 1_555
C17_2 C16_2 1_555 1_555
C18_2 C17_2 1_555 1_555
H13_2 C18_2 1_555 1_555
C19_2 C18_2 1_555 1_555
H14_2 C19_2 1_555 1_555
C20_2 C19_2 1_555 1_555
C21_2 C20_2 1_555 1_555
H15_2 C21_2 1_555 1_555
C22_2 C17_2 1_555 1_555
H16_2 C22_2 1_555 1_555
C21_2 C22_2 1_555 1_555
O7_2 H1_2 1_555 1_555
O8_2 C23_2 1_555 1_555
C23_2 O7_2 1_555 1_555
Zn4 O8_2 1_555 1_555
Zn4 O3_3 1_555 1_555
O1_3 C1_3 1_555 1_555
O3_3 C7_3 1_555 1_555
O9_3 C7_3 1_555 1_555
O10 C15_3 1_555 1_555
C1_3 C2_3 1_555 1_555
C2_3 H2_3 1_555 1_555
C6_3 C1_3 1_555 1_555
H4_3 C6_3 1_555 1_555
C7_3 C5_3 1_555 1_555
C8_3 O1_3 1_555 1_555
H5_3 C8_3 1_555 1_555
H6_3 C8_3 1_555 1_555
C9_3 C8_3 1_555 1_555
C10_3 C9_3 1_555 1_555
H7_3 C10_3 1_555 1_555
C11_3 C10_3 1_555 1_555
H8_3 C11_3 1_555 1_555
C12_3 C11_3 1_555 1_555
C13_3 C12_3 1_555 1_555
C14_3 C9_3 1_555 1_555
H10_3 C14_3 1_555 1_555
C15_3 C12_3 1_555 1_555
C5_3 C6_3 1_555 1_555
C13_3 C14_3 1_555 1_555
O7_3 H1_3 1_555 1_555
O13_2 C23_3 1_555 1_555
C23_3 O7_3 1_555 1_555
O7_4 H1_4 1_555 1_555
O13 C23_4 1_555 1_555
H14_3 C19_3 1_555 1_555
C20_3 C19_3 1_555 1_555
C21_3 C20_3 1_555 1_555
H15_3 C21_3 1_555 1_555
H16_3 C22_3 1_555 1_555
C23_4 O7_4 1_555 1_555
C20_3 C23_4 1_555 1_555
C21_3 C22_3 1_555 1_555
Zn6 O3_4 1_555 1_555
O11 C15_4 1_555 1_555
O12_2 C15_4 1_555 1_555
H5_4 C8_4 1_555 1_555
C9_4 C8_4 1_555 1_555
C12_4 C11_4 1_555 1_555
C13_4 C12_4 1_555 1_555
H9_4 C13_4 1_555 1_555
C14_4 C9_4 1_555 1_555
H10_4 C14_4 1_555 1_555
C15_4 C12_4 1_555 1_555
O9_4 Zn6 1_555 1_555
C13_4 C14_4 1_555 1_555
O1_4 C1_4 1_555 1_555
O9_4 C7_4 1_555 1_555
C1_4 C2_4 1_555 1_555
C2_4 H2_4 1_555 1_555
C6_4 C1_4 1_555 1_555
H4_4 C6_4 1_555 1_555
C7_4 C5_4 1_555 1_555
H7_4 C10_4 1_555 1_555
C5_4 C6_4 1_555 1_555
O2_3 C3_3 1_555 1_555
C16_3 O2_3 1_555 1_555
H11_3 C16_3 1_555 1_555
H12_3 C16_3 1_555 1_555
C17_3 C16_3 1_555 1_555
C18_3 C17_3 1_555 1_555
H13_3 C18_3 1_555 1_555
C19_4 C18_3 1_555 1_555
H14_4 C19_4 1_555 1_555
C20_4 C19_4 1_555 1_555
C21_4 C20_4 1_555 1_555
H15_4 C21_4 1_555 1_555
C22_4 C17_3 1_555 1_555
H16_4 C22_4 1_555 1_555
C21_4 C22_4 1_555 1_555
O2_4 C3_4 1_555 1_555
C4_4 C3_4 1_555 1_555
H3_4 C4_4 1_555 1_555
C16_4 O2_4 1_555 1_555
H11_4 C16_4 1_555 1_555
H12_4 C16_4 1_555 1_555
C17_4 C16_4 1_555 1_555
C18_4 C17_4 1_555 1_555
H13_4 C18_4 1_555 1_555

#END
