
###############################################################################
#
# This file contains modified crystal structure data generated from the
# MOF subset of the Cambridge Structural Database (CSD) v543 
# hosted by the Cambridge Crystallographic Data Centre (CCDC).
#
# This work is licensed under the Creative Commons
# Attribution-NonCommercial-ShareAlike 4.0 International License.
# To view a copy of this license, visit
# http://creativecommons.org/licenses/by-nc-sa/4.0/
# or send a letter to
# Creative Commons, PO Box 1866, Mountain View, CA 94042, USA.
#
# CIF created using the CSD Python API on 29 September 2022
# The structure has been converted into the P1 space group
# The structure has a 3D framework
# The original CSD entry LOTSUL01 is in the trigonal crystal system
# The original CSD entry LOTSUL01 is in a Sohncke space group
# The framework has been calculated to contain at least 10.0% void space
# The void calculation uses a probe of radius 1.32A, grid spacing 0.4
#
###############################################################################

data_LOTSUL01
_chemical_formula_moiety         '(C30 H12 Mg2 O18)n'
_symmetry_cell_setting           triclinic
_symmetry_space_group_name_H-M   'P 1'
_symmetry_Int_Tables_number      1
_space_group_name_Hall           'P 1'
loop_
_symmetry_equiv_pos_site_id
_symmetry_equiv_pos_as_xyz
1 x,y,z
_cell_length_a                   8.867050(56)
_cell_length_b                   8.867050(56)
_cell_length_c                   10.771950(89)
_cell_angle_alpha                90
_cell_angle_beta                 90
_cell_angle_gamma                120
_cell_volume                     733.472
loop_
_atom_site_label
_atom_site_type_symbol
_atom_site_fract_x
_atom_site_fract_y
_atom_site_fract_z
_atom_site_U_iso_or_equiv
_atom_site_thermal_displace_type
O8 O 0.17144(34) 0.21125(39) 0.09924(24) 0.0177 Uiso
O9 O 0.11084(41) 0.00000(58) 0.333333 0.0177 Uiso
Mg1 Mg 0 0.96886(27) 0.166667 0.0177 Uiso
O6 O 0.19745(36) 0.89533(55) 0.13280(28) 0.0177 Uiso
O9_2 O 0.11084(41) 1.00000(58) 0.333333 0.0177 Uiso
O7 O 0.82856(34) 0.03981(52) 0.23409(24) 0.0177 Uiso
Mg4 Mg 0.96886(27) 0 0.833334 0.0177 Uiso
Mg1_2 Mg 1 0.96886(27) 0.166667 0.0177 Uiso
O1 O 0.80255(36) 0.69788(42) 0.20053(28) 0.0177 Uiso
H1 H 0.789 0.653 0.271 0.0507 Uiso
O3 O 0.88916(41) 0.88916(41) 0.000 0.0177 Uiso
C1 C 0.73883(38) 0.73883(38) 0.000 0.0177 Uiso
C2 C 0.52546(57) 0.47461(50) 0.10543(29) 0.0177 Uiso
H2 H 0.488 0.392 0.169 0.0507 Uiso
C3 C 0.26007(38) 0.26007(38) 0.000 0.0177 Uiso
C4 C 0.67733(42) 0.63824(56) 0.10667(32) 0.0177 Uiso
C5 C 0.42618(36) 0.42618(36) 0.000 0.0177 Uiso
O3_2 O 0.88916(41) 0.88916(41) 1.000 0.0177 Uiso
C1_2 C 0.73883(38) 0.73883(38) 1.000 0.0177 Uiso
C3_2 C 0.26007(38) 0.26007(38) 1.000 0.0177 Uiso
C5_2 C 0.42618(36) 0.42618(36) 1.000 0.0177 Uiso
O4 O 0.69788(42) 0.80255(36) 0.79947(28) 0.0177 Uiso
H3 H 0.653 0.789 0.729 0.0507 Uiso
O5 O 0.21125(39) 0.17144(34) 0.90076(24) 0.0177 Uiso
C6 C 0.47461(50) 0.52546(57) 0.89457(29) 0.0177 Uiso
H4 H 0.392 0.488 0.831 0.0507 Uiso
C7 C 0.63824(56) 0.67733(42) 0.89333(32) 0.0177 Uiso
Mg4_2 Mg 0.96886(27) 1 0.833334 0.0177 Uiso
Mg3 Mg 0.03114(27) 0.03114(27) 0.500000 0.0177 Uiso
C1_3 C 0.26117(38) 0.00000(54) 0.333333 0.0177 Uiso
C3_3 C 0.73993(38) 0.00000(54) 0.333333 0.0177 Uiso
C5_3 C 0.57382(36) -0.00000(51) 0.333333 0.0177 Uiso
O4_2 O 0.30212(42) 0.10467(55) 0.53386(28) 0.0177 Uiso
H3_2 H 0.347 0.136 0.604333 0.0507 Uiso
C6_2 C 0.52539(50) 0.05085(76) 0.43876(29) 0.0177 Uiso
H4_2 H 0.608 0.096 0.502333 0.0507 Uiso
C7_2 C 0.36176(56) 0.03909(70) 0.44000(32) 0.0177 Uiso
H1_2 H 0.211 0.864 0.062333 0.0507 Uiso
C1_4 C 0.26117(38) 1.00000(54) 0.333333 0.0177 Uiso
C2_2 C 0.47454(57) 0.94915(76) 0.22790(29) 0.0177 Uiso
H2_2 H 0.512 0.904 0.164333 0.0507 Uiso
C3_4 C 0.73993(38) 1.00000(54) 0.333333 0.0177 Uiso
C4_2 C 0.32267(42) 0.96091(70) 0.22666(32) 0.0177 Uiso
C5_4 C 0.57382(36) 1.00000(51) 0.333333 0.0177 Uiso
O5_2 O 0.78875(39) 0.96019(52) 0.43257(24) 0.0177 Uiso
O2 O 0.03981(52) 0.82856(34) 0.76591(24) 0.0177 Uiso
O3_3 O -0.00000(58) 0.11084(41) 0.666667 0.0177 Uiso
C1_5 C 0.00000(54) 0.26117(38) 0.666667 0.0177 Uiso
C3_5 C 0.00000(54) 0.73993(38) 0.666667 0.0177 Uiso
C5_5 C -0.00000(51) 0.57382(36) 0.666667 0.0177 Uiso
O4_3 O 0.10467(55) 0.30212(42) 0.46614(28) 0.0177 Uiso
H3_3 H 0.136 0.347 0.395667 0.0507 Uiso
C6_3 C 0.05085(76) 0.52539(50) 0.56124(29) 0.0177 Uiso
H4_3 H 0.096 0.608 0.497667 0.0507 Uiso
C7_3 C 0.03909(70) 0.36176(56) 0.56000(32) 0.0177 Uiso
O1_2 O 0.89533(55) 0.19745(36) 0.86720(28) 0.0177 Uiso
H1_3 H 0.864 0.211 0.937667 0.0507 Uiso
O3_4 O 1.00000(58) 0.11084(41) 0.666667 0.0177 Uiso
C1_6 C 1.00000(54) 0.26117(38) 0.666667 0.0177 Uiso
C2_3 C 0.94915(76) 0.47454(57) 0.77210(29) 0.0177 Uiso
H2_3 H 0.904 0.512 0.835667 0.0507 Uiso
C3_6 C 1.00000(54) 0.73993(38) 0.666667 0.0177 Uiso
C4_3 C 0.96091(70) 0.32267(42) 0.77334(32) 0.0177 Uiso
C5_6 C 1.00000(51) 0.57382(36) 0.666667 0.0177 Uiso
O5_3 O 0.96019(52) 0.78875(39) 0.56743(24) 0.0177 Uiso
loop_
_geom_bond_atom_site_label_1
_geom_bond_atom_site_label_2
_geom_bond_site_symmetry_1
_geom_bond_site_symmetry_2
O6 Mg1 1_555 1_555
O9_2 Mg1 1_555 1_555
Mg1_2 O1 1_555 1_555
O1 H1 1_555 1_555
O8 C3 1_555 1_555
O3 Mg1_2 1_555 1_555
C1 O3 1_555 1_555
C2 H2 1_555 1_555
C3 C5 1_555 1_555
C4 O1 1_555 1_555
C5 C2 1_555 1_555
C1 C4 1_555 1_555
C2 C4 1_555 1_555
C1_2 O3_2 1_555 1_555
C3_2 C5_2 1_555 1_555
O4 H3 1_555 1_555
O5 C3_2 1_555 1_555
C6 C5_2 1_555 1_555
H4 C6 1_555 1_555
C7 C1_2 1_555 1_555
Mg4_2 O3_2 1_555 1_555
O4 C7 1_555 1_555
O4 Mg4_2 1_555 1_555
C6 C7 1_555 1_555
O7 C3_3 1_555 1_555
C1_3 O9 1_555 1_555
C3_3 C5_3 1_555 1_555
O4_2 H3_2 1_555 1_555
C6_2 C5_3 1_555 1_555
H4_2 C6_2 1_555 1_555
C7_2 C1_3 1_555 1_555
Mg3 O9 1_555 1_555
O4_2 C7_2 1_555 1_555
O4_2 Mg3 1_555 1_555
C6_2 C7_2 1_555 1_555
O6 H1_2 1_555 1_555
C1_4 O9_2 1_555 1_555
C2_2 H2_2 1_555 1_555
C3_4 C5_4 1_555 1_555
C4_2 O6 1_555 1_555
C5_4 C2_2 1_555 1_555
O5_2 C3_4 1_555 1_555
C1_4 C4_2 1_555 1_555
C2_2 C4_2 1_555 1_555
O2 C3_5 1_555 1_555
C1_5 O3_3 1_555 1_555
C3_5 C5_5 1_555 1_555
O4_3 H3_3 1_555 1_555
C6_3 C5_5 1_555 1_555
H4_3 C6_3 1_555 1_555
C7_3 C1_5 1_555 1_555
Mg3 O3_3 1_555 1_555
O4_3 C7_3 1_555 1_555
O4_3 Mg3 1_555 1_555
C6_3 C7_3 1_555 1_555
Mg4 O1_2 1_555 1_555
O1_2 H1_3 1_555 1_555
O3_4 Mg4 1_555 1_555
C1_6 O3_4 1_555 1_555
C2_3 H2_3 1_555 1_555
C3_6 C5_6 1_555 1_555
C4_3 O1_2 1_555 1_555
C5_6 C2_3 1_555 1_555
O5_3 C3_6 1_555 1_555
C1_6 C4_3 1_555 1_555
C2_3 C4_3 1_555 1_555

#END
