
###############################################################################
#
# This file contains modified crystal structure data generated from the
# MOF subset of the Cambridge Structural Database (CSD) v543 
# hosted by the Cambridge Crystallographic Data Centre (CCDC).
#
# This work is licensed under the Creative Commons
# Attribution-NonCommercial-ShareAlike 4.0 International License.
# To view a copy of this license, visit
# http://creativecommons.org/licenses/by-nc-sa/4.0/
# or send a letter to
# Creative Commons, PO Box 1866, Mountain View, CA 94042, USA.
#
# CIF created using the CSD Python API on 29 September 2022
# The structure has been converted into the P1 space group
# The structure has a 3D framework
# The original CSD entry LOTTEW01 is in the trigonal crystal system
# The original CSD entry LOTTEW01 is in a Sohncke space group
# The framework has been calculated to contain at least 10.0% void space
# The void calculation uses a probe of radius 1.32A, grid spacing 0.4
#
###############################################################################

data_LOTTEW01
_chemical_formula_moiety         '(C63 H36 Mg7 O43)n'
_symmetry_cell_setting           triclinic
_symmetry_space_group_name_H-M   'P 1'
_symmetry_Int_Tables_number      1
_space_group_name_Hall           'P 1'
loop_
_symmetry_equiv_pos_site_id
_symmetry_equiv_pos_as_xyz
1 x,y,z
_cell_length_a                   15.129230(83)
_cell_length_b                   15.129230(83)
_cell_length_c                   10.278554(83)
_cell_angle_alpha                90
_cell_angle_beta                 90
_cell_angle_gamma                120
_cell_volume                     2037.49
loop_
_atom_site_label
_atom_site_type_symbol
_atom_site_fract_x
_atom_site_fract_y
_atom_site_fract_z
_atom_site_U_iso_or_equiv
_atom_site_thermal_displace_type
O1 O 0.110690 0.058906 0.093656 0.0207 Uiso
O2 O 0.141284 0.097150 0.297653 0.0207 Uiso
O3 O 0.521616 0.190590 0.313392 0.0207 Uiso
O4 O 0.592543 0.278916 0.086506 0.0207 Uiso
C1 C 0.286780 0.146773 0.159310 0.0222 Uiso
C2 C 0.350730 0.144177 0.25446 0.0222 Uiso
C3 C 0.454838 0.188687 0.230928 0.0222 Uiso
C4 C 0.494995 0.235793 0.112246 0.0222 Uiso
C5 C 0.431044 0.238389 0.017095 0.0222 Uiso
C6 C 0.326937 0.193879 0.040627 0.0222 Uiso
C7 C 0.172748 0.098020 0.185085 0.0222 Uiso
H1 H 0.322419 0.110966 0.338134 0.0507 Uiso
H3 H 0.503458 0.164796 0.383511 0.0507 Uiso
Mg6 Mg 0.67347(28) 0.30582(52) 0.24120(30) 0.0108 Uiso
Mg1 Mg 0.00517(20) 0.02286(39) 0.96046(32) 0.0108 Uiso
Mg2 Mg 0.63235(44) 0.32653(28) 0.90787(30) 0.0108 Uiso
O5 O 0.465870 0.281959 0.904219 0.0207 Uiso
H2 H 0.281850 0.195709 0.973543 0.0507 Uiso
H4 H 0.427539 0.282471 0.851008 0.0507 Uiso
O6 O 0.575790 0.205286 0.799415 0.0207 Uiso
O7 O 0.568863 0.219018 0.590709 0.0207 Uiso
C8 C 0.492219 0.048894 0.677389 0.0222 Uiso
C13 C 0.495521 0.003723 0.561109 0.0222 Uiso
C14 C 0.549030 0.164673 0.689922 0.0222 Uiso
H5 H 0.434722 0.020208 0.86421 0.0507 Uiso
H6 H 0.534416 0.046400 0.487195 0.0507 Uiso
Mg5 Mg 0.69418(52) 0.36765(44) 0.57454(30) 0.0108 Uiso
O17 O 0.668974 0.478384 0.980059 0.0207 Uiso
O18 O 0.686373 0.407457 0.753173 0.0207 Uiso
O19 O 0.780982 0.349845 0.924042 0.0207 Uiso
O24 O 0.072970 0.069815 0.788943 0.0207 Uiso
O25 O 0.091942 0.202180 0.974962 0.0207 Uiso
Mg3 Mg 0.35245(43) 0.67086(26) 0.48878(28) 0.0108 Uiso
O8 O 0.331678 0.820535 0.864761 0.0207 Uiso
O9 O 0.339299 0.737961 0.644619 0.0207 Uiso
O10 O 0.441824 0.848016 0.444939 0.0207 Uiso
C9 C 0.437050 0.988361 0.78223 0.0222 Uiso
C10 C 0.385184 0.882658 0.770784 0.0222 Uiso
C11 C 0.388486 0.837488 0.654504 0.0222 Uiso
C12 C 0.443654 0.898020 0.549666 0.0222 Uiso
H7 H 0.327490 0.842919 0.933544 0.0507 Uiso
H8 H 0.472093 0.878481 0.381223 0.0507 Uiso
Mg9 Mg 0.32914(26) 0.68159(50) 0.82211(28) 0.0108 Uiso
O20 O 0.488857 0.668322 0.531428 0.0207 Uiso
O21 O 0.398662 0.660701 0.311286 0.0207 Uiso
O22 O 0.275132 0.517892 0.557688 0.0207 Uiso
O23 O 0.225960 0.671390 0.422887 0.0207 Uiso
O14 O 0.930185 0.003155 0.122276 0.0207 Uiso
O12 O 0.445430 0.774040 0.089554 0.0207 Uiso
O15 O 0.797820 0.889762 0.308295 0.0207 Uiso
C15 C 0.623854 0.846266 0.038121 0.0222 Uiso
C18 C 0.831916 0.951056 0.100290 0.0222 Uiso
C19 C 0.759818 0.891321 0.194578 0.0222 Uiso
C20 C 0.655787 0.838927 0.163493 0.0222 Uiso
C21 C 0.510163 0.789006 0.004150 0.0222 Uiso
H10 H 0.605319 0.797112 0.229495 0.0507 Uiso
H12 H 0.760687 0.857053 0.366467 0.0507 Uiso
Mg4 Mg 0.97714(39) 0.98231(44) 0.29379(32) 0.0108 Uiso
Mg7 Mg 0.31841(50) 0.64755(43) 0.15545(28) 0.0108 Uiso
O11 O 0.482108 0.757240 0.891021 0.0207 Uiso
C16 C 0.695951 0.906001 0.943833 0.0222 Uiso
C17 C 0.799982 0.958395 0.974917 0.0222 Uiso
H9 H 0.673598 0.911138 0.856072 0.0507 Uiso
O16 O 0.955866 0.858716 0.964320 0.0207 Uiso
O12_2 O 0.328610 0.554570 0.756221 0.0207 Uiso
O13 O 0.143494 0.127740 0.559549 0.0207 Uiso
C15_2 C 0.222412 0.376146 0.704788 0.0222 Uiso
C16_2 C 0.210050 0.304049 0.610500 0.0222 Uiso
C17_2 C 0.158413 0.200018 0.641584 0.0222 Uiso
C18_2 C 0.119140 0.168084 0.766957 0.0222 Uiso
C19_2 C 0.131503 0.240182 0.861245 0.0222 Uiso
C20_2 C 0.183140 0.344213 0.830160 0.0222 Uiso
C21_2 C 0.278843 0.489837 0.670817 0.0222 Uiso
H9_2 H 0.237540 0.326402 0.522739 0.0507 Uiso
H10_2 H 0.191793 0.394681 0.896162 0.0507 Uiso
H11 H 0.164418 0.141918 0.486636 0.0507 Uiso
Mg1_2 Mg 0.01769(44) 0.99483(20) 0.62713(32) 0.0108 Uiso
O25_2 O 0.110238 0.908058 0.641628 0.0207 Uiso
O16_2 O 0.902850 0.044134 0.630986 0.0207 Uiso
O1_2 O 0.948216 0.889310 0.760323 0.0207 Uiso
O5_2 O 0.816089 0.534130 0.570886 0.0207 Uiso
C1_2 C 0.859993 0.713220 0.825977 0.0222 Uiso
C2_2 C 0.793447 0.649270 0.92113 0.0222 Uiso
C3_2 C 0.733849 0.545162 0.897595 0.0222 Uiso
C4_2 C 0.740798 0.505005 0.778913 0.0222 Uiso
C5_2 C 0.807345 0.568956 0.683762 0.0222 Uiso
C6_2 C 0.866942 0.673063 0.707294 0.0222 Uiso
C7_2 C 0.925272 0.827252 0.851752 0.0222 Uiso
H2_2 H 0.913859 0.718150 0.640210 0.0507 Uiso
H4_2 H 0.854932 0.572461 0.517675 0.0507 Uiso
O6_2 O 0.629496 0.424210 0.466082 0.0207 Uiso
O7_2 O 0.650155 0.431137 0.257376 0.0207 Uiso
O10_2 O 0.406192 0.558176 0.111606 0.0207 Uiso
C8_2 C 0.556675 0.507781 0.344056 0.0222 Uiso
C9_2 C 0.551311 0.562950 0.44890 0.0222 Uiso
C10_2 C 0.497474 0.614816 0.437451 0.0222 Uiso
C11_2 C 0.449002 0.611514 0.321171 0.0222 Uiso
C12_2 C 0.454366 0.556346 0.216333 0.0222 Uiso
C13_2 C 0.508202 0.504479 0.227776 0.0222 Uiso
C14_2 C 0.615643 0.450970 0.356589 0.0222 Uiso
H5_2 H 0.585486 0.565278 0.53088 0.0507 Uiso
H6_2 H 0.511984 0.465584 0.153862 0.0507 Uiso
H7_2 H 0.515429 0.672510 0.600211 0.0507 Uiso
H8_2 H 0.406388 0.527907 0.047890 0.0507 Uiso
O17_2 O 0.809410 0.331026 0.646725 0.0207 Uiso
O18_2 O 0.721084 0.313627 0.419839 0.0207 Uiso
O20_2 O 0.179465 0.511143 0.198094 0.0207 Uiso
O22_2 O 0.242760 0.724868 0.224354 0.0207 Uiso
O24_2 O 0.996845 0.927030 0.455609 0.0207 Uiso
O21_2 O 0.262039 0.601338 0.977952 0.0207 Uiso
C9_3 C 0.011639 0.448689 0.11556 0.0222 Uiso
C10_3 C 0.117342 0.502526 0.104117 0.0222 Uiso
H7_3 H 0.157081 0.484571 0.266877 0.0507 Uiso
O10_3 O 0.151984 0.593808 0.778272 0.0207 Uiso
C11_3 C 0.162512 0.550998 0.987837 0.0222 Uiso
C12_3 C 0.101980 0.545634 0.882999 0.0222 Uiso
H8_3 H 0.121519 0.593612 0.714556 0.0507 Uiso
C15_3 C 0.153734 0.777588 0.371454 0.0222 Uiso
C16_3 C 0.093999 0.789950 0.277166 0.0222 Uiso
C17_3 C 0.041605 0.841587 0.308250 0.0222 Uiso
C18_3 C 0.048944 0.880860 0.433623 0.0222 Uiso
C19_3 C 0.108679 0.868497 0.527911 0.0222 Uiso
C20_3 C 0.161073 0.816860 0.496826 0.0222 Uiso
C21_3 C 0.210994 0.721157 0.337483 0.0222 Uiso
H9_3 H 0.088862 0.762460 0.189405 0.0507 Uiso
H10_3 H 0.202888 0.808207 0.562828 0.0507 Uiso
H12_2 H 0.142947 0.903634 0.699800 0.0507 Uiso
O1_3 O 0.941094 0.051784 0.426989 0.0207 Uiso
O5_3 O 0.718041 0.183911 0.237552 0.0207 Uiso
C1_3 C 0.853227 0.140007 0.492643 0.0222 Uiso
C2_3 C 0.855823 0.206553 0.58779 0.0222 Uiso
C3_3 C 0.811313 0.266151 0.564261 0.0222 Uiso
C4_3 C 0.764207 0.259202 0.445579 0.0222 Uiso
C5_3 C 0.761611 0.192655 0.350428 0.0222 Uiso
C6_3 C 0.806121 0.133058 0.373960 0.0222 Uiso
C7_3 C 0.901980 0.074728 0.518418 0.0222 Uiso
H1_2 H 0.889034 0.211453 0.671467 0.0507 Uiso
H2_3 H 0.804291 0.086141 0.306876 0.0507 Uiso
H3_2 H 0.835204 0.338662 0.716844 0.0507 Uiso
H4_3 H 0.717529 0.145068 0.184341 0.0507 Uiso
O6_3 O 0.794714 0.370504 0.132748 0.0207 Uiso
C8_3 C 0.951106 0.443325 0.010722 0.0222 Uiso
C14_3 C 0.835327 0.384357 0.023255 0.0222 Uiso
H5_3 H 0.979792 0.414514 0.19754 0.0507 Uiso
C13_3 C 0.996277 0.491798 0.894442 0.0222 Uiso
H6_3 H 0.953600 0.488016 0.820528 0.0507 Uiso
O13_2 O 0.984246 0.856506 0.226215 0.0207 Uiso
H11_2 H 0.9775 0.835582 0.153302 0.0507 Uiso
O13_3 O 0.872260 0.015754 0.892882 0.0207 Uiso
H11_3 H 0.858082 0.0225 0.819969 0.0507 Uiso
H12_3 H 0.096366 0.239313 0.033134 0.0507 Uiso
H1_3 H 0.788547 0.677581 0.004801 0.0507 Uiso
H3_3 H 0.661338 0.496542 0.050178 0.0507 Uiso
loop_
_geom_bond_atom_site_label_1
_geom_bond_atom_site_label_2
_geom_bond_site_symmetry_1
_geom_bond_site_symmetry_2
O1 C7 1_555 1_555
O2 C7 1_555 1_555
O3 C3 1_555 1_555
O4 C4 1_555 1_555
C1 C2 1_555 1_555
C2 C3 1_555 1_555
C3 C4 1_555 1_555
C4 C5 1_555 1_555
C6 C1 1_555 1_555
C7 C1 1_555 1_555
H1 C2 1_555 1_555
H3 O3 1_555 1_555
Mg6 O3 1_555 1_555
O4 Mg6 1_555 1_555
C5 C6 1_555 1_555
O5 Mg2 1_555 1_555
H4 O5 1_555 1_555
O6 Mg2 1_555 1_555
O7 C14 1_555 1_555
C13 C8 1_555 1_555
C14 O6 1_555 1_555
H6 C13 1_555 1_555
Mg5 O7 1_555 1_555
O17 Mg2 1_555 1_555
O18 Mg2 1_555 1_555
O19 Mg2 1_555 1_555
O24 Mg1 1_555 1_555
O25 Mg1 1_555 1_555
C8 C14 1_555 1_555
Mg5 O18 1_555 1_555
Mg3 O9 1_555 1_555
O8 C10 1_555 1_555
O9 C11 1_555 1_555
O10 Mg3 1_555 1_555
C9 C10 1_555 1_555
C10 C11 1_555 1_555
C11 C12 1_555 1_555
C12 O10 1_555 1_555
H7 O8 1_555 1_555
H8 O10 1_555 1_555
Mg9 O8 1_555 1_555
O20 Mg3 1_555 1_555
O21 Mg3 1_555 1_555
O22 Mg3 1_555 1_555
O23 Mg3 1_555 1_555
O9 Mg9 1_555 1_555
O12 C21 1_555 1_555
O15 C19 1_555 1_555
C19 C18 1_555 1_555
C20 C15 1_555 1_555
C21 C15 1_555 1_555
H10 C20 1_555 1_555
H12 O15 1_555 1_555
Mg7 O12 1_555 1_555
O15 Mg4 1_555 1_555
C19 C20 1_555 1_555
C16 C17 1_555 1_555
H9 C16 1_555 1_555
Mg9 O11 1_555 1_555
O22 C21_2 1_555 1_555
O12_2 C21_2 1_555 1_555
O25 C19_2 1_555 1_555
C15_2 C16_2 1_555 1_555
C16_2 C17_2 1_555 1_555
C17_2 O13 1_555 1_555
C18_2 O24 1_555 1_555
C19_2 C18_2 1_555 1_555
C20_2 C15_2 1_555 1_555
C21_2 C15_2 1_555 1_555
H9_2 C16_2 1_555 1_555
H10_2 C20_2 1_555 1_555
H11 O13 1_555 1_555
Mg9 O12_2 1_555 1_555
C17_2 C18_2 1_555 1_555
C19_2 C20_2 1_555 1_555
O25_2 Mg1_2 1_555 1_555
O1_2 C7_2 1_555 1_555
O16 C7_2 1_555 1_555
O17 C3_2 1_555 1_555
O18 C4_2 1_555 1_555
O5_2 Mg5 1_555 1_555
C1_2 C2_2 1_555 1_555
C2_2 C3_2 1_555 1_555
C3_2 C4_2 1_555 1_555
C4_2 C5_2 1_555 1_555
C5_2 O5_2 1_555 1_555
C6_2 C1_2 1_555 1_555
C7_2 C1_2 1_555 1_555
H2_2 C6_2 1_555 1_555
H4_2 O5_2 1_555 1_555
Mg7 O21 1_555 1_555
O6_2 Mg5 1_555 1_555
O7_2 C14_2 1_555 1_555
O20 C10_2 1_555 1_555
O21 C11_2 1_555 1_555
O10_2 Mg7 1_555 1_555
C8_2 C9_2 1_555 1_555
C9_2 C10_2 1_555 1_555
C10_2 C11_2 1_555 1_555
C11_2 C12_2 1_555 1_555
C12_2 O10_2 1_555 1_555
C13_2 C8_2 1_555 1_555
C14_2 O6_2 1_555 1_555
H5_2 C9_2 1_555 1_555
H6_2 C13_2 1_555 1_555
H7_2 O20 1_555 1_555
H8_2 O10_2 1_555 1_555
Mg6 O7_2 1_555 1_555
O17_2 Mg5 1_555 1_555
O18_2 Mg5 1_555 1_555
O20_2 Mg7 1_555 1_555
O22_2 Mg7 1_555 1_555
C5_2 C6_2 1_555 1_555
C8_2 C14_2 1_555 1_555
C12_2 C13_2 1_555 1_555
Mg6 O18_2 1_555 1_555
O20_2 C10_3 1_555 1_555
C9_3 C10_3 1_555 1_555
H7_3 O20_2 1_555 1_555
Mg9 O21_2 1_555 1_555
O21_2 C11_3 1_555 1_555
O10_3 Mg9 1_555 1_555
C11_3 C12_3 1_555 1_555
C12_3 O10_3 1_555 1_555
H8_3 O10_3 1_555 1_555
O22_2 C21_3 1_555 1_555
O23 C21_3 1_555 1_555
O25_2 C19_3 1_555 1_555
C15_3 C16_3 1_555 1_555
C16_3 C17_3 1_555 1_555
C19_3 C18_3 1_555 1_555
C20_3 C15_3 1_555 1_555
C21_3 C15_3 1_555 1_555
H9_3 C16_3 1_555 1_555
H10_3 C20_3 1_555 1_555
H12_2 O25_2 1_555 1_555
C17_3 C18_3 1_555 1_555
C19_3 C20_3 1_555 1_555
O1_3 C7_3 1_555 1_555
O16_2 C7_3 1_555 1_555
O17_2 C3_3 1_555 1_555
O18_2 C4_3 1_555 1_555
O5_3 Mg6 1_555 1_555
C1_3 C2_3 1_555 1_555
C2_3 C3_3 1_555 1_555
C3_3 C4_3 1_555 1_555
C4_3 C5_3 1_555 1_555
C5_3 O5_3 1_555 1_555
C6_3 C1_3 1_555 1_555
C7_3 C1_3 1_555 1_555
H1_2 C2_3 1_555 1_555
H2_3 C6_3 1_555 1_555
H3_2 O17_2 1_555 1_555
H4_3 O5_3 1_555 1_555
O6_3 Mg6 1_555 1_555
C14_3 O6_3 1_555 1_555
C5_3 C6_3 1_555 1_555
C8_3 C14_3 1_555 1_555
H6_3 C13_3 1_555 1_555
O13_2 Mg4 1_555 1_555
O24_2 Mg4 1_555 1_555
H11_2 O13_2 1_555 1_555
H11_3 O13_3 1_555 1_555

#END
