
###############################################################################
#
# This file contains modified crystal structure data generated from the
# MOF subset of the Cambridge Structural Database (CSD) v543 
# hosted by the Cambridge Crystallographic Data Centre (CCDC).
#
# This work is licensed under the Creative Commons
# Attribution-NonCommercial-ShareAlike 4.0 International License.
# To view a copy of this license, visit
# http://creativecommons.org/licenses/by-nc-sa/4.0/
# or send a letter to
# Creative Commons, PO Box 1866, Mountain View, CA 94042, USA.
#
# CIF created using the CSD Python API on 29 September 2022
# The structure has been converted into the P1 space group
# The structure has a 3D framework
# The original CSD entry LOWCEH is in the monoclinic crystal system
# The framework has been calculated to contain at least 10.0% void space
# The void calculation uses a probe of radius 1.32A, grid spacing 0.4
# The framework is charged, counterions have been retained in the structure
#
###############################################################################

data_LOWCEH
_chemical_formula_moiety         '(C40 H24 Ag2 Co2 N24 O20)n'
_symmetry_cell_setting           triclinic
_symmetry_space_group_name_H-M   'P 1'
_symmetry_Int_Tables_number      1
_space_group_name_Hall           'P 1'
loop_
_symmetry_equiv_pos_site_id
_symmetry_equiv_pos_as_xyz
1 x,y,z
_cell_length_a                   9.3678(4)
_cell_length_b                   13.6094(6)
_cell_length_c                   10.1421(4)
_cell_angle_alpha                90
_cell_angle_beta                 90.273(2)
_cell_angle_gamma                90
_cell_volume                     1293
loop_
_atom_site_label
_atom_site_type_symbol
_atom_site_fract_x
_atom_site_fract_y
_atom_site_fract_z
Ag1 Ag 0.38016(6) 0.7500 0.13155(6)
N2 N 0.2851(8) 0.5880(4) 0.2293(6)
N3 N 0.5321(8) 0.7500 0.3091(8)
C1 C 0.1789(8) 0.5592(5) 0.3022(8)
C2 C 0.3638(9) 0.5167(5) 0.1744(7)
C3 C 0.1491(7) 0.4612(5) 0.3268(7)
H1 H 0.1190 0.6077 0.3403
C4 C 0.3349(7) 0.4190(4) 0.1934(6)
H2 H 0.4423 0.5345 0.1206
N4 N 0.2281(5) 0.3913(3) 0.2741(5)
H3 H 0.0712 0.4442 0.3820
C5 C 0.4168(6) 0.3388(4) 0.1301(5)
Co1 Co 0.21231(10) 0.2500 0.28979(10)
N5 N 0.3638(6) 0.2500 0.1698(6)
N6 N 0.0599(7) 0.2500 0.4140(7)
N7 N 0.3312(7) 0.2500 0.4456(7)
N8 N 0.0604(7) 0.2500 0.1623(7)
C7 C 0.0961(7) 0.2500 0.5442(8)
C8 C 0.2556(9) 0.2500 0.5587(9)
C9 C 0.4743(9) 0.2500 0.4532(8)
C11 C 0.0708(9) 0.2500 0.0315(9)
O3 O 0.0180(5) 0.2500 0.6389(5)
C12 C 0.3232(10) 0.2500 0.6797(9)
C13 C 0.5396(10) 0.2500 0.5783(9)
H4 H 0.5304 0.2500 0.3755
H6 H 0.2672 0.2500 0.7575
H7 H 0.6409 0.2500 0.5824
N9 N 0.2851(8) 0.9120(4) 0.2293(6)
O5 O 0.5161(5) 0.3548(3) 0.0555(5)
N10 N 0.2281(5) 0.1087(3) 0.2741(5)
C16 C 0.4168(6) 0.1612(4) 0.1301(5)
C17 C 0.1491(7) 0.0388(5) 0.3268(7)
C18 C 0.3349(7) 0.0810(4) 0.1934(6)
O6 O 0.5161(5) 0.1452(3) 0.0555(5)
H10 H 0.0712 0.0558 0.3820
N12 N 0.4679(8) 0.2500 0.6909(8)
Ag5 Ag 0.61984(6) 0.2500 0.86845(6)
N1 N 0.1814(8) 0.7500 0.9943(8)
O1 O 0.4839(5) 0.8548(3) 0.9445(5)
H5 H 0.1621 0.2500 0.9910
O4 O 0.4839(5) 0.6452(3) 0.9445(5)
C19 C 0.1789(8) 0.9408(5) 0.3022(8)
C20 C 0.3638(9) 0.9833(5) 0.1744(7)
H11 H 0.1190 0.8923 0.3403
H12 H 0.4423 0.9655 0.1206
C6 C 0.9252(8) 0.2500 0.3636(7)
C10 C 0.9287(8) 0.2500 0.2161(8)
O2 O 0.8138(6) 0.2500 0.4250(6)
C14 C 0.8117(10) 0.2500 0.1385(9)
H8 H 0.7205 0.2500 0.1790
N13 N 0.8186(8) 0.2500 0.0057(8)
C15 C 0.9490(9) 0.2500 0.9548(10)
H9 H 0.9587 0.2500 0.8616
C15_2 C 0.0510(9) 0.7500 0.0452(10)
H9_2 H 0.0413 0.7500 0.1384
C6_2 C 0.0748(8) 0.7500 0.6364(7)
C10_2 C 0.0713(8) 0.7500 0.7839(8)
O2_2 O 0.1862(6) 0.7500 0.5750(6)
C14_2 C 0.1883(10) 0.7500 0.8615(9)
H8_2 H 0.2795 0.7500 0.8210
N2_2 N 0.7149(8) 0.0880(4) 0.7707(6)
C1_2 C 0.8211(8) 0.0592(5) 0.6978(8)
C2_2 C 0.6362(9) 0.0167(5) 0.8256(7)
H1_2 H 0.8810 0.1077 0.6597
H2_2 H 0.5577 0.0345 0.8794
N9_2 N 0.7149(8) 0.4120(4) 0.7707(6)
H5_2 H 0.8379 0.7500 0.0090
C3_2 C 0.8509(7) 0.9612(5) 0.6732(7)
C4_2 C 0.6651(7) 0.9190(4) 0.8066(6)
N4_2 N 0.7719(5) 0.8913(3) 0.7259(5)
H3_2 H 0.9288 0.9442 0.6180
C5_2 C 0.5832(6) 0.8388(4) 0.8699(5)
Co1_2 Co 0.78769(10) 0.7500 0.71021(10)
N5_2 N 0.6362(6) 0.7500 0.8302(6)
N6_2 N 0.9401(7) 0.7500 0.5860(7)
N7_2 N 0.6688(7) 0.7500 0.5544(7)
N8_2 N 0.9396(7) 0.7500 0.8377(7)
C7_2 C 0.9039(7) 0.7500 0.4558(8)
C8_2 C 0.7444(9) 0.7500 0.4413(9)
C9_2 C 0.5257(9) 0.7500 0.5468(8)
C11_2 C 0.9292(9) 0.7500 0.9685(9)
O3_2 O 0.9820(5) 0.7500 0.3611(5)
C12_2 C 0.6768(10) 0.7500 0.3203(9)
C13_2 C 0.4604(10) 0.7500 0.4217(9)
H4_2 H 0.4696 0.7500 0.6245
H6_2 H 0.7328 0.7500 0.2425
H7_2 H 0.3591 0.7500 0.4176
N10_2 N 0.7719(5) 0.6087(3) 0.7259(5)
C16_2 C 0.5832(6) 0.6612(4) 0.8699(5)
C17_2 C 0.8509(7) 0.5388(5) 0.6732(7)
C18_2 C 0.6651(7) 0.5810(4) 0.8066(6)
C19_2 C 0.8211(8) 0.4408(5) 0.6978(8)
H10_2 H 0.9288 0.5558 0.6180
C20_2 C 0.6362(9) 0.4833(5) 0.8256(7)
H11_2 H 0.8810 0.3923 0.6597
H12_2 H 0.5577 0.4655 0.8794
N14 N 0.6823(11) 0.0161(8) 0.3860(11)
O9 O 0.6242(13) 0.0722(9) 0.3045(13)
O7 O 0.6046(14) 0.9873(11) 0.4814(12)
O8 O 0.8139(11) 0.9941(9) 0.3752(12)
N14_2 N 0.3177(11) 0.5161(8) 0.6140(11)
O7_2 O 0.3954(14) 0.4873(11) 0.5186(12)
O8_2 O 0.1861(11) 0.4941(9) 0.6248(12)
O9_2 O 0.3758(13) 0.5722(9) 0.6955(13)
O7_3 O 0.3954(14) 0.0127(11) 0.5186(12)
O8_3 O 0.1861(11) 0.0059(9) 0.6248(12)
N14_3 N 0.3177(11) 0.9839(8) 0.6140(11)
O9_3 O 0.3758(13) 0.9278(9) 0.6955(13)
N14_4 N 0.6823(11) 0.4839(8) 0.3860(11)
O7_4 O 0.6046(14) 0.5127(11) 0.4814(12)
O8_4 O 0.8139(11) 0.5059(9) 0.3752(12)
O9_4 O 0.6242(13) 0.4278(9) 0.3045(13)
loop_
_geom_bond_atom_site_label_1
_geom_bond_atom_site_label_2
_geom_bond_site_symmetry_1
_geom_bond_site_symmetry_2
N2 Ag1 1_555 1_555
N3 Ag1 1_555 1_555
C1 N2 1_555 1_555
C2 N2 1_555 1_555
C3 C1 1_555 1_555
H1 C1 1_555 1_555
C4 C2 1_555 1_555
H2 C2 1_555 1_555
N4 C3 1_555 1_555
H3 C3 1_555 1_555
C5 C4 1_555 1_555
Co1 N4 1_555 1_555
N5 C5 1_555 1_555
N6 Co1 1_555 1_555
N7 Co1 1_555 1_555
N8 Co1 1_555 1_555
C7 N6 1_555 1_555
C8 N7 1_555 1_555
C9 N7 1_555 1_555
C11 N8 1_555 1_555
O3 C7 1_555 1_555
C12 C8 1_555 1_555
C13 C9 1_555 1_555
H4 C9 1_555 1_555
H6 C12 1_555 1_555
H7 C13 1_555 1_555
N9 Ag1 1_555 1_555
O5 C5 1_555 1_555
N10 Co1 1_555 1_555
C16 N5 1_555 1_555
C17 N10 1_555 1_555
C18 N10 1_555 1_555
H10 C17 1_555 1_555
N12 C12 1_555 1_555
Ag5 N12 1_555 1_555
C4 N4 1_555 1_555
Co1 N5 1_555 1_555
C7 C8 1_555 1_555
C13 N12 1_555 1_555
C16 C18 1_555 1_555
C16 O6 1_555 1_555
H11 C19 1_555 1_555
N9 C19 1_555 1_555
H12 C20 1_555 1_555
C20 N9 1_555 1_555
O2 C6 1_555 1_555
C14 C10 1_555 1_555
H8 C14 1_555 1_555
N13 C14 1_555 1_555
C6 C10 1_555 1_555
H9 C15 1_555 1_555
H9_2 C15_2 1_555 1_555
O2_2 C6_2 1_555 1_555
C14_2 C10_2 1_555 1_555
H8_2 C14_2 1_555 1_555
N1 C14_2 1_555 1_555
C6_2 C10_2 1_555 1_555
N2_2 Ag5 1_555 1_555
C1_2 N2_2 1_555 1_555
C2_2 N2_2 1_555 1_555
H1_2 C1_2 1_555 1_555
H2_2 C2_2 1_555 1_555
N9_2 Ag5 1_555 1_555
N4_2 C3_2 1_555 1_555
H3_2 C3_2 1_555 1_555
C5_2 C4_2 1_555 1_555
Co1_2 N4_2 1_555 1_555
N5_2 C5_2 1_555 1_555
N6_2 Co1_2 1_555 1_555
N7_2 Co1_2 1_555 1_555
N8_2 Co1_2 1_555 1_555
C7_2 N6_2 1_555 1_555
C8_2 N7_2 1_555 1_555
C9_2 N7_2 1_555 1_555
C11_2 N8_2 1_555 1_555
O3_2 C7_2 1_555 1_555
C12_2 C8_2 1_555 1_555
C13_2 C9_2 1_555 1_555
H4_2 C9_2 1_555 1_555
H6_2 C12_2 1_555 1_555
H7_2 C13_2 1_555 1_555
O1 C5_2 1_555 1_555
N10_2 Co1_2 1_555 1_555
C16_2 N5_2 1_555 1_555
C17_2 N10_2 1_555 1_555
C18_2 N10_2 1_555 1_555
C19_2 C17_2 1_555 1_555
H10_2 C17_2 1_555 1_555
C20_2 C18_2 1_555 1_555
H11_2 C19_2 1_555 1_555
N9_2 C19_2 1_555 1_555
H12_2 C20_2 1_555 1_555
N3 C12_2 1_555 1_555
C4_2 N4_2 1_555 1_555
Co1_2 N5_2 1_555 1_555
C7_2 C8_2 1_555 1_555
C13_2 N3 1_555 1_555
C16_2 C18_2 1_555 1_555
C16_2 O4 1_555 1_555
C20_2 N9_2 1_555 1_555
O9 N14 1_555 1_555
N14_2 O7_2 1_555 1_555
O8_2 N14_2 1_555 1_555
O9_2 N14_2 1_555 1_555
O9_3 N14_3 1_555 1_555
N14_4 O7_4 1_555 1_555
O8_4 N14_4 1_555 1_555
O9_4 N14_4 1_555 1_555

#END
