
###############################################################################
#
# This file contains modified crystal structure data generated from the
# MOF subset of the Cambridge Structural Database (CSD) v543 
# hosted by the Cambridge Crystallographic Data Centre (CCDC).
#
# This work is licensed under the Creative Commons
# Attribution-NonCommercial-ShareAlike 4.0 International License.
# To view a copy of this license, visit
# http://creativecommons.org/licenses/by-nc-sa/4.0/
# or send a letter to
# Creative Commons, PO Box 1866, Mountain View, CA 94042, USA.
#
# CIF created using the CSD Python API on 29 September 2022
# The structure has been converted into the P1 space group
# The structure has a 3D framework
# The original CSD entry LUDVAH is in the triclinic crystal system
# The framework has been calculated to contain at least 10.0% void space
# The void calculation uses a probe of radius 1.32A, grid spacing 0.4
#
###############################################################################

data_LUDVAH
_chemical_formula_moiety         '(C144 H96 I24 N48 Zn12)n'
_symmetry_cell_setting           triclinic
_symmetry_space_group_name_H-M   'P 1'
_symmetry_Int_Tables_number      1
_space_group_name_Hall           'P 1'
loop_
_symmetry_equiv_pos_site_id
_symmetry_equiv_pos_as_xyz
1 x,y,z
_cell_length_a                   14.297(3)
_cell_length_b                   17.164(3)
_cell_length_c                   27.333(5)
_cell_angle_alpha                89.970(5)
_cell_angle_beta                 77.104(4)
_cell_angle_gamma                74.591(4)
_cell_volume                     6290.8
loop_
_atom_site_label
_atom_site_type_symbol
_atom_site_fract_x
_atom_site_fract_y
_atom_site_fract_z
I5 I 0.0273(14) 0.4324(17) 0.5737(6)
Zn5 Zn 0.1799(3) 0.04578(19) 0.27999(13)
I9 I 0.0840(3) 0.17664(13) 0.25151(10)
I10 I 0.36126(18) 0.02559(13) 0.27871(8)
N24 N 0.0962(18) 0.0314(15) 0.3524(9)
C68 C 0.005(2) 0.0709(16) 0.3670(13)
I2 I 0.60456(15) 0.36198(11) 0.00611(8)
N1 N 0.3051(13) 0.0036(12) 0.0013(7)
C2 C 0.3616(16) 0.0249(14) 0.0304(10)
N5 N 0.4091(15) 0.2558(11) 0.0076(7)
C9 C 0.439(2) 0.2126(15) 0.0431(11)
H5 H 0.4698 0.2355 0.0639
C10 C 0.430(2) 0.1325(15) 0.0528(10)
H6 H 0.4516 0.1032 0.0786
C11 C 0.3839(15) 0.1030(14) 0.0200(9)
N13 N 0.1485(16) 0.6764(12) 0.1854(7)
N15 N 0.0239(17) 0.6067(12) 0.1784(8)
C37 C 0.118(2) 0.6089(14) 0.1705(9)
C38 C 0.0760(19) 0.7328(14) 0.2125(10)
N16 N 0.3317(15) 0.4356(11) 0.0627(7)
C40 C 0.239(2) 0.4314(16) 0.0786(11)
H25 H 0.2200 0.3890 0.0660
C41 C 0.171(2) 0.4867(16) 0.1122(10)
H26 H 0.1049 0.4844 0.1210
C42 C 0.1982(18) 0.5448(13) 0.1331(9)
C43 C 0.2955(16) 0.5447(14) 0.1229(8)
H27 H 0.3156 0.5818 0.1400
C44 C 0.3648(19) 0.4895(15) 0.0870(10)
H28 H 0.4318 0.4887 0.0795
N17 N 0.1505(18) 0.9408(12) 0.2526(8)
C45 C 0.054(3) 0.949(2) 0.250(2)
H29 H 0.0071 0.9992 0.2545
C46 C 0.033(2) 0.8804(18) 0.2410(16)
C47 C 0.1051(19) 0.8055(15) 0.2291(10)
C48 C 0.1991(19) 0.8021(16) 0.2274(9)
H31 H 0.2516 0.7557 0.2170
C49 C 0.211(2) 0.8750(17) 0.2428(11)
H32 H 0.2752 0.8734 0.2460
H41 H 0.0591 0.6451 0.5666
H42 H 0.0088 0.7472 0.5125
C71 C 0.0720(18) 0.9423(16) 0.4185(10)
H47 H 0.0996 0.8993 0.4362
C72 C 0.125(2) 0.9687(14) 0.3776(11)
H48 H 0.1911 0.9380 0.3661
Zn1 Zn 0.4292(2) 0.37255(17) 0.99867(12)
I1 I 0.35722(18) 0.42895(12) 0.92498(8)
H2 H 0.1773 0.0143 0.9518
C12 C 0.353(2) 0.1494(15) 0.9836(10)
H7 H 0.3206 0.1292 0.9628
C13 C 0.3672(19) 0.2236(16) 0.9761(10)
H8 H 0.3482 0.2522 0.9494
Zn2 Zn 0.5016(2) 0.69155(18) 0.24291(12)
I3 I 0.41368(17) 0.78062(13) 0.32314(8)
I4 I 0.47517(16) 0.55379(11) 0.22785(8)
N2 N 0.3982(15) 0.9808(12) 0.0637(7)
N3 N 0.3167(15) 0.8868(11) 0.0410(7)
C1 C 0.2802(18) 0.9355(14) 0.0095(9)
C3 C 0.374(2) 0.9094(15) 0.0690(9)
N6 N 0.4705(14) 0.7606(11) 0.1820(7)
C14 C 0.4312(18) 0.7373(15) 0.1473(9)
H9 H 0.4216 0.6858 0.1483
C15 C 0.404(2) 0.7849(16) 0.1101(10)
H10 H 0.3799 0.7637 0.0856
C16 C 0.4107(18) 0.8619(14) 0.1078(9)
C17 C 0.456(2) 0.8853(16) 0.1427(9)
H11 H 0.4702 0.9353 0.1413
C18 C 0.4801(16) 0.8360(14) 0.1785(9)
H12 H 0.5054 0.8556 0.2029
N25 N 0.6492(15) 0.6782(12) 0.2357(7)
Zn3 Zn 0.9335(3) 0.5589(3) 0.64221(15)
Zn6 Zn 0.3011(3) 0.2092(3) 0.5636(2)
I6 I 0.96044(15) 0.55173(12) 0.73117(8)
I11 I 0.1915(4) 0.1493(10) 0.6112(7)
I12 I 0.2987(6) 0.2872(8) 0.4709(3)
N4 N 0.0842(14) 0.8697(13) 0.9342(8)
C4 C 0.097(3) 0.9410(19) 0.9356(12)
H1 H 0.0575 0.9811 0.9205
C5 C 0.166(3) 0.964(2) 0.9576(12)
C6 C 0.213(2) 0.9174(16) 0.9850(10)
C7 C 0.198(2) 0.8366(18) 0.9829(10)
H3 H 0.2331 0.7958 0.9994
C8 C 0.134(2) 0.8196(17) 0.9575(14)
H4 H 0.1270 0.7673 0.9576
N7 N 0.4597(16) 0.5208(13) 0.6501(8)
N8 N 0.2948(16) 0.5563(13) 0.7017(7)
N9 N 0.4106(14) 0.6350(11) 0.7111(7)
C19 C 0.4765(15) 0.5782(12) 0.6712(8)
C20 C 0.3200(18) 0.6213(14) 0.7225(10)
C21 C 0.372(2) 0.5118(15) 0.6679(10)
N10 N 0.7797(14) 0.5777(13) 0.6503(9)
C22 C 0.744(2) 0.546(2) 0.6145(10)
H13 H 0.7889 0.5209 0.5851
C23 C 0.645(2) 0.549(2) 0.6198(11)
H14 H 0.6239 0.5242 0.5956
C24 C 0.5771(18) 0.5908(18) 0.6641(10)
C25 C 0.6131(19) 0.6228(16) 0.6984(9)
H15 H 0.5703 0.6496 0.7279
C26 C 0.7119(19) 0.6154(16) 0.6897(9)
H16 H 0.7339 0.6394 0.7138
N11 N 0.3260(18) 0.3034(15) 0.6009(9)
C27 C 0.406(2) 0.319(2) 0.5917(14)
H17 H 0.4587 0.2815 0.5707
C28 C 0.427(2) 0.3877(18) 0.6091(13)
H18 H 0.4876 0.3987 0.5973
C29 C 0.3521(17) 0.4374(16) 0.6444(10)
C30 C 0.264(2) 0.4231(16) 0.6559(11)
H19 H 0.2111 0.4593 0.6781
C31 C 0.2471(19) 0.3535(16) 0.6350(10)
H20 H 0.1856 0.3423 0.6439
N12 N 0.0944(15) 0.7744(11) 0.8359(8)
C32 C 0.0846(18) 0.7095(13) 0.8144(9)
H21 H 0.0221 0.6999 0.8227
C33 C 0.1557(16) 0.6567(15) 0.7822(10)
H22 H 0.1465 0.6070 0.7742
C34 C 0.2380(15) 0.6738(12) 0.7616(8)
C35 C 0.2505(18) 0.7454(14) 0.7788(10)
H23 H 0.3074 0.7612 0.7644
C36 C 0.179(2) 0.7934(14) 0.8172(9)
H24 H 0.1898 0.8395 0.8300
N26 N 0.9266(14) 0.6668(17) 0.6131(10)
N27 N 0.449(2) 0.1359(18) 0.5444(16)
N21 N 0.8063(16) 0.0110(11) 0.4846(9)
C58 C 0.508(3) 0.124(2) 0.5026(17)
H37 H 0.4859 0.1447 0.4746
C59 C 0.604(2) 0.0797(19) 0.4972(16)
H38 H 0.6472 0.0787 0.4660
C60 C 0.6420(19) 0.0383(14) 0.5320(11)
C61 C 0.576(2) 0.039(2) 0.5762(14)
H39 H 0.5974 0.0073 0.6012
C62 C 0.477(3) 0.087(2) 0.5857(16)
H40 H 0.4313 0.0881 0.6161
H45 H 0.9808 0.1119 0.3472
C69 C 0.943(2) 0.0594(15) 0.4068(12)
H46 H 0.8821 0.0978 0.4188
N14 N 0.9793(16) 0.7353(12) 0.2244(8)
C39 C 0.9557(19) 0.6712(14) 0.2053(9)
H30 H 0.9669 0.8821 0.2427
C50 C 0.6849(19) 0.7384(15) 0.2537(9)
H33 H 0.6391 0.7827 0.2729
C51 C 0.7800(18) 0.7354(15) 0.2447(10)
H34 H 0.7983 0.7782 0.2571
C52 C 0.8525(17) 0.6728(13) 0.2181(8)
C53 C 0.822(2) 0.6073(16) 0.1980(11)
H35 H 0.8682 0.5609 0.1810
C54 C 0.7227(18) 0.6192(17) 0.2060(10)
H36 H 0.7019 0.5825 0.1890
N19 N 0.7725(16) 0.9315(13) 0.5529(9)
N20 N 0.9293(15) 0.8991(13) 0.4999(8)
C55 C 0.7442(19) 0.9925(16) 0.5244(10)
C56 C 0.8607(18) 0.8873(17) 0.5389(10)
C57 C 0.902(2) 0.9664(16) 0.4747(10)
C63 C 0.995(3) 0.680(3) 0.574(2)
C64 C 0.972(3) 0.748(3) 0.5451(13)
C65 C 0.8929(19) 0.8144(19) 0.5650(12)
C66 C 0.840(2) 0.803(2) 0.6128(11)
H43 H 0.7910 0.8464 0.6307
C67 C 0.858(3) 0.734(2) 0.6329(11)
H44 H 0.8180 0.7316 0.6645
C70 C 0.969(2) 0.9871(16) 0.4318(9)
Zn4 Zn 0.9858(2) 0.84303(19) 0.89533(12)
I7 I 0.88882(17) 0.97777(14) 0.87185(9)
I8 I 0.90106(17) 0.74537(15) 0.94358(8)
Zn4_2 Zn 0.0142(2) 0.15697(19) 0.10467(12)
I7_2 I 0.11118(17) 0.02223(14) 0.12815(9)
I8_2 I 0.09894(17) 0.25463(15) 0.05642(8)
N14_2 N 0.0207(16) 0.2647(12) 0.7756(8)
C39_2 C 0.0443(19) 0.3288(14) 0.7947(9)
H30_2 H 0.0331 0.1179 0.7573
N18 N 0.3508(15) 0.3218(12) 0.7643(7)
C50_2 C 0.3151(19) 0.2616(15) 0.7463(9)
H33_2 H 0.3609 0.2173 0.7271
C51_2 C 0.2200(18) 0.2646(15) 0.7553(10)
H34_2 H 0.2017 0.2218 0.7429
C52_2 C 0.1475(17) 0.3272(13) 0.7819(8)
C53_2 C 0.178(2) 0.3927(16) 0.8020(11)
H35_2 H 0.1318 0.4391 0.8190
C54_2 C 0.2773(18) 0.3808(17) 0.7940(10)
H36_2 H 0.2981 0.4175 0.8110
N19_2 N 0.2275(16) 0.0685(13) 0.4471(9)
N20_2 N 0.0707(15) 0.1009(13) 0.5001(8)
C55_2 C 0.2558(19) 0.0075(16) 0.4756(10)
C56_2 C 0.1393(18) 0.1127(17) 0.4611(10)
C57_2 C 0.098(2) 0.0336(16) 0.5253(10)
N23 N 0.0734(14) 0.3332(17) 0.3869(10)
C63_2 C 0.005(3) 0.320(3) 0.426(2)
C64_2 C 0.028(3) 0.252(3) 0.4549(13)
C65_2 C 0.1071(19) 0.1856(19) 0.4350(12)
C66_2 C 0.160(2) 0.197(2) 0.3872(11)
H43_2 H 0.2090 0.1536 0.3693
C67_2 C 0.142(3) 0.266(2) 0.3671(11)
H44_2 H 0.1820 0.2684 0.3355
C70_2 C 0.031(2) 0.0129(16) 0.5682(9)
Zn7 Zn 0.4984(2) 0.30845(18) 0.75709(12)
Zn9 Zn 0.0665(3) 0.4411(3) 0.35779(15)
N21_2 N 0.1937(16) 0.9890(11) 0.5154(9)
N22 N 0.551(2) 0.8641(18) 0.4556(16)
C58_2 C 0.492(3) 0.876(2) 0.4974(17)
H37_2 H 0.5141 0.8553 0.5254
C59_2 C 0.396(2) 0.9203(19) 0.5028(16)
H38_2 H 0.3528 0.9213 0.5340
C60_2 C 0.3580(19) 0.9617(14) 0.4680(11)
C61_2 C 0.424(2) 0.961(2) 0.4238(14)
H39_2 H 0.4026 0.9927 0.3988
C62_2 C 0.523(3) 0.913(2) 0.4143(16)
H40_2 H 0.5687 0.9119 0.3839
H45_2 H 0.0192 0.8881 0.6528
C69_2 C 0.057(2) 0.9406(15) 0.5932(12)
H46_2 H 0.1179 0.9022 0.5812
Zn8 Zn 0.6989(3) 0.7908(3) 0.4364(2)
I6_2 I 0.03956(15) 0.44827(12) 0.26883(8)
I11_2 I 0.8085(4) 0.8507(10) 0.3888(7)
I12_2 I 0.7013(6) 0.7128(8) 0.5291(3)
N4_2 N 0.9158(14) 0.1303(13) 0.0658(8)
C4_2 C 0.903(3) 0.0590(19) 0.0644(12)
H1_2 H 0.9425 0.0189 0.0795
C5_2 C 0.834(3) 0.036(2) 0.0424(12)
C6_2 C 0.787(2) 0.0826(16) 0.0150(10)
C7_2 C 0.802(2) 0.1634(18) 0.0171(10)
H3_2 H 0.7669 0.2042 0.0006
C8_2 C 0.866(2) 0.1804(17) 0.0425(14)
H4_2 H 0.8730 0.2327 0.0424
N7_2 N 0.5403(16) 0.4792(13) 0.3499(8)
N8_2 N 0.7052(16) 0.4437(13) 0.2983(7)
N9_2 N 0.5894(14) 0.3650(11) 0.2889(7)
C19_2 C 0.5235(15) 0.4218(12) 0.3288(8)
C20_2 C 0.6800(18) 0.3787(14) 0.2775(10)
C21_2 C 0.628(2) 0.4882(15) 0.3321(10)
N10_2 N 0.2203(14) 0.4223(13) 0.3497(9)
C22_2 C 0.256(2) 0.454(2) 0.3855(10)
H13_2 H 0.2111 0.4791 0.4149
C23_2 C 0.355(2) 0.451(2) 0.3802(11)
H14_2 H 0.3761 0.4758 0.4044
C24_2 C 0.4229(18) 0.4092(18) 0.3359(10)
C25_2 C 0.3869(19) 0.3772(16) 0.3016(9)
H15_2 H 0.4297 0.3504 0.2721
C26_2 C 0.2881(19) 0.3846(16) 0.3103(9)
H16_2 H 0.2661 0.3606 0.2862
N11_2 N 0.6740(18) 0.6966(15) 0.3991(9)
C27_2 C 0.594(2) 0.681(2) 0.4083(14)
H17_2 H 0.5413 0.7185 0.4293
C28_2 C 0.573(2) 0.6123(18) 0.3909(13)
H18_2 H 0.5124 0.6013 0.4027
C29_2 C 0.6479(17) 0.5626(16) 0.3556(10)
C30_2 C 0.736(2) 0.5769(16) 0.3441(11)
H19_2 H 0.7889 0.5407 0.3219
C31_2 C 0.7529(19) 0.6465(16) 0.3650(10)
H20_2 H 0.8144 0.6577 0.3561
N12_2 N 0.9056(15) 0.2256(11) 0.1641(8)
C32_2 C 0.9154(18) 0.2905(13) 0.1856(9)
H21_2 H 0.9779 0.3001 0.1773
C33_2 C 0.8443(16) 0.3433(15) 0.2178(10)
H22_2 H 0.8535 0.3930 0.2258
C34_2 C 0.7620(15) 0.3262(12) 0.2384(8)
C35_2 C 0.7495(18) 0.2546(14) 0.2212(10)
H23_2 H 0.6926 0.2388 0.2356
C36_2 C 0.821(2) 0.2066(14) 0.1828(9)
H24_2 H 0.8102 0.1605 0.1700
I3_2 I 0.58632(17) 0.21938(13) 0.67686(8)
I4_2 I 0.52483(16) 0.44621(11) 0.77215(8)
N2_2 N 0.6018(15) 0.0192(12) 0.9363(7)
N3_2 N 0.6833(15) 0.1132(11) 0.9590(7)
C1_2 C 0.7198(18) 0.0645(14) 0.9905(9)
C3_2 C 0.626(2) 0.0906(15) 0.9310(9)
N6_2 N 0.5295(14) 0.2394(11) 0.8180(7)
C14_2 C 0.5688(18) 0.2627(15) 0.8527(9)
H9_2 H 0.5784 0.3142 0.8517
C15_2 C 0.596(2) 0.2151(16) 0.8899(10)
H10_2 H 0.6201 0.2363 0.9144
C16_2 C 0.5893(18) 0.1381(14) 0.8922(9)
C17_2 C 0.544(2) 0.1147(16) 0.8573(9)
H11_2 H 0.5298 0.0647 0.8587
C18_2 C 0.5199(16) 0.1640(14) 0.8215(9)
H12_2 H 0.4946 0.1444 0.7971
Zn1_2 Zn 0.5708(2) 0.62745(17) 0.00133(12)
I1_2 I 0.64278(18) 0.57105(12) 0.07502(8)
H2_2 H 0.8227 0.9857 0.0482
C12_2 C 0.647(2) 0.8506(15) 0.0164(10)
H7_2 H 0.6794 0.8708 0.0372
C13_2 C 0.6328(19) 0.7764(16) 0.0239(10)
H8_2 H 0.6518 0.7478 0.0506
I2_2 I 0.39544(15) 0.63802(11) 0.99389(8)
N1_2 N 0.6949(13) 0.9964(12) 0.9987(7)
C2_2 C 0.6384(16) 0.9751(14) 0.9696(10)
N5_2 N 0.5909(15) 0.7442(11) 0.9924(7)
C9_2 C 0.561(2) 0.7874(15) 0.9569(11)
H5_2 H 0.5302 0.7645 0.9361
C10_2 C 0.570(2) 0.8675(15) 0.9472(10)
H6_2 H 0.5484 0.8968 0.9214
C11_2 C 0.6161(15) 0.8970(14) 0.9800(9)
N13_2 N 0.8515(16) 0.3236(12) 0.8146(7)
N15_2 N 0.9761(17) 0.3933(12) 0.8216(8)
C37_2 C 0.882(2) 0.3911(14) 0.8295(9)
C38_2 C 0.9240(19) 0.2672(14) 0.7875(10)
N16_2 N 0.6683(15) 0.5644(11) 0.9373(7)
C40_2 C 0.761(2) 0.5686(16) 0.9214(11)
H25_2 H 0.7800 0.6110 0.9340
C41_2 C 0.829(2) 0.5133(16) 0.8878(10)
H26_2 H 0.8951 0.5156 0.8790
C42_2 C 0.8018(18) 0.4552(13) 0.8669(9)
C43_2 C 0.7045(16) 0.4553(14) 0.8771(8)
H27_2 H 0.6844 0.4182 0.8600
C44_2 C 0.6352(19) 0.5105(15) 0.9130(10)
H28_2 H 0.5682 0.5113 0.9205
N17_2 N 0.8495(18) 0.0592(12) 0.7474(8)
C45_2 C 0.946(3) 0.051(2) 0.750(2)
H29_2 H 0.9929 0.0008 0.7455
C46_2 C 0.967(2) 0.1196(18) 0.7590(16)
C47_2 C 0.8949(19) 0.1945(15) 0.7709(10)
C48_2 C 0.8009(19) 0.1979(16) 0.7726(9)
H31_2 H 0.7484 0.2443 0.7830
C49_2 C 0.789(2) 0.1250(17) 0.7572(11)
H32_2 H 0.7248 0.1266 0.7540
H41_2 H 0.9409 0.3549 0.4334
H42_2 H 0.9912 0.2528 0.4875
C71_2 C 0.9280(18) 0.0577(16) 0.5815(10)
H47_2 H 0.9004 0.1007 0.5638
C72_2 C 0.875(2) 0.0313(14) 0.6224(11)
H48_2 H 0.8089 0.0620 0.6339
Zn5_2 Zn 0.8201(3) 0.95422(19) 0.72001(13)
I9_2 I 0.9160(3) 0.82336(13) 0.74849(10)
I10_2 I 0.63874(18) 0.97441(13) 0.72129(8)
N24_2 N 0.9038(18) 0.9686(15) 0.6476(9)
C68_2 C 0.995(2) 0.9291(16) 0.6330(13)
I5_2 I 0.9727(14) 0.5676(17) 0.4263(6)
loop_
_geom_bond_atom_site_label_1
_geom_bond_atom_site_label_2
_geom_bond_site_symmetry_1
_geom_bond_site_symmetry_2
Zn5 I9 1_555 1_555
I10 Zn5 1_555 1_555
N24 Zn5 1_555 1_555
C68 N24 1_555 1_555
C2 N1 1_555 1_555
C9 N5 1_555 1_555
H5 C9 1_555 1_555
C10 C9 1_555 1_555
H6 C10 1_555 1_555
C11 C2 1_555 1_555
N13 C37 1_555 1_555
N15 C37 1_555 1_555
C37 C42 1_555 1_555
C38 N13 1_555 1_555
C40 N16 1_555 1_555
H25 C40 1_555 1_555
C41 C40 1_555 1_555
H26 C41 1_555 1_555
C42 C41 1_555 1_555
C43 C42 1_555 1_555
H27 C43 1_555 1_555
C44 N16 1_555 1_555
H28 C44 1_555 1_555
C45 N17 1_555 1_555
H29 C45 1_555 1_555
C46 C45 1_555 1_555
C47 C38 1_555 1_555
C48 C47 1_555 1_555
H31 C48 1_555 1_555
C49 N17 1_555 1_555
H32 C49 1_555 1_555
H47 C71 1_555 1_555
H48 C72 1_555 1_555
C10 C11 1_555 1_555
C43 C44 1_555 1_555
C46 C47 1_555 1_555
C48 C49 1_555 1_555
C71 C72 1_555 1_555
Zn1 I1 1_555 1_555
H7 C12 1_555 1_555
H8 C13 1_555 1_555
C12 C13 1_555 1_555
Zn2 I3 1_555 1_555
I4 Zn2 1_555 1_555
N3 C1 1_555 1_555
C3 N2 1_555 1_555
N6 Zn2 1_555 1_555
C14 N6 1_555 1_555
H9 C14 1_555 1_555
C15 C14 1_555 1_555
H10 C15 1_555 1_555
C16 C3 1_555 1_555
C17 C16 1_555 1_555
H11 C17 1_555 1_555
C18 N6 1_555 1_555
H12 C18 1_555 1_555
N25 Zn2 1_555 1_555
N3 C3 1_555 1_555
C15 C16 1_555 1_555
C17 C18 1_555 1_555
Zn6 I11 1_555 1_555
I6 Zn3 1_555 1_555
I12 Zn6 1_555 1_555
C4 N4 1_555 1_555
H1 C4 1_555 1_555
C5 C4 1_555 1_555
C6 C5 1_555 1_555
C7 C6 1_555 1_555
H3 C7 1_555 1_555
C8 N4 1_555 1_555
H4 C8 1_555 1_555
N7 C19 1_555 1_555
N8 C20 1_555 1_555
N9 C19 1_555 1_555
C19 C24 1_555 1_555
C20 N9 1_555 1_555
C21 N7 1_555 1_555
N10 Zn3 1_555 1_555
C22 N10 1_555 1_555
H13 C22 1_555 1_555
C23 C22 1_555 1_555
H14 C23 1_555 1_555
C24 C23 1_555 1_555
C25 C24 1_555 1_555
H15 C25 1_555 1_555
C26 N10 1_555 1_555
H16 C26 1_555 1_555
N11 Zn6 1_555 1_555
C27 N11 1_555 1_555
H17 C27 1_555 1_555
C28 C27 1_555 1_555
H18 C28 1_555 1_555
C29 C21 1_555 1_555
C30 C29 1_555 1_555
H19 C30 1_555 1_555
C31 N11 1_555 1_555
H20 C31 1_555 1_555
C32 N12 1_555 1_555
H21 C32 1_555 1_555
C33 C32 1_555 1_555
H22 C33 1_555 1_555
C34 C20 1_555 1_555
C35 C34 1_555 1_555
H23 C35 1_555 1_555
C36 N12 1_555 1_555
H24 C36 1_555 1_555
N26 Zn3 1_555 1_555
N27 Zn6 1_555 1_555
C7 C8 1_555 1_555
N8 C21 1_555 1_555
C25 C26 1_555 1_555
C28 C29 1_555 1_555
C30 C31 1_555 1_555
C33 C34 1_555 1_555
C35 C36 1_555 1_555
N27 C58 1_555 1_555
C58 H37 1_555 1_555
C59 C58 1_555 1_555
H38 C59 1_555 1_555
C60 C59 1_555 1_555
C61 C60 1_555 1_555
H39 C61 1_555 1_555
C62 N27 1_555 1_555
H40 C62 1_555 1_555
H46 C69 1_555 1_555
C61 C62 1_555 1_555
C39 N14 1_555 1_555
N25 C50 1_555 1_555
C50 H33 1_555 1_555
C51 C50 1_555 1_555
H34 C51 1_555 1_555
C52 C39 1_555 1_555
C53 C52 1_555 1_555
H35 C53 1_555 1_555
C54 N25 1_555 1_555
H36 C54 1_555 1_555
N19 C55 1_555 1_555
N20 C56 1_555 1_555
C56 N19 1_555 1_555
C57 N20 1_555 1_555
N26 C63 1_555 1_555
C64 C63 1_555 1_555
C65 C56 1_555 1_555
C66 C65 1_555 1_555
H43 C66 1_555 1_555
C67 N26 1_555 1_555
H44 C67 1_555 1_555
C70 C57 1_555 1_555
C51 C52 1_555 1_555
C53 C54 1_555 1_555
C64 C65 1_555 1_555
C66 C67 1_555 1_555
Zn4 I7 1_555 1_555
I8 Zn4 1_555 1_555
Zn4_2 I7_2 1_555 1_555
I8_2 Zn4_2 1_555 1_555
C39_2 N14_2 1_555 1_555
N18 C50_2 1_555 1_555
C50_2 H33_2 1_555 1_555
C51_2 C50_2 1_555 1_555
H34_2 C51_2 1_555 1_555
C52_2 C39_2 1_555 1_555
C53_2 C52_2 1_555 1_555
H35_2 C53_2 1_555 1_555
C54_2 N18 1_555 1_555
H36_2 C54_2 1_555 1_555
N19_2 C55_2 1_555 1_555
N20_2 C56_2 1_555 1_555
C56_2 N19_2 1_555 1_555
C57_2 N20_2 1_555 1_555
N23 C63_2 1_555 1_555
C64_2 C63_2 1_555 1_555
C65_2 C56_2 1_555 1_555
C66_2 C65_2 1_555 1_555
H43_2 C66_2 1_555 1_555
C67_2 N23 1_555 1_555
H44_2 C67_2 1_555 1_555
C70_2 C57_2 1_555 1_555
Zn7 N18 1_555 1_555
Zn9 N23 1_555 1_555
C51_2 C52_2 1_555 1_555
C53_2 C54_2 1_555 1_555
C64_2 C65_2 1_555 1_555
C66_2 C67_2 1_555 1_555
N22 C58_2 1_555 1_555
C58_2 H37_2 1_555 1_555
C59_2 C58_2 1_555 1_555
H38_2 C59_2 1_555 1_555
C60_2 C59_2 1_555 1_555
C61_2 C60_2 1_555 1_555
H39_2 C61_2 1_555 1_555
C62_2 N22 1_555 1_555
H40_2 C62_2 1_555 1_555
H46_2 C69_2 1_555 1_555
Zn8 N22 1_555 1_555
C61_2 C62_2 1_555 1_555
Zn8 I11_2 1_555 1_555
I6_2 Zn9 1_555 1_555
I12_2 Zn8 1_555 1_555
C4_2 N4_2 1_555 1_555
H1_2 C4_2 1_555 1_555
C5_2 C4_2 1_555 1_555
C6_2 C5_2 1_555 1_555
C7_2 C6_2 1_555 1_555
H3_2 C7_2 1_555 1_555
C8_2 N4_2 1_555 1_555
H4_2 C8_2 1_555 1_555
N7_2 C19_2 1_555 1_555
N8_2 C20_2 1_555 1_555
N9_2 C19_2 1_555 1_555
C19_2 C24_2 1_555 1_555
C20_2 N9_2 1_555 1_555
C21_2 N7_2 1_555 1_555
N10_2 Zn9 1_555 1_555
C22_2 N10_2 1_555 1_555
H13_2 C22_2 1_555 1_555
C23_2 C22_2 1_555 1_555
H14_2 C23_2 1_555 1_555
C24_2 C23_2 1_555 1_555
C25_2 C24_2 1_555 1_555
H15_2 C25_2 1_555 1_555
C26_2 N10_2 1_555 1_555
H16_2 C26_2 1_555 1_555
N11_2 Zn8 1_555 1_555
C27_2 N11_2 1_555 1_555
H17_2 C27_2 1_555 1_555
C28_2 C27_2 1_555 1_555
H18_2 C28_2 1_555 1_555
C29_2 C21_2 1_555 1_555
C30_2 C29_2 1_555 1_555
H19_2 C30_2 1_555 1_555
C31_2 N11_2 1_555 1_555
H20_2 C31_2 1_555 1_555
C32_2 N12_2 1_555 1_555
H21_2 C32_2 1_555 1_555
C33_2 C32_2 1_555 1_555
H22_2 C33_2 1_555 1_555
C34_2 C20_2 1_555 1_555
C35_2 C34_2 1_555 1_555
H23_2 C35_2 1_555 1_555
C36_2 N12_2 1_555 1_555
H24_2 C36_2 1_555 1_555
C7_2 C8_2 1_555 1_555
N8_2 C21_2 1_555 1_555
C25_2 C26_2 1_555 1_555
C28_2 C29_2 1_555 1_555
C30_2 C31_2 1_555 1_555
C33_2 C34_2 1_555 1_555
C35_2 C36_2 1_555 1_555
Zn7 I3_2 1_555 1_555
I4_2 Zn7 1_555 1_555
N3_2 C1_2 1_555 1_555
C3_2 N2_2 1_555 1_555
N6_2 Zn7 1_555 1_555
C14_2 N6_2 1_555 1_555
H9_2 C14_2 1_555 1_555
C15_2 C14_2 1_555 1_555
H10_2 C15_2 1_555 1_555
C16_2 C3_2 1_555 1_555
C17_2 C16_2 1_555 1_555
H11_2 C17_2 1_555 1_555
C18_2 N6_2 1_555 1_555
H12_2 C18_2 1_555 1_555
N3_2 C3_2 1_555 1_555
C15_2 C16_2 1_555 1_555
C17_2 C18_2 1_555 1_555
Zn1_2 I1_2 1_555 1_555
H7_2 C12_2 1_555 1_555
H8_2 C13_2 1_555 1_555
C12_2 C13_2 1_555 1_555
C2_2 N1_2 1_555 1_555
C9_2 N5_2 1_555 1_555
H5_2 C9_2 1_555 1_555
C10_2 C9_2 1_555 1_555
H6_2 C10_2 1_555 1_555
C11_2 C2_2 1_555 1_555
N13_2 C37_2 1_555 1_555
N15_2 C37_2 1_555 1_555
C37_2 C42_2 1_555 1_555
C38_2 N13_2 1_555 1_555
C40_2 N16_2 1_555 1_555
H25_2 C40_2 1_555 1_555
C41_2 C40_2 1_555 1_555
H26_2 C41_2 1_555 1_555
C42_2 C41_2 1_555 1_555
C43_2 C42_2 1_555 1_555
H27_2 C43_2 1_555 1_555
C44_2 N16_2 1_555 1_555
H28_2 C44_2 1_555 1_555
C45_2 N17_2 1_555 1_555
H29_2 C45_2 1_555 1_555
C46_2 C45_2 1_555 1_555
C47_2 C38_2 1_555 1_555
C48_2 C47_2 1_555 1_555
H31_2 C48_2 1_555 1_555
C49_2 N17_2 1_555 1_555
H32_2 C49_2 1_555 1_555
H47_2 C71_2 1_555 1_555
H48_2 C72_2 1_555 1_555
C10_2 C11_2 1_555 1_555
C43_2 C44_2 1_555 1_555
C46_2 C47_2 1_555 1_555
C48_2 C49_2 1_555 1_555
C71_2 C72_2 1_555 1_555
Zn5_2 I9_2 1_555 1_555
I10_2 Zn5_2 1_555 1_555
N24_2 Zn5_2 1_555 1_555
C68_2 N24_2 1_555 1_555

#END
