
###############################################################################
#
# This file contains modified crystal structure data generated from the
# MOF subset of the Cambridge Structural Database (CSD) v543 
# hosted by the Cambridge Crystallographic Data Centre (CCDC).
#
# This work is licensed under the Creative Commons
# Attribution-NonCommercial-ShareAlike 4.0 International License.
# To view a copy of this license, visit
# http://creativecommons.org/licenses/by-nc-sa/4.0/
# or send a letter to
# Creative Commons, PO Box 1866, Mountain View, CA 94042, USA.
#
# CIF created using the CSD Python API on 29 September 2022
# The structure has been converted into the P1 space group
# The structure has a 3D framework
# The original CSD entry LUFCAS is in the monoclinic crystal system
# The framework has been calculated to contain at least 10.0% void space
# The void calculation uses a probe of radius 1.32A, grid spacing 0.4
#
###############################################################################

data_LUFCAS
_chemical_formula_moiety         '(C72 H48 Cd8 N24 O16)n'
_symmetry_cell_setting           triclinic
_symmetry_space_group_name_H-M   'P 1'
_symmetry_Int_Tables_number      1
_space_group_name_Hall           'P 1'
loop_
_symmetry_equiv_pos_site_id
_symmetry_equiv_pos_as_xyz
1 x,y,z
_cell_length_a                   15.629(3)
_cell_length_b                   15.991(3)
_cell_length_c                   9.2343(19)
_cell_angle_alpha                90
_cell_angle_beta                 102.774(2)
_cell_angle_gamma                90
_cell_volume                     2250.75
loop_
_atom_site_label
_atom_site_type_symbol
_atom_site_fract_x
_atom_site_fract_y
_atom_site_fract_z
Cd3 Cd 0.0000 0.5000 0.0000
Cd3_2 Cd 0.0000 0.5000 1.0000
Cd5 Cd 0.0000 0.5000 0.5000
Cd1 Cd 0.5000 0.0000 0.0000
O3 O 0.11018(16) 0.42145(15) 0.4280(3)
O4 O 0.0988(2) 0.49868(11) 0.2257(4)
N4 N 0.45904(18) 0.13614(16) 0.0495(3)
N5 N 0.4407(2) 0.27533(17) 0.0261(4)
N6 N 0.38889(17) 0.24244(16) 0.1133(3)
C11 C 0.4005(2) 0.1604(2) 0.1247(4)
H8 H 0.3716 0.1250 0.1779
C12 C 0.3276(2) 0.29330(19) 0.1683(4)
C13 C 0.3058(2) 0.3711(2) 0.1079(5)
H9 H 0.3326 0.3916 0.0347
C14 C 0.2872(3) 0.2625(2) 0.2749(5)
H10 H 0.3011 0.2093 0.3139
C15 C 0.2443(2) 0.4182(2) 0.1564(4)
H11 H 0.2304 0.4712 0.1164
C16 C 0.2256(3) 0.3110(2) 0.3243(4)
H12 H 0.1997 0.2909 0.3989
C17 C 0.2026(2) 0.38864(19) 0.2633(4)
C18 C 0.1319(2) 0.4395(2) 0.3098(4)
Cd1_2 Cd 0.5000 -0.0000 1.0000
C10 C 0.4813(3) 0.2088(3) 0.9925(4)
H7 H 0.5225 0.2114 0.9338
O5 O 0.61018(16) 0.07855(15) 0.9280(3)
O7 O 0.4012(2) 0.00132(11) 0.7743(4)
Cd1_3 Cd 0.5000 1.0000 0.0000
C1 C 0.5187(3) 0.7912(3) 0.0075(4)
H1 H 0.4775 0.7886 0.0662
Cd3_3 Cd 1.0000 0.5000 0.0000
O6 O 0.38982(16) 0.92145(15) 0.0720(3)
O8 O 0.5988(2) 0.99868(11) 0.2257(4)
Cd1_4 Cd 0.5000 1.0000 1.0000
O1 O 0.88982(16) 0.57855(15) 0.5720(3)
O2 O 0.9012(2) 0.50132(11) 0.7743(4)
N1 N 0.54096(18) 0.86386(16) 0.9505(3)
N2 N 0.5593(2) 0.72467(17) 0.9739(4)
N3 N 0.61111(17) 0.75756(16) 0.8867(3)
C2 C 0.5995(2) 0.8396(2) 0.8753(4)
H2 H 0.6284 0.8750 0.8221
C3 C 0.6724(2) 0.70670(19) 0.8317(4)
C4 C 0.6942(2) 0.6289(2) 0.8921(5)
H3 H 0.6674 0.6084 0.9653
C5 C 0.7128(3) 0.7375(2) 0.7251(5)
H4 H 0.6989 0.7907 0.6861
C6 C 0.7557(2) 0.5818(2) 0.8436(4)
H5 H 0.7696 0.5288 0.8836
C7 C 0.7744(3) 0.6890(2) 0.6757(4)
H6 H 0.8003 0.7091 0.6011
C8 C 0.7974(2) 0.61136(19) 0.7367(4)
C9 C 0.8681(2) 0.5605(2) 0.6902(4)
Cd3_4 Cd 1.0000 0.5000 1.0000
Cd5_2 Cd 1.0000 0.5000 0.5000
Cd1_5 Cd 0.5000 -0.0000 0.5000
O3_2 O 0.88982(16) 0.42145(15) 0.0720(3)
O4_2 O 0.9012(2) 0.49868(11) 0.2743(4)
N4_2 N 0.54096(18) 0.13614(16) 0.4505(3)
N5_2 N 0.5593(2) 0.27533(17) 0.4739(4)
N6_2 N 0.61111(17) 0.24244(16) 0.3867(3)
C10_2 C 0.5187(3) 0.2088(3) 0.5075(4)
H7_2 H 0.4775 0.2114 0.5662
C11_2 C 0.5995(2) 0.1604(2) 0.3753(4)
H8_2 H 0.6284 0.1250 0.3221
C12_2 C 0.6724(2) 0.29330(19) 0.3317(4)
C13_2 C 0.6942(2) 0.3711(2) 0.3921(5)
H9_2 H 0.6674 0.3916 0.4653
C14_2 C 0.7128(3) 0.2625(2) 0.2251(5)
H10_2 H 0.6989 0.2093 0.1861
C15_2 C 0.7557(2) 0.4182(2) 0.3436(4)
H11_2 H 0.7696 0.4712 0.3836
C16_2 C 0.7744(3) 0.3110(2) 0.1757(4)
H12_2 H 0.8003 0.2909 0.1011
C17_2 C 0.7974(2) 0.38864(19) 0.2367(4)
C18_2 C 0.8681(2) 0.4395(2) 0.1902(4)
O5_2 O 0.38982(16) 0.07855(15) 0.5720(3)
O7_2 O 0.5988(2) 0.00132(11) 0.7257(4)
Cd1_6 Cd 0.5000 1.0000 0.5000
O1_2 O 0.11018(16) 0.57855(15) 0.9280(3)
O2_2 O 0.0988(2) 0.50132(11) 0.7257(4)
N1_2 N 0.45904(18) 0.86386(16) 0.5495(3)
N2_2 N 0.4407(2) 0.72467(17) 0.5261(4)
N3_2 N 0.38889(17) 0.75756(16) 0.6133(3)
C1_2 C 0.4813(3) 0.7912(3) 0.4925(4)
H1_2 H 0.5225 0.7886 0.4338
C2_2 C 0.4005(2) 0.8396(2) 0.6247(4)
H2_2 H 0.3716 0.8750 0.6779
C3_2 C 0.3276(2) 0.70670(19) 0.6683(4)
C4_2 C 0.3058(2) 0.6289(2) 0.6079(5)
H3_2 H 0.3326 0.6084 0.5347
C5_2 C 0.2872(3) 0.7375(2) 0.7749(5)
H4_2 H 0.3011 0.7907 0.8139
C6_2 C 0.2443(2) 0.5818(2) 0.6564(4)
H5_2 H 0.2304 0.5288 0.6164
C7_2 C 0.2256(3) 0.6890(2) 0.8243(4)
H6_2 H 0.1997 0.7091 0.8989
C8_2 C 0.2026(2) 0.61136(19) 0.7633(4)
C9_2 C 0.1319(2) 0.5605(2) 0.8098(4)
O6_2 O 0.61018(16) 0.92145(15) 0.4280(3)
O8_2 O 0.4012(2) 0.99868(11) 0.2743(4)
C1_3 C 0.0187(3) 0.2912(3) 0.0075(4)
N1_3 N 0.04096(18) 0.36386(16) 0.9505(3)
N2_3 N 0.0593(2) 0.22467(17) 0.9739(4)
N3_3 N 0.11111(17) 0.25756(16) 0.8867(3)
C2_3 C 0.0995(2) 0.3396(2) 0.8753(4)
H2_3 H 0.1284 0.3750 0.8221
C3_3 C 0.1724(2) 0.20670(19) 0.8317(4)
C4_3 C 0.1942(2) 0.1289(2) 0.8921(5)
H3_3 H 0.1674 0.1084 0.9653
C5_3 C 0.2128(3) 0.2375(2) 0.7251(5)
H4_3 H 0.1989 0.2907 0.6861
C6_3 C 0.2557(2) 0.0818(2) 0.8436(4)
H5_3 H 0.2696 0.0288 0.8836
C7_3 C 0.2744(3) 0.1890(2) 0.6757(4)
H6_3 H 0.3003 0.2091 0.6011
C8_3 C 0.2974(2) 0.11136(19) 0.7367(4)
C9_3 C 0.3681(2) 0.0605(2) 0.6902(4)
H7_3 H 0.0225 0.7114 0.9338
H1_3 H 0.9775 0.2886 0.0662
N4_3 N 0.95904(18) 0.63614(16) 0.0495(3)
N5_3 N 0.9407(2) 0.77533(17) 0.0261(4)
N6_3 N 0.88889(17) 0.74244(16) 0.1133(3)
C11_3 C 0.9005(2) 0.6604(2) 0.1247(4)
H8_3 H 0.8716 0.6250 0.1779
C12_3 C 0.8276(2) 0.79330(19) 0.1683(4)
C13_3 C 0.8058(2) 0.8711(2) 0.1079(5)
H9_3 H 0.8326 0.8916 0.0347
C14_3 C 0.7872(3) 0.7625(2) 0.2749(5)
H10_3 H 0.8011 0.7093 0.3139
C15_3 C 0.7443(2) 0.9182(2) 0.1564(4)
H11_3 H 0.7304 0.9712 0.1164
C16_3 C 0.7256(3) 0.8110(2) 0.3243(4)
H12_3 H 0.6997 0.7909 0.3989
C17_3 C 0.7026(2) 0.88864(19) 0.2633(4)
C18_3 C 0.6319(2) 0.9395(2) 0.3098(4)
C10_3 C 0.9813(3) 0.7088(3) 0.9925(4)
H1_4 H 0.0225 0.2886 0.4338
N4_4 N 0.04096(18) 0.63614(16) 0.4505(3)
N5_4 N 0.0593(2) 0.77533(17) 0.4739(4)
N6_4 N 0.11111(17) 0.74244(16) 0.3867(3)
C10_4 C 0.0187(3) 0.7088(3) 0.5075(4)
C11_4 C 0.0995(2) 0.6604(2) 0.3753(4)
H8_4 H 0.1284 0.6250 0.3221
C12_4 C 0.1724(2) 0.79330(19) 0.3317(4)
C13_4 C 0.1942(2) 0.8711(2) 0.3921(5)
H9_4 H 0.1674 0.8916 0.4653
C14_4 C 0.2128(3) 0.7625(2) 0.2251(5)
H10_4 H 0.1989 0.7093 0.1861
C15_4 C 0.2557(2) 0.9182(2) 0.3436(4)
H11_4 H 0.2696 0.9712 0.3836
C16_4 C 0.2744(3) 0.8110(2) 0.1757(4)
H12_4 H 0.3003 0.7909 0.1011
C17_4 C 0.2974(2) 0.88864(19) 0.2367(4)
C18_4 C 0.3681(2) 0.9395(2) 0.1902(4)
N1_4 N 0.95904(18) 0.36386(16) 0.5495(3)
N2_4 N 0.9407(2) 0.22467(17) 0.5261(4)
N3_4 N 0.88889(17) 0.25756(16) 0.6133(3)
C1_4 C 0.9813(3) 0.2912(3) 0.4925(4)
C2_4 C 0.9005(2) 0.3396(2) 0.6247(4)
H2_4 H 0.8716 0.3750 0.6779
C3_4 C 0.8276(2) 0.20670(19) 0.6683(4)
C4_4 C 0.8058(2) 0.1289(2) 0.6079(5)
H3_4 H 0.8326 0.1084 0.5347
C5_4 C 0.7872(3) 0.2375(2) 0.7749(5)
H4_4 H 0.8011 0.2907 0.8139
C6_4 C 0.7443(2) 0.0818(2) 0.6564(4)
H5_4 H 0.7304 0.0288 0.6164
C7_4 C 0.7256(3) 0.1890(2) 0.8243(4)
H6_4 H 0.6997 0.2091 0.8989
C8_4 C 0.7026(2) 0.11136(19) 0.7633(4)
C9_4 C 0.6319(2) 0.0605(2) 0.8098(4)
H7_4 H 0.9775 0.7114 0.5662
loop_
_geom_bond_atom_site_label_1
_geom_bond_atom_site_label_2
_geom_bond_site_symmetry_1
_geom_bond_site_symmetry_2
O3 C18 1_555 1_555
O4 C18 1_555 1_555
N4 Cd1 1_555 1_555
N5 N6 1_555 1_555
N6 C11 1_555 1_555
C11 N4 1_555 1_555
H8 C11 1_555 1_555
C12 N6 1_555 1_555
C13 C12 1_555 1_555
H9 C13 1_555 1_555
C14 C12 1_555 1_555
H10 C14 1_555 1_555
C15 C13 1_555 1_555
H11 C15 1_555 1_555
C16 C14 1_555 1_555
H12 C16 1_555 1_555
C17 C15 1_555 1_555
C18 C17 1_555 1_555
Cd3 O4 1_555 1_555
Cd5 O3 1_555 1_555
C16 C17 1_555 1_555
H7 C10 1_555 1_555
O5 Cd1_2 1_555 1_555
O7 Cd1_2 1_555 1_555
H1 C1 1_555 1_555
O6 Cd1_3 1_555 1_555
O8 Cd1_3 1_555 1_555
Cd1_4 N1 1_555 1_555
O1 C9 1_555 1_555
O2 C9 1_555 1_555
N2 N3 1_555 1_555
N3 C2 1_555 1_555
C2 N1 1_555 1_555
H2 C2 1_555 1_555
C3 N3 1_555 1_555
C4 C3 1_555 1_555
H3 C4 1_555 1_555
C5 C3 1_555 1_555
H4 C5 1_555 1_555
C6 C4 1_555 1_555
H5 C6 1_555 1_555
C7 C5 1_555 1_555
H6 C7 1_555 1_555
C8 C6 1_555 1_555
C9 C8 1_555 1_555
Cd3_4 O2 1_555 1_555
Cd5_2 O1 1_555 1_555
C7 C8 1_555 1_555
O3_2 C18_2 1_555 1_555
O4_2 C18_2 1_555 1_555
N4_2 Cd1_5 1_555 1_555
N5_2 N6_2 1_555 1_555
N6_2 C11_2 1_555 1_555
C10_2 N4_2 1_555 1_555
H7_2 C10_2 1_555 1_555
C11_2 N4_2 1_555 1_555
H8_2 C11_2 1_555 1_555
C12_2 N6_2 1_555 1_555
C13_2 C12_2 1_555 1_555
H9_2 C13_2 1_555 1_555
C14_2 C12_2 1_555 1_555
H10_2 C14_2 1_555 1_555
C15_2 C13_2 1_555 1_555
H11_2 C15_2 1_555 1_555
C16_2 C14_2 1_555 1_555
H12_2 C16_2 1_555 1_555
C17_2 C15_2 1_555 1_555
C18_2 C17_2 1_555 1_555
Cd5_2 O4_2 1_555 1_555
Cd3_3 O3_2 1_555 1_555
O5_2 Cd1_5 1_555 1_555
O7_2 Cd1_5 1_555 1_555
N5_2 C10_2 1_555 1_555
C16_2 C17_2 1_555 1_555
Cd1_6 N1_2 1_555 1_555
O1_2 C9_2 1_555 1_555
O2_2 C9_2 1_555 1_555
N1_2 C1_2 1_555 1_555
N2_2 N3_2 1_555 1_555
N3_2 C2_2 1_555 1_555
C1_2 N2_2 1_555 1_555
H1_2 C1_2 1_555 1_555
C2_2 N1_2 1_555 1_555
H2_2 C2_2 1_555 1_555
C3_2 N3_2 1_555 1_555
C4_2 C3_2 1_555 1_555
H3_2 C4_2 1_555 1_555
C5_2 C3_2 1_555 1_555
H4_2 C5_2 1_555 1_555
C6_2 C4_2 1_555 1_555
H5_2 C6_2 1_555 1_555
C7_2 C5_2 1_555 1_555
H6_2 C7_2 1_555 1_555
C8_2 C6_2 1_555 1_555
C9_2 C8_2 1_555 1_555
Cd5 O2_2 1_555 1_555
Cd3_2 O1_2 1_555 1_555
O6_2 Cd1_6 1_555 1_555
O8_2 Cd1_6 1_555 1_555
C7_2 C8_2 1_555 1_555
Cd3_2 N1_3 1_555 1_555
O5_2 C9_3 1_555 1_555
O7 C9_3 1_555 1_555
N2_3 N3_3 1_555 1_555
N3_3 C2_3 1_555 1_555
C2_3 N1_3 1_555 1_555
H2_3 C2_3 1_555 1_555
C3_3 N3_3 1_555 1_555
C4_3 C3_3 1_555 1_555
H3_3 C4_3 1_555 1_555
C5_3 C3_3 1_555 1_555
H4_3 C5_3 1_555 1_555
C6_3 C4_3 1_555 1_555
H5_3 C6_3 1_555 1_555
C7_3 C5_3 1_555 1_555
H6_3 C7_3 1_555 1_555
C8_3 C6_3 1_555 1_555
C9_3 C8_3 1_555 1_555
C7_3 C8_3 1_555 1_555
O6_2 C18_3 1_555 1_555
O8 C18_3 1_555 1_555
N4_3 Cd3_3 1_555 1_555
N5_3 N6_3 1_555 1_555
N6_3 C11_3 1_555 1_555
C11_3 N4_3 1_555 1_555
H8_3 C11_3 1_555 1_555
C12_3 N6_3 1_555 1_555
C13_3 C12_3 1_555 1_555
H9_3 C13_3 1_555 1_555
C14_3 C12_3 1_555 1_555
H10_3 C14_3 1_555 1_555
C15_3 C13_3 1_555 1_555
H11_3 C15_3 1_555 1_555
C16_3 C14_3 1_555 1_555
H12_3 C16_3 1_555 1_555
C17_3 C15_3 1_555 1_555
C18_3 C17_3 1_555 1_555
C16_3 C17_3 1_555 1_555
O6 C18_4 1_555 1_555
O8_2 C18_4 1_555 1_555
N4_4 Cd5 1_555 1_555
N5_4 N6_4 1_555 1_555
N6_4 C11_4 1_555 1_555
C10_4 N4_4 1_555 1_555
C11_4 N4_4 1_555 1_555
H8_4 C11_4 1_555 1_555
C12_4 N6_4 1_555 1_555
C13_4 C12_4 1_555 1_555
H9_4 C13_4 1_555 1_555
C14_4 C12_4 1_555 1_555
H10_4 C14_4 1_555 1_555
C15_4 C13_4 1_555 1_555
H11_4 C15_4 1_555 1_555
C16_4 C14_4 1_555 1_555
H12_4 C16_4 1_555 1_555
C17_4 C15_4 1_555 1_555
C18_4 C17_4 1_555 1_555
N5_4 C10_4 1_555 1_555
C16_4 C17_4 1_555 1_555
Cd5_2 N1_4 1_555 1_555
O5 C9_4 1_555 1_555
O7_2 C9_4 1_555 1_555
N1_4 C1_4 1_555 1_555
N2_4 N3_4 1_555 1_555
N3_4 C2_4 1_555 1_555
C1_4 N2_4 1_555 1_555
C2_4 N1_4 1_555 1_555
H2_4 C2_4 1_555 1_555
C3_4 N3_4 1_555 1_555
C4_4 C3_4 1_555 1_555
H3_4 C4_4 1_555 1_555
C5_4 C3_4 1_555 1_555
H4_4 C5_4 1_555 1_555
C6_4 C4_4 1_555 1_555
H5_4 C6_4 1_555 1_555
C7_4 C5_4 1_555 1_555
H6_4 C7_4 1_555 1_555
C8_4 C6_4 1_555 1_555
C9_4 C8_4 1_555 1_555
C7_4 C8_4 1_555 1_555

#END
