
###############################################################################
#
# This file contains modified crystal structure data generated from the
# MOF subset of the Cambridge Structural Database (CSD) v543 
# hosted by the Cambridge Crystallographic Data Centre (CCDC).
#
# This work is licensed under the Creative Commons
# Attribution-NonCommercial-ShareAlike 4.0 International License.
# To view a copy of this license, visit
# http://creativecommons.org/licenses/by-nc-sa/4.0/
# or send a letter to
# Creative Commons, PO Box 1866, Mountain View, CA 94042, USA.
#
# CIF created using the CSD Python API on 29 September 2022
# The structure has been converted into the P1 space group
# The structure has a 3D framework
# The original CSD entry LUFJEE is in the monoclinic crystal system
# The framework has been calculated to contain at least 10.0% void space
# The void calculation uses a probe of radius 1.32A, grid spacing 0.4
#
###############################################################################

data_LUFJEE
_chemical_formula_moiety         '(C168 H96 Co2 N8 O16)n'
_symmetry_cell_setting           triclinic
_symmetry_space_group_name_H-M   'P 1'
_symmetry_Int_Tables_number      1
_space_group_name_Hall           'P 1'
loop_
_symmetry_equiv_pos_site_id
_symmetry_equiv_pos_as_xyz
1 x,y,z
_cell_length_a                   10.6782(6)
_cell_length_b                   23.1680(14)
_cell_length_c                   15.9932(9)
_cell_angle_alpha                90
_cell_angle_beta                 100.242(2)
_cell_angle_gamma                90
_cell_volume                     3893.55
loop_
_atom_site_label
_atom_site_type_symbol
_atom_site_fract_x
_atom_site_fract_y
_atom_site_fract_z
Co4 Co 0.14991(4) 0.55401(2) 0.53210(3)
O5 O 0.0062(2) 0.41630(10) 0.54741(15)
Co4_2 Co 0.85009(4) 0.05401(2) 0.96790(3)
O5_2 O 0.9938(2) 0.91630(10) 0.95259(15)
N2 N 0.0622(3) 0.54751(13) 0.64458(19)
C40 C 0.0513(5) 0.5035(2) 0.7788(3)
H23 H 0.085999 0.477508 0.820912
C41 C 0.1075(4) 0.51213(19) 0.7086(3)
H24 H 0.181831 0.491934 0.705701
O2 O 0.1780(2) 0.46758(11) 0.53572(15)
O3 O 0.8001(3) 0.14203(11) 0.93249(18)
O4 O 0.6655(2) 0.07347(12) 0.88771(16)
N1 N 0.2469(3) 0.55250(12) 0.42523(17)
C1 C 0.3338(4) 0.37603(19) 0.6046(3)
H1 H 0.368624 0.402517 0.571446
C2 C 0.4107(4) 0.3347(2) 0.6494(3)
H2 H 0.496275 0.333231 0.644758
C3 C 0.3638(4) 0.29537(17) 0.7011(3)
C4 C 0.2365(4) 0.2985(2) 0.7026(3)
H3 H 0.200946 0.272233 0.735599
C5 C 0.1589(4) 0.3395(2) 0.6570(3)
H4 H 0.072695 0.340171 0.659814
C6 C 0.2066(3) 0.37862(15) 0.6081(2)
C7 C 0.1230(3) 0.42478(16) 0.5600(2)
C8 C 0.4471(4) 0.25196(17) 0.7509(3)
C9 C 0.5722(4) 0.26461(19) 0.7855(3)
H5 H 0.604472 0.300919 0.776423
C10 C 0.6506(4) 0.22462(19) 0.8331(3)
H6 H 0.733049 0.234967 0.857879
C11 C 0.6076(3) 0.16961(17) 0.8443(2)
C12 C 0.4838(4) 0.15615(19) 0.8091(3)
H7 H 0.453031 0.119189 0.815659
C13 C 0.4046(4) 0.19717(19) 0.7638(3)
H8 H 0.320817 0.187403 0.741698
C14 C 0.6953(4) 0.12574(18) 0.8913(2)
C15 C 0.6540(5) 0.4789(3) 0.0908(3)
C16 C 0.3474(4) 0.51755(17) 0.4285(2)
H9 H 0.372514 0.496101 0.477740
C17 C 0.4156(4) 0.51117(17) 0.3646(3)
H10 H 0.484495 0.486026 0.370760
C18 C 0.3810(4) 0.54247(19) 0.2909(2)
C19 C 0.2768(4) 0.5786(2) 0.2857(3)
H11 H 0.249466 0.600229 0.236830
C20 C 0.2137(4) 0.58239(17) 0.3538(2)
H12 H 0.144310 0.607153 0.349378
C21 C 0.4523(5) 0.5379(2) 0.2236(3)
C22 C 0.5181(5) 0.5337(3) 0.1705(3)
C23 C 0.5945(5) 0.5313(3) 0.1061(3)
C24 C 0.6419(7) 0.4275(3) 0.1376(4)
H13 H 0.593138 0.428039 0.180336
C25 C 0.6991(9) 0.3788(4) 0.1213(5)
H14 H 0.688160 0.345594 0.151884
C26 C 0.7759(9) 0.3769(4) 0.0584(6)
H15 H 0.817342 0.342920 0.048707
C27 C 0.7892(7) 0.4238(3) 0.0129(4)
C28 C 0.7319(5) 0.4766(3) 0.0264(3)
C33 C 0.5693(9) 0.6830(4) 0.0310(5)
H19 H 0.530124 0.717319 0.041982
C34 C 0.5546(7) 0.6349(3) 0.0753(4)
H20 H 0.505847 0.636888 0.117936
C42 C 0.6097(5) 0.5816(3) 0.0597(3)
O6 O 0.1999(3) 0.64203(11) 0.56751(18)
O7 O 0.3345(2) 0.57347(12) 0.61229(16)
N3 N 0.9378(3) 0.04751(13) 0.85542(19)
O2_2 O 0.8220(2) 0.96758(11) 0.96428(15)
C1_2 C 0.6662(4) 0.87603(19) 0.8954(3)
H1_2 H 0.631376 0.902517 0.928554
C2_2 C 0.5893(4) 0.8347(2) 0.8506(3)
H2_2 H 0.503725 0.833231 0.855242
C3_2 C 0.6362(4) 0.79537(17) 0.7989(3)
C4_2 C 0.7635(4) 0.7985(2) 0.7974(3)
H3_2 H 0.799054 0.772233 0.764401
C5_2 C 0.8411(4) 0.8395(2) 0.8430(3)
H4_2 H 0.927305 0.840171 0.840186
C6_2 C 0.7934(3) 0.87862(15) 0.8919(2)
C7_2 C 0.8770(3) 0.92478(16) 0.9400(2)
C8_2 C 0.5529(4) 0.75196(17) 0.7491(3)
C9_2 C 0.4278(4) 0.76461(19) 0.7145(3)
H5_2 H 0.395528 0.800919 0.723577
C10_2 C 0.3494(4) 0.72462(19) 0.6669(3)
H6_2 H 0.266951 0.734967 0.642121
C11_2 C 0.3924(3) 0.66961(17) 0.6557(2)
C12_2 C 0.5162(4) 0.65615(19) 0.6909(3)
H7_2 H 0.546969 0.619189 0.684341
C13_2 C 0.5954(4) 0.69717(19) 0.7362(3)
H8_2 H 0.679183 0.687403 0.758302
C14_2 C 0.3047(4) 0.62574(18) 0.6087(2)
C40_2 C 0.9487(5) 0.0035(2) 0.7212(3)
C41_2 C 0.8925(4) 0.01213(19) 0.7914(3)
H16 H 0.161703 0.578579 0.029518
C29 C 0.2556(5) 0.4736(3) 0.0211(3)
C30 C 0.3130(5) 0.4214(3) 0.0054(3)
C31 C 0.2983(7) 0.3705(4) 0.0502(4)
H17 H 0.249225 0.371493 0.092769
C32 C 0.3528(9) 0.3198(4) 0.0338(5)
H18 H 0.339890 0.286799 0.064351
C35 C 0.1812(5) 0.4742(3) 0.0874(3)
C36 C 0.1207(5) 0.4725(3) 0.1439(3)
C37 C 0.0569(4) 0.4660(2) 0.2144(3)
C38 C 0.1036(4) 0.4289(2) 0.2796(3)
H21 H 0.176542 0.407415 0.277567
C39 C 0.0423(4) 0.4238(2) 0.3475(3)
H22 H 0.076237 0.398518 0.390801
Co1 Co 0.85009(4) 0.44599(2) 0.46790(3)
O1 O 0.9938(2) 0.58370(10) 0.45259(15)
O2_3 O 0.8220(2) 0.53242(11) 0.46428(15)
O3_2 O 0.1999(3) 0.85797(11) 0.06751(18)
O4_2 O 0.3345(2) 0.92653(12) 0.11229(16)
N1_2 N 0.7531(3) 0.44750(12) 0.57477(17)
C1_3 C 0.6662(4) 0.62397(19) 0.3954(3)
H1_3 H 0.631376 0.597483 0.428554
C2_3 C 0.5893(4) 0.6653(2) 0.3506(3)
H2_3 H 0.503725 0.666769 0.355242
C3_3 C 0.6362(4) 0.70463(17) 0.2989(3)
C4_3 C 0.7635(4) 0.7015(2) 0.2974(3)
H3_3 H 0.799054 0.727767 0.264401
C5_3 C 0.8411(4) 0.6605(2) 0.3430(3)
H4_3 H 0.927305 0.659829 0.340186
C6_3 C 0.7934(3) 0.62138(15) 0.3919(2)
C7_3 C 0.8770(3) 0.57522(16) 0.4400(2)
C8_3 C 0.5529(4) 0.74804(17) 0.2491(3)
C9_3 C 0.4278(4) 0.73539(19) 0.2145(3)
H5_3 H 0.395528 0.699081 0.223577
C10_3 C 0.3494(4) 0.77538(19) 0.1669(3)
H6_3 H 0.266951 0.765033 0.142121
C11_3 C 0.3924(3) 0.83039(17) 0.1557(2)
C12_3 C 0.5162(4) 0.84385(19) 0.1909(3)
H7_3 H 0.546969 0.880811 0.184341
C13_3 C 0.5954(4) 0.80283(19) 0.2362(3)
H8_3 H 0.679183 0.812597 0.258302
C14_3 C 0.3047(4) 0.87426(18) 0.1087(2)
C15_2 C 0.3460(5) 0.5211(3) 0.9092(3)
C16_2 C 0.6526(4) 0.48245(17) 0.5715(2)
H9_2 H 0.627486 0.503899 0.522260
C17_2 C 0.5844(4) 0.48883(17) 0.6354(3)
H10_2 H 0.515505 0.513974 0.629240
C18_2 C 0.6190(4) 0.45753(19) 0.7091(2)
C19_2 C 0.7232(4) 0.4214(2) 0.7143(3)
H11_2 H 0.750534 0.399771 0.763170
C20_2 C 0.7863(4) 0.41761(17) 0.6462(2)
H12_2 H 0.855690 0.392847 0.650622
C21_2 C 0.5477(5) 0.4621(2) 0.7764(3)
C22_2 C 0.4819(5) 0.4663(3) 0.8295(3)
C23_2 C 0.4055(5) 0.4687(3) 0.8939(3)
C24_2 C 0.3581(7) 0.5725(3) 0.8624(4)
H13_2 H 0.406862 0.571961 0.819664
C25_2 C 0.3009(9) 0.6212(4) 0.8787(5)
H14_2 H 0.311840 0.654406 0.848116
C26_2 C 0.2241(9) 0.6231(4) 0.9416(6)
H15_2 H 0.182658 0.657080 0.951293
C27_2 C 0.2108(7) 0.5762(3) 0.9871(4)
C28_2 C 0.2681(5) 0.5234(3) 0.9736(3)
C33_2 C 0.4307(9) 0.3170(4) 0.9690(5)
H19_2 H 0.469876 0.282681 0.958018
C34_2 C 0.4454(7) 0.3651(3) 0.9247(4)
H20_2 H 0.494153 0.363112 0.882064
C42_2 C 0.3903(5) 0.4184(3) 0.9403(3)
Co3 Co 0.14991(4) 0.94599(2) 0.03210(3)
O6_2 O 0.8001(3) 0.35797(11) 0.43249(18)
O7_2 O 0.6655(2) 0.42653(12) 0.38771(16)
N3_2 N 0.9378(3) 0.45249(13) 0.35542(19)
C40_3 C 0.9487(5) 0.4965(2) 0.2212(3)
H23_2 H 0.914001 0.522492 0.179088
C41_3 C 0.8925(4) 0.48787(19) 0.2914(3)
H24_2 H 0.818169 0.508066 0.294299
N2_2 N 0.0622(3) 0.95249(13) 0.14458(19)
C40_4 C 0.0513(5) 0.9965(2) 0.2788(3)
C41_4 C 0.1075(4) 0.98787(19) 0.2086(3)
O1_2 O 0.0062(2) 0.08370(10) 0.04741(15)
O2_4 O 0.1780(2) 0.03242(11) 0.03572(15)
C1_4 C 0.3338(4) 0.12397(19) 0.1046(3)
H1_4 H 0.368624 0.097483 0.071446
C2_4 C 0.4107(4) 0.1653(2) 0.1494(3)
H2_4 H 0.496275 0.166769 0.144758
C3_4 C 0.3638(4) 0.20463(17) 0.2011(3)
C4_4 C 0.2365(4) 0.2015(2) 0.2026(3)
H3_4 H 0.200946 0.227767 0.235599
C5_4 C 0.1589(4) 0.1605(2) 0.1570(3)
H4_4 H 0.072695 0.159829 0.159814
C6_4 C 0.2066(3) 0.12138(15) 0.1081(2)
C7_4 C 0.1230(3) 0.07522(16) 0.0600(2)
C8_4 C 0.4471(4) 0.24804(17) 0.2509(3)
C9_4 C 0.5722(4) 0.23539(19) 0.2855(3)
H5_4 H 0.604472 0.199081 0.276423
C10_4 C 0.6506(4) 0.27538(19) 0.3331(3)
H6_4 H 0.733049 0.265033 0.357879
C11_4 C 0.6076(3) 0.33039(17) 0.3443(2)
C12_4 C 0.4838(4) 0.34385(19) 0.3091(3)
H7_4 H 0.453031 0.380811 0.315659
C13_4 C 0.4046(4) 0.30283(19) 0.2638(3)
H8_4 H 0.320817 0.312597 0.241698
C14_4 C 0.6953(4) 0.37426(18) 0.3913(2)
H23_3 H 0.085999 0.022492 0.320912
H24_3 H 0.181831 0.008066 0.205701
C15_3 C 0.6540(5) 0.0211(3) 0.5908(3)
H9_3 H 0.372514 0.003899 0.977740
H10_3 H 0.484495 0.013974 0.870760
C24_3 C 0.6419(7) 0.0725(3) 0.6376(4)
H13_3 H 0.593138 0.071961 0.680336
C25_3 C 0.6991(9) 0.1212(4) 0.6213(5)
H14_3 H 0.688160 0.154406 0.651884
C26_3 C 0.7759(9) 0.1231(4) 0.5584(6)
H15_3 H 0.817342 0.157080 0.548707
C27_3 C 0.7892(7) 0.0762(3) 0.5129(4)
H16_2 H 0.838297 0.078579 0.470482
C28_3 C 0.7319(5) 0.0234(3) 0.5264(3)
N1_3 N 0.2469(3) 0.94750(12) 0.92523(17)
C16_3 C 0.3474(4) 0.98245(17) 0.9285(2)
C17_3 C 0.4156(4) 0.98883(17) 0.8646(3)
C18_3 C 0.3810(4) 0.95753(19) 0.7909(2)
C19_3 C 0.2768(4) 0.9214(2) 0.7857(3)
H11_3 H 0.249466 0.899771 0.736830
C20_3 C 0.2137(4) 0.91761(17) 0.8538(2)
H12_3 H 0.144310 0.892847 0.849378
C21_3 C 0.4523(5) 0.9621(2) 0.7236(3)
C22_3 C 0.5181(5) 0.9663(3) 0.6705(3)
C23_3 C 0.5945(5) 0.9687(3) 0.6061(3)
C29_2 C 0.7444(5) 0.9736(3) 0.4789(3)
C30_2 C 0.6870(5) 0.9214(3) 0.4946(3)
C31_2 C 0.7017(7) 0.8705(4) 0.4498(4)
H17_2 H 0.750775 0.871493 0.407231
C32_2 C 0.6472(9) 0.8198(4) 0.4662(5)
H18_2 H 0.660110 0.786799 0.435649
C33_3 C 0.5693(9) 0.8170(4) 0.5310(5)
H19_3 H 0.530124 0.782681 0.541982
C34_3 C 0.5546(7) 0.8651(3) 0.5753(4)
H20_3 H 0.505847 0.863112 0.617936
C35_2 C 0.8188(5) 0.9742(3) 0.4126(3)
C36_2 C 0.8793(5) 0.9725(3) 0.3561(3)
C37_2 C 0.9431(4) 0.9660(2) 0.2856(3)
C38_2 C 0.8964(4) 0.9289(2) 0.2204(3)
H21_2 H 0.823458 0.907415 0.222433
C39_2 C 0.9577(4) 0.9238(2) 0.1525(3)
H22_2 H 0.923763 0.898518 0.109199
C42_3 C 0.6097(5) 0.9184(3) 0.5597(3)
H16_3 H 0.838297 0.421421 0.970482
C29_3 C 0.7444(5) 0.5264(3) 0.9789(3)
C30_3 C 0.6870(5) 0.5786(3) 0.9946(3)
C31_3 C 0.7017(7) 0.6295(4) 0.9498(4)
H17_3 H 0.750775 0.628507 0.907231
C32_3 C 0.6472(9) 0.6802(4) 0.9662(5)
H18_3 H 0.660110 0.713201 0.935649
C35_3 C 0.8188(5) 0.5258(3) 0.9126(3)
C36_3 C 0.8793(5) 0.5275(3) 0.8561(3)
C37_3 C 0.9431(4) 0.5340(2) 0.7856(3)
C38_3 C 0.8964(4) 0.5711(2) 0.7204(3)
H21_3 H 0.823458 0.592585 0.722433
C39_3 C 0.9577(4) 0.5762(2) 0.6525(3)
H22_3 H 0.923763 0.601482 0.609199
N1_4 N 0.7531(3) 0.05250(12) 0.07477(17)
C16_4 C 0.6526(4) 0.01755(17) 0.0715(2)
C17_4 C 0.5844(4) 0.01117(17) 0.1354(3)
C18_4 C 0.6190(4) 0.04247(19) 0.2091(2)
C19_4 C 0.7232(4) 0.0786(2) 0.2143(3)
H11_4 H 0.750534 0.100229 0.263170
C20_4 C 0.7863(4) 0.08239(17) 0.1462(2)
H12_4 H 0.855690 0.107153 0.150622
C21_4 C 0.5477(5) 0.0379(2) 0.2764(3)
C22_4 C 0.4819(5) 0.0337(3) 0.3295(3)
C23_4 C 0.4055(5) 0.0313(3) 0.3939(3)
C29_4 C 0.2556(5) 0.0264(3) 0.5211(3)
C30_4 C 0.3130(5) 0.0786(3) 0.5054(3)
C31_4 C 0.2983(7) 0.1295(4) 0.5502(4)
H17_4 H 0.249225 0.128507 0.592769
C32_4 C 0.3528(9) 0.1802(4) 0.5338(5)
H18_4 H 0.339890 0.213201 0.564351
C33_4 C 0.4307(9) 0.1830(4) 0.4690(5)
H19_4 H 0.469876 0.217319 0.458018
C34_4 C 0.4454(7) 0.1349(3) 0.4247(4)
H20_4 H 0.494153 0.136888 0.382064
C35_4 C 0.1812(5) 0.0258(3) 0.5874(3)
C36_4 C 0.1207(5) 0.0275(3) 0.6439(3)
C37_4 C 0.0569(4) 0.0340(2) 0.7144(3)
C38_4 C 0.1036(4) 0.0711(2) 0.7796(3)
H21_4 H 0.176542 0.092585 0.777567
C39_4 C 0.0423(4) 0.0762(2) 0.8475(3)
H22_4 H 0.076237 0.101482 0.890801
C42_4 C 0.3903(5) 0.0816(3) 0.4403(3)
C15_4 C 0.3460(5) 0.9789(3) 0.4092(3)
H9_4 H 0.627486 0.996101 0.022260
H10_4 H 0.515505 0.986026 0.129240
C24_4 C 0.3581(7) 0.9275(3) 0.3624(4)
H13_4 H 0.406862 0.928039 0.319664
C25_4 C 0.3009(9) 0.8788(4) 0.3787(5)
H14_4 H 0.311840 0.845594 0.348116
C26_4 C 0.2241(9) 0.8769(4) 0.4416(6)
H15_4 H 0.182658 0.842920 0.451293
C27_4 C 0.2108(7) 0.9238(3) 0.4871(4)
H16_4 H 0.161703 0.921421 0.529518
C28_4 C 0.2681(5) 0.9766(3) 0.4736(3)
H23_4 H 0.914001 0.977508 0.679088
H24_4 H 0.818169 0.991934 0.794299
loop_
_geom_bond_atom_site_label_1
_geom_bond_atom_site_label_2
_geom_bond_site_symmetry_1
_geom_bond_site_symmetry_2
H23 C40 1_555 1_555
C41 N2 1_555 1_555
H24 C41 1_555 1_555
Co4 N2 1_555 1_555
C40 C41 1_555 1_555
Co4 O2 1_555 1_555
O5 C7 1_555 1_555
O2 C7 1_555 1_555
O3 C14 1_555 1_555
O4 C14 1_555 1_555
N1 Co4 1_555 1_555
C1 H1 1_555 1_555
C2 C1 1_555 1_555
H2 C2 1_555 1_555
C3 C2 1_555 1_555
C4 C3 1_555 1_555
H3 C4 1_555 1_555
C5 C4 1_555 1_555
H4 C5 1_555 1_555
C6 C1 1_555 1_555
C7 C6 1_555 1_555
C8 C3 1_555 1_555
C9 C8 1_555 1_555
H5 C9 1_555 1_555
C10 C9 1_555 1_555
H6 C10 1_555 1_555
C11 C10 1_555 1_555
C12 C11 1_555 1_555
H7 C12 1_555 1_555
C13 C8 1_555 1_555
H8 C13 1_555 1_555
C14 C11 1_555 1_555
C15 C23 1_555 1_555
C16 N1 1_555 1_555
H9 C16 1_555 1_555
C17 C16 1_555 1_555
H10 C17 1_555 1_555
C18 C17 1_555 1_555
C19 C18 1_555 1_555
H11 C19 1_555 1_555
C20 N1 1_555 1_555
H12 C20 1_555 1_555
C21 C18 1_555 1_555
C22 C21 1_555 1_555
C23 C22 1_555 1_555
C24 C15 1_555 1_555
H13 C24 1_555 1_555
C25 C24 1_555 1_555
H14 C25 1_555 1_555
C26 C25 1_555 1_555
H15 C26 1_555 1_555
C27 C26 1_555 1_555
C28 C15 1_555 1_555
H19 C33 1_555 1_555
C34 C33 1_555 1_555
H20 C34 1_555 1_555
C42 C23 1_555 1_555
Co4_2 O3 1_555 1_555
O6 Co4 1_555 1_555
O7 Co4 1_555 1_555
O4 Co4_2 1_555 1_555
C5 C6 1_555 1_555
C12 C13 1_555 1_555
C19 C20 1_555 1_555
C27 C28 1_555 1_555
C34 C42 1_555 1_555
N3 Co4_2 1_555 1_555
O5_2 C7_2 1_555 1_555
O2_2 C7_2 1_555 1_555
O6 C14_2 1_555 1_555
O7 C14_2 1_555 1_555
C1_2 H1_2 1_555 1_555
C2_2 C1_2 1_555 1_555
H2_2 C2_2 1_555 1_555
C3_2 C2_2 1_555 1_555
C4_2 C3_2 1_555 1_555
H3_2 C4_2 1_555 1_555
C5_2 C4_2 1_555 1_555
H4_2 C5_2 1_555 1_555
C6_2 C1_2 1_555 1_555
C7_2 C6_2 1_555 1_555
C8_2 C3_2 1_555 1_555
C9_2 C8_2 1_555 1_555
H5_2 C9_2 1_555 1_555
C10_2 C9_2 1_555 1_555
H6_2 C10_2 1_555 1_555
C11_2 C10_2 1_555 1_555
C12_2 C11_2 1_555 1_555
H7_2 C12_2 1_555 1_555
C13_2 C8_2 1_555 1_555
H8_2 C13_2 1_555 1_555
C14_2 C11_2 1_555 1_555
C5_2 C6_2 1_555 1_555
C12_2 C13_2 1_555 1_555
C41_2 N3 1_555 1_555
C40_2 C41_2 1_555 1_555
C30 C29 1_555 1_555
C31 C30 1_555 1_555
H17 C31 1_555 1_555
C32 C31 1_555 1_555
H18 C32 1_555 1_555
C35 C29 1_555 1_555
C36 C35 1_555 1_555
C37 C36 1_555 1_555
C38 C37 1_555 1_555
H21 C38 1_555 1_555
C39 C38 1_555 1_555
H22 C39 1_555 1_555
Co1 O2_3 1_555 1_555
O1 C7_3 1_555 1_555
O2_3 C7_3 1_555 1_555
O3_2 C14_3 1_555 1_555
O4_2 C14_3 1_555 1_555
N1_2 Co1 1_555 1_555
C1_3 H1_3 1_555 1_555
C2_3 C1_3 1_555 1_555
H2_3 C2_3 1_555 1_555
C3_3 C2_3 1_555 1_555
C4_3 C3_3 1_555 1_555
H3_3 C4_3 1_555 1_555
C5_3 C4_3 1_555 1_555
H4_3 C5_3 1_555 1_555
C6_3 C1_3 1_555 1_555
C7_3 C6_3 1_555 1_555
C8_3 C3_3 1_555 1_555
C9_3 C8_3 1_555 1_555
H5_3 C9_3 1_555 1_555
C10_3 C9_3 1_555 1_555
H6_3 C10_3 1_555 1_555
C11_3 C10_3 1_555 1_555
C12_3 C11_3 1_555 1_555
H7_3 C12_3 1_555 1_555
C13_3 C8_3 1_555 1_555
H8_3 C13_3 1_555 1_555
C14_3 C11_3 1_555 1_555
C15_2 C23_2 1_555 1_555
C16_2 N1_2 1_555 1_555
H9_2 C16_2 1_555 1_555
C17_2 C16_2 1_555 1_555
H10_2 C17_2 1_555 1_555
C18_2 C17_2 1_555 1_555
C19_2 C18_2 1_555 1_555
H11_2 C19_2 1_555 1_555
C20_2 N1_2 1_555 1_555
H12_2 C20_2 1_555 1_555
C21_2 C18_2 1_555 1_555
C22_2 C21_2 1_555 1_555
C23_2 C22_2 1_555 1_555
C24_2 C15_2 1_555 1_555
H13_2 C24_2 1_555 1_555
C25_2 C24_2 1_555 1_555
H14_2 C25_2 1_555 1_555
C26_2 C25_2 1_555 1_555
H15_2 C26_2 1_555 1_555
C27_2 C26_2 1_555 1_555
C28_2 C15_2 1_555 1_555
H19_2 C33_2 1_555 1_555
C34_2 C33_2 1_555 1_555
H20_2 C34_2 1_555 1_555
C42_2 C23_2 1_555 1_555
Co3 O3_2 1_555 1_555
O6_2 Co1 1_555 1_555
O7_2 Co1 1_555 1_555
N3_2 Co1 1_555 1_555
O4_2 Co3 1_555 1_555
C5_3 C6_3 1_555 1_555
C12_3 C13_3 1_555 1_555
C19_2 C20_2 1_555 1_555
C27_2 C28_2 1_555 1_555
C34_2 C42_2 1_555 1_555
H23_2 C40_3 1_555 1_555
C41_3 N3_2 1_555 1_555
H24_2 C41_3 1_555 1_555
C40_3 C41_3 1_555 1_555
C41_4 N2_2 1_555 1_555
Co3 N2_2 1_555 1_555
C40_4 C41_4 1_555 1_555
O1_2 C7_4 1_555 1_555
O2_4 C7_4 1_555 1_555
O6_2 C14_4 1_555 1_555
O7_2 C14_4 1_555 1_555
C1_4 H1_4 1_555 1_555
C2_4 C1_4 1_555 1_555
H2_4 C2_4 1_555 1_555
C3_4 C2_4 1_555 1_555
C4_4 C3_4 1_555 1_555
H3_4 C4_4 1_555 1_555
C5_4 C4_4 1_555 1_555
H4_4 C5_4 1_555 1_555
C6_4 C1_4 1_555 1_555
C7_4 C6_4 1_555 1_555
C8_4 C3_4 1_555 1_555
C9_4 C8_4 1_555 1_555
H5_4 C9_4 1_555 1_555
C10_4 C9_4 1_555 1_555
H6_4 C10_4 1_555 1_555
C11_4 C10_4 1_555 1_555
C12_4 C11_4 1_555 1_555
H7_4 C12_4 1_555 1_555
C13_4 C8_4 1_555 1_555
H8_4 C13_4 1_555 1_555
C14_4 C11_4 1_555 1_555
C5_4 C6_4 1_555 1_555
C12_4 C13_4 1_555 1_555
C24_3 C15_3 1_555 1_555
H13_3 C24_3 1_555 1_555
C25_3 C24_3 1_555 1_555
H14_3 C25_3 1_555 1_555
C26_3 C25_3 1_555 1_555
H15_3 C26_3 1_555 1_555
C27_3 C26_3 1_555 1_555
H16_2 C27_3 1_555 1_555
C28_3 C15_3 1_555 1_555
C27_3 C28_3 1_555 1_555
C16_3 N1_3 1_555 1_555
C17_3 C16_3 1_555 1_555
C18_3 C17_3 1_555 1_555
C19_3 C18_3 1_555 1_555
H11_3 C19_3 1_555 1_555
C20_3 N1_3 1_555 1_555
H12_3 C20_3 1_555 1_555
C21_3 C18_3 1_555 1_555
C22_3 C21_3 1_555 1_555
C23_3 C22_3 1_555 1_555
C30_2 C29_2 1_555 1_555
C31_2 C30_2 1_555 1_555
H17_2 C31_2 1_555 1_555
C32_2 C31_2 1_555 1_555
H18_2 C32_2 1_555 1_555
C33_3 C32_2 1_555 1_555
H19_3 C33_3 1_555 1_555
C34_3 C33_3 1_555 1_555
H20_3 C34_3 1_555 1_555
C35_2 C29_2 1_555 1_555
C36_2 C35_2 1_555 1_555
C37_2 C36_2 1_555 1_555
C38_2 C37_2 1_555 1_555
H21_2 C38_2 1_555 1_555
C39_2 C38_2 1_555 1_555
H22_2 C39_2 1_555 1_555
C42_3 C23_3 1_555 1_555
C19_3 C20_3 1_555 1_555
C30_2 C42_3 1_555 1_555
C34_3 C42_3 1_555 1_555
C30_3 C29_3 1_555 1_555
C31_3 C30_3 1_555 1_555
H17_3 C31_3 1_555 1_555
C32_3 C31_3 1_555 1_555
H18_3 C32_3 1_555 1_555
C35_3 C29_3 1_555 1_555
C36_3 C35_3 1_555 1_555
C37_3 C36_3 1_555 1_555
C38_3 C37_3 1_555 1_555
H21_3 C38_3 1_555 1_555
C39_3 C38_3 1_555 1_555
H22_3 C39_3 1_555 1_555
C16_4 N1_4 1_555 1_555
C17_4 C16_4 1_555 1_555
C18_4 C17_4 1_555 1_555
C19_4 C18_4 1_555 1_555
H11_4 C19_4 1_555 1_555
C20_4 N1_4 1_555 1_555
H12_4 C20_4 1_555 1_555
C21_4 C18_4 1_555 1_555
C22_4 C21_4 1_555 1_555
C23_4 C22_4 1_555 1_555
C30_4 C29_4 1_555 1_555
C31_4 C30_4 1_555 1_555
H17_4 C31_4 1_555 1_555
C32_4 C31_4 1_555 1_555
H18_4 C32_4 1_555 1_555
C33_4 C32_4 1_555 1_555
H19_4 C33_4 1_555 1_555
C34_4 C33_4 1_555 1_555
H20_4 C34_4 1_555 1_555
C35_4 C29_4 1_555 1_555
C36_4 C35_4 1_555 1_555
C37_4 C36_4 1_555 1_555
C38_4 C37_4 1_555 1_555
H21_4 C38_4 1_555 1_555
C39_4 C38_4 1_555 1_555
H22_4 C39_4 1_555 1_555
C42_4 C23_4 1_555 1_555
C19_4 C20_4 1_555 1_555
C30_4 C42_4 1_555 1_555
C34_4 C42_4 1_555 1_555
C24_4 C15_4 1_555 1_555
H13_4 C24_4 1_555 1_555
C25_4 C24_4 1_555 1_555
H14_4 C25_4 1_555 1_555
C26_4 C25_4 1_555 1_555
H15_4 C26_4 1_555 1_555
C27_4 C26_4 1_555 1_555
H16_4 C27_4 1_555 1_555
C28_4 C15_4 1_555 1_555
C27_4 C28_4 1_555 1_555

#END
