
###############################################################################
#
# This file contains modified crystal structure data generated from the
# MOF subset of the Cambridge Structural Database (CSD) v543 
# hosted by the Cambridge Crystallographic Data Centre (CCDC).
#
# This work is licensed under the Creative Commons
# Attribution-NonCommercial-ShareAlike 4.0 International License.
# To view a copy of this license, visit
# http://creativecommons.org/licenses/by-nc-sa/4.0/
# or send a letter to
# Creative Commons, PO Box 1866, Mountain View, CA 94042, USA.
#
# CIF created using the CSD Python API on 29 September 2022
# The structure has been converted into the P1 space group
# The structure has a 3D framework
# The original CSD entry LUFNEG is in the monoclinic crystal system
# The framework has been calculated to contain at least 10.0% void space
# The void calculation uses a probe of radius 1.32A, grid spacing 0.4
# H atom positions have been added when not included in the experimental data
#
###############################################################################

data_LUFNEG
_chemical_formula_moiety         '(C112 H96 Mn8 N16 O38)n'
_symmetry_cell_setting           triclinic
_symmetry_space_group_name_H-M   'P 1'
_symmetry_Int_Tables_number      1
_space_group_name_Hall           'P 1'
loop_
_symmetry_equiv_pos_site_id
_symmetry_equiv_pos_as_xyz
1 x,y,z
_cell_length_a                   14.918(5)
_cell_length_b                   15.596(5)
_cell_length_c                   16.442(5)
_cell_angle_alpha                90
_cell_angle_beta                 105.606(5)
_cell_angle_gamma                90
_cell_volume                     3684.39
loop_
_atom_site_label
_atom_site_type_symbol
_atom_site_fract_x
_atom_site_fract_y
_atom_site_fract_z
N1 N 0.0712(5) 0.1084(4) 0.4236(4)
C23 C 0.0177(7) 0.1143(5) 0.4777(5)
H15 H 0.0456 0.1350 0.5316
C26 C 0.0247(7) 0.0765(5) 0.3457(5)
H18 H 0.0576 0.0709 0.3054
Mn6 Mn 0.22412(9) 0.14594(6) 0.45401(6)
Mn1 Mn 0.74609(9) 0.06840(6) 0.03709(6)
O2 O 0.7379(4) 0.4890(3) 0.3464(3)
O3 O 0.7441(4) 0.4175(3) 0.4633(3)
O4 O 0.7253(4) 0.3305(3) 0.0812(3)
C5 C 0.7303(5) 0.3356(4) 0.3369(4)
C7 C 0.7377(5) 0.4188(4) 0.3853(4)
N2 N 0.7177(5) 0.1030(3) 0.3745(4)
H2 H 0.6844 0.0948 0.4081
O8 O 0.7550(5) 0.1922(3) 0.0898(3)
C8 C 0.7323(5) 0.3364(4) 0.2526(4)
H3 H 0.7351 0.3884 0.2256
C10 C 0.7301(5) 0.2604(4) 0.2090(4)
C11 C 0.7211(6) 0.1802(4) 0.3338(4)
C12 C 0.7264(5) 0.1826(4) 0.2491(4)
H7 H 0.7273 0.1316 0.2200
C14 C 0.7802(6) 0.0346(4) 0.3589(4)
H9 H 0.7607 0.0190 0.2997
C18 C 0.7362(5) 0.2602(4) 0.1188(4)
C20 C 0.7246(5) 0.2590(4) 0.3771(4)
H13 H 0.7229 0.2591 0.4332
C21 C 0.8813(6) 0.0595(4) 0.3814(5)
C22 C 0.9266(6) 0.0925(5) 0.4601(5)
H14 H 0.8944 0.0997 0.5008
C24 C 0.9329(6) 0.0526(5) 0.3238(5)
H16 H 0.9055 0.0316 0.2699
O10 O 0.5992(5) 0.0582(5) 0.0292(5)
Mn3 Mn 0.75391(9) 0.56840(6) 0.46291(6)
N6 N 0.9024(5) 0.0704(4) 0.0620(4)
H21 H 0.895052 0.279897 0.00522535
H24 H 0.591264 0.0450441 0.0859455
Mn2 Mn 0.72412(9) 0.35406(6) 0.95401(6)
O5 O 0.7454(4) 0.0036(3) 0.5351(3)
O6 O 0.7224(4) 0.0952(3) 0.9068(3)
C1 C 0.7193(5) 0.1635(4) 0.7767(4)
O7 O 0.6932(4) 0.2354(3) 0.8948(3)
C2 C 0.7386(5) 0.0859(4) 0.6554(4)
C3 C 0.7111(6) 0.1658(4) 0.8667(4)
C4 C 0.7494(5) 0.0031(4) 0.6125(4)
C6 C 0.7266(5) 0.0860(4) 0.7373(4)
H1 H 0.7235 0.0345 0.7649
N3 N 0.7372(5) 0.3180(3) 0.6119(4)
H4 H 0.7616 0.3180 0.5703
N4 N 0.4024(5) 0.4296(4) 0.5620(4)
O9 O 0.8775(5) 0.3384(4) 0.9827(4)
C9 C 0.7018(6) 0.3980(4) 0.6351(4)
H5 H 0.7229 0.4042 0.6960
H6 H 0.7285 0.4448 0.6105
C13 C 0.7407(5) 0.1640(4) 0.6150(4)
H8 H 0.7482 0.1640 0.5607
C15 C 0.7201(5) 0.2403(4) 0.7341(4)
H11 H 0.7125 0.2917 0.7602
C16 C 0.7319(5) 0.2418(4) 0.6531(4)
C17 C 0.5560(7) 0.4827(5) 0.6236(5)
H12 H 0.5932 0.5277 0.6507
C19 C 0.5970(6) 0.4067(4) 0.6080(4)
C25 C 0.4419(7) 0.3564(5) 0.5467(5)
H17 H 0.4036 0.3116 0.5209
C27 C 0.4621(7) 0.4919(5) 0.5995(5)
H19 H 0.4373 0.5443 0.6096
C28 C 0.5369(7) 0.3446(5) 0.5675(5)
H20 H 0.5606 0.2931 0.5538
Mn4 Mn 0.24609(9) 0.43160(6) 0.53709(6)
O11 O 0.7371(4) 0.4349(3) 0.8457(3)
O14 O 0.7546(4) 0.5036(3) 0.9649(3)
N5 N 0.5712(5) 0.3916(4) 0.9236(4)
H22 H 0.897451 0.346728 0.930289
H23 H 0.571141 0.0115758 0.989331
H10 H 0.7733 0.9843 0.3914
O12 O 0.7621(4) 0.9890(3) 0.1536(3)
O13 O 0.7559(4) 0.9175(3) 0.0367(3)
O1 O 0.7629(4) 0.9349(3) 0.6543(3)
Mn5 Mn 0.77588(9) 0.85406(6) 0.54599(6)
N4_2 N 0.0976(5) 0.9296(4) 0.9380(4)
C25_2 C 0.0581(7) 0.8564(5) 0.9533(5)
H17_2 H 0.0964 0.8116 0.9791
C27_2 C 0.0379(7) 0.9919(5) 0.9005(5)
Mn4_2 Mn 0.25391(9) 0.93160(6) 0.96291(6)
H12_2 H 0.9068 0.0277 0.8493
O4_2 O 0.7747(4) 0.8305(3) 0.4188(3)
O6_2 O 0.7776(4) 0.5952(3) 0.5932(3)
C1_2 C 0.7807(5) 0.6635(4) 0.7233(4)
O7_2 O 0.8068(4) 0.7354(3) 0.6052(3)
C2_2 C 0.7614(5) 0.5859(4) 0.8446(4)
C3_2 C 0.7889(6) 0.6658(4) 0.6333(4)
N1_2 N 0.4288(5) 0.6084(4) 0.0764(4)
C4_2 C 0.7506(5) 0.5031(4) 0.8875(4)
C5_2 C 0.7697(5) 0.8356(4) 0.1631(4)
C6_2 C 0.7734(5) 0.5860(4) 0.7627(4)
H1_2 H 0.7765 0.5345 0.7351
C7_2 C 0.7623(5) 0.9188(4) 0.1147(4)
N2_2 N 0.7823(5) 0.6030(3) 0.1255(4)
H2_2 H 0.8156 0.5948 0.0919
O8_2 O 0.7450(5) 0.6922(3) 0.4102(3)
C8_2 C 0.7677(5) 0.8364(4) 0.2474(4)
H3_2 H 0.7649 0.8884 0.2744
N3_2 N 0.7628(5) 0.8180(3) 0.8881(4)
H4_2 H 0.7384 0.8180 0.9297
O9_2 O 0.6225(5) 0.8384(4) 0.5173(4)
C9_2 C 0.7982(6) 0.8980(4) 0.8649(4)
H5_2 H 0.7771 0.9042 0.8040
H6_2 H 0.7715 0.9448 0.8895
C10_2 C 0.7699(5) 0.7604(4) 0.2910(4)
C11_2 C 0.7789(6) 0.6802(4) 0.1662(4)
C12_2 C 0.7736(5) 0.6826(4) 0.2509(4)
H7_2 H 0.7727 0.6316 0.2800
C13_2 C 0.7593(5) 0.6640(4) 0.8850(4)
H8_2 H 0.7518 0.6640 0.9393
C14_2 C 0.7198(6) 0.5346(4) 0.1411(4)
H9_2 H 0.7393 0.5190 0.2003
H10_2 H 0.7267 0.4843 0.1086
C15_2 C 0.7799(5) 0.7403(4) 0.7659(4)
H11_2 H 0.7875 0.7917 0.7398
C16_2 C 0.7681(5) 0.7418(4) 0.8469(4)
C17_2 C 0.9440(7) 0.9827(5) 0.8764(5)
C18_2 C 0.7638(5) 0.7602(4) 0.3812(4)
C19_2 C 0.9030(6) 0.9067(4) 0.8920(4)
C20_2 C 0.7754(5) 0.7590(4) 0.1229(4)
H13_2 H 0.7771 0.7591 0.0668
C21_2 C 0.6187(6) 0.5595(4) 0.1186(5)
C22_2 C 0.5734(6) 0.5925(5) 0.0399(5)
C23_2 C 0.4823(7) 0.6143(5) 0.0223(5)
C24_2 C 0.5671(6) 0.5526(5) 0.1762(5)
H16_2 H 0.5945 0.5316 0.2301
C26_2 C 0.4753(7) 0.5765(5) 0.1543(5)
H18_2 H 0.4424 0.5709 0.1946
O10_2 O 0.9008(5) 0.5582(5) 0.4708(5)
C28_2 C 0.9631(7) 0.8446(5) 0.9325(5)
H20_2 H 0.9394 0.7931 0.9462
Mn6_2 Mn 0.27588(9) 0.64594(6) 0.04599(6)
N5_2 N 0.9288(5) 0.8916(4) 0.5764(4)
N6_2 N 0.5976(5) 0.5704(4) 0.4380(4)
H21_2 H 0.604948 0.779897 0.494775
H22_2 H 0.602549 0.846728 0.569711
H23_2 H 0.928859 0.511576 0.510669
H24_2 H 0.908736 0.545044 0.414055
O1_2 O 0.2371(4) 0.0651(3) 0.3457(3)
H10_3 H 0.2267 0.0157 0.6086
O12_2 O 0.2379(4) 0.0110(3) 0.8464(3)
O13_2 O 0.2441(4) 0.0825(3) 0.9633(3)
O5_2 O 0.2546(4) 0.9964(3) 0.4649(3)
O6_3 O 0.2776(4) 0.9048(3) 0.0932(3)
C1_3 C 0.2807(5) 0.8365(4) 0.2233(4)
O7_3 O 0.3068(4) 0.7646(3) 0.1052(3)
C2_3 C 0.2614(5) 0.9141(4) 0.3446(4)
C3_3 C 0.2889(6) 0.8342(4) 0.1333(4)
C4_3 C 0.2506(5) 0.9969(4) 0.3875(4)
C6_3 C 0.2734(5) 0.9140(4) 0.2627(4)
H1_3 H 0.2765 0.9655 0.2351
N3_3 N 0.2628(5) 0.6820(3) 0.3881(4)
H4_3 H 0.2384 0.6820 0.4297
O9_3 O 0.1225(5) 0.6616(4) 0.0173(4)
C9_3 C 0.2982(6) 0.6020(4) 0.3649(4)
H5_3 H 0.2771 0.5958 0.3040
H6_3 H 0.2715 0.5552 0.3895
C13_3 C 0.2593(5) 0.8360(4) 0.3850(4)
H8_3 H 0.2518 0.8360 0.4393
C15_3 C 0.2799(5) 0.7597(4) 0.2659(4)
H11_3 H 0.2875 0.7083 0.2398
C16_3 C 0.2681(5) 0.7582(4) 0.3469(4)
C17_3 C 0.4440(7) 0.5173(5) 0.3764(5)
H12_3 H 0.4068 0.4723 0.3493
C19_3 C 0.4030(6) 0.5933(4) 0.3920(4)
C25_3 C 0.5581(7) 0.6436(5) 0.4533(5)
H17_3 H 0.5964 0.6884 0.4791
C27_3 C 0.5379(7) 0.5081(5) 0.4005(5)
H19_2 H 0.5627 0.4557 0.3904
C28_3 C 0.4631(7) 0.6554(5) 0.4325(5)
H20_3 H 0.4394 0.7069 0.4462
O11_2 O 0.2629(4) 0.5651(3) 0.1543(3)
O14_2 O 0.2454(4) 0.4964(3) 0.0351(3)
H22_3 H 0.102549 0.653272 0.0697113
H23_3 H 0.428859 0.988424 0.0106695
O2_2 O 0.2621(4) 0.5110(3) 0.6536(3)
O3_2 O 0.2559(4) 0.5825(3) 0.5367(3)
O4_3 O 0.2747(4) 0.6695(3) 0.9188(3)
C5_3 C 0.2697(5) 0.6644(4) 0.6631(4)
C7_3 C 0.2623(5) 0.5812(4) 0.6147(4)
N2_3 N 0.2823(5) 0.8970(3) 0.6255(4)
H2_3 H 0.3156 0.9052 0.5919
O8_3 O 0.2450(5) 0.8078(3) 0.9102(3)
C8_3 C 0.2677(5) 0.6636(4) 0.7474(4)
H3_3 H 0.2649 0.6116 0.7744
C10_3 C 0.2699(5) 0.7396(4) 0.7910(4)
C11_3 C 0.2789(6) 0.8198(4) 0.6662(4)
C12_3 C 0.2736(5) 0.8174(4) 0.7509(4)
H7_3 H 0.2727 0.8684 0.7800
C14_3 C 0.2198(6) 0.9654(4) 0.6411(4)
H9_3 H 0.2393 0.9810 0.7003
C18_3 C 0.2638(5) 0.7398(4) 0.8812(4)
C20_3 C 0.2754(5) 0.7410(4) 0.6229(4)
H13_3 H 0.2771 0.7409 0.5668
C21_3 C 0.1187(6) 0.9405(4) 0.6186(5)
C22_3 C 0.0734(6) 0.9075(5) 0.5399(5)
H14_2 H 0.1056 0.9003 0.4992
C24_3 C 0.0671(6) 0.9474(5) 0.6762(5)
H16_3 H 0.0945 0.9684 0.7301
O10_3 O 0.4008(5) 0.9418(5) 0.9708(5)
H21_3 H 0.104948 0.720103 0.994775
H24_3 H 0.408736 0.954956 0.914055
C23_3 C 0.9823(7) 0.8857(5) 0.5223(5)
H15_2 H 0.9544 0.8650 0.4684
C26_3 C 0.9753(7) 0.9235(5) 0.6543(5)
H18_3 H 0.9424 0.9291 0.6946
O4_4 O 0.2253(4) 0.1695(3) 0.5812(3)
O6_4 O 0.2224(4) 0.4048(3) 0.4068(3)
C1_4 C 0.2193(5) 0.3365(4) 0.2767(4)
O7_4 O 0.1932(4) 0.2646(3) 0.3948(3)
C2_4 C 0.2386(5) 0.4141(4) 0.1554(4)
C3_4 C 0.2111(6) 0.3342(4) 0.3667(4)
C4_4 C 0.2494(5) 0.4969(4) 0.1125(4)
C5_4 C 0.2303(5) 0.1644(4) 0.8369(4)
C6_4 C 0.2266(5) 0.4140(4) 0.2373(4)
H1_4 H 0.2235 0.4655 0.2649
C7_4 C 0.2377(5) 0.0812(4) 0.8853(4)
N2_4 N 0.2177(5) 0.3970(3) 0.8745(4)
H2_4 H 0.1844 0.4052 0.9081
O8_4 O 0.2550(5) 0.3078(3) 0.5898(3)
C8_4 C 0.2323(5) 0.1636(4) 0.7526(4)
H3_4 H 0.2351 0.1116 0.7256
N3_4 N 0.2372(5) 0.1820(3) 0.1119(4)
H4_4 H 0.2616 0.1820 0.0703
O9_4 O 0.3775(5) 0.1616(4) 0.4827(4)
C9_4 C 0.2018(6) 0.1020(4) 0.1351(4)
H5_4 H 0.2229 0.0958 0.1960
H6_4 H 0.2285 0.0552 0.1105
C10_4 C 0.2301(5) 0.2396(4) 0.7090(4)
C11_4 C 0.2211(6) 0.3198(4) 0.8338(4)
C12_4 C 0.2264(5) 0.3174(4) 0.7491(4)
H7_4 H 0.2273 0.3684 0.7200
C13_4 C 0.2407(5) 0.3360(4) 0.1150(4)
H8_4 H 0.2482 0.3360 0.0607
C14_4 C 0.2802(6) 0.4654(4) 0.8589(4)
H9_4 H 0.2607 0.4810 0.7997
H10_4 H 0.2733 0.5157 0.8914
C15_4 C 0.2201(5) 0.2597(4) 0.2341(4)
H11_4 H 0.2125 0.2083 0.2602
C16_4 C 0.2319(5) 0.2582(4) 0.1531(4)
C17_4 C 0.0560(7) 0.0173(5) 0.1236(5)
C18_4 C 0.2362(5) 0.2398(4) 0.6188(4)
C19_4 C 0.0970(6) 0.0933(4) 0.1080(4)
C20_4 C 0.2246(5) 0.2410(4) 0.8771(4)
H13_4 H 0.2229 0.2409 0.9332
C21_4 C 0.3813(6) 0.4405(4) 0.8814(5)
C22_4 C 0.4266(6) 0.4075(5) 0.9601(5)
C23_4 C 0.5177(7) 0.3857(5) 0.9777(5)
C24_4 C 0.4329(6) 0.4474(5) 0.8238(5)
H16_4 H 0.4055 0.4684 0.7699
C26_4 C 0.5247(7) 0.4235(5) 0.8457(5)
H18_4 H 0.5576 0.4291 0.8054
O10_4 O 0.0992(5) 0.4418(5) 0.5292(5)
C28_4 C 0.0369(7) 0.1554(5) 0.0675(5)
H20_4 H 0.0606 0.2069 0.0538
H21_4 H 0.395052 0.220103 0.505225
H22_4 H 0.397451 0.153272 0.430289
H23_4 H 0.0711412 0.488424 0.489331
H24_4 H 0.0912643 0.454956 0.585945
H12_4 H 0.0932 0.9723 0.1507
C25_4 C 0.9419(7) 0.1436(5) 0.0467(5)
H17_4 H 0.9036 0.1884 0.0209
C27_4 C 0.9621(7) 0.0081(5) 0.0995(5)
H19_3 H 0.0627 0.0443 0.8904
H14_3 H 0.6056 0.5997 0.9992
H15_3 H 0.4544 0.6350 0.9684
H14_4 H 0.3944 0.4003 0.0008
H15_4 H 0.5456 0.3650 0.0316
H19_4 H 0.9373 0.9557 0.1096
loop_
_geom_bond_atom_site_label_1
_geom_bond_atom_site_label_2
_geom_bond_site_symmetry_1
_geom_bond_site_symmetry_2
N1 C23 1_555 1_555
H15 C23 1_555 1_555
C26 N1 1_555 1_555
H18 C26 1_555 1_555
Mn6 N1 1_555 1_555
O2 C7 1_555 1_555
O3 C7 1_555 1_555
O4 C18 1_555 1_555
C5 C7 1_555 1_555
N2 H2 1_555 1_555
O8 Mn1 1_555 1_555
C8 C5 1_555 1_555
H3 C8 1_555 1_555
C10 C8 1_555 1_555
C11 N2 1_555 1_555
C12 C10 1_555 1_555
H7 C12 1_555 1_555
C14 N2 1_555 1_555
H9 C14 1_555 1_555
C18 O8 1_555 1_555
C20 C5 1_555 1_555
H13 C20 1_555 1_555
C21 C14 1_555 1_555
C22 C21 1_555 1_555
H14 C22 1_555 1_555
C24 C21 1_555 1_555
H16 C24 1_555 1_555
O10 Mn1 1_555 1_555
Mn3 O2 1_555 1_555
N6 Mn1 1_555 1_555
O3 Mn3 1_555 1_555
C10 C18 1_555 1_555
C11 C12 1_555 1_555
C11 C20 1_555 1_555
O10 H24 1_555 1_555
O5 C4 1_555 1_555
O6 C3 1_555 1_555
C1 C3 1_555 1_555
O7 Mn2 1_555 1_555
C2 C4 1_555 1_555
C3 O7 1_555 1_555
C6 C1 1_555 1_555
H1 C6 1_555 1_555
N3 H4 1_555 1_555
N4 C25 1_555 1_555
O9 Mn2 1_555 1_555
C9 N3 1_555 1_555
H5 C9 1_555 1_555
H6 C9 1_555 1_555
C13 C2 1_555 1_555
H8 C13 1_555 1_555
C15 C1 1_555 1_555
H11 C15 1_555 1_555
C16 N3 1_555 1_555
C17 H12 1_555 1_555
C19 C9 1_555 1_555
C25 H17 1_555 1_555
C27 N4 1_555 1_555
H19 C27 1_555 1_555
C28 C19 1_555 1_555
H20 C28 1_555 1_555
Mn4 N4 1_555 1_555
O11 Mn2 1_555 1_555
O14 Mn2 1_555 1_555
N5 Mn2 1_555 1_555
C2 C6 1_555 1_555
C13 C16 1_555 1_555
C15 C16 1_555 1_555
C17 C19 1_555 1_555
C17 C27 1_555 1_555
C25 C28 1_555 1_555
O9 H22 1_555 1_555
Mn5 O1 1_555 1_555
N4_2 C25_2 1_555 1_555
C25_2 H17_2 1_555 1_555
C27_2 N4_2 1_555 1_555
Mn4_2 N4_2 1_555 1_555
Mn3 O6_2 1_555 1_555
Mn5 O4_2 1_555 1_555
O11 C4_2 1_555 1_555
O12 C7_2 1_555 1_555
O13 C7_2 1_555 1_555
O4_2 C18_2 1_555 1_555
O14 C4_2 1_555 1_555
O6_2 C3_2 1_555 1_555
C1_2 C3_2 1_555 1_555
O7_2 Mn5 1_555 1_555
C2_2 C4_2 1_555 1_555
C3_2 O7_2 1_555 1_555
N1_2 C23_2 1_555 1_555
C5_2 C7_2 1_555 1_555
C6_2 C1_2 1_555 1_555
H1_2 C6_2 1_555 1_555
N2_2 H2_2 1_555 1_555
O8_2 Mn3 1_555 1_555
C8_2 C5_2 1_555 1_555
H3_2 C8_2 1_555 1_555
N3_2 H4_2 1_555 1_555
O9_2 Mn5 1_555 1_555
C9_2 N3_2 1_555 1_555
H5_2 C9_2 1_555 1_555
H6_2 C9_2 1_555 1_555
C10_2 C8_2 1_555 1_555
C11_2 N2_2 1_555 1_555
C12_2 C10_2 1_555 1_555
H7_2 C12_2 1_555 1_555
C13_2 C2_2 1_555 1_555
H8_2 C13_2 1_555 1_555
C14_2 N2_2 1_555 1_555
H9_2 C14_2 1_555 1_555
H10_2 C14_2 1_555 1_555
C15_2 C1_2 1_555 1_555
H11_2 C15_2 1_555 1_555
C16_2 N3_2 1_555 1_555
C18_2 O8_2 1_555 1_555
C19_2 C9_2 1_555 1_555
C20_2 C5_2 1_555 1_555
H13_2 C20_2 1_555 1_555
C21_2 C14_2 1_555 1_555
C22_2 C21_2 1_555 1_555
C23_2 C22_2 1_555 1_555
C24_2 C21_2 1_555 1_555
H16_2 C24_2 1_555 1_555
C26_2 N1_2 1_555 1_555
H18_2 C26_2 1_555 1_555
O10_2 Mn3 1_555 1_555
C28_2 C19_2 1_555 1_555
H20_2 C28_2 1_555 1_555
Mn6_2 N1_2 1_555 1_555
N5_2 Mn5 1_555 1_555
N6_2 Mn3 1_555 1_555
C2_2 C6_2 1_555 1_555
C10_2 C18_2 1_555 1_555
C11_2 C12_2 1_555 1_555
C11_2 C20_2 1_555 1_555
C13_2 C16_2 1_555 1_555
C15_2 C16_2 1_555 1_555
C17_2 C19_2 1_555 1_555
C24_2 C26_2 1_555 1_555
O9_2 H21_2 1_555 1_555
O9_2 H22_2 1_555 1_555
O10_2 H23_2 1_555 1_555
O10_2 H24_2 1_555 1_555
Mn6 O1_2 1_555 1_555
O5_2 C4_3 1_555 1_555
O6_3 C3_3 1_555 1_555
C1_3 C3_3 1_555 1_555
O7_3 Mn6_2 1_555 1_555
C2_3 C4_3 1_555 1_555
C3_3 O7_3 1_555 1_555
C6_3 C1_3 1_555 1_555
H1_3 C6_3 1_555 1_555
N3_3 H4_3 1_555 1_555
N6_2 C25_3 1_555 1_555
O9_3 Mn6_2 1_555 1_555
C9_3 N3_3 1_555 1_555
H5_3 C9_3 1_555 1_555
H6_3 C9_3 1_555 1_555
C13_3 C2_3 1_555 1_555
H8_3 C13_3 1_555 1_555
C15_3 C1_3 1_555 1_555
H11_3 C15_3 1_555 1_555
C16_3 N3_3 1_555 1_555
C17_3 H12_3 1_555 1_555
C19_3 C9_3 1_555 1_555
C25_3 H17_3 1_555 1_555
C27_3 N6_2 1_555 1_555
H19_2 C27_3 1_555 1_555
C28_3 C19_3 1_555 1_555
H20_3 C28_3 1_555 1_555
O11_2 Mn6_2 1_555 1_555
O14_2 Mn6_2 1_555 1_555
C2_3 C6_3 1_555 1_555
C13_3 C16_3 1_555 1_555
C15_3 C16_3 1_555 1_555
C17_3 C19_3 1_555 1_555
C17_3 C27_3 1_555 1_555
C25_3 C28_3 1_555 1_555
O9_3 H22_3 1_555 1_555
O2_2 C7_3 1_555 1_555
O3_2 C7_3 1_555 1_555
O4_3 C18_3 1_555 1_555
C5_3 C7_3 1_555 1_555
N2_3 H2_3 1_555 1_555
O8_3 Mn4_2 1_555 1_555
C8_3 C5_3 1_555 1_555
H3_3 C8_3 1_555 1_555
C10_3 C8_3 1_555 1_555
C11_3 N2_3 1_555 1_555
C12_3 C10_3 1_555 1_555
H7_3 C12_3 1_555 1_555
C14_3 N2_3 1_555 1_555
H9_3 C14_3 1_555 1_555
C18_3 O8_3 1_555 1_555
C20_3 C5_3 1_555 1_555
H13_3 C20_3 1_555 1_555
C21_3 C14_3 1_555 1_555
C22_3 C21_3 1_555 1_555
H14_2 C22_3 1_555 1_555
C24_3 C21_3 1_555 1_555
H16_3 C24_3 1_555 1_555
O10_3 Mn4_2 1_555 1_555
Mn4 O2_2 1_555 1_555
O3_2 Mn4 1_555 1_555
C10_3 C18_3 1_555 1_555
C11_3 C12_3 1_555 1_555
C11_3 C20_3 1_555 1_555
O10_3 H24_3 1_555 1_555
N5_2 C23_3 1_555 1_555
H15_2 C23_3 1_555 1_555
C26_3 N5_2 1_555 1_555
H18_3 C26_3 1_555 1_555
Mn4 O6_4 1_555 1_555
Mn6 O4_4 1_555 1_555
O11_2 C4_4 1_555 1_555
O12_2 C7_4 1_555 1_555
O13_2 C7_4 1_555 1_555
O4_4 C18_4 1_555 1_555
O14_2 C4_4 1_555 1_555
O6_4 C3_4 1_555 1_555
C1_4 C3_4 1_555 1_555
O7_4 Mn6 1_555 1_555
C2_4 C4_4 1_555 1_555
C3_4 O7_4 1_555 1_555
N5 C23_4 1_555 1_555
C5_4 C7_4 1_555 1_555
C6_4 C1_4 1_555 1_555
H1_4 C6_4 1_555 1_555
N2_4 H2_4 1_555 1_555
O8_4 Mn4 1_555 1_555
C8_4 C5_4 1_555 1_555
H3_4 C8_4 1_555 1_555
N3_4 H4_4 1_555 1_555
O9_4 Mn6 1_555 1_555
C9_4 N3_4 1_555 1_555
H5_4 C9_4 1_555 1_555
H6_4 C9_4 1_555 1_555
C10_4 C8_4 1_555 1_555
C11_4 N2_4 1_555 1_555
C12_4 C10_4 1_555 1_555
H7_4 C12_4 1_555 1_555
C13_4 C2_4 1_555 1_555
H8_4 C13_4 1_555 1_555
C14_4 N2_4 1_555 1_555
H9_4 C14_4 1_555 1_555
H10_4 C14_4 1_555 1_555
C15_4 C1_4 1_555 1_555
H11_4 C15_4 1_555 1_555
C16_4 N3_4 1_555 1_555
C18_4 O8_4 1_555 1_555
C19_4 C9_4 1_555 1_555
C20_4 C5_4 1_555 1_555
H13_4 C20_4 1_555 1_555
C21_4 C14_4 1_555 1_555
C22_4 C21_4 1_555 1_555
C23_4 C22_4 1_555 1_555
C24_4 C21_4 1_555 1_555
H16_4 C24_4 1_555 1_555
C26_4 N5 1_555 1_555
H18_4 C26_4 1_555 1_555
O10_4 Mn4 1_555 1_555
C28_4 C19_4 1_555 1_555
H20_4 C28_4 1_555 1_555
C2_4 C6_4 1_555 1_555
C10_4 C18_4 1_555 1_555
C11_4 C12_4 1_555 1_555
C11_4 C20_4 1_555 1_555
C13_4 C16_4 1_555 1_555
C15_4 C16_4 1_555 1_555
C17_4 C19_4 1_555 1_555
C24_4 C26_4 1_555 1_555
O9_4 H21_4 1_555 1_555
O9_4 H22_4 1_555 1_555
O10_4 H23_4 1_555 1_555
O10_4 H24_4 1_555 1_555
N6 C25_4 1_555 1_555
C25_4 H17_4 1_555 1_555
C27_4 N6 1_555 1_555

#END
