
###############################################################################
#
# This file contains modified crystal structure data generated from the
# MOF subset of the Cambridge Structural Database (CSD) v543 
# hosted by the Cambridge Crystallographic Data Centre (CCDC).
#
# This work is licensed under the Creative Commons
# Attribution-NonCommercial-ShareAlike 4.0 International License.
# To view a copy of this license, visit
# http://creativecommons.org/licenses/by-nc-sa/4.0/
# or send a letter to
# Creative Commons, PO Box 1866, Mountain View, CA 94042, USA.
#
# CIF created using the CSD Python API on 29 September 2022
# The structure has been converted into the P1 space group
# The structure has a 3D framework
# The original CSD entry LUFNAC04 is in the monoclinic crystal system
# The framework has been calculated to contain at least 10.0% void space
# The void calculation uses a probe of radius 1.32A, grid spacing 0.4
# H atom positions have been added when not included in the experimental data
# Generated hydrogen atom positions removed from atoms on special positions
#
###############################################################################

data_LUFNAC04
_chemical_formula_moiety         '(C112 H112 Mn8 N16 O36)n'
_symmetry_cell_setting           triclinic
_symmetry_space_group_name_H-M   'P 1'
_symmetry_Int_Tables_number      1
_space_group_name_Hall           'P 1'
loop_
_symmetry_equiv_pos_site_id
_symmetry_equiv_pos_as_xyz
1 x,y,z
_cell_length_a                   18.421(5)
_cell_length_b                   15.029(4)
_cell_length_c                   16.355(5)
_cell_angle_alpha                90
_cell_angle_beta                 111.668(6)
_cell_angle_gamma                90
_cell_volume                     4207.92
loop_
_atom_site_label
_atom_site_type_symbol
_atom_site_fract_x
_atom_site_fract_y
_atom_site_fract_z
H20 H 0.5939 0.1797 0.0182
Mn1 Mn 0.27585(8) 0.10828(8) 0.54667(7)
O2 O 0.2595(4) 0.0444(4) 0.0363(4)
O3 O 0.1971(4) 0.2662(4) 0.3921(3)
O4 O 0.2535(4) 0.1331(4) 0.4124(3)
C1 C 0.2250(5) 0.2018(6) 0.2738(5)
N1 N 0.1823(5) 0.3559(5) 0.0858(5)
H1 H 0.1904 0.3570 0.0372
C2 C 0.2018(5) 0.2802(6) 0.1376(5)
C3 C 0.2665(5) 0.0443(6) 0.1167(5)
C4 C 0.2468(5) 0.1263(5) 0.2403(5)
H2 H 0.2616 0.0751 0.2745
C5 C 0.2465(5) 0.1275(6) 0.1552(5)
C6 C 0.2015(5) 0.2786(6) 0.2227(5)
H3 H 0.1856 0.3284 0.2454
C7 C 0.2251(5) 0.2018(5) 0.3665(4)
C8 C 0.2238(6) 0.2031(6) 0.1038(5)
H4 H 0.2231 0.2030 0.0466
C9 C 0.0640(5) 0.4239(6) 0.0962(6)
O5 O 0.1479(5) 0.1212(7) 0.5165(7)
C10 C 0.1488(6) 0.4326(6) 0.1110(6)
H5 H 0.1555 0.4837 0.0781
H6 H 0.1775 0.4444 0.1729
C11 C 0.0151(6) 0.3652(8) 0.0357(8)
H7 H 0.0350 0.3288 0.0030
C12 C 0.0292(7) 0.4759(9) 0.1394(7)
H8 H 0.0587 0.5174 0.1803
Mn2 Mn 0.22415(8) 0.39172(8) 0.45333(7)
Mn5 Mn 0.22415(8) 0.60828(8) 0.95333(7)
Mn6 Mn 0.72415(8) 0.10828(8) 0.95333(7)
O6 O 0.2132(4) 0.5242(4) 0.8362(4)
O7 O 0.2868(4) 0.0242(4) 0.6638(4)
O8 O 0.2132(4) 0.4758(4) 0.3362(4)
O9 O 0.2405(4) 0.4556(4) 0.9637(4)
O11 O 0.2405(4) 0.5444(4) 0.4637(4)
O12 O 0.3029(4) 0.2338(4) 0.6079(3)
O13 O 0.2465(4) 0.3669(4) 0.5876(3)
C15 C 0.2750(5) 0.2982(6) 0.7262(5)
N3 N 0.3177(5) 0.1441(5) 0.9142(5)
H11 H 0.3096 0.1430 0.9628
N4 N 0.5959(4) 0.0906(5) 0.9317(4)
N5 N 0.4041(4) 0.0906(5) 0.5683(4)
N6 N 0.0959(4) 0.4094(5) 0.4317(4)
C16 C 0.2982(5) 0.2198(6) 0.8624(5)
C17 C 0.2335(5) 0.4557(6) 0.8833(5)
C18 C 0.2532(5) 0.3737(5) 0.7597(5)
H12 H 0.2384 0.4249 0.7255
C19 C 0.2535(5) 0.3725(6) 0.8448(5)
C20 C 0.2985(5) 0.2214(6) 0.7773(5)
H13 H 0.3144 0.1716 0.7546
C21 C 0.2749(5) 0.2982(5) 0.6335(4)
C22 C 0.2762(6) 0.2969(6) 0.8962(5)
H14 H 0.2769 0.2970 0.9534
C23 C 0.4360(5) 0.0761(6) 0.9038(6)
O14 O 0.3521(5) 0.3788(7) 0.4835(7)
C24 C 0.3512(6) 0.0674(6) 0.8890(6)
H15 H 0.3445 0.0163 0.9219
H16 H 0.3225 0.0556 0.8271
C25 C 0.4849(6) 0.1348(8) 0.9643(8)
H17 H 0.4650 0.1712 0.9970
C26 C 0.4708(7) 0.0241(9) 0.8606(7)
C27 C 0.5497(7) 0.0326(9) 0.8771(7)
C28 C 0.5626(6) 0.1399(8) 0.9765(8)
O1 O 0.2868(4) 0.9758(4) 0.1638(4)
Mn3 Mn 0.27585(8) 0.89172(8) 0.04667(7)
O10 O 0.2595(4) 0.9556(4) 0.5363(4)
H18 H 0.4413 0.9826 0.8197
H19 H 0.5716 0.9946 0.8476
N2 N 0.9041(4) 0.4094(5) 0.0683(4)
C13 C 0.9503(7) 0.4674(9) 0.1229(7)
H9 H 0.9284 0.5054 0.1524
C14 C 0.9374(6) 0.3601(8) 0.0235(8)
Mn4 Mn 0.77585(8) 0.39172(8) 0.04667(7)
C13_2 C 0.0497(7) 0.4674(9) 0.3771(7)
H9_2 H 0.0716 0.5054 0.3476
C14_2 C 0.0626(6) 0.3601(8) 0.4765(8)
H10 H 0.0939 0.3203 0.5182
O2_2 O 0.7405(4) 0.0444(4) 0.4637(4)
O3_2 O 0.8029(4) 0.2662(4) 0.1079(3)
O4_2 O 0.7465(4) 0.1331(4) 0.0876(3)
C1_2 C 0.7750(5) 0.2018(6) 0.2262(5)
N1_2 N 0.8177(5) 0.3559(5) 0.4142(5)
H1_2 H 0.8096 0.3570 0.4628
C2_2 C 0.7982(5) 0.2802(6) 0.3624(5)
C3_2 C 0.7335(5) 0.0443(6) 0.3833(5)
C4_2 C 0.7532(5) 0.1263(5) 0.2597(5)
H2_2 H 0.7384 0.0751 0.2255
C5_2 C 0.7535(5) 0.1275(6) 0.3448(5)
C6_2 C 0.7985(5) 0.2786(6) 0.2773(5)
H3_2 H 0.8144 0.3284 0.2546
C7_2 C 0.7749(5) 0.2018(5) 0.1335(4)
C8_2 C 0.7762(6) 0.2031(6) 0.3962(5)
H4_2 H 0.7769 0.2030 0.4534
C9_2 C 0.9360(5) 0.4239(6) 0.4038(6)
C10_2 C 0.8512(6) 0.4326(6) 0.3890(6)
H5_2 H 0.8445 0.4837 0.4219
H6_2 H 0.8225 0.4444 0.3271
C11_2 C 0.9849(6) 0.3652(8) 0.4643(8)
H7_2 H 0.9650 0.3288 0.4970
C12_2 C 0.9708(7) 0.4759(9) 0.3606(7)
H8_2 H 0.9413 0.5174 0.3197
O8_2 O 0.7868(4) 0.4758(4) 0.1638(4)
O11_2 O 0.7595(4) 0.5444(4) 0.0363(4)
O14_2 O 0.6479(5) 0.3788(7) 0.0165(7)
H21 H 0.88064 0.0756214 0.0276133
H23 H 0.638571 0.371338 0.0721519
O5_2 O 0.8521(5) 0.1212(7) 0.9835(7)
Mn5_2 Mn 0.77585(8) 0.60828(8) 0.54667(7)
O6_2 O 0.7868(4) 0.5242(4) 0.6638(4)
O7_2 O 0.7132(4) 0.0242(4) 0.8362(4)
O9_2 O 0.7595(4) 0.4556(4) 0.5363(4)
O12_2 O 0.6971(4) 0.2338(4) 0.8921(3)
O13_2 O 0.7535(4) 0.3669(4) 0.9124(3)
C15_2 C 0.7250(5) 0.2982(6) 0.7738(5)
N3_2 N 0.6823(5) 0.1441(5) 0.5858(5)
H11_2 H 0.6904 0.1430 0.5372
C16_2 C 0.7018(5) 0.2198(6) 0.6376(5)
C17_2 C 0.7665(5) 0.4557(6) 0.6167(5)
C18_2 C 0.7468(5) 0.3737(5) 0.7403(5)
H12_2 H 0.7616 0.4249 0.7745
C19_2 C 0.7465(5) 0.3725(6) 0.6552(5)
C20_2 C 0.7015(5) 0.2214(6) 0.7227(5)
H13_2 H 0.6856 0.1716 0.7454
C21_2 C 0.7251(5) 0.2982(5) 0.8665(4)
C22_2 C 0.7238(6) 0.2969(6) 0.6038(5)
H14_2 H 0.7231 0.2970 0.5466
C23_2 C 0.5640(5) 0.0761(6) 0.5962(6)
C24_2 C 0.6488(6) 0.0674(6) 0.6110(6)
H15_2 H 0.6555 0.0163 0.5781
H16_2 H 0.6775 0.0556 0.6729
C25_2 C 0.5151(6) 0.1348(8) 0.5357(8)
H17_2 H 0.5350 0.1712 0.5030
C26_2 C 0.5292(7) 0.0241(9) 0.6394(7)
C27_2 C 0.4503(7) 0.0326(9) 0.6229(7)
C28_2 C 0.4374(6) 0.1399(8) 0.5235(8)
H20_2 H 0.4061 0.1797 0.4818
H22 H 0.862773 0.112275 0.928826
H24 H 0.620762 0.433184 0.98567
O1_2 O 0.7132(4) 0.9758(4) 0.3362(4)
Mn3_2 Mn 0.72415(8) 0.89172(8) 0.45333(7)
O10_2 O 0.7405(4) 0.9556(4) 0.9637(4)
H18_2 H 0.5587 0.9826 0.6803
H19_2 H 0.4284 0.9946 0.6524
N4_2 N 0.0959(4) 0.5906(5) 0.9317(4)
C27_3 C 0.0497(7) 0.5326(9) 0.8771(7)
H19_3 H 0.0716 0.4946 0.8476
C28_3 C 0.0626(6) 0.6399(8) 0.9765(8)
H8_3 H 0.5587 0.0174 0.1803
H9_3 H 0.4284 0.0054 0.1524
O3_3 O 0.6971(4) 0.7662(4) 0.3921(3)
O4_3 O 0.7535(4) 0.6331(4) 0.4124(3)
C1_3 C 0.7250(5) 0.7018(6) 0.2738(5)
N1_3 N 0.6823(5) 0.8559(5) 0.0858(5)
H1_3 H 0.6904 0.8570 0.0372
N2_2 N 0.4041(4) 0.9094(5) 0.0683(4)
C2_3 C 0.7018(5) 0.7802(6) 0.1376(5)
C3_3 C 0.7665(5) 0.5443(6) 0.1167(5)
C4_3 C 0.7468(5) 0.6263(5) 0.2403(5)
H2_3 H 0.7616 0.5751 0.2745
C5_3 C 0.7465(5) 0.6275(6) 0.1552(5)
C6_3 C 0.7015(5) 0.7786(6) 0.2227(5)
H3_3 H 0.6856 0.8284 0.2454
C7_3 C 0.7251(5) 0.7018(5) 0.3665(4)
C8_3 C 0.7238(6) 0.7031(6) 0.1038(5)
H4_3 H 0.7231 0.7030 0.0466
C9_3 C 0.5640(5) 0.9239(6) 0.0962(6)
O5_3 O 0.6479(5) 0.6212(7) 0.5165(7)
C10_3 C 0.6488(6) 0.9326(6) 0.1110(6)
H5_3 H 0.6555 0.9837 0.0781
H6_3 H 0.6775 0.9444 0.1729
C11_3 C 0.5151(6) 0.8652(8) 0.0357(8)
H7_3 H 0.5350 0.8288 0.0030
C12_3 C 0.5292(7) 0.9759(9) 0.1394(7)
C13_3 C 0.4503(7) 0.9674(9) 0.1229(7)
C14_3 C 0.4374(6) 0.8601(8) 0.0235(8)
O12_3 O 0.8029(4) 0.7338(4) 0.6079(3)
O13_3 O 0.7465(4) 0.8669(4) 0.5876(3)
C15_3 C 0.7750(5) 0.7982(6) 0.7262(5)
N3_3 N 0.8177(5) 0.6441(5) 0.9142(5)
H11_3 H 0.8096 0.6430 0.9628
N5_2 N 0.9041(4) 0.5906(5) 0.5683(4)
N6_2 N 0.5959(4) 0.9094(5) 0.4317(4)
C16_3 C 0.7982(5) 0.7198(6) 0.8624(5)
C17_3 C 0.7335(5) 0.9557(6) 0.8833(5)
C18_3 C 0.7532(5) 0.8737(5) 0.7597(5)
H12_3 H 0.7384 0.9249 0.7255
C19_3 C 0.7535(5) 0.8725(6) 0.8448(5)
C20_3 C 0.7985(5) 0.7214(6) 0.7773(5)
H13_3 H 0.8144 0.6716 0.7546
C21_3 C 0.7749(5) 0.7982(5) 0.6335(4)
C22_3 C 0.7762(6) 0.7969(6) 0.8962(5)
H14_3 H 0.7769 0.7970 0.9534
C23_3 C 0.9360(5) 0.5761(6) 0.9038(6)
O14_3 O 0.8521(5) 0.8788(7) 0.4835(7)
C24_3 C 0.8512(6) 0.5674(6) 0.8890(6)
H15_3 H 0.8445 0.5163 0.9219
H16_3 H 0.8225 0.5556 0.8271
C25_3 C 0.9849(6) 0.6348(8) 0.9643(8)
H17_3 H 0.9650 0.6712 0.9970
C26_3 C 0.9708(7) 0.5241(9) 0.8606(7)
H18_3 H 0.9413 0.4826 0.8197
H8_4 H 0.4413 0.0174 0.3197
H9_4 H 0.5716 0.0054 0.3476
O3_4 O 0.3029(4) 0.7662(4) 0.1079(3)
O4_4 O 0.2465(4) 0.6331(4) 0.0876(3)
C1_4 C 0.2750(5) 0.7018(6) 0.2262(5)
N1_4 N 0.3177(5) 0.8559(5) 0.4142(5)
H1_4 H 0.3096 0.8570 0.4628
C2_4 C 0.2982(5) 0.7802(6) 0.3624(5)
C3_4 C 0.2335(5) 0.5443(6) 0.3833(5)
C4_4 C 0.2532(5) 0.6263(5) 0.2597(5)
H2_4 H 0.2384 0.5751 0.2255
C5_4 C 0.2535(5) 0.6275(6) 0.3448(5)
C6_4 C 0.2985(5) 0.7786(6) 0.2773(5)
H3_4 H 0.3144 0.8284 0.2546
C7_4 C 0.2749(5) 0.7018(5) 0.1335(4)
C8_4 C 0.2762(6) 0.7031(6) 0.3962(5)
H4_4 H 0.2769 0.7030 0.4534
C9_4 C 0.4360(5) 0.9239(6) 0.4038(6)
C10_4 C 0.3512(6) 0.9326(6) 0.3890(6)
H5_4 H 0.3445 0.9837 0.4219
H6_4 H 0.3225 0.9444 0.3271
C11_4 C 0.4849(6) 0.8652(8) 0.4643(8)
H7_4 H 0.4650 0.8288 0.4970
C12_4 C 0.4708(7) 0.9759(9) 0.3606(7)
C13_4 C 0.5497(7) 0.9674(9) 0.3771(7)
C14_4 C 0.5626(6) 0.8601(8) 0.4765(8)
H10_2 H 0.5939 0.8203 0.5182
O14_4 O 0.1479(5) 0.8788(7) 0.0165(7)
H21_2 H 0.38064 0.575621 0.0276133
H23_2 H 0.138571 0.871338 0.0721519
O5_4 O 0.3521(5) 0.6212(7) 0.9835(7)
O12_4 O 0.1971(4) 0.7338(4) 0.8921(3)
O13_4 O 0.2535(4) 0.8669(4) 0.9124(3)
C15_4 C 0.2250(5) 0.7982(6) 0.7738(5)
N3_4 N 0.1823(5) 0.6441(5) 0.5858(5)
H11_4 H 0.1904 0.6430 0.5372
C16_4 C 0.2018(5) 0.7198(6) 0.6376(5)
C17_4 C 0.2665(5) 0.9557(6) 0.6167(5)
C18_4 C 0.2468(5) 0.8737(5) 0.7403(5)
H12_4 H 0.2616 0.9249 0.7745
C19_4 C 0.2465(5) 0.8725(6) 0.6552(5)
C20_4 C 0.2015(5) 0.7214(6) 0.7227(5)
H13_4 H 0.1856 0.6716 0.7454
C21_4 C 0.2251(5) 0.7982(5) 0.8665(4)
C22_4 C 0.2238(6) 0.7969(6) 0.6038(5)
H14_4 H 0.2231 0.7970 0.5466
C23_4 C 0.0640(5) 0.5761(6) 0.5962(6)
C24_4 C 0.1488(6) 0.5674(6) 0.6110(6)
H15_4 H 0.1555 0.5163 0.5781
H16_4 H 0.1775 0.5556 0.6729
C25_4 C 0.0151(6) 0.6348(8) 0.5357(8)
H17_4 H 0.0350 0.6712 0.5030
C26_4 C 0.0292(7) 0.5241(9) 0.6394(7)
H18_4 H 0.0587 0.4826 0.6803
H22_2 H 0.362773 0.612275 0.928826
H24_2 H 0.120762 0.933184 0.98567
C27_4 C 0.9503(7) 0.5326(9) 0.6229(7)
H19_4 H 0.9284 0.4946 0.6524
C28_4 C 0.9374(6) 0.6399(8) 0.5235(8)
H20_3 H 0.9061 0.6797 0.4818
H22_3 H 0.137227 0.887725 0.0711739
H24_3 H 0.379238 0.566816 0.0143304
H21_3 H 0.11936 0.924379 0.972387
H23_3 H 0.361429 0.628662 0.927848
H22_4 H 0.637227 0.387725 0.0711739
H24_4 H 0.879238 0.0668163 0.0143304
H21_4 H 0.61936 0.424379 0.972387
H23_4 H 0.861429 0.128662 0.927848
H10_3 H 0.9061 0.3203 0.9818
H20_4 H 0.0939 0.6797 0.0182
H10_4 H 0.4061 0.8203 0.9818
loop_
_geom_bond_atom_site_label_1
_geom_bond_atom_site_label_2
_geom_bond_site_symmetry_1
_geom_bond_site_symmetry_2
Mn1 O4 1_555 1_555
O2 C3 1_555 1_555
O3 C7 1_555 1_555
O4 C7 1_555 1_555
C1 C4 1_555 1_555
N1 H1 1_555 1_555
C2 N1 1_555 1_555
C3 C5 1_555 1_555
C4 H2 1_555 1_555
C5 C4 1_555 1_555
C6 C1 1_555 1_555
H3 C6 1_555 1_555
C7 C1 1_555 1_555
C8 C2 1_555 1_555
H4 C8 1_555 1_555
C9 C10 1_555 1_555
O5 Mn1 1_555 1_555
C10 N1 1_555 1_555
H5 C10 1_555 1_555
H6 C10 1_555 1_555
C11 C9 1_555 1_555
H7 C11 1_555 1_555
C12 C9 1_555 1_555
H8 C12 1_555 1_555
Mn2 O3 1_555 1_555
Mn5 O6 1_555 1_555
Mn6 N4 1_555 1_555
O6 C17 1_555 1_555
O7 Mn1 1_555 1_555
O8 Mn2 1_555 1_555
O9 Mn5 1_555 1_555
O11 Mn2 1_555 1_555
O12 Mn1 1_555 1_555
O13 Mn2 1_555 1_555
C15 C18 1_555 1_555
N3 H11 1_555 1_555
N4 C27 1_555 1_555
N5 Mn1 1_555 1_555
N6 Mn2 1_555 1_555
C16 N3 1_555 1_555
C17 O9 1_555 1_555
C18 H12 1_555 1_555
C19 C17 1_555 1_555
C20 C15 1_555 1_555
H13 C20 1_555 1_555
C21 O12 1_555 1_555
C22 C16 1_555 1_555
H14 C22 1_555 1_555
C23 C24 1_555 1_555
O14 Mn2 1_555 1_555
C24 N3 1_555 1_555
H15 C24 1_555 1_555
H16 C24 1_555 1_555
C25 C23 1_555 1_555
H17 C25 1_555 1_555
C26 C23 1_555 1_555
C27 C26 1_555 1_555
C28 N4 1_555 1_555
C2 C6 1_555 1_555
C5 C8 1_555 1_555
O13 C21 1_555 1_555
C15 C21 1_555 1_555
C16 C20 1_555 1_555
C18 C19 1_555 1_555
C19 C22 1_555 1_555
C25 C28 1_555 1_555
Mn3 O1 1_555 1_555
N2 C13 1_555 1_555
H9 C13 1_555 1_555
C14 N2 1_555 1_555
Mn4 N2 1_555 1_555
N6 C13_2 1_555 1_555
H9_2 C13_2 1_555 1_555
C14_2 N6 1_555 1_555
H10 C14_2 1_555 1_555
O2_2 C3_2 1_555 1_555
O3_2 C7_2 1_555 1_555
O4_2 C7_2 1_555 1_555
C1_2 C4_2 1_555 1_555
N1_2 H1_2 1_555 1_555
C2_2 N1_2 1_555 1_555
C3_2 C5_2 1_555 1_555
C4_2 H2_2 1_555 1_555
C5_2 C4_2 1_555 1_555
C6_2 C1_2 1_555 1_555
H3_2 C6_2 1_555 1_555
C7_2 C1_2 1_555 1_555
C8_2 C2_2 1_555 1_555
H4_2 C8_2 1_555 1_555
C9_2 C10_2 1_555 1_555
C10_2 N1_2 1_555 1_555
H5_2 C10_2 1_555 1_555
H6_2 C10_2 1_555 1_555
C11_2 C9_2 1_555 1_555
H7_2 C11_2 1_555 1_555
C12_2 C9_2 1_555 1_555
H8_2 C12_2 1_555 1_555
Mn4 O3_2 1_555 1_555
O8_2 Mn4 1_555 1_555
O11_2 Mn4 1_555 1_555
O14_2 Mn4 1_555 1_555
C2_2 C6_2 1_555 1_555
C5_2 C8_2 1_555 1_555
O14_2 H23 1_555 1_555
O5_2 Mn6 1_555 1_555
Mn5_2 O6_2 1_555 1_555
O6_2 C17_2 1_555 1_555
O7_2 Mn6 1_555 1_555
O9_2 Mn5_2 1_555 1_555
O12_2 Mn6 1_555 1_555
C15_2 C18_2 1_555 1_555
N3_2 H11_2 1_555 1_555
N5 C27_2 1_555 1_555
C16_2 N3_2 1_555 1_555
C17_2 O9_2 1_555 1_555
C18_2 H12_2 1_555 1_555
C19_2 C17_2 1_555 1_555
C20_2 C15_2 1_555 1_555
H13_2 C20_2 1_555 1_555
C21_2 O12_2 1_555 1_555
C22_2 C16_2 1_555 1_555
H14_2 C22_2 1_555 1_555
C23_2 C24_2 1_555 1_555
C24_2 N3_2 1_555 1_555
H15_2 C24_2 1_555 1_555
H16_2 C24_2 1_555 1_555
C25_2 C23_2 1_555 1_555
H17_2 C25_2 1_555 1_555
C26_2 C23_2 1_555 1_555
C27_2 C26_2 1_555 1_555
C28_2 N5 1_555 1_555
H20_2 C28_2 1_555 1_555
O13_2 C21_2 1_555 1_555
C15_2 C21_2 1_555 1_555
C16_2 C20_2 1_555 1_555
C18_2 C19_2 1_555 1_555
C19_2 C22_2 1_555 1_555
C25_2 C28_2 1_555 1_555
O5_2 H22 1_555 1_555
Mn3_2 O1_2 1_555 1_555
Mn5 N4_2 1_555 1_555
N4_2 C27_3 1_555 1_555
H19_3 C27_3 1_555 1_555
C28_3 N4_2 1_555 1_555
Mn5_2 O4_3 1_555 1_555
O8_2 C3_3 1_555 1_555
O11_2 C3_3 1_555 1_555
O3_3 C7_3 1_555 1_555
O4_3 C7_3 1_555 1_555
C1_3 C4_3 1_555 1_555
N1_3 H1_3 1_555 1_555
N2_2 C13_3 1_555 1_555
C2_3 N1_3 1_555 1_555
C3_3 C5_3 1_555 1_555
C4_3 H2_3 1_555 1_555
C5_3 C4_3 1_555 1_555
C6_3 C1_3 1_555 1_555
H3_3 C6_3 1_555 1_555
C7_3 C1_3 1_555 1_555
C8_3 C2_3 1_555 1_555
H4_3 C8_3 1_555 1_555
C9_3 C10_3 1_555 1_555
O5_3 Mn5_2 1_555 1_555
C10_3 N1_3 1_555 1_555
H5_3 C10_3 1_555 1_555
H6_3 C10_3 1_555 1_555
C11_3 C9_3 1_555 1_555
H7_3 C11_3 1_555 1_555
C12_3 C9_3 1_555 1_555
C13_3 C12_3 1_555 1_555
C14_3 N2_2 1_555 1_555
Mn3_2 O3_3 1_555 1_555
Mn3 N2_2 1_555 1_555
O12_3 Mn5_2 1_555 1_555
O13_3 Mn3_2 1_555 1_555
C15_3 C18_3 1_555 1_555
N3_3 H11_3 1_555 1_555
N5_2 Mn5_2 1_555 1_555
N6_2 Mn3_2 1_555 1_555
C16_3 N3_3 1_555 1_555
C17_3 O10_2 1_555 1_555
C18_3 H12_3 1_555 1_555
C19_3 C17_3 1_555 1_555
C20_3 C15_3 1_555 1_555
H13_3 C20_3 1_555 1_555
C21_3 O12_3 1_555 1_555
C22_3 C16_3 1_555 1_555
H14_3 C22_3 1_555 1_555
C23_3 C24_3 1_555 1_555
O14_3 Mn3_2 1_555 1_555
C24_3 N3_3 1_555 1_555
H15_3 C24_3 1_555 1_555
H16_3 C24_3 1_555 1_555
C25_3 C23_3 1_555 1_555
H17_3 C25_3 1_555 1_555
C26_3 C23_3 1_555 1_555
H18_3 C26_3 1_555 1_555
C2_3 C6_3 1_555 1_555
C5_3 C8_3 1_555 1_555
C11_3 C14_3 1_555 1_555
O13_3 C21_3 1_555 1_555
C15_3 C21_3 1_555 1_555
C16_3 C20_3 1_555 1_555
C18_3 C19_3 1_555 1_555
C19_3 C22_3 1_555 1_555
O8 C3_4 1_555 1_555
O11 C3_4 1_555 1_555
O3_4 C7_4 1_555 1_555
O4_4 C7_4 1_555 1_555
C1_4 C4_4 1_555 1_555
N1_4 H1_4 1_555 1_555
N6_2 C13_4 1_555 1_555
C2_4 N1_4 1_555 1_555
C3_4 C5_4 1_555 1_555
C4_4 H2_4 1_555 1_555
C5_4 C4_4 1_555 1_555
C6_4 C1_4 1_555 1_555
H3_4 C6_4 1_555 1_555
C7_4 C1_4 1_555 1_555
C8_4 C2_4 1_555 1_555
H4_4 C8_4 1_555 1_555
C9_4 C10_4 1_555 1_555
C10_4 N1_4 1_555 1_555
H5_4 C10_4 1_555 1_555
H6_4 C10_4 1_555 1_555
C11_4 C9_4 1_555 1_555
H7_4 C11_4 1_555 1_555
C12_4 C9_4 1_555 1_555
C13_4 C12_4 1_555 1_555
C14_4 N6_2 1_555 1_555
H10_2 C14_4 1_555 1_555
Mn3 O3_4 1_555 1_555
O14_4 Mn3 1_555 1_555
C2_4 C6_4 1_555 1_555
C5_4 C8_4 1_555 1_555
C11_4 C14_4 1_555 1_555
O14_4 H23_2 1_555 1_555
O5_4 Mn5 1_555 1_555
O12_4 Mn5 1_555 1_555
C15_4 C18_4 1_555 1_555
N3_4 H11_4 1_555 1_555
C16_4 N3_4 1_555 1_555
C17_4 O10 1_555 1_555
C18_4 H12_4 1_555 1_555
C19_4 C17_4 1_555 1_555
C20_4 C15_4 1_555 1_555
H13_4 C20_4 1_555 1_555
C21_4 O12_4 1_555 1_555
C22_4 C16_4 1_555 1_555
H14_4 C22_4 1_555 1_555
C23_4 C24_4 1_555 1_555
C24_4 N3_4 1_555 1_555
H15_4 C24_4 1_555 1_555
H16_4 C24_4 1_555 1_555
C25_4 C23_4 1_555 1_555
H17_4 C25_4 1_555 1_555
C26_4 C23_4 1_555 1_555
H18_4 C26_4 1_555 1_555
O13_4 C21_4 1_555 1_555
C15_4 C21_4 1_555 1_555
C16_4 C20_4 1_555 1_555
C18_4 C19_4 1_555 1_555
C19_4 C22_4 1_555 1_555
O5_4 H22_2 1_555 1_555
N5_2 C27_4 1_555 1_555
H19_4 C27_4 1_555 1_555
C28_4 N5_2 1_555 1_555
H20_3 C28_4 1_555 1_555
O14_4 H22_3 1_555 1_555
O5_4 H23_3 1_555 1_555
O14_2 H22_4 1_555 1_555
O5_2 H23_4 1_555 1_555

#END
