
###############################################################################
#
# This file contains modified crystal structure data generated from the
# MOF subset of the Cambridge Structural Database (CSD) v543 
# hosted by the Cambridge Crystallographic Data Centre (CCDC).
#
# This work is licensed under the Creative Commons
# Attribution-NonCommercial-ShareAlike 4.0 International License.
# To view a copy of this license, visit
# http://creativecommons.org/licenses/by-nc-sa/4.0/
# or send a letter to
# Creative Commons, PO Box 1866, Mountain View, CA 94042, USA.
#
# CIF created using the CSD Python API on 29 September 2022
# The structure has been converted into the P1 space group
# The structure has a 3D framework
# The original CSD entry LUFNAC03 is in the monoclinic crystal system
# The framework has been calculated to contain at least 10.0% void space
# The void calculation uses a probe of radius 1.32A, grid spacing 0.4
# H atom positions have been added when not included in the experimental data
# Generated hydrogen atom positions removed from atoms on special positions
#
###############################################################################

data_LUFNAC03
_chemical_formula_moiety         '(C112 H112 Mn8 N16 O36)n'
_symmetry_cell_setting           triclinic
_symmetry_space_group_name_H-M   'P 1'
_symmetry_Int_Tables_number      1
_space_group_name_Hall           'P 1'
loop_
_symmetry_equiv_pos_site_id
_symmetry_equiv_pos_as_xyz
1 x,y,z
_cell_length_a                   18.408(6)
_cell_length_b                   15.037(5)
_cell_length_c                   16.357(6)
_cell_angle_alpha                90
_cell_angle_beta                 111.575(5)
_cell_angle_gamma                90
_cell_volume                     4210.42
loop_
_atom_site_label
_atom_site_type_symbol
_atom_site_fract_x
_atom_site_fract_y
_atom_site_fract_z
H20 H 0.5938 0.1799 0.0181
Mn1 Mn 0.27593(5) 0.10845(5) 0.54678(5)
O2 O 0.1975(2) 0.2671(2) 0.3921(2)
O3 O 0.2590(3) 0.0433(3) 0.0364(2)
O4 O 0.2529(2) 0.1331(2) 0.4122(2)
C1 C 0.2017(3) 0.2793(4) 0.1364(3)
C2 C 0.2249(3) 0.2013(3) 0.2740(3)
N2 N 0.1825(3) 0.3546(3) 0.0851(3)
H1 H 0.1902 0.3558 0.0364
C3 C 0.2473(3) 0.1260(3) 0.2403(3)
H2 H 0.2635 0.0754 0.2748
C4 C 0.2454(3) 0.1268(4) 0.1541(4)
C5 C 0.2655(3) 0.0439(4) 0.1163(3)
C6 C 0.0638(3) 0.4237(3) 0.0965(3)
C7 C 0.2009(3) 0.2777(3) 0.2225(3)
H3 H 0.1845 0.3274 0.2448
C8 C 0.2258(3) 0.2011(3) 0.3672(3)
C9 C 0.2230(3) 0.2033(4) 0.1040(3)
H4 H 0.2223 0.2033 0.0468
C10 C 0.1492(3) 0.4322(3) 0.1115(3)
H5 H 0.1563 0.4835 0.0792
H6 H 0.1779 0.4433 0.1735
O5 O 0.1520(3) 0.1204(4) 0.5272(4)
C11 C 0.0161(4) 0.3647(5) 0.0350(5)
H7 H 0.0363 0.3290 0.0021
C12 C 0.0287(5) 0.4769(5) 0.1394(5)
H8 H 0.0581 0.5187 0.1801
Mn2 Mn 0.22407(5) 0.39155(5) 0.45322(5)
Mn5 Mn 0.22407(5) 0.60845(5) 0.95322(5)
Mn6 Mn 0.72407(5) 0.10845(5) 0.95322(5)
O6 O 0.2126(3) 0.5248(2) 0.8358(2)
O7 O 0.2874(3) 0.0248(2) 0.6642(2)
O8 O 0.2126(3) 0.4752(2) 0.3358(2)
O9 O 0.3025(2) 0.2329(2) 0.6079(2)
O10 O 0.2410(3) 0.4567(3) 0.9636(2)
O12 O 0.2410(3) 0.5433(3) 0.4636(2)
O13 O 0.2471(2) 0.3669(2) 0.5878(2)
C15 C 0.2983(3) 0.2207(4) 0.8636(3)
N3 N 0.5960(3) 0.0911(3) 0.9323(3)
N4 N 0.4040(3) 0.0911(3) 0.5677(3)
N5 N 0.0960(3) 0.4089(3) 0.4323(3)
C16 C 0.2751(3) 0.2987(3) 0.7260(3)
N6 N 0.3175(3) 0.1454(3) 0.9149(3)
H11 H 0.3098 0.1442 0.9636
C17 C 0.2527(3) 0.3740(3) 0.7597(3)
H12 H 0.2365 0.4246 0.7252
C18 C 0.2546(3) 0.3732(4) 0.8459(4)
C19 C 0.2345(3) 0.4561(4) 0.8837(3)
C20 C 0.4362(3) 0.0763(3) 0.9035(3)
C21 C 0.2991(3) 0.2223(3) 0.7775(3)
H13 H 0.3155 0.1726 0.7552
C22 C 0.2742(3) 0.2989(3) 0.6328(3)
C23 C 0.2770(3) 0.2967(4) 0.8960(3)
H14 H 0.2777 0.2967 0.9532
C24 C 0.3508(3) 0.0678(3) 0.8885(3)
H15 H 0.3437 0.0165 0.9208
H16 H 0.3221 0.0567 0.8265
O14 O 0.3480(3) 0.3796(4) 0.4728(4)
C25 C 0.4839(4) 0.1353(5) 0.9650(5)
H17 H 0.4637 0.1710 0.9979
C26 C 0.4713(5) 0.0231(5) 0.8606(5)
C27 C 0.5493(4) 0.0313(5) 0.8776(5)
C28 C 0.5625(4) 0.1400(4) 0.9766(5)
O1 O 0.2874(3) 0.9752(2) 0.1642(2)
Mn3 Mn 0.27593(5) 0.89155(5) 0.04678(5)
O11 O 0.2590(3) 0.9567(3) 0.5364(2)
H18 H 0.4419 0.9813 0.8199
H19 H 0.5715 0.9926 0.8491
N1 N 0.9040(3) 0.4089(3) 0.0677(3)
C13 C 0.9507(4) 0.4687(5) 0.1224(5)
H9 H 0.9285 0.5074 0.1509
C14 C 0.9375(4) 0.3600(4) 0.0234(5)
Mn4 Mn 0.77593(5) 0.39155(5) 0.04678(5)
C13_2 C 0.0493(4) 0.4687(5) 0.3776(5)
H9_2 H 0.0715 0.5074 0.3491
C14_2 C 0.0625(4) 0.3600(4) 0.4766(5)
H10 H 0.0938 0.3201 0.5181
O2_2 O 0.8025(2) 0.2671(2) 0.1079(2)
O3_2 O 0.7410(3) 0.0433(3) 0.4636(2)
O4_2 O 0.7471(2) 0.1331(2) 0.0878(2)
C1_2 C 0.7983(3) 0.2793(4) 0.3636(3)
C2_2 C 0.7751(3) 0.2013(3) 0.2260(3)
N2_2 N 0.8175(3) 0.3546(3) 0.4149(3)
H1_2 H 0.8098 0.3558 0.4636
C3_2 C 0.7527(3) 0.1260(3) 0.2597(3)
H2_2 H 0.7365 0.0754 0.2252
C4_2 C 0.7546(3) 0.1268(4) 0.3459(4)
C5_2 C 0.7345(3) 0.0439(4) 0.3837(3)
C6_2 C 0.9362(3) 0.4237(3) 0.4035(3)
C7_2 C 0.7991(3) 0.2777(3) 0.2775(3)
H3_2 H 0.8155 0.3274 0.2552
C8_2 C 0.7742(3) 0.2011(3) 0.1328(3)
C9_2 C 0.7770(3) 0.2033(4) 0.3960(3)
H4_2 H 0.7777 0.2033 0.4532
C10_2 C 0.8508(3) 0.4322(3) 0.3885(3)
H5_2 H 0.8437 0.4835 0.4208
H6_2 H 0.8221 0.4433 0.3265
C11_2 C 0.9839(4) 0.3647(5) 0.4650(5)
H7_2 H 0.9637 0.3290 0.4979
C12_2 C 0.9713(5) 0.4769(5) 0.3606(5)
H8_2 H 0.9419 0.5187 0.3199
O8_2 O 0.7874(3) 0.4752(2) 0.1642(2)
O12_2 O 0.7590(3) 0.5433(3) 0.0364(2)
O14_2 O 0.6520(3) 0.3796(4) 0.0272(4)
H21 H 0.878441 0.0748761 0.0157138
H23 H 0.646562 0.373065 0.0850908
O5_2 O 0.8480(3) 0.1204(4) 0.9728(4)
Mn5_2 Mn 0.77593(5) 0.60845(5) 0.54678(5)
O6_2 O 0.7874(3) 0.5248(2) 0.6642(2)
O7_2 O 0.7126(3) 0.0248(2) 0.8358(2)
O9_2 O 0.6975(2) 0.2329(2) 0.8921(2)
O10_2 O 0.7590(3) 0.4567(3) 0.5364(2)
O13_2 O 0.7529(2) 0.3669(2) 0.9122(2)
C15_2 C 0.7017(3) 0.2207(4) 0.6364(3)
C16_2 C 0.7249(3) 0.2987(3) 0.7740(3)
N6_2 N 0.6825(3) 0.1454(3) 0.5851(3)
H11_2 H 0.6902 0.1442 0.5364
C17_2 C 0.7473(3) 0.3740(3) 0.7403(3)
H12_2 H 0.7635 0.4246 0.7748
C18_2 C 0.7454(3) 0.3732(4) 0.6541(4)
C19_2 C 0.7655(3) 0.4561(4) 0.6163(3)
C20_2 C 0.5638(3) 0.0763(3) 0.5965(3)
C21_2 C 0.7009(3) 0.2223(3) 0.7225(3)
H13_2 H 0.6845 0.1726 0.7448
C22_2 C 0.7258(3) 0.2989(3) 0.8672(3)
C23_2 C 0.7230(3) 0.2967(4) 0.6040(3)
H14_2 H 0.7223 0.2967 0.5468
C24_2 C 0.6492(3) 0.0678(3) 0.6115(3)
H15_2 H 0.6563 0.0165 0.5792
H16_2 H 0.6779 0.0567 0.6735
C25_2 C 0.5161(4) 0.1353(5) 0.5350(5)
H17_2 H 0.5363 0.1710 0.5021
C26_2 C 0.5287(5) 0.0231(5) 0.6394(5)
C27_2 C 0.4507(4) 0.0313(5) 0.6224(5)
C28_2 C 0.4375(4) 0.1400(4) 0.5234(5)
H20_2 H 0.4062 0.1799 0.4819
H22 H 0.85472 0.111118 0.915889
H24 H 0.623735 0.433741 0.997249
O1_2 O 0.7126(3) 0.9752(2) 0.3358(2)
Mn3_2 Mn 0.72407(5) 0.89155(5) 0.45322(5)
O11_2 O 0.7410(3) 0.9567(3) 0.9636(2)
H18_2 H 0.5581 0.9813 0.6801
H19_2 H 0.4285 0.9926 0.6509
N3_2 N 0.0960(3) 0.5911(3) 0.9323(3)
C27_3 C 0.0493(4) 0.5313(5) 0.8776(5)
H19_3 H 0.0715 0.4926 0.8491
C28_3 C 0.0625(4) 0.6400(4) 0.9766(5)
H8_3 H 0.5581 0.0187 0.1801
H9_3 H 0.4285 0.0074 0.1509
O2_3 O 0.6975(2) 0.7671(2) 0.3921(2)
O4_3 O 0.7529(2) 0.6331(2) 0.4122(2)
C1_3 C 0.7017(3) 0.7793(4) 0.1364(3)
N1_2 N 0.4040(3) 0.9089(3) 0.0677(3)
C2_3 C 0.7249(3) 0.7013(3) 0.2740(3)
N2_3 N 0.6825(3) 0.8546(3) 0.0851(3)
H1_3 H 0.6902 0.8558 0.0364
C3_3 C 0.7473(3) 0.6260(3) 0.2403(3)
H2_3 H 0.7635 0.5754 0.2748
C4_3 C 0.7454(3) 0.6268(4) 0.1541(4)
C5_3 C 0.7655(3) 0.5439(4) 0.1163(3)
C6_3 C 0.5638(3) 0.9237(3) 0.0965(3)
C7_3 C 0.7009(3) 0.7777(3) 0.2225(3)
H3_3 H 0.6845 0.8274 0.2448
C8_3 C 0.7258(3) 0.7011(3) 0.3672(3)
C9_3 C 0.7230(3) 0.7033(4) 0.1040(3)
H4_3 H 0.7223 0.7033 0.0468
C10_3 C 0.6492(3) 0.9322(3) 0.1115(3)
H5_3 H 0.6563 0.9835 0.0792
H6_3 H 0.6779 0.9433 0.1735
O5_3 O 0.6520(3) 0.6204(4) 0.5272(4)
C11_3 C 0.5161(4) 0.8647(5) 0.0350(5)
H7_3 H 0.5363 0.8290 0.0021
C12_3 C 0.5287(5) 0.9769(5) 0.1394(5)
C13_3 C 0.4507(4) 0.9687(5) 0.1224(5)
C14_3 C 0.4375(4) 0.8600(4) 0.0234(5)
O9_3 O 0.8025(2) 0.7329(2) 0.6079(2)
O13_3 O 0.7471(2) 0.8669(2) 0.5878(2)
C15_3 C 0.7983(3) 0.7207(4) 0.8636(3)
N4_2 N 0.9040(3) 0.5911(3) 0.5677(3)
N5_2 N 0.5960(3) 0.9089(3) 0.4323(3)
C16_3 C 0.7751(3) 0.7987(3) 0.7260(3)
N6_3 N 0.8175(3) 0.6454(3) 0.9149(3)
H11_3 H 0.8098 0.6442 0.9636
C17_3 C 0.7527(3) 0.8740(3) 0.7597(3)
H12_3 H 0.7365 0.9246 0.7252
C18_3 C 0.7546(3) 0.8732(4) 0.8459(4)
C19_3 C 0.7345(3) 0.9561(4) 0.8837(3)
C20_3 C 0.9362(3) 0.5763(3) 0.9035(3)
C21_3 C 0.7991(3) 0.7223(3) 0.7775(3)
H13_3 H 0.8155 0.6726 0.7552
C22_3 C 0.7742(3) 0.7989(3) 0.6328(3)
C23_3 C 0.7770(3) 0.7967(4) 0.8960(3)
H14_3 H 0.7777 0.7967 0.9532
C24_3 C 0.8508(3) 0.5678(3) 0.8885(3)
H15_3 H 0.8437 0.5165 0.9208
H16_3 H 0.8221 0.5567 0.8265
O14_3 O 0.8480(3) 0.8796(4) 0.4728(4)
C25_3 C 0.9839(4) 0.6353(5) 0.9650(5)
H17_3 H 0.9637 0.6710 0.9979
C26_3 C 0.9713(5) 0.5231(5) 0.8606(5)
H18_3 H 0.9419 0.4813 0.8199
H8_4 H 0.4419 0.0187 0.3199
H9_4 H 0.5715 0.0074 0.3491
O2_4 O 0.3025(2) 0.7671(2) 0.1079(2)
O4_4 O 0.2471(2) 0.6331(2) 0.0878(2)
C1_4 C 0.2983(3) 0.7793(4) 0.3636(3)
C2_4 C 0.2751(3) 0.7013(3) 0.2260(3)
N2_4 N 0.3175(3) 0.8546(3) 0.4149(3)
H1_4 H 0.3098 0.8558 0.4636
C3_4 C 0.2527(3) 0.6260(3) 0.2597(3)
H2_4 H 0.2365 0.5754 0.2252
C4_4 C 0.2546(3) 0.6268(4) 0.3459(4)
C5_4 C 0.2345(3) 0.5439(4) 0.3837(3)
C6_4 C 0.4362(3) 0.9237(3) 0.4035(3)
C7_4 C 0.2991(3) 0.7777(3) 0.2775(3)
H3_4 H 0.3155 0.8274 0.2552
C8_4 C 0.2742(3) 0.7011(3) 0.1328(3)
C9_4 C 0.2770(3) 0.7033(4) 0.3960(3)
H4_4 H 0.2777 0.7033 0.4532
C10_4 C 0.3508(3) 0.9322(3) 0.3885(3)
H5_4 H 0.3437 0.9835 0.4208
H6_4 H 0.3221 0.9433 0.3265
C11_4 C 0.4839(4) 0.8647(5) 0.4650(5)
H7_4 H 0.4637 0.8290 0.4979
C12_4 C 0.4713(5) 0.9769(5) 0.3606(5)
C13_4 C 0.5493(4) 0.9687(5) 0.3776(5)
C14_4 C 0.5625(4) 0.8600(4) 0.4766(5)
H10_2 H 0.5938 0.8201 0.5181
O14_4 O 0.1520(3) 0.8796(4) 0.0272(4)
H21_2 H 0.378441 0.574876 0.0157138
H23_2 H 0.146562 0.873065 0.0850908
O5_4 O 0.3480(3) 0.6204(4) 0.9728(4)
O9_4 O 0.1975(2) 0.7329(2) 0.8921(2)
O13_4 O 0.2529(2) 0.8669(2) 0.9122(2)
C15_4 C 0.2017(3) 0.7207(4) 0.6364(3)
C16_4 C 0.2249(3) 0.7987(3) 0.7740(3)
N6_4 N 0.1825(3) 0.6454(3) 0.5851(3)
H11_4 H 0.1902 0.6442 0.5364
C17_4 C 0.2473(3) 0.8740(3) 0.7403(3)
H12_4 H 0.2635 0.9246 0.7748
C18_4 C 0.2454(3) 0.8732(4) 0.6541(4)
C19_4 C 0.2655(3) 0.9561(4) 0.6163(3)
C20_4 C 0.0638(3) 0.5763(3) 0.5965(3)
C21_4 C 0.2009(3) 0.7223(3) 0.7225(3)
H13_4 H 0.1845 0.6726 0.7448
C22_4 C 0.2258(3) 0.7989(3) 0.8672(3)
C23_4 C 0.2230(3) 0.7967(4) 0.6040(3)
H14_4 H 0.2223 0.7967 0.5468
C24_4 C 0.1492(3) 0.5678(3) 0.6115(3)
H15_4 H 0.1563 0.5165 0.5792
H16_4 H 0.1779 0.5567 0.6735
C25_4 C 0.0161(4) 0.6353(5) 0.5350(5)
H17_4 H 0.0363 0.6710 0.5021
C26_4 C 0.0287(5) 0.5231(5) 0.6394(5)
H18_4 H 0.0581 0.4813 0.6801
H22_2 H 0.35472 0.611118 0.915889
H24_2 H 0.123735 0.933741 0.997249
C27_4 C 0.9507(4) 0.5313(5) 0.6224(5)
H19_4 H 0.9285 0.4926 0.6509
C28_4 C 0.9375(4) 0.6400(4) 0.5234(5)
H20_3 H 0.9062 0.6799 0.4819
H22_3 H 0.14528 0.888882 0.0841114
H24_3 H 0.376265 0.566259 0.0027511
H21_3 H 0.121559 0.925124 0.984286
H23_3 H 0.353438 0.626935 0.914909
H22_4 H 0.64528 0.388882 0.0841114
H24_4 H 0.876265 0.066259 0.0027511
H21_4 H 0.621559 0.425124 0.984286
H23_4 H 0.853438 0.126935 0.914909
H10_3 H 0.9062 0.3201 0.9819
H20_4 H 0.0938 0.6799 0.0181
H10_4 H 0.4062 0.8201 0.9819
loop_
_geom_bond_atom_site_label_1
_geom_bond_atom_site_label_2
_geom_bond_site_symmetry_1
_geom_bond_site_symmetry_2
Mn1 O4 1_555 1_555
O2 C8 1_555 1_555
O3 C5 1_555 1_555
O4 C8 1_555 1_555
C1 N2 1_555 1_555
C2 C3 1_555 1_555
N2 H1 1_555 1_555
C3 H2 1_555 1_555
C4 C3 1_555 1_555
C5 C4 1_555 1_555
C6 C10 1_555 1_555
C7 C1 1_555 1_555
H3 C7 1_555 1_555
C8 C2 1_555 1_555
C9 C1 1_555 1_555
H4 C9 1_555 1_555
C10 N2 1_555 1_555
H5 C10 1_555 1_555
H6 C10 1_555 1_555
O5 Mn1 1_555 1_555
C11 C6 1_555 1_555
H7 C11 1_555 1_555
C12 C6 1_555 1_555
H8 C12 1_555 1_555
Mn2 O2 1_555 1_555
Mn5 O6 1_555 1_555
Mn6 N3 1_555 1_555
O6 C19 1_555 1_555
O7 Mn1 1_555 1_555
O8 Mn2 1_555 1_555
O9 Mn1 1_555 1_555
O10 Mn5 1_555 1_555
O12 Mn2 1_555 1_555
O13 Mn2 1_555 1_555
C15 N6 1_555 1_555
N3 C27 1_555 1_555
N4 Mn1 1_555 1_555
N5 Mn2 1_555 1_555
C16 C17 1_555 1_555
N6 H11 1_555 1_555
C17 H12 1_555 1_555
C18 C17 1_555 1_555
C19 O10 1_555 1_555
C20 C24 1_555 1_555
C21 C15 1_555 1_555
H13 C21 1_555 1_555
C22 O9 1_555 1_555
C23 C15 1_555 1_555
H14 C23 1_555 1_555
C24 N6 1_555 1_555
H15 C24 1_555 1_555
H16 C24 1_555 1_555
O14 Mn2 1_555 1_555
C25 C20 1_555 1_555
H17 C25 1_555 1_555
C26 C20 1_555 1_555
C27 C26 1_555 1_555
C28 N3 1_555 1_555
C2 C7 1_555 1_555
C4 C9 1_555 1_555
O13 C22 1_555 1_555
C16 C21 1_555 1_555
C16 C22 1_555 1_555
C18 C19 1_555 1_555
C18 C23 1_555 1_555
C25 C28 1_555 1_555
Mn3 O1 1_555 1_555
N1 C13 1_555 1_555
H9 C13 1_555 1_555
C14 N1 1_555 1_555
Mn4 N1 1_555 1_555
N5 C13_2 1_555 1_555
H9_2 C13_2 1_555 1_555
C14_2 N5 1_555 1_555
H10 C14_2 1_555 1_555
O2_2 C8_2 1_555 1_555
O3_2 C5_2 1_555 1_555
O4_2 C8_2 1_555 1_555
C1_2 N2_2 1_555 1_555
C2_2 C3_2 1_555 1_555
N2_2 H1_2 1_555 1_555
C3_2 H2_2 1_555 1_555
C4_2 C3_2 1_555 1_555
C5_2 C4_2 1_555 1_555
C6_2 C10_2 1_555 1_555
C7_2 C1_2 1_555 1_555
H3_2 C7_2 1_555 1_555
C8_2 C2_2 1_555 1_555
C9_2 C1_2 1_555 1_555
H4_2 C9_2 1_555 1_555
C10_2 N2_2 1_555 1_555
H5_2 C10_2 1_555 1_555
H6_2 C10_2 1_555 1_555
C11_2 C6_2 1_555 1_555
H7_2 C11_2 1_555 1_555
C12_2 C6_2 1_555 1_555
H8_2 C12_2 1_555 1_555
Mn4 O2_2 1_555 1_555
O8_2 Mn4 1_555 1_555
O12_2 Mn4 1_555 1_555
O14_2 Mn4 1_555 1_555
C2_2 C7_2 1_555 1_555
C4_2 C9_2 1_555 1_555
O14_2 H23 1_555 1_555
O5_2 Mn6 1_555 1_555
Mn5_2 O6_2 1_555 1_555
O6_2 C19_2 1_555 1_555
O7_2 Mn6 1_555 1_555
O9_2 Mn6 1_555 1_555
O10_2 Mn5_2 1_555 1_555
C15_2 N6_2 1_555 1_555
N4 C27_2 1_555 1_555
C16_2 C17_2 1_555 1_555
N6_2 H11_2 1_555 1_555
C17_2 H12_2 1_555 1_555
C18_2 C17_2 1_555 1_555
C19_2 O10_2 1_555 1_555
C20_2 C24_2 1_555 1_555
C21_2 C15_2 1_555 1_555
H13_2 C21_2 1_555 1_555
C22_2 O9_2 1_555 1_555
C23_2 C15_2 1_555 1_555
H14_2 C23_2 1_555 1_555
C24_2 N6_2 1_555 1_555
H15_2 C24_2 1_555 1_555
H16_2 C24_2 1_555 1_555
C25_2 C20_2 1_555 1_555
H17_2 C25_2 1_555 1_555
C26_2 C20_2 1_555 1_555
C27_2 C26_2 1_555 1_555
C28_2 N4 1_555 1_555
H20_2 C28_2 1_555 1_555
O13_2 C22_2 1_555 1_555
C16_2 C21_2 1_555 1_555
C16_2 C22_2 1_555 1_555
C18_2 C19_2 1_555 1_555
C18_2 C23_2 1_555 1_555
C25_2 C28_2 1_555 1_555
O5_2 H22 1_555 1_555
Mn3_2 O1_2 1_555 1_555
Mn5 N3_2 1_555 1_555
N3_2 C27_3 1_555 1_555
H19_3 C27_3 1_555 1_555
C28_3 N3_2 1_555 1_555
Mn5_2 O4_3 1_555 1_555
O8_2 C5_3 1_555 1_555
O2_3 C8_3 1_555 1_555
O12_2 C5_3 1_555 1_555
O4_3 C8_3 1_555 1_555
C1_3 N2_3 1_555 1_555
N1_2 C13_3 1_555 1_555
C2_3 C3_3 1_555 1_555
N2_3 H1_3 1_555 1_555
C3_3 H2_3 1_555 1_555
C4_3 C3_3 1_555 1_555
C5_3 C4_3 1_555 1_555
C6_3 C10_3 1_555 1_555
C7_3 C1_3 1_555 1_555
H3_3 C7_3 1_555 1_555
C8_3 C2_3 1_555 1_555
C9_3 C1_3 1_555 1_555
H4_3 C9_3 1_555 1_555
C10_3 N2_3 1_555 1_555
H5_3 C10_3 1_555 1_555
H6_3 C10_3 1_555 1_555
O5_3 Mn5_2 1_555 1_555
C11_3 C6_3 1_555 1_555
H7_3 C11_3 1_555 1_555
C12_3 C6_3 1_555 1_555
C13_3 C12_3 1_555 1_555
C14_3 N1_2 1_555 1_555
Mn3_2 O2_3 1_555 1_555
Mn3 N1_2 1_555 1_555
O9_3 Mn5_2 1_555 1_555
O13_3 Mn3_2 1_555 1_555
C15_3 N6_3 1_555 1_555
N4_2 Mn5_2 1_555 1_555
N5_2 Mn3_2 1_555 1_555
C16_3 C17_3 1_555 1_555
N6_3 H11_3 1_555 1_555
C17_3 H12_3 1_555 1_555
C18_3 C17_3 1_555 1_555
C19_3 O11_2 1_555 1_555
C20_3 C24_3 1_555 1_555
C21_3 C15_3 1_555 1_555
H13_3 C21_3 1_555 1_555
C22_3 O9_3 1_555 1_555
C23_3 C15_3 1_555 1_555
H14_3 C23_3 1_555 1_555
C24_3 N6_3 1_555 1_555
H15_3 C24_3 1_555 1_555
H16_3 C24_3 1_555 1_555
O14_3 Mn3_2 1_555 1_555
C25_3 C20_3 1_555 1_555
H17_3 C25_3 1_555 1_555
C26_3 C20_3 1_555 1_555
H18_3 C26_3 1_555 1_555
C2_3 C7_3 1_555 1_555
C4_3 C9_3 1_555 1_555
C11_3 C14_3 1_555 1_555
O13_3 C22_3 1_555 1_555
C16_3 C21_3 1_555 1_555
C16_3 C22_3 1_555 1_555
C18_3 C19_3 1_555 1_555
C18_3 C23_3 1_555 1_555
O8 C5_4 1_555 1_555
O2_4 C8_4 1_555 1_555
O12 C5_4 1_555 1_555
O4_4 C8_4 1_555 1_555
C1_4 N2_4 1_555 1_555
N5_2 C13_4 1_555 1_555
C2_4 C3_4 1_555 1_555
N2_4 H1_4 1_555 1_555
C3_4 H2_4 1_555 1_555
C4_4 C3_4 1_555 1_555
C5_4 C4_4 1_555 1_555
C6_4 C10_4 1_555 1_555
C7_4 C1_4 1_555 1_555
H3_4 C7_4 1_555 1_555
C8_4 C2_4 1_555 1_555
C9_4 C1_4 1_555 1_555
H4_4 C9_4 1_555 1_555
C10_4 N2_4 1_555 1_555
H5_4 C10_4 1_555 1_555
H6_4 C10_4 1_555 1_555
C11_4 C6_4 1_555 1_555
H7_4 C11_4 1_555 1_555
C12_4 C6_4 1_555 1_555
C13_4 C12_4 1_555 1_555
C14_4 N5_2 1_555 1_555
H10_2 C14_4 1_555 1_555
Mn3 O2_4 1_555 1_555
O14_4 Mn3 1_555 1_555
C2_4 C7_4 1_555 1_555
C4_4 C9_4 1_555 1_555
C11_4 C14_4 1_555 1_555
O14_4 H23_2 1_555 1_555
O5_4 Mn5 1_555 1_555
O9_4 Mn5 1_555 1_555
C15_4 N6_4 1_555 1_555
C16_4 C17_4 1_555 1_555
N6_4 H11_4 1_555 1_555
C17_4 H12_4 1_555 1_555
C18_4 C17_4 1_555 1_555
C19_4 O11 1_555 1_555
C20_4 C24_4 1_555 1_555
C21_4 C15_4 1_555 1_555
H13_4 C21_4 1_555 1_555
C22_4 O9_4 1_555 1_555
C23_4 C15_4 1_555 1_555
H14_4 C23_4 1_555 1_555
C24_4 N6_4 1_555 1_555
H15_4 C24_4 1_555 1_555
H16_4 C24_4 1_555 1_555
C25_4 C20_4 1_555 1_555
H17_4 C25_4 1_555 1_555
C26_4 C20_4 1_555 1_555
H18_4 C26_4 1_555 1_555
O13_4 C22_4 1_555 1_555
C16_4 C21_4 1_555 1_555
C16_4 C22_4 1_555 1_555
C18_4 C19_4 1_555 1_555
C18_4 C23_4 1_555 1_555
O5_4 H22_2 1_555 1_555
N4_2 C27_4 1_555 1_555
H19_4 C27_4 1_555 1_555
C28_4 N4_2 1_555 1_555
H20_3 C28_4 1_555 1_555
O14_4 H22_3 1_555 1_555
O5_4 H23_3 1_555 1_555
O14_2 H22_4 1_555 1_555
O5_2 H23_4 1_555 1_555

#END
