
###############################################################################
#
# This file contains modified crystal structure data generated from the
# MOF subset of the Cambridge Structural Database (CSD) v543 
# hosted by the Cambridge Crystallographic Data Centre (CCDC).
#
# This work is licensed under the Creative Commons
# Attribution-NonCommercial-ShareAlike 4.0 International License.
# To view a copy of this license, visit
# http://creativecommons.org/licenses/by-nc-sa/4.0/
# or send a letter to
# Creative Commons, PO Box 1866, Mountain View, CA 94042, USA.
#
# CIF created using the CSD Python API on 29 September 2022
# The structure has been converted into the P1 space group
# The structure has a 3D framework
# The original CSD entry LUFQUZ02 is in the orthorhombic crystal system
# The framework has been calculated to contain at least 10.0% void space
# The void calculation uses a probe of radius 1.32A, grid spacing 0.4
#
###############################################################################

data_LUFQUZ02
_chemical_formula_moiety         '(C16 H8 Fe5 N16 Ni2)n'
_symmetry_cell_setting           triclinic
_symmetry_space_group_name_H-M   'P 1'
_symmetry_Int_Tables_number      1
_space_group_name_Hall           'P 1'
loop_
_symmetry_equiv_pos_site_id
_symmetry_equiv_pos_as_xyz
1 x,y,z
_cell_length_a                   7.2666(3)
_cell_length_b                   7.2696(3)
_cell_length_c                   7.2421(3)
_cell_angle_alpha                90
_cell_angle_beta                 90
_cell_angle_gamma                90
_cell_volume                     382.566
loop_
_atom_site_label
_atom_site_type_symbol
_atom_site_fract_x
_atom_site_fract_y
_atom_site_fract_z
Fe3 Fe 0.0000 0.0000 0.0000
Fe3_2 Fe 0.0000 0.0000 1.0000
Fe3_3 Fe 0.0000 1.0000 0.0000
Fe3_4 Fe 0.0000 1.0000 1.0000
Fe3_5 Fe 1.0000 0.0000 0.0000
Fe3_6 Fe 1.0000 0.0000 1.0000
Ni1 Ni 0.5000 0.5000 0.0000
N1 N 0.2051(14) 0.2088(11) 0.0000
N2 N 0.0000 0.0000 0.3073(8)
C1 C 0.3243(15) 0.3120(16) 0.0000
C2 C 0.0000 0.1544(11) 0.4031(12)
H1 H 0.0000 0.2661 0.3406
Fe3_7 Fe 1.0000 1.0000 0.0000
N3 N 0.7949(14) 0.7912(11) 0.0000
N4 N 0.2051(14) 0.7912(11) 0.0000
N5 N 0.7949(14) 0.2088(11) 0.0000
N9 N 0.0000 0.0000 0.6927(8)
C3 C 0.6757(15) 0.6880(16) 0.0000
C4 C 0.3243(15) 0.6880(16) 0.0000
C5 C 0.6757(15) 0.3120(16) 0.0000
C6 C -0.0000 0.1544(11) 0.5969(12)
H4 H 0.0000 0.2661 0.6594
Ni1_2 Ni 0.5000 0.5000 1.0000
N1_2 N 0.2051(14) 0.2088(11) 1.0000
C1_2 C 0.3243(15) 0.3120(16) 1.0000
Fe3_8 Fe 1.0000 1.0000 1.0000
N3_2 N 0.7949(14) 0.7912(11) 1.0000
N4_2 N 0.2051(14) 0.7912(11) 1.0000
N5_2 N 0.7949(14) 0.2088(11) 1.0000
C3_2 C 0.6757(15) 0.6880(16) 1.0000
C4_2 C 0.3243(15) 0.6880(16) 1.0000
C5_2 C 0.6757(15) 0.3120(16) 1.0000
N2_2 N -0.0000 1.0000 0.3073(8)
N9_2 N 0.0000 1.0000 0.6927(8)
C7 C 0.0000 0.8456(11) 0.5969(12)
C8 C 0.0000 0.8456(11) 0.4031(12)
H2 H 0.0000 0.7339 0.3406
H3 H 0.0000 0.7339 0.6594
N2_3 N 1.0000 0.0000 0.3073(8)
C2_2 C 1.0000 0.1544(11) 0.4031(12)
H1_2 H 1.0000 0.2661 0.3406
N9_3 N 1.0000 0.0000 0.6927(8)
C6_2 C 1.0000 0.1544(11) 0.5969(12)
H4_2 H 1.0000 0.2661 0.6594
N2_4 N 1.0000 1.0000 0.3073(8)
N9_4 N 1.0000 1.0000 0.6927(8)
C7_2 C 1.0000 0.8456(11) 0.5969(12)
C8_2 C 1.0000 0.8456(11) 0.4031(12)
H2_2 H 1.0000 0.7339 0.3406
H3_2 H 1.0000 0.7339 0.6594
loop_
_geom_bond_atom_site_label_1
_geom_bond_atom_site_label_2
_geom_bond_site_symmetry_1
_geom_bond_site_symmetry_2
Ni1 C1 1_555 1_555
Fe3 N1 1_555 1_555
N1 C1 1_555 1_555
N2 Fe3 1_555 1_555
C2 N2 1_555 1_555
H1 C2 1_555 1_555
Fe3_2 N9 1_555 1_555
Fe3_7 N3 1_555 1_555
Fe3_3 N4 1_555 1_555
Fe3_5 N5 1_555 1_555
N3 C3 1_555 1_555
N4 C4 1_555 1_555
N5 C5 1_555 1_555
N9 C6 1_555 1_555
C3 Ni1 1_555 1_555
C4 Ni1 1_555 1_555
C5 Ni1 1_555 1_555
C6 C2 1_555 1_555
H4 C6 1_555 1_555
Ni1_2 C1_2 1_555 1_555
Fe3_2 N1_2 1_555 1_555
N1_2 C1_2 1_555 1_555
Fe3_8 N3_2 1_555 1_555
Fe3_4 N4_2 1_555 1_555
Fe3_6 N5_2 1_555 1_555
N3_2 C3_2 1_555 1_555
N4_2 C4_2 1_555 1_555
N5_2 C5_2 1_555 1_555
C3_2 Ni1_2 1_555 1_555
C4_2 Ni1_2 1_555 1_555
C5_2 Ni1_2 1_555 1_555
N2_2 Fe3_3 1_555 1_555
Fe3_4 N9_2 1_555 1_555
C7 N9_2 1_555 1_555
C8 N2_2 1_555 1_555
H2 C8 1_555 1_555
H3 C7 1_555 1_555
C7 C8 1_555 1_555
N2_3 Fe3_5 1_555 1_555
C2_2 N2_3 1_555 1_555
H1_2 C2_2 1_555 1_555
Fe3_6 N9_3 1_555 1_555
N9_3 C6_2 1_555 1_555
C6_2 C2_2 1_555 1_555
H4_2 C6_2 1_555 1_555
N2_4 Fe3_7 1_555 1_555
Fe3_8 N9_4 1_555 1_555
C7_2 N9_4 1_555 1_555
C8_2 N2_4 1_555 1_555
H2_2 C8_2 1_555 1_555
H3_2 C7_2 1_555 1_555
C7_2 C8_2 1_555 1_555

#END
