
###############################################################################
#
# This file contains modified crystal structure data generated from the
# MOF subset of the Cambridge Structural Database (CSD) v543 
# hosted by the Cambridge Crystallographic Data Centre (CCDC).
#
# This work is licensed under the Creative Commons
# Attribution-NonCommercial-ShareAlike 4.0 International License.
# To view a copy of this license, visit
# http://creativecommons.org/licenses/by-nc-sa/4.0/
# or send a letter to
# Creative Commons, PO Box 1866, Mountain View, CA 94042, USA.
#
# CIF created using the CSD Python API on 29 September 2022
# The structure has been converted into the P1 space group
# The structure has a 3D framework
# The original CSD entry LUFVAM is in the triclinic crystal system
# The framework has been calculated to contain at least 10.0% void space
# The void calculation uses a probe of radius 1.32A, grid spacing 0.4
#
###############################################################################

data_LUFVAM
_chemical_formula_moiety         '(C54 H32 N12 O12 Zn4)n'
_symmetry_cell_setting           triclinic
_symmetry_space_group_name_H-M   'P 1'
_symmetry_Int_Tables_number      1
_space_group_name_Hall           'P 1'
loop_
_symmetry_equiv_pos_site_id
_symmetry_equiv_pos_as_xyz
1 x,y,z
_cell_length_a                   8.8239(7)
_cell_length_b                   9.7918(9)
_cell_length_c                   17.8471(18)
_cell_angle_alpha                81.321(3)
_cell_angle_beta                 85.696(3)
_cell_angle_gamma                71.341(3)
_cell_volume                     1443.65
loop_
_atom_site_label
_atom_site_type_symbol
_atom_site_fract_x
_atom_site_fract_y
_atom_site_fract_z
N3 N 0.2846(5) 0.3264(4) 0.1323(2)
C4 C 0.1116(6) 0.2171(5) 0.2522(3)
C5 C 0.0202(6) 0.1602(5) 0.3139(3)
C15 C 0.1102(6) 0.3614(5) 0.2438(3)
H7 H 0.050893 0.425092 0.278432
C16 C 0.2054(6) 0.1281(5) 0.2009(3)
H8 H 0.213699 0.028004 0.206332
C17 C 0.1978(6) 0.4099(6) 0.1835(3)
H9 H 0.196261 0.508366 0.178166
C21 C 0.2858(6) 0.1869(5) 0.1422(3)
H12 H 0.345433 0.125514 0.106648
Zn6 Zn 0.39630(6) 0.40724(6) 0.03476(3)
C20 C 0.1166(6) 0.0950(5) 0.0188(3)
H11 H 0.073159 0.052242 0.063070
O5 O 0.3002(4) 0.7989(4) 0.0747(2)
C10 C 0.3388(6) 0.8542(5) 0.0120(3)
O11 O 0.5144(4) 0.5232(4) 0.07598(19)
O3 O 0.8626(4) 0.2909(4) 0.0961(2)
C7 C 0.8989(6) 0.3347(5) 0.0295(3)
Zn7 Zn 0.68783(6) 0.42785(6) 0.14766(3)
O1 O 0.1754(4) 0.5443(4) 0.0079(2)
O4 O 0.5502(4) 0.2092(3) 0.0321(2)
O2 O 0.7301(4) 0.5739(4) 0.1969(2)
O6 O 0.5935(6) 0.7972(5) 0.2216(3)
H1 H 0.456(8) 0.601(5) 0.091(4)
N1 N 0.6185(5) 0.3093(4) 0.2393(2)
N5 N 0.3181(5) 0.1768(4) 0.4817(2)
H3 H 0.327432 0.258576 0.492372
C2 C 0.3777(6) 0.1120(5) 0.4187(3)
C3 C 0.4660(6) 0.1781(5) 0.3577(3)
C8 C 0.7573(6) 0.7766(5) 0.1111(3)
C11 C 0.8922(5) 0.6954(5) 0.0743(3)
H4 H 0.941682 0.596012 0.093274
C12 C 0.5372(6) 0.1053(6) 0.2963(3)
H5 H 0.535019 0.009590 0.294159
C14 C 0.2399(6) 0.0892(5) 0.5260(3)
C18 C 0.9559(5) 0.7587(5) 0.0094(3)
C19 C 0.6102(6) 0.1741(5) 0.2391(3)
H10 H 0.657327 0.124090 0.197256
C22 C 0.1593(6) 0.1040(5) 0.5955(3)
H13 H 0.147739 0.183463 0.622448
C23 C 0.7487(5) 0.9875(5) 0.0175(3)
C24 C 0.5559(7) 0.3761(6) 0.2997(3)
H14 H 0.564932 0.469605 0.301774
C25 C 0.6880(6) 0.9232(5) 0.0828(3)
H15 H 0.597331 0.980251 0.108680
C26 C 0.6872(6) 0.7134(6) 0.1822(3)
C27 C 0.4792(6) 0.3157(6) 0.3590(3)
H16 H 0.435502 0.367456 0.400639
H2 H 0.020736 0.975260 0.276967
N2 N 0.9596(5) 0.2226(4) 0.3750(2)
N4 N 0.9902(5) 0.0321(4) 0.3127(2)
N6 N 0.6531(5) 0.0117(4) 0.5827(2)
C1 C 0.7388(5) 0.0301(5) 0.5146(3)
C6 C 0.8837(6) 0.1293(5) 0.4170(3)
C9 C 0.9029(6) 0.0083(5) 0.3782(3)
C13 C 0.8013(6) 0.1430(5) 0.4870(3)
H6 H 0.788756 0.222968 0.513744
Zn2 Zn 0.31217(6) 0.57215(6) 0.85234(3)
O2_2 O 0.2699(4) 0.4261(4) 0.8031(2)
O6_2 O 0.4065(6) 0.2028(5) 0.7784(3)
O7 O 0.4856(4) 0.4768(4) 0.92402(19)
H1_2 H 0.544(8) 0.399(5) 0.909(4)
N1_2 N 0.3815(5) 0.6907(4) 0.7607(2)
N5_2 N 0.6819(5) 0.8232(4) 0.5183(2)
H3_2 H 0.672568 0.741424 0.507628
C2_2 C 0.6223(6) 0.8880(5) 0.5813(3)
C3_2 C 0.5340(6) 0.8219(5) 0.6423(3)
C8_2 C 0.2427(6) 0.2234(5) 0.8889(3)
C11_2 C 0.1078(5) 0.3046(5) 0.9257(3)
H4_2 H 0.058318 0.403988 0.906726
C12_2 C 0.4628(6) 0.8947(6) 0.7037(3)
H5_2 H 0.464981 0.990410 0.705841
C14_2 C 0.7601(6) 0.9108(5) 0.4740(3)
C18_2 C 0.0441(5) 0.2413(5) 0.9906(3)
C19_2 C 0.3898(6) 0.8259(5) 0.7609(3)
H10_2 H 0.342673 0.875910 0.802744
C22_2 C 0.8407(6) 0.8960(5) 0.4045(3)
H13_2 H 0.852261 0.816537 0.377552
C23_2 C 0.2513(5) 0.0125(5) 0.9825(3)
C24_2 C 0.4441(7) 0.6239(6) 0.7003(3)
H14_2 H 0.435068 0.530395 0.698226
C25_2 C 0.3120(6) 0.0768(5) 0.9172(3)
H15_2 H 0.402669 0.019749 0.891320
C26_2 C 0.3128(6) 0.2866(6) 0.8178(3)
C27_2 C 0.5208(6) 0.6843(6) 0.6410(3)
H16_2 H 0.564498 0.632544 0.599361
Zn4 Zn 0.60370(6) 0.59276(6) 0.96524(3)
O9 O 0.1374(4) 0.7091(4) 0.9039(2)
O4_2 O 0.4498(4) 0.7908(3) 0.9679(2)
O8 O 0.8246(4) 0.4557(4) 0.9921(2)
N7 N 0.7154(5) 0.6736(4) 0.8677(2)
C7_2 C 0.1011(6) 0.6653(5) 0.9705(3)
O5_2 O 0.6998(4) 0.2011(4) 0.9253(2)
C10_2 C 0.6612(6) 0.1458(5) 0.9880(3)
C20_2 C 0.8834(6) 0.9050(5) 0.9812(3)
H11_2 H 0.926841 0.947758 0.936930
C4_2 C 0.8884(6) 0.7829(5) 0.7478(3)
C5_2 C 0.9798(6) 0.8398(5) 0.6861(3)
C15_2 C 0.8898(6) 0.6386(5) 0.7562(3)
H7_2 H 0.949107 0.574908 0.721568
C16_2 C 0.7946(6) 0.8719(5) 0.7991(3)
H8_2 H 0.786301 0.971996 0.793668
C17_2 C 0.8022(6) 0.5901(6) 0.8165(3)
H9_2 H 0.803739 0.491634 0.821834
C21_2 C 0.7142(6) 0.8131(5) 0.8578(3)
H12_2 H 0.654567 0.874486 0.893352
N2_2 N 0.0404(5) 0.7774(4) 0.6250(2)
N4_2 N 0.0098(5) 0.9679(4) 0.6873(2)
N6_2 N 0.3469(5) 0.9883(4) 0.4173(2)
C1_2 C 0.2612(5) 0.9699(5) 0.4854(3)
C6_2 C 0.1163(6) 0.8707(5) 0.5830(3)
C9_2 C 0.0971(6) 0.9917(5) 0.6218(3)
C13_2 C 0.1987(6) 0.8570(5) 0.5130(3)
H6_2 H 0.211244 0.777032 0.486256
H2_2 H 0.979264 0.024740 0.723033
loop_
_geom_bond_atom_site_label_1
_geom_bond_atom_site_label_2
_geom_bond_site_symmetry_1
_geom_bond_site_symmetry_2
N3 C17 1_555 1_555
C4 C5 1_555 1_555
C15 C4 1_555 1_555
H7 C15 1_555 1_555
C16 C4 1_555 1_555
H8 C16 1_555 1_555
C17 C15 1_555 1_555
H9 C17 1_555 1_555
C21 N3 1_555 1_555
H12 C21 1_555 1_555
Zn6 N3 1_555 1_555
C16 C21 1_555 1_555
H11 C20 1_555 1_555
O5 C10 1_555 1_555
O3 C7 1_555 1_555
Zn7 O3 1_555 1_555
Zn6 O1 1_555 1_555
Zn6 O4 1_555 1_555
O11 Zn6 1_555 1_555
Zn7 O2 1_555 1_555
O2 C26 1_555 1_555
O6 C26 1_555 1_555
O11 Zn7 1_555 1_555
H1 O11 1_555 1_555
N1 Zn7 1_555 1_555
N5 H3 1_555 1_555
C2 N5 1_555 1_555
C3 C2 1_555 1_555
C8 C11 1_555 1_555
C11 H4 1_555 1_555
C12 C3 1_555 1_555
H5 C12 1_555 1_555
C14 N5 1_555 1_555
C18 C11 1_555 1_555
C19 N1 1_555 1_555
H10 C19 1_555 1_555
H13 C22 1_555 1_555
C24 N1 1_555 1_555
H14 C24 1_555 1_555
C25 C8 1_555 1_555
H15 C25 1_555 1_555
C26 C8 1_555 1_555
C27 C3 1_555 1_555
H16 C27 1_555 1_555
C12 C19 1_555 1_555
C14 C22 1_555 1_555
C23 C25 1_555 1_555
C24 C27 1_555 1_555
N6 C1 1_555 1_555
C1 C13 1_555 1_555
C6 N2 1_555 1_555
C9 N4 1_555 1_555
C13 C6 1_555 1_555
H6 C13 1_555 1_555
C6 C9 1_555 1_555
Zn2 O2_2 1_555 1_555
O2_2 C26_2 1_555 1_555
O6_2 C26_2 1_555 1_555
O7 Zn2 1_555 1_555
H1_2 O7 1_555 1_555
N1_2 Zn2 1_555 1_555
N5_2 H3_2 1_555 1_555
C2_2 N5_2 1_555 1_555
C3_2 C2_2 1_555 1_555
C8_2 C11_2 1_555 1_555
C11_2 H4_2 1_555 1_555
C12_2 C3_2 1_555 1_555
H5_2 C12_2 1_555 1_555
C14_2 N5_2 1_555 1_555
C18_2 C11_2 1_555 1_555
C19_2 N1_2 1_555 1_555
H10_2 C19_2 1_555 1_555
H13_2 C22_2 1_555 1_555
C24_2 N1_2 1_555 1_555
H14_2 C24_2 1_555 1_555
C25_2 C8_2 1_555 1_555
H15_2 C25_2 1_555 1_555
C26_2 C8_2 1_555 1_555
C27_2 C3_2 1_555 1_555
H16_2 C27_2 1_555 1_555
Zn4 O7 1_555 1_555
O9 Zn2 1_555 1_555
C12_2 C19_2 1_555 1_555
C14_2 C22_2 1_555 1_555
C23_2 C25_2 1_555 1_555
C24_2 C27_2 1_555 1_555
Zn4 O4_2 1_555 1_555
O8 Zn4 1_555 1_555
N7 Zn4 1_555 1_555
O9 C7_2 1_555 1_555
O5_2 C10_2 1_555 1_555
H11_2 C20_2 1_555 1_555
N7 C17_2 1_555 1_555
C4_2 C5_2 1_555 1_555
C15_2 C4_2 1_555 1_555
H7_2 C15_2 1_555 1_555
C16_2 C4_2 1_555 1_555
H8_2 C16_2 1_555 1_555
C17_2 C15_2 1_555 1_555
H9_2 C17_2 1_555 1_555
C21_2 N7 1_555 1_555
H12_2 C21_2 1_555 1_555
C16_2 C21_2 1_555 1_555
N6_2 C1_2 1_555 1_555
C1_2 C13_2 1_555 1_555
C6_2 N2_2 1_555 1_555
C9_2 N4_2 1_555 1_555
C13_2 C6_2 1_555 1_555
H6_2 C13_2 1_555 1_555
C6_2 C9_2 1_555 1_555

#END
