
###############################################################################
#
# This file contains modified crystal structure data generated from the
# MOF subset of the Cambridge Structural Database (CSD) v543 
# hosted by the Cambridge Crystallographic Data Centre (CCDC).
#
# This work is licensed under the Creative Commons
# Attribution-NonCommercial-ShareAlike 4.0 International License.
# To view a copy of this license, visit
# http://creativecommons.org/licenses/by-nc-sa/4.0/
# or send a letter to
# Creative Commons, PO Box 1866, Mountain View, CA 94042, USA.
#
# CIF created using the CSD Python API on 29 September 2022
# The structure has been converted into the P1 space group
# The structure has a 3D framework
# The original CSD entry LUKGUV is in the monoclinic crystal system
# The framework has been calculated to contain at least 10.0% void space
# The void calculation uses a probe of radius 1.32A, grid spacing 0.4
#
###############################################################################

data_LUKGUV
_chemical_formula_moiety         '(C104 H104 Cd8 N24 O36)n'
_symmetry_cell_setting           triclinic
_symmetry_space_group_name_H-M   'P 1'
_symmetry_Int_Tables_number      1
_space_group_name_Hall           'P 1'
loop_
_symmetry_equiv_pos_site_id
_symmetry_equiv_pos_as_xyz
1 x,y,z
_cell_length_a                   16.224(5)
_cell_length_b                   12.979(4)
_cell_length_c                   16.226(5)
_cell_angle_alpha                90
_cell_angle_beta                 100.056(10)
_cell_angle_gamma                90
_cell_volume                     3364.24
loop_
_atom_site_label
_atom_site_type_symbol
_atom_site_fract_x
_atom_site_fract_y
_atom_site_fract_z
N5 N 0.1971(5) 0.0763(6) 0.4365(5)
H13 H 0.2024 0.1191 0.4776
C17 C 0.2206(5) 0.0973(7) 0.3624(6)
C18 C 0.1988(6) 0.0117(8) 0.3133(6)
C19 C 0.3685(6) 0.0165(8) 0.2311(6)
H16 H 0.3668 0.0618 0.2775
H17 H 0.3984 0.0491 0.1922
H18 H 0.0235 0.0007 0.1144
C25 C 0.2578(7) 0.1974(7) 0.3439(7)
H21 H 0.3094 0.2079 0.3820
H22 H 0.2683 0.1970 0.2875
H23 H 0.2195 0.2521 0.3503
O9 O 0.3701(4) 0.0853(5) 0.9827(5)
H11 H 0.3300 0.1232 0.9921
H12 H 0.3752 0.0909 0.9316
Cd1 Cd 0.34163(4) 0.91413(5) 0.01096(4)
Cd2 Cd 0.59458(4) 0.58953(5) 0.03889(4)
C2 C 0.4736(5) 0.8431(7) 0.1305(5)
C3 C 0.5369(5) 0.8026(7) 0.2008(5)
C8 C 0.6388(5) 0.8362(7) 0.3268(5)
H3 H 0.6685 0.8827 0.3643
C9 C 0.6513(5) 0.7304(7) 0.3390(5)
C10 C 0.5820(5) 0.8719(7) 0.2584(5)
H4 H 0.5737 0.9424 0.2508
C11 C 0.5503(5) 0.6967(7) 0.2119(5)
C13 C 0.6082(5) 0.6614(7) 0.2813(5)
H6 H 0.6177 0.5911 0.2885
C16 C 0.7136(5) 0.6871(8) 0.4100(5)
O2 O 0.7182(4) 0.5898(5) 0.4177(4)
O4 O 0.7588(4) 0.7475(5) 0.4582(4)
O5 O 0.4877(4) 0.9293(5) 0.0971(4)
O8 O 0.4088(4) 0.7941(5) 0.1064(4)
N1 N 0.5132(4) 0.6267(6) 0.1498(4)
H7 H 0.4631 0.6519 0.1259
H8 H 0.5040 0.5670 0.1749
N3 N 0.2619(4) 0.9669(6) 0.1085(5)
N4 N 0.1643(4) 0.9809(5) 0.4393(4)
N6 N 0.1785(5) 0.9525(6) 0.0925(5)
H14 H 0.1509 0.9370 0.0440
H15 H 0.3963 0.9536 0.2510
C20 C 0.2792(6) 0.9923(7) 0.1876(6)
C21 C 0.2077(6) 0.9924(7) 0.2244(6)
C22 C 0.1432(6) 0.9652(8) 0.1612(6)
C23 C 0.0520(6) 0.9587(10) 0.1592(7)
H19 H 0.0391 0.9827 0.2114
H20 H 0.0341 0.8885 0.1503
C24 C 0.1648(6) 0.9409(7) 0.3647(6)
C26 C 0.1379(7) 0.8308(8) 0.3432(7)
H24 H 0.0796 0.8296 0.3188
H25 H 0.1702 0.8034 0.3041
H26 H 0.1469 0.7898 0.3932
Cd3 Cd 0.84163(4) 0.58587(5) 0.51096(4)
Cd6 Cd 0.09458(4) 0.91047(5) 0.53889(4)
O10 O 0.7111(4) 0.5757(4) 0.1433(4)
O12 O 0.5366(4) 0.4344(5) 0.0727(4)
O14 O 0.6919(4) 0.7290(5) 0.0823(4)
C1 C 0.4025(5) 0.7069(6) 0.8469(5)
C4 C 0.4609(5) 0.6619(7) 0.9196(5)
C5 C 0.3323(5) 0.8499(7) 0.7699(5)
H1 H 0.3210 0.9201 0.7659
C6 C 0.3070(5) 0.6809(7) 0.7158(5)
H2 H 0.2803 0.6366 0.6746
C7 C 0.3892(5) 0.8129(7) 0.8389(5)
C12 C 0.3606(6) 0.6419(7) 0.7847(5)
H5 H 0.3688 0.5711 0.7896
C14 C 0.2933(5) 0.7861(7) 0.7088(5)
C15 C 0.2287(5) 0.8293(7) 0.6405(5)
O1 O 0.2111(4) 0.9243(4) 0.6433(4)
O3 O 0.4634(4) 0.5656(5) 0.9273(4)
O6 O 0.1919(4) 0.7710(5) 0.5823(4)
O7 O 0.5121(4) 0.7172(5) 0.9666(4)
N2 N 0.4232(5) 0.8794(6) 0.9053(5)
H9 H 0.4347 0.9400 0.8829
H10 H 0.4723 0.8524 0.9305
Cd4 Cd 0.40542(4) 0.41047(5) 0.96111(4)
O11 O 0.2182(4) 0.9102(5) 0.9177(4)
O13 O 0.2588(4) 0.7525(5) 0.9582(4)
N7 N 0.6643(4) 0.5191(5) 0.9393(4)
Cd1_2 Cd 0.15837(4) 0.41413(5) 0.48904(4)
C1_2 C 0.0975(5) 0.2069(6) 0.6531(5)
C2_2 C 0.0264(5) 0.3431(7) 0.3695(5)
C4_2 C 0.0391(5) 0.1619(7) 0.5804(5)
C5_2 C 0.1677(5) 0.3499(7) 0.7301(5)
H1_2 H 0.1790 0.4201 0.7341
C6_2 C 0.1930(5) 0.1809(7) 0.7842(5)
H2_2 H 0.2197 0.1366 0.8254
C7_2 C 0.1108(5) 0.3129(7) 0.6611(5)
C12_2 C 0.1394(6) 0.1419(7) 0.7153(5)
H5_2 H 0.1312 0.0711 0.7104
C14_2 C 0.2067(5) 0.2861(7) 0.7912(5)
C15_2 C 0.2713(5) 0.3293(7) 0.8595(5)
O1_2 O 0.2889(4) 0.4243(4) 0.8567(4)
O3_2 O 0.0366(4) 0.0656(5) 0.5727(4)
O5_2 O 0.0123(4) 0.4293(5) 0.4029(4)
O6_2 O 0.3081(4) 0.2710(5) 0.9177(4)
O8_2 O 0.0912(4) 0.2941(5) 0.3936(4)
H7_2 H 0.0369 0.1519 0.3741
N2_2 N 0.0768(5) 0.3794(6) 0.5947(5)
H9_2 H 0.0653 0.4400 0.6171
H10_2 H 0.0277 0.3524 0.5695
O9_2 O 0.1299(4) 0.5853(5) 0.5173(5)
H11_2 H 0.1700 0.6232 0.5079
H12_2 H 0.1248 0.5909 0.5684
N3_2 N 0.2381(4) 0.4669(6) 0.3915(5)
N4_2 N 0.3357(4) 0.4809(5) 0.0607(4)
N5_2 N 0.3029(5) 0.5763(6) 0.0635(5)
H13_2 H 0.2976 0.6191 0.0224
C17_2 C 0.2794(5) 0.5973(7) 0.1376(6)
C18_2 C 0.3012(6) 0.5117(8) 0.1867(6)
N6_2 N 0.3215(5) 0.4525(6) 0.4075(5)
H14_2 H 0.3491 0.4370 0.4560
C19_2 C 0.1315(6) 0.5165(8) 0.2689(6)
H15_2 H 0.1037 0.4536 0.2490
H16_2 H 0.1332 0.5618 0.2225
H17_2 H 0.1016 0.5491 0.3078
C20_2 C 0.2208(6) 0.4923(7) 0.3124(6)
C21_2 C 0.2923(6) 0.4924(7) 0.2756(6)
C22_2 C 0.3568(6) 0.4652(8) 0.3388(6)
C23_2 C 0.4480(6) 0.4587(10) 0.3408(7)
H18_2 H 0.4765 0.5007 0.3856
H19_2 H 0.4609 0.4827 0.2886
H20_2 H 0.4659 0.3885 0.3497
C24_2 C 0.3352(6) 0.4409(7) 0.1353(6)
C25_2 C 0.2422(7) 0.6974(7) 0.1561(7)
H21_2 H 0.1906 0.7079 0.1180
H22_2 H 0.2317 0.6970 0.2125
H23_2 H 0.2805 0.7521 0.1497
C26_2 C 0.3621(7) 0.3308(8) 0.1568(7)
H24_2 H 0.4204 0.3296 0.1812
H25_2 H 0.3298 0.3034 0.1959
H26_2 H 0.3531 0.2898 0.1068
O11_2 O 0.2818(4) 0.4102(5) 0.5823(4)
O13_2 O 0.2412(4) 0.2525(5) 0.5418(4)
Cd2_2 Cd 0.90542(4) 0.08953(5) 0.46111(4)
C3_2 C 0.9631(5) 0.3026(7) 0.2992(5)
C8_2 C 0.8612(5) 0.3362(7) 0.1732(5)
H3_2 H 0.8315 0.3827 0.1357
C9_2 C 0.8487(5) 0.2304(7) 0.1610(5)
C10_2 C 0.9180(5) 0.3719(7) 0.2416(5)
H4_2 H 0.9263 0.4424 0.2492
C11_2 C 0.9497(5) 0.1967(7) 0.2881(5)
C13_2 C 0.8918(5) 0.1614(7) 0.2187(5)
H6_2 H 0.8823 0.0911 0.2115
C16_2 C 0.7864(5) 0.1871(8) 0.0900(5)
O2_2 O 0.7818(4) 0.0898(5) 0.0823(4)
O4_2 O 0.7412(4) 0.2475(5) 0.0418(4)
O7_2 O 0.9879(4) 0.2172(5) 0.5334(4)
N1_2 N 0.9868(4) 0.1267(6) 0.3502(4)
H8_2 H 0.9960 0.0670 0.3251
O10_2 O 0.7889(4) 0.0757(4) 0.3567(4)
O14_2 O 0.8081(4) 0.2290(5) 0.4177(4)
N7_2 N 0.8357(4) 0.0191(5) 0.5607(4)
Cd3_2 Cd 0.65837(4) 0.08587(5) 0.98904(4)
O12_2 O 0.9634(4) 0.9344(5) 0.4273(4)
C1_3 C 0.5975(5) 0.2931(6) 0.1531(5)
C4_3 C 0.5391(5) 0.3381(7) 0.0804(5)
C5_3 C 0.6677(5) 0.1501(7) 0.2301(5)
H1_3 H 0.6790 0.0799 0.2341
C6_3 C 0.6930(5) 0.3191(7) 0.2842(5)
H2_3 H 0.7197 0.3634 0.3254
C7_3 C 0.6108(5) 0.1871(7) 0.1611(5)
C12_3 C 0.6394(6) 0.3581(7) 0.2153(5)
H5_3 H 0.6312 0.4289 0.2104
C14_3 C 0.7067(5) 0.2139(7) 0.2912(5)
C15_3 C 0.7713(5) 0.1707(7) 0.3595(5)
O7_3 O 0.4879(4) 0.2828(5) 0.0334(4)
N2_3 N 0.5768(5) 0.1206(6) 0.0947(5)
H9_3 H 0.5653 0.0600 0.1171
H10_3 H 0.5277 0.1476 0.0695
C2_3 C 0.5264(5) 0.1569(7) 0.8695(5)
C3_3 C 0.4631(5) 0.1974(7) 0.7992(5)
C8_3 C 0.3612(5) 0.1638(7) 0.6732(5)
H3_3 H 0.3315 0.1173 0.6357
C9_3 C 0.3487(5) 0.2696(7) 0.6610(5)
C10_3 C 0.4180(5) 0.1281(7) 0.7416(5)
H4_3 H 0.4263 0.0576 0.7492
C11_3 C 0.4497(5) 0.3033(7) 0.7881(5)
C13_3 C 0.3918(5) 0.3386(7) 0.7187(5)
H6_3 H 0.3823 0.4089 0.7115
C16_3 C 0.2864(5) 0.3129(8) 0.5900(5)
O5_3 O 0.5123(4) 0.0707(5) 0.9029(4)
O8_3 O 0.5912(4) 0.2059(5) 0.8936(4)
N1_3 N 0.4868(4) 0.3733(6) 0.8502(4)
H7_3 H 0.5369 0.3481 0.8741
H8_3 H 0.4960 0.4330 0.8251
N3_3 N 0.7381(4) 0.0331(6) 0.8915(5)
N6_3 N 0.8215(5) 0.0475(6) 0.9075(5)
H14_3 H 0.8491 0.0630 0.9560
H15_3 H 0.6037 0.0464 0.7490
C20_3 C 0.7208(6) 0.0077(7) 0.8124(6)
C21_3 C 0.7923(6) 0.0076(7) 0.7756(6)
C22_3 C 0.8568(6) 0.0348(8) 0.8388(6)
C23_3 C 0.9480(6) 0.0413(10) 0.8408(7)
H19_3 H 0.9609 0.0173 0.7886
H20_3 H 0.9659 0.1115 0.8497
C24_3 C 0.8352(6) 0.0591(7) 0.6353(6)
C26_3 C 0.8621(7) 0.1692(8) 0.6568(7)
H24_3 H 0.9204 0.1704 0.6812
H25_3 H 0.8298 0.1966 0.6959
H26_3 H 0.8531 0.2102 0.6068
C3_4 C 0.0369(5) 0.6974(7) 0.7008(5)
C8_4 C 0.1388(5) 0.6638(7) 0.8268(5)
H3_4 H 0.1685 0.6173 0.8643
C9_4 C 0.1513(5) 0.7696(7) 0.8390(5)
C10_4 C 0.0820(5) 0.6281(7) 0.7584(5)
H4_4 H 0.0737 0.5576 0.7508
C11_4 C 0.0503(5) 0.8033(7) 0.7119(5)
C13_4 C 0.1082(5) 0.8386(7) 0.7813(5)
H6_4 H 0.1177 0.9089 0.7885
C16_4 C 0.2136(5) 0.8129(8) 0.9100(5)
O7_4 O 0.0121(4) 0.7828(5) 0.4666(4)
N1_4 N 0.0132(4) 0.8733(6) 0.6498(4)
H8_4 H 0.0040 0.9330 0.6749
C1_4 C 0.9025(5) 0.7931(6) 0.3469(5)
C2_4 C 0.9736(5) 0.6569(7) 0.6305(5)
C4_4 C 0.9609(5) 0.8381(7) 0.4196(5)
C5_4 C 0.8323(5) 0.6501(7) 0.2699(5)
H1_4 H 0.8210 0.5799 0.2659
C6_4 C 0.8070(5) 0.8191(7) 0.2158(5)
H2_4 H 0.7803 0.8634 0.1746
C7_4 C 0.8892(5) 0.6871(7) 0.3389(5)
C12_4 C 0.8606(6) 0.8581(7) 0.2847(5)
H5_4 H 0.8688 0.9289 0.2896
C14_4 C 0.7933(5) 0.7139(7) 0.2088(5)
C15_4 C 0.7287(5) 0.6707(7) 0.1405(5)
O5_4 O 0.9877(4) 0.5707(5) 0.5971(4)
O8_4 O 0.9088(4) 0.7059(5) 0.6064(4)
H7_4 H 0.9631 0.8481 0.6259
N2_4 N 0.9232(5) 0.6206(6) 0.4053(5)
H9_4 H 0.9347 0.5600 0.3829
H10_4 H 0.9723 0.6476 0.4305
O9_3 O 0.8701(4) 0.4147(5) 0.4827(5)
H11_3 H 0.8300 0.3768 0.4921
H12_3 H 0.8752 0.4091 0.4316
N3_4 N 0.7619(4) 0.5331(6) 0.6085(5)
N5_3 N 0.6971(5) 0.4237(6) 0.9365(5)
H13_3 H 0.7024 0.3809 0.9776
C17_3 C 0.7206(5) 0.4027(7) 0.8624(6)
C18_3 C 0.6988(6) 0.4883(8) 0.8133(6)
N6_4 N 0.6785(5) 0.5475(6) 0.5925(5)
H14_4 H 0.6509 0.5630 0.5440
C19_3 C 0.8685(6) 0.4835(8) 0.7311(6)
H15_4 H 0.8963 0.5464 0.7510
H16_3 H 0.8668 0.4382 0.7775
H17_3 H 0.8984 0.4509 0.6922
C20_4 C 0.7792(6) 0.5077(7) 0.6876(6)
C21_4 C 0.7077(6) 0.5076(7) 0.7244(6)
C22_4 C 0.6432(6) 0.5348(8) 0.6612(6)
C23_4 C 0.5520(6) 0.5413(10) 0.6592(7)
H18_3 H 0.5235 0.4993 0.6144
H19_4 H 0.5391 0.5173 0.7114
H20_4 H 0.5341 0.6115 0.6503
C24_4 C 0.6648(6) 0.5591(7) 0.8647(6)
C25_3 C 0.7578(7) 0.3026(7) 0.8439(7)
H21_3 H 0.8094 0.2921 0.8820
H22_3 H 0.7683 0.3030 0.7875
H23_3 H 0.7195 0.2479 0.8503
C26_4 C 0.6379(7) 0.6692(8) 0.8432(7)
H24_4 H 0.5796 0.6704 0.8188
H25_4 H 0.6702 0.6966 0.8041
H26_4 H 0.6469 0.7102 0.8932
O9_4 O 0.6299(4) 0.9147(5) 0.0173(5)
H11_4 H 0.6700 0.8768 0.0079
H12_4 H 0.6248 0.9091 0.0684
N5_4 N 0.8029(5) 0.9237(6) 0.5635(5)
H13_4 H 0.7976 0.8809 0.5224
C17_4 C 0.7794(5) 0.9027(7) 0.6376(6)
C18_4 C 0.8012(6) 0.9883(8) 0.6867(6)
C19_4 C 0.6315(6) 0.9835(8) 0.7689(6)
H16_4 H 0.6332 0.9382 0.7225
H17_4 H 0.6016 0.9509 0.8078
H18_4 H 0.9765 0.9993 0.8856
C25_4 C 0.7422(7) 0.8026(7) 0.6561(7)
H21_4 H 0.6906 0.7921 0.6180
H22_4 H 0.7317 0.8030 0.7125
H23_4 H 0.7805 0.7479 0.6497
loop_
_geom_bond_atom_site_label_1
_geom_bond_atom_site_label_2
_geom_bond_site_symmetry_1
_geom_bond_site_symmetry_2
N5 H13 1_555 1_555
C17 N5 1_555 1_555
C18 C17 1_555 1_555
H16 C19 1_555 1_555
H17 C19 1_555 1_555
C25 C17 1_555 1_555
H21 C25 1_555 1_555
H22 C25 1_555 1_555
H23 C25 1_555 1_555
H11 O9 1_555 1_555
H12 O9 1_555 1_555
Cd1 O5 1_555 1_555
C2 C3 1_555 1_555
C3 C10 1_555 1_555
C8 H3 1_555 1_555
C9 C8 1_555 1_555
C10 C8 1_555 1_555
H4 C10 1_555 1_555
C11 C3 1_555 1_555
C13 C9 1_555 1_555
H6 C13 1_555 1_555
C16 C9 1_555 1_555
O2 C16 1_555 1_555
O4 C16 1_555 1_555
O5 C2 1_555 1_555
O8 Cd1 1_555 1_555
N1 Cd2 1_555 1_555
H7 N1 1_555 1_555
H8 N1 1_555 1_555
N3 Cd1 1_555 1_555
N6 N3 1_555 1_555
H14 N6 1_555 1_555
C20 N3 1_555 1_555
C22 N6 1_555 1_555
C23 C22 1_555 1_555
H19 C23 1_555 1_555
H20 C23 1_555 1_555
C24 N4 1_555 1_555
C26 C24 1_555 1_555
H24 C26 1_555 1_555
H25 C26 1_555 1_555
H26 C26 1_555 1_555
Cd3 O2 1_555 1_555
Cd6 N4 1_555 1_555
O10 Cd2 1_555 1_555
O12 Cd2 1_555 1_555
O14 Cd2 1_555 1_555
C2 O8 1_555 1_555
C11 C13 1_555 1_555
C11 N1 1_555 1_555
O4 Cd3 1_555 1_555
C20 C21 1_555 1_555
C21 C22 1_555 1_555
C1 C4 1_555 1_555
C4 O3 1_555 1_555
C5 H1 1_555 1_555
C6 H2 1_555 1_555
C7 C1 1_555 1_555
C12 C1 1_555 1_555
H5 C12 1_555 1_555
C14 C5 1_555 1_555
C15 C14 1_555 1_555
O1 C15 1_555 1_555
O3 Cd4 1_555 1_555
O6 C15 1_555 1_555
H9 N2 1_555 1_555
H10 N2 1_555 1_555
Cd6 O1 1_555 1_555
C4 O7 1_555 1_555
C5 C7 1_555 1_555
C6 C12 1_555 1_555
C6 C14 1_555 1_555
C7 N2 1_555 1_555
O6 Cd6 1_555 1_555
Cd1_2 O5_2 1_555 1_555
C1_2 C4_2 1_555 1_555
C4_2 O3_2 1_555 1_555
C5_2 H1_2 1_555 1_555
C6_2 H2_2 1_555 1_555
C7_2 C1_2 1_555 1_555
C12_2 C1_2 1_555 1_555
H5_2 C12_2 1_555 1_555
C14_2 C5_2 1_555 1_555
C15_2 C14_2 1_555 1_555
O1_2 C15_2 1_555 1_555
O5_2 C2_2 1_555 1_555
O6_2 C15_2 1_555 1_555
O8_2 Cd1_2 1_555 1_555
N2_2 Cd1_2 1_555 1_555
H9_2 N2_2 1_555 1_555
H10_2 N2_2 1_555 1_555
O9_2 Cd1_2 1_555 1_555
H11_2 O9_2 1_555 1_555
H12_2 O9_2 1_555 1_555
N3_2 Cd1_2 1_555 1_555
N4_2 N5_2 1_555 1_555
N5_2 H13_2 1_555 1_555
C17_2 N5_2 1_555 1_555
C18_2 C17_2 1_555 1_555
N6_2 N3_2 1_555 1_555
H14_2 N6_2 1_555 1_555
C19_2 H15_2 1_555 1_555
H16_2 C19_2 1_555 1_555
H17_2 C19_2 1_555 1_555
C20_2 N3_2 1_555 1_555
C21_2 C18_2 1_555 1_555
C22_2 N6_2 1_555 1_555
C23_2 C22_2 1_555 1_555
H18_2 C23_2 1_555 1_555
H19_2 C23_2 1_555 1_555
H20_2 C23_2 1_555 1_555
C24_2 N4_2 1_555 1_555
C25_2 C17_2 1_555 1_555
H21_2 C25_2 1_555 1_555
H22_2 C25_2 1_555 1_555
H23_2 C25_2 1_555 1_555
C26_2 C24_2 1_555 1_555
H24_2 C26_2 1_555 1_555
H25_2 C26_2 1_555 1_555
H26_2 C26_2 1_555 1_555
Cd4 O1_2 1_555 1_555
O11_2 Cd1_2 1_555 1_555
O13_2 Cd1_2 1_555 1_555
C2_2 O8_2 1_555 1_555
C5_2 C7_2 1_555 1_555
C6_2 C12_2 1_555 1_555
C6_2 C14_2 1_555 1_555
C7_2 N2_2 1_555 1_555
O6_2 Cd4 1_555 1_555
C18_2 C24_2 1_555 1_555
C19_2 C20_2 1_555 1_555
C20_2 C21_2 1_555 1_555
C21_2 C22_2 1_555 1_555
C3_2 C10_2 1_555 1_555
C8_2 H3_2 1_555 1_555
C9_2 C8_2 1_555 1_555
C10_2 C8_2 1_555 1_555
H4_2 C10_2 1_555 1_555
C11_2 C3_2 1_555 1_555
C13_2 C9_2 1_555 1_555
H6_2 C13_2 1_555 1_555
C16_2 C9_2 1_555 1_555
O2_2 C16_2 1_555 1_555
O4_2 C16_2 1_555 1_555
O7_2 Cd2_2 1_555 1_555
N1_2 Cd2_2 1_555 1_555
H8_2 N1_2 1_555 1_555
O10_2 Cd2_2 1_555 1_555
O14_2 Cd2_2 1_555 1_555
N7_2 Cd2_2 1_555 1_555
C11_2 C13_2 1_555 1_555
C11_2 N1_2 1_555 1_555
C1_3 C4_3 1_555 1_555
C4_3 O12 1_555 1_555
C5_3 H1_3 1_555 1_555
C6_3 H2_3 1_555 1_555
C7_3 C1_3 1_555 1_555
C12_3 C1_3 1_555 1_555
H5_3 C12_3 1_555 1_555
C14_3 C5_3 1_555 1_555
C15_3 C14_3 1_555 1_555
O10_2 C15_3 1_555 1_555
O14_2 C15_3 1_555 1_555
H9_3 N2_3 1_555 1_555
H10_3 N2_3 1_555 1_555
C4_3 O7_3 1_555 1_555
C5_3 C7_3 1_555 1_555
C6_3 C12_3 1_555 1_555
C6_3 C14_3 1_555 1_555
C7_3 N2_3 1_555 1_555
Cd3_2 O5_3 1_555 1_555
C2_3 C3_3 1_555 1_555
C3_3 C10_3 1_555 1_555
C8_3 H3_3 1_555 1_555
C9_3 C8_3 1_555 1_555
C10_3 C8_3 1_555 1_555
H4_3 C10_3 1_555 1_555
C11_3 C3_3 1_555 1_555
C13_3 C9_3 1_555 1_555
H6_3 C13_3 1_555 1_555
C16_3 C9_3 1_555 1_555
O11_2 C16_3 1_555 1_555
O13_2 C16_3 1_555 1_555
O5_3 C2_3 1_555 1_555
O8_3 Cd3_2 1_555 1_555
N1_3 Cd4 1_555 1_555
H7_3 N1_3 1_555 1_555
H8_3 N1_3 1_555 1_555
N3_3 Cd3_2 1_555 1_555
N6_3 N3_3 1_555 1_555
H14_3 N6_3 1_555 1_555
C20_3 N3_3 1_555 1_555
C22_3 N6_3 1_555 1_555
C23_3 C22_3 1_555 1_555
H19_3 C23_3 1_555 1_555
H20_3 C23_3 1_555 1_555
C24_3 N7_2 1_555 1_555
C26_3 C24_3 1_555 1_555
H24_3 C26_3 1_555 1_555
H25_3 C26_3 1_555 1_555
H26_3 C26_3 1_555 1_555
C2_3 O8_3 1_555 1_555
C11_3 C13_3 1_555 1_555
C11_3 N1_3 1_555 1_555
C20_3 C21_3 1_555 1_555
C21_3 C22_3 1_555 1_555
C3_4 C10_4 1_555 1_555
C8_4 H3_4 1_555 1_555
C9_4 C8_4 1_555 1_555
C10_4 C8_4 1_555 1_555
H4_4 C10_4 1_555 1_555
C11_4 C3_4 1_555 1_555
C13_4 C9_4 1_555 1_555
H6_4 C13_4 1_555 1_555
C16_4 C9_4 1_555 1_555
O11 C16_4 1_555 1_555
O13 C16_4 1_555 1_555
O7_4 Cd6 1_555 1_555
N1_4 Cd6 1_555 1_555
H8_4 N1_4 1_555 1_555
C11_4 C13_4 1_555 1_555
C11_4 N1_4 1_555 1_555
Cd3 O5_4 1_555 1_555
C1_4 C4_4 1_555 1_555
C4_4 O12_2 1_555 1_555
C5_4 H1_4 1_555 1_555
C6_4 H2_4 1_555 1_555
C7_4 C1_4 1_555 1_555
C12_4 C1_4 1_555 1_555
H5_4 C12_4 1_555 1_555
C14_4 C5_4 1_555 1_555
C15_4 C14_4 1_555 1_555
O10 C15_4 1_555 1_555
O5_4 C2_4 1_555 1_555
O14 C15_4 1_555 1_555
O8_4 Cd3 1_555 1_555
N2_4 Cd3 1_555 1_555
H9_4 N2_4 1_555 1_555
H10_4 N2_4 1_555 1_555
O9_3 Cd3 1_555 1_555
H11_3 O9_3 1_555 1_555
H12_3 O9_3 1_555 1_555
N3_4 Cd3 1_555 1_555
N7 N5_3 1_555 1_555
N5_3 H13_3 1_555 1_555
C17_3 N5_3 1_555 1_555
C18_3 C17_3 1_555 1_555
N6_4 N3_4 1_555 1_555
H14_4 N6_4 1_555 1_555
C19_3 H15_4 1_555 1_555
H16_3 C19_3 1_555 1_555
H17_3 C19_3 1_555 1_555
C20_4 N3_4 1_555 1_555
C21_4 C18_3 1_555 1_555
C22_4 N6_4 1_555 1_555
C23_4 C22_4 1_555 1_555
H18_3 C23_4 1_555 1_555
H19_4 C23_4 1_555 1_555
H20_4 C23_4 1_555 1_555
C24_4 N7 1_555 1_555
C25_3 C17_3 1_555 1_555
H21_3 C25_3 1_555 1_555
H22_3 C25_3 1_555 1_555
H23_3 C25_3 1_555 1_555
C26_4 C24_4 1_555 1_555
H24_4 C26_4 1_555 1_555
H25_4 C26_4 1_555 1_555
H26_4 C26_4 1_555 1_555
C2_4 O8_4 1_555 1_555
C5_4 C7_4 1_555 1_555
C6_4 C12_4 1_555 1_555
C6_4 C14_4 1_555 1_555
C7_4 N2_4 1_555 1_555
C18_3 C24_4 1_555 1_555
C19_3 C20_4 1_555 1_555
C20_4 C21_4 1_555 1_555
C21_4 C22_4 1_555 1_555
H11_4 O9_4 1_555 1_555
H12_4 O9_4 1_555 1_555
N5_4 H13_4 1_555 1_555
C17_4 N5_4 1_555 1_555
C18_4 C17_4 1_555 1_555
H16_4 C19_4 1_555 1_555
H17_4 C19_4 1_555 1_555
C25_4 C17_4 1_555 1_555
H21_4 C25_4 1_555 1_555
H22_4 C25_4 1_555 1_555
H23_4 C25_4 1_555 1_555

#END
