
###############################################################################
#
# This file contains modified crystal structure data generated from the
# MOF subset of the Cambridge Structural Database (CSD) v543 
# hosted by the Cambridge Crystallographic Data Centre (CCDC).
#
# This work is licensed under the Creative Commons
# Attribution-NonCommercial-ShareAlike 4.0 International License.
# To view a copy of this license, visit
# http://creativecommons.org/licenses/by-nc-sa/4.0/
# or send a letter to
# Creative Commons, PO Box 1866, Mountain View, CA 94042, USA.
#
# CIF created using the CSD Python API on 29 September 2022
# The structure has been converted into the P1 space group
# The structure has a 3D framework
# The original CSD entry LUMLIQ is in the monoclinic crystal system
# The framework has been calculated to contain at least 10.0% void space
# The void calculation uses a probe of radius 1.32A, grid spacing 0.4
#
###############################################################################

data_LUMLIQ
_chemical_formula_moiety         '(C40 H20 Cd14 N16 O36)n'
_symmetry_cell_setting           triclinic
_symmetry_space_group_name_H-M   'P 1'
_symmetry_Int_Tables_number      1
_space_group_name_Hall           'P 1'
loop_
_symmetry_equiv_pos_site_id
_symmetry_equiv_pos_as_xyz
1 x,y,z
_cell_length_a                   10.6186(4)
_cell_length_b                   15.7795(7)
_cell_length_c                   14.1620(6)
_cell_angle_alpha                90
_cell_angle_beta                 130.430(2)
_cell_angle_gamma                90
_cell_volume                     1806.27
loop_
_atom_site_label
_atom_site_type_symbol
_atom_site_fract_x
_atom_site_fract_y
_atom_site_fract_z
O22 O 0.6436(7) 0.5331(4) 0.0483(5)
C2 C 0.0859(9) 0.4897(6) 0.2962(7)
C4 C 0.2157(10) 0.5115(6) 0.2903(7)
C6 C 0.4806(12) 0.2463(6) 0.5835(8)
H2 H 0.4520 0.2417 0.5062
C7 C 0.5240(11) 0.2988(5) 0.7418(8)
C8 C 0.5593(12) 0.2126(5) 0.7615(8)
C9 C 0.5259(13) 0.3632(6) 0.8178(9)
C10 C 0.6132(13) 0.1578(6) 0.8637(9)
N1 N 0.1341(9) 0.4583(5) 0.4056(6)
N3 N 0.4727(9) 0.3191(5) 0.6278(7)
N4 N 0.5335(9) 0.1808(4) 0.6612(6)
O1 O 0.1849(9) 0.5418(6) 0.1959(6)
O2 O 0.3627(7) 0.4972(5) 0.3885(6)
O5 O 0.4645(9) 0.4344(4) 0.7666(6)
O6 O 0.5819(14) 0.3446(5) 0.9249(8)
O7 O 0.6410(13) 0.1896(5) 0.9601(7)
H3 H 0.6234 0.2407 0.9505
O8 O 0.6286(9) 0.0810(4) 0.8559(6)
Cd1 Cd 0.40641(7) 0.45657(4) 0.57049(5)
Cd2 Cd 0.0000 0.5000 0.0000
Cd3 Cd 0.42036(7) 0.54315(4) 0.84355(5)
O18 O 0.013(2) 0.3530(10) 0.0680(15)
H9 H 0.0934 0.3303 0.0709
H10 H 0.0041 0.3248 0.1221
N10 N 0.1414(9) 0.5344(5) 0.7290(7)
N11 N 0.4665(9) 0.6808(4) 0.8388(6)
O20 O 0.6373(7) 0.5028(5) 0.6115(6)
O24 O 0.3564(7) 0.4669(4) 0.9517(5)
O25 O 0.3714(9) 0.5810(4) 0.6441(6)
Cd8 Cd 0.59359(7) 0.54343(4) 0.42951(5)
Cd12 Cd 0.57964(7) 0.04315(4) 0.65645(5)
Cd14 Cd 0.57964(7) 0.45685(4) 0.15645(5)
Cd2_2 Cd 0.0000 0.5000 1.0000
C11 C 0.0059(11) 0.5555(6) 0.6159(9)
H6 H 0.0086 0.5781 0.5566
C13 C 0.0862(9) 0.5057(6) 0.7880(7)
C15 C 0.2158(10) 0.4759(6) 0.9184(8)
O12 O 0.1860(9) 0.4604(6) 0.9880(7)
Cd7 Cd 0.59359(7) 0.95657(4) 0.92951(5)
Cd9 Cd 0.40641(7) 0.04343(4) 0.07049(5)
C1 C 0.9941(11) 0.4445(6) 0.3841(9)
H1 H 0.9914 0.4219 0.4434
C3 C 0.9138(9) 0.4943(6) 0.2120(7)
C5 C 0.7842(10) 0.5241(6) 0.0816(8)
N2 N 0.8586(9) 0.4656(5) 0.2710(7)
O3 O 0.8140(9) 0.5396(6) 0.0120(7)
Cd2_3 Cd 1.0000 0.5000 0.0000
Cd2_4 Cd 1.0000 0.5000 1.0000
O9 O 0.987(2) 0.6470(10) 0.9320(15)
H4 H 0.9066 0.6697 0.9291
H5 H 0.9959 0.6752 0.8779
C12 C 0.9141(9) 0.5103(6) 0.7038(7)
C14 C 0.7843(10) 0.4885(6) 0.7097(7)
C16 C 0.5194(12) 0.7537(6) 0.4165(8)
H7 H 0.5480 0.7583 0.4938
C17 C 0.4760(11) 0.7012(5) 0.2582(8)
C18 C 0.4407(12) 0.7874(5) 0.2385(8)
C19 C 0.4741(13) 0.6368(6) 0.1822(9)
C20 C 0.3868(13) 0.8422(6) 0.1363(9)
N5 N 0.8659(9) 0.5417(5) 0.5944(6)
N7 N 0.5273(9) 0.6809(5) 0.3722(7)
N8 N 0.4665(9) 0.8192(4) 0.3388(6)
O10 O 0.8151(9) 0.4582(6) 0.8041(6)
O14 O 0.5355(9) 0.5656(4) 0.2334(6)
O15 O 0.4181(14) 0.6554(5) 0.0751(8)
O16 O 0.3590(13) 0.8104(5) 0.0399(7)
H8 H 0.3766 0.7593 0.0495
O17 O 0.3714(9) 0.9190(4) 0.1441(6)
N12 N 0.5335(9) 0.3192(4) 0.1612(6)
O26 O 0.6286(9) 0.4190(4) 0.3559(6)
Cd15 Cd 0.42036(7) 0.95685(4) 0.34355(5)
C16_2 C 0.4806(12) 0.2537(6) 0.0835(8)
H7_2 H 0.4520 0.2583 0.0062
C17_2 C 0.5240(11) 0.2012(5) 0.2418(8)
C18_2 C 0.5593(12) 0.2874(5) 0.2615(8)
C19_2 C 0.5259(13) 0.1368(6) 0.3178(9)
C20_2 C 0.6132(13) 0.3422(6) 0.3637(9)
N7_2 N 0.4727(9) 0.1809(5) 0.1278(7)
O14_2 O 0.4645(9) 0.0656(4) 0.2666(6)
O15_2 O 0.5819(14) 0.1554(5) 0.4249(8)
O16_2 O 0.6410(13) 0.3104(5) 0.4601(7)
H8_2 H 0.6234 0.2593 0.4505
O21 O 0.3564(7) 0.0331(4) 0.4517(5)
C5_2 C 0.2158(10) 0.0241(6) 0.4184(8)
O3_2 O 0.1860(9) 0.0396(6) 0.4880(7)
Cd2_5 Cd 0.0000 0.0000 0.5000
O9_2 O 0.013(2) 0.1470(10) 0.5680(15)
H4_2 H 0.0934 0.1697 0.5709
H5_2 H 0.0041 0.1752 0.6221
C12_2 C 0.0859(9) 0.0103(6) 0.7962(7)
N5_2 N 0.1341(9) 0.0417(5) 0.9056(6)
O11 O 0.3627(7) 0.0028(5) 0.8885(6)
N9 N 0.1414(9) 0.9656(5) 0.2290(7)
O19 O 0.6373(7) 0.9972(5) 0.1115(6)
O23 O 0.6436(7) 0.9669(4) 0.5483(5)
C1_2 C 0.0059(11) 0.9445(6) 0.1159(9)
H1_2 H 0.0086 0.9219 0.0566
C3_2 C 0.0862(9) 0.9943(6) 0.2880(7)
Cd2_6 Cd 0.0000 1.0000 0.5000
C14_2 C 0.2157(10) 0.9885(6) 0.7903(7)
O10_2 O 0.1849(9) 0.9582(6) 0.6959(6)
C4_2 C 0.7843(10) 0.0115(6) 0.2097(7)
O1_2 O 0.8151(9) 0.0418(6) 0.3041(6)
Cd2_7 Cd 1.0000 0.0000 0.5000
C11_2 C 0.9941(11) 0.0555(6) 0.8841(9)
H6_2 H 0.9914 0.0781 0.9434
C13_2 C 0.9138(9) 0.0057(6) 0.7120(7)
N6 N 0.8586(9) 0.0344(5) 0.7710(7)
C2_2 C 0.9141(9) 0.9897(6) 0.2038(7)
N1_2 N 0.8659(9) 0.9583(5) 0.0944(6)
Cd2_8 Cd 1.0000 1.0000 0.5000
C15_2 C 0.7842(10) 0.9759(6) 0.5816(8)
O12_2 O 0.8140(9) 0.9604(6) 0.5120(7)
O18_2 O 0.987(2) 0.8530(10) 0.4320(15)
H9_2 H 0.9066 0.8303 0.4291
H10_2 H 0.9959 0.8248 0.3779
C6_2 C 0.5194(12) 0.7463(6) 0.9165(8)
H2_2 H 0.5480 0.7417 0.9938
C7_2 C 0.4760(11) 0.7988(5) 0.7582(8)
C8_2 C 0.4407(12) 0.7126(5) 0.7385(8)
C9_2 C 0.4741(13) 0.8632(6) 0.6822(9)
C10_2 C 0.3868(13) 0.6578(6) 0.6363(9)
N3_2 N 0.5273(9) 0.8191(5) 0.8722(7)
O5_2 O 0.5355(9) 0.9344(4) 0.7334(6)
O6_2 O 0.4181(14) 0.8446(5) 0.5751(8)
O7_2 O 0.3590(13) 0.6896(5) 0.5399(7)
H3_2 H 0.3766 0.7407 0.5495
loop_
_geom_bond_atom_site_label_1
_geom_bond_atom_site_label_2
_geom_bond_site_symmetry_1
_geom_bond_site_symmetry_2
C4 C2 1_555 1_555
C6 H2 1_555 1_555
C7 C8 1_555 1_555
C8 C10 1_555 1_555
C9 C7 1_555 1_555
C10 O7 1_555 1_555
N3 C6 1_555 1_555
N4 C6 1_555 1_555
O1 C4 1_555 1_555
O2 C4 1_555 1_555
O5 C9 1_555 1_555
O6 C9 1_555 1_555
O7 H3 1_555 1_555
O8 C10 1_555 1_555
Cd1 N1 1_555 1_555
Cd2 O1 1_555 1_555
Cd3 O5 1_555 1_555
O18 Cd2 1_555 1_555
H9 O18 1_555 1_555
H10 O18 1_555 1_555
N10 Cd3 1_555 1_555
N11 Cd3 1_555 1_555
O20 Cd1 1_555 1_555
O24 Cd3 1_555 1_555
O25 Cd1 1_555 1_555
Cd8 O2 1_555 1_555
Cd12 N4 1_555 1_555
C2 N1 1_555 1_555
C7 N3 1_555 1_555
C8 N4 1_555 1_555
N3 Cd1 1_555 1_555
O2 Cd1 1_555 1_555
O5 Cd1 1_555 1_555
O8 Cd12 1_555 1_555
Cd3 O25 1_555 1_555
O20 Cd8 1_555 1_555
C11 H6 1_555 1_555
C13 C15 1_555 1_555
C15 O12 1_555 1_555
N10 C11 1_555 1_555
O12 Cd2_2 1_555 1_555
O24 C15 1_555 1_555
C13 N10 1_555 1_555
C1 H1 1_555 1_555
C3 C5 1_555 1_555
C5 O3 1_555 1_555
N2 C1 1_555 1_555
O3 Cd2_3 1_555 1_555
O22 C5 1_555 1_555
Cd14 N2 1_555 1_555
C3 N2 1_555 1_555
O22 Cd14 1_555 1_555
O9 Cd2_4 1_555 1_555
H4 O9 1_555 1_555
H5 O9 1_555 1_555
C14 C12 1_555 1_555
C16 H7 1_555 1_555
C17 C18 1_555 1_555
C18 C20 1_555 1_555
C19 C17 1_555 1_555
C20 O16 1_555 1_555
N7 C16 1_555 1_555
N8 C16 1_555 1_555
O10 Cd2_4 1_555 1_555
O20 C14 1_555 1_555
O14 C19 1_555 1_555
O15 C19 1_555 1_555
O16 H8 1_555 1_555
O17 C20 1_555 1_555
Cd8 N5 1_555 1_555
Cd14 O14 1_555 1_555
N12 Cd14 1_555 1_555
O26 Cd8 1_555 1_555
Cd15 N8 1_555 1_555
C12 N5 1_555 1_555
C14 O10 1_555 1_555
C17 N7 1_555 1_555
C18 N8 1_555 1_555
N7 Cd8 1_555 1_555
O14 Cd8 1_555 1_555
O17 Cd15 1_555 1_555
Cd14 O26 1_555 1_555
C16_2 H7_2 1_555 1_555
C17_2 C18_2 1_555 1_555
C18_2 C20_2 1_555 1_555
C19_2 C17_2 1_555 1_555
C20_2 O16_2 1_555 1_555
N7_2 C16_2 1_555 1_555
N12 C16_2 1_555 1_555
O14_2 C19_2 1_555 1_555
O15_2 C19_2 1_555 1_555
O16_2 H8_2 1_555 1_555
O26 C20_2 1_555 1_555
C17_2 N7_2 1_555 1_555
C18_2 N12 1_555 1_555
N7_2 Cd9 1_555 1_555
O14_2 Cd9 1_555 1_555
C5_2 O3_2 1_555 1_555
O3_2 Cd2_5 1_555 1_555
O21 C5_2 1_555 1_555
O9_2 Cd2_5 1_555 1_555
H4_2 O9_2 1_555 1_555
H5_2 O9_2 1_555 1_555
Cd12 O21 1_555 1_555
C12_2 N5_2 1_555 1_555
N9 Cd15 1_555 1_555
O23 Cd15 1_555 1_555
C1_2 H1_2 1_555 1_555
N9 C1_2 1_555 1_555
O10_2 Cd2_6 1_555 1_555
C3_2 N9 1_555 1_555
C14_2 O10_2 1_555 1_555
O1_2 C4_2 1_555 1_555
Cd2_7 O1_2 1_555 1_555
C11_2 H6_2 1_555 1_555
N6 C11_2 1_555 1_555
Cd12 N6 1_555 1_555
C13_2 N6 1_555 1_555
C15_2 O12_2 1_555 1_555
O12_2 Cd2_8 1_555 1_555
O23 C15_2 1_555 1_555
O18_2 Cd2_8 1_555 1_555
H9_2 O18_2 1_555 1_555
H10_2 O18_2 1_555 1_555
C2_2 N1_2 1_555 1_555
C6_2 H2_2 1_555 1_555
C7_2 C8_2 1_555 1_555
C8_2 C10_2 1_555 1_555
C9_2 C7_2 1_555 1_555
C10_2 O7_2 1_555 1_555
N3_2 C6_2 1_555 1_555
N11 C6_2 1_555 1_555
O5_2 C9_2 1_555 1_555
O6_2 C9_2 1_555 1_555
O7_2 H3_2 1_555 1_555
O25 C10_2 1_555 1_555
C7_2 N3_2 1_555 1_555
C8_2 N11 1_555 1_555
N3_2 Cd7 1_555 1_555
O5_2 Cd7 1_555 1_555

#END
