
###############################################################################
#
# This file contains modified crystal structure data generated from the
# MOF subset of the Cambridge Structural Database (CSD) v543 
# hosted by the Cambridge Crystallographic Data Centre (CCDC).
#
# This work is licensed under the Creative Commons
# Attribution-NonCommercial-ShareAlike 4.0 International License.
# To view a copy of this license, visit
# http://creativecommons.org/licenses/by-nc-sa/4.0/
# or send a letter to
# Creative Commons, PO Box 1866, Mountain View, CA 94042, USA.
#
# CIF created using the CSD Python API on 29 September 2022
# The structure has been converted into the P1 space group
# The structure has a 3D framework
# The original CSD entry LUNGEJ is in the monoclinic crystal system
# The framework has been calculated to contain at least 10.0% void space
# The void calculation uses a probe of radius 1.32A, grid spacing 0.4
#
###############################################################################

data_LUNGEJ
_chemical_formula_moiety         '(C72 H60 N8 O16 Zn4)n'
_symmetry_cell_setting           triclinic
_symmetry_space_group_name_H-M   'P 1'
_symmetry_Int_Tables_number      1
_space_group_name_Hall           'P 1'
loop_
_symmetry_equiv_pos_site_id
_symmetry_equiv_pos_as_xyz
1 x,y,z
_cell_length_a                   10.7277(4)
_cell_length_b                   16.5367(5)
_cell_length_c                   12.4359(5)
_cell_angle_alpha                90
_cell_angle_beta                 109.775(4)
_cell_angle_gamma                90
_cell_volume                     2076.04
loop_
_atom_site_label
_atom_site_type_symbol
_atom_site_fract_x
_atom_site_fract_y
_atom_site_fract_z
C3 C 0.0210(2) 0.51622(12) 0.39843(18)
H1 H 0.0356 0.5273 0.3303
O5 O 0.09276(16) 0.32241(9) 0.36658(14)
O6 O 0.06981(17) 0.32496(9) 0.70113(14)
O7 O 0.22773(17) 0.33666(11) 0.62511(16)
O8 O 0.25441(17) 0.41224(10) 0.39943(16)
C19 C 0.0520(2) 0.42946(12) 0.56140(17)
C20 C 0.1480(2) 0.38991(12) 0.40624(18)
C22 C 0.0726(2) 0.44580(12) 0.45787(18)
C23 C 0.1207(2) 0.35838(12) 0.63271(18)
Zn2 Zn 0.19407(2) 0.26547(2) 0.28105(2)
N3 N 0.3751(2) 0.23034(11) 0.38806(17)
C29 C 0.6269(3) 0.18435(16) 0.5338(3)
C30 C 0.4167(3) 0.24708(16) 0.5007(2)
H21 H 0.3596 0.2747 0.5299
C31 C 0.4596(3) 0.19173(16) 0.3481(2)
H22 H 0.4335 0.1802 0.2704
C32 C 0.5389(3) 0.22535(17) 0.5741(2)
H23 H 0.5631 0.2382 0.6512
C33 C 0.5844(3) 0.16821(18) 0.4176(3)
H24 H 0.6402 0.1414 0.3863
C34 C 0.7317(3) 0.00853(18) 0.5846(3)
H25 H 0.6393 0.0237 0.5643
C35 C 0.8176(3) 0.08551(19) 0.5840(3)
H27 H 0.8233 0.0921 0.5083
H28 H 0.9066 0.0772 0.6371
C36 C 0.7622(3) 0.1613(2) 0.6161(3)
H29 H 0.7562 0.1544 0.6916
H30 H 0.8232 0.2054 0.6201
Zn4 Zn 0.19407(2) 0.23453(2) 0.78105(2)
O9 O 0.06981(17) 0.17504(9) 0.20113(14)
N6 N 0.2162(2) 0.34289(11) 0.16222(17)
N4 N 0.7838(2) 0.84289(11) 0.33778(17)
C24 C 0.6755(2) 0.88920(15) 0.3136(2)
H17 H 0.6119 0.8859 0.2411
C25 C 0.8740(3) 0.84793(15) 0.4439(2)
H18 H 0.9488 0.8152 0.4627
C26 C 0.7476(3) 0.94810(15) 0.5002(2)
C27 C 0.6544(3) 0.94164(16) 0.3919(2)
H19 H 0.5776 0.9726 0.3719
C28 C 0.8593(3) 0.89948(16) 0.5250(2)
H20 H 0.9243 0.9019 0.5969
H26 H 0.7601 0.9849 0.6604
Zn6 Zn 0.80593(2) 0.76547(2) 0.21895(2)
N2 N 0.2162(2) 0.15711(11) 0.66222(17)
C6 C 0.3245(2) 0.11080(15) 0.6864(2)
H2 H 0.3881 0.1141 0.7589
C7 C 0.1260(3) 0.15207(15) 0.5561(2)
H3 H 0.0512 0.1848 0.5373
C8 C 0.2524(3) 0.05190(15) 0.4998(2)
C9 C 0.3456(3) 0.05836(16) 0.6081(2)
H4 H 0.4224 0.0274 0.6281
C10 C 0.1407(3) 0.10052(16) 0.4750(2)
H5 H 0.0757 0.0981 0.4031
H11 H 0.2399 0.0151 0.3396
Zn1 Zn 0.80593(2) 0.73453(2) 0.71895(2)
O1 O 0.90724(16) 0.67759(9) 0.63342(14)
O2 O 0.93019(17) 0.67504(9) 0.29887(14)
O3 O 0.77227(17) 0.66334(11) 0.37489(16)
O4 O 0.74559(17) 0.58776(10) 0.60057(16)
N1 N 0.6249(2) 0.76966(11) 0.61194(17)
C1 C 0.9480(2) 0.57054(12) 0.43860(17)
C2 C 0.8520(2) 0.61009(12) 0.59376(18)
C4 C 0.9274(2) 0.55420(12) 0.54213(18)
C5 C 0.8793(2) 0.64162(12) 0.36729(18)
C11 C 0.3731(3) 0.81565(16) 0.4662(3)
C12 C 0.5833(3) 0.75292(16) 0.4993(2)
H6 H 0.6404 0.7253 0.4701
C13 C 0.5404(3) 0.80827(16) 0.6519(2)
H7 H 0.5665 0.8198 0.7296
C14 C 0.4611(3) 0.77465(17) 0.4259(2)
H8 H 0.4369 0.7618 0.3488
C15 C 0.4156(3) 0.83179(18) 0.5824(3)
H9 H 0.3598 0.8586 0.6137
C16 C 0.2683(3) 0.99147(18) 0.4154(3)
H10 H 0.3607 0.9763 0.4357
C17 C 0.1824(3) 0.91449(19) 0.4160(3)
H12 H 0.1767 0.9079 0.4917
H13 H 0.0934 0.9228 0.3629
C18 C 0.2378(3) 0.8387(2) 0.3839(3)
H14 H 0.2438 0.8456 0.3084
H15 H 0.1768 0.7946 0.3799
C21 C 0.9790(2) 0.48378(12) 0.60157(18)
H16 H 0.9644 0.4727 0.6697
O10 O 0.93019(17) 0.82496(9) 0.79887(14)
N5 N 0.7838(2) 0.65711(11) 0.83778(17)
O3_2 O 0.22773(17) 0.16334(11) 0.12511(16)
C1_2 C 0.0520(2) 0.07054(12) 0.06140(17)
C5_2 C 0.1207(2) 0.14162(12) 0.13271(18)
C8_2 C 0.7476(3) 0.55190(15) 0.0002(2)
C10_2 C 0.8593(3) 0.60052(16) 0.0250(2)
H5_2 H 0.9243 0.5981 0.0969
C11_2 C 0.6269(3) 0.31565(16) 0.0338(3)
C12_2 C 0.4167(3) 0.25292(16) 0.0007(2)
H6_2 H 0.3596 0.2253 0.0299
C14_2 C 0.5389(3) 0.27465(17) 0.0741(2)
H8_2 H 0.5631 0.2618 0.1512
C16_2 C 0.7317(3) 0.49147(18) 0.0846(3)
H10_2 H 0.6393 0.4763 0.0643
H11_2 H 0.7601 0.5151 0.1604
C17_2 C 0.8176(3) 0.41449(19) 0.0840(3)
H12_2 H 0.8233 0.4079 0.0083
H13_2 H 0.9066 0.4228 0.1371
C18_2 C 0.7622(3) 0.3387(2) 0.1161(3)
H14_2 H 0.7562 0.3456 0.1916
H15_2 H 0.8232 0.2946 0.1201
O1_2 O 0.09276(16) 0.17759(9) 0.86658(14)
O4_2 O 0.25441(17) 0.08776(10) 0.89943(16)
N1_2 N 0.3751(2) 0.26966(11) 0.88806(17)
C2_2 C 0.1480(2) 0.11009(12) 0.90624(18)
C4_2 C 0.0726(2) 0.05420(12) 0.95787(18)
C6_2 C 0.6755(2) 0.61080(15) 0.8136(2)
H2_2 H 0.6119 0.6141 0.7411
C7_2 C 0.8740(3) 0.65207(15) 0.9439(2)
H3_2 H 0.9488 0.6848 0.9627
C9_2 C 0.6544(3) 0.55836(16) 0.8919(2)
H4_2 H 0.5776 0.5274 0.8719
C13_2 C 0.4596(3) 0.30827(16) 0.8481(2)
H7_2 H 0.4335 0.3198 0.7704
C15_2 C 0.5844(3) 0.33179(18) 0.9176(3)
H9_2 H 0.6402 0.3586 0.8863
O5_2 O 0.90724(16) 0.82241(9) 0.13342(14)
O8_2 O 0.74559(17) 0.91224(10) 0.10057(16)
C20_2 C 0.8520(2) 0.88991(12) 0.09376(18)
C22_2 C 0.9274(2) 0.94580(12) 0.04213(18)
N3_2 N 0.6249(2) 0.73034(11) 0.11194(17)
C24_2 C 0.3245(2) 0.38920(15) 0.1864(2)
H17_2 H 0.3881 0.3859 0.2589
C25_2 C 0.1260(3) 0.34793(15) 0.0561(2)
H18_2 H 0.0512 0.3152 0.0373
C27_2 C 0.3456(3) 0.44164(16) 0.1081(2)
H19_2 H 0.4224 0.4726 0.1281
C31_2 C 0.5404(3) 0.69173(16) 0.1519(2)
H22_2 H 0.5665 0.6802 0.2296
C33_2 C 0.4156(3) 0.66821(18) 0.0824(3)
H24_2 H 0.3598 0.6414 0.1137
O7_2 O 0.77227(17) 0.83666(11) 0.87489(16)
C19_2 C 0.9480(2) 0.92946(12) 0.93860(17)
C23_2 C 0.8793(2) 0.85838(12) 0.86729(18)
C26_2 C 0.2524(3) 0.44810(15) 0.9998(2)
C28_2 C 0.1407(3) 0.39948(16) 0.9750(2)
H20_2 H 0.0757 0.4019 0.9031
C29_2 C 0.3731(3) 0.68435(16) 0.9662(3)
C30_2 C 0.5833(3) 0.74708(16) 0.9993(2)
H21_2 H 0.6404 0.7747 0.9701
C32_2 C 0.4611(3) 0.72535(17) 0.9259(2)
H23_2 H 0.4369 0.7382 0.8488
C34_2 C 0.2683(3) 0.50853(18) 0.9154(3)
H25_2 H 0.3607 0.5237 0.9357
H26_2 H 0.2399 0.4849 0.8396
C35_2 C 0.1824(3) 0.58551(19) 0.9160(3)
H27_2 H 0.1767 0.5921 0.9917
H28_2 H 0.0934 0.5772 0.8629
C36_2 C 0.2378(3) 0.6613(2) 0.8839(3)
H29_2 H 0.2438 0.6544 0.8084
H30_2 H 0.1768 0.7054 0.8799
C21_2 C 0.0210(2) 0.98378(12) 0.89843(18)
H16_2 H 0.0356 0.9727 0.8303
C3_2 C 0.9790(2) 0.01622(12) 0.10157(18)
H1_2 H 0.9644 0.0273 0.1697
loop_
_geom_bond_atom_site_label_1
_geom_bond_atom_site_label_2
_geom_bond_site_symmetry_1
_geom_bond_site_symmetry_2
C3 H1 1_555 1_555
O5 C20 1_555 1_555
O6 C23 1_555 1_555
O7 C23 1_555 1_555
O8 C20 1_555 1_555
C20 C22 1_555 1_555
C22 C3 1_555 1_555
C23 C19 1_555 1_555
Zn2 O5 1_555 1_555
N3 Zn2 1_555 1_555
C29 C32 1_555 1_555
C30 N3 1_555 1_555
H21 C30 1_555 1_555
C31 N3 1_555 1_555
H22 C31 1_555 1_555
C32 C30 1_555 1_555
H23 C32 1_555 1_555
C33 C29 1_555 1_555
H24 C33 1_555 1_555
H25 C34 1_555 1_555
C35 C34 1_555 1_555
H27 C35 1_555 1_555
H28 C35 1_555 1_555
C36 C29 1_555 1_555
H29 C36 1_555 1_555
H30 C36 1_555 1_555
Zn4 O6 1_555 1_555
O9 Zn2 1_555 1_555
N6 Zn2 1_555 1_555
C19 C22 1_555 1_555
C31 C33 1_555 1_555
C35 C36 1_555 1_555
N4 C24 1_555 1_555
C24 H17 1_555 1_555
C25 N4 1_555 1_555
H18 C25 1_555 1_555
C26 C27 1_555 1_555
C27 C24 1_555 1_555
H19 C27 1_555 1_555
C28 C25 1_555 1_555
H20 C28 1_555 1_555
Zn6 N4 1_555 1_555
C26 C28 1_555 1_555
N2 C6 1_555 1_555
C6 H2 1_555 1_555
C7 N2 1_555 1_555
H3 C7 1_555 1_555
C8 C9 1_555 1_555
C9 C6 1_555 1_555
H4 C9 1_555 1_555
C10 C7 1_555 1_555
H5 C10 1_555 1_555
Zn4 N2 1_555 1_555
C8 C10 1_555 1_555
Zn1 O1 1_555 1_555
O1 C2 1_555 1_555
O2 C5 1_555 1_555
O3 C5 1_555 1_555
O4 C2 1_555 1_555
N1 Zn1 1_555 1_555
C2 C4 1_555 1_555
C4 C1 1_555 1_555
C5 C1 1_555 1_555
C11 C14 1_555 1_555
C12 N1 1_555 1_555
H6 C12 1_555 1_555
C13 N1 1_555 1_555
H7 C13 1_555 1_555
C14 C12 1_555 1_555
H8 C14 1_555 1_555
C15 C11 1_555 1_555
H9 C15 1_555 1_555
H10 C16 1_555 1_555
C17 C16 1_555 1_555
H12 C17 1_555 1_555
H13 C17 1_555 1_555
C18 C11 1_555 1_555
H14 C18 1_555 1_555
H15 C18 1_555 1_555
C21 C4 1_555 1_555
H16 C21 1_555 1_555
Zn6 O2 1_555 1_555
O10 Zn1 1_555 1_555
N5 Zn1 1_555 1_555
C13 C15 1_555 1_555
C17 C18 1_555 1_555
O9 C5_2 1_555 1_555
O3_2 C5_2 1_555 1_555
C5_2 C1_2 1_555 1_555
H5_2 C10_2 1_555 1_555
C11_2 C14_2 1_555 1_555
H6_2 C12_2 1_555 1_555
C14_2 C12_2 1_555 1_555
H8_2 C14_2 1_555 1_555
C16_2 C8_2 1_555 1_555
H10_2 C16_2 1_555 1_555
H11_2 C16_2 1_555 1_555
C17_2 C16_2 1_555 1_555
H12_2 C17_2 1_555 1_555
H13_2 C17_2 1_555 1_555
C18_2 C11_2 1_555 1_555
H14_2 C18_2 1_555 1_555
H15_2 C18_2 1_555 1_555
C8_2 C10_2 1_555 1_555
C17_2 C18_2 1_555 1_555
Zn4 O1_2 1_555 1_555
O1_2 C2_2 1_555 1_555
O4_2 C2_2 1_555 1_555
N1_2 Zn4 1_555 1_555
N5 C6_2 1_555 1_555
C2_2 C4_2 1_555 1_555
C6_2 H2_2 1_555 1_555
C7_2 N5 1_555 1_555
H3_2 C7_2 1_555 1_555
C9_2 C6_2 1_555 1_555
H4_2 C9_2 1_555 1_555
C13_2 N1_2 1_555 1_555
H7_2 C13_2 1_555 1_555
H9_2 C15_2 1_555 1_555
C13_2 C15_2 1_555 1_555
O5_2 C20_2 1_555 1_555
O8_2 C20_2 1_555 1_555
C20_2 C22_2 1_555 1_555
Zn6 O5_2 1_555 1_555
N3_2 Zn6 1_555 1_555
N6 C24_2 1_555 1_555
C24_2 H17_2 1_555 1_555
C25_2 N6 1_555 1_555
H18_2 C25_2 1_555 1_555
C27_2 C24_2 1_555 1_555
H19_2 C27_2 1_555 1_555
C31_2 N3_2 1_555 1_555
H22_2 C31_2 1_555 1_555
H24_2 C33_2 1_555 1_555
C31_2 C33_2 1_555 1_555
O10 C23_2 1_555 1_555
O7_2 C23_2 1_555 1_555
C23_2 C19_2 1_555 1_555
H20_2 C28_2 1_555 1_555
C29_2 C32_2 1_555 1_555
H21_2 C30_2 1_555 1_555
C32_2 C30_2 1_555 1_555
H23_2 C32_2 1_555 1_555
C34_2 C26_2 1_555 1_555
H25_2 C34_2 1_555 1_555
H26_2 C34_2 1_555 1_555
C35_2 C34_2 1_555 1_555
H27_2 C35_2 1_555 1_555
H28_2 C35_2 1_555 1_555
C36_2 C29_2 1_555 1_555
H29_2 C36_2 1_555 1_555
H30_2 C36_2 1_555 1_555
C26_2 C28_2 1_555 1_555
C35_2 C36_2 1_555 1_555
H16_2 C21_2 1_555 1_555
C3_2 H1_2 1_555 1_555

#END
