
###############################################################################
#
# This file contains modified crystal structure data generated from the
# MOF subset of the Cambridge Structural Database (CSD) v543 
# hosted by the Cambridge Crystallographic Data Centre (CCDC).
#
# This work is licensed under the Creative Commons
# Attribution-NonCommercial-ShareAlike 4.0 International License.
# To view a copy of this license, visit
# http://creativecommons.org/licenses/by-nc-sa/4.0/
# or send a letter to
# Creative Commons, PO Box 1866, Mountain View, CA 94042, USA.
#
# CIF created using the CSD Python API on 29 September 2022
# The structure has been converted into the P1 space group
# The structure has a 3D framework
# The original CSD entry LUNGEJ01 is in the monoclinic crystal system
# The framework has been calculated to contain at least 10.0% void space
# The void calculation uses a probe of radius 1.32A, grid spacing 0.4
#
###############################################################################

data_LUNGEJ01
_chemical_formula_moiety         '(C72 H60 N8 O16 Zn4)n'
_symmetry_cell_setting           triclinic
_symmetry_space_group_name_H-M   'P 1'
_symmetry_Int_Tables_number      1
_space_group_name_Hall           'P 1'
loop_
_symmetry_equiv_pos_site_id
_symmetry_equiv_pos_as_xyz
1 x,y,z
_cell_length_a                   10.5548(4)
_cell_length_b                   16.5762(5)
_cell_length_c                   12.2879(5)
_cell_angle_alpha                90
_cell_angle_beta                 109.242(4)
_cell_angle_gamma                90
_cell_volume                     2029.77
loop_
_atom_site_label
_atom_site_type_symbol
_atom_site_fract_x
_atom_site_fract_y
_atom_site_fract_z
Zn1 Zn 0.19891(2) 0.26283(2) 0.28499(2)
O1 O 0.09700(13) 0.32047(8) 0.37236(11)
O2 O 0.23390(13) 0.34077(8) 0.63190(11)
O3 O 0.25992(13) 0.41114(8) 0.39871(11)
O4 O 0.06786(13) 0.32493(8) 0.70310(11)
N1 N 0.38092(16) 0.22888(9) 0.39364(13)
C1 C 0.02340(18) 0.51575(11) 0.39733(16)
H1 H 0.040145 0.526592 0.327375
C2 C 0.15252(18) 0.38917(11) 0.40839(15)
C3 C 0.63595(19) 0.18363(11) 0.54226(16)
C5 C 0.05211(18) 0.43013(11) 0.56301(15)
C6 C 0.46770(19) 0.18812(11) 0.35463(16)
H3 H 0.441075 0.174621 0.275124
C7 C 0.07485(18) 0.44572(11) 0.45904(15)
C9 C 0.12214(18) 0.36016(11) 0.63628(15)
C10 C 0.82751(19) 0.08246(12) 0.58907(17)
H4 H 0.919089 0.072883 0.643425
H5 H 0.834321 0.089651 0.511207
C11 C 0.5934(2) 0.16518(12) 0.42509(17)
H6 H 0.651326 0.136646 0.393661
C13 C 0.7397(2) 0.00778(12) 0.58840(17)
H9 H 0.644777 0.024633 0.568669
C16 C 0.5457(2) 0.22688(11) 0.58104(16)
H12 H 0.570141 0.241606 0.659996
C17 C 0.4217(2) 0.24843(11) 0.50611(17)
H13 H 0.362664 0.278217 0.534929
C18 C 0.7720(2) 0.15958(12) 0.62370(17)
H14 H 0.765682 0.152225 0.701696
H15 H 0.835978 0.204104 0.627939
Zn6 Zn 0.19891(2) 0.23717(2) 0.78499(2)
O10 O 0.06786(13) 0.17507(8) 0.20310(11)
N5 N 0.21981(16) 0.33879(9) 0.16324(13)
N2 N 0.78019(16) 0.83879(9) 0.33676(13)
C4 C 0.67128(19) 0.88658(11) 0.31438(16)
H2 H 0.604098 0.883569 0.240665
C8 C 0.75161(19) 0.94593(11) 0.50264(16)
C12 C 0.87440(19) 0.84393(11) 0.44162(16)
H7 H 0.951207 0.810174 0.458530
H8 H 0.767900 0.983478 0.666329
C14 C 0.8639(2) 0.89622(12) 0.52543(17)
H10 H 0.932746 0.898371 0.598305
C15 C 0.6538(2) 0.93974(12) 0.39473(16)
H11 H 0.575213 0.972025 0.376317
Zn4 Zn 0.80109(2) 0.76283(2) 0.21501(2)
N4 N 0.21981(16) 0.16121(9) 0.66324(13)
C25 C 0.32872(19) 0.11342(11) 0.68562(16)
H17 H 0.395902 0.116431 0.759335
C27 C 0.24839(19) 0.05407(11) 0.49736(16)
C30 C 0.12560(19) 0.15607(11) 0.55838(16)
H22 H 0.048793 0.189826 0.541470
H23 H 0.232100 0.016522 0.333671
C32 C 0.1361(2) 0.10378(12) 0.47457(17)
H25 H 0.067254 0.101629 0.401695
C33 C 0.3462(2) 0.06026(12) 0.60527(16)
H26 H 0.424787 0.027975 0.623683
O5 O 0.90300(13) 0.67953(8) 0.62764(11)
O6 O 0.76610(13) 0.65923(8) 0.36810(11)
O7 O 0.74008(13) 0.58886(8) 0.60129(11)
O8 O 0.93214(13) 0.67507(8) 0.29690(11)
C19 C 0.97660(18) 0.48425(11) 0.60267(16)
H16 H 0.959855 0.473408 0.672625
C20 C 0.84748(18) 0.61083(11) 0.59161(15)
C21 C 0.94789(18) 0.56987(11) 0.43699(15)
C22 C 0.92515(18) 0.55428(11) 0.54096(15)
C23 C 0.87786(18) 0.63984(11) 0.36372(15)
Zn2 Zn 0.80109(2) 0.73717(2) 0.71501(2)
N3 N 0.61908(16) 0.77112(9) 0.60636(13)
C24 C 0.36405(19) 0.81637(11) 0.45774(16)
C26 C 0.53230(19) 0.81188(11) 0.64537(16)
H18 H 0.558925 0.825379 0.724876
C28 C 0.17249(19) 0.91754(12) 0.41093(17)
H19 H 0.080911 0.927117 0.356575
H20 H 0.165679 0.910349 0.488793
C29 C 0.4066(2) 0.83482(12) 0.57491(17)
H21 H 0.348674 0.863354 0.606339
C31 C 0.2603(2) 0.99222(12) 0.41160(17)
H24 H 0.355223 0.975367 0.431331
C34 C 0.4543(2) 0.77312(11) 0.41896(16)
H27 H 0.429859 0.758394 0.340004
C35 C 0.5783(2) 0.75157(11) 0.49389(17)
H28 H 0.637336 0.721783 0.465071
C36 C 0.2280(2) 0.84042(12) 0.37630(17)
H29 H 0.234318 0.847775 0.298304
H30 H 0.164022 0.795896 0.372061
O9 O 0.93214(13) 0.82493(8) 0.79690(11)
N6 N 0.78019(16) 0.66121(9) 0.83676(13)
O6_2 O 0.23390(13) 0.15923(8) 0.13190(11)
C21_2 C 0.05211(18) 0.06987(11) 0.06301(15)
C23_2 C 0.12214(18) 0.13984(11) 0.13628(15)
C24_2 C 0.63595(19) 0.31637(11) 0.04226(16)
C27_2 C 0.75161(19) 0.55407(11) 0.00264(16)
C28_2 C 0.82751(19) 0.41754(12) 0.08907(17)
H19_2 H 0.919089 0.427117 0.143425
H20_2 H 0.834321 0.410349 0.011207
C31_2 C 0.7397(2) 0.49222(12) 0.08840(17)
H23_2 H 0.767900 0.516522 0.166329
H24_2 H 0.644777 0.475367 0.068669
C32_2 C 0.8639(2) 0.60378(12) 0.02543(17)
H25_2 H 0.932746 0.601629 0.098305
C34_2 C 0.5457(2) 0.27312(11) 0.08104(16)
H27_2 H 0.570141 0.258394 0.159996
C35_2 C 0.4217(2) 0.25157(11) 0.00611(17)
H28_2 H 0.362664 0.221783 0.034929
C36_2 C 0.7720(2) 0.34042(12) 0.12370(17)
H29_2 H 0.765682 0.347775 0.201696
H30_2 H 0.835978 0.295896 0.127939
O5_2 O 0.09700(13) 0.17953(8) 0.87236(11)
O7_2 O 0.25992(13) 0.08886(8) 0.89871(11)
C20_2 C 0.15252(18) 0.11083(11) 0.90839(15)
C22_2 C 0.07485(18) 0.05428(11) 0.95904(15)
N3_2 N 0.38092(16) 0.27112(9) 0.89364(13)
C25_2 C 0.67128(19) 0.61342(11) 0.81438(16)
H17_2 H 0.604098 0.616431 0.740665
C26_2 C 0.46770(19) 0.31188(11) 0.85463(16)
H18_2 H 0.441075 0.325379 0.775124
C29_2 C 0.5934(2) 0.33482(12) 0.92509(17)
H21_2 H 0.651326 0.363354 0.893661
C30_2 C 0.87440(19) 0.65607(11) 0.94162(16)
H22_2 H 0.951207 0.689826 0.958530
C33_2 C 0.6538(2) 0.56026(12) 0.89473(16)
H26_2 H 0.575213 0.527975 0.876317
O1_2 O 0.90300(13) 0.82047(8) 0.12764(11)
O3_2 O 0.74008(13) 0.91114(8) 0.10129(11)
N1_2 N 0.61908(16) 0.72888(9) 0.10636(13)
C2_2 C 0.84748(18) 0.88917(11) 0.09161(15)
C4_2 C 0.32872(19) 0.38658(11) 0.18562(16)
H2_2 H 0.395902 0.383569 0.259335
C6_2 C 0.53230(19) 0.68812(11) 0.14537(16)
H3_2 H 0.558925 0.674621 0.224876
C7_2 C 0.92515(18) 0.94572(11) 0.04096(15)
C11_2 C 0.4066(2) 0.66518(12) 0.07491(17)
H6_2 H 0.348674 0.636646 0.106339
C12_2 C 0.12560(19) 0.34393(11) 0.05838(16)
H7_2 H 0.048793 0.310174 0.041470
C15_2 C 0.3462(2) 0.43974(12) 0.10527(16)
H11_2 H 0.424787 0.472025 0.123683
O2_2 O 0.76610(13) 0.84077(8) 0.86810(11)
C3_2 C 0.36405(19) 0.68363(11) 0.95774(16)
C5_2 C 0.94789(18) 0.93013(11) 0.93699(15)
C8_2 C 0.24839(19) 0.44593(11) 0.99736(16)
C9_2 C 0.87786(18) 0.86016(11) 0.86372(15)
C10_2 C 0.17249(19) 0.58246(12) 0.91093(17)
H4_2 H 0.080911 0.572883 0.856575
H5_2 H 0.165679 0.589651 0.988793
C13_2 C 0.2603(2) 0.50778(12) 0.91160(17)
H8_2 H 0.232100 0.483478 0.833671
H9_2 H 0.355223 0.524633 0.931331
C14_2 C 0.1361(2) 0.39622(12) 0.97457(17)
H10_2 H 0.067254 0.398371 0.901695
C16_2 C 0.4543(2) 0.72688(11) 0.91896(16)
H12_2 H 0.429859 0.741606 0.840004
C17_2 C 0.5783(2) 0.74843(11) 0.99389(17)
H13_2 H 0.637336 0.778217 0.965071
C18_2 C 0.2280(2) 0.65958(12) 0.87630(17)
H14_2 H 0.234318 0.652225 0.798304
H15_2 H 0.164022 0.704104 0.872061
C19_2 C 0.02340(18) 0.98425(11) 0.89733(16)
H16_2 H 0.040145 0.973408 0.827375
C1_2 C 0.97660(18) 0.01575(11) 0.10267(16)
H1_2 H 0.959855 0.026592 0.172625
loop_
_geom_bond_atom_site_label_1
_geom_bond_atom_site_label_2
_geom_bond_site_symmetry_1
_geom_bond_site_symmetry_2
Zn1 O1 1_555 1_555
O1 C2 1_555 1_555
O2 C9 1_555 1_555
O3 C2 1_555 1_555
O4 C9 1_555 1_555
N1 Zn1 1_555 1_555
C1 H1 1_555 1_555
C2 C7 1_555 1_555
C3 C11 1_555 1_555
C5 C7 1_555 1_555
C6 N1 1_555 1_555
H3 C6 1_555 1_555
C7 C1 1_555 1_555
C9 C5 1_555 1_555
C10 H4 1_555 1_555
H5 C10 1_555 1_555
C11 C6 1_555 1_555
H6 C11 1_555 1_555
C13 C10 1_555 1_555
H9 C13 1_555 1_555
C16 C3 1_555 1_555
H12 C16 1_555 1_555
C17 N1 1_555 1_555
H13 C17 1_555 1_555
C18 C3 1_555 1_555
H14 C18 1_555 1_555
H15 C18 1_555 1_555
Zn6 O4 1_555 1_555
O10 Zn1 1_555 1_555
N5 Zn1 1_555 1_555
C10 C18 1_555 1_555
C16 C17 1_555 1_555
N2 C4 1_555 1_555
C4 H2 1_555 1_555
C12 N2 1_555 1_555
H7 C12 1_555 1_555
C14 C8 1_555 1_555
H10 C14 1_555 1_555
C15 C4 1_555 1_555
H11 C15 1_555 1_555
Zn4 N2 1_555 1_555
C8 C15 1_555 1_555
C12 C14 1_555 1_555
N4 C25 1_555 1_555
C25 H17 1_555 1_555
C30 N4 1_555 1_555
H22 C30 1_555 1_555
C32 C27 1_555 1_555
H25 C32 1_555 1_555
C33 C25 1_555 1_555
H26 C33 1_555 1_555
Zn6 N4 1_555 1_555
C27 C33 1_555 1_555
C30 C32 1_555 1_555
O5 C20 1_555 1_555
O6 C23 1_555 1_555
O7 C20 1_555 1_555
O8 C23 1_555 1_555
H16 C19 1_555 1_555
C20 C22 1_555 1_555
C22 C19 1_555 1_555
C23 C21 1_555 1_555
Zn2 O5 1_555 1_555
N3 Zn2 1_555 1_555
C24 C29 1_555 1_555
C26 N3 1_555 1_555
H18 C26 1_555 1_555
C28 H19 1_555 1_555
H20 C28 1_555 1_555
C29 C26 1_555 1_555
H21 C29 1_555 1_555
C31 C28 1_555 1_555
H24 C31 1_555 1_555
C34 C24 1_555 1_555
H27 C34 1_555 1_555
C35 N3 1_555 1_555
H28 C35 1_555 1_555
C36 C24 1_555 1_555
H29 C36 1_555 1_555
H30 C36 1_555 1_555
Zn4 O8 1_555 1_555
O9 Zn2 1_555 1_555
N6 Zn2 1_555 1_555
C21 C22 1_555 1_555
C28 C36 1_555 1_555
C34 C35 1_555 1_555
O6_2 C23_2 1_555 1_555
O10 C23_2 1_555 1_555
C23_2 C21_2 1_555 1_555
C27_2 C31_2 1_555 1_555
C28_2 H19_2 1_555 1_555
H20_2 C28_2 1_555 1_555
C31_2 C28_2 1_555 1_555
H23_2 C31_2 1_555 1_555
H24_2 C31_2 1_555 1_555
C32_2 C27_2 1_555 1_555
H25_2 C32_2 1_555 1_555
C34_2 C24_2 1_555 1_555
H27_2 C34_2 1_555 1_555
H28_2 C35_2 1_555 1_555
C36_2 C24_2 1_555 1_555
H29_2 C36_2 1_555 1_555
H30_2 C36_2 1_555 1_555
C28_2 C36_2 1_555 1_555
C34_2 C35_2 1_555 1_555
O5_2 C20_2 1_555 1_555
O7_2 C20_2 1_555 1_555
C20_2 C22_2 1_555 1_555
Zn6 O5_2 1_555 1_555
N3_2 Zn6 1_555 1_555
N6 C25_2 1_555 1_555
C25_2 H17_2 1_555 1_555
C26_2 N3_2 1_555 1_555
H18_2 C26_2 1_555 1_555
C29_2 C26_2 1_555 1_555
H21_2 C29_2 1_555 1_555
C30_2 N6 1_555 1_555
H22_2 C30_2 1_555 1_555
C33_2 C25_2 1_555 1_555
H26_2 C33_2 1_555 1_555
Zn4 O1_2 1_555 1_555
O1_2 C2_2 1_555 1_555
O3_2 C2_2 1_555 1_555
N1_2 Zn4 1_555 1_555
N5 C4_2 1_555 1_555
C2_2 C7_2 1_555 1_555
C4_2 H2_2 1_555 1_555
C6_2 N1_2 1_555 1_555
H3_2 C6_2 1_555 1_555
C11_2 C6_2 1_555 1_555
H6_2 C11_2 1_555 1_555
C12_2 N5 1_555 1_555
H7_2 C12_2 1_555 1_555
C15_2 C4_2 1_555 1_555
H11_2 C15_2 1_555 1_555
O2_2 C9_2 1_555 1_555
O9 C9_2 1_555 1_555
C8_2 C13_2 1_555 1_555
C9_2 C5_2 1_555 1_555
C10_2 H4_2 1_555 1_555
H5_2 C10_2 1_555 1_555
C13_2 C10_2 1_555 1_555
H8_2 C13_2 1_555 1_555
H9_2 C13_2 1_555 1_555
C14_2 C8_2 1_555 1_555
H10_2 C14_2 1_555 1_555
C16_2 C3_2 1_555 1_555
H12_2 C16_2 1_555 1_555
H13_2 C17_2 1_555 1_555
C18_2 C3_2 1_555 1_555
H14_2 C18_2 1_555 1_555
H15_2 C18_2 1_555 1_555
C10_2 C18_2 1_555 1_555
C16_2 C17_2 1_555 1_555
H16_2 C19_2 1_555 1_555
C1_2 H1_2 1_555 1_555

#END
