
###############################################################################
#
# This file contains modified crystal structure data generated from the
# MOF subset of the Cambridge Structural Database (CSD) v543 
# hosted by the Cambridge Crystallographic Data Centre (CCDC).
#
# This work is licensed under the Creative Commons
# Attribution-NonCommercial-ShareAlike 4.0 International License.
# To view a copy of this license, visit
# http://creativecommons.org/licenses/by-nc-sa/4.0/
# or send a letter to
# Creative Commons, PO Box 1866, Mountain View, CA 94042, USA.
#
# CIF created using the CSD Python API on 29 September 2022
# The structure has been converted into the P1 space group
# The structure has a 3D framework
# The original CSD entry LUNGEJ02 is in the monoclinic crystal system
# The framework has been calculated to contain at least 10.0% void space
# The void calculation uses a probe of radius 1.32A, grid spacing 0.4
#
###############################################################################

data_LUNGEJ02
_chemical_formula_moiety         '(C72 H60 N8 O16 Zn4)n'
_symmetry_cell_setting           triclinic
_symmetry_space_group_name_H-M   'P 1'
_symmetry_Int_Tables_number      1
_space_group_name_Hall           'P 1'
loop_
_symmetry_equiv_pos_site_id
_symmetry_equiv_pos_as_xyz
1 x,y,z
_cell_length_a                   10.5868(5)
_cell_length_b                   16.5965(7)
_cell_length_c                   12.3099(5)
_cell_angle_alpha                90
_cell_angle_beta                 109.2795(13)
_cell_angle_gamma                90
_cell_volume                     2041.6
loop_
_atom_site_label
_atom_site_type_symbol
_atom_site_fract_x
_atom_site_fract_y
_atom_site_fract_z
N2 N 0.28062(11) 0.66091(7) 0.33680(9)
C7 C 0.04469(14) 0.27325(8) 0.58037(12)
H3 H 0.0694 0.2587 0.6593
C8 C 0.13405(13) 0.31618(8) 0.54113(12)
C9 C 0.09150(14) 0.33471(9) 0.42429(12)
H4 H 0.1491 0.3632 0.3928
C11 C 0.26989(14) 0.34049(9) 0.62292(12)
H6 H 0.3337 0.2959 0.6279
H7 H 0.2631 0.3482 0.7006
C12 C 0.23849(15) 0.49213(9) 0.58737(12)
H8 H 0.1437 0.4755 0.5673
H9 H 0.2665 0.5162 0.6653
C13 C 0.17168(13) 0.61375(8) 0.31415(11)
H10 H 0.1046 0.6173 0.2406
C14 C 0.15384(14) 0.56032(8) 0.39398(12)
H11 H 0.0754 0.5281 0.3751
C15 C 0.25125(14) 0.55380(8) 0.50230(11)
C16 C 0.36350(14) 0.60321(8) 0.52519(12)
H12 H 0.4322 0.6008 0.5979
C17 C 0.37451(13) 0.65575(8) 0.44172(12)
H13 H 0.4511 0.6895 0.4589
C18 C 0.32579(14) 0.41747(8) 0.58792(12)
H14 H 0.3322 0.4101 0.5101
H15 H 0.4173 0.4269 0.6420
Zn4 Zn 0.30209(2) 0.73699(2) 0.21547(2)
Zn1 Zn 0.69791(2) 0.23699(2) 0.28453(2)
O1 O 0.59610(9) 0.17944(5) 0.37165(8)
O2 O 0.75851(9) 0.08879(6) 0.39849(8)
O3 O 0.56820(9) 0.17488(5) 0.70306(8)
O4 O 0.73303(9) 0.15969(6) 0.63101(8)
N1 N 0.87942(11) 0.27094(6) 0.39284(10)
C1 C 0.55191(12) 0.07009(7) 0.56270(10)
C2 C 0.57430(12) 0.05433(7) 0.45863(10)
C4 C 0.62194(13) 0.14001(7) 0.63599(10)
C5 C 0.65150(13) 0.11096(7) 0.40794(10)
C6 C 0.92031(14) 0.25159(8) 0.50544(12)
H2 H 0.8615 0.2220 0.5344
C10 C 0.96596(14) 0.31172(8) 0.35422(12)
H5 H 0.9392 0.3253 0.2749
C21 C 0.47699(13) 0.01566(7) 0.60267(11)
H16 H 0.4607 0.0264 0.6727
Zn6 Zn 0.69791(2) 0.26301(2) 0.78453(2)
O10 O 0.56820(9) 0.32512(5) 0.20306(8)
N5 N 0.71938(11) 0.16091(7) 0.16320(9)
C3 C 0.52301(13) 0.98434(7) 0.39733(11)
H1 H 0.5393 0.9736 0.3273
O5 O 0.40390(9) 0.82056(5) 0.62835(8)
O6 O 0.24149(9) 0.91121(6) 0.60151(8)
O7 O 0.43180(9) 0.82512(5) 0.29694(8)
O8 O 0.26697(9) 0.84031(6) 0.36899(8)
C19 C 0.44809(12) 0.92991(7) 0.43730(10)
C20 C 0.42570(12) 0.94567(7) 0.54137(10)
C22 C 0.37806(13) 0.85999(7) 0.36401(10)
C23 C 0.34850(13) 0.88904(7) 0.59206(10)
Zn2 Zn 0.30209(2) 0.76301(2) 0.71547(2)
N3 N 0.12058(11) 0.72906(6) 0.60716(10)
C24 C 0.07969(14) 0.74841(8) 0.49456(12)
H17 H 0.1385 0.7780 0.4656
C28 C 0.03404(14) 0.68828(8) 0.64578(12)
H20 H 0.0608 0.6747 0.7251
O9 O 0.43180(9) 0.67488(5) 0.79694(8)
N6 N 0.28062(11) 0.83909(7) 0.83680(9)
N4 N 0.71938(11) 0.33909(7) 0.66320(9)
C25 C 0.95531(14) 0.72675(8) 0.41963(12)
H18 H 0.9306 0.7413 0.3407
C26 C 0.86595(13) 0.68382(8) 0.45887(12)
C27 C 0.90850(14) 0.66529(9) 0.57571(12)
H19 H 0.8509 0.6368 0.6072
C29 C 0.73011(14) 0.65951(9) 0.37708(12)
H21 H 0.6663 0.7041 0.3721
H22 H 0.7369 0.6518 0.2994
C30 C 0.76151(15) 0.50787(9) 0.41263(12)
H23 H 0.8563 0.5245 0.4327
H24 H 0.7335 0.4838 0.3347
C31 C 0.82832(13) 0.38625(8) 0.68585(11)
H25 H 0.8954 0.3827 0.7594
C32 C 0.84616(14) 0.43968(8) 0.60602(12)
H26 H 0.9246 0.4719 0.6249
C33 C 0.74875(14) 0.44620(8) 0.49770(11)
C34 C 0.63650(14) 0.39679(8) 0.47481(12)
H27 H 0.5678 0.3992 0.4021
C35 C 0.62549(13) 0.34425(8) 0.55828(12)
H28 H 0.5489 0.3105 0.5411
C36 C 0.67421(14) 0.58253(8) 0.41208(12)
H29 H 0.6678 0.5899 0.4899
H30 H 0.5827 0.5731 0.3580
C31_2 C 0.17168(13) 0.88625(8) 0.81415(11)
H25_2 H 0.1046 0.8827 0.7406
C32_2 C 0.15384(14) 0.93968(8) 0.89398(12)
H26_2 H 0.0754 0.9719 0.8751
C35_2 C 0.37451(13) 0.84425(8) 0.94172(12)
H28_2 H 0.4511 0.8105 0.9589
O1_2 O 0.40390(9) 0.67944(5) 0.12835(8)
O2_2 O 0.24149(9) 0.58879(6) 0.10151(8)
N1_2 N 0.12058(11) 0.77094(6) 0.10716(10)
C2_2 C 0.42570(12) 0.55433(7) 0.04137(10)
C3_2 C 0.47699(13) 0.48434(7) 0.10267(11)
H1_2 H 0.4607 0.4736 0.1727
C5_2 C 0.34850(13) 0.61096(7) 0.09206(10)
C10_2 C 0.03404(14) 0.81172(8) 0.14578(12)
H5_2 H 0.0608 0.8253 0.2251
O8_2 O 0.73303(9) 0.34031(6) 0.13101(8)
C19_2 C 0.55191(12) 0.42991(7) 0.06270(10)
C22_2 C 0.62194(13) 0.35999(7) 0.13599(10)
C24_2 C 0.92031(14) 0.24841(8) 0.00544(12)
H17_2 H 0.8615 0.2780 0.0344
O4_2 O 0.26697(9) 0.65969(6) 0.86899(8)
C1_2 C 0.44809(12) 0.57009(7) 0.93730(10)
C4_2 C 0.37806(13) 0.64001(7) 0.86401(10)
C6_2 C 0.07969(14) 0.75159(8) 0.99456(12)
H2_2 H 0.1385 0.7220 0.9656
O5_2 O 0.59610(9) 0.32056(5) 0.87165(8)
O6_2 O 0.75851(9) 0.41121(6) 0.89849(8)
C20_2 C 0.57430(12) 0.44567(7) 0.95863(10)
C21_2 C 0.52301(13) 0.51566(7) 0.89733(11)
H16_2 H 0.5393 0.5264 0.8273
C23_2 C 0.65150(13) 0.38904(7) 0.90794(10)
N3_2 N 0.87942(11) 0.22906(6) 0.89284(10)
C28_2 C 0.96596(14) 0.18828(8) 0.85422(12)
H20_2 H 0.9392 0.1747 0.7749
C13_2 C 0.82832(13) 0.11375(8) 0.18585(11)
H10_2 H 0.8954 0.1173 0.2594
C14_2 C 0.84616(14) 0.06032(8) 0.10602(12)
H11_2 H 0.9246 0.0281 0.1249
C17_2 C 0.62549(13) 0.15575(8) 0.05828(12)
H13_2 H 0.5489 0.1895 0.0411
C25_2 C 0.04469(14) 0.22675(8) 0.08037(12)
H18_2 H 0.0694 0.2413 0.1593
C26_2 C 0.13405(13) 0.18382(8) 0.04113(12)
C29_2 C 0.26989(14) 0.15951(9) 0.12292(12)
H21_2 H 0.3337 0.2041 0.1279
H22_2 H 0.2631 0.1518 0.2006
C30_2 C 0.23849(15) 0.00787(9) 0.08737(12)
H23_2 H 0.1437 0.0245 0.0673
C36_2 C 0.32579(14) 0.08253(8) 0.08792(12)
H29_2 H 0.3322 0.0899 0.0101
H30_2 H 0.4173 0.0731 0.1420
C27_2 C 0.09150(14) 0.16529(9) 0.92429(12)
H19_2 H 0.1491 0.1368 0.8928
H24_2 H 0.2665 0.9838 0.1653
C33_2 C 0.25125(14) 0.94620(8) 0.00230(11)
C34_2 C 0.36350(14) 0.89679(8) 0.02519(12)
H27_2 H 0.4322 0.8992 0.0979
H9_2 H 0.7335 0.0162 0.8347
C15_2 C 0.74875(14) 0.05380(8) 0.99770(11)
C16_2 C 0.63650(14) 0.10321(8) 0.97481(12)
H12_2 H 0.5678 0.1008 0.9021
C9_2 C 0.90850(14) 0.83471(9) 0.07571(12)
H4_2 H 0.8509 0.8632 0.1072
C7_2 C 0.95531(14) 0.77325(8) 0.91963(12)
H3_2 H 0.9306 0.7587 0.8407
C8_2 C 0.86595(13) 0.81618(8) 0.95887(12)
C11_2 C 0.73011(14) 0.84049(9) 0.87708(12)
H6_2 H 0.6663 0.7959 0.8721
H7_2 H 0.7369 0.8482 0.7994
C12_2 C 0.76151(15) 0.99213(9) 0.91263(12)
H8_2 H 0.8563 0.9755 0.9327
C18_2 C 0.67421(14) 0.91747(8) 0.91208(12)
H14_2 H 0.6678 0.9101 0.9899
H15_2 H 0.5827 0.9269 0.8580
loop_
_geom_bond_atom_site_label_1
_geom_bond_atom_site_label_2
_geom_bond_site_symmetry_1
_geom_bond_site_symmetry_2
N2 C13 1_555 1_555
H3 C7 1_555 1_555
C8 C7 1_555 1_555
C9 C8 1_555 1_555
H4 C9 1_555 1_555
C11 C8 1_555 1_555
H6 C11 1_555 1_555
H7 C11 1_555 1_555
C12 H8 1_555 1_555
H9 C12 1_555 1_555
C13 H10 1_555 1_555
C14 C13 1_555 1_555
H11 C14 1_555 1_555
C15 C12 1_555 1_555
C16 C15 1_555 1_555
H12 C16 1_555 1_555
C17 N2 1_555 1_555
H13 C17 1_555 1_555
C18 C11 1_555 1_555
H14 C18 1_555 1_555
H15 C18 1_555 1_555
Zn4 N2 1_555 1_555
C12 C18 1_555 1_555
C14 C15 1_555 1_555
C16 C17 1_555 1_555
Zn1 O1 1_555 1_555
O1 C5 1_555 1_555
O2 C5 1_555 1_555
O3 C4 1_555 1_555
O4 C4 1_555 1_555
N1 Zn1 1_555 1_555
C1 C2 1_555 1_555
C4 C1 1_555 1_555
C5 C2 1_555 1_555
C6 N1 1_555 1_555
H2 C6 1_555 1_555
C10 N1 1_555 1_555
H5 C10 1_555 1_555
C21 C1 1_555 1_555
H16 C21 1_555 1_555
Zn6 O3 1_555 1_555
O10 Zn1 1_555 1_555
N5 Zn1 1_555 1_555
C3 H1 1_555 1_555
O5 C23 1_555 1_555
O6 C23 1_555 1_555
O7 C22 1_555 1_555
O8 C22 1_555 1_555
C19 C3 1_555 1_555
C20 C19 1_555 1_555
C22 C19 1_555 1_555
C23 C20 1_555 1_555
Zn2 O5 1_555 1_555
N3 Zn2 1_555 1_555
C24 N3 1_555 1_555
H17 C24 1_555 1_555
C28 N3 1_555 1_555
H20 C28 1_555 1_555
Zn4 O7 1_555 1_555
O9 Zn2 1_555 1_555
N6 Zn2 1_555 1_555
N4 C31 1_555 1_555
H18 C25 1_555 1_555
C26 C25 1_555 1_555
C27 C26 1_555 1_555
H19 C27 1_555 1_555
C29 C26 1_555 1_555
H21 C29 1_555 1_555
H22 C29 1_555 1_555
C30 H23 1_555 1_555
H24 C30 1_555 1_555
C31 H25 1_555 1_555
C32 C31 1_555 1_555
H26 C32 1_555 1_555
C33 C30 1_555 1_555
C34 C33 1_555 1_555
H27 C34 1_555 1_555
C35 N4 1_555 1_555
H28 C35 1_555 1_555
C36 C29 1_555 1_555
H29 C36 1_555 1_555
H30 C36 1_555 1_555
Zn6 N4 1_555 1_555
C30 C36 1_555 1_555
C32 C33 1_555 1_555
C34 C35 1_555 1_555
N6 C31_2 1_555 1_555
C31_2 H25_2 1_555 1_555
C32_2 C31_2 1_555 1_555
H26_2 C32_2 1_555 1_555
C35_2 N6 1_555 1_555
H28_2 C35_2 1_555 1_555
Zn4 O1_2 1_555 1_555
O1_2 C5_2 1_555 1_555
O2_2 C5_2 1_555 1_555
N1_2 Zn4 1_555 1_555
C2_2 C3_2 1_555 1_555
C3_2 H1_2 1_555 1_555
C5_2 C2_2 1_555 1_555
C10_2 N1_2 1_555 1_555
H5_2 C10_2 1_555 1_555
O10 C22_2 1_555 1_555
O8_2 C22_2 1_555 1_555
C19_2 C3_2 1_555 1_555
C22_2 C19_2 1_555 1_555
H17_2 C24_2 1_555 1_555
O9 C4_2 1_555 1_555
O4_2 C4_2 1_555 1_555
C4_2 C1_2 1_555 1_555
H2_2 C6_2 1_555 1_555
O5_2 C23_2 1_555 1_555
O6_2 C23_2 1_555 1_555
C21_2 C1_2 1_555 1_555
H16_2 C21_2 1_555 1_555
C23_2 C20_2 1_555 1_555
Zn6 O5_2 1_555 1_555
N3_2 Zn6 1_555 1_555
C28_2 N3_2 1_555 1_555
H20_2 C28_2 1_555 1_555
C20_2 C21_2 1_555 1_555
N5 C13_2 1_555 1_555
C13_2 H10_2 1_555 1_555
C14_2 C13_2 1_555 1_555
H11_2 C14_2 1_555 1_555
C17_2 N5 1_555 1_555
H13_2 C17_2 1_555 1_555
H18_2 C25_2 1_555 1_555
C26_2 C25_2 1_555 1_555
C29_2 C26_2 1_555 1_555
H21_2 C29_2 1_555 1_555
H22_2 C29_2 1_555 1_555
C30_2 H23_2 1_555 1_555
C36_2 C29_2 1_555 1_555
H29_2 C36_2 1_555 1_555
H30_2 C36_2 1_555 1_555
C30_2 C36_2 1_555 1_555
H19_2 C27_2 1_555 1_555
C34_2 C33_2 1_555 1_555
H27_2 C34_2 1_555 1_555
C16_2 C15_2 1_555 1_555
H12_2 C16_2 1_555 1_555
H4_2 C9_2 1_555 1_555
H3_2 C7_2 1_555 1_555
C8_2 C7_2 1_555 1_555
C11_2 C8_2 1_555 1_555
H6_2 C11_2 1_555 1_555
H7_2 C11_2 1_555 1_555
C12_2 H8_2 1_555 1_555
C18_2 C11_2 1_555 1_555
H14_2 C18_2 1_555 1_555
H15_2 C18_2 1_555 1_555
C12_2 C18_2 1_555 1_555

#END
