
###############################################################################
#
# This file contains modified crystal structure data generated from the
# MOF subset of the Cambridge Structural Database (CSD) v543 
# hosted by the Cambridge Crystallographic Data Centre (CCDC).
#
# This work is licensed under the Creative Commons
# Attribution-NonCommercial-ShareAlike 4.0 International License.
# To view a copy of this license, visit
# http://creativecommons.org/licenses/by-nc-sa/4.0/
# or send a letter to
# Creative Commons, PO Box 1866, Mountain View, CA 94042, USA.
#
# CIF created using the CSD Python API on 29 September 2022
# The structure has been converted into the P1 space group
# The structure has a 3D framework
# The original CSD entry LUSHUD is in the monoclinic crystal system
# The framework has been calculated to contain at least 10.0% void space
# The void calculation uses a probe of radius 1.32A, grid spacing 0.4
#
###############################################################################

data_LUSHUD
_chemical_formula_moiety         '(C104 H64 Mn8 N8 O36)n'
_symmetry_cell_setting           triclinic
_symmetry_space_group_name_H-M   'P 1'
_symmetry_Int_Tables_number      1
_space_group_name_Hall           'P 1'
loop_
_symmetry_equiv_pos_site_id
_symmetry_equiv_pos_as_xyz
1 x,y,z
_cell_length_a                   17.627(3)
_cell_length_b                   18.138(3)
_cell_length_c                   12.564(2)
_cell_angle_alpha                90
_cell_angle_beta                 125.495(2)
_cell_angle_gamma                90
_cell_volume                     3270.46
loop_
_atom_site_label
_atom_site_type_symbol
_atom_site_fract_x
_atom_site_fract_y
_atom_site_fract_z
C12 C 0.4970(3) 0.3965(3) 0.0084(6)
H7 H 0.4652 0.3914 0.0466
Mn2 Mn 0.7500 0.2500 0.0000
H9 H 0.4613 0.1159 0.0048
C17 C 0.4091(3) 0.0196(2) 0.0158(4)
H10 H 0.4590 0.0081 0.1006
C22 C 0.4083(3) 0.5931(2) 0.1009(4)
H13 H 0.3747 0.5896 0.1366
C23 C 0.4367(3) 0.5298(2) 0.0727(4)
H14 H 0.4232 0.4841 0.0913
C24 C 0.4854(2) 0.5335(2) 0.0166(4)
C26 C 0.4743(3) 0.6658(2) 0.0222(5)
H16 H 0.4868 0.7122 0.0045
N2 N 0.4287(2) 0.65932(16) 0.0773(3)
O8 O 0.76504(18) 0.30744(14) 0.1626(3)
O14 O 0.72906(18) 0.14635(13) 0.0631(3)
O15 O 0.40199(17) 0.71990(13) 0.1070(3)
O17 O 0.90199(17) 0.21990(13) 0.1070(3)
Mn4 Mn 0.5000 0.80390(4) 0.2500
Mn7 Mn 0.2500 0.7500 0.0000
C1 C 0.6612(3) 0.1716(2) 0.7316(4)
C2 C 0.6657(2) 0.10465(19) 0.6661(4)
C3 C 0.5902(3) 0.0849(2) 0.5411(4)
H1 H 0.5387 0.1159 0.4952
C4 C 0.5909(3) 0.0196(2) 0.4842(4)
H2 H 0.5410 0.0081 0.3994
C7 C 0.7420(3) 0.0579(2) 0.7307(4)
H4 H 0.7943 0.0714 0.8124
C9 C 0.5917(3) 0.4069(2) 0.8991(4)
H5 H 0.6253 0.4104 0.8634
C10 C 0.5633(3) 0.4702(2) 0.9273(4)
H6 H 0.5768 0.5159 0.9087
C11 C 0.5146(2) 0.4665(2) 0.9834(4)
C13 C 0.5257(3) 0.3342(2) 0.9778(5)
H8 H 0.5132 0.2878 0.9955
N1 N 0.5713(2) 0.34068(16) 0.9227(3)
O1 O 0.58338(18) 0.20340(14) 0.6770(3)
O2 O 0.73496(18) 0.19256(14) 0.8374(3)
O5 O 0.59801(17) 0.28010(13) 0.8930(3)
Mn1 Mn 0.5000 0.19610(4) 0.7500
Mn2_2 Mn 0.7500 0.2500 1.0000
C14 C 0.3388(3) 0.1716(2) 0.7684(4)
C15 C 0.3343(2) 0.10465(19) 0.8339(4)
C16 C 0.4098(3) 0.0849(2) 0.9589(4)
C20 C 0.2580(3) 0.0579(2) 0.7693(4)
H12 H 0.2057 0.0714 0.6876
C25 C 0.5030(3) 0.6035(3) 0.9916(6)
H15 H 0.5348 0.6086 0.9534
O6 O 0.41662(18) 0.20340(14) 0.8230(3)
O7 O 0.26504(18) 0.19256(14) 0.6626(3)
O10 O 0.40979(19) 0.11427(14) 0.6187(3)
O11 O 0.59021(19) 0.11427(14) 0.8813(3)
O13 O 0.77094(18) 0.35365(13) 0.9369(3)
O16 O 0.40199(17) 0.28010(13) 0.6070(3)
Mn7_2 Mn 0.2500 0.7500 1.0000
Mn8 Mn 0.2500 0.2500 0.5000
C21 C 0.3387(2) 0.8977(2) 0.0063(4)
O9 O 0.40979(19) 0.88573(14) 0.1187(3)
C5 C 0.6658(3) 0.97130(19) 0.5533(4)
C6 C 0.7418(3) 0.9919(2) 0.6766(4)
H3 H 0.7932 0.9608 0.7231
C8 C 0.6613(2) 0.8977(2) 0.4937(4)
O3 O 0.59021(19) 0.88573(14) 0.3813(3)
O4 O 0.72906(18) 0.85365(13) 0.5631(3)
C18 C 0.3342(3) 0.97130(19) 0.9467(4)
C19 C 0.2582(3) 0.9919(2) 0.8234(4)
H11 H 0.2068 0.9608 0.7769
O12 O 0.27094(18) 0.85365(13) 0.9369(3)
Mn6 Mn 0.7500 0.7500 0.5000
C9_2 C 0.4083(3) 0.4069(2) 0.6009(4)
H5_2 H 0.3747 0.4104 0.6366
C10_2 C 0.4367(3) 0.4702(2) 0.5727(4)
H6_2 H 0.4232 0.5159 0.5913
C11_2 C 0.4854(2) 0.4665(2) 0.5166(4)
C12_2 C 0.5030(3) 0.3965(3) 0.4916(6)
H7_2 H 0.5348 0.3914 0.4534
C13_2 C 0.4743(3) 0.3342(2) 0.5222(5)
H8_2 H 0.4868 0.2878 0.5045
N1_2 N 0.4287(2) 0.34068(16) 0.5773(3)
C22_2 C 0.5917(3) 0.5931(2) 0.3991(4)
H13_2 H 0.6253 0.5896 0.3634
C23_2 C 0.5633(3) 0.5298(2) 0.4273(4)
H14_2 H 0.5768 0.4841 0.4087
C24_2 C 0.5146(2) 0.5335(2) 0.4834(4)
C25_2 C 0.4970(3) 0.6035(3) 0.5084(6)
H15_2 H 0.4652 0.6086 0.5466
C26_2 C 0.5257(3) 0.6658(2) 0.4778(5)
H16_2 H 0.5132 0.7122 0.4955
N2_2 N 0.5713(2) 0.65932(16) 0.4227(3)
O8_2 O 0.23496(18) 0.30744(14) 0.3374(3)
O13_2 O 0.22906(18) 0.35365(13) 0.5631(3)
O14_2 O 0.27094(18) 0.14635(13) 0.4369(3)
O15_2 O 0.59801(17) 0.71990(13) 0.3930(3)
O17_2 O 0.09801(17) 0.21990(13) 0.3930(3)
Mn4_2 Mn 0.0000 0.30390(4) 0.2500
H6_3 H 0.0768 0.0159 0.9087
C25_3 C 0.0030(3) 0.1035(3) 0.9916(6)
H15_3 H 0.0348 0.1086 0.9534
O8_3 O 0.26504(18) 0.80744(14) 0.1626(3)
O14_3 O 0.22906(18) 0.64635(13) 0.0631(3)
C1_2 C 0.1612(3) 0.6716(2) 0.7316(4)
C2_2 C 0.1657(2) 0.60465(19) 0.6661(4)
C3_2 C 0.0902(3) 0.5849(2) 0.5411(4)
H1_2 H 0.0387 0.6159 0.4952
C4_2 C 0.0909(3) 0.5196(2) 0.4842(4)
H2_2 H 0.0410 0.5081 0.3994
C5_2 C 0.1658(3) 0.47130(19) 0.5533(4)
C6_2 C 0.2418(3) 0.4919(2) 0.6766(4)
H3_2 H 0.2932 0.4608 0.7231
C7_2 C 0.2420(3) 0.5579(2) 0.7307(4)
H4_2 H 0.2943 0.5714 0.8124
C8_2 C 0.1613(2) 0.3977(2) 0.4937(4)
C9_3 C 0.0917(3) 0.9069(2) 0.8991(4)
H5_3 H 0.1253 0.9104 0.8634
C10_3 C 0.0633(3) 0.9702(2) 0.9273(4)
C11_3 C 0.0146(2) 0.9665(2) 0.9834(4)
C13_3 C 0.0257(3) 0.8342(2) 0.9778(5)
H8_3 H 0.0132 0.7878 0.9955
N1_3 N 0.0713(2) 0.84068(16) 0.9227(3)
O1_2 O 0.08338(18) 0.70340(14) 0.6770(3)
O2_2 O 0.23496(18) 0.69256(14) 0.8374(3)
O3_2 O 0.09021(19) 0.38573(14) 0.3813(3)
O5_2 O 0.09801(17) 0.78010(13) 0.8930(3)
Mn1_2 Mn 0.0000 0.69610(4) 0.7500
O11_2 O 0.09021(19) 0.61427(14) 0.8813(3)
C22_3 C 0.9083(3) 0.0931(2) 0.1009(4)
H13_3 H 0.8747 0.0896 0.1366
C23_3 C 0.9367(3) 0.0298(2) 0.0727(4)
C24_3 C 0.9854(2) 0.0335(2) 0.0166(4)
C26_3 C 0.9743(3) 0.1658(2) 0.0222(5)
H16_3 H 0.9868 0.2122 0.0045
N2_3 N 0.9287(2) 0.15932(16) 0.0773(3)
Mn4_3 Mn 1.0000 0.30390(4) 0.2500
C12_3 C 0.9970(3) 0.8965(3) 0.0084(6)
H7_3 H 0.9652 0.8914 0.0466
H9_2 H 0.9613 0.6159 0.0048
C17_2 C 0.9091(3) 0.5196(2) 0.0158(4)
H10_2 H 0.9590 0.5081 0.1006
C21_2 C 0.8387(2) 0.3977(2) 0.0063(4)
H14_3 H 0.9232 0.9841 0.0913
O9_2 O 0.90979(19) 0.38573(14) 0.1187(3)
Mn1_3 Mn 1.0000 0.69610(4) 0.7500
C14_2 C 0.8388(3) 0.6716(2) 0.7684(4)
C15_2 C 0.8343(2) 0.60465(19) 0.8339(4)
C16_2 C 0.9098(3) 0.5849(2) 0.9589(4)
C18_2 C 0.8342(3) 0.47130(19) 0.9467(4)
C19_2 C 0.7582(3) 0.4919(2) 0.8234(4)
H11_2 H 0.7068 0.4608 0.7769
C20_2 C 0.7580(3) 0.5579(2) 0.7693(4)
H12_2 H 0.7057 0.5714 0.6876
O6_2 O 0.91662(18) 0.70340(14) 0.8230(3)
O7_2 O 0.76504(18) 0.69256(14) 0.6626(3)
O10_2 O 0.90979(19) 0.61427(14) 0.6187(3)
O16_2 O 0.90199(17) 0.78010(13) 0.6070(3)
C22_4 C 0.0917(3) 0.0931(2) 0.3991(4)
H13_4 H 0.1253 0.0896 0.3634
C23_4 C 0.0633(3) 0.0298(2) 0.4273(4)
C24_4 C 0.0146(2) 0.0335(2) 0.4834(4)
C26_4 C 0.0257(3) 0.1658(2) 0.4778(5)
H16_4 H 0.0132 0.2122 0.4955
N2_4 N 0.0713(2) 0.15932(16) 0.4227(3)
C12_4 C 0.0030(3) 0.8965(3) 0.4916(6)
H7_4 H 0.0348 0.8914 0.4534
H14_4 H 0.0768 0.9841 0.4087
H6_4 H 0.9232 0.0159 0.5913
C25_4 C 0.9970(3) 0.1035(3) 0.5084(6)
H15_4 H 0.9652 0.1086 0.5466
C9_4 C 0.9083(3) 0.9069(2) 0.6009(4)
H5_4 H 0.8747 0.9104 0.6366
C10_4 C 0.9367(3) 0.9702(2) 0.5727(4)
C11_4 C 0.9854(2) 0.9665(2) 0.5166(4)
C13_4 C 0.9743(3) 0.8342(2) 0.5222(5)
H8_4 H 0.9868 0.7878 0.5045
N1_4 N 0.9287(2) 0.84068(16) 0.5773(3)
O8_4 O 0.73496(18) 0.80744(14) 0.3374(3)
O14_4 O 0.77094(18) 0.64635(13) 0.4369(3)
C5_3 C 0.3342(3) 0.02870(19) 0.4467(4)
C6_3 C 0.2582(3) 0.0081(2) 0.3234(4)
H3_3 H 0.2068 0.0392 0.2769
C8_3 C 0.3387(2) 0.1023(2) 0.5063(4)
C18_3 C 0.6658(3) 0.02870(19) 0.0533(4)
C19_3 C 0.7418(3) 0.0081(2) 0.1766(4)
H11_3 H 0.7932 0.0392 0.2231
C21_3 C 0.6613(2) 0.1023(2) 0.9937(4)
C1_3 C 0.3388(3) 0.8284(2) 0.2684(4)
C2_3 C 0.3343(2) 0.89535(19) 0.3339(4)
C3_3 C 0.4098(3) 0.9151(2) 0.4589(4)
H1_3 H 0.4613 0.8841 0.5048
C4_3 C 0.4091(3) 0.9804(2) 0.5158(4)
H2_3 H 0.4590 0.9919 0.6006
C7_3 C 0.2580(3) 0.9421(2) 0.2693(4)
H4_3 H 0.2057 0.9286 0.1876
O1_3 O 0.41662(18) 0.79660(14) 0.3230(3)
C14_3 C 0.6612(3) 0.8284(2) 0.2316(4)
C15_3 C 0.6657(2) 0.89535(19) 0.1661(4)
C16_3 C 0.5902(3) 0.9151(2) 0.0411(4)
C20_3 C 0.7420(3) 0.9421(2) 0.2307(4)
H12_3 H 0.7943 0.9286 0.3124
O6_3 O 0.58338(18) 0.79660(14) 0.1770(3)
H9_3 H 0.5387 0.8841 0.9952
C17_3 C 0.5909(3) 0.9804(2) 0.9842(4)
H10_3 H 0.5410 0.9919 0.8994
C14_4 C 0.1612(3) 0.3284(2) 0.2316(4)
C15_4 C 0.1657(2) 0.39535(19) 0.1661(4)
C16_4 C 0.0902(3) 0.4151(2) 0.0411(4)
C18_4 C 0.1658(3) 0.52870(19) 0.0533(4)
C19_4 C 0.2418(3) 0.5081(2) 0.1766(4)
H11_4 H 0.2932 0.5392 0.2231
C20_4 C 0.2420(3) 0.4421(2) 0.2307(4)
H12_4 H 0.2943 0.4286 0.3124
O6_4 O 0.08338(18) 0.29660(14) 0.1770(3)
H9_4 H 0.0387 0.3841 0.9952
C17_4 C 0.0909(3) 0.4804(2) 0.9842(4)
H10_4 H 0.0410 0.4919 0.8994
C21_4 C 0.1613(2) 0.6023(2) 0.9937(4)
C1_4 C 0.8388(3) 0.3284(2) 0.2684(4)
C2_4 C 0.8343(2) 0.39535(19) 0.3339(4)
C3_4 C 0.9098(3) 0.4151(2) 0.4589(4)
H1_4 H 0.9613 0.3841 0.5048
C4_4 C 0.9091(3) 0.4804(2) 0.5158(4)
H2_4 H 0.9590 0.4919 0.6006
C5_4 C 0.8342(3) 0.52870(19) 0.4467(4)
C6_4 C 0.7582(3) 0.5081(2) 0.3234(4)
H3_4 H 0.7068 0.5392 0.2769
C7_4 C 0.7580(3) 0.4421(2) 0.2693(4)
H4_4 H 0.7057 0.4286 0.1876
C8_4 C 0.8387(2) 0.6023(2) 0.5063(4)
O1_4 O 0.91662(18) 0.29660(14) 0.3230(3)
loop_
_geom_bond_atom_site_label_1
_geom_bond_atom_site_label_2
_geom_bond_site_symmetry_1
_geom_bond_site_symmetry_2
H7 C12 1_555 1_555
H10 C17 1_555 1_555
C22 H13 1_555 1_555
C23 C22 1_555 1_555
H14 C23 1_555 1_555
H16 C26 1_555 1_555
N2 C22 1_555 1_555
O8 Mn2 1_555 1_555
O14 Mn2 1_555 1_555
O15 N2 1_555 1_555
O17 Mn2 1_555 1_555
Mn4 O15 1_555 1_555
Mn7 O15 1_555 1_555
C23 C24 1_555 1_555
C26 N2 1_555 1_555
C1 C2 1_555 1_555
C2 C3 1_555 1_555
C3 H1 1_555 1_555
C4 C3 1_555 1_555
H2 C4 1_555 1_555
C7 C2 1_555 1_555
H4 C7 1_555 1_555
C9 H5 1_555 1_555
C10 C9 1_555 1_555
H6 C10 1_555 1_555
C11 C10 1_555 1_555
H8 C13 1_555 1_555
N1 C9 1_555 1_555
O1 C1 1_555 1_555
O2 C1 1_555 1_555
O5 N1 1_555 1_555
Mn1 O1 1_555 1_555
Mn2_2 O2 1_555 1_555
C14 C15 1_555 1_555
C15 C16 1_555 1_555
C20 C15 1_555 1_555
H12 C20 1_555 1_555
H15 C25 1_555 1_555
O6 Mn1 1_555 1_555
O7 C14 1_555 1_555
O10 Mn1 1_555 1_555
O11 Mn1 1_555 1_555
O13 Mn2_2 1_555 1_555
O16 Mn1 1_555 1_555
Mn8 O7 1_555 1_555
C13 N1 1_555 1_555
O5 Mn1 1_555 1_555
O5 Mn2_2 1_555 1_555
C14 O6 1_555 1_555
O16 Mn8 1_555 1_555
O9 C21 1_555 1_555
Mn4 O9 1_555 1_555
C6 C5 1_555 1_555
H3 C6 1_555 1_555
C8 C5 1_555 1_555
O3 C8 1_555 1_555
O4 C8 1_555 1_555
C19 C18 1_555 1_555
H11 C19 1_555 1_555
Mn4 O3 1_555 1_555
Mn6 O4 1_555 1_555
Mn7_2 O12 1_555 1_555
C9_2 H5_2 1_555 1_555
C10_2 C9_2 1_555 1_555
H6_2 C10_2 1_555 1_555
C11_2 C10_2 1_555 1_555
C12_2 C11_2 1_555 1_555
H7_2 C12_2 1_555 1_555
C13_2 C12_2 1_555 1_555
H8_2 C13_2 1_555 1_555
N1_2 C9_2 1_555 1_555
O16 N1_2 1_555 1_555
C22_2 H13_2 1_555 1_555
C23_2 C22_2 1_555 1_555
H14_2 C23_2 1_555 1_555
C24_2 C11_2 1_555 1_555
C25_2 C24_2 1_555 1_555
H15_2 C25_2 1_555 1_555
C26_2 C25_2 1_555 1_555
H16_2 C26_2 1_555 1_555
N2_2 C22_2 1_555 1_555
O8_2 Mn8 1_555 1_555
O13_2 Mn8 1_555 1_555
O14_2 Mn8 1_555 1_555
O15_2 N2_2 1_555 1_555
O17_2 Mn8 1_555 1_555
Mn4 O15_2 1_555 1_555
Mn6 O15_2 1_555 1_555
C13_2 N1_2 1_555 1_555
C23_2 C24_2 1_555 1_555
C26_2 N2_2 1_555 1_555
H15_3 C25_3 1_555 1_555
O8_3 Mn7 1_555 1_555
O14_3 Mn7 1_555 1_555
C1_2 C2_2 1_555 1_555
C2_2 C3_2 1_555 1_555
C3_2 H1_2 1_555 1_555
C4_2 C3_2 1_555 1_555
H2_2 C4_2 1_555 1_555
C5_2 C4_2 1_555 1_555
C6_2 C5_2 1_555 1_555
H3_2 C6_2 1_555 1_555
C7_2 C2_2 1_555 1_555
H4_2 C7_2 1_555 1_555
C8_2 C5_2 1_555 1_555
C9_3 H5_3 1_555 1_555
C10_3 C9_3 1_555 1_555
C11_3 C10_3 1_555 1_555
H8_3 C13_3 1_555 1_555
N1_3 C9_3 1_555 1_555
O1_2 C1_2 1_555 1_555
O2_2 C1_2 1_555 1_555
O3_2 C8_2 1_555 1_555
O13_2 C8_2 1_555 1_555
O5_2 N1_3 1_555 1_555
Mn1_2 O1_2 1_555 1_555
Mn7_2 O2_2 1_555 1_555
O11_2 Mn1_2 1_555 1_555
Mn4_2 O3_2 1_555 1_555
C6_2 C7_2 1_555 1_555
C13_3 N1_3 1_555 1_555
O5_2 Mn1_2 1_555 1_555
O5_2 Mn7_2 1_555 1_555
C22_3 H13_3 1_555 1_555
C23_3 C22_3 1_555 1_555
H16_3 C26_3 1_555 1_555
N2_3 C22_3 1_555 1_555
O17 N2_3 1_555 1_555
Mn4_3 O17 1_555 1_555
C23_3 C24_3 1_555 1_555
C26_3 N2_3 1_555 1_555
H7_3 C12_3 1_555 1_555
H10_2 C17_2 1_555 1_555
O9_2 C21_2 1_555 1_555
Mn4_3 O9_2 1_555 1_555
C14_2 C15_2 1_555 1_555
C15_2 C16_2 1_555 1_555
C19_2 C18_2 1_555 1_555
H11_2 C19_2 1_555 1_555
C20_2 C15_2 1_555 1_555
H12_2 C20_2 1_555 1_555
O6_2 Mn1_3 1_555 1_555
O7_2 C14_2 1_555 1_555
O10_2 Mn1_3 1_555 1_555
O16_2 Mn1_3 1_555 1_555
Mn6 O7_2 1_555 1_555
C14_2 O6_2 1_555 1_555
C19_2 C20_2 1_555 1_555
O16_2 Mn6 1_555 1_555
C22_4 H13_4 1_555 1_555
C23_4 C22_4 1_555 1_555
H16_4 C26_4 1_555 1_555
N2_4 C22_4 1_555 1_555
O17_2 N2_4 1_555 1_555
Mn4_2 O17_2 1_555 1_555
C23_4 C24_4 1_555 1_555
C26_4 N2_4 1_555 1_555
H7_4 C12_4 1_555 1_555
H15_4 C25_4 1_555 1_555
C9_4 H5_4 1_555 1_555
C10_4 C9_4 1_555 1_555
C11_4 C10_4 1_555 1_555
H8_4 C13_4 1_555 1_555
N1_4 C9_4 1_555 1_555
O16_2 N1_4 1_555 1_555
O8_4 Mn6 1_555 1_555
O14_4 Mn6 1_555 1_555
C13_4 N1_4 1_555 1_555
C6_3 C5_3 1_555 1_555
H3_3 C6_3 1_555 1_555
C8_3 C5_3 1_555 1_555
O10 C8_3 1_555 1_555
O14_2 C8_3 1_555 1_555
C19_3 C18_3 1_555 1_555
H11_3 C19_3 1_555 1_555
O11 C21_3 1_555 1_555
C1_3 C2_3 1_555 1_555
C2_3 C3_3 1_555 1_555
C3_3 H1_3 1_555 1_555
C4_3 C3_3 1_555 1_555
H2_3 C4_3 1_555 1_555
C7_3 C2_3 1_555 1_555
H4_3 C7_3 1_555 1_555
O1_3 C1_3 1_555 1_555
O8_3 C1_3 1_555 1_555
Mn4 O1_3 1_555 1_555
C14_3 C15_3 1_555 1_555
C15_3 C16_3 1_555 1_555
C20_3 C15_3 1_555 1_555
H12_3 C20_3 1_555 1_555
O6_3 Mn4 1_555 1_555
O8_4 C14_3 1_555 1_555
C14_3 O6_3 1_555 1_555
H10_3 C17_3 1_555 1_555
C14_4 C15_4 1_555 1_555
C15_4 C16_4 1_555 1_555
C19_4 C18_4 1_555 1_555
H11_4 C19_4 1_555 1_555
C20_4 C15_4 1_555 1_555
H12_4 C20_4 1_555 1_555
O6_4 Mn4_2 1_555 1_555
O8_2 C14_4 1_555 1_555
C14_4 O6_4 1_555 1_555
C19_4 C20_4 1_555 1_555
H10_4 C17_4 1_555 1_555
O11_2 C21_4 1_555 1_555
C1_4 C2_4 1_555 1_555
C2_4 C3_4 1_555 1_555
C3_4 H1_4 1_555 1_555
C4_4 C3_4 1_555 1_555
H2_4 C4_4 1_555 1_555
C5_4 C4_4 1_555 1_555
C6_4 C5_4 1_555 1_555
H3_4 C6_4 1_555 1_555
C7_4 C2_4 1_555 1_555
H4_4 C7_4 1_555 1_555
C8_4 C5_4 1_555 1_555
O1_4 C1_4 1_555 1_555
O8 C1_4 1_555 1_555
O10_2 C8_4 1_555 1_555
O14_4 C8_4 1_555 1_555
Mn4_3 O1_4 1_555 1_555
C6_4 C7_4 1_555 1_555

#END
