
###############################################################################
#
# This file contains modified crystal structure data generated from the
# MOF subset of the Cambridge Structural Database (CSD) v543 
# hosted by the Cambridge Crystallographic Data Centre (CCDC).
#
# This work is licensed under the Creative Commons
# Attribution-NonCommercial-ShareAlike 4.0 International License.
# To view a copy of this license, visit
# http://creativecommons.org/licenses/by-nc-sa/4.0/
# or send a letter to
# Creative Commons, PO Box 1866, Mountain View, CA 94042, USA.
#
# CIF created using the CSD Python API on 29 September 2022
# The structure has been converted into the P1 space group
# The structure has a 3D framework
# The original CSD entry LUTBUA is in the orthorhombic crystal system
# The framework has been calculated to contain at least 10.0% void space
# The void calculation uses a probe of radius 1.32A, grid spacing 0.4
#
###############################################################################

data_LUTBUA
_chemical_formula_moiety         '(C96 H56 O60 Zn12)n'
_symmetry_cell_setting           triclinic
_symmetry_space_group_name_H-M   'P 1'
_symmetry_Int_Tables_number      1
_space_group_name_Hall           'P 1'
loop_
_symmetry_equiv_pos_site_id
_symmetry_equiv_pos_as_xyz
1 x,y,z
_cell_length_a                   14.5329(13)
_cell_length_b                   11.9383(11)
_cell_length_c                   20.5558(18)
_cell_angle_alpha                90
_cell_angle_beta                 90
_cell_angle_gamma                90
_cell_volume                     3566.39
loop_
_atom_site_label
_atom_site_type_symbol
_atom_site_fract_x
_atom_site_fract_y
_atom_site_fract_z
Zn1 Zn 0.29257(7) 0.72176(7) 0.34574(5)
Zn2 Zn 0.14481(7) 0.78894(7) 0.23696(5)
Zn3 Zn 0.26716(8) 0.59009(8) 0.19019(5)
O1 O 0.3214(6) 0.5634(6) 0.3625(4)
O2 O 0.2880(10) 0.6274(8) 0.4570(6)
C1 C 0.3818(6) 0.2306(7) 0.5049(4)
H1 H 0.3944 0.1605 0.5225
C2 C 0.4018(5) 0.2547(6) 0.4397(4)
C3 C 0.3103(8) 0.5495(8) 0.4226(5)
C4 C 0.3169(7) 0.4152(7) 0.5165(4)
H2 H 0.2891 0.4693 0.5424
C5 C 0.3334(6) 0.4357(7) 0.4500(4)
C6 C 0.3426(6) 0.3144(7) 0.5423(4)
C7 C 0.4583(5) 0.1715(6) 0.4000(4)
C8 C 0.4199(6) 0.0731(7) 0.3797(4)
H3 H 0.3605 0.0544 0.3925
C9 C 0.3770(6) 0.3551(7) 0.4127(4)
H4 H 0.3895 0.3693 0.3691
O3 O 0.6544(6) 0.5830(5) 0.2973(4)
O4 O 0.7005(5) 0.6778(6) 0.3864(3)
C10 C 0.6699(6) 0.5907(6) 0.3593(5)
C11 C 0.6498(6) 0.4013(7) 0.5054(5)
C12 C 0.6497(5) 0.4916(7) 0.3995(4)
C13 C 0.6129(6) 0.3956(6) 0.3719(4)
H5 H 0.6017 0.3929 0.3274
C14 C 0.6689(6) 0.4957(7) 0.4659(4)
H6 H 0.6941 0.5601 0.4841
C15 C 0.6132(6) 0.3059(7) 0.4773(4)
H7 H 0.6024 0.2431 0.5029
C16 C 0.5925(6) 0.3024(6) 0.4111(4)
C17 C 0.5964(6) 0.1298(6) 0.3421(5)
H8 H 0.6552 0.1502 0.3288
C18 C 0.5485(6) 0.1984(6) 0.3828(4)
C19 C 0.5585(6) 0.0292(7) 0.3200(4)
C21 C 0.6712(7) 0.4048(9) 0.5764(5)
C22 C 0.3345(7) 0.2960(8) 0.6147(5)
C23 C 0.4701(6) 0.0005(6) 0.3397(5)
O7 O 0.3513(5) 0.1992(6) 0.6376(4)
O8 O 0.3163(7) 0.3778(6) 0.6512(4)
O9 O 0.7170(6) 0.4849(7) 0.6002(4)
O10 O 0.6432(7) 0.3274(8) 0.6123(4)
O13 O 0.2779(4) 0.7217(4) 0.2493(3)
O14 O 0.3737(6) 0.5011(7) 0.2381(5)
H10 H 0.4319 0.5343 0.2275
H11 H 0.3643 0.5044 0.2843
O15 O 0.0084(5) 0.8205(8) 0.2176(6)
H14 H 0.331(4) 0.759(5) 0.232(3)
Zn5 Zn 0.79257(7) 0.77824(7) 0.34574(5)
Zn7 Zn 0.64481(7) 0.71106(7) 0.23696(5)
Zn8 Zn 0.35519(7) 0.28894(7) 0.73696(5)
Zn9 Zn 0.73284(8) 0.40991(8) 0.69019(5)
Zn11 Zn 0.23284(8) 0.09009(8) 0.69019(5)
O16 O 0.1544(6) 0.9170(5) 0.2973(4)
O17 O 0.2005(5) 0.8222(6) 0.3864(3)
O18 O 0.1032(5) 0.6505(4) 0.2887(3)
O19 O 0.1680(4) 0.5066(5) 0.2374(3)
O20 O 0.1487(5) 0.6992(6) 0.1376(4)
O21 O 0.1837(7) 0.8778(6) 0.1512(4)
O22 O 0.2830(6) 0.5151(7) 0.1002(4)
O23 O 0.3568(7) 0.6726(8) 0.1123(4)
O24 O 0.3971(5) 0.8282(5) 0.3582(4)
O5 O 0.6032(5) 0.8495(4) 0.2887(3)
O6 O 0.6680(4) 0.9934(5) 0.2374(3)
C20 C 0.6151(6) 0.9507(7) 0.2779(4)
C24 C 0.4232(6) 0.8947(6) 0.3156(5)
O11 O 0.4083(6) 0.8858(6) 0.2550(4)
H9 H 0.3830 0.8257 0.2476
Zn10 Zn 0.76716(8) 0.90991(8) 0.19019(5)
O5_2 O 0.3968(5) 0.1505(4) 0.7887(3)
O6_2 O 0.3320(4) 0.0066(5) 0.7374(3)
C20_2 C 0.3849(6) 0.0493(7) 0.7779(4)
C24_2 C 0.5768(6) 0.1053(6) 0.8156(5)
O11_2 O 0.5917(6) 0.1142(6) 0.7550(4)
H9_2 H 0.6170 0.1743 0.7476
O12 O 0.6029(5) 0.1718(5) 0.8582(4)
Zn4 Zn 0.70743(7) 0.27824(7) 0.84574(5)
C1_2 C 0.6182(6) 0.7694(7) 0.0049(4)
H1_2 H 0.6056 0.8395 0.0225
C4_2 C 0.6831(7) 0.5848(7) 0.0165(4)
H2_2 H 0.7109 0.5307 0.0424
C6_2 C 0.6574(6) 0.6856(7) 0.0423(4)
C11_2 C 0.3502(6) 0.5987(7) 0.0054(5)
H7_2 H 0.3976 0.7569 0.0029
C21_2 C 0.3288(7) 0.5952(9) 0.0764(5)
C22_2 C 0.6655(7) 0.7040(8) 0.1147(5)
O7_2 O 0.6487(5) 0.8008(6) 0.1376(4)
O8_2 O 0.6837(7) 0.6222(6) 0.1512(4)
Zn2_2 Zn 0.85519(7) 0.21106(7) 0.73696(5)
O1_2 O 0.6786(6) 0.4366(6) 0.8625(4)
O2_2 O 0.7120(10) 0.3726(8) 0.9570(6)
C2_2 C 0.5982(5) 0.7453(6) 0.9397(4)
C3_2 C 0.6897(8) 0.4505(8) 0.9226(5)
C5_2 C 0.6666(6) 0.5643(7) 0.9500(4)
C7_2 C 0.5417(5) 0.8285(6) 0.9000(4)
C8_2 C 0.5801(6) 0.9269(7) 0.8797(4)
H3_2 H 0.6395 0.9456 0.8925
C9_2 C 0.6230(6) 0.6449(7) 0.9127(4)
H4_2 H 0.6105 0.6307 0.8691
O3_2 O 0.3456(6) 0.4170(5) 0.7973(4)
O4_2 O 0.2995(5) 0.3222(6) 0.8864(3)
C10_2 C 0.3301(6) 0.4093(6) 0.8593(5)
C12_2 C 0.3503(5) 0.5084(7) 0.8995(4)
C13_2 C 0.3871(6) 0.6044(6) 0.8719(4)
H5_2 H 0.3983 0.6071 0.8274
C14_2 C 0.3311(6) 0.5043(7) 0.9659(4)
H6_2 H 0.3059 0.4399 0.9841
C15_2 C 0.3868(6) 0.6941(7) 0.9773(4)
C16_2 C 0.4075(6) 0.6976(6) 0.9111(4)
C17_2 C 0.4036(6) 0.8702(6) 0.8421(5)
H8_2 H 0.3448 0.8498 0.8288
C18_2 C 0.4515(6) 0.8016(6) 0.8828(4)
C19_2 C 0.4415(6) 0.9708(7) 0.8200(4)
C23_2 C 0.5299(6) 0.9995(6) 0.8397(5)
O13_2 O 0.7221(4) 0.2783(4) 0.7493(3)
O14_2 O 0.6263(6) 0.4989(7) 0.7381(5)
H10_2 H 0.5681 0.4657 0.7275
H11_2 H 0.6357 0.4956 0.7843
O15_2 O 0.9916(5) 0.1795(8) 0.7176(6)
H14_2 H 0.669(4) 0.241(5) 0.732(3)
Zn5_2 Zn 0.20743(7) 0.22176(7) 0.84574(5)
O16_2 O 0.8456(6) 0.0830(5) 0.7973(4)
O17_2 O 0.7995(5) 0.1778(6) 0.8864(3)
O18_2 O 0.8968(5) 0.3495(4) 0.7887(3)
O19_2 O 0.8320(4) 0.4934(5) 0.7374(3)
O20_2 O 0.8513(5) 0.3008(6) 0.6376(4)
O21_2 O 0.8163(7) 0.1222(6) 0.6512(4)
C11_3 C 0.1498(6) 0.0987(7) 0.5054(5)
C12_3 C 0.1497(5) 0.0084(7) 0.3995(4)
C13_3 C 0.1129(6) 0.1044(6) 0.3719(4)
H5_3 H 0.1017 0.1071 0.3274
C14_3 C 0.1689(6) 0.0043(7) 0.4659(4)
C15_3 C 0.1132(6) 0.1941(7) 0.4773(4)
H7_3 H 0.1024 0.2569 0.5029
C16_3 C 0.0925(6) 0.1976(6) 0.4111(4)
C17_3 C 0.0964(6) 0.3702(6) 0.3421(5)
H8_3 H 0.1552 0.3498 0.3288
C18_3 C 0.0485(6) 0.3016(6) 0.3828(4)
C19_3 C 0.0585(6) 0.4708(7) 0.3200(4)
C20_3 C 0.1151(6) 0.5493(7) 0.2779(4)
C21_3 C 0.1712(7) 0.0952(9) 0.5764(5)
O9_2 O 0.2170(6) 0.0151(7) 0.6002(4)
O10_2 O 0.1432(7) 0.1726(8) 0.6123(4)
C10_3 C 0.1699(6) 0.9093(6) 0.3593(5)
H6_3 H 0.1941 0.9399 0.4841
C1_3 C 0.8818(6) 0.2694(7) 0.5049(4)
H1_3 H 0.8944 0.3395 0.5225
C2_3 C 0.9018(5) 0.2453(6) 0.4397(4)
C4_3 C 0.8169(7) 0.0848(7) 0.5165(4)
H2_3 H 0.7891 0.0307 0.5424
C5_3 C 0.8334(6) 0.0643(7) 0.4500(4)
C6_3 C 0.8426(6) 0.1856(7) 0.5423(4)
C7_3 C 0.9583(5) 0.3285(6) 0.4000(4)
C8_3 C 0.9199(6) 0.4269(7) 0.3797(4)
H3_3 H 0.8605 0.4456 0.3925
C9_3 C 0.8770(6) 0.1449(7) 0.4127(4)
H4_3 H 0.8895 0.1307 0.3691
C22_3 C 0.8345(7) 0.2040(8) 0.6147(5)
C23_3 C 0.9701(6) 0.4995(6) 0.3397(5)
C24_3 C 0.9232(6) 0.6053(6) 0.3156(5)
O11_3 O 0.9083(6) 0.6142(6) 0.2550(4)
H9_3 H 0.8830 0.6743 0.2476
O12_2 O 0.8971(5) 0.6718(5) 0.3582(4)
O1_3 O 0.8214(6) 0.9366(6) 0.3625(4)
O2_3 O 0.7880(10) 0.8726(8) 0.4570(6)
C3_3 C 0.8103(8) 0.9505(8) 0.4226(5)
O13_3 O 0.7779(4) 0.7783(4) 0.2493(3)
O14_3 O 0.8737(6) 0.9989(7) 0.2381(5)
H10_3 H 0.9319 0.9657 0.2275
H11_3 H 0.8643 0.9956 0.2843
O15_3 O 0.5084(5) 0.6795(8) 0.2176(6)
H12 H 0.4843 0.6298 0.2502
H13 H 0.4745 0.7485 0.2183
H14_3 H 0.831(4) 0.741(5) 0.232(3)
O22_2 O 0.7830(6) 0.9849(7) 0.1002(4)
O23_2 O 0.8568(7) 0.8274(8) 0.1123(4)
O1_4 O 0.1786(6) 0.0634(6) 0.8625(4)
O2_4 O 0.2120(10) 0.1274(8) 0.9570(6)
C3_4 C 0.1897(8) 0.0495(8) 0.9226(5)
O13_4 O 0.2221(4) 0.2217(4) 0.7493(3)
O14_4 O 0.1263(6) 0.0011(7) 0.7381(5)
H10_4 H 0.0681 0.0343 0.7275
H11_4 H 0.1357 0.0044 0.7843
O15_4 O 0.4916(5) 0.3205(8) 0.7176(6)
H12_2 H 0.5157 0.3702 0.7502
H13_2 H 0.5255 0.2515 0.7183
H14_4 H 0.169(4) 0.259(5) 0.732(3)
O24_2 O 0.1029(5) 0.3282(5) 0.8582(4)
C1_4 C 0.1182(6) 0.7306(7) 0.0049(4)
H1_4 H 0.1056 0.6605 0.0225
C4_4 C 0.1831(7) 0.9152(7) 0.0165(4)
H2_4 H 0.2109 0.9693 0.0424
C6_4 C 0.1574(6) 0.8144(7) 0.0423(4)
C22_4 C 0.1655(7) 0.7960(8) 0.1147(5)
C2_4 C 0.0982(5) 0.7547(6) 0.9397(4)
C5_4 C 0.1666(6) 0.9357(7) 0.9500(4)
C7_4 C 0.0417(5) 0.6715(6) 0.9000(4)
C8_4 C 0.0801(6) 0.5731(7) 0.8797(4)
H3_4 H 0.1395 0.5544 0.8925
C9_4 C 0.1230(6) 0.8551(7) 0.9127(4)
H4_4 H 0.1105 0.8693 0.8691
C23_4 C 0.0299(6) 0.5005(6) 0.8397(5)
C24_4 C 0.0768(6) 0.3947(6) 0.8156(5)
O11_4 O 0.0917(6) 0.3858(6) 0.7550(4)
H9_4 H 0.1170 0.3257 0.7476
C10_4 C 0.8301(6) 0.0907(6) 0.8593(5)
H6_4 H 0.8059 0.0601 0.9841
C11_4 C 0.8502(6) 0.9013(7) 0.0054(5)
H7_4 H 0.8976 0.7431 0.0029
C21_4 C 0.8288(7) 0.9048(9) 0.0764(5)
C12_4 C 0.8503(5) 0.9916(7) 0.8995(4)
C13_4 C 0.8871(6) 0.8956(6) 0.8719(4)
H5_4 H 0.8983 0.8929 0.8274
C14_4 C 0.8311(6) 0.9957(7) 0.9659(4)
C15_4 C 0.8868(6) 0.8059(7) 0.9773(4)
C16_4 C 0.9075(6) 0.8024(6) 0.9111(4)
C17_4 C 0.9036(6) 0.6298(6) 0.8421(5)
H8_4 H 0.8448 0.6502 0.8288
C18_4 C 0.9515(6) 0.6984(6) 0.8828(4)
C19_4 C 0.9415(6) 0.5292(7) 0.8200(4)
C20_4 C 0.8849(6) 0.4507(7) 0.7779(4)
H12_3 H 0.9843 0.8702 0.2502
H13_3 H 0.9745 0.7515 0.2183
H12_4 H 0.0157 0.1298 0.7502
H13_4 H 0.0255 0.2485 0.7183
loop_
_geom_bond_atom_site_label_1
_geom_bond_atom_site_label_2
_geom_bond_site_symmetry_1
_geom_bond_site_symmetry_2
Zn1 O1 1_555 1_555
Zn2 O13 1_555 1_555
Zn3 O13 1_555 1_555
O1 C3 1_555 1_555
O2 Zn1 1_555 1_555
C1 H1 1_555 1_555
C2 C1 1_555 1_555
C3 O2 1_555 1_555
C4 H2 1_555 1_555
C5 C3 1_555 1_555
C6 C1 1_555 1_555
C7 C2 1_555 1_555
C8 C7 1_555 1_555
H3 C8 1_555 1_555
C9 C2 1_555 1_555
H4 C9 1_555 1_555
O3 C10 1_555 1_555
O4 C10 1_555 1_555
C10 C12 1_555 1_555
C11 C14 1_555 1_555
C12 C13 1_555 1_555
C13 H5 1_555 1_555
C14 C12 1_555 1_555
H6 C14 1_555 1_555
C15 C11 1_555 1_555
H7 C15 1_555 1_555
C16 C13 1_555 1_555
C17 H8 1_555 1_555
C18 C7 1_555 1_555
C19 C17 1_555 1_555
C21 C11 1_555 1_555
C22 C6 1_555 1_555
C23 C8 1_555 1_555
O7 C22 1_555 1_555
O8 C22 1_555 1_555
O9 C21 1_555 1_555
O10 C21 1_555 1_555
O13 Zn1 1_555 1_555
O14 Zn3 1_555 1_555
H10 O14 1_555 1_555
H11 O14 1_555 1_555
O15 Zn2 1_555 1_555
H14 O13 1_555 1_555
Zn5 O4 1_555 1_555
Zn7 O3 1_555 1_555
Zn8 O7 1_555 1_555
Zn9 O9 1_555 1_555
Zn11 O7 1_555 1_555
O16 Zn2 1_555 1_555
O17 Zn1 1_555 1_555
O18 Zn2 1_555 1_555
O19 Zn3 1_555 1_555
O20 Zn2 1_555 1_555
O21 Zn2 1_555 1_555
O22 Zn3 1_555 1_555
O23 Zn3 1_555 1_555
O24 Zn1 1_555 1_555
Zn3 O20 1_555 1_555
C4 C5 1_555 1_555
C4 C6 1_555 1_555
C5 C9 1_555 1_555
C15 C16 1_555 1_555
C16 C18 1_555 1_555
C17 C18 1_555 1_555
C19 C23 1_555 1_555
O8 Zn8 1_555 1_555
O10 Zn9 1_555 1_555
O5 C20 1_555 1_555
O6 C20 1_555 1_555
O11 C24 1_555 1_555
H9 O11 1_555 1_555
O24 C24 1_555 1_555
Zn7 O5 1_555 1_555
Zn10 O6 1_555 1_555
O5_2 C20_2 1_555 1_555
O6_2 C20_2 1_555 1_555
O11_2 C24_2 1_555 1_555
H9_2 O11_2 1_555 1_555
O12 C24_2 1_555 1_555
Zn4 O12 1_555 1_555
Zn8 O5_2 1_555 1_555
Zn11 O6_2 1_555 1_555
C1_2 H1_2 1_555 1_555
C4_2 H2_2 1_555 1_555
C6_2 C1_2 1_555 1_555
C21_2 C11_2 1_555 1_555
C22_2 C6_2 1_555 1_555
O7_2 C22_2 1_555 1_555
O8_2 C22_2 1_555 1_555
O22 C21_2 1_555 1_555
O23 C21_2 1_555 1_555
Zn7 O7_2 1_555 1_555
Zn10 O7_2 1_555 1_555
C4_2 C6_2 1_555 1_555
O8_2 Zn7 1_555 1_555
Zn4 O1_2 1_555 1_555
Zn2_2 O13_2 1_555 1_555
Zn9 O13_2 1_555 1_555
O1_2 C3_2 1_555 1_555
O2_2 Zn4 1_555 1_555
C3_2 O2_2 1_555 1_555
C5_2 C3_2 1_555 1_555
C7_2 C2_2 1_555 1_555
C8_2 C7_2 1_555 1_555
H3_2 C8_2 1_555 1_555
C9_2 C2_2 1_555 1_555
H4_2 C9_2 1_555 1_555
O3_2 C10_2 1_555 1_555
O4_2 C10_2 1_555 1_555
C10_2 C12_2 1_555 1_555
C12_2 C13_2 1_555 1_555
C13_2 H5_2 1_555 1_555
C14_2 C12_2 1_555 1_555
H6_2 C14_2 1_555 1_555
C16_2 C13_2 1_555 1_555
C17_2 H8_2 1_555 1_555
C18_2 C7_2 1_555 1_555
C19_2 C17_2 1_555 1_555
C23_2 C8_2 1_555 1_555
O13_2 Zn4 1_555 1_555
O14_2 Zn9 1_555 1_555
H10_2 O14_2 1_555 1_555
H11_2 O14_2 1_555 1_555
O15_2 Zn2_2 1_555 1_555
H14_2 O13_2 1_555 1_555
Zn5_2 O4_2 1_555 1_555
Zn8 O3_2 1_555 1_555
O16_2 Zn2_2 1_555 1_555
O17_2 Zn4 1_555 1_555
O18_2 Zn2_2 1_555 1_555
O19_2 Zn9 1_555 1_555
O20_2 Zn2_2 1_555 1_555
O21_2 Zn2_2 1_555 1_555
Zn9 O20_2 1_555 1_555
C5_2 C9_2 1_555 1_555
C15_2 C16_2 1_555 1_555
C16_2 C18_2 1_555 1_555
C17_2 C18_2 1_555 1_555
C19_2 C23_2 1_555 1_555
C11_3 C14_3 1_555 1_555
C12_3 C13_3 1_555 1_555
C13_3 H5_3 1_555 1_555
C14_3 C12_3 1_555 1_555
C15_3 C11_3 1_555 1_555
H7_3 C15_3 1_555 1_555
C16_3 C13_3 1_555 1_555
O18 C20_3 1_555 1_555
O19 C20_3 1_555 1_555
C17_3 H8_3 1_555 1_555
C19_3 C17_3 1_555 1_555
C20_3 C19_3 1_555 1_555
C21_3 C11_3 1_555 1_555
O9_2 C21_3 1_555 1_555
O10_2 C21_3 1_555 1_555
Zn11 O9_2 1_555 1_555
C15_3 C16_3 1_555 1_555
C16_3 C18_3 1_555 1_555
C17_3 C18_3 1_555 1_555
O10_2 Zn11 1_555 1_555
O16 C10_3 1_555 1_555
O17 C10_3 1_555 1_555
C1_3 H1_3 1_555 1_555
C2_3 C1_3 1_555 1_555
C4_3 H2_3 1_555 1_555
C6_3 C1_3 1_555 1_555
C7_3 C2_3 1_555 1_555
C8_3 C7_3 1_555 1_555
H3_3 C8_3 1_555 1_555
C9_3 C2_3 1_555 1_555
H4_3 C9_3 1_555 1_555
C22_3 C6_3 1_555 1_555
C23_3 C8_3 1_555 1_555
O20_2 C22_3 1_555 1_555
O21_2 C22_3 1_555 1_555
C24_3 C23_3 1_555 1_555
O11_3 C24_3 1_555 1_555
H9_3 O11_3 1_555 1_555
O12_2 C24_3 1_555 1_555
Zn5 O12_2 1_555 1_555
C4_3 C5_3 1_555 1_555
C4_3 C6_3 1_555 1_555
C5_3 C9_3 1_555 1_555
Zn5 O1_3 1_555 1_555
Zn7 O13_3 1_555 1_555
Zn10 O13_3 1_555 1_555
O1_3 C3_3 1_555 1_555
O2_3 Zn5 1_555 1_555
C3_3 O2_3 1_555 1_555
O13_3 Zn5 1_555 1_555
O14_3 Zn10 1_555 1_555
H10_3 O14_3 1_555 1_555
H11_3 O14_3 1_555 1_555
O15_3 Zn7 1_555 1_555
H12 O15_3 1_555 1_555
H13 O15_3 1_555 1_555
H14_3 O13_3 1_555 1_555
O22_2 Zn10 1_555 1_555
O23_2 Zn10 1_555 1_555
Zn5_2 O1_4 1_555 1_555
Zn8 O13_4 1_555 1_555
Zn11 O13_4 1_555 1_555
O1_4 C3_4 1_555 1_555
O2_4 Zn5_2 1_555 1_555
C3_4 O2_4 1_555 1_555
O13_4 Zn5_2 1_555 1_555
O14_4 Zn11 1_555 1_555
H10_4 O14_4 1_555 1_555
H11_4 O14_4 1_555 1_555
O15_4 Zn8 1_555 1_555
H12_2 O15_4 1_555 1_555
H13_2 O15_4 1_555 1_555
H14_4 O13_4 1_555 1_555
O24_2 Zn5_2 1_555 1_555
C1_4 H1_4 1_555 1_555
C4_4 H2_4 1_555 1_555
C6_4 C1_4 1_555 1_555
C22_4 C6_4 1_555 1_555
O20 C22_4 1_555 1_555
O21 C22_4 1_555 1_555
C4_4 C6_4 1_555 1_555
C7_4 C2_4 1_555 1_555
C8_4 C7_4 1_555 1_555
H3_4 C8_4 1_555 1_555
C9_4 C2_4 1_555 1_555
H4_4 C9_4 1_555 1_555
C23_4 C8_4 1_555 1_555
C24_4 C23_4 1_555 1_555
O11_4 C24_4 1_555 1_555
H9_4 O11_4 1_555 1_555
O24_2 C24_4 1_555 1_555
C5_4 C9_4 1_555 1_555
O16_2 C10_4 1_555 1_555
O17_2 C10_4 1_555 1_555
C21_4 C11_4 1_555 1_555
O22_2 C21_4 1_555 1_555
O23_2 C21_4 1_555 1_555
C12_4 C13_4 1_555 1_555
C13_4 H5_4 1_555 1_555
C14_4 C12_4 1_555 1_555
C16_4 C13_4 1_555 1_555
O18_2 C20_4 1_555 1_555
O19_2 C20_4 1_555 1_555
C17_4 H8_4 1_555 1_555
C19_4 C17_4 1_555 1_555
C20_4 C19_4 1_555 1_555
C15_4 C16_4 1_555 1_555
C16_4 C18_4 1_555 1_555
C17_4 C18_4 1_555 1_555

#END
