
###############################################################################
#
# This file contains modified crystal structure data generated from the
# MOF subset of the Cambridge Structural Database (CSD) v543 
# hosted by the Cambridge Crystallographic Data Centre (CCDC).
#
# This work is licensed under the Creative Commons
# Attribution-NonCommercial-ShareAlike 4.0 International License.
# To view a copy of this license, visit
# http://creativecommons.org/licenses/by-nc-sa/4.0/
# or send a letter to
# Creative Commons, PO Box 1866, Mountain View, CA 94042, USA.
#
# CIF created using the CSD Python API on 29 September 2022
# The structure has been converted into the P1 space group
# The structure has a 3D framework
# The original CSD entry LUTCEJ is in the monoclinic crystal system
# The framework has been calculated to contain at least 10.0% void space
# The void calculation uses a probe of radius 1.32A, grid spacing 0.4
# H atom positions have been added when not included in the experimental data
# Generated hydrogen atom positions removed from atoms on special positions
#
###############################################################################

data_LUTCEJ
_chemical_formula_moiety         '(C32 H24 Cu6 O32 S4)n'
_symmetry_cell_setting           triclinic
_symmetry_space_group_name_H-M   'P 1'
_symmetry_Int_Tables_number      1
_space_group_name_Hall           'P 1'
loop_
_symmetry_equiv_pos_site_id
_symmetry_equiv_pos_as_xyz
1 x,y,z
_cell_length_a                   7.283(3)
_cell_length_b                   18.119(9)
_cell_length_c                   10.262(5)
_cell_angle_alpha                90
_cell_angle_beta                 94.119(8)
_cell_angle_gamma                90
_cell_volume                     1350.68
loop_
_atom_site_label
_atom_site_type_symbol
_atom_site_fract_x
_atom_site_fract_y
_atom_site_fract_z
S1 S 0.1286(3) 0.43513(9) 0.30757(17)
O1 O 0.0582(8) 0.1678(2) 0.0841(5)
O5 O 0.1505(12) 0.5130(3) 0.2972(6)
O7 O 0.2765(9) 0.4009(3) 0.3862(6)
C1 C 0.1456(10) 0.3960(3) 0.1504(7)
C4 C 0.1392(10) 0.2875(3) 0.0149(6)
C6 C 0.1105(10) 0.3213(4) 0.1325(6)
H2 H 0.0672 0.2936 0.2003
C7 C 0.2069(10) 0.4379(3) 0.0499(6)
H3 H 0.2290 0.4881 0.0620
Cu12 Cu 0.46365(13) 0.43156(4) 0.57077(8)
Cu1 Cu 0.13752(12) 0.09426(4) 0.78576(8)
O2 O 0.1318(6) 0.0340(2) 0.9423(4)
O3 O 0.3460(8) 0.5137(3) 0.8368(5)
O4 O 0.1276(8) 0.1862(2) 0.8765(5)
O6 O 0.3284(9) 0.4104(3) 0.7178(5)
C2 C 0.2353(10) 0.4051(3) 0.9311(6)
C3 C 0.2031(10) 0.3304(3) 0.9153(6)
H1 H 0.2246 0.3083 0.8360
C5 C 0.1042(10) 0.2080(3) 0.9918(6)
C8 C 0.3095(10) 0.4469(3) 0.8200(6)
O9 O 0.1234(9) 0.1559(3) 0.6256(5)
Cu5 Cu 0.36248(12) 0.59426(4) 0.71424(8)
O13 O 0.1540(8) 0.0137(3) 0.6632(5)
O25 O 0.4562(8) 0.0892(4) 0.8502(6)
O21 O 0.2235(9) 0.9009(3) 0.1138(6)
Cu8 Cu 0.03635(13) 0.93156(4) 0.92923(8)
O18 O 0.1716(9) 0.9104(3) 0.7822(5)
O23 O 0.0438(8) 0.5892(4) 0.6498(6)
Cu2 Cu 0.96365(13) 0.06844(4) 0.07077(8)
O8 O 0.9562(8) 0.4108(4) 0.3502(6)
Cu7 Cu 0.63752(12) 0.40574(4) 0.28576(8)
O19 O 0.8284(9) 0.0896(3) 0.2178(5)
O22 O 0.7765(9) 0.0991(3) 0.8862(6)
Cu3 Cu 0.86248(12) 0.90574(4) 0.21424(8)
Cu10 Cu 0.53635(13) 0.56844(4) 0.42923(8)
O11 O 0.8682(6) 0.9660(2) 0.0577(4)
O12 O 0.6540(8) 0.4863(3) 0.1632(5)
O14 O 0.8460(8) 0.9863(3) 0.3368(5)
O15 O 0.8724(8) 0.8138(2) 0.1235(5)
O17 O 0.6716(9) 0.5896(3) 0.2822(5)
O24 O 0.5438(8) 0.9108(4) 0.1498(6)
C10 C 0.7647(10) 0.5949(3) 0.0689(6)
C11 C 0.7969(10) 0.6696(3) 0.0847(6)
H4 H 0.7754 0.6917 0.1640
C13 C 0.8958(10) 0.7920(3) 0.0082(6)
C16 C 0.6905(10) 0.5531(3) 0.1800(6)
O26 O 0.8766(9) 0.8441(3) 0.3744(5)
S2 S 0.8714(3) 0.56487(9) 0.69243(17)
O10 O 0.9418(8) 0.8322(2) 0.9159(5)
O16 O 0.8495(12) 0.4870(3) 0.7028(6)
O20 O 0.7235(9) 0.5991(3) 0.6138(6)
C9 C 0.8544(10) 0.6040(3) 0.8496(7)
C12 C 0.8608(10) 0.7125(3) 0.9851(6)
C14 C 0.8895(10) 0.6787(4) 0.8675(6)
H5 H 0.9328 0.7064 0.7997
C15 C 0.7931(10) 0.5621(3) 0.9501(6)
H6 H 0.7710 0.5119 0.9380
O5_2 O 0.3495(12) 0.0130(3) 0.2028(6)
S1_2 S 0.3714(3) 0.93513(9) 0.19243(17)
O1_2 O 0.4418(8) 0.6678(2) 0.4159(5)
O2_2 O 0.3682(6) 0.5340(2) 0.5577(4)
O4_2 O 0.3724(8) 0.6862(2) 0.6235(5)
C1_2 C 0.3544(10) 0.8960(3) 0.3496(7)
C2_2 C 0.2647(10) 0.9051(3) 0.5689(6)
C3_2 C 0.2969(10) 0.8304(3) 0.5847(6)
H1_2 H 0.2754 0.8083 0.6640
C4_2 C 0.3608(10) 0.7875(3) 0.4851(6)
C5_2 C 0.3958(10) 0.7080(3) 0.5082(6)
C6_2 C 0.3895(10) 0.8213(4) 0.3675(6)
H2_2 H 0.4328 0.7936 0.2997
C7_2 C 0.2931(10) 0.9379(3) 0.4501(6)
H3_2 H 0.2710 0.9881 0.4380
C8_2 C 0.1905(10) 0.9469(3) 0.6800(6)
O9_2 O 0.3766(9) 0.6559(3) 0.8744(5)
S2_2 S 0.6286(3) 0.06487(9) 0.80757(17)
O10_2 O 0.5582(8) 0.3322(2) 0.5841(5)
O11_2 O 0.6318(6) 0.4660(2) 0.4423(4)
O15_2 O 0.6276(8) 0.3138(2) 0.3765(5)
C9_2 C 0.6456(10) 0.1040(3) 0.6504(7)
C10_2 C 0.7353(10) 0.0949(3) 0.4311(6)
C11_2 C 0.7031(10) 0.1696(3) 0.4153(6)
H4_2 H 0.7246 0.1917 0.3360
C12_2 C 0.6392(10) 0.2125(3) 0.5149(6)
C13_2 C 0.6042(10) 0.2920(3) 0.4918(6)
C14_2 C 0.6105(10) 0.1787(4) 0.6325(6)
H5_2 H 0.5672 0.2064 0.7003
C15_2 C 0.7069(10) 0.0621(3) 0.5499(6)
H6_2 H 0.7290 0.0119 0.5620
C16_2 C 0.8095(10) 0.0531(3) 0.3200(6)
O26_2 O 0.6234(9) 0.3441(3) 0.1256(5)
O16_2 O 0.6505(12) 0.9870(3) 0.7972(6)
loop_
_geom_bond_atom_site_label_1
_geom_bond_atom_site_label_2
_geom_bond_site_symmetry_1
_geom_bond_site_symmetry_2
S1 O5 1_555 1_555
O7 S1 1_555 1_555
C1 S1 1_555 1_555
C6 C1 1_555 1_555
H2 C6 1_555 1_555
C7 C1 1_555 1_555
H3 C7 1_555 1_555
Cu12 O7 1_555 1_555
C4 C6 1_555 1_555
Cu1 O2 1_555 1_555
O3 C8 1_555 1_555
O4 Cu1 1_555 1_555
O6 C8 1_555 1_555
C2 C3 1_555 1_555
C3 H1 1_555 1_555
C5 O4 1_555 1_555
C8 C2 1_555 1_555
O9 Cu1 1_555 1_555
Cu5 O3 1_555 1_555
Cu12 O6 1_555 1_555
O13 Cu1 1_555 1_555
O25 Cu1 1_555 1_555
Cu5 O23 1_555 1_555
O18 Cu8 1_555 1_555
Cu7 O8 1_555 1_555
O19 Cu2 1_555 1_555
Cu3 O11 1_555 1_555
Cu7 O12 1_555 1_555
Cu10 O17 1_555 1_555
O12 C16 1_555 1_555
O14 Cu3 1_555 1_555
O15 Cu3 1_555 1_555
O17 C16 1_555 1_555
O24 Cu3 1_555 1_555
C10 C11 1_555 1_555
C11 H4 1_555 1_555
C16 C10 1_555 1_555
O26 Cu3 1_555 1_555
O15 C13 1_555 1_555
Cu10 O20 1_555 1_555
S2 O16 1_555 1_555
O20 S2 1_555 1_555
C9 S2 1_555 1_555
C14 C9 1_555 1_555
H5 C14 1_555 1_555
C15 C9 1_555 1_555
H6 C15 1_555 1_555
C12 C14 1_555 1_555
Cu5 O2_2 1_555 1_555
Cu10 O1_2 1_555 1_555
O1_2 C5_2 1_555 1_555
O2_2 Cu10 1_555 1_555
O4_2 Cu5 1_555 1_555
O18 C8_2 1_555 1_555
O21 S1_2 1_555 1_555
O24 S1_2 1_555 1_555
C1_2 S1_2 1_555 1_555
C2_2 C3_2 1_555 1_555
C3_2 H1_2 1_555 1_555
C4_2 C3_2 1_555 1_555
C5_2 O4_2 1_555 1_555
C6_2 C1_2 1_555 1_555
H2_2 C6_2 1_555 1_555
C7_2 C1_2 1_555 1_555
H3_2 C7_2 1_555 1_555
C8_2 C2_2 1_555 1_555
O9_2 Cu5 1_555 1_555
Cu7 O11_2 1_555 1_555
Cu12 O2_2 1_555 1_555
O10_2 Cu12 1_555 1_555
O11_2 Cu10 1_555 1_555
O15_2 Cu7 1_555 1_555
O19 C16_2 1_555 1_555
O22 S2_2 1_555 1_555
O25 S2_2 1_555 1_555
C9_2 S2_2 1_555 1_555
C10_2 C11_2 1_555 1_555
C11_2 H4_2 1_555 1_555
C12_2 C11_2 1_555 1_555
C13_2 O10_2 1_555 1_555
C14_2 C9_2 1_555 1_555
H5_2 C14_2 1_555 1_555
C15_2 C9_2 1_555 1_555
H6_2 C15_2 1_555 1_555
C16_2 C10_2 1_555 1_555
O26_2 Cu7 1_555 1_555
C2_2 C7_2 1_555 1_555
C4_2 C5_2 1_555 1_555
C4_2 C6_2 1_555 1_555
Cu12 O11_2 1_555 1_555
O15_2 C13_2 1_555 1_555
C10_2 C15_2 1_555 1_555
C12_2 C13_2 1_555 1_555
C12_2 C14_2 1_555 1_555

#END
