
###############################################################################
#
# This file contains modified crystal structure data generated from the
# MOF subset of the Cambridge Structural Database (CSD) v543 
# hosted by the Cambridge Crystallographic Data Centre (CCDC).
#
# This work is licensed under the Creative Commons
# Attribution-NonCommercial-ShareAlike 4.0 International License.
# To view a copy of this license, visit
# http://creativecommons.org/licenses/by-nc-sa/4.0/
# or send a letter to
# Creative Commons, PO Box 1866, Mountain View, CA 94042, USA.
#
# CIF created using the CSD Python API on 29 September 2022
# The structure has been converted into the P1 space group
# The structure has a 3D framework
# The original CSD entry LUVTEC is in the tetragonal crystal system
# The framework has been calculated to contain at least 10.0% void space
# The void calculation uses a probe of radius 1.32A, grid spacing 0.4
#
###############################################################################

data_LUVTEC
_chemical_formula_moiety         '(C120 H96 N8 O40 Zn12)n'
_symmetry_cell_setting           triclinic
_symmetry_space_group_name_H-M   'P 1'
_symmetry_Int_Tables_number      1
_space_group_name_Hall           'P 1'
loop_
_symmetry_equiv_pos_site_id
_symmetry_equiv_pos_as_xyz
1 x,y,z
_cell_length_a                   17.6776(10)
_cell_length_b                   17.6776(10)
_cell_length_c                   15.1330(18)
_cell_angle_alpha                90
_cell_angle_beta                 90
_cell_angle_gamma                90
_cell_volume                     4729.03
loop_
_atom_site_label
_atom_site_type_symbol
_atom_site_fract_x
_atom_site_fract_y
_atom_site_fract_z
Zn1 Zn 0.14562(3) 0.10359(3) 0.03092(4)
Zn2 Zn 0.14900(3) 0.14900(3) 0.2500
O1 O 0.1440(2) 0.2195(2) 0.0541(3)
O2 O 0.1465(2) 0.2505(2) 0.1974(3)
O3 O 0.1405(2) 0.0761(2) 0.1575(2)
C1 C 0.1304(3) 0.3473(3) 0.0943(4)
C2 C 0.1303(4) 0.4014(3) 0.1596(5)
H1 H 0.1365 0.3868 0.2196
C3 C 0.1212(4) 0.4782(3) 0.1382(4)
H2 H 0.1206 0.5149 0.1841
C4 C 0.1129(3) 0.5013(3) 0.0511(4)
C6 C 0.1206(4) 0.3693(3) 0.0063(4)
C7 C 0.1066(3) 0.5818(3) 0.0289(4)
C10 C 0.0713(4) 0.7087(3) 0.0637(4)
H7 H 0.0474 0.7430 0.1032
C11 C 0.0722(4) 0.6331(3) 0.0860(4)
H8 H 0.0498 0.6162 0.1396
C12 C 0.1414(3) 0.2661(3) 0.1176(4)
H10 H 0.2299 0.0067 0.2632
Zn3 Zn 0.10359(3) 0.14562(3) 0.46908(4)
Zn6 Zn 0.85438(3) 0.10359(3) 0.53092(4)
O6 O 0.2195(2) 0.1440(2) 0.4459(3)
O7 O 0.2505(2) 0.1465(2) 0.3026(3)
O8 O 0.0761(2) 0.1405(2) 0.3425(2)
O12 O 0.1193(3) 0.1173(2) 0.5985(3)
N2 N 0.7366(2) 0.1016(2) 0.5098(3)
N3 N 0.2634(2) 0.1016(2) 0.0098(3)
N4 N 0.1016(2) 0.2634(2) 0.4902(3)
C16 C 0.3473(3) 0.1304(3) 0.4057(4)
C17 C 0.4014(3) 0.1303(4) 0.3404(5)
H13 H 0.3868 0.1365 0.2804
C18 C 0.4782(3) 0.1212(4) 0.3618(4)
H14 H 0.5149 0.1206 0.3159
C19 C 0.5013(3) 0.1129(3) 0.4489(4)
C20 C 0.4459(3) 0.1118(4) 0.5147(4)
H15 H 0.4604 0.1051 0.5746
C21 C 0.3693(3) 0.1206(4) 0.4937(4)
H16 H 0.3323 0.1199 0.5392
C22 C 0.5818(3) 0.1066(3) 0.4711(4)
C23 C 0.6110(3) 0.1358(5) 0.5481(4)
H17 H 0.5781 0.1584 0.5902
C24 C 0.6881(4) 0.1326(4) 0.5647(4)
H18 H 0.7066 0.1538 0.6182
C25 C 0.7087(3) 0.0713(4) 0.4363(4)
H19 H 0.7430 0.0474 0.3968
C26 C 0.6331(3) 0.0722(4) 0.4140(4)
H20 H 0.6162 0.0498 0.3604
C27 C 0.2661(3) 0.1414(3) 0.3824(4)
H22 H 0.0067 0.2299 0.2368
N1 N 0.1016(2) 0.7366(2) 0.9902(3)
C5 C 0.1118(4) 0.4459(3) 0.9853(4)
H3 H 0.1051 0.4604 0.9254
H4 H 0.1199 0.3323 0.9608
C8 C 0.1358(5) 0.6110(3) 0.9519(4)
H5 H 0.1584 0.5781 0.9098
C9 C 0.1326(4) 0.6881(4) 0.9353(4)
H6 H 0.1538 0.7066 0.8818
Zn5 Zn 0.10359(3) 0.85438(3) 0.96908(4)
O11 O 0.1173(2) 0.1193(3) 0.9015(3)
O4 O 0.1264(2) 0.9874(2) 0.0190(2)
O5 O 0.1193(3) 0.8827(2) 0.0985(3)
C13 C 0.1407(5) 0.9982(3) 0.1756(4)
H9 H 0.1004 0.9862 0.2199
C14 C 0.1269(3) 0.9538(3) 0.0918(4)
C15 C 0.2175(7) 0.9751(4) 0.2120(6)
H11 H 0.2561 0.9818 0.1663
H12 H 0.2159 0.9219 0.2301
O9 O 0.9874(2) 0.1264(2) 0.4810(2)
O10 O 0.8827(2) 0.1193(3) 0.4015(3)
C28 C 0.9982(3) 0.1407(5) 0.3244(4)
H21 H 0.9862 0.1004 0.2801
C29 C 0.9538(3) 0.1269(3) 0.4082(4)
C30 C 0.9751(4) 0.2175(7) 0.2880(6)
H23 H 0.9818 0.2561 0.3337
H24 H 0.9219 0.2159 0.2699
Zn7 Zn 0.14562(3) 0.89641(3) 0.53092(4)
O9_2 O 0.0126(2) 0.8736(2) 0.4810(2)
O10_2 O 0.1173(2) 0.8807(3) 0.4015(3)
C28_2 C 0.0018(3) 0.8593(5) 0.3244(4)
H21_2 H 0.0138 0.8996 0.2801
C29_2 C 0.0462(3) 0.8731(3) 0.4082(4)
C30_2 C 0.0249(4) 0.7825(7) 0.2880(6)
H23_2 H 0.0182 0.7439 0.3337
H24_2 H 0.0781 0.7841 0.2699
O4_2 O 0.8736(2) 0.0126(2) 0.0190(2)
O5_2 O 0.8807(3) 0.1173(2) 0.0985(3)
C13_2 C 0.8593(5) 0.0018(3) 0.1756(4)
H9_2 H 0.8996 0.0138 0.2199
C14_2 C 0.8731(3) 0.0462(3) 0.0918(4)
C15_2 C 0.7825(7) 0.0249(4) 0.2120(6)
H11_2 H 0.7439 0.0182 0.1663
H12_2 H 0.7841 0.0781 0.2301
Zn4 Zn 0.89641(3) 0.14562(3) 0.96908(4)
Zn1_2 Zn 0.85438(3) 0.89641(3) 0.03092(4)
Zn2_2 Zn 0.85100(3) 0.85100(3) 0.2500
O1_2 O 0.8560(2) 0.7805(2) 0.0541(3)
O2_2 O 0.8535(2) 0.7495(2) 0.1974(3)
O3_2 O 0.8595(2) 0.9239(2) 0.1575(2)
C1_2 C 0.8696(3) 0.6527(3) 0.0943(4)
C2_2 C 0.8697(4) 0.5986(3) 0.1596(5)
H1_2 H 0.8635 0.6132 0.2196
C3_2 C 0.8788(4) 0.5218(3) 0.1382(4)
H2_2 H 0.8794 0.4851 0.1841
C4_2 C 0.8871(3) 0.4987(3) 0.0511(4)
C6_2 C 0.8794(4) 0.6307(3) 0.0063(4)
C7_2 C 0.8934(3) 0.4182(3) 0.0289(4)
C10_2 C 0.9287(4) 0.2913(3) 0.0637(4)
H7_2 H 0.9526 0.2570 0.1032
C11_2 C 0.9278(4) 0.3669(3) 0.0860(4)
H8_2 H 0.9502 0.3838 0.1396
C12_2 C 0.8586(3) 0.7339(3) 0.1176(4)
H10_2 H 0.7701 0.9933 0.2632
Zn3_2 Zn 0.89641(3) 0.85438(3) 0.46908(4)
O6_2 O 0.7805(2) 0.8560(2) 0.4459(3)
O7_2 O 0.7495(2) 0.8535(2) 0.3026(3)
O8_2 O 0.9239(2) 0.8595(2) 0.3425(2)
O12_2 O 0.8807(3) 0.8827(2) 0.5985(3)
N2_2 N 0.2634(2) 0.8984(2) 0.5098(3)
N3_2 N 0.7366(2) 0.8984(2) 0.0098(3)
N4_2 N 0.8984(2) 0.7366(2) 0.4902(3)
C16_2 C 0.6527(3) 0.8696(3) 0.4057(4)
C17_2 C 0.5986(3) 0.8697(4) 0.3404(5)
H13_2 H 0.6132 0.8635 0.2804
C18_2 C 0.5218(3) 0.8788(4) 0.3618(4)
H14_2 H 0.4851 0.8794 0.3159
C19_2 C 0.4987(3) 0.8871(3) 0.4489(4)
C20_2 C 0.5541(3) 0.8882(4) 0.5147(4)
H15_2 H 0.5396 0.8949 0.5746
C21_2 C 0.6307(3) 0.8794(4) 0.4937(4)
H16_2 H 0.6677 0.8801 0.5392
C22_2 C 0.4182(3) 0.8934(3) 0.4711(4)
C23_2 C 0.3890(3) 0.8642(5) 0.5481(4)
H17_2 H 0.4219 0.8416 0.5902
C24_2 C 0.3119(4) 0.8674(4) 0.5647(4)
H18_2 H 0.2934 0.8462 0.6182
C25_2 C 0.2913(3) 0.9287(4) 0.4363(4)
H19_2 H 0.2570 0.9526 0.3968
C26_2 C 0.3669(3) 0.9278(4) 0.4140(4)
H20_2 H 0.3838 0.9502 0.3604
C27_2 C 0.7339(3) 0.8586(3) 0.3824(4)
H22_2 H 0.9933 0.7701 0.2368
N1_2 N 0.8984(2) 0.2634(2) 0.9902(3)
C5_2 C 0.8882(4) 0.5541(3) 0.9853(4)
H3_2 H 0.8949 0.5396 0.9254
H4_2 H 0.8801 0.6677 0.9608
C8_2 C 0.8642(5) 0.3890(3) 0.9519(4)
H5_2 H 0.8416 0.4219 0.9098
C9_2 C 0.8674(4) 0.3119(4) 0.9353(4)
H6_2 H 0.8462 0.2934 0.8818
O11_2 O 0.8827(2) 0.8807(3) 0.9015(3)
O9_3 O 0.1264(2) 0.0126(2) 0.5190(2)
C28_3 C 0.1407(5) 0.0018(3) 0.6756(4)
H21_3 H 0.1004 0.0138 0.7199
C29_3 C 0.1269(3) 0.0462(3) 0.5918(4)
C30_3 C 0.2175(7) 0.0249(4) 0.7120(6)
H23_3 H 0.2561 0.0182 0.6663
H24_3 H 0.2159 0.0781 0.7301
C5_3 C 0.4459(3) 0.8882(4) 0.0147(4)
H3_3 H 0.4604 0.8949 0.0746
H4_3 H 0.3323 0.8801 0.0392
C8_3 C 0.6110(3) 0.8642(5) 0.0481(4)
H5_3 H 0.5781 0.8416 0.0902
C9_3 C 0.6881(4) 0.8674(4) 0.0647(4)
H6_3 H 0.7066 0.8462 0.1182
Zn2_3 Zn 0.14900(3) 0.85100(3) 0.7500
O1_3 O 0.2195(2) 0.8560(2) 0.9459(3)
O2_3 O 0.2505(2) 0.8535(2) 0.8026(3)
O3_3 O 0.0761(2) 0.8595(2) 0.8425(2)
C1_3 C 0.3473(3) 0.8696(3) 0.9057(4)
C2_3 C 0.4014(3) 0.8697(4) 0.8404(5)
H1_3 H 0.3868 0.8635 0.7804
C3_3 C 0.4782(3) 0.8788(4) 0.8618(4)
H2_3 H 0.5149 0.8794 0.8159
C4_3 C 0.5013(3) 0.8871(3) 0.9489(4)
C6_3 C 0.3693(3) 0.8794(4) 0.9937(4)
C7_3 C 0.5818(3) 0.8934(3) 0.9711(4)
C10_3 C 0.7087(3) 0.9287(4) 0.9363(4)
H7_3 H 0.7430 0.9526 0.8968
C11_3 C 0.6331(3) 0.9278(4) 0.9140(4)
H8_3 H 0.6162 0.9502 0.8604
C12_3 C 0.2661(3) 0.8586(3) 0.8824(4)
H10_3 H 0.0067 0.7701 0.7368
O6_3 O 0.1440(2) 0.7805(2) 0.5541(3)
O7_3 O 0.1465(2) 0.7495(2) 0.6974(3)
O8_3 O 0.1405(2) 0.9239(2) 0.6575(2)
C16_3 C 0.1304(3) 0.6527(3) 0.5943(4)
C17_3 C 0.1303(4) 0.5986(3) 0.6596(5)
H13_3 H 0.1365 0.6132 0.7196
C18_3 C 0.1212(4) 0.5218(3) 0.6382(4)
H14_3 H 0.1206 0.4851 0.6841
C19_3 C 0.1129(3) 0.4987(3) 0.5511(4)
C20_3 C 0.1118(4) 0.5541(3) 0.4853(4)
H15_3 H 0.1051 0.5396 0.4254
C21_3 C 0.1206(4) 0.6307(3) 0.5063(4)
H16_3 H 0.1199 0.6677 0.4608
C22_3 C 0.1066(3) 0.4182(3) 0.5289(4)
C23_3 C 0.1358(5) 0.3890(3) 0.4519(4)
H17_3 H 0.1584 0.4219 0.4098
C24_3 C 0.1326(4) 0.3119(4) 0.4353(4)
H18_3 H 0.1538 0.2934 0.3818
C25_3 C 0.0713(4) 0.2913(3) 0.5637(4)
H19_3 H 0.0474 0.2570 0.6032
C26_3 C 0.0722(4) 0.3669(3) 0.5860(4)
H20_3 H 0.0498 0.3838 0.6396
C27_3 C 0.1414(3) 0.7339(3) 0.6176(4)
H22_3 H 0.2299 0.9933 0.7632
O4_3 O 0.9874(2) 0.8736(2) 0.9810(2)
C13_3 C 0.9982(3) 0.8593(5) 0.8244(4)
H9_3 H 0.9862 0.8996 0.7801
C14_3 C 0.9538(3) 0.8731(3) 0.9082(4)
C15_3 C 0.9751(4) 0.7825(7) 0.7880(6)
H11_3 H 0.9818 0.7439 0.8337
H12_3 H 0.9219 0.7841 0.7699
O4_4 O 0.0126(2) 0.1264(2) 0.9810(2)
C13_4 C 0.0018(3) 0.1407(5) 0.8244(4)
H9_4 H 0.0138 0.1004 0.7801
C14_4 C 0.0462(3) 0.1269(3) 0.9082(4)
C15_4 C 0.0249(4) 0.2175(7) 0.7880(6)
H11_4 H 0.0182 0.2561 0.8337
H12_4 H 0.0781 0.2159 0.7699
C5_4 C 0.5541(3) 0.1118(4) 0.0147(4)
H3_4 H 0.5396 0.1051 0.0746
H4_4 H 0.6677 0.1199 0.0392
C8_4 C 0.3890(3) 0.1358(5) 0.0481(4)
H5_4 H 0.4219 0.1584 0.0902
C9_4 C 0.3119(4) 0.1326(4) 0.0647(4)
H6_4 H 0.2934 0.1538 0.1182
Zn2_4 Zn 0.85100(3) 0.14900(3) 0.7500
O1_4 O 0.7805(2) 0.1440(2) 0.9459(3)
O2_4 O 0.7495(2) 0.1465(2) 0.8026(3)
O3_4 O 0.9239(2) 0.1405(2) 0.8425(2)
C1_4 C 0.6527(3) 0.1304(3) 0.9057(4)
C2_4 C 0.5986(3) 0.1303(4) 0.8404(5)
H1_4 H 0.6132 0.1365 0.7804
C3_4 C 0.5218(3) 0.1212(4) 0.8618(4)
H2_4 H 0.4851 0.1206 0.8159
C4_4 C 0.4987(3) 0.1129(3) 0.9489(4)
C6_4 C 0.6307(3) 0.1206(4) 0.9937(4)
C7_4 C 0.4182(3) 0.1066(3) 0.9711(4)
C10_4 C 0.2913(3) 0.0713(4) 0.9363(4)
H7_4 H 0.2570 0.0474 0.8968
C11_4 C 0.3669(3) 0.0722(4) 0.9140(4)
H8_4 H 0.3838 0.0498 0.8604
C12_4 C 0.7339(3) 0.1414(3) 0.8824(4)
H10_4 H 0.9933 0.2299 0.7368
O6_4 O 0.8560(2) 0.2195(2) 0.5541(3)
O7_4 O 0.8535(2) 0.2505(2) 0.6974(3)
O8_4 O 0.8595(2) 0.0761(2) 0.6575(2)
C16_4 C 0.8696(3) 0.3473(3) 0.5943(4)
C17_4 C 0.8697(4) 0.4014(3) 0.6596(5)
H13_4 H 0.8635 0.3868 0.7196
C18_4 C 0.8788(4) 0.4782(3) 0.6382(4)
H14_4 H 0.8794 0.5149 0.6841
C19_4 C 0.8871(3) 0.5013(3) 0.5511(4)
C20_4 C 0.8882(4) 0.4459(3) 0.4853(4)
H15_4 H 0.8949 0.4604 0.4254
C21_4 C 0.8794(4) 0.3693(3) 0.5063(4)
H16_4 H 0.8801 0.3323 0.4608
C22_4 C 0.8934(3) 0.5818(3) 0.5289(4)
C23_4 C 0.8642(5) 0.6110(3) 0.4519(4)
H17_4 H 0.8416 0.5781 0.4098
C24_4 C 0.8674(4) 0.6881(4) 0.4353(4)
H18_4 H 0.8462 0.7066 0.3818
C25_4 C 0.9287(4) 0.7087(3) 0.5637(4)
H19_4 H 0.9526 0.7430 0.6032
C26_4 C 0.9278(4) 0.6331(3) 0.5860(4)
H20_4 H 0.9502 0.6162 0.6396
C27_4 C 0.8586(3) 0.2661(3) 0.6176(4)
H22_4 H 0.7701 0.0067 0.7632
O9_4 O 0.8736(2) 0.9874(2) 0.5190(2)
C28_4 C 0.8593(5) 0.9982(3) 0.6756(4)
H21_4 H 0.8996 0.9862 0.7199
C29_4 C 0.8731(3) 0.9538(3) 0.5918(4)
C30_4 C 0.7825(7) 0.9751(4) 0.7120(6)
H23_4 H 0.7439 0.9818 0.6663
H24_4 H 0.7841 0.9219 0.7301
loop_
_geom_bond_atom_site_label_1
_geom_bond_atom_site_label_2
_geom_bond_site_symmetry_1
_geom_bond_site_symmetry_2
Zn1 O1 1_555 1_555
Zn2 O2 1_555 1_555
O1 C12 1_555 1_555
O2 C12 1_555 1_555
O3 Zn1 1_555 1_555
C1 C2 1_555 1_555
C2 H1 1_555 1_555
C3 C2 1_555 1_555
H2 C3 1_555 1_555
C4 C3 1_555 1_555
C6 C1 1_555 1_555
C7 C4 1_555 1_555
H7 C10 1_555 1_555
C11 C7 1_555 1_555
H8 C11 1_555 1_555
C12 C1 1_555 1_555
Zn3 O6 1_555 1_555
Zn6 N2 1_555 1_555
O6 C27 1_555 1_555
O7 Zn2 1_555 1_555
O8 Zn2 1_555 1_555
O12 Zn3 1_555 1_555
N2 C24 1_555 1_555
N3 Zn1 1_555 1_555
N4 Zn3 1_555 1_555
C16 C17 1_555 1_555
C17 H13 1_555 1_555
C18 C17 1_555 1_555
H14 C18 1_555 1_555
C19 C18 1_555 1_555
C20 C19 1_555 1_555
H15 C20 1_555 1_555
C21 C16 1_555 1_555
H16 C21 1_555 1_555
C22 C19 1_555 1_555
C23 C22 1_555 1_555
H17 C23 1_555 1_555
C24 C23 1_555 1_555
H18 C24 1_555 1_555
C25 N2 1_555 1_555
H19 C25 1_555 1_555
C26 C22 1_555 1_555
H20 C26 1_555 1_555
C27 O7 1_555 1_555
Zn2 O3 1_555 1_555
C10 C11 1_555 1_555
Zn3 O8 1_555 1_555
C16 C27 1_555 1_555
C20 C21 1_555 1_555
C25 C26 1_555 1_555
N1 C9 1_555 1_555
H3 C5 1_555 1_555
H5 C8 1_555 1_555
C9 C8 1_555 1_555
H6 C9 1_555 1_555
Zn5 N1 1_555 1_555
O5 C14 1_555 1_555
H9 C13 1_555 1_555
C14 O4 1_555 1_555
C15 C13 1_555 1_555
H11 C15 1_555 1_555
H12 C15 1_555 1_555
C13 C14 1_555 1_555
Zn6 O10 1_555 1_555
O10 C29 1_555 1_555
H21 C28 1_555 1_555
C29 O9 1_555 1_555
C30 C28 1_555 1_555
H23 C30 1_555 1_555
H24 C30 1_555 1_555
C28 C29 1_555 1_555
Zn7 O10_2 1_555 1_555
O10_2 C29_2 1_555 1_555
H21_2 C28_2 1_555 1_555
C29_2 O9_2 1_555 1_555
C30_2 C28_2 1_555 1_555
H23_2 C30_2 1_555 1_555
H24_2 C30_2 1_555 1_555
C28_2 C29_2 1_555 1_555
O5_2 C14_2 1_555 1_555
H9_2 C13_2 1_555 1_555
C14_2 O4_2 1_555 1_555
C15_2 C13_2 1_555 1_555
H11_2 C15_2 1_555 1_555
H12_2 C15_2 1_555 1_555
C13_2 C14_2 1_555 1_555
Zn1_2 O1_2 1_555 1_555
Zn2_2 O2_2 1_555 1_555
O1_2 C12_2 1_555 1_555
O2_2 C12_2 1_555 1_555
O3_2 Zn1_2 1_555 1_555
C1_2 C2_2 1_555 1_555
C2_2 H1_2 1_555 1_555
C3_2 C2_2 1_555 1_555
H2_2 C3_2 1_555 1_555
C4_2 C3_2 1_555 1_555
C6_2 C1_2 1_555 1_555
C7_2 C4_2 1_555 1_555
H7_2 C10_2 1_555 1_555
C11_2 C7_2 1_555 1_555
H8_2 C11_2 1_555 1_555
C12_2 C1_2 1_555 1_555
Zn3_2 O6_2 1_555 1_555
Zn7 N2_2 1_555 1_555
O6_2 C27_2 1_555 1_555
O7_2 Zn2_2 1_555 1_555
O8_2 Zn2_2 1_555 1_555
O12_2 Zn3_2 1_555 1_555
N2_2 C24_2 1_555 1_555
N3_2 Zn1_2 1_555 1_555
N4_2 Zn3_2 1_555 1_555
C16_2 C17_2 1_555 1_555
C17_2 H13_2 1_555 1_555
C18_2 C17_2 1_555 1_555
H14_2 C18_2 1_555 1_555
C19_2 C18_2 1_555 1_555
C20_2 C19_2 1_555 1_555
H15_2 C20_2 1_555 1_555
C21_2 C16_2 1_555 1_555
H16_2 C21_2 1_555 1_555
C22_2 C19_2 1_555 1_555
C23_2 C22_2 1_555 1_555
H17_2 C23_2 1_555 1_555
C24_2 C23_2 1_555 1_555
H18_2 C24_2 1_555 1_555
C25_2 N2_2 1_555 1_555
H19_2 C25_2 1_555 1_555
C26_2 C22_2 1_555 1_555
H20_2 C26_2 1_555 1_555
C27_2 O7_2 1_555 1_555
Zn2_2 O3_2 1_555 1_555
C10_2 C11_2 1_555 1_555
Zn3_2 O8_2 1_555 1_555
C16_2 C27_2 1_555 1_555
C20_2 C21_2 1_555 1_555
C25_2 C26_2 1_555 1_555
N1_2 C9_2 1_555 1_555
H3_2 C5_2 1_555 1_555
H5_2 C8_2 1_555 1_555
C9_2 C8_2 1_555 1_555
H6_2 C9_2 1_555 1_555
Zn4 N1_2 1_555 1_555
O12 C29_3 1_555 1_555
H21_3 C28_3 1_555 1_555
C29_3 O9_3 1_555 1_555
C30_3 C28_3 1_555 1_555
H23_3 C30_3 1_555 1_555
H24_3 C30_3 1_555 1_555
C28_3 C29_3 1_555 1_555
N3_2 C9_3 1_555 1_555
H3_3 C5_3 1_555 1_555
H5_3 C8_3 1_555 1_555
C9_3 C8_3 1_555 1_555
H6_3 C9_3 1_555 1_555
Zn5 O1_3 1_555 1_555
Zn2_3 O2_3 1_555 1_555
O1_3 C12_3 1_555 1_555
O2_3 C12_3 1_555 1_555
O3_3 Zn5 1_555 1_555
C1_3 C2_3 1_555 1_555
C2_3 H1_3 1_555 1_555
C3_3 C2_3 1_555 1_555
H2_3 C3_3 1_555 1_555
C4_3 C3_3 1_555 1_555
C6_3 C1_3 1_555 1_555
C7_3 C4_3 1_555 1_555
H7_3 C10_3 1_555 1_555
C11_3 C7_3 1_555 1_555
H8_3 C11_3 1_555 1_555
C12_3 C1_3 1_555 1_555
Zn7 O6_3 1_555 1_555
O6_3 C27_3 1_555 1_555
O7_3 Zn2_3 1_555 1_555
O8_3 Zn2_3 1_555 1_555
N4 C24_3 1_555 1_555
C16_3 C17_3 1_555 1_555
C17_3 H13_3 1_555 1_555
C18_3 C17_3 1_555 1_555
H14_3 C18_3 1_555 1_555
C19_3 C18_3 1_555 1_555
C20_3 C19_3 1_555 1_555
H15_3 C20_3 1_555 1_555
C21_3 C16_3 1_555 1_555
H16_3 C21_3 1_555 1_555
C22_3 C19_3 1_555 1_555
C23_3 C22_3 1_555 1_555
H17_3 C23_3 1_555 1_555
C24_3 C23_3 1_555 1_555
H18_3 C24_3 1_555 1_555
C25_3 N4 1_555 1_555
H19_3 C25_3 1_555 1_555
C26_3 C22_3 1_555 1_555
H20_3 C26_3 1_555 1_555
C27_3 O7_3 1_555 1_555
Zn2_3 O3_3 1_555 1_555
C10_3 C11_3 1_555 1_555
Zn7 O8_3 1_555 1_555
C16_3 C27_3 1_555 1_555
C20_3 C21_3 1_555 1_555
C25_3 C26_3 1_555 1_555
O11_2 C14_3 1_555 1_555
H9_3 C13_3 1_555 1_555
C14_3 O4_3 1_555 1_555
C15_3 C13_3 1_555 1_555
H11_3 C15_3 1_555 1_555
H12_3 C15_3 1_555 1_555
C13_3 C14_3 1_555 1_555
O11 C14_4 1_555 1_555
H9_4 C13_4 1_555 1_555
C14_4 O4_4 1_555 1_555
C15_4 C13_4 1_555 1_555
H11_4 C15_4 1_555 1_555
H12_4 C15_4 1_555 1_555
C13_4 C14_4 1_555 1_555
N3 C9_4 1_555 1_555
H3_4 C5_4 1_555 1_555
H5_4 C8_4 1_555 1_555
C9_4 C8_4 1_555 1_555
H6_4 C9_4 1_555 1_555
Zn4 O1_4 1_555 1_555
Zn2_4 O2_4 1_555 1_555
O1_4 C12_4 1_555 1_555
O2_4 C12_4 1_555 1_555
O3_4 Zn4 1_555 1_555
C1_4 C2_4 1_555 1_555
C2_4 H1_4 1_555 1_555
C3_4 C2_4 1_555 1_555
H2_4 C3_4 1_555 1_555
C4_4 C3_4 1_555 1_555
C6_4 C1_4 1_555 1_555
C7_4 C4_4 1_555 1_555
H7_4 C10_4 1_555 1_555
C11_4 C7_4 1_555 1_555
H8_4 C11_4 1_555 1_555
C12_4 C1_4 1_555 1_555
Zn6 O6_4 1_555 1_555
O6_4 C27_4 1_555 1_555
O7_4 Zn2_4 1_555 1_555
O8_4 Zn2_4 1_555 1_555
N4_2 C24_4 1_555 1_555
C16_4 C17_4 1_555 1_555
C17_4 H13_4 1_555 1_555
C18_4 C17_4 1_555 1_555
H14_4 C18_4 1_555 1_555
C19_4 C18_4 1_555 1_555
C20_4 C19_4 1_555 1_555
H15_4 C20_4 1_555 1_555
C21_4 C16_4 1_555 1_555
H16_4 C21_4 1_555 1_555
C22_4 C19_4 1_555 1_555
C23_4 C22_4 1_555 1_555
H17_4 C23_4 1_555 1_555
C24_4 C23_4 1_555 1_555
H18_4 C24_4 1_555 1_555
C25_4 N4_2 1_555 1_555
H19_4 C25_4 1_555 1_555
C26_4 C22_4 1_555 1_555
H20_4 C26_4 1_555 1_555
C27_4 O7_4 1_555 1_555
Zn2_4 O3_4 1_555 1_555
C10_4 C11_4 1_555 1_555
Zn6 O8_4 1_555 1_555
C16_4 C27_4 1_555 1_555
C20_4 C21_4 1_555 1_555
C25_4 C26_4 1_555 1_555
O12_2 C29_4 1_555 1_555
H21_4 C28_4 1_555 1_555
C29_4 O9_4 1_555 1_555
C30_4 C28_4 1_555 1_555
H23_4 C30_4 1_555 1_555
H24_4 C30_4 1_555 1_555
C28_4 C29_4 1_555 1_555

#END
