
###############################################################################
#
# This file contains modified crystal structure data generated from the
# MOF subset of the Cambridge Structural Database (CSD) v543 
# hosted by the Cambridge Crystallographic Data Centre (CCDC).
#
# This work is licensed under the Creative Commons
# Attribution-NonCommercial-ShareAlike 4.0 International License.
# To view a copy of this license, visit
# http://creativecommons.org/licenses/by-nc-sa/4.0/
# or send a letter to
# Creative Commons, PO Box 1866, Mountain View, CA 94042, USA.
#
# CIF created using the CSD Python API on 29 September 2022
# The structure has been converted into the P1 space group
# The structure has a 3D framework
# The original CSD entry LUYMUP is in the monoclinic crystal system
# The framework has been calculated to contain at least 10.0% void space
# The void calculation uses a probe of radius 1.32A, grid spacing 0.4
#
###############################################################################

data_LUYMUP
_chemical_formula_moiety         '(C52 H52 N16 O28 Pb4)n'
_symmetry_cell_setting           triclinic
_symmetry_space_group_name_H-M   'P 1'
_symmetry_Int_Tables_number      1
_space_group_name_Hall           'P 1'
loop_
_symmetry_equiv_pos_site_id
_symmetry_equiv_pos_as_xyz
1 x,y,z
_cell_length_a                   9.3515(6)
_cell_length_b                   26.1628(12)
_cell_length_c                   10.1410(6)
_cell_angle_alpha                90
_cell_angle_beta                 113.673(7)
_cell_angle_gamma                90
_cell_volume                     2272.33
loop_
_atom_site_label
_atom_site_type_symbol
_atom_site_fract_x
_atom_site_fract_y
_atom_site_fract_z
N3 N 0.3072(11) 0.1333(4) 0.1161(9)
O4 O 0.1981(10) 0.1195(3) 0.0036(7)
O5 O 0.3632(10) 0.1043(4) 0.2173(9)
O6 O 0.3603(11) 0.1776(4) 0.1203(10)
H12 H 0.5577 0.2290 0.0178
Pb1 Pb 0.13820(3) 0.201226(12) 0.83744(3)
O1 O 0.0822(8) 0.2384(3) 0.5738(7)
O7 O 0.3890(8) 0.2613(3) 0.8577(9)
C13 C 0.5467(15) 0.2526(6) 0.9404(18)
H11 H 0.5950 0.2380 0.8804
H13 H 0.5974 0.2847 0.9808
Pb6 Pb 0.13820(3) 0.298774(12) 0.33744(3)
N9 N 0.2589(8) 0.1376(3) 0.7141(8)
N1 N 0.9173(8) 0.1396(3) 0.7001(7)
C1 C 0.5655(9) 0.0285(3) 0.4654(8)
H1 H 0.5501 0.0292 0.3630
C2 C 0.3574(10) 0.0660(3) 0.5642(9)
C3 C 0.4045(9) 0.0270(3) 0.4767(8)
H2 H 0.3218 0.0262 0.3779
C4 C 0.3731(10) 0.1178(4) 0.5472(10)
H3 H 0.4167 0.1296 0.4840
C5 C 0.7400(9) 0.0732(3) 0.6962(8)
H4 H 0.7007 0.0521 0.7489
N2 N 0.9700(10) 0.2664(3) 0.5611(9)
C6 C 0.6860(9) 0.0680(3) 0.5494(8)
C7 C 0.7500(10) 0.1000(4) 0.4780(9)
H5 H 0.7166 0.0980 0.3775
C8 C 0.8652(11) 0.1351(4) 0.5579(10)
H6 H 0.9078 0.1565 0.5086
C9 C 0.3238(10) 0.1519(4) 0.6244(10)
H7 H 0.3368 0.1870 0.6130
O2 O 0.9152(10) 0.2645(3) 0.6520(9)
C10 C 0.2895(11) 0.0509(4) 0.6572(11)
H8 H 0.2749 0.0161 0.6703
O3 O 0.9133(10) 0.2944(3) 0.4531(9)
C11 C 0.8521(10) 0.1095(4) 0.7662(9)
H9 H 0.8841 0.1132 0.8662
C12 C 0.2438(12) 0.0872(4) 0.7296(10)
H10 H 0.1998 0.0763 0.7934
O16 O 0.9133(10) 0.2056(3) 0.9531(9)
N5 N 0.0827(8) 0.8604(3) 0.2999(7)
C14 C 0.4345(9) 0.9715(3) 0.5346(8)
H14 H 0.4499 0.9708 0.6370
C15 C 0.6426(10) 0.9340(3) 0.4358(9)
C16 C 0.5955(9) 0.9730(3) 0.5233(8)
H15 H 0.6782 0.9738 0.6221
C17 C 0.6269(10) 0.8822(4) 0.4528(10)
H16 H 0.5833 0.8704 0.5160
C18 C 0.2600(9) 0.9268(3) 0.3038(8)
H17 H 0.2993 0.9479 0.2511
C19 C 0.3140(9) 0.9320(3) 0.4506(8)
C20 C 0.2500(10) 0.9000(4) 0.5220(9)
H18 H 0.2834 0.9020 0.6225
C21 C 0.1348(11) 0.8649(4) 0.4421(10)
H19 H 0.0922 0.8435 0.4914
C22 C 0.6762(10) 0.8481(4) 0.3756(10)
H20 H 0.6632 0.8130 0.3870
C23 C 0.7105(11) 0.9491(4) 0.3428(11)
H21 H 0.7251 0.9839 0.3297
C24 C 0.1479(10) 0.8905(4) 0.2338(9)
H22 H 0.1159 0.8868 0.1338
C25 C 0.7562(12) 0.9128(4) 0.2704(10)
H23 H 0.8002 0.9237 0.2066
N6 N 0.7411(8) 0.8624(3) 0.2859(8)
N7 N 0.0300(10) 0.7336(3) 0.4389(9)
O9 O 0.0848(10) 0.7355(3) 0.3480(9)
O10 O 0.0867(10) 0.7056(3) 0.5469(9)
Pb5 Pb 0.86180(3) 0.798774(12) 0.16256(3)
O15 O 0.0867(10) 0.7944(3) 0.0469(9)
O8 O 0.9178(8) 0.7616(3) 0.4262(7)
O14 O 0.6110(8) 0.7387(3) 0.1423(9)
C26 C 0.4533(15) 0.7474(6) 0.0596(18)
H24 H 0.4050 0.7620 0.1196
H26 H 0.4026 0.7153 0.0192
Pb4 Pb 0.86180(3) 0.701226(12) 0.66256(3)
O8_2 O 0.0822(8) 0.2616(3) 0.0738(7)
N8 N 0.3072(11) 0.3667(4) 0.6161(9)
O11 O 0.1981(10) 0.3805(3) 0.5036(7)
O12 O 0.3632(10) 0.3957(4) 0.7173(9)
O13 O 0.3603(11) 0.3224(4) 0.6203(10)
O14_2 O 0.3890(8) 0.2387(3) 0.3577(9)
C26_2 C 0.5467(15) 0.2474(6) 0.4404(18)
H24_2 H 0.5950 0.2620 0.3804
H25 H 0.5577 0.2710 0.5178
H26_2 H 0.5974 0.2153 0.4808
N10 N 0.2589(8) 0.3624(3) 0.2141(8)
C1_2 C 0.4345(9) 0.5285(3) 0.0346(8)
H1_2 H 0.4499 0.5292 0.1370
C3_2 C 0.5955(9) 0.5270(3) 0.0233(8)
H2_2 H 0.6782 0.5262 0.1221
H3_2 H 0.5833 0.6296 0.0160
C7_2 C 0.2500(10) 0.6000(4) 0.0220(9)
H5_2 H 0.2834 0.5980 0.1225
N5_2 N 0.9173(8) 0.3604(3) 0.2001(7)
C15_2 C 0.3574(10) 0.4340(3) 0.0642(9)
C17_2 C 0.3731(10) 0.3822(4) 0.0472(10)
C18_2 C 0.7400(9) 0.4268(3) 0.1962(8)
H17_2 H 0.7007 0.4479 0.2489
C19_2 C 0.6860(9) 0.4320(3) 0.0494(8)
C21_2 C 0.8652(11) 0.3649(4) 0.0579(10)
H19_2 H 0.9078 0.3435 0.0086
C22_2 C 0.3238(10) 0.3481(4) 0.1244(10)
H20_2 H 0.3368 0.3130 0.1130
C23_2 C 0.2895(11) 0.4491(4) 0.1572(11)
H21_2 H 0.2749 0.4839 0.1703
C24_2 C 0.8521(10) 0.3905(4) 0.2662(9)
H22_2 H 0.8841 0.3868 0.3662
C25_2 C 0.2438(12) 0.4128(4) 0.2296(10)
H23_2 H 0.1998 0.4237 0.2934
N7_2 N 0.9700(10) 0.2336(3) 0.0611(9)
O9_2 O 0.9152(10) 0.2355(3) 0.1520(9)
N1_2 N 0.0827(8) 0.6396(3) 0.7999(7)
C2_2 C 0.6426(10) 0.5660(3) 0.9358(9)
C4_2 C 0.6269(10) 0.6178(4) 0.9528(10)
C5_2 C 0.2600(9) 0.5732(3) 0.8038(8)
H4_2 H 0.2993 0.5521 0.7511
N2_2 N 0.0300(10) 0.7664(3) 0.9389(9)
C6_2 C 0.3140(9) 0.5680(3) 0.9506(8)
C8_2 C 0.1348(11) 0.6351(4) 0.9421(10)
H6_2 H 0.0922 0.6565 0.9914
C9_2 C 0.6762(10) 0.6519(4) 0.8756(10)
H7_2 H 0.6632 0.6870 0.8870
O2_2 O 0.0848(10) 0.7645(3) 0.8480(9)
C10_2 C 0.7105(11) 0.5509(4) 0.8428(11)
H8_2 H 0.7251 0.5161 0.8297
C11_2 C 0.1479(10) 0.6095(4) 0.7338(9)
H9_2 H 0.1159 0.6132 0.6338
C12_2 C 0.7562(12) 0.5872(4) 0.7704(10)
H10_2 H 0.8002 0.5763 0.7066
N4 N 0.7411(8) 0.6376(3) 0.7859(8)
C14_2 C 0.5655(9) 0.4715(3) 0.9654(8)
H14_2 H 0.5501 0.4708 0.8630
C16_2 C 0.4045(9) 0.4730(3) 0.9767(8)
H15_2 H 0.3218 0.4738 0.8779
H16_2 H 0.4167 0.3704 0.9840
C20_2 C 0.7500(10) 0.4000(4) 0.9780(9)
H18_2 H 0.7166 0.4020 0.8775
O1_2 O 0.9178(8) 0.7384(3) 0.9262(7)
N3_2 N 0.6928(11) 0.6333(4) 0.3839(9)
O4_2 O 0.8019(10) 0.6195(3) 0.4964(7)
O5_2 O 0.6368(10) 0.6043(4) 0.2827(9)
O6_2 O 0.6397(11) 0.6776(4) 0.3797(10)
O7_2 O 0.6110(8) 0.7613(3) 0.6423(9)
C13_2 C 0.4533(15) 0.7526(6) 0.5596(18)
H11_2 H 0.4050 0.7380 0.6196
H12_2 H 0.4423 0.7290 0.4822
H13_2 H 0.4026 0.7847 0.5192
N8_2 N 0.6928(11) 0.8667(4) 0.8839(9)
O11_2 O 0.8019(10) 0.8805(3) 0.9964(7)
O12_2 O 0.6368(10) 0.8957(4) 0.7827(9)
O13_2 O 0.6397(11) 0.8224(4) 0.8797(10)
H25_2 H 0.4423 0.7710 0.9822
loop_
_geom_bond_atom_site_label_1
_geom_bond_atom_site_label_2
_geom_bond_site_symmetry_1
_geom_bond_site_symmetry_2
N3 O4 1_555 1_555
O5 N3 1_555 1_555
N3 O6 1_555 1_555
O1 Pb1 1_555 1_555
O7 Pb1 1_555 1_555
C13 O7 1_555 1_555
H11 C13 1_555 1_555
H13 C13 1_555 1_555
N9 Pb1 1_555 1_555
N1 C8 1_555 1_555
C1 H1 1_555 1_555
C2 C3 1_555 1_555
C3 C1 1_555 1_555
H2 C3 1_555 1_555
C4 C2 1_555 1_555
H3 C4 1_555 1_555
C5 H4 1_555 1_555
C6 C1 1_555 1_555
C7 C6 1_555 1_555
H5 C7 1_555 1_555
C8 C7 1_555 1_555
H6 C8 1_555 1_555
C9 C4 1_555 1_555
H7 C9 1_555 1_555
C10 C2 1_555 1_555
H8 C10 1_555 1_555
O3 N2 1_555 1_555
C11 N1 1_555 1_555
H9 C11 1_555 1_555
C12 C10 1_555 1_555
H10 C12 1_555 1_555
N9 C9 1_555 1_555
C5 C6 1_555 1_555
C5 C11 1_555 1_555
N2 O2 1_555 1_555
C12 N9 1_555 1_555
N5 C21 1_555 1_555
H14 C14 1_555 1_555
C15 C16 1_555 1_555
H15 C16 1_555 1_555
C17 C15 1_555 1_555
H16 C17 1_555 1_555
C18 H17 1_555 1_555
C19 C14 1_555 1_555
C20 C19 1_555 1_555
H18 C20 1_555 1_555
C21 C20 1_555 1_555
H19 C21 1_555 1_555
C22 C17 1_555 1_555
H20 C22 1_555 1_555
C23 C15 1_555 1_555
H21 C23 1_555 1_555
C24 N5 1_555 1_555
H22 C24 1_555 1_555
C25 C23 1_555 1_555
H23 C25 1_555 1_555
N6 C22 1_555 1_555
O10 N7 1_555 1_555
Pb5 N6 1_555 1_555
C14 C16 1_555 1_555
C18 C19 1_555 1_555
C18 C24 1_555 1_555
C25 N6 1_555 1_555
N7 O9 1_555 1_555
O8 Pb5 1_555 1_555
O14 Pb5 1_555 1_555
C26 O14 1_555 1_555
H24 C26 1_555 1_555
H26 C26 1_555 1_555
O8_2 Pb6 1_555 1_555
N8 O11 1_555 1_555
O11 Pb6 1_555 1_555
O12 N8 1_555 1_555
O13 Pb6 1_555 1_555
O14_2 Pb6 1_555 1_555
C26_2 O14_2 1_555 1_555
H24_2 C26_2 1_555 1_555
H25 C26_2 1_555 1_555
H26_2 C26_2 1_555 1_555
N10 Pb6 1_555 1_555
N8 O13 1_555 1_555
C1_2 H1_2 1_555 1_555
C3_2 C1_2 1_555 1_555
H2_2 C3_2 1_555 1_555
H5_2 C7_2 1_555 1_555
N5_2 C21_2 1_555 1_555
C17_2 C15_2 1_555 1_555
C18_2 H17_2 1_555 1_555
H19_2 C21_2 1_555 1_555
C22_2 C17_2 1_555 1_555
H20_2 C22_2 1_555 1_555
C23_2 C15_2 1_555 1_555
H21_2 C23_2 1_555 1_555
C24_2 N5_2 1_555 1_555
H22_2 C24_2 1_555 1_555
C25_2 C23_2 1_555 1_555
H23_2 C25_2 1_555 1_555
N10 C22_2 1_555 1_555
C18_2 C19_2 1_555 1_555
C18_2 C24_2 1_555 1_555
C25_2 N10 1_555 1_555
N7_2 O9_2 1_555 1_555
N1_2 C8_2 1_555 1_555
C4_2 C2_2 1_555 1_555
C5_2 H4_2 1_555 1_555
H6_2 C8_2 1_555 1_555
C9_2 C4_2 1_555 1_555
H7_2 C9_2 1_555 1_555
C10_2 C2_2 1_555 1_555
H8_2 C10_2 1_555 1_555
C11_2 N1_2 1_555 1_555
H9_2 C11_2 1_555 1_555
C12_2 C10_2 1_555 1_555
H10_2 C12_2 1_555 1_555
N4 C9_2 1_555 1_555
H14_2 C14_2 1_555 1_555
H15_2 C16_2 1_555 1_555
H18_2 C20_2 1_555 1_555
Pb4 N4 1_555 1_555
C5_2 C6_2 1_555 1_555
C5_2 C11_2 1_555 1_555
N2_2 O2_2 1_555 1_555
C12_2 N4 1_555 1_555
C14_2 C16_2 1_555 1_555
O1_2 Pb4 1_555 1_555
N3_2 O4_2 1_555 1_555
O4_2 Pb4 1_555 1_555
O5_2 N3_2 1_555 1_555
O6_2 Pb4 1_555 1_555
O7_2 Pb4 1_555 1_555
C13_2 O7_2 1_555 1_555
H11_2 C13_2 1_555 1_555
H12_2 C13_2 1_555 1_555
H13_2 C13_2 1_555 1_555
N3_2 O6_2 1_555 1_555
N8_2 O11_2 1_555 1_555
O12_2 N8_2 1_555 1_555
N8_2 O13_2 1_555 1_555

#END
