
###############################################################################
#
# This file contains modified crystal structure data generated from the
# MOF subset of the Cambridge Structural Database (CSD) v543 
# hosted by the Cambridge Crystallographic Data Centre (CCDC).
#
# This work is licensed under the Creative Commons
# Attribution-NonCommercial-ShareAlike 4.0 International License.
# To view a copy of this license, visit
# http://creativecommons.org/licenses/by-nc-sa/4.0/
# or send a letter to
# Creative Commons, PO Box 1866, Mountain View, CA 94042, USA.
#
# CIF created using the CSD Python API on 29 September 2022
# The structure has been converted into the P1 space group
# The structure has a 3D framework
# The original CSD entry MABFON is in the monoclinic crystal system
# The framework has been calculated to contain at least 10.0% void space
# The void calculation uses a probe of radius 1.32A, grid spacing 0.4
# The framework is charged, counterions have been retained in the structure
#
###############################################################################

data_MABFON
_chemical_formula_moiety         '(C84 H76 Cu10 Eu4 N12 O64)n'
_symmetry_cell_setting           triclinic
_symmetry_space_group_name_H-M   'P 1'
_symmetry_Int_Tables_number      1
_space_group_name_Hall           'P 1'
loop_
_symmetry_equiv_pos_site_id
_symmetry_equiv_pos_as_xyz
1 x,y,z
_cell_length_a                   11.7890(6)
_cell_length_b                   13.1340(6)
_cell_length_c                   19.5870(9)
_cell_angle_alpha                90
_cell_angle_beta                 96.2520(10)
_cell_angle_gamma                90
_cell_volume                     3014.75
loop_
_atom_site_label
_atom_site_type_symbol
_atom_site_fract_x
_atom_site_fract_y
_atom_site_fract_z
N3 N 0.3695(3) 0.0632(2) 0.17216(18)
O15 O 0.0714(2) 0.0969(2) 0.15137(16)
O16 O 0.1442(3) 0.3485(3) 0.20164(18)
O17 O 0.1257(3) 0.2965(3) 0.09340(18)
C15 C 0.2723(3) 0.1198(3) 0.16442(18)
C16 C 0.2745(3) 0.2256(3) 0.1681(2)
C17 C 0.3803(4) 0.2702(3) 0.1840(3)
H17 H 0.3854 0.3405 0.1892
C18 C 0.4779(3) 0.2127(3) 0.1924(3)
H18 H 0.5487 0.2436 0.2025
C19 C 0.4696(3) 0.1084(3) 0.1855(2)
H19 H 0.5356 0.0692 0.1904
C20 C 0.1657(3) 0.0553(3) 0.15500(19)
C21 C 0.1706(3) 0.2955(3) 0.1540(2)
Cu1 Cu 0.34037(4) 0.91590(3) 0.15670(3)
N1 N 0.3098(3) 0.7691(2) 0.15367(16)
C1 C 0.4070(3) 0.7136(3) 0.16182(17)
O1 O 0.4987(2) 0.87358(18) 0.16195(15)
H2 H 0.0437 0.8950 0.1463
O3 O 0.6066(2) 0.7349(2) 0.16125(14)
C2 C 0.4052(3) 0.6087(3) 0.16747(19)
O6 O 0.5358(3) 0.4896(2) 0.13048(14)
C3 C 0.2985(4) 0.5611(3) 0.1627(2)
H7 H 0.2941 0.4906 0.1657
O7 O 0.5650(3) 0.5461(2) 0.23707(15)
C4 C 0.1994(3) 0.6184(3) 0.1535(2)
H8 H 0.1282 0.5872 0.1504
C5 C 0.2086(3) 0.7217(3) 0.1492(2)
H11 H 0.1423 0.7605 0.1429
C6 C 0.5137(3) 0.7769(3) 0.16258(17)
C7 C 0.5115(3) 0.5439(3) 0.1783(2)
O14 O 0.1814(2) 0.9598(2) 0.15400(17)
Eu3 Eu 0.630614(15) 0.562056(13) 0.351915(9)
Cu7 Cu 0.5000 0.5000 0.0000
O40 O 0.3116(3) 0.9232(2) 0.03234(14)
Cu7_2 Cu 0.5000 0.5000 1.0000
Eu1 Eu 0.869386(15) 0.062056(13) 0.148085(9)
H3 H 0.8265 0.0331 0.0019
H4 H 0.9154 0.0752 0.0194
N2 N 0.4652(3) 0.3533(2) 0.00112(15)
O5 O 0.9073(3) 0.2214(3) 0.0990(2)
H5 H 0.8713 0.2438 0.0621
H6 H 0.9753 0.2435 0.1010
O8 O 0.7723(3) 0.1851(3) 0.21289(17)
H9 H 0.7737 0.2498 0.2137
H10 H 0.7718 0.1645 0.2540
O10 O 0.6569(2) 0.45199(18) 0.00270(15)
O11 O 0.7604(2) 0.3105(2) 0.00633(14)
O13 O 0.6986(2) 0.1077(2) 0.07965(13)
C8 C 0.5542(3) 0.1896(3) 0.00917(18)
C9 C 0.4462(3) 0.1456(3) 0.0067(2)
H14 H 0.4391 0.0752 0.0089
C10 C 0.3500(4) 0.2055(3) 0.0012(2)
C12 C 0.5594(3) 0.2953(3) 0.00587(17)
C13 C 0.6685(3) 0.3554(3) 0.00553(18)
C14 C 0.6575(3) 0.1204(3) 0.01853(19)
H34 H 0.7221 0.8238 0.0009
C32 C 0.6375(3) 0.6901(3) 0.0011(2)
H35 H 0.7021 0.6490 0.0043
O37 O 0.9350(3) 0.0461(2) 0.26293(15)
O12 O 0.6884(3) 0.0768(2) 0.96766(14)
H15 H 0.2779 0.1762 0.9991
C11 C 0.3625(3) 0.3099(3) 0.9989(2)
H16 H 0.2979 0.3510 0.9957
Eu2 Eu 0.130614(15) 0.937944(13) 0.851915(9)
H22 H 0.1735 0.9669 0.9981
H23 H 0.0846 0.9248 0.9806
N5 N 0.5348(3) 0.6467(2) 0.99888(15)
O22 O 0.0927(3) 0.7786(3) 0.9010(2)
H24 H 0.1287 0.7562 0.9379
H25 H 0.0247 0.7565 0.8990
O25 O 0.2277(3) 0.8149(3) 0.78711(17)
H28 H 0.2263 0.7502 0.7863
H29 H 0.2282 0.8355 0.7460
O27 O 0.3431(2) 0.54801(18) 0.99730(15)
O28 O 0.2396(2) 0.6895(2) 0.99367(14)
O30 O 0.3014(2) 0.8923(2) 0.92035(13)
C29 C 0.4458(3) 0.8104(3) 0.99083(18)
C30 C 0.5538(3) 0.8544(3) 0.9933(2)
H33 H 0.5609 0.9248 0.9911
C31 C 0.6500(4) 0.7945(3) 0.9988(2)
C33 C 0.4406(3) 0.7047(3) 0.99413(17)
C34 C 0.3315(3) 0.6446(3) 0.99447(18)
C35 C 0.3425(3) 0.8796(3) 0.98147(19)
Cu5 Cu 0.65963(4) 0.08410(3) 0.84330(3)
O36 O 0.4642(3) 0.5104(2) 0.86952(14)
O38 O 0.0650(3) 0.9539(2) 0.73707(15)
N4 N 0.6902(3) 0.2309(2) 0.84633(16)
C22 C 0.5930(3) 0.2864(3) 0.83818(17)
O18 O 0.5013(2) 0.12642(18) 0.83805(15)
H21 H 0.9563 0.1050 0.8537
O20 O 0.3934(2) 0.2651(2) 0.83875(14)
C23 C 0.5948(3) 0.3913(3) 0.83253(19)
C24 C 0.7015(4) 0.4389(3) 0.8373(2)
H26 H 0.7059 0.5094 0.8343
O24 O 0.4350(3) 0.4539(2) 0.76293(15)
C25 C 0.8006(3) 0.3816(3) 0.8465(2)
H27 H 0.8718 0.4128 0.8496
C26 C 0.7914(3) 0.2783(3) 0.8508(2)
H30 H 0.8577 0.2395 0.8571
C27 C 0.4863(3) 0.2231(3) 0.83742(17)
C28 C 0.4885(3) 0.4561(3) 0.8217(2)
O31 O 0.8186(2) 0.0402(2) 0.84600(17)
Eu4 Eu 0.369386(15) 0.437944(13) 0.648085(9)
O23 O 0.0358(3) 0.0104(2) 0.63048(14)
Cu6 Cu -0.0000 -0.0000 0.5000
O20_2 O 0.1066(2) 0.7651(2) 0.66125(14)
C27_2 C 0.0137(3) 0.7231(3) 0.66258(17)
C28_2 C 0.0115(3) 0.9561(3) 0.6783(2)
H37 H 0.0487 0.2564 0.7025
H38 H 0.0356 0.4308 0.6904
Cu6_2 Cu 0.0000 1.0000 0.5000
H26_2 H 0.7941 0.0094 0.6657
Cu6_3 Cu 1.0000 -0.0000 0.5000
Cu3 Cu 0.84037(4) 0.58410(3) 0.65670(3)
N4_2 N 0.8098(3) 0.7309(2) 0.65367(16)
C22_2 C 0.9070(3) 0.7864(3) 0.66182(17)
O18_2 O 0.9987(2) 0.62642(18) 0.66195(15)
O19 O 0.4588(3) 0.6068(2) 0.6592(2)
H20 H 0.4196 0.5745 0.6863
H21_2 H 0.5437 0.6050 0.6463
O21 O 0.3876(3) 0.5016(3) 0.53280(18)
H22_2 H 0.3265 0.4669 0.5019
H23_2 H 0.4154 0.4248 0.5194
C23_2 C 0.9052(3) 0.8913(3) 0.66747(19)
N6 N 0.8695(3) 0.4368(2) 0.67216(18)
O22_2 O 0.4073(3) 0.2786(3) 0.5990(2)
H24_2 H 0.3713 0.2562 0.5621
H25_2 H 0.4753 0.2565 0.6010
C24_2 C 0.7985(4) 0.9389(3) 0.6627(2)
C25_2 C 0.6994(3) 0.8816(3) 0.6535(2)
H27_2 H 0.6282 0.9128 0.6504
O25_2 O 0.2723(3) 0.3149(3) 0.71289(17)
H28_2 H 0.2737 0.2502 0.7137
H29_2 H 0.2718 0.3355 0.7540
C26_2 C 0.7086(3) 0.7783(3) 0.6492(2)
H30_2 H 0.6423 0.7395 0.6429
O26 O 0.2308(3) 0.5528(2) 0.68451(17)
H31 H 0.2624 0.5967 0.7123
H32 H 0.1613 0.5699 0.6751
O27_2 O 0.1569(2) 0.04801(18) 0.50270(15)
O28_2 O 0.2604(2) 0.1895(2) 0.50633(14)
O29 O 0.1884(3) 0.4232(2) 0.46766(14)
O30_2 O 0.1986(2) 0.3923(2) 0.57965(13)
C29_2 C 0.0542(3) 0.3104(3) 0.50917(18)
O31_2 O 0.6814(2) 0.5402(2) 0.65400(17)
O32 O 0.5714(2) 0.4031(2) 0.65137(16)
O33 O 0.6442(3) 0.1515(3) 0.70164(18)
C33_2 C 0.0594(3) 0.2047(3) 0.50587(17)
O34 O 0.6257(3) 0.2035(3) 0.59340(18)
C34_2 C 0.1685(3) 0.1446(3) 0.50553(18)
C35_2 C 0.1575(3) 0.3796(3) 0.51853(19)
C36 C 0.7723(3) 0.3802(3) 0.66442(18)
C37 C 0.7745(3) 0.2744(3) 0.6681(2)
C38 C 0.8803(4) 0.2298(3) 0.6840(3)
H36 H 0.8854 0.1595 0.6892
C39 C 0.9779(3) 0.2873(3) 0.6924(3)
C40 C 0.9696(3) 0.3916(3) 0.6855(2)
C41 C 0.6657(3) 0.4447(3) 0.65500(19)
C42 C 0.6706(3) 0.2045(3) 0.6540(2)
Cu4 Cu 0.15963(4) 0.41590(3) 0.34330(3)
Cu6_4 Cu 1.0000 1.0000 0.5000
O39 O 0.8116(3) 0.5768(2) 0.53234(14)
N2_2 N 0.0348(3) 0.8533(2) 0.49888(15)
C9_2 C 0.0538(3) 0.6456(3) 0.4933(2)
H14_2 H 0.0609 0.5752 0.4911
C10_2 C 0.1500(4) 0.7055(3) 0.4988(2)
H15_2 H 0.2221 0.6762 0.5009
C11_2 C 0.1375(3) 0.8099(3) 0.5011(2)
H16_2 H 0.2021 0.8510 0.5043
N5_2 N 0.9652(3) 0.1467(2) 0.50112(15)
C30_2 C 0.9462(3) 0.3544(3) 0.5067(2)
H33_2 H 0.9391 0.4248 0.5089
C31_2 C 0.8500(4) 0.2945(3) 0.5012(2)
H34_2 H 0.7779 0.3238 0.4991
C32_2 C 0.8625(3) 0.1901(3) 0.4989(2)
H35_2 H 0.7979 0.1490 0.4957
N1_2 N 0.1902(3) 0.2691(2) 0.34633(16)
C1_2 C 0.0930(3) 0.2136(3) 0.33818(17)
O1_2 O 0.0013(2) 0.37358(18) 0.33805(15)
O2 O 0.5412(3) 0.3932(2) 0.3408(2)
H1 H 0.5804 0.4255 0.3137
H2_2 H 0.4563 0.3950 0.3537
O4 O 0.6124(3) 0.4984(3) 0.46720(18)
H3_2 H 0.6735 0.5331 0.4981
H4_2 H 0.5846 0.5752 0.4806
C2_2 C 0.0948(3) 0.1087(3) 0.33253(19)
N3_2 N 0.1305(3) 0.5632(2) 0.32784(18)
O5_2 O 0.5927(3) 0.7214(3) 0.4010(2)
H5_2 H 0.6287 0.7438 0.4379
H6_2 H 0.5247 0.7435 0.3990
C3_2 C 0.2015(4) 0.0611(3) 0.3373(2)
C4_2 C 0.3006(3) 0.1184(3) 0.3465(2)
H8_2 H 0.3718 0.0872 0.3496
O8_2 O 0.7277(3) 0.6851(3) 0.28711(17)
H9_2 H 0.7263 0.7498 0.2863
H10_2 H 0.7282 0.6645 0.2460
C5_2 C 0.2914(3) 0.2217(3) 0.3508(2)
H11_2 H 0.3577 0.2605 0.3571
O9 O 0.7692(3) 0.4472(2) 0.31549(17)
H12 H 0.7376 0.4033 0.2877
H13 H 0.8387 0.4301 0.3249
O10_2 O 0.8431(2) 0.95199(18) 0.49730(15)
O11_2 O 0.7396(2) 0.8105(2) 0.49367(14)
O13_2 O 0.8014(2) 0.6077(2) 0.42035(13)
C8_2 C 0.9458(3) 0.6896(3) 0.49083(18)
O14_2 O 0.3186(2) 0.4598(2) 0.34600(17)
O15_2 O 0.4286(2) 0.5969(2) 0.34863(16)
O16_2 O 0.3558(3) 0.8485(3) 0.29836(18)
C12_2 C 0.9406(3) 0.7953(3) 0.49413(17)
O17_2 O 0.3743(3) 0.7965(3) 0.40660(18)
C13_2 C 0.8315(3) 0.8554(3) 0.49447(18)
C14_2 C 0.8425(3) 0.6204(3) 0.48147(19)
C15_2 C 0.2277(3) 0.6198(3) 0.33558(18)
C16_2 C 0.2255(3) 0.7256(3) 0.3319(2)
C17_2 C 0.1197(4) 0.7702(3) 0.3160(3)
H17_2 H 0.1146 0.8405 0.3108
C18_2 C 0.0221(3) 0.7127(3) 0.3076(3)
C19_2 C 0.0304(3) 0.6084(3) 0.3145(2)
C20_2 C 0.3343(3) 0.5553(3) 0.34500(19)
C21_2 C 0.3294(3) 0.7955(3) 0.3460(2)
O35 O 0.9642(3) 0.9896(2) 0.36952(14)
H7_2 H 0.2059 0.9906 0.3343
O3_2 O 0.8934(2) 0.2349(2) 0.33875(14)
C6_2 C 0.9863(3) 0.2769(3) 0.33742(17)
C7_2 C 0.9885(3) 0.0439(3) 0.3217(2)
H18_2 H 0.9513 0.7436 0.2975
H19_2 H 0.9644 0.5692 0.3096
O19_2 O 0.0412(3) 0.1068(2) 0.8408(2)
H20_2 H 0.0804 0.0745 0.8137
O21_2 O 0.1124(3) 0.0016(3) 0.96720(18)
O26_2 O 0.2692(3) 0.0528(2) 0.81549(17)
H31_2 H 0.2376 0.0967 0.7877
H32_2 H 0.3387 0.0699 0.8249
O2_2 O 0.9588(3) 0.8932(2) 0.1592(2)
H1_2 H 0.9196 0.9255 0.1863
O4_2 O 0.8876(3) 0.9984(3) 0.03280(18)
O9_2 O 0.7308(3) 0.9472(2) 0.18451(17)
H12_2 H 0.7624 0.9033 0.2123
H13_2 H 0.6613 0.9301 0.1751
N6_2 N 0.6305(3) 0.9368(2) 0.82784(18)
O32_2 O 0.9286(2) 0.9031(2) 0.84863(16)
O33_2 O 0.8558(3) 0.6515(3) 0.79836(18)
O34_2 O 0.8743(3) 0.7035(3) 0.90660(18)
C36_2 C 0.7277(3) 0.8802(3) 0.83558(18)
C37_2 C 0.7255(3) 0.7744(3) 0.8319(2)
C38_2 C 0.6197(4) 0.7298(3) 0.8160(3)
H36_2 H 0.6146 0.6595 0.8108
C39_2 C 0.5221(3) 0.7873(3) 0.8076(3)
H37_2 H 0.4513 0.7564 0.7975
C40_2 C 0.5304(3) 0.8916(3) 0.8145(2)
H38_2 H 0.4644 0.9308 0.8096
C41_2 C 0.8343(3) 0.9447(3) 0.84500(19)
C42_2 C 0.8294(3) 0.7045(3) 0.8460(2)
loop_
_geom_bond_atom_site_label_1
_geom_bond_atom_site_label_2
_geom_bond_site_symmetry_1
_geom_bond_site_symmetry_2
O16 C21 1_555 1_555
O17 C21 1_555 1_555
C15 N3 1_555 1_555
C16 C15 1_555 1_555
C17 C16 1_555 1_555
H17 C17 1_555 1_555
C18 C17 1_555 1_555
H18 C18 1_555 1_555
C19 N3 1_555 1_555
H19 C19 1_555 1_555
C21 C16 1_555 1_555
O15 C20 1_555 1_555
C15 C20 1_555 1_555
C18 C19 1_555 1_555
Cu1 N1 1_555 1_555
N1 C1 1_555 1_555
C1 C2 1_555 1_555
O1 Cu1 1_555 1_555
O3 C6 1_555 1_555
C2 C3 1_555 1_555
O6 C7 1_555 1_555
C3 H7 1_555 1_555
O7 C7 1_555 1_555
C4 C3 1_555 1_555
H8 C4 1_555 1_555
C5 N1 1_555 1_555
H11 C5 1_555 1_555
C6 C1 1_555 1_555
C7 C2 1_555 1_555
O14 Cu1 1_555 1_555
Eu3 O7 1_555 1_555
Cu7 O6 1_555 1_555
O40 Cu1 1_555 1_555
O1 C6 1_555 1_555
C4 C5 1_555 1_555
Cu7 N2 1_555 1_555
O5 Eu1 1_555 1_555
H5 O5 1_555 1_555
H6 O5 1_555 1_555
O8 Eu1 1_555 1_555
H9 O8 1_555 1_555
H10 O8 1_555 1_555
O10 Cu7 1_555 1_555
O11 C13 1_555 1_555
O13 Eu1 1_555 1_555
C8 C9 1_555 1_555
C9 H14 1_555 1_555
C10 C9 1_555 1_555
C12 N2 1_555 1_555
C13 O10 1_555 1_555
C14 O13 1_555 1_555
H35 C32 1_555 1_555
O37 Eu1 1_555 1_555
C8 C12 1_555 1_555
C8 C14 1_555 1_555
C12 C13 1_555 1_555
H16 C11 1_555 1_555
N5 Cu7_2 1_555 1_555
O22 Eu2 1_555 1_555
H24 O22 1_555 1_555
H25 O22 1_555 1_555
O25 Eu2 1_555 1_555
H28 O25 1_555 1_555
H29 O25 1_555 1_555
O27 Cu7_2 1_555 1_555
O28 C34 1_555 1_555
O30 Eu2 1_555 1_555
C29 C30 1_555 1_555
C30 H33 1_555 1_555
C31 C30 1_555 1_555
C33 N5 1_555 1_555
C34 O27 1_555 1_555
C35 O30 1_555 1_555
Cu5 O12 1_555 1_555
O36 Cu7_2 1_555 1_555
O38 Eu2 1_555 1_555
C29 C33 1_555 1_555
C29 C35 1_555 1_555
C33 C34 1_555 1_555
Cu5 N4 1_555 1_555
N4 C22 1_555 1_555
C22 C23 1_555 1_555
O18 Cu5 1_555 1_555
O20 C27 1_555 1_555
C23 C24 1_555 1_555
O36 C28 1_555 1_555
C24 H26 1_555 1_555
O24 C28 1_555 1_555
C25 C24 1_555 1_555
H27 C25 1_555 1_555
C26 N4 1_555 1_555
H30 C26 1_555 1_555
C27 C22 1_555 1_555
C28 C23 1_555 1_555
O31 Cu5 1_555 1_555
Eu4 O24 1_555 1_555
O18 C27 1_555 1_555
C25 C26 1_555 1_555
Cu6 O23 1_555 1_555
O20_2 C27_2 1_555 1_555
O38 C28_2 1_555 1_555
Eu4 O19 1_555 1_555
Cu3 N4_2 1_555 1_555
N4_2 C22_2 1_555 1_555
C22_2 C23_2 1_555 1_555
O18_2 Cu3 1_555 1_555
O19 H20 1_555 1_555
H21_2 O19 1_555 1_555
O21 Eu4 1_555 1_555
H22_2 O21 1_555 1_555
H23_2 O21 1_555 1_555
C23_2 C24_2 1_555 1_555
N6 Cu3 1_555 1_555
O22_2 Eu4 1_555 1_555
H24_2 O22_2 1_555 1_555
H25_2 O22_2 1_555 1_555
C25_2 C24_2 1_555 1_555
H27_2 C25_2 1_555 1_555
O25_2 Eu4 1_555 1_555
H28_2 O25_2 1_555 1_555
H29_2 O25_2 1_555 1_555
C26_2 N4_2 1_555 1_555
H30_2 C26_2 1_555 1_555
O26 Eu4 1_555 1_555
H31 O26 1_555 1_555
H32 O26 1_555 1_555
O27_2 Cu6 1_555 1_555
O28_2 C34_2 1_555 1_555
O29 C35_2 1_555 1_555
O30_2 Eu4 1_555 1_555
O31_2 Cu3 1_555 1_555
O32 Eu4 1_555 1_555
O33 C42 1_555 1_555
O34 C42 1_555 1_555
C34_2 O27_2 1_555 1_555
C35_2 O30_2 1_555 1_555
C36 N6 1_555 1_555
C37 C36 1_555 1_555
C38 C37 1_555 1_555
H36 C38 1_555 1_555
C39 C38 1_555 1_555
C40 N6 1_555 1_555
C41 O31_2 1_555 1_555
C42 C37 1_555 1_555
Cu4 O29 1_555 1_555
O39 Cu3 1_555 1_555
C25_2 C26_2 1_555 1_555
C29_2 C33_2 1_555 1_555
C29_2 C35_2 1_555 1_555
O32 C41 1_555 1_555
C33_2 C34_2 1_555 1_555
C36 C41 1_555 1_555
C39 C40 1_555 1_555
Cu6_2 N2_2 1_555 1_555
N2_2 C11_2 1_555 1_555
C9_2 H14_2 1_555 1_555
C10_2 C9_2 1_555 1_555
H15_2 C10_2 1_555 1_555
C11_2 C10_2 1_555 1_555
H16_2 C11_2 1_555 1_555
N5_2 Cu6_3 1_555 1_555
C30_2 H33_2 1_555 1_555
C31_2 C30_2 1_555 1_555
H34_2 C31_2 1_555 1_555
C32_2 N5_2 1_555 1_555
H35_2 C32_2 1_555 1_555
C31_2 C32_2 1_555 1_555
Eu3 O2 1_555 1_555
Cu4 N1_2 1_555 1_555
N1_2 C1_2 1_555 1_555
C1_2 C2_2 1_555 1_555
O1_2 Cu4 1_555 1_555
O2 H1 1_555 1_555
H2_2 O2 1_555 1_555
O4 Eu3 1_555 1_555
H3_2 O4 1_555 1_555
H4_2 O4 1_555 1_555
C2_2 C3_2 1_555 1_555
N3_2 Cu4 1_555 1_555
O5_2 Eu3 1_555 1_555
H5_2 O5_2 1_555 1_555
H6_2 O5_2 1_555 1_555
C4_2 C3_2 1_555 1_555
H8_2 C4_2 1_555 1_555
O8_2 Eu3 1_555 1_555
H9_2 O8_2 1_555 1_555
H10_2 O8_2 1_555 1_555
C5_2 N1_2 1_555 1_555
H11_2 C5_2 1_555 1_555
O9 Eu3 1_555 1_555
H12 O9 1_555 1_555
H13 O9 1_555 1_555
O10_2 Cu6_4 1_555 1_555
O11_2 C13_2 1_555 1_555
O39 C14_2 1_555 1_555
O13_2 Eu3 1_555 1_555
O14_2 Cu4 1_555 1_555
O15_2 Eu3 1_555 1_555
O16_2 C21_2 1_555 1_555
O17_2 C21_2 1_555 1_555
C13_2 O10_2 1_555 1_555
C14_2 O13_2 1_555 1_555
C15_2 N3_2 1_555 1_555
C16_2 C15_2 1_555 1_555
C17_2 C16_2 1_555 1_555
H17_2 C17_2 1_555 1_555
C18_2 C17_2 1_555 1_555
C19_2 N3_2 1_555 1_555
C20_2 O14_2 1_555 1_555
C21_2 C16_2 1_555 1_555
O35 Cu6_4 1_555 1_555
C4_2 C5_2 1_555 1_555
C8_2 C12_2 1_555 1_555
C8_2 C14_2 1_555 1_555
O15_2 C20_2 1_555 1_555
C12_2 C13_2 1_555 1_555
C15_2 C20_2 1_555 1_555
C18_2 C19_2 1_555 1_555
O3_2 C6_2 1_555 1_555
O37 C7_2 1_555 1_555
O19_2 H20_2 1_555 1_555
H31_2 O26_2 1_555 1_555
H32_2 O26_2 1_555 1_555
O2_2 H1_2 1_555 1_555
H12_2 O9_2 1_555 1_555
H13_2 O9_2 1_555 1_555
O33_2 C42_2 1_555 1_555
O34_2 C42_2 1_555 1_555
C36_2 N6_2 1_555 1_555
C37_2 C36_2 1_555 1_555
C38_2 C37_2 1_555 1_555
H36_2 C38_2 1_555 1_555
C39_2 C38_2 1_555 1_555
H37_2 C39_2 1_555 1_555
C40_2 N6_2 1_555 1_555
H38_2 C40_2 1_555 1_555
C42_2 C37_2 1_555 1_555
O32_2 C41_2 1_555 1_555
C36_2 C41_2 1_555 1_555
C39_2 C40_2 1_555 1_555

#END
