
###############################################################################
#
# This file contains modified crystal structure data generated from the
# MOF subset of the Cambridge Structural Database (CSD) v543 
# hosted by the Cambridge Crystallographic Data Centre (CCDC).
#
# This work is licensed under the Creative Commons
# Attribution-NonCommercial-ShareAlike 4.0 International License.
# To view a copy of this license, visit
# http://creativecommons.org/licenses/by-nc-sa/4.0/
# or send a letter to
# Creative Commons, PO Box 1866, Mountain View, CA 94042, USA.
#
# CIF created using the CSD Python API on 29 September 2022
# The structure has been converted into the P1 space group
# The structure has a 3D framework
# The original CSD entry MABFUT is in the monoclinic crystal system
# The framework has been calculated to contain at least 10.0% void space
# The void calculation uses a probe of radius 1.32A, grid spacing 0.4
# The framework is charged, counterions have been retained in the structure
#
###############################################################################

data_MABFUT
_chemical_formula_moiety         '(C84 H76 Cu12 N11 O67 Tb4 6+)n'
_symmetry_cell_setting           triclinic
_symmetry_space_group_name_H-M   'P 1'
_symmetry_Int_Tables_number      1
_space_group_name_Hall           'P 1'
loop_
_symmetry_equiv_pos_site_id
_symmetry_equiv_pos_as_xyz
1 x,y,z
_cell_length_a                   11.7257(5)
_cell_length_b                   13.1380(6)
_cell_length_c                   19.3893(8)
_cell_angle_alpha                90
_cell_angle_beta                 95.6430(10)
_cell_angle_gamma                90
_cell_volume                     2972.49
loop_
_atom_site_label
_atom_site_type_symbol
_atom_site_fract_x
_atom_site_fract_y
_atom_site_fract_z
Tb1 Tb 0.130091(14) 0.060926(13) 0.353975(9)
Cu2 Cu 0.5000 0.5000 0.5000
N2 N 0.5349(3) 0.3533(2) 0.49929(15)
O5 O 0.0897(3) 0.2138(3) 0.4070(3)
H6 H 0.1333 0.2408 0.4396
H7 H 0.0209 0.2267 0.4144
O8 O 0.2238(3) 0.1836(3) 0.28941(18)
H9 H 0.2346 0.2475 0.2885
H10 H 0.2133 0.1629 0.2478
O9 O 0.3426(2) 0.45249(18) 0.49790(15)
O11 O 0.2377(2) 0.3111(2) 0.49333(14)
O12 O 0.3098(3) 0.0774(2) 0.53399(14)
O13 O 0.3000(2) 0.1075(2) 0.42060(13)
C8 C 0.4397(3) 0.2952(2) 0.49447(17)
C9 C 0.4455(3) 0.1899(3) 0.49098(18)
C10 C 0.5532(3) 0.1458(3) 0.4938(2)
H14 H 0.5600 0.0753 0.4918
C11 C 0.6500(3) 0.2055(3) 0.4997(2)
H15 H 0.7225 0.1762 0.5023
C12 C 0.6374(3) 0.3101(3) 0.5015(2)
H16 H 0.7024 0.3511 0.5044
C13 C 0.3297(3) 0.3560(3) 0.49444(18)
C14 C 0.3419(3) 0.1209(2) 0.48204(19)
C22 C 0.4077(3) 0.2877(3) 0.66375(18)
O18 O 0.5002(2) 0.12824(19) 0.66332(15)
N4 N 0.3106(3) 0.2324(2) 0.65518(16)
H21 H 0.0298 0.0987 0.6535
Cu3 Cu 0.34120(4) 0.08599(3) 0.65894(3)
O20 O 0.6084(2) 0.2667(2) 0.66262(14)
C23 C 0.4059(3) 0.3928(3) 0.66891(19)
C24 C 0.2992(3) 0.4406(3) 0.6637(2)
H24 H 0.2948 0.5111 0.6667
O23 O 0.5365(3) 0.5128(2) 0.63198(14)
O24 O 0.5659(3) 0.4554(2) 0.73936(15)
C25 C 0.2003(4) 0.3835(3) 0.6541(2)
H27 H 0.1289 0.4150 0.6503
C26 C 0.2087(3) 0.2799(3) 0.6501(2)
H30 H 0.1420 0.2412 0.6438
C27 C 0.5149(3) 0.2246(3) 0.66408(17)
C28 C 0.5126(3) 0.4579(3) 0.6799(2)
O31 O 0.1817(2) 0.04170(19) 0.65685(17)
Tb4 Tb 0.630091(14) 0.439074(13) 0.853975(9)
N7 N 0.4651(3) 0.6467(2) 0.50071(15)
O35 O 0.4635(3) 0.4872(2) 0.36802(14)
O36 O 0.0659(3) 0.0446(2) 0.23936(15)
O38 O 0.6574(2) 0.54751(18) 0.50210(15)
C1 C 0.5923(3) 0.7123(3) 0.33625(18)
O1 O 0.4998(2) 0.87176(19) 0.33668(15)
N1 N 0.6894(3) 0.7676(2) 0.34482(16)
H2 H 0.9702 0.9013 0.3465
Cu1 Cu 0.65880(4) 0.91401(3) 0.34106(3)
O3 O 0.3916(2) 0.7333(2) 0.33738(14)
C2 C 0.5941(3) 0.6072(3) 0.33109(19)
C3 C 0.7008(3) 0.5594(3) 0.3363(2)
H5 H 0.7052 0.4889 0.3333
O7 O 0.4341(3) 0.5446(2) 0.26064(15)
C4 C 0.7997(4) 0.6165(3) 0.3459(2)
H8 H 0.8711 0.5850 0.3497
C5 C 0.7913(3) 0.7201(3) 0.3499(2)
H11 H 0.8580 0.7588 0.3562
C6 C 0.4851(3) 0.7754(3) 0.33592(17)
C7 C 0.4874(3) 0.5421(3) 0.3201(2)
O14 O 0.8183(2) 0.95830(19) 0.34315(17)
Tb2 Tb 0.869909(14) 0.939074(13) 0.646025(9)
O22 O 0.9103(3) 0.7862(3) 0.5930(3)
H25 H 0.8667 0.7592 0.5604
H26 H 0.9791 0.7733 0.5856
O25 O 0.7762(3) 0.8164(3) 0.71059(18)
H28 H 0.7654 0.7525 0.7115
H29 H 0.7867 0.8371 0.7522
O28 O 0.7623(2) 0.6889(2) 0.50667(14)
O29 O 0.6902(3) 0.9226(2) 0.46601(14)
O30 O 0.7000(2) 0.8925(2) 0.57940(13)
C29 C 0.5603(3) 0.7048(2) 0.50553(17)
C30 C 0.5545(3) 0.8101(3) 0.50902(18)
C31 C 0.4468(3) 0.8542(3) 0.5062(2)
H33 H 0.4400 0.9247 0.5082
C32 C 0.3500(3) 0.7945(3) 0.5003(2)
H34 H 0.2775 0.8238 0.4977
C33 C 0.3626(3) 0.6899(3) 0.4985(2)
H35 H 0.2976 0.6489 0.4956
C34 C 0.6703(3) 0.6440(3) 0.50556(18)
C35 C 0.6581(3) 0.8791(2) 0.51796(19)
Tb3 Tb 0.369909(14) 0.560926(13) 0.146025(9)
O37 O 0.9341(3) 0.9554(2) 0.76064(15)
O1_2 O 0.0002(2) 0.37176(19) 0.16332(15)
O3_2 O 0.1084(2) 0.2333(2) 0.16262(14)
C6_2 C 0.0149(3) 0.2754(3) 0.16408(17)
C7_2 C 0.0126(3) 0.0421(3) 0.1799(2)
H18 H 0.0506 0.7419 0.2034
H19 H 0.0369 0.5674 0.1921
H34_2 H 0.2225 0.3238 0.0023
C33_2 C 0.1374(3) 0.1899(3) 0.0015(2)
H35_2 H 0.2024 0.1489 0.0044
Cu4 Cu -0.0000 0.0000 0.0000
O6 O 0.0365(3) 0.9872(2) 0.13198(14)
Cu4_2 Cu -0.0000 1.0000 0.0000
Cu4_3 Cu -0.0000 1.0000 1.0000
C1_2 C 0.9077(3) 0.2123(3) 0.16375(18)
N1_2 N 0.8106(3) 0.2676(2) 0.15518(16)
O2 O 0.4581(3) 0.3946(2) 0.1558(2)
H1 H 0.4478 0.3611 0.1914
H2_2 H 0.5298 0.4013 0.1535
Cu1_2 Cu 0.84120(4) 0.41401(3) 0.15894(3)
C2_2 C 0.9059(3) 0.1072(3) 0.16891(19)
O4 O 0.3854(3) 0.4962(4) 0.03103(19)
H4 H 0.4311 0.4480 0.0436
C3_2 C 0.7992(3) 0.0594(3) 0.1637(2)
N3 N 0.8700(3) 0.5615(2) 0.17366(18)
O5_2 O 0.4103(3) 0.7138(3) 0.0930(3)
H6_2 H 0.3667 0.7408 0.0604
H7_2 H 0.4791 0.7267 0.0856
C4_2 C 0.7003(4) 0.1165(3) 0.1541(2)
H8_2 H 0.6289 0.0850 0.1503
O8_2 O 0.2762(3) 0.6836(3) 0.21059(18)
H9_2 H 0.2654 0.7475 0.2115
H10_2 H 0.2867 0.6629 0.2522
O9_2 O 0.1574(2) 0.95249(18) 0.00210(15)
C5_2 C 0.7087(3) 0.2201(3) 0.1501(2)
H11_2 H 0.6420 0.2588 0.1438
O10 O 0.2326(3) 0.4476(2) 0.18314(16)
H12 H 0.2231 0.4634 0.2251
H13 H 0.1663 0.4294 0.1642
O11_2 O 0.2623(2) 0.8111(2) 0.00667(14)
O13_2 O 0.2000(2) 0.6075(2) 0.07940(13)
C8_2 C 0.0603(3) 0.7952(2) 0.00553(17)
O14_2 O 0.6817(2) 0.45830(19) 0.15685(17)
C9_2 C 0.0545(3) 0.6899(3) 0.00902(18)
O15 O 0.5713(2) 0.5948(2) 0.15012(16)
O16 O 0.6433(3) 0.8483(3) 0.19939(19)
O17 O 0.6272(3) 0.7932(3) 0.09080(18)
C13_2 C 0.1703(3) 0.8560(3) 0.00556(18)
C14_2 C 0.1581(3) 0.6209(2) 0.01796(19)
C15 C 0.7729(3) 0.6183(3) 0.16467(19)
C16 C 0.7749(3) 0.7234(3) 0.1675(2)
C17 C 0.8810(4) 0.7687(3) 0.1833(3)
H17 H 0.8858 0.8391 0.1875
C18 C 0.9796(4) 0.7111(3) 0.1930(3)
C19 C 0.9707(3) 0.6069(3) 0.1869(2)
C20 C 0.6657(3) 0.5539(3) 0.15583(19)
C21 C 0.6701(3) 0.7933(3) 0.1522(2)
H22 H 0.6427 0.5159 0.0102
O29_2 O 0.8098(3) 0.4226(2) 0.03399(14)
Cu4_4 Cu 1.0000 0.0000 0.0000
H3 H 0.3573 0.4841 0.9898
O12_2 O 0.1902(3) 0.5774(2) 0.96601(14)
C22_2 C 0.0923(3) 0.7877(3) 0.83625(18)
N4_2 N 0.1894(3) 0.7324(2) 0.84482(16)
O19 O 0.5419(3) 0.6054(2) 0.8442(2)
H20 H 0.5522 0.6389 0.8086
H21_2 H 0.4702 0.5987 0.8465
Cu3_2 Cu 0.15880(4) 0.58599(3) 0.84106(3)
C23_2 C 0.0941(3) 0.8928(3) 0.83109(19)
O21 O 0.6146(3) 0.5038(4) 0.96897(19)
H23 H 0.5689 0.5520 0.9564
C24_2 C 0.2008(3) 0.9406(3) 0.8363(2)
N6 N 0.1300(3) 0.4385(2) 0.82634(18)
O22_2 O 0.5897(3) 0.2862(3) 0.9070(3)
H25_2 H 0.6333 0.2592 0.9396
H26_2 H 0.5209 0.2733 0.9144
C25_2 C 0.2997(4) 0.8835(3) 0.8459(2)
H27_2 H 0.3711 0.9150 0.8497
O25_2 O 0.7238(3) 0.3164(3) 0.78941(18)
H28_2 H 0.7346 0.2525 0.7885
H29_2 H 0.7133 0.3371 0.7478
O26 O 0.8426(2) 0.04751(18) 0.99790(15)
C26_2 C 0.2913(3) 0.7799(3) 0.8499(2)
H30_2 H 0.3580 0.7412 0.8562
O27 O 0.7674(3) 0.5524(2) 0.81686(16)
H31 H 0.7769 0.5366 0.7749
H32 H 0.8337 0.5706 0.8358
O28_2 O 0.7377(2) 0.1889(2) 0.99333(14)
O30_2 O 0.8000(2) 0.3925(2) 0.92060(13)
C29_2 C 0.9397(3) 0.2048(2) 0.99447(17)
O31_2 O 0.3183(2) 0.54170(19) 0.84315(17)
C30_2 C 0.9455(3) 0.3101(3) 0.99098(18)
O32 O 0.4287(2) 0.4052(2) 0.84988(16)
O33 O 0.3567(3) 0.1517(3) 0.80061(19)
O34 O 0.3728(3) 0.2068(3) 0.90920(18)
C34_2 C 0.8297(3) 0.1440(3) 0.99444(18)
C35_2 C 0.8419(3) 0.3791(2) 0.98204(19)
C36 C 0.2271(3) 0.3817(3) 0.83533(19)
C37 C 0.2251(3) 0.2766(3) 0.8325(2)
C38 C 0.1190(4) 0.2313(3) 0.8167(3)
H36 H 0.1142 0.1609 0.8125
C39 C 0.0204(4) 0.2889(3) 0.8070(3)
C40 C 0.0293(3) 0.3931(3) 0.8131(2)
C41 C 0.3343(3) 0.4461(3) 0.84417(19)
C42 C 0.3299(3) 0.2067(3) 0.8478(2)
Cu4_5 Cu 1.0000 0.0000 1.0000
Cu4_6 Cu 1.0000 1.0000 1.0000
O23_2 O 0.9635(3) 0.0128(2) 0.86802(14)
H15_2 H 0.7775 0.6762 0.9977
C12_2 C 0.8626(3) 0.8101(3) 0.9985(2)
H16_2 H 0.7976 0.8511 0.9956
O18_2 O 0.9998(2) 0.62824(19) 0.83668(15)
O20_2 O 0.8916(2) 0.7667(2) 0.83738(14)
C27_2 C 0.9851(3) 0.7246(3) 0.83592(17)
C28_2 C 0.9874(3) 0.9579(3) 0.8201(2)
H37 H 0.9494 0.2581 0.7966
H38 H 0.9631 0.4326 0.8079
O2_2 O 0.0419(3) 0.8946(2) 0.3442(2)
H1_2 H 0.0522 0.8611 0.3086
O4_2 O 0.1146(3) 0.9962(4) 0.46897(19)
H3_2 H 0.1427 0.9841 0.5102
H4_2 H 0.0689 0.9480 0.4564
O10_2 O 0.2674(3) 0.9476(2) 0.31686(16)
H12_2 H 0.2769 0.9634 0.2749
H13_2 H 0.3337 0.9294 0.3358
N6_2 N 0.3700(3) 0.9385(2) 0.67366(18)
O32_2 O 0.0713(2) 0.9052(2) 0.65012(16)
O33_2 O 0.1433(3) 0.6517(3) 0.69939(19)
O34_2 O 0.1272(3) 0.7068(3) 0.59080(18)
C36_2 C 0.2729(3) 0.8817(3) 0.66467(19)
C37_2 C 0.2749(3) 0.7766(3) 0.6675(2)
C38_2 C 0.3810(4) 0.7313(3) 0.6833(3)
H36_2 H 0.3858 0.6609 0.6875
C39_2 C 0.4796(4) 0.7889(3) 0.6930(3)
H37_2 H 0.5506 0.7581 0.7034
C40_2 C 0.4707(3) 0.8931(3) 0.6869(2)
H38_2 H 0.5369 0.9326 0.6921
C41_2 C 0.1657(3) 0.9461(3) 0.65583(19)
C42_2 C 0.1701(3) 0.7067(3) 0.6522(2)
N3_2 N 0.6300(3) 0.0615(2) 0.32634(18)
O15_2 O 0.9287(2) 0.0948(2) 0.34988(16)
O16_2 O 0.8567(3) 0.3483(3) 0.30061(19)
O17_2 O 0.8728(3) 0.2932(3) 0.40920(18)
C15_2 C 0.7271(3) 0.1183(3) 0.33533(19)
C16_2 C 0.7251(3) 0.2234(3) 0.3325(2)
C17_2 C 0.6190(4) 0.2687(3) 0.3167(3)
H17_2 H 0.6142 0.3391 0.3125
C18_2 C 0.5204(4) 0.2111(3) 0.3070(3)
H18_2 H 0.4494 0.2419 0.2966
C19_2 C 0.5293(3) 0.1069(3) 0.3131(2)
H19_2 H 0.4631 0.0674 0.3079
C20_2 C 0.8343(3) 0.0539(3) 0.34417(19)
C21_2 C 0.8299(3) 0.2933(3) 0.3478(2)
O19_2 O 0.9581(3) 0.1054(2) 0.6558(2)
H20_2 H 0.9478 0.1389 0.6914
O21_2 O 0.8854(3) 0.0038(4) 0.53103(19)
H22_2 H 0.8573 0.0159 0.4898
H23_2 H 0.9311 0.0520 0.5436
O27_2 O 0.7326(3) 0.0524(2) 0.68314(16)
H31_2 H 0.7231 0.0366 0.7251
H32_2 H 0.6663 0.0706 0.6642
N5 N 0.0349(3) 0.1467(2) 0.99929(15)
C31_2 C 0.0532(3) 0.3542(3) 0.9938(2)
H33_2 H 0.0600 0.4247 0.9918
C32_2 C 0.1500(3) 0.2945(3) 0.9997(2)
Cu4_7 Cu -0.0000 0.0000 1.0000
H24_2 H 0.2052 0.0111 0.8333
H5_2 H 0.7948 0.9889 0.1667
Cu4_8 Cu 1.0000 1.0000 0.0000
N2_2 N 0.9651(3) 0.8533(2) 0.00071(15)
C10_2 C 0.9468(3) 0.6458(3) 0.0062(2)
H14_2 H 0.9400 0.5753 0.0082
C11_2 C 0.8500(3) 0.7055(3) 0.0003(2)
loop_
_geom_bond_atom_site_label_1
_geom_bond_atom_site_label_2
_geom_bond_site_symmetry_1
_geom_bond_site_symmetry_2
Cu2 N2 1_555 1_555
N2 C8 1_555 1_555
O5 Tb1 1_555 1_555
H6 O5 1_555 1_555
H7 O5 1_555 1_555
O8 Tb1 1_555 1_555
H9 O8 1_555 1_555
H10 O8 1_555 1_555
O9 Cu2 1_555 1_555
O11 C13 1_555 1_555
O12 C14 1_555 1_555
O13 Tb1 1_555 1_555
C8 C9 1_555 1_555
C9 C10 1_555 1_555
C10 H14 1_555 1_555
C11 C10 1_555 1_555
H15 C11 1_555 1_555
C12 N2 1_555 1_555
H16 C12 1_555 1_555
C13 O9 1_555 1_555
C14 O13 1_555 1_555
C22 N4 1_555 1_555
O18 Cu3 1_555 1_555
N4 Cu3 1_555 1_555
Cu3 O12 1_555 1_555
O20 C27 1_555 1_555
C23 C22 1_555 1_555
C24 C23 1_555 1_555
H24 C24 1_555 1_555
O23 Cu2 1_555 1_555
O24 C28 1_555 1_555
C25 C24 1_555 1_555
H27 C25 1_555 1_555
C26 N4 1_555 1_555
H30 C26 1_555 1_555
C27 C22 1_555 1_555
C28 C23 1_555 1_555
O31 Cu3 1_555 1_555
Tb4 O24 1_555 1_555
N7 Cu2 1_555 1_555
O35 Cu2 1_555 1_555
O36 Tb1 1_555 1_555
O38 Cu2 1_555 1_555
C8 C13 1_555 1_555
C9 C14 1_555 1_555
C11 C12 1_555 1_555
O18 C27 1_555 1_555
O23 C28 1_555 1_555
C25 C26 1_555 1_555
C1 N1 1_555 1_555
O1 Cu1 1_555 1_555
N1 Cu1 1_555 1_555
O3 C6 1_555 1_555
C2 C1 1_555 1_555
C3 C2 1_555 1_555
H5 C3 1_555 1_555
O35 C7 1_555 1_555
O7 C7 1_555 1_555
C4 C3 1_555 1_555
H8 C4 1_555 1_555
C5 N1 1_555 1_555
H11 C5 1_555 1_555
C6 C1 1_555 1_555
C7 C2 1_555 1_555
O14 Cu1 1_555 1_555
N7 C29 1_555 1_555
O22 Tb2 1_555 1_555
H25 O22 1_555 1_555
H26 O22 1_555 1_555
O25 Tb2 1_555 1_555
H28 O25 1_555 1_555
H29 O25 1_555 1_555
O38 C34 1_555 1_555
O28 C34 1_555 1_555
O29 Cu1 1_555 1_555
O30 Tb2 1_555 1_555
C29 C30 1_555 1_555
C30 C31 1_555 1_555
C31 H33 1_555 1_555
C32 C31 1_555 1_555
H34 C32 1_555 1_555
C33 N7 1_555 1_555
H35 C33 1_555 1_555
C34 C29 1_555 1_555
C35 O29 1_555 1_555
Tb3 O7 1_555 1_555
O37 Tb2 1_555 1_555
O1 C6 1_555 1_555
C4 C5 1_555 1_555
O30 C35 1_555 1_555
C30 C35 1_555 1_555
C32 C33 1_555 1_555
O3_2 C6_2 1_555 1_555
O36 C7_2 1_555 1_555
H35_2 C33_2 1_555 1_555
O1_2 C6_2 1_555 1_555
Cu4_2 O6 1_555 1_555
Tb3 O2 1_555 1_555
C1_2 N1_2 1_555 1_555
N1_2 Cu1_2 1_555 1_555
O2 H1 1_555 1_555
H2_2 O2 1_555 1_555
Cu1_2 N3 1_555 1_555
C2_2 C1_2 1_555 1_555
O4 Tb3 1_555 1_555
H4 O4 1_555 1_555
C3_2 C2_2 1_555 1_555
N3 C15 1_555 1_555
O5_2 Tb3 1_555 1_555
H6_2 O5_2 1_555 1_555
H7_2 O5_2 1_555 1_555
C4_2 C3_2 1_555 1_555
H8_2 C4_2 1_555 1_555
O8_2 Tb3 1_555 1_555
H9_2 O8_2 1_555 1_555
H10_2 O8_2 1_555 1_555
O9_2 Cu4_2 1_555 1_555
C5_2 N1_2 1_555 1_555
H11_2 C5_2 1_555 1_555
O10 Tb3 1_555 1_555
H12 O10 1_555 1_555
H13 O10 1_555 1_555
O11_2 C13_2 1_555 1_555
O13_2 Tb3 1_555 1_555
C8_2 C9_2 1_555 1_555
O14_2 Cu1_2 1_555 1_555
O15 Tb3 1_555 1_555
O16 C21 1_555 1_555
O17 C21 1_555 1_555
C13_2 O9_2 1_555 1_555
C14_2 O13_2 1_555 1_555
C15 C16 1_555 1_555
C16 C17 1_555 1_555
C17 H17 1_555 1_555
C18 C17 1_555 1_555
C19 N3 1_555 1_555
C20 O14_2 1_555 1_555
C21 C16 1_555 1_555
O29_2 Cu1_2 1_555 1_555
C4_2 C5_2 1_555 1_555
C8_2 C13_2 1_555 1_555
C9_2 C14_2 1_555 1_555
O15 C20 1_555 1_555
C15 C20 1_555 1_555
C18 C19 1_555 1_555
Tb4 O19 1_555 1_555
C22_2 N4_2 1_555 1_555
N4_2 Cu3_2 1_555 1_555
O19 H20 1_555 1_555
H21_2 O19 1_555 1_555
Cu3_2 O12_2 1_555 1_555
C23_2 C22_2 1_555 1_555
O21 Tb4 1_555 1_555
H23 O21 1_555 1_555
C24_2 C23_2 1_555 1_555
N6 Cu3_2 1_555 1_555
O22_2 Tb4 1_555 1_555
H25_2 O22_2 1_555 1_555
H26_2 O22_2 1_555 1_555
C25_2 C24_2 1_555 1_555
H27_2 C25_2 1_555 1_555
O25_2 Tb4 1_555 1_555
H28_2 O25_2 1_555 1_555
H29_2 O25_2 1_555 1_555
O26 C34_2 1_555 1_555
C26_2 N4_2 1_555 1_555
H30_2 C26_2 1_555 1_555
O27 Tb4 1_555 1_555
H31 O27 1_555 1_555
H32 O27 1_555 1_555
O28_2 C34_2 1_555 1_555
O30_2 Tb4 1_555 1_555
C29_2 C30_2 1_555 1_555
O31_2 Cu3_2 1_555 1_555
O32 Tb4 1_555 1_555
O33 C42 1_555 1_555
O34 C42 1_555 1_555
C34_2 C29_2 1_555 1_555
C36 N6 1_555 1_555
C37 C36 1_555 1_555
C38 C37 1_555 1_555
H36 C38 1_555 1_555
C39 C38 1_555 1_555
C40 N6 1_555 1_555
C41 O31_2 1_555 1_555
C42 C37 1_555 1_555
C25_2 C26_2 1_555 1_555
O26 Cu4_5 1_555 1_555
O30_2 C35_2 1_555 1_555
C30_2 C35_2 1_555 1_555
O32 C41 1_555 1_555
C36 C41 1_555 1_555
C39 C40 1_555 1_555
O23_2 Cu4_5 1_555 1_555
H16_2 C12_2 1_555 1_555
O20_2 C27_2 1_555 1_555
O37 C28_2 1_555 1_555
O18_2 C27_2 1_555 1_555
O2_2 H1_2 1_555 1_555
H3_2 O4_2 1_555 1_555
H4_2 O4_2 1_555 1_555
H12_2 O10_2 1_555 1_555
H13_2 O10_2 1_555 1_555
O33_2 C42_2 1_555 1_555
O34_2 C42_2 1_555 1_555
C36_2 N6_2 1_555 1_555
C37_2 C36_2 1_555 1_555
C38_2 C37_2 1_555 1_555
H36_2 C38_2 1_555 1_555
C39_2 C38_2 1_555 1_555
H37_2 C39_2 1_555 1_555
C40_2 N6_2 1_555 1_555
H38_2 C40_2 1_555 1_555
C42_2 C37_2 1_555 1_555
O32_2 C41_2 1_555 1_555
C36_2 C41_2 1_555 1_555
C39_2 C40_2 1_555 1_555
N3_2 C15_2 1_555 1_555
O16_2 C21_2 1_555 1_555
O17_2 C21_2 1_555 1_555
C15_2 C16_2 1_555 1_555
C16_2 C17_2 1_555 1_555
C17_2 H17_2 1_555 1_555
C18_2 C17_2 1_555 1_555
H18_2 C18_2 1_555 1_555
C19_2 N3_2 1_555 1_555
H19_2 C19_2 1_555 1_555
C21_2 C16_2 1_555 1_555
O19_2 H20_2 1_555 1_555
H22_2 O21_2 1_555 1_555
H23_2 O21_2 1_555 1_555
H31_2 O27_2 1_555 1_555
H32_2 O27_2 1_555 1_555
O15_2 C20_2 1_555 1_555
C15_2 C20_2 1_555 1_555
C18_2 C19_2 1_555 1_555
C31_2 H33_2 1_555 1_555
C32_2 C31_2 1_555 1_555
N5 Cu4_7 1_555 1_555
Cu4_8 N2_2 1_555 1_555
C10_2 H14_2 1_555 1_555
C11_2 C10_2 1_555 1_555

#END
