
###############################################################################
#
# This file contains modified crystal structure data generated from the
# MOF subset of the Cambridge Structural Database (CSD) v543 
# hosted by the Cambridge Crystallographic Data Centre (CCDC).
#
# This work is licensed under the Creative Commons
# Attribution-NonCommercial-ShareAlike 4.0 International License.
# To view a copy of this license, visit
# http://creativecommons.org/licenses/by-nc-sa/4.0/
# or send a letter to
# Creative Commons, PO Box 1866, Mountain View, CA 94042, USA.
#
# CIF created using the CSD Python API on 29 September 2022
# The structure has been converted into the P1 space group
# The structure has a 3D framework
# The original CSD entry MABGEE is in the monoclinic crystal system
# The framework has been calculated to contain at least 10.0% void space
# The void calculation uses a probe of radius 1.32A, grid spacing 0.4
# The framework is charged, counterions have been retained in the structure
#
###############################################################################

data_MABGEE
_chemical_formula_moiety         '(C84 H76 Cu10 Er4 N12 O66)n'
_symmetry_cell_setting           triclinic
_symmetry_space_group_name_H-M   'P 1'
_symmetry_Int_Tables_number      1
_space_group_name_Hall           'P 1'
loop_
_symmetry_equiv_pos_site_id
_symmetry_equiv_pos_as_xyz
1 x,y,z
_cell_length_a                   11.7103(5)
_cell_length_b                   13.1256(6)
_cell_length_c                   19.4087(9)
_cell_angle_alpha                90
_cell_angle_beta                 95.8590(10)
_cell_angle_gamma                90
_cell_volume                     2967.62
loop_
_atom_site_label
_atom_site_type_symbol
_atom_site_fract_x
_atom_site_fract_y
_atom_site_fract_z
O18 O -0.0000(2) 0.3745(2) 0.33861(16)
N4 N 0.1901(3) 0.2690(2) 0.34652(17)
C22 C 0.0923(3) 0.2141(3) 0.33776(19)
Cu3 Cu 0.15924(4) 0.41622(4) 0.34271(3)
C23 C 0.0940(3) 0.1094(3) 0.3325(2)
C24 C 0.2010(4) 0.0615(3) 0.3375(2)
N6 N 0.1307(3) 0.5634(2) 0.32651(19)
C25 C 0.2997(4) 0.1182(3) 0.3476(3)
H27 H 0.3712 0.0866 0.3514
C26 C 0.2912(3) 0.2218(3) 0.3521(2)
H30 H 0.3580 0.2604 0.3592
O31 O 0.3194(2) 0.4600(2) 0.34503(18)
O32 O 0.4304(2) 0.5968(2) 0.34803(17)
O33 O 0.3753(3) 0.7954(3) 0.40685(18)
O34 O 0.3568(3) 0.8509(3) 0.29811(19)
C36 C 0.2279(3) 0.6210(3) 0.3342(2)
C37 C 0.2263(3) 0.7257(3) 0.3306(2)
C38 C 0.1194(4) 0.7709(3) 0.3139(3)
H36 H 0.1144 0.8413 0.3085
C39 C 0.0214(4) 0.7131(3) 0.3053(3)
C40 C 0.0300(3) 0.6090(3) 0.3129(2)
C41 C 0.3350(3) 0.5556(3) 0.3441(2)
C42 C 0.3306(3) 0.7958(3) 0.3458(3)
Er4 Er 0.629609(14) 0.562451(13) 0.352032(10)
Cu7 Cu 0.0000 0.0000 0.5000
O37 O 0.1913(3) 0.4238(2) 0.46877(16)
O40 O 0.0696(2) 0.0968(2) 0.15197(17)
H21 H 0.0303 0.9043 0.1631
H24 H 0.2054 0.9910 0.3340
Cu7_2 Cu 0.0000 1.0000 0.5000
O2 O 0.0418(3) 0.1015(3) 0.8393(2)
H1 H 0.0685 0.1648 0.8519
O4 O 0.1104(3) 0.0001(3) 0.96491(19)
H4 H 0.1552 0.0581 0.9495
O5 O 0.0369(3) 0.0118(2) 0.63168(15)
O10 O 0.2656(2) 0.0494(2) 0.81734(17)
H12 H 0.3212 0.0412 0.7929
H13 H 0.2611 0.1126 0.8262
Cu2 Cu 0.5000 0.5000 0.0000
O12 O 0.3087(3) 0.9238(2) 0.03123(16)
H16 H 0.7032 0.6501 0.0027
Er2 Er 0.870391(14) 0.062451(13) 0.147968(10)
O18_2 O 1.0000(2) 0.3745(2) 0.33861(16)
O20 O 0.8911(2) 0.2357(2) 0.33829(15)
N5 N 0.4656(3) 0.3531(2) 0.00219(17)
H22 H 0.8211 0.0243 0.0071
O23 O 0.9091(3) 0.2154(3) 0.0976(2)
H25 H 0.9448 0.2698 0.0893
H26 H 0.8460 0.2154 0.0717
O24 O 0.9329(3) 0.0479(2) 0.26157(15)
O25 O 0.7763(3) 0.1825(3) 0.21170(18)
H28 H 0.7854 0.1866 0.2556
H29 H 0.7437 0.2369 0.1964
O26 O 0.6578(2) 0.4526(2) 0.00224(16)
C27 C 0.9851(3) 0.2779(3) 0.3373(2)
O28 O 0.7630(2) 0.3115(2) 0.00789(16)
C28 C 0.9870(3) 0.0442(3) 0.3205(2)
O30 O 0.7013(2) 0.1084(2) 0.08164(15)
C29 C 0.5608(3) 0.2953(3) 0.00718(18)
C30 C 0.5558(3) 0.1898(3) 0.0109(2)
C31 C 0.4474(3) 0.1450(3) 0.0087(2)
H33 H 0.4407 0.0746 0.0112
C32 C 0.3504(3) 0.2050(3) 0.0027(2)
H34 H 0.2779 0.1755 0.0003
C33 C 0.3621(3) 0.3091(3) 0.0003(2)
C34 C 0.6701(3) 0.3563(3) 0.0062(2)
C35 C 0.6597(3) 0.1205(3) 0.0203(2)
H37 H 0.9502 0.7438 0.2945
H38 H 0.9635 0.5697 0.3085
Cu5 Cu 0.34076(4) 0.91622(4) 0.15729(3)
Cu7_3 Cu 1.0000 0.0000 0.5000
O36 O 0.5369(3) 0.4882(2) 0.13168(15)
Er1 Er 0.129609(14) 0.937549(13) 0.852032(10)
O1 O 0.0000(2) 0.6255(2) 0.66139(16)
Cu2_2 Cu 0.5000 0.5000 1.0000
O3 O 0.1089(2) 0.7643(2) 0.66171(15)
N2 N 0.5344(3) 0.6469(2) 0.99781(17)
H3 H 0.1789 0.9757 0.9929
O6 O 0.0909(3) 0.7846(3) 0.9024(2)
H6 H 0.0552 0.7302 0.9107
H7 H 0.1540 0.7846 0.9283
O7 O 0.0671(3) 0.9521(2) 0.73843(15)
O8 O 0.2237(3) 0.8175(3) 0.78830(18)
H9 H 0.2146 0.8134 0.7444
H10 H 0.2563 0.7631 0.8036
O9 O 0.3422(2) 0.5474(2) 0.99776(16)
C6 C 0.0149(3) 0.7221(3) 0.6627(2)
O11 O 0.2370(2) 0.6885(2) 0.99211(16)
C7 C 0.0130(3) 0.9558(3) 0.6795(2)
O13 O 0.2987(2) 0.8916(2) 0.91836(15)
C8 C 0.4392(3) 0.7047(3) 0.99282(18)
C9 C 0.4442(3) 0.8102(3) 0.9891(2)
C10 C 0.5526(3) 0.8550(3) 0.9913(2)
H14 H 0.5593 0.9254 0.9888
C11 C 0.6496(3) 0.7950(3) 0.9973(2)
H15 H 0.7221 0.8245 0.9997
C12 C 0.6379(3) 0.6909(3) 0.9997(2)
C13 C 0.3299(3) 0.6437(3) 0.9938(2)
C14 C 0.3403(3) 0.8795(3) 0.9797(2)
H18 H 0.0498 0.2562 0.7055
H19 H 0.0365 0.4303 0.6915
O29 O 0.6913(3) 0.0762(2) 0.96877(16)
H35 H 0.2968 0.3499 0.9973
Cu4 Cu 0.65924(4) 0.08378(4) 0.84271(3)
O35 O 0.4631(3) 0.5118(2) 0.86832(15)
O19 O 0.9582(3) 0.8985(3) 0.1607(2)
H20 H 0.9315 0.8352 0.1481
O21 O 0.8896(3) 0.9999(3) 0.03509(19)
H23 H 0.8448 0.9419 0.0505
O22 O 0.9631(3) 0.9882(2) 0.36832(15)
O27 O 0.7344(2) 0.9506(2) 0.18266(17)
H31 H 0.6788 0.9588 0.2071
H32 H 0.7389 0.8874 0.1738
Cu7_4 Cu 1.0000 1.0000 0.5000
H2 H 0.9697 0.0957 0.8369
H5 H 0.7946 0.0090 0.6660
O1_2 O 1.0000(2) 0.6255(2) 0.66139(16)
N1 N 0.8099(3) 0.7310(2) 0.65348(17)
C1 C 0.9077(3) 0.7859(3) 0.66224(19)
Cu1 Cu 0.84076(4) 0.58378(4) 0.65729(3)
C2 C 0.9060(3) 0.8906(3) 0.6675(2)
C3 C 0.7990(4) 0.9385(3) 0.6625(2)
N3 N 0.8693(3) 0.4366(2) 0.67349(19)
C4 C 0.7003(4) 0.8818(3) 0.6524(3)
H8 H 0.6288 0.9134 0.6486
C5 C 0.7088(3) 0.7782(3) 0.6479(2)
H11 H 0.6420 0.7396 0.6408
O14 O 0.6806(2) 0.5400(2) 0.65497(18)
O15 O 0.5696(2) 0.4032(2) 0.65197(17)
O16 O 0.6247(3) 0.2046(3) 0.59315(18)
O17 O 0.6432(3) 0.1491(3) 0.70189(19)
C15 C 0.7721(3) 0.3790(3) 0.6658(2)
C16 C 0.7737(3) 0.2743(3) 0.6694(2)
C17 C 0.8806(4) 0.2291(3) 0.6861(3)
H17 H 0.8856 0.1587 0.6915
C18 C 0.9786(4) 0.2869(3) 0.6947(3)
C19 C 0.9700(3) 0.3910(3) 0.6871(2)
C20 C 0.6650(3) 0.4444(3) 0.6559(2)
C21 C 0.6694(3) 0.2042(3) 0.6542(3)
Er3 Er 0.370391(14) 0.437549(13) 0.647968(10)
O38 O 0.8087(3) 0.5762(2) 0.53123(16)
O39 O 0.9304(2) 0.9032(2) 0.84803(17)
O1_3 O 0.5000(2) 0.1255(2) 0.83861(16)
N1_2 N 0.6901(3) 0.2310(2) 0.84652(17)
C1_2 C 0.5923(3) 0.2859(3) 0.83776(19)
O2_2 O 0.4582(3) 0.6015(3) 0.6607(2)
H1_2 H 0.4315 0.6648 0.6481
H2_2 H 0.5303 0.5957 0.6631
O3_2 O 0.3911(2) 0.2643(2) 0.83829(15)
C2_2 C 0.5940(3) 0.3906(3) 0.8325(2)
O4_2 O 0.3896(3) 0.5001(3) 0.53509(19)
H3_2 H 0.3211 0.4757 0.5071
H4_2 H 0.3448 0.5581 0.5505
C3_2 C 0.7010(4) 0.4385(3) 0.8375(2)
H5_2 H 0.7054 0.5090 0.8340
O6_2 O 0.4091(3) 0.2846(3) 0.5976(2)
H6_2 H 0.4448 0.2302 0.5893
H7_2 H 0.3460 0.2846 0.5717
C4_2 C 0.7997(4) 0.3818(3) 0.8476(3)
H8_2 H 0.8712 0.4134 0.8514
O7_2 O 0.4329(3) 0.4521(2) 0.76157(15)
O8_2 O 0.2763(3) 0.3175(3) 0.71170(18)
H9_2 H 0.2854 0.3134 0.7556
H10_2 H 0.2437 0.2631 0.6964
C5_2 C 0.7912(3) 0.2782(3) 0.8521(2)
H11_2 H 0.8580 0.2396 0.8592
O9_2 O 0.1578(2) 0.0474(2) 0.50224(16)
O10_2 O 0.2344(2) 0.5494(2) 0.68266(17)
H12_2 H 0.1788 0.5412 0.7071
H13_2 H 0.2389 0.6126 0.6738
C6_2 C 0.4851(3) 0.2221(3) 0.8373(2)
O11_2 O 0.2630(2) 0.1885(2) 0.50789(16)
C7_2 C 0.4870(3) 0.4558(3) 0.8205(2)
O13_2 O 0.2013(2) 0.3916(2) 0.58164(15)
C8_2 C 0.0608(3) 0.2047(3) 0.50718(18)
C9_2 C 0.0558(3) 0.3102(3) 0.5109(2)
O14_2 O 0.8194(2) 0.0400(2) 0.84503(18)
C13_2 C 0.1701(3) 0.1437(3) 0.5062(2)
C14_2 C 0.1597(3) 0.3795(3) 0.5203(2)
N3_2 N 0.6307(3) 0.9366(2) 0.82651(19)
O16_2 O 0.8753(3) 0.7046(3) 0.90685(18)
O17_2 O 0.8568(3) 0.6491(3) 0.79811(19)
C15_2 C 0.7279(3) 0.8790(3) 0.8342(2)
C16_2 C 0.7263(3) 0.7743(3) 0.8306(2)
C17_2 C 0.6194(4) 0.7291(3) 0.8139(3)
H17_2 H 0.6144 0.6587 0.8085
C18_2 C 0.5214(4) 0.7869(3) 0.8053(3)
H18_2 H 0.4502 0.7562 0.7945
C19_2 C 0.5300(3) 0.8910(3) 0.8129(2)
H19_2 H 0.4635 0.9303 0.8085
C20_2 C 0.8350(3) 0.9444(3) 0.8441(2)
C21_2 C 0.8306(3) 0.7042(3) 0.8458(3)
N5_2 N 0.0344(3) 0.8531(2) 0.49781(17)
C31_2 C 0.0526(3) 0.6450(3) 0.4913(2)
H33_2 H 0.0593 0.5746 0.4888
C32_2 C 0.1496(3) 0.7050(3) 0.4973(2)
H34_2 H 0.2221 0.6755 0.4997
C33_2 C 0.1379(3) 0.8091(3) 0.4997(2)
H35_2 H 0.2032 0.8499 0.5027
N2_2 N 0.9656(3) 0.1469(2) 0.50219(17)
C10_2 C 0.9474(3) 0.3550(3) 0.5087(2)
H14_2 H 0.9407 0.4254 0.5112
C11_2 C 0.8504(3) 0.2950(3) 0.5027(2)
H15_2 H 0.7779 0.3245 0.5003
C12_2 C 0.8621(3) 0.1909(3) 0.5003(2)
H16_2 H 0.7968 0.1501 0.4973
N6_2 N 0.3693(3) 0.0634(2) 0.17349(19)
O33_2 O 0.1247(3) 0.2954(3) 0.09315(18)
O34_2 O 0.1432(3) 0.3509(3) 0.20189(19)
C36_2 C 0.2721(3) 0.1210(3) 0.1658(2)
C37_2 C 0.2737(3) 0.2257(3) 0.1694(2)
C38_2 C 0.3806(4) 0.2709(3) 0.1861(3)
H36_2 H 0.3856 0.3413 0.1915
C39_2 C 0.4786(4) 0.2131(3) 0.1947(3)
H37_2 H 0.5498 0.2438 0.2055
C40_2 C 0.4700(3) 0.1090(3) 0.1871(2)
H38_2 H 0.5365 0.0697 0.1915
C41_2 C 0.1650(3) 0.0556(3) 0.1559(2)
C42_2 C 0.1694(3) 0.2958(3) 0.1542(3)
O18_3 O 0.5000(2) 0.8745(2) 0.16139(16)
N4_2 N 0.3099(3) 0.7690(2) 0.15348(17)
C22_2 C 0.4077(3) 0.7141(3) 0.16224(19)
O19_2 O 0.5418(3) 0.3985(3) 0.3393(2)
H20_2 H 0.5685 0.3352 0.3519
H21_2 H 0.4697 0.4043 0.3369
O20_2 O 0.6089(2) 0.7357(2) 0.16171(15)
C23_2 C 0.4060(3) 0.6094(3) 0.1675(2)
O21_2 O 0.6104(3) 0.4999(3) 0.46491(19)
H22_2 H 0.6789 0.5243 0.4929
H23_2 H 0.6552 0.4419 0.4495
C24_2 C 0.2990(4) 0.5615(3) 0.1625(2)
H24_2 H 0.2946 0.4910 0.1660
O23_2 O 0.5909(3) 0.7154(3) 0.4024(2)
H25_2 H 0.5552 0.7698 0.4107
H26_2 H 0.6540 0.7154 0.4283
C25_2 C 0.2003(4) 0.6182(3) 0.1524(3)
H27_2 H 0.1288 0.5866 0.1486
O24_2 O 0.5671(3) 0.5479(2) 0.23843(15)
O25_2 O 0.7237(3) 0.6825(3) 0.28830(18)
H28_2 H 0.7146 0.6866 0.2444
H29_2 H 0.7563 0.7369 0.3036
C26_2 C 0.2088(3) 0.7218(3) 0.1479(2)
H30_2 H 0.1420 0.7604 0.1408
O26_2 O 0.8422(2) 0.9526(2) 0.49776(16)
O27_2 O 0.7656(2) 0.4506(2) 0.31734(17)
H31_2 H 0.8212 0.4588 0.2929
H32_2 H 0.7611 0.3874 0.3262
C27_2 C 0.5149(3) 0.7779(3) 0.1627(2)
O28_2 O 0.7370(2) 0.8115(2) 0.49211(16)
C28_2 C 0.5130(3) 0.5442(3) 0.1795(2)
O30_2 O 0.7987(2) 0.6084(2) 0.41836(15)
C29_2 C 0.9392(3) 0.7953(3) 0.49282(18)
C30_2 C 0.9442(3) 0.6898(3) 0.4891(2)
O31_2 O 0.1806(2) 0.9600(2) 0.15497(18)
C34_2 C 0.8299(3) 0.8563(3) 0.4938(2)
C35_2 C 0.8403(3) 0.6205(3) 0.4797(2)
loop_
_geom_bond_atom_site_label_1
_geom_bond_atom_site_label_2
_geom_bond_site_symmetry_1
_geom_bond_site_symmetry_2
O18 Cu3 1_555 1_555
N4 C22 1_555 1_555
C22 C23 1_555 1_555
Cu3 N4 1_555 1_555
C23 C24 1_555 1_555
N6 Cu3 1_555 1_555
C25 C24 1_555 1_555
H27 C25 1_555 1_555
C26 N4 1_555 1_555
H30 C26 1_555 1_555
O31 Cu3 1_555 1_555
O32 C41 1_555 1_555
O33 C42 1_555 1_555
O34 C42 1_555 1_555
C36 N6 1_555 1_555
C37 C36 1_555 1_555
C38 C37 1_555 1_555
H36 C38 1_555 1_555
C39 C38 1_555 1_555
C40 N6 1_555 1_555
C41 O31 1_555 1_555
C42 C37 1_555 1_555
Er4 O32 1_555 1_555
O37 Cu3 1_555 1_555
C25 C26 1_555 1_555
C36 C41 1_555 1_555
C39 C40 1_555 1_555
O2 H1 1_555 1_555
H4 O4 1_555 1_555
H12 O10 1_555 1_555
H13 O10 1_555 1_555
Cu7 O5 1_555 1_555
O20 C27 1_555 1_555
N5 Cu2 1_555 1_555
O23 Er2 1_555 1_555
H25 O23 1_555 1_555
H26 O23 1_555 1_555
O24 Er2 1_555 1_555
O25 Er2 1_555 1_555
H28 O25 1_555 1_555
H29 O25 1_555 1_555
O26 Cu2 1_555 1_555
C27 O18_2 1_555 1_555
O28 C34 1_555 1_555
O30 Er2 1_555 1_555
C29 N5 1_555 1_555
C30 C29 1_555 1_555
C31 C30 1_555 1_555
H33 C31 1_555 1_555
C32 C31 1_555 1_555
H34 C32 1_555 1_555
C33 N5 1_555 1_555
C34 O26 1_555 1_555
C35 O30 1_555 1_555
Cu5 O12 1_555 1_555
O36 Cu2 1_555 1_555
O24 C28 1_555 1_555
C29 C34 1_555 1_555
C30 C35 1_555 1_555
C32 C33 1_555 1_555
Cu2_2 N2 1_555 1_555
O3 C6 1_555 1_555
N2 C8 1_555 1_555
O6 Er1 1_555 1_555
H6 O6 1_555 1_555
H7 O6 1_555 1_555
O7 Er1 1_555 1_555
O8 Er1 1_555 1_555
H9 O8 1_555 1_555
H10 O8 1_555 1_555
O9 Cu2_2 1_555 1_555
C6 O1 1_555 1_555
O11 C13 1_555 1_555
O13 Er1 1_555 1_555
C8 C9 1_555 1_555
C9 C10 1_555 1_555
C10 H14 1_555 1_555
C11 C10 1_555 1_555
H15 C11 1_555 1_555
C12 N2 1_555 1_555
C13 O9 1_555 1_555
C14 O13 1_555 1_555
Cu4 O29 1_555 1_555
O35 Cu2_2 1_555 1_555
O7 C7 1_555 1_555
C8 C13 1_555 1_555
C9 C14 1_555 1_555
C11 C12 1_555 1_555
O19 H20 1_555 1_555
H23 O21 1_555 1_555
H31 O27 1_555 1_555
H32 O27 1_555 1_555
Cu7_4 O22 1_555 1_555
O1_2 Cu1 1_555 1_555
N1 C1 1_555 1_555
C1 C2 1_555 1_555
Cu1 N1 1_555 1_555
C2 C3 1_555 1_555
N3 Cu1 1_555 1_555
C4 C3 1_555 1_555
H8 C4 1_555 1_555
C5 N1 1_555 1_555
H11 C5 1_555 1_555
O14 Cu1 1_555 1_555
O15 C20 1_555 1_555
O16 C21 1_555 1_555
O17 C21 1_555 1_555
C15 N3 1_555 1_555
C16 C15 1_555 1_555
C17 C16 1_555 1_555
H17 C17 1_555 1_555
C18 C17 1_555 1_555
C19 N3 1_555 1_555
C20 O14 1_555 1_555
C21 C16 1_555 1_555
Er3 O15 1_555 1_555
O38 Cu1 1_555 1_555
C4 C5 1_555 1_555
C15 C20 1_555 1_555
C18 C19 1_555 1_555
Er3 O2_2 1_555 1_555
O1_3 Cu4 1_555 1_555
N1_2 C1_2 1_555 1_555
C1_2 C2_2 1_555 1_555
O2_2 H1_2 1_555 1_555
H2_2 O2_2 1_555 1_555
Cu4 N1_2 1_555 1_555
O3_2 C6_2 1_555 1_555
C2_2 C3_2 1_555 1_555
O4_2 Er3 1_555 1_555
H3_2 O4_2 1_555 1_555
H4_2 O4_2 1_555 1_555
C3_2 H5_2 1_555 1_555
O35 C7_2 1_555 1_555
O6_2 Er3 1_555 1_555
H6_2 O6_2 1_555 1_555
H7_2 O6_2 1_555 1_555
C4_2 C3_2 1_555 1_555
H8_2 C4_2 1_555 1_555
O7_2 Er3 1_555 1_555
O8_2 Er3 1_555 1_555
H9_2 O8_2 1_555 1_555
H10_2 O8_2 1_555 1_555
C5_2 N1_2 1_555 1_555
H11_2 C5_2 1_555 1_555
O9_2 Cu7 1_555 1_555
O10_2 Er3 1_555 1_555
H12_2 O10_2 1_555 1_555
H13_2 O10_2 1_555 1_555
C6_2 O1_3 1_555 1_555
O11_2 C13_2 1_555 1_555
O37 C14_2 1_555 1_555
C7_2 C2_2 1_555 1_555
O13_2 Er3 1_555 1_555
C8_2 C9_2 1_555 1_555
O14_2 Cu4 1_555 1_555
C13_2 O9_2 1_555 1_555
C14_2 O13_2 1_555 1_555
C1_2 C6_2 1_555 1_555
C4_2 C5_2 1_555 1_555
O7_2 C7_2 1_555 1_555
C8_2 C13_2 1_555 1_555
C9_2 C14_2 1_555 1_555
O39 C20_2 1_555 1_555
O16_2 C21_2 1_555 1_555
O17_2 C21_2 1_555 1_555
C15_2 N3_2 1_555 1_555
C16_2 C15_2 1_555 1_555
C17_2 C16_2 1_555 1_555
H17_2 C17_2 1_555 1_555
C18_2 C17_2 1_555 1_555
H18_2 C18_2 1_555 1_555
C19_2 N3_2 1_555 1_555
H19_2 C19_2 1_555 1_555
C21_2 C16_2 1_555 1_555
N5_2 Cu7_2 1_555 1_555
H33_2 C31_2 1_555 1_555
C32_2 C31_2 1_555 1_555
H34_2 C32_2 1_555 1_555
C33_2 N5_2 1_555 1_555
H35_2 C33_2 1_555 1_555
C15_2 C20_2 1_555 1_555
C18_2 C19_2 1_555 1_555
C32_2 C33_2 1_555 1_555
Cu7_3 N2_2 1_555 1_555
C10_2 H14_2 1_555 1_555
C11_2 C10_2 1_555 1_555
H15_2 C11_2 1_555 1_555
C12_2 N2_2 1_555 1_555
H16_2 C12_2 1_555 1_555
O40 C41_2 1_555 1_555
O33_2 C42_2 1_555 1_555
O34_2 C42_2 1_555 1_555
C36_2 N6_2 1_555 1_555
C37_2 C36_2 1_555 1_555
C38_2 C37_2 1_555 1_555
H36_2 C38_2 1_555 1_555
C39_2 C38_2 1_555 1_555
H37_2 C39_2 1_555 1_555
C40_2 N6_2 1_555 1_555
H38_2 C40_2 1_555 1_555
C42_2 C37_2 1_555 1_555
C11_2 C12_2 1_555 1_555
C36_2 C41_2 1_555 1_555
C39_2 C40_2 1_555 1_555
Er4 O19_2 1_555 1_555
O18_3 Cu5 1_555 1_555
N4_2 C22_2 1_555 1_555
C22_2 C23_2 1_555 1_555
O19_2 H20_2 1_555 1_555
H21_2 O19_2 1_555 1_555
Cu5 N4_2 1_555 1_555
O20_2 C27_2 1_555 1_555
C23_2 C24_2 1_555 1_555
O21_2 Er4 1_555 1_555
H22_2 O21_2 1_555 1_555
H23_2 O21_2 1_555 1_555
C24_2 H24_2 1_555 1_555
O36 C28_2 1_555 1_555
O23_2 Er4 1_555 1_555
H25_2 O23_2 1_555 1_555
H26_2 O23_2 1_555 1_555
C25_2 C24_2 1_555 1_555
H27_2 C25_2 1_555 1_555
O24_2 Er4 1_555 1_555
O25_2 Er4 1_555 1_555
H28_2 O25_2 1_555 1_555
H29_2 O25_2 1_555 1_555
C26_2 N4_2 1_555 1_555
H30_2 C26_2 1_555 1_555
O26_2 Cu7_4 1_555 1_555
O27_2 Er4 1_555 1_555
H31_2 O27_2 1_555 1_555
H32_2 O27_2 1_555 1_555
C27_2 O18_3 1_555 1_555
O28_2 C34_2 1_555 1_555
O38 C35_2 1_555 1_555
C28_2 C23_2 1_555 1_555
O30_2 Er4 1_555 1_555
C30_2 C29_2 1_555 1_555
O31_2 Cu5 1_555 1_555
C34_2 O26_2 1_555 1_555
C35_2 O30_2 1_555 1_555
C22_2 C27_2 1_555 1_555
C25_2 C26_2 1_555 1_555
O24_2 C28_2 1_555 1_555
C29_2 C34_2 1_555 1_555
C30_2 C35_2 1_555 1_555

#END
