
###############################################################################
#
# This file contains modified crystal structure data generated from the
# MOF subset of the Cambridge Structural Database (CSD) v543 
# hosted by the Cambridge Crystallographic Data Centre (CCDC).
#
# This work is licensed under the Creative Commons
# Attribution-NonCommercial-ShareAlike 4.0 International License.
# To view a copy of this license, visit
# http://creativecommons.org/licenses/by-nc-sa/4.0/
# or send a letter to
# Creative Commons, PO Box 1866, Mountain View, CA 94042, USA.
#
# CIF created using the CSD Python API on 29 September 2022
# The structure has been converted into the P1 space group
# The structure has a 3D framework
# The original CSD entry MABGAA is in the monoclinic crystal system
# The framework has been calculated to contain at least 10.0% void space
# The void calculation uses a probe of radius 1.32A, grid spacing 0.4
#
###############################################################################

data_MABGAA
_chemical_formula_moiety         '(C84 H76 Cu9 Dy4 N11 O67)n'
_symmetry_cell_setting           triclinic
_symmetry_space_group_name_H-M   'P 1'
_symmetry_Int_Tables_number      1
_space_group_name_Hall           'P 1'
loop_
_symmetry_equiv_pos_site_id
_symmetry_equiv_pos_as_xyz
1 x,y,z
_cell_length_a                   11.7167(8)
_cell_length_b                   13.1359(8)
_cell_length_c                   19.3769(12)
_cell_angle_alpha                90
_cell_angle_beta                 95.5640(10)
_cell_angle_gamma                90
_cell_volume                     2968.24
loop_
_atom_site_label
_atom_site_type_symbol
_atom_site_fract_x
_atom_site_fract_y
_atom_site_fract_z
H12 H 0.0371 0.0682 0.1917
H16 H 0.0497 0.2426 0.2041
O11 O 0.0003(4) 0.8726(3) 0.1634(2)
C15 C 0.0149(5) 0.7759(5) 0.1634(3)
O16 O 0.1082(4) 0.7339(3) 0.1625(2)
C21 C 0.0133(5) 0.5427(4) 0.1805(3)
O24 O 0.0371(4) 0.4873(4) 0.1325(2)
O25 O 0.0666(4) 0.5455(3) 0.2394(2)
Cu4 Cu 0.0000 0.5000 0.0000
Dy3 Dy 0.13002(2) 0.56136(2) 0.353687(16)
C42 C 0.1374(6) 0.6895(5) 0.0011(4)
H37 H 0.2231 0.8238 0.0015
O38 O 0.1575(4) 0.4527(3) 0.0021(2)
H38 H 0.2022 0.6483 0.0038
Dy1 Dy 0.36998(2) 0.06136(2) 0.146313(16)
O3 O 0.4093(5) 0.2131(5) 0.0929(4)
O4 O 0.2772(5) 0.1840(4) 0.2103(3)
O6 O 0.5706(4) 0.0952(3) 0.1496(3)
O7 O 0.2006(4) 0.1075(3) 0.0797(2)
O8 O 0.4334(4) 0.0455(3) 0.2606(2)
H5 H 0.4769 0.2307 0.0856
H6 H 0.3631 0.2417 0.0624
H7 H 0.2679 0.2480 0.2128
H8 H 0.2829 0.1606 0.2514
C1 C 0.6652(5) 0.0538(5) 0.1558(3)
C2 C 0.1591(5) 0.1214(4) 0.0186(3)
C3 C 0.7729(5) 0.1188(5) 0.1647(3)
C4 C 0.0550(5) 0.1900(4) 0.0093(3)
N1 N 0.8696(4) 0.0618(4) 0.1738(3)
C5 C 0.7739(5) 0.2242(5) 0.1676(4)
C6 C 0.0619(5) 0.2953(4) 0.0058(3)
C8 C 0.9707(5) 0.1074(5) 0.1869(4)
C9 C 0.8813(6) 0.2685(5) 0.1837(4)
C10 C 0.6693(6) 0.2937(5) 0.1518(4)
C11 C 0.1705(5) 0.3560(5) 0.0057(3)
C16 C 0.9788(6) 0.2116(5) 0.1933(4)
H13 H 0.8866 0.3389 0.1879
O12 O 0.6430(5) 0.3490(4) 0.2000(3)
O13 O 0.6259(4) 0.2933(4) 0.0911(3)
O15 O 0.2629(4) 0.3114(3) 0.0071(2)
H29 H 0.6584 0.0140 0.0049
H3 H 0.3416 0.9860 0.9951
N5 N 0.1304(4) 0.9382(4) 0.8262(3)
C22 C 0.8409(5) 0.8786(4) 0.9814(3)
C26 C 0.2271(5) 0.8812(5) 0.8353(3)
C27 C 0.0293(5) 0.8926(5) 0.8131(4)
C28 C 0.3348(5) 0.9462(5) 0.8442(3)
O21 O 0.7994(4) 0.8925(3) 0.9203(2)
C29 C 0.9450(5) 0.8100(4) 0.9907(3)
C32 C 0.2261(5) 0.7758(5) 0.8324(4)
C33 C 0.0212(6) 0.7884(5) 0.8067(4)
O23 O 0.4294(4) 0.9048(3) 0.8504(3)
Dy2 Dy 0.63002(2) 0.93864(2) 0.853687(16)
C34 C 0.9381(5) 0.7047(4) 0.9942(3)
C38 C 0.1187(6) 0.7315(5) 0.8163(4)
C39 C 0.3307(6) 0.7063(5) 0.8482(4)
O28 O 0.5907(5) 0.7869(5) 0.9071(4)
O29 O 0.7228(5) 0.8160(4) 0.7897(3)
O31 O 0.5666(4) 0.9545(3) 0.7394(2)
C40 C 0.8295(5) 0.6440(5) 0.9943(3)
H26 H 0.1134 0.6611 0.8121
O33 O 0.3570(5) 0.6510(4) 0.8000(3)
O34 O 0.3741(4) 0.7067(4) 0.9089(3)
Cu4_2 Cu 1.0000 0.5000 1.0000
H31 H 0.5231 0.7693 0.9144
H32 H 0.6369 0.7583 0.9376
H33 H 0.7321 0.7520 0.7872
H34 H 0.7171 0.8394 0.7486
O35 O 0.8425(4) 0.5473(3) 0.9979(2)
O36 O 0.7371(4) 0.6886(3) 0.9929(2)
O37 O 0.9629(4) 0.5127(4) 0.8675(2)
C17 C 0.8626(6) 0.3105(5) 0.9989(4)
H14 H 0.7769 0.1762 0.9985
H17 H 0.7978 0.3517 0.9962
O19 O 0.9997(4) 0.1274(3) 0.8366(2)
C25 C 0.9851(5) 0.2241(5) 0.8366(3)
O22 O 0.8918(4) 0.2661(3) 0.8375(2)
C37 C 0.9867(5) 0.4573(4) 0.8195(3)
O32 O 0.9334(4) 0.4545(3) 0.7606(2)
Dy4 Dy 0.86998(2) 0.43864(2) 0.646313(16)
Cu2 Cu 0.5000 0.0000 0.5000
O17 O 0.5371(4) 0.0127(4) 0.6325(2)
H25 H 0.2953 0.0104 0.6662
O1 O 0.0418(5) 0.3961(4) 0.3443(4)
O2 O 0.1145(5) 0.4973(5) 0.4682(3)
O3_2 O 0.0907(5) 0.7131(5) 0.4071(4)
O4_2 O 0.2228(5) 0.6840(4) 0.2897(3)
O5 O 0.2672(4) 0.4488(4) 0.3172(3)
O7_2 O 0.2994(4) 0.6075(3) 0.4203(2)
H1 H 0.0545 0.3595 0.3097
H3_2 H 0.1584 0.4860 0.5049
H4 H 0.0678 0.4479 0.4625
H5_2 H 0.0231 0.7307 0.4144
H6_2 H 0.1369 0.7417 0.4376
H7_2 H 0.2321 0.7480 0.2872
H8_2 H 0.2171 0.6606 0.2486
H9 H 0.2802 0.4698 0.2772
H10 H 0.3160 0.4027 0.3292
C2_2 C 0.3409(5) 0.6214(4) 0.4814(3)
O10 O 0.3100(4) 0.5765(3) 0.5333(2)
C4_2 C 0.4450(5) 0.6900(4) 0.4907(3)
C6_2 C 0.4381(5) 0.7953(4) 0.4942(3)
C7 C 0.5532(6) 0.6450(5) 0.4937(4)
N3 N 0.5351(4) 0.8531(4) 0.4991(3)
C11_2 C 0.3295(5) 0.8560(5) 0.4943(3)
H11 H 0.5599 0.5745 0.4921
C12 C 0.6505(6) 0.7053(5) 0.4992(4)
C17_2 C 0.6374(6) 0.8105(5) 0.5011(4)
Cu2_2 Cu 0.5000 1.0000 0.5000
O14 O 0.3425(4) 0.9527(3) 0.4979(2)
O15_2 O 0.2371(4) 0.8114(3) 0.4929(2)
H14_2 H 0.7231 0.6762 0.5015
H17_2 H 0.7022 0.8517 0.5038
Cu3 Cu 0.34114(7) 0.58547(6) 0.65896(5)
N4 N 0.3098(4) 0.7323(4) 0.6547(3)
O19_2 O 0.5003(4) 0.6274(3) 0.6634(2)
N5_2 N 0.3696(4) 0.4382(4) 0.6738(3)
O20 O 0.1809(4) 0.5418(3) 0.6568(3)
C23 C 0.4076(5) 0.7876(4) 0.6638(3)
C24 C 0.2082(5) 0.7796(5) 0.6490(4)
C25_2 C 0.5149(5) 0.7241(5) 0.6634(3)
C26_2 C 0.2729(5) 0.3812(5) 0.6647(3)
C27_2 C 0.4707(5) 0.3926(5) 0.6869(4)
C28_2 C 0.1652(5) 0.4462(5) 0.6558(3)
C30 C 0.4059(5) 0.8927(5) 0.6686(3)
C31 C 0.1996(6) 0.8831(5) 0.6542(4)
H20 H 0.1416 0.7410 0.6413
O22_2 O 0.6082(4) 0.7661(3) 0.6625(2)
C32_2 C 0.2739(5) 0.2758(5) 0.6676(4)
C33_2 C 0.4788(6) 0.2884(5) 0.6933(4)
H21 H 0.5371 0.4318 0.6917
O23_2 O 0.0706(4) 0.4048(3) 0.6496(3)
C36 C 0.2995(6) 0.9398(5) 0.6635(4)
C37_2 C 0.5133(5) 0.9573(4) 0.6805(3)
H22 H 0.1283 0.9147 0.6517
C38_2 C 0.3813(6) 0.2315(5) 0.6837(4)
C39_2 C 0.1693(6) 0.2063(5) 0.6518(4)
H23 H 0.5497 0.2574 0.7041
H26_2 H 0.3866 0.1611 0.6879
O33_2 O 0.1430(5) 0.1510(4) 0.7000(3)
O34_2 O 0.1259(4) 0.2067(4) 0.5911(3)
H28 H 0.0304 0.5986 0.6553
O6_2 O 0.9294(4) 0.5952(3) 0.3504(3)
H2 H 0.9696 0.4014 0.3447
C1_2 C 0.8348(5) 0.5538(5) 0.3442(3)
O9 O 0.8191(4) 0.4582(3) 0.3432(3)
C3_2 C 0.7271(5) 0.6188(5) 0.3353(3)
Cu1 Cu 0.65886(7) 0.41453(6) 0.34104(5)
N1_2 N 0.6304(4) 0.5618(4) 0.3262(3)
C5_2 C 0.7261(5) 0.7242(5) 0.3324(4)
N2 N 0.6902(4) 0.2677(4) 0.3453(3)
O11_2 O 0.4997(4) 0.3726(3) 0.3366(2)
C8_2 C 0.5293(5) 0.6074(5) 0.3131(4)
C9_2 C 0.6187(6) 0.7685(5) 0.3163(4)
C10_2 C 0.8307(6) 0.7937(5) 0.3482(4)
C13 C 0.5924(5) 0.2124(4) 0.3362(3)
C14 C 0.7918(5) 0.2204(5) 0.3510(4)
C15_2 C 0.4851(5) 0.2759(5) 0.3366(3)
C16_2 C 0.5212(6) 0.7116(5) 0.3067(4)
H12_2 H 0.4629 0.5682 0.3083
H13_2 H 0.6134 0.8389 0.3121
O12_2 O 0.8570(5) 0.8490(4) 0.3000(3)
O13_2 O 0.8741(4) 0.7933(4) 0.4089(3)
C18 C 0.5941(5) 0.1073(5) 0.3314(3)
C19 C 0.8004(6) 0.1169(5) 0.3458(4)
H15 H 0.8584 0.2590 0.3587
O16_2 O 0.3918(4) 0.2339(3) 0.3375(2)
H16_2 H 0.4503 0.7426 0.2959
C20 C 0.7005(6) 0.0602(5) 0.3365(4)
C21_2 C 0.4867(5) 0.0427(4) 0.3195(3)
H18 H 0.8717 0.0853 0.3483
O18 O 0.6900(4) 0.4235(3) 0.4667(2)
C22_2 C 0.6591(5) 0.3786(4) 0.5186(3)
O21_2 O 0.7006(4) 0.3925(3) 0.5797(2)
C29_2 C 0.5550(5) 0.3100(4) 0.5093(3)
C34_2 C 0.5619(5) 0.2047(4) 0.5058(3)
C35 C 0.4468(6) 0.3550(5) 0.5063(4)
O26 O 0.9582(5) 0.6039(4) 0.6557(4)
O27 O 0.8855(5) 0.5027(5) 0.5318(3)
O28_2 O 0.9093(5) 0.2869(5) 0.5929(4)
O29_2 O 0.7772(5) 0.3160(4) 0.7103(3)
O30 O 0.7328(4) 0.5512(4) 0.6828(3)
N6 N 0.4649(4) 0.1469(4) 0.5009(3)
C40_2 C 0.6705(5) 0.1440(5) 0.5057(3)
H24 H 0.4401 0.4255 0.5079
C41 C 0.3495(6) 0.2947(5) 0.5008(4)
H27 H 0.9455 0.6405 0.6903
H29_2 H 0.8416 0.5140 0.4951
H30 H 0.9322 0.5521 0.5375
H31_2 H 0.9769 0.2693 0.5856
H32_2 H 0.8631 0.2583 0.5624
H33_2 H 0.7679 0.2520 0.7128
H34_2 H 0.7829 0.3394 0.7514
H35 H 0.7198 0.5302 0.7228
H36 H 0.6840 0.5973 0.6708
C42_2 C 0.3626(6) 0.1895(5) 0.4989(4)
O35_2 O 0.6575(4) 0.0473(3) 0.5021(2)
O36_2 O 0.7629(4) 0.1886(3) 0.5071(2)
H37_2 H 0.2769 0.3238 0.4985
H38_2 H 0.2978 0.1483 0.4962
H19 H 0.7047 0.9896 0.3338
O24_2 O 0.4629(4) 0.9873(4) 0.3675(2)
C35_2 C 0.0532(6) 0.8550(5) 0.9937(4)
N6_2 N 0.0351(4) 0.6469(4) 0.9991(3)
H24_2 H 0.0599 0.9255 0.9921
C41_2 C 0.1505(6) 0.7947(5) 0.9992(4)
Cu4_3 Cu 0.0000 0.5000 1.0000
O10_2 O 0.1900(4) 0.0765(3) 0.9667(2)
Cu3_2 Cu 0.15886(7) 0.08547(6) 0.84104(5)
N4_2 N 0.1902(4) 0.2323(4) 0.8453(3)
O20_2 O 0.3191(4) 0.0418(3) 0.8432(3)
C23_2 C 0.0924(5) 0.2876(4) 0.8362(3)
C24_2 C 0.2918(5) 0.2796(5) 0.8510(4)
C30_2 C 0.0941(5) 0.3927(5) 0.8314(3)
C31_2 C 0.3004(6) 0.3831(5) 0.8458(4)
H20_2 H 0.3584 0.2410 0.8587
C36_2 C 0.2005(6) 0.4398(5) 0.8365(4)
H22_2 H 0.3717 0.4147 0.8483
O26_2 O 0.5418(5) 0.1039(4) 0.8443(4)
O27_2 O 0.6145(5) 0.0027(5) 0.9682(3)
O30_2 O 0.7672(4) 0.0512(4) 0.8172(3)
H25_2 H 0.2047 0.5104 0.8338
H27_2 H 0.5545 0.1405 0.8097
H28_2 H 0.4696 0.0986 0.8447
H30_2 H 0.5678 0.0521 0.9625
H35_2 H 0.7802 0.0302 0.7772
H36_2 H 0.8160 0.0973 0.8292
O1_2 O 0.4582(5) 0.8961(4) 0.1557(4)
O2_2 O 0.3855(5) 0.9973(5) 0.0318(3)
O5_2 O 0.2328(4) 0.9488(4) 0.1828(3)
H1_2 H 0.4455 0.8595 0.1903
H2_2 H 0.5304 0.9014 0.1553
H4_2 H 0.4322 0.9479 0.0375
H9_2 H 0.2198 0.9698 0.2228
H10_2 H 0.1840 0.9027 0.1708
O9_2 O 0.6809(4) 0.9582(3) 0.1568(3)
Cu1_2 Cu 0.84114(7) 0.91453(6) 0.15896(5)
N2_2 N 0.8098(4) 0.7677(4) 0.1547(3)
C13_2 C 0.9076(5) 0.7124(4) 0.1638(3)
C14_2 C 0.7082(5) 0.7204(5) 0.1490(4)
C18_2 C 0.9059(5) 0.6073(5) 0.1686(3)
C19_2 C 0.6996(6) 0.6169(5) 0.1542(4)
H15_2 H 0.6416 0.7590 0.1413
C20_2 C 0.7995(6) 0.5602(5) 0.1635(4)
H18_2 H 0.6283 0.5853 0.1517
H19_2 H 0.7953 0.4896 0.1662
O18_2 O 0.8100(4) 0.9235(3) 0.0333(2)
Cu4_4 Cu 1.0000 0.5000 0.0000
N7 N 0.9649(4) 0.3531(4) 0.0009(3)
C7_2 C 0.9468(6) 0.1450(5) 0.0063(4)
H11_2 H 0.9401 0.0745 0.0079
C12_2 C 0.8495(6) 0.2053(5) 0.0008(4)
H21_2 H 0.9629 0.9318 0.8083
H23_2 H 0.9503 0.7574 0.7959
loop_
_geom_bond_atom_site_label_1
_geom_bond_atom_site_label_2
_geom_bond_site_symmetry_1
_geom_bond_site_symmetry_2
C15 O11 1_555 1_555
O16 C15 1_555 1_555
O24 C21 1_555 1_555
O25 C21 1_555 1_555
Cu4 O24 1_555 1_555
Dy3 O25 1_555 1_555
O38 Cu4 1_555 1_555
H38 C42 1_555 1_555
O3 Dy1 1_555 1_555
O4 Dy1 1_555 1_555
O6 Dy1 1_555 1_555
O7 Dy1 1_555 1_555
O8 Dy1 1_555 1_555
H5 O3 1_555 1_555
H6 O3 1_555 1_555
H7 O4 1_555 1_555
H8 O4 1_555 1_555
C1 O6 1_555 1_555
C2 O7 1_555 1_555
C3 C1 1_555 1_555
C4 C2 1_555 1_555
N1 C3 1_555 1_555
C5 C3 1_555 1_555
C6 C4 1_555 1_555
C8 N1 1_555 1_555
C9 C5 1_555 1_555
C10 C5 1_555 1_555
C11 C6 1_555 1_555
C16 C8 1_555 1_555
H13 C9 1_555 1_555
O12 C10 1_555 1_555
O13 C10 1_555 1_555
O38 C11 1_555 1_555
O15 C11 1_555 1_555
C9 C16 1_555 1_555
C26 N5 1_555 1_555
C27 N5 1_555 1_555
O21 C22 1_555 1_555
C29 C22 1_555 1_555
C32 C26 1_555 1_555
C33 C27 1_555 1_555
O23 C28 1_555 1_555
Dy2 O21 1_555 1_555
C34 C29 1_555 1_555
C38 C32 1_555 1_555
C39 C32 1_555 1_555
O28 Dy2 1_555 1_555
O29 Dy2 1_555 1_555
O31 Dy2 1_555 1_555
C40 C34 1_555 1_555
H26 C38 1_555 1_555
O33 C39 1_555 1_555
O34 C39 1_555 1_555
H31 O28 1_555 1_555
H32 O28 1_555 1_555
H33 O29 1_555 1_555
H34 O29 1_555 1_555
O35 C40 1_555 1_555
O36 C40 1_555 1_555
O37 Cu4_2 1_555 1_555
C26 C28 1_555 1_555
C33 C38 1_555 1_555
O23 Dy2 1_555 1_555
Cu4_2 O35 1_555 1_555
H17 C17 1_555 1_555
C25 O19 1_555 1_555
O22 C25 1_555 1_555
C37 O37 1_555 1_555
O32 C37 1_555 1_555
Dy4 O32 1_555 1_555
O17 Cu2 1_555 1_555
Dy3 O1 1_555 1_555
O1 H1 1_555 1_555
O2 Dy3 1_555 1_555
O3_2 Dy3 1_555 1_555
O4_2 Dy3 1_555 1_555
O5 Dy3 1_555 1_555
O7_2 Dy3 1_555 1_555
H3_2 O2 1_555 1_555
H4 O2 1_555 1_555
H5_2 O3_2 1_555 1_555
H6_2 O3_2 1_555 1_555
H7_2 O4_2 1_555 1_555
H8_2 O4_2 1_555 1_555
H9 O5 1_555 1_555
H10 O5 1_555 1_555
C2_2 O7_2 1_555 1_555
O10 C2_2 1_555 1_555
C4_2 C2_2 1_555 1_555
C6_2 C4_2 1_555 1_555
C7 C4_2 1_555 1_555
N3 C6_2 1_555 1_555
C11_2 C6_2 1_555 1_555
H11 C7 1_555 1_555
C12 C7 1_555 1_555
C17_2 N3 1_555 1_555
Cu2_2 N3 1_555 1_555
O14 C11_2 1_555 1_555
O15_2 C11_2 1_555 1_555
H14_2 C12 1_555 1_555
H17_2 C17_2 1_555 1_555
Cu3 O10 1_555 1_555
N4 Cu3 1_555 1_555
O19_2 Cu3 1_555 1_555
N5_2 Cu3 1_555 1_555
O20 Cu3 1_555 1_555
C23 N4 1_555 1_555
C24 N4 1_555 1_555
C25_2 O19_2 1_555 1_555
C26_2 N5_2 1_555 1_555
C27_2 N5_2 1_555 1_555
C28_2 O20 1_555 1_555
C30 C23 1_555 1_555
C31 C24 1_555 1_555
H20 C24 1_555 1_555
O22_2 C25_2 1_555 1_555
C32_2 C26_2 1_555 1_555
C33_2 C27_2 1_555 1_555
H21 C27_2 1_555 1_555
O23_2 C28_2 1_555 1_555
C36 C30 1_555 1_555
H22 C31 1_555 1_555
C38_2 C32_2 1_555 1_555
C39_2 C32_2 1_555 1_555
H23 C33_2 1_555 1_555
O31 C37_2 1_555 1_555
H26_2 C38_2 1_555 1_555
O33_2 C39_2 1_555 1_555
O34_2 C39_2 1_555 1_555
C12 C17_2 1_555 1_555
Cu2_2 O14 1_555 1_555
C23 C25_2 1_555 1_555
C26_2 C28_2 1_555 1_555
C30 C37_2 1_555 1_555
C31 C36 1_555 1_555
C33_2 C38_2 1_555 1_555
C1_2 O6_2 1_555 1_555
O9 C1_2 1_555 1_555
C3_2 C1_2 1_555 1_555
Cu1 O9 1_555 1_555
N1_2 C3_2 1_555 1_555
C5_2 C3_2 1_555 1_555
N2 Cu1 1_555 1_555
O11_2 Cu1 1_555 1_555
C8_2 N1_2 1_555 1_555
C9_2 C5_2 1_555 1_555
C10_2 C5_2 1_555 1_555
C13 N2 1_555 1_555
C14 N2 1_555 1_555
C15_2 O11_2 1_555 1_555
C16_2 C8_2 1_555 1_555
H12_2 C8_2 1_555 1_555
H13_2 C9_2 1_555 1_555
O12_2 C10_2 1_555 1_555
O13_2 C10_2 1_555 1_555
C18 C13 1_555 1_555
C19 C14 1_555 1_555
H15 C14 1_555 1_555
O16_2 C15_2 1_555 1_555
H16_2 C16_2 1_555 1_555
C20 C18 1_555 1_555
C21_2 C18 1_555 1_555
H18 C19 1_555 1_555
O18 Cu1 1_555 1_555
C22_2 O18 1_555 1_555
O21_2 C22_2 1_555 1_555
C29_2 C22_2 1_555 1_555
Dy4 O21_2 1_555 1_555
C34_2 C29_2 1_555 1_555
C35 C29_2 1_555 1_555
O8 C21_2 1_555 1_555
O26 Dy4 1_555 1_555
O27 Dy4 1_555 1_555
O28_2 Dy4 1_555 1_555
O29_2 Dy4 1_555 1_555
O30 Dy4 1_555 1_555
N6 C34_2 1_555 1_555
C40_2 C34_2 1_555 1_555
H24 C35 1_555 1_555
C41 C35 1_555 1_555
H27 O26 1_555 1_555
H29_2 O27 1_555 1_555
H30 O27 1_555 1_555
H31_2 O28_2 1_555 1_555
H32_2 O28_2 1_555 1_555
H33_2 O29_2 1_555 1_555
H34_2 O29_2 1_555 1_555
H35 O30 1_555 1_555
H36 O30 1_555 1_555
C42_2 N6 1_555 1_555
O35_2 C40_2 1_555 1_555
O36_2 C40_2 1_555 1_555
H37_2 C41 1_555 1_555
H38_2 C42_2 1_555 1_555
Cu1 N1_2 1_555 1_555
C9_2 C16_2 1_555 1_555
C13 C15_2 1_555 1_555
C19 C20 1_555 1_555
N6 Cu2 1_555 1_555
C41 C42_2 1_555 1_555
Cu2 O35_2 1_555 1_555
Cu2_2 O24_2 1_555 1_555
H24_2 C35_2 1_555 1_555
C41_2 C35_2 1_555 1_555
N6_2 Cu4_3 1_555 1_555
Cu3_2 O10_2 1_555 1_555
N4_2 Cu3_2 1_555 1_555
O20_2 Cu3_2 1_555 1_555
C23_2 N4_2 1_555 1_555
C24_2 N4_2 1_555 1_555
C30_2 C23_2 1_555 1_555
C31_2 C24_2 1_555 1_555
H20_2 C24_2 1_555 1_555
C36_2 C30_2 1_555 1_555
H22_2 C31_2 1_555 1_555
H25_2 C36_2 1_555 1_555
H27_2 O26_2 1_555 1_555
H28_2 O26_2 1_555 1_555
H30_2 O27_2 1_555 1_555
H35_2 O30_2 1_555 1_555
H36_2 O30_2 1_555 1_555
C31_2 C36_2 1_555 1_555
O1_2 H1_2 1_555 1_555
H2_2 O1_2 1_555 1_555
H4_2 O2_2 1_555 1_555
H9_2 O5_2 1_555 1_555
H10_2 O5_2 1_555 1_555
Cu1_2 O9_2 1_555 1_555
N2_2 Cu1_2 1_555 1_555
C13_2 N2_2 1_555 1_555
C14_2 N2_2 1_555 1_555
C18_2 C13_2 1_555 1_555
C19_2 C14_2 1_555 1_555
H15_2 C14_2 1_555 1_555
C20_2 C18_2 1_555 1_555
H18_2 C19_2 1_555 1_555
H19_2 C20_2 1_555 1_555
O18_2 Cu1_2 1_555 1_555
N7 Cu4_4 1_555 1_555
C19_2 C20_2 1_555 1_555
H11_2 C7_2 1_555 1_555
C12_2 C7_2 1_555 1_555

#END
