
###############################################################################
#
# This file contains modified crystal structure data generated from the
# MOF subset of the Cambridge Structural Database (CSD) v543 
# hosted by the Cambridge Crystallographic Data Centre (CCDC).
#
# This work is licensed under the Creative Commons
# Attribution-NonCommercial-ShareAlike 4.0 International License.
# To view a copy of this license, visit
# http://creativecommons.org/licenses/by-nc-sa/4.0/
# or send a letter to
# Creative Commons, PO Box 1866, Mountain View, CA 94042, USA.
#
# CIF created using the CSD Python API on 29 September 2022
# The structure has been converted into the P1 space group
# The structure has a 3D framework
# The original CSD entry MACUFR31 is in the monoclinic crystal system
# The framework has been calculated to contain at least 10.0% void space
# The void calculation uses a probe of radius 1.32A, grid spacing 0.4
#
###############################################################################

data_MACUFR31
_chemical_formula_moiety         '(C14 H14 Cu4 O20)n'
_symmetry_cell_setting           triclinic
_symmetry_space_group_name_H-M   'P 1'
_symmetry_Int_Tables_number      1
_space_group_name_Hall           'P 1'
loop_
_symmetry_equiv_pos_site_id
_symmetry_equiv_pos_as_xyz
1 x,y,z
_cell_length_a                   8.835(5)
_cell_length_b                   8.708(5)
_cell_length_c                   11.446(7)
_cell_angle_alpha                90
_cell_angle_beta                 95.50(3)
_cell_angle_gamma                90
_cell_volume                     876.546
loop_
_atom_site_label
_atom_site_type_symbol
_atom_site_fract_x
_atom_site_fract_y
_atom_site_fract_z
H3 H 0.0551(19) 0.0215(19) 0.2840(15)
Cu1 Cu 0.250000 0.750000 0.250000
O1 O 0.44898(10) 0.66305(10) 0.31084(7)
O2 O 0.62836(10) 0.48260(10) 0.32259(8)
C1 C 0.50407(14) 0.53743(14) 0.27894(10)
H1 H 0.4449(19) 0.4785(19) 0.2160(15)
O3 O 0.24246(10) 0.85561(10) 0.40255(7)
C2 C 0.250000 0.7874(2) 0.500000
H2 H 0.250000 0.678(3) 0.500000
O4 O 0.25754(10) 0.85561(10) 0.59745(7)
O5 O 0.05102(10) 0.83695(10) 0.18916(7)
Cu2 Cu 0.250000 0.750000 0.750000
Cu4 Cu 0.750000 0.250000 0.250000
O7 O 0.37164(10) 0.98260(10) 0.17741(8)
O8 O 0.12836(10) 0.51740(10) 0.32259(8)
O9 O 0.25754(10) 0.64439(10) 0.09745(7)
O6 O 0.87164(10) 0.01740(10) 0.17741(8)
O6_2 O 0.62836(10) 0.01740(10) 0.82259(8)
H3_2 H 0.4449(19) 0.0215(19) 0.7160(15)
Cu3 Cu 0.750000 0.250000 0.750000
O1_2 O 0.05102(10) 0.66305(10) 0.68916(7)
H1_2 H 0.0551(19) 0.4785(19) 0.7840(15)
O5_2 O 0.44898(10) 0.83695(10) 0.81084(7)
C3 C 0.50407(14) 0.96257(14) 0.77894(10)
O7_2 O 0.12836(10) 0.98260(10) 0.82259(8)
O8_2 O 0.37164(10) 0.51740(10) 0.67741(8)
O9_2 O 0.24246(10) 0.64439(10) 0.90255(7)
O2_2 O 0.87164(10) 0.48260(10) 0.67741(8)
C1_2 C 0.99593(14) 0.53743(14) 0.72106(10)
C2_2 C 0.750000 0.2874(2) -0.000000
H2_2 H 0.750000 0.178(3) -0.000000
O4_2 O 0.75754(10) 0.35561(10) 0.09745(7)
O1_3 O 0.94898(10) 0.16305(10) 0.81084(7)
O3_2 O 0.74246(10) 0.35561(10) 0.90255(7)
C2_3 C 0.750000 0.2874(2) 1.000000
H2_3 H 0.750000 0.178(3) 1.000000
O5_3 O 0.55102(10) 0.33695(10) 0.68916(7)
C3_2 C 0.49593(14) 0.46257(14) 0.72106(10)
H3_3 H 0.5551(19) 0.5215(19) 0.7840(15)
O9_3 O 0.75754(10) 0.14439(10) 0.59745(7)
C3_3 C 0.00407(14) 0.46257(14) 0.27894(10)
O1_4 O 0.55102(10) 0.16305(10) 0.18916(7)
C1_3 C 0.49593(14) 0.03743(14) 0.22106(10)
O5_4 O 0.94898(10) 0.33695(10) 0.31084(7)
H3_4 H 0.9449(19) 0.5215(19) 0.2160(15)
O9_4 O 0.74246(10) 0.14439(10) 0.40255(7)
H1_3 H 0.5551(19) 0.9785(19) 0.2840(15)
C2_4 C 0.750000 0.2126(2) 0.500000
H2_4 H 0.750000 0.322(3) 0.500000
C2_5 C 0.250000 0.7126(2) 0.000000
H2_5 H 0.250000 0.822(3) 0.000000
C2_6 C 0.250000 0.7126(2) 1.000000
H2_6 H 0.250000 0.822(3) 1.000000
C3_4 C 0.99593(14) 0.96257(14) 0.22106(10)
C1_4 C 0.00407(14) 0.03743(14) 0.77894(10)
H1_4 H 0.9449(19) 0.9785(19) 0.7160(15)
loop_
_geom_bond_atom_site_label_1
_geom_bond_atom_site_label_2
_geom_bond_site_symmetry_1
_geom_bond_site_symmetry_2
Cu1 O1 1_555 1_555
O1 C1 1_555 1_555
O2 C1 1_555 1_555
C1 H1 1_555 1_555
O3 Cu1 1_555 1_555
C2 O3 1_555 1_555
H2 C2 1_555 1_555
O4 C2 1_555 1_555
O5 Cu1 1_555 1_555
Cu2 O4 1_555 1_555
Cu4 O2 1_555 1_555
O7 Cu1 1_555 1_555
O8 Cu1 1_555 1_555
O9 Cu1 1_555 1_555
Cu4 O6 1_555 1_555
Cu3 O6_2 1_555 1_555
Cu2 O1_2 1_555 1_555
O5_2 Cu2 1_555 1_555
C3 O5_2 1_555 1_555
O7_2 Cu2 1_555 1_555
O8_2 Cu2 1_555 1_555
O9_2 Cu2 1_555 1_555
O2_2 C1_2 1_555 1_555
Cu3 O2_2 1_555 1_555
H2_2 C2_2 1_555 1_555
O4_2 C2_2 1_555 1_555
Cu4 O4_2 1_555 1_555
Cu3 O1_3 1_555 1_555
O3_2 Cu3 1_555 1_555
C2_3 O3_2 1_555 1_555
H2_3 C2_3 1_555 1_555
O5_3 Cu3 1_555 1_555
O8_2 C3_2 1_555 1_555
C3_2 O5_3 1_555 1_555
H3_3 C3_2 1_555 1_555
O9_3 Cu3 1_555 1_555
O8 C3_3 1_555 1_555
Cu4 O1_4 1_555 1_555
O1_4 C1_3 1_555 1_555
O5_4 Cu4 1_555 1_555
O9_4 Cu4 1_555 1_555
C2_4 O9_3 1_555 1_555
H2_4 C2_4 1_555 1_555
O9_4 C2_4 1_555 1_555
C2_5 O9 1_555 1_555
H2_5 C2_5 1_555 1_555
H2_6 C2_6 1_555 1_555
O9_2 C2_6 1_555 1_555

#END
