
###############################################################################
#
# This file contains modified crystal structure data generated from the
# MOF subset of the Cambridge Structural Database (CSD) v543 
# hosted by the Cambridge Crystallographic Data Centre (CCDC).
#
# This work is licensed under the Creative Commons
# Attribution-NonCommercial-ShareAlike 4.0 International License.
# To view a copy of this license, visit
# http://creativecommons.org/licenses/by-nc-sa/4.0/
# or send a letter to
# Creative Commons, PO Box 1866, Mountain View, CA 94042, USA.
#
# CIF created using the CSD Python API on 29 September 2022
# The structure has been converted into the P1 space group
# The structure has a 3D framework
# The original CSD entry MAGBAZ is in the monoclinic crystal system
# The framework has been calculated to contain at least 10.0% void space
# The void calculation uses a probe of radius 1.32A, grid spacing 0.4
#
###############################################################################

data_MAGBAZ
_chemical_formula_moiety         '(C56 H84 N16 O28 P4 Zn6)n'
_symmetry_cell_setting           triclinic
_symmetry_space_group_name_H-M   'P 1'
_symmetry_Int_Tables_number      1
_space_group_name_Hall           'P 1'
loop_
_symmetry_equiv_pos_site_id
_symmetry_equiv_pos_as_xyz
1 x,y,z
_cell_length_a                   9.866(3)
_cell_length_b                   15.449(5)
_cell_length_c                   13.963(4)
_cell_angle_alpha                90
_cell_angle_beta                 90.000(4)
_cell_angle_gamma                90
_cell_volume                     2128.24
loop_
_atom_site_label
_atom_site_type_symbol
_atom_site_fract_x
_atom_site_fract_y
_atom_site_fract_z
C7 C 0.1303(4) 0.1384(3) 0.0496(3)
O4 O 0.0974(3) 0.1197(2) 0.1318(2)
O5 O 0.2497(3) 0.13787(19) 0.0156(2)
Zn4 Zn 0.40279(4) 0.09772(3) 0.09591(3)
H1 H 0.8769 0.0818 0.0282
O1 O 0.5825(3) 0.09259(17) 0.03454(19)
O10 O 0.4040(3) 0.18398(19) 0.19888(19)
Zn2 Zn 0.41773(5) 0.13746(3) 0.76369(3)
C1 C 0.7878(4) 0.1519(2) 0.9242(3)
C2 C 0.8923(4) 0.1260(2) 0.9843(3)
C5 C 0.9388(4) 0.2567(2) 0.8517(2)
C6 C 0.8131(4) 0.2161(2) 0.8565(3)
H3 H 0.7451 0.2320 0.8139
C8 C 0.9580(4) 0.3296(3) 0.7806(3)
C9 C 0.2402(4) 0.2701(3) 0.6853(3)
H4 H 0.2250 0.3275 0.6595
H5 H 0.1706 0.2587 0.7327
C10 C 0.2307(5) 0.2047(3) 0.6065(3)
H6 H 0.1391 0.2037 0.5814
H7 H 0.2915 0.2208 0.5549
C11 C 0.4897(5) 0.0945(3) 0.5716(3)
H8 H 0.5399 0.0599 0.5257
H9 H 0.4977 0.1548 0.5532
C12 C 0.3416(5) 0.0677(3) 0.5710(3)
H10 H 0.3033 0.0775 0.5079
H11 H 0.3342 0.0065 0.5856
C13 C 0.1956(4) 0.0073(3) 0.7578(3)
C14 C 0.1510(4) 0.0713(3) 0.6834(3)
H14 H 0.1029 0.0412 0.6328
H15 H 0.0890 0.1126 0.7122
N1 N 0.2669(3) 0.1180(2) 0.6421(2)
N2 N 0.5460(4) 0.0821(3) 0.6672(3)
N3 N 0.3736(4) 0.2666(2) 0.7308(3)
N4 N 0.2869(4) 0.0505(2) 0.8286(2)
O2 O 0.6261(3) 0.02177(17) 0.87131(19)
O3 O 0.5258(3) 0.17090(17) 0.88095(19)
O7 O 0.9040(3) 0.31602(19) 0.69888(19)
P1 P 0.61908(10) 0.10532(6) 0.92909(7)
H16 H 0.551(5) 0.0242(8) 0.672(3)
H17 H 0.628(2) 0.107(3) 0.670(4)
H18 H 0.235(4) 0.075(3) 0.874(2)
H19 H 0.431(5) 0.293(4) 0.690(4)
H20 H 0.376(4) 0.291(3) 0.7890(16)
H21 H 0.333(5) 0.013(3) 0.865(3)
Zn5 Zn 0.90279(4) 0.40228(3) 0.59591(3)
O8 O 0.3739(3) 0.97823(17) 0.12869(19)
H12 H 0.1170 0.9839 0.7905
H13 H 0.2432 0.9598 0.7273
Zn3 Zn 0.59721(4) 0.90228(3) 0.90409(3)
Zn1 Zn 0.09721(4) 0.59772(3) 0.40409(3)
Zn2_2 Zn 0.08227(5) 0.63746(3) 0.73631(3)
C9_2 C 0.2598(4) 0.7701(3) 0.8147(3)
H4_2 H 0.2750 0.8275 0.8405
H5_2 H 0.3294 0.7587 0.7673
C10_2 C 0.2693(5) 0.7047(3) 0.8935(3)
H6_2 H 0.3609 0.7037 0.9186
H7_2 H 0.2085 0.7208 0.9451
C11_2 C 0.0103(5) 0.5945(3) 0.9284(3)
H9_2 H 0.0023 0.6548 0.9468
C12_2 C 0.1584(5) 0.5677(3) 0.9290(3)
H10_2 H 0.1967 0.5775 0.9921
H11_2 H 0.1658 0.5065 0.9144
C13_2 C 0.3044(4) 0.5073(3) 0.7422(3)
H12_2 H 0.3830 0.4839 0.7095
H13_2 H 0.2568 0.4598 0.7727
C14_2 C 0.3490(4) 0.5713(3) 0.8166(3)
H14_2 H 0.3971 0.5412 0.8672
H15_2 H 0.4110 0.6126 0.7878
N1_2 N 0.2331(3) 0.6180(2) 0.8579(2)
N3_2 N 0.1264(4) 0.7666(2) 0.7692(3)
N4_2 N 0.2131(4) 0.5505(2) 0.6714(2)
H18_2 H 0.265(4) 0.575(3) 0.626(2)
H19_2 H 0.069(5) 0.793(4) 0.810(4)
H20_2 H 0.124(4) 0.791(3) 0.7110(16)
H21_2 H 0.167(5) 0.513(3) 0.635(3)
O8_2 O 0.1261(3) 0.47823(17) 0.37131(19)
O9 O 0.2503(3) 0.63787(19) 0.4844(2)
O10_2 O 0.0960(3) 0.68398(19) 0.30112(19)
C1_2 C 0.7122(4) 0.6519(2) 0.5758(3)
C2_2 C 0.6077(4) 0.6260(2) 0.5157(3)
H1_2 H 0.6231 0.5818 0.4718
C3 C 0.4800(4) 0.6648(3) 0.5196(3)
C4 C 0.4576(4) 0.7310(3) 0.5865(3)
H2 H 0.3734 0.7579 0.5896
C5_2 C 0.5612(4) 0.7567(2) 0.6483(2)
C6_2 C 0.6869(4) 0.7161(2) 0.6435(3)
H3_2 H 0.7549 0.7320 0.6861
C7_2 C 0.3697(4) 0.6384(3) 0.4504(3)
C8_2 C 0.5420(4) 0.8296(3) 0.7194(3)
H8_2 H 0.9601 0.5599 0.9743
N2_2 N 0.9540(4) 0.5821(3) 0.8328(3)
O1_2 O 0.9175(3) 0.59259(17) 0.46546(19)
O2_2 O 0.8739(3) 0.52177(17) 0.62869(19)
O3_2 O 0.9742(3) 0.67090(17) 0.61905(19)
O4_2 O 0.4026(3) 0.6197(2) 0.3682(2)
O6 O 0.4767(3) 0.89421(19) 0.6967(2)
O7_2 O 0.5960(3) 0.81602(19) 0.80112(19)
P1_2 P 0.88092(10) 0.60532(6) 0.57091(7)
H16_2 H 0.949(5) 0.5242(8) 0.828(3)
H17_2 H 0.872(2) 0.607(3) 0.830(4)
H12_3 H 0.8830 0.0161 0.2095
H13_3 H 0.7568 0.0402 0.2727
Zn2_3 Zn 0.58227(5) 0.86254(3) 0.23631(3)
C1_3 C 0.2122(4) 0.8481(2) 0.0758(3)
C2_3 C 0.1077(4) 0.8740(2) 0.0157(3)
C5_3 C 0.0612(4) 0.7433(2) 0.1483(2)
C6_3 C 0.1869(4) 0.7839(2) 0.1435(3)
H3_3 H 0.2549 0.7680 0.1861
C8_3 C 0.0420(4) 0.6704(3) 0.2194(3)
C9_3 C 0.7598(4) 0.7299(3) 0.3147(3)
H4_3 H 0.7750 0.6725 0.3405
H5_3 H 0.8294 0.7413 0.2673
C10_3 C 0.7693(5) 0.7953(3) 0.3935(3)
H6_3 H 0.8609 0.7963 0.4186
H7_3 H 0.7085 0.7792 0.4451
C11_3 C 0.5103(5) 0.9055(3) 0.4284(3)
H8_3 H 0.4601 0.9401 0.4743
H9_3 H 0.5023 0.8452 0.4468
C12_3 C 0.6584(5) 0.9323(3) 0.4290(3)
H10_3 H 0.6967 0.9225 0.4921
H11_3 H 0.6658 0.9935 0.4144
C13_3 C 0.8044(4) 0.9927(3) 0.2422(3)
C14_3 C 0.8490(4) 0.9287(3) 0.3166(3)
H14_3 H 0.8971 0.9588 0.3672
H15_3 H 0.9110 0.8874 0.2878
N1_3 N 0.7331(3) 0.8820(2) 0.3579(2)
N2_3 N 0.4540(4) 0.9179(3) 0.3328(3)
N3_3 N 0.6264(4) 0.7334(2) 0.2692(3)
N4_3 N 0.7131(4) 0.9495(2) 0.1714(2)
O3_3 O 0.4742(3) 0.82910(17) 0.11905(19)
P1_3 P 0.38092(10) 0.89468(6) 0.07091(7)
H16_3 H 0.449(5) 0.9758(8) 0.328(3)
H17_3 H 0.372(2) 0.893(3) 0.330(4)
H18_3 H 0.765(4) 0.925(3) 0.126(2)
H19_3 H 0.569(5) 0.707(4) 0.310(4)
H20_3 H 0.624(4) 0.709(3) 0.2110(16)
H21_3 H 0.667(5) 0.987(3) 0.135(3)
H1_3 H 0.1231 0.9182 0.9718
O1_3 O 0.4175(3) 0.90741(17) 0.96546(19)
O9_2 O 0.7503(3) 0.86213(19) 0.9844(2)
C7_3 C 0.8697(4) 0.8616(3) 0.9504(3)
O4_3 O 0.9026(3) 0.8803(2) 0.8682(2)
C1_4 C 0.2878(4) 0.3481(2) 0.4242(3)
C2_4 C 0.3923(4) 0.3740(2) 0.4843(3)
H1_4 H 0.3769 0.4182 0.5282
C3_2 C 0.5200(4) 0.3352(3) 0.4804(3)
C4_2 C 0.5424(4) 0.2690(3) 0.4135(3)
H2_2 H 0.6266 0.2421 0.4104
C5_4 C 0.4388(4) 0.2433(2) 0.3517(2)
C6_4 C 0.3131(4) 0.2839(2) 0.3565(3)
H3_4 H 0.2451 0.2680 0.3139
C7_4 C 0.6303(4) 0.3616(3) 0.5496(3)
C8_4 C 0.4580(4) 0.1704(3) 0.2806(3)
H8_4 H 0.0399 0.4401 0.0257
N2_4 N 0.0460(4) 0.4179(3) 0.1672(3)
O1_4 O 0.0825(3) 0.40741(17) 0.53454(19)
O3_4 O 0.0258(3) 0.32910(17) 0.38095(19)
O4_4 O 0.5974(3) 0.3803(2) 0.6318(2)
O5_2 O 0.7497(3) 0.36213(19) 0.5156(2)
O6_2 O 0.5233(3) 0.10579(19) 0.3033(2)
P1_4 P 0.11908(10) 0.39468(6) 0.42909(7)
H16_4 H 0.051(5) 0.4758(8) 0.172(3)
H17_4 H 0.128(2) 0.393(3) 0.170(4)
Zn2_4 Zn 0.91773(5) 0.36254(3) 0.26369(3)
C9_4 C 0.7402(4) 0.2299(3) 0.1853(3)
H4_4 H 0.7250 0.1725 0.1595
H5_4 H 0.6706 0.2413 0.2327
C10_4 C 0.7307(5) 0.2953(3) 0.1065(3)
H6_4 H 0.6391 0.2963 0.0814
H7_4 H 0.7915 0.2792 0.0549
C11_4 C 0.9897(5) 0.4055(3) 0.0716(3)
H9_4 H 0.9977 0.3452 0.0532
C12_4 C 0.8416(5) 0.4323(3) 0.0710(3)
H10_4 H 0.8033 0.4225 0.0079
H11_4 H 0.8342 0.4935 0.0856
C13_4 C 0.6956(4) 0.4927(3) 0.2578(3)
H12_4 H 0.6170 0.5161 0.2905
H13_4 H 0.7432 0.5402 0.2273
C14_4 C 0.6510(4) 0.4287(3) 0.1834(3)
H14_4 H 0.6029 0.4588 0.1328
H15_4 H 0.5890 0.3874 0.2122
N1_4 N 0.7669(3) 0.3820(2) 0.1421(2)
N3_4 N 0.8736(4) 0.2334(2) 0.2308(3)
N4_4 N 0.7869(4) 0.4495(2) 0.3286(2)
H18_4 H 0.735(4) 0.425(3) 0.374(2)
H19_4 H 0.931(5) 0.207(4) 0.190(4)
H20_4 H 0.876(4) 0.209(3) 0.2890(16)
H21_4 H 0.833(5) 0.487(3) 0.365(3)
C3_3 C 0.0200(4) 0.1648(3) 0.9804(3)
C4_3 C 0.0424(4) 0.2310(3) 0.9135(3)
H2_3 H 0.1266 0.2579 0.9104
O6_3 O 0.0233(3) 0.39421(19) 0.8033(2)
C3_4 C 0.9800(4) 0.8352(3) 0.0196(3)
C4_4 C 0.9576(4) 0.7690(3) 0.0865(3)
H2_4 H 0.8734 0.7421 0.0896
O6_4 O 0.9767(3) 0.60579(19) 0.1967(2)
loop_
_geom_bond_atom_site_label_1
_geom_bond_atom_site_label_2
_geom_bond_site_symmetry_1
_geom_bond_site_symmetry_2
O4 C7 1_555 1_555
O5 C7 1_555 1_555
Zn4 O5 1_555 1_555
Zn4 O1 1_555 1_555
O10 Zn4 1_555 1_555
Zn2 N1 1_555 1_555
C1 C2 1_555 1_555
C6 C1 1_555 1_555
H3 C6 1_555 1_555
C8 C5 1_555 1_555
C9 H4 1_555 1_555
H5 C9 1_555 1_555
C10 C9 1_555 1_555
H6 C10 1_555 1_555
H7 C10 1_555 1_555
C11 H8 1_555 1_555
H9 C11 1_555 1_555
C12 C11 1_555 1_555
H10 C12 1_555 1_555
H11 C12 1_555 1_555
C14 C13 1_555 1_555
H14 C14 1_555 1_555
H15 C14 1_555 1_555
N1 C10 1_555 1_555
N2 Zn2 1_555 1_555
N3 Zn2 1_555 1_555
N4 Zn2 1_555 1_555
O2 P1 1_555 1_555
O3 Zn2 1_555 1_555
O7 C8 1_555 1_555
P1 C1 1_555 1_555
H16 N2 1_555 1_555
H17 N2 1_555 1_555
H18 N4 1_555 1_555
H19 N3 1_555 1_555
H20 N3 1_555 1_555
H21 N4 1_555 1_555
Zn5 O7 1_555 1_555
C5 C6 1_555 1_555
C9 N3 1_555 1_555
C11 N2 1_555 1_555
C12 N1 1_555 1_555
C13 N4 1_555 1_555
C14 N1 1_555 1_555
O3 P1 1_555 1_555
Zn2_2 N1_2 1_555 1_555
C9_2 H4_2 1_555 1_555
H5_2 C9_2 1_555 1_555
C10_2 C9_2 1_555 1_555
H6_2 C10_2 1_555 1_555
H7_2 C10_2 1_555 1_555
H9_2 C11_2 1_555 1_555
C12_2 C11_2 1_555 1_555
H10_2 C12_2 1_555 1_555
H11_2 C12_2 1_555 1_555
C13_2 H12_2 1_555 1_555
H13_2 C13_2 1_555 1_555
C14_2 C13_2 1_555 1_555
H14_2 C14_2 1_555 1_555
H15_2 C14_2 1_555 1_555
N1_2 C10_2 1_555 1_555
N3_2 Zn2_2 1_555 1_555
N4_2 Zn2_2 1_555 1_555
H18_2 N4_2 1_555 1_555
H19_2 N3_2 1_555 1_555
H20_2 N3_2 1_555 1_555
H21_2 N4_2 1_555 1_555
O8_2 Zn1 1_555 1_555
O9 Zn1 1_555 1_555
O10_2 Zn1 1_555 1_555
C9_2 N3_2 1_555 1_555
C12_2 N1_2 1_555 1_555
C13_2 N4_2 1_555 1_555
C14_2 N1_2 1_555 1_555
C1_2 C2_2 1_555 1_555
C2_2 H1_2 1_555 1_555
C3 C2_2 1_555 1_555
C4 C3 1_555 1_555
H2 C4 1_555 1_555
C5_2 C4 1_555 1_555
C6_2 C1_2 1_555 1_555
H3_2 C6_2 1_555 1_555
C7_2 C3 1_555 1_555
C8_2 C5_2 1_555 1_555
O1_2 P1_2 1_555 1_555
O2_2 P1_2 1_555 1_555
O4_2 C7_2 1_555 1_555
O9 C7_2 1_555 1_555
O6 C8_2 1_555 1_555
O7_2 C8_2 1_555 1_555
P1_2 C1_2 1_555 1_555
H16_2 N2_2 1_555 1_555
H17_2 N2_2 1_555 1_555
Zn5 O2_2 1_555 1_555
Zn3 O7_2 1_555 1_555
C5_2 C6_2 1_555 1_555
O3_2 P1_2 1_555 1_555
Zn2_3 N1_3 1_555 1_555
C1_3 C2_3 1_555 1_555
C6_3 C1_3 1_555 1_555
H3_3 C6_3 1_555 1_555
C8_3 C5_3 1_555 1_555
C9_3 H4_3 1_555 1_555
H5_3 C9_3 1_555 1_555
C10_3 C9_3 1_555 1_555
H6_3 C10_3 1_555 1_555
H7_3 C10_3 1_555 1_555
C11_3 H8_3 1_555 1_555
H9_3 C11_3 1_555 1_555
C12_3 C11_3 1_555 1_555
H10_3 C12_3 1_555 1_555
H11_3 C12_3 1_555 1_555
C14_3 C13_3 1_555 1_555
H14_3 C14_3 1_555 1_555
H15_3 C14_3 1_555 1_555
N1_3 C10_3 1_555 1_555
N2_3 Zn2_3 1_555 1_555
N3_3 Zn2_3 1_555 1_555
N4_3 Zn2_3 1_555 1_555
O8 P1_3 1_555 1_555
O3_3 Zn2_3 1_555 1_555
O10_2 C8_3 1_555 1_555
P1_3 C1_3 1_555 1_555
H16_3 N2_3 1_555 1_555
H17_3 N2_3 1_555 1_555
H18_3 N4_3 1_555 1_555
H19_3 N3_3 1_555 1_555
H20_3 N3_3 1_555 1_555
H21_3 N4_3 1_555 1_555
C5_3 C6_3 1_555 1_555
C9_3 N3_3 1_555 1_555
C11_3 N2_3 1_555 1_555
C12_3 N1_3 1_555 1_555
C13_3 N4_3 1_555 1_555
C14_3 N1_3 1_555 1_555
O3_3 P1_3 1_555 1_555
Zn3 O1_3 1_555 1_555
O9_2 Zn3 1_555 1_555
O4_3 C7_3 1_555 1_555
O9_2 C7_3 1_555 1_555
C1_4 C2_4 1_555 1_555
C2_4 H1_4 1_555 1_555
C3_2 C2_4 1_555 1_555
C4_2 C3_2 1_555 1_555
H2_2 C4_2 1_555 1_555
C5_4 C4_2 1_555 1_555
C6_4 C1_4 1_555 1_555
H3_4 C6_4 1_555 1_555
C7_4 C3_2 1_555 1_555
C8_4 C5_4 1_555 1_555
O1_4 P1_4 1_555 1_555
O8_2 P1_4 1_555 1_555
O4_4 C7_4 1_555 1_555
O5_2 C7_4 1_555 1_555
O6_2 C8_4 1_555 1_555
O10 C8_4 1_555 1_555
P1_4 C1_4 1_555 1_555
H16_4 N2_4 1_555 1_555
H17_4 N2_4 1_555 1_555
Zn5 O5_2 1_555 1_555
C5_4 C6_4 1_555 1_555
O3_4 P1_4 1_555 1_555
Zn2_4 N1_4 1_555 1_555
C9_4 H4_4 1_555 1_555
H5_4 C9_4 1_555 1_555
C10_4 C9_4 1_555 1_555
H6_4 C10_4 1_555 1_555
H7_4 C10_4 1_555 1_555
H9_4 C11_4 1_555 1_555
C12_4 C11_4 1_555 1_555
H10_4 C12_4 1_555 1_555
H11_4 C12_4 1_555 1_555
C13_4 H12_4 1_555 1_555
H13_4 C13_4 1_555 1_555
C14_4 C13_4 1_555 1_555
H14_4 C14_4 1_555 1_555
H15_4 C14_4 1_555 1_555
N1_4 C10_4 1_555 1_555
N3_4 Zn2_4 1_555 1_555
N4_4 Zn2_4 1_555 1_555
H18_4 N4_4 1_555 1_555
H19_4 N3_4 1_555 1_555
H20_4 N3_4 1_555 1_555
H21_4 N4_4 1_555 1_555
C9_4 N3_4 1_555 1_555
C12_4 N1_4 1_555 1_555
C13_4 N4_4 1_555 1_555
C14_4 N1_4 1_555 1_555
C4_3 C3_3 1_555 1_555
H2_3 C4_3 1_555 1_555
C4_4 C3_4 1_555 1_555
H2_4 C4_4 1_555 1_555

#END
