
###############################################################################
#
# This file contains modified crystal structure data generated from the
# MOF subset of the Cambridge Structural Database (CSD) v543 
# hosted by the Cambridge Crystallographic Data Centre (CCDC).
#
# This work is licensed under the Creative Commons
# Attribution-NonCommercial-ShareAlike 4.0 International License.
# To view a copy of this license, visit
# http://creativecommons.org/licenses/by-nc-sa/4.0/
# or send a letter to
# Creative Commons, PO Box 1866, Mountain View, CA 94042, USA.
#
# CIF created using the CSD Python API on 29 September 2022
# The structure has been converted into the P1 space group
# The structure has a 3D framework
# The original CSD entry MAJMAP is in the orthorhombic crystal system
# The framework has been calculated to contain at least 10.0% void space
# The void calculation uses a probe of radius 1.32A, grid spacing 0.4
# The framework is charged, counterions have been retained in the structure
#
###############################################################################

data_MAJMAP
_chemical_formula_moiety         '(C72 H48 Cu4 N24 4+)n'
_symmetry_cell_setting           triclinic
_symmetry_space_group_name_H-M   'P 1'
_symmetry_Int_Tables_number      1
_space_group_name_Hall           'P 1'
loop_
_symmetry_equiv_pos_site_id
_symmetry_equiv_pos_as_xyz
1 x,y,z
_cell_length_a                   25.6309(19)
_cell_length_b                   3.6250(3)
_cell_length_c                   21.0696(16)
_cell_angle_alpha                90
_cell_angle_beta                 90
_cell_angle_gamma                90
_cell_volume                     1957.62
loop_
_atom_site_label
_atom_site_type_symbol
_atom_site_fract_x
_atom_site_fract_y
_atom_site_fract_z
N7 N 0.63634(19) 0.3341(13) 0.0443(2)
Cu1 Cu 0.63998(2) 0.10166(19) 0.95948(4)
C1 C 0.4766(2) 0.0651(15) 0.8489(3)
N1 N 0.5723(2) 0.0585(14) 0.9111(3)
C3 C 0.4256(2) 0.0761(16) 0.8168(3)
C4 C 0.3765(2) 0.2333(16) 0.7329(3)
N3 N 0.33130(19) 0.1096(13) 0.7608(2)
C5 C 0.3216(2) 0.5590(16) 0.5778(3)
H1 H 0.2892 0.5799 0.5584
C6 C 0.3230(2) 0.4235(17) 0.6375(3)
H2 H 0.2922 0.3556 0.6576
C10 C 0.4110(2) 0.6261(17) 0.5745(3)
H5 H 0.4410 0.6943 0.5526
N4 N 0.42367(19) 0.2235(13) 0.7586(2)
C14 C 0.5216(2) 0.1907(17) 0.8190(3)
H9 H 0.5202 0.2761 0.7774
C16 C 0.4165(2) 0.4914(15) 0.6350(3)
H11 H 0.4494 0.4701 0.6533
C17 C 0.3709(2) 0.3843(14) 0.6697(3)
C18 C 0.5683(2) 0.1873(17) 0.8515(3)
H12 H 0.5981 0.2772 0.8315
N5 N 0.36366(19) 0.6659(13) 0.5443(2)
Cu2 Cu 0.36002(2) 0.89834(19) 0.45948(4)
C1_2 C 0.5234(2) 0.9349(15) 0.3489(3)
N1_2 N 0.4277(2) 0.9415(14) 0.4111(3)
C3_2 C 0.5744(2) 0.9239(16) 0.3168(3)
C4_2 C 0.6235(2) 0.7667(16) 0.2329(3)
N3_2 N 0.66870(19) 0.8904(13) 0.2608(2)
C5_2 C 0.6784(2) 0.4410(16) 0.0778(3)
H1_2 H 0.7108 0.4201 0.0584
C6_2 C 0.6770(2) 0.5765(17) 0.1375(3)
H2_2 H 0.7078 0.6444 0.1576
C10_2 C 0.5890(2) 0.3739(17) 0.0745(3)
H5_2 H 0.5590 0.3057 0.0526
N4_2 N 0.57633(19) 0.7765(13) 0.2586(2)
C14_2 C 0.4784(2) 0.8093(17) 0.3190(3)
H9_2 H 0.4798 0.7239 0.2774
C16_2 C 0.5835(2) 0.5086(15) 0.1350(3)
H11_2 H 0.5506 0.5299 0.1533
C17_2 C 0.6291(2) 0.6157(14) 0.1697(3)
C18_2 C 0.4317(2) 0.8127(17) 0.3515(3)
H12_2 H 0.4019 0.7228 0.3315
C2 C 0.3391(2) 0.9731(15) 0.8194(3)
N2 N 0.38424(19) 0.9441(13) 0.8497(3)
C7 C 0.4817(3) 0.9292(18) 0.9104(3)
H3 H 0.4528 0.8352 0.9317
C8 C 0.2433(2) 0.8274(16) 0.8237(3)
H4 H 0.2395 0.9039 0.7818
C9 C 0.2924(2) 0.8383(15) 0.8521(3)
C11 C 0.5294(2) 0.9349(17) 0.9392(3)
H6 H 0.5320 0.8479 0.9807
C12 C 0.2008(2) 0.7060(16) 0.8566(3)
H7 H 0.1686 0.7019 0.8363
C13 C 0.2946(3) 0.7189(16) 0.9153(3)
H8 H 0.3262 0.7242 0.9370
C15 C 0.2506(2) 0.5946(16) 0.9453(3)
H10 H 0.2536 0.5089 0.9867
N6 N 0.2038(2) 0.5910(14) 0.9177(3)
Cu3 Cu 0.13998(2) 0.39834(19) 0.95948(4)
N8 N 0.7038(2) 0.9090(14) 0.9177(3)
N1_3 N 0.0723(2) 0.4415(14) 0.9111(3)
C11_2 C 0.0294(2) 0.5651(17) 0.9392(3)
H6_2 H 0.0320 0.6521 0.9807
C14_3 C 0.0216(2) 0.3093(17) 0.8190(3)
H9_3 H 0.0202 0.2239 0.7774
C18_3 C 0.0683(2) 0.3127(17) 0.8515(3)
H12_3 H 0.0981 0.2228 0.8315
C1_3 C 0.9766(2) 0.4349(15) 0.8489(3)
C2_2 C 0.8391(2) 0.5269(15) 0.8194(3)
C3_3 C 0.9256(2) 0.4239(16) 0.8168(3)
N2_2 N 0.88424(19) 0.5559(13) 0.8497(3)
C4_3 C 0.8765(2) 0.2667(16) 0.7329(3)
N3_3 N 0.83130(19) 0.3904(13) 0.7608(2)
C6_3 C 0.8230(2) 0.0765(17) 0.6375(3)
H2_3 H 0.7922 0.1444 0.6576
C7_2 C 0.9817(3) 0.5708(18) 0.9104(3)
H3_2 H 0.9528 0.6648 0.9317
C8_2 C 0.7433(2) 0.6726(16) 0.8237(3)
H4_2 H 0.7395 0.5961 0.7818
C9_2 C 0.7924(2) 0.6617(15) 0.8521(3)
N4_3 N 0.92367(19) 0.2765(13) 0.7586(2)
C12_2 C 0.7008(2) 0.7940(16) 0.8566(3)
H7_2 H 0.6686 0.7981 0.8363
C13_2 C 0.7946(3) 0.7811(16) 0.9153(3)
H8_2 H 0.8262 0.7758 0.9370
C15_2 C 0.7506(2) 0.9054(16) 0.9453(3)
H10_2 H 0.7536 0.9911 0.9867
C16_3 C 0.9165(2) 0.0086(15) 0.6350(3)
H11_3 H 0.9494 0.0299 0.6533
C17_3 C 0.8709(2) 0.1157(14) 0.6697(3)
C2_3 C 0.6609(2) 0.0269(15) 0.3194(3)
N2_3 N 0.61576(19) 0.0559(13) 0.3497(3)
C7_3 C 0.5183(3) 0.0708(18) 0.4104(3)
H3_3 H 0.5472 0.1648 0.4317
C8_3 C 0.7567(2) 0.1726(16) 0.3237(3)
H4_3 H 0.7605 0.0961 0.2818
C9_3 C 0.7076(2) 0.1617(15) 0.3521(3)
C11_3 C 0.4706(2) 0.0651(17) 0.4392(3)
H6_3 H 0.4680 0.1521 0.4807
C12_3 C 0.7992(2) 0.2940(16) 0.3566(3)
H7_3 H 0.8314 0.2981 0.3363
C13_3 C 0.7054(3) 0.2811(16) 0.4153(3)
H8_3 H 0.6738 0.2758 0.4370
C15_3 C 0.7494(2) 0.4054(16) 0.4453(3)
H10_3 H 0.7464 0.4911 0.4867
N6_2 N 0.7962(2) 0.4090(14) 0.4177(3)
Cu3_2 Cu 0.86002(2) 0.60166(19) 0.45948(4)
N8_2 N 0.2962(2) 0.0910(14) 0.4177(3)
C1_4 C 0.0234(2) 0.5651(15) 0.3489(3)
C2_4 C 0.1609(2) 0.4731(15) 0.3194(3)
C3_4 C 0.0744(2) 0.5761(16) 0.3168(3)
N2_4 N 0.11576(19) 0.4441(13) 0.3497(3)
C4_4 C 0.1235(2) 0.7333(16) 0.2329(3)
N3_4 N 0.16870(19) 0.6096(13) 0.2608(2)
C6_4 C 0.1770(2) 0.9235(17) 0.1375(3)
H2_4 H 0.2078 0.8556 0.1576
C7_4 C 0.0183(3) 0.4292(18) 0.4104(3)
H3_4 H 0.0472 0.3352 0.4317
C8_4 C 0.2567(2) 0.3274(16) 0.3237(3)
H4_4 H 0.2605 0.4039 0.2818
C9_4 C 0.2076(2) 0.3383(15) 0.3521(3)
N4_4 N 0.07633(19) 0.7235(13) 0.2586(2)
C12_4 C 0.2992(2) 0.2060(16) 0.3566(3)
H7_4 H 0.3314 0.2019 0.3363
C13_4 C 0.2054(3) 0.2189(16) 0.4153(3)
H8_4 H 0.1738 0.2242 0.4370
C15_4 C 0.2494(2) 0.0946(16) 0.4453(3)
H10_4 H 0.2464 0.0089 0.4867
C16_4 C 0.0835(2) 0.9914(15) 0.1350(3)
H11_4 H 0.0506 0.9701 0.1533
C17_4 C 0.1291(2) 0.8843(14) 0.1697(3)
N1_4 N 0.9277(2) 0.5585(14) 0.4111(3)
C11_4 C 0.9706(2) 0.4349(17) 0.4392(3)
H6_4 H 0.9680 0.3479 0.4807
C14_4 C 0.9784(2) 0.6907(17) 0.3190(3)
H9_4 H 0.9798 0.7761 0.2774
C18_4 C 0.9317(2) 0.6873(17) 0.3515(3)
H12_4 H 0.9019 0.7772 0.3315
N7_2 N 0.86366(19) 0.8341(13) 0.5443(2)
C5_3 C 0.8216(2) 0.9410(16) 0.5778(3)
H1_3 H 0.7892 0.9201 0.5584
C10_3 C 0.9110(2) 0.8739(17) 0.5745(3)
H5_3 H 0.9410 0.8057 0.5526
C5_4 C 0.1784(2) 0.0590(16) 0.0778(3)
H1_4 H 0.2108 0.0799 0.0584
C10_4 C 0.0890(2) 0.1261(17) 0.0745(3)
H5_4 H 0.0590 0.1943 0.0526
N5_2 N 0.13634(19) 0.1659(13) 0.0443(2)
loop_
_geom_bond_atom_site_label_1
_geom_bond_atom_site_label_2
_geom_bond_site_symmetry_1
_geom_bond_site_symmetry_2
Cu1 N1 1_555 1_555
C1 C3 1_555 1_555
C4 N3 1_555 1_555
C5 H1 1_555 1_555
C6 C5 1_555 1_555
H2 C6 1_555 1_555
C10 H5 1_555 1_555
N4 C3 1_555 1_555
C14 C1 1_555 1_555
H9 C14 1_555 1_555
C16 C10 1_555 1_555
H11 C16 1_555 1_555
C17 C4 1_555 1_555
C18 N1 1_555 1_555
H12 C18 1_555 1_555
N5 C5 1_555 1_555
Cu2 N5 1_555 1_555
C4 N4 1_555 1_555
C6 C17 1_555 1_555
C10 N5 1_555 1_555
C14 C18 1_555 1_555
C16 C17 1_555 1_555
Cu2 N1_2 1_555 1_555
C1_2 C3_2 1_555 1_555
C4_2 N3_2 1_555 1_555
C5_2 H1_2 1_555 1_555
C6_2 C5_2 1_555 1_555
H2_2 C6_2 1_555 1_555
C10_2 H5_2 1_555 1_555
N4_2 C3_2 1_555 1_555
C14_2 C1_2 1_555 1_555
H9_2 C14_2 1_555 1_555
C16_2 C10_2 1_555 1_555
H11_2 C16_2 1_555 1_555
C17_2 C4_2 1_555 1_555
C18_2 N1_2 1_555 1_555
H12_2 C18_2 1_555 1_555
N7 C5_2 1_555 1_555
C4_2 N4_2 1_555 1_555
C6_2 C17_2 1_555 1_555
C10_2 N7 1_555 1_555
C14_2 C18_2 1_555 1_555
C16_2 C17_2 1_555 1_555
C2 N2 1_555 1_555
H3 C7 1_555 1_555
C8 H4 1_555 1_555
C9 C2 1_555 1_555
C11 C7 1_555 1_555
H6 C11 1_555 1_555
C12 C8 1_555 1_555
H7 C12 1_555 1_555
C13 C9 1_555 1_555
H8 C13 1_555 1_555
C15 C13 1_555 1_555
H10 C15 1_555 1_555
N6 C12 1_555 1_555
Cu3 N6 1_555 1_555
C8 C9 1_555 1_555
C15 N6 1_555 1_555
Cu3 N1_3 1_555 1_555
N1_3 C11_2 1_555 1_555
H6_2 C11_2 1_555 1_555
H9_3 C14_3 1_555 1_555
C18_3 N1_3 1_555 1_555
H12_3 C18_3 1_555 1_555
C14_3 C18_3 1_555 1_555
C1_3 C3_3 1_555 1_555
C2_2 N2_2 1_555 1_555
C3_3 N2_2 1_555 1_555
C4_3 N3_3 1_555 1_555
N3_3 C2_2 1_555 1_555
H2_3 C6_3 1_555 1_555
C7_2 C1_3 1_555 1_555
H3_2 C7_2 1_555 1_555
C8_2 H4_2 1_555 1_555
C9_2 C2_2 1_555 1_555
N4_3 C3_3 1_555 1_555
C12_2 C8_2 1_555 1_555
H7_2 C12_2 1_555 1_555
C13_2 C9_2 1_555 1_555
H8_2 C13_2 1_555 1_555
C15_2 C13_2 1_555 1_555
H10_2 C15_2 1_555 1_555
H11_3 C16_3 1_555 1_555
C17_3 C4_3 1_555 1_555
N8 C12_2 1_555 1_555
C4_3 N4_3 1_555 1_555
C6_3 C17_3 1_555 1_555
C8_2 C9_2 1_555 1_555
C15_2 N8 1_555 1_555
C16_3 C17_3 1_555 1_555
C2_3 N2_3 1_555 1_555
H3_3 C7_3 1_555 1_555
C8_3 H4_3 1_555 1_555
C9_3 C2_3 1_555 1_555
C11_3 C7_3 1_555 1_555
H6_3 C11_3 1_555 1_555
C12_3 C8_3 1_555 1_555
H7_3 C12_3 1_555 1_555
C13_3 C9_3 1_555 1_555
H8_3 C13_3 1_555 1_555
C15_3 C13_3 1_555 1_555
H10_3 C15_3 1_555 1_555
N6_2 C12_3 1_555 1_555
Cu3_2 N6_2 1_555 1_555
C8_3 C9_3 1_555 1_555
C15_3 N6_2 1_555 1_555
C1_4 C3_4 1_555 1_555
C2_4 N2_4 1_555 1_555
C3_4 N2_4 1_555 1_555
C4_4 N3_4 1_555 1_555
N3_4 C2_4 1_555 1_555
H2_4 C6_4 1_555 1_555
C7_4 C1_4 1_555 1_555
H3_4 C7_4 1_555 1_555
C8_4 H4_4 1_555 1_555
C9_4 C2_4 1_555 1_555
N4_4 C3_4 1_555 1_555
C12_4 C8_4 1_555 1_555
H7_4 C12_4 1_555 1_555
C13_4 C9_4 1_555 1_555
H8_4 C13_4 1_555 1_555
C15_4 C13_4 1_555 1_555
H10_4 C15_4 1_555 1_555
H11_4 C16_4 1_555 1_555
C17_4 C4_4 1_555 1_555
N8_2 C12_4 1_555 1_555
C4_4 N4_4 1_555 1_555
C6_4 C17_4 1_555 1_555
C8_4 C9_4 1_555 1_555
C15_4 N8_2 1_555 1_555
C16_4 C17_4 1_555 1_555
Cu3_2 N1_4 1_555 1_555
N1_4 C11_4 1_555 1_555
H6_4 C11_4 1_555 1_555
H9_4 C14_4 1_555 1_555
C18_4 N1_4 1_555 1_555
H12_4 C18_4 1_555 1_555
N7_2 Cu3_2 1_555 1_555
C14_4 C18_4 1_555 1_555
C5_3 H1_3 1_555 1_555
C10_3 H5_3 1_555 1_555
N7_2 C5_3 1_555 1_555
C10_3 N7_2 1_555 1_555
C5_4 H1_4 1_555 1_555
C10_4 H5_4 1_555 1_555
N5_2 C5_4 1_555 1_555
C10_4 N5_2 1_555 1_555

#END
