
###############################################################################
#
# This file contains modified crystal structure data generated from the
# MOF subset of the Cambridge Structural Database (CSD) v543 
# hosted by the Cambridge Crystallographic Data Centre (CCDC).
#
# This work is licensed under the Creative Commons
# Attribution-NonCommercial-ShareAlike 4.0 International License.
# To view a copy of this license, visit
# http://creativecommons.org/licenses/by-nc-sa/4.0/
# or send a letter to
# Creative Commons, PO Box 1866, Mountain View, CA 94042, USA.
#
# CIF created using the CSD Python API on 29 September 2022
# The structure has been converted into the P1 space group
# The structure has a 3D framework
# The original CSD entry MAJQAT is in the orthorhombic crystal system
# The framework has been calculated to contain at least 10.0% void space
# The void calculation uses a probe of radius 1.32A, grid spacing 0.4
# The framework is charged, counterions have been retained in the structure
#
###############################################################################

data_MAJQAT
_chemical_formula_moiety         '(C72 H48 Cu4 N24 4+)n'
_symmetry_cell_setting           triclinic
_symmetry_space_group_name_H-M   'P 1'
_symmetry_Int_Tables_number      1
_space_group_name_Hall           'P 1'
loop_
_symmetry_equiv_pos_site_id
_symmetry_equiv_pos_as_xyz
1 x,y,z
_cell_length_a                   25.868(6)
_cell_length_b                   3.7560(10)
_cell_length_c                   20.661(5)
_cell_angle_alpha                90
_cell_angle_beta                 90
_cell_angle_gamma                90
_cell_volume                     2007.43
loop_
_atom_site_label
_atom_site_type_symbol
_atom_site_fract_x
_atom_site_fract_y
_atom_site_fract_z
Cu1 Cu 0.64119(3) 0.0347(3) 0.12715(8)
N1 N 0.5741(3) 0.0044(18) 0.1790(3)
N2 N 0.33355(19) 0.1629(16) 0.3247(3)
N3 N 0.4254(2) 0.2371(17) 0.3281(3)
N6 N 0.3643(2) 0.7272(18) 0.5423(3)
C1 C 0.4782(3) 0.0533(19) 0.2395(4)
C4 C 0.5694(3) 0.136(2) 0.2375(4)
H3 H 0.5990 0.2204 0.2579
C5 C 0.5244(3) 0.155(2) 0.2698(4)
H4 H 0.5238 0.2369 0.3124
C6 C 0.4271(3) 0.0897(19) 0.2711(3)
C7 C 0.3779(3) 0.2740(18) 0.3539(3)
C8 C 0.3406(3) 0.0160(18) 0.2672(4)
C9 C 0.3734(3) 0.432(2) 0.4171(3)
C10 C 0.3241(3) 0.481(2) 0.4470(4)
H5 H 0.2938 0.4108 0.4265
C11 C 0.3236(3) 0.635(2) 0.5072(4)
H6 H 0.2913 0.6783 0.5253
C12 C 0.4106(3) 0.680(2) 0.5129(3)
H7 H 0.4402 0.7526 0.5348
C13 C 0.4163(3) 0.530(2) 0.4527(4)
H8 H 0.4492 0.4948 0.4358
Cu2 Cu 0.35881(3) 0.9653(3) 0.62715(8)
N8 N 0.6357(2) 0.2728(18) 0.0423(3)
C11_2 C 0.6764(3) 0.365(2) 0.0072(4)
H6_2 H 0.7087 0.3217 0.0253
C12_2 C 0.5894(3) 0.320(2) 0.0129(3)
H7_2 H 0.5598 0.2474 0.0348
N1_2 N 0.4259(3) 0.9956(18) 0.6790(3)
N2_2 N 0.66645(19) 0.8371(16) 0.8247(3)
N3_2 N 0.5746(2) 0.7629(17) 0.8281(3)
C1_2 C 0.5218(3) 0.9467(19) 0.7395(4)
C4_2 C 0.4306(3) 0.864(2) 0.7375(4)
H3_2 H 0.4010 0.7796 0.7579
C5_2 C 0.4756(3) 0.845(2) 0.7698(4)
H4_2 H 0.4762 0.7631 0.8124
C6_2 C 0.5729(3) 0.9103(19) 0.7711(3)
C7_2 C 0.6221(3) 0.7260(18) 0.8539(3)
C8_2 C 0.6594(3) 0.9840(18) 0.7672(4)
C9_2 C 0.6266(3) 0.568(2) 0.9171(3)
C10_2 C 0.6759(3) 0.519(2) 0.9470(4)
H5_2 H 0.7062 0.5892 0.9265
C13_2 C 0.5837(3) 0.470(2) 0.9527(4)
H8_2 H 0.5508 0.5052 0.9358
N4 N 0.3868(2) 0.9648(16) 0.2378(3)
N5 N 0.2048(2) 0.6577(17) 0.1691(3)
C2 C 0.4832(3) 0.904(2) 0.1779(4)
H1 H 0.4543 0.8167 0.1564
C3 C 0.5309(3) 0.886(2) 0.1493(3)
H2 H 0.5337 0.7883 0.1081
C14 C 0.2938(3) 0.8822(19) 0.2322(4)
C15 C 0.2956(3) 0.767(2) 0.1699(4)
H9 H 0.3269 0.7626 0.1477
C16 C 0.2504(3) 0.657(2) 0.1393(4)
H10 H 0.2521 0.5800 0.0965
C17 C 0.2021(3) 0.774(2) 0.2295(4)
H11 H 0.1700 0.7838 0.2498
C18 C 0.2463(3) 0.883(2) 0.2637(4)
H12 H 0.2438 0.9552 0.3066
Cu3 Cu 0.14119(3) 0.4653(3) 0.12715(8)
N7 N 0.7048(2) 0.8423(17) 0.1691(3)
N6_2 N 0.1357(2) 0.2272(18) 0.0423(3)
C11_3 C 0.1764(3) 0.135(2) 0.0072(4)
H6_3 H 0.2087 0.1783 0.0253
C12_3 C 0.0894(3) 0.180(2) 0.0129(3)
H7_3 H 0.0598 0.2526 0.0348
N1_3 N 0.0741(3) 0.4956(18) 0.1790(3)
C3_2 C 0.0309(3) 0.614(2) 0.1493(3)
H2_2 H 0.0337 0.7117 0.1081
C4_3 C 0.0694(3) 0.364(2) 0.2375(4)
H3_3 H 0.0990 0.2796 0.2579
C5_3 C 0.0244(3) 0.345(2) 0.2698(4)
H4_3 H 0.0238 0.2631 0.3124
N2_3 N 0.83355(19) 0.3371(16) 0.3247(3)
N3_3 N 0.9254(2) 0.2629(17) 0.3281(3)
N4_2 N 0.8868(2) 0.5352(16) 0.2378(3)
C1_3 C 0.9782(3) 0.4467(19) 0.2395(4)
C2_2 C 0.9832(3) 0.596(2) 0.1779(4)
H1_2 H 0.9543 0.6833 0.1564
C6_3 C 0.9271(3) 0.4103(19) 0.2711(3)
C7_3 C 0.8779(3) 0.2260(18) 0.3539(3)
C8_3 C 0.8406(3) 0.4840(18) 0.2672(4)
C9_3 C 0.8734(3) 0.068(2) 0.4171(3)
C10_3 C 0.8241(3) 0.019(2) 0.4470(4)
H5_3 H 0.7938 0.0892 0.4265
H8_3 H 0.9492 0.0052 0.4358
C14_2 C 0.7938(3) 0.6178(19) 0.2322(4)
C15_2 C 0.7956(3) 0.733(2) 0.1699(4)
H9_2 H 0.8269 0.7374 0.1477
C16_2 C 0.7504(3) 0.843(2) 0.1393(4)
H10_2 H 0.7521 0.9200 0.0965
C17_2 C 0.7021(3) 0.726(2) 0.2295(4)
H11_2 H 0.6700 0.7162 0.2498
C18_2 C 0.7463(3) 0.617(2) 0.2637(4)
H12_2 H 0.7438 0.5448 0.3066
N4_3 N 0.6132(2) 0.0352(16) 0.7378(3)
N5_2 N 0.7952(2) 0.3423(17) 0.6691(3)
C2_3 C 0.5168(3) 0.096(2) 0.6779(4)
H1_3 H 0.5457 0.1833 0.6564
C3_3 C 0.4691(3) 0.114(2) 0.6493(3)
H2_3 H 0.4663 0.2117 0.6081
C14_3 C 0.7062(3) 0.1178(19) 0.7322(4)
C15_3 C 0.7044(3) 0.233(2) 0.6699(4)
H9_3 H 0.6731 0.2374 0.6477
C16_3 C 0.7496(3) 0.343(2) 0.6393(4)
H10_3 H 0.7479 0.4200 0.5965
C17_3 C 0.7979(3) 0.226(2) 0.7295(4)
H11_3 H 0.8300 0.2162 0.7498
C18_3 C 0.7537(3) 0.117(2) 0.7637(4)
H12_3 H 0.7562 0.0448 0.8066
Cu3_2 Cu 0.85881(3) 0.5347(3) 0.62715(8)
N7_2 N 0.2952(2) 0.1577(17) 0.6691(3)
N2_4 N 0.16645(19) 0.6629(16) 0.8247(3)
N3_4 N 0.0746(2) 0.7371(17) 0.8281(3)
N4_4 N 0.1132(2) 0.4648(16) 0.7378(3)
C1_4 C 0.0218(3) 0.5533(19) 0.7395(4)
C2_4 C 0.0168(3) 0.404(2) 0.6779(4)
H1_4 H 0.0457 0.3167 0.6564
C6_4 C 0.0729(3) 0.5897(19) 0.7711(3)
C7_4 C 0.1221(3) 0.7740(18) 0.8539(3)
C8_4 C 0.1594(3) 0.5160(18) 0.7672(4)
C9_4 C 0.1266(3) 0.932(2) 0.9171(3)
C10_4 C 0.1759(3) 0.981(2) 0.9470(4)
H5_4 H 0.2062 0.9108 0.9265
H8_4 H 0.0508 0.9948 0.9358
C14_4 C 0.2062(3) 0.3822(19) 0.7322(4)
C15_4 C 0.2044(3) 0.267(2) 0.6699(4)
H9_4 H 0.1731 0.2626 0.6477
C16_4 C 0.2496(3) 0.157(2) 0.6393(4)
H10_4 H 0.2479 0.0800 0.5965
C17_4 C 0.2979(3) 0.274(2) 0.7295(4)
H11_4 H 0.3300 0.2838 0.7498
C18_4 C 0.2537(3) 0.383(2) 0.7637(4)
H12_4 H 0.2562 0.4552 0.8066
N1_4 N 0.9259(3) 0.5044(18) 0.6790(3)
C3_4 C 0.9691(3) 0.386(2) 0.6493(3)
H2_4 H 0.9663 0.2883 0.6081
C4_4 C 0.9306(3) 0.636(2) 0.7375(4)
H3_4 H 0.9010 0.7204 0.7579
C5_4 C 0.9756(3) 0.655(2) 0.7698(4)
H4_4 H 0.9762 0.7369 0.8124
N8_2 N 0.8643(2) 0.7728(18) 0.5423(3)
C11_4 C 0.8236(3) 0.865(2) 0.5072(4)
H6_4 H 0.7913 0.8217 0.5253
C12_4 C 0.9106(3) 0.820(2) 0.5129(3)
H7_4 H 0.9402 0.7474 0.5348
C13_3 C 0.9163(3) 0.970(2) 0.4527(4)
C13_4 C 0.0837(3) 0.030(2) 0.9527(4)
loop_
_geom_bond_atom_site_label_1
_geom_bond_atom_site_label_2
_geom_bond_site_symmetry_1
_geom_bond_site_symmetry_2
Cu1 N1 1_555 1_555
N2 C7 1_555 1_555
N3 C6 1_555 1_555
N6 C11 1_555 1_555
C4 N1 1_555 1_555
H3 C4 1_555 1_555
C5 C1 1_555 1_555
H4 C5 1_555 1_555
C6 C1 1_555 1_555
C7 N3 1_555 1_555
C8 N2 1_555 1_555
C9 C7 1_555 1_555
C10 C9 1_555 1_555
H5 C10 1_555 1_555
C11 C10 1_555 1_555
H6 C11 1_555 1_555
C12 N6 1_555 1_555
H7 C12 1_555 1_555
C13 C9 1_555 1_555
H8 C13 1_555 1_555
Cu2 N6 1_555 1_555
N8 Cu1 1_555 1_555
C4 C5 1_555 1_555
C12 C13 1_555 1_555
N8 C11_2 1_555 1_555
H6_2 C11_2 1_555 1_555
C12_2 N8 1_555 1_555
H7_2 C12_2 1_555 1_555
Cu2 N1_2 1_555 1_555
N2_2 C7_2 1_555 1_555
N3_2 C6_2 1_555 1_555
C4_2 N1_2 1_555 1_555
H3_2 C4_2 1_555 1_555
C5_2 C1_2 1_555 1_555
H4_2 C5_2 1_555 1_555
C6_2 C1_2 1_555 1_555
C7_2 N3_2 1_555 1_555
C8_2 N2_2 1_555 1_555
C9_2 C7_2 1_555 1_555
C10_2 C9_2 1_555 1_555
H5_2 C10_2 1_555 1_555
C13_2 C9_2 1_555 1_555
H8_2 C13_2 1_555 1_555
C4_2 C5_2 1_555 1_555
N5 C16 1_555 1_555
C2 H1 1_555 1_555
C3 C2 1_555 1_555
H2 C3 1_555 1_555
C15 C14 1_555 1_555
H9 C15 1_555 1_555
C16 C15 1_555 1_555
H10 C16 1_555 1_555
C17 N5 1_555 1_555
H11 C17 1_555 1_555
C18 C14 1_555 1_555
H12 C18 1_555 1_555
Cu3 N5 1_555 1_555
C17 C18 1_555 1_555
N6_2 C11_3 1_555 1_555
H6_3 C11_3 1_555 1_555
C12_3 N6_2 1_555 1_555
H7_3 C12_3 1_555 1_555
Cu3 N6_2 1_555 1_555
Cu3 N1_3 1_555 1_555
N1_3 C3_2 1_555 1_555
H2_2 C3_2 1_555 1_555
C4_3 N1_3 1_555 1_555
H3_3 C4_3 1_555 1_555
H4_3 C5_3 1_555 1_555
C4_3 C5_3 1_555 1_555
N2_3 C7_3 1_555 1_555
N3_3 C6_3 1_555 1_555
N4_2 C6_3 1_555 1_555
N7 C16_2 1_555 1_555
C1_3 C2_2 1_555 1_555
C2_2 H1_2 1_555 1_555
C6_3 C1_3 1_555 1_555
C7_3 N3_3 1_555 1_555
C8_3 N2_3 1_555 1_555
C9_3 C7_3 1_555 1_555
C10_3 C9_3 1_555 1_555
H5_3 C10_3 1_555 1_555
C14_2 C8_3 1_555 1_555
C15_2 C14_2 1_555 1_555
H9_2 C15_2 1_555 1_555
C16_2 C15_2 1_555 1_555
H10_2 C16_2 1_555 1_555
C17_2 N7 1_555 1_555
H11_2 C17_2 1_555 1_555
C18_2 C14_2 1_555 1_555
H12_2 C18_2 1_555 1_555
N4_2 C8_3 1_555 1_555
C17_2 C18_2 1_555 1_555
N5_2 C16_3 1_555 1_555
C2_3 H1_3 1_555 1_555
C3_3 C2_3 1_555 1_555
H2_3 C3_3 1_555 1_555
C15_3 C14_3 1_555 1_555
H9_3 C15_3 1_555 1_555
C16_3 C15_3 1_555 1_555
H10_3 C16_3 1_555 1_555
C17_3 N5_2 1_555 1_555
H11_3 C17_3 1_555 1_555
C18_3 C14_3 1_555 1_555
H12_3 C18_3 1_555 1_555
Cu3_2 N5_2 1_555 1_555
C17_3 C18_3 1_555 1_555
N2_4 C7_4 1_555 1_555
N3_4 C6_4 1_555 1_555
N4_4 C6_4 1_555 1_555
N7_2 C16_4 1_555 1_555
C1_4 C2_4 1_555 1_555
C2_4 H1_4 1_555 1_555
C6_4 C1_4 1_555 1_555
C7_4 N3_4 1_555 1_555
C8_4 N2_4 1_555 1_555
C9_4 C7_4 1_555 1_555
C10_4 C9_4 1_555 1_555
H5_4 C10_4 1_555 1_555
C14_4 C8_4 1_555 1_555
C15_4 C14_4 1_555 1_555
H9_4 C15_4 1_555 1_555
C16_4 C15_4 1_555 1_555
H10_4 C16_4 1_555 1_555
C17_4 N7_2 1_555 1_555
H11_4 C17_4 1_555 1_555
C18_4 C14_4 1_555 1_555
H12_4 C18_4 1_555 1_555
N4_4 C8_4 1_555 1_555
C17_4 C18_4 1_555 1_555
Cu3_2 N1_4 1_555 1_555
N1_4 C3_4 1_555 1_555
H2_4 C3_4 1_555 1_555
C4_4 N1_4 1_555 1_555
H3_4 C4_4 1_555 1_555
H4_4 C5_4 1_555 1_555
N8_2 Cu3_2 1_555 1_555
C4_4 C5_4 1_555 1_555
N8_2 C11_4 1_555 1_555
H6_4 C11_4 1_555 1_555
C12_4 N8_2 1_555 1_555
H7_4 C12_4 1_555 1_555
C12_4 C13_3 1_555 1_555

#END
