
###############################################################################
#
# This file contains modified crystal structure data generated from the
# MOF subset of the Cambridge Structural Database (CSD) v543 
# hosted by the Cambridge Crystallographic Data Centre (CCDC).
#
# This work is licensed under the Creative Commons
# Attribution-NonCommercial-ShareAlike 4.0 International License.
# To view a copy of this license, visit
# http://creativecommons.org/licenses/by-nc-sa/4.0/
# or send a letter to
# Creative Commons, PO Box 1866, Mountain View, CA 94042, USA.
#
# CIF created using the CSD Python API on 29 September 2022
# The structure has been converted into the P1 space group
# The structure has a 3D framework
# The original CSD entry MAKCIM is in the monoclinic crystal system
# The framework has been calculated to contain at least 10.0% void space
# The void calculation uses a probe of radius 1.32A, grid spacing 0.4
#
###############################################################################

data_MAKCIM
_chemical_formula_moiety         '(C104 H56 N8 O38 S4 Zn6)n'
_symmetry_cell_setting           triclinic
_symmetry_space_group_name_H-M   'P 1'
_symmetry_Int_Tables_number      1
_space_group_name_Hall           'P 1'
loop_
_symmetry_equiv_pos_site_id
_symmetry_equiv_pos_as_xyz
1 x,y,z
_cell_length_a                   11.098(2)
_cell_length_b                   21.441(4)
_cell_length_c                   11.774(2)
_cell_angle_alpha                90
_cell_angle_beta                 94.43(3)
_cell_angle_gamma                90
_cell_volume                     2793.28
loop_
_atom_site_label
_atom_site_type_symbol
_atom_site_fract_x
_atom_site_fract_y
_atom_site_fract_z
C25 C 0.0070(6) 0.3536(4) 0.8585(7)
H13 H 0.0870 0.3628 0.8816
H14 H 0.0028 0.2733 0.9455
Zn6 Zn 0.03432(6) 0.45570(3) 0.69959(6)
O13 O 0.0349(3) 0.04017(17) 0.8176(3)
N3 N 0.0556(4) 0.8928(2) 0.7113(4)
Zn1 Zn 0.64555(5) 0.02075(3) 0.00011(5)
O9 O 0.0676(3) 0.08360(18) 0.0563(3)
O10 O 0.1776(4) 0.1536(2) 0.1588(4)
H4 H 0.2596 0.2295 0.0216
C16 C 0.1458(5) 0.1271(3) 0.0678(5)
Zn5 Zn 0.03432(6) 0.04430(3) 0.19959(6)
O12 O 0.8068(3) 0.00379(16) 0.0883(3)
O1 O 0.2201(4) 0.01925(19) 0.6649(4)
O2 O 0.2231(4) 0.1180(2) 0.5542(3)
O3 O 0.4554(3) 0.03426(18) 0.9036(3)
S1 S 0.27016(13) 0.07992(7) 0.64782(12)
C1 C 0.4277(5) 0.0701(3) 0.6315(5)
C2 C 0.5030(5) 0.0343(3) 0.7069(4)
C3 C 0.6237(5) 0.0265(3) 0.6808(5)
C4 C 0.6625(6) 0.0513(3) 0.5812(5)
H1 H 0.7419 0.0448 0.5638
C5 C 0.5870(6) 0.0849(4) 0.5083(6)
H2 H 0.6146 0.1012 0.4418
C6 C 0.4678(6) 0.0950(3) 0.5339(6)
H3 H 0.4158 0.1184 0.4850
C7 C 0.2624(5) 0.1258(3) 0.7727(5)
C8 C 0.2022(4) 0.1054(2) 0.8669(5)
C9 C 0.2033(5) 0.1452(2) 0.9612(5)
C10 C 0.2597(5) 0.2034(3) 0.9585(6)
C11 C 0.3154(6) 0.2227(3) 0.8640(6)
H5 H 0.3516 0.2618 0.8629
C12 C 0.3170(6) 0.1837(3) 0.7712(6)
H6 H 0.3549 0.1964 0.7073
C13 C 0.4576(4) 0.0025(3) 0.8103(5)
C15 C 0.1397(5) 0.0428(3) 0.8668(5)
N1 N 0.6960(4) 0.1089(2) 0.9605(4)
N2 N 0.9444(4) 0.3928(2) 0.7887(4)
C17 C 0.8108(5) 0.1156(3) 0.9372(6)
H7 H 0.8609 0.0808 0.9425
C18 C 0.8581(6) 0.1707(3) 0.9061(8)
H8 H 0.9386 0.1728 0.8895
C19 C 0.7865(6) 0.2243(3) 0.8989(7)
C20 C 0.6666(6) 0.2169(3) 0.9223(7)
H9 H 0.6145 0.2509 0.9180
C21 C 0.6248(6) 0.1593(3) 0.9518(7)
H10 H 0.5440 0.1551 0.9663
C22 C 0.8381(5) 0.2848(3) 0.8665(6)
C23 C 0.7726(5) 0.3268(3) 0.7990(6)
H11 H 0.6911 0.3197 0.7786
C24 C 0.8280(5) 0.3795(3) 0.7618(5)
H12 H 0.7823 0.4073 0.7157
C26 C 0.9562(7) 0.2999(4) 0.8974(8)
O11 O 0.5446(3) 0.96574(18) 0.0964(3)
Zn2 Zn 0.96568(6) 0.95570(3) 0.80041(6)
O4 O 0.4230(4) 0.9479(2) 0.8039(4)
O5 O 0.6879(3) 0.97693(19) 0.8578(3)
O6 O 0.8122(3) 0.9794(2) 0.7172(3)
O7 O 0.1932(3) 0.99621(16) 0.9117(3)
C14 C 0.7133(5) 0.9919(3) 0.7582(5)
Zn3 Zn 0.35445(5) 0.97925(3) 0.99989(5)
O14 O 0.9324(3) 0.91640(18) 0.9437(3)
Zn1_2 Zn 0.35445(5) 0.52075(3) 0.49989(5)
O1_2 O 0.7799(4) 0.51925(19) 0.8351(4)
O2_2 O 0.7769(4) 0.6180(2) 0.9458(3)
O3_2 O 0.5446(3) 0.53426(18) 0.5964(3)
O4_2 O 0.5770(4) 0.4479(2) 0.6961(4)
O5_2 O 0.3121(3) 0.47693(19) 0.6422(3)
O6_2 O 0.1878(3) 0.4794(2) 0.7828(3)
O7_2 O 0.8068(3) 0.49621(16) 0.5883(3)
O8 O 0.9651(3) 0.54017(17) 0.6824(3)
O9_2 O 0.9324(3) 0.58360(18) 0.4437(3)
O10_2 O 0.8224(4) 0.6536(2) 0.3412(4)
S1_2 S 0.72984(13) 0.57992(7) 0.85218(12)
C1_2 C 0.5723(5) 0.5701(3) 0.8685(5)
C2_2 C 0.4970(5) 0.5343(3) 0.7931(4)
C3_2 C 0.3763(5) 0.5265(3) 0.8192(5)
C4_2 C 0.3375(6) 0.5513(3) 0.9188(5)
H1_2 H 0.2581 0.5448 0.9362
C5_2 C 0.4130(6) 0.5849(4) 0.9917(6)
C6_2 C 0.5322(6) 0.5950(3) 0.9661(6)
C7_2 C 0.7376(5) 0.6258(3) 0.7273(5)
C8_2 C 0.7978(4) 0.6054(2) 0.6331(5)
C9_2 C 0.7967(5) 0.6452(2) 0.5388(5)
C10_2 C 0.7403(5) 0.7034(3) 0.5415(6)
H4_2 H 0.7404 0.7295 0.4784
C11_2 C 0.6846(6) 0.7227(3) 0.6360(6)
H5_2 H 0.6484 0.7618 0.6371
C12_2 C 0.6830(6) 0.6837(3) 0.7288(6)
H6_2 H 0.6451 0.6964 0.7927
C13_2 C 0.5424(4) 0.5025(3) 0.6897(5)
C14_2 C 0.2867(5) 0.4919(3) 0.7418(5)
C15_2 C 0.8603(5) 0.5428(3) 0.6332(5)
C16_2 C 0.8542(5) 0.6271(3) 0.4322(5)
N1_2 N 0.3040(4) 0.6089(2) 0.5395(4)
C17_2 C 0.1892(5) 0.6156(3) 0.5628(6)
H7_2 H 0.1391 0.5808 0.5575
C18_2 C 0.1419(6) 0.6707(3) 0.5939(8)
H8_2 H 0.0614 0.6728 0.6105
C19_2 C 0.2135(6) 0.7243(3) 0.6011(7)
C20_2 C 0.3334(6) 0.7169(3) 0.5777(7)
H9_2 H 0.3855 0.7509 0.5820
C21_2 C 0.3752(6) 0.6593(3) 0.5482(7)
H10_2 H 0.4560 0.6551 0.5337
C22_2 C 0.1619(5) 0.7848(3) 0.6335(6)
C23_2 C 0.2274(5) 0.8268(3) 0.7010(6)
H11_2 H 0.3089 0.8197 0.7214
C24_2 C 0.1720(5) 0.8795(3) 0.7382(5)
H12_2 H 0.2177 0.9073 0.7843
C26_2 C 0.0438(7) 0.7999(4) 0.6026(8)
Zn3_2 Zn 0.64555(5) 0.47925(3) 0.50011(5)
Zn5_2 Zn 0.96568(6) 0.54430(3) 0.30041(6)
O11_2 O 0.4554(3) 0.46574(18) 0.4036(3)
O12_2 O 0.1932(3) 0.50379(16) 0.4117(3)
O14_2 O 0.0676(3) 0.41640(18) 0.5563(3)
C25_2 C 0.9930(6) 0.8536(4) 0.6415(7)
H13_2 H 0.9130 0.8628 0.6184
H14_2 H 0.9972 0.7733 0.5545
O4_3 O 0.5770(4) 0.0521(2) 0.1961(4)
O5_3 O 0.3121(3) 0.02307(19) 0.1422(3)
O6_3 O 0.1878(3) 0.0206(2) 0.2828(3)
C14_3 C 0.2867(5) 0.0081(3) 0.2418(5)
O1_3 O 0.7799(4) 0.98075(19) 0.3351(4)
O2_3 O 0.7769(4) 0.8820(2) 0.4458(3)
O8_2 O 0.9651(3) 0.95983(17) 0.1824(3)
S1_3 S 0.72984(13) 0.92008(7) 0.35218(12)
C1_3 C 0.5723(5) 0.9299(3) 0.3685(5)
C2_3 C 0.4970(5) 0.9657(3) 0.2931(4)
C3_3 C 0.3763(5) 0.9735(3) 0.3192(5)
C4_3 C 0.3375(6) 0.9487(3) 0.4188(5)
H1_3 H 0.2581 0.9552 0.4362
C5_3 C 0.4130(6) 0.9151(4) 0.4917(6)
H2_2 H 0.3854 0.8988 0.5582
C6_3 C 0.5322(6) 0.9050(3) 0.4661(6)
H3_2 H 0.5842 0.8816 0.5150
C7_3 C 0.7376(5) 0.8742(3) 0.2273(5)
C8_3 C 0.7978(4) 0.8946(2) 0.1331(5)
C9_3 C 0.7967(5) 0.8548(2) 0.0388(5)
C10_3 C 0.7403(5) 0.7966(3) 0.0415(6)
C11_3 C 0.6846(6) 0.7773(3) 0.1360(6)
H5_3 H 0.6484 0.7382 0.1371
C12_3 C 0.6830(6) 0.8163(3) 0.2288(6)
H6_3 H 0.6451 0.8036 0.2927
C13_3 C 0.5424(4) 0.9975(3) 0.1897(5)
C15_3 C 0.8603(5) 0.9572(3) 0.1332(5)
N1_3 N 0.3040(4) 0.8911(2) 0.0395(4)
N2_2 N 0.0556(4) 0.6072(2) 0.2113(4)
C17_3 C 0.1892(5) 0.8844(3) 0.0628(6)
H7_3 H 0.1391 0.9192 0.0575
C18_3 C 0.1419(6) 0.8293(3) 0.0939(8)
H8_3 H 0.0614 0.8272 0.1105
C19_3 C 0.2135(6) 0.7757(3) 0.1011(7)
C20_3 C 0.3334(6) 0.7831(3) 0.0777(7)
H9_3 H 0.3855 0.7491 0.0820
C21_3 C 0.3752(6) 0.8407(3) 0.0482(7)
H10_3 H 0.4560 0.8449 0.0337
C22_3 C 0.1619(5) 0.7152(3) 0.1335(6)
C23_3 C 0.2274(5) 0.6732(3) 0.2010(6)
H11_3 H 0.3089 0.6803 0.2214
C24_3 C 0.1720(5) 0.6205(3) 0.2382(5)
H12_3 H 0.2177 0.5927 0.2843
C26_3 C 0.0438(7) 0.7001(4) 0.1026(8)
O10_3 O 0.8224(4) 0.8464(2) 0.8412(4)
H4_3 H 0.7404 0.7705 0.9784
C16_3 C 0.8542(5) 0.8729(3) 0.9322(5)
N3_2 N 0.9444(4) 0.1072(2) 0.2887(4)
C25_3 C 0.9930(6) 0.6464(4) 0.1415(7)
H13_3 H 0.9130 0.6372 0.1184
H14_3 H 0.9972 0.7267 0.0545
C25_4 C 0.0070(6) 0.1464(4) 0.3585(7)
H13_4 H 0.0870 0.1372 0.3816
H14_4 H 0.0028 0.2267 0.4455
O13_2 O 0.0349(3) 0.45983(17) 0.3176(3)
O1_4 O 0.2201(4) 0.48075(19) 0.1649(4)
O2_4 O 0.2231(4) 0.3820(2) 0.0542(3)
O4_4 O 0.4230(4) 0.5521(2) 0.3039(4)
O5_4 O 0.6879(3) 0.52307(19) 0.3578(3)
O6_4 O 0.8122(3) 0.5206(2) 0.2172(3)
O10_4 O 0.1776(4) 0.3464(2) 0.6588(4)
S1_4 S 0.27016(13) 0.42008(7) 0.14782(12)
C1_4 C 0.4277(5) 0.4299(3) 0.1315(5)
C2_4 C 0.5030(5) 0.4657(3) 0.2069(4)
C3_4 C 0.6237(5) 0.4735(3) 0.1808(5)
C4_4 C 0.6625(6) 0.4487(3) 0.0812(5)
H1_4 H 0.7419 0.4552 0.0638
C5_4 C 0.5870(6) 0.4151(4) 0.0083(6)
C6_4 C 0.4678(6) 0.4050(3) 0.0339(6)
C7_4 C 0.2624(5) 0.3742(3) 0.2727(5)
C8_4 C 0.2022(4) 0.3946(2) 0.3669(5)
C9_4 C 0.2033(5) 0.3548(2) 0.4612(5)
C10_4 C 0.2597(5) 0.2966(3) 0.4585(6)
H4_4 H 0.2596 0.2705 0.5216
C11_4 C 0.3154(6) 0.2773(3) 0.3640(6)
H5_4 H 0.3516 0.2382 0.3629
C12_4 C 0.3170(6) 0.3163(3) 0.2712(6)
H6_4 H 0.3549 0.3036 0.2073
C13_4 C 0.4576(4) 0.4975(3) 0.3103(5)
C14_4 C 0.7133(5) 0.5081(3) 0.2582(5)
C15_4 C 0.1397(5) 0.4572(3) 0.3668(5)
C16_4 C 0.1458(5) 0.3729(3) 0.5678(5)
N1_4 N 0.6960(4) 0.3911(2) 0.4605(4)
C17_4 C 0.8108(5) 0.3844(3) 0.4372(6)
H7_4 H 0.8609 0.4192 0.4425
C18_4 C 0.8581(6) 0.3293(3) 0.4061(8)
H8_4 H 0.9386 0.3272 0.3895
C19_4 C 0.7865(6) 0.2757(3) 0.3989(7)
C20_4 C 0.6666(6) 0.2831(3) 0.4223(7)
H9_4 H 0.6145 0.2491 0.4180
C21_4 C 0.6248(6) 0.3407(3) 0.4518(7)
H10_4 H 0.5440 0.3449 0.4663
C22_4 C 0.8381(5) 0.2152(3) 0.3665(6)
C23_4 C 0.7726(5) 0.1732(3) 0.2990(6)
H11_4 H 0.6911 0.1803 0.2786
C24_4 C 0.8280(5) 0.1205(3) 0.2618(5)
H12_4 H 0.7823 0.0927 0.2157
C26_4 C 0.9562(7) 0.2001(4) 0.3974(8)
H2_3 H 0.3854 0.6012 0.0582
H3_3 H 0.5842 0.6184 0.0150
H2_4 H 0.6146 0.3988 0.9418
H3_4 H 0.4158 0.3816 0.9850
loop_
_geom_bond_atom_site_label_1
_geom_bond_atom_site_label_2
_geom_bond_site_symmetry_1
_geom_bond_site_symmetry_2
H13 C25 1_555 1_555
O9 C16 1_555 1_555
O10 C16 1_555 1_555
Zn5 O9 1_555 1_555
O12 Zn1 1_555 1_555
O1 S1 1_555 1_555
O2 S1 1_555 1_555
O3 C13 1_555 1_555
O13 C15 1_555 1_555
S1 C1 1_555 1_555
C1 C2 1_555 1_555
C2 C3 1_555 1_555
C3 C4 1_555 1_555
C4 H1 1_555 1_555
C5 C4 1_555 1_555
H2 C5 1_555 1_555
C6 C1 1_555 1_555
H3 C6 1_555 1_555
C7 S1 1_555 1_555
C8 C7 1_555 1_555
C9 C8 1_555 1_555
C10 C9 1_555 1_555
C11 C10 1_555 1_555
H5 C11 1_555 1_555
C12 C7 1_555 1_555
H6 C12 1_555 1_555
C13 C2 1_555 1_555
C15 C8 1_555 1_555
N2 C24 1_555 1_555
C17 N1 1_555 1_555
H7 C17 1_555 1_555
C18 C17 1_555 1_555
H8 C18 1_555 1_555
C19 C18 1_555 1_555
C20 C19 1_555 1_555
H9 C20 1_555 1_555
C21 N1 1_555 1_555
H10 C21 1_555 1_555
C22 C19 1_555 1_555
C23 C22 1_555 1_555
H11 C23 1_555 1_555
C24 C23 1_555 1_555
H12 C24 1_555 1_555
C26 C22 1_555 1_555
C5 C6 1_555 1_555
C11 C12 1_555 1_555
C20 C21 1_555 1_555
Zn2 O6 1_555 1_555
O6 C14 1_555 1_555
C14 O5 1_555 1_555
O14 Zn2 1_555 1_555
O7 Zn3 1_555 1_555
Zn1_2 O3_2 1_555 1_555
Zn6 O6_2 1_555 1_555
O1_2 S1_2 1_555 1_555
O2_2 S1_2 1_555 1_555
O3_2 C13_2 1_555 1_555
O4_2 C13_2 1_555 1_555
O5_2 Zn1_2 1_555 1_555
O6_2 C14_2 1_555 1_555
O7_2 C15_2 1_555 1_555
O8 C15_2 1_555 1_555
O9_2 C16_2 1_555 1_555
O10_2 C16_2 1_555 1_555
S1_2 C1_2 1_555 1_555
C1_2 C2_2 1_555 1_555
C2_2 C3_2 1_555 1_555
C3_2 C4_2 1_555 1_555
C4_2 H1_2 1_555 1_555
C5_2 C4_2 1_555 1_555
C6_2 C1_2 1_555 1_555
C7_2 S1_2 1_555 1_555
C8_2 C7_2 1_555 1_555
C9_2 C8_2 1_555 1_555
C10_2 C9_2 1_555 1_555
H4_2 C10_2 1_555 1_555
C11_2 C10_2 1_555 1_555
H5_2 C11_2 1_555 1_555
C12_2 C7_2 1_555 1_555
H6_2 C12_2 1_555 1_555
C13_2 C2_2 1_555 1_555
C14_2 O5_2 1_555 1_555
C15_2 C8_2 1_555 1_555
C16_2 C9_2 1_555 1_555
N1_2 Zn1_2 1_555 1_555
N3 C24_2 1_555 1_555
C17_2 N1_2 1_555 1_555
H7_2 C17_2 1_555 1_555
C18_2 C17_2 1_555 1_555
H8_2 C18_2 1_555 1_555
C19_2 C18_2 1_555 1_555
C20_2 C19_2 1_555 1_555
H9_2 C20_2 1_555 1_555
C21_2 N1_2 1_555 1_555
H10_2 C21_2 1_555 1_555
C22_2 C19_2 1_555 1_555
C23_2 C22_2 1_555 1_555
H11_2 C23_2 1_555 1_555
C24_2 C23_2 1_555 1_555
H12_2 C24_2 1_555 1_555
C26_2 C22_2 1_555 1_555
Zn3_2 O3_2 1_555 1_555
Zn5_2 O9_2 1_555 1_555
O11_2 Zn1_2 1_555 1_555
O12_2 Zn1_2 1_555 1_555
O14_2 Zn6 1_555 1_555
O7_2 Zn3_2 1_555 1_555
C3_2 C14_2 1_555 1_555
C5_2 C6_2 1_555 1_555
C11_2 C12_2 1_555 1_555
C20_2 C21_2 1_555 1_555
Zn3_2 O11_2 1_555 1_555
H13_2 C25_2 1_555 1_555
Zn5 O6_3 1_555 1_555
O6_3 C14_3 1_555 1_555
C14_3 O5_3 1_555 1_555
O1_3 S1_3 1_555 1_555
O2_3 S1_3 1_555 1_555
O11 C13_3 1_555 1_555
O8_2 C15_3 1_555 1_555
S1_3 C1_3 1_555 1_555
C1_3 C2_3 1_555 1_555
C2_3 C3_3 1_555 1_555
C3_3 C4_3 1_555 1_555
C4_3 H1_3 1_555 1_555
C5_3 C4_3 1_555 1_555
H2_2 C5_3 1_555 1_555
C6_3 C1_3 1_555 1_555
H3_2 C6_3 1_555 1_555
C7_3 S1_3 1_555 1_555
C8_3 C7_3 1_555 1_555
C9_3 C8_3 1_555 1_555
C10_3 C9_3 1_555 1_555
C11_3 C10_3 1_555 1_555
H5_3 C11_3 1_555 1_555
C12_3 C7_3 1_555 1_555
H6_3 C12_3 1_555 1_555
C13_3 C2_3 1_555 1_555
C15_3 C8_3 1_555 1_555
N2_2 C24_3 1_555 1_555
C17_3 N1_3 1_555 1_555
H7_3 C17_3 1_555 1_555
C18_3 C17_3 1_555 1_555
H8_3 C18_3 1_555 1_555
C19_3 C18_3 1_555 1_555
C20_3 C19_3 1_555 1_555
H9_3 C20_3 1_555 1_555
C21_3 N1_3 1_555 1_555
H10_3 C21_3 1_555 1_555
C22_3 C19_3 1_555 1_555
C23_3 C22_3 1_555 1_555
H11_3 C23_3 1_555 1_555
C24_3 C23_3 1_555 1_555
H12_3 C24_3 1_555 1_555
C26_3 C22_3 1_555 1_555
C5_3 C6_3 1_555 1_555
C11_3 C12_3 1_555 1_555
C20_3 C21_3 1_555 1_555
O14 C16_3 1_555 1_555
O10_3 C16_3 1_555 1_555
H13_3 C25_3 1_555 1_555
H13_4 C25_4 1_555 1_555
Zn5_2 O6_4 1_555 1_555
O1_4 S1_4 1_555 1_555
O2_4 S1_4 1_555 1_555
O11_2 C13_4 1_555 1_555
O4_4 C13_4 1_555 1_555
O5_4 Zn3_2 1_555 1_555
O6_4 C14_4 1_555 1_555
O12_2 C15_4 1_555 1_555
O13_2 C15_4 1_555 1_555
O14_2 C16_4 1_555 1_555
O10_4 C16_4 1_555 1_555
S1_4 C1_4 1_555 1_555
C1_4 C2_4 1_555 1_555
C2_4 C3_4 1_555 1_555
C3_4 C4_4 1_555 1_555
C4_4 H1_4 1_555 1_555
C5_4 C4_4 1_555 1_555
C6_4 C1_4 1_555 1_555
C7_4 S1_4 1_555 1_555
C8_4 C7_4 1_555 1_555
C9_4 C8_4 1_555 1_555
C10_4 C9_4 1_555 1_555
H4_4 C10_4 1_555 1_555
C11_4 C10_4 1_555 1_555
H5_4 C11_4 1_555 1_555
C12_4 C7_4 1_555 1_555
H6_4 C12_4 1_555 1_555
C13_4 C2_4 1_555 1_555
C14_4 O5_4 1_555 1_555
C15_4 C8_4 1_555 1_555
C16_4 C9_4 1_555 1_555
N1_4 Zn3_2 1_555 1_555
N3_2 C24_4 1_555 1_555
C17_4 N1_4 1_555 1_555
H7_4 C17_4 1_555 1_555
C18_4 C17_4 1_555 1_555
H8_4 C18_4 1_555 1_555
C19_4 C18_4 1_555 1_555
C20_4 C19_4 1_555 1_555
H9_4 C20_4 1_555 1_555
C21_4 N1_4 1_555 1_555
H10_4 C21_4 1_555 1_555
C22_4 C19_4 1_555 1_555
C23_4 C22_4 1_555 1_555
H11_4 C23_4 1_555 1_555
C24_4 C23_4 1_555 1_555
H12_4 C24_4 1_555 1_555
C26_4 C22_4 1_555 1_555
C3_4 C14_4 1_555 1_555
C5_4 C6_4 1_555 1_555
C11_4 C12_4 1_555 1_555
C20_4 C21_4 1_555 1_555

#END
