
###############################################################################
#
# This file contains modified crystal structure data generated from the
# MOF subset of the Cambridge Structural Database (CSD) v543 
# hosted by the Cambridge Crystallographic Data Centre (CCDC).
#
# This work is licensed under the Creative Commons
# Attribution-NonCommercial-ShareAlike 4.0 International License.
# To view a copy of this license, visit
# http://creativecommons.org/licenses/by-nc-sa/4.0/
# or send a letter to
# Creative Commons, PO Box 1866, Mountain View, CA 94042, USA.
#
# CIF created using the CSD Python API on 29 September 2022
# The structure has been converted into the P1 space group
# The structure has a 3D framework
# The original CSD entry MAKSAW is in the triclinic crystal system
# The framework has been calculated to contain at least 10.0% void space
# The void calculation uses a probe of radius 1.32A, grid spacing 0.4
#
###############################################################################

data_MAKSAW
_chemical_formula_moiety         '(C72 H48 Cu4 N8 O20)n'
_symmetry_cell_setting           triclinic
_symmetry_space_group_name_H-M   'P 1'
_symmetry_Int_Tables_number      1
_space_group_name_Hall           'P 1'
loop_
_symmetry_equiv_pos_site_id
_symmetry_equiv_pos_as_xyz
1 x,y,z
_cell_length_a                   11.0560(12)
_cell_length_b                   11.5874(13)
_cell_length_c                   19.531(2)
_cell_angle_alpha                85.796(2)
_cell_angle_beta                 76.791(2)
_cell_angle_gamma                83.027(2)
_cell_volume                     2415.22
loop_
_atom_site_label
_atom_site_type_symbol
_atom_site_fract_x
_atom_site_fract_y
_atom_site_fract_z
H7 H 0.376968 0.053134 0.393841
H15 H 0.166267 0.056376 0.397983
H20 H 0.003916 0.030632 0.359590
O3 O 0.0488(4) 0.6842(4) 0.0053(2)
C3 C 0.0229(6) 0.8825(6) 0.4210(4)
C4 C 0.1602(6) 0.8815(6) 0.4171(4)
C5 C 0.3610(6) 0.7851(6) 0.4218(4)
H2 H 0.411455 0.714153 0.427271
C11 C 0.3404(6) 0.9819(6) 0.4027(4)
H8 H 0.008271 0.888854 0.039259
C13 C 0.2363(6) 0.7806(6) 0.4238(4)
H9 H 0.203136 0.707703 0.429766
C20 C 0.2148(7) 0.9848(6) 0.4048(4)
N4 N 0.4145(5) 0.8835(5) 0.4125(3)
Cu3 Cu 0.59062(6) 0.88787(6) 0.42004(4)
Cu6 Cu 0.09340(6) 0.60999(6) 0.91575(4)
O9 O 0.9462(5) 0.0754(4) 0.1023(2)
H4 H 0.917363 0.124247 0.133256
H18 H 0.793093 0.029379 0.365792
H23 H 0.799437 0.015778 0.221164
Cu4 Cu 0.40938(6) 0.11213(6) 0.57996(4)
O13 O 0.5732(4) 0.0774(4) 0.4241(2)
N1 N 0.7681(4) 0.8877(4) 0.4278(3)
N2 N 0.2750(5) 0.6150(5) 0.9181(3)
N3 N 0.9167(5) 0.6306(5) 0.9023(3)
O1 O 0.8954(4) 0.5821(4) 0.0655(2)
O2 O 0.5543(4) 0.7935(4) 0.5079(2)
O4 O 0.1465(5) 0.7756(4) 0.7964(2)
O5 O 0.1560(4) 0.5836(4) 0.8157(2)
O6 O 0.4268(4) 0.9226(4) 0.5759(2)
O7 O 0.6461(4) 0.9065(4) 0.3148(2)
C1 C 0.6641(6) 0.6311(6) 0.9024(4)
C2 C 0.5291(6) 0.6259(6) 0.9073(4)
O8 O 0.3764(6) 0.4203(4) 0.5844(3)
H1 H 0.341367 0.371229 0.613709
C6 C 0.3243(6) 0.7441(5) 0.6674(3)
H3 H 0.310706 0.819616 0.685474
O10 O 0.7386(5) 0.7242(4) 0.3179(2)
C7 C 0.9546(6) 0.6684(5) 0.0558(3)
C8 C 0.7211(6) 0.8202(5) 0.2874(3)
C9 C 0.4226(6) 0.6136(5) 0.5755(3)
H5 H 0.478792 0.598683 0.531635
C10 C 0.8362(6) 0.7483(5) 0.1697(3)
H6 H 0.811804 0.673012 0.184538
C12 C 0.9507(6) 0.8774(5) 0.0828(3)
C14 C 0.4462(7) 0.7255(7) 0.9085(5)
H10 H 0.475543 0.799937 0.904692
C15 C 0.8312(6) 0.7158(6) 0.9308(3)
H11 H 0.858244 0.776473 0.951907
C16 C 0.3215(7) 0.7163(7) 0.9152(5)
H12 H 0.265643 0.785747 0.917841
C17 C 0.7072(6) 0.7197(6) 0.9312(4)
H13 H 0.650524 0.783032 0.951168
C18 C 0.4811(6) 0.5212(6) 0.9104(4)
H14 H 0.535102 0.450578 0.908720
C19 C 0.7958(6) 0.8414(5) 0.2145(3)
C21 C 0.2646(6) 0.6550(5) 0.7061(3)
C22 C 0.3544(6) 0.5182(6) 0.9159(4)
H16 H 0.323014 0.444912 0.918203
C23 C 0.8773(6) 0.5506(6) 0.8703(3)
H17 H 0.937531 0.493445 0.846007
C24 C 0.4643(5) 0.8225(5) 0.5602(3)
C25 C 0.4032(6) 0.7252(5) 0.6029(3)
C26 C 0.9119(6) 0.7672(5) 0.1035(3)
C27 C 0.1831(6) 0.6736(5) 0.7781(3)
C28 C 0.8347(6) 0.9693(6) 0.3905(4)
C29 C 0.3580(7) 0.5263(6) 0.6139(4)
C30 C 0.7535(6) 0.5459(6) 0.8703(4)
H19 H 0.729534 0.484472 0.848415
C31 C 0.9604(6) 0.9704(6) 0.3861(4)
C32 C 0.9547(6) 0.7981(6) 0.4594(4)
H21 H 0.994399 0.736438 0.483921
C33 C 0.9050(7) 0.9697(5) 0.1260(4)
C34 C 0.8276(6) 0.8040(6) 0.4621(4)
H22 H 0.781284 0.746163 0.489380
C35 C 0.8291(6) 0.9522(5) 0.1916(3)
C36 C 0.2812(6) 0.5446(6) 0.6797(3)
H24 H 0.240404 0.482791 0.706280
Cu7 Cu 0.90660(6) 0.39001(6) 0.08425(4)
O11 O 0.1046(4) 0.4179(4) 0.9345(2)
N5 N 0.0833(5) 0.3694(5) 0.0977(3)
N1_2 N 0.2319(4) 0.1123(4) 0.5722(3)
N2_2 N 0.7250(5) 0.3850(5) 0.0819(3)
O2_2 O 0.4457(4) 0.2065(4) 0.4921(2)
O4_2 O 0.8535(5) 0.2244(4) 0.2036(2)
O5_2 O 0.8440(4) 0.4164(4) 0.1843(2)
O7_2 O 0.3539(4) 0.0935(4) 0.6852(2)
C1_2 C 0.3359(6) 0.3689(6) 0.0976(4)
C2_2 C 0.4709(6) 0.3741(6) 0.0927(4)
O8_2 O 0.6236(6) 0.5797(4) 0.4156(3)
H1_2 H 0.658633 0.628771 0.386291
C6_2 C 0.6757(6) 0.2559(5) 0.3326(3)
H3_2 H 0.689294 0.180384 0.314526
O10_2 O 0.2614(5) 0.2758(4) 0.6821(2)
C7_2 C 0.0454(6) 0.3316(5) 0.9442(3)
C8_2 C 0.2789(6) 0.1798(5) 0.7126(3)
C9_2 C 0.5774(6) 0.3864(5) 0.4245(3)
H5_2 H 0.521208 0.401317 0.468365
C10_2 C 0.1638(6) 0.2517(5) 0.8303(3)
H6_2 H 0.188196 0.326988 0.815462
C12_2 C 0.0493(6) 0.1226(5) 0.9172(3)
C14_2 C 0.5538(7) 0.2745(7) 0.0915(5)
H10_2 H 0.524457 0.200063 0.095308
C15_2 C 0.1688(6) 0.2842(6) 0.0692(3)
H11_2 H 0.141756 0.223527 0.048093
C16_2 C 0.6785(7) 0.2837(7) 0.0848(5)
H12_2 H 0.734357 0.214253 0.082159
C17_2 C 0.2928(6) 0.2803(6) 0.0688(4)
H13_2 H 0.349476 0.216968 0.048832
C18_2 C 0.5189(6) 0.4788(6) 0.0896(4)
H14_2 H 0.464898 0.549422 0.091280
C19_2 C 0.2042(6) 0.1586(5) 0.7855(3)
C21_2 C 0.7354(6) 0.3450(5) 0.2939(3)
C22_2 C 0.6456(6) 0.4818(6) 0.0841(4)
H16_2 H 0.676986 0.555088 0.081797
C23_2 C 0.1227(6) 0.4494(6) 0.1297(3)
H17_2 H 0.062469 0.506555 0.153993
C24_2 C 0.5357(5) 0.1775(5) 0.4398(3)
C25_2 C 0.5968(6) 0.2748(5) 0.3971(3)
C26_2 C 0.0881(6) 0.2328(5) 0.8965(3)
C27_2 C 0.8169(6) 0.3264(5) 0.2219(3)
C28_2 C 0.1653(6) 0.0307(6) 0.6095(4)
C29_2 C 0.6420(7) 0.4737(6) 0.3861(4)
C30_2 C 0.2465(6) 0.4541(6) 0.1297(4)
H19_2 H 0.270466 0.515528 0.151585
C31_2 C 0.0396(6) 0.0296(6) 0.6139(4)
C32_2 C 0.0453(6) 0.2019(6) 0.5406(4)
H21_2 H 0.005601 0.263562 0.516079
C33_2 C 0.0950(7) 0.0303(5) 0.8740(4)
C34_2 C 0.1724(6) 0.1960(6) 0.5379(4)
H22_2 H 0.218716 0.253837 0.510620
C35_2 C 0.1709(6) 0.0478(5) 0.8084(3)
C36_2 C 0.7188(6) 0.4554(6) 0.3203(3)
H24_2 H 0.759596 0.517209 0.293720
N6 N 0.5855(5) 0.1165(5) 0.5875(3)
O12 O 0.9512(4) 0.3158(4) 0.9947(2)
O9_2 O 0.0538(5) 0.9246(4) 0.8977(2)
H4_2 H 0.082637 0.875753 0.866744
H18_2 H 0.206907 0.970621 0.634208
H23_2 H 0.200563 0.984222 0.778836
C3_2 C 0.9771(6) 0.1175(6) 0.5790(4)
C4_2 C 0.8398(6) 0.1185(6) 0.5829(4)
C5_2 C 0.6390(6) 0.2149(6) 0.5782(4)
H2_2 H 0.588545 0.285847 0.572729
C11_2 C 0.6596(6) 0.0181(6) 0.5973(4)
H8_2 H 0.991729 0.111146 0.960741
C13_2 C 0.7637(6) 0.2194(6) 0.5762(4)
H9_2 H 0.796864 0.292297 0.570234
C20_2 C 0.7852(7) 0.0152(6) 0.5952(4)
H7_2 H 0.623032 0.946866 0.606159
H15_2 H 0.833733 0.943624 0.602017
H20_2 H 0.996084 0.969368 0.640410
loop_
_geom_bond_atom_site_label_1
_geom_bond_atom_site_label_2
_geom_bond_site_symmetry_1
_geom_bond_site_symmetry_2
C3 C4 1_555 1_555
C4 C13 1_555 1_555
C5 H2 1_555 1_555
C13 C5 1_555 1_555
H9 C13 1_555 1_555
C20 C4 1_555 1_555
N4 C5 1_555 1_555
Cu3 N4 1_555 1_555
C11 C20 1_555 1_555
C11 N4 1_555 1_555
O9 H4 1_555 1_555
Cu3 N1 1_555 1_555
Cu6 N2 1_555 1_555
N1 C28 1_555 1_555
N2 C16 1_555 1_555
N3 C15 1_555 1_555
O1 C7 1_555 1_555
O2 Cu3 1_555 1_555
O4 C27 1_555 1_555
O5 Cu6 1_555 1_555
O6 C24 1_555 1_555
O7 Cu3 1_555 1_555
C1 C2 1_555 1_555
C2 C14 1_555 1_555
O8 H1 1_555 1_555
C6 H3 1_555 1_555
O10 C8 1_555 1_555
C7 C26 1_555 1_555
C8 O7 1_555 1_555
C9 H5 1_555 1_555
C10 H6 1_555 1_555
C14 H10 1_555 1_555
C15 H11 1_555 1_555
C16 C14 1_555 1_555
H12 C16 1_555 1_555
C17 C1 1_555 1_555
H13 C17 1_555 1_555
C18 C2 1_555 1_555
H14 C18 1_555 1_555
C19 C8 1_555 1_555
C21 C6 1_555 1_555
C22 N2 1_555 1_555
H16 C22 1_555 1_555
C23 N3 1_555 1_555
H17 C23 1_555 1_555
C24 O2 1_555 1_555
C25 C6 1_555 1_555
C26 C10 1_555 1_555
C27 O5 1_555 1_555
C29 O8 1_555 1_555
C30 C1 1_555 1_555
H19 C30 1_555 1_555
H21 C32 1_555 1_555
C34 N1 1_555 1_555
H22 C34 1_555 1_555
C35 C19 1_555 1_555
C36 C21 1_555 1_555
H24 C36 1_555 1_555
Cu7 O1 1_555 1_555
O11 Cu6 1_555 1_555
C9 C25 1_555 1_555
C9 C29 1_555 1_555
C10 C19 1_555 1_555
C12 C26 1_555 1_555
C12 C33 1_555 1_555
C15 C17 1_555 1_555
C18 C22 1_555 1_555
C21 C27 1_555 1_555
C23 C30 1_555 1_555
C24 C25 1_555 1_555
C28 C31 1_555 1_555
C29 C36 1_555 1_555
C32 C34 1_555 1_555
C33 C35 1_555 1_555
Cu4 N1_2 1_555 1_555
Cu7 N2_2 1_555 1_555
N1_2 C28_2 1_555 1_555
N2_2 C16_2 1_555 1_555
N5 C15_2 1_555 1_555
O11 C7_2 1_555 1_555
O2_2 Cu4 1_555 1_555
O4_2 C27_2 1_555 1_555
O5_2 Cu7 1_555 1_555
O13 C24_2 1_555 1_555
O7_2 Cu4 1_555 1_555
C1_2 C2_2 1_555 1_555
C2_2 C14_2 1_555 1_555
O8_2 H1_2 1_555 1_555
C6_2 H3_2 1_555 1_555
O10_2 C8_2 1_555 1_555
C7_2 C26_2 1_555 1_555
C8_2 O7_2 1_555 1_555
C9_2 H5_2 1_555 1_555
C10_2 H6_2 1_555 1_555
C14_2 H10_2 1_555 1_555
C15_2 H11_2 1_555 1_555
C16_2 C14_2 1_555 1_555
H12_2 C16_2 1_555 1_555
C17_2 C1_2 1_555 1_555
H13_2 C17_2 1_555 1_555
C18_2 C2_2 1_555 1_555
H14_2 C18_2 1_555 1_555
C19_2 C8_2 1_555 1_555
C21_2 C6_2 1_555 1_555
C22_2 N2_2 1_555 1_555
H16_2 C22_2 1_555 1_555
C23_2 N5 1_555 1_555
H17_2 C23_2 1_555 1_555
C24_2 O2_2 1_555 1_555
C25_2 C6_2 1_555 1_555
C26_2 C10_2 1_555 1_555
C27_2 O5_2 1_555 1_555
C29_2 O8_2 1_555 1_555
C30_2 C1_2 1_555 1_555
H19_2 C30_2 1_555 1_555
H21_2 C32_2 1_555 1_555
C34_2 N1_2 1_555 1_555
H22_2 C34_2 1_555 1_555
C35_2 C19_2 1_555 1_555
C36_2 C21_2 1_555 1_555
H24_2 C36_2 1_555 1_555
N6 Cu4 1_555 1_555
C9_2 C25_2 1_555 1_555
C9_2 C29_2 1_555 1_555
C10_2 C19_2 1_555 1_555
C12_2 C26_2 1_555 1_555
C12_2 C33_2 1_555 1_555
C15_2 C17_2 1_555 1_555
C18_2 C22_2 1_555 1_555
C21_2 C27_2 1_555 1_555
C23_2 C30_2 1_555 1_555
C24_2 C25_2 1_555 1_555
C28_2 C31_2 1_555 1_555
C29_2 C36_2 1_555 1_555
C32_2 C34_2 1_555 1_555
C33_2 C35_2 1_555 1_555
O9_2 H4_2 1_555 1_555
C3_2 C4_2 1_555 1_555
C4_2 C13_2 1_555 1_555
C5_2 H2_2 1_555 1_555
C13_2 C5_2 1_555 1_555
H9_2 C13_2 1_555 1_555
C20_2 C4_2 1_555 1_555
N6 C5_2 1_555 1_555
C11_2 C20_2 1_555 1_555
C11_2 N6 1_555 1_555

#END
