
###############################################################################
#
# This file contains modified crystal structure data generated from the
# MOF subset of the Cambridge Structural Database (CSD) v543 
# hosted by the Cambridge Crystallographic Data Centre (CCDC).
#
# This work is licensed under the Creative Commons
# Attribution-NonCommercial-ShareAlike 4.0 International License.
# To view a copy of this license, visit
# http://creativecommons.org/licenses/by-nc-sa/4.0/
# or send a letter to
# Creative Commons, PO Box 1866, Mountain View, CA 94042, USA.
#
# CIF created using the CSD Python API on 29 September 2022
# The structure has been converted into the P1 space group
# The structure has a 3D framework
# The original CSD entry MAPBAI is in the monoclinic crystal system
# The framework has been calculated to contain at least 10.0% void space
# The void calculation uses a probe of radius 1.32A, grid spacing 0.4
#
###############################################################################

data_MAPBAI
_chemical_formula_moiety         '(C36 H32 N4 O26 Pr4)n'
_symmetry_cell_setting           triclinic
_symmetry_space_group_name_H-M   'P 1'
_symmetry_Int_Tables_number      1
_space_group_name_Hall           'P 1'
loop_
_symmetry_equiv_pos_site_id
_symmetry_equiv_pos_as_xyz
1 x,y,z
_cell_length_a                   9.4504(19)
_cell_length_b                   8.3822(17)
_cell_length_c                   16.990(3)
_cell_angle_alpha                90
_cell_angle_beta                 105.68(3)
_cell_angle_gamma                90
_cell_volume                     1295.78
loop_
_atom_site_label
_atom_site_type_symbol
_atom_site_fract_x
_atom_site_fract_y
_atom_site_fract_z
H5 H 0.076(7) 0.900(7) 0.635(4)
O1 O 0.0051(2) 0.6563(2) 0.54754(11)
Pr2 Pr 0.166148(12) 0.433576(15) 0.598902(7)
O9 O 0.07549(18) 0.6658(2) 0.39455(11)
H6 H 0.962(5) 0.001(7) 0.596(3)
Pr5 Pr 0.666148(12) 0.066424(15) 0.098902(7)
Pr1 Pr 0.833852(12) 0.566424(15) 0.401098(7)
N1 N 0.5610(2) 0.6820(3) 0.36641(13)
C1 C 0.5247(3) 0.7988(3) 0.31092(14)
C2 C 0.3838(3) 0.8613(4) 0.28525(18)
H1 H 0.368(4) 0.942(4) 0.247(2)
C3 C 0.2773(3) 0.8028(4) 0.31979(17)
H2 H 0.181(4) 0.840(5) 0.301(2)
C4 C 0.3146(3) 0.6870(3) 0.37977(15)
C5 C 0.4578(3) 0.6288(3) 0.40029(16)
H3 H 0.484(4) 0.544(4) 0.439(2)
C6 C 0.6464(3) 0.8541(3) 0.27541(14)
C7 C 0.2063(3) 0.6247(3) 0.42347(15)
C8 C 0.9868(5) 0.9053(4) 0.6126(2)
H4 H 0.936(6) 0.881(6) 0.653(3)
C9 C 0.9391(3) 0.7880(3) 0.54435(16)
O2 O 0.8331(2) 0.8202(2) 0.48369(12)
O4 O 0.2573(2) 0.5380(2) 0.48506(11)
O5 O 0.6201(2) 0.9667(3) 0.22610(12)
O6 O 0.76656(19) 0.7790(2) 0.29763(11)
O7 O 0.6535(3) 0.3423(3) 0.34513(17)
H7 H 0.614(7) 0.293(7) 0.367(4)
H8 H 0.656(5) 0.318(6) 0.304(3)
O8 O 0.9949(2) 0.3437(2) 0.45246(11)
O10 O 0.7427(2) 0.4620(2) 0.51494(11)
O11 O 0.8799(2) 0.4667(3) 0.27390(12)
C2_2 C 0.1162(3) 0.3613(4) 0.21475(18)
H1_2 H 0.132(4) 0.442(4) 0.253(2)
C3_2 C 0.2227(3) 0.3028(4) 0.18021(17)
H2_2 H 0.319(4) 0.340(5) 0.199(2)
C4_2 C 0.1854(3) 0.1870(3) 0.12023(15)
C5_2 C 0.0422(3) 0.1288(3) 0.09971(16)
H3_2 H 0.016(4) 0.044(4) 0.061(2)
C7_2 C 0.2937(3) 0.1247(3) 0.07653(15)
O3 O 0.42451(18) 0.1658(2) 0.10545(11)
O4_2 O 0.2427(2) 0.0380(2) 0.01494(11)
Pr4 Pr 0.333852(12) 0.933576(15) 0.901098(7)
N1_2 N 0.9390(2) 0.1820(3) 0.13359(13)
C1_2 C 0.9753(3) 0.2988(3) 0.18908(14)
C6_2 C 0.8536(3) 0.3541(3) 0.22459(14)
O2_2 O 0.6669(2) 0.3202(2) 0.01631(12)
O6_2 O 0.73344(19) 0.2790(2) 0.20237(11)
C8_2 C 0.5132(5) 0.4053(4) 0.8874(2)
H4_2 H 0.564(6) 0.381(6) 0.847(3)
H5_2 H 0.424(7) 0.400(7) 0.865(4)
H6_2 H 0.538(5) 0.501(7) 0.904(3)
C9_2 C 0.5609(3) 0.2880(3) 0.95565(16)
O1_2 O 0.4949(2) 0.1563(2) 0.95246(11)
O7_2 O 0.8465(3) 0.8423(3) 0.15487(17)
H7_2 H 0.886(7) 0.793(7) 0.133(4)
H8_2 H 0.844(5) 0.818(6) 0.196(3)
O8_2 O 0.5051(2) 0.8437(2) 0.04754(11)
O10_2 O 0.7573(2) 0.9620(2) 0.98506(11)
N1_3 N 0.4390(2) 0.3180(3) 0.63359(13)
C1_3 C 0.4753(3) 0.2012(3) 0.68908(14)
C2_3 C 0.6162(3) 0.1387(4) 0.71475(18)
H1_3 H 0.632(4) 0.058(4) 0.753(2)
C3_3 C 0.7227(3) 0.1972(4) 0.68021(17)
H2_3 H 0.819(4) 0.160(5) 0.699(2)
C4_3 C 0.6854(3) 0.3130(3) 0.62023(15)
C5_3 C 0.5422(3) 0.3712(3) 0.59971(16)
H3_3 H 0.516(4) 0.456(4) 0.561(2)
C6_3 C 0.3536(3) 0.1459(3) 0.72459(14)
C7_3 C 0.7937(3) 0.3753(3) 0.57653(15)
C8_3 C 0.0132(5) 0.0947(4) 0.3874(2)
H4_3 H 0.064(6) 0.119(6) 0.347(3)
C9_3 C 0.0609(3) 0.2120(3) 0.45565(16)
O2_3 O 0.1669(2) 0.1798(2) 0.51631(12)
O3_2 O 0.92451(18) 0.3342(2) 0.60545(11)
O5_2 O 0.3799(2) 0.0333(3) 0.77390(12)
O6_3 O 0.23344(19) 0.2210(2) 0.70237(11)
O7_3 O 0.3465(3) 0.6577(3) 0.65487(17)
H7_3 H 0.386(7) 0.707(7) 0.633(4)
H8_3 H 0.344(5) 0.682(6) 0.696(3)
O11_2 O 0.1201(2) 0.5333(3) 0.72610(12)
H6_3 H 0.038(5) 0.999(7) 0.404(3)
H5_3 H 0.924(7) 0.100(7) 0.365(4)
O7_4 O 0.1535(3) 0.1577(3) 0.84513(17)
H7_4 H 0.114(7) 0.207(7) 0.867(4)
H8_4 H 0.156(5) 0.182(6) 0.804(3)
C8_4 C 0.4868(5) 0.5947(4) 0.1126(2)
H4_4 H 0.436(6) 0.619(6) 0.153(3)
H5_4 H 0.576(7) 0.600(7) 0.135(4)
H6_4 H 0.462(5) 0.499(7) 0.096(3)
C9_4 C 0.4391(3) 0.7120(3) 0.04435(16)
N1_4 N 0.0610(2) 0.8180(3) 0.86641(13)
C1_4 C 0.0247(3) 0.7012(3) 0.81092(14)
C6_4 C 0.1464(3) 0.6459(3) 0.77541(14)
O2_4 O 0.3331(2) 0.6798(2) 0.98369(12)
O6_4 O 0.26656(19) 0.7210(2) 0.79763(11)
O9_2 O 0.57549(18) 0.8342(2) 0.89455(11)
C2_4 C 0.8838(3) 0.6387(4) 0.78525(18)
H1_4 H 0.868(4) 0.558(4) 0.747(2)
C3_4 C 0.7773(3) 0.6972(4) 0.81979(17)
H2_4 H 0.681(4) 0.660(5) 0.801(2)
C4_4 C 0.8146(3) 0.8130(3) 0.87977(15)
C5_4 C 0.9578(3) 0.8712(3) 0.90029(16)
H3_4 H 0.984(4) 0.956(4) 0.939(2)
C7_4 C 0.7063(3) 0.8753(3) 0.92347(15)
loop_
_geom_bond_atom_site_label_1
_geom_bond_atom_site_label_2
_geom_bond_site_symmetry_1
_geom_bond_site_symmetry_2
Pr2 O1 1_555 1_555
Pr1 N1 1_555 1_555
N1 C1 1_555 1_555
C1 C2 1_555 1_555
C2 H1 1_555 1_555
C3 C2 1_555 1_555
H2 C3 1_555 1_555
C4 C3 1_555 1_555
C5 N1 1_555 1_555
H3 C5 1_555 1_555
C6 C1 1_555 1_555
C7 C4 1_555 1_555
C8 H4 1_555 1_555
C9 C8 1_555 1_555
O2 Pr1 1_555 1_555
O9 C7 1_555 1_555
O4 C7 1_555 1_555
O5 C6 1_555 1_555
O6 Pr1 1_555 1_555
O7 Pr1 1_555 1_555
H7 O7 1_555 1_555
H8 O7 1_555 1_555
Pr2 O4 1_555 1_555
O8 Pr1 1_555 1_555
O10 Pr1 1_555 1_555
O11 Pr1 1_555 1_555
C4 C5 1_555 1_555
C6 O6 1_555 1_555
C9 O2 1_555 1_555
C2_2 H1_2 1_555 1_555
C3_2 C2_2 1_555 1_555
H2_2 C3_2 1_555 1_555
C4_2 C3_2 1_555 1_555
H3_2 C5_2 1_555 1_555
C7_2 C4_2 1_555 1_555
O3 C7_2 1_555 1_555
O4_2 C7_2 1_555 1_555
Pr5 O3 1_555 1_555
C4_2 C5_2 1_555 1_555
Pr5 N1_2 1_555 1_555
N1_2 C1_2 1_555 1_555
C6_2 C1_2 1_555 1_555
O2_2 Pr5 1_555 1_555
O11 C6_2 1_555 1_555
O6_2 Pr5 1_555 1_555
C6_2 O6_2 1_555 1_555
C8_2 H4_2 1_555 1_555
H5_2 C8_2 1_555 1_555
H6_2 C8_2 1_555 1_555
C9_2 C8_2 1_555 1_555
C9_2 O1_2 1_555 1_555
H7_2 O7_2 1_555 1_555
H8_2 O7_2 1_555 1_555
Pr2 N1_3 1_555 1_555
N1_3 C1_3 1_555 1_555
C1_3 C2_3 1_555 1_555
C2_3 H1_3 1_555 1_555
C3_3 C2_3 1_555 1_555
H2_3 C3_3 1_555 1_555
C4_3 C3_3 1_555 1_555
C5_3 N1_3 1_555 1_555
H3_3 C5_3 1_555 1_555
C6_3 C1_3 1_555 1_555
C7_3 C4_3 1_555 1_555
C8_3 H4_3 1_555 1_555
C9_3 C8_3 1_555 1_555
O2_3 Pr2 1_555 1_555
O3_2 C7_3 1_555 1_555
O10 C7_3 1_555 1_555
O5_2 C6_3 1_555 1_555
O6_3 Pr2 1_555 1_555
O7_3 Pr2 1_555 1_555
H7_3 O7_3 1_555 1_555
H8_3 O7_3 1_555 1_555
O11_2 Pr2 1_555 1_555
C4_3 C5_3 1_555 1_555
C6_3 O6_3 1_555 1_555
C9_3 O2_3 1_555 1_555
H7_4 O7_4 1_555 1_555
H8_4 O7_4 1_555 1_555
C8_4 H4_4 1_555 1_555
H5_4 C8_4 1_555 1_555
H6_4 C8_4 1_555 1_555
C9_4 C8_4 1_555 1_555
C9_4 O8_2 1_555 1_555
Pr4 N1_4 1_555 1_555
N1_4 C1_4 1_555 1_555
C6_4 C1_4 1_555 1_555
O2_4 Pr4 1_555 1_555
O11_2 C6_4 1_555 1_555
O6_4 Pr4 1_555 1_555
O9_2 Pr4 1_555 1_555
C6_4 O6_4 1_555 1_555
C2_4 H1_4 1_555 1_555
C3_4 C2_4 1_555 1_555
H2_4 C3_4 1_555 1_555
C4_4 C3_4 1_555 1_555
H3_4 C5_4 1_555 1_555
C7_4 C4_4 1_555 1_555
O9_2 C7_4 1_555 1_555
O10_2 C7_4 1_555 1_555
C4_4 C5_4 1_555 1_555

#END
