
###############################################################################
#
# This file contains modified crystal structure data generated from the
# MOF subset of the Cambridge Structural Database (CSD) v543 
# hosted by the Cambridge Crystallographic Data Centre (CCDC).
#
# This work is licensed under the Creative Commons
# Attribution-NonCommercial-ShareAlike 4.0 International License.
# To view a copy of this license, visit
# http://creativecommons.org/licenses/by-nc-sa/4.0/
# or send a letter to
# Creative Commons, PO Box 1866, Mountain View, CA 94042, USA.
#
# CIF created using the CSD Python API on 29 September 2022
# The structure has been converted into the P1 space group
# The structure has a 3D framework
# The original CSD entry MAPFIS is in the monoclinic crystal system
# The framework has been calculated to contain at least 10.0% void space
# The void calculation uses a probe of radius 1.32A, grid spacing 0.4
# H atom positions have been added when not included in the experimental data
# Generated hydrogen atom positions removed from atoms on special positions
#
###############################################################################

data_MAPFIS
_chemical_formula_moiety         '(C96 H96 O40 Ti8)n'
_symmetry_cell_setting           triclinic
_symmetry_space_group_name_H-M   'P 1'
_symmetry_Int_Tables_number      1
_space_group_name_Hall           'P 1'
loop_
_symmetry_equiv_pos_site_id
_symmetry_equiv_pos_as_xyz
1 x,y,z
_cell_length_a                   16.137(3)
_cell_length_b                   10.762(2)
_cell_length_c                   20.368(4)
_cell_angle_alpha                90
_cell_angle_beta                 111.65(3)
_cell_angle_gamma                90
_cell_volume                     3287.7
loop_
_atom_site_label
_atom_site_type_symbol
_atom_site_fract_x
_atom_site_fract_y
_atom_site_fract_z
Ti10 Ti 0.0404(2) 0.9215(2) 0.2138(1)
O9 O 0.4971(6) 0.2619(6) 0.3050(4)
C15 C 0.4162(9) 0.0844(11) 0.2458(7)
C16 C 0.4985(10) 0.1464(12) 0.2791(8)
C17 C 0.5765(10) 0.0881(11) 0.2859(7)
H10 H 0.3629(9) 0.1204(11) 0.2436(7)
H11 H 0.6303(10) 0.1281(11) 0.3103(7)
Ti7 Ti 0.4596(2) 0.4215(2) 0.2862(1)
O16 O 0.5631(6) 0.4685(6) 0.2538(5)
O17 O 0.4298(6) 0.5877(7) 0.2371(4)
O18 O 0.4017(6) 0.3670(8) 0.1751(5)
O19 O 0.3533(6) 0.4046(7) 0.2947(5)
O20 O 0.5210(6) 0.4991(7) 0.3717(4)
Ti9 Ti 0.9618(2) 0.1402(2) 0.2883(1)
Ti1 Ti 0.5382(2) 0.6402(2) 0.2117(1)
O1 O 0.4938(6) 0.7983(7) 0.1900(5)
O3 O 0.4828(6) 0.5810(7) 0.1232(5)
O5 O 0.5848(6) 0.6993(7) 0.3222(4)
O6 O 0.6476(6) 0.6650(7) 0.2119(5)
O8 O 0.1467(6) 0.9046(7) 0.2053(5)
C1 C 0.6374(10) 0.3978(11) 0.2635(8)
C2 C 0.6992(9) 0.3759(11) 0.3294(8)
C3 C 0.7728(10) 0.2980(12) 0.3385(8)
C4 C 0.7201(10) 0.7392(11) 0.2196(8)
C5 C 0.7820(10) 0.7599(12) 0.2854(9)
C6 C 0.6450(9) 0.3370(12) 0.2061(8)
C7 C 0.2151(10) 0.8225(11) 0.2127(8)
C8 C 0.2775(11) 0.8002(11) 0.2785(8)
C9 C 0.3499(9) 0.7211(11) 0.2878(8)
C10 C 0.3572(10) 0.6638(11) 0.2297(8)
C11 C 0.2925(10) 0.6832(12) 0.1635(8)
C12 C 0.2227(10) 0.7638(12) 0.1548(8)
C13 C 0.4961(9) 0.9114(11) 0.2213(7)
C14 C 0.4173(11) 0.9673(11) 0.2160(7)
C18 C 0.5780(11) 0.9718(12) 0.2576(8)
C19 C 0.4911(10) 0.5440(11) 0.0612(8)
C20 C 0.5763(10) 0.5339(12) 0.0573(8)
C21 C 0.4168(11) 0.5073(11) 0.0053(9)
C22 C 0.5133(9) 0.4995(11) 0.4345(8)
C23 C 0.5130(9) 0.6092(13) 0.4693(8)
C24 C 0.4950(9) 0.3863(12) 0.4642(8)
H1 H 0.6927(9) 0.4127(11) 0.3685(8)
H2 H 0.8162(10) 0.2861(12) 0.3831(8)
H3 H 0.7758(10) 0.7228(12) 0.3245(9)
H4 H 0.6012(9) 0.3475(12) 0.1615(8)
H5 H 0.2717(11) 0.8380(11) 0.3176(8)
H6 H 0.3925(9) 0.7075(11) 0.3326(8)
H7 H 0.2960(10) 0.6416(12) 0.1246(8)
H8 H 0.1807(10) 0.7786(12) 0.1098(8)
H9 H 0.3637(11) 0.9266(11) 0.1923(7)
H12 H 0.6318(11) 0.9341(12) 0.2623(8)
H13 H 0.6271(10) 0.5545(12) 0.0960(8)
H14 H 0.3613(11) 0.5100(11) 0.0093(9)
H15 H 0.5183(9) 0.6836(13) 0.4479(8)
H16 H 0.4886(9) 0.3115(12) 0.4399(8)
C25 C 0.7799(10) 0.2392(11) 0.2804(8)
C26 C 0.7272(10) 0.7980(12) 0.1615(8)
C27 C 0.8550(9) 0.8370(12) 0.2939(8)
C28 C 0.7180(10) 0.2599(12) 0.2146(9)
C31 C 0.5050(9) 0.6137(12) 0.5358(8)
C32 C 0.4870(9) 0.3908(13) 0.5307(8)
O11 O 0.0702(6) 0.0877(7) 0.2629(4)
C33 C 0.2849(10) 0.3225(11) 0.2873(8)
C34 C 0.2225(11) 0.3002(11) 0.2215(8)
C35 C 0.1501(9) 0.2211(11) 0.2122(8)
C36 C 0.1428(10) 0.1638(11) 0.2703(8)
C37 C 0.2075(10) 0.1832(12) 0.3365(8)
C38 C 0.2773(10) 0.2638(12) 0.3452(8)
H17 H 0.2283(11) 0.3380(11) 0.1824(8)
H18 H 0.1075(9) 0.2075(11) 0.1674(8)
H19 H 0.2040(10) 0.1416(12) 0.3754(8)
H20 H 0.3193(10) 0.2786(12) 0.3902(8)
O15 O 0.8524(6) 0.1650(7) 0.2881(5)
C45 C 0.8008(9) 0.8759(11) 0.1706(8)
H25 H 0.6838(10) 0.7861(12) 0.1169(8)
C46 C 0.8626(10) 0.8978(11) 0.2365(8)
H26 H 0.8988(9) 0.8475(12) 0.3385(8)
H27 H 0.7242(10) 0.2228(12) 0.1755(9)
C48 C 0.4867(9) 0.5005(11) 0.5655(8)
H30 H 0.5114(9) 0.6885(12) 0.5601(8)
H31 H 0.4817(9) 0.3164(13) 0.5521(8)
H32 H 0.8073(9) 0.9127(11) 0.1315(8)
O21 O 0.9369(6) 0.9685(6) 0.2462(5)
O23 O 0.4790(6) 0.5009(7) 0.6283(4)
Ti12 Ti 0.5404(2) 0.5785(2) 0.7138(1)
O24 O 0.4369(6) 0.5315(6) 0.7462(5)
O25 O 0.5702(6) 0.4123(7) 0.7629(4)
O26 O 0.5983(6) 0.6330(8) 0.8249(5)
O27 O 0.6467(6) 0.5954(7) 0.7053(5)
O28 O 0.5029(6) 0.7381(6) 0.6950(4)
H37 H 0.53303 0.725436 0.334138
H38 H 0.615868 0.629115 0.353149
C29 C 0.5832(11) 0.4927(11) 0.9947(9)
C30 C 0.4237(10) 0.4661(12) 0.9427(8)
C47 C 0.5089(10) 0.4560(11) 0.9388(8)
H28 H 0.6387(11) 0.4900(11) 0.9907(9)
H29 H 0.3729(10) 0.4455(12) 0.9040(8)
O22 O 0.5172(6) 0.4190(7) 0.8768(5)
Ti11 Ti 0.4618(2) 0.3598(2) 0.7883(1)
O1_2 O 0.0062(6) 0.2983(7) 0.3100(5)
O3_2 O 0.0172(6) 0.0810(7) 0.3768(5)
O9_2 O 0.0029(6) 0.7619(6) 0.1950(4)
C13_2 C 0.0039(9) 0.4114(11) 0.2787(7)
C14_2 C 0.0827(11) 0.4673(11) 0.2840(7)
C15_2 C 0.0838(9) 0.5844(11) 0.2542(7)
C16_2 C 0.0015(10) 0.6464(12) 0.2209(8)
C19_2 C 0.0089(10) 0.0440(11) 0.4388(8)
C21_2 C 0.0832(11) 0.0073(11) 0.4947(9)
H9_2 H 0.1363(11) 0.4266(11) 0.3077(7)
H10_2 H 0.1371(9) 0.6204(11) 0.2564(7)
H14_2 H 0.1387(11) 0.0100(11) 0.4907(9)
O18_2 O 0.0983(6) 0.8670(8) 0.3249(5)
C48_2 C 0.0133(9) 0.0005(11) 0.9345(8)
O23_2 O 0.0210(6) 0.0009(7) 0.8717(4)
O24_2 O 0.0631(6) 0.0315(6) 0.7538(5)
C24_2 C 0.0050(9) 0.8863(12) 0.0358(8)
H16_2 H 0.0114(9) 0.8115(12) 0.0601(8)
C30_2 C 0.0763(10) 0.9661(12) 0.5573(8)
H29_2 H 0.1271(10) 0.9455(12) 0.5960(8)
Ti11_2 Ti 0.0382(2) 0.8598(2) 0.7117(1)
C32_2 C 0.0130(9) 0.8908(13) 0.9693(8)
H31_2 H 0.0183(9) 0.8164(13) 0.9479(8)
O5_2 O 0.9152(6) 0.1993(7) 0.1778(4)
C17_2 C 0.9235(10) 0.5881(11) 0.2141(7)
C18_2 C 0.9220(11) 0.4718(12) 0.2424(8)
C20_2 C 0.9237(10) 0.0339(12) 0.4427(8)
C23_2 C 0.9870(9) 0.1092(13) 0.0307(8)
H11_2 H 0.8697(10) 0.6281(11) 0.1897(7)
H12_2 H 0.8682(11) 0.4341(12) 0.2377(8)
H13_2 H 0.8729(10) 0.0545(12) 0.4040(8)
H15_2 H 0.9817(9) 0.1836(13) 0.0521(8)
O20_2 O 0.9790(6) 0.9991(7) 0.1283(4)
H37_2 H 0.96697 0.225436 0.165862
H38_2 H 0.884132 0.129115 0.146851
C31_2 C 0.9950(9) 0.1137(12) 0.9642(8)
H30_2 H 0.9886(9) 0.1885(12) 0.9399(8)
Ti12_2 Ti 0.9596(2) 0.0785(2) 0.7862(1)
O26_2 O 0.9017(6) 0.1330(8) 0.6751(5)
O27_2 O 0.8533(6) 0.0954(7) 0.7947(5)
O28_2 O 0.9971(6) 0.2381(6) 0.8050(4)
C22_2 C 0.9867(9) 0.9995(11) 0.0655(8)
C29_2 C 0.9168(11) 0.9927(11) 0.5053(9)
C47_2 C 0.9911(10) 0.9560(11) 0.5612(8)
H28_2 H 0.8613(11) 0.9900(11) 0.5093(9)
O22_2 O 0.9828(6) 0.9190(7) 0.6232(5)
O25_2 O 0.9298(6) 0.9123(7) 0.7371(4)
O13 O 0.5062(6) 0.2017(7) 0.8100(5)
C39 C 0.5039(9) 0.0886(11) 0.7787(7)
C40 C 0.5827(11) 0.0327(11) 0.7840(7)
C44 C 0.4220(11) 0.0282(12) 0.7424(8)
H21 H 0.6363(11) 0.0734(11) 0.8077(7)
H24 H 0.3682(11) 0.0659(12) 0.7377(8)
O5_3 O 0.4152(6) 0.3007(7) 0.6778(4)
O6_2 O 0.3524(6) 0.3350(7) 0.7881(5)
C1_2 C 0.3626(10) 0.6022(11) 0.7365(8)
C2_2 C 0.3008(9) 0.6241(11) 0.6706(8)
C3_2 C 0.2272(10) 0.7020(12) 0.6615(8)
C4_2 C 0.2799(10) 0.2608(11) 0.7804(8)
C5_2 C 0.2180(10) 0.2401(12) 0.7146(9)
C6_2 C 0.3550(9) 0.6630(12) 0.7939(8)
C7_2 C 0.7849(10) 0.1775(11) 0.7873(8)
C8_2 C 0.7225(11) 0.1998(11) 0.7215(8)
C9_2 C 0.6501(9) 0.2789(11) 0.7122(8)
C10_2 C 0.6428(10) 0.3362(11) 0.7703(8)
C11_2 C 0.7075(10) 0.3168(12) 0.8365(8)
C12_2 C 0.7773(10) 0.2362(12) 0.8452(8)
H1_2 H 0.3073(9) 0.5873(11) 0.6315(8)
H2_2 H 0.1838(10) 0.7139(12) 0.6169(8)
H3_2 H 0.2242(10) 0.2772(12) 0.6755(9)
H4_2 H 0.3988(9) 0.6525(12) 0.8385(8)
H5_2 H 0.7283(11) 0.1620(11) 0.6824(8)
H6_2 H 0.6075(9) 0.2925(11) 0.6674(8)
H7_2 H 0.7040(10) 0.3584(12) 0.8754(8)
H8_2 H 0.8193(10) 0.2214(12) 0.8902(8)
C25_2 C 0.2201(10) 0.7608(11) 0.7196(8)
C26_2 C 0.2728(10) 0.2020(12) 0.8385(8)
C27_2 C 0.1450(9) 0.1630(12) 0.7061(8)
C28_2 C 0.2820(10) 0.7401(12) 0.7854(9)
C33_2 C 0.7151(10) 0.6775(11) 0.7127(8)
C34_2 C 0.7775(11) 0.6998(11) 0.7785(8)
C35_2 C 0.8499(9) 0.7789(11) 0.7878(8)
C36_2 C 0.8572(10) 0.8362(11) 0.7297(8)
C37_2 C 0.7925(10) 0.8168(12) 0.6635(8)
C38_2 C 0.7227(10) 0.7362(12) 0.6548(8)
H17_2 H 0.7717(11) 0.6620(11) 0.8176(8)
H18_2 H 0.8925(9) 0.7925(11) 0.8326(8)
H19_2 H 0.7960(10) 0.8584(12) 0.6246(8)
H20_2 H 0.6807(10) 0.7214(12) 0.6098(8)
C41 C 0.5838(9) 0.9156(11) 0.7542(7)
C42 C 0.5015(10) 0.8536(12) 0.7209(8)
C43 C 0.4235(10) 0.9119(11) 0.7141(7)
H22 H 0.6371(9) 0.8796(11) 0.7564(7)
H23 H 0.3697(10) 0.8719(11) 0.6897(7)
O15_2 O 0.1476(6) 0.8350(7) 0.7119(5)
C45_2 C 0.1992(9) 0.1241(11) 0.8294(8)
H25_2 H 0.3162(10) 0.2139(12) 0.8831(8)
C46_2 C 0.1374(10) 0.1022(11) 0.7635(8)
H26_2 H 0.1012(9) 0.1525(12) 0.6615(8)
H27_2 H 0.2758(10) 0.7772(12) 0.8245(9)
H32_2 H 0.1927(9) 0.0873(11) 0.8685(8)
H37_3 H 0.46697 0.274564 0.665862
H38_3 H 0.384132 0.370885 0.646851
C43_2 C 0.0765(10) 0.4119(11) 0.7859(7)
C44_2 C 0.0780(11) 0.5282(12) 0.7576(8)
H23_2 H 0.1303(10) 0.3719(11) 0.8103(7)
H24_2 H 0.1318(11) 0.5659(12) 0.7623(8)
O5_4 O 0.0848(6) 0.8007(7) 0.8222(4)
H37_4 H 0.0330299 0.774564 0.834138
H38_4 H 0.115868 0.870885 0.853149
O13_2 O 0.9938(6) 0.7017(7) 0.6900(5)
C39_2 C 0.9961(9) 0.5886(11) 0.7213(7)
C40_2 C 0.9173(11) 0.5327(11) 0.7160(7)
C41_2 C 0.9162(9) 0.4156(11) 0.7458(7)
C42_2 C 0.9985(10) 0.3536(12) 0.7791(8)
H21_2 H 0.8637(11) 0.5734(11) 0.6923(7)
H22_2 H 0.8629(9) 0.3796(11) 0.7436(7)
loop_
_geom_bond_atom_site_label_1
_geom_bond_atom_site_label_2
_geom_bond_site_symmetry_1
_geom_bond_site_symmetry_2
O9 C16 1_555 1_555
C15 C16 1_555 1_555
C16 C17 1_555 1_555
H10 C15 1_555 1_555
H11 C17 1_555 1_555
Ti7 O9 1_555 1_555
O16 Ti7 1_555 1_555
O17 Ti7 1_555 1_555
O18 Ti7 1_555 1_555
O19 Ti7 1_555 1_555
O20 Ti7 1_555 1_555
Ti1 O1 1_555 1_555
O1 C13 1_555 1_555
O16 Ti1 1_555 1_555
O3 Ti1 1_555 1_555
O17 Ti1 1_555 1_555
O5 Ti1 1_555 1_555
O6 Ti1 1_555 1_555
O8 C7 1_555 1_555
C1 O16 1_555 1_555
C2 C1 1_555 1_555
C3 C2 1_555 1_555
C4 O6 1_555 1_555
C5 C4 1_555 1_555
C6 C1 1_555 1_555
C7 C8 1_555 1_555
C8 C9 1_555 1_555
C9 C10 1_555 1_555
C10 O17 1_555 1_555
C11 C10 1_555 1_555
C12 C7 1_555 1_555
C13 C14 1_555 1_555
C18 C13 1_555 1_555
C19 O3 1_555 1_555
C20 C19 1_555 1_555
C21 C19 1_555 1_555
C22 O20 1_555 1_555
C23 C22 1_555 1_555
C24 C22 1_555 1_555
H1 C2 1_555 1_555
H2 C3 1_555 1_555
H3 C5 1_555 1_555
H4 C6 1_555 1_555
H5 C8 1_555 1_555
H6 C9 1_555 1_555
H7 C11 1_555 1_555
H8 C12 1_555 1_555
H9 C14 1_555 1_555
H12 C18 1_555 1_555
H13 C20 1_555 1_555
H14 C21 1_555 1_555
H15 C23 1_555 1_555
H16 C24 1_555 1_555
C25 C3 1_555 1_555
C26 C4 1_555 1_555
C27 C5 1_555 1_555
C28 C6 1_555 1_555
C31 C23 1_555 1_555
C32 C24 1_555 1_555
O11 C36 1_555 1_555
C33 O19 1_555 1_555
C34 C33 1_555 1_555
C35 C34 1_555 1_555
C36 C35 1_555 1_555
C37 C36 1_555 1_555
C38 C33 1_555 1_555
H17 C34 1_555 1_555
H18 C35 1_555 1_555
H19 C37 1_555 1_555
H20 C38 1_555 1_555
Ti10 O8 1_555 1_555
O15 C25 1_555 1_555
C45 C26 1_555 1_555
H25 C26 1_555 1_555
C46 C27 1_555 1_555
H26 C27 1_555 1_555
H27 C28 1_555 1_555
C48 C31 1_555 1_555
H30 C31 1_555 1_555
H31 C32 1_555 1_555
Ti9 O15 1_555 1_555
H32 C45 1_555 1_555
O21 C46 1_555 1_555
O23 C48 1_555 1_555
Ti12 O23 1_555 1_555
O24 Ti12 1_555 1_555
O25 Ti12 1_555 1_555
O26 Ti12 1_555 1_555
O27 Ti12 1_555 1_555
O28 Ti12 1_555 1_555
C11 C12 1_555 1_555
C25 C28 1_555 1_555
C32 C48 1_555 1_555
C37 C38 1_555 1_555
C45 C46 1_555 1_555
O5 H37 1_555 1_555
O5 H38 1_555 1_555
C47 C29 1_555 1_555
H28 C29 1_555 1_555
H29 C30 1_555 1_555
O22 C47 1_555 1_555
Ti11 O22 1_555 1_555
C30 C47 1_555 1_555
O1_2 C13_2 1_555 1_555
O9_2 C16_2 1_555 1_555
C13_2 C14_2 1_555 1_555
C14_2 C15_2 1_555 1_555
C15_2 C16_2 1_555 1_555
C19_2 O3_2 1_555 1_555
C21_2 C19_2 1_555 1_555
H9_2 C14_2 1_555 1_555
H10_2 C15_2 1_555 1_555
H14_2 C21_2 1_555 1_555
Ti10 O9_2 1_555 1_555
O18_2 Ti10 1_555 1_555
O23_2 C48_2 1_555 1_555
H16_2 C24_2 1_555 1_555
H29_2 C30_2 1_555 1_555
H31_2 C32_2 1_555 1_555
O5_2 Ti9 1_555 1_555
C17_2 C18_2 1_555 1_555
H11_2 C17_2 1_555 1_555
H12_2 C18_2 1_555 1_555
H13_2 C20_2 1_555 1_555
H15_2 C23_2 1_555 1_555
O5_2 H37_2 1_555 1_555
O5_2 H38_2 1_555 1_555
H30_2 C31_2 1_555 1_555
O26_2 Ti12_2 1_555 1_555
O27_2 Ti12_2 1_555 1_555
O28_2 Ti12_2 1_555 1_555
C22_2 O20_2 1_555 1_555
C47_2 C29_2 1_555 1_555
H28_2 C29_2 1_555 1_555
O22_2 C47_2 1_555 1_555
Ti11 O13 1_555 1_555
O13 C39 1_555 1_555
C39 C40 1_555 1_555
C44 C39 1_555 1_555
H21 C40 1_555 1_555
H24 C44 1_555 1_555
O24 Ti11 1_555 1_555
O25 Ti11 1_555 1_555
O5_3 Ti11 1_555 1_555
O6_2 Ti11 1_555 1_555
O27_2 C7_2 1_555 1_555
C1_2 O24 1_555 1_555
C2_2 C1_2 1_555 1_555
C3_2 C2_2 1_555 1_555
C4_2 O6_2 1_555 1_555
C5_2 C4_2 1_555 1_555
C6_2 C1_2 1_555 1_555
C7_2 C8_2 1_555 1_555
C8_2 C9_2 1_555 1_555
C9_2 C10_2 1_555 1_555
C10_2 O25 1_555 1_555
C11_2 C10_2 1_555 1_555
C12_2 C7_2 1_555 1_555
H1_2 C2_2 1_555 1_555
H2_2 C3_2 1_555 1_555
H3_2 C5_2 1_555 1_555
H4_2 C6_2 1_555 1_555
H5_2 C8_2 1_555 1_555
H6_2 C9_2 1_555 1_555
H7_2 C11_2 1_555 1_555
H8_2 C12_2 1_555 1_555
C25_2 C3_2 1_555 1_555
C26_2 C4_2 1_555 1_555
C27_2 C5_2 1_555 1_555
C28_2 C6_2 1_555 1_555
O25_2 C36_2 1_555 1_555
C33_2 O27 1_555 1_555
C34_2 C33_2 1_555 1_555
C35_2 C34_2 1_555 1_555
C36_2 C35_2 1_555 1_555
C37_2 C36_2 1_555 1_555
C38_2 C33_2 1_555 1_555
H17_2 C34_2 1_555 1_555
H18_2 C35_2 1_555 1_555
H19_2 C37_2 1_555 1_555
H20_2 C38_2 1_555 1_555
C41 C42 1_555 1_555
C42 O28 1_555 1_555
C43 C42 1_555 1_555
H22 C41 1_555 1_555
H23 C43 1_555 1_555
O15_2 C25_2 1_555 1_555
C45_2 C26_2 1_555 1_555
H25_2 C26_2 1_555 1_555
C46_2 C27_2 1_555 1_555
H26_2 C27_2 1_555 1_555
H27_2 C28_2 1_555 1_555
Ti11_2 O15_2 1_555 1_555
H32_2 C45_2 1_555 1_555
O24_2 C46_2 1_555 1_555
C11_2 C12_2 1_555 1_555
C25_2 C28_2 1_555 1_555
C37_2 C38_2 1_555 1_555
C45_2 C46_2 1_555 1_555
O5_3 H37_3 1_555 1_555
O5_3 H38_3 1_555 1_555
H23_2 C43_2 1_555 1_555
H24_2 C44_2 1_555 1_555
C43_2 C44_2 1_555 1_555
O5_4 Ti11_2 1_555 1_555
O5_4 H37_4 1_555 1_555
O5_4 H38_4 1_555 1_555
O13_2 C39_2 1_555 1_555
C39_2 C40_2 1_555 1_555
C40_2 C41_2 1_555 1_555
C41_2 C42_2 1_555 1_555
C42_2 O28_2 1_555 1_555
H21_2 C40_2 1_555 1_555
H22_2 C41_2 1_555 1_555

#END
