
###############################################################################
#
# This file contains modified crystal structure data generated from the
# MOF subset of the Cambridge Structural Database (CSD) v543 
# hosted by the Cambridge Crystallographic Data Centre (CCDC).
#
# This work is licensed under the Creative Commons
# Attribution-NonCommercial-ShareAlike 4.0 International License.
# To view a copy of this license, visit
# http://creativecommons.org/licenses/by-nc-sa/4.0/
# or send a letter to
# Creative Commons, PO Box 1866, Mountain View, CA 94042, USA.
#
# CIF created using the CSD Python API on 29 September 2022
# The structure has been converted into the P1 space group
# The structure has a 3D framework
# The original CSD entry MAPHAP is in the triclinic crystal system
# The framework has been calculated to contain at least 10.0% void space
# The void calculation uses a probe of radius 1.32A, grid spacing 0.4
#
###############################################################################

data_MAPHAP
_chemical_formula_moiety         '(C36 H26 O15 Yb2)n'
_symmetry_cell_setting           triclinic
_symmetry_space_group_name_H-M   'P 1'
_symmetry_Int_Tables_number      1
_space_group_name_Hall           'P 1'
loop_
_symmetry_equiv_pos_site_id
_symmetry_equiv_pos_as_xyz
1 x,y,z
_cell_length_a                   8.4515(2)
_cell_length_b                   12.3972(4)
_cell_length_c                   12.5680(3)
_cell_angle_alpha                110.453(2)
_cell_angle_beta                 102.132(2)
_cell_angle_gamma                109.619(3)
_cell_volume                     1079.2
loop_
_atom_site_label
_atom_site_type_symbol
_atom_site_fract_x
_atom_site_fract_y
_atom_site_fract_z
_atom_site_U_iso_or_equiv
_atom_site_thermal_displace_type
O9 O 0.1390(4) 0.2661(3) 0.6073(3) 0.0293 Uani
Yb6 Yb 0.29403(2) 0.45853(2) 0.59639(2) 0.0187 Uani
C17 C 0.0913(6) 0.0235(4) 0.0044(4) 0.0309 Uani
C18 C 0.2265(6) 0.1270(4) 0.1167(4) 0.0323 Uani
H9 H 0.3492 0.1608 0.1239 0.0390 Uiso
O13 O 0.2835(4) 0.3270(3) 0.4216(3) 0.0305 Uani
O14 O 0.4840(4) 0.3415(3) 0.3322(3) 0.0317 Uani
C31 C 0.3285(6) 0.2914(4) 0.3315(3) 0.0235 Uani
C32 C 0.1821(6) 0.1790(4) 0.2149(4) 0.0242 Uani
C33 C 0.0003(7) 0.1342(5) 0.2039(4) 0.0428 Uani
Yb3 Yb 0.70597(2) 0.54147(2) 0.40361(2) 0.0187 Uani
O1 O 0.8610(4) 0.7339(3) 0.3927(3) 0.0293 Uani
O3 O 0.5503(4) 0.4915(3) 0.2010(2) 0.0272 Uani
O4 O 0.4408(4) 0.5666(3) 0.3389(2) 0.0247 Uani
C7 C 0.4301(5) 0.5213(4) 0.2275(3) 0.0226 Uani
C8 C 0.2759(5) 0.5035(4) 0.1282(4) 0.0256 Uani
C9 C 0.2617(6) 0.4449(5) 0.0057(4) 0.0314 Uani
O5 O 0.7165(4) 0.6730(3) 0.5784(3) 0.0305 Uani
O6 O 0.5160(4) 0.6585(3) 0.6678(3) 0.0317 Uani
C13 C 0.6715(6) 0.7086(4) 0.6685(3) 0.0235 Uani
C14 C 0.8179(6) 0.8210(4) 0.7851(4) 0.0242 Uani
C15 C 0.9997(7) 0.8658(5) 0.7961(4) 0.0428 Uani
O7 O 0.8255(4) 0.4205(3) 0.2988(3) 0.0316 Uani
H10 H 0.9388 0.4496 0.3428 0.0470 Uiso
H11 H 0.8172 0.4250 0.2305 0.0470 Uiso
O8 O 0.8045(4) 0.4763(3) 0.5504(2) 0.0225 Uani
H12 H 0.7301 0.4673 0.5898 0.0340 Uiso
H13 H 0.8296 0.4163 0.5178 0.0340 Uiso
C29 C 0.0074(5) 0.5295(4) 0.0617(3) 0.0239 Uani
C30 C 0.1507(5) 0.5455(4) 0.1558(3) 0.0263 Uani
H19 H 0.1614 0.5852 0.2384 0.0310 Uiso
C35 C 0.9087(6) 0.9765(4) 0.9956(4) 0.0309 Uani
C36 C 0.7735(6) 0.8730(4) 0.8833(4) 0.0323 Uani
H22 H 0.6508 0.8392 0.8761 0.0390 Uiso
C11 C 0.9926(5) 0.4705(4) 0.9383(3) 0.0239 Uani
C12 C 0.8493(5) 0.4545(4) 0.8442(3) 0.0263 Uani
H6 H 0.8386 0.4148 0.7616 0.0310 Uiso
O11 O 0.4497(4) 0.5085(3) 0.7990(2) 0.0272 Uani
O12 O 0.5592(4) 0.4334(3) 0.6611(2) 0.0247 Uani
C25 C 0.5699(5) 0.4787(4) 0.7725(3) 0.0226 Uani
C26 C 0.7241(5) 0.4965(4) 0.8718(4) 0.0256 Uani
C27 C 0.7383(6) 0.5551(5) 0.9943(4) 0.0314 Uani
O15 O 0.1745(4) 0.5795(3) 0.7012(3) 0.0316 Uani
H23 H 0.0612 0.5504 0.6572 0.0470 Uiso
H24 H 0.1828 0.5750 0.7695 0.0470 Uiso
O16 O 0.1955(4) 0.5237(3) 0.4496(2) 0.0225 Uani
H25 H 0.2699 0.5327 0.4102 0.0340 Uiso
H26 H 0.1704 0.5837 0.4822 0.0340 Uiso
C4 C 0.3230(5) 0.0492(4) 0.4484(4) 0.0276 Uani
H2 H 0.3149 0.1167 0.4318 0.0330 Uiso
C5 C 0.4934(6) 0.0494(4) 0.4863(4) 0.0252 Uani
C6 C 0.6534(6) 0.1466(4) 0.4969(4) 0.0269 Uani
H3 H 0.6464 0.2122 0.4764 0.0320 Uiso
O10 O 0.9718(4) 0.3283(3) 0.5068(3) 0.0258 Uani
C19 C 0.9857(6) 0.2511(4) 0.5500(4) 0.0246 Uani
C20 C 0.8177(5) 0.1471(4) 0.5362(4) 0.0248 Uani
C21 C 0.8306(6) 0.0479(4) 0.5644(4) 0.0278 Uani
H14 H 0.9449 0.0489 0.5919 0.0330 Uiso
H20 H 0.9700 0.1717 0.2717 0.0510 Uiso
C34 C 0.8681(6) 0.0378(5) 0.0968(4) 0.0446 Uani
H21 H 0.7454 0.0108 0.0897 0.0530 Uiso
O2 O 0.0282(4) 0.6717(3) 0.4932(3) 0.0258 Uani
C1 C 0.0143(6) 0.7489(4) 0.4500(4) 0.0246 Uani
C2 C 0.1823(5) 0.8529(4) 0.4638(4) 0.0248 Uani
C3 C 0.1694(6) 0.9521(4) 0.4356(4) 0.0278 Uani
H1 H 0.0551 0.9511 0.4081 0.0330 Uiso
H7 H 0.0300 0.8283 0.7283 0.0510 Uiso
C16 C 0.1319(6) 0.9622(5) 0.9032(4) 0.0446 Uani
H8 H 0.2546 0.9892 0.9103 0.0530 Uiso
C22 C 0.6770(5) 0.9508(4) 0.5516(4) 0.0276 Uani
H15 H 0.6851 0.8833 0.5682 0.0330 Uiso
C23 C 0.5066(6) 0.9506(4) 0.5137(4) 0.0252 Uani
C24 C 0.3466(6) 0.8534(4) 0.5031(4) 0.0269 Uani
H16 H 0.3536 0.7878 0.5236 0.0320 Uiso
H4 H 0.3489 0.4167 0.9878 0.0380 Uiso
C10 C 0.1234(6) 0.4283(5) 0.9124(4) 0.0325 Uani
H5 H 0.1149 0.3886 0.8303 0.0390 Uiso
H17 H 0.6511 0.5833 0.0122 0.0380 Uiso
C28 C 0.8766(6) 0.5717(5) 0.0876(4) 0.0325 Uani
H18 H 0.8851 0.6114 0.1697 0.0390 Uiso
loop_
_atom_site_aniso_label
_atom_site_aniso_U_11
_atom_site_aniso_U_22
_atom_site_aniso_U_33
_atom_site_aniso_U_23
_atom_site_aniso_U_13
_atom_site_aniso_U_12
O9 0.0193 0.032 0.0393 0.0206 0.011 0.0098
Yb6 0.01032 0.02119 0.01967 0.00692 0.00429 0.00499
C17 0.017 0.031 0.025 0.0021 0.0072 0.0008
C18 0.0187 0.036 0.0231 0.0036 0.007 0.0023
O13 0.0285 0.0348 0.0221 0.0061 0.0063 0.0164
O14 0.0199 0.0261 0.0317 0.0076 0.0016 0.0019
C31 0.0193 0.018 0.0238 0.0057 0.002 0.0058
C32 0.0143 0.0236 0.0206 0.003 0.0012 0.0035
C33 0.027 0.044 0.032 -0.001 0.0132 0.006
Yb3 0.01032 0.02119 0.01967 0.00692 0.00429 0.00499
O1 0.0193 0.032 0.0393 0.0206 0.011 0.0098
O3 0.0182 0.0438 0.0243 0.0167 0.0094 0.0169
O4 0.0164 0.0331 0.0224 0.01 0.0074 0.0112
C7 0.0109 0.0306 0.0232 0.0123 0.003 0.0079
C8 0.0144 0.037 0.0236 0.0127 0.0047 0.0121
C9 0.02 0.051 0.0268 0.0165 0.0089 0.0211
O5 0.0285 0.0348 0.0221 0.0061 0.0063 0.0164
O6 0.0199 0.0261 0.0317 0.0076 0.0016 0.0019
C13 0.0193 0.018 0.0238 0.0057 0.002 0.0058
C14 0.0143 0.0236 0.0206 0.003 0.0012 0.0035
C15 0.027 0.044 0.032 -0.001 0.0132 0.006
O7 0.019 0.0409 0.0237 0.0042 0.0047 0.0142
O8 0.0162 0.0262 0.0249 0.0116 0.0096 0.0082
C29 0.0138 0.0334 0.0196 0.0091 0.0033 0.0102
C30 0.0191 0.037 0.0173 0.0079 0.0032 0.0135
C35 0.017 0.031 0.025 0.0021 0.0072 0.0008
C36 0.0187 0.036 0.0231 0.0036 0.007 0.0023
C11 0.0138 0.0334 0.0196 0.0091 0.0033 0.0102
C12 0.0191 0.037 0.0173 0.0079 0.0032 0.0135
O11 0.0182 0.0438 0.0243 0.0167 0.0094 0.0169
O12 0.0164 0.0331 0.0224 0.01 0.0074 0.0112
C25 0.0109 0.0306 0.0232 0.0123 0.003 0.0079
C26 0.0144 0.037 0.0236 0.0127 0.0047 0.0121
C27 0.02 0.051 0.0268 0.0165 0.0089 0.0211
O15 0.019 0.0409 0.0237 0.0042 0.0047 0.0142
O16 0.0162 0.0262 0.0249 0.0116 0.0096 0.0082
C4 0.0191 0.0263 0.038 0.0167 0.0091 0.0096
C5 0.0197 0.0257 0.0314 0.0132 0.0112 0.0101
C6 0.02 0.0248 0.0341 0.0127 0.01 0.0088
O10 0.0152 0.0259 0.0347 0.0144 0.0088 0.0072
C19 0.0183 0.0291 0.0289 0.014 0.0118 0.0106
C20 0.0167 0.0262 0.0305 0.012 0.011 0.0082
C21 0.0161 0.0314 0.037 0.0168 0.0097 0.0108
C34 0.018 0.051 0.037 0.001 0.0119 0.004
O2 0.0152 0.0259 0.0347 0.0144 0.0088 0.0072
C1 0.0183 0.0291 0.0289 0.014 0.0118 0.0106
C2 0.0167 0.0262 0.0305 0.012 0.011 0.0082
C3 0.0161 0.0314 0.037 0.0168 0.0097 0.0108
C16 0.018 0.051 0.037 0.001 0.0119 0.004
C22 0.0191 0.0263 0.038 0.0167 0.0091 0.0096
C23 0.0197 0.0257 0.0314 0.0132 0.0112 0.0101
C24 0.02 0.0248 0.0341 0.0127 0.01 0.0088
C10 0.023 0.055 0.024 0.0157 0.0101 0.024
C28 0.023 0.055 0.024 0.0157 0.0101 0.024
loop_
_geom_bond_atom_site_label_1
_geom_bond_atom_site_label_2
_geom_bond_site_symmetry_1
_geom_bond_site_symmetry_2
Yb6 O9 1_555 1_555
C18 C17 1_555 1_555
H9 C18 1_555 1_555
O13 C31 1_555 1_555
O14 C31 1_555 1_555
C31 C32 1_555 1_555
C32 C18 1_555 1_555
C33 C32 1_555 1_555
Yb3 O14 1_555 1_555
Yb6 O13 1_555 1_555
Yb3 O1 1_555 1_555
O3 Yb3 1_555 1_555
O4 Yb3 1_555 1_555
C7 O3 1_555 1_555
C8 C7 1_555 1_555
C9 C8 1_555 1_555
O5 Yb3 1_555 1_555
O6 C13 1_555 1_555
C13 O5 1_555 1_555
C14 C13 1_555 1_555
C15 C14 1_555 1_555
O7 Yb3 1_555 1_555
H10 O7 1_555 1_555
H11 O7 1_555 1_555
O8 Yb3 1_555 1_555
H12 O8 1_555 1_555
H13 O8 1_555 1_555
C30 C8 1_555 1_555
H19 C30 1_555 1_555
C36 C14 1_555 1_555
H22 C36 1_555 1_555
Yb6 O6 1_555 1_555
O4 C7 1_555 1_555
C29 C30 1_555 1_555
C35 C36 1_555 1_555
C12 C11 1_555 1_555
H6 C12 1_555 1_555
O11 C25 1_555 1_555
O12 C25 1_555 1_555
C25 C26 1_555 1_555
C26 C12 1_555 1_555
C27 C26 1_555 1_555
Yb6 O11 1_555 1_555
O15 Yb6 1_555 1_555
H23 O15 1_555 1_555
H24 O15 1_555 1_555
O16 Yb6 1_555 1_555
H25 O16 1_555 1_555
H26 O16 1_555 1_555
O12 Yb6 1_555 1_555
H2 C4 1_555 1_555
C5 C4 1_555 1_555
C6 C5 1_555 1_555
H3 C6 1_555 1_555
O10 C19 1_555 1_555
C19 C20 1_555 1_555
C20 C6 1_555 1_555
C21 C20 1_555 1_555
H14 C21 1_555 1_555
H21 C34 1_555 1_555
C1 O2 1_555 1_555
C2 C1 1_555 1_555
C3 C2 1_555 1_555
H1 C3 1_555 1_555
H8 C16 1_555 1_555
H15 C22 1_555 1_555
C24 C2 1_555 1_555
H16 C24 1_555 1_555
C22 C23 1_555 1_555
C23 C24 1_555 1_555
H5 C10 1_555 1_555
H18 C28 1_555 1_555

#END
