
###############################################################################
#
# This file contains modified crystal structure data generated from the
# MOF subset of the Cambridge Structural Database (CSD) v543 
# hosted by the Cambridge Crystallographic Data Centre (CCDC).
#
# This work is licensed under the Creative Commons
# Attribution-NonCommercial-ShareAlike 4.0 International License.
# To view a copy of this license, visit
# http://creativecommons.org/licenses/by-nc-sa/4.0/
# or send a letter to
# Creative Commons, PO Box 1866, Mountain View, CA 94042, USA.
#
# CIF created using the CSD Python API on 29 September 2022
# The structure has been converted into the P1 space group
# The structure has a 3D framework
# The original CSD entry MARBIT is in the trigonal crystal system
# The framework has been calculated to contain at least 10.0% void space
# The void calculation uses a probe of radius 1.32A, grid spacing 0.4
#
###############################################################################

data_MARBIT
_chemical_formula_moiety         '(C54 H24 Gd2 N12 O24)n'
_symmetry_cell_setting           triclinic
_symmetry_space_group_name_H-M   'P 1'
_symmetry_Int_Tables_number      1
_space_group_name_Hall           'P 1'
loop_
_symmetry_equiv_pos_site_id
_symmetry_equiv_pos_as_xyz
1 x,y,z
_cell_length_a                   12.8322(3)
_cell_length_b                   12.8322(3)
_cell_length_c                   15.8830(6)
_cell_angle_alpha                90
_cell_angle_beta                 90
_cell_angle_gamma                120
_cell_volume                     2264.99
loop_
_atom_site_label
_atom_site_type_symbol
_atom_site_fract_x
_atom_site_fract_y
_atom_site_fract_z
C10 C 0.1174(6) 0.0557(10) 0.1756(7)
C11 C 0.3167(6) 0.0713(8) 0.1789(5)
C15 C 0.4926(6) 0.0617(8) 0.1351(4)
C16 C 0.4118(6) 0.1043(8) 0.1227(5)
H7 H 0.4217 0.1541 0.0772
C18 C 0.5949(6) 0.0934(8) 0.0743(4)
N3 N 0.0631(8) 0.1246(11) 0.1756(6)
N4 N 0.2398(4) 0.1190(6) 0.1676(4)
H8 H 0.2725 0.1939 0.1547
O7 O 0.6500(5) 0.0366(8) 0.0793(5)
O8 O 0.6186(5) 0.1759(7) 0.0221(3)
C21 C 0.0031(9) 0.3045(7) 0.2451(5)
H9 H 0.0238 0.2621 0.2826
C22 C 0.0480(11) 0.4262(7) 0.2572(5)
C23 C 0.0156(8) 0.4901(5) 0.2011(4)
H10 H 0.0462 0.5722 0.2085
C26 C 0.1312(11) 0.4965(8) 0.3286(5)
O9 O 0.1526(7) 0.4420(5) 0.3858(3)
O10 O 0.1783(8) 0.6087(5) 0.3275(3)
Gd3 Gd 0.3333 0.6667 0.42989(6)
Gd6 Gd 0.6667 0.3333 0.92989(6)
N1 N 0.0615(8) 0.9369(8) 0.1756(6)
C12 C 0.3014(6) 0.9969(9) 0.2451(5)
H5 H 0.2383 0.9762 0.2826
C13 C 0.3782(8) 0.9520(11) 0.2572(5)
C14 C 0.4745(6) 0.9844(8) 0.2011(4)
H6 H 0.5260 0.9538 0.2085
C17 C 0.3653(7) 0.8688(11) 0.3286(5)
O5 O 0.2894(5) 0.8474(7) 0.3858(3)
O6 O 0.4304(6) 0.8217(8) 0.3275(3)
C19 C 0.9443(10) 0.0617(8) 0.1756(7)
C20 C 0.9287(8) 0.2454(6) 0.1789(5)
C24 C 0.9383(8) 0.4309(5) 0.1351(4)
C25 C 0.8957(8) 0.3075(6) 0.1227(5)
H11 H 0.8459 0.2676 0.0772
C27 C 0.9066(8) 0.5015(6) 0.0743(4)
N6 N 0.8810(6) 0.1208(5) 0.1676(4)
H12 H 0.8061 0.0786 0.1547
O11 O 0.9634(8) 0.6134(6) 0.0793(5)
O12 O 0.8241(7) 0.4427(5) 0.0221(3)
C1 C 0.9383(8) 0.8826(6) 0.1756(7)
C2 C 0.7546(6) 0.6833(6) 0.1789(5)
C3 C 0.6955(7) 0.6986(6) 0.2451(5)
H1 H 0.7379 0.7617 0.2826
C4 C 0.5738(7) 0.6218(8) 0.2572(5)
C5 C 0.5099(5) 0.5255(6) 0.2011(4)
H2 H 0.4278 0.4740 0.2085
C6 C 0.5691(5) 0.5074(6) 0.1351(4)
C7 C 0.6925(6) 0.5882(6) 0.1227(5)
H3 H 0.7324 0.5783 0.0772
C8 C 0.5035(8) 0.6347(7) 0.3286(5)
C9 C 0.4985(6) 0.4051(6) 0.0743(4)
N2 N 0.8792(5) 0.7602(4) 0.1676(4)
H4 H 0.9214 0.7275 0.1547
O1 O 0.5580(5) 0.7106(5) 0.3858(3)
O2 O 0.3913(5) 0.5696(6) 0.3275(3)
O3 O 0.3866(6) 0.3500(5) 0.0793(5)
O4 O 0.5573(5) 0.3814(5) 0.0221(3)
N5 N 0.8754(11) 0.9385(8) 0.1756(6)
O17 O 0.3814(5) 0.5573(5) 0.5221(3)
O18 O 0.1759(7) 0.6186(5) 0.5221(3)
O19 O 0.4427(5) 0.8241(7) 0.5221(3)
C10_2 C 0.0557(10) 0.1174(6) 0.6756(7)
C11_2 C 0.0713(8) 0.3167(6) 0.6789(5)
C15_2 C 0.0617(8) 0.4926(6) 0.6351(4)
C16_2 C 0.1043(8) 0.4118(6) 0.6227(5)
H7_2 H 0.1541 0.4217 0.5772
C18_2 C 0.0934(8) 0.5949(6) 0.5743(4)
N3_2 N 0.1246(11) 0.0631(8) 0.6756(6)
N4_2 N 0.1190(6) 0.2398(4) 0.6676(4)
H8_2 H 0.1939 0.2725 0.6547
O7_2 O 0.0366(8) 0.6500(5) 0.5793(5)
C21_2 C 0.3045(7) 0.0031(9) 0.7451(5)
H9_2 H 0.2621 0.0238 0.7826
C22_2 C 0.4262(7) 0.0480(11) 0.7572(5)
C23_2 C 0.4901(5) 0.0156(8) 0.7011(4)
H10_2 H 0.5722 0.0462 0.7085
C26_2 C 0.4965(8) 0.1312(11) 0.8286(5)
O9_2 O 0.4420(5) 0.1526(7) 0.8858(3)
O10_2 O 0.6087(5) 0.1783(8) 0.8275(3)
C19_2 C 0.0617(8) 0.9443(10) 0.6756(7)
C20_2 C 0.2454(6) 0.9287(8) 0.6789(5)
C24_2 C 0.4309(5) 0.9383(8) 0.6351(4)
C25_2 C 0.3075(6) 0.8957(8) 0.6227(5)
H11_2 H 0.2676 0.8459 0.5772
C27_2 C 0.5015(6) 0.9066(8) 0.5743(4)
N6_2 N 0.1208(5) 0.8810(6) 0.6676(4)
H12_2 H 0.0786 0.8061 0.6547
O11_2 O 0.6134(6) 0.9634(8) 0.5793(5)
N1_2 N 0.9369(8) 0.0615(8) 0.6756(6)
C12_2 C 0.9969(9) 0.3014(6) 0.7451(5)
H5_2 H 0.9762 0.2383 0.7826
C13_2 C 0.9520(11) 0.3782(8) 0.7572(5)
C14_2 C 0.9844(8) 0.4745(6) 0.7011(4)
H6_2 H 0.9538 0.5260 0.7085
C17_2 C 0.8688(11) 0.3653(7) 0.8286(5)
O5_2 O 0.8474(7) 0.2894(5) 0.8858(3)
O6_2 O 0.8217(8) 0.4304(6) 0.8275(3)
C1_2 C 0.8826(6) 0.9383(8) 0.6756(7)
C2_2 C 0.6833(6) 0.7546(6) 0.6789(5)
C3_2 C 0.6986(6) 0.6955(7) 0.7451(5)
H1_2 H 0.7617 0.7379 0.7826
C4_2 C 0.6218(8) 0.5738(7) 0.7572(5)
C5_2 C 0.5255(6) 0.5099(5) 0.7011(4)
H2_2 H 0.4740 0.4278 0.7085
C6_2 C 0.5074(6) 0.5691(5) 0.6351(4)
C7_2 C 0.5882(6) 0.6925(6) 0.6227(5)
H3_2 H 0.5783 0.7324 0.5772
C8_2 C 0.6347(7) 0.5035(8) 0.8286(5)
C9_2 C 0.4051(6) 0.4985(6) 0.5743(4)
N2_2 N 0.7602(4) 0.8792(5) 0.6676(4)
H4_2 H 0.7275 0.9214 0.6547
O1_2 O 0.7106(5) 0.5580(5) 0.8858(3)
O2_2 O 0.5696(6) 0.3913(5) 0.8275(3)
O3_2 O 0.3500(5) 0.3866(6) 0.5793(5)
N5_2 N 0.9385(8) 0.8754(11) 0.6756(6)
loop_
_geom_bond_atom_site_label_1
_geom_bond_atom_site_label_2
_geom_bond_site_symmetry_1
_geom_bond_site_symmetry_2
C10 N3 1_555 1_555
C16 C11 1_555 1_555
H7 C16 1_555 1_555
C18 C15 1_555 1_555
N4 C10 1_555 1_555
H8 N4 1_555 1_555
O7 C18 1_555 1_555
O8 C18 1_555 1_555
C21 H9 1_555 1_555
C22 C21 1_555 1_555
C23 C22 1_555 1_555
H10 C23 1_555 1_555
C26 C22 1_555 1_555
O9 C26 1_555 1_555
O10 C26 1_555 1_555
Gd3 O9 1_555 1_555
C11 N4 1_555 1_555
C15 C16 1_555 1_555
O10 Gd3 1_555 1_555
C12 H5 1_555 1_555
C13 C12 1_555 1_555
C14 C13 1_555 1_555
H6 C14 1_555 1_555
C17 C13 1_555 1_555
O5 C17 1_555 1_555
O6 C17 1_555 1_555
Gd3 O5 1_555 1_555
O6 Gd3 1_555 1_555
C25 C20 1_555 1_555
H11 C25 1_555 1_555
C27 C24 1_555 1_555
N6 C19 1_555 1_555
H12 N6 1_555 1_555
O11 C27 1_555 1_555
O12 C27 1_555 1_555
C20 N6 1_555 1_555
C24 C25 1_555 1_555
Gd3 O1 1_555 1_555
C2 C3 1_555 1_555
C3 H1 1_555 1_555
C4 C3 1_555 1_555
C5 C4 1_555 1_555
H2 C5 1_555 1_555
C6 C5 1_555 1_555
C7 C2 1_555 1_555
H3 C7 1_555 1_555
C8 C4 1_555 1_555
C9 C6 1_555 1_555
N2 C1 1_555 1_555
H4 N2 1_555 1_555
O1 C8 1_555 1_555
O2 Gd3 1_555 1_555
O3 C9 1_555 1_555
O4 C9 1_555 1_555
N5 C1 1_555 1_555
O17 Gd3 1_555 1_555
O18 Gd3 1_555 1_555
O19 Gd3 1_555 1_555
C2 N2 1_555 1_555
C6 C7 1_555 1_555
C8 O2 1_555 1_555
C10_2 N3_2 1_555 1_555
C16_2 C11_2 1_555 1_555
H7_2 C16_2 1_555 1_555
C18_2 C15_2 1_555 1_555
N4_2 C10_2 1_555 1_555
H8_2 N4_2 1_555 1_555
O7_2 C18_2 1_555 1_555
O18 C18_2 1_555 1_555
C21_2 H9_2 1_555 1_555
C22_2 C21_2 1_555 1_555
C23_2 C22_2 1_555 1_555
H10_2 C23_2 1_555 1_555
C26_2 C22_2 1_555 1_555
O9_2 C26_2 1_555 1_555
O10_2 C26_2 1_555 1_555
Gd6 O9_2 1_555 1_555
C11_2 N4_2 1_555 1_555
C15_2 C16_2 1_555 1_555
O10_2 Gd6 1_555 1_555
C25_2 C20_2 1_555 1_555
H11_2 C25_2 1_555 1_555
C27_2 C24_2 1_555 1_555
N6_2 C19_2 1_555 1_555
H12_2 N6_2 1_555 1_555
O11_2 C27_2 1_555 1_555
O19 C27_2 1_555 1_555
C20_2 N6_2 1_555 1_555
C24_2 C25_2 1_555 1_555
C12_2 H5_2 1_555 1_555
C13_2 C12_2 1_555 1_555
C14_2 C13_2 1_555 1_555
H6_2 C14_2 1_555 1_555
C17_2 C13_2 1_555 1_555
O5_2 C17_2 1_555 1_555
O6_2 C17_2 1_555 1_555
Gd6 O5_2 1_555 1_555
O6_2 Gd6 1_555 1_555
Gd6 O1_2 1_555 1_555
C2_2 C3_2 1_555 1_555
C3_2 H1_2 1_555 1_555
C4_2 C3_2 1_555 1_555
C5_2 C4_2 1_555 1_555
H2_2 C5_2 1_555 1_555
C6_2 C5_2 1_555 1_555
C7_2 C2_2 1_555 1_555
H3_2 C7_2 1_555 1_555
C8_2 C4_2 1_555 1_555
C9_2 C6_2 1_555 1_555
N2_2 C1_2 1_555 1_555
H4_2 N2_2 1_555 1_555
O1_2 C8_2 1_555 1_555
O2_2 Gd6 1_555 1_555
O3_2 C9_2 1_555 1_555
O17 C9_2 1_555 1_555
N5_2 C1_2 1_555 1_555
C2_2 N2_2 1_555 1_555
C6_2 C7_2 1_555 1_555
C8_2 O2_2 1_555 1_555

#END
