
###############################################################################
#
# This file contains modified crystal structure data generated from the
# MOF subset of the Cambridge Structural Database (CSD) v543 
# hosted by the Cambridge Crystallographic Data Centre (CCDC).
#
# This work is licensed under the Creative Commons
# Attribution-NonCommercial-ShareAlike 4.0 International License.
# To view a copy of this license, visit
# http://creativecommons.org/licenses/by-nc-sa/4.0/
# or send a letter to
# Creative Commons, PO Box 1866, Mountain View, CA 94042, USA.
#
# CIF created using the CSD Python API on 29 September 2022
# The structure has been converted into the P1 space group
# The structure has a 3D framework
# The original CSD entry MARBOA is in the trigonal crystal system
# The original CSD entry MARBOA is in a Sohncke space group
# The framework has been calculated to contain at least 10.0% void space
# The void calculation uses a probe of radius 1.32A, grid spacing 0.4
#
###############################################################################

data_MARBOA
_chemical_formula_moiety         '(C78 H70 Cu10 N6 O34)n'
_symmetry_cell_setting           triclinic
_symmetry_space_group_name_H-M   'P 1'
_symmetry_Int_Tables_number      1
_space_group_name_Hall           'P 1'
loop_
_symmetry_equiv_pos_site_id
_symmetry_equiv_pos_as_xyz
1 x,y,z
_cell_length_a                   12.61270(10)
_cell_length_b                   12.61270(10)
_cell_length_c                   16.2198(2)
_cell_angle_alpha                90
_cell_angle_beta                 90
_cell_angle_gamma                120
_cell_volume                     2234.56
loop_
_atom_site_label
_atom_site_type_symbol
_atom_site_fract_x
_atom_site_fract_y
_atom_site_fract_z
Cu2 Cu 0.09562(9) 0.09562(9) 0.5000
O6 O 0.0768(4) 0.0977(4) 0.6202(2)
H12 H 0.102(8) 0.170(4) 0.648(4)
O12 O 0.0977(4) 0.0768(4) 0.3798(2)
H24 H 0.170(4) 0.102(8) 0.352(4)
Cu6 Cu 0.0000 0.14697(10) 0.3333
Cu8 Cu 0.14697(10) 0.0000 0.6666
O17 O 0.1604(9) 0.2844(7) 0.4909(4)
O18 O 0.2844(7) 0.1604(9) 0.5091(4)
O7 O 0.0264(10) 0.8191(6) 0.4112(4)
O8 O 0.0616(6) 0.9145(5) 0.5282(3)
C14 C 0.0431(10) 0.8271(7) 0.4862(4)
C15 C 0.0445(7) 0.7171(6) 0.5269(4)
H13 H 0.0735 0.7372 0.5839
C16 C 0.1213(9) 0.6742(8) 0.4798(6)
H14 H 0.1576 0.7242 0.4311
H15 H 0.1863 0.6791 0.5145
C17 C 0.0366(11) 0.5478(13) 0.4568(12)
H16 H 0.0498 0.5357 0.3995
H17 H 0.0532 0.4939 0.4901
Cu4 Cu -0.0000 0.91208(13) 0.3334
Cu8_2 Cu 0.14697(10) 1.0000 0.6666
Cu1 Cu 0.91208(13) 0.0000 0.6667
O1 O 0.8191(6) 0.0264(10) 0.5888(4)
O2 O 0.9145(5) 0.0616(6) 0.4718(3)
C1 C 0.8271(7) 0.0431(10) 0.5138(4)
C2 C 0.7171(6) 0.0445(7) 0.4731(4)
H1 H 0.7372 0.0735 0.4161
C3 C 0.6742(8) 0.1213(9) 0.5202(6)
H2 H 0.7242 0.1576 0.5689
H3 H 0.6791 0.1863 0.4855
C4 C 0.5478(13) 0.0366(11) 0.5432(12)
H4 H 0.5357 0.0498 0.6005
H5 H 0.4939 0.0532 0.5099
Cu6_2 Cu 1.0000 0.14697(10) 0.3333
Cu1_2 Cu 0.91208(13) 1.0000 0.6667
O3 O 0.6696(7) 0.8569(7) 0.3638(5)
O4 O 0.1178(5) 0.3121(4) 0.3626(3)
N1 N 0.6110(5) 0.9203(5) 0.4745(4)
C5 C 0.5164(10) 0.9126(10) 0.5322(9)
H6 H 0.4351 0.8650 0.5087
H7 H 0.5192 0.8761 0.5842
C6 C 0.5954(7) 0.8365(8) 0.4195(5)
C7 C 0.4838(6) 0.7121(7) 0.4255(5)
C8 C 0.4618(7) 0.6363(7) 0.4927(5)
H8 H 0.5143 0.6649 0.5378
C9 C 0.3642(8) 0.5202(8) 0.4938(5)
H9 H 0.3525 0.4696 0.5387
C10 C 0.2819(6) 0.4770(6) 0.4284(4)
C11 C 0.3023(7) 0.5522(7) 0.3614(5)
H10 H 0.2481 0.5248 0.3172
C12 C 0.4029(9) 0.6675(8) 0.3602(5)
H11 H 0.4170 0.7168 0.3143
C13 C 0.1784(7) 0.3479(7) 0.4284(5)
O9 O 0.8569(7) 0.6696(7) 0.6362(5)
O10 O 0.3121(4) 0.1178(5) 0.6374(3)
N2 N 0.9203(5) 0.6110(5) 0.5255(4)
C18 C 0.9126(10) 0.5164(10) 0.4678(9)
H18 H 0.8650 0.4351 0.4913
H19 H 0.8761 0.5192 0.4158
C19 C 0.8365(8) 0.5954(7) 0.5805(5)
C20 C 0.7121(7) 0.4838(6) 0.5745(5)
C21 C 0.6363(7) 0.4618(7) 0.5073(5)
H20 H 0.6649 0.5143 0.4622
C22 C 0.5202(8) 0.3642(8) 0.5062(5)
H21 H 0.4696 0.3525 0.4613
C23 C 0.4770(6) 0.2819(6) 0.5716(4)
C24 C 0.5522(7) 0.3023(7) 0.6386(5)
H22 H 0.5248 0.2481 0.6828
C25 C 0.6675(8) 0.4029(9) 0.6398(5)
H23 H 0.7168 0.4170 0.6857
C26 C 0.3479(7) 0.1784(7) 0.5716(5)
Cu4_2 Cu 1.0000 0.91208(13) 0.3334
O13 O 0.7927(12) 0.9736(10) 0.7445(4)
O15 O 0.0855(5) 0.1471(8) 0.1949(3)
O21 O 0.9791(6) 0.9023(4) 0.7131(2)
O16 O 0.8822(5) 0.1943(6) 0.3041(3)
O19 O 0.9023(4) 0.9791(6) 0.2869(2)
O19_2 O 0.0209(6) 0.9232(7) 0.9535(2)
O7_2 O 0.1809(6) 0.2073(12) 0.0779(4)
O9_2 O 0.3304(7) 0.1873(10) 0.3029(5)
O11 O 0.8396(9) 0.1240(11) 0.1758(4)
N2_2 N 0.3890(5) 0.3093(7) 0.1922(4)
C14_2 C 0.1729(7) 0.2160(12) 0.1529(4)
C15_2 C 0.2829(6) 0.3274(9) 0.1936(4)
H13_2 H 0.2628 0.3363 0.2506
C16_2 C 0.3258(8) 0.4471(12) 0.1465(6)
H14_2 H 0.2758 0.4334 0.0978
H15_2 H 0.3209 0.5072 0.1812
C17_2 C 0.4522(13) 0.4888(17) 0.1235(12)
H16_2 H 0.4643 0.5141 0.0662
H17_2 H 0.5061 0.5593 0.1568
C18_2 C 0.4836(10) 0.3962(14) 0.1345(9)
H18_2 H 0.5649 0.4299 0.1580
H19_2 H 0.4808 0.3569 0.0825
C19_2 C 0.4046(7) 0.2411(11) 0.2472(5)
C20_2 C 0.5162(6) 0.2283(9) 0.2412(5)
C21_2 C 0.5382(7) 0.1745(10) 0.1740(5)
H20_2 H 0.4857 0.1506 0.1289
C22_2 C 0.6358(8) 0.1560(11) 0.1729(5)
H21_2 H 0.6475 0.1171 0.1280
C23_2 C 0.7181(6) 0.1951(8) 0.2383(4)
C24_2 C 0.6977(7) 0.2499(10) 0.3053(5)
H22_2 H 0.7519 0.2767 0.3495
C25_2 C 0.5971(9) 0.2646(12) 0.3065(5)
H23_2 H 0.5830 0.2998 0.3524
C26_2 C 0.8216(7) 0.1695(10) 0.2383(5)
Cu4_3 Cu 0.08792(13) 0.08792(13) 0.0000
Cu5 Cu 0.90438(9) 0.00000(13) 0.1667
O20 O 0.9232(4) 0.0209(6) 0.0465(2)
Cu4_4 Cu 0.08792(13) 0.08792(13) 1.0000
Cu3 Cu 0.85303(10) 0.85303(10) -0.0000
O3_2 O 0.1431(7) 0.8127(10) 0.0305(5)
O4_2 O 0.6879(4) 0.8057(6) 0.0293(3)
O5 O 0.7156(7) 0.8760(11) 0.1576(4)
N1_2 N 0.0797(5) 0.6907(7) 0.1412(4)
C5_2 C 0.0874(10) 0.6038(14) 0.1989(9)
H6_2 H 0.1350 0.5701 0.1754
H7_2 H 0.1239 0.6431 0.2509
C6_2 C 0.1635(8) 0.7589(11) 0.0862(5)
C7_2 C 0.2879(7) 0.7717(9) 0.0922(5)
C8_2 C 0.3637(7) 0.8255(10) 0.1594(5)
H8_2 H 0.3351 0.8494 0.2045
C9_2 C 0.4798(8) 0.8440(11) 0.1605(5)
H9_2 H 0.5304 0.8829 0.2054
C10_2 C 0.5230(6) 0.8049(8) 0.0951(4)
C11_2 C 0.4478(7) 0.7501(10) 0.0281(5)
C12_2 C 0.3325(8) 0.7354(12) 0.0269(5)
C13_2 C 0.6521(7) 0.8305(10) 0.0951(5)
Cu5_2 Cu 0.90438(9) 1.00000(13) 0.1667
O14 O 0.9384(6) 0.8529(8) 0.1385(3)
Cu3_2 Cu 0.85303(10) 0.85303(10) 1.0000
H10_2 H 0.4752 0.7233 0.9839
H11_2 H 0.2832 0.7002 0.9810
O15_2 O 0.8529(8) 0.9384(9) 0.8615(3)
O16_2 O 0.8057(6) 0.6879(8) 0.9707(3)
H24_2 H 0.898(8) 0.068(9) 0.019(4)
O1_2 O 0.9736(10) 0.7927(12) 0.2555(4)
C1_2 C 0.9569(10) 0.7840(12) 0.1805(4)
C2_2 C 0.9555(7) 0.6726(9) 0.1398(4)
H1_2 H 0.9265 0.6637 0.0828
C3_2 C 0.8787(9) 0.5529(12) 0.1869(6)
H2_2 H 0.8424 0.5666 0.2356
H3_2 H 0.8137 0.4928 0.1522
C4_2 C 0.9634(11) 0.5112(17) 0.2099(12)
H4_2 H 0.9502 0.4859 0.2672
H5_2 H 0.9468 0.4407 0.1766
H12_2 H 0.830(4) 0.932(9) 0.315(4)
O14_2 O 0.1471(8) 0.0855(5) 0.8051(3)
O1_3 O 0.2073(12) 0.1809(6) 0.9221(4)
O3_3 O 0.1873(10) 0.3304(7) 0.6971(5)
O4_3 O 0.1943(6) 0.8822(5) 0.6959(3)
O5_2 O 0.1240(11) 0.8396(9) 0.8242(4)
N1_3 N 0.3093(7) 0.3890(5) 0.8078(4)
C1_3 C 0.2160(12) 0.1729(7) 0.8471(4)
C2_3 C 0.3274(9) 0.2829(6) 0.8064(4)
H1_3 H 0.3363 0.2628 0.7494
C3_3 C 0.4471(12) 0.3258(8) 0.8535(6)
H2_3 H 0.4334 0.2758 0.9022
H3_3 H 0.5072 0.3209 0.8188
C4_3 C 0.4888(17) 0.4522(13) 0.8765(12)
H4_3 H 0.5141 0.4643 0.9338
H5_3 H 0.5593 0.5061 0.8432
C5_3 C 0.3962(14) 0.4836(10) 0.8655(9)
H6_3 H 0.4299 0.5649 0.8420
H7_3 H 0.3569 0.4808 0.9175
C6_3 C 0.2411(11) 0.4046(7) 0.7528(5)
C7_3 C 0.2283(9) 0.5162(6) 0.7588(5)
C8_3 C 0.1745(10) 0.5382(7) 0.8260(5)
H8_3 H 0.1506 0.4857 0.8711
C9_3 C 0.1560(11) 0.6358(8) 0.8271(5)
H9_3 H 0.1171 0.6475 0.8720
C10_3 C 0.1951(8) 0.7181(6) 0.7617(4)
C11_3 C 0.2499(10) 0.6977(7) 0.6947(5)
H10_3 H 0.2767 0.7519 0.6505
C12_3 C 0.2646(12) 0.5971(9) 0.6935(5)
H11_3 H 0.2998 0.5830 0.6476
C13_3 C 0.1695(10) 0.8216(7) 0.7617(5)
Cu5_3 Cu 0.00000(13) 0.90438(9) 0.8333
H12_3 H 0.068(9) 0.898(8) 0.981(4)
H22_3 H 0.7233 0.4752 0.0161
H23_3 H 0.7002 0.2832 0.0190
O9_3 O 0.8127(10) 0.1431(7) 0.9695(5)
O11_2 O 0.8760(11) 0.7156(7) 0.8424(4)
N2_3 N 0.6907(7) 0.0797(5) 0.8588(4)
C18_3 C 0.6038(14) 0.0874(10) 0.8011(9)
H18_3 H 0.5701 0.1350 0.8246
H19_3 H 0.6431 0.1239 0.7491
C19_3 C 0.7589(11) 0.1635(8) 0.9138(5)
C20_3 C 0.7717(9) 0.2879(7) 0.9078(5)
C21_3 C 0.8255(10) 0.3637(7) 0.8406(5)
H20_3 H 0.8494 0.3351 0.7955
C22_3 C 0.8440(11) 0.4798(8) 0.8395(5)
H21_3 H 0.8829 0.5304 0.7946
C23_3 C 0.8049(8) 0.5230(6) 0.9049(4)
C24_3 C 0.7501(10) 0.4478(7) 0.9719(5)
C25_3 C 0.7354(12) 0.3325(8) 0.9731(5)
C26_3 C 0.8305(10) 0.6521(7) 0.9049(5)
Cu5_4 Cu 1.00000(13) 0.90438(9) 0.8333
C14_3 C 0.7840(12) 0.9569(10) 0.8195(4)
C15_3 C 0.6726(9) 0.9555(7) 0.8602(4)
H13_3 H 0.6637 0.9265 0.9172
C16_3 C 0.5529(12) 0.8787(9) 0.8131(6)
H14_3 H 0.5666 0.8424 0.7644
H15_3 H 0.4928 0.8137 0.8478
C17_3 C 0.5112(17) 0.9634(11) 0.7901(12)
H16_3 H 0.4859 0.9502 0.7328
H17_3 H 0.4407 0.9468 0.8234
H24_3 H 0.932(9) 0.830(4) 0.685(4)
loop_
_geom_bond_atom_site_label_1
_geom_bond_atom_site_label_2
_geom_bond_site_symmetry_1
_geom_bond_site_symmetry_2
H12 O6 1_555 1_555
O12 Cu2 1_555 1_555
H24 O12 1_555 1_555
Cu8 O6 1_555 1_555
O17 Cu2 1_555 1_555
O18 Cu2 1_555 1_555
Cu2 O6 1_555 1_555
O12 Cu6 1_555 1_555
O7 C14 1_555 1_555
C14 O8 1_555 1_555
C15 C14 1_555 1_555
H13 C15 1_555 1_555
C16 C15 1_555 1_555
H14 C16 1_555 1_555
H15 C16 1_555 1_555
C17 C16 1_555 1_555
H16 C17 1_555 1_555
H17 C17 1_555 1_555
Cu4 O7 1_555 1_555
O8 Cu8_2 1_555 1_555
Cu1 O1 1_555 1_555
O1 C1 1_555 1_555
O2 C1 1_555 1_555
C1 C2 1_555 1_555
C2 H1 1_555 1_555
C3 C2 1_555 1_555
H2 C3 1_555 1_555
H3 C3 1_555 1_555
C4 C3 1_555 1_555
H4 C4 1_555 1_555
H5 C4 1_555 1_555
Cu6_2 O2 1_555 1_555
Cu6 O4 1_555 1_555
O3 C6 1_555 1_555
O4 C13 1_555 1_555
O17 C13 1_555 1_555
C5 N1 1_555 1_555
H6 C5 1_555 1_555
H7 C5 1_555 1_555
C6 N1 1_555 1_555
C7 C6 1_555 1_555
C8 C7 1_555 1_555
H8 C8 1_555 1_555
C9 C8 1_555 1_555
H9 C9 1_555 1_555
C10 C9 1_555 1_555
C11 C10 1_555 1_555
H10 C11 1_555 1_555
C12 C7 1_555 1_555
H11 C12 1_555 1_555
C13 C10 1_555 1_555
O9 C19 1_555 1_555
O10 C26 1_555 1_555
O18 C26 1_555 1_555
C18 N2 1_555 1_555
H18 C18 1_555 1_555
H19 C18 1_555 1_555
C19 N2 1_555 1_555
C20 C19 1_555 1_555
C21 C20 1_555 1_555
H20 C21 1_555 1_555
C22 C21 1_555 1_555
H21 C22 1_555 1_555
C23 C22 1_555 1_555
C24 C23 1_555 1_555
H22 C24 1_555 1_555
C25 C20 1_555 1_555
H23 C25 1_555 1_555
C26 C23 1_555 1_555
Cu8 O10 1_555 1_555
O13 Cu1_2 1_555 1_555
O15 Cu6 1_555 1_555
O21 Cu1_2 1_555 1_555
C11 C12 1_555 1_555
C24 C25 1_555 1_555
O16 Cu6_2 1_555 1_555
O7_2 C14_2 1_555 1_555
O9_2 C19_2 1_555 1_555
O16 C26_2 1_555 1_555
O11 C26_2 1_555 1_555
N2_2 C15_2 1_555 1_555
C14_2 O15 1_555 1_555
C15_2 C14_2 1_555 1_555
H13_2 C15_2 1_555 1_555
C16_2 C15_2 1_555 1_555
H14_2 C16_2 1_555 1_555
H15_2 C16_2 1_555 1_555
C17_2 C16_2 1_555 1_555
H16_2 C17_2 1_555 1_555
H17_2 C17_2 1_555 1_555
C18_2 N2_2 1_555 1_555
H18_2 C18_2 1_555 1_555
H19_2 C18_2 1_555 1_555
C19_2 N2_2 1_555 1_555
C20_2 C19_2 1_555 1_555
C21_2 C20_2 1_555 1_555
H20_2 C21_2 1_555 1_555
C22_2 C21_2 1_555 1_555
H21_2 C22_2 1_555 1_555
C23_2 C22_2 1_555 1_555
C24_2 C23_2 1_555 1_555
H22_2 C24_2 1_555 1_555
C25_2 C20_2 1_555 1_555
H23_2 C25_2 1_555 1_555
C26_2 C23_2 1_555 1_555
Cu4_3 O7_2 1_555 1_555
O11 Cu5 1_555 1_555
C17_2 C18_2 1_555 1_555
C24_2 C25_2 1_555 1_555
Cu5 O20 1_555 1_555
Cu3 O4_2 1_555 1_555
O3_2 C6_2 1_555 1_555
O4_2 C13_2 1_555 1_555
O5 C13_2 1_555 1_555
C5_2 N1_2 1_555 1_555
H6_2 C5_2 1_555 1_555
H7_2 C5_2 1_555 1_555
C6_2 N1_2 1_555 1_555
C7_2 C6_2 1_555 1_555
C8_2 C7_2 1_555 1_555
H8_2 C8_2 1_555 1_555
C9_2 C8_2 1_555 1_555
H9_2 C9_2 1_555 1_555
C10_2 C9_2 1_555 1_555
C11_2 C10_2 1_555 1_555
C12_2 C7_2 1_555 1_555
C13_2 C10_2 1_555 1_555
Cu5_2 O5 1_555 1_555
O14 Cu3 1_555 1_555
C11_2 C12_2 1_555 1_555
Cu5_2 O14 1_555 1_555
O15_2 Cu3_2 1_555 1_555
O16_2 Cu3_2 1_555 1_555
H24_2 O20 1_555 1_555
Cu4_2 O1_2 1_555 1_555
O1_2 C1_2 1_555 1_555
O14 C1_2 1_555 1_555
O19 Cu4_2 1_555 1_555
C1_2 C2_2 1_555 1_555
C2_2 H1_2 1_555 1_555
C3_2 C2_2 1_555 1_555
H2_2 C3_2 1_555 1_555
H3_2 C3_2 1_555 1_555
C4_2 C3_2 1_555 1_555
H4_2 C4_2 1_555 1_555
H5_2 C4_2 1_555 1_555
H12_2 O19 1_555 1_555
Cu5_2 O19 1_555 1_555
O14_2 Cu8 1_555 1_555
Cu4_4 O1_3 1_555 1_555
Cu8_2 O4_3 1_555 1_555
O1_3 C1_3 1_555 1_555
O14_2 C1_3 1_555 1_555
O3_3 C6_3 1_555 1_555
O4_3 C13_3 1_555 1_555
O5_2 C13_3 1_555 1_555
N1_3 C2_3 1_555 1_555
C1_3 C2_3 1_555 1_555
C2_3 H1_3 1_555 1_555
C3_3 C2_3 1_555 1_555
H2_3 C3_3 1_555 1_555
H3_3 C3_3 1_555 1_555
C4_3 C3_3 1_555 1_555
H4_3 C4_3 1_555 1_555
H5_3 C4_3 1_555 1_555
C5_3 N1_3 1_555 1_555
H6_3 C5_3 1_555 1_555
H7_3 C5_3 1_555 1_555
C6_3 N1_3 1_555 1_555
C7_3 C6_3 1_555 1_555
C8_3 C7_3 1_555 1_555
H8_3 C8_3 1_555 1_555
C9_3 C8_3 1_555 1_555
H9_3 C9_3 1_555 1_555
C10_3 C9_3 1_555 1_555
C11_3 C10_3 1_555 1_555
H10_3 C11_3 1_555 1_555
C12_3 C7_3 1_555 1_555
H11_3 C12_3 1_555 1_555
C13_3 C10_3 1_555 1_555
Cu5_3 O5_2 1_555 1_555
C4_3 C5_3 1_555 1_555
C11_3 C12_3 1_555 1_555
H12_3 O19_2 1_555 1_555
Cu5_3 O19_2 1_555 1_555
O9_3 C19_3 1_555 1_555
O16_2 C26_3 1_555 1_555
O11_2 C26_3 1_555 1_555
C18_3 N2_3 1_555 1_555
H18_3 C18_3 1_555 1_555
H19_3 C18_3 1_555 1_555
C19_3 N2_3 1_555 1_555
C20_3 C19_3 1_555 1_555
C21_3 C20_3 1_555 1_555
H20_3 C21_3 1_555 1_555
C22_3 C21_3 1_555 1_555
H21_3 C22_3 1_555 1_555
C23_3 C22_3 1_555 1_555
C24_3 C23_3 1_555 1_555
C25_3 C20_3 1_555 1_555
C26_3 C23_3 1_555 1_555
O11_2 Cu5_4 1_555 1_555
C24_3 C25_3 1_555 1_555
Cu5_4 O21 1_555 1_555
O13 C14_3 1_555 1_555
O15_2 Cu5_4 1_555 1_555
C14_3 O15_2 1_555 1_555
C15_3 C14_3 1_555 1_555
H13_3 C15_3 1_555 1_555
C16_3 C15_3 1_555 1_555
H14_3 C16_3 1_555 1_555
H15_3 C16_3 1_555 1_555
C17_3 C16_3 1_555 1_555
H16_3 C17_3 1_555 1_555
H17_3 C17_3 1_555 1_555
H24_3 O21 1_555 1_555

#END
