
###############################################################################
#
# This file contains modified crystal structure data generated from the
# MOF subset of the Cambridge Structural Database (CSD) v543 
# hosted by the Cambridge Crystallographic Data Centre (CCDC).
#
# This work is licensed under the Creative Commons
# Attribution-NonCommercial-ShareAlike 4.0 International License.
# To view a copy of this license, visit
# http://creativecommons.org/licenses/by-nc-sa/4.0/
# or send a letter to
# Creative Commons, PO Box 1866, Mountain View, CA 94042, USA.
#
# CIF created using the CSD Python API on 29 September 2022
# The structure has been converted into the P1 space group
# The structure has a 3D framework
# The original CSD entry MARLID is in the triclinic crystal system
# The framework has been calculated to contain at least 10.0% void space
# The void calculation uses a probe of radius 1.32A, grid spacing 0.4
#
###############################################################################

data_MARLID
_chemical_formula_moiety         '(C36 H52 La4 O30)n'
_symmetry_cell_setting           triclinic
_symmetry_space_group_name_H-M   'P 1'
_symmetry_Int_Tables_number      1
_space_group_name_Hall           'P 1'
loop_
_symmetry_equiv_pos_site_id
_symmetry_equiv_pos_as_xyz
1 x,y,z
_cell_length_a                   9.7490(10)
_cell_length_b                   10.6580(10)
_cell_length_c                   16.414(3)
_cell_angle_alpha                74.830(10)
_cell_angle_beta                 82.720(10)
_cell_angle_gamma                63.980(10)
_cell_volume                     1479.08
loop_
_atom_site_label
_atom_site_type_symbol
_atom_site_fract_x
_atom_site_fract_y
_atom_site_fract_z
O15 O 0.0817(6) 0.1324(5) 0.0922(3)
H23 H 0.037(10) 0.207(6) 0.057(5)
H24 H 0.133(9) 0.068(7) 0.067(5)
O10 O 0.0901(5) 0.8901(5) 0.2345(3)
O11 O 0.2012(6) 0.2541(5) 0.5245(3)
O12 O 0.3929(5) 0.1252(5) 0.4538(3)
C13 C 0.0242(7) 0.8762(6) 0.3058(4)
C14 C 0.1161(8) 0.7659(7) 0.3791(4)
H13 H 0.0493 0.7637 0.4280
H14 H 0.1919 0.7933 0.3922
C15 C 0.1954(8) 0.6179(7) 0.3619(4)
H15 H 0.2755 0.6008 0.3228
C16 C 0.1586(8) 0.5123(7) 0.3986(4)
H16 H 0.0794 0.5294 0.4382
C17 C 0.2354(9) 0.3646(7) 0.3811(4)
H17 H 0.1682 0.3549 0.3468
H18 H 0.3277 0.3562 0.3482
C18 C 0.2765(8) 0.2430(6) 0.4580(4)
La7 La 0.37049(4) 0.01764(3) 0.62410(2)
O17 O 0.0941(5) 0.8716(4) 0.0468(3)
La6 La 0.62951(4) 0.98236(3) 0.37590(2)
La1 La 0.87616(4) 0.03108(3) 0.12561(2)
O1 O 0.4148(5) 0.1069(5) 0.2655(3)
O2 O 0.6273(5) 0.1011(5) 0.2028(3)
O14 O 0.8271(6) 0.2410(6) 0.1974(3)
C1 C 0.4853(8) 0.1427(6) 0.2011(4)
C2 C 0.3980(8) 0.2407(7) 0.1222(4)
H1 H 0.4686 0.2439 0.0753
H2 H 0.3305 0.2045 0.1082
C3 C 0.3072(9) 0.3873(7) 0.1372(5)
H3 H 0.2139 0.4053 0.1653
C4 C 0.3485(8) 0.4915(7) 0.1140(4)
H4 H 0.4431 0.4727 0.0873
C5 C 0.2557(9) 0.6403(7) 0.1270(4)
H5 H 0.1664 0.6424 0.1612
H6 H 0.3159 0.6645 0.1578
C6 C 0.2054(7) 0.7511(6) 0.0457(4)
H20 H 0.628(8) 0.063(6) 0.003(5)
H21 H 0.906(6) 0.227(11) 0.218(5)
H22 H 0.755(7) 0.257(10) 0.231(5)
O19 O 0.7271(5) 0.2729(5) 0.0231(3)
O20 O 0.7080(6) 0.1264(5) 0.4607(3)
O21 O 0.6226(6) 0.2371(5) 0.3328(3)
O4 O 0.2729(5) 0.7271(5) 0.9769(3)
La4 La 0.12384(4) 0.96892(3) 0.87439(2)
O18 O 0.9059(5) 0.1284(4) 0.9532(3)
O5 O 0.7114(6) 0.8000(5) 0.2918(3)
O6 O 0.8644(5) 0.7924(5) 0.1791(3)
O9 O 0.8854(5) 0.9514(5) 0.3141(3)
O13 O 0.6962(6) 0.9938(5) 0.0330(3)
O16 O 0.4673(7) 0.8388(6) 0.3988(3)
C7 C 0.8038(7) 0.7361(7) 0.2423(4)
C8 C 0.8430(9) 0.5802(7) 0.2516(5)
H7 H 0.8036 0.5707 0.2032
H8 H 0.9532 0.5282 0.2500
C9 C 0.7839(11) 0.5104(8) 0.3297(6)
H9 H 0.8295 0.4996 0.3790
C10 C 0.6877(11) 0.4654(9) 0.3404(5)
H10 H 0.6329 0.4874 0.2922
C11 C 0.6401(10) 0.3808(8) 0.4168(4)
H11 H 0.5340 0.4360 0.4303
H12 H 0.7012 0.3629 0.4643
C12 C 0.6591(8) 0.2399(7) 0.4027(4)
H19 H 0.661(10) 0.933(7) 0.052(6)
H25 H 0.404(9) 0.839(10) 0.438(4)
H26 H 0.512(10) 0.770(7) 0.376(6)
O22 O 0.7988(6) 0.7459(5) 0.4755(3)
O24 O 0.6071(5) 0.8748(5) 0.5462(3)
O5_2 O 0.2886(6) 0.2000(5) 0.7082(3)
O6_2 O 0.1356(5) 0.2076(5) 0.8209(3)
O7 O 0.2920(6) 0.8736(5) 0.5393(3)
O8 O 0.3774(6) 0.7629(5) 0.6672(3)
O9_2 O 0.1146(5) 0.0486(5) 0.6859(3)
O13_2 O 0.3038(6) 0.0062(5) 0.9670(3)
O16_2 O 0.5327(7) 0.1612(6) 0.6012(3)
C7_2 C 0.1962(7) 0.2639(7) 0.7577(4)
C8_2 C 0.1570(9) 0.4198(7) 0.7484(5)
H7_2 H 0.1964 0.4293 0.7968
H8_2 H 0.0468 0.4718 0.7500
C9_2 C 0.2161(11) 0.4896(8) 0.6703(6)
H9_2 H 0.1705 0.5004 0.6210
C10_2 C 0.3123(11) 0.5346(9) 0.6596(5)
H10_2 H 0.3671 0.5126 0.7078
C11_2 C 0.3599(10) 0.6192(8) 0.5832(4)
H11_2 H 0.4660 0.5640 0.5697
H12_2 H 0.2988 0.6371 0.5357
C12_2 C 0.3409(8) 0.7601(7) 0.5973(4)
H19_2 H 0.339(10) 0.067(7) 0.948(6)
H25_2 H 0.596(9) 0.161(10) 0.562(4)
H26_2 H 0.488(10) 0.230(7) 0.624(6)
O1_2 O 0.5852(5) 0.8931(5) 0.7345(3)
O2_2 O 0.3727(5) 0.8989(5) 0.7972(3)
O14_2 O 0.1729(6) 0.7590(6) 0.8026(3)
C1_2 C 0.5147(8) 0.8573(6) 0.7989(4)
C2_2 C 0.6020(8) 0.7593(7) 0.8778(4)
H1_2 H 0.5314 0.7561 0.9247
H2_2 H 0.6695 0.7955 0.8918
C3_2 C 0.6928(9) 0.6127(7) 0.8628(5)
H3_2 H 0.7861 0.5947 0.8347
C4_2 C 0.6515(8) 0.5085(7) 0.8860(4)
H4_2 H 0.5569 0.5273 0.9127
C5_2 C 0.7443(9) 0.3597(7) 0.8730(4)
H5_2 H 0.8336 0.3576 0.8388
H6_2 H 0.6841 0.3355 0.8422
C6_2 C 0.7946(7) 0.2489(6) 0.9543(4)
H20_2 H 0.372(8) 0.937(6) 0.997(5)
H21_2 H 0.094(6) 0.773(11) 0.782(5)
H22_2 H 0.245(7) 0.743(10) 0.769(5)
O10_2 O 0.9099(5) 0.1099(5) 0.7655(3)
C13_2 C 0.9758(7) 0.1238(6) 0.6942(4)
C14_2 C 0.8839(8) 0.2341(7) 0.6209(4)
H13_2 H 0.9507 0.2363 0.5720
H14_2 H 0.8081 0.2067 0.6078
C15_2 C 0.8046(8) 0.3821(7) 0.6381(4)
H15_2 H 0.7245 0.3992 0.6772
C16_2 C 0.8414(8) 0.4877(7) 0.6014(4)
H16_2 H 0.9206 0.4706 0.5618
C17_2 C 0.7646(9) 0.6354(7) 0.6189(4)
H17_2 H 0.8318 0.6451 0.6532
H18_2 H 0.6723 0.6438 0.6518
C18_2 C 0.7235(8) 0.7570(6) 0.5420(4)
O15_2 O 0.9183(6) 0.8676(5) 0.9078(3)
H23_2 H 0.963(10) 0.793(6) 0.943(5)
H24_2 H 0.867(9) 0.932(7) 0.933(5)
loop_
_geom_bond_atom_site_label_1
_geom_bond_atom_site_label_2
_geom_bond_site_symmetry_1
_geom_bond_site_symmetry_2
H23 O15 1_555 1_555
H24 O15 1_555 1_555
O11 C18 1_555 1_555
O12 C18 1_555 1_555
C14 C13 1_555 1_555
H13 C14 1_555 1_555
H14 C14 1_555 1_555
C15 C14 1_555 1_555
H15 C15 1_555 1_555
C16 C15 1_555 1_555
H16 C16 1_555 1_555
C17 C16 1_555 1_555
H17 C17 1_555 1_555
H18 C17 1_555 1_555
C18 C17 1_555 1_555
La7 O11 1_555 1_555
O10 C13 1_555 1_555
O12 La7 1_555 1_555
La1 O2 1_555 1_555
O1 C1 1_555 1_555
O17 C6 1_555 1_555
O14 La1 1_555 1_555
C1 O2 1_555 1_555
C2 C1 1_555 1_555
H1 C2 1_555 1_555
H2 C2 1_555 1_555
C3 C2 1_555 1_555
H3 C3 1_555 1_555
C4 C3 1_555 1_555
H4 C4 1_555 1_555
C5 C4 1_555 1_555
H5 C5 1_555 1_555
H6 C5 1_555 1_555
C6 C5 1_555 1_555
H21 O14 1_555 1_555
H22 O14 1_555 1_555
O19 La1 1_555 1_555
O4 La4 1_555 1_555
O5 La6 1_555 1_555
O20 C12 1_555 1_555
O21 C12 1_555 1_555
O16 La6 1_555 1_555
C7 O5 1_555 1_555
C8 C7 1_555 1_555
H7 C8 1_555 1_555
H8 C8 1_555 1_555
C9 C8 1_555 1_555
H9 C9 1_555 1_555
C10 C9 1_555 1_555
H10 C10 1_555 1_555
C11 C10 1_555 1_555
H11 C11 1_555 1_555
H12 C11 1_555 1_555
C12 C11 1_555 1_555
H19 O13 1_555 1_555
H25 O16 1_555 1_555
H26 O16 1_555 1_555
O22 La6 1_555 1_555
O24 La6 1_555 1_555
La6 O9 1_555 1_555
O6 C7 1_555 1_555
O5_2 La7 1_555 1_555
O7 C12_2 1_555 1_555
O8 C12_2 1_555 1_555
O16_2 La7 1_555 1_555
C7_2 O5_2 1_555 1_555
C8_2 C7_2 1_555 1_555
H7_2 C8_2 1_555 1_555
H8_2 C8_2 1_555 1_555
C9_2 C8_2 1_555 1_555
H9_2 C9_2 1_555 1_555
C10_2 C9_2 1_555 1_555
H10_2 C10_2 1_555 1_555
C11_2 C10_2 1_555 1_555
H11_2 C11_2 1_555 1_555
H12_2 C11_2 1_555 1_555
C12_2 C11_2 1_555 1_555
H19_2 O13_2 1_555 1_555
H25_2 O16_2 1_555 1_555
H26_2 O16_2 1_555 1_555
La7 O9_2 1_555 1_555
O6_2 C7_2 1_555 1_555
La4 O2_2 1_555 1_555
O1_2 C1_2 1_555 1_555
O18 C6_2 1_555 1_555
O14_2 La4 1_555 1_555
C1_2 O2_2 1_555 1_555
C2_2 C1_2 1_555 1_555
H1_2 C2_2 1_555 1_555
H2_2 C2_2 1_555 1_555
C3_2 C2_2 1_555 1_555
H3_2 C3_2 1_555 1_555
C4_2 C3_2 1_555 1_555
H4_2 C4_2 1_555 1_555
C5_2 C4_2 1_555 1_555
H5_2 C5_2 1_555 1_555
H6_2 C5_2 1_555 1_555
C6_2 C5_2 1_555 1_555
H21_2 O14_2 1_555 1_555
H22_2 O14_2 1_555 1_555
O22 C18_2 1_555 1_555
O24 C18_2 1_555 1_555
C14_2 C13_2 1_555 1_555
H13_2 C14_2 1_555 1_555
H14_2 C14_2 1_555 1_555
C15_2 C14_2 1_555 1_555
H15_2 C15_2 1_555 1_555
C16_2 C15_2 1_555 1_555
H16_2 C16_2 1_555 1_555
C17_2 C16_2 1_555 1_555
H17_2 C17_2 1_555 1_555
H18_2 C17_2 1_555 1_555
C18_2 C17_2 1_555 1_555
O10_2 C13_2 1_555 1_555
H23_2 O15_2 1_555 1_555
H24_2 O15_2 1_555 1_555

#END
