
###############################################################################
#
# This file contains modified crystal structure data generated from the
# MOF subset of the Cambridge Structural Database (CSD) v543 
# hosted by the Cambridge Crystallographic Data Centre (CCDC).
#
# This work is licensed under the Creative Commons
# Attribution-NonCommercial-ShareAlike 4.0 International License.
# To view a copy of this license, visit
# http://creativecommons.org/licenses/by-nc-sa/4.0/
# or send a letter to
# Creative Commons, PO Box 1866, Mountain View, CA 94042, USA.
#
# CIF created using the CSD Python API on 29 September 2022
# The structure has been converted into the P1 space group
# The structure has a 3D framework
# The original CSD entry MAVFEV03 is in the monoclinic crystal system
# The framework has been calculated to contain at least 10.0% void space
# The void calculation uses a probe of radius 1.32A, grid spacing 0.4
# The framework is charged, counterions have been retained in the structure
#
###############################################################################

data_MAVFEV03
_chemical_formula_moiety         '(C24 H40 Eu4 N4 O36)n'
_symmetry_cell_setting           triclinic
_symmetry_space_group_name_H-M   'P 1'
_symmetry_Int_Tables_number      1
_space_group_name_Hall           'P 1'
loop_
_symmetry_equiv_pos_site_id
_symmetry_equiv_pos_as_xyz
1 x,y,z
_cell_length_a                   9.6706(10)
_cell_length_b                   11.7551(13)
_cell_length_c                   12.3115(13)
_cell_angle_alpha                90
_cell_angle_beta                 99.2690(10)
_cell_angle_gamma                90
_cell_volume                     1381.28
loop_
_atom_site_label
_atom_site_type_symbol
_atom_site_fract_x
_atom_site_fract_y
_atom_site_fract_z
Eu1 Eu 0.28617(2) 0.015537(13) 0.169091(15)
O1 O 0.3605(3) 0.2154(2) 0.1563(2)
O2 O 0.4545(3) 0.0231(2) 0.3460(2)
H2 H 0.4066 0.0591 0.3870
O3 O 0.1921(3) 0.14080(18) 0.2943(2)
O4 O 0.3160(3) 0.39480(19) 0.2001(2)
O5 O 0.1339(3) 0.31971(19) 0.3278(2)
C1 C 0.3012(4) 0.2890(3) 0.2061(3)
C2 C 0.1998(4) 0.2452(3) 0.2822(3)
O11 O 0.5336(3) 0.0137(2) 0.14230(19)
C5 C 0.5621(4) 0.0010(3) 0.0469(3)
O13 O 0.0839(3) 0.1181(2) 0.0666(2)
Eu3 Eu 0.21383(2) 0.515537(13) 0.330909(15)
O6 O 0.3186(2) 0.0118(2) 0.9773(2)
H1 H 0.4811 0.9611 0.3781
O8 O 0.1023(3) 0.8911(2) 0.0671(2)
C4 C 0.0059(4) 0.9341(3) 0.0008(3)
O10 O 0.6814(2) 0.9882(2) 0.0227(2)
O19 O 0.1840(3) 0.89480(19) 0.2999(2)
O21 O 0.3661(3) 0.81971(19) 0.1722(2)
O7 O 0.4664(3) 0.9863(2) 0.85770(19)
C3 C 0.4379(4) 0.9990(3) 0.9531(3)
Eu4 Eu 0.71383(2) 0.984463(13) 0.830909(15)
O12 O 0.8977(3) 0.1089(2) 0.9329(2)
C6 C 0.9941(4) 0.0659(3) 0.9992(3)
H3 H 0.5189 0.0389 0.6219
O20 O 0.8160(3) 0.10520(19) 0.7001(2)
O22 O 0.6339(3) 0.18029(19) 0.8278(2)
O9 O 0.9161(3) 0.8819(2) 0.9334(2)
O14 O 0.6395(3) 0.7846(2) 0.8437(2)
O15 O 0.5455(3) 0.9769(2) 0.6540(2)
H4 H 0.5934 0.9409 0.6130
O16 O 0.8079(3) 0.85920(18) 0.7057(2)
O17 O 0.6840(3) 0.60520(19) 0.7999(2)
O18 O 0.8661(3) 0.68029(19) 0.6722(2)
C7 C 0.6988(4) 0.7110(3) 0.7939(3)
C8 C 0.8002(4) 0.7548(3) 0.7178(3)
Eu5 Eu 0.78617(2) 0.484463(13) 0.669091(15)
O24 O 0.0336(3) 0.4863(2) 0.64230(19)
O1_2 O 0.1395(3) 0.7154(2) 0.3437(2)
O2_2 O 0.0455(3) 0.5231(2) 0.1540(2)
H1_2 H 0.0189 0.4611 0.1219
H2_2 H 0.0934 0.5591 0.1130
O3_2 O 0.3079(3) 0.64080(18) 0.2057(2)
O6_2 O 0.1814(2) 0.5118(2) 0.5227(2)
O8_2 O 0.3977(3) 0.3911(2) 0.4329(2)
O9_2 O 0.5839(3) 0.3819(2) 0.5666(2)
C1_2 C 0.1988(4) 0.7890(3) 0.2939(3)
C2_2 C 0.3002(4) 0.7452(3) 0.2178(3)
C3_2 C 0.0621(4) 0.4990(3) 0.5469(3)
C4_2 C 0.4941(4) 0.4341(3) 0.4992(3)
O12_2 O 0.6023(3) 0.6089(2) 0.5671(2)
O13_2 O 0.4161(3) 0.6181(2) 0.4334(2)
C6_2 C 0.5059(4) 0.5659(3) 0.5008(3)
O14_2 O 0.8605(3) 0.2846(2) 0.6563(2)
O15_2 O 0.9545(3) 0.4769(2) 0.8460(2)
H3_2 H 0.9811 0.5389 0.8781
H4_2 H 0.9066 0.4409 0.8870
O16_2 O 0.6921(3) 0.35920(18) 0.7943(2)
C7_2 C 0.8012(4) 0.2110(3) 0.7061(3)
C8_2 C 0.6998(4) 0.2548(3) 0.7822(3)
O23 O 0.8186(2) 0.4882(2) 0.4773(2)
O11_2 O 0.9664(3) 0.5137(2) 0.35770(19)
C5_2 C 0.9379(4) 0.5010(3) 0.4531(3)
C9 C 0.6933(6) 0.2451(4) 0.3332(5)
H5 H 0.6141 0.2417 0.3711
H6 H 0.6698 0.2898 0.2675
H7 H 0.7711 0.2793 0.3801
C10 C 0.8506(5) 0.1227(5) 0.2447(4)
H8 H 0.8680 0.0443 0.2295
H9 H 0.9321 0.1547 0.2890
H10 H 0.8301 0.1640 0.1767
N1 N 0.7311(4) 0.1304(3) 0.3039(3)
H11 H 0.6563 0.0985 0.2621
H12 H 0.7506 0.0890 0.3660
C9_2 C 0.8067(6) 0.7451(4) 0.1668(5)
H5_2 H 0.8859 0.7417 0.1289
H6_2 H 0.8302 0.7898 0.2325
H7_2 H 0.7289 0.7793 0.1199
C10_2 C 0.6494(5) 0.6227(5) 0.2553(4)
H8_2 H 0.6320 0.5443 0.2705
H9_2 H 0.5679 0.6547 0.2110
H10_2 H 0.6699 0.6640 0.3233
N1_2 N 0.7689(4) 0.6304(3) 0.1961(3)
H11_2 H 0.8437 0.5985 0.2379
H12_2 H 0.7494 0.5890 0.1340
C9_3 C 0.3067(6) 0.7549(4) 0.6668(5)
H5_3 H 0.3859 0.7583 0.6289
H6_3 H 0.3302 0.7102 0.7325
H7_3 H 0.2289 0.7207 0.6199
C10_3 C 0.1494(5) 0.8773(5) 0.7553(4)
H8_3 H 0.1320 0.9557 0.7705
H9_3 H 0.0679 0.8453 0.7110
H10_3 H 0.1699 0.8360 0.8233
N1_3 N 0.2689(4) 0.8696(3) 0.6961(3)
H11_3 H 0.3437 0.9015 0.7379
H12_3 H 0.2494 0.9110 0.6340
C9_4 C 0.1933(6) 0.2549(4) 0.8332(5)
H5_4 H 0.1141 0.2583 0.8711
H6_4 H 0.1698 0.2102 0.7675
H7_4 H 0.2711 0.2207 0.8801
C10_4 C 0.3506(5) 0.3773(5) 0.7447(4)
H8_4 H 0.3680 0.4557 0.7295
H9_4 H 0.4321 0.3453 0.7890
H10_4 H 0.3301 0.3360 0.6767
N1_4 N 0.2311(4) 0.3696(3) 0.8039(3)
H11_4 H 0.1563 0.4015 0.7621
H12_4 H 0.2506 0.4110 0.8660
loop_
_geom_bond_atom_site_label_1
_geom_bond_atom_site_label_2
_geom_bond_site_symmetry_1
_geom_bond_site_symmetry_2
Eu1 O1 1_555 1_555
O1 C1 1_555 1_555
O2 Eu1 1_555 1_555
H2 O2 1_555 1_555
O3 Eu1 1_555 1_555
O4 C1 1_555 1_555
O5 C2 1_555 1_555
C1 C2 1_555 1_555
C2 O3 1_555 1_555
O11 Eu1 1_555 1_555
O13 Eu1 1_555 1_555
Eu3 O4 1_555 1_555
O5 Eu3 1_555 1_555
O11 C5 1_555 1_555
C4 O8 1_555 1_555
O7 C3 1_555 1_555
Eu4 O7 1_555 1_555
O12 C6 1_555 1_555
Eu4 O9 1_555 1_555
O14 Eu4 1_555 1_555
O15 Eu4 1_555 1_555
H4 O15 1_555 1_555
O16 Eu4 1_555 1_555
O17 C7 1_555 1_555
O18 C8 1_555 1_555
C7 O14 1_555 1_555
C8 O16 1_555 1_555
Eu5 O17 1_555 1_555
O18 Eu5 1_555 1_555
C7 C8 1_555 1_555
Eu3 O1_2 1_555 1_555
O1_2 C1_2 1_555 1_555
O2_2 Eu3 1_555 1_555
H1_2 O2_2 1_555 1_555
H2_2 O2_2 1_555 1_555
O3_2 Eu3 1_555 1_555
O19 C1_2 1_555 1_555
O21 C2_2 1_555 1_555
O6_2 Eu3 1_555 1_555
O24 C3_2 1_555 1_555
O8_2 Eu3 1_555 1_555
O9_2 C4_2 1_555 1_555
C1_2 C2_2 1_555 1_555
C2_2 O3_2 1_555 1_555
C3_2 O6_2 1_555 1_555
C4_2 O8_2 1_555 1_555
O12_2 C6_2 1_555 1_555
O13_2 Eu3 1_555 1_555
C6_2 C4_2 1_555 1_555
Eu5 O9_2 1_555 1_555
O14_2 Eu5 1_555 1_555
O15_2 Eu5 1_555 1_555
H3_2 O15_2 1_555 1_555
H4_2 O15_2 1_555 1_555
O16_2 Eu5 1_555 1_555
O20 C7_2 1_555 1_555
O22 C8_2 1_555 1_555
C7_2 O14_2 1_555 1_555
C8_2 O16_2 1_555 1_555
O23 Eu5 1_555 1_555
O12_2 Eu5 1_555 1_555
O13_2 C6_2 1_555 1_555
C7_2 C8_2 1_555 1_555
O23 C5_2 1_555 1_555
O11_2 C5_2 1_555 1_555
C9 H5 1_555 1_555
H6 C9 1_555 1_555
H7 C9 1_555 1_555
C10 H8 1_555 1_555
H9 C10 1_555 1_555
H10 C10 1_555 1_555
N1 C9 1_555 1_555
H11 N1 1_555 1_555
H12 N1 1_555 1_555
C10 N1 1_555 1_555
C9_2 H5_2 1_555 1_555
H6_2 C9_2 1_555 1_555
H7_2 C9_2 1_555 1_555
C10_2 H8_2 1_555 1_555
H9_2 C10_2 1_555 1_555
H10_2 C10_2 1_555 1_555
N1_2 C9_2 1_555 1_555
H11_2 N1_2 1_555 1_555
H12_2 N1_2 1_555 1_555
C10_2 N1_2 1_555 1_555
C9_3 H5_3 1_555 1_555
H6_3 C9_3 1_555 1_555
H7_3 C9_3 1_555 1_555
C10_3 H8_3 1_555 1_555
H9_3 C10_3 1_555 1_555
H10_3 C10_3 1_555 1_555
N1_3 C9_3 1_555 1_555
H11_3 N1_3 1_555 1_555
H12_3 N1_3 1_555 1_555
C10_3 N1_3 1_555 1_555
C9_4 H5_4 1_555 1_555
H6_4 C9_4 1_555 1_555
H7_4 C9_4 1_555 1_555
C10_4 H8_4 1_555 1_555
H9_4 C10_4 1_555 1_555
H10_4 C10_4 1_555 1_555
N1_4 C9_4 1_555 1_555
H11_4 N1_4 1_555 1_555
H12_4 N1_4 1_555 1_555
C10_4 N1_4 1_555 1_555

#END
