
###############################################################################
#
# This file contains modified crystal structure data generated from the
# MOF subset of the Cambridge Structural Database (CSD) v543 
# hosted by the Cambridge Crystallographic Data Centre (CCDC).
#
# This work is licensed under the Creative Commons
# Attribution-NonCommercial-ShareAlike 4.0 International License.
# To view a copy of this license, visit
# http://creativecommons.org/licenses/by-nc-sa/4.0/
# or send a letter to
# Creative Commons, PO Box 1866, Mountain View, CA 94042, USA.
#
# CIF created using the CSD Python API on 29 September 2022
# The structure has been converted into the P1 space group
# The structure has a 3D framework
# The original CSD entry MAVNAB is in the tetragonal crystal system
# The original CSD entry MAVNAB is in a Sohncke space group
# The framework has been calculated to contain at least 10.0% void space
# The void calculation uses a probe of radius 1.32A, grid spacing 0.4
# H atom positions have been added when not included in the experimental data
#
###############################################################################

data_MAVNAB
_chemical_formula_moiety         '(C85 H77 N32 O24 Zn4)n'
_symmetry_cell_setting           triclinic
_symmetry_space_group_name_H-M   'P 1'
_symmetry_Int_Tables_number      1
_space_group_name_Hall           'P 1'
loop_
_symmetry_equiv_pos_site_id
_symmetry_equiv_pos_as_xyz
1 x,y,z
_cell_length_a                   14.0656(5)
_cell_length_b                   14.0656(5)
_cell_length_c                   15.9629(11)
_cell_angle_alpha                90
_cell_angle_beta                 90
_cell_angle_gamma                90
_cell_volume                     3158.12
loop_
_atom_site_label
_atom_site_type_symbol
_atom_site_fract_x
_atom_site_fract_y
_atom_site_fract_z
O5 O 0.3510(7) 0.6476(6) 0.0036(4)
H12 H 0.2266 0.5236 0.0054
Zn1 Zn 0.50506(4) 0.23068(4) 0.41039(4)
O1 O 0.6681(4) 0.4057(4) 0.1236(3)
N1 N 0.4531(3) 0.1785(3) 0.3013(3)
N2 N 0.3968(4) 0.3008(4) 0.4675(4)
C1 C 0.3894(4) 0.1089(4) 0.2898(3)
C2 C 0.4311(4) 0.1456(4) 0.1654(4)
C3 C 0.4465(6) 0.1511(6) 0.0771(4)
H1 H 0.4148 0.1121 0.0393
N3 N 0.3722(3) 0.0851(3) 0.2112(3)
C4 C 0.3839(5) 0.3839(5) 0.5000
C5 C 0.5624(5) 0.2756(5) 0.1072(4)
C6 C 0.4806(4) 0.2043(4) 0.2207(3)
C7 C 0.3463(5) 0.0564(5) 0.3642(4)
H2 H 0.3474 0.0976 0.4137
C8 C 0.6297(6) 0.3499(6) 0.0713(4)
C9 C 0.5454(5) 0.2698(4) 0.1909(4)
H3 H 0.5773 0.3097 0.2279
N4 N 0.3116(6) 0.2587(6) 0.4781(8)
C10 C 0.5125(6) 0.2190(5) 0.0516(4)
O3 O 0.2533(7) 0.0319(7) 0.3454(8)
H5 H 0.2265 0.0772 0.3234
N5 N 0.3008(4) 0.3968(4) 0.5325(4)
N6 N 0.2587(6) 0.3116(6) 0.5219(8)
Zn2 Zn 0.23068(4) 0.50506(4) 0.58961(4)
O4 O 0.4057(4) 0.6681(4) 0.8764(3)
N7 N 0.1785(3) 0.4531(3) 0.6987(3)
C12 C 0.1089(4) 0.3894(4) 0.7102(3)
C13 C 0.1456(4) 0.4311(4) 0.8346(4)
C14 C 0.1511(6) 0.4465(6) 0.9229(4)
H9 H 0.1121 0.4148 0.9607
N8 N 0.0851(3) 0.3722(3) 0.7888(3)
C15 C 0.2756(5) 0.5624(5) 0.8928(4)
C16 C 0.2043(4) 0.4806(4) 0.7793(3)
C17 C 0.0564(5) 0.3463(5) 0.6358(4)
H10 H 0.0976 0.3474 0.5863
C18 C 0.3499(6) 0.6297(6) 0.9287(4)
C19 C 0.2698(4) 0.5454(5) 0.8091(4)
H11 H 0.3097 0.5773 0.7721
C20 C 0.2190(5) 0.5125(6) 0.9484(4)
O6 O 0.0319(7) 0.2533(7) 0.6546(8)
H13 H 0.0772 0.2265 0.6766
Zn3 Zn 0.49494(4) 0.76932(4) 0.91039(4)
Zn4 Zn 0.26932(4) 0.00506(4) 0.16039(4)
Zn5 Zn 0.00506(4) 0.26932(4) 0.83961(4)
Zn6 Zn 0.76932(4) 0.49494(4) 0.08961(4)
O7 O 0.3319(4) 0.5943(4) 0.6236(3)
O8 O 0.5943(4) 0.3319(4) 0.3764(3)
N9 N 0.5851(3) 0.1278(3) 0.4612(3)
N10 N 0.1278(3) 0.5851(3) 0.5388(3)
H17 H 0.438646 0.438646 0.5
H18 H 0.292806 0.194373 0.45452
C4_2 C 0.6161(5) 0.6161(5) 0.0000
N5_2 N 0.6992(4) 0.6032(4) 0.0325(4)
N6_2 N 0.7413(6) 0.6884(6) 0.0219(8)
N7_2 N 0.8215(3) 0.5469(3) 0.1987(3)
C12_2 C 0.8911(4) 0.6106(4) 0.2102(3)
C13_2 C 0.8544(4) 0.5689(4) 0.3346(4)
C14_2 C 0.8489(6) 0.5535(6) 0.4229(4)
H9_2 H 0.8879 0.5852 0.4607
N8_2 N 0.9149(3) 0.6278(3) 0.2888(3)
C15_2 C 0.7244(5) 0.4376(5) 0.3928(4)
C16_2 C 0.7957(4) 0.5194(4) 0.2793(3)
C17_2 C 0.9436(5) 0.6537(5) 0.1358(4)
H10_2 H 0.9024 0.6526 0.0863
C18_2 C 0.6501(6) 0.3703(6) 0.4287(4)
C19_2 C 0.7302(4) 0.4546(5) 0.3091(4)
H11_2 H 0.6903 0.4227 0.2721
O5_2 O 0.6490(7) 0.3524(6) 0.5036(4)
C20_2 C 0.7810(5) 0.4875(6) 0.4484(4)
H12_2 H 0.7734 0.4764 0.5054
O6_2 O 0.9681(7) 0.7467(7) 0.1546(8)
H13_2 H 0.9228 0.7735 0.1766
Zn5_2 Zn 0.99494(4) 0.73068(4) 0.33961(4)
N10_2 N 0.8722(3) 0.4149(3) 0.0388(3)
H17_2 H 0.561354 0.561354 2.22045e-16
N1_2 N 0.5469(3) 0.8215(3) 0.8013(3)
N2_2 N 0.6032(4) 0.6992(4) 0.9675(4)
C1_2 C 0.6106(4) 0.8911(4) 0.7898(3)
C2_2 C 0.5689(4) 0.8544(4) 0.6654(4)
C3_2 C 0.5535(6) 0.8489(6) 0.5771(4)
H1_2 H 0.5852 0.8879 0.5393
N3_2 N 0.6278(3) 0.9149(3) 0.7112(3)
C4_3 C 0.6161(5) 0.6161(5) 1.0000
C5_2 C 0.4376(5) 0.7244(5) 0.6072(4)
C6_2 C 0.5194(4) 0.7957(4) 0.7207(3)
C7_2 C 0.6537(5) 0.9436(5) 0.8642(4)
H2_2 H 0.6526 0.9024 0.9137
C8_2 C 0.3703(6) 0.6501(6) 0.5713(4)
C9_2 C 0.4546(5) 0.7302(4) 0.6909(4)
H3_2 H 0.4227 0.6903 0.7279
O2 O 0.3524(6) 0.6490(7) 0.4964(4)
N4_2 N 0.6884(6) 0.7413(6) 0.9781(8)
C10_2 C 0.4875(6) 0.7810(5) 0.5516(4)
H4 H 0.4764 0.7734 0.4946
O3_2 O 0.7467(7) 0.9681(7) 0.8454(8)
H5_2 H 0.7735 0.9228 0.8234
Zn4_2 Zn 0.73068(4) 0.99494(4) 0.66039(4)
N9_2 N 0.4149(3) 0.8722(3) 0.9612(3)
H17_3 H 0.561354 0.561354 1
H18_2 H 0.707194 0.805627 0.95452
O8_2 O 0.1681(4) 0.0943(4) 0.1264(3)
O1_2 O 0.0943(4) 0.1681(4) 0.8736(3)
C5_3 C 0.2244(5) 0.0624(5) 0.8572(4)
C8_3 C 0.1501(6) 0.1297(6) 0.8213(4)
C9_3 C 0.2302(4) 0.0454(5) 0.9409(4)
H3_3 H 0.1903 0.0773 0.9779
O2_2 O 0.1490(7) 0.1476(6) 0.7464(4)
C10_3 C 0.2810(5) 0.0125(6) 0.8016(4)
H4_2 H 0.2734 0.0236 0.7446
N1_3 N 0.3215(3) 0.9531(3) 0.0513(3)
N2_3 N 0.1992(4) 0.8968(4) 0.2175(4)
C1_3 C 0.3911(4) 0.8894(4) 0.0398(3)
C4_4 C 0.1161(5) 0.8839(5) 0.2500
C7_3 C 0.4436(5) 0.8463(5) 0.1142(4)
H2_3 H 0.4024 0.8474 0.1637
N4_3 N 0.2413(6) 0.8116(6) 0.2281(8)
O3_3 O 0.4681(7) 0.7533(7) 0.0954(8)
H5_3 H 0.4228 0.7265 0.0734
C11 C 0.5358(7) 0.8957(6) 0.1337(6)
H6 H 0.5235 0.9610 0.1474
H7 H 0.5659 0.8650 0.1805
H8 H 0.5770 0.8926 0.0858
N5_3 N 0.1032(4) 0.8008(4) 0.2825(4)
N6_3 N 0.1884(6) 0.7587(6) 0.2719(8)
N7_3 N 0.0469(3) 0.6785(3) 0.4487(3)
C12_3 C 0.1106(4) 0.6089(4) 0.4602(3)
C13_3 C 0.0689(4) 0.6456(4) 0.5846(4)
C14_3 C 0.0535(6) 0.6511(6) 0.6729(4)
H9_3 H 0.0852 0.6121 0.7107
C16_3 C 0.0194(4) 0.7043(4) 0.5293(3)
C17_3 C 0.1537(5) 0.5564(5) 0.3858(4)
H10_3 H 0.1526 0.5976 0.3363
O6_3 O 0.2467(7) 0.5319(7) 0.4046(8)
H13_3 H 0.2735 0.5772 0.4266
C21 C 0.1043(6) 0.4642(7) 0.3663(6)
H14 H 0.0390 0.4765 0.3526
H15 H 0.1350 0.4341 0.3195
H16 H 0.1074 0.4230 0.4142
H17_4 H 0.0613537 0.938646 0.25
H18_3 H 0.305627 0.792806 0.20452
C2_3 C 0.3544(4) 0.9311(4) 0.9154(4)
C3_3 C 0.3489(6) 0.9465(6) 0.8271(4)
H1_3 H 0.3879 0.9148 0.7893
C6_3 C 0.2957(4) 0.9806(4) 0.9707(3)
O4_2 O 0.8319(4) 0.9057(4) 0.6264(3)
C15_3 C 0.9376(5) 0.7756(5) 0.6428(4)
C18_3 C 0.8703(6) 0.8499(6) 0.6787(4)
C19_3 C 0.9546(5) 0.7698(4) 0.5591(4)
H11_3 H 0.9227 0.8097 0.5221
O5_3 O 0.8524(6) 0.8510(7) 0.7536(4)
C20_3 C 0.9875(6) 0.7190(5) 0.6984(4)
H12_3 H 0.9764 0.7266 0.7554
O7_2 O 0.9057(4) 0.8319(4) 0.3736(3)
C15_4 C 0.0624(5) 0.2244(5) 0.1428(4)
C18_4 C 0.1297(6) 0.1501(6) 0.1787(4)
C19_4 C 0.0454(5) 0.2302(4) 0.0591(4)
H11_4 H 0.0773 0.1903 0.0221
O5_4 O 0.1476(6) 0.1490(7) 0.2536(4)
C20_4 C 0.0125(6) 0.2810(5) 0.1984(4)
H12_4 H 0.0236 0.2734 0.2554
C13_4 C 0.9311(4) 0.3544(4) 0.0846(4)
C14_4 C 0.9465(6) 0.3489(6) 0.1729(4)
H9_4 H 0.9148 0.3879 0.2107
C16_4 C 0.9806(4) 0.2957(4) 0.0293(3)
N1_4 N 0.6785(3) 0.0469(3) 0.5513(3)
N2_4 N 0.8008(4) 0.1032(4) 0.7175(4)
C1_4 C 0.6089(4) 0.1106(4) 0.5398(3)
C2_4 C 0.6456(4) 0.0689(4) 0.4154(4)
C3_4 C 0.6511(6) 0.0535(6) 0.3271(4)
H1_4 H 0.6121 0.0852 0.2893
C4_5 C 0.8839(5) 0.1161(5) 0.7500
C6_4 C 0.7043(4) 0.0194(4) 0.4707(3)
C7_4 C 0.5564(5) 0.1537(5) 0.6142(4)
H2_4 H 0.5976 0.1526 0.6637
N4_4 N 0.7587(6) 0.1884(6) 0.7281(8)
O3_4 O 0.5319(7) 0.2467(7) 0.5954(8)
H5_4 H 0.5772 0.2735 0.5734
C11_2 C 0.4642(7) 0.1043(6) 0.6337(6)
H6_2 H 0.4765 0.0390 0.6474
H7_2 H 0.4341 0.1350 0.6805
H8_2 H 0.4230 0.1074 0.5858
N5_4 N 0.8968(4) 0.1992(4) 0.7825(4)
N6_4 N 0.8116(6) 0.2413(6) 0.7719(8)
N7_4 N 0.9531(3) 0.3215(3) 0.9487(3)
C12_4 C 0.8894(4) 0.3911(4) 0.9602(3)
C17_4 C 0.8463(5) 0.4436(5) 0.8858(4)
H10_4 H 0.8474 0.4024 0.8363
O6_4 O 0.7533(7) 0.4681(7) 0.9046(8)
H13_4 H 0.7265 0.4228 0.9266
C21_2 C 0.8957(6) 0.5358(7) 0.8663(6)
H14_2 H 0.9610 0.5235 0.8526
H15_2 H 0.8650 0.5659 0.8195
H16_2 H 0.8926 0.5770 0.9142
H17_5 H 0.938646 0.0613537 0.75
H18_4 H 0.694373 0.207194 0.70452
C5_4 C 0.7756(5) 0.9376(5) 0.3572(4)
C8_4 C 0.8499(6) 0.8703(6) 0.3213(4)
C9_4 C 0.7698(4) 0.9546(5) 0.4409(4)
H3_4 H 0.8097 0.9227 0.4779
O2_3 O 0.8510(7) 0.8524(6) 0.2464(4)
C10_4 C 0.7190(5) 0.9875(6) 0.3016(4)
H4_3 H 0.7266 0.9764 0.2446
H18_5 H 0.207194 0.694373 0.29548
H18_6 H 0.792806 0.305627 0.79548
H18_7 H 0.194373 0.292806 0.54548
H18_8 H 0.805627 0.707194 0.0454796
O2_4 O 0.6476(6) 0.3510(7) 0.9964(4)
H4_4 H 0.5236 0.2266 0.9946
C11_3 C 0.3957(6) 0.9642(7) 0.3837(6)
H6_3 H 0.4610 0.9765 0.3974
H7_3 H 0.3650 0.9341 0.4305
H8_3 H 0.3926 0.9230 0.3358
C21_3 C 0.9642(7) 0.3957(6) 0.6163(6)
H14_3 H 0.9765 0.4610 0.6026
H15_3 H 0.9341 0.3650 0.5695
H16_3 H 0.9230 0.3926 0.6642
C21_4 C 0.0358(7) 0.6043(6) 0.1163(6)
H14_4 H 0.0235 0.5390 0.1026
H15_4 H 0.0659 0.6350 0.0695
H16_4 H 0.0770 0.6074 0.1642
C11_4 C 0.6043(6) 0.0358(7) 0.8837(6)
H6_4 H 0.5390 0.0235 0.8974
H7_4 H 0.6350 0.0659 0.9305
H8_4 H 0.6074 0.0770 0.8358
loop_
_geom_bond_atom_site_label_1
_geom_bond_atom_site_label_2
_geom_bond_site_symmetry_1
_geom_bond_site_symmetry_2
Zn1 N1 1_555 1_555
O1 C8 1_555 1_555
N1 C1 1_555 1_555
N2 Zn1 1_555 1_555
C1 N3 1_555 1_555
C2 C3 1_555 1_555
C3 H1 1_555 1_555
N3 C2 1_555 1_555
C4 N2 1_555 1_555
C5 C8 1_555 1_555
C6 N1 1_555 1_555
C7 C1 1_555 1_555
H2 C7 1_555 1_555
C9 C5 1_555 1_555
H3 C9 1_555 1_555
N4 N2 1_555 1_555
C10 C3 1_555 1_555
O3 C7 1_555 1_555
H5 O3 1_555 1_555
N5 C4 1_555 1_555
N6 N4 1_555 1_555
Zn2 N5 1_555 1_555
O4 C18 1_555 1_555
N7 Zn2 1_555 1_555
C12 N7 1_555 1_555
C13 C14 1_555 1_555
C14 H9 1_555 1_555
N8 C12 1_555 1_555
C15 C18 1_555 1_555
C16 N7 1_555 1_555
C17 C12 1_555 1_555
H10 C17 1_555 1_555
C19 C15 1_555 1_555
H11 C19 1_555 1_555
C20 C14 1_555 1_555
O6 C17 1_555 1_555
H13 O6 1_555 1_555
Zn3 O4 1_555 1_555
Zn4 N3 1_555 1_555
Zn5 N8 1_555 1_555
Zn6 O1 1_555 1_555
O7 Zn2 1_555 1_555
O8 Zn1 1_555 1_555
N9 Zn1 1_555 1_555
N10 Zn2 1_555 1_555
C2 C6 1_555 1_555
C5 C10 1_555 1_555
C6 C9 1_555 1_555
N5 N6 1_555 1_555
C13 N8 1_555 1_555
C13 C16 1_555 1_555
C15 C20 1_555 1_555
C16 C19 1_555 1_555
C4 H17 1_555 1_555
N4 H18 1_555 1_555
N5_2 C4_2 1_555 1_555
Zn6 N5_2 1_555 1_555
O8 C18_2 1_555 1_555
N7_2 Zn6 1_555 1_555
C12_2 N7_2 1_555 1_555
C13_2 C14_2 1_555 1_555
C14_2 H9_2 1_555 1_555
N8_2 C12_2 1_555 1_555
C15_2 C18_2 1_555 1_555
C16_2 N7_2 1_555 1_555
C17_2 C12_2 1_555 1_555
H10_2 C17_2 1_555 1_555
C18_2 O5_2 1_555 1_555
C19_2 C15_2 1_555 1_555
H11_2 C19_2 1_555 1_555
C20_2 C14_2 1_555 1_555
H12_2 C20_2 1_555 1_555
O6_2 C17_2 1_555 1_555
H13_2 O6_2 1_555 1_555
Zn5_2 N8_2 1_555 1_555
N10_2 Zn6 1_555 1_555
N5_2 N6_2 1_555 1_555
C13_2 N8_2 1_555 1_555
C13_2 C16_2 1_555 1_555
C15_2 C20_2 1_555 1_555
C16_2 C19_2 1_555 1_555
C4_2 H17_2 1_555 1_555
Zn3 N1_2 1_555 1_555
O7 C8_2 1_555 1_555
N1_2 C1_2 1_555 1_555
N2_2 Zn3 1_555 1_555
C1_2 N3_2 1_555 1_555
C2_2 C3_2 1_555 1_555
C3_2 H1_2 1_555 1_555
N3_2 C2_2 1_555 1_555
C4_3 N2_2 1_555 1_555
C5_2 C8_2 1_555 1_555
C6_2 N1_2 1_555 1_555
C7_2 C1_2 1_555 1_555
H2_2 C7_2 1_555 1_555
C8_2 O2 1_555 1_555
C9_2 C5_2 1_555 1_555
H3_2 C9_2 1_555 1_555
N4_2 N2_2 1_555 1_555
C10_2 C3_2 1_555 1_555
H4 C10_2 1_555 1_555
O3_2 C7_2 1_555 1_555
H5_2 O3_2 1_555 1_555
Zn4_2 N3_2 1_555 1_555
N9_2 Zn3 1_555 1_555
C2_2 C6_2 1_555 1_555
C5_2 C10_2 1_555 1_555
C6_2 C9_2 1_555 1_555
C4_3 H17_3 1_555 1_555
N4_2 H18_2 1_555 1_555
O8_2 Zn4 1_555 1_555
O1_2 C8_3 1_555 1_555
C5_3 C8_3 1_555 1_555
C8_3 O2_2 1_555 1_555
C9_3 C5_3 1_555 1_555
H3_3 C9_3 1_555 1_555
H4_2 C10_3 1_555 1_555
Zn5 O1_2 1_555 1_555
C5_3 C10_3 1_555 1_555
N1_3 C1_3 1_555 1_555
C4_4 N2_3 1_555 1_555
C7_3 C1_3 1_555 1_555
H2_3 C7_3 1_555 1_555
N4_3 N2_3 1_555 1_555
O3_3 C7_3 1_555 1_555
H5_3 O3_3 1_555 1_555
C11 C7_3 1_555 1_555
H6 C11 1_555 1_555
H7 C11 1_555 1_555
H8 C11 1_555 1_555
N5_3 C4_4 1_555 1_555
N6_3 N4_3 1_555 1_555
C12_3 N7_3 1_555 1_555
C13_3 C14_3 1_555 1_555
C14_3 H9_3 1_555 1_555
N10 C12_3 1_555 1_555
C16_3 N7_3 1_555 1_555
C17_3 C12_3 1_555 1_555
H10_3 C17_3 1_555 1_555
O6_3 C17_3 1_555 1_555
H13_3 O6_3 1_555 1_555
C21 C17_3 1_555 1_555
H14 C21 1_555 1_555
H15 C21 1_555 1_555
H16 C21 1_555 1_555
N5_3 N6_3 1_555 1_555
C13_3 N10 1_555 1_555
C13_3 C16_3 1_555 1_555
C4_4 H17_4 1_555 1_555
N4_3 H18_3 1_555 1_555
C2_3 C3_3 1_555 1_555
C3_3 H1_3 1_555 1_555
N9_2 C2_3 1_555 1_555
C2_3 C6_3 1_555 1_555
O4_2 C18_3 1_555 1_555
C15_3 C18_3 1_555 1_555
C18_3 O5_3 1_555 1_555
C19_3 C15_3 1_555 1_555
H11_3 C19_3 1_555 1_555
H12_3 C20_3 1_555 1_555
Zn4_2 O4_2 1_555 1_555
O7_2 Zn5_2 1_555 1_555
C15_3 C20_3 1_555 1_555
O8_2 C18_4 1_555 1_555
C15_4 C18_4 1_555 1_555
C18_4 O5_4 1_555 1_555
C19_4 C15_4 1_555 1_555
H11_4 C19_4 1_555 1_555
H12_4 C20_4 1_555 1_555
C15_4 C20_4 1_555 1_555
C13_4 C14_4 1_555 1_555
C14_4 H9_4 1_555 1_555
C13_4 N10_2 1_555 1_555
C13_4 C16_4 1_555 1_555
N1_4 C1_4 1_555 1_555
C1_4 N9 1_555 1_555
C2_4 C3_4 1_555 1_555
C3_4 H1_4 1_555 1_555
N9 C2_4 1_555 1_555
C4_5 N2_4 1_555 1_555
C6_4 N1_4 1_555 1_555
C7_4 C1_4 1_555 1_555
H2_4 C7_4 1_555 1_555
N4_4 N2_4 1_555 1_555
O3_4 C7_4 1_555 1_555
H5_4 O3_4 1_555 1_555
C11_2 C7_4 1_555 1_555
H6_2 C11_2 1_555 1_555
H7_2 C11_2 1_555 1_555
H8_2 C11_2 1_555 1_555
N5_4 C4_5 1_555 1_555
N6_4 N4_4 1_555 1_555
C12_4 N7_4 1_555 1_555
C17_4 C12_4 1_555 1_555
H10_4 C17_4 1_555 1_555
O6_4 C17_4 1_555 1_555
H13_4 O6_4 1_555 1_555
C21_2 C17_4 1_555 1_555
H14_2 C21_2 1_555 1_555
H15_2 C21_2 1_555 1_555
H16_2 C21_2 1_555 1_555
C2_4 C6_4 1_555 1_555
N5_4 N6_4 1_555 1_555
C4_5 H17_5 1_555 1_555
N4_4 H18_4 1_555 1_555
O7_2 C8_4 1_555 1_555
C5_4 C8_4 1_555 1_555
C8_4 O2_3 1_555 1_555
C9_4 C5_4 1_555 1_555
H3_4 C9_4 1_555 1_555
H4_3 C10_4 1_555 1_555
C5_4 C10_4 1_555 1_555
N6_3 H18_5 1_555 1_555
N6_4 H18_6 1_555 1_555
N6 H18_7 1_555 1_555
N6_2 H18_8 1_555 1_555
H6_3 C11_3 1_555 1_555
H7_3 C11_3 1_555 1_555
H8_3 C11_3 1_555 1_555
H14_3 C21_3 1_555 1_555
H15_3 C21_3 1_555 1_555
H16_3 C21_3 1_555 1_555
H14_4 C21_4 1_555 1_555
H15_4 C21_4 1_555 1_555
H16_4 C21_4 1_555 1_555
H6_4 C11_4 1_555 1_555
H7_4 C11_4 1_555 1_555
H8_4 C11_4 1_555 1_555

#END
