
###############################################################################
#
# This file contains modified crystal structure data generated from the
# MOF subset of the Cambridge Structural Database (CSD) v543 
# hosted by the Cambridge Crystallographic Data Centre (CCDC).
#
# This work is licensed under the Creative Commons
# Attribution-NonCommercial-ShareAlike 4.0 International License.
# To view a copy of this license, visit
# http://creativecommons.org/licenses/by-nc-sa/4.0/
# or send a letter to
# Creative Commons, PO Box 1866, Mountain View, CA 94042, USA.
#
# CIF created using the CSD Python API on 29 September 2022
# The structure has been converted into the P1 space group
# The structure has a 3D framework
# The original CSD entry MAWMEG is in the monoclinic crystal system
# The framework has been calculated to contain at least 10.0% void space
# The void calculation uses a probe of radius 1.32A, grid spacing 0.4
# The framework is charged, counterions have been retained in the structure
# H atom positions have been added when not included in the experimental data
#
###############################################################################

data_MAWMEG
_chemical_formula_moiety         '(C92 H60 N44 O28 Zn12 12+)n'
_symmetry_cell_setting           triclinic
_symmetry_space_group_name_H-M   'P 1'
_symmetry_Int_Tables_number      1
_space_group_name_Hall           'P 1'
loop_
_symmetry_equiv_pos_site_id
_symmetry_equiv_pos_as_xyz
1 x,y,z
_cell_length_a                   17.600(5)
_cell_length_b                   7.638(2)
_cell_length_c                   24.027(9)
_cell_angle_alpha                90
_cell_angle_beta                 99.774(11)
_cell_angle_gamma                90
_cell_volume                     3183.04
loop_
_atom_site_label
_atom_site_type_symbol
_atom_site_fract_x
_atom_site_fract_y
_atom_site_fract_z
Zn9 Zn 0.000000 0.500000 0.500000
Zn1 Zn 0.30607(2) 0.18635(4) 0.63755(2)
O1 O 0.00886(13) 0.6892(3) 0.56911(10)
O2 O 0.28213(12) 0.4120(3) 0.70944(9)
N1 N 0.66648(13) 0.5263(3) 0.79492(8)
N2 N 0.40485(12) 0.3079(3) 0.62949(9)
N3 N 0.10144(11) 0.4099(3) 0.55147(9)
N4 N 0.65466(12) 0.3860(3) 0.71408(8)
N5 N 0.70097(12) 0.0192(3) 0.42100(8)
N6 N 0.52670(12) 0.3518(3) 0.62408(9)
N7 N 0.20769(12) 0.3051(3) 0.60616(9)
N8 N 0.82848(12) 0.2510(3) 0.58103(9)
N9 N 0.70086(13) 0.1856(3) 0.49602(8)
O3 O 0.19740(15) 0.6292(4) 0.71430(10)
O4 O 0.08004(17) 0.7446(4) 0.65362(11)
N10 N 0.93226(13) 0.3300(4) 0.54640(11)
C1 C 0.69212(14) 0.5150(3) 0.74638(9)
H1 H 0.730405 0.585566 0.735934
C2 C 0.11567(14) 0.5080(3) 0.60006(11)
C3 C 0.15769(14) 0.2907(4) 0.55715(11)
H2 H 0.162009 0.206116 0.530016
C4 C 0.18101(13) 0.4441(3) 0.63376(10)
C5 C 0.46809(13) 0.2356(3) 0.61625(10)
H3 H 0.471476 0.121411 0.603441
C6 C 0.66625(14) 0.3388(3) 0.65850(9)
C7 C 0.22382(16) 0.4967(4) 0.69012(11)
C8 C 0.60347(13) 0.3173(3) 0.61496(10)
C9 C 0.60986(15) 0.3994(4) 0.79366(10)
H4 H 0.581677 0.378132 0.822382
C10 C 0.68107(15) 0.0282(4) 0.47193(10)
C11 C 0.68934(14) 0.2388(4) 0.55129(10)
C12 C 0.75259(14) 0.2666(4) 0.59406(10)
C13 C 0.74116(14) 0.3148(4) 0.64787(10)
H6 H 0.783160 0.331019 0.676600
C14 C 0.60199(17) 0.3113(4) 0.74409(11)
H7 H 0.568249 0.219595 0.732512
C15 C 0.87040(14) 0.3866(4) 0.56515(12)
H8 H 0.857101 0.503974 0.567252
C16 C 0.42447(16) 0.4776(4) 0.64662(14)
H9 H 0.391186 0.558948 0.658362
C17 C 0.73578(18) 0.1766(4) 0.41278(11)
H10 H 0.755904 0.206706 0.380704
C18 C 0.61465(14) 0.2642(4) 0.56114(10)
C19 C 0.73626(19) 0.2812(4) 0.45870(11)
H11 H 0.756280 0.393806 0.463929
C20 C 0.06434(17) 0.6569(4) 0.60760(13)
C21 C 0.50017(17) 0.5070(4) 0.64362(14)
H12 H 0.528019 0.609491 0.652760
C22 C 0.93063(19) 0.1498(5) 0.55053(15)
H13 H 0.967544 0.074677 0.540374
C23 C 0.86708(19) 0.0980(4) 0.57164(14)
Zn5 Zn 0.69393(2) 0.68635(4) 0.86245(2)
Zn9_2 Zn 1.000000 0.500000 0.500000
N21 N 0.33352(13) 0.0263(3) 0.70508(8)
N26 N 0.06774(13) 0.6700(4) 0.45360(11)
H29 H 0.565564 0.243186 0.527576
H5 H 0.656949 0.938880 0.488642
H14 H 0.852569 0.983865 0.578366
Zn6 Zn 0.69393(2) 0.81365(4) 0.36245(2)
N24 N 0.29903(12) 0.9808(3) 0.57900(8)
H19 H 0.343051 0.061120 0.511358
H28 H 0.147431 0.016135 0.421634
O5 O 0.99114(13) 0.3108(3) 0.43089(10)
O6 O 0.71787(12) 0.5880(3) 0.29056(9)
N11 N 0.33352(13) 0.4737(3) 0.20508(8)
N12 N 0.59515(12) 0.6921(3) 0.37051(9)
N13 N 0.89856(11) 0.5901(3) 0.44853(9)
N14 N 0.34534(12) 0.6140(3) 0.28592(8)
N16 N 0.47330(12) 0.6482(3) 0.37592(9)
N17 N 0.79231(12) 0.6949(3) 0.39384(9)
N18 N 0.17152(12) 0.7490(3) 0.41897(9)
N19 N 0.29914(13) 0.8144(3) 0.50398(8)
O7 O 0.80260(15) 0.3708(4) 0.28570(10)
O8 O 0.91996(17) 0.2554(4) 0.34638(11)
C24 C 0.30788(14) 0.4850(3) 0.25362(9)
H15 H 0.269595 0.414434 0.264066
C25 C 0.88433(14) 0.4920(3) 0.39994(11)
C26 C 0.84231(14) 0.7093(4) 0.44285(11)
H16 H 0.837991 0.793884 0.469984
C27 C 0.81899(13) 0.5559(3) 0.36624(10)
C28 C 0.53191(13) 0.7644(3) 0.38375(10)
H17 H 0.528524 0.878589 0.396559
C29 C 0.33375(14) 0.6612(3) 0.34150(9)
C30 C 0.77618(16) 0.5033(4) 0.30988(11)
C31 C 0.39653(13) 0.6827(3) 0.38504(10)
C32 C 0.39014(15) 0.6006(4) 0.20634(10)
H18 H 0.418323 0.621868 0.177618
C33 C 0.31893(15) 0.9718(4) 0.52807(10)
C34 C 0.31066(14) 0.7612(4) 0.44871(10)
C35 C 0.24741(14) 0.7334(4) 0.40594(10)
C36 C 0.25884(14) 0.6852(4) 0.35213(10)
H20 H 0.216840 0.668981 0.323400
C37 C 0.39801(17) 0.6887(4) 0.25591(11)
H21 H 0.431751 0.780405 0.267488
C38 C 0.12960(14) 0.6134(4) 0.43485(12)
H22 H 0.142899 0.496026 0.432748
C39 C 0.57553(16) 0.5224(4) 0.35338(14)
H23 H 0.608814 0.441052 0.341638
C40 C 0.26422(18) 0.8234(4) 0.58722(11)
H24 H 0.244096 0.793294 0.619296
C41 C 0.38535(14) 0.7358(4) 0.43886(10)
C42 C 0.26374(19) 0.7188(4) 0.54130(11)
H25 H 0.243720 0.606194 0.536071
C43 C 0.93566(17) 0.3431(4) 0.39240(13)
C44 C 0.49983(17) 0.4930(4) 0.35638(14)
H26 H 0.471981 0.390509 0.347240
C45 C 0.06937(19) 0.8502(5) 0.44947(15)
H27 H 0.032456 0.925323 0.459626
C46 C 0.13292(19) 0.9020(4) 0.42836(14)
Zn7 Zn 0.30607(2) 0.31365(4) 0.13755(2)
N22 N 0.66648(13) 0.9737(3) 0.29492(8)
H30 H 0.434436 0.756814 0.472424
Zn8 Zn 0.000000 0.000000 0.000000
Zn8_2 Zn 0.000000 0.000000 1.000000
Zn8_3 Zn 0.000000 1.000000 0.000000
Zn8_4 Zn 0.000000 1.000000 1.000000
O6_2 O 0.28213(12) 0.0880(3) 0.20944(9)
N12_2 N 0.40485(12) 0.1921(3) 0.12949(9)
N13_2 N 0.10144(11) 0.0901(3) 0.05147(9)
N14_2 N 0.65466(12) 0.1140(3) 0.21408(8)
N16_2 N 0.52670(12) 0.1482(3) 0.12408(9)
N17_2 N 0.20769(12) 0.1949(3) 0.10616(9)
N18_2 N 0.82848(12) 0.2490(3) 0.08103(9)
N20 N 0.93226(13) 0.1700(4) 0.04640(11)
C26_2 C 0.15769(14) 0.2093(4) 0.05715(11)
H16_2 H 0.162009 0.293884 0.030016
C27_2 C 0.18101(13) 0.0559(3) 0.13376(10)
C28_2 C 0.46809(13) 0.2644(3) 0.11625(10)
H17_2 H 0.471476 0.378589 0.103441
C29_2 C 0.66625(14) 0.1612(3) 0.15850(9)
C30_2 C 0.22382(16) 0.0033(4) 0.19012(11)
C31_2 C 0.60347(13) 0.1827(3) 0.11496(10)
C32_2 C 0.60986(15) 0.1006(4) 0.29366(10)
H18_2 H 0.581677 0.121868 0.322382
C34_2 C 0.68934(14) 0.2612(4) 0.05129(10)
C35_2 C 0.75259(14) 0.2334(4) 0.09406(10)
C36_2 C 0.74116(14) 0.1852(4) 0.14787(10)
H20_2 H 0.783160 0.168981 0.176600
C37_2 C 0.60199(17) 0.1887(4) 0.24409(11)
H21_2 H 0.568249 0.280405 0.232512
C38_2 C 0.87040(14) 0.1134(4) 0.06515(12)
C39_2 C 0.42447(16) 0.0224(4) 0.14662(14)
C41_2 C 0.61465(14) 0.2358(4) 0.06114(10)
C45_2 C 0.93063(19) 0.3502(5) 0.05053(15)
H27_2 H 0.967544 0.425323 0.040374
C46_2 C 0.86708(19) 0.4020(4) 0.07164(14)
H28_2 H 0.852569 0.516135 0.078366
Zn8_5 Zn 1.000000 0.000000 0.000000
N23 N 0.29903(12) 0.5192(3) 0.07900(8)
H30_2 H 0.565564 0.256814 0.0275757
N15 N 0.70097(12) 0.4808(3) 0.92100(8)
N19_2 N 0.70086(13) 0.3144(3) 0.99602(8)
C33_2 C 0.68107(15) 0.4718(4) 0.97193(10)
H19_2 H 0.656949 0.561120 0.988642
C40_2 C 0.73578(18) 0.3234(4) 0.91278(11)
H24_2 H 0.755904 0.293294 0.880704
C42_2 C 0.73626(19) 0.2188(4) 0.95870(11)
H25_2 H 0.756280 0.106194 0.963929
Zn8_6 Zn 1.000000 0.000000 1.000000
O5_2 O 0.00886(13) 0.8108(3) 0.06911(10)
O7_2 O 0.19740(15) 0.8708(4) 0.21430(10)
O8_2 O 0.08004(17) 0.7554(4) 0.15362(11)
C24_2 C 0.69212(14) 0.9850(3) 0.24638(9)
H15_2 H 0.730405 0.914434 0.235934
C25_2 C 0.11567(14) 0.9920(3) 0.10006(11)
H22_2 H 0.857101 0.996026 0.067252
H23_2 H 0.391186 0.941052 0.158362
C43_2 C 0.06434(17) 0.8431(4) 0.10760(13)
C44_2 C 0.50017(17) 0.9930(4) 0.14362(14)
H26_2 H 0.528019 0.890509 0.152760
Zn8_7 Zn 1.000000 1.000000 0.000000
Zn8_8 Zn 1.000000 1.000000 1.000000
N25 N 0.06774(13) 0.8300(4) 0.95360(11)
O1_2 O 0.99114(13) 0.1892(3) 0.93089(10)
O3_2 O 0.80260(15) 0.1292(4) 0.78570(10)
O4_2 O 0.91996(17) 0.2446(4) 0.84638(11)
C1_2 C 0.30788(14) 0.0150(3) 0.75362(9)
H1_2 H 0.269595 0.085566 0.764066
C2_2 C 0.88433(14) 0.0080(3) 0.89994(11)
H8_2 H 0.142899 0.003974 0.932748
H9_2 H 0.608814 0.058948 0.841638
C20_2 C 0.93566(17) 0.1569(4) 0.89240(13)
C21_2 C 0.49983(17) 0.0070(4) 0.85638(14)
H12_2 H 0.471981 0.109491 0.847240
N9_2 N 0.29914(13) 0.6856(3) 0.00398(8)
C10_2 C 0.31893(15) 0.5282(4) 0.02807(10)
H5_2 H 0.343051 0.438880 0.011358
C17_2 C 0.26422(18) 0.6766(4) 0.08722(11)
H10_2 H 0.244096 0.706706 0.119296
C19_2 C 0.26374(19) 0.7812(4) 0.04130(11)
H11_2 H 0.243720 0.893806 0.036071
O2_2 O 0.71787(12) 0.9120(3) 0.79056(9)
N2_2 N 0.59515(12) 0.8079(3) 0.87051(9)
N3_2 N 0.89856(11) 0.9099(3) 0.94853(9)
N4_2 N 0.34534(12) 0.8860(3) 0.78592(8)
N6_2 N 0.47330(12) 0.8518(3) 0.87592(9)
N7_2 N 0.79231(12) 0.8051(3) 0.89384(9)
N8_2 N 0.17152(12) 0.7510(3) 0.91897(9)
C3_2 C 0.84231(14) 0.7907(4) 0.94285(11)
H2_2 H 0.837991 0.706116 0.969984
C4_2 C 0.81899(13) 0.9441(3) 0.86624(10)
C5_2 C 0.53191(13) 0.7356(3) 0.88375(10)
H3_2 H 0.528524 0.621411 0.896559
C6_2 C 0.33375(14) 0.8388(3) 0.84150(9)
C7_2 C 0.77618(16) 0.9967(4) 0.80988(11)
C8_2 C 0.39653(13) 0.8173(3) 0.88504(10)
C9_2 C 0.39014(15) 0.8994(4) 0.70634(10)
H4_2 H 0.418323 0.878132 0.677618
C11_2 C 0.31066(14) 0.7388(4) 0.94871(10)
C12_2 C 0.24741(14) 0.7666(4) 0.90594(10)
C13_2 C 0.25884(14) 0.8148(4) 0.85213(10)
H6_2 H 0.216840 0.831019 0.823400
C14_2 C 0.39801(17) 0.8113(4) 0.75591(11)
H7_2 H 0.431751 0.719595 0.767488
C15_2 C 0.12960(14) 0.8866(4) 0.93485(12)
C16_2 C 0.57553(16) 0.9776(4) 0.85338(14)
C18_2 C 0.38535(14) 0.7642(4) 0.93886(10)
C22_2 C 0.06937(19) 0.6498(5) 0.94947(15)
H13_2 H 0.032456 0.574677 0.959626
C23_2 C 0.13292(19) 0.5980(4) 0.92836(14)
H14_2 H 0.147431 0.483865 0.921634
H29_2 H 0.434436 0.743186 0.972424
O9 O 0.4961(3) 0.8594(6) 0.5594(2)
N27 N 0.5576(3) 0.7954(7) 0.55444(18)
O10 O 0.5658(3) 0.7060(8) 0.51202(18)
O11 O 0.6200(4) 0.8146(11) 0.5919(2)
O9_2 O 0.5039(3) 0.3594(6) 0.9406(2)
N27_2 N 0.4424(3) 0.2954(7) 0.94556(18)
O10_2 O 0.4342(3) 0.2060(8) 0.98798(18)
O11_2 O 0.3800(4) 0.3146(11) 0.9081(2)
O9_3 O 0.5039(3) 0.1406(6) 0.4406(2)
N27_3 N 0.4424(3) 0.2046(7) 0.44556(18)
O10_3 O 0.4342(3) 0.2940(8) 0.48798(18)
O11_3 O 0.3800(4) 0.1854(11) 0.4081(2)
O9_4 O 0.4961(3) 0.6406(6) 0.0594(2)
N27_4 N 0.5576(3) 0.7046(7) 0.05444(18)
O10_4 O 0.5658(3) 0.7940(8) 0.01202(18)
O11_4 O 0.6200(4) 0.6854(11) 0.0919(2)
loop_
_geom_bond_atom_site_label_1
_geom_bond_atom_site_label_2
_geom_bond_site_symmetry_1
_geom_bond_site_symmetry_2
Zn1 O2 1_555 1_555
Zn9 O1 1_555 1_555
O1 C20 1_555 1_555
O2 C7 1_555 1_555
N1 C1 1_555 1_555
N2 Zn1 1_555 1_555
N3 Zn9 1_555 1_555
N4 C1 1_555 1_555
N5 C10 1_555 1_555
N6 C5 1_555 1_555
N7 Zn1 1_555 1_555
N8 C12 1_555 1_555
N9 C10 1_555 1_555
O3 C7 1_555 1_555
O4 C20 1_555 1_555
N10 C15 1_555 1_555
C1 H1 1_555 1_555
C2 N3 1_555 1_555
C3 N3 1_555 1_555
H2 C3 1_555 1_555
C4 N7 1_555 1_555
C5 N2 1_555 1_555
H3 C5 1_555 1_555
C6 N4 1_555 1_555
C7 C4 1_555 1_555
C8 N6 1_555 1_555
C9 N1 1_555 1_555
H4 C9 1_555 1_555
C11 N9 1_555 1_555
C12 C11 1_555 1_555
C13 C6 1_555 1_555
H6 C13 1_555 1_555
C14 N4 1_555 1_555
H7 C14 1_555 1_555
C15 N8 1_555 1_555
H8 C15 1_555 1_555
C16 N2 1_555 1_555
H9 C16 1_555 1_555
C17 N5 1_555 1_555
H10 C17 1_555 1_555
C18 C8 1_555 1_555
C19 N9 1_555 1_555
H11 C19 1_555 1_555
C20 C2 1_555 1_555
C21 N6 1_555 1_555
H12 C21 1_555 1_555
C22 N10 1_555 1_555
H13 C22 1_555 1_555
C23 N8 1_555 1_555
Zn5 N1 1_555 1_555
Zn9_2 N10 1_555 1_555
N21 Zn1 1_555 1_555
N26 Zn9 1_555 1_555
N7 C3 1_555 1_555
C2 C4 1_555 1_555
C6 C8 1_555 1_555
C9 C14 1_555 1_555
C11 C18 1_555 1_555
C12 C13 1_555 1_555
C16 C21 1_555 1_555
C17 C19 1_555 1_555
C22 C23 1_555 1_555
C18 H29 1_555 1_555
Zn6 O6 1_555 1_555
O5 Zn9_2 1_555 1_555
O6 C30 1_555 1_555
N11 C24 1_555 1_555
N12 Zn6 1_555 1_555
N13 Zn9_2 1_555 1_555
N14 C24 1_555 1_555
N24 C33 1_555 1_555
N16 C28 1_555 1_555
N17 Zn6 1_555 1_555
N18 C35 1_555 1_555
N19 C33 1_555 1_555
O7 C30 1_555 1_555
O8 C43 1_555 1_555
N26 C38 1_555 1_555
C24 H15 1_555 1_555
C25 N13 1_555 1_555
C26 N13 1_555 1_555
H16 C26 1_555 1_555
C27 N17 1_555 1_555
C28 N12 1_555 1_555
H17 C28 1_555 1_555
C29 N14 1_555 1_555
C30 C27 1_555 1_555
C31 N16 1_555 1_555
C32 N11 1_555 1_555
H18 C32 1_555 1_555
C34 N19 1_555 1_555
C35 C34 1_555 1_555
C36 C29 1_555 1_555
H20 C36 1_555 1_555
C37 N14 1_555 1_555
H21 C37 1_555 1_555
C38 N18 1_555 1_555
H22 C38 1_555 1_555
C39 N12 1_555 1_555
H23 C39 1_555 1_555
C40 N24 1_555 1_555
H24 C40 1_555 1_555
C41 C31 1_555 1_555
C42 N19 1_555 1_555
H25 C42 1_555 1_555
C43 O5 1_555 1_555
C44 N16 1_555 1_555
H26 C44 1_555 1_555
C45 N26 1_555 1_555
H27 C45 1_555 1_555
C46 N18 1_555 1_555
Zn7 N11 1_555 1_555
N22 Zn6 1_555 1_555
N17 C26 1_555 1_555
C25 C27 1_555 1_555
C25 C43 1_555 1_555
C29 C31 1_555 1_555
C32 C37 1_555 1_555
C34 C41 1_555 1_555
C35 C36 1_555 1_555
C39 C44 1_555 1_555
C40 C42 1_555 1_555
C45 C46 1_555 1_555
C41 H30 1_555 1_555
Zn7 O6_2 1_555 1_555
O6_2 C30_2 1_555 1_555
N12_2 Zn7 1_555 1_555
N13_2 Zn8 1_555 1_555
N16_2 C28_2 1_555 1_555
N17_2 Zn7 1_555 1_555
N18_2 C35_2 1_555 1_555
N20 C38_2 1_555 1_555
C26_2 N13_2 1_555 1_555
H16_2 C26_2 1_555 1_555
C27_2 N17_2 1_555 1_555
C28_2 N12_2 1_555 1_555
H17_2 C28_2 1_555 1_555
C29_2 N14_2 1_555 1_555
C30_2 C27_2 1_555 1_555
C31_2 N16_2 1_555 1_555
H18_2 C32_2 1_555 1_555
C35_2 C34_2 1_555 1_555
C36_2 C29_2 1_555 1_555
H20_2 C36_2 1_555 1_555
C37_2 N14_2 1_555 1_555
H21_2 C37_2 1_555 1_555
C38_2 N18_2 1_555 1_555
C39_2 N12_2 1_555 1_555
C41_2 C31_2 1_555 1_555
C45_2 N20 1_555 1_555
H27_2 C45_2 1_555 1_555
C46_2 N18_2 1_555 1_555
H28_2 C46_2 1_555 1_555
Zn8_5 N20 1_555 1_555
N23 Zn7 1_555 1_555
N17_2 C26_2 1_555 1_555
C29_2 C31_2 1_555 1_555
C32_2 C37_2 1_555 1_555
C34_2 C41_2 1_555 1_555
C35_2 C36_2 1_555 1_555
C45_2 C46_2 1_555 1_555
C41_2 H30_2 1_555 1_555
N15 C33_2 1_555 1_555
N19_2 C33_2 1_555 1_555
C33_2 H19_2 1_555 1_555
C40_2 N15 1_555 1_555
H24_2 C40_2 1_555 1_555
C42_2 N19_2 1_555 1_555
H25_2 C42_2 1_555 1_555
Zn5 N15 1_555 1_555
C40_2 C42_2 1_555 1_555
O5_2 Zn8_3 1_555 1_555
N22 C24_2 1_555 1_555
O8_2 C43_2 1_555 1_555
C24_2 H15_2 1_555 1_555
C43_2 O5_2 1_555 1_555
H26_2 C44_2 1_555 1_555
C25_2 C43_2 1_555 1_555
N25 Zn8_4 1_555 1_555
Zn8_6 O1_2 1_555 1_555
O1_2 C20_2 1_555 1_555
N21 C1_2 1_555 1_555
O4_2 C20_2 1_555 1_555
C1_2 H1_2 1_555 1_555
C20_2 C2_2 1_555 1_555
H12_2 C21_2 1_555 1_555
N23 C10_2 1_555 1_555
N9_2 C10_2 1_555 1_555
C10_2 H5_2 1_555 1_555
C17_2 N23 1_555 1_555
H10_2 C17_2 1_555 1_555
C19_2 N9_2 1_555 1_555
H11_2 C19_2 1_555 1_555
C17_2 C19_2 1_555 1_555
Zn5 O2_2 1_555 1_555
O2_2 C7_2 1_555 1_555
N2_2 Zn5 1_555 1_555
N3_2 Zn8_8 1_555 1_555
N6_2 C5_2 1_555 1_555
N7_2 Zn5 1_555 1_555
N8_2 C12_2 1_555 1_555
N25 C15_2 1_555 1_555
C3_2 N3_2 1_555 1_555
H2_2 C3_2 1_555 1_555
C4_2 N7_2 1_555 1_555
C5_2 N2_2 1_555 1_555
H3_2 C5_2 1_555 1_555
C6_2 N4_2 1_555 1_555
C7_2 C4_2 1_555 1_555
C8_2 N6_2 1_555 1_555
H4_2 C9_2 1_555 1_555
C12_2 C11_2 1_555 1_555
C13_2 C6_2 1_555 1_555
H6_2 C13_2 1_555 1_555
C14_2 N4_2 1_555 1_555
H7_2 C14_2 1_555 1_555
C15_2 N8_2 1_555 1_555
C16_2 N2_2 1_555 1_555
C18_2 C8_2 1_555 1_555
C22_2 N25 1_555 1_555
H13_2 C22_2 1_555 1_555
C23_2 N8_2 1_555 1_555
H14_2 C23_2 1_555 1_555
N7_2 C3_2 1_555 1_555
C6_2 C8_2 1_555 1_555
C9_2 C14_2 1_555 1_555
C11_2 C18_2 1_555 1_555
C12_2 C13_2 1_555 1_555
C22_2 C23_2 1_555 1_555
C18_2 H29_2 1_555 1_555
O9 N27 1_555 1_555
N27 O10 1_555 1_555
O11 N27 1_555 1_555
O9_2 N27_2 1_555 1_555
N27_2 O10_2 1_555 1_555
O11_2 N27_2 1_555 1_555
O9_3 N27_3 1_555 1_555
N27_3 O10_3 1_555 1_555
O11_3 N27_3 1_555 1_555
O9_4 N27_4 1_555 1_555
N27_4 O10_4 1_555 1_555
O11_4 N27_4 1_555 1_555

#END
