
###############################################################################
#
# This file contains modified crystal structure data generated from the
# MOF subset of the Cambridge Structural Database (CSD) v543 
# hosted by the Cambridge Crystallographic Data Centre (CCDC).
#
# This work is licensed under the Creative Commons
# Attribution-NonCommercial-ShareAlike 4.0 International License.
# To view a copy of this license, visit
# http://creativecommons.org/licenses/by-nc-sa/4.0/
# or send a letter to
# Creative Commons, PO Box 1866, Mountain View, CA 94042, USA.
#
# CIF created using the CSD Python API on 29 September 2022
# The structure has been converted into the P1 space group
# The structure has a 3D framework
# The original CSD entry MAYKEG is in the trigonal crystal system
# The framework has been calculated to contain at least 10.0% void space
# The void calculation uses a probe of radius 1.32A, grid spacing 0.4
#
###############################################################################

data_MAYKEG
_chemical_formula_moiety         '(C112 H96 Cd10 N18 O26)n'
_symmetry_cell_setting           triclinic
_symmetry_space_group_name_H-M   'P 1'
_symmetry_Int_Tables_number      1
_space_group_name_Hall           'P 1'
loop_
_symmetry_equiv_pos_site_id
_symmetry_equiv_pos_as_xyz
1 x,y,z
_cell_length_a                   19.3724(3)
_cell_length_b                   19.3724(3)
_cell_length_c                   9.8552(3)
_cell_angle_alpha                90
_cell_angle_beta                 90
_cell_angle_gamma                120
_cell_volume                     3203.04
loop_
_atom_site_label
_atom_site_type_symbol
_atom_site_fract_x
_atom_site_fract_y
_atom_site_fract_z
Cd4 Cd -0.000000 0.500000 0.500000
C21 C 0.0000(3) 0.3911(4) 0.0753(5)
H18 H 0.029048 0.396796 0.153797
C26 C 0.1594(6) 0.4192(9) 0.0609(10)
H20 H 0.172407 0.473469 0.073750
H21 H 0.207494 0.417087 0.048868
H22 H 0.131239 0.388258 0.138970
H23 H 0.041321 0.275926 0.033317
H24 H 0.131428 0.300145 0.023493
H45 H 0.025964 0.691147 0.588530
N21 N 0.0937(3) 0.4617(2) 0.4866(4)
O28 O 0.0520(3) 0.5742(4) 0.6861(4)
O35 O 0.09650(18) 0.61976(26) 0.3976(3)
H19 H 0.006755 0.378691 0.750359
C24 C 0.0310(4) 0.3865(6) 0.9511(6)
C25 C 0.1101(4) 0.3872(6) 0.9429(7)
C27 C 0.0879(8) 0.3000(10) 0.9767(15)
H25 H 0.077182 0.270012 0.894107
C28 C 0.1476(7) 0.4078(10) 0.8178(11)
H26 H 0.110946 0.374932 0.748657
H27 H 0.192770 0.399994 0.818874
H28 H 0.165060 0.462765 0.799107
Cd1 Cd 0.56108(2) 0.21078(2) 0.46755(3)
Cd2 Cd 0.500000 0.000000 0.500000
C1 C 0.4606(3) 0.0731(3) 0.0857(5)
C3 C 0.3911(3) -0.0000(3) 0.0753(5)
C11 C 0.4952(3) 0.1030(3) 0.2267(5)
C13 C 0.3924(3) 0.3023(3) 0.5491(5)
C14 C 0.3178(3) 0.2920(3) 0.5847(5)
H13 H 0.308853 0.334817 0.588530
C15 C 0.2589(4) 0.2162(4) 0.6136(6)
H14 H 0.208330 0.207084 0.635536
C16 C 0.4059(3) 0.2379(3) 0.5453(5)
C17 C 0.3457(3) 0.1607(3) 0.5784(6)
H15 H 0.354707 0.117834 0.578163
C18 C 0.2728(4) 0.1514(4) 0.6110(6)
H16 H 0.231188 0.100742 0.632081
N1 N 0.4617(2) 0.3680(2) 0.5134(4)
N2 N 0.5144(2) 0.3449(2) 0.4893(4)
N3 N 0.4834(2) 0.2672(2) 0.5074(4)
O1 O 0.5358(3) 0.1762(2) 0.2450(4)
O2 O 0.4778(3) 0.0520(3) 0.3139(4)
O5 O 0.666667 0.333333 0.4235(5)
Cd3 Cd 0.78922(2) 0.35030(3) 0.46755(3)
Cd4_2 Cd 1.000000 0.500000 0.500000
C19 C 0.9269(3) 0.3875(4) 0.0857(5)
C21_2 C 1.0000(3) 0.3911(4) 0.0753(5)
C29 C 0.8970(3) 0.3922(4) 0.2267(5)
C31 C 0.6977(3) 0.0901(4) 0.5491(5)
C32 C 0.7080(3) 0.0258(4) 0.5847(5)
C33 C 0.7838(4) 0.0427(6) 0.6136(6)
H30 H 0.792916 0.001246 0.635536
C34 C 0.7621(3) 0.1680(4) 0.5453(5)
C35 C 0.8393(3) 0.1850(4) 0.5784(6)
H31 H 0.882166 0.236873 0.578163
C36 C 0.8486(4) 0.1214(6) 0.6110(6)
H32 H 0.899258 0.130446 0.632081
N4 N 0.6320(2) 0.0937(3) 0.5134(4)
N5 N 0.6551(2) 0.1695(3) 0.4893(4)
N6 N 0.7328(2) 0.2162(3) 0.5074(4)
O6 O 0.8238(2) 0.3596(4) 0.2450(4)
O7 O 0.9480(3) 0.4258(4) 0.3139(4)
Cd5 Cd 0.64970(3) 0.43892(2) 0.46755(3)
Cd6 Cd 0.500000 0.500000 0.500000
C37 C 0.6125(4) 0.5394(3) 0.0857(5)
C39 C 0.6089(4) 0.6089(3) 0.0753(5)
H34 H 0.603204 0.632252 0.153797
C44 C 0.5808(9) 0.7402(7) 0.0609(10)
H36 H 0.526531 0.698938 0.073750
H37 H 0.582913 0.790407 0.048868
H38 H 0.611742 0.742981 0.138970
H39 H 0.724074 0.765395 0.033317
H40 H 0.699855 0.831283 0.023493
C47 C 0.6078(4) 0.5048(3) 0.2267(5)
C49 C 0.9099(4) 0.6076(3) 0.5491(5)
C50 C 0.9742(4) 0.6822(3) 0.5847(5)
C51 C 0.9573(6) 0.7411(4) 0.6136(6)
H46 H 0.998754 0.791670 0.635536
C52 C 0.8320(4) 0.5941(3) 0.5453(5)
C53 C 0.8150(4) 0.6543(3) 0.5784(6)
H47 H 0.763127 0.645293 0.578163
C54 C 0.8786(6) 0.7272(4) 0.6110(6)
H48 H 0.869554 0.768812 0.632081
N7 N 0.9063(3) 0.5383(2) 0.5134(4)
N8 N 0.8305(3) 0.4856(2) 0.4893(4)
N9 N 0.7838(3) 0.5166(2) 0.5074(4)
O10 O 0.6404(4) 0.4642(3) 0.2450(4)
O11 O 0.5742(4) 0.5222(3) 0.3139(4)
H51 H 0.628064 0.006755 0.249641
C60 C 0.6445(4) 0.0310(4) 0.0489(6)
C61 C 0.7229(4) 0.1101(4) 0.0571(7)
C63 C 0.7879(6) 0.0879(8) 0.0233(15)
H57 H 0.807170 0.077182 0.105893
C64 C 0.7398(7) 0.1476(7) 0.1822(11)
H58 H 0.736014 0.110946 0.251343
H59 H 0.792776 0.192770 0.181126
H60 H 0.702295 0.165060 0.200893
N19 N 0.5383(2) 0.6320(2) 0.4866(4)
O29 O 0.4258(4) 0.4778(3) 0.6861(4)
O30 O 0.47674(19) 0.09650(18) 0.6024(3)
O31 O 0.90350(18) 0.38024(26) 0.6024(3)
O32 O 0.61976(26) 0.52326(19) 0.6024(3)
O37 O 0.38024(26) 0.47674(19) 0.3976(3)
O38 O 0.5599(2) 0.20047(19) 0.7227(3)
O39 O 0.79953(19) 0.35943(28) 0.7227(3)
O40 O 0.64057(28) 0.4401(2) 0.7227(3)
C2 C 0.4969(3) 0.1166(3) 0.9695(4)
H1 H 0.542902 0.166222 0.975928
C4 C 0.4641(3) 0.0855(3) 0.8436(4)
C5 C 0.3940(3) 0.0131(3) 0.8352(5)
C12 C 0.5034(3) 0.1303(3) 0.7169(4)
C20 C 0.8834(3) 0.3803(4) 0.9695(4)
H17 H 0.833778 0.376680 0.975928
C22 C 0.9145(3) 0.3786(4) 0.8436(4)
C23 C 0.9869(3) 0.3809(4) 0.8352(5)
C30 C 0.8697(3) 0.3731(4) 0.7169(4)
C38 C 0.6197(4) 0.5031(3) 0.9695(4)
H33 H 0.623320 0.457098 0.975928
C40 C 0.6214(4) 0.5359(3) 0.8436(4)
C41 C 0.6191(4) 0.6060(3) 0.8352(5)
H35 H 0.621309 0.628064 0.750359
C42 C 0.6135(6) 0.6445(4) 0.9511(6)
C43 C 0.6128(6) 0.7229(4) 0.9429(7)
C45 C 0.7000(10) 0.7879(6) 0.9767(15)
H41 H 0.729988 0.807170 0.894107
C46 C 0.5922(10) 0.7398(7) 0.8178(11)
H42 H 0.625068 0.736014 0.748657
H43 H 0.600006 0.792776 0.818874
H44 H 0.537235 0.702295 0.799107
C48 C 0.6269(4) 0.4966(3) 0.7169(4)
C57 C 0.6089(3) -0.0000(3) 0.9247(5)
H50 H 0.632252 0.029048 0.846203
C62 C 0.7402(7) 0.1594(6) 0.9391(10)
H52 H 0.698938 0.172407 0.926250
H53 H 0.790407 0.207494 0.951132
H54 H 0.742981 0.131239 0.861030
H55 H 0.765395 0.041321 0.966683
H56 H 0.831283 0.131428 0.976507
H77 H 0.334817 0.025964 0.411470
Cd2_2 Cd 0.500000 1.000000 0.500000
C3_2 C 0.3911(3) 1.0000(3) 0.0753(5)
H2 H 0.367748 0.970952 0.153797
C8 C 0.2598(7) 0.8406(6) 0.0609(10)
H4 H 0.301062 0.827593 0.073750
H5 H 0.209593 0.792506 0.048868
H6 H 0.257019 0.868761 0.138970
H7 H 0.234605 0.958679 0.033317
H8 H 0.168717 0.868572 0.023493
H29 H 0.665183 0.974036 0.588530
C56 C 0.5031(3) 0.8834(3) 0.0305(4)
H49 H 0.457098 0.833778 0.024072
C58 C 0.5359(3) 0.9145(3) 0.1564(4)
C59 C 0.6060(3) 0.9869(3) 0.1648(5)
C66 C 0.4966(3) 0.8697(3) 0.2831(4)
O16 O 0.52326(19) 0.90350(18) 0.3976(3)
O17 O 0.4401(2) 0.79953(19) 0.2773(3)
C74 C 0.1166(3) 0.6197(4) 0.0305(4)
H65 H 0.166222 0.623320 0.024072
C76 C 0.0855(3) 0.6214(4) 0.1564(4)
C77 C 0.0131(3) 0.6191(4) 0.1648(5)
C84 C 0.1303(3) 0.6269(4) 0.2831(4)
O22 O 0.20047(19) 0.64057(28) 0.2773(3)
C92 C 0.3803(4) 0.4969(3) 0.0305(4)
H81 H 0.376680 0.542902 0.024072
C94 C 0.3786(4) 0.4641(3) 0.1564(4)
C95 C 0.3809(4) 0.3940(3) 0.1648(5)
H83 H 0.378691 0.371936 0.249641
C96 C 0.3865(6) 0.3555(4) 0.0489(6)
C97 C 0.3872(6) 0.2771(4) 0.0571(7)
C99 C 0.3000(10) 0.2121(6) 0.0233(15)
H89 H 0.270012 0.192830 0.105893
C100 C 0.4078(10) 0.2602(7) 0.1822(11)
H90 H 0.374932 0.263986 0.251343
H91 H 0.399994 0.207224 0.181126
H92 H 0.462765 0.297705 0.200893
C102 C 0.3731(4) 0.5034(3) 0.2831(4)
O26 O 0.35943(28) 0.5599(2) 0.2773(3)
Cd13 Cd 0.43892(2) 0.78922(2) 0.53245(3)
Cd14 Cd 0.21078(2) 0.64970(3) 0.53245(3)
Cd15 Cd 0.35030(3) 0.56108(2) 0.53245(3)
N20 N 0.3680(2) 0.9063(3) 0.4866(4)
O27 O 0.5222(3) 0.9480(3) 0.6861(4)
H3 H 0.371936 0.993245 0.750359
C6 C 0.3555(4) 0.9690(4) 0.9511(6)
C7 C 0.2771(4) 0.8899(4) 0.9429(7)
C9 C 0.2121(6) 0.9121(8) 0.9767(15)
H9 H 0.192830 0.922818 0.894107
C10 C 0.2602(7) 0.8524(7) 0.8178(11)
H10 H 0.263986 0.889054 0.748657
H11 H 0.207224 0.807230 0.818874
H12 H 0.297705 0.834940 0.799107
C55 C 0.5394(3) 0.9269(3) 0.9143(5)
C57_2 C 0.6089(3) 1.0000(3) 0.9247(5)
C65 C 0.5048(3) 0.8970(3) 0.7733(5)
C67 C 0.6076(3) 0.6977(3) 0.4509(5)
C68 C 0.6822(3) 0.7080(3) 0.4153(5)
H61 H 0.691147 0.665183 0.411470
C69 C 0.7411(4) 0.7838(4) 0.3864(6)
H62 H 0.791670 0.792916 0.364464
C70 C 0.5941(3) 0.7621(3) 0.4547(5)
C71 C 0.6543(3) 0.8393(3) 0.4216(6)
H63 H 0.645293 0.882166 0.421837
C72 C 0.7272(4) 0.8486(4) 0.3890(6)
H64 H 0.768812 0.899258 0.367919
N11 N 0.4856(2) 0.6551(2) 0.5107(4)
N12 N 0.5166(2) 0.7328(2) 0.4926(4)
O14 O 0.4642(3) 0.8238(2) 0.7550(4)
O18 O 0.333333 0.666667 0.5765(5)
C73 C 0.0731(3) 0.6125(4) 0.9143(5)
C75 C -0.0000(3) 0.6089(4) 0.9247(5)
C83 C 0.1030(3) 0.6078(4) 0.7733(5)
C85 C 0.3023(3) 0.9099(4) 0.4509(5)
C86 C 0.2920(3) 0.9742(4) 0.4153(5)
C87 C 0.2162(4) 0.9573(6) 0.3864(6)
H78 H 0.207084 0.998754 0.364464
C88 C 0.2379(3) 0.8320(4) 0.4547(5)
C89 C 0.1607(3) 0.8150(4) 0.4216(6)
H79 H 0.117834 0.763127 0.421837
C90 C 0.1514(4) 0.8786(6) 0.3890(6)
H80 H 0.100742 0.869554 0.367919
N14 N 0.3449(2) 0.8305(3) 0.5107(4)
N15 N 0.2672(2) 0.7838(3) 0.4926(4)
O19 O 0.1762(2) 0.6404(4) 0.7550(4)
C91 C 0.3875(4) 0.4606(3) 0.9143(5)
C93 C 0.3911(4) 0.3911(3) 0.9247(5)
H82 H 0.396796 0.367748 0.846203
C98 C 0.4192(9) 0.2598(7) 0.9391(10)
H84 H 0.473469 0.301062 0.926250
H85 H 0.417087 0.209593 0.951132
H86 H 0.388258 0.257019 0.861030
H87 H 0.275926 0.234605 0.966683
H88 H 0.300145 0.168717 0.976507
C101 C 0.3922(4) 0.4952(3) 0.7733(5)
C103 C 0.0901(4) 0.3924(3) 0.4509(5)
C104 C 0.0258(4) 0.3178(3) 0.4153(5)
C105 C 0.0427(6) 0.2589(4) 0.3864(6)
H94 H 0.001246 0.208330 0.364464
C106 C 0.1680(4) 0.4059(3) 0.4547(5)
C107 C 0.1850(4) 0.3457(3) 0.4216(6)
H95 H 0.236873 0.354707 0.421837
C108 C 0.1214(6) 0.2728(4) 0.3890(6)
H96 H 0.130446 0.231188 0.367919
N17 N 0.1695(3) 0.5144(2) 0.5107(4)
N18 N 0.2162(3) 0.4834(2) 0.4926(4)
O23 O 0.3596(4) 0.5358(3) 0.7550(4)
H67 H 0.993245 0.621309 0.249641
C78 C 0.9690(4) 0.6135(6) 0.0489(6)
C79 C 0.8899(4) 0.6128(6) 0.0571(7)
C81 C 0.9121(8) 0.7000(10) 0.0233(15)
H73 H 0.922818 0.729988 0.105893
C82 C 0.8524(7) 0.5922(10) 0.1822(11)
H74 H 0.889054 0.625068 0.251343
H75 H 0.807230 0.600006 0.181126
H76 H 0.834940 0.537235 0.200893
C75_2 C 1.0000(3) 0.6089(4) 0.9247(5)
H66 H 0.970952 0.603204 0.846203
C80 C 0.8406(6) 0.5808(9) 0.9391(10)
H68 H 0.827593 0.526531 0.926250
H69 H 0.792506 0.582913 0.951132
H70 H 0.868761 0.611742 0.861030
H71 H 0.958679 0.724074 0.966683
H72 H 0.868572 0.699855 0.976507
H93 H 0.974036 0.308853 0.411470
loop_
_geom_bond_atom_site_label_1
_geom_bond_atom_site_label_2
_geom_bond_site_symmetry_1
_geom_bond_site_symmetry_2
H18 C21 1_555 1_555
H20 C26 1_555 1_555
H21 C26 1_555 1_555
H22 C26 1_555 1_555
N21 Cd4 1_555 1_555
O28 Cd4 1_555 1_555
O35 Cd4 1_555 1_555
C25 C24 1_555 1_555
C27 C25 1_555 1_555
H25 C27 1_555 1_555
C28 C25 1_555 1_555
H26 C28 1_555 1_555
H27 C28 1_555 1_555
H28 C28 1_555 1_555
Cd1 N3 1_555 1_555
Cd2 O2 1_555 1_555
C3 C1 1_555 1_555
C11 C1 1_555 1_555
C13 C14 1_555 1_555
C14 H13 1_555 1_555
C15 C14 1_555 1_555
H14 C15 1_555 1_555
C16 C13 1_555 1_555
C17 C16 1_555 1_555
H15 C17 1_555 1_555
C18 C15 1_555 1_555
H16 C18 1_555 1_555
N1 C13 1_555 1_555
N2 N1 1_555 1_555
N3 C16 1_555 1_555
O1 Cd1 1_555 1_555
O2 C11 1_555 1_555
O5 Cd1 1_555 1_555
Cd3 O5 1_555 1_555
Cd4_2 O7 1_555 1_555
C21_2 C19 1_555 1_555
C29 C19 1_555 1_555
C31 C32 1_555 1_555
C33 C32 1_555 1_555
H30 C33 1_555 1_555
C34 C31 1_555 1_555
C35 C34 1_555 1_555
H31 C35 1_555 1_555
C36 C33 1_555 1_555
H32 C36 1_555 1_555
N4 Cd2 1_555 1_555
N5 Cd1 1_555 1_555
N6 Cd3 1_555 1_555
O6 Cd3 1_555 1_555
O7 C29 1_555 1_555
Cd5 N2 1_555 1_555
Cd6 N1 1_555 1_555
C39 C37 1_555 1_555
H34 C39 1_555 1_555
H36 C44 1_555 1_555
H37 C44 1_555 1_555
H38 C44 1_555 1_555
C47 C37 1_555 1_555
C49 C50 1_555 1_555
C51 C50 1_555 1_555
H46 C51 1_555 1_555
C52 C49 1_555 1_555
C53 C52 1_555 1_555
H47 C53 1_555 1_555
C54 C51 1_555 1_555
H48 C54 1_555 1_555
N7 Cd4_2 1_555 1_555
N8 Cd3 1_555 1_555
N9 Cd5 1_555 1_555
O10 Cd5 1_555 1_555
O11 Cd6 1_555 1_555
C61 C60 1_555 1_555
C63 C61 1_555 1_555
H57 C63 1_555 1_555
C64 C61 1_555 1_555
H58 C64 1_555 1_555
H59 C64 1_555 1_555
H60 C64 1_555 1_555
N19 Cd6 1_555 1_555
O29 Cd6 1_555 1_555
O30 Cd1 1_555 1_555
O31 Cd3 1_555 1_555
O32 Cd5 1_555 1_555
O37 Cd6 1_555 1_555
O38 Cd1 1_555 1_555
O39 Cd3 1_555 1_555
O40 Cd5 1_555 1_555
Cd2 O30 1_555 1_555
C11 O1 1_555 1_555
C17 C18 1_555 1_555
N2 N3 1_555 1_555
O5 Cd5 1_555 1_555
Cd4_2 O31 1_555 1_555
C29 O6 1_555 1_555
C31 N4 1_555 1_555
C34 N6 1_555 1_555
C35 C36 1_555 1_555
N4 N5 1_555 1_555
N5 N6 1_555 1_555
Cd6 O32 1_555 1_555
C47 O10 1_555 1_555
C47 O11 1_555 1_555
C49 N7 1_555 1_555
C52 N9 1_555 1_555
C53 C54 1_555 1_555
N7 N8 1_555 1_555
N8 N9 1_555 1_555
C2 H1 1_555 1_555
C4 C2 1_555 1_555
C5 C4 1_555 1_555
C12 C4 1_555 1_555
O30 C12 1_555 1_555
O38 C12 1_555 1_555
C20 H17 1_555 1_555
C22 C20 1_555 1_555
C23 C22 1_555 1_555
C30 C22 1_555 1_555
O31 C30 1_555 1_555
O39 C30 1_555 1_555
C38 H33 1_555 1_555
C40 C38 1_555 1_555
C41 C40 1_555 1_555
H35 C41 1_555 1_555
C43 C42 1_555 1_555
C45 C43 1_555 1_555
H41 C45 1_555 1_555
C46 C43 1_555 1_555
H42 C46 1_555 1_555
H43 C46 1_555 1_555
H44 C46 1_555 1_555
C48 C40 1_555 1_555
O32 C48 1_555 1_555
O40 C48 1_555 1_555
H50 C57 1_555 1_555
H52 C62 1_555 1_555
H53 C62 1_555 1_555
H54 C62 1_555 1_555
C41 C42 1_555 1_555
H2 C3_2 1_555 1_555
H4 C8 1_555 1_555
H5 C8 1_555 1_555
H6 C8 1_555 1_555
C56 H49 1_555 1_555
C58 C56 1_555 1_555
C59 C58 1_555 1_555
C66 C58 1_555 1_555
O16 Cd2_2 1_555 1_555
O17 C66 1_555 1_555
C74 H65 1_555 1_555
C76 C74 1_555 1_555
C77 C76 1_555 1_555
C84 C76 1_555 1_555
O35 C84 1_555 1_555
O22 C84 1_555 1_555
C92 H81 1_555 1_555
C94 C92 1_555 1_555
C95 C94 1_555 1_555
H83 C95 1_555 1_555
C97 C96 1_555 1_555
C99 C97 1_555 1_555
H89 C99 1_555 1_555
C100 C97 1_555 1_555
H90 C100 1_555 1_555
H91 C100 1_555 1_555
H92 C100 1_555 1_555
C102 C94 1_555 1_555
O37 C102 1_555 1_555
O26 C102 1_555 1_555
Cd13 O16 1_555 1_555
Cd14 O35 1_555 1_555
Cd15 O37 1_555 1_555
N20 Cd2_2 1_555 1_555
O27 Cd2_2 1_555 1_555
C66 O16 1_555 1_555
O17 Cd13 1_555 1_555
O22 Cd14 1_555 1_555
C95 C96 1_555 1_555
O26 Cd15 1_555 1_555
C7 C6 1_555 1_555
C9 C7 1_555 1_555
H9 C9 1_555 1_555
C10 C7 1_555 1_555
H10 C10 1_555 1_555
H11 C10 1_555 1_555
H12 C10 1_555 1_555
Cd13 N12 1_555 1_555
C57_2 C55 1_555 1_555
C65 C55 1_555 1_555
C67 C68 1_555 1_555
C68 H61 1_555 1_555
C69 C68 1_555 1_555
H62 C69 1_555 1_555
C70 C67 1_555 1_555
C71 C70 1_555 1_555
H63 C71 1_555 1_555
C72 C69 1_555 1_555
H64 C72 1_555 1_555
N19 C67 1_555 1_555
N11 N19 1_555 1_555
N12 C70 1_555 1_555
O14 Cd13 1_555 1_555
O27 C65 1_555 1_555
O18 Cd13 1_555 1_555
Cd14 O18 1_555 1_555
C75 C73 1_555 1_555
C83 C73 1_555 1_555
C85 C86 1_555 1_555
C87 C86 1_555 1_555
H78 C87 1_555 1_555
C88 C85 1_555 1_555
C89 C88 1_555 1_555
H79 C89 1_555 1_555
C90 C87 1_555 1_555
H80 C90 1_555 1_555
N20 C85 1_555 1_555
N14 Cd13 1_555 1_555
N15 Cd14 1_555 1_555
O19 Cd14 1_555 1_555
O28 C83 1_555 1_555
Cd15 N11 1_555 1_555
C93 C91 1_555 1_555
H82 C93 1_555 1_555
H84 C98 1_555 1_555
H85 C98 1_555 1_555
H86 C98 1_555 1_555
C101 C91 1_555 1_555
C103 C104 1_555 1_555
C105 C104 1_555 1_555
H94 C105 1_555 1_555
C106 C103 1_555 1_555
C107 C106 1_555 1_555
H95 C107 1_555 1_555
C108 C105 1_555 1_555
H96 C108 1_555 1_555
N21 C103 1_555 1_555
N17 Cd14 1_555 1_555
N18 Cd15 1_555 1_555
O23 Cd15 1_555 1_555
O29 C101 1_555 1_555
C65 O14 1_555 1_555
C71 C72 1_555 1_555
N11 N12 1_555 1_555
O18 Cd15 1_555 1_555
C83 O19 1_555 1_555
C88 N15 1_555 1_555
C89 C90 1_555 1_555
N20 N14 1_555 1_555
N14 N15 1_555 1_555
C101 O23 1_555 1_555
C106 N18 1_555 1_555
C107 C108 1_555 1_555
N21 N17 1_555 1_555
N17 N18 1_555 1_555
C79 C78 1_555 1_555
C81 C79 1_555 1_555
H73 C81 1_555 1_555
C82 C79 1_555 1_555
H74 C82 1_555 1_555
H75 C82 1_555 1_555
H76 C82 1_555 1_555
H66 C75_2 1_555 1_555
H68 C80 1_555 1_555
H69 C80 1_555 1_555
H70 C80 1_555 1_555

#END
