
###############################################################################
#
# This file contains modified crystal structure data generated from the
# MOF subset of the Cambridge Structural Database (CSD) v543 
# hosted by the Cambridge Crystallographic Data Centre (CCDC).
#
# This work is licensed under the Creative Commons
# Attribution-NonCommercial-ShareAlike 4.0 International License.
# To view a copy of this license, visit
# http://creativecommons.org/licenses/by-nc-sa/4.0/
# or send a letter to
# Creative Commons, PO Box 1866, Mountain View, CA 94042, USA.
#
# CIF created using the CSD Python API on 29 September 2022
# The structure has been converted into the P1 space group
# The structure has a 3D framework
# The original CSD entry MEBYIF is in the monoclinic crystal system
# The framework has been calculated to contain at least 10.0% void space
# The void calculation uses a probe of radius 1.32A, grid spacing 0.4
# The framework is charged, counterions have been retained in the structure
#
###############################################################################

data_MEBYIF
_chemical_formula_moiety         '(C120 H116 Cd4 N20 O28)n'
_symmetry_cell_setting           triclinic
_symmetry_space_group_name_H-M   'P 1'
_symmetry_Int_Tables_number      1
_space_group_name_Hall           'P 1'
loop_
_symmetry_equiv_pos_site_id
_symmetry_equiv_pos_as_xyz
1 x,y,z
_cell_length_a                   15.7153(5)
_cell_length_b                   7.5751(3)
_cell_length_c                   31.3260(8)
_cell_angle_alpha                90
_cell_angle_beta                 116.071(1)
_cell_angle_gamma                90
_cell_volume                     3349.76
loop_
_atom_site_label
_atom_site_type_symbol
_atom_site_fract_x
_atom_site_fract_y
_atom_site_fract_z
N1 N 0.2433(3) 0.7464(4) 0.25821(11)
H1 H 0.2571(3) 0.6670(4) 0.28171(11)
H2 H 0.2365(3) 0.8523(4) 0.26937(11)
C1 C 0.3226(4) 0.7551(6) 0.2452(2)
H3 H 0.3795(4) 0.7877(6) 0.2726(2)
H4 H 0.3311(4) 0.6417(6) 0.2339(2)
H5 H 0.3089(4) 0.8415(6) 0.2206(2)
C2 C 0.1550(3) 0.6980(6) 0.21884(17)
H6 H 0.1059(3) 0.6942(6) 0.22917(17)
H7 H 0.1391(3) 0.7836(6) 0.19390(17)
H8 H 0.1613(3) 0.5839(6) 0.20720(17)
N1_2 N 0.7567(3) 0.7464(4) 0.24179(11)
H1_2 H 0.7429(3) 0.6670(4) 0.21829(11)
H2_2 H 0.7635(3) 0.8523(4) 0.23063(11)
C1_2 C 0.6774(4) 0.7551(6) 0.2548(2)
H3_2 H 0.6205(4) 0.7877(6) 0.2274(2)
H4_2 H 0.6689(4) 0.6417(6) 0.2661(2)
H5_2 H 0.6911(4) 0.8415(6) 0.2794(2)
C2_2 C 0.8450(3) 0.6980(6) 0.28116(17)
H6_2 H 0.8941(3) 0.6942(6) 0.27083(17)
H7_2 H 0.8609(3) 0.7836(6) 0.30610(17)
H8_2 H 0.8387(3) 0.5839(6) 0.29280(17)
N1_3 N 0.7567(3) 0.2536(4) 0.74179(11)
H1_3 H 0.7429(3) 0.3330(4) 0.71829(11)
H2_3 H 0.7635(3) 0.1477(4) 0.73063(11)
C1_3 C 0.6774(4) 0.2449(6) 0.7548(2)
H3_3 H 0.6205(4) 0.2123(6) 0.7274(2)
H4_3 H 0.6689(4) 0.3583(6) 0.7661(2)
H5_3 H 0.6911(4) 0.1585(6) 0.7794(2)
C2_3 C 0.8450(3) 0.3020(6) 0.78116(17)
H6_3 H 0.8941(3) 0.3058(6) 0.77083(17)
H7_3 H 0.8609(3) 0.2164(6) 0.80610(17)
H8_3 H 0.8387(3) 0.4161(6) 0.79280(17)
N1_4 N 0.2433(3) 0.2536(4) 0.75821(11)
H1_4 H 0.2571(3) 0.3330(4) 0.78171(11)
H2_4 H 0.2365(3) 0.1477(4) 0.76937(11)
C1_4 C 0.3226(4) 0.2449(6) 0.7452(2)
H3_4 H 0.3795(4) 0.2123(6) 0.7726(2)
H4_4 H 0.3311(4) 0.3583(6) 0.7339(2)
H5_4 H 0.3089(4) 0.1585(6) 0.7206(2)
C2_4 C 0.1550(3) 0.3020(6) 0.71884(17)
H6_4 H 0.1059(3) 0.3058(6) 0.72917(17)
H7_4 H 0.1391(3) 0.2164(6) 0.69390(17)
H8_4 H 0.1613(3) 0.4161(6) 0.70720(17)
Cd1 Cd 0.378660(12) 0.19320(2) 0.339301(6)
O1 O 0.34862(13) 0.3305(3) 0.26640(6)
O2 O 0.25147(14) 0.1228(2) 0.26641(6)
N2 N 0.10597(13) 0.3575(3) 0.01731(7)
C3 C 0.20706(18) 0.3530(3) 0.11655(9)
H9 H 0.23322(18) 0.4089(3) 0.09866(9)
C4 C 0.25919(18) 0.3379(4) 0.16536(9)
H10 H 0.32015(18) 0.3841(4) 0.18015(9)
C5 C 0.22077(17) 0.2542(3) 0.19214(8)
C6 C 0.12926(18) 0.1886(4) 0.17001(9)
H11 H 0.10296(18) 0.1339(4) 0.18800(9)
C7 C 0.07676(18) 0.2040(4) 0.12136(9)
H12 H 0.01527(18) 0.1601(4) 0.10677(9)
C8 C 0.11570(16) 0.2847(3) 0.09426(8)
C21 C 0.06297(16) 0.2863(3) 0.04169(8)
C24 C 0.27744(18) 0.2349(3) 0.24488(8)
H21 H 0.337(3) 0.022(3) 0.4237(8)
O8 O 0.52835(15) 0.1712(3) 0.40994(9)
O9 O 0.51734(15) 0.0963(4) 0.34065(8)
O10 O 0.32187(15) 0.3235(3) 0.38216(7)
O5 O 0.32187(15) 0.6765(3) 0.88216(7)
O6 O 0.23722(16) 0.4990(3) 0.82250(8)
C15 C 0.12789(19) 0.3942(4) 0.86972(9)
H17 H 0.10776(19) 0.3554(4) 0.83862(9)
C16 C 0.20606(17) 0.5031(3) 0.89011(9)
C17 C 0.23498(19) 0.5610(4) 0.93653(9)
H18 H 0.28644(19) 0.6370(4) 0.95025(9)
C18 C 0.18765(19) 0.5061(4) 0.96246(9)
H19 H 0.20869(19) 0.5426(4) 0.99382(9)
C19 C 0.10917(16) 0.3972(3) 0.94199(8)
C20 C 0.07942(19) 0.3426(4) 0.89525(9)
H20 H 0.02636(19) 0.2706(4) 0.88102(9)
C23 C 0.05975(16) 0.3374(3) 0.97026(8)
C26 C 0.25880(18) 0.5611(4) 0.86220(10)
Cd3 Cd 0.378660(12) 0.80680(2) 0.839301(6)
O3 O 0.52835(15) 0.8288(3) 0.90994(9)
O4 O 0.51734(15) 0.9037(4) 0.84065(8)
C10 C 0.65955(17) 0.9782(4) 0.90843(10)
C11 C 0.71199(19) 0.9691(4) 0.95693(10)
H14 H 0.68734(19) 0.9115(4) 0.97525(10)
C25 C 0.56225(19) 0.8954(4) 0.88494(12)
O1_2 O 0.34862(13) 0.6695(3) 0.76640(6)
O2_2 O 0.25147(14) 0.8772(2) 0.76641(6)
O6_2 O 0.23722(16) 0.5010(3) 0.32250(8)
N2_2 N 0.10597(13) 0.6425(3) 0.51731(7)
C3_2 C 0.20706(18) 0.6470(3) 0.61655(9)
H9_2 H 0.23322(18) 0.5911(3) 0.59866(9)
C4_2 C 0.25919(18) 0.6621(4) 0.66536(9)
H10_2 H 0.32015(18) 0.6159(4) 0.68015(9)
C5_2 C 0.22077(17) 0.7458(3) 0.69214(8)
C6_2 C 0.12926(18) 0.8114(4) 0.67001(9)
H11_2 H 0.10296(18) 0.8661(4) 0.68800(9)
C7_2 C 0.07676(18) 0.7960(4) 0.62136(9)
H12_2 H 0.01527(18) 0.8399(4) 0.60677(9)
C8_2 C 0.11570(16) 0.7153(3) 0.59426(8)
C15_2 C 0.12789(19) 0.6058(4) 0.36972(9)
H17_2 H 0.10776(19) 0.6446(4) 0.33862(9)
C16_2 C 0.20606(17) 0.4969(3) 0.39011(9)
C17_2 C 0.23498(19) 0.4390(4) 0.43653(9)
H18_2 H 0.28644(19) 0.3630(4) 0.45025(9)
C18_2 C 0.18765(19) 0.4939(4) 0.46246(9)
H19_2 H 0.20869(19) 0.4574(4) 0.49382(9)
C19_2 C 0.10917(16) 0.6028(3) 0.44199(8)
C20_2 C 0.07942(19) 0.6574(4) 0.39525(9)
H20_2 H 0.02636(19) 0.7294(4) 0.38102(9)
C21_2 C 0.06297(16) 0.7137(3) 0.54169(8)
C23_2 C 0.05975(16) 0.6626(3) 0.47026(8)
C24_2 C 0.27744(18) 0.7651(3) 0.74488(8)
C26_2 C 0.25880(18) 0.4389(4) 0.36220(10)
H21_2 H 0.337(3) 0.978(3) 0.9237(8)
C10_2 C 0.65955(17) 0.0218(4) 0.40843(10)
C11_2 C 0.71199(19) 0.0309(4) 0.45693(10)
H14_2 H 0.68734(19) 0.0885(4) 0.47525(10)
C25_2 C 0.56225(19) 0.1046(4) 0.38494(12)
O7 O 0.3550(4) 0.9020(6) 0.35634(16)
N5 N 0.4585(4) 0.7081(7) 0.4075(2)
C27 C 0.3929(5) 0.8389(9) 0.3968(2)
C28 C 0.3678(5) 0.9100(9) 0.43376(19)
C29 C 0.5045(6) 0.6263(10) 0.4535(2)
C30 C 0.4850(4) 0.6469(8) 0.3699(2)
H22 H 0.326(3) 0.830(3) 0.4386(13)
H23 H 0.4242(7) 0.924(7) 0.4629(5)
H24 H 0.524(5) 0.7154(13) 0.4777(2)
H25 H 0.4613(19) 0.546(8) 0.4576(12)
H26 H 0.559(3) 0.562(9) 0.4558(11)
H27 H 0.4351(15) 0.575(5) 0.3475(10)
H28 H 0.495(3) 0.7473(8) 0.3538(11)
H29 H 0.5423(19) 0.579(5) 0.3841(3)
N3 N 0.97750(14) 0.2118(3) 0.02230(7)
H15 H 0.83640(18) 0.0383(4) 0.01164(9)
N4 N 0.97414(14) 0.2640(3) 0.94701(7)
C9 C 0.69601(18) 0.0664(4) 0.88143(10)
H13 H 0.66024(18) 0.0754(4) 0.84871(10)
C12 C 0.80141(18) 0.0451(4) 0.97882(9)
C13 C 0.83842(16) 0.1312(3) 0.95160(8)
C14 C 0.78539(17) 0.1412(4) 0.90284(9)
H16 H 0.80987(17) 0.1984(4) 0.88440(9)
C22 C 0.93498(16) 0.2073(3) 0.97480(8)
N3_2 N 0.02250(14) 0.2118(3) 0.47770(7)
N4_2 N 0.02586(14) 0.2640(3) 0.55299(7)
C9_2 C 0.30399(18) 0.0664(4) 0.61857(10)
H13_2 H 0.33976(18) 0.0754(4) 0.65129(10)
C12_2 C 0.19859(18) 0.0451(4) 0.52118(9)
H15_2 H 0.16360(18) 0.0383(4) 0.48836(9)
C13_2 C 0.16158(16) 0.1312(3) 0.54840(8)
C14_2 C 0.21461(17) 0.1412(4) 0.59716(9)
H16_2 H 0.19013(17) 0.1984(4) 0.61560(9)
C22_2 C 0.06502(16) 0.2073(3) 0.52520(8)
O3_2 O 0.47165(15) 0.8288(3) 0.59006(9)
O4_2 O 0.48266(15) 0.9037(4) 0.65935(8)
C10_3 C 0.34045(17) 0.9782(4) 0.59157(10)
C11_3 C 0.28801(19) 0.9691(4) 0.54307(10)
H14_3 H 0.31266(19) 0.9115(4) 0.52475(10)
C25_3 C 0.43775(19) 0.8954(4) 0.61506(12)
Cd2 Cd 0.621340(12) 0.80680(2) 0.660699(6)
Cd1_2 Cd 0.621340(12) 0.19320(2) 0.160699(6)
O1_3 O 0.65138(13) 0.3305(3) 0.23360(6)
O2_3 O 0.74853(14) 0.1228(2) 0.23359(6)
O5_2 O 0.67813(15) 0.6765(3) 0.61784(7)
O6_3 O 0.76278(16) 0.4990(3) 0.67750(8)
N2_3 N 0.89403(13) 0.3575(3) 0.48269(7)
C3_3 C 0.79294(18) 0.3530(3) 0.38345(9)
H9_3 H 0.76678(18) 0.4089(3) 0.40134(9)
C4_3 C 0.74081(18) 0.3379(4) 0.33464(9)
H10_3 H 0.67985(18) 0.3841(4) 0.31985(9)
C5_3 C 0.77923(17) 0.2542(3) 0.30786(8)
C6_3 C 0.87074(18) 0.1886(4) 0.32999(9)
H11_3 H 0.89704(18) 0.1339(4) 0.31200(9)
C7_3 C 0.92324(18) 0.2040(4) 0.37864(9)
H12_3 H 0.98473(18) 0.1601(4) 0.39323(9)
C8_3 C 0.88430(16) 0.2847(3) 0.40574(8)
C15_3 C 0.87211(19) 0.3942(4) 0.63028(9)
H17_3 H 0.89224(19) 0.3554(4) 0.66138(9)
C16_3 C 0.79394(17) 0.5031(3) 0.60989(9)
C17_3 C 0.76502(19) 0.5610(4) 0.56347(9)
H18_3 H 0.71356(19) 0.6370(4) 0.54975(9)
C18_3 C 0.81235(19) 0.5061(4) 0.53754(9)
H19_3 H 0.79131(19) 0.5426(4) 0.50618(9)
C19_3 C 0.89083(16) 0.3972(3) 0.55801(8)
C20_3 C 0.92058(19) 0.3426(4) 0.60475(9)
H20_3 H 0.97364(19) 0.2706(4) 0.61898(9)
C21_3 C 0.93703(16) 0.2863(3) 0.45831(8)
C23_3 C 0.94025(16) 0.3374(3) 0.52974(8)
C24_3 C 0.72256(18) 0.2349(3) 0.25512(8)
C26_3 C 0.74120(18) 0.5611(4) 0.63780(10)
H21_3 H 0.663(3) 0.022(3) 0.0763(8)
O8_2 O 0.47165(15) 0.1712(3) 0.09006(9)
O9_2 O 0.48266(15) 0.0963(4) 0.15935(8)
O10_2 O 0.67813(15) 0.3235(3) 0.11784(7)
C10_4 C 0.34045(17) 0.0218(4) 0.09157(10)
C11_4 C 0.28801(19) 0.0309(4) 0.04307(10)
H14_4 H 0.31266(19) 0.0885(4) 0.02475(10)
C25_4 C 0.43775(19) 0.1046(4) 0.11506(12)
O6_4 O 0.76278(16) 0.5010(3) 0.17750(8)
C15_4 C 0.87211(19) 0.6058(4) 0.13028(9)
H17_4 H 0.89224(19) 0.6446(4) 0.16138(9)
C16_4 C 0.79394(17) 0.4969(3) 0.10989(9)
C17_4 C 0.76502(19) 0.4390(4) 0.06347(9)
H18_4 H 0.71356(19) 0.3630(4) 0.04975(9)
C18_4 C 0.81235(19) 0.4939(4) 0.03754(9)
H19_4 H 0.79131(19) 0.4574(4) 0.00618(9)
C19_4 C 0.89083(16) 0.6028(3) 0.05801(8)
C20_4 C 0.92058(19) 0.6574(4) 0.10475(9)
H20_4 H 0.97364(19) 0.7294(4) 0.11898(9)
C23_4 C 0.94025(16) 0.6626(3) 0.02974(8)
C26_4 C 0.74120(18) 0.4389(4) 0.13780(10)
O1_4 O 0.65138(13) 0.6695(3) 0.73360(6)
O2_4 O 0.74853(14) 0.8772(2) 0.73359(6)
N2_4 N 0.89403(13) 0.6425(3) 0.98269(7)
C3_4 C 0.79294(18) 0.6470(3) 0.88345(9)
H9_4 H 0.76678(18) 0.5911(3) 0.90134(9)
C4_4 C 0.74081(18) 0.6621(4) 0.83464(9)
H10_4 H 0.67985(18) 0.6159(4) 0.81985(9)
C5_4 C 0.77923(17) 0.7458(3) 0.80786(8)
C6_4 C 0.87074(18) 0.8114(4) 0.82999(9)
H11_4 H 0.89704(18) 0.8661(4) 0.81200(9)
C7_4 C 0.92324(18) 0.7960(4) 0.87864(9)
H12_4 H 0.98473(18) 0.8399(4) 0.89323(9)
C8_4 C 0.88430(16) 0.7153(3) 0.90574(8)
C21_4 C 0.93703(16) 0.7137(3) 0.95831(8)
C24_4 C 0.72256(18) 0.7651(3) 0.75512(8)
H21_4 H 0.663(3) 0.978(3) 0.5763(8)
O7_2 O 0.6450(4) 0.9020(6) 0.14366(16)
N5_2 N 0.5415(4) 0.7081(7) 0.0925(2)
C27_2 C 0.6071(5) 0.8389(9) 0.1032(2)
C28_2 C 0.6322(5) 0.9100(9) 0.06624(19)
C29_2 C 0.4955(6) 0.6263(10) 0.0465(2)
C30_2 C 0.5150(4) 0.6469(8) 0.1301(2)
H22_2 H 0.674(3) 0.830(3) 0.0614(13)
H23_2 H 0.5758(7) 0.924(7) 0.0371(5)
H24_2 H 0.476(5) 0.7154(13) 0.0223(2)
H25_2 H 0.5387(19) 0.546(8) 0.0424(12)
H26_2 H 0.441(3) 0.562(9) 0.0442(11)
H27_2 H 0.5649(15) 0.575(5) 0.1525(10)
H28_2 H 0.505(3) 0.7473(8) 0.1462(11)
H29_2 H 0.4577(19) 0.579(5) 0.1159(3)
N4_3 N 0.02586(14) 0.7360(3) 0.05299(7)
C9_3 C 0.30399(18) 0.9336(4) 0.11857(10)
H13_3 H 0.33976(18) 0.9246(4) 0.15129(10)
C12_3 C 0.19859(18) 0.9549(4) 0.02118(9)
C13_3 C 0.16158(16) 0.8688(3) 0.04840(8)
C14_3 C 0.21461(17) 0.8588(4) 0.09716(9)
H16_3 H 0.19013(17) 0.8016(4) 0.11560(9)
C22_3 C 0.06502(16) 0.7927(3) 0.02520(8)
N3_3 N 0.02250(14) 0.7882(3) 0.97770(7)
H15_3 H 0.16360(18) 0.9617(4) 0.98836(9)
O7_3 O 0.6450(4) 0.0980(6) 0.64366(16)
N5_3 N 0.5415(4) 0.2919(7) 0.5925(2)
C27_3 C 0.6071(5) 0.1611(9) 0.6032(2)
C28_3 C 0.6322(5) 0.0900(9) 0.56624(19)
C29_3 C 0.4955(6) 0.3737(10) 0.5465(2)
C30_3 C 0.5150(4) 0.3531(8) 0.6301(2)
H22_3 H 0.674(3) 0.170(3) 0.5614(13)
H23_3 H 0.5758(7) 0.076(7) 0.5371(5)
H24_3 H 0.476(5) 0.2846(13) 0.5223(2)
H25_3 H 0.5387(19) 0.454(8) 0.5424(12)
H26_3 H 0.441(3) 0.438(9) 0.5442(11)
H27_3 H 0.5649(15) 0.425(5) 0.6525(10)
H28_3 H 0.505(3) 0.2527(8) 0.6462(11)
H29_3 H 0.4577(19) 0.421(5) 0.6159(3)
O7_4 O 0.3550(4) 0.0980(6) 0.85634(16)
N5_4 N 0.4585(4) 0.2919(7) 0.9075(2)
C27_4 C 0.3929(5) 0.1611(9) 0.8968(2)
C28_4 C 0.3678(5) 0.0900(9) 0.93376(19)
C29_4 C 0.5045(6) 0.3737(10) 0.9535(2)
C30_4 C 0.4850(4) 0.3531(8) 0.8699(2)
H22_4 H 0.326(3) 0.170(3) 0.9386(13)
H23_4 H 0.4242(7) 0.076(7) 0.9629(5)
H24_4 H 0.524(5) 0.2846(13) 0.9777(2)
H25_4 H 0.4613(19) 0.454(8) 0.9576(12)
H26_4 H 0.559(3) 0.438(9) 0.9558(11)
H27_4 H 0.4351(15) 0.425(5) 0.8475(10)
H28_4 H 0.495(3) 0.2527(8) 0.8538(11)
H29_4 H 0.5423(19) 0.421(5) 0.8841(3)
N3_4 N 0.97750(14) 0.7882(3) 0.52230(7)
N4_4 N 0.97414(14) 0.7360(3) 0.44701(7)
C9_4 C 0.69601(18) 0.9336(4) 0.38143(10)
H13_4 H 0.66024(18) 0.9246(4) 0.34871(10)
C12_4 C 0.80141(18) 0.9549(4) 0.47882(9)
H15_4 H 0.83640(18) 0.9617(4) 0.51164(9)
C13_4 C 0.83842(16) 0.8688(3) 0.45160(8)
C14_4 C 0.78539(17) 0.8588(4) 0.40284(9)
H16_4 H 0.80987(17) 0.8016(4) 0.38440(9)
C22_4 C 0.93498(16) 0.7927(3) 0.47480(8)
loop_
_geom_bond_atom_site_label_1
_geom_bond_atom_site_label_2
_geom_bond_site_symmetry_1
_geom_bond_site_symmetry_2
N1 H1 1_555 1_555
H2 N1 1_555 1_555
C1 N1 1_555 1_555
H3 C1 1_555 1_555
H4 C1 1_555 1_555
H5 C1 1_555 1_555
C2 N1 1_555 1_555
H6 C2 1_555 1_555
H7 C2 1_555 1_555
H8 C2 1_555 1_555
N1_2 H1_2 1_555 1_555
H2_2 N1_2 1_555 1_555
C1_2 N1_2 1_555 1_555
H3_2 C1_2 1_555 1_555
H4_2 C1_2 1_555 1_555
H5_2 C1_2 1_555 1_555
C2_2 N1_2 1_555 1_555
H6_2 C2_2 1_555 1_555
H7_2 C2_2 1_555 1_555
H8_2 C2_2 1_555 1_555
N1_3 H1_3 1_555 1_555
H2_3 N1_3 1_555 1_555
C1_3 N1_3 1_555 1_555
H3_3 C1_3 1_555 1_555
H4_3 C1_3 1_555 1_555
H5_3 C1_3 1_555 1_555
C2_3 N1_3 1_555 1_555
H6_3 C2_3 1_555 1_555
H7_3 C2_3 1_555 1_555
H8_3 C2_3 1_555 1_555
N1_4 H1_4 1_555 1_555
H2_4 N1_4 1_555 1_555
C1_4 N1_4 1_555 1_555
H3_4 C1_4 1_555 1_555
H4_4 C1_4 1_555 1_555
H5_4 C1_4 1_555 1_555
C2_4 N1_4 1_555 1_555
H6_4 C2_4 1_555 1_555
H7_4 C2_4 1_555 1_555
H8_4 C2_4 1_555 1_555
Cd1 O1 1_555 1_555
O1 C24 1_555 1_555
O2 Cd1 1_555 1_555
N2 C21 1_555 1_555
C3 H9 1_555 1_555
C4 C3 1_555 1_555
H10 C4 1_555 1_555
C5 C4 1_555 1_555
C6 C5 1_555 1_555
H11 C6 1_555 1_555
C7 C6 1_555 1_555
H12 C7 1_555 1_555
C8 C3 1_555 1_555
C21 C8 1_555 1_555
C24 O2 1_555 1_555
O8 Cd1 1_555 1_555
O9 Cd1 1_555 1_555
O10 Cd1 1_555 1_555
C5 C24 1_555 1_555
C7 C8 1_555 1_555
O5 C26 1_555 1_555
O6 C26 1_555 1_555
C15 H17 1_555 1_555
C16 C15 1_555 1_555
C17 C16 1_555 1_555
H18 C17 1_555 1_555
C18 C17 1_555 1_555
H19 C18 1_555 1_555
C19 C18 1_555 1_555
C20 C15 1_555 1_555
H20 C20 1_555 1_555
C26 C16 1_555 1_555
Cd3 O5 1_555 1_555
C19 C20 1_555 1_555
C19 C23 1_555 1_555
O3 C25 1_555 1_555
O4 C25 1_555 1_555
C11 C10 1_555 1_555
H14 C11 1_555 1_555
C25 C10 1_555 1_555
Cd3 O3 1_555 1_555
O4 Cd3 1_555 1_555
Cd3 O1_2 1_555 1_555
O1_2 C24_2 1_555 1_555
O2_2 Cd3 1_555 1_555
O10 C26_2 1_555 1_555
O6_2 C26_2 1_555 1_555
N2_2 C21_2 1_555 1_555
C3_2 H9_2 1_555 1_555
C4_2 C3_2 1_555 1_555
H10_2 C4_2 1_555 1_555
C5_2 C4_2 1_555 1_555
C6_2 C5_2 1_555 1_555
H11_2 C6_2 1_555 1_555
C7_2 C6_2 1_555 1_555
H12_2 C7_2 1_555 1_555
C8_2 C3_2 1_555 1_555
C15_2 H17_2 1_555 1_555
C16_2 C15_2 1_555 1_555
C17_2 C16_2 1_555 1_555
H18_2 C17_2 1_555 1_555
C18_2 C17_2 1_555 1_555
H19_2 C18_2 1_555 1_555
C19_2 C18_2 1_555 1_555
C20_2 C15_2 1_555 1_555
H20_2 C20_2 1_555 1_555
C21_2 C8_2 1_555 1_555
C23_2 N2_2 1_555 1_555
C24_2 O2_2 1_555 1_555
C26_2 C16_2 1_555 1_555
C5_2 C24_2 1_555 1_555
C7_2 C8_2 1_555 1_555
C19_2 C20_2 1_555 1_555
C19_2 C23_2 1_555 1_555
O8 C25_2 1_555 1_555
O9 C25_2 1_555 1_555
C11_2 C10_2 1_555 1_555
H14_2 C11_2 1_555 1_555
C25_2 C10_2 1_555 1_555
N5 C27 1_555 1_555
C27 O7 1_555 1_555
C28 C27 1_555 1_555
C29 N5 1_555 1_555
C30 N5 1_555 1_555
H22 C28 1_555 1_555
H23 C28 1_555 1_555
H24 C29 1_555 1_555
H25 C29 1_555 1_555
H26 C29 1_555 1_555
H27 C30 1_555 1_555
H28 C30 1_555 1_555
H29 C30 1_555 1_555
N4 C22 1_555 1_555
C9 H13 1_555 1_555
C13 C12 1_555 1_555
C14 C9 1_555 1_555
H16 C14 1_555 1_555
C13 C14 1_555 1_555
C13 C22 1_555 1_555
N4_2 C22_2 1_555 1_555
C9_2 H13_2 1_555 1_555
H15_2 C12_2 1_555 1_555
C13_2 C12_2 1_555 1_555
C14_2 C9_2 1_555 1_555
H16_2 C14_2 1_555 1_555
C22_2 N3_2 1_555 1_555
C13_2 C14_2 1_555 1_555
C13_2 C22_2 1_555 1_555
O3_2 C25_3 1_555 1_555
O4_2 C25_3 1_555 1_555
C11_3 C10_3 1_555 1_555
H14_3 C11_3 1_555 1_555
C25_3 C10_3 1_555 1_555
Cd2 O3_2 1_555 1_555
O4_2 Cd2 1_555 1_555
Cd1_2 O1_3 1_555 1_555
O1_3 C24_3 1_555 1_555
O2_3 Cd1_2 1_555 1_555
O5_2 C26_3 1_555 1_555
O6_3 C26_3 1_555 1_555
N2_3 C21_3 1_555 1_555
C3_3 H9_3 1_555 1_555
C4_3 C3_3 1_555 1_555
H10_3 C4_3 1_555 1_555
C5_3 C4_3 1_555 1_555
C6_3 C5_3 1_555 1_555
H11_3 C6_3 1_555 1_555
C7_3 C6_3 1_555 1_555
H12_3 C7_3 1_555 1_555
C8_3 C3_3 1_555 1_555
C15_3 H17_3 1_555 1_555
C16_3 C15_3 1_555 1_555
C17_3 C16_3 1_555 1_555
H18_3 C17_3 1_555 1_555
C18_3 C17_3 1_555 1_555
H19_3 C18_3 1_555 1_555
C19_3 C18_3 1_555 1_555
C20_3 C15_3 1_555 1_555
H20_3 C20_3 1_555 1_555
C21_3 C8_3 1_555 1_555
C23_3 N2_3 1_555 1_555
C24_3 O2_3 1_555 1_555
C26_3 C16_3 1_555 1_555
Cd2 O5_2 1_555 1_555
O8_2 Cd1_2 1_555 1_555
O9_2 Cd1_2 1_555 1_555
O10_2 Cd1_2 1_555 1_555
C5_3 C24_3 1_555 1_555
C7_3 C8_3 1_555 1_555
C19_3 C20_3 1_555 1_555
C19_3 C23_3 1_555 1_555
O8_2 C25_4 1_555 1_555
O9_2 C25_4 1_555 1_555
C11_4 C10_4 1_555 1_555
H14_4 C11_4 1_555 1_555
C25_4 C10_4 1_555 1_555
O10_2 C26_4 1_555 1_555
O6_4 C26_4 1_555 1_555
C15_4 H17_4 1_555 1_555
C16_4 C15_4 1_555 1_555
C17_4 C16_4 1_555 1_555
H18_4 C17_4 1_555 1_555
C18_4 C17_4 1_555 1_555
H19_4 C18_4 1_555 1_555
C19_4 C18_4 1_555 1_555
C20_4 C15_4 1_555 1_555
H20_4 C20_4 1_555 1_555
C26_4 C16_4 1_555 1_555
C19_4 C20_4 1_555 1_555
C19_4 C23_4 1_555 1_555
Cd2 O1_4 1_555 1_555
O1_4 C24_4 1_555 1_555
O2_4 Cd2 1_555 1_555
N2_4 C21_4 1_555 1_555
C3_4 H9_4 1_555 1_555
C4_4 C3_4 1_555 1_555
H10_4 C4_4 1_555 1_555
C5_4 C4_4 1_555 1_555
C6_4 C5_4 1_555 1_555
H11_4 C6_4 1_555 1_555
C7_4 C6_4 1_555 1_555
H12_4 C7_4 1_555 1_555
C8_4 C3_4 1_555 1_555
C21_4 C8_4 1_555 1_555
C24_4 O2_4 1_555 1_555
C5_4 C24_4 1_555 1_555
C7_4 C8_4 1_555 1_555
N5_2 C27_2 1_555 1_555
C27_2 O7_2 1_555 1_555
C28_2 C27_2 1_555 1_555
C29_2 N5_2 1_555 1_555
C30_2 N5_2 1_555 1_555
H22_2 C28_2 1_555 1_555
H23_2 C28_2 1_555 1_555
H24_2 C29_2 1_555 1_555
H25_2 C29_2 1_555 1_555
H26_2 C29_2 1_555 1_555
H27_2 C30_2 1_555 1_555
H28_2 C30_2 1_555 1_555
H29_2 C30_2 1_555 1_555
N4_3 C22_3 1_555 1_555
C9_3 H13_3 1_555 1_555
C13_3 C12_3 1_555 1_555
C14_3 C9_3 1_555 1_555
H16_3 C14_3 1_555 1_555
C13_3 C14_3 1_555 1_555
C13_3 C22_3 1_555 1_555
N5_3 C27_3 1_555 1_555
C27_3 O7_3 1_555 1_555
C28_3 C27_3 1_555 1_555
C29_3 N5_3 1_555 1_555
C30_3 N5_3 1_555 1_555
H22_3 C28_3 1_555 1_555
H23_3 C28_3 1_555 1_555
H24_3 C29_3 1_555 1_555
H25_3 C29_3 1_555 1_555
H26_3 C29_3 1_555 1_555
H27_3 C30_3 1_555 1_555
H28_3 C30_3 1_555 1_555
H29_3 C30_3 1_555 1_555
N5_4 C27_4 1_555 1_555
C27_4 O7_4 1_555 1_555
C28_4 C27_4 1_555 1_555
C29_4 N5_4 1_555 1_555
C30_4 N5_4 1_555 1_555
H22_4 C28_4 1_555 1_555
H23_4 C28_4 1_555 1_555
H24_4 C29_4 1_555 1_555
H25_4 C29_4 1_555 1_555
H26_4 C29_4 1_555 1_555
H27_4 C30_4 1_555 1_555
H28_4 C30_4 1_555 1_555
H29_4 C30_4 1_555 1_555
N4_4 C22_4 1_555 1_555
C9_4 H13_4 1_555 1_555
H15_4 C12_4 1_555 1_555
C13_4 C12_4 1_555 1_555
C14_4 C9_4 1_555 1_555
H16_4 C14_4 1_555 1_555
C22_4 N3_4 1_555 1_555
C13_4 C14_4 1_555 1_555
C13_4 C22_4 1_555 1_555

#END
