
###############################################################################
#
# This file contains modified crystal structure data generated from the
# MOF subset of the Cambridge Structural Database (CSD) v543 
# hosted by the Cambridge Crystallographic Data Centre (CCDC).
#
# This work is licensed under the Creative Commons
# Attribution-NonCommercial-ShareAlike 4.0 International License.
# To view a copy of this license, visit
# http://creativecommons.org/licenses/by-nc-sa/4.0/
# or send a letter to
# Creative Commons, PO Box 1866, Mountain View, CA 94042, USA.
#
# CIF created using the CSD Python API on 29 September 2022
# The structure has been converted into the P1 space group
# The structure has a 3D framework
# The original CSD entry MECDAD is in the triclinic crystal system
# The framework has been calculated to contain at least 10.0% void space
# The void calculation uses a probe of radius 1.32A, grid spacing 0.4
#
###############################################################################

data_MECDAD
_chemical_formula_moiety         '(C48 H24 N4 O10 Zn2)n'
_symmetry_cell_setting           triclinic
_symmetry_space_group_name_H-M   'P 1'
_symmetry_Int_Tables_number      1
_space_group_name_Hall           'P 1'
loop_
_symmetry_equiv_pos_site_id
_symmetry_equiv_pos_as_xyz
1 x,y,z
_cell_length_a                   12.1812(15)
_cell_length_b                   13.0147(9)
_cell_length_c                   13.0236(7)
_cell_angle_alpha                91.352(5)
_cell_angle_beta                 111.851(9)
_cell_angle_gamma                90.871(7)
_cell_volume                     1915.18
loop_
_atom_site_label
_atom_site_type_symbol
_atom_site_fract_x
_atom_site_fract_y
_atom_site_fract_z
_atom_site_U_iso_or_equiv
_atom_site_thermal_displace_type
Zn7 Zn 0.62974(6) 0.01301(5) 0.55369(5) 0.0194 Uani
C43 C 0.5468(7) 0.0013(5) 0.3196(5) 0.0309 Uani
C44 C 0.5502(7) 0.0041(6) 0.2060(5) 0.0356 Uani
C45 C 0.6573(7) 0.0234(7) 0.1915(6) 0.0466 Uani
H22 H 0.7283 0.0351 0.2542 0.0560 Uiso
C46 C 0.6595(7) 0.0256(7) 0.0872(7) 0.0464 Uani
H23 H 0.7325 0.0366 0.0781 0.0560 Uiso
O11 O 0.6454(5) 0.0102(4) 0.4014(4) 0.0382 Uani
C1 C 0.1193(7) 0.0250(5) 0.3057(6) 0.0408 Uani
H1 H 0.1349 0.0893 0.3452 0.0490 Uiso
C2 C 0.0110(7) 0.0078(6) 0.2248(8) 0.0619 Uani
C12 C 0.4685(6) 0.1935(5) 0.4885(5) 0.0275 Uani
C13 C 0.4597(6) 0.3077(5) 0.4864(6) 0.0339 Uani
C14 C 0.3483(7) 0.3554(6) 0.4398(8) 0.0493 Uani
H7 H 0.2778 0.3141 0.4127 0.0590 Uiso
C15 C 0.3416(7) 0.4588(6) 0.4335(8) 0.0546 Uani
H8 H 0.2662 0.4886 0.4009 0.0660 Uiso
C16 C 0.5601(7) 0.3690(6) 0.5277(6) 0.0382 Uani
H9 H 0.6348 0.3377 0.5586 0.0460 Uiso
C17 C 0.5552(7) 0.4753(5) 0.5253(7) 0.0423 Uani
C22 C 0.5528(7) 0.0119(6) 0.8846(6) 0.0412 Uani
H12 H 0.6252 0.0235 0.8743 0.0500 Uiso
C23 C 0.5523(6) 0.0114(6) 0.9917(5) 0.0370 Uani
O1 O 0.3750(4) 0.1425(3) 0.4531(4) 0.0337 Uani
O2 O 0.5714(4) 0.1590(3) 0.5283(4) 0.0317 Uani
O4 O 0.5519(5) 0.0077(4) 0.6710(4) 0.0397 Uani
C37 C 0.5315(6) 0.8065(5) 0.5115(5) 0.0275 Uani
C38 C 0.5403(6) 0.6923(5) 0.5136(6) 0.0339 Uani
C39 C 0.6517(7) 0.6446(6) 0.5602(8) 0.0493 Uani
H19 H 0.7222 0.6859 0.5873 0.0590 Uiso
C40 C 0.6584(7) 0.5412(6) 0.5665(8) 0.0546 Uani
H20 H 0.7338 0.5114 0.5991 0.0660 Uiso
C41 C 0.4399(7) 0.6310(6) 0.4723(6) 0.0382 Uani
H21 H 0.3652 0.6623 0.4414 0.0460 Uiso
C42 C 0.4448(7) 0.5247(5) 0.4747(7) 0.0423 Uani
O9 O 0.6250(4) 0.8575(3) 0.5469(4) 0.0337 Uani
O10 O 0.4286(4) 0.8410(3) 0.4717(4) 0.0317 Uani
Zn4 Zn 0.37026(6) 0.98699(5) 0.44631(5) 0.0194 Uani
C47 C 0.4472(7) 0.9881(6) 0.1154(6) 0.0412 Uani
H24 H 0.3748 0.9765 0.1257 0.0500 Uiso
C48 C 0.4477(6) 0.9886(6) 0.0083(5) 0.0370 Uani
O12 O 0.4481(5) 0.9923(4) 0.3290(4) 0.0397 Uani
N1 N 0.2052(5) 0.9562(4) 0.3329(4) 0.0219 Uani
C4 C 0.1830(7) 0.8654(5) 0.2737(6) 0.0327 Uani
H4 H 0.2432 0.8160 0.2902 0.0390 Uiso
C5 C 0.0539(9) 0.6573(6) 0.2008(8) 0.0570 Uani
C6 C 0.0341(9) 0.5545(6) 0.1398(7) 0.0542 Uani
C7 C 0.0138(8) 0.5511(6) 0.0291(7) 0.0470 Uani
C9 C 0.0421(10) 0.7412(7) 0.0265(9) 0.0663 Uani
C11 C 0.0321(11) 0.4672(7) 0.1999(9) 0.0727 Uani
H6 H 0.0463 0.4723 0.2766 0.0870 Uiso
C18 C 0.4532(7) 0.9987(5) 0.6804(5) 0.0309 Uani
C19 C 0.4498(7) 0.9959(6) 0.7940(5) 0.0356 Uani
C20 C 0.3427(7) 0.9766(7) 0.8085(6) 0.0466 Uani
H10 H 0.2717 0.9649 0.7458 0.0560 Uiso
C21 C 0.3405(7) 0.9744(7) 0.9128(7) 0.0464 Uani
H11 H 0.2675 0.9634 0.9219 0.0560 Uiso
O3 O 0.3546(5) 0.9898(4) 0.5986(4) 0.0382 Uani
O5 O 0.0721(9) 0.6660(5) 0.2984(6) 0.0955 Uani
N2 N 0.0559(7) 0.7445(5) 0.1373(6) 0.0535 Uani
C24 C 0.0752(7) 0.8438(5) 0.1908(6) 0.0366 Uani
C34 C 0.0079(9) 0.3693(7) 0.1411(8) 0.0587 Uani
H17 H 0.0081 0.3077 0.1787 0.0710 Uiso
C10 C 0.9921(9) 0.6307(7) 0.8589(8) 0.0587 Uani
H5 H 0.9919 0.6923 0.8213 0.0710 Uiso
N3 N 0.7948(5) 0.0438(4) 0.6671(4) 0.0219 Uani
C28 C 0.8170(7) 0.1346(5) 0.7263(6) 0.0327 Uani
H16 H 0.7568 0.1840 0.7098 0.0390 Uiso
C29 C 0.9461(9) 0.3427(6) 0.7992(8) 0.0570 Uani
C30 C 0.9659(9) 0.4455(6) 0.8602(7) 0.0542 Uani
C31 C 0.9862(8) 0.4489(6) 0.9709(7) 0.0470 Uani
C33 C 0.9579(10) 0.2588(7) 0.9735(9) 0.0663 Uani
C35 C 0.9679(11) 0.5328(7) 0.8001(9) 0.0727 Uani
H18 H 0.9537 0.5277 0.7234 0.0870 Uiso
O7 O 0.9279(9) 0.3340(5) 0.7016(6) 0.0955 Uani
N4 N 0.9441(7) 0.2555(5) 0.8627(6) 0.0535 Uani
C36 C 0.9248(7) 0.1562(5) 0.8092(6) 0.0366 Uani
C25 C 0.8807(7) 0.9750(5) 0.6943(6) 0.0408 Uani
H13 H 0.8651 0.9107 0.6548 0.0490 Uiso
C26 C 0.9890(7) 0.9922(6) 0.7752(8) 0.0619 Uani
C8 C 0.0150(8) 0.6330(6) 0.9674(7) 0.0547 Uani
O6 O 0.0506(8) 0.8170(4) 0.9841(5) 0.0801 Uani
C27 C 0.0135(8) 0.0857(6) 0.8331(8) 0.0554 Uani
H15 H 0.0895 0.1009 0.8879 0.0670 Uiso
H14 H 0.0471 0.9407 0.7919 0.0740 Uiso
H2 H 0.9529 0.0593 0.2081 0.0740 Uiso
C3 C 0.9865(8) 0.9143(6) 0.1669(8) 0.0554 Uani
H3 H 0.9105 0.8991 0.1121 0.0670 Uiso
C32 C 0.9850(8) 0.3670(6) 0.0326(7) 0.0547 Uani
O8 O 0.9494(8) 0.1830(4) 0.0159(5) 0.0801 Uani
loop_
_atom_site_aniso_label
_atom_site_aniso_U_11
_atom_site_aniso_U_22
_atom_site_aniso_U_33
_atom_site_aniso_U_23
_atom_site_aniso_U_13
_atom_site_aniso_U_12
Zn7 0.03 0.0142 0.0115 -0.0072 0.0053 0.0011
C43 0.048 0.033 0.015 -0.006 0.016 0.002
C44 0.043 0.053 0.014 -0.013 0.015 0.001
C45 0.041 0.079 0.015 -0.01 0.006 -0.008
C46 0.026 0.087 0.029 -0.002 0.014 -0.003
O11 0.055 0.045 0.01 -0.006 0.007 0.003
C1 0.045 0.016 0.047 -0.011 0.001 0.01
C2 0.037 0.035 0.079 -0.028 -0.017 0.009
C12 0.036 0.018 0.028 -0.01 0.012 0
C13 0.04 0.02 0.035 -0.012 0.007 0.002
C14 0.04 0.023 0.069 -0.014 0.003 0.001
C15 0.025 0.032 0.089 -0.022 0.002 -0.001
C16 0.037 0.028 0.045 -0.018 0.011 -0.001
C17 0.039 0.017 0.064 -0.012 0.012 0.002
C22 0.035 0.056 0.038 -0.003 0.02 0.001
C23 0.037 0.059 0.015 -0.006 0.01 0
O1 0.035 0.021 0.04 -0.011 0.009 -0.004
O2 0.044 0.015 0.027 -0.0069 0.003 0.004
O4 0.056 0.045 0.019 -0.012 0.016 -0.005
C37 0.036 0.018 0.028 -0.01 0.012 0
C38 0.04 0.02 0.035 -0.012 0.007 0.002
C39 0.04 0.023 0.069 -0.014 0.003 0.001
C40 0.025 0.032 0.089 -0.022 0.002 -0.001
C41 0.037 0.028 0.045 -0.018 0.011 -0.001
C42 0.039 0.017 0.064 -0.012 0.012 0.002
O9 0.035 0.021 0.04 -0.011 0.009 -0.004
O10 0.044 0.015 0.027 -0.0069 0.003 0.004
Zn4 0.03 0.0142 0.0115 -0.0072 0.0053 0.0011
C47 0.035 0.056 0.038 -0.003 0.02 0.001
C48 0.037 0.059 0.015 -0.006 0.01 0
O12 0.056 0.045 0.019 -0.012 0.016 -0.005
N1 0.027 0.016 0.016 -0.011 0.001 -0.004
C4 0.046 0.017 0.031 -0.009 0.01 0.004
C5 0.079 0.025 0.061 -0.023 0.021 -0.012
C6 0.074 0.024 0.047 -0.02 0.004 -0.016
C7 0.051 0.032 0.051 -0.013 0.012 -0.006
C9 0.096 0.031 0.062 -0.01 0.019 -0.008
C11 0.115 0.037 0.059 -0.016 0.026 -0.014
C18 0.048 0.033 0.015 -0.006 0.016 0.002
C19 0.043 0.053 0.014 -0.013 0.015 0.001
C20 0.041 0.079 0.015 -0.01 0.006 -0.008
C21 0.026 0.087 0.029 -0.002 0.014 -0.003
O3 0.055 0.045 0.01 -0.006 0.007 0.003
O5 0.2 0.038 0.045 -0.014 0.043 -0.014
N2 0.061 0.036 0.051 -0.023 0.008 -0.006
C24 0.044 0.022 0.036 -0.014 0.007 -0.004
C34 0.073 0.035 0.053 -0.008 0.007 -0.008
C10 0.073 0.035 0.053 -0.008 0.007 -0.008
N3 0.027 0.016 0.016 -0.011 0.001 -0.004
C28 0.046 0.017 0.031 -0.009 0.01 0.004
C29 0.079 0.025 0.061 -0.023 0.021 -0.012
C30 0.074 0.024 0.047 -0.02 0.004 -0.016
C31 0.051 0.032 0.051 -0.013 0.012 -0.006
C33 0.096 0.031 0.062 -0.01 0.019 -0.008
C35 0.115 0.037 0.059 -0.016 0.026 -0.014
O7 0.2 0.038 0.045 -0.014 0.043 -0.014
N4 0.061 0.036 0.051 -0.023 0.008 -0.006
C36 0.044 0.022 0.036 -0.014 0.007 -0.004
C25 0.045 0.016 0.047 -0.011 0.001 0.01
C26 0.037 0.035 0.079 -0.028 -0.017 0.009
C8 0.071 0.039 0.029 -0.008 -0.009 -0.018
O6 0.142 0.025 0.051 -0.013 0.012 -0.025
C27 0.044 0.04 0.055 -0.016 -0.012 0.002
C3 0.044 0.04 0.055 -0.016 -0.012 0.002
C32 0.071 0.039 0.029 -0.008 -0.009 -0.018
O8 0.142 0.025 0.051 -0.013 0.012 -0.025
loop_
_geom_bond_atom_site_label_1
_geom_bond_atom_site_label_2
_geom_bond_site_symmetry_1
_geom_bond_site_symmetry_2
C43 C44 1_555 1_555
C44 C45 1_555 1_555
C45 H22 1_555 1_555
H23 C46 1_555 1_555
O11 C43 1_555 1_555
Zn7 O11 1_555 1_555
C45 C46 1_555 1_555
C1 H1 1_555 1_555
C2 C1 1_555 1_555
C12 C13 1_555 1_555
C13 C14 1_555 1_555
C14 H7 1_555 1_555
C15 C14 1_555 1_555
H8 C15 1_555 1_555
C16 C13 1_555 1_555
H9 C16 1_555 1_555
C17 C16 1_555 1_555
H12 C22 1_555 1_555
C23 C22 1_555 1_555
O2 C12 1_555 1_555
C37 C38 1_555 1_555
C38 C39 1_555 1_555
C39 H19 1_555 1_555
C40 C17 1_555 1_555
H20 C40 1_555 1_555
C41 C38 1_555 1_555
H21 C41 1_555 1_555
C42 C15 1_555 1_555
O9 C37 1_555 1_555
O10 C37 1_555 1_555
Zn4 O10 1_555 1_555
Zn7 O2 1_555 1_555
C12 O1 1_555 1_555
C17 C42 1_555 1_555
O4 Zn7 1_555 1_555
C39 C40 1_555 1_555
C41 C42 1_555 1_555
H24 C47 1_555 1_555
Zn4 O12 1_555 1_555
C47 C48 1_555 1_555
Zn4 N1 1_555 1_555
C4 N1 1_555 1_555
H4 C4 1_555 1_555
C5 C6 1_555 1_555
C6 C7 1_555 1_555
C11 C6 1_555 1_555
H6 C11 1_555 1_555
C18 C19 1_555 1_555
C19 C20 1_555 1_555
C20 H10 1_555 1_555
C21 C20 1_555 1_555
H11 C21 1_555 1_555
O3 Zn4 1_555 1_555
O5 C5 1_555 1_555
N2 C5 1_555 1_555
C34 C11 1_555 1_555
H17 C34 1_555 1_555
C4 C24 1_555 1_555
C9 N2 1_555 1_555
C18 O3 1_555 1_555
N2 C24 1_555 1_555
H5 C10 1_555 1_555
C28 N3 1_555 1_555
H16 C28 1_555 1_555
C29 C30 1_555 1_555
C30 C31 1_555 1_555
C35 C10 1_555 1_555
H18 C35 1_555 1_555
O7 C29 1_555 1_555
N4 C29 1_555 1_555
Zn7 N3 1_555 1_555
C28 C36 1_555 1_555
C30 C35 1_555 1_555
C33 N4 1_555 1_555
N4 C36 1_555 1_555
C25 H13 1_555 1_555
C26 C25 1_555 1_555
H15 C27 1_555 1_555
H3 C3 1_555 1_555

#END
