
###############################################################################
#
# This file contains modified crystal structure data generated from the
# MOF subset of the Cambridge Structural Database (CSD) v543 
# hosted by the Cambridge Crystallographic Data Centre (CCDC).
#
# This work is licensed under the Creative Commons
# Attribution-NonCommercial-ShareAlike 4.0 International License.
# To view a copy of this license, visit
# http://creativecommons.org/licenses/by-nc-sa/4.0/
# or send a letter to
# Creative Commons, PO Box 1866, Mountain View, CA 94042, USA.
#
# CIF created using the CSD Python API on 29 September 2022
# The structure has been converted into the P1 space group
# The structure has a 3D framework
# The original CSD entry MEDPUK is in the monoclinic crystal system
# The framework has been calculated to contain at least 10.0% void space
# The void calculation uses a probe of radius 1.32A, grid spacing 0.4
#
###############################################################################

data_MEDPUK
_chemical_formula_moiety         '(C120 H132 Cu6 I2 N12 S12)n'
_symmetry_cell_setting           triclinic
_symmetry_space_group_name_H-M   'P 1'
_symmetry_Int_Tables_number      1
_space_group_name_Hall           'P 1'
loop_
_symmetry_equiv_pos_site_id
_symmetry_equiv_pos_as_xyz
1 x,y,z
_cell_length_a                   9.7035(2)
_cell_length_b                   32.1865(5)
_cell_length_c                   13.0126(2)
_cell_angle_alpha                90
_cell_angle_beta                 103.764(2)
_cell_angle_gamma                90
_cell_volume                     3947.41
loop_
_atom_site_label
_atom_site_type_symbol
_atom_site_fract_x
_atom_site_fract_y
_atom_site_fract_z
Cu1 Cu 0.37882(16) 0.51731(5) 0.03712(11)
H14 H 0.073204 0.543969 0.011449
I4 I 0.44280(6) 0.43739(2) 0.05034(5)
I5 I 0.33916(7) 0.54220(2) 0.21821(5)
Cu5 Cu 0.50816(16) 0.58509(5) 0.13152(12)
S1 S 0.8234(3) 0.55408(9) 0.64744(19)
S2 S 0.1033(3) 0.62182(10) 0.4879(2)
S3 S 0.7366(4) 0.72828(9) 0.5059(3)
N1 N 0.9169(9) 0.8575(3) 0.5927(7)
C1 C 0.3860(10) 0.6251(3) 0.4968(8)
C2 C 0.4742(10) 0.5945(3) 0.5560(7)
C3 C 0.5984(10) 0.6073(3) 0.6306(8)
C4 C 0.4419(11) 0.5482(3) 0.5401(8)
H1 H 0.529784 0.532684 0.561483
H2 H 0.402736 0.542918 0.465451
C5 C 0.6813(11) 0.5750(3) 0.7041(8)
H3 H 0.618566 0.552727 0.714109
H4 H 0.722091 0.587418 0.772488
C6 C 0.6381(11) 0.6488(3) 0.6404(8)
H6 H 0.036902 0.590350 0.270425
C9 C 0.4255(13) 0.6673(3) 0.5056(9)
C11 C 0.5539(11) 0.6787(3) 0.5759(9)
C14 C 0.7745(12) 0.6616(4) 0.7192(9)
H9 H 0.813737 0.685871 0.692338
H10 H 0.843325 0.639289 0.725639
C15 C 0.2467(11) 0.6126(3) 0.4221(8)
H11 H 0.249436 0.583510 0.403688
H12 H 0.231319 0.628893 0.357607
C16 C 0.9550(11) 0.5472(4) 0.8633(9)
H13 H 0.874198 0.557618 0.880911
C19 C 0.6010(13) 0.7233(3) 0.5820(10)
H16 H 0.639978 0.731236 0.655059
H17 H 0.521149 0.741312 0.552690
C21 C 0.8002(14) 0.7787(4) 0.5398(10)
C22 C 0.3372(13) 0.5325(4) 0.6031(9)
H19 H 0.249805 0.547700 0.582200
H20 H 0.377028 0.536589 0.677352
H21 H 0.319198 0.503485 0.589280
C23 C 0.7500(14) 0.6716(5) 0.8299(10)
H22 H 0.680000 0.693097 0.823621
H23 H 0.837393 0.680741 0.875719
H24 H 0.717370 0.647069 0.858879
C24 C 0.3322(15) 0.6999(4) 0.4377(11)
H25 H 0.236090 0.689214 0.416396
H26 H 0.330169 0.724464 0.480340
C25 C 0.9888(12) 0.8274(4) 0.5545(10)
C26 C 0.9559(11) 0.5403(3) 0.7583(8)
C27 C 0.7247(15) 0.8096(4) 0.5760(13)
H28 H 0.633160 0.804616 0.583582
C28 C 0.7878(14) 0.8480(4) 0.6009(12)
H29 H 0.735699 0.868518 0.624908
C29 C 0.9351(13) 0.7889(4) 0.5273(10)
H30 H 0.988060 0.769390 0.500396
C30 C 0.378(3) 0.7116(7) 0.3440(19)
H31 H 0.382324 0.687429 0.301793
H32 H 0.470556 0.724110 0.364327
H33 H 0.312230 0.731214 0.303752
N3 N 0.6985(9) 0.5947(3) 0.2384(7)
C7 C 0.6984(11) 0.6088(4) 0.3366(8)
H5 H 0.611721 0.612904 0.353817
C8 C 0.9518(10) 0.5957(3) 0.2889(8)
C10 C 0.9502(11) 0.6108(3) 0.3886(8)
C13 C 0.8203(11) 0.6171(3) 0.4114(8)
H8 H 0.815430 0.627088 0.477520
C18 C 0.8220(12) 0.5889(4) 0.2173(8)
H15 H 0.823523 0.579556 0.149901
N4 N 0.4169(9) 0.6425(3) 0.0927(7)
I1 I 0.94280(6) 0.06261(2) 0.55034(5)
Cu2 Cu 0.99184(16) 0.08509(5) 0.36848(12)
S2_2 S 0.3967(3) 0.12182(10) 0.0121(2)
N3_2 N 0.8015(9) 0.0947(3) 0.2616(7)
C1_2 C 0.1140(10) 0.1251(3) 0.0032(8)
H2_2 H 0.097264 0.042918 0.034549
C7_2 C 0.8016(11) 0.1088(4) 0.1634(8)
H5_2 H 0.888279 0.112904 0.146183
C8_2 C 0.5482(10) 0.0957(3) 0.2111(8)
H6_2 H 0.463098 0.090350 0.229575
C10_2 C 0.5498(11) 0.1108(3) 0.1114(8)
C13_2 C 0.6797(11) 0.1171(3) 0.0886(8)
H8_2 H 0.684570 0.127088 0.022480
C15_2 C 0.2533(11) 0.1126(3) 0.0779(8)
H11_2 H 0.250564 0.083510 0.096312
H12_2 H 0.268681 0.128893 0.142393
C18_2 C 0.6780(12) 0.0889(4) 0.2827(8)
H15_2 H 0.676477 0.079556 0.350099
C24_2 C 0.1678(15) 0.1999(4) 0.0623(11)
H25_2 H 0.263910 0.189214 0.083604
H26_2 H 0.169831 0.224464 0.019660
C30_2 C 0.122(3) 0.2116(7) 0.1560(19)
H31_2 H 0.117676 0.187429 0.198207
H32_2 H 0.029444 0.224110 0.135673
H33_2 H 0.187770 0.231214 0.196248
Cu4 Cu 0.87882(16) 0.98269(5) 0.53712(11)
N2 N 0.8065(9) 0.4775(3) 0.0774(7)
C12 C 0.8075(12) 0.4861(3) 0.1775(8)
H7 H 0.727691 0.498528 0.191840
C17 C 0.9250(11) 0.4616(4) 0.0584(8)
C20 C 0.9210(10) 0.4774(3) 0.2615(8)
H18 H 0.915634 0.483256 0.330427
H27 H 0.920595 0.166546 0.453387
S1_2 S 0.3234(3) 0.94592(9) 0.14744(19)
S3_2 S 0.2366(4) 0.77172(9) 0.0059(3)
N2_2 N 0.6935(9) 0.9775(3) 0.4226(7)
C3_2 C 0.0984(10) 0.8927(3) 0.1306(8)
H1_2 H 0.029784 0.967316 0.061483
C5_2 C 0.1813(11) 0.9250(3) 0.2041(8)
H3_2 H 0.118566 0.947273 0.214109
H4_2 H 0.222091 0.912582 0.272488
C6_2 C 0.1381(11) 0.8512(3) 0.1404(8)
C11_2 C 0.0539(11) 0.8213(3) 0.0759(9)
C12_2 C 0.6925(12) 0.9861(3) 0.3225(8)
H7_2 H 0.772309 0.998528 0.308160
C14_2 C 0.2745(12) 0.8384(4) 0.2192(9)
H9_2 H 0.313737 0.814129 0.192338
H10_2 H 0.343325 0.860711 0.225639
C16_2 C 0.4550(11) 0.9528(4) 0.3633(9)
H13_2 H 0.374198 0.942382 0.380911
C17_2 C 0.5750(11) 0.9616(4) 0.4416(8)
H14_2 H 0.573204 0.956031 0.511449
C19_2 C 0.1010(13) 0.7767(3) 0.0820(10)
H16_2 H 0.139978 0.768764 0.155059
H17_2 H 0.021149 0.758688 0.052690
C20_2 C 0.5790(10) 0.9774(3) 0.2385(8)
H18_2 H 0.584366 0.983256 0.169573
C21_2 C 0.3002(14) 0.7213(4) 0.0398(10)
C23_2 C 0.2500(14) 0.8284(5) 0.3299(10)
H22_2 H 0.180000 0.806903 0.323621
H23_2 H 0.337393 0.819259 0.375719
H24_2 H 0.217370 0.852931 0.358879
C25_2 C 0.4888(12) 0.6726(4) 0.0545(10)
H27_2 H 0.579405 0.666546 0.046613
C26_2 C 0.4559(11) 0.9597(3) 0.2583(8)
C27_2 C 0.2247(15) 0.6904(4) 0.0760(13)
H28_2 H 0.133160 0.695384 0.083582
C28_2 C 0.2878(14) 0.6520(4) 0.1009(12)
H29_2 H 0.235699 0.631482 0.124908
C29_2 C 0.4351(13) 0.7111(4) 0.0273(10)
H30_2 H 0.488060 0.730610 0.000396
I5_2 I 0.83916(7) 0.95780(2) 0.71821(5)
N2_3 N 0.1935(9) 0.5225(3) 0.9226(7)
C12_3 C 0.1925(12) 0.5139(3) 0.8225(8)
H7_3 H 0.272309 0.501472 0.808160
C17_3 C 0.0750(11) 0.5384(4) 0.9416(8)
C20_3 C 0.0790(10) 0.5226(3) 0.7385(8)
H18_3 H 0.084366 0.516744 0.669573
H27_3 H 0.079405 0.833454 0.546613
I3 I 0.55720(6) 0.56261(2) 0.94966(5)
Cu6 Cu 0.00816(16) 0.91491(5) 0.63152(12)
Cu4_2 Cu 0.62118(16) 0.48269(5) 0.96288(11)
I2 I 0.16084(7) 0.04220(2) 0.28179(5)
Cu3 Cu 0.12118(16) 0.01731(5) 0.46288(11)
N4_2 N 0.0831(9) 0.1425(3) 0.4073(7)
S1_3 S 0.6766(3) 0.05408(9) 0.85256(19)
S3_3 S 0.7634(4) 0.22828(9) 0.9941(3)
N1_2 N 0.5831(9) 0.3575(3) 0.9073(7)
N2_4 N 0.3065(9) 0.0225(3) 0.5774(7)
C3_3 C 0.9016(10) 0.1073(3) 0.8694(8)
H1_3 H 0.970216 0.032684 0.938517
C5_3 C 0.8187(11) 0.0750(3) 0.7959(8)
H3_3 H 0.881434 0.052727 0.785891
H4_3 H 0.777909 0.087418 0.727512
C6_3 C 0.8619(11) 0.1488(3) 0.8596(8)
C11_3 C 0.9461(11) 0.1787(3) 0.9241(9)
C12_4 C 0.3075(12) 0.0139(3) 0.6775(8)
H7_4 H 0.227691 0.001472 0.691840
C14_3 C 0.7255(12) 0.1616(4) 0.7808(9)
H9_3 H 0.686263 0.185871 0.807662
H10_3 H 0.656675 0.139289 0.774361
C16_3 C 0.5450(11) 0.0472(4) 0.6367(9)
H13_3 H 0.625802 0.057618 0.619089
C17_4 C 0.4250(11) 0.0384(4) 0.5584(8)
H14_3 H 0.426796 0.043969 0.488551
C19_3 C 0.8990(13) 0.2233(3) 0.9180(10)
H16_3 H 0.860022 0.231236 0.844941
H17_3 H 0.978851 0.241312 0.947310
C20_4 C 0.4210(10) 0.0226(3) 0.7615(8)
H18_4 H 0.415634 0.016744 0.830427
C21_3 C 0.6998(14) 0.2787(4) 0.9602(10)
C23_3 C 0.7500(14) 0.1716(5) 0.6701(10)
H22_3 H 0.820000 0.193097 0.676379
H23_3 H 0.662607 0.180741 0.624281
H24_3 H 0.782630 0.147069 0.641121
C25_3 C 0.5112(12) 0.3274(4) 0.9455(10)
H27_4 H 0.420595 0.333454 0.953387
C26_3 C 0.5441(11) 0.0403(3) 0.7417(8)
C27_3 C 0.7753(15) 0.3096(4) 0.9240(13)
H28_3 H 0.866840 0.304616 0.916418
C28_3 C 0.7122(14) 0.3480(4) 0.8991(12)
H29_3 H 0.764301 0.368518 0.875092
C29_3 C 0.5649(13) 0.2889(4) 0.9727(10)
H30_3 H 0.511940 0.269390 0.999604
Cu6_2 Cu 0.49184(16) 0.41491(5) 0.86848(12)
I4_2 I 0.05720(6) 0.93739(2) 0.44966(5)
I2_2 I 0.66084(7) 0.45780(2) 0.78179(5)
N3_3 N 0.3015(9) 0.4053(3) 0.7616(7)
C7_3 C 0.3016(11) 0.3912(4) 0.6634(8)
H5_3 H 0.388279 0.387096 0.646183
C8_3 C 0.0482(10) 0.4043(3) 0.7111(8)
C10_3 C 0.0498(11) 0.3892(3) 0.6114(8)
C13_3 C 0.1797(11) 0.3829(3) 0.5886(8)
H8_3 H 0.184570 0.372912 0.522480
C18_3 C 0.1780(12) 0.4111(4) 0.7827(8)
H15_3 H 0.176477 0.420444 0.850099
S1_4 S 0.1766(3) 0.44592(9) 0.35256(19)
S2_3 S 0.8967(3) 0.37818(10) 0.5121(2)
S3_4 S 0.2634(4) 0.27172(9) 0.4941(3)
C1_3 C 0.6140(10) 0.3749(3) 0.5032(8)
C2_2 C 0.5258(10) 0.4055(3) 0.4440(7)
C3_4 C 0.4016(10) 0.3927(3) 0.3694(8)
C4_2 C 0.5581(11) 0.4518(3) 0.4599(8)
H1_4 H 0.470216 0.467316 0.438517
H2_3 H 0.597264 0.457082 0.534549
C5_4 C 0.3187(11) 0.4250(3) 0.2959(8)
H3_4 H 0.381434 0.447273 0.285891
H4_4 H 0.277909 0.412582 0.227512
C6_4 C 0.3619(11) 0.3512(3) 0.3596(8)
H6_3 H 0.963098 0.409650 0.729575
C9_2 C 0.5745(13) 0.3327(3) 0.4944(9)
C11_4 C 0.4461(11) 0.3213(3) 0.4241(9)
C14_4 C 0.2255(12) 0.3384(4) 0.2808(9)
H9_4 H 0.186263 0.314129 0.307662
H10_4 H 0.156675 0.360711 0.274361
C15_3 C 0.7533(11) 0.3874(3) 0.5779(8)
H11_3 H 0.750564 0.416490 0.596312
H12_3 H 0.768681 0.371107 0.642393
C16_4 C 0.0450(11) 0.4528(4) 0.1367(9)
H13_4 H 0.125802 0.442382 0.119089
C19_4 C 0.3990(13) 0.2767(3) 0.4180(10)
H16_4 H 0.360022 0.268764 0.344941
H17_4 H 0.478851 0.258688 0.447310
C21_4 C 0.1998(14) 0.2213(4) 0.4602(10)
C22_2 C 0.6628(13) 0.4675(4) 0.3969(9)
H19_2 H 0.750195 0.452300 0.417800
H20_2 H 0.622972 0.463411 0.322648
H21_2 H 0.680802 0.496515 0.410720
C23_4 C 0.2500(14) 0.3284(5) 0.1701(10)
H22_4 H 0.320000 0.306903 0.176379
H23_4 H 0.162607 0.319259 0.124281
H24_4 H 0.282630 0.352931 0.141121
C24_3 C 0.6678(15) 0.3001(4) 0.5623(11)
H25_3 H 0.763910 0.310786 0.583604
H26_3 H 0.669831 0.275536 0.519660
C25_4 C 0.0112(12) 0.1726(4) 0.4455(10)
C26_4 C 0.0441(11) 0.4597(3) 0.2417(8)
C27_4 C 0.2753(15) 0.1904(4) 0.4240(13)
H28_4 H 0.366840 0.195384 0.416418
C28_4 C 0.2122(14) 0.1520(4) 0.3991(12)
H29_4 H 0.264301 0.131482 0.375092
C29_4 C 0.0649(13) 0.2111(4) 0.4727(10)
H30_4 H 0.011940 0.230610 0.499604
C30_3 C 0.622(3) 0.2884(7) 0.6560(19)
H31_3 H 0.617676 0.312571 0.698207
H32_3 H 0.529444 0.275890 0.635673
H33_3 H 0.687770 0.268786 0.696248
H14_4 H 0.926796 0.456031 0.988551
S2_4 S 0.6033(3) 0.87818(10) 0.9879(2)
N3_4 N 0.1985(9) 0.9053(3) 0.7384(7)
C1_4 C 0.8860(10) 0.8749(3) 0.9968(8)
H2_4 H 0.902736 0.957082 0.965451
C7_4 C 0.1984(11) 0.8912(4) 0.8366(8)
H5_4 H 0.111721 0.887096 0.853817
C8_4 C 0.4518(10) 0.9043(3) 0.7889(8)
H6_4 H 0.536902 0.909650 0.770425
C10_4 C 0.4502(11) 0.8892(3) 0.8886(8)
C13_4 C 0.3203(11) 0.8829(3) 0.9114(8)
H8_4 H 0.315430 0.872912 0.977520
C15_4 C 0.7467(11) 0.8874(3) 0.9221(8)
H11_4 H 0.749436 0.916490 0.903688
H12_4 H 0.731319 0.871107 0.857607
C18_4 C 0.3220(12) 0.9111(4) 0.7173(8)
H15_4 H 0.323523 0.920444 0.649901
C24_4 C 0.8322(15) 0.8001(4) 0.9377(11)
H25_4 H 0.736090 0.810786 0.916396
H26_4 H 0.830169 0.775536 0.980340
C30_4 C 0.878(3) 0.7884(7) 0.8440(19)
H31_4 H 0.882324 0.812571 0.801793
H32_4 H 0.970556 0.775890 0.864327
H33_4 H 0.812230 0.768786 0.803752
C2_3 C 0.0258(10) 0.0945(3) 0.9440(7)
C4_3 C 0.0581(11) 0.0482(3) 0.9599(8)
C9_3 C 0.0745(13) 0.1673(3) 0.9944(9)
C22_3 C 0.1628(13) 0.0325(4) 0.8969(9)
H19_3 H 0.250195 0.047700 0.917800
H20_3 H 0.122972 0.036589 0.822648
H21_3 H 0.180802 0.003485 0.910720
C2_4 C 0.9742(10) 0.9055(3) 0.0560(7)
C4_4 C 0.9419(11) 0.9518(3) 0.0401(8)
C9_4 C 0.9255(13) 0.8327(3) 0.0056(9)
C22_4 C 0.8372(13) 0.9675(4) 0.1031(9)
H19_4 H 0.749805 0.952300 0.082200
H20_4 H 0.877028 0.963411 0.177352
H21_4 H 0.819198 0.996515 0.089280
loop_
_geom_bond_atom_site_label_1
_geom_bond_atom_site_label_2
_geom_bond_site_symmetry_1
_geom_bond_site_symmetry_2
I4 Cu1 1_555 1_555
I5 Cu1 1_555 1_555
Cu5 Cu1 1_555 1_555
I5 Cu5 1_555 1_555
S1 C5 1_555 1_555
S3 C19 1_555 1_555
N1 C25 1_555 1_555
C1 C2 1_555 1_555
C2 C3 1_555 1_555
C3 C5 1_555 1_555
C4 C2 1_555 1_555
H1 C4 1_555 1_555
H2 C4 1_555 1_555
C5 H3 1_555 1_555
H4 C5 1_555 1_555
C6 C3 1_555 1_555
C9 C1 1_555 1_555
C11 C6 1_555 1_555
C14 C6 1_555 1_555
H9 C14 1_555 1_555
H10 C14 1_555 1_555
C15 S2 1_555 1_555
H11 C15 1_555 1_555
H12 C15 1_555 1_555
C16 H13 1_555 1_555
C19 C11 1_555 1_555
H16 C19 1_555 1_555
H17 C19 1_555 1_555
C21 S3 1_555 1_555
C22 C4 1_555 1_555
H19 C22 1_555 1_555
H20 C22 1_555 1_555
H21 C22 1_555 1_555
C23 C14 1_555 1_555
H22 C23 1_555 1_555
H23 C23 1_555 1_555
H24 C23 1_555 1_555
C24 C9 1_555 1_555
H25 C24 1_555 1_555
H26 C24 1_555 1_555
C26 S1 1_555 1_555
C27 C21 1_555 1_555
H28 C27 1_555 1_555
C28 N1 1_555 1_555
H29 C28 1_555 1_555
C29 C21 1_555 1_555
H30 C29 1_555 1_555
C30 C24 1_555 1_555
H31 C30 1_555 1_555
H32 C30 1_555 1_555
H33 C30 1_555 1_555
C1 C15 1_555 1_555
C9 C11 1_555 1_555
C16 C26 1_555 1_555
C25 C29 1_555 1_555
C27 C28 1_555 1_555
Cu5 N3 1_555 1_555
N3 C7 1_555 1_555
C7 H5 1_555 1_555
C10 C8 1_555 1_555
C13 C7 1_555 1_555
H8 C13 1_555 1_555
C18 N3 1_555 1_555
H15 C18 1_555 1_555
N4 Cu5 1_555 1_555
C8 C18 1_555 1_555
C10 C13 1_555 1_555
I1 Cu2 1_555 1_555
Cu2 N3_2 1_555 1_555
S2_2 C10_2 1_555 1_555
N3_2 C7_2 1_555 1_555
C7_2 H5_2 1_555 1_555
C8_2 H6_2 1_555 1_555
C10_2 C8_2 1_555 1_555
C13_2 C7_2 1_555 1_555
H8_2 C13_2 1_555 1_555
C15_2 S2_2 1_555 1_555
H11_2 C15_2 1_555 1_555
H12_2 C15_2 1_555 1_555
C18_2 N3_2 1_555 1_555
H15_2 C18_2 1_555 1_555
H25_2 C24_2 1_555 1_555
H26_2 C24_2 1_555 1_555
C30_2 C24_2 1_555 1_555
H31_2 C30_2 1_555 1_555
H32_2 C30_2 1_555 1_555
H33_2 C30_2 1_555 1_555
C1_2 C15_2 1_555 1_555
C8_2 C18_2 1_555 1_555
C10_2 C13_2 1_555 1_555
N2 C12 1_555 1_555
C12 H7 1_555 1_555
C17 N2 1_555 1_555
C20 C12 1_555 1_555
H18 C20 1_555 1_555
Cu4 N2_2 1_555 1_555
S1_2 C5_2 1_555 1_555
S3_2 C19_2 1_555 1_555
N4 C25_2 1_555 1_555
N2_2 C12_2 1_555 1_555
C3_2 C5_2 1_555 1_555
C5_2 H3_2 1_555 1_555
H4_2 C5_2 1_555 1_555
C6_2 C3_2 1_555 1_555
C11_2 C6_2 1_555 1_555
C12_2 H7_2 1_555 1_555
C14_2 C6_2 1_555 1_555
H9_2 C14_2 1_555 1_555
H10_2 C14_2 1_555 1_555
C16_2 H13_2 1_555 1_555
C17_2 N2_2 1_555 1_555
H14_2 C17_2 1_555 1_555
C19_2 C11_2 1_555 1_555
H16_2 C19_2 1_555 1_555
H17_2 C19_2 1_555 1_555
C20_2 C12_2 1_555 1_555
H18_2 C20_2 1_555 1_555
C21_2 S3_2 1_555 1_555
C23_2 C14_2 1_555 1_555
H22_2 C23_2 1_555 1_555
H23_2 C23_2 1_555 1_555
H24_2 C23_2 1_555 1_555
C25_2 H27_2 1_555 1_555
C26_2 S1_2 1_555 1_555
C27_2 C21_2 1_555 1_555
H28_2 C27_2 1_555 1_555
C28_2 N4 1_555 1_555
H29_2 C28_2 1_555 1_555
C29_2 C21_2 1_555 1_555
H30_2 C29_2 1_555 1_555
I5_2 Cu4 1_555 1_555
C16_2 C17_2 1_555 1_555
C16_2 C26_2 1_555 1_555
C20_2 C26_2 1_555 1_555
C25_2 C29_2 1_555 1_555
C27_2 C28_2 1_555 1_555
N2_3 C12_3 1_555 1_555
C12_3 H7_3 1_555 1_555
C17_3 N2_3 1_555 1_555
C20_3 C12_3 1_555 1_555
H18_3 C20_3 1_555 1_555
Cu4_2 I3 1_555 1_555
I2 Cu3 1_555 1_555
Cu3 N2_4 1_555 1_555
S1_3 C5_3 1_555 1_555
S3_3 C19_3 1_555 1_555
N1_2 C25_3 1_555 1_555
N2_4 C12_4 1_555 1_555
C3_3 C5_3 1_555 1_555
C5_3 H3_3 1_555 1_555
H4_3 C5_3 1_555 1_555
C6_3 C3_3 1_555 1_555
C11_3 C6_3 1_555 1_555
C12_4 H7_4 1_555 1_555
C14_3 C6_3 1_555 1_555
H9_3 C14_3 1_555 1_555
H10_3 C14_3 1_555 1_555
C16_3 H13_3 1_555 1_555
C17_4 N2_4 1_555 1_555
H14_3 C17_4 1_555 1_555
C19_3 C11_3 1_555 1_555
H16_3 C19_3 1_555 1_555
H17_3 C19_3 1_555 1_555
C20_4 C12_4 1_555 1_555
H18_4 C20_4 1_555 1_555
C21_3 S3_3 1_555 1_555
C23_3 C14_3 1_555 1_555
H22_3 C23_3 1_555 1_555
H23_3 C23_3 1_555 1_555
H24_3 C23_3 1_555 1_555
C25_3 H27_4 1_555 1_555
C26_3 S1_3 1_555 1_555
C27_3 C21_3 1_555 1_555
H28_3 C27_3 1_555 1_555
C28_3 N1_2 1_555 1_555
H29_3 C28_3 1_555 1_555
C29_3 C21_3 1_555 1_555
H30_3 C29_3 1_555 1_555
Cu6_2 N1_2 1_555 1_555
C16_3 C17_4 1_555 1_555
C16_3 C26_3 1_555 1_555
C20_4 C26_3 1_555 1_555
C25_3 C29_3 1_555 1_555
C27_3 C28_3 1_555 1_555
I2_2 Cu6_2 1_555 1_555
Cu6_2 N3_3 1_555 1_555
N3_3 C7_3 1_555 1_555
C7_3 H5_3 1_555 1_555
C10_3 C8_3 1_555 1_555
C13_3 C7_3 1_555 1_555
H8_3 C13_3 1_555 1_555
C18_3 N3_3 1_555 1_555
H15_3 C18_3 1_555 1_555
I2_2 Cu4_2 1_555 1_555
Cu6_2 Cu4_2 1_555 1_555
C8_3 C18_3 1_555 1_555
C10_3 C13_3 1_555 1_555
S1_4 C5_4 1_555 1_555
S3_4 C19_4 1_555 1_555
N4_2 C25_4 1_555 1_555
C1_3 C2_2 1_555 1_555
C2_2 C3_4 1_555 1_555
C3_4 C5_4 1_555 1_555
C4_2 C2_2 1_555 1_555
H1_4 C4_2 1_555 1_555
H2_3 C4_2 1_555 1_555
C5_4 H3_4 1_555 1_555
H4_4 C5_4 1_555 1_555
C6_4 C3_4 1_555 1_555
C9_2 C1_3 1_555 1_555
C11_4 C6_4 1_555 1_555
C14_4 C6_4 1_555 1_555
H9_4 C14_4 1_555 1_555
H10_4 C14_4 1_555 1_555
C15_3 S2_3 1_555 1_555
H11_3 C15_3 1_555 1_555
H12_3 C15_3 1_555 1_555
C16_4 H13_4 1_555 1_555
C19_4 C11_4 1_555 1_555
H16_4 C19_4 1_555 1_555
H17_4 C19_4 1_555 1_555
C21_4 S3_4 1_555 1_555
C22_2 C4_2 1_555 1_555
H19_2 C22_2 1_555 1_555
H20_2 C22_2 1_555 1_555
H21_2 C22_2 1_555 1_555
C23_4 C14_4 1_555 1_555
H22_4 C23_4 1_555 1_555
H23_4 C23_4 1_555 1_555
H24_4 C23_4 1_555 1_555
C24_3 C9_2 1_555 1_555
H25_3 C24_3 1_555 1_555
H26_3 C24_3 1_555 1_555
C26_4 S1_4 1_555 1_555
C27_4 C21_4 1_555 1_555
H28_4 C27_4 1_555 1_555
C28_4 N4_2 1_555 1_555
H29_4 C28_4 1_555 1_555
C29_4 C21_4 1_555 1_555
H30_4 C29_4 1_555 1_555
C30_3 C24_3 1_555 1_555
H31_3 C30_3 1_555 1_555
H32_3 C30_3 1_555 1_555
H33_3 C30_3 1_555 1_555
C1_3 C15_3 1_555 1_555
C9_2 C11_4 1_555 1_555
C16_4 C26_4 1_555 1_555
C25_4 C29_4 1_555 1_555
C27_4 C28_4 1_555 1_555
I4_2 Cu6 1_555 1_555
Cu6 N3_4 1_555 1_555
S2_4 C10_4 1_555 1_555
N3_4 C7_4 1_555 1_555
C7_4 H5_4 1_555 1_555
C8_4 H6_4 1_555 1_555
C10_4 C8_4 1_555 1_555
C13_4 C7_4 1_555 1_555
H8_4 C13_4 1_555 1_555
C15_4 S2_4 1_555 1_555
H11_4 C15_4 1_555 1_555
H12_4 C15_4 1_555 1_555
C18_4 N3_4 1_555 1_555
H15_4 C18_4 1_555 1_555
H25_4 C24_4 1_555 1_555
H26_4 C24_4 1_555 1_555
C30_4 C24_4 1_555 1_555
H31_4 C30_4 1_555 1_555
H32_4 C30_4 1_555 1_555
H33_4 C30_4 1_555 1_555
C1_4 C15_4 1_555 1_555
C8_4 C18_4 1_555 1_555
C10_4 C13_4 1_555 1_555
C4_3 C2_3 1_555 1_555
C22_3 C4_3 1_555 1_555
H19_3 C22_3 1_555 1_555
H20_3 C22_3 1_555 1_555
H21_3 C22_3 1_555 1_555
C4_4 C2_4 1_555 1_555
C22_4 C4_4 1_555 1_555
H19_4 C22_4 1_555 1_555
H20_4 C22_4 1_555 1_555
H21_4 C22_4 1_555 1_555

#END
