
###############################################################################
#
# This file contains modified crystal structure data generated from the
# MOF subset of the Cambridge Structural Database (CSD) v543 
# hosted by the Cambridge Crystallographic Data Centre (CCDC).
#
# This work is licensed under the Creative Commons
# Attribution-NonCommercial-ShareAlike 4.0 International License.
# To view a copy of this license, visit
# http://creativecommons.org/licenses/by-nc-sa/4.0/
# or send a letter to
# Creative Commons, PO Box 1866, Mountain View, CA 94042, USA.
#
# CIF created using the CSD Python API on 29 September 2022
# The structure has been converted into the P1 space group
# The structure has a 3D framework
# The original CSD entry MEFLUI is in the monoclinic crystal system
# The framework has been calculated to contain at least 10.0% void space
# The void calculation uses a probe of radius 1.32A, grid spacing 0.4
#
###############################################################################

data_MEFLUI
_chemical_formula_moiety         '(C76 H32 N8 O24)n'
_symmetry_cell_setting           triclinic
_symmetry_space_group_name_H-M   'P 1'
_symmetry_Int_Tables_number      1
_space_group_name_Hall           'P 1'
loop_
_symmetry_equiv_pos_site_id
_symmetry_equiv_pos_as_xyz
1 x,y,z
_cell_length_a                   5.0102(3)
_cell_length_b                   25.5443(15)
_cell_length_c                   19.9567(12)
_cell_angle_alpha                90
_cell_angle_beta                 96.9020(10)
_cell_angle_gamma                90
_cell_volume                     2535.59
loop_
_atom_site_label
_atom_site_type_symbol
_atom_site_fract_x
_atom_site_fract_y
_atom_site_fract_z
H2 H 0.056819 0.704548 0.389617
Cd5 Cd 0.18184(4) 0.53706(2) 0.56684(2)
O1 O 0.7851(4) 0.54087(7) 0.49115(10)
O2 O 0.3781(4) 0.57716(8) 0.48444(11)
O3 O 0.4382(5) 0.49158(9) 0.37123(12)
O4 O 0.0027(4) 0.50928(9) 0.35715(12)
O5 O 0.2596(7) 0.71334(12) 0.14411(15)
N1 N 0.5998(6) 0.74075(11) 0.22020(16)
N2 N 0.6372(6) 0.88285(10) 0.11558(15)
O6 O 0.9704(7) 0.76522(12) 0.28931(17)
C1 C 0.6026(6) 0.57106(10) 0.46485(14)
C2 C 0.4952(6) 0.60902(11) 0.34391(14)
C3 C 0.2903(6) 0.57217(11) 0.32013(15)
C4 C 0.3997(8) 0.70551(14) 0.19702(18)
C5 C 0.3691(7) 0.65929(13) 0.23961(17)
C6 C 0.6613(6) 0.60623(11) 0.40746(15)
C7 C 0.5376(6) 0.65247(11) 0.30154(16)
C8 C 0.2434(6) 0.52081(11) 0.35435(14)
C9 C 0.1303(8) 0.58101(14) 0.26040(18)
C10 C 0.7464(7) 0.68837(13) 0.32029(17)
C11 C 0.9127(7) 0.68192(13) 0.37876(19)
C12 C 0.6091(8) 0.78937(13) 0.18311(19)
C13 C 0.1685(8) 0.62421(15) 0.21983(19)
H3 H 0.057875 0.629156 0.179452
C14 C 0.7873(8) 0.73433(14) 0.2771(2)
C15 C 0.8655(6) 0.64102(12) 0.42246(17)
H4 H 0.977055 0.637500 0.462958
C16 C 0.4727(10) 0.87696(15) 0.1635(2)
H5 H 0.367352 0.905203 0.173584
C17 C 0.7694(9) 0.79344(15) 0.1329(2)
H6 H 0.868895 0.765040 0.120563
C18 C 0.4538(11) 0.83079(17) 0.1983(3)
H7 H 0.338400 0.827834 0.231286
C19 C 0.7791(9) 0.84154(14) 0.1008(2)
H8 H 0.891153 0.844930 0.067132
Cd2 Cd 0.81816(4) 0.46294(2) 0.43316(2)
Cd3 Cd 0.68184(4) 0.96294(2) 0.06684(2)
O8 O 0.2149(4) 0.45913(7) 0.50885(10)
H1 H 0.992643 0.557557 0.246599
O9 O 0.6219(4) 0.42284(8) 0.51556(11)
N3 N 0.8628(6) 0.38285(10) 0.38442(15)
O10 O 0.0618(5) 0.99158(9) 0.12877(12)
O2_2 O 0.1219(4) 0.07716(8) 0.01556(11)
O4_2 O 0.4973(4) 0.00928(9) 0.14285(12)
O5_2 O 0.2404(7) 0.21334(12) 0.35589(15)
C2_2 C 0.0048(6) 0.10902(11) 0.15609(14)
C3_2 C 0.2097(6) 0.07217(11) 0.17987(15)
C4_2 C 0.1003(8) 0.20551(14) 0.30298(18)
C5_2 C 0.1309(7) 0.15929(13) 0.26039(17)
C8_2 C 0.2566(6) 0.02081(11) 0.14565(14)
C9_2 C 0.3697(8) 0.08101(14) 0.23960(18)
H1_2 H 0.507357 0.057557 0.253401
C13_2 C 0.3315(8) 0.12421(15) 0.28017(19)
H3_2 H 0.442125 0.129156 0.320548
C16_2 C 0.0273(10) 0.37696(15) 0.3365(2)
H5_2 H 0.132648 0.405203 0.326416
C18_2 C 0.0462(11) 0.33079(17) 0.3017(3)
H7_2 H 0.161600 0.327834 0.268714
O7 O 0.7149(4) 0.04087(7) 0.00885(10)
Cd4 Cd 0.31816(4) 0.03706(2) 0.93316(2)
O8_2 O 0.2851(4) 0.95913(7) 0.99115(10)
O9_2 O 0.8781(4) 0.92284(8) 0.98444(11)
N1_2 N 0.9002(6) 0.24075(11) 0.27980(16)
O6_2 O 0.5296(7) 0.26522(12) 0.21069(17)
C1_2 C 0.8974(6) 0.07106(10) 0.03515(14)
C6_2 C 0.8387(6) 0.10623(11) 0.09254(15)
C7_2 C 0.9624(6) 0.15247(11) 0.19846(16)
C10_2 C 0.7536(7) 0.18837(13) 0.17971(17)
C11_2 C 0.5873(7) 0.18192(13) 0.12124(19)
H2_2 H 0.443181 0.204548 0.110383
C12_2 C 0.8909(8) 0.28937(13) 0.31689(19)
C14_2 C 0.7127(8) 0.23433(14) 0.2229(2)
C15_2 C 0.6345(6) 0.14102(12) 0.07754(17)
H4_2 H 0.522945 0.137500 0.037042
C17_2 C 0.7306(9) 0.29344(15) 0.3671(2)
H6_2 H 0.631105 0.265040 0.379437
C19_2 C 0.7209(9) 0.34154(14) 0.3992(2)
H8_2 H 0.608847 0.344930 0.432868
H1_3 H 0.007357 0.442443 0.753401
O10_2 O 0.5618(5) 0.50842(9) 0.62877(12)
N3_2 N 0.1372(6) 0.61715(10) 0.61558(15)
O4_3 O 0.9973(4) 0.49072(9) 0.64285(12)
O5_3 O 0.7404(7) 0.28666(12) 0.85589(15)
N1_3 N 0.4002(6) 0.25925(11) 0.77980(16)
N2_2 N 0.3628(6) 0.11715(10) 0.88442(15)
O6_3 O 0.0296(7) 0.23478(12) 0.71069(17)
C1_3 C 0.3974(6) 0.42894(10) 0.53515(14)
C2_3 C 0.5048(6) 0.39098(11) 0.65609(14)
C3_3 C 0.7097(6) 0.42783(11) 0.67987(15)
C4_3 C 0.6003(8) 0.29449(14) 0.80298(18)
C5_3 C 0.6309(7) 0.34071(13) 0.76039(17)
C6_3 C 0.3387(6) 0.39377(11) 0.59254(15)
C7_3 C 0.4624(6) 0.34753(11) 0.69846(16)
C8_3 C 0.7566(6) 0.47919(11) 0.64565(14)
C9_3 C 0.8697(8) 0.41899(14) 0.73960(18)
C10_3 C 0.2536(7) 0.31163(13) 0.67971(17)
C11_3 C 0.0873(7) 0.31808(13) 0.62124(19)
C12_3 C 0.3909(8) 0.21063(13) 0.81689(19)
C13_3 C 0.8315(8) 0.37579(15) 0.78017(19)
H3_3 H 0.942125 0.370844 0.820548
C14_3 C 0.2127(8) 0.26567(14) 0.7229(2)
C15_3 C 0.1345(6) 0.35898(12) 0.57754(17)
H4_3 H 0.022945 0.362500 0.537042
C16_3 C 0.5273(10) 0.12304(15) 0.8365(2)
H5_3 H 0.632648 0.094797 0.826416
C17_3 C 0.2306(9) 0.20656(15) 0.8671(2)
H6_3 H 0.131105 0.234960 0.879437
C18_3 C 0.5462(11) 0.16921(17) 0.8017(3)
H7_3 H 0.661600 0.172166 0.768714
C19_3 C 0.2209(9) 0.15846(14) 0.8992(2)
H8_3 H 0.108847 0.155070 0.932868
H2_3 H 0.943181 0.295452 0.610383
N1_4 N 0.0998(6) 0.75925(11) 0.72020(16)
O6_4 O 0.4704(7) 0.73478(12) 0.78931(17)
C1_4 C 0.1026(6) 0.92894(10) 0.96485(14)
C6_4 C 0.1613(6) 0.89377(11) 0.90746(15)
C7_4 C 0.0376(6) 0.84753(11) 0.80154(16)
C10_4 C 0.2464(7) 0.81163(13) 0.82029(17)
C11_4 C 0.4127(7) 0.81808(13) 0.87876(19)
H2_4 H 0.556819 0.795452 0.889617
C12_4 C 0.1091(8) 0.71063(13) 0.68311(19)
C14_4 C 0.2873(8) 0.76567(14) 0.7771(2)
C15_4 C 0.3655(6) 0.85898(12) 0.92246(17)
H4_4 H 0.477055 0.862500 0.962958
C17_4 C 0.2694(9) 0.70656(15) 0.6329(2)
H6_4 H 0.368895 0.734960 0.620563
C19_4 C 0.2791(9) 0.65846(14) 0.6008(2)
H8_4 H 0.391153 0.655070 0.567132
O3_2 O 0.9382(5) 0.00842(9) 0.87123(12)
O4_4 O 0.5027(4) 0.99072(9) 0.85715(12)
O5_4 O 0.7596(7) 0.78666(12) 0.64411(15)
C2_4 C 0.9952(6) 0.89098(11) 0.84391(14)
C3_4 C 0.7903(6) 0.92783(11) 0.82013(15)
C4_4 C 0.8997(8) 0.79449(14) 0.69702(18)
C5_4 C 0.8691(7) 0.84071(13) 0.73961(17)
C8_4 C 0.7434(6) 0.97919(11) 0.85435(14)
C9_4 C 0.6303(8) 0.91899(14) 0.76040(18)
H1_4 H 0.492643 0.942443 0.746599
C13_4 C 0.6685(8) 0.87579(15) 0.71983(19)
H3_4 H 0.557875 0.870844 0.679452
C16_4 C 0.9727(10) 0.62304(15) 0.6635(2)
H5_4 H 0.867352 0.594797 0.673584
C18_4 C 0.9538(11) 0.66921(17) 0.6983(3)
H7_4 H 0.838400 0.672166 0.731286
loop_
_geom_bond_atom_site_label_1
_geom_bond_atom_site_label_2
_geom_bond_site_symmetry_1
_geom_bond_site_symmetry_2
O1 C1 1_555 1_555
O2 C1 1_555 1_555
O3 C8 1_555 1_555
O4 C8 1_555 1_555
O5 C4 1_555 1_555
N1 C4 1_555 1_555
N2 C16 1_555 1_555
O6 C14 1_555 1_555
C1 C6 1_555 1_555
C2 C3 1_555 1_555
C3 C8 1_555 1_555
C4 C5 1_555 1_555
C5 C7 1_555 1_555
C6 C2 1_555 1_555
C7 C2 1_555 1_555
C9 C3 1_555 1_555
C10 C7 1_555 1_555
C11 C10 1_555 1_555
C12 N1 1_555 1_555
C13 C5 1_555 1_555
H3 C13 1_555 1_555
C14 N1 1_555 1_555
C15 C6 1_555 1_555
H4 C15 1_555 1_555
C16 H5 1_555 1_555
C17 C12 1_555 1_555
H6 C17 1_555 1_555
C18 C12 1_555 1_555
H7 C18 1_555 1_555
C19 N2 1_555 1_555
H8 C19 1_555 1_555
Cd2 O1 1_555 1_555
Cd3 N2 1_555 1_555
Cd5 O2 1_555 1_555
O3 Cd2 1_555 1_555
C9 C13 1_555 1_555
C10 C14 1_555 1_555
C11 C15 1_555 1_555
C16 C18 1_555 1_555
C17 C19 1_555 1_555
Cd5 O8 1_555 1_555
O9 Cd2 1_555 1_555
N3 Cd2 1_555 1_555
O4_2 C8_2 1_555 1_555
O5_2 C4_2 1_555 1_555
C2_2 C3_2 1_555 1_555
C3_2 C8_2 1_555 1_555
C4_2 C5_2 1_555 1_555
C9_2 C3_2 1_555 1_555
H1_2 C9_2 1_555 1_555
C13_2 C5_2 1_555 1_555
H3_2 C13_2 1_555 1_555
C16_2 H5_2 1_555 1_555
H7_2 C18_2 1_555 1_555
C9_2 C13_2 1_555 1_555
C16_2 C18_2 1_555 1_555
O7 C1_2 1_555 1_555
O6_2 C14_2 1_555 1_555
C1_2 C6_2 1_555 1_555
C10_2 C7_2 1_555 1_555
C11_2 C10_2 1_555 1_555
H2_2 C11_2 1_555 1_555
C12_2 N1_2 1_555 1_555
C14_2 N1_2 1_555 1_555
C15_2 C6_2 1_555 1_555
H4_2 C15_2 1_555 1_555
C17_2 C12_2 1_555 1_555
H6_2 C17_2 1_555 1_555
C19_2 N3 1_555 1_555
H8_2 C19_2 1_555 1_555
C10_2 C14_2 1_555 1_555
C11_2 C15_2 1_555 1_555
C17_2 C19_2 1_555 1_555
O10_2 Cd5 1_555 1_555
N3_2 Cd5 1_555 1_555
O8 C1_3 1_555 1_555
O9 C1_3 1_555 1_555
O10_2 C8_3 1_555 1_555
O4_3 C8_3 1_555 1_555
O5_3 C4_3 1_555 1_555
N1_3 C4_3 1_555 1_555
N2_2 C16_3 1_555 1_555
O6_3 C14_3 1_555 1_555
C1_3 C6_3 1_555 1_555
C2_3 C3_3 1_555 1_555
C3_3 C8_3 1_555 1_555
C4_3 C5_3 1_555 1_555
C5_3 C7_3 1_555 1_555
C6_3 C2_3 1_555 1_555
C7_3 C2_3 1_555 1_555
C9_3 C3_3 1_555 1_555
C10_3 C7_3 1_555 1_555
C11_3 C10_3 1_555 1_555
C12_3 N1_3 1_555 1_555
C13_3 C5_3 1_555 1_555
H3_3 C13_3 1_555 1_555
C14_3 N1_3 1_555 1_555
C15_3 C6_3 1_555 1_555
H4_3 C15_3 1_555 1_555
C16_3 H5_3 1_555 1_555
C17_3 C12_3 1_555 1_555
H6_3 C17_3 1_555 1_555
C18_3 C12_3 1_555 1_555
H7_3 C18_3 1_555 1_555
C19_3 N2_2 1_555 1_555
H8_3 C19_3 1_555 1_555
Cd4 N2_2 1_555 1_555
C9_3 C13_3 1_555 1_555
C10_3 C14_3 1_555 1_555
C11_3 C15_3 1_555 1_555
C16_3 C18_3 1_555 1_555
C17_3 C19_3 1_555 1_555
O8_2 C1_4 1_555 1_555
O6_4 C14_4 1_555 1_555
C1_4 C6_4 1_555 1_555
C10_4 C7_4 1_555 1_555
C11_4 C10_4 1_555 1_555
H2_4 C11_4 1_555 1_555
C12_4 N1_4 1_555 1_555
C14_4 N1_4 1_555 1_555
C15_4 C6_4 1_555 1_555
H4_4 C15_4 1_555 1_555
C17_4 C12_4 1_555 1_555
H6_4 C17_4 1_555 1_555
C19_4 N3_2 1_555 1_555
H8_4 C19_4 1_555 1_555
C10_4 C14_4 1_555 1_555
C11_4 C15_4 1_555 1_555
C17_4 C19_4 1_555 1_555
O4_4 C8_4 1_555 1_555
O5_4 C4_4 1_555 1_555
C2_4 C3_4 1_555 1_555
C3_4 C8_4 1_555 1_555
C4_4 C5_4 1_555 1_555
C9_4 C3_4 1_555 1_555
H1_4 C9_4 1_555 1_555
C13_4 C5_4 1_555 1_555
H3_4 C13_4 1_555 1_555
C16_4 H5_4 1_555 1_555
H7_4 C18_4 1_555 1_555
C9_4 C13_4 1_555 1_555
C16_4 C18_4 1_555 1_555

#END
