
###############################################################################
#
# This file contains modified crystal structure data generated from the
# MOF subset of the Cambridge Structural Database (CSD) v543 
# hosted by the Cambridge Crystallographic Data Centre (CCDC).
#
# This work is licensed under the Creative Commons
# Attribution-NonCommercial-ShareAlike 4.0 International License.
# To view a copy of this license, visit
# http://creativecommons.org/licenses/by-nc-sa/4.0/
# or send a letter to
# Creative Commons, PO Box 1866, Mountain View, CA 94042, USA.
#
# CIF created using the CSD Python API on 29 September 2022
# The structure has been converted into the P1 space group
# The structure has a 3D framework
# The original CSD entry MEGNAQ is in the monoclinic crystal system
# The framework has been calculated to contain at least 10.0% void space
# The void calculation uses a probe of radius 1.32A, grid spacing 0.4
#
###############################################################################

data_MEGNAQ
_chemical_formula_moiety         '(C80 H48 Cu15 N24 O48)n'
_symmetry_cell_setting           triclinic
_symmetry_space_group_name_H-M   'P 1'
_symmetry_Int_Tables_number      1
_space_group_name_Hall           'P 1'
loop_
_symmetry_equiv_pos_site_id
_symmetry_equiv_pos_as_xyz
1 x,y,z
_cell_length_a                   20.842(5)
_cell_length_b                   12.829(3)
_cell_length_c                   10.106(3)
_cell_angle_alpha                90
_cell_angle_beta                 96.261(16)
_cell_angle_gamma                90
_cell_volume                     2686.05
loop_
_atom_site_label
_atom_site_type_symbol
_atom_site_fract_x
_atom_site_fract_y
_atom_site_fract_z
O6 O 0.53272(19) 0.0290(3) 0.1292(3)
H6 H 0.5583 0.0731 0.1686
O12 O 0.46728(19) 0.0290(3) 0.3708(3)
H12 H 0.4417 0.0731 0.3314
Cu5 Cu 0.7500 0.2500 0.0000
Cu1 Cu 0.5000 0.89987(4) 0.2500
Cu2 Cu 0.2500 0.7500 0.0000
Cu3 Cu 0.5000 0.5000 0.0000
C1 C 0.37238(16) 0.8508(3) 0.0975(3)
C2 C 0.38559(14) 0.7395(2) 0.0720(3)
C3 C 0.44080(15) 0.6807(3) 0.0724(4)
C4 C 0.51059(17) 0.7013(3) 0.0937(5)
H4 H 0.3508 0.3812 0.0463
N1 N 0.42357(13) 0.5835(2) 0.0258(3)
N2 N 0.33443(11) 0.67858(19) 0.0232(2)
O1 O 0.41537(13) 0.91257(19) 0.1464(3)
O2 O 0.31548(12) 0.8803(2) 0.0611(3)
O3 O 0.53357(13) 0.7890(2) 0.1250(4)
O4 O 0.54566(13) 0.6239(3) 0.0741(5)
H5 H 0.5432 0.9793 0.0956
C11 C 0.62762(16) 0.8508(3) 0.4025(3)
C12 C 0.61441(14) 0.7395(2) 0.4280(3)
C13 C 0.55920(15) 0.6807(3) 0.4276(4)
C14 C 0.48941(17) 0.7013(3) 0.4063(5)
C15 C 0.64072(14) 0.5856(2) 0.5048(3)
C16 C 0.67838(14) 0.5013(2) 0.5750(3)
C17 C 0.71707(15) 0.5240(2) 0.6922(3)
H7 H 0.7214 0.5926 0.7218
C18 C 0.74886(16) 0.4459(2) 0.7642(3)
H8 H 0.7750 0.4615 0.8422
C19 C 0.70615(17) 0.3215(3) 0.6085(4)
H9 H 0.7029 0.2524 0.5807
C20 C 0.67397(16) 0.3983(3) 0.5330(3)
H10 H 0.6492 0.3812 0.4537
N4 N 0.57643(13) 0.5835(2) 0.4742(3)
N5 N 0.66557(11) 0.67858(19) 0.4768(2)
N6 N 0.74243(13) 0.3465(2) 0.7227(3)
O7 O 0.58463(13) 0.91257(19) 0.3536(3)
O8 O 0.68452(12) 0.8803(2) 0.4389(3)
O9 O 0.46643(13) 0.7890(2) 0.3750(4)
O10 O 0.45434(13) 0.6239(3) 0.4259(5)
O11 O 0.77254(13) 0.27105(19) 0.7957(3)
H11 H 0.4568 0.9793 0.4044
Cu4 Cu 0.7500 0.7500 0.5000
Cu5_2 Cu 0.7500 0.2500 1.0000
Cu7 Cu 0.5000 0.5000 0.5000
O16 O 0.22746(13) 0.72895(19) 0.2043(3)
Cu2_2 Cu 0.2500 0.7500 1.0000
Cu3_2 Cu 0.5000 0.5000 1.0000
C5 C 0.35928(14) 0.5856(2) 0.9952(3)
C6 C 0.32162(14) 0.5013(2) 0.9250(3)
C7 C 0.28293(15) 0.5240(2) 0.8078(3)
H1 H 0.2786 0.5926 0.7782
C8 C 0.25114(16) 0.4459(2) 0.7358(3)
H2 H 0.2250 0.4615 0.6578
C9 C 0.29385(17) 0.3215(3) 0.8915(4)
H3 H 0.2971 0.2524 0.9193
C10 C 0.32603(16) 0.3983(3) 0.9670(3)
N3 N 0.25757(13) 0.3465(2) 0.7773(3)
O5 O 0.22746(13) 0.27105(19) 0.7043(3)
Cu6 Cu 0.2500 0.2500 0.5000
N7 N 0.57643(13) 0.4165(2) 0.9742(3)
N8 N 0.16557(11) 0.82142(19) 0.9768(2)
O13 O 0.18452(12) 0.6197(2) 0.9389(3)
O14 O 0.45434(13) 0.3761(3) 0.9259(5)
O15 O 0.27254(13) 0.77105(19) 0.7957(3)
N7_2 N 0.42357(13) 0.4165(2) 0.5258(3)
N8_2 N 0.83443(11) 0.82142(19) 0.5232(2)
O13_2 O 0.81548(12) 0.6197(2) 0.5611(3)
O14_2 O 0.54566(13) 0.3761(3) 0.5741(5)
O15_2 O 0.72746(13) 0.77105(19) 0.7043(3)
O16_2 O 0.77254(13) 0.72895(19) 0.2957(3)
Cu1_2 Cu -0.0000 0.39987(4) 0.2500
Cu3_3 Cu 0.0000 -0.0000 0.0000
C4_2 C 0.01059(17) 0.2013(3) 0.0937(5)
O3_2 O 0.03357(13) 0.2890(2) 0.1250(4)
O4_2 O 0.04566(13) 0.1239(3) 0.0741(5)
O6_2 O 0.03272(19) 0.5290(3) 0.1292(3)
H5_2 H 0.0432 0.4793 0.0956
H6_2 H 0.0583 0.5731 0.1686
C11_2 C 0.12762(16) 0.3508(3) 0.4025(3)
C12_2 C 0.11441(14) 0.2395(2) 0.4280(3)
C13_2 C 0.05920(15) 0.1807(3) 0.4276(4)
C15_2 C 0.14072(14) 0.0856(2) 0.5048(3)
C16_2 C 0.17838(14) 0.0013(2) 0.5750(3)
C17_2 C 0.21707(15) 0.0240(2) 0.6922(3)
H7_2 H 0.2214 0.0926 0.7218
N4_2 N 0.07643(13) 0.0835(2) 0.4742(3)
N5_2 N 0.16557(11) 0.17858(19) 0.4768(2)
O7_2 O 0.08463(13) 0.41257(19) 0.3536(3)
O8_2 O 0.18452(12) 0.3803(2) 0.4389(3)
Cu7_2 Cu 0.0000 -0.0000 0.5000
Cu3_4 Cu 0.0000 -0.0000 1.0000
Cu3_5 Cu -0.0000 1.0000 0.0000
C18_2 C 0.24886(16) 0.9459(2) 0.7642(3)
H8_2 H 0.2750 0.9615 0.8422
C19_2 C 0.20615(17) 0.8215(3) 0.6085(4)
H9_2 H 0.2029 0.7524 0.5807
C20_2 C 0.17397(16) 0.8983(3) 0.5330(3)
H10_2 H 0.1492 0.8812 0.4537
N6_2 N 0.24243(13) 0.8465(2) 0.7227(3)
Cu7_3 Cu 0.0000 1.0000 0.5000
Cu3_6 Cu 0.0000 1.0000 1.0000
N7_3 N 0.07643(13) 0.9165(2) 0.9742(3)
Cu1_3 Cu 1.0000 0.39987(4) 0.2500
Cu3_7 Cu 1.0000 -0.0000 0.0000
C1_2 C 0.87238(16) 0.3508(3) 0.0975(3)
C2_2 C 0.88559(14) 0.2395(2) 0.0720(3)
C3_2 C 0.94080(15) 0.1807(3) 0.0724(4)
N1_2 N 0.92357(13) 0.0835(2) 0.0258(3)
N2_2 N 0.83443(11) 0.17858(19) 0.0232(2)
O1_2 O 0.91537(13) 0.41257(19) 0.1464(3)
O2_2 O 0.81548(12) 0.3803(2) 0.0611(3)
C14_2 C 0.98941(17) 0.2013(3) 0.4063(5)
O9_2 O 0.96643(13) 0.2890(2) 0.3750(4)
O10_2 O 0.95434(13) 0.1239(3) 0.4259(5)
O12_2 O 0.96728(19) 0.5290(3) 0.3708(3)
H11_2 H 0.9568 0.4793 0.4044
H12_2 H 0.9417 0.5731 0.3314
Cu7_4 Cu 1.0000 -0.0000 0.5000
O16_3 O 0.72746(13) 0.22895(19) 0.2043(3)
Cu3_8 Cu 1.0000 -0.0000 1.0000
C5_2 C 0.85928(14) 0.0856(2) 0.9952(3)
C6_2 C 0.82162(14) 0.0013(2) 0.9250(3)
C7_2 C 0.78293(15) 0.0240(2) 0.8078(3)
H1_2 H 0.7786 0.0926 0.7782
N8_3 N 0.66557(11) 0.32142(19) 0.9768(2)
O13_3 O 0.68452(12) 0.1197(2) 0.9389(3)
Cu3_9 Cu 1.0000 1.0000 0.0000
H4_2 H 0.8508 0.8812 0.0463
Cu7_5 Cu 1.0000 1.0000 0.5000
Cu3_10 Cu 1.0000 1.0000 1.0000
C8_2 C 0.75114(16) 0.9459(2) 0.7358(3)
H2_2 H 0.7250 0.9615 0.6578
C9_2 C 0.79385(17) 0.8215(3) 0.8915(4)
H3_2 H 0.7971 0.7524 0.9193
C10_2 C 0.82603(16) 0.8983(3) 0.9670(3)
N3_2 N 0.75757(13) 0.8465(2) 0.7773(3)
O14_3 O 0.95434(13) 0.8761(3) 0.9259(5)
N8_4 N 0.33443(11) 0.32142(19) 0.5232(2)
O13_4 O 0.31548(12) 0.1197(2) 0.5611(3)
O16_4 O 0.27254(13) 0.22895(19) 0.2957(3)
O14_4 O 0.04566(13) 0.8761(3) 0.5741(5)
N7_4 N 0.92357(13) 0.9165(2) 0.5258(3)
C5_3 C 0.64072(14) 0.4144(2) 0.0048(3)
C6_3 C 0.67838(14) 0.4987(2) 0.0750(3)
C7_3 C 0.71707(15) 0.4760(2) 0.1922(3)
H1_3 H 0.7214 0.4074 0.2218
C8_3 C 0.74886(16) 0.5541(2) 0.2642(3)
H2_3 H 0.7750 0.5385 0.3422
C9_3 C 0.70615(17) 0.6785(3) 0.1085(4)
H3_3 H 0.7029 0.7476 0.0807
C10_3 C 0.67397(16) 0.6017(3) 0.0330(3)
N3_3 N 0.74243(13) 0.6535(2) 0.2227(3)
Cu1_4 Cu 0.5000 0.10013(4) 0.7500
C1_3 C 0.62762(16) 0.1492(3) 0.9025(3)
C2_3 C 0.61441(14) 0.2605(2) 0.9280(3)
C3_3 C 0.55920(15) 0.3193(3) 0.9276(4)
C4_3 C 0.48941(17) 0.2987(3) 0.9063(5)
H4_3 H 0.6492 0.6188 0.9537
O1_3 O 0.58463(13) 0.08743(19) 0.8536(3)
O3_3 O 0.46643(13) 0.2110(2) 0.8750(4)
H5_3 H 0.4568 0.0207 0.9044
C11_3 C 0.37238(16) 0.1492(3) 0.5975(3)
C12_3 C 0.38559(14) 0.2605(2) 0.5720(3)
C13_3 C 0.44080(15) 0.3193(3) 0.5724(4)
C14_3 C 0.51059(17) 0.2987(3) 0.5937(5)
C15_3 C 0.35928(14) 0.4144(2) 0.4952(3)
C16_3 C 0.32162(14) 0.4987(2) 0.4250(3)
C17_3 C 0.28293(15) 0.4760(2) 0.3078(3)
H7_3 H 0.2786 0.4074 0.2782
C18_3 C 0.25114(16) 0.5541(2) 0.2358(3)
H8_3 H 0.2250 0.5385 0.1578
C19_3 C 0.29385(17) 0.6785(3) 0.3915(4)
H9_3 H 0.2971 0.7476 0.4193
C20_3 C 0.32603(16) 0.6017(3) 0.4670(3)
H10_3 H 0.3508 0.6188 0.5463
N6_3 N 0.25757(13) 0.6535(2) 0.2773(3)
O7_3 O 0.41537(13) 0.08743(19) 0.6464(3)
O9_3 O 0.53357(13) 0.2110(2) 0.6250(4)
H11_3 H 0.5432 0.0207 0.5956
C8_4 C 0.24886(16) 0.0541(2) 0.2642(3)
H2_4 H 0.2750 0.0385 0.3422
C9_4 C 0.20615(17) 0.1785(3) 0.1085(4)
H3_4 H 0.2029 0.2476 0.0807
C10_4 C 0.17397(16) 0.1017(3) 0.0330(3)
N3_4 N 0.24243(13) 0.1535(2) 0.2227(3)
H4_4 H 0.1492 0.1188 0.9537
C5_4 C 0.14072(14) 0.9144(2) 0.0048(3)
C6_4 C 0.17838(14) 0.9987(2) 0.0750(3)
C7_4 C 0.21707(15) 0.9760(2) 0.1922(3)
H1_4 H 0.2214 0.9074 0.2218
Cu1_5 Cu 0.0000 0.60013(4) 0.7500
C1_4 C 0.12762(16) 0.6492(3) 0.9025(3)
C2_4 C 0.11441(14) 0.7605(2) 0.9280(3)
C3_4 C 0.05920(15) 0.8193(3) 0.9276(4)
O1_4 O 0.08463(13) 0.58743(19) 0.8536(3)
C14_4 C 0.01059(17) 0.7987(3) 0.5937(5)
O9_4 O 0.03357(13) 0.7110(2) 0.6250(4)
O12_3 O 0.03272(19) 0.4710(3) 0.6292(3)
H11_4 H 0.0432 0.5207 0.5956
H12_3 H 0.0583 0.4269 0.6686
C18_4 C 0.75114(16) 0.0541(2) 0.2358(3)
H8_4 H 0.7250 0.0385 0.1578
C19_4 C 0.79385(17) 0.1785(3) 0.3915(4)
H9_4 H 0.7971 0.2476 0.4193
C20_4 C 0.82603(16) 0.1017(3) 0.4670(3)
H10_4 H 0.8508 0.1188 0.5463
N6_4 N 0.75757(13) 0.1535(2) 0.2773(3)
Cu1_6 Cu 1.0000 0.60013(4) 0.7500
C4_4 C 0.98941(17) 0.7987(3) 0.9063(5)
O3_4 O 0.96643(13) 0.7110(2) 0.8750(4)
O6_3 O 0.96728(19) 0.4710(3) 0.8708(3)
H5_4 H 0.9568 0.5207 0.9044
H6_3 H 0.9417 0.4269 0.8314
C11_4 C 0.87238(16) 0.6492(3) 0.5975(3)
C12_4 C 0.88559(14) 0.7605(2) 0.5720(3)
C13_4 C 0.94080(15) 0.8193(3) 0.5724(4)
C15_4 C 0.85928(14) 0.9144(2) 0.4952(3)
C16_4 C 0.82162(14) 0.9987(2) 0.4250(3)
C17_4 C 0.78293(15) 0.9760(2) 0.3078(3)
H7_4 H 0.7786 0.9074 0.2782
O7_4 O 0.91537(13) 0.58743(19) 0.6464(3)
O6_4 O 0.46728(19) 0.9710(3) 0.8708(3)
H6_4 H 0.4417 0.9269 0.8314
O12_4 O 0.53272(19) 0.9710(3) 0.6292(3)
H12_4 H 0.5583 0.9269 0.6686
loop_
_geom_bond_atom_site_label_1
_geom_bond_atom_site_label_2
_geom_bond_site_symmetry_1
_geom_bond_site_symmetry_2
H6 O6 1_555 1_555
H12 O12 1_555 1_555
Cu1 O1 1_555 1_555
Cu2 N2 1_555 1_555
Cu3 N1 1_555 1_555
C1 C2 1_555 1_555
C2 C3 1_555 1_555
C3 C4 1_555 1_555
C4 O3 1_555 1_555
N1 C3 1_555 1_555
N2 C2 1_555 1_555
O1 C1 1_555 1_555
O2 Cu2 1_555 1_555
O3 Cu1 1_555 1_555
O4 Cu3 1_555 1_555
C11 C12 1_555 1_555
C12 C13 1_555 1_555
C13 C14 1_555 1_555
C14 O9 1_555 1_555
C15 C16 1_555 1_555
C16 C17 1_555 1_555
C17 H7 1_555 1_555
C18 C17 1_555 1_555
H8 C18 1_555 1_555
C19 H9 1_555 1_555
C20 C16 1_555 1_555
H10 C20 1_555 1_555
N4 C13 1_555 1_555
N5 C12 1_555 1_555
N6 C18 1_555 1_555
O7 Cu1 1_555 1_555
O8 C11 1_555 1_555
O9 Cu1 1_555 1_555
O10 C14 1_555 1_555
O11 N6 1_555 1_555
Cu4 N5 1_555 1_555
Cu5_2 O11 1_555 1_555
Cu7 N4 1_555 1_555
O16 Cu2 1_555 1_555
C1 O2 1_555 1_555
C4 O4 1_555 1_555
C11 O7 1_555 1_555
C15 N4 1_555 1_555
C15 N5 1_555 1_555
C19 C20 1_555 1_555
C19 N6 1_555 1_555
O8 Cu4 1_555 1_555
O10 Cu7 1_555 1_555
C5 C6 1_555 1_555
C6 C7 1_555 1_555
C7 H1 1_555 1_555
C8 C7 1_555 1_555
H2 C8 1_555 1_555
C9 H3 1_555 1_555
C10 C6 1_555 1_555
N3 C8 1_555 1_555
O5 N3 1_555 1_555
Cu6 O5 1_555 1_555
N7 Cu3_2 1_555 1_555
N8 Cu2_2 1_555 1_555
O13 Cu2_2 1_555 1_555
O14 Cu3_2 1_555 1_555
O15 Cu2_2 1_555 1_555
C9 C10 1_555 1_555
C9 N3 1_555 1_555
N7_2 Cu7 1_555 1_555
N8_2 Cu4 1_555 1_555
O13_2 Cu4 1_555 1_555
O14_2 Cu7 1_555 1_555
O15_2 Cu4 1_555 1_555
O16_2 Cu4 1_555 1_555
C4_2 O3_2 1_555 1_555
O3_2 Cu1_2 1_555 1_555
O4_2 Cu3_3 1_555 1_555
O6_2 Cu1_2 1_555 1_555
H5_2 O6_2 1_555 1_555
H6_2 O6_2 1_555 1_555
C11_2 C12_2 1_555 1_555
C12_2 C13_2 1_555 1_555
C15_2 C16_2 1_555 1_555
C16_2 C17_2 1_555 1_555
C17_2 H7_2 1_555 1_555
N4_2 C13_2 1_555 1_555
N5_2 C12_2 1_555 1_555
O7_2 Cu1_2 1_555 1_555
O8_2 C11_2 1_555 1_555
Cu6 N5_2 1_555 1_555
Cu7_2 N4_2 1_555 1_555
C4_2 O4_2 1_555 1_555
C11_2 O7_2 1_555 1_555
C15_2 N4_2 1_555 1_555
C15_2 N5_2 1_555 1_555
O8_2 Cu6 1_555 1_555
H8_2 C18_2 1_555 1_555
C19_2 H9_2 1_555 1_555
H10_2 C20_2 1_555 1_555
N6_2 C18_2 1_555 1_555
O15 N6_2 1_555 1_555
C19_2 C20_2 1_555 1_555
C19_2 N6_2 1_555 1_555
N7_3 Cu3_6 1_555 1_555
Cu1_3 O1_2 1_555 1_555
Cu5 N2_2 1_555 1_555
Cu3_7 N1_2 1_555 1_555
C1_2 C2_2 1_555 1_555
C2_2 C3_2 1_555 1_555
N1_2 C3_2 1_555 1_555
N2_2 C2_2 1_555 1_555
O1_2 C1_2 1_555 1_555
O2_2 Cu5 1_555 1_555
C14_2 O9_2 1_555 1_555
O9_2 Cu1_3 1_555 1_555
O10_2 C14_2 1_555 1_555
O12_2 Cu1_3 1_555 1_555
H11_2 O12_2 1_555 1_555
H12_2 O12_2 1_555 1_555
O16_3 Cu5 1_555 1_555
C1_2 O2_2 1_555 1_555
O10_2 Cu7_4 1_555 1_555
C5_2 C6_2 1_555 1_555
C6_2 C7_2 1_555 1_555
C7_2 H1_2 1_555 1_555
N8_3 Cu5_2 1_555 1_555
O13_3 Cu5_2 1_555 1_555
H2_2 C8_2 1_555 1_555
C9_2 H3_2 1_555 1_555
N3_2 C8_2 1_555 1_555
O15_2 N3_2 1_555 1_555
O14_3 Cu3_10 1_555 1_555
C9_2 C10_2 1_555 1_555
C9_2 N3_2 1_555 1_555
N8_4 Cu6 1_555 1_555
O13_4 Cu6 1_555 1_555
O16_4 Cu6 1_555 1_555
O14_4 Cu7_3 1_555 1_555
N7_4 Cu7_5 1_555 1_555
C5_3 C6_3 1_555 1_555
C6_3 C7_3 1_555 1_555
C7_3 H1_3 1_555 1_555
C8_3 C7_3 1_555 1_555
H2_3 C8_3 1_555 1_555
C9_3 H3_3 1_555 1_555
C10_3 C6_3 1_555 1_555
N3_3 C8_3 1_555 1_555
O16_2 N3_3 1_555 1_555
C9_3 C10_3 1_555 1_555
C9_3 N3_3 1_555 1_555
Cu1_4 O1_3 1_555 1_555
C1_3 C2_3 1_555 1_555
C2_3 C3_3 1_555 1_555
C3_3 C4_3 1_555 1_555
C4_3 O3_3 1_555 1_555
N7 C3_3 1_555 1_555
N8_3 C2_3 1_555 1_555
O1_3 C1_3 1_555 1_555
O3_3 Cu1_4 1_555 1_555
C11_3 C12_3 1_555 1_555
C12_3 C13_3 1_555 1_555
C13_3 C14_3 1_555 1_555
C14_3 O9_3 1_555 1_555
C15_3 C16_3 1_555 1_555
C16_3 C17_3 1_555 1_555
C17_3 H7_3 1_555 1_555
C18_3 C17_3 1_555 1_555
H8_3 C18_3 1_555 1_555
C19_3 H9_3 1_555 1_555
C20_3 C16_3 1_555 1_555
H10_3 C20_3 1_555 1_555
N7_2 C13_3 1_555 1_555
N8_4 C12_3 1_555 1_555
N6_3 C18_3 1_555 1_555
O7_3 Cu1_4 1_555 1_555
O13_4 C11_3 1_555 1_555
O9_3 Cu1_4 1_555 1_555
O14_2 C14_3 1_555 1_555
O16 N6_3 1_555 1_555
C1_3 O13_3 1_555 1_555
C4_3 O14 1_555 1_555
C11_3 O7_3 1_555 1_555
C15_3 N7_2 1_555 1_555
C15_3 N8_4 1_555 1_555
C19_3 C20_3 1_555 1_555
C19_3 N6_3 1_555 1_555
H2_4 C8_4 1_555 1_555
C9_4 H3_4 1_555 1_555
N3_4 C8_4 1_555 1_555
O16_4 N3_4 1_555 1_555
C9_4 C10_4 1_555 1_555
C9_4 N3_4 1_555 1_555
C5_4 C6_4 1_555 1_555
C6_4 C7_4 1_555 1_555
C7_4 H1_4 1_555 1_555
Cu1_5 O1_4 1_555 1_555
C1_4 C2_4 1_555 1_555
C2_4 C3_4 1_555 1_555
N7_3 C3_4 1_555 1_555
N8 C2_4 1_555 1_555
O1_4 C1_4 1_555 1_555
C14_4 O9_4 1_555 1_555
O9_4 Cu1_5 1_555 1_555
O14_4 C14_4 1_555 1_555
O12_3 Cu1_5 1_555 1_555
H11_4 O12_3 1_555 1_555
H12_3 O12_3 1_555 1_555
C1_4 O13 1_555 1_555
H8_4 C18_4 1_555 1_555
C19_4 H9_4 1_555 1_555
H10_4 C20_4 1_555 1_555
N6_4 C18_4 1_555 1_555
O16_3 N6_4 1_555 1_555
C19_4 C20_4 1_555 1_555
C19_4 N6_4 1_555 1_555
C4_4 O3_4 1_555 1_555
O3_4 Cu1_6 1_555 1_555
O6_3 Cu1_6 1_555 1_555
H5_4 O6_3 1_555 1_555
H6_3 O6_3 1_555 1_555
C11_4 C12_4 1_555 1_555
C12_4 C13_4 1_555 1_555
C15_4 C16_4 1_555 1_555
C16_4 C17_4 1_555 1_555
C17_4 H7_4 1_555 1_555
N7_4 C13_4 1_555 1_555
N8_2 C12_4 1_555 1_555
O7_4 Cu1_6 1_555 1_555
O13_2 C11_4 1_555 1_555
C4_4 O14_3 1_555 1_555
C11_4 O7_4 1_555 1_555
C15_4 N7_4 1_555 1_555
C15_4 N8_2 1_555 1_555
H6_4 O6_4 1_555 1_555
H12_4 O12_4 1_555 1_555

#END
