
###############################################################################
#
# This file contains modified crystal structure data generated from the
# MOF subset of the Cambridge Structural Database (CSD) v543 
# hosted by the Cambridge Crystallographic Data Centre (CCDC).
#
# This work is licensed under the Creative Commons
# Attribution-NonCommercial-ShareAlike 4.0 International License.
# To view a copy of this license, visit
# http://creativecommons.org/licenses/by-nc-sa/4.0/
# or send a letter to
# Creative Commons, PO Box 1866, Mountain View, CA 94042, USA.
#
# CIF created using the CSD Python API on 29 September 2022
# The structure has been converted into the P1 space group
# The structure has a 3D framework
# The original CSD entry MEGVAY is in the monoclinic crystal system
# The framework has been calculated to contain at least 10.0% void space
# The void calculation uses a probe of radius 1.32A, grid spacing 0.4
#
###############################################################################

data_MEGVAY
_chemical_formula_moiety         '(C72 H112 Li33 O70)n'
_symmetry_cell_setting           triclinic
_symmetry_space_group_name_H-M   'P 1'
_symmetry_Int_Tables_number      1
_space_group_name_Hall           'P 1'
loop_
_symmetry_equiv_pos_site_id
_symmetry_equiv_pos_as_xyz
1 x,y,z
_cell_length_a                   9.872(2)
_cell_length_b                   37.167(9)
_cell_length_c                   9.698(2)
_cell_angle_alpha                90
_cell_angle_beta                 92.700(4)
_cell_angle_gamma                90
_cell_volume                     3554.37
loop_
_atom_site_label
_atom_site_type_symbol
_atom_site_fract_x
_atom_site_fract_y
_atom_site_fract_z
Li11 Li 0.0479(3) 0.50357(10) 0.1340(3)
O22 O 0.03373(13) 0.50679(4) 0.69064(12)
O28 O 0.07196(13) 0.46918(4) 0.98954(13)
Li16 Li 0.1444(3) 0.50104(9) 0.4051(3)
O10 O 0.79541(14) 0.55412(4) 0.16534(13)
O11 O 0.92804(13) 0.53082(4) 0.01046(13)
O14 O 0.46675(13) 0.24217(4) 0.22917(13)
O16 O 0.33003(15) 0.17891(4) 0.07880(14)
O19 O 0.57499(14) 0.26108(4) 0.04674(13)
C6 C 0.8269(2) 0.54906(5) 0.04303(19)
C7 C 0.5733(2) 0.24674(5) 0.16308(19)
C11 C 0.7041(2) 0.23291(7) 0.2276(2)
H4 H 0.707680 0.238048 0.326827
H5 H 0.780340 0.244769 0.185021
H6 H 0.709846 0.206867 0.213148
H8 H 0.033320 0.235763 0.007213
H17 H 0.633097 0.327377 0.004922
H18 H 0.596343 0.364984 0.074307
Li8 Li 0.3039(3) 0.23042(10) 0.1251(3)
H28 H 0.282(2) 0.1712(7) 0.006(2)
H29 H 0.415(2) 0.1700(8) 0.071(3)
O23 O 0.16847(13) 0.22108(4) 0.26744(12)
Li14 Li 0.9020(3) 0.54765(9) 0.3434(3)
Li15 Li 0.2499(3) 0.17270(10) 0.2607(3)
Li18 Li 0.4395(3) 0.22448(10) 0.4134(3)
Li20 Li 0.7118(3) 0.59582(10) 0.2391(3)
O1 O 0.96627(13) 0.49321(4) 0.30936(12)
O2 O 0.16847(13) 0.27892(4) 0.76744(12)
O3 O 0.67805(13) 0.43205(4) 0.69280(13)
O4 O 0.45141(13) 0.38306(4) 0.83582(13)
O5 O 0.22195(13) 0.46140(4) 0.50473(13)
O6 O 0.36783(13) 0.42220(4) 0.59894(13)
O7 O 0.79002(13) 0.48043(4) 0.76675(13)
O8 O 0.86697(14) 0.45980(4) 0.46426(12)
O12 O 0.14360(13) 0.37020(4) 0.75005(14)
O13 O 0.40178(13) 0.32718(4) 0.89487(13)
O15 O 0.57065(14) 0.35606(4) 0.56303(14)
O17 O 0.74068(15) 0.37876(4) 0.44859(14)
O18 O 0.26090(13) 0.25691(4) 0.96257(13)
C1 C 0.6955(2) 0.45777(6) 0.77526(19)
C2 C 0.88749(19) 0.46777(6) 0.34168(19)
C3 C 0.3355(2) 0.44559(6) 0.51035(19)
C4 C 0.1616(2) 0.26159(5) 0.87942(19)
C5 C 0.6542(2) 0.35493(6) 0.46746(19)
C8 C 0.4787(2) 0.35405(6) 0.89934(18)
C9 C 0.0228(2) 0.37792(6) 0.71247(19)
C10 C 0.5967(2) 0.46258(6) 0.8878(2)
H1 H 0.508703 0.470259 0.846886
H2 H 0.631132 0.480886 0.953127
H3 H 0.585939 0.439708 0.936346
C12 C 0.0265(2) 0.24610(7) 0.9142(2)
H9 H 0.000387 0.227281 0.847349
C13 C 0.7384(2) 0.56544(6) 0.9293(2)
H10 H 0.650157 0.553315 0.924473
H11 H 0.781852 0.562596 0.841163
H12 H 0.725518 0.591088 0.948128
C14 C 0.4397(2) 0.45495(7) 0.4073(2)
H13 H 0.461838 0.433421 0.354496
H14 H 0.521909 0.464003 0.456187
H15 H 0.403114 0.473513 0.344137
C15 C 0.6086(2) 0.35254(7) 0.9867(2)
H16 H 0.681131 0.364287 0.937691
C16 C 0.8140(2) 0.44750(7) 0.2280(2)
H19 H 0.731805 0.460667 0.198051
H20 H 0.789168 0.423618 0.261369
H21 H 0.872923 0.444929 0.150028
C17 C 0.6472(3) 0.32263(6) 0.3738(2)
H22 H 0.660369 0.300695 0.428931
H23 H 0.718434 0.324327 0.307045
H24 H 0.558324 0.321823 0.324503
Li1 Li 0.5330(3) 0.39825(9) 0.6650(3)
Li2 Li 0.9521(3) 0.49643(10) 0.8660(3)
Li3 Li 0.8123(3) 0.41678(9) 0.5613(3)
Li4 Li 0.0980(3) 0.45235(9) 0.6566(3)
Li5 Li 0.2499(3) 0.32730(10) 0.7607(3)
Li7 Li 0.4395(3) 0.27552(10) 0.9134(3)
Li9 Li 0.2882(3) 0.40418(10) 0.7609(3)
O24 O 0.20998(13) 0.51957(4) 0.23325(13)
O25 O 0.13303(14) 0.54020(4) 0.53574(12)
O26 O 0.98799(13) 0.40763(4) 0.65954(13)
O27 O 0.20459(14) 0.44588(4) 0.83466(13)
O29 O 0.46675(13) 0.25783(4) 0.72917(13)
O30 O 0.33003(15) 0.32109(4) 0.57880(14)
Li17 Li 0.8556(3) 0.49896(9) 0.5949(3)
Li19 Li 0.3039(3) 0.26958(10) 0.6251(3)
H7 H 0.957949 0.265186 0.910633
C18 C 0.9176(2) 0.34946(7) 0.7333(3)
H25 H 0.827111 0.359562 0.713207
H26 H 0.924609 0.341050 0.829100
H27 H 0.932449 0.329216 0.671009
O20 O 0.03373(13) 0.99321(4) 0.19064(12)
O9 O 0.01201(13) 0.90763(4) 0.84046(13)
H7_2 H 0.042051 0.765186 0.589367
C18_2 C 0.0824(2) 0.84946(7) 0.7667(3)
H25_2 H 0.172889 0.859562 0.786793
H26_2 H 0.075391 0.841050 0.670900
H27_2 H 0.067551 0.829216 0.828991
Li12 Li 0.1877(3) 0.91678(9) 0.9387(3)
Li6 Li 0.8556(3) 0.00104(9) 0.0949(3)
O24_2 O 0.79002(13) 0.01957(4) 0.26675(13)
Li13 Li 0.0980(3) 0.04765(9) 0.1566(3)
O10_2 O 0.20459(14) 0.05412(4) 0.33466(13)
O11_2 O 0.07196(13) 0.03082(4) 0.48954(13)
C6_2 C 0.1731(2) 0.04906(5) 0.45697(19)
C13_2 C 0.2616(2) 0.06544(6) 0.5707(2)
H10_2 H 0.349843 0.053315 0.575527
H11_2 H 0.218148 0.062596 0.658837
H12_2 H 0.274482 0.091088 0.551872
O21 O 0.96627(13) 0.00679(4) 0.80936(12)
O25_2 O 0.86697(14) 0.04020(4) 0.96426(12)
Li20_2 Li 0.2882(3) 0.09582(10) 0.2609(3)
O8_2 O 0.13303(14) 0.95980(4) 0.03574(12)
O17_2 O 0.25932(15) 0.87876(4) 0.05141(14)
C2_2 C 0.11251(19) 0.96777(6) 0.15832(19)
C5_2 C 0.3458(2) 0.85493(6) 0.03254(19)
C14_2 C 0.5603(2) 0.95495(7) 0.0927(2)
H13_2 H 0.538162 0.933421 0.145504
H14_2 H 0.478091 0.964003 0.043813
H15_2 H 0.596886 0.973513 0.155863
C16_2 C 0.1860(2) 0.94750(7) 0.2720(2)
H19_2 H 0.268195 0.960667 0.301949
H20_2 H 0.210832 0.923618 0.238631
H21_2 H 0.127077 0.944929 0.349972
C17_2 C 0.3528(3) 0.82263(6) 0.1262(2)
H22_2 H 0.339631 0.800695 0.071069
H23_2 H 0.281566 0.824327 0.192955
H24_2 H 0.441676 0.821823 0.175497
O2_2 O 0.83153(13) 0.77892(4) 0.73256(12)
O3_2 O 0.32195(13) 0.93205(4) 0.80720(13)
O4_2 O 0.54859(13) 0.88306(4) 0.66418(13)
O5_2 O 0.77805(13) 0.96140(4) 0.99527(13)
O6_2 O 0.63217(13) 0.92220(4) 0.90106(13)
O7_2 O 0.20998(13) 0.98043(4) 0.73325(13)
O12_2 O 0.85640(13) 0.87020(4) 0.74995(14)
O13_2 O 0.59822(13) 0.82718(4) 0.60513(13)
O14_2 O 0.53325(13) 0.74217(4) 0.27083(13)
O15_2 O 0.42935(14) 0.85606(4) 0.93697(14)
O16_2 O 0.66997(15) 0.67891(4) 0.42120(14)
O18_2 O 0.73910(13) 0.75691(4) 0.53743(13)
O19_2 O 0.42501(14) 0.76108(4) 0.45326(13)
C1_2 C 0.3045(2) 0.95777(6) 0.72474(19)
C3_2 C 0.6645(2) 0.94559(6) 0.98965(19)
C4_2 C 0.8384(2) 0.76159(5) 0.62058(19)
C7_2 C 0.4267(2) 0.74674(5) 0.33692(19)
C8_2 C 0.5213(2) 0.85405(6) 0.60066(18)
C9_2 C 0.9772(2) 0.87792(6) 0.78753(19)
C10_2 C 0.4033(2) 0.96258(6) 0.6122(2)
H1_2 H 0.491297 0.970259 0.653114
H2_2 H 0.368868 0.980886 0.546873
H3_2 H 0.414061 0.939708 0.563654
C11_2 C 0.2959(2) 0.73291(7) 0.2724(2)
H4_2 H 0.292320 0.738048 0.173173
H5_2 H 0.219660 0.744769 0.314979
H6_2 H 0.290154 0.706867 0.286852
C12_2 C 0.9735(2) 0.74610(7) 0.5858(2)
H8_2 H 0.966680 0.735763 0.492787
H9_2 H 0.999613 0.727281 0.652651
C15_2 C 0.3914(2) 0.85254(7) 0.5133(2)
H16_2 H 0.318869 0.864287 0.562309
H17_2 H 0.366903 0.827377 0.495078
H18_2 H 0.403657 0.864984 0.425693
Li1_2 Li 0.4670(3) 0.89825(9) 0.8350(3)
Li2_2 Li 0.0479(3) 0.99643(10) 0.6340(3)
Li4_2 Li 0.9020(3) 0.95235(9) 0.8434(3)
Li5_2 Li 0.7501(3) 0.82730(10) 0.7393(3)
Li7_2 Li 0.5605(3) 0.77552(10) 0.5866(3)
Li8_2 Li 0.6961(3) 0.73042(10) 0.3749(3)
Li9_2 Li 0.7118(3) 0.90418(10) 0.7391(3)
H28_2 H 0.718(2) 0.6712(7) 0.494(2)
H29_2 H 0.585(2) 0.6700(8) 0.429(3)
O23_2 O 0.83153(13) 0.72108(4) 0.23256(12)
O27_2 O 0.79541(14) 0.94588(4) 0.66534(13)
O29_2 O 0.53325(13) 0.75783(4) 0.77083(13)
O30_2 O 0.66997(15) 0.82109(4) 0.92120(14)
Li15_2 Li 0.7501(3) 0.67270(10) 0.2393(3)
Li17_2 Li 0.1444(3) 0.99896(9) 0.9051(3)
Li18_2 Li 0.5605(3) 0.72448(10) 0.0866(3)
Li19_2 Li 0.6961(3) 0.76958(10) 0.8749(3)
Li10 Li 0.9521(3) 0.00357(10) 0.3660(3)
O28_2 O 0.92804(13) 0.96918(4) 0.51046(13)
O9_2 O 0.01201(13) 0.59237(4) 0.34046(13)
H7_3 H 0.042051 0.734814 0.089367
C18_3 C 0.0824(2) 0.65054(7) 0.2667(3)
H25_3 H 0.172889 0.640438 0.286793
H26_3 H 0.075391 0.658950 0.170900
H27_3 H 0.067551 0.670784 0.328991
Li12_2 Li 0.1877(3) 0.58322(9) 0.4387(3)
O3_3 O 0.32195(13) 0.56795(4) 0.30720(13)
O4_3 O 0.54859(13) 0.61694(4) 0.16418(13)
O5_3 O 0.77805(13) 0.53860(4) 0.49527(13)
O6_3 O 0.63217(13) 0.57780(4) 0.40106(13)
O12_3 O 0.85640(13) 0.62980(4) 0.24995(14)
O13_3 O 0.59822(13) 0.67282(4) 0.10513(13)
O15_3 O 0.42935(14) 0.64394(4) 0.43697(14)
O17_3 O 0.25932(15) 0.62124(4) 0.55141(14)
O18_3 O 0.73910(13) 0.74309(4) 0.03743(13)
C1_3 C 0.3045(2) 0.54223(6) 0.22474(19)
C2_3 C 0.11251(19) 0.53223(6) 0.65832(19)
C3_3 C 0.6645(2) 0.55441(6) 0.48965(19)
C4_3 C 0.8384(2) 0.73841(5) 0.12058(19)
C5_3 C 0.3458(2) 0.64507(6) 0.53254(19)
C8_3 C 0.5213(2) 0.64595(6) 0.10066(18)
C9_3 C 0.9772(2) 0.62208(6) 0.28753(19)
C10_3 C 0.4033(2) 0.53742(6) 0.1122(2)
H1_3 H 0.491297 0.529741 0.153114
H2_3 H 0.368868 0.519114 0.046873
H3_3 H 0.414061 0.560292 0.063654
C12_3 C 0.9735(2) 0.75390(7) 0.0858(2)
H9_3 H 0.999613 0.772719 0.152651
C13_3 C 0.2616(2) 0.43456(6) 0.0707(2)
H10_3 H 0.349843 0.446685 0.075527
H11_3 H 0.218148 0.437404 0.158837
H12_3 H 0.274482 0.408912 0.051872
C14_3 C 0.5603(2) 0.54505(7) 0.5927(2)
H13_3 H 0.538162 0.566579 0.645504
H14_3 H 0.478091 0.535997 0.543813
H15_3 H 0.596886 0.526487 0.655863
C15_3 C 0.3914(2) 0.64746(7) 0.0133(2)
H16_3 H 0.318869 0.635713 0.062309
C16_3 C 0.1860(2) 0.55250(7) 0.7720(2)
H19_3 H 0.268195 0.539333 0.801949
H20_3 H 0.210832 0.576382 0.738631
H21_3 H 0.127077 0.555071 0.849972
C17_3 C 0.3528(3) 0.67737(6) 0.6262(2)
H22_3 H 0.339631 0.699305 0.571069
H23_3 H 0.281566 0.675673 0.692955
H24_3 H 0.441676 0.678177 0.675497
Li1_3 Li 0.4670(3) 0.60175(9) 0.3350(3)
O19_3 O 0.42501(14) 0.73892(4) 0.95326(13)
C6_3 C 0.1731(2) 0.45094(5) 0.95697(19)
C7_3 C 0.4267(2) 0.75326(5) 0.83692(19)
C11_3 C 0.2959(2) 0.76709(7) 0.7724(2)
H4_3 H 0.292320 0.761952 0.673173
H5_3 H 0.219660 0.755231 0.814979
H6_3 H 0.290154 0.793133 0.786852
H8_3 H 0.966680 0.764237 0.992787
H17_3 H 0.366903 0.672623 0.995078
H18_3 H 0.403657 0.635016 0.925693
H28_3 H 0.718(2) 0.8288(7) 0.994(2)
H29_3 H 0.585(2) 0.8300(8) 0.929(3)
O3_4 O 0.67805(13) 0.06795(4) 0.19280(13)
O4_4 O 0.45141(13) 0.11694(4) 0.33582(13)
O5_4 O 0.22195(13) 0.03860(4) 0.00473(13)
O6_4 O 0.36783(13) 0.07780(4) 0.09894(13)
O12_4 O 0.14360(13) 0.12980(4) 0.25005(14)
O13_4 O 0.40178(13) 0.17282(4) 0.39487(13)
O15_4 O 0.57065(14) 0.14394(4) 0.06303(14)
O18_4 O 0.26090(13) 0.24309(4) 0.46257(13)
O19_4 O 0.57499(14) 0.23892(4) 0.54674(13)
C1_4 C 0.6955(2) 0.04223(6) 0.27526(19)
C3_4 C 0.3355(2) 0.05441(6) 0.01035(19)
C4_4 C 0.1616(2) 0.23841(5) 0.37942(19)
C7_4 C 0.5733(2) 0.25326(5) 0.66308(19)
C8_4 C 0.4787(2) 0.14595(6) 0.39934(18)
C9_4 C 0.0228(2) 0.12208(6) 0.21247(19)
C10_4 C 0.5967(2) 0.03742(6) 0.3878(2)
H1_4 H 0.508703 0.029741 0.346886
H2_4 H 0.631132 0.019114 0.453127
H3_4 H 0.585939 0.060292 0.436346
C11_4 C 0.7041(2) 0.26709(7) 0.7276(2)
H4_4 H 0.707680 0.261952 0.826827
H5_4 H 0.780340 0.255231 0.685021
H6_4 H 0.709846 0.293133 0.713148
C12_4 C 0.0265(2) 0.25390(7) 0.4142(2)
H8_4 H 0.033320 0.264237 0.507213
H9_4 H 0.000387 0.272719 0.347349
C15_4 C 0.6086(2) 0.14746(7) 0.4867(2)
H16_4 H 0.681131 0.135713 0.437691
H17_4 H 0.633097 0.172623 0.504922
H18_4 H 0.596343 0.135016 0.574307
Li1_4 Li 0.5330(3) 0.10175(9) 0.1650(3)
Li3_2 Li 0.8123(3) 0.08322(9) 0.0613(3)
H28_4 H 0.282(2) 0.3288(7) 0.506(2)
H29_4 H 0.415(2) 0.3300(8) 0.571(3)
O26_2 O 0.98799(13) 0.09237(4) 0.15954(13)
O17_4 O 0.74068(15) 0.12124(4) 0.94859(14)
C2_4 C 0.88749(19) 0.03223(6) 0.84168(19)
C5_4 C 0.6542(2) 0.14507(6) 0.96746(19)
C14_4 C 0.4397(2) 0.04505(7) 0.9073(2)
H13_4 H 0.461838 0.066579 0.854496
H14_4 H 0.521909 0.035997 0.956187
H15_4 H 0.403114 0.026487 0.844137
C16_4 C 0.8140(2) 0.05250(7) 0.7280(2)
H19_4 H 0.731805 0.039333 0.698051
H20_4 H 0.789168 0.076382 0.761369
H21_4 H 0.872923 0.055071 0.650028
C17_4 C 0.6472(3) 0.17737(6) 0.8738(2)
H22_4 H 0.660369 0.199305 0.928931
H23_4 H 0.718434 0.175673 0.807045
H24_4 H 0.558324 0.178177 0.824503
C6_4 C 0.8269(2) 0.95094(5) 0.54303(19)
C13_4 C 0.7384(2) 0.93456(6) 0.4293(2)
H10_4 H 0.650157 0.946685 0.424473
H11_4 H 0.781852 0.937404 0.341163
H12_4 H 0.725518 0.908912 0.448128
H7_4 H 0.957949 0.234814 0.410633
C18_4 C 0.9176(2) 0.15054(7) 0.2333(3)
H25_4 H 0.827111 0.140438 0.213207
H26_4 H 0.924609 0.158950 0.329100
H27_4 H 0.932449 0.170784 0.171009
loop_
_geom_bond_atom_site_label_1
_geom_bond_atom_site_label_2
_geom_bond_site_symmetry_1
_geom_bond_site_symmetry_2
O10 C6 1_555 1_555
O11 C6 1_555 1_555
O14 C7 1_555 1_555
O16 Li8 1_555 1_555
O19 C7 1_555 1_555
C7 C11 1_555 1_555
C11 H4 1_555 1_555
H5 C11 1_555 1_555
H6 C11 1_555 1_555
Li8 O14 1_555 1_555
H28 O16 1_555 1_555
H29 O16 1_555 1_555
O23 Li8 1_555 1_555
Li14 O10 1_555 1_555
Li15 O16 1_555 1_555
Li18 O14 1_555 1_555
Li20 O10 1_555 1_555
O23 Li15 1_555 1_555
O1 C2 1_555 1_555
O2 C4 1_555 1_555
O3 C1 1_555 1_555
O4 C8 1_555 1_555
O5 C3 1_555 1_555
O6 C3 1_555 1_555
O7 C1 1_555 1_555
O8 C2 1_555 1_555
O12 C9 1_555 1_555
O13 C8 1_555 1_555
O15 C5 1_555 1_555
O17 C5 1_555 1_555
O18 C4 1_555 1_555
C1 C10 1_555 1_555
C2 C16 1_555 1_555
C3 C14 1_555 1_555
C4 C12 1_555 1_555
C5 C17 1_555 1_555
C8 C15 1_555 1_555
C10 H1 1_555 1_555
H2 C10 1_555 1_555
H3 C10 1_555 1_555
H9 C12 1_555 1_555
C13 H10 1_555 1_555
H11 C13 1_555 1_555
H12 C13 1_555 1_555
C14 H13 1_555 1_555
H14 C14 1_555 1_555
H15 C14 1_555 1_555
C15 H16 1_555 1_555
C16 H19 1_555 1_555
H20 C16 1_555 1_555
H21 C16 1_555 1_555
C17 H22 1_555 1_555
H23 C17 1_555 1_555
H24 C17 1_555 1_555
Li1 O3 1_555 1_555
Li2 O7 1_555 1_555
Li3 O3 1_555 1_555
Li4 O5 1_555 1_555
Li5 O2 1_555 1_555
Li16 O5 1_555 1_555
Li7 O13 1_555 1_555
Li9 O4 1_555 1_555
O22 Li4 1_555 1_555
O24 Li16 1_555 1_555
O25 Li16 1_555 1_555
O26 Li3 1_555 1_555
O27 Li4 1_555 1_555
O29 Li7 1_555 1_555
O30 Li5 1_555 1_555
Li14 O1 1_555 1_555
Li17 O7 1_555 1_555
Li19 O2 1_555 1_555
O4 Li1 1_555 1_555
O6 Li1 1_555 1_555
O6 Li9 1_555 1_555
O8 Li3 1_555 1_555
O8 Li17 1_555 1_555
O12 Li5 1_555 1_555
O12 Li9 1_555 1_555
O13 Li5 1_555 1_555
O15 Li1 1_555 1_555
O17 Li3 1_555 1_555
O18 Li7 1_555 1_555
Li9 O27 1_555 1_555
O29 Li19 1_555 1_555
O30 Li19 1_555 1_555
C18 H25 1_555 1_555
H26 C18 1_555 1_555
H27 C18 1_555 1_555
C18_2 H25_2 1_555 1_555
H26_2 C18_2 1_555 1_555
H27_2 C18_2 1_555 1_555
Li12 O9 1_555 1_555
O24_2 Li6 1_555 1_555
O10_2 C6_2 1_555 1_555
O11_2 C6_2 1_555 1_555
C6_2 C13_2 1_555 1_555
C13_2 H10_2 1_555 1_555
H11_2 C13_2 1_555 1_555
H12_2 C13_2 1_555 1_555
Li13 O10_2 1_555 1_555
Li20_2 O10_2 1_555 1_555
O20 C2_2 1_555 1_555
O8_2 C2_2 1_555 1_555
O17_2 C5_2 1_555 1_555
C2_2 C16_2 1_555 1_555
C5_2 C17_2 1_555 1_555
C14_2 H13_2 1_555 1_555
H14_2 C14_2 1_555 1_555
H15_2 C14_2 1_555 1_555
C16_2 H19_2 1_555 1_555
H20_2 C16_2 1_555 1_555
H21_2 C16_2 1_555 1_555
C17_2 H22_2 1_555 1_555
H23_2 C17_2 1_555 1_555
H24_2 C17_2 1_555 1_555
O2_2 C4_2 1_555 1_555
O3_2 C1_2 1_555 1_555
O4_2 C8_2 1_555 1_555
O5_2 C3_2 1_555 1_555
O6_2 C3_2 1_555 1_555
O7_2 C1_2 1_555 1_555
O12_2 C9_2 1_555 1_555
O13_2 C8_2 1_555 1_555
O14_2 C7_2 1_555 1_555
O16_2 Li8_2 1_555 1_555
O18_2 C4_2 1_555 1_555
O19_2 C7_2 1_555 1_555
C1_2 C10_2 1_555 1_555
C4_2 C12_2 1_555 1_555
C7_2 C11_2 1_555 1_555
C8_2 C15_2 1_555 1_555
C10_2 H1_2 1_555 1_555
H2_2 C10_2 1_555 1_555
H3_2 C10_2 1_555 1_555
C11_2 H4_2 1_555 1_555
H5_2 C11_2 1_555 1_555
H6_2 C11_2 1_555 1_555
H8_2 C12_2 1_555 1_555
H9_2 C12_2 1_555 1_555
C15_2 H16_2 1_555 1_555
H17_2 C15_2 1_555 1_555
H18_2 C15_2 1_555 1_555
Li1_2 O3_2 1_555 1_555
Li2_2 O7_2 1_555 1_555
Li12 O3_2 1_555 1_555
Li4_2 O5_2 1_555 1_555
Li5_2 O2_2 1_555 1_555
Li7_2 O13_2 1_555 1_555
Li8_2 O14_2 1_555 1_555
Li9_2 O4_2 1_555 1_555
H28_2 O16_2 1_555 1_555
H29_2 O16_2 1_555 1_555
O23_2 Li8_2 1_555 1_555
O27_2 Li4_2 1_555 1_555
O29_2 Li7_2 1_555 1_555
O30_2 Li5_2 1_555 1_555
Li15_2 O16_2 1_555 1_555
Li17_2 O7_2 1_555 1_555
Li18_2 O14_2 1_555 1_555
Li19_2 O2_2 1_555 1_555
O4_2 Li1_2 1_555 1_555
O6_2 Li1_2 1_555 1_555
O6_2 Li9_2 1_555 1_555
O12_2 Li5_2 1_555 1_555
O12_2 Li9_2 1_555 1_555
O13_2 Li5_2 1_555 1_555
O15_2 Li1_2 1_555 1_555
O18_2 Li7_2 1_555 1_555
O18_2 Li8_2 1_555 1_555
O19_2 Li7_2 1_555 1_555
Li9_2 O27_2 1_555 1_555
O23_2 Li15_2 1_555 1_555
O29_2 Li19_2 1_555 1_555
O30_2 Li19_2 1_555 1_555
C18_3 H25_3 1_555 1_555
H26_3 C18_3 1_555 1_555
H27_3 C18_3 1_555 1_555
Li12_2 O9_2 1_555 1_555
O22 C2_3 1_555 1_555
O23_2 C4_3 1_555 1_555
O3_3 C1_3 1_555 1_555
O4_3 C8_3 1_555 1_555
O5_3 C3_3 1_555 1_555
O6_3 C3_3 1_555 1_555
O24 C1_3 1_555 1_555
O25 C2_3 1_555 1_555
O12_3 C9_3 1_555 1_555
O13_3 C8_3 1_555 1_555
O15_3 C5_3 1_555 1_555
O17_3 C5_3 1_555 1_555
O18_3 C4_3 1_555 1_555
C1_3 C10_3 1_555 1_555
C2_3 C16_3 1_555 1_555
C3_3 C14_3 1_555 1_555
C4_3 C12_3 1_555 1_555
C5_3 C17_3 1_555 1_555
C8_3 C15_3 1_555 1_555
C10_3 H1_3 1_555 1_555
H2_3 C10_3 1_555 1_555
H3_3 C10_3 1_555 1_555
H9_3 C12_3 1_555 1_555
C13_3 H10_3 1_555 1_555
H11_3 C13_3 1_555 1_555
H12_3 C13_3 1_555 1_555
C14_3 H13_3 1_555 1_555
H14_3 C14_3 1_555 1_555
H15_3 C14_3 1_555 1_555
C15_3 H16_3 1_555 1_555
C16_3 H19_3 1_555 1_555
H20_3 C16_3 1_555 1_555
H21_3 C16_3 1_555 1_555
C17_3 H22_3 1_555 1_555
H23_3 C17_3 1_555 1_555
H24_3 C17_3 1_555 1_555
Li1_3 O3_3 1_555 1_555
Li11 O24 1_555 1_555
Li12_2 O3_3 1_555 1_555
Li14 O5_3 1_555 1_555
Li17 O5_3 1_555 1_555
Li18_2 O13_3 1_555 1_555
Li20 O4_3 1_555 1_555
O4_3 Li1_3 1_555 1_555
O6_3 Li1_3 1_555 1_555
O6_3 Li20 1_555 1_555
O25 Li12_2 1_555 1_555
O12_3 Li15_2 1_555 1_555
O12_3 Li20 1_555 1_555
O13_3 Li15_2 1_555 1_555
O15_3 Li1_3 1_555 1_555
O17_3 Li12_2 1_555 1_555
O18_3 Li18_2 1_555 1_555
O27 C6_3 1_555 1_555
O28 C6_3 1_555 1_555
O29_2 C7_3 1_555 1_555
O19_3 C7_3 1_555 1_555
C7_3 C11_3 1_555 1_555
C11_3 H4_3 1_555 1_555
H5_3 C11_3 1_555 1_555
H6_3 C11_3 1_555 1_555
H28_3 O30_2 1_555 1_555
H29_3 O30_2 1_555 1_555
O23 C4_4 1_555 1_555
O3_4 C1_4 1_555 1_555
O4_4 C8_4 1_555 1_555
O5_4 C3_4 1_555 1_555
O6_4 C3_4 1_555 1_555
O24_2 C1_4 1_555 1_555
O12_4 C9_4 1_555 1_555
O13_4 C8_4 1_555 1_555
O29 C7_4 1_555 1_555
O18_4 C4_4 1_555 1_555
O19_4 C7_4 1_555 1_555
C1_4 C10_4 1_555 1_555
C4_4 C12_4 1_555 1_555
C7_4 C11_4 1_555 1_555
C8_4 C15_4 1_555 1_555
C10_4 H1_4 1_555 1_555
H2_4 C10_4 1_555 1_555
H3_4 C10_4 1_555 1_555
C11_4 H4_4 1_555 1_555
H5_4 C11_4 1_555 1_555
H6_4 C11_4 1_555 1_555
H8_4 C12_4 1_555 1_555
H9_4 C12_4 1_555 1_555
C15_4 H16_4 1_555 1_555
H17_4 C15_4 1_555 1_555
H18_4 C15_4 1_555 1_555
Li1_4 O3_4 1_555 1_555
Li10 O24_2 1_555 1_555
Li3_2 O3_4 1_555 1_555
Li13 O5_4 1_555 1_555
Li18 O13_4 1_555 1_555
Li20_2 O4_4 1_555 1_555
H28_4 O30 1_555 1_555
H29_4 O30 1_555 1_555
O26_2 Li3_2 1_555 1_555
O4_4 Li1_4 1_555 1_555
O6_4 Li1_4 1_555 1_555
O6_4 Li20_2 1_555 1_555
O12_4 Li15 1_555 1_555
O12_4 Li20_2 1_555 1_555
O13_4 Li15 1_555 1_555
O15_4 Li1_4 1_555 1_555
O18_4 Li18 1_555 1_555
O18_4 Li19 1_555 1_555
O19_4 Li18 1_555 1_555
O21 C2_4 1_555 1_555
O25_2 C2_4 1_555 1_555
O17_4 C5_4 1_555 1_555
C2_4 C16_4 1_555 1_555
C5_4 C17_4 1_555 1_555
C14_4 H13_4 1_555 1_555
H14_4 C14_4 1_555 1_555
H15_4 C14_4 1_555 1_555
C16_4 H19_4 1_555 1_555
H20_4 C16_4 1_555 1_555
H21_4 C16_4 1_555 1_555
C17_4 H22_4 1_555 1_555
H23_4 C17_4 1_555 1_555
H24_4 C17_4 1_555 1_555
O27_2 C6_4 1_555 1_555
O28_2 C6_4 1_555 1_555
C6_4 C13_4 1_555 1_555
C13_4 H10_4 1_555 1_555
H11_4 C13_4 1_555 1_555
H12_4 C13_4 1_555 1_555
C18_4 H25_4 1_555 1_555
H26_4 C18_4 1_555 1_555
H27_4 C18_4 1_555 1_555

#END
