
###############################################################################
#
# This file contains modified crystal structure data generated from the
# MOF subset of the Cambridge Structural Database (CSD) v543 
# hosted by the Cambridge Crystallographic Data Centre (CCDC).
#
# This work is licensed under the Creative Commons
# Attribution-NonCommercial-ShareAlike 4.0 International License.
# To view a copy of this license, visit
# http://creativecommons.org/licenses/by-nc-sa/4.0/
# or send a letter to
# Creative Commons, PO Box 1866, Mountain View, CA 94042, USA.
#
# CIF created using the CSD Python API on 29 September 2022
# The structure has been converted into the P1 space group
# The structure has a 3D framework
# The original CSD entry MEGXII is in the orthorhombic crystal system
# The original CSD entry MEGXII is in a Sohncke space group
# The framework has been calculated to contain at least 10.0% void space
# The void calculation uses a probe of radius 1.32A, grid spacing 0.4
#
###############################################################################

data_MEGXII
_chemical_formula_moiety         '(C156 H96 F24 N8 O16 S8 Zn4)n'
_symmetry_cell_setting           triclinic
_symmetry_space_group_name_H-M   'P 1'
_symmetry_Int_Tables_number      1
_space_group_name_Hall           'P 1'
loop_
_symmetry_equiv_pos_site_id
_symmetry_equiv_pos_as_xyz
1 x,y,z
_cell_length_a                   7.2175(7)
_cell_length_b                   24.471(3)
_cell_length_c                   28.683(3)
_cell_angle_alpha                90
_cell_angle_beta                 90
_cell_angle_gamma                90
_cell_volume                     5065.98
loop_
_atom_site_label
_atom_site_type_symbol
_atom_site_fract_x
_atom_site_fract_y
_atom_site_fract_z
Zn3 Zn 0.08527(10) 0.46072(3) 0.75924(3)
S1 S 0.8462(2) 0.61214(7) 0.46084(6)
S2 S 0.9463(2) 0.50730(7) 0.62918(6)
F3 F 0.9900(6) 0.72926(18) 0.66609(15)
N1 N 0.3045(8) 0.4889(2) 0.72159(19)
C4 C 0.6235(8) 0.5287(3) 0.6788(2)
H3 H 0.917913 0.570765 0.377316
C13 C 0.8408(9) 0.6037(3) 0.6503(2)
H4 H 0.772905 0.633487 0.662876
C20 C 0.7888(9) 0.5499(3) 0.6564(2)
C23 C 0.3265(9) 0.5426(3) 0.7150(2)
H9 H 0.232879 0.567042 0.725367
C28 C 0.6002(10) 0.4738(3) 0.6856(3)
H12 H 0.693551 0.448839 0.675996
C29 C 0.4838(9) 0.5634(3) 0.6932(2)
H13 H 0.495073 0.601628 0.688204
C35 C 0.8693(9) 0.6407(3) 0.5154(2)
C36 C 0.6991(9) 0.6463(4) 0.5459(3)
H19 H 0.668030 0.610698 0.559471
H20 H 0.594838 0.659405 0.527115
H21 H 0.724336 0.672489 0.571007
C38 C 0.4382(10) 0.4545(3) 0.7069(3)
H23 H 0.422009 0.416302 0.710992
S1_2 S 0.6538(2) 0.38786(7) 0.96084(6)
O3 O 0.1769(7) 0.3527(2) 0.7239(2)
C3 C 0.3502(9) 0.3927(3) 0.9023(2)
C5 C 0.3784(9) 0.4391(3) 0.8292(2)
H1 H 0.454780 0.457981 0.807526
C9 C 0.4229(9) 0.3752(2) 0.9471(2)
N2 N 0.2012(8) 0.4307(2) 0.8182(2)
C10 C 0.3372(9) 0.3506(3) 0.9836(2)
H2 H 0.210673 0.339984 0.983011
C11 C 0.4559(9) 0.4215(3) 0.8706(2)
H3_2 H 0.582087 0.429235 0.877316
C12 C 0.0073(10) 0.3592(3) 0.7263(3)
C15 C 0.0969(10) 0.4024(3) 0.8484(3)
C18 C 0.1670(10) 0.3830(3) 0.8905(2)
H8 H 0.089208 0.363154 0.911175
H22 H 0.075167 0.254846 0.704369
O5 O 0.0383(6) 0.02991(19) 0.73231(16)
O1 O 0.0729(7) 0.90453(18) 0.76541(18)
O2 O 0.9617(6) 0.52991(19) 0.76769(16)
O4 O 0.7865(7) 0.4903(2) 0.82178(19)
C2 C 0.8283(9) 0.5298(3) 0.7972(2)
C7 C 0.7167(9) 0.5816(3) 0.7981(2)
C14 C 0.1210(9) 0.8114(3) 0.7802(3)
H5 H 0.028916 0.895259 0.659146
C16 C 0.7646(9) 0.6261(3) 0.7707(2)
H6 H 0.876447 0.625361 0.753257
C17 C 0.3096(10) 0.8175(3) 0.7741(3)
H7 H 0.358533 0.852463 0.766821
C24 C 0.1707(11) 0.7160(3) 0.7983(3)
H10 H 0.121361 0.681728 0.807616
C26 C 0.4275(10) 0.7739(3) 0.7784(3)
H11 H 0.556049 0.778854 0.772716
C30 C 0.4877(10) 0.6750(3) 0.7950(3)
C31 C 0.3611(10) 0.7218(3) 0.7913(3)
C33 C 0.6503(9) 0.6716(3) 0.7685(2)
H17 H 0.683081 0.701083 0.748588
C34 C 0.5560(11) 0.5845(3) 0.8262(3)
H18 H 0.524356 0.554694 0.845872
C37 C 0.0545(11) 0.7599(3) 0.7919(3)
C39 C 0.4445(12) 0.6304(3) 0.8252(3)
H24 H 0.338524 0.632336 0.844791
O1_2 O 0.9271(7) 0.40453(18) 0.73459(18)
C2_2 C 0.1717(9) 0.0298(3) 0.7028(2)
C7_2 C 0.2833(9) 0.0816(3) 0.7019(2)
C14_2 C 0.8790(9) 0.3114(3) 0.7198(3)
H5_2 H 0.971084 0.395259 0.840854
C16_2 C 0.2354(9) 0.1261(3) 0.7293(2)
H6_2 H 0.123553 0.125361 0.746743
C17_2 C 0.6904(10) 0.3175(3) 0.7259(3)
H7_2 H 0.641467 0.352463 0.733179
C24_2 C 0.8293(11) 0.2160(3) 0.7017(3)
H10_2 H 0.878639 0.181728 0.692384
C26_2 C 0.5725(10) 0.2739(3) 0.7216(3)
H11_2 H 0.443951 0.278854 0.727284
C30_2 C 0.5123(10) 0.1750(3) 0.7050(3)
C31_2 C 0.6389(10) 0.2218(3) 0.7087(3)
C33_2 C 0.3497(9) 0.1716(3) 0.7315(2)
H17_2 H 0.316919 0.201083 0.751412
C34_2 C 0.4440(11) 0.0845(3) 0.6738(3)
H18_2 H 0.475644 0.054694 0.654128
C37_2 C 0.9455(11) 0.2599(3) 0.7081(3)
C39_2 C 0.5555(12) 0.1304(3) 0.6748(3)
H24_2 H 0.661476 0.132336 0.655209
C28_2 C 0.1002(10) 0.0262(3) 0.3144(3)
H12_2 H 0.193551 0.051161 0.324004
Zn1 Zn 0.91473(10) 0.96072(3) 0.74076(3)
S1_3 S 0.3462(2) 0.88786(7) 0.53916(6)
S2_2 S 0.4463(2) 0.99270(7) 0.37082(6)
F1 F 0.5669(6) 0.72254(15) 0.44384(13)
F2 F 0.8359(5) 0.75602(16) 0.46173(13)
F3_2 F 0.4900(6) 0.77074(18) 0.33391(15)
C1 C 0.5800(10) 0.9389(3) 0.3909(2)
F4 F 0.9371(6) 0.76580(19) 0.37718(15)
F5 F 0.7307(7) 0.70209(17) 0.36579(15)
F6 F 0.7363(7) 0.81756(19) 0.31793(14)
O3_2 O 0.8231(7) 0.8527(2) 0.7761(2)
C3_2 C 0.6498(9) 0.8927(3) 0.5977(2)
C4_2 C 0.1235(8) 0.9713(3) 0.3212(2)
C5_2 C 0.6216(9) 0.9391(3) 0.6708(2)
H1_2 H 0.545220 0.957981 0.692474
C6 C 0.7533(9) 0.7534(3) 0.3812(2)
C8 C 0.5052(9) 0.8896(3) 0.3763(2)
C9_2 C 0.5771(9) 0.8752(2) 0.5529(2)
N2_2 N 0.7988(8) 0.9307(2) 0.6818(2)
C10_2 C 0.6628(9) 0.8506(3) 0.5164(2)
H2_2 H 0.789327 0.839984 0.516989
C11_2 C 0.5441(9) 0.9215(3) 0.6294(2)
H3_3 H 0.417913 0.929235 0.622684
C12_2 C 0.9927(10) 0.8592(3) 0.7737(3)
C13_2 C 0.3408(9) 0.8963(3) 0.3497(2)
H4_2 H 0.272905 0.866513 0.337124
C15_2 C 0.9031(10) 0.9024(3) 0.6516(3)
C18_2 C 0.8330(10) 0.8830(3) 0.6095(2)
H8_2 H 0.910792 0.863154 0.588825
C19 C 0.6918(9) 0.7617(3) 0.4318(2)
C20_2 C 0.2888(9) 0.9501(3) 0.3436(2)
C21 C 0.5460(9) 0.8422(3) 0.4770(2)
C22 C 0.6067(8) 0.8173(3) 0.4330(2)
C25 C 0.6399(9) 0.7955(3) 0.3537(2)
C27 C 0.5832(9) 0.8365(3) 0.3901(2)
C32 C 0.7500(10) 0.9492(3) 0.4187(3)
H14 H 0.716962 0.953110 0.451629
H15 H 0.809652 0.982803 0.407729
H16 H 0.835700 0.918416 0.414967
C35_2 C 0.3693(9) 0.8593(3) 0.4846(2)
C36_2 C 0.1991(9) 0.8537(4) 0.4541(3)
H19_2 H 0.168030 0.889302 0.440529
H20_2 H 0.094838 0.840595 0.472885
H21_2 H 0.224336 0.827511 0.428993
H22_2 H 0.924833 0.754846 0.795631
N3 N 0.6955(8) 0.9889(2) 0.77841(19)
C28_3 C 0.3998(10) 0.9738(3) 0.8144(3)
H12_3 H 0.306449 0.948839 0.824004
C38_2 C 0.5618(10) 0.9545(3) 0.7931(3)
H23_2 H 0.577991 0.916302 0.789008
N1_2 N 0.8045(8) 0.0111(2) 0.27841(19)
C38_3 C 0.9382(10) 0.0455(3) 0.2931(3)
H23_3 H 0.922009 0.083698 0.289008
Zn2 Zn 0.58527(10) 0.03928(3) 0.24076(3)
O1_3 O 0.4271(7) 0.09547(18) 0.26541(18)
O3_3 O 0.6769(7) 0.1473(2) 0.2761(2)
C3_3 C 0.8502(9) 0.1073(3) 0.0977(2)
C5_3 C 0.8784(9) 0.0609(3) 0.1708(2)
H1_3 H 0.954780 0.042019 0.192474
C9_3 C 0.9229(9) 0.1248(2) 0.0529(2)
N2_3 N 0.7012(8) 0.0693(2) 0.1818(2)
C10_3 C 0.8372(9) 0.1494(3) 0.0164(2)
H2_3 H 0.710673 0.160016 0.016989
C11_3 C 0.9559(9) 0.0785(3) 0.1294(2)
C12_3 C 0.5073(10) 0.1408(3) 0.2737(3)
C14_3 C 0.3790(9) 0.1886(3) 0.2802(3)
C15_3 C 0.5969(10) 0.0976(3) 0.1516(3)
H5_3 H 0.471084 0.104741 0.159146
C17_3 C 0.1904(10) 0.1825(3) 0.2741(3)
H7_3 H 0.141467 0.147537 0.266821
C18_3 C 0.6670(10) 0.1170(3) 0.1095(2)
H8_3 H 0.589208 0.136846 0.088825
C24_3 C 0.3293(11) 0.2840(3) 0.2983(3)
H10_3 H 0.378639 0.318272 0.307616
C26_3 C 0.0725(10) 0.2261(3) 0.2784(3)
C30_3 C 0.0123(10) 0.3250(3) 0.2950(3)
C31_3 C 0.1389(10) 0.2782(3) 0.2913(3)
C37_3 C 0.4455(11) 0.2401(3) 0.2919(3)
H22_3 H 0.575167 0.245154 0.295631
C39_3 C 0.0555(12) 0.3696(3) 0.3252(3)
H24_3 H 0.161476 0.367664 0.344791
O4_2 O 0.2865(7) 0.0097(2) 0.17822(19)
C23_2 C 0.8265(9) 0.9574(3) 0.2850(2)
H9_2 H 0.732879 0.932958 0.274633
C29_2 C 0.9838(9) 0.9366(3) 0.3068(2)
H13_2 H 0.995073 0.898372 0.311796
S1_4 S 0.1538(2) 0.11214(7) 0.03916(6)
H3_4 H 0.082087 0.070765 0.122684
S2_3 S 0.0537(2) 0.00730(7) 0.87082(6)
F3_3 F 0.0100(6) 0.22926(18) 0.83391(15)
C4_3 C 0.3765(8) 0.0287(3) 0.8212(2)
C13_3 C 0.1592(9) 0.1037(3) 0.8497(2)
H4_3 H 0.227095 0.133487 0.837124
C20_3 C 0.2112(9) 0.0499(3) 0.8436(2)
C23_3 C 0.6735(9) 0.0426(3) 0.7850(2)
H9_3 H 0.767121 0.067042 0.774633
C29_3 C 0.5162(9) 0.0634(3) 0.8068(2)
H13_3 H 0.504927 0.101628 0.811796
C35_3 C 0.1307(9) 0.1407(3) 0.9846(2)
C36_3 C 0.3009(9) 0.1463(4) 0.9541(3)
H19_3 H 0.331970 0.110698 0.940529
H20_3 H 0.405162 0.159405 0.972885
H21_3 H 0.275664 0.172489 0.928993
F1_2 F 0.9331(6) 0.27746(15) 0.94384(13)
F2_2 F 0.6641(5) 0.24398(16) 0.96173(13)
C1_2 C 0.9200(10) 0.0611(3) 0.8909(2)
F4_2 F 0.5629(6) 0.23420(19) 0.87718(15)
F5_2 F 0.7693(7) 0.29791(17) 0.86579(15)
F6_2 F 0.7637(7) 0.18244(19) 0.81793(14)
C6_2 C 0.7467(9) 0.2466(3) 0.8812(2)
C8_2 C 0.9948(9) 0.1104(3) 0.8763(2)
C19_2 C 0.8082(9) 0.2383(3) 0.9318(2)
C21_2 C 0.9540(9) 0.1578(3) 0.9770(2)
C22_2 C 0.8933(8) 0.1827(3) 0.9330(2)
C25_2 C 0.8601(9) 0.2045(3) 0.8537(2)
C27_2 C 0.9168(9) 0.1635(3) 0.8901(2)
C32_2 C 0.7500(10) 0.0508(3) 0.9187(3)
H14_2 H 0.783038 0.046890 0.951629
H15_2 H 0.690348 0.017197 0.907729
H16_2 H 0.664300 0.081584 0.914967
O5_2 O 0.4617(6) 0.97009(19) 0.23231(16)
C2_3 C 0.3283(9) 0.9702(3) 0.2028(2)
C7_3 C 0.2167(9) 0.9184(3) 0.2019(2)
C16_3 C 0.2646(9) 0.8739(3) 0.2293(2)
H6_3 H 0.376447 0.874639 0.246743
H11_3 H 0.056049 0.721146 0.227284
C33_3 C 0.1503(9) 0.8284(3) 0.2315(2)
H17_3 H 0.183081 0.798917 0.251412
C34_3 C 0.0560(11) 0.9155(3) 0.1738(3)
H18_3 H 0.024356 0.945306 0.154128
O2_2 O 0.5383(6) 0.47009(19) 0.26769(16)
O4_3 O 0.7135(7) 0.5097(2) 0.32178(19)
C2_4 C 0.6717(9) 0.4702(3) 0.2972(2)
C7_4 C 0.7833(9) 0.4184(3) 0.2981(2)
C16_4 C 0.7354(9) 0.3739(3) 0.2707(2)
H6_4 H 0.623553 0.374639 0.253257
H11_4 H 0.943951 0.221146 0.272716
C33_4 C 0.8497(9) 0.3284(3) 0.2685(2)
H17_4 H 0.816919 0.298917 0.248588
C34_4 C 0.9440(11) 0.4155(3) 0.3262(3)
H18_4 H 0.975644 0.445306 0.345872
Zn3_2 Zn 0.41473(10) 0.53928(3) 0.25924(3)
F1_3 F 0.0669(6) 0.77746(15) 0.55616(13)
F2_3 F 0.3359(5) 0.74398(16) 0.53827(13)
O1_4 O 0.5729(7) 0.59547(18) 0.23459(18)
C1_3 C 0.0800(10) 0.5611(3) 0.6091(2)
F4_3 F 0.4371(6) 0.73420(19) 0.62282(15)
F5_3 F 0.2307(7) 0.79791(17) 0.63421(15)
F6_3 F 0.2363(7) 0.68244(19) 0.68207(14)
O3_4 O 0.3231(7) 0.6473(2) 0.2239(2)
C3_4 C 0.1498(9) 0.6073(3) 0.4023(2)
C5_4 C 0.1216(9) 0.5609(3) 0.3292(2)
H1_4 H 0.045220 0.542019 0.307526
C6_3 C 0.2533(9) 0.7466(3) 0.6188(2)
C8_3 C 0.0052(9) 0.6104(3) 0.6237(2)
C9_4 C 0.0771(9) 0.6248(2) 0.4471(2)
N2_4 N 0.2988(8) 0.5693(2) 0.3182(2)
C10_4 C 0.1628(9) 0.6494(3) 0.4836(2)
H2_4 H 0.289327 0.660016 0.483011
C11_4 C 0.0441(9) 0.5785(3) 0.3706(2)
C12_4 C 0.4927(10) 0.6408(3) 0.2263(3)
C14_4 C 0.6210(9) 0.6886(3) 0.2198(3)
C15_4 C 0.4031(10) 0.5976(3) 0.3484(3)
H5_4 H 0.528916 0.604741 0.340854
C17_4 C 0.8096(10) 0.6825(3) 0.2259(3)
H7_4 H 0.858533 0.647537 0.233179
C18_4 C 0.3330(10) 0.6170(3) 0.3905(2)
H8_4 H 0.410792 0.636846 0.411175
C19_3 C 0.1918(9) 0.7383(3) 0.5682(2)
C21_3 C 0.0460(9) 0.6578(3) 0.5230(2)
C22_3 C 0.1067(8) 0.6827(3) 0.5670(2)
C24_4 C 0.6707(11) 0.7840(3) 0.2017(3)
H10_4 H 0.621361 0.818272 0.192384
C25_3 C 0.1399(9) 0.7045(3) 0.6463(2)
C26_4 C 0.9275(10) 0.7261(3) 0.2216(3)
C27_3 C 0.0832(9) 0.6635(3) 0.6099(2)
C30_4 C 0.9877(10) 0.8250(3) 0.2050(3)
C31_4 C 0.8611(10) 0.7782(3) 0.2087(3)
C32_3 C 0.2500(10) 0.5508(3) 0.5813(3)
H14_3 H 0.216962 0.546890 0.548371
H15_3 H 0.309652 0.517197 0.592271
H16_3 H 0.335700 0.581584 0.585033
C37_4 C 0.5545(11) 0.7401(3) 0.2081(3)
H22_4 H 0.424833 0.745154 0.204369
C39_4 C 0.9445(12) 0.8696(3) 0.1748(3)
H24_4 H 0.838524 0.867664 0.155209
N3_2 N 0.1955(8) 0.5111(2) 0.22159(19)
C23_4 C 0.1735(9) 0.4574(3) 0.2150(2)
H9_4 H 0.267121 0.432958 0.225367
C29_4 C 0.0162(9) 0.4366(3) 0.1932(2)
H13_4 H 0.004927 0.398372 0.188204
C38_4 C 0.0618(10) 0.5455(3) 0.2069(3)
H23_4 H 0.077991 0.583698 0.210992
S2_4 S 0.5537(2) 0.49270(7) 0.12918(6)
F1_4 F 0.4331(6) 0.22254(15) 0.05616(13)
F2_4 F 0.1641(5) 0.25602(16) 0.03827(13)
F3_4 F 0.5100(6) 0.27074(18) 0.16609(15)
C1_4 C 0.4200(10) 0.4389(3) 0.1091(2)
F4_4 F 0.0629(6) 0.26580(19) 0.12282(15)
F5_4 F 0.2693(7) 0.20209(17) 0.13421(15)
F6_4 F 0.2637(7) 0.31756(19) 0.18207(14)
C4_4 C 0.8765(8) 0.4713(3) 0.1788(2)
C6_4 C 0.2467(9) 0.2534(3) 0.1188(2)
C8_4 C 0.4948(9) 0.3896(3) 0.1237(2)
C13_4 C 0.6592(9) 0.3963(3) 0.1503(2)
H4_4 H 0.727095 0.366513 0.162876
C19_4 C 0.3082(9) 0.2617(3) 0.0682(2)
C20_4 C 0.7112(9) 0.4501(3) 0.1564(2)
C21_4 C 0.4540(9) 0.3422(3) 0.0230(2)
C22_4 C 0.3933(8) 0.3173(3) 0.0670(2)
C25_4 C 0.3601(9) 0.2955(3) 0.1463(2)
C27_4 C 0.4168(9) 0.3365(3) 0.1099(2)
C28_4 C 0.8998(10) 0.5262(3) 0.1856(3)
H12_4 H 0.806449 0.551161 0.175996
C32_4 C 0.2500(10) 0.4492(3) 0.0813(3)
H14_4 H 0.283038 0.453110 0.048371
H15_4 H 0.190348 0.482803 0.092271
H16_4 H 0.164300 0.418416 0.085033
C35_4 C 0.6307(9) 0.3593(3) 0.0154(2)
C36_4 C 0.8009(9) 0.3537(4) 0.0459(3)
H19_4 H 0.831970 0.389302 0.059471
H20_4 H 0.905162 0.340595 0.027115
H21_4 H 0.775664 0.327511 0.071007
O4_4 O 0.2135(7) 0.9903(2) 0.67822(19)
loop_
_geom_bond_atom_site_label_1
_geom_bond_atom_site_label_2
_geom_bond_site_symmetry_1
_geom_bond_site_symmetry_2
N1 C23 1_555 1_555
C4 C20 1_555 1_555
C13 H4 1_555 1_555
C20 S2 1_555 1_555
C23 H9 1_555 1_555
C28 C4 1_555 1_555
H12 C28 1_555 1_555
C29 C4 1_555 1_555
H13 C29 1_555 1_555
C35 S1 1_555 1_555
C36 C35 1_555 1_555
H19 C36 1_555 1_555
H20 C36 1_555 1_555
H21 C36 1_555 1_555
C38 N1 1_555 1_555
H23 C38 1_555 1_555
Zn3 N1 1_555 1_555
C13 C20 1_555 1_555
C23 C29 1_555 1_555
C28 C38 1_555 1_555
S1_2 C9 1_555 1_555
O3 C12 1_555 1_555
C3 C9 1_555 1_555
C5 H1 1_555 1_555
C9 C10 1_555 1_555
N2 Zn3 1_555 1_555
C10 H2 1_555 1_555
C11 C3 1_555 1_555
H3_2 C11 1_555 1_555
C15 N2 1_555 1_555
C18 C3 1_555 1_555
H8 C18 1_555 1_555
C5 N2 1_555 1_555
C5 C11 1_555 1_555
C15 C18 1_555 1_555
O2 C2 1_555 1_555
O4 C2 1_555 1_555
C2 C7 1_555 1_555
C7 C16 1_555 1_555
C14 C17 1_555 1_555
C16 H6 1_555 1_555
C17 H7 1_555 1_555
C24 H10 1_555 1_555
C26 C17 1_555 1_555
H11 C26 1_555 1_555
C30 C31 1_555 1_555
C31 C24 1_555 1_555
C33 C16 1_555 1_555
H17 C33 1_555 1_555
C34 C7 1_555 1_555
H18 C34 1_555 1_555
C37 C14 1_555 1_555
C39 C30 1_555 1_555
H24 C39 1_555 1_555
C24 C37 1_555 1_555
C26 C31 1_555 1_555
C30 C33 1_555 1_555
C34 C39 1_555 1_555
O5 C2_2 1_555 1_555
C2_2 C7_2 1_555 1_555
C7_2 C16_2 1_555 1_555
C14_2 C17_2 1_555 1_555
C16_2 H6_2 1_555 1_555
C17_2 H7_2 1_555 1_555
C24_2 H10_2 1_555 1_555
C26_2 C17_2 1_555 1_555
H11_2 C26_2 1_555 1_555
C30_2 C31_2 1_555 1_555
C31_2 C24_2 1_555 1_555
C33_2 C16_2 1_555 1_555
H17_2 C33_2 1_555 1_555
C34_2 C7_2 1_555 1_555
H18_2 C34_2 1_555 1_555
C37_2 C14_2 1_555 1_555
C39_2 C30_2 1_555 1_555
H24_2 C39_2 1_555 1_555
C24_2 C37_2 1_555 1_555
C26_2 C31_2 1_555 1_555
C30_2 C33_2 1_555 1_555
C34_2 C39_2 1_555 1_555
H12_2 C28_2 1_555 1_555
S1_3 C9_2 1_555 1_555
S2_2 C1 1_555 1_555
F1 C19 1_555 1_555
F2 C19 1_555 1_555
F3_2 C25 1_555 1_555
C1 C8 1_555 1_555
F4 C6 1_555 1_555
F5 C6 1_555 1_555
F6 C25 1_555 1_555
O3_2 C12_2 1_555 1_555
C3_2 C9_2 1_555 1_555
C4_2 C20_2 1_555 1_555
C5_2 H1_2 1_555 1_555
C6 C19 1_555 1_555
C8 C13_2 1_555 1_555
C9_2 C10_2 1_555 1_555
N2_2 Zn1 1_555 1_555
C10_2 H2_2 1_555 1_555
C11_2 C3_2 1_555 1_555
H3_3 C11_2 1_555 1_555
C13_2 H4_2 1_555 1_555
C15_2 N2_2 1_555 1_555
C18_2 C3_2 1_555 1_555
H8_2 C18_2 1_555 1_555
C19 C22 1_555 1_555
C20_2 S2_2 1_555 1_555
C21 C10_2 1_555 1_555
C22 C21 1_555 1_555
C25 C6 1_555 1_555
C27 C8 1_555 1_555
C32 C1 1_555 1_555
H14 C32 1_555 1_555
H15 C32 1_555 1_555
H16 C32 1_555 1_555
C35_2 S1_3 1_555 1_555
C36_2 C35_2 1_555 1_555
H19_2 C36_2 1_555 1_555
H20_2 C36_2 1_555 1_555
H21_2 C36_2 1_555 1_555
N3 Zn1 1_555 1_555
C5_2 N2_2 1_555 1_555
C5_2 C11_2 1_555 1_555
C13_2 C20_2 1_555 1_555
C15_2 C18_2 1_555 1_555
C21 C35_2 1_555 1_555
C22 C27 1_555 1_555
C25 C27 1_555 1_555
H12_3 C28_3 1_555 1_555
C38_2 N3 1_555 1_555
H23_2 C38_2 1_555 1_555
C28_3 C38_2 1_555 1_555
C38_3 N1_2 1_555 1_555
H23_3 C38_3 1_555 1_555
Zn2 N1_2 1_555 1_555
Zn2 O1_3 1_555 1_555
O1_3 C12_3 1_555 1_555
O3_3 C12_3 1_555 1_555
C3_3 C9_3 1_555 1_555
C5_3 H1_3 1_555 1_555
C9_3 C10_3 1_555 1_555
N2_3 Zn2 1_555 1_555
C10_3 H2_3 1_555 1_555
C11_3 C3_3 1_555 1_555
C12_3 C14_3 1_555 1_555
C14_3 C17_3 1_555 1_555
C15_3 N2_3 1_555 1_555
H5_3 C15_3 1_555 1_555
C17_3 H7_3 1_555 1_555
C18_3 C3_3 1_555 1_555
H8_3 C18_3 1_555 1_555
C24_3 H10_3 1_555 1_555
C26_3 C17_3 1_555 1_555
C30_3 C31_3 1_555 1_555
C31_3 C24_3 1_555 1_555
C37_3 C14_3 1_555 1_555
H22_3 C37_3 1_555 1_555
C39_3 C30_3 1_555 1_555
H24_3 C39_3 1_555 1_555
C5_3 N2_3 1_555 1_555
C5_3 C11_3 1_555 1_555
C15_3 C18_3 1_555 1_555
C24_3 C37_3 1_555 1_555
C26_3 C31_3 1_555 1_555
C23_2 H9_2 1_555 1_555
H13_2 C29_2 1_555 1_555
C23_2 C29_2 1_555 1_555
C4_3 C20_3 1_555 1_555
C13_3 H4_3 1_555 1_555
C20_3 S2_3 1_555 1_555
C23_3 H9_3 1_555 1_555
C29_3 C4_3 1_555 1_555
H13_3 C29_3 1_555 1_555
C36_3 C35_3 1_555 1_555
H19_3 C36_3 1_555 1_555
H20_3 C36_3 1_555 1_555
H21_3 C36_3 1_555 1_555
C13_3 C20_3 1_555 1_555
C23_3 C29_3 1_555 1_555
F1_2 C19_2 1_555 1_555
F2_2 C19_2 1_555 1_555
C1_2 C8_2 1_555 1_555
F4_2 C6_2 1_555 1_555
F5_2 C6_2 1_555 1_555
F6_2 C25_2 1_555 1_555
C6_2 C19_2 1_555 1_555
C19_2 C22_2 1_555 1_555
C22_2 C21_2 1_555 1_555
C25_2 C6_2 1_555 1_555
C27_2 C8_2 1_555 1_555
C32_2 C1_2 1_555 1_555
H14_2 C32_2 1_555 1_555
H15_2 C32_2 1_555 1_555
H16_2 C32_2 1_555 1_555
C22_2 C27_2 1_555 1_555
C25_2 C27_2 1_555 1_555
O5_2 C2_3 1_555 1_555
C2_3 C7_3 1_555 1_555
C7_3 C16_3 1_555 1_555
C16_3 H6_3 1_555 1_555
C33_3 C16_3 1_555 1_555
H17_3 C33_3 1_555 1_555
C34_3 C7_3 1_555 1_555
H18_3 C34_3 1_555 1_555
O2_2 C2_4 1_555 1_555
O4_3 C2_4 1_555 1_555
C2_4 C7_4 1_555 1_555
C7_4 C16_4 1_555 1_555
C16_4 H6_4 1_555 1_555
C33_4 C16_4 1_555 1_555
H17_4 C33_4 1_555 1_555
C34_4 C7_4 1_555 1_555
H18_4 C34_4 1_555 1_555
Zn3_2 O2_2 1_555 1_555
Zn3_2 O1_4 1_555 1_555
F1_3 C19_3 1_555 1_555
F2_3 C19_3 1_555 1_555
O1_4 C12_4 1_555 1_555
C1_3 C8_3 1_555 1_555
F4_3 C6_3 1_555 1_555
F5_3 C6_3 1_555 1_555
F6_3 C25_3 1_555 1_555
O3_4 C12_4 1_555 1_555
C3_4 C9_4 1_555 1_555
C5_4 H1_4 1_555 1_555
C6_3 C19_3 1_555 1_555
C9_4 C10_4 1_555 1_555
N2_4 Zn3_2 1_555 1_555
C10_4 H2_4 1_555 1_555
C11_4 C3_4 1_555 1_555
C12_4 C14_4 1_555 1_555
C14_4 C17_4 1_555 1_555
C15_4 N2_4 1_555 1_555
H5_4 C15_4 1_555 1_555
C17_4 H7_4 1_555 1_555
C18_4 C3_4 1_555 1_555
H8_4 C18_4 1_555 1_555
C19_3 C22_3 1_555 1_555
C21_3 C10_4 1_555 1_555
C22_3 C21_3 1_555 1_555
C24_4 H10_4 1_555 1_555
C25_3 C6_3 1_555 1_555
C26_4 C17_4 1_555 1_555
C27_3 C8_3 1_555 1_555
C30_4 C31_4 1_555 1_555
C31_4 C24_4 1_555 1_555
C32_3 C1_3 1_555 1_555
H14_3 C32_3 1_555 1_555
H15_3 C32_3 1_555 1_555
H16_3 C32_3 1_555 1_555
C37_4 C14_4 1_555 1_555
H22_4 C37_4 1_555 1_555
C39_4 C30_4 1_555 1_555
H24_4 C39_4 1_555 1_555
N3_2 Zn3_2 1_555 1_555
C5_4 N2_4 1_555 1_555
C5_4 C11_4 1_555 1_555
C15_4 C18_4 1_555 1_555
C22_3 C27_3 1_555 1_555
C24_4 C37_4 1_555 1_555
C25_3 C27_3 1_555 1_555
C26_4 C31_4 1_555 1_555
N3_2 C23_4 1_555 1_555
C23_4 H9_4 1_555 1_555
H13_4 C29_4 1_555 1_555
C38_4 N3_2 1_555 1_555
H23_4 C38_4 1_555 1_555
C23_4 C29_4 1_555 1_555
S2_4 C1_4 1_555 1_555
F1_4 C19_4 1_555 1_555
F2_4 C19_4 1_555 1_555
F3_4 C25_4 1_555 1_555
C1_4 C8_4 1_555 1_555
F4_4 C6_4 1_555 1_555
F5_4 C6_4 1_555 1_555
F6_4 C25_4 1_555 1_555
C4_4 C20_4 1_555 1_555
C6_4 C19_4 1_555 1_555
C8_4 C13_4 1_555 1_555
C13_4 H4_4 1_555 1_555
C19_4 C22_4 1_555 1_555
C20_4 S2_4 1_555 1_555
C22_4 C21_4 1_555 1_555
C25_4 C6_4 1_555 1_555
C27_4 C8_4 1_555 1_555
C28_4 C4_4 1_555 1_555
H12_4 C28_4 1_555 1_555
C32_4 C1_4 1_555 1_555
H14_4 C32_4 1_555 1_555
H15_4 C32_4 1_555 1_555
H16_4 C32_4 1_555 1_555
C36_4 C35_4 1_555 1_555
H19_4 C36_4 1_555 1_555
H20_4 C36_4 1_555 1_555
H21_4 C36_4 1_555 1_555
C13_4 C20_4 1_555 1_555
C21_4 C35_4 1_555 1_555
C22_4 C27_4 1_555 1_555
C25_4 C27_4 1_555 1_555

#END
