
###############################################################################
#
# This file contains modified crystal structure data generated from the
# MOF subset of the Cambridge Structural Database (CSD) v543 
# hosted by the Cambridge Crystallographic Data Centre (CCDC).
#
# This work is licensed under the Creative Commons
# Attribution-NonCommercial-ShareAlike 4.0 International License.
# To view a copy of this license, visit
# http://creativecommons.org/licenses/by-nc-sa/4.0/
# or send a letter to
# Creative Commons, PO Box 1866, Mountain View, CA 94042, USA.
#
# CIF created using the CSD Python API on 29 September 2022
# The structure has been converted into the P1 space group
# The structure has a 3D framework
# The original CSD entry MEGYUV is in the triclinic crystal system
# The framework has been calculated to contain at least 10.0% void space
# The void calculation uses a probe of radius 1.32A, grid spacing 0.4
#
###############################################################################

data_MEGYUV
_chemical_formula_moiety         '(C110 H72 F12 N4 O20 S4 Zn4)n'
_symmetry_cell_setting           triclinic
_symmetry_space_group_name_H-M   'P 1'
_symmetry_Int_Tables_number      1
_space_group_name_Hall           'P 1'
loop_
_symmetry_equiv_pos_site_id
_symmetry_equiv_pos_as_xyz
1 x,y,z
_cell_length_a                   13.3546(9)
_cell_length_b                   14.1369(9)
_cell_length_c                   19.6327(13)
_cell_angle_alpha                84.267(2)
_cell_angle_beta                 77.664(2)
_cell_angle_gamma                66.013(2)
_cell_volume                     3307.87
loop_
_atom_site_label
_atom_site_type_symbol
_atom_site_fract_x
_atom_site_fract_y
_atom_site_fract_z
S1 S 0.08183(6) 0.14060(5) 0.78179(4)
C1 C 0.2407(2) 0.1041(2) 0.62816(14)
H1 H 0.275110 0.097849 0.666968
N2 N 0.2611(2) 0.07540(18) 0.50721(12)
C5 C 0.3047(2) 0.0712(2) 0.56314(14)
H2 H 0.383676 0.044199 0.557965
C15 C 0.1249(2) 0.1467(2) 0.63595(14)
C21 C 0.0508(2) 0.1903(2) 0.70153(14)
C52 C 0.1498(3) 0.1121(3) 0.51557(17)
H31 H 0.117700 0.113210 0.476597
C53 C 0.0805(3) 0.1482(3) 0.57781(17)
H32 H 0.001843 0.174302 0.581317
C55 C 0.0300(3) 0.2241(4) 0.9365(2)
H34 H 0.094622 0.159408 0.922792
H35 H 0.007807 0.225993 0.987379
H36 H 0.049830 0.283055 0.919822
Zn5 Zn 0.35198(3) 0.04418(2) 0.41050(2)
O1 O 0.34079(15) 0.05768(14) 0.25271(10)
O9 O 0.24377(18) 0.13175(16) 0.35458(10)
C17 C 0.0852(3) 0.2567(2) 0.15139(17)
H9 H 0.091596 0.255177 0.102341
C24 C 0.1720(2) 0.1908(2) 0.18355(16)
H10 H 0.238153 0.143793 0.156192
C37 C 0.1633(2) 0.1927(2) 0.25493(15)
C41 C 0.0656(2) 0.2622(2) 0.29505(17)
H23 H 0.059204 0.264454 0.344048
C42 C 0.2567(2) 0.1220(2) 0.28986(14)
Zn7 Zn 0.50485(2) 0.98059(2) 0.25434(2)
O3 O 0.44840(18) 0.12015(15) 0.41209(10)
O5 O 0.53421(16) 0.08591(14) 0.30051(10)
N1 N 0.54639(19) 0.04096(18) 0.15443(12)
O6 O 0.69669(19) 0.42356(15) 0.36618(12)
O7 O 0.31857(18) 0.88233(16) 0.40973(12)
O8 O 0.47119(17) 0.91225(15) 0.37643(11)
C7 C 0.6244(3) 0.5263(2) 0.37319(15)
C14 C 0.6048(2) 0.1263(2) 0.02410(14)
C16 C 0.4444(3) 0.6672(2) 0.38023(15)
H8 H 0.366244 0.691804 0.382191
C20 C 0.6506(3) 0.3513(2) 0.36508(16)
C22 C 0.5120(2) 0.13133(19) 0.35700(14)
C25 C 0.5643(2) 0.2059(2) 0.36011(14)
C26 C 0.5931(3) 0.3247(2) 0.42543(17)
H11 H 0.583440 0.355909 0.468326
C29 C 0.5250(3) 0.1413(2) 0.14556(15)
H14 H 0.488235 0.184755 0.184881
C30 C 0.4923(2) 0.7365(2) 0.38427(14)
C31 C 0.5528(3) 0.1860(2) 0.08286(16)
H15 H 0.536293 0.258107 0.080054
C32 C 0.5494(3) 0.2518(2) 0.42290(16)
H16 H 0.509154 0.233175 0.464200
C35 C 0.6671(3) 0.3061(2) 0.30239(16)
H17 H 0.707286 0.325187 0.261241
C38 C 0.6244(3) 0.2326(2) 0.30020(16)
H20 H 0.636267 0.200223 0.257398
C40 C 0.6059(3) 0.6998(2) 0.38365(15)
H22 H 0.638837 0.747212 0.386289
C43 C 0.6719(3) 0.5948(2) 0.37925(15)
H24 H 0.749121 0.570089 0.380390
C44 C 0.4212(2) 0.8495(2) 0.39038(14)
C48 C 0.5103(3) 0.5616(2) 0.37330(16)
H26 H 0.478066 0.514304 0.368724
C54 C 0.6270(4) 0.0207(3) 0.03315(17)
O2 O 0.66485(15) 0.85626(14) 0.24708(10)
O4 O 0.52281(15) 0.83418(14) 0.22296(10)
C2 C 0.6985(2) 0.68854(19) 0.21045(13)
O10 O 0.9023(2) 0.38368(16) 0.15763(14)
C9 C 0.6247(2) 0.79863(19) 0.22811(13)
C10 C 0.7234(2) 0.5202(2) 0.17735(16)
H4 H 0.693567 0.474359 0.166075
C12 C 0.6550(2) 0.6221(2) 0.19264(15)
H7 H 0.577830 0.647048 0.191030
C19 C 0.8360(2) 0.4852(2) 0.17861(16)
C28 C 0.8116(2) 0.6513(2) 0.21262(15)
H13 H 0.841514 0.696167 0.225224
C34 C 0.9888(2) 0.3248(2) 0.19203(18)
C39 C 0.8807(2) 0.5493(2) 0.19652(17)
H21 H 0.958009 0.523862 0.197813
C46 C 0.9783(2) 0.3277(2) 0.26351(18)
H25 H 0.911656 0.374272 0.290754
C51 C 0.5967(4) 0.9824(3) 0.09810(18)
H30 H 0.612452 0.910472 0.102879
S2 S 0.66381(6) 0.10444(6) 0.88065(3)
F1 F 0.52244(16) 0.48211(16) 0.80684(13)
F2 F 0.54209(17) 0.50639(16) 0.91010(10)
F3 F 0.7567(2) 0.49240(17) 0.70172(10)
F4 F 0.66929(18) 0.60093(16) 0.86399(11)
F5 F 0.58887(17) 0.63215(15) 0.77445(13)
F6 F 0.84509(16) 0.51989(16) 0.77260(14)
C3 C 0.8962(2) 0.2950(2) 0.77964(14)
C4 C 0.6767(2) 0.2807(2) 0.86934(14)
C6 C 0.7865(2) 0.3789(2) 0.79954(14)
C8 C 0.6429(2) 0.2647(2) 0.94200(14)
H3 H 0.628091 0.313433 0.976652
C11 C 0.7208(3) 0.1880(3) 0.75121(14)
H5 H 0.731497 0.250317 0.729384
H6 H 0.657891 0.183622 0.734615
C13 C 0.6342(2) 0.1716(2) 0.95629(14)
C18 C 0.6939(2) 0.3740(2) 0.83952(14)
C23 C 0.6906(2) 0.2004(2) 0.82939(14)
C27 C 0.9499(2) 0.2730(2) 0.70872(14)
H12 H 0.918903 0.311713 0.670423
C33 C 0.9583(2) 0.2275(2) 0.82633(14)
C36 C 0.9331(3) 0.2298(3) 0.90432(15)
H18 H 0.912571 0.170905 0.922392
H19 H 0.867753 0.294413 0.919506
C45 C 0.59972(18) 0.4786(2) 0.84394(11)
C47 C 0.7639(2) 0.4859(2) 0.77060(12)
C49 C 0.8267(3) 0.0921(3) 0.72725(16)
H27 H 0.890727 0.098663 0.739880
H28 H 0.839166 0.086072 0.676556
H29 H 0.818001 0.030250 0.749989
C50 C 0.6529(2) 0.55371(18) 0.81246(14)
H33 H 0.662925 0.975525 0.994648
H33_2 H 0.337075 0.024475 0.005352
Zn2 Zn 0.49515(2) 0.01941(2) 0.74566(2)
O2_2 O 0.33515(15) 0.14374(14) 0.75292(10)
O4_2 O 0.47719(15) 0.16582(14) 0.77704(10)
C2_2 C 0.3015(2) 0.31146(19) 0.78955(13)
O10_2 O 0.0977(2) 0.61632(16) 0.84237(14)
C9_2 C 0.3753(2) 0.20137(19) 0.77189(13)
C10_2 C 0.2766(2) 0.4798(2) 0.82265(16)
H4_2 H 0.306433 0.525641 0.833925
C12_2 C 0.3450(2) 0.3779(2) 0.80736(15)
H7_2 H 0.422170 0.352952 0.808970
C19_2 C 0.1640(2) 0.5148(2) 0.82139(16)
C28_2 C 0.1884(2) 0.3487(2) 0.78738(15)
H13_2 H 0.158486 0.303833 0.774776
C34_2 C 0.0112(2) 0.6752(2) 0.80797(18)
C39_2 C 0.1193(2) 0.4507(2) 0.80348(17)
H21_2 H 0.041991 0.476138 0.802187
C46_2 C 0.0217(2) 0.6723(2) 0.73649(18)
H25_2 H 0.088344 0.625728 0.709246
C51_2 C 0.4033(4) 0.0176(3) 0.90190(18)
H30_2 H 0.387548 0.089528 0.897121
O12 O 0.68143(18) 0.11767(16) 0.59027(12)
O13 O 0.52881(17) 0.08775(15) 0.62357(11)
Zn1 Zn 0.64802(3) 0.95582(2) 0.58950(2)
O3_2 O 0.55160(18) 0.87985(15) 0.58791(10)
O5_2 O 0.46579(16) 0.91409(14) 0.69949(10)
N1_2 N 0.45361(19) 0.95904(18) 0.84557(12)
O6_2 O 0.30331(19) 0.57644(15) 0.63382(12)
C7_2 C 0.3756(3) 0.4737(2) 0.62681(15)
C14_2 C 0.3952(2) 0.8737(2) 0.97590(14)
C16_2 C 0.5556(3) 0.3328(2) 0.61977(15)
H8_2 H 0.633756 0.308196 0.617809
C20_2 C 0.3494(3) 0.6487(2) 0.63492(16)
C22_2 C 0.4880(2) 0.86867(19) 0.64300(14)
C25_2 C 0.4357(2) 0.7941(2) 0.63989(14)
C26_2 C 0.4069(3) 0.6753(2) 0.57457(17)
H11_2 H 0.416560 0.644091 0.531674
C29_2 C 0.4750(3) 0.8587(2) 0.85444(15)
H14_2 H 0.511765 0.815245 0.815119
C30_2 C 0.5077(2) 0.2635(2) 0.61573(14)
C31_2 C 0.4472(3) 0.8140(2) 0.91714(16)
H15_2 H 0.463707 0.741893 0.919946
C32_2 C 0.4506(3) 0.7482(2) 0.57710(16)
H16_2 H 0.490846 0.766825 0.535800
C35_2 C 0.3329(3) 0.6939(2) 0.69761(16)
H17_2 H 0.292714 0.674813 0.738759
C38_2 C 0.3756(3) 0.7674(2) 0.69980(16)
H20_2 H 0.363733 0.799777 0.742602
C40_2 C 0.3941(3) 0.3002(2) 0.61635(15)
H22_2 H 0.361163 0.252788 0.613711
C43_2 C 0.3281(3) 0.4052(2) 0.62075(15)
H24_2 H 0.250879 0.429911 0.619610
C44_2 C 0.5788(2) 0.1505(2) 0.60962(14)
C48_2 C 0.4897(3) 0.4384(2) 0.62670(16)
H26_2 H 0.521934 0.485696 0.631276
C54_2 C 0.3730(4) 0.9793(3) 0.96685(17)
O11 O 0.65921(15) 0.94232(14) 0.74729(10)
O14 O 0.75623(18) 0.86825(16) 0.64542(10)
N3 N 0.7389(2) 0.92460(18) 0.49279(12)
C17_2 C 0.9148(3) 0.7433(2) 0.84861(17)
H9_2 H 0.908404 0.744823 0.897659
C24_2 C 0.8280(2) 0.8092(2) 0.81645(16)
H10_2 H 0.761847 0.856207 0.843808
C37_2 C 0.8367(2) 0.8073(2) 0.74507(15)
C41_2 C 0.9344(2) 0.7378(2) 0.70495(17)
H23_2 H 0.940796 0.735546 0.655952
C42_2 C 0.7433(2) 0.8780(2) 0.71014(14)
S1_2 S 0.91817(6) 0.85940(5) 0.21821(4)
C1_2 C 0.7593(2) 0.8959(2) 0.37184(14)
H1_2 H 0.724890 0.902151 0.333032
C5_2 C 0.6953(2) 0.9288(2) 0.43686(14)
H2_2 H 0.616324 0.955801 0.442035
C15_2 C 0.8751(2) 0.8533(2) 0.36405(14)
C21_2 C 0.9492(2) 0.8097(2) 0.29847(14)
C52_2 C 0.8502(3) 0.8879(3) 0.48443(17)
H31_2 H 0.882300 0.886790 0.523403
C53_2 C 0.9195(3) 0.8518(3) 0.42219(17)
H32_2 H 0.998157 0.825698 0.418683
C55_2 C 0.9700(3) 0.7759(4) 0.0635(2)
H34_2 H 0.905378 0.840592 0.077208
H35_2 H 0.992193 0.774007 0.012621
H36_2 H 0.950170 0.716945 0.080178
S2_2 S 0.33619(6) 0.89556(6) 0.11935(3)
F1_2 F 0.47756(16) 0.51789(16) 0.19316(13)
F2_2 F 0.45791(17) 0.49361(16) 0.08990(10)
F3_2 F 0.2433(2) 0.50760(17) 0.29828(10)
F4_2 F 0.33071(18) 0.39907(16) 0.13601(11)
F5_2 F 0.41113(17) 0.36785(15) 0.22555(13)
F6_2 F 0.15491(16) 0.48011(16) 0.22740(14)
C3_2 C 0.1038(2) 0.7050(2) 0.22036(14)
C4_2 C 0.3233(2) 0.7193(2) 0.13066(14)
C6_2 C 0.2135(2) 0.6211(2) 0.20046(14)
C8_2 C 0.3571(2) 0.7353(2) 0.05800(14)
H3_2 H 0.371909 0.686567 0.023348
C11_2 C 0.2792(3) 0.8120(3) 0.24879(14)
H5_2 H 0.268503 0.749683 0.270616
H6_2 H 0.342109 0.816378 0.265385
C13_2 C 0.3658(2) 0.8284(2) 0.04371(14)
C18_2 C 0.3061(2) 0.6260(2) 0.16048(14)
C23_2 C 0.3094(2) 0.7996(2) 0.17061(14)
C27_2 C 0.0501(2) 0.7270(2) 0.29128(14)
H12_2 H 0.081097 0.688287 0.329577
C33_2 C 0.0417(2) 0.7725(2) 0.17367(14)
C36_2 C 0.0669(3) 0.7702(3) 0.09568(15)
H18_2 H 0.087429 0.829095 0.077608
H19_2 H 0.132247 0.705587 0.080494
C45_2 C 0.40028(18) 0.5214(2) 0.15606(11)
C47_2 C 0.2361(2) 0.5141(2) 0.22940(12)
C49_2 C 0.1733(3) 0.9079(3) 0.27275(16)
H27_2 H 0.109273 0.901337 0.260120
H28_2 H 0.160834 0.913928 0.323444
H29_2 H 0.181999 0.969750 0.250011
C50_2 C 0.3471(2) 0.44629(18) 0.18754(14)
loop_
_geom_bond_atom_site_label_1
_geom_bond_atom_site_label_2
_geom_bond_site_symmetry_1
_geom_bond_site_symmetry_2
S1 C21 1_555 1_555
C1 H1 1_555 1_555
N2 C5 1_555 1_555
C5 C1 1_555 1_555
H2 C5 1_555 1_555
C15 C1 1_555 1_555
C21 C15 1_555 1_555
C52 N2 1_555 1_555
H31 C52 1_555 1_555
C53 C15 1_555 1_555
H32 C53 1_555 1_555
H34 C55 1_555 1_555
H35 C55 1_555 1_555
H36 C55 1_555 1_555
Zn5 N2 1_555 1_555
C52 C53 1_555 1_555
O1 C42 1_555 1_555
O9 C42 1_555 1_555
C17 H9 1_555 1_555
C24 C17 1_555 1_555
H10 C24 1_555 1_555
C37 C24 1_555 1_555
C41 C37 1_555 1_555
H23 C41 1_555 1_555
C42 C37 1_555 1_555
Zn5 O9 1_555 1_555
Zn5 O3 1_555 1_555
O3 C22 1_555 1_555
O6 C7 1_555 1_555
O7 C44 1_555 1_555
O8 C44 1_555 1_555
C7 C43 1_555 1_555
C16 H8 1_555 1_555
C20 O6 1_555 1_555
C22 O5 1_555 1_555
C25 C22 1_555 1_555
C26 C20 1_555 1_555
H11 C26 1_555 1_555
C29 N1 1_555 1_555
H14 C29 1_555 1_555
C30 C16 1_555 1_555
C31 C14 1_555 1_555
H15 C31 1_555 1_555
C32 C25 1_555 1_555
H16 C32 1_555 1_555
C35 C20 1_555 1_555
H17 C35 1_555 1_555
C38 C25 1_555 1_555
H20 C38 1_555 1_555
C40 C30 1_555 1_555
H22 C40 1_555 1_555
C43 C40 1_555 1_555
H24 C43 1_555 1_555
C44 C30 1_555 1_555
C48 C7 1_555 1_555
H26 C48 1_555 1_555
C54 C14 1_555 1_555
Zn7 O8 1_555 1_555
C16 C48 1_555 1_555
C26 C32 1_555 1_555
C29 C31 1_555 1_555
C35 C38 1_555 1_555
Zn7 O2 1_555 1_555
O2 C9 1_555 1_555
O4 Zn7 1_555 1_555
C2 C9 1_555 1_555
O10 C19 1_555 1_555
C9 O4 1_555 1_555
C10 H4 1_555 1_555
C12 C2 1_555 1_555
H7 C12 1_555 1_555
C19 C10 1_555 1_555
C28 C2 1_555 1_555
H13 C28 1_555 1_555
C34 O10 1_555 1_555
C39 C19 1_555 1_555
H21 C39 1_555 1_555
C46 C34 1_555 1_555
H25 C46 1_555 1_555
H30 C51 1_555 1_555
C10 C12 1_555 1_555
C28 C39 1_555 1_555
S2 C13 1_555 1_555
F1 C45 1_555 1_555
F2 C45 1_555 1_555
F3 C47 1_555 1_555
F4 C50 1_555 1_555
F5 C50 1_555 1_555
F6 C47 1_555 1_555
C3 C6 1_555 1_555
C4 C8 1_555 1_555
C6 C18 1_555 1_555
C8 H3 1_555 1_555
C11 H5 1_555 1_555
H6 C11 1_555 1_555
C13 C8 1_555 1_555
C18 C4 1_555 1_555
C23 S2 1_555 1_555
C27 C3 1_555 1_555
H12 C27 1_555 1_555
C36 C33 1_555 1_555
H18 C36 1_555 1_555
H19 C36 1_555 1_555
C45 C18 1_555 1_555
C47 C6 1_555 1_555
C49 C11 1_555 1_555
H27 C49 1_555 1_555
H28 C49 1_555 1_555
H29 C49 1_555 1_555
C50 C45 1_555 1_555
C3 C33 1_555 1_555
C4 C23 1_555 1_555
C11 C23 1_555 1_555
C47 C50 1_555 1_555
Zn2 O2_2 1_555 1_555
O2_2 C9_2 1_555 1_555
O4_2 Zn2 1_555 1_555
C2_2 C9_2 1_555 1_555
O10_2 C19_2 1_555 1_555
C9_2 O4_2 1_555 1_555
C10_2 H4_2 1_555 1_555
C12_2 C2_2 1_555 1_555
H7_2 C12_2 1_555 1_555
C19_2 C10_2 1_555 1_555
C28_2 C2_2 1_555 1_555
H13_2 C28_2 1_555 1_555
C34_2 O10_2 1_555 1_555
C39_2 C19_2 1_555 1_555
H21_2 C39_2 1_555 1_555
C46_2 C34_2 1_555 1_555
H25_2 C46_2 1_555 1_555
H30_2 C51_2 1_555 1_555
Zn2 O13 1_555 1_555
C10_2 C12_2 1_555 1_555
C28_2 C39_2 1_555 1_555
Zn1 O3_2 1_555 1_555
O3_2 C22_2 1_555 1_555
O6_2 C7_2 1_555 1_555
O12 C44_2 1_555 1_555
O13 C44_2 1_555 1_555
C7_2 C43_2 1_555 1_555
C16_2 H8_2 1_555 1_555
C20_2 O6_2 1_555 1_555
C22_2 O5_2 1_555 1_555
C25_2 C22_2 1_555 1_555
C26_2 C20_2 1_555 1_555
H11_2 C26_2 1_555 1_555
C29_2 N1_2 1_555 1_555
H14_2 C29_2 1_555 1_555
C30_2 C16_2 1_555 1_555
C31_2 C14_2 1_555 1_555
H15_2 C31_2 1_555 1_555
C32_2 C25_2 1_555 1_555
H16_2 C32_2 1_555 1_555
C35_2 C20_2 1_555 1_555
H17_2 C35_2 1_555 1_555
C38_2 C25_2 1_555 1_555
H20_2 C38_2 1_555 1_555
C40_2 C30_2 1_555 1_555
H22_2 C40_2 1_555 1_555
C43_2 C40_2 1_555 1_555
H24_2 C43_2 1_555 1_555
C44_2 C30_2 1_555 1_555
C48_2 C7_2 1_555 1_555
H26_2 C48_2 1_555 1_555
C54_2 C14_2 1_555 1_555
O14 Zn1 1_555 1_555
N3 Zn1 1_555 1_555
C16_2 C48_2 1_555 1_555
C26_2 C32_2 1_555 1_555
C29_2 C31_2 1_555 1_555
C35_2 C38_2 1_555 1_555
O11 C42_2 1_555 1_555
O14 C42_2 1_555 1_555
C17_2 H9_2 1_555 1_555
C24_2 C17_2 1_555 1_555
H10_2 C24_2 1_555 1_555
C37_2 C24_2 1_555 1_555
C41_2 C37_2 1_555 1_555
H23_2 C41_2 1_555 1_555
C42_2 C37_2 1_555 1_555
S1_2 C21_2 1_555 1_555
C1_2 H1_2 1_555 1_555
N3 C5_2 1_555 1_555
C5_2 C1_2 1_555 1_555
H2_2 C5_2 1_555 1_555
C15_2 C1_2 1_555 1_555
C21_2 C15_2 1_555 1_555
C52_2 N3 1_555 1_555
H31_2 C52_2 1_555 1_555
C53_2 C15_2 1_555 1_555
H32_2 C53_2 1_555 1_555
H34_2 C55_2 1_555 1_555
H35_2 C55_2 1_555 1_555
H36_2 C55_2 1_555 1_555
C52_2 C53_2 1_555 1_555
S2_2 C13_2 1_555 1_555
F1_2 C45_2 1_555 1_555
F2_2 C45_2 1_555 1_555
F3_2 C47_2 1_555 1_555
F4_2 C50_2 1_555 1_555
F5_2 C50_2 1_555 1_555
F6_2 C47_2 1_555 1_555
C3_2 C6_2 1_555 1_555
C4_2 C8_2 1_555 1_555
C6_2 C18_2 1_555 1_555
C8_2 H3_2 1_555 1_555
C11_2 H5_2 1_555 1_555
H6_2 C11_2 1_555 1_555
C13_2 C8_2 1_555 1_555
C18_2 C4_2 1_555 1_555
C23_2 S2_2 1_555 1_555
C27_2 C3_2 1_555 1_555
H12_2 C27_2 1_555 1_555
C36_2 C33_2 1_555 1_555
H18_2 C36_2 1_555 1_555
H19_2 C36_2 1_555 1_555
C45_2 C18_2 1_555 1_555
C47_2 C6_2 1_555 1_555
C49_2 C11_2 1_555 1_555
H27_2 C49_2 1_555 1_555
H28_2 C49_2 1_555 1_555
H29_2 C49_2 1_555 1_555
C50_2 C45_2 1_555 1_555
C3_2 C33_2 1_555 1_555
C4_2 C23_2 1_555 1_555
C11_2 C23_2 1_555 1_555
C47_2 C50_2 1_555 1_555

#END
