
###############################################################################
#
# This file contains modified crystal structure data generated from the
# MOF subset of the Cambridge Structural Database (CSD) v543 
# hosted by the Cambridge Crystallographic Data Centre (CCDC).
#
# This work is licensed under the Creative Commons
# Attribution-NonCommercial-ShareAlike 4.0 International License.
# To view a copy of this license, visit
# http://creativecommons.org/licenses/by-nc-sa/4.0/
# or send a letter to
# Creative Commons, PO Box 1866, Mountain View, CA 94042, USA.
#
# CIF created using the CSD Python API on 29 September 2022
# The structure has been converted into the P1 space group
# The structure has a 3D framework
# The original CSD entry MEJQOJ is in the orthorhombic crystal system
# The framework has been calculated to contain at least 10.0% void space
# The void calculation uses a probe of radius 1.32A, grid spacing 0.4
#
###############################################################################

data_MEJQOJ
_chemical_formula_moiety         '(C44 H32 N24 O8 Zn4)n'
_symmetry_cell_setting           triclinic
_symmetry_space_group_name_H-M   'P 1'
_symmetry_Int_Tables_number      1
_space_group_name_Hall           'P 1'
loop_
_symmetry_equiv_pos_site_id
_symmetry_equiv_pos_as_xyz
1 x,y,z
_cell_length_a                   18.4474(7)
_cell_length_b                   10.6981(6)
_cell_length_c                   8.9454(4)
_cell_angle_alpha                90
_cell_angle_beta                 90
_cell_angle_gamma                90
_cell_volume                     1765.39
loop_
_atom_site_label
_atom_site_type_symbol
_atom_site_fract_x
_atom_site_fract_y
_atom_site_fract_z
H1 H 0.4720 0.0420 0.1730
N6 N 0.1713(2) 0.3547(5) 0.2885(6)
C6 C 0.3052(3) 0.0777(6) 0.0793(7)
C7 C 0.2619(3) 0.3001(6) 0.1114(7)
H5 H 0.2938 0.3256 0.0368
C8 C 0.2594(3) 0.1778(6) 0.1525(6)
C9 C 0.2176(3) 0.3861(6) 0.1795(7)
H6 H 0.2198 0.4690 0.1488
C10 C 0.1705(3) 0.2359(6) 0.3342(6)
H7 H 0.1397 0.2139 0.4123
C11 C 0.2129(3) 0.1449(6) 0.2710(7)
H8 H 0.2111 0.0630 0.3058
Zn2 Zn 0.60247(2) 0.01460(5) 0.36833(10)
Zn3 Zn 0.10247(2) 0.48540(5) 0.36833(10)
O1 O 0.33892(18) 0.1164(4) 0.9614(5)
N7 N 0.4394(2) 0.0643(5) 0.6824(5)
C1 C 0.4990(4) 0.9802(6) 0.1255(10)
N3 N 0.5606(2) 0.9357(5) 0.1824(5)
C3 C 0.6410(3) 0.7620(6) 0.0669(7)
C4 C 0.5816(3) 0.8464(6) 0.0780(6)
N5 N 0.6936(2) 0.7524(6) 0.1699(6)
H3 H 0.7283 0.6998 0.1575
H4 H 0.6926 0.7989 0.2483
O2 O 0.3081(2) 0.9726(4) 0.1288(5)
Zn1 Zn 0.39753(2) 0.98540(5) 0.86833(10)
N1 N 0.4784(2) 0.9292(5) 0.9939(5)
N2 N 0.5343(2) 0.7692(5) 0.8393(5)
C2 C 0.5921(3) 0.6959(6) 0.8442(8)
H2 H 0.5969 0.6414 0.7638
N4 N 0.6450(2) 0.6879(5) 0.9473(6)
C5 C 0.5316(2) 0.8436(5) 0.9643(7)
N8 N 0.3287(2) 0.8547(5) 0.7885(6)
C1_2 C 0.5010(4) 0.0198(6) 0.6255(10)
N1_2 N 0.5216(2) 0.0708(5) 0.4939(5)
N2_2 N 0.4657(2) 0.2308(5) 0.3393(5)
C2_2 C 0.4079(3) 0.3041(6) 0.3442(8)
H2_2 H 0.4031 0.3586 0.2638
C3_2 C 0.3590(3) 0.2380(6) 0.5669(7)
N4_2 N 0.3550(2) 0.3121(5) 0.4473(6)
C4_2 C 0.4184(3) 0.1536(6) 0.5780(6)
C5_2 C 0.4684(2) 0.1564(5) 0.4643(7)
N5_2 N 0.3064(2) 0.2476(6) 0.6699(6)
H3_2 H 0.2717 0.3002 0.6575
H4_2 H 0.3074 0.2011 0.7483
O2_2 O 0.6919(2) 0.0274(4) 0.6288(5)
N8_2 N 0.6713(2) 0.1453(5) 0.2885(6)
H1_2 H 0.5280 0.9580 0.6730
O1_2 O 0.66108(18) 0.8836(4) 0.4614(5)
N6_2 N 0.8287(2) 0.6453(5) 0.7885(6)
C6_2 C 0.6948(3) 0.9223(6) 0.5793(7)
C7_2 C 0.7381(3) 0.6999(6) 0.6114(7)
H5_2 H 0.7062 0.6744 0.5368
C8_2 C 0.7406(3) 0.8222(6) 0.6525(6)
C9_2 C 0.7824(3) 0.6139(6) 0.6795(7)
H6_2 H 0.7802 0.5310 0.6488
C10_2 C 0.8295(3) 0.7641(6) 0.8342(6)
H7_2 H 0.8603 0.7861 0.9123
C11_2 C 0.7871(3) 0.8551(6) 0.7710(7)
H8_2 H 0.7889 0.9370 0.8058
Zn3_2 Zn 0.89753(2) 0.51460(5) 0.86833(10)
N3_2 N 0.0606(2) 0.5643(5) 0.1824(5)
C3_3 C 0.1410(3) 0.7380(6) 0.0669(7)
C4_3 C 0.0816(3) 0.6536(6) 0.0780(6)
N5_3 N 0.1936(2) 0.7476(6) 0.1699(6)
H3_3 H 0.2283 0.8002 0.1575
H4_3 H 0.1926 0.7011 0.2483
C1_3 C 0.9990(4) 0.5198(6) 0.1255(10)
H1_3 H 0.9720 0.4580 0.1730
O2_3 O 0.8081(2) 0.5274(4) 0.1288(5)
C6_3 C 0.8052(3) 0.4223(6) 0.0793(7)
C7_3 C 0.7619(3) 0.1999(6) 0.1114(7)
H5_3 H 0.7938 0.1744 0.0368
C8_3 C 0.7594(3) 0.3222(6) 0.1525(6)
C9_3 C 0.7176(3) 0.1139(6) 0.1795(7)
H6_3 H 0.7198 0.0310 0.1488
C10_3 C 0.6705(3) 0.2641(6) 0.3342(6)
H7_3 H 0.6397 0.2861 0.4123
C11_3 C 0.7129(3) 0.3551(6) 0.2710(7)
H8_3 H 0.7111 0.4370 0.3058
N1_3 N 0.9784(2) 0.5708(5) 0.9939(5)
O1_3 O 0.83892(18) 0.3836(4) 0.9614(5)
N7_2 N 0.9394(2) 0.4357(5) 0.6824(5)
C1_4 C 0.0010(4) 0.4802(6) 0.6255(10)
H1_4 H 0.0280 0.5420 0.6730
N1_4 N 0.0216(2) 0.4292(5) 0.4939(5)
O1_4 O 0.16108(18) 0.6164(4) 0.4614(5)
O2_4 O 0.1919(2) 0.4726(4) 0.6288(5)
C6_4 C 0.1948(3) 0.5777(6) 0.5793(7)
C7_4 C 0.2381(3) 0.8001(6) 0.6114(7)
H5_4 H 0.2062 0.8256 0.5368
C8_4 C 0.2406(3) 0.6778(6) 0.6525(6)
C9_4 C 0.2824(3) 0.8861(6) 0.6795(7)
H6_4 H 0.2802 0.9690 0.6488
C10_4 C 0.3295(3) 0.7359(6) 0.8342(6)
H7_4 H 0.3603 0.7139 0.9123
C11_4 C 0.2871(3) 0.6449(6) 0.7710(7)
H8_4 H 0.2889 0.5630 0.8058
N2_3 N 0.9657(2) 0.2692(5) 0.3393(5)
C2_3 C 0.9079(3) 0.1959(6) 0.3442(8)
H2_3 H 0.9031 0.1414 0.2638
C3_4 C 0.8590(3) 0.2620(6) 0.5669(7)
N4_3 N 0.8550(2) 0.1879(5) 0.4473(6)
C4_4 C 0.9184(3) 0.3464(6) 0.5780(6)
C5_3 C 0.9684(2) 0.3436(5) 0.4643(7)
N5_4 N 0.8064(2) 0.2524(6) 0.6699(6)
H3_4 H 0.7717 0.1998 0.6575
H4_4 H 0.8074 0.2989 0.7483
N2_4 N 0.0343(2) 0.7308(5) 0.8393(5)
C2_4 C 0.0921(3) 0.8041(6) 0.8442(8)
H2_4 H 0.0969 0.8586 0.7638
N4_4 N 0.1450(2) 0.8121(5) 0.9473(6)
C5_4 C 0.0316(2) 0.6564(5) 0.9643(7)
loop_
_geom_bond_atom_site_label_1
_geom_bond_atom_site_label_2
_geom_bond_site_symmetry_1
_geom_bond_site_symmetry_2
N6 C9 1_555 1_555
C7 H5 1_555 1_555
C8 C6 1_555 1_555
C9 C7 1_555 1_555
H6 C9 1_555 1_555
C10 N6 1_555 1_555
H7 C10 1_555 1_555
C11 C8 1_555 1_555
H8 C11 1_555 1_555
Zn3 N6 1_555 1_555
C7 C8 1_555 1_555
C10 C11 1_555 1_555
N3 C1 1_555 1_555
C4 N3 1_555 1_555
N5 C3 1_555 1_555
H3 N5 1_555 1_555
H4 N5 1_555 1_555
C3 C4 1_555 1_555
Zn1 N1 1_555 1_555
N2 C2 1_555 1_555
C2 H2 1_555 1_555
N4 C2 1_555 1_555
C5 N1 1_555 1_555
N8 Zn1 1_555 1_555
N2 C5 1_555 1_555
Zn2 N1_2 1_555 1_555
N1_2 C1_2 1_555 1_555
N2_2 C2_2 1_555 1_555
C2_2 H2_2 1_555 1_555
N7 C1_2 1_555 1_555
C3_2 N4_2 1_555 1_555
N4_2 C2_2 1_555 1_555
C4_2 N7 1_555 1_555
C5_2 N1_2 1_555 1_555
N5_2 C3_2 1_555 1_555
H3_2 N5_2 1_555 1_555
H4_2 N5_2 1_555 1_555
N8_2 Zn2 1_555 1_555
N2_2 C5_2 1_555 1_555
C3_2 C4_2 1_555 1_555
C4_2 C5_2 1_555 1_555
N6_2 C9_2 1_555 1_555
C6_2 O1_2 1_555 1_555
C7_2 H5_2 1_555 1_555
C8_2 C6_2 1_555 1_555
C9_2 C7_2 1_555 1_555
H6_2 C9_2 1_555 1_555
C10_2 N6_2 1_555 1_555
H7_2 C10_2 1_555 1_555
C11_2 C8_2 1_555 1_555
H8_2 C11_2 1_555 1_555
Zn3_2 N6_2 1_555 1_555
C7_2 C8_2 1_555 1_555
C10_2 C11_2 1_555 1_555
C4_3 N3_2 1_555 1_555
N5_3 C3_3 1_555 1_555
H3_3 N5_3 1_555 1_555
H4_3 N5_3 1_555 1_555
Zn3 N3_2 1_555 1_555
C3_3 C4_3 1_555 1_555
C1_3 H1_3 1_555 1_555
N8_2 C9_3 1_555 1_555
O2_3 C6_3 1_555 1_555
C7_3 H5_3 1_555 1_555
C8_3 C6_3 1_555 1_555
C9_3 C7_3 1_555 1_555
H6_3 C9_3 1_555 1_555
C10_3 N8_2 1_555 1_555
H7_3 C10_3 1_555 1_555
C11_3 C8_3 1_555 1_555
H8_3 C11_3 1_555 1_555
C7_3 C8_3 1_555 1_555
C10_3 C11_3 1_555 1_555
Zn3_2 N1_3 1_555 1_555
O1_3 Zn3_2 1_555 1_555
N7_2 Zn3_2 1_555 1_555
Zn3 N1_4 1_555 1_555
C1_4 H1_4 1_555 1_555
N1_4 C1_4 1_555 1_555
O1_4 Zn3 1_555 1_555
N8 C9_4 1_555 1_555
O2_4 C6_4 1_555 1_555
C6_4 O1_4 1_555 1_555
C7_4 H5_4 1_555 1_555
C8_4 C6_4 1_555 1_555
C9_4 C7_4 1_555 1_555
H6_4 C9_4 1_555 1_555
C10_4 N8 1_555 1_555
H7_4 C10_4 1_555 1_555
C11_4 C8_4 1_555 1_555
H8_4 C11_4 1_555 1_555
C7_4 C8_4 1_555 1_555
C10_4 C11_4 1_555 1_555
N2_3 C2_3 1_555 1_555
C2_3 H2_3 1_555 1_555
C3_4 N4_3 1_555 1_555
N4_3 C2_3 1_555 1_555
C4_4 N7_2 1_555 1_555
N5_4 C3_4 1_555 1_555
H3_4 N5_4 1_555 1_555
H4_4 N5_4 1_555 1_555
N2_3 C5_3 1_555 1_555
C3_4 C4_4 1_555 1_555
C4_4 C5_3 1_555 1_555
N2_4 C2_4 1_555 1_555
C2_4 H2_4 1_555 1_555
N4_4 C2_4 1_555 1_555
N2_4 C5_4 1_555 1_555

#END
