
###############################################################################
#
# This file contains modified crystal structure data generated from the
# MOF subset of the Cambridge Structural Database (CSD) v543 
# hosted by the Cambridge Crystallographic Data Centre (CCDC).
#
# This work is licensed under the Creative Commons
# Attribution-NonCommercial-ShareAlike 4.0 International License.
# To view a copy of this license, visit
# http://creativecommons.org/licenses/by-nc-sa/4.0/
# or send a letter to
# Creative Commons, PO Box 1866, Mountain View, CA 94042, USA.
#
# CIF created using the CSD Python API on 29 September 2022
# The structure has been converted into the P1 space group
# The structure has a 3D framework
# The original CSD entry MEJZEI is in the triclinic crystal system
# The framework has been calculated to contain at least 10.0% void space
# The void calculation uses a probe of radius 1.32A, grid spacing 0.4
#
###############################################################################

data_MEJZEI
_chemical_formula_moiety         '(C74 H94 La6 N6 O42 P6)n'
_symmetry_cell_setting           triclinic
_symmetry_space_group_name_H-M   'P 1'
_symmetry_Int_Tables_number      1
_space_group_name_Hall           'P 1'
loop_
_symmetry_equiv_pos_site_id
_symmetry_equiv_pos_as_xyz
1 x,y,z
_cell_length_a                   15.2688(15)
_cell_length_b                   15.3552(16)
_cell_length_c                   15.403(3)
_cell_angle_alpha                106.787(2)
_cell_angle_beta                 117.059(2)
_cell_angle_gamma                103.195(1)
_cell_volume                     2791.62
loop_
_atom_site_label
_atom_site_type_symbol
_atom_site_fract_x
_atom_site_fract_y
_atom_site_fract_z
La1 La 0.05702(5) 0.19746(4) 0.36576(5)
La2 La 0.32161(5) 0.18393(4) 0.61665(5)
P1 P 0.1259(2) 0.0168(2) 0.3090(2)
P2 P 0.1967(2) 0.3066(2) 0.6756(2)
O1 O 0.0236(7) 0.0253(7) 0.2338(8)
O2 O 0.1867(7) 0.1083(7) 0.4215(8)
O4 O 0.7125(8) 0.0967(7) 0.4612(8)
O6 O 0.2792(7) 0.2777(7) 0.7498(8)
O7 O 0.1753(7) 0.2560(7) 0.5624(8)
O8 O 0.0969(7) 0.2926(7) 0.6772(8)
O9 O 0.1304(8) 0.7432(7) 0.5311(8)
O20 O 0.5930(8) 0.6388(7) 0.3593(8)
O21 O 0.5561(8) 0.7507(7) 0.4442(8)
O22 O 0.2020(8) 0.2588(7) 0.3243(8)
O23 O 0.1839(8) 0.3754(7) 0.4278(8)
N1 N 0.3210(7) 0.0403(7) 0.3233(8)
H4 H 0.3376 0.0549 0.3914
N2 N 0.2116(7) 0.4865(7) 0.6638(8)
H5 H 0.1587 0.4378 0.5958
C1 C 0.2112(9) 0.0405(10) 0.2585(10)
H8 H 0.2221 0.1051 0.2582
C2 C 0.4050(9) 0.1183(9) 0.3319(11)
H9 H 0.4049 0.1829 0.3631
H10 H 0.3891 0.1044 0.2594
C3 C 0.5173(10) 0.1227(9) 0.4035(11)
H11 H 0.5706 0.1727 0.4050
H12 H 0.5360 0.1431 0.4777
C4 C 0.5210(9) 0.0222(9) 0.3617(11)
H13 H 0.5085 0.0071 0.2896
C7 C 0.6308(9) 0.0247(8) 0.4332(10)
C8 C 0.2752(9) 0.4406(8) 0.7279(10)
H18 H 0.2993 0.4756 0.8036
H19 H 0.3391 0.4496 0.7258
C9 C 0.1594(10) 0.5308(9) 0.7168(10)
H20 H 0.2151 0.5815 0.7913
H21 H 0.1123 0.4786 0.7193
C10 C 0.0935(9) 0.5776(9) 0.6532(10)
H22 H 0.0308 0.5246 0.5831
H23 H 0.0674 0.6114 0.6931
C11 C 0.1572(9) 0.6512(9) 0.6344(10)
H24 H 0.2142 0.7076 0.7065
C12 C 0.2145(9) 0.6072(9) 0.5868(10)
H25 H 0.1611 0.5546 0.5126
H26 H 0.2620 0.6591 0.5844
C13 C 0.2806(9) 0.5642(9) 0.6558(10)
H27 H 0.3150 0.5352 0.6232
H28 H 0.3373 0.6177 0.7285
C14 C 0.0900(9) 0.6947(9) 0.5658(10)
C30 C 0.5411(11) 0.6630(9) 0.3998(11)
C31 C 0.4618(10) 0.5821(9) 0.3951(11)
C32 C 0.4493(10) 0.4814(9) 0.3536(11)
H44 H 0.4914 0.4648 0.3288
C33 C 0.3738(10) 0.4082(9) 0.3504(11)
H45 H 0.3689 0.3433 0.3269
C34 C 0.3062(10) 0.4279(9) 0.3805(11)
C35 C 0.3163(11) 0.5273(9) 0.4181(11)
H46 H 0.2713 0.5424 0.4393
C36 C 0.3921(10) 0.6030(9) 0.4240(11)
H47 H 0.3963 0.6678 0.4473
C37 C 0.2262(10) 0.3502(9) 0.3777(11)
La8 La 0.67839(5) 0.81607(4) 0.38335(5)
La9 La 0.91512(5) 0.14639(5) 0.56324(5)
La11 La 0.08488(5) 0.85361(5) 0.43676(5)
O26 O 0.3647(7) 0.0447(7) 0.5392(8)
O29 O 0.0034(7) 0.3219(7) 0.4505(8)
O31 O 0.1822(7) 0.0391(7) 0.5928(8)
O32 O 0.5251(8) 0.2721(7) 0.7920(9)
O33 O 0.4166(8) 0.1407(7) 0.7755(8)
O34 O 0.4070(8) 0.3612(7) 0.6407(8)
O35 O 0.4439(8) 0.2493(7) 0.5558(8)
O3 O 0.1138(7) 0.9190(7) 0.3150(8)
O5 O 0.6353(7) 0.9553(7) 0.4608(8)
O24 O 0.0968(9) 0.7179(8) 0.3046(9)
H2 H 0.0380 0.6650 0.2662
H3 H 0.1493 0.7052 0.3413
H7 H 0.1728 0.9899 0.1834
C5 C 0.4275(9) 0.9391(9) 0.3446(11)
H14 H 0.4251 0.8745 0.3085
H15 H 0.4418 0.9476 0.4154
C6 C 0.3183(10) 0.9394(9) 0.2771(11)
H16 H 0.2983 0.9203 0.2026
H17 H 0.2637 0.8904 0.2752
O25 O 0.2875(8) 0.9033(7) 0.5388(8)
O30 O 0.0571(7) 0.9111(7) 0.5974(8)
O10 O 0.9966(7) 0.6781(7) 0.5495(8)
O11 O 0.9429(7) 0.0889(7) 0.4026(8)
O18 O 0.9639(8) 0.2345(7) 0.1956(9)
O19 O 0.8516(8) 0.1408(7) 0.2166(9)
C25 C 0.7945(11) 0.2661(11) 0.0441(11)
H41 H 0.8649 0.3123 0.0768
C26 C 0.7765(10) 0.1941(10) 0.0776(11)
C27 C 0.6712(10) 0.1302(10) 0.0327(11)
H42 H 0.6581 0.0853 0.0596
C29 C 0.8710(10) 0.1895(10) 0.1690(11)
La4 La 0.94298(5) 0.80254(4) 0.63424(5)
C22 C 0.5093(10) 0.2076(10) 0.8238(11)
C23 C 0.6030(10) 0.2066(10) 0.9155(11)
C24 C 0.7083(10) 0.2700(10) 0.9622(11)
H40 H 0.7220 0.3170 0.9378
C28 C 0.5843(11) 0.1322(11) 0.9479(11)
H43 H 0.5143 0.0842 0.9129
P3 P 0.8825(2) 0.9749(2) 0.3561(2)
O12 O 0.9531(7) 0.9197(7) 0.3712(8)
O13 O 0.8178(7) 0.9609(7) 0.4072(8)
N3 N 0.7520(8) 0.8183(7) 0.1408(8)
H6 H 0.7458 0.7859 0.1794
C15 C 0.7879(10) 0.9264(9) 0.2073(10)
H29 H 0.7242 0.9384 0.1938
H30 H 0.8224 0.9646 0.1825
C16 C 0.8329(12) 0.7998(10) 0.1174(11)
H31 H 0.9043 0.8335 0.1851
H32 H 0.8354 0.8279 0.0692
C17 C 0.8041(13) 0.6899(11) 0.0650(13)
H33 H 0.8071 0.6629 0.1155
H34 H 0.8568 0.6802 0.0491
H36 H 0.5958 0.6285 0.0210
C20 C 0.6453(12) 0.7734(11) 0.0360(12)
H39 H 0.5927 0.7875 0.0495
O27 O 0.9031(7) 0.7074(7) 0.3228(8)
P3_2 P 0.1175(2) 0.0251(2) 0.6439(2)
O12_2 O 0.0469(7) 0.0803(7) 0.6288(8)
N3_2 N 0.2480(8) 0.1817(7) 0.8592(8)
H6_2 H 0.2542 0.2141 0.8206
C15_2 C 0.2121(10) 0.0736(9) 0.7927(10)
H29_2 H 0.2758 0.0616 0.8062
H30_2 H 0.1776 0.0354 0.8175
C16_2 C 0.1671(12) 0.2002(10) 0.8826(11)
H31_2 H 0.0957 0.1665 0.8149
H32_2 H 0.1646 0.1721 0.9308
C17_2 C 0.1959(13) 0.3101(11) 0.9350(13)
H33_2 H 0.1929 0.3371 0.8845
H34_2 H 0.1432 0.3198 0.9509
H36_2 H 0.4042 0.3715 0.9790
C20_2 C 0.3547(12) 0.2266(11) 0.9640(12)
H39_2 H 0.4073 0.2125 0.9505
O16 O 0.4749(8) 0.7279(7) 0.2080(9)
O17 O 0.5834(8) 0.8593(7) 0.2245(8)
C22_2 C 0.4907(10) 0.7924(10) 0.1762(11)
C23_2 C 0.3970(10) 0.7934(10) 0.0845(11)
C24_2 C 0.2917(10) 0.7300(10) 0.0378(11)
H40_2 H 0.2780 0.6830 0.0622
C28_2 C 0.4157(11) 0.8678(11) 0.0521(11)
H43_2 H 0.4857 0.9158 0.0871
O18_2 O 0.0361(8) 0.7655(7) 0.8044(9)
O19_2 O 0.1484(8) 0.8592(7) 0.7834(9)
C25_2 C 0.2055(11) 0.7339(11) 0.9559(11)
H41_2 H 0.1351 0.6877 0.9232
C26_2 C 0.2235(10) 0.8059(10) 0.9224(11)
C27_2 C 0.3288(10) 0.8698(10) 0.9673(11)
H42_2 H 0.3419 0.9147 0.9404
C29_2 C 0.1290(10) 0.8105(10) 0.8310(11)
O3_2 O 0.8862(7) 0.0810(7) 0.6850(8)
O24_2 O 0.9032(9) 0.2821(8) 0.6954(9)
H2_2 H 0.9620 0.3350 0.7338
H3_2 H 0.8507 0.2948 0.6587
H7_2 H 0.8272 0.0101 0.8166
C5_2 C 0.5725(9) 0.0609(9) 0.6554(11)
H14_2 H 0.5749 0.1255 0.6915
H15_2 H 0.5582 0.0524 0.5846
C6_2 C 0.6817(10) 0.0606(9) 0.7229(11)
H16_2 H 0.7017 0.0797 0.7974
H17_2 H 0.7363 0.1096 0.7248
O28 O 0.8696(8) 0.2568(7) 0.4689(8)
P1_2 P 0.8741(2) 0.9832(2) 0.6910(2)
P2_2 P 0.8033(2) 0.6934(2) 0.3244(2)
O1_2 O 0.9764(7) 0.9747(7) 0.7662(8)
O2_2 O 0.8133(7) 0.8917(7) 0.5785(8)
O6_2 O 0.7208(7) 0.7223(7) 0.2502(8)
O7_2 O 0.8247(7) 0.7440(7) 0.4376(8)
O22_2 O 0.7980(8) 0.7412(7) 0.6757(8)
O23_2 O 0.8161(8) 0.6246(7) 0.5722(8)
N1_2 N 0.6790(7) 0.9597(7) 0.6767(8)
H4_2 H 0.6624 0.9451 0.6086
N2_2 N 0.7884(7) 0.5135(7) 0.3362(8)
H5_2 H 0.8413 0.5622 0.4042
C1_2 C 0.7888(9) 0.9595(10) 0.7415(10)
H8_2 H 0.7779 0.8949 0.7418
C2_2 C 0.5950(9) 0.8817(9) 0.6681(11)
H9_2 H 0.5951 0.8171 0.6369
H10_2 H 0.6109 0.8956 0.7406
C3_2 C 0.4827(10) 0.8773(9) 0.5965(11)
H11_2 H 0.4294 0.8273 0.5950
H12_2 H 0.4640 0.8569 0.5223
C4_2 C 0.4790(9) 0.9778(9) 0.6383(11)
H13_2 H 0.4915 0.9929 0.7104
C7_2 C 0.3692(9) 0.9753(8) 0.5668(10)
C8_2 C 0.7248(9) 0.5594(8) 0.2721(10)
H18_2 H 0.7007 0.5244 0.1964
H19_2 H 0.6609 0.5504 0.2742
C9_2 C 0.8406(10) 0.4692(9) 0.2832(10)
H20_2 H 0.7849 0.4185 0.2087
H21_2 H 0.8877 0.5214 0.2807
C10_2 C 0.9065(9) 0.4224(9) 0.3468(10)
H22_2 H 0.9692 0.4754 0.4169
H23_2 H 0.9326 0.3886 0.3069
C11_2 C 0.8428(9) 0.3488(9) 0.3656(10)
H24_2 H 0.7858 0.2924 0.2935
C12_2 C 0.7855(9) 0.3928(9) 0.4132(10)
H25_2 H 0.8389 0.4454 0.4874
H26_2 H 0.7380 0.3409 0.4156
C13_2 C 0.7194(9) 0.4358(9) 0.3442(10)
H27_2 H 0.6850 0.4648 0.3768
H28_2 H 0.6627 0.3823 0.2715
C14_2 C 0.9100(9) 0.3053(9) 0.4342(10)
C30_2 C 0.4589(11) 0.3370(9) 0.6002(11)
C31_2 C 0.5382(10) 0.4179(9) 0.6049(11)
C32_2 C 0.5507(10) 0.5186(9) 0.6464(11)
H44_2 H 0.5086 0.5352 0.6712
C33_2 C 0.6262(10) 0.5918(9) 0.6496(11)
H45_2 H 0.6311 0.6567 0.6731
C34_2 C 0.6938(10) 0.5721(9) 0.6195(11)
C35_2 C 0.6837(11) 0.4727(9) 0.5819(11)
H46_2 H 0.7287 0.4576 0.5607
C36_2 C 0.6079(10) 0.3970(9) 0.5760(11)
H47_2 H 0.6037 0.3322 0.5527
C37_2 C 0.7738(10) 0.6498(9) 0.6223(11)
O14 O 0.7234(12) 0.4928(10) 0.8883(13)
H1 H 0.7067 0.4753 0.8233
O15 O 0.5802(11) 0.4681(10) 0.8970(12)
C18 C 0.6889(14) 0.6323(12) 0.9577(13)
H35 H 0.6909 0.6550 0.9050
C19 C 0.6068(14) 0.6581(12) 0.9770(14)
H37 H 0.5379 0.6296 0.9074
H38 H 0.6510 0.8028 0.9898
C21 C 0.6606(16) 0.5203(14) 0.9103(15)
O14_2 O 0.2766(12) 0.5072(10) 0.1117(13)
H1_2 H 0.2933 0.5247 0.1767
O15_2 O 0.4198(11) 0.5319(10) 0.1030(12)
C18_2 C 0.3111(14) 0.3677(12) 0.0423(13)
H35_2 H 0.3091 0.3450 0.0950
C19_2 C 0.3932(14) 0.3419(12) 0.0230(14)
H37_2 H 0.4621 0.3704 0.0926
H38_2 H 0.3490 0.1972 0.0102
C21_2 C 0.3394(16) 0.4797(14) 0.0897(15)
loop_
_geom_bond_atom_site_label_1
_geom_bond_atom_site_label_2
_geom_bond_site_symmetry_1
_geom_bond_site_symmetry_2
La1 O1 1_555 1_555
La2 O2 1_555 1_555
P1 O1 1_555 1_555
P2 O6 1_555 1_555
O2 La1 1_555 1_555
O4 C7 1_555 1_555
O6 La2 1_555 1_555
O7 La1 1_555 1_555
O8 P2 1_555 1_555
O9 C14 1_555 1_555
O20 C30 1_555 1_555
O21 C30 1_555 1_555
O22 La1 1_555 1_555
O23 La1 1_555 1_555
N1 H4 1_555 1_555
N2 H5 1_555 1_555
C1 P1 1_555 1_555
H8 C1 1_555 1_555
C2 N1 1_555 1_555
H9 C2 1_555 1_555
H10 C2 1_555 1_555
C3 C2 1_555 1_555
H11 C3 1_555 1_555
H12 C3 1_555 1_555
C4 C3 1_555 1_555
H13 C4 1_555 1_555
C7 C4 1_555 1_555
C8 P2 1_555 1_555
H18 C8 1_555 1_555
H19 C8 1_555 1_555
C9 N2 1_555 1_555
H20 C9 1_555 1_555
H21 C9 1_555 1_555
C10 C9 1_555 1_555
H22 C10 1_555 1_555
H23 C10 1_555 1_555
C11 C10 1_555 1_555
H24 C11 1_555 1_555
C12 C11 1_555 1_555
H25 C12 1_555 1_555
H26 C12 1_555 1_555
C13 N2 1_555 1_555
H27 C13 1_555 1_555
H28 C13 1_555 1_555
C14 C11 1_555 1_555
C30 C31 1_555 1_555
C31 C32 1_555 1_555
C32 H44 1_555 1_555
C33 C32 1_555 1_555
H45 C33 1_555 1_555
C34 C33 1_555 1_555
C35 C34 1_555 1_555
H46 C35 1_555 1_555
C36 C31 1_555 1_555
H47 C36 1_555 1_555
C37 O22 1_555 1_555
La8 O20 1_555 1_555
La9 O4 1_555 1_555
La11 O9 1_555 1_555
O26 La2 1_555 1_555
O29 La1 1_555 1_555
O31 La2 1_555 1_555
O32 La2 1_555 1_555
O33 La2 1_555 1_555
O34 La2 1_555 1_555
O35 La2 1_555 1_555
La2 O7 1_555 1_555
P1 O2 1_555 1_555
P2 O7 1_555 1_555
O21 La8 1_555 1_555
O23 C37 1_555 1_555
N1 C1 1_555 1_555
N2 C8 1_555 1_555
C12 C13 1_555 1_555
C34 C37 1_555 1_555
C35 C36 1_555 1_555
La11 O3 1_555 1_555
O24 La11 1_555 1_555
H2 O24 1_555 1_555
H3 O24 1_555 1_555
H14 C5 1_555 1_555
H15 C5 1_555 1_555
H16 C6 1_555 1_555
H17 C6 1_555 1_555
La8 O5 1_555 1_555
O25 La11 1_555 1_555
O30 La11 1_555 1_555
C5 C6 1_555 1_555
H41 C25 1_555 1_555
C26 C25 1_555 1_555
C27 C26 1_555 1_555
H42 C27 1_555 1_555
C29 O18 1_555 1_555
La4 O10 1_555 1_555
O11 La9 1_555 1_555
O19 C29 1_555 1_555
C26 C29 1_555 1_555
O32 C22 1_555 1_555
O33 C22 1_555 1_555
C22 C23 1_555 1_555
C23 C24 1_555 1_555
C24 H40 1_555 1_555
C28 C23 1_555 1_555
H43 C28 1_555 1_555
O13 P3 1_555 1_555
N3 H6 1_555 1_555
C15 P3 1_555 1_555
H29 C15 1_555 1_555
H30 C15 1_555 1_555
C16 N3 1_555 1_555
H31 C16 1_555 1_555
H32 C16 1_555 1_555
C17 C16 1_555 1_555
H33 C17 1_555 1_555
H34 C17 1_555 1_555
C20 N3 1_555 1_555
H39 C20 1_555 1_555
La8 O13 1_555 1_555
P3 O12 1_555 1_555
N3 C15 1_555 1_555
O31 P3_2 1_555 1_555
N3_2 H6_2 1_555 1_555
C15_2 P3_2 1_555 1_555
H29_2 C15_2 1_555 1_555
H30_2 C15_2 1_555 1_555
C16_2 N3_2 1_555 1_555
H31_2 C16_2 1_555 1_555
H32_2 C16_2 1_555 1_555
C17_2 C16_2 1_555 1_555
H33_2 C17_2 1_555 1_555
H34_2 C17_2 1_555 1_555
C20_2 N3_2 1_555 1_555
H39_2 C20_2 1_555 1_555
P3_2 O12_2 1_555 1_555
N3_2 C15_2 1_555 1_555
O16 C22_2 1_555 1_555
O17 C22_2 1_555 1_555
C22_2 C23_2 1_555 1_555
C23_2 C24_2 1_555 1_555
C24_2 H40_2 1_555 1_555
C28_2 C23_2 1_555 1_555
H43_2 C28_2 1_555 1_555
La8 O16 1_555 1_555
O17 La8 1_555 1_555
H41_2 C25_2 1_555 1_555
C26_2 C25_2 1_555 1_555
C27_2 C26_2 1_555 1_555
H42_2 C27_2 1_555 1_555
C29_2 O18_2 1_555 1_555
O19_2 C29_2 1_555 1_555
C26_2 C29_2 1_555 1_555
La9 O3_2 1_555 1_555
O24_2 La9 1_555 1_555
H2_2 O24_2 1_555 1_555
H3_2 O24_2 1_555 1_555
H14_2 C5_2 1_555 1_555
H15_2 C5_2 1_555 1_555
H16_2 C6_2 1_555 1_555
H17_2 C6_2 1_555 1_555
O28 La9 1_555 1_555
C5_2 C6_2 1_555 1_555
La4 O1_2 1_555 1_555
La8 O2_2 1_555 1_555
P1_2 O1_2 1_555 1_555
P2_2 O6_2 1_555 1_555
O2_2 La4 1_555 1_555
O25 C7_2 1_555 1_555
O6_2 La8 1_555 1_555
O7_2 La4 1_555 1_555
O27 P2_2 1_555 1_555
O28 C14_2 1_555 1_555
O34 C30_2 1_555 1_555
O35 C30_2 1_555 1_555
O22_2 La4 1_555 1_555
O23_2 La4 1_555 1_555
N1_2 H4_2 1_555 1_555
N2_2 H5_2 1_555 1_555
C1_2 P1_2 1_555 1_555
H8_2 C1_2 1_555 1_555
C2_2 N1_2 1_555 1_555
H9_2 C2_2 1_555 1_555
H10_2 C2_2 1_555 1_555
C3_2 C2_2 1_555 1_555
H11_2 C3_2 1_555 1_555
H12_2 C3_2 1_555 1_555
C4_2 C3_2 1_555 1_555
H13_2 C4_2 1_555 1_555
C7_2 C4_2 1_555 1_555
C8_2 P2_2 1_555 1_555
H18_2 C8_2 1_555 1_555
H19_2 C8_2 1_555 1_555
C9_2 N2_2 1_555 1_555
H20_2 C9_2 1_555 1_555
H21_2 C9_2 1_555 1_555
C10_2 C9_2 1_555 1_555
H22_2 C10_2 1_555 1_555
H23_2 C10_2 1_555 1_555
C11_2 C10_2 1_555 1_555
H24_2 C11_2 1_555 1_555
C12_2 C11_2 1_555 1_555
H25_2 C12_2 1_555 1_555
H26_2 C12_2 1_555 1_555
C13_2 N2_2 1_555 1_555
H27_2 C13_2 1_555 1_555
H28_2 C13_2 1_555 1_555
C14_2 C11_2 1_555 1_555
C30_2 C31_2 1_555 1_555
C31_2 C32_2 1_555 1_555
C32_2 H44_2 1_555 1_555
C33_2 C32_2 1_555 1_555
H45_2 C33_2 1_555 1_555
C34_2 C33_2 1_555 1_555
C35_2 C34_2 1_555 1_555
H46_2 C35_2 1_555 1_555
C36_2 C31_2 1_555 1_555
H47_2 C36_2 1_555 1_555
C37_2 O22_2 1_555 1_555
La8 O7_2 1_555 1_555
P1_2 O2_2 1_555 1_555
P2_2 O7_2 1_555 1_555
O23_2 C37_2 1_555 1_555
N1_2 C1_2 1_555 1_555
N2_2 C8_2 1_555 1_555
C12_2 C13_2 1_555 1_555
C34_2 C37_2 1_555 1_555
C35_2 C36_2 1_555 1_555
O14 H1 1_555 1_555
O15 C21 1_555 1_555
H35 C18 1_555 1_555
C19 C18 1_555 1_555
H37 C19 1_555 1_555
C21 O14 1_555 1_555
C18 C21 1_555 1_555
O14_2 H1_2 1_555 1_555
O15_2 C21_2 1_555 1_555
H35_2 C18_2 1_555 1_555
C19_2 C18_2 1_555 1_555
H37_2 C19_2 1_555 1_555
C21_2 O14_2 1_555 1_555
C18_2 C21_2 1_555 1_555

#END
