
###############################################################################
#
# This file contains modified crystal structure data generated from the
# MOF subset of the Cambridge Structural Database (CSD) v543 
# hosted by the Cambridge Crystallographic Data Centre (CCDC).
#
# This work is licensed under the Creative Commons
# Attribution-NonCommercial-ShareAlike 4.0 International License.
# To view a copy of this license, visit
# http://creativecommons.org/licenses/by-nc-sa/4.0/
# or send a letter to
# Creative Commons, PO Box 1866, Mountain View, CA 94042, USA.
#
# CIF created using the CSD Python API on 29 September 2022
# The structure has been converted into the P1 space group
# The structure has a 3D framework
# The original CSD entry MEJZUY is in the triclinic crystal system
# The framework has been calculated to contain at least 10.0% void space
# The void calculation uses a probe of radius 1.32A, grid spacing 0.4
#
###############################################################################

data_MEJZUY
_chemical_formula_moiety         '(C74 H94 N6 O48 P6 Sm6)n'
_symmetry_cell_setting           triclinic
_symmetry_space_group_name_H-M   'P 1'
_symmetry_Int_Tables_number      1
_space_group_name_Hall           'P 1'
loop_
_symmetry_equiv_pos_site_id
_symmetry_equiv_pos_as_xyz
1 x,y,z
_cell_length_a                   15.040(3)
_cell_length_b                   15.090(3)
_cell_length_c                   15.179(5)
_cell_angle_alpha                105.689(4)
_cell_angle_beta                 103.559(4)
_cell_angle_gamma                117.111(3)
_cell_volume                     2682.74
loop_
_atom_site_label
_atom_site_type_symbol
_atom_site_fract_x
_atom_site_fract_y
_atom_site_fract_z
Sm2 Sm 0.44276(7) 0.13319(8) 0.30217(7)
P3 P 0.3750(4) 0.1895(4) 0.4788(4)
O11 O 0.3873(9) 0.1793(11) 0.5770(9)
O12 O 0.3122(9) 0.0772(10) 0.3881(8)
O13 O 0.4774(9) 0.2622(11) 0.4676(9)
N3 N 0.1807(11) 0.1790(13) 0.4581(11)
H6 H 0.1634 0.1097 0.4432
C15 C 0.2919(12) 0.2462(14) 0.4583(12)
H29 H 0.3310 0.3190 0.5118
H30 H 0.2823 0.2526 0.3957
C16 C 0.0937(15) 0.1703(19) 0.3807(14)
H31 H 0.1111 0.2441 0.3987
H32 H 0.0940 0.1442 0.3157
C19 C 0.0723(13) 0.1547(16) 0.5596(13)
H36 H 0.0751 0.1881 0.6245
H37 H 0.0566 0.0824 0.5486
C20 C 0.1817(14) 0.2244(16) 0.5607(13)
H38 H 0.2384 0.2281 0.6105
H39 H 0.2000 0.2982 0.5763
Sm9 Sm 0.41570(7) 0.06229(8) 0.64294(7)
O25 O 0.5540(8) 0.0943(9) 0.4087(8)
O26 O 0.6816(8) 0.0893(9) 0.5368(8)
O27 O 0.4962(9) 0.0520(10) 0.1826(9)
O28 O 0.6292(10) 0.0252(11) 0.2465(9)
O30 O 0.7825(9) 0.0357(11) 0.4021(9)
O32 O 0.6455(10) 0.2806(11) 0.3571(10)
O33 O 0.5301(11) 0.3014(11) 0.2617(10)
O34 O 0.3017(10) 0.1797(11) 0.2437(9)
O35 O 0.3191(10) 0.0723(12) 0.1269(9)
Sm1 Sm 0.18247(7) 0.88732(8) 0.31907(7)
Sm3 Sm 0.58430(7) 0.93771(8) 0.35706(7)
P1 P 0.3831(4) 0.8583(4) 0.4774(3)
P2 P 0.3054(4) 0.8281(4) 0.1991(3)
O1 O 0.4460(8) 0.9057(9) 0.5913(8)
O2 O 0.4538(9) 0.8734(9) 0.4208(8)
O3 O 0.3184(8) 0.9107(9) 0.4632(8)
O6 O 0.2208(9) 0.7524(10) 0.2289(8)
O7 O 0.3299(9) 0.9445(10) 0.2505(8)
O8 O 0.4062(9) 0.8271(10) 0.2144(8)
O16 O 0.0878(9) 0.7289(12) 0.3624(9)
O20 O 0.0564(10) 0.9480(12) 0.2574(9)
O21 O 0.1011(10) 0.8669(11) 0.1485(9)
O24 O 0.5972(12) 0.8116(14) 0.2273(10)
H2 H 0.6585 0.8465 0.2232
H3 H 0.5921 0.7597 0.2428
N1 N 0.2561(12) 0.6403(12) 0.3241(11)
H4 H 0.2502 0.6797 0.2903
N2 N 0.2885(11) 0.8377(12) 0.0157(10)
H5 H 0.3429 0.9064 0.0632
C1 C 0.2898(14) 0.7099(15) 0.4319(13)
H7 H 0.3251 0.6852 0.4714
H8 H 0.2248 0.6954 0.4429
C2 C 0.1447(15) 0.5374(16) 0.2814(14)
H9 H 0.1518 0.4906 0.3111
H10 H 0.0916 0.5501 0.2961
C3 C 0.1064(19) 0.4772(19) 0.1672(15)
H11 H 0.0360 0.4081 0.1387
H12 H 0.0976 0.5231 0.1373
C4 C 0.1905(16) 0.4581(18) 0.1389(15)
H13 H 0.1927 0.4051 0.1617
C5 C 0.3065(16) 0.5619(17) 0.1961(13)
H14 H 0.3597 0.5466 0.1858
H15 H 0.3069 0.6121 0.1678
C6 C 0.3397(15) 0.6191(18) 0.3070(14)
H16 H 0.4125 0.6861 0.3414
H17 H 0.3395 0.5685 0.3346
C7 C 0.158(3) 0.411(2) 0.026(2)
C8 C 0.2269(14) 0.7750(16) 0.0644(13)
H18 H 0.1642 0.7803 0.0557
H19 H 0.1999 0.6983 0.0309
H21 H 0.3862 0.7801 0.0240
C22 C 0.0480(15) 0.9044(16) 0.1682(14)
Sm5 Sm 0.55724(7) 0.86681(8) 0.69783(7)
O29 O 0.6127(9) 0.8207(11) 0.4230(9)
O31 O 0.1403(9) 0.9612(12) 0.4529(9)
O4 O 0.0728(16) 0.3876(18) 0.9714(13)
O5 O 0.2265(18) 0.3988(19) 0.9965(17)
H1 H 0.2016 0.3748 0.9327
O9 O 0.5038(9) 0.9480(10) 0.8174(9)
O10 O 0.3708(10) 0.9748(11) 0.7535(9)
C9 C 0.3396(15) 0.7841(16) 0.9713(14)
H20 H 0.2821 0.7100 0.9218
C10 C 0.4087(14) 0.8456(16) 0.9240(13)
H22 H 0.4357 0.8055 0.8924
H23 H 0.4716 0.9163 0.9754
C11 C 0.3417(14) 0.8647(15) 0.8471(13)
H24 H 0.2855 0.7930 0.7927
C12 C 0.2841(14) 0.9137(16) 0.8908(13)
H25 H 0.2344 0.9136 0.8371
H26 H 0.3378 0.9891 0.9397
C13 C 0.2189(15) 0.8466(16) 0.9373(14)
H27 H 0.1872 0.8822 0.9667
H28 H 0.1596 0.7735 0.8870
C14 C 0.4110(14) 0.9365(15) 0.8027(13)
O15 O 0.8597(9) 0.0388(12) 0.5471(9)
C17 C 0.9816(15) 0.1009(18) 0.3756(13)
H33 H 0.9276 0.1005 0.3259
H34 H 0.9628 0.0265 0.3560
C18 C 0.9770(14) 0.1377(16) 0.4782(13)
H35 H 0.9912 0.2101 0.4938
C21 C 0.8656(16) 0.0667(17) 0.4766(15)
Sm4 Sm 0.81753(7) 0.11268(8) 0.68093(7)
O17 O 0.9810(10) 0.7108(11) 0.2255(10)
C23 C 0.9597(15) 0.8932(16) 0.0852(14)
C27 C 0.8109(17) 0.9120(19) 0.0273(15)
H42 H 0.7615 0.9322 0.0399
C28 C 0.8882(15) 0.9213(17) 0.1038(13)
H43 H 0.8891 0.9414 0.1699
C30 C 0.9982(15) 0.6802(15) 0.2940(14)
C31 C 0.8978(15) 0.5860(17) 0.2959(15)
C32 C 0.9155(15) 0.5562(17) 0.3719(15)
H44 H 0.9894 0.5932 0.4219
C33 C 0.8265(14) 0.4732(16) 0.3749(14)
H45 H 0.8382 0.4500 0.4275
C34 C 0.7198(15) 0.4195(18) 0.3023(14)
C35 C 0.7074(18) 0.4542(19) 0.2291(16)
H46 H 0.6338 0.4199 0.1799
C36 C 0.7926(16) 0.5344(18) 0.2229(15)
H47 H 0.7823 0.5535 0.1672
C37 C 0.6276(16) 0.3307(16) 0.3090(15)
O22 O 0.6983(10) 0.8203(11) 0.7563(9)
O23 O 0.6809(10) 0.9277(12) 0.8731(9)
C24 C 0.9512(16) 0.8552(18) 0.9876(16)
H40 H 0.9987 0.8322 0.9747
C25 C 0.8729(14) 0.8484(16) 0.9084(13)
H41 H 0.8691 0.8249 0.8414
C26 C 0.8015(15) 0.8808(16) 0.9276(14)
C29 C 0.7211(14) 0.8733(15) 0.8474(13)
C24_2 C 0.0488(16) 0.1448(18) 0.0124(16)
H40_2 H 0.0013 0.1678 0.0253
C25_2 C 0.1271(14) 0.1516(16) 0.0916(13)
H41_2 H 0.1309 0.1751 0.1586
C26_2 C 0.1985(15) 0.1192(16) 0.0724(14)
C29_2 C 0.2789(14) 0.1267(15) 0.1526(13)
O17_2 O 0.0190(10) 0.2892(11) 0.7745(10)
O18 O 0.3545(10) 0.7194(11) 0.6429(10)
O19 O 0.4699(11) 0.6986(11) 0.7383(10)
C23_2 C 0.0403(15) 0.1068(16) 0.9148(14)
C27_2 C 0.1891(17) 0.0880(19) 0.9727(15)
H42_2 H 0.2385 0.0678 0.9601
C28_2 C 0.1118(15) 0.0787(17) 0.8962(13)
H43_2 H 0.1109 0.0586 0.8301
C30_2 C 0.0018(15) 0.3198(15) 0.7060(14)
C31_2 C 0.1022(15) 0.4140(17) 0.7041(15)
C32_2 C 0.0845(15) 0.4438(17) 0.6281(15)
H44_2 H 0.0106 0.4068 0.5781
C33_2 C 0.1735(14) 0.5268(16) 0.6251(14)
H45_2 H 0.1618 0.5500 0.5725
C34_2 C 0.2802(15) 0.5805(18) 0.6977(14)
C35_2 C 0.2926(18) 0.5458(19) 0.7709(16)
H46_2 H 0.3662 0.5801 0.8201
C36_2 C 0.2074(16) 0.4656(18) 0.7771(15)
H47_2 H 0.2177 0.4465 0.8328
C37_2 C 0.3724(16) 0.6693(16) 0.6910(15)
O14 O 0.2175(9) 0.9643(11) 0.5979(9)
C17_2 C 0.0184(15) 0.8991(18) 0.6244(13)
H33_2 H 0.0724 0.8995 0.6741
H34_2 H 0.0372 0.9735 0.6440
C18_2 C 0.0230(14) 0.8623(16) 0.5218(13)
H35_2 H 0.0088 0.7899 0.5062
C21_2 C 0.1344(16) 0.9333(17) 0.5234(15)
O4_2 O 0.9272(16) 0.6124(18) 0.0286(13)
O5_2 O 0.7735(18) 0.6012(19) 0.0035(17)
H1_2 H 0.7984 0.6252 0.0673
C9_2 C 0.6604(15) 0.2159(16) 0.0287(14)
H20_2 H 0.7179 0.2900 0.0782
C10_2 C 0.5913(14) 0.1544(16) 0.0760(13)
H22_2 H 0.5643 0.1945 0.1076
H23_2 H 0.5284 0.0837 0.0246
C11_2 C 0.6583(14) 0.1353(15) 0.1529(13)
H24_2 H 0.7145 0.2070 0.2073
C12_2 C 0.7159(14) 0.0863(16) 0.1092(13)
H25_2 H 0.7656 0.0864 0.1629
H26_2 H 0.6622 0.0109 0.0603
C13_2 C 0.7811(15) 0.1534(16) 0.0627(14)
H27_2 H 0.8128 0.1178 0.0333
H28_2 H 0.8404 0.2265 0.1130
C14_2 C 0.5890(14) 0.0635(15) 0.1973(13)
P1_2 P 0.6169(4) 0.1417(4) 0.5226(3)
P2_2 P 0.6946(4) 0.1719(4) 0.8009(3)
O2_2 O 0.5462(9) 0.1266(9) 0.5792(8)
O6_2 O 0.7792(9) 0.2476(10) 0.7711(8)
O7_2 O 0.6701(9) 0.0555(10) 0.7495(8)
O8_2 O 0.5938(9) 0.1729(10) 0.7856(8)
O16_2 O 0.9122(9) 0.2711(12) 0.6376(9)
O20_2 O 0.9436(10) 0.0520(12) 0.7426(9)
O21_2 O 0.8989(10) 0.1331(11) 0.8515(9)
O24_2 O 0.4028(12) 0.1884(14) 0.7727(10)
H2_2 H 0.3415 0.1535 0.7768
H3_2 H 0.4079 0.2403 0.7572
N1_2 N 0.7439(12) 0.3597(12) 0.6759(11)
H4_2 H 0.7498 0.3203 0.7097
N2_2 N 0.7115(11) 0.1623(12) 0.9843(10)
H5_2 H 0.6571 0.0936 0.9368
C1_2 C 0.7102(14) 0.2901(15) 0.5681(13)
H7_2 H 0.6749 0.3148 0.5286
H8_2 H 0.7752 0.3046 0.5571
C2_2 C 0.8553(15) 0.4626(16) 0.7186(14)
H9_2 H 0.8482 0.5094 0.6889
H10_2 H 0.9084 0.4499 0.7039
C3_2 C 0.8936(19) 0.5228(19) 0.8328(15)
H11_2 H 0.9640 0.5919 0.8613
H12_2 H 0.9024 0.4769 0.8627
C4_2 C 0.8095(16) 0.5419(18) 0.8611(15)
H13_2 H 0.8073 0.5949 0.8383
C5_2 C 0.6935(16) 0.4381(17) 0.8039(13)
H14_2 H 0.6403 0.4534 0.8142
H15_2 H 0.6931 0.3879 0.8322
C6_2 C 0.6603(15) 0.3809(18) 0.6930(14)
H16_2 H 0.5875 0.3139 0.6586
H17_2 H 0.6605 0.4315 0.6654
C7_2 C 0.842(3) 0.589(2) 0.974(2)
C8_2 C 0.7731(14) 0.2250(16) 0.9356(13)
H18_2 H 0.8358 0.2197 0.9443
H19_2 H 0.8001 0.3017 0.9691
H21_2 H 0.6138 0.2199 0.9760
C22_2 C 0.9520(15) 0.0956(16) 0.8318(14)
P3_2 P 0.6250(4) 0.8105(4) 0.5212(4)
O12_2 O 0.6878(9) 0.9228(10) 0.6119(8)
O13_2 O 0.5226(9) 0.7378(11) 0.5324(9)
N3_2 N 0.8193(11) 0.8210(13) 0.5419(11)
H6_2 H 0.8366 0.8903 0.5568
C15_2 C 0.7081(12) 0.7538(14) 0.5417(12)
H29_2 H 0.6690 0.6810 0.4882
H30_2 H 0.7177 0.7474 0.6043
C16_2 C 0.9063(15) 0.8297(19) 0.6193(14)
H31_2 H 0.8889 0.7559 0.6013
H32_2 H 0.9060 0.8558 0.6843
C19_2 C 0.9277(13) 0.8453(16) 0.4404(13)
H36_2 H 0.9249 0.8119 0.3755
H37_2 H 0.9434 0.9176 0.4514
C20_2 C 0.8183(14) 0.7756(16) 0.4393(13)
H38_2 H 0.7616 0.7719 0.3895
H39_2 H 0.8000 0.7018 0.4237
loop_
_geom_bond_atom_site_label_1
_geom_bond_atom_site_label_2
_geom_bond_site_symmetry_1
_geom_bond_site_symmetry_2
P3 O11 1_555 1_555
O11 Sm9 1_555 1_555
O13 Sm2 1_555 1_555
N3 H6 1_555 1_555
C15 P3 1_555 1_555
H29 C15 1_555 1_555
H30 C15 1_555 1_555
C16 N3 1_555 1_555
H31 C16 1_555 1_555
H32 C16 1_555 1_555
H36 C19 1_555 1_555
H37 C19 1_555 1_555
C20 N3 1_555 1_555
H38 C20 1_555 1_555
H39 C20 1_555 1_555
O25 Sm2 1_555 1_555
O27 Sm2 1_555 1_555
O32 Sm2 1_555 1_555
O33 Sm2 1_555 1_555
O34 Sm2 1_555 1_555
O35 Sm2 1_555 1_555
Sm2 O12 1_555 1_555
P3 O12 1_555 1_555
P3 O13 1_555 1_555
N3 C15 1_555 1_555
C19 C20 1_555 1_555
Sm1 O3 1_555 1_555
Sm3 O2 1_555 1_555
P1 O1 1_555 1_555
P2 O6 1_555 1_555
O1 Sm5 1_555 1_555
O2 P1 1_555 1_555
O3 P1 1_555 1_555
O6 Sm1 1_555 1_555
O7 Sm1 1_555 1_555
O8 Sm3 1_555 1_555
O16 Sm1 1_555 1_555
O20 Sm1 1_555 1_555
O21 Sm1 1_555 1_555
O24 Sm3 1_555 1_555
H2 O24 1_555 1_555
H3 O24 1_555 1_555
N1 H4 1_555 1_555
N2 H5 1_555 1_555
C1 P1 1_555 1_555
H7 C1 1_555 1_555
H8 C1 1_555 1_555
C2 N1 1_555 1_555
H9 C2 1_555 1_555
H10 C2 1_555 1_555
C3 C2 1_555 1_555
H11 C3 1_555 1_555
H12 C3 1_555 1_555
C4 C3 1_555 1_555
H13 C4 1_555 1_555
C5 C4 1_555 1_555
H14 C5 1_555 1_555
H15 C5 1_555 1_555
C6 N1 1_555 1_555
H16 C6 1_555 1_555
H17 C6 1_555 1_555
C8 P2 1_555 1_555
H18 C8 1_555 1_555
H19 C8 1_555 1_555
C22 O20 1_555 1_555
O29 Sm3 1_555 1_555
O31 Sm1 1_555 1_555
P2 O7 1_555 1_555
P2 O8 1_555 1_555
O21 C22 1_555 1_555
N1 C1 1_555 1_555
N2 C8 1_555 1_555
C4 C7 1_555 1_555
C5 C6 1_555 1_555
O5 H1 1_555 1_555
O9 C14 1_555 1_555
O10 C14 1_555 1_555
H20 C9 1_555 1_555
C10 C9 1_555 1_555
H22 C10 1_555 1_555
H23 C10 1_555 1_555
C11 C10 1_555 1_555
H24 C11 1_555 1_555
C12 C11 1_555 1_555
H25 C12 1_555 1_555
H26 C12 1_555 1_555
H27 C13 1_555 1_555
H28 C13 1_555 1_555
C14 C11 1_555 1_555
Sm5 O9 1_555 1_555
C12 C13 1_555 1_555
O30 C21 1_555 1_555
O15 C21 1_555 1_555
H33 C17 1_555 1_555
H34 C17 1_555 1_555
C18 C17 1_555 1_555
H35 C18 1_555 1_555
C21 C18 1_555 1_555
Sm4 O15 1_555 1_555
O32 C37 1_555 1_555
O33 C37 1_555 1_555
H42 C27 1_555 1_555
C28 C23 1_555 1_555
H43 C28 1_555 1_555
C31 C30 1_555 1_555
C32 C31 1_555 1_555
H44 C32 1_555 1_555
C33 C32 1_555 1_555
H45 C33 1_555 1_555
C34 C33 1_555 1_555
C35 C34 1_555 1_555
H46 C35 1_555 1_555
C36 C31 1_555 1_555
H47 C36 1_555 1_555
C37 C34 1_555 1_555
O17 C30 1_555 1_555
C27 C28 1_555 1_555
C35 C36 1_555 1_555
O22 C29 1_555 1_555
O23 C29 1_555 1_555
H40 C24 1_555 1_555
C25 C24 1_555 1_555
H41 C25 1_555 1_555
C26 C25 1_555 1_555
C29 C26 1_555 1_555
Sm5 O22 1_555 1_555
O23 Sm5 1_555 1_555
O34 C29_2 1_555 1_555
O35 C29_2 1_555 1_555
H40_2 C24_2 1_555 1_555
C25_2 C24_2 1_555 1_555
H41_2 C25_2 1_555 1_555
C26_2 C25_2 1_555 1_555
C29_2 C26_2 1_555 1_555
O18 C37_2 1_555 1_555
O19 C37_2 1_555 1_555
H42_2 C27_2 1_555 1_555
C28_2 C23_2 1_555 1_555
H43_2 C28_2 1_555 1_555
C31_2 C30_2 1_555 1_555
C32_2 C31_2 1_555 1_555
H44_2 C32_2 1_555 1_555
C33_2 C32_2 1_555 1_555
H45_2 C33_2 1_555 1_555
C34_2 C33_2 1_555 1_555
C35_2 C34_2 1_555 1_555
H46_2 C35_2 1_555 1_555
C36_2 C31_2 1_555 1_555
H47_2 C36_2 1_555 1_555
C37_2 C34_2 1_555 1_555
Sm5 O18 1_555 1_555
O17_2 C30_2 1_555 1_555
O19 Sm5 1_555 1_555
C27_2 C28_2 1_555 1_555
C35_2 C36_2 1_555 1_555
O14 C21_2 1_555 1_555
O31 C21_2 1_555 1_555
H33_2 C17_2 1_555 1_555
H34_2 C17_2 1_555 1_555
C18_2 C17_2 1_555 1_555
H35_2 C18_2 1_555 1_555
C21_2 C18_2 1_555 1_555
O5_2 H1_2 1_555 1_555
O27 C14_2 1_555 1_555
O28 C14_2 1_555 1_555
H20_2 C9_2 1_555 1_555
C10_2 C9_2 1_555 1_555
H22_2 C10_2 1_555 1_555
H23_2 C10_2 1_555 1_555
C11_2 C10_2 1_555 1_555
H24_2 C11_2 1_555 1_555
C12_2 C11_2 1_555 1_555
H25_2 C12_2 1_555 1_555
H26_2 C12_2 1_555 1_555
H27_2 C13_2 1_555 1_555
H28_2 C13_2 1_555 1_555
C14_2 C11_2 1_555 1_555
C12_2 C13_2 1_555 1_555
Sm4 O26 1_555 1_555
Sm9 O2_2 1_555 1_555
P1_2 O25 1_555 1_555
P2_2 O6_2 1_555 1_555
O2_2 P1_2 1_555 1_555
O26 P1_2 1_555 1_555
O6_2 Sm4 1_555 1_555
O7_2 Sm4 1_555 1_555
O8_2 Sm9 1_555 1_555
O16_2 Sm4 1_555 1_555
O20_2 Sm4 1_555 1_555
O21_2 Sm4 1_555 1_555
O24_2 Sm9 1_555 1_555
H2_2 O24_2 1_555 1_555
H3_2 O24_2 1_555 1_555
N1_2 H4_2 1_555 1_555
N2_2 H5_2 1_555 1_555
C1_2 P1_2 1_555 1_555
H7_2 C1_2 1_555 1_555
H8_2 C1_2 1_555 1_555
C2_2 N1_2 1_555 1_555
H9_2 C2_2 1_555 1_555
H10_2 C2_2 1_555 1_555
C3_2 C2_2 1_555 1_555
H11_2 C3_2 1_555 1_555
H12_2 C3_2 1_555 1_555
C4_2 C3_2 1_555 1_555
H13_2 C4_2 1_555 1_555
C5_2 C4_2 1_555 1_555
H14_2 C5_2 1_555 1_555
H15_2 C5_2 1_555 1_555
C6_2 N1_2 1_555 1_555
H16_2 C6_2 1_555 1_555
H17_2 C6_2 1_555 1_555
C8_2 P2_2 1_555 1_555
H18_2 C8_2 1_555 1_555
H19_2 C8_2 1_555 1_555
C22_2 O20_2 1_555 1_555
P2_2 O7_2 1_555 1_555
P2_2 O8_2 1_555 1_555
O21_2 C22_2 1_555 1_555
N1_2 C1_2 1_555 1_555
N2_2 C8_2 1_555 1_555
C4_2 C7_2 1_555 1_555
C5_2 C6_2 1_555 1_555
P3_2 O29 1_555 1_555
O13_2 Sm5 1_555 1_555
N3_2 H6_2 1_555 1_555
C15_2 P3_2 1_555 1_555
H29_2 C15_2 1_555 1_555
H30_2 C15_2 1_555 1_555
C16_2 N3_2 1_555 1_555
H31_2 C16_2 1_555 1_555
H32_2 C16_2 1_555 1_555
H36_2 C19_2 1_555 1_555
H37_2 C19_2 1_555 1_555
C20_2 N3_2 1_555 1_555
H38_2 C20_2 1_555 1_555
H39_2 C20_2 1_555 1_555
Sm5 O12_2 1_555 1_555
P3_2 O12_2 1_555 1_555
P3_2 O13_2 1_555 1_555
N3_2 C15_2 1_555 1_555
C19_2 C20_2 1_555 1_555

#END
