
###############################################################################
#
# This file contains modified crystal structure data generated from the
# MOF subset of the Cambridge Structural Database (CSD) v543 
# hosted by the Cambridge Crystallographic Data Centre (CCDC).
#
# This work is licensed under the Creative Commons
# Attribution-NonCommercial-ShareAlike 4.0 International License.
# To view a copy of this license, visit
# http://creativecommons.org/licenses/by-nc-sa/4.0/
# or send a letter to
# Creative Commons, PO Box 1866, Mountain View, CA 94042, USA.
#
# CIF created using the CSD Python API on 29 September 2022
# The structure has been converted into the P1 space group
# The structure has a 3D framework
# The original CSD entry MEKBAH is in the triclinic crystal system
# The framework has been calculated to contain at least 10.0% void space
# The void calculation uses a probe of radius 1.32A, grid spacing 0.4
#
###############################################################################

data_MEKBAH
_chemical_formula_moiety         '(C74 H94 N6 O48 P6 Tb6)n'
_symmetry_cell_setting           triclinic
_symmetry_space_group_name_H-M   'P 1'
_symmetry_Int_Tables_number      1
_space_group_name_Hall           'P 1'
loop_
_symmetry_equiv_pos_site_id
_symmetry_equiv_pos_as_xyz
1 x,y,z
_cell_length_a                   14.976(4)
_cell_length_b                   15.080(4)
_cell_length_c                   15.116(5)
_cell_angle_alpha                105.192(4)
_cell_angle_beta                 103.772(4)
_cell_angle_gamma                117.338(4)
_cell_volume                     2658.48
loop_
_atom_site_label
_atom_site_type_symbol
_atom_site_fract_x
_atom_site_fract_y
_atom_site_fract_z
Tb2 Tb 0.44266(5) 0.13210(5) 0.30245(4)
P3 P 0.3741(3) 0.1863(3) 0.4768(2)
O11 O 0.3877(6) 0.1777(7) 0.5761(6)
O12 O 0.3108(6) 0.0761(6) 0.3857(6)
O13 O 0.4789(6) 0.2601(7) 0.4657(6)
N3 N 0.1813(8) 0.1775(8) 0.4577(7)
H6 H 0.1640 0.1082 0.4428
C15 C 0.2915(9) 0.2445(10) 0.4584(9)
H29 H 0.3306 0.3173 0.5119
H30 H 0.2819 0.2509 0.3958
C16 C 0.0941(9) 0.1726(10) 0.3812(9)
H31 H 0.1115 0.2464 0.3993
H32 H 0.0945 0.1465 0.3162
C19 C 0.0707(10) 0.1526(10) 0.5606(9)
H36 H 0.0735 0.1861 0.6256
H37 H 0.0550 0.0804 0.5497
C20 C 0.1842(10) 0.2229(10) 0.5581(9)
H38 H 0.2410 0.2266 0.6079
H39 H 0.2026 0.2968 0.5737
Tb9 Tb 0.41612(5) 0.06087(5) 0.64151(4)
O25 O 0.5556(6) 0.0936(6) 0.4070(5)
O26 O 0.6818(6) 0.0872(6) 0.5367(5)
O27 O 0.4963(7) 0.0536(7) 0.1845(6)
O28 O 0.6293(7) 0.0268(7) 0.2487(6)
O30 O 0.7815(6) 0.0379(7) 0.4026(6)
O32 O 0.6440(7) 0.2757(7) 0.3555(6)
O33 O 0.5278(8) 0.2980(8) 0.2600(8)
O34 O 0.3045(7) 0.1799(8) 0.2451(6)
O35 O 0.3200(7) 0.0725(8) 0.1308(7)
Tb1 Tb 0.18351(5) 0.88878(5) 0.32022(4)
Tb3 Tb 0.58388(5) 0.93913(5) 0.35849(4)
P1 P 0.3841(2) 0.8606(3) 0.4780(2)
P2 P 0.3064(2) 0.8310(3) 0.2016(2)
O1 O 0.4444(6) 0.9064(6) 0.5930(5)
O2 O 0.4564(6) 0.8760(7) 0.4215(6)
O3 O 0.3182(6) 0.9128(6) 0.4633(5)
O6 O 0.2204(6) 0.7573(6) 0.2320(6)
O7 O 0.3269(6) 0.9442(7) 0.2509(6)
O8 O 0.4075(6) 0.8297(6) 0.2176(6)
O16 O 0.0907(7) 0.7330(7) 0.3639(7)
O20 O 0.0588(7) 0.9461(8) 0.2602(6)
O21 O 0.1030(7) 0.8686(8) 0.1511(6)
O24 O 0.5946(8) 0.8141(8) 0.2304(7)
H2 H 0.6558 0.8489 0.2264
H3 H 0.5894 0.7622 0.2459
N1 N 0.2533(8) 0.6425(8) 0.3246(7)
H4 H 0.2473 0.6819 0.2908
N2 N 0.2893(8) 0.8396(8) 0.0161(7)
H5 H 0.3437 0.9084 0.0637
C1 C 0.2893(10) 0.7096(10) 0.4327(9)
H7 H 0.3246 0.6849 0.4721
H8 H 0.2243 0.6951 0.4436
C2 C 0.1439(11) 0.5346(11) 0.2791(10)
H9 H 0.1509 0.4878 0.3088
H10 H 0.0907 0.5473 0.2938
C3 C 0.1043(12) 0.4768(12) 0.1667(11)
H11 H 0.0339 0.4077 0.1382
H12 H 0.0955 0.5228 0.1368
C4 C 0.1891(12) 0.4577(12) 0.1412(11)
H13 H 0.1913 0.4046 0.1639
C5 C 0.3060(12) 0.5655(12) 0.1960(10)
H14 H 0.3592 0.5503 0.1857
H15 H 0.3064 0.6157 0.1677
C6 C 0.3369(11) 0.6193(12) 0.3075(10)
H16 H 0.4096 0.6863 0.3420
H17 H 0.3366 0.5688 0.3352
C7 C 0.1588(17) 0.4120(14) 0.0243(14)
C8 C 0.2257(10) 0.7782(11) 0.0662(9)
H18 H 0.1630 0.7835 0.0575
H19 H 0.1987 0.7015 0.0327
H21 H 0.3866 0.7799 0.0249
C22 C 0.0451(11) 0.9038(11) 0.1700(10)
Tb5 Tb 0.55734(5) 0.86790(5) 0.69755(4)
O29 O 0.6123(6) 0.8223(7) 0.4239(6)
O31 O 0.1390(7) 0.9583(7) 0.4515(6)
O4 O 0.0656(11) 0.3845(12) 0.9696(8)
O5 O 0.2256(14) 0.4018(15) 0.9979(10)
H1 H 0.2007 0.3778 0.9341
O9 O 0.5037(7) 0.9464(7) 0.8155(6)
O10 O 0.3707(7) 0.9732(7) 0.7513(6)
C9 C 0.3401(10) 0.7839(10) 0.9723(9)
H20 H 0.2826 0.7098 0.9227
C10 C 0.4076(10) 0.8464(11) 0.9239(9)
H22 H 0.4346 0.8062 0.8923
H23 H 0.4705 0.9170 0.9753
C11 C 0.3426(10) 0.8658(11) 0.8465(9)
H24 H 0.2863 0.7942 0.7921
C12 C 0.2811(10) 0.9114(10) 0.8873(9)
H25 H 0.2314 0.9112 0.8336
H26 H 0.3348 0.9867 0.9362
C13 C 0.2190(10) 0.8491(11) 0.9377(9)
H27 H 0.1873 0.8848 0.9671
H28 H 0.1597 0.7760 0.8875
C14 C 0.4123(10) 0.9348(10) 0.8007(9)
H40 H 0.0005 0.8344 0.9765
O15 O 0.8610(7) 0.0417(7) 0.5485(6)
C17 C 0.9797(10) 0.1000(10) 0.3761(9)
H33 H 0.9257 0.0996 0.3265
H34 H 0.9609 0.0256 0.3566
C18 C 0.9777(10) 0.1407(10) 0.4790(8)
H35 H 0.9919 0.2131 0.4946
C21 C 0.8635(10) 0.0666(10) 0.4767(9)
Tb4 Tb 0.81649(5) 0.11122(5) 0.67978(4)
O17 O 0.9825(7) 0.7144(7) 0.2250(7)
C23 C 0.9626(11) 0.8974(11) 0.0871(10)
C27 C 0.8093(11) 0.9124(11) 0.0243(9)
H42 H 0.7599 0.9326 0.0368
C28 C 0.8875(10) 0.9202(11) 0.1039(10)
H43 H 0.8884 0.9403 0.1700
C30 C 0.9964(10) 0.6831(10) 0.2934(9)
C31 C 0.8983(10) 0.5873(11) 0.2946(9)
C32 C 0.9158(10) 0.5572(11) 0.3702(10)
H44 H 0.9897 0.5942 0.4202
C33 C 0.8274(10) 0.4730(11) 0.3757(10)
H45 H 0.8391 0.4498 0.4284
C34 C 0.7219(10) 0.4228(11) 0.3042(10)
C35 C 0.7054(11) 0.4527(11) 0.2269(10)
H46 H 0.6317 0.4185 0.1777
C36 C 0.7949(10) 0.5342(11) 0.2219(9)
H47 H 0.7845 0.5533 0.1663
C37 C 0.6258(11) 0.3274(11) 0.3065(10)
O22 O 0.6955(7) 0.8201(8) 0.7549(6)
O23 O 0.6800(7) 0.9275(8) 0.8692(7)
C24 C 0.9530(10) 0.8574(11) 0.9894(9)
C25 C 0.8743(10) 0.8495(11) 0.9084(10)
H41 H 0.8705 0.8260 0.8414
C26 C 0.8035(11) 0.8767(11) 0.9288(10)
C29 C 0.7218(10) 0.8736(11) 0.8458(10)
C24_2 C 0.0470(10) 0.1426(11) 0.0106(9)
C25_2 C 0.1257(10) 0.1505(11) 0.0916(10)
H41_2 H 0.1295 0.1740 0.1586
C26_2 C 0.1965(11) 0.1233(11) 0.0712(10)
C29_2 C 0.2782(10) 0.1264(11) 0.1542(10)
O17_2 O 0.0175(7) 0.2856(7) 0.7750(7)
O18 O 0.3560(7) 0.7243(7) 0.6445(6)
O19 O 0.4722(8) 0.7020(8) 0.7400(8)
C23_2 C 0.0374(11) 0.1026(11) 0.9129(10)
C27_2 C 0.1907(11) 0.0876(11) 0.9757(9)
H42_2 H 0.2401 0.0674 0.9632
C28_2 C 0.1125(10) 0.0798(11) 0.8961(10)
H43_2 H 0.1116 0.0597 0.8300
C30_2 C 0.0036(10) 0.3169(10) 0.7066(9)
C31_2 C 0.1017(10) 0.4127(11) 0.7054(9)
C32_2 C 0.0842(10) 0.4428(11) 0.6298(10)
H44_2 H 0.0103 0.4058 0.5798
C33_2 C 0.1726(10) 0.5270(11) 0.6243(10)
H45_2 H 0.1609 0.5502 0.5716
C34_2 C 0.2781(10) 0.5772(11) 0.6958(10)
C35_2 C 0.2946(11) 0.5473(11) 0.7731(10)
H46_2 H 0.3683 0.5815 0.8223
C36_2 C 0.2051(10) 0.4658(11) 0.7781(9)
H47_2 H 0.2155 0.4467 0.8337
C37_2 C 0.3742(11) 0.6726(11) 0.6935(10)
O14 O 0.2185(6) 0.9621(7) 0.5974(6)
C17_2 C 0.0203(10) 0.9000(10) 0.6239(9)
H33_2 H 0.0743 0.9004 0.6735
H34_2 H 0.0391 0.9744 0.6434
C18_2 C 0.0223(10) 0.8593(10) 0.5210(8)
H35_2 H 0.0081 0.7869 0.5054
C21_2 C 0.1365(10) 0.9334(10) 0.5233(9)
O4_2 O 0.9344(11) 0.6155(12) 0.0304(8)
O5_2 O 0.7744(14) 0.5982(15) 0.0021(10)
H1_2 H 0.7993 0.6222 0.0659
C9_2 C 0.6599(10) 0.2161(10) 0.0277(9)
H20_2 H 0.7174 0.2902 0.0773
C10_2 C 0.5924(10) 0.1536(11) 0.0761(9)
H22_2 H 0.5654 0.1938 0.1077
H23_2 H 0.5295 0.0830 0.0247
C11_2 C 0.6574(10) 0.1342(11) 0.1535(9)
H24_2 H 0.7137 0.2058 0.2079
C12_2 C 0.7189(10) 0.0886(10) 0.1127(9)
H25_2 H 0.7686 0.0888 0.1664
H26_2 H 0.6652 0.0133 0.0638
C13_2 C 0.7810(10) 0.1509(11) 0.0623(9)
H27_2 H 0.8127 0.1152 0.0329
H28_2 H 0.8403 0.2240 0.1125
C14_2 C 0.5877(10) 0.0652(10) 0.1993(9)
H40_2 H 0.9995 0.1656 0.0235
P1_2 P 0.6159(2) 0.1394(3) 0.5220(2)
P2_2 P 0.6936(2) 0.1690(3) 0.7984(2)
O2_2 O 0.5436(6) 0.1240(7) 0.5785(6)
O6_2 O 0.7796(6) 0.2427(6) 0.7680(6)
O7_2 O 0.6731(6) 0.0558(7) 0.7491(6)
O8_2 O 0.5925(6) 0.1703(6) 0.7824(6)
O16_2 O 0.9093(7) 0.2670(7) 0.6361(7)
O20_2 O 0.9412(7) 0.0539(8) 0.7398(6)
O21_2 O 0.8970(7) 0.1314(8) 0.8489(6)
O24_2 O 0.4054(8) 0.1859(8) 0.7696(7)
H2_2 H 0.3442 0.1511 0.7736
H3_2 H 0.4106 0.2378 0.7541
N1_2 N 0.7467(8) 0.3575(8) 0.6754(7)
H4_2 H 0.7527 0.3181 0.7092
N2_2 N 0.7107(8) 0.1604(8) 0.9839(7)
H5_2 H 0.6563 0.0916 0.9363
C1_2 C 0.7107(10) 0.2904(10) 0.5673(9)
H7_2 H 0.6754 0.3151 0.5279
H8_2 H 0.7757 0.3049 0.5564
C2_2 C 0.8561(11) 0.4654(11) 0.7209(10)
H9_2 H 0.8491 0.5122 0.6912
H10_2 H 0.9093 0.4527 0.7062
C3_2 C 0.8957(12) 0.5232(12) 0.8333(11)
H11_2 H 0.9661 0.5923 0.8618
H12_2 H 0.9045 0.4772 0.8632
C4_2 C 0.8109(12) 0.5423(12) 0.8588(11)
H13_2 H 0.8087 0.5954 0.8361
C5_2 C 0.6940(12) 0.4345(12) 0.8040(10)
H14_2 H 0.6408 0.4497 0.8143
H15_2 H 0.6936 0.3843 0.8323
C6_2 C 0.6631(11) 0.3807(12) 0.6925(10)
H16_2 H 0.5904 0.3137 0.6580
H17_2 H 0.6634 0.4312 0.6648
C7_2 C 0.8412(17) 0.5880(14) 0.9757(14)
C8_2 C 0.7743(10) 0.2218(11) 0.9338(9)
H18_2 H 0.8370 0.2165 0.9425
H19_2 H 0.8013 0.2985 0.9673
H21_2 H 0.6134 0.2201 0.9751
C22_2 C 0.9549(11) 0.0962(11) 0.8300(10)
P3_2 P 0.6259(3) 0.8137(3) 0.5232(2)
O12_2 O 0.6892(6) 0.9239(6) 0.6143(6)
O13_2 O 0.5211(6) 0.7399(7) 0.5343(6)
N3_2 N 0.8187(8) 0.8225(8) 0.5423(7)
H6_2 H 0.8360 0.8918 0.5572
C15_2 C 0.7085(9) 0.7555(10) 0.5416(9)
H29_2 H 0.6694 0.6827 0.4881
H30_2 H 0.7181 0.7491 0.6042
C16_2 C 0.9059(9) 0.8274(10) 0.6188(9)
H31_2 H 0.8885 0.7536 0.6007
H32_2 H 0.9055 0.8535 0.6838
C19_2 C 0.9293(10) 0.8474(10) 0.4394(9)
H36_2 H 0.9265 0.8139 0.3744
H37_2 H 0.9450 0.9196 0.4503
C20_2 C 0.8158(10) 0.7771(10) 0.4419(9)
H38_2 H 0.7590 0.7734 0.3921
H39_2 H 0.7974 0.7032 0.4263
loop_
_geom_bond_atom_site_label_1
_geom_bond_atom_site_label_2
_geom_bond_site_symmetry_1
_geom_bond_site_symmetry_2
P3 O11 1_555 1_555
O11 Tb9 1_555 1_555
O13 Tb2 1_555 1_555
N3 H6 1_555 1_555
C15 P3 1_555 1_555
H29 C15 1_555 1_555
H30 C15 1_555 1_555
C16 N3 1_555 1_555
H31 C16 1_555 1_555
H32 C16 1_555 1_555
H36 C19 1_555 1_555
H37 C19 1_555 1_555
C20 N3 1_555 1_555
H38 C20 1_555 1_555
H39 C20 1_555 1_555
O25 Tb2 1_555 1_555
O27 Tb2 1_555 1_555
O32 Tb2 1_555 1_555
O33 Tb2 1_555 1_555
O34 Tb2 1_555 1_555
O35 Tb2 1_555 1_555
Tb2 O12 1_555 1_555
P3 O12 1_555 1_555
P3 O13 1_555 1_555
N3 C15 1_555 1_555
C19 C20 1_555 1_555
Tb1 O3 1_555 1_555
Tb3 O2 1_555 1_555
P1 O1 1_555 1_555
P2 O6 1_555 1_555
O1 Tb5 1_555 1_555
O2 P1 1_555 1_555
O3 P1 1_555 1_555
O6 Tb1 1_555 1_555
O7 Tb1 1_555 1_555
O8 Tb3 1_555 1_555
O16 Tb1 1_555 1_555
O20 Tb1 1_555 1_555
O21 Tb1 1_555 1_555
O24 Tb3 1_555 1_555
H2 O24 1_555 1_555
H3 O24 1_555 1_555
N1 H4 1_555 1_555
N2 H5 1_555 1_555
C1 P1 1_555 1_555
H7 C1 1_555 1_555
H8 C1 1_555 1_555
C2 N1 1_555 1_555
H9 C2 1_555 1_555
H10 C2 1_555 1_555
C3 C2 1_555 1_555
H11 C3 1_555 1_555
H12 C3 1_555 1_555
C4 C3 1_555 1_555
H13 C4 1_555 1_555
C5 C4 1_555 1_555
H14 C5 1_555 1_555
H15 C5 1_555 1_555
C6 N1 1_555 1_555
H16 C6 1_555 1_555
H17 C6 1_555 1_555
C8 P2 1_555 1_555
H18 C8 1_555 1_555
H19 C8 1_555 1_555
C22 O20 1_555 1_555
O29 Tb3 1_555 1_555
O31 Tb1 1_555 1_555
P2 O7 1_555 1_555
P2 O8 1_555 1_555
O21 C22 1_555 1_555
N1 C1 1_555 1_555
N2 C8 1_555 1_555
C4 C7 1_555 1_555
C5 C6 1_555 1_555
O5 H1 1_555 1_555
O9 C14 1_555 1_555
O10 C14 1_555 1_555
H20 C9 1_555 1_555
C10 C9 1_555 1_555
H22 C10 1_555 1_555
H23 C10 1_555 1_555
C11 C10 1_555 1_555
H24 C11 1_555 1_555
C12 C11 1_555 1_555
H25 C12 1_555 1_555
H26 C12 1_555 1_555
H27 C13 1_555 1_555
H28 C13 1_555 1_555
C14 C11 1_555 1_555
Tb5 O9 1_555 1_555
C12 C13 1_555 1_555
O30 C21 1_555 1_555
O15 C21 1_555 1_555
H33 C17 1_555 1_555
H34 C17 1_555 1_555
C18 C17 1_555 1_555
H35 C18 1_555 1_555
C21 C18 1_555 1_555
Tb4 O15 1_555 1_555
O32 C37 1_555 1_555
O33 C37 1_555 1_555
H42 C27 1_555 1_555
C28 C23 1_555 1_555
H43 C28 1_555 1_555
C31 C30 1_555 1_555
C32 C31 1_555 1_555
H44 C32 1_555 1_555
C33 C32 1_555 1_555
H45 C33 1_555 1_555
C34 C33 1_555 1_555
C35 C34 1_555 1_555
H46 C35 1_555 1_555
C36 C31 1_555 1_555
H47 C36 1_555 1_555
C37 C34 1_555 1_555
O17 C30 1_555 1_555
C27 C28 1_555 1_555
C35 C36 1_555 1_555
O22 C29 1_555 1_555
O23 C29 1_555 1_555
C25 C24 1_555 1_555
H41 C25 1_555 1_555
C26 C25 1_555 1_555
C29 C26 1_555 1_555
Tb5 O22 1_555 1_555
O23 Tb5 1_555 1_555
O34 C29_2 1_555 1_555
O35 C29_2 1_555 1_555
C25_2 C24_2 1_555 1_555
H41_2 C25_2 1_555 1_555
C26_2 C25_2 1_555 1_555
C29_2 C26_2 1_555 1_555
O18 C37_2 1_555 1_555
O19 C37_2 1_555 1_555
H42_2 C27_2 1_555 1_555
C28_2 C23_2 1_555 1_555
H43_2 C28_2 1_555 1_555
C31_2 C30_2 1_555 1_555
C32_2 C31_2 1_555 1_555
H44_2 C32_2 1_555 1_555
C33_2 C32_2 1_555 1_555
H45_2 C33_2 1_555 1_555
C34_2 C33_2 1_555 1_555
C35_2 C34_2 1_555 1_555
H46_2 C35_2 1_555 1_555
C36_2 C31_2 1_555 1_555
H47_2 C36_2 1_555 1_555
C37_2 C34_2 1_555 1_555
Tb5 O18 1_555 1_555
O17_2 C30_2 1_555 1_555
O19 Tb5 1_555 1_555
C27_2 C28_2 1_555 1_555
C35_2 C36_2 1_555 1_555
O14 C21_2 1_555 1_555
O31 C21_2 1_555 1_555
H33_2 C17_2 1_555 1_555
H34_2 C17_2 1_555 1_555
C18_2 C17_2 1_555 1_555
H35_2 C18_2 1_555 1_555
C21_2 C18_2 1_555 1_555
O5_2 H1_2 1_555 1_555
O27 C14_2 1_555 1_555
O28 C14_2 1_555 1_555
H20_2 C9_2 1_555 1_555
C10_2 C9_2 1_555 1_555
H22_2 C10_2 1_555 1_555
H23_2 C10_2 1_555 1_555
C11_2 C10_2 1_555 1_555
H24_2 C11_2 1_555 1_555
C12_2 C11_2 1_555 1_555
H25_2 C12_2 1_555 1_555
H26_2 C12_2 1_555 1_555
H27_2 C13_2 1_555 1_555
H28_2 C13_2 1_555 1_555
C14_2 C11_2 1_555 1_555
C12_2 C13_2 1_555 1_555
Tb4 O26 1_555 1_555
Tb9 O2_2 1_555 1_555
P1_2 O25 1_555 1_555
P2_2 O6_2 1_555 1_555
O2_2 P1_2 1_555 1_555
O26 P1_2 1_555 1_555
O6_2 Tb4 1_555 1_555
O7_2 Tb4 1_555 1_555
O8_2 Tb9 1_555 1_555
O16_2 Tb4 1_555 1_555
O20_2 Tb4 1_555 1_555
O21_2 Tb4 1_555 1_555
O24_2 Tb9 1_555 1_555
H2_2 O24_2 1_555 1_555
H3_2 O24_2 1_555 1_555
N1_2 H4_2 1_555 1_555
N2_2 H5_2 1_555 1_555
C1_2 P1_2 1_555 1_555
H7_2 C1_2 1_555 1_555
H8_2 C1_2 1_555 1_555
C2_2 N1_2 1_555 1_555
H9_2 C2_2 1_555 1_555
H10_2 C2_2 1_555 1_555
C3_2 C2_2 1_555 1_555
H11_2 C3_2 1_555 1_555
H12_2 C3_2 1_555 1_555
C4_2 C3_2 1_555 1_555
H13_2 C4_2 1_555 1_555
C5_2 C4_2 1_555 1_555
H14_2 C5_2 1_555 1_555
H15_2 C5_2 1_555 1_555
C6_2 N1_2 1_555 1_555
H16_2 C6_2 1_555 1_555
H17_2 C6_2 1_555 1_555
C8_2 P2_2 1_555 1_555
H18_2 C8_2 1_555 1_555
H19_2 C8_2 1_555 1_555
C22_2 O20_2 1_555 1_555
P2_2 O7_2 1_555 1_555
P2_2 O8_2 1_555 1_555
O21_2 C22_2 1_555 1_555
N1_2 C1_2 1_555 1_555
N2_2 C8_2 1_555 1_555
C4_2 C7_2 1_555 1_555
C5_2 C6_2 1_555 1_555
P3_2 O29 1_555 1_555
O13_2 Tb5 1_555 1_555
N3_2 H6_2 1_555 1_555
C15_2 P3_2 1_555 1_555
H29_2 C15_2 1_555 1_555
H30_2 C15_2 1_555 1_555
C16_2 N3_2 1_555 1_555
H31_2 C16_2 1_555 1_555
H32_2 C16_2 1_555 1_555
H36_2 C19_2 1_555 1_555
H37_2 C19_2 1_555 1_555
C20_2 N3_2 1_555 1_555
H38_2 C20_2 1_555 1_555
H39_2 C20_2 1_555 1_555
Tb5 O12_2 1_555 1_555
P3_2 O12_2 1_555 1_555
P3_2 O13_2 1_555 1_555
N3_2 C15_2 1_555 1_555
C19_2 C20_2 1_555 1_555

#END
