
###############################################################################
#
# This file contains modified crystal structure data generated from the
# MOF subset of the Cambridge Structural Database (CSD) v543 
# hosted by the Cambridge Crystallographic Data Centre (CCDC).
#
# This work is licensed under the Creative Commons
# Attribution-NonCommercial-ShareAlike 4.0 International License.
# To view a copy of this license, visit
# http://creativecommons.org/licenses/by-nc-sa/4.0/
# or send a letter to
# Creative Commons, PO Box 1866, Mountain View, CA 94042, USA.
#
# CIF created using the CSD Python API on 29 September 2022
# The structure has been converted into the P1 space group
# The structure has a 3D framework
# The original CSD entry MEKKOF is in the triclinic crystal system
# The framework has been calculated to contain at least 10.0% void space
# The void calculation uses a probe of radius 1.32A, grid spacing 0.4
#
###############################################################################

data_MEKKOF
_chemical_formula_moiety         '(C42 H30 N9 O8 Zn6)n'
_symmetry_cell_setting           triclinic
_symmetry_space_group_name_H-M   'P 1'
_symmetry_Int_Tables_number      1
_space_group_name_Hall           'P 1'
loop_
_symmetry_equiv_pos_site_id
_symmetry_equiv_pos_as_xyz
1 x,y,z
_cell_length_a                   11.6368(9)
_cell_length_b                   11.6437(9)
_cell_length_c                   11.8182(9)
_cell_angle_alpha                79.3990(10)
_cell_angle_beta                 64.7060(10)
_cell_angle_gamma                71.7480(10)
_cell_volume                     1372.6
loop_
_atom_site_label
_atom_site_type_symbol
_atom_site_fract_x
_atom_site_fract_y
_atom_site_fract_z
C25 C 0.1039(4) 0.0928(3) 0.0097(6)
H18 H 0.1746 0.0309 0.0162
C26 C 0.1007(4) 0.2129(3) 0.0112(6)
H19 H 0.1692 0.2314 0.0187
Zn5 Zn 0.0000 0.5000 0.0000
C24 C 0.0015(4) 0.0653(2) 0.9985(4)
Zn5_2 Zn 0.0000 0.5000 1.0000
C14 C 0.0316(4) 0.4615(3) 0.2352(4)
C17 C 0.1074(3) 0.7221(2) 0.0098(4)
H12 H 0.1781 0.6602 0.0163
C18 C 0.1042(3) 0.8422(3) 0.0113(4)
H13 H 0.1727 0.8606 0.0188
O3 O 0.0771(3) 0.4596(3) 0.3134(3)
O4 O 0.1022(3) 0.4492(3) 0.1205(3)
Zn3 Zn 0.0000 0.5000 0.5000
N12 N 0.1251(2) 0.32486(16) 0.5325(2)
O9 O 0.1504(3) 0.5828(2) 0.4533(3)
N3 N 0.0050(3) 0.6945(2) 0.9986(3)
N14 N 0.1541(3) 0.4842(3) 0.8289(3)
H6 H 0.0100 0.7250 0.3045
N6 N 0.9950(3) 0.3055(2) 0.0014(3)
C32 C 0.2681(2) 0.08541(16) 0.5462(3)
C33 C 0.1443(3) 0.1273(2) 0.6397(2)
H24 H 0.1094 0.0752 0.7069
C34 C 0.0728(2) 0.2470(2) 0.6329(2)
C35 C 0.2488(2) 0.2830(2) 0.4390(2)
H26 H 0.2838 0.3351 0.3718
C36 C 0.3204(2) 0.1633(2) 0.4458(2)
H27 H 0.4032 0.1352 0.3832
Zn5_3 Zn 1.0000 0.5000 0.0000
C22 C 0.8926(3) 0.2779(2) 0.9902(4)
H16 H 0.8219 0.3398 0.9837
C23 C 0.8958(3) 0.1578(3) 0.9887(4)
H17 H 0.8273 0.1394 0.9812
Zn5_4 Zn 1.0000 0.5000 1.0000
C1 C 0.6346(3) 0.2490(2) 0.3539(2)
H1 H 0.6539 0.2993 0.2812
C2 C 0.6900(3) 0.1246(2) 0.3477(2)
H2 H 0.7464 0.0917 0.2707
C3 C 0.6611(3) 0.04937(16) 0.4564(3)
C4 C 0.5768(3) 0.0985(2) 0.5714(2)
H3 H 0.5575 0.0482 0.6441
C5 C 0.5214(3) 0.2229(2) 0.5776(2)
H4 H 0.4650 0.2558 0.6546
N1 N 0.5503(3) 0.29811(15) 0.4689(2)
C11 C 0.7561(4) 0.4472(3) 0.5116(4)
C12 C 0.7781(3) 0.4803(3) 0.3788(4)
C13 C 0.8870(4) 0.4843(3) 0.2694(4)
C15 C 0.7161(4) 0.5309(3) 0.2246(4)
C16 C 0.6299(5) 0.5674(4) 0.1510(4)
H9 H 0.6836 0.5756 0.0633
H10 H 0.5664 0.6433 0.1780
H11 H 0.5849 0.5064 0.1650
C19 C 0.9985(4) 0.9347(2) 0.0015(4)
N4 N 0.8459(3) 0.5158(3) 0.1711(3)
N5 N 0.6695(3) 0.5122(3) 0.3473(3)
O1 O 0.6396(3) 0.4481(3) 0.5861(3)
O2 O 0.8496(3) 0.4172(2) 0.5467(3)
Zn1 Zn 0.5000 0.5000 0.5000
Zn3_2 Zn 1.0000 0.5000 0.5000
C27 C 0.3654(3) 0.7510(2) 0.6461(2)
H20 H 0.3461 0.7007 0.7188
C28 C 0.3100(3) 0.8754(2) 0.6523(2)
H21 H 0.2536 0.9083 0.7293
C29 C 0.3389(3) 0.95063(16) 0.5436(3)
C30 C 0.4232(3) 0.9015(2) 0.4286(2)
H22 H 0.4425 0.9518 0.3559
C31 C 0.4786(3) 0.7771(2) 0.4224(2)
H23 H 0.5350 0.7442 0.3454
N7 N 0.4497(3) 0.70189(15) 0.5311(2)
C37 C 0.2439(4) 0.5528(3) 0.4884(4)
C38 C 0.2219(3) 0.5197(3) 0.6212(4)
C39 C 0.1130(4) 0.5157(3) 0.7306(4)
C41 C 0.2839(4) 0.4691(3) 0.7754(4)
C42 C 0.3701(5) 0.4326(4) 0.8490(4)
H28 H 0.3164 0.4244 0.9367
H29 H 0.4336 0.3567 0.8220
H30 H 0.4151 0.4936 0.8350
N10 N 0.3305(3) 0.4878(3) 0.6527(3)
O5 O 0.3604(3) 0.5519(3) 0.4139(3)
N11 N 0.8749(2) 0.67514(16) 0.4675(2)
O10 O 0.9229(3) 0.5404(3) 0.6866(3)
C20 C 0.8961(4) 0.9072(3) 0.9903(6)
H14 H 0.8254 0.9691 0.9838
C21 C 0.8993(4) 0.7871(3) 0.9888(6)
H15 H 0.8308 0.7686 0.9813
O11 O 0.8978(3) 0.5508(3) 0.8795(3)
C6 C 0.7319(2) 0.91459(16) 0.4538(3)
C7 C 0.8557(3) 0.8727(2) 0.3603(2)
H5 H 0.8906 0.9248 0.2931
C8 C 0.9272(2) 0.7530(2) 0.3671(2)
C9 C 0.7512(2) 0.7170(2) 0.5610(2)
H7 H 0.7162 0.6649 0.6282
C10 C 0.6796(2) 0.8367(2) 0.5542(2)
H8 H 0.5968 0.8648 0.6168
H25 H 0.9900 0.2750 0.6955
C40 C 0.9684(4) 0.5385(3) 0.7648(4)
loop_
_geom_bond_atom_site_label_1
_geom_bond_atom_site_label_2
_geom_bond_site_symmetry_1
_geom_bond_site_symmetry_2
H18 C25 1_555 1_555
C26 C25 1_555 1_555
H19 C26 1_555 1_555
C14 O3 1_555 1_555
C17 H12 1_555 1_555
C18 C17 1_555 1_555
H13 C18 1_555 1_555
O3 Zn3 1_555 1_555
O4 C14 1_555 1_555
N12 Zn3 1_555 1_555
O9 Zn3 1_555 1_555
O4 Zn5 1_555 1_555
Zn5_2 N3 1_555 1_555
N14 Zn5_2 1_555 1_555
C33 C32 1_555 1_555
H24 C33 1_555 1_555
C34 C33 1_555 1_555
N12 C34 1_555 1_555
C35 N12 1_555 1_555
H26 C35 1_555 1_555
C36 C32 1_555 1_555
H27 C36 1_555 1_555
Zn5_3 N6 1_555 1_555
C35 C36 1_555 1_555
C22 H16 1_555 1_555
C23 C22 1_555 1_555
H17 C23 1_555 1_555
C1 H1 1_555 1_555
C2 C1 1_555 1_555
H2 C2 1_555 1_555
C3 C2 1_555 1_555
C4 C3 1_555 1_555
H3 C4 1_555 1_555
C5 C4 1_555 1_555
H4 C5 1_555 1_555
N1 C1 1_555 1_555
C11 C12 1_555 1_555
C12 C13 1_555 1_555
C15 C16 1_555 1_555
C16 H9 1_555 1_555
H10 C16 1_555 1_555
H11 C16 1_555 1_555
N4 C13 1_555 1_555
N5 C12 1_555 1_555
O1 C11 1_555 1_555
O2 C11 1_555 1_555
Zn1 N1 1_555 1_555
Zn3_2 O2 1_555 1_555
C27 H20 1_555 1_555
C28 C27 1_555 1_555
H21 C28 1_555 1_555
C29 C28 1_555 1_555
C30 C29 1_555 1_555
H22 C30 1_555 1_555
C31 C30 1_555 1_555
H23 C31 1_555 1_555
N7 Zn1 1_555 1_555
C37 C38 1_555 1_555
C38 C39 1_555 1_555
C41 C42 1_555 1_555
C42 H28 1_555 1_555
H29 C42 1_555 1_555
H30 C42 1_555 1_555
N14 C39 1_555 1_555
N10 Zn1 1_555 1_555
O5 Zn1 1_555 1_555
O9 C37 1_555 1_555
N11 Zn3_2 1_555 1_555
O10 Zn3_2 1_555 1_555
C5 N1 1_555 1_555
C15 N4 1_555 1_555
C15 N5 1_555 1_555
N4 Zn5_3 1_555 1_555
N5 Zn1 1_555 1_555
O1 Zn1 1_555 1_555
C27 N7 1_555 1_555
C31 N7 1_555 1_555
C37 O5 1_555 1_555
C38 N10 1_555 1_555
C41 N14 1_555 1_555
C41 N10 1_555 1_555
H14 C20 1_555 1_555
C21 C20 1_555 1_555
H15 C21 1_555 1_555
O11 Zn5_4 1_555 1_555
C7 C6 1_555 1_555
H5 C7 1_555 1_555
C8 C7 1_555 1_555
N11 C8 1_555 1_555
C9 N11 1_555 1_555
H7 C9 1_555 1_555
C10 C6 1_555 1_555
H8 C10 1_555 1_555
C9 C10 1_555 1_555
C40 O10 1_555 1_555
O11 C40 1_555 1_555

#END
