
###############################################################################
#
# This file contains modified crystal structure data generated from the
# MOF subset of the Cambridge Structural Database (CSD) v543 
# hosted by the Cambridge Crystallographic Data Centre (CCDC).
#
# This work is licensed under the Creative Commons
# Attribution-NonCommercial-ShareAlike 4.0 International License.
# To view a copy of this license, visit
# http://creativecommons.org/licenses/by-nc-sa/4.0/
# or send a letter to
# Creative Commons, PO Box 1866, Mountain View, CA 94042, USA.
#
# CIF created using the CSD Python API on 29 September 2022
# The structure has been converted into the P1 space group
# The structure has a 3D framework
# The original CSD entry MEKLIA is in the triclinic crystal system
# The framework has been calculated to contain at least 10.0% void space
# The void calculation uses a probe of radius 1.32A, grid spacing 0.4
#
###############################################################################

data_MEKLIA
_chemical_formula_moiety         '(C42 H30 Co4 N10 O8)n'
_symmetry_cell_setting           triclinic
_symmetry_space_group_name_H-M   'P 1'
_symmetry_Int_Tables_number      1
_space_group_name_Hall           'P 1'
loop_
_symmetry_equiv_pos_site_id
_symmetry_equiv_pos_as_xyz
1 x,y,z
_cell_length_a                   11.525(2)
_cell_length_b                   11.613(2)
_cell_length_c                   11.769(2)
_cell_angle_alpha                65.61(3)
_cell_angle_beta                 79.25(3)
_cell_angle_gamma                72.08(3)
_cell_volume                     1361.77
loop_
_atom_site_label
_atom_site_type_symbol
_atom_site_fract_x
_atom_site_fract_y
_atom_site_fract_z
C4 C 0.0499(3) 0.1603(3) 0.4585(3)
C9 C 0.1012(3) 0.0757(3) 0.5712(3)
H5 H 0.0513 0.0554 0.6448
C10 C 0.1296(3) 0.1803(4) 0.3526(3)
H6 H 0.0997 0.2324 0.2742
C18 C 0.2256(3) 0.0219(3) 0.5740(3)
C19 C 0.2535(3) 0.1228(4) 0.3633(3)
H12 H 0.3048 0.1377 0.2906
N5 N 0.3034(2) 0.0471(2) 0.4723(2)
Co8 Co 0.5000 0.0000 0.5000
H11 H 0.2573 0.9650 0.6506
Co8_2 Co 0.5000 1.0000 0.5000
Co5 Co 0.5000 0.5000 0.0000
N1 N 0.5131(2) 0.1690(2) 0.3474(2)
C1 C 0.4473(3) 0.2561(2) 0.5121(2)
O1 O 0.4494(2) 0.13900(18) 0.58626(18)
Co1 Co 0.5000 0.5000 0.5000
N2 N 0.6746(2) 0.3755(2) 0.4659(2)
C2 C 0.8346(3) 0.1827(3) 0.5524(3)
H1 H 0.8584 0.1010 0.6158
C3 C 0.9182(3) 0.2297(3) 0.4558(3)
C5 C 0.8751(3) 0.3508(3) 0.3607(3)
H2 H 0.9269 0.3856 0.2926
C6 C 0.7538(3) 0.4181(3) 0.3699(3)
H3 H 0.7257 0.4978 0.3053
C8 C 0.7164(3) 0.2575(3) 0.5540(3)
H4 H 0.6622 0.2242 0.6202
C11 C 0.1606(3) 0.3898(3) 0.0091(4)
H7 H 0.1449 0.3129 0.0169
C12 C 0.2787(3) 0.3940(3) 0.0075(4)
H8 H 0.3411 0.3190 0.0130
O2 O 0.4509(2) 0.60058(18) 0.12180(17)
N4 N 0.5156(2) 0.3448(2) 0.1708(2)
O3 O 0.4176(2) 0.34927(19) 0.54907(18)
O4 O 0.4557(2) 0.57467(18) 0.31742(18)
C15 C 0.4611(3) 0.5285(2) 0.2363(2)
C16 C 0.4822(2) 0.3861(2) 0.2693(2)
C17 C 0.5341(3) 0.2140(2) 0.2225(2)
C20 C 0.5755(4) 0.1289(3) 0.1495(3)
H13 H 0.6551 0.0725 0.1726
H14 H 0.5791 0.1822 0.0619
H15 H 0.5190 0.0769 0.1668
C21 C 0.4803(2) 0.2774(2) 0.3782(2)
N7 N 0.3254(2) 0.6245(2) 0.5341(2)
C27 C 0.1654(3) 0.8173(3) 0.4476(3)
H20 H 0.1416 0.8990 0.3842
C28 C 0.0818(3) 0.7703(3) 0.5442(3)
C30 C 0.1249(3) 0.6492(3) 0.6393(3)
H21 H 0.0731 0.6144 0.7074
C31 C 0.2462(3) 0.5819(3) 0.6301(3)
H22 H 0.2743 0.5022 0.6947
C32 C 0.2836(3) 0.7425(3) 0.4460(3)
H23 H 0.3378 0.7758 0.3798
N9 N 0.4869(2) 0.8310(2) 0.6526(2)
C37 C 0.5527(3) 0.7439(2) 0.4879(2)
O5 O 0.5506(2) 0.86100(18) 0.41374(18)
O6 O 0.5491(2) 0.39942(18) 0.87820(17)
N10 N 0.4844(2) 0.6552(2) 0.8292(2)
O7 O 0.5824(2) 0.65073(19) 0.45093(18)
O8 O 0.5443(2) 0.42533(18) 0.68258(18)
C38 C 0.5389(3) 0.4715(2) 0.7637(2)
C39 C 0.5178(2) 0.6139(2) 0.7307(2)
C40 C 0.4659(3) 0.7860(2) 0.7775(2)
C41 C 0.4245(4) 0.8711(3) 0.8505(3)
H28 H 0.3449 0.9275 0.8274
H29 H 0.4209 0.8178 0.9381
H30 H 0.4810 0.9231 0.8332
C42 C 0.5197(2) 0.7226(2) 0.6218(2)
Co5_2 Co 0.5000 0.5000 1.0000
N12 N 0.6910(2) 0.5003(3) 0.0016(2)
N3 N 0.3090(2) 0.4997(3) 0.9984(2)
C7 C 0.0648(3) 0.4998(3) 0.9991(3)
C13 C 0.2181(3) 0.6062(4) 0.9856(5)
H9 H 0.2372 0.6821 0.9760
C14 C 0.0967(4) 0.6113(4) 0.9856(5)
H10 H 0.0367 0.6887 0.9766
N15 N 0.6966(2) 0.9529(2) 0.5277(2)
H26 H 0.7427 0.0350 0.3494
C22 C 0.9352(3) 0.5002(3) 0.0009(3)
C25 C 0.7819(3) 0.3938(4) 0.0144(5)
H18 H 0.7628 0.3179 0.0240
C26 C 0.9033(4) 0.3887(4) 0.0144(5)
H19 H 0.9633 0.3113 0.0234
C29 C 0.9501(3) 0.8397(3) 0.5415(3)
C33 C 0.8988(3) 0.9243(3) 0.4288(3)
H24 H 0.9487 0.9446 0.3552
C34 C 0.8704(3) 0.8197(4) 0.6474(3)
H25 H 0.9003 0.7676 0.7258
C35 C 0.7744(3) 0.9781(3) 0.4260(3)
C36 C 0.7465(3) 0.8772(4) 0.6367(3)
H27 H 0.6952 0.8623 0.7094
C23 C 0.8394(3) 0.6102(3) 0.9909(4)
H16 H 0.8551 0.6871 0.9831
C24 C 0.7213(3) 0.6060(3) 0.9925(4)
H17 H 0.6589 0.6810 0.9870
loop_
_geom_bond_atom_site_label_1
_geom_bond_atom_site_label_2
_geom_bond_site_symmetry_1
_geom_bond_site_symmetry_2
C9 C4 1_555 1_555
H5 C9 1_555 1_555
C10 C4 1_555 1_555
H6 C10 1_555 1_555
C18 C9 1_555 1_555
C19 C10 1_555 1_555
H12 C19 1_555 1_555
N5 C18 1_555 1_555
Co8 N5 1_555 1_555
C19 N5 1_555 1_555
N1 C17 1_555 1_555
C1 O1 1_555 1_555
O1 Co8 1_555 1_555
Co1 N2 1_555 1_555
N2 C6 1_555 1_555
C2 H1 1_555 1_555
C3 C2 1_555 1_555
C5 C3 1_555 1_555
H2 C5 1_555 1_555
C6 C5 1_555 1_555
H3 C6 1_555 1_555
C8 N2 1_555 1_555
H4 C8 1_555 1_555
C11 H7 1_555 1_555
C12 C11 1_555 1_555
H8 C12 1_555 1_555
O2 Co5 1_555 1_555
N4 Co5 1_555 1_555
O3 C1 1_555 1_555
O4 Co1 1_555 1_555
C15 O2 1_555 1_555
C16 N4 1_555 1_555
C17 N4 1_555 1_555
C20 C17 1_555 1_555
H13 C20 1_555 1_555
H14 C20 1_555 1_555
H15 C20 1_555 1_555
C21 N1 1_555 1_555
Co8 N1 1_555 1_555
N7 Co1 1_555 1_555
C27 H20 1_555 1_555
C28 C27 1_555 1_555
C30 C28 1_555 1_555
H21 C30 1_555 1_555
C31 N7 1_555 1_555
H22 C31 1_555 1_555
C32 N7 1_555 1_555
H23 C32 1_555 1_555
N9 C40 1_555 1_555
C37 O5 1_555 1_555
O5 Co8_2 1_555 1_555
O6 C38 1_555 1_555
N10 C39 1_555 1_555
O7 Co1 1_555 1_555
O8 Co1 1_555 1_555
C38 O8 1_555 1_555
C39 C38 1_555 1_555
C40 N10 1_555 1_555
C41 C40 1_555 1_555
H28 C41 1_555 1_555
H29 C41 1_555 1_555
H30 C41 1_555 1_555
C42 N9 1_555 1_555
Co5_2 O6 1_555 1_555
N12 Co5 1_555 1_555
Co8_2 N9 1_555 1_555
C1 C21 1_555 1_555
Co1 O3 1_555 1_555
C2 C8 1_555 1_555
O4 C15 1_555 1_555
C15 C16 1_555 1_555
C16 C21 1_555 1_555
C27 C32 1_555 1_555
C30 C31 1_555 1_555
C37 O7 1_555 1_555
C37 C42 1_555 1_555
N10 Co5_2 1_555 1_555
C39 C42 1_555 1_555
Co5_2 N3 1_555 1_555
C13 N3 1_555 1_555
H9 C13 1_555 1_555
C14 C7 1_555 1_555
H10 C14 1_555 1_555
C13 C14 1_555 1_555
N15 Co8_2 1_555 1_555
C25 N12 1_555 1_555
H18 C25 1_555 1_555
C26 C22 1_555 1_555
H19 C26 1_555 1_555
C33 C29 1_555 1_555
H24 C33 1_555 1_555
C34 C29 1_555 1_555
H25 C34 1_555 1_555
C35 C33 1_555 1_555
C36 C34 1_555 1_555
H27 C36 1_555 1_555
N15 C35 1_555 1_555
C25 C26 1_555 1_555
C36 N15 1_555 1_555
H16 C23 1_555 1_555
C24 C23 1_555 1_555
H17 C24 1_555 1_555

#END
