
###############################################################################
#
# This file contains modified crystal structure data generated from the
# MOF subset of the Cambridge Structural Database (CSD) v543 
# hosted by the Cambridge Crystallographic Data Centre (CCDC).
#
# This work is licensed under the Creative Commons
# Attribution-NonCommercial-ShareAlike 4.0 International License.
# To view a copy of this license, visit
# http://creativecommons.org/licenses/by-nc-sa/4.0/
# or send a letter to
# Creative Commons, PO Box 1866, Mountain View, CA 94042, USA.
#
# CIF created using the CSD Python API on 29 September 2022
# The structure has been converted into the P1 space group
# The structure has a 3D framework
# The original CSD entry MENTOR is in the monoclinic crystal system
# The framework has been calculated to contain at least 10.0% void space
# The void calculation uses a probe of radius 1.32A, grid spacing 0.4
#
###############################################################################

data_MENTOR
_chemical_formula_moiety         '(C60 H64 N24 O49 Tb8)n'
_symmetry_cell_setting           triclinic
_symmetry_space_group_name_H-M   'P 1'
_symmetry_Int_Tables_number      1
_space_group_name_Hall           'P 1'
loop_
_symmetry_equiv_pos_site_id
_symmetry_equiv_pos_as_xyz
1 x,y,z
_cell_length_a                   9.726(3)
_cell_length_b                   16.870(5)
_cell_length_c                   15.837(5)
_cell_angle_alpha                90
_cell_angle_beta                 98.868(6)
_cell_angle_gamma                90
_cell_volume                     2567.44
loop_
_atom_site_label
_atom_site_type_symbol
_atom_site_fract_x
_atom_site_fract_y
_atom_site_fract_z
Tb6 Tb 0.05713(5) 0.53736(3) 0.12557(4)
O16 O 0.1502(9) 0.4980(5) 0.9367(6)
O21 O 0.0879(10) 0.3667(5) 0.8146(6)
C1 C 0.5127(12) 0.4115(7) 0.0689(9)
C2 C 0.6176(14) 0.3351(6) 0.1803(9)
C3 C 0.3872(12) 0.3127(7) 0.1236(8)
C4 C 0.6380(16) 0.5256(8) 0.0320(10)
H1 H 0.6744 0.5301 0.0924
H2 H 0.6148 0.5784 0.0101
C8 C 0.8657(13) 0.3428(7) 0.2160(9)
H5 H 0.8663 0.3551 0.1563
H6 H 0.9377 0.3037 0.2336
C9 C 0.8951(15) 0.4189(7) 0.2707(9)
C10 C 0.7116(13) 0.2513(7) 0.2978(9)
H7 H 0.8007 0.2426 0.3335
H8 H 0.6488 0.2736 0.3335
C11 C 0.6549(14) 0.1735(8) 0.2631(8)
C12 C 0.2422(11) 0.2333(7) 0.1972(8)
H9 H 0.1426 0.2265 0.1943
H10 H 0.2753 0.2645 0.2478
C13 C 0.3131(15) 0.1508(7) 0.2062(9)
C14 C 0.1710(12) 0.2792(7) 0.0475(9)
H11 H 0.1140 0.2318 0.0449
C15 C 0.0798(13) 0.3485(8) 0.0407(10)
N1 N 0.5138(12) 0.4772(6) 0.0212(7)
N2 N 0.7305(11) 0.3109(6) 0.2273(7)
N3 N 0.2690(10) 0.2765(6) 0.1221(7)
N4 N 0.6338(10) 0.3963(5) 0.1275(7)
N5 N 0.4964(11) 0.2989(6) 0.1902(7)
N6 N 0.3915(10) 0.3694(6) 0.0617(8)
O1 O 0.8721(9) 0.5082(5) 0.0131(6)
O3 O 0.2611(12) 0.5365(5) 0.0576(7)
O5 O 0.9665(9) 0.4767(4) 0.2401(6)
O6 O 0.8628(9) 0.4255(5) 0.3421(7)
O7 O 0.6763(8) 0.1470(4) 0.1921(6)
O8 O 0.5879(10) 0.1333(5) 0.3146(6)
O9 O 0.3625(9) 0.1175(4) 0.1458(6)
O10 O 0.2935(9) 0.1189(5) 0.2748(7)
O11 O 0.0900(8) 0.4012(5) 0.0983(6)
O13 O 0.0276(9) 0.6497(5) 0.0194(6)
H14 H 0.1074 0.6711 0.0224
O14 O 0.2477(10) 0.4820(5) 0.2337(6)
H15 H 0.2867 0.5211 0.2617
H16 H 0.3079 0.4618 0.2064
O20 O 0.1763(8) 0.6470(4) 0.1921(6)
Tb4 Tb 0.94474(6) 0.55451(3) 0.37535(4)
Tb5 Tb 0.44474(6) 0.05451(3) 0.37535(4)
Tb7 Tb 0.55713(5) 0.03736(3) 0.12557(4)
C5 C 0.7492(16) 0.4897(8) 0.9851(9)
C6 C 0.3925(13) 0.4918(8) 0.9526(9)
H3 H 0.3762 0.4452 0.9165
H4 H 0.4134 0.5358 0.9172
C7 C 0.2616(14) 0.5106(7) 0.9914(10)
H12 H 0.2200 0.2784 0.9986
O2 O 0.7195(11) 0.4460(5) 0.9221(7)
H13 H 0.0103 0.6283 0.9703
Tb1 Tb 0.94474(6) 0.44549(3) 0.87535(4)
O18 O 0.9665(9) 0.5233(4) 0.7401(6)
O19 O 0.8628(9) 0.5745(5) 0.8421(7)
O23 O 0.7935(9) 0.3811(5) 0.7748(7)
O24 O 0.9766(9) 0.3492(5) 0.9768(6)
O22 O 0.8625(9) 0.6175(4) 0.1458(6)
O16_2 O 0.1502(9) 0.5020(5) 0.4367(6)
O21_2 O 0.0879(10) 0.6333(5) 0.3146(6)
Tb6_2 Tb 0.05713(5) 0.46264(3) 0.62557(4)
C1_2 C 0.5127(12) 0.5885(7) 0.5689(9)
C2_2 C 0.6176(14) 0.6649(6) 0.6803(9)
C3_2 C 0.3872(12) 0.6873(7) 0.6236(8)
C4_2 C 0.6380(16) 0.4744(8) 0.5320(10)
H1_2 H 0.6744 0.4699 0.5924
H2_2 H 0.6148 0.4216 0.5101
C5_2 C 0.7492(16) 0.5103(8) 0.4851(9)
C6_2 C 0.3925(13) 0.5082(8) 0.4526(9)
H3_2 H 0.3762 0.5548 0.4165
H4_2 H 0.4134 0.4642 0.4172
C7_2 C 0.2616(14) 0.4894(7) 0.4914(10)
C8_2 C 0.8657(13) 0.6572(7) 0.7160(9)
H5_2 H 0.8663 0.6449 0.6563
H6_2 H 0.9377 0.6963 0.7336
C9_2 C 0.8951(15) 0.5811(7) 0.7707(9)
C10_2 C 0.7116(13) 0.7487(7) 0.7978(9)
H7_2 H 0.8007 0.7574 0.8335
H8_2 H 0.6488 0.7264 0.8335
C11_2 C 0.6549(14) 0.8265(8) 0.7631(8)
C12_2 C 0.2422(11) 0.7667(7) 0.6972(8)
H9_2 H 0.1426 0.7735 0.6943
H10_2 H 0.2753 0.7355 0.7478
C13_2 C 0.3131(15) 0.8492(7) 0.7062(9)
C14_2 C 0.1710(12) 0.7208(7) 0.5475(9)
H11_2 H 0.1140 0.7682 0.5449
H12_2 H 0.2200 0.7216 0.4986
C15_2 C 0.0798(13) 0.6515(8) 0.5407(10)
N1_2 N 0.5138(12) 0.5228(6) 0.5212(7)
N2_2 N 0.7305(11) 0.6891(6) 0.7273(7)
N3_2 N 0.2690(10) 0.7235(6) 0.6221(7)
N4_2 N 0.6338(10) 0.6037(5) 0.6275(7)
N5_2 N 0.4964(11) 0.7011(6) 0.6902(7)
N6_2 N 0.3915(10) 0.6306(6) 0.5617(8)
O1_2 O 0.8721(9) 0.4918(5) 0.5131(6)
O2_2 O 0.7195(11) 0.5540(5) 0.4221(7)
O3_2 O 0.2611(12) 0.4635(5) 0.5576(7)
O7_2 O 0.6763(8) 0.8530(4) 0.6921(6)
O8_2 O 0.5879(10) 0.8667(5) 0.8146(6)
O9_2 O 0.3625(9) 0.8825(4) 0.6458(6)
O10_2 O 0.2935(9) 0.8811(5) 0.7748(7)
O11_2 O 0.0900(8) 0.5988(5) 0.5983(6)
O13_2 O 0.0276(9) 0.3503(5) 0.5194(6)
H13_2 H 0.0103 0.3717 0.4703
H14_2 H 0.1074 0.3289 0.5224
O14_2 O 0.2477(10) 0.5180(5) 0.7337(6)
H15_2 H 0.2867 0.4789 0.7617
H16_2 H 0.3079 0.5382 0.7064
O20_2 O 0.1763(8) 0.3530(4) 0.6921(6)
O23_2 O 0.7935(9) 0.6189(5) 0.2748(7)
O24_2 O 0.9766(9) 0.6508(5) 0.4768(6)
Tb5_2 Tb 0.44474(6) 0.94549(3) 0.87535(4)
Tb7_2 Tb 0.55713(5) 0.96264(3) 0.62557(4)
O22_2 O 0.8625(9) 0.3825(4) 0.6458(6)
C4_3 C 0.1380(16) 0.0256(8) 0.0320(10)
H1_3 H 0.1744 0.0301 0.0924
H2_3 H 0.1148 0.0784 0.0101
O1_3 O 0.3721(9) 0.0082(5) 0.0131(6)
O18_2 O 0.4665(9) 0.0233(4) 0.7401(6)
O19_2 O 0.3628(9) 0.0745(5) 0.8421(7)
C1_3 C 0.0127(12) 0.9115(7) 0.0689(9)
C2_3 C 0.1176(14) 0.8351(6) 0.1803(9)
C8_3 C 0.3657(13) 0.8428(7) 0.2160(9)
H5_3 H 0.3663 0.8551 0.1563
H6_3 H 0.4377 0.8037 0.2336
C9_3 C 0.3951(15) 0.9189(7) 0.2707(9)
C10_3 C 0.2116(13) 0.7513(7) 0.2978(9)
H7_3 H 0.3007 0.7426 0.3335
H8_3 H 0.1488 0.7736 0.3335
C11_3 C 0.1549(14) 0.6735(8) 0.2631(8)
N1_3 N 0.0138(12) 0.9772(6) 0.0212(7)
N2_3 N 0.2305(11) 0.8109(6) 0.2273(7)
N4_3 N 0.1338(10) 0.8963(5) 0.1275(7)
O5_2 O 0.4665(9) 0.9767(4) 0.2401(6)
O6_2 O 0.3628(9) 0.9255(5) 0.3421(7)
C5_3 C 0.2492(16) 0.9897(8) 0.9851(9)
O2_3 O 0.2195(11) 0.9460(5) 0.9221(7)
O16_3 O 0.6502(9) 0.9980(5) 0.9367(6)
O24_3 O 0.4766(9) 0.8492(5) 0.9768(6)
O3_3 O 0.7611(12) 0.0365(5) 0.0576(7)
O13_3 O 0.5276(9) 0.1497(5) 0.0194(6)
H14_3 H 0.6074 0.1711 0.0224
H15_3 H 0.7867 0.0211 0.2617
C3_3 C 0.8872(12) 0.8127(7) 0.1236(8)
C12_3 C 0.7422(11) 0.7333(7) 0.1972(8)
H9_3 H 0.6426 0.7265 0.1943
H10_3 H 0.7753 0.7645 0.2478
C13_3 C 0.8131(15) 0.6508(7) 0.2062(9)
C14_3 C 0.6710(12) 0.7792(7) 0.0475(9)
H11_3 H 0.6140 0.7318 0.0449
C15_3 C 0.5798(13) 0.8485(8) 0.0407(10)
N3_3 N 0.7690(10) 0.7765(6) 0.1221(7)
N5_3 N 0.9964(11) 0.7989(6) 0.1902(7)
N6_3 N 0.8915(10) 0.8694(6) 0.0617(8)
O11_3 O 0.5900(8) 0.9012(5) 0.0983(6)
O14_3 O 0.7477(10) 0.9820(5) 0.2337(6)
H16_3 H 0.8079 0.9618 0.2064
C6_3 C 0.8925(13) 0.9918(8) 0.9526(9)
H3_3 H 0.8762 0.9452 0.9165
H12_3 H 0.7200 0.7784 0.9986
C1_4 C 0.0127(12) 0.0885(7) 0.5689(9)
C2_4 C 0.1176(14) 0.1649(6) 0.6803(9)
C5_4 C 0.2492(16) 0.0103(8) 0.4851(9)
C8_4 C 0.3657(13) 0.1572(7) 0.7160(9)
H5_4 H 0.3663 0.1449 0.6563
H6_4 H 0.4377 0.1963 0.7336
C9_4 C 0.3951(15) 0.0811(7) 0.7707(9)
C10_4 C 0.2116(13) 0.2487(7) 0.7978(9)
H7_4 H 0.3007 0.2574 0.8335
H8_4 H 0.1488 0.2264 0.8335
C11_4 C 0.1549(14) 0.3265(8) 0.7631(8)
N1_4 N 0.0138(12) 0.0228(6) 0.5212(7)
N2_4 N 0.2305(11) 0.1891(6) 0.7273(7)
N4_4 N 0.1338(10) 0.1037(5) 0.6275(7)
O2_4 O 0.2195(11) 0.0540(5) 0.4221(7)
O16_4 O 0.6502(9) 0.0020(5) 0.4367(6)
O24_4 O 0.4766(9) 0.1508(5) 0.4768(6)
C4_4 C 0.1380(16) 0.9744(8) 0.5320(10)
H1_4 H 0.1744 0.9699 0.5924
H2_4 H 0.1148 0.9216 0.5101
O1_4 O 0.3721(9) 0.9918(5) 0.5131(6)
C3_4 C 0.8872(12) 0.1873(7) 0.6236(8)
C6_4 C 0.8925(13) 0.0082(8) 0.4526(9)
H3_4 H 0.8762 0.0548 0.4165
C12_4 C 0.7422(11) 0.2667(7) 0.6972(8)
H9_4 H 0.6426 0.2735 0.6943
H10_4 H 0.7753 0.2355 0.7478
C13_4 C 0.8131(15) 0.3492(7) 0.7062(9)
C14_4 C 0.6710(12) 0.2208(7) 0.5475(9)
H11_4 H 0.6140 0.2682 0.5449
H12_4 H 0.7200 0.2216 0.4986
C15_4 C 0.5798(13) 0.1515(8) 0.5407(10)
N3_4 N 0.7690(10) 0.2235(6) 0.6221(7)
N5_4 N 0.9964(11) 0.2011(6) 0.6902(7)
N6_4 N 0.8915(10) 0.1306(6) 0.5617(8)
O11_4 O 0.5900(8) 0.0988(5) 0.5983(6)
O14_4 O 0.7477(10) 0.0180(5) 0.7337(6)
H16_4 H 0.8079 0.0382 0.7064
H4_3 H 0.9134 0.9642 0.4172
C7_3 C 0.7616(14) 0.9894(7) 0.4914(10)
O3_4 O 0.7611(12) 0.9635(5) 0.5576(7)
O13_4 O 0.5276(9) 0.8503(5) 0.5194(6)
H13_3 H 0.5103 0.8717 0.4703
H14_4 H 0.6074 0.8289 0.5224
H15_4 H 0.7867 0.9789 0.7617
H4_4 H 0.9134 0.0358 0.9172
C7_4 C 0.7616(14) 0.0106(7) 0.9914(10)
H13_4 H 0.5103 0.1283 0.9703
loop_
_geom_bond_atom_site_label_1
_geom_bond_atom_site_label_2
_geom_bond_site_symmetry_1
_geom_bond_site_symmetry_2
C1 N1 1_555 1_555
C2 N2 1_555 1_555
C3 N3 1_555 1_555
C4 H1 1_555 1_555
H2 C4 1_555 1_555
C8 H5 1_555 1_555
H6 C8 1_555 1_555
C9 C8 1_555 1_555
C10 H7 1_555 1_555
H8 C10 1_555 1_555
C11 C10 1_555 1_555
C12 H9 1_555 1_555
H10 C12 1_555 1_555
C13 C12 1_555 1_555
C14 H11 1_555 1_555
C15 C14 1_555 1_555
N1 C4 1_555 1_555
N2 C8 1_555 1_555
N3 C12 1_555 1_555
N4 C1 1_555 1_555
N5 C2 1_555 1_555
N6 C1 1_555 1_555
O5 C9 1_555 1_555
O6 C9 1_555 1_555
O7 C11 1_555 1_555
O8 C11 1_555 1_555
O9 C13 1_555 1_555
O10 C13 1_555 1_555
O11 C15 1_555 1_555
H14 O13 1_555 1_555
O14 H15 1_555 1_555
H16 O14 1_555 1_555
Tb6 O3 1_555 1_555
O20 Tb6 1_555 1_555
Tb4 O5 1_555 1_555
Tb5 O8 1_555 1_555
Tb7 O7 1_555 1_555
C2 N4 1_555 1_555
C3 N5 1_555 1_555
C3 N6 1_555 1_555
C10 N2 1_555 1_555
C14 N3 1_555 1_555
O6 Tb4 1_555 1_555
O9 Tb7 1_555 1_555
O10 Tb5 1_555 1_555
O11 Tb6 1_555 1_555
O13 Tb6 1_555 1_555
O14 Tb6 1_555 1_555
C6 H3 1_555 1_555
H4 C6 1_555 1_555
C7 C6 1_555 1_555
O2 C5 1_555 1_555
O16 C7 1_555 1_555
O18 Tb1 1_555 1_555
O19 Tb1 1_555 1_555
O23 Tb1 1_555 1_555
O24 Tb1 1_555 1_555
O2 Tb1 1_555 1_555
C1_2 N1_2 1_555 1_555
C2_2 N2_2 1_555 1_555
C3_2 N3_2 1_555 1_555
C4_2 H1_2 1_555 1_555
H2_2 C4_2 1_555 1_555
C5_2 C4_2 1_555 1_555
C6_2 H3_2 1_555 1_555
H4_2 C6_2 1_555 1_555
C7_2 C6_2 1_555 1_555
C8_2 H5_2 1_555 1_555
H6_2 C8_2 1_555 1_555
C9_2 C8_2 1_555 1_555
C10_2 H7_2 1_555 1_555
H8_2 C10_2 1_555 1_555
C11_2 C10_2 1_555 1_555
C12_2 H9_2 1_555 1_555
H10_2 C12_2 1_555 1_555
C13_2 C12_2 1_555 1_555
C14_2 H11_2 1_555 1_555
H12_2 C14_2 1_555 1_555
C15_2 C14_2 1_555 1_555
N1_2 C4_2 1_555 1_555
N2_2 C8_2 1_555 1_555
N3_2 C12_2 1_555 1_555
N4_2 C1_2 1_555 1_555
N5_2 C2_2 1_555 1_555
N6_2 C1_2 1_555 1_555
O1_2 C5_2 1_555 1_555
O2_2 C5_2 1_555 1_555
O3_2 C7_2 1_555 1_555
O16_2 C7_2 1_555 1_555
O18 C9_2 1_555 1_555
O19 C9_2 1_555 1_555
O7_2 C11_2 1_555 1_555
O8_2 C11_2 1_555 1_555
O9_2 C13_2 1_555 1_555
O10_2 C13_2 1_555 1_555
O11_2 C15_2 1_555 1_555
O13_2 H13_2 1_555 1_555
H14_2 O13_2 1_555 1_555
O14_2 H15_2 1_555 1_555
H16_2 O14_2 1_555 1_555
Tb4 O1_2 1_555 1_555
Tb6_2 O3_2 1_555 1_555
O20_2 Tb6_2 1_555 1_555
O23_2 Tb4 1_555 1_555
O24_2 Tb4 1_555 1_555
Tb5_2 O8_2 1_555 1_555
Tb7_2 O7_2 1_555 1_555
C2_2 N4_2 1_555 1_555
C3_2 N5_2 1_555 1_555
C3_2 N6_2 1_555 1_555
C6_2 N1_2 1_555 1_555
C10_2 N2_2 1_555 1_555
C14_2 N3_2 1_555 1_555
O2_2 Tb4 1_555 1_555
O9_2 Tb7_2 1_555 1_555
O10_2 Tb5_2 1_555 1_555
O11_2 Tb6_2 1_555 1_555
O13_2 Tb6_2 1_555 1_555
O14_2 Tb6_2 1_555 1_555
C4_3 H1_3 1_555 1_555
H2_3 C4_3 1_555 1_555
Tb7 O1_3 1_555 1_555
C1_3 N1_3 1_555 1_555
C2_3 N2_3 1_555 1_555
C8_3 H5_3 1_555 1_555
H6_3 C8_3 1_555 1_555
C9_3 C8_3 1_555 1_555
C10_3 H7_3 1_555 1_555
H8_3 C10_3 1_555 1_555
C11_3 C10_3 1_555 1_555
N2_3 C8_3 1_555 1_555
N4_3 C1_3 1_555 1_555
O5_2 C9_3 1_555 1_555
O6_2 C9_3 1_555 1_555
O20 C11_3 1_555 1_555
O21_2 C11_3 1_555 1_555
C2_3 N4_3 1_555 1_555
C10_3 N2_3 1_555 1_555
O2_3 C5_3 1_555 1_555
O16_3 Tb5_2 1_555 1_555
O24_3 Tb5_2 1_555 1_555
O2_3 Tb5_2 1_555 1_555
H14_3 O13_3 1_555 1_555
Tb7 O3_3 1_555 1_555
O13_3 Tb7 1_555 1_555
C3_3 N3_3 1_555 1_555
C12_3 H9_3 1_555 1_555
H10_3 C12_3 1_555 1_555
C13_3 C12_3 1_555 1_555
C14_3 H11_3 1_555 1_555
C15_3 C14_3 1_555 1_555
N3_3 C12_3 1_555 1_555
O22 C13_3 1_555 1_555
O23_2 C13_3 1_555 1_555
O11_3 C15_3 1_555 1_555
H16_3 O14_3 1_555 1_555
C3_3 N5_3 1_555 1_555
C3_3 N6_3 1_555 1_555
C14_3 N3_3 1_555 1_555
C6_3 H3_3 1_555 1_555
C1_4 N1_4 1_555 1_555
C2_4 N2_4 1_555 1_555
C8_4 H5_4 1_555 1_555
H6_4 C8_4 1_555 1_555
C9_4 C8_4 1_555 1_555
C10_4 H7_4 1_555 1_555
H8_4 C10_4 1_555 1_555
C11_4 C10_4 1_555 1_555
N2_4 C8_4 1_555 1_555
N4_4 C1_4 1_555 1_555
O2_4 C5_4 1_555 1_555
O18_2 C9_4 1_555 1_555
O19_2 C9_4 1_555 1_555
O20_2 C11_4 1_555 1_555
O21 C11_4 1_555 1_555
O16_4 Tb5 1_555 1_555
O24_4 Tb5 1_555 1_555
C2_4 N4_4 1_555 1_555
C10_4 N2_4 1_555 1_555
O2_4 Tb5 1_555 1_555
C4_4 H1_4 1_555 1_555
H2_4 C4_4 1_555 1_555
Tb7_2 O1_4 1_555 1_555
C3_4 N3_4 1_555 1_555
C6_4 H3_4 1_555 1_555
C12_4 H9_4 1_555 1_555
H10_4 C12_4 1_555 1_555
C13_4 C12_4 1_555 1_555
C14_4 H11_4 1_555 1_555
H12_4 C14_4 1_555 1_555
C15_4 C14_4 1_555 1_555
N3_4 C12_4 1_555 1_555
O22_2 C13_4 1_555 1_555
O23 C13_4 1_555 1_555
O11_4 C15_4 1_555 1_555
O24_4 C15_4 1_555 1_555
H16_4 O14_4 1_555 1_555
C3_4 N5_4 1_555 1_555
C3_4 N6_4 1_555 1_555
C14_4 N3_4 1_555 1_555
O3_4 C7_3 1_555 1_555
O13_4 H13_3 1_555 1_555
H14_4 O13_4 1_555 1_555
Tb7_2 O3_4 1_555 1_555
O13_4 Tb7_2 1_555 1_555

#END
