
###############################################################################
#
# This file contains modified crystal structure data generated from the
# MOF subset of the Cambridge Structural Database (CSD) v543 
# hosted by the Cambridge Crystallographic Data Centre (CCDC).
#
# This work is licensed under the Creative Commons
# Attribution-NonCommercial-ShareAlike 4.0 International License.
# To view a copy of this license, visit
# http://creativecommons.org/licenses/by-nc-sa/4.0/
# or send a letter to
# Creative Commons, PO Box 1866, Mountain View, CA 94042, USA.
#
# CIF created using the CSD Python API on 29 September 2022
# The structure has been converted into the P1 space group
# The structure has a 3D framework
# The original CSD entry MEQGUN is in the orthorhombic crystal system
# The original CSD entry MEQGUN is in a Sohncke space group
# The framework has been calculated to contain at least 10.0% void space
# The void calculation uses a probe of radius 1.32A, grid spacing 0.4
# H atom positions have been added when not included in the experimental data
#
###############################################################################

data_MEQGUN
_chemical_formula_moiety         '(C72 H52 Cd4 N12 O16)n'
_symmetry_cell_setting           triclinic
_symmetry_space_group_name_H-M   'P 1'
_symmetry_Int_Tables_number      1
_space_group_name_Hall           'P 1'
loop_
_symmetry_equiv_pos_site_id
_symmetry_equiv_pos_as_xyz
1 x,y,z
_cell_length_a                   20.9793(4)
_cell_length_b                   13.5240(4)
_cell_length_c                   11.6673(3)
_cell_angle_alpha                90
_cell_angle_beta                 90
_cell_angle_gamma                90
_cell_volume                     3310.29
loop_
_atom_site_label
_atom_site_type_symbol
_atom_site_fract_x
_atom_site_fract_y
_atom_site_fract_z
H2 H 0.1020 0.0404 0.3059
H4 H 0.1012 0.0463 0.1075
O6 O 0.0518(2) 0.0765(4) 0.5226(7)
H13 H 0.275026 0.00121749 0.481541
N2 N 0.0663(3) 0.9083(5) 0.3238(7)
C2 C 0.0668(4) 0.9068(6) 0.0876(7)
C12 C 0.0870(4) 0.9860(7) 0.2653(8)
C14 C 0.0876(5) 0.9901(7) 0.1462(9)
C15 C 0.0437(5) 0.8307(7) 0.2649(8)
H5 H 0.0268 0.7771 0.3043
C18 C 0.0453(5) 0.8295(7) 0.1493(9)
H8 H 0.0312 0.7733 0.1110
Cd2 Cd 0.06574(2) 0.90201(4) 0.52342(5)
N1 N 0.0635(3) 0.9074(5) 0.7198(5)
O1 O 0.4482(2) 0.5765(4) 0.4774(7)
O2 O 0.4885(2) 0.7257(4) 0.4840(6)
O3 O 0.1773(2) 0.9182(4) 0.5278(8)
C1 C 0.0648(4) 0.9082(6) 0.9591(8)
C3 C 0.3752(3) 0.7107(6) 0.4920(8)
C4 C 0.4415(3) 0.6675(5) 0.4834(8)
C5 C 0.1864(3) 0.8253(6) 0.5142(9)
C6 C 0.3050(4) 0.8498(6) 0.5072(15)
C7 C 0.2526(3) 0.7878(5) 0.5069(8)
O4 O 0.1405(2) 0.7686(4) 0.5086(7)
C8 C 0.2618(3) 0.6880(6) 0.4978(11)
C9 C 0.3677(4) 0.8132(7) 0.4990(14)
C10 C 0.1125(5) 0.9547(8) 0.8944(8)
H1 H 0.1461 0.9866 0.9310
C11 C 0.3237(4) 0.6481(6) 0.4932(13)
C13 C 0.1095(5) 0.9528(8) 0.7767(9)
H3 H 0.1413 0.9848 0.7353
C16 C 0.0180(4) 0.8610(7) 0.9003(8)
C17 C 0.0184(4) 0.8638(8) 0.7794(9)
N3 N 0.3135(11) 0.957(2) 0.494(3)
Cd3 Cd 0.56574(2) 0.59799(4) 0.47658(5)
Cd4 Cd 0.43426(2) 0.40201(4) 0.47658(5)
H9 H 0.330675 0.568338 0.490618
H10 H 0.220746 0.638829 0.49407
H11 H 0.408627 0.862724 0.498151
H12 H 0.357848 0.986862 0.497338
H6 H 0.9860 0.8273 0.9393
H7 H 0.9853 0.8332 0.7400
O5 O 0.9482(2) 0.9235(4) 0.5226(7)
O7 O 0.9885(2) 0.7743(4) 0.5160(6)
H6_2 H 0.0140 0.1727 0.9393
H7_2 H 0.0147 0.1668 0.7400
O7_2 O 0.0115(2) 0.2257(4) 0.5160(6)
N2_2 N 0.9337(3) 0.0917(5) 0.3238(7)
C2_2 C 0.9332(4) 0.0932(6) 0.0876(7)
C12_2 C 0.9130(4) 0.0140(7) 0.2653(8)
C14_2 C 0.9124(5) 0.0099(7) 0.1462(9)
C15_2 C 0.9563(5) 0.1693(7) 0.2649(8)
H5_2 H 0.9732 0.2229 0.3043
C18_2 C 0.9547(5) 0.1705(7) 0.1493(9)
H8_2 H 0.9688 0.2267 0.1110
Cd2_2 Cd 0.93426(2) 0.09799(4) 0.52342(5)
N1_2 N 0.9365(3) 0.0926(5) 0.7198(5)
O1_2 O 0.5518(2) 0.4235(4) 0.4774(7)
O2_2 O 0.5115(2) 0.2743(4) 0.4840(6)
O3_2 O 0.8227(2) 0.0818(4) 0.5278(8)
C1_2 C 0.9352(4) 0.0918(6) 0.9591(8)
C3_2 C 0.6248(3) 0.2893(6) 0.4920(8)
C4_2 C 0.5585(3) 0.3325(5) 0.4834(8)
C5_2 C 0.8136(3) 0.1747(6) 0.5142(9)
C6_2 C 0.6950(4) 0.1502(6) 0.5072(15)
C7_2 C 0.7474(3) 0.2122(5) 0.5069(8)
O4_2 O 0.8595(2) 0.2314(4) 0.5086(7)
C8_2 C 0.7382(3) 0.3120(6) 0.4978(11)
C9_2 C 0.6323(4) 0.1868(7) 0.4990(14)
C10_2 C 0.8875(5) 0.0453(8) 0.8944(8)
H1_2 H 0.8539 0.0134 0.9310
C11_2 C 0.6763(4) 0.3519(6) 0.4932(13)
C13_2 C 0.8905(5) 0.0472(8) 0.7767(9)
H3_2 H 0.8587 0.0152 0.7353
C16_2 C 0.9820(4) 0.1390(7) 0.9003(8)
C17_2 C 0.9816(4) 0.1362(8) 0.7794(9)
N3_2 N 0.6865(11) 0.043(2) 0.494(3)
H9_2 H 0.669325 0.431662 0.490618
H10_2 H 0.779254 0.361171 0.49407
H11_2 H 0.591373 0.137276 0.498151
H12_2 H 0.642152 0.0131377 0.497338
H13_2 H 0.724974 0.998783 0.481541
N1_3 N 0.5635(3) 0.5926(5) 0.2802(5)
O3_3 O 0.6773(2) 0.5818(4) 0.4722(8)
C1_3 C 0.5648(4) 0.5918(6) 0.0409(8)
C3_3 C 0.8752(3) 0.7893(6) 0.5080(8)
C4_3 C 0.9415(3) 0.8325(5) 0.5166(8)
C5_3 C 0.6864(3) 0.6747(6) 0.4858(9)
C6_3 C 0.8050(4) 0.6502(6) 0.4928(15)
C7_3 C 0.7526(3) 0.7122(5) 0.4931(8)
O4_3 O 0.6405(2) 0.7314(4) 0.4914(7)
C8_3 C 0.7618(3) 0.8120(6) 0.5022(11)
C9_3 C 0.8677(4) 0.6868(7) 0.5010(14)
C10_3 C 0.6125(5) 0.5453(8) 0.1056(8)
H1_3 H 0.6461 0.5134 0.0690
C11_3 C 0.8237(4) 0.8519(6) 0.5068(13)
C13_3 C 0.6095(5) 0.5472(8) 0.2233(9)
H3_3 H 0.6413 0.5152 0.2647
C16_3 C 0.5180(4) 0.6390(7) 0.0997(8)
H6_3 H 0.4860 0.6727 0.0607
C17_3 C 0.5184(4) 0.6362(8) 0.2206(9)
H7_3 H 0.4853 0.6668 0.2600
N3_3 N 0.8135(11) 0.543(2) 0.506(3)
N4 N 0.5663(3) 0.5917(5) 0.6762(7)
H9_3 H 0.830675 0.931662 0.509382
H10_3 H 0.720746 0.861171 0.50593
H11_3 H 0.908627 0.637276 0.501849
H12_3 H 0.857848 0.513138 0.502662
H13_3 H 0.775026 0.498783 0.518459
C2_3 C 0.5668(4) 0.5932(6) 0.9124(7)
C12_3 C 0.5870(4) 0.5140(7) 0.7347(8)
H2_2 H 0.6020 0.4596 0.6941
C14_3 C 0.5876(5) 0.5099(7) 0.8538(9)
H4_2 H 0.6012 0.4537 0.8925
C15_3 C 0.5437(5) 0.6693(7) 0.7351(8)
H5_3 H 0.5268 0.7229 0.6957
C18_3 C 0.5453(5) 0.6705(7) 0.8507(9)
H8_3 H 0.5312 0.7267 0.8890
N1_4 N 0.4365(3) 0.4074(5) 0.2802(5)
O3_4 O 0.3227(2) 0.4182(4) 0.4722(8)
C1_4 C 0.4352(4) 0.4082(6) 0.0409(8)
C3_4 C 0.1248(3) 0.2107(6) 0.5080(8)
C4_4 C 0.0585(3) 0.1675(5) 0.5166(8)
C5_4 C 0.3136(3) 0.3253(6) 0.4858(9)
C6_4 C 0.1950(4) 0.3498(6) 0.4928(15)
C7_4 C 0.2474(3) 0.2878(5) 0.4931(8)
O4_4 O 0.3595(2) 0.2686(4) 0.4914(7)
C8_4 C 0.2382(3) 0.1880(6) 0.5022(11)
C9_4 C 0.1323(4) 0.3132(7) 0.5010(14)
C10_4 C 0.3875(5) 0.4547(8) 0.1056(8)
H1_4 H 0.3539 0.4866 0.0690
C11_4 C 0.1763(4) 0.1481(6) 0.5068(13)
C13_4 C 0.3905(5) 0.4528(8) 0.2233(9)
H3_4 H 0.3587 0.4848 0.2647
C16_4 C 0.4820(4) 0.3610(7) 0.0997(8)
H6_4 H 0.5140 0.3273 0.0607
C17_4 C 0.4816(4) 0.3638(8) 0.2206(9)
H7_4 H 0.5147 0.3332 0.2600
N3_4 N 0.1865(11) 0.457(2) 0.506(3)
N4_2 N 0.4337(3) 0.4083(5) 0.6762(7)
H9_4 H 0.169325 0.0683379 0.509382
H10_4 H 0.279254 0.138829 0.50593
H11_4 H 0.0913726 0.362724 0.501849
H12_4 H 0.142152 0.486862 0.502662
H13_4 H 0.224974 0.501217 0.518459
C2_4 C 0.4332(4) 0.4068(6) 0.9124(7)
C12_4 C 0.4130(4) 0.4860(7) 0.7347(8)
H2_3 H 0.3980 0.5404 0.6941
C14_4 C 0.4124(5) 0.4901(7) 0.8538(9)
H4_3 H 0.3988 0.5463 0.8925
C15_4 C 0.4563(5) 0.3307(7) 0.7351(8)
H5_4 H 0.4732 0.2771 0.6957
C18_4 C 0.4547(5) 0.3295(7) 0.8507(9)
H8_4 H 0.4688 0.2733 0.8890
H2_4 H 0.8980 0.9596 0.3059
H4_4 H 0.8988 0.9537 0.1075
loop_
_geom_bond_atom_site_label_1
_geom_bond_atom_site_label_2
_geom_bond_site_symmetry_1
_geom_bond_site_symmetry_2
N2 C12 1_555 1_555
C2 C14 1_555 1_555
C14 C12 1_555 1_555
C15 N2 1_555 1_555
H5 C15 1_555 1_555
C18 C2 1_555 1_555
H8 C18 1_555 1_555
Cd2 N2 1_555 1_555
C15 C18 1_555 1_555
Cd2 N1 1_555 1_555
N1 C13 1_555 1_555
O1 C4 1_555 1_555
O2 C4 1_555 1_555
O3 Cd2 1_555 1_555
C3 C4 1_555 1_555
C5 O3 1_555 1_555
C6 C7 1_555 1_555
C7 C5 1_555 1_555
O4 Cd2 1_555 1_555
C8 C7 1_555 1_555
C9 C3 1_555 1_555
C10 C1 1_555 1_555
H1 C10 1_555 1_555
C11 C3 1_555 1_555
C13 C10 1_555 1_555
H3 C13 1_555 1_555
C16 C1 1_555 1_555
C17 N1 1_555 1_555
N3 C6 1_555 1_555
Cd3 O1 1_555 1_555
Cd4 O1 1_555 1_555
O2 Cd3 1_555 1_555
C5 O4 1_555 1_555
C6 C9 1_555 1_555
C8 C11 1_555 1_555
C16 C17 1_555 1_555
C11 H9 1_555 1_555
C8 H10 1_555 1_555
C9 H11 1_555 1_555
N3 H12 1_555 1_555
N2_2 C12_2 1_555 1_555
C2_2 C14_2 1_555 1_555
C14_2 C12_2 1_555 1_555
C15_2 N2_2 1_555 1_555
H5_2 C15_2 1_555 1_555
C18_2 C2_2 1_555 1_555
H8_2 C18_2 1_555 1_555
Cd2_2 N2_2 1_555 1_555
C15_2 C18_2 1_555 1_555
Cd2_2 N1_2 1_555 1_555
N1_2 C13_2 1_555 1_555
O1_2 C4_2 1_555 1_555
O2_2 C4_2 1_555 1_555
O3_2 Cd2_2 1_555 1_555
C3_2 C4_2 1_555 1_555
C5_2 O3_2 1_555 1_555
C6_2 C7_2 1_555 1_555
C7_2 C5_2 1_555 1_555
O4_2 Cd2_2 1_555 1_555
C8_2 C7_2 1_555 1_555
C9_2 C3_2 1_555 1_555
C10_2 C1_2 1_555 1_555
H1_2 C10_2 1_555 1_555
C11_2 C3_2 1_555 1_555
C13_2 C10_2 1_555 1_555
H3_2 C13_2 1_555 1_555
C16_2 C1_2 1_555 1_555
C17_2 N1_2 1_555 1_555
N3_2 C6_2 1_555 1_555
Cd4 O1_2 1_555 1_555
Cd3 O1_2 1_555 1_555
O2_2 Cd4 1_555 1_555
C5_2 O4_2 1_555 1_555
C6_2 C9_2 1_555 1_555
C8_2 C11_2 1_555 1_555
C16_2 C17_2 1_555 1_555
C11_2 H9_2 1_555 1_555
C8_2 H10_2 1_555 1_555
C9_2 H11_2 1_555 1_555
N3_2 H12_2 1_555 1_555
Cd3 N1_3 1_555 1_555
N1_3 C13_3 1_555 1_555
O5 C4_3 1_555 1_555
O7 C4_3 1_555 1_555
O3_3 Cd3 1_555 1_555
C3_3 C4_3 1_555 1_555
C5_3 O3_3 1_555 1_555
C6_3 C7_3 1_555 1_555
C7_3 C5_3 1_555 1_555
O4_3 Cd3 1_555 1_555
C8_3 C7_3 1_555 1_555
C9_3 C3_3 1_555 1_555
C10_3 C1_3 1_555 1_555
H1_3 C10_3 1_555 1_555
C11_3 C3_3 1_555 1_555
C13_3 C10_3 1_555 1_555
H3_3 C13_3 1_555 1_555
C16_3 C1_3 1_555 1_555
H6_3 C16_3 1_555 1_555
C17_3 N1_3 1_555 1_555
H7_3 C17_3 1_555 1_555
N3_3 C6_3 1_555 1_555
N4 Cd3 1_555 1_555
C5_3 O4_3 1_555 1_555
C6_3 C9_3 1_555 1_555
C8_3 C11_3 1_555 1_555
C16_3 C17_3 1_555 1_555
C11_3 H9_3 1_555 1_555
C8_3 H10_3 1_555 1_555
C9_3 H11_3 1_555 1_555
N3_3 H12_3 1_555 1_555
N3_3 H13_3 1_555 1_555
N4 C12_3 1_555 1_555
C2_3 C14_3 1_555 1_555
C12_3 H2_2 1_555 1_555
C14_3 C12_3 1_555 1_555
H4_2 C14_3 1_555 1_555
C15_3 N4 1_555 1_555
H5_3 C15_3 1_555 1_555
C18_3 C2_3 1_555 1_555
H8_3 C18_3 1_555 1_555
C15_3 C18_3 1_555 1_555
Cd4 N1_4 1_555 1_555
N1_4 C13_4 1_555 1_555
O6 C4_4 1_555 1_555
O7_2 C4_4 1_555 1_555
O3_4 Cd4 1_555 1_555
C3_4 C4_4 1_555 1_555
C5_4 O3_4 1_555 1_555
C6_4 C7_4 1_555 1_555
C7_4 C5_4 1_555 1_555
O4_4 Cd4 1_555 1_555
C8_4 C7_4 1_555 1_555
C9_4 C3_4 1_555 1_555
C10_4 C1_4 1_555 1_555
H1_4 C10_4 1_555 1_555
C11_4 C3_4 1_555 1_555
C13_4 C10_4 1_555 1_555
H3_4 C13_4 1_555 1_555
C16_4 C1_4 1_555 1_555
H6_4 C16_4 1_555 1_555
C17_4 N1_4 1_555 1_555
H7_4 C17_4 1_555 1_555
N3_4 C6_4 1_555 1_555
N4_2 Cd4 1_555 1_555
C5_4 O4_4 1_555 1_555
C6_4 C9_4 1_555 1_555
C8_4 C11_4 1_555 1_555
C16_4 C17_4 1_555 1_555
C11_4 H9_4 1_555 1_555
C8_4 H10_4 1_555 1_555
C9_4 H11_4 1_555 1_555
N3_4 H12_4 1_555 1_555
N3_4 H13_4 1_555 1_555
N4_2 C12_4 1_555 1_555
C2_4 C14_4 1_555 1_555
C12_4 H2_3 1_555 1_555
C14_4 C12_4 1_555 1_555
H4_3 C14_4 1_555 1_555
C15_4 N4_2 1_555 1_555
H5_4 C15_4 1_555 1_555
C18_4 C2_4 1_555 1_555
H8_4 C18_4 1_555 1_555
C15_4 C18_4 1_555 1_555

#END
