
###############################################################################
#
# This file contains modified crystal structure data generated from the
# MOF subset of the Cambridge Structural Database (CSD) v543 
# hosted by the Cambridge Crystallographic Data Centre (CCDC).
#
# This work is licensed under the Creative Commons
# Attribution-NonCommercial-ShareAlike 4.0 International License.
# To view a copy of this license, visit
# http://creativecommons.org/licenses/by-nc-sa/4.0/
# or send a letter to
# Creative Commons, PO Box 1866, Mountain View, CA 94042, USA.
#
# CIF created using the CSD Python API on 29 September 2022
# The structure has been converted into the P1 space group
# The structure has a 3D framework
# The original CSD entry MEQKUR is in the triclinic crystal system
# The framework has been calculated to contain at least 10.0% void space
# The void calculation uses a probe of radius 1.32A, grid spacing 0.4
#
###############################################################################

data_MEQKUR
_chemical_formula_moiety         '(C60 H52 N4 O16 Pr2)n'
_symmetry_cell_setting           triclinic
_symmetry_space_group_name_H-M   'P 1'
_symmetry_Int_Tables_number      1
_space_group_name_Hall           'P 1'
loop_
_symmetry_equiv_pos_site_id
_symmetry_equiv_pos_as_xyz
1 x,y,z
_cell_length_a                   10.540(2)
_cell_length_b                   11.517(2)
_cell_length_c                   13.170(3)
_cell_angle_alpha                107.00(3)
_cell_angle_beta                 90.08(3)
_cell_angle_gamma                92.68(3)
_cell_volume                     1526.98
loop_
_atom_site_label
_atom_site_type_symbol
_atom_site_fract_x
_atom_site_fract_y
_atom_site_fract_z
_atom_site_U_iso_or_equiv
_atom_site_thermal_displace_type
C1 C 0.0222(11) 0.5102(11) 0.8472(9) 0.1760 Uani
H1 H 0.0259 0.5709 0.8982 0.2640 Uiso
H2 H 0.0786 0.5010 0.7869 0.2640 Uiso
H3 H 0.0232 0.4285 0.8621 0.2640 Uiso
H6 H 0.0039 0.3240 0.6346 0.2520 Uiso
C11 C 0.0544(3) 0.5911(4) 0.5877(3) 0.0360 Uani
C13 C 0.1043(4) 0.6857(4) 0.6774(4) 0.0496 Uani
H7 H 0.1880 0.6842 0.6993 0.0590 Uiso
C15 C 0.0317(5) 0.7772(5) 0.7310(4) 0.0623 Uani
H9 H 0.0664 0.8375 0.7890 0.0750 Uiso
O11 O 0.2848(2) 0.4810(3) 0.6527(2) 0.0448 Uani
C39 C 0.2636(3) 0.4919(4) 0.5640(3) 0.0306 Uani
C40 C 0.0751(3) 0.4041(4) 0.4430(3) 0.0352 Uani
O12 O 0.3535(2) 0.5084(2) 0.5048(2) 0.0320 Uani
C41 C 0.1283(3) 0.4960(4) 0.5298(3) 0.0348 Uani
C44 C 0.1470(4) 0.3052(4) 0.3835(4) 0.0478 Uani
H32 H 0.2312 0.3011 0.4029 0.0580 Uiso
C46 C 0.0954(5) 0.2174(5) 0.2997(4) 0.0649 Uani
H34 H 0.1438 0.1536 0.2625 0.0780 Uiso
Pr4 Pr 0.522072(17) 0.547095(17) 0.662907(15) 0.0246 Uani
Pr7 Pr 0.477928(17) 0.452905(17) 0.337093(15) 0.0246 Uani
O13 O 0.5969(3) 0.2804(3) 0.2140(2) 0.0495 Uani
O14 O 0.3906(3) 0.2777(3) 0.1876(2) 0.0487 Uani
C47 C 0.4971(4) 0.2309(4) 0.1667(3) 0.0398 Uani
C48 C 0.5012(5) 0.1130(4) 0.0825(4) 0.0486 Uani
C50 C 0.4514(6) 0.0045(5) 0.1012(4) 0.0599 Uani
C51 C 0.4045(6) 0.0039(6) 0.2035(4) 0.0740 Uani
H35 H 0.4053 0.0762 0.2585 0.0890 Uiso
H36 H 0.6055 0.2892 0.0142 0.0930 Uiso
C27 C 0.6409(8) 0.1005(6) 0.7793(5) 0.0936 Uani
H21 H 0.6680 0.0997 0.7120 0.1120 Uiso
O9 O 0.5080(3) 0.3286(2) 0.5845(2) 0.0379 Uani
C31 C 0.4896(3) 0.2514(3) 0.4957(3) 0.0289 Uani
C32 C 0.4941(3) 0.1203(3) 0.4953(3) 0.0271 Uani
O10 O 0.4676(3) 0.2737(2) 0.4107(2) 0.0392 Uani
C33 C 0.6079(4) 0.0616(3) 0.4745(3) 0.0356 Uani
C34 C 0.3858(4) 0.0605(4) 0.5212(3) 0.0356 Uani
C35 C 0.2688(5) 0.1180(5) 0.5428(5) 0.0717 Uani
H27 H 0.2642 0.1981 0.5419 0.0860 Uiso
C36 C 0.7209(5) 0.1213(5) 0.4506(5) 0.0708 Uani
H28 H 0.7192 0.2010 0.4477 0.0850 Uiso
C37 C 0.1639(6) 0.0584(6) 0.5646(8) 0.1121 Uani
H29 H 0.0877 0.0973 0.5775 0.1350 Uiso
C38 C 0.8305(6) 0.0622(6) 0.4322(8) 0.1178 Uani
H30 H 0.9035 0.1022 0.4172 0.1410 Uiso
C49 C 0.5511(5) 0.1088(5) 0.9830(4) 0.0589 Uani
C52 C 0.6025(7) 0.2154(5) 0.9609(5) 0.0774 Uani
C54 C 0.6474(8) 0.2109(6) 0.8630(5) 0.0997 Uani
H38 H 0.6827 0.2811 0.8509 0.1200 Uiso
C16 C 0.4489(5) 0.8912(5) 0.0170(4) 0.0589 Uani
C23 C 0.3975(7) 0.7846(5) 0.0391(5) 0.0774 Uani
C28 C 0.3526(8) 0.7891(6) 0.1370(5) 0.0997 Uani
H22 H 0.3173 0.7189 0.1491 0.1200 Uiso
H25 H 0.3500 0.4034 0.0346 0.1920 Uiso
C53 C 0.3591(8) 0.8995(6) 0.2207(5) 0.0936 Uani
H37 H 0.3320 0.9003 0.2880 0.1120 Uiso
C2 C 0.9398(12) 0.3335(11) 0.6964(8) 0.1683 Uani
H4 H 0.8584 0.2931 0.6425 0.2520 Uiso
H5 H 0.9524 0.2478 0.7038 0.2520 Uiso
O1 O 0.4920(3) 0.6714(2) 0.4155(2) 0.0379 Uani
O2 O 0.7152(2) 0.5190(3) 0.3473(2) 0.0448 Uani
O3 O 0.4031(3) 0.7196(3) 0.7860(2) 0.0495 Uani
C3 C 0.5104(3) 0.7486(3) 0.5043(3) 0.0289 Uani
O4 O 0.6094(3) 0.7223(3) 0.8124(2) 0.0487 Uani
C4 C 0.5029(4) 0.7691(4) 0.8333(3) 0.0398 Uani
C5 C 0.5059(3) 0.8797(3) 0.5047(3) 0.0271 Uani
C6 C 0.7364(3) 0.5081(4) 0.4360(3) 0.0306 Uani
C7 C 0.9249(3) 0.5959(4) 0.5570(3) 0.0352 Uani
O5 O 0.7245(3) 0.4859(3) 0.7166(3) 0.0524 Uani
O6 O 0.6465(2) 0.4916(2) 0.4952(2) 0.0320 Uani
O7 O 0.5324(3) 0.7263(2) 0.5893(2) 0.0392 Uani
O8 O 0.4639(3) 0.4685(3) 0.8148(2) 0.0521 Uani
C8 C 0.8717(3) 0.5040(4) 0.4702(3) 0.0348 Uani
C9 C 0.3921(4) 0.9384(3) 0.5255(3) 0.0356 Uani
C10 C 0.6142(4) 0.9395(4) 0.4788(3) 0.0356 Uani
C12 C 0.4988(5) 0.8870(4) 0.9175(4) 0.0486 Uani
C14 C 0.8530(4) 0.6948(4) 0.6165(4) 0.0478 Uani
H8 H 0.7688 0.6989 0.5971 0.0580 Uiso
C17 C 0.9046(5) 0.7826(5) 0.7003(4) 0.0649 Uani
H10 H 0.8562 0.8464 0.7375 0.0780 Uiso
N1 N 0.3394(5) 0.3406(6) 0.8775(4) 0.0859 Uani
C18 C 0.7312(5) 0.8820(5) 0.4572(5) 0.0717 Uani
H11 H 0.7358 0.8019 0.4581 0.0860 Uiso
C19 C 0.5486(6) 0.9955(5) 0.8988(4) 0.0599 Uani
C20 C 0.2791(5) 0.8787(5) 0.5494(5) 0.0708 Uani
H12 H 0.2808 0.7990 0.5523 0.0850 Uiso
C21 C 0.4103(6) 0.3687(6) 0.8061(4) 0.0690 Uani
H13 H 0.4214 0.3078 0.7429 0.0830 Uiso
C22 C 0.5955(6) 0.9961(6) 0.7965(4) 0.0740 Uani
H14 H 0.5947 0.9238 0.7415 0.0890 Uiso
H15 H 0.3945 0.7108 0.9858 0.0930 Uiso
N2 N 0.9203(5) 0.4518(9) 0.7699(7) 0.1238 Uani
C24 C 0.8136(8) 0.5008(14) 0.7556(11) 0.2298 Uani
H16 H 0.8194 0.5815 0.7971 0.2730 Uiso
C25 C 0.2874(9) 0.2166(9) 0.8612(8) 0.1434 Uani
H17 H 0.3086 0.1672 0.7916 0.2150 Uiso
H18 H 0.1967 0.2172 0.8678 0.2150 Uiso
H19 H 0.3228 0.1838 0.9136 0.2150 Uiso
C26 C 0.8361(6) 0.9416(6) 0.4354(8) 0.1121 Uani
H20 H 0.9123 0.9027 0.4225 0.1350 Uiso
C29 C 0.1695(6) 0.9378(6) 0.5678(8) 0.1178 Uani
H23 H 0.0965 0.8978 0.5828 0.1410 Uiso
C30 C 0.3163(8) 0.4297(10) 0.9777(6) 0.1281 Uani
H24 H 0.3569 0.5064 0.9786 0.1920 Uiso
H26 H 0.2265 0.4386 0.9865 0.1920 Uiso
C42 C 0.9456(3) 0.4089(4) 0.4123(3) 0.0360 Uani
C43 C 0.8957(4) 0.3143(4) 0.3226(4) 0.0496 Uani
H31 H 0.8120 0.3158 0.3007 0.0590 Uiso
C45 C 0.9683(5) 0.2228(5) 0.2690(4) 0.0623 Uani
H33 H 0.9336 0.1625 0.2110 0.0750 Uiso
C56 C 0.0602(12) 0.6665(11) 0.3036(8) 0.1683 Uani
H42 H 0.1416 0.7069 0.3575 0.2520 Uiso
H43 H 0.0476 0.7522 0.2962 0.2520 Uiso
O15 O 0.2755(3) 0.5141(3) 0.2834(3) 0.0524 Uani
O16 O 0.5361(3) 0.5315(3) 0.1852(2) 0.0521 Uani
N3 N 0.6606(5) 0.6594(6) 0.1225(4) 0.0859 Uani
C57 C 0.5897(6) 0.6313(6) 0.1939(4) 0.0690 Uani
H45 H 0.5786 0.6922 0.2571 0.0830 Uiso
N4 N 0.0797(5) 0.5482(9) 0.2301(7) 0.1238 Uani
C58 C 0.1864(8) 0.4992(14) 0.2444(11) 0.2298 Uani
H46 H 0.1806 0.4185 0.2029 0.2730 Uiso
C59 C 0.7126(9) 0.7834(9) 0.1388(8) 0.1434 Uani
H47 H 0.6914 0.8328 0.2084 0.2150 Uiso
H48 H 0.8033 0.7828 0.1322 0.2150 Uiso
H49 H 0.6772 0.8162 0.0864 0.2150 Uiso
C60 C 0.6837(8) 0.5703(10) 0.0223(6) 0.1281 Uani
H50 H 0.6431 0.4936 0.0214 0.1920 Uiso
H52 H 0.7735 0.5614 0.0135 0.1920 Uiso
H51 H 0.6500 0.5966 0.9654 0.1920 Uiso
C55 C 0.9778(11) 0.4898(11) 0.1528(9) 0.1760 Uani
H39 H 0.9741 0.4291 0.1018 0.2640 Uiso
H40 H 0.9214 0.4990 0.2131 0.2640 Uiso
H41 H 0.9768 0.5715 0.1379 0.2640 Uiso
H44 H 0.9961 0.6760 0.3654 0.2520 Uiso
loop_
_atom_site_aniso_label
_atom_site_aniso_U_11
_atom_site_aniso_U_22
_atom_site_aniso_U_33
_atom_site_aniso_U_23
_atom_site_aniso_U_13
_atom_site_aniso_U_12
C1 0.174 0.211 0.165 0.086 -0.013 0.031
C11 0.027 0.042 0.039 0.0119 0.0021 0.0014
C13 0.034 0.058 0.048 0.001 -0.0027 0.006
C15 0.055 0.054 0.059 -0.013 -0.008 0.004
O11 0.0332 0.062 0.0431 0.0213 0.0009 0.0025
C39 0.0245 0.03 0.037 0.0093 0.0004 0.0018
C40 0.0282 0.039 0.039 0.0122 0.005 0.0037
O12 0.0249 0.0333 0.0385 0.0115 0.0022 0.0024
C41 0.0277 0.038 0.04 0.0136 0.0014 0.0013
C44 0.034 0.045 0.059 0.006 0.0006 0.0058
C46 0.051 0.054 0.074 -0.008 0.003 0.017
Pr4 0.02999 0.01742 0.02524 0.00421 -0.00172 0.0026
Pr7 0.02999 0.01742 0.02524 0.00421 -0.00172 0.0026
O13 0.052 0.036 0.0471 -0.009 0.0036 0.0041
O14 0.0535 0.0362 0.0461 -0.0038 -0.0108 0.0025
C47 0.058 0.025 0.032 0.0008 0.0013 0.0058
C48 0.065 0.033 0.041 0 0.001 0.003
C50 0.087 0.048 0.039 0.004 0 0.002
C51 0.112 0.057 0.045 0.003 0.015 0
C27 0.163 0.057 0.052 0.005 0.025 -0.012
O9 0.0591 0.0174 0.0353 0.0046 0.0012 0.0028
C31 0.0341 0.0187 0.034 0.0077 0.0018 0.002
C32 0.0377 0.0151 0.0283 0.0062 -0.0039 0.0006
O10 0.0592 0.0214 0.0385 0.0107 -0.0053 0.0039
C33 0.041 0.018 0.049 0.0117 0.004 0.0008
C34 0.037 0.021 0.05 0.0119 0.0028 0.0052
C35 0.048 0.039 0.141 0.044 0.024 0.017
C36 0.047 0.039 0.142 0.05 0.02 0.007
C37 0.049 0.067 0.245 0.081 0.047 0.023
C38 0.058 0.071 0.259 0.101 0.05 0.012
C49 0.084 0.036 0.051 0.004 0.006 0.003
C52 0.124 0.037 0.06 -0.001 0.008 -0.011
C54 0.168 0.053 0.072 0.012 0.038 -0.017
C16 0.084 0.036 0.051 0.004 0.006 0.003
C23 0.124 0.037 0.06 -0.001 0.008 -0.011
C28 0.168 0.053 0.072 0.012 0.038 -0.017
C53 0.163 0.057 0.052 0.005 0.025 -0.012
C2 0.201 0.191 0.128 0.082 -0.039 -0.065
O1 0.0591 0.0174 0.0353 0.0046 0.0012 0.0028
O2 0.0332 0.062 0.0431 0.0213 0.0009 0.0025
O3 0.052 0.036 0.0471 -0.009 0.0036 0.0041
C3 0.0341 0.0187 0.034 0.0077 0.0018 0.002
O4 0.0535 0.0362 0.0461 -0.0038 -0.0108 0.0025
C4 0.058 0.025 0.032 0.0008 0.0013 0.0058
C5 0.0377 0.0151 0.0283 0.0062 -0.0039 0.0006
C6 0.0245 0.03 0.037 0.0093 0.0004 0.0018
C7 0.0282 0.039 0.039 0.0122 0.005 0.0037
O5 0.039 0.057 0.063 0.0187 -0.0131 0.0128
O6 0.0249 0.0333 0.0385 0.0115 0.0022 0.0024
O7 0.0592 0.0214 0.0385 0.0107 -0.0053 0.0039
O8 0.065 0.055 0.0421 0.0246 -0.0027 -0.0044
C8 0.0277 0.038 0.04 0.0136 0.0014 0.0013
C9 0.041 0.018 0.049 0.0117 0.004 0.0008
C10 0.037 0.021 0.05 0.0119 0.0028 0.0052
C12 0.065 0.033 0.041 0 0.001 0.003
C14 0.034 0.045 0.059 0.006 0.0006 0.0058
C17 0.051 0.054 0.074 -0.008 0.003 0.017
N1 0.081 0.111 0.086 0.065 0 -0.023
C18 0.048 0.039 0.141 0.044 0.024 0.017
C19 0.087 0.048 0.039 0.004 0 0.002
C20 0.047 0.039 0.142 0.05 0.02 0.007
C21 0.086 0.08 0.051 0.037 -0.002 -0.011
C22 0.112 0.057 0.045 0.003 0.015 0
N2 0.055 0.214 0.161 0.139 0.031 0.054
C24 0.083 0.45 0.318 0.349 0.094 0.115
C25 0.148 0.15 0.162 0.104 -0.023 -0.07
C26 0.049 0.067 0.245 0.081 0.047 0.023
C29 0.058 0.071 0.259 0.101 0.05 0.012
C30 0.097 0.211 0.087 0.06 0.029 0.009
C42 0.027 0.042 0.039 0.0119 0.0021 0.0014
C43 0.034 0.058 0.048 0.001 -0.0027 0.006
C45 0.055 0.054 0.059 -0.013 -0.008 0.004
C56 0.201 0.191 0.128 0.082 -0.039 -0.065
O15 0.039 0.057 0.063 0.0187 -0.0131 0.0128
O16 0.065 0.055 0.0421 0.0246 -0.0027 -0.0044
N3 0.081 0.111 0.086 0.065 0 -0.023
C57 0.086 0.08 0.051 0.037 -0.002 -0.011
N4 0.055 0.214 0.161 0.139 0.031 0.054
C58 0.083 0.45 0.318 0.349 0.094 0.115
C59 0.148 0.15 0.162 0.104 -0.023 -0.07
C60 0.097 0.211 0.087 0.06 0.029 0.009
C55 0.174 0.211 0.165 0.086 -0.013 0.031
loop_
_geom_bond_atom_site_label_1
_geom_bond_atom_site_label_2
_geom_bond_site_symmetry_1
_geom_bond_site_symmetry_2
C1 H1 1_555 1_555
H2 C1 1_555 1_555
H3 C1 1_555 1_555
C13 C11 1_555 1_555
H7 C13 1_555 1_555
C15 C13 1_555 1_555
H9 C15 1_555 1_555
O11 C39 1_555 1_555
C39 O12 1_555 1_555
C40 C41 1_555 1_555
O12 Pr4 1_555 1_555
C41 C11 1_555 1_555
C44 C40 1_555 1_555
H32 C44 1_555 1_555
C46 C44 1_555 1_555
H34 C46 1_555 1_555
Pr4 O11 1_555 1_555
Pr7 O12 1_555 1_555
C39 C41 1_555 1_555
O13 C47 1_555 1_555
O14 C47 1_555 1_555
C47 C48 1_555 1_555
C51 C50 1_555 1_555
H35 C51 1_555 1_555
Pr7 O13 1_555 1_555
O14 Pr7 1_555 1_555
C48 C50 1_555 1_555
H21 C27 1_555 1_555
O9 C31 1_555 1_555
C31 C32 1_555 1_555
C32 C33 1_555 1_555
O10 C31 1_555 1_555
C35 C34 1_555 1_555
H27 C35 1_555 1_555
C36 C33 1_555 1_555
H28 C36 1_555 1_555
H29 C37 1_555 1_555
H30 C38 1_555 1_555
C52 C49 1_555 1_555
C54 C27 1_555 1_555
H38 C54 1_555 1_555
Pr4 O9 1_555 1_555
Pr7 O10 1_555 1_555
C32 C34 1_555 1_555
C35 C37 1_555 1_555
C36 C38 1_555 1_555
C52 C54 1_555 1_555
C23 C16 1_555 1_555
C28 C23 1_555 1_555
H22 C28 1_555 1_555
C53 C28 1_555 1_555
H37 C53 1_555 1_555
Pr4 O3 1_555 1_555
C2 H4 1_555 1_555
H5 C2 1_555 1_555
O1 C3 1_555 1_555
O2 C6 1_555 1_555
O3 C4 1_555 1_555
C3 C5 1_555 1_555
O4 Pr4 1_555 1_555
C4 O4 1_555 1_555
C5 C9 1_555 1_555
C6 O6 1_555 1_555
C7 C8 1_555 1_555
O5 Pr4 1_555 1_555
O6 Pr4 1_555 1_555
O7 Pr4 1_555 1_555
O8 Pr4 1_555 1_555
C8 C6 1_555 1_555
C9 C20 1_555 1_555
C10 C5 1_555 1_555
C12 C4 1_555 1_555
C14 C7 1_555 1_555
H8 C14 1_555 1_555
C17 C14 1_555 1_555
H10 C17 1_555 1_555
N1 C21 1_555 1_555
C18 C10 1_555 1_555
H11 C18 1_555 1_555
C19 C12 1_555 1_555
C20 H12 1_555 1_555
C21 O8 1_555 1_555
H13 C21 1_555 1_555
C22 C19 1_555 1_555
H14 C22 1_555 1_555
C24 O5 1_555 1_555
H16 C24 1_555 1_555
C25 N1 1_555 1_555
H17 C25 1_555 1_555
H18 C25 1_555 1_555
H19 C25 1_555 1_555
C26 C18 1_555 1_555
H20 C26 1_555 1_555
C29 C20 1_555 1_555
H23 C29 1_555 1_555
C30 N1 1_555 1_555
H24 C30 1_555 1_555
H26 C30 1_555 1_555
C42 C8 1_555 1_555
C43 C42 1_555 1_555
H31 C43 1_555 1_555
C45 C43 1_555 1_555
H33 C45 1_555 1_555
Pr7 O1 1_555 1_555
C56 H42 1_555 1_555
H43 C56 1_555 1_555
O15 Pr7 1_555 1_555
O16 Pr7 1_555 1_555
N3 C57 1_555 1_555
C57 O16 1_555 1_555
H45 C57 1_555 1_555
C58 O15 1_555 1_555
H46 C58 1_555 1_555
C59 N3 1_555 1_555
H47 C59 1_555 1_555
H48 C59 1_555 1_555
H49 C59 1_555 1_555
C60 N3 1_555 1_555
H50 C60 1_555 1_555
H52 C60 1_555 1_555
C2 N2 1_555 1_555
O2 Pr7 1_555 1_555
C3 O7 1_555 1_555
O6 Pr7 1_555 1_555
N2 C24 1_555 1_555
C56 N4 1_555 1_555
N4 C58 1_555 1_555
C55 H39 1_555 1_555
H40 C55 1_555 1_555
H41 C55 1_555 1_555

#END
