
###############################################################################
#
# This file contains modified crystal structure data generated from the
# MOF subset of the Cambridge Structural Database (CSD) v543 
# hosted by the Cambridge Crystallographic Data Centre (CCDC).
#
# This work is licensed under the Creative Commons
# Attribution-NonCommercial-ShareAlike 4.0 International License.
# To view a copy of this license, visit
# http://creativecommons.org/licenses/by-nc-sa/4.0/
# or send a letter to
# Creative Commons, PO Box 1866, Mountain View, CA 94042, USA.
#
# CIF created using the CSD Python API on 29 September 2022
# The structure has been converted into the P1 space group
# The structure has a 3D framework
# The original CSD entry MEQKOL is in the monoclinic crystal system
# The framework has been calculated to contain at least 10.0% void space
# The void calculation uses a probe of radius 1.32A, grid spacing 0.4
#
###############################################################################

data_MEQKOL
_chemical_formula_moiety         '(C96 H72 O58 Pr8)n'
_symmetry_cell_setting           triclinic
_symmetry_space_group_name_H-M   'P 1'
_symmetry_Int_Tables_number      1
_space_group_name_Hall           'P 1'
loop_
_symmetry_equiv_pos_site_id
_symmetry_equiv_pos_as_xyz
1 x,y,z
_cell_length_a                   18.904(4)
_cell_length_b                   10.864(2)
_cell_length_c                   16.903(3)
_cell_angle_alpha                90
_cell_angle_beta                 95.82(3)
_cell_angle_gamma                90
_cell_volume                     3453.53
loop_
_atom_site_label
_atom_site_type_symbol
_atom_site_fract_x
_atom_site_fract_y
_atom_site_fract_z
O25 O 0.2549(8) 0.2833(14) 0.5660(10)
O26 O 0.2219(9) 0.3656(14) 0.4481(11)
C34 C 0.0067(12) 0.1326(19) 0.5117(14)
C35 C 0.0598(13) 0.114(2) 0.5733(15)
H29 H 0.0515 0.0641 0.6163
C36 C 0.1251(15) 0.169(2) 0.5699(15)
H30 H 0.1622 0.1515 0.6088
C37 C 0.1358(11) 0.2483(17) 0.5104(12)
C38 C 0.0838(12) 0.270(2) 0.4521(15)
H31 H 0.0919 0.3242 0.4115
C39 C 0.0204(13) 0.214(2) 0.4512(15)
C40 C 0.2117(11) 0.3035(17) 0.5095(12)
Pr5 Pr 0.32822(4) 0.38671(9) 0.66830(5)
Pr11 Pr 0.32639(5) 0.41901(10) 0.38556(5)
O12 O 0.8457(12) 0.2695(17) 0.3375(14)
H11 H 0.8542 0.3147 0.2985
H12 H 0.8437 0.3012 0.3832
O23 O 0.9227(10) 0.0088(15) 0.5741(9)
O24 O 0.8951(8) 0.0534(13) 0.4503(10)
C33 C 0.9356(12) 0.0597(18) 0.5105(15)
H32 H 0.9852 0.2300 0.4100
Pr4 Pr 0.82743(5) 0.04420(10) 0.31850(5)
O33 O 0.9375(10) 0.1045(19) 0.2585(12)
O36 O 0.7445(10) 0.1411(19) 0.2238(11)
O38 O 0.7555(9) 0.0417(15) 0.5334(10)
O39 O 0.7423(10) 0.1166(17) 0.4126(11)
O31 O 0.3269(9) 0.4771(13) 0.0264(9)
O1 O 0.2588(9) 0.5800(13) 0.7578(9)
O2 O 0.3511(10) 0.1599(14) 0.6936(11)
H1 H 0.3373 0.1262 0.7348
H2 H 0.3721 0.1173 0.6609
O3 O 0.2257(9) 0.5298(16) 0.6309(11)
O4 O 0.3269(9) 0.5229(13) 0.5264(9)
H3 H 0.2855 0.5759 0.5239
H4 H 0.3681 0.5766 0.5327
O6 O 0.3004(9) 0.8071(15) 0.8646(10)
H5 H 0.3251 0.8497 0.8355
H6 H 0.2667 0.8407 0.8866
O7 O 0.814(2) 0.627(2) 0.5104(16)
H7 H 0.8450 0.5853 0.4889
H8 H 0.7768 0.5925 0.5236
O9 O 0.2547(10) 0.3901(13) 0.8737(10)
O10 O 0.8305(8) 0.928(2) 0.1834(9)
H9 H 0.8388 0.9684 0.1421
H10 H 0.8235 0.8513 0.1807
O11 O 0.2388(9) 0.3116(14) 0.7530(10)
O15 O 0.3950(9) 0.5724(15) 0.6737(11)
O16 O 0.4137(8) 0.6553(16) 0.7966(9)
O17 O 0.7445(10) 0.8589(19) 0.7238(11)
O18 O 0.7284(9) 0.7862(16) 0.5994(10)
O19 O 0.4354(9) 0.3282(19) 0.6075(10)
O20 O 0.4050(8) 0.3091(15) 0.4788(9)
O27 O 0.7580(9) 0.8482(16) 0.4135(11)
O28 O 0.7258(10) 0.906(2) 0.2879(12)
O29 O 0.4316(12) 0.556(2) 0.4205(11)
O30 O 0.3982(8) 0.6090(13) 0.2968(10)
C1 C 0.2134(13) 0.582(2) 0.6959(15)
C2 C 0.1470(11) 0.6487(17) 0.6957(12)
C3 C 0.0918(15) 0.623(2) 0.6405(17)
H13 H 0.0989 0.5672 0.6003
C4 C 0.0237(16) 0.677(3) 0.6414(18)
C5 C 0.0132(13) 0.767(2) 0.6996(14)
C6 C 0.0713(12) 0.791(2) 0.7560(16)
H15 H 0.0659 0.8488 0.7959
C7 C 0.1372(14) 0.732(3) 0.7542(17)
H16 H 0.1743 0.7497 0.7930
C9 C 0.2177(11) 0.3402(18) 0.8202(14)
C10 C 0.1470(13) 0.305(2) 0.8370(16)
C11 C 0.1057(16) 0.230(4) 0.7834(16)
H17 H 0.1234 0.2045 0.7367
C12 C 0.0362(15) 0.192(3) 0.8000(16)
H18 H 0.0076 0.1432 0.7644
C13 C 0.0131(12) 0.2312(19) 0.8735(13)
C14 C 0.0544(16) 0.303(3) 0.9183(19)
H19 H 0.0395 0.3260 0.9670
C15 C 0.1174(17) 0.347(3) 0.900(2)
H20 H 0.1404 0.4084 0.9313
C17 C 0.4304(14) 0.634(2) 0.7302(15)
C18 C 0.5037(11) 0.6815(19) 0.7119(12)
C19 C 0.5378(14) 0.621(2) 0.6479(17)
H21 H 0.5168 0.5563 0.6182
C20 C 0.6044(14) 0.669(2) 0.6351(15)
H22 H 0.6287 0.6361 0.5950
C21 C 0.6350(14) 0.765(2) 0.6811(15)
C22 C 0.6006(14) 0.818(2) 0.7398(16)
H23 H 0.6225 0.8801 0.7709
C23 C 0.5370(16) 0.780(4) 0.7527(17)
H24 H 0.5132 0.8211 0.7905
C24 C 0.7087(11) 0.8081(17) 0.6671(13)
C25 C 0.4483(12) 0.3001(17) 0.5404(13)
C26 C 0.5196(13) 0.252(2) 0.5280(13)
C27 C 0.5523(17) 0.299(3) 0.4629(19)
H25 H 0.5324 0.3635 0.4322
C28 C 0.6180(14) 0.242(2) 0.4459(16)
H26 H 0.6379 0.2633 0.3997
C29 C 0.6544(13) 0.150(2) 0.4996(14)
C30 C 0.6229(15) 0.119(2) 0.5640(17)
H27 H 0.6447 0.0625 0.5999
C31 C 0.5578(15) 0.170(3) 0.5777(17)
H28 H 0.5386 0.1471 0.6239
C32 C 0.7203(13) 0.101(2) 0.4804(15)
C41 C 0.7158(15) 0.844(2) 0.3516(14)
C42 C 0.6439(10) 0.7872(18) 0.3556(12)
C43 C 0.6226(14) 0.743(3) 0.4218(16)
H33 H 0.6528 0.7474 0.4687
C44 C 0.5562(17) 0.690(3) 0.4230(19)
H34 H 0.5417 0.6640 0.4712
C45 C 0.5120(14) 0.675(2) 0.3556(13)
C46 C 0.5303(16) 0.724(3) 0.2874(16)
H35 H 0.4998 0.7185 0.2407
C47 C 0.5951(18) 0.783(3) 0.288(2)
H36 H 0.6066 0.8213 0.2418
C48 C 0.4408(13) 0.610(2) 0.3541(17)
Pr2 Pr 0.82941(5) 0.85676(9) 0.53455(6)
Pr3 Pr 0.32639(5) 0.58099(10) 0.88556(5)
Pr6 Pr 0.32822(4) 0.61329(9) 0.16830(5)
O32 O 0.8959(9) 0.7888(16) 0.6532(10)
O34 O 0.9005(8) 0.8641(16) 0.3394(12)
O35 O 0.9227(8) 0.7874(15) 0.4600(11)
O37 O 0.4050(8) 0.6909(15) 0.9788(9)
O41 O 0.2219(9) 0.6344(14) 0.9481(11)
O42 O 0.4316(12) 0.444(2) 0.9205(11)
O43 O 0.3982(8) 0.3910(13) 0.7968(10)
Pr15 Pr 0.82743(5) 0.95580(10) 0.81850(5)
Pr9 Pr 0.82941(5) 0.14324(9) 0.03455(6)
O8 O 0.9375(10) 0.8955(19) 0.7585(12)
O13 O 0.9005(8) 0.1359(16) 0.8394(12)
O14 O 0.9227(8) 0.2126(15) 0.9600(11)
H14 H 0.9865 0.6543 0.6041
C8 C 0.9458(11) 0.824(2) 0.7056(13)
C16 C 0.9389(13) 0.188(2) 0.8921(14)
O25_2 O 0.2549(8) 0.7167(14) 0.0660(10)
C34_2 C 0.0067(12) 0.8674(19) 0.0117(14)
C35_2 C 0.0598(13) 0.886(2) 0.0733(15)
H29_2 H 0.0515 0.9359 0.1163
C36_2 C 0.1251(15) 0.831(2) 0.0699(15)
H30_2 H 0.1622 0.8485 0.1088
C37_2 C 0.1358(11) 0.7517(17) 0.0104(12)
C40_2 C 0.2117(11) 0.6965(17) 0.0095(12)
C38_2 C 0.0838(12) 0.730(2) 0.9521(15)
H31_2 H 0.0919 0.6758 0.9115
C39_2 C 0.0204(13) 0.786(2) 0.9512(15)
O1_2 O 0.2588(9) 0.4200(13) 0.2578(9)
O2_2 O 0.3511(10) 0.8401(14) 0.1936(11)
H1_2 H 0.3373 0.8738 0.2348
H2_2 H 0.3721 0.8827 0.1609
O3_2 O 0.2257(9) 0.4702(16) 0.1309(11)
H3_2 H 0.2855 0.4241 0.0239
H4_2 H 0.3681 0.4234 0.0327
O6_2 O 0.3004(9) 0.1929(15) 0.3646(10)
H5_2 H 0.3251 0.1503 0.3355
H6_2 H 0.2667 0.1593 0.3866
O7_2 O 0.814(2) 0.373(2) 0.0104(16)
H8_2 H 0.7768 0.4075 0.0236
O9_2 O 0.2547(10) 0.6099(13) 0.3737(10)
O11_2 O 0.2388(9) 0.6884(14) 0.2530(10)
O15_2 O 0.3950(9) 0.4276(15) 0.1737(11)
O16_2 O 0.4137(8) 0.3447(16) 0.2966(9)
O18_2 O 0.7284(9) 0.2138(16) 0.0994(10)
O19_2 O 0.4354(9) 0.6718(19) 0.1075(10)
O21 O 0.7555(9) 0.9583(15) 0.0334(10)
C1_2 C 0.2134(13) 0.418(2) 0.1959(15)
C2_2 C 0.1470(11) 0.3513(17) 0.1957(12)
C3_2 C 0.0918(15) 0.377(2) 0.1405(17)
H13_2 H 0.0989 0.4328 0.1003
C4_2 C 0.0237(16) 0.323(3) 0.1414(18)
C5_2 C 0.0132(13) 0.233(2) 0.1996(14)
C6_2 C 0.0713(12) 0.209(2) 0.2560(16)
H15_2 H 0.0659 0.1512 0.2959
C7_2 C 0.1372(14) 0.268(3) 0.2542(17)
H16_2 H 0.1743 0.2503 0.2930
C9_2 C 0.2177(11) 0.6598(18) 0.3202(14)
C10_2 C 0.1470(13) 0.695(2) 0.3370(16)
C11_2 C 0.1057(16) 0.770(4) 0.2834(16)
H17_2 H 0.1234 0.7955 0.2367
C12_2 C 0.0362(15) 0.808(3) 0.3000(16)
H18_2 H 0.0076 0.8568 0.2644
C13_2 C 0.0131(12) 0.7688(19) 0.3735(13)
C14_2 C 0.0544(16) 0.697(3) 0.4183(19)
H19_2 H 0.0395 0.6740 0.4670
C15_2 C 0.1174(17) 0.653(3) 0.400(2)
H20_2 H 0.1404 0.5916 0.4313
C17_2 C 0.4304(14) 0.366(2) 0.2302(15)
C18_2 C 0.5037(11) 0.3185(19) 0.2119(12)
C19_2 C 0.5378(14) 0.379(2) 0.1479(17)
H21_2 H 0.5168 0.4437 0.1182
C20_2 C 0.6044(14) 0.331(2) 0.1351(15)
H22_2 H 0.6287 0.3639 0.0950
C21_2 C 0.6350(14) 0.235(2) 0.1811(15)
C22_2 C 0.6006(14) 0.182(2) 0.2398(16)
H23_2 H 0.6225 0.1199 0.2709
C23_2 C 0.5370(16) 0.220(4) 0.2527(17)
H24_2 H 0.5132 0.1789 0.2905
C24_2 C 0.7087(11) 0.1919(17) 0.1671(13)
C25_2 C 0.4483(12) 0.6999(17) 0.0404(13)
C26_2 C 0.5196(13) 0.748(2) 0.0280(13)
C30_2 C 0.6229(15) 0.881(2) 0.0640(17)
H27_2 H 0.6447 0.9375 0.0999
C31_2 C 0.5578(15) 0.830(3) 0.0777(17)
H28_2 H 0.5386 0.8529 0.1239
O32_2 O 0.8959(9) 0.2112(16) 0.1532(10)
H7_2 H 0.8450 0.4147 0.9889
O10_2 O 0.8305(8) 0.072(2) 0.6834(9)
H9_2 H 0.8388 0.0316 0.6421
H10_2 H 0.8235 0.1487 0.6807
O22 O 0.7423(10) 0.8834(17) 0.9126(11)
O27_2 O 0.7580(9) 0.1518(16) 0.9135(11)
O28_2 O 0.7258(10) 0.094(2) 0.7879(12)
C27_2 C 0.5523(17) 0.701(3) 0.9629(19)
H25_2 H 0.5324 0.6365 0.9322
C28_2 C 0.6180(14) 0.758(2) 0.9459(16)
H26_2 H 0.6379 0.7367 0.8997
C29_2 C 0.6544(13) 0.850(2) 0.9996(14)
C32_2 C 0.7203(13) 0.899(2) 0.9804(15)
C41_2 C 0.7158(15) 0.156(2) 0.8516(14)
C42_2 C 0.6439(10) 0.2128(18) 0.8556(12)
C43_2 C 0.6226(14) 0.257(3) 0.9218(16)
H33_2 H 0.6528 0.2526 0.9687
C44_2 C 0.5562(17) 0.310(3) 0.9230(19)
H34_2 H 0.5417 0.3360 0.9712
C45_2 C 0.5120(14) 0.325(2) 0.8556(13)
C46_2 C 0.5303(16) 0.276(3) 0.7874(16)
H35_2 H 0.4998 0.2815 0.7407
C47_2 C 0.5951(18) 0.217(3) 0.788(2)
H36_2 H 0.6066 0.1787 0.7418
C48_2 C 0.4408(13) 0.390(2) 0.8541(17)
O23_2 O 0.9227(10) 0.9912(15) 0.0741(9)
C33_2 C 0.9356(12) 0.9403(18) 0.0105(15)
O12_2 O 0.8457(12) 0.7305(17) 0.8375(14)
H11_2 H 0.8542 0.6853 0.7985
H12_2 H 0.8437 0.6988 0.8832
O24_2 O 0.8951(8) 0.9466(13) 0.9503(10)
H32_2 H 0.9852 0.7700 0.9100
H14_2 H 0.9865 0.3457 0.1041
C8_2 C 0.9458(11) 0.176(2) 0.2056(13)
C16_2 C 0.9389(13) 0.812(2) 0.3921(14)
loop_
_geom_bond_atom_site_label_1
_geom_bond_atom_site_label_2
_geom_bond_site_symmetry_1
_geom_bond_site_symmetry_2
O25 C40 1_555 1_555
O26 C40 1_555 1_555
C34 C35 1_555 1_555
C35 H29 1_555 1_555
C36 C35 1_555 1_555
H30 C36 1_555 1_555
C37 C36 1_555 1_555
C38 C37 1_555 1_555
H31 C38 1_555 1_555
C39 C34 1_555 1_555
C40 C37 1_555 1_555
Pr5 O25 1_555 1_555
Pr11 O26 1_555 1_555
C38 C39 1_555 1_555
O12 H11 1_555 1_555
H12 O12 1_555 1_555
O23 C33 1_555 1_555
O24 C33 1_555 1_555
O33 Pr4 1_555 1_555
O36 Pr4 1_555 1_555
O39 Pr4 1_555 1_555
O12 Pr4 1_555 1_555
O24 Pr4 1_555 1_555
Pr5 O2 1_555 1_555
O1 C1 1_555 1_555
O2 H1 1_555 1_555
H2 O2 1_555 1_555
O3 Pr5 1_555 1_555
O4 Pr5 1_555 1_555
H3 O4 1_555 1_555
H4 O4 1_555 1_555
O6 H5 1_555 1_555
H6 O6 1_555 1_555
O7 H7 1_555 1_555
H8 O7 1_555 1_555
O9 C9 1_555 1_555
O10 H9 1_555 1_555
H10 O10 1_555 1_555
O11 Pr5 1_555 1_555
O15 Pr5 1_555 1_555
O16 C17 1_555 1_555
O17 C24 1_555 1_555
O18 C24 1_555 1_555
O19 Pr5 1_555 1_555
O20 C25 1_555 1_555
O38 C32 1_555 1_555
O39 C32 1_555 1_555
O27 C41 1_555 1_555
O28 C41 1_555 1_555
O29 C48 1_555 1_555
O30 C48 1_555 1_555
C1 O3 1_555 1_555
C2 C1 1_555 1_555
C3 C2 1_555 1_555
H13 C3 1_555 1_555
C4 C3 1_555 1_555
C5 C4 1_555 1_555
C6 C5 1_555 1_555
H15 C6 1_555 1_555
C7 C2 1_555 1_555
H16 C7 1_555 1_555
C9 O11 1_555 1_555
C10 C9 1_555 1_555
C11 C10 1_555 1_555
H17 C11 1_555 1_555
C12 C11 1_555 1_555
H18 C12 1_555 1_555
C13 C12 1_555 1_555
C14 C13 1_555 1_555
H19 C14 1_555 1_555
C15 C10 1_555 1_555
H20 C15 1_555 1_555
C17 O15 1_555 1_555
C18 C17 1_555 1_555
C19 C18 1_555 1_555
H21 C19 1_555 1_555
C20 C19 1_555 1_555
H22 C20 1_555 1_555
C21 C20 1_555 1_555
C22 C21 1_555 1_555
H23 C22 1_555 1_555
C23 C18 1_555 1_555
H24 C23 1_555 1_555
C24 C21 1_555 1_555
C25 O19 1_555 1_555
C26 C25 1_555 1_555
C27 C26 1_555 1_555
H25 C27 1_555 1_555
C28 C27 1_555 1_555
H26 C28 1_555 1_555
C29 C28 1_555 1_555
C30 C29 1_555 1_555
H27 C30 1_555 1_555
C31 C26 1_555 1_555
H28 C31 1_555 1_555
C32 C29 1_555 1_555
C41 C42 1_555 1_555
C42 C43 1_555 1_555
C43 H33 1_555 1_555
C44 C43 1_555 1_555
H34 C44 1_555 1_555
C45 C44 1_555 1_555
C46 C45 1_555 1_555
H35 C46 1_555 1_555
C47 C42 1_555 1_555
H36 C47 1_555 1_555
C48 C45 1_555 1_555
Pr2 O7 1_555 1_555
Pr3 O1 1_555 1_555
Pr6 O30 1_555 1_555
O32 Pr2 1_555 1_555
O35 Pr2 1_555 1_555
O37 Pr3 1_555 1_555
O41 Pr3 1_555 1_555
O42 Pr3 1_555 1_555
O43 Pr5 1_555 1_555
Pr11 O4 1_555 1_555
Pr15 O17 1_555 1_555
O6 Pr3 1_555 1_555
O9 Pr3 1_555 1_555
O16 Pr3 1_555 1_555
O18 Pr2 1_555 1_555
O20 Pr11 1_555 1_555
O27 Pr2 1_555 1_555
O29 Pr11 1_555 1_555
C6 C7 1_555 1_555
C14 C15 1_555 1_555
C22 C23 1_555 1_555
C30 C31 1_555 1_555
C46 C47 1_555 1_555
O32 C8 1_555 1_555
O8 C8 1_555 1_555
O13 C16 1_555 1_555
O14 C16 1_555 1_555
Pr15 O8 1_555 1_555
O25_2 C40_2 1_555 1_555
C34_2 C35_2 1_555 1_555
C35_2 H29_2 1_555 1_555
C36_2 C35_2 1_555 1_555
H30_2 C36_2 1_555 1_555
C37_2 C36_2 1_555 1_555
C40_2 C37_2 1_555 1_555
Pr6 O25_2 1_555 1_555
H31_2 C38_2 1_555 1_555
C38_2 C39_2 1_555 1_555
Pr6 O2_2 1_555 1_555
O1_2 C1_2 1_555 1_555
O2_2 H1_2 1_555 1_555
H2_2 O2_2 1_555 1_555
O3_2 Pr6 1_555 1_555
O31 Pr6 1_555 1_555
H3_2 O31 1_555 1_555
H4_2 O31 1_555 1_555
O6_2 H5_2 1_555 1_555
H6_2 O6_2 1_555 1_555
H8_2 O7_2 1_555 1_555
O9_2 C9_2 1_555 1_555
O11_2 Pr6 1_555 1_555
O15_2 Pr6 1_555 1_555
O16_2 C17_2 1_555 1_555
O36 C24_2 1_555 1_555
O18_2 C24_2 1_555 1_555
O19_2 Pr6 1_555 1_555
C1_2 O3_2 1_555 1_555
C2_2 C1_2 1_555 1_555
C3_2 C2_2 1_555 1_555
H13_2 C3_2 1_555 1_555
C4_2 C3_2 1_555 1_555
C5_2 C4_2 1_555 1_555
C6_2 C5_2 1_555 1_555
H15_2 C6_2 1_555 1_555
C7_2 C2_2 1_555 1_555
H16_2 C7_2 1_555 1_555
C9_2 O11_2 1_555 1_555
C10_2 C9_2 1_555 1_555
C11_2 C10_2 1_555 1_555
H17_2 C11_2 1_555 1_555
C12_2 C11_2 1_555 1_555
H18_2 C12_2 1_555 1_555
C13_2 C12_2 1_555 1_555
C14_2 C13_2 1_555 1_555
H19_2 C14_2 1_555 1_555
C15_2 C10_2 1_555 1_555
H20_2 C15_2 1_555 1_555
C17_2 O15_2 1_555 1_555
C18_2 C17_2 1_555 1_555
C19_2 C18_2 1_555 1_555
H21_2 C19_2 1_555 1_555
C20_2 C19_2 1_555 1_555
H22_2 C20_2 1_555 1_555
C21_2 C20_2 1_555 1_555
C22_2 C21_2 1_555 1_555
H23_2 C22_2 1_555 1_555
C23_2 C18_2 1_555 1_555
H24_2 C23_2 1_555 1_555
C24_2 C21_2 1_555 1_555
C25_2 O19_2 1_555 1_555
C26_2 C25_2 1_555 1_555
H27_2 C30_2 1_555 1_555
C31_2 C26_2 1_555 1_555
H28_2 C31_2 1_555 1_555
Pr9 O7_2 1_555 1_555
Pr11 O1_2 1_555 1_555
O32_2 Pr9 1_555 1_555
O6_2 Pr11 1_555 1_555
O9_2 Pr11 1_555 1_555
O16_2 Pr11 1_555 1_555
O18_2 Pr9 1_555 1_555
C6_2 C7_2 1_555 1_555
C14_2 C15_2 1_555 1_555
C22_2 C23_2 1_555 1_555
C30_2 C31_2 1_555 1_555
O10_2 H9_2 1_555 1_555
H10_2 O10_2 1_555 1_555
O22 C32_2 1_555 1_555
O27_2 C41_2 1_555 1_555
O28_2 C41_2 1_555 1_555
O42 C48_2 1_555 1_555
O43 C48_2 1_555 1_555
H25_2 C27_2 1_555 1_555
C28_2 C27_2 1_555 1_555
H26_2 C28_2 1_555 1_555
C29_2 C28_2 1_555 1_555
C32_2 C29_2 1_555 1_555
C41_2 C42_2 1_555 1_555
C42_2 C43_2 1_555 1_555
C43_2 H33_2 1_555 1_555
C44_2 C43_2 1_555 1_555
H34_2 C44_2 1_555 1_555
C45_2 C44_2 1_555 1_555
C46_2 C45_2 1_555 1_555
H35_2 C46_2 1_555 1_555
C47_2 C42_2 1_555 1_555
H36_2 C47_2 1_555 1_555
C48_2 C45_2 1_555 1_555
Pr15 O22 1_555 1_555
C46_2 C47_2 1_555 1_555
O23_2 C33_2 1_555 1_555
O12_2 H11_2 1_555 1_555
H12_2 O12_2 1_555 1_555
O12_2 Pr15 1_555 1_555
O24_2 Pr15 1_555 1_555
O32_2 C8_2 1_555 1_555
O33 C8_2 1_555 1_555
O34 C16_2 1_555 1_555
O35 C16_2 1_555 1_555

#END
