
###############################################################################
#
# This file contains modified crystal structure data generated from the
# MOF subset of the Cambridge Structural Database (CSD) v543 
# hosted by the Cambridge Crystallographic Data Centre (CCDC).
#
# This work is licensed under the Creative Commons
# Attribution-NonCommercial-ShareAlike 4.0 International License.
# To view a copy of this license, visit
# http://creativecommons.org/licenses/by-nc-sa/4.0/
# or send a letter to
# Creative Commons, PO Box 1866, Mountain View, CA 94042, USA.
#
# CIF created using the CSD Python API on 29 September 2022
# The structure has been converted into the P1 space group
# The structure has a 3D framework
# The original CSD entry MERFUN is in the orthorhombic crystal system
# The original CSD entry MERFUN is in a Sohncke space group
# The framework has been calculated to contain at least 10.0% void space
# The void calculation uses a probe of radius 1.32A, grid spacing 0.4
#
###############################################################################

data_MERFUN
_chemical_formula_moiety         '(C24 H20 N12 O14 Pb3)n'
_symmetry_cell_setting           triclinic
_symmetry_space_group_name_H-M   'P 1'
_symmetry_Int_Tables_number      1
_space_group_name_Hall           'P 1'
loop_
_symmetry_equiv_pos_site_id
_symmetry_equiv_pos_as_xyz
1 x,y,z
_cell_length_a                   4.5885(9)
_cell_length_b                   12.073(2)
_cell_length_c                   17.748(4)
_cell_angle_alpha                90
_cell_angle_beta                 90
_cell_angle_gamma                90
_cell_volume                     983.185
loop_
_atom_site_label
_atom_site_type_symbol
_atom_site_fract_x
_atom_site_fract_y
_atom_site_fract_z
C4 C 0.001(4) 0.5627(15) 0.5508(11)
H2 H 0.1319 0.5033 0.5363
H3 H 0.1179 0.6267 0.5643
O2 O 0.233(2) 0.6575(10) 0.4235(7)
Pb3 Pb 0.29791(13) 0.67562(5) 0.28669(5)
C1 C 0.354(4) 0.5961(14) 0.7670(12)
C2 C 0.532(3) 0.5461(12) 0.7045(12)
C3 C 0.717(4) 0.4300(14) 0.6346(11)
H1 H 0.7670 0.3635 0.6114
C5 C 0.803(4) 0.5914(15) 0.4856(11)
H4 H 0.6887 0.5266 0.4722
H5 H 0.6683 0.6490 0.5013
C6 C 0.968(4) 0.6305(13) 0.4172(11)
N1 N 0.534(3) 0.4382(12) 0.6899(9)
N2 N 0.708(3) 0.6059(11) 0.6607(10)
N3 N 0.825(3) 0.5285(11) 0.6148(8)
O1 O 0.184(3) 0.5342(8) 0.7999(8)
O3 O 0.847(2) 0.6378(11) 0.3532(8)
O4 O 0.392(3) 0.6974(9) 0.7791(10)
Pb1 Pb 0.20209(13) 0.32438(5) 0.78669(5)
N4 N 0.292(3) 0.1059(11) 0.8393(10)
O5 O 0.267(2) 0.3425(10) 0.9235(7)
O7 O 0.653(2) 0.3622(11) 0.8532(8)
O8 O 0.608(3) 0.1974(9) 0.7209(10)
Pb4 Pb 0.79791(13) 0.82438(5) 0.71331(5)
C1_2 C 0.146(4) 0.4039(14) 0.2670(12)
O1_2 O 0.316(3) 0.4658(8) 0.2999(8)
O4_2 O 0.108(3) 0.3026(9) 0.2791(10)
N4_2 N 0.208(3) 0.8941(11) 0.3393(10)
C2_2 C 0.968(3) 0.4539(12) 0.2045(12)
C3_2 C 0.783(4) 0.5700(14) 0.1346(11)
H1_2 H 0.7330 0.6365 0.1114
C4_2 C 0.499(4) 0.4373(15) 0.0508(11)
H2_2 H 0.3681 0.4967 0.0363
H3_2 H 0.3821 0.3733 0.0643
H5_2 H 0.8317 0.3510 0.0013
N1_2 N 0.966(3) 0.5618(12) 0.1899(9)
N2_2 N 0.792(3) 0.3941(11) 0.1607(10)
N3_2 N 0.675(3) 0.4715(11) 0.1148(8)
O8_2 O 0.892(3) 0.8026(9) 0.2209(10)
Pb4_2 Pb 0.70209(13) 0.17562(5) 0.21331(5)
C5_2 C 0.697(4) 0.4086(15) 0.9856(11)
H4_2 H 0.8113 0.4734 0.9722
C6_2 C 0.532(4) 0.3695(13) 0.9172(11)
O6 O 0.347(2) 0.8622(11) 0.6468(8)
C5_3 C 0.197(4) 0.0914(15) 0.0144(11)
H4_3 H 0.3113 0.0266 0.0278
C6_3 C 0.032(4) 0.1305(13) 0.0828(11)
O3_2 O 0.153(2) 0.1378(11) 0.1468(8)
C1_3 C 0.646(4) 0.0961(14) 0.7330(12)
C2_3 C 0.468(3) 0.0461(12) 0.7955(12)
H5_3 H 0.3317 0.1490 0.9987
N3_3 N 0.175(3) 0.0285(11) 0.8852(8)
O1_3 O 0.816(3) 0.0342(8) 0.7001(8)
C3_3 C 0.283(4) 0.9300(14) 0.8654(11)
H1_3 H 0.2330 0.8635 0.8886
N1_3 N 0.466(3) 0.9382(12) 0.8101(9)
O5_2 O 0.733(2) 0.8425(10) 0.5765(7)
O2_2 O 0.767(2) 0.1575(10) 0.0765(7)
C3_4 C 0.217(4) 0.0700(14) 0.3654(11)
H1_4 H 0.2670 0.1365 0.3886
N1_4 N 0.034(3) 0.0618(12) 0.3101(9)
C2_4 C 0.032(3) 0.9539(12) 0.2955(12)
C4_3 C 0.501(4) 0.9373(15) 0.4492(11)
H2_3 H 0.6319 0.9967 0.4637
H3_3 H 0.6179 0.8733 0.4357
C5_4 C 0.303(4) 0.9086(15) 0.5144(11)
H4_4 H 0.1887 0.9734 0.5278
H5_4 H 0.1683 0.8510 0.4987
C6_4 C 0.468(4) 0.8695(13) 0.5828(11)
N3_4 N 0.325(3) 0.9715(11) 0.3852(8)
C1_4 C 0.854(4) 0.9039(14) 0.2330(12)
O1_4 O 0.684(3) 0.9658(8) 0.2001(8)
C4_4 C 0.999(4) 0.0627(15) 0.9492(11)
H2_4 H 0.8681 0.0033 0.9637
H3_4 H 0.8821 0.1267 0.9357
loop_
_geom_bond_atom_site_label_1
_geom_bond_atom_site_label_2
_geom_bond_site_symmetry_1
_geom_bond_site_symmetry_2
C4 H2 1_555 1_555
H3 C4 1_555 1_555
Pb3 O2 1_555 1_555
C1 C2 1_555 1_555
C2 N1 1_555 1_555
C3 H1 1_555 1_555
H4 C5 1_555 1_555
H5 C5 1_555 1_555
C6 C5 1_555 1_555
N1 C3 1_555 1_555
N2 C2 1_555 1_555
N3 C3 1_555 1_555
O1 C1 1_555 1_555
O3 C6 1_555 1_555
O4 C1 1_555 1_555
Pb1 N1 1_555 1_555
N4 Pb1 1_555 1_555
O5 Pb1 1_555 1_555
O7 Pb1 1_555 1_555
O8 Pb1 1_555 1_555
Pb3 O3 1_555 1_555
Pb4 N2 1_555 1_555
N2 N3 1_555 1_555
O1 Pb1 1_555 1_555
O4 Pb4 1_555 1_555
O1_2 C1_2 1_555 1_555
O4_2 C1_2 1_555 1_555
N4_2 Pb3 1_555 1_555
O1_2 Pb3 1_555 1_555
C2_2 N1_2 1_555 1_555
C3_2 H1_2 1_555 1_555
C4_2 H2_2 1_555 1_555
H3_2 C4_2 1_555 1_555
N1_2 C3_2 1_555 1_555
N2_2 C2_2 1_555 1_555
N3_2 C3_2 1_555 1_555
Pb4_2 N2_2 1_555 1_555
C4_2 N3_2 1_555 1_555
N2_2 N3_2 1_555 1_555
H4_2 C5_2 1_555 1_555
C6_2 C5_2 1_555 1_555
O5 C6_2 1_555 1_555
O7 C6_2 1_555 1_555
H4_3 C5_3 1_555 1_555
C6_3 C5_3 1_555 1_555
O3_2 C6_3 1_555 1_555
Pb4_2 O3_2 1_555 1_555
C1_3 C2_3 1_555 1_555
N4 C2_3 1_555 1_555
O1_3 C1_3 1_555 1_555
O8 C1_3 1_555 1_555
N4 N3_3 1_555 1_555
C3_3 H1_3 1_555 1_555
N1_3 C3_3 1_555 1_555
Pb4 N1_3 1_555 1_555
O5_2 Pb4 1_555 1_555
O6 Pb4 1_555 1_555
Pb4_2 O2_2 1_555 1_555
C3_4 H1_4 1_555 1_555
N1_4 C3_4 1_555 1_555
C4_3 H2_3 1_555 1_555
H3_3 C4_3 1_555 1_555
C5_4 C4_3 1_555 1_555
H4_4 C5_4 1_555 1_555
H5_4 C5_4 1_555 1_555
C6_4 C5_4 1_555 1_555
N4_2 C2_4 1_555 1_555
O5_2 C6_4 1_555 1_555
O6 C6_4 1_555 1_555
C4_3 N3_4 1_555 1_555
N4_2 N3_4 1_555 1_555
O1_4 C1_4 1_555 1_555
O8_2 C1_4 1_555 1_555
C4_4 H2_4 1_555 1_555
H3_4 C4_4 1_555 1_555

#END
