
###############################################################################
#
# This file contains modified crystal structure data generated from the
# MOF subset of the Cambridge Structural Database (CSD) v543 
# hosted by the Cambridge Crystallographic Data Centre (CCDC).
#
# This work is licensed under the Creative Commons
# Attribution-NonCommercial-ShareAlike 4.0 International License.
# To view a copy of this license, visit
# http://creativecommons.org/licenses/by-nc-sa/4.0/
# or send a letter to
# Creative Commons, PO Box 1866, Mountain View, CA 94042, USA.
#
# CIF created using the CSD Python API on 29 September 2022
# The structure has been converted into the P1 space group
# The structure has a 3D framework
# The original CSD entry MERFEX is in the monoclinic crystal system
# The framework has been calculated to contain at least 10.0% void space
# The void calculation uses a probe of radius 1.32A, grid spacing 0.4
#
###############################################################################

data_MERFEX
_chemical_formula_moiety         '(C48 H36 Cd6 N16 O16)n'
_symmetry_cell_setting           triclinic
_symmetry_space_group_name_H-M   'P 1'
_symmetry_Int_Tables_number      1
_space_group_name_Hall           'P 1'
loop_
_symmetry_equiv_pos_site_id
_symmetry_equiv_pos_as_xyz
1 x,y,z
_cell_length_a                   17.442(3)
_cell_length_b                   10.850(2)
_cell_length_c                   7.5071(15)
_cell_angle_alpha                90
_cell_angle_beta                 96.74(3)
_cell_angle_gamma                90
_cell_volume                     1410.87
loop_
_atom_site_label
_atom_site_type_symbol
_atom_site_fract_x
_atom_site_fract_y
_atom_site_fract_z
C1 C 0.3694(4) 0.2837(6) 0.3492(9)
C2 C 0.3963(4) 0.3328(7) 0.5332(9)
C3 C 0.3627(4) 0.2612(7) 0.0691(9)
C4 C 0.2554(4) 0.1071(7) 0.0340(10)
H2 H 0.2489 0.0326 0.1021
H5 H 0.1645 0.2015 0.1080
Cd1 Cd 0.5000 0.46292(6) 0.2500
Cd2 Cd 0.0000 0.06653(6) 0.2500
N2 N 0.4010(3) 0.3256(5) 0.2057(7)
N3 N 0.3121(3) 0.1866(5) 0.1348(8)
N4 N 0.3157(3) 0.1980(5) 0.3133(8)
O1 O 0.4533(3) 0.4073(5) 0.5335(7)
O2 O 0.3647(3) 0.3030(7) 0.6632(7)
C13 C 0.1366(4) 0.2462(7) 0.4612(10)
H10 H 0.1580 0.1710 0.5003
C14 C 0.1758(4) 0.3565(7) 0.5136(10)
H11 H 0.2235 0.3535 0.5831
C15 C 0.1435(4) 0.4682(7) 0.4622(10)
H12 H 0.1690 0.5413 0.4959
C16 C 0.0728(4) 0.4700(6) 0.3601(10)
C17 C 0.0370(4) 0.3579(6) 0.3055(9)
C18 C 0.0355(4) 0.5862(7) 0.3035(11)
H13 H 0.0591 0.6605 0.3389
N5 N 0.0689(3) 0.2481(5) 0.3555(7)
Cd5 Cd 0.5000 0.53708(6) 0.7500
N9 N 0.5990(3) 0.3256(5) 0.2943(7)
O10 O 0.5467(3) 0.5927(5) 0.4665(7)
O11 O 0.4533(3) 0.5927(5) 0.0335(7)
H1 H 0.3703 0.2678 0.9490
H3 H 0.2738 0.0836 0.9218
C5 C 0.1797(4) 0.1707(6) 0.9961(10)
H4 H 0.1859 0.2411 0.9194
C6 C 0.1158(4) 0.0897(6) 0.9068(10)
O3 O 0.0488(3) 0.1010(5) 0.9510(7)
O4 O 0.1314(3) 0.0172(5) 0.7892(7)
O9 O 0.5467(3) 0.4073(5) 0.9665(7)
Cd7 Cd 0.0000 0.93347(6) 0.7500
O13 O 0.0488(3) 0.8990(5) 0.4510(7)
O15 O 0.1314(3) 0.9828(5) 0.2892(7)
C7 C 0.8634(4) 0.2462(7) 0.0388(10)
C9 C 0.8565(4) 0.4682(7) 0.0378(10)
H8 H 0.8310 0.5413 0.0041
C10 C 0.9272(4) 0.4700(6) 0.1399(10)
C11 C 0.9630(4) 0.3579(6) 0.1945(9)
C12 C 0.9645(4) 0.5862(7) 0.1965(11)
H9 H 0.9409 0.6605 0.1611
Cd2_2 Cd 1.0000 0.06653(6) 0.2500
N1 N 0.9311(3) 0.2481(5) 0.1445(7)
C19 C 0.6306(4) 0.2837(6) 0.1508(9)
C21 C 0.6373(4) 0.2612(7) 0.4309(9)
H14 H 0.6297 0.2678 0.5510
C22 C 0.7446(4) 0.1071(7) 0.4660(10)
H15 H 0.7511 0.0326 0.3979
H16 H 0.7262 0.0836 0.5782
C23 C 0.8203(4) 0.1707(6) 0.5039(10)
H17 H 0.8141 0.2411 0.5806
H18 H 0.8355 0.2015 0.3920
C24 C 0.8842(4) 0.0897(6) 0.5932(10)
N7 N 0.6879(3) 0.1866(5) 0.3652(8)
N8 N 0.6843(3) 0.1980(5) 0.1867(8)
O7 O 0.9512(3) 0.1010(5) 0.5490(7)
O8 O 0.8686(3) 0.0172(5) 0.7108(7)
H6 H 0.8420 0.1710 0.9997
C8 C 0.8242(4) 0.3565(7) 0.9864(10)
H7 H 0.7765 0.3535 0.9169
C20 C 0.6037(4) 0.3328(7) 0.9668(9)
O6 O 0.6353(3) 0.3030(7) 0.8368(7)
Cd7_2 Cd 1.0000 0.93347(6) 0.7500
O12 O 0.9512(3) 0.8990(5) 0.0490(7)
O14 O 0.8686(3) 0.9828(5) 0.2108(7)
H6_2 H 0.1580 0.8290 0.0003
C8_2 C 0.1758(4) 0.6435(7) 0.0136(10)
H7_2 H 0.2235 0.6465 0.0831
C20_2 C 0.3963(4) 0.6672(7) 0.0332(9)
O6_2 O 0.3647(3) 0.6970(7) 0.1632(7)
C7_2 C 0.1366(4) 0.7538(7) 0.9612(10)
C9_2 C 0.1435(4) 0.5318(7) 0.9622(10)
H8_2 H 0.1690 0.4587 0.9959
C10_2 C 0.0728(4) 0.5300(6) 0.8601(10)
C11_2 C 0.0370(4) 0.6421(6) 0.8055(9)
C12_2 C 0.0355(4) 0.4138(7) 0.8035(11)
H9_2 H 0.0591 0.3395 0.8389
N1_2 N 0.0689(3) 0.7519(5) 0.8555(7)
C19_2 C 0.3694(4) 0.7163(6) 0.8492(9)
C21_2 C 0.3627(4) 0.7388(7) 0.5691(9)
H14_2 H 0.3703 0.7322 0.4490
C22_2 C 0.2554(4) 0.8929(7) 0.5340(10)
H15_2 H 0.2489 0.9674 0.6021
H16_2 H 0.2738 0.9164 0.4218
C23_2 C 0.1797(4) 0.8293(6) 0.4961(10)
H17_2 H 0.1859 0.7589 0.4194
H18_2 H 0.1645 0.7985 0.6080
C24_2 C 0.1158(4) 0.9103(6) 0.4068(10)
N6 N 0.4010(3) 0.6744(5) 0.7057(7)
N7_2 N 0.3121(3) 0.8134(5) 0.6348(8)
N8_2 N 0.3157(3) 0.8020(5) 0.8133(8)
H1_2 H 0.6297 0.7322 0.0510
H3_2 H 0.7262 0.9164 0.0782
C5_2 C 0.8203(4) 0.8293(6) 0.0039(10)
H4_2 H 0.8141 0.7589 0.0806
C6_2 C 0.8842(4) 0.9103(6) 0.0932(10)
C1_2 C 0.6306(4) 0.7163(6) 0.6508(9)
C2_2 C 0.6037(4) 0.6672(7) 0.4668(9)
C3_2 C 0.6373(4) 0.7388(7) 0.9309(9)
C4_2 C 0.7446(4) 0.8929(7) 0.9660(10)
H2_2 H 0.7511 0.9674 0.8979
H5_2 H 0.8355 0.7985 0.8920
N2_2 N 0.5990(3) 0.6744(5) 0.7943(7)
N3_2 N 0.6879(3) 0.8134(5) 0.8652(8)
N4_2 N 0.6843(3) 0.8020(5) 0.6867(8)
O2_2 O 0.6353(3) 0.6970(7) 0.3368(7)
C13_2 C 0.8634(4) 0.7538(7) 0.5388(10)
H10_2 H 0.8420 0.8290 0.4997
C14_2 C 0.8242(4) 0.6435(7) 0.4864(10)
H11_2 H 0.7765 0.6465 0.4169
C15_2 C 0.8565(4) 0.5318(7) 0.5378(10)
H12_2 H 0.8310 0.4587 0.5041
C16_2 C 0.9272(4) 0.5300(6) 0.6399(10)
C17_2 C 0.9630(4) 0.6421(6) 0.6945(9)
C18_2 C 0.9645(4) 0.4138(7) 0.6965(11)
H13_2 H 0.9409 0.3395 0.6611
N5_2 N 0.9311(3) 0.7519(5) 0.6445(7)
loop_
_geom_bond_atom_site_label_1
_geom_bond_atom_site_label_2
_geom_bond_site_symmetry_1
_geom_bond_site_symmetry_2
C1 C2 1_555 1_555
C2 O1 1_555 1_555
C4 H2 1_555 1_555
Cd1 N2 1_555 1_555
N2 C1 1_555 1_555
N3 C3 1_555 1_555
N4 C1 1_555 1_555
O1 Cd1 1_555 1_555
O2 C2 1_555 1_555
C13 H10 1_555 1_555
C14 C13 1_555 1_555
H11 C14 1_555 1_555
C15 C14 1_555 1_555
H12 C15 1_555 1_555
C16 C15 1_555 1_555
H13 C18 1_555 1_555
N5 Cd2 1_555 1_555
Cd5 O1 1_555 1_555
N9 Cd1 1_555 1_555
O10 Cd1 1_555 1_555
O11 Cd1 1_555 1_555
C3 N2 1_555 1_555
C4 N3 1_555 1_555
N3 N4 1_555 1_555
C13 N5 1_555 1_555
C16 C17 1_555 1_555
C16 C18 1_555 1_555
C17 N5 1_555 1_555
Cd5 O10 1_555 1_555
H4 C5 1_555 1_555
C6 C5 1_555 1_555
O3 C6 1_555 1_555
O4 C6 1_555 1_555
Cd7 O13 1_555 1_555
H8 C9 1_555 1_555
C10 C9 1_555 1_555
C11 C10 1_555 1_555
C12 C10 1_555 1_555
H9 C12 1_555 1_555
Cd2_2 N1 1_555 1_555
N1 C7 1_555 1_555
C21 H14 1_555 1_555
C22 H15 1_555 1_555
H16 C22 1_555 1_555
C23 C22 1_555 1_555
H17 C23 1_555 1_555
H18 C23 1_555 1_555
C24 C23 1_555 1_555
N9 C19 1_555 1_555
N7 C21 1_555 1_555
N8 C19 1_555 1_555
O7 Cd2_2 1_555 1_555
O8 C24 1_555 1_555
C11 N1 1_555 1_555
C21 N9 1_555 1_555
C22 N7 1_555 1_555
C24 O7 1_555 1_555
N7 N8 1_555 1_555
H7 C8 1_555 1_555
C20 O9 1_555 1_555
O6 C20 1_555 1_555
Cd5 O9 1_555 1_555
H7_2 C8_2 1_555 1_555
C20_2 O11 1_555 1_555
O6_2 C20_2 1_555 1_555
H8_2 C9_2 1_555 1_555
C10_2 C9_2 1_555 1_555
C11_2 C10_2 1_555 1_555
C12_2 C10_2 1_555 1_555
H9_2 C12_2 1_555 1_555
Cd7 N1_2 1_555 1_555
N1_2 C7_2 1_555 1_555
C21_2 H14_2 1_555 1_555
C22_2 H15_2 1_555 1_555
H16_2 C22_2 1_555 1_555
C23_2 C22_2 1_555 1_555
H17_2 C23_2 1_555 1_555
H18_2 C23_2 1_555 1_555
C24_2 C23_2 1_555 1_555
N6 C19_2 1_555 1_555
N7_2 C21_2 1_555 1_555
N8_2 C19_2 1_555 1_555
O15 C24_2 1_555 1_555
Cd5 N6 1_555 1_555
C11_2 N1_2 1_555 1_555
C21_2 N6 1_555 1_555
C22_2 N7_2 1_555 1_555
C24_2 O13 1_555 1_555
N7_2 N8_2 1_555 1_555
H4_2 C5_2 1_555 1_555
C6_2 C5_2 1_555 1_555
O12 C6_2 1_555 1_555
O14 C6_2 1_555 1_555
C1_2 C2_2 1_555 1_555
C2_2 O10 1_555 1_555
C4_2 H2_2 1_555 1_555
Cd5 N2_2 1_555 1_555
N2_2 C1_2 1_555 1_555
N3_2 C3_2 1_555 1_555
N4_2 C1_2 1_555 1_555
O2_2 C2_2 1_555 1_555
C13_2 H10_2 1_555 1_555
C14_2 C13_2 1_555 1_555
H11_2 C14_2 1_555 1_555
C15_2 C14_2 1_555 1_555
H12_2 C15_2 1_555 1_555
C16_2 C15_2 1_555 1_555
H13_2 C18_2 1_555 1_555
N5_2 Cd7_2 1_555 1_555
C3_2 N2_2 1_555 1_555
C4_2 N3_2 1_555 1_555
N3_2 N4_2 1_555 1_555
C13_2 N5_2 1_555 1_555
C16_2 C17_2 1_555 1_555
C16_2 C18_2 1_555 1_555
C17_2 N5_2 1_555 1_555

#END
