
###############################################################################
#
# This file contains modified crystal structure data generated from the
# MOF subset of the Cambridge Structural Database (CSD) v543 
# hosted by the Cambridge Crystallographic Data Centre (CCDC).
#
# This work is licensed under the Creative Commons
# Attribution-NonCommercial-ShareAlike 4.0 International License.
# To view a copy of this license, visit
# http://creativecommons.org/licenses/by-nc-sa/4.0/
# or send a letter to
# Creative Commons, PO Box 1866, Mountain View, CA 94042, USA.
#
# CIF created using the CSD Python API on 29 September 2022
# The structure has been converted into the P1 space group
# The structure has a 3D framework
# The original CSD entry MERLED is in the hexagonal crystal system
# The framework has been calculated to contain at least 10.0% void space
# The void calculation uses a probe of radius 1.32A, grid spacing 0.4
# H atom positions have been added when not included in the experimental data
# Generated hydrogen atom positions removed from atoms on special positions
#
###############################################################################

data_MERLED
_chemical_formula_moiety         '(C144 H144 Co10 Fe6 N22 O31)n'
_symmetry_cell_setting           triclinic
_symmetry_space_group_name_H-M   'P 1'
_symmetry_Int_Tables_number      1
_space_group_name_Hall           'P 1'
loop_
_symmetry_equiv_pos_site_id
_symmetry_equiv_pos_as_xyz
1 x,y,z
_cell_length_a                   31.13415
_cell_length_b                   31.13415
_cell_length_c                   16.90887
_cell_angle_alpha                90
_cell_angle_beta                 90
_cell_angle_gamma                120
_cell_volume                     14194.5
loop_
_atom_site_label
_atom_site_type_symbol
_atom_site_fract_x
_atom_site_fract_y
_atom_site_fract_z
_atom_site_U_iso_or_equiv
_atom_site_thermal_displace_type
Fe1 Fe 0.297795 0.702205 0.500 0.0237 Uiso
O1 O 0.261658 0.738342 0.500 0.0300 Uiso
O2 O 0.333333 0.666667 0.500 0.0300 Uiso
Co1 Co 0.000 0.500 0.000 0.0237 Uiso
O3 O 0.253097 0.662849 0.420235 0.0300 Uiso
C1 C 0.238298 0.619149 0.393135 0.0485 Uiso
C2 C 0.201498 0.600749 0.327235 0.0485 Uiso
C3 C 0.183298 0.552249 0.295735 0.0485 Uiso
C4 C 0.147498 0.534349 0.235035 0.0485 Uiso
C5 C 0.129298 0.564649 0.204735 0.0485 Uiso
C6 C 0.089898 0.544949 0.142235 0.0485 Uiso
C7 C 0.103898 0.551949 0.063435 0.0485 Uiso
C8 C 0.153898 0.576949 0.040235 0.0485 Uiso
N1 N 0.072098 0.536049 0.000 0.0485 Uiso
C9 C 0.040098 0.520049 0.164235 0.0485 Uiso
C10 C 0.025498 0.512749 0.243035 0.0485 Uiso
N2 N 0.000 0.500 0.113935 0.0485 Uiso
H1 H 0.196398 0.527849 0.318435 0.0237 Uiso
H2 H 0.133698 0.496849 0.212035 0.0582 Uiso
H3 H 0.187098 0.593549 0.077435 0.0582 Uiso
H4 H 0.048898 0.524449 0.295535 0.0582 Uiso
O8 O 0.253097 0.590248 0.420235 0.0300 Uiso
C35 C 0.183298 0.631049 0.295735 0.0485 Uiso
C36 C 0.147498 0.613149 0.235035 0.0485 Uiso
H17 H 0.196398 0.668549 0.318435 0.0237 Uiso
H18 H 0.133698 0.636849 0.212035 0.0582 Uiso
Fe10 Fe 0.404410 0.702205 0.500 0.0237 Uiso
Fe17 Fe 0.297795 0.595590 0.500 0.0237 Uiso
O42 O 0.337151 0.746903 0.579765 0.0300 Uiso
O43 O 0.337151 0.746903 0.420235 0.0300 Uiso
O48 O 0.253097 0.662849 0.579765 0.0300 Uiso
Co1_2 Co 0.000 0.500 1.000 0.0237 Uiso
N1_2 N 0.072098 0.536049 1.000 0.0485 Uiso
C23 C 0.238298 0.619149 0.606865 0.0485 Uiso
C24 C 0.201498 0.600749 0.672765 0.0485 Uiso
C25 C 0.183298 0.552249 0.704265 0.0485 Uiso
C26 C 0.147498 0.534349 0.764965 0.0485 Uiso
C27 C 0.129298 0.564649 0.795265 0.0485 Uiso
C28 C 0.089898 0.544949 0.857765 0.0485 Uiso
C29 C 0.103898 0.551949 0.936565 0.0485 Uiso
C30 C 0.153898 0.576949 0.959765 0.0485 Uiso
C31 C 0.040098 0.520049 0.835765 0.0485 Uiso
C32 C 0.025498 0.512749 0.756965 0.0485 Uiso
N4 N 0.000 0.500 0.886065 0.0485 Uiso
H11 H 0.196398 0.527849 0.681565 0.0237 Uiso
H12 H 0.133698 0.496849 0.787965 0.0582 Uiso
H13 H 0.187098 0.593549 0.922565 0.0582 Uiso
H14 H 0.048898 0.524449 0.704465 0.0582 Uiso
O7 O 0.253097 0.590248 0.579765 0.0300 Uiso
C33 C 0.183298 0.631049 0.704265 0.0485 Uiso
C34 C 0.147498 0.613149 0.764965 0.0485 Uiso
H15 H 0.196398 0.668549 0.681565 0.0237 Uiso
H16 H 0.133698 0.636849 0.787965 0.0582 Uiso
Co1_3 Co 1.000 0.500 0.000 0.0237 Uiso
N2_2 N 1.000 0.500 0.113935 0.0485 Uiso
O4 O 0.746903 0.409752 0.420235 0.0300 Uiso
C11 C 0.761702 0.380851 0.393135 0.0485 Uiso
C12 C 0.798502 0.399251 0.327235 0.0485 Uiso
C13 C 0.816702 0.368951 0.295735 0.0485 Uiso
C14 C 0.852502 0.386851 0.235035 0.0485 Uiso
C15 C 0.870702 0.435351 0.204735 0.0485 Uiso
C16 C 0.910102 0.455051 0.142235 0.0485 Uiso
C17 C 0.896102 0.448051 0.063435 0.0485 Uiso
C18 C 0.846102 0.423051 0.040235 0.0485 Uiso
N3 N 0.927902 0.463951 0.000 0.0485 Uiso
C19 C 0.959902 0.479951 0.164235 0.0485 Uiso
C20 C 0.974502 0.487251 0.243035 0.0485 Uiso
H5 H 0.803602 0.331451 0.318435 0.0237 Uiso
H6 H 0.866302 0.363151 0.212035 0.0582 Uiso
H7 H 0.812902 0.406451 0.077435 0.0582 Uiso
H8 H 0.951102 0.475551 0.295535 0.0582 Uiso
O5 O 0.746903 0.337151 0.420235 0.0300 Uiso
C21 C 0.816702 0.447751 0.295735 0.0485 Uiso
C22 C 0.852502 0.465651 0.235035 0.0485 Uiso
H9 H 0.803602 0.472151 0.318435 0.0237 Uiso
H10 H 0.866302 0.503151 0.212035 0.0582 Uiso
Fe3 Fe 0.702205 0.404410 0.500 0.0237 Uiso
O13 O 0.738342 0.476684 0.500 0.0300 Uiso
Fe5 Fe 0.702205 0.297795 0.500 0.0237 Uiso
O15 O 0.738342 0.261658 0.500 0.0300 Uiso
Co2 Co 0.500 0.500 0.000 0.0237 Uiso
N5 N 0.536049 0.463951 0.000 0.0485 Uiso
N7 N 0.463951 0.536049 0.000 0.0485 Uiso
O19 O 0.662849 0.409752 0.420235 0.0300 Uiso
C71 C 0.619149 0.380851 0.393135 0.0485 Uiso
C72 C 0.600749 0.399251 0.327235 0.0485 Uiso
C73 C 0.552249 0.368951 0.295735 0.0485 Uiso
C74 C 0.534349 0.386851 0.235035 0.0485 Uiso
C75 C 0.564649 0.435351 0.204735 0.0485 Uiso
C76 C 0.544949 0.455051 0.142235 0.0485 Uiso
C77 C 0.551949 0.448051 0.063435 0.0485 Uiso
C78 C 0.576949 0.423051 0.040235 0.0485 Uiso
C79 C 0.520049 0.479951 0.164235 0.0485 Uiso
C80 C 0.512749 0.487251 0.243035 0.0485 Uiso
N8 N 0.500 0.500 0.113935 0.0485 Uiso
H35 H 0.527849 0.331451 0.318435 0.0237 Uiso
H36 H 0.496849 0.363151 0.212035 0.0582 Uiso
H37 H 0.593549 0.406451 0.077435 0.0582 Uiso
H38 H 0.524449 0.475551 0.295535 0.0582 Uiso
O20 O 0.590248 0.337151 0.420235 0.0300 Uiso
C81 C 0.631049 0.447751 0.295735 0.0485 Uiso
C82 C 0.613149 0.465651 0.235035 0.0485 Uiso
H39 H 0.668549 0.472151 0.318435 0.0237 Uiso
H40 H 0.636849 0.503151 0.212035 0.0582 Uiso
O22 O 0.409752 0.662849 0.420235 0.0300 Uiso
C85 C 0.380851 0.619149 0.393135 0.0485 Uiso
C86 C 0.399251 0.600749 0.327235 0.0485 Uiso
C87 C 0.368951 0.552249 0.295735 0.0485 Uiso
C88 C 0.386851 0.534349 0.235035 0.0485 Uiso
C89 C 0.435351 0.564649 0.204735 0.0485 Uiso
C90 C 0.455051 0.544949 0.142235 0.0485 Uiso
C91 C 0.448051 0.551949 0.063435 0.0485 Uiso
C92 C 0.423051 0.576949 0.040235 0.0485 Uiso
C93 C 0.479951 0.520049 0.164235 0.0485 Uiso
C94 C 0.487251 0.512749 0.243035 0.0485 Uiso
H43 H 0.331451 0.527849 0.318435 0.0237 Uiso
H44 H 0.363151 0.496849 0.212035 0.0582 Uiso
H45 H 0.406451 0.593549 0.077435 0.0582 Uiso
H46 H 0.475551 0.524449 0.295535 0.0582 Uiso
O23 O 0.337151 0.590248 0.420235 0.0300 Uiso
C95 C 0.447751 0.631049 0.295735 0.0485 Uiso
C96 C 0.465651 0.613149 0.235035 0.0485 Uiso
H47 H 0.472151 0.668549 0.318435 0.0237 Uiso
H48 H 0.503151 0.636849 0.212035 0.0582 Uiso
Co3 Co 0.500 0.000 0.000 0.0237 Uiso
N9 N 0.536049 0.072098 0.000 0.0485 Uiso
O27 O 0.590248 0.253097 0.420235 0.0300 Uiso
C119 C 0.619149 0.238298 0.393135 0.0485 Uiso
C120 C 0.600749 0.201498 0.327235 0.0485 Uiso
C121 C 0.631049 0.183298 0.295735 0.0485 Uiso
C122 C 0.613149 0.147498 0.235035 0.0485 Uiso
C123 C 0.564649 0.129298 0.204735 0.0485 Uiso
C124 C 0.544949 0.089898 0.142235 0.0485 Uiso
C125 C 0.551949 0.103898 0.063435 0.0485 Uiso
C126 C 0.576949 0.153898 0.040235 0.0485 Uiso
C127 C 0.520049 0.040098 0.164235 0.0485 Uiso
C128 C 0.512749 0.025498 0.243035 0.0485 Uiso
N12 N 0.500 0.000 0.113935 0.0485 Uiso
H59 H 0.668549 0.196398 0.318435 0.0237 Uiso
H60 H 0.636849 0.133698 0.212035 0.0582 Uiso
H61 H 0.593549 0.187098 0.077435 0.0582 Uiso
H62 H 0.524449 0.048898 0.295535 0.0582 Uiso
O28 O 0.662849 0.253097 0.420235 0.0300 Uiso
C129 C 0.552249 0.183298 0.295735 0.0485 Uiso
C130 C 0.534349 0.147498 0.235035 0.0485 Uiso
H63 H 0.527849 0.196398 0.318435 0.0237 Uiso
H64 H 0.496849 0.133698 0.212035 0.0582 Uiso
O32 O 0.476684 0.738342 0.500 0.0300 Uiso
Fe19 Fe 0.595590 0.297795 0.500 0.0237 Uiso
O33 O 0.666667 0.333334 0.500 0.0300 Uiso
O35 O 0.746903 0.409752 0.579765 0.0300 Uiso
O37 O 0.746903 0.337151 0.579765 0.0300 Uiso
O39 O 0.409752 0.746903 0.579765 0.0300 Uiso
O40 O 0.409752 0.746903 0.420235 0.0300 Uiso
O41 O 0.409752 0.662849 0.579765 0.0300 Uiso
O44 O 0.662849 0.409752 0.579765 0.0300 Uiso
O46 O 0.662849 0.253097 0.579765 0.0300 Uiso
Co1_4 Co 1.000 0.500 1.000 0.0237 Uiso
N3_2 N 0.927902 0.463951 1.000 0.0485 Uiso
N4_2 N 1.000 0.500 0.886065 0.0485 Uiso
C37 C 0.761702 0.380851 0.606865 0.0485 Uiso
C38 C 0.798502 0.399251 0.672765 0.0485 Uiso
C39 C 0.816702 0.368951 0.704265 0.0485 Uiso
C40 C 0.852502 0.386851 0.764965 0.0485 Uiso
C41 C 0.870702 0.435351 0.795265 0.0485 Uiso
C42 C 0.910102 0.455051 0.857765 0.0485 Uiso
C43 C 0.896102 0.448051 0.936565 0.0485 Uiso
C44 C 0.846102 0.423051 0.959765 0.0485 Uiso
C45 C 0.959902 0.479951 0.835765 0.0485 Uiso
C46 C 0.974502 0.487251 0.756965 0.0485 Uiso
H19 H 0.803602 0.331451 0.681565 0.0237 Uiso
H20 H 0.866302 0.363151 0.787965 0.0582 Uiso
H21 H 0.812902 0.406451 0.922565 0.0582 Uiso
H22 H 0.951102 0.475551 0.704465 0.0582 Uiso
C47 C 0.816702 0.447751 0.704265 0.0485 Uiso
C48 C 0.852502 0.465651 0.764965 0.0485 Uiso
H23 H 0.803602 0.472151 0.681565 0.0237 Uiso
H24 H 0.866302 0.503151 0.787965 0.0582 Uiso
Co2_2 Co 0.500 0.500 1.000 0.0237 Uiso
C49 C 0.619149 0.380851 0.606865 0.0485 Uiso
C50 C 0.600749 0.399251 0.672765 0.0485 Uiso
C51 C 0.552249 0.368951 0.704265 0.0485 Uiso
C52 C 0.534349 0.386851 0.764965 0.0485 Uiso
C53 C 0.564649 0.435351 0.795265 0.0485 Uiso
C54 C 0.544949 0.455051 0.857765 0.0485 Uiso
C55 C 0.551949 0.448051 0.936565 0.0485 Uiso
C56 C 0.576949 0.423051 0.959765 0.0485 Uiso
N5_2 N 0.536049 0.463951 1.000 0.0485 Uiso
C57 C 0.520049 0.479951 0.835765 0.0485 Uiso
C58 C 0.512749 0.487251 0.756965 0.0485 Uiso
N6 N 0.500 0.500 0.886065 0.0485 Uiso
H25 H 0.527849 0.331451 0.681565 0.0237 Uiso
H26 H 0.496849 0.363151 0.787965 0.0582 Uiso
H27 H 0.593549 0.406451 0.922565 0.0582 Uiso
H28 H 0.524449 0.475551 0.704465 0.0582 Uiso
C59 C 0.380851 0.619149 0.606865 0.0485 Uiso
C60 C 0.399251 0.600749 0.672765 0.0485 Uiso
C61 C 0.368951 0.552249 0.704265 0.0485 Uiso
C62 C 0.386851 0.534349 0.764965 0.0485 Uiso
C63 C 0.435351 0.564649 0.795265 0.0485 Uiso
C64 C 0.455051 0.544949 0.857765 0.0485 Uiso
C65 C 0.448051 0.551949 0.936565 0.0485 Uiso
C66 C 0.423051 0.576949 0.959765 0.0485 Uiso
N7_2 N 0.463951 0.536049 1.000 0.0485 Uiso
C67 C 0.479951 0.520049 0.835765 0.0485 Uiso
C68 C 0.487251 0.512749 0.756965 0.0485 Uiso
H29 H 0.331451 0.527849 0.681565 0.0237 Uiso
H30 H 0.363151 0.496849 0.787965 0.0582 Uiso
H31 H 0.406451 0.593549 0.922565 0.0582 Uiso
H32 H 0.475551 0.524449 0.704465 0.0582 Uiso
O18 O 0.337151 0.590248 0.579765 0.0300 Uiso
C69 C 0.447751 0.631049 0.704265 0.0485 Uiso
C70 C 0.465651 0.613149 0.764965 0.0485 Uiso
H33 H 0.472151 0.668549 0.681565 0.0237 Uiso
H34 H 0.503151 0.636849 0.787965 0.0582 Uiso
O21 O 0.590248 0.337151 0.579765 0.0300 Uiso
C83 C 0.631049 0.447751 0.704265 0.0485 Uiso
C84 C 0.613149 0.465651 0.764965 0.0485 Uiso
H41 H 0.668549 0.472151 0.681565 0.0237 Uiso
H42 H 0.636849 0.503151 0.787965 0.0582 Uiso
Co3_2 Co 0.500 0.000 1.000 0.0237 Uiso
O24 O 0.590248 0.253097 0.579765 0.0300 Uiso
C97 C 0.619149 0.238298 0.606865 0.0485 Uiso
C98 C 0.600749 0.201498 0.672765 0.0485 Uiso
C99 C 0.631049 0.183298 0.704265 0.0485 Uiso
C100 C 0.613149 0.147498 0.764965 0.0485 Uiso
C101 C 0.564649 0.129298 0.795265 0.0485 Uiso
C102 C 0.544949 0.089898 0.857765 0.0485 Uiso
C103 C 0.551949 0.103898 0.936565 0.0485 Uiso
C104 C 0.576949 0.153898 0.959765 0.0485 Uiso
N9_2 N 0.536049 0.072098 1.000 0.0485 Uiso
C105 C 0.520049 0.040098 0.835765 0.0485 Uiso
C106 C 0.512749 0.025498 0.756965 0.0485 Uiso
N10 N 0.500 0.000 0.886065 0.0485 Uiso
H49 H 0.668549 0.196398 0.681565 0.0237 Uiso
H50 H 0.636849 0.133698 0.787965 0.0582 Uiso
H51 H 0.593549 0.187098 0.922565 0.0582 Uiso
H52 H 0.524449 0.048898 0.704465 0.0582 Uiso
C131 C 0.552249 0.183298 0.704265 0.0485 Uiso
C132 C 0.534349 0.147498 0.764965 0.0485 Uiso
H65 H 0.527849 0.196398 0.681565 0.0237 Uiso
H66 H 0.496849 0.133698 0.787965 0.0582 Uiso
Co3_3 Co 0.500 1.000 0.000 0.0237 Uiso
N11 N 0.463951 0.927902 0.000 0.0485 Uiso
N12_2 N 0.500 1.000 0.113935 0.0485 Uiso
C133 C 0.380851 0.761702 0.393135 0.0485 Uiso
C134 C 0.399251 0.798502 0.327235 0.0485 Uiso
C135 C 0.447751 0.816702 0.295735 0.0485 Uiso
C136 C 0.465651 0.852502 0.235035 0.0485 Uiso
C137 C 0.435351 0.870702 0.204735 0.0485 Uiso
C138 C 0.455051 0.910102 0.142235 0.0485 Uiso
C139 C 0.448051 0.896102 0.063435 0.0485 Uiso
C140 C 0.423051 0.846102 0.040235 0.0485 Uiso
C141 C 0.479951 0.959902 0.164235 0.0485 Uiso
C142 C 0.487251 0.974502 0.243035 0.0485 Uiso
H67 H 0.472151 0.803602 0.318435 0.0237 Uiso
H68 H 0.503151 0.866302 0.212035 0.0582 Uiso
H69 H 0.406451 0.812902 0.077435 0.0582 Uiso
H70 H 0.475551 0.951102 0.295535 0.0582 Uiso
C143 C 0.368951 0.816702 0.295735 0.0485 Uiso
C144 C 0.386851 0.852502 0.235035 0.0485 Uiso
H71 H 0.331451 0.803602 0.318435 0.0237 Uiso
H72 H 0.363151 0.866302 0.212035 0.0582 Uiso
Co3_4 Co 0.500 1.000 1.000 0.0237 Uiso
N10_2 N 0.500 1.000 0.886065 0.0485 Uiso
C107 C 0.380851 0.761702 0.606865 0.0485 Uiso
C108 C 0.399251 0.798502 0.672765 0.0485 Uiso
C109 C 0.447751 0.816702 0.704265 0.0485 Uiso
C110 C 0.465651 0.852502 0.764965 0.0485 Uiso
C111 C 0.435351 0.870702 0.795265 0.0485 Uiso
C112 C 0.455051 0.910102 0.857765 0.0485 Uiso
C113 C 0.448051 0.896102 0.936565 0.0485 Uiso
C114 C 0.423051 0.846102 0.959765 0.0485 Uiso
N11_2 N 0.463951 0.927902 1.000 0.0485 Uiso
C115 C 0.479951 0.959902 0.835765 0.0485 Uiso
C116 C 0.487251 0.974502 0.756965 0.0485 Uiso
H53 H 0.472151 0.803602 0.681565 0.0237 Uiso
H54 H 0.503151 0.866302 0.787965 0.0582 Uiso
H55 H 0.406451 0.812902 0.922565 0.0582 Uiso
H56 H 0.475551 0.951102 0.704465 0.0582 Uiso
C117 C 0.368951 0.816702 0.704265 0.0485 Uiso
C118 C 0.386851 0.852502 0.764965 0.0485 Uiso
H57 H 0.331451 0.803602 0.681565 0.0237 Uiso
H58 H 0.363151 0.866302 0.787965 0.0582 Uiso
O32_2 O 0.523316 0.261658 0.500 0.0300 Uiso
O14 O 0.261658 0.523316 0.500 0.0300 Uiso
loop_
_geom_bond_atom_site_label_1
_geom_bond_atom_site_label_2
_geom_bond_site_symmetry_1
_geom_bond_site_symmetry_2
Fe1 O1 1_555 1_555
O2 Fe1 1_555 1_555
Co1 N1 1_555 1_555
O3 Fe1 1_555 1_555
C1 O3 1_555 1_555
C2 C1 1_555 1_555
C3 C2 1_555 1_555
C4 C3 1_555 1_555
C5 C4 1_555 1_555
C6 C5 1_555 1_555
C7 C6 1_555 1_555
C8 C7 1_555 1_555
N1 C7 1_555 1_555
C9 C6 1_555 1_555
C10 C9 1_555 1_555
N2 Co1 1_555 1_555
H1 C3 1_555 1_555
H2 C4 1_555 1_555
H3 C8 1_555 1_555
H4 C10 1_555 1_555
O8 C1 1_555 1_555
C35 C2 1_555 1_555
C36 C5 1_555 1_555
H17 C35 1_555 1_555
H18 C36 1_555 1_555
Fe10 O2 1_555 1_555
Fe17 O2 1_555 1_555
O42 Fe1 1_555 1_555
O43 Fe1 1_555 1_555
O48 Fe1 1_555 1_555
C9 N2 1_555 1_555
O8 Fe17 1_555 1_555
C35 C36 1_555 1_555
Co1_2 N1_2 1_555 1_555
O48 C23 1_555 1_555
C23 C24 1_555 1_555
C24 C25 1_555 1_555
C25 C26 1_555 1_555
C26 C27 1_555 1_555
C27 C28 1_555 1_555
C28 C29 1_555 1_555
C29 N1_2 1_555 1_555
C31 C28 1_555 1_555
C32 C31 1_555 1_555
N4 Co1_2 1_555 1_555
H11 C25 1_555 1_555
H12 C26 1_555 1_555
H13 C30 1_555 1_555
H14 C32 1_555 1_555
O7 C23 1_555 1_555
C33 C24 1_555 1_555
C34 C27 1_555 1_555
H15 C33 1_555 1_555
H16 C34 1_555 1_555
Fe17 O7 1_555 1_555
C29 C30 1_555 1_555
C31 N4 1_555 1_555
C33 C34 1_555 1_555
N2_2 Co1_3 1_555 1_555
O4 C11 1_555 1_555
C11 C12 1_555 1_555
C12 C13 1_555 1_555
C13 C14 1_555 1_555
C14 C15 1_555 1_555
C15 C16 1_555 1_555
C16 C17 1_555 1_555
C17 C18 1_555 1_555
C18 H7 1_555 1_555
N3 Co1_3 1_555 1_555
C19 N2_2 1_555 1_555
H5 C13 1_555 1_555
H6 C14 1_555 1_555
H8 C20 1_555 1_555
O5 C11 1_555 1_555
C21 C12 1_555 1_555
C22 C15 1_555 1_555
H9 C21 1_555 1_555
H10 C22 1_555 1_555
Fe3 O4 1_555 1_555
O13 Fe3 1_555 1_555
Fe5 O5 1_555 1_555
O15 Fe5 1_555 1_555
Co2 N5 1_555 1_555
N7 Co2 1_555 1_555
O19 Fe3 1_555 1_555
C71 O19 1_555 1_555
C72 C71 1_555 1_555
C73 C72 1_555 1_555
C74 C73 1_555 1_555
C75 C74 1_555 1_555
C76 C75 1_555 1_555
C77 N5 1_555 1_555
C79 C76 1_555 1_555
C80 C79 1_555 1_555
N8 Co2 1_555 1_555
H35 C73 1_555 1_555
H36 C74 1_555 1_555
H37 C78 1_555 1_555
H38 C80 1_555 1_555
O20 C71 1_555 1_555
C81 C72 1_555 1_555
C82 C75 1_555 1_555
H39 C81 1_555 1_555
H40 C82 1_555 1_555
O22 C85 1_555 1_555
C85 C86 1_555 1_555
C86 C87 1_555 1_555
C87 C88 1_555 1_555
C88 C89 1_555 1_555
C89 C90 1_555 1_555
C90 C91 1_555 1_555
C91 N7 1_555 1_555
C93 N8 1_555 1_555
C94 C80 1_555 1_555
H43 C87 1_555 1_555
H44 C88 1_555 1_555
H45 C92 1_555 1_555
H46 C94 1_555 1_555
O23 C85 1_555 1_555
C95 C86 1_555 1_555
C96 C89 1_555 1_555
H47 C95 1_555 1_555
H48 C96 1_555 1_555
Co3 N9 1_555 1_555
O27 C119 1_555 1_555
C119 C120 1_555 1_555
C120 C121 1_555 1_555
C121 C122 1_555 1_555
C122 C123 1_555 1_555
C123 C124 1_555 1_555
C124 C125 1_555 1_555
C125 N9 1_555 1_555
C127 C124 1_555 1_555
C128 C127 1_555 1_555
N12 Co3 1_555 1_555
H59 C121 1_555 1_555
H60 C122 1_555 1_555
H61 C126 1_555 1_555
H62 C128 1_555 1_555
O28 Fe5 1_555 1_555
C129 C120 1_555 1_555
C130 C123 1_555 1_555
H63 C129 1_555 1_555
H64 C130 1_555 1_555
Fe10 O22 1_555 1_555
O32 Fe10 1_555 1_555
Fe17 O23 1_555 1_555
Fe19 O20 1_555 1_555
O33 Fe3 1_555 1_555
O35 Fe3 1_555 1_555
O37 Fe5 1_555 1_555
O39 Fe10 1_555 1_555
O40 Fe10 1_555 1_555
O41 Fe10 1_555 1_555
O44 Fe3 1_555 1_555
O46 Fe5 1_555 1_555
C16 C19 1_555 1_555
C17 N3 1_555 1_555
C19 C20 1_555 1_555
C21 C22 1_555 1_555
Fe5 O33 1_555 1_555
C76 C77 1_555 1_555
C77 C78 1_555 1_555
C79 N8 1_555 1_555
C81 C82 1_555 1_555
C90 C93 1_555 1_555
C91 C92 1_555 1_555
C93 C94 1_555 1_555
C95 C96 1_555 1_555
O27 Fe19 1_555 1_555
C119 O28 1_555 1_555
C125 C126 1_555 1_555
C127 N12 1_555 1_555
C129 C130 1_555 1_555
Fe19 O33 1_555 1_555
N3_2 Co1_4 1_555 1_555
N4_2 Co1_4 1_555 1_555
O35 C37 1_555 1_555
C37 C38 1_555 1_555
C38 C39 1_555 1_555
C39 C40 1_555 1_555
C40 C41 1_555 1_555
C41 C42 1_555 1_555
C42 C43 1_555 1_555
C43 N3_2 1_555 1_555
C45 N4_2 1_555 1_555
H19 C39 1_555 1_555
H20 C40 1_555 1_555
H21 C44 1_555 1_555
H22 C46 1_555 1_555
O37 C37 1_555 1_555
C47 C38 1_555 1_555
C48 C41 1_555 1_555
H23 C47 1_555 1_555
H24 C48 1_555 1_555
Co2_2 N5_2 1_555 1_555
C49 O44 1_555 1_555
C50 C49 1_555 1_555
C51 C50 1_555 1_555
C52 C51 1_555 1_555
C53 C52 1_555 1_555
C54 C53 1_555 1_555
C55 C54 1_555 1_555
C56 C55 1_555 1_555
N5_2 C55 1_555 1_555
C57 C54 1_555 1_555
C58 C57 1_555 1_555
N6 Co2_2 1_555 1_555
H25 C51 1_555 1_555
H26 C52 1_555 1_555
H27 C56 1_555 1_555
H28 C58 1_555 1_555
O41 C59 1_555 1_555
C59 C60 1_555 1_555
C60 C61 1_555 1_555
C61 C62 1_555 1_555
C62 C63 1_555 1_555
C63 C64 1_555 1_555
C64 C65 1_555 1_555
C65 C66 1_555 1_555
C66 H31 1_555 1_555
N7_2 Co2_2 1_555 1_555
C67 N6 1_555 1_555
C68 C58 1_555 1_555
H29 C61 1_555 1_555
H30 C62 1_555 1_555
H32 C68 1_555 1_555
O18 C59 1_555 1_555
C69 C60 1_555 1_555
C70 C63 1_555 1_555
H33 C69 1_555 1_555
H34 C70 1_555 1_555
O21 C49 1_555 1_555
C83 C50 1_555 1_555
C84 C53 1_555 1_555
H41 C83 1_555 1_555
H42 C84 1_555 1_555
Co3_2 N9_2 1_555 1_555
O24 C97 1_555 1_555
C97 C98 1_555 1_555
C98 C99 1_555 1_555
C99 C100 1_555 1_555
C100 C101 1_555 1_555
C101 C102 1_555 1_555
C102 C103 1_555 1_555
C103 C104 1_555 1_555
C104 H51 1_555 1_555
N9_2 C103 1_555 1_555
C105 C102 1_555 1_555
C106 C105 1_555 1_555
N10 Co3_2 1_555 1_555
H49 C99 1_555 1_555
H50 C100 1_555 1_555
H52 C106 1_555 1_555
C131 C98 1_555 1_555
C132 C101 1_555 1_555
H65 C131 1_555 1_555
H66 C132 1_555 1_555
Fe17 O18 1_555 1_555
C42 C45 1_555 1_555
C43 C44 1_555 1_555
C45 C46 1_555 1_555
C47 C48 1_555 1_555
C57 N6 1_555 1_555
C64 C67 1_555 1_555
C65 N7_2 1_555 1_555
C67 C68 1_555 1_555
C69 C70 1_555 1_555
O21 Fe19 1_555 1_555
C83 C84 1_555 1_555
O24 Fe19 1_555 1_555
C97 O46 1_555 1_555
C105 N10 1_555 1_555
C131 C132 1_555 1_555
N11 Co3_3 1_555 1_555
N12_2 Co3_3 1_555 1_555
O43 C133 1_555 1_555
C133 C134 1_555 1_555
C134 C135 1_555 1_555
C135 C136 1_555 1_555
C136 C137 1_555 1_555
C137 C138 1_555 1_555
C138 C139 1_555 1_555
C139 N11 1_555 1_555
C141 N12_2 1_555 1_555
H67 C135 1_555 1_555
H68 C136 1_555 1_555
H69 C140 1_555 1_555
H70 C142 1_555 1_555
O40 C133 1_555 1_555
C143 C134 1_555 1_555
C144 C137 1_555 1_555
H71 C143 1_555 1_555
H72 C144 1_555 1_555
C138 C141 1_555 1_555
C139 C140 1_555 1_555
C141 C142 1_555 1_555
C143 C144 1_555 1_555
N10_2 Co3_4 1_555 1_555
O42 C107 1_555 1_555
C107 C108 1_555 1_555
C108 C109 1_555 1_555
C109 C110 1_555 1_555
C110 C111 1_555 1_555
C111 C112 1_555 1_555
C112 C113 1_555 1_555
C113 C114 1_555 1_555
C114 H55 1_555 1_555
N11_2 Co3_4 1_555 1_555
C115 N10_2 1_555 1_555
H53 C109 1_555 1_555
H54 C110 1_555 1_555
H56 C116 1_555 1_555
O39 C107 1_555 1_555
C117 C108 1_555 1_555
C118 C111 1_555 1_555
H57 C117 1_555 1_555
H58 C118 1_555 1_555
C112 C115 1_555 1_555
C113 N11_2 1_555 1_555
C115 C116 1_555 1_555
C117 C118 1_555 1_555
O32_2 Fe19 1_555 1_555
O14 Fe17 1_555 1_555

#END
