
###############################################################################
#
# This file contains modified crystal structure data generated from the
# MOF subset of the Cambridge Structural Database (CSD) v543 
# hosted by the Cambridge Crystallographic Data Centre (CCDC).
#
# This work is licensed under the Creative Commons
# Attribution-NonCommercial-ShareAlike 4.0 International License.
# To view a copy of this license, visit
# http://creativecommons.org/licenses/by-nc-sa/4.0/
# or send a letter to
# Creative Commons, PO Box 1866, Mountain View, CA 94042, USA.
#
# CIF created using the CSD Python API on 29 September 2022
# The structure has been converted into the P1 space group
# The structure has a 3D framework
# The original CSD entry MICDAG is in the monoclinic crystal system
# The framework has been calculated to contain at least 10.0% void space
# The void calculation uses a probe of radius 1.32A, grid spacing 0.4
#
###############################################################################

data_MICDAG
_chemical_formula_moiety         '(C104 H76 N20 O40 Zn8)n'
_symmetry_cell_setting           triclinic
_symmetry_space_group_name_H-M   'P 1'
_symmetry_Int_Tables_number      1
_space_group_name_Hall           'P 1'
loop_
_symmetry_equiv_pos_site_id
_symmetry_equiv_pos_as_xyz
1 x,y,z
_cell_length_a                   8.1691(3)
_cell_length_b                   17.2788(7)
_cell_length_c                   20.8003(8)
_cell_angle_alpha                90
_cell_angle_beta                 95.5980(10)
_cell_angle_gamma                90
_cell_volume                     2922.01
loop_
_atom_site_label
_atom_site_type_symbol
_atom_site_fract_x
_atom_site_fract_y
_atom_site_fract_z
Zn4 Zn 0.11917(5) 0.81956(2) 0.014314(18)
Zn1 Zn 0.43649(5) 0.83013(2) 0.494473(18)
O1 O 0.3826(3) 0.72715(12) 0.46253(11)
O2 O 0.6199(3) 0.68414(14) 0.50913(12)
O3 O 0.7387(3) 0.40703(12) 0.46153(10)
O4 O 0.6601(4) 0.35920(14) 0.36451(12)
O8 O 0.1498(3) 0.71891(12) 0.05488(11)
O9 O 0.6254(3) 0.86270(15) 0.44237(12)
H1 H 0.7212 0.8500 0.4585
H2 H 0.6286 0.8509 0.4028
N1 N 0.2896(3) 0.57407(15) 0.25863(12)
N2 N 0.2325(3) 0.51385(15) 0.23181(12)
N3 N 0.5428(3) 0.85919(15) 0.58277(12)
N4 N 0.7863(3) 0.94248(16) 0.75441(12)
H5 H 0.7877 0.9922 0.7548
C1 C 0.4894(4) 0.61321(17) 0.42129(14)
C2 C 0.5749(4) 0.54471(17) 0.43515(14)
H6 H 0.6398 0.5397 0.4742
C3 C 0.5648(4) 0.48361(17) 0.39146(14)
C4 C 0.4699(4) 0.49165(17) 0.33278(15)
H7 H 0.4624 0.4511 0.3032
C5 C 0.3859(4) 0.56063(17) 0.31835(14)
C6 C 0.3962(4) 0.62112(17) 0.36224(15)
H8 H 0.3404 0.6671 0.3521
C7 C 0.1357(4) 0.52567(18) 0.17211(14)
C8 C 0.0326(4) 0.46468(17) 0.15156(14)
H9 H 0.0375 0.4186 0.1747
C11 C 0.0308(4) 0.59928(16) 0.07921(14)
C12 C 0.1357(4) 0.59311(17) 0.13528(14)
H11 H 0.2058 0.6337 0.1484
C13 C 0.5016(4) 0.67832(17) 0.46872(15)
C14 C 0.6595(4) 0.41036(17) 0.40606(15)
C16 C 0.0330(4) 0.67142(17) 0.03901(15)
C17 C 0.6461(4) 0.81367(19) 0.61943(16)
H12 H 0.6620 0.7634 0.6053
C18 C 0.7302(4) 0.8366(2) 0.67662(16)
H13 H 0.8025 0.8029 0.6998
C19 C 0.7058(4) 0.91047(18) 0.69926(15)
C20 C 0.5974(4) 0.95852(19) 0.66135(15)
C21 C 0.5215(4) 0.93164(18) 0.60447(15)
H15 H 0.4519 0.9648 0.5795
C22 C 0.9388(5) 0.8055(2) 0.88229(17)
H16 H 0.9350 0.7530 0.8916
C23 C 0.8612(5) 0.8308(2) 0.82471(17)
H17 H 0.8064 0.7957 0.7963
C24 C 0.8647(4) 0.90863(18) 0.80887(15)
C25 C 0.9493(4) 0.95698(18) 0.85448(16)
Zn5 Zn 0.88083(5) 0.31956(2) 0.485686(18)
O11 O 0.2613(3) 0.90703(12) 0.03847(10)
O12 O 0.2812(3) 0.91395(12) 0.47487(10)
O5 O 0.7761(3) 0.35930(14) 0.12087(12)
O6 O 0.7188(3) 0.41395(12) 0.02513(10)
O10 O 0.9183(3) 0.86138(15) 0.05972(12)
H3 H 0.9101 0.8579 0.1000
H4 H 0.8217 0.8561 0.0410
C9 C 0.9228(4) 0.47216(16) 0.09691(14)
C10 C 0.9232(4) 0.53971(17) 0.06065(14)
H10 H 0.8506 0.5449 0.0236
C15 C 0.7987(4) 0.40989(17) 0.08063(15)
Zn3 Zn 0.56351(5) 0.33013(2) 0.005527(18)
O5_2 O 0.2239(3) 0.85930(14) 0.37913(12)
C9_2 C 0.0772(4) 0.97216(16) 0.40309(14)
C15_2 C 0.2013(4) 0.90989(17) 0.41937(15)
O1_2 O 0.6174(3) 0.22715(12) 0.03747(11)
O8_2 O 0.8502(3) 0.21891(12) 0.44512(11)
O9_2 O 0.3746(3) 0.36270(15) 0.05763(12)
H1_2 H 0.2788 0.3500 0.0415
H2_2 H 0.3714 0.3509 0.0972
N1_2 N 0.7104(3) 0.07407(15) 0.24137(12)
N2_2 N 0.7675(3) 0.01385(15) 0.26819(12)
C1_2 C 0.5106(4) 0.11321(17) 0.07871(14)
C2_2 C 0.4251(4) 0.04471(17) 0.06485(14)
H6_2 H 0.3602 0.0397 0.0258
C5_2 C 0.6141(4) 0.06063(17) 0.18165(14)
C6_2 C 0.6038(4) 0.12112(17) 0.13776(15)
H8_2 H 0.6596 0.1671 0.1479
C7_2 C 0.8643(4) 0.02567(18) 0.32789(14)
C11_2 C 0.9692(4) 0.09928(16) 0.42079(14)
C12_2 C 0.8643(4) 0.09311(17) 0.36472(14)
H11_2 H 0.7942 0.1337 0.3516
C13_2 C 0.4984(4) 0.17832(17) 0.03128(15)
C16_2 C 0.9670(4) 0.17142(17) 0.46099(15)
N6 N 0.9805(3) 0.35200(15) 0.57412(12)
O4_2 O 0.3399(4) 0.85920(14) 0.13549(12)
C3_2 C 0.4352(4) 0.98361(17) 0.10854(14)
C4_2 C 0.5301(4) 0.99165(17) 0.16722(15)
H7_2 H 0.5376 0.9511 0.1968
C8_2 C 0.9674(4) 0.96468(17) 0.34844(14)
H9_2 H 0.9625 0.9186 0.3253
C14_2 C 0.3405(4) 0.91036(17) 0.09394(15)
C26 C 0.9775(4) 0.42745(18) 0.58907(15)
H19 H 0.9227 0.4613 0.5595
N5 N 0.0195(3) 0.85200(15) 0.92588(12)
C26_2 C 0.0225(4) 0.92745(18) 0.91093(15)
H19_2 H 0.0773 0.9613 0.9405
H14 H 0.5773 0.0086 0.6749
H18 H 0.9557 0.0098 0.8463
O7 O 0.9257(3) 0.68276(13) 0.99415(11)
O7_2 O 0.0743(3) 0.18276(13) 0.50585(11)
O10_2 O 0.0817(3) 0.36138(15) 0.44028(12)
H3_2 H 0.0899 0.3579 0.4000
H4_2 H 0.1783 0.3561 0.4590
C10_2 C 0.0768(4) 0.03971(17) 0.43935(14)
H10_2 H 0.1494 0.0449 0.4764
O2_2 O 0.3801(3) 0.18414(14) 0.99087(12)
N3_2 N 0.4572(3) 0.35919(15) 0.91723(12)
N4_2 N 0.2137(3) 0.44248(16) 0.74559(12)
H5_2 H 0.2123 0.4922 0.7452
C17_2 C 0.3539(4) 0.31367(19) 0.88057(16)
H12_2 H 0.3380 0.2634 0.8947
C18_2 C 0.2698(4) 0.3366(2) 0.82338(16)
H13_2 H 0.1975 0.3029 0.8002
C19_2 C 0.2942(4) 0.41047(18) 0.80074(15)
C20_2 C 0.4026(4) 0.45852(19) 0.83865(15)
H14_2 H 0.4227 0.5086 0.8251
C21_2 C 0.4785(4) 0.43164(18) 0.89553(15)
H15_2 H 0.5481 0.4648 0.9205
C22_2 C 0.0612(5) 0.3055(2) 0.61771(17)
H16_2 H 0.0650 0.2530 0.6084
C23_2 C 0.1388(5) 0.3308(2) 0.67529(17)
H17_2 H 0.1936 0.2957 0.7037
C24_2 C 0.1353(4) 0.40863(18) 0.69113(15)
C25_2 C 0.0507(4) 0.45698(18) 0.64552(16)
H18_2 H 0.0443 0.5098 0.6537
O7_3 O 0.0743(3) 0.31724(13) 0.00585(11)
O5_3 O 0.2239(3) 0.64070(14) 0.87913(12)
O6_2 O 0.2812(3) 0.58605(12) 0.97487(10)
O10_3 O 0.0817(3) 0.13862(15) 0.94028(12)
H3_3 H 0.0899 0.1421 0.9000
H4_3 H 0.1783 0.1439 0.9590
C9_3 C 0.0772(4) 0.52784(16) 0.90309(14)
C10_3 C 0.0768(4) 0.46029(17) 0.93935(14)
H10_3 H 0.1494 0.4551 0.9764
C15_3 C 0.2013(4) 0.59011(17) 0.91937(15)
Zn3_2 Zn 0.43649(5) 0.66987(2) 0.994473(18)
Zn1_2 Zn 0.56351(5) 0.16987(2) 0.505527(18)
Zn2 Zn 0.88083(5) 0.18044(2) 0.985686(18)
O1_3 O 0.6174(3) 0.27285(12) 0.53747(11)
O2_3 O 0.3801(3) 0.31586(14) 0.49087(12)
O3_2 O 0.2613(3) 0.59297(12) 0.53847(10)
O4_3 O 0.3399(4) 0.64080(14) 0.63549(12)
O8_3 O 0.8502(3) 0.28109(12) 0.94512(11)
O9_3 O 0.3746(3) 0.13730(15) 0.55763(12)
H1_3 H 0.2788 0.1500 0.5415
H2_3 H 0.3714 0.1491 0.5972
N1_3 N 0.7104(3) 0.42593(15) 0.74137(12)
N2_3 N 0.7675(3) 0.48615(15) 0.76819(12)
N3_3 N 0.4572(3) 0.14081(15) 0.41723(12)
N4_3 N 0.2137(3) 0.05752(16) 0.24559(12)
H5_3 H 0.2123 0.0078 0.2452
C1_3 C 0.5106(4) 0.38679(17) 0.57871(14)
C2_3 C 0.4251(4) 0.45529(17) 0.56485(14)
H6_3 H 0.3602 0.4603 0.5258
C3_3 C 0.4352(4) 0.51639(17) 0.60854(14)
C4_3 C 0.5301(4) 0.50835(17) 0.66722(15)
H7_3 H 0.5376 0.5489 0.6968
C5_3 C 0.6141(4) 0.43937(17) 0.68165(14)
C6_3 C 0.6038(4) 0.37888(17) 0.63776(15)
H8_3 H 0.6596 0.3329 0.6479
C7_3 C 0.8643(4) 0.47433(18) 0.82789(14)
C8_3 C 0.9674(4) 0.53532(17) 0.84844(14)
H9_3 H 0.9625 0.5814 0.8253
C11_3 C 0.9692(4) 0.40072(16) 0.92079(14)
C12_3 C 0.8643(4) 0.40689(17) 0.86472(14)
H11_3 H 0.7942 0.3663 0.8516
C13_3 C 0.4984(4) 0.32168(17) 0.53128(15)
C14_3 C 0.3405(4) 0.58964(17) 0.59394(15)
C16_3 C 0.9670(4) 0.32858(17) 0.96099(15)
C17_3 C 0.3539(4) 0.18633(19) 0.38057(16)
H12_3 H 0.3380 0.2366 0.3947
C18_3 C 0.2698(4) 0.1634(2) 0.32338(16)
H13_3 H 0.1975 0.1971 0.3002
C19_3 C 0.2942(4) 0.08953(18) 0.30074(15)
C20_3 C 0.4026(4) 0.04148(19) 0.33865(15)
C21_3 C 0.4785(4) 0.06836(18) 0.39553(15)
H15_3 H 0.5481 0.0352 0.4205
C22_3 C 0.0612(5) 0.1945(2) 0.11771(17)
H16_3 H 0.0650 0.2470 0.1084
C23_3 C 0.1388(5) 0.1692(2) 0.17529(17)
H17_3 H 0.1936 0.2043 0.2037
C24_3 C 0.1353(4) 0.09137(18) 0.19113(15)
C25_3 C 0.0507(4) 0.04302(18) 0.14552(16)
Zn5_2 Zn 0.11917(5) 0.68044(2) 0.514314(18)
O11_2 O 0.7387(3) 0.09297(12) 0.96153(10)
O12_2 O 0.7188(3) 0.08605(12) 0.52513(10)
N5_2 N 0.0195(3) 0.64800(15) 0.42588(12)
C26_3 C 0.0225(4) 0.57255(18) 0.41093(15)
H19_3 H 0.0773 0.5387 0.4405
O4_4 O 0.6601(4) 0.14080(14) 0.86451(12)
C3_4 C 0.5648(4) 0.01639(17) 0.89146(14)
C4_4 C 0.4699(4) 0.00835(17) 0.83278(15)
H7_4 H 0.4624 0.0489 0.8032
C8_4 C 0.0326(4) 0.03532(17) 0.65156(14)
H9_4 H 0.0375 0.0814 0.6747
C14_4 C 0.6595(4) 0.08964(17) 0.90606(15)
O1_4 O 0.3826(3) 0.77285(12) 0.96253(11)
O8_4 O 0.1498(3) 0.78109(12) 0.55488(11)
O9_4 O 0.6254(3) 0.63730(15) 0.94237(12)
H1_4 H 0.7212 0.6500 0.9585
H2_4 H 0.6286 0.6491 0.9028
N1_4 N 0.2896(3) 0.92593(15) 0.75863(12)
N2_4 N 0.2325(3) 0.98615(15) 0.73181(12)
C1_4 C 0.4894(4) 0.88679(17) 0.92129(14)
C2_4 C 0.5749(4) 0.95529(17) 0.93515(14)
H6_4 H 0.6398 0.9603 0.9742
C5_4 C 0.3859(4) 0.93937(17) 0.81835(14)
C6_4 C 0.3962(4) 0.87888(17) 0.86224(15)
H8_4 H 0.3404 0.8329 0.8521
C7_4 C 0.1357(4) 0.97433(18) 0.67211(14)
C11_4 C 0.0308(4) 0.90072(16) 0.57921(14)
C12_4 C 0.1357(4) 0.90689(17) 0.63528(14)
H11_4 H 0.2058 0.8663 0.6484
C13_4 C 0.5016(4) 0.82168(17) 0.96872(15)
C16_4 C 0.0330(4) 0.82858(17) 0.53901(15)
O5_4 O 0.7761(3) 0.14070(14) 0.62087(12)
C9_4 C 0.9228(4) 0.02784(16) 0.59691(14)
C15_4 C 0.7987(4) 0.09011(17) 0.58063(15)
N6_2 N 0.9805(3) 0.14800(15) 0.07412(12)
C26_4 C 0.9775(4) 0.07255(18) 0.08907(15)
H19_4 H 0.9227 0.0387 0.0595
H14_3 H 0.4227 0.9914 0.3251
H18_3 H 0.0443 0.9902 0.1537
O2_4 O 0.6199(3) 0.81586(14) 0.00913(12)
N3_4 N 0.5428(3) 0.64081(15) 0.08277(12)
N4_4 N 0.7863(3) 0.55752(16) 0.25441(12)
H5_4 H 0.7877 0.5078 0.2548
C17_4 C 0.6461(4) 0.68633(19) 0.11943(16)
H12_4 H 0.6620 0.7366 0.1053
C18_4 C 0.7302(4) 0.6634(2) 0.17662(16)
H13_4 H 0.8025 0.6971 0.1998
C19_4 C 0.7058(4) 0.58953(18) 0.19926(15)
C20_4 C 0.5974(4) 0.54148(19) 0.16135(15)
H14_4 H 0.5773 0.4914 0.1749
C21_4 C 0.5215(4) 0.56836(18) 0.10447(15)
H15_4 H 0.4519 0.5352 0.0795
C22_4 C 0.9388(5) 0.6945(2) 0.38229(17)
H16_4 H 0.9350 0.7470 0.3916
C23_4 C 0.8612(5) 0.6692(2) 0.32471(17)
H17_4 H 0.8064 0.7043 0.2963
C24_4 C 0.8647(4) 0.59137(18) 0.30887(15)
C25_4 C 0.9493(4) 0.54302(18) 0.35448(16)
H18_4 H 0.9557 0.4902 0.3463
O7_4 O 0.9257(3) 0.81724(13) 0.49415(11)
O10_4 O 0.9183(3) 0.63862(15) 0.55972(12)
H3_4 H 0.9101 0.6421 0.6000
H4_4 H 0.8217 0.6439 0.5410
C10_4 C 0.9232(4) 0.96029(17) 0.56065(14)
H10_4 H 0.8506 0.9551 0.5236
loop_
_geom_bond_atom_site_label_1
_geom_bond_atom_site_label_2
_geom_bond_site_symmetry_1
_geom_bond_site_symmetry_2
Zn1 O1 1_555 1_555
Zn4 O8 1_555 1_555
O1 C13 1_555 1_555
O2 C13 1_555 1_555
O3 C14 1_555 1_555
O4 C14 1_555 1_555
O8 C16 1_555 1_555
O9 Zn1 1_555 1_555
H1 O9 1_555 1_555
H2 O9 1_555 1_555
N1 N2 1_555 1_555
N2 C7 1_555 1_555
N3 Zn1 1_555 1_555
N4 H5 1_555 1_555
C1 C2 1_555 1_555
C2 H6 1_555 1_555
C3 C2 1_555 1_555
C4 C3 1_555 1_555
H7 C4 1_555 1_555
C5 N1 1_555 1_555
C6 C1 1_555 1_555
H8 C6 1_555 1_555
C7 C8 1_555 1_555
C8 H9 1_555 1_555
C12 C7 1_555 1_555
H11 C12 1_555 1_555
C13 C1 1_555 1_555
C14 C3 1_555 1_555
C16 C11 1_555 1_555
C17 N3 1_555 1_555
H12 C17 1_555 1_555
C18 C17 1_555 1_555
H13 C18 1_555 1_555
C19 N4 1_555 1_555
C20 C19 1_555 1_555
C21 N3 1_555 1_555
H15 C21 1_555 1_555
C22 H16 1_555 1_555
C23 C22 1_555 1_555
H17 C23 1_555 1_555
C24 N4 1_555 1_555
C25 C24 1_555 1_555
Zn5 O3 1_555 1_555
O11 Zn4 1_555 1_555
O12 Zn1 1_555 1_555
C4 C5 1_555 1_555
C5 C6 1_555 1_555
C11 C12 1_555 1_555
C18 C19 1_555 1_555
C20 C21 1_555 1_555
C23 C24 1_555 1_555
O5 C15 1_555 1_555
O6 C15 1_555 1_555
H3 O10 1_555 1_555
H4 O10 1_555 1_555
C10 C9 1_555 1_555
H10 C10 1_555 1_555
C15 C9 1_555 1_555
Zn3 O6 1_555 1_555
O5_2 C15_2 1_555 1_555
O12 C15_2 1_555 1_555
C15_2 C9_2 1_555 1_555
Zn3 O1_2 1_555 1_555
Zn5 O8_2 1_555 1_555
O1_2 C13_2 1_555 1_555
O8_2 C16_2 1_555 1_555
O9_2 Zn3 1_555 1_555
H1_2 O9_2 1_555 1_555
H2_2 O9_2 1_555 1_555
N1_2 N2_2 1_555 1_555
N2_2 C7_2 1_555 1_555
C1_2 C2_2 1_555 1_555
C2_2 H6_2 1_555 1_555
C5_2 N1_2 1_555 1_555
C6_2 C1_2 1_555 1_555
H8_2 C6_2 1_555 1_555
C12_2 C7_2 1_555 1_555
H11_2 C12_2 1_555 1_555
C13_2 C1_2 1_555 1_555
C16_2 C11_2 1_555 1_555
N6 Zn5 1_555 1_555
C5_2 C6_2 1_555 1_555
C11_2 C12_2 1_555 1_555
O11 C14_2 1_555 1_555
O4_2 C14_2 1_555 1_555
C4_2 C3_2 1_555 1_555
H7_2 C4_2 1_555 1_555
C8_2 H9_2 1_555 1_555
C14_2 C3_2 1_555 1_555
C26 N6 1_555 1_555
H19 C26 1_555 1_555
C26_2 N5 1_555 1_555
H19_2 C26_2 1_555 1_555
H3_2 O10_2 1_555 1_555
H4_2 O10_2 1_555 1_555
H10_2 C10_2 1_555 1_555
N4_2 H5_2 1_555 1_555
C17_2 N3_2 1_555 1_555
H12_2 C17_2 1_555 1_555
C18_2 C17_2 1_555 1_555
H13_2 C18_2 1_555 1_555
C19_2 N4_2 1_555 1_555
C20_2 C19_2 1_555 1_555
H14_2 C20_2 1_555 1_555
C21_2 N3_2 1_555 1_555
H15_2 C21_2 1_555 1_555
C22_2 H16_2 1_555 1_555
C23_2 C22_2 1_555 1_555
H17_2 C23_2 1_555 1_555
C24_2 N4_2 1_555 1_555
C25_2 C24_2 1_555 1_555
H18_2 C25_2 1_555 1_555
C18_2 C19_2 1_555 1_555
C20_2 C21_2 1_555 1_555
C23_2 C24_2 1_555 1_555
O5_3 C15_3 1_555 1_555
O6_2 C15_3 1_555 1_555
H3_3 O10_3 1_555 1_555
H4_3 O10_3 1_555 1_555
C10_3 C9_3 1_555 1_555
H10_3 C10_3 1_555 1_555
C15_3 C9_3 1_555 1_555
Zn3_2 O6_2 1_555 1_555
Zn1_2 O1_3 1_555 1_555
Zn2 O8_3 1_555 1_555
O1_3 C13_3 1_555 1_555
O2_3 C13_3 1_555 1_555
O3_2 C14_3 1_555 1_555
O4_3 C14_3 1_555 1_555
O8_3 C16_3 1_555 1_555
O9_3 Zn1_2 1_555 1_555
H1_3 O9_3 1_555 1_555
H2_3 O9_3 1_555 1_555
N1_3 N2_3 1_555 1_555
N2_3 C7_3 1_555 1_555
N3_3 Zn1_2 1_555 1_555
N4_3 H5_3 1_555 1_555
C1_3 C2_3 1_555 1_555
C2_3 H6_3 1_555 1_555
C3_3 C2_3 1_555 1_555
C4_3 C3_3 1_555 1_555
H7_3 C4_3 1_555 1_555
C5_3 N1_3 1_555 1_555
C6_3 C1_3 1_555 1_555
H8_3 C6_3 1_555 1_555
C7_3 C8_3 1_555 1_555
C8_3 H9_3 1_555 1_555
C12_3 C7_3 1_555 1_555
H11_3 C12_3 1_555 1_555
C13_3 C1_3 1_555 1_555
C14_3 C3_3 1_555 1_555
C16_3 C11_3 1_555 1_555
C17_3 N3_3 1_555 1_555
H12_3 C17_3 1_555 1_555
C18_3 C17_3 1_555 1_555
H13_3 C18_3 1_555 1_555
C19_3 N4_3 1_555 1_555
C20_3 C19_3 1_555 1_555
C21_3 N3_3 1_555 1_555
H15_3 C21_3 1_555 1_555
C22_3 H16_3 1_555 1_555
C23_3 C22_3 1_555 1_555
H17_3 C23_3 1_555 1_555
C24_3 N4_3 1_555 1_555
C25_3 C24_3 1_555 1_555
Zn5_2 O3_2 1_555 1_555
O11_2 Zn2 1_555 1_555
O12_2 Zn1_2 1_555 1_555
C4_3 C5_3 1_555 1_555
C5_3 C6_3 1_555 1_555
C11_3 C12_3 1_555 1_555
C18_3 C19_3 1_555 1_555
C20_3 C21_3 1_555 1_555
C23_3 C24_3 1_555 1_555
C26_3 N5_2 1_555 1_555
H19_3 C26_3 1_555 1_555
Zn5_2 N5_2 1_555 1_555
O11_2 C14_4 1_555 1_555
O4_4 C14_4 1_555 1_555
C4_4 C3_4 1_555 1_555
H7_4 C4_4 1_555 1_555
C8_4 H9_4 1_555 1_555
C14_4 C3_4 1_555 1_555
Zn3_2 O1_4 1_555 1_555
Zn5_2 O8_4 1_555 1_555
O1_4 C13_4 1_555 1_555
O8_4 C16_4 1_555 1_555
O9_4 Zn3_2 1_555 1_555
H1_4 O9_4 1_555 1_555
H2_4 O9_4 1_555 1_555
N1_4 N2_4 1_555 1_555
N2_4 C7_4 1_555 1_555
C1_4 C2_4 1_555 1_555
C2_4 H6_4 1_555 1_555
C5_4 N1_4 1_555 1_555
C6_4 C1_4 1_555 1_555
H8_4 C6_4 1_555 1_555
C12_4 C7_4 1_555 1_555
H11_4 C12_4 1_555 1_555
C13_4 C1_4 1_555 1_555
C16_4 C11_4 1_555 1_555
C5_4 C6_4 1_555 1_555
C11_4 C12_4 1_555 1_555
O5_4 C15_4 1_555 1_555
O12_2 C15_4 1_555 1_555
C15_4 C9_4 1_555 1_555
C26_4 N6_2 1_555 1_555
H19_4 C26_4 1_555 1_555
N4_4 H5_4 1_555 1_555
C17_4 N3_4 1_555 1_555
H12_4 C17_4 1_555 1_555
C18_4 C17_4 1_555 1_555
H13_4 C18_4 1_555 1_555
C19_4 N4_4 1_555 1_555
C20_4 C19_4 1_555 1_555
H14_4 C20_4 1_555 1_555
C21_4 N3_4 1_555 1_555
H15_4 C21_4 1_555 1_555
C22_4 H16_4 1_555 1_555
C23_4 C22_4 1_555 1_555
H17_4 C23_4 1_555 1_555
C24_4 N4_4 1_555 1_555
C25_4 C24_4 1_555 1_555
H18_4 C25_4 1_555 1_555
C18_4 C19_4 1_555 1_555
C20_4 C21_4 1_555 1_555
C23_4 C24_4 1_555 1_555
H3_4 O10_4 1_555 1_555
H4_4 O10_4 1_555 1_555
H10_4 C10_4 1_555 1_555

#END
