
###############################################################################
#
# This file contains modified crystal structure data generated from the
# MOF subset of the Cambridge Structural Database (CSD) v543 
# hosted by the Cambridge Crystallographic Data Centre (CCDC).
#
# This work is licensed under the Creative Commons
# Attribution-NonCommercial-ShareAlike 4.0 International License.
# To view a copy of this license, visit
# http://creativecommons.org/licenses/by-nc-sa/4.0/
# or send a letter to
# Creative Commons, PO Box 1866, Mountain View, CA 94042, USA.
#
# CIF created using the CSD Python API on 29 September 2022
# The structure has been converted into the P1 space group
# The structure has a 3D framework
# The original CSD entry MICJOA is in the triclinic crystal system
# The framework has been calculated to contain at least 10.0% void space
# The void calculation uses a probe of radius 1.32A, grid spacing 0.4
#
###############################################################################

data_MICJOA
_chemical_formula_moiety         '(C32 H12 Cd2 N4 O16)n'
_symmetry_cell_setting           triclinic
_symmetry_space_group_name_H-M   'P 1'
_symmetry_Int_Tables_number      1
_space_group_name_Hall           'P 1'
loop_
_symmetry_equiv_pos_site_id
_symmetry_equiv_pos_as_xyz
1 x,y,z
_cell_length_a                   9.914(2)
_cell_length_b                   10.518(2)
_cell_length_c                   11.962(2)
_cell_angle_alpha                96.75(3)
_cell_angle_beta                 109.98(3)
_cell_angle_gamma                111.78(3)
_cell_volume                     1045.06
loop_
_atom_site_label
_atom_site_type_symbol
_atom_site_fract_x
_atom_site_fract_y
_atom_site_fract_z
O27 O 0.0479(5) 0.3267(4) 0.4071(4)
O29 O 0.0492(5) 0.2115(5) 0.2427(4)
Cd7 Cd 0.0000 0.5000 0.5000
Cd2 Cd 0.78967(4) 0.19297(3) 0.25047(3)
O17 O 0.7803(5) 0.3674(4) 0.1645(4)
O22 O 0.7644(4) 0.2969(4) 0.4320(4)
O25 O 0.5418(4) 0.1616(4) 0.2672(3)
C3 C 0.7219(6) 0.9229(5) 0.1583(5)
C6 C 0.6929(6) 0.5202(5) 0.0046(5)
C9 C 0.7727(6) 0.7082(5) 0.1830(5)
H5 H 0.8204 0.7472 0.2685
C10 C 0.7092(6) 0.7805(5) 0.1054(5)
C14 C 0.7645(6) 0.5773(5) 0.1322(5)
C16 C 0.8229(7) 0.4931(6) 0.2152(5)
O1 O 0.7687(6) 0.9672(4) 0.2732(4)
O2 O 0.6847(5) 0.9931(4) 0.0856(4)
O4 O 0.9085(6) 0.5587(5) 0.3279(3)
Cd7_2 Cd 1.0000 0.5000 0.5000
C1 C 0.6132(6) 0.2450(6) 0.3745(5)
C2 C 0.2841(6) 0.3030(5) 0.4280(5)
C4 C 0.3671(6) 0.2611(6) 0.3720(5)
H1 H 0.3183 0.2179 0.2871
C5 C 0.6344(6) 0.7184(5) 0.9765(5)
H2 H 0.5870 0.7629 0.9241
H3 H 0.6865 0.4328 0.9706
C7 C 0.3572(6) 0.3668(5) 0.5559(5)
H4 H 0.3027 0.3959 0.5950
C8 C 0.6314(6) 0.5911(5) 0.9278(4)
C11 C 0.1174(6) 0.2778(6) 0.3523(5)
C12 C 0.5944(6) 0.3420(6) 0.5656(5)
H6 H 0.6969 0.3531 0.6117
C13 C 0.5218(6) 0.2821(5) 0.4398(5)
C15 C 0.5113(6) 0.3864(6) 0.6240(5)
N1 N 0.5508(5) 0.5325(4) 0.7956(4)
N2 N 0.5961(5) 0.4495(5) 0.7559(4)
Cd13 Cd 0.21033(4) 0.80703(3) 0.74953(3)
O20 O 0.0915(6) 0.4413(5) 0.6721(3)
O24 O 0.2356(4) 0.7031(4) 0.5680(4)
C17 C 0.3868(6) 0.7550(6) 0.6255(5)
C18 C 0.7159(6) 0.6970(5) 0.5720(5)
C20 C 0.6329(6) 0.7389(6) 0.6280(5)
H7 H 0.6817 0.7821 0.7129
C21 C 0.3656(6) 0.2816(5) 0.0235(5)
H8 H 0.4130 0.2371 0.0759
H9 H 0.3135 0.5672 0.0294
C23 C 0.6428(6) 0.6332(5) 0.4441(5)
H10 H 0.6973 0.6041 0.4050
C24 C 0.3686(6) 0.4089(5) 0.0722(4)
C27 C 0.8826(6) 0.7222(6) 0.6477(5)
C28 C 0.4056(6) 0.6580(6) 0.4344(5)
H12 H 0.3031 0.6469 0.3883
C29 C 0.4782(6) 0.7179(5) 0.5602(5)
C31 C 0.4887(6) 0.6136(6) 0.3760(5)
N3 N 0.4492(5) 0.4675(4) 0.2044(4)
N4 N 0.4039(5) 0.5505(5) 0.2441(4)
O14 O 0.4582(4) 0.8384(4) 0.7328(3)
O15 O 0.9521(5) 0.6733(4) 0.5929(4)
O16 O 0.9508(5) 0.7885(5) 0.7573(4)
C19 C 0.2781(6) 0.0771(5) 0.8417(5)
C22 C 0.3071(6) 0.4798(5) 0.9954(5)
C25 C 0.2273(6) 0.2918(5) 0.8170(5)
H11 H 0.1796 0.2528 0.7315
C26 C 0.2908(6) 0.2195(5) 0.8946(5)
C30 C 0.2355(6) 0.4227(5) 0.8678(5)
C32 C 0.1771(7) 0.5069(6) 0.7848(5)
O9 O 0.2313(6) 0.0328(4) 0.7268(4)
O10 O 0.3153(5) 0.0069(4) 0.9144(4)
O11 O 0.2197(5) 0.6326(4) 0.8355(4)
loop_
_geom_bond_atom_site_label_1
_geom_bond_atom_site_label_2
_geom_bond_site_symmetry_1
_geom_bond_site_symmetry_2
O17 Cd2 1_555 1_555
O22 Cd2 1_555 1_555
O25 Cd2 1_555 1_555
C3 C10 1_555 1_555
C9 H5 1_555 1_555
C14 C6 1_555 1_555
C16 C14 1_555 1_555
O1 C3 1_555 1_555
O2 C3 1_555 1_555
O17 C16 1_555 1_555
O4 C16 1_555 1_555
Cd7_2 O4 1_555 1_555
C9 C10 1_555 1_555
C9 C14 1_555 1_555
C1 C13 1_555 1_555
C2 C4 1_555 1_555
C4 H1 1_555 1_555
C5 H2 1_555 1_555
C7 C2 1_555 1_555
H4 C7 1_555 1_555
C8 C5 1_555 1_555
C11 C2 1_555 1_555
C12 H6 1_555 1_555
C13 C4 1_555 1_555
C15 C7 1_555 1_555
Cd7 O27 1_555 1_555
N1 C8 1_555 1_555
N2 C15 1_555 1_555
O22 C1 1_555 1_555
O25 C1 1_555 1_555
O27 C11 1_555 1_555
O29 C11 1_555 1_555
Cd7_2 O22 1_555 1_555
O20 Cd7 1_555 1_555
O24 Cd7 1_555 1_555
C12 C13 1_555 1_555
C12 C15 1_555 1_555
N1 N2 1_555 1_555
Cd13 O24 1_555 1_555
C17 C29 1_555 1_555
C18 C20 1_555 1_555
C20 H7 1_555 1_555
C21 H8 1_555 1_555
C23 C18 1_555 1_555
H10 C23 1_555 1_555
C24 C21 1_555 1_555
C27 C18 1_555 1_555
C28 H12 1_555 1_555
C29 C20 1_555 1_555
C31 C23 1_555 1_555
N3 C24 1_555 1_555
N4 C31 1_555 1_555
O24 C17 1_555 1_555
O14 C17 1_555 1_555
O15 Cd7_2 1_555 1_555
O16 C27 1_555 1_555
C27 O15 1_555 1_555
C28 C29 1_555 1_555
C28 C31 1_555 1_555
N3 N4 1_555 1_555
O14 Cd13 1_555 1_555
C19 C26 1_555 1_555
C25 H11 1_555 1_555
C30 C22 1_555 1_555
C32 C30 1_555 1_555
O9 C19 1_555 1_555
O10 C19 1_555 1_555
O11 C32 1_555 1_555
O20 C32 1_555 1_555
Cd13 O11 1_555 1_555
C25 C26 1_555 1_555
C25 C30 1_555 1_555

#END
