
###############################################################################
#
# This file contains modified crystal structure data generated from the
# MOF subset of the Cambridge Structural Database (CSD) v543 
# hosted by the Cambridge Crystallographic Data Centre (CCDC).
#
# This work is licensed under the Creative Commons
# Attribution-NonCommercial-ShareAlike 4.0 International License.
# To view a copy of this license, visit
# http://creativecommons.org/licenses/by-nc-sa/4.0/
# or send a letter to
# Creative Commons, PO Box 1866, Mountain View, CA 94042, USA.
#
# CIF created using the CSD Python API on 29 September 2022
# The structure has been converted into the P1 space group
# The structure has a 3D framework
# The original CSD entry MICKAN is in the monoclinic crystal system
# The framework has been calculated to contain at least 10.0% void space
# The void calculation uses a probe of radius 1.32A, grid spacing 0.4
#
###############################################################################

data_MICKAN
_chemical_formula_moiety         '(C168 H112 La4 N4 O25 S12)n'
_symmetry_cell_setting           triclinic
_symmetry_space_group_name_H-M   'P 1'
_symmetry_Int_Tables_number      1
_space_group_name_Hall           'P 1'
loop_
_symmetry_equiv_pos_site_id
_symmetry_equiv_pos_as_xyz
1 x,y,z
_cell_length_a                   32.314(17)
_cell_length_b                   23.992(12)
_cell_length_c                   8.225(4)
_cell_angle_alpha                90
_cell_angle_beta                 101.060(7)
_cell_angle_gamma                90
_cell_volume                     6258.22
loop_
_atom_site_label
_atom_site_type_symbol
_atom_site_fract_x
_atom_site_fract_y
_atom_site_fract_z
O12 O 0.5535(3) 0.5036(4) 0.0366(12)
C1 C 0.3716(4) 0.0444(5) 0.0352(15)
H1 H 0.4184 0.0056 0.1941
La1 La 0.49890(3) 0.48768(2) 0.73227(5)
C15 C 0.3818(4) 0.1025(5) 0.0876(16)
C17 C 0.4179(6) 0.1186(6) 0.190(3)
H8 H 0.4381 0.0911 0.2284
S2 S 0.44904(14) 0.29037(14) 0.4052(5)
C24 C 0.3994(4) 0.2155(5) 0.1922(16)
C25 C 0.4108(4) 0.3711(6) 0.2351(18)
H12 H 0.4026 0.4068 0.1939
C26 C 0.4083(4) 0.2748(5) 0.2445(15)
C27 C 0.3915(5) 0.3195(6) 0.1659(19)
H13 H 0.3693 0.3182 0.0738
C28 C 0.4420(4) 0.3611(5) 0.3662(15)
C30 C 0.4267(6) 0.1709(7) 0.241(3)
H15 H 0.4524 0.1780 0.3128
C31 C 0.3522(7) 0.1465(7) 0.036(3)
O1 O 0.4183(3) 0.4706(5) 0.6757(13)
N1 N 0.3577(5) 0.4388(7) 0.758(2)
C32 C 0.3943(6) 0.4677(7) 0.7741(17)
H17 H 0.4024 0.4880 0.8729
C33 C 0.3314(6) 0.4405(11) 0.872(2)
H18 H 0.3481 0.4438 0.9825
H19 H 0.3148 0.4066 0.8634
H20 H 0.3127 0.4724 0.8486
C34 C 0.3509(8) 0.4032(15) 0.605(3)
H21 H 0.3713 0.4133 0.5375
H22 H 0.3227 0.4091 0.5422
H23 H 0.3545 0.3643 0.6363
C35 C 0.3638(7) 0.2012(7) 0.092(3)
H24 H 0.3446 0.2300 0.0540
O2 O 0.4925(3) 0.3879(3) 0.6065(11)
C36 C 0.4692(5) 0.4026(5) 0.4746(15)
O3 O 0.4665(3) 0.4538(3) 0.4218(10)
La4 La 0.49890(3) 0.51232(2) 0.23227(5)
O8 O 0.4665(3) 0.5462(3) 0.9218(10)
O9 O 0.4767(3) 0.5677(3) 0.4897(11)
O10 O 0.4767(3) 0.4323(3) 0.9897(11)
O11 O 0.5237(3) 0.5900(3) 0.7206(9)
O13 O 0.5535(3) 0.4964(4) 0.5366(12)
O14 O 0.5615(3) 0.4297(4) 0.8733(11)
C2 C 0.3946(4) 0.9992(6) 0.1109(17)
C3 C 0.3826(5) 0.9434(6) 0.0648(14)
C16 C 0.4100(4) 0.8960(5) 0.1491(16)
C18 C 0.4539(4) 0.8020(7) 0.3118(18)
S1 S 0.45892(12) 0.68906(13) 0.3775(4)
C19 C 0.4764(5) 0.7566(5) 0.4103(19)
C21 C 0.5236(7) 0.7053(7) 0.605(3)
H10 H 0.5467 0.6992 0.6915
C22 C 0.4977(5) 0.6642(5) 0.5309(15)
C23 C 0.5119(6) 0.7586(6) 0.536(2)
H11 H 0.5265 0.7916 0.5717
C37 C 0.3893(7) 0.8437(7) 0.157(3)
H25 H 0.3607 0.8392 0.1083
C38 C 0.4130(6) 0.7988(7) 0.241(3)
H26 H 0.3992 0.7646 0.2463
C39 C 0.4725(7) 0.8553(9) 0.304(4)
H27 H 0.5008 0.8611 0.3543
C40 C 0.4490(6) 0.8987(7) 0.222(3)
H28 H 0.4626 0.9331 0.2200
C41 C 0.4985(5) 0.6035(5) 0.5853(15)
C21_2 C 0.5236(7) 0.2947(7) 0.105(3)
H10_2 H 0.5467 0.3008 0.1915
C22_2 C 0.4977(5) 0.3358(5) 0.0309(15)
C23_2 C 0.5119(6) 0.2414(6) 0.036(2)
H11_2 H 0.5265 0.2084 0.0717
O5 O 0.5237(3) 0.4100(3) 0.2206(9)
C41_2 C 0.4985(5) 0.3965(5) 0.0853(15)
C2_2 C 0.3946(4) 0.0008(6) 0.6109(17)
C3_2 C 0.3826(5) 0.0566(6) 0.5648(14)
C4 C 0.3468(4) 0.0656(5) 0.4449(15)
H2 H 0.3389 0.1023 0.4140
C5 C 0.3223(4) 0.0224(5) 0.3698(16)
C12 C 0.2823(4) 0.0327(5) 0.2415(16)
C14 C 0.2688(5) 0.0872(5) 0.196(2)
H7 H 0.2845 0.1175 0.2470
C16_2 C 0.4100(4) 0.1040(5) 0.6491(16)
C18_2 C 0.4539(4) 0.1980(7) 0.8118(18)
S1_2 S 0.45892(12) 0.31094(13) 0.8775(4)
C19_2 C 0.4764(5) 0.2434(5) 0.9103(19)
C20 C 0.2321(5) 0.0977(6) 0.075(2)
H9 H 0.2220 0.1343 0.0555
C37_2 C 0.3893(7) 0.1563(7) 0.657(3)
H25_2 H 0.3607 0.1608 0.6083
C38_2 C 0.4130(6) 0.2012(7) 0.741(3)
H26_2 H 0.3992 0.2354 0.7463
C39_2 C 0.4725(7) 0.1447(9) 0.804(4)
H27_2 H 0.5008 0.1389 0.8543
C40_2 C 0.4490(6) 0.1013(7) 0.722(3)
H28_2 H 0.4626 0.0669 0.7200
O1_2 O 0.4183(3) 0.5294(5) 0.1757(13)
N1_2 N 0.3577(5) 0.5612(7) 0.258(2)
C32_2 C 0.3943(6) 0.5323(7) 0.2741(17)
H17_2 H 0.4024 0.5120 0.3729
C33_2 C 0.3314(6) 0.5595(11) 0.372(2)
H18_2 H 0.3481 0.5562 0.4825
H19_2 H 0.3148 0.5934 0.3634
H20_2 H 0.3127 0.5276 0.3486
C34_2 C 0.3509(8) 0.5968(15) 0.105(3)
H21_2 H 0.3713 0.5867 0.0375
H22_2 H 0.3227 0.5909 0.0422
H23_2 H 0.3545 0.6357 0.1363
O2_2 O 0.4925(3) 0.6121(3) 0.1065(11)
O14_2 O 0.5615(3) 0.5703(4) 0.3733(11)
C1_2 C 0.3716(4) 0.9556(5) 0.5352(15)
H1_2 H 0.4184 0.9944 0.6941
C6 C 0.3348(4) 0.9671(6) 0.4161(17)
H3 H 0.3181 0.9373 0.3665
C10 C 0.2582(5) 0.9911(6) 0.157(2)
H5 H 0.2659 0.9542 0.1871
C11 C 0.2240(4) 0.9987(6) 0.032(2)
C15_2 C 0.3818(4) 0.8975(5) 0.5876(16)
C17_2 C 0.4179(6) 0.8814(6) 0.690(3)
H8_2 H 0.4381 0.9089 0.7284
S2_2 S 0.44904(14) 0.70963(14) 0.9052(5)
C24_2 C 0.3994(4) 0.7845(5) 0.6922(16)
C25_2 C 0.4108(4) 0.6289(6) 0.7351(18)
H12_2 H 0.4026 0.5932 0.6939
C26_2 C 0.4083(4) 0.7252(5) 0.7445(15)
C27_2 C 0.3915(5) 0.6805(6) 0.6659(19)
H13_2 H 0.3693 0.6818 0.5738
C28_2 C 0.4420(4) 0.6389(5) 0.8662(15)
C30_2 C 0.4267(6) 0.8291(7) 0.741(3)
H15_2 H 0.4524 0.8220 0.8128
C31_2 C 0.3522(7) 0.8535(7) 0.536(3)
H16 H 0.3260 0.8606 0.4678
C35_2 C 0.3638(7) 0.7988(7) 0.592(3)
H24_2 H 0.3446 0.7700 0.5540
C36_2 C 0.4692(5) 0.5974(5) 0.9746(15)
C4_2 C 0.8468(4) 0.4344(5) 0.9449(15)
H2_2 H 0.8389 0.3977 0.9140
C5_2 C 0.8223(4) 0.4776(5) 0.8698(16)
C6_2 C 0.8348(4) 0.5329(6) 0.9161(17)
H3_2 H 0.8181 0.5627 0.8665
C7 C 0.6114(4) 0.4414(5) 0.1204(15)
C8 C 0.6343(4) 0.3905(5) 0.1197(18)
H4 H 0.6265 0.3624 0.0400
C9 C 0.6759(5) 0.4350(5) 0.3452(14)
C10_2 C 0.7582(5) 0.5089(6) 0.657(2)
H5_2 H 0.7659 0.5458 0.6871
C11_2 C 0.7240(4) 0.5013(6) 0.532(2)
H6 H 0.7092 0.5320 0.4777
C12_2 C 0.7823(4) 0.4673(5) 0.7415(16)
C13 C 0.7114(4) 0.4456(6) 0.4855(16)
C14_2 C 0.7688(5) 0.4128(5) 0.696(2)
H7_2 H 0.7845 0.3825 0.7470
C20_2 C 0.7321(5) 0.4023(6) 0.575(2)
H9_2 H 0.7220 0.3657 0.5555
S3 S 0.63746(11) 0.48458(11) 0.2780(4)
C29 C 0.6685(5) 0.3865(6) 0.2461(18)
H14 H 0.6855 0.3545 0.2654
H16_2 H 0.8260 0.6394 0.9678
C42 C 0.5744(4) 0.4596(5) 0.0021(15)
C7_2 C 0.6114(4) 0.5586(5) 0.6204(15)
C8_2 C 0.6343(4) 0.6095(5) 0.6197(18)
H4_2 H 0.6265 0.6376 0.5400
C9_2 C 0.6759(5) 0.5650(5) 0.8452(14)
H6_2 H 0.7092 0.4680 0.9777
C13_2 C 0.7114(4) 0.5544(6) 0.9855(16)
S3_2 S 0.63746(11) 0.51542(11) 0.7780(4)
C29_2 C 0.6685(5) 0.6135(6) 0.7461(18)
H14_2 H 0.6855 0.6455 0.7654
C42_2 C 0.5744(4) 0.5404(5) 0.5021(15)
C6_3 C 0.3348(4) 0.0329(6) 0.9161(17)
H3_3 H 0.3181 0.0627 0.8665
C10_3 C 0.2582(5) 0.0089(6) 0.657(2)
H5_3 H 0.2659 0.0458 0.6871
C11_3 C 0.2240(4) 0.0013(6) 0.532(2)
H6_3 H 0.2092 0.0320 0.4777
H16_3 H 0.3260 0.1394 0.9678
O6 O 0.0535(3) 0.0036(4) 0.0366(12)
O7 O 0.0615(3) 0.9297(4) 0.8733(11)
C7_3 C 0.1114(4) 0.0586(5) 0.6204(15)
C8_3 C 0.1343(4) 0.1095(5) 0.6197(18)
H4_3 H 0.1265 0.1376 0.5400
C9_3 C 0.1759(5) 0.0650(5) 0.8452(14)
C13_3 C 0.2114(4) 0.0544(6) 0.9855(16)
S3_3 S 0.13746(11) 0.01542(11) 0.7780(4)
C29_3 C 0.1685(5) 0.1135(6) 0.7461(18)
H14_3 H 0.1855 0.1455 0.7654
O7_2 O 0.0615(3) 0.0703(4) 0.3733(11)
C42_3 C 0.0744(4) 0.0404(5) 0.5021(15)
H6_4 H 0.2092 0.9680 0.9777
O6_2 O 0.0535(3) 0.9964(4) 0.5366(12)
O11_2 O 0.0237(3) 0.0900(3) 0.7206(9)
C21_3 C 0.0236(7) 0.2053(7) 0.605(3)
H10_3 H 0.0467 0.1992 0.6915
C23_3 C 0.0119(6) 0.2586(6) 0.536(2)
H11_3 H 0.0265 0.2916 0.5717
H27_3 H 0.0008 0.3611 0.3543
C21_4 C 0.0236(7) 0.7947(7) 0.105(3)
H10_4 H 0.0467 0.8008 0.1915
C23_4 C 0.0119(6) 0.7414(6) 0.036(2)
H11_4 H 0.0265 0.7084 0.0717
O5_2 O 0.0237(3) 0.9100(3) 0.2206(9)
C4_3 C 0.3468(4) 0.9344(5) 0.9449(15)
H2_3 H 0.3389 0.8977 0.9140
C5_3 C 0.3223(4) 0.9776(5) 0.8698(16)
C7_4 C 0.1114(4) 0.9414(5) 0.1204(15)
C8_4 C 0.1343(4) 0.8905(5) 0.1197(18)
H4_4 H 0.1265 0.8624 0.0400
C9_4 C 0.1759(5) 0.9350(5) 0.3452(14)
C12_3 C 0.2823(4) 0.9673(5) 0.7415(16)
C13_4 C 0.2114(4) 0.9456(6) 0.4855(16)
C14_3 C 0.2688(5) 0.9128(5) 0.696(2)
H7_3 H 0.2845 0.8825 0.7470
C20_3 C 0.2321(5) 0.9023(6) 0.575(2)
H9_3 H 0.2220 0.8657 0.5555
S3_4 S 0.13746(11) 0.98458(11) 0.2780(4)
C29_4 C 0.1685(5) 0.8865(6) 0.2461(18)
H14_4 H 0.1855 0.8545 0.2654
C42_4 C 0.0744(4) 0.9596(5) 0.0021(15)
La6 La 0.99890(3) 0.01232(2) 0.23227(5)
La5 La 0.99890(3) 0.98768(2) 0.73227(5)
O8_2 O 0.9665(3) 0.0462(3) 0.9218(10)
O9_2 O 0.9767(3) 0.0677(3) 0.4897(11)
C1_3 C 0.8716(4) 0.5444(5) 0.0352(15)
C2_3 C 0.8946(4) 0.4992(6) 0.1109(17)
H1_3 H 0.9184 0.5056 0.1941
C3_3 C 0.8826(5) 0.4434(6) 0.0648(14)
C15_3 C 0.8818(4) 0.6025(5) 0.0876(16)
C16_3 C 0.9100(4) 0.3960(5) 0.1491(16)
C17_3 C 0.9179(6) 0.6186(6) 0.190(3)
H8_3 H 0.9381 0.5911 0.2284
C18_3 C 0.9539(4) 0.3020(7) 0.3118(18)
S1_3 S 0.95892(12) 0.18906(13) 0.3775(4)
C19_3 C 0.9764(5) 0.2566(5) 0.4103(19)
C22_3 C 0.9977(5) 0.1642(5) 0.5309(15)
S2_3 S 0.94904(14) 0.79037(14) 0.4052(5)
C24_3 C 0.8994(4) 0.7155(5) 0.1922(16)
C25_3 C 0.9108(4) 0.8711(6) 0.2351(18)
H12_3 H 0.9026 0.9068 0.1939
C26_3 C 0.9083(4) 0.7748(5) 0.2445(15)
C27_3 C 0.8915(5) 0.8195(6) 0.1659(19)
H13_3 H 0.8693 0.8182 0.0738
C28_3 C 0.9420(4) 0.8611(5) 0.3662(15)
C30_3 C 0.9267(6) 0.6709(7) 0.241(3)
H15_3 H 0.9524 0.6780 0.3128
C31_3 C 0.8522(7) 0.6465(7) 0.036(3)
O1_3 O 0.9183(3) 0.9706(5) 0.6757(13)
N1_3 N 0.8577(5) 0.9388(7) 0.758(2)
C32_3 C 0.8943(6) 0.9677(7) 0.7741(17)
H17_3 H 0.9024 0.9880 0.8729
C33_3 C 0.8314(6) 0.9405(11) 0.872(2)
H18_3 H 0.8481 0.9438 0.9825
H19_3 H 0.8148 0.9066 0.8634
H20_3 H 0.8127 0.9724 0.8486
C34_3 C 0.8509(8) 0.9032(15) 0.605(3)
H21_3 H 0.8713 0.9133 0.5375
H22_3 H 0.8227 0.9091 0.5422
H23_3 H 0.8545 0.8643 0.6363
C35_3 C 0.8638(7) 0.7012(7) 0.092(3)
H24_3 H 0.8446 0.7300 0.0540
O2_3 O 0.9925(3) 0.8879(3) 0.6065(11)
C36_3 C 0.9692(5) 0.9026(5) 0.4746(15)
O3_2 O 0.9665(3) 0.9538(3) 0.4218(10)
C37_3 C 0.8893(7) 0.3437(7) 0.157(3)
H25_3 H 0.8607 0.3392 0.1083
C38_3 C 0.9130(6) 0.2988(7) 0.241(3)
H26_3 H 0.8992 0.2646 0.2463
C39_3 C 0.9725(7) 0.3553(9) 0.304(4)
C40_3 C 0.9490(6) 0.3987(7) 0.222(3)
H28_3 H 0.9626 0.4331 0.2200
C41_3 C 0.9985(5) 0.1035(5) 0.5853(15)
O10_2 O 0.9767(3) 0.9323(3) 0.9897(11)
C22_4 C 0.9977(5) 0.8358(5) 0.0309(15)
O1_4 O 0.9183(3) 0.0294(5) 0.1757(13)
N1_4 N 0.8577(5) 0.0612(7) 0.258(2)
C32_4 C 0.8943(6) 0.0323(7) 0.2741(17)
H17_4 H 0.9024 0.0120 0.3729
C33_4 C 0.8314(6) 0.0595(11) 0.372(2)
H18_4 H 0.8481 0.0562 0.4825
H19_4 H 0.8148 0.0934 0.3634
H20_4 H 0.8127 0.0276 0.3486
C34_4 C 0.8509(8) 0.0968(15) 0.105(3)
H21_4 H 0.8713 0.0867 0.0375
H22_4 H 0.8227 0.0909 0.0422
H23_4 H 0.8545 0.1357 0.1363
O2_4 O 0.9925(3) 0.1121(3) 0.1065(11)
C41_4 C 0.9985(5) 0.8965(5) 0.0853(15)
C1_4 C 0.8716(4) 0.4556(5) 0.5352(15)
C2_4 C 0.8946(4) 0.5008(6) 0.6109(17)
H1_4 H 0.9184 0.4944 0.6941
C3_4 C 0.8826(5) 0.5566(6) 0.5648(14)
C4_4 C 0.8468(4) 0.5656(5) 0.4449(15)
H2_4 H 0.8389 0.6023 0.4140
C5_4 C 0.8223(4) 0.5224(5) 0.3698(16)
C6_4 C 0.8348(4) 0.4671(6) 0.4161(17)
H3_4 H 0.8181 0.4373 0.3665
C10_4 C 0.7582(5) 0.4911(6) 0.157(2)
H5_4 H 0.7659 0.4542 0.1871
C11_4 C 0.7240(4) 0.4987(6) 0.032(2)
C12_4 C 0.7823(4) 0.5327(5) 0.2415(16)
C14_4 C 0.7688(5) 0.5872(5) 0.196(2)
H7_4 H 0.7845 0.6175 0.2470
C15_4 C 0.8818(4) 0.3975(5) 0.5876(16)
C16_4 C 0.9100(4) 0.6040(5) 0.6491(16)
C17_4 C 0.9179(6) 0.3814(6) 0.690(3)
H8_4 H 0.9381 0.4089 0.7284
C18_4 C 0.9539(4) 0.6980(7) 0.8118(18)
S1_4 S 0.95892(12) 0.81094(13) 0.8775(4)
C19_4 C 0.9764(5) 0.7434(5) 0.9103(19)
C20_4 C 0.7321(5) 0.5977(6) 0.075(2)
H9_4 H 0.7220 0.6343 0.0555
S2_4 S 0.94904(14) 0.20963(14) 0.9052(5)
C24_4 C 0.8994(4) 0.2845(5) 0.6922(16)
C25_4 C 0.9108(4) 0.1289(6) 0.7351(18)
H12_4 H 0.9026 0.0932 0.6939
C26_4 C 0.9083(4) 0.2252(5) 0.7445(15)
C27_4 C 0.8915(5) 0.1805(6) 0.6659(19)
H13_4 H 0.8693 0.1818 0.5738
C28_4 C 0.9420(4) 0.1389(5) 0.8662(15)
C30_4 C 0.9267(6) 0.3291(7) 0.741(3)
H15_4 H 0.9524 0.3220 0.8128
C31_4 C 0.8522(7) 0.3535(7) 0.536(3)
H16_4 H 0.8260 0.3606 0.4678
C35_4 C 0.8638(7) 0.2988(7) 0.592(3)
H24_4 H 0.8446 0.2700 0.5540
C36_4 C 0.9692(5) 0.0974(5) 0.9746(15)
C37_4 C 0.8893(7) 0.6563(7) 0.657(3)
H25_4 H 0.8607 0.6608 0.6083
C38_4 C 0.9130(6) 0.7012(7) 0.741(3)
H26_4 H 0.8992 0.7354 0.7463
C39_4 C 0.9725(7) 0.6447(9) 0.804(4)
C40_4 C 0.9490(6) 0.6013(7) 0.722(3)
H28_4 H 0.9626 0.5669 0.7200
H27_4 H 0.0008 0.6389 0.8543
loop_
_geom_bond_atom_site_label_1
_geom_bond_atom_site_label_2
_geom_bond_site_symmetry_1
_geom_bond_site_symmetry_2
La1 O1 1_555 1_555
C15 C1 1_555 1_555
C17 C15 1_555 1_555
H8 C17 1_555 1_555
S2 C26 1_555 1_555
C24 C26 1_555 1_555
C25 H12 1_555 1_555
C26 C27 1_555 1_555
C27 C25 1_555 1_555
H13 C27 1_555 1_555
C28 S2 1_555 1_555
C30 C17 1_555 1_555
H15 C30 1_555 1_555
C31 C15 1_555 1_555
O1 C32 1_555 1_555
N1 C32 1_555 1_555
C32 H17 1_555 1_555
C33 N1 1_555 1_555
H18 C33 1_555 1_555
H19 C33 1_555 1_555
H20 C33 1_555 1_555
C34 N1 1_555 1_555
H21 C34 1_555 1_555
H22 C34 1_555 1_555
H23 C34 1_555 1_555
C35 C24 1_555 1_555
H24 C35 1_555 1_555
O2 La1 1_555 1_555
C36 C28 1_555 1_555
O3 La1 1_555 1_555
La4 O3 1_555 1_555
O8 La1 1_555 1_555
O9 La1 1_555 1_555
O10 La1 1_555 1_555
O11 La1 1_555 1_555
O13 La1 1_555 1_555
O14 La1 1_555 1_555
C24 C30 1_555 1_555
C25 C28 1_555 1_555
C31 C35 1_555 1_555
O2 C36 1_555 1_555
C36 O3 1_555 1_555
La4 O9 1_555 1_555
La4 O13 1_555 1_555
C3 C2 1_555 1_555
C16 C3 1_555 1_555
C18 C19 1_555 1_555
S1 C19 1_555 1_555
C19 C23 1_555 1_555
C21 H10 1_555 1_555
C22 S1 1_555 1_555
C23 C21 1_555 1_555
H11 C23 1_555 1_555
C37 C16 1_555 1_555
H25 C37 1_555 1_555
C38 C18 1_555 1_555
H26 C38 1_555 1_555
C39 C18 1_555 1_555
H27 C39 1_555 1_555
C40 C16 1_555 1_555
H28 C40 1_555 1_555
O9 C41 1_555 1_555
O11 C41 1_555 1_555
C41 C22 1_555 1_555
C21 C22 1_555 1_555
C37 C38 1_555 1_555
C39 C40 1_555 1_555
C21_2 H10_2 1_555 1_555
C23_2 C21_2 1_555 1_555
H11_2 C23_2 1_555 1_555
O5 C41_2 1_555 1_555
C41_2 C22_2 1_555 1_555
C21_2 C22_2 1_555 1_555
O5 La4 1_555 1_555
C3_2 C2_2 1_555 1_555
C4 C3_2 1_555 1_555
H2 C4 1_555 1_555
C5 C4 1_555 1_555
C12 C5 1_555 1_555
C14 C12 1_555 1_555
H7 C14 1_555 1_555
C16_2 C3_2 1_555 1_555
C18_2 C19_2 1_555 1_555
S1_2 C19_2 1_555 1_555
H9 C20 1_555 1_555
C37_2 C16_2 1_555 1_555
H25_2 C37_2 1_555 1_555
C38_2 C18_2 1_555 1_555
H26_2 C38_2 1_555 1_555
C39_2 C18_2 1_555 1_555
H27_2 C39_2 1_555 1_555
C40_2 C16_2 1_555 1_555
H28_2 C40_2 1_555 1_555
C14 C20 1_555 1_555
C37_2 C38_2 1_555 1_555
C39_2 C40_2 1_555 1_555
La4 O1_2 1_555 1_555
O1_2 C32_2 1_555 1_555
N1_2 C32_2 1_555 1_555
C32_2 H17_2 1_555 1_555
C33_2 N1_2 1_555 1_555
H18_2 C33_2 1_555 1_555
H19_2 C33_2 1_555 1_555
H20_2 C33_2 1_555 1_555
C34_2 N1_2 1_555 1_555
H21_2 C34_2 1_555 1_555
H22_2 C34_2 1_555 1_555
H23_2 C34_2 1_555 1_555
O2_2 La4 1_555 1_555
O12 La4 1_555 1_555
O14_2 La4 1_555 1_555
C6 C1_2 1_555 1_555
H3 C6 1_555 1_555
C10 H5 1_555 1_555
C11 C10 1_555 1_555
C15_2 C1_2 1_555 1_555
C17_2 C15_2 1_555 1_555
H8_2 C17_2 1_555 1_555
S2_2 C26_2 1_555 1_555
C24_2 C26_2 1_555 1_555
C25_2 H12_2 1_555 1_555
C26_2 C27_2 1_555 1_555
C27_2 C25_2 1_555 1_555
H13_2 C27_2 1_555 1_555
C28_2 S2_2 1_555 1_555
C30_2 C17_2 1_555 1_555
H15_2 C30_2 1_555 1_555
C31_2 C15_2 1_555 1_555
H16 C31_2 1_555 1_555
C35_2 C24_2 1_555 1_555
H24_2 C35_2 1_555 1_555
C36_2 C28_2 1_555 1_555
C24_2 C30_2 1_555 1_555
C25_2 C28_2 1_555 1_555
C31_2 C35_2 1_555 1_555
C36_2 O8 1_555 1_555
H2_2 C4_2 1_555 1_555
C5_2 C4_2 1_555 1_555
H3_2 C6_2 1_555 1_555
C7 C8 1_555 1_555
C8 H4 1_555 1_555
C9 C13 1_555 1_555
C10_2 H5_2 1_555 1_555
C11_2 C10_2 1_555 1_555
H6 C11_2 1_555 1_555
C12_2 C5_2 1_555 1_555
C13 C11_2 1_555 1_555
C14_2 C12_2 1_555 1_555
H7_2 C14_2 1_555 1_555
C20_2 C13 1_555 1_555
H9_2 C20_2 1_555 1_555
S3 C7 1_555 1_555
C29 C8 1_555 1_555
H14 C29 1_555 1_555
O12 C42 1_555 1_555
C42 C7 1_555 1_555
C5_2 C6_2 1_555 1_555
C9 S3 1_555 1_555
C9 C29 1_555 1_555
C10_2 C12_2 1_555 1_555
C14_2 C20_2 1_555 1_555
C7_2 C8_2 1_555 1_555
C8_2 H4_2 1_555 1_555
C9_2 C13_2 1_555 1_555
S3_2 C7_2 1_555 1_555
C29_2 C8_2 1_555 1_555
H14_2 C29_2 1_555 1_555
O13 C42_2 1_555 1_555
O14_2 C42_2 1_555 1_555
C42_2 C7_2 1_555 1_555
C9_2 S3_2 1_555 1_555
C9_2 C29_2 1_555 1_555
H3_3 C6_3 1_555 1_555
C10_3 H5_3 1_555 1_555
C11_3 C10_3 1_555 1_555
H6_3 C11_3 1_555 1_555
C7_3 C8_3 1_555 1_555
C8_3 H4_3 1_555 1_555
C9_3 C13_3 1_555 1_555
S3_3 C7_3 1_555 1_555
C29_3 C8_3 1_555 1_555
H14_3 C29_3 1_555 1_555
O7_2 C42_3 1_555 1_555
C42_3 C7_3 1_555 1_555
C9_3 S3_3 1_555 1_555
C9_3 C29_3 1_555 1_555
C21_3 H10_3 1_555 1_555
C23_3 C21_3 1_555 1_555
H11_3 C23_3 1_555 1_555
C21_4 H10_4 1_555 1_555
C23_4 C21_4 1_555 1_555
H11_4 C23_4 1_555 1_555
H2_3 C4_3 1_555 1_555
C5_3 C4_3 1_555 1_555
C7_4 C8_4 1_555 1_555
C8_4 H4_4 1_555 1_555
C9_4 C13_4 1_555 1_555
C12_3 C5_3 1_555 1_555
C14_3 C12_3 1_555 1_555
H7_3 C14_3 1_555 1_555
C20_3 C13_4 1_555 1_555
H9_3 C20_3 1_555 1_555
S3_4 C7_4 1_555 1_555
C29_4 C8_4 1_555 1_555
H14_4 C29_4 1_555 1_555
C42_4 C7_4 1_555 1_555
C9_4 S3_4 1_555 1_555
C9_4 C29_4 1_555 1_555
C14_3 C20_3 1_555 1_555
La6 O9_2 1_555 1_555
C1_3 C2_3 1_555 1_555
C2_3 H1_3 1_555 1_555
C3_3 C2_3 1_555 1_555
La5 O1_3 1_555 1_555
C15_3 C1_3 1_555 1_555
C16_3 C3_3 1_555 1_555
C17_3 C15_3 1_555 1_555
H8_3 C17_3 1_555 1_555
C18_3 C19_3 1_555 1_555
S1_3 C19_3 1_555 1_555
C22_3 S1_3 1_555 1_555
S2_3 C26_3 1_555 1_555
C24_3 C26_3 1_555 1_555
C25_3 H12_3 1_555 1_555
C26_3 C27_3 1_555 1_555
C27_3 C25_3 1_555 1_555
H13_3 C27_3 1_555 1_555
C28_3 S2_3 1_555 1_555
C30_3 C17_3 1_555 1_555
H15_3 C30_3 1_555 1_555
C31_3 C15_3 1_555 1_555
O1_3 C32_3 1_555 1_555
N1_3 C32_3 1_555 1_555
C32_3 H17_3 1_555 1_555
C33_3 N1_3 1_555 1_555
H18_3 C33_3 1_555 1_555
H19_3 C33_3 1_555 1_555
H20_3 C33_3 1_555 1_555
C34_3 N1_3 1_555 1_555
H21_3 C34_3 1_555 1_555
H22_3 C34_3 1_555 1_555
H23_3 C34_3 1_555 1_555
C35_3 C24_3 1_555 1_555
H24_3 C35_3 1_555 1_555
O2_3 La5 1_555 1_555
C36_3 C28_3 1_555 1_555
O3_2 La5 1_555 1_555
C37_3 C16_3 1_555 1_555
H25_3 C37_3 1_555 1_555
C38_3 C18_3 1_555 1_555
H26_3 C38_3 1_555 1_555
C39_3 C18_3 1_555 1_555
C40_3 C16_3 1_555 1_555
H28_3 C40_3 1_555 1_555
O9_2 C41_3 1_555 1_555
C41_3 C22_3 1_555 1_555
O10_2 La5 1_555 1_555
C24_3 C30_3 1_555 1_555
C25_3 C28_3 1_555 1_555
C31_3 C35_3 1_555 1_555
O2_3 C36_3 1_555 1_555
C36_3 O3_2 1_555 1_555
C37_3 C38_3 1_555 1_555
C39_3 C40_3 1_555 1_555
La6 O1_4 1_555 1_555
O1_4 C32_4 1_555 1_555
N1_4 C32_4 1_555 1_555
C32_4 H17_4 1_555 1_555
C33_4 N1_4 1_555 1_555
H18_4 C33_4 1_555 1_555
H19_4 C33_4 1_555 1_555
H20_4 C33_4 1_555 1_555
C34_4 N1_4 1_555 1_555
H21_4 C34_4 1_555 1_555
H22_4 C34_4 1_555 1_555
H23_4 C34_4 1_555 1_555
O2_4 La6 1_555 1_555
C41_4 C22_4 1_555 1_555
C1_4 C2_4 1_555 1_555
C2_4 H1_4 1_555 1_555
C3_4 C2_4 1_555 1_555
C4_4 C3_4 1_555 1_555
H2_4 C4_4 1_555 1_555
C5_4 C4_4 1_555 1_555
C6_4 C1_4 1_555 1_555
H3_4 C6_4 1_555 1_555
C10_4 H5_4 1_555 1_555
C11_4 C10_4 1_555 1_555
C12_4 C5_4 1_555 1_555
C14_4 C12_4 1_555 1_555
H7_4 C14_4 1_555 1_555
C15_4 C1_4 1_555 1_555
C16_4 C3_4 1_555 1_555
C17_4 C15_4 1_555 1_555
H8_4 C17_4 1_555 1_555
C18_4 C19_4 1_555 1_555
S1_4 C19_4 1_555 1_555
H9_4 C20_4 1_555 1_555
S2_4 C26_4 1_555 1_555
C24_4 C26_4 1_555 1_555
C25_4 H12_4 1_555 1_555
C26_4 C27_4 1_555 1_555
C27_4 C25_4 1_555 1_555
H13_4 C27_4 1_555 1_555
C28_4 S2_4 1_555 1_555
C30_4 C17_4 1_555 1_555
H15_4 C30_4 1_555 1_555
C31_4 C15_4 1_555 1_555
H16_4 C31_4 1_555 1_555
C35_4 C24_4 1_555 1_555
H24_4 C35_4 1_555 1_555
C36_4 C28_4 1_555 1_555
C37_4 C16_4 1_555 1_555
H25_4 C37_4 1_555 1_555
C38_4 C18_4 1_555 1_555
H26_4 C38_4 1_555 1_555
C39_4 C18_4 1_555 1_555
C40_4 C16_4 1_555 1_555
H28_4 C40_4 1_555 1_555
C5_4 C6_4 1_555 1_555
C10_4 C12_4 1_555 1_555
C14_4 C20_4 1_555 1_555
C24_4 C30_4 1_555 1_555
C25_4 C28_4 1_555 1_555
C31_4 C35_4 1_555 1_555
C36_4 O8_2 1_555 1_555
C37_4 C38_4 1_555 1_555
C39_4 C40_4 1_555 1_555

#END
