
###############################################################################
#
# This file contains modified crystal structure data generated from the
# MOF subset of the Cambridge Structural Database (CSD) v543 
# hosted by the Cambridge Crystallographic Data Centre (CCDC).
#
# This work is licensed under the Creative Commons
# Attribution-NonCommercial-ShareAlike 4.0 International License.
# To view a copy of this license, visit
# http://creativecommons.org/licenses/by-nc-sa/4.0/
# or send a letter to
# Creative Commons, PO Box 1866, Mountain View, CA 94042, USA.
#
# CIF created using the CSD Python API on 29 September 2022
# The structure has been converted into the P1 space group
# The structure has a 3D framework
# The original CSD entry MICPEU is in the triclinic crystal system
# The framework has been calculated to contain at least 10.0% void space
# The void calculation uses a probe of radius 1.32A, grid spacing 0.4
#
###############################################################################

data_MICPEU
_chemical_formula_moiety         '(C72 H48 Cd2 F16 N12 O12)n'
_symmetry_cell_setting           triclinic
_symmetry_space_group_name_H-M   'P 1'
_symmetry_Int_Tables_number      1
_space_group_name_Hall           'P 1'
loop_
_symmetry_equiv_pos_site_id
_symmetry_equiv_pos_as_xyz
1 x,y,z
_cell_length_a                   12.9299(18)
_cell_length_b                   13.1800(18)
_cell_length_c                   16.971(2)
_cell_angle_alpha                65.036(2)
_cell_angle_beta                 69.116(2)
_cell_angle_gamma                86.222(3)
_cell_volume                     2437.44
loop_
_atom_site_label
_atom_site_type_symbol
_atom_site_fract_x
_atom_site_fract_y
_atom_site_fract_z
_atom_site_U_iso_or_equiv
_atom_site_thermal_displace_type
C49 C 0.15518(17) 0.33814(16) 0.00881(12) 0.0351 Uani
C51 C 0.09517(16) 0.13603(15) 0.06158(12) 0.0305 Uani
C52 C 0.04745(13) 0.06658(14) 0.02870(11) 0.0266 Uani
H34 H 0.1153(16) 0.3306(16) 0.0673(14) 0.0310 Uiso
H35 H 0.1427(17) 0.0962(17) 0.0885(14) 0.0350 Uiso
H36 H 0.0374(15) 0.1507(15) 0.1077(13) 0.0250 Uiso
F6 F 0.33817(10) 0.84641(10) 0.14935(8) 0.0469 Uani
F7 F 0.18559(9) 0.92866(9) 0.40898(8) 0.0432 Uani
F8 F 0.00931(10) 0.94995(10) 0.35844(8) 0.0465 Uani
C27 C 0.42020(15) 0.92059(15) 0.07498(12) 0.0312 Uani
C33 C 0.19497(16) 0.97338(17) 0.55521(15) 0.0376 Uani
C34 C 0.09481(14) 0.98864(14) 0.52648(12) 0.0312 Uani
C35 C 0.09342(14) 0.96407(14) 0.45556(13) 0.0323 Uani
C36 C 0.00223(15) 0.97473(15) 0.42945(12) 0.0327 Uani
H21 H 0.402(3) 0.971(3) 0.441(2) 0.1100 Uiso
H23 H 0.1744(19) 0.9725(19) 0.6150(17) 0.0500 Uiso
H24 H 0.2222(19) 0.904(2) 0.5590(16) 0.0500 Uiso
C60 C 0.51395(18) 0.76025(16) 0.04103(14) 0.0328 Uani
C61 C 0.50585(15) 0.88357(15) 0.02033(12) 0.0287 Uani
H41 H 0.5867(18) 0.7433(17) 0.0337(14) 0.0380 Uiso
H42 H 0.4693(17) 0.7163(18) 0.1021(15) 0.0370 Uiso
Cd3 Cd 0.382662(9) 0.629340(10) 0.745866(8) 0.0230 Uani
N8 N 0.27206(12) 0.45866(12) 0.85322(10) 0.0288 Uani
C46 C 0.26966(15) 0.37304(16) 0.83055(13) 0.0318 Uani
C47 C 0.21419(17) 0.44000(16) 0.94187(13) 0.0361 Uani
C48 C 0.21249(15) 0.26911(16) 0.89352(13) 0.0318 Uani
C50 C 0.15451(13) 0.24902(14) 0.98556(12) 0.0260 Uani
H31 H 0.3076(16) 0.3856(16) 0.7704(14) 0.0340 Uiso
H32 H 0.2118(16) 0.5017(17) 0.9596(14) 0.0380 Uiso
H33 H 0.2154(17) 0.2161(17) 0.8741(14) 0.0370 Uiso
F4 F 0.20150(9) 0.96009(10) 0.01586(9) 0.0467 Uani
C18 C 0.10068(13) 0.98163(15) 0.00846(12) 0.0296 Uani
F9 F 0.21378(8) 0.45529(9) 0.43624(8) 0.0363 Uani
F10 F 0.04776(9) 0.29363(9) 0.50723(8) 0.0386 Uani
O7 O 0.27963(11) 0.80655(15) 0.72567(10) 0.0505 Uani
O8 O 0.10584(12) 0.82938(16) 0.77417(10) 0.0594 Uani
O9 O 0.16313(17) 0.67016(13) 0.83724(12) 0.0665 Uani
O10 O 0.52576(12) 0.49809(12) 0.76428(10) 0.0434 Uani
O11 O 0.49817(13) 0.49242(13) 0.64817(11) 0.0538 Uani
O12 O 0.57588(12) 0.35934(11) 0.72734(9) 0.0409 Uani
N7 N 0.31449(11) 0.64670(12) 0.63006(10) 0.0272 Uani
N11 N 0.41655(11) 0.66212(12) 0.86231(10) 0.0273 Uani
N13 N 0.53380(11) 0.76679(12) 0.63587(10) 0.0293 Uani
N14 N 0.18165(13) 0.77025(13) 0.77950(10) 0.0319 Uani
N15 N 0.53420(12) 0.44908(12) 0.71253(10) 0.0300 Uani
C37 C 0.38078(15) 0.66867(17) 0.54222(12) 0.0346 Uani
C38 C 0.20489(14) 0.63530(16) 0.64990(13) 0.0304 Uani
C39 C 0.34177(14) 0.67930(17) 0.47377(12) 0.0331 Uani
C40 C 0.15934(14) 0.64501(16) 0.58549(13) 0.0311 Uani
C41 C 0.22802(13) 0.66723(13) 0.49481(12) 0.0247 Uani
C42 C 0.18239(15) 0.67645(15) 0.42128(12) 0.0286 Uani
C43 C 0.08839(14) 0.58683(14) 0.46046(12) 0.0261 Uani
C44 C 0.10799(13) 0.47902(15) 0.46708(12) 0.0275 Uani
C45 C 0.02242(14) 0.39577(14) 0.50451(12) 0.0279 Uani
H25 H 0.4568(17) 0.6747(16) 0.5262(14) 0.0360 Uiso
H26 H 0.1615(16) 0.6167(17) 0.7089(15) 0.0350 Uiso
H27 H 0.3916(17) 0.6889(17) 0.4160(15) 0.0410 Uiso
H28 H 0.0823(18) 0.6325(18) 0.6049(15) 0.0450 Uiso
H29 H 0.1519(15) 0.7470(16) 0.4038(13) 0.0280 Uiso
H30 H 0.2371(15) 0.6687(15) 0.3722(13) 0.0230 Uiso
F13 F 0.67008(9) 0.93571(10) 0.88764(8) 0.0446 Uani
C55 C 0.36050(17) 0.73170(18) 0.89721(15) 0.0396 Uani
C56 C 0.50453(16) 0.62326(16) 0.88684(13) 0.0331 Uani
C57 C 0.38946(17) 0.76610(18) 0.95343(15) 0.0394 Uani
C58 C 0.53684(16) 0.65283(16) 0.94364(14) 0.0342 Uani
C59 C 0.48006(14) 0.72692(13) 0.97782(11) 0.0261 Uani
C62 C 0.58467(15) 0.96620(16) 0.94493(13) 0.0317 Uani
H37 H 0.2973(19) 0.756(2) 0.8799(16) 0.0560 Uiso
H38 H 0.5441(18) 0.5756(19) 0.8627(15) 0.0460 Uiso
H39 H 0.3528(19) 0.815(2) 0.9725(16) 0.0520 Uiso
H40 H 0.5978(18) 0.6220(19) 0.9578(15) 0.0490 Uiso
C64 C 0.52985(19) 0.8705(2) 0.6303(2) 0.0662 Uani
C65 C 0.62716(14) 0.74610(15) 0.58125(13) 0.0321 Uani
C66 C 0.61499(19) 0.95528(19) 0.5708(2) 0.0633 Uani
C67 C 0.71564(15) 0.82706(16) 0.51907(14) 0.0353 Uani
C68 C 0.71008(14) 0.93493(15) 0.51274(12) 0.0302 Uani
H43 H 0.463(2) 0.886(2) 0.6690(19) 0.0750 Uiso
H44 H 0.6276(16) 0.6682(17) 0.5867(13) 0.0350 Uiso
H46 H 0.776(2) 0.8089(19) 0.4827(16) 0.0540 Uiso
F3 F 0.11319(10) 0.83618(10) 0.96125(9) 0.0450 Uani
C17 C 0.05516(14) 0.91700(14) 0.98065(12) 0.0292 Uani
F11 F 0.88681(10) 0.16382(10) 0.03875(9) 0.0450 Uani
C53 C 0.94484(14) 0.08300(14) 0.01935(12) 0.0292 Uani
F12 F 0.79850(9) 0.03991(10) 0.98414(9) 0.0467 Uani
C54 C 0.89932(13) 0.01837(15) 0.99154(12) 0.0296 Uani
Cd1 Cd 0.617338(9) 0.370660(10) 0.254134(8) 0.0230 Uani
F1 F 0.78622(8) 0.54471(9) 0.56376(8) 0.0363 Uani
F2 F 0.95224(9) 0.70637(9) 0.49277(8) 0.0386 Uani
F5 F 0.32992(9) 0.06429(10) 0.11236(8) 0.0446 Uani
O1 O 0.72037(11) 0.19345(15) 0.27433(10) 0.0505 Uani
O2 O 0.89416(12) 0.17062(16) 0.22583(10) 0.0594 Uani
O3 O 0.83687(17) 0.32984(13) 0.16276(12) 0.0665 Uani
O4 O 0.47424(12) 0.50191(12) 0.23572(10) 0.0434 Uani
O5 O 0.50183(13) 0.50758(13) 0.35183(11) 0.0538 Uani
O6 O 0.42412(12) 0.64066(11) 0.27266(9) 0.0409 Uani
N1 N 0.68551(11) 0.35330(12) 0.36994(10) 0.0272 Uani
N2 N 0.72794(12) 0.54134(12) 0.14678(10) 0.0288 Uani
N3 N 0.58345(11) 0.33788(12) 0.13769(10) 0.0273 Uani
N4 N 0.46620(11) 0.23321(12) 0.36413(10) 0.0293 Uani
N5 N 0.81835(13) 0.22975(13) 0.22050(10) 0.0319 Uani
N6 N 0.46580(12) 0.55092(12) 0.28747(10) 0.0300 Uani
C1 C 0.61922(15) 0.33133(17) 0.45778(12) 0.0346 Uani
C2 C 0.79511(14) 0.36470(16) 0.35010(13) 0.0304 Uani
C3 C 0.65823(14) 0.32070(17) 0.52623(12) 0.0331 Uani
C4 C 0.84066(14) 0.35499(16) 0.41451(13) 0.0311 Uani
C5 C 0.77198(13) 0.33277(13) 0.50519(12) 0.0247 Uani
C6 C 0.81761(15) 0.32355(15) 0.57872(12) 0.0286 Uani
C7 C 0.91161(14) 0.41317(14) 0.53954(12) 0.0261 Uani
C8 C 0.89201(13) 0.52098(15) 0.53292(12) 0.0275 Uani
C9 C 0.97758(14) 0.60423(14) 0.49549(12) 0.0279 Uani
C10 C 0.73034(15) 0.62696(16) 0.16945(13) 0.0318 Uani
C11 C 0.78581(17) 0.56000(16) 0.05813(13) 0.0361 Uani
C12 C 0.78751(15) 0.73089(16) 0.10648(13) 0.0318 Uani
C14 C 0.84549(13) 0.75098(14) 0.01444(12) 0.0260 Uani
C19 C 0.63950(17) 0.26830(18) 0.10279(15) 0.0396 Uani
C20 C 0.49547(16) 0.37674(16) 0.11316(13) 0.0331 Uani
C21 C 0.61054(17) 0.23390(18) 0.04657(15) 0.0394 Uani
C22 C 0.46316(16) 0.34717(16) 0.05636(14) 0.0342 Uani
C23 C 0.51994(14) 0.27308(13) 0.02218(11) 0.0261 Uani
C26 C 0.41533(15) 0.03380(16) 0.05507(13) 0.0317 Uani
C28 C 0.47015(19) 0.1295(2) 0.3697(2) 0.0662 Uani
C29 C 0.37284(14) 0.25390(15) 0.41875(13) 0.0321 Uani
C30 C 0.38501(19) 0.04472(19) 0.4292(2) 0.0633 Uani
C31 C 0.28436(15) 0.17294(16) 0.48093(14) 0.0353 Uani
C32 C 0.28992(14) 0.06507(15) 0.48726(12) 0.0302 Uani
H1 H 0.5432(17) 0.3253(16) 0.4738(14) 0.0360 Uiso
H2 H 0.8385(16) 0.3833(17) 0.2911(15) 0.0350 Uiso
H3 H 0.6084(17) 0.3111(17) 0.5840(15) 0.0410 Uiso
H4 H 0.9177(18) 0.3675(18) 0.3951(15) 0.0450 Uiso
H5 H 0.8481(15) 0.2530(16) 0.5962(13) 0.0280 Uiso
H6 H 0.7629(15) 0.3313(15) 0.6278(13) 0.0230 Uiso
H7 H 0.6924(16) 0.6144(16) 0.2296(14) 0.0340 Uiso
H8 H 0.7882(16) 0.4983(17) 0.0404(14) 0.0380 Uiso
H9 H 0.7846(17) 0.7839(17) 0.1259(14) 0.0370 Uiso
H13 H 0.7027(19) 0.244(2) 0.1201(16) 0.0560 Uiso
H14 H 0.4559(18) 0.4244(19) 0.1373(15) 0.0460 Uiso
H15 H 0.6472(19) 0.185(2) 0.0275(16) 0.0520 Uiso
H16 H 0.4022(18) 0.3780(19) 0.0422(15) 0.0490 Uiso
H19 H 0.537(2) 0.114(2) 0.3310(19) 0.0750 Uiso
H20 H 0.3724(16) 0.3318(17) 0.4133(13) 0.0350 Uiso
H22 H 0.224(2) 0.1911(19) 0.5173(16) 0.0540 Uiso
C13 C 0.84482(17) 0.66186(16) 0.99119(12) 0.0351 Uani
C15 C 0.90483(16) 0.86397(15) 0.93842(12) 0.0305 Uani
C16 C 0.95255(13) 0.93342(14) 0.97130(11) 0.0266 Uani
C24 C 0.48605(18) 0.23975(16) 0.95897(14) 0.0328 Uani
C25 C 0.49415(15) 0.11643(15) 0.97967(12) 0.0287 Uani
H10 H 0.8847(16) 0.6694(16) 0.9327(14) 0.0310 Uiso
H11 H 0.8573(17) 0.9038(17) 0.9115(14) 0.0350 Uiso
H12 H 0.9626(15) 0.8493(15) 0.8923(13) 0.0250 Uiso
H17 H 0.4133(18) 0.2567(17) 0.9663(14) 0.0380 Uiso
H18 H 0.5307(17) 0.2837(18) 0.8979(15) 0.0370 Uiso
F14 F 0.66183(10) 0.15359(10) 0.85065(8) 0.0469 Uani
C63 C 0.57980(15) 0.07941(15) 0.92502(12) 0.0312 Uani
F15 F 0.81441(9) 0.07134(9) 0.59102(8) 0.0432 Uani
F16 F 0.99069(10) 0.05005(10) 0.64156(8) 0.0465 Uani
C69 C 0.80503(16) 0.02662(17) 0.44479(15) 0.0376 Uani
C70 C 0.90519(14) 0.01136(14) 0.47352(12) 0.0312 Uani
C71 C 0.90658(14) 0.03593(14) 0.54444(13) 0.0323 Uani
C72 C 0.99777(15) 0.02527(15) 0.57055(12) 0.0327 Uani
H45 H 0.598(3) 0.029(3) 0.559(2) 0.1100 Uiso
H47 H 0.8256(19) 0.0275(19) 0.3850(17) 0.0500 Uiso
H48 H 0.7778(19) 0.096(2) 0.4410(16) 0.0500 Uiso
loop_
_atom_site_aniso_label
_atom_site_aniso_U_11
_atom_site_aniso_U_22
_atom_site_aniso_U_33
_atom_site_aniso_U_23
_atom_site_aniso_U_13
_atom_site_aniso_U_12
C49 0.0445 0.0334 0.0231 -0.0154 -0.0025 -0.0023
C51 0.0307 0.0307 0.0268 -0.0119 -0.0064 -0.0027
C52 0.0238 0.0247 0.0242 -0.0075 -0.0035 -0.0042
F6 0.0437 0.0401 0.0451 -0.015 -0.006 -0.0022
F7 0.029 0.0397 0.0551 -0.0221 -0.0069 0.0044
F8 0.045 0.0526 0.0446 -0.0247 -0.0131 -0.0039
C27 0.0334 0.034 0.0318 -0.0163 -0.0149 0.0015
C33 0.0298 0.031 0.0385 -0.001 -0.013 -0.0054
C34 0.0247 0.0236 0.0326 -0.0022 -0.0068 -0.0072
C35 0.0237 0.0225 0.0395 -0.0082 -0.0045 -0.0031
C36 0.0307 0.0263 0.0336 -0.0087 -0.0069 -0.0068
C60 0.0459 0.0299 0.0362 -0.0185 -0.0255 0.0096
C61 0.0358 0.0306 0.0346 -0.0194 -0.0231 0.0063
Cd3 0.02266 0.02448 0.02413 -0.01171 -0.0087 -0.00151
N8 0.0316 0.0296 0.0254 -0.0128 -0.008 -0.0041
C46 0.0313 0.0372 0.026 -0.0173 -0.0029 -0.0074
C47 0.0492 0.0292 0.0301 -0.0171 -0.0082 -0.0016
C48 0.0329 0.0333 0.0322 -0.021 -0.0049 -0.0058
C50 0.0213 0.0286 0.0285 -0.0129 -0.008 -0.0008
F4 0.0298 0.0593 0.0695 -0.0393 -0.0262 0.0167
C18 0.0209 0.0319 0.0337 -0.0125 -0.0092 0.0033
F9 0.0241 0.0448 0.0495 -0.0283 -0.0152 0.0114
F10 0.0369 0.0321 0.0585 -0.0278 -0.0214 0.012
O7 0.0294 0.0813 0.0442 -0.0309 -0.012 0.0048
O8 0.0435 0.0826 0.0391 -0.0212 -0.0115 0.0347
O9 0.1133 0.0312 0.0686 -0.0086 -0.0613 -0.0049
O10 0.0444 0.0393 0.0532 -0.0307 -0.012 0.0059
O11 0.0524 0.0485 0.0531 -0.0035 -0.0321 -0.002
O12 0.0508 0.0317 0.0388 -0.0184 -0.0125 0.0146
N7 0.0233 0.033 0.0263 -0.0134 -0.0084 -0.0017
N11 0.0271 0.03 0.03 -0.0169 -0.011 0.0012
N13 0.022 0.0294 0.0377 -0.0187 -0.0061 -0.0012
N14 0.0366 0.0367 0.0322 -0.0195 -0.0184 0.0092
N15 0.0261 0.0261 0.0312 -0.0092 -0.0063 -0.0004
C37 0.021 0.0514 0.0285 -0.0151 -0.0072 -0.0025
C38 0.0248 0.0417 0.0276 -0.0206 -0.005 -0.0003
C39 0.0242 0.0472 0.024 -0.0134 -0.0057 -0.0021
C40 0.0202 0.0446 0.0338 -0.0227 -0.0082 0.0015
C41 0.0256 0.0234 0.0294 -0.0136 -0.012 0.0026
C42 0.0301 0.0316 0.0294 -0.0152 -0.0138 0.0024
C43 0.0276 0.0313 0.0281 -0.016 -0.0161 0.0054
C44 0.0236 0.0371 0.032 -0.0212 -0.0146 0.0093
C45 0.0317 0.027 0.0359 -0.0191 -0.0186 0.0095
F13 0.0428 0.0483 0.0472 -0.0302 -0.0109 0.0129
C55 0.0363 0.0555 0.0537 -0.0396 -0.0286 0.0207
C56 0.0362 0.0352 0.041 -0.0253 -0.0189 0.0123
C57 0.0405 0.0496 0.0547 -0.0402 -0.0276 0.0218
C58 0.0366 0.036 0.0436 -0.023 -0.0238 0.0127
C59 0.0313 0.0232 0.0262 -0.0107 -0.0121 -0.0013
C62 0.032 0.04 0.0358 -0.0248 -0.0169 0.0092
C64 0.0315 0.0425 0.104 -0.0439 0.0154 -0.0072
C65 0.0248 0.0276 0.0402 -0.0135 -0.0089 0.0023
C66 0.0375 0.0311 0.1 -0.0324 0.0054 -0.0059
C67 0.022 0.0352 0.0396 -0.0132 -0.0044 0.0026
C68 0.024 0.0292 0.0334 -0.0073 -0.0125 -0.0019
F3 0.0444 0.0424 0.0652 -0.0356 -0.0263 0.0212
C17 0.0279 0.0232 0.0324 -0.0119 -0.0066 0.0042
F11 0.0444 0.0424 0.0652 -0.0356 -0.0263 0.0212
C53 0.0279 0.0232 0.0324 -0.0119 -0.0066 0.0042
F12 0.0298 0.0593 0.0695 -0.0393 -0.0262 0.0167
C54 0.0209 0.0319 0.0337 -0.0125 -0.0092 0.0033
Cd1 0.02266 0.02448 0.02413 -0.01171 -0.0087 -0.00151
F1 0.0241 0.0448 0.0495 -0.0283 -0.0152 0.0114
F2 0.0369 0.0321 0.0585 -0.0278 -0.0214 0.012
F5 0.0428 0.0483 0.0472 -0.0302 -0.0109 0.0129
O1 0.0294 0.0813 0.0442 -0.0309 -0.012 0.0048
O2 0.0435 0.0826 0.0391 -0.0212 -0.0115 0.0347
O3 0.1133 0.0312 0.0686 -0.0086 -0.0613 -0.0049
O4 0.0444 0.0393 0.0532 -0.0307 -0.012 0.0059
O5 0.0524 0.0485 0.0531 -0.0035 -0.0321 -0.002
O6 0.0508 0.0317 0.0388 -0.0184 -0.0125 0.0146
N1 0.0233 0.033 0.0263 -0.0134 -0.0084 -0.0017
N2 0.0316 0.0296 0.0254 -0.0128 -0.008 -0.0041
N3 0.0271 0.03 0.03 -0.0169 -0.011 0.0012
N4 0.022 0.0294 0.0377 -0.0187 -0.0061 -0.0012
N5 0.0366 0.0367 0.0322 -0.0195 -0.0184 0.0092
N6 0.0261 0.0261 0.0312 -0.0092 -0.0063 -0.0004
C1 0.021 0.0514 0.0285 -0.0151 -0.0072 -0.0025
C2 0.0248 0.0417 0.0276 -0.0206 -0.005 -0.0003
C3 0.0242 0.0472 0.024 -0.0134 -0.0057 -0.0021
C4 0.0202 0.0446 0.0338 -0.0227 -0.0082 0.0015
C5 0.0256 0.0234 0.0294 -0.0136 -0.012 0.0026
C6 0.0301 0.0316 0.0294 -0.0152 -0.0138 0.0024
C7 0.0276 0.0313 0.0281 -0.016 -0.0161 0.0054
C8 0.0236 0.0371 0.032 -0.0212 -0.0146 0.0093
C9 0.0317 0.027 0.0359 -0.0191 -0.0186 0.0095
C10 0.0313 0.0372 0.026 -0.0173 -0.0029 -0.0074
C11 0.0492 0.0292 0.0301 -0.0171 -0.0082 -0.0016
C12 0.0329 0.0333 0.0322 -0.021 -0.0049 -0.0058
C14 0.0213 0.0286 0.0285 -0.0129 -0.008 -0.0008
C19 0.0363 0.0555 0.0537 -0.0396 -0.0286 0.0207
C20 0.0362 0.0352 0.041 -0.0253 -0.0189 0.0123
C21 0.0405 0.0496 0.0547 -0.0402 -0.0276 0.0218
C22 0.0366 0.036 0.0436 -0.023 -0.0238 0.0127
C23 0.0313 0.0232 0.0262 -0.0107 -0.0121 -0.0013
C26 0.032 0.04 0.0358 -0.0248 -0.0169 0.0092
C28 0.0315 0.0425 0.104 -0.0439 0.0154 -0.0072
C29 0.0248 0.0276 0.0402 -0.0135 -0.0089 0.0023
C30 0.0375 0.0311 0.1 -0.0324 0.0054 -0.0059
C31 0.022 0.0352 0.0396 -0.0132 -0.0044 0.0026
C32 0.024 0.0292 0.0334 -0.0073 -0.0125 -0.0019
C13 0.0445 0.0334 0.0231 -0.0154 -0.0025 -0.0023
C15 0.0307 0.0307 0.0268 -0.0119 -0.0064 -0.0027
C16 0.0238 0.0247 0.0242 -0.0075 -0.0035 -0.0042
C24 0.0459 0.0299 0.0362 -0.0185 -0.0255 0.0096
C25 0.0358 0.0306 0.0346 -0.0194 -0.0231 0.0063
F14 0.0437 0.0401 0.0451 -0.015 -0.006 -0.0022
C63 0.0334 0.034 0.0318 -0.0163 -0.0149 0.0015
F15 0.029 0.0397 0.0551 -0.0221 -0.0069 0.0044
F16 0.045 0.0526 0.0446 -0.0247 -0.0131 -0.0039
C69 0.0298 0.031 0.0385 -0.001 -0.013 -0.0054
C70 0.0247 0.0236 0.0326 -0.0022 -0.0068 -0.0072
C71 0.0237 0.0225 0.0395 -0.0082 -0.0045 -0.0031
C72 0.0307 0.0263 0.0336 -0.0087 -0.0069 -0.0068
loop_
_geom_bond_atom_site_label_1
_geom_bond_atom_site_label_2
_geom_bond_site_symmetry_1
_geom_bond_site_symmetry_2
H34 C49 1_555 1_555
H35 C51 1_555 1_555
H36 C51 1_555 1_555
C51 C52 1_555 1_555
F6 C27 1_555 1_555
F7 C35 1_555 1_555
F8 C36 1_555 1_555
C34 C33 1_555 1_555
C35 C34 1_555 1_555
C36 C35 1_555 1_555
H23 C33 1_555 1_555
H24 C33 1_555 1_555
C61 C27 1_555 1_555
H41 C60 1_555 1_555
H42 C60 1_555 1_555
C60 C61 1_555 1_555
Cd3 N8 1_555 1_555
N8 C46 1_555 1_555
C46 C48 1_555 1_555
C47 N8 1_555 1_555
C48 C50 1_555 1_555
H31 C46 1_555 1_555
H32 C47 1_555 1_555
H33 C48 1_555 1_555
F4 C18 1_555 1_555
Cd3 O7 1_555 1_555
F9 C44 1_555 1_555
F10 C45 1_555 1_555
O7 N14 1_555 1_555
O8 N14 1_555 1_555
O9 N14 1_555 1_555
O10 Cd3 1_555 1_555
O11 N15 1_555 1_555
O12 N15 1_555 1_555
N7 Cd3 1_555 1_555
N11 Cd3 1_555 1_555
N13 Cd3 1_555 1_555
N15 O10 1_555 1_555
C37 N7 1_555 1_555
C38 N7 1_555 1_555
C39 C37 1_555 1_555
C40 C38 1_555 1_555
C41 C39 1_555 1_555
C42 C41 1_555 1_555
C44 C43 1_555 1_555
H25 C37 1_555 1_555
H26 C38 1_555 1_555
H27 C39 1_555 1_555
H28 C40 1_555 1_555
H29 C42 1_555 1_555
H30 C42 1_555 1_555
C40 C41 1_555 1_555
C42 C43 1_555 1_555
C44 C45 1_555 1_555
F13 C62 1_555 1_555
N11 C55 1_555 1_555
C55 C57 1_555 1_555
C56 N11 1_555 1_555
C57 C59 1_555 1_555
C58 C56 1_555 1_555
C59 C58 1_555 1_555
H37 C55 1_555 1_555
H38 C56 1_555 1_555
H39 C57 1_555 1_555
H40 C58 1_555 1_555
N13 C64 1_555 1_555
C64 C66 1_555 1_555
C65 N13 1_555 1_555
C66 C68 1_555 1_555
C67 C65 1_555 1_555
C68 C67 1_555 1_555
H43 C64 1_555 1_555
H44 C65 1_555 1_555
H46 C67 1_555 1_555
F3 C17 1_555 1_555
F11 C53 1_555 1_555
F12 C54 1_555 1_555
Cd1 O1 1_555 1_555
F1 C8 1_555 1_555
F2 C9 1_555 1_555
F5 C26 1_555 1_555
O1 N5 1_555 1_555
O2 N5 1_555 1_555
O3 N5 1_555 1_555
O4 Cd1 1_555 1_555
O5 N6 1_555 1_555
O6 N6 1_555 1_555
N1 Cd1 1_555 1_555
N2 Cd1 1_555 1_555
N3 Cd1 1_555 1_555
N4 Cd1 1_555 1_555
N6 O4 1_555 1_555
C1 N1 1_555 1_555
C2 N1 1_555 1_555
C3 C1 1_555 1_555
C4 C2 1_555 1_555
C5 C3 1_555 1_555
C6 C5 1_555 1_555
C7 C6 1_555 1_555
C8 C7 1_555 1_555
C9 C8 1_555 1_555
C10 N2 1_555 1_555
C11 N2 1_555 1_555
C12 C10 1_555 1_555
C14 C12 1_555 1_555
C19 N3 1_555 1_555
C20 N3 1_555 1_555
C21 C19 1_555 1_555
C22 C20 1_555 1_555
C23 C21 1_555 1_555
C28 N4 1_555 1_555
C29 N4 1_555 1_555
C30 C28 1_555 1_555
C31 C29 1_555 1_555
C32 C30 1_555 1_555
H1 C1 1_555 1_555
H2 C2 1_555 1_555
H3 C3 1_555 1_555
H4 C4 1_555 1_555
H5 C6 1_555 1_555
H6 C6 1_555 1_555
H7 C10 1_555 1_555
H8 C11 1_555 1_555
H9 C12 1_555 1_555
H13 C19 1_555 1_555
H14 C20 1_555 1_555
H15 C21 1_555 1_555
H16 C22 1_555 1_555
H19 C28 1_555 1_555
H20 C29 1_555 1_555
H22 C31 1_555 1_555
C4 C5 1_555 1_555
C22 C23 1_555 1_555
C31 C32 1_555 1_555
C16 C15 1_555 1_555
C25 C24 1_555 1_555
H10 C13 1_555 1_555
H11 C15 1_555 1_555
H12 C15 1_555 1_555
H17 C24 1_555 1_555
H18 C24 1_555 1_555
F14 C63 1_555 1_555
C63 C25 1_555 1_555
F15 C71 1_555 1_555
F16 C72 1_555 1_555
C71 C70 1_555 1_555
H47 C69 1_555 1_555
H48 C69 1_555 1_555
C69 C70 1_555 1_555
C71 C72 1_555 1_555

#END
