
###############################################################################
#
# This file contains modified crystal structure data generated from the
# MOF subset of the Cambridge Structural Database (CSD) v543 
# hosted by the Cambridge Crystallographic Data Centre (CCDC).
#
# This work is licensed under the Creative Commons
# Attribution-NonCommercial-ShareAlike 4.0 International License.
# To view a copy of this license, visit
# http://creativecommons.org/licenses/by-nc-sa/4.0/
# or send a letter to
# Creative Commons, PO Box 1866, Mountain View, CA 94042, USA.
#
# CIF created using the CSD Python API on 29 September 2022
# The structure has been converted into the P1 space group
# The structure has a 3D framework
# The original CSD entry MICPAQ is in the triclinic crystal system
# The framework has been calculated to contain at least 10.0% void space
# The void calculation uses a probe of radius 1.32A, grid spacing 0.4
#
###############################################################################

data_MICPAQ
_chemical_formula_moiety         '(C72 H48 Cd2 F16 N12 O12)n'
_symmetry_cell_setting           triclinic
_symmetry_space_group_name_H-M   'P 1'
_symmetry_Int_Tables_number      1
_space_group_name_Hall           'P 1'
loop_
_symmetry_equiv_pos_site_id
_symmetry_equiv_pos_as_xyz
1 x,y,z
_cell_length_a                   13.047(12)
_cell_length_b                   13.279(12)
_cell_length_c                   17.377(15)
_cell_angle_alpha                67.645(14)
_cell_angle_beta                 64.369(15)
_cell_angle_gamma                87.266(17)
_cell_volume                     2485.58
loop_
_atom_site_label
_atom_site_type_symbol
_atom_site_fract_x
_atom_site_fract_y
_atom_site_fract_z
_atom_site_U_iso_or_equiv
_atom_site_thermal_displace_type
F6 F 0.0319(7) 0.0010(6) 0.6458(5) 0.0568 Uani
C27 C 0.0158(9) 0.0027(8) 0.5731(7) 0.0366 Uani
Cd4 Cd 0.36671(6) 0.62081(5) 0.25077(5) 0.0316 Uani
N10 N 0.2194(8) 0.4706(6) 0.3659(6) 0.0359 Uani
C55 C 0.1109(11) 0.4794(9) 0.3848(10) 0.0582 Uani
H37 H 0.0928 0.5501 0.3570 0.0700 Uiso
C56 C 0.2445(9) 0.3703(8) 0.4082(9) 0.0480 Uani
H38 H 0.3215 0.3622 0.3980 0.0580 Uiso
C57 C 0.0208(10) 0.3931(10) 0.4424(11) 0.0607 Uani
C58 C 0.1607(10) 0.2798(8) 0.4656(9) 0.0534 Uani
H40 H 0.1810 0.2098 0.4922 0.0640 Uiso
C59 C 0.0482(9) 0.2906(8) 0.4844(7) 0.0386 Uani
F11 F 0.0837(6) 0.3302(5) 0.0913(5) 0.0544 Uani
N8 N 0.3267(7) 0.5907(7) 0.1409(6) 0.0364 Uani
C46 C 0.2799(11) 0.6614(9) 0.0897(8) 0.0461 Uani
H31 H 0.2620 0.7283 0.0971 0.0550 Uiso
C47 C 0.3461(14) 0.4966(10) 0.1283(11) 0.0649 Uani
H32 H 0.3806 0.4459 0.1622 0.0780 Uiso
C48 C 0.2567(10) 0.6381(10) 0.0251(8) 0.0445 Uani
C49 C 0.3193(14) 0.4676(11) 0.0690(11) 0.0631 Uani
H34 H 0.3328 0.3981 0.0656 0.0760 Uiso
C50 C 0.2734(9) 0.5401(10) 0.0156(8) 0.0437 Uani
C53 C 0.0420(10) 0.4163(8) 0.0453(8) 0.0398 Uani
F9 F 0.0395(6) 0.7972(5) 0.9936(5) 0.0512 Uani
F15 F 0.5597(6) 0.7951(5) 0.5616(5) 0.0516 Uani
F16 F 0.7040(6) 0.9734(6) 0.5011(6) 0.0587 Uani
N12 N 0.3643(7) 0.6867(6) 0.3592(5) 0.0299 Uani
C44 C 0.0200(8) 0.8976(7) 0.9959(7) 0.0322 Uani
C64 C 0.3951(10) 0.7915(8) 0.3353(7) 0.0388 Uani
H43 H 0.4211 0.8401 0.2719 0.0470 Uiso
C65 C 0.3246(11) 0.6193(8) 0.4514(8) 0.0470 Uani
H44 H 0.2991 0.5440 0.4708 0.0560 Uiso
C66 C 0.3919(9) 0.8352(7) 0.3972(7) 0.0372 Uani
H45 H 0.4156 0.9113 0.3763 0.0450 Uiso
C67 C 0.3198(10) 0.6547(7) 0.5170(7) 0.0422 Uani
H46 H 0.2938 0.6041 0.5798 0.0510 Uiso
C68 C 0.3527(8) 0.7645(7) 0.4915(6) 0.0320 Uani
C69 C 0.3421(10) 0.8034(8) 0.5669(7) 0.0401 Uani
H47 H 0.3563 0.7431 0.6148 0.0480 Uiso
H48 H 0.2622 0.8173 0.5974 0.0480 Uiso
C70 C 0.4228(8) 0.9061(7) 0.5328(6) 0.0299 Uani
C71 C 0.5283(9) 0.8944(7) 0.5317(7) 0.0328 Uani
C72 C 0.6031(9) 0.9881(8) 0.5003(7) 0.0347 Uani
O7 O 0.1967(9) 0.7293(6) 0.2708(6) 0.0576 Uani
O8 O 0.3446(8) 0.8406(9) 0.1579(8) 0.0673 Uani
O9 O 0.1938(9) 0.9060(7) 0.2236(6) 0.0596 Uani
O10 O 0.4974(8) 0.4648(8) 0.2321(7) 0.0642 Uani
O11 O 0.4988(9) 0.5010(9) 0.3405(8) 0.0737 Uani
O12 O 0.6263(7) 0.4145(7) 0.2761(6) 0.0556 Uani
N7 N 0.5484(7) 0.7204(6) 0.1385(6) 0.0330 Uani
N14 N 0.2438(7) 0.8268(6) 0.2175(6) 0.0327 Uani
N15 N 0.5443(7) 0.4578(6) 0.2825(6) 0.0324 Uani
C37 C 0.5712(9) 0.7786(9) 0.0480(7) 0.0393 Uani
H25 H 0.5110 0.7790 0.0309 0.0470 Uiso
C38 C 0.6382(9) 0.7232(8) 0.1578(7) 0.0406 Uani
H26 H 0.6261 0.6827 0.2201 0.0490 Uiso
C40 C 0.7446(9) 0.7802(8) 0.0940(7) 0.0396 Uani
H28 H 0.8031 0.7794 0.1128 0.0480 Uiso
C41 C 0.7681(8) 0.8401(7) 0.0004(6) 0.0311 Uani
F4 F 0.1376(6) 0.6850(6) 0.8605(5) 0.0584 Uani
F5 F 0.0698(7) 0.8261(6) 0.5990(6) 0.0613 Uani
C18 C 0.0719(11) 0.5923(9) 0.9302(8) 0.0440 Uani
H15 H 0.0558 0.5963 0.5473 0.0730 Uiso
C24 C 0.0476(9) 0.8056(8) 0.4484(8) 0.0419 Uani
H17 H 0.0574 0.8260 0.3843 0.0500 Uiso
H18 H 0.1206 0.7835 0.4497 0.0500 Uiso
C25 C 0.0200(8) 0.9067(7) 0.4749(7) 0.0348 Uani
C26 C 0.0352(9) 0.9131(8) 0.5479(8) 0.0387 Uani
H33 H 0.2287 0.6921 0.9874 0.0540 Uiso
C51 C 0.2455(9) 0.5117(11) 0.9477(8) 0.0451 Uani
H35 H 0.2686 0.4392 0.9490 0.0540 Uiso
H36 H 0.2900 0.5674 0.8836 0.0540 Uiso
C52 C 0.1188(9) 0.5087(9) 0.9737(8) 0.0396 Uani
C39 C 0.6762(9) 0.8363(9) 0.9804(7) 0.0413 Uani
H27 H 0.6869 0.8747 0.9183 0.0490 Uiso
C42 C 0.8846(9) 0.9045(8) 0.9251(7) 0.0382 Uani
H29 H 0.8745 0.9640 0.8742 0.0460 Uiso
H30 H 0.9331 0.8551 0.8988 0.0460 Uiso
C43 C 0.9443(9) 0.9542(8) 0.9628(6) 0.0345 Uani
F13 F 0.9302(7) 0.1739(6) 0.4010(6) 0.0613 Uani
H39 H 0.9442 0.4037 0.4527 0.0730 Uiso
C60 C 0.9524(9) 0.1944(8) 0.5516(8) 0.0419 Uani
H41 H 0.9426 0.1740 0.6157 0.0500 Uiso
H42 H 0.8794 0.2165 0.5503 0.0500 Uiso
C61 C 0.9800(8) 0.0933(7) 0.5251(7) 0.0348 Uani
C62 C 0.9648(9) 0.0869(8) 0.4521(8) 0.0387 Uani
C3 C 0.3238(9) 0.1637(9) 0.0196(7) 0.0413 Uani
H3 H 0.3131 0.1253 0.0817 0.0490 Uiso
C6 C 0.1154(9) 0.0955(8) 0.0749(7) 0.0382 Uani
H5 H 0.1255 0.0360 0.1258 0.0460 Uiso
H6 H 0.0669 0.1449 0.1012 0.0460 Uiso
C7 C 0.0557(9) 0.0458(8) 0.0372(6) 0.0345 Uani
H9 H 0.7713 0.3079 0.0126 0.0540 Uiso
C15 C 0.7545(9) 0.4883(11) 0.0523(8) 0.0451 Uani
H11 H 0.7314 0.5608 0.0510 0.0540 Uiso
H12 H 0.7100 0.4326 0.1164 0.0540 Uiso
C16 C 0.8812(9) 0.4913(9) 0.0263(8) 0.0396 Uani
F12 F 0.8624(6) 0.3150(6) 0.1395(5) 0.0584 Uani
C54 C 0.9281(11) 0.4077(9) 0.0698(8) 0.0440 Uani
Cd1 Cd 0.63329(6) 0.37919(5) 0.74923(5) 0.0316 Uani
F3 F 0.9163(6) 0.6698(5) 0.9087(5) 0.0544 Uani
F7 F 0.4403(6) 0.2049(5) 0.4384(5) 0.0516 Uani
F8 F 0.2960(6) 0.0266(6) 0.4989(6) 0.0587 Uani
O1 O 0.8033(9) 0.2707(6) 0.7292(6) 0.0576 Uani
O2 O 0.6554(8) 0.1594(9) 0.8421(8) 0.0673 Uani
O3 O 0.8062(9) 0.0940(7) 0.7764(6) 0.0596 Uani
O4 O 0.5026(8) 0.5352(8) 0.7679(7) 0.0642 Uani
O5 O 0.5012(9) 0.4990(9) 0.6595(8) 0.0737 Uani
O6 O 0.3737(7) 0.5855(7) 0.7239(6) 0.0556 Uani
N1 N 0.4516(7) 0.2796(6) 0.8615(6) 0.0330 Uani
N2 N 0.6733(7) 0.4093(7) 0.8591(6) 0.0364 Uani
N3 N 0.7806(8) 0.5294(6) 0.6341(6) 0.0359 Uani
N4 N 0.6357(7) 0.3133(6) 0.6408(5) 0.0299 Uani
N5 N 0.7562(7) 0.1732(6) 0.7825(6) 0.0327 Uani
N6 N 0.4557(7) 0.5422(6) 0.7175(6) 0.0324 Uani
C1 C 0.4288(9) 0.2214(9) 0.9520(7) 0.0393 Uani
H1 H 0.4890 0.2210 0.9691 0.0470 Uiso
C2 C 0.3618(9) 0.2768(8) 0.8422(7) 0.0406 Uani
H2 H 0.3739 0.3173 0.7799 0.0490 Uiso
C4 C 0.2554(9) 0.2198(8) 0.9060(7) 0.0396 Uani
H4 H 0.1969 0.2206 0.8872 0.0480 Uiso
C5 C 0.2319(8) 0.1599(7) 0.9996(6) 0.0311 Uani
C10 C 0.7201(11) 0.3386(9) 0.9103(8) 0.0461 Uani
H7 H 0.7380 0.2717 0.9029 0.0550 Uiso
C11 C 0.6539(14) 0.5034(10) 0.8717(11) 0.0649 Uani
H8 H 0.6194 0.5541 0.8378 0.0780 Uiso
C12 C 0.7433(10) 0.3619(10) 0.9749(8) 0.0445 Uani
C13 C 0.6807(14) 0.5324(11) 0.9310(11) 0.0631 Uani
H10 H 0.6672 0.6019 0.9344 0.0760 Uiso
C14 C 0.7266(9) 0.4599(10) 0.9844(8) 0.0437 Uani
C17 C 0.9580(10) 0.5837(8) 0.9547(8) 0.0398 Uani
C19 C 0.8891(11) 0.5206(9) 0.6152(10) 0.0582 Uani
H13 H 0.9072 0.4499 0.6430 0.0700 Uiso
C20 C 0.7555(9) 0.6297(8) 0.5918(9) 0.0480 Uani
H14 H 0.6785 0.6378 0.6020 0.0580 Uiso
C21 C 0.9792(10) 0.6069(10) 0.5576(11) 0.0607 Uani
C22 C 0.8393(10) 0.7202(8) 0.5344(9) 0.0534 Uani
H16 H 0.8190 0.7902 0.5078 0.0640 Uiso
C23 C 0.9518(9) 0.7094(8) 0.5156(7) 0.0386 Uani
C28 C 0.6049(10) 0.2085(8) 0.6647(7) 0.0388 Uani
H19 H 0.5789 0.1599 0.7281 0.0470 Uiso
C29 C 0.6754(11) 0.3807(8) 0.5486(8) 0.0470 Uani
H20 H 0.7009 0.4560 0.5292 0.0560 Uiso
C30 C 0.6081(9) 0.1648(7) 0.6028(7) 0.0372 Uani
H21 H 0.5844 0.0887 0.6237 0.0450 Uiso
C31 C 0.6802(10) 0.3453(7) 0.4830(7) 0.0422 Uani
H22 H 0.7062 0.3959 0.4202 0.0510 Uiso
C32 C 0.6473(8) 0.2355(7) 0.5085(6) 0.0320 Uani
C33 C 0.6579(10) 0.1966(8) 0.4331(7) 0.0401 Uani
H23 H 0.6437 0.2569 0.3852 0.0480 Uiso
H24 H 0.7378 0.1827 0.4026 0.0480 Uiso
C34 C 0.5772(8) 0.0939(7) 0.4672(6) 0.0299 Uani
C35 C 0.4717(9) 0.1056(7) 0.4683(7) 0.0328 Uani
C36 C 0.3969(9) 0.0119(8) 0.4997(7) 0.0347 Uani
F14 F 0.9681(7) 0.9990(6) 0.3542(5) 0.0568 Uani
C63 C 0.9842(9) 0.9973(8) 0.4269(7) 0.0366 Uani
F1 F 0.9605(6) 0.2028(5) 0.0064(5) 0.0512 Uani
C8 C 0.9800(8) 0.1024(7) 0.0041(7) 0.0322 Uani
F10 F 0.1461(6) 0.8837(6) 0.0606(5) 0.0506 Uani
C45 C 0.0727(8) 0.9422(7) 0.0318(6) 0.0322 Uani
F2 F 0.8539(6) 0.1163(6) 0.9394(5) 0.0506 Uani
C9 C 0.9273(8) 0.0578(7) 0.9682(6) 0.0322 Uani
loop_
_atom_site_aniso_label
_atom_site_aniso_U_11
_atom_site_aniso_U_22
_atom_site_aniso_U_33
_atom_site_aniso_U_23
_atom_site_aniso_U_13
_atom_site_aniso_U_12
F6 0.09 0.042 0.058 -0.009 -0.058 -0.004
C27 0.046 0.033 0.035 -0.007 -0.026 -0.009
Cd4 0.0452 0.0231 0.0336 -0.0018 -0.0306 -0.009
N10 0.057 0.016 0.038 0.006 -0.037 -0.011
C55 0.057 0.018 0.083 0.009 -0.041 -0.007
C56 0.044 0.017 0.07 0.006 -0.034 0
C57 0.041 0.033 0.094 -0.009 -0.031 -0.007
C58 0.047 0.02 0.067 0.004 -0.021 0
C59 0.053 0.027 0.029 -0.006 -0.015 -0.015
F11 0.079 0.033 0.073 -0.011 -0.062 0.013
N8 0.046 0.03 0.05 -0.007 -0.043 0
C46 0.074 0.042 0.052 -0.016 -0.056 0.009
C47 0.123 0.032 0.101 -0.033 -0.099 0.03
C48 0.059 0.063 0.056 -0.043 -0.05 0.037
C49 0.103 0.045 0.087 -0.031 -0.078 0.015
C50 0.038 0.061 0.039 -0.014 -0.027 -0.007
C53 0.066 0.028 0.053 -0.014 -0.052 0.005
F9 0.078 0.031 0.06 -0.013 -0.049 0.013
F15 0.068 0.031 0.059 -0.003 -0.044 0.007
F16 0.056 0.052 0.073 -0.004 -0.051 0.008
N12 0.043 0.024 0.032 -0.008 -0.027 0.001
C44 0.04 0.021 0.04 -0.003 -0.029 -0.001
C64 0.062 0.026 0.038 -0.004 -0.037 -0.005
C65 0.081 0.015 0.04 0.006 -0.035 -0.017
C66 0.062 0.021 0.035 0.001 -0.037 -0.001
C67 0.073 0.016 0.042 0.002 -0.04 -0.005
C68 0.041 0.026 0.031 0.003 -0.029 -0.008
C69 0.056 0.029 0.044 0.001 -0.042 -0.007
C70 0.042 0.028 0.029 -0.008 -0.026 -0.003
C71 0.051 0.021 0.032 -0.006 -0.027 0.002
C72 0.04 0.034 0.035 -0.006 -0.027 -0.002
O7 0.099 0.028 0.062 0 -0.064 -0.004
O8 0.056 0.091 0.077 -0.05 -0.035 0.015
O9 0.103 0.039 0.044 -0.002 -0.052 0.015
O10 0.067 0.073 0.059 -0.003 -0.052 -0.009
O11 0.074 0.062 0.068 -0.019 -0.02 -0.022
O12 0.06 0.055 0.046 -0.005 -0.033 0.021
N7 0.043 0.025 0.034 -0.001 -0.028 -0.005
N14 0.056 0.027 0.037 -0.022 -0.034 0.029
N15 0.041 0.019 0.038 -0.009 -0.021 0.009
C37 0.045 0.043 0.039 -0.006 -0.035 0.001
C38 0.057 0.028 0.038 0.008 -0.039 -0.009
C40 0.051 0.036 0.034 0.007 -0.037 -0.012
C41 0.046 0.016 0.032 0.002 -0.027 -0.006
F4 0.063 0.049 0.061 -0.003 -0.04 -0.013
F5 0.082 0.035 0.082 -0.004 -0.066 0.005
C18 0.067 0.036 0.047 -0.014 -0.042 -0.004
C24 0.04 0.025 0.044 -0.007 -0.01 0
C25 0.039 0.023 0.034 -0.002 -0.016 -0.008
C26 0.047 0.025 0.049 -0.001 -0.037 -0.001
C51 0.044 0.068 0.048 -0.035 -0.033 0.023
C52 0.047 0.049 0.041 -0.022 -0.031 -0.001
C39 0.054 0.049 0.028 -0.01 -0.028 -0.003
C42 0.054 0.03 0.037 0 -0.036 -0.007
C43 0.045 0.026 0.028 0.004 -0.024 -0.007
F13 0.082 0.035 0.082 -0.004 -0.066 0.005
C60 0.04 0.025 0.044 -0.007 -0.01 0
C61 0.039 0.023 0.034 -0.002 -0.016 -0.008
C62 0.047 0.025 0.049 -0.001 -0.037 -0.001
C3 0.054 0.049 0.028 -0.01 -0.028 -0.003
C6 0.054 0.03 0.037 0 -0.036 -0.007
C7 0.045 0.026 0.028 0.004 -0.024 -0.007
C15 0.044 0.068 0.048 -0.035 -0.033 0.023
C16 0.047 0.049 0.041 -0.022 -0.031 -0.001
F12 0.063 0.049 0.061 -0.003 -0.04 -0.013
C54 0.067 0.036 0.047 -0.014 -0.042 -0.004
Cd1 0.0452 0.0231 0.0336 -0.0018 -0.0306 -0.009
F3 0.079 0.033 0.073 -0.011 -0.062 0.013
F7 0.068 0.031 0.059 -0.003 -0.044 0.007
F8 0.056 0.052 0.073 -0.004 -0.051 0.008
O1 0.099 0.028 0.062 0 -0.064 -0.004
O2 0.056 0.091 0.077 -0.05 -0.035 0.015
O3 0.103 0.039 0.044 -0.002 -0.052 0.015
O4 0.067 0.073 0.059 -0.003 -0.052 -0.009
O5 0.074 0.062 0.068 -0.019 -0.02 -0.022
O6 0.06 0.055 0.046 -0.005 -0.033 0.021
N1 0.043 0.025 0.034 -0.001 -0.028 -0.005
N2 0.046 0.03 0.05 -0.007 -0.043 0
N3 0.057 0.016 0.038 0.006 -0.037 -0.011
N4 0.043 0.024 0.032 -0.008 -0.027 0.001
N5 0.056 0.027 0.037 -0.022 -0.034 0.029
N6 0.041 0.019 0.038 -0.009 -0.021 0.009
C1 0.045 0.043 0.039 -0.006 -0.035 0.001
C2 0.057 0.028 0.038 0.008 -0.039 -0.009
C4 0.051 0.036 0.034 0.007 -0.037 -0.012
C5 0.046 0.016 0.032 0.002 -0.027 -0.006
C10 0.074 0.042 0.052 -0.016 -0.056 0.009
C11 0.123 0.032 0.101 -0.033 -0.099 0.03
C12 0.059 0.063 0.056 -0.043 -0.05 0.037
C13 0.103 0.045 0.087 -0.031 -0.078 0.015
C14 0.038 0.061 0.039 -0.014 -0.027 -0.007
C17 0.066 0.028 0.053 -0.014 -0.052 0.005
C19 0.057 0.018 0.083 0.009 -0.041 -0.007
C20 0.044 0.017 0.07 0.006 -0.034 0
C21 0.041 0.033 0.094 -0.009 -0.031 -0.007
C22 0.047 0.02 0.067 0.004 -0.021 0
C23 0.053 0.027 0.029 -0.006 -0.015 -0.015
C28 0.062 0.026 0.038 -0.004 -0.037 -0.005
C29 0.081 0.015 0.04 0.006 -0.035 -0.017
C30 0.062 0.021 0.035 0.001 -0.037 -0.001
C31 0.073 0.016 0.042 0.002 -0.04 -0.005
C32 0.041 0.026 0.031 0.003 -0.029 -0.008
C33 0.056 0.029 0.044 0.001 -0.042 -0.007
C34 0.042 0.028 0.029 -0.008 -0.026 -0.003
C35 0.051 0.021 0.032 -0.006 -0.027 0.002
C36 0.04 0.034 0.035 -0.006 -0.027 -0.002
F14 0.09 0.042 0.058 -0.009 -0.058 -0.004
C63 0.046 0.033 0.035 -0.007 -0.026 -0.009
F1 0.078 0.031 0.06 -0.013 -0.049 0.013
C8 0.04 0.021 0.04 -0.003 -0.029 -0.001
F10 0.052 0.048 0.057 -0.005 -0.043 0.012
C45 0.044 0.023 0.029 0.005 -0.028 -0.006
F2 0.052 0.048 0.057 -0.005 -0.043 0.012
C9 0.044 0.023 0.029 0.005 -0.028 -0.006
loop_
_geom_bond_atom_site_label_1
_geom_bond_atom_site_label_2
_geom_bond_site_symmetry_1
_geom_bond_site_symmetry_2
F6 C27 1_555 1_555
Cd4 N10 1_555 1_555
N10 C55 1_555 1_555
C55 H37 1_555 1_555
C56 N10 1_555 1_555
H38 C56 1_555 1_555
C57 C55 1_555 1_555
C58 C56 1_555 1_555
H40 C58 1_555 1_555
C59 C57 1_555 1_555
C58 C59 1_555 1_555
Cd4 N8 1_555 1_555
F11 C53 1_555 1_555
N8 C46 1_555 1_555
C46 H31 1_555 1_555
C47 N8 1_555 1_555
H32 C47 1_555 1_555
C48 C46 1_555 1_555
C49 C47 1_555 1_555
H34 C49 1_555 1_555
C50 C48 1_555 1_555
C49 C50 1_555 1_555
Cd4 N12 1_555 1_555
F9 C44 1_555 1_555
F15 C71 1_555 1_555
F16 C72 1_555 1_555
N12 C64 1_555 1_555
C64 H43 1_555 1_555
C65 N12 1_555 1_555
H44 C65 1_555 1_555
C66 C64 1_555 1_555
H45 C66 1_555 1_555
C67 C65 1_555 1_555
H46 C67 1_555 1_555
C68 C66 1_555 1_555
C69 C68 1_555 1_555
H47 C69 1_555 1_555
H48 C69 1_555 1_555
C71 C70 1_555 1_555
C67 C68 1_555 1_555
C69 C70 1_555 1_555
C71 C72 1_555 1_555
Cd4 O7 1_555 1_555
O7 N14 1_555 1_555
O8 N14 1_555 1_555
O9 N14 1_555 1_555
O10 Cd4 1_555 1_555
O11 N15 1_555 1_555
O12 N15 1_555 1_555
N7 Cd4 1_555 1_555
N15 O10 1_555 1_555
C37 N7 1_555 1_555
H25 C37 1_555 1_555
C38 N7 1_555 1_555
H26 C38 1_555 1_555
C40 C38 1_555 1_555
H28 C40 1_555 1_555
C40 C41 1_555 1_555
F4 C18 1_555 1_555
F5 C26 1_555 1_555
H17 C24 1_555 1_555
H18 C24 1_555 1_555
C25 C24 1_555 1_555
C26 C25 1_555 1_555
H35 C51 1_555 1_555
H36 C51 1_555 1_555
C52 C18 1_555 1_555
C51 C52 1_555 1_555
H27 C39 1_555 1_555
H29 C42 1_555 1_555
H30 C42 1_555 1_555
C42 C43 1_555 1_555
F13 C62 1_555 1_555
H41 C60 1_555 1_555
H42 C60 1_555 1_555
C62 C61 1_555 1_555
C60 C61 1_555 1_555
H3 C3 1_555 1_555
H5 C6 1_555 1_555
H6 C6 1_555 1_555
C7 C6 1_555 1_555
H11 C15 1_555 1_555
H12 C15 1_555 1_555
C16 C15 1_555 1_555
F12 C54 1_555 1_555
C54 C16 1_555 1_555
Cd1 O1 1_555 1_555
F3 C17 1_555 1_555
F7 C35 1_555 1_555
F8 C36 1_555 1_555
O1 N5 1_555 1_555
O2 N5 1_555 1_555
O3 N5 1_555 1_555
O4 Cd1 1_555 1_555
O5 N6 1_555 1_555
O6 N6 1_555 1_555
N1 Cd1 1_555 1_555
N2 Cd1 1_555 1_555
N3 Cd1 1_555 1_555
N4 Cd1 1_555 1_555
N6 O4 1_555 1_555
C1 N1 1_555 1_555
H1 C1 1_555 1_555
C2 N1 1_555 1_555
H2 C2 1_555 1_555
C4 C2 1_555 1_555
H4 C4 1_555 1_555
C10 N2 1_555 1_555
H7 C10 1_555 1_555
C11 N2 1_555 1_555
H8 C11 1_555 1_555
C12 C10 1_555 1_555
C13 C11 1_555 1_555
H10 C13 1_555 1_555
C14 C12 1_555 1_555
C19 N3 1_555 1_555
H13 C19 1_555 1_555
C20 N3 1_555 1_555
H14 C20 1_555 1_555
C21 C19 1_555 1_555
C22 C20 1_555 1_555
H16 C22 1_555 1_555
C23 C21 1_555 1_555
C28 N4 1_555 1_555
H19 C28 1_555 1_555
C29 N4 1_555 1_555
H20 C29 1_555 1_555
C30 C28 1_555 1_555
H21 C30 1_555 1_555
C31 C29 1_555 1_555
H22 C31 1_555 1_555
C32 C30 1_555 1_555
C33 C32 1_555 1_555
H23 C33 1_555 1_555
H24 C33 1_555 1_555
C34 C33 1_555 1_555
C35 C34 1_555 1_555
C36 C35 1_555 1_555
F14 C63 1_555 1_555
C4 C5 1_555 1_555
C13 C14 1_555 1_555
C22 C23 1_555 1_555
C31 C32 1_555 1_555
F1 C8 1_555 1_555
F10 C45 1_555 1_555
F2 C9 1_555 1_555

#END
