
###############################################################################
#
# This file contains modified crystal structure data generated from the
# MOF subset of the Cambridge Structural Database (CSD) v543 
# hosted by the Cambridge Crystallographic Data Centre (CCDC).
#
# This work is licensed under the Creative Commons
# Attribution-NonCommercial-ShareAlike 4.0 International License.
# To view a copy of this license, visit
# http://creativecommons.org/licenses/by-nc-sa/4.0/
# or send a letter to
# Creative Commons, PO Box 1866, Mountain View, CA 94042, USA.
#
# CIF created using the CSD Python API on 29 September 2022
# The structure has been converted into the P1 space group
# The structure has a 3D framework
# The original CSD entry MIFGEP01 is in the monoclinic crystal system
# The framework has been calculated to contain at least 10.0% void space
# The void calculation uses a probe of radius 1.32A, grid spacing 0.4
# H atom positions have been added when not included in the experimental data
#
###############################################################################

data_MIFGEP01
_chemical_formula_moiety         '(C120 H88 Cd4 N4 O28)n'
_symmetry_cell_setting           triclinic
_symmetry_space_group_name_H-M   'P 1'
_symmetry_Int_Tables_number      1
_space_group_name_Hall           'P 1'
loop_
_symmetry_equiv_pos_site_id
_symmetry_equiv_pos_as_xyz
1 x,y,z
_cell_length_a                   14.915(4)
_cell_length_b                   8.986(2)
_cell_length_c                   26.759(7)
_cell_angle_alpha                90
_cell_angle_beta                 96.272(3)
_cell_angle_gamma                90
_cell_volume                     3564.94
loop_
_atom_site_label
_atom_site_type_symbol
_atom_site_fract_x
_atom_site_fract_y
_atom_site_fract_z
O4 O 0.00418(16) 0.0681(3) 0.69363(7)
C1 C 0.24375(16) 0.4783(3) 0.06904(9)
C2 C 0.25950(17) 0.5845(3) 0.03370(10)
H1 H 0.3177 0.5979 0.0250
C3 C 0.18993(18) 0.6712(3) 0.01109(10)
C4 C 0.10217(16) 0.6525(3) 0.02341(9)
C5 C 0.08693(16) 0.5473(3) 0.05992(9)
H3 H 0.0291 0.5348 0.0692
C6 C 0.15719(16) 0.4612(3) 0.08251(9)
H4 H 0.1462 0.3916 0.1068
C27 C 0.31800(18) 0.3801(3) 0.09296(10)
O2 O 0.29928(13) 0.2786(2) 0.12168(8)
O3 O 0.39818(12) 0.4030(2) 0.08281(8)
Cd1 Cd 0.441161(11) 0.18776(2) 0.141485(6)
O8 O 0.50418(16) 0.4319(3) 0.19363(7)
O9 O 0.44594(14) 0.2303(2) 0.22307(7)
O10 O 0.59502(13) 0.1164(3) 0.14385(8)
O11 O 0.50658(12) 0.0963(2) 0.07375(7)
H22 H 0.369764 0.0156149 0.230534
H14 H 0.5912 0.0030 0.0041
C23 C 0.65884(15) 0.0222(3) 0.07316(9)
H15 H 0.7509 0.0178 0.1345
C25 C 0.58285(17) 0.0818(3) 0.09870(10)
O10_2 O 0.09502(13) 0.3836(3) 0.64385(8)
O11_2 O 0.00658(12) 0.4037(2) 0.57375(7)
C2_2 C 0.75950(17) 0.9155(3) 0.53370(10)
H1_2 H 0.8177 0.9021 0.5250
C3_2 C 0.68993(18) 0.8288(3) 0.51109(10)
H2 H 0.7018 0.7575 0.4875
C4_2 C 0.60217(16) 0.8475(3) 0.52341(9)
C5_2 C 0.58693(16) 0.9527(3) 0.55992(9)
H3_2 H 0.5291 0.9652 0.5692
C7 C 0.52601(15) 0.7578(3) 0.49759(9)
C8 C 0.52904(17) 0.7077(3) 0.44876(9)
H5 H 0.5784 0.7316 0.4318
C9 C 0.45899(16) 0.6215(3) 0.42452(9)
C10 C 0.38530(16) 0.5885(3) 0.45008(9)
H6 H 0.3384 0.5319 0.4342
C11 C 0.37996(16) 0.6382(3) 0.49900(9)
C12 C 0.45119(16) 0.7225(3) 0.52256(9)
H7 H 0.4488 0.7556 0.5553
C13 C 0.46440(15) 0.5586(3) 0.37386(9)
C14 C 0.50469(18) 0.6355(3) 0.33680(10)
H8 H 0.5288 0.7297 0.3436
C15 C 0.50894(18) 0.5722(3) 0.28997(10)
H9 H 0.5351 0.6252 0.2655
C16 C 0.47481(16) 0.4311(3) 0.27905(9)
C17 C 0.43595(19) 0.3539(3) 0.31598(10)
H10 H 0.4132 0.2587 0.3093
C18 C 0.43067(17) 0.4166(3) 0.36240(9)
H11 H 0.4041 0.3632 0.3867
C19 C 0.30241(15) 0.5913(3) 0.52530(9)
C20 C 0.21796(16) 0.5686(3) 0.49858(10)
H12 H 0.2090 0.5915 0.4645
C21 C 0.31298(16) 0.5597(3) 0.57649(9)
H13 H 0.3684 0.5768 0.5951
C22 C 0.14713(16) 0.5120(3) 0.52243(9)
H14_2 H 0.0912 0.4970 0.5041
C23_2 C 0.15884(15) 0.4778(3) 0.57316(9)
C24 C 0.24243(16) 0.5032(3) 0.60032(9)
H15_2 H 0.2509 0.4822 0.6345
C25_2 C 0.08285(17) 0.4182(3) 0.59870(10)
C26 C 0.47621(18) 0.3610(3) 0.22791(10)
H2_2 H 0.2018 0.7425 0.9875
C7_2 C 0.02601(15) 0.7422(3) 0.99759(9)
C8_2 C 0.02904(17) 0.7923(3) 0.94876(9)
H5_2 H 0.0784 0.7684 0.9318
C14_2 C 0.00469(18) 0.8645(3) 0.83680(10)
H8_2 H 0.0288 0.7703 0.8436
C15_2 C 0.00894(18) 0.9278(3) 0.78997(10)
H9_2 H 0.0351 0.8748 0.7655
C28 C 0.3583(2) 0.9296(3) 0.20188(12)
C29 C 0.3019(3) 0.6857(4) 0.17812(16)
H16 H 0.2740 0.6045 0.1939
H17 H 0.3576 0.6526 0.1669
H18 H 0.2622 0.7202 0.1498
C30 C 0.2944(3) 0.7845(4) 0.26473(14)
H19 H 0.2677 0.6880 0.2673
H20 H 0.2518 0.8597 0.2717
H21 H 0.3472 0.7920 0.2886
N1 N 0.31972(18) 0.8056(3) 0.21382(11)
O1 O 0.38276(15) 0.9549(2) 0.15939(8)
C16_2 C 0.97481(16) 0.0689(3) 0.77905(9)
C17_2 C 0.93595(19) 0.1461(3) 0.81598(10)
H10_2 H 0.9132 0.2413 0.8093
C18_2 C 0.93067(17) 0.0834(3) 0.86240(9)
H11_2 H 0.9041 0.1368 0.8867
C26_2 C 0.97621(18) 0.1390(3) 0.72791(10)
O5 O 0.94594(14) 0.2697(2) 0.72307(7)
Cd3 Cd 0.941161(11) 0.31224(2) 0.641485(6)
C1_2 C 0.74375(16) 0.0217(3) 0.56904(9)
C6_2 C 0.65719(16) 0.0388(3) 0.58251(9)
H4_2 H 0.6462 0.1084 0.6068
C27_2 C 0.81800(18) 0.1199(3) 0.59296(10)
C28_2 C 0.8583(2) 0.5704(3) 0.70188(12)
C29_2 C 0.8019(3) 0.8143(4) 0.67812(16)
H16_2 H 0.7740 0.8955 0.6939
H17_2 H 0.8576 0.8474 0.6669
H18_2 H 0.7622 0.7798 0.6498
C30_2 C 0.7944(3) 0.7155(4) 0.76473(14)
H19_2 H 0.7677 0.8120 0.7673
H20_2 H 0.7518 0.6403 0.7717
H21_2 H 0.8472 0.7080 0.7886
N1_2 N 0.81972(18) 0.6944(3) 0.71382(11)
O1_2 O 0.88276(15) 0.5451(2) 0.65939(8)
O2_2 O 0.79928(13) 0.2214(2) 0.62168(8)
O3_2 O 0.89818(12) 0.0970(2) 0.58281(8)
H22_2 H 0.869764 0.484385 0.730534
C12_2 C 0.95119(16) 0.7775(3) 0.02256(9)
H7_2 H 0.9488 0.7444 0.0553
C19_2 C 0.80241(15) 0.9087(3) 0.02530(9)
C21_2 C 0.81298(16) 0.9403(3) 0.07649(9)
H13_2 H 0.8684 0.9232 0.0951
C22_2 C 0.64713(16) 0.9880(3) 0.02243(9)
C24_2 C 0.74243(16) 0.9968(3) 0.10032(9)
C9_2 C 0.95899(16) 0.8785(3) 0.92452(9)
C10_2 C 0.88530(16) 0.9115(3) 0.95008(9)
H6_2 H 0.8384 0.9681 0.9342
C11_2 C 0.87996(16) 0.8618(3) 0.99900(9)
C13_2 C 0.96440(15) 0.9414(3) 0.87386(9)
C20_2 C 0.71796(16) 0.9314(3) 0.99858(10)
H12_2 H 0.7090 0.9085 0.9645
Cd2 Cd 0.058839(11) 0.68776(2) 0.358515(6)
C1_3 C 0.25625(16) 0.9783(3) 0.43096(9)
C6_3 C 0.34281(16) 0.9612(3) 0.41749(9)
H4_3 H 0.3538 0.8916 0.3932
C27_3 C 0.18200(18) 0.8801(3) 0.40704(10)
C28_3 C 0.1417(2) 0.4296(3) 0.29812(12)
C29_3 C 0.1981(3) 0.1857(4) 0.32188(16)
H16_3 H 0.2260 0.1045 0.3061
H17_3 H 0.1424 0.1526 0.3331
H18_3 H 0.2378 0.2202 0.3502
C30_3 C 0.2056(3) 0.2845(4) 0.23527(14)
H19_3 H 0.2323 0.1880 0.2327
H20_3 H 0.2482 0.3597 0.2283
H21_3 H 0.1528 0.2920 0.2114
N1_3 N 0.18028(18) 0.3056(3) 0.28618(11)
O1_3 O 0.11724(15) 0.4549(2) 0.34061(8)
O2_3 O 0.20072(13) 0.7786(2) 0.37832(8)
O3_3 O 0.10182(12) 0.9030(2) 0.41719(8)
O9_2 O 0.05406(14) 0.7303(2) 0.27693(7)
H22_3 H 0.130236 0.515615 0.269466
C16_3 C 0.02519(16) 0.9311(3) 0.22095(9)
C17_3 C 0.06405(19) 0.8539(3) 0.18402(10)
H10_3 H 0.0868 0.7587 0.1907
C18_3 C 0.06933(17) 0.9166(3) 0.13760(9)
H11_3 H 0.0959 0.8632 0.1133
C26_3 C 0.02379(18) 0.8610(3) 0.27209(10)
C2_3 C 0.24050(17) 0.0845(3) 0.46630(10)
H1_3 H 0.1823 0.0979 0.4750
C3_3 C 0.31007(18) 0.1712(3) 0.48891(10)
H2_3 H 0.2982 0.2425 0.5125
C4_3 C 0.39783(16) 0.1525(3) 0.47659(9)
C5_3 C 0.41307(16) 0.0473(3) 0.44008(9)
H3_3 H 0.4709 0.0348 0.4308
C7_3 C 0.47399(15) 0.2422(3) 0.50241(9)
C8_3 C 0.47096(17) 0.2923(3) 0.55124(9)
H5_3 H 0.4216 0.2684 0.5682
C9_3 C 0.54101(16) 0.3785(3) 0.57548(9)
C10_3 C 0.61470(16) 0.4115(3) 0.54992(9)
H6_3 H 0.6616 0.4681 0.5658
C11_3 C 0.62004(16) 0.3618(3) 0.50100(9)
C12_3 C 0.54881(16) 0.2775(3) 0.47744(9)
H7_3 H 0.5512 0.2444 0.4447
C13_3 C 0.53560(15) 0.4414(3) 0.62614(9)
C14_3 C 0.49531(18) 0.3645(3) 0.66320(10)
H8_3 H 0.4712 0.2703 0.6564
C15_3 C 0.49106(18) 0.4278(3) 0.71003(10)
H9_3 H 0.4649 0.3748 0.7345
C16_4 C 0.52519(16) 0.5689(3) 0.72095(9)
C17_4 C 0.56405(19) 0.6461(3) 0.68402(10)
H10_4 H 0.5868 0.7413 0.6907
C18_4 C 0.56933(17) 0.5834(3) 0.63760(9)
H11_4 H 0.5959 0.6368 0.6133
C19_3 C 0.69759(15) 0.4087(3) 0.47470(9)
C20_3 C 0.78204(16) 0.4314(3) 0.50142(10)
H12_3 H 0.7910 0.4085 0.5355
C21_3 C 0.68702(16) 0.4403(3) 0.42351(9)
H13_3 H 0.6316 0.4232 0.4049
C22_3 C 0.85287(16) 0.4880(3) 0.47757(9)
H14_3 H 0.9088 0.5030 0.4959
C23_3 C 0.84116(15) 0.5222(3) 0.42684(9)
C24_3 C 0.75757(16) 0.4968(3) 0.39968(9)
H15_3 H 0.7491 0.5178 0.3655
C25_3 C 0.91715(17) 0.5818(3) 0.40130(10)
C26_4 C 0.52379(18) 0.6390(3) 0.77209(10)
O4_2 O 0.49582(16) 0.5681(3) 0.80637(7)
O5_2 O 0.55406(14) 0.7697(2) 0.77693(7)
O6 O 0.90498(13) 0.6164(3) 0.35615(8)
O7 O 0.99342(12) 0.5963(2) 0.42625(7)
Cd3_2 Cd 0.558839(11) 0.81224(2) 0.858515(6)
O8_2 O 0.99582(16) 0.9319(3) 0.30637(7)
H14_4 H 0.4088 0.9970 0.9959
C23_4 C 0.34116(15) 0.9778(3) 0.92684(9)
H15_4 H 0.2491 0.9822 0.8655
C25_4 C 0.41715(17) 0.9182(3) 0.90130(10)
O6_2 O 0.40498(13) 0.8836(3) 0.85615(8)
O7_2 O 0.49342(12) 0.9037(2) 0.92625(7)
C1_4 C 0.75625(16) 0.5217(3) 0.93096(9)
C2_4 C 0.74050(17) 0.4155(3) 0.96630(10)
H1_4 H 0.6823 0.4021 0.9750
C3_4 C 0.81007(18) 0.3288(3) 0.98891(10)
C4_4 C 0.89783(16) 0.3475(3) 0.97659(9)
C5_4 C 0.91307(16) 0.4527(3) 0.94008(9)
H3_4 H 0.9709 0.4652 0.9308
C6_4 C 0.84281(16) 0.5388(3) 0.91749(9)
H4_4 H 0.8538 0.6084 0.8932
C27_4 C 0.68200(18) 0.6199(3) 0.90704(10)
O2_4 O 0.70072(13) 0.7214(2) 0.87832(8)
O3_4 O 0.60182(12) 0.5970(2) 0.91719(8)
H22_4 H 0.630236 0.984385 0.769466
C9_4 C 0.04101(16) 0.1215(3) 0.07548(9)
C10_4 C 0.11470(16) 0.0885(3) 0.04992(9)
H6_4 H 0.1616 0.0319 0.0658
C11_4 C 0.12004(16) 0.1382(3) 0.00100(9)
C13_4 C 0.03560(15) 0.0586(3) 0.12614(9)
C20_4 C 0.28204(16) 0.0686(3) 0.00142(10)
H12_4 H 0.2910 0.0915 0.0355
C12_4 C 0.04881(16) 0.2225(3) 0.97744(9)
H7_4 H 0.0512 0.2556 0.9447
C19_4 C 0.19759(15) 0.0913(3) 0.97470(9)
C21_4 C 0.18702(16) 0.0597(3) 0.92351(9)
H13_4 H 0.1316 0.0768 0.9049
C22_4 C 0.35287(16) 0.0120(3) 0.97757(9)
C24_4 C 0.25757(16) 0.0032(3) 0.89968(9)
C28_4 C 0.6417(2) 0.0704(3) 0.79812(12)
C29_4 C 0.6981(3) 0.3143(4) 0.82188(16)
H16_4 H 0.7260 0.3955 0.8061
H17_4 H 0.6424 0.3474 0.8331
H18_4 H 0.7378 0.2798 0.8502
C30_4 C 0.7056(3) 0.2155(4) 0.73527(14)
H19_4 H 0.7323 0.3120 0.7327
H20_4 H 0.7482 0.1403 0.7283
H21_4 H 0.6528 0.2080 0.7114
N1_4 N 0.68028(18) 0.1944(3) 0.78618(11)
O1_4 O 0.61724(15) 0.0451(2) 0.84061(8)
H2_4 H 0.7982 0.2575 0.0125
C7_4 C 0.97399(15) 0.2578(3) 0.00241(9)
C8_4 C 0.97096(17) 0.2077(3) 0.05124(9)
H5_4 H 0.9216 0.2316 0.0682
C14_4 C 0.99531(18) 0.1355(3) 0.16320(10)
H8_4 H 0.9712 0.2297 0.1564
C15_4 C 0.99106(18) 0.0722(3) 0.21003(10)
H9_4 H 0.9649 0.1252 0.2345
loop_
_geom_bond_atom_site_label_1
_geom_bond_atom_site_label_2
_geom_bond_site_symmetry_1
_geom_bond_site_symmetry_2
C1 C2 1_555 1_555
C2 H1 1_555 1_555
C3 C2 1_555 1_555
C4 C3 1_555 1_555
C5 C4 1_555 1_555
H3 C5 1_555 1_555
C6 C1 1_555 1_555
H4 C6 1_555 1_555
C27 C1 1_555 1_555
O2 C27 1_555 1_555
O3 C27 1_555 1_555
O8 Cd1 1_555 1_555
O9 Cd1 1_555 1_555
O10 Cd1 1_555 1_555
O11 Cd1 1_555 1_555
C5 C6 1_555 1_555
O2 Cd1 1_555 1_555
O3 Cd1 1_555 1_555
C25 C23 1_555 1_555
O10 C25 1_555 1_555
O11 C25 1_555 1_555
C2_2 H1_2 1_555 1_555
C3_2 C2_2 1_555 1_555
H2 C3_2 1_555 1_555
C4_2 C3_2 1_555 1_555
C5_2 C4_2 1_555 1_555
H3_2 C5_2 1_555 1_555
C7 C4_2 1_555 1_555
C8 C7 1_555 1_555
H5 C8 1_555 1_555
C9 C8 1_555 1_555
C10 C9 1_555 1_555
H6 C10 1_555 1_555
C11 C10 1_555 1_555
C12 C7 1_555 1_555
H7 C12 1_555 1_555
C13 C9 1_555 1_555
C14 C13 1_555 1_555
H8 C14 1_555 1_555
C15 C14 1_555 1_555
H9 C15 1_555 1_555
C16 C15 1_555 1_555
C17 C16 1_555 1_555
H10 C17 1_555 1_555
C18 C13 1_555 1_555
H11 C18 1_555 1_555
C19 C11 1_555 1_555
C20 C19 1_555 1_555
H12 C20 1_555 1_555
C21 C19 1_555 1_555
H13 C21 1_555 1_555
C22 C20 1_555 1_555
H14_2 C22 1_555 1_555
C23_2 C22 1_555 1_555
C24 C21 1_555 1_555
H15_2 C24 1_555 1_555
C25_2 C23_2 1_555 1_555
C26 C16 1_555 1_555
O8 C26 1_555 1_555
O9 C26 1_555 1_555
O10_2 C25_2 1_555 1_555
O11_2 C25_2 1_555 1_555
C11 C12 1_555 1_555
C17 C18 1_555 1_555
C23_2 C24 1_555 1_555
C8_2 C7_2 1_555 1_555
H5_2 C8_2 1_555 1_555
H8_2 C14_2 1_555 1_555
C15_2 C14_2 1_555 1_555
H9_2 C15_2 1_555 1_555
C28 N1 1_555 1_555
C29 H16 1_555 1_555
H17 C29 1_555 1_555
H18 C29 1_555 1_555
C30 H19 1_555 1_555
H20 C30 1_555 1_555
H21 C30 1_555 1_555
N1 C29 1_555 1_555
O1 C28 1_555 1_555
C30 N1 1_555 1_555
C17_2 C16_2 1_555 1_555
H10_2 C17_2 1_555 1_555
H11_2 C18_2 1_555 1_555
C26_2 C16_2 1_555 1_555
O5 C26_2 1_555 1_555
C17_2 C18_2 1_555 1_555
O5 Cd3 1_555 1_555
C6_2 C1_2 1_555 1_555
H4_2 C6_2 1_555 1_555
C27_2 C1_2 1_555 1_555
C28_2 N1_2 1_555 1_555
C29_2 H16_2 1_555 1_555
H17_2 C29_2 1_555 1_555
H18_2 C29_2 1_555 1_555
C30_2 H19_2 1_555 1_555
H20_2 C30_2 1_555 1_555
H21_2 C30_2 1_555 1_555
N1_2 C29_2 1_555 1_555
O1_2 C28_2 1_555 1_555
O2_2 C27_2 1_555 1_555
O3_2 C27_2 1_555 1_555
Cd3 O1_2 1_555 1_555
C30_2 N1_2 1_555 1_555
O2_2 Cd3 1_555 1_555
O3_2 Cd3 1_555 1_555
C28_2 H22_2 1_555 1_555
H7_2 C12_2 1_555 1_555
C21_2 C19_2 1_555 1_555
H13_2 C21_2 1_555 1_555
C24_2 C21_2 1_555 1_555
C10_2 C9_2 1_555 1_555
H6_2 C10_2 1_555 1_555
C11_2 C10_2 1_555 1_555
C13_2 C9_2 1_555 1_555
H12_2 C20_2 1_555 1_555
C6_3 C1_3 1_555 1_555
H4_3 C6_3 1_555 1_555
C27_3 C1_3 1_555 1_555
C28_3 N1_3 1_555 1_555
C29_3 H16_3 1_555 1_555
H17_3 C29_3 1_555 1_555
H18_3 C29_3 1_555 1_555
C30_3 H19_3 1_555 1_555
H20_3 C30_3 1_555 1_555
H21_3 C30_3 1_555 1_555
N1_3 C29_3 1_555 1_555
O1_3 C28_3 1_555 1_555
O2_3 C27_3 1_555 1_555
O3_3 C27_3 1_555 1_555
Cd2 O1_3 1_555 1_555
O9_2 Cd2 1_555 1_555
C30_3 N1_3 1_555 1_555
O2_3 Cd2 1_555 1_555
O3_3 Cd2 1_555 1_555
C28_3 H22_3 1_555 1_555
C17_3 C16_3 1_555 1_555
H10_3 C17_3 1_555 1_555
H11_3 C18_3 1_555 1_555
C26_3 C16_3 1_555 1_555
O9_2 C26_3 1_555 1_555
C17_3 C18_3 1_555 1_555
C2_3 H1_3 1_555 1_555
C3_3 C2_3 1_555 1_555
H2_3 C3_3 1_555 1_555
C4_3 C3_3 1_555 1_555
C5_3 C4_3 1_555 1_555
H3_3 C5_3 1_555 1_555
C7_3 C4_3 1_555 1_555
C8_3 C7_3 1_555 1_555
H5_3 C8_3 1_555 1_555
C9_3 C8_3 1_555 1_555
C10_3 C9_3 1_555 1_555
H6_3 C10_3 1_555 1_555
C11_3 C10_3 1_555 1_555
C12_3 C7_3 1_555 1_555
H7_3 C12_3 1_555 1_555
C13_3 C9_3 1_555 1_555
C14_3 C13_3 1_555 1_555
H8_3 C14_3 1_555 1_555
C15_3 C14_3 1_555 1_555
H9_3 C15_3 1_555 1_555
C16_4 C15_3 1_555 1_555
C17_4 C16_4 1_555 1_555
H10_4 C17_4 1_555 1_555
C18_4 C13_3 1_555 1_555
H11_4 C18_4 1_555 1_555
C19_3 C11_3 1_555 1_555
C20_3 C19_3 1_555 1_555
H12_3 C20_3 1_555 1_555
C21_3 C19_3 1_555 1_555
H13_3 C21_3 1_555 1_555
C22_3 C20_3 1_555 1_555
H14_3 C22_3 1_555 1_555
C23_3 C22_3 1_555 1_555
C24_3 C21_3 1_555 1_555
H15_3 C24_3 1_555 1_555
C25_3 C23_3 1_555 1_555
C26_4 C16_4 1_555 1_555
O4_2 C26_4 1_555 1_555
O5_2 C26_4 1_555 1_555
O6 C25_3 1_555 1_555
O7 C25_3 1_555 1_555
Cd3_2 O4_2 1_555 1_555
C11_3 C12_3 1_555 1_555
C17_4 C18_4 1_555 1_555
C23_3 C24_3 1_555 1_555
O5_2 Cd3_2 1_555 1_555
C25_4 C23_4 1_555 1_555
O6_2 C25_4 1_555 1_555
O7_2 C25_4 1_555 1_555
Cd3_2 O6_2 1_555 1_555
O7_2 Cd3_2 1_555 1_555
C1_4 C2_4 1_555 1_555
C2_4 H1_4 1_555 1_555
C3_4 C2_4 1_555 1_555
C4_4 C3_4 1_555 1_555
C5_4 C4_4 1_555 1_555
H3_4 C5_4 1_555 1_555
C6_4 C1_4 1_555 1_555
H4_4 C6_4 1_555 1_555
C27_4 C1_4 1_555 1_555
O2_4 C27_4 1_555 1_555
O3_4 C27_4 1_555 1_555
C5_4 C6_4 1_555 1_555
O2_4 Cd3_2 1_555 1_555
O3_4 Cd3_2 1_555 1_555
C10_4 C9_4 1_555 1_555
H6_4 C10_4 1_555 1_555
C11_4 C10_4 1_555 1_555
C13_4 C9_4 1_555 1_555
H12_4 C20_4 1_555 1_555
H7_4 C12_4 1_555 1_555
C21_4 C19_4 1_555 1_555
H13_4 C21_4 1_555 1_555
C24_4 C21_4 1_555 1_555
C28_4 N1_4 1_555 1_555
C29_4 H16_4 1_555 1_555
H17_4 C29_4 1_555 1_555
H18_4 C29_4 1_555 1_555
C30_4 H19_4 1_555 1_555
H20_4 C30_4 1_555 1_555
H21_4 C30_4 1_555 1_555
N1_4 C29_4 1_555 1_555
O1_4 C28_4 1_555 1_555
C30_4 N1_4 1_555 1_555
C8_4 C7_4 1_555 1_555
H5_4 C8_4 1_555 1_555
H8_4 C14_4 1_555 1_555
C15_4 C14_4 1_555 1_555
H9_4 C15_4 1_555 1_555

#END
