
###############################################################################
#
# This file contains modified crystal structure data generated from the
# MOF subset of the Cambridge Structural Database (CSD) v543 
# hosted by the Cambridge Crystallographic Data Centre (CCDC).
#
# This work is licensed under the Creative Commons
# Attribution-NonCommercial-ShareAlike 4.0 International License.
# To view a copy of this license, visit
# http://creativecommons.org/licenses/by-nc-sa/4.0/
# or send a letter to
# Creative Commons, PO Box 1866, Mountain View, CA 94042, USA.
#
# CIF created using the CSD Python API on 29 September 2022
# The structure has been converted into the P1 space group
# The structure has a 3D framework
# The original CSD entry MIFQOJ is in the trigonal crystal system
# The framework has been calculated to contain at least 10.0% void space
# The void calculation uses a probe of radius 1.32A, grid spacing 0.4
# The framework is charged, counterions have been retained in the structure
#
###############################################################################

data_MIFQOJ
_chemical_formula_moiety         '(C126 H78 Cl2 Mn4 N24 O12 1+)n'
_symmetry_cell_setting           triclinic
_symmetry_space_group_name_H-M   'P 1'
_symmetry_Int_Tables_number      1
_space_group_name_Hall           'P 1'
loop_
_symmetry_equiv_pos_site_id
_symmetry_equiv_pos_as_xyz
1 x,y,z
_cell_length_a                   17.275(5)
_cell_length_b                   17.275(3)
_cell_length_c                   14.107(5)
_cell_angle_alpha                90
_cell_angle_beta                 90
_cell_angle_gamma                120
_cell_volume                     3645.87
loop_
_atom_site_label
_atom_site_type_symbol
_atom_site_fract_x
_atom_site_fract_y
_atom_site_fract_z
N1 N 0.10830(13) 0.60255(13) 0.41038(14)
N2 N 0.22443(12) 0.66571(13) 0.51128(14)
C4 C 0.05876(16) 0.55324(16) 0.32918(17)
C5 C 0.1054(2) 0.55270(11) 0.2500
H2 H 0.1676 0.5838 0.2500
C6 C 0.18820(16) 0.61192(16) 0.43840(17)
H3 H 0.2146 0.5829 0.4086
C7 C 0.16341(17) 0.69359(17) 0.53457(18)
C8 C 0.1667(2) 0.7498(2) 0.6057(2)
H4 H 0.2151 0.7763 0.6471
C9 C 0.0964(3) 0.7654(3) 0.6137(3)
H5 H 0.0960 0.8012 0.6628
C10 C 0.0251(3) 0.7284(3) 0.5491(3)
C11 C 0.0206(2) 0.6725(2) 0.4780(2)
C12 C 0.09041(17) 0.65493(17) 0.47180(19)
N3 N 0.10830(13) 0.50575(18) 0.08962(14)
C14 C 0.05876(16) 0.50552(23) 0.17082(17)
C15 C 0.18820(16) 0.57628(23) 0.06160(17)
H9 H 0.2146 0.6317 0.0914
C20 C 0.0206(2) 0.3481(3) 0.0220(2)
C21 C 0.09041(17) 0.43548(24) 0.02820(19)
Mn8 Mn 0.3333 0.6667 0.60384(4)
N4 N 0.22443(12) 0.55872(18) 0.98872(14)
C16 C 0.16341(17) 0.46982(24) 0.96543(18)
C17 C 0.1667(2) 0.4169(3) 0.8943(2)
H10 H 0.2151 0.4388 0.8529
C18 C 0.0964(3) 0.3310(4) 0.8863(3)
H11 H 0.0960 0.2948 0.8372
C19 C 0.0251(3) 0.2967(4) 0.9509(3)
Mn5 Mn 0.3333 0.6667 0.89616(4)
Mn1 Mn 0.6667 0.3333 0.10384(4)
O1 O 0.78200(10) 0.35693(10) 0.18213(12)
C1 C 0.8200(2) 0.40999(11) 0.2500
C2 C 0.9201(2) 0.46003(11) 0.2500
C3 C 0.96622(16) 0.50651(16) 0.33047(17)
H1 H 0.9353 0.5062 0.3846
H6 H 0.9798 0.7423 0.5548
H7 H 0.9729 0.6474 0.4358
O2 O 0.78200(10) 0.42507(14) 0.31787(12)
C13 C 0.96622(16) 0.45971(23) 0.16953(17)
H8 H 0.9353 0.4291 0.1154
H13 H 0.9729 0.3255 0.0642
O3 O 0.64307(10) 0.42507(14) 0.18213(12)
N5 N 0.39745(13) 0.50575(18) 0.41038(14)
N6 N 0.33429(13) 0.55872(18) 0.51128(14)
C22 C 0.59001(11) 0.41001(23) 0.2500
C23 C 0.53997(11) 0.46007(23) 0.2500
C24 C 0.49349(16) 0.45971(23) 0.33047(17)
H14 H 0.4938 0.4291 0.3846
C25 C 0.44676(16) 0.50552(23) 0.32918(17)
C26 C 0.44730(11) 0.55270(23) 0.2500
H15 H 0.4162 0.5838 0.2500
C27 C 0.38808(16) 0.57628(23) 0.43840(17)
H16 H 0.4171 0.6317 0.4086
C28 C 0.30641(17) 0.46982(24) 0.53457(18)
C29 C 0.2502(2) 0.4169(3) 0.6057(2)
H17 H 0.2237 0.4388 0.6471
C30 C 0.2346(3) 0.3310(4) 0.6137(3)
H18 H 0.1988 0.2948 0.6628
C31 C 0.2716(3) 0.2967(4) 0.5491(3)
H19 H 0.2577 0.2375 0.5548
C32 C 0.3275(2) 0.3481(3) 0.4780(2)
H20 H 0.3526 0.3255 0.4358
C33 C 0.34507(17) 0.43548(24) 0.47180(19)
O4 O 0.57493(14) 0.35693(10) 0.31787(12)
N7 N 0.49425(18) 0.60255(13) 0.08962(14)
C34 C 0.54029(23) 0.50651(16) 0.16953(17)
H21 H 0.5709 0.5062 0.1154
C35 C 0.49448(23) 0.55324(16) 0.17082(17)
C36 C 0.42372(23) 0.61192(16) 0.06160(17)
H22 H 0.3683 0.5829 0.0914
C41 C 0.6519(3) 0.6725(2) 0.0220(2)
H26 H 0.6745 0.6474 0.0642
C42 C 0.56452(24) 0.65493(17) 0.02820(19)
O5 O 0.57493(14) 0.21800(10) 0.18213(12)
C43 C 0.58999(23) 0.1800(2) 0.2500
C44 C 0.53993(23) 0.0799(2) 0.2500
C45 C 0.54029(23) 0.03378(16) 0.33047(17)
H27 H 0.5709 0.0647 0.3846
H32 H 0.7625 0.0202 0.5548
H33 H 0.6745 0.0271 0.4358
O6 O 0.64307(10) 0.21800(10) 0.31787(12)
C55 C 0.49349(16) 0.03378(16) 0.16953(17)
H34 H 0.4938 0.0647 0.1154
H39 H 0.3526 0.0271 0.0642
Mn2 Mn 0.6667 0.3333 0.39616(4)
N13 N 0.77557(12) 0.33429(13) 0.48872(14)
N14 N 0.66571(13) 0.44128(18) 0.48872(14)
N15 N 0.55872(18) 0.22443(12) 0.48872(14)
N16 N 0.66571(13) 0.22443(12) 0.01128(14)
N17 N 0.77557(12) 0.44128(18) 0.01128(14)
N18 N 0.55872(18) 0.33429(13) 0.01128(14)
H12 H 0.9798 0.2375 0.9452
N8 N 0.44128(18) 0.66571(13) 0.98872(14)
C37 C 0.53018(24) 0.69359(17) 0.96543(18)
C38 C 0.5831(3) 0.7498(2) 0.8943(2)
H23 H 0.5612 0.7763 0.8529
C39 C 0.6690(4) 0.7654(3) 0.8863(3)
H24 H 0.7052 0.8012 0.8372
C40 C 0.7033(4) 0.7284(3) 0.9509(3)
H25 H 0.7625 0.7423 0.9452
H38 H 0.2577 0.0202 0.9452
N9 N 0.49425(18) 0.89170(13) 0.41038(14)
N10 N 0.44128(18) 0.77557(12) 0.51128(14)
C46 C 0.49448(23) 0.94124(16) 0.32918(17)
C47 C 0.44730(23) 0.8946(2) 0.2500
H28 H 0.4162 0.8324 0.2500
C48 C 0.42372(23) 0.81180(16) 0.43840(17)
H29 H 0.3683 0.7854 0.4086
C49 C 0.53018(24) 0.83659(17) 0.53457(18)
C50 C 0.5831(3) 0.8333(2) 0.6057(2)
H30 H 0.5612 0.7849 0.6471
C51 C 0.6690(4) 0.9036(3) 0.6137(3)
H31 H 0.7052 0.9040 0.6628
C52 C 0.7033(4) 0.9749(3) 0.5491(3)
C53 C 0.6519(3) 0.9794(2) 0.4780(2)
C54 C 0.56452(24) 0.90959(17) 0.47180(19)
N11 N 0.39745(13) 0.89170(13) 0.08962(14)
C56 C 0.44676(16) 0.94124(16) 0.17082(17)
C57 C 0.38808(16) 0.81180(16) 0.06160(17)
H35 H 0.4171 0.7854 0.0914
C62 C 0.3275(2) 0.9794(2) 0.0220(2)
C63 C 0.34507(17) 0.90959(17) 0.02820(19)
N12 N 0.33429(13) 0.77557(12) 0.98872(14)
C58 C 0.30641(17) 0.83659(17) 0.96543(18)
C59 C 0.2502(2) 0.8333(2) 0.8943(2)
H36 H 0.2237 0.7849 0.8529
C60 C 0.2346(3) 0.9036(3) 0.8863(3)
H37 H 0.1988 0.9040 0.8372
C61 C 0.2716(3) 0.9749(3) 0.9509(3)
C58_2 C 0.69359(17) 0.16341(17) 0.03457(18)
C59_2 C 0.7498(2) 0.1667(2) 0.1057(2)
H36_2 H 0.7763 0.2151 0.1471
C60_2 C 0.7654(3) 0.0964(3) 0.1137(3)
H37_2 H 0.8012 0.0960 0.1628
C61_2 C 0.7284(3) 0.0251(3) 0.0491(3)
N9_2 N 0.50575(18) 0.10830(13) 0.58962(14)
C46_2 C 0.50552(23) 0.05876(16) 0.67082(17)
C47_2 C 0.55270(23) 0.1054(2) 0.7500
H28_2 H 0.5838 0.1676 0.7500
C48_2 C 0.57628(23) 0.18820(16) 0.56160(17)
H29_2 H 0.6317 0.2146 0.5914
C49_2 C 0.46982(24) 0.16341(17) 0.46543(18)
C50_2 C 0.4169(3) 0.1667(2) 0.3943(2)
H30_2 H 0.4388 0.2151 0.3529
C51_2 C 0.3310(4) 0.0964(3) 0.3863(3)
H31_2 H 0.2948 0.0960 0.3372
C52_2 C 0.2967(4) 0.0251(3) 0.4509(3)
C53_2 C 0.3481(3) 0.0206(2) 0.5220(2)
C54_2 C 0.43548(24) 0.09041(17) 0.52820(19)
N11_2 N 0.60255(13) 0.10830(13) 0.91038(14)
C56_2 C 0.55324(16) 0.05876(16) 0.82918(17)
C57_2 C 0.61192(16) 0.18820(16) 0.93840(17)
H35_2 H 0.5829 0.2146 0.9086
C62_2 C 0.6725(2) 0.0206(2) 0.9780(2)
C63_2 C 0.65493(17) 0.09041(17) 0.97180(19)
H12_2 H 0.0202 0.7625 0.0548
C37_2 C 0.46982(24) 0.30641(17) 0.03457(18)
C38_2 C 0.4169(3) 0.2502(2) 0.1057(2)
H23_2 H 0.4388 0.2237 0.1471
C39_2 C 0.3310(4) 0.2346(3) 0.1137(3)
H24_2 H 0.2948 0.1988 0.1628
C40_2 C 0.2967(4) 0.2716(3) 0.0491(3)
H25_2 H 0.2375 0.2577 0.0548
H38_2 H 0.7423 0.9798 0.0548
O1_2 O 0.21800(10) 0.64307(10) 0.81787(12)
C1_2 C 0.1800(2) 0.59001(11) 0.7500
C2_2 C 0.0799(2) 0.53997(11) 0.7500
C3_2 C 0.03378(16) 0.49349(16) 0.66953(17)
H1_2 H 0.0647 0.4938 0.6154
H6_2 H 0.0202 0.2577 0.4452
H7_2 H 0.0271 0.3526 0.5642
O2_2 O 0.21800(10) 0.57493(14) 0.68213(12)
C13_2 C 0.03378(16) 0.54029(23) 0.83047(17)
H8_2 H 0.0647 0.5709 0.8846
H13_2 H 0.0271 0.6745 0.9358
O3_2 O 0.35693(10) 0.57493(14) 0.81787(12)
N5_2 N 0.60255(13) 0.49425(18) 0.58962(14)
C22_2 C 0.40999(11) 0.58999(23) 0.7500
C23_2 C 0.46003(11) 0.53993(23) 0.7500
C24_2 C 0.50651(16) 0.54029(23) 0.66953(17)
H14_2 H 0.5062 0.5709 0.6154
C25_2 C 0.55324(16) 0.49448(23) 0.67082(17)
C26_2 C 0.55270(11) 0.44730(23) 0.7500
H15_2 H 0.5838 0.4162 0.7500
C27_2 C 0.61192(16) 0.42372(23) 0.56160(17)
H16_2 H 0.5829 0.3683 0.5914
C28_2 C 0.69359(17) 0.53018(24) 0.46543(18)
C29_2 C 0.7498(2) 0.5831(3) 0.3943(2)
H17_2 H 0.7763 0.5612 0.3529
C30_2 C 0.7654(3) 0.6690(4) 0.3863(3)
H18_2 H 0.8012 0.7052 0.3372
C31_2 C 0.7284(3) 0.7033(4) 0.4509(3)
H19_2 H 0.7423 0.7625 0.4452
C32_2 C 0.6725(2) 0.6519(3) 0.5220(2)
H20_2 H 0.6474 0.6745 0.5642
C33_2 C 0.65493(17) 0.56452(24) 0.52820(19)
O4_2 O 0.42507(14) 0.64307(10) 0.68213(12)
N7_2 N 0.50575(18) 0.39745(13) 0.91038(14)
C34_2 C 0.45971(23) 0.49349(16) 0.83047(17)
H21_2 H 0.4291 0.4938 0.8846
C35_2 C 0.50552(23) 0.44676(16) 0.82918(17)
C36_2 C 0.57628(23) 0.38808(16) 0.93840(17)
H22_2 H 0.6317 0.4171 0.9086
C41_2 C 0.3481(3) 0.3275(2) 0.9780(2)
H26_2 H 0.3255 0.3526 0.9358
C42_2 C 0.43548(24) 0.34507(17) 0.97180(19)
O5_2 O 0.42507(14) 0.78200(10) 0.81787(12)
C43_2 C 0.41001(23) 0.8200(2) 0.7500
C44_2 C 0.46007(23) 0.9201(2) 0.7500
C45_2 C 0.45971(23) 0.96622(16) 0.66953(17)
H27_2 H 0.4291 0.9353 0.6154
H32_2 H 0.2375 0.9798 0.4452
H33_2 H 0.3255 0.9729 0.5642
O6_2 O 0.35693(10) 0.78200(10) 0.68213(12)
C55_2 C 0.50651(16) 0.96622(16) 0.83047(17)
H34_2 H 0.5062 0.9353 0.8846
H39_2 H 0.6474 0.9729 0.9358
C16_2 C 0.83659(17) 0.53018(24) 0.03457(18)
C17_2 C 0.8333(2) 0.5831(3) 0.1057(2)
H10_2 H 0.7849 0.5612 0.1471
C18_2 C 0.9036(3) 0.6690(4) 0.1137(3)
H11_2 H 0.9040 0.7052 0.1628
C19_2 C 0.9749(3) 0.7033(4) 0.0491(3)
N1_2 N 0.89170(13) 0.39745(13) 0.58962(14)
C4_2 C 0.94124(16) 0.44676(16) 0.67082(17)
C5_2 C 0.8946(2) 0.44730(11) 0.7500
H2_2 H 0.8324 0.4162 0.7500
C6_2 C 0.81180(16) 0.38808(16) 0.56160(17)
H3_2 H 0.7854 0.4171 0.5914
C7_2 C 0.83659(17) 0.30641(17) 0.46543(18)
C8_2 C 0.8333(2) 0.2502(2) 0.3943(2)
H4_2 H 0.7849 0.2237 0.3529
C9_2 C 0.9036(3) 0.2346(3) 0.3863(3)
H5_2 H 0.9040 0.1988 0.3372
C10_2 C 0.9749(3) 0.2716(3) 0.4509(3)
C11_2 C 0.9794(2) 0.3275(2) 0.5220(2)
C12_2 C 0.90959(17) 0.34507(17) 0.52820(19)
N3_2 N 0.89170(13) 0.49425(18) 0.91038(14)
C14_2 C 0.94124(16) 0.49448(23) 0.82918(17)
C15_2 C 0.81180(16) 0.42372(23) 0.93840(17)
H9_2 H 0.7854 0.3683 0.9086
C20_2 C 0.9794(2) 0.6519(3) 0.9780(2)
C21_2 C 0.90959(17) 0.56452(24) 0.97180(19)
Cl1 Cl 0.3333 0.6667 0.2500
Cl1_2 Cl 0.6667 0.3333 0.7500
loop_
_geom_bond_atom_site_label_1
_geom_bond_atom_site_label_2
_geom_bond_site_symmetry_1
_geom_bond_site_symmetry_2
N1 C4 1_555 1_555
N2 C6 1_555 1_555
C5 C4 1_555 1_555
H2 C5 1_555 1_555
C6 N1 1_555 1_555
H3 C6 1_555 1_555
C7 N2 1_555 1_555
C8 C7 1_555 1_555
H4 C8 1_555 1_555
C9 C8 1_555 1_555
H5 C9 1_555 1_555
C10 C9 1_555 1_555
C11 C10 1_555 1_555
C12 N1 1_555 1_555
N3 C14 1_555 1_555
C14 C5 1_555 1_555
C15 N3 1_555 1_555
H9 C15 1_555 1_555
C21 N3 1_555 1_555
Mn8 N2 1_555 1_555
C7 C12 1_555 1_555
C11 C12 1_555 1_555
C20 C21 1_555 1_555
C16 N4 1_555 1_555
C17 C16 1_555 1_555
H10 C17 1_555 1_555
C18 C17 1_555 1_555
H11 C18 1_555 1_555
C19 C18 1_555 1_555
Mn5 N4 1_555 1_555
Mn1 O1 1_555 1_555
O1 C1 1_555 1_555
C1 C2 1_555 1_555
C2 C3 1_555 1_555
C3 H1 1_555 1_555
O2 C1 1_555 1_555
C13 C2 1_555 1_555
H8 C13 1_555 1_555
O3 Mn1 1_555 1_555
N5 C25 1_555 1_555
N6 C27 1_555 1_555
C22 O3 1_555 1_555
C23 C22 1_555 1_555
C24 C23 1_555 1_555
H14 C24 1_555 1_555
C25 C24 1_555 1_555
C26 C25 1_555 1_555
H15 C26 1_555 1_555
C27 N5 1_555 1_555
H16 C27 1_555 1_555
C28 N6 1_555 1_555
C29 C28 1_555 1_555
H17 C29 1_555 1_555
C30 C29 1_555 1_555
H18 C30 1_555 1_555
C31 C30 1_555 1_555
H19 C31 1_555 1_555
C32 C31 1_555 1_555
H20 C32 1_555 1_555
C33 N5 1_555 1_555
O4 C22 1_555 1_555
N7 C35 1_555 1_555
C34 C23 1_555 1_555
H21 C34 1_555 1_555
C35 C26 1_555 1_555
C36 N7 1_555 1_555
H22 C36 1_555 1_555
H26 C41 1_555 1_555
C42 N7 1_555 1_555
O5 Mn1 1_555 1_555
C43 O5 1_555 1_555
C44 C43 1_555 1_555
C45 C44 1_555 1_555
H27 C45 1_555 1_555
O6 C43 1_555 1_555
C55 C44 1_555 1_555
H34 C55 1_555 1_555
Mn2 O2 1_555 1_555
Mn8 N6 1_555 1_555
N13 Mn2 1_555 1_555
N14 Mn2 1_555 1_555
N15 Mn2 1_555 1_555
N16 Mn1 1_555 1_555
N17 Mn1 1_555 1_555
N18 Mn1 1_555 1_555
C28 C33 1_555 1_555
C32 C33 1_555 1_555
O4 Mn2 1_555 1_555
C34 C35 1_555 1_555
C41 C42 1_555 1_555
O6 Mn2 1_555 1_555
C37 N8 1_555 1_555
C38 C37 1_555 1_555
H23 C38 1_555 1_555
C39 C38 1_555 1_555
H24 C39 1_555 1_555
C40 C39 1_555 1_555
H25 C40 1_555 1_555
Mn5 N8 1_555 1_555
N9 C46 1_555 1_555
N10 C48 1_555 1_555
C47 C46 1_555 1_555
H28 C47 1_555 1_555
C48 N9 1_555 1_555
H29 C48 1_555 1_555
C49 N10 1_555 1_555
C50 C49 1_555 1_555
H30 C50 1_555 1_555
C51 C50 1_555 1_555
H31 C51 1_555 1_555
C52 C51 1_555 1_555
C53 C52 1_555 1_555
C54 N9 1_555 1_555
N11 C56 1_555 1_555
C56 C47 1_555 1_555
C57 N11 1_555 1_555
H35 C57 1_555 1_555
C63 N11 1_555 1_555
Mn8 N10 1_555 1_555
C49 C54 1_555 1_555
C53 C54 1_555 1_555
C62 C63 1_555 1_555
C58 N12 1_555 1_555
C59 C58 1_555 1_555
H36 C59 1_555 1_555
C60 C59 1_555 1_555
H37 C60 1_555 1_555
C61 C60 1_555 1_555
Mn5 N12 1_555 1_555
C58_2 N16 1_555 1_555
C59_2 C58_2 1_555 1_555
H36_2 C59_2 1_555 1_555
C60_2 C59_2 1_555 1_555
H37_2 C60_2 1_555 1_555
C61_2 C60_2 1_555 1_555
N9_2 C46_2 1_555 1_555
N15 C48_2 1_555 1_555
C47_2 C46_2 1_555 1_555
H28_2 C47_2 1_555 1_555
C48_2 N9_2 1_555 1_555
H29_2 C48_2 1_555 1_555
C49_2 N15 1_555 1_555
C50_2 C49_2 1_555 1_555
H30_2 C50_2 1_555 1_555
C51_2 C50_2 1_555 1_555
H31_2 C51_2 1_555 1_555
C52_2 C51_2 1_555 1_555
C53_2 C52_2 1_555 1_555
C54_2 N9_2 1_555 1_555
N11_2 C56_2 1_555 1_555
C56_2 C47_2 1_555 1_555
C57_2 N11_2 1_555 1_555
H35_2 C57_2 1_555 1_555
C63_2 N11_2 1_555 1_555
C49_2 C54_2 1_555 1_555
C53_2 C54_2 1_555 1_555
C62_2 C63_2 1_555 1_555
C37_2 N18 1_555 1_555
C38_2 C37_2 1_555 1_555
H23_2 C38_2 1_555 1_555
C39_2 C38_2 1_555 1_555
H24_2 C39_2 1_555 1_555
C40_2 C39_2 1_555 1_555
H25_2 C40_2 1_555 1_555
Mn5 O1_2 1_555 1_555
O1_2 C1_2 1_555 1_555
C1_2 C2_2 1_555 1_555
C2_2 C3_2 1_555 1_555
C3_2 H1_2 1_555 1_555
O2_2 C1_2 1_555 1_555
C13_2 C2_2 1_555 1_555
H8_2 C13_2 1_555 1_555
O3_2 Mn5 1_555 1_555
N5_2 C25_2 1_555 1_555
N14 C27_2 1_555 1_555
C22_2 O3_2 1_555 1_555
C23_2 C22_2 1_555 1_555
C24_2 C23_2 1_555 1_555
H14_2 C24_2 1_555 1_555
C25_2 C24_2 1_555 1_555
C26_2 C25_2 1_555 1_555
H15_2 C26_2 1_555 1_555
C27_2 N5_2 1_555 1_555
H16_2 C27_2 1_555 1_555
C28_2 N14 1_555 1_555
C29_2 C28_2 1_555 1_555
H17_2 C29_2 1_555 1_555
C30_2 C29_2 1_555 1_555
H18_2 C30_2 1_555 1_555
C31_2 C30_2 1_555 1_555
H19_2 C31_2 1_555 1_555
C32_2 C31_2 1_555 1_555
H20_2 C32_2 1_555 1_555
C33_2 N5_2 1_555 1_555
O4_2 C22_2 1_555 1_555
N7_2 C35_2 1_555 1_555
C34_2 C23_2 1_555 1_555
H21_2 C34_2 1_555 1_555
C35_2 C26_2 1_555 1_555
C36_2 N7_2 1_555 1_555
H22_2 C36_2 1_555 1_555
H26_2 C41_2 1_555 1_555
C42_2 N7_2 1_555 1_555
O5_2 Mn5 1_555 1_555
C43_2 O5_2 1_555 1_555
C44_2 C43_2 1_555 1_555
C45_2 C44_2 1_555 1_555
H27_2 C45_2 1_555 1_555
O6_2 C43_2 1_555 1_555
C55_2 C44_2 1_555 1_555
H34_2 C55_2 1_555 1_555
Mn8 O2_2 1_555 1_555
C28_2 C33_2 1_555 1_555
C32_2 C33_2 1_555 1_555
O4_2 Mn8 1_555 1_555
C34_2 C35_2 1_555 1_555
C41_2 C42_2 1_555 1_555
O6_2 Mn8 1_555 1_555
C16_2 N17 1_555 1_555
C17_2 C16_2 1_555 1_555
H10_2 C17_2 1_555 1_555
C18_2 C17_2 1_555 1_555
H11_2 C18_2 1_555 1_555
C19_2 C18_2 1_555 1_555
N1_2 C4_2 1_555 1_555
N13 C6_2 1_555 1_555
C5_2 C4_2 1_555 1_555
H2_2 C5_2 1_555 1_555
C6_2 N1_2 1_555 1_555
H3_2 C6_2 1_555 1_555
C7_2 N13 1_555 1_555
C8_2 C7_2 1_555 1_555
H4_2 C8_2 1_555 1_555
C9_2 C8_2 1_555 1_555
H5_2 C9_2 1_555 1_555
C10_2 C9_2 1_555 1_555
C11_2 C10_2 1_555 1_555
C12_2 N1_2 1_555 1_555
N3_2 C14_2 1_555 1_555
C14_2 C5_2 1_555 1_555
C15_2 N3_2 1_555 1_555
H9_2 C15_2 1_555 1_555
C21_2 N3_2 1_555 1_555
C7_2 C12_2 1_555 1_555
C11_2 C12_2 1_555 1_555
C20_2 C21_2 1_555 1_555

#END
