
###############################################################################
#
# This file contains modified crystal structure data generated from the
# MOF subset of the Cambridge Structural Database (CSD) v543 
# hosted by the Cambridge Crystallographic Data Centre (CCDC).
#
# This work is licensed under the Creative Commons
# Attribution-NonCommercial-ShareAlike 4.0 International License.
# To view a copy of this license, visit
# http://creativecommons.org/licenses/by-nc-sa/4.0/
# or send a letter to
# Creative Commons, PO Box 1866, Mountain View, CA 94042, USA.
#
# CIF created using the CSD Python API on 29 September 2022
# The structure has been converted into the P1 space group
# The structure has a 3D framework
# The original CSD entry MIGYAF is in the monoclinic crystal system
# The framework has been calculated to contain at least 10.0% void space
# The void calculation uses a probe of radius 1.32A, grid spacing 0.4
#
###############################################################################

data_MIGYAF
_chemical_formula_moiety         '(C24 H20 N6 O22 Zn11)n'
_symmetry_cell_setting           triclinic
_symmetry_space_group_name_H-M   'P 1'
_symmetry_Int_Tables_number      1
_space_group_name_Hall           'P 1'
loop_
_symmetry_equiv_pos_site_id
_symmetry_equiv_pos_as_xyz
1 x,y,z
_cell_length_a                   5.1953(11)
_cell_length_b                   17.549(4)
_cell_length_c                   9.889(2)
_cell_angle_alpha                90
_cell_angle_beta                 95.311(2)
_cell_angle_gamma                90
_cell_volume                     897.732
loop_
_atom_site_label
_atom_site_type_symbol
_atom_site_fract_x
_atom_site_fract_y
_atom_site_fract_z
Zn7 Zn -0.0000 0.0000 0.0000
Zn7_2 Zn -0.0000 0.0000 1.0000
Zn7_3 Zn -0.0000 1.0000 0.0000
Zn7_4 Zn -0.0000 1.0000 1.0000
Zn1 Zn 0.21367(10) 0.22679(3) 0.40937(5)
N1 N 0.2492(7) 0.0874(2) 0.0056(4)
O2 O 0.3873(7) 0.28946(18) 0.2717(3)
O3 O 0.6038(7) 0.31631(18) 0.0958(3)
O5 O 0.5199(7) 0.1542(2) 0.4344(4)
H1 H 0.5586 0.1270 0.3680
H2 H 0.6646 0.1643 0.4779
C1 C 0.3870(9) 0.1990(2) 0.0892(4)
C2 C 0.4615(9) 0.2729(2) 0.1565(4)
C3 C 0.2170(9) 0.1406(2) 0.1058(4)
C4 C 0.0021(9) 0.1248(2) 0.1920(4)
Zn7_5 Zn 1.0000 0.0000 0.0000
O14 O 0.1038(7) 0.18369(18) 0.5958(3)
N6 N 0.0155(7) 0.3167(2) 0.4769(3)
N2 N 0.5155(7) 0.1833(2) 0.9769(3)
O6 O 0.7842(7) 0.0637(2) 0.8204(4)
H3 H 0.8758 0.1022 0.8221
C5 C 0.4261(9) 0.1157(2) 0.9311(4)
C6 C 0.5109(10) 0.0761(3) 0.8102(5)
H4 H 0.4230 0.0274 0.7997
H5 H 0.4613 0.1063 0.7299
Zn5 Zn 0.71367(10) 0.27321(3) 0.90937(5)
Zn7_6 Zn 1.0000 0.0000 1.0000
Zn7_7 Zn 1.0000 1.0000 0.0000
O16 O 0.2158(7) 0.9363(2) 0.1796(4)
O7 O 0.1347(6) 0.93256(18) 0.8395(3)
O10 O 0.0437(6) 0.83142(18) 0.7117(3)
Zn7_8 Zn 1.0000 1.0000 1.0000
O1 O 0.8653(6) 0.06744(18) 0.1605(3)
O4 O 0.9563(6) 0.16858(18) 0.2883(3)
N4 N 0.4845(7) 0.8167(2) 0.0231(3)
H8 H 0.1242 0.8978 0.1779
C11 C 0.5739(9) 0.8843(2) 0.0689(4)
C12 C 0.4891(10) 0.9239(3) 0.1898(5)
H9 H 0.5770 0.9726 0.2003
H10 H 0.5387 0.8937 0.2701
Zn4 Zn 0.28633(10) 0.72679(3) 0.09063(5)
Zn3 Zn 0.78633(10) 0.77321(3) 0.59063(5)
N3 N 0.7508(7) 0.9126(2) 0.9944(4)
O8 O 0.6127(7) 0.71054(18) 0.7283(3)
O9 O 0.3962(7) 0.68369(18) 0.9042(3)
O11 O 0.4801(7) 0.8458(2) 0.5656(4)
H6 H 0.4414 0.8730 0.6320
H7 H 0.3354 0.8357 0.5221
C7 C 0.6130(9) 0.8010(2) 0.9108(4)
C8 C 0.5385(9) 0.7271(2) 0.8435(4)
C9 C 0.7830(9) 0.8594(2) 0.8942(4)
C10 C 0.9979(9) 0.8752(2) 0.8080(4)
O13 O 0.8962(7) 0.81631(18) 0.4042(3)
N5 N 0.9845(7) 0.6833(2) 0.5231(3)
O11_2 O 0.0199(7) 0.3458(2) 0.9344(4)
H6_2 H 0.0586 0.3730 0.8680
H7_2 H 0.1646 0.3357 0.9779
O12 O 0.2842(7) 0.4363(2) 0.3204(4)
H8_2 H 0.3758 0.3978 0.3221
C12_2 C 0.0109(10) 0.4239(3) 0.3102(5)
Zn6 Zn 0.5000 0.5000 0.5000
O1_2 O 0.6347(6) 0.56744(18) 0.3395(3)
N1_2 N 0.2508(7) 0.5874(2) 0.4944(4)
O2_2 O 0.1127(7) 0.78946(18) 0.2283(3)
O4_2 O 0.5437(6) 0.66858(18) 0.2117(3)
C1_2 C 0.1130(9) 0.6990(2) 0.4108(4)
C2_2 C 0.0385(9) 0.7729(2) 0.3435(4)
C3_2 C 0.2830(9) 0.6406(2) 0.3942(4)
C4_2 C 0.4979(9) 0.6248(2) 0.3080(4)
C5_2 C 0.0739(9) 0.6157(2) 0.5689(4)
H4_2 H 0.0770 0.5274 0.7003
H5_2 H 0.0387 0.6063 0.7701
O7_2 O 0.3653(6) 0.43256(18) 0.6605(3)
N3_2 N 0.7492(7) 0.4126(2) 0.5056(4)
O8_2 O 0.8873(7) 0.21054(18) 0.7717(3)
O10_2 O 0.4563(6) 0.33142(18) 0.7883(3)
C7_2 C 0.8870(9) 0.3010(2) 0.5892(4)
C8_2 C 0.9615(9) 0.2271(2) 0.6565(4)
C9_2 C 0.7170(9) 0.3594(2) 0.6058(4)
C10_2 C 0.5021(9) 0.3752(2) 0.6920(4)
C11_2 C 0.9261(9) 0.3843(2) 0.4311(4)
H9_2 H 0.9230 0.4726 0.2997
H10_2 H 0.9613 0.3937 0.2299
O15 O 0.7158(7) 0.5637(2) 0.6796(4)
O5_2 O 0.9801(7) 0.6542(2) 0.0656(4)
H1_2 H 0.9414 0.6270 0.1320
H2_2 H 0.8354 0.6643 0.0221
H3_2 H 0.6242 0.6022 0.6779
C6_2 C 0.9891(10) 0.5761(3) 0.6898(5)
loop_
_geom_bond_atom_site_label_1
_geom_bond_atom_site_label_2
_geom_bond_site_symmetry_1
_geom_bond_site_symmetry_2
Zn1 O2 1_555 1_555
N1 Zn7 1_555 1_555
O2 C2 1_555 1_555
O3 C2 1_555 1_555
O5 Zn1 1_555 1_555
H1 O5 1_555 1_555
H2 O5 1_555 1_555
C1 C2 1_555 1_555
C3 N1 1_555 1_555
O14 Zn1 1_555 1_555
N6 Zn1 1_555 1_555
C1 C3 1_555 1_555
C3 C4 1_555 1_555
O6 H3 1_555 1_555
C6 O6 1_555 1_555
H4 C6 1_555 1_555
H5 C6 1_555 1_555
Zn7_6 O6 1_555 1_555
N2 C5 1_555 1_555
N2 Zn5 1_555 1_555
C5 C6 1_555 1_555
O16 Zn7_3 1_555 1_555
O7 Zn7_4 1_555 1_555
Zn7_5 O1 1_555 1_555
O16 H8 1_555 1_555
C12 O16 1_555 1_555
H9 C12 1_555 1_555
H10 C12 1_555 1_555
N4 C11 1_555 1_555
N4 Zn4 1_555 1_555
C11 C12 1_555 1_555
Zn3 O8 1_555 1_555
N3 Zn7_8 1_555 1_555
O8 C8 1_555 1_555
O9 C8 1_555 1_555
O11 Zn3 1_555 1_555
H6 O11 1_555 1_555
H7 O11 1_555 1_555
C7 C8 1_555 1_555
C9 N3 1_555 1_555
O13 Zn3 1_555 1_555
N5 Zn3 1_555 1_555
C7 C9 1_555 1_555
C9 C10 1_555 1_555
H6_2 O11_2 1_555 1_555
H7_2 O11_2 1_555 1_555
O12 H8_2 1_555 1_555
C12_2 O12 1_555 1_555
Zn6 O12 1_555 1_555
Zn4 O2_2 1_555 1_555
Zn6 O1_2 1_555 1_555
O1_2 C4_2 1_555 1_555
N1_2 Zn6 1_555 1_555
O2_2 C2_2 1_555 1_555
O4_2 Zn4 1_555 1_555
C1_2 C2_2 1_555 1_555
C3_2 N1_2 1_555 1_555
C4_2 O4_2 1_555 1_555
C5_2 N1_2 1_555 1_555
Zn5 O8_2 1_555 1_555
O7_2 Zn6 1_555 1_555
N3_2 Zn6 1_555 1_555
O8_2 C8_2 1_555 1_555
O10_2 Zn5 1_555 1_555
C7_2 C8_2 1_555 1_555
C9_2 N3_2 1_555 1_555
C10_2 O7_2 1_555 1_555
C11_2 N3_2 1_555 1_555
O15 Zn6 1_555 1_555
C1_2 C3_2 1_555 1_555
C3_2 C4_2 1_555 1_555
O10_2 C10_2 1_555 1_555
C7_2 C9_2 1_555 1_555
C9_2 C10_2 1_555 1_555
H1_2 O5_2 1_555 1_555
H2_2 O5_2 1_555 1_555
O15 H3_2 1_555 1_555
C6_2 O15 1_555 1_555

#END
