
###############################################################################
#
# This file contains modified crystal structure data generated from the
# MOF subset of the Cambridge Structural Database (CSD) v543 
# hosted by the Cambridge Crystallographic Data Centre (CCDC).
#
# This work is licensed under the Creative Commons
# Attribution-NonCommercial-ShareAlike 4.0 International License.
# To view a copy of this license, visit
# http://creativecommons.org/licenses/by-nc-sa/4.0/
# or send a letter to
# Creative Commons, PO Box 1866, Mountain View, CA 94042, USA.
#
# CIF created using the CSD Python API on 29 September 2022
# The structure has been converted into the P1 space group
# The structure has a 3D framework
# The original CSD entry MIHBAG is in the monoclinic crystal system
# The framework has been calculated to contain at least 10.0% void space
# The void calculation uses a probe of radius 1.32A, grid spacing 0.4
#
###############################################################################

data_MIHBAG
_chemical_formula_moiety         '(C56 H32 Mn7 N4 O20)n'
_symmetry_cell_setting           triclinic
_symmetry_space_group_name_H-M   'P 1'
_symmetry_Int_Tables_number      1
_space_group_name_Hall           'P 1'
loop_
_symmetry_equiv_pos_site_id
_symmetry_equiv_pos_as_xyz
1 x,y,z
_cell_length_a                   11.7056(10)
_cell_length_b                   12.3216(10)
_cell_length_c                   12.7812(10)
_cell_angle_alpha                90
_cell_angle_beta                 98.154(2)
_cell_angle_gamma                90
_cell_volume                     1824.82
loop_
_atom_site_label
_atom_site_type_symbol
_atom_site_fract_x
_atom_site_fract_y
_atom_site_fract_z
C15 C 0.0639(3) 0.4997(3) 0.5006(3)
C16 C 0.1224(3) 0.5907(3) 0.4749(4)
C17 C 0.2402(3) 0.5853(3) 0.4771(4)
N2 N 0.3035(2) 0.4981(2) 0.5021(2)
C18 C 0.2459(4) 0.4113(4) 0.5261(5)
C19 C 0.1285(4) 0.4081(4) 0.5262(5)
H9 H 0.0932 0.3443 0.5435
H10 H 0.2877 0.3482 0.5441
H11 H 0.2780 0.6478 0.4597
H12 H 0.0829 0.6548 0.4563
Mn5 Mn 0.5000 0.5000 0.5000
H15 H 0.5609 0.0015 0.3689
C28 C 0.3159(4) 0.0147(4) 0.3091(4)
O10 O 0.2899(4) 0.1030(3) 0.2933(4)
Mn6 Mn 0.5000 0.0000 0.0000
Mn6_2 Mn 0.5000 0.0000 1.0000
Mn2 Mn 0.6404(1) 0.1238(1) 0.6649(1)
O1 O 0.5045(2) 0.3269(2) 0.5245(2)
C1 C 0.5067(3) 0.2561(3) 0.5976(3)
C2 C 0.5540(3) 0.2718(3) 0.7045(3)
C3 C 0.5454(3) 0.1932(3) 0.7840(3)
C4 C 0.4865(3) 0.0929(3) 0.7626(3)
C5 C 0.4618(3) 0.0686(3) 0.6515(3)
C6 C 0.4707(3) 0.1460(3) 0.5729(3)
O2 O 0.4644(2) 0.0244(2) 0.8316(2)
C7 C 0.6995(3) 0.1289(3) 0.5432(3)
O3 O 0.7329(3) 0.1342(3) 0.4634(3)
C8 C 0.7720(4) 0.1752(4) 0.7375(4)
O4 O 0.8531(3) 0.2108(4) 0.7844(3)
N1 N 0.6965(2) 0.5019(2) 0.4979(2)
C10 C 0.7598(3) 0.4147(3) 0.5229(4)
C11 C 0.8776(3) 0.4093(3) 0.5251(4)
C12 C 0.9361(3) 0.5003(3) 0.4994(3)
C13 C 0.8715(4) 0.5919(4) 0.4738(5)
C14 C 0.7541(4) 0.5887(4) 0.4739(5)
H1 H 0.5925 0.3364 0.7235
H2 H 0.5796 0.2078 0.8528
H4 H 0.4527 0.1258 0.5023
H5 H 0.7220 0.3522 0.5403
H6 H 0.9171 0.3452 0.5437
H7 H 0.9068 0.6557 0.4565
H8 H 0.7123 0.6518 0.4559
O6 O 0.4955(2) 0.6731(2) 0.4755(2)
C20 C 0.4933(3) 0.7439(3) 0.4024(3)
C21 C 0.4460(3) 0.7282(3) 0.2955(3)
C22 C 0.4546(3) 0.8068(3) 0.2160(3)
C23 C 0.5135(3) 0.9071(3) 0.2374(3)
C24 C 0.5382(3) 0.9314(3) 0.3485(3)
C25 C 0.5293(3) 0.8540(3) 0.4271(3)
O7 O 0.5356(2) 0.9756(2) 0.1684(2)
H13 H 0.4075 0.6636 0.2765
H14 H 0.4204 0.7922 0.1472
H16 H 0.5473 0.8742 0.4977
Mn3 Mn 0.3596(1) 0.8762(1) 0.3351(1)
C26 C 0.3005(3) 0.8711(3) 0.4568(3)
O8 O 0.2671(3) 0.8658(3) 0.5366(3)
C27 C 0.2280(4) 0.8248(4) 0.2625(4)
O9 O 0.1469(3) 0.7892(4) 0.2156(3)
O11 O 0.5356(2) 0.5244(2) 0.6684(2)
O12 O 0.4644(2) 0.4756(2) 0.3316(2)
Mn6_3 Mn 0.5000 1.0000 0.0000
Mn6_4 Mn 0.5000 1.0000 1.0000
C9 C 0.6841(4) 0.9853(4) 0.6909(4)
O5 O 0.7101(4) 0.8970(3) 0.7067(4)
H3 H 0.4391 0.9985 0.6311
N1_2 N 0.3035(2) 0.0019(2) 0.0021(2)
C12_2 C 0.0639(3) 0.0003(3) 0.0006(3)
C13_2 C 0.1285(4) 0.0919(4) 0.0262(5)
C14_2 C 0.2459(4) 0.0887(4) 0.0261(5)
H7_2 H 0.0932 0.1557 0.0435
H8_2 H 0.2877 0.1518 0.0441
O6_2 O 0.5045(2) 0.1731(2) 0.0245(2)
C20_2 C 0.5067(3) 0.2439(3) 0.0976(3)
C21_2 C 0.5540(3) 0.2282(3) 0.2045(3)
C22_2 C 0.5454(3) 0.3068(3) 0.2840(3)
C23_2 C 0.4865(3) 0.4071(3) 0.2626(3)
C24_2 C 0.4618(3) 0.4314(3) 0.1515(3)
C25_2 C 0.4707(3) 0.3540(3) 0.0729(3)
H13_2 H 0.5925 0.1636 0.2235
H14_2 H 0.5796 0.2922 0.3528
H15_2 H 0.4391 0.5015 0.1311
H16_2 H 0.4527 0.3742 0.0023
Mn3_2 Mn 0.6404(1) 0.3762(1) 0.1649(1)
C26_2 C 0.6995(3) 0.3711(3) 0.0432(3)
C27_2 C 0.7720(4) 0.3248(4) 0.2375(4)
O9_2 O 0.8531(3) 0.2892(4) 0.2844(3)
C28_2 C 0.6841(4) 0.5147(4) 0.1909(4)
O10_2 O 0.7101(4) 0.6030(3) 0.2067(4)
O8_2 O 0.7329(3) 0.3658(3) 0.9634(3)
O3_2 O 0.2671(3) 0.6342(3) 0.0366(3)
Mn2_2 Mn 0.3596(1) 0.6238(1) 0.8351(1)
O1_2 O 0.4955(2) 0.8269(2) 0.9755(2)
C1_2 C 0.4933(3) 0.7561(3) 0.9024(3)
C2_2 C 0.4460(3) 0.7718(3) 0.7955(3)
C3_2 C 0.4546(3) 0.6932(3) 0.7160(3)
C4_2 C 0.5135(3) 0.5929(3) 0.7374(3)
C5_2 C 0.5382(3) 0.5686(3) 0.8485(3)
C6_2 C 0.5293(3) 0.6460(3) 0.9271(3)
C7_2 C 0.3005(3) 0.6289(3) 0.9568(3)
C8_2 C 0.2280(4) 0.6752(4) 0.7625(4)
O4_2 O 0.1469(3) 0.7108(4) 0.7156(3)
C9_2 C 0.3159(4) 0.4853(4) 0.8091(4)
O5_2 O 0.2899(4) 0.3970(3) 0.7933(4)
C10_2 C 0.2402(3) 0.9147(3) 0.9771(4)
C11_2 C 0.1224(3) 0.9093(3) 0.9749(4)
H1_2 H 0.4075 0.8364 0.7765
H2_2 H 0.4204 0.7078 0.6472
H3_2 H 0.5609 0.4985 0.8689
H4_2 H 0.5473 0.6258 0.9977
H5_2 H 0.2780 0.8522 0.9597
H6_2 H 0.0829 0.8452 0.9563
N3 N 0.6965(2) 0.9981(2) 0.9979(2)
C16_2 C 0.8776(3) 0.0907(3) 0.0251(4)
C17_2 C 0.7598(3) 0.0853(3) 0.0229(4)
H11_2 H 0.7220 0.1478 0.0403
H12_2 H 0.9171 0.1548 0.0437
C15_2 C 0.9361(3) 0.9997(3) 0.9994(3)
C18_2 C 0.7541(4) 0.9113(4) 0.9739(5)
C19_2 C 0.8715(4) 0.9081(4) 0.9738(5)
H9_2 H 0.9068 0.8443 0.9565
H10_2 H 0.7123 0.8482 0.9559
loop_
_geom_bond_atom_site_label_1
_geom_bond_atom_site_label_2
_geom_bond_site_symmetry_1
_geom_bond_site_symmetry_2
C16 C15 1_555 1_555
C17 C16 1_555 1_555
N2 C17 1_555 1_555
C18 N2 1_555 1_555
C19 C15 1_555 1_555
H9 C19 1_555 1_555
H10 C18 1_555 1_555
H11 C17 1_555 1_555
H12 C16 1_555 1_555
Mn5 N2 1_555 1_555
C18 C19 1_555 1_555
O10 C28 1_555 1_555
Mn5 O1 1_555 1_555
Mn2 C1 1_555 1_555
O1 C1 1_555 1_555
C1 C2 1_555 1_555
C2 Mn2 1_555 1_555
C3 Mn2 1_555 1_555
C4 Mn2 1_555 1_555
C5 Mn2 1_555 1_555
C6 Mn2 1_555 1_555
O2 C4 1_555 1_555
C7 Mn2 1_555 1_555
O3 C7 1_555 1_555
C8 Mn2 1_555 1_555
O4 C8 1_555 1_555
N1 Mn5 1_555 1_555
C10 N1 1_555 1_555
C11 C10 1_555 1_555
C12 C11 1_555 1_555
C13 C12 1_555 1_555
C14 N1 1_555 1_555
H1 C2 1_555 1_555
H2 C3 1_555 1_555
H4 C6 1_555 1_555
H5 C10 1_555 1_555
H6 C11 1_555 1_555
H7 C13 1_555 1_555
H8 C14 1_555 1_555
O6 Mn5 1_555 1_555
C20 O6 1_555 1_555
C21 C20 1_555 1_555
C22 C21 1_555 1_555
C23 C22 1_555 1_555
C24 C23 1_555 1_555
C25 C20 1_555 1_555
O7 C23 1_555 1_555
H13 C21 1_555 1_555
H14 C22 1_555 1_555
H16 C25 1_555 1_555
Mn3 C20 1_555 1_555
C26 Mn3 1_555 1_555
O8 C26 1_555 1_555
C27 Mn3 1_555 1_555
O9 C27 1_555 1_555
O11 Mn5 1_555 1_555
O12 Mn5 1_555 1_555
Mn6_2 O2 1_555 1_555
Mn6_3 O7 1_555 1_555
C1 C6 1_555 1_555
C2 C3 1_555 1_555
C3 C4 1_555 1_555
C4 C5 1_555 1_555
C5 C6 1_555 1_555
C13 C14 1_555 1_555
C21 Mn3 1_555 1_555
C22 Mn3 1_555 1_555
C23 Mn3 1_555 1_555
C24 Mn3 1_555 1_555
C24 C25 1_555 1_555
C25 Mn3 1_555 1_555
O5 C9 1_555 1_555
N1_2 Mn6 1_555 1_555
C13_2 C12_2 1_555 1_555
C14_2 N1_2 1_555 1_555
H7_2 C13_2 1_555 1_555
H8_2 C14_2 1_555 1_555
O6_2 Mn6 1_555 1_555
C20_2 O6_2 1_555 1_555
C21_2 C20_2 1_555 1_555
C22_2 C21_2 1_555 1_555
C23_2 C22_2 1_555 1_555
C24_2 C23_2 1_555 1_555
C25_2 C20_2 1_555 1_555
O12 C23_2 1_555 1_555
H13_2 C21_2 1_555 1_555
H14_2 C22_2 1_555 1_555
H15_2 C24_2 1_555 1_555
H16_2 C25_2 1_555 1_555
Mn3_2 C20_2 1_555 1_555
C26_2 Mn3_2 1_555 1_555
C27_2 Mn3_2 1_555 1_555
O9_2 C27_2 1_555 1_555
C28_2 Mn3_2 1_555 1_555
O10_2 C28_2 1_555 1_555
C13_2 C14_2 1_555 1_555
C21_2 Mn3_2 1_555 1_555
C22_2 Mn3_2 1_555 1_555
C23_2 Mn3_2 1_555 1_555
C24_2 Mn3_2 1_555 1_555
C24_2 C25_2 1_555 1_555
C25_2 Mn3_2 1_555 1_555
Mn6_4 O1_2 1_555 1_555
Mn2_2 C1_2 1_555 1_555
O1_2 C1_2 1_555 1_555
C1_2 C2_2 1_555 1_555
C2_2 Mn2_2 1_555 1_555
C3_2 Mn2_2 1_555 1_555
C4_2 Mn2_2 1_555 1_555
C5_2 Mn2_2 1_555 1_555
C6_2 Mn2_2 1_555 1_555
O11 C4_2 1_555 1_555
C7_2 Mn2_2 1_555 1_555
C8_2 Mn2_2 1_555 1_555
O4_2 C8_2 1_555 1_555
C9_2 Mn2_2 1_555 1_555
O5_2 C9_2 1_555 1_555
C11_2 C10_2 1_555 1_555
H1_2 C2_2 1_555 1_555
H2_2 C3_2 1_555 1_555
H3_2 C5_2 1_555 1_555
H4_2 C6_2 1_555 1_555
H5_2 C10_2 1_555 1_555
H6_2 C11_2 1_555 1_555
N3 Mn6_4 1_555 1_555
C1_2 C6_2 1_555 1_555
C2_2 C3_2 1_555 1_555
C3_2 C4_2 1_555 1_555
C4_2 C5_2 1_555 1_555
C5_2 C6_2 1_555 1_555
C17_2 C16_2 1_555 1_555
H11_2 C17_2 1_555 1_555
H12_2 C16_2 1_555 1_555
C18_2 N3 1_555 1_555
C19_2 C15_2 1_555 1_555
H9_2 C19_2 1_555 1_555
H10_2 C18_2 1_555 1_555
C18_2 C19_2 1_555 1_555

#END
