
###############################################################################
#
# This file contains modified crystal structure data generated from the
# MOF subset of the Cambridge Structural Database (CSD) v543 
# hosted by the Cambridge Crystallographic Data Centre (CCDC).
#
# This work is licensed under the Creative Commons
# Attribution-NonCommercial-ShareAlike 4.0 International License.
# To view a copy of this license, visit
# http://creativecommons.org/licenses/by-nc-sa/4.0/
# or send a letter to
# Creative Commons, PO Box 1866, Mountain View, CA 94042, USA.
#
# CIF created using the CSD Python API on 29 September 2022
# The structure has been converted into the P1 space group
# The structure has a 3D framework
# The original CSD entry MIHWAE is in the rhombohedral crystal system
# The framework has been calculated to contain at least 10.0% void space
# The void calculation uses a probe of radius 1.32A, grid spacing 0.4
#
###############################################################################

data_MIHWAE
_chemical_formula_moiety         '(C72 H18 Fe5 O54)n'
_symmetry_cell_setting           triclinic
_symmetry_space_group_name_H-M   'P 1'
_symmetry_Int_Tables_number      1
_space_group_name_Hall           'P 1'
loop_
_symmetry_equiv_pos_site_id
_symmetry_equiv_pos_as_xyz
1 x,y,z
_cell_length_a                   26.1259(15)
_cell_length_b                   26.1259
_cell_length_c                   6.8649(5)
_cell_angle_alpha                90
_cell_angle_beta                 90
_cell_angle_gamma                120
_cell_volume                     4057.96
loop_
_atom_site_label
_atom_site_type_symbol
_atom_site_fract_x
_atom_site_fract_y
_atom_site_fract_z
_atom_site_U_iso_or_equiv
_atom_site_thermal_displace_type
Fe1 Fe 0.3844(4) 0.3526(5) 0.1411(11) 0.0255 Uiso
O1 O 0.3278(6) 0.2951(6) 0.3667(22) 0.0386 Uiso
O2 O 0.3000(7) 0.2244(7) 0.6004(21) 0.0494 Uiso
O3 O 0.3569(6) 0.2754(6) 0.0085(19) 0.0285 Uiso
C1 C 0.3191(6) 0.2452(6) 0.4211(20) 0.0527 Uiso
C2 C 0.3302(7) 0.2053(6) 0.2916(20) 0.0497 Uiso
C3 C 0.3430(6) 0.2222(6) 0.0870(17) 0.0289 Uiso
O6 O 0.3098(6) 0.0579(6) 0.3248(19) 0.0285 Uiso
C6 C 0.3365(7) 0.1280(6) 0.0417(20) 0.0497 Uiso
C7 C 0.3237(6) 0.1111(6) 0.2463(17) 0.0289 Uiso
C8 C 0.3160(6) 0.1527(6) 0.3606(16) 0.0305 Uiso
H2 H 0.3058(10) 0.1440(10) 0.502(4) 0.0366 Uiso
Fe4 Fe 0.3015(6) 0.2823(4) 0.8078(11) 0.0255 Uiso
Fe6 Fe 0.3141(5) 0.3651(6) 0.4744(11) 0.0255 Uiso
Fe8 Fe 0.3651(6) 0.0511(4) 0.5256(11) 0.0255 Uiso
O8 O 0.3006(8) 0.3389(6) 0.0334(22) 0.0386 Uiso
O12 O 0.3913(6) 0.4148(8) 0.3418(19) 0.0285 Uiso
C4 C 0.3507(6) 0.1806(6) 0.9727(16) 0.0305 Uiso
H1 H 0.3609(10) 0.1893(10) 0.831(4) 0.0366 Uiso
O4 O 0.3389(6) 0.0382(6) 0.9666(22) 0.0386 Uiso
O5 O 0.3667(7) 0.1089(7) 0.7329(21) 0.0494 Uiso
C5 C 0.3476(6) 0.0881(6) 0.9122(20) 0.0527 Uiso
O9 O 0.4423(7) 0.4089(10) 0.9337(21) 0.0494 Uiso
O13 O 0.4148(8) 0.0236(6) 0.6582(19) 0.0285 Uiso
Fe5 Fe 0.2823(4) 0.9807(5) 0.1922(11) 0.0255 Uiso
O10 O 0.4089(10) 0.9667(7) 0.0663(21) 0.0494 Uiso
Fe2 Fe 0.3526(5) 0.9682(6) 0.8589(11) 0.0255 Uiso
O7 O 0.2951(6) 0.9673(8) 0.6333(22) 0.0386 Uiso
O11 O 0.2754(6) 0.9185(8) 0.9915(19) 0.0285 Uiso
Fe5_2 Fe 0.0193(5) 0.3015(6) 0.1922(11) 0.0255 Uiso
O10_2 O 0.0333(7) 0.4423(12) 0.0663(21) 0.0494 Uiso
Fe2_2 Fe 0.0318(6) 0.3844(8) 0.8589(11) 0.0255 Uiso
O7_2 O 0.0327(8) 0.3278(10) 0.6333(22) 0.0386 Uiso
O11_2 O 0.0815(8) 0.3569(10) 0.9915(19) 0.0285 Uiso
Fe1_2 Fe 0.6474(5) 0.0318(6) 0.1411(11) 0.0255 Uiso
O1_2 O 0.7049(6) 0.0327(8) 0.3667(22) 0.0386 Uiso
O2_2 O 0.7756(7) 0.0756(10) 0.6004(21) 0.0494 Uiso
O3_2 O 0.7246(6) 0.0815(8) 0.0085(19) 0.0285 Uiso
C1_2 C 0.7548(6) 0.0739(8) 0.4211(20) 0.0527 Uiso
C2_2 C 0.7947(6) 0.1249(9) 0.2916(20) 0.0497 Uiso
C3_2 C 0.7778(6) 0.1208(8) 0.0870(17) 0.0289 Uiso
O6_2 O 0.9421(6) 0.2518(8) 0.3248(19) 0.0285 Uiso
C6_2 C 0.8720(6) 0.2084(9) 0.0417(20) 0.0497 Uiso
C7_2 C 0.8889(6) 0.2125(8) 0.2463(17) 0.0289 Uiso
C8_2 C 0.8473(6) 0.1632(8) 0.3606(16) 0.0305 Uiso
H2_2 H 0.8560(10) 0.1617(14) 0.502(4) 0.0366 Uiso
Fe4_2 Fe 0.7177(4) 0.0193(7) 0.8078(11) 0.0255 Uiso
Fe8_2 Fe 0.9489(4) 0.3141(7) 0.5256(11) 0.0255 Uiso
C4_2 C 0.8194(6) 0.1701(8) 0.9727(16) 0.0305 Uiso
H1_2 H 0.8107(10) 0.1716(14) 0.831(4) 0.0366 Uiso
O4_2 O 0.9618(6) 0.3006(8) 0.9666(22) 0.0386 Uiso
O5_2 O 0.8911(7) 0.2577(10) 0.7329(21) 0.0494 Uiso
C5_2 C 0.9119(6) 0.2594(8) 0.9122(20) 0.0527 Uiso
O9_2 O 0.5911(10) 0.0333(12) 0.9337(21) 0.0494 Uiso
O13_2 O 0.9764(6) 0.3913(10) 0.6582(19) 0.0285 Uiso
Fe6_2 Fe 0.6349(6) 0.9489(8) 0.4744(11) 0.0255 Uiso
O8_2 O 0.6611(6) 0.9618(10) 0.0334(22) 0.0386 Uiso
O12_2 O 0.5852(8) 0.9764(10) 0.3418(19) 0.0285 Uiso
Fe6_3 Fe 0.0511(8) 0.6859(5) 0.4744(11) 0.0255 Uiso
O8_3 O 0.0382(10) 0.6994(8) 0.0334(22) 0.0386 Uiso
O12_3 O 0.0236(10) 0.6087(6) 0.3418(19) 0.0285 Uiso
Fe1_3 Fe 0.9682(6) 0.6156(4) 0.1411(11) 0.0255 Uiso
O1_3 O 0.9673(8) 0.6722(6) 0.3667(22) 0.0386 Uiso
O2_3 O 0.9244(10) 0.7000(7) 0.6004(21) 0.0494 Uiso
O3_3 O 0.9185(8) 0.6431(6) 0.0085(19) 0.0285 Uiso
C1_3 C 0.9261(8) 0.6809(6) 0.4211(20) 0.0527 Uiso
C2_3 C 0.8751(9) 0.6698(7) 0.2916(20) 0.0497 Uiso
C3_3 C 0.8792(8) 0.6570(6) 0.0870(17) 0.0289 Uiso
O6_3 O 0.7482(8) 0.6902(6) 0.3248(19) 0.0285 Uiso
C6_3 C 0.7916(9) 0.6635(7) 0.0417(20) 0.0497 Uiso
C7_3 C 0.7875(8) 0.6763(6) 0.2463(17) 0.0289 Uiso
C8_3 C 0.8368(8) 0.6840(6) 0.3606(16) 0.0305 Uiso
H2_3 H 0.8383(14) 0.6942(10) 0.502(4) 0.0366 Uiso
Fe4_3 Fe 0.9807(7) 0.6985(6) 0.8078(11) 0.0255 Uiso
Fe5_3 Fe 0.6985(6) 0.7177(4) 0.1922(11) 0.0255 Uiso
Fe8_3 Fe 0.6859(7) 0.6349(6) 0.5256(11) 0.0255 Uiso
O10_3 O 0.5577(12) 0.5911(10) 0.0663(21) 0.0494 Uiso
C4_3 C 0.8299(8) 0.6493(6) 0.9727(16) 0.0305 Uiso
H1_3 H 0.8284(14) 0.6391(10) 0.831(4) 0.0366 Uiso
O4_3 O 0.6994(8) 0.6611(6) 0.9666(22) 0.0386 Uiso
O5_3 O 0.7423(10) 0.6333(7) 0.7329(21) 0.0494 Uiso
C5_3 C 0.7406(8) 0.6524(6) 0.9122(20) 0.0527 Uiso
Fe2_3 Fe 0.6156(8) 0.6474(5) 0.8589(11) 0.0255 Uiso
O7_3 O 0.6722(10) 0.7049(6) 0.6333(22) 0.0386 Uiso
O9_3 O 0.9667(12) 0.5577(7) 0.9337(21) 0.0494 Uiso
O11_3 O 0.6431(10) 0.7246(6) 0.9915(19) 0.0285 Uiso
O13_3 O 0.6087(10) 0.5852(8) 0.6582(19) 0.0285 Uiso
O8_4 O 0.6340(8) 0.0055(6) 0.7000(22) 0.0386 Uiso
O2_4 O 0.6333(7) 0.8911(7) 0.2671(21) 0.0494 Uiso
C1_4 C 0.6524(6) 0.9119(6) 0.0878(20) 0.0527 Uiso
C8_4 C 0.6493(6) 0.8194(6) 0.0273(16) 0.0305 Uiso
H2_4 H 0.6391(10) 0.8107(10) 0.169(4) 0.0366 Uiso
O3_4 O 0.6902(6) 0.9421(6) 0.6752(19) 0.0285 Uiso
C2_4 C 0.6635(7) 0.8720(6) 0.9583(20) 0.0497 Uiso
C3_4 C 0.6763(6) 0.8889(6) 0.7537(17) 0.0289 Uiso
C4_4 C 0.6840(6) 0.8473(6) 0.6394(16) 0.0305 Uiso
H1_4 H 0.6942(10) 0.8560(10) 0.498(4) 0.0366 Uiso
O5_4 O 0.7000(7) 0.7756(7) 0.3996(21) 0.0494 Uiso
C5_4 C 0.6809(6) 0.7548(6) 0.5789(20) 0.0527 Uiso
C6_4 C 0.6698(7) 0.7947(6) 0.7084(20) 0.0497 Uiso
C7_4 C 0.6570(6) 0.7778(6) 0.9130(17) 0.0289 Uiso
O7_4 O 0.6284(6) 0.6340(8) 0.3000(22) 0.0386 Uiso
O2_5 O 0.1089(7) 0.7423(10) 0.2671(21) 0.0494 Uiso
C1_5 C 0.0881(6) 0.7406(8) 0.0878(20) 0.0527 Uiso
C8_5 C 0.1806(6) 0.8299(8) 0.0273(16) 0.0305 Uiso
H2_5 H 0.1893(10) 0.8284(14) 0.169(4) 0.0366 Uiso
O3_5 O 0.0579(6) 0.7482(8) 0.6752(19) 0.0285 Uiso
C2_5 C 0.1280(6) 0.7916(9) 0.9583(20) 0.0497 Uiso
C3_5 C 0.1111(6) 0.7875(8) 0.7537(17) 0.0289 Uiso
C4_5 C 0.1527(6) 0.8368(8) 0.6394(16) 0.0305 Uiso
H1_5 H 0.1440(10) 0.8383(14) 0.498(4) 0.0366 Uiso
O5_5 O 0.2244(7) 0.9244(10) 0.3996(21) 0.0494 Uiso
C5_5 C 0.2452(6) 0.9261(8) 0.5789(20) 0.0527 Uiso
C6_5 C 0.2053(6) 0.8751(9) 0.7084(20) 0.0497 Uiso
C7_5 C 0.2222(6) 0.8792(8) 0.9130(17) 0.0289 Uiso
O7_5 O 0.3660(8) 0.9945(10) 0.3000(22) 0.0386 Uiso
O8_5 O 0.9945(6) 0.6284(10) 0.7000(22) 0.0386 Uiso
O2_6 O 0.2577(10) 0.3667(7) 0.2671(21) 0.0494 Uiso
C1_6 C 0.2594(8) 0.3476(6) 0.0878(20) 0.0527 Uiso
C8_6 C 0.1701(8) 0.3507(6) 0.0273(16) 0.0305 Uiso
H2_6 H 0.1716(14) 0.3609(10) 0.169(4) 0.0366 Uiso
O3_6 O 0.2518(8) 0.3098(6) 0.6752(19) 0.0285 Uiso
C2_6 C 0.2084(9) 0.3365(7) 0.9583(20) 0.0497 Uiso
C3_6 C 0.2125(8) 0.3237(6) 0.7537(17) 0.0289 Uiso
C4_6 C 0.1632(8) 0.3160(6) 0.6394(16) 0.0305 Uiso
H1_6 H 0.1617(14) 0.3058(10) 0.498(4) 0.0366 Uiso
O5_6 O 0.0756(10) 0.3000(7) 0.3996(21) 0.0494 Uiso
C5_6 C 0.0739(8) 0.3191(6) 0.5789(20) 0.0527 Uiso
C6_6 C 0.1249(9) 0.3302(7) 0.7084(20) 0.0497 Uiso
C7_6 C 0.1208(8) 0.3430(6) 0.9130(17) 0.0289 Uiso
O7_6 O 0.0055(10) 0.3716(6) 0.3000(22) 0.0386 Uiso
O8_6 O 0.3716(10) 0.3660(8) 0.7000(22) 0.0386 Uiso
C3_7 C 0.0097(6) 0.5555(6) 0.4203(17) 0.0289 Uiso
C4_7 C 0.0174(6) 0.5139(6) 0.3060(16) 0.0305 Uiso
H1_7 H 0.0276(10) 0.5226(10) 0.164(4) 0.0366 Uiso
C5_7 C 0.0142(6) 0.4215(6) 0.2456(20) 0.0527 Uiso
C6_7 C 0.0031(7) 0.4614(6) 0.3751(20) 0.0497 Uiso
C1_7 C 0.9858(6) 0.5785(6) 0.7544(20) 0.0527 Uiso
C2_7 C 0.9969(7) 0.5386(6) 0.6249(20) 0.0497 Uiso
C7_7 C 0.9903(6) 0.4445(6) 0.5797(17) 0.0289 Uiso
C8_7 C 0.9826(6) 0.4861(6) 0.6940(16) 0.0305 Uiso
H2_7 H 0.9724(10) 0.4774(10) 0.836(4) 0.0366 Uiso
C1_8 C 0.4215(6) 0.4072(8) 0.7544(20) 0.0527 Uiso
C2_8 C 0.4614(6) 0.4582(9) 0.6249(20) 0.0497 Uiso
C3_8 C 0.4445(6) 0.4541(8) 0.4203(17) 0.0289 Uiso
C4_8 C 0.4861(6) 0.5034(8) 0.3060(16) 0.0305 Uiso
H1_8 H 0.4774(10) 0.5049(14) 0.164(4) 0.0366 Uiso
C5_8 C 0.5785(6) 0.5928(8) 0.2456(20) 0.0527 Uiso
C6_8 C 0.5386(6) 0.5418(9) 0.3751(20) 0.0497 Uiso
C7_8 C 0.5555(6) 0.5459(8) 0.5797(17) 0.0289 Uiso
C8_8 C 0.5139(6) 0.4966(8) 0.6940(16) 0.0305 Uiso
H2_8 H 0.5226(10) 0.4951(14) 0.836(4) 0.0366 Uiso
C1_9 C 0.5928(8) 0.0142(6) 0.7544(20) 0.0527 Uiso
C2_9 C 0.5418(9) 0.0031(7) 0.6249(20) 0.0497 Uiso
C7_9 C 0.4541(8) 0.0097(6) 0.5797(17) 0.0289 Uiso
C8_9 C 0.5034(8) 0.0174(6) 0.6940(16) 0.0305 Uiso
H2_9 H 0.5049(14) 0.0276(10) 0.836(4) 0.0366 Uiso
C3_9 C 0.5459(8) 0.9903(6) 0.4203(17) 0.0289 Uiso
C4_9 C 0.4966(8) 0.9826(6) 0.3060(16) 0.0305 Uiso
H1_9 H 0.4951(14) 0.9724(10) 0.164(4) 0.0366 Uiso
C5_9 C 0.4072(8) 0.9858(6) 0.2456(20) 0.0527 Uiso
C6_9 C 0.4582(9) 0.9969(7) 0.3751(20) 0.0497 Uiso
loop_
_geom_bond_atom_site_label_1
_geom_bond_atom_site_label_2
_geom_bond_site_symmetry_1
_geom_bond_site_symmetry_2
Fe1 O1 1_555 1_555
O1 C1 1_555 1_555
O2 C1 1_555 1_555
O3 Fe1 1_555 1_555
C1 C2 1_555 1_555
C2 C3 1_555 1_555
C3 O3 1_555 1_555
O6 C7 1_555 1_555
C7 C6 1_555 1_555
C8 C2 1_555 1_555
H2 C8 1_555 1_555
Fe4 O2 1_555 1_555
Fe6 O1 1_555 1_555
Fe8 O6 1_555 1_555
O8 Fe1 1_555 1_555
O12 Fe1 1_555 1_555
C7 C8 1_555 1_555
Fe6 O12 1_555 1_555
H1 C4 1_555 1_555
O4 C5 1_555 1_555
O5 C5 1_555 1_555
Fe8 O5 1_555 1_555
Fe8 O13 1_555 1_555
O7 Fe2 1_555 1_555
O11 Fe2 1_555 1_555
O7_2 Fe2_2 1_555 1_555
O11_2 Fe2_2 1_555 1_555
Fe1_2 O1_2 1_555 1_555
O1_2 C1_2 1_555 1_555
O2_2 C1_2 1_555 1_555
O3_2 Fe1_2 1_555 1_555
C1_2 C2_2 1_555 1_555
C2_2 C3_2 1_555 1_555
C3_2 O3_2 1_555 1_555
O6_2 C7_2 1_555 1_555
C7_2 C6_2 1_555 1_555
C8_2 C2_2 1_555 1_555
H2_2 C8_2 1_555 1_555
Fe4_2 O2_2 1_555 1_555
Fe8_2 O6_2 1_555 1_555
C7_2 C8_2 1_555 1_555
H1_2 C4_2 1_555 1_555
O4_2 C5_2 1_555 1_555
O5_2 C5_2 1_555 1_555
Fe8_2 O5_2 1_555 1_555
Fe8_2 O13_2 1_555 1_555
Fe6_2 O12_2 1_555 1_555
Fe6_3 O12_3 1_555 1_555
Fe1_3 O1_3 1_555 1_555
O1_3 C1_3 1_555 1_555
O2_3 C1_3 1_555 1_555
O3_3 Fe1_3 1_555 1_555
C1_3 C2_3 1_555 1_555
C2_3 C3_3 1_555 1_555
C3_3 O3_3 1_555 1_555
O6_3 C7_3 1_555 1_555
C7_3 C6_3 1_555 1_555
C8_3 C2_3 1_555 1_555
H2_3 C8_3 1_555 1_555
Fe4_3 O2_3 1_555 1_555
Fe8_3 O6_3 1_555 1_555
O6_3 Fe5_3 1_555 1_555
C7_3 C8_3 1_555 1_555
H1_3 C4_3 1_555 1_555
O4_3 C5_3 1_555 1_555
O5_3 C5_3 1_555 1_555
Fe2_3 O4_3 1_555 1_555
Fe8_3 O5_3 1_555 1_555
O7_3 Fe2_3 1_555 1_555
O11_3 Fe2_3 1_555 1_555
O13_3 Fe2_3 1_555 1_555
Fe8_3 O7_3 1_555 1_555
Fe8_3 O13_3 1_555 1_555
O8_4 Fe4_2 1_555 1_555
O8_2 C1_4 1_555 1_555
O2_4 C1_4 1_555 1_555
H2_4 C8_4 1_555 1_555
Fe6_2 O2_4 1_555 1_555
C2_4 C3_4 1_555 1_555
C3_4 O3_4 1_555 1_555
C4_4 C3_4 1_555 1_555
H1_4 C4_4 1_555 1_555
O7_3 C5_4 1_555 1_555
O5_4 C5_4 1_555 1_555
O11_3 C7_4 1_555 1_555
C5_4 C6_4 1_555 1_555
C6_4 C4_4 1_555 1_555
C7_4 C6_4 1_555 1_555
Fe6_2 O3_4 1_555 1_555
Fe5_3 O5_4 1_555 1_555
O7_4 Fe8_3 1_555 1_555
Fe5_3 O7_4 1_555 1_555
O8_3 C1_5 1_555 1_555
O2_5 C1_5 1_555 1_555
H2_5 C8_5 1_555 1_555
Fe6_3 O2_5 1_555 1_555
C2_5 C3_5 1_555 1_555
C3_5 O3_5 1_555 1_555
C4_5 C3_5 1_555 1_555
H1_5 C4_5 1_555 1_555
O7 C5_5 1_555 1_555
O5_5 C5_5 1_555 1_555
O11 C7_5 1_555 1_555
C5_5 C6_5 1_555 1_555
C6_5 C4_5 1_555 1_555
C7_5 C6_5 1_555 1_555
Fe6_3 O3_5 1_555 1_555
Fe5 O5_5 1_555 1_555
Fe5 O7_5 1_555 1_555
O8_5 Fe4_3 1_555 1_555
O8 C1_6 1_555 1_555
O2_6 C1_6 1_555 1_555
H2_6 C8_6 1_555 1_555
Fe6 O2_6 1_555 1_555
O3_6 Fe4 1_555 1_555
C2_6 C3_6 1_555 1_555
C3_6 O3_6 1_555 1_555
C4_6 C3_6 1_555 1_555
H1_6 C4_6 1_555 1_555
O7_2 C5_6 1_555 1_555
O5_6 C5_6 1_555 1_555
O11_2 C7_6 1_555 1_555
C5_6 C6_6 1_555 1_555
C6_6 C4_6 1_555 1_555
C7_6 C6_6 1_555 1_555
Fe6 O3_6 1_555 1_555
Fe5_2 O5_6 1_555 1_555
O8_6 Fe4 1_555 1_555
Fe6 O8_6 1_555 1_555
Fe5_2 O7_6 1_555 1_555
C3_7 O12_3 1_555 1_555
C4_7 C3_7 1_555 1_555
H1_7 C4_7 1_555 1_555
O7_6 C5_7 1_555 1_555
O10_2 C5_7 1_555 1_555
C5_7 C6_7 1_555 1_555
C6_7 C4_7 1_555 1_555
O8_5 C1_7 1_555 1_555
O9_3 C1_7 1_555 1_555
C1_7 C2_7 1_555 1_555
O13_2 C7_7 1_555 1_555
C8_7 C2_7 1_555 1_555
H2_7 C8_7 1_555 1_555
C7_7 C8_7 1_555 1_555
O8_6 C1_8 1_555 1_555
O9 C1_8 1_555 1_555
C1_8 C2_8 1_555 1_555
C2_8 C3_8 1_555 1_555
C3_8 O12 1_555 1_555
C4_8 C3_8 1_555 1_555
H1_8 C4_8 1_555 1_555
O7_4 C5_8 1_555 1_555
O10_3 C5_8 1_555 1_555
O13_3 C7_8 1_555 1_555
C5_8 C6_8 1_555 1_555
C6_8 C4_8 1_555 1_555
C7_8 C6_8 1_555 1_555
C8_8 C2_8 1_555 1_555
H2_8 C8_8 1_555 1_555
C7_8 C8_8 1_555 1_555
O8_4 C1_9 1_555 1_555
O9_2 C1_9 1_555 1_555
C1_9 C2_9 1_555 1_555
O13 C7_9 1_555 1_555
C8_9 C2_9 1_555 1_555
H2_9 C8_9 1_555 1_555
C7_9 C8_9 1_555 1_555
C3_9 O12_2 1_555 1_555
C4_9 C3_9 1_555 1_555
H1_9 C4_9 1_555 1_555
O7_5 C5_9 1_555 1_555
O10 C5_9 1_555 1_555
C5_9 C6_9 1_555 1_555
C6_9 C4_9 1_555 1_555

#END
