
###############################################################################
#
# This file contains modified crystal structure data generated from the
# MOF subset of the Cambridge Structural Database (CSD) v543 
# hosted by the Cambridge Crystallographic Data Centre (CCDC).
#
# This work is licensed under the Creative Commons
# Attribution-NonCommercial-ShareAlike 4.0 International License.
# To view a copy of this license, visit
# http://creativecommons.org/licenses/by-nc-sa/4.0/
# or send a letter to
# Creative Commons, PO Box 1866, Mountain View, CA 94042, USA.
#
# CIF created using the CSD Python API on 29 September 2022
# The structure has been converted into the P1 space group
# The structure has a 3D framework
# The original CSD entry MIKHUL is in the triclinic crystal system
# The framework has been calculated to contain at least 10.0% void space
# The void calculation uses a probe of radius 1.32A, grid spacing 0.4
#
###############################################################################

data_MIKHUL
_chemical_formula_moiety         '(C68 H56 Cu2 N8 O18)n'
_symmetry_cell_setting           triclinic
_symmetry_space_group_name_H-M   'P 1'
_symmetry_Int_Tables_number      1
_space_group_name_Hall           'P 1'
loop_
_symmetry_equiv_pos_site_id
_symmetry_equiv_pos_as_xyz
1 x,y,z
_cell_length_a                   9.8769(11)
_cell_length_b                   12.6544(14)
_cell_length_c                   16.4665(18)
_cell_angle_alpha                109.065(2)
_cell_angle_beta                 91.359(2)
_cell_angle_gamma                106.942(2)
_cell_volume                     1844.62
loop_
_atom_site_label
_atom_site_type_symbol
_atom_site_fract_x
_atom_site_fract_y
_atom_site_fract_z
Cu1 Cu 0.49351(3) 0.10972(3) 0.021312(19)
O11 O 0.6971(2) 0.16848(17) 0.06994(14)
N5 N 0.4532(3) 0.2778(2) 0.04963(15)
O12 O 0.4495(2) 0.09176(17) 0.13312(12)
O1 O 0.2953(2) 0.01623(18) 0.96666(14)
H11 H 0.0556 0.0189 0.9268
O13 O 0.5499(2) 0.09545(17) 0.90562(12)
O2 O 0.3029(2) 0.83152(17) 0.93006(14)
C7 C 0.0924(3) 0.8619(2) 0.88423(17)
C9 C 0.0311(3) 0.7449(2) 0.83107(17)
H7 H 0.0808 0.6915 0.8265
C11 C 0.2410(3) 0.9057(2) 0.93078(16)
C18 C 0.0153(3) 0.9402(3) 0.89172(19)
Cu6 Cu 0.50649(3) 0.89028(3) 0.978688(19)
N1 N 0.7148(3) 0.4205(2) 0.50491(16)
Cu2 Cu 0.66685(4) 0.38708(3) 0.61236(2)
N2 N 0.7749(3) 0.7080(2) 0.37162(17)
H1 H 0.8497 0.6891 0.3560
O3 O 0.7057(2) 0.54960(17) 0.68676(13)
N3 N 0.6432(3) 0.6918(2) 0.20944(16)
H2 H 0.5566 0.6930 0.2101
O4 O 0.9083(2) 0.5159(2) 0.70970(17)
O5 O 0.6281(2) 0.30413(17) 0.70069(12)
C1 C 0.5862(3) 0.0010(2) 0.76259(17)
O6 O 0.6685(3) 0.21983(19) 0.56981(13)
O9 O 0.5738(2) 0.66135(19) 0.43318(14)
C2 C 0.6144(3) 0.1051(2) 0.74588(17)
H3 H 0.6246 0.1755 0.7908
O10 O 0.7876(3) 0.5864(2) 0.1503(2)
C3 C 0.6441(3) 0.2146(3) 0.64340(18)
C4 C 0.7206(3) 0.5386(3) 0.41646(19)
C5 C 0.7482(4) 0.9067(3) 0.2462(2)
H4 H 0.6546 0.9146 0.2560
H5 H 0.7590 0.8976 0.1861
C6 C 0.6276(3) 0.1045(3) 0.66176(18)
C8 C 0.7547(4) 0.8115(3) 0.3579(2)
H6 H 0.6610 0.8164 0.3735
C10 C 0.5384(3) 0.4888(2) 0.11616(19)
C12 C 0.8341(3) 0.5814(3) 0.72383(19)
C13 C 0.8959(3) 0.7070(2) 0.78467(18)
C14 C 0.5573(3) 0.3782(2) 0.09053(19)
H8 H 0.6477 0.3742 0.1027
C15 C 0.5604(3) 0.0017(2) 0.85239(17)
C16 C 0.4023(3) 0.4931(3) 0.0977(2)
H9 H 0.3843 0.5649 0.1145
C19 C 0.7578(3) 0.7979(2) 0.26254(19)
H12 H 0.8490 0.7871 0.2465
C20 C 0.6667(4) 0.5935(3) 0.1602(2)
C21 C 0.8200(3) 0.7858(3) 0.7946(2)
H13 H 0.7282 0.7602 0.7653
C22 C 0.6833(3) 0.6423(2) 0.40687(18)
C23 C 0.6900(3) 0.5119(2) 0.49022(19)
H14 H 0.6503 0.5595 0.5317
C24 C 0.8795(3) 0.9021(3) 0.8475(2)
H15 H 0.8283 0.9547 0.8535
C26 C 0.8685(4) 0.9231(3) 0.4153(2)
H17 H 0.9621 0.9166 0.4035
H18 H 0.8610 0.9316 0.4756
C27 C 0.2956(4) 0.3907(3) 0.0546(2)
H19 H 0.2044 0.3920 0.0408
C28 C 0.3241(3) 0.2861(3) 0.0320(2)
H20 H 0.2501 0.2171 0.0029
C31 C 0.7701(5) 0.3516(3) 0.4446(3)
H24 H 0.7860 0.2870 0.4534
C32 C 0.7795(5) 0.4673(3) 0.3550(3)
H25 H 0.8019 0.4824 0.3045
C33 C 0.8040(6) 0.3731(4) 0.3704(3)
H26 H 0.8438 0.3241 0.3301
Cu7 Cu 0.33315(4) 0.61292(3) 0.38764(2)
O14 O 0.4262(2) 0.33865(19) 0.56682(14)
O7 O 0.5505(2) 0.90824(17) 0.86688(12)
C17 C 0.5734(4) 0.8965(3) 0.69558(19)
H10 H 0.5541 0.8265 0.7069
C25 C 0.5890(4) 0.8955(3) 0.6123(2)
H16 H 0.5814 0.8253 0.5678
C29 C 0.6161(4) 0.9995(3) 0.59526(19)
H21 H 0.6267 0.9990 0.5392
C17_2 C 0.4266(4) 0.1035(3) 0.30442(19)
H10_2 H 0.4459 0.1735 0.2931
C25_2 C 0.4110(4) 0.1045(3) 0.3877(2)
H16_2 H 0.4186 0.1747 0.4322
C29_2 C 0.3839(4) 0.0005(3) 0.40474(19)
H21_2 H 0.3733 0.0010 0.4608
N1_2 N 0.2852(3) 0.5795(2) 0.49509(16)
N2_2 N 0.2251(3) 0.2920(2) 0.62838(17)
H1_2 H 0.1503 0.3109 0.6440
O3_2 O 0.2943(2) 0.45040(17) 0.31324(13)
N3_2 N 0.3568(3) 0.3082(2) 0.79056(16)
H2_2 H 0.4434 0.3070 0.7899
N4 N 0.5468(3) 0.7222(2) 0.95037(15)
O4_2 O 0.0917(2) 0.4841(2) 0.29030(17)
O5_2 O 0.3719(2) 0.69587(17) 0.29931(12)
C1_2 C 0.4138(3) 0.9990(2) 0.23741(17)
O6_2 O 0.3315(3) 0.78017(19) 0.43019(13)
O8 O 0.4501(2) 0.90455(17) 0.09438(12)
C2_2 C 0.3856(3) 0.8949(2) 0.25412(17)
H3_2 H 0.3754 0.8245 0.2092
O10_2 O 0.2124(3) 0.4136(2) 0.8497(2)
C3_2 C 0.3559(3) 0.7854(3) 0.35660(18)
C4_2 C 0.2794(3) 0.4614(3) 0.58354(19)
C5_2 C 0.2518(4) 0.0933(3) 0.7538(2)
H4_2 H 0.3454 0.0854 0.7440
H5_2 H 0.2410 0.1024 0.8139
C6_2 C 0.3724(3) 0.8955(3) 0.33824(18)
C8_2 C 0.2453(4) 0.1885(3) 0.6421(2)
H6_2 H 0.3390 0.1836 0.6265
C10_2 C 0.4616(3) 0.5112(2) 0.88384(19)
C12_2 C 0.1659(3) 0.4186(3) 0.27617(19)
C13_2 C 0.1041(3) 0.2930(2) 0.21533(18)
C14_2 C 0.4427(3) 0.6218(2) 0.90947(19)
H8_2 H 0.3523 0.6258 0.8973
C15_2 C 0.4396(3) 0.9983(2) 0.14761(17)
C16_2 C 0.5977(3) 0.5069(3) 0.9023(2)
H9_2 H 0.6157 0.4351 0.8855
C19_2 C 0.2422(3) 0.2021(2) 0.73746(19)
H12_2 H 0.1510 0.2129 0.7535
C20_2 C 0.3333(4) 0.4065(3) 0.8398(2)
C21_2 C 0.1800(3) 0.2142(3) 0.2054(2)
H13_2 H 0.2718 0.2398 0.2347
C22_2 C 0.3167(3) 0.3577(2) 0.59313(18)
C23_2 C 0.3100(3) 0.4881(2) 0.50978(19)
H14_2 H 0.3497 0.4405 0.4683
C24_2 C 0.1205(3) 0.0979(3) 0.1525(2)
H15_2 H 0.1717 0.0453 0.1465
C26_2 C 0.1315(4) 0.0769(3) 0.5847(2)
H17_2 H 0.0379 0.0834 0.5965
H18_2 H 0.1390 0.0684 0.5244
C27_2 C 0.7044(4) 0.6093(3) 0.9454(2)
H19_2 H 0.7956 0.6080 0.9592
C28_2 C 0.6759(3) 0.7139(3) 0.9680(2)
H20_2 H 0.7499 0.7829 0.9971
C31_2 C 0.2299(5) 0.6484(3) 0.5554(3)
H24_2 H 0.2140 0.7130 0.5466
C32_2 C 0.2205(5) 0.5327(3) 0.6450(3)
H25_2 H 0.1981 0.5176 0.6955
C33_2 C 0.1960(6) 0.6269(4) 0.6296(3)
H26_2 H 0.1562 0.6759 0.6699
C7_2 C 0.9076(3) 0.1381(2) 0.11577(17)
C9_2 C 0.9689(3) 0.2551(2) 0.16893(17)
H7_2 H 0.9192 0.3085 0.1735
C11_2 C 0.7590(3) 0.0943(2) 0.06922(16)
C18_2 C 0.9847(3) 0.0598(3) 0.10828(19)
O1_2 O 0.7047(2) 0.98377(18) 0.03334(14)
H11_2 H 0.9444 0.9811 0.0732
C30 C 0.8622(4) 0.0179(3) 0.3047(2)
H22 H 0.8499 0.0859 0.2942
H23 H 0.9558 0.0135 0.2910
C34 C 0.8536(5) 0.0335(3) 0.3999(2)
H27 H 0.7629 0.0437 0.4153
H28 H 0.9295 0.1030 0.4360
C30_2 C 0.1378(4) 0.9821(3) 0.6953(2)
H22_2 H 0.1501 0.9141 0.7058
H23_2 H 0.0442 0.9865 0.7090
C34_2 C 0.1464(5) 0.9665(3) 0.6001(2)
H27_2 H 0.2371 0.9563 0.5847
H28_2 H 0.0705 0.8970 0.5640
loop_
_geom_bond_atom_site_label_1
_geom_bond_atom_site_label_2
_geom_bond_site_symmetry_1
_geom_bond_site_symmetry_2
O11 Cu1 1_555 1_555
N5 Cu1 1_555 1_555
O12 Cu1 1_555 1_555
O2 C11 1_555 1_555
C7 C9 1_555 1_555
C9 H7 1_555 1_555
C11 C7 1_555 1_555
C18 C7 1_555 1_555
O2 Cu6 1_555 1_555
N1 Cu2 1_555 1_555
Cu2 O3 1_555 1_555
N2 H1 1_555 1_555
O3 C12 1_555 1_555
N3 H2 1_555 1_555
N5 C14 1_555 1_555
O4 Cu2 1_555 1_555
O5 Cu2 1_555 1_555
C1 C2 1_555 1_555
O6 Cu2 1_555 1_555
O13 C15 1_555 1_555
O9 C22 1_555 1_555
C2 H3 1_555 1_555
O10 C20 1_555 1_555
C3 O5 1_555 1_555
C4 C22 1_555 1_555
C5 H4 1_555 1_555
H5 C5 1_555 1_555
C6 C2 1_555 1_555
C8 N2 1_555 1_555
H6 C8 1_555 1_555
C10 C14 1_555 1_555
C12 O4 1_555 1_555
C14 H8 1_555 1_555
C15 C1 1_555 1_555
C16 C10 1_555 1_555
H9 C16 1_555 1_555
C19 N3 1_555 1_555
H12 C19 1_555 1_555
C20 N3 1_555 1_555
C21 C13 1_555 1_555
H13 C21 1_555 1_555
C22 N2 1_555 1_555
C23 N1 1_555 1_555
H14 C23 1_555 1_555
H15 C24 1_555 1_555
C26 C8 1_555 1_555
H17 C26 1_555 1_555
H18 C26 1_555 1_555
C27 C16 1_555 1_555
H19 C27 1_555 1_555
C28 N5 1_555 1_555
H20 C28 1_555 1_555
C31 N1 1_555 1_555
H24 C31 1_555 1_555
C32 C4 1_555 1_555
H25 C32 1_555 1_555
C33 C31 1_555 1_555
H26 C33 1_555 1_555
Cu7 O9 1_555 1_555
O14 Cu2 1_555 1_555
O6 C3 1_555 1_555
C3 C6 1_555 1_555
C4 C23 1_555 1_555
C5 C19 1_555 1_555
C8 C19 1_555 1_555
C10 C20 1_555 1_555
C12 C13 1_555 1_555
C21 C24 1_555 1_555
C27 C28 1_555 1_555
C32 C33 1_555 1_555
H10 C17 1_555 1_555
C25 C17 1_555 1_555
H16 C25 1_555 1_555
H21 C29 1_555 1_555
Cu6 O7 1_555 1_555
C25 C29 1_555 1_555
H10_2 C17_2 1_555 1_555
C25_2 C17_2 1_555 1_555
H16_2 C25_2 1_555 1_555
H21_2 C29_2 1_555 1_555
C25_2 C29_2 1_555 1_555
N1_2 Cu7 1_555 1_555
Cu7 O3_2 1_555 1_555
N2_2 H1_2 1_555 1_555
O3_2 C12_2 1_555 1_555
N3_2 H2_2 1_555 1_555
N4 C14_2 1_555 1_555
O4_2 Cu7 1_555 1_555
O5_2 Cu7 1_555 1_555
C1_2 C2_2 1_555 1_555
O6_2 Cu7 1_555 1_555
O8 C15_2 1_555 1_555
O14 C22_2 1_555 1_555
C2_2 H3_2 1_555 1_555
O10_2 C20_2 1_555 1_555
C3_2 O5_2 1_555 1_555
C4_2 C22_2 1_555 1_555
C5_2 H4_2 1_555 1_555
H5_2 C5_2 1_555 1_555
C6_2 C2_2 1_555 1_555
C8_2 N2_2 1_555 1_555
H6_2 C8_2 1_555 1_555
C10_2 C14_2 1_555 1_555
C12_2 O4_2 1_555 1_555
C14_2 H8_2 1_555 1_555
C15_2 C1_2 1_555 1_555
C16_2 C10_2 1_555 1_555
H9_2 C16_2 1_555 1_555
C19_2 N3_2 1_555 1_555
H12_2 C19_2 1_555 1_555
C20_2 N3_2 1_555 1_555
C21_2 C13_2 1_555 1_555
H13_2 C21_2 1_555 1_555
C22_2 N2_2 1_555 1_555
C23_2 N1_2 1_555 1_555
H14_2 C23_2 1_555 1_555
H15_2 C24_2 1_555 1_555
C26_2 C8_2 1_555 1_555
H17_2 C26_2 1_555 1_555
H18_2 C26_2 1_555 1_555
C27_2 C16_2 1_555 1_555
H19_2 C27_2 1_555 1_555
C28_2 N4 1_555 1_555
H20_2 C28_2 1_555 1_555
C31_2 N1_2 1_555 1_555
H24_2 C31_2 1_555 1_555
C32_2 C4_2 1_555 1_555
H25_2 C32_2 1_555 1_555
C33_2 C31_2 1_555 1_555
H26_2 C33_2 1_555 1_555
Cu6 N4 1_555 1_555
O6_2 C3_2 1_555 1_555
C3_2 C6_2 1_555 1_555
C4_2 C23_2 1_555 1_555
C5_2 C19_2 1_555 1_555
C8_2 C19_2 1_555 1_555
C10_2 C20_2 1_555 1_555
C12_2 C13_2 1_555 1_555
C21_2 C24_2 1_555 1_555
C27_2 C28_2 1_555 1_555
C32_2 C33_2 1_555 1_555
O11 C11_2 1_555 1_555
C7_2 C9_2 1_555 1_555
C9_2 H7_2 1_555 1_555
C11_2 C7_2 1_555 1_555
C18_2 C7_2 1_555 1_555
H22 C30 1_555 1_555
H23 C30 1_555 1_555
H27 C34 1_555 1_555
H28 C34 1_555 1_555
C30 C34 1_555 1_555
H22_2 C30_2 1_555 1_555
H23_2 C30_2 1_555 1_555
H27_2 C34_2 1_555 1_555
H28_2 C34_2 1_555 1_555
C30_2 C34_2 1_555 1_555

#END
