
###############################################################################
#
# This file contains modified crystal structure data generated from the
# MOF subset of the Cambridge Structural Database (CSD) v543 
# hosted by the Cambridge Crystallographic Data Centre (CCDC).
#
# This work is licensed under the Creative Commons
# Attribution-NonCommercial-ShareAlike 4.0 International License.
# To view a copy of this license, visit
# http://creativecommons.org/licenses/by-nc-sa/4.0/
# or send a letter to
# Creative Commons, PO Box 1866, Mountain View, CA 94042, USA.
#
# CIF created using the CSD Python API on 29 September 2022
# The structure has been converted into the P1 space group
# The structure has a 3D framework
# The original CSD entry MINLON is in the cubic crystal system
# The framework has been calculated to contain at least 10.0% void space
# The void calculation uses a probe of radius 1.32A, grid spacing 0.4
#
###############################################################################

data_MINLON
_chemical_formula_moiety         '(C72 H48 N72 O48 Zn12)n'
_symmetry_cell_setting           triclinic
_symmetry_space_group_name_H-M   'P 1'
_symmetry_Int_Tables_number      1
_space_group_name_Hall           'P 1'
loop_
_symmetry_equiv_pos_site_id
_symmetry_equiv_pos_as_xyz
1 x,y,z
_cell_length_a                   17.3893(3)
_cell_length_b                   17.3893(3)
_cell_length_c                   17.3893(3)
_cell_angle_alpha                90
_cell_angle_beta                 90
_cell_angle_gamma                90
_cell_volume                     5258.31
loop_
_atom_site_label
_atom_site_type_symbol
_atom_site_fract_x
_atom_site_fract_y
_atom_site_fract_z
Zn3 Zn 0.500000 -0.000000 0.250000
Zn2 Zn 0.500000 0.000000 0.750000
Zn1 Zn 0.500000 0.750000 0.000000
C4 C 0.57356(19) 0.79303(18) 0.15134(18)
H3 H 0.606960 0.751316 0.149196
C5 C 0.48673(19) 0.87331(11) 0.12669(11)
N4 N 0.51691(10) 0.80848(10) 0.09967(11)
N5 N 0.42491(19) 0.91143(13) 0.08857(13)
O3 O 0.40019(15) 0.97038(13) 0.11728(13)
C6 C 0.57356(19) 0.84866(18) 0.20697(18)
H4 H 0.606960 0.850804 0.248684
N6 N 0.51691(10) 0.90033(11) 0.19152(10)
O4 O 0.40019(15) 0.88272(13) 0.02962(13)
Zn3_2 Zn 0.500000 1.000000 0.250000
N7 N 0.40033(11) 0.69152(10) 0.01691(10)
Zn1_2 Zn 0.500000 0.750000 1.000000
C1 C 0.42644(19) 0.79303(18) 0.84866(18)
H1 H 0.393040 0.751316 0.850804
C2 C 0.51327(19) 0.87331(11) 0.87331(11)
N1 N 0.48309(10) 0.80848(10) 0.90033(11)
N2 N 0.57509(19) 0.91143(13) 0.91143(13)
O1 O 0.59981(15) 0.97038(13) 0.88272(13)
C3 C 0.42644(19) 0.84866(18) 0.79303(18)
H2 H 0.393040 0.850804 0.751316
N3 N 0.48309(10) 0.90033(11) 0.80848(10)
O2 O 0.59981(15) 0.88272(13) 0.97038(13)
Zn2_2 Zn 0.500000 1.000000 0.750000
N8 N 0.59967(11) 0.69152(10) 0.98309(10)
Zn1_3 Zn 0.500000 0.250000 0.000000
C4_2 C 0.42644(19) 0.20697(18) 0.15134(18)
H3_2 H 0.393040 0.248684 0.149196
C5_2 C 0.51327(19) 0.12669(11) 0.12669(11)
N4_2 N 0.48309(10) 0.19152(10) 0.09967(11)
N5_2 N 0.57509(19) 0.08857(13) 0.08857(13)
O3_2 O 0.59981(15) 0.02962(13) 0.11728(13)
C6_2 C 0.42644(19) 0.15134(18) 0.20697(18)
H4_2 H 0.393040 0.149196 0.248684
N6_2 N 0.48309(10) 0.09967(11) 0.19152(10)
O4_2 O 0.59981(15) 0.11728(13) 0.02962(13)
N7_2 N 0.59967(11) 0.30848(10) 0.01691(10)
Zn1_4 Zn 0.500000 0.250000 1.000000
C1_2 C 0.57356(19) 0.20697(18) 0.84866(18)
H1_2 H 0.606960 0.248684 0.850804
C2_2 C 0.48673(19) 0.12669(11) 0.87331(11)
N1_2 N 0.51691(10) 0.19152(10) 0.90033(11)
N2_2 N 0.42491(19) 0.08857(13) 0.91143(13)
O1_2 O 0.40019(15) 0.02962(13) 0.88272(13)
C3_2 C 0.57356(19) 0.15134(18) 0.79303(18)
H2_2 H 0.606960 0.149196 0.751316
N3_2 N 0.51691(10) 0.09967(11) 0.80848(10)
O2_2 O 0.40019(15) 0.11728(13) 0.97038(13)
N8_2 N 0.40033(11) 0.30848(10) 0.98309(10)
Zn3_3 Zn 0.250000 0.500000 -0.000000
Zn1_5 Zn 0.000000 0.500000 0.750000
C4_3 C 0.15134(18) 0.57356(19) 0.79303(18)
H3_3 H 0.149196 0.606960 0.751316
C5_3 C 0.12669(11) 0.48673(19) 0.87331(11)
N4_3 N 0.09967(11) 0.51691(10) 0.80848(10)
N5_3 N 0.08857(13) 0.42491(19) 0.91143(13)
O3_3 O 0.11728(13) 0.40019(15) 0.97038(13)
C6_3 C 0.20697(18) 0.57356(19) 0.84866(18)
H4_3 H 0.248684 0.606960 0.850804
N6_3 N 0.19152(10) 0.51691(10) 0.90033(11)
O4_3 O 0.02962(13) 0.40019(15) 0.88272(13)
Zn3_4 Zn 0.250000 0.500000 1.000000
N7_3 N 0.01691(10) 0.40033(11) 0.69152(10)
Zn2_3 Zn 0.750000 0.500000 0.000000
Zn1_6 Zn 1.000000 0.500000 0.750000
C1_3 C 0.84866(18) 0.42644(19) 0.79303(18)
H1_3 H 0.850804 0.393040 0.751316
C2_3 C 0.87331(11) 0.51327(19) 0.87331(11)
N1_3 N 0.90033(11) 0.48309(10) 0.80848(10)
N2_3 N 0.91143(13) 0.57509(19) 0.91143(13)
O1_3 O 0.88272(13) 0.59981(15) 0.97038(13)
C3_3 C 0.79303(18) 0.42644(19) 0.84866(18)
H2_3 H 0.751316 0.393040 0.850804
N3_3 N 0.80848(10) 0.48309(10) 0.90033(11)
O2_3 O 0.97038(13) 0.59981(15) 0.88272(13)
Zn2_4 Zn 0.750000 0.500000 1.000000
N8_3 N 0.98309(10) 0.59967(11) 0.69152(10)
Zn1_7 Zn 0.000000 0.500000 0.250000
C4_4 C 0.15134(18) 0.42644(19) 0.20697(18)
H3_4 H 0.149196 0.393040 0.248684
C5_4 C 0.12669(11) 0.51327(19) 0.12669(11)
N4_4 N 0.09967(11) 0.48309(10) 0.19152(10)
N5_4 N 0.08857(13) 0.57509(19) 0.08857(13)
O3_4 O 0.11728(13) 0.59981(15) 0.02962(13)
C6_4 C 0.20697(18) 0.42644(19) 0.15134(18)
H4_4 H 0.248684 0.393040 0.149196
N6_4 N 0.19152(10) 0.48309(10) 0.09967(11)
O4_4 O 0.02962(13) 0.59981(15) 0.11728(13)
N7_4 N 0.01691(10) 0.59967(11) 0.30848(10)
Zn1_8 Zn 1.000000 0.500000 0.250000
C1_4 C 0.84866(18) 0.57356(19) 0.20697(18)
H1_4 H 0.850804 0.606960 0.248684
C2_4 C 0.87331(11) 0.48673(19) 0.12669(11)
N1_4 N 0.90033(11) 0.51691(10) 0.19152(10)
N2_4 N 0.91143(13) 0.42491(19) 0.08857(13)
O1_4 O 0.88272(13) 0.40019(15) 0.02962(13)
C3_4 C 0.79303(18) 0.57356(19) 0.15134(18)
H2_4 H 0.751316 0.606960 0.149196
N3_4 N 0.80848(10) 0.51691(10) 0.09967(11)
O2_4 O 0.97038(13) 0.40019(15) 0.11728(13)
N8_4 N 0.98309(10) 0.40033(11) 0.30848(10)
Zn3_5 Zn -0.000000 0.250000 0.500000
Zn2_5 Zn -0.000000 0.750000 0.500000
Zn1_9 Zn 0.750000 0.000000 0.500000
C4_5 C 0.79303(18) 0.15134(18) 0.57356(19)
H3_5 H 0.751316 0.149196 0.606960
C5_5 C 0.87331(11) 0.12669(11) 0.48673(19)
N4_5 N 0.80848(10) 0.09967(11) 0.51691(10)
N5_5 N 0.91143(13) 0.08857(13) 0.42491(19)
O3_5 O 0.97038(13) 0.11728(13) 0.40019(15)
C6_5 C 0.84866(18) 0.20697(18) 0.57356(19)
H4_5 H 0.850804 0.248684 0.606960
N6_5 N 0.90033(11) 0.19152(10) 0.51691(10)
O4_5 O 0.88272(13) 0.02962(13) 0.40019(15)
Zn3_6 Zn 1.000000 0.250000 0.500000
N7_5 N 0.69152(10) 0.01691(10) 0.40033(11)
Zn1_10 Zn 0.750000 1.000000 0.500000
C1_5 C 0.79303(18) 0.84866(18) 0.42644(19)
H1_5 H 0.751316 0.850804 0.393040
C2_5 C 0.87331(11) 0.87331(11) 0.51327(19)
N1_5 N 0.80848(10) 0.90033(11) 0.48309(10)
N2_5 N 0.91143(13) 0.91143(13) 0.57509(19)
O1_5 O 0.97038(13) 0.88272(13) 0.59981(15)
C3_5 C 0.84866(18) 0.79303(18) 0.42644(19)
H2_5 H 0.850804 0.751316 0.393040
N3_5 N 0.90033(11) 0.80848(10) 0.48309(10)
O2_5 O 0.88272(13) 0.97038(13) 0.59981(15)
Zn2_6 Zn 1.000000 0.750000 0.500000
N8_5 N 0.69152(10) 0.98309(10) 0.59967(11)
Zn1_11 Zn 0.250000 0.000000 0.500000
C4_6 C 0.20697(18) 0.15134(18) 0.42644(19)
H3_6 H 0.248684 0.149196 0.393040
C5_6 C 0.12669(11) 0.12669(11) 0.51327(19)
N4_6 N 0.19152(10) 0.09967(11) 0.48309(10)
N5_6 N 0.08857(13) 0.08857(13) 0.57509(19)
O3_6 O 0.02962(13) 0.11728(13) 0.59981(15)
C6_6 C 0.15134(18) 0.20697(18) 0.42644(19)
H4_6 H 0.149196 0.248684 0.393040
N6_6 N 0.09967(11) 0.19152(10) 0.48309(10)
O4_6 O 0.11728(13) 0.02962(13) 0.59981(15)
N7_6 N 0.30848(10) 0.01691(10) 0.59967(11)
Zn1_12 Zn 0.250000 1.000000 0.500000
C1_6 C 0.20697(18) 0.84866(18) 0.57356(19)
H1_6 H 0.248684 0.850804 0.606960
C2_6 C 0.12669(11) 0.87331(11) 0.48673(19)
N1_6 N 0.19152(10) 0.90033(11) 0.51691(10)
N2_6 N 0.08857(13) 0.91143(13) 0.42491(19)
O1_6 O 0.02962(13) 0.88272(13) 0.40019(15)
C3_6 C 0.15134(18) 0.79303(18) 0.57356(19)
H2_6 H 0.149196 0.751316 0.606960
N3_6 N 0.09967(11) 0.80848(10) 0.51691(10)
O2_6 O 0.11728(13) 0.97038(13) 0.40019(15)
N8_6 N 0.30848(10) 0.98309(10) 0.40033(11)
N7_7 N 0.69152(10) 0.40033(11) 0.01691(10)
N8_7 N 0.69152(10) 0.59967(11) 0.98309(10)
N7_8 N 0.30848(10) 0.59967(11) 0.01691(10)
N8_8 N 0.30848(10) 0.40033(11) 0.98309(10)
N7_9 N 0.40033(11) 0.01691(10) 0.69152(10)
N8_9 N 0.59967(11) 0.98309(10) 0.69152(10)
N7_10 N 0.59967(11) 0.01691(10) 0.30848(10)
N8_10 N 0.40033(11) 0.98309(10) 0.30848(10)
N7_11 N 0.01691(10) 0.69152(10) 0.40033(11)
N8_11 N 0.98309(10) 0.69152(10) 0.59967(11)
N7_12 N 0.01691(10) 0.30848(10) 0.59967(11)
N8_12 N 0.98309(10) 0.30848(10) 0.40033(11)
C2_7 C 0.01327(19) 0.37331(11) 0.37331(11)
N2_7 N 0.07509(19) 0.41143(13) 0.41143(13)
O1_7 O 0.09981(15) 0.47038(13) 0.38272(13)
O2_7 O 0.09981(15) 0.38272(13) 0.47038(13)
C4_7 C 0.07356(19) 0.29303(18) 0.65134(18)
H3_7 H 0.106960 0.251316 0.649196
C6_7 C 0.07356(19) 0.34866(18) 0.70697(18)
H4_7 H 0.106960 0.350804 0.748684
C1_7 C 0.92644(19) 0.29303(18) 0.34866(18)
H1_7 H 0.893040 0.251316 0.350804
C3_7 C 0.92644(19) 0.34866(18) 0.29303(18)
H2_7 H 0.893040 0.350804 0.251316
C5_7 C 0.98673(19) 0.37331(11) 0.62669(11)
N5_7 N 0.92491(19) 0.41143(13) 0.58857(13)
O3_7 O 0.90019(15) 0.47038(13) 0.61728(13)
O4_7 O 0.90019(15) 0.38272(13) 0.52962(13)
C1_8 C 0.07356(19) 0.70697(18) 0.34866(18)
H1_8 H 0.106960 0.748684 0.350804
C3_8 C 0.07356(19) 0.65134(18) 0.29303(18)
H2_8 H 0.106960 0.649196 0.251316
C5_8 C 0.01327(19) 0.62669(11) 0.62669(11)
N5_8 N 0.07509(19) 0.58857(13) 0.58857(13)
O3_8 O 0.09981(15) 0.52962(13) 0.61728(13)
O4_8 O 0.09981(15) 0.61728(13) 0.52962(13)
C2_8 C 0.98673(19) 0.62669(11) 0.37331(11)
N2_8 N 0.92491(19) 0.58857(13) 0.41143(13)
O1_8 O 0.90019(15) 0.52962(13) 0.38272(13)
O2_8 O 0.90019(15) 0.61728(13) 0.47038(13)
C4_8 C 0.92644(19) 0.70697(18) 0.65134(18)
H3_8 H 0.893040 0.748684 0.649196
C6_8 C 0.92644(19) 0.65134(18) 0.70697(18)
H4_8 H 0.893040 0.649196 0.748684
C2_9 C 0.37331(11) 0.01327(19) 0.37331(11)
N2_9 N 0.41143(13) 0.07509(19) 0.41143(13)
O1_9 O 0.38272(13) 0.09981(15) 0.47038(13)
O2_9 O 0.47038(13) 0.09981(15) 0.38272(13)
C4_9 C 0.65134(18) 0.07356(19) 0.29303(18)
H3_9 H 0.649196 0.106960 0.251316
C6_9 C 0.70697(18) 0.07356(19) 0.34866(18)
H4_9 H 0.748684 0.106960 0.350804
C1_9 C 0.34866(18) 0.92644(19) 0.29303(18)
H1_9 H 0.350804 0.893040 0.251316
C3_9 C 0.29303(18) 0.92644(19) 0.34866(18)
H2_9 H 0.251316 0.893040 0.350804
C5_9 C 0.62669(11) 0.98673(19) 0.37331(11)
N5_9 N 0.58857(13) 0.92491(19) 0.41143(13)
O3_9 O 0.61728(13) 0.90019(15) 0.47038(13)
O4_9 O 0.52962(13) 0.90019(15) 0.38272(13)
C1_10 C 0.34866(18) 0.07356(19) 0.70697(18)
H1_10 H 0.350804 0.106960 0.748684
C3_10 C 0.29303(18) 0.07356(19) 0.65134(18)
H2_10 H 0.251316 0.106960 0.649196
C5_10 C 0.62669(11) 0.01327(19) 0.62669(11)
N5_10 N 0.58857(13) 0.07509(19) 0.58857(13)
O3_10 O 0.61728(13) 0.09981(15) 0.52962(13)
O4_10 O 0.52962(13) 0.09981(15) 0.61728(13)
C2_10 C 0.37331(11) 0.98673(19) 0.62669(11)
N2_10 N 0.41143(13) 0.92491(19) 0.58857(13)
O1_10 O 0.38272(13) 0.90019(15) 0.52962(13)
O2_10 O 0.47038(13) 0.90019(15) 0.61728(13)
C4_10 C 0.65134(18) 0.92644(19) 0.70697(18)
H3_10 H 0.649196 0.893040 0.748684
C6_10 C 0.70697(18) 0.92644(19) 0.65134(18)
H4_10 H 0.748684 0.893040 0.649196
C2_11 C 0.37331(11) 0.37331(11) 0.01327(19)
N2_11 N 0.41143(13) 0.41143(13) 0.07509(19)
O1_11 O 0.47038(13) 0.38272(13) 0.09981(15)
O2_11 O 0.38272(13) 0.47038(13) 0.09981(15)
C4_11 C 0.29303(18) 0.65134(18) 0.07356(19)
H3_11 H 0.251316 0.649196 0.106960
C6_11 C 0.34866(18) 0.70697(18) 0.07356(19)
H4_11 H 0.350804 0.748684 0.106960
C1_11 C 0.29303(18) 0.34866(18) 0.92644(19)
H1_11 H 0.251316 0.350804 0.893040
C3_11 C 0.34866(18) 0.29303(18) 0.92644(19)
H2_11 H 0.350804 0.251316 0.893040
C5_11 C 0.37331(11) 0.62669(11) 0.98673(19)
N5_11 N 0.41143(13) 0.58857(13) 0.92491(19)
O3_11 O 0.47038(13) 0.61728(13) 0.90019(15)
O4_11 O 0.38272(13) 0.52962(13) 0.90019(15)
C1_12 C 0.70697(18) 0.34866(18) 0.07356(19)
H1_12 H 0.748684 0.350804 0.106960
C3_12 C 0.65134(18) 0.29303(18) 0.07356(19)
H2_12 H 0.649196 0.251316 0.106960
C5_12 C 0.62669(11) 0.62669(11) 0.01327(19)
N5_12 N 0.58857(13) 0.58857(13) 0.07509(19)
O3_12 O 0.52962(13) 0.61728(13) 0.09981(15)
O4_12 O 0.61728(13) 0.52962(13) 0.09981(15)
C2_12 C 0.62669(11) 0.37331(11) 0.98673(19)
N2_12 N 0.58857(13) 0.41143(13) 0.92491(19)
O1_12 O 0.52962(13) 0.38272(13) 0.90019(15)
O2_12 O 0.61728(13) 0.47038(13) 0.90019(15)
C4_12 C 0.70697(18) 0.65134(18) 0.92644(19)
H3_12 H 0.748684 0.649196 0.893040
C6_12 C 0.65134(18) 0.70697(18) 0.92644(19)
H4_12 H 0.649196 0.748684 0.893040
loop_
_geom_bond_atom_site_label_1
_geom_bond_atom_site_label_2
_geom_bond_site_symmetry_1
_geom_bond_site_symmetry_2
C4 H3 1_555 1_555
C5 N4 1_555 1_555
N4 Zn1 1_555 1_555
N5 C5 1_555 1_555
O3 N5 1_555 1_555
C6 C4 1_555 1_555
H4 C6 1_555 1_555
N6 C5 1_555 1_555
O4 N5 1_555 1_555
Zn3_2 N6 1_555 1_555
N7 Zn1 1_555 1_555
C4 N4 1_555 1_555
C6 N6 1_555 1_555
Zn1_2 N1 1_555 1_555
C1 H1 1_555 1_555
C2 N1 1_555 1_555
N1 C1 1_555 1_555
N2 C2 1_555 1_555
O1 N2 1_555 1_555
C3 C1 1_555 1_555
H2 C3 1_555 1_555
N3 C2 1_555 1_555
O2 N2 1_555 1_555
Zn2_2 N3 1_555 1_555
N8 Zn1_2 1_555 1_555
C3 N3 1_555 1_555
C4_2 H3_2 1_555 1_555
C5_2 N4_2 1_555 1_555
N4_2 Zn1_3 1_555 1_555
N5_2 C5_2 1_555 1_555
O3_2 N5_2 1_555 1_555
C6_2 C4_2 1_555 1_555
H4_2 C6_2 1_555 1_555
N6_2 C5_2 1_555 1_555
O4_2 N5_2 1_555 1_555
Zn3 N6_2 1_555 1_555
N7_2 Zn1_3 1_555 1_555
C4_2 N4_2 1_555 1_555
C6_2 N6_2 1_555 1_555
Zn1_4 N1_2 1_555 1_555
C1_2 H1_2 1_555 1_555
C2_2 N1_2 1_555 1_555
N1_2 C1_2 1_555 1_555
N2_2 C2_2 1_555 1_555
O1_2 N2_2 1_555 1_555
C3_2 C1_2 1_555 1_555
H2_2 C3_2 1_555 1_555
N3_2 C2_2 1_555 1_555
O2_2 N2_2 1_555 1_555
Zn2 N3_2 1_555 1_555
N8_2 Zn1_4 1_555 1_555
C3_2 N3_2 1_555 1_555
C4_3 H3_3 1_555 1_555
C5_3 N4_3 1_555 1_555
N4_3 Zn1_5 1_555 1_555
N5_3 C5_3 1_555 1_555
O3_3 N5_3 1_555 1_555
C6_3 C4_3 1_555 1_555
H4_3 C6_3 1_555 1_555
N6_3 C5_3 1_555 1_555
O4_3 N5_3 1_555 1_555
Zn3_4 N6_3 1_555 1_555
N7_3 Zn1_5 1_555 1_555
C4_3 N4_3 1_555 1_555
C6_3 N6_3 1_555 1_555
Zn1_6 N1_3 1_555 1_555
C1_3 H1_3 1_555 1_555
C2_3 N1_3 1_555 1_555
N1_3 C1_3 1_555 1_555
N2_3 C2_3 1_555 1_555
O1_3 N2_3 1_555 1_555
C3_3 C1_3 1_555 1_555
H2_3 C3_3 1_555 1_555
N3_3 C2_3 1_555 1_555
O2_3 N2_3 1_555 1_555
Zn2_4 N3_3 1_555 1_555
N8_3 Zn1_6 1_555 1_555
C3_3 N3_3 1_555 1_555
C4_4 H3_4 1_555 1_555
C5_4 N4_4 1_555 1_555
N4_4 Zn1_7 1_555 1_555
N5_4 C5_4 1_555 1_555
O3_4 N5_4 1_555 1_555
C6_4 C4_4 1_555 1_555
H4_4 C6_4 1_555 1_555
N6_4 C5_4 1_555 1_555
O4_4 N5_4 1_555 1_555
Zn3_3 N6_4 1_555 1_555
N7_4 Zn1_7 1_555 1_555
C4_4 N4_4 1_555 1_555
C6_4 N6_4 1_555 1_555
Zn1_8 N1_4 1_555 1_555
C1_4 H1_4 1_555 1_555
C2_4 N1_4 1_555 1_555
N1_4 C1_4 1_555 1_555
N2_4 C2_4 1_555 1_555
O1_4 N2_4 1_555 1_555
C3_4 C1_4 1_555 1_555
H2_4 C3_4 1_555 1_555
N3_4 C2_4 1_555 1_555
O2_4 N2_4 1_555 1_555
Zn2_3 N3_4 1_555 1_555
N8_4 Zn1_8 1_555 1_555
C3_4 N3_4 1_555 1_555
C4_5 H3_5 1_555 1_555
C5_5 N4_5 1_555 1_555
N4_5 Zn1_9 1_555 1_555
N5_5 C5_5 1_555 1_555
O3_5 N5_5 1_555 1_555
C6_5 C4_5 1_555 1_555
H4_5 C6_5 1_555 1_555
N6_5 C5_5 1_555 1_555
O4_5 N5_5 1_555 1_555
Zn3_6 N6_5 1_555 1_555
N7_5 Zn1_9 1_555 1_555
C4_5 N4_5 1_555 1_555
C6_5 N6_5 1_555 1_555
Zn1_10 N1_5 1_555 1_555
C1_5 H1_5 1_555 1_555
C2_5 N1_5 1_555 1_555
N1_5 C1_5 1_555 1_555
N2_5 C2_5 1_555 1_555
O1_5 N2_5 1_555 1_555
C3_5 C1_5 1_555 1_555
H2_5 C3_5 1_555 1_555
N3_5 C2_5 1_555 1_555
O2_5 N2_5 1_555 1_555
Zn2_6 N3_5 1_555 1_555
N8_5 Zn1_10 1_555 1_555
C3_5 N3_5 1_555 1_555
C4_6 H3_6 1_555 1_555
C5_6 N4_6 1_555 1_555
N4_6 Zn1_11 1_555 1_555
N5_6 C5_6 1_555 1_555
O3_6 N5_6 1_555 1_555
C6_6 C4_6 1_555 1_555
H4_6 C6_6 1_555 1_555
N6_6 C5_6 1_555 1_555
O4_6 N5_6 1_555 1_555
Zn3_5 N6_6 1_555 1_555
N7_6 Zn1_11 1_555 1_555
C4_6 N4_6 1_555 1_555
C6_6 N6_6 1_555 1_555
Zn1_12 N1_6 1_555 1_555
C1_6 H1_6 1_555 1_555
C2_6 N1_6 1_555 1_555
N1_6 C1_6 1_555 1_555
N2_6 C2_6 1_555 1_555
O1_6 N2_6 1_555 1_555
C3_6 C1_6 1_555 1_555
H2_6 C3_6 1_555 1_555
N3_6 C2_6 1_555 1_555
O2_6 N2_6 1_555 1_555
Zn2_5 N3_6 1_555 1_555
N8_6 Zn1_12 1_555 1_555
C3_6 N3_6 1_555 1_555
N7_7 Zn2_3 1_555 1_555
N8_7 Zn2_4 1_555 1_555
N7_8 Zn3_3 1_555 1_555
N8_8 Zn3_4 1_555 1_555
N7_9 Zn2 1_555 1_555
N8_9 Zn2_2 1_555 1_555
N7_10 Zn3 1_555 1_555
N8_10 Zn3_2 1_555 1_555
N7_11 Zn2_5 1_555 1_555
N8_11 Zn2_6 1_555 1_555
N7_12 Zn3_5 1_555 1_555
N8_12 Zn3_6 1_555 1_555
N2_7 C2_7 1_555 1_555
O1_7 N2_7 1_555 1_555
O2_7 N2_7 1_555 1_555
C4_7 H3_7 1_555 1_555
C6_7 C4_7 1_555 1_555
H4_7 C6_7 1_555 1_555
C4_7 N7_12 1_555 1_555
C6_7 N7_3 1_555 1_555
C1_7 H1_7 1_555 1_555
N8_12 C1_7 1_555 1_555
C3_7 C1_7 1_555 1_555
H2_7 C3_7 1_555 1_555
N5_7 C5_7 1_555 1_555
O3_7 N5_7 1_555 1_555
O4_7 N5_7 1_555 1_555
C3_7 N8_4 1_555 1_555
C1_8 H1_8 1_555 1_555
N7_11 C1_8 1_555 1_555
C3_8 C1_8 1_555 1_555
H2_8 C3_8 1_555 1_555
N5_8 C5_8 1_555 1_555
O3_8 N5_8 1_555 1_555
O4_8 N5_8 1_555 1_555
C3_8 N7_4 1_555 1_555
N2_8 C2_8 1_555 1_555
O1_8 N2_8 1_555 1_555
O2_8 N2_8 1_555 1_555
C4_8 H3_8 1_555 1_555
C6_8 C4_8 1_555 1_555
H4_8 C6_8 1_555 1_555
C4_8 N8_11 1_555 1_555
C6_8 N8_3 1_555 1_555
N2_9 C2_9 1_555 1_555
O1_9 N2_9 1_555 1_555
O2_9 N2_9 1_555 1_555
C4_9 H3_9 1_555 1_555
C6_9 C4_9 1_555 1_555
H4_9 C6_9 1_555 1_555
C4_9 N7_10 1_555 1_555
C6_9 N7_5 1_555 1_555
C1_9 H1_9 1_555 1_555
N8_10 C1_9 1_555 1_555
C3_9 C1_9 1_555 1_555
H2_9 C3_9 1_555 1_555
N5_9 C5_9 1_555 1_555
O3_9 N5_9 1_555 1_555
O4_9 N5_9 1_555 1_555
C3_9 N8_6 1_555 1_555
C1_10 H1_10 1_555 1_555
N7_9 C1_10 1_555 1_555
C3_10 C1_10 1_555 1_555
H2_10 C3_10 1_555 1_555
N5_10 C5_10 1_555 1_555
O3_10 N5_10 1_555 1_555
O4_10 N5_10 1_555 1_555
C3_10 N7_6 1_555 1_555
N2_10 C2_10 1_555 1_555
O1_10 N2_10 1_555 1_555
O2_10 N2_10 1_555 1_555
C4_10 H3_10 1_555 1_555
C6_10 C4_10 1_555 1_555
H4_10 C6_10 1_555 1_555
C4_10 N8_9 1_555 1_555
C6_10 N8_5 1_555 1_555
N2_11 C2_11 1_555 1_555
O1_11 N2_11 1_555 1_555
O2_11 N2_11 1_555 1_555
C4_11 H3_11 1_555 1_555
C6_11 C4_11 1_555 1_555
H4_11 C6_11 1_555 1_555
C4_11 N7_8 1_555 1_555
C6_11 N7 1_555 1_555
C1_11 H1_11 1_555 1_555
N8_8 C1_11 1_555 1_555
C3_11 C1_11 1_555 1_555
H2_11 C3_11 1_555 1_555
N5_11 C5_11 1_555 1_555
O3_11 N5_11 1_555 1_555
O4_11 N5_11 1_555 1_555
C3_11 N8_2 1_555 1_555
C1_12 H1_12 1_555 1_555
N7_7 C1_12 1_555 1_555
C3_12 C1_12 1_555 1_555
H2_12 C3_12 1_555 1_555
N5_12 C5_12 1_555 1_555
O3_12 N5_12 1_555 1_555
O4_12 N5_12 1_555 1_555
C3_12 N7_2 1_555 1_555
N2_12 C2_12 1_555 1_555
O1_12 N2_12 1_555 1_555
O2_12 N2_12 1_555 1_555
C4_12 H3_12 1_555 1_555
C6_12 C4_12 1_555 1_555
H4_12 C6_12 1_555 1_555
C4_12 N8_7 1_555 1_555
C6_12 N8 1_555 1_555

#END
