
###############################################################################
#
# This file contains modified crystal structure data generated from the
# MOF subset of the Cambridge Structural Database (CSD) v543 
# hosted by the Cambridge Crystallographic Data Centre (CCDC).
#
# This work is licensed under the Creative Commons
# Attribution-NonCommercial-ShareAlike 4.0 International License.
# To view a copy of this license, visit
# http://creativecommons.org/licenses/by-nc-sa/4.0/
# or send a letter to
# Creative Commons, PO Box 1866, Mountain View, CA 94042, USA.
#
# CIF created using the CSD Python API on 29 September 2022
# The structure has been converted into the P1 space group
# The structure has a 3D framework
# The original CSD entry MINLON01 is in the cubic crystal system
# The framework has been calculated to contain at least 10.0% void space
# The void calculation uses a probe of radius 1.32A, grid spacing 0.4
#
###############################################################################

data_MINLON01
_chemical_formula_moiety         '(C72 H48 N72 O48 Zn12)n'
_symmetry_cell_setting           triclinic
_symmetry_space_group_name_H-M   'P 1'
_symmetry_Int_Tables_number      1
_space_group_name_Hall           'P 1'
loop_
_symmetry_equiv_pos_site_id
_symmetry_equiv_pos_as_xyz
1 x,y,z
_cell_length_a                   17.302(2)
_cell_length_b                   17.302(2)
_cell_length_c                   17.302(2)
_cell_angle_alpha                90
_cell_angle_beta                 90
_cell_angle_gamma                90
_cell_volume                     5179.51
loop_
_atom_site_label
_atom_site_type_symbol
_atom_site_fract_x
_atom_site_fract_y
_atom_site_fract_z
Zn3 Zn 0.500000 -0.000000 0.250000
Zn2 Zn 0.500000 0.000000 0.750000
Zn1 Zn 0.500000 0.750000 0.000000
C4 C 0.5762(3) 0.7932(3) 0.1503(3)
H3 H 0.611344 0.751180 0.147160
C5 C 0.4863(3) 0.87270(17) 0.12730(17)
N4 N 0.51723(15) 0.80788(16) 0.09980(17)
N5 N 0.4236(3) 0.9108(2) 0.0892(2)
O3 O 0.3992(2) 0.97075(19) 0.11815(19)
C6 C 0.5762(3) 0.8497(3) 0.2068(3)
H4 H 0.611344 0.852840 0.248820
N6 N 0.51723(15) 0.90020(17) 0.19212(16)
O4 O 0.3992(2) 0.88185(19) 0.02925(19)
Zn3_2 Zn 0.500000 1.000000 0.250000
N7 N 0.40020(17) 0.69212(16) 0.01723(15)
Zn1_2 Zn 0.500000 0.750000 1.000000
C1 C 0.4238(3) 0.7932(3) 0.8497(3)
H1 H 0.388656 0.751180 0.852840
C2 C 0.5137(3) 0.87270(17) 0.87270(17)
N1 N 0.48277(15) 0.80788(16) 0.90020(17)
N2 N 0.5764(3) 0.9108(2) 0.9108(2)
O1 O 0.6008(2) 0.97075(19) 0.88185(19)
C3 C 0.4238(3) 0.8497(3) 0.7932(3)
H2 H 0.388656 0.852840 0.751180
N3 N 0.48277(15) 0.90020(17) 0.80788(16)
O2 O 0.6008(2) 0.88185(19) 0.97075(19)
Zn2_2 Zn 0.500000 1.000000 0.750000
N8 N 0.59980(17) 0.69212(16) 0.98277(15)
Zn1_3 Zn 0.500000 0.250000 0.000000
C4_2 C 0.4238(3) 0.2068(3) 0.1503(3)
H3_2 H 0.388656 0.248820 0.147160
C5_2 C 0.5137(3) 0.12730(17) 0.12730(17)
N4_2 N 0.48277(15) 0.19212(16) 0.09980(17)
N5_2 N 0.5764(3) 0.0892(2) 0.0892(2)
O3_2 O 0.6008(2) 0.02925(19) 0.11815(19)
C6_2 C 0.4238(3) 0.1503(3) 0.2068(3)
H4_2 H 0.388656 0.147160 0.248820
N6_2 N 0.48277(15) 0.09980(17) 0.19212(16)
O4_2 O 0.6008(2) 0.11815(19) 0.02925(19)
N7_2 N 0.59980(17) 0.30788(16) 0.01723(15)
Zn1_4 Zn 0.500000 0.250000 1.000000
C1_2 C 0.5762(3) 0.2068(3) 0.8497(3)
H1_2 H 0.611344 0.248820 0.852840
C2_2 C 0.4863(3) 0.12730(17) 0.87270(17)
N1_2 N 0.51723(15) 0.19212(16) 0.90020(17)
N2_2 N 0.4236(3) 0.0892(2) 0.9108(2)
O1_2 O 0.3992(2) 0.02925(19) 0.88185(19)
C3_2 C 0.5762(3) 0.1503(3) 0.7932(3)
H2_2 H 0.611344 0.147160 0.751180
N3_2 N 0.51723(15) 0.09980(17) 0.80788(16)
O2_2 O 0.3992(2) 0.11815(19) 0.97075(19)
N8_2 N 0.40020(17) 0.30788(16) 0.98277(15)
Zn3_3 Zn 0.250000 0.500000 -0.000000
Zn1_5 Zn -0.000000 0.500000 0.750000
C4_3 C 0.1503(3) 0.5762(3) 0.7932(3)
H3_3 H 0.147160 0.611344 0.751180
C5_3 C 0.12730(17) 0.4863(3) 0.87270(17)
N4_3 N 0.09980(17) 0.51723(15) 0.80788(16)
N5_3 N 0.0892(2) 0.4236(3) 0.9108(2)
O3_3 O 0.11815(19) 0.3992(2) 0.97075(19)
C6_3 C 0.2068(3) 0.5762(3) 0.8497(3)
H4_3 H 0.248820 0.611344 0.852840
N6_3 N 0.19212(16) 0.51723(15) 0.90020(17)
O4_3 O 0.02925(19) 0.3992(2) 0.88185(19)
Zn3_4 Zn 0.250000 0.500000 1.000000
N7_3 N 0.01723(15) 0.40020(17) 0.69212(16)
Zn2_3 Zn 0.750000 0.500000 0.000000
Zn1_6 Zn 1.000000 0.500000 0.750000
C1_3 C 0.8497(3) 0.4238(3) 0.7932(3)
H1_3 H 0.852840 0.388656 0.751180
C2_3 C 0.87270(17) 0.5137(3) 0.87270(17)
N1_3 N 0.90020(17) 0.48277(15) 0.80788(16)
N2_3 N 0.9108(2) 0.5764(3) 0.9108(2)
O1_3 O 0.88185(19) 0.6008(2) 0.97075(19)
C3_3 C 0.7932(3) 0.4238(3) 0.8497(3)
H2_3 H 0.751180 0.388656 0.852840
N3_3 N 0.80788(16) 0.48277(15) 0.90020(17)
O2_3 O 0.97075(19) 0.6008(2) 0.88185(19)
Zn2_4 Zn 0.750000 0.500000 1.000000
N8_3 N 0.98277(15) 0.59980(17) 0.69212(16)
Zn1_7 Zn 0.000000 0.500000 0.250000
C4_4 C 0.1503(3) 0.4238(3) 0.2068(3)
H3_4 H 0.147160 0.388656 0.248820
C5_4 C 0.12730(17) 0.5137(3) 0.12730(17)
N4_4 N 0.09980(17) 0.48277(15) 0.19212(16)
N5_4 N 0.0892(2) 0.5764(3) 0.0892(2)
O3_4 O 0.11815(19) 0.6008(2) 0.02925(19)
C6_4 C 0.2068(3) 0.4238(3) 0.1503(3)
H4_4 H 0.248820 0.388656 0.147160
N6_4 N 0.19212(16) 0.48277(15) 0.09980(17)
O4_4 O 0.02925(19) 0.6008(2) 0.11815(19)
N7_4 N 0.01723(15) 0.59980(17) 0.30788(16)
Zn1_8 Zn 1.000000 0.500000 0.250000
C1_4 C 0.8497(3) 0.5762(3) 0.2068(3)
H1_4 H 0.852840 0.611344 0.248820
C2_4 C 0.87270(17) 0.4863(3) 0.12730(17)
N1_4 N 0.90020(17) 0.51723(15) 0.19212(16)
N2_4 N 0.9108(2) 0.4236(3) 0.0892(2)
O1_4 O 0.88185(19) 0.3992(2) 0.02925(19)
C3_4 C 0.7932(3) 0.5762(3) 0.1503(3)
H2_4 H 0.751180 0.611344 0.147160
N3_4 N 0.80788(16) 0.51723(15) 0.09980(17)
O2_4 O 0.97075(19) 0.3992(2) 0.11815(19)
N8_4 N 0.98277(15) 0.40020(17) 0.30788(16)
Zn3_5 Zn -0.000000 0.250000 0.500000
Zn2_5 Zn 0.000000 0.750000 0.500000
Zn1_9 Zn 0.750000 0.000000 0.500000
C4_5 C 0.7932(3) 0.1503(3) 0.5762(3)
H3_5 H 0.751180 0.147160 0.611344
C5_5 C 0.87270(17) 0.12730(17) 0.4863(3)
N4_5 N 0.80788(16) 0.09980(17) 0.51723(15)
N5_5 N 0.9108(2) 0.0892(2) 0.4236(3)
O3_5 O 0.97075(19) 0.11815(19) 0.3992(2)
C6_5 C 0.8497(3) 0.2068(3) 0.5762(3)
H4_5 H 0.852840 0.248820 0.611344
N6_5 N 0.90020(17) 0.19212(16) 0.51723(15)
O4_5 O 0.88185(19) 0.02925(19) 0.3992(2)
Zn3_6 Zn 1.000000 0.250000 0.500000
N7_5 N 0.69212(16) 0.01723(15) 0.40020(17)
Zn1_10 Zn 0.750000 1.000000 0.500000
C1_5 C 0.7932(3) 0.8497(3) 0.4238(3)
H1_5 H 0.751180 0.852840 0.388656
C2_5 C 0.87270(17) 0.87270(17) 0.5137(3)
N1_5 N 0.80788(16) 0.90020(17) 0.48277(15)
N2_5 N 0.9108(2) 0.9108(2) 0.5764(3)
O1_5 O 0.97075(19) 0.88185(19) 0.6008(2)
C3_5 C 0.8497(3) 0.7932(3) 0.4238(3)
H2_5 H 0.852840 0.751180 0.388656
N3_5 N 0.90020(17) 0.80788(16) 0.48277(15)
O2_5 O 0.88185(19) 0.97075(19) 0.6008(2)
Zn2_6 Zn 1.000000 0.750000 0.500000
N8_5 N 0.69212(16) 0.98277(15) 0.59980(17)
Zn1_11 Zn 0.250000 0.000000 0.500000
C4_6 C 0.2068(3) 0.1503(3) 0.4238(3)
H3_6 H 0.248820 0.147160 0.388656
C5_6 C 0.12730(17) 0.12730(17) 0.5137(3)
N4_6 N 0.19212(16) 0.09980(17) 0.48277(15)
N5_6 N 0.0892(2) 0.0892(2) 0.5764(3)
O3_6 O 0.02925(19) 0.11815(19) 0.6008(2)
C6_6 C 0.1503(3) 0.2068(3) 0.4238(3)
H4_6 H 0.147160 0.248820 0.388656
N6_6 N 0.09980(17) 0.19212(16) 0.48277(15)
O4_6 O 0.11815(19) 0.02925(19) 0.6008(2)
N7_6 N 0.30788(16) 0.01723(15) 0.59980(17)
Zn1_12 Zn 0.250000 1.000000 0.500000
C1_6 C 0.2068(3) 0.8497(3) 0.5762(3)
H1_6 H 0.248820 0.852840 0.611344
C2_6 C 0.12730(17) 0.87270(17) 0.4863(3)
N1_6 N 0.19212(16) 0.90020(17) 0.51723(15)
N2_6 N 0.0892(2) 0.9108(2) 0.4236(3)
O1_6 O 0.02925(19) 0.88185(19) 0.3992(2)
C3_6 C 0.1503(3) 0.7932(3) 0.5762(3)
H2_6 H 0.147160 0.751180 0.611344
N3_6 N 0.09980(17) 0.80788(16) 0.51723(15)
O2_6 O 0.11815(19) 0.97075(19) 0.3992(2)
N8_6 N 0.30788(16) 0.98277(15) 0.40020(17)
N7_7 N 0.69212(16) 0.40020(17) 0.01723(15)
N8_7 N 0.69212(16) 0.59980(17) 0.98277(15)
N7_8 N 0.30788(16) 0.59980(17) 0.01723(15)
N8_8 N 0.30788(16) 0.40020(17) 0.98277(15)
N7_9 N 0.40020(17) 0.01723(15) 0.69212(16)
N8_9 N 0.59980(17) 0.98277(15) 0.69212(16)
N7_10 N 0.59980(17) 0.01723(15) 0.30788(16)
N8_10 N 0.40020(17) 0.98277(15) 0.30788(16)
N7_11 N 0.01723(15) 0.69212(16) 0.40020(17)
N8_11 N 0.98277(15) 0.69212(16) 0.59980(17)
N7_12 N 0.01723(15) 0.30788(16) 0.59980(17)
N8_12 N 0.98277(15) 0.30788(16) 0.40020(17)
C2_7 C 0.0137(3) 0.37270(17) 0.37270(17)
N2_7 N 0.0764(3) 0.4108(2) 0.4108(2)
O1_7 O 0.1008(2) 0.47075(19) 0.38185(19)
O2_7 O 0.1008(2) 0.38185(19) 0.47075(19)
C4_7 C 0.0762(3) 0.2932(3) 0.6503(3)
H3_7 H 0.111344 0.251180 0.647160
C6_7 C 0.0762(3) 0.3497(3) 0.7068(3)
H4_7 H 0.111344 0.352840 0.748820
C1_7 C 0.9238(3) 0.2932(3) 0.3497(3)
H1_7 H 0.888656 0.251180 0.352840
C3_7 C 0.9238(3) 0.3497(3) 0.2932(3)
H2_7 H 0.888656 0.352840 0.251180
C5_7 C 0.9863(3) 0.37270(17) 0.62730(17)
N5_7 N 0.9236(3) 0.4108(2) 0.5892(2)
O3_7 O 0.8992(2) 0.47075(19) 0.61815(19)
O4_7 O 0.8992(2) 0.38185(19) 0.52925(19)
C1_8 C 0.0762(3) 0.7068(3) 0.3497(3)
H1_8 H 0.111344 0.748820 0.352840
C3_8 C 0.0762(3) 0.6503(3) 0.2932(3)
H2_8 H 0.111344 0.647160 0.251180
C5_8 C 0.0137(3) 0.62730(17) 0.62730(17)
N5_8 N 0.0764(3) 0.5892(2) 0.5892(2)
O3_8 O 0.1008(2) 0.52925(19) 0.61815(19)
O4_8 O 0.1008(2) 0.61815(19) 0.52925(19)
C2_8 C 0.9863(3) 0.62730(17) 0.37270(17)
N2_8 N 0.9236(3) 0.5892(2) 0.4108(2)
O1_8 O 0.8992(2) 0.52925(19) 0.38185(19)
O2_8 O 0.8992(2) 0.61815(19) 0.47075(19)
C4_8 C 0.9238(3) 0.7068(3) 0.6503(3)
H3_8 H 0.888656 0.748820 0.647160
C6_8 C 0.9238(3) 0.6503(3) 0.7068(3)
H4_8 H 0.888656 0.647160 0.748820
C2_9 C 0.37270(17) 0.0137(3) 0.37270(17)
N2_9 N 0.4108(2) 0.0764(3) 0.4108(2)
O1_9 O 0.38185(19) 0.1008(2) 0.47075(19)
O2_9 O 0.47075(19) 0.1008(2) 0.38185(19)
C4_9 C 0.6503(3) 0.0762(3) 0.2932(3)
H3_9 H 0.647160 0.111344 0.251180
C6_9 C 0.7068(3) 0.0762(3) 0.3497(3)
H4_9 H 0.748820 0.111344 0.352840
C1_9 C 0.3497(3) 0.9238(3) 0.2932(3)
H1_9 H 0.352840 0.888656 0.251180
C3_9 C 0.2932(3) 0.9238(3) 0.3497(3)
H2_9 H 0.251180 0.888656 0.352840
C5_9 C 0.62730(17) 0.9863(3) 0.37270(17)
N5_9 N 0.5892(2) 0.9236(3) 0.4108(2)
O3_9 O 0.61815(19) 0.8992(2) 0.47075(19)
O4_9 O 0.52925(19) 0.8992(2) 0.38185(19)
C1_10 C 0.3497(3) 0.0762(3) 0.7068(3)
H1_10 H 0.352840 0.111344 0.748820
C3_10 C 0.2932(3) 0.0762(3) 0.6503(3)
H2_10 H 0.251180 0.111344 0.647160
C5_10 C 0.62730(17) 0.0137(3) 0.62730(17)
N5_10 N 0.5892(2) 0.0764(3) 0.5892(2)
O3_10 O 0.61815(19) 0.1008(2) 0.52925(19)
O4_10 O 0.52925(19) 0.1008(2) 0.61815(19)
C2_10 C 0.37270(17) 0.9863(3) 0.62730(17)
N2_10 N 0.4108(2) 0.9236(3) 0.5892(2)
O1_10 O 0.38185(19) 0.8992(2) 0.52925(19)
O2_10 O 0.47075(19) 0.8992(2) 0.61815(19)
C4_10 C 0.6503(3) 0.9238(3) 0.7068(3)
H3_10 H 0.647160 0.888656 0.748820
C6_10 C 0.7068(3) 0.9238(3) 0.6503(3)
H4_10 H 0.748820 0.888656 0.647160
C2_11 C 0.37270(17) 0.37270(17) 0.0137(3)
N2_11 N 0.4108(2) 0.4108(2) 0.0764(3)
O1_11 O 0.47075(19) 0.38185(19) 0.1008(2)
O2_11 O 0.38185(19) 0.47075(19) 0.1008(2)
C4_11 C 0.2932(3) 0.6503(3) 0.0762(3)
H3_11 H 0.251180 0.647160 0.111344
C6_11 C 0.3497(3) 0.7068(3) 0.0762(3)
H4_11 H 0.352840 0.748820 0.111344
C1_11 C 0.2932(3) 0.3497(3) 0.9238(3)
H1_11 H 0.251180 0.352840 0.888656
C3_11 C 0.3497(3) 0.2932(3) 0.9238(3)
H2_11 H 0.352840 0.251180 0.888656
C5_11 C 0.37270(17) 0.62730(17) 0.9863(3)
N5_11 N 0.4108(2) 0.5892(2) 0.9236(3)
O3_11 O 0.47075(19) 0.61815(19) 0.8992(2)
O4_11 O 0.38185(19) 0.52925(19) 0.8992(2)
C1_12 C 0.7068(3) 0.3497(3) 0.0762(3)
H1_12 H 0.748820 0.352840 0.111344
C3_12 C 0.6503(3) 0.2932(3) 0.0762(3)
H2_12 H 0.647160 0.251180 0.111344
C5_12 C 0.62730(17) 0.62730(17) 0.0137(3)
N5_12 N 0.5892(2) 0.5892(2) 0.0764(3)
O3_12 O 0.52925(19) 0.61815(19) 0.1008(2)
O4_12 O 0.61815(19) 0.52925(19) 0.1008(2)
C2_12 C 0.62730(17) 0.37270(17) 0.9863(3)
N2_12 N 0.5892(2) 0.4108(2) 0.9236(3)
O1_12 O 0.52925(19) 0.38185(19) 0.8992(2)
O2_12 O 0.61815(19) 0.47075(19) 0.8992(2)
C4_12 C 0.7068(3) 0.6503(3) 0.9238(3)
H3_12 H 0.748820 0.647160 0.888656
C6_12 C 0.6503(3) 0.7068(3) 0.9238(3)
H4_12 H 0.647160 0.748820 0.888656
loop_
_geom_bond_atom_site_label_1
_geom_bond_atom_site_label_2
_geom_bond_site_symmetry_1
_geom_bond_site_symmetry_2
C4 H3 1_555 1_555
C5 N4 1_555 1_555
N4 Zn1 1_555 1_555
N5 C5 1_555 1_555
O3 N5 1_555 1_555
C6 C4 1_555 1_555
H4 C6 1_555 1_555
N6 C5 1_555 1_555
O4 N5 1_555 1_555
Zn3_2 N6 1_555 1_555
N7 Zn1 1_555 1_555
C4 N4 1_555 1_555
C6 N6 1_555 1_555
Zn1_2 N1 1_555 1_555
C1 H1 1_555 1_555
C2 N1 1_555 1_555
N1 C1 1_555 1_555
N2 C2 1_555 1_555
O1 N2 1_555 1_555
C3 C1 1_555 1_555
H2 C3 1_555 1_555
N3 C2 1_555 1_555
O2 N2 1_555 1_555
Zn2_2 N3 1_555 1_555
N8 Zn1_2 1_555 1_555
C3 N3 1_555 1_555
C4_2 H3_2 1_555 1_555
C5_2 N4_2 1_555 1_555
N4_2 Zn1_3 1_555 1_555
N5_2 C5_2 1_555 1_555
O3_2 N5_2 1_555 1_555
C6_2 C4_2 1_555 1_555
H4_2 C6_2 1_555 1_555
N6_2 C5_2 1_555 1_555
O4_2 N5_2 1_555 1_555
Zn3 N6_2 1_555 1_555
N7_2 Zn1_3 1_555 1_555
C4_2 N4_2 1_555 1_555
C6_2 N6_2 1_555 1_555
Zn1_4 N1_2 1_555 1_555
C1_2 H1_2 1_555 1_555
C2_2 N1_2 1_555 1_555
N1_2 C1_2 1_555 1_555
N2_2 C2_2 1_555 1_555
O1_2 N2_2 1_555 1_555
C3_2 C1_2 1_555 1_555
H2_2 C3_2 1_555 1_555
N3_2 C2_2 1_555 1_555
O2_2 N2_2 1_555 1_555
Zn2 N3_2 1_555 1_555
N8_2 Zn1_4 1_555 1_555
C3_2 N3_2 1_555 1_555
C4_3 H3_3 1_555 1_555
C5_3 N4_3 1_555 1_555
N4_3 Zn1_5 1_555 1_555
N5_3 C5_3 1_555 1_555
O3_3 N5_3 1_555 1_555
C6_3 C4_3 1_555 1_555
H4_3 C6_3 1_555 1_555
N6_3 C5_3 1_555 1_555
O4_3 N5_3 1_555 1_555
Zn3_4 N6_3 1_555 1_555
N7_3 Zn1_5 1_555 1_555
C4_3 N4_3 1_555 1_555
C6_3 N6_3 1_555 1_555
Zn1_6 N1_3 1_555 1_555
C1_3 H1_3 1_555 1_555
C2_3 N1_3 1_555 1_555
N1_3 C1_3 1_555 1_555
N2_3 C2_3 1_555 1_555
O1_3 N2_3 1_555 1_555
C3_3 C1_3 1_555 1_555
H2_3 C3_3 1_555 1_555
N3_3 C2_3 1_555 1_555
O2_3 N2_3 1_555 1_555
Zn2_4 N3_3 1_555 1_555
N8_3 Zn1_6 1_555 1_555
C3_3 N3_3 1_555 1_555
C4_4 H3_4 1_555 1_555
C5_4 N4_4 1_555 1_555
N4_4 Zn1_7 1_555 1_555
N5_4 C5_4 1_555 1_555
O3_4 N5_4 1_555 1_555
C6_4 C4_4 1_555 1_555
H4_4 C6_4 1_555 1_555
N6_4 C5_4 1_555 1_555
O4_4 N5_4 1_555 1_555
Zn3_3 N6_4 1_555 1_555
N7_4 Zn1_7 1_555 1_555
C4_4 N4_4 1_555 1_555
C6_4 N6_4 1_555 1_555
Zn1_8 N1_4 1_555 1_555
C1_4 H1_4 1_555 1_555
C2_4 N1_4 1_555 1_555
N1_4 C1_4 1_555 1_555
N2_4 C2_4 1_555 1_555
O1_4 N2_4 1_555 1_555
C3_4 C1_4 1_555 1_555
H2_4 C3_4 1_555 1_555
N3_4 C2_4 1_555 1_555
O2_4 N2_4 1_555 1_555
Zn2_3 N3_4 1_555 1_555
N8_4 Zn1_8 1_555 1_555
C3_4 N3_4 1_555 1_555
C4_5 H3_5 1_555 1_555
C5_5 N4_5 1_555 1_555
N4_5 Zn1_9 1_555 1_555
N5_5 C5_5 1_555 1_555
O3_5 N5_5 1_555 1_555
C6_5 C4_5 1_555 1_555
H4_5 C6_5 1_555 1_555
N6_5 C5_5 1_555 1_555
O4_5 N5_5 1_555 1_555
Zn3_6 N6_5 1_555 1_555
N7_5 Zn1_9 1_555 1_555
C4_5 N4_5 1_555 1_555
C6_5 N6_5 1_555 1_555
Zn1_10 N1_5 1_555 1_555
C1_5 H1_5 1_555 1_555
C2_5 N1_5 1_555 1_555
N1_5 C1_5 1_555 1_555
N2_5 C2_5 1_555 1_555
O1_5 N2_5 1_555 1_555
C3_5 C1_5 1_555 1_555
H2_5 C3_5 1_555 1_555
N3_5 C2_5 1_555 1_555
O2_5 N2_5 1_555 1_555
Zn2_6 N3_5 1_555 1_555
N8_5 Zn1_10 1_555 1_555
C3_5 N3_5 1_555 1_555
C4_6 H3_6 1_555 1_555
C5_6 N4_6 1_555 1_555
N4_6 Zn1_11 1_555 1_555
N5_6 C5_6 1_555 1_555
O3_6 N5_6 1_555 1_555
C6_6 C4_6 1_555 1_555
H4_6 C6_6 1_555 1_555
N6_6 C5_6 1_555 1_555
O4_6 N5_6 1_555 1_555
Zn3_5 N6_6 1_555 1_555
N7_6 Zn1_11 1_555 1_555
C4_6 N4_6 1_555 1_555
C6_6 N6_6 1_555 1_555
Zn1_12 N1_6 1_555 1_555
C1_6 H1_6 1_555 1_555
C2_6 N1_6 1_555 1_555
N1_6 C1_6 1_555 1_555
N2_6 C2_6 1_555 1_555
O1_6 N2_6 1_555 1_555
C3_6 C1_6 1_555 1_555
H2_6 C3_6 1_555 1_555
N3_6 C2_6 1_555 1_555
O2_6 N2_6 1_555 1_555
Zn2_5 N3_6 1_555 1_555
N8_6 Zn1_12 1_555 1_555
C3_6 N3_6 1_555 1_555
N7_7 Zn2_3 1_555 1_555
N8_7 Zn2_4 1_555 1_555
N7_8 Zn3_3 1_555 1_555
N8_8 Zn3_4 1_555 1_555
N7_9 Zn2 1_555 1_555
N8_9 Zn2_2 1_555 1_555
N7_10 Zn3 1_555 1_555
N8_10 Zn3_2 1_555 1_555
N7_11 Zn2_5 1_555 1_555
N8_11 Zn2_6 1_555 1_555
N7_12 Zn3_5 1_555 1_555
N8_12 Zn3_6 1_555 1_555
N2_7 C2_7 1_555 1_555
O1_7 N2_7 1_555 1_555
O2_7 N2_7 1_555 1_555
C4_7 H3_7 1_555 1_555
C6_7 C4_7 1_555 1_555
H4_7 C6_7 1_555 1_555
C4_7 N7_12 1_555 1_555
C6_7 N7_3 1_555 1_555
C1_7 H1_7 1_555 1_555
N8_12 C1_7 1_555 1_555
C3_7 C1_7 1_555 1_555
H2_7 C3_7 1_555 1_555
N5_7 C5_7 1_555 1_555
O3_7 N5_7 1_555 1_555
O4_7 N5_7 1_555 1_555
C3_7 N8_4 1_555 1_555
C1_8 H1_8 1_555 1_555
N7_11 C1_8 1_555 1_555
C3_8 C1_8 1_555 1_555
H2_8 C3_8 1_555 1_555
N5_8 C5_8 1_555 1_555
O3_8 N5_8 1_555 1_555
O4_8 N5_8 1_555 1_555
C3_8 N7_4 1_555 1_555
N2_8 C2_8 1_555 1_555
O1_8 N2_8 1_555 1_555
O2_8 N2_8 1_555 1_555
C4_8 H3_8 1_555 1_555
C6_8 C4_8 1_555 1_555
H4_8 C6_8 1_555 1_555
C4_8 N8_11 1_555 1_555
C6_8 N8_3 1_555 1_555
N2_9 C2_9 1_555 1_555
O1_9 N2_9 1_555 1_555
O2_9 N2_9 1_555 1_555
C4_9 H3_9 1_555 1_555
C6_9 C4_9 1_555 1_555
H4_9 C6_9 1_555 1_555
C4_9 N7_10 1_555 1_555
C6_9 N7_5 1_555 1_555
C1_9 H1_9 1_555 1_555
N8_10 C1_9 1_555 1_555
C3_9 C1_9 1_555 1_555
H2_9 C3_9 1_555 1_555
N5_9 C5_9 1_555 1_555
O3_9 N5_9 1_555 1_555
O4_9 N5_9 1_555 1_555
C3_9 N8_6 1_555 1_555
C1_10 H1_10 1_555 1_555
N7_9 C1_10 1_555 1_555
C3_10 C1_10 1_555 1_555
H2_10 C3_10 1_555 1_555
N5_10 C5_10 1_555 1_555
O3_10 N5_10 1_555 1_555
O4_10 N5_10 1_555 1_555
C3_10 N7_6 1_555 1_555
N2_10 C2_10 1_555 1_555
O1_10 N2_10 1_555 1_555
O2_10 N2_10 1_555 1_555
C4_10 H3_10 1_555 1_555
C6_10 C4_10 1_555 1_555
H4_10 C6_10 1_555 1_555
C4_10 N8_9 1_555 1_555
C6_10 N8_5 1_555 1_555
N2_11 C2_11 1_555 1_555
O1_11 N2_11 1_555 1_555
O2_11 N2_11 1_555 1_555
C4_11 H3_11 1_555 1_555
C6_11 C4_11 1_555 1_555
H4_11 C6_11 1_555 1_555
C4_11 N7_8 1_555 1_555
C6_11 N7 1_555 1_555
C1_11 H1_11 1_555 1_555
N8_8 C1_11 1_555 1_555
C3_11 C1_11 1_555 1_555
H2_11 C3_11 1_555 1_555
N5_11 C5_11 1_555 1_555
O3_11 N5_11 1_555 1_555
O4_11 N5_11 1_555 1_555
C3_11 N8_2 1_555 1_555
C1_12 H1_12 1_555 1_555
N7_7 C1_12 1_555 1_555
C3_12 C1_12 1_555 1_555
H2_12 C3_12 1_555 1_555
N5_12 C5_12 1_555 1_555
O3_12 N5_12 1_555 1_555
O4_12 N5_12 1_555 1_555
C3_12 N7_2 1_555 1_555
N2_12 C2_12 1_555 1_555
O1_12 N2_12 1_555 1_555
O2_12 N2_12 1_555 1_555
C4_12 H3_12 1_555 1_555
C6_12 C4_12 1_555 1_555
H4_12 C6_12 1_555 1_555
C4_12 N8_7 1_555 1_555
C6_12 N8 1_555 1_555

#END
