
###############################################################################
#
# This file contains modified crystal structure data generated from the
# MOF subset of the Cambridge Structural Database (CSD) v543 
# hosted by the Cambridge Crystallographic Data Centre (CCDC).
#
# This work is licensed under the Creative Commons
# Attribution-NonCommercial-ShareAlike 4.0 International License.
# To view a copy of this license, visit
# http://creativecommons.org/licenses/by-nc-sa/4.0/
# or send a letter to
# Creative Commons, PO Box 1866, Mountain View, CA 94042, USA.
#
# CIF created using the CSD Python API on 29 September 2022
# The structure has been converted into the P1 space group
# The structure has a 3D framework
# The original CSD entry MINNEF is in the triclinic crystal system
# The framework has been calculated to contain at least 10.0% void space
# The void calculation uses a probe of radius 1.32A, grid spacing 0.4
#
###############################################################################

data_MINNEF
_chemical_formula_moiety         '(C72 H48 Ni6 O28)n'
_symmetry_cell_setting           triclinic
_symmetry_space_group_name_H-M   'P 1'
_symmetry_Int_Tables_number      1
_space_group_name_Hall           'P 1'
loop_
_symmetry_equiv_pos_site_id
_symmetry_equiv_pos_as_xyz
1 x,y,z
_cell_length_a                   7.0774(8)
_cell_length_b                   13.6205(14)
_cell_length_c                   20.681(2)
_cell_angle_alpha                98.818(2)
_cell_angle_beta                 95.963(2)
_cell_angle_gamma                101.624(2)
_cell_volume                     1910.84
loop_
_atom_site_label
_atom_site_type_symbol
_atom_site_fract_x
_atom_site_fract_y
_atom_site_fract_z
O12 O 0.0879(3) 0.93071(18) 0.32770(11)
H23 H 0.0003 0.5988 0.3524
Ni7 Ni 0.03904(6) 0.85651(3) 0.71160(2)
Ni9 Ni 0.17719(6) 0.93806(3) 0.236771(19)
Ni4 Ni 0.43064(6) 0.15234(3) 0.28637(2)
O2 O 0.7370(4) 0.21031(19) 0.32888(13)
H1 H 0.730(7) 0.201(4) 0.3684(10)
H2 H 0.762(8) 0.2740(12) 0.328(3)
O3 O 0.5397(3) 0.80747(17) 0.25914(12)
O5 O 0.4514(3) 0.00531(17) 0.27897(12)
O6 O 0.1552(3) 0.08425(17) 0.24180(12)
H6 H 0.121(7) 0.100(3) 0.207(2)
O7 O 0.3863(3) 0.29815(17) 0.28692(12)
O13 O 0.2163(3) 0.79337(17) 0.23600(12)
O14 O 0.0621(3) 0.27972(17) 0.26122(12)
O15 O 0.8361(3) 0.00580(16) 0.31755(10)
C1 C 0.2372(5) 0.3295(2) 0.26996(17)
C2 C 0.2683(5) 0.4390(3) 0.26024(18)
C3 C 0.3905(5) 0.5126(3) 0.30817(19)
H7 H 0.4539 0.4932 0.3442
C4 C 0.4204(5) 0.6155(3) 0.30346(18)
H8 H 0.5020 0.6638 0.3367
C5 C 0.3317(5) 0.6459(2) 0.25092(17)
C6 C 0.2095(5) 0.5730(2) 0.19852(17)
C7 C 0.1245(6) 0.6002(3) 0.14048(18)
H9 H 0.1447 0.6685 0.1366
C8 C 0.0139(6) 0.5282(3) 0.0903(2)
C10 C 0.0594(6) 0.3952(3) 0.15012(19)
H12 H 0.0354 0.3264 0.1527
C11 C 0.1764(5) 0.4673(2) 0.20365(17)
C12 C 0.3650(5) 0.7589(2) 0.24831(17)
H19 H 0.7439 0.0251 0.4329
Ni5 Ni 0.96096(6) 0.14349(3) 0.28840(2)
Ni10 Ni 0.64095(6) 0.94401(3) 0.232513(19)
O20 O 0.3957(3) 0.14954(18) 0.38253(11)
O21 O 0.5189(3) 0.16129(18) 0.19601(11)
O22 O 0.1034(3) 0.18811(18) 0.38081(11)
O27 O 0.7671(3) 0.08200(16) 0.20122(10)
Ni11 Ni 0.35905(6) 0.05599(3) 0.767487(19)
O1 O 0.2023(3) 0.92796(18) 0.13755(11)
O4 O 0.8702(4) 0.8767(2) 0.19344(12)
H3 H 0.867(8) 0.880(4) 0.1527(8)
H4 H 0.835(9) 0.8127(12) 0.193(3)
H5 H 0.474(5) 0.991(3) 0.3145(18)
O8 O 0.6043(3) 0.85046(18) 0.61747(11)
O10 O 0.8966(3) 0.81189(18) 0.61919(11)
O11 O 0.5011(3) 0.89758(18) 0.14112(11)
C13 C 0.3405(5) 0.9024(2) 0.11087(16)
C14 C 0.3204(5) 0.8785(2) 0.03680(16)
C15 C 0.2332(5) 0.9390(3) 0.00151(17)
H13 H 0.1710 0.9857 0.0231
C21 C 0.5398(7) 0.6518(3) 0.0020(2)
H17 H 0.5847 0.6050 0.0244
C22 C 0.4721(6) 0.7279(3) 0.03574(19)
H18 H 0.4725 0.7327 0.0811
C23 C 0.4004(5) 0.8006(3) 0.00292(16)
C25 C 0.9338(5) 0.9491(2) 0.34478(16)
C26 C 0.8560(5) 0.9055(2) 0.40150(15)
C27 C 0.7701(5) 0.9650(3) 0.44383(17)
C28 C 0.7214(5) 0.9366(3) 0.50330(17)
H20 H 0.6640 0.9782 0.5314
C29 C 0.7574(5) 0.8481(3) 0.52064(16)
C30 C 0.8272(5) 0.7792(3) 0.47461(17)
C31 C 0.8371(7) 0.6796(3) 0.4851(2)
H21 H 0.8014 0.6592 0.5239
C32 C 0.8967(8) 0.6141(3) 0.4405(2)
H22 H 0.8985 0.5488 0.4481
C33 C 0.9562(8) 0.6440(3) 0.3825(2)
C34 C 0.9503(6) 0.7382(3) 0.36988(18)
H24 H 0.9923 0.7573 0.3316
C35 C 0.8806(5) 0.8078(3) 0.41456(16)
C36 C 0.7490(5) 0.8340(2) 0.59093(16)
Ni13 Ni 0.56936(6) 0.84766(3) 0.71363(2)
O9 O 0.4811(3) 0.83871(18) 0.80399(11)
O16 O 0.2329(3) 0.91800(16) 0.79878(10)
C16 C 0.2372(5) 0.9308(3) 0.93318(17)
H14 H 0.1774 0.9727 0.9104
C17 C 0.3260(5) 0.8632(3) 0.89916(16)
C18 C 0.4061(5) 0.7923(3) 0.93317(16)
C19 C 0.4793(6) 0.7118(3) 0.90048(19)
H15 H 0.4842 0.7057 0.8553
C20 C 0.5429(7) 0.6430(3) 0.9337(2)
H16 H 0.5884 0.5901 0.9110
C24 C 0.3493(5) 0.8714(2) 0.82896(16)
H10 H 0.9595 0.5477 0.0528
C9 C 0.9818(6) 0.4247(3) 0.0953(2)
H11 H 0.9070 0.3760 0.0608
O19 O 0.1298(4) 0.1233(2) 0.80656(12)
H10_2 H 0.0405 0.4523 0.9472
C9_2 C 0.0182(6) 0.5753(3) 0.9047(2)
H11_2 H 0.0930 0.6240 0.9392
O17 O 0.2630(4) 0.78969(19) 0.67112(13)
O25 O 0.1639(3) 0.99420(16) 0.68245(10)
C16_2 C 0.7628(5) 0.0692(3) 0.06682(17)
H14_2 H 0.8226 0.0273 0.0896
C17_2 C 0.6740(5) 0.1368(3) 0.10084(16)
C18_2 C 0.5939(5) 0.2077(3) 0.06683(16)
C19_2 C 0.5207(6) 0.2882(3) 0.09952(19)
H15_2 H 0.5158 0.2943 0.1447
C20_2 C 0.4571(7) 0.3570(3) 0.0663(2)
H16_2 H 0.4116 0.4099 0.0890
C24_2 C 0.6507(5) 0.1286(2) 0.17104(16)
Ni2 Ni 0.82281(6) 0.06194(3) 0.763229(19)
O1_2 O 0.7977(3) 0.07204(18) 0.86245(11)
H3_2 H 0.133(8) 0.120(4) 0.8473(8)
H4_2 H 0.165(9) 0.1873(12) 0.807(3)
H5_2 H 0.526(5) 0.009(3) 0.6855(18)
O11_2 O 0.4989(3) 0.10242(18) 0.85888(11)
C13_2 C 0.6595(5) 0.0976(2) 0.88913(16)
C14_2 C 0.6796(5) 0.1215(2) 0.96320(16)
C15_2 C 0.7668(5) 0.0610(3) 0.99849(17)
H13_2 H 0.8290 0.0143 0.9769
C21_2 C 0.4602(7) 0.3482(3) 0.9980(2)
H17_2 H 0.4153 0.3950 0.9756
C22_2 C 0.5279(6) 0.2721(3) 0.96426(19)
H18_2 H 0.5275 0.2673 0.9189
C23_2 C 0.5996(5) 0.1994(3) 0.99708(16)
C25_2 C 0.0662(5) 0.0509(2) 0.65522(16)
C26_2 C 0.1440(5) 0.0945(2) 0.59850(15)
C27_2 C 0.2299(5) 0.0350(3) 0.55617(17)
C28_2 C 0.2786(5) 0.0634(3) 0.49670(17)
H20_2 H 0.3360 0.0218 0.4686
C29_2 C 0.2426(5) 0.1519(3) 0.47936(16)
C30_2 C 0.1728(5) 0.2208(3) 0.52539(17)
C31_2 C 0.1629(7) 0.3204(3) 0.5149(2)
H21_2 H 0.1986 0.3408 0.4761
C32_2 C 0.1033(8) 0.3859(3) 0.5595(2)
H22_2 H 0.1015 0.4512 0.5519
C33_2 C 0.0438(8) 0.3560(3) 0.6175(2)
C34_2 C 0.0497(6) 0.2618(3) 0.63012(18)
H24_2 H 0.0077 0.2427 0.6684
C35_2 C 0.1194(5) 0.1922(3) 0.58544(16)
C36_2 C 0.2510(5) 0.1660(2) 0.40907(16)
O18 O 0.4603(3) 0.19253(17) 0.74086(12)
O23 O 0.9121(3) 0.06929(18) 0.67230(11)
O24 O 0.7837(3) 0.20663(17) 0.76400(12)
H1_2 H 0.270(7) 0.799(4) 0.6316(10)
H2_2 H 0.238(8) 0.7260(12) 0.672(3)
O5_2 O 0.5486(3) 0.99469(17) 0.72103(12)
O6_2 O 0.8448(3) 0.91575(17) 0.75820(12)
H6_2 H 0.879(7) 0.900(3) 0.793(2)
O7_2 O 0.6137(3) 0.70185(17) 0.71308(12)
O14_2 O 0.9379(3) 0.72028(17) 0.73878(12)
C1_2 C 0.7628(5) 0.6705(2) 0.73004(17)
C2_2 C 0.7317(5) 0.5610(3) 0.73976(18)
C3_2 C 0.6095(5) 0.4874(3) 0.69183(19)
H7_2 H 0.5461 0.5068 0.6558
C4_2 C 0.5796(5) 0.3845(3) 0.69654(18)
H8_2 H 0.4980 0.3362 0.6633
C5_2 C 0.6683(5) 0.3541(2) 0.74908(17)
C6_2 C 0.7905(5) 0.4270(2) 0.80148(17)
C7_2 C 0.8755(6) 0.3998(3) 0.85952(18)
H9_2 H 0.8553 0.3315 0.8634
C8_2 C 0.9861(6) 0.4718(3) 0.9097(2)
C10_2 C 0.9406(6) 0.6048(3) 0.84988(19)
H12_2 H 0.9646 0.6736 0.8473
C11_2 C 0.8236(5) 0.5327(2) 0.79635(17)
C12_2 C 0.6350(5) 0.2411(2) 0.75169(17)
H19_2 H 0.2561 0.9749 0.5671
H23_2 H 0.9997 0.4012 0.6476
loop_
_geom_bond_atom_site_label_1
_geom_bond_atom_site_label_2
_geom_bond_site_symmetry_1
_geom_bond_site_symmetry_2
O12 Ni9 1_555 1_555
Ni4 O2 1_555 1_555
O2 H1 1_555 1_555
H2 O2 1_555 1_555
O3 C12 1_555 1_555
H6 O6 1_555 1_555
O7 Ni4 1_555 1_555
O13 C12 1_555 1_555
C1 O7 1_555 1_555
C2 C1 1_555 1_555
C3 C2 1_555 1_555
H7 C3 1_555 1_555
C4 C3 1_555 1_555
H8 C4 1_555 1_555
C5 C4 1_555 1_555
C6 C5 1_555 1_555
C7 C6 1_555 1_555
H9 C7 1_555 1_555
C8 C7 1_555 1_555
H12 C10 1_555 1_555
C11 C2 1_555 1_555
C12 C5 1_555 1_555
Ni5 O2 1_555 1_555
Ni9 O13 1_555 1_555
Ni10 O3 1_555 1_555
O20 Ni4 1_555 1_555
O21 Ni4 1_555 1_555
Ni4 O5 1_555 1_555
Ni4 O6 1_555 1_555
O14 C1 1_555 1_555
O15 Ni5 1_555 1_555
C6 C11 1_555 1_555
C10 C11 1_555 1_555
Ni5 O27 1_555 1_555
Ni9 O1 1_555 1_555
Ni10 O4 1_555 1_555
O1 C13 1_555 1_555
O4 H3 1_555 1_555
H4 O4 1_555 1_555
O8 C36 1_555 1_555
O10 C36 1_555 1_555
O11 Ni10 1_555 1_555
C13 O11 1_555 1_555
C14 C13 1_555 1_555
C15 C14 1_555 1_555
H13 C15 1_555 1_555
H17 C21 1_555 1_555
C22 C21 1_555 1_555
H18 C22 1_555 1_555
C23 C14 1_555 1_555
C26 C25 1_555 1_555
C27 C26 1_555 1_555
C28 C27 1_555 1_555
H20 C28 1_555 1_555
C29 C28 1_555 1_555
C30 C29 1_555 1_555
C31 C30 1_555 1_555
H21 C31 1_555 1_555
C32 C31 1_555 1_555
H22 C32 1_555 1_555
C33 C32 1_555 1_555
C34 C33 1_555 1_555
H24 C34 1_555 1_555
C35 C26 1_555 1_555
C36 C29 1_555 1_555
Ni13 O8 1_555 1_555
C22 C23 1_555 1_555
C30 C35 1_555 1_555
C34 C35 1_555 1_555
O9 C24 1_555 1_555
O16 C24 1_555 1_555
H14 C16 1_555 1_555
C17 C16 1_555 1_555
C18 C17 1_555 1_555
C19 C18 1_555 1_555
H15 C19 1_555 1_555
C20 C19 1_555 1_555
H16 C20 1_555 1_555
C24 C17 1_555 1_555
Ni7 O16 1_555 1_555
Ni13 O9 1_555 1_555
H11 C9 1_555 1_555
H11_2 C9_2 1_555 1_555
O17 Ni7 1_555 1_555
O25 Ni7 1_555 1_555
O21 C24_2 1_555 1_555
O27 C24_2 1_555 1_555
H14_2 C16_2 1_555 1_555
C17_2 C16_2 1_555 1_555
C18_2 C17_2 1_555 1_555
C19_2 C18_2 1_555 1_555
H15_2 C19_2 1_555 1_555
C20_2 C19_2 1_555 1_555
H16_2 C20_2 1_555 1_555
C24_2 C17_2 1_555 1_555
Ni2 O1_2 1_555 1_555
Ni11 O19 1_555 1_555
O1_2 C13_2 1_555 1_555
O19 H3_2 1_555 1_555
H4_2 O19 1_555 1_555
O20 C36_2 1_555 1_555
O22 C36_2 1_555 1_555
O11_2 Ni11 1_555 1_555
C13_2 O11_2 1_555 1_555
C14_2 C13_2 1_555 1_555
C15_2 C14_2 1_555 1_555
H13_2 C15_2 1_555 1_555
H17_2 C21_2 1_555 1_555
C22_2 C21_2 1_555 1_555
H18_2 C22_2 1_555 1_555
C23_2 C14_2 1_555 1_555
C26_2 C25_2 1_555 1_555
C27_2 C26_2 1_555 1_555
C28_2 C27_2 1_555 1_555
H20_2 C28_2 1_555 1_555
C29_2 C28_2 1_555 1_555
C30_2 C29_2 1_555 1_555
C31_2 C30_2 1_555 1_555
H21_2 C31_2 1_555 1_555
C32_2 C31_2 1_555 1_555
H22_2 C32_2 1_555 1_555
C33_2 C32_2 1_555 1_555
C34_2 C33_2 1_555 1_555
H24_2 C34_2 1_555 1_555
C35_2 C26_2 1_555 1_555
C36_2 C29_2 1_555 1_555
O18 Ni11 1_555 1_555
O23 Ni2 1_555 1_555
O24 Ni2 1_555 1_555
C22_2 C23_2 1_555 1_555
C30_2 C35_2 1_555 1_555
C34_2 C35_2 1_555 1_555
Ni13 O17 1_555 1_555
O17 H1_2 1_555 1_555
H2_2 O17 1_555 1_555
O18 C12_2 1_555 1_555
H6_2 O6_2 1_555 1_555
O7_2 Ni13 1_555 1_555
O24 C12_2 1_555 1_555
C1_2 O7_2 1_555 1_555
C2_2 C1_2 1_555 1_555
C3_2 C2_2 1_555 1_555
H7_2 C3_2 1_555 1_555
C4_2 C3_2 1_555 1_555
H8_2 C4_2 1_555 1_555
C5_2 C4_2 1_555 1_555
C6_2 C5_2 1_555 1_555
C7_2 C6_2 1_555 1_555
H9_2 C7_2 1_555 1_555
C8_2 C7_2 1_555 1_555
H12_2 C10_2 1_555 1_555
C11_2 C2_2 1_555 1_555
C12_2 C5_2 1_555 1_555
Ni13 O5_2 1_555 1_555
Ni13 O6_2 1_555 1_555
O14_2 C1_2 1_555 1_555
C6_2 C11_2 1_555 1_555
C10_2 C11_2 1_555 1_555

#END
