
###############################################################################
#
# This file contains modified crystal structure data generated from the
# MOF subset of the Cambridge Structural Database (CSD) v543 
# hosted by the Cambridge Crystallographic Data Centre (CCDC).
#
# This work is licensed under the Creative Commons
# Attribution-NonCommercial-ShareAlike 4.0 International License.
# To view a copy of this license, visit
# http://creativecommons.org/licenses/by-nc-sa/4.0/
# or send a letter to
# Creative Commons, PO Box 1866, Mountain View, CA 94042, USA.
#
# CIF created using the CSD Python API on 29 September 2022
# The structure has been converted into the P1 space group
# The structure has a 3D framework
# The original CSD entry MIQSIR is in the orthorhombic crystal system
# The original CSD entry MIQSIR is in a Sohncke space group
# The framework has been calculated to contain at least 10.0% void space
# The void calculation uses a probe of radius 1.32A, grid spacing 0.4
#
###############################################################################

data_MIQSIR
_chemical_formula_moiety         '(C60 H72 O28 Zn8)n'
_symmetry_cell_setting           triclinic
_symmetry_space_group_name_H-M   'P 1'
_symmetry_Int_Tables_number      1
_space_group_name_Hall           'P 1'
loop_
_symmetry_equiv_pos_site_id
_symmetry_equiv_pos_as_xyz
1 x,y,z
_cell_length_a                   10.35165(14)
_cell_length_b                   10.89975(16)
_cell_length_c                   20.4702(3)
_cell_angle_alpha                90
_cell_angle_beta                 90
_cell_angle_gamma                90
_cell_volume                     2309.66
loop_
_atom_site_label
_atom_site_type_symbol
_atom_site_fract_x
_atom_site_fract_y
_atom_site_fract_z
Zn5 Zn 0.13646(3) 0.66771(3) 0.49006(2)
Zn1 Zn 0.44884(3) 0.56765(2) 0.49671(2)
O1 O 0.3839(2) 0.50457(19) 0.41337(10)
O2 O 0.1772(2) 0.5644(2) 0.41301(10)
O3 O 0.3414(2) 0.4019(2) 0.07896(10)
O4 O 0.1315(2) 0.4512(2) 0.08347(10)
C1 C 0.2758(3) 0.5226(3) 0.38649(14)
C2 C 0.2663(3) 0.4915(3) 0.31518(14)
C3 C 0.1474(3) 0.5017(3) 0.28351(15)
H1 H 0.0720 0.5220 0.3076
C4 C 0.1398(3) 0.4820(3) 0.21658(15)
H2 H 0.0590 0.4898 0.1949
C5 C 0.2493(3) 0.4509(3) 0.18119(13)
C6 C 0.3671(3) 0.4379(3) 0.21298(13)
H3 H 0.4419 0.4149 0.1890
C7 C 0.3755(3) 0.4586(3) 0.27980(14)
H4 H 0.4562 0.4502 0.3014
C8 C 0.2396(3) 0.4326(3) 0.10866(13)
O5 O 0.95228(19) 0.61448(18) 0.47661(11)
O6 O 0.83487(17) 0.77096(17) 0.51470(10)
C9 C 0.7248(2) 0.5942(3) 0.47382(15)
H5 H 0.7333 0.5091 0.4916
O7 O 0.61618(16) 0.65080(16) 0.50371(11)
C10 C 0.8479(2) 0.6651(2) 0.48999(13)
C11 C 0.7102(3) 0.5860(3) 0.39957(16)
H6 H 0.7869 0.5465 0.3809
H7 H 0.6334 0.5375 0.3889
H8 H 0.7011 0.6687 0.3814
O8 O 0.5390(2) 0.39259(17) 0.51483(11)
H9 H 0.588(3) 0.394(2) 0.5529(11)
C12 C 0.4530(6) 0.2241(4) 0.5794(3)
H10 H 0.4108 0.1438 0.5765
H11 H 0.5356 0.2156 0.6023
H12 H 0.3972 0.2810 0.6035
C13 C 0.4766(3) 0.2737(3) 0.5110(2)
H13 H 0.3910 0.2847 0.4891
C14 C 0.5566(5) 0.1874(3) 0.4698(2)
H14 H 0.5113 0.1077 0.4665
H15 H 0.6402 0.1728 0.4920
C15 C 0.5825(7) 0.2353(4) 0.4018(3)
H16 H 0.6346 0.1755 0.3776
H17 H 0.5003 0.2481 0.3791
H18 H 0.6293 0.3132 0.4046
Zn4 Zn 0.94884(3) 0.93235(2) 0.50329(2)
Zn7 Zn 0.63646(3) 0.83229(3) 0.50994(2)
O9 O 0.1586(2) 0.5981(2) 0.57896(10)
O10 O 0.3685(2) 0.5488(2) 0.58347(10)
O12 O 0.33487(17) 0.72904(17) 0.48530(10)
O13 O 0.11618(16) 0.84920(16) 0.49629(11)
Zn3 Zn 0.05116(3) 0.43235(2) 0.99671(2)
Zn6 Zn 0.36354(3) 0.33229(3) 0.99006(2)
C12_2 C 0.0470(6) 0.7759(4) 0.0794(3)
H10_2 H 0.0892 0.8562 0.0765
H12_2 H 0.1028 0.7190 0.1035
C13_2 C 0.0234(3) 0.7263(3) 0.0110(2)
O1_2 O 0.1161(2) 0.49543(19) 0.91337(10)
O2_2 O 0.3228(2) 0.4356(2) 0.91301(10)
C1_2 C 0.2242(3) 0.4774(3) 0.88649(14)
C2_2 C 0.2337(3) 0.5085(3) 0.81518(14)
C3_2 C 0.3526(3) 0.4983(3) 0.78351(15)
H1_2 H 0.4280 0.4780 0.8076
C4_2 C 0.3602(3) 0.5180(3) 0.71658(15)
H2_2 H 0.4410 0.5102 0.6949
C5_2 C 0.2507(3) 0.5491(3) 0.68119(13)
C6_2 C 0.1329(3) 0.5621(3) 0.71298(13)
H3_2 H 0.0581 0.5851 0.6890
C7_2 C 0.1245(3) 0.5414(3) 0.77980(14)
H4_2 H 0.0438 0.5498 0.8014
C8_2 C 0.2604(3) 0.5674(3) 0.60866(13)
H13_2 H 0.1090 0.7153 0.9891
O11 O 0.54772(19) 0.38552(18) 0.97661(11)
O12_2 O 0.16513(17) 0.27096(17) 0.98530(10)
O13_2 O 0.38382(16) 0.15080(16) 0.99629(11)
C9_2 C 0.7752(2) 0.4058(3) 0.97382(15)
H5_2 H 0.7667 0.4909 0.9916
C10_2 C 0.6521(2) 0.3349(2) 0.98999(13)
C11_2 C 0.7898(3) 0.4140(3) 0.89957(16)
H6_2 H 0.7131 0.4535 0.8809
H7_2 H 0.8666 0.4625 0.8889
H8_2 H 0.7989 0.3313 0.8814
C14_2 C 0.9434(5) 0.8126(3) 0.9698(2)
H14_2 H 0.9887 0.8923 0.9665
H15_2 H 0.8598 0.8272 0.9920
C15_2 C 0.9175(7) 0.7647(4) 0.9018(3)
H16_2 H 0.8654 0.8245 0.8776
H17_2 H 0.9997 0.7519 0.8791
H18_2 H 0.8707 0.6868 0.9046
O9_2 O 0.8414(2) 0.0981(2) 0.92104(10)
O10_2 O 0.6315(2) 0.0488(2) 0.91653(10)
O3_2 O 0.6586(2) 0.9019(2) 0.42104(10)
O4_2 O 0.8685(2) 0.9512(2) 0.41653(10)
C2_3 C 0.7337(3) 0.9915(3) 0.18482(14)
C4_3 C 0.8602(3) 0.9820(3) 0.28342(15)
H2_3 H 0.9410 0.9898 0.3051
C5_3 C 0.7507(3) 0.9509(3) 0.31881(13)
C6_3 C 0.6329(3) 0.9379(3) 0.28702(13)
H3_3 H 0.5581 0.9149 0.3110
C7_3 C 0.6245(3) 0.9586(3) 0.22020(14)
H4_3 H 0.5438 0.9502 0.1986
C8_3 C 0.7604(3) 0.9326(3) 0.39134(13)
H13_3 H 0.6090 0.7847 0.0109
C14_3 C 0.4434(5) 0.6874(3) 0.0302(2)
H14_3 H 0.4887 0.6077 0.0335
H15_3 H 0.3598 0.6728 0.0080
C15_3 C 0.4175(7) 0.7353(4) 0.0982(3)
H16_3 H 0.3654 0.6755 0.1224
H17_3 H 0.4997 0.7481 0.1209
H18_3 H 0.3707 0.8132 0.0954
O5_2 O 0.45228(19) 0.88552(18) 0.52339(11)
C9_3 C 0.2248(2) 0.9058(3) 0.52618(15)
H5_3 H 0.2333 0.9909 0.5084
C10_3 C 0.3479(2) 0.8349(2) 0.51001(13)
C11_3 C 0.2102(3) 0.9140(3) 0.60043(16)
H6_3 H 0.2869 0.9535 0.6191
H7_3 H 0.1334 0.9625 0.6111
H8_3 H 0.2011 0.8313 0.6186
C2_4 C 0.7663(3) 0.0085(3) 0.68482(14)
C4_4 C 0.6398(3) 0.0180(3) 0.78342(15)
H2_4 H 0.5590 0.0102 0.8051
C5_4 C 0.7493(3) 0.0491(3) 0.81881(13)
C6_4 C 0.8671(3) 0.0621(3) 0.78702(13)
H3_4 H 0.9419 0.0851 0.8110
C7_4 C 0.8755(3) 0.0414(3) 0.72020(14)
H4_4 H 0.9562 0.0498 0.6986
C8_4 C 0.7396(3) 0.0674(3) 0.89134(13)
C12_3 C 0.9530(6) 0.2759(4) 0.4206(3)
H10_3 H 0.9108 0.3562 0.4235
H12_3 H 0.8972 0.2190 0.3965
C13_3 C 0.9766(3) 0.2263(3) 0.4890(2)
H13_4 H 0.8910 0.2153 0.5109
O1_3 O 0.8839(2) 0.99543(19) 0.58663(10)
O2_3 O 0.6772(2) 0.9356(2) 0.58699(10)
C1_3 C 0.7758(3) 0.9774(3) 0.61351(14)
C3_3 C 0.6474(3) 0.9983(3) 0.71649(15)
H1_3 H 0.5720 0.9780 0.6924
O6_2 O 0.66513(17) 0.22904(17) 0.01470(10)
O7_2 O 0.88382(16) 0.34920(16) 0.00371(11)
O8_2 O 0.9610(2) 0.60741(17) 0.01483(11)
H9_2 H 0.912(3) 0.606(2) 0.0529(11)
H11_2 H 0.9644 0.7844 0.1023
Zn4_2 Zn 0.55116(3) 0.06765(2) 0.00329(2)
Zn7_2 Zn 0.86354(3) 0.16771(3) 0.00994(2)
O11_2 O 0.04772(19) 0.11448(18) 0.02339(11)
O1_4 O 0.6161(2) 0.00457(19) 0.08663(10)
O2_4 O 0.8228(2) 0.0644(2) 0.08699(10)
C1_4 C 0.7242(3) 0.0226(3) 0.11351(14)
C3_4 C 0.8526(3) 0.0017(3) 0.21649(15)
H1_4 H 0.9280 0.0220 0.1924
C9_4 C 0.2752(2) 0.0942(3) 0.02618(15)
H5_4 H 0.2667 0.0091 0.0084
C10_4 C 0.1521(2) 0.1651(2) 0.01001(13)
C11_4 C 0.2898(3) 0.0860(3) 0.10043(16)
H6_4 H 0.2131 0.0465 0.1191
H7_4 H 0.3666 0.0375 0.1111
H8_4 H 0.2989 0.1687 0.1186
O8_3 O 0.4610(2) 0.89259(17) 0.98517(11)
H9_3 H 0.412(3) 0.894(2) 0.9471(11)
C12_4 C 0.5470(6) 0.7241(4) 0.9206(3)
H10_4 H 0.5892 0.6438 0.9235
H11_3 H 0.4644 0.7156 0.8977
H12_4 H 0.6028 0.7810 0.8965
C13_4 C 0.5234(3) 0.7737(3) 0.9890(2)
O8_4 O 0.0390(2) 0.10741(17) 0.48517(11)
H9_4 H 0.088(3) 0.106(2) 0.4471(11)
H11_4 H 0.0356 0.2844 0.3977
C14_4 C 0.0566(5) 0.3126(3) 0.5302(2)
H14_4 H 0.0113 0.3923 0.5335
H15_4 H 0.1402 0.3272 0.5080
C15_4 C 0.0825(7) 0.2647(4) 0.5982(3)
H16_4 H 0.1346 0.3245 0.6224
H17_4 H 0.0003 0.2519 0.6209
H18_4 H 0.1293 0.1868 0.5954
loop_
_geom_bond_atom_site_label_1
_geom_bond_atom_site_label_2
_geom_bond_site_symmetry_1
_geom_bond_site_symmetry_2
Zn1 O1 1_555 1_555
Zn5 O2 1_555 1_555
O1 C1 1_555 1_555
O2 C1 1_555 1_555
O3 C8 1_555 1_555
O4 C8 1_555 1_555
C1 C2 1_555 1_555
C2 C3 1_555 1_555
C3 H1 1_555 1_555
C4 C3 1_555 1_555
H2 C4 1_555 1_555
C5 C4 1_555 1_555
C6 C5 1_555 1_555
H3 C6 1_555 1_555
C7 C2 1_555 1_555
H4 C7 1_555 1_555
C8 C5 1_555 1_555
O5 C10 1_555 1_555
O6 C10 1_555 1_555
C9 H5 1_555 1_555
O7 Zn1 1_555 1_555
C10 C9 1_555 1_555
C11 C9 1_555 1_555
H6 C11 1_555 1_555
H7 C11 1_555 1_555
H8 C11 1_555 1_555
O8 Zn1 1_555 1_555
H9 O8 1_555 1_555
C12 H10 1_555 1_555
H11 C12 1_555 1_555
H12 C12 1_555 1_555
C13 O8 1_555 1_555
H13 C13 1_555 1_555
C14 C13 1_555 1_555
H14 C14 1_555 1_555
H15 C14 1_555 1_555
C15 C14 1_555 1_555
H16 C15 1_555 1_555
H17 C15 1_555 1_555
H18 C15 1_555 1_555
Zn4 O6 1_555 1_555
Zn7 O6 1_555 1_555
O9 Zn5 1_555 1_555
O10 Zn1 1_555 1_555
O12 Zn1 1_555 1_555
O13 Zn5 1_555 1_555
Zn5 O12 1_555 1_555
C6 C7 1_555 1_555
C9 O7 1_555 1_555
O7 Zn7 1_555 1_555
C12 C13 1_555 1_555
C12_2 H10_2 1_555 1_555
H12_2 C12_2 1_555 1_555
C12_2 C13_2 1_555 1_555
Zn3 O1_2 1_555 1_555
Zn6 O2_2 1_555 1_555
O1_2 C1_2 1_555 1_555
O2_2 C1_2 1_555 1_555
O9 C8_2 1_555 1_555
O10 C8_2 1_555 1_555
C1_2 C2_2 1_555 1_555
C2_2 C3_2 1_555 1_555
C3_2 H1_2 1_555 1_555
C4_2 C3_2 1_555 1_555
H2_2 C4_2 1_555 1_555
C5_2 C4_2 1_555 1_555
C6_2 C5_2 1_555 1_555
H3_2 C6_2 1_555 1_555
C7_2 C2_2 1_555 1_555
H4_2 C7_2 1_555 1_555
C8_2 C5_2 1_555 1_555
O11 Zn6 1_555 1_555
O12_2 Zn3 1_555 1_555
O13_2 Zn6 1_555 1_555
Zn6 O12_2 1_555 1_555
C6_2 C7_2 1_555 1_555
O11 C10_2 1_555 1_555
C9_2 H5_2 1_555 1_555
C10_2 C9_2 1_555 1_555
C11_2 C9_2 1_555 1_555
H6_2 C11_2 1_555 1_555
H7_2 C11_2 1_555 1_555
H8_2 C11_2 1_555 1_555
H14_2 C14_2 1_555 1_555
H15_2 C14_2 1_555 1_555
C15_2 C14_2 1_555 1_555
H16_2 C15_2 1_555 1_555
H17_2 C15_2 1_555 1_555
H18_2 C15_2 1_555 1_555
O3_2 C8_3 1_555 1_555
O4_2 C8_3 1_555 1_555
H2_3 C4_3 1_555 1_555
C5_3 C4_3 1_555 1_555
C6_3 C5_3 1_555 1_555
H3_3 C6_3 1_555 1_555
C7_3 C2_3 1_555 1_555
H4_3 C7_3 1_555 1_555
C8_3 C5_3 1_555 1_555
H14_3 C14_3 1_555 1_555
H15_3 C14_3 1_555 1_555
C15_3 C14_3 1_555 1_555
H16_3 C15_3 1_555 1_555
H17_3 C15_3 1_555 1_555
H18_3 C15_3 1_555 1_555
Zn4 O4_2 1_555 1_555
Zn7 O3_2 1_555 1_555
C6_3 C7_3 1_555 1_555
O5_2 C10_3 1_555 1_555
O12 C10_3 1_555 1_555
C9_3 H5_3 1_555 1_555
C10_3 C9_3 1_555 1_555
C11_3 C9_3 1_555 1_555
H6_3 C11_3 1_555 1_555
H7_3 C11_3 1_555 1_555
H8_3 C11_3 1_555 1_555
Zn7 O5_2 1_555 1_555
C9_3 O13 1_555 1_555
O9_2 C8_4 1_555 1_555
O10_2 C8_4 1_555 1_555
H2_4 C4_4 1_555 1_555
C5_4 C4_4 1_555 1_555
C6_4 C5_4 1_555 1_555
H3_4 C6_4 1_555 1_555
C7_4 C2_4 1_555 1_555
H4_4 C7_4 1_555 1_555
C8_4 C5_4 1_555 1_555
C12_3 H10_3 1_555 1_555
H12_3 C12_3 1_555 1_555
H13_4 C13_3 1_555 1_555
C6_4 C7_4 1_555 1_555
C12_3 C13_3 1_555 1_555
Zn4 O1_3 1_555 1_555
Zn7 O2_3 1_555 1_555
O1_3 C1_3 1_555 1_555
O2_3 C1_3 1_555 1_555
C3_3 H1_3 1_555 1_555
H9_2 O8_2 1_555 1_555
Zn4_2 O6_2 1_555 1_555
Zn7_2 O6_2 1_555 1_555
O7_2 Zn7_2 1_555 1_555
Zn4_2 O1_4 1_555 1_555
Zn7_2 O2_4 1_555 1_555
O1_4 C1_4 1_555 1_555
O2_4 C1_4 1_555 1_555
C3_4 H1_4 1_555 1_555
O11_2 C10_4 1_555 1_555
C9_4 H5_4 1_555 1_555
C10_4 C9_4 1_555 1_555
C11_4 C9_4 1_555 1_555
H6_4 C11_4 1_555 1_555
H7_4 C11_4 1_555 1_555
H8_4 C11_4 1_555 1_555
H9_3 O8_3 1_555 1_555
C12_4 H10_4 1_555 1_555
H11_3 C12_4 1_555 1_555
H12_4 C12_4 1_555 1_555
C13_4 O8_3 1_555 1_555
C12_4 C13_4 1_555 1_555
H9_4 O8_4 1_555 1_555
H14_4 C14_4 1_555 1_555
H15_4 C14_4 1_555 1_555
C15_4 C14_4 1_555 1_555
H16_4 C15_4 1_555 1_555
H17_4 C15_4 1_555 1_555
H18_4 C15_4 1_555 1_555

#END
