
###############################################################################
#
# This file contains modified crystal structure data generated from the
# MOF subset of the Cambridge Structural Database (CSD) v543 
# hosted by the Cambridge Crystallographic Data Centre (CCDC).
#
# This work is licensed under the Creative Commons
# Attribution-NonCommercial-ShareAlike 4.0 International License.
# To view a copy of this license, visit
# http://creativecommons.org/licenses/by-nc-sa/4.0/
# or send a letter to
# Creative Commons, PO Box 1866, Mountain View, CA 94042, USA.
#
# CIF created using the CSD Python API on 29 September 2022
# The structure has been converted into the P1 space group
# The structure has a 3D framework
# The original CSD entry MIVWUM is in the monoclinic crystal system
# The framework has been calculated to contain at least 10.0% void space
# The void calculation uses a probe of radius 1.32A, grid spacing 0.4
#
###############################################################################

data_MIVWUM
_chemical_formula_moiety         '(C144 H120 Co8 N16 O32)n'
_symmetry_cell_setting           triclinic
_symmetry_space_group_name_H-M   'P 1'
_symmetry_Int_Tables_number      1
_space_group_name_Hall           'P 1'
loop_
_symmetry_equiv_pos_site_id
_symmetry_equiv_pos_as_xyz
1 x,y,z
_cell_length_a                   19.4426(7)
_cell_length_b                   10.9351(4)
_cell_length_c                   21.3976(7)
_cell_angle_alpha                90
_cell_angle_beta                 91.615(3)
_cell_angle_gamma                90
_cell_volume                     4547.47
loop_
_atom_site_label
_atom_site_type_symbol
_atom_site_fract_x
_atom_site_fract_y
_atom_site_fract_z
O3 O 0.2211(2) 0.2964(4) 0.1650(2)
O4 O 0.3338(2) 0.3032(4) 0.1486(2)
C4 C 0.3092(4) 0.3403(7) 0.0198(3)
H4 H 0.3546 0.3352 0.0344
C5 C 0.2560(3) 0.3252(6) 0.0609(3)
C6 C 0.1870(4) 0.3324(7) 0.0386(3)
H5 H 0.1511 0.3212 0.0658
C8 C 0.2711(4) 0.3066(6) 0.1290(3)
Co11 Co 0.32135(4) 0.29498(7) 0.24258(3)
Co14 Co 0.17865(4) 0.29498(7) 0.25742(3)
Co1 Co 0.17672(4) 0.40935(8) 0.75325(4)
O1 O 0.1514(3) 0.3988(5) 0.8459(2)
O2 O 0.2634(3) 0.4077(5) 0.8322(2)
O5 O 0.1917(2) 0.2266(4) 0.74962(19)
N1 N 0.0849(3) 0.4068(5) 0.7026(2)
C1 C 0.2127(4) 0.3941(6) 0.8672(3)
C2 C 0.2273(4) 0.3707(6) 0.9354(3)
C3 C 0.2950(4) 0.3629(7) 0.9575(3)
H3 H 0.3309 0.3730 0.9301
C7 C 0.1734(4) 0.3560(7) 0.9760(3)
H6 H 0.1282 0.3622 0.9611
C9 C 0.2500 0.1736(8) 0.7500
C10 C 0.2500 0.0340(8) 0.7500
H7 H 0.1513 0.0131 0.7184
C21 C 0.0395(4) 0.4955(7) 0.7067(3)
H11 H 0.0502 0.5616 0.7325
C24 C 0.0093(4) 0.3076(8) 0.6279(4)
H13 H 0.0012 0.2436 0.6000
C25 C 0.0703(4) 0.3142(7) 0.6624(4)
H14 H 0.1026 0.2524 0.6578
O9 O 0.3083(2) 0.2266(4) 0.75038(19)
H31 H 0.3487 0.0131 0.7816
Co8 Co 0.32328(4) 0.40935(8) 0.74675(4)
O18 O 0.2366(3) 0.4077(5) 0.6678(2)
O24 O 0.1923(2) 0.5935(5) 0.7500(2)
C11 C 0.1907(4) 0.9709(7) 0.7315(4)
C12 C 0.1913(3) 0.8454(6) 0.7328(4)
H8 H 0.1512 0.8032 0.7218
C13 C 0.2500 0.7793(8) 0.7500
C14 C 0.2500 0.6438(9) 0.7500
O10 O 0.3077(2) 0.5935(5) 0.7500(2)
C41 C 0.3093(4) 0.9709(7) 0.7685(4)
C42 C 0.3087(3) 0.8454(6) 0.7672(4)
H32 H 0.3488 0.8032 0.7782
O8 O 0.3070(2) 0.1129(4) 0.2451(2)
C20 C 0.2500 0.0600(8) 0.2500
O12 O 0.1930(2) 0.1129(4) 0.2549(2)
O7 O 0.3073(2) 0.4783(4) 0.2466(2)
N2 N 0.8819(3) 0.3295(6) 0.5544(3)
H1 H 0.9147 0.2848 0.5407
N3 N 0.6231(3) 0.3252(6) 0.4327(3)
H2 H 0.5902 0.3657 0.4489
N4 N 0.4182(3) 0.2940(5) 0.2838(2)
C15 C 0.2500 0.5316(8) 0.2500
C16 C 0.2500 0.6695(8) 0.2500
C17 C 0.3114(3) 0.7312(6) 0.2475(3)
H9 H 0.3526 0.6883 0.2464
C18 C 0.3115(3) 0.8561(6) 0.2468(3)
H10 H 0.3530 0.8977 0.2441
C19 C 0.2500 0.9231(8) 0.2500
C22 C 0.9764(4) 0.4954(8) 0.6743(4)
H12 H 0.9458 0.5599 0.6788
C23 C 0.9600(4) 0.3992(7) 0.6356(3)
C26 C 0.8926(4) 0.3967(8) 0.6017(4)
H15 H 0.8585 0.3748 0.6320
H16 H 0.8826 0.4800 0.5888
C27 C 0.8170(3) 0.3273(7) 0.5240(3)
C28 C 0.8131(4) 0.3174(7) 0.4590(3)
C29 C 0.7485(4) 0.3136(7) 0.4297(3)
H17 H 0.7453 0.3051 0.3864
C30 C 0.6881(3) 0.3221(7) 0.4635(3)
C31 C 0.6921(4) 0.3332(7) 0.5283(3)
C32 C 0.7572(4) 0.3331(7) 0.5579(3)
H18 H 0.7605 0.3370 0.6013
C33 C 0.8774(4) 0.3171(10) 0.4209(4)
H19 H 0.9055 0.3861 0.4324
H20 H 0.8649 0.3217 0.3773
H21 H 0.9027 0.2430 0.4289
C34 C 0.6278(4) 0.3425(9) 0.5656(4)
H22 H 0.6009 0.4110 0.5510
H23 H 0.6400 0.3537 0.6090
H24 H 0.6013 0.2688 0.5605
C35 C 0.6124(4) 0.2689(8) 0.3812(4)
H25 H 0.6211 0.1828 0.3890
H26 H 0.6469 0.2965 0.3525
C36 C 0.5447(4) 0.2781(7) 0.3479(3)
C37 C 0.5257(4) 0.1911(7) 0.3037(4)
H27 H 0.5550 0.1265 0.2948
C38 C 0.4619(3) 0.2022(7) 0.2728(3)
H28 H 0.4492 0.1434 0.2432
C39 C 0.4375(3) 0.3775(6) 0.3260(3)
H29 H 0.4079 0.4422 0.3336
C40 C 0.4998(4) 0.3728(7) 0.3591(3)
H30 H 0.5111 0.4327 0.3885
O11 O 0.1927(2) 0.4783(4) 0.2534(2)
C43 C 0.1886(3) 0.7312(6) 0.2525(3)
H33 H 0.1474 0.6883 0.2536
C44 C 0.1885(3) 0.8561(6) 0.2532(3)
H34 H 0.1470 0.8977 0.2559
N8 N 0.0818(3) 0.2940(5) 0.2162(2)
C70 C 0.0381(3) 0.2022(7) 0.2272(3)
H58 H 0.0508 0.1434 0.2568
C71 C 0.0625(3) 0.3775(6) 0.1740(3)
H59 H 0.0921 0.4422 0.1664
C72 C 0.0002(4) 0.3728(7) 0.1409(3)
O20 O 0.2789(2) 0.2964(4) 0.3350(2)
O22 O 0.1662(2) 0.3032(4) 0.3514(2)
O13 O 0.3486(3) 0.3988(5) 0.6541(2)
N5 N 0.4151(3) 0.4068(5) 0.7974(2)
N6 N 0.6181(3) 0.3295(6) 0.9456(3)
H35 H 0.5853 0.2848 0.9593
C45 C 0.2873(4) 0.3941(6) 0.6328(3)
C46 C 0.2727(4) 0.3707(6) 0.5646(3)
C47 C 0.2050(4) 0.3629(7) 0.5425(3)
H37 H 0.1691 0.3730 0.5699
C48 C 0.1908(4) 0.3403(7) 0.4802(3)
H38 H 0.1454 0.3352 0.4656
C49 C 0.2440(3) 0.3252(6) 0.4391(3)
C50 C 0.3130(4) 0.3324(7) 0.4614(3)
H39 H 0.3489 0.3212 0.4342
C51 C 0.3266(4) 0.3560(7) 0.5240(3)
H40 H 0.3718 0.3622 0.5389
C52 C 0.2289(4) 0.3066(6) 0.3710(3)
C53 C 0.4605(4) 0.4955(7) 0.7933(3)
H41 H 0.4498 0.5616 0.7675
C54 C 0.5236(4) 0.4954(8) 0.8257(4)
H42 H 0.5542 0.5599 0.8212
C55 C 0.5400(4) 0.3992(7) 0.8644(3)
C56 C 0.4907(4) 0.3076(8) 0.8721(4)
H43 H 0.4988 0.2436 0.9000
C57 C 0.4297(4) 0.3142(7) 0.8376(4)
H44 H 0.3974 0.2524 0.8422
C58 C 0.6074(4) 0.3967(8) 0.8983(4)
H45 H 0.6415 0.3748 0.8680
H46 H 0.6174 0.4800 0.9112
C59 C 0.6830(3) 0.3273(7) 0.9760(3)
C63 C 0.8079(4) 0.3332(7) 0.9717(3)
C64 C 0.7428(4) 0.3331(7) 0.9421(3)
H48 H 0.7395 0.3370 0.8987
C66 C 0.8722(4) 0.3425(9) 0.9344(4)
H52 H 0.8991 0.4110 0.9490
H53 H 0.8600 0.3537 0.8910
H54 H 0.8987 0.2688 0.9395
N7 N 0.8769(3) 0.3252(6) 0.0673(3)
H36 H 0.9098 0.3657 0.0511
C60 C 0.6869(4) 0.3174(7) 0.0410(3)
C61 C 0.7515(4) 0.3136(7) 0.0703(3)
H47 H 0.7547 0.3051 0.1136
C62 C 0.8119(3) 0.3221(7) 0.0365(3)
C65 C 0.6226(4) 0.3171(10) 0.0791(4)
H49 H 0.5945 0.3861 0.0676
H50 H 0.6351 0.3217 0.1227
H51 H 0.5973 0.2430 0.0711
C67 C 0.8876(4) 0.2689(8) 0.1188(4)
H55 H 0.8789 0.1828 0.1110
H56 H 0.8531 0.2965 0.1475
C68 C 0.9553(4) 0.2781(7) 0.1521(3)
C69 C 0.9743(4) 0.1911(7) 0.1963(4)
H57 H 0.9450 0.1265 0.2052
H60 H 0.9889 0.4327 0.1115
Co3 Co 0.67672(4) 0.59065(8) 0.25325(4)
O13_2 O 0.6514(3) 0.6012(5) 0.3459(2)
O14 O 0.7634(3) 0.5923(5) 0.3322(2)
O15 O 0.7211(2) 0.7036(4) 0.6650(2)
O16 O 0.8338(2) 0.6968(4) 0.6486(2)
N5_2 N 0.5849(3) 0.5932(5) 0.2026(2)
N6_2 N 0.3819(3) 0.6705(6) 0.0544(3)
H35_2 H 0.4147 0.7152 0.0407
C45_2 C 0.7127(4) 0.6059(6) 0.3672(3)
C46_2 C 0.7273(4) 0.6293(6) 0.4354(3)
C47_2 C 0.7950(4) 0.6371(7) 0.4575(3)
H37_2 H 0.8309 0.6270 0.4301
C48_2 C 0.8092(4) 0.6597(7) 0.5198(3)
H38_2 H 0.8546 0.6648 0.5344
C49_2 C 0.7560(3) 0.6748(6) 0.5609(3)
C50_2 C 0.6870(4) 0.6676(7) 0.5386(3)
H39_2 H 0.6511 0.6788 0.5658
C51_2 C 0.6734(4) 0.6440(7) 0.4760(3)
H40_2 H 0.6282 0.6378 0.4611
C52_2 C 0.7711(4) 0.6934(6) 0.6290(3)
C53_2 C 0.5395(4) 0.5045(7) 0.2067(3)
H41_2 H 0.5502 0.4384 0.2325
C54_2 C 0.4764(4) 0.5046(8) 0.1743(4)
H42_2 H 0.4458 0.4401 0.1788
C55_2 C 0.4600(4) 0.6008(7) 0.1356(3)
C56_2 C 0.5093(4) 0.6924(8) 0.1279(4)
H43_2 H 0.5012 0.7564 0.1000
C57_2 C 0.5703(4) 0.6858(7) 0.1624(4)
H44_2 H 0.6026 0.7476 0.1578
C58_2 C 0.3926(4) 0.6033(8) 0.1017(4)
H45_2 H 0.3585 0.6252 0.1320
H46_2 H 0.3826 0.5200 0.0888
C59_2 C 0.3170(3) 0.6727(7) 0.0240(3)
C63_2 C 0.1921(4) 0.6668(7) 0.0283(3)
C64_2 C 0.2572(4) 0.6669(7) 0.0579(3)
H48_2 H 0.2605 0.6630 0.1013
C66_2 C 0.1278(4) 0.6575(9) 0.0656(4)
H52_2 H 0.1009 0.5890 0.0510
H53_2 H 0.1400 0.6463 0.1090
H54_2 H 0.1013 0.7312 0.0605
Co5 Co 0.82328(4) 0.59065(8) 0.24675(4)
Co9 Co 0.67865(4) 0.70502(7) 0.75742(3)
Co12 Co 0.82135(4) 0.70502(7) 0.74258(3)
O17 O 0.7366(3) 0.5923(5) 0.1678(2)
O23 O 0.6917(2) 0.7734(4) 0.24962(19)
O25 O 0.6923(2) 0.4065(5) 0.2500(2)
O7_2 O 0.6927(2) 0.5217(4) 0.7534(2)
N2_2 N 0.1181(3) 0.6705(6) 0.4456(3)
H1_2 H 0.0853 0.7152 0.4593
N3_2 N 0.3769(3) 0.6748(6) 0.5673(3)
H2_2 H 0.4098 0.6343 0.5511
N4_2 N 0.5818(3) 0.7060(5) 0.7162(2)
C15_2 C 0.7500 0.4684(8) 0.7500
C16_2 C 0.7500 0.3305(8) 0.7500
C17_2 C 0.6886(3) 0.2688(6) 0.7525(3)
H9_2 H 0.6474 0.3117 0.7536
C18_2 C 0.6885(3) 0.1439(6) 0.7532(3)
H10_2 H 0.6470 0.1023 0.7559
C19_2 C 0.7500 0.0769(8) 0.7500
C22_2 C 0.0236(4) 0.5046(8) 0.3257(4)
H12_2 H 0.0542 0.4401 0.3212
C23_2 C 0.0400(4) 0.6008(7) 0.3644(3)
C26_2 C 0.1074(4) 0.6033(8) 0.3983(4)
H15_2 H 0.1415 0.6252 0.3680
H16_2 H 0.1174 0.5200 0.4112
C27_2 C 0.1830(3) 0.6727(7) 0.4760(3)
C28_2 C 0.1869(4) 0.6826(7) 0.5410(3)
C29_2 C 0.2515(4) 0.6864(7) 0.5703(3)
H17_2 H 0.2547 0.6949 0.6136
C30_2 C 0.3119(3) 0.6779(7) 0.5365(3)
C31_2 C 0.3079(4) 0.6668(7) 0.4717(3)
C32_2 C 0.2428(4) 0.6669(7) 0.4421(3)
H18_2 H 0.2395 0.6630 0.3987
C33_2 C 0.1226(4) 0.6829(10) 0.5791(4)
H19_2 H 0.0945 0.6139 0.5676
H20_2 H 0.1351 0.6783 0.6227
H21_2 H 0.0973 0.7570 0.5711
C34_2 C 0.3722(4) 0.6575(9) 0.4344(4)
H22_2 H 0.3991 0.5890 0.4490
H23_2 H 0.3600 0.6463 0.3910
H24_2 H 0.3987 0.7312 0.4395
C35_2 C 0.3876(4) 0.7311(8) 0.6188(4)
H25_2 H 0.3789 0.8172 0.6110
H26_2 H 0.3531 0.7035 0.6475
C36_2 C 0.4553(4) 0.7219(7) 0.6521(3)
C37_2 C 0.4743(4) 0.8089(7) 0.6963(4)
H27_2 H 0.4450 0.8735 0.7052
C38_2 C 0.5381(3) 0.7978(7) 0.7272(3)
H28_2 H 0.5508 0.8566 0.7568
C39_2 C 0.5625(3) 0.6225(6) 0.6740(3)
H29_2 H 0.5921 0.5578 0.6664
C40_2 C 0.5002(4) 0.6272(7) 0.6409(3)
H30_2 H 0.4889 0.5673 0.6115
O11_2 O 0.8073(2) 0.5217(4) 0.7466(2)
C43_2 C 0.8114(3) 0.2688(6) 0.7475(3)
H33_2 H 0.8526 0.3117 0.7464
C44_2 C 0.8115(3) 0.1439(6) 0.7468(3)
H34_2 H 0.8530 0.1023 0.7441
N8_2 N 0.9182(3) 0.7060(5) 0.7838(2)
C70_2 C 0.9619(3) 0.7978(7) 0.7728(3)
H58_2 H 0.9492 0.8566 0.7432
C71_2 C 0.9375(3) 0.6225(6) 0.8260(3)
H59_2 H 0.9079 0.5578 0.8336
C72_2 C 0.9998(4) 0.6272(7) 0.8591(3)
O19 O 0.7789(2) 0.7036(4) 0.8350(2)
O21 O 0.6662(2) 0.6968(4) 0.8514(2)
O26 O 0.6930(2) 0.8871(4) 0.7549(2)
O27 O 0.8070(2) 0.8871(4) 0.7451(2)
C20_2 C 0.7500 0.9400(8) 0.7500
O6 O 0.8077(2) 0.4065(5) 0.2500(2)
C11_2 C 0.8093(4) 0.0291(7) 0.2685(4)
C12_2 C 0.8087(3) 0.1546(6) 0.2672(4)
H8_2 H 0.8488 0.1968 0.2782
C13_2 C 0.7500 0.2207(8) 0.2500
C14_2 C 0.7500 0.3562(9) 0.2500
C41_2 C 0.6907(4) 0.0291(7) 0.2315(4)
C42_2 C 0.6913(3) 0.1546(6) 0.2328(4)
H32_2 H 0.6512 0.1968 0.2218
O1_2 O 0.8486(3) 0.6012(5) 0.1541(2)
O5_2 O 0.8083(2) 0.7734(4) 0.25038(19)
N1_2 N 0.9151(3) 0.5932(5) 0.2974(2)
C1_2 C 0.7873(4) 0.6059(6) 0.1328(3)
C2_2 C 0.7727(4) 0.6293(6) 0.0646(3)
C3_2 C 0.7050(4) 0.6371(7) 0.0425(3)
H3_2 H 0.6691 0.6270 0.0699
C7_2 C 0.8266(4) 0.6440(7) 0.0240(3)
H6_2 H 0.8718 0.6378 0.0389
C9_2 C 0.7500 0.8264(8) 0.2500
C10_2 C 0.7500 0.9660(8) 0.2500
H7_2 H 0.8487 0.9869 0.2816
C21_2 C 0.9605(4) 0.5045(7) 0.2933(3)
H11_2 H 0.9498 0.4384 0.2675
C24_2 C 0.9907(4) 0.6924(8) 0.3721(4)
H13_2 H 0.9988 0.7564 0.4000
C25_2 C 0.9297(4) 0.6858(7) 0.3376(4)
H14_2 H 0.8974 0.7476 0.3422
H31_2 H 0.6513 0.9869 0.2184
C4_2 C 0.6908(4) 0.6597(7) 0.9802(3)
H4_2 H 0.6454 0.6648 0.9656
C5_2 C 0.7440(3) 0.6748(6) 0.9391(3)
C6_2 C 0.8130(4) 0.6676(7) 0.9614(3)
H5_2 H 0.8489 0.6788 0.9342
C8_2 C 0.7289(4) 0.6934(6) 0.8710(3)
N7_2 N 0.1231(3) 0.6748(6) 0.9327(3)
H36_2 H 0.0902 0.6343 0.9489
C60_2 C 0.3131(4) 0.6826(7) 0.9590(3)
C61_2 C 0.2485(4) 0.6864(7) 0.9297(3)
H47_2 H 0.2453 0.6949 0.8864
C62_2 C 0.1881(3) 0.6779(7) 0.9635(3)
C65_2 C 0.3774(4) 0.6829(10) 0.9209(4)
H49_2 H 0.4055 0.6139 0.9324
H50_2 H 0.3649 0.6783 0.8773
H51_2 H 0.4027 0.7570 0.9289
C67_2 C 0.1124(4) 0.7311(8) 0.8812(4)
H55_2 H 0.1211 0.8172 0.8890
H56_2 H 0.1469 0.7035 0.8525
C68_2 C 0.0447(4) 0.7219(7) 0.8479(3)
C69_2 C 0.0257(4) 0.8089(7) 0.8037(4)
H57_2 H 0.0550 0.8735 0.7948
H60_2 H 0.0111 0.5673 0.8885
loop_
_geom_bond_atom_site_label_1
_geom_bond_atom_site_label_2
_geom_bond_site_symmetry_1
_geom_bond_site_symmetry_2
O3 C8 1_555 1_555
O4 C8 1_555 1_555
H4 C4 1_555 1_555
C5 C4 1_555 1_555
C6 C5 1_555 1_555
H5 C6 1_555 1_555
C8 C5 1_555 1_555
Co11 O4 1_555 1_555
Co14 O3 1_555 1_555
Co1 O1 1_555 1_555
O1 C1 1_555 1_555
O2 Co1 1_555 1_555
O5 Co1 1_555 1_555
N1 Co1 1_555 1_555
C1 O2 1_555 1_555
C2 C1 1_555 1_555
C3 C2 1_555 1_555
H3 C3 1_555 1_555
C7 C2 1_555 1_555
H6 C7 1_555 1_555
C9 O5 1_555 1_555
C10 C9 1_555 1_555
C21 N1 1_555 1_555
H11 C21 1_555 1_555
H13 C24 1_555 1_555
C25 N1 1_555 1_555
H14 C25 1_555 1_555
O9 C9 1_555 1_555
Co8 O2 1_555 1_555
O18 Co1 1_555 1_555
O24 Co1 1_555 1_555
C24 C25 1_555 1_555
O9 Co8 1_555 1_555
Co8 O18 1_555 1_555
O24 C14 1_555 1_555
C12 C11 1_555 1_555
H8 C12 1_555 1_555
C13 C12 1_555 1_555
C14 C13 1_555 1_555
O10 C14 1_555 1_555
C42 C13 1_555 1_555
H32 C42 1_555 1_555
Co8 O10 1_555 1_555
C41 C42 1_555 1_555
O8 C20 1_555 1_555
O12 C20 1_555 1_555
Co11 O8 1_555 1_555
Co14 O12 1_555 1_555
Co11 O7 1_555 1_555
O7 C15 1_555 1_555
N2 H1 1_555 1_555
N3 H2 1_555 1_555
N4 Co11 1_555 1_555
C15 C16 1_555 1_555
C16 C17 1_555 1_555
C17 H9 1_555 1_555
C18 C17 1_555 1_555
H10 C18 1_555 1_555
C19 C18 1_555 1_555
H12 C22 1_555 1_555
C23 C22 1_555 1_555
C26 N2 1_555 1_555
H15 C26 1_555 1_555
H16 C26 1_555 1_555
C27 N2 1_555 1_555
C28 C27 1_555 1_555
C29 C28 1_555 1_555
H17 C29 1_555 1_555
C30 N3 1_555 1_555
C31 C30 1_555 1_555
C32 C27 1_555 1_555
H18 C32 1_555 1_555
C33 C28 1_555 1_555
H19 C33 1_555 1_555
H20 C33 1_555 1_555
H21 C33 1_555 1_555
C34 C31 1_555 1_555
H22 C34 1_555 1_555
H23 C34 1_555 1_555
H24 C34 1_555 1_555
C35 N3 1_555 1_555
H25 C35 1_555 1_555
H26 C35 1_555 1_555
C36 C35 1_555 1_555
C37 C36 1_555 1_555
H27 C37 1_555 1_555
C38 N4 1_555 1_555
H28 C38 1_555 1_555
C39 N4 1_555 1_555
H29 C39 1_555 1_555
C40 C36 1_555 1_555
H30 C40 1_555 1_555
O11 C15 1_555 1_555
C43 C16 1_555 1_555
H33 C43 1_555 1_555
C44 C19 1_555 1_555
H34 C44 1_555 1_555
Co14 O11 1_555 1_555
N8 Co14 1_555 1_555
C70 N8 1_555 1_555
H58 C70 1_555 1_555
C71 N8 1_555 1_555
H59 C71 1_555 1_555
O20 Co11 1_555 1_555
O22 Co14 1_555 1_555
C23 C26 1_555 1_555
C29 C30 1_555 1_555
C31 C32 1_555 1_555
C37 C38 1_555 1_555
C39 C40 1_555 1_555
C43 C44 1_555 1_555
C71 C72 1_555 1_555
Co8 O13 1_555 1_555
O13 C45 1_555 1_555
O20 C52 1_555 1_555
O22 C52 1_555 1_555
N5 Co8 1_555 1_555
N6 H35 1_555 1_555
C45 O18 1_555 1_555
C46 C45 1_555 1_555
C47 C46 1_555 1_555
H37 C47 1_555 1_555
C48 C47 1_555 1_555
H38 C48 1_555 1_555
C49 C48 1_555 1_555
C50 C49 1_555 1_555
H39 C50 1_555 1_555
C51 C46 1_555 1_555
H40 C51 1_555 1_555
C52 C49 1_555 1_555
C53 N5 1_555 1_555
H41 C53 1_555 1_555
C54 C53 1_555 1_555
H42 C54 1_555 1_555
C55 C54 1_555 1_555
C56 C55 1_555 1_555
H43 C56 1_555 1_555
C57 N5 1_555 1_555
H44 C57 1_555 1_555
C58 N6 1_555 1_555
H45 C58 1_555 1_555
H46 C58 1_555 1_555
C59 N6 1_555 1_555
C64 C59 1_555 1_555
H48 C64 1_555 1_555
C66 C63 1_555 1_555
H52 C66 1_555 1_555
H53 C66 1_555 1_555
H54 C66 1_555 1_555
C50 C51 1_555 1_555
C55 C58 1_555 1_555
C56 C57 1_555 1_555
C63 C64 1_555 1_555
N7 H36 1_555 1_555
C61 C60 1_555 1_555
H47 C61 1_555 1_555
C62 N7 1_555 1_555
C65 C60 1_555 1_555
H49 C65 1_555 1_555
H50 C65 1_555 1_555
H51 C65 1_555 1_555
C67 N7 1_555 1_555
H55 C67 1_555 1_555
H56 C67 1_555 1_555
C68 C67 1_555 1_555
C69 C68 1_555 1_555
H57 C69 1_555 1_555
C61 C62 1_555 1_555
Co3 O13_2 1_555 1_555
O13_2 C45_2 1_555 1_555
O14 Co3 1_555 1_555
O15 C52_2 1_555 1_555
O16 C52_2 1_555 1_555
N5_2 Co3 1_555 1_555
N6_2 H35_2 1_555 1_555
C45_2 O14 1_555 1_555
C46_2 C45_2 1_555 1_555
C47_2 C46_2 1_555 1_555
H37_2 C47_2 1_555 1_555
C48_2 C47_2 1_555 1_555
H38_2 C48_2 1_555 1_555
C49_2 C48_2 1_555 1_555
C50_2 C49_2 1_555 1_555
H39_2 C50_2 1_555 1_555
C51_2 C46_2 1_555 1_555
H40_2 C51_2 1_555 1_555
C52_2 C49_2 1_555 1_555
C53_2 N5_2 1_555 1_555
H41_2 C53_2 1_555 1_555
C54_2 C53_2 1_555 1_555
H42_2 C54_2 1_555 1_555
C55_2 C54_2 1_555 1_555
C56_2 C55_2 1_555 1_555
H43_2 C56_2 1_555 1_555
C57_2 N5_2 1_555 1_555
H44_2 C57_2 1_555 1_555
C58_2 N6_2 1_555 1_555
H45_2 C58_2 1_555 1_555
H46_2 C58_2 1_555 1_555
C59_2 N6_2 1_555 1_555
C64_2 C59_2 1_555 1_555
H48_2 C64_2 1_555 1_555
C66_2 C63_2 1_555 1_555
H52_2 C66_2 1_555 1_555
H53_2 C66_2 1_555 1_555
H54_2 C66_2 1_555 1_555
Co5 O14 1_555 1_555
Co9 O15 1_555 1_555
Co12 O16 1_555 1_555
O17 Co3 1_555 1_555
O23 Co3 1_555 1_555
O25 Co3 1_555 1_555
C50_2 C51_2 1_555 1_555
C55_2 C58_2 1_555 1_555
C56_2 C57_2 1_555 1_555
C63_2 C64_2 1_555 1_555
Co5 O17 1_555 1_555
Co9 O7_2 1_555 1_555
O7_2 C15_2 1_555 1_555
N2_2 H1_2 1_555 1_555
N3_2 H2_2 1_555 1_555
N4_2 Co9 1_555 1_555
C15_2 C16_2 1_555 1_555
C16_2 C17_2 1_555 1_555
C17_2 H9_2 1_555 1_555
C18_2 C17_2 1_555 1_555
H10_2 C18_2 1_555 1_555
C19_2 C18_2 1_555 1_555
H12_2 C22_2 1_555 1_555
C23_2 C22_2 1_555 1_555
C26_2 N2_2 1_555 1_555
H15_2 C26_2 1_555 1_555
H16_2 C26_2 1_555 1_555
C27_2 N2_2 1_555 1_555
C28_2 C27_2 1_555 1_555
C29_2 C28_2 1_555 1_555
H17_2 C29_2 1_555 1_555
C30_2 N3_2 1_555 1_555
C31_2 C30_2 1_555 1_555
C32_2 C27_2 1_555 1_555
H18_2 C32_2 1_555 1_555
C33_2 C28_2 1_555 1_555
H19_2 C33_2 1_555 1_555
H20_2 C33_2 1_555 1_555
H21_2 C33_2 1_555 1_555
C34_2 C31_2 1_555 1_555
H22_2 C34_2 1_555 1_555
H23_2 C34_2 1_555 1_555
H24_2 C34_2 1_555 1_555
C35_2 N3_2 1_555 1_555
H25_2 C35_2 1_555 1_555
H26_2 C35_2 1_555 1_555
C36_2 C35_2 1_555 1_555
C37_2 C36_2 1_555 1_555
H27_2 C37_2 1_555 1_555
C38_2 N4_2 1_555 1_555
H28_2 C38_2 1_555 1_555
C39_2 N4_2 1_555 1_555
H29_2 C39_2 1_555 1_555
C40_2 C36_2 1_555 1_555
H30_2 C40_2 1_555 1_555
O11_2 C15_2 1_555 1_555
C43_2 C16_2 1_555 1_555
H33_2 C43_2 1_555 1_555
C44_2 C19_2 1_555 1_555
H34_2 C44_2 1_555 1_555
Co12 O11_2 1_555 1_555
N8_2 Co12 1_555 1_555
C70_2 N8_2 1_555 1_555
H58_2 C70_2 1_555 1_555
C71_2 N8_2 1_555 1_555
H59_2 C71_2 1_555 1_555
O19 Co12 1_555 1_555
O21 Co9 1_555 1_555
O26 Co9 1_555 1_555
O27 Co12 1_555 1_555
C23_2 C26_2 1_555 1_555
C29_2 C30_2 1_555 1_555
C31_2 C32_2 1_555 1_555
C37_2 C38_2 1_555 1_555
C39_2 C40_2 1_555 1_555
C43_2 C44_2 1_555 1_555
C71_2 C72_2 1_555 1_555
O26 C20_2 1_555 1_555
O27 C20_2 1_555 1_555
O6 C14_2 1_555 1_555
C12_2 C11_2 1_555 1_555
H8_2 C12_2 1_555 1_555
C13_2 C12_2 1_555 1_555
C14_2 C13_2 1_555 1_555
O25 C14_2 1_555 1_555
C42_2 C13_2 1_555 1_555
H32_2 C42_2 1_555 1_555
Co5 O6 1_555 1_555
C41_2 C42_2 1_555 1_555
Co5 O1_2 1_555 1_555
O1_2 C1_2 1_555 1_555
O5_2 Co5 1_555 1_555
N1_2 Co5 1_555 1_555
C1_2 O17 1_555 1_555
C2_2 C1_2 1_555 1_555
C3_2 C2_2 1_555 1_555
H3_2 C3_2 1_555 1_555
C7_2 C2_2 1_555 1_555
H6_2 C7_2 1_555 1_555
C9_2 O5_2 1_555 1_555
C10_2 C9_2 1_555 1_555
C21_2 N1_2 1_555 1_555
H11_2 C21_2 1_555 1_555
H13_2 C24_2 1_555 1_555
C25_2 N1_2 1_555 1_555
H14_2 C25_2 1_555 1_555
O23 C9_2 1_555 1_555
C24_2 C25_2 1_555 1_555
O19 C8_2 1_555 1_555
O21 C8_2 1_555 1_555
H4_2 C4_2 1_555 1_555
C5_2 C4_2 1_555 1_555
C6_2 C5_2 1_555 1_555
H5_2 C6_2 1_555 1_555
C8_2 C5_2 1_555 1_555
N7_2 H36_2 1_555 1_555
C61_2 C60_2 1_555 1_555
H47_2 C61_2 1_555 1_555
C62_2 N7_2 1_555 1_555
C65_2 C60_2 1_555 1_555
H49_2 C65_2 1_555 1_555
H50_2 C65_2 1_555 1_555
H51_2 C65_2 1_555 1_555
C67_2 N7_2 1_555 1_555
H55_2 C67_2 1_555 1_555
H56_2 C67_2 1_555 1_555
C68_2 C67_2 1_555 1_555
C69_2 C68_2 1_555 1_555
H57_2 C69_2 1_555 1_555
C61_2 C62_2 1_555 1_555

#END
