
###############################################################################
#
# This file contains modified crystal structure data generated from the
# MOF subset of the Cambridge Structural Database (CSD) v543 
# hosted by the Cambridge Crystallographic Data Centre (CCDC).
#
# This work is licensed under the Creative Commons
# Attribution-NonCommercial-ShareAlike 4.0 International License.
# To view a copy of this license, visit
# http://creativecommons.org/licenses/by-nc-sa/4.0/
# or send a letter to
# Creative Commons, PO Box 1866, Mountain View, CA 94042, USA.
#
# CIF created using the CSD Python API on 29 September 2022
# The structure has been converted into the P1 space group
# The structure has a 3D framework
# The original CSD entry MIVWOG is in the monoclinic crystal system
# The framework has been calculated to contain at least 10.0% void space
# The void calculation uses a probe of radius 1.32A, grid spacing 0.4
#
###############################################################################

data_MIVWOG
_chemical_formula_moiety         '(C144 H120 Co7 N16 O26)n'
_symmetry_cell_setting           triclinic
_symmetry_space_group_name_H-M   'P 1'
_symmetry_Int_Tables_number      1
_space_group_name_Hall           'P 1'
loop_
_symmetry_equiv_pos_site_id
_symmetry_equiv_pos_as_xyz
1 x,y,z
_cell_length_a                   18.6020(6)
_cell_length_b                   14.7768(4)
_cell_length_c                   15.9831(5)
_cell_angle_alpha                90
_cell_angle_beta                 101.524(3)
_cell_angle_gamma                90
_cell_volume                     4304.84
loop_
_atom_site_label
_atom_site_type_symbol
_atom_site_fract_x
_atom_site_fract_y
_atom_site_fract_z
O2 O 0.05010(8) 0.61007(9) 0.09508(9)
O4 O 0.01793(8) 0.91999(10) 0.41268(10)
C3 C 0.03897(12) 0.75612(14) 0.20430(14)
H2 H 0.0846 0.7489 0.1869
C4 C 0.03257(12) 0.81811(14) 0.26792(14)
H3 H 0.0742 0.8519 0.2949
Co5 Co 0.07740(2) 0.99505(2) 0.52559(2)
Co6 Co 0.07740(2) 0.50495(2) 0.02559(2)
Co8 Co 0.92260(2) 0.00495(2) 0.47441(2)
O1 O 0.92780(8) 0.59750(9) 0.05998(9)
O3 O 0.89658(8) 0.92183(10) 0.37105(10)
N2 N 0.58661(10) 0.36056(13) 0.08847(13)
H1 H 0.5838 0.3497 0.1419
C1 C 0.98612(11) 0.63200(13) 0.10169(13)
C2 C 0.97854(11) 0.70451(13) 0.16596(13)
C5 C 0.96571(12) 0.83089(13) 0.29226(13)
C6 C 0.90464(12) 0.78164(14) 0.25164(14)
H4 H 0.8583 0.7917 0.2664
C7 C 0.91138(12) 0.71793(14) 0.18979(14)
H5 H 0.8699 0.6833 0.1636
C8 C 0.95979(12) 0.89538(14) 0.36330(14)
C11 C 0.70075(11) 0.35269(14) 0.02797(15)
C12 C 0.73640(13) 0.42053(17) 0.08000(17)
H8 H 0.7184 0.4392 0.1288
C13 C 0.79799(13) 0.46103(17) 0.06112(16)
H9 H 0.8215 0.5074 0.0979
C14 C 0.63368(12) 0.30515(15) 0.04805(16)
H11 H 0.6505 0.2529 0.0857
C15 C 0.54518(11) 0.43130(14) 0.04438(15)
C17 C 0.50274(12) 0.48614(15) 0.08774(15)
C18 C 0.50099(13) 0.46806(17) 0.17990(16)
H13 H 0.4663 0.5096 0.1987
H14 H 0.5501 0.4773 0.2148
H15 H 0.4854 0.4055 0.1862
N3 N 0.17384(9) 0.56184(12) 0.00647(12)
C19 C 0.20788(13) 0.62764(16) 0.05692(16)
H17 H 0.1885 0.6454 0.1051
C20 C 0.26999(13) 0.67094(17) 0.04189(17)
H18 H 0.2926 0.7170 0.0797
H21 H 0.3957 0.7190 0.0059
C26 C 0.45858(12) 0.55340(15) 0.04254(15)
H23 H 0.4300 0.5902 0.0721
O11 O 0.10342(8) 0.42183(10) 0.12895(10)
O13 O 0.98207(8) 0.41999(10) 0.08732(10)
Co1 Co 0.92260(2) 0.49505(2) 0.97441(2)
N1 N 0.82616(9) 0.43816(12) 0.99353(12)
C9 C 0.79212(13) 0.37236(16) 0.94308(16)
H6 H 0.8115 0.3546 0.8949
C10 C 0.73001(13) 0.32906(17) 0.95811(17)
H7 H 0.7074 0.2830 0.9203
H10 H 0.6043 0.2810 0.9941
C16 C 0.54142(12) 0.44660(15) 0.95746(15)
H12 H 0.5700 0.4098 0.9279
N4 N 0.41339(10) 0.63944(13) 0.91153(13)
H16 H 0.4162 0.6503 0.8581
C21 C 0.29925(11) 0.64731(14) 0.97203(15)
C22 C 0.26360(13) 0.57947(17) 0.92000(17)
H19 H 0.2816 0.5608 0.8712
C23 C 0.20201(13) 0.53897(17) 0.93888(16)
H20 H 0.1785 0.4926 0.9021
C24 C 0.36632(12) 0.69485(15) 0.95195(16)
H22 H 0.3495 0.7471 0.9143
C25 C 0.45482(11) 0.56870(14) 0.95562(15)
C27 C 0.49726(12) 0.51386(15) 0.91226(15)
C28 C 0.49901(13) 0.53194(17) 0.82010(16)
H24 H 0.5337 0.4904 0.8013
H25 H 0.4499 0.5227 0.7852
H26 H 0.5146 0.5945 0.8138
O5 O 0.07220(8) 0.40250(9) 0.94002(9)
O7 O 0.10342(8) 0.07817(10) 0.62895(10)
C29 C 0.01388(11) 0.36800(13) 0.89831(13)
C30 C 0.02146(11) 0.29549(13) 0.83404(13)
C33 C 0.03429(12) 0.16911(13) 0.70774(13)
C34 C 0.09536(12) 0.21836(14) 0.74836(14)
H29 H 0.1417 0.2083 0.7336
C35 C 0.08862(12) 0.28207(14) 0.81021(14)
H30 H 0.1301 0.3167 0.8364
C36 C 0.04021(12) 0.10462(14) 0.63670(14)
O10 O 0.94990(8) 0.38993(9) 0.90492(9)
O12 O 0.89658(8) 0.57817(10) 0.87105(10)
O14 O 0.01793(8) 0.58001(10) 0.91268(10)
O8 O 0.98207(8) 0.08001(10) 0.58732(10)
C31 C 0.96103(12) 0.24388(14) 0.79570(14)
H27 H 0.9154 0.2511 0.8131
C32 C 0.96743(12) 0.18189(14) 0.73208(14)
H28 H 0.9258 0.1481 0.7051
O6 O 0.05010(8) 0.88993(9) 0.59508(9)
C31_2 C 0.03897(12) 0.74388(14) 0.70430(14)
H27_2 H 0.0846 0.7511 0.6869
C32_2 C 0.03257(12) 0.68189(14) 0.76792(14)
H28_2 H 0.0742 0.6481 0.7949
O1_2 O 0.07220(8) 0.09750(9) 0.44002(9)
C1_2 C 0.01388(11) 0.13200(13) 0.39831(13)
C2_2 C 0.02146(11) 0.20451(13) 0.33404(13)
C5_2 C 0.03429(12) 0.33089(13) 0.20774(13)
C6_2 C 0.09536(12) 0.28164(14) 0.24836(14)
H4_2 H 0.1417 0.2917 0.2336
C7_2 C 0.08862(12) 0.21793(14) 0.31021(14)
H5_2 H 0.1301 0.1833 0.3364
C8_2 C 0.04021(12) 0.39538(14) 0.13670(14)
H9_2 H 0.1785 0.0074 0.4021
H13_2 H 0.5337 0.0096 0.3013
N3_2 N 0.82616(9) 0.06184(12) 0.49353(12)
N4_2 N 0.58661(10) 0.13944(13) 0.58847(13)
H16_2 H 0.5838 0.1503 0.6419
C19_2 C 0.79212(13) 0.12764(16) 0.44308(16)
H17_2 H 0.8115 0.1454 0.3949
C20_2 C 0.73001(13) 0.17094(17) 0.45811(17)
H18_2 H 0.7074 0.2170 0.4203
C21_2 C 0.70075(11) 0.14731(14) 0.52797(15)
C22_2 C 0.73640(13) 0.07947(17) 0.58000(17)
H19_2 H 0.7184 0.0608 0.6288
C23_2 C 0.79799(13) 0.03897(17) 0.56112(16)
C24_2 C 0.63368(12) 0.19485(15) 0.54805(16)
H21_2 H 0.6043 0.2190 0.4941
H22_2 H 0.6505 0.2471 0.5857
C25_2 C 0.54518(11) 0.06870(14) 0.54438(15)
C26_2 C 0.54142(12) 0.05340(15) 0.45746(15)
H23_2 H 0.5700 0.0902 0.4279
C27_2 C 0.50274(12) 0.01386(15) 0.58774(15)
C28_2 C 0.50099(13) 0.03194(17) 0.67990(16)
H25_2 H 0.5501 0.0227 0.7148
H26_2 H 0.4854 0.0945 0.6862
O9 O 0.94990(8) 0.11007(9) 0.40492(9)
N1_2 N 0.17384(9) 0.93816(12) 0.50647(12)
N2_2 N 0.41339(10) 0.86056(13) 0.41153(13)
H1_2 H 0.4162 0.8497 0.3581
C9_2 C 0.20788(13) 0.87236(16) 0.55692(16)
H6_2 H 0.1885 0.8546 0.6051
C10_2 C 0.26999(13) 0.82906(17) 0.54189(17)
H7_2 H 0.2926 0.7830 0.5797
C11_2 C 0.29925(11) 0.85269(14) 0.47203(15)
C12_2 C 0.26360(13) 0.92053(17) 0.42000(17)
H8_2 H 0.2816 0.9392 0.3712
C13_2 C 0.20201(13) 0.96103(17) 0.43888(16)
C14_2 C 0.36632(12) 0.80515(15) 0.45195(16)
H10_2 H 0.3957 0.7810 0.5059
H11_2 H 0.3495 0.7529 0.4143
C15_2 C 0.45482(11) 0.93130(14) 0.45562(15)
C16_2 C 0.45858(12) 0.94660(15) 0.54254(15)
H12_2 H 0.4300 0.9098 0.5721
C17_2 C 0.49726(12) 0.98614(15) 0.41226(15)
C18_2 C 0.49901(13) 0.96806(17) 0.32010(16)
H14_2 H 0.4499 0.9773 0.2852
H15_2 H 0.5146 0.9055 0.3138
H20_2 H 0.8215 0.9926 0.5979
H24_2 H 0.4663 0.9904 0.6987
O5_2 O 0.92780(8) 0.90250(9) 0.55998(9)
C29_2 C 0.98612(11) 0.86800(13) 0.60169(13)
C30_2 C 0.97854(11) 0.79549(13) 0.66596(13)
C33_2 C 0.96571(12) 0.66911(13) 0.79226(13)
C34_2 C 0.90464(12) 0.71836(14) 0.75164(14)
H29_2 H 0.8583 0.7083 0.7664
C35_2 C 0.91138(12) 0.78207(14) 0.68979(14)
H30_2 H 0.8699 0.8167 0.6636
C36_2 C 0.95979(12) 0.60462(14) 0.86330(14)
C3_2 C 0.96103(12) 0.25612(14) 0.29570(14)
H2_2 H 0.9154 0.2489 0.3131
C4_2 C 0.96743(12) 0.31811(14) 0.23208(14)
H3_2 H 0.9258 0.3519 0.2051
C52 C 0.04675(12) 0.31310(14) 0.53323(15)
H42 H 0.0765 0.2947 0.4920
H43 H 0.0037 0.2736 0.5275
H44 H 0.0761 0.3082 0.5912
C53 C 0.02215(11) 0.40956(14) 0.51621(14)
C54 C 0.04353(11) 0.45890(14) 0.45126(14)
H45 H 0.0737 0.4304 0.4175
N7 N 0.31711(9) 0.52544(12) 0.42850(12)
N8 N 0.04466(10) 0.59787(13) 0.36846(12)
H46 H 0.0315 0.6549 0.3605
C55 C 0.27355(12) 0.57816(15) 0.46440(15)
H47 H 0.2942 0.6087 0.5159
C56 C 0.19984(12) 0.59055(15) 0.43044(15)
H48 H 0.1708 0.6284 0.4585
C57 C 0.16870(11) 0.54686(14) 0.35477(14)
C58 C 0.21439(12) 0.49436(16) 0.31597(15)
H49 H 0.1955 0.4646 0.2635
C59 C 0.28741(12) 0.48552(16) 0.35375(15)
H50 H 0.3181 0.4498 0.3260
C60 C 0.08860(11) 0.55681(15) 0.31415(14)
H51 H 0.0684 0.4962 0.2968
H52 H 0.0845 0.5938 0.2618
C61 C 0.02244(11) 0.54882(14) 0.43362(14)
Co13 Co 0.42514(2) 0.50269(2) 0.48542(2)
Co15 Co 0.57486(2) 0.00269(2) 0.01458(2)
Co9 Co 0.57486(2) 0.49731(2) 0.51458(2)
O15 O 0.56046(8) 0.39062(10) 0.43368(10)
O16 O 0.43756(8) 0.39341(10) 0.41274(10)
O17 O 0.53851(9) 0.08047(10) 0.10486(10)
O18 O 0.41612(8) 0.08000(10) 0.08415(10)
N5 N 0.68289(9) 0.47456(12) 0.57150(12)
N6 N 0.95534(10) 0.40213(13) 0.63154(12)
H31 H 0.9685 0.3451 0.6395
C37 C 0.49724(11) 0.36390(14) 0.39754(14)
C38 C 0.49281(12) 0.29264(14) 0.33020(14)
C39 C 0.55606(12) 0.26406(14) 0.30394(14)
H32 H 0.6026 0.2866 0.3316
C40 C 0.55134(12) 0.20293(14) 0.23762(14)
H33 H 0.5947 0.1836 0.2199
C41 C 0.48354(12) 0.16959(14) 0.19668(14)
C42 C 0.42046(12) 0.19731(15) 0.22342(15)
H34 H 0.3740 0.1743 0.1959
C43 C 0.42493(12) 0.25843(15) 0.29015(15)
H35 H 0.3817 0.2769 0.3085
C44 C 0.47906(12) 0.10550(14) 0.12308(14)
C45 C 0.72645(12) 0.42184(15) 0.53560(15)
H36 H 0.7058 0.3913 0.4841
C46 C 0.80016(12) 0.40945(15) 0.56956(15)
H37 H 0.8292 0.3716 0.5415
C47 C 0.83130(11) 0.45314(14) 0.64523(14)
C48 C 0.78561(12) 0.50564(16) 0.68403(15)
H38 H 0.8045 0.5354 0.7365
C49 C 0.71259(12) 0.51448(16) 0.64625(15)
H39 H 0.6819 0.5502 0.6740
C50 C 0.91140(11) 0.44319(15) 0.68585(14)
H40 H 0.9316 0.5038 0.7032
H41 H 0.9155 0.4062 0.7382
C51 C 0.97756(11) 0.45118(14) 0.56638(14)
C62 C 0.95325(12) 0.68690(14) 0.46677(15)
H53 H 0.9235 0.7053 0.5080
H54 H 0.9963 0.7264 0.4725
H55 H 0.9239 0.6918 0.4088
C63 C 0.97785(11) 0.59044(14) 0.48379(14)
C64 C 0.95647(11) 0.54110(14) 0.54874(14)
H56 H 0.9263 0.5696 0.5825
O19 O 0.43954(8) 0.60938(10) 0.56632(10)
O20 O 0.56244(8) 0.60659(10) 0.58726(10)
O21 O 0.46149(9) 0.91953(10) 0.89514(10)
O22 O 0.58388(8) 0.92000(10) 0.91585(10)
C65 C 0.50276(11) 0.63610(14) 0.60246(14)
C66 C 0.50719(12) 0.70736(14) 0.66980(14)
C67 C 0.44394(12) 0.73594(14) 0.69606(14)
H57 H 0.3974 0.7134 0.6684
C68 C 0.44866(12) 0.79707(14) 0.76238(14)
H58 H 0.4053 0.8164 0.7801
C69 C 0.51646(12) 0.83041(14) 0.80332(14)
C70 C 0.57954(12) 0.80269(15) 0.77658(15)
H59 H 0.6260 0.8257 0.8041
C71 C 0.57507(12) 0.74157(15) 0.70985(15)
H60 H 0.6183 0.7231 0.6915
C72 C 0.52094(12) 0.89450(14) 0.87692(14)
Co12 Co 0.42514(2) 0.99731(2) 0.98542(2)
O23 O 0.46149(9) 0.58047(10) 0.39514(10)
O24 O 0.53851(9) 0.41953(10) 0.60486(10)
O25 O 0.58388(8) 0.58000(10) 0.41585(10)
O26 O 0.41612(8) 0.42000(10) 0.58415(10)
C62_2 C 0.04675(12) 0.18690(14) 0.03323(15)
H54_2 H 0.0037 0.2264 0.0275
H55_2 H 0.0761 0.1918 0.0912
C63_2 C 0.02215(11) 0.09044(14) 0.01621(14)
N9 N 0.68289(9) 0.02544(12) 0.07150(12)
C48_2 C 0.21439(12) 0.00564(16) 0.81597(15)
H38_2 H 0.1955 0.0354 0.7635
C49_2 C 0.28741(12) 0.01448(16) 0.85375(15)
H39_2 H 0.3181 0.0502 0.8260
H40_2 H 0.0684 0.0038 0.7968
H53_2 H 0.0765 0.2053 0.9920
C64_2 C 0.04353(11) 0.04110(14) 0.95126(14)
H56_2 H 0.0737 0.0696 0.9175
O19_2 O 0.56046(8) 0.10938(10) 0.93368(10)
O20_2 O 0.43756(8) 0.10659(10) 0.91274(10)
C65_2 C 0.49724(11) 0.13610(14) 0.89754(14)
C66_2 C 0.49281(12) 0.20736(14) 0.83020(14)
C67_2 C 0.55606(12) 0.23594(14) 0.80394(14)
H57_2 H 0.6026 0.2134 0.8316
C68_2 C 0.55134(12) 0.29707(14) 0.73762(14)
H58_2 H 0.5947 0.3164 0.7199
C69_2 C 0.48354(12) 0.33041(14) 0.69668(14)
C70_2 C 0.42046(12) 0.30269(15) 0.72342(15)
H59_2 H 0.3740 0.3257 0.6959
C71_2 C 0.42493(12) 0.24157(15) 0.79015(15)
H60_2 H 0.3817 0.2231 0.8085
C72_2 C 0.47906(12) 0.39450(14) 0.62308(14)
O15_2 O 0.43954(8) 0.89062(10) 0.06632(10)
O16_2 O 0.56244(8) 0.89341(10) 0.08726(10)
C37_2 C 0.50276(11) 0.86390(14) 0.10246(14)
C38_2 C 0.50719(12) 0.79264(14) 0.16980(14)
C39_2 C 0.44394(12) 0.76406(14) 0.19606(14)
H32_2 H 0.3974 0.7866 0.1684
C40_2 C 0.44866(12) 0.70293(14) 0.26238(14)
H33_2 H 0.4053 0.6836 0.2801
C41_2 C 0.51646(12) 0.66959(14) 0.30332(14)
C42_2 C 0.57954(12) 0.69731(15) 0.27658(15)
H34_2 H 0.6260 0.6743 0.3041
C43_2 C 0.57507(12) 0.75843(15) 0.20985(15)
H35_2 H 0.6183 0.7769 0.1915
C44_2 C 0.52094(12) 0.60550(14) 0.37692(14)
H36_2 H 0.2942 0.8913 0.0159
N5_2 N 0.31711(9) 0.97456(12) 0.92850(12)
N6_2 N 0.04466(10) 0.90213(13) 0.86846(12)
H31_2 H 0.0315 0.8451 0.8605
C45_2 C 0.27355(12) 0.92184(15) 0.96440(15)
C46_2 C 0.19984(12) 0.90945(15) 0.93044(15)
H37_2 H 0.1708 0.8716 0.9585
C47_2 C 0.16870(11) 0.95314(14) 0.85477(14)
C50_2 C 0.08860(11) 0.94319(15) 0.81415(14)
H41_2 H 0.0845 0.9062 0.7618
C51_2 C 0.02244(11) 0.95118(14) 0.93362(14)
N8_2 N 0.95534(10) 0.09787(13) 0.13154(12)
H46_2 H 0.9685 0.1549 0.1395
C55_2 C 0.72645(12) 0.07816(15) 0.03560(15)
C56_2 C 0.80016(12) 0.09055(15) 0.06956(15)
H48_2 H 0.8292 0.1284 0.0415
C57_2 C 0.83130(11) 0.04686(14) 0.14523(14)
C60_2 C 0.91140(11) 0.05681(15) 0.18585(14)
H52_2 H 0.9155 0.0938 0.2382
C61_2 C 0.97756(11) 0.04882(14) 0.06638(14)
H47_2 H 0.7058 0.1087 0.9841
H42_2 H 0.9235 0.7947 0.0080
C54_2 C 0.95647(11) 0.95890(14) 0.04874(14)
H45_2 H 0.9263 0.9304 0.0825
C58_2 C 0.78561(12) 0.99436(16) 0.18403(15)
H49_2 H 0.8045 0.9646 0.2365
C59_2 C 0.71259(12) 0.98552(16) 0.14625(15)
H50_2 H 0.6819 0.9498 0.1740
H51_2 H 0.9316 0.9962 0.2032
C52_2 C 0.95325(12) 0.81310(14) 0.96677(15)
H43_2 H 0.9963 0.7736 0.9725
H44_2 H 0.9239 0.8082 0.9088
C53_2 C 0.97785(11) 0.90956(14) 0.98379(14)
loop_
_geom_bond_atom_site_label_1
_geom_bond_atom_site_label_2
_geom_bond_site_symmetry_1
_geom_bond_site_symmetry_2
C3 H2 1_555 1_555
C4 C3 1_555 1_555
H3 C4 1_555 1_555
Co5 O4 1_555 1_555
Co6 O2 1_555 1_555
O1 C1 1_555 1_555
O3 C8 1_555 1_555
N2 H1 1_555 1_555
C1 C2 1_555 1_555
C6 C5 1_555 1_555
H4 C6 1_555 1_555
C7 C2 1_555 1_555
H5 C7 1_555 1_555
C8 C5 1_555 1_555
C12 C11 1_555 1_555
H8 C12 1_555 1_555
H9 C13 1_555 1_555
C14 N2 1_555 1_555
H11 C14 1_555 1_555
C15 N2 1_555 1_555
C17 C15 1_555 1_555
C18 C17 1_555 1_555
H13 C18 1_555 1_555
H14 C18 1_555 1_555
H15 C18 1_555 1_555
N3 C19 1_555 1_555
C19 H17 1_555 1_555
C20 C19 1_555 1_555
H18 C20 1_555 1_555
C26 C17 1_555 1_555
H23 C26 1_555 1_555
Co6 N3 1_555 1_555
O11 Co6 1_555 1_555
C6 C7 1_555 1_555
C11 C14 1_555 1_555
C12 C13 1_555 1_555
N1 Co1 1_555 1_555
C9 N1 1_555 1_555
H6 C9 1_555 1_555
C10 C9 1_555 1_555
H7 C10 1_555 1_555
H12 C16 1_555 1_555
N4 H16 1_555 1_555
C22 C21 1_555 1_555
H19 C22 1_555 1_555
H20 C23 1_555 1_555
C24 N4 1_555 1_555
H22 C24 1_555 1_555
C25 N4 1_555 1_555
C27 C16 1_555 1_555
C28 C27 1_555 1_555
H24 C28 1_555 1_555
H25 C28 1_555 1_555
H26 C28 1_555 1_555
O7 C36 1_555 1_555
C29 O5 1_555 1_555
C30 C29 1_555 1_555
C34 C33 1_555 1_555
H29 C34 1_555 1_555
C35 C30 1_555 1_555
H30 C35 1_555 1_555
C36 C33 1_555 1_555
O10 Co1 1_555 1_555
O12 Co1 1_555 1_555
C21 C24 1_555 1_555
C22 C23 1_555 1_555
C25 C27 1_555 1_555
C34 C35 1_555 1_555
H27 C31 1_555 1_555
C32 C31 1_555 1_555
H28 C32 1_555 1_555
Co8 O8 1_555 1_555
H27_2 C31_2 1_555 1_555
C32_2 C31_2 1_555 1_555
H28_2 C32_2 1_555 1_555
Co5 O6 1_555 1_555
O1_2 C1_2 1_555 1_555
O11 C8_2 1_555 1_555
C1_2 C2_2 1_555 1_555
C6_2 C5_2 1_555 1_555
H4_2 C6_2 1_555 1_555
C7_2 C2_2 1_555 1_555
H5_2 C7_2 1_555 1_555
C8_2 C5_2 1_555 1_555
N3_2 C19_2 1_555 1_555
N4_2 H16_2 1_555 1_555
C19_2 H17_2 1_555 1_555
C20_2 C19_2 1_555 1_555
H18_2 C20_2 1_555 1_555
C21_2 C20_2 1_555 1_555
C22_2 C21_2 1_555 1_555
H19_2 C22_2 1_555 1_555
C23_2 N3_2 1_555 1_555
C24_2 N4_2 1_555 1_555
H21_2 C24_2 1_555 1_555
H22_2 C24_2 1_555 1_555
C25_2 N4_2 1_555 1_555
H23_2 C26_2 1_555 1_555
C28_2 C27_2 1_555 1_555
H25_2 C28_2 1_555 1_555
H26_2 C28_2 1_555 1_555
Co8 N3_2 1_555 1_555
O9 Co8 1_555 1_555
C6_2 C7_2 1_555 1_555
C21_2 C24_2 1_555 1_555
C22_2 C23_2 1_555 1_555
C25_2 C26_2 1_555 1_555
C25_2 C27_2 1_555 1_555
N1_2 Co5 1_555 1_555
N2_2 H1_2 1_555 1_555
C9_2 N1_2 1_555 1_555
H6_2 C9_2 1_555 1_555
C10_2 C9_2 1_555 1_555
H7_2 C10_2 1_555 1_555
C11_2 C10_2 1_555 1_555
C12_2 C11_2 1_555 1_555
H8_2 C12_2 1_555 1_555
C13_2 N1_2 1_555 1_555
C14_2 N2_2 1_555 1_555
H10_2 C14_2 1_555 1_555
H11_2 C14_2 1_555 1_555
C15_2 N2_2 1_555 1_555
C16_2 C15_2 1_555 1_555
H12_2 C16_2 1_555 1_555
C17_2 C15_2 1_555 1_555
C18_2 C17_2 1_555 1_555
H14_2 C18_2 1_555 1_555
H15_2 C18_2 1_555 1_555
O12 C36_2 1_555 1_555
C29_2 O5_2 1_555 1_555
C30_2 C29_2 1_555 1_555
C34_2 C33_2 1_555 1_555
H29_2 C34_2 1_555 1_555
C35_2 C30_2 1_555 1_555
H30_2 C35_2 1_555 1_555
C36_2 C33_2 1_555 1_555
C11_2 C14_2 1_555 1_555
C12_2 C13_2 1_555 1_555
C34_2 C35_2 1_555 1_555
C3_2 H2_2 1_555 1_555
C4_2 C3_2 1_555 1_555
H3_2 C4_2 1_555 1_555
C52 H42 1_555 1_555
H43 C52 1_555 1_555
H44 C52 1_555 1_555
C54 C53 1_555 1_555
H45 C54 1_555 1_555
N7 C55 1_555 1_555
N8 H46 1_555 1_555
C55 H47 1_555 1_555
C56 C55 1_555 1_555
H48 C56 1_555 1_555
C57 C56 1_555 1_555
C58 C57 1_555 1_555
H49 C58 1_555 1_555
C59 N7 1_555 1_555
H50 C59 1_555 1_555
C60 N8 1_555 1_555
H51 C60 1_555 1_555
H52 C60 1_555 1_555
C61 C54 1_555 1_555
Co13 N7 1_555 1_555
C52 C53 1_555 1_555
N8 C61 1_555 1_555
C57 C60 1_555 1_555
C58 C59 1_555 1_555
Co9 O15 1_555 1_555
O15 C37 1_555 1_555
O16 C37 1_555 1_555
O17 C44 1_555 1_555
O18 C44 1_555 1_555
N5 Co9 1_555 1_555
N6 H31 1_555 1_555
C37 C38 1_555 1_555
C38 C39 1_555 1_555
C39 H32 1_555 1_555
C40 C39 1_555 1_555
H33 C40 1_555 1_555
C41 C40 1_555 1_555
C42 C41 1_555 1_555
H34 C42 1_555 1_555
C43 C38 1_555 1_555
H35 C43 1_555 1_555
C44 C41 1_555 1_555
C45 N5 1_555 1_555
H36 C45 1_555 1_555
C46 C45 1_555 1_555
H37 C46 1_555 1_555
C47 C46 1_555 1_555
C48 C47 1_555 1_555
H38 C48 1_555 1_555
C49 N5 1_555 1_555
H39 C49 1_555 1_555
C50 N6 1_555 1_555
H40 C50 1_555 1_555
H41 C50 1_555 1_555
C51 N6 1_555 1_555
C62 H53 1_555 1_555
H54 C62 1_555 1_555
H55 C62 1_555 1_555
C64 C51 1_555 1_555
H56 C64 1_555 1_555
Co13 O16 1_555 1_555
O19 Co13 1_555 1_555
O20 Co9 1_555 1_555
O21 C72 1_555 1_555
O22 C72 1_555 1_555
C65 O19 1_555 1_555
C66 C65 1_555 1_555
C67 C66 1_555 1_555
H57 C67 1_555 1_555
C68 C67 1_555 1_555
H58 C68 1_555 1_555
C69 C68 1_555 1_555
C70 C69 1_555 1_555
H59 C70 1_555 1_555
C71 C66 1_555 1_555
H60 C71 1_555 1_555
C72 C69 1_555 1_555
Co12 O21 1_555 1_555
Co15 O17 1_555 1_555
O23 Co13 1_555 1_555
O24 Co9 1_555 1_555
O25 Co9 1_555 1_555
O26 Co13 1_555 1_555
C42 C43 1_555 1_555
C47 C50 1_555 1_555
C48 C49 1_555 1_555
C62 C63 1_555 1_555
C63 C64 1_555 1_555
O20 C65 1_555 1_555
C70 C71 1_555 1_555
H54_2 C62_2 1_555 1_555
H55_2 C62_2 1_555 1_555
N9 Co15 1_555 1_555
C62_2 C63_2 1_555 1_555
H38_2 C48_2 1_555 1_555
H39_2 C49_2 1_555 1_555
H56_2 C64_2 1_555 1_555
O24 C72_2 1_555 1_555
O26 C72_2 1_555 1_555
C65_2 O19_2 1_555 1_555
C66_2 C65_2 1_555 1_555
C67_2 C66_2 1_555 1_555
H57_2 C67_2 1_555 1_555
C68_2 C67_2 1_555 1_555
H58_2 C68_2 1_555 1_555
C69_2 C68_2 1_555 1_555
C70_2 C69_2 1_555 1_555
H59_2 C70_2 1_555 1_555
C71_2 C66_2 1_555 1_555
H60_2 C71_2 1_555 1_555
C72_2 C69_2 1_555 1_555
C48_2 C49_2 1_555 1_555
O20_2 C65_2 1_555 1_555
C70_2 C71_2 1_555 1_555
O15_2 C37_2 1_555 1_555
O16_2 C37_2 1_555 1_555
O23 C44_2 1_555 1_555
O25 C44_2 1_555 1_555
C37_2 C38_2 1_555 1_555
C38_2 C39_2 1_555 1_555
C39_2 H32_2 1_555 1_555
C40_2 C39_2 1_555 1_555
H33_2 C40_2 1_555 1_555
C41_2 C40_2 1_555 1_555
C42_2 C41_2 1_555 1_555
H34_2 C42_2 1_555 1_555
C43_2 C38_2 1_555 1_555
H35_2 C43_2 1_555 1_555
C44_2 C41_2 1_555 1_555
C42_2 C43_2 1_555 1_555
N5_2 Co12 1_555 1_555
N6_2 H31_2 1_555 1_555
C45_2 N5_2 1_555 1_555
C46_2 C45_2 1_555 1_555
H37_2 C46_2 1_555 1_555
C47_2 C46_2 1_555 1_555
C50_2 N6_2 1_555 1_555
H41_2 C50_2 1_555 1_555
C51_2 N6_2 1_555 1_555
C47_2 C50_2 1_555 1_555
N9 C55_2 1_555 1_555
N8_2 H46_2 1_555 1_555
C56_2 C55_2 1_555 1_555
H48_2 C56_2 1_555 1_555
C57_2 C56_2 1_555 1_555
C60_2 N8_2 1_555 1_555
H52_2 C60_2 1_555 1_555
N8_2 C61_2 1_555 1_555
C57_2 C60_2 1_555 1_555
H45_2 C54_2 1_555 1_555
H49_2 C58_2 1_555 1_555
H50_2 C59_2 1_555 1_555
C58_2 C59_2 1_555 1_555
H43_2 C52_2 1_555 1_555
H44_2 C52_2 1_555 1_555
C52_2 C53_2 1_555 1_555

#END
