
###############################################################################
#
# This file contains modified crystal structure data generated from the
# MOF subset of the Cambridge Structural Database (CSD) v543 
# hosted by the Cambridge Crystallographic Data Centre (CCDC).
#
# This work is licensed under the Creative Commons
# Attribution-NonCommercial-ShareAlike 4.0 International License.
# To view a copy of this license, visit
# http://creativecommons.org/licenses/by-nc-sa/4.0/
# or send a letter to
# Creative Commons, PO Box 1866, Mountain View, CA 94042, USA.
#
# CIF created using the CSD Python API on 29 September 2022
# The structure has been converted into the P1 space group
# The structure has a 3D framework
# The original CSD entry MIVXUN is in the monoclinic crystal system
# The framework has been calculated to contain at least 10.0% void space
# The void calculation uses a probe of radius 1.32A, grid spacing 0.4
#
###############################################################################

data_MIVXUN
_chemical_formula_moiety         '(C72 H60 Co4 N8 O16)n'
_symmetry_cell_setting           triclinic
_symmetry_space_group_name_H-M   'P 1'
_symmetry_Int_Tables_number      1
_space_group_name_Hall           'P 1'
loop_
_symmetry_equiv_pos_site_id
_symmetry_equiv_pos_as_xyz
1 x,y,z
_cell_length_a                   11.0172(5)
_cell_length_b                   15.2551(5)
_cell_length_c                   13.6887(8)
_cell_angle_alpha                90
_cell_angle_beta                 101.478(4)
_cell_angle_gamma                90
_cell_volume                     2254.63
loop_
_atom_site_label
_atom_site_type_symbol
_atom_site_fract_x
_atom_site_fract_y
_atom_site_fract_z
Co5 Co 0.09008(3) 0.00243(2) 0.44564(3)
O3 O 0.00138(19) 0.89877(13) 0.36936(16)
Co6 Co 0.59008(3) 0.49757(2) 0.94564(3)
O10 O 0.32517(19) 0.41883(13) 0.94525(16)
O14 O 0.35359(19) 0.60430(12) 0.95995(15)
N2 N 0.9232(2) 0.41697(16) 0.31462(18)
H1 H 0.9035 0.3624 0.3132
H8 H 0.9800 0.5745 0.0895
C14 C 0.9148(2) 0.4631(2) 0.2227(2)
H10 H 0.8738 0.5187 0.2278
H11 H 0.8629 0.4295 0.1703
C15 C 0.9622(2) 0.45777(17) 0.4060(2)
C16 C 0.9719(3) 0.40963(17) 0.49532(19)
C17 C 0.9421(3) 0.31374(17) 0.4912(2)
H12 H 0.8616 0.3046 0.4503
H13 H 0.9429 0.2925 0.5573
N3 N 0.7410(3) 0.49689(12) 0.8771(2)
C19 C 0.7473(3) 0.5513(2) 0.8012(3)
H17 H 0.6764 0.5819 0.7719
C20 C 0.8542(3) 0.5639(2) 0.7647(3)
H18 H 0.8544 0.6020 0.7117
C21 C 0.9617(3) 0.51913(19) 0.8078(2)
C22 C 0.9521(3) 0.4596(2) 0.8823(3)
C23 C 0.8429(3) 0.4509(2) 0.9143(3)
H20 H 0.8393 0.4107 0.9648
H25 H 0.9971 0.7174 0.5368
C28 C 0.9911(2) 0.54839(17) 0.4134(2)
H26 H 0.9852 0.5809 0.3552
O5 O 0.4732(2) 0.41631(14) 0.85411(16)
O8 O 0.14641(19) 0.10430(12) 0.54005(15)
C29 C 0.3702(2) 0.39314(15) 0.87272(19)
C30 C 0.2947(2) 0.32854(15) 0.80143(19)
C31 C 0.1870(2) 0.29263(15) 0.8227(2)
H27 H 0.1590 0.3108 0.8791
C32 C 0.1204(2) 0.22951(16) 0.76007(19)
H28 H 0.0488 0.2054 0.7750
C33 C 0.1620(2) 0.20288(14) 0.67510(19)
C34 C 0.2683(2) 0.24150(16) 0.6523(2)
H29 H 0.2944 0.2257 0.5942
C35 C 0.3346(2) 0.30302(16) 0.7157(2)
H30 H 0.4062 0.3273 0.7009
C36 C 0.0972(2) 0.13101(14) 0.60971(19)
O12 O 0.50138(19) 0.60123(13) 0.86936(16)
O5_2 O 0.0268(2) 0.91631(14) 0.64589(16)
O6 O 0.17483(19) 0.91883(13) 0.55475(16)
C29_2 C 0.1298(2) 0.89314(15) 0.62728(19)
C30_2 C 0.2053(2) 0.82854(15) 0.69857(19)
C31_2 C 0.3130(2) 0.79263(15) 0.6773(2)
H27_2 H 0.3410 0.8108 0.6209
C32_2 C 0.3796(2) 0.72951(16) 0.73993(19)
H28_2 H 0.4512 0.7054 0.7250
C33_2 C 0.3380(2) 0.70288(14) 0.82490(19)
C34_2 C 0.2317(2) 0.74150(16) 0.8477(2)
H29_2 H 0.2056 0.7257 0.9058
C35_2 C 0.1654(2) 0.80302(16) 0.7843(2)
H30_2 H 0.0938 0.8273 0.7991
C36_2 C 0.4028(2) 0.63101(14) 0.89029(19)
N1 N 0.2410(3) 0.00311(12) 0.3771(2)
C12 C 0.4521(3) 0.0404(2) 0.3823(3)
H8_2 H 0.5200 0.0745 0.4105
C13 C 0.3429(3) 0.0491(2) 0.4143(3)
H9 H 0.3393 0.0893 0.4648
H10_2 H 0.6262 0.0187 0.2722
H24 H 0.4429 0.2075 0.0573
C28_2 C 0.5089(2) 0.04839(17) 0.0866(2)
H26_2 H 0.5148 0.0809 0.1448
N2_2 N 0.5768(2) 0.91697(16) 0.18538(18)
H1_2 H 0.5965 0.8624 0.1868
C9 C 0.2473(3) 0.9487(2) 0.3012(3)
H6 H 0.1764 0.9181 0.2719
C10 C 0.3542(3) 0.9361(2) 0.2647(3)
H7 H 0.3544 0.8980 0.2117
C11 C 0.4617(3) 0.98087(19) 0.3078(2)
C14_2 C 0.5852(2) 0.9631(2) 0.2773(2)
H11_2 H 0.6371 0.9295 0.3297
C15_2 C 0.5378(2) 0.95777(17) 0.0940(2)
C16_2 C 0.5281(3) 0.90963(17) 0.00468(19)
C17_2 C 0.5579(3) 0.81374(17) 0.0088(2)
H12_2 H 0.6384 0.8046 0.0497
H14 H 0.4971 0.7826 0.0368
Co1 Co 0.40992(3) 0.50243(2) 0.05436(3)
O1 O 0.5268(2) 0.58369(14) 0.14589(16)
O2 O 0.67483(19) 0.58117(13) 0.05475(16)
O4 O 0.85359(19) 0.89570(12) 0.45995(15)
N1_2 N 0.2590(3) 0.50311(12) 0.1229(2)
C1 C 0.6298(2) 0.60686(15) 0.12728(19)
C2 C 0.7053(2) 0.67146(15) 0.19857(19)
C3 C 0.8130(2) 0.70737(15) 0.1773(2)
H2 H 0.8410 0.6892 0.1209
C4 C 0.8796(2) 0.77049(16) 0.23993(19)
H3 H 0.9512 0.7946 0.2250
C5 C 0.8380(2) 0.79712(14) 0.32490(19)
C6 C 0.7317(2) 0.75850(16) 0.3477(2)
H4 H 0.7056 0.7743 0.4058
C7 C 0.6654(2) 0.69698(16) 0.2843(2)
H5 H 0.5938 0.6727 0.2991
C8 C 0.9028(2) 0.86899(14) 0.39029(19)
C9_2 C 0.2527(3) 0.4487(2) 0.1988(3)
H6_2 H 0.3236 0.4181 0.2281
C10_2 C 0.1458(3) 0.4361(2) 0.2353(3)
H7_2 H 0.1456 0.3980 0.2883
C11_2 C 0.0383(3) 0.48087(19) 0.1922(2)
C12_2 C 0.0479(3) 0.5404(2) 0.1177(3)
C13_2 C 0.1571(3) 0.5491(2) 0.0857(3)
H9_2 H 0.1607 0.5893 0.0352
H14_2 H 0.0029 0.2826 0.4632
C18 C 0.0089(2) 0.45161(17) 0.5866(2)
H15 H 0.0148 0.4191 0.6448
N4 N 0.0768(2) 0.58303(16) 0.68538(18)
H16 H 0.0965 0.6376 0.6868
H19 H 0.0200 0.4255 0.9105
C24 C 0.0852(2) 0.5369(2) 0.7773(2)
H21 H 0.1262 0.4813 0.7722
H22 H 0.1371 0.5705 0.8297
C25 C 0.0378(2) 0.54223(17) 0.5940(2)
C26 C 0.0281(3) 0.59037(17) 0.50468(19)
C27 C 0.0579(3) 0.68626(17) 0.5088(2)
H23 H 0.1384 0.6954 0.5497
H24_2 H 0.0571 0.7075 0.4427
Co8 Co 0.90992(3) 0.99757(2) 0.55436(3)
O11 O 0.49862(19) 0.39877(13) 0.13064(16)
O13 O 0.64641(19) 0.39570(12) 0.04005(15)
O7 O 0.99862(19) 0.10123(13) 0.63064(16)
N4_2 N 0.4232(2) 0.08303(16) 0.81462(18)
H16_2 H 0.4035 0.1376 0.8132
C19_2 C 0.7527(3) 0.0513(2) 0.6988(3)
H17_2 H 0.8236 0.0819 0.7281
C20_2 C 0.6458(3) 0.0639(2) 0.7353(3)
H18_2 H 0.6456 0.1020 0.7883
C21_2 C 0.5383(3) 0.01913(19) 0.6922(2)
C24_2 C 0.4148(2) 0.0369(2) 0.7227(2)
H22_2 H 0.3629 0.0705 0.6703
C25_2 C 0.4622(2) 0.04223(17) 0.9060(2)
C26_2 C 0.4719(3) 0.09037(17) 0.99532(19)
C27_2 C 0.4421(3) 0.18626(17) 0.9912(2)
H23_2 H 0.3616 0.1954 0.9503
H25_2 H 0.5029 0.2174 0.9632
O9 O 0.82517(19) 0.08117(13) 0.44525(16)
H13_2 H 0.5571 0.7925 0.9427
C18_2 C 0.4911(2) 0.95161(17) 0.9134(2)
H15_2 H 0.4852 0.9191 0.8552
N3_2 N 0.7590(3) 0.99689(12) 0.6229(2)
C22_2 C 0.5479(3) 0.9596(2) 0.6177(3)
H19_2 H 0.4800 0.9255 0.5895
C23_2 C 0.6571(3) 0.9509(2) 0.5857(3)
H20_2 H 0.6607 0.9107 0.5352
H21_2 H 0.3738 0.9813 0.7278
O1_2 O 0.9732(2) 0.08369(14) 0.35411(16)
C1_2 C 0.8702(2) 0.10686(15) 0.37272(19)
C2_2 C 0.7947(2) 0.17146(15) 0.30143(19)
C3_2 C 0.6870(2) 0.20737(15) 0.3227(2)
H2_2 H 0.6590 0.1892 0.3791
C4_2 C 0.6204(2) 0.27049(16) 0.26007(19)
H3_2 H 0.5488 0.2946 0.2750
C5_2 C 0.6620(2) 0.29712(14) 0.17510(19)
C6_2 C 0.7683(2) 0.25850(16) 0.1523(2)
H4_2 H 0.7944 0.2743 0.0942
C7_2 C 0.8346(2) 0.19698(16) 0.2157(2)
H5_2 H 0.9062 0.1727 0.2009
C8_2 C 0.5972(2) 0.36899(14) 0.10971(19)
loop_
_geom_bond_atom_site_label_1
_geom_bond_atom_site_label_2
_geom_bond_site_symmetry_1
_geom_bond_site_symmetry_2
N2 H1 1_555 1_555
C14 N2 1_555 1_555
H10 C14 1_555 1_555
H11 C14 1_555 1_555
C15 N2 1_555 1_555
C16 C15 1_555 1_555
C17 C16 1_555 1_555
H12 C17 1_555 1_555
H13 C17 1_555 1_555
N3 C19 1_555 1_555
C19 H17 1_555 1_555
C20 C19 1_555 1_555
H18 C20 1_555 1_555
C21 C20 1_555 1_555
C22 C21 1_555 1_555
C23 N3 1_555 1_555
H20 C23 1_555 1_555
C28 C15 1_555 1_555
H26 C28 1_555 1_555
Co6 N3 1_555 1_555
O5 Co6 1_555 1_555
O10 C29 1_555 1_555
O8 C36 1_555 1_555
C29 O5 1_555 1_555
C30 C29 1_555 1_555
C31 C30 1_555 1_555
H27 C31 1_555 1_555
C32 C31 1_555 1_555
H28 C32 1_555 1_555
C33 C32 1_555 1_555
C34 C33 1_555 1_555
H29 C34 1_555 1_555
C35 C30 1_555 1_555
H30 C35 1_555 1_555
C36 C33 1_555 1_555
Co5 O8 1_555 1_555
O12 Co6 1_555 1_555
C22 C23 1_555 1_555
C34 C35 1_555 1_555
O6 C29_2 1_555 1_555
O12 C36_2 1_555 1_555
O14 C36_2 1_555 1_555
C29_2 O5_2 1_555 1_555
C30_2 C29_2 1_555 1_555
C31_2 C30_2 1_555 1_555
H27_2 C31_2 1_555 1_555
C32_2 C31_2 1_555 1_555
H28_2 C32_2 1_555 1_555
C33_2 C32_2 1_555 1_555
C34_2 C33_2 1_555 1_555
H29_2 C34_2 1_555 1_555
C35_2 C30_2 1_555 1_555
H30_2 C35_2 1_555 1_555
C36_2 C33_2 1_555 1_555
C34_2 C35_2 1_555 1_555
N1 Co5 1_555 1_555
H8_2 C12 1_555 1_555
C13 N1 1_555 1_555
H9 C13 1_555 1_555
H26_2 C28_2 1_555 1_555
C12 C13 1_555 1_555
N2_2 H1_2 1_555 1_555
H6 C9 1_555 1_555
C10 C9 1_555 1_555
H7 C10 1_555 1_555
C11 C10 1_555 1_555
C14_2 N2_2 1_555 1_555
H11_2 C14_2 1_555 1_555
C15_2 N2_2 1_555 1_555
C16_2 C15_2 1_555 1_555
C17_2 C16_2 1_555 1_555
H12_2 C17_2 1_555 1_555
H14 C17_2 1_555 1_555
C11 C14_2 1_555 1_555
Co1 O1 1_555 1_555
O1 C1 1_555 1_555
O2 C1 1_555 1_555
O4 C8 1_555 1_555
N1_2 Co1 1_555 1_555
C1 C2 1_555 1_555
C2 C3 1_555 1_555
C3 H2 1_555 1_555
C4 C3 1_555 1_555
H3 C4 1_555 1_555
C5 C4 1_555 1_555
C6 C5 1_555 1_555
H4 C6 1_555 1_555
C7 C2 1_555 1_555
H5 C7 1_555 1_555
C8 C5 1_555 1_555
C9_2 N1_2 1_555 1_555
H6_2 C9_2 1_555 1_555
C10_2 C9_2 1_555 1_555
H7_2 C10_2 1_555 1_555
C11_2 C10_2 1_555 1_555
C12_2 C11_2 1_555 1_555
C13_2 N1_2 1_555 1_555
H9_2 C13_2 1_555 1_555
H15 C18 1_555 1_555
N4 H16 1_555 1_555
C24 N4 1_555 1_555
H21 C24 1_555 1_555
H22 C24 1_555 1_555
C25 C18 1_555 1_555
C26 C25 1_555 1_555
C27 C26 1_555 1_555
H23 C27 1_555 1_555
H24_2 C27 1_555 1_555
Co8 O4 1_555 1_555
O11 Co1 1_555 1_555
C6 C7 1_555 1_555
C12_2 C13_2 1_555 1_555
N4 C25 1_555 1_555
N4_2 H16_2 1_555 1_555
C19_2 H17_2 1_555 1_555
C20_2 C19_2 1_555 1_555
H18_2 C20_2 1_555 1_555
C21_2 C20_2 1_555 1_555
C24_2 N4_2 1_555 1_555
H22_2 C24_2 1_555 1_555
C26_2 C25_2 1_555 1_555
C27_2 C26_2 1_555 1_555
H23_2 C27_2 1_555 1_555
H25_2 C27_2 1_555 1_555
N4_2 C25_2 1_555 1_555
C21_2 C24_2 1_555 1_555
H15_2 C18_2 1_555 1_555
H19_2 C22_2 1_555 1_555
C23_2 N3_2 1_555 1_555
H20_2 C23_2 1_555 1_555
Co8 N3_2 1_555 1_555
C22_2 C23_2 1_555 1_555
O1_2 C1_2 1_555 1_555
O9 C1_2 1_555 1_555
O11 C8_2 1_555 1_555
O13 C8_2 1_555 1_555
C1_2 C2_2 1_555 1_555
C2_2 C3_2 1_555 1_555
C3_2 H2_2 1_555 1_555
C4_2 C3_2 1_555 1_555
H3_2 C4_2 1_555 1_555
C5_2 C4_2 1_555 1_555
C6_2 C5_2 1_555 1_555
H4_2 C6_2 1_555 1_555
C7_2 C2_2 1_555 1_555
H5_2 C7_2 1_555 1_555
C8_2 C5_2 1_555 1_555
C6_2 C7_2 1_555 1_555

#END
