
###############################################################################
#
# This file contains modified crystal structure data generated from the
# MOF subset of the Cambridge Structural Database (CSD) v543 
# hosted by the Cambridge Crystallographic Data Centre (CCDC).
#
# This work is licensed under the Creative Commons
# Attribution-NonCommercial-ShareAlike 4.0 International License.
# To view a copy of this license, visit
# http://creativecommons.org/licenses/by-nc-sa/4.0/
# or send a letter to
# Creative Commons, PO Box 1866, Mountain View, CA 94042, USA.
#
# CIF created using the CSD Python API on 29 September 2022
# The structure has been converted into the P1 space group
# The structure has a 3D framework
# The original CSD entry MIVXIB is in the monoclinic crystal system
# The framework has been calculated to contain at least 10.0% void space
# The void calculation uses a probe of radius 1.32A, grid spacing 0.4
#
###############################################################################

data_MIVXIB
_chemical_formula_moiety         '(C144 H120 Co7 N16 O26)n'
_symmetry_cell_setting           triclinic
_symmetry_space_group_name_H-M   'P 1'
_symmetry_Int_Tables_number      1
_space_group_name_Hall           'P 1'
loop_
_symmetry_equiv_pos_site_id
_symmetry_equiv_pos_as_xyz
1 x,y,z
_cell_length_a                   18.4764(5)
_cell_length_b                   14.7048(3)
_cell_length_c                   16.0370(4)
_cell_angle_alpha                90
_cell_angle_beta                 101.241(3)
_cell_angle_gamma                90
_cell_volume                     4273.53
loop_
_atom_site_label
_atom_site_type_symbol
_atom_site_fract_x
_atom_site_fract_y
_atom_site_fract_z
O2 O 0.05019(13) 0.61049(15) 0.09427(14)
O4 O 0.01748(15) 0.92013(16) 0.41295(15)
C3 C 0.04058(19) 0.7528(2) 0.2076(2)
H2 H 0.0872 0.7428 0.1927
C4 C 0.0342(2) 0.8143(2) 0.2720(2)
H3 H 0.0768 0.8449 0.3019
Co5 Co 0.07797(2) 0.99519(3) 0.52484(3)
Co6 Co 0.07797(2) 0.50481(3) 0.02484(3)
Co8 Co 0.92203(2) 0.00481(3) 0.47516(3)
O1 O 0.92711(13) 0.59884(15) 0.05975(14)
O3 O 0.89560(15) 0.92111(16) 0.37197(15)
N2 N 0.58662(18) 0.3645(2) 0.0955(2)
H1 H 0.5850 0.3584 0.1497
C1 C 0.98583(19) 0.6332(2) 0.1012(2)
C2 C 0.97890(19) 0.7060(2) 0.1653(2)
C5 C 0.96558(19) 0.8311(2) 0.2925(2)
C6 C 0.9031(2) 0.7876(2) 0.2470(2)
H4 H 0.8558 0.8009 0.2590
C7 C 0.90995(19) 0.7248(2) 0.1842(2)
H5 H 0.8674 0.6946 0.1540
C8 C 0.9595(2) 0.8952(2) 0.3641(2)
C11 C 0.7011(2) 0.3529(2) 0.0372(2)
C12 C 0.7276(3) 0.4342(3) 0.0742(3)
H8 H 0.7033 0.4627 0.1143
C13 C 0.7894(2) 0.4741(3) 0.0530(3)
H9 H 0.8063 0.5302 0.0791
C14 C 0.6336(2) 0.3057(3) 0.0580(3)
H10 H 0.6045 0.2795 0.0051
H11 H 0.6501 0.2549 0.0976
C15 C 0.5431(2) 0.4320(2) 0.0472(2)
C17 C 0.4953(2) 0.4844(3) 0.0852(2)
C18 C 0.4869(2) 0.4656(3) 0.1748(2)
H13 H 0.4501 0.5070 0.1902
H14 H 0.5343 0.4749 0.2135
H15 H 0.4707 0.4026 0.1793
N3 N 0.17390(16) 0.56271(19) 0.00224(18)
C19 C 0.1991(2) 0.6415(3) 0.0378(3)
H17 H 0.1733 0.6692 0.0769
C20 C 0.2609(2) 0.6849(3) 0.0205(3)
H18 H 0.2772 0.7404 0.0481
C26 C 0.4532(2) 0.5513(3) 0.0375(2)
H23 H 0.4209 0.5869 0.0634
O11 O 0.10440(15) 0.42111(16) 0.12803(15)
O13 O 0.98252(15) 0.42013(16) 0.08705(15)
Co1 Co 0.92203(2) 0.49519(3) 0.97516(3)
N1 N 0.82610(16) 0.43729(19) 0.99776(18)
C9 C 0.8009(2) 0.3585(3) 0.9622(3)
H6 H 0.8267 0.3308 0.9231
C10 C 0.7391(2) 0.3151(3) 0.9795(3)
H7 H 0.7228 0.2596 0.9519
C16 C 0.5468(2) 0.4487(3) 0.9625(2)
H12 H 0.5791 0.4131 0.9366
N4 N 0.41338(18) 0.6355(2) 0.9045(2)
H16 H 0.4150 0.6416 0.8503
C21 C 0.2989(2) 0.6471(2) 0.9628(2)
C22 C 0.2724(3) 0.5658(3) 0.9258(3)
H19 H 0.2967 0.5373 0.8857
C23 C 0.2106(2) 0.5259(3) 0.9470(3)
H20 H 0.1937 0.4698 0.9209
C24 C 0.3664(2) 0.6943(3) 0.9420(3)
H21 H 0.3955 0.7205 0.9949
H22 H 0.3499 0.7451 0.9024
C25 C 0.4569(2) 0.5680(2) 0.9528(2)
C27 C 0.5047(2) 0.5156(3) 0.9148(2)
C28 C 0.5131(2) 0.5344(3) 0.8252(2)
H24 H 0.5499 0.4930 0.8098
H25 H 0.4657 0.5251 0.7865
H26 H 0.5293 0.5974 0.8207
O5 O 0.07289(13) 0.40116(15) 0.94025(14)
O7 O 0.10440(15) 0.07889(16) 0.62803(15)
C29 C 0.01417(19) 0.3668(2) 0.8988(2)
C30 C 0.02110(19) 0.2940(2) 0.8347(2)
C33 C 0.03442(19) 0.1689(2) 0.7075(2)
C34 C 0.0969(2) 0.2124(2) 0.7530(2)
H29 H 0.1442 0.1991 0.7410
C35 C 0.09005(19) 0.2752(2) 0.8158(2)
H30 H 0.1326 0.3054 0.8460
C36 C 0.0405(2) 0.1048(2) 0.6359(2)
O10 O 0.94981(13) 0.38951(15) 0.90573(14)
O12 O 0.89560(15) 0.57889(16) 0.87197(15)
O14 O 0.01748(15) 0.57987(16) 0.91295(15)
O8 O 0.98252(15) 0.07987(16) 0.58705(15)
C31 C 0.95942(19) 0.2472(2) 0.7924(2)
H27 H 0.9128 0.2572 0.8073
C32 C 0.9658(2) 0.1857(2) 0.7280(2)
H28 H 0.9232 0.1551 0.6981
O6 O 0.05019(13) 0.88951(15) 0.59427(14)
C31_2 C 0.04058(19) 0.7472(2) 0.7076(2)
H27_2 H 0.0872 0.7572 0.6927
C32_2 C 0.0342(2) 0.6857(2) 0.7720(2)
H28_2 H 0.0768 0.6551 0.8019
O1_2 O 0.07289(13) 0.09884(15) 0.44025(14)
C1_2 C 0.01417(19) 0.1332(2) 0.3988(2)
C2_2 C 0.02110(19) 0.2060(2) 0.3347(2)
C5_2 C 0.03442(19) 0.3311(2) 0.2075(2)
C6_2 C 0.0969(2) 0.2876(2) 0.2530(2)
H4_2 H 0.1442 0.3009 0.2410
C7_2 C 0.09005(19) 0.2248(2) 0.3158(2)
H5_2 H 0.1326 0.1946 0.3460
C8_2 C 0.0405(2) 0.3952(2) 0.1359(2)
H9_2 H 0.1937 0.0302 0.4209
H13_2 H 0.5499 0.0070 0.3098
N3_2 N 0.82610(16) 0.06271(19) 0.49776(18)
N4_2 N 0.58662(18) 0.1355(2) 0.5955(2)
H16_2 H 0.5850 0.1416 0.6497
C19_2 C 0.8009(2) 0.1415(3) 0.4622(3)
H17_2 H 0.8267 0.1692 0.4231
C20_2 C 0.7391(2) 0.1849(3) 0.4795(3)
H18_2 H 0.7228 0.2404 0.4519
C21_2 C 0.7011(2) 0.1471(2) 0.5372(2)
C22_2 C 0.7276(3) 0.0658(3) 0.5742(3)
H19_2 H 0.7033 0.0373 0.6143
C23_2 C 0.7894(2) 0.0259(3) 0.5530(3)
C24_2 C 0.6336(2) 0.1943(3) 0.5580(3)
H21_2 H 0.6045 0.2205 0.5051
H22_2 H 0.6501 0.2451 0.5976
C25_2 C 0.5431(2) 0.0680(2) 0.5472(2)
C26_2 C 0.5468(2) 0.0513(3) 0.4625(2)
H23_2 H 0.5791 0.0869 0.4366
C27_2 C 0.4953(2) 0.0156(3) 0.5852(2)
C28_2 C 0.4869(2) 0.0344(3) 0.6748(2)
H25_2 H 0.5343 0.0251 0.7135
H26_2 H 0.4707 0.0974 0.6793
O9 O 0.94981(13) 0.11049(15) 0.40573(14)
N1_2 N 0.17390(16) 0.93729(19) 0.50224(18)
N2_2 N 0.41338(18) 0.8645(2) 0.4045(2)
H1_2 H 0.4150 0.8584 0.3503
C9_2 C 0.1991(2) 0.8585(3) 0.5378(3)
H6_2 H 0.1733 0.8308 0.5769
C10_2 C 0.2609(2) 0.8151(3) 0.5205(3)
H7_2 H 0.2772 0.7596 0.5481
C11_2 C 0.2989(2) 0.8529(2) 0.4628(2)
C12_2 C 0.2724(3) 0.9342(3) 0.4258(3)
H8_2 H 0.2967 0.9627 0.3857
C13_2 C 0.2106(2) 0.9741(3) 0.4470(3)
C14_2 C 0.3664(2) 0.8057(3) 0.4420(3)
H10_2 H 0.3955 0.7795 0.4949
H11_2 H 0.3499 0.7549 0.4024
C15_2 C 0.4569(2) 0.9320(2) 0.4528(2)
C16_2 C 0.4532(2) 0.9487(3) 0.5375(2)
H12_2 H 0.4209 0.9131 0.5634
C17_2 C 0.5047(2) 0.9844(3) 0.4148(2)
C18_2 C 0.5131(2) 0.9656(3) 0.3252(2)
H14_2 H 0.4657 0.9749 0.2865
H15_2 H 0.5293 0.9026 0.3207
H20_2 H 0.8063 0.9698 0.5791
H24_2 H 0.4501 0.9930 0.6902
O5_2 O 0.92711(13) 0.90116(15) 0.55975(14)
C29_2 C 0.98583(19) 0.8668(2) 0.6012(2)
C30_2 C 0.97890(19) 0.7940(2) 0.6653(2)
C33_2 C 0.96558(19) 0.6689(2) 0.7925(2)
C34_2 C 0.9031(2) 0.7124(2) 0.7470(2)
H29_2 H 0.8558 0.6991 0.7590
C35_2 C 0.90995(19) 0.7752(2) 0.6842(2)
H30_2 H 0.8674 0.8054 0.6540
C36_2 C 0.9595(2) 0.6048(2) 0.8641(2)
C3_2 C 0.95942(19) 0.2528(2) 0.2924(2)
H2_2 H 0.9128 0.2428 0.3073
C4_2 C 0.9658(2) 0.3143(2) 0.2280(2)
H3_2 H 0.9232 0.3449 0.1981
C52 C 0.0434(2) 0.3118(2) 0.5359(2)
H42 H 0.0717 0.2906 0.4939
H44 H 0.0740 0.3076 0.5930
C53 C 0.02048(19) 0.4089(2) 0.5173(2)
C54 C 0.0405(2) 0.4549(2) 0.4495(2)
H45 H 0.0686 0.4238 0.4147
N7 N 0.31499(16) 0.51679(19) 0.43134(18)
N8 N 0.03904(18) 0.5906(2) 0.3611(2)
H46 H 0.0211 0.6453 0.3475
C55 C 0.2686(2) 0.5612(3) 0.4705(2)
H47 H 0.2870 0.5853 0.5256
C56 C 0.1947(2) 0.5742(3) 0.4351(2)
H48 H 0.1634 0.6062 0.4654
C57 C 0.16703(19) 0.5397(2) 0.3546(2)
C58 C 0.2158(2) 0.4949(3) 0.3129(2)
H49 H 0.1992 0.4714 0.2573
C59 C 0.2883(2) 0.4848(3) 0.3528(2)
H50 H 0.3210 0.4538 0.3236
C60 C 0.08714(19) 0.5491(3) 0.3109(2)
H51 H 0.0677 0.4879 0.2933
H52 H 0.0850 0.5857 0.2587
C61 C 0.02046(19) 0.5456(2) 0.4310(2)
H54 H 0.0006 0.7262 0.4672
Co13 Co 0.42445(2) 0.50091(3) 0.48558(3)
Co15 Co 0.57555(2) 0.00091(3) 0.01442(3)
Co9 Co 0.57555(2) 0.49909(3) 0.51442(3)
O15 O 0.56462(15) 0.39088(17) 0.43518(16)
O16 O 0.44112(15) 0.39177(17) 0.41428(17)
O17 O 0.54623(15) 0.08118(19) 0.10657(17)
O18 O 0.42264(15) 0.08135(18) 0.08567(17)
N5 N 0.68501(16) 0.48321(19) 0.56866(18)
N6 N 0.96096(18) 0.4094(2) 0.6389(2)
H31 H 0.9789 0.3547 0.6525
C37 C 0.5013(2) 0.3638(2) 0.3992(2)
C38 C 0.4983(2) 0.2917(2) 0.3320(2)
C39 C 0.5623(2) 0.2615(2) 0.3080(2)
H32 H 0.6090 0.2829 0.3369
C40 C 0.5579(2) 0.2003(2) 0.2419(2)
H33 H 0.6019 0.1790 0.2260
C41 C 0.4899(2) 0.1696(2) 0.1987(2)
C42 C 0.4259(2) 0.1982(2) 0.2238(2)
H34 H 0.3793 0.1762 0.1953
C43 C 0.4302(2) 0.2591(3) 0.2906(2)
H35 H 0.3864 0.2785 0.3081
C44 C 0.4859(2) 0.1058(2) 0.1248(2)
C45 C 0.7314(2) 0.4388(3) 0.5295(2)
H36 H 0.7130 0.4147 0.4744
C46 C 0.8053(2) 0.4258(3) 0.5649(2)
H37 H 0.8366 0.3938 0.5346
C47 C 0.83297(19) 0.4603(2) 0.6454(2)
C48 C 0.7842(2) 0.5051(3) 0.6871(2)
H38 H 0.8008 0.5286 0.7427
C49 C 0.7117(2) 0.5152(3) 0.6472(2)
H39 H 0.6790 0.5462 0.6764
C50 C 0.91286(19) 0.4509(3) 0.6891(2)
H40 H 0.9323 0.5121 0.7067
H41 H 0.9150 0.4143 0.7413
C51 C 0.97954(19) 0.4544(2) 0.5690(2)
H43 H 0.9994 0.2738 0.5328
C62 C 0.9566(2) 0.6882(2) 0.4641(2)
H53 H 0.9283 0.7094 0.5061
H55 H 0.9260 0.6924 0.4070
C63 C 0.97952(19) 0.5911(2) 0.4827(2)
C64 C 0.9595(2) 0.5451(2) 0.5505(2)
H56 H 0.9314 0.5762 0.5853
O19 O 0.43538(15) 0.60912(17) 0.56482(16)
O20 O 0.55888(15) 0.60823(17) 0.58572(17)
O21 O 0.45377(15) 0.91882(19) 0.89343(17)
O22 O 0.57736(15) 0.91865(18) 0.91433(17)
C65 C 0.4987(2) 0.6362(2) 0.6008(2)
C66 C 0.5017(2) 0.7083(2) 0.6680(2)
C67 C 0.4377(2) 0.7385(2) 0.6920(2)
H57 H 0.3910 0.7171 0.6631
C68 C 0.4421(2) 0.7997(2) 0.7581(2)
H58 H 0.3981 0.8210 0.7740
C69 C 0.5101(2) 0.8304(2) 0.8013(2)
C70 C 0.5741(2) 0.8018(2) 0.7762(2)
H59 H 0.6207 0.8238 0.8047
C71 C 0.5698(2) 0.7409(3) 0.7094(2)
H60 H 0.6136 0.7215 0.6919
C72 C 0.5141(2) 0.8942(2) 0.8752(2)
Co12 Co 0.42445(2) 0.99909(3) 0.98558(3)
O23 O 0.45377(15) 0.58118(19) 0.39343(17)
O24 O 0.54623(15) 0.41882(19) 0.60657(17)
O25 O 0.57736(15) 0.58135(18) 0.41433(17)
O26 O 0.42264(15) 0.41865(18) 0.58567(17)
C62_2 C 0.0434(2) 0.1882(2) 0.0359(2)
H55_2 H 0.0740 0.1924 0.0930
C63_2 C 0.02048(19) 0.0911(2) 0.0173(2)
N9 N 0.68501(16) 0.01679(19) 0.06866(18)
C48_2 C 0.2158(2) 0.0051(3) 0.8129(2)
H38_2 H 0.1992 0.0286 0.7573
C49_2 C 0.2883(2) 0.0152(3) 0.8528(2)
H39_2 H 0.3210 0.0462 0.8236
H40_2 H 0.0677 0.0121 0.7933
H53_2 H 0.0717 0.2094 0.9939
C64_2 C 0.0405(2) 0.0451(2) 0.9495(2)
H56_2 H 0.0686 0.0762 0.9147
O19_2 O 0.56462(15) 0.10912(17) 0.93518(16)
O20_2 O 0.44112(15) 0.10823(17) 0.91428(17)
C65_2 C 0.5013(2) 0.1362(2) 0.8992(2)
C66_2 C 0.4983(2) 0.2083(2) 0.8320(2)
C67_2 C 0.5623(2) 0.2385(2) 0.8080(2)
H57_2 H 0.6090 0.2171 0.8369
C68_2 C 0.5579(2) 0.2997(2) 0.7419(2)
H58_2 H 0.6019 0.3210 0.7260
C69_2 C 0.4899(2) 0.3304(2) 0.6987(2)
C70_2 C 0.4259(2) 0.3018(2) 0.7238(2)
H59_2 H 0.3793 0.3238 0.6953
C71_2 C 0.4302(2) 0.2409(3) 0.7906(2)
H60_2 H 0.3864 0.2215 0.8081
C72_2 C 0.4859(2) 0.3942(2) 0.6248(2)
O15_2 O 0.43538(15) 0.89088(17) 0.06482(16)
O16_2 O 0.55888(15) 0.89177(17) 0.08572(17)
C37_2 C 0.4987(2) 0.8638(2) 0.1008(2)
C38_2 C 0.5017(2) 0.7917(2) 0.1680(2)
C39_2 C 0.4377(2) 0.7615(2) 0.1920(2)
H32_2 H 0.3910 0.7829 0.1631
C40_2 C 0.4421(2) 0.7003(2) 0.2581(2)
H33_2 H 0.3981 0.6790 0.2740
C41_2 C 0.5101(2) 0.6696(2) 0.3013(2)
C42_2 C 0.5741(2) 0.6982(2) 0.2762(2)
H34_2 H 0.6207 0.6762 0.3047
C43_2 C 0.5698(2) 0.7591(3) 0.2094(2)
H35_2 H 0.6136 0.7785 0.1919
C44_2 C 0.5141(2) 0.6058(2) 0.3752(2)
H36_2 H 0.2870 0.9147 0.0256
N5_2 N 0.31499(16) 0.98321(19) 0.93134(18)
N6_2 N 0.03904(18) 0.9094(2) 0.8611(2)
H31_2 H 0.0211 0.8547 0.8475
C45_2 C 0.2686(2) 0.9388(3) 0.9705(2)
C46_2 C 0.1947(2) 0.9258(3) 0.9351(2)
H37_2 H 0.1634 0.8938 0.9654
C47_2 C 0.16703(19) 0.9603(2) 0.8546(2)
C50_2 C 0.08714(19) 0.9509(3) 0.8109(2)
H41_2 H 0.0850 0.9143 0.7587
C51_2 C 0.02046(19) 0.9544(2) 0.9310(2)
H43_2 H 0.0006 0.7738 0.9672
N8_2 N 0.96096(18) 0.0906(2) 0.1389(2)
H46_2 H 0.9789 0.1453 0.1525
C55_2 C 0.7314(2) 0.0612(3) 0.0295(2)
C56_2 C 0.8053(2) 0.0742(3) 0.0649(2)
H48_2 H 0.8366 0.1062 0.0346
C57_2 C 0.83297(19) 0.0397(2) 0.1454(2)
C60_2 C 0.91286(19) 0.0491(3) 0.1891(2)
H52_2 H 0.9150 0.0857 0.2413
C61_2 C 0.97954(19) 0.0456(2) 0.0690(2)
H54_2 H 0.9994 0.2262 0.0328
H47_2 H 0.7130 0.0853 0.9744
H42_2 H 0.9283 0.7906 0.0061
C54_2 C 0.9595(2) 0.9549(2) 0.0505(2)
H45_2 H 0.9314 0.9238 0.0853
C58_2 C 0.7842(2) 0.9949(3) 0.1871(2)
H49_2 H 0.8008 0.9714 0.2427
C59_2 C 0.7117(2) 0.9848(3) 0.1472(2)
H50_2 H 0.6790 0.9538 0.1764
H51_2 H 0.9323 0.9879 0.2067
C52_2 C 0.9566(2) 0.8118(2) 0.9641(2)
H44_2 H 0.9260 0.8076 0.9070
C53_2 C 0.97952(19) 0.9089(2) 0.9827(2)
loop_
_geom_bond_atom_site_label_1
_geom_bond_atom_site_label_2
_geom_bond_site_symmetry_1
_geom_bond_site_symmetry_2
C3 H2 1_555 1_555
C4 C3 1_555 1_555
H3 C4 1_555 1_555
Co5 O4 1_555 1_555
Co6 O2 1_555 1_555
O1 C1 1_555 1_555
O3 C8 1_555 1_555
N2 H1 1_555 1_555
C1 C2 1_555 1_555
C6 C5 1_555 1_555
H4 C6 1_555 1_555
C7 C2 1_555 1_555
H5 C7 1_555 1_555
C8 C5 1_555 1_555
C12 C11 1_555 1_555
H8 C12 1_555 1_555
H9 C13 1_555 1_555
C14 N2 1_555 1_555
H10 C14 1_555 1_555
H11 C14 1_555 1_555
C15 N2 1_555 1_555
C17 C15 1_555 1_555
C18 C17 1_555 1_555
H13 C18 1_555 1_555
H14 C18 1_555 1_555
H15 C18 1_555 1_555
N3 C19 1_555 1_555
C19 H17 1_555 1_555
C20 C19 1_555 1_555
H18 C20 1_555 1_555
C26 C17 1_555 1_555
H23 C26 1_555 1_555
Co6 N3 1_555 1_555
O11 Co6 1_555 1_555
C6 C7 1_555 1_555
C11 C14 1_555 1_555
C12 C13 1_555 1_555
N1 Co1 1_555 1_555
C9 N1 1_555 1_555
H6 C9 1_555 1_555
C10 C9 1_555 1_555
H7 C10 1_555 1_555
H12 C16 1_555 1_555
N4 H16 1_555 1_555
C22 C21 1_555 1_555
H19 C22 1_555 1_555
H20 C23 1_555 1_555
C24 N4 1_555 1_555
H21 C24 1_555 1_555
H22 C24 1_555 1_555
C25 N4 1_555 1_555
C27 C16 1_555 1_555
C28 C27 1_555 1_555
H24 C28 1_555 1_555
H25 C28 1_555 1_555
H26 C28 1_555 1_555
O7 C36 1_555 1_555
C29 O5 1_555 1_555
C30 C29 1_555 1_555
C34 C33 1_555 1_555
H29 C34 1_555 1_555
C35 C30 1_555 1_555
H30 C35 1_555 1_555
C36 C33 1_555 1_555
O10 Co1 1_555 1_555
O12 Co1 1_555 1_555
C21 C24 1_555 1_555
C22 C23 1_555 1_555
C25 C27 1_555 1_555
C34 C35 1_555 1_555
H27 C31 1_555 1_555
C32 C31 1_555 1_555
H28 C32 1_555 1_555
Co8 O8 1_555 1_555
H27_2 C31_2 1_555 1_555
C32_2 C31_2 1_555 1_555
H28_2 C32_2 1_555 1_555
Co5 O6 1_555 1_555
O1_2 C1_2 1_555 1_555
O11 C8_2 1_555 1_555
C1_2 C2_2 1_555 1_555
C6_2 C5_2 1_555 1_555
H4_2 C6_2 1_555 1_555
C7_2 C2_2 1_555 1_555
H5_2 C7_2 1_555 1_555
C8_2 C5_2 1_555 1_555
N3_2 C19_2 1_555 1_555
N4_2 H16_2 1_555 1_555
C19_2 H17_2 1_555 1_555
C20_2 C19_2 1_555 1_555
H18_2 C20_2 1_555 1_555
C21_2 C20_2 1_555 1_555
C22_2 C21_2 1_555 1_555
H19_2 C22_2 1_555 1_555
C23_2 N3_2 1_555 1_555
C24_2 N4_2 1_555 1_555
H21_2 C24_2 1_555 1_555
H22_2 C24_2 1_555 1_555
C25_2 N4_2 1_555 1_555
H23_2 C26_2 1_555 1_555
C28_2 C27_2 1_555 1_555
H25_2 C28_2 1_555 1_555
H26_2 C28_2 1_555 1_555
Co8 N3_2 1_555 1_555
O9 Co8 1_555 1_555
C6_2 C7_2 1_555 1_555
C21_2 C24_2 1_555 1_555
C22_2 C23_2 1_555 1_555
C25_2 C26_2 1_555 1_555
C25_2 C27_2 1_555 1_555
N1_2 Co5 1_555 1_555
N2_2 H1_2 1_555 1_555
C9_2 N1_2 1_555 1_555
H6_2 C9_2 1_555 1_555
C10_2 C9_2 1_555 1_555
H7_2 C10_2 1_555 1_555
C11_2 C10_2 1_555 1_555
C12_2 C11_2 1_555 1_555
H8_2 C12_2 1_555 1_555
C13_2 N1_2 1_555 1_555
C14_2 N2_2 1_555 1_555
H10_2 C14_2 1_555 1_555
H11_2 C14_2 1_555 1_555
C15_2 N2_2 1_555 1_555
C16_2 C15_2 1_555 1_555
H12_2 C16_2 1_555 1_555
C17_2 C15_2 1_555 1_555
C18_2 C17_2 1_555 1_555
H14_2 C18_2 1_555 1_555
H15_2 C18_2 1_555 1_555
O12 C36_2 1_555 1_555
C29_2 O5_2 1_555 1_555
C30_2 C29_2 1_555 1_555
C34_2 C33_2 1_555 1_555
H29_2 C34_2 1_555 1_555
C35_2 C30_2 1_555 1_555
H30_2 C35_2 1_555 1_555
C36_2 C33_2 1_555 1_555
C11_2 C14_2 1_555 1_555
C12_2 C13_2 1_555 1_555
C34_2 C35_2 1_555 1_555
C3_2 H2_2 1_555 1_555
C4_2 C3_2 1_555 1_555
H3_2 C4_2 1_555 1_555
C52 H42 1_555 1_555
H44 C52 1_555 1_555
C54 C53 1_555 1_555
H45 C54 1_555 1_555
N7 C55 1_555 1_555
N8 H46 1_555 1_555
C55 H47 1_555 1_555
C56 C55 1_555 1_555
H48 C56 1_555 1_555
C57 C56 1_555 1_555
C58 C57 1_555 1_555
H49 C58 1_555 1_555
C59 N7 1_555 1_555
H50 C59 1_555 1_555
C60 N8 1_555 1_555
H51 C60 1_555 1_555
H52 C60 1_555 1_555
C61 C54 1_555 1_555
Co13 N7 1_555 1_555
C52 C53 1_555 1_555
N8 C61 1_555 1_555
C57 C60 1_555 1_555
C58 C59 1_555 1_555
Co9 O15 1_555 1_555
O15 C37 1_555 1_555
O16 C37 1_555 1_555
O17 C44 1_555 1_555
O18 C44 1_555 1_555
N5 Co9 1_555 1_555
N6 H31 1_555 1_555
C37 C38 1_555 1_555
C38 C39 1_555 1_555
C39 H32 1_555 1_555
C40 C39 1_555 1_555
H33 C40 1_555 1_555
C41 C40 1_555 1_555
C42 C41 1_555 1_555
H34 C42 1_555 1_555
C43 C38 1_555 1_555
H35 C43 1_555 1_555
C44 C41 1_555 1_555
C45 N5 1_555 1_555
H36 C45 1_555 1_555
C46 C45 1_555 1_555
H37 C46 1_555 1_555
C47 C46 1_555 1_555
C48 C47 1_555 1_555
H38 C48 1_555 1_555
C49 N5 1_555 1_555
H39 C49 1_555 1_555
C50 N6 1_555 1_555
H40 C50 1_555 1_555
H41 C50 1_555 1_555
C51 N6 1_555 1_555
C62 H53 1_555 1_555
H55 C62 1_555 1_555
C64 C51 1_555 1_555
H56 C64 1_555 1_555
Co13 O16 1_555 1_555
O19 Co13 1_555 1_555
O20 Co9 1_555 1_555
O21 C72 1_555 1_555
O22 C72 1_555 1_555
C65 O19 1_555 1_555
C66 C65 1_555 1_555
C67 C66 1_555 1_555
H57 C67 1_555 1_555
C68 C67 1_555 1_555
H58 C68 1_555 1_555
C69 C68 1_555 1_555
C70 C69 1_555 1_555
H59 C70 1_555 1_555
C71 C66 1_555 1_555
H60 C71 1_555 1_555
C72 C69 1_555 1_555
Co12 O21 1_555 1_555
Co15 O17 1_555 1_555
O23 Co13 1_555 1_555
O24 Co9 1_555 1_555
O25 Co9 1_555 1_555
O26 Co13 1_555 1_555
C42 C43 1_555 1_555
C47 C50 1_555 1_555
C48 C49 1_555 1_555
C62 C63 1_555 1_555
C63 C64 1_555 1_555
O20 C65 1_555 1_555
C70 C71 1_555 1_555
H55_2 C62_2 1_555 1_555
N9 Co15 1_555 1_555
C62_2 C63_2 1_555 1_555
H38_2 C48_2 1_555 1_555
H39_2 C49_2 1_555 1_555
H56_2 C64_2 1_555 1_555
O24 C72_2 1_555 1_555
O26 C72_2 1_555 1_555
C65_2 O19_2 1_555 1_555
C66_2 C65_2 1_555 1_555
C67_2 C66_2 1_555 1_555
H57_2 C67_2 1_555 1_555
C68_2 C67_2 1_555 1_555
H58_2 C68_2 1_555 1_555
C69_2 C68_2 1_555 1_555
C70_2 C69_2 1_555 1_555
H59_2 C70_2 1_555 1_555
C71_2 C66_2 1_555 1_555
H60_2 C71_2 1_555 1_555
C72_2 C69_2 1_555 1_555
C48_2 C49_2 1_555 1_555
O20_2 C65_2 1_555 1_555
C70_2 C71_2 1_555 1_555
O15_2 C37_2 1_555 1_555
O16_2 C37_2 1_555 1_555
O23 C44_2 1_555 1_555
O25 C44_2 1_555 1_555
C37_2 C38_2 1_555 1_555
C38_2 C39_2 1_555 1_555
C39_2 H32_2 1_555 1_555
C40_2 C39_2 1_555 1_555
H33_2 C40_2 1_555 1_555
C41_2 C40_2 1_555 1_555
C42_2 C41_2 1_555 1_555
H34_2 C42_2 1_555 1_555
C43_2 C38_2 1_555 1_555
H35_2 C43_2 1_555 1_555
C44_2 C41_2 1_555 1_555
C42_2 C43_2 1_555 1_555
N5_2 Co12 1_555 1_555
N6_2 H31_2 1_555 1_555
C45_2 N5_2 1_555 1_555
C46_2 C45_2 1_555 1_555
H37_2 C46_2 1_555 1_555
C47_2 C46_2 1_555 1_555
C50_2 N6_2 1_555 1_555
H41_2 C50_2 1_555 1_555
C51_2 N6_2 1_555 1_555
C47_2 C50_2 1_555 1_555
N9 C55_2 1_555 1_555
N8_2 H46_2 1_555 1_555
C56_2 C55_2 1_555 1_555
H48_2 C56_2 1_555 1_555
C57_2 C56_2 1_555 1_555
C60_2 N8_2 1_555 1_555
H52_2 C60_2 1_555 1_555
N8_2 C61_2 1_555 1_555
C57_2 C60_2 1_555 1_555
H45_2 C54_2 1_555 1_555
H49_2 C58_2 1_555 1_555
H50_2 C59_2 1_555 1_555
C58_2 C59_2 1_555 1_555
H44_2 C52_2 1_555 1_555
C52_2 C53_2 1_555 1_555

#END
