
###############################################################################
#
# This file contains modified crystal structure data generated from the
# MOF subset of the Cambridge Structural Database (CSD) v543 
# hosted by the Cambridge Crystallographic Data Centre (CCDC).
#
# This work is licensed under the Creative Commons
# Attribution-NonCommercial-ShareAlike 4.0 International License.
# To view a copy of this license, visit
# http://creativecommons.org/licenses/by-nc-sa/4.0/
# or send a letter to
# Creative Commons, PO Box 1866, Mountain View, CA 94042, USA.
#
# CIF created using the CSD Python API on 29 September 2022
# The structure has been converted into the P1 space group
# The structure has a 3D framework
# The original CSD entry MIVXEX is in the triclinic crystal system
# The framework has been calculated to contain at least 10.0% void space
# The void calculation uses a probe of radius 1.32A, grid spacing 0.4
#
###############################################################################

data_MIVXEX
_chemical_formula_moiety         '(C36 H30 Co1 N4 O6)n'
_symmetry_cell_setting           triclinic
_symmetry_space_group_name_H-M   'P 1'
_symmetry_Int_Tables_number      1
_space_group_name_Hall           'P 1'
loop_
_symmetry_equiv_pos_site_id
_symmetry_equiv_pos_as_xyz
1 x,y,z
_cell_length_a                   9.634(5)
_cell_length_b                   10.822(5)
_cell_length_c                   10.943(4)
_cell_angle_alpha                87.59(3)
_cell_angle_beta                 69.58(4)
_cell_angle_gamma                87.10(4)
_cell_volume                     1067.48
loop_
_atom_site_label
_atom_site_type_symbol
_atom_site_fract_x
_atom_site_fract_y
_atom_site_fract_z
_atom_site_U_iso_or_equiv
_atom_site_thermal_displace_type
Co7 Co 0.3434(4) 0.0196(5) 0.5464(4) 0.0755 Uani
O11 O 0.3766(17) 0.0083(14) 0.7175(14) 0.0520 Uiso
O12 O 0.305(2) 0.215(2) 0.554(2) 0.0890 Uiso
O13 O 0.372(2) 0.0162(17) 0.3538(16) 0.0660 Uiso
O15 O 0.523(2) 0.1554(17) 0.4893(17) 0.0710 Uiso
C35 C 0.081(2) 0.8973(19) 0.7471(17) 0.0920 Uiso
C36 C 0.088(2) 0.874(2) 0.5273(14) 0.1030 Uiso
N4 N 0.1443(19) 0.9243(16) 0.6144(18) 0.0820 Uiso
H29 H 0.1198 0.9318 0.8067 0.1110 Uiso
H30 H 0.1312 0.8924 0.4365 0.1240 Uiso
O14 O 0.477(2) 0.8446(17) 0.5107(17) 0.0710 Uiso
Co8 Co 0.6566(4) 0.9804(5) 0.4536(4) 0.0755 Uani
C19 C 0.630(3) 0.012(3) 0.029(3) 0.0760 Uiso
C23 C 0.496(3) 0.014(3) 0.128(3) 0.0780 Uiso
H16 H 0.7195 0.0091 0.0470 0.0910 Uiso
C25 C 0.504(2) 0.0030(19) 0.257(2) 0.0390 Uiso
N1 N 0.8557(19) 0.0757(16) 0.3856(18) 0.0820 Uiso
C5 C 0.919(2) 0.1027(19) 0.2529(17) 0.0920 Uiso
C6 C 0.912(2) 0.126(2) 0.4727(14) 0.1030 Uiso
C7 C 0.633(3) 0.016(2) 0.887(3) 0.0660 Uiso
H1 H 0.8802 0.0682 0.1933 0.1110 Uiso
H2 H 0.8688 0.1076 0.5635 0.1240 Uiso
H3 H 0.7183 0.0375 0.8146 0.0790 Uiso
C20 C 0.367(3) 0.984(2) 0.113(3) 0.0660 Uiso
H17 H 0.2817 0.9625 0.1854 0.0790 Uiso
O7 O 0.6234(17) 0.9917(14) 0.2825(14) 0.0520 Uiso
C1 C 0.496(2) 0.9970(19) 0.743(2) 0.0390 Uiso
C2 C 0.571(3) 0.764(2) 0.488(2) 0.0590 Uiso
O3 O 0.628(2) 0.9838(17) 0.6462(16) 0.0660 Uiso
O4 O 0.695(2) 0.785(2) 0.446(2) 0.0890 Uiso
C3 C 0.504(3) 0.986(3) 0.872(3) 0.0780 Uiso
C4 C 0.537(3) 0.622(2) 0.499(3) 0.0620 Uiso
C8 C 0.370(3) 0.988(3) 0.971(3) 0.0760 Uiso
C9 C 0.639(3) 0.529(2) 0.467(2) 0.0520 Uiso
C10 C 0.390(4) 0.601(3) 0.528(3) 0.0900 Uiso
H4 H 0.2805 0.9909 0.9530 0.0910 Uiso
H5 H 0.7399 0.5512 0.4387 0.0620 Uiso
H6 H 0.3151 0.6649 0.5434 0.1080 Uiso
C21 C 0.610(4) 0.399(3) 0.472(3) 0.0900 Uiso
C22 C 0.361(3) 0.471(2) 0.533(2) 0.0520 Uiso
C24 C 0.463(3) 0.378(2) 0.501(3) 0.0620 Uiso
H18 H 0.6849 0.3351 0.4566 0.1080 Uiso
H19 H 0.2601 0.4488 0.5613 0.0620 Uiso
C26 C 0.429(3) 0.236(2) 0.512(2) 0.0590 Uiso
C11 C 0.038(2) 0.180(2) 0.2072(16) 0.1220 Uiso
C12 C 0.031(2) 0.204(2) 0.427(2) 0.1100 Uiso
C13 C 0.094(2) 0.2306(19) 0.294(2) 0.1020 Uiso
H7 H 0.0808 0.1987 0.1164 0.1460 Uiso
H8 H 0.0694 0.2381 0.4865 0.1320 Uiso
C14 C 0.236(5) 0.299(4) 0.259(4) 0.1260 Uiso
N2 N 0.283(4) 0.328(3) 0.114(3) 0.1230 Uiso
H9 H 0.2198 0.3764 0.3088 0.1510 Uiso
H10 H 0.3136 0.2469 0.2792 0.1510 Uiso
H11 H 0.2367 0.2979 0.0661 0.1470 Uiso
C15 C 0.398(4) 0.402(3) 0.062(3) 0.0860 Uiso
C17 C 0.431(4) 0.493(3) 0.144(4) 0.1030 Uiso
H12 H 0.3827 0.4927 0.2362 0.1240 Uiso
C28 C 0.546(3) 0.586(3) 0.074(3) 0.0790 Uiso
C30 C 0.628(5) 0.665(4) 0.142(5) 0.1480 Uiso
H21 H 0.6522 0.6138 0.2083 0.2220 Uiso
H22 H 0.7199 0.6946 0.0767 0.2220 Uiso
H23 H 0.5642 0.7359 0.1831 0.2220 Uiso
C16 C 0.454(3) 0.414(3) 0.926(3) 0.0790 Uiso
C18 C 0.372(5) 0.335(4) 0.858(5) 0.1480 Uiso
H13 H 0.3478 0.3862 0.7917 0.2220 Uiso
H14 H 0.4358 0.2641 0.8169 0.2220 Uiso
H15 H 0.2801 0.3054 0.9233 0.2220 Uiso
C27 C 0.569(4) 0.507(3) 0.856(4) 0.1030 Uiso
C29 C 0.602(4) 0.598(3) 0.938(3) 0.0860 Uiso
H20 H 0.6173 0.5073 0.7638 0.1240 Uiso
N3 N 0.717(4) 0.672(3) 0.886(3) 0.1230 Uiso
C31 C 0.764(5) 0.701(4) 0.741(4) 0.1260 Uiso
H24 H 0.7633 0.7021 0.9339 0.1470 Uiso
C32 C 0.906(2) 0.7694(19) 0.706(2) 0.1020 Uiso
H25 H 0.7802 0.6236 0.6912 0.1510 Uiso
H26 H 0.6864 0.7531 0.7208 0.1510 Uiso
C33 C 0.962(2) 0.820(2) 0.7928(16) 0.1220 Uiso
C34 C 0.969(2) 0.796(2) 0.573(2) 0.1100 Uiso
H27 H 0.9192 0.8013 0.8836 0.1460 Uiso
H28 H 0.9306 0.7619 0.5135 0.1320 Uiso
loop_
_atom_site_aniso_label
_atom_site_aniso_U_11
_atom_site_aniso_U_22
_atom_site_aniso_U_33
_atom_site_aniso_U_23
_atom_site_aniso_U_13
_atom_site_aniso_U_12
Co7 0.049 0.134 0.035 -0.005 -0.0009 -0.022
Co8 0.049 0.134 0.035 -0.005 -0.0009 -0.022
loop_
_geom_bond_atom_site_label_1
_geom_bond_atom_site_label_2
_geom_bond_site_symmetry_1
_geom_bond_site_symmetry_2
O11 Co7 1_555 1_555
O12 Co7 1_555 1_555
O13 Co7 1_555 1_555
O15 Co7 1_555 1_555
N4 C35 1_555 1_555
H29 C35 1_555 1_555
H30 C36 1_555 1_555
Co8 O14 1_555 1_555
C36 N4 1_555 1_555
C23 C19 1_555 1_555
H16 C19 1_555 1_555
C25 C23 1_555 1_555
O13 C25 1_555 1_555
N1 C5 1_555 1_555
C5 H1 1_555 1_555
C6 N1 1_555 1_555
H2 C6 1_555 1_555
H3 C7 1_555 1_555
H17 C20 1_555 1_555
Co8 O7 1_555 1_555
C2 O4 1_555 1_555
O3 C1 1_555 1_555
O4 Co8 1_555 1_555
C3 C1 1_555 1_555
C4 C2 1_555 1_555
C8 C3 1_555 1_555
C9 C4 1_555 1_555
C10 C4 1_555 1_555
H4 C8 1_555 1_555
H5 C9 1_555 1_555
H6 C10 1_555 1_555
Co8 O3 1_555 1_555
C21 C9 1_555 1_555
C22 C10 1_555 1_555
C24 C21 1_555 1_555
H18 C21 1_555 1_555
H19 C22 1_555 1_555
C26 C24 1_555 1_555
O12 C26 1_555 1_555
O15 C26 1_555 1_555
C2 O14 1_555 1_555
C22 C24 1_555 1_555
C13 C11 1_555 1_555
H7 C11 1_555 1_555
H8 C12 1_555 1_555
C14 C13 1_555 1_555
N2 C14 1_555 1_555
H9 C14 1_555 1_555
H10 C14 1_555 1_555
H11 N2 1_555 1_555
C15 N2 1_555 1_555
C17 C15 1_555 1_555
H12 C17 1_555 1_555
C28 C17 1_555 1_555
C30 C28 1_555 1_555
H21 C30 1_555 1_555
H22 C30 1_555 1_555
H23 C30 1_555 1_555
C12 C13 1_555 1_555
C18 C16 1_555 1_555
H13 C18 1_555 1_555
H14 C18 1_555 1_555
H15 C18 1_555 1_555
C27 C16 1_555 1_555
C29 C27 1_555 1_555
H20 C27 1_555 1_555
N3 C29 1_555 1_555
C31 N3 1_555 1_555
H24 N3 1_555 1_555
C32 C31 1_555 1_555
H25 C31 1_555 1_555
H26 C31 1_555 1_555
C33 C32 1_555 1_555
C34 C32 1_555 1_555
H27 C33 1_555 1_555
H28 C34 1_555 1_555

#END
