
###############################################################################
#
# This file contains modified crystal structure data generated from the
# MOF subset of the Cambridge Structural Database (CSD) v543 
# hosted by the Cambridge Crystallographic Data Centre (CCDC).
#
# This work is licensed under the Creative Commons
# Attribution-NonCommercial-ShareAlike 4.0 International License.
# To view a copy of this license, visit
# http://creativecommons.org/licenses/by-nc-sa/4.0/
# or send a letter to
# Creative Commons, PO Box 1866, Mountain View, CA 94042, USA.
#
# CIF created using the CSD Python API on 29 September 2022
# The structure has been converted into the P1 space group
# The structure has a 3D framework
# The original CSD entry MIVXOH is in the monoclinic crystal system
# The framework has been calculated to contain at least 10.0% void space
# The void calculation uses a probe of radius 1.32A, grid spacing 0.4
#
###############################################################################

data_MIVXOH
_chemical_formula_moiety         '(C144 H120 Co8 N16 O32)n'
_symmetry_cell_setting           triclinic
_symmetry_space_group_name_H-M   'P 1'
_symmetry_Int_Tables_number      1
_space_group_name_Hall           'P 1'
loop_
_symmetry_equiv_pos_site_id
_symmetry_equiv_pos_as_xyz
1 x,y,z
_cell_length_a                   19.4488(4)
_cell_length_b                   10.9238(9)
_cell_length_c                   21.4481(9)
_cell_angle_alpha                90
_cell_angle_beta                 91.636(3)
_cell_angle_gamma                90
_cell_volume                     4554.89
loop_
_atom_site_label
_atom_site_type_symbol
_atom_site_fract_x
_atom_site_fract_y
_atom_site_fract_z
N8 N 0.0862(5) 0.3885(10) 0.7054(5)
C70 C 0.0429(8) 0.4823(12) 0.7033(9)
H58 H 0.0564 0.5549 0.7247
C71 C 0.0672(10) 0.3034(15) 0.6709(10)
H59 H 0.0966 0.2341 0.6692
C72 C 0.0063(9) 0.2992(16) 0.6341(10)
Co12 Co 0.17736(8) 0.39058(17) 0.75524(7)
O6 O 0.1919(4) 0.1230(7) 0.2537(3)
O8 O 0.3079(4) 0.2000(8) 0.7496(3)
C14 C 0.2500 0.0670(15) 0.2500
H10 H 0.3508 0.0047 0.7619
C19 C 0.2500 0.0149(15) 0.7500
C20 C 0.2500 0.1619(14) 0.7500
O10 O 0.3081(4) 0.1230(7) 0.2463(3)
O12 O 0.1921(4) 0.2000(8) 0.7504(3)
H34 H 0.1492 0.0047 0.7381
Co5 Co 0.17791(8) 0.30285(17) 0.25656(7)
Co6 Co 0.32209(8) 0.30285(17) 0.24344(7)
Co9 Co 0.32264(8) 0.39058(17) 0.74476(7)
O1 O 0.1592(4) 0.3074(7) 0.3510(4)
O2 O 0.2707(4) 0.3041(7) 0.3329(4)
O3 O 0.3453(4) 0.3855(8) 0.6511(4)
O4 O 0.2329(4) 0.3907(7) 0.6679(4)
O5 O 0.1938(4) 0.4883(9) 0.2529(4)
O7 O 0.3089(4) 0.5722(7) 0.7477(3)
N1 N 0.0832(5) 0.3003(10) 0.2108(5)
C1 C 0.2212(7) 0.3105(11) 0.3709(6)
C2 C 0.2381(6) 0.3262(10) 0.4373(5)
C3 C 0.1853(7) 0.3399(12) 0.4789(6)
H3 H 0.1390 0.3353 0.4638
C4 C 0.1983(7) 0.3600(12) 0.5416(6)
H4 H 0.1617 0.3723 0.5693
C5 C 0.2674(6) 0.3617(12) 0.5637(6)
C6 C 0.3183(7) 0.3506(11) 0.5211(5)
H5 H 0.3648 0.3534 0.5358
C7 C 0.3054(7) 0.3359(12) 0.4597(6)
H6 H 0.3424 0.3323 0.4318
C8 C 0.2826(7) 0.3816(9) 0.6314(5)
C9 C 0.2500 0.5406(17) 0.2500
C10 C 0.2500 0.6700(15) 0.2500
C11 C 0.1861(6) 0.7356(12) 0.2482(6)
H7 H 0.1434 0.6933 0.2476
C12 C 0.1882(7) 0.8613(12) 0.2473(7)
H8 H 0.1455 0.9035 0.2446
C13 C 0.2500 0.9348(16) 0.2500
C15 C 0.2500 0.6204(14) 0.7500
C16 C 0.2500 0.7681(15) 0.7500
C17 C 0.3108(7) 0.8309(12) 0.7588(7)
H9 H 0.3528 0.7881 0.7656
C18 C 0.3094(6) 0.9589(11) 0.7575(6)
C21 C 0.0425(8) 0.1992(15) 0.2161(10)
H11 H 0.0566 0.1306 0.2406
C25 C 0.0594(8) 0.3875(16) 0.1760(8)
H14 H 0.0853 0.4608 0.1729
O9 O 0.3062(4) 0.4883(9) 0.2471(4)
C41 C 0.3139(6) 0.7356(12) 0.2518(6)
H31 H 0.3566 0.6933 0.2524
C42 C 0.3118(7) 0.8613(12) 0.2527(7)
H32 H 0.3545 0.9035 0.2554
O11 O 0.1911(4) 0.5722(7) 0.7523(3)
C43 C 0.1892(7) 0.8309(12) 0.7412(7)
H33 H 0.1472 0.7881 0.7344
C44 C 0.1906(6) 0.9589(11) 0.7425(6)
O13 O 0.3408(4) 0.3074(7) 0.1490(4)
O14 O 0.2293(4) 0.3041(7) 0.1671(4)
N5 N 0.4168(5) 0.3003(10) 0.2892(5)
N6 N 0.6230(6) 0.3059(12) 0.4380(6)
H35 H 0.5869 0.3231 0.4603
N7 N 0.8815(6) 0.3269(13) 0.5542(6)
H36 H 0.9169 0.2920 0.5368
C45 C 0.2788(7) 0.3105(11) 0.1291(6)
C46 C 0.2619(6) 0.3262(10) 0.0627(5)
C47 C 0.3147(7) 0.3399(12) 0.0211(6)
H37 H 0.3610 0.3353 0.0362
C51 C 0.1946(7) 0.3359(12) 0.0403(6)
H40 H 0.1576 0.3323 0.0682
C53 C 0.4575(8) 0.1992(15) 0.2839(10)
H41 H 0.4434 0.1306 0.2594
C54 C 0.5217(8) 0.2019(15) 0.3166(9)
H42 H 0.5507 0.1329 0.3113
C55 C 0.5457(8) 0.2872(15) 0.3529(7)
C56 C 0.5019(9) 0.3782(18) 0.3566(9)
H43 H 0.5138 0.4433 0.3842
C57 C 0.4406(8) 0.3875(16) 0.3240(8)
H44 H 0.4147 0.4608 0.3271
C58 C 0.6126(8) 0.2789(18) 0.3827(7)
H45 H 0.6282 0.1934 0.3776
H46 H 0.6437 0.3307 0.3582
C59 C 0.6883(7) 0.3110(12) 0.4682(6)
C60 C 0.6916(7) 0.3242(12) 0.5342(7)
C61 C 0.7584(7) 0.3351(15) 0.5579(7)
H47 H 0.7640 0.3544 0.6009
C62 C 0.8185(7) 0.3201(11) 0.5242(7)
C63 C 0.8130(7) 0.3111(10) 0.4616(6)
C64 C 0.7490(7) 0.3030(12) 0.4348(7)
H48 H 0.7453 0.2913 0.3909
C65 C 0.8773(9) 0.313(2) 0.4232(9)
H49 H 0.8644 0.3060 0.3788
H50 H 0.9018 0.3908 0.4304
H51 H 0.9073 0.2450 0.4356
C66 C 0.6281(8) 0.3526(18) 0.5693(8)
H52 H 0.6044 0.4227 0.5499
H53 H 0.6409 0.3725 0.6127
H54 H 0.5975 0.2814 0.5683
C67 C 0.8914(8) 0.3847(17) 0.6089(8)
H55 H 0.8586 0.3493 0.6384
H56 H 0.8780 0.4713 0.6024
C68 C 0.9606(8) 0.3845(14) 0.6407(7)
C69 C 0.9801(8) 0.4827(13) 0.6725(8)
H57 H 0.9511 0.5526 0.6739
H60 H 0.9987 0.2350 0.6048
O18 O 0.2671(4) 0.3907(7) 0.8321(4)
N9 N 0.4138(5) 0.3885(10) 0.7946(5)
O15 O 0.1547(4) 0.3855(8) 0.8489(4)
C48 C 0.3017(7) 0.3600(12) 0.9584(6)
H38 H 0.3383 0.3723 0.9307
C49 C 0.2326(6) 0.3617(12) 0.9363(6)
C50 C 0.1817(7) 0.3506(11) 0.9789(5)
H39 H 0.1352 0.3534 0.9642
C52 C 0.2174(7) 0.3816(9) 0.8686(5)
N3 N 0.6185(6) 0.3269(13) 0.9458(6)
H2 H 0.5831 0.2920 0.9632
C28 C 0.8084(7) 0.3242(12) 0.9658(7)
C29 C 0.7416(7) 0.3351(15) 0.9421(7)
H17 H 0.7360 0.3544 0.8991
C30 C 0.6815(7) 0.3201(11) 0.9758(7)
C34 C 0.8719(8) 0.3526(18) 0.9307(8)
H22 H 0.8956 0.4227 0.9501
H23 H 0.8591 0.3725 0.8873
H24 H 0.9025 0.2814 0.9317
C35 C 0.6086(8) 0.3847(17) 0.8911(8)
H25 H 0.6414 0.3493 0.8616
H26 H 0.6220 0.4713 0.8976
C36 C 0.5394(8) 0.3845(14) 0.8593(7)
C37 C 0.5199(8) 0.4827(13) 0.8275(8)
H27 H 0.5489 0.5526 0.8261
C38 C 0.4571(8) 0.4823(12) 0.7967(9)
H28 H 0.4436 0.5549 0.7753
C39 C 0.4328(10) 0.3034(15) 0.8291(10)
H29 H 0.4034 0.2341 0.8308
C40 C 0.4937(9) 0.2992(16) 0.8659(10)
H30 H 0.5013 0.2350 0.8952
N2 N 0.8770(6) 0.3059(12) 0.0620(6)
H1 H 0.9131 0.3231 0.0397
C22 C 0.9783(8) 0.2019(15) 0.1834(9)
H12 H 0.9493 0.1329 0.1887
C23 C 0.9543(8) 0.2872(15) 0.1471(7)
C24 C 0.9981(9) 0.3782(18) 0.1434(9)
H13 H 0.9862 0.4433 0.1158
C26 C 0.8874(8) 0.2789(18) 0.1173(7)
H15 H 0.8718 0.1934 0.1224
H16 H 0.8563 0.3307 0.1418
C27 C 0.8117(7) 0.3110(12) 0.0318(6)
C31 C 0.6870(7) 0.3111(10) 0.0384(6)
C32 C 0.7510(7) 0.3030(12) 0.0652(7)
H18 H 0.7547 0.2913 0.1091
C33 C 0.6227(9) 0.313(2) 0.0768(9)
H19 H 0.6356 0.3060 0.1212
H20 H 0.5982 0.3908 0.0696
H21 H 0.5927 0.2450 0.0644
N3_2 N 0.3815(6) 0.6731(13) 0.0542(6)
H2_2 H 0.4169 0.7080 0.0368
N4 N 0.5862(5) 0.6115(10) 0.2054(5)
C28_2 C 0.1916(7) 0.6758(12) 0.0342(7)
C29_2 C 0.2584(7) 0.6649(15) 0.0579(7)
H17_2 H 0.2640 0.6456 0.1009
C30_2 C 0.3185(7) 0.6799(11) 0.0242(7)
C34_2 C 0.1281(8) 0.6474(18) 0.0693(8)
H22_2 H 0.1044 0.5773 0.0499
H23_2 H 0.1409 0.6275 0.1127
H24_2 H 0.0975 0.7186 0.0683
C35_2 C 0.3914(8) 0.6153(17) 0.1089(8)
H25_2 H 0.3586 0.6507 0.1384
H26_2 H 0.3780 0.5287 0.1024
C36_2 C 0.4606(8) 0.6155(14) 0.1407(7)
C37_2 C 0.4801(8) 0.5173(13) 0.1725(8)
H27_2 H 0.4511 0.4474 0.1739
C38_2 C 0.5429(8) 0.5177(12) 0.2033(9)
H28_2 H 0.5564 0.4451 0.2247
C39_2 C 0.5672(10) 0.6966(15) 0.1709(10)
H29_2 H 0.5966 0.7659 0.1692
C40_2 C 0.5063(9) 0.7008(16) 0.1341(10)
H30_2 H 0.4987 0.7650 0.1048
Co7 Co 0.67736(8) 0.60942(17) 0.25524(7)
Co4 Co 0.82264(8) 0.60942(17) 0.24476(7)
O15_2 O 0.8453(4) 0.6145(8) 0.1511(4)
O16 O 0.7329(4) 0.6093(7) 0.1679(4)
C48_2 C 0.6983(7) 0.6400(12) 0.0416(6)
H38_2 H 0.6617 0.6277 0.0693
C49_2 C 0.7674(6) 0.6383(12) 0.0637(6)
C50_2 C 0.8183(7) 0.6494(11) 0.0211(5)
H39_2 H 0.8648 0.6466 0.0358
C52_2 C 0.7826(7) 0.6184(9) 0.1314(5)
O17 O 0.7671(4) 0.6093(7) 0.3321(4)
O21 O 0.8089(4) 0.4278(7) 0.2477(3)
O23 O 0.8079(4) 0.8000(8) 0.2496(3)
N10 N 0.9138(5) 0.6115(10) 0.2946(5)
Co1 Co 0.82209(8) 0.69715(17) 0.74344(7)
O1_2 O 0.8408(4) 0.6926(7) 0.6490(4)
O2_2 O 0.7293(4) 0.6959(7) 0.6671(4)
O3_2 O 0.6547(4) 0.6145(8) 0.3489(4)
O5_2 O 0.8062(4) 0.5117(9) 0.7471(4)
O7_2 O 0.6911(4) 0.4278(7) 0.2523(3)
N1_2 N 0.9168(5) 0.6997(10) 0.7892(5)
C1_2 C 0.7788(7) 0.6895(11) 0.6291(6)
C2_2 C 0.7619(6) 0.6738(10) 0.5627(5)
C3_2 C 0.8147(7) 0.6601(12) 0.5211(6)
H3_2 H 0.8610 0.6647 0.5362
C4_2 C 0.8017(7) 0.6400(12) 0.4584(6)
H4_2 H 0.8383 0.6277 0.4307
C5_2 C 0.7326(6) 0.6383(12) 0.4363(6)
C6_2 C 0.6817(7) 0.6494(11) 0.4789(5)
H5_2 H 0.6352 0.6466 0.4642
C7_2 C 0.6946(7) 0.6641(12) 0.5403(6)
H6_2 H 0.6576 0.6677 0.5682
C8_2 C 0.7174(7) 0.6184(9) 0.3686(5)
C9_2 C 0.7500 0.4594(17) 0.7500
C10_2 C 0.7500 0.3300(15) 0.7500
C11_2 C 0.8139(6) 0.2644(12) 0.7518(6)
H7_2 H 0.8566 0.3067 0.7524
C12_2 C 0.8118(7) 0.1387(12) 0.7527(7)
H8_2 H 0.8545 0.0965 0.7554
C13_2 C 0.7500 0.0652(16) 0.7500
C15_2 C 0.7500 0.3796(14) 0.2500
C16_2 C 0.7500 0.2319(15) 0.2500
C17_2 C 0.6892(7) 0.1691(12) 0.2412(7)
H9_2 H 0.6472 0.2119 0.2344
C18_2 C 0.6906(6) 0.0411(11) 0.2425(6)
C21_2 C 0.9575(8) 0.8008(15) 0.7839(10)
H11_2 H 0.9434 0.8694 0.7594
C25_2 C 0.9406(8) 0.6125(16) 0.8240(8)
H14_2 H 0.9147 0.5392 0.8271
O9_2 O 0.6938(4) 0.5117(9) 0.7529(4)
C41_2 C 0.6861(6) 0.2644(12) 0.7482(6)
H31_2 H 0.6434 0.3067 0.7476
C42_2 C 0.6882(7) 0.1387(12) 0.7473(7)
H32_2 H 0.6455 0.0965 0.7446
C43_2 C 0.8108(7) 0.1691(12) 0.2588(7)
H33_2 H 0.8528 0.2119 0.2656
C44_2 C 0.8094(6) 0.0411(11) 0.2575(6)
Co3 Co 0.67791(8) 0.69715(17) 0.75656(7)
O13_2 O 0.6592(4) 0.6926(7) 0.8510(4)
O14_2 O 0.7707(4) 0.6959(7) 0.8329(4)
N5_2 N 0.5832(5) 0.6997(10) 0.7108(5)
N6_2 N 0.3770(6) 0.6941(12) 0.5620(6)
H35_2 H 0.4131 0.6769 0.5397
N7_2 N 0.1185(6) 0.6731(13) 0.4458(6)
H36_2 H 0.0831 0.7080 0.4632
C45_2 C 0.7212(7) 0.6895(11) 0.8709(6)
C46_2 C 0.7381(6) 0.6738(10) 0.9373(5)
C47_2 C 0.6853(7) 0.6601(12) 0.9789(6)
H37_2 H 0.6390 0.6647 0.9638
C51_2 C 0.8054(7) 0.6641(12) 0.9597(6)
H40_2 H 0.8424 0.6677 0.9318
C53_2 C 0.5425(8) 0.8008(15) 0.7161(10)
H41_2 H 0.5566 0.8694 0.7406
C54_2 C 0.4783(8) 0.7981(15) 0.6834(9)
H42_2 H 0.4493 0.8671 0.6887
C55_2 C 0.4543(8) 0.7128(15) 0.6471(7)
C56_2 C 0.4981(9) 0.6218(18) 0.6434(9)
H43_2 H 0.4862 0.5567 0.6158
C57_2 C 0.5594(8) 0.6125(16) 0.6760(8)
H44_2 H 0.5853 0.5392 0.6729
C58_2 C 0.3874(8) 0.7211(18) 0.6173(7)
H45_2 H 0.3718 0.8066 0.6224
H46_2 H 0.3563 0.6693 0.6418
C59_2 C 0.3117(7) 0.6890(12) 0.5318(6)
C60_2 C 0.3084(7) 0.6758(12) 0.4658(7)
C61_2 C 0.2416(7) 0.6649(15) 0.4421(7)
H47_2 H 0.2360 0.6456 0.3991
C62_2 C 0.1815(7) 0.6799(11) 0.4758(7)
C63_2 C 0.1870(7) 0.6889(10) 0.5384(6)
C64_2 C 0.2510(7) 0.6970(12) 0.5652(7)
H48_2 H 0.2547 0.7087 0.6091
C65_2 C 0.1227(9) 0.687(2) 0.5768(9)
H49_2 H 0.1356 0.6940 0.6212
H50_2 H 0.0982 0.6092 0.5696
H51_2 H 0.0927 0.7550 0.5644
C66_2 C 0.3719(8) 0.6474(18) 0.4307(8)
H52_2 H 0.3956 0.5773 0.4501
H53_2 H 0.3591 0.6275 0.3873
H54_2 H 0.4025 0.7186 0.4317
C67_2 C 0.1086(8) 0.6153(17) 0.3911(8)
H55_2 H 0.1414 0.6507 0.3616
H56_2 H 0.1220 0.5287 0.3976
C68_2 C 0.0394(8) 0.6155(14) 0.3593(7)
C69_2 C 0.0199(8) 0.5173(13) 0.3275(8)
H57_2 H 0.0489 0.4474 0.3261
H60_2 H 0.0013 0.7650 0.3952
O19 O 0.8081(4) 0.8770(7) 0.7463(3)
O20 O 0.6919(4) 0.8770(7) 0.7537(3)
O22 O 0.6921(4) 0.8000(8) 0.2504(3)
C14_2 C 0.7500 0.9330(15) 0.7500
H10_2 H 0.6492 0.9953 0.2381
C19_2 C 0.7500 0.9851(15) 0.2500
C20_2 C 0.7500 0.8381(14) 0.2500
H34_2 H 0.8508 0.9953 0.2619
C70_2 C 0.9571(8) 0.5177(12) 0.2967(9)
H58_2 H 0.9436 0.4451 0.2753
C71_2 C 0.9328(10) 0.6966(15) 0.3291(10)
H59_2 H 0.9034 0.7659 0.3308
C72_2 C 0.9937(9) 0.7008(16) 0.3659(10)
N2_2 N 0.1230(6) 0.6941(12) 0.9380(6)
H1_2 H 0.0869 0.6769 0.9603
C22_2 C 0.0217(8) 0.7981(15) 0.8166(9)
H12_2 H 0.0507 0.8671 0.8113
C23_2 C 0.0457(8) 0.7128(15) 0.8529(7)
C24_2 C 0.0019(9) 0.6218(18) 0.8566(9)
H13_2 H 0.0138 0.5567 0.8842
C26_2 C 0.1126(8) 0.7211(18) 0.8827(7)
H15_2 H 0.1282 0.8066 0.8776
H16_2 H 0.1437 0.6693 0.8582
C27_2 C 0.1883(7) 0.6890(12) 0.9682(6)
C31_2 C 0.3130(7) 0.6889(10) 0.9616(6)
C32_2 C 0.2490(7) 0.6970(12) 0.9348(7)
H18_2 H 0.2453 0.7087 0.8909
C33_2 C 0.3773(9) 0.687(2) 0.9232(9)
H19_2 H 0.3644 0.6940 0.8788
H20_2 H 0.4018 0.6092 0.9304
H21_2 H 0.4073 0.7550 0.9356
loop_
_geom_bond_atom_site_label_1
_geom_bond_atom_site_label_2
_geom_bond_site_symmetry_1
_geom_bond_site_symmetry_2
N8 C70 1_555 1_555
H58 C70 1_555 1_555
C71 N8 1_555 1_555
H59 C71 1_555 1_555
Co12 N8 1_555 1_555
C71 C72 1_555 1_555
O6 C14 1_555 1_555
O8 C20 1_555 1_555
C20 C19 1_555 1_555
O10 C14 1_555 1_555
O12 C20 1_555 1_555
Co5 O6 1_555 1_555
Co6 O10 1_555 1_555
Co9 O8 1_555 1_555
Co12 O12 1_555 1_555
Co5 O1 1_555 1_555
Co9 O3 1_555 1_555
O1 C1 1_555 1_555
O2 Co5 1_555 1_555
O3 C8 1_555 1_555
O4 Co9 1_555 1_555
O5 Co5 1_555 1_555
O7 Co9 1_555 1_555
N1 Co5 1_555 1_555
C1 O2 1_555 1_555
C2 C1 1_555 1_555
C3 C2 1_555 1_555
H3 C3 1_555 1_555
C4 C3 1_555 1_555
H4 C4 1_555 1_555
C5 C4 1_555 1_555
C6 C5 1_555 1_555
H5 C6 1_555 1_555
C7 C2 1_555 1_555
H6 C7 1_555 1_555
C8 O4 1_555 1_555
C9 O5 1_555 1_555
C10 C9 1_555 1_555
C11 C10 1_555 1_555
H7 C11 1_555 1_555
C12 C11 1_555 1_555
H8 C12 1_555 1_555
C13 C12 1_555 1_555
C15 O7 1_555 1_555
C16 C15 1_555 1_555
C17 C16 1_555 1_555
H9 C17 1_555 1_555
C18 C17 1_555 1_555
C21 N1 1_555 1_555
H11 C21 1_555 1_555
C25 N1 1_555 1_555
H14 C25 1_555 1_555
O9 C9 1_555 1_555
C41 C10 1_555 1_555
H31 C41 1_555 1_555
C42 C13 1_555 1_555
H32 C42 1_555 1_555
O11 C15 1_555 1_555
C43 C16 1_555 1_555
H33 C43 1_555 1_555
Co6 O2 1_555 1_555
O13 Co6 1_555 1_555
O14 Co5 1_555 1_555
N5 Co6 1_555 1_555
N6 H35 1_555 1_555
N7 H36 1_555 1_555
C45 O13 1_555 1_555
C46 C45 1_555 1_555
C47 C46 1_555 1_555
H37 C47 1_555 1_555
C51 C46 1_555 1_555
H40 C51 1_555 1_555
C53 N5 1_555 1_555
H41 C53 1_555 1_555
C54 C53 1_555 1_555
H42 C54 1_555 1_555
C55 C54 1_555 1_555
C56 C55 1_555 1_555
H43 C56 1_555 1_555
C57 N5 1_555 1_555
H44 C57 1_555 1_555
C58 N6 1_555 1_555
H45 C58 1_555 1_555
H46 C58 1_555 1_555
C59 N6 1_555 1_555
C60 C59 1_555 1_555
C61 C60 1_555 1_555
H47 C61 1_555 1_555
C62 N7 1_555 1_555
C63 C62 1_555 1_555
C64 C59 1_555 1_555
H48 C64 1_555 1_555
C65 C63 1_555 1_555
H49 C65 1_555 1_555
H50 C65 1_555 1_555
H51 C65 1_555 1_555
C66 C60 1_555 1_555
H52 C66 1_555 1_555
H53 C66 1_555 1_555
H54 C66 1_555 1_555
C67 N7 1_555 1_555
H55 C67 1_555 1_555
H56 C67 1_555 1_555
C68 C67 1_555 1_555
C69 C68 1_555 1_555
H57 C69 1_555 1_555
Co12 O4 1_555 1_555
O18 Co9 1_555 1_555
N9 Co9 1_555 1_555
C5 C8 1_555 1_555
C6 C7 1_555 1_555
O9 Co6 1_555 1_555
C41 C42 1_555 1_555
O11 Co12 1_555 1_555
C43 C44 1_555 1_555
Co6 O14 1_555 1_555
O14 C45 1_555 1_555
C55 C58 1_555 1_555
C56 C57 1_555 1_555
C61 C62 1_555 1_555
C63 C64 1_555 1_555
Co12 O18 1_555 1_555
Co12 O15 1_555 1_555
O15 C52 1_555 1_555
H38 C48 1_555 1_555
C49 C48 1_555 1_555
C50 C49 1_555 1_555
H39 C50 1_555 1_555
C52 O18 1_555 1_555
C49 C52 1_555 1_555
N3 H2 1_555 1_555
N9 C38 1_555 1_555
C29 C28 1_555 1_555
H17 C29 1_555 1_555
C30 N3 1_555 1_555
C34 C28 1_555 1_555
H22 C34 1_555 1_555
H23 C34 1_555 1_555
H24 C34 1_555 1_555
C35 N3 1_555 1_555
H25 C35 1_555 1_555
H26 C35 1_555 1_555
C36 C35 1_555 1_555
C37 C36 1_555 1_555
H27 C37 1_555 1_555
C38 C37 1_555 1_555
H28 C38 1_555 1_555
C39 N9 1_555 1_555
H29 C39 1_555 1_555
C40 C36 1_555 1_555
H30 C40 1_555 1_555
C29 C30 1_555 1_555
C39 C40 1_555 1_555
N2 H1 1_555 1_555
H12 C22 1_555 1_555
C23 C22 1_555 1_555
C24 C23 1_555 1_555
H13 C24 1_555 1_555
C26 N2 1_555 1_555
H15 C26 1_555 1_555
H16 C26 1_555 1_555
C27 N2 1_555 1_555
C32 C27 1_555 1_555
H18 C32 1_555 1_555
C33 C31 1_555 1_555
H19 C33 1_555 1_555
H20 C33 1_555 1_555
H21 C33 1_555 1_555
C23 C26 1_555 1_555
C31 C32 1_555 1_555
N3_2 H2_2 1_555 1_555
N4 C38_2 1_555 1_555
C29_2 C28_2 1_555 1_555
H17_2 C29_2 1_555 1_555
C30_2 N3_2 1_555 1_555
C34_2 C28_2 1_555 1_555
H22_2 C34_2 1_555 1_555
H23_2 C34_2 1_555 1_555
H24_2 C34_2 1_555 1_555
C35_2 N3_2 1_555 1_555
H25_2 C35_2 1_555 1_555
H26_2 C35_2 1_555 1_555
C36_2 C35_2 1_555 1_555
C37_2 C36_2 1_555 1_555
H27_2 C37_2 1_555 1_555
C38_2 C37_2 1_555 1_555
H28_2 C38_2 1_555 1_555
C39_2 N4 1_555 1_555
H29_2 C39_2 1_555 1_555
C40_2 C36_2 1_555 1_555
H30_2 C40_2 1_555 1_555
Co7 N4 1_555 1_555
C29_2 C30_2 1_555 1_555
C39_2 C40_2 1_555 1_555
Co4 O15_2 1_555 1_555
O15_2 C52_2 1_555 1_555
O16 Co4 1_555 1_555
H38_2 C48_2 1_555 1_555
C49_2 C48_2 1_555 1_555
C50_2 C49_2 1_555 1_555
H39_2 C50_2 1_555 1_555
C52_2 O16 1_555 1_555
Co7 O16 1_555 1_555
O17 Co4 1_555 1_555
O21 Co4 1_555 1_555
O23 Co4 1_555 1_555
N10 Co4 1_555 1_555
C49_2 C52_2 1_555 1_555
Co7 O17 1_555 1_555
Co1 O1_2 1_555 1_555
Co7 O3_2 1_555 1_555
O1_2 C1_2 1_555 1_555
O2_2 Co1 1_555 1_555
O3_2 C8_2 1_555 1_555
O5_2 Co1 1_555 1_555
O7_2 Co7 1_555 1_555
N1_2 Co1 1_555 1_555
C1_2 O2_2 1_555 1_555
C2_2 C1_2 1_555 1_555
C3_2 C2_2 1_555 1_555
H3_2 C3_2 1_555 1_555
C4_2 C3_2 1_555 1_555
H4_2 C4_2 1_555 1_555
C5_2 C4_2 1_555 1_555
C6_2 C5_2 1_555 1_555
H5_2 C6_2 1_555 1_555
C7_2 C2_2 1_555 1_555
H6_2 C7_2 1_555 1_555
C8_2 O17 1_555 1_555
C9_2 O5_2 1_555 1_555
C10_2 C9_2 1_555 1_555
C11_2 C10_2 1_555 1_555
H7_2 C11_2 1_555 1_555
C12_2 C11_2 1_555 1_555
H8_2 C12_2 1_555 1_555
C13_2 C12_2 1_555 1_555
C15_2 O7_2 1_555 1_555
C16_2 C15_2 1_555 1_555
C17_2 C16_2 1_555 1_555
H9_2 C17_2 1_555 1_555
C18_2 C17_2 1_555 1_555
C21_2 N1_2 1_555 1_555
H11_2 C21_2 1_555 1_555
C25_2 N1_2 1_555 1_555
H14_2 C25_2 1_555 1_555
O9_2 C9_2 1_555 1_555
C41_2 C10_2 1_555 1_555
H31_2 C41_2 1_555 1_555
C42_2 C13_2 1_555 1_555
H32_2 C42_2 1_555 1_555
O21 C15_2 1_555 1_555
C43_2 C16_2 1_555 1_555
H33_2 C43_2 1_555 1_555
Co3 O2_2 1_555 1_555
O13_2 Co3 1_555 1_555
O14_2 Co1 1_555 1_555
N5_2 Co3 1_555 1_555
N6_2 H35_2 1_555 1_555
N7_2 H36_2 1_555 1_555
C45_2 O13_2 1_555 1_555
C46_2 C45_2 1_555 1_555
C47_2 C46_2 1_555 1_555
H37_2 C47_2 1_555 1_555
C51_2 C46_2 1_555 1_555
H40_2 C51_2 1_555 1_555
C53_2 N5_2 1_555 1_555
H41_2 C53_2 1_555 1_555
C54_2 C53_2 1_555 1_555
H42_2 C54_2 1_555 1_555
C55_2 C54_2 1_555 1_555
C56_2 C55_2 1_555 1_555
H43_2 C56_2 1_555 1_555
C57_2 N5_2 1_555 1_555
H44_2 C57_2 1_555 1_555
C58_2 N6_2 1_555 1_555
H45_2 C58_2 1_555 1_555
H46_2 C58_2 1_555 1_555
C59_2 N6_2 1_555 1_555
C60_2 C59_2 1_555 1_555
C61_2 C60_2 1_555 1_555
H47_2 C61_2 1_555 1_555
C62_2 N7_2 1_555 1_555
C63_2 C62_2 1_555 1_555
C64_2 C59_2 1_555 1_555
H48_2 C64_2 1_555 1_555
C65_2 C63_2 1_555 1_555
H49_2 C65_2 1_555 1_555
H50_2 C65_2 1_555 1_555
H51_2 C65_2 1_555 1_555
C66_2 C60_2 1_555 1_555
H52_2 C66_2 1_555 1_555
H53_2 C66_2 1_555 1_555
H54_2 C66_2 1_555 1_555
C67_2 N7_2 1_555 1_555
H55_2 C67_2 1_555 1_555
H56_2 C67_2 1_555 1_555
C68_2 C67_2 1_555 1_555
C69_2 C68_2 1_555 1_555
H57_2 C69_2 1_555 1_555
O19 Co1 1_555 1_555
O20 Co3 1_555 1_555
O22 Co7 1_555 1_555
C5_2 C8_2 1_555 1_555
C6_2 C7_2 1_555 1_555
O9_2 Co3 1_555 1_555
C41_2 C42_2 1_555 1_555
C43_2 C44_2 1_555 1_555
Co3 O14_2 1_555 1_555
O14_2 C45_2 1_555 1_555
C55_2 C58_2 1_555 1_555
C56_2 C57_2 1_555 1_555
C61_2 C62_2 1_555 1_555
C63_2 C64_2 1_555 1_555
O19 C14_2 1_555 1_555
O22 C20_2 1_555 1_555
C20_2 C19_2 1_555 1_555
O20 C14_2 1_555 1_555
O23 C20_2 1_555 1_555
N10 C70_2 1_555 1_555
H58_2 C70_2 1_555 1_555
C71_2 N10 1_555 1_555
H59_2 C71_2 1_555 1_555
C71_2 C72_2 1_555 1_555
N2_2 H1_2 1_555 1_555
H12_2 C22_2 1_555 1_555
C23_2 C22_2 1_555 1_555
C24_2 C23_2 1_555 1_555
H13_2 C24_2 1_555 1_555
C26_2 N2_2 1_555 1_555
H15_2 C26_2 1_555 1_555
H16_2 C26_2 1_555 1_555
C27_2 N2_2 1_555 1_555
C32_2 C27_2 1_555 1_555
H18_2 C32_2 1_555 1_555
C33_2 C31_2 1_555 1_555
H19_2 C33_2 1_555 1_555
H20_2 C33_2 1_555 1_555
H21_2 C33_2 1_555 1_555
C23_2 C26_2 1_555 1_555
C31_2 C32_2 1_555 1_555

#END
