
###############################################################################
#
# This file contains modified crystal structure data generated from the
# MOF subset of the Cambridge Structural Database (CSD) v543 
# hosted by the Cambridge Crystallographic Data Centre (CCDC).
#
# This work is licensed under the Creative Commons
# Attribution-NonCommercial-ShareAlike 4.0 International License.
# To view a copy of this license, visit
# http://creativecommons.org/licenses/by-nc-sa/4.0/
# or send a letter to
# Creative Commons, PO Box 1866, Mountain View, CA 94042, USA.
#
# CIF created using the CSD Python API on 29 September 2022
# The structure has been converted into the P1 space group
# The structure has a 3D framework
# The original CSD entry MIWNAJ is in the triclinic crystal system
# The framework has been calculated to contain at least 10.0% void space
# The void calculation uses a probe of radius 1.32A, grid spacing 0.4
#
###############################################################################

data_MIWNAJ
_chemical_formula_moiety         '(C22 H20 O26 Pr4)n'
_symmetry_cell_setting           triclinic
_symmetry_space_group_name_H-M   'P 1'
_symmetry_Int_Tables_number      1
_space_group_name_Hall           'P 1'
loop_
_symmetry_equiv_pos_site_id
_symmetry_equiv_pos_as_xyz
1 x,y,z
_cell_length_a                   8.3066(4)
_cell_length_b                   9.3439(4)
_cell_length_c                   11.7372(5)
_cell_angle_alpha                79.248(2)
_cell_angle_beta                 70.499(2)
_cell_angle_gamma                75.926(2)
_cell_volume                     827.408
loop_
_atom_site_label
_atom_site_type_symbol
_atom_site_fract_x
_atom_site_fract_y
_atom_site_fract_z
Pr1 Pr 0.24998(3) 0.02681(2) 0.48702(2)
O1 O 0.3915(4) 0.0018(3) 0.2619(3)
H8 H 0.378(7) 0.083(6) 0.201(5)
O18 O 0.1106(4) 0.2311(3) 0.3580(3)
O19 O 0.0847(4) 0.0726(3) 0.7178(3)
H16 H 0.0506 0.5366 0.3481
H17 H 0.0602 0.4234 0.1822
O28 O 0.2398(4) 0.2973(3) 0.5212(3)
O32 O 0.5470(4) 0.0960(3) 0.3966(3)
C10 C 0.5262(9) 0.5583(6) -0.0000(5)
H7 H 0.5568 0.5667 0.0675
O14 O 0.5102(5) 0.3181(4) 0.1883(3)
O15 O 0.3946(5) 0.2157(4) 0.0863(3)
C11 C 0.4575(6) 0.3174(5) 0.1002(4)
C12 C 0.4738(9) 0.4417(6) -0.0000(5)
Pr11 Pr 0.54849(3) 0.35755(2) 0.37330(2)
Pr2 Pr 0.45151(3) 0.64245(2) 0.62670(2)
O2 O 0.0745(4) 0.9097(3) 0.4027(3)
O6 O 0.4279(4) 0.7751(3) 0.4179(3)
O7 O 0.4530(4) 0.9040(3) 0.6034(3)
O8 O 0.1578(4) 0.7854(3) 0.6340(3)
O9 O 0.3190(4) 0.4948(3) 0.5413(3)
O10 O 0.4408(4) 0.6134(3) 0.2947(3)
O11 O 0.1919(4) 0.5500(4) 0.7870(3)
O12 O 0.4898(5) 0.6819(4) 0.8117(3)
O13 O 0.6054(5) 0.7843(4) 0.9137(3)
C1 C 0.4216(5) 0.7415(4) 0.3204(4)
C2 C 0.3915(6) 0.8666(4) 0.2216(4)
H1 H 0.4895 0.8505 0.1473
C3 C 0.2256(6) 0.8738(5) 0.1931(4)
H2 H 0.2191 0.9499 0.1253
H3 H 0.2306 0.7796 0.1673
C4 C 0.0610(6) 0.9067(4) 0.2981(4)
C5 C 0.2107(6) 0.4073(5) 0.5771(4)
C6 C 0.0497(6) 0.4415(5) 0.6815(4)
H4 H 0.0402 0.3536 0.7404
C7 C 0.0432(6) 0.5712(4) 0.7461(4)
C8 C 0.0285(6) 0.7214(4) 0.6668(4)
C9 C 0.5425(6) 0.6826(5) 0.8998(4)
C10_2 C 0.5262(9) 0.5583(6) 1.0000(5)
H9 H 0.169(10) 0.484(8) 0.844(7)
H10 H 0.439(7) 0.926(6) 0.682(2)
C12_2 C 0.4738(9) 0.4417(6) 1.0000(5)
H11 H 0.4432 0.4333 0.9325
Pr8 Pr 0.75002(3) 0.97319(2) 0.51298(2)
O30 O 0.7602(4) 0.7027(3) 0.4788(3)
O34 O 0.6810(4) 0.5052(3) 0.4587(3)
O36 O 0.5592(4) 0.3866(3) 0.7053(3)
O17 O 0.9255(4) 0.0903(3) 0.5973(3)
O21 O 0.5721(4) 0.2249(3) 0.5821(3)
O23 O 0.8422(4) 0.2146(3) 0.3660(3)
O26 O 0.8081(4) 0.4500(4) 0.2130(3)
C13 C 0.5784(5) 0.2585(4) 0.6796(4)
C14 C 0.6085(6) 0.1334(4) 0.7784(4)
H12 H 0.5105 0.1495 0.8527
C15 C 0.7744(6) 0.1262(5) 0.8069(4)
H13 H 0.7809 0.0501 0.8747
H14 H 0.7694 0.2204 0.8327
C16 C 0.9390(6) 0.0933(4) 0.7019(4)
C17 C 0.7893(6) 0.5927(5) 0.4229(4)
C18 C 0.9503(6) 0.5585(5) 0.3185(4)
H15 H 0.9598 0.6464 0.2596
C19 C 0.9568(6) 0.4288(4) 0.2539(4)
C20 C 0.9715(6) 0.2786(4) 0.3332(4)
H19 H 0.831(10) 0.516(8) 0.156(7)
H20 H 0.561(7) 0.074(6) 0.318(2)
O3 O 0.8894(4) 0.7689(3) 0.6420(3)
O4 O 0.9153(4) 0.9274(3) 0.2822(3)
H5 H 0.9494 0.4634 0.6519
H6 H 0.9398 0.5766 0.8178
O16 O 0.6085(4) 0.9982(3) 0.7381(3)
H18 H 0.622(7) 0.917(6) 0.799(5)
loop_
_geom_bond_atom_site_label_1
_geom_bond_atom_site_label_2
_geom_bond_site_symmetry_1
_geom_bond_site_symmetry_2
Pr1 O1 1_555 1_555
H8 O1 1_555 1_555
O18 Pr1 1_555 1_555
O19 Pr1 1_555 1_555
O28 Pr1 1_555 1_555
O32 Pr1 1_555 1_555
H7 C10 1_555 1_555
O14 C11 1_555 1_555
O15 C11 1_555 1_555
C11 C12 1_555 1_555
C12 C10 1_555 1_555
Pr11 O14 1_555 1_555
Pr2 O6 1_555 1_555
O28 C5 1_555 1_555
O9 Pr2 1_555 1_555
O10 C1 1_555 1_555
O11 Pr2 1_555 1_555
O12 Pr2 1_555 1_555
O13 C9 1_555 1_555
C1 O6 1_555 1_555
C2 C1 1_555 1_555
H1 C2 1_555 1_555
C3 C2 1_555 1_555
H2 C3 1_555 1_555
H3 C3 1_555 1_555
C4 O2 1_555 1_555
C5 O9 1_555 1_555
C6 C5 1_555 1_555
H4 C6 1_555 1_555
C7 O11 1_555 1_555
C8 O8 1_555 1_555
C9 O12 1_555 1_555
C10_2 C9 1_555 1_555
H9 O11 1_555 1_555
H10 O7 1_555 1_555
C12_2 C10_2 1_555 1_555
H11 C12_2 1_555 1_555
Pr8 O7 1_555 1_555
Pr11 O28 1_555 1_555
O30 Pr2 1_555 1_555
O34 Pr2 1_555 1_555
O36 Pr2 1_555 1_555
Pr2 O7 1_555 1_555
Pr2 O8 1_555 1_555
O9 Pr11 1_555 1_555
O10 Pr11 1_555 1_555
C3 C4 1_555 1_555
C6 C7 1_555 1_555
C7 C8 1_555 1_555
Pr8 O30 1_555 1_555
Pr11 O34 1_555 1_555
Pr11 O21 1_555 1_555
O30 C17 1_555 1_555
O36 C13 1_555 1_555
O26 Pr11 1_555 1_555
C13 O21 1_555 1_555
H12 C14 1_555 1_555
C15 C14 1_555 1_555
H13 C15 1_555 1_555
H14 C15 1_555 1_555
C16 O17 1_555 1_555
C17 O34 1_555 1_555
C18 C17 1_555 1_555
H15 C18 1_555 1_555
C19 O26 1_555 1_555
H19 O26 1_555 1_555
H20 O32 1_555 1_555
Pr11 O32 1_555 1_555
Pr11 O23 1_555 1_555
O23 C20 1_555 1_555
C13 C14 1_555 1_555
C15 C16 1_555 1_555
C18 C19 1_555 1_555
C19 C20 1_555 1_555
O16 Pr8 1_555 1_555
H18 O16 1_555 1_555
O3 Pr8 1_555 1_555
O4 Pr8 1_555 1_555

#END
