
###############################################################################
#
# This file contains modified crystal structure data generated from the
# MOF subset of the Cambridge Structural Database (CSD) v543 
# hosted by the Cambridge Crystallographic Data Centre (CCDC).
#
# This work is licensed under the Creative Commons
# Attribution-NonCommercial-ShareAlike 4.0 International License.
# To view a copy of this license, visit
# http://creativecommons.org/licenses/by-nc-sa/4.0/
# or send a letter to
# Creative Commons, PO Box 1866, Mountain View, CA 94042, USA.
#
# CIF created using the CSD Python API on 29 September 2022
# The structure has been converted into the P1 space group
# The structure has a 3D framework
# The original CSD entry MOBBAI01 is in the hexagonal crystal system
# The framework has been calculated to contain at least 10.0% void space
# The void calculation uses a probe of radius 1.32A, grid spacing 0.4
#
###############################################################################

data_MOBBAI01
_chemical_formula_moiety         '(C134 H70 N20 Ni10 O36)n'
_symmetry_cell_setting           triclinic
_symmetry_space_group_name_H-M   'P 1'
_symmetry_Int_Tables_number      1
_space_group_name_Hall           'P 1'
loop_
_symmetry_equiv_pos_site_id
_symmetry_equiv_pos_as_xyz
1 x,y,z
_cell_length_a                   16.833(2)
_cell_length_b                   16.833(2)
_cell_length_c                   11.241(2)
_cell_angle_alpha                90
_cell_angle_beta                 90
_cell_angle_gamma                120
_cell_volume                     2758.41
loop_
_atom_site_label
_atom_site_type_symbol
_atom_site_fract_x
_atom_site_fract_y
_atom_site_fract_z
C5 C 0.0839(11) 0.0000 0.7500
H2 H 0.1403 0.0000 0.7500
O4 O 0.1716(6) 0.2462(9) 0.7500
C17 C 0.1718(11) 0.1718(11) 0.7500
C18 C -0.0000 0.0839(11) 0.7500
H11 H -0.0000 0.1403 0.7500
C19 C 0.0820(10) 0.0820(10) 0.7500
O7 O 0.2462(9) 0.1716(6) 0.7500
Ni7 Ni 0.31723(13) 0.31723(13) 0.7500
Ni10 Ni 0.68277(13) 0.0000 0.7500
C7 C -0.0000 0.6906(8) 0.1848(12)
N2 N -0.0000 0.6810(6) 0.5675(10)
C10 C -0.0000 0.6906(8) 0.3152(12)
C11 C 0.0728(9) 0.7197(15) 0.5014(12)
H5 H 0.1300 0.7455 0.5417
C12 C 0.0765(10) 0.7275(15) 0.3782(10)
H6 H 0.1342 0.7595 0.3391
C16 C 0.0765(10) 0.7275(15) 0.1218(10)
H10 H 0.1342 0.7595 0.1609
C29 C 0.3094(8) 0.3094(8) 0.1848(12)
C31 C 0.3490(11) 0.2725(15) 0.1218(10)
H16 H 0.3747 0.2405 0.1609
N4 N 0.3190(6) 0.3190(6) 0.5675(10)
C32 C 0.3094(8) 0.3094(8) 0.3152(12)
C33 C 0.2803(15) 0.3531(12) 0.5014(12)
H17 H 0.2545 0.3845 0.5417
C34 C 0.2725(15) 0.3490(11) 0.3782(10)
H18 H 0.2405 0.3747 0.3391
C35 C 0.3531(12) 0.2803(15) 0.5014(12)
H19 H 0.3845 0.2545 0.5417
C36 C 0.3490(11) 0.2725(15) 0.3782(10)
H20 H 0.3747 0.2405 0.3391
C38 C 0.2725(15) 0.3490(11) 0.1218(10)
H22 H 0.2405 0.3747 0.1609
Ni4 Ni -0.0000 0.68277(13) 0.7500
N1 N -0.0000 0.6810(6) 0.9325(10)
O1 O 0.0746(7) 0.8284(6) 0.7500
O2 O 0.1215(6) 0.6777(6) 0.7500
C1 C 0.2651(10) 0.5751(10) 0.7500
H1 H 0.2190 0.5122 0.7500
O3 O 0.0833(7) 0.5316(7) 0.7500
C2 C 0.2413(9) 0.6411(9) 0.7500
C3 C -0.0000 0.8282(11) 0.7500
C4 C 0.1413(10) 0.6169(10) 0.7500
C5_2 C 0.0839(11) 1.0000 0.7500
H2_2 H 0.1403 1.0000 0.7500
C6 C 0.0000 0.9180(10) 0.7500
C15 C 0.0728(9) 0.7197(15) 0.9986(12)
H9 H 0.1300 0.7455 0.9583
O9 O 0.3223(6) 0.4438(8) 0.7500
C23 C 0.4249(10) 0.6900(14) 0.7500
H13 H 0.4878 0.7068 0.7500
O10 O 0.4684(7) 0.5517(10) 0.7500
C24 C 0.3589(9) 0.6002(13) 0.7500
C25 C 0.3831(10) 0.5244(14) 0.7500
O11 O 0.5562(8) 0.8785(6) 0.7500
C26 C 0.3100(14) 0.7349(10) 0.7500
H14 H 0.2932 0.7810 0.7500
O12 O 0.4483(10) 0.9167(7) 0.7500
C27 C 0.3998(13) 0.7587(9) 0.7500
C28 C 0.4756(14) 0.8587(10) 0.7500
N3 N 0.3190(6) 0.3190(6) 0.9325(10)
C30 C 0.3531(12) 0.2803(15) 0.9986(12)
H15 H 0.3845 0.2545 0.9583
C37 C 0.2803(15) 0.3531(12) 0.9986(12)
H21 H 0.2545 0.3845 0.9583
Ni10_2 Ni 0.68277(13) 1.0000 0.7500
O23 O 0.4438(8) 0.3223(6) 0.7500
C18_2 C 1.0000 0.0839(11) 0.7500
H11_2 H 1.0000 0.1403 0.7500
C20 C 0.8282(11) 0.0000 0.7500
C22 C 0.9180(10) 0.0000 0.7500
O6 O 0.8284(6) 0.0746(7) 0.7500
C7_2 C 1.0000 0.6906(8) 0.1848(12)
C9 C 0.9235(10) 0.6510(11) 0.1218(10)
H4 H 0.8658 0.6253 0.1609
N2_2 N 1.0000 0.6810(6) 0.5675(10)
C10_2 C 1.0000 0.6906(8) 0.3152(12)
C13 C 0.9272(9) 0.6469(12) 0.5014(12)
H7 H 0.8700 0.6155 0.5417
C14 C 0.9235(10) 0.6510(11) 0.3782(10)
H8 H 0.8658 0.6253 0.3391
Ni4_2 Ni 1.0000 0.68277(13) 0.7500
N1_2 N 1.0000 0.6810(6) 0.9325(10)
C3_2 C 1.0000 0.8282(11) 0.7500
C6_2 C 1.0000 0.9180(10) 0.7500
C8 C 0.9272(9) 0.6469(12) 0.9986(12)
H3 H 0.8700 0.6155 0.9583
O5 O 0.7538(9) 0.9254(7) 0.7500
C20_2 C 0.8282(11) 1.0000 0.7500
C21 C 0.9161(11) 0.9161(11) 0.7500
H12 H 0.8597 0.8597 0.7500
C22_2 C 0.9180(10) 1.0000 0.7500
O8 O 0.9254(7) 0.7538(9) 0.7500
O25 O 0.8785(6) 0.5562(8) 0.7500
C29_2 C 0.6906(8) -0.0000(11) 0.1848(12)
C31_2 C 0.7275(15) 0.0765(19) 0.1218(10)
H16_2 H 0.7595 0.1342 0.1609
N4_2 N 0.6810(6) -0.0000(8) 0.5675(10)
C32_2 C 0.6906(8) -0.0000(11) 0.3152(12)
C35_2 C 0.7197(15) 0.0728(19) 0.5014(12)
H19_2 H 0.7455 0.1300 0.5417
C36_2 C 0.7275(15) 0.0765(19) 0.3782(10)
H20_2 H 0.7595 0.1342 0.3391
N3_2 N 0.6810(6) 0.0000(8) 0.9325(10)
C30_2 C 0.7197(15) 0.0728(19) 0.9986(12)
H15_2 H 0.7455 0.1300 0.9583
O23_2 O 0.6777(6) 0.1215(10) 0.7500
C29_3 C 0.6906(8) 1.0000(11) 0.1848(12)
N4_3 N 0.6810(6) 1.0000(8) 0.5675(10)
C32_3 C 0.6906(8) 1.0000(11) 0.3152(12)
C33_2 C 0.6469(12) 0.9272(19) 0.5014(12)
H17_2 H 0.6155 0.8700 0.5417
C34_2 C 0.6510(11) 0.9235(19) 0.3782(10)
H18_2 H 0.6253 0.8658 0.3391
C38_2 C 0.6510(11) 0.9235(19) 0.1218(10)
H22_2 H 0.6253 0.8658 0.1609
N3_3 N 0.6810(6) 1.0000(8) 0.9325(10)
C37_2 C 0.6469(12) 0.9272(19) 0.9986(12)
H21_2 H 0.6155 0.8700 0.9583
C39 C 0.5751(10) 0.2651(10) 0.7500
H23 H 0.5122 0.2190 0.7500
O14 O 0.5316(7) 0.0833(7) 0.7500
C40 C 0.6411(9) 0.2413(9) 0.7500
C41 C 0.6169(10) 0.1413(10) 0.7500
C52 C 0.6900(14) 0.4249(10) 0.7500
H32 H 0.7068 0.4878 0.7500
O16 O 0.5517(10) 0.4684(7) 0.7500
C53 C 0.6002(13) 0.3589(9) 0.7500
C54 C 0.5244(14) 0.3831(10) 0.7500
C55 C 0.7349(10) 0.3100(14) 0.7500
H33 H 0.7810 0.2932 0.7500
O18 O 0.9167(7) 0.4483(10) 0.7500
C56 C 0.7587(9) 0.3998(13) 0.7500
C57 C 0.8587(10) 0.4756(14) 0.7500
N2_3 N 0.0000 0.3190(6) 0.0675(10)
C13_2 C 0.0728(9) 0.3531(12) 0.0014(12)
H7_2 H 0.1300 0.3845 0.0417
Ni4_3 Ni 0.0000 0.31723(13) 0.2500
N1_3 N 0.0000 0.3190(6) 0.4325(10)
C3_3 C 0.0000 0.1718(11) 0.2500
C6_3 C -0.0000 0.0820(10) 0.2500
C7_3 C -0.0000 0.3094(8) 0.6848(12)
C8_2 C 0.0728(9) 0.3531(12) 0.4986(12)
H3_2 H 0.1300 0.3845 0.4583
C9_2 C 0.0765(10) 0.3490(11) 0.6218(10)
H4_2 H 0.1342 0.3747 0.6609
C10_3 C -0.0000 0.3094(8) 0.8152(12)
C14_2 C 0.0765(10) 0.3490(11) 0.8782(10)
H8_2 H 0.1342 0.3747 0.8391
O5_2 O 0.2462(9) 0.0746(7) 0.2500
C20_3 C 0.1718(11) -0.0000 0.2500
C21_2 C 0.0839(11) 0.0839(11) 0.2500
H12_2 H 0.1403 0.1403 0.2500
C22_3 C 0.0820(10) -0.0000 0.2500
O8_2 O 0.0746(7) 0.2462(9) 0.2500
Ni8 Ni 0.31723(13) -0.0000 0.2500
O25_2 O 0.1215(6) 0.4438(8) 0.2500
C18_3 C 0.0000 0.9161(11) 0.2500
H11_3 H -0.0000 0.8597 0.2500
C20_4 C 0.1718(11) 1.0000 0.2500
C22_4 C 0.0820(10) 1.0000 0.2500
O6_2 O 0.1716(6) 0.9254(7) 0.2500
Ni8_2 Ni 0.31723(13) 1.0000 0.2500
N2_4 N 1.0000 0.3190(6) 0.0675(10)
C11_2 C 0.9272(9) 0.2803(15) 0.0014(12)
H5_2 H 0.8700 0.2545 0.0417
N4_4 N 0.6810(6) 0.6810(6) 0.0675(10)
C33_3 C 0.7197(15) 0.6469(12) 0.0014(12)
H17_3 H 0.7455 0.6155 0.0417
C35_3 C 0.6469(12) 0.7197(15) 0.0014(12)
H19_3 H 0.6155 0.7455 0.0417
Ni4_4 Ni 1.0000 0.31723(13) 0.2500
Ni6 Ni 0.68277(13) 0.68277(13) 0.2500
N1_4 N 1.0000 0.3190(6) 0.4325(10)
O1_2 O 0.9254(7) 0.1716(6) 0.2500
O2_2 O 0.8785(6) 0.3223(6) 0.2500
C1_2 C 0.7349(10) 0.4249(10) 0.2500
H1_2 H 0.7810 0.4878 0.2500
O3_2 O 0.9167(7) 0.4684(7) 0.2500
C2_2 C 0.7587(9) 0.3589(9) 0.2500
C3_4 C 1.0000 0.1718(11) 0.2500
C4_2 C 0.8587(10) 0.3831(10) 0.2500
C5_3 C 0.9161(11) -0.0000 0.2500
H2_3 H 0.8597 -0.0000 0.2500
C6_4 C 1.0000 0.0820(10) 0.2500
C7_4 C 1.0000 0.3094(8) 0.6848(12)
C10_4 C 1.0000 0.3094(8) 0.8152(12)
C12_2 C 0.9235(10) 0.2725(15) 0.8782(10)
H6_2 H 0.8658 0.2405 0.8391
C15_2 C 0.9272(9) 0.2803(15) 0.4986(12)
H9_2 H 0.8700 0.2545 0.4583
C16_2 C 0.9235(10) 0.2725(15) 0.6218(10)
H10_2 H 0.8658 0.2405 0.6609
O9_2 O 0.6777(6) 0.5562(8) 0.2500
C23_2 C 0.5751(10) 0.3100(14) 0.2500
H13_2 H 0.5122 0.2932 0.2500
O10_2 O 0.5316(7) 0.4483(10) 0.2500
C24_2 C 0.6411(9) 0.3998(13) 0.2500
C25_2 C 0.6169(10) 0.4756(14) 0.2500
O11_2 O 0.4438(8) 0.1215(6) 0.2500
C26_2 C 0.6900(14) 0.2651(10) 0.2500
H14_2 H 0.7068 0.2190 0.2500
O12_2 O 0.5517(10) 0.0833(7) 0.2500
C27_2 C 0.6002(13) 0.2413(9) 0.2500
C28_2 C 0.5244(14) 0.1413(10) 0.2500
N3_4 N 0.6810(6) 0.6810(6) 0.4325(10)
C29_4 C 0.6906(8) 0.6906(8) 0.6848(12)
C30_3 C 0.6469(12) 0.7197(15) 0.4986(12)
H15_3 H 0.6155 0.7455 0.4583
C31_3 C 0.6510(11) 0.7275(15) 0.6218(10)
H16_3 H 0.6253 0.7595 0.6609
C32_4 C 0.6906(8) 0.6906(8) 0.8152(12)
C34_3 C 0.7275(15) 0.6510(11) 0.8782(10)
H18_3 H 0.7595 0.6253 0.8391
C36_3 C 0.6510(11) 0.7275(15) 0.8782(10)
H20_3 H 0.6253 0.7595 0.8391
C37_3 C 0.7197(15) 0.6469(12) 0.4986(12)
H21_3 H 0.7455 0.6155 0.4583
C38_3 C 0.7275(15) 0.6510(11) 0.6218(10)
H22_3 H 0.7595 0.6253 0.6609
O20 O 0.8284(6) 0.7538(9) 0.2500
O21 O 0.7538(9) 0.8284(6) 0.2500
O23_3 O 0.5562(8) 0.6777(6) 0.2500
C5_4 C 0.9161(11) 1.0000 0.2500
H2_4 H 0.8597 1.0000 0.2500
C17_2 C 0.8282(11) 0.8282(11) 0.2500
C18_4 C 1.0000 0.9161(11) 0.2500
H11_4 H 1.0000 0.8597 0.2500
C19_2 C 0.9180(10) 0.9180(10) 0.2500
N4_5 N 0.3190(6) 0.0000(8) 0.0675(10)
C33_4 C 0.3531(12) 0.0728(19) 0.0014(12)
H17_4 H 0.3845 0.1300 0.0417
N3_5 N 0.3190(6) 0.0000(8) 0.4325(10)
C29_5 C 0.3094(8) 0.0000(11) 0.6848(12)
C32_5 C 0.3094(8) 0.0000(11) 0.8152(12)
C34_4 C 0.3490(11) 0.0765(19) 0.8782(10)
H18_4 H 0.3747 0.1342 0.8391
C37_4 C 0.3531(12) 0.0728(19) 0.4986(12)
H21_4 H 0.3845 0.1300 0.4583
C38_4 C 0.3490(11) 0.0765(19) 0.6218(10)
H22_4 H 0.3747 0.1342 0.6609
N4_6 N 0.3190(6) 1.0000(8) 0.0675(10)
C35_4 C 0.2803(15) 0.9272(19) 0.0014(12)
H19_4 H 0.2545 0.8700 0.0417
N3_6 N 0.3190(6) 1.0000(8) 0.4325(10)
C29_6 C 0.3094(8) 1.0000(11) 0.6848(12)
C30_4 C 0.2803(15) 0.9272(19) 0.4986(12)
H15_4 H 0.2545 0.8700 0.4583
C31_4 C 0.2725(15) 0.9235(19) 0.6218(10)
H16_4 H 0.2405 0.8658 0.6609
C32_6 C 0.3094(8) 1.0000(11) 0.8152(12)
C36_4 C 0.2725(15) 0.9235(19) 0.8782(10)
H20_4 H 0.2405 0.8658 0.8391
O23_4 O 0.3223(6) 0.8785(10) 0.2500
C39_2 C 0.4249(10) 0.7349(10) 0.2500
H23_2 H 0.4878 0.7810 0.2500
O14_2 O 0.4684(7) 0.9167(7) 0.2500
C40_2 C 0.3589(9) 0.7587(9) 0.2500
C41_2 C 0.3831(10) 0.8587(10) 0.2500
C52_2 C 0.3100(14) 0.5751(10) 0.2500
H32_2 H 0.2932 0.5122 0.2500
O16_2 O 0.4483(10) 0.5316(7) 0.2500
C53_2 C 0.3998(13) 0.6411(9) 0.2500
C54_2 C 0.4756(14) 0.6169(10) 0.2500
C55_2 C 0.2651(10) 0.6900(14) 0.2500
H33_2 H 0.2190 0.7068 0.2500
O18_2 O 0.0833(7) 0.5517(10) 0.2500
C56_2 C 0.2413(9) 0.6002(13) 0.2500
C57_2 C 0.1413(10) 0.5244(14) 0.2500
loop_
_geom_bond_atom_site_label_1
_geom_bond_atom_site_label_2
_geom_bond_site_symmetry_1
_geom_bond_site_symmetry_2
C5 H2 1_555 1_555
O4 C17 1_555 1_555
C17 C19 1_555 1_555
C18 H11 1_555 1_555
C19 C5 1_555 1_555
O7 C17 1_555 1_555
Ni7 O4 1_555 1_555
C18 C19 1_555 1_555
O7 Ni7 1_555 1_555
N2 C11 1_555 1_555
C10 C7 1_555 1_555
C11 H5 1_555 1_555
C12 C10 1_555 1_555
H6 C12 1_555 1_555
C16 C7 1_555 1_555
H10 C16 1_555 1_555
C29 C31 1_555 1_555
H16 C31 1_555 1_555
N4 C33 1_555 1_555
C32 C29 1_555 1_555
C33 H17 1_555 1_555
C34 C32 1_555 1_555
H18 C34 1_555 1_555
C35 N4 1_555 1_555
H19 C35 1_555 1_555
C36 C32 1_555 1_555
H20 C36 1_555 1_555
C38 C29 1_555 1_555
H22 C38 1_555 1_555
Ni4 N2 1_555 1_555
Ni7 N4 1_555 1_555
C11 C12 1_555 1_555
C33 C34 1_555 1_555
C35 C36 1_555 1_555
Ni4 N1 1_555 1_555
O1 Ni4 1_555 1_555
O2 Ni4 1_555 1_555
C1 H1 1_555 1_555
O3 C4 1_555 1_555
C2 C1 1_555 1_555
C3 O1 1_555 1_555
C4 O2 1_555 1_555
C5_2 H2_2 1_555 1_555
C6 C3 1_555 1_555
C15 N1 1_555 1_555
H9 C15 1_555 1_555
O9 C25 1_555 1_555
C23 H13 1_555 1_555
O10 C25 1_555 1_555
C24 C1 1_555 1_555
C25 C24 1_555 1_555
O11 C28 1_555 1_555
C26 C2 1_555 1_555
H14 C26 1_555 1_555
O12 C28 1_555 1_555
C27 C23 1_555 1_555
C28 C27 1_555 1_555
Ni7 O9 1_555 1_555
N3 Ni7 1_555 1_555
C30 N3 1_555 1_555
H15 C30 1_555 1_555
C37 N3 1_555 1_555
H21 C37 1_555 1_555
Ni10_2 O11 1_555 1_555
O23 Ni7 1_555 1_555
C2 C4 1_555 1_555
C5_2 C6 1_555 1_555
C23 C24 1_555 1_555
C26 C27 1_555 1_555
C18_2 H11_2 1_555 1_555
C20 C22 1_555 1_555
C22 C18_2 1_555 1_555
O6 C20 1_555 1_555
O6 Ni10 1_555 1_555
C7_2 C9 1_555 1_555
H4 C9 1_555 1_555
C10_2 C7_2 1_555 1_555
C13 N2_2 1_555 1_555
H7 C13 1_555 1_555
C14 C10_2 1_555 1_555
H8 C14 1_555 1_555
Ni4_2 N2_2 1_555 1_555
C13 C14 1_555 1_555
Ni4_2 N1_2 1_555 1_555
N1_2 C8 1_555 1_555
C6_2 C3_2 1_555 1_555
C8 H3 1_555 1_555
O5 C20_2 1_555 1_555
C20_2 C22_2 1_555 1_555
C21 C6_2 1_555 1_555
H12 C21 1_555 1_555
O8 Ni4_2 1_555 1_555
Ni10_2 O5 1_555 1_555
O25 Ni4_2 1_555 1_555
C3_2 O8 1_555 1_555
C21 C22_2 1_555 1_555
C29_2 C31_2 1_555 1_555
H16_2 C31_2 1_555 1_555
C32_2 C29_2 1_555 1_555
C35_2 N4_2 1_555 1_555
H19_2 C35_2 1_555 1_555
C36_2 C32_2 1_555 1_555
H20_2 C36_2 1_555 1_555
Ni10 N4_2 1_555 1_555
C35_2 C36_2 1_555 1_555
N3_2 Ni10 1_555 1_555
C30_2 N3_2 1_555 1_555
H15_2 C30_2 1_555 1_555
O23_2 Ni10 1_555 1_555
N4_3 C33_2 1_555 1_555
C32_3 C29_3 1_555 1_555
C33_2 H17_2 1_555 1_555
C34_2 C32_3 1_555 1_555
H18_2 C34_2 1_555 1_555
C38_2 C29_3 1_555 1_555
H22_2 C38_2 1_555 1_555
Ni10_2 N4_3 1_555 1_555
C33_2 C34_2 1_555 1_555
N3_3 Ni10_2 1_555 1_555
C37_2 N3_3 1_555 1_555
H21_2 C37_2 1_555 1_555
C39 H23 1_555 1_555
O14 C41 1_555 1_555
C40 C39 1_555 1_555
C41 O23_2 1_555 1_555
O23 C54 1_555 1_555
C52 H32 1_555 1_555
O16 C54 1_555 1_555
C53 C39 1_555 1_555
C54 C53 1_555 1_555
O25 C57 1_555 1_555
C55 C40 1_555 1_555
H33 C55 1_555 1_555
O18 C57 1_555 1_555
C56 C52 1_555 1_555
C57 C56 1_555 1_555
C40 C41 1_555 1_555
C52 C53 1_555 1_555
C55 C56 1_555 1_555
C13_2 N2_3 1_555 1_555
H7_2 C13_2 1_555 1_555
Ni4_3 N2_3 1_555 1_555
Ni4_3 N1_3 1_555 1_555
N1_3 C8_2 1_555 1_555
C6_3 C3_3 1_555 1_555
C7_3 C9_2 1_555 1_555
C8_2 H3_2 1_555 1_555
C9_2 C8_2 1_555 1_555
H4_2 C9_2 1_555 1_555
C10_3 C7_3 1_555 1_555
C14_2 C10_3 1_555 1_555
H8_2 C14_2 1_555 1_555
O5_2 C20_3 1_555 1_555
C20_3 C22_3 1_555 1_555
C21_2 C6_3 1_555 1_555
H12_2 C21_2 1_555 1_555
O8_2 Ni4_3 1_555 1_555
Ni8 O5_2 1_555 1_555
O25_2 Ni4_3 1_555 1_555
C3_3 O8_2 1_555 1_555
C21_2 C22_3 1_555 1_555
C18_3 H11_3 1_555 1_555
C20_4 C22_4 1_555 1_555
C22_4 C18_3 1_555 1_555
O6_2 C20_4 1_555 1_555
O6_2 Ni8_2 1_555 1_555
N2_4 C11_2 1_555 1_555
C11_2 H5_2 1_555 1_555
N4_4 C33_3 1_555 1_555
C33_3 H17_3 1_555 1_555
C35_3 N4_4 1_555 1_555
H19_3 C35_3 1_555 1_555
Ni4_4 N2_4 1_555 1_555
Ni6 N4_4 1_555 1_555
Ni4_4 N1_4 1_555 1_555
O1_2 Ni4_4 1_555 1_555
O2_2 Ni4_4 1_555 1_555
C1_2 H1_2 1_555 1_555
O3_2 C4_2 1_555 1_555
C2_2 C1_2 1_555 1_555
C3_4 O1_2 1_555 1_555
C4_2 O2_2 1_555 1_555
C5_3 H2_3 1_555 1_555
C6_4 C3_4 1_555 1_555
C10_4 C7_4 1_555 1_555
C12_2 C10_4 1_555 1_555
H6_2 C12_2 1_555 1_555
C15_2 N1_4 1_555 1_555
H9_2 C15_2 1_555 1_555
C16_2 C7_4 1_555 1_555
H10_2 C16_2 1_555 1_555
O9_2 C25_2 1_555 1_555
C23_2 H13_2 1_555 1_555
O10_2 C25_2 1_555 1_555
C24_2 C1_2 1_555 1_555
C25_2 C24_2 1_555 1_555
O11_2 C28_2 1_555 1_555
C26_2 C2_2 1_555 1_555
H14_2 C26_2 1_555 1_555
O12_2 C28_2 1_555 1_555
C27_2 C23_2 1_555 1_555
C28_2 C27_2 1_555 1_555
Ni6 O9_2 1_555 1_555
N3_4 Ni6 1_555 1_555
C29_4 C31_3 1_555 1_555
C30_3 N3_4 1_555 1_555
H15_3 C30_3 1_555 1_555
C31_3 C30_3 1_555 1_555
H16_3 C31_3 1_555 1_555
C32_4 C29_4 1_555 1_555
C34_3 C32_4 1_555 1_555
H18_3 C34_3 1_555 1_555
C36_3 C32_4 1_555 1_555
H20_3 C36_3 1_555 1_555
C37_3 N3_4 1_555 1_555
H21_3 C37_3 1_555 1_555
C38_3 C29_4 1_555 1_555
H22_3 C38_3 1_555 1_555
Ni8 O11_2 1_555 1_555
O20 Ni6 1_555 1_555
O21 Ni6 1_555 1_555
O23_3 Ni6 1_555 1_555
C2_2 C4_2 1_555 1_555
C5_3 C6_4 1_555 1_555
C15_2 C16_2 1_555 1_555
C23_2 C24_2 1_555 1_555
C26_2 C27_2 1_555 1_555
C37_3 C38_3 1_555 1_555
C5_4 H2_4 1_555 1_555
O20 C17_2 1_555 1_555
C17_2 C19_2 1_555 1_555
C18_4 H11_4 1_555 1_555
C19_2 C5_4 1_555 1_555
O21 C17_2 1_555 1_555
C18_4 C19_2 1_555 1_555
N4_5 C33_4 1_555 1_555
C33_4 H17_4 1_555 1_555
Ni8 N4_5 1_555 1_555
N3_5 Ni8 1_555 1_555
C32_5 C29_5 1_555 1_555
C34_4 C32_5 1_555 1_555
H18_4 C34_4 1_555 1_555
C37_4 N3_5 1_555 1_555
H21_4 C37_4 1_555 1_555
C38_4 C29_5 1_555 1_555
H22_4 C38_4 1_555 1_555
C37_4 C38_4 1_555 1_555
C35_4 N4_6 1_555 1_555
H19_4 C35_4 1_555 1_555
Ni8_2 N4_6 1_555 1_555
N3_6 Ni8_2 1_555 1_555
C29_6 C31_4 1_555 1_555
C30_4 N3_6 1_555 1_555
H15_4 C30_4 1_555 1_555
C31_4 C30_4 1_555 1_555
H16_4 C31_4 1_555 1_555
C32_6 C29_6 1_555 1_555
C36_4 C32_6 1_555 1_555
H20_4 C36_4 1_555 1_555
O23_4 Ni8_2 1_555 1_555
C39_2 H23_2 1_555 1_555
O14_2 C41_2 1_555 1_555
C40_2 C39_2 1_555 1_555
C41_2 O23_4 1_555 1_555
O23_3 C54_2 1_555 1_555
C52_2 H32_2 1_555 1_555
O16_2 C54_2 1_555 1_555
C53_2 C39_2 1_555 1_555
C54_2 C53_2 1_555 1_555
O25_2 C57_2 1_555 1_555
C55_2 C40_2 1_555 1_555
H33_2 C55_2 1_555 1_555
O18_2 C57_2 1_555 1_555
C56_2 C52_2 1_555 1_555
C57_2 C56_2 1_555 1_555
C40_2 C41_2 1_555 1_555
C52_2 C53_2 1_555 1_555
C55_2 C56_2 1_555 1_555

#END
