
###############################################################################
#
# This file contains modified crystal structure data generated from the
# MOF subset of the Cambridge Structural Database (CSD) v543 
# hosted by the Cambridge Crystallographic Data Centre (CCDC).
#
# This work is licensed under the Creative Commons
# Attribution-NonCommercial-ShareAlike 4.0 International License.
# To view a copy of this license, visit
# http://creativecommons.org/licenses/by-nc-sa/4.0/
# or send a letter to
# Creative Commons, PO Box 1866, Mountain View, CA 94042, USA.
#
# CIF created using the CSD Python API on 29 September 2022
# The structure has been converted into the P1 space group
# The structure has a 3D framework
# The original CSD entry MOBDIR is in the hexagonal crystal system
# The framework has been calculated to contain at least 10.0% void space
# The void calculation uses a probe of radius 1.32A, grid spacing 0.4
#
###############################################################################

data_MOBDIR
_chemical_formula_moiety         '(C48 H24 Cu10 O24)n'
_symmetry_cell_setting           triclinic
_symmetry_space_group_name_H-M   'P 1'
_symmetry_Int_Tables_number      1
_space_group_name_Hall           'P 1'
loop_
_symmetry_equiv_pos_site_id
_symmetry_equiv_pos_as_xyz
1 x,y,z
_cell_length_a                   9.1056(3)
_cell_length_b                   9.1056(3)
_cell_length_c                   15.9550(12)
_cell_angle_alpha                90
_cell_angle_beta                 90
_cell_angle_gamma                120
_cell_volume                     1145.63
loop_
_atom_site_label
_atom_site_type_symbol
_atom_site_fract_x
_atom_site_fract_y
_atom_site_fract_z
C3 C 0.06117(14) 0.72496(14) 0.17406(7)
H1 H 0.1216 0.7523 0.1226
C4 C 0.1484(2) 0.7656(2) 0.2500
H2 H 0.2687 0.8216 0.2500
Cu3 Cu 0.0000 0.5000 0.0000
Cu4 Cu 0.0000 0.5000 0.5000
C8 C 0.06117(14) 0.72496(14) 0.32594(7)
H4 H 0.1216 0.7523 0.3774
Cu3_2 Cu 0.0000 0.5000 1.0000
Cu1 Cu 0.5000 0.5000 0.0000
O1 O 0.63608(10) 0.57899(10) 0.10016(5)
O2 O 0.83870(11) 0.57413(10) 0.02613(5)
C1 C 0.78264(14) 0.59610(13) 0.09502(7)
C2 C 0.88376(14) 0.64352(14) 0.17413(7)
C5 C 0.7963(2) 0.6049(2) 0.2500
H3 H 0.6761 0.5519 0.2500
Cu2 Cu 0.5000 0.5000 0.5000
Cu3_3 Cu 1.0000 0.5000 0.0000
Cu4_2 Cu 1.0000 0.5000 0.5000
O3 O 0.63608(10) 0.57899(10) 0.39984(5)
O5 O 0.83870(11) 0.57413(10) 0.47387(5)
O6 O 0.42587(10) 0.26457(15) 0.02613(5)
C6 C 0.78264(14) 0.59610(13) 0.40498(7)
C7 C 0.88376(14) 0.64352(14) 0.32587(7)
Cu1_2 Cu 0.5000 0.5000 1.0000
Cu3_4 Cu 1.0000 0.5000 1.0000
O4 O 0.36392(10) 0.42101(10) 0.89984(5)
O7 O 0.57413(10) 0.73543(15) 0.97387(5)
Cu1_3 Cu 0.5000 -0.0000 0.0000
O1_2 O 0.42101(10) 0.05709(14) 0.10016(5)
C1_2 C 0.40390(13) 0.18654(19) 0.09502(7)
C2_2 C 0.35648(14) 0.24024(20) 0.17413(7)
C3_2 C 0.27504(14) 0.33621(20) 0.17406(7)
H1_2 H 0.2477 0.3693 0.1226
C4_2 C 0.2344(2) 0.3828(3) 0.2500
H2_2 H 0.1784 0.4471 0.2500
C5_2 C 0.3951(2) 0.1914(3) 0.2500
H3_2 H 0.4481 0.1242 0.2500
Cu2_2 Cu 0.5000 -0.0000 0.5000
O3_2 O 0.42101(10) 0.05709(14) 0.39984(5)
O5_2 O 0.42587(10) 0.26457(15) 0.47387(5)
O6_2 O 0.73543(15) 0.16130(18) 0.02613(5)
C6_2 C 0.40390(13) 0.18654(19) 0.40498(7)
C7_2 C 0.35648(14) 0.24024(20) 0.32587(7)
C8_2 C 0.27504(14) 0.33621(20) 0.32594(7)
H4_2 H 0.2477 0.3693 0.3774
Cu1_4 Cu 0.5000 -0.0000 1.0000
Cu1_5 Cu 0.5000 1.0000 0.0000
Cu2_3 Cu 0.5000 1.0000 0.5000
Cu1_6 Cu 0.5000 1.0000 1.0000
O4_2 O 0.57899(10) 0.94291(14) 0.89984(5)
O7_2 O 0.26457(15) 0.83870(18) 0.97387(5)
O4_3 O 0.05709(14) 0.63608(10) 0.89984(5)
O7_3 O 0.16130(18) 0.42587(10) 0.97387(5)
O1_3 O 0.94291(14) 0.36392(10) 0.10016(5)
C1_3 C 0.81346(19) 0.21736(14) 0.09502(7)
C2_3 C 0.75976(20) 0.11624(14) 0.17413(7)
C5_3 C 0.8086(3) 0.2037(2) 0.2500
H3_3 H 0.8758 0.3239 0.2500
O3_3 O 0.94291(14) 0.36392(10) 0.39984(5)
O5_3 O 0.73543(15) 0.16130(11) 0.47387(5)
C6_3 C 0.81346(19) 0.21736(14) 0.40498(7)
C7_3 C 0.75976(20) 0.11624(14) 0.32587(7)
C3_3 C 0.66379(20) 0.93883(14) 0.17406(7)
H1_3 H 0.6307 0.8784 0.1226
C4_3 C 0.6172(3) 0.8516(2) 0.2500
H2_3 H 0.5529 0.7313 0.2500
C8_3 C 0.66379(20) 0.93883(14) 0.32594(7)
H4_3 H 0.6307 0.8784 0.3774
O1_4 O 0.57899(10) 0.94291(14) 0.60016(5)
O2_2 O 0.57413(10) 0.73543(15) 0.52613(5)
C1_4 C 0.59610(13) 0.81346(19) 0.59502(7)
C2_4 C 0.64352(14) 0.75976(20) 0.67413(7)
C3_4 C 0.72496(14) 0.66379(20) 0.67406(7)
H1_4 H 0.7523 0.6307 0.6226
C4_4 C 0.7656(2) 0.6172(3) 0.7500
H2_4 H 0.8216 0.5529 0.7500
C5_4 C 0.6049(2) 0.8086(3) 0.7500
H3_4 H 0.5519 0.8758 0.7500
O6_3 O 0.26457(15) 0.83870(18) 0.52613(5)
C6_4 C 0.59610(13) 0.81346(19) 0.90498(7)
C7_4 C 0.64352(14) 0.75976(20) 0.82587(7)
C8_4 C 0.72496(14) 0.66379(20) 0.82594(7)
H4_4 H 0.7523 0.6307 0.8774
C3_5 C 0.33621(20) 0.06117(14) 0.67406(7)
H1_5 H 0.3693 0.1216 0.6226
C4_5 C 0.3828(3) 0.1484(2) 0.7500
H2_5 H 0.4471 0.2687 0.7500
C8_5 C 0.33621(20) 0.06117(14) 0.82594(7)
H4_5 H 0.3693 0.1216 0.8774
O1_5 O 0.05709(14) 0.63608(10) 0.60016(5)
C1_5 C 0.18654(19) 0.78264(14) 0.59502(7)
C2_5 C 0.24024(20) 0.88376(14) 0.67413(7)
C5_5 C 0.1914(3) 0.7963(2) 0.7500
H3_5 H 0.1242 0.6761 0.7500
O6_4 O 0.16130(18) 0.42587(10) 0.52613(5)
C6_5 C 0.18654(19) 0.78264(14) 0.90498(7)
C7_5 C 0.24024(20) 0.88376(14) 0.82587(7)
O1_6 O 0.36392(10) 0.42101(10) 0.60016(5)
C1_6 C 0.21736(14) 0.40390(13) 0.59502(7)
C2_6 C 0.11624(14) 0.35648(14) 0.67413(7)
C5_6 C 0.2037(2) 0.3951(2) 0.7500
H3_6 H 0.3239 0.4481 0.7500
C6_6 C 0.21736(14) 0.40390(13) 0.90498(7)
C7_6 C 0.11624(14) 0.35648(14) 0.82587(7)
C3_6 C 0.93883(14) 0.27504(14) 0.67406(7)
H1_6 H 0.8784 0.2477 0.6226
C4_6 C 0.8516(2) 0.2344(2) 0.7500
H2_6 H 0.7313 0.1784 0.7500
C8_6 C 0.93883(14) 0.27504(14) 0.82594(7)
H4_6 H 0.8784 0.2477 0.8774
loop_
_geom_bond_atom_site_label_1
_geom_bond_atom_site_label_2
_geom_bond_site_symmetry_1
_geom_bond_site_symmetry_2
C3 H1 1_555 1_555
C4 C3 1_555 1_555
H2 C4 1_555 1_555
C8 C4 1_555 1_555
H4 C8 1_555 1_555
Cu1 O1 1_555 1_555
O1 C1 1_555 1_555
O2 C1 1_555 1_555
C1 C2 1_555 1_555
C5 C2 1_555 1_555
H3 C5 1_555 1_555
Cu2 O3 1_555 1_555
Cu3_3 O2 1_555 1_555
Cu4_2 O5 1_555 1_555
O3 C6 1_555 1_555
O5 C6 1_555 1_555
O6 Cu1 1_555 1_555
C6 C7 1_555 1_555
C7 C5 1_555 1_555
O4 Cu1_2 1_555 1_555
O7 Cu1_2 1_555 1_555
Cu1_3 O1_2 1_555 1_555
O1_2 C1_2 1_555 1_555
O6 C1_2 1_555 1_555
C1_2 C2_2 1_555 1_555
C2_2 C3_2 1_555 1_555
C3_2 H1_2 1_555 1_555
C4_2 C3_2 1_555 1_555
H2_2 C4_2 1_555 1_555
C5_2 C2_2 1_555 1_555
H3_2 C5_2 1_555 1_555
Cu2_2 O3_2 1_555 1_555
Cu2 O5_2 1_555 1_555
O3_2 C6_2 1_555 1_555
O5_2 C6_2 1_555 1_555
O6_2 Cu1_3 1_555 1_555
C6_2 C7_2 1_555 1_555
C7_2 C5_2 1_555 1_555
C8_2 C4_2 1_555 1_555
H4_2 C8_2 1_555 1_555
C7_2 C8_2 1_555 1_555
O4_2 Cu1_6 1_555 1_555
O7_2 Cu1_6 1_555 1_555
O4_3 Cu3_2 1_555 1_555
O7_3 Cu3_2 1_555 1_555
Cu3_3 O1_3 1_555 1_555
O1_3 C1_3 1_555 1_555
O6_2 C1_3 1_555 1_555
C1_3 C2_3 1_555 1_555
C5_3 C2_3 1_555 1_555
H3_3 C5_3 1_555 1_555
Cu4_2 O3_3 1_555 1_555
Cu2_2 O5_3 1_555 1_555
O3_3 C6_3 1_555 1_555
O5_3 C6_3 1_555 1_555
C6_3 C7_3 1_555 1_555
C7_3 C5_3 1_555 1_555
C3_3 H1_3 1_555 1_555
C4_3 C3_3 1_555 1_555
H2_3 C4_3 1_555 1_555
C8_3 C4_3 1_555 1_555
H4_3 C8_3 1_555 1_555
Cu2_3 O1_4 1_555 1_555
O1_4 C1_4 1_555 1_555
O2_2 C1_4 1_555 1_555
C1_4 C2_4 1_555 1_555
C2_4 C3_4 1_555 1_555
C3_4 H1_4 1_555 1_555
C4_4 C3_4 1_555 1_555
H2_4 C4_4 1_555 1_555
C5_4 C2_4 1_555 1_555
H3_4 C5_4 1_555 1_555
Cu2 O2_2 1_555 1_555
O4_2 C6_4 1_555 1_555
O7 C6_4 1_555 1_555
O6_3 Cu2_3 1_555 1_555
C6_4 C7_4 1_555 1_555
C7_4 C5_4 1_555 1_555
C8_4 C4_4 1_555 1_555
H4_4 C8_4 1_555 1_555
C7_4 C8_4 1_555 1_555
C3_5 H1_5 1_555 1_555
C4_5 C3_5 1_555 1_555
H2_5 C4_5 1_555 1_555
C8_5 C4_5 1_555 1_555
H4_5 C8_5 1_555 1_555
Cu4 O1_5 1_555 1_555
O1_5 C1_5 1_555 1_555
O6_3 C1_5 1_555 1_555
C1_5 C2_5 1_555 1_555
C5_5 C2_5 1_555 1_555
H3_5 C5_5 1_555 1_555
O4_3 C6_5 1_555 1_555
O7_2 C6_5 1_555 1_555
O6_4 Cu4 1_555 1_555
C6_5 C7_5 1_555 1_555
C7_5 C5_5 1_555 1_555
Cu2 O1_6 1_555 1_555
O1_6 C1_6 1_555 1_555
O6_4 C1_6 1_555 1_555
C1_6 C2_6 1_555 1_555
C5_6 C2_6 1_555 1_555
H3_6 C5_6 1_555 1_555
O4 C6_6 1_555 1_555
O7_3 C6_6 1_555 1_555
C6_6 C7_6 1_555 1_555
C7_6 C5_6 1_555 1_555
C3_6 H1_6 1_555 1_555
C4_6 C3_6 1_555 1_555
H2_6 C4_6 1_555 1_555
C8_6 C4_6 1_555 1_555
H4_6 C8_6 1_555 1_555

#END
