
###############################################################################
#
# This file contains modified crystal structure data generated from the
# MOF subset of the Cambridge Structural Database (CSD) v543 
# hosted by the Cambridge Crystallographic Data Centre (CCDC).
#
# This work is licensed under the Creative Commons
# Attribution-NonCommercial-ShareAlike 4.0 International License.
# To view a copy of this license, visit
# http://creativecommons.org/licenses/by-nc-sa/4.0/
# or send a letter to
# Creative Commons, PO Box 1866, Mountain View, CA 94042, USA.
#
# CIF created using the CSD Python API on 29 September 2022
# The structure has been converted into the P1 space group
# The structure has a 3D framework
# The original CSD entry MOBXIN is in the triclinic crystal system
# The framework has been calculated to contain at least 10.0% void space
# The void calculation uses a probe of radius 1.32A, grid spacing 0.4
# The framework is charged, counterions have been retained in the structure
#
###############################################################################

data_MOBXIN
_chemical_formula_moiety         '(C64 H60 Br4 N6 O14)n'
_symmetry_cell_setting           triclinic
_symmetry_space_group_name_H-M   'P 1'
_symmetry_Int_Tables_number      1
_space_group_name_Hall           'P 1'
loop_
_symmetry_equiv_pos_site_id
_symmetry_equiv_pos_as_xyz
1 x,y,z
_cell_length_a                   8.7309(9)
_cell_length_b                   12.2707(11)
_cell_length_c                   19.3079(11)
_cell_angle_alpha                106.661(7)
_cell_angle_beta                 100.429(7)
_cell_angle_gamma                91.716(8)
_cell_volume                     1941.59
loop_
_atom_site_label
_atom_site_type_symbol
_atom_site_fract_x
_atom_site_fract_y
_atom_site_fract_z
Nd7 Nd 0.26695(2) 0.02493(2) 0.00112(2)
O2 O 0.3100(2) 0.91706(18) 0.87359(11)
O3 O 0.5492(2) 0.85142(18) 0.88819(11)
O5 O 0.1334(2) 0.19336(18) 0.05921(11)
N2 N 0.0283(3) 0.9055(2) 0.32336(13)
N3 N 0.4132(3) 0.7641(2) 0.61861(13)
C3 C 0.0936(3) 0.9717(2) 0.12580(16)
C4 C 0.2137(3) 0.8041(2) 0.46676(15)
C5 C 0.4270(3) 0.8724(2) 0.85122(16)
C6 C 0.2628(3) 0.7071(3) 0.48576(15)
C7 C 0.2244(4) 0.4996(3) 0.47986(17)
H4 H 0.281592 0.451404 0.445149
H5 H 0.131238 0.455283 0.482188
H6 H 0.291874 0.526496 0.528919
C8 C 0.4182(4) 0.8367(2) 0.76808(16)
C9 C 0.0697(4) 0.9445(2) 0.19475(15)
C11 C 0.1759(4) 0.6007(2) 0.45423(15)
C12 C 0.1219(4) 0.3358(3) 0.19973(17)
H7 H 0.222419 0.318975 0.189508
C13 C 0.0768(3) 0.7930(2) 0.41318(15)
C14 C 0.5559(4) 0.8257(3) 0.74169(16)
H8 H 0.653645 0.842825 0.775206
C16 C 0.3103(4) 0.9176(3) 0.50397(17)
H10 H 0.317094 0.937527 0.557411
H11 H 0.260636 0.977029 0.485448
H12 H 0.415646 0.911487 0.493080
C17 C 0.0441(3) 0.5904(2) 0.39782(15)
C18 C 0.1714(4) 0.9014(3) 0.30636(17)
H13 H 0.256458 0.884744 0.338933
C20 C 0.2772(3) 0.8144(2) 0.71748(16)
H15 H 0.181308 0.824940 0.734175
C21 C 0.1059(4) 0.3985(3) 0.26919(16)
H16 H 0.195893 0.423762 0.307406
C23 C 0.1956(4) 0.9208(3) 0.24289(16)
H18 H 0.297076 0.918333 0.231457
C26 C 0.4174(4) 0.7170(3) 0.53840(15)
H23 H 0.456436 0.640290 0.529923
H24 H 0.493674 0.766432 0.526229
C29 C 0.5513(3) 0.7898(3) 0.66658(16)
H25 H 0.646036 0.783288 0.648651
C30 C 0.0078(4) 0.8962(3) 0.39653(15)
H27 H 0.058276 0.965879 0.435488
C32 C 0.2774(3) 0.7767(2) 0.64268(16)
H30 H 0.181073 0.759716 0.608110
O7 O 0.2308(2) 0.98454(18) 0.11767(11)
Nd3 Nd 0.73305(2) 0.97507(2) 0.99888(2)
O9 O 0.6900(2) 0.08294(18) 0.12641(11)
O12 O 0.8705(2) 0.16669(17) 0.03010(11)
O13 O 0.7692(2) 0.01546(18) 0.88233(11)
O14 O 0.5263(2) 0.09158(17) 0.97168(11)
O1 O 0.9734(2) 0.98422(18) 0.08289(11)
O4 O 0.6744(2) 0.81617(18) 0.05634(12)
C1 C 0.4258(4) 0.7492(3) 0.0721(2)
H1 H 0.316613 0.761075 0.055057
H2 H 0.447054 0.764702 0.125742
H3 H 0.444687 0.669969 0.048683
N1 N 0.9638(3) 0.4242(2) 0.28352(13)
C2 C 0.9959(3) 0.6855(3) 0.37635(15)
C10 C 0.5315(4) 0.8284(3) 0.05164(16)
C15 C 0.9229(4) 0.9460(3) 0.21253(16)
H9 H 0.835157 0.959318 0.179876
C19 C 0.8338(4) 0.3949(2) 0.22912(16)
H14 H 0.735481 0.418123 0.239574
C22 C 0.8444(4) 0.3319(2) 0.15908(16)
H17 H 0.753818 0.312040 0.120902
C24 C 0.9051(4) 0.9280(3) 0.27792(16)
H19 H 0.805306 0.931420 0.291120
C25 C 0.8599(4) 0.6714(3) 0.31257(16)
H20 H 0.812084 0.743775 0.317806
H21 H 0.782165 0.612087 0.312569
H22 H 0.897541 0.649084 0.266060
C27 C 0.9879(4) 0.2973(2) 0.14432(16)
C28 C 0.9981(3) 0.2121(2) 0.07070(16)
H26 H 0.894904 0.891768 0.397555
C31 C 0.9489(4) 0.4764(2) 0.36148(15)
H28 H 0.982975 0.423097 0.390065
H29 H 0.837442 0.487047 0.363007
O8 O 0.4737(2) 0.90842(17) 0.02832(11)
O11 O 0.8666(2) 0.80664(18) 0.94079(11)
O10 O 0.4508(2) 0.14858(18) 0.11181(11)
O1_2 O 0.0266(2) 0.01578(18) 0.91711(11)
O4_2 O 0.3256(2) 0.18383(18) 0.94366(12)
O6 O 0.1295(2) 0.83331(17) 0.96990(11)
C1_2 C 0.5742(4) 0.2508(3) 0.9279(2)
H1_2 H 0.683387 0.238925 0.944943
H2_2 H 0.552946 0.235298 0.874258
H3_2 H 0.555313 0.330031 0.951317
N1_2 N 0.0362(3) 0.5758(2) 0.71648(13)
C2_2 C 0.0041(3) 0.3145(3) 0.62365(15)
C10_2 C 0.4685(4) 0.1716(3) 0.94836(16)
C15_2 C 0.0771(4) 0.0540(3) 0.78747(16)
H9_2 H 0.164843 0.040682 0.820124
C19_2 C 0.1662(4) 0.6051(2) 0.77088(16)
H14_2 H 0.264519 0.581877 0.760426
C22_2 C 0.1556(4) 0.6681(2) 0.84092(16)
H17_2 H 0.246182 0.687960 0.879098
C24_2 C 0.0949(4) 0.0720(3) 0.72208(16)
H19_2 H 0.194694 0.068580 0.708880
C25_2 C 0.1401(4) 0.3286(3) 0.68743(16)
H20_2 H 0.187916 0.256225 0.682194
H21_2 H 0.217835 0.387913 0.687431
H22_2 H 0.102459 0.350916 0.733940
C27_2 C 0.0121(4) 0.7027(2) 0.85568(16)
C28_2 C 0.0019(3) 0.7879(2) 0.92930(16)
H26_2 H 0.105096 0.108232 0.602445
C31_2 C 0.0511(4) 0.5236(2) 0.63852(15)
H28_2 H 0.017025 0.576903 0.609935
H29_2 H 0.162558 0.512953 0.636993
N2_2 N 0.9717(3) 0.0945(2) 0.67664(13)
N3_2 N 0.5868(3) 0.2359(2) 0.38139(13)
C3_2 C 0.9064(3) 0.0283(2) 0.87420(16)
C4_2 C 0.7863(3) 0.1959(2) 0.53324(15)
C5_2 C 0.5730(3) 0.1276(2) 0.14878(16)
C6_2 C 0.7372(3) 0.2929(3) 0.51424(15)
C7_2 C 0.7756(4) 0.5004(3) 0.52014(17)
H4_2 H 0.718408 0.548596 0.554851
H5_2 H 0.868762 0.544717 0.517812
H6_2 H 0.708126 0.473504 0.471081
C8_2 C 0.5818(4) 0.1633(2) 0.23192(16)
C9_2 C 0.9303(4) 0.0555(2) 0.80525(15)
C11_2 C 0.8241(4) 0.3993(2) 0.54577(15)
C12_2 C 0.8781(4) 0.6642(3) 0.80027(17)
H7_2 H 0.777581 0.681025 0.810492
C13_2 C 0.9232(3) 0.2070(2) 0.58682(15)
C14_2 C 0.4441(4) 0.1743(3) 0.25831(16)
H8_2 H 0.346355 0.157175 0.224794
C16_2 C 0.6897(4) 0.0824(3) 0.49603(17)
H10_2 H 0.682906 0.062473 0.442589
H11_2 H 0.739364 0.022971 0.514552
H12_2 H 0.584354 0.088513 0.506920
C17_2 C 0.9559(3) 0.4096(2) 0.60218(15)
C18_2 C 0.8286(4) 0.0986(3) 0.69364(17)
H13_2 H 0.743542 0.115256 0.661067
C20_2 C 0.7228(3) 0.1856(2) 0.28252(16)
H15_2 H 0.818692 0.175060 0.265825
C21_2 C 0.8941(4) 0.6015(3) 0.73081(16)
H16_2 H 0.804107 0.576238 0.692594
C23_2 C 0.8044(4) 0.0792(3) 0.75711(16)
H18_2 H 0.702924 0.081667 0.768543
C26_2 C 0.5826(4) 0.2830(3) 0.46160(15)
H23_2 H 0.543564 0.359710 0.470077
H24_2 H 0.506326 0.233568 0.473771
C29_2 C 0.4487(3) 0.2102(3) 0.33342(16)
H25_2 H 0.353964 0.216712 0.351349
C30_2 C 0.9922(4) 0.1038(3) 0.60347(15)
H27_2 H 0.941724 0.034121 0.564512
C32_2 C 0.7226(3) 0.2233(2) 0.35732(16)
H30_2 H 0.818927 0.240284 0.391890
Br1 Br 0.88940(4) 0.81099(3) 0.58975(2)
Br1_2 Br 0.11060(4) 0.18901(3) 0.41025(2)
Br2 Br 0.50769(4) 0.50270(3) 0.34585(2)
Br2_2 Br 0.49231(4) 0.49730(3) 0.65415(2)
loop_
_geom_bond_atom_site_label_1
_geom_bond_atom_site_label_2
_geom_bond_site_symmetry_1
_geom_bond_site_symmetry_2
O2 C5 1_555 1_555
O3 C5 1_555 1_555
N2 C18 1_555 1_555
N3 C26 1_555 1_555
C3 C9 1_555 1_555
C4 C6 1_555 1_555
C5 C8 1_555 1_555
C6 C11 1_555 1_555
C7 H4 1_555 1_555
H5 C7 1_555 1_555
H6 C7 1_555 1_555
C8 C14 1_555 1_555
C11 C7 1_555 1_555
C12 H7 1_555 1_555
C13 C4 1_555 1_555
C14 H8 1_555 1_555
C16 C4 1_555 1_555
H10 C16 1_555 1_555
H11 C16 1_555 1_555
H12 C16 1_555 1_555
C18 H13 1_555 1_555
C20 C8 1_555 1_555
H15 C20 1_555 1_555
H16 C21 1_555 1_555
C23 C9 1_555 1_555
H18 C23 1_555 1_555
C26 C6 1_555 1_555
H23 C26 1_555 1_555
H24 C26 1_555 1_555
C29 N3 1_555 1_555
H25 C29 1_555 1_555
C30 N2 1_555 1_555
H27 C30 1_555 1_555
C32 N3 1_555 1_555
H30 C32 1_555 1_555
O7 C3 1_555 1_555
Nd3 O3 1_555 1_555
Nd7 O5 1_555 1_555
C11 C17 1_555 1_555
C12 C21 1_555 1_555
C13 C30 1_555 1_555
C14 C29 1_555 1_555
C18 C23 1_555 1_555
C20 C32 1_555 1_555
O12 C28 1_555 1_555
C1 H1 1_555 1_555
H2 C1 1_555 1_555
H3 C1 1_555 1_555
N1 C19 1_555 1_555
C10 O4 1_555 1_555
C15 H9 1_555 1_555
C19 H14 1_555 1_555
C22 C19 1_555 1_555
H17 C22 1_555 1_555
H19 C24 1_555 1_555
C25 C2 1_555 1_555
H20 C25 1_555 1_555
H21 C25 1_555 1_555
H22 C25 1_555 1_555
C28 C27 1_555 1_555
C31 N1 1_555 1_555
H28 C31 1_555 1_555
H29 C31 1_555 1_555
C1 C10 1_555 1_555
C10 O8 1_555 1_555
C15 C24 1_555 1_555
C22 C27 1_555 1_555
O11 Nd3 1_555 1_555
O10 Nd7 1_555 1_555
O6 C28_2 1_555 1_555
C1_2 H1_2 1_555 1_555
H2_2 C1_2 1_555 1_555
H3_2 C1_2 1_555 1_555
N1_2 C19_2 1_555 1_555
C10_2 O4_2 1_555 1_555
C15_2 H9_2 1_555 1_555
C19_2 H14_2 1_555 1_555
C22_2 C19_2 1_555 1_555
H17_2 C22_2 1_555 1_555
H19_2 C24_2 1_555 1_555
C25_2 C2_2 1_555 1_555
H20_2 C25_2 1_555 1_555
H21_2 C25_2 1_555 1_555
H22_2 C25_2 1_555 1_555
C28_2 C27_2 1_555 1_555
C31_2 N1_2 1_555 1_555
H28_2 C31_2 1_555 1_555
H29_2 C31_2 1_555 1_555
C1_2 C10_2 1_555 1_555
C10_2 O14 1_555 1_555
C15_2 C24_2 1_555 1_555
C22_2 C27_2 1_555 1_555
O9 C5_2 1_555 1_555
O10 C5_2 1_555 1_555
N2_2 C18_2 1_555 1_555
N3_2 C26_2 1_555 1_555
C3_2 C9_2 1_555 1_555
C4_2 C6_2 1_555 1_555
C5_2 C8_2 1_555 1_555
C6_2 C11_2 1_555 1_555
C7_2 H4_2 1_555 1_555
H5_2 C7_2 1_555 1_555
H6_2 C7_2 1_555 1_555
C8_2 C14_2 1_555 1_555
C11_2 C7_2 1_555 1_555
C12_2 H7_2 1_555 1_555
C13_2 C4_2 1_555 1_555
C14_2 H8_2 1_555 1_555
C16_2 C4_2 1_555 1_555
H10_2 C16_2 1_555 1_555
H11_2 C16_2 1_555 1_555
H12_2 C16_2 1_555 1_555
C18_2 H13_2 1_555 1_555
C20_2 C8_2 1_555 1_555
H15_2 C20_2 1_555 1_555
H16_2 C21_2 1_555 1_555
C23_2 C9_2 1_555 1_555
H18_2 C23_2 1_555 1_555
C26_2 C6_2 1_555 1_555
H23_2 C26_2 1_555 1_555
H24_2 C26_2 1_555 1_555
C29_2 N3_2 1_555 1_555
H25_2 C29_2 1_555 1_555
C30_2 N2_2 1_555 1_555
H27_2 C30_2 1_555 1_555
C32_2 N3_2 1_555 1_555
H30_2 C32_2 1_555 1_555
O13 C3_2 1_555 1_555
C11_2 C17_2 1_555 1_555
C12_2 C21_2 1_555 1_555
C13_2 C30_2 1_555 1_555
C14_2 C29_2 1_555 1_555
C18_2 C23_2 1_555 1_555
C20_2 C32_2 1_555 1_555

#END
