
###############################################################################
#
# This file contains modified crystal structure data generated from the
# MOF subset of the Cambridge Structural Database (CSD) v543 
# hosted by the Cambridge Crystallographic Data Centre (CCDC).
#
# This work is licensed under the Creative Commons
# Attribution-NonCommercial-ShareAlike 4.0 International License.
# To view a copy of this license, visit
# http://creativecommons.org/licenses/by-nc-sa/4.0/
# or send a letter to
# Creative Commons, PO Box 1866, Mountain View, CA 94042, USA.
#
# CIF created using the CSD Python API on 29 September 2022
# The structure has been converted into the P1 space group
# The structure has a 3D framework
# The original CSD entry MOCKUN is in the triclinic crystal system
# The framework has been calculated to contain at least 10.0% void space
# The void calculation uses a probe of radius 1.32A, grid spacing 0.4
#
###############################################################################

data_MOCKUN
_chemical_formula_moiety         '(C62 H62 Br4 F6 N6 O20 S2 Tb2)n'
_symmetry_cell_setting           triclinic
_symmetry_space_group_name_H-M   'P 1'
_symmetry_Int_Tables_number      1
_space_group_name_Hall           'P 1'
loop_
_symmetry_equiv_pos_site_id
_symmetry_equiv_pos_as_xyz
1 x,y,z
_cell_length_a                   9.5114(4)
_cell_length_b                   14.2612(6)
_cell_length_c                   18.8972(6)
_cell_angle_alpha                108.079(4)
_cell_angle_beta                 103.298(3)
_cell_angle_gamma                99.250(4)
_cell_volume                     2295.55
loop_
_atom_site_label
_atom_site_type_symbol
_atom_site_fract_x
_atom_site_fract_y
_atom_site_fract_z
Br1 Br 0.73788(14) 0.91405(11) 0.81406(7)
Br1_2 Br 0.26212(14) 0.08595(11) 0.18594(7)
Br2 Br 0.78086(17) 0.41619(15) 0.79152(10)
Br2_2 Br 0.21914(17) 0.58381(15) 0.20848(10)
S1 S 0.6976(2) 0.73611(17) 0.09799(12)
O1 O 0.8079(8) 0.6896(6) 0.0760(5)
O2 O 0.5514(8) 0.6760(5) 0.0691(4)
F1 F 0.8328(8) 0.9023(6) 0.0823(5)
O3 O 0.7454(10) 0.8016(8) 0.1811(5)
F2 F 0.5955(8) 0.8857(5) 0.0711(5)
C1 C 0.7001(11) 0.8415(10) 0.0641(10)
F3 F 0.6666(10) 0.7982(7) 0.9791(4)
F3_2 F 0.3334(10) 0.2018(7) 0.0209(4)
S1_2 S 0.3024(2) 0.26389(17) 0.90201(12)
O1_2 O 0.1921(8) 0.3104(6) 0.9240(5)
O2_2 O 0.4486(8) 0.3240(5) 0.9309(4)
F1_2 F 0.1672(8) 0.0977(6) 0.9177(5)
O3_2 O 0.2546(10) 0.1984(8) 0.8189(5)
F2_2 F 0.4045(8) 0.1143(5) 0.9289(5)
C1_2 C 0.2999(11) 0.1585(10) 0.9359(10)
Tb1 Tb 0.23112(4) 0.01383(3) 0.49505(2)
O11 O 0.3959(7) 0.1636(4) 0.4913(3)
H28 H 0.451605 0.202684 0.538321
H29 H 0.343652 0.199378 0.471466
O12 O 0.1588(6) 0.1577(4) 0.5601(3)
O15 O 0.1063(6) 0.0588(4) 0.3894(3)
O16 O 0.4276(5) 0.0846(4) 0.6142(3)
O4 O 0.3715(5) 0.9593(4) 0.4122(3)
C4 C 0.4382(8) 0.9201(5) 0.3670(4)
C7 C 0.4232(9) 0.8367(6) 0.2255(4)
H2 H 0.526265 0.838561 0.241295
C12 C 0.3440(9) 0.7961(7) 0.1483(4)
H5 H 0.392065 0.769044 0.110589
C13 C 0.2037(9) 0.8720(7) 0.2557(4)
H6 H 0.153132 0.897756 0.292495
C20 C 0.3535(8) 0.8751(5) 0.2807(4)
H12 H 0.121054 0.571209 0.019180
H13 H 0.283508 0.550838 0.026702
C25 C 0.1281(9) 0.8313(7) 0.1770(4)
H16 H 0.025478 0.829799 0.159621
H25 H 0.246643 0.936408 0.045090
O9 O 0.5724(5) 0.9154(4) 0.3858(3)
O10 O 0.3142(7) 0.8733(5) 0.5201(4)
H26 H 0.239014 0.827549 0.517735
H27 H 0.377904 0.894249 0.566266
N3 N 0.1981(7) 0.7939(5) 0.1251(3)
C31 C 0.1058(9) 0.7465(7) 0.0411(4)
H30 H 0.041740 0.791427 0.029614
H31 H 0.039426 0.680661 0.033014
Tb6 Tb 0.76888(4) 0.98617(3) 0.50495(2)
O13 O 0.0516(5) 0.8609(4) 0.4046(3)
O14 O 0.0987(6) 0.9713(4) 0.5747(3)
C2 C 0.0304(8) 0.9462(6) 0.6183(4)
C3 C 0.0744(8) 0.3300(6) 0.7202(4)
C5 C 0.1954(9) 0.7279(6) 0.9836(4)
N1 N 0.2984(7) 0.4440(5) 0.8089(4)
C6 C 0.3140(9) 0.6194(5) 0.9031(4)
C8 C 0.2336(9) 0.6352(6) 0.9578(4)
C9 C 0.1183(9) 0.9218(6) 0.6843(4)
N2 N 0.2829(8) 0.8847(5) 0.8067(4)
C10 C 0.3814(9) 0.5294(6) 0.8848(4)
H3 H 0.484585 0.553438 0.884255
H4 H 0.387486 0.502283 0.927413
C11 C 0.0790(8) 0.1818(5) 0.6043(4)
C14 C 0.2716(9) 0.9358(8) 0.6997(5)
H7 H 0.320419 0.958363 0.667194
C15 C 0.1551(8) 0.2777(6) 0.6771(4)
C16 C 0.3489(8) 0.6947(6) 0.8717(4)
C17 C 0.3150(9) 0.7885(6) 0.9004(4)
C18 C 0.1368(10) 0.8671(8) 0.7920(5)
H8 H 0.090423 0.841709 0.824177
C19 C 0.1486(9) 0.4138(6) 0.7858(4)
H9 H 0.093780 0.450931 0.815305
C21 C 0.3097(9) 0.3120(6) 0.7015(5)
H10 H 0.366712 0.278175 0.671580
C22 C 0.0507(9) 0.8850(8) 0.7308(5)
C23 C 0.1934(12) 0.5542(7) 0.9909(6)
H14 H 0.149624 0.487991 0.948297
C24 C 0.3793(9) 0.3941(7) 0.7683(5)
H15 H 0.485200 0.416052 0.786135
C26 C 0.3522(10) 0.9175(7) 0.7613(5)
H17 H 0.457331 0.927877 0.772027
C27 C 0.2390(10) 0.8071(7) 0.9570(4)
C28 C 0.4249(10) 0.6744(7) 0.8085(5)
H18 H 0.532729 0.688408 0.832281
H19 H 0.404938 0.718749 0.778809
H20 H 0.386283 0.602997 0.773480
C29 C 0.3813(10) 0.8732(7) 0.8771(5)
H21 H 0.475497 0.861656 0.866384
H22 H 0.406977 0.938222 0.921858
C30 C 0.2034(14) 0.9075(8) 0.9882(6)
H23 H 0.094880 0.897754 0.974750
H24 H 0.245358 0.954149 0.965398
H1 H 0.968626 0.308007 0.704498
H11 H 0.945497 0.872179 0.720591
O6 O 0.9484(5) 0.1391(4) 0.5954(3)
O8 O 0.8937(6) 0.9412(4) 0.6106(3)
H1_2 H 0.031374 0.691993 0.295502
H11_2 H 0.054503 0.127821 0.279409
C2_2 C 0.9696(8) 0.0538(6) 0.3817(4)
C3_2 C 0.9256(8) 0.6700(6) 0.2798(4)
C5_2 C 0.8046(9) 0.2721(6) 0.0164(4)
N1_2 N 0.7016(7) 0.5560(5) 0.1911(4)
C6_2 C 0.6860(9) 0.3806(5) 0.0969(4)
C8_2 C 0.7664(9) 0.3648(6) 0.0422(4)
C9_2 C 0.8817(9) 0.0782(6) 0.3157(4)
N2_2 N 0.7171(8) 0.1153(5) 0.1933(4)
C10_2 C 0.6186(9) 0.4706(6) 0.1152(4)
H3_2 H 0.515415 0.446562 0.115745
H4_2 H 0.612514 0.497717 0.072587
C11_2 C 0.9210(8) 0.8182(5) 0.3957(4)
C14_2 C 0.7284(9) 0.0642(8) 0.3003(5)
H7_2 H 0.679581 0.041637 0.332806
C15_2 C 0.8449(8) 0.7223(6) 0.3229(4)
C16_2 C 0.6511(8) 0.3053(6) 0.1283(4)
C17_2 C 0.6850(9) 0.2115(6) 0.0996(4)
C18_2 C 0.8632(10) 0.1329(8) 0.2080(5)
H8_2 H 0.909577 0.158291 0.175823
C19_2 C 0.8514(9) 0.5862(6) 0.2142(4)
H9_2 H 0.906220 0.549069 0.184695
C21_2 C 0.6903(9) 0.6880(6) 0.2985(5)
H10_2 H 0.633288 0.721825 0.328420
C22_2 C 0.9493(9) 0.1150(8) 0.2692(5)
C23_2 C 0.8066(12) 0.4458(7) 0.0091(6)
H14_2 H 0.850376 0.512009 0.051703
C24_2 C 0.6207(9) 0.6059(7) 0.2317(5)
H15_2 H 0.514800 0.583948 0.213865
C26_2 C 0.6478(10) 0.0825(7) 0.2387(5)
H17_2 H 0.542669 0.072123 0.227973
C27_2 C 0.7610(10) 0.1929(7) 0.0430(4)
C28_2 C 0.5751(10) 0.3256(7) 0.1915(5)
H18_2 H 0.467271 0.311592 0.167719
H19_2 H 0.595062 0.281251 0.221191
H20_2 H 0.613717 0.397003 0.226520
C29_2 C 0.6187(10) 0.1268(7) 0.1229(5)
H21_2 H 0.524503 0.138344 0.133616
H22_2 H 0.593023 0.061778 0.078142
C30_2 C 0.7966(14) 0.0925(8) 0.0118(6)
H23_2 H 0.905120 0.102246 0.025250
H24_2 H 0.754642 0.045851 0.034602
O5 O 0.8412(6) 0.8423(4) 0.4399(3)
O7 O 0.9013(6) 0.0287(4) 0.4253(3)
O4_2 O 0.6285(5) 0.0407(4) 0.5878(3)
C4_2 C 0.5618(8) 0.0799(5) 0.6330(4)
C7_2 C 0.5768(9) 0.1633(6) 0.7745(4)
H2_2 H 0.473735 0.161439 0.758705
C12_2 C 0.6560(9) 0.2039(7) 0.8517(4)
H5_2 H 0.607935 0.230956 0.889411
C13_2 C 0.7963(9) 0.1280(7) 0.7443(4)
H6_2 H 0.846868 0.102244 0.707505
C20_2 C 0.6465(8) 0.1249(5) 0.7193(4)
H12_2 H 0.878946 0.428791 0.980820
H13_2 H 0.716492 0.449162 0.973298
C25_2 C 0.8719(9) 0.1687(7) 0.8230(4)
H16_2 H 0.974522 0.170201 0.840379
H25_2 H 0.753357 0.063592 0.954910
O10_2 O 0.6858(7) 0.1267(5) 0.4799(4)
H26_2 H 0.760986 0.172451 0.482265
H27_2 H 0.622096 0.105751 0.433734
N3_2 N 0.8019(7) 0.2061(5) 0.8749(3)
C31_2 C 0.8942(9) 0.2535(7) 0.9589(4)
H30_2 H 0.958260 0.208573 0.970386
H31_2 H 0.960574 0.319339 0.966986
O11_2 O 0.6041(7) 0.8364(4) 0.5087(3)
H28_2 H 0.548395 0.797316 0.461679
H29_2 H 0.656348 0.800622 0.528534
loop_
_geom_bond_atom_site_label_1
_geom_bond_atom_site_label_2
_geom_bond_site_symmetry_1
_geom_bond_site_symmetry_2
S1 O1 1_555 1_555
O2 S1 1_555 1_555
F1 C1 1_555 1_555
O3 S1 1_555 1_555
F2 C1 1_555 1_555
C1 S1 1_555 1_555
S1_2 O1_2 1_555 1_555
O2_2 S1_2 1_555 1_555
F1_2 C1_2 1_555 1_555
O3_2 S1_2 1_555 1_555
F2_2 C1_2 1_555 1_555
C1_2 S1_2 1_555 1_555
O11 Tb1 1_555 1_555
H28 O11 1_555 1_555
H29 O11 1_555 1_555
O12 Tb1 1_555 1_555
O15 Tb1 1_555 1_555
O16 Tb1 1_555 1_555
O4 C4 1_555 1_555
C4 C20 1_555 1_555
C7 H2 1_555 1_555
C12 C7 1_555 1_555
H5 C12 1_555 1_555
C13 H6 1_555 1_555
C20 C7 1_555 1_555
C25 C13 1_555 1_555
H16 C25 1_555 1_555
O9 C4 1_555 1_555
H26 O10 1_555 1_555
H27 O10 1_555 1_555
N3 C12 1_555 1_555
H30 C31 1_555 1_555
H31 C31 1_555 1_555
Tb6 O9 1_555 1_555
C13 C20 1_555 1_555
C25 N3 1_555 1_555
N3 C31 1_555 1_555
C2 C9 1_555 1_555
C5 C8 1_555 1_555
N1 C10 1_555 1_555
C6 C8 1_555 1_555
C8 C23 1_555 1_555
C9 C14 1_555 1_555
N2 C18 1_555 1_555
C10 C6 1_555 1_555
H3 C10 1_555 1_555
H4 C10 1_555 1_555
C11 C15 1_555 1_555
C14 H7 1_555 1_555
C15 C3 1_555 1_555
C16 C6 1_555 1_555
C17 C16 1_555 1_555
C18 H8 1_555 1_555
C19 C3 1_555 1_555
H9 C19 1_555 1_555
C21 C15 1_555 1_555
H10 C21 1_555 1_555
C22 C9 1_555 1_555
H14 C23 1_555 1_555
C24 N1 1_555 1_555
H15 C24 1_555 1_555
C26 N2 1_555 1_555
H17 C26 1_555 1_555
C27 C5 1_555 1_555
C28 C16 1_555 1_555
H18 C28 1_555 1_555
H19 C28 1_555 1_555
H20 C28 1_555 1_555
C29 N2 1_555 1_555
H21 C29 1_555 1_555
H22 C29 1_555 1_555
C30 C27 1_555 1_555
H23 C30 1_555 1_555
H24 C30 1_555 1_555
O12 C11 1_555 1_555
O14 C2 1_555 1_555
N1 C19 1_555 1_555
C14 C26 1_555 1_555
C17 C27 1_555 1_555
C17 C29 1_555 1_555
C18 C22 1_555 1_555
C21 C24 1_555 1_555
Tb6 O8 1_555 1_555
C2_2 C9_2 1_555 1_555
C5_2 C8_2 1_555 1_555
N1_2 C10_2 1_555 1_555
C6_2 C8_2 1_555 1_555
C8_2 C23_2 1_555 1_555
C9_2 C14_2 1_555 1_555
N2_2 C18_2 1_555 1_555
C10_2 C6_2 1_555 1_555
H3_2 C10_2 1_555 1_555
H4_2 C10_2 1_555 1_555
C11_2 C15_2 1_555 1_555
C14_2 H7_2 1_555 1_555
C15_2 C3_2 1_555 1_555
C16_2 C6_2 1_555 1_555
C17_2 C16_2 1_555 1_555
C18_2 H8_2 1_555 1_555
C19_2 C3_2 1_555 1_555
H9_2 C19_2 1_555 1_555
C21_2 C15_2 1_555 1_555
H10_2 C21_2 1_555 1_555
C22_2 C9_2 1_555 1_555
H14_2 C23_2 1_555 1_555
C24_2 N1_2 1_555 1_555
H15_2 C24_2 1_555 1_555
C26_2 N2_2 1_555 1_555
H17_2 C26_2 1_555 1_555
C27_2 C5_2 1_555 1_555
C28_2 C16_2 1_555 1_555
H18_2 C28_2 1_555 1_555
H19_2 C28_2 1_555 1_555
H20_2 C28_2 1_555 1_555
C29_2 N2_2 1_555 1_555
H21_2 C29_2 1_555 1_555
H22_2 C29_2 1_555 1_555
C30_2 C27_2 1_555 1_555
H23_2 C30_2 1_555 1_555
H24_2 C30_2 1_555 1_555
O5 C11_2 1_555 1_555
O7 C2_2 1_555 1_555
Tb6 O5 1_555 1_555
N1_2 C19_2 1_555 1_555
C14_2 C26_2 1_555 1_555
C17_2 C27_2 1_555 1_555
C17_2 C29_2 1_555 1_555
C18_2 C22_2 1_555 1_555
C21_2 C24_2 1_555 1_555
O4_2 C4_2 1_555 1_555
C4_2 C20_2 1_555 1_555
C7_2 H2_2 1_555 1_555
C12_2 C7_2 1_555 1_555
H5_2 C12_2 1_555 1_555
C13_2 H6_2 1_555 1_555
C20_2 C7_2 1_555 1_555
C25_2 C13_2 1_555 1_555
H16_2 C25_2 1_555 1_555
O16 C4_2 1_555 1_555
H26_2 O10_2 1_555 1_555
H27_2 O10_2 1_555 1_555
N3_2 C12_2 1_555 1_555
H30_2 C31_2 1_555 1_555
H31_2 C31_2 1_555 1_555
C13_2 C20_2 1_555 1_555
C25_2 N3_2 1_555 1_555
N3_2 C31_2 1_555 1_555
O11_2 Tb6 1_555 1_555
H28_2 O11_2 1_555 1_555
H29_2 O11_2 1_555 1_555

#END
