
###############################################################################
#
# This file contains modified crystal structure data generated from the
# MOF subset of the Cambridge Structural Database (CSD) v543 
# hosted by the Cambridge Crystallographic Data Centre (CCDC).
#
# This work is licensed under the Creative Commons
# Attribution-NonCommercial-ShareAlike 4.0 International License.
# To view a copy of this license, visit
# http://creativecommons.org/licenses/by-nc-sa/4.0/
# or send a letter to
# Creative Commons, PO Box 1866, Mountain View, CA 94042, USA.
#
# CIF created using the CSD Python API on 29 September 2022
# The structure has been converted into the P1 space group
# The structure has a 3D framework
# The original CSD entry MOCLEY is in the triclinic crystal system
# The framework has been calculated to contain at least 10.0% void space
# The void calculation uses a probe of radius 1.32A, grid spacing 0.4
#
###############################################################################

data_MOCLEY
_chemical_formula_moiety         '(C66 H62 F18 N6 O32 S6 Yb2)n'
_symmetry_cell_setting           triclinic
_symmetry_space_group_name_H-M   'P 1'
_symmetry_Int_Tables_number      1
_space_group_name_Hall           'P 1'
loop_
_symmetry_equiv_pos_site_id
_symmetry_equiv_pos_as_xyz
1 x,y,z
_cell_length_a                   10.0256(3)
_cell_length_b                   14.2571(4)
_cell_length_c                   18.5311(5)
_cell_angle_alpha                109.018(3)
_cell_angle_beta                 105.086(3)
_cell_angle_gamma                95.287(2)
_cell_volume                     2372.01
loop_
_atom_site_label
_atom_site_type_symbol
_atom_site_fract_x
_atom_site_fract_y
_atom_site_fract_z
S1 S 0.1907(2) 0.77100(16) 0.08999(14)
O1 O 0.0592(7) 0.7010(5) 0.0537(5)
O2 O 0.2032(12) 0.8507(7) 0.1634(6)
O3 O 0.3103(8) 0.7242(6) 0.0914(7)
F2 F 0.3216(10) 0.8990(7) 0.0466(5)
F3 F 0.0974(11) 0.8963(7) 0.0223(7)
C1 C 0.1983(14) 0.8360(10) 0.0223(7)
F1 F 0.1706(14) 0.7804(9) 0.9498(5)
F1_2 F 0.8294(14) 0.2196(9) 0.0502(5)
S1_2 S 0.8093(2) 0.22900(16) 0.91001(14)
O1_2 O 0.9408(7) 0.2990(5) 0.9463(5)
O2_2 O 0.7968(12) 0.1493(7) 0.8366(6)
O3_2 O 0.6897(8) 0.2758(6) 0.9086(7)
F2_2 F 0.6784(10) 0.1010(7) 0.9534(5)
F3_2 F 0.9026(11) 0.1037(7) 0.9777(7)
C1_2 C 0.8017(14) 0.1640(10) 0.9777(7)
O4 O 0.167(3) 0.4435(16) 0.8156(18)
F4 F 0.3310(18) 0.6536(10) 0.8786(9)
C2 C 0.324(2) 0.5900(18) 0.8075(15)
F5 F 0.4457(14) 0.6116(13) 0.7899(10)
S2 S 0.3006(14) 0.4641(10) 0.8024(8)
O5 O 0.425(2) 0.4653(16) 0.8626(12)
O6 O 0.2962(18) 0.4018(13) 0.7199(9)
F6 F 0.2224(15) 0.6036(11) 0.7506(10)
O4_2 O 0.833(3) 0.5565(16) 0.1844(18)
F4_2 F 0.6690(18) 0.3464(10) 0.1214(9)
C2_2 C 0.676(2) 0.4100(18) 0.1925(15)
F5_2 F 0.5543(14) 0.3884(13) 0.2101(10)
S2_2 S 0.6994(14) 0.5359(10) 0.1976(8)
O5_2 O 0.575(2) 0.5347(16) 0.1374(12)
O6_2 O 0.7038(18) 0.5982(13) 0.2801(9)
F6_2 F 0.7776(15) 0.3964(11) 0.2494(10)
S3 S 0.0919(4) 0.8312(3) 0.6953(2)
O7 O 0.0313(11) 0.9106(8) 0.6779(8)
O8 O 0.1738(12) 0.7952(9) 0.6403(7)
F7 F 0.2978(13) 0.8310(8) 0.8144(6)
F8 F 0.3206(11) 0.9636(9) 0.7882(7)
O9 O 0.0066(13) 0.7587(8) 0.7078(6)
F9 F 0.1754(15) 0.9355(11) 0.8484(7)
C3 C 0.2349(19) 0.8897(12) 0.7866(10)
S3_2 S 0.9081(4) 0.1688(3) 0.3047(2)
O7_2 O 0.9687(11) 0.0894(8) 0.3221(8)
O8_2 O 0.8262(12) 0.2048(9) 0.3597(7)
F7_2 F 0.7022(13) 0.1690(8) 0.1856(6)
F8_2 F 0.6794(11) 0.0364(9) 0.2118(7)
O9_2 O 0.9934(13) 0.2413(8) 0.2922(6)
F9_2 F 0.8246(15) 0.0645(11) 0.1516(7)
C3_2 C 0.7651(19) 0.1103(12) 0.2134(10)
H9 H 0.016231 0.854654 0.233259
O14 O 0.0642(6) 0.9257(4) 0.3824(3)
Yb3 Yb 0.24629(4) 0.99054(3) 0.50272(2)
Yb5 Yb 0.75371(4) 0.00946(3) 0.49728(2)
C5 C 0.7049(9) 0.8395(6) 0.2524(5)
H1 H 0.657060 0.856422 0.291567
C9 C 0.6289(10) 0.7931(8) 0.1744(5)
H3 H 0.529018 0.778019 0.159124
N3 N 0.6964(8) 0.7678(6) 0.1175(4)
C17 C 0.8358(9) 0.7908(7) 0.1394(5)
H8 H 0.881657 0.773933 0.099365
C18 C 0.9165(9) 0.8388(7) 0.2190(5)
H14 H 0.809698 0.537782 0.035847
H16 H 0.645570 0.541370 0.017353
C26 C 0.6054(10) 0.7152(8) 0.0306(5)
H17 H 0.549418 0.650751 0.024886
H18 H 0.538665 0.758236 0.016650
H27 H 0.692067 0.894088 0.019552
C32 C 0.8504(9) 0.8631(6) 0.2772(5)
C33 C 0.9324(8) 0.9127(6) 0.3655(5)
O15 O 0.8657(7) 0.9329(5) 0.4091(4)
O10 O 0.3906(7) 0.9380(5) 0.5917(4)
O11 O 0.4274(6) 0.1273(4) 0.5803(3)
O12 O 0.6263(6) 0.0793(4) 0.5792(4)
O13 O 0.3851(9) 0.7769(5) 0.5201(4)
N1 N 0.7897(8) 0.4037(5) 0.8018(4)
N2 N 0.7249(9) 0.8306(6) 0.7838(5)
C4 C 0.8351(10) 0.6494(7) 0.8587(5)
C6 C 0.6889(9) 0.6933(7) 0.9726(5)
C7 C 0.8104(8) 0.5814(6) 0.8957(5)
C8 C 0.6480(10) 0.3881(7) 0.7779(5)
H2 H 0.600915 0.433902 0.807168
C10 C 0.7395(9) 0.6021(6) 0.9521(5)
C11 C 0.5710(10) 0.3051(6) 0.7105(5)
H4 H 0.471291 0.295618 0.691695
C12 C 0.6393(9) 0.2371(6) 0.6713(5)
C13 C 0.7167(10) 0.7643(7) 0.9388(5)
C14 C 0.7314(11) 0.9180(7) 0.7717(6)
H5 H 0.804169 0.973956 0.807189
C15 C 0.6325(11) 0.9280(7) 0.7076(6)
H6 H 0.634070 0.991644 0.701434
C16 C 0.5278(12) 0.7565(8) 0.6680(7)
H7 H 0.455915 0.699567 0.633237
C19 C 0.7921(9) 0.7435(6) 0.8831(5)
C20 C 0.8743(9) 0.4881(6) 0.8786(5)
H10 H 0.970083 0.506184 0.875848
H11 H 0.883517 0.463718 0.923639
C21 C 0.6242(13) 0.7498(8) 0.7315(7)
H12 H 0.621283 0.687315 0.739635
C22 C 0.5566(9) 0.1398(6) 0.6039(5)
C23 C 0.8565(10) 0.3407(7) 0.7616(6)
H13 H 0.956504 0.354407 0.778284
C24 C 0.7218(11) 0.5287(8) 0.9936(6)
H15 H 0.698765 0.459355 0.954439
C25 C 0.4263(10) 0.8526(7) 0.5811(6)
C27 C 0.5331(10) 0.8458(7) 0.6534(6)
C28 C 0.8358(11) 0.8225(7) 0.8517(6)
H19 H 0.865087 0.889042 0.896253
H20 H 0.918911 0.807125 0.833916
C29 C 0.7840(10) 0.2557(7) 0.6961(6)
H21 H 0.833308 0.210396 0.668248
C30 C 0.9073(12) 0.6214(8) 0.7948(7)
H23 H 0.884094 0.661281 0.760599
H24 H 0.875174 0.549269 0.762007
C31 C 0.6676(13) 0.8632(8) 0.9610(8)
H25 H 0.565212 0.851388 0.937131
H26 H 0.713342 0.908635 0.940942
O16 O 0.2147(7) 0.1159(5) 0.4496(4)
H28 H 0.193045 0.169290 0.483363
H29 H 0.138506 0.094880 0.405804
O21 O 0.1343(7) 0.0671(5) 0.5909(4)
O17 O 0.1117(7) 0.8516(5) 0.5045(4)
H30 H 0.015245 0.845600 0.480620
H31 H 0.114457 0.856418 0.556329
O19 O 0.3737(6) 0.9207(4) 0.4208(4)
O17_2 O 0.8883(7) 0.1484(5) 0.4955(4)
H30_2 H 0.984755 0.154400 0.519380
H31_2 H 0.885543 0.143582 0.443671
O18 O 0.6094(7) 0.0620(5) 0.4083(4)
O20 O 0.9358(6) 0.0743(4) 0.6176(3)
O11_2 O 0.5726(6) 0.8727(4) 0.4197(3)
O13_2 O 0.6149(9) 0.2231(5) 0.4799(4)
N1_2 N 0.2103(8) 0.5963(5) 0.1982(4)
N2_2 N 0.2751(9) 0.1694(6) 0.2162(5)
C4_2 C 0.1649(10) 0.3506(7) 0.1413(5)
C6_2 C 0.3111(9) 0.3067(7) 0.0274(5)
C7_2 C 0.1896(8) 0.4186(6) 0.1043(5)
C8_2 C 0.3520(10) 0.6119(7) 0.2221(5)
H2_2 H 0.399085 0.566098 0.192832
C10_2 C 0.2605(9) 0.3979(6) 0.0479(5)
C11_2 C 0.4290(10) 0.6949(6) 0.2895(5)
H4_2 H 0.528709 0.704382 0.308305
C12_2 C 0.3607(9) 0.7629(6) 0.3287(5)
C13_2 C 0.2833(10) 0.2357(7) 0.0612(5)
C14_2 C 0.2686(11) 0.0820(7) 0.2283(6)
H5_2 H 0.195831 0.026044 0.192811
C15_2 C 0.3675(11) 0.0720(7) 0.2924(6)
H6_2 H 0.365930 0.008356 0.298566
C16_2 C 0.4722(12) 0.2435(8) 0.3320(7)
H7_2 H 0.544085 0.300433 0.366763
C19_2 C 0.2079(9) 0.2565(6) 0.1169(5)
C20_2 C 0.1257(9) 0.5119(6) 0.1214(5)
H10_2 H 0.029917 0.493816 0.124152
H11_2 H 0.116483 0.536282 0.076361
C21_2 C 0.3758(13) 0.2502(8) 0.2685(7)
H12_2 H 0.378717 0.312685 0.260365
C22_2 C 0.4434(9) 0.8602(6) 0.3961(5)
C23_2 C 0.1435(10) 0.6593(7) 0.2384(6)
H13_2 H 0.043496 0.645593 0.221716
C24_2 C 0.2782(11) 0.4713(8) 0.0064(6)
H15_2 H 0.301235 0.540645 0.045561
C25_2 C 0.5737(10) 0.1474(7) 0.4189(6)
C27_2 C 0.4669(10) 0.1542(7) 0.3466(6)
C28_2 C 0.1642(11) 0.1775(7) 0.1483(6)
H19_2 H 0.134913 0.110958 0.103747
H20_2 H 0.081089 0.192875 0.166084
C29_2 C 0.2160(10) 0.7443(7) 0.3039(6)
H21_2 H 0.166692 0.789604 0.331752
C30_2 C 0.0927(12) 0.3786(8) 0.2052(7)
H23_2 H 0.115906 0.338719 0.239401
H24_2 H 0.124826 0.450731 0.237993
C31_2 C 0.3324(13) 0.1368(8) 0.0390(8)
H25_2 H 0.434788 0.148612 0.062869
H26_2 H 0.286658 0.091365 0.059058
O16_2 O 0.7853(7) 0.8841(5) 0.5504(4)
H28_2 H 0.806955 0.830710 0.516637
H29_2 H 0.861494 0.905120 0.594196
C5_2 C 0.2951(9) 0.1605(6) 0.7476(5)
H1_2 H 0.342940 0.143578 0.708433
C9_2 C 0.3711(10) 0.2069(8) 0.8256(5)
H3_2 H 0.470982 0.221981 0.840876
N3_2 N 0.3036(8) 0.2322(6) 0.8825(4)
C17_2 C 0.1642(9) 0.2092(7) 0.8606(5)
H8_2 H 0.118343 0.226067 0.900635
C18_2 C 0.0835(9) 0.1612(7) 0.7810(5)
H14_2 H 0.190302 0.462218 0.964153
H16_2 H 0.354430 0.458630 0.982647
C26_2 C 0.3946(10) 0.2848(8) 0.9694(5)
H17_2 H 0.450582 0.349249 0.975114
H18_2 H 0.461335 0.241764 0.983350
H27_2 H 0.307933 0.105912 0.980448
C32_2 C 0.1496(9) 0.1369(6) 0.7228(5)
C33_2 C 0.0676(8) 0.0873(6) 0.6345(5)
H9_2 H 0.983769 0.145346 0.766741
H22 H 0.009412 0.635496 0.820203
H22_2 H 0.990588 0.364504 0.179797
loop_
_geom_bond_atom_site_label_1
_geom_bond_atom_site_label_2
_geom_bond_site_symmetry_1
_geom_bond_site_symmetry_2
S1 O1 1_555 1_555
O2 S1 1_555 1_555
O3 S1 1_555 1_555
F2 C1 1_555 1_555
F3 C1 1_555 1_555
C1 S1 1_555 1_555
S1_2 O1_2 1_555 1_555
O2_2 S1_2 1_555 1_555
O3_2 S1_2 1_555 1_555
F2_2 C1_2 1_555 1_555
F3_2 C1_2 1_555 1_555
C1_2 S1_2 1_555 1_555
O4 S2 1_555 1_555
F4 C2 1_555 1_555
C2 F5 1_555 1_555
S2 C2 1_555 1_555
O5 S2 1_555 1_555
O6 S2 1_555 1_555
F6 C2 1_555 1_555
O4_2 S2_2 1_555 1_555
F4_2 C2_2 1_555 1_555
C2_2 F5_2 1_555 1_555
S2_2 C2_2 1_555 1_555
O5_2 S2_2 1_555 1_555
O6_2 S2_2 1_555 1_555
F6_2 C2_2 1_555 1_555
S3 O7 1_555 1_555
O8 S3 1_555 1_555
F7 C3 1_555 1_555
F8 C3 1_555 1_555
O9 S3 1_555 1_555
F9 C3 1_555 1_555
C3 S3 1_555 1_555
S3_2 O7_2 1_555 1_555
O8_2 S3_2 1_555 1_555
F7_2 C3_2 1_555 1_555
F8_2 C3_2 1_555 1_555
O9_2 S3_2 1_555 1_555
F9_2 C3_2 1_555 1_555
C3_2 S3_2 1_555 1_555
Yb3 O14 1_555 1_555
C5 H1 1_555 1_555
C9 C5 1_555 1_555
H3 C9 1_555 1_555
N3 C9 1_555 1_555
C17 N3 1_555 1_555
H8 C17 1_555 1_555
C18 C17 1_555 1_555
H17 C26 1_555 1_555
H18 C26 1_555 1_555
C32 C5 1_555 1_555
C33 C32 1_555 1_555
O15 C33 1_555 1_555
N3 C26 1_555 1_555
C18 C32 1_555 1_555
O10 C25 1_555 1_555
O11 C22 1_555 1_555
O12 C22 1_555 1_555
O13 C25 1_555 1_555
N1 C8 1_555 1_555
N2 C14 1_555 1_555
C4 C7 1_555 1_555
C6 C10 1_555 1_555
C7 C10 1_555 1_555
C8 H2 1_555 1_555
C10 C24 1_555 1_555
C11 C8 1_555 1_555
H4 C11 1_555 1_555
C12 C11 1_555 1_555
C13 C6 1_555 1_555
C14 H5 1_555 1_555
C15 C14 1_555 1_555
H6 C15 1_555 1_555
C16 H7 1_555 1_555
C19 C4 1_555 1_555
C20 N1 1_555 1_555
H10 C20 1_555 1_555
H11 C20 1_555 1_555
C21 N2 1_555 1_555
H12 C21 1_555 1_555
C22 C12 1_555 1_555
C23 N1 1_555 1_555
H13 C23 1_555 1_555
H15 C24 1_555 1_555
C25 C27 1_555 1_555
C27 C15 1_555 1_555
C28 N2 1_555 1_555
H19 C28 1_555 1_555
H20 C28 1_555 1_555
C29 C12 1_555 1_555
H21 C29 1_555 1_555
C30 C4 1_555 1_555
H23 C30 1_555 1_555
H24 C30 1_555 1_555
C31 C13 1_555 1_555
H25 C31 1_555 1_555
H26 C31 1_555 1_555
H28 O16 1_555 1_555
H29 O16 1_555 1_555
Yb3 O10 1_555 1_555
Yb5 O12 1_555 1_555
C7 C20 1_555 1_555
C13 C19 1_555 1_555
C16 C21 1_555 1_555
C16 C27 1_555 1_555
C19 C28 1_555 1_555
C23 C29 1_555 1_555
O17 Yb3 1_555 1_555
H30 O17 1_555 1_555
H31 O17 1_555 1_555
O19 Yb3 1_555 1_555
O17_2 Yb5 1_555 1_555
H30_2 O17_2 1_555 1_555
H31_2 O17_2 1_555 1_555
O18 Yb5 1_555 1_555
O20 Yb5 1_555 1_555
O18 C25_2 1_555 1_555
O11_2 C22_2 1_555 1_555
O19 C22_2 1_555 1_555
O13_2 C25_2 1_555 1_555
N1_2 C8_2 1_555 1_555
N2_2 C14_2 1_555 1_555
C4_2 C7_2 1_555 1_555
C6_2 C10_2 1_555 1_555
C7_2 C10_2 1_555 1_555
C8_2 H2_2 1_555 1_555
C10_2 C24_2 1_555 1_555
C11_2 C8_2 1_555 1_555
H4_2 C11_2 1_555 1_555
C12_2 C11_2 1_555 1_555
C13_2 C6_2 1_555 1_555
C14_2 H5_2 1_555 1_555
C15_2 C14_2 1_555 1_555
H6_2 C15_2 1_555 1_555
C16_2 H7_2 1_555 1_555
C19_2 C4_2 1_555 1_555
C20_2 N1_2 1_555 1_555
H10_2 C20_2 1_555 1_555
H11_2 C20_2 1_555 1_555
C21_2 N2_2 1_555 1_555
H12_2 C21_2 1_555 1_555
C22_2 C12_2 1_555 1_555
C23_2 N1_2 1_555 1_555
H13_2 C23_2 1_555 1_555
H15_2 C24_2 1_555 1_555
C25_2 C27_2 1_555 1_555
C27_2 C15_2 1_555 1_555
C28_2 N2_2 1_555 1_555
H19_2 C28_2 1_555 1_555
H20_2 C28_2 1_555 1_555
C29_2 C12_2 1_555 1_555
H21_2 C29_2 1_555 1_555
C30_2 C4_2 1_555 1_555
H23_2 C30_2 1_555 1_555
H24_2 C30_2 1_555 1_555
C31_2 C13_2 1_555 1_555
H25_2 C31_2 1_555 1_555
H26_2 C31_2 1_555 1_555
H28_2 O16_2 1_555 1_555
H29_2 O16_2 1_555 1_555
C7_2 C20_2 1_555 1_555
C13_2 C19_2 1_555 1_555
C16_2 C21_2 1_555 1_555
C16_2 C27_2 1_555 1_555
C19_2 C28_2 1_555 1_555
C23_2 C29_2 1_555 1_555
C5_2 H1_2 1_555 1_555
C9_2 C5_2 1_555 1_555
H3_2 C9_2 1_555 1_555
N3_2 C9_2 1_555 1_555
C17_2 N3_2 1_555 1_555
H8_2 C17_2 1_555 1_555
C18_2 C17_2 1_555 1_555
H17_2 C26_2 1_555 1_555
H18_2 C26_2 1_555 1_555
C32_2 C5_2 1_555 1_555
C33_2 C32_2 1_555 1_555
O21 C33_2 1_555 1_555
N3_2 C26_2 1_555 1_555
C18_2 C32_2 1_555 1_555

#END
