
###############################################################################
#
# This file contains modified crystal structure data generated from the
# MOF subset of the Cambridge Structural Database (CSD) v543 
# hosted by the Cambridge Crystallographic Data Centre (CCDC).
#
# This work is licensed under the Creative Commons
# Attribution-NonCommercial-ShareAlike 4.0 International License.
# To view a copy of this license, visit
# http://creativecommons.org/licenses/by-nc-sa/4.0/
# or send a letter to
# Creative Commons, PO Box 1866, Mountain View, CA 94042, USA.
#
# CIF created using the CSD Python API on 29 September 2022
# The structure has been converted into the P1 space group
# The structure has a 3D framework
# The original CSD entry MOCLIC is in the triclinic crystal system
# The framework has been calculated to contain at least 10.0% void space
# The void calculation uses a probe of radius 1.32A, grid spacing 0.4
#
###############################################################################

data_MOCLIC
_chemical_formula_moiety         '(C60 H62 La2 N12 O34)n'
_symmetry_cell_setting           triclinic
_symmetry_space_group_name_H-M   'P 1'
_symmetry_Int_Tables_number      1
_space_group_name_Hall           'P 1'
loop_
_symmetry_equiv_pos_site_id
_symmetry_equiv_pos_as_xyz
1 x,y,z
_cell_length_a                   9.6393(4)
_cell_length_b                   12.2016(6)
_cell_length_c                   19.0185(7)
_cell_angle_alpha                105.771(4)
_cell_angle_beta                 99.826(3)
_cell_angle_gamma                99.967(4)
_cell_volume                     2063.48
loop_
_atom_site_label
_atom_site_type_symbol
_atom_site_fract_x
_atom_site_fract_y
_atom_site_fract_z
O1 O 0.2339(7) 0.7461(7) 0.4288(4)
O2 O 0.0204(7) 0.6648(7) 0.4311(4)
N1 N 0.1200(8) 0.6679(9) 0.4008(5)
O3 O 0.1113(7) 0.5927(7) 0.3415(4)
O1_2 O 0.7661(7) 0.2539(7) 0.5712(4)
O2_2 O 0.9796(7) 0.3352(7) 0.5689(4)
N1_2 N 0.8800(8) 0.3321(9) 0.5992(5)
O3_2 O 0.8887(7) 0.4073(7) 0.6585(4)
O4 O 0.6034(8) 0.8577(8) 0.2884(4)
O5 O 0.6486(8) 0.7918(8) 0.1798(4)
O6 O 0.5158(8) 0.9133(8) 0.1950(4)
N2 N 0.5912(10) 0.8565(10) 0.2236(6)
O4_2 O 0.3966(8) 0.1423(8) 0.7116(4)
O5_2 O 0.3514(8) 0.2082(8) 0.8202(4)
O6_2 O 0.4842(8) 0.0867(8) 0.8050(4)
N2_2 N 0.4088(10) 0.1435(10) 0.7764(6)
O7 O 0.4618(9) 0.3241(9) 0.2634(5)
O8 O 0.6140(9) 0.2916(9) 0.3491(5)
O9 O 0.4445(9) 0.3783(10) 0.3738(5)
N3 N 0.5033(12) 0.3326(12) 0.3324(7)
O7_2 O 0.5382(9) 0.6759(9) 0.7366(5)
O8_2 O 0.3860(9) 0.7084(9) 0.6509(5)
O9_2 O 0.5555(9) 0.6217(10) 0.6262(5)
N3_2 N 0.4967(12) 0.6674(12) 0.6676(7)
La3 La 0.23446(3) 0.51662(4) 0.00334(2)
O10 O 0.5439(5) 0.4811(5) 0.9121(2)
O11 O 0.3134(5) 0.4929(5) 0.8817(2)
O13 O 0.1360(5) 0.4062(6) 0.0847(3)
C1 C 0.4313(7) 0.4740(7) 0.8665(3)
N4 N 0.4323(5) 0.3593(5) 0.6338(3)
C3 C 0.2094(6) 0.3272(6) 0.4701(3)
C4 C 0.4383(7) 0.3193(7) 0.5518(3)
H1 H 0.480720 0.387877 0.537716
H2 H 0.502741 0.264116 0.545006
C5 C 0.0731(6) 0.2694(6) 0.4188(3)
C6 C 0.3106(6) 0.4241(6) 0.7294(3)
H3 H 0.225147 0.441306 0.743764
C8 C 0.2417(7) 0.1376(6) 0.4823(3)
C9 C 0.3347(9) 0.0706(8) 0.5174(4)
H5 H 0.355237 0.103224 0.572213
H6 H 0.425774 0.076820 0.500853
C10 C 0.1067(7) 0.0828(6) 0.4322(3)
C11 C 0.3129(6) 0.3843(6) 0.6547(3)
H7 H 0.228484 0.374541 0.617428
C12 C 0.4338(7) 0.4385(6) 0.7831(3)
C13 C 0.2913(6) 0.2602(6) 0.5000(3)
H8 H 0.015031 0.423691 0.419429
C16 C 0.5568(6) 0.3772(6) 0.6856(3)
H11 H 0.642025 0.362240 0.669927
C17 C 0.1264(7) 0.3480(6) 0.2179(4)
H12 H 0.216711 0.353046 0.203839
C19 C 0.0239(6) 0.1494(6) 0.4002(3)
C20 C 0.1160(7) 0.3389(6) 0.2880(4)
H14 H 0.199238 0.336937 0.322077
C22 C 0.2555(7) 0.4587(7) 0.4918(3)
H17 H 0.257632 0.482253 0.446621
H18 H 0.352222 0.485691 0.525337
H19 H 0.186642 0.493738 0.517697
C23 C 0.0035(8) 0.3498(7) 0.1684(4)
C24 C 0.5588(7) 0.4169(6) 0.7606(3)
H20 H 0.645519 0.429638 0.797020
C25 C 0.0118(8) 0.3709(8) 0.0943(4)
La6 La 0.76554(3) 0.48338(4) 0.99666(2)
O14 O 0.2348(5) 0.6728(5) 0.1214(2)
C2 C 0.1084(7) 0.6710(7) 0.1299(3)
N6 N 0.0598(6) 0.8846(5) 0.3367(3)
C7 C 0.0905(7) 0.7496(6) 0.2022(4)
H4 H 0.283613 0.988097 0.502063
C15 C 0.2080(7) 0.8237(7) 0.2544(4)
H10 H 0.301449 0.828243 0.244035
C21 C 0.0464(8) 0.9530(6) 0.4127(4)
H15 H 0.097903 0.923931 0.450970
C26 C 0.1924(7) 0.8920(7) 0.3220(4)
H21 H 0.274593 0.943920 0.357992
H29 H 0.342617 0.291399 0.000759
O17 O 0.4229(6) 0.7081(6) 0.0221(4)
H30 H 0.439605 0.761810 0.070339
O18 O 0.4561(5) 0.5189(5) 0.0879(2)
O16 O 0.2750(6) 0.3120(6) 0.9627(3)
H28 H 0.186018 0.247319 0.949066
H31 H 0.394803 0.748622 0.988490
O20 O 0.0031(5) 0.3972(5) 0.9175(3)
O22 O 0.1068(5) 0.6439(5) 0.9503(3)
N5 N 0.9887(6) 0.3330(5) 0.3075(3)
C14 C 0.9817(7) 0.3408(6) 0.3876(4)
H9 H 0.879951 0.313073 0.389386
C27 C 0.8786(7) 0.0892(7) 0.3453(4)
H22 H 0.813727 0.143066 0.349665
H23 H 0.835694 0.019219 0.356896
H24 H 0.892897 0.066559 0.293963
C28 C 0.8700(8) 0.3328(7) 0.2603(4)
H25 H 0.780927 0.327151 0.275606
C30 C 0.8726(8) 0.3404(8) 0.1898(4)
H27 H 0.786594 0.339297 0.156471
O15 O 0.8932(5) 0.3561(5) 0.0497(3)
O12 O 0.9969(5) 0.6028(5) 0.0825(3)
C18 C 0.9553(8) 0.7460(8) 0.2171(4)
H13 H 0.871763 0.696951 0.180795
H16 H 0.942976 0.939003 0.414424
C29 C 0.9425(8) 0.8140(7) 0.2850(4)
H26 H 0.849451 0.811151 0.295713
C18_2 C 0.0447(8) 0.2540(8) 0.7829(4)
H13_2 H 0.128237 0.303049 0.819205
H16_2 H 0.057024 0.060997 0.585576
C29_2 C 0.0575(8) 0.1860(7) 0.7150(4)
H26_2 H 0.150549 0.188849 0.704287
N5_2 N 0.0113(6) 0.6670(5) 0.6925(3)
C14_2 C 0.0183(7) 0.6592(6) 0.6124(4)
H9_2 H 0.120049 0.686927 0.610614
C27_2 C 0.1214(7) 0.9108(7) 0.6547(4)
H22_2 H 0.186273 0.856934 0.650335
H23_2 H 0.164306 0.980781 0.643104
H24_2 H 0.107103 0.933441 0.706037
C28_2 C 0.1300(8) 0.6672(7) 0.7397(4)
H25_2 H 0.219073 0.672849 0.724394
C30_2 C 0.1274(8) 0.6596(8) 0.8102(4)
H27_2 H 0.213406 0.660703 0.843529
O16_2 O 0.7250(6) 0.6880(6) 0.0373(3)
H28_2 H 0.813982 0.752681 0.050934
H31_2 H 0.605197 0.251378 0.011510
O19 O 0.6866(5) 0.5071(5) 0.1183(2)
O14_2 O 0.7652(5) 0.3272(5) 0.8786(2)
C2_2 C 0.8916(7) 0.3290(7) 0.8701(3)
N6_2 N 0.9402(6) 0.1154(5) 0.6633(3)
C7_2 C 0.9095(7) 0.2504(6) 0.7978(4)
H4_2 H 0.716387 0.011903 0.497937
C15_2 C 0.7920(7) 0.1763(7) 0.7456(4)
H10_2 H 0.698551 0.171757 0.755965
C21_2 C 0.9536(8) 0.0470(6) 0.5873(4)
H15_2 H 0.902097 0.076069 0.549030
C26_2 C 0.8076(7) 0.1080(7) 0.6780(4)
H21_2 H 0.725407 0.056080 0.642008
H29_2 H 0.657383 0.708601 0.999241
O17_2 O 0.5771(6) 0.2919(6) 0.9779(4)
H30_2 H 0.560395 0.238190 0.929661
O21 O 0.8640(5) 0.5938(6) 0.9153(3)
C1_2 C 0.5687(7) 0.5260(7) 0.1335(3)
N4_2 N 0.5677(5) 0.6407(5) 0.3662(3)
C3_2 C 0.7906(6) 0.6728(6) 0.5299(3)
C4_2 C 0.5617(7) 0.6807(7) 0.4482(3)
H1_2 H 0.519280 0.612123 0.462284
H2_2 H 0.497259 0.735884 0.454994
C5_2 C 0.9269(6) 0.7306(6) 0.5812(3)
C6_2 C 0.6894(6) 0.5759(6) 0.2706(3)
H3_2 H 0.774853 0.558694 0.256236
C8_2 C 0.7583(7) 0.8624(6) 0.5177(3)
C9_2 C 0.6653(9) 0.9294(8) 0.4826(4)
H5_2 H 0.644763 0.896776 0.427787
H6_2 H 0.574226 0.923180 0.499147
C10_2 C 0.8933(7) 0.9172(6) 0.5678(3)
C11_2 C 0.6871(6) 0.6157(6) 0.3453(3)
H7_2 H 0.771516 0.625459 0.382572
C12_2 C 0.5662(7) 0.5615(6) 0.2169(3)
C13_2 C 0.7087(6) 0.7398(6) 0.5000(3)
H8_2 H 0.984969 0.576309 0.580571
C16_2 C 0.4432(6) 0.6228(6) 0.3144(3)
H11_2 H 0.357975 0.637760 0.330073
C17_2 C 0.8736(7) 0.6520(6) 0.7821(4)
H12_2 H 0.783289 0.646954 0.796161
C19_2 C 0.9761(6) 0.8506(6) 0.5998(3)
C20_2 C 0.8840(7) 0.6611(6) 0.7120(4)
H14_2 H 0.800762 0.663063 0.677923
C22_2 C 0.7445(7) 0.5413(7) 0.5082(3)
H17_2 H 0.742368 0.517747 0.553379
H18_2 H 0.647778 0.514309 0.474663
H19_2 H 0.813358 0.506262 0.482303
C23_2 C 0.9965(8) 0.6502(7) 0.8316(4)
C24_2 C 0.4412(7) 0.5831(6) 0.2394(3)
H20_2 H 0.354481 0.570362 0.202980
C25_2 C 0.9882(8) 0.6291(8) 0.9057(4)
loop_
_geom_bond_atom_site_label_1
_geom_bond_atom_site_label_2
_geom_bond_site_symmetry_1
_geom_bond_site_symmetry_2
O1 N1 1_555 1_555
O2 N1 1_555 1_555
N1 O3 1_555 1_555
O1_2 N1_2 1_555 1_555
O2_2 N1_2 1_555 1_555
N1_2 O3_2 1_555 1_555
O4 N2 1_555 1_555
O5 N2 1_555 1_555
O6 N2 1_555 1_555
O4_2 N2_2 1_555 1_555
O5_2 N2_2 1_555 1_555
O6_2 N2_2 1_555 1_555
O7 N3 1_555 1_555
O8 N3 1_555 1_555
O9 N3 1_555 1_555
O7_2 N3_2 1_555 1_555
O8_2 N3_2 1_555 1_555
O9_2 N3_2 1_555 1_555
O10 C1 1_555 1_555
O11 C1 1_555 1_555
O13 C25 1_555 1_555
C1 C12 1_555 1_555
N4 C4 1_555 1_555
C3 C5 1_555 1_555
C4 H1 1_555 1_555
H2 C4 1_555 1_555
C6 H3 1_555 1_555
C8 C9 1_555 1_555
H5 C9 1_555 1_555
H6 C9 1_555 1_555
C10 C8 1_555 1_555
C11 N4 1_555 1_555
H7 C11 1_555 1_555
C12 C6 1_555 1_555
C13 C3 1_555 1_555
C16 N4 1_555 1_555
H11 C16 1_555 1_555
C17 H12 1_555 1_555
C19 C5 1_555 1_555
H14 C20 1_555 1_555
C22 C3 1_555 1_555
H17 C22 1_555 1_555
H18 C22 1_555 1_555
H19 C22 1_555 1_555
C23 C17 1_555 1_555
C24 C12 1_555 1_555
H20 C24 1_555 1_555
C25 C23 1_555 1_555
La3 O13 1_555 1_555
La6 O10 1_555 1_555
C4 C13 1_555 1_555
C6 C11 1_555 1_555
C8 C13 1_555 1_555
C10 C19 1_555 1_555
C16 C24 1_555 1_555
C17 C20 1_555 1_555
La3 O14 1_555 1_555
O14 C2 1_555 1_555
C2 C7 1_555 1_555
N6 C21 1_555 1_555
C7 C15 1_555 1_555
C15 H10 1_555 1_555
H15 C21 1_555 1_555
C26 N6 1_555 1_555
H21 C26 1_555 1_555
O17 La3 1_555 1_555
H30 O17 1_555 1_555
O18 La3 1_555 1_555
C15 C26 1_555 1_555
H28 O16 1_555 1_555
N5 C14 1_555 1_555
H9 C14 1_555 1_555
H22 C27 1_555 1_555
H23 C27 1_555 1_555
H24 C27 1_555 1_555
C28 N5 1_555 1_555
H25 C28 1_555 1_555
H27 C30 1_555 1_555
C28 C30 1_555 1_555
H13 C18 1_555 1_555
H26 C29 1_555 1_555
C18 C29 1_555 1_555
H13_2 C18_2 1_555 1_555
H26_2 C29_2 1_555 1_555
C18_2 C29_2 1_555 1_555
N5_2 C14_2 1_555 1_555
H9_2 C14_2 1_555 1_555
H22_2 C27_2 1_555 1_555
H23_2 C27_2 1_555 1_555
H24_2 C27_2 1_555 1_555
C28_2 N5_2 1_555 1_555
H25_2 C28_2 1_555 1_555
H27_2 C30_2 1_555 1_555
C28_2 C30_2 1_555 1_555
H28_2 O16_2 1_555 1_555
La6 O14_2 1_555 1_555
O14_2 C2_2 1_555 1_555
C2_2 C7_2 1_555 1_555
N6_2 C21_2 1_555 1_555
C7_2 C15_2 1_555 1_555
C15_2 H10_2 1_555 1_555
H15_2 C21_2 1_555 1_555
C26_2 N6_2 1_555 1_555
H21_2 C26_2 1_555 1_555
O17_2 La6 1_555 1_555
H30_2 O17_2 1_555 1_555
O21 La6 1_555 1_555
C15_2 C26_2 1_555 1_555
O18 C1_2 1_555 1_555
O19 C1_2 1_555 1_555
O21 C25_2 1_555 1_555
C1_2 C12_2 1_555 1_555
N4_2 C4_2 1_555 1_555
C3_2 C5_2 1_555 1_555
C4_2 H1_2 1_555 1_555
H2_2 C4_2 1_555 1_555
C6_2 H3_2 1_555 1_555
C8_2 C9_2 1_555 1_555
H5_2 C9_2 1_555 1_555
H6_2 C9_2 1_555 1_555
C10_2 C8_2 1_555 1_555
C11_2 N4_2 1_555 1_555
H7_2 C11_2 1_555 1_555
C12_2 C6_2 1_555 1_555
C13_2 C3_2 1_555 1_555
C16_2 N4_2 1_555 1_555
H11_2 C16_2 1_555 1_555
C17_2 H12_2 1_555 1_555
C19_2 C5_2 1_555 1_555
H14_2 C20_2 1_555 1_555
C22_2 C3_2 1_555 1_555
H17_2 C22_2 1_555 1_555
H18_2 C22_2 1_555 1_555
H19_2 C22_2 1_555 1_555
C23_2 C17_2 1_555 1_555
C24_2 C12_2 1_555 1_555
H20_2 C24_2 1_555 1_555
C25_2 C23_2 1_555 1_555
C4_2 C13_2 1_555 1_555
C6_2 C11_2 1_555 1_555
C8_2 C13_2 1_555 1_555
C10_2 C19_2 1_555 1_555
C16_2 C24_2 1_555 1_555
C17_2 C20_2 1_555 1_555

#END
