
###############################################################################
#
# This file contains modified crystal structure data generated from the
# MOF subset of the Cambridge Structural Database (CSD) v543 
# hosted by the Cambridge Crystallographic Data Centre (CCDC).
#
# This work is licensed under the Creative Commons
# Attribution-NonCommercial-ShareAlike 4.0 International License.
# To view a copy of this license, visit
# http://creativecommons.org/licenses/by-nc-sa/4.0/
# or send a letter to
# Creative Commons, PO Box 1866, Mountain View, CA 94042, USA.
#
# CIF created using the CSD Python API on 29 September 2022
# The structure has been converted into the P1 space group
# The structure has a 3D framework
# The original CSD entry MOCLOI is in the triclinic crystal system
# The framework has been calculated to contain at least 10.0% void space
# The void calculation uses a probe of radius 1.32A, grid spacing 0.4
#
###############################################################################

data_MOCLOI
_chemical_formula_moiety         '(C60 H62 Br6 N6 Nd2 O12)n'
_symmetry_cell_setting           triclinic
_symmetry_space_group_name_H-M   'P 1'
_symmetry_Int_Tables_number      1
_space_group_name_Hall           'P 1'
loop_
_symmetry_equiv_pos_site_id
_symmetry_equiv_pos_as_xyz
1 x,y,z
_cell_length_a                   9.4378(3)
_cell_length_b                   12.3546(3)
_cell_length_c                   18.8810(4)
_cell_angle_alpha                104.683(2)
_cell_angle_beta                 98.809(2)
_cell_angle_gamma                99.428(2)
_cell_volume                     2056.69
loop_
_atom_site_label
_atom_site_type_symbol
_atom_site_fract_x
_atom_site_fract_y
_atom_site_fract_z
Br1 Br 0.90043(6) 0.33483(5) 0.09927(4)
Br1_2 Br 0.09957(6) 0.66517(5) 0.90073(4)
Br2 Br 0.51184(7) 0.36023(6) 0.82245(4)
Br2_2 Br 0.48816(7) 0.63977(6) 0.17755(4)
Br3 Br 0.9970(3) 0.07120(14) 0.65079(10)
Br3_2 Br 0.0030(3) 0.92880(14) 0.34921(10)
Nd1 Nd 0.23509(3) 0.51767(2) 0.50335(2)
O1 O 0.5428(4) 0.4618(3) 0.41111(18)
O2 O 0.3089(4) 0.4715(4) 0.38161(19)
N2 N 0.4256(5) 0.3226(4) 0.1333(2)
C3 C 0.2825(6) 0.2292(5) 0.0002(3)
C4 C 0.4266(5) 0.4513(4) 0.3656(3)
C7 C 0.5546(6) 0.3522(5) 0.1835(3)
H3 H 0.643151 0.343343 0.166875
C8 C 0.2997(5) 0.3387(4) 0.1551(3)
H4 H 0.210912 0.319206 0.118935
C10 C 0.2988(5) 0.3834(4) 0.2300(3)
H5 H 0.209957 0.395600 0.245257
C18 C 0.5574(6) 0.3953(5) 0.2590(3)
H15 H 0.647530 0.414490 0.294212
C21 C 0.2875(7) 0.4357(5) 0.0026(4)
H17 H 0.238383 0.475417 0.040325
H19 H 0.391107 0.444538 0.024854
C22 C 0.4293(5) 0.4104(4) 0.2831(3)
C28 C 0.4309(6) 0.2700(6) 0.0526(3)
H22 H 0.479520 0.204232 0.049552
H23 H 0.492057 0.327215 0.035305
C30 C 0.2927(8) 0.0287(6) 0.0031(3)
H27 H 0.333540 0.060945 0.056842
O7 O 0.4095(4) 0.6937(4) 0.4971(2)
H28 H 0.381583 0.758446 0.518125
H29 H 0.413996 0.692498 0.449672
O8 O 0.2847(5) 0.3232(4) 0.4831(3)
H30 H 0.225322 0.277803 0.503168
H31 H 0.379182 0.323843 0.504128
Nd6 Nd 0.76491(3) 0.48233(2) 0.49665(2)
O9 O 0.4572(4) 0.5382(3) 0.58889(18)
O10 O 0.1449(4) 0.4409(3) 0.59940(19)
O11 O 0.2260(4) 0.6858(3) 0.60463(19)
O12 O 0.0149(4) 0.3863(3) 0.43087(19)
O13 O 0.1005(4) 0.6181(3) 0.4332(2)
C5 C 0.0791(6) 0.2719(4) 0.9260(3)
H2 H 0.041118 0.435257 0.939399
C9 C 0.2149(6) 0.3097(4) 0.9753(3)
N3 N 0.0040(5) 0.3634(4) 0.8262(2)
C15 C 0.0214(6) 0.4046(4) 0.6110(3)
C17 C 0.1413(6) 0.3784(4) 0.7335(3)
H14 H 0.232123 0.381696 0.717485
C19 C 0.2176(6) 0.1123(5) 0.9749(3)
H18 H 0.279914 0.468550 0.960472
C23 C 0.0152(6) 0.3866(4) 0.6867(3)
C24 C 0.1309(5) 0.3656(4) 0.8028(3)
H20 H 0.214977 0.358308 0.834559
C25 C 0.0145(5) 0.1551(4) 0.8976(3)
C26 C 0.0836(6) 0.0758(4) 0.9222(3)
H25 H 0.372056 0.013663 0.976549
C1 C 0.0975(6) 0.6840(4) 0.6137(3)
N1 N 0.0320(5) 0.8934(4) 0.8157(2)
C2 C 0.0736(6) 0.7643(4) 0.6827(3)
C12 C 0.1923(6) 0.8212(5) 0.7408(3)
H9 H 0.289232 0.816036 0.734639
C13 C 0.0083(7) 0.9499(4) 0.8930(3)
H10 H 0.046212 0.909061 0.928182
C20 C 0.1686(6) 0.8851(5) 0.8074(3)
H16 H 0.249318 0.923373 0.847609
H26 H 0.221651 0.956950 0.994441
C6 C 0.9977(6) 0.3586(5) 0.9040(3)
H1 H 0.893874 0.338221 0.907907
C11 C 0.8727(6) 0.1159(5) 0.8393(3)
H6 H 0.819226 0.178181 0.843713
H7 H 0.812087 0.049365 0.847203
H8 H 0.895172 0.094933 0.789221
C27 C 0.8809(6) 0.3718(5) 0.7825(3)
H21 H 0.791995 0.370073 0.800312
C29 C 0.8854(6) 0.3827(5) 0.7125(3)
H24 H 0.798824 0.387580 0.681474
O6 O 0.8995(4) 0.3819(3) 0.5668(2)
H11 H 0.901746 0.942730 0.891279
C14 C 0.9156(6) 0.8440(5) 0.7593(3)
H12 H 0.820339 0.853860 0.766049
C16 C 0.9341(6) 0.7797(5) 0.6924(3)
H13 H 0.851820 0.745380 0.652412
O5 O 0.9851(4) 0.6137(3) 0.56913(19)
H11_2 H 0.098254 0.057270 0.108721
C14_2 C 0.0844(6) 0.1560(5) 0.2407(3)
H12_2 H 0.179661 0.146140 0.233951
C16_2 C 0.0659(6) 0.2203(5) 0.3076(3)
H13_2 H 0.148180 0.254620 0.347588
C6_2 C 0.0023(6) 0.6414(5) 0.0960(3)
H1_2 H 0.106126 0.661779 0.092093
C11_2 C 0.1273(6) 0.8841(5) 0.1607(3)
H6_2 H 0.180774 0.821819 0.156287
H7_2 H 0.187913 0.950635 0.152797
H8_2 H 0.104828 0.905067 0.210779
C27_2 C 0.1191(6) 0.6282(5) 0.2175(3)
H21_2 H 0.208005 0.629927 0.199688
C29_2 C 0.1146(6) 0.6173(5) 0.2875(3)
H24_2 H 0.201176 0.612420 0.318526
O4 O 0.7740(4) 0.3142(3) 0.39537(19)
C1_2 C 0.9025(6) 0.3160(4) 0.3863(3)
N1_2 N 0.9680(5) 0.1066(4) 0.1843(2)
C2_2 C 0.9264(6) 0.2357(4) 0.3173(3)
C12_2 C 0.8077(6) 0.1788(5) 0.2592(3)
H9_2 H 0.710768 0.183964 0.265361
C13_2 C 0.9917(7) 0.0501(4) 0.1070(3)
H10_2 H 0.953788 0.090939 0.071818
C20_2 C 0.8314(6) 0.1149(5) 0.1926(3)
H16_2 H 0.750682 0.076627 0.152391
H26_2 H 0.778349 0.043050 0.005559
O3 O 0.8551(4) 0.5591(3) 0.40060(19)
C5_2 C 0.9209(6) 0.7281(4) 0.0740(3)
H2_2 H 0.958882 0.564743 0.060601
C9_2 C 0.7851(6) 0.6903(4) 0.0247(3)
N3_2 N 0.9960(5) 0.6366(4) 0.1738(2)
C15_2 C 0.9786(6) 0.5954(4) 0.3890(3)
C17_2 C 0.8587(6) 0.6216(4) 0.2665(3)
H14_2 H 0.767877 0.618304 0.282515
C19_2 C 0.7824(6) 0.8877(5) 0.0251(3)
H18_2 H 0.720086 0.531450 0.039528
C23_2 C 0.9848(6) 0.6134(4) 0.3133(3)
C24_2 C 0.8691(5) 0.6344(4) 0.1972(3)
H20_2 H 0.785023 0.641692 0.165441
C25_2 C 0.9855(5) 0.8449(4) 0.1024(3)
C26_2 C 0.9164(6) 0.9242(4) 0.0778(3)
H25_2 H 0.627944 0.986337 0.023451
O2_2 O 0.6911(4) 0.5285(4) 0.61839(19)
N2_2 N 0.5744(5) 0.6774(4) 0.8667(2)
C3_2 C 0.7175(6) 0.7708(5) 0.9998(3)
C4_2 C 0.5734(5) 0.5487(4) 0.6344(3)
C7_2 C 0.4454(6) 0.6478(5) 0.8165(3)
H3_2 H 0.356849 0.656657 0.833125
C8_2 C 0.7003(5) 0.6613(4) 0.8449(3)
H4_2 H 0.789088 0.680794 0.881065
C10_2 C 0.7012(5) 0.6166(4) 0.7700(3)
H5_2 H 0.790043 0.604400 0.754743
C18_2 C 0.4426(6) 0.6047(5) 0.7410(3)
H15_2 H 0.352470 0.585510 0.705788
C21_2 C 0.7125(7) 0.5643(5) 0.9974(4)
H17_2 H 0.761617 0.524583 0.959675
H19_2 H 0.608893 0.555462 0.975146
C22_2 C 0.5707(5) 0.5896(4) 0.7169(3)
C28_2 C 0.5691(6) 0.7300(6) 0.9474(3)
H22_2 H 0.520480 0.795768 0.950448
H23_2 H 0.507943 0.672785 0.964695
C30_2 C 0.7073(8) 0.9713(6) 0.9969(3)
H27_2 H 0.666460 0.939055 0.943158
O7_2 O 0.5905(4) 0.3063(4) 0.5029(2)
H28_2 H 0.618417 0.241554 0.481875
H29_2 H 0.586004 0.307502 0.550328
O8_2 O 0.7153(5) 0.6768(4) 0.5169(3)
H30_2 H 0.774678 0.722197 0.496832
H31_2 H 0.620818 0.676157 0.495872
loop_
_geom_bond_atom_site_label_1
_geom_bond_atom_site_label_2
_geom_bond_site_symmetry_1
_geom_bond_site_symmetry_2
Nd1 O2 1_555 1_555
O1 C4 1_555 1_555
O2 C4 1_555 1_555
N2 C7 1_555 1_555
C4 C22 1_555 1_555
C7 H3 1_555 1_555
C8 N2 1_555 1_555
H4 C8 1_555 1_555
C10 C8 1_555 1_555
H5 C10 1_555 1_555
C18 C7 1_555 1_555
H15 C18 1_555 1_555
H17 C21 1_555 1_555
H19 C21 1_555 1_555
C22 C10 1_555 1_555
C28 N2 1_555 1_555
H22 C28 1_555 1_555
H23 C28 1_555 1_555
H27 C30 1_555 1_555
O7 Nd1 1_555 1_555
H28 O7 1_555 1_555
H29 O7 1_555 1_555
O8 Nd1 1_555 1_555
H30 O8 1_555 1_555
H31 O8 1_555 1_555
Nd6 O1 1_555 1_555
O9 Nd1 1_555 1_555
O10 Nd1 1_555 1_555
O11 Nd1 1_555 1_555
O12 Nd1 1_555 1_555
O13 Nd1 1_555 1_555
C3 C28 1_555 1_555
C18 C22 1_555 1_555
O10 C15 1_555 1_555
C9 C5 1_555 1_555
C15 C23 1_555 1_555
C17 H14 1_555 1_555
C23 C17 1_555 1_555
C24 N3 1_555 1_555
H20 C24 1_555 1_555
C25 C5 1_555 1_555
C17 C24 1_555 1_555
C19 C26 1_555 1_555
C25 C26 1_555 1_555
O11 C1 1_555 1_555
C1 C2 1_555 1_555
N1 C13 1_555 1_555
C2 C12 1_555 1_555
C12 H9 1_555 1_555
C13 H10 1_555 1_555
C20 N1 1_555 1_555
H16 C20 1_555 1_555
C12 C20 1_555 1_555
C6 H1 1_555 1_555
C11 H6 1_555 1_555
H7 C11 1_555 1_555
H8 C11 1_555 1_555
H21 C27 1_555 1_555
H24 C29 1_555 1_555
Nd6 O6 1_555 1_555
C27 C29 1_555 1_555
H12 C14 1_555 1_555
H13 C16 1_555 1_555
Nd6 O5 1_555 1_555
C14 C16 1_555 1_555
H12_2 C14_2 1_555 1_555
H13_2 C16_2 1_555 1_555
C14_2 C16_2 1_555 1_555
C6_2 H1_2 1_555 1_555
C11_2 H6_2 1_555 1_555
H7_2 C11_2 1_555 1_555
H8_2 C11_2 1_555 1_555
H21_2 C27_2 1_555 1_555
H24_2 C29_2 1_555 1_555
C27_2 C29_2 1_555 1_555
O4 C1_2 1_555 1_555
C1_2 C2_2 1_555 1_555
N1_2 C13_2 1_555 1_555
C2_2 C12_2 1_555 1_555
C12_2 H9_2 1_555 1_555
C13_2 H10_2 1_555 1_555
C20_2 N1_2 1_555 1_555
H16_2 C20_2 1_555 1_555
Nd6 O4 1_555 1_555
C12_2 C20_2 1_555 1_555
O3 C15_2 1_555 1_555
C9_2 C5_2 1_555 1_555
C15_2 C23_2 1_555 1_555
C17_2 H14_2 1_555 1_555
C23_2 C17_2 1_555 1_555
C24_2 N3_2 1_555 1_555
H20_2 C24_2 1_555 1_555
C25_2 C5_2 1_555 1_555
Nd6 O3 1_555 1_555
C17_2 C24_2 1_555 1_555
C19_2 C26_2 1_555 1_555
C25_2 C26_2 1_555 1_555
Nd6 O2_2 1_555 1_555
O9 C4_2 1_555 1_555
O2_2 C4_2 1_555 1_555
N2_2 C7_2 1_555 1_555
C4_2 C22_2 1_555 1_555
C7_2 H3_2 1_555 1_555
C8_2 N2_2 1_555 1_555
H4_2 C8_2 1_555 1_555
C10_2 C8_2 1_555 1_555
H5_2 C10_2 1_555 1_555
C18_2 C7_2 1_555 1_555
H15_2 C18_2 1_555 1_555
H17_2 C21_2 1_555 1_555
H19_2 C21_2 1_555 1_555
C22_2 C10_2 1_555 1_555
C28_2 N2_2 1_555 1_555
H22_2 C28_2 1_555 1_555
H23_2 C28_2 1_555 1_555
H27_2 C30_2 1_555 1_555
O7_2 Nd6 1_555 1_555
H28_2 O7_2 1_555 1_555
H29_2 O7_2 1_555 1_555
O8_2 Nd6 1_555 1_555
H30_2 O8_2 1_555 1_555
H31_2 O8_2 1_555 1_555
C3_2 C28_2 1_555 1_555
C18_2 C22_2 1_555 1_555

#END
