
###############################################################################
#
# This file contains modified crystal structure data generated from the
# MOF subset of the Cambridge Structural Database (CSD) v543 
# hosted by the Cambridge Crystallographic Data Centre (CCDC).
#
# This work is licensed under the Creative Commons
# Attribution-NonCommercial-ShareAlike 4.0 International License.
# To view a copy of this license, visit
# http://creativecommons.org/licenses/by-nc-sa/4.0/
# or send a letter to
# Creative Commons, PO Box 1866, Mountain View, CA 94042, USA.
#
# CIF created using the CSD Python API on 29 September 2022
# The structure has been converted into the P1 space group
# The structure has a 3D framework
# The original CSD entry MOCLAU is in the triclinic crystal system
# The framework has been calculated to contain at least 10.0% void space
# The void calculation uses a probe of radius 1.32A, grid spacing 0.4
#
###############################################################################

data_MOCLAU
_chemical_formula_moiety         '(C60 H62 Br6 N6 O12 Yb2)n'
_symmetry_cell_setting           triclinic
_symmetry_space_group_name_H-M   'P 1'
_symmetry_Int_Tables_number      1
_space_group_name_Hall           'P 1'
loop_
_symmetry_equiv_pos_site_id
_symmetry_equiv_pos_as_xyz
1 x,y,z
_cell_length_a                   9.2767(3)
_cell_length_b                   13.0591(5)
_cell_length_c                   18.3855(8)
_cell_angle_alpha                107.284(4)
_cell_angle_beta                 98.961(3)
_cell_angle_gamma                94.147(3)
_cell_volume                     2084.11
loop_
_atom_site_label
_atom_site_type_symbol
_atom_site_fract_x
_atom_site_fract_y
_atom_site_fract_z
C2 C 0.4360(4) 0.4384(3) 0.36632(19)
N3 N 0.4506(3) 0.2811(2) 0.12882(16)
C9 C 0.4431(4) 0.3872(3) 0.28159(19)
C13 C 0.3138(4) 0.3512(3) 0.2273(2)
H6 H 0.221649 0.363835 0.242374
C15 C 0.5773(4) 0.3175(3) 0.1800(2)
H8 H 0.668233 0.307328 0.162910
C17 C 0.3696(4) 0.4028(3) 0.0061(2)
H9 H 0.346623 0.444675 0.055853
H11 H 0.472338 0.388765 0.013743
C21 C 0.5769(4) 0.3698(3) 0.2575(2)
H13 H 0.666812 0.393519 0.293737
C25 C 0.3200(4) 0.2968(3) 0.1511(2)
H16 H 0.231426 0.270240 0.114112
C28 C 0.4572(4) 0.2170(3) 0.0469(2)
H21 H 0.536221 0.253137 0.029270
H22 H 0.482452 0.144240 0.045669
H25 H 0.303624 0.024817 0.037579
O2 O 0.3151(3) 0.4669(2) 0.38082(13)
O4 O 0.5503(3) 0.4489(2) 0.41464(14)
Yb3 Yb 0.23670(2) 0.51704(2) 0.49894(2)
Yb6 Yb 0.76330(2) 0.48296(2) 0.50106(2)
N1 N 0.0673(3) 0.3997(2) 0.83954(17)
C1 C 0.0550(4) 0.4168(3) 0.69403(19)
C3 C 0.0886(4) 0.0979(3) 0.91396(19)
C6 C 0.2702(4) 0.2969(3) 0.9747(2)
C7 C 0.3144(4) 0.2057(3) 0.99224(19)
C10 C 0.1858(4) 0.3835(3) 0.8057(2)
H3 H 0.271549 0.365002 0.832057
C11 C 0.0415(4) 0.1892(3) 0.89592(19)
C14 C 0.1833(4) 0.3935(3) 0.7330(2)
H7 H 0.268055 0.384561 0.709753
C16 C 0.0431(4) 0.4282(3) 0.6136(2)
H10 H 0.354477 0.443716 0.969318
C19 C 0.1309(4) 0.2883(3) 0.92803(19)
C23 C 0.2241(4) 0.1051(3) 0.96232(19)
C29 C 0.0722(4) 0.3910(3) 0.9195(2)
H24 H 0.135522 0.454510 0.957644
C30 C 0.2784(4) 0.0083(3) 0.9812(2)
O3 O 0.1618(3) 0.4591(2) 0.59704(14)
O1 O 0.1923(3) 0.6704(2) 0.59140(14)
N2 N 0.0067(3) 0.9243(3) 0.80399(17)
C4 C 0.0631(4) 0.6771(3) 0.60404(19)
C8 C 0.1640(4) 0.8351(3) 0.7235(2)
H2 H 0.260473 0.826789 0.713240
H4 H 0.003846 0.950427 0.919147
C18 C 0.0428(4) 0.7698(3) 0.6720(2)
C24 C 0.1428(4) 0.9116(3) 0.7890(2)
H15 H 0.225306 0.956182 0.824372
H26 H 0.365862 0.990780 0.958467
H27 H 0.201201 0.946468 0.959805
O7 O 0.3210(3) 0.3485(2) 0.48551(16)
H28 H 0.273126 0.310334 0.509822
H29 H 0.416936 0.355424 0.505623
O8 O 0.3824(3) 0.6728(2) 0.48974(15)
H30 H 0.391597 0.733032 0.533392
H31 H 0.343146 0.695582 0.448192
O11 O 0.4497(3) 0.5511(2) 0.58536(14)
O12 O 0.0831(3) 0.5937(2) 0.42627(14)
O13 O 0.0474(3) 0.3878(2) 0.43262(14)
C5 C 0.9347(4) 0.4343(3) 0.7302(2)
H1 H 0.846587 0.450791 0.704633
H5 H 0.883549 0.008350 0.879091
C26 C 0.9456(4) 0.4272(3) 0.8050(2)
H17 H 0.865683 0.442065 0.831581
C27 C 0.8959(4) 0.1778(3) 0.8427(2)
H18 H 0.901726 0.132922 0.790240
H19 H 0.872908 0.249458 0.841515
H20 H 0.818447 0.143673 0.861624
H23 H 0.971870 0.392156 0.931575
O5 O 0.9169(3) 0.4063(2) 0.57373(14)
C12 C 0.9866(4) 0.9923(3) 0.8824(2)
C20 C 0.9022(4) 0.7882(3) 0.6863(2)
H12 H 0.817857 0.747788 0.650097
C22 C 0.8869(4) 0.8656(3) 0.7534(2)
H14 H 0.791475 0.877676 0.764070
O6 O 0.9526(3) 0.6122(2) 0.56738(14)
C12_2 C 0.0134(4) 0.0077(3) 0.1176(2)
C20_2 C 0.0978(4) 0.2118(3) 0.3137(2)
H12_2 H 0.182143 0.252212 0.349903
C22_2 C 0.1131(4) 0.1344(3) 0.2466(2)
H14_2 H 0.208525 0.122324 0.235930
C5_2 C 0.0653(4) 0.5657(3) 0.2698(2)
H1_2 H 0.153413 0.549209 0.295367
H5_2 H 0.116451 0.991650 0.120909
C26_2 C 0.0544(4) 0.5728(3) 0.1950(2)
H17_2 H 0.134317 0.557935 0.168419
C27_2 C 0.1041(4) 0.8222(3) 0.1573(2)
H18_2 H 0.098274 0.867078 0.209760
H19_2 H 0.127092 0.750542 0.158485
H20_2 H 0.181553 0.856327 0.138376
H23_2 H 0.028130 0.607844 0.068425
O1_2 O 0.8077(3) 0.3296(2) 0.40860(14)
N2_2 N 0.9933(3) 0.0757(3) 0.19601(17)
C4_2 C 0.9369(4) 0.3229(3) 0.39596(19)
C8_2 C 0.8360(4) 0.1649(3) 0.2765(2)
H2_2 H 0.739527 0.173211 0.286760
H4_2 H 0.996154 0.049573 0.080853
C18_2 C 0.9572(4) 0.2302(3) 0.3280(2)
C24_2 C 0.8572(4) 0.0884(3) 0.2110(2)
H15_2 H 0.774694 0.043818 0.175628
H26_2 H 0.634138 0.009220 0.041533
H27_2 H 0.798799 0.053532 0.040195
O7_2 O 0.6790(3) 0.6515(2) 0.51449(16)
H28_2 H 0.726874 0.689666 0.490178
H29_2 H 0.583064 0.644576 0.494377
O8_2 O 0.6176(3) 0.3272(2) 0.51026(15)
H30_2 H 0.608403 0.266968 0.466608
H31_2 H 0.656854 0.304418 0.551808
O9 O 0.6849(3) 0.5331(2) 0.61918(13)
O10 O 0.8382(3) 0.5409(2) 0.40296(14)
N1_2 N 0.9327(3) 0.6003(2) 0.16046(17)
C1_2 C 0.9450(4) 0.5832(3) 0.30597(19)
C3_2 C 0.9114(4) 0.9021(3) 0.08604(19)
C6_2 C 0.7298(4) 0.7031(3) 0.0253(2)
C7_2 C 0.6856(4) 0.7943(3) 0.00776(19)
C10_2 C 0.8142(4) 0.6165(3) 0.1943(2)
H3_2 H 0.728451 0.634998 0.167943
C11_2 C 0.9585(4) 0.8108(3) 0.10408(19)
C14_2 C 0.8167(4) 0.6065(3) 0.2670(2)
H7_2 H 0.731945 0.615439 0.290247
C16_2 C 0.9569(4) 0.5718(3) 0.3864(2)
H10_2 H 0.645523 0.556284 0.030682
C19_2 C 0.8691(4) 0.7117(3) 0.07197(19)
C23_2 C 0.7759(4) 0.8949(3) 0.03768(19)
C29_2 C 0.9278(4) 0.6090(3) 0.0805(2)
H24_2 H 0.864478 0.545490 0.042356
C30_2 C 0.7216(4) 0.9917(3) 0.0188(2)
C2_2 C 0.5640(4) 0.5616(3) 0.63368(19)
N3_2 N 0.5494(3) 0.7189(2) 0.87118(16)
C9_2 C 0.5569(4) 0.6128(3) 0.71841(19)
C13_2 C 0.6862(4) 0.6488(3) 0.7727(2)
H6_2 H 0.778351 0.636165 0.757626
C15_2 C 0.4227(4) 0.6825(3) 0.8200(2)
H8_2 H 0.331767 0.692672 0.837090
C17_2 C 0.6304(4) 0.5972(3) 0.9939(2)
H9_2 H 0.653377 0.555325 0.944147
H11_2 H 0.527662 0.611235 0.986257
C21_2 C 0.4231(4) 0.6302(3) 0.7425(2)
H13_2 H 0.333188 0.606481 0.706263
C25_2 C 0.6800(4) 0.7032(3) 0.8489(2)
H16_2 H 0.768574 0.729760 0.885888
C28_2 C 0.5428(4) 0.7830(3) 0.9531(2)
H21_2 H 0.463779 0.746863 0.970730
H22_2 H 0.517548 0.855760 0.954331
H25_2 H 0.696376 0.975183 0.962421
Br1 Br 0.06668(4) 0.71674(4) 0.88927(3)
Br1_2 Br 0.93332(4) 0.28326(4) 0.11073(3)
Br2 Br 0.54048(5) 0.95122(4) 0.80906(3)
Br2_2 Br 0.45952(5) 0.04878(4) 0.19094(3)
Br3 Br 0.56907(7) 0.36142(6) 0.80209(5)
Br3_2 Br 0.43093(7) 0.63858(6) 0.19791(5)
loop_
_geom_bond_atom_site_label_1
_geom_bond_atom_site_label_2
_geom_bond_site_symmetry_1
_geom_bond_site_symmetry_2
C2 C9 1_555 1_555
N3 C15 1_555 1_555
C9 C13 1_555 1_555
C13 H6 1_555 1_555
C15 H8 1_555 1_555
H9 C17 1_555 1_555
H11 C17 1_555 1_555
C21 C9 1_555 1_555
H13 C21 1_555 1_555
C25 N3 1_555 1_555
H16 C25 1_555 1_555
C28 N3 1_555 1_555
H21 C28 1_555 1_555
H22 C28 1_555 1_555
O2 C2 1_555 1_555
O4 C2 1_555 1_555
Yb3 O2 1_555 1_555
Yb6 O4 1_555 1_555
C13 C25 1_555 1_555
C15 C21 1_555 1_555
N1 C10 1_555 1_555
C3 C11 1_555 1_555
C6 C7 1_555 1_555
C7 C23 1_555 1_555
C10 H3 1_555 1_555
C11 C19 1_555 1_555
C14 C1 1_555 1_555
H7 C14 1_555 1_555
C16 C1 1_555 1_555
C19 C6 1_555 1_555
C23 C3 1_555 1_555
C29 N1 1_555 1_555
H24 C29 1_555 1_555
C30 C23 1_555 1_555
O3 C16 1_555 1_555
Yb3 O3 1_555 1_555
C10 C14 1_555 1_555
C19 C29 1_555 1_555
Yb3 O1 1_555 1_555
O1 C4 1_555 1_555
C4 C18 1_555 1_555
C8 H2 1_555 1_555
C18 C8 1_555 1_555
C24 N2 1_555 1_555
H15 C24 1_555 1_555
O7 Yb3 1_555 1_555
H28 O7 1_555 1_555
H29 O7 1_555 1_555
O8 Yb3 1_555 1_555
H30 O8 1_555 1_555
H31 O8 1_555 1_555
O11 Yb3 1_555 1_555
O12 Yb3 1_555 1_555
O13 Yb3 1_555 1_555
C8 C24 1_555 1_555
C5 H1 1_555 1_555
H17 C26 1_555 1_555
H18 C27 1_555 1_555
H19 C27 1_555 1_555
H20 C27 1_555 1_555
Yb6 O5 1_555 1_555
C5 C26 1_555 1_555
H12 C20 1_555 1_555
H14 C22 1_555 1_555
Yb6 O6 1_555 1_555
C20 C22 1_555 1_555
H12_2 C20_2 1_555 1_555
H14_2 C22_2 1_555 1_555
C20_2 C22_2 1_555 1_555
C5_2 H1_2 1_555 1_555
H17_2 C26_2 1_555 1_555
H18_2 C27_2 1_555 1_555
H19_2 C27_2 1_555 1_555
H20_2 C27_2 1_555 1_555
C5_2 C26_2 1_555 1_555
Yb6 O1_2 1_555 1_555
O1_2 C4_2 1_555 1_555
C4_2 C18_2 1_555 1_555
C8_2 H2_2 1_555 1_555
C18_2 C8_2 1_555 1_555
C24_2 N2_2 1_555 1_555
H15_2 C24_2 1_555 1_555
O7_2 Yb6 1_555 1_555
H28_2 O7_2 1_555 1_555
H29_2 O7_2 1_555 1_555
O8_2 Yb6 1_555 1_555
H30_2 O8_2 1_555 1_555
H31_2 O8_2 1_555 1_555
O9 Yb6 1_555 1_555
O10 Yb6 1_555 1_555
C8_2 C24_2 1_555 1_555
N1_2 C10_2 1_555 1_555
C3_2 C11_2 1_555 1_555
C6_2 C7_2 1_555 1_555
C7_2 C23_2 1_555 1_555
C10_2 H3_2 1_555 1_555
C11_2 C19_2 1_555 1_555
C14_2 C1_2 1_555 1_555
H7_2 C14_2 1_555 1_555
C16_2 C1_2 1_555 1_555
C19_2 C6_2 1_555 1_555
C23_2 C3_2 1_555 1_555
C29_2 N1_2 1_555 1_555
H24_2 C29_2 1_555 1_555
C30_2 C23_2 1_555 1_555
O10 C16_2 1_555 1_555
C10_2 C14_2 1_555 1_555
C19_2 C29_2 1_555 1_555
C2_2 C9_2 1_555 1_555
N3_2 C15_2 1_555 1_555
C9_2 C13_2 1_555 1_555
C13_2 H6_2 1_555 1_555
C15_2 H8_2 1_555 1_555
H9_2 C17_2 1_555 1_555
H11_2 C17_2 1_555 1_555
C21_2 C9_2 1_555 1_555
H13_2 C21_2 1_555 1_555
C25_2 N3_2 1_555 1_555
H16_2 C25_2 1_555 1_555
C28_2 N3_2 1_555 1_555
H21_2 C28_2 1_555 1_555
H22_2 C28_2 1_555 1_555
O9 C2_2 1_555 1_555
O11 C2_2 1_555 1_555
C13_2 C25_2 1_555 1_555
C15_2 C21_2 1_555 1_555

#END
