
###############################################################################
#
# This file contains modified crystal structure data generated from the
# MOF subset of the Cambridge Structural Database (CSD) v543 
# hosted by the Cambridge Crystallographic Data Centre (CCDC).
#
# This work is licensed under the Creative Commons
# Attribution-NonCommercial-ShareAlike 4.0 International License.
# To view a copy of this license, visit
# http://creativecommons.org/licenses/by-nc-sa/4.0/
# or send a letter to
# Creative Commons, PO Box 1866, Mountain View, CA 94042, USA.
#
# CIF created using the CSD Python API on 29 September 2022
# The structure has been converted into the P1 space group
# The structure has a 3D framework
# The original CSD entry MOCMAV is in the triclinic crystal system
# The framework has been calculated to contain at least 10.0% void space
# The void calculation uses a probe of radius 1.32A, grid spacing 0.4
#
###############################################################################

data_MOCMAV
_chemical_formula_moiety         '(C60 H62 N12 O32 Y2)n'
_symmetry_cell_setting           triclinic
_symmetry_space_group_name_H-M   'P 1'
_symmetry_Int_Tables_number      1
_space_group_name_Hall           'P 1'
loop_
_symmetry_equiv_pos_site_id
_symmetry_equiv_pos_as_xyz
1 x,y,z
_cell_length_a                   9.5796(3)
_cell_length_b                   12.0095(7)
_cell_length_c                   18.6284(5)
_cell_angle_alpha                104.551(4)
_cell_angle_beta                 98.841(3)
_cell_angle_gamma                102.169(4)
_cell_volume                     1978.82
loop_
_atom_site_label
_atom_site_type_symbol
_atom_site_fract_x
_atom_site_fract_y
_atom_site_fract_z
O1 O 0.7370(4) 0.7391(3) 0.9258(2)
O2 O 0.5146(4) 0.6656(5) 0.9300(2)
O3 O 0.6054(5) 0.5809(4) 0.8400(2)
N1 N 0.6182(4) 0.6613(4) 0.8987(2)
O1_2 O 0.2630(4) 0.2609(3) 0.0742(2)
O2_2 O 0.4854(4) 0.3344(5) 0.0700(2)
O3_2 O 0.3946(5) 0.4191(4) 0.1600(2)
N1_2 N 0.3818(4) 0.3387(4) 0.1013(2)
O4 O 0.0647(4) 0.6215(3) 0.1269(2)
N2 N 0.0155(5) 0.6897(5) 0.1677(3)
O6 O 0.0730(9) 0.7241(9) 0.2375(4)
O5 O 0.8951(4) 0.7083(4) 0.1480(3)
O5_2 O 0.1049(4) 0.2917(4) 0.8520(3)
O4_2 O 0.9353(4) 0.3785(3) 0.8731(2)
N2_2 N 0.9845(5) 0.3103(5) 0.8323(3)
O6_2 O 0.9270(9) 0.2759(9) 0.7625(4)
O7 O 0.9021(5) 0.1391(5) 0.2178(3)
O8 O 0.8267(7) 0.2192(5) 0.3158(3)
O9 O 0.9893(6) 0.1267(5) 0.3313(3)
N3 N 0.9055(5) 0.1583(4) 0.2860(3)
O7_2 O 0.0979(5) 0.8609(5) 0.7822(3)
O8_2 O 0.1733(7) 0.7808(5) 0.6842(3)
O9_2 O 0.0107(6) 0.8733(5) 0.6687(3)
N3_2 N 0.0945(5) 0.8417(4) 0.7140(3)
O11 O 0.2806(3) 0.3438(3) 0.38792(16)
O13 O 0.5252(3) 0.3978(3) 0.41803(16)
C1 C 0.4042(5) 0.3388(4) 0.3754(2)
N6 N 0.4228(5) 0.1189(3) 0.1610(2)
C18 C 0.4089(5) 0.2560(4) 0.3001(2)
C24 C 0.2849(5) 0.1722(5) 0.2532(3)
H17 H 0.194485 0.161488 0.268944
H18 H 0.652072 0.002850 0.139404
C26 C 0.5447(6) 0.1993(5) 0.2062(3)
H21 H 0.634033 0.208762 0.189340
C27 C 0.2951(5) 0.1041(5) 0.1830(3)
H22 H 0.210873 0.046627 0.150253
C28 C 0.5397(6) 0.2676(5) 0.2767(3)
H23 H 0.626089 0.322668 0.309226
C30 C 0.4287(6) 0.0528(4) 0.0821(3)
H26 H 0.530709 0.073757 0.075635
H27 H 0.367322 0.078614 0.045010
Y3 Y 0.26124(4) 0.48557(3) 0.49768(2)
Y6 Y 0.73876(4) 0.51443(3) 0.50232(2)
O12 O 0.3744(3) 0.5929(3) 0.42266(17)
N5 N 0.5231(4) 0.6817(3) 0.19681(19)
C2 C 0.2947(4) 0.6702(4) 0.0311(2)
C4 C 0.2426(5) 0.8541(4) 0.0157(2)
C5 C 0.4688(5) 0.8603(4) 0.0993(2)
C6 C 0.3765(5) 0.9191(4) 0.0652(2)
C8 C 0.5093(5) 0.6570(4) 0.3382(2)
C9 C 0.4276(4) 0.7371(4) 0.0817(2)
C11 C 0.5002(5) 0.6278(4) 0.4122(2)
C13 C 0.5276(5) 0.6737(4) 0.1156(2)
H3 H 0.499334 0.588732 0.085275
H4 H 0.629160 0.708577 0.112714
C14 C 0.2582(5) 0.5364(4) 0.0111(2)
H7 H 0.251904 0.512090 0.057217
C16 C 0.3866(5) 0.6637(4) 0.2905(2)
H8 H 0.296849 0.659711 0.306691
C17 C 0.3954(5) 0.6761(4) 0.2198(2)
H9 H 0.311770 0.680856 0.187118
H12 H 0.051878 0.908254 0.000953
C22 C 0.6446(5) 0.6816(4) 0.2437(3)
H15 H 0.734449 0.689774 0.227474
C23 C 0.6405(5) 0.6700(5) 0.3148(3)
H16 H 0.727130 0.670861 0.347755
C25 C 0.6140(5) 0.9305(5) 0.1532(3)
H19 H 0.683987 0.881521 0.149565
H20 H 0.599723 0.952503 0.205351
O15 O 0.6210(3) 0.6384(3) 0.45466(16)
O10 O 0.1734(3) 0.5008(3) 0.61049(15)
N4 N 0.0594(4) 0.6242(3) 0.86517(18)
C3 C 0.1764(5) 0.5560(4) 0.7661(2)
H1 H 0.259058 0.534094 0.750438
C7 C 0.0570(4) 0.5184(4) 0.6282(2)
C10 C 0.2033(5) 0.7296(4) 0.9991(2)
C12 C 0.1761(4) 0.5946(4) 0.8426(2)
H2 H 0.259684 0.600032 0.879444
H5 H 0.334871 0.507867 0.988672
H6 H 0.164121 0.502186 0.974539
C15 C 0.0546(4) 0.5497(4) 0.7124(2)
C21 C 0.1389(7) 0.9143(5) 0.9790(3)
H13 H 0.109540 0.874879 0.924146
H14 H 0.188356 0.998412 0.988387
C29 C 0.0558(5) 0.6596(4) 0.9480(2)
H24 H 0.020834 0.586894 0.962965
O16 O 0.0779(3) 0.2990(3) 0.47763(19)
H28 H 0.093638 0.268898 0.516201
H29 H 0.079578 0.244508 0.435611
O17 O 0.2239(4) 0.6813(3) 0.53437(19)
H30 H 0.238078 0.710339 0.584739
H31 H 0.132784 0.680892 0.514597
O20 O 0.4748(3) 0.6022(3) 0.58197(16)
O21 O 0.0546(3) 0.4833(3) 0.41645(16)
O22 O 0.3790(3) 0.3616(3) 0.54534(16)
C19 C 0.9388(5) 0.6153(4) 0.8140(2)
H10 H 0.856041 0.635029 0.830975
C20 C 0.9343(5) 0.5776(4) 0.7366(2)
H11 H 0.848832 0.571021 0.700727
H25 H 0.984929 0.708361 0.955907
O14 O 0.9454(3) 0.5167(3) 0.58355(16)
C19_2 C 0.0612(5) 0.3847(4) 0.1860(2)
H10_2 H 0.143959 0.364971 0.169025
C20_2 C 0.0657(5) 0.4224(4) 0.2634(2)
H11_2 H 0.151168 0.428979 0.299273
H25_2 H 0.015071 0.291639 0.044093
O10_2 O 0.8266(3) 0.4992(3) 0.38951(15)
N4_2 N 0.9406(4) 0.3758(3) 0.13483(18)
C3_2 C 0.8236(5) 0.4440(4) 0.2339(2)
H1_2 H 0.740942 0.465906 0.249562
C7_2 C 0.9430(4) 0.4816(4) 0.3718(2)
C10_2 C 0.7967(5) 0.2704(4) 0.0009(2)
C12_2 C 0.8239(4) 0.4054(4) 0.1574(2)
H2_2 H 0.740316 0.399968 0.120556
H5_2 H 0.665129 0.492133 0.011328
H6_2 H 0.835879 0.497814 0.025461
C15_2 C 0.9454(4) 0.4503(4) 0.2876(2)
C21_2 C 0.8611(7) 0.0857(5) 0.0210(3)
H13_2 H 0.890460 0.125121 0.075854
H14_2 H 0.811644 0.001588 0.011613
C29_2 C 0.9442(5) 0.3404(4) 0.0520(2)
H24_2 H 0.979166 0.413106 0.037035
O16_2 O 0.9221(3) 0.7010(3) 0.52237(19)
H28_2 H 0.906362 0.731102 0.483799
H29_2 H 0.920422 0.755492 0.564389
O17_2 O 0.7761(4) 0.3187(3) 0.46563(19)
H30_2 H 0.761922 0.289661 0.415261
H31_2 H 0.867216 0.319108 0.485403
O18 O 0.7194(3) 0.6562(3) 0.61208(16)
O19 O 0.6256(3) 0.4071(3) 0.57734(17)
N5_2 N 0.4769(4) 0.3183(3) 0.80319(19)
C2_2 C 0.7053(4) 0.3298(4) 0.9689(2)
C4_2 C 0.7574(5) 0.1459(4) 0.9843(2)
C5_2 C 0.5312(5) 0.1397(4) 0.9007(2)
C6_2 C 0.6235(5) 0.0809(4) 0.9348(2)
C8_2 C 0.4907(5) 0.3430(4) 0.6618(2)
C9_2 C 0.5724(4) 0.2629(4) 0.9183(2)
C11_2 C 0.4998(5) 0.3722(4) 0.5878(2)
C13_2 C 0.4724(5) 0.3263(4) 0.8844(2)
H3_2 H 0.500666 0.411268 0.914725
H4_2 H 0.370840 0.291423 0.887286
C14_2 C 0.7418(5) 0.4636(4) 0.9889(2)
H7_2 H 0.748096 0.487910 0.942783
C16_2 C 0.6134(5) 0.3363(4) 0.7095(2)
H8_2 H 0.703151 0.340289 0.693309
C17_2 C 0.6046(5) 0.3239(4) 0.7802(2)
H9_2 H 0.688230 0.319144 0.812882
H12_2 H 0.948122 0.091746 0.999047
C22_2 C 0.3554(5) 0.3184(4) 0.7563(3)
H15_2 H 0.265551 0.310226 0.772526
C23_2 C 0.3595(5) 0.3300(5) 0.6852(3)
H16_2 H 0.272870 0.329139 0.652245
C25_2 C 0.3860(5) 0.0695(5) 0.8468(3)
H19_2 H 0.316013 0.118479 0.850435
H20_2 H 0.400277 0.047497 0.794649
C1_2 C 0.5958(5) 0.6612(4) 0.6246(2)
N6_2 N 0.5772(5) 0.8811(3) 0.8390(2)
C18_2 C 0.5911(5) 0.7440(4) 0.6999(2)
C24_2 C 0.7151(5) 0.8278(5) 0.7468(3)
H17_2 H 0.805515 0.838512 0.731056
H18_2 H 0.347928 0.997150 0.860596
C26_2 C 0.4553(6) 0.8007(5) 0.7938(3)
H21_2 H 0.365967 0.791238 0.810660
C27_2 C 0.7049(5) 0.8959(5) 0.8170(3)
H22_2 H 0.789127 0.953373 0.849747
C28_2 C 0.4603(6) 0.7324(5) 0.7233(3)
H23_2 H 0.373911 0.677332 0.690774
C30_2 C 0.5713(6) 0.9472(4) 0.9179(3)
H26_2 H 0.469291 0.926243 0.924365
H27_2 H 0.632678 0.921386 0.954990
loop_
_geom_bond_atom_site_label_1
_geom_bond_atom_site_label_2
_geom_bond_site_symmetry_1
_geom_bond_site_symmetry_2
O1 N1 1_555 1_555
O2 N1 1_555 1_555
O3 N1 1_555 1_555
O1_2 N1_2 1_555 1_555
O2_2 N1_2 1_555 1_555
O3_2 N1_2 1_555 1_555
O4 N2 1_555 1_555
N2 O6 1_555 1_555
O4_2 N2_2 1_555 1_555
N2_2 O6_2 1_555 1_555
O7 N3 1_555 1_555
O8 N3 1_555 1_555
O9 N3 1_555 1_555
O7_2 N3_2 1_555 1_555
O8_2 N3_2 1_555 1_555
O9_2 N3_2 1_555 1_555
O11 C1 1_555 1_555
O13 C1 1_555 1_555
C1 C18 1_555 1_555
N6 C26 1_555 1_555
C18 C24 1_555 1_555
C24 H17 1_555 1_555
C26 H21 1_555 1_555
C27 N6 1_555 1_555
H22 C27 1_555 1_555
C28 C18 1_555 1_555
H23 C28 1_555 1_555
C30 N6 1_555 1_555
H26 C30 1_555 1_555
H27 C30 1_555 1_555
Y3 O11 1_555 1_555
Y6 O13 1_555 1_555
C24 C27 1_555 1_555
C26 C28 1_555 1_555
O12 C11 1_555 1_555
N5 C13 1_555 1_555
C2 C9 1_555 1_555
C4 C6 1_555 1_555
C5 C6 1_555 1_555
C8 C11 1_555 1_555
C9 C5 1_555 1_555
C11 O15 1_555 1_555
C13 C9 1_555 1_555
H3 C13 1_555 1_555
H4 C13 1_555 1_555
C14 C2 1_555 1_555
H7 C14 1_555 1_555
C16 C8 1_555 1_555
H8 C16 1_555 1_555
C17 N5 1_555 1_555
H9 C17 1_555 1_555
C22 N5 1_555 1_555
H15 C22 1_555 1_555
C23 C8 1_555 1_555
H16 C23 1_555 1_555
C25 C5 1_555 1_555
H19 C25 1_555 1_555
H20 C25 1_555 1_555
O15 Y6 1_555 1_555
Y3 O12 1_555 1_555
C16 C17 1_555 1_555
C22 C23 1_555 1_555
Y3 O10 1_555 1_555
O10 C7 1_555 1_555
N4 C12 1_555 1_555
C3 H1 1_555 1_555
C7 C15 1_555 1_555
C12 C3 1_555 1_555
H2 C12 1_555 1_555
C15 C3 1_555 1_555
H13 C21 1_555 1_555
H14 C21 1_555 1_555
C29 N4 1_555 1_555
H24 C29 1_555 1_555
O16 Y3 1_555 1_555
H28 O16 1_555 1_555
H29 O16 1_555 1_555
O17 Y3 1_555 1_555
H30 O17 1_555 1_555
H31 O17 1_555 1_555
O20 Y3 1_555 1_555
O21 Y3 1_555 1_555
O22 Y3 1_555 1_555
C10 C29 1_555 1_555
H10 C19 1_555 1_555
H11 C20 1_555 1_555
Y6 O14 1_555 1_555
C19 C20 1_555 1_555
H10_2 C19_2 1_555 1_555
H11_2 C20_2 1_555 1_555
C19_2 C20_2 1_555 1_555
Y6 O10_2 1_555 1_555
O10_2 C7_2 1_555 1_555
N4_2 C12_2 1_555 1_555
C3_2 H1_2 1_555 1_555
C7_2 C15_2 1_555 1_555
C12_2 C3_2 1_555 1_555
H2_2 C12_2 1_555 1_555
C15_2 C3_2 1_555 1_555
H13_2 C21_2 1_555 1_555
H14_2 C21_2 1_555 1_555
C29_2 N4_2 1_555 1_555
H24_2 C29_2 1_555 1_555
O16_2 Y6 1_555 1_555
H28_2 O16_2 1_555 1_555
H29_2 O16_2 1_555 1_555
O17_2 Y6 1_555 1_555
H30_2 O17_2 1_555 1_555
H31_2 O17_2 1_555 1_555
O18 Y6 1_555 1_555
O19 Y6 1_555 1_555
C10_2 C29_2 1_555 1_555
O19 C11_2 1_555 1_555
N5_2 C13_2 1_555 1_555
C2_2 C9_2 1_555 1_555
C4_2 C6_2 1_555 1_555
C5_2 C6_2 1_555 1_555
C8_2 C11_2 1_555 1_555
C9_2 C5_2 1_555 1_555
C11_2 O22 1_555 1_555
C13_2 C9_2 1_555 1_555
H3_2 C13_2 1_555 1_555
H4_2 C13_2 1_555 1_555
C14_2 C2_2 1_555 1_555
H7_2 C14_2 1_555 1_555
C16_2 C8_2 1_555 1_555
H8_2 C16_2 1_555 1_555
C17_2 N5_2 1_555 1_555
H9_2 C17_2 1_555 1_555
C22_2 N5_2 1_555 1_555
H15_2 C22_2 1_555 1_555
C23_2 C8_2 1_555 1_555
H16_2 C23_2 1_555 1_555
C25_2 C5_2 1_555 1_555
H19_2 C25_2 1_555 1_555
H20_2 C25_2 1_555 1_555
C16_2 C17_2 1_555 1_555
C22_2 C23_2 1_555 1_555
O18 C1_2 1_555 1_555
O20 C1_2 1_555 1_555
C1_2 C18_2 1_555 1_555
N6_2 C26_2 1_555 1_555
C18_2 C24_2 1_555 1_555
C24_2 H17_2 1_555 1_555
C26_2 H21_2 1_555 1_555
C27_2 N6_2 1_555 1_555
H22_2 C27_2 1_555 1_555
C28_2 C18_2 1_555 1_555
H23_2 C28_2 1_555 1_555
C30_2 N6_2 1_555 1_555
H26_2 C30_2 1_555 1_555
H27_2 C30_2 1_555 1_555
C24_2 C27_2 1_555 1_555
C26_2 C28_2 1_555 1_555

#END
