
###############################################################################
#
# This file contains modified crystal structure data generated from the
# MOF subset of the Cambridge Structural Database (CSD) v543 
# hosted by the Cambridge Crystallographic Data Centre (CCDC).
#
# This work is licensed under the Creative Commons
# Attribution-NonCommercial-ShareAlike 4.0 International License.
# To view a copy of this license, visit
# http://creativecommons.org/licenses/by-nc-sa/4.0/
# or send a letter to
# Creative Commons, PO Box 1866, Mountain View, CA 94042, USA.
#
# CIF created using the CSD Python API on 29 September 2022
# The structure has been converted into the P1 space group
# The structure has a 3D framework
# The original CSD entry MOCPAY is in the triclinic crystal system
# The framework has been calculated to contain at least 10.0% void space
# The void calculation uses a probe of radius 1.32A, grid spacing 0.4
#
###############################################################################

data_MOCPAY
_chemical_formula_moiety         '(C60 H62 N12 Nd2 O32)n'
_symmetry_cell_setting           triclinic
_symmetry_space_group_name_H-M   'P 1'
_symmetry_Int_Tables_number      1
_space_group_name_Hall           'P 1'
loop_
_symmetry_equiv_pos_site_id
_symmetry_equiv_pos_as_xyz
1 x,y,z
_cell_length_a                   9.5948(6)
_cell_length_b                   12.3229(9)
_cell_length_c                   18.8983(13)
_cell_angle_alpha                106.033(6)
_cell_angle_beta                 99.619(6)
_cell_angle_gamma                99.928(6)
_cell_volume                     2060.26
loop_
_atom_site_label
_atom_site_type_symbol
_atom_site_fract_x
_atom_site_fract_y
_atom_site_fract_z
H2 H 0.004185 0.261528 0.544989
C9 C 0.0609(4) 0.4156(4) 0.7618(2)
H5 H 0.147914 0.427700 0.798305
C16 C 0.0585(4) 0.3761(4) 0.6859(2)
H14 H 0.144125 0.361475 0.670016
O3 O 0.0452(3) 0.4786(3) 0.91351(14)
Nd3 Nd 0.26445(2) 0.48340(2) 0.99652(2)
Nd6 Nd 0.73555(2) 0.51660(2) 0.00348(2)
O1 O 0.3907(3) 0.3617(3) 0.04946(17)
O2 O 0.6346(3) 0.4128(3) 0.08418(17)
N1 N 0.9338(4) 0.3580(3) 0.63373(18)
N3 N 0.4896(4) 0.3351(3) 0.30699(19)
C1 C 0.5764(4) 0.2695(3) 0.4183(2)
C2 C 0.7413(4) 0.1375(4) 0.4814(2)
C3 C 0.8123(4) 0.3810(4) 0.6549(2)
H1 H 0.726482 0.368693 0.617613
C4 C 0.9404(4) 0.3170(5) 0.5516(2)
H3 H 0.984040 0.384210 0.537139
C5 C 0.7918(4) 0.2587(4) 0.4993(2)
C6 C 0.6057(4) 0.0837(3) 0.4309(2)
C7 C 0.8114(4) 0.4221(4) 0.7300(2)
H4 H 0.725789 0.439852 0.744578
C8 C 0.7110(4) 0.3255(3) 0.4690(2)
C11 C 0.4844(4) 0.3417(4) 0.3882(2)
H6 H 0.518752 0.423567 0.420781
H7 H 0.382522 0.314549 0.390583
C12 C 0.5238(4) 0.1498(3) 0.3986(2)
C13 C 0.8336(5) 0.0705(5) 0.5167(2)
H8 H 0.923391 0.073227 0.498299
H10 H 0.857465 0.105158 0.571783
C14 C 0.3787(5) 0.0917(4) 0.3432(2)
H11 H 0.326756 0.150975 0.335800
H12 H 0.320749 0.038927 0.363365
H13 H 0.394946 0.047715 0.294722
C15 C 0.5038(4) 0.3556(4) 0.1683(2)
C18 C 0.6274(4) 0.3516(4) 0.2166(2)
H16 H 0.717442 0.356131 0.201727
C23 C 0.5113(5) 0.3780(4) 0.0937(2)
C24 C 0.6176(4) 0.3409(4) 0.2866(2)
H22 H 0.701195 0.337565 0.320130
C25 C 0.7604(5) 0.4568(4) 0.4916(2)
H23 H 0.762459 0.480328 0.446270
H24 H 0.857870 0.482188 0.524801
H25 H 0.692609 0.492666 0.518486
C26 C 0.3725(5) 0.3448(5) 0.1906(3)
H26 H 0.285907 0.343560 0.157299
C27 C 0.3690(5) 0.3359(4) 0.2611(3)
H27 H 0.280058 0.330292 0.277120
O4 O 0.8169(3) 0.4927(3) 0.88500(15)
C28 C 0.9357(4) 0.4377(4) 0.7848(2)
C29 C 0.9329(4) 0.4727(3) 0.8682(2)
N2 N 0.5558(4) 0.8861(3) 0.33521(19)
C10 C 0.5848(4) 0.7478(4) 0.2000(2)
H9 H 0.780000 0.989680 0.502887
C17 C 0.4361(5) 0.8185(4) 0.2830(3)
H15 H 0.342740 0.818492 0.293594
C19 C 0.7049(5) 0.8207(4) 0.2529(2)
H17 H 0.798867 0.823239 0.242671
C20 C 0.5427(5) 0.9552(4) 0.4115(2)
H18 H 0.593133 0.926291 0.450230
H19 H 0.438782 0.942777 0.413318
C21 C 0.6887(5) 0.8902(4) 0.3208(2)
H20 H 0.771378 0.940926 0.357161
C22 C 0.4487(5) 0.7497(4) 0.2147(3)
H21 H 0.364194 0.703663 0.177595
H28 H 0.114714 0.244066 0.004689
O6 O 0.2185(4) 0.6806(3) 0.0328(2)
H30 H 0.282610 0.725384 0.074109
H31 H 0.134669 0.678443 0.046142
O7 O 0.7271(3) 0.6672(3) 0.11861(15)
O8 O 0.4877(3) 0.6033(3) 0.08078(16)
C30 C 0.6015(4) 0.6676(4) 0.1275(2)
O12 O 0.1831(3) 0.5073(3) 0.11500(15)
O5 O 0.0800(3) 0.2981(3) 0.9771(2)
H29 H 0.050307 0.240513 0.923778
O10 O 0.3654(3) 0.5872(3) 0.91582(17)
O13 O 0.2729(3) 0.3328(3) 0.88139(15)
O5_2 O 0.9200(3) 0.7019(3) 0.0229(2)
H29_2 H 0.949693 0.759487 0.076222
O11 O 0.9548(3) 0.5214(3) 0.08649(14)
N2_2 N 0.4442(4) 0.1139(3) 0.66479(19)
C10_2 C 0.4152(4) 0.2522(4) 0.8000(2)
H9_2 H 0.220000 0.010320 0.497113
C17_2 C 0.5639(5) 0.1815(4) 0.7170(3)
H15_2 H 0.657260 0.181508 0.706406
C19_2 C 0.2951(5) 0.1793(4) 0.7471(2)
H17_2 H 0.201133 0.176761 0.757329
C20_2 C 0.4573(5) 0.0448(4) 0.5885(2)
H18_2 H 0.406867 0.073709 0.549770
H19_2 H 0.561218 0.057223 0.586682
C21_2 C 0.3113(5) 0.1098(4) 0.6792(2)
H20_2 H 0.228622 0.059074 0.642839
C22_2 C 0.5513(5) 0.2503(4) 0.7853(3)
H21_2 H 0.635806 0.296337 0.822405
H28_2 H 0.885286 0.755934 0.995311
O6_2 O 0.7815(4) 0.3194(3) 0.9672(2)
H30_2 H 0.717390 0.274616 0.925891
H31_2 H 0.865331 0.321557 0.953858
O8_2 O 0.5123(3) 0.3967(3) 0.91922(16)
C30_2 C 0.3985(4) 0.3324(4) 0.8725(2)
O9 O 0.6093(3) 0.6383(3) 0.95054(17)
N1_2 N 0.0662(4) 0.6420(3) 0.36627(18)
N3_2 N 0.5104(4) 0.6649(3) 0.69301(19)
C1_2 C 0.4236(4) 0.7305(3) 0.5817(2)
C2_2 C 0.2587(4) 0.8625(4) 0.5186(2)
C3_2 C 0.1877(4) 0.6190(4) 0.3451(2)
H1_2 H 0.273518 0.631307 0.382387
C4_2 C 0.0596(4) 0.6830(5) 0.4484(2)
H3_2 H 0.015960 0.615790 0.462861
C5_2 C 0.2082(4) 0.7413(4) 0.5007(2)
C6_2 C 0.3943(4) 0.9163(3) 0.5691(2)
C7_2 C 0.1886(4) 0.5779(4) 0.2700(2)
H4_2 H 0.274211 0.560148 0.255422
C8_2 C 0.2890(4) 0.6745(3) 0.5310(2)
C11_2 C 0.5156(4) 0.6583(4) 0.6118(2)
H6_2 H 0.481248 0.576433 0.579219
H7_2 H 0.617478 0.685451 0.609417
C12_2 C 0.4762(4) 0.8502(3) 0.6014(2)
C13_2 C 0.1664(5) 0.9295(5) 0.4833(2)
H8_2 H 0.076609 0.926773 0.501701
H10_2 H 0.142535 0.894842 0.428217
C14_2 C 0.6213(5) 0.9083(4) 0.6568(2)
H11_2 H 0.673244 0.849025 0.664200
H12_2 H 0.679251 0.961073 0.636635
H13_2 H 0.605054 0.952285 0.705278
C15_2 C 0.4962(4) 0.6444(4) 0.8317(2)
C18_2 C 0.3726(4) 0.6484(4) 0.7834(2)
H16_2 H 0.282558 0.643869 0.798273
C23_2 C 0.4887(5) 0.6220(4) 0.9063(2)
C24_2 C 0.3824(4) 0.6591(4) 0.7134(2)
H22_2 H 0.298805 0.662435 0.679870
C25_2 C 0.2396(5) 0.5432(4) 0.5084(2)
H23_2 H 0.237541 0.519672 0.553730
H24_2 H 0.142130 0.517812 0.475199
H25_2 H 0.307391 0.507334 0.481514
C26_2 C 0.6275(5) 0.6552(5) 0.8094(3)
H26_2 H 0.714093 0.656440 0.842701
C27_2 C 0.6310(5) 0.6641(4) 0.7389(3)
H27_2 H 0.719942 0.669708 0.722880
C28_2 C 0.0643(4) 0.5623(4) 0.2152(2)
C29_2 C 0.0671(4) 0.5273(3) 0.1318(2)
H2_2 H 0.995815 0.738472 0.455011
C9_2 C 0.9391(4) 0.5844(4) 0.2382(2)
H5_2 H 0.852086 0.572300 0.201695
C16_2 C 0.9415(4) 0.6239(4) 0.3141(2)
H14_2 H 0.855875 0.638525 0.329984
O14 O 0.2692(4) 0.2511(4) 0.5703(2)
N4 N 0.3826(4) 0.3302(4) 0.5983(2)
O15 O 0.378(2) 0.4113(11) 0.6461(16)
O16 O 0.4831(8) 0.308(2) 0.5710(6)
O14_2 O 0.7308(4) 0.7489(4) 0.4297(2)
N4_2 N 0.6174(4) 0.6698(4) 0.4017(2)
O15_2 O 0.622(2) 0.5887(11) 0.3539(16)
O16_2 O 0.5169(8) 0.692(2) 0.4290(6)
O17 O 0.8636(6) 0.2108(4) 0.8231(2)
O18 O 0.8981(4) 0.1406(3) 0.7111(2)
N5 N 0.9163(5) 0.1448(4) 0.7776(3)
O19 O 0.9748(18) 0.0593(18) 0.7833(14)
O17_2 O 0.1364(6) 0.7892(4) 0.1769(2)
O18_2 O 0.1019(4) 0.8594(3) 0.2889(2)
N5_2 N 0.0837(5) 0.8552(4) 0.2224(3)
O19_2 O 0.0252(18) 0.9407(18) 0.2167(14)
O20 O 0.0138(16) 0.2495(13) 0.2005(8)
O22 O 0.0472(16) 0.1943(14) 0.0869(8)
N6 N 0.9928(17) 0.2479(15) 0.1346(8)
O21 O 0.8837(15) 0.2841(13) 0.1194(8)
N6_2 N 0.0072(17) 0.7521(15) 0.8654(8)
O21_2 O 0.1163(15) 0.7159(13) 0.8806(8)
O20_2 O 0.9862(16) 0.7505(13) 0.7995(8)
O22_2 O 0.9528(16) 0.8057(14) 0.9131(8)
loop_
_geom_bond_atom_site_label_1
_geom_bond_atom_site_label_2
_geom_bond_site_symmetry_1
_geom_bond_site_symmetry_2
C9 H5 1_555 1_555
H14 C16 1_555 1_555
Nd3 O3 1_555 1_555
C9 C16 1_555 1_555
O1 C23 1_555 1_555
O2 C23 1_555 1_555
N1 C3 1_555 1_555
N3 C11 1_555 1_555
C1 C8 1_555 1_555
C2 C5 1_555 1_555
C3 H1 1_555 1_555
C4 N1 1_555 1_555
H3 C4 1_555 1_555
C5 C4 1_555 1_555
C6 C2 1_555 1_555
C7 C3 1_555 1_555
H4 C7 1_555 1_555
C8 C5 1_555 1_555
C11 C1 1_555 1_555
H6 C11 1_555 1_555
H7 C11 1_555 1_555
C12 C1 1_555 1_555
C13 C2 1_555 1_555
H8 C13 1_555 1_555
H10 C13 1_555 1_555
C14 C12 1_555 1_555
H11 C14 1_555 1_555
H12 C14 1_555 1_555
H13 C14 1_555 1_555
C15 C18 1_555 1_555
C18 H16 1_555 1_555
C23 C15 1_555 1_555
C24 N3 1_555 1_555
H22 C24 1_555 1_555
C25 C8 1_555 1_555
H23 C25 1_555 1_555
H24 C25 1_555 1_555
H25 C25 1_555 1_555
C26 C15 1_555 1_555
H26 C26 1_555 1_555
C27 N3 1_555 1_555
H27 C27 1_555 1_555
O4 C29 1_555 1_555
C28 C7 1_555 1_555
C29 C28 1_555 1_555
Nd6 O2 1_555 1_555
C6 C12 1_555 1_555
C18 C24 1_555 1_555
C26 C27 1_555 1_555
N2 C17 1_555 1_555
C10 C19 1_555 1_555
C17 H15 1_555 1_555
C19 H17 1_555 1_555
C20 N2 1_555 1_555
H18 C20 1_555 1_555
H19 C20 1_555 1_555
C21 N2 1_555 1_555
H20 C21 1_555 1_555
C22 C10 1_555 1_555
H21 C22 1_555 1_555
H30 O6 1_555 1_555
H31 O6 1_555 1_555
O7 C30 1_555 1_555
C30 C10 1_555 1_555
Nd6 O7 1_555 1_555
C17 C22 1_555 1_555
C19 C21 1_555 1_555
O8 C30 1_555 1_555
Nd3 O5 1_555 1_555
H29 O5 1_555 1_555
O10 Nd3 1_555 1_555
O13 Nd3 1_555 1_555
Nd6 O5_2 1_555 1_555
H29_2 O5_2 1_555 1_555
O11 Nd6 1_555 1_555
N2_2 C17_2 1_555 1_555
C10_2 C19_2 1_555 1_555
C17_2 H15_2 1_555 1_555
C19_2 H17_2 1_555 1_555
C20_2 N2_2 1_555 1_555
H18_2 C20_2 1_555 1_555
H19_2 C20_2 1_555 1_555
C21_2 N2_2 1_555 1_555
H20_2 C21_2 1_555 1_555
C22_2 C10_2 1_555 1_555
H21_2 C22_2 1_555 1_555
H30_2 O6_2 1_555 1_555
H31_2 O6_2 1_555 1_555
O13 C30_2 1_555 1_555
C30_2 C10_2 1_555 1_555
C17_2 C22_2 1_555 1_555
C19_2 C21_2 1_555 1_555
O8_2 C30_2 1_555 1_555
O9 C23_2 1_555 1_555
O10 C23_2 1_555 1_555
N1_2 C3_2 1_555 1_555
N3_2 C11_2 1_555 1_555
C1_2 C8_2 1_555 1_555
C2_2 C5_2 1_555 1_555
C3_2 H1_2 1_555 1_555
C4_2 N1_2 1_555 1_555
H3_2 C4_2 1_555 1_555
C5_2 C4_2 1_555 1_555
C6_2 C2_2 1_555 1_555
C7_2 C3_2 1_555 1_555
H4_2 C7_2 1_555 1_555
C8_2 C5_2 1_555 1_555
C11_2 C1_2 1_555 1_555
H6_2 C11_2 1_555 1_555
H7_2 C11_2 1_555 1_555
C12_2 C1_2 1_555 1_555
C13_2 C2_2 1_555 1_555
H8_2 C13_2 1_555 1_555
H10_2 C13_2 1_555 1_555
C14_2 C12_2 1_555 1_555
H11_2 C14_2 1_555 1_555
H12_2 C14_2 1_555 1_555
H13_2 C14_2 1_555 1_555
C15_2 C18_2 1_555 1_555
C18_2 H16_2 1_555 1_555
C23_2 C15_2 1_555 1_555
C24_2 N3_2 1_555 1_555
H22_2 C24_2 1_555 1_555
C25_2 C8_2 1_555 1_555
H23_2 C25_2 1_555 1_555
H24_2 C25_2 1_555 1_555
H25_2 C25_2 1_555 1_555
C26_2 C15_2 1_555 1_555
H26_2 C26_2 1_555 1_555
C27_2 N3_2 1_555 1_555
H27_2 C27_2 1_555 1_555
O12 C29_2 1_555 1_555
C28_2 C7_2 1_555 1_555
C29_2 C28_2 1_555 1_555
C6_2 C12_2 1_555 1_555
C18_2 C24_2 1_555 1_555
C26_2 C27_2 1_555 1_555
C9_2 H5_2 1_555 1_555
H14_2 C16_2 1_555 1_555
C9_2 C16_2 1_555 1_555
O14 N4 1_555 1_555
N4 O15 1_555 1_555
O16 N4 1_555 1_555
O14_2 N4_2 1_555 1_555
N4_2 O15_2 1_555 1_555
O16_2 N4_2 1_555 1_555
O17 N5 1_555 1_555
O18 N5 1_555 1_555
N5 O19 1_555 1_555
O17_2 N5_2 1_555 1_555
O18_2 N5_2 1_555 1_555
N5_2 O19_2 1_555 1_555
O21 N6 1_555 1_555
O21_2 N6_2 1_555 1_555

#END
