
###############################################################################
#
# This file contains modified crystal structure data generated from the
# MOF subset of the Cambridge Structural Database (CSD) v543 
# hosted by the Cambridge Crystallographic Data Centre (CCDC).
#
# This work is licensed under the Creative Commons
# Attribution-NonCommercial-ShareAlike 4.0 International License.
# To view a copy of this license, visit
# http://creativecommons.org/licenses/by-nc-sa/4.0/
# or send a letter to
# Creative Commons, PO Box 1866, Mountain View, CA 94042, USA.
#
# CIF created using the CSD Python API on 29 September 2022
# The structure has been converted into the P1 space group
# The structure has a 3D framework
# The original CSD entry MOCTUW is in the triclinic crystal system
# The framework has been calculated to contain at least 10.0% void space
# The void calculation uses a probe of radius 1.32A, grid spacing 0.4
#
###############################################################################

data_MOCTUW
_chemical_formula_moiety         '(C62 H62 Br4 F6 La2 N6 O22 S2)n'
_symmetry_cell_setting           triclinic
_symmetry_space_group_name_H-M   'P 1'
_symmetry_Int_Tables_number      1
_space_group_name_Hall           'P 1'
loop_
_symmetry_equiv_pos_site_id
_symmetry_equiv_pos_as_xyz
1 x,y,z
_cell_length_a                   9.6013(3)
_cell_length_b                   14.3577(3)
_cell_length_c                   18.7825(5)
_cell_angle_alpha                106.592(2)
_cell_angle_beta                 102.854(2)
_cell_angle_gamma                99.256(2)
_cell_volume                     2348.43
loop_
_atom_site_label
_atom_site_type_symbol
_atom_site_fract_x
_atom_site_fract_y
_atom_site_fract_z
Br1 Br 0.70302(9) 0.57376(7) 0.69839(5)
Br1_2 Br 0.29698(9) 0.42624(7) 0.30161(5)
Br2 Br 0.78144(11) 0.07387(7) 0.68808(5)
Br2_2 Br 0.21856(11) 0.92613(7) 0.31192(5)
S1 S 0.2027(6) 0.7384(4) 0.6027(2)
F1 F 0.3248(7) 0.9125(4) 0.5881(4)
F2 F 0.0878(7) 0.8856(4) 0.5731(4)
O1 O 0.3173(7) 0.7005(5) 0.5768(4)
O2 O 0.0601(7) 0.6766(5) 0.5685(4)
F3 F 0.1678(8) 0.8091(5) 0.4832(4)
O3 O 0.2462(9) 0.7992(6) 0.6844(4)
C1 C 0.1989(10) 0.8427(6) 0.5598(6)
S1_2 S 0.7973(6) 0.2616(4) 0.3973(2)
F1_2 F 0.6752(7) 0.0875(4) 0.4119(4)
F2_2 F 0.9122(7) 0.1144(4) 0.4269(4)
O1_2 O 0.6827(7) 0.2995(5) 0.4232(4)
O2_2 O 0.9399(7) 0.3234(5) 0.4315(4)
F3_2 F 0.8322(8) 0.1909(5) 0.5168(4)
O3_2 O 0.7538(9) 0.2008(6) 0.3156(4)
C1_2 C 0.8011(10) 0.1573(6) 0.4402(6)
H30 H 0.225272 0.192954 0.009541
O15 O 0.1296(5) 0.0514(3) 0.0904(2)
O17 O 0.4488(5) 0.1549(3) 0.0997(2)
O11 O 0.2116(6) 0.1392(4) 0.9673(3)
H31 H 0.114220 0.125584 0.943927
O14 O 0.4364(5) 0.0276(3) 0.9223(2)
La1 La 0.27801(3) 0.99184(2) 0.00502(2)
O10 O 0.1039(6) 0.8337(3) 0.0036(3)
O12 O 0.3724(5) 0.9379(4) 0.1218(2)
O13 O 0.5636(5) 0.9724(3) 0.0777(2)
H1 H 0.030195 0.836671 0.739197
H9 H 0.043505 0.705210 0.334495
O6 O 0.0767(5) 0.9248(4) 0.8802(2)
H28 H 0.144309 0.783259 0.993174
H29 H 0.024619 0.817173 0.965099
O16 O 0.3407(5) 0.8386(3) 0.9352(2)
La6 La 0.72199(3) 0.00816(2) 0.99498(2)
C2 C 0.7449(7) 0.6278(4) 0.4561(3)
N1 N 0.7041(6) 0.7810(4) 0.6245(3)
C3 C 0.8563(6) 0.8692(4) 0.7780(3)
C4 C 0.5050(7) 0.9452(5) 0.1259(3)
N2 N 0.8102(6) 0.4487(4) 0.3065(3)
C5 C 0.7020(7) 0.7165(5) 0.4840(3)
N3 N 0.7765(6) 0.8866(4) 0.3121(3)
C6 C 0.8245(7) 0.6192(4) 0.4017(3)
C7 C 0.9273(7) 0.8314(4) 0.7236(3)
C8 C 0.8182(8) 0.7870(4) 0.4028(3)
C9 C 0.6024(7) 0.9246(5) 0.1909(3)
C10 C 0.8953(7) 0.5319(4) 0.3806(4)
H2 H 0.994076 0.557397 0.376284
H3 H 0.908902 0.503935 0.423420
C11 C 0.8486(7) 0.7864(5) 0.6471(3)
H4 H 0.896895 0.758963 0.609981
C12 C 0.5852(7) 0.3421(4) 0.2208(4)
H5 H 0.480720 0.324239 0.205974
C13 C 0.7064(7) 0.8609(5) 0.7528(3)
H6 H 0.654838 0.885823 0.789019
C14 C 0.6615(7) 0.4233(4) 0.2847(4)
H7 H 0.609411 0.462216 0.313980
C15 C 0.8575(7) 0.6971(4) 0.3725(3)
C16 C 0.8159(7) 0.3149(5) 0.2000(4)
H8 H 0.869844 0.278905 0.169977
C17 C 0.9370(8) 0.6844(5) 0.3102(4)
H10 H 0.908712 0.725858 0.278619
H11 H 0.909892 0.613982 0.277108
C18 C 0.8777(8) 0.8753(5) 0.3806(4)
H12 H 0.898580 0.937226 0.425456
H13 H 0.972063 0.868289 0.369182
C19 C 0.7532(8) 0.9516(5) 0.2086(4)
H14 H 0.798065 0.983736 0.178758
C20 C 0.6326(7) 0.8167(5) 0.6758(4)
H15 H 0.529864 0.811298 0.658637
C21 C 0.8394(8) 0.9324(5) 0.2692(4)
H16 H 0.943589 0.951226 0.281026
C22 C 0.7432(8) 0.7979(5) 0.4583(3)
C23 C 0.5403(8) 0.8773(6) 0.2349(4)
H17 H 0.436383 0.857956 0.224035
C24 C 0.8877(7) 0.3953(5) 0.2651(4)
H18 H 0.992179 0.413941 0.281410
C25 C 0.7068(10) 0.5424(5) 0.4867(4)
H19 H 0.752483 0.488581 0.465462
H20 H 0.599701 0.516779 0.470966
H21 H 0.743565 0.566937 0.543376
C26 C 0.6140(8) 0.7274(5) 0.5407(3)
H22 H 0.560495 0.659917 0.535939
H23 H 0.539724 0.764609 0.527016
C27 C 0.7038(11) 0.8956(6) 0.4933(4)
H24 H 0.596635 0.884433 0.482138
H25 H 0.740688 0.944962 0.470890
H26 H 0.748692 0.920634 0.549507
C28 C 0.6311(9) 0.8584(6) 0.2952(4)
H27 H 0.588509 0.824648 0.324804
O7 O 0.8704(5) 0.9486(3) 0.9096(2)
O8 O 0.6593(5) 0.1614(3) 0.0648(2)
C29 C 0.9408(6) 0.9180(4) 0.8631(3)
C30 C 0.6621(7) 0.2860(4) 0.1779(3)
C31 C 0.5820(7) 0.1934(4) 0.1082(3)
O4 O 0.6276(5) 0.0621(4) 0.8782(2)
C2_2 C 0.2551(7) 0.3722(4) 0.5439(3)
N1_2 N 0.2959(6) 0.2190(4) 0.3755(3)
C3_2 C 0.1437(6) 0.1308(4) 0.2220(3)
C4_2 C 0.4950(7) 0.0548(5) 0.8741(3)
N2_2 N 0.1898(6) 0.5513(4) 0.6935(3)
C5_2 C 0.2980(7) 0.2835(5) 0.5160(3)
N3_2 N 0.2235(6) 0.1134(4) 0.6879(3)
C6_2 C 0.1755(7) 0.3808(4) 0.5983(3)
C7_2 C 0.0727(7) 0.1686(4) 0.2764(3)
C8_2 C 0.1818(8) 0.2130(4) 0.5972(3)
C9_2 C 0.3976(7) 0.0754(5) 0.8091(3)
C10_2 C 0.1047(7) 0.4681(4) 0.6194(4)
H2_2 H 0.005924 0.442603 0.623716
H3_2 H 0.091098 0.496065 0.576580
C11_2 C 0.1514(7) 0.2136(5) 0.3529(3)
H4_2 H 0.103105 0.241037 0.390019
C12_2 C 0.4148(7) 0.6579(4) 0.7792(4)
H5_2 H 0.519280 0.675761 0.794026
C13_2 C 0.2936(7) 0.1391(5) 0.2472(3)
H6_2 H 0.345162 0.114177 0.210981
C14_2 C 0.3385(7) 0.5767(4) 0.7153(4)
H7_2 H 0.390589 0.537784 0.686020
C15_2 C 0.1425(7) 0.3029(4) 0.6275(3)
C16_2 C 0.1841(7) 0.6851(5) 0.8000(4)
H8_2 H 0.130156 0.721095 0.830023
C17_2 C 0.0630(8) 0.3156(5) 0.6898(4)
H10_2 H 0.091288 0.274142 0.721381
H11_2 H 0.090108 0.386018 0.722892
C18_2 C 0.1223(8) 0.1247(5) 0.6194(4)
H12_2 H 0.101420 0.062774 0.574544
H13_2 H 0.027937 0.131711 0.630818
C19_2 C 0.2468(8) 0.0484(5) 0.7914(4)
H14_2 H 0.201935 0.016264 0.821242
C20_2 C 0.3674(7) 0.1833(5) 0.3242(4)
H15_2 H 0.470136 0.188702 0.341363
C21_2 C 0.1606(8) 0.0676(5) 0.7308(4)
H16_2 H 0.056411 0.048774 0.718974
C22_2 C 0.2568(8) 0.2021(5) 0.5417(3)
C23_2 C 0.4597(8) 0.1227(6) 0.7651(4)
H17_2 H 0.563617 0.142044 0.775965
C24_2 C 0.1123(7) 0.6047(5) 0.7349(4)
H18_2 H 0.007821 0.586059 0.718590
C25_2 C 0.2932(10) 0.4576(5) 0.5133(4)
H19_2 H 0.247517 0.511419 0.534538
H20_2 H 0.400299 0.483221 0.529034
H21_2 H 0.256435 0.433063 0.456624
C26_2 C 0.3860(8) 0.2726(5) 0.4593(3)
H22_2 H 0.439505 0.340083 0.464061
H23_2 H 0.460276 0.235391 0.472984
C27_2 C 0.2962(11) 0.1044(6) 0.5067(4)
H24_2 H 0.403365 0.115567 0.517862
H25_2 H 0.259312 0.055038 0.529110
H26_2 H 0.251308 0.079366 0.450493
C28_2 C 0.3689(9) 0.1416(6) 0.7048(4)
H27_2 H 0.411491 0.175352 0.675196
O9 O 0.5512(5) 0.8451(3) 0.9003(2)
C29_2 C 0.0592(6) 0.0820(4) 0.1369(3)
C30_2 C 0.3379(7) 0.7140(4) 0.8221(3)
C31_2 C 0.4180(7) 0.8066(4) 0.8918(3)
H1_2 H 0.969805 0.163329 0.260803
H9_2 H 0.956495 0.294790 0.665505
O6_2 O 0.9233(5) 0.0752(4) 0.1198(2)
H28_2 H 0.855691 0.216741 0.006826
H29_2 H 0.975381 0.182827 0.034901
O10_2 O 0.8961(6) 0.1663(3) 0.9964(3)
O11_2 O 0.7884(6) 0.8608(4) 0.0327(3)
H31_2 H 0.885780 0.874416 0.056073
H30_2 H 0.774728 0.807046 0.990459
loop_
_geom_bond_atom_site_label_1
_geom_bond_atom_site_label_2
_geom_bond_site_symmetry_1
_geom_bond_site_symmetry_2
S1 O1 1_555 1_555
F1 C1 1_555 1_555
F2 C1 1_555 1_555
O2 S1 1_555 1_555
F3 C1 1_555 1_555
O3 S1 1_555 1_555
C1 S1 1_555 1_555
S1_2 O1_2 1_555 1_555
F1_2 C1_2 1_555 1_555
F2_2 C1_2 1_555 1_555
O2_2 S1_2 1_555 1_555
F3_2 C1_2 1_555 1_555
O3_2 S1_2 1_555 1_555
C1_2 S1_2 1_555 1_555
H31 O11 1_555 1_555
O10 La1 1_555 1_555
O12 La1 1_555 1_555
O13 La1 1_555 1_555
O12 C4 1_555 1_555
O13 C4 1_555 1_555
C2 C5 1_555 1_555
N1 C11 1_555 1_555
C3 C7 1_555 1_555
C4 C9 1_555 1_555
N2 C10 1_555 1_555
C5 C22 1_555 1_555
N3 C18 1_555 1_555
C6 C2 1_555 1_555
C8 C15 1_555 1_555
C9 C19 1_555 1_555
C10 C6 1_555 1_555
H2 C10 1_555 1_555
H3 C10 1_555 1_555
C11 C7 1_555 1_555
H4 C11 1_555 1_555
C12 H5 1_555 1_555
C13 C3 1_555 1_555
H6 C13 1_555 1_555
C14 N2 1_555 1_555
H7 C14 1_555 1_555
C15 C6 1_555 1_555
C16 H8 1_555 1_555
C17 C15 1_555 1_555
H10 C17 1_555 1_555
H11 C17 1_555 1_555
C18 C8 1_555 1_555
H12 C18 1_555 1_555
H13 C18 1_555 1_555
C19 H14 1_555 1_555
C20 N1 1_555 1_555
H15 C20 1_555 1_555
C21 N3 1_555 1_555
H16 C21 1_555 1_555
C22 C8 1_555 1_555
C23 C9 1_555 1_555
H17 C23 1_555 1_555
C24 N2 1_555 1_555
H18 C24 1_555 1_555
C25 C2 1_555 1_555
H19 C25 1_555 1_555
H20 C25 1_555 1_555
H21 C25 1_555 1_555
C26 N1 1_555 1_555
H22 C26 1_555 1_555
H23 C26 1_555 1_555
C27 C22 1_555 1_555
H24 C27 1_555 1_555
H25 C27 1_555 1_555
H26 C27 1_555 1_555
C28 N3 1_555 1_555
H27 C28 1_555 1_555
O7 C29 1_555 1_555
O8 C31 1_555 1_555
O17 C31 1_555 1_555
C29 C3 1_555 1_555
C30 C12 1_555 1_555
C31 C30 1_555 1_555
C5 C26 1_555 1_555
C12 C14 1_555 1_555
C13 C20 1_555 1_555
C16 C24 1_555 1_555
C16 C30 1_555 1_555
C19 C21 1_555 1_555
C23 C28 1_555 1_555
O4 C4_2 1_555 1_555
O14 C4_2 1_555 1_555
C2_2 C5_2 1_555 1_555
N1_2 C11_2 1_555 1_555
C3_2 C7_2 1_555 1_555
C4_2 C9_2 1_555 1_555
N2_2 C10_2 1_555 1_555
C5_2 C22_2 1_555 1_555
N3_2 C18_2 1_555 1_555
C6_2 C2_2 1_555 1_555
C8_2 C15_2 1_555 1_555
C9_2 C19_2 1_555 1_555
C10_2 C6_2 1_555 1_555
H2_2 C10_2 1_555 1_555
H3_2 C10_2 1_555 1_555
C11_2 C7_2 1_555 1_555
H4_2 C11_2 1_555 1_555
C12_2 H5_2 1_555 1_555
C13_2 C3_2 1_555 1_555
H6_2 C13_2 1_555 1_555
C14_2 N2_2 1_555 1_555
H7_2 C14_2 1_555 1_555
C15_2 C6_2 1_555 1_555
C16_2 H8_2 1_555 1_555
C17_2 C15_2 1_555 1_555
H10_2 C17_2 1_555 1_555
H11_2 C17_2 1_555 1_555
C18_2 C8_2 1_555 1_555
H12_2 C18_2 1_555 1_555
H13_2 C18_2 1_555 1_555
C19_2 H14_2 1_555 1_555
C20_2 N1_2 1_555 1_555
H15_2 C20_2 1_555 1_555
C21_2 N3_2 1_555 1_555
H16_2 C21_2 1_555 1_555
C22_2 C8_2 1_555 1_555
C23_2 C9_2 1_555 1_555
H17_2 C23_2 1_555 1_555
C24_2 N2_2 1_555 1_555
H18_2 C24_2 1_555 1_555
C25_2 C2_2 1_555 1_555
H19_2 C25_2 1_555 1_555
H20_2 C25_2 1_555 1_555
H21_2 C25_2 1_555 1_555
C26_2 N1_2 1_555 1_555
H22_2 C26_2 1_555 1_555
H23_2 C26_2 1_555 1_555
C27_2 C22_2 1_555 1_555
H24_2 C27_2 1_555 1_555
H25_2 C27_2 1_555 1_555
H26_2 C27_2 1_555 1_555
C28_2 N3_2 1_555 1_555
H27_2 C28_2 1_555 1_555
O15 C29_2 1_555 1_555
O16 C31_2 1_555 1_555
O9 C31_2 1_555 1_555
C29_2 C3_2 1_555 1_555
C30_2 C12_2 1_555 1_555
C31_2 C30_2 1_555 1_555
La6 O4 1_555 1_555
O14 La6 1_555 1_555
C5_2 C26_2 1_555 1_555
C12_2 C14_2 1_555 1_555
C13_2 C20_2 1_555 1_555
C16_2 C24_2 1_555 1_555
C16_2 C30_2 1_555 1_555
C19_2 C21_2 1_555 1_555
C23_2 C28_2 1_555 1_555
O10_2 La6 1_555 1_555
H31_2 O11_2 1_555 1_555

#END
