
###############################################################################
#
# This file contains modified crystal structure data generated from the
# MOF subset of the Cambridge Structural Database (CSD) v543 
# hosted by the Cambridge Crystallographic Data Centre (CCDC).
#
# This work is licensed under the Creative Commons
# Attribution-NonCommercial-ShareAlike 4.0 International License.
# To view a copy of this license, visit
# http://creativecommons.org/licenses/by-nc-sa/4.0/
# or send a letter to
# Creative Commons, PO Box 1866, Mountain View, CA 94042, USA.
#
# CIF created using the CSD Python API on 29 September 2022
# The structure has been converted into the P1 space group
# The structure has a 3D framework
# The original CSD entry MOCTIK is in the triclinic crystal system
# The framework has been calculated to contain at least 10.0% void space
# The void calculation uses a probe of radius 1.32A, grid spacing 0.4
#
###############################################################################

data_MOCTIK
_chemical_formula_moiety         'C62 H62 Br4 Eu2 F6 N6 O22 S2'
_symmetry_cell_setting           triclinic
_symmetry_space_group_name_H-M   'P 1'
_symmetry_Int_Tables_number      1
_space_group_name_Hall           'P 1'
loop_
_symmetry_equiv_pos_site_id
_symmetry_equiv_pos_as_xyz
1 x,y,z
_cell_length_a                   9.5897(3)
_cell_length_b                   14.3802(7)
_cell_length_c                   18.8257(8)
_cell_angle_alpha                107.624(4)
_cell_angle_beta                 103.176(3)
_cell_angle_gamma                99.794(3)
_cell_volume                     2327.76
loop_
_atom_site_label
_atom_site_type_symbol
_atom_site_fract_x
_atom_site_fract_y
_atom_site_fract_z
Br1 Br 0.21123(9) 0.58544(7) 0.70629(5)
Br1_2 Br 0.78877(9) 0.41456(7) 0.29371(5)
Br2 Br 0.26852(9) 0.08124(7) 0.68771(5)
Br2_2 Br 0.73148(9) 0.91876(7) 0.31229(5)
S1 S 0.2991(3) 0.25934(19) 0.39957(13)
F1 F 0.4031(6) 0.1120(3) 0.4270(3)
F2 F 0.1703(5) 0.0921(4) 0.4143(3)
O1 O 0.4462(6) 0.3225(4) 0.4319(3)
O2 O 0.1896(5) 0.3057(4) 0.4269(3)
F3 F 0.3331(6) 0.1970(4) 0.5203(3)
O3 O 0.2510(7) 0.1992(5) 0.3172(3)
C1 C 0.3019(8) 0.1595(6) 0.4416(5)
S1_2 S 0.7009(3) 0.74066(19) 0.60043(13)
F1_2 F 0.5969(6) 0.8880(3) 0.5730(3)
F2_2 F 0.8297(5) 0.9079(4) 0.5857(3)
O1_2 O 0.5538(6) 0.6775(4) 0.5681(3)
O2_2 O 0.8104(5) 0.6943(4) 0.5731(3)
F3_2 F 0.6669(6) 0.8030(4) 0.4797(3)
O3_2 O 0.7490(7) 0.8008(5) 0.6828(3)
C1_2 C 0.6981(8) 0.8405(6) 0.5584(5)
Eu3 Eu 0.22776(3) 0.01237(2) 0.99442(2)
H30 H 0.439366 0.208803 0.039927
O14 O 0.1613(4) 0.1580(3) 0.0615(2)
O16 O 0.4272(4) 0.0801(3) 0.1142(2)
O7 O 0.1081(4) 0.0584(3) 0.8862(2)
O8 O 0.0466(4) 0.8592(3) 0.9024(2)
H8 H 0.025188 0.691373 0.795276
H12 H 0.055689 0.132105 0.778209
O11 O 0.3942(5) 0.1632(3) 0.9917(2)
H31 H 0.344078 0.194351 0.963766
O10 O 0.3031(6) 0.8671(4) 0.0192(3)
H28 H 0.240481 0.837463 0.037235
H29 H 0.390000 0.886882 0.053193
O12 O 0.0905(4) 0.9692(3) 0.0747(2)
O13 O 0.3700(4) 0.9577(3) 0.9118(2)
Eu6 Eu 0.77224(3) 0.98763(2) 0.00558(2)
O4 O 0.9095(4) 0.0308(3) 0.9253(2)
O5 O 0.6300(4) 0.0423(3) 0.0882(2)
O6 O 0.8387(4) 0.8420(3) 0.9385(2)
N1 N 0.7985(5) 0.2106(4) 0.3759(2)
C2 C 0.6142(6) 0.4692(4) 0.6159(3)
H1 H 0.512651 0.443960 0.617517
H2 H 0.605444 0.495524 0.572701
C3 C 0.8411(6) 0.7221(4) 0.8227(3)
C4 C 0.6546(6) 0.2076(5) 0.3522(3)
H3 H 0.607162 0.235878 0.389540
N2 N 0.6978(5) 0.5555(3) 0.6919(2)
C5 C 0.6457(6) 0.1255(4) 0.2198(3)
C6 C 0.6860(6) 0.6878(4) 0.7985(3)
H4 H 0.629547 0.721930 0.827921
C7 C 0.5608(6) 0.0784(4) 0.1331(3)
C8 C 0.8007(6) 0.2760(5) 0.5171(3)
C9 C 0.6834(6) 0.3816(4) 0.5980(3)
C10 C 0.6838(6) 0.2143(4) 0.5996(3)
C11 C 0.7941(6) 0.1303(4) 0.2454(3)
H5 H 0.844172 0.104036 0.208842
C12 C 0.5746(6) 0.1642(4) 0.2744(3)
H6 H 0.471859 0.160657 0.258244
N3 N 0.7177(6) 0.1167(4) 0.6925(3)
C13 C 0.8699(6) 0.1729(5) 0.3235(3)
H7 H 0.972326 0.176121 0.340913
C14 C 0.9201(6) 0.6697(4) 0.7799(3)
C15 C 0.7625(6) 0.3679(4) 0.5433(3)
C16 C 0.7592(7) 0.1984(4) 0.5434(3)
C17 C 0.8445(6) 0.5848(4) 0.7140(3)
H9 H 0.898182 0.547458 0.684625
C18 C 0.6185(7) 0.1273(4) 0.6220(3)
H10 H 0.524136 0.136421 0.632384
H11 H 0.595098 0.063707 0.576925
C19 C 0.9512(7) 0.1179(5) 0.7682(4)
C20 C 0.8846(6) 0.0775(4) 0.8142(3)
C21 C 0.9160(6) 0.8163(4) 0.8940(3)
C22 C 0.7331(7) 0.0594(6) 0.7986(4)
H13 H 0.685479 0.034046 0.830469
C23 C 0.6483(6) 0.3061(4) 0.6289(3)
C24 C 0.8643(7) 0.1371(6) 0.7077(4)
H14 H 0.909832 0.165327 0.676517
C25 C 0.8032(8) 0.4491(5) 0.5109(4)
H15 H 0.911386 0.472836 0.525553
H16 H 0.762189 0.505622 0.532257
H17 H 0.762625 0.421626 0.453889
C26 C 0.5717(7) 0.3238(5) 0.6917(3)
H18 H 0.597888 0.396140 0.722373
H19 H 0.603262 0.287026 0.726047
H20 H 0.464081 0.299634 0.667522
C27 C 0.6510(7) 0.0779(5) 0.7369(4)
H21 H 0.546164 0.063303 0.725256
C28 C 0.8910(7) 0.2618(5) 0.4602(3)
H22 H 0.951462 0.328672 0.466968
H23 H 0.959851 0.221086 0.472897
C29 C 0.7937(9) 0.0981(5) 0.5103(4)
H24 H 0.755783 0.073005 0.453170
H25 H 0.746553 0.049409 0.530013
H26 H 0.901276 0.107084 0.526176
C30 C 0.6161(6) 0.6042(4) 0.7317(3)
H27 H 0.511035 0.581284 0.713946
C31 C 0.9741(6) 0.0536(4) 0.8800(3)
O9 O 0.5728(4) 0.9199(3) 0.8858(2)
N1_2 N 0.2015(5) 0.7894(4) 0.6241(2)
C2_2 C 0.3858(6) 0.5308(4) 0.3841(3)
H1_2 H 0.487349 0.556040 0.382483
H2_2 H 0.394556 0.504476 0.427299
C3_2 C 0.1589(6) 0.2779(4) 0.1773(3)
C4_2 C 0.3454(6) 0.7924(5) 0.6478(3)
H3_2 H 0.392838 0.764122 0.610460
N2_2 N 0.3022(5) 0.4445(3) 0.3081(2)
C5_2 C 0.3543(6) 0.8745(4) 0.7802(3)
C6_2 C 0.3140(6) 0.3122(4) 0.2015(3)
H4_2 H 0.370453 0.278070 0.172079
C7_2 C 0.4392(6) 0.9216(4) 0.8669(3)
C8_2 C 0.1993(6) 0.7240(5) 0.4829(3)
C9_2 C 0.3166(6) 0.6184(4) 0.4020(3)
C10_2 C 0.3162(6) 0.7857(4) 0.4004(3)
C11_2 C 0.2059(6) 0.8697(4) 0.7546(3)
H5_2 H 0.155828 0.895964 0.791158
C12_2 C 0.4254(6) 0.8358(4) 0.7256(3)
H6_2 H 0.528141 0.839343 0.741756
N3_2 N 0.2823(6) 0.8833(4) 0.3075(3)
C13_2 C 0.1301(6) 0.8271(5) 0.6765(3)
H7_2 H 0.027674 0.823879 0.659087
C14_2 C 0.0799(6) 0.3303(4) 0.2201(3)
C15_2 C 0.2375(6) 0.6321(4) 0.4567(3)
C16_2 C 0.2408(7) 0.8016(4) 0.4566(3)
C17_2 C 0.1555(6) 0.4152(4) 0.2860(3)
H9_2 H 0.101818 0.452542 0.315375
C18_2 C 0.3815(7) 0.8727(4) 0.3780(3)
H10_2 H 0.475864 0.863579 0.367616
H11_2 H 0.404902 0.936293 0.423075
C19_2 C 0.0488(7) 0.8821(5) 0.2318(4)
C20_2 C 0.1154(6) 0.9225(4) 0.1858(3)
C21_2 C 0.0840(6) 0.1837(4) 0.1060(3)
C22_2 C 0.2669(7) 0.9406(6) 0.2014(4)
H13_2 H 0.314521 0.965954 0.169531
C23_2 C 0.3517(6) 0.6939(4) 0.3711(3)
C24_2 C 0.1357(7) 0.8629(6) 0.2923(4)
H14_2 H 0.090168 0.834673 0.323483
C25_2 C 0.1968(8) 0.5509(5) 0.4891(4)
H15_2 H 0.088614 0.527164 0.474447
H16_2 H 0.237811 0.494378 0.467743
H17_2 H 0.237375 0.578374 0.546111
C26_2 C 0.4283(7) 0.6762(5) 0.3083(3)
H18_2 H 0.402112 0.603860 0.277627
H19_2 H 0.396738 0.712974 0.273953
H20_2 H 0.535919 0.700366 0.332478
C27_2 C 0.3490(7) 0.9221(5) 0.2631(4)
H21_2 H 0.453836 0.936697 0.274744
C28_2 C 0.1090(7) 0.7382(5) 0.5398(3)
H22_2 H 0.048538 0.671328 0.533032
H23_2 H 0.040149 0.778914 0.527103
C29_2 C 0.2063(9) 0.9019(5) 0.4897(4)
H24_2 H 0.244217 0.926995 0.546830
H25_2 H 0.253447 0.950591 0.469987
H26_2 H 0.098724 0.892916 0.473824
C30_2 C 0.3839(6) 0.3958(4) 0.2683(3)
H27_2 H 0.488965 0.418716 0.286054
C31_2 C 0.0259(6) 0.9464(4) 0.1200(3)
O15 O 0.9534(4) 0.1408(3) 0.0976(2)
O10_2 O 0.6969(6) 0.1329(4) 0.9808(3)
H28_2 H 0.759519 0.162537 0.962765
H29_2 H 0.610000 0.113118 0.946807
O7_2 O 0.8919(4) 0.9416(3) 0.1138(2)
H8_2 H 0.974812 0.308627 0.204724
H12_2 H 0.944311 0.867895 0.221791
O11_2 O 0.6058(5) 0.8368(3) 0.0083(2)
H31_2 H 0.655922 0.805649 0.036234
H30_2 H 0.560634 0.791197 0.960073
loop_
_geom_bond_atom_site_label_1
_geom_bond_atom_site_label_2
_geom_bond_site_symmetry_1
_geom_bond_site_symmetry_2
S1 O1 1_555 1_555
F1 C1 1_555 1_555
F2 C1 1_555 1_555
O2 S1 1_555 1_555
F3 C1 1_555 1_555
O3 S1 1_555 1_555
C1 S1 1_555 1_555
S1_2 O1_2 1_555 1_555
F1_2 C1_2 1_555 1_555
F2_2 C1_2 1_555 1_555
O2_2 S1_2 1_555 1_555
F3_2 C1_2 1_555 1_555
O3_2 S1_2 1_555 1_555
C1_2 S1_2 1_555 1_555
Eu3 O7 1_555 1_555
O11 Eu3 1_555 1_555
H31 O11 1_555 1_555
H28 O10 1_555 1_555
H29 O10 1_555 1_555
O4 C31 1_555 1_555
O5 C7 1_555 1_555
O6 C21 1_555 1_555
O16 C7 1_555 1_555
N1 C4 1_555 1_555
C2 H1 1_555 1_555
H2 C2 1_555 1_555
C3 C6 1_555 1_555
C4 H3 1_555 1_555
N2 C2 1_555 1_555
C5 C7 1_555 1_555
C6 H4 1_555 1_555
C8 C15 1_555 1_555
C9 C2 1_555 1_555
C10 C16 1_555 1_555
C11 C5 1_555 1_555
H5 C11 1_555 1_555
C12 C4 1_555 1_555
H6 C12 1_555 1_555
N3 C18 1_555 1_555
C13 N1 1_555 1_555
H7 C13 1_555 1_555
C14 C3 1_555 1_555
C15 C9 1_555 1_555
C16 C8 1_555 1_555
C17 N2 1_555 1_555
H9 C17 1_555 1_555
C18 C10 1_555 1_555
H10 C18 1_555 1_555
H11 C18 1_555 1_555
C20 C19 1_555 1_555
C21 C3 1_555 1_555
C22 C20 1_555 1_555
H13 C22 1_555 1_555
C23 C9 1_555 1_555
C24 N3 1_555 1_555
H14 C24 1_555 1_555
C25 C15 1_555 1_555
H15 C25 1_555 1_555
H16 C25 1_555 1_555
H17 C25 1_555 1_555
C26 C23 1_555 1_555
H18 C26 1_555 1_555
H19 C26 1_555 1_555
H20 C26 1_555 1_555
C27 N3 1_555 1_555
H21 C27 1_555 1_555
C28 N1 1_555 1_555
H22 C28 1_555 1_555
H23 C28 1_555 1_555
C29 C16 1_555 1_555
H24 C29 1_555 1_555
H25 C29 1_555 1_555
H26 C29 1_555 1_555
C30 N2 1_555 1_555
H27 C30 1_555 1_555
C31 C20 1_555 1_555
C5 C12 1_555 1_555
C6 C30 1_555 1_555
C8 C28 1_555 1_555
C10 C23 1_555 1_555
C11 C13 1_555 1_555
C14 C17 1_555 1_555
C19 C24 1_555 1_555
C22 C27 1_555 1_555
O12 C31_2 1_555 1_555
O13 C7_2 1_555 1_555
O14 C21_2 1_555 1_555
O9 C7_2 1_555 1_555
N1_2 C4_2 1_555 1_555
C2_2 H1_2 1_555 1_555
H2_2 C2_2 1_555 1_555
C3_2 C6_2 1_555 1_555
C4_2 H3_2 1_555 1_555
N2_2 C2_2 1_555 1_555
C5_2 C7_2 1_555 1_555
C6_2 H4_2 1_555 1_555
C8_2 C15_2 1_555 1_555
C9_2 C2_2 1_555 1_555
C10_2 C16_2 1_555 1_555
C11_2 C5_2 1_555 1_555
H5_2 C11_2 1_555 1_555
C12_2 C4_2 1_555 1_555
H6_2 C12_2 1_555 1_555
N3_2 C18_2 1_555 1_555
C13_2 N1_2 1_555 1_555
H7_2 C13_2 1_555 1_555
C14_2 C3_2 1_555 1_555
C15_2 C9_2 1_555 1_555
C16_2 C8_2 1_555 1_555
C17_2 N2_2 1_555 1_555
H9_2 C17_2 1_555 1_555
C18_2 C10_2 1_555 1_555
H10_2 C18_2 1_555 1_555
H11_2 C18_2 1_555 1_555
C20_2 C19_2 1_555 1_555
C21_2 C3_2 1_555 1_555
C22_2 C20_2 1_555 1_555
H13_2 C22_2 1_555 1_555
C23_2 C9_2 1_555 1_555
C24_2 N3_2 1_555 1_555
H14_2 C24_2 1_555 1_555
C25_2 C15_2 1_555 1_555
H15_2 C25_2 1_555 1_555
H16_2 C25_2 1_555 1_555
H17_2 C25_2 1_555 1_555
C26_2 C23_2 1_555 1_555
H18_2 C26_2 1_555 1_555
H19_2 C26_2 1_555 1_555
H20_2 C26_2 1_555 1_555
C27_2 N3_2 1_555 1_555
H21_2 C27_2 1_555 1_555
C28_2 N1_2 1_555 1_555
H22_2 C28_2 1_555 1_555
H23_2 C28_2 1_555 1_555
C29_2 C16_2 1_555 1_555
H24_2 C29_2 1_555 1_555
H25_2 C29_2 1_555 1_555
H26_2 C29_2 1_555 1_555
C30_2 N2_2 1_555 1_555
H27_2 C30_2 1_555 1_555
C31_2 C20_2 1_555 1_555
C5_2 C12_2 1_555 1_555
C6_2 C30_2 1_555 1_555
C8_2 C28_2 1_555 1_555
C10_2 C23_2 1_555 1_555
C11_2 C13_2 1_555 1_555
C14_2 C17_2 1_555 1_555
C19_2 C24_2 1_555 1_555
C22_2 C27_2 1_555 1_555
H28_2 O10_2 1_555 1_555
H29_2 O10_2 1_555 1_555
Eu6 O7_2 1_555 1_555
O11_2 Eu6 1_555 1_555
H31_2 O11_2 1_555 1_555

#END
