
###############################################################################
#
# This file contains modified crystal structure data generated from the
# MOF subset of the Cambridge Structural Database (CSD) v543 
# hosted by the Cambridge Crystallographic Data Centre (CCDC).
#
# This work is licensed under the Creative Commons
# Attribution-NonCommercial-ShareAlike 4.0 International License.
# To view a copy of this license, visit
# http://creativecommons.org/licenses/by-nc-sa/4.0/
# or send a letter to
# Creative Commons, PO Box 1866, Mountain View, CA 94042, USA.
#
# CIF created using the CSD Python API on 29 September 2022
# The structure has been converted into the P1 space group
# The structure has a 3D framework
# The original CSD entry MOCTOQ is in the triclinic crystal system
# The framework has been calculated to contain at least 10.0% void space
# The void calculation uses a probe of radius 1.32A, grid spacing 0.4
#
###############################################################################

data_MOCTOQ
_chemical_formula_moiety         '(C62 H62 Br4 F6 Gd2 N6 O22 S2)n'
_symmetry_cell_setting           triclinic
_symmetry_space_group_name_H-M   'P 1'
_symmetry_Int_Tables_number      1
_space_group_name_Hall           'P 1'
loop_
_symmetry_equiv_pos_site_id
_symmetry_equiv_pos_as_xyz
1 x,y,z
_cell_length_a                   9.5280(4)
_cell_length_b                   14.3123(6)
_cell_length_c                   18.8610(8)
_cell_angle_alpha                107.797(4)
_cell_angle_beta                 103.227(4)
_cell_angle_gamma                99.461(3)
_cell_volume                     2306.55
loop_
_atom_site_label
_atom_site_type_symbol
_atom_site_fract_x
_atom_site_fract_y
_atom_site_fract_z
Br1 Br 0.23644(14) 0.41713(10) 0.31308(7)
Br1_2 Br 0.76356(14) 0.58287(10) 0.68692(7)
Br2 Br 0.28275(15) 0.91504(12) 0.29314(9)
Br2_2 Br 0.71725(15) 0.08496(12) 0.70686(9)
S1 S 0.8026(2) 0.76522(16) 0.40202(12)
F1 F 0.6673(8) 0.5955(5) 0.4159(5)
O1 O 0.6908(8) 0.8090(5) 0.4254(5)
F2 F 0.9035(8) 0.6129(5) 0.4270(4)
O2 O 0.9465(8) 0.8240(5) 0.4311(4)
O3 O 0.7517(11) 0.7019(7) 0.3183(5)
F3 F 0.8334(9) 0.6997(6) 0.5202(4)
C1 C 0.7988(10) 0.6552(10) 0.4331(10)
S1_2 S 0.1974(2) 0.23478(16) 0.59798(12)
F1_2 F 0.3327(8) 0.4045(5) 0.5841(5)
O1_2 O 0.3092(8) 0.1910(5) 0.5746(5)
F2_2 F 0.0965(8) 0.3871(5) 0.5730(4)
O2_2 O 0.0535(8) 0.1760(5) 0.5689(4)
O3_2 O 0.2483(11) 0.2981(7) 0.6817(5)
F3_2 F 0.1666(9) 0.3003(6) 0.4798(4)
C1_2 C 0.2012(10) 0.3448(10) 0.5669(10)
Gd6 Gd 0.26979(4) 0.48620(3) 0.00513(2)
O5 O 0.5503(5) 0.3602(4) 0.9043(3)
O6 O 0.3412(6) 0.3410(4) 0.9400(3)
N1 N 0.2026(7) 0.0555(5) 0.6920(3)
C3 C 0.3444(8) 0.2220(5) 0.8238(4)
C5 C 0.4262(8) 0.1704(6) 0.7813(4)
H4 H 0.531784 0.192812 0.797016
C10 C 0.1906(9) 0.1888(6) 0.7993(5)
H6 H 0.133698 0.223126 0.828718
C13 C 0.3508(8) 0.0848(5) 0.7149(4)
H7 H 0.405466 0.047204 0.685855
C15 C 0.4204(8) 0.3166(5) 0.8957(4)
C25 C 0.1197(8) 0.1051(6) 0.7315(5)
H18 H 0.014054 0.083206 0.713135
H22 H 0.370497 0.007855 0.553169
Gd3 Gd 0.73021(4) 0.51380(3) 0.99487(2)
O7 O 0.1291(5) 0.5416(4) 0.0882(3)
C2 C 0.1176(9) 0.9691(6) 0.6157(4)
H1 H 0.015227 0.944918 0.617205
H2 H 0.109760 0.995894 0.572774
N2 N 0.2994(7) 0.7085(5) 0.3751(3)
C4 C 0.1570(9) 0.7064(6) 0.3527(4)
H3 H 0.109886 0.734316 0.390584
C6 C 0.1847(8) 0.8801(5) 0.5971(4)
N3 N 0.2159(7) 0.6151(5) 0.6929(4)
C7 C 0.0616(8) 0.5803(5) 0.1334(4)
C8 C 0.2656(9) 0.8659(6) 0.5429(4)
C9 C 0.1473(9) 0.5798(8) 0.7378(5)
H5 H 0.042158 0.567582 0.726729
C11 C 0.1840(9) 0.7121(6) 0.5994(4)
C12 C 0.3024(8) 0.7717(6) 0.5160(4)
C14 C 0.2587(9) 0.6941(6) 0.5427(4)
C16 C 0.0753(8) 0.6641(6) 0.2747(4)
C17 C 0.1464(8) 0.6261(5) 0.2200(4)
C18 C 0.0737(9) 0.8258(7) 0.6920(4)
H9 H 0.113294 0.896761 0.726946
H10 H 0.092638 0.781359 0.721714
C19 C 0.1495(8) 0.8051(6) 0.6285(4)
C20 C 0.3942(9) 0.7561(7) 0.4599(4)
H12 H 0.459157 0.711945 0.471338
H13 H 0.459159 0.822393 0.468222
C21 C 0.3698(9) 0.6710(7) 0.3226(4)
H14 H 0.472327 0.672715 0.339782
C22 C 0.2952(9) 0.6307(6) 0.2453(5)
H15 H 0.346121 0.605601 0.208555
C23 C 0.2296(9) 0.5615(7) 0.7994(5)
H16 H 0.180865 0.537821 0.831606
C24 C 0.3630(10) 0.6339(8) 0.7074(5)
H17 H 0.409508 0.661015 0.675938
C26 C 0.1171(9) 0.6262(6) 0.6224(5)
H19 H 0.022673 0.636896 0.632896
H20 H 0.092343 0.561820 0.577554
C27 C 0.3053(12) 0.9465(7) 0.5108(5)
H21 H 0.357230 0.922644 0.472128
H23 H 0.214324 0.961900 0.485887
C28 C 0.2915(13) 0.5930(7) 0.5106(6)
H24 H 0.254004 0.547849 0.535700
H25 H 0.399432 0.602199 0.520814
H26 H 0.242616 0.563149 0.454180
C29 C 0.4481(9) 0.6138(8) 0.7683(5)
H27 H 0.552980 0.625425 0.777858
O8 O 0.4039(6) 0.5283(4) 0.9245(3)
O9 O 0.6075(6) 0.5589(4) 0.8876(3)
C30 C 0.3806(8) 0.5766(5) 0.8154(4)
C31 C 0.4713(8) 0.5522(5) 0.8803(4)
O4 O 0.9275(6) 0.5852(4) 0.1147(3)
H8 H 0.972052 0.661110 0.258852
H11 H 0.966167 0.812534 0.668331
H28 H 0.925238 0.716777 0.037060
O11 O 0.8116(7) 0.3716(5) 0.0207(4)
H31 H 0.844543 0.383318 0.072633
O13 O 0.6588(6) 0.6590(4) 0.0600(3)
O15 O 0.5961(6) 0.4717(4) 0.0755(3)
O10 O 0.8968(6) 0.6629(4) 0.9910(3)
H29 H 0.852989 0.685487 0.953050
H30 H 0.737245 0.313488 0.999412
O14 O 0.8709(5) 0.4584(4) 0.9118(3)
O10_2 O 0.1032(6) 0.3371(4) 0.0090(3)
H29_2 H 0.147011 0.314513 0.046950
H30_2 H 0.262755 0.686512 0.000588
O12 O 0.4497(5) 0.6398(4) 0.0957(3)
O16 O 0.3925(6) 0.4411(4) 0.1124(3)
O4_2 O 0.0725(6) 0.4148(4) 0.8853(3)
H8_2 H 0.027948 0.338890 0.741148
H11_2 H 0.033833 0.187466 0.331669
H28_2 H 0.074762 0.283223 0.962940
O11_2 O 0.1884(7) 0.6284(5) 0.9793(4)
H31_2 H 0.155457 0.616682 0.927367
C2_2 C 0.8824(9) 0.0309(6) 0.3843(4)
H1_2 H 0.984773 0.055082 0.382795
H2_2 H 0.890240 0.004106 0.427226
N2_2 N 0.7006(7) 0.2915(5) 0.6249(3)
C4_2 C 0.8430(9) 0.2936(6) 0.6473(4)
H3_2 H 0.890114 0.265684 0.609416
C6_2 C 0.8153(8) 0.1199(5) 0.4029(4)
N3_2 N 0.7841(7) 0.3849(5) 0.3071(4)
C7_2 C 0.9384(8) 0.4197(5) 0.8666(4)
C8_2 C 0.7344(9) 0.1341(6) 0.4571(4)
C9_2 C 0.8527(9) 0.4202(8) 0.2622(5)
H5_2 H 0.957842 0.432418 0.273271
C11_2 C 0.8160(9) 0.2879(6) 0.4006(4)
C12_2 C 0.6976(8) 0.2283(6) 0.4840(4)
C14_2 C 0.7413(9) 0.3059(6) 0.4573(4)
C16_2 C 0.9247(8) 0.3359(6) 0.7253(4)
C17_2 C 0.8536(8) 0.3739(5) 0.7800(4)
C18_2 C 0.9263(9) 0.1742(7) 0.3080(4)
H9_2 H 0.886706 0.103239 0.273054
H10_2 H 0.907362 0.218641 0.278286
C19_2 C 0.8505(8) 0.1949(6) 0.3715(4)
C20_2 C 0.6058(9) 0.2439(7) 0.5401(4)
H12_2 H 0.540843 0.288055 0.528662
H13_2 H 0.540841 0.177607 0.531778
C21_2 C 0.6302(9) 0.3290(7) 0.6774(4)
H14_2 H 0.527673 0.327285 0.660218
C22_2 C 0.7048(9) 0.3693(6) 0.7547(5)
H15_2 H 0.653879 0.394399 0.791445
C23_2 C 0.7704(9) 0.4385(7) 0.2006(5)
H16_2 H 0.819135 0.462179 0.168394
C24_2 C 0.6370(10) 0.3661(8) 0.2926(5)
H17_2 H 0.590492 0.338985 0.324062
C26_2 C 0.8829(9) 0.3738(6) 0.3776(5)
H19_2 H 0.977327 0.363104 0.367104
H20_2 H 0.907657 0.438180 0.422446
C27_2 C 0.6947(12) 0.0535(7) 0.4892(5)
H21_2 H 0.642770 0.077356 0.527872
H23_2 H 0.785676 0.038100 0.514113
C28_2 C 0.7085(13) 0.4070(7) 0.4894(6)
H24_2 H 0.745996 0.452151 0.464300
H25_2 H 0.600568 0.397801 0.479186
H26_2 H 0.757384 0.436851 0.545820
C29_2 C 0.5519(9) 0.3862(8) 0.2317(5)
H27_2 H 0.447020 0.374575 0.222142
C30_2 C 0.6194(8) 0.4234(5) 0.1846(4)
C31_2 C 0.5287(8) 0.4478(5) 0.1197(4)
N1_2 N 0.7974(7) 0.9445(5) 0.3080(3)
C3_2 C 0.6556(8) 0.7780(5) 0.1762(4)
C5_2 C 0.5738(8) 0.8296(6) 0.2187(4)
H4_2 H 0.468216 0.807188 0.202984
C10_2 C 0.8094(9) 0.8112(6) 0.2007(5)
H6_2 H 0.866302 0.776874 0.171282
C13_2 C 0.6492(8) 0.9152(5) 0.2851(4)
H7_2 H 0.594534 0.952796 0.314145
C15_2 C 0.5796(8) 0.6834(5) 0.1043(4)
C25_2 C 0.8803(8) 0.8949(6) 0.2685(5)
H18_2 H 0.985946 0.916794 0.286865
H22_2 H 0.629503 0.992145 0.446831
loop_
_geom_bond_atom_site_label_1
_geom_bond_atom_site_label_2
_geom_bond_site_symmetry_1
_geom_bond_site_symmetry_2
S1 O1 1_555 1_555
F1 C1 1_555 1_555
F2 C1 1_555 1_555
O2 S1 1_555 1_555
O3 S1 1_555 1_555
F3 C1 1_555 1_555
C1 S1 1_555 1_555
S1_2 O1_2 1_555 1_555
F1_2 C1_2 1_555 1_555
F2_2 C1_2 1_555 1_555
O2_2 S1_2 1_555 1_555
O3_2 S1_2 1_555 1_555
F3_2 C1_2 1_555 1_555
C1_2 S1_2 1_555 1_555
O5 C15 1_555 1_555
O6 C15 1_555 1_555
C3 C5 1_555 1_555
C5 H4 1_555 1_555
C10 C3 1_555 1_555
H6 C10 1_555 1_555
C13 N1 1_555 1_555
H7 C13 1_555 1_555
C15 C3 1_555 1_555
C25 N1 1_555 1_555
H18 C25 1_555 1_555
Gd3 O5 1_555 1_555
C5 C13 1_555 1_555
C10 C25 1_555 1_555
O7 C7 1_555 1_555
C2 H1 1_555 1_555
H2 C2 1_555 1_555
N2 C4 1_555 1_555
C4 H3 1_555 1_555
C6 C2 1_555 1_555
N3 C9 1_555 1_555
C7 C17 1_555 1_555
C8 C6 1_555 1_555
C9 H5 1_555 1_555
C11 C14 1_555 1_555
C12 C8 1_555 1_555
C14 C12 1_555 1_555
C16 C4 1_555 1_555
C17 C16 1_555 1_555
C18 H9 1_555 1_555
H10 C18 1_555 1_555
C19 C6 1_555 1_555
C20 N2 1_555 1_555
H12 C20 1_555 1_555
H13 C20 1_555 1_555
C21 N2 1_555 1_555
H14 C21 1_555 1_555
C22 C17 1_555 1_555
H15 C22 1_555 1_555
C23 C9 1_555 1_555
H16 C23 1_555 1_555
C24 N3 1_555 1_555
H17 C24 1_555 1_555
C26 N3 1_555 1_555
H19 C26 1_555 1_555
H20 C26 1_555 1_555
C27 C8 1_555 1_555
H21 C27 1_555 1_555
H23 C27 1_555 1_555
C28 C14 1_555 1_555
H24 C28 1_555 1_555
H25 C28 1_555 1_555
H26 C28 1_555 1_555
C29 C24 1_555 1_555
H27 C29 1_555 1_555
O8 C31 1_555 1_555
O9 C31 1_555 1_555
C30 C23 1_555 1_555
C31 C30 1_555 1_555
Gd3 O9 1_555 1_555
Gd6 O7 1_555 1_555
C11 C19 1_555 1_555
C11 C26 1_555 1_555
C12 C20 1_555 1_555
C18 C19 1_555 1_555
C21 C22 1_555 1_555
C29 C30 1_555 1_555
H31 O11 1_555 1_555
O10 Gd3 1_555 1_555
H29 O10 1_555 1_555
O14 Gd3 1_555 1_555
O10_2 Gd6 1_555 1_555
H29_2 O10_2 1_555 1_555
O12 Gd6 1_555 1_555
O16 Gd6 1_555 1_555
H31_2 O11_2 1_555 1_555
O14 C7_2 1_555 1_555
C2_2 H1_2 1_555 1_555
H2_2 C2_2 1_555 1_555
N2_2 C4_2 1_555 1_555
C4_2 H3_2 1_555 1_555
C6_2 C2_2 1_555 1_555
N3_2 C9_2 1_555 1_555
C7_2 C17_2 1_555 1_555
C8_2 C6_2 1_555 1_555
C9_2 H5_2 1_555 1_555
C11_2 C14_2 1_555 1_555
C12_2 C8_2 1_555 1_555
C14_2 C12_2 1_555 1_555
C16_2 C4_2 1_555 1_555
C17_2 C16_2 1_555 1_555
C18_2 H9_2 1_555 1_555
H10_2 C18_2 1_555 1_555
C19_2 C6_2 1_555 1_555
C20_2 N2_2 1_555 1_555
H12_2 C20_2 1_555 1_555
H13_2 C20_2 1_555 1_555
C21_2 N2_2 1_555 1_555
H14_2 C21_2 1_555 1_555
C22_2 C17_2 1_555 1_555
H15_2 C22_2 1_555 1_555
C23_2 C9_2 1_555 1_555
H16_2 C23_2 1_555 1_555
C24_2 N3_2 1_555 1_555
H17_2 C24_2 1_555 1_555
C26_2 N3_2 1_555 1_555
H19_2 C26_2 1_555 1_555
H20_2 C26_2 1_555 1_555
C27_2 C8_2 1_555 1_555
H21_2 C27_2 1_555 1_555
H23_2 C27_2 1_555 1_555
C28_2 C14_2 1_555 1_555
H24_2 C28_2 1_555 1_555
H25_2 C28_2 1_555 1_555
H26_2 C28_2 1_555 1_555
C29_2 C24_2 1_555 1_555
H27_2 C29_2 1_555 1_555
O15 C31_2 1_555 1_555
O16 C31_2 1_555 1_555
C30_2 C23_2 1_555 1_555
C31_2 C30_2 1_555 1_555
C11_2 C19_2 1_555 1_555
C11_2 C26_2 1_555 1_555
C12_2 C20_2 1_555 1_555
C18_2 C19_2 1_555 1_555
C21_2 C22_2 1_555 1_555
C29_2 C30_2 1_555 1_555
O12 C15_2 1_555 1_555
O13 C15_2 1_555 1_555
C3_2 C5_2 1_555 1_555
C5_2 H4_2 1_555 1_555
C10_2 C3_2 1_555 1_555
H6_2 C10_2 1_555 1_555
C13_2 N1_2 1_555 1_555
H7_2 C13_2 1_555 1_555
C15_2 C3_2 1_555 1_555
C25_2 N1_2 1_555 1_555
H18_2 C25_2 1_555 1_555
C5_2 C13_2 1_555 1_555
C10_2 C25_2 1_555 1_555

#END
