
###############################################################################
#
# This file contains modified crystal structure data generated from the
# MOF subset of the Cambridge Structural Database (CSD) v543 
# hosted by the Cambridge Crystallographic Data Centre (CCDC).
#
# This work is licensed under the Creative Commons
# Attribution-NonCommercial-ShareAlike 4.0 International License.
# To view a copy of this license, visit
# http://creativecommons.org/licenses/by-nc-sa/4.0/
# or send a letter to
# Creative Commons, PO Box 1866, Mountain View, CA 94042, USA.
#
# CIF created using the CSD Python API on 29 September 2022
# The structure has been converted into the P1 space group
# The structure has a 3D framework
# The original CSD entry MOCVUY is in the triclinic crystal system
# The framework has been calculated to contain at least 10.0% void space
# The void calculation uses a probe of radius 1.32A, grid spacing 0.4
#
###############################################################################

data_MOCVUY
_chemical_formula_moiety         '(C66 H66 F18 N6 Nd2 O34 S6)n'
_symmetry_cell_setting           triclinic
_symmetry_space_group_name_H-M   'P 1'
_symmetry_Int_Tables_number      1
_space_group_name_Hall           'P 1'
loop_
_symmetry_equiv_pos_site_id
_symmetry_equiv_pos_as_xyz
1 x,y,z
_cell_length_a                   10.1157(3)
_cell_length_b                   14.2420(4)
_cell_length_c                   19.1578(7)
_cell_angle_alpha                110.861(3)
_cell_angle_beta                 101.670(3)
_cell_angle_gamma                91.706(3)
_cell_volume                     2510.11
loop_
_atom_site_label
_atom_site_type_symbol
_atom_site_fract_x
_atom_site_fract_y
_atom_site_fract_z
Nd1 Nd 0.75395(2) 0.00993(2) 0.50231(2)
O1 O 0.3284(3) 0.0287(3) 0.40028(18)
O2 O 0.8634(3) 0.1503(3) 0.47794(19)
H1 H 0.875687 0.208657 0.518604
H2 H 0.808559 0.165376 0.441333
O4 O 0.5534(3) 0.0571(3) 0.44009(19)
O5 O 0.3008(3) 0.8277(3) 0.40194(18)
O6 O 0.1789(4) 0.6976(3) 0.4074(3)
N1 N 0.4730(4) 0.0886(3) 0.1859(2)
N2 N 0.3978(5) 0.5252(3) 0.1959(2)
C1 C 0.4548(4) 0.0632(3) 0.3191(2)
C2 C 0.4002(5) 0.1732(4) 0.0921(2)
C3 C 0.4441(5) 0.0487(3) 0.3927(2)
C4 C 0.4549(5) 0.2757(4) 0.1261(3)
C5 C 0.4846(5) 0.0962(4) 0.1111(3)
H5 H 0.455072 0.029206 0.069466
H6 H 0.580962 0.114785 0.113579
C6 C 0.3425(5) 0.0834(4) 0.2744(3)
H7 H 0.258305 0.088697 0.289427
C7 C 0.5759(5) 0.0556(4) 0.2962(3)
H8 H 0.653763 0.041873 0.326603
C8 C 0.2054(5) 0.2147(4) 0.0170(2)
C9 C 0.4514(6) 0.4539(4) 0.1307(3)
H9 H 0.550668 0.455047 0.148183
H10 H 0.435678 0.478399 0.087734
C10 C 0.4099(6) 0.6246(4) 0.2072(3)
H11 H 0.448309 0.646803 0.173648
C11 C 0.2612(5) 0.3167(4) 0.0475(3)
C12 C 0.5837(5) 0.0681(4) 0.2290(3)
H12 H 0.666913 0.062297 0.212801
C13 C 0.2762(5) 0.1424(4) 0.0389(3)
C14 C 0.3541(5) 0.0958(4) 0.2078(3)
H13 H 0.277170 0.109625 0.176789
C15 C 0.2583(5) 0.7352(4) 0.3808(3)
C16 C 0.3671(6) 0.6937(4) 0.2666(3)
H14 H 0.376239 0.763424 0.274305
C17 C 0.3858(5) 0.3458(4) 0.1018(3)
C18 C 0.3475(6) 0.4926(4) 0.2438(3)
H15 H 0.341748 0.422672 0.235776
C19 C 0.3103(5) 0.6615(4) 0.3156(3)
C20 C 0.5847(5) 0.3053(4) 0.1865(3)
H16 H 0.585857 0.265141 0.218882
H17 H 0.591197 0.377231 0.218223
H18 H 0.661905 0.292715 0.161970
C21 C 0.2195(5) 0.0322(4) 0.0037(3)
H20 H 0.122575 0.026230 0.003230
C22 C 0.3042(6) 0.5593(4) 0.3044(3)
H22 H 0.270037 0.535651 0.338531
C23 C 0.1899(6) 0.3937(4) 0.0215(3)
H24 H 0.204910 0.458877 0.064568
H25 H 0.092310 0.371329 0.003348
Nd5 Nd 0.24605(2) 0.99007(2) 0.49769(2)
O11 O 0.6992(3) 0.1723(3) 0.59806(18)
O13 O 0.9650(3) 0.0601(3) 0.59472(18)
H19 H 0.231656 0.003160 0.950995
H23 H 0.225960 0.401070 0.979752
N3 N 0.0763(4) 0.1550(3) 0.8783(2)
C24 C 0.0700(5) 0.1820(4) 0.9602(3)
H26 H 0.025765 0.122689 0.965523
H27 H 0.011653 0.237301 0.973707
C25 C 0.1960(5) 0.1561(4) 0.8563(3)
H28 H 0.279150 0.175471 0.893902
O7 O 0.1881(3) 0.0543(3) 0.62283(17)
C26 C 0.0758(5) 0.0697(3) 0.6406(2)
C27 C 0.0757(4) 0.1010(3) 0.7251(2)
C28 C 0.1972(4) 0.1292(4) 0.7800(3)
H29 H 0.281009 0.130021 0.764972
O3 O 0.5920(3) 0.8554(3) 0.4237(2)
H3 H 0.511272 0.865810 0.431004
H4 H 0.611902 0.806890 0.439804
H21 H 0.267629 0.995637 0.033981
O9 O 0.8602(3) 0.8577(3) 0.5022(2)
H32 H 0.947209 0.865070 0.502441
H33 H 0.827213 0.806359 0.458745
O10 O 0.6716(3) 0.9713(3) 0.59972(18)
O12 O 0.8119(3) 0.9457(3) 0.37717(17)
C29 C 0.9573(4) 0.1286(4) 0.8255(3)
H30 H 0.874429 0.128897 0.841655
C30 C 0.9543(4) 0.1012(4) 0.7484(3)
H31 H 0.870048 0.082747 0.711719
O8 O 0.0350(3) 0.9399(3) 0.40528(18)
C29_2 C 0.0427(4) 0.8714(4) 0.1745(3)
H30_2 H 0.125571 0.871103 0.158345
C30_2 C 0.0457(4) 0.8988(4) 0.2516(3)
H31_2 H 0.129952 0.917253 0.288281
O3_2 O 0.4080(3) 0.1446(3) 0.5763(2)
H3_2 H 0.488728 0.134190 0.568996
H4_2 H 0.388098 0.193110 0.560196
H21_2 H 0.732371 0.004363 0.966019
O9_2 O 0.1398(3) 0.1423(3) 0.4978(2)
H32_2 H 0.052791 0.134930 0.497559
H33_2 H 0.172787 0.193641 0.541255
H19_2 H 0.768344 0.996840 0.049005
H23_2 H 0.774040 0.598930 0.020248
N3_2 N 0.9237(4) 0.8450(3) 0.1217(2)
C24_2 C 0.9300(5) 0.8180(4) 0.0398(3)
H26_2 H 0.974235 0.877311 0.034477
H27_2 H 0.988347 0.762699 0.026293
C25_2 C 0.8040(5) 0.8439(4) 0.1437(3)
H28_2 H 0.720850 0.824529 0.106098
C26_2 C 0.9242(5) 0.9303(3) 0.3594(2)
C27_2 C 0.9243(4) 0.8990(3) 0.2749(2)
C28_2 C 0.8028(4) 0.8708(4) 0.2200(3)
H29_2 H 0.718991 0.869979 0.235028
O2_2 O 0.1366(3) 0.8497(3) 0.52206(19)
H1_2 H 0.124313 0.791343 0.481396
H2_2 H 0.191441 0.834624 0.558667
O4_2 O 0.4466(3) 0.9429(3) 0.55991(19)
O6_2 O 0.8211(4) 0.3024(3) 0.5926(3)
N1_2 N 0.5270(4) 0.9114(3) 0.8141(2)
N2_2 N 0.6022(5) 0.4748(3) 0.8041(2)
C1_2 C 0.5452(4) 0.9368(3) 0.6809(2)
C2_2 C 0.5998(5) 0.8268(4) 0.9079(2)
C3_2 C 0.5559(5) 0.9513(3) 0.6073(2)
C4_2 C 0.5451(5) 0.7243(4) 0.8739(3)
C5_2 C 0.5154(5) 0.9038(4) 0.8889(3)
H5_2 H 0.544928 0.970794 0.930534
H6_2 H 0.419038 0.885215 0.886421
C6_2 C 0.6575(5) 0.9166(4) 0.7256(3)
H7_2 H 0.741695 0.911303 0.710573
C7_2 C 0.4241(5) 0.9444(4) 0.7038(3)
H8_2 H 0.346237 0.958127 0.673397
C8_2 C 0.7946(5) 0.7853(4) 0.9830(2)
C9_2 C 0.5486(6) 0.5461(4) 0.8693(3)
H9_2 H 0.449332 0.544953 0.851817
H10_2 H 0.564322 0.521601 0.912266
C10_2 C 0.5901(6) 0.3754(4) 0.7928(3)
H11_2 H 0.551691 0.353197 0.826352
C11_2 C 0.7388(5) 0.6833(4) 0.9525(3)
C12_2 C 0.4163(5) 0.9319(4) 0.7710(3)
H12_2 H 0.333087 0.937703 0.787199
C13_2 C 0.7238(5) 0.8576(4) 0.9611(3)
C14_2 C 0.6459(5) 0.9042(4) 0.7922(3)
H13_2 H 0.722830 0.890375 0.823211
C15_2 C 0.7417(5) 0.2648(4) 0.6192(3)
C16_2 C 0.6329(6) 0.3063(4) 0.7334(3)
H14_2 H 0.623761 0.236576 0.725695
C17_2 C 0.6142(5) 0.6542(4) 0.8982(3)
C18_2 C 0.6525(6) 0.5074(4) 0.7562(3)
H15_2 H 0.658252 0.577328 0.764224
C19_2 C 0.6897(5) 0.3385(4) 0.6844(3)
C20_2 C 0.4153(5) 0.6947(4) 0.8135(3)
H16_2 H 0.414143 0.734859 0.781118
H17_2 H 0.408803 0.622769 0.781777
H18_2 H 0.338095 0.707285 0.838030
C21_2 C 0.7805(5) 0.9678(4) 0.9963(3)
H20_2 H 0.877425 0.973770 0.996770
C22_2 C 0.6958(6) 0.4407(4) 0.6956(3)
H22_2 H 0.729963 0.464349 0.661469
C23_2 C 0.8101(6) 0.6063(4) 0.9785(3)
H24_2 H 0.795090 0.541123 0.935432
H25_2 H 0.907690 0.628671 0.996652
F2 F 0.7103(5) 0.3133(4) 0.0429(2)
S1 S 0.59549(13) 0.18131(9) 0.90575(7)
O14 O 0.5016(4) 0.1479(3) 0.9410(2)
F1 F 0.7619(4) 0.3461(3) 0.9496(2)
O15 O 0.5391(5) 0.1945(4) 0.8355(3)
O16 O 0.7158(5) 0.1301(3) 0.9050(3)
F3 F 0.5660(5) 0.3708(3) 0.9760(3)
C31 C 0.6633(7) 0.3078(5) 0.9726(3)
S1_2 S 0.40451(13) 0.81869(9) 0.09425(7)
O14_2 O 0.4984(4) 0.8521(3) 0.0590(2)
F1_2 F 0.2381(4) 0.6539(3) 0.0504(2)
O15_2 O 0.4609(5) 0.8055(4) 0.1645(3)
O16_2 O 0.2842(5) 0.8699(3) 0.0950(3)
F3_2 F 0.4340(5) 0.6292(3) 0.0240(3)
C31_2 C 0.3367(7) 0.6922(5) 0.0274(3)
F2_2 F 0.2897(5) 0.6867(4) 0.9571(2)
F4 F 0.1499(5) 0.2883(3) 0.2094(3)
O18 O 0.0319(4) 0.1554(4) 0.2744(2)
O19 O 0.0464(4) 0.0737(3) 0.1423(2)
C32 C 0.0163(7) 0.2627(5) 0.1911(4)
S2 S 0.97637(12) 0.14058(10) 0.19510(7)
O17 O 0.8306(4) 0.1247(3) 0.1724(2)
F5 F 0.9720(6) 0.2612(5) 0.1197(4)
F6 F 0.9605(6) 0.3332(3) 0.2375(4)
S2_2 S 0.02363(12) 0.85942(10) 0.80490(7)
O17_2 O 0.1694(4) 0.8753(3) 0.8276(2)
F5_2 F 0.0280(6) 0.7388(5) 0.8803(4)
F6_2 F 0.0395(6) 0.6668(3) 0.7625(4)
F4_2 F 0.8501(5) 0.7117(3) 0.7906(3)
O18_2 O 0.9681(4) 0.8446(4) 0.7256(2)
O19_2 O 0.9536(4) 0.9263(3) 0.8577(2)
C32_2 C 0.9837(7) 0.7373(5) 0.8089(4)
F7 F 0.0164(9) 0.6387(6) 0.1471(6)
F9 F 0.0498(9) 0.5292(8) 0.1997(6)
S3 S 0.8143(5) 0.5985(3) 0.2015(3)
O20 O 0.7769(12) 0.5106(9) 0.2172(7)
O21 O 0.7187(9) 0.6240(9) 0.1472(7)
F8 F 0.9180(9) 0.4884(7) 0.0883(5)
C33 C 0.9562(15) 0.5629(11) 0.1591(9)
O22 O 0.8715(14) 0.6855(9) 0.2719(7)
S3_2 S 0.1857(5) 0.4015(3) 0.7985(3)
O20_2 O 0.2231(12) 0.4894(9) 0.7828(7)
O21_2 O 0.2813(9) 0.3760(9) 0.8528(7)
F8_2 F 0.0820(9) 0.5116(7) 0.9117(5)
C33_2 C 0.0438(15) 0.4371(11) 0.8409(9)
O22_2 O 0.1285(14) 0.3145(9) 0.7281(7)
F7_2 F 0.9836(9) 0.3613(6) 0.8529(6)
F9_2 F 0.9502(9) 0.4708(8) 0.8003(6)
loop_
_geom_bond_atom_site_label_1
_geom_bond_atom_site_label_2
_geom_bond_site_symmetry_1
_geom_bond_site_symmetry_2
Nd1 O2 1_555 1_555
O1 C3 1_555 1_555
O2 H1 1_555 1_555
H2 O2 1_555 1_555
O4 Nd1 1_555 1_555
O5 C15 1_555 1_555
O6 C15 1_555 1_555
N1 C5 1_555 1_555
N2 C9 1_555 1_555
C1 C3 1_555 1_555
C2 C4 1_555 1_555
C3 O4 1_555 1_555
C4 C17 1_555 1_555
C5 C2 1_555 1_555
H5 C5 1_555 1_555
H6 C5 1_555 1_555
C6 C1 1_555 1_555
H7 C6 1_555 1_555
C7 C1 1_555 1_555
H8 C7 1_555 1_555
C8 C11 1_555 1_555
C9 H9 1_555 1_555
H10 C9 1_555 1_555
C10 N2 1_555 1_555
H11 C10 1_555 1_555
C11 C17 1_555 1_555
C12 N1 1_555 1_555
H12 C12 1_555 1_555
C13 C2 1_555 1_555
C14 N1 1_555 1_555
H13 C14 1_555 1_555
C15 C19 1_555 1_555
C16 C10 1_555 1_555
H14 C16 1_555 1_555
C17 C9 1_555 1_555
C18 N2 1_555 1_555
H15 C18 1_555 1_555
C19 C16 1_555 1_555
C20 C4 1_555 1_555
H16 C20 1_555 1_555
H17 C20 1_555 1_555
H18 C20 1_555 1_555
C21 C13 1_555 1_555
H20 C21 1_555 1_555
C22 C18 1_555 1_555
H22 C22 1_555 1_555
C23 C11 1_555 1_555
H24 C23 1_555 1_555
H25 C23 1_555 1_555
Nd5 O5 1_555 1_555
O11 Nd1 1_555 1_555
O13 Nd1 1_555 1_555
C6 C14 1_555 1_555
C7 C12 1_555 1_555
C8 C13 1_555 1_555
C19 C22 1_555 1_555
N3 C24 1_555 1_555
H26 C24 1_555 1_555
H27 C24 1_555 1_555
C25 N3 1_555 1_555
H28 C25 1_555 1_555
O7 C26 1_555 1_555
C26 C27 1_555 1_555
C27 C28 1_555 1_555
C28 C25 1_555 1_555
H29 C28 1_555 1_555
H3 O3 1_555 1_555
H4 O3 1_555 1_555
H32 O9 1_555 1_555
H33 O9 1_555 1_555
H30 C29 1_555 1_555
H31 C30 1_555 1_555
C29 C30 1_555 1_555
H30_2 C29_2 1_555 1_555
H31_2 C30_2 1_555 1_555
Nd5 O8 1_555 1_555
C29_2 C30_2 1_555 1_555
H3_2 O3_2 1_555 1_555
H4_2 O3_2 1_555 1_555
H32_2 O9_2 1_555 1_555
H33_2 O9_2 1_555 1_555
N3_2 C24_2 1_555 1_555
H26_2 C24_2 1_555 1_555
H27_2 C24_2 1_555 1_555
C25_2 N3_2 1_555 1_555
H28_2 C25_2 1_555 1_555
O12 C26_2 1_555 1_555
C26_2 C27_2 1_555 1_555
C27_2 C28_2 1_555 1_555
C28_2 C25_2 1_555 1_555
H29_2 C28_2 1_555 1_555
Nd5 O2_2 1_555 1_555
O10 C3_2 1_555 1_555
O2_2 H1_2 1_555 1_555
H2_2 O2_2 1_555 1_555
O4_2 Nd5 1_555 1_555
O11 C15_2 1_555 1_555
O6_2 C15_2 1_555 1_555
N1_2 C5_2 1_555 1_555
N2_2 C9_2 1_555 1_555
C1_2 C3_2 1_555 1_555
C2_2 C4_2 1_555 1_555
C3_2 O4_2 1_555 1_555
C4_2 C17_2 1_555 1_555
C5_2 C2_2 1_555 1_555
H5_2 C5_2 1_555 1_555
H6_2 C5_2 1_555 1_555
C6_2 C1_2 1_555 1_555
H7_2 C6_2 1_555 1_555
C7_2 C1_2 1_555 1_555
H8_2 C7_2 1_555 1_555
C8_2 C11_2 1_555 1_555
C9_2 H9_2 1_555 1_555
H10_2 C9_2 1_555 1_555
C10_2 N2_2 1_555 1_555
H11_2 C10_2 1_555 1_555
C11_2 C17_2 1_555 1_555
C12_2 N1_2 1_555 1_555
H12_2 C12_2 1_555 1_555
C13_2 C2_2 1_555 1_555
C14_2 N1_2 1_555 1_555
H13_2 C14_2 1_555 1_555
C15_2 C19_2 1_555 1_555
C16_2 C10_2 1_555 1_555
H14_2 C16_2 1_555 1_555
C17_2 C9_2 1_555 1_555
C18_2 N2_2 1_555 1_555
H15_2 C18_2 1_555 1_555
C19_2 C16_2 1_555 1_555
C20_2 C4_2 1_555 1_555
H16_2 C20_2 1_555 1_555
H17_2 C20_2 1_555 1_555
H18_2 C20_2 1_555 1_555
C21_2 C13_2 1_555 1_555
H20_2 C21_2 1_555 1_555
C22_2 C18_2 1_555 1_555
H22_2 C22_2 1_555 1_555
C23_2 C11_2 1_555 1_555
H24_2 C23_2 1_555 1_555
H25_2 C23_2 1_555 1_555
C6_2 C14_2 1_555 1_555
C7_2 C12_2 1_555 1_555
C8_2 C13_2 1_555 1_555
C19_2 C22_2 1_555 1_555
S1 O14 1_555 1_555
F1 C31 1_555 1_555
O15 S1 1_555 1_555
O16 S1 1_555 1_555
F3 C31 1_555 1_555
C31 S1 1_555 1_555
S1_2 O14_2 1_555 1_555
F1_2 C31_2 1_555 1_555
O15_2 S1_2 1_555 1_555
O16_2 S1_2 1_555 1_555
F3_2 C31_2 1_555 1_555
C31_2 S1_2 1_555 1_555
F4 C32 1_555 1_555
S2 O17 1_555 1_555
S2_2 O17_2 1_555 1_555
F4_2 C32_2 1_555 1_555
S3 O20 1_555 1_555
O21 S3 1_555 1_555
F8 C33 1_555 1_555
C33 S3 1_555 1_555
O22 S3 1_555 1_555
S3_2 O20_2 1_555 1_555
O21_2 S3_2 1_555 1_555
F8_2 C33_2 1_555 1_555
C33_2 S3_2 1_555 1_555
O22_2 S3_2 1_555 1_555

#END
