
###############################################################################
#
# This file contains modified crystal structure data generated from the
# MOF subset of the Cambridge Structural Database (CSD) v543 
# hosted by the Cambridge Crystallographic Data Centre (CCDC).
#
# This work is licensed under the Creative Commons
# Attribution-NonCommercial-ShareAlike 4.0 International License.
# To view a copy of this license, visit
# http://creativecommons.org/licenses/by-nc-sa/4.0/
# or send a letter to
# Creative Commons, PO Box 1866, Mountain View, CA 94042, USA.
#
# CIF created using the CSD Python API on 29 September 2022
# The structure has been converted into the P1 space group
# The structure has a 3D framework
# The original CSD entry MOCVEI is in the triclinic crystal system
# The framework has been calculated to contain at least 10.0% void space
# The void calculation uses a probe of radius 1.32A, grid spacing 0.4
#
###############################################################################

data_MOCVEI
_chemical_formula_moiety         '(C62 H62 Br4 F6 N6 Nd2 O20 S2)n'
_symmetry_cell_setting           triclinic
_symmetry_space_group_name_H-M   'P 1'
_symmetry_Int_Tables_number      1
_space_group_name_Hall           'P 1'
loop_
_symmetry_equiv_pos_site_id
_symmetry_equiv_pos_as_xyz
1 x,y,z
_cell_length_a                   9.5721(4)
_cell_length_b                   14.4092(6)
_cell_length_c                   18.7321(7)
_cell_angle_alpha                106.854(4)
_cell_angle_beta                 103.019(4)
_cell_angle_gamma                99.792(4)
_cell_volume                     2331.09
loop_
_atom_site_label
_atom_site_type_symbol
_atom_site_fract_x
_atom_site_fract_y
_atom_site_fract_z
Br1 Br 0.70061(10) 0.57433(8) 0.19803(6)
Br1_2 Br 0.29939(10) 0.42567(8) 0.80197(6)
Br2 Br 0.22339(14) 0.92385(9) 0.81162(6)
Br2_2 Br 0.77661(14) 0.07615(9) 0.18838(6)
F3 F 0.8338(9) 0.1921(6) 0.0186(4)
S1 S 0.7992(6) 0.2622(4) 0.8979(2)
F1 F 0.9081(8) 0.1135(5) 0.9263(4)
F2 F 0.6728(8) 0.0873(6) 0.9120(4)
O1 O 0.6855(9) 0.3008(6) 0.9244(5)
O2 O 0.9433(10) 0.3235(6) 0.9316(5)
O3 O 0.7541(11) 0.1999(7) 0.8160(5)
C1 C 0.8005(13) 0.1576(8) 0.9401(7)
S1_2 S 0.2008(6) 0.7378(4) 0.1021(2)
F1_2 F 0.0919(8) 0.8865(5) 0.0737(4)
F2_2 F 0.3272(8) 0.9127(6) 0.0880(4)
O1_2 O 0.3145(9) 0.6992(6) 0.0756(5)
O2_2 O 0.0567(10) 0.6765(6) 0.0684(5)
O3_2 O 0.2459(11) 0.8001(7) 0.1840(5)
C1_2 C 0.1995(13) 0.8424(8) 0.0599(7)
F3_2 F 0.1662(9) 0.8079(6) 0.9814(4)
Nd6 Nd 0.72243(4) 0.00925(2) 0.49430(2)
O5 O 0.6210(6) 0.0604(4) 0.3812(3)
O6 O 0.4285(6) 0.0297(4) 0.4247(3)
C2 C 0.2565(8) 0.3717(5) 0.0440(4)
N1 N 0.1884(6) 0.5520(4) 0.1936(3)
C4 C 0.4875(8) 0.0546(5) 0.3772(4)
N2 N 0.2198(7) 0.1150(4) 0.1902(3)
C6 C 0.1771(8) 0.3808(5) 0.0989(4)
C7 C 0.3376(8) 0.7174(5) 0.3230(4)
C8 C 0.1810(9) 0.2135(5) 0.0983(4)
C10 C 0.4149(7) 0.6631(5) 0.2803(4)
H2 H 0.519973 0.683677 0.295047
C11 C 0.3930(9) 0.0773(5) 0.3118(4)
C12 C 0.1052(8) 0.4671(5) 0.1188(4)
H3 H 0.092576 0.494184 0.075487
H4 H 0.005164 0.440552 0.121849
C13 C 0.3652(10) 0.1412(8) 0.2070(5)
H5 H 0.408664 0.172895 0.176460
C14 C 0.2979(8) 0.2829(6) 0.0166(4)
C16 C 0.2413(9) 0.0509(6) 0.2942(4)
H7 H 0.195179 0.019139 0.323902
C17 C 0.1205(9) 0.1258(5) 0.1205(4)
H8 H 0.024953 0.132194 0.130689
H9 H 0.100085 0.063597 0.075417
C20 C 0.3401(8) 0.5798(5) 0.2168(4)
H12 H 0.393575 0.540906 0.188630
C21 C 0.1430(8) 0.3035(5) 0.1283(4)
C22 C 0.1826(8) 0.6858(6) 0.3000(4)
H13 H 0.127415 0.720526 0.329787
C23 C 0.1117(8) 0.6045(5) 0.2343(4)
H14 H 0.006429 0.584898 0.217185
C24 C 0.1564(9) 0.0708(6) 0.2329(5)
H15 H 0.051409 0.052808 0.220846
C25 C 0.4570(10) 0.1236(8) 0.2681(5)
H16 H 0.561718 0.143156 0.279376
C26 C 0.2578(9) 0.2022(5) 0.0420(4)
C28 C 0.2955(11) 0.4569(6) 0.0145(5)
H20 H 0.400580 0.469676 0.016737
H21 H 0.276419 0.517280 0.047055
C29 C 0.2967(13) 0.1050(7) 0.0080(5)
H22 H 0.276905 0.061044 0.037769
H23 H 0.401948 0.118682 0.010647
C30 C 0.0646(9) 0.3165(6) 0.1916(4)
H25 H 0.091247 0.387416 0.224166
H26 H 0.095072 0.276723 0.223919
O8 O 0.5459(5) 0.8524(3) 0.4008(3)
O9 O 0.3354(6) 0.8416(4) 0.4352(3)
C31 C 0.4148(8) 0.8127(5) 0.3926(4)
Nd3 Nd 0.27757(4) 0.99075(2) 0.50570(2)
O4 O 0.1322(5) 0.0481(4) 0.5890(2)
C3 C 0.1446(7) 0.1297(4) 0.7206(3)
N3 N 0.2955(7) 0.2186(5) 0.8753(3)
C5 C 0.0719(8) 0.1675(5) 0.7747(4)
C9 C 0.0603(7) 0.0808(4) 0.6346(3)
C15 C 0.1518(8) 0.2125(5) 0.8515(4)
H6 H 0.103371 0.239873 0.888642
C18 C 0.2945(8) 0.1381(5) 0.7461(4)
H10 H 0.345842 0.112831 0.709872
C19 C 0.3696(8) 0.1835(7) 0.8245(4)
H11 H 0.473035 0.189964 0.842390
C27 C 0.3871(8) 0.2718(6) 0.9594(4)
H17 H 0.460589 0.234232 0.972873
H18 H 0.442550 0.339262 0.964741
H19 H 0.234851 0.438856 0.960434
H24 H 0.236562 0.072192 0.953485
O10 O 0.2090(7) 0.1360(5) 0.4746(3)
H28 H 0.219092 0.134932 0.429041
H29 H 0.265822 0.192452 0.509802
O16 O 0.4541(5) 0.1476(3) 0.5992(3)
O11 O 0.1049(7) 0.8366(4) 0.5049(3)
H30 H 0.151427 0.790306 0.505816
H31 H 0.030287 0.814097 0.463258
O12 O 0.3790(6) 0.9396(4) 0.6188(3)
O14 O 0.5715(6) 0.9703(4) 0.5753(3)
O15 O 0.0751(5) 0.9252(4) 0.3836(3)
O7 O 0.9249(5) 0.0748(4) 0.6164(3)
H1 H 0.968545 0.162106 0.758550
H1_2 H 0.031455 0.837894 0.241450
O11_2 O 0.8951(7) 0.1634(4) 0.4951(3)
H30_2 H 0.848573 0.209694 0.494184
H31_2 H 0.969713 0.185903 0.536742
O17 O 0.6646(6) 0.1584(4) 0.5648(3)
O4_2 O 0.8678(5) 0.9519(4) 0.4110(2)
C3_2 C 0.8554(7) 0.8703(4) 0.2794(3)
N3_2 N 0.7045(7) 0.7814(5) 0.1247(3)
C5_2 C 0.9281(8) 0.8325(5) 0.2253(4)
C9_2 C 0.9397(7) 0.9192(4) 0.3654(3)
C15_2 C 0.8482(8) 0.7875(5) 0.1485(4)
H6_2 H 0.896629 0.760127 0.111358
C18_2 C 0.7055(8) 0.8619(5) 0.2539(4)
H10_2 H 0.654158 0.887169 0.290128
C19_2 C 0.6304(8) 0.8165(7) 0.1755(4)
H11_2 H 0.526965 0.810036 0.157610
C27_2 C 0.6129(8) 0.7282(6) 0.0406(4)
H17_2 H 0.539411 0.765768 0.027127
H18_2 H 0.557450 0.660738 0.035259
H19_2 H 0.765149 0.561144 0.039566
H24_2 H 0.763438 0.927808 0.046515
O10_2 O 0.7910(7) 0.8640(5) 0.5254(3)
H28_2 H 0.780908 0.865068 0.570959
H29_2 H 0.734178 0.807548 0.490198
C2_2 C 0.7435(8) 0.6283(5) 0.9560(4)
N1_2 N 0.8116(6) 0.4480(4) 0.8064(3)
C4_2 C 0.5125(8) 0.9454(5) 0.6228(4)
N2_2 N 0.7802(7) 0.8850(4) 0.8098(3)
C6_2 C 0.8229(8) 0.6192(5) 0.9011(4)
C7_2 C 0.6624(8) 0.2826(5) 0.6770(4)
C8_2 C 0.8190(9) 0.7865(5) 0.9017(4)
C10_2 C 0.5851(7) 0.3369(5) 0.7197(4)
H2_2 H 0.480027 0.316323 0.704953
C11_2 C 0.6070(9) 0.9227(5) 0.6882(4)
C12_2 C 0.8948(8) 0.5329(5) 0.8812(4)
H3_2 H 0.907424 0.505816 0.924513
H4_2 H 0.994836 0.559448 0.878151
C13_2 C 0.6348(10) 0.8588(8) 0.7930(5)
H5_2 H 0.591336 0.827105 0.823540
C14_2 C 0.7021(8) 0.7171(6) 0.9834(4)
C16_2 C 0.7587(9) 0.9491(6) 0.7058(4)
H7_2 H 0.804821 0.980861 0.676098
C17_2 C 0.8795(9) 0.8742(5) 0.8795(4)
H8_2 H 0.975047 0.867806 0.869311
H9_2 H 0.899915 0.936403 0.924583
C20_2 C 0.6599(8) 0.4202(5) 0.7832(4)
H12_2 H 0.606425 0.459094 0.811370
C21_2 C 0.8570(8) 0.6965(5) 0.8717(4)
C22_2 C 0.8174(8) 0.3142(6) 0.7000(4)
H13_2 H 0.872585 0.279474 0.670213
C23_2 C 0.8883(8) 0.3955(5) 0.7657(4)
H14_2 H 0.993571 0.415102 0.782815
C24_2 C 0.8436(9) 0.9292(6) 0.7671(5)
H15_2 H 0.948591 0.947192 0.779154
C25_2 C 0.5430(10) 0.8764(8) 0.7319(5)
H16_2 H 0.438282 0.856844 0.720624
C26_2 C 0.7422(9) 0.7978(5) 0.9580(4)
C28_2 C 0.7045(11) 0.5431(6) 0.9855(5)
H20_2 H 0.599420 0.530324 0.983263
H21_2 H 0.723581 0.482720 0.952945
C29_2 C 0.7033(13) 0.8950(7) 0.9920(5)
H22_2 H 0.723095 0.938956 0.962231
H23_2 H 0.598052 0.881318 0.989353
C30_2 C 0.9354(9) 0.6835(6) 0.8084(4)
H25_2 H 0.908753 0.612584 0.775834
H26_2 H 0.904928 0.723277 0.776081
C31_2 C 0.5852(8) 0.1873(5) 0.6074(4)
H27 H 0.957154 0.293902 0.167314
H27_2 H 0.042846 0.706098 0.832686
loop_
_geom_bond_atom_site_label_1
_geom_bond_atom_site_label_2
_geom_bond_site_symmetry_1
_geom_bond_site_symmetry_2
S1 O1 1_555 1_555
F1 C1 1_555 1_555
F2 C1 1_555 1_555
O2 S1 1_555 1_555
O3 S1 1_555 1_555
C1 S1 1_555 1_555
S1_2 O1_2 1_555 1_555
F1_2 C1_2 1_555 1_555
F2_2 C1_2 1_555 1_555
O2_2 S1_2 1_555 1_555
O3_2 S1_2 1_555 1_555
C1_2 S1_2 1_555 1_555
O5 C4 1_555 1_555
O6 C4 1_555 1_555
C2 C6 1_555 1_555
N1 C12 1_555 1_555
C4 C11 1_555 1_555
N2 C13 1_555 1_555
C6 C12 1_555 1_555
C7 C10 1_555 1_555
C8 C17 1_555 1_555
C10 H2 1_555 1_555
C11 C16 1_555 1_555
C12 H3 1_555 1_555
H4 C12 1_555 1_555
C13 H5 1_555 1_555
C14 C2 1_555 1_555
C16 H7 1_555 1_555
C17 N2 1_555 1_555
H8 C17 1_555 1_555
H9 C17 1_555 1_555
C20 N1 1_555 1_555
H12 C20 1_555 1_555
C21 C6 1_555 1_555
C22 C7 1_555 1_555
H13 C22 1_555 1_555
C23 N1 1_555 1_555
H14 C23 1_555 1_555
C24 N2 1_555 1_555
H15 C24 1_555 1_555
C25 C11 1_555 1_555
H16 C25 1_555 1_555
C26 C8 1_555 1_555
C28 C2 1_555 1_555
H20 C28 1_555 1_555
H21 C28 1_555 1_555
C29 C26 1_555 1_555
H22 C29 1_555 1_555
H23 C29 1_555 1_555
C30 C21 1_555 1_555
H25 C30 1_555 1_555
H26 C30 1_555 1_555
O8 C31 1_555 1_555
O9 C31 1_555 1_555
C31 C7 1_555 1_555
Nd3 O9 1_555 1_555
Nd6 O5 1_555 1_555
O6 Nd6 1_555 1_555
C8 C21 1_555 1_555
C10 C20 1_555 1_555
C13 C25 1_555 1_555
C14 C26 1_555 1_555
C16 C24 1_555 1_555
C22 C23 1_555 1_555
O4 C9 1_555 1_555
C3 C5 1_555 1_555
N3 C15 1_555 1_555
C9 C3 1_555 1_555
C15 C5 1_555 1_555
H6 C15 1_555 1_555
C18 C3 1_555 1_555
H10 C18 1_555 1_555
C19 N3 1_555 1_555
H11 C19 1_555 1_555
C27 N3 1_555 1_555
H17 C27 1_555 1_555
H18 C27 1_555 1_555
H28 O10 1_555 1_555
H29 O10 1_555 1_555
C18 C19 1_555 1_555
O11 Nd3 1_555 1_555
H30 O11 1_555 1_555
H31 O11 1_555 1_555
O12 Nd3 1_555 1_555
O14 Nd3 1_555 1_555
O15 Nd3 1_555 1_555
Nd6 O7 1_555 1_555
O11_2 Nd6 1_555 1_555
H30_2 O11_2 1_555 1_555
H31_2 O11_2 1_555 1_555
O17 Nd6 1_555 1_555
O4_2 C9_2 1_555 1_555
C3_2 C5_2 1_555 1_555
N3_2 C15_2 1_555 1_555
C9_2 C3_2 1_555 1_555
C15_2 C5_2 1_555 1_555
H6_2 C15_2 1_555 1_555
C18_2 C3_2 1_555 1_555
H10_2 C18_2 1_555 1_555
C19_2 N3_2 1_555 1_555
H11_2 C19_2 1_555 1_555
C27_2 N3_2 1_555 1_555
H17_2 C27_2 1_555 1_555
H18_2 C27_2 1_555 1_555
H28_2 O10_2 1_555 1_555
H29_2 O10_2 1_555 1_555
C18_2 C19_2 1_555 1_555
O12 C4_2 1_555 1_555
O14 C4_2 1_555 1_555
C2_2 C6_2 1_555 1_555
N1_2 C12_2 1_555 1_555
C4_2 C11_2 1_555 1_555
N2_2 C13_2 1_555 1_555
C6_2 C12_2 1_555 1_555
C7_2 C10_2 1_555 1_555
C8_2 C17_2 1_555 1_555
C10_2 H2_2 1_555 1_555
C11_2 C16_2 1_555 1_555
C12_2 H3_2 1_555 1_555
H4_2 C12_2 1_555 1_555
C13_2 H5_2 1_555 1_555
C14_2 C2_2 1_555 1_555
C16_2 H7_2 1_555 1_555
C17_2 N2_2 1_555 1_555
H8_2 C17_2 1_555 1_555
H9_2 C17_2 1_555 1_555
C20_2 N1_2 1_555 1_555
H12_2 C20_2 1_555 1_555
C21_2 C6_2 1_555 1_555
C22_2 C7_2 1_555 1_555
H13_2 C22_2 1_555 1_555
C23_2 N1_2 1_555 1_555
H14_2 C23_2 1_555 1_555
C24_2 N2_2 1_555 1_555
H15_2 C24_2 1_555 1_555
C25_2 C11_2 1_555 1_555
H16_2 C25_2 1_555 1_555
C26_2 C8_2 1_555 1_555
C28_2 C2_2 1_555 1_555
H20_2 C28_2 1_555 1_555
H21_2 C28_2 1_555 1_555
C29_2 C26_2 1_555 1_555
H22_2 C29_2 1_555 1_555
H23_2 C29_2 1_555 1_555
C30_2 C21_2 1_555 1_555
H25_2 C30_2 1_555 1_555
H26_2 C30_2 1_555 1_555
O16 C31_2 1_555 1_555
O17 C31_2 1_555 1_555
C31_2 C7_2 1_555 1_555
C8_2 C21_2 1_555 1_555
C10_2 C20_2 1_555 1_555
C13_2 C25_2 1_555 1_555
C14_2 C26_2 1_555 1_555
C16_2 C24_2 1_555 1_555
C22_2 C23_2 1_555 1_555

#END
