
###############################################################################
#
# This file contains modified crystal structure data generated from the
# MOF subset of the Cambridge Structural Database (CSD) v543 
# hosted by the Cambridge Crystallographic Data Centre (CCDC).
#
# This work is licensed under the Creative Commons
# Attribution-NonCommercial-ShareAlike 4.0 International License.
# To view a copy of this license, visit
# http://creativecommons.org/licenses/by-nc-sa/4.0/
# or send a letter to
# Creative Commons, PO Box 1866, Mountain View, CA 94042, USA.
#
# CIF created using the CSD Python API on 29 September 2022
# The structure has been converted into the P1 space group
# The structure has a 3D framework
# The original CSD entry MOCWAF is in the triclinic crystal system
# The framework has been calculated to contain at least 10.0% void space
# The void calculation uses a probe of radius 1.32A, grid spacing 0.4
#
###############################################################################

data_MOCWAF
_chemical_formula_moiety         '(C62 H62 Br4 F6 N6 O22 S2 Sm2)n'
_symmetry_cell_setting           triclinic
_symmetry_space_group_name_H-M   'P 1'
_symmetry_Int_Tables_number      1
_space_group_name_Hall           'P 1'
loop_
_symmetry_equiv_pos_site_id
_symmetry_equiv_pos_as_xyz
1 x,y,z
_cell_length_a                   9.5251(3)
_cell_length_b                   14.2183(3)
_cell_length_c                   18.8650(7)
_cell_angle_alpha                107.596(3)
_cell_angle_beta                 102.916(3)
_cell_angle_gamma                99.489(2)
_cell_volume                     2298.26
loop_
_atom_site_label
_atom_site_type_symbol
_atom_site_fract_x
_atom_site_fract_y
_atom_site_fract_z
Br1 Br 0.23436(13) 0.41504(10) 0.31328(6)
Br1_2 Br 0.76564(13) 0.58496(10) 0.68672(6)
Br2 Br 0.28580(14) 0.92351(14) 0.29472(9)
Br2_2 Br 0.71420(14) 0.07649(14) 0.70528(9)
S1 S 0.7990(7) 0.7607(5) 0.3997(3)
F1 F 0.6667(8) 0.5953(6) 0.4170(6)
O1 O 0.9447(7) 0.8242(5) 0.4319(4)
O2 O 0.6855(8) 0.8066(6) 0.4216(6)
F2 F 0.9058(9) 0.6147(5) 0.4280(5)
F3 F 0.8299(10) 0.6977(8) 0.5192(5)
O3 O 0.7549(10) 0.6988(8) 0.3177(5)
C1 C 0.7980(11) 0.6621(9) 0.4420(8)
S1_2 S 0.2010(7) 0.2393(5) 0.6003(3)
F1_2 F 0.3333(8) 0.4047(6) 0.5830(6)
O1_2 O 0.0553(7) 0.1758(5) 0.5681(4)
O2_2 O 0.3145(8) 0.1934(6) 0.5784(6)
F2_2 F 0.0942(9) 0.3853(5) 0.5720(5)
F3_2 F 0.1701(10) 0.3023(8) 0.4808(5)
O3_2 O 0.2451(10) 0.3012(8) 0.6823(5)
C1_2 C 0.2020(11) 0.3379(9) 0.5580(8)
Sm3 Sm 0.27105(3) 0.48627(2) 0.00537(2)
H10 H 0.037744 0.201160 0.332689
H24 H 0.029040 0.335650 0.740531
O6 O 0.0731(5) 0.4145(4) 0.8842(3)
O4 O 0.5902(5) 0.4712(4) 0.0753(3)
O5 O 0.3898(5) 0.4395(4) 0.1140(3)
C2 C 0.5246(8) 0.4460(5) 0.1201(4)
C3 C 0.8869(8) 0.0297(5) 0.3847(4)
H1 H 0.989142 0.053906 0.382790
H2 H 0.894587 0.002152 0.427349
C4 C 0.8186(8) 0.1194(5) 0.4033(3)
C5 C 0.6179(8) 0.4231(5) 0.1859(4)
C7 C 0.6989(8) 0.2259(6) 0.4839(4)
C8 C 0.7684(9) 0.4393(6) 0.2009(4)
H4 H 0.816525 0.463016 0.168306
C9 C 0.7417(9) 0.3049(6) 0.4581(4)
N2 N 0.7844(7) 0.3847(5) 0.3080(3)
C11 C 0.7398(8) 0.1328(5) 0.4581(4)
C13 C 0.8175(8) 0.2886(6) 0.4016(4)
C14 C 0.6079(9) 0.2411(7) 0.5411(4)
H7 H 0.544775 0.174115 0.533549
H8 H 0.541188 0.284463 0.529564
C15 C 0.5499(9) 0.3825(7) 0.2318(5)
H9 H 0.444747 0.367582 0.221073
C16 C 0.9298(9) 0.1762(6) 0.3091(4)
H11 H 0.896649 0.212127 0.274110
H12 H 0.904939 0.102899 0.279513
C17 C 0.8525(8) 0.1952(5) 0.3725(4)
C18 C 0.8503(8) 0.4216(6) 0.2627(4)
H13 H 0.955460 0.435651 0.273828
C20 C 0.6353(9) 0.3639(8) 0.2925(5)
H15 H 0.588869 0.336180 0.323959
C21 C 0.8815(9) 0.3754(6) 0.3785(4)
H16 H 0.902495 0.439908 0.422677
H17 H 0.977470 0.366734 0.368978
C22 C 0.7005(11) 0.0498(7) 0.4908(5)
H19 H 0.611467 0.055946 0.507885
H20 H 0.783572 0.057083 0.535071
C23 C 0.7014(13) 0.4045(7) 0.4901(6)
H21 H 0.592894 0.393197 0.474866
H22 H 0.744863 0.453762 0.469241
H23 H 0.740182 0.431166 0.546908
N3 N 0.7017(6) 0.2899(4) 0.6253(3)
C25 C 0.9263(7) 0.3338(5) 0.7249(4)
C27 C 0.8555(7) 0.3725(5) 0.7800(3)
C28 C 0.6312(8) 0.3278(7) 0.6779(4)
H25 H 0.528569 0.325504 0.660872
C29 C 0.8463(8) 0.2927(6) 0.6476(4)
H26 H 0.894238 0.266161 0.609645
C30 C 0.7059(8) 0.3694(6) 0.7554(4)
H27 H 0.655557 0.396037 0.792154
C31 C 0.9410(7) 0.4187(5) 0.8662(3)
O7 O 0.8726(5) 0.4578(4) 0.9119(2)
H29 H 0.261562 0.689674 0.001759
O9 O 0.1021(6) 0.3332(4) 0.0078(3)
H30 H 0.129727 0.325021 0.053189
Sm6 Sm 0.72895(3) 0.51373(2) 0.99463(2)
O14 O 0.1274(5) 0.5422(4) 0.0881(2)
O16 O 0.4497(5) 0.6425(3) 0.0975(3)
O8 O 0.1898(7) 0.6301(5) 0.9776(3)
H28 H 0.165148 0.619893 0.925910
H31 H 0.102163 0.276695 0.971121
O12 O 0.4098(5) 0.5288(4) 0.9247(3)
O15 O 0.3421(5) 0.3391(4) 0.9395(3)
N1 N 0.8017(6) 0.9449(4) 0.3092(3)
C6 C 0.5769(8) 0.8330(5) 0.2214(4)
H3 H 0.471241 0.813147 0.206135
C10 C 0.8105(8) 0.8121(6) 0.2011(4)
H5 H 0.866659 0.777795 0.170898
C12 C 0.6538(8) 0.9157(5) 0.2871(4)
H6 H 0.600339 0.952923 0.317356
C19 C 0.8813(8) 0.8936(6) 0.2674(4)
H14 H 0.986900 0.914499 0.284359
H18 H 0.681038 0.982830 0.450446
C24 C 0.6559(7) 0.7788(5) 0.1775(4)
C26 C 0.5788(8) 0.6853(5) 0.1050(4)
O10 O 0.6579(5) 0.6609(4) 0.0605(3)
N1_2 N 0.1983(6) 0.0551(4) 0.6908(3)
C6_2 C 0.4231(8) 0.1670(5) 0.7786(4)
H3_2 H 0.528759 0.186853 0.793865
C10_2 C 0.1895(8) 0.1879(6) 0.7989(4)
H5_2 H 0.133341 0.222205 0.829102
C12_2 C 0.3462(8) 0.0843(5) 0.7129(4)
H6_2 H 0.399661 0.047077 0.682644
C19_2 C 0.1187(8) 0.1064(6) 0.7326(4)
H14_2 H 0.013100 0.085501 0.715641
H18_2 H 0.318962 0.017170 0.549554
C24_2 C 0.3441(7) 0.2212(5) 0.8225(4)
C26_2 C 0.4212(8) 0.3147(5) 0.8950(4)
O11 O 0.5503(5) 0.3575(3) 0.9025(3)
O8_2 O 0.8102(7) 0.3699(5) 0.0224(3)
H28_2 H 0.834852 0.380107 0.074090
H31_2 H 0.897837 0.723305 0.028879
O13 O 0.9269(5) 0.5855(4) 0.1158(3)
O5_2 O 0.6102(5) 0.5605(4) 0.8860(3)
C2_2 C 0.4754(8) 0.5540(5) 0.8799(4)
C3_2 C 0.1131(8) 0.9703(5) 0.6153(4)
H1_2 H 0.010858 0.946094 0.617210
H2_2 H 0.105413 0.997848 0.572651
C4_2 C 0.1814(8) 0.8806(5) 0.5967(3)
C5_2 C 0.3821(8) 0.5769(5) 0.8141(4)
C7_2 C 0.3011(8) 0.7741(6) 0.5161(4)
C8_2 C 0.2316(9) 0.5607(6) 0.7991(4)
H4_2 H 0.183475 0.536984 0.831694
C9_2 C 0.2583(9) 0.6951(6) 0.5419(4)
N2_2 N 0.2156(7) 0.6153(5) 0.6920(3)
C11_2 C 0.2602(8) 0.8672(5) 0.5419(4)
C13_2 C 0.1825(8) 0.7114(6) 0.5984(4)
C14_2 C 0.3921(9) 0.7589(7) 0.4589(4)
H7_2 H 0.455225 0.825885 0.466451
H8_2 H 0.458812 0.715537 0.470436
C15_2 C 0.4501(9) 0.6175(7) 0.7682(5)
H9_2 H 0.555253 0.632418 0.778927
C16_2 C 0.0702(9) 0.8238(6) 0.6909(4)
H11_2 H 0.103351 0.787873 0.725890
H12_2 H 0.095061 0.897101 0.720487
C17_2 C 0.1475(8) 0.8048(5) 0.6275(4)
C18_2 C 0.1497(8) 0.5784(6) 0.7373(4)
H13_2 H 0.044540 0.564349 0.726172
C20_2 C 0.3647(9) 0.6361(8) 0.7075(5)
H15_2 H 0.411131 0.663820 0.676041
C21_2 C 0.1185(9) 0.6246(6) 0.6215(4)
H16_2 H 0.097505 0.560092 0.577323
H17_2 H 0.022530 0.633266 0.631022
C22_2 C 0.2995(11) 0.9502(7) 0.5092(5)
H19_2 H 0.388533 0.944054 0.492115
H20_2 H 0.216428 0.942917 0.464929
C23_2 C 0.2986(13) 0.5955(7) 0.5099(6)
H21_2 H 0.407106 0.606803 0.525134
H22_2 H 0.255137 0.546238 0.530759
H23_2 H 0.259818 0.568834 0.453092
N3_2 N 0.2983(6) 0.7101(4) 0.3747(3)
C25_2 C 0.0737(7) 0.6662(5) 0.2751(4)
C27_2 C 0.1445(7) 0.6275(5) 0.2200(3)
C28_2 C 0.3688(8) 0.6722(7) 0.3221(4)
H25_2 H 0.471431 0.674496 0.339128
C29_2 C 0.1537(8) 0.7073(6) 0.3524(4)
H26_2 H 0.105762 0.733839 0.390355
C30_2 C 0.2941(8) 0.6306(6) 0.2446(4)
H27_2 H 0.344443 0.603963 0.207846
C31_2 C 0.0590(7) 0.5813(5) 0.1338(3)
H29_2 H 0.738438 0.310326 0.998241
O9_2 O 0.8979(6) 0.6668(4) 0.9922(3)
H30_2 H 0.870273 0.674979 0.946811
H10_2 H 0.962256 0.798840 0.667311
H24_2 H 0.970960 0.664350 0.259469
loop_
_geom_bond_atom_site_label_1
_geom_bond_atom_site_label_2
_geom_bond_site_symmetry_1
_geom_bond_site_symmetry_2
S1 O1 1_555 1_555
F1 C1 1_555 1_555
O2 S1 1_555 1_555
F2 C1 1_555 1_555
F3 C1 1_555 1_555
O3 S1 1_555 1_555
C1 S1 1_555 1_555
S1_2 O1_2 1_555 1_555
F1_2 C1_2 1_555 1_555
O2_2 S1_2 1_555 1_555
F2_2 C1_2 1_555 1_555
F3_2 C1_2 1_555 1_555
O3_2 S1_2 1_555 1_555
C1_2 S1_2 1_555 1_555
Sm3 O5 1_555 1_555
O4 C2 1_555 1_555
O5 C2 1_555 1_555
C2 C5 1_555 1_555
C3 H1 1_555 1_555
H2 C3 1_555 1_555
C4 C3 1_555 1_555
C5 C8 1_555 1_555
C7 C9 1_555 1_555
C8 H4 1_555 1_555
C9 C13 1_555 1_555
N2 C18 1_555 1_555
C11 C4 1_555 1_555
C13 C17 1_555 1_555
C14 C7 1_555 1_555
H7 C14 1_555 1_555
H8 C14 1_555 1_555
C15 C5 1_555 1_555
H9 C15 1_555 1_555
H11 C16 1_555 1_555
H12 C16 1_555 1_555
C17 C4 1_555 1_555
C18 C8 1_555 1_555
H13 C18 1_555 1_555
C20 N2 1_555 1_555
H15 C20 1_555 1_555
C21 N2 1_555 1_555
H16 C21 1_555 1_555
H17 C21 1_555 1_555
C22 C11 1_555 1_555
H19 C22 1_555 1_555
H20 C22 1_555 1_555
C23 C9 1_555 1_555
H21 C23 1_555 1_555
H22 C23 1_555 1_555
H23 C23 1_555 1_555
N3 C14 1_555 1_555
C27 C25 1_555 1_555
C28 N3 1_555 1_555
H25 C28 1_555 1_555
C29 N3 1_555 1_555
H26 C29 1_555 1_555
C30 C27 1_555 1_555
H27 C30 1_555 1_555
C31 C27 1_555 1_555
O7 C31 1_555 1_555
O9 Sm3 1_555 1_555
H30 O9 1_555 1_555
Sm6 O7 1_555 1_555
O14 Sm3 1_555 1_555
O16 Sm3 1_555 1_555
C7 C11 1_555 1_555
C13 C21 1_555 1_555
C15 C20 1_555 1_555
C16 C17 1_555 1_555
C25 C29 1_555 1_555
C28 C30 1_555 1_555
H28 O8 1_555 1_555
C6 H3 1_555 1_555
C10 H5 1_555 1_555
C12 N1 1_555 1_555
H6 C12 1_555 1_555
C19 N1 1_555 1_555
H14 C19 1_555 1_555
C24 C6 1_555 1_555
C26 C24 1_555 1_555
O10 C26 1_555 1_555
O16 C26 1_555 1_555
C6 C12 1_555 1_555
C10 C19 1_555 1_555
C10 C24 1_555 1_555
C6_2 H3_2 1_555 1_555
C10_2 H5_2 1_555 1_555
C12_2 N1_2 1_555 1_555
H6_2 C12_2 1_555 1_555
C19_2 N1_2 1_555 1_555
H14_2 C19_2 1_555 1_555
C24_2 C6_2 1_555 1_555
C26_2 C24_2 1_555 1_555
O15 C26_2 1_555 1_555
O11 C26_2 1_555 1_555
Sm6 O11 1_555 1_555
C6_2 C12_2 1_555 1_555
C10_2 C19_2 1_555 1_555
C10_2 C24_2 1_555 1_555
H28_2 O8_2 1_555 1_555
Sm6 O5_2 1_555 1_555
O12 C2_2 1_555 1_555
O5_2 C2_2 1_555 1_555
C2_2 C5_2 1_555 1_555
C3_2 H1_2 1_555 1_555
H2_2 C3_2 1_555 1_555
C4_2 C3_2 1_555 1_555
C5_2 C8_2 1_555 1_555
C7_2 C9_2 1_555 1_555
C8_2 H4_2 1_555 1_555
C9_2 C13_2 1_555 1_555
N2_2 C18_2 1_555 1_555
C11_2 C4_2 1_555 1_555
C13_2 C17_2 1_555 1_555
C14_2 C7_2 1_555 1_555
H7_2 C14_2 1_555 1_555
H8_2 C14_2 1_555 1_555
C15_2 C5_2 1_555 1_555
H9_2 C15_2 1_555 1_555
H11_2 C16_2 1_555 1_555
H12_2 C16_2 1_555 1_555
C17_2 C4_2 1_555 1_555
C18_2 C8_2 1_555 1_555
H13_2 C18_2 1_555 1_555
C20_2 N2_2 1_555 1_555
H15_2 C20_2 1_555 1_555
C21_2 N2_2 1_555 1_555
H16_2 C21_2 1_555 1_555
H17_2 C21_2 1_555 1_555
C22_2 C11_2 1_555 1_555
H19_2 C22_2 1_555 1_555
H20_2 C22_2 1_555 1_555
C23_2 C9_2 1_555 1_555
H21_2 C23_2 1_555 1_555
H22_2 C23_2 1_555 1_555
H23_2 C23_2 1_555 1_555
N3_2 C14_2 1_555 1_555
C27_2 C25_2 1_555 1_555
C28_2 N3_2 1_555 1_555
H25_2 C28_2 1_555 1_555
C29_2 N3_2 1_555 1_555
H26_2 C29_2 1_555 1_555
C30_2 C27_2 1_555 1_555
H27_2 C30_2 1_555 1_555
C31_2 C27_2 1_555 1_555
O14 C31_2 1_555 1_555
O9_2 Sm6 1_555 1_555
H30_2 O9_2 1_555 1_555
C7_2 C11_2 1_555 1_555
C13_2 C21_2 1_555 1_555
C15_2 C20_2 1_555 1_555
C16_2 C17_2 1_555 1_555
C25_2 C29_2 1_555 1_555
C28_2 C30_2 1_555 1_555

#END
