
###############################################################################
#
# This file contains modified crystal structure data generated from the
# MOF subset of the Cambridge Structural Database (CSD) v543 
# hosted by the Cambridge Crystallographic Data Centre (CCDC).
#
# This work is licensed under the Creative Commons
# Attribution-NonCommercial-ShareAlike 4.0 International License.
# To view a copy of this license, visit
# http://creativecommons.org/licenses/by-nc-sa/4.0/
# or send a letter to
# Creative Commons, PO Box 1866, Mountain View, CA 94042, USA.
#
# CIF created using the CSD Python API on 29 September 2022
# The structure has been converted into the P1 space group
# The structure has a 3D framework
# The original CSD entry MOFBIU is in the orthorhombic crystal system
# The framework has been calculated to contain at least 10.0% void space
# The void calculation uses a probe of radius 1.32A, grid spacing 0.4
#
###############################################################################

data_MOFBIU
_chemical_formula_moiety         '(C148 H128 Cd4 N8 O28)n'
_symmetry_cell_setting           triclinic
_symmetry_space_group_name_H-M   'P 1'
_symmetry_Int_Tables_number      1
_space_group_name_Hall           'P 1'
loop_
_symmetry_equiv_pos_site_id
_symmetry_equiv_pos_as_xyz
1 x,y,z
_cell_length_a                   13.0642(4)
_cell_length_b                   19.2967(9)
_cell_length_c                   13.5884(4)
_cell_angle_alpha                90
_cell_angle_beta                 90
_cell_angle_gamma                90
_cell_volume                     3425.58
loop_
_atom_site_label
_atom_site_type_symbol
_atom_site_fract_x
_atom_site_fract_y
_atom_site_fract_z
Cd3 Cd 0.20620(2) 0.277810(17) 0.12463(4)
Cd1 Cd 0.29380(2) 0.777810(17) 0.62463(4)
O4 O 0.3650(3) 0.7667(2) 0.7800(3)
O5 O 0.2294(3) 0.6985(2) 0.7750(3)
O6 O 0.4766(3) 0.7754(2) 0.9303(3)
H2 H 0.4618 0.7771 0.8717
O7 O 0.4395(3) 0.8532(3) 0.6230(5)
H3 H 0.486(2) 0.842(4) 0.664(3)
N1 N 0.3604(3) 0.6747(2) 0.5704(3)
N2 N 0.3258(3) 0.3543(2) 0.1827(3)
H4 H 0.6056 0.6878 0.9846
C7 C 0.7291(5) 0.6297(3) 0.9664(4)
H5 H 0.7232 0.6267 0.8983
H6 H 0.8573 0.5698 0.9782
C12 C 0.3035(4) 0.7242(3) 0.8204(4)
C13 C 0.3231(4) 0.7058(3) 0.9272(4)
C14 C 0.4089(4) 0.7343(3) 0.9780(4)
C22 C 0.2557(4) 0.6642(3) 0.9766(4)
H13 H 0.2013 0.6444 0.9426
C24 C 0.4489(4) 0.6760(3) 0.5230(4)
H16 H 0.4796 0.7188 0.5121
C25 C 0.4980(5) 0.6179(4) 0.4890(6)
H17 H 0.5609 0.6219 0.4575
C26 C 0.4538(5) 0.5537(3) 0.5017(4)
C27 C 0.3608(5) 0.5528(3) 0.5489(4)
H18 H 0.3271 0.5108 0.5581
C28 C 0.3171(5) 0.6125(3) 0.5825(4)
H19 H 0.2547 0.6098 0.6152
C29 C 0.3111(4) 0.4226(3) 0.1705(4)
H20 H 0.2525 0.4371 0.1374
C30 C 0.3769(5) 0.4717(3) 0.2037(4)
H21 H 0.3624 0.5183 0.1931
C31 C 0.4651(4) 0.4534(3) 0.2531(4)
C32 C 0.4820(5) 0.3824(3) 0.2657(5)
H22 H 0.5405 0.3668 0.2978
C33 C 0.4105(4) 0.3356(3) 0.2300(4)
H23 H 0.4225 0.2886 0.2396
C34 C 0.5081(6) 0.4861(3) 0.4697(5)
H24 H 0.5412 0.4663 0.5271
H25 H 0.4561 0.4535 0.4484
C35 C 0.5860(4) 0.4919(3) 0.3899(5)
H26 H 0.6245 0.4490 0.3865
H27 H 0.6336 0.5288 0.4064
C36 C 0.5396(5) 0.5068(3) 0.2888(5)
H28 H 0.5947 0.5107 0.2413
H29 H 0.5051 0.5513 0.2914
C37 C 0.4850(8) 0.8947(5) 0.5439(7)
H30 H 0.4612 0.8780 0.4814
H31 H 0.5583 0.8909 0.5468
H32 H 0.4655 0.9423 0.5518
O8 O 0.2927(3) 0.8274(2) 0.4713(3)
O9 O 0.1691(3) 0.7496(2) 0.4782(3)
N3 N 0.1742(3) 0.8543(2) 0.6827(3)
O3 O 0.0542(3) 0.7306(2) 0.3288(3)
H1 H 0.0703 0.7314 0.3871
C1 C 0.2221(4) 0.7937(3) 0.4319(4)
C2 C 0.1988(4) 0.8073(3) 0.3245(4)
C3 C 0.1164(4) 0.7743(2) 0.2770(4)
C4 C 0.0968(4) 0.7832(2) 0.1766(3)
C5 C 0.1657(3) 0.8254(2) 0.1228(6)
C6 C 0.1593(4) 0.8333(3) 0.0181(4)
C8 C 0.3102(5) 0.9044(3) 0.0142(5)
C9 C 0.3193(4) 0.8990(3) 0.1157(6)
H7 H 0.3722 0.9218 0.1481
C10 C 0.2491(4) 0.8594(3) 0.1691(4)
C11 C 0.2625(4) 0.8499(3) 0.2717(4)
H8 H 0.3155 0.8729 0.3038
C23 C 0.0122(3) 0.7416(2) 0.1298(7)
H14 H 0.0436 0.7103 0.0828
O4_2 O 0.1350(3) 0.2667(2) 0.2800(3)
O5_2 O 0.2706(3) 0.1985(2) 0.2750(3)
O6_2 O 0.0234(3) 0.2754(2) 0.4303(3)
H2_2 H 0.0382 0.2771 0.3717
O7_2 O 0.0605(3) 0.3532(3) 0.1230(5)
H3_2 H 0.014(2) 0.342(4) 0.164(3)
N1_2 N 0.1396(3) 0.1747(2) 0.0704(3)
C12_2 C 0.1965(4) 0.2242(3) 0.3204(4)
C13_2 C 0.1769(4) 0.2058(3) 0.4272(4)
C14_2 C 0.0911(4) 0.2343(3) 0.4780(4)
C15 C 0.0749(4) 0.2215(2) 0.5770(3)
C16 C 0.1483(3) 0.1809(2) 0.6295(6)
C17 C 0.1442(4) 0.1714(3) 0.7340(4)
H9 H 0.0901 0.1903 0.7693
C18 C 0.2171(4) 0.1357(3) 0.7818(5)
H10 H 0.2136 0.1316 0.8499
C19 C 0.2990(4) 0.1041(3) 0.7305(5)
H11 H 0.3476 0.0783 0.7645
C20 C 0.3061(3) 0.1116(2) 0.6326(7)
H12 H 0.3601 0.0908 0.5991
C21 C 0.2327(4) 0.1507(3) 0.5792(4)
C22_2 C 0.2443(4) 0.1642(3) 0.4766(4)
H13_2 H 0.2987 0.1444 0.4426
H15 H 0.0181 0.2869 0.6809
C24_2 C 0.0511(4) 0.1760(3) 0.0230(4)
H16_2 H 0.0204 0.2188 0.0121
C26_2 C 0.0462(5) 0.0537(3) 0.0017(4)
C27_2 C 0.1392(5) 0.0528(3) 0.0489(4)
H18_2 H 0.1729 0.0108 0.0581
C28_2 C 0.1829(5) 0.1125(3) 0.0825(4)
H19_2 H 0.2453 0.1098 0.1152
C37_2 C 0.0150(8) 0.3947(5) 0.0439(7)
H32_2 H 0.0345 0.4423 0.0518
C29_2 C 0.1889(4) 0.9226(3) 0.6705(4)
H20_2 H 0.2475 0.9371 0.6374
C30_2 C 0.1231(5) 0.9717(3) 0.7037(4)
C31_2 C 0.0349(4) 0.9534(3) 0.7531(4)
C32_2 C 0.0180(5) 0.8824(3) 0.7657(5)
C33_2 C 0.0895(4) 0.8356(3) 0.7300(4)
H23_2 H 0.0775 0.7886 0.7396
H25_2 H 0.0439 0.9535 0.9484
Cd1_2 Cd 0.70620(2) 0.222190(17) 0.12463(4)
O1 O 0.2073(3) 0.3274(2) 0.9713(3)
O2 O 0.3309(3) 0.2496(2) 0.9782(3)
O3_2 O 0.4458(3) 0.2306(2) 0.8288(3)
H1_2 H 0.4297 0.2314 0.8871
O4_3 O 0.6350(3) 0.2333(2) 0.2800(3)
O5_3 O 0.7706(3) 0.3015(2) 0.2750(3)
O6_3 O 0.5234(3) 0.2246(2) 0.4303(3)
H2_3 H 0.5382 0.2229 0.3717
O7_3 O 0.5605(3) 0.1468(3) 0.1230(5)
H3_3 H 0.514(2) 0.158(4) 0.164(3)
N1_3 N 0.6396(3) 0.3253(2) 0.0704(3)
C1_2 C 0.2779(4) 0.2937(3) 0.9319(4)
C2_2 C 0.3012(4) 0.3073(3) 0.8245(4)
C3_2 C 0.3836(4) 0.2743(2) 0.7770(4)
C4_2 C 0.4032(4) 0.2832(2) 0.6766(3)
C5_2 C 0.3343(3) 0.3254(2) 0.6228(6)
C6_2 C 0.3407(4) 0.3333(3) 0.5181(4)
H4_2 H 0.3944 0.3122 0.4846
C7_2 C 0.2709(5) 0.3703(3) 0.4664(4)
H5_2 H 0.2768 0.3733 0.3983
C8_2 C 0.1898(5) 0.4044(3) 0.5142(5)
H6_2 H 0.1427 0.4302 0.4782
C9_2 C 0.1807(4) 0.3990(3) 0.6157(6)
H7_2 H 0.1278 0.4218 0.6481
C10_2 C 0.2509(4) 0.3594(3) 0.6691(4)
C11_2 C 0.2375(4) 0.3499(3) 0.7717(4)
H8_2 H 0.1845 0.3729 0.8038
C12_3 C 0.6965(4) 0.2758(3) 0.3204(4)
C13_3 C 0.6769(4) 0.2942(3) 0.4272(4)
C14_3 C 0.5911(4) 0.2657(3) 0.4780(4)
C15_2 C 0.5749(4) 0.2785(2) 0.5770(3)
C16_2 C 0.6483(3) 0.3191(2) 0.6295(6)
C17_2 C 0.6442(4) 0.3286(3) 0.7340(4)
H9_2 H 0.5901 0.3097 0.7693
C18_2 C 0.7171(4) 0.3643(3) 0.7818(5)
H10_2 H 0.7136 0.3684 0.8499
C19_2 C 0.7990(4) 0.3959(3) 0.7305(5)
H11_2 H 0.8476 0.4217 0.7645
C20_2 C 0.8061(3) 0.3884(2) 0.6326(7)
H12_2 H 0.8601 0.4092 0.5991
C21_2 C 0.7327(4) 0.3493(3) 0.5792(4)
C22_3 C 0.7443(4) 0.3358(3) 0.4766(4)
H13_3 H 0.7987 0.3556 0.4426
C23_2 C 0.4878(3) 0.2416(2) 0.6298(7)
H14_2 H 0.4564 0.2103 0.5828
H15_2 H 0.5181 0.2131 0.6809
C24_3 C 0.5511(4) 0.3240(3) 0.0230(4)
H16_3 H 0.5204 0.2812 0.0121
C26_3 C 0.5462(5) 0.4463(3) 0.0017(4)
C27_3 C 0.6392(5) 0.4472(3) 0.0489(4)
H18_3 H 0.6729 0.4892 0.0581
C28_3 C 0.6829(5) 0.3875(3) 0.0825(4)
H19_3 H 0.7453 0.3902 0.1152
H24_2 H 0.4588 0.5337 0.0271
C37_3 C 0.5150(8) 0.1053(5) 0.0439(7)
H31_2 H 0.4417 0.1091 0.0468
H32_3 H 0.5345 0.0577 0.0518
N3_2 N 0.8258(3) 0.1457(2) 0.1827(3)
C29_3 C 0.8111(4) 0.0774(3) 0.1705(4)
H20_3 H 0.7525 0.0629 0.1374
C30_3 C 0.8769(5) 0.0283(3) 0.2037(4)
C31_3 C 0.9651(4) 0.0466(3) 0.2531(4)
C32_3 C 0.9820(5) 0.1176(3) 0.2657(5)
C33_3 C 0.9105(4) 0.1644(3) 0.2300(4)
H23_3 H 0.9225 0.2114 0.2396
H25_3 H 0.9561 0.0465 0.4484
C25_2 C 0.0020(5) 0.1179(4) 0.9890(6)
H21_2 H 0.1376 0.0183 0.6931
H30_2 H 0.0388 0.3780 0.9814
N2_2 N 0.6742(3) 0.6457(2) 0.6827(3)
C25_3 C 0.5020(5) 0.3821(4) 0.9890(6)
H17_2 H 0.4391 0.3781 0.9575
C29_4 C 0.6889(4) 0.5774(3) 0.6705(4)
H20_4 H 0.7475 0.5629 0.6374
C30_4 C 0.6231(5) 0.5283(3) 0.7037(4)
H21_3 H 0.6376 0.4817 0.6931
C31_4 C 0.5349(4) 0.5466(3) 0.7531(4)
C32_4 C 0.5180(5) 0.6176(3) 0.7657(5)
H22_2 H 0.4595 0.6332 0.7978
C33_4 C 0.5895(4) 0.6644(3) 0.7300(4)
H23_4 H 0.5775 0.7114 0.7396
C34_2 C 0.4919(6) 0.5139(3) 0.9697(5)
H25_4 H 0.5439 0.5465 0.9484
C35_2 C 0.4140(4) 0.5081(3) 0.8899(5)
H26_2 H 0.3755 0.5510 0.8865
H27_2 H 0.3664 0.4712 0.9064
C36_2 C 0.4604(5) 0.4932(3) 0.7888(5)
H28_2 H 0.4053 0.4893 0.7413
H29_2 H 0.4949 0.4487 0.7914
H30_3 H 0.5388 0.1220 0.9814
Cd2 Cd 0.79380(2) 0.722190(17) 0.62463(4)
O8_2 O 0.7073(3) 0.1726(2) 0.9713(3)
O9_2 O 0.8309(3) 0.2504(2) 0.9782(3)
O1_2 O 0.7927(3) 0.6726(2) 0.4713(3)
O2_2 O 0.6691(3) 0.7504(2) 0.4782(3)
O3_3 O 0.5542(3) 0.7694(2) 0.3288(3)
H1_3 H 0.5703 0.7686 0.3871
C1_3 C 0.7221(4) 0.7063(3) 0.4319(4)
C2_3 C 0.6988(4) 0.6927(3) 0.3245(4)
C3_3 C 0.6164(4) 0.7257(2) 0.2770(4)
C4_3 C 0.5968(4) 0.7168(2) 0.1766(3)
C5_3 C 0.6657(3) 0.6746(2) 0.1228(6)
C6_3 C 0.6593(4) 0.6667(3) 0.0181(4)
C8_3 C 0.8102(5) 0.5956(3) 0.0142(5)
C9_3 C 0.8193(4) 0.6010(3) 0.1157(6)
H7_3 H 0.8722 0.5782 0.1481
C10_3 C 0.7491(4) 0.6406(3) 0.1691(4)
C11_3 C 0.7625(4) 0.6501(3) 0.2717(4)
H8_3 H 0.8155 0.6271 0.3038
C15_3 C 0.4251(4) 0.7215(2) 0.0770(3)
C16_3 C 0.3517(3) 0.6809(2) 0.1295(6)
C17_3 C 0.3558(4) 0.6714(3) 0.2340(4)
H9_3 H 0.4099 0.6903 0.2693
C18_3 C 0.2829(4) 0.6357(3) 0.2818(5)
H10_3 H 0.2864 0.6316 0.3499
C19_3 C 0.2010(4) 0.6041(3) 0.2305(5)
H11_3 H 0.1524 0.5783 0.2645
C20_3 C 0.1939(3) 0.6116(2) 0.1326(7)
H12_3 H 0.1399 0.5908 0.0991
C21_3 C 0.2673(4) 0.6507(3) 0.0792(4)
C23_3 C 0.5122(3) 0.7584(2) 0.1298(7)
H14_3 H 0.5436 0.7897 0.0828
H15_3 H 0.4819 0.7869 0.1809
O4_4 O 0.8650(3) 0.7333(2) 0.7800(3)
O5_4 O 0.7294(3) 0.8015(2) 0.7750(3)
O6_4 O 0.9766(3) 0.7246(2) 0.9303(3)
H2_4 H 0.9618 0.7229 0.8717
O7_4 O 0.9395(3) 0.6468(3) 0.6230(5)
H3_4 H 0.986(2) 0.658(4) 0.664(3)
N1_4 N 0.8604(3) 0.8253(2) 0.5704(3)
C12_4 C 0.8035(4) 0.7758(3) 0.8204(4)
C13_4 C 0.8231(4) 0.7942(3) 0.9272(4)
C14_4 C 0.9089(4) 0.7657(3) 0.9780(4)
C22_4 C 0.7557(4) 0.8358(3) 0.9766(4)
H13_4 H 0.7013 0.8556 0.9426
C24_4 C 0.9489(4) 0.8240(3) 0.5230(4)
H16_4 H 0.9796 0.7812 0.5121
C25_4 C 0.9980(5) 0.8821(4) 0.4890(6)
C26_4 C 0.9538(5) 0.9463(3) 0.5017(4)
C27_4 C 0.8608(5) 0.9472(3) 0.5489(4)
H18_4 H 0.8271 0.9892 0.5581
C28_4 C 0.8171(5) 0.8875(3) 0.5825(4)
H19_4 H 0.7547 0.8902 0.6152
H21_4 H 0.8624 0.9817 0.1931
C37_4 C 0.9850(8) 0.6053(5) 0.5439(7)
H30_4 H 0.9612 0.6220 0.4814
H32_4 H 0.9655 0.5577 0.5518
O3_4 O 0.9458(3) 0.2694(2) 0.8288(3)
H1_4 H 0.9297 0.2686 0.8871
C1_4 C 0.7779(4) 0.2063(3) 0.9319(4)
C2_4 C 0.8012(4) 0.1927(3) 0.8245(4)
C3_4 C 0.8836(4) 0.2257(2) 0.7770(4)
C4_4 C 0.9032(4) 0.2168(2) 0.6766(3)
C5_4 C 0.8343(3) 0.1746(2) 0.6228(6)
C6_4 C 0.8407(4) 0.1667(3) 0.5181(4)
H4_3 H 0.8944 0.1878 0.4846
C7_3 C 0.7709(5) 0.1297(3) 0.4664(4)
H5_3 H 0.7768 0.1267 0.3983
C8_4 C 0.6898(5) 0.0956(3) 0.5142(5)
H6_3 H 0.6427 0.0698 0.4782
C9_4 C 0.6807(4) 0.1010(3) 0.6157(6)
H7_4 H 0.6278 0.0782 0.6481
C10_4 C 0.7509(4) 0.1406(3) 0.6691(4)
C11_4 C 0.7375(4) 0.1501(3) 0.7717(4)
H8_4 H 0.6845 0.1271 0.8038
C23_4 C 0.9878(3) 0.2584(2) 0.6298(7)
H14_4 H 0.9564 0.2897 0.5828
H31_3 H 0.9417 0.3909 0.0468
H22_3 H 0.0405 0.1332 0.2978
C34_3 C 0.0081(6) 0.0139(3) 0.4697(5)
H24_3 H 0.0412 0.0337 0.5271
C35_3 C 0.0860(4) 0.0081(3) 0.3899(5)
H26_3 H 0.1245 0.0510 0.3865
H4_4 H 0.1056 0.8122 0.9846
C7_4 C 0.2291(5) 0.8703(3) 0.9664(4)
H5_4 H 0.2232 0.8733 0.8983
H6_4 H 0.3573 0.9302 0.9782
H17_3 H 0.0609 0.8781 0.4575
H27_3 H 0.1336 0.9712 0.4064
C36_3 C 0.0396(5) 0.9932(3) 0.2888(5)
H28_3 H 0.0947 0.9893 0.2413
H29_3 H 0.0051 0.9487 0.2914
H31_4 H 0.0583 0.6091 0.5468
C15_4 C 0.9251(4) 0.7785(2) 0.0770(3)
C16_4 C 0.8517(3) 0.8191(2) 0.1295(6)
C17_4 C 0.8558(4) 0.8286(3) 0.2340(4)
H9_4 H 0.9099 0.8097 0.2693
C18_4 C 0.7829(4) 0.8643(3) 0.2818(5)
H10_4 H 0.7864 0.8684 0.3499
C19_4 C 0.7010(4) 0.8959(3) 0.2305(5)
H11_4 H 0.6524 0.9217 0.2645
C20_4 C 0.6939(3) 0.8884(2) 0.1326(7)
H12_4 H 0.6399 0.9092 0.0991
C21_4 C 0.7673(4) 0.8493(3) 0.0792(4)
H15_4 H 0.9819 0.7131 0.1809
H17_4 H 0.9391 0.1219 0.9575
H27_4 H 0.8664 0.0288 0.9064
C36_4 C 0.9604(5) 0.0068(3) 0.7888(5)
H28_4 H 0.9053 0.0107 0.7413
H29_4 H 0.9949 0.0513 0.7914
H24_4 H 0.9588 0.9663 0.0271
H22_4 H 0.9595 0.8668 0.7978
C34_4 C 0.9919(6) 0.9861(3) 0.9697(5)
C35_4 C 0.9140(4) 0.9919(3) 0.8899(5)
H26_4 H 0.8755 0.9490 0.8865
loop_
_geom_bond_atom_site_label_1
_geom_bond_atom_site_label_2
_geom_bond_site_symmetry_1
_geom_bond_site_symmetry_2
Cd1 O4 1_555 1_555
O4 C12 1_555 1_555
O5 Cd1 1_555 1_555
O6 H2 1_555 1_555
O7 Cd1 1_555 1_555
H3 O7 1_555 1_555
N1 Cd1 1_555 1_555
N2 C29 1_555 1_555
H5 C7 1_555 1_555
C12 O5 1_555 1_555
C13 C12 1_555 1_555
C14 O6 1_555 1_555
C22 C13 1_555 1_555
H13 C22 1_555 1_555
C24 N1 1_555 1_555
H16 C24 1_555 1_555
C25 C24 1_555 1_555
H17 C25 1_555 1_555
C26 C25 1_555 1_555
C27 C26 1_555 1_555
H18 C27 1_555 1_555
C28 N1 1_555 1_555
H19 C28 1_555 1_555
C29 H20 1_555 1_555
C30 C29 1_555 1_555
H21 C30 1_555 1_555
C31 C30 1_555 1_555
C32 C31 1_555 1_555
H22 C32 1_555 1_555
C33 N2 1_555 1_555
H23 C33 1_555 1_555
C34 C26 1_555 1_555
H24 C34 1_555 1_555
H25 C34 1_555 1_555
C35 C34 1_555 1_555
H26 C35 1_555 1_555
H27 C35 1_555 1_555
C36 C31 1_555 1_555
H28 C36 1_555 1_555
H29 C36 1_555 1_555
C37 O7 1_555 1_555
H30 C37 1_555 1_555
H31 C37 1_555 1_555
H32 C37 1_555 1_555
Cd3 N2 1_555 1_555
O8 Cd1 1_555 1_555
O9 Cd1 1_555 1_555
N3 Cd1 1_555 1_555
C13 C14 1_555 1_555
C27 C28 1_555 1_555
C32 C33 1_555 1_555
C35 C36 1_555 1_555
O8 C1 1_555 1_555
O9 C1 1_555 1_555
O3 H1 1_555 1_555
C1 C2 1_555 1_555
C2 C3 1_555 1_555
C3 O3 1_555 1_555
C4 C3 1_555 1_555
C5 C4 1_555 1_555
C6 C5 1_555 1_555
C9 C8 1_555 1_555
H7 C9 1_555 1_555
C10 C5 1_555 1_555
C11 C2 1_555 1_555
H8 C11 1_555 1_555
C23 C4 1_555 1_555
H14 C23 1_555 1_555
C9 C10 1_555 1_555
C10 C11 1_555 1_555
Cd3 O4_2 1_555 1_555
O4_2 C12_2 1_555 1_555
O5_2 Cd3 1_555 1_555
O6_2 H2_2 1_555 1_555
O7_2 Cd3 1_555 1_555
H3_2 O7_2 1_555 1_555
N1_2 Cd3 1_555 1_555
C12_2 O5_2 1_555 1_555
C13_2 C12_2 1_555 1_555
C14_2 O6_2 1_555 1_555
C15 C14_2 1_555 1_555
C16 C15 1_555 1_555
C17 C16 1_555 1_555
H9 C17 1_555 1_555
C18 C17 1_555 1_555
H10 C18 1_555 1_555
C19 C18 1_555 1_555
H11 C19 1_555 1_555
C20 C19 1_555 1_555
H12 C20 1_555 1_555
C21 C16 1_555 1_555
C22_2 C13_2 1_555 1_555
H13_2 C22_2 1_555 1_555
C24_2 N1_2 1_555 1_555
H16_2 C24_2 1_555 1_555
C27_2 C26_2 1_555 1_555
H18_2 C27_2 1_555 1_555
C28_2 N1_2 1_555 1_555
H19_2 C28_2 1_555 1_555
C37_2 O7_2 1_555 1_555
H32_2 C37_2 1_555 1_555
C13_2 C14_2 1_555 1_555
C20 C21 1_555 1_555
C21 C22_2 1_555 1_555
C27_2 C28_2 1_555 1_555
N3 C29_2 1_555 1_555
C29_2 H20_2 1_555 1_555
C30_2 C29_2 1_555 1_555
C31_2 C30_2 1_555 1_555
C32_2 C31_2 1_555 1_555
C33_2 N3 1_555 1_555
H23_2 C33_2 1_555 1_555
C32_2 C33_2 1_555 1_555
Cd1_2 O4_3 1_555 1_555
O1 C1_2 1_555 1_555
O2 C1_2 1_555 1_555
O3_2 H1_2 1_555 1_555
O4_3 C12_3 1_555 1_555
O5_3 Cd1_2 1_555 1_555
O6_3 H2_3 1_555 1_555
O7_3 Cd1_2 1_555 1_555
H3_3 O7_3 1_555 1_555
N1_3 Cd1_2 1_555 1_555
C1_2 C2_2 1_555 1_555
C2_2 C3_2 1_555 1_555
C3_2 O3_2 1_555 1_555
C4_2 C3_2 1_555 1_555
C5_2 C4_2 1_555 1_555
C6_2 C5_2 1_555 1_555
H4_2 C6_2 1_555 1_555
C7_2 C6_2 1_555 1_555
H5_2 C7_2 1_555 1_555
C8_2 C7_2 1_555 1_555
H6_2 C8_2 1_555 1_555
C9_2 C8_2 1_555 1_555
H7_2 C9_2 1_555 1_555
C10_2 C5_2 1_555 1_555
C11_2 C2_2 1_555 1_555
H8_2 C11_2 1_555 1_555
C12_3 O5_3 1_555 1_555
C13_3 C12_3 1_555 1_555
C14_3 O6_3 1_555 1_555
C15_2 C14_3 1_555 1_555
C16_2 C15_2 1_555 1_555
C17_2 C16_2 1_555 1_555
H9_2 C17_2 1_555 1_555
C18_2 C17_2 1_555 1_555
H10_2 C18_2 1_555 1_555
C19_2 C18_2 1_555 1_555
H11_2 C19_2 1_555 1_555
C20_2 C19_2 1_555 1_555
H12_2 C20_2 1_555 1_555
C21_2 C16_2 1_555 1_555
C22_3 C13_3 1_555 1_555
H13_3 C22_3 1_555 1_555
C23_2 C4_2 1_555 1_555
H14_2 C23_2 1_555 1_555
H15_2 C23_2 1_555 1_555
C24_3 N1_3 1_555 1_555
H16_3 C24_3 1_555 1_555
C27_3 C26_3 1_555 1_555
H18_3 C27_3 1_555 1_555
C28_3 N1_3 1_555 1_555
H19_3 C28_3 1_555 1_555
C37_3 O7_3 1_555 1_555
H31_2 C37_3 1_555 1_555
H32_3 C37_3 1_555 1_555
N3_2 Cd1_2 1_555 1_555
C9_2 C10_2 1_555 1_555
C10_2 C11_2 1_555 1_555
C13_3 C14_3 1_555 1_555
C15_2 C23_2 1_555 1_555
C20_2 C21_2 1_555 1_555
C21_2 C22_3 1_555 1_555
C27_3 C28_3 1_555 1_555
N3_2 C29_3 1_555 1_555
C29_3 H20_3 1_555 1_555
C30_3 C29_3 1_555 1_555
C31_3 C30_3 1_555 1_555
C32_3 C31_3 1_555 1_555
C33_3 N3_2 1_555 1_555
H23_3 C33_3 1_555 1_555
C32_3 C33_3 1_555 1_555
N2_2 C29_4 1_555 1_555
H17_2 C25_3 1_555 1_555
C29_4 H20_4 1_555 1_555
C30_4 C29_4 1_555 1_555
H21_3 C30_4 1_555 1_555
C31_4 C30_4 1_555 1_555
C32_4 C31_4 1_555 1_555
H22_2 C32_4 1_555 1_555
C33_4 N2_2 1_555 1_555
H23_4 C33_4 1_555 1_555
H25_4 C34_2 1_555 1_555
C35_2 C34_2 1_555 1_555
H26_2 C35_2 1_555 1_555
H27_2 C35_2 1_555 1_555
C36_2 C31_4 1_555 1_555
H28_2 C36_2 1_555 1_555
H29_2 C36_2 1_555 1_555
Cd2 N2_2 1_555 1_555
C32_4 C33_4 1_555 1_555
C35_2 C36_2 1_555 1_555
O1_2 C1_3 1_555 1_555
O2_2 C1_3 1_555 1_555
O3_3 H1_3 1_555 1_555
C1_3 C2_3 1_555 1_555
C2_3 C3_3 1_555 1_555
C3_3 O3_3 1_555 1_555
C4_3 C3_3 1_555 1_555
C5_3 C4_3 1_555 1_555
C6_3 C5_3 1_555 1_555
C9_3 C8_3 1_555 1_555
H7_3 C9_3 1_555 1_555
C10_3 C5_3 1_555 1_555
C11_3 C2_3 1_555 1_555
H8_3 C11_3 1_555 1_555
C16_3 C15_3 1_555 1_555
C17_3 C16_3 1_555 1_555
H9_3 C17_3 1_555 1_555
C18_3 C17_3 1_555 1_555
H10_3 C18_3 1_555 1_555
C19_3 C18_3 1_555 1_555
H11_3 C19_3 1_555 1_555
C20_3 C19_3 1_555 1_555
H12_3 C20_3 1_555 1_555
C21_3 C16_3 1_555 1_555
C23_3 C4_3 1_555 1_555
H14_3 C23_3 1_555 1_555
H15_3 C23_3 1_555 1_555
Cd2 O1_2 1_555 1_555
O2_2 Cd2 1_555 1_555
C9_3 C10_3 1_555 1_555
C10_3 C11_3 1_555 1_555
C15_3 C23_3 1_555 1_555
C20_3 C21_3 1_555 1_555
Cd2 O4_4 1_555 1_555
O4_4 C12_4 1_555 1_555
O5_4 Cd2 1_555 1_555
O6_4 H2_4 1_555 1_555
O7_4 Cd2 1_555 1_555
H3_4 O7_4 1_555 1_555
N1_4 Cd2 1_555 1_555
C12_4 O5_4 1_555 1_555
C13_4 C12_4 1_555 1_555
C14_4 O6_4 1_555 1_555
C22_4 C13_4 1_555 1_555
H13_4 C22_4 1_555 1_555
C24_4 N1_4 1_555 1_555
H16_4 C24_4 1_555 1_555
C25_4 C24_4 1_555 1_555
C26_4 C25_4 1_555 1_555
C27_4 C26_4 1_555 1_555
H18_4 C27_4 1_555 1_555
C28_4 N1_4 1_555 1_555
H19_4 C28_4 1_555 1_555
C37_4 O7_4 1_555 1_555
H30_4 C37_4 1_555 1_555
H32_4 C37_4 1_555 1_555
C13_4 C14_4 1_555 1_555
C27_4 C28_4 1_555 1_555
O8_2 C1_4 1_555 1_555
O9_2 C1_4 1_555 1_555
O3_4 H1_4 1_555 1_555
C1_4 C2_4 1_555 1_555
C2_4 C3_4 1_555 1_555
C3_4 O3_4 1_555 1_555
C4_4 C3_4 1_555 1_555
C5_4 C4_4 1_555 1_555
C6_4 C5_4 1_555 1_555
H4_3 C6_4 1_555 1_555
C7_3 C6_4 1_555 1_555
H5_3 C7_3 1_555 1_555
C8_4 C7_3 1_555 1_555
H6_3 C8_4 1_555 1_555
C9_4 C8_4 1_555 1_555
H7_4 C9_4 1_555 1_555
C10_4 C5_4 1_555 1_555
C11_4 C2_4 1_555 1_555
H8_4 C11_4 1_555 1_555
C23_4 C4_4 1_555 1_555
H14_4 C23_4 1_555 1_555
C9_4 C10_4 1_555 1_555
C10_4 C11_4 1_555 1_555
H24_3 C34_3 1_555 1_555
C35_3 C34_3 1_555 1_555
H26_3 C35_3 1_555 1_555
H5_4 C7_4 1_555 1_555
H28_3 C36_3 1_555 1_555
H29_3 C36_3 1_555 1_555
C16_4 C15_4 1_555 1_555
C17_4 C16_4 1_555 1_555
H9_4 C17_4 1_555 1_555
C18_4 C17_4 1_555 1_555
H10_4 C18_4 1_555 1_555
C19_4 C18_4 1_555 1_555
H11_4 C19_4 1_555 1_555
C20_4 C19_4 1_555 1_555
H12_4 C20_4 1_555 1_555
C21_4 C16_4 1_555 1_555
C20_4 C21_4 1_555 1_555
H28_4 C36_4 1_555 1_555
H29_4 C36_4 1_555 1_555
C35_4 C34_4 1_555 1_555
H26_4 C35_4 1_555 1_555

#END
