
###############################################################################
#
# This file contains modified crystal structure data generated from the
# MOF subset of the Cambridge Structural Database (CSD) v543 
# hosted by the Cambridge Crystallographic Data Centre (CCDC).
#
# This work is licensed under the Creative Commons
# Attribution-NonCommercial-ShareAlike 4.0 International License.
# To view a copy of this license, visit
# http://creativecommons.org/licenses/by-nc-sa/4.0/
# or send a letter to
# Creative Commons, PO Box 1866, Mountain View, CA 94042, USA.
#
# CIF created using the CSD Python API on 29 September 2022
# The structure has been converted into the P1 space group
# The structure has a 3D framework
# The original CSD entry MOGVAG is in the monoclinic crystal system
# The framework has been calculated to contain at least 10.0% void space
# The void calculation uses a probe of radius 1.32A, grid spacing 0.4
# H atom positions have been added when not included in the experimental data
# Generated hydrogen atom positions removed from atoms on special positions
#
###############################################################################

data_MOGVAG
_chemical_formula_moiety         '(C38 H58 N64 O32 S6 Zn17)n'
_symmetry_cell_setting           triclinic
_symmetry_space_group_name_H-M   'P 1'
_symmetry_Int_Tables_number      1
_space_group_name_Hall           'P 1'
loop_
_symmetry_equiv_pos_site_id
_symmetry_equiv_pos_as_xyz
1 x,y,z
_cell_length_a                   18.5934(12)
_cell_length_b                   17.9100(11)
_cell_length_c                   7.4267(5)
_cell_angle_alpha                90
_cell_angle_beta                 96.3020(10)
_cell_angle_gamma                90
_cell_volume                     2458.2
loop_
_atom_site_label
_atom_site_type_symbol
_atom_site_fract_x
_atom_site_fract_y
_atom_site_fract_z
N8 N 0.33658(14) 0.39874(16) 0.0634(3)
H3 H 0.3038 0.4344 0.0616
H4 H 0.3761 0.4127 0.1315
Zn7 Zn 0.5000 0.32075(2) -0.0000
N16 N 0.44936(12) 0.25097(13) 0.1571(3)
N22 N 0.60420(17) 0.16585(17) 0.0640(4)
H8 H 0.6136 0.1176 0.0582
H11 H 0.5641 0.1725 0.1157
N33 N 0.58243(11) 0.36600(13) 0.1505(3)
Zn1 Zn 0.5000 0.34553(2) 0.5000
Zn3 Zn 0.301427(15) 0.088430(16) 0.27767(4)
S1 S 0.31489(5) 0.0000 0.64812(12)
O1 O 0.32713(12) 0.06740(12) 0.5382(3)
O2 O 0.36848(18) 0.0000 0.8080(4)
O3 O 0.24176(18) 0.0000 0.6980(5)
O4 O 0.45502(10) 0.43759(10) 0.3439(2)
N1 N 0.44105(12) 0.26586(13) 0.3370(3)
N3 N 0.36864(13) 0.17152(13) 0.2440(3)
N5 N 0.41043(12) 0.35522(13) 0.6623(3)
N6 N 0.41757(11) 0.36600(13) 0.8495(3)
N7 N 0.30418(11) 0.38975(14) 0.7437(3)
C1 C 0.39381(15) 0.21746(16) 0.3819(4)
H5 H 0.3788 0.2147 0.4971
C2 C 0.40532(15) 0.19442(16) 0.1076(4)
C3 C 0.34297(14) 0.37063(16) 0.6077(4)
H6 H 0.3236 0.3686 0.4869
C4 C 0.35275(14) 0.38634(15) 0.8920(3)
C5 C 0.47403(19) 0.5000 0.4098(5)
O5 O 0.31291(18) 0.0000 0.1399(4)
H7 H 0.3547 0.0000 0.1040
Zn4 Zn 0.5000 0.65447(2) 0.5000
Zn6 Zn -0.0000 0.15447(2) 0.5000
Zn7_2 Zn 0.5000 0.32075(2) 1.0000
Zn8 Zn 0.0000 0.17925(2) 0.0000
Zn9 Zn 0.5000 0.67925(2) 0.0000
Zn10 Zn 0.698573(15) 0.088430(16) 0.72233(4)
Zn11 Zn 0.198573(15) 0.411570(16) 0.72233(4)
Zn12 Zn 0.801427(15) 0.411570(16) 0.27767(4)
Zn16 Zn 0.301427(15) 0.911570(16) 0.27767(4)
S2 S 0.68511(5) 0.0000 0.35188(12)
O7 O 0.67287(12) 0.06740(12) 0.4618(3)
O9 O 0.17287(12) 0.43260(12) 0.4618(3)
O10 O 0.82713(12) 0.43260(12) 0.5382(3)
O11 O 0.63152(18) 0.0000 0.1920(4)
O12 O 0.75824(18) 0.0000 0.3020(5)
O13 O 0.45502(10) 0.56241(10) 0.3439(2)
O14 O 0.54498(10) 0.56241(10) 0.6561(2)
O15 O 0.54498(10) 0.43759(10) 0.6561(2)
N9 N 0.55895(12) 0.26586(13) 0.6630(3)
N11 N 0.44105(12) 0.73414(13) 0.3370(3)
N12 N 0.55895(12) 0.73414(13) 0.6630(3)
N13 N 0.55064(12) 0.25097(13) 0.8429(3)
N15 N 0.44936(12) 0.74903(13) 0.1571(3)
N17 N 0.63136(13) 0.17152(13) 0.7560(3)
N19 N 0.36864(13) 0.82848(13) 0.2440(3)
N20 N 0.13136(13) 0.32848(13) 0.7560(3)
N21 N 0.86864(13) 0.32848(13) 0.2440(3)
N25 N 0.58957(12) 0.35522(13) 0.3377(3)
N27 N 0.08957(12) 0.14478(13) 0.3377(3)
N28 N 0.41043(12) 0.64478(13) 0.6623(3)
N29 N 0.58957(12) 0.64478(13) 0.3377(3)
N32 N 0.08243(11) 0.13400(13) 0.1505(3)
N34 N 0.69582(11) 0.38975(14) 0.2563(3)
N36 N 0.19582(11) 0.11025(14) 0.2563(3)
N37 N 0.80418(11) 0.11025(14) 0.7437(3)
C6 C 0.60619(15) 0.21746(16) 0.6181(4)
C8 C 0.39381(15) 0.78254(16) 0.3819(4)
H20 H 0.6212 0.2147 0.5029
H22 H 0.3788 0.7853 0.4971
C9 C 0.59468(15) 0.19442(16) 0.8924(4)
C11 C 0.40532(15) 0.80558(16) 0.1076(4)
C12 C 0.65703(14) 0.37063(16) 0.3923(4)
C14 C 0.15703(14) 0.12937(16) 0.3923(4)
H23 H 0.6764 0.3686 0.5131
H25 H 0.1764 0.1314 0.5131
C15 C 0.64725(14) 0.38634(15) 0.1080(3)
C17 C 0.14725(14) 0.11366(15) 0.1080(3)
C18 C 0.52597(19) 0.5000 0.5902(5)
O16 O 0.68709(18) 0.0000 0.8601(4)
O17 O 0.18709(18) 0.5000 0.8601(4)
O18 O 0.81291(18) 0.5000 0.1399(4)
H26 H 0.6453 0.0000 0.8960
N4 N 0.39580(17) 0.16585(17) 0.9360(4)
H1 H 0.3864 0.1176 0.9418
H2 H 0.4359 0.1725 0.8843
Zn8_2 Zn -0.0000 0.17925(2) 1.0000
Zn9_2 Zn 0.5000 0.67925(2) 1.0000
N24 N 0.39580(17) 0.83415(17) 0.9360(4)
H10 H 0.3864 0.8824 0.9418
H13 H 0.4359 0.8275 0.8843
N38 N 0.66342(14) 0.39874(16) 0.9366(3)
N40 N 0.16342(14) 0.10126(16) 0.9366(3)
H14 H 0.6962 0.4344 0.9384
H16 H 0.1962 0.0656 0.9384
H17 H 0.6239 0.4127 0.8685
H19 H 0.1239 0.0873 0.8685
S1_2 S 0.31489(5) 1.0000 0.64812(12)
O2_2 O 0.36848(18) 1.0000 0.8080(4)
O3_2 O 0.24176(18) 1.0000 0.6980(5)
O5_2 O 0.31291(18) 1.0000 0.1399(4)
H7_2 H 0.3547 1.0000 0.1040
Zn17 Zn 0.698573(15) 0.911570(16) 0.72233(4)
S2_2 S 0.68511(5) 1.0000 0.35188(12)
O6 O 0.32713(12) 0.93260(12) 0.5382(3)
O8 O 0.67287(12) 0.93260(12) 0.4618(3)
O11_2 O 0.63152(18) 1.0000 0.1920(4)
O12_2 O 0.75824(18) 1.0000 0.3020(5)
O16_2 O 0.68709(18) 1.0000 0.8601(4)
H26_2 H 0.6453 1.0000 0.8960
Zn6_2 Zn 1.0000 0.15447(2) 0.5000
Zn8_3 Zn 1.0000 0.17925(2) 0.0000
Zn8_4 Zn 1.0000 0.17925(2) 1.0000
O14_2 O 0.04498(10) 0.06241(10) 0.6561(2)
N12_2 N 0.05895(12) 0.23414(13) 0.6630(3)
C18_2 C 0.02597(19) 0.0000 0.5902(5)
H30 H 0.307496 0.0445862 0.216737
Zn7_3 Zn -0.0000 0.82075(2) -0.0000
N22_2 N 0.10420(17) 0.66585(17) 0.0640(4)
H8_2 H 0.1136 0.6176 0.0582
H11_2 H 0.0641 0.6725 0.1157
N33_2 N 0.08243(11) 0.86600(13) 0.1505(3)
Zn1_2 Zn -0.0000 0.84553(2) 0.5000
Zn7_4 Zn -0.0000 0.82075(2) 1.0000
Zn10_2 Zn 0.198573(15) 0.588430(16) 0.72233(4)
S2_3 S 0.18511(5) 0.5000 0.35188(12)
O7_2 O 0.17287(12) 0.56740(12) 0.4618(3)
O11_3 O 0.13152(18) 0.5000 0.1920(4)
O12_3 O 0.25824(18) 0.5000 0.3020(5)
O15_2 O 0.04498(10) 0.93759(10) 0.6561(2)
N9_2 N 0.05895(12) 0.76586(13) 0.6630(3)
N13_2 N 0.05064(12) 0.75097(13) 0.8429(3)
N17_2 N 0.13136(13) 0.67152(13) 0.7560(3)
N25_2 N 0.08957(12) 0.85522(13) 0.3377(3)
N34_2 N 0.19582(11) 0.88975(14) 0.2563(3)
N37_2 N 0.30418(11) 0.61025(14) 0.7437(3)
C6_2 C 0.10619(15) 0.71746(16) 0.6181(4)
H20_2 H 0.1212 0.7147 0.5029
C9_2 C 0.09468(15) 0.69442(16) 0.8924(4)
C12_2 C 0.15703(14) 0.87063(16) 0.3923(4)
H23_2 H 0.1764 0.8686 0.5131
C15_2 C 0.14725(14) 0.88634(15) 0.1080(3)
C18_3 C 0.02597(19) 1.0000 0.5902(5)
N38_2 N 0.16342(14) 0.89874(16) 0.9366(3)
H14_2 H 0.1962 0.9344 0.9384
H17_2 H 0.1239 0.9127 0.8685
C5_2 C 0.97403(19) 0.0000 0.4098(5)
O13_2 O 0.95502(10) 0.06241(10) 0.3439(2)
N11_2 N 0.94105(12) 0.23414(13) 0.3370(3)
N15_2 N 0.94936(12) 0.24903(13) 0.1571(3)
N28_2 N 0.91043(12) 0.14478(13) 0.6623(3)
C8_2 C 0.89381(15) 0.28254(16) 0.3819(4)
H22_2 H 0.8788 0.2853 0.4971
C11_2 C 0.90532(15) 0.30558(16) 0.1076(4)
H29 H 0.692504 0.0445862 0.783263
N24_2 N 0.89580(17) 0.33415(17) 0.9360(4)
H10_2 H 0.8864 0.3824 0.9418
H13_2 H 0.9359 0.3275 0.8843
N8_2 N 0.83658(14) 0.89874(16) 0.0634(3)
H3_2 H 0.8038 0.9344 0.0616
H4_2 H 0.8761 0.9127 0.1315
Zn7_5 Zn 1.0000 0.82075(2) -0.0000
N16_2 N 0.94936(12) 0.75097(13) 0.1571(3)
Zn1_3 Zn 1.0000 0.84553(2) 0.5000
Zn3_2 Zn 0.801427(15) 0.588430(16) 0.27767(4)
S1_3 S 0.81489(5) 0.5000 0.64812(12)
O1_2 O 0.82713(12) 0.56740(12) 0.5382(3)
O2_3 O 0.86848(18) 0.5000 0.8080(4)
O3_3 O 0.74176(18) 0.5000 0.6980(5)
O4_2 O 0.95502(10) 0.93759(10) 0.3439(2)
N1_2 N 0.94105(12) 0.76586(13) 0.3370(3)
N3_2 N 0.86864(13) 0.67152(13) 0.2440(3)
N5_2 N 0.91043(12) 0.85522(13) 0.6623(3)
N6_2 N 0.91757(11) 0.86600(13) 0.8495(3)
N7_2 N 0.80418(11) 0.88975(14) 0.7437(3)
C1_2 C 0.89381(15) 0.71746(16) 0.3819(4)
H5_2 H 0.8788 0.7147 0.4971
C2_2 C 0.90532(15) 0.69442(16) 0.1076(4)
C3_2 C 0.84297(14) 0.87063(16) 0.6077(4)
H6_2 H 0.8236 0.8686 0.4869
C4_2 C 0.85275(14) 0.88634(15) 0.8920(3)
C5_3 C 0.97403(19) 1.0000 0.4098(5)
Zn7_6 Zn 1.0000 0.82075(2) 1.0000
N20_2 N 0.63136(13) 0.82848(13) 0.7560(3)
N32_2 N 0.58243(11) 0.63400(13) 0.1505(3)
N36_2 N 0.69582(11) 0.61025(14) 0.2563(3)
C14_2 C 0.65703(14) 0.62937(16) 0.3923(4)
H25_2 H 0.6764 0.6314 0.5131
C17_2 C 0.64725(14) 0.61366(15) 0.1080(3)
N4_2 N 0.89580(17) 0.66585(17) 0.9360(4)
H1_2 H 0.8864 0.6176 0.9418
H2_2 H 0.9359 0.6725 0.8843
N40_2 N 0.66342(14) 0.60126(16) 0.9366(3)
H16_2 H 0.6962 0.5656 0.9384
H19_2 H 0.6239 0.5873 0.8685
N24_3 N 0.60420(17) 0.83415(17) 0.0640(4)
H10_3 H 0.6136 0.8824 0.0582
H13_3 H 0.5641 0.8275 0.1157
N40_3 N 0.83658(14) 0.10126(16) 0.0634(3)
H16_3 H 0.8038 0.0656 0.0616
H19_3 H 0.8761 0.0873 0.1315
N15_3 N 0.55064(12) 0.74903(13) 0.8429(3)
N32_3 N 0.91757(11) 0.13400(13) 0.8495(3)
C8_3 C 0.60619(15) 0.78254(16) 0.6181(4)
H22_3 H 0.6212 0.7853 0.5029
C11_3 C 0.59468(15) 0.80558(16) 0.8924(4)
C14_3 C 0.84297(14) 0.12937(16) 0.6077(4)
H25_3 H 0.8236 0.1314 0.4869
C17_3 C 0.85275(14) 0.11366(15) 0.8920(3)
N24_4 N 0.10420(17) 0.33415(17) 0.0640(4)
H10_4 H 0.1136 0.3824 0.0582
H13_4 H 0.0641 0.3275 0.1157
N15_4 N 0.05064(12) 0.24903(13) 0.8429(3)
C8_4 C 0.10619(15) 0.28254(16) 0.6181(4)
H22_4 H 0.1212 0.2853 0.5029
C11_4 C 0.09468(15) 0.30558(16) 0.8924(4)
N40_4 N 0.33658(14) 0.60126(16) 0.0634(3)
H16_4 H 0.3038 0.5656 0.0616
H19_4 H 0.3761 0.5873 0.1315
N32_4 N 0.41757(11) 0.63400(13) 0.8495(3)
C14_4 C 0.34297(14) 0.62937(16) 0.6077(4)
H25_4 H 0.3236 0.6314 0.4869
C17_4 C 0.35275(14) 0.61366(15) 0.8920(3)
H29_2 H 0.307496 0.955414 0.216737
H30_2 H 0.692504 0.955414 0.783263
loop_
_geom_bond_atom_site_label_1
_geom_bond_atom_site_label_2
_geom_bond_site_symmetry_1
_geom_bond_site_symmetry_2
N8 H3 1_555 1_555
H4 N8 1_555 1_555
N16 Zn7 1_555 1_555
N22 H8 1_555 1_555
H11 N22 1_555 1_555
N33 Zn7 1_555 1_555
Zn1 O4 1_555 1_555
Zn3 O1 1_555 1_555
S1 O1 1_555 1_555
O2 S1 1_555 1_555
O3 S1 1_555 1_555
O4 C5 1_555 1_555
N1 Zn1 1_555 1_555
N16 N1 1_555 1_555
N3 Zn3 1_555 1_555
N5 Zn1 1_555 1_555
N6 N5 1_555 1_555
N7 C3 1_555 1_555
C1 N1 1_555 1_555
H5 C1 1_555 1_555
C2 N16 1_555 1_555
C3 N5 1_555 1_555
H6 C3 1_555 1_555
C4 N6 1_555 1_555
C5 O13 1_555 1_555
O5 Zn3 1_555 1_555
H7 O5 1_555 1_555
Zn4 O13 1_555 1_555
Zn6 N27 1_555 1_555
Zn7_2 N6 1_555 1_555
Zn8 N32 1_555 1_555
Zn9 N15 1_555 1_555
Zn10 O7 1_555 1_555
Zn11 N7 1_555 1_555
Zn12 O10 1_555 1_555
Zn16 N19 1_555 1_555
S2 O7 1_555 1_555
O9 Zn11 1_555 1_555
O11 S2 1_555 1_555
O12 S2 1_555 1_555
O14 Zn4 1_555 1_555
O15 Zn1 1_555 1_555
N9 Zn1 1_555 1_555
N11 Zn4 1_555 1_555
N12 Zn4 1_555 1_555
N13 Zn7_2 1_555 1_555
N15 N11 1_555 1_555
N17 Zn10 1_555 1_555
N19 C8 1_555 1_555
N20 Zn11 1_555 1_555
N21 Zn12 1_555 1_555
N25 Zn1 1_555 1_555
N27 N32 1_555 1_555
N28 Zn4 1_555 1_555
N29 Zn4 1_555 1_555
N32 C17 1_555 1_555
N34 Zn12 1_555 1_555
N36 Zn3 1_555 1_555
N37 Zn10 1_555 1_555
C6 N9 1_555 1_555
C8 N11 1_555 1_555
H20 C6 1_555 1_555
H22 C8 1_555 1_555
C9 N13 1_555 1_555
C11 N15 1_555 1_555
C12 N25 1_555 1_555
C14 N27 1_555 1_555
H23 C12 1_555 1_555
H25 C14 1_555 1_555
C15 N33 1_555 1_555
C17 N36 1_555 1_555
C18 C5 1_555 1_555
O16 Zn10 1_555 1_555
O17 Zn11 1_555 1_555
O18 Zn12 1_555 1_555
H26 O16 1_555 1_555
N3 C1 1_555 1_555
N3 C2 1_555 1_555
N7 C4 1_555 1_555
O14 C18 1_555 1_555
O15 C18 1_555 1_555
N9 N13 1_555 1_555
N17 C6 1_555 1_555
N17 C9 1_555 1_555
N19 C11 1_555 1_555
N25 N33 1_555 1_555
N34 C12 1_555 1_555
N34 C15 1_555 1_555
N36 C14 1_555 1_555
N4 H1 1_555 1_555
H2 N4 1_555 1_555
N24 H10 1_555 1_555
H13 N24 1_555 1_555
N38 H14 1_555 1_555
N40 H16 1_555 1_555
H17 N38 1_555 1_555
H19 N40 1_555 1_555
O2_2 S1_2 1_555 1_555
O3_2 S1_2 1_555 1_555
H7_2 O5_2 1_555 1_555
Zn16 O5_2 1_555 1_555
Zn17 O8 1_555 1_555
O6 S1_2 1_555 1_555
O8 S2_2 1_555 1_555
O11_2 S2_2 1_555 1_555
O12_2 S2_2 1_555 1_555
H26_2 O16_2 1_555 1_555
Zn16 O6 1_555 1_555
Zn17 O16_2 1_555 1_555
O14_2 Zn6 1_555 1_555
N12_2 Zn6 1_555 1_555
O14_2 C18_2 1_555 1_555
O5 H30 1_555 1_555
N22_2 H8_2 1_555 1_555
H11_2 N22_2 1_555 1_555
N33_2 Zn7_3 1_555 1_555
Zn10_2 O7_2 1_555 1_555
S2_3 O7_2 1_555 1_555
O9 S2_3 1_555 1_555
O11_3 S2_3 1_555 1_555
O12_3 S2_3 1_555 1_555
O15_2 Zn1_2 1_555 1_555
N9_2 Zn1_2 1_555 1_555
N13_2 Zn7_4 1_555 1_555
N17_2 Zn10_2 1_555 1_555
N25_2 Zn1_2 1_555 1_555
N34_2 Zn16 1_555 1_555
N37_2 Zn10_2 1_555 1_555
C6_2 N9_2 1_555 1_555
H20_2 C6_2 1_555 1_555
C9_2 N13_2 1_555 1_555
C12_2 N25_2 1_555 1_555
H23_2 C12_2 1_555 1_555
C15_2 N33_2 1_555 1_555
O17 Zn10_2 1_555 1_555
O15_2 C18_3 1_555 1_555
N9_2 N13_2 1_555 1_555
N17_2 C6_2 1_555 1_555
N17_2 C9_2 1_555 1_555
N25_2 N33_2 1_555 1_555
N34_2 C12_2 1_555 1_555
N34_2 C15_2 1_555 1_555
N38_2 H14_2 1_555 1_555
H17_2 N38_2 1_555 1_555
C5_2 O13_2 1_555 1_555
Zn6_2 O13_2 1_555 1_555
Zn8_3 N15_2 1_555 1_555
N11_2 Zn6_2 1_555 1_555
N15_2 N11_2 1_555 1_555
N21 C8_2 1_555 1_555
N28_2 Zn6_2 1_555 1_555
C8_2 N11_2 1_555 1_555
H22_2 C8_2 1_555 1_555
C11_2 N15_2 1_555 1_555
N21 C11_2 1_555 1_555
O16 H29 1_555 1_555
N24_2 H10_2 1_555 1_555
H13_2 N24_2 1_555 1_555
N8_2 H3_2 1_555 1_555
H4_2 N8_2 1_555 1_555
N16_2 Zn7_5 1_555 1_555
Zn1_3 O4_2 1_555 1_555
Zn3_2 O1_2 1_555 1_555
S1_3 O1_2 1_555 1_555
O2_3 S1_3 1_555 1_555
O3_3 S1_3 1_555 1_555
O4_2 C5_3 1_555 1_555
N1_2 Zn1_3 1_555 1_555
N16_2 N1_2 1_555 1_555
N3_2 Zn3_2 1_555 1_555
N5_2 Zn1_3 1_555 1_555
N6_2 N5_2 1_555 1_555
N7_2 C3_2 1_555 1_555
C1_2 N1_2 1_555 1_555
H5_2 C1_2 1_555 1_555
C2_2 N16_2 1_555 1_555
C3_2 N5_2 1_555 1_555
H6_2 C3_2 1_555 1_555
C4_2 N6_2 1_555 1_555
O18 Zn3_2 1_555 1_555
Zn7_6 N6_2 1_555 1_555
Zn9 N32_2 1_555 1_555
Zn17 N7_2 1_555 1_555
O10 S1_3 1_555 1_555
N20_2 Zn17 1_555 1_555
N29 N32_2 1_555 1_555
N32_2 C17_2 1_555 1_555
N36_2 Zn3_2 1_555 1_555
C14_2 N29 1_555 1_555
H25_2 C14_2 1_555 1_555
C17_2 N36_2 1_555 1_555
N3_2 C1_2 1_555 1_555
N3_2 C2_2 1_555 1_555
N7_2 C4_2 1_555 1_555
N36_2 C14_2 1_555 1_555
N4_2 H1_2 1_555 1_555
H2_2 N4_2 1_555 1_555
N40_2 H16_2 1_555 1_555
H19_2 N40_2 1_555 1_555
N24_3 H10_3 1_555 1_555
H13_3 N24_3 1_555 1_555
N40_3 H16_3 1_555 1_555
H19_3 N40_3 1_555 1_555
Zn8_4 N32_3 1_555 1_555
Zn9_2 N15_3 1_555 1_555
N15_3 N12 1_555 1_555
N20_2 C8_3 1_555 1_555
N28_2 N32_3 1_555 1_555
N32_3 C17_3 1_555 1_555
C8_3 N12 1_555 1_555
H22_3 C8_3 1_555 1_555
C11_3 N15_3 1_555 1_555
C14_3 N28_2 1_555 1_555
H25_3 C14_3 1_555 1_555
C17_3 N37 1_555 1_555
N20_2 C11_3 1_555 1_555
N37 C14_3 1_555 1_555
N24_4 H10_4 1_555 1_555
H13_4 N24_4 1_555 1_555
Zn8_2 N15_4 1_555 1_555
N15_4 N12_2 1_555 1_555
N20 C8_4 1_555 1_555
C8_4 N12_2 1_555 1_555
H22_4 C8_4 1_555 1_555
C11_4 N15_4 1_555 1_555
N20 C11_4 1_555 1_555
N40_4 H16_4 1_555 1_555
H19_4 N40_4 1_555 1_555
Zn9_2 N32_4 1_555 1_555
N28 N32_4 1_555 1_555
N32_4 C17_4 1_555 1_555
C14_4 N28 1_555 1_555
H25_4 C14_4 1_555 1_555
C17_4 N37_2 1_555 1_555
N37_2 C14_4 1_555 1_555
O5_2 H29_2 1_555 1_555
O16_2 H30_2 1_555 1_555

#END
