
###############################################################################
#
# This file contains modified crystal structure data generated from the
# MOF subset of the Cambridge Structural Database (CSD) v543 
# hosted by the Cambridge Crystallographic Data Centre (CCDC).
#
# This work is licensed under the Creative Commons
# Attribution-NonCommercial-ShareAlike 4.0 International License.
# To view a copy of this license, visit
# http://creativecommons.org/licenses/by-nc-sa/4.0/
# or send a letter to
# Creative Commons, PO Box 1866, Mountain View, CA 94042, USA.
#
# CIF created using the CSD Python API on 29 September 2022
# The structure has been converted into the P1 space group
# The structure has a 3D framework
# The original CSD entry MOHGEY is in the rhombohedral crystal system
# The framework has been calculated to contain at least 10.0% void space
# The void calculation uses a probe of radius 1.32A, grid spacing 0.4
#
###############################################################################

data_MOHGEY
_chemical_formula_moiety         '(C72 H18 Co4 O48)n'
_symmetry_cell_setting           triclinic
_symmetry_space_group_name_H-M   'P 1'
_symmetry_Int_Tables_number      1
_space_group_name_Hall           'P 1'
loop_
_symmetry_equiv_pos_site_id
_symmetry_equiv_pos_as_xyz
1 x,y,z
_cell_length_a                   25.96364(22)
_cell_length_b                   25.96364(22)
_cell_length_c                   6.824580(61)
_cell_angle_alpha                90
_cell_angle_beta                 90
_cell_angle_gamma                120
_cell_volume                     3984.17
loop_
_atom_site_label
_atom_site_type_symbol
_atom_site_fract_x
_atom_site_fract_y
_atom_site_fract_z
Co1 Co 0.361943(59) 0.313577(65) 0.02467(16)
O1 O 0.41452(24) 0.39220(33) 0.16029(79)
C1 C 0.45406(31) 0.44390(47) 0.0745(11)
C3 C 0.50138(17) 0.48460(26) 0.19172(72)
H1 H 0.5022(14) 0.4730(21) 0.3280(61)
Co2 Co 0.353090(65) 0.381699(88) 0.35800(16)
C5 C 0.54495(35) 0.53932(50) 0.12138(96)
C7 C 0.59402(40) 0.58077(61) 0.2587(11)
O8 O 0.59346(26) 0.56177(37) 0.43445(83)
O9 O 0.63444(26) 0.63055(33) 0.20024(69)
Co5 Co 0.646910(65) 0.618301(88) 0.64200(16)
Co7 Co 0.715033(88) 0.695276(59) 0.30866(16)
O11 O 0.72553(33) 0.64435(41) 0.50638(79)
O12 O 0.66278(42) 0.69889(26) 0.53357(69)
O13 O 0.68899(41) 0.74785(24) 0.17304(79)
O14 O 0.77156(37) 0.69836(45) 0.10112(83)
O2 O 0.36556(26) 0.36945(33) 0.79976(69)
C2 C 0.40598(40) 0.41923(61) 0.7413(11)
C4 C 0.45505(35) 0.46068(50) 0.87862(96)
O3 O 0.40654(26) 0.43823(37) 0.56555(83)
O4 O 0.31101(41) 0.25215(24) 0.82696(79)
Co3 Co 0.284967(88) 0.304724(59) 0.69134(16)
O5 O 0.33722(42) 0.30111(26) 0.46643(69)
O6 O 0.27447(33) 0.35565(41) 0.49362(79)
O7 O 0.22844(37) 0.30164(45) 0.89888(83)
C6 C 0.49862(17) 0.51540(26) 0.80828(72)
C8 C 0.54594(31) 0.55610(47) 0.9255(11)
H2 H 0.4978(14) 0.5270(21) 0.6720(61)
O10 O 0.58548(24) 0.60780(33) 0.83971(79)
Co6 Co 0.638057(59) 0.686423(65) 0.97533(16)
Co2_2 Co 0.02861(11) 0.646910(65) 0.35800(16)
O12_2 O 0.03612(49) 0.33722(42) 0.53357(69)
O13_2 O 0.05887(48) 0.31101(41) 0.17304(79)
O2_2 O 0.00389(42) 0.63444(26) 0.79976(69)
C2_2 C 0.01325(73) 0.59402(40) 0.7413(11)
C4_2 C 0.00563(61) 0.54495(35) 0.87862(96)
O3_2 O 0.03169(45) 0.59346(26) 0.56555(83)
Co3_2 Co 0.01976(11) 0.715033(88) 0.69134(16)
O6_2 O 0.08119(53) 0.72553(33) 0.49362(79)
O7_2 O 0.07321(58) 0.77156(37) 0.89888(83)
C6_2 C 0.01678(31) 0.50138(17) 0.80828(72)
C8_2 C 0.01016(56) 0.45406(31) 0.9255(11)
H2_2 H 0.0292(25) 0.5022(14) 0.6720(61)
O10_2 O 0.02232(41) 0.41452(24) 0.83971(79)
Co6_2 Co 0.048366(88) 0.361943(59) 0.97533(16)
Co1_2 Co 0.951634(88) 0.638057(59) 0.02467(16)
O1_2 O 0.97768(41) 0.58548(24) 0.16029(79)
C1_2 C 0.98984(56) 0.54594(31) 0.0745(11)
C3_2 C 0.98322(31) 0.49862(17) 0.19172(72)
H1_2 H 0.9708(25) 0.4978(14) 0.3280(61)
C5_2 C 0.99437(61) 0.45505(35) 0.12138(96)
C7_2 C 0.98675(73) 0.40598(40) 0.2587(11)
O8_2 O 0.96831(45) 0.40654(26) 0.43445(83)
O9_2 O 0.99611(42) 0.36556(26) 0.20024(69)
Co5_2 Co 0.97139(11) 0.353090(65) 0.64200(16)
Co7_2 Co 0.98024(11) 0.284967(88) 0.30866(16)
O11_2 O 0.91881(53) 0.27447(33) 0.50638(79)
O14_2 O 0.92679(58) 0.22844(37) 0.10112(83)
O4_2 O 0.94113(48) 0.68899(41) 0.82696(79)
O5_2 O 0.96388(49) 0.66278(42) 0.46643(69)
O8_3 O 0.30164(45) 0.07321(26) 0.10112(83)
Co5_3 Co 0.30472(11) 0.019756(65) 0.30866(16)
O12_3 O 0.36945(49) 0.00389(42) 0.20024(69)
C1_3 C 0.32317(56) 0.21261(31) 0.7412(11)
C2_3 C 0.34658(73) 0.26069(40) 0.4080(11)
C3_3 C 0.31655(31) 0.16529(17) 0.85839(72)
C4_3 C 0.33896(61) 0.21162(35) 0.54529(96)
O3_3 O 0.36502(45) 0.26013(26) 0.23222(83)
H1_3 H 0.3041(25) 0.1645(14) 0.9947(61)
O5_3 O 0.29722(49) 0.32944(42) 0.13309(69)
C5_3 C 0.32770(61) 0.12172(35) 0.78805(96)
C6_3 C 0.35011(31) 0.16805(17) 0.47495(72)
C7_3 C 0.32008(73) 0.07265(40) 0.9254(11)
C8_3 C 0.34349(56) 0.12073(31) 0.5922(11)
H2_3 H 0.3625(25) 0.1689(14) 0.3387(61)
O9_3 O 0.32944(42) 0.03223(26) 0.86691(69)
O10_3 O 0.35565(41) 0.08119(24) 0.50638(79)
Co6_3 Co 0.381699(88) 0.028610(59) 0.64200(16)
O11_3 O 0.25215(53) 0.94113(33) 0.17304(79)
Co7_3 Co 0.31358(11) 0.951634(88) 0.97533(16)
O13_3 O 0.39220(48) 0.97768(41) 0.83971(79)
O14_3 O 0.26013(58) 0.89510(37) 0.76778(83)
O4_3 O 0.60780(48) 0.02232(41) 0.16029(79)
Co3_3 Co 0.68642(11) 0.048366(88) 0.02467(16)
O7_3 O 0.73987(58) 0.10490(37) 0.23222(83)
O6_3 O 0.74785(53) 0.05887(33) 0.82696(79)
Co1_3 Co 0.618301(88) 0.971390(59) 0.35800(16)
O1_3 O 0.64435(41) 0.91881(24) 0.49362(79)
O2_3 O 0.67056(42) 0.96777(26) 0.13309(69)
C1_4 C 0.65651(56) 0.87927(31) 0.4078(11)
C2_4 C 0.67992(73) 0.92735(40) 0.0746(11)
C3_4 C 0.64989(31) 0.83195(17) 0.52505(72)
C4_4 C 0.67230(61) 0.87828(35) 0.21195(96)
H1_4 H 0.6375(25) 0.8311(14) 0.6613(61)
Co2_3 Co 0.69528(11) 0.980244(65) 0.69134(16)
C5_4 C 0.66104(61) 0.78838(35) 0.45471(96)
C6_4 C 0.68345(31) 0.83471(17) 0.14161(72)
C7_4 C 0.65342(73) 0.73931(40) 0.5920(11)
C8_4 C 0.67683(56) 0.78739(31) 0.2588(11)
H2_4 H 0.6959(25) 0.8355(14) 0.0053(61)
O8_4 O 0.63498(45) 0.73987(26) 0.76778(83)
O12_4 O 0.70278(49) 0.67056(42) 0.86691(69)
O3_4 O 0.69836(45) 0.92679(26) 0.89888(83)
O5_4 O 0.63055(49) 0.99611(42) 0.79976(69)
C1_5 C 0.55610(47) 0.01016(56) 0.0745(11)
C3_5 C 0.51540(26) 0.01678(31) 0.19172(72)
H1_5 H 0.5270(21) 0.0292(25) 0.3280(61)
C5_5 C 0.46068(50) 0.00563(61) 0.12138(96)
C7_5 C 0.41923(61) 0.01325(73) 0.2587(11)
O8_5 O 0.43823(37) 0.03169(45) 0.43445(83)
O5_5 O 0.69889(26) 0.03612(49) 0.46643(69)
O12_5 O 0.30111(26) 0.96388(49) 0.53357(69)
C2_5 C 0.58077(61) 0.98675(73) 0.7413(11)
C4_5 C 0.53932(50) 0.99437(61) 0.87862(96)
O3_5 O 0.56177(37) 0.96831(45) 0.56555(83)
C6_5 C 0.48460(26) 0.98322(31) 0.80828(72)
C8_5 C 0.44390(47) 0.98984(56) 0.9255(11)
H2_5 H 0.4730(21) 0.9708(25) 0.6720(61)
O5_6 O 0.03223(26) 0.70278(49) 0.13309(69)
C1_6 C 0.88943(47) 0.67683(56) 0.7412(11)
C2_6 C 0.91410(61) 0.65342(73) 0.4080(11)
C3_6 C 0.84873(26) 0.68345(31) 0.85839(72)
C4_6 C 0.87265(50) 0.66104(61) 0.54529(96)
O3_6 O 0.89510(37) 0.63498(45) 0.23222(83)
H1_6 H 0.8603(21) 0.6959(25) 0.9947(61)
C5_6 C 0.79401(50) 0.67230(61) 0.78805(96)
C6_6 C 0.81793(26) 0.64989(31) 0.47495(72)
C7_6 C 0.75256(61) 0.67992(73) 0.9254(11)
C8_6 C 0.77723(47) 0.65651(56) 0.5922(11)
H2_6 H 0.8063(21) 0.6375(25) 0.3387(61)
C1_7 C 0.22277(47) 0.34349(56) 0.4078(11)
C2_7 C 0.24744(61) 0.32008(73) 0.0746(11)
C3_7 C 0.18207(26) 0.35011(31) 0.52505(72)
C4_7 C 0.20599(50) 0.32770(61) 0.21195(96)
H1_7 H 0.1937(21) 0.3625(25) 0.6613(61)
C5_7 C 0.12735(50) 0.33896(61) 0.45471(96)
C6_7 C 0.15127(26) 0.31655(31) 0.14161(72)
C7_7 C 0.08590(61) 0.34658(73) 0.5920(11)
C8_7 C 0.11057(47) 0.32317(56) 0.2588(11)
H2_7 H 0.1397(21) 0.3041(25) 0.0053(61)
O8_6 O 0.10490(37) 0.36502(45) 0.76778(83)
O12_6 O 0.96777(26) 0.29722(49) 0.86691(69)
C1_8 C 0.78739(31) 0.11057(47) 0.7412(11)
C2_8 C 0.73931(40) 0.08590(61) 0.4080(11)
C3_8 C 0.83471(17) 0.15127(26) 0.85839(72)
C4_8 C 0.78838(35) 0.12735(50) 0.54529(96)
H1_8 H 0.8355(14) 0.1397(21) 0.9947(61)
C5_8 C 0.87828(35) 0.20599(50) 0.78805(96)
C6_8 C 0.83195(17) 0.18207(26) 0.47495(72)
C7_8 C 0.92735(40) 0.24744(61) 0.9254(11)
C8_8 C 0.87927(31) 0.22277(47) 0.5922(11)
H2_8 H 0.8311(14) 0.1937(21) 0.3387(61)
C1_9 C 0.12073(31) 0.77723(47) 0.4078(11)
C2_9 C 0.07265(40) 0.75256(61) 0.0746(11)
C3_9 C 0.16805(17) 0.81793(26) 0.52505(72)
C4_9 C 0.12172(35) 0.79401(50) 0.21195(96)
H1_9 H 0.1689(14) 0.8063(21) 0.6613(61)
C5_9 C 0.21162(35) 0.87265(50) 0.45471(96)
C6_9 C 0.16529(17) 0.84873(26) 0.14161(72)
C7_9 C 0.26069(40) 0.91410(61) 0.5920(11)
C8_9 C 0.21261(31) 0.88943(47) 0.2588(11)
H2_9 H 0.1645(14) 0.8603(21) 0.0053(61)
loop_
_geom_bond_atom_site_label_1
_geom_bond_atom_site_label_2
_geom_bond_site_symmetry_1
_geom_bond_site_symmetry_2
Co1 O1 1_555 1_555
O1 C1 1_555 1_555
C1 C3 1_555 1_555
C3 H1 1_555 1_555
Co2 O1 1_555 1_555
C5 C3 1_555 1_555
C7 C5 1_555 1_555
O8 C7 1_555 1_555
O9 C7 1_555 1_555
Co5 O8 1_555 1_555
Co7 O9 1_555 1_555
O11 Co5 1_555 1_555
O12 Co5 1_555 1_555
O14 Co7 1_555 1_555
Co7 O11 1_555 1_555
Co7 O12 1_555 1_555
Co7 O13 1_555 1_555
C2 O2 1_555 1_555
O3 C2 1_555 1_555
Co3 O2 1_555 1_555
O5 Co3 1_555 1_555
O6 Co3 1_555 1_555
O7 Co3 1_555 1_555
C6 C4 1_555 1_555
Co2 O3 1_555 1_555
H2 C6 1_555 1_555
O10 C8 1_555 1_555
Co5 O10 1_555 1_555
C2 C4 1_555 1_555
O4 Co3 1_555 1_555
O5 Co2 1_555 1_555
O6 Co2 1_555 1_555
C6 C8 1_555 1_555
O10 Co6 1_555 1_555
C2_2 O2_2 1_555 1_555
O3_2 C2_2 1_555 1_555
Co3_2 O2_2 1_555 1_555
O6_2 Co3_2 1_555 1_555
O7_2 Co3_2 1_555 1_555
C6_2 C4_2 1_555 1_555
Co2_2 O3_2 1_555 1_555
H2_2 C6_2 1_555 1_555
O10_2 C8_2 1_555 1_555
C2_2 C4_2 1_555 1_555
O6_2 Co2_2 1_555 1_555
C6_2 C8_2 1_555 1_555
O10_2 Co6_2 1_555 1_555
Co1_2 O1_2 1_555 1_555
O1_2 C1_2 1_555 1_555
C1_2 C3_2 1_555 1_555
C3_2 H1_2 1_555 1_555
C5_2 C3_2 1_555 1_555
C7_2 C5_2 1_555 1_555
O8_2 C7_2 1_555 1_555
O9_2 C7_2 1_555 1_555
Co5_2 O8_2 1_555 1_555
Co7_2 O9_2 1_555 1_555
O11_2 Co5_2 1_555 1_555
O14_2 Co7_2 1_555 1_555
Co7_2 O11_2 1_555 1_555
Co5_3 O8_3 1_555 1_555
O12_3 Co5_3 1_555 1_555
O4 C1_3 1_555 1_555
C1_3 C3_3 1_555 1_555
C2_3 O5 1_555 1_555
C3_3 H1_3 1_555 1_555
C4_3 C1_3 1_555 1_555
O3_3 C2_3 1_555 1_555
O5_3 Co2 1_555 1_555
C5_3 C3_3 1_555 1_555
C6_3 C4_3 1_555 1_555
Co1 O3_3 1_555 1_555
C7_3 C5_3 1_555 1_555
C8_3 C5_3 1_555 1_555
H2_3 C6_3 1_555 1_555
O9_3 C7_3 1_555 1_555
O10_3 C8_3 1_555 1_555
Co6_3 O9_3 1_555 1_555
Co5_3 O10_3 1_555 1_555
C2_3 C4_3 1_555 1_555
O5_3 Co1 1_555 1_555
C6_3 C8_3 1_555 1_555
O10_3 Co6_3 1_555 1_555
O14_3 Co7_3 1_555 1_555
Co7_3 O13_3 1_555 1_555
O7_3 Co3_3 1_555 1_555
O4_3 Co3_3 1_555 1_555
Co1_3 O1_3 1_555 1_555
O1_3 C1_4 1_555 1_555
O2_3 Co1_3 1_555 1_555
C1_4 C3_4 1_555 1_555
C2_4 O2_3 1_555 1_555
C3_4 H1_4 1_555 1_555
C4_4 C1_4 1_555 1_555
Co2_3 O1_3 1_555 1_555
C5_4 C3_4 1_555 1_555
C6_4 C4_4 1_555 1_555
C7_4 C5_4 1_555 1_555
C8_4 C5_4 1_555 1_555
H2_4 C6_4 1_555 1_555
O8_4 C7_4 1_555 1_555
O12 C7_4 1_555 1_555
O13 C8_4 1_555 1_555
Co6 O8_4 1_555 1_555
O12_4 Co6 1_555 1_555
C2_4 C4_4 1_555 1_555
C6_4 C8_4 1_555 1_555
Co5 O12_4 1_555 1_555
Co2_3 O3_4 1_555 1_555
O5_4 Co2_3 1_555 1_555
O4_3 C1_5 1_555 1_555
C1_5 C3_5 1_555 1_555
C3_5 H1_5 1_555 1_555
C5_5 C3_5 1_555 1_555
C7_5 C5_5 1_555 1_555
O8_5 C7_5 1_555 1_555
O12_3 C7_5 1_555 1_555
Co6_3 O8_5 1_555 1_555
C2_5 O5_4 1_555 1_555
O3_5 C2_5 1_555 1_555
C6_5 C4_5 1_555 1_555
Co1_3 O3_5 1_555 1_555
H2_5 C6_5 1_555 1_555
O13_3 C8_5 1_555 1_555
C2_5 C4_5 1_555 1_555
C6_5 C8_5 1_555 1_555
O5_6 Co2_2 1_555 1_555
O4_2 C1_6 1_555 1_555
C1_6 C3_6 1_555 1_555
C2_6 O5_2 1_555 1_555
C3_6 H1_6 1_555 1_555
C4_6 C1_6 1_555 1_555
O3_6 C2_6 1_555 1_555
C5_6 C3_6 1_555 1_555
C6_6 C4_6 1_555 1_555
Co1_2 O3_6 1_555 1_555
C7_6 C5_6 1_555 1_555
C8_6 C5_6 1_555 1_555
H2_6 C6_6 1_555 1_555
O12_4 C7_6 1_555 1_555
O11 C8_6 1_555 1_555
C2_6 C4_6 1_555 1_555
C6_6 C8_6 1_555 1_555
O6 C1_7 1_555 1_555
C1_7 C3_7 1_555 1_555
C2_7 O5_3 1_555 1_555
C3_7 H1_7 1_555 1_555
C4_7 C1_7 1_555 1_555
C5_7 C3_7 1_555 1_555
C6_7 C4_7 1_555 1_555
C7_7 C5_7 1_555 1_555
C8_7 C5_7 1_555 1_555
H2_7 C6_7 1_555 1_555
O8_6 C7_7 1_555 1_555
O12_2 C7_7 1_555 1_555
O13_2 C8_7 1_555 1_555
Co6_2 O8_6 1_555 1_555
C2_7 C4_7 1_555 1_555
C6_7 C8_7 1_555 1_555
Co5_2 O12_6 1_555 1_555
O6_3 C1_8 1_555 1_555
C1_8 C3_8 1_555 1_555
C2_8 O5_5 1_555 1_555
C3_8 H1_8 1_555 1_555
C4_8 C1_8 1_555 1_555
O7_3 C2_8 1_555 1_555
C5_8 C3_8 1_555 1_555
C6_8 C4_8 1_555 1_555
C7_8 C5_8 1_555 1_555
C8_8 C5_8 1_555 1_555
H2_8 C6_8 1_555 1_555
O12_6 C7_8 1_555 1_555
O11_2 C8_8 1_555 1_555
C2_8 C4_8 1_555 1_555
C6_8 C8_8 1_555 1_555
O6_2 C1_9 1_555 1_555
C1_9 C3_9 1_555 1_555
C2_9 O5_6 1_555 1_555
C3_9 H1_9 1_555 1_555
C4_9 C1_9 1_555 1_555
C5_9 C3_9 1_555 1_555
C6_9 C4_9 1_555 1_555
C7_9 C5_9 1_555 1_555
C8_9 C5_9 1_555 1_555
H2_9 C6_9 1_555 1_555
O14_3 C7_9 1_555 1_555
O12_5 C7_9 1_555 1_555
O11_3 C8_9 1_555 1_555
C2_9 C4_9 1_555 1_555
C6_9 C8_9 1_555 1_555

#END
