
###############################################################################
#
# This file contains modified crystal structure data generated from the
# MOF subset of the Cambridge Structural Database (CSD) v543 
# hosted by the Cambridge Crystallographic Data Centre (CCDC).
#
# This work is licensed under the Creative Commons
# Attribution-NonCommercial-ShareAlike 4.0 International License.
# To view a copy of this license, visit
# http://creativecommons.org/licenses/by-nc-sa/4.0/
# or send a letter to
# Creative Commons, PO Box 1866, Mountain View, CA 94042, USA.
#
# CIF created using the CSD Python API on 29 September 2022
# The structure has been converted into the P1 space group
# The structure has a 3D framework
# The original CSD entry MOHGOI is in the rhombohedral crystal system
# The framework has been calculated to contain at least 10.0% void space
# The void calculation uses a probe of radius 1.32A, grid spacing 0.4
#
###############################################################################

data_MOHGOI
_chemical_formula_moiety         '(C72 H18 Mg6 O48)n'
_symmetry_cell_setting           triclinic
_symmetry_space_group_name_H-M   'P 1'
_symmetry_Int_Tables_number      1
_space_group_name_Hall           'P 1'
loop_
_symmetry_equiv_pos_site_id
_symmetry_equiv_pos_as_xyz
1 x,y,z
_cell_length_a                   25.9075(15)
_cell_length_b                   25.9075(15)
_cell_length_c                   6.91663(37)
_cell_angle_alpha                90
_cell_angle_beta                 90
_cell_angle_gamma                120
_cell_volume                     4020.46
loop_
_atom_site_label
_atom_site_type_symbol
_atom_site_fract_x
_atom_site_fract_y
_atom_site_fract_z
_atom_site_U_iso_or_equiv
_atom_site_thermal_displace_type
O4 O 0.05791(42) 0.31169(29) 0.17984(81) 0.0096 Uiso
O5 O 0.03957(41) 0.34300(25) 0.5201(11) 0.0067 Uiso
Mg8 Mg 0.02866(20) 0.64739(34) 0.35962(51) 0.0073 Uiso
Mg1 Mg 0.04793(28) 0.36199(20) 0.97371(51) 0.0073 Uiso
O1 O 0.02164(29) 0.41288(30) 0.84651(81) 0.0096 Uiso
C1 C 0.01084(40) 0.45511(24) 0.92122(75) 0.0247 Uiso
C3 C 0.01976(22) 0.49903(20) 0.79109(67) 0.0248 Uiso
H1 H 0.0292(15) 0.4955(14) 0.6384(52) 0.0175 Uiso
C5 C 0.00579(45) 0.54413(33) 0.8750(12) 0.0067 Uiso
C7 C 0.01984(63) 0.59982(52) 0.7427(17) 0.0213 Uiso
O8 O 0.03012(32) 0.59303(28) 0.5775(11) 0.0084 Uiso
O9 O 0.00967(25) 0.63677(33) 0.8132(11) 0.0067 Uiso
Mg7 Mg 0.01927(34) 0.71460(28) 0.69296(51) 0.0073 Uiso
O11 O 0.07955(30) 0.72457(42) 0.48682(81) 0.0096 Uiso
O14 O 0.07364(28) 0.77042(43) 0.9108(11) 0.0084 Uiso
O2 O 0.99033(25) 0.36323(33) 0.1868(11) 0.0067 Uiso
C2 C 0.98016(63) 0.40018(52) 0.2573(17) 0.0213 Uiso
C4 C 0.99421(45) 0.45587(33) 0.1250(12) 0.0067 Uiso
O3 O 0.96988(32) 0.40697(28) 0.4225(11) 0.0084 Uiso
Mg3 Mg 0.98073(34) 0.28540(28) 0.30704(51) 0.0073 Uiso
O6 O 0.92636(28) 0.22958(43) 0.0892(11) 0.0084 Uiso
O7 O 0.92045(30) 0.27543(42) 0.51318(81) 0.0096 Uiso
C6 C 0.98024(22) 0.50097(20) 0.20891(67) 0.0248 Uiso
Mg4 Mg 0.97134(20) 0.35261(34) 0.64038(51) 0.0073 Uiso
C8 C 0.98916(40) 0.54489(24) 0.07878(75) 0.0247 Uiso
H2 H 0.9708(15) 0.5045(14) 0.3616(52) 0.0175 Uiso
O10 O 0.97836(29) 0.58712(30) 0.15349(81) 0.0096 Uiso
Mg6 Mg 0.95207(28) 0.63801(20) 0.02629(51) 0.0073 Uiso
O12 O 0.96043(41) 0.65700(25) 0.4799(11) 0.0067 Uiso
O13 O 0.94209(42) 0.68831(29) 0.82016(81) 0.0096 Uiso
O2_2 O 0.37290(41) 0.00967(25) 0.1868(11) 0.0067 Uiso
C2_2 C 0.42002(82) 0.01984(63) 0.2573(17) 0.0213 Uiso
C4_2 C 0.46166(56) 0.00579(45) 0.1250(12) 0.0067 Uiso
O3_2 O 0.43709(43) 0.03012(32) 0.4225(11) 0.0084 Uiso
Mg3_2 Mg 0.30468(44) 0.01927(34) 0.30704(51) 0.0073 Uiso
O6_2 O 0.30321(51) 0.07364(28) 0.0892(11) 0.0084 Uiso
O7_2 O 0.35497(52) 0.07955(30) 0.51318(81) 0.0096 Uiso
C6_2 C 0.52073(30) 0.01976(22) 0.20891(67) 0.0248 Uiso
Mg4_2 Mg 0.38126(39) 0.02866(20) 0.64038(51) 0.0073 Uiso
C8_2 C 0.55573(47) 0.01084(40) 0.07878(75) 0.0247 Uiso
H2_2 H 0.5337(21) 0.0292(15) 0.3616(52) 0.0175 Uiso
O10_2 O 0.60876(42) 0.02164(29) 0.15349(81) 0.0096 Uiso
Mg6_2 Mg 0.68594(34) 0.04793(28) 0.02629(51) 0.0073 Uiso
O12_2 O 0.69656(48) 0.03957(41) 0.4799(11) 0.0067 Uiso
O13_2 O 0.74621(51) 0.05791(42) 0.82016(81) 0.0096 Uiso
O4_2 O 0.25379(51) 0.94209(42) 0.17984(81) 0.0096 Uiso
O5_2 O 0.30344(48) 0.96043(41) 0.5201(11) 0.0067 Uiso
Mg8_2 Mg 0.61874(39) 0.97134(20) 0.35962(51) 0.0073 Uiso
Mg1_2 Mg 0.31406(34) 0.95207(28) 0.97371(51) 0.0073 Uiso
O1_2 O 0.39124(42) 0.97836(29) 0.84651(81) 0.0096 Uiso
C1_2 C 0.44427(47) 0.98916(40) 0.92122(75) 0.0247 Uiso
C3_2 C 0.47927(30) 0.98024(22) 0.79109(67) 0.0248 Uiso
H1_2 H 0.4663(21) 0.9708(15) 0.6384(52) 0.0175 Uiso
C5_2 C 0.53834(56) 0.99421(45) 0.8750(12) 0.0067 Uiso
C7_2 C 0.57998(82) 0.98016(63) 0.7427(17) 0.0213 Uiso
O8_2 O 0.56291(43) 0.96988(32) 0.5775(11) 0.0084 Uiso
O9_2 O 0.62710(41) 0.99033(25) 0.8132(11) 0.0067 Uiso
Mg7_2 Mg 0.69532(44) 0.98073(34) 0.69296(51) 0.0073 Uiso
O11_2 O 0.64503(52) 0.92045(30) 0.48682(81) 0.0096 Uiso
O14_2 O 0.69679(51) 0.92636(28) 0.9108(11) 0.0084 Uiso
O12_3 O 0.02990(48) 0.70623(41) 0.1465(11) 0.0067 Uiso
O3_3 O 0.77042(43) 0.69679(32) 0.0892(11) 0.0084 Uiso
O5_3 O 0.63677(48) 0.62710(41) 0.1868(11) 0.0067 Uiso
O7_3 O 0.68831(52) 0.74621(30) 0.17984(81) 0.0096 Uiso
Mg4_3 Mg 0.71460(39) 0.69532(20) 0.30704(51) 0.0073 Uiso
H2_3 H 0.8670(21) 0.6959(15) 0.0283(52) 0.0175 Uiso
Mg1_3 Mg 0.64739(34) 0.61874(28) 0.64038(51) 0.0073 Uiso
O1_3 O 0.72457(42) 0.64503(29) 0.51318(81) 0.0096 Uiso
O2_3 O 0.70623(41) 0.67634(25) 0.8535(11) 0.0067 Uiso
C1_3 C 0.77760(47) 0.65583(40) 0.58789(75) 0.0247 Uiso
C2_3 C 0.75335(82) 0.68651(63) 0.9240(17) 0.0213 Uiso
C3_3 C 0.81260(30) 0.64691(22) 0.45776(67) 0.0248 Uiso
C4_3 C 0.79499(56) 0.67246(45) 0.7917(12) 0.0067 Uiso
H1_3 H 0.7996(21) 0.6375(15) 0.3051(52) 0.0175 Uiso
O4_3 O 0.58712(51) 0.60876(42) 0.84651(81) 0.0096 Uiso
Mg3_3 Mg 0.63801(44) 0.68594(34) 0.97371(51) 0.0073 Uiso
O6_3 O 0.63655(51) 0.74030(28) 0.7558(11) 0.0084 Uiso
C5_3 C 0.87167(56) 0.66088(45) 0.5417(12) 0.0067 Uiso
C6_3 C 0.85406(30) 0.68643(22) 0.87558(67) 0.0248 Uiso
C7_3 C 0.91331(82) 0.64683(63) 0.4094(17) 0.0213 Uiso
C8_3 C 0.88906(47) 0.67751(40) 0.74545(75) 0.0247 Uiso
O8_3 O 0.89624(43) 0.63655(32) 0.2442(11) 0.0084 Uiso
C1_4 C 0.11094(47) 0.32249(40) 0.25455(75) 0.0247 Uiso
C2_4 C 0.08669(82) 0.35317(63) 0.5906(17) 0.0213 Uiso
C3_4 C 0.14594(30) 0.31357(22) 0.12442(67) 0.0248 Uiso
C4_4 C 0.12833(56) 0.33912(45) 0.4583(12) 0.0067 Uiso
O3_4 O 0.10376(43) 0.36345(32) 0.7558(11) 0.0084 Uiso
C5_4 C 0.20501(56) 0.32754(45) 0.2083(12) 0.0067 Uiso
C6_4 C 0.18740(30) 0.35309(22) 0.54224(67) 0.0248 Uiso
C7_4 C 0.24665(82) 0.31349(63) 0.0760(17) 0.0213 Uiso
C8_4 C 0.22240(47) 0.34417(40) 0.41211(75) 0.0247 Uiso
H2_4 H 0.2004(21) 0.3625(15) 0.6949(52) 0.0175 Uiso
O9_3 O 0.29377(41) 0.32366(25) 0.1465(11) 0.0067 Uiso
O10_3 O 0.27543(42) 0.35497(29) 0.48682(81) 0.0096 Uiso
Mg6_3 Mg 0.35261(34) 0.38126(28) 0.35962(51) 0.0073 Uiso
Mg7_3 Mg 0.36199(44) 0.31406(34) 0.02629(51) 0.0073 Uiso
Mg8_3 Mg 0.28540(39) 0.30468(20) 0.69296(51) 0.0073 Uiso
O13_3 O 0.41288(51) 0.39124(42) 0.15349(81) 0.0096 Uiso
O14_3 O 0.36345(51) 0.25970(28) 0.2442(11) 0.0084 Uiso
H1_4 H 0.1330(21) 0.3041(15) 0.9717(52) 0.0175 Uiso
O8_4 O 0.22958(43) 0.30321(32) 0.9108(11) 0.0084 Uiso
O11_3 O 0.31169(52) 0.25379(30) 0.82016(81) 0.0096 Uiso
O12_4 O 0.36323(48) 0.37290(41) 0.8132(11) 0.0067 Uiso
O5_4 O 0.97010(48) 0.29377(41) 0.8535(11) 0.0067 Uiso
C2_5 C 0.59982(52) 0.57998(82) 0.2573(17) 0.0213 Uiso
C4_5 C 0.54413(33) 0.53834(56) 0.1250(12) 0.0067 Uiso
O3_5 O 0.59303(28) 0.56291(43) 0.4225(11) 0.0084 Uiso
O5_5 O 0.65700(25) 0.69656(48) 0.5201(11) 0.0067 Uiso
C6_5 C 0.49903(20) 0.47927(30) 0.20891(67) 0.0248 Uiso
C8_5 C 0.45511(24) 0.44427(47) 0.07878(75) 0.0247 Uiso
H2_5 H 0.4955(14) 0.4663(21) 0.3616(52) 0.0175 Uiso
C1_5 C 0.54489(24) 0.55573(47) 0.92122(75) 0.0247 Uiso
C3_5 C 0.50097(20) 0.52073(30) 0.79109(67) 0.0248 Uiso
H1_5 H 0.5045(14) 0.5337(21) 0.6384(52) 0.0175 Uiso
C5_5 C 0.45587(33) 0.46166(56) 0.8750(12) 0.0067 Uiso
C7_5 C 0.40018(52) 0.42002(82) 0.7427(17) 0.0213 Uiso
O8_5 O 0.40697(28) 0.43709(43) 0.5775(11) 0.0084 Uiso
O12_5 O 0.34300(25) 0.30344(48) 0.4799(11) 0.0067 Uiso
H2_6 H 0.8288(14) 0.1330(21) 0.0283(52) 0.0175 Uiso
C1_6 C 0.87822(24) 0.22240(47) 0.58789(75) 0.0247 Uiso
C2_6 C 0.93315(52) 0.24665(82) 0.9240(17) 0.0213 Uiso
C3_6 C 0.83430(20) 0.18740(30) 0.45776(67) 0.0248 Uiso
C4_6 C 0.87746(33) 0.20501(56) 0.7917(12) 0.0067 Uiso
H1_6 H 0.8378(14) 0.2004(21) 0.3051(52) 0.0175 Uiso
C5_6 C 0.78920(33) 0.12833(56) 0.5417(12) 0.0067 Uiso
C6_6 C 0.83236(20) 0.14594(30) 0.87558(67) 0.0248 Uiso
C7_6 C 0.73351(52) 0.08669(82) 0.4094(17) 0.0213 Uiso
C8_6 C 0.78844(24) 0.11094(47) 0.74545(75) 0.0247 Uiso
O8_6 O 0.74030(28) 0.10376(43) 0.2442(11) 0.0084 Uiso
O12_6 O 0.67634(25) 0.97010(48) 0.1465(11) 0.0067 Uiso
O5_6 O 0.32366(25) 0.02990(48) 0.8535(11) 0.0067 Uiso
C1_7 C 0.21156(24) 0.88906(47) 0.25455(75) 0.0247 Uiso
C2_7 C 0.26649(52) 0.91331(82) 0.5906(17) 0.0213 Uiso
C3_7 C 0.16764(20) 0.85406(30) 0.12442(67) 0.0248 Uiso
C4_7 C 0.21080(33) 0.87167(56) 0.4583(12) 0.0067 Uiso
O3_6 O 0.25970(28) 0.89624(43) 0.7558(11) 0.0084 Uiso
C5_7 C 0.12254(33) 0.79499(56) 0.2083(12) 0.0067 Uiso
C6_7 C 0.16570(20) 0.81260(30) 0.54224(67) 0.0248 Uiso
C7_7 C 0.06685(52) 0.75335(82) 0.0760(17) 0.0213 Uiso
C8_7 C 0.12178(24) 0.77760(47) 0.41211(75) 0.0247 Uiso
H2_7 H 0.1622(14) 0.7996(21) 0.6949(52) 0.0175 Uiso
H1_7 H 0.1712(14) 0.8670(21) 0.9717(52) 0.0175 Uiso
H2_8 H 0.3041(15) 0.1712(14) 0.0283(52) 0.0175 Uiso
C1_8 C 0.34417(40) 0.12178(24) 0.58789(75) 0.0247 Uiso
C2_8 C 0.31349(63) 0.06685(52) 0.9240(17) 0.0213 Uiso
C3_8 C 0.35309(22) 0.16570(20) 0.45776(67) 0.0248 Uiso
C4_8 C 0.32754(45) 0.12254(33) 0.7917(12) 0.0067 Uiso
H1_8 H 0.3625(15) 0.1622(14) 0.3051(52) 0.0175 Uiso
C5_8 C 0.33912(45) 0.21080(33) 0.5417(12) 0.0067 Uiso
C6_8 C 0.31357(22) 0.16764(20) 0.87558(67) 0.0248 Uiso
C7_8 C 0.35317(63) 0.26649(52) 0.4094(17) 0.0213 Uiso
C8_8 C 0.32249(40) 0.21156(24) 0.74545(75) 0.0247 Uiso
C1_9 C 0.67751(40) 0.78844(24) 0.25455(75) 0.0247 Uiso
C2_9 C 0.64683(63) 0.73351(52) 0.5906(17) 0.0213 Uiso
C3_9 C 0.68643(22) 0.83236(20) 0.12442(67) 0.0248 Uiso
C4_9 C 0.66088(45) 0.78920(33) 0.4583(12) 0.0067 Uiso
C5_9 C 0.67246(45) 0.87746(33) 0.2083(12) 0.0067 Uiso
C6_9 C 0.64691(22) 0.83430(20) 0.54224(67) 0.0248 Uiso
C7_9 C 0.68651(63) 0.93315(52) 0.0760(17) 0.0213 Uiso
C8_9 C 0.65583(40) 0.87822(24) 0.41211(75) 0.0247 Uiso
H2_9 H 0.6375(15) 0.8378(14) 0.6949(52) 0.0175 Uiso
H1_9 H 0.6959(15) 0.8288(14) 0.9717(52) 0.0175 Uiso
loop_
_geom_bond_atom_site_label_1
_geom_bond_atom_site_label_2
_geom_bond_site_symmetry_1
_geom_bond_site_symmetry_2
Mg1 O1 1_555 1_555
O1 C1 1_555 1_555
C1 C3 1_555 1_555
C3 H1 1_555 1_555
C5 C3 1_555 1_555
C7 C5 1_555 1_555
O8 C7 1_555 1_555
O9 C7 1_555 1_555
Mg8 O8 1_555 1_555
Mg7 O9 1_555 1_555
O11 Mg8 1_555 1_555
O14 Mg7 1_555 1_555
Mg7 O11 1_555 1_555
C2 O2 1_555 1_555
O3 C2 1_555 1_555
Mg3 O2 1_555 1_555
O6 Mg3 1_555 1_555
O7 Mg3 1_555 1_555
C6 C4 1_555 1_555
Mg4 O3 1_555 1_555
H2 C6 1_555 1_555
O10 C8 1_555 1_555
C2 C4 1_555 1_555
O7 Mg4 1_555 1_555
C6 C8 1_555 1_555
O10 Mg6 1_555 1_555
C2_2 O2_2 1_555 1_555
O3_2 C2_2 1_555 1_555
Mg3_2 O2_2 1_555 1_555
O6_2 Mg3_2 1_555 1_555
O7_2 Mg3_2 1_555 1_555
C6_2 C4_2 1_555 1_555
Mg4_2 O3_2 1_555 1_555
H2_2 C6_2 1_555 1_555
O10_2 C8_2 1_555 1_555
C2_2 C4_2 1_555 1_555
O7_2 Mg4_2 1_555 1_555
C6_2 C8_2 1_555 1_555
O10_2 Mg6_2 1_555 1_555
Mg1_2 O1_2 1_555 1_555
O1_2 C1_2 1_555 1_555
C1_2 C3_2 1_555 1_555
C3_2 H1_2 1_555 1_555
C5_2 C3_2 1_555 1_555
C7_2 C5_2 1_555 1_555
O8_2 C7_2 1_555 1_555
O9_2 C7_2 1_555 1_555
Mg8_2 O8_2 1_555 1_555
Mg7_2 O9_2 1_555 1_555
O11_2 Mg8_2 1_555 1_555
O14_2 Mg7_2 1_555 1_555
Mg7_2 O11_2 1_555 1_555
Mg8 O12_3 1_555 1_555
Mg4_3 O3_3 1_555 1_555
O5_3 Mg4_3 1_555 1_555
O7_3 Mg4_3 1_555 1_555
Mg1_3 O1_3 1_555 1_555
O1_3 C1_3 1_555 1_555
O2_3 Mg1_3 1_555 1_555
C1_3 C3_3 1_555 1_555
C2_3 O2_3 1_555 1_555
C3_3 H1_3 1_555 1_555
C4_3 C1_3 1_555 1_555
O4_3 Mg1_3 1_555 1_555
Mg4_3 O1_3 1_555 1_555
Mg3_3 O2_3 1_555 1_555
O6_3 Mg3_3 1_555 1_555
C5_3 C3_3 1_555 1_555
C6_3 C4_3 1_555 1_555
C7_3 C5_3 1_555 1_555
C8_3 C5_3 1_555 1_555
O8_3 C7_3 1_555 1_555
O12 C7_3 1_555 1_555
O13 C8_3 1_555 1_555
Mg6 O8_3 1_555 1_555
C2_3 C4_3 1_555 1_555
O4_3 Mg3_3 1_555 1_555
C6_3 C8_3 1_555 1_555
O4 C1_4 1_555 1_555
C1_4 C3_4 1_555 1_555
C2_4 O5 1_555 1_555
C4_4 C1_4 1_555 1_555
O3_4 C2_4 1_555 1_555
C5_4 C3_4 1_555 1_555
C6_4 C4_4 1_555 1_555
Mg1 O3_4 1_555 1_555
C7_4 C5_4 1_555 1_555
C8_4 C5_4 1_555 1_555
H2_4 C6_4 1_555 1_555
O9_3 C7_4 1_555 1_555
O10_3 C8_4 1_555 1_555
Mg6_3 O9_3 1_555 1_555
Mg7_3 O9_3 1_555 1_555
Mg8_3 O10_3 1_555 1_555
O13_3 Mg6_3 1_555 1_555
O14_3 Mg7_3 1_555 1_555
C2_4 C4_4 1_555 1_555
C6_4 C8_4 1_555 1_555
O10_3 Mg6_3 1_555 1_555
Mg7_3 O13_3 1_555 1_555
Mg8_3 O8_4 1_555 1_555
O11_3 Mg8_3 1_555 1_555
O12_4 Mg8_3 1_555 1_555
O5_4 Mg4 1_555 1_555
C2_5 O5_3 1_555 1_555
O3_5 C2_5 1_555 1_555
O5_5 Mg4_3 1_555 1_555
C6_5 C4_5 1_555 1_555
Mg1_3 O3_5 1_555 1_555
H2_5 C6_5 1_555 1_555
O13_3 C8_5 1_555 1_555
C2_5 C4_5 1_555 1_555
O5_5 Mg1_3 1_555 1_555
C6_5 C8_5 1_555 1_555
O4_3 C1_5 1_555 1_555
C1_5 C3_5 1_555 1_555
C3_5 H1_5 1_555 1_555
C5_5 C3_5 1_555 1_555
C7_5 C5_5 1_555 1_555
O8_5 C7_5 1_555 1_555
O12_4 C7_5 1_555 1_555
Mg6_3 O8_5 1_555 1_555
O12_5 Mg6_3 1_555 1_555
Mg8_3 O12_5 1_555 1_555
O7 C1_6 1_555 1_555
C1_6 C3_6 1_555 1_555
C2_6 O5_4 1_555 1_555
C3_6 H1_6 1_555 1_555
C4_6 C1_6 1_555 1_555
C5_6 C3_6 1_555 1_555
C6_6 C4_6 1_555 1_555
C7_6 C5_6 1_555 1_555
C8_6 C5_6 1_555 1_555
O8_6 C7_6 1_555 1_555
O12_2 C7_6 1_555 1_555
O13_2 C8_6 1_555 1_555
Mg6_2 O8_6 1_555 1_555
C2_6 C4_6 1_555 1_555
C6_6 C8_6 1_555 1_555
Mg8_2 O12_6 1_555 1_555
O5_6 Mg4_2 1_555 1_555
O4_2 C1_7 1_555 1_555
C1_7 C3_7 1_555 1_555
C2_7 O5_2 1_555 1_555
C4_7 C1_7 1_555 1_555
O3_6 C2_7 1_555 1_555
C5_7 C3_7 1_555 1_555
C6_7 C4_7 1_555 1_555
Mg1_2 O3_6 1_555 1_555
C7_7 C5_7 1_555 1_555
C8_7 C5_7 1_555 1_555
H2_7 C6_7 1_555 1_555
O12_3 C7_7 1_555 1_555
O11 C8_7 1_555 1_555
C2_7 C4_7 1_555 1_555
C6_7 C8_7 1_555 1_555
O7_2 C1_8 1_555 1_555
C1_8 C3_8 1_555 1_555
C2_8 O5_6 1_555 1_555
C3_8 H1_8 1_555 1_555
C4_8 C1_8 1_555 1_555
C5_8 C3_8 1_555 1_555
C6_8 C4_8 1_555 1_555
C7_8 C5_8 1_555 1_555
C8_8 C5_8 1_555 1_555
O14_3 C7_8 1_555 1_555
O12_5 C7_8 1_555 1_555
O11_3 C8_8 1_555 1_555
C2_8 C4_8 1_555 1_555
C6_8 C8_8 1_555 1_555
O7_3 C1_9 1_555 1_555
C1_9 C3_9 1_555 1_555
C2_9 O5_5 1_555 1_555
C4_9 C1_9 1_555 1_555
O6_3 C2_9 1_555 1_555
C5_9 C3_9 1_555 1_555
C6_9 C4_9 1_555 1_555
C7_9 C5_9 1_555 1_555
C8_9 C5_9 1_555 1_555
H2_9 C6_9 1_555 1_555
O12_6 C7_9 1_555 1_555
O11_2 C8_9 1_555 1_555
C2_9 C4_9 1_555 1_555
C6_9 C8_9 1_555 1_555

#END
