
###############################################################################
#
# This file contains modified crystal structure data generated from the
# MOF subset of the Cambridge Structural Database (CSD) v543 
# hosted by the Cambridge Crystallographic Data Centre (CCDC).
#
# This work is licensed under the Creative Commons
# Attribution-NonCommercial-ShareAlike 4.0 International License.
# To view a copy of this license, visit
# http://creativecommons.org/licenses/by-nc-sa/4.0/
# or send a letter to
# Creative Commons, PO Box 1866, Mountain View, CA 94042, USA.
#
# CIF created using the CSD Python API on 29 September 2022
# The structure has been converted into the P1 space group
# The structure has a 3D framework
# The original CSD entry MOHMEE29 is in the rhombohedral crystal system
# The framework has been calculated to contain at least 10.0% void space
# The void calculation uses a probe of radius 1.32A, grid spacing 0.4
# H atom positions have been added when not included in the experimental data
#
###############################################################################

data_MOHMEE29
_chemical_formula_moiety         '(C72 H18 Cu7 O44)n'
_symmetry_cell_setting           triclinic
_symmetry_space_group_name_H-M   'P 1'
_symmetry_Int_Tables_number      1
_space_group_name_Hall           'P 1'
loop_
_symmetry_equiv_pos_site_id
_symmetry_equiv_pos_as_xyz
1 x,y,z
_cell_length_a                   25.9177(3)
_cell_length_b                   25.9177(3)
_cell_length_c                   6.28181(7)
_cell_angle_alpha                90
_cell_angle_beta                 90
_cell_angle_gamma                120
_cell_volume                     3654.33
loop_
_atom_site_label
_atom_site_type_symbol
_atom_site_fract_x
_atom_site_fract_y
_atom_site_fract_z
Cu7 Cu 0.31806(7) 0.37128(5) 0.0086(2)
Cu1 Cu 0.29539(5) 0.28012(5) 0.3419(2)
C1 C 0.1609(4) 0.3121(3) 0.1232(13)
C2 C 0.1204(4) 0.3274(4) 0.1984(16)
C3 C 0.2094(4) 0.3194(4) 0.2552(14)
C4 C 0.0755(4) 0.3225(5) 0.0343(14)
O1 O 0.2518(2) 0.3076(2) 0.1702(10)
O3 O 0.0520(2) 0.3550(2) 0.0654(8)
C5 C 0.1724(4) 0.3546(3) 0.5435(13)
C6 C 0.2129(4) 0.3393(4) 0.4683(16)
C7 C 0.1239(4) 0.3473(4) 0.4115(14)
C8 C 0.2578(4) 0.3442(5) 0.6324(14)
O4 O 0.0815(2) 0.3591(2) 0.4965(10)
O5 O 0.2663(2) 0.3746(2) 0.7967(10)
O6 O 0.2813(2) 0.3117(2) 0.6013(8)
Cu4 Cu 0.01527(7) 0.29539(5) 0.6581(2)
Cu5 Cu 0.38655(5) 0.34860(7) 0.6752(2)
Cu8 Cu 0.03794(5) 0.38655(5) 0.3248(2)
O7 O 0.3591(2) 0.2775(3) 0.5035(10)
O9 O 0.2921(2) 0.2251(3) 0.1300(10)
O12 O 0.3637(3) 0.3853(2) 0.2679(8)
H1 H 0.177203 0.372303 0.703937
O2 O 0.0670(2) 0.2921(2) 0.8700(10)
O8 O 0.3891(3) 0.4149(2) 0.8369(10)
O11 O 0.3550(2) 0.3030(3) 0.9346(8)
H2 H 0.156131 0.294364 0.96273
Cu6 Cu 0.94679(5) 0.31806(7) 0.9914(2)
Cu6_2 Cu 0.37128(9) 0.05321(5) 0.9914(2)
Cu7_2 Cu 0.05321(9) 0.68194(7) 0.0086(2)
C1_2 C 0.1512(5) 0.8391(4) 0.1232(13)
C2_2 C 0.2070(6) 0.8796(4) 0.1984(16)
C3_2 C 0.1100(6) 0.7906(4) 0.2552(14)
C4_2 C 0.2470(6) 0.9245(4) 0.0343(14)
O1_2 O 0.0558(3) 0.7482(2) 0.1702(10)
O3_2 O 0.3030(3) 0.9480(2) 0.0654(8)
C5_2 C 0.1821(5) 0.8276(4) 0.5435(13)
C6_2 C 0.1263(6) 0.7871(4) 0.4683(16)
C7_2 C 0.2233(6) 0.8761(4) 0.4115(14)
C8_2 C 0.0863(6) 0.7422(4) 0.6324(14)
O4_2 O 0.2775(3) 0.9185(2) 0.4965(10)
O5_2 O 0.1082(3) 0.7337(2) 0.7967(10)
O6_2 O 0.0303(3) 0.7187(2) 0.6013(8)
Cu4_2 Cu 0.28012(9) 0.98473(7) 0.6581(2)
Cu8_2 Cu 0.34860(7) 0.96206(5) 0.3248(2)
O12_2 O 0.0217(4) 0.6363(3) 0.2679(8)
H1_2 H 0.1951 0.822797 0.703937
O2_2 O 0.2251(3) 0.9330(2) 0.8700(10)
O8_2 O 0.0257(4) 0.6109(3) 0.8369(10)
H2_2 H 0.138233 0.843869 0.96273
Cu1_2 Cu 0.98473(7) 0.70461(5) 0.3419(2)
Cu5_2 Cu 0.96206(9) 0.61345(5) 0.6752(2)
O7_2 O 0.9185(4) 0.6409(2) 0.5035(10)
O9_2 O 0.9330(4) 0.7079(2) 0.1300(10)
O11_2 O 0.9480(4) 0.6450(2) 0.9346(8)
Cu1_3 Cu 0.71988(5) 0.01527(7) 0.3419(2)
Cu5_3 Cu 0.65140(7) 0.03794(9) 0.6752(2)
O7_3 O 0.7225(3) 0.0815(4) 0.5035(10)
O9_3 O 0.7749(3) 0.0670(4) 0.1300(10)
O11_3 O 0.6970(3) 0.0520(4) 0.9346(8)
Cu7_3 Cu 0.62872(5) 0.94679(9) 0.0086(2)
C1_3 C 0.6879(3) 0.8488(5) 0.1232(13)
C2_3 C 0.6726(4) 0.7930(6) 0.1984(16)
C3_3 C 0.6806(4) 0.8900(6) 0.2552(14)
C4_3 C 0.6775(5) 0.7530(6) 0.0343(14)
O1_3 O 0.6924(2) 0.9442(3) 0.1702(10)
O3_3 O 0.6450(2) 0.6970(3) 0.0654(8)
C5_3 C 0.6454(3) 0.8179(5) 0.5435(13)
C6_3 C 0.6607(4) 0.8737(6) 0.4683(16)
C7_3 C 0.6527(4) 0.7767(6) 0.4115(14)
C8_3 C 0.6558(5) 0.9137(6) 0.6324(14)
O4_3 O 0.6409(2) 0.7225(3) 0.4965(10)
O5_3 O 0.6254(2) 0.8918(3) 0.7967(10)
O6_3 O 0.6883(2) 0.9697(3) 0.6013(8)
Cu4_3 Cu 0.70461(5) 0.71988(9) 0.6581(2)
Cu8_3 Cu 0.61345(5) 0.65140(7) 0.3248(2)
O12_3 O 0.6147(2) 0.9783(4) 0.2679(8)
H1_3 H 0.627697 0.8049 0.703937
O2_3 O 0.7079(2) 0.7749(3) 0.8700(10)
Cu6_3 Cu 0.68194(7) 0.62872(9) 0.9914(2)
O8_3 O 0.5851(2) 0.9743(4) 0.8369(10)
H2_3 H 0.705636 0.861767 0.96273
H1_4 H 0.843869 0.705636 0.0372703
C1_4 C 0.8276(4) 0.6454(3) 0.4565(13)
C2_4 C 0.7871(4) 0.6607(4) 0.5317(16)
C3_4 C 0.8761(4) 0.6527(4) 0.5885(14)
C4_4 C 0.7422(4) 0.6558(5) 0.3676(14)
O2_4 O 0.7337(2) 0.6254(2) 0.2033(10)
O3_4 O 0.7187(2) 0.6883(2) 0.3987(8)
C5_4 C 0.8391(4) 0.6879(3) 0.8768(13)
C6_4 C 0.8796(4) 0.6726(4) 0.8016(16)
C7_4 C 0.7906(4) 0.6806(4) 0.7448(14)
C8_4 C 0.9245(4) 0.6775(5) 0.9657(14)
O4_4 O 0.7482(2) 0.6924(2) 0.8298(10)
O9_4 O 0.9588(2) 0.5584(3) 0.4633(10)
H2_4 H 0.822797 0.627697 0.296063
H1_5 H 0.861767 0.156131 0.0372703
C1_5 C 0.8179(5) 0.1724(4) 0.4565(13)
C2_5 C 0.8737(6) 0.2129(4) 0.5317(16)
C3_5 C 0.7767(6) 0.1239(4) 0.5885(14)
C4_5 C 0.9137(6) 0.2578(4) 0.3676(14)
O2_5 O 0.8918(3) 0.2663(2) 0.2033(10)
O3_5 O 0.9697(3) 0.2813(2) 0.3987(8)
C5_5 C 0.8488(5) 0.1609(4) 0.8768(13)
C6_5 C 0.7930(6) 0.1204(4) 0.8016(16)
C7_5 C 0.8900(6) 0.2094(4) 0.7448(14)
C8_5 C 0.7530(6) 0.0755(4) 0.9657(14)
O4_5 O 0.9442(3) 0.2518(2) 0.8298(10)
O9_5 O 0.5997(4) 0.0412(2) 0.4633(10)
H2_5 H 0.8049 0.177203 0.296063
H1_6 H 0.294364 0.138233 0.0372703
C1_6 C 0.3546(3) 0.1821(5) 0.4565(13)
C2_6 C 0.3393(4) 0.1263(6) 0.5317(16)
C3_6 C 0.3473(4) 0.2233(6) 0.5885(14)
C4_6 C 0.3442(5) 0.0863(6) 0.3676(14)
O2_6 O 0.3746(2) 0.1082(3) 0.2033(10)
O3_6 O 0.3117(2) 0.0303(3) 0.3987(8)
C5_6 C 0.3121(3) 0.1512(5) 0.8768(13)
C6_6 C 0.3274(4) 0.2070(6) 0.8016(16)
C7_6 C 0.3194(4) 0.1100(6) 0.7448(14)
C8_6 C 0.3225(5) 0.2470(6) 0.9657(14)
O4_6 O 0.3076(2) 0.0558(3) 0.8298(10)
O9_6 O 0.4416(3) 0.4003(4) 0.4633(10)
H2_6 H 0.372303 0.1951 0.296063
C5_7 C 0.5058(4) 0.0212(3) 0.2101(13)
C6_7 C 0.5463(4) 0.0059(4) 0.1349(16)
C7_7 C 0.4573(4) 0.0139(4) 0.0781(14)
C8_7 C 0.5912(4) 0.0108(5) 0.2990(14)
O4_7 O 0.4149(2) 0.0257(2) 0.1631(10)
H1_7 H 0.510536 0.0389696 0.370604
O3_7 O 0.3853(2) 0.0217(2) 0.7321(8)
C1_7 C 0.4942(4) 0.9788(3) 0.7899(13)
C2_7 C 0.4537(4) 0.9941(4) 0.8651(16)
C3_7 C 0.5427(4) 0.9861(4) 0.9219(14)
C4_7 C 0.4088(4) 0.9892(5) 0.7010(14)
O2_7 O 0.4003(2) 0.9588(2) 0.5367(10)
H2_7 H 0.489464 0.96103 0.629396
C5_8 C 0.5155(5) 0.4942(4) 0.2101(13)
C6_8 C 0.4597(6) 0.4537(4) 0.1349(16)
C7_8 C 0.5567(6) 0.5427(4) 0.0781(14)
C8_8 C 0.4197(6) 0.4088(4) 0.2990(14)
O4_8 O 0.6109(3) 0.5851(2) 0.1631(10)
H1_8 H 0.528434 0.489464 0.370604
C1_8 C 0.4845(5) 0.5058(4) 0.7899(13)
C2_8 C 0.5403(6) 0.5463(4) 0.8651(16)
C3_8 C 0.4433(6) 0.4573(4) 0.9219(14)
C4_8 C 0.5803(6) 0.5912(4) 0.7010(14)
O2_8 O 0.5584(3) 0.5997(2) 0.5367(10)
O3_8 O 0.6363(3) 0.6147(2) 0.7321(8)
H2_8 H 0.471566 0.510536 0.629396
C1_9 C 0.0212(3) 0.5155(5) 0.7899(13)
C2_9 C 0.0059(4) 0.4597(6) 0.8651(16)
C3_9 C 0.0139(4) 0.5567(6) 0.9219(14)
C4_9 C 0.0108(5) 0.4197(6) 0.7010(14)
O2_9 O 0.0412(2) 0.4416(3) 0.5367(10)
H2_9 H 0.0389696 0.528434 0.629396
C5_9 C 0.9788(3) 0.4845(5) 0.2101(13)
C6_9 C 0.9941(4) 0.5403(6) 0.1349(16)
C7_9 C 0.9861(4) 0.4433(6) 0.0781(14)
C8_9 C 0.9892(5) 0.5803(6) 0.2990(14)
O4_9 O 0.9743(2) 0.3891(3) 0.1631(10)
H1_9 H 0.96103 0.471566 0.370604
O3_9 O 0.9783(2) 0.3637(3) 0.7321(8)
loop_
_geom_bond_atom_site_label_1
_geom_bond_atom_site_label_2
_geom_bond_site_symmetry_1
_geom_bond_site_symmetry_2
Cu1 O1 1_555 1_555
C1 C2 1_555 1_555
C2 C4 1_555 1_555
C3 C1 1_555 1_555
O1 C3 1_555 1_555
O3 C4 1_555 1_555
C5 C6 1_555 1_555
C6 C3 1_555 1_555
C7 C2 1_555 1_555
C8 C6 1_555 1_555
O4 C7 1_555 1_555
O5 C8 1_555 1_555
O6 Cu1 1_555 1_555
Cu7 O1 1_555 1_555
Cu4 O4 1_555 1_555
Cu5 O6 1_555 1_555
Cu8 O3 1_555 1_555
O7 Cu1 1_555 1_555
O9 Cu1 1_555 1_555
O12 Cu1 1_555 1_555
C5 C7 1_555 1_555
C8 O6 1_555 1_555
O4 Cu8 1_555 1_555
Cu7 O12 1_555 1_555
Cu5 O7 1_555 1_555
C5 H1 1_555 1_555
O2 Cu4 1_555 1_555
C1_2 C2_2 1_555 1_555
C2_2 C4_2 1_555 1_555
C3_2 C1_2 1_555 1_555
O1_2 C3_2 1_555 1_555
O3_2 C4_2 1_555 1_555
C5_2 C6_2 1_555 1_555
C6_2 C3_2 1_555 1_555
C7_2 C2_2 1_555 1_555
C8_2 C6_2 1_555 1_555
O4_2 C7_2 1_555 1_555
O5_2 C8_2 1_555 1_555
Cu7_2 O1_2 1_555 1_555
Cu4_2 O4_2 1_555 1_555
Cu8_2 O3_2 1_555 1_555
C5_2 C7_2 1_555 1_555
C8_2 O6_2 1_555 1_555
O4_2 Cu8_2 1_555 1_555
Cu7_2 O12_2 1_555 1_555
C5_2 H1_2 1_555 1_555
O2_2 Cu4_2 1_555 1_555
O7_2 Cu1_2 1_555 1_555
O9_2 Cu1_2 1_555 1_555
Cu5_2 O7_2 1_555 1_555
O7_3 Cu1_3 1_555 1_555
O9_3 Cu1_3 1_555 1_555
Cu5_3 O7_3 1_555 1_555
C1_3 C2_3 1_555 1_555
C2_3 C4_3 1_555 1_555
C3_3 C1_3 1_555 1_555
O1_3 C3_3 1_555 1_555
O3_3 C4_3 1_555 1_555
C5_3 C6_3 1_555 1_555
C6_3 C3_3 1_555 1_555
C7_3 C2_3 1_555 1_555
C8_3 C6_3 1_555 1_555
O4_3 C7_3 1_555 1_555
O5_3 C8_3 1_555 1_555
Cu7_3 O1_3 1_555 1_555
Cu4_3 O4_3 1_555 1_555
Cu8_3 O3_3 1_555 1_555
C5_3 C7_3 1_555 1_555
C8_3 O6_3 1_555 1_555
O4_3 Cu8_3 1_555 1_555
Cu7_3 O12_3 1_555 1_555
C5_3 H1_3 1_555 1_555
O2_3 Cu4_3 1_555 1_555
C1_4 C2_4 1_555 1_555
C2_4 C4_4 1_555 1_555
C3_4 C1_4 1_555 1_555
C4_4 O2_4 1_555 1_555
O7_2 C3_4 1_555 1_555
O3_4 C4_4 1_555 1_555
C5_4 C6_4 1_555 1_555
C6_4 C3_4 1_555 1_555
C7_4 C2_4 1_555 1_555
C8_4 C6_4 1_555 1_555
O4_4 C7_4 1_555 1_555
O11_2 Cu5_2 1_555 1_555
Cu6_3 O4_4 1_555 1_555
Cu8_3 O3_4 1_555 1_555
Cu4_3 O3_4 1_555 1_555
O9_4 Cu5_2 1_555 1_555
C5_4 C7_4 1_555 1_555
C8_4 O11_2 1_555 1_555
O4_4 Cu4_3 1_555 1_555
C1_4 H2_4 1_555 1_555
C1_5 C2_5 1_555 1_555
C2_5 C4_5 1_555 1_555
C3_5 C1_5 1_555 1_555
C4_5 O2_5 1_555 1_555
O7_3 C3_5 1_555 1_555
O3_5 C4_5 1_555 1_555
C5_5 C6_5 1_555 1_555
C6_5 C3_5 1_555 1_555
C7_5 C2_5 1_555 1_555
C8_5 C6_5 1_555 1_555
O4_5 C7_5 1_555 1_555
O11_3 Cu5_3 1_555 1_555
Cu6 O4_5 1_555 1_555
O9_5 Cu5_3 1_555 1_555
C5_5 C7_5 1_555 1_555
C8_5 O11_3 1_555 1_555
C1_5 H2_5 1_555 1_555
C1_6 C2_6 1_555 1_555
C2_6 C4_6 1_555 1_555
C3_6 C1_6 1_555 1_555
C4_6 O2_6 1_555 1_555
O7 C3_6 1_555 1_555
O3_6 C4_6 1_555 1_555
C5_6 C6_6 1_555 1_555
C6_6 C3_6 1_555 1_555
C7_6 C2_6 1_555 1_555
C8_6 C6_6 1_555 1_555
O4_6 C7_6 1_555 1_555
O11 Cu5 1_555 1_555
Cu6_2 O4_6 1_555 1_555
O8 Cu5 1_555 1_555
O9_6 Cu5 1_555 1_555
C5_6 C7_6 1_555 1_555
C8_6 O11 1_555 1_555
C1_6 H2_6 1_555 1_555
C5_7 C6_7 1_555 1_555
C8_7 C6_7 1_555 1_555
O4_7 C7_7 1_555 1_555
O9_5 C8_7 1_555 1_555
C5_7 C7_7 1_555 1_555
C5_7 H1_7 1_555 1_555
Cu6_2 O3_7 1_555 1_555
C1_7 C2_7 1_555 1_555
C2_7 C4_7 1_555 1_555
C3_7 C1_7 1_555 1_555
C4_7 O2_7 1_555 1_555
O8_3 C3_7 1_555 1_555
O2_7 Cu8_2 1_555 1_555
C1_7 H2_7 1_555 1_555
C5_8 C6_8 1_555 1_555
C8_8 C6_8 1_555 1_555
O4_8 C7_8 1_555 1_555
O9_6 C8_8 1_555 1_555
Cu8_3 O4_8 1_555 1_555
C5_8 C7_8 1_555 1_555
C8_8 O12 1_555 1_555
C5_8 H1_8 1_555 1_555
C1_8 C2_8 1_555 1_555
C2_8 C4_8 1_555 1_555
C3_8 C1_8 1_555 1_555
C4_8 O2_8 1_555 1_555
O8 C3_8 1_555 1_555
O2_8 Cu8_3 1_555 1_555
O3_8 C4_8 1_555 1_555
Cu4_3 O3_8 1_555 1_555
Cu6_3 O3_8 1_555 1_555
C1_8 H2_8 1_555 1_555
C1_9 C2_9 1_555 1_555
C2_9 C4_9 1_555 1_555
C3_9 C1_9 1_555 1_555
C4_9 O2_9 1_555 1_555
O8_2 C3_9 1_555 1_555
O2_9 Cu8 1_555 1_555
C1_9 H2_9 1_555 1_555
C5_9 C6_9 1_555 1_555
C8_9 C6_9 1_555 1_555
O4_9 C7_9 1_555 1_555
O9_4 C8_9 1_555 1_555
C5_9 C7_9 1_555 1_555
C5_9 H1_9 1_555 1_555
Cu6 O3_9 1_555 1_555

#END
