
###############################################################################
#
# This file contains modified crystal structure data generated from the
# MOF subset of the Cambridge Structural Database (CSD) v543 
# hosted by the Cambridge Crystallographic Data Centre (CCDC).
#
# This work is licensed under the Creative Commons
# Attribution-NonCommercial-ShareAlike 4.0 International License.
# To view a copy of this license, visit
# http://creativecommons.org/licenses/by-nc-sa/4.0/
# or send a letter to
# Creative Commons, PO Box 1866, Mountain View, CA 94042, USA.
#
# CIF created using the CSD Python API on 29 September 2022
# The structure has been converted into the P1 space group
# The structure has a 3D framework
# The original CSD entry MOHMEE22 is in the rhombohedral crystal system
# The framework has been calculated to contain at least 10.0% void space
# The void calculation uses a probe of radius 1.32A, grid spacing 0.4
# H atom positions have been added when not included in the experimental data
#
###############################################################################

data_MOHMEE22
_chemical_formula_moiety         '(C72 H18 Cu7 O44)n'
_symmetry_cell_setting           triclinic
_symmetry_space_group_name_H-M   'P 1'
_symmetry_Int_Tables_number      1
_space_group_name_Hall           'P 1'
loop_
_symmetry_equiv_pos_site_id
_symmetry_equiv_pos_as_xyz
1 x,y,z
_cell_length_a                   25.9177(3)
_cell_length_b                   25.9177(3)
_cell_length_c                   6.28164(7)
_cell_angle_alpha                90
_cell_angle_beta                 90
_cell_angle_gamma                120
_cell_volume                     3654.24
loop_
_atom_site_label
_atom_site_type_symbol
_atom_site_fract_x
_atom_site_fract_y
_atom_site_fract_z
Cu7 Cu 0.31806(7) 0.37126(5) 0.0087(2)
Cu1 Cu 0.29541(5) 0.28014(5) 0.3420(2)
O1 O 0.2519(2) 0.3075(2) 0.1706(10)
O2 O 0.2813(2) 0.3118(2) 0.6018(8)
O3 O 0.2666(4) 0.3746(2) 0.7964(10)
C1 C 0.2096(4) 0.3196(4) 0.2528(14)
C2 C 0.2575(4) 0.3445(5) 0.6319(14)
C3 C 0.1605(4) 0.3119(3) 0.1250(13)
C4 C 0.2128(4) 0.3390(4) 0.4678(16)
O4 O 0.0814(2) 0.3592(2) 0.4961(10)
O5 O 0.0520(2) 0.3549(2) 0.0649(8)
C5 C 0.1237(4) 0.3471(4) 0.4139(14)
C6 C 0.0758(4) 0.3222(5) 0.0348(14)
C7 C 0.1728(4) 0.3548(3) 0.5417(13)
C8 C 0.1205(4) 0.3277(4) 0.1989(16)
Cu4 Cu 0.01527(7) 0.29541(5) 0.6580(2)
Cu5 Cu 0.38653(5) 0.34860(7) 0.6753(2)
Cu8 Cu 0.03792(5) 0.38653(5) 0.3247(2)
O7 O 0.3592(2) 0.2777(3) 0.5039(10)
O10 O 0.3638(3) 0.3854(2) 0.2685(8)
O12 O 0.2921(2) 0.2253(4) 0.1297(10)
H1 H 0.178542 0.373534 0.700814
O6 O 0.0667(4) 0.2921(2) 0.8703(10)
O8 O 0.3889(3) 0.4148(2) 0.8373(10)
O9 O 0.3549(2) 0.3028(3) 0.9351(8)
H2 H 0.154792 0.293133 0.965853
Cu6 Cu 0.94681(5) 0.31806(7) 0.9913(2)
Cu6_2 Cu 0.37126(9) 0.05319(5) 0.9913(2)
Cu7_2 Cu 0.05319(9) 0.68194(7) 0.0087(2)
O1_2 O 0.0556(3) 0.7481(2) 0.1706(10)
O2_2 O 0.0305(3) 0.7187(2) 0.6018(8)
O3_2 O 0.1080(4) 0.7334(4) 0.7964(10)
C1_2 C 0.1100(6) 0.7904(4) 0.2528(14)
C2_2 C 0.0870(6) 0.7425(4) 0.6319(14)
C3_2 C 0.1514(5) 0.8395(4) 0.1250(13)
C4_2 C 0.1262(6) 0.7872(4) 0.4678(16)
O4_2 O 0.2777(3) 0.9186(2) 0.4961(10)
O5_2 O 0.3028(3) 0.9480(2) 0.0649(8)
C5_2 C 0.2233(6) 0.8763(4) 0.4139(14)
C6_2 C 0.2463(6) 0.9242(4) 0.0348(14)
C7_2 C 0.1819(5) 0.8272(4) 0.5417(13)
C8_2 C 0.2071(6) 0.8795(4) 0.1989(16)
Cu4_2 Cu 0.28014(9) 0.98473(7) 0.6580(2)
Cu8_2 Cu 0.34860(7) 0.96208(5) 0.3247(2)
O10_2 O 0.0215(4) 0.6362(3) 0.2685(8)
H1_2 H 0.194992 0.821458 0.700814
O6_2 O 0.2253(4) 0.9333(4) 0.8703(10)
O8_2 O 0.0258(4) 0.6111(3) 0.8373(10)
H2_2 H 0.138341 0.845208 0.965853
Cu1_2 Cu 0.98473(7) 0.70459(5) 0.3420(2)
Cu5_2 Cu 0.96208(9) 0.61347(5) 0.6753(2)
O7_2 O 0.9186(4) 0.6408(2) 0.5039(10)
O12_2 O 0.9333(4) 0.7079(2) 0.1297(10)
O9_2 O 0.9480(4) 0.6451(2) 0.9351(8)
Cu1_3 Cu 0.71986(5) 0.01527(7) 0.3420(2)
Cu5_3 Cu 0.65140(7) 0.03792(9) 0.6753(2)
O7_3 O 0.7223(3) 0.0814(4) 0.5039(10)
O12_3 O 0.7747(4) 0.0667(4) 0.1297(10)
O9_3 O 0.6972(3) 0.0520(4) 0.9351(8)
Cu7_3 Cu 0.62874(5) 0.94681(9) 0.0087(2)
O1_3 O 0.6925(2) 0.9444(3) 0.1706(10)
O2_3 O 0.6882(2) 0.9695(3) 0.6018(8)
O3_3 O 0.6254(2) 0.8920(4) 0.7964(10)
C1_3 C 0.6804(4) 0.8900(6) 0.2528(14)
C2_3 C 0.6555(5) 0.9130(6) 0.6319(14)
C3_3 C 0.6881(3) 0.8486(5) 0.1250(13)
C4_3 C 0.6610(4) 0.8738(6) 0.4678(16)
O4_3 O 0.6408(2) 0.7223(3) 0.4961(10)
O5_3 O 0.6451(2) 0.6972(3) 0.0649(8)
C5_3 C 0.6529(4) 0.7767(6) 0.4139(14)
C6_3 C 0.6778(5) 0.7537(6) 0.0348(14)
C7_3 C 0.6452(3) 0.8181(5) 0.5417(13)
C8_3 C 0.6723(4) 0.7929(6) 0.1989(16)
Cu4_3 Cu 0.70459(5) 0.71986(9) 0.6580(2)
Cu8_3 Cu 0.61347(5) 0.65140(7) 0.3247(2)
O10_3 O 0.6146(2) 0.9785(4) 0.2685(8)
H1_3 H 0.626466 0.805008 0.700814
O6_3 O 0.7079(2) 0.7747(4) 0.8703(10)
Cu6_3 Cu 0.68194(7) 0.62874(9) 0.9913(2)
O8_3 O 0.5852(2) 0.9742(4) 0.8373(10)
H2_3 H 0.706867 0.861659 0.965853
H1_4 H 0.845208 0.706867 0.034147
C1_4 C 0.8763(4) 0.6529(4) 0.5861(14)
C2_4 C 0.9242(4) 0.6778(5) 0.9652(14)
C3_4 C 0.8272(4) 0.6452(3) 0.4583(13)
C4_4 C 0.8795(4) 0.6723(4) 0.8011(16)
O4_4 O 0.7481(2) 0.6925(2) 0.8294(10)
O5_4 O 0.7187(2) 0.6882(2) 0.3982(8)
C5_4 C 0.7904(4) 0.6804(4) 0.7472(14)
C6_4 C 0.7425(4) 0.6555(5) 0.3681(14)
C7_4 C 0.8395(4) 0.6881(3) 0.8750(13)
C8_4 C 0.7872(4) 0.6610(4) 0.5322(16)
O6_4 O 0.7334(4) 0.6254(2) 0.2036(10)
O12_4 O 0.9587(2) 0.5587(4) 0.4631(10)
H2_4 H 0.821458 0.626466 0.299186
H1_5 H 0.861659 0.154792 0.034147
C1_5 C 0.7767(6) 0.1237(4) 0.5861(14)
C2_5 C 0.7537(6) 0.0758(4) 0.9652(14)
C3_5 C 0.8181(5) 0.1728(4) 0.4583(13)
C4_5 C 0.7929(6) 0.1205(4) 0.8011(16)
O4_5 O 0.9444(3) 0.2519(2) 0.8294(10)
O5_5 O 0.9695(3) 0.2813(2) 0.3982(8)
C5_5 C 0.8900(6) 0.2096(4) 0.7472(14)
C6_5 C 0.9130(6) 0.2575(4) 0.3681(14)
C7_5 C 0.8486(5) 0.1605(4) 0.8750(13)
C8_5 C 0.8738(6) 0.2128(4) 0.5322(16)
O6_5 O 0.8920(4) 0.2666(4) 0.2036(10)
O12_5 O 0.5999(4) 0.0413(2) 0.4631(10)
H2_5 H 0.805008 0.178542 0.299186
H1_6 H 0.293133 0.138341 0.034147
C1_6 C 0.3471(4) 0.2233(6) 0.5861(14)
C2_6 C 0.3222(5) 0.2463(6) 0.9652(14)
C3_6 C 0.3548(3) 0.1819(5) 0.4583(13)
C4_6 C 0.3277(4) 0.2071(6) 0.8011(16)
O4_6 O 0.3075(2) 0.0556(3) 0.8294(10)
O5_6 O 0.3118(2) 0.0305(3) 0.3982(8)
C5_6 C 0.3196(4) 0.1100(6) 0.7472(14)
C6_6 C 0.3445(5) 0.0870(6) 0.3681(14)
C7_6 C 0.3119(3) 0.1514(5) 0.8750(13)
C8_6 C 0.3390(4) 0.1262(6) 0.5322(16)
O6_6 O 0.3746(2) 0.1080(4) 0.2036(10)
O12_6 O 0.4413(4) 0.4001(4) 0.4631(10)
H2_6 H 0.373534 0.194992 0.299186
C2_7 C 0.5908(4) 0.0112(5) 0.2986(14)
C4_7 C 0.5461(4) 0.0057(4) 0.1345(16)
O4_7 O 0.4148(2) 0.0258(2) 0.1627(10)
C5_7 C 0.4571(4) 0.0137(4) 0.0805(14)
C7_7 C 0.5062(4) 0.0214(3) 0.2083(13)
H1_7 H 0.511875 0.0402005 0.36748
O5_7 O 0.3854(2) 0.0215(2) 0.7315(8)
C1_7 C 0.5429(4) 0.9863(4) 0.9195(14)
C3_7 C 0.4938(4) 0.9786(3) 0.7917(13)
C6_7 C 0.4092(4) 0.9888(5) 0.7014(14)
C8_7 C 0.4539(4) 0.9943(4) 0.8655(16)
O6_7 O 0.4001(4) 0.9587(2) 0.5369(10)
H2_7 H 0.488125 0.9598 0.63252
C2_8 C 0.4203(6) 0.4092(4) 0.2986(14)
C4_8 C 0.4595(6) 0.4539(4) 0.1345(16)
O4_8 O 0.6111(3) 0.5852(2) 0.1627(10)
C5_8 C 0.5567(6) 0.5429(4) 0.0805(14)
C7_8 C 0.5153(5) 0.4938(4) 0.2083(13)
H1_8 H 0.528325 0.488125 0.36748
C1_8 C 0.4433(6) 0.4571(4) 0.9195(14)
C3_8 C 0.4847(5) 0.5062(4) 0.7917(13)
O5_8 O 0.6362(3) 0.6146(2) 0.7315(8)
C6_8 C 0.5797(6) 0.5908(4) 0.7014(14)
C8_8 C 0.5405(6) 0.5461(4) 0.8655(16)
O6_8 O 0.5587(4) 0.5999(4) 0.5369(10)
H2_8 H 0.471675 0.511875 0.63252
C1_9 C 0.0137(4) 0.5567(6) 0.9195(14)
C3_9 C 0.0214(3) 0.5153(5) 0.7917(13)
C6_9 C 0.0112(5) 0.4203(6) 0.7014(14)
C8_9 C 0.0057(4) 0.4595(6) 0.8655(16)
O6_9 O 0.0413(2) 0.4413(4) 0.5369(10)
H2_9 H 0.0402005 0.528325 0.63252
C2_9 C 0.9888(5) 0.5797(6) 0.2986(14)
C4_9 C 0.9943(4) 0.5405(6) 0.1345(16)
O4_9 O 0.9742(2) 0.3889(3) 0.1627(10)
C5_9 C 0.9863(4) 0.4433(6) 0.0805(14)
C7_9 C 0.9786(3) 0.4847(5) 0.2083(13)
H1_9 H 0.9598 0.471675 0.36748
O5_9 O 0.9785(2) 0.3638(3) 0.7315(8)
loop_
_geom_bond_atom_site_label_1
_geom_bond_atom_site_label_2
_geom_bond_site_symmetry_1
_geom_bond_site_symmetry_2
Cu1 O1 1_555 1_555
O1 C1 1_555 1_555
O2 Cu1 1_555 1_555
O3 C2 1_555 1_555
C1 C3 1_555 1_555
C2 O2 1_555 1_555
C3 C8 1_555 1_555
C4 C1 1_555 1_555
O4 C5 1_555 1_555
O5 C6 1_555 1_555
C5 C7 1_555 1_555
C6 C8 1_555 1_555
C7 C4 1_555 1_555
C8 C5 1_555 1_555
Cu7 O1 1_555 1_555
Cu4 O4 1_555 1_555
Cu5 O2 1_555 1_555
Cu8 O4 1_555 1_555
O7 Cu1 1_555 1_555
O10 Cu1 1_555 1_555
O12 Cu1 1_555 1_555
C2 C4 1_555 1_555
O5 Cu8 1_555 1_555
Cu7 O10 1_555 1_555
Cu5 O7 1_555 1_555
C7 H1 1_555 1_555
Cu4 O6 1_555 1_555
O1_2 C1_2 1_555 1_555
O3_2 C2_2 1_555 1_555
C1_2 C3_2 1_555 1_555
C2_2 O2_2 1_555 1_555
C3_2 C8_2 1_555 1_555
C4_2 C1_2 1_555 1_555
O4_2 C5_2 1_555 1_555
O5_2 C6_2 1_555 1_555
C5_2 C7_2 1_555 1_555
C6_2 C8_2 1_555 1_555
C7_2 C4_2 1_555 1_555
C8_2 C5_2 1_555 1_555
Cu7_2 O1_2 1_555 1_555
Cu4_2 O4_2 1_555 1_555
Cu8_2 O4_2 1_555 1_555
C2_2 C4_2 1_555 1_555
O5_2 Cu8_2 1_555 1_555
Cu7_2 O10_2 1_555 1_555
C7_2 H1_2 1_555 1_555
Cu4_2 O6_2 1_555 1_555
O7_2 Cu1_2 1_555 1_555
O12_2 Cu1_2 1_555 1_555
Cu5_2 O7_2 1_555 1_555
O7_3 Cu1_3 1_555 1_555
O12_3 Cu1_3 1_555 1_555
Cu5_3 O7_3 1_555 1_555
O1_3 C1_3 1_555 1_555
O3_3 C2_3 1_555 1_555
C1_3 C3_3 1_555 1_555
C2_3 O2_3 1_555 1_555
C3_3 C8_3 1_555 1_555
C4_3 C1_3 1_555 1_555
O4_3 C5_3 1_555 1_555
O5_3 C6_3 1_555 1_555
C5_3 C7_3 1_555 1_555
C6_3 C8_3 1_555 1_555
C7_3 C4_3 1_555 1_555
C8_3 C5_3 1_555 1_555
Cu7_3 O1_3 1_555 1_555
Cu4_3 O4_3 1_555 1_555
Cu8_3 O4_3 1_555 1_555
C2_3 C4_3 1_555 1_555
O5_3 Cu8_3 1_555 1_555
Cu7_3 O10_3 1_555 1_555
C7_3 H1_3 1_555 1_555
Cu4_3 O6_3 1_555 1_555
O7_2 C1_4 1_555 1_555
O9_2 Cu5_2 1_555 1_555
C1_4 C3_4 1_555 1_555
C2_4 O9_2 1_555 1_555
C3_4 C8_4 1_555 1_555
C4_4 C1_4 1_555 1_555
O4_4 C5_4 1_555 1_555
O5_4 C6_4 1_555 1_555
C5_4 C7_4 1_555 1_555
C6_4 C8_4 1_555 1_555
C7_4 C4_4 1_555 1_555
C8_4 C5_4 1_555 1_555
O6_4 C6_4 1_555 1_555
Cu6_3 O4_4 1_555 1_555
Cu8_3 O5_4 1_555 1_555
Cu4_3 O4_4 1_555 1_555
O12_4 Cu5_2 1_555 1_555
C2_4 C4_4 1_555 1_555
O5_4 Cu4_3 1_555 1_555
C3_4 H2_4 1_555 1_555
O7_3 C1_5 1_555 1_555
O9_3 Cu5_3 1_555 1_555
C1_5 C3_5 1_555 1_555
C2_5 O9_3 1_555 1_555
C3_5 C8_5 1_555 1_555
C4_5 C1_5 1_555 1_555
O4_5 C5_5 1_555 1_555
O5_5 C6_5 1_555 1_555
C5_5 C7_5 1_555 1_555
C6_5 C8_5 1_555 1_555
C7_5 C4_5 1_555 1_555
C8_5 C5_5 1_555 1_555
O6_5 C6_5 1_555 1_555
Cu6 O4_5 1_555 1_555
O12_5 Cu5_3 1_555 1_555
C2_5 C4_5 1_555 1_555
C3_5 H2_5 1_555 1_555
O7 C1_6 1_555 1_555
O9 Cu5 1_555 1_555
C1_6 C3_6 1_555 1_555
C2_6 O9 1_555 1_555
C3_6 C8_6 1_555 1_555
C4_6 C1_6 1_555 1_555
O4_6 C5_6 1_555 1_555
O5_6 C6_6 1_555 1_555
C5_6 C7_6 1_555 1_555
C6_6 C8_6 1_555 1_555
C7_6 C4_6 1_555 1_555
C8_6 C5_6 1_555 1_555
O6_6 C6_6 1_555 1_555
Cu6_2 O4_6 1_555 1_555
O8 Cu5 1_555 1_555
O12_6 Cu5 1_555 1_555
C2_6 C4_6 1_555 1_555
C3_6 H2_6 1_555 1_555
O12_5 C2_7 1_555 1_555
O4_7 C5_7 1_555 1_555
C5_7 C7_7 1_555 1_555
C7_7 C4_7 1_555 1_555
C2_7 C4_7 1_555 1_555
C7_7 H1_7 1_555 1_555
O5_7 Cu6_2 1_555 1_555
O8_3 C1_7 1_555 1_555
C1_7 C3_7 1_555 1_555
C3_7 C8_7 1_555 1_555
C6_7 C8_7 1_555 1_555
O6_7 C6_7 1_555 1_555
Cu8_2 O6_7 1_555 1_555
C3_7 H2_7 1_555 1_555
O12_6 C2_8 1_555 1_555
C2_8 O10 1_555 1_555
O4_8 C5_8 1_555 1_555
C5_8 C7_8 1_555 1_555
C7_8 C4_8 1_555 1_555
Cu8_3 O4_8 1_555 1_555
C2_8 C4_8 1_555 1_555
C7_8 H1_8 1_555 1_555
O8 C1_8 1_555 1_555
C1_8 C3_8 1_555 1_555
C3_8 C8_8 1_555 1_555
O5_8 C6_8 1_555 1_555
C6_8 C8_8 1_555 1_555
O6_8 C6_8 1_555 1_555
Cu8_3 O6_8 1_555 1_555
Cu4_3 O5_8 1_555 1_555
O5_8 Cu6_3 1_555 1_555
C3_8 H2_8 1_555 1_555
O8_2 C1_9 1_555 1_555
C1_9 C3_9 1_555 1_555
C3_9 C8_9 1_555 1_555
C6_9 C8_9 1_555 1_555
O6_9 C6_9 1_555 1_555
Cu8 O6_9 1_555 1_555
C3_9 H2_9 1_555 1_555
O12_4 C2_9 1_555 1_555
O4_9 C5_9 1_555 1_555
C5_9 C7_9 1_555 1_555
C7_9 C4_9 1_555 1_555
C2_9 C4_9 1_555 1_555
C7_9 H1_9 1_555 1_555
O5_9 Cu6 1_555 1_555

#END
