
###############################################################################
#
# This file contains modified crystal structure data generated from the
# MOF subset of the Cambridge Structural Database (CSD) v543 
# hosted by the Cambridge Crystallographic Data Centre (CCDC).
#
# This work is licensed under the Creative Commons
# Attribution-NonCommercial-ShareAlike 4.0 International License.
# To view a copy of this license, visit
# http://creativecommons.org/licenses/by-nc-sa/4.0/
# or send a letter to
# Creative Commons, PO Box 1866, Mountain View, CA 94042, USA.
#
# CIF created using the CSD Python API on 29 September 2022
# The structure has been converted into the P1 space group
# The structure has a 3D framework
# The original CSD entry MOHMEE07 is in the rhombohedral crystal system
# The framework has been calculated to contain at least 10.0% void space
# The void calculation uses a probe of radius 1.32A, grid spacing 0.4
# H atom positions have been added when not included in the experimental data
#
###############################################################################

data_MOHMEE07
_chemical_formula_moiety         '(C72 H18 Cu7 O44)n'
_symmetry_cell_setting           triclinic
_symmetry_space_group_name_H-M   'P 1'
_symmetry_Int_Tables_number      1
_space_group_name_Hall           'P 1'
loop_
_symmetry_equiv_pos_site_id
_symmetry_equiv_pos_as_xyz
1 x,y,z
_cell_length_a                   25.9172(3)
_cell_length_b                   25.9172(3)
_cell_length_c                   6.28106(7)
_cell_angle_alpha                90
_cell_angle_beta                 90
_cell_angle_gamma                120
_cell_volume                     3653.76
loop_
_atom_site_label
_atom_site_type_symbol
_atom_site_fract_x
_atom_site_fract_y
_atom_site_fract_z
Cu7 Cu 0.31807(7) 0.37126(5) 0.0087(2)
Cu1 Cu 0.29541(5) 0.28015(5) 0.3420(2)
C1 C 0.1606(4) 0.3121(3) 0.1253(13)
C2 C 0.1204(4) 0.3276(4) 0.1987(16)
C3 C 0.2095(4) 0.3193(4) 0.2532(13)
C4 C 0.0758(4) 0.3221(5) 0.0346(14)
O1 O 0.2519(2) 0.3075(2) 0.1707(10)
O3 O 0.0520(2) 0.3549(2) 0.0649(8)
C5 C 0.1727(4) 0.3546(3) 0.5414(13)
C6 C 0.2129(4) 0.3391(4) 0.4680(16)
C7 C 0.1238(4) 0.3474(4) 0.4135(13)
C8 C 0.2575(4) 0.3446(5) 0.6321(14)
O4 O 0.0814(2) 0.3592(2) 0.4960(10)
O5 O 0.2667(2) 0.3746(2) 0.7966(10)
O6 O 0.2813(2) 0.3118(2) 0.6018(8)
Cu4 Cu 0.01526(7) 0.29541(5) 0.6580(2)
Cu5 Cu 0.38652(5) 0.34859(7) 0.6753(2)
Cu8 Cu 0.03792(5) 0.38652(5) 0.3247(2)
O7 O 0.3592(2) 0.2777(3) 0.5040(10)
O9 O 0.2921(2) 0.2255(3) 0.1299(10)
O12 O 0.3638(3) 0.3853(2) 0.2684(8)
H2 H 0.178125 0.372846 0.701224
O2 O 0.0666(2) 0.2921(2) 0.8701(10)
O8 O 0.3889(3) 0.4148(2) 0.8374(10)
O11 O 0.3549(2) 0.3029(3) 0.9351(8)
H1 H 0.155208 0.293821 0.965443
Cu6 Cu 0.94682(5) 0.31807(7) 0.9913(2)
Cu6_2 Cu 0.37126(9) 0.05318(5) 0.9913(2)
Cu7_2 Cu 0.05318(9) 0.68193(7) 0.0087(2)
C1_2 C 0.1515(5) 0.8394(4) 0.1253(13)
C2_2 C 0.2072(6) 0.8796(4) 0.1987(16)
C3_2 C 0.1098(6) 0.7905(4) 0.2532(13)
C4_2 C 0.2463(6) 0.9242(4) 0.0346(14)
O1_2 O 0.0556(3) 0.7481(2) 0.1707(10)
O3_2 O 0.3029(3) 0.9480(2) 0.0649(8)
C5_2 C 0.1818(5) 0.8273(4) 0.5414(13)
C6_2 C 0.1261(6) 0.7871(4) 0.4680(16)
C7_2 C 0.2235(6) 0.8762(4) 0.4135(13)
C8_2 C 0.0870(6) 0.7425(4) 0.6321(14)
O4_2 O 0.2777(3) 0.9186(2) 0.4960(10)
O5_2 O 0.1078(3) 0.7333(2) 0.7966(10)
O6_2 O 0.0304(3) 0.7187(2) 0.6018(8)
Cu4_2 Cu 0.28015(9) 0.98474(7) 0.6580(2)
Cu8_2 Cu 0.34859(7) 0.96208(5) 0.3247(2)
O12_2 O 0.0216(4) 0.6362(3) 0.2684(8)
H2_2 H 0.194721 0.821875 0.701224
O2_2 O 0.2255(3) 0.9334(2) 0.8701(10)
O8_2 O 0.0258(4) 0.6111(3) 0.8374(10)
H1_2 H 0.138612 0.844792 0.965443
Cu1_2 Cu 0.98474(7) 0.70459(5) 0.3420(2)
Cu5_2 Cu 0.96208(9) 0.61348(5) 0.6753(2)
O7_2 O 0.9186(4) 0.6408(2) 0.5040(10)
O9_2 O 0.9334(4) 0.7079(2) 0.1299(10)
O11_2 O 0.9480(4) 0.6451(2) 0.9351(8)
Cu1_3 Cu 0.71985(5) 0.01526(7) 0.3420(2)
Cu5_3 Cu 0.65141(7) 0.03792(9) 0.6753(2)
O7_3 O 0.7223(3) 0.0814(4) 0.5040(10)
O9_3 O 0.7745(3) 0.0666(4) 0.1299(10)
O11_3 O 0.6971(3) 0.0520(4) 0.9351(8)
Cu7_3 Cu 0.62874(5) 0.94682(9) 0.0087(2)
C1_3 C 0.6879(3) 0.8485(5) 0.1253(13)
C2_3 C 0.6724(4) 0.7928(6) 0.1987(16)
C3_3 C 0.6807(4) 0.8902(6) 0.2532(13)
C4_3 C 0.6779(5) 0.7537(6) 0.0346(14)
O1_3 O 0.6925(2) 0.9444(3) 0.1707(10)
O3_3 O 0.6451(2) 0.6971(3) 0.0649(8)
C5_3 C 0.6454(3) 0.8182(5) 0.5414(13)
C6_3 C 0.6609(4) 0.8739(6) 0.4680(16)
C7_3 C 0.6526(4) 0.7765(6) 0.4135(13)
C8_3 C 0.6554(5) 0.9130(6) 0.6321(14)
O4_3 O 0.6408(2) 0.7223(3) 0.4960(10)
O5_3 O 0.6254(2) 0.8922(3) 0.7966(10)
O6_3 O 0.6882(2) 0.9696(3) 0.6018(8)
Cu4_3 Cu 0.70459(5) 0.71985(9) 0.6580(2)
Cu8_3 Cu 0.61348(5) 0.65141(7) 0.3247(2)
O12_3 O 0.6147(2) 0.9784(4) 0.2684(8)
H2_3 H 0.627154 0.805279 0.701224
O2_3 O 0.7079(2) 0.7745(3) 0.8701(10)
Cu6_3 Cu 0.68193(7) 0.62874(9) 0.9913(2)
O8_3 O 0.5852(2) 0.9742(4) 0.8374(10)
H1_3 H 0.706179 0.861388 0.965443
H2_4 H 0.844792 0.706179 0.0345569
C1_4 C 0.8273(4) 0.6454(3) 0.4586(13)
C2_4 C 0.7871(4) 0.6609(4) 0.5320(16)
C3_4 C 0.8762(4) 0.6526(4) 0.5865(13)
C4_4 C 0.7425(4) 0.6554(5) 0.3679(14)
O2_4 O 0.7333(2) 0.6254(2) 0.2034(10)
O3_4 O 0.7187(2) 0.6882(2) 0.3982(8)
C5_4 C 0.8394(4) 0.6879(3) 0.8747(13)
C6_4 C 0.8796(4) 0.6724(4) 0.8013(16)
C7_4 C 0.7905(4) 0.6807(4) 0.7468(13)
C8_4 C 0.9242(4) 0.6779(5) 0.9654(14)
O4_4 O 0.7481(2) 0.6925(2) 0.8293(10)
O9_4 O 0.9588(2) 0.5588(3) 0.4632(10)
H1_4 H 0.821875 0.627154 0.298776
H2_5 H 0.861388 0.155208 0.0345569
C1_5 C 0.8182(5) 0.1727(4) 0.4586(13)
C2_5 C 0.8739(6) 0.2129(4) 0.5320(16)
C3_5 C 0.7765(6) 0.1238(4) 0.5865(13)
C4_5 C 0.9130(6) 0.2575(4) 0.3679(14)
O2_5 O 0.8922(3) 0.2667(2) 0.2034(10)
O3_5 O 0.9696(3) 0.2813(2) 0.3982(8)
C5_5 C 0.8485(5) 0.1606(4) 0.8747(13)
C6_5 C 0.7928(6) 0.1204(4) 0.8013(16)
C7_5 C 0.8902(6) 0.2095(4) 0.7468(13)
C8_5 C 0.7537(6) 0.0758(4) 0.9654(14)
O4_5 O 0.9444(3) 0.2519(2) 0.8293(10)
O9_5 O 0.6001(4) 0.0412(2) 0.4632(10)
H1_5 H 0.805279 0.178125 0.298776
H2_6 H 0.293821 0.138612 0.0345569
C1_6 C 0.3546(3) 0.1818(5) 0.4586(13)
C2_6 C 0.3391(4) 0.1261(6) 0.5320(16)
C3_6 C 0.3474(4) 0.2235(6) 0.5865(13)
C4_6 C 0.3446(5) 0.0870(6) 0.3679(14)
O2_6 O 0.3746(2) 0.1078(3) 0.2034(10)
O3_6 O 0.3118(2) 0.0304(3) 0.3982(8)
C5_6 C 0.3121(3) 0.1515(5) 0.8747(13)
C6_6 C 0.3276(4) 0.2072(6) 0.8013(16)
C7_6 C 0.3193(4) 0.1098(6) 0.7468(13)
C8_6 C 0.3221(5) 0.2463(6) 0.9654(14)
O4_6 O 0.3075(2) 0.0556(3) 0.8293(10)
O9_6 O 0.4412(3) 0.3999(4) 0.4632(10)
H1_6 H 0.372846 0.194721 0.298776
C5_7 C 0.5061(4) 0.0212(3) 0.2080(13)
C6_7 C 0.5463(4) 0.0057(4) 0.1346(16)
C7_7 C 0.4572(4) 0.0140(4) 0.0801(13)
C8_7 C 0.5909(4) 0.0112(5) 0.2987(14)
O4_7 O 0.4148(2) 0.0258(2) 0.1626(10)
H2_7 H 0.511458 0.0395126 0.36789
O3_7 O 0.3853(2) 0.0216(2) 0.7316(8)
C1_7 C 0.4939(4) 0.9788(3) 0.7920(13)
C2_7 C 0.4537(4) 0.9943(4) 0.8654(16)
C3_7 C 0.5428(4) 0.9860(4) 0.9199(13)
C4_7 C 0.4091(4) 0.9888(5) 0.7013(14)
O2_7 O 0.3999(2) 0.9588(2) 0.5368(10)
H1_7 H 0.488542 0.960487 0.63211
C5_8 C 0.5152(5) 0.4939(4) 0.2080(13)
C6_8 C 0.4595(6) 0.4537(4) 0.1346(16)
C7_8 C 0.5569(6) 0.5428(4) 0.0801(13)
C8_8 C 0.4204(6) 0.4091(4) 0.2987(14)
O4_8 O 0.6111(3) 0.5852(2) 0.1626(10)
H2_8 H 0.528054 0.488542 0.36789
C1_8 C 0.4848(5) 0.5061(4) 0.7920(13)
C2_8 C 0.5405(6) 0.5463(4) 0.8654(16)
C3_8 C 0.4431(6) 0.4572(4) 0.9199(13)
C4_8 C 0.5796(6) 0.5909(4) 0.7013(14)
O2_8 O 0.5588(3) 0.6001(2) 0.5368(10)
O3_8 O 0.6362(3) 0.6147(2) 0.7316(8)
H1_8 H 0.471946 0.511458 0.63211
C1_9 C 0.0212(3) 0.5152(5) 0.7920(13)
C2_9 C 0.0057(4) 0.4595(6) 0.8654(16)
C3_9 C 0.0140(4) 0.5569(6) 0.9199(13)
C4_9 C 0.0112(5) 0.4204(6) 0.7013(14)
O2_9 O 0.0412(2) 0.4412(3) 0.5368(10)
H1_9 H 0.0395126 0.528054 0.63211
C5_9 C 0.9788(3) 0.4848(5) 0.2080(13)
C6_9 C 0.9943(4) 0.5405(6) 0.1346(16)
C7_9 C 0.9860(4) 0.4431(6) 0.0801(13)
C8_9 C 0.9888(5) 0.5796(6) 0.2987(14)
O4_9 O 0.9742(2) 0.3889(3) 0.1626(10)
H2_9 H 0.960487 0.471946 0.36789
O3_9 O 0.9784(2) 0.3638(3) 0.7316(8)
loop_
_geom_bond_atom_site_label_1
_geom_bond_atom_site_label_2
_geom_bond_site_symmetry_1
_geom_bond_site_symmetry_2
Cu1 O1 1_555 1_555
C1 C2 1_555 1_555
C2 C4 1_555 1_555
C3 C1 1_555 1_555
O1 C3 1_555 1_555
O3 C4 1_555 1_555
C5 C6 1_555 1_555
C6 C3 1_555 1_555
C7 C2 1_555 1_555
C8 C6 1_555 1_555
O4 C7 1_555 1_555
O5 C8 1_555 1_555
O6 Cu1 1_555 1_555
Cu7 O1 1_555 1_555
Cu4 O4 1_555 1_555
Cu5 O6 1_555 1_555
Cu8 O3 1_555 1_555
O7 Cu1 1_555 1_555
O9 Cu1 1_555 1_555
O12 Cu1 1_555 1_555
C5 C7 1_555 1_555
C8 O6 1_555 1_555
O4 Cu8 1_555 1_555
Cu7 O12 1_555 1_555
Cu5 O7 1_555 1_555
C5 H2 1_555 1_555
O2 Cu4 1_555 1_555
C1_2 C2_2 1_555 1_555
C2_2 C4_2 1_555 1_555
C3_2 C1_2 1_555 1_555
O1_2 C3_2 1_555 1_555
O3_2 C4_2 1_555 1_555
C5_2 C6_2 1_555 1_555
C6_2 C3_2 1_555 1_555
C7_2 C2_2 1_555 1_555
C8_2 C6_2 1_555 1_555
O4_2 C7_2 1_555 1_555
O5_2 C8_2 1_555 1_555
Cu7_2 O1_2 1_555 1_555
Cu4_2 O4_2 1_555 1_555
Cu8_2 O3_2 1_555 1_555
C5_2 C7_2 1_555 1_555
C8_2 O6_2 1_555 1_555
O4_2 Cu8_2 1_555 1_555
Cu7_2 O12_2 1_555 1_555
C5_2 H2_2 1_555 1_555
O2_2 Cu4_2 1_555 1_555
O7_2 Cu1_2 1_555 1_555
O9_2 Cu1_2 1_555 1_555
Cu5_2 O7_2 1_555 1_555
O7_3 Cu1_3 1_555 1_555
O9_3 Cu1_3 1_555 1_555
Cu5_3 O7_3 1_555 1_555
C1_3 C2_3 1_555 1_555
C2_3 C4_3 1_555 1_555
C3_3 C1_3 1_555 1_555
O1_3 C3_3 1_555 1_555
O3_3 C4_3 1_555 1_555
C5_3 C6_3 1_555 1_555
C6_3 C3_3 1_555 1_555
C7_3 C2_3 1_555 1_555
C8_3 C6_3 1_555 1_555
O4_3 C7_3 1_555 1_555
O5_3 C8_3 1_555 1_555
Cu7_3 O1_3 1_555 1_555
Cu4_3 O4_3 1_555 1_555
Cu8_3 O3_3 1_555 1_555
C5_3 C7_3 1_555 1_555
C8_3 O6_3 1_555 1_555
O4_3 Cu8_3 1_555 1_555
Cu7_3 O12_3 1_555 1_555
C5_3 H2_3 1_555 1_555
O2_3 Cu4_3 1_555 1_555
C1_4 C2_4 1_555 1_555
C2_4 C4_4 1_555 1_555
C3_4 C1_4 1_555 1_555
C4_4 O2_4 1_555 1_555
O7_2 C3_4 1_555 1_555
O3_4 C4_4 1_555 1_555
C5_4 C6_4 1_555 1_555
C6_4 C3_4 1_555 1_555
C7_4 C2_4 1_555 1_555
C8_4 C6_4 1_555 1_555
O4_4 C7_4 1_555 1_555
O11_2 Cu5_2 1_555 1_555
Cu6_3 O4_4 1_555 1_555
Cu8_3 O3_4 1_555 1_555
Cu4_3 O3_4 1_555 1_555
O9_4 Cu5_2 1_555 1_555
C5_4 C7_4 1_555 1_555
C8_4 O11_2 1_555 1_555
O4_4 Cu4_3 1_555 1_555
C1_4 H1_4 1_555 1_555
C1_5 C2_5 1_555 1_555
C2_5 C4_5 1_555 1_555
C3_5 C1_5 1_555 1_555
C4_5 O2_5 1_555 1_555
O7_3 C3_5 1_555 1_555
O3_5 C4_5 1_555 1_555
C5_5 C6_5 1_555 1_555
C6_5 C3_5 1_555 1_555
C7_5 C2_5 1_555 1_555
C8_5 C6_5 1_555 1_555
O4_5 C7_5 1_555 1_555
O11_3 Cu5_3 1_555 1_555
Cu6 O4_5 1_555 1_555
O9_5 Cu5_3 1_555 1_555
C5_5 C7_5 1_555 1_555
C8_5 O11_3 1_555 1_555
C1_5 H1_5 1_555 1_555
C1_6 C2_6 1_555 1_555
C2_6 C4_6 1_555 1_555
C3_6 C1_6 1_555 1_555
C4_6 O2_6 1_555 1_555
O7 C3_6 1_555 1_555
O3_6 C4_6 1_555 1_555
C5_6 C6_6 1_555 1_555
C6_6 C3_6 1_555 1_555
C7_6 C2_6 1_555 1_555
C8_6 C6_6 1_555 1_555
O4_6 C7_6 1_555 1_555
O11 Cu5 1_555 1_555
Cu6_2 O4_6 1_555 1_555
O8 Cu5 1_555 1_555
O9_6 Cu5 1_555 1_555
C5_6 C7_6 1_555 1_555
C8_6 O11 1_555 1_555
C1_6 H1_6 1_555 1_555
C5_7 C6_7 1_555 1_555
C8_7 C6_7 1_555 1_555
O4_7 C7_7 1_555 1_555
O9_5 C8_7 1_555 1_555
C5_7 C7_7 1_555 1_555
C5_7 H2_7 1_555 1_555
Cu6_2 O3_7 1_555 1_555
C1_7 C2_7 1_555 1_555
C2_7 C4_7 1_555 1_555
C3_7 C1_7 1_555 1_555
C4_7 O2_7 1_555 1_555
O8_3 C3_7 1_555 1_555
O2_7 Cu8_2 1_555 1_555
C1_7 H1_7 1_555 1_555
C5_8 C6_8 1_555 1_555
C8_8 C6_8 1_555 1_555
O4_8 C7_8 1_555 1_555
O9_6 C8_8 1_555 1_555
Cu8_3 O4_8 1_555 1_555
C5_8 C7_8 1_555 1_555
C8_8 O12 1_555 1_555
C5_8 H2_8 1_555 1_555
C1_8 C2_8 1_555 1_555
C2_8 C4_8 1_555 1_555
C3_8 C1_8 1_555 1_555
C4_8 O2_8 1_555 1_555
O8 C3_8 1_555 1_555
O2_8 Cu8_3 1_555 1_555
O3_8 C4_8 1_555 1_555
Cu4_3 O3_8 1_555 1_555
Cu6_3 O3_8 1_555 1_555
C1_8 H1_8 1_555 1_555
C1_9 C2_9 1_555 1_555
C2_9 C4_9 1_555 1_555
C3_9 C1_9 1_555 1_555
C4_9 O2_9 1_555 1_555
O8_2 C3_9 1_555 1_555
O2_9 Cu8 1_555 1_555
C1_9 H1_9 1_555 1_555
C5_9 C6_9 1_555 1_555
C8_9 C6_9 1_555 1_555
O4_9 C7_9 1_555 1_555
O9_4 C8_9 1_555 1_555
C5_9 C7_9 1_555 1_555
C5_9 H2_9 1_555 1_555
Cu6 O3_9 1_555 1_555

#END
