
###############################################################################
#
# This file contains modified crystal structure data generated from the
# MOF subset of the Cambridge Structural Database (CSD) v543 
# hosted by the Cambridge Crystallographic Data Centre (CCDC).
#
# This work is licensed under the Creative Commons
# Attribution-NonCommercial-ShareAlike 4.0 International License.
# To view a copy of this license, visit
# http://creativecommons.org/licenses/by-nc-sa/4.0/
# or send a letter to
# Creative Commons, PO Box 1866, Mountain View, CA 94042, USA.
#
# CIF created using the CSD Python API on 29 September 2022
# The structure has been converted into the P1 space group
# The structure has a 3D framework
# The original CSD entry MOHMEE14 is in the rhombohedral crystal system
# The framework has been calculated to contain at least 10.0% void space
# The void calculation uses a probe of radius 1.32A, grid spacing 0.4
# H atom positions have been added when not included in the experimental data
#
###############################################################################

data_MOHMEE14
_chemical_formula_moiety         '(C72 H18 Cu7 O44)n'
_symmetry_cell_setting           triclinic
_symmetry_space_group_name_H-M   'P 1'
_symmetry_Int_Tables_number      1
_space_group_name_Hall           'P 1'
loop_
_symmetry_equiv_pos_site_id
_symmetry_equiv_pos_as_xyz
1 x,y,z
_cell_length_a                   25.9175(3)
_cell_length_b                   25.9175(3)
_cell_length_c                   6.28133(7)
_cell_angle_alpha                90
_cell_angle_beta                 90
_cell_angle_gamma                120
_cell_volume                     3654
loop_
_atom_site_label
_atom_site_type_symbol
_atom_site_fract_x
_atom_site_fract_y
_atom_site_fract_z
Cu7 Cu 0.31806(7) 0.37126(5) 0.0086(2)
Cu1 Cu 0.29541(5) 0.28014(5) 0.3419(2)
C1 C 0.1605(4) 0.3120(3) 0.1257(13)
C2 C 0.1204(4) 0.3277(4) 0.1986(16)
C3 C 0.2096(4) 0.3194(4) 0.2527(14)
C4 C 0.0758(4) 0.3222(5) 0.0346(14)
O1 O 0.2518(2) 0.3074(2) 0.1709(10)
O3 O 0.0520(2) 0.3549(2) 0.0650(8)
C5 C 0.1728(4) 0.3547(3) 0.5410(13)
C6 C 0.2129(4) 0.3390(4) 0.4681(16)
C7 C 0.1237(4) 0.3473(4) 0.4140(14)
C8 C 0.2575(4) 0.3445(5) 0.6321(14)
O4 O 0.0815(2) 0.3593(2) 0.4958(10)
O5 O 0.2667(2) 0.3745(2) 0.7964(10)
O6 O 0.2813(2) 0.3118(2) 0.6017(8)
Cu4 Cu 0.01527(7) 0.29541(5) 0.6581(2)
Cu5 Cu 0.38653(5) 0.34860(7) 0.6752(2)
Cu8 Cu 0.03792(5) 0.38653(5) 0.3248(2)
O7 O 0.3593(2) 0.2777(3) 0.5042(10)
O9 O 0.2922(2) 0.2256(3) 0.1297(10)
O12 O 0.3638(3) 0.3853(2) 0.2683(8)
H2 H 0.178498 0.37333 0.700281
O2 O 0.0666(2) 0.2922(2) 0.8703(10)
O8 O 0.3889(3) 0.4149(2) 0.8376(10)
O11 O 0.3549(2) 0.3029(3) 0.9350(8)
H1 H 0.154835 0.293337 0.966385
Cu6 Cu 0.94681(5) 0.31806(7) 0.9914(2)
Cu6_2 Cu 0.37126(9) 0.05319(5) 0.9914(2)
Cu7_2 Cu 0.05319(9) 0.68194(7) 0.0086(2)
C1_2 C 0.1515(5) 0.8395(4) 0.1257(13)
C2_2 C 0.2073(6) 0.8796(4) 0.1986(16)
C3_2 C 0.1098(6) 0.7904(4) 0.2527(14)
C4_2 C 0.2464(6) 0.9242(4) 0.0346(14)
O1_2 O 0.0556(3) 0.7482(2) 0.1709(10)
O3_2 O 0.3029(3) 0.9480(2) 0.0650(8)
C5_2 C 0.1818(5) 0.8272(4) 0.5410(13)
C6_2 C 0.1260(6) 0.7871(4) 0.4681(16)
C7_2 C 0.2235(6) 0.8763(4) 0.4140(14)
C8_2 C 0.0869(6) 0.7425(4) 0.6321(14)
O4_2 O 0.2777(3) 0.9185(2) 0.4958(10)
O5_2 O 0.1077(3) 0.7333(2) 0.7964(10)
O6_2 O 0.0304(3) 0.7187(2) 0.6017(8)
Cu4_2 Cu 0.28014(9) 0.98473(7) 0.6581(2)
Cu8_2 Cu 0.34860(7) 0.96208(5) 0.3248(2)
O12_2 O 0.0216(4) 0.6362(3) 0.2683(8)
H2_2 H 0.194832 0.821502 0.700281
O2_2 O 0.2256(3) 0.9334(2) 0.8703(10)
O8_2 O 0.0259(4) 0.6111(3) 0.8376(10)
H1_2 H 0.138502 0.845165 0.966385
Cu1_2 Cu 0.98473(7) 0.70459(5) 0.3419(2)
Cu5_2 Cu 0.96208(9) 0.61347(5) 0.6752(2)
O7_2 O 0.9185(4) 0.6407(2) 0.5042(10)
O9_2 O 0.9334(4) 0.7078(2) 0.1297(10)
O11_2 O 0.9480(4) 0.6451(2) 0.9350(8)
Cu1_3 Cu 0.71986(5) 0.01527(7) 0.3419(2)
Cu5_3 Cu 0.65140(7) 0.03792(9) 0.6752(2)
O7_3 O 0.7223(3) 0.0815(4) 0.5042(10)
O9_3 O 0.7744(3) 0.0666(4) 0.1297(10)
O11_3 O 0.6971(3) 0.0520(4) 0.9350(8)
Cu7_3 Cu 0.62874(5) 0.94681(9) 0.0086(2)
C1_3 C 0.6880(3) 0.8485(5) 0.1257(13)
C2_3 C 0.6723(4) 0.7927(6) 0.1986(16)
C3_3 C 0.6806(4) 0.8902(6) 0.2527(14)
C4_3 C 0.6778(5) 0.7536(6) 0.0346(14)
O1_3 O 0.6926(2) 0.9444(3) 0.1709(10)
O3_3 O 0.6451(2) 0.6971(3) 0.0650(8)
C5_3 C 0.6453(3) 0.8182(5) 0.5410(13)
C6_3 C 0.6610(4) 0.8740(6) 0.4681(16)
C7_3 C 0.6527(4) 0.7765(6) 0.4140(14)
C8_3 C 0.6555(5) 0.9131(6) 0.6321(14)
O4_3 O 0.6407(2) 0.7223(3) 0.4958(10)
O5_3 O 0.6255(2) 0.8923(3) 0.7964(10)
O6_3 O 0.6882(2) 0.9696(3) 0.6017(8)
Cu4_3 Cu 0.70459(5) 0.71986(9) 0.6581(2)
Cu8_3 Cu 0.61347(5) 0.65140(7) 0.3248(2)
O12_3 O 0.6147(2) 0.9784(4) 0.2683(8)
H2_3 H 0.62667 0.805168 0.700281
O2_3 O 0.7078(2) 0.7744(3) 0.8703(10)
Cu6_3 Cu 0.68194(7) 0.62874(9) 0.9914(2)
O8_3 O 0.5851(2) 0.9741(4) 0.8376(10)
H1_3 H 0.706663 0.861498 0.966385
H2_4 H 0.845165 0.706663 0.0336146
C1_4 C 0.8272(4) 0.6453(3) 0.4590(13)
C2_4 C 0.7871(4) 0.6610(4) 0.5319(16)
C3_4 C 0.8763(4) 0.6527(4) 0.5860(14)
C4_4 C 0.7425(4) 0.6555(5) 0.3679(14)
O2_4 O 0.7333(2) 0.6255(2) 0.2036(10)
O3_4 O 0.7187(2) 0.6882(2) 0.3983(8)
C5_4 C 0.8395(4) 0.6880(3) 0.8743(13)
C6_4 C 0.8796(4) 0.6723(4) 0.8014(16)
C7_4 C 0.7904(4) 0.6806(4) 0.7473(14)
C8_4 C 0.9242(4) 0.6778(5) 0.9654(14)
O4_4 O 0.7482(2) 0.6926(2) 0.8291(10)
O9_4 O 0.9589(2) 0.5589(3) 0.4630(10)
H1_4 H 0.821502 0.62667 0.299719
H2_5 H 0.861498 0.154835 0.0336146
C1_5 C 0.8182(5) 0.1728(4) 0.4590(13)
C2_5 C 0.8740(6) 0.2129(4) 0.5319(16)
C3_5 C 0.7765(6) 0.1237(4) 0.5860(14)
C4_5 C 0.9131(6) 0.2575(4) 0.3679(14)
O2_5 O 0.8923(3) 0.2667(2) 0.2036(10)
O3_5 O 0.9696(3) 0.2813(2) 0.3983(8)
C5_5 C 0.8485(5) 0.1605(4) 0.8743(13)
C6_5 C 0.7927(6) 0.1204(4) 0.8014(16)
C7_5 C 0.8902(6) 0.2096(4) 0.7473(14)
C8_5 C 0.7536(6) 0.0758(4) 0.9654(14)
O4_5 O 0.9444(3) 0.2518(2) 0.8291(10)
O9_5 O 0.6001(4) 0.0411(2) 0.4630(10)
H1_5 H 0.805168 0.178498 0.299719
H2_6 H 0.293337 0.138502 0.0336146
C1_6 C 0.3547(3) 0.1818(5) 0.4590(13)
C2_6 C 0.3390(4) 0.1260(6) 0.5319(16)
C3_6 C 0.3473(4) 0.2235(6) 0.5860(14)
C4_6 C 0.3445(5) 0.0869(6) 0.3679(14)
O2_6 O 0.3745(2) 0.1077(3) 0.2036(10)
O3_6 O 0.3118(2) 0.0304(3) 0.3983(8)
C5_6 C 0.3120(3) 0.1515(5) 0.8743(13)
C6_6 C 0.3277(4) 0.2073(6) 0.8014(16)
C7_6 C 0.3194(4) 0.1098(6) 0.7473(14)
C8_6 C 0.3222(5) 0.2464(6) 0.9654(14)
O4_6 O 0.3074(2) 0.0556(3) 0.8291(10)
O9_6 O 0.4411(3) 0.3999(4) 0.4630(10)
H1_6 H 0.37333 0.194832 0.299719
C5_7 C 0.5062(4) 0.0213(3) 0.2076(13)
C6_7 C 0.5463(4) 0.0056(4) 0.1347(16)
C7_7 C 0.4571(4) 0.0139(4) 0.0806(14)
C8_7 C 0.5909(4) 0.0111(5) 0.2987(14)
O4_7 O 0.4149(2) 0.0259(2) 0.1624(10)
H2_7 H 0.511831 0.0399963 0.366948
O3_7 O 0.3853(2) 0.0216(2) 0.7317(8)
C1_7 C 0.4938(4) 0.9787(3) 0.7924(13)
C2_7 C 0.4537(4) 0.9944(4) 0.8653(16)
C3_7 C 0.5429(4) 0.9861(4) 0.9194(14)
C4_7 C 0.4091(4) 0.9889(5) 0.7013(14)
O2_7 O 0.3999(2) 0.9589(2) 0.5370(10)
H1_7 H 0.488169 0.960004 0.633052
C5_8 C 0.5152(5) 0.4938(4) 0.2076(13)
C6_8 C 0.4594(6) 0.4537(4) 0.1347(16)
C7_8 C 0.5569(6) 0.5429(4) 0.0806(14)
C8_8 C 0.4203(6) 0.4091(4) 0.2987(14)
O4_8 O 0.6111(3) 0.5851(2) 0.1624(10)
H2_8 H 0.528165 0.488169 0.366948
C1_8 C 0.4848(5) 0.5062(4) 0.7924(13)
C2_8 C 0.5406(6) 0.5463(4) 0.8653(16)
C3_8 C 0.4431(6) 0.4571(4) 0.9194(14)
C4_8 C 0.5797(6) 0.5909(4) 0.7013(14)
O2_8 O 0.5589(3) 0.6001(2) 0.5370(10)
O3_8 O 0.6362(3) 0.6147(2) 0.7317(8)
H1_8 H 0.471835 0.511831 0.633052
C1_9 C 0.0213(3) 0.5152(5) 0.7924(13)
C2_9 C 0.0056(4) 0.4594(6) 0.8653(16)
C3_9 C 0.0139(4) 0.5569(6) 0.9194(14)
C4_9 C 0.0111(5) 0.4203(6) 0.7013(14)
O2_9 O 0.0411(2) 0.4411(3) 0.5370(10)
H1_9 H 0.0399963 0.528165 0.633052
C5_9 C 0.9787(3) 0.4848(5) 0.2076(13)
C6_9 C 0.9944(4) 0.5406(6) 0.1347(16)
C7_9 C 0.9861(4) 0.4431(6) 0.0806(14)
C8_9 C 0.9889(5) 0.5797(6) 0.2987(14)
O4_9 O 0.9741(2) 0.3889(3) 0.1624(10)
H2_9 H 0.960004 0.471835 0.366948
O3_9 O 0.9784(2) 0.3638(3) 0.7317(8)
loop_
_geom_bond_atom_site_label_1
_geom_bond_atom_site_label_2
_geom_bond_site_symmetry_1
_geom_bond_site_symmetry_2
Cu1 O1 1_555 1_555
C1 C2 1_555 1_555
C2 C4 1_555 1_555
C3 C1 1_555 1_555
O1 C3 1_555 1_555
O3 C4 1_555 1_555
C5 C6 1_555 1_555
C6 C3 1_555 1_555
C7 C2 1_555 1_555
C8 C6 1_555 1_555
O4 C7 1_555 1_555
O5 C8 1_555 1_555
O6 Cu1 1_555 1_555
Cu7 O1 1_555 1_555
Cu4 O4 1_555 1_555
Cu5 O6 1_555 1_555
Cu8 O3 1_555 1_555
O7 Cu1 1_555 1_555
O9 Cu1 1_555 1_555
O12 Cu1 1_555 1_555
C5 C7 1_555 1_555
C8 O6 1_555 1_555
O4 Cu8 1_555 1_555
Cu7 O12 1_555 1_555
Cu5 O7 1_555 1_555
C5 H2 1_555 1_555
O2 Cu4 1_555 1_555
C1_2 C2_2 1_555 1_555
C2_2 C4_2 1_555 1_555
C3_2 C1_2 1_555 1_555
O1_2 C3_2 1_555 1_555
O3_2 C4_2 1_555 1_555
C5_2 C6_2 1_555 1_555
C6_2 C3_2 1_555 1_555
C7_2 C2_2 1_555 1_555
C8_2 C6_2 1_555 1_555
O4_2 C7_2 1_555 1_555
O5_2 C8_2 1_555 1_555
Cu7_2 O1_2 1_555 1_555
Cu4_2 O4_2 1_555 1_555
Cu8_2 O3_2 1_555 1_555
C5_2 C7_2 1_555 1_555
C8_2 O6_2 1_555 1_555
O4_2 Cu8_2 1_555 1_555
Cu7_2 O12_2 1_555 1_555
C5_2 H2_2 1_555 1_555
O2_2 Cu4_2 1_555 1_555
O7_2 Cu1_2 1_555 1_555
O9_2 Cu1_2 1_555 1_555
Cu5_2 O7_2 1_555 1_555
O7_3 Cu1_3 1_555 1_555
O9_3 Cu1_3 1_555 1_555
Cu5_3 O7_3 1_555 1_555
C1_3 C2_3 1_555 1_555
C2_3 C4_3 1_555 1_555
C3_3 C1_3 1_555 1_555
O1_3 C3_3 1_555 1_555
O3_3 C4_3 1_555 1_555
C5_3 C6_3 1_555 1_555
C6_3 C3_3 1_555 1_555
C7_3 C2_3 1_555 1_555
C8_3 C6_3 1_555 1_555
O4_3 C7_3 1_555 1_555
O5_3 C8_3 1_555 1_555
Cu7_3 O1_3 1_555 1_555
Cu4_3 O4_3 1_555 1_555
Cu8_3 O3_3 1_555 1_555
C5_3 C7_3 1_555 1_555
C8_3 O6_3 1_555 1_555
O4_3 Cu8_3 1_555 1_555
Cu7_3 O12_3 1_555 1_555
C5_3 H2_3 1_555 1_555
O2_3 Cu4_3 1_555 1_555
C1_4 C2_4 1_555 1_555
C2_4 C4_4 1_555 1_555
C3_4 C1_4 1_555 1_555
C4_4 O2_4 1_555 1_555
O7_2 C3_4 1_555 1_555
O3_4 C4_4 1_555 1_555
C5_4 C6_4 1_555 1_555
C6_4 C3_4 1_555 1_555
C7_4 C2_4 1_555 1_555
C8_4 C6_4 1_555 1_555
O4_4 C7_4 1_555 1_555
O11_2 Cu5_2 1_555 1_555
Cu6_3 O4_4 1_555 1_555
Cu8_3 O3_4 1_555 1_555
Cu4_3 O3_4 1_555 1_555
O9_4 Cu5_2 1_555 1_555
C5_4 C7_4 1_555 1_555
C8_4 O11_2 1_555 1_555
O4_4 Cu4_3 1_555 1_555
C1_4 H1_4 1_555 1_555
C1_5 C2_5 1_555 1_555
C2_5 C4_5 1_555 1_555
C3_5 C1_5 1_555 1_555
C4_5 O2_5 1_555 1_555
O7_3 C3_5 1_555 1_555
O3_5 C4_5 1_555 1_555
C5_5 C6_5 1_555 1_555
C6_5 C3_5 1_555 1_555
C7_5 C2_5 1_555 1_555
C8_5 C6_5 1_555 1_555
O4_5 C7_5 1_555 1_555
O11_3 Cu5_3 1_555 1_555
Cu6 O4_5 1_555 1_555
O9_5 Cu5_3 1_555 1_555
C5_5 C7_5 1_555 1_555
C8_5 O11_3 1_555 1_555
C1_5 H1_5 1_555 1_555
C1_6 C2_6 1_555 1_555
C2_6 C4_6 1_555 1_555
C3_6 C1_6 1_555 1_555
C4_6 O2_6 1_555 1_555
O7 C3_6 1_555 1_555
O3_6 C4_6 1_555 1_555
C5_6 C6_6 1_555 1_555
C6_6 C3_6 1_555 1_555
C7_6 C2_6 1_555 1_555
C8_6 C6_6 1_555 1_555
O4_6 C7_6 1_555 1_555
O11 Cu5 1_555 1_555
Cu6_2 O4_6 1_555 1_555
O8 Cu5 1_555 1_555
O9_6 Cu5 1_555 1_555
C5_6 C7_6 1_555 1_555
C8_6 O11 1_555 1_555
C1_6 H1_6 1_555 1_555
C5_7 C6_7 1_555 1_555
C8_7 C6_7 1_555 1_555
O4_7 C7_7 1_555 1_555
O9_5 C8_7 1_555 1_555
C5_7 C7_7 1_555 1_555
C5_7 H2_7 1_555 1_555
Cu6_2 O3_7 1_555 1_555
C1_7 C2_7 1_555 1_555
C2_7 C4_7 1_555 1_555
C3_7 C1_7 1_555 1_555
C4_7 O2_7 1_555 1_555
O8_3 C3_7 1_555 1_555
O2_7 Cu8_2 1_555 1_555
C1_7 H1_7 1_555 1_555
C5_8 C6_8 1_555 1_555
C8_8 C6_8 1_555 1_555
O4_8 C7_8 1_555 1_555
O9_6 C8_8 1_555 1_555
Cu8_3 O4_8 1_555 1_555
C5_8 C7_8 1_555 1_555
C8_8 O12 1_555 1_555
C5_8 H2_8 1_555 1_555
C1_8 C2_8 1_555 1_555
C2_8 C4_8 1_555 1_555
C3_8 C1_8 1_555 1_555
C4_8 O2_8 1_555 1_555
O8 C3_8 1_555 1_555
O2_8 Cu8_3 1_555 1_555
O3_8 C4_8 1_555 1_555
Cu4_3 O3_8 1_555 1_555
Cu6_3 O3_8 1_555 1_555
C1_8 H1_8 1_555 1_555
C1_9 C2_9 1_555 1_555
C2_9 C4_9 1_555 1_555
C3_9 C1_9 1_555 1_555
C4_9 O2_9 1_555 1_555
O8_2 C3_9 1_555 1_555
O2_9 Cu8 1_555 1_555
C1_9 H1_9 1_555 1_555
C5_9 C6_9 1_555 1_555
C8_9 C6_9 1_555 1_555
O4_9 C7_9 1_555 1_555
O9_4 C8_9 1_555 1_555
C5_9 C7_9 1_555 1_555
C5_9 H2_9 1_555 1_555
Cu6 O3_9 1_555 1_555

#END
