
###############################################################################
#
# This file contains modified crystal structure data generated from the
# MOF subset of the Cambridge Structural Database (CSD) v543 
# hosted by the Cambridge Crystallographic Data Centre (CCDC).
#
# This work is licensed under the Creative Commons
# Attribution-NonCommercial-ShareAlike 4.0 International License.
# To view a copy of this license, visit
# http://creativecommons.org/licenses/by-nc-sa/4.0/
# or send a letter to
# Creative Commons, PO Box 1866, Mountain View, CA 94042, USA.
#
# CIF created using the CSD Python API on 29 September 2022
# The structure has been converted into the P1 space group
# The structure has a 3D framework
# The original CSD entry MOHMEE34 is in the rhombohedral crystal system
# The framework has been calculated to contain at least 10.0% void space
# The void calculation uses a probe of radius 1.32A, grid spacing 0.4
# H atom positions have been added when not included in the experimental data
#
###############################################################################

data_MOHMEE34
_chemical_formula_moiety         '(C72 H18 Cu7 O44)n'
_symmetry_cell_setting           triclinic
_symmetry_space_group_name_H-M   'P 1'
_symmetry_Int_Tables_number      1
_space_group_name_Hall           'P 1'
loop_
_symmetry_equiv_pos_site_id
_symmetry_equiv_pos_as_xyz
1 x,y,z
_cell_length_a                   25.9178(3)
_cell_length_b                   25.9178(3)
_cell_length_c                   6.28192(7)
_cell_angle_alpha                90
_cell_angle_beta                 90
_cell_angle_gamma                120
_cell_volume                     3654.43
loop_
_atom_site_label
_atom_site_type_symbol
_atom_site_fract_x
_atom_site_fract_y
_atom_site_fract_z
Cu7 Cu 0.31806(7) 0.37129(5) 0.0086(2)
Cu1 Cu 0.29538(5) 0.28011(5) 0.3419(2)
O1 O 0.2519(2) 0.3075(2) 0.1704(10)
O2 O 0.2813(2) 0.3117(2) 0.6014(8)
O3 O 0.2664(4) 0.3746(2) 0.7965(10)
C1 C 0.2095(4) 0.3194(4) 0.2542(14)
C2 C 0.2577(4) 0.3444(5) 0.6322(14)
C3 C 0.1607(4) 0.3121(3) 0.1239(13)
C4 C 0.2129(4) 0.3392(4) 0.4683(16)
O4 O 0.0814(2) 0.3592(2) 0.4963(10)
O5 O 0.0520(2) 0.3550(2) 0.0653(8)
C5 C 0.1238(4) 0.3473(4) 0.4125(14)
C6 C 0.0756(4) 0.3223(5) 0.0345(14)
C7 C 0.1726(4) 0.3546(3) 0.5428(13)
C8 C 0.1204(4) 0.3275(4) 0.1984(16)
Cu4 Cu 0.01527(7) 0.29538(5) 0.6581(2)
Cu5 Cu 0.38656(5) 0.34860(7) 0.6752(2)
Cu8 Cu 0.03795(5) 0.38656(5) 0.3248(2)
O7 O 0.3592(2) 0.2777(3) 0.5037(10)
O10 O 0.3637(3) 0.3854(2) 0.2681(8)
O12 O 0.2921(2) 0.2251(4) 0.1298(10)
H1 H 0.177717 0.372559 0.702949
O6 O 0.0669(4) 0.2921(2) 0.8702(10)
O8 O 0.3889(3) 0.4148(2) 0.8371(10)
O9 O 0.3550(2) 0.3029(3) 0.9347(8)
H2 H 0.155616 0.294107 0.963718
Cu6 Cu 0.94678(5) 0.31806(7) 0.9914(2)
Cu6_2 Cu 0.37129(9) 0.05322(5) 0.9914(2)
Cu7_2 Cu 0.05322(9) 0.68194(7) 0.0086(2)
O1_2 O 0.0556(3) 0.7481(2) 0.1704(10)
O2_2 O 0.0304(3) 0.7187(2) 0.6014(8)
O3_2 O 0.1082(4) 0.7336(4) 0.7965(10)
C1_2 C 0.1099(6) 0.7905(4) 0.2542(14)
C2_2 C 0.0867(6) 0.7423(4) 0.6322(14)
C3_2 C 0.1514(5) 0.8393(4) 0.1239(13)
C4_2 C 0.1263(6) 0.7871(4) 0.4683(16)
O4_2 O 0.2777(3) 0.9186(2) 0.4963(10)
O5_2 O 0.3029(3) 0.9480(2) 0.0653(8)
C5_2 C 0.2234(6) 0.8762(4) 0.4125(14)
C6_2 C 0.2466(6) 0.9244(4) 0.0345(14)
C7_2 C 0.1819(5) 0.8274(4) 0.5428(13)
C8_2 C 0.2070(6) 0.8796(4) 0.1984(16)
Cu4_2 Cu 0.28011(9) 0.98473(7) 0.6581(2)
Cu8_2 Cu 0.34860(7) 0.96205(5) 0.3248(2)
O10_2 O 0.0216(4) 0.6363(3) 0.2681(8)
H1_2 H 0.194842 0.822283 0.702949
O6_2 O 0.2251(4) 0.9331(4) 0.8702(10)
O8_2 O 0.0258(4) 0.6111(3) 0.8371(10)
H2_2 H 0.138491 0.844384 0.963718
Cu1_2 Cu 0.98473(7) 0.70462(5) 0.3419(2)
Cu5_2 Cu 0.96205(9) 0.61344(5) 0.6752(2)
O7_2 O 0.9186(4) 0.6408(2) 0.5037(10)
O12_2 O 0.9331(4) 0.7079(2) 0.1298(10)
O9_2 O 0.9480(4) 0.6450(2) 0.9347(8)
Cu1_3 Cu 0.71989(5) 0.01527(7) 0.3419(2)
Cu5_3 Cu 0.65140(7) 0.03795(9) 0.6752(2)
O7_3 O 0.7223(3) 0.0814(4) 0.5037(10)
O12_3 O 0.7749(4) 0.0669(4) 0.1298(10)
O9_3 O 0.6971(3) 0.0520(4) 0.9347(8)
Cu7_3 Cu 0.62871(5) 0.94678(9) 0.0086(2)
O1_3 O 0.6925(2) 0.9444(3) 0.1704(10)
O2_3 O 0.6883(2) 0.9696(3) 0.6014(8)
O3_3 O 0.6254(2) 0.8918(4) 0.7965(10)
C1_3 C 0.6806(4) 0.8901(6) 0.2542(14)
C2_3 C 0.6556(5) 0.9133(6) 0.6322(14)
C3_3 C 0.6879(3) 0.8486(5) 0.1239(13)
C4_3 C 0.6608(4) 0.8737(6) 0.4683(16)
O4_3 O 0.6408(2) 0.7223(3) 0.4963(10)
O5_3 O 0.6450(2) 0.6971(3) 0.0653(8)
C5_3 C 0.6527(4) 0.7766(6) 0.4125(14)
C6_3 C 0.6777(5) 0.7534(6) 0.0345(14)
C7_3 C 0.6454(3) 0.8181(5) 0.5428(13)
C8_3 C 0.6725(4) 0.7930(6) 0.1984(16)
Cu4_3 Cu 0.70462(5) 0.71989(9) 0.6581(2)
Cu8_3 Cu 0.61344(5) 0.65140(7) 0.3248(2)
O10_3 O 0.6146(2) 0.9784(4) 0.2681(8)
H1_3 H 0.627441 0.805158 0.702949
O6_3 O 0.7079(2) 0.7749(4) 0.8702(10)
Cu6_3 Cu 0.68194(7) 0.62871(9) 0.9914(2)
O8_3 O 0.5852(2) 0.9742(4) 0.8371(10)
H2_3 H 0.705893 0.861509 0.963718
H1_4 H 0.844384 0.705893 0.0362819
C1_4 C 0.8762(4) 0.6527(4) 0.5875(14)
C2_4 C 0.9244(4) 0.6777(5) 0.9655(14)
C3_4 C 0.8274(4) 0.6454(3) 0.4572(13)
C4_4 C 0.8796(4) 0.6725(4) 0.8016(16)
O4_4 O 0.7481(2) 0.6925(2) 0.8296(10)
O5_4 O 0.7187(2) 0.6883(2) 0.3986(8)
C5_4 C 0.7905(4) 0.6806(4) 0.7458(14)
C6_4 C 0.7423(4) 0.6556(5) 0.3678(14)
C7_4 C 0.8393(4) 0.6879(3) 0.8761(13)
C8_4 C 0.7871(4) 0.6608(4) 0.5317(16)
O6_4 O 0.7336(4) 0.6254(2) 0.2035(10)
O12_4 O 0.9587(2) 0.5585(4) 0.4632(10)
H2_4 H 0.822283 0.627441 0.297051
H1_5 H 0.861509 0.155616 0.0362819
C1_5 C 0.7766(6) 0.1238(4) 0.5875(14)
C2_5 C 0.7534(6) 0.0756(4) 0.9655(14)
C3_5 C 0.8181(5) 0.1726(4) 0.4572(13)
C4_5 C 0.7930(6) 0.1204(4) 0.8016(16)
O4_5 O 0.9444(3) 0.2519(2) 0.8296(10)
O5_5 O 0.9696(3) 0.2813(2) 0.3986(8)
C5_5 C 0.8901(6) 0.2095(4) 0.7458(14)
C6_5 C 0.9133(6) 0.2577(4) 0.3678(14)
C7_5 C 0.8486(5) 0.1607(4) 0.8761(13)
C8_5 C 0.8737(6) 0.2129(4) 0.5317(16)
O6_5 O 0.8918(4) 0.2664(4) 0.2035(10)
O12_5 O 0.5997(4) 0.0413(2) 0.4632(10)
H2_5 H 0.805158 0.177717 0.297051
H1_6 H 0.294107 0.138491 0.0362819
C1_6 C 0.3473(4) 0.2234(6) 0.5875(14)
C2_6 C 0.3223(5) 0.2466(6) 0.9655(14)
C3_6 C 0.3546(3) 0.1819(5) 0.4572(13)
C4_6 C 0.3275(4) 0.2070(6) 0.8016(16)
O4_6 O 0.3075(2) 0.0556(3) 0.8296(10)
O5_6 O 0.3117(2) 0.0304(3) 0.3986(8)
C5_6 C 0.3194(4) 0.1099(6) 0.7458(14)
C6_6 C 0.3444(5) 0.0867(6) 0.3678(14)
C7_6 C 0.3121(3) 0.1514(5) 0.8761(13)
C8_6 C 0.3392(4) 0.1263(6) 0.5317(16)
O6_6 O 0.3746(2) 0.1082(4) 0.2035(10)
O12_6 O 0.4415(4) 0.4003(4) 0.4632(10)
H2_6 H 0.372559 0.194842 0.297051
C2_7 C 0.5910(4) 0.0111(5) 0.2989(14)
C4_7 C 0.5462(4) 0.0059(4) 0.1350(16)
O4_7 O 0.4148(2) 0.0258(2) 0.1629(10)
C5_7 C 0.4572(4) 0.0139(4) 0.0791(14)
C7_7 C 0.5060(4) 0.0212(3) 0.2094(13)
H1_7 H 0.51105 0.0392261 0.369615
O5_7 O 0.3854(2) 0.0216(2) 0.7319(8)
C1_7 C 0.5428(4) 0.9861(4) 0.9209(14)
C3_7 C 0.4940(4) 0.9788(3) 0.7906(13)
C6_7 C 0.4090(4) 0.9889(5) 0.7011(14)
C8_7 C 0.4538(4) 0.9941(4) 0.8650(16)
O6_7 O 0.4003(4) 0.9587(2) 0.5368(10)
H2_7 H 0.48895 0.960774 0.630385
C2_8 C 0.4200(6) 0.4090(4) 0.2989(14)
C4_8 C 0.4596(6) 0.4538(4) 0.1350(16)
O4_8 O 0.6111(3) 0.5852(2) 0.1629(10)
C5_8 C 0.5568(6) 0.5428(4) 0.0791(14)
C7_8 C 0.5153(5) 0.4940(4) 0.2094(13)
H1_8 H 0.528176 0.48895 0.369615
C1_8 C 0.4432(6) 0.4572(4) 0.9209(14)
C3_8 C 0.4847(5) 0.5060(4) 0.7906(13)
O5_8 O 0.6363(3) 0.6146(2) 0.7319(8)
C6_8 C 0.5800(6) 0.5910(4) 0.7011(14)
C8_8 C 0.5404(6) 0.5462(4) 0.8650(16)
O6_8 O 0.5585(4) 0.5997(4) 0.5368(10)
H2_8 H 0.471824 0.51105 0.630385
C1_9 C 0.0139(4) 0.5568(6) 0.9209(14)
C3_9 C 0.0212(3) 0.5153(5) 0.7906(13)
C6_9 C 0.0111(5) 0.4200(6) 0.7011(14)
C8_9 C 0.0059(4) 0.4596(6) 0.8650(16)
O6_9 O 0.0413(2) 0.4415(4) 0.5368(10)
H2_9 H 0.0392261 0.528176 0.630385
C2_9 C 0.9889(5) 0.5800(6) 0.2989(14)
C4_9 C 0.9941(4) 0.5404(6) 0.1350(16)
O4_9 O 0.9742(2) 0.3889(3) 0.1629(10)
C5_9 C 0.9861(4) 0.4432(6) 0.0791(14)
C7_9 C 0.9788(3) 0.4847(5) 0.2094(13)
H1_9 H 0.960774 0.471824 0.369615
O5_9 O 0.9784(2) 0.3637(3) 0.7319(8)
loop_
_geom_bond_atom_site_label_1
_geom_bond_atom_site_label_2
_geom_bond_site_symmetry_1
_geom_bond_site_symmetry_2
Cu1 O1 1_555 1_555
O1 C1 1_555 1_555
O2 Cu1 1_555 1_555
O3 C2 1_555 1_555
C1 C3 1_555 1_555
C2 O2 1_555 1_555
C3 C8 1_555 1_555
C4 C1 1_555 1_555
O4 C5 1_555 1_555
O5 C6 1_555 1_555
C5 C7 1_555 1_555
C6 C8 1_555 1_555
C7 C4 1_555 1_555
C8 C5 1_555 1_555
Cu7 O1 1_555 1_555
Cu4 O4 1_555 1_555
Cu5 O2 1_555 1_555
Cu8 O4 1_555 1_555
O7 Cu1 1_555 1_555
O10 Cu1 1_555 1_555
O12 Cu1 1_555 1_555
C2 C4 1_555 1_555
O5 Cu8 1_555 1_555
Cu7 O10 1_555 1_555
Cu5 O7 1_555 1_555
C7 H1 1_555 1_555
Cu4 O6 1_555 1_555
O1_2 C1_2 1_555 1_555
O3_2 C2_2 1_555 1_555
C1_2 C3_2 1_555 1_555
C2_2 O2_2 1_555 1_555
C3_2 C8_2 1_555 1_555
C4_2 C1_2 1_555 1_555
O4_2 C5_2 1_555 1_555
O5_2 C6_2 1_555 1_555
C5_2 C7_2 1_555 1_555
C6_2 C8_2 1_555 1_555
C7_2 C4_2 1_555 1_555
C8_2 C5_2 1_555 1_555
Cu7_2 O1_2 1_555 1_555
Cu4_2 O4_2 1_555 1_555
Cu8_2 O4_2 1_555 1_555
C2_2 C4_2 1_555 1_555
O5_2 Cu8_2 1_555 1_555
Cu7_2 O10_2 1_555 1_555
C7_2 H1_2 1_555 1_555
Cu4_2 O6_2 1_555 1_555
O7_2 Cu1_2 1_555 1_555
O12_2 Cu1_2 1_555 1_555
Cu5_2 O7_2 1_555 1_555
O7_3 Cu1_3 1_555 1_555
O12_3 Cu1_3 1_555 1_555
Cu5_3 O7_3 1_555 1_555
O1_3 C1_3 1_555 1_555
O3_3 C2_3 1_555 1_555
C1_3 C3_3 1_555 1_555
C2_3 O2_3 1_555 1_555
C3_3 C8_3 1_555 1_555
C4_3 C1_3 1_555 1_555
O4_3 C5_3 1_555 1_555
O5_3 C6_3 1_555 1_555
C5_3 C7_3 1_555 1_555
C6_3 C8_3 1_555 1_555
C7_3 C4_3 1_555 1_555
C8_3 C5_3 1_555 1_555
Cu7_3 O1_3 1_555 1_555
Cu4_3 O4_3 1_555 1_555
Cu8_3 O4_3 1_555 1_555
C2_3 C4_3 1_555 1_555
O5_3 Cu8_3 1_555 1_555
Cu7_3 O10_3 1_555 1_555
C7_3 H1_3 1_555 1_555
Cu4_3 O6_3 1_555 1_555
O7_2 C1_4 1_555 1_555
O9_2 Cu5_2 1_555 1_555
C1_4 C3_4 1_555 1_555
C2_4 O9_2 1_555 1_555
C3_4 C8_4 1_555 1_555
C4_4 C1_4 1_555 1_555
O4_4 C5_4 1_555 1_555
O5_4 C6_4 1_555 1_555
C5_4 C7_4 1_555 1_555
C6_4 C8_4 1_555 1_555
C7_4 C4_4 1_555 1_555
C8_4 C5_4 1_555 1_555
O6_4 C6_4 1_555 1_555
Cu6_3 O4_4 1_555 1_555
Cu8_3 O5_4 1_555 1_555
Cu4_3 O4_4 1_555 1_555
O12_4 Cu5_2 1_555 1_555
C2_4 C4_4 1_555 1_555
O5_4 Cu4_3 1_555 1_555
C3_4 H2_4 1_555 1_555
O7_3 C1_5 1_555 1_555
O9_3 Cu5_3 1_555 1_555
C1_5 C3_5 1_555 1_555
C2_5 O9_3 1_555 1_555
C3_5 C8_5 1_555 1_555
C4_5 C1_5 1_555 1_555
O4_5 C5_5 1_555 1_555
O5_5 C6_5 1_555 1_555
C5_5 C7_5 1_555 1_555
C6_5 C8_5 1_555 1_555
C7_5 C4_5 1_555 1_555
C8_5 C5_5 1_555 1_555
O6_5 C6_5 1_555 1_555
Cu6 O4_5 1_555 1_555
O12_5 Cu5_3 1_555 1_555
C2_5 C4_5 1_555 1_555
C3_5 H2_5 1_555 1_555
O7 C1_6 1_555 1_555
O9 Cu5 1_555 1_555
C1_6 C3_6 1_555 1_555
C2_6 O9 1_555 1_555
C3_6 C8_6 1_555 1_555
C4_6 C1_6 1_555 1_555
O4_6 C5_6 1_555 1_555
O5_6 C6_6 1_555 1_555
C5_6 C7_6 1_555 1_555
C6_6 C8_6 1_555 1_555
C7_6 C4_6 1_555 1_555
C8_6 C5_6 1_555 1_555
O6_6 C6_6 1_555 1_555
Cu6_2 O4_6 1_555 1_555
O8 Cu5 1_555 1_555
O12_6 Cu5 1_555 1_555
C2_6 C4_6 1_555 1_555
C3_6 H2_6 1_555 1_555
O12_5 C2_7 1_555 1_555
O4_7 C5_7 1_555 1_555
C5_7 C7_7 1_555 1_555
C7_7 C4_7 1_555 1_555
C2_7 C4_7 1_555 1_555
C7_7 H1_7 1_555 1_555
O5_7 Cu6_2 1_555 1_555
O8_3 C1_7 1_555 1_555
C1_7 C3_7 1_555 1_555
C3_7 C8_7 1_555 1_555
C6_7 C8_7 1_555 1_555
O6_7 C6_7 1_555 1_555
Cu8_2 O6_7 1_555 1_555
C3_7 H2_7 1_555 1_555
O12_6 C2_8 1_555 1_555
C2_8 O10 1_555 1_555
O4_8 C5_8 1_555 1_555
C5_8 C7_8 1_555 1_555
C7_8 C4_8 1_555 1_555
Cu8_3 O4_8 1_555 1_555
C2_8 C4_8 1_555 1_555
C7_8 H1_8 1_555 1_555
O8 C1_8 1_555 1_555
C1_8 C3_8 1_555 1_555
C3_8 C8_8 1_555 1_555
O5_8 C6_8 1_555 1_555
C6_8 C8_8 1_555 1_555
O6_8 C6_8 1_555 1_555
Cu8_3 O6_8 1_555 1_555
Cu4_3 O5_8 1_555 1_555
O5_8 Cu6_3 1_555 1_555
C3_8 H2_8 1_555 1_555
O8_2 C1_9 1_555 1_555
C1_9 C3_9 1_555 1_555
C3_9 C8_9 1_555 1_555
C6_9 C8_9 1_555 1_555
O6_9 C6_9 1_555 1_555
Cu8 O6_9 1_555 1_555
C3_9 H2_9 1_555 1_555
O12_4 C2_9 1_555 1_555
O4_9 C5_9 1_555 1_555
C5_9 C7_9 1_555 1_555
C7_9 C4_9 1_555 1_555
C2_9 C4_9 1_555 1_555
C7_9 H1_9 1_555 1_555
O5_9 Cu6 1_555 1_555

#END
