
###############################################################################
#
# This file contains modified crystal structure data generated from the
# MOF subset of the Cambridge Structural Database (CSD) v543 
# hosted by the Cambridge Crystallographic Data Centre (CCDC).
#
# This work is licensed under the Creative Commons
# Attribution-NonCommercial-ShareAlike 4.0 International License.
# To view a copy of this license, visit
# http://creativecommons.org/licenses/by-nc-sa/4.0/
# or send a letter to
# Creative Commons, PO Box 1866, Mountain View, CA 94042, USA.
#
# CIF created using the CSD Python API on 29 September 2022
# The structure has been converted into the P1 space group
# The structure has a 3D framework
# The original CSD entry MOHNAA is in the triclinic crystal system
# The original CSD entry MOHNAA is in a Sohncke space group
# The framework has been calculated to contain at least 10.0% void space
# The void calculation uses a probe of radius 1.32A, grid spacing 0.4
#
###############################################################################

data_MOHNAA
_chemical_formula_moiety         '(C68 H36 Cd8 N8 O32)n'
_symmetry_cell_setting           triclinic
_symmetry_space_group_name_H-M   'P 1'
_symmetry_Int_Tables_number      1
_space_group_name_Hall           'P 1'
loop_
_symmetry_equiv_pos_site_id
_symmetry_equiv_pos_as_xyz
1 x,y,z
_cell_length_a                   9.5305(17)
_cell_length_b                   10.600(2)
_cell_length_c                   20.362(4)
_cell_angle_alpha                89.999(3)
_cell_angle_beta                 90.000(2)
_cell_angle_gamma                90.212(2)
_cell_volume                     2057.02
loop_
_atom_site_label
_atom_site_type_symbol
_atom_site_fract_x
_atom_site_fract_y
_atom_site_fract_z
_atom_site_U_iso_or_equiv
_atom_site_thermal_displace_type
Cd2 Cd 0.54130(14) 0.34663(13) 0.82033(6) 0.0287 Uani
Cd3 Cd 0.18093(13) 0.21655(12) 0.82019(6) 0.0277 Uani
Cd8 Cd 0.04161(13) 0.21685(13) 0.64852(6) 0.0269 Uani
N1 N 0.4789(13) 0.3130(13) 0.5807(7) 0.0230 Uiso
O2 O 0.2454(13) 0.2831(12) 0.7133(6) 0.0260 Uiso
H1 H 0.0646 0.2294 0.9811 0.0420 Uiso
N5 N 0.2438(17) 0.2490(16) 0.5800(9) 0.0420 Uiso
C9 C 0.358(2) 0.2834(19) 0.6866(9) 0.0220 Uiso
C12 C 0.3597(14) 0.2840(13) 0.6081(7) 0.0140 Uiso
C15 C 0.2451(15) 0.2461(14) 0.5154(8) 0.0190 Uiso
H8 H 0.1653 0.2173 0.4937 0.0230 Uiso
C33 C 0.4732(18) 0.3255(17) 0.5155(9) 0.0360 Uiso
H19 H 0.5483 0.3636 0.4940 0.0430 Uiso
C41 C 0.3588(16) 0.2838(15) 0.4782(8) 0.0230 Uiso
H23 H 0.3593 0.2816 0.4325 0.0270 Uiso
O17 O 0.1222(14) 0.0276(12) 0.7912(7) 0.0340 Uiso
O19 O 0.0999(13) 0.0242(12) 0.6831(7) 0.0350 Uiso
O25 O 0.4743(13) 0.3001(12) 0.7121(6) 0.0240 Uiso
Cd19 Cd 0.68072(14) 0.34620(13) 0.64865(6) 0.0286 Uani
O33 O 0.7404(15) 0.2957(14) 0.7579(7) 0.0350 Uiso
O35 O 0.2978(15) 0.4040(13) 0.8403(7) 0.0320 Uiso
N10 N 0.7418(10) 0.3178(11) 0.8905(5) 0.0200 Uiso
O37 O 0.2685(17) 0.1381(15) 0.9201(8) 0.0490 Uiso
O38 O 0.4533(16) 0.4297(14) 0.9201(8) 0.0400 Uiso
O41 O 0.5979(13) 0.5365(12) 0.7875(6) 0.0300 Uiso
O42 O 0.4204(14) 0.1567(12) 0.8404(7) 0.0300 Uiso
C48 C 0.0667(19) 0.9815(17) 0.7438(10) 0.0470 Uiso
C52 C 0.2358(11) 0.4777(10) 0.0119(5) 0.0220 Uiso
H29 H 0.3144 0.4401 0.0305 0.0270 Uiso
C53 C 0.1249(11) 0.5301(10) 0.0511(5) 0.0200 Uiso
H30 H 0.1365 0.5294 0.0964 0.0240 Uiso
C54 C 0.0100(11) 0.5781(10) 0.0283(5) 0.0210 Uiso
C66 C 0.0660(16) 0.0803(14) 0.2455(8) 0.0300 Uiso
O31 O 0.1121(18) 0.0410(16) 0.1844(9) 0.0620 Uiso
O32 O 0.1056(16) 0.0392(14) 0.2976(8) 0.0520 Uiso
Cd21 Cd 0.04192(13) 0.84601(11) 0.14826(5) 0.0187 Uani
C28 C 0.332(2) 0.4352(18) 0.8995(9) 0.0270 Uiso
C51 C 0.2181(11) 0.4868(10) 0.9460(5) 0.0260 Uiso
C56 C 0.0931(12) 0.5499(10) 0.9134(5) 0.0200 Uiso
H32 H 0.0837 0.5622 0.8684 0.0240 Uiso
Cd9 Cd 0.18112(13) 0.84669(11) 0.31951(5) 0.0192 Uani
O6 O 0.9836(16) 0.2709(14) 0.7601(8) 0.0410 Uiso
C1 C 0.9837(11) 0.2516(12) 0.9584(6) 0.0350 Uiso
N2 N 0.9844(10) 0.2550(11) 0.8901(6) 0.0250 Uiso
C2 C 0.8634(13) 0.2881(12) 0.8562(4) 0.0430 Uiso
C3 C 0.7412(11) 0.3143(12) 0.9587(5) 0.0370 Uiso
H2 H 0.6598 0.3341 0.9817 0.0450 Uiso
C4 C 0.8621(13) 0.2812(15) 0.9927(4) 0.0360 Uiso
C13 C 0.866(3) 0.282(2) 0.7844(11) 0.0360 Uiso
C19 C 0.6249(12) 0.0438(10) 0.4170(5) 0.0210 Uiso
H10 H 0.6359 0.0513 0.3718 0.0250 Uiso
C20 C 0.7282(12) 0.0895(10) 0.4590(6) 0.0250 Uiso
H11 H 0.8083 0.1276 0.4419 0.0300 Uiso
C21 C 0.7118(13) 0.0783(10) 0.5266(6) 0.0310 Uiso
C22 C 0.5921(13) 0.0213(11) 0.5521(5) 0.0330 Uiso
H12 H 0.5811 0.0138 0.5973 0.0390 Uiso
O21 O 0.7883(14) 0.1566(12) 0.6305(6) 0.0240 Uiso
O26 O 0.9501(14) 0.1324(12) 0.5501(7) 0.0340 Uiso
C67 C 0.832(2) 0.1223(17) 0.5700(9) 0.0230 Uiso
O34 O 0.9289(16) 0.4115(14) 0.6295(7) 0.0360 Uiso
O39 O 0.7668(15) 0.4281(13) 0.5509(7) 0.0320 Uiso
O40 O 0.6192(13) 0.5394(12) 0.6829(7) 0.0340 Uiso
Cd4 Cd 0.54105(12) 0.71688(11) 0.31962(5) 0.0172 Uani
Cd7 Cd 0.68005(12) 0.71713(11) 0.14831(5) 0.0175 Uani
O4 O 0.2463(12) 0.7921(11) 0.2143(6) 0.0170 Uiso
N4 N 0.4806(14) 0.7522(13) 0.0817(7) 0.0230 Uiso
O9 O 0.4237(14) 0.9081(12) 0.3387(6) 0.0230 Uiso
N6 N 0.2443(13) 0.8178(12) 0.0801(7) 0.0190 Uiso
H4 H 0.0625 0.8401 0.4798 0.0380 Uiso
O10 O 0.2732(14) 0.9164(12) 0.4204(6) 0.0290 Uiso
C10 C 0.3640(19) 0.7833(16) 0.1847(8) 0.0140 Uiso
C11 C 0.0965(18) 0.5229(16) 0.4154(9) 0.0160 Uiso
H7 H 0.0840 0.5196 0.3701 0.0190 Uiso
C14 C 0.2112(17) 0.5769(14) 0.4425(8) 0.0090 Uiso
C16 C 0.005(3) 0.486(2) 0.5246(12) 0.0440 Uiso
C18 C 0.5052(12) 0.9868(10) 0.4425(5) 0.0150 Uiso
C23 C 0.4888(12) 0.9756(10) 0.5101(5) 0.0250 Uiso
H13 H 0.4087 0.9375 0.5272 0.0300 Uiso
C24 C 0.3626(13) 0.7875(12) 0.1087(6) 0.0090 Uiso
C27 C 0.127(2) 0.5448(19) 0.5504(10) 0.0300 Uiso
H15 H 0.1327 0.5579 0.5955 0.0360 Uiso
C29 C 0.2324(19) 0.5820(16) 0.5125(8) 0.0170 Uiso
H16 H 0.3166 0.6101 0.5304 0.0210 Uiso
C35 C 0.2490(15) 0.8220(14) 0.0158(7) 0.0200 Uiso
C39 C 0.401(2) 0.9333(18) 0.3962(9) 0.0240 Uiso
C42 C 0.4750(15) 0.7416(14) 0.0151(7) 0.0180 Uiso
O18 O 0.6133(16) 0.5222(15) 0.2977(8) 0.0550 Uiso
O20 O 0.2925(12) 0.6608(11) 0.3389(6) 0.0140 Uiso
C43 C 0.8083(18) 0.3381(17) 0.3078(10) 0.0480 Uiso
H25 H 0.7800 0.3742 0.3473 0.0580 Uiso
O23 O 0.4731(13) 0.7723(12) 0.2128(6) 0.0200 Uiso
C44 C 0.6604(15) 0.4831(13) 0.2445(8) 0.0260 Uiso
C45 C 0.9111(19) 0.2260(18) 0.3064(11) 0.0530 Uiso
H26 H 0.9390 0.1861 0.3449 0.0640 Uiso
C46 C 0.7602(18) 0.3826(16) 0.2487(10) 0.0430 Uiso
C47 C 0.8156(17) 0.3302(16) 0.1849(9) 0.0410 Uiso
H27 H 0.7863 0.3637 0.1450 0.0500 Uiso
C49 C 0.9605(17) 0.1866(15) 0.2456(9) 0.0380 Uiso
C50 C 0.9037(19) 0.2392(18) 0.1863(11) 0.0520 Uiso
H28 H 0.9325 0.2050 0.1465 0.0630 Uiso
C57 C 0.9558(13) 0.8817(12) 0.7445(8) 0.0610 Uiso
C58 C 0.9086(14) 0.8294(13) 0.8031(6) 0.0680 Uiso
H33 H 0.9416 0.8604 0.8429 0.0810 Uiso
C59 C 0.8121(14) 0.7308(13) 0.8021(6) 0.0680 Uiso
H34 H 0.7805 0.6959 0.8413 0.0820 Uiso
C60 C 0.7627(13) 0.6845(11) 0.7426(7) 0.0630 Uiso
C61 C 0.8099(15) 0.7368(14) 0.6839(6) 0.0640 Uiso
H35 H 0.7768 0.7059 0.6441 0.0770 Uiso
C62 C 0.9064(15) 0.8354(14) 0.6849(6) 0.0860 Uiso
H36 H 0.9380 0.8704 0.6457 0.1030 Uiso
O27 O 0.4454(14) 0.6436(12) 0.4208(6) 0.0290 Uiso
C63 C 0.3274(19) 0.6296(17) 0.3992(8) 0.0160 Uiso
O28 O 0.7732(13) 0.6427(12) 0.0494(6) 0.0250 Uiso
C64 C 0.8999(19) 0.6255(17) 0.0699(9) 0.0190 Uiso
O29 O 0.9287(12) 0.6545(11) 0.1306(6) 0.0140 Uiso
O30 O 0.6075(17) 0.5230(16) 0.1783(9) 0.0590 Uiso
C68 C 0.6511(19) 0.5817(17) 0.7431(10) 0.0460 Uiso
O36 O 0.7883(12) 0.9067(11) 0.1299(6) 0.0170 Uiso
N11 N 0.7399(9) 0.7499(10) 0.3890(5) 0.0170 Uiso
O43 O 0.7394(13) 0.7777(11) 0.2564(6) 0.0220 Uiso
C26 C 0.513(2) 0.0797(18) 0.9450(9) 0.0240 Uiso
C31 C 0.6269(18) 0.0233(16) 0.9171(9) 0.0170 Uiso
H18 H 0.6359 0.0181 0.8717 0.0210 Uiso
C37 C 0.393(2) 0.1337(19) 0.8974(10) 0.0280 Uiso
O1 O 0.9787(12) 0.8030(11) 0.2571(6) 0.0190 Uiso
C5 C 0.8618(11) 0.7799(11) 0.3548(4) 0.0370 Uiso
N7 N 0.9826(9) 0.8137(10) 0.3888(5) 0.0090 Uiso
C6 C 0.9817(10) 0.8175(11) 0.4570(5) 0.0320 Uiso
C7 C 0.8598(12) 0.7874(13) 0.4912(4) 0.0420 Uiso
H5 H 0.8592 0.7899 0.5369 0.0500 Uiso
C8 C 0.7390(10) 0.7536(10) 0.4572(5) 0.0150 Uiso
H6 H 0.6575 0.7335 0.4801 0.0180 Uiso
O11 O 0.9468(12) 0.9235(10) 0.0503(6) 0.0170 Uiso
C32 C 0.7191(19) 0.9917(16) 0.0265(8) 0.0160 Uiso
C34 C 0.996(2) 0.4714(19) 0.4596(10) 0.0310 Uiso
H20 H 0.9206 0.4257 0.4426 0.0370 Uiso
C36 C 0.894(2) 0.437(2) 0.5697(11) 0.0350 Uiso
C38 C 0.8282(19) 0.9413(16) 0.0704(8) 0.0170 Uiso
C65 C 0.860(2) 0.7844(18) 0.2833(9) 0.0210 Uiso
H3 H 0.8616 0.2789 0.0383 0.0430 Uiso
C17 C 0.3600(17) 0.7811(17) 0.9786(8) 0.0260 Uiso
H9 H 0.3585 0.7799 0.9329 0.0310 Uiso
H21 H 0.1717 0.8549 0.9938 0.0230 Uiso
H24 H 0.5511 0.7066 0.9932 0.0220 Uiso
C55 C 0.9936(11) 0.5873(10) 0.9607(5) 0.0290 Uiso
H31 H 0.9098 0.6210 0.9453 0.0350 Uiso
C25 C 0.494(2) 0.0828(19) 0.0106(10) 0.0310 Uiso
H14 H 0.4093 0.1114 0.0275 0.0370 Uiso
C40 C 0.592(2) 0.047(2) 0.0511(11) 0.0360 Uiso
H22 H 0.5798 0.0567 0.0961 0.0430 Uiso
C30 C 0.730(2) 0.9734(16) 0.9588(9) 0.0180 Uiso
H17 H 0.8054 0.9287 0.9414 0.0220 Uiso
loop_
_atom_site_aniso_label
_atom_site_aniso_U_11
_atom_site_aniso_U_22
_atom_site_aniso_U_33
_atom_site_aniso_U_23
_atom_site_aniso_U_13
_atom_site_aniso_U_12
Cd2 0.0221 0.0374 0.0265 -0.0011 0.0032 0.0026
Cd3 0.0193 0.0369 0.0268 -0.0012 -0.0022 0.0021
Cd8 0.0173 0.039 0.0243 0.0007 -0.0018 -0.0014
Cd19 0.0218 0.0393 0.0247 -0.0007 0.0049 -0.0016
Cd21 0.0206 0.0325 0.003 0.0014 0.0011 0.0029
Cd9 0.0219 0.0306 0.0051 -0.0005 0.0007 0.0037
Cd4 0.0177 0.0298 0.0042 0.0015 -0.0012 0.0043
Cd7 0.0174 0.0317 0.0034 0.0011 0 0.0025
loop_
_geom_bond_atom_site_label_1
_geom_bond_atom_site_label_2
_geom_bond_site_symmetry_1
_geom_bond_site_symmetry_2
Cd2 O25 1_555 1_555
Cd3 O2 1_555 1_555
Cd8 O2 1_555 1_555
N1 C12 1_555 1_555
O2 C9 1_555 1_555
N5 Cd8 1_555 1_555
C9 C12 1_555 1_555
C12 N5 1_555 1_555
C15 N5 1_555 1_555
H8 C15 1_555 1_555
C33 N1 1_555 1_555
H19 C33 1_555 1_555
C41 C15 1_555 1_555
H23 C41 1_555 1_555
O17 Cd3 1_555 1_555
O19 Cd8 1_555 1_555
O25 C9 1_555 1_555
Cd19 N1 1_555 1_555
O33 Cd2 1_555 1_555
O35 Cd2 1_555 1_555
N10 Cd2 1_555 1_555
O37 Cd3 1_555 1_555
O38 Cd2 1_555 1_555
O41 Cd2 1_555 1_555
O42 Cd2 1_555 1_555
Cd3 O35 1_555 1_555
Cd3 O42 1_555 1_555
C33 C41 1_555 1_555
O25 Cd19 1_555 1_555
Cd19 O33 1_555 1_555
C52 H29 1_555 1_555
C53 C52 1_555 1_555
H30 C53 1_555 1_555
C54 C53 1_555 1_555
O31 C66 1_555 1_555
O32 C66 1_555 1_555
O35 C28 1_555 1_555
O38 C28 1_555 1_555
C28 C51 1_555 1_555
C56 C51 1_555 1_555
H32 C56 1_555 1_555
O33 C13 1_555 1_555
C2 N2 1_555 1_555
N10 C2 1_555 1_555
C3 N10 1_555 1_555
H2 C3 1_555 1_555
C4 C1 1_555 1_555
C13 O6 1_555 1_555
C19 H10 1_555 1_555
C20 C19 1_555 1_555
H11 C20 1_555 1_555
C21 C20 1_555 1_555
C22 C21 1_555 1_555
H12 C22 1_555 1_555
O21 Cd19 1_555 1_555
C67 C21 1_555 1_555
O34 Cd19 1_555 1_555
O39 Cd19 1_555 1_555
O40 Cd19 1_555 1_555
C1 N2 1_555 1_555
C2 C13 1_555 1_555
C3 C4 1_555 1_555
O21 C67 1_555 1_555
O26 C67 1_555 1_555
Cd4 O9 1_555 1_555
Cd7 N4 1_555 1_555
O4 Cd9 1_555 1_555
N4 C24 1_555 1_555
O9 Cd9 1_555 1_555
N6 Cd21 1_555 1_555
O10 Cd9 1_555 1_555
C10 O4 1_555 1_555
C11 H7 1_555 1_555
C14 C11 1_555 1_555
C16 C27 1_555 1_555
C23 C18 1_555 1_555
H13 C23 1_555 1_555
C24 N6 1_555 1_555
C27 H15 1_555 1_555
C29 C14 1_555 1_555
H16 C29 1_555 1_555
C35 N6 1_555 1_555
C39 O9 1_555 1_555
C42 N4 1_555 1_555
O40 C68 1_555 1_555
O41 C68 1_555 1_555
O18 Cd4 1_555 1_555
O20 Cd9 1_555 1_555
C43 H25 1_555 1_555
O23 Cd4 1_555 1_555
C44 O18 1_555 1_555
C45 C43 1_555 1_555
H26 C45 1_555 1_555
C46 C43 1_555 1_555
C47 C46 1_555 1_555
H27 C47 1_555 1_555
C49 C45 1_555 1_555
C50 C47 1_555 1_555
H28 C50 1_555 1_555
C58 C57 1_555 1_555
H33 C58 1_555 1_555
C59 C58 1_555 1_555
H34 C59 1_555 1_555
C60 C59 1_555 1_555
C61 C60 1_555 1_555
H35 C61 1_555 1_555
C62 C57 1_555 1_555
H36 C62 1_555 1_555
O27 Cd4 1_555 1_555
C63 C14 1_555 1_555
O28 Cd7 1_555 1_555
O29 Cd7 1_555 1_555
O30 Cd7 1_555 1_555
C68 C60 1_555 1_555
O36 Cd7 1_555 1_555
N11 Cd4 1_555 1_555
O43 Cd4 1_555 1_555
Cd4 O20 1_555 1_555
Cd21 O4 1_555 1_555
Cd7 O23 1_555 1_555
Cd7 O43 1_555 1_555
O10 C39 1_555 1_555
C10 C24 1_555 1_555
C10 O23 1_555 1_555
C18 C39 1_555 1_555
C27 C29 1_555 1_555
O20 C63 1_555 1_555
C44 C46 1_555 1_555
C44 O30 1_555 1_555
C49 C50 1_555 1_555
C61 C62 1_555 1_555
O27 C63 1_555 1_555
O28 C64 1_555 1_555
C64 O29 1_555 1_555
O37 C37 1_555 1_555
C31 C26 1_555 1_555
H18 C31 1_555 1_555
C37 C26 1_555 1_555
O42 C37 1_555 1_555
O1 C65 1_555 1_555
O34 C36 1_555 1_555
C5 N7 1_555 1_555
C6 N7 1_555 1_555
C7 C6 1_555 1_555
H5 C7 1_555 1_555
C8 C7 1_555 1_555
H6 C8 1_555 1_555
N11 C5 1_555 1_555
O39 C36 1_555 1_555
H20 C34 1_555 1_555
C38 O36 1_555 1_555
O43 C65 1_555 1_555
C65 C5 1_555 1_555
C8 N11 1_555 1_555
O11 C38 1_555 1_555
C32 C38 1_555 1_555
C17 H9 1_555 1_555
H31 C55 1_555 1_555
C25 H14 1_555 1_555
C40 C25 1_555 1_555
H22 C40 1_555 1_555
C30 H17 1_555 1_555

#END
