
###############################################################################
#
# This file contains modified crystal structure data generated from the
# MOF subset of the Cambridge Structural Database (CSD) v543 
# hosted by the Cambridge Crystallographic Data Centre (CCDC).
#
# This work is licensed under the Creative Commons
# Attribution-NonCommercial-ShareAlike 4.0 International License.
# To view a copy of this license, visit
# http://creativecommons.org/licenses/by-nc-sa/4.0/
# or send a letter to
# Creative Commons, PO Box 1866, Mountain View, CA 94042, USA.
#
# CIF created using the CSD Python API on 29 September 2022
# The structure has been converted into the P1 space group
# The structure has a 3D framework
# The original CSD entry MOJFOJ is in the orthorhombic crystal system
# The original CSD entry MOJFOJ is in a Sohncke space group
# The framework has been calculated to contain at least 10.0% void space
# The void calculation uses a probe of radius 1.32A, grid spacing 0.4
#
###############################################################################

data_MOJFOJ
_chemical_formula_moiety         '(C104 H128 Ag8 N24 O14)n'
_symmetry_cell_setting           triclinic
_symmetry_space_group_name_H-M   'P 1'
_symmetry_Int_Tables_number      1
_space_group_name_Hall           'P 1'
loop_
_symmetry_equiv_pos_site_id
_symmetry_equiv_pos_as_xyz
1 x,y,z
_cell_length_a                   12.9321(9)
_cell_length_b                   17.9056(10)
_cell_length_c                   12.9695(9)
_cell_angle_alpha                90
_cell_angle_beta                 90
_cell_angle_gamma                90
_cell_volume                     3003.18
loop_
_atom_site_label
_atom_site_type_symbol
_atom_site_fract_x
_atom_site_fract_y
_atom_site_fract_z
Ag1 Ag 0.39032(3) 0.01581(2) 0.35981(2)
O1 O 0.4141(3) 0.14822(17) 0.3962(2)
O2 O 0.3185(3) 0.09152(19) 0.5123(3)
N1 N 0.0616(2) 0.45845(17) 0.3648(3)
N2 N 0.1451(2) 0.46474(17) 0.2982(2)
N3 N 0.1946(2) 0.39903(16) 0.4325(2)
C1 C 0.0930(3) 0.4190(2) 0.4435(3)
H1 H 0.0514 0.4060 0.5001
C2 C 0.2230(3) 0.4290(2) 0.3398(2)
H2 H 0.2890 0.4245 0.3102
C3 C 0.3583(3) 0.1495(2) 0.4758(3)
C4 C 0.2574(2) 0.3521(2) 0.5055(3)
C5 C 0.2762(3) 0.27539(19) 0.4550(3)
H3 H 0.3139 0.2819 0.3900
H4 H 0.2098 0.2515 0.4396
C6 C 0.3398(3) 0.2253(2) 0.5293(3)
C7 C 0.2807(3) 0.2174(2) 0.6319(3)
H5 H 0.2140 0.1929 0.6196
H6 H 0.3206 0.1862 0.6796
C8 C 0.2626(3) 0.2948(2) 0.6802(3)
H7 H 0.2247 0.2887 0.7460
C9 C 0.1977(3) 0.3427(2) 0.6064(3)
H8 H 0.1311 0.3184 0.5931
H9 H 0.1843 0.3917 0.6374
C10 C 0.3616(3) 0.3907(2) 0.5253(3)
H10 H 0.3502 0.4401 0.5556
H11 H 0.3990 0.3970 0.4601
C11 C 0.4256(3) 0.3416(2) 0.5999(3)
H12 H 0.4930 0.3659 0.6135
C12 C 0.4439(3) 0.2646(2) 0.5505(3)
H13 H 0.4859 0.2338 0.5968
H14 H 0.4819 0.2707 0.4857
C13 C 0.3663(3) 0.3327(2) 0.7016(3)
H15 H 0.4069 0.3025 0.7499
H16 H 0.3547 0.3818 0.7328
Ag4 Ag 0.10968(3) 0.51581(2) 0.14019(2)
Ag2 Ag 0.39032(3) 0.98419(2) 0.64019(2)
O3 O 0.3185(3) 0.90848(19) 0.4877(3)
N4 N 0.5616(2) 0.95845(17) 0.3648(3)
N5 N 0.3549(2) 0.96474(17) 0.2018(2)
Ag3 Ag 0.89032(3) 0.51581(2) 0.35981(2)
Ag3_2 Ag 0.10968(3) 0.48419(2) 0.85981(2)
Ag2_2 Ag 0.60968(3) 0.01581(2) 0.14019(2)
O3_2 O 0.6815(3) 0.09152(19) 0.9877(3)
N4_2 N 0.4384(2) 0.04155(17) 0.8648(3)
N5_2 N 0.6451(2) 0.03526(17) 0.7018(2)
O2_2 O 0.6815(3) 0.90848(19) 0.0123(3)
H1_2 H 0.9486 0.5940 0.0001
C4_2 C 0.7426(2) 0.6479(2) 0.0055(3)
C6_2 C 0.6602(3) 0.7747(2) 0.0293(3)
C7_2 C 0.7193(3) 0.7826(2) 0.1319(3)
H5_2 H 0.7860 0.8071 0.1196
H6_2 H 0.6794 0.8138 0.1796
C8_2 C 0.7374(3) 0.7052(2) 0.1802(3)
H7_2 H 0.7753 0.7113 0.2460
C9_2 C 0.8023(3) 0.6573(2) 0.1064(3)
H8_2 H 0.8689 0.6816 0.0931
H9_2 H 0.8157 0.6083 0.1374
C10_2 C 0.6384(3) 0.6093(2) 0.0253(3)
H10_2 H 0.6498 0.5599 0.0556
C11_2 C 0.5744(3) 0.6584(2) 0.0999(3)
H12_2 H 0.5070 0.6341 0.1135
C12_2 C 0.5561(3) 0.7354(2) 0.0505(3)
H13_2 H 0.5141 0.7662 0.0968
C13_2 C 0.6337(3) 0.6673(2) 0.2016(3)
H15_2 H 0.5931 0.6975 0.2499
H16_2 H 0.6453 0.6182 0.2328
Ag1_2 Ag 0.60968(3) 0.98419(2) 0.85981(2)
O1_2 O 0.5859(3) 0.85178(17) 0.8962(2)
N1_2 N 0.9384(2) 0.54155(17) 0.8648(3)
N2_2 N 0.8549(2) 0.53526(17) 0.7982(2)
N3_2 N 0.8054(2) 0.60097(16) 0.9325(2)
C1_2 C 0.9070(3) 0.5810(2) 0.9435(3)
C2_2 C 0.7770(3) 0.5710(2) 0.8398(2)
H2_2 H 0.7110 0.5755 0.8102
C3_2 C 0.6417(3) 0.8505(2) 0.9758(3)
C5_2 C 0.7238(3) 0.72461(19) 0.9550(3)
H3_2 H 0.6861 0.7181 0.8900
H4_2 H 0.7902 0.7485 0.9396
H11_2 H 0.6010 0.6030 0.9601
H14_2 H 0.5181 0.7293 0.9857
Ag4_2 Ag 0.89032(3) 0.48419(2) 0.64019(2)
O1_3 O 0.5859(3) 0.14822(17) 0.1038(2)
N1_3 N 0.9384(2) 0.45845(17) 0.1352(3)
N2_3 N 0.8549(2) 0.46474(17) 0.2018(2)
N3_3 N 0.8054(2) 0.39903(16) 0.0675(2)
C1_3 C 0.9070(3) 0.4190(2) 0.0565(3)
C2_3 C 0.7770(3) 0.4290(2) 0.1602(2)
H2_3 H 0.7110 0.4245 0.1898
C3_3 C 0.6417(3) 0.1495(2) 0.0242(3)
C5_3 C 0.7238(3) 0.27539(19) 0.0450(3)
H3_3 H 0.6861 0.2819 0.1100
H4_3 H 0.7902 0.2515 0.0604
H11_3 H 0.6010 0.3970 0.0399
H14_3 H 0.5181 0.2707 0.0143
H1_3 H 0.9486 0.4060 0.9999
C4_3 C 0.7426(2) 0.3521(2) 0.9945(3)
C6_3 C 0.6602(3) 0.2253(2) 0.9707(3)
C7_3 C 0.7193(3) 0.2174(2) 0.8681(3)
H5_3 H 0.7860 0.1929 0.8804
H6_3 H 0.6794 0.1862 0.8204
C8_3 C 0.7374(3) 0.2948(2) 0.8198(3)
H7_3 H 0.7753 0.2887 0.7540
C9_3 C 0.8023(3) 0.3427(2) 0.8936(3)
H8_3 H 0.8689 0.3184 0.9069
H9_3 H 0.8157 0.3917 0.8626
C10_3 C 0.6384(3) 0.3907(2) 0.9747(3)
H10_3 H 0.6498 0.4401 0.9444
C11_3 C 0.5744(3) 0.3416(2) 0.9001(3)
H12_3 H 0.5070 0.3659 0.8865
C12_3 C 0.5561(3) 0.2646(2) 0.9495(3)
H13_3 H 0.5141 0.2338 0.9032
C13_3 C 0.6337(3) 0.3327(2) 0.7984(3)
H15_3 H 0.5931 0.3025 0.7501
H16_3 H 0.6453 0.3818 0.7672
N4_3 N 0.4384(2) 0.95845(17) 0.1352(3)
N5_3 N 0.6451(2) 0.96474(17) 0.2982(2)
N4_4 N 0.5616(2) 0.04155(17) 0.6352(3)
N5_4 N 0.3549(2) 0.03526(17) 0.7982(2)
O1_4 O 0.4141(3) 0.85178(17) 0.6038(2)
N1_4 N 0.0616(2) 0.54155(17) 0.6352(3)
N2_4 N 0.1451(2) 0.53526(17) 0.7018(2)
N3_4 N 0.1946(2) 0.60097(16) 0.5675(2)
C1_4 C 0.0930(3) 0.5810(2) 0.5565(3)
H1_4 H 0.0514 0.5940 0.4999
C2_4 C 0.2230(3) 0.5710(2) 0.6602(2)
H2_4 H 0.2890 0.5755 0.6898
C3_4 C 0.3583(3) 0.8505(2) 0.5242(3)
C4_4 C 0.2574(2) 0.6479(2) 0.4945(3)
C5_4 C 0.2762(3) 0.72461(19) 0.5450(3)
H3_4 H 0.3139 0.7181 0.6100
H4_4 H 0.2098 0.7485 0.5604
C6_4 C 0.3398(3) 0.7747(2) 0.4707(3)
C7_4 C 0.2807(3) 0.7826(2) 0.3681(3)
H5_4 H 0.2140 0.8071 0.3804
H6_4 H 0.3206 0.8138 0.3204
C8_4 C 0.2626(3) 0.7052(2) 0.3198(3)
H7_4 H 0.2247 0.7113 0.2540
C9_4 C 0.1977(3) 0.6573(2) 0.3936(3)
H8_4 H 0.1311 0.6816 0.4069
H9_4 H 0.1843 0.6083 0.3626
C10_4 C 0.3616(3) 0.6093(2) 0.4747(3)
H10_4 H 0.3502 0.5599 0.4444
H11_4 H 0.3990 0.6030 0.5399
C11_4 C 0.4256(3) 0.6584(2) 0.4001(3)
H12_4 H 0.4930 0.6341 0.3865
C12_4 C 0.4439(3) 0.7354(2) 0.4495(3)
H13_4 H 0.4859 0.7662 0.4032
H14_4 H 0.4819 0.7293 0.5143
C13_4 C 0.3663(3) 0.6673(2) 0.2984(3)
H15_4 H 0.4069 0.6975 0.2501
H16_4 H 0.3547 0.6182 0.2672
O1_5 O 0.9141(3) 0.64822(17) 0.3962(2)
O2_3 O 0.8185(3) 0.59152(19) 0.5123(3)
N3_5 N 0.6946(2) 0.89903(16) 0.4325(2)
C1_5 C 0.5930(3) 0.9190(2) 0.4435(3)
H1_5 H 0.5514 0.9060 0.5001
C2_5 C 0.7230(3) 0.9290(2) 0.3398(2)
H2_5 H 0.7890 0.9245 0.3102
C3_5 C 0.8583(3) 0.6495(2) 0.4758(3)
C4_5 C 0.7574(2) 0.8521(2) 0.5055(3)
C5_5 C 0.7762(3) 0.77539(19) 0.4550(3)
H3_5 H 0.8139 0.7819 0.3900
H4_5 H 0.7098 0.7515 0.4396
C6_5 C 0.8398(3) 0.7253(2) 0.5293(3)
C7_5 C 0.7807(3) 0.7174(2) 0.6319(3)
H5_5 H 0.7140 0.6929 0.6196
H6_5 H 0.8206 0.6862 0.6796
C8_5 C 0.7626(3) 0.7948(2) 0.6802(3)
H7_5 H 0.7247 0.7887 0.7460
C9_5 C 0.6977(3) 0.8427(2) 0.6064(3)
H8_5 H 0.6311 0.8184 0.5931
H9_5 H 0.6843 0.8917 0.6374
C10_5 C 0.8616(3) 0.8907(2) 0.5253(3)
H10_5 H 0.8502 0.9401 0.5556
H11_5 H 0.8990 0.8970 0.4601
C11_5 C 0.9256(3) 0.8416(2) 0.5999(3)
H12_5 H 0.9930 0.8659 0.6135
C12_5 C 0.9439(3) 0.7646(2) 0.5505(3)
H13_5 H 0.9859 0.7338 0.5968
H14_5 H 0.9819 0.7707 0.4857
C13_5 C 0.8663(3) 0.8327(2) 0.7016(3)
H15_5 H 0.9069 0.8025 0.7499
H16_5 H 0.8547 0.8818 0.7328
O3_3 O 0.8185(3) 0.40848(19) 0.4877(3)
O2_4 O 0.1815(3) 0.40848(19) 0.0123(3)
H1_6 H 0.4486 0.0940 0.0001
C4_6 C 0.2426(2) 0.1479(2) 0.0055(3)
C6_6 C 0.1602(3) 0.2747(2) 0.0293(3)
C7_6 C 0.2193(3) 0.2826(2) 0.1319(3)
H5_6 H 0.2860 0.3071 0.1196
H6_6 H 0.1794 0.3138 0.1796
C8_6 C 0.2374(3) 0.2052(2) 0.1802(3)
H7_6 H 0.2753 0.2113 0.2460
C9_6 C 0.3023(3) 0.1573(2) 0.1064(3)
H8_6 H 0.3689 0.1816 0.0931
H9_6 H 0.3157 0.1083 0.1374
C10_6 C 0.1384(3) 0.1093(2) 0.0253(3)
H10_6 H 0.1498 0.0599 0.0556
C11_6 C 0.0744(3) 0.1584(2) 0.0999(3)
H12_6 H 0.0070 0.1341 0.1135
C12_6 C 0.0561(3) 0.2354(2) 0.0505(3)
H13_6 H 0.0141 0.2662 0.0968
C13_6 C 0.1337(3) 0.1673(2) 0.2016(3)
H15_6 H 0.0931 0.1975 0.2499
H16_6 H 0.1453 0.1182 0.2328
O1_6 O 0.0859(3) 0.35178(17) 0.8962(2)
N3_6 N 0.3054(2) 0.10097(16) 0.9325(2)
C1_6 C 0.4070(3) 0.0810(2) 0.9435(3)
C2_6 C 0.2770(3) 0.0710(2) 0.8398(2)
H2_6 H 0.2110 0.0755 0.8102
C3_6 C 0.1417(3) 0.3505(2) 0.9758(3)
C5_6 C 0.2238(3) 0.22461(19) 0.9550(3)
H3_6 H 0.1861 0.2181 0.8900
H4_6 H 0.2902 0.2485 0.9396
H11_6 H 0.1010 0.1030 0.9601
H14_6 H 0.0181 0.2293 0.9857
O3_4 O 0.1815(3) 0.59152(19) 0.9877(3)
O1_7 O 0.0859(3) 0.64822(17) 0.1038(2)
N3_7 N 0.3054(2) 0.89903(16) 0.0675(2)
C1_7 C 0.4070(3) 0.9190(2) 0.0565(3)
C2_7 C 0.2770(3) 0.9290(2) 0.1602(2)
H2_7 H 0.2110 0.9245 0.1898
C3_7 C 0.1417(3) 0.6495(2) 0.0242(3)
C5_7 C 0.2238(3) 0.77539(19) 0.0450(3)
H3_7 H 0.1861 0.7819 0.1100
H4_7 H 0.2902 0.7515 0.0604
H11_7 H 0.1010 0.8970 0.0399
H14_7 H 0.0181 0.7707 0.0143
H1_7 H 0.4486 0.9060 0.9999
C4_7 C 0.2426(2) 0.8521(2) 0.9945(3)
C6_7 C 0.1602(3) 0.7253(2) 0.9707(3)
C7_7 C 0.2193(3) 0.7174(2) 0.8681(3)
H5_7 H 0.2860 0.6929 0.8804
H6_7 H 0.1794 0.6862 0.8204
C8_7 C 0.2374(3) 0.7948(2) 0.8198(3)
H7_7 H 0.2753 0.7887 0.7540
C9_7 C 0.3023(3) 0.8427(2) 0.8936(3)
H8_7 H 0.3689 0.8184 0.9069
H9_7 H 0.3157 0.8917 0.8626
C10_7 C 0.1384(3) 0.8907(2) 0.9747(3)
H10_7 H 0.1498 0.9401 0.9444
C11_7 C 0.0744(3) 0.8416(2) 0.9001(3)
H12_7 H 0.0070 0.8659 0.8865
C12_7 C 0.0561(3) 0.7646(2) 0.9495(3)
H13_7 H 0.0141 0.7338 0.9032
C13_7 C 0.1337(3) 0.8327(2) 0.7984(3)
H15_7 H 0.0931 0.8025 0.7501
H16_7 H 0.1453 0.8818 0.7672
O1_8 O 0.9141(3) 0.35178(17) 0.6038(2)
N3_8 N 0.6946(2) 0.10097(16) 0.5675(2)
C1_8 C 0.5930(3) 0.0810(2) 0.5565(3)
H1_8 H 0.5514 0.0940 0.4999
C2_8 C 0.7230(3) 0.0710(2) 0.6602(2)
H2_8 H 0.7890 0.0755 0.6898
C3_8 C 0.8583(3) 0.3505(2) 0.5242(3)
C4_8 C 0.7574(2) 0.1479(2) 0.4945(3)
C5_8 C 0.7762(3) 0.22461(19) 0.5450(3)
H3_8 H 0.8139 0.2181 0.6100
H4_8 H 0.7098 0.2485 0.5604
C6_8 C 0.8398(3) 0.2747(2) 0.4707(3)
C7_8 C 0.7807(3) 0.2826(2) 0.3681(3)
H5_8 H 0.7140 0.3071 0.3804
H6_8 H 0.8206 0.3138 0.3204
C8_8 C 0.7626(3) 0.2052(2) 0.3198(3)
H7_8 H 0.7247 0.2113 0.2540
C9_8 C 0.6977(3) 0.1573(2) 0.3936(3)
H8_8 H 0.6311 0.1816 0.4069
H9_8 H 0.6843 0.1083 0.3626
C10_8 C 0.8616(3) 0.1093(2) 0.4747(3)
H10_8 H 0.8502 0.0599 0.4444
H11_8 H 0.8990 0.1030 0.5399
C11_8 C 0.9256(3) 0.1584(2) 0.4001(3)
H12_8 H 0.9930 0.1341 0.3865
C12_8 C 0.9439(3) 0.2354(2) 0.4495(3)
H13_8 H 0.9859 0.2662 0.4032
H14_8 H 0.9819 0.2293 0.5143
C13_8 C 0.8663(3) 0.1673(2) 0.2984(3)
H15_8 H 0.9069 0.1975 0.2501
H16_8 H 0.8547 0.1182 0.2672
loop_
_geom_bond_atom_site_label_1
_geom_bond_atom_site_label_2
_geom_bond_site_symmetry_1
_geom_bond_site_symmetry_2
Ag1 O1 1_555 1_555
O1 C3 1_555 1_555
O2 Ag1 1_555 1_555
N1 N2 1_555 1_555
N2 C2 1_555 1_555
N3 C1 1_555 1_555
C1 N1 1_555 1_555
H1 C1 1_555 1_555
C2 N3 1_555 1_555
H2 C2 1_555 1_555
C3 O2 1_555 1_555
C4 N3 1_555 1_555
C5 C4 1_555 1_555
H3 C5 1_555 1_555
H4 C5 1_555 1_555
C6 C3 1_555 1_555
C7 C6 1_555 1_555
H5 C7 1_555 1_555
H6 C7 1_555 1_555
C8 C7 1_555 1_555
H7 C8 1_555 1_555
C9 C4 1_555 1_555
H8 C9 1_555 1_555
H9 C9 1_555 1_555
C10 C4 1_555 1_555
H10 C10 1_555 1_555
H11 C10 1_555 1_555
C11 C10 1_555 1_555
H12 C11 1_555 1_555
C12 C6 1_555 1_555
H13 C12 1_555 1_555
H14 C12 1_555 1_555
C13 C8 1_555 1_555
H15 C13 1_555 1_555
H16 C13 1_555 1_555
Ag4 N2 1_555 1_555
C5 C6 1_555 1_555
C8 C9 1_555 1_555
C11 C12 1_555 1_555
C11 C13 1_555 1_555
Ag2 O3 1_555 1_555
C7_2 C6_2 1_555 1_555
H5_2 C7_2 1_555 1_555
H6_2 C7_2 1_555 1_555
C8_2 C7_2 1_555 1_555
H7_2 C8_2 1_555 1_555
C9_2 C4_2 1_555 1_555
H8_2 C9_2 1_555 1_555
H9_2 C9_2 1_555 1_555
C10_2 C4_2 1_555 1_555
H10_2 C10_2 1_555 1_555
C11_2 C10_2 1_555 1_555
H12_2 C11_2 1_555 1_555
C12_2 C6_2 1_555 1_555
H13_2 C12_2 1_555 1_555
C13_2 C8_2 1_555 1_555
H15_2 C13_2 1_555 1_555
H16_2 C13_2 1_555 1_555
C8_2 C9_2 1_555 1_555
C11_2 C12_2 1_555 1_555
C11_2 C13_2 1_555 1_555
Ag1_2 O1_2 1_555 1_555
O1_2 C3_2 1_555 1_555
N1_2 N2_2 1_555 1_555
N2_2 C2_2 1_555 1_555
N3_2 C1_2 1_555 1_555
C1_2 N1_2 1_555 1_555
C2_2 N3_2 1_555 1_555
H2_2 C2_2 1_555 1_555
H3_2 C5_2 1_555 1_555
H4_2 C5_2 1_555 1_555
Ag4_2 N2_2 1_555 1_555
Ag2_2 O1_3 1_555 1_555
O1_3 C3_3 1_555 1_555
N1_3 N2_3 1_555 1_555
N2_3 C2_3 1_555 1_555
N3_3 C1_3 1_555 1_555
C1_3 N1_3 1_555 1_555
C2_3 N3_3 1_555 1_555
H2_3 C2_3 1_555 1_555
H3_3 C5_3 1_555 1_555
H4_3 C5_3 1_555 1_555
Ag3 N2_3 1_555 1_555
C7_3 C6_3 1_555 1_555
H5_3 C7_3 1_555 1_555
H6_3 C7_3 1_555 1_555
C8_3 C7_3 1_555 1_555
H7_3 C8_3 1_555 1_555
C9_3 C4_3 1_555 1_555
H8_3 C9_3 1_555 1_555
H9_3 C9_3 1_555 1_555
C10_3 C4_3 1_555 1_555
H10_3 C10_3 1_555 1_555
C11_3 C10_3 1_555 1_555
H12_3 C11_3 1_555 1_555
C12_3 C6_3 1_555 1_555
H13_3 C12_3 1_555 1_555
C13_3 C8_3 1_555 1_555
H15_3 C13_3 1_555 1_555
H16_3 C13_3 1_555 1_555
C8_3 C9_3 1_555 1_555
C11_3 C12_3 1_555 1_555
C11_3 C13_3 1_555 1_555
Ag2 O1_4 1_555 1_555
O1_4 C3_4 1_555 1_555
N1_4 N2_4 1_555 1_555
N2_4 C2_4 1_555 1_555
N3_4 C1_4 1_555 1_555
C1_4 N1_4 1_555 1_555
H1_4 C1_4 1_555 1_555
C2_4 N3_4 1_555 1_555
H2_4 C2_4 1_555 1_555
C3_4 O3 1_555 1_555
C4_4 N3_4 1_555 1_555
C5_4 C4_4 1_555 1_555
H3_4 C5_4 1_555 1_555
H4_4 C5_4 1_555 1_555
C6_4 C3_4 1_555 1_555
C7_4 C6_4 1_555 1_555
H5_4 C7_4 1_555 1_555
H6_4 C7_4 1_555 1_555
C8_4 C7_4 1_555 1_555
H7_4 C8_4 1_555 1_555
C9_4 C4_4 1_555 1_555
H8_4 C9_4 1_555 1_555
H9_4 C9_4 1_555 1_555
C10_4 C4_4 1_555 1_555
H10_4 C10_4 1_555 1_555
H11_4 C10_4 1_555 1_555
C11_4 C10_4 1_555 1_555
H12_4 C11_4 1_555 1_555
C12_4 C6_4 1_555 1_555
H13_4 C12_4 1_555 1_555
H14_4 C12_4 1_555 1_555
C13_4 C8_4 1_555 1_555
H15_4 C13_4 1_555 1_555
H16_4 C13_4 1_555 1_555
Ag3_2 N2_4 1_555 1_555
C5_4 C6_4 1_555 1_555
C8_4 C9_4 1_555 1_555
C11_4 C12_4 1_555 1_555
C11_4 C13_4 1_555 1_555
Ag3 O1_5 1_555 1_555
O1_5 C3_5 1_555 1_555
O2_3 Ag3 1_555 1_555
N4 N5_3 1_555 1_555
N5_3 C2_5 1_555 1_555
N3_5 C1_5 1_555 1_555
C1_5 N4 1_555 1_555
H1_5 C1_5 1_555 1_555
C2_5 N3_5 1_555 1_555
H2_5 C2_5 1_555 1_555
C3_5 O2_3 1_555 1_555
C4_5 N3_5 1_555 1_555
C5_5 C4_5 1_555 1_555
H3_5 C5_5 1_555 1_555
H4_5 C5_5 1_555 1_555
C6_5 C3_5 1_555 1_555
C7_5 C6_5 1_555 1_555
H5_5 C7_5 1_555 1_555
H6_5 C7_5 1_555 1_555
C8_5 C7_5 1_555 1_555
H7_5 C8_5 1_555 1_555
C9_5 C4_5 1_555 1_555
H8_5 C9_5 1_555 1_555
H9_5 C9_5 1_555 1_555
C10_5 C4_5 1_555 1_555
H10_5 C10_5 1_555 1_555
H11_5 C10_5 1_555 1_555
C11_5 C10_5 1_555 1_555
H12_5 C11_5 1_555 1_555
C12_5 C6_5 1_555 1_555
H13_5 C12_5 1_555 1_555
H14_5 C12_5 1_555 1_555
C13_5 C8_5 1_555 1_555
H15_5 C13_5 1_555 1_555
H16_5 C13_5 1_555 1_555
Ag4_2 O2_3 1_555 1_555
O3_3 Ag3 1_555 1_555
C5_5 C6_5 1_555 1_555
C8_5 C9_5 1_555 1_555
C11_5 C12_5 1_555 1_555
C11_5 C13_5 1_555 1_555
Ag4_2 O3_3 1_555 1_555
C7_6 C6_6 1_555 1_555
H5_6 C7_6 1_555 1_555
H6_6 C7_6 1_555 1_555
C8_6 C7_6 1_555 1_555
H7_6 C8_6 1_555 1_555
C9_6 C4_6 1_555 1_555
H8_6 C9_6 1_555 1_555
H9_6 C9_6 1_555 1_555
C10_6 C4_6 1_555 1_555
H10_6 C10_6 1_555 1_555
C11_6 C10_6 1_555 1_555
H12_6 C11_6 1_555 1_555
C12_6 C6_6 1_555 1_555
H13_6 C12_6 1_555 1_555
C13_6 C8_6 1_555 1_555
H15_6 C13_6 1_555 1_555
H16_6 C13_6 1_555 1_555
Ag4 O2_4 1_555 1_555
C8_6 C9_6 1_555 1_555
C11_6 C12_6 1_555 1_555
C11_6 C13_6 1_555 1_555
Ag3_2 O1_6 1_555 1_555
O1_6 C3_6 1_555 1_555
N4_2 N5_4 1_555 1_555
N5_4 C2_6 1_555 1_555
N3_6 C1_6 1_555 1_555
C1_6 N4_2 1_555 1_555
C2_6 N3_6 1_555 1_555
H2_6 C2_6 1_555 1_555
H3_6 C5_6 1_555 1_555
H4_6 C5_6 1_555 1_555
O3_4 Ag3_2 1_555 1_555
Ag4 O1_7 1_555 1_555
O1_7 C3_7 1_555 1_555
N4_3 N5 1_555 1_555
N5 C2_7 1_555 1_555
N3_7 C1_7 1_555 1_555
C1_7 N4_3 1_555 1_555
C2_7 N3_7 1_555 1_555
H2_7 C2_7 1_555 1_555
H3_7 C5_7 1_555 1_555
H4_7 C5_7 1_555 1_555
C7_7 C6_7 1_555 1_555
H5_7 C7_7 1_555 1_555
H6_7 C7_7 1_555 1_555
C8_7 C7_7 1_555 1_555
H7_7 C8_7 1_555 1_555
C9_7 C4_7 1_555 1_555
H8_7 C9_7 1_555 1_555
H9_7 C9_7 1_555 1_555
C10_7 C4_7 1_555 1_555
H10_7 C10_7 1_555 1_555
C11_7 C10_7 1_555 1_555
H12_7 C11_7 1_555 1_555
C12_7 C6_7 1_555 1_555
H13_7 C12_7 1_555 1_555
C13_7 C8_7 1_555 1_555
H15_7 C13_7 1_555 1_555
H16_7 C13_7 1_555 1_555
C8_7 C9_7 1_555 1_555
C11_7 C12_7 1_555 1_555
C11_7 C13_7 1_555 1_555
Ag4_2 O1_8 1_555 1_555
O1_8 C3_8 1_555 1_555
N4_4 N5_2 1_555 1_555
N5_2 C2_8 1_555 1_555
N3_8 C1_8 1_555 1_555
C1_8 N4_4 1_555 1_555
H1_8 C1_8 1_555 1_555
C2_8 N3_8 1_555 1_555
H2_8 C2_8 1_555 1_555
C3_8 O3_3 1_555 1_555
C4_8 N3_8 1_555 1_555
C5_8 C4_8 1_555 1_555
H3_8 C5_8 1_555 1_555
H4_8 C5_8 1_555 1_555
C6_8 C3_8 1_555 1_555
C7_8 C6_8 1_555 1_555
H5_8 C7_8 1_555 1_555
H6_8 C7_8 1_555 1_555
C8_8 C7_8 1_555 1_555
H7_8 C8_8 1_555 1_555
C9_8 C4_8 1_555 1_555
H8_8 C9_8 1_555 1_555
H9_8 C9_8 1_555 1_555
C10_8 C4_8 1_555 1_555
H10_8 C10_8 1_555 1_555
H11_8 C10_8 1_555 1_555
C11_8 C10_8 1_555 1_555
H12_8 C11_8 1_555 1_555
C12_8 C6_8 1_555 1_555
H13_8 C12_8 1_555 1_555
H14_8 C12_8 1_555 1_555
C13_8 C8_8 1_555 1_555
H15_8 C13_8 1_555 1_555
H16_8 C13_8 1_555 1_555
C5_8 C6_8 1_555 1_555
C8_8 C9_8 1_555 1_555
C11_8 C12_8 1_555 1_555
C11_8 C13_8 1_555 1_555

#END
