
###############################################################################
#
# This file contains modified crystal structure data generated from the
# MOF subset of the Cambridge Structural Database (CSD) v543 
# hosted by the Cambridge Crystallographic Data Centre (CCDC).
#
# This work is licensed under the Creative Commons
# Attribution-NonCommercial-ShareAlike 4.0 International License.
# To view a copy of this license, visit
# http://creativecommons.org/licenses/by-nc-sa/4.0/
# or send a letter to
# Creative Commons, PO Box 1866, Mountain View, CA 94042, USA.
#
# CIF created using the CSD Python API on 29 September 2022
# The structure has been converted into the P1 space group
# The structure has a 3D framework
# The original CSD entry MOJPOT02 is in the rhombohedral crystal system
# The framework has been calculated to contain at least 10.0% void space
# The void calculation uses a probe of radius 1.32A, grid spacing 0.4
# H atom positions have been added when not included in the experimental data
#
###############################################################################

data_MOJPOT02
_chemical_formula_moiety         '(C72 H18 Cu7 O44)n'
_symmetry_cell_setting           triclinic
_symmetry_space_group_name_H-M   'P 1'
_symmetry_Int_Tables_number      1
_space_group_name_Hall           'P 1'
loop_
_symmetry_equiv_pos_site_id
_symmetry_equiv_pos_as_xyz
1 x,y,z
_cell_length_a                   25.9143(3)
_cell_length_b                   25.9143(3)
_cell_length_c                   6.27683(7)
_cell_angle_alpha                90
_cell_angle_beta                 90
_cell_angle_gamma                120
_cell_volume                     3650.48
loop_
_atom_site_label
_atom_site_type_symbol
_atom_site_fract_x
_atom_site_fract_y
_atom_site_fract_z
Cu7 Cu 0.31802(7) 0.37125(5) 0.0090(2)
Cu1 Cu 0.29542(5) 0.28011(5) 0.3423(2)
C1 C 0.1609(3) 0.3122(3) 0.1253(13)
C2 C 0.1201(4) 0.3275(4) 0.1993(15)
C3 C 0.2094(4) 0.3191(4) 0.2533(12)
C4 C 0.0764(3) 0.3226(4) 0.0336(13)
O1 O 0.2518(2) 0.3073(2) 0.1706(9)
O3 O 0.0520(2) 0.3547(2) 0.0656(8)
C5 C 0.1724(3) 0.3545(3) 0.5414(13)
C6 C 0.2132(4) 0.3392(4) 0.4674(15)
C7 C 0.1239(4) 0.3476(4) 0.4134(12)
C8 C 0.2569(3) 0.3441(4) 0.6331(13)
O4 O 0.0815(2) 0.3594(2) 0.4961(9)
O5 O 0.2668(2) 0.3745(2) 0.7966(9)
O6 O 0.2813(2) 0.3120(2) 0.6011(8)
Cu4 Cu 0.01531(7) 0.29542(5) 0.6577(2)
Cu5 Cu 0.38656(5) 0.34864(7) 0.6756(2)
Cu8 Cu 0.03791(5) 0.38656(5) 0.3244(2)
O7 O 0.3594(2) 0.2778(3) 0.5039(9)
O9 O 0.2922(2) 0.2257(3) 0.1299(9)
O12 O 0.3640(3) 0.3853(2) 0.2677(8)
H1 H 0.177473 0.372291 0.701939
O2 O 0.0665(2) 0.2922(2) 0.8701(9)
O8 O 0.3888(3) 0.4149(2) 0.8373(9)
O11 O 0.3547(2) 0.3027(3) 0.9344(8)
H2 H 0.15586 0.294375 0.964728
Cu6 Cu 0.94678(5) 0.31802(7) 0.9910(2)
Cu6_2 Cu 0.37125(9) 0.05322(5) 0.9910(2)
Cu7_2 Cu 0.05322(9) 0.68198(7) 0.0090(2)
C1_2 C 0.1513(4) 0.8391(3) 0.1253(13)
C2_2 C 0.2074(6) 0.8799(4) 0.1993(15)
C3_2 C 0.1097(6) 0.7906(4) 0.2533(12)
C4_2 C 0.2462(5) 0.9236(3) 0.0336(13)
O1_2 O 0.0555(3) 0.7482(2) 0.1706(9)
O3_2 O 0.3027(3) 0.9480(2) 0.0656(8)
C5_2 C 0.1820(4) 0.8276(3) 0.5414(13)
C6_2 C 0.1259(6) 0.7868(4) 0.4674(15)
C7_2 C 0.2236(6) 0.8761(4) 0.4134(12)
C8_2 C 0.0871(5) 0.7431(3) 0.6331(13)
O4_2 O 0.2778(3) 0.9185(2) 0.4961(9)
O5_2 O 0.1076(3) 0.7332(2) 0.7966(9)
O6_2 O 0.0306(3) 0.7187(2) 0.6011(8)
Cu4_2 Cu 0.28011(9) 0.98469(7) 0.6577(2)
Cu8_2 Cu 0.34864(7) 0.96209(5) 0.3244(2)
O12_2 O 0.0214(4) 0.6360(3) 0.2677(8)
H1_2 H 0.194818 0.822527 0.701939
O2_2 O 0.2257(3) 0.9335(2) 0.8701(9)
O8_2 O 0.0260(4) 0.6112(3) 0.8373(9)
H2_2 H 0.138515 0.84414 0.964728
Cu1_2 Cu 0.98469(7) 0.70458(5) 0.3423(2)
Cu5_2 Cu 0.96209(9) 0.61344(5) 0.6756(2)
O7_2 O 0.9185(4) 0.6406(2) 0.5039(9)
O9_2 O 0.9335(4) 0.7078(2) 0.1299(9)
O11_2 O 0.9480(4) 0.6453(2) 0.9344(8)
Cu1_3 Cu 0.71989(5) 0.01531(7) 0.3423(2)
Cu5_3 Cu 0.65136(7) 0.03791(9) 0.6756(2)
O7_3 O 0.7222(3) 0.0815(4) 0.5039(9)
O9_3 O 0.7743(3) 0.0665(4) 0.1299(9)
O11_3 O 0.6973(3) 0.0520(4) 0.9344(8)
Cu7_3 Cu 0.62875(5) 0.94678(9) 0.0090(2)
C1_3 C 0.6878(3) 0.8487(4) 0.1253(13)
C2_3 C 0.6725(4) 0.7926(6) 0.1993(15)
C3_3 C 0.6809(4) 0.8903(6) 0.2533(12)
C4_3 C 0.6774(4) 0.7538(5) 0.0336(13)
O1_3 O 0.6927(2) 0.9445(3) 0.1706(9)
O3_3 O 0.6453(2) 0.6973(3) 0.0656(8)
C5_3 C 0.6455(3) 0.8180(4) 0.5414(13)
C6_3 C 0.6608(4) 0.8741(6) 0.4674(15)
C7_3 C 0.6524(4) 0.7764(6) 0.4134(12)
C8_3 C 0.6559(4) 0.9129(5) 0.6331(13)
O4_3 O 0.6406(2) 0.7222(3) 0.4961(9)
O5_3 O 0.6255(2) 0.8924(3) 0.7966(9)
O6_3 O 0.6880(2) 0.9694(3) 0.6011(8)
Cu4_3 Cu 0.70458(5) 0.71989(9) 0.6577(2)
Cu8_3 Cu 0.61344(5) 0.65136(7) 0.3244(2)
O12_3 O 0.6147(2) 0.9786(4) 0.2677(8)
H1_3 H 0.627709 0.805182 0.701939
O2_3 O 0.7078(2) 0.7743(3) 0.8701(9)
Cu6_3 Cu 0.68198(7) 0.62875(9) 0.9910(2)
O8_3 O 0.5851(2) 0.9740(4) 0.8373(9)
H2_3 H 0.705625 0.861485 0.964728
H1_4 H 0.84414 0.705625 0.035272
C1_4 C 0.8276(3) 0.6455(3) 0.4586(13)
C2_4 C 0.7868(4) 0.6608(4) 0.5326(15)
C3_4 C 0.8761(4) 0.6524(4) 0.5866(12)
C4_4 C 0.7431(3) 0.6559(4) 0.3669(13)
O2_4 O 0.7332(2) 0.6255(2) 0.2034(9)
O3_4 O 0.7187(2) 0.6880(2) 0.3989(8)
C5_4 C 0.8391(3) 0.6878(3) 0.8747(13)
C6_4 C 0.8799(4) 0.6725(4) 0.8007(15)
C7_4 C 0.7906(4) 0.6809(4) 0.7467(12)
C8_4 C 0.9236(3) 0.6774(4) 0.9664(13)
O4_4 O 0.7482(2) 0.6927(2) 0.8294(9)
O9_4 O 0.9589(2) 0.5590(3) 0.4632(9)
H2_4 H 0.822527 0.627709 0.298061
H1_5 H 0.861485 0.15586 0.035272
C1_5 C 0.8180(4) 0.1724(3) 0.4586(13)
C2_5 C 0.8741(6) 0.2132(4) 0.5326(15)
C3_5 C 0.7764(6) 0.1239(4) 0.5866(12)
C4_5 C 0.9129(5) 0.2569(3) 0.3669(13)
O2_5 O 0.8924(3) 0.2668(2) 0.2034(9)
O3_5 O 0.9694(3) 0.2813(2) 0.3989(8)
C5_5 C 0.8487(4) 0.1609(3) 0.8747(13)
C6_5 C 0.7926(6) 0.1201(4) 0.8007(15)
C7_5 C 0.8903(6) 0.2094(4) 0.7467(12)
C8_5 C 0.7538(5) 0.0764(3) 0.9664(13)
O4_5 O 0.9445(3) 0.2518(2) 0.8294(9)
O9_5 O 0.6002(4) 0.0411(2) 0.4632(9)
H2_5 H 0.805182 0.177473 0.298061
H1_6 H 0.294375 0.138515 0.035272
C1_6 C 0.3545(3) 0.1820(4) 0.4586(13)
C2_6 C 0.3392(4) 0.1259(6) 0.5326(15)
C3_6 C 0.3476(4) 0.2236(6) 0.5866(12)
C4_6 C 0.3441(4) 0.0871(5) 0.3669(13)
O2_6 O 0.3745(2) 0.1076(3) 0.2034(9)
O3_6 O 0.3120(2) 0.0306(3) 0.3989(8)
C5_6 C 0.3122(3) 0.1513(4) 0.8747(13)
C6_6 C 0.3275(4) 0.2074(6) 0.8007(15)
C7_6 C 0.3191(4) 0.1097(6) 0.7467(12)
C8_6 C 0.3226(4) 0.2462(5) 0.9664(13)
O4_6 O 0.3073(2) 0.0555(3) 0.8294(9)
O9_6 O 0.4410(3) 0.3998(4) 0.4632(9)
H2_6 H 0.372291 0.194818 0.298061
C5_7 C 0.5058(3) 0.0211(3) 0.2080(13)
C6_7 C 0.5466(4) 0.0058(4) 0.1340(15)
C7_7 C 0.4573(4) 0.0142(4) 0.0800(12)
C8_7 C 0.5903(3) 0.0107(4) 0.2997(13)
O4_7 O 0.4149(2) 0.0260(2) 0.1627(9)
H1_7 H 0.510807 0.038958 0.368605
O3_7 O 0.3853(2) 0.0214(2) 0.7323(8)
C1_7 C 0.4942(3) 0.9789(3) 0.7920(13)
C2_7 C 0.4534(4) 0.9942(4) 0.8660(15)
C3_7 C 0.5427(4) 0.9858(4) 0.9200(12)
C4_7 C 0.4097(3) 0.9893(4) 0.7003(13)
O2_7 O 0.3998(2) 0.9589(2) 0.5368(9)
H2_7 H 0.489193 0.961042 0.631395
C5_8 C 0.5154(4) 0.4942(3) 0.2080(13)
C6_8 C 0.4593(6) 0.4534(4) 0.1340(15)
C7_8 C 0.5570(6) 0.5427(4) 0.0800(12)
C8_8 C 0.4205(5) 0.4097(3) 0.2997(13)
O4_8 O 0.6112(3) 0.5851(2) 0.1627(9)
H1_8 H 0.528151 0.489193 0.368605
C1_8 C 0.4846(4) 0.5058(3) 0.7920(13)
C2_8 C 0.5407(6) 0.5466(4) 0.8660(15)
C3_8 C 0.4430(6) 0.4573(4) 0.9200(12)
C4_8 C 0.5795(5) 0.5903(3) 0.7003(13)
O2_8 O 0.5590(3) 0.6002(2) 0.5368(9)
O3_8 O 0.6360(3) 0.6147(2) 0.7323(8)
H2_8 H 0.471849 0.510807 0.631395
C1_9 C 0.0211(3) 0.5154(4) 0.7920(13)
C2_9 C 0.0058(4) 0.4593(6) 0.8660(15)
C3_9 C 0.0142(4) 0.5570(6) 0.9200(12)
C4_9 C 0.0107(4) 0.4205(5) 0.7003(13)
O2_9 O 0.0411(2) 0.4410(3) 0.5368(9)
H2_9 H 0.038958 0.528151 0.631395
C5_9 C 0.9789(3) 0.4846(4) 0.2080(13)
C6_9 C 0.9942(4) 0.5407(6) 0.1340(15)
C7_9 C 0.9858(4) 0.4430(6) 0.0800(12)
C8_9 C 0.9893(4) 0.5795(5) 0.2997(13)
O4_9 O 0.9740(2) 0.3888(3) 0.1627(9)
H1_9 H 0.961042 0.471849 0.368605
O3_9 O 0.9786(2) 0.3640(3) 0.7323(8)
loop_
_geom_bond_atom_site_label_1
_geom_bond_atom_site_label_2
_geom_bond_site_symmetry_1
_geom_bond_site_symmetry_2
Cu1 O1 1_555 1_555
C1 C2 1_555 1_555
C2 C4 1_555 1_555
C3 C1 1_555 1_555
O1 C3 1_555 1_555
O3 C4 1_555 1_555
C5 C6 1_555 1_555
C6 C3 1_555 1_555
C7 C2 1_555 1_555
C8 C6 1_555 1_555
O4 C7 1_555 1_555
O5 C8 1_555 1_555
O6 Cu1 1_555 1_555
Cu7 O1 1_555 1_555
Cu4 O4 1_555 1_555
Cu5 O6 1_555 1_555
Cu8 O3 1_555 1_555
O7 Cu1 1_555 1_555
O9 Cu1 1_555 1_555
O12 Cu1 1_555 1_555
C5 C7 1_555 1_555
C8 O6 1_555 1_555
O4 Cu8 1_555 1_555
Cu7 O12 1_555 1_555
Cu5 O7 1_555 1_555
C5 H1 1_555 1_555
O2 Cu4 1_555 1_555
C1_2 C2_2 1_555 1_555
C2_2 C4_2 1_555 1_555
C3_2 C1_2 1_555 1_555
O1_2 C3_2 1_555 1_555
O3_2 C4_2 1_555 1_555
C5_2 C6_2 1_555 1_555
C6_2 C3_2 1_555 1_555
C7_2 C2_2 1_555 1_555
C8_2 C6_2 1_555 1_555
O4_2 C7_2 1_555 1_555
O5_2 C8_2 1_555 1_555
Cu7_2 O1_2 1_555 1_555
Cu4_2 O4_2 1_555 1_555
Cu8_2 O3_2 1_555 1_555
C5_2 C7_2 1_555 1_555
C8_2 O6_2 1_555 1_555
O4_2 Cu8_2 1_555 1_555
Cu7_2 O12_2 1_555 1_555
C5_2 H1_2 1_555 1_555
O2_2 Cu4_2 1_555 1_555
O7_2 Cu1_2 1_555 1_555
O9_2 Cu1_2 1_555 1_555
Cu5_2 O7_2 1_555 1_555
O7_3 Cu1_3 1_555 1_555
O9_3 Cu1_3 1_555 1_555
Cu5_3 O7_3 1_555 1_555
C1_3 C2_3 1_555 1_555
C2_3 C4_3 1_555 1_555
C3_3 C1_3 1_555 1_555
O1_3 C3_3 1_555 1_555
O3_3 C4_3 1_555 1_555
C5_3 C6_3 1_555 1_555
C6_3 C3_3 1_555 1_555
C7_3 C2_3 1_555 1_555
C8_3 C6_3 1_555 1_555
O4_3 C7_3 1_555 1_555
O5_3 C8_3 1_555 1_555
Cu7_3 O1_3 1_555 1_555
Cu4_3 O4_3 1_555 1_555
Cu8_3 O3_3 1_555 1_555
C5_3 C7_3 1_555 1_555
C8_3 O6_3 1_555 1_555
O4_3 Cu8_3 1_555 1_555
Cu7_3 O12_3 1_555 1_555
C5_3 H1_3 1_555 1_555
O2_3 Cu4_3 1_555 1_555
C1_4 C2_4 1_555 1_555
C2_4 C4_4 1_555 1_555
C3_4 C1_4 1_555 1_555
C4_4 O2_4 1_555 1_555
O7_2 C3_4 1_555 1_555
O3_4 C4_4 1_555 1_555
C5_4 C6_4 1_555 1_555
C6_4 C3_4 1_555 1_555
C7_4 C2_4 1_555 1_555
C8_4 C6_4 1_555 1_555
O4_4 C7_4 1_555 1_555
O11_2 Cu5_2 1_555 1_555
Cu6_3 O4_4 1_555 1_555
Cu8_3 O3_4 1_555 1_555
Cu4_3 O3_4 1_555 1_555
O9_4 Cu5_2 1_555 1_555
C5_4 C7_4 1_555 1_555
C8_4 O11_2 1_555 1_555
O4_4 Cu4_3 1_555 1_555
C1_4 H2_4 1_555 1_555
C1_5 C2_5 1_555 1_555
C2_5 C4_5 1_555 1_555
C3_5 C1_5 1_555 1_555
C4_5 O2_5 1_555 1_555
O7_3 C3_5 1_555 1_555
O3_5 C4_5 1_555 1_555
C5_5 C6_5 1_555 1_555
C6_5 C3_5 1_555 1_555
C7_5 C2_5 1_555 1_555
C8_5 C6_5 1_555 1_555
O4_5 C7_5 1_555 1_555
O11_3 Cu5_3 1_555 1_555
Cu6 O4_5 1_555 1_555
O9_5 Cu5_3 1_555 1_555
C5_5 C7_5 1_555 1_555
C8_5 O11_3 1_555 1_555
C1_5 H2_5 1_555 1_555
C1_6 C2_6 1_555 1_555
C2_6 C4_6 1_555 1_555
C3_6 C1_6 1_555 1_555
C4_6 O2_6 1_555 1_555
O7 C3_6 1_555 1_555
O3_6 C4_6 1_555 1_555
C5_6 C6_6 1_555 1_555
C6_6 C3_6 1_555 1_555
C7_6 C2_6 1_555 1_555
C8_6 C6_6 1_555 1_555
O4_6 C7_6 1_555 1_555
O11 Cu5 1_555 1_555
Cu6_2 O4_6 1_555 1_555
O8 Cu5 1_555 1_555
O9_6 Cu5 1_555 1_555
C5_6 C7_6 1_555 1_555
C8_6 O11 1_555 1_555
C1_6 H2_6 1_555 1_555
C5_7 C6_7 1_555 1_555
C8_7 C6_7 1_555 1_555
O4_7 C7_7 1_555 1_555
O9_5 C8_7 1_555 1_555
C5_7 C7_7 1_555 1_555
C5_7 H1_7 1_555 1_555
Cu6_2 O3_7 1_555 1_555
C1_7 C2_7 1_555 1_555
C2_7 C4_7 1_555 1_555
C3_7 C1_7 1_555 1_555
C4_7 O2_7 1_555 1_555
O8_3 C3_7 1_555 1_555
O2_7 Cu8_2 1_555 1_555
C1_7 H2_7 1_555 1_555
C5_8 C6_8 1_555 1_555
C8_8 C6_8 1_555 1_555
O4_8 C7_8 1_555 1_555
O9_6 C8_8 1_555 1_555
Cu8_3 O4_8 1_555 1_555
C5_8 C7_8 1_555 1_555
C8_8 O12 1_555 1_555
C5_8 H1_8 1_555 1_555
C1_8 C2_8 1_555 1_555
C2_8 C4_8 1_555 1_555
C3_8 C1_8 1_555 1_555
C4_8 O2_8 1_555 1_555
O8 C3_8 1_555 1_555
O2_8 Cu8_3 1_555 1_555
O3_8 C4_8 1_555 1_555
Cu4_3 O3_8 1_555 1_555
Cu6_3 O3_8 1_555 1_555
C1_8 H2_8 1_555 1_555
C1_9 C2_9 1_555 1_555
C2_9 C4_9 1_555 1_555
C3_9 C1_9 1_555 1_555
C4_9 O2_9 1_555 1_555
O8_2 C3_9 1_555 1_555
O2_9 Cu8 1_555 1_555
C1_9 H2_9 1_555 1_555
C5_9 C6_9 1_555 1_555
C8_9 C6_9 1_555 1_555
O4_9 C7_9 1_555 1_555
O9_4 C8_9 1_555 1_555
C5_9 C7_9 1_555 1_555
C5_9 H1_9 1_555 1_555
Cu6 O3_9 1_555 1_555

#END
