
###############################################################################
#
# This file contains modified crystal structure data generated from the
# MOF subset of the Cambridge Structural Database (CSD) v543 
# hosted by the Cambridge Crystallographic Data Centre (CCDC).
#
# This work is licensed under the Creative Commons
# Attribution-NonCommercial-ShareAlike 4.0 International License.
# To view a copy of this license, visit
# http://creativecommons.org/licenses/by-nc-sa/4.0/
# or send a letter to
# Creative Commons, PO Box 1866, Mountain View, CA 94042, USA.
#
# CIF created using the CSD Python API on 29 September 2022
# The structure has been converted into the P1 space group
# The structure has a 3D framework
# The original CSD entry MOJPOT34 is in the rhombohedral crystal system
# The framework has been calculated to contain at least 10.0% void space
# The void calculation uses a probe of radius 1.32A, grid spacing 0.4
# H atom positions have been added when not included in the experimental data
#
###############################################################################

data_MOJPOT34
_chemical_formula_moiety         '(C72 H18 Cu7 O44)n'
_symmetry_cell_setting           triclinic
_symmetry_space_group_name_H-M   'P 1'
_symmetry_Int_Tables_number      1
_space_group_name_Hall           'P 1'
loop_
_symmetry_equiv_pos_site_id
_symmetry_equiv_pos_as_xyz
1 x,y,z
_cell_length_a                   25.9148(3)
_cell_length_b                   25.9148(3)
_cell_length_c                   6.27815(7)
_cell_angle_alpha                90
_cell_angle_beta                 90
_cell_angle_gamma                120
_cell_volume                     3651.39
loop_
_atom_site_label
_atom_site_type_symbol
_atom_site_fract_x
_atom_site_fract_y
_atom_site_fract_z
Cu7 Cu 0.31802(7) 0.37124(5) 0.0089(2)
Cu1 Cu 0.29543(5) 0.28012(5) 0.3422(2)
C1 C 0.1608(3) 0.3121(3) 0.1255(13)
C2 C 0.1201(4) 0.3274(4) 0.1990(15)
C3 C 0.2095(4) 0.3189(4) 0.2531(13)
C4 C 0.0761(3) 0.3224(4) 0.0340(13)
O1 O 0.2519(2) 0.3073(2) 0.1705(9)
O3 O 0.0520(2) 0.3548(2) 0.0653(8)
C5 C 0.1725(3) 0.3546(3) 0.5412(13)
C6 C 0.2132(4) 0.3393(4) 0.4677(15)
C7 C 0.1238(4) 0.3478(4) 0.4136(13)
C8 C 0.2572(3) 0.3443(4) 0.6327(13)
O4 O 0.0814(2) 0.3594(2) 0.4962(9)
O5 O 0.2667(2) 0.3744(2) 0.7967(10)
O6 O 0.2813(2) 0.3119(2) 0.6014(8)
Cu4 Cu 0.01531(7) 0.29543(5) 0.6578(2)
Cu5 Cu 0.38655(5) 0.34864(7) 0.6755(2)
Cu8 Cu 0.03790(5) 0.38655(5) 0.3245(2)
O7 O 0.3594(2) 0.2779(3) 0.5038(9)
O9 O 0.2923(2) 0.2257(3) 0.1300(10)
O12 O 0.3639(3) 0.3853(2) 0.2680(8)
H1 H 0.177656 0.372417 0.701696
O2 O 0.0666(2) 0.2923(2) 0.8700(10)
O8 O 0.3887(3) 0.4148(2) 0.8372(9)
O11 O 0.3548(2) 0.3028(3) 0.9347(8)
H2 H 0.155678 0.294249 0.964971
Cu6 Cu 0.94679(5) 0.31802(7) 0.9911(2)
Cu6_2 Cu 0.37124(9) 0.05321(5) 0.9911(2)
Cu7_2 Cu 0.05321(9) 0.68198(7) 0.0089(2)
C1_2 C 0.1513(4) 0.8392(3) 0.1255(13)
C2_2 C 0.2073(6) 0.8799(4) 0.1990(15)
C3_2 C 0.1094(6) 0.7905(4) 0.2531(13)
C4_2 C 0.2463(5) 0.9239(3) 0.0340(13)
O1_2 O 0.0554(3) 0.7481(2) 0.1705(9)
O3_2 O 0.3028(3) 0.9480(2) 0.0653(8)
C5_2 C 0.1820(4) 0.8275(3) 0.5412(13)
C6_2 C 0.1260(6) 0.7868(4) 0.4677(15)
C7_2 C 0.2239(6) 0.8762(4) 0.4136(13)
C8_2 C 0.0870(5) 0.7428(3) 0.6327(13)
O4_2 O 0.2779(3) 0.9186(2) 0.4962(9)
O5_2 O 0.1076(3) 0.7333(2) 0.7967(10)
O6_2 O 0.0305(3) 0.7187(2) 0.6014(8)
Cu4_2 Cu 0.28012(9) 0.98469(7) 0.6578(2)
Cu8_2 Cu 0.34864(7) 0.96210(5) 0.3245(2)
O12_2 O 0.0215(4) 0.6361(3) 0.2680(8)
H1_2 H 0.194762 0.822344 0.701696
O2_2 O 0.2257(3) 0.9334(2) 0.8700(10)
O8_2 O 0.0260(4) 0.6113(3) 0.8372(9)
H2_2 H 0.138572 0.844322 0.964971
Cu1_2 Cu 0.98469(7) 0.70457(5) 0.3422(2)
Cu5_2 Cu 0.96210(9) 0.61345(5) 0.6755(2)
O7_2 O 0.9186(4) 0.6406(2) 0.5038(9)
O9_2 O 0.9334(4) 0.7077(2) 0.1300(10)
O11_2 O 0.9480(4) 0.6452(2) 0.9347(8)
Cu1_3 Cu 0.71988(5) 0.01531(7) 0.3422(2)
Cu5_3 Cu 0.65136(7) 0.03790(9) 0.6755(2)
O7_3 O 0.7221(3) 0.0814(4) 0.5038(9)
O9_3 O 0.7743(3) 0.0666(4) 0.1300(10)
O11_3 O 0.6972(3) 0.0520(4) 0.9347(8)
Cu7_3 Cu 0.62876(5) 0.94679(9) 0.0089(2)
C1_3 C 0.6879(3) 0.8487(4) 0.1255(13)
C2_3 C 0.6726(4) 0.7927(6) 0.1990(15)
C3_3 C 0.6811(4) 0.8906(6) 0.2531(13)
C4_3 C 0.6776(4) 0.7537(5) 0.0340(13)
O1_3 O 0.6927(2) 0.9446(3) 0.1705(9)
O3_3 O 0.6452(2) 0.6972(3) 0.0653(8)
C5_3 C 0.6454(3) 0.8180(4) 0.5412(13)
C6_3 C 0.6607(4) 0.8740(6) 0.4677(15)
C7_3 C 0.6522(4) 0.7761(6) 0.4136(13)
C8_3 C 0.6557(4) 0.9130(5) 0.6327(13)
O4_3 O 0.6406(2) 0.7221(3) 0.4962(9)
O5_3 O 0.6256(2) 0.8924(3) 0.7967(10)
O6_3 O 0.6881(2) 0.9695(3) 0.6014(8)
Cu4_3 Cu 0.70457(5) 0.71988(9) 0.6578(2)
Cu8_3 Cu 0.61345(5) 0.65136(7) 0.3245(2)
O12_3 O 0.6147(2) 0.9785(4) 0.2680(8)
H1_3 H 0.627583 0.805238 0.701696
O2_3 O 0.7077(2) 0.7743(3) 0.8700(10)
Cu6_3 Cu 0.68198(7) 0.62876(9) 0.9911(2)
O8_3 O 0.5852(2) 0.9740(4) 0.8372(9)
H2_3 H 0.705751 0.861428 0.964971
H1_4 H 0.844322 0.705751 0.035029
C1_4 C 0.8275(3) 0.6454(3) 0.4588(13)
C2_4 C 0.7868(4) 0.6607(4) 0.5323(15)
C3_4 C 0.8762(4) 0.6522(4) 0.5864(13)
C4_4 C 0.7428(3) 0.6557(4) 0.3673(13)
O2_4 O 0.7333(2) 0.6256(2) 0.2033(10)
O3_4 O 0.7187(2) 0.6881(2) 0.3986(8)
C5_4 C 0.8392(3) 0.6879(3) 0.8745(13)
C6_4 C 0.8799(4) 0.6726(4) 0.8010(15)
C7_4 C 0.7905(4) 0.6811(4) 0.7469(13)
C8_4 C 0.9239(3) 0.6776(4) 0.9660(13)
O4_4 O 0.7481(2) 0.6927(2) 0.8295(9)
O9_4 O 0.9590(2) 0.5590(3) 0.4633(10)
H2_4 H 0.822344 0.627583 0.298304
H1_5 H 0.861428 0.155678 0.035029
C1_5 C 0.8180(4) 0.1725(3) 0.4588(13)
C2_5 C 0.8740(6) 0.2132(4) 0.5323(15)
C3_5 C 0.7761(6) 0.1238(4) 0.5864(13)
C4_5 C 0.9130(5) 0.2572(3) 0.3673(13)
O2_5 O 0.8924(3) 0.2667(2) 0.2033(10)
O3_5 O 0.9695(3) 0.2813(2) 0.3986(8)
C5_5 C 0.8487(4) 0.1608(3) 0.8745(13)
C6_5 C 0.7927(6) 0.1201(4) 0.8010(15)
C7_5 C 0.8906(6) 0.2095(4) 0.7469(13)
C8_5 C 0.7537(5) 0.0761(3) 0.9660(13)
O4_5 O 0.9446(3) 0.2519(2) 0.8295(9)
O9_5 O 0.6001(4) 0.0410(2) 0.4633(10)
H2_5 H 0.805238 0.177656 0.298304
H1_6 H 0.294249 0.138572 0.035029
C1_6 C 0.3546(3) 0.1820(4) 0.4588(13)
C2_6 C 0.3393(4) 0.1260(6) 0.5323(15)
C3_6 C 0.3478(4) 0.2239(6) 0.5864(13)
C4_6 C 0.3443(4) 0.0870(5) 0.3673(13)
O2_6 O 0.3744(2) 0.1076(3) 0.2033(10)
O3_6 O 0.3119(2) 0.0305(3) 0.3986(8)
C5_6 C 0.3121(3) 0.1513(4) 0.8745(13)
C6_6 C 0.3274(4) 0.2073(6) 0.8010(15)
C7_6 C 0.3189(4) 0.1094(6) 0.7469(13)
C8_6 C 0.3224(4) 0.2463(5) 0.9660(13)
O4_6 O 0.3073(2) 0.0554(3) 0.8295(9)
O9_6 O 0.4410(3) 0.3999(4) 0.4633(10)
H2_6 H 0.372417 0.194762 0.298304
C5_7 C 0.5059(3) 0.0212(3) 0.2078(13)
C6_7 C 0.5466(4) 0.0059(4) 0.1343(15)
C7_7 C 0.4572(4) 0.0144(4) 0.0802(13)
C8_7 C 0.5906(3) 0.0109(4) 0.2993(13)
O4_7 O 0.4148(2) 0.0260(2) 0.1628(9)
H1_7 H 0.510989 0.039084 0.368362
O3_7 O 0.3853(2) 0.0215(2) 0.7320(8)
C1_7 C 0.4941(3) 0.9788(3) 0.7922(13)
C2_7 C 0.4534(4) 0.9941(4) 0.8657(15)
C3_7 C 0.5428(4) 0.9856(4) 0.9198(13)
C4_7 C 0.4094(3) 0.9891(4) 0.7007(13)
O2_7 O 0.3999(2) 0.9590(2) 0.5367(10)
H2_7 H 0.489011 0.960916 0.631638
C5_8 C 0.5154(4) 0.4941(3) 0.2078(13)
C6_8 C 0.4594(6) 0.4534(4) 0.1343(15)
C7_8 C 0.5573(6) 0.5428(4) 0.0802(13)
C8_8 C 0.4204(5) 0.4094(3) 0.2993(13)
O4_8 O 0.6113(3) 0.5852(2) 0.1628(9)
H1_8 H 0.528095 0.489011 0.368362
C1_8 C 0.4846(4) 0.5059(3) 0.7922(13)
C2_8 C 0.5406(6) 0.5466(4) 0.8657(15)
C3_8 C 0.4427(6) 0.4572(4) 0.9198(13)
C4_8 C 0.5796(5) 0.5906(3) 0.7007(13)
O2_8 O 0.5590(3) 0.6001(2) 0.5367(10)
O3_8 O 0.6361(3) 0.6147(2) 0.7320(8)
H2_8 H 0.471905 0.510989 0.631638
C1_9 C 0.0212(3) 0.5154(4) 0.7922(13)
C2_9 C 0.0059(4) 0.4594(6) 0.8657(15)
C3_9 C 0.0144(4) 0.5573(6) 0.9198(13)
C4_9 C 0.0109(4) 0.4204(5) 0.7007(13)
O2_9 O 0.0410(2) 0.4410(3) 0.5367(10)
H2_9 H 0.039084 0.528095 0.631638
C5_9 C 0.9788(3) 0.4846(4) 0.2078(13)
C6_9 C 0.9941(4) 0.5406(6) 0.1343(15)
C7_9 C 0.9856(4) 0.4427(6) 0.0802(13)
C8_9 C 0.9891(4) 0.5796(5) 0.2993(13)
O4_9 O 0.9740(2) 0.3887(3) 0.1628(9)
H1_9 H 0.960916 0.471905 0.368362
O3_9 O 0.9785(2) 0.3639(3) 0.7320(8)
loop_
_geom_bond_atom_site_label_1
_geom_bond_atom_site_label_2
_geom_bond_site_symmetry_1
_geom_bond_site_symmetry_2
Cu1 O1 1_555 1_555
C1 C2 1_555 1_555
C2 C4 1_555 1_555
C3 C1 1_555 1_555
O1 C3 1_555 1_555
O3 C4 1_555 1_555
C5 C6 1_555 1_555
C6 C3 1_555 1_555
C7 C2 1_555 1_555
C8 C6 1_555 1_555
O4 C7 1_555 1_555
O5 C8 1_555 1_555
O6 Cu1 1_555 1_555
Cu7 O1 1_555 1_555
Cu4 O4 1_555 1_555
Cu5 O6 1_555 1_555
Cu8 O3 1_555 1_555
O7 Cu1 1_555 1_555
O9 Cu1 1_555 1_555
O12 Cu1 1_555 1_555
C5 C7 1_555 1_555
C8 O6 1_555 1_555
O4 Cu8 1_555 1_555
Cu7 O12 1_555 1_555
Cu5 O7 1_555 1_555
C5 H1 1_555 1_555
O2 Cu4 1_555 1_555
C1_2 C2_2 1_555 1_555
C2_2 C4_2 1_555 1_555
C3_2 C1_2 1_555 1_555
O1_2 C3_2 1_555 1_555
O3_2 C4_2 1_555 1_555
C5_2 C6_2 1_555 1_555
C6_2 C3_2 1_555 1_555
C7_2 C2_2 1_555 1_555
C8_2 C6_2 1_555 1_555
O4_2 C7_2 1_555 1_555
O5_2 C8_2 1_555 1_555
Cu7_2 O1_2 1_555 1_555
Cu4_2 O4_2 1_555 1_555
Cu8_2 O3_2 1_555 1_555
C5_2 C7_2 1_555 1_555
C8_2 O6_2 1_555 1_555
O4_2 Cu8_2 1_555 1_555
Cu7_2 O12_2 1_555 1_555
C5_2 H1_2 1_555 1_555
O2_2 Cu4_2 1_555 1_555
O7_2 Cu1_2 1_555 1_555
O9_2 Cu1_2 1_555 1_555
Cu5_2 O7_2 1_555 1_555
O7_3 Cu1_3 1_555 1_555
O9_3 Cu1_3 1_555 1_555
Cu5_3 O7_3 1_555 1_555
C1_3 C2_3 1_555 1_555
C2_3 C4_3 1_555 1_555
C3_3 C1_3 1_555 1_555
O1_3 C3_3 1_555 1_555
O3_3 C4_3 1_555 1_555
C5_3 C6_3 1_555 1_555
C6_3 C3_3 1_555 1_555
C7_3 C2_3 1_555 1_555
C8_3 C6_3 1_555 1_555
O4_3 C7_3 1_555 1_555
O5_3 C8_3 1_555 1_555
Cu7_3 O1_3 1_555 1_555
Cu4_3 O4_3 1_555 1_555
Cu8_3 O3_3 1_555 1_555
C5_3 C7_3 1_555 1_555
C8_3 O6_3 1_555 1_555
O4_3 Cu8_3 1_555 1_555
Cu7_3 O12_3 1_555 1_555
C5_3 H1_3 1_555 1_555
O2_3 Cu4_3 1_555 1_555
C1_4 C2_4 1_555 1_555
C2_4 C4_4 1_555 1_555
C3_4 C1_4 1_555 1_555
C4_4 O2_4 1_555 1_555
O7_2 C3_4 1_555 1_555
O3_4 C4_4 1_555 1_555
C5_4 C6_4 1_555 1_555
C6_4 C3_4 1_555 1_555
C7_4 C2_4 1_555 1_555
C8_4 C6_4 1_555 1_555
O4_4 C7_4 1_555 1_555
O11_2 Cu5_2 1_555 1_555
Cu6_3 O4_4 1_555 1_555
Cu8_3 O3_4 1_555 1_555
Cu4_3 O3_4 1_555 1_555
O9_4 Cu5_2 1_555 1_555
C5_4 C7_4 1_555 1_555
C8_4 O11_2 1_555 1_555
O4_4 Cu4_3 1_555 1_555
C1_4 H2_4 1_555 1_555
C1_5 C2_5 1_555 1_555
C2_5 C4_5 1_555 1_555
C3_5 C1_5 1_555 1_555
C4_5 O2_5 1_555 1_555
O7_3 C3_5 1_555 1_555
O3_5 C4_5 1_555 1_555
C5_5 C6_5 1_555 1_555
C6_5 C3_5 1_555 1_555
C7_5 C2_5 1_555 1_555
C8_5 C6_5 1_555 1_555
O4_5 C7_5 1_555 1_555
O11_3 Cu5_3 1_555 1_555
Cu6 O4_5 1_555 1_555
O9_5 Cu5_3 1_555 1_555
C5_5 C7_5 1_555 1_555
C8_5 O11_3 1_555 1_555
C1_5 H2_5 1_555 1_555
C1_6 C2_6 1_555 1_555
C2_6 C4_6 1_555 1_555
C3_6 C1_6 1_555 1_555
C4_6 O2_6 1_555 1_555
O7 C3_6 1_555 1_555
O3_6 C4_6 1_555 1_555
C5_6 C6_6 1_555 1_555
C6_6 C3_6 1_555 1_555
C7_6 C2_6 1_555 1_555
C8_6 C6_6 1_555 1_555
O4_6 C7_6 1_555 1_555
O11 Cu5 1_555 1_555
Cu6_2 O4_6 1_555 1_555
O8 Cu5 1_555 1_555
O9_6 Cu5 1_555 1_555
C5_6 C7_6 1_555 1_555
C8_6 O11 1_555 1_555
C1_6 H2_6 1_555 1_555
C5_7 C6_7 1_555 1_555
C8_7 C6_7 1_555 1_555
O4_7 C7_7 1_555 1_555
O9_5 C8_7 1_555 1_555
C5_7 C7_7 1_555 1_555
C5_7 H1_7 1_555 1_555
Cu6_2 O3_7 1_555 1_555
C1_7 C2_7 1_555 1_555
C2_7 C4_7 1_555 1_555
C3_7 C1_7 1_555 1_555
C4_7 O2_7 1_555 1_555
O8_3 C3_7 1_555 1_555
O2_7 Cu8_2 1_555 1_555
C1_7 H2_7 1_555 1_555
C5_8 C6_8 1_555 1_555
C8_8 C6_8 1_555 1_555
O4_8 C7_8 1_555 1_555
O9_6 C8_8 1_555 1_555
Cu8_3 O4_8 1_555 1_555
C5_8 C7_8 1_555 1_555
C8_8 O12 1_555 1_555
C5_8 H1_8 1_555 1_555
C1_8 C2_8 1_555 1_555
C2_8 C4_8 1_555 1_555
C3_8 C1_8 1_555 1_555
C4_8 O2_8 1_555 1_555
O8 C3_8 1_555 1_555
O2_8 Cu8_3 1_555 1_555
O3_8 C4_8 1_555 1_555
Cu4_3 O3_8 1_555 1_555
Cu6_3 O3_8 1_555 1_555
C1_8 H2_8 1_555 1_555
C1_9 C2_9 1_555 1_555
C2_9 C4_9 1_555 1_555
C3_9 C1_9 1_555 1_555
C4_9 O2_9 1_555 1_555
O8_2 C3_9 1_555 1_555
O2_9 Cu8 1_555 1_555
C1_9 H2_9 1_555 1_555
C5_9 C6_9 1_555 1_555
C8_9 C6_9 1_555 1_555
O4_9 C7_9 1_555 1_555
O9_4 C8_9 1_555 1_555
C5_9 C7_9 1_555 1_555
C5_9 H1_9 1_555 1_555
Cu6 O3_9 1_555 1_555

#END
