
###############################################################################
#
# This file contains modified crystal structure data generated from the
# MOF subset of the Cambridge Structural Database (CSD) v543 
# hosted by the Cambridge Crystallographic Data Centre (CCDC).
#
# This work is licensed under the Creative Commons
# Attribution-NonCommercial-ShareAlike 4.0 International License.
# To view a copy of this license, visit
# http://creativecommons.org/licenses/by-nc-sa/4.0/
# or send a letter to
# Creative Commons, PO Box 1866, Mountain View, CA 94042, USA.
#
# CIF created using the CSD Python API on 29 September 2022
# The structure has been converted into the P1 space group
# The structure has a 3D framework
# The original CSD entry MOJPOT81 is in the rhombohedral crystal system
# The framework has been calculated to contain at least 10.0% void space
# The void calculation uses a probe of radius 1.32A, grid spacing 0.4
# H atom positions have been added when not included in the experimental data
#
###############################################################################

data_MOJPOT81
_chemical_formula_moiety         '(C72 H18 Cu7 O44)n'
_symmetry_cell_setting           triclinic
_symmetry_space_group_name_H-M   'P 1'
_symmetry_Int_Tables_number      1
_space_group_name_Hall           'P 1'
loop_
_symmetry_equiv_pos_site_id
_symmetry_equiv_pos_as_xyz
1 x,y,z
_cell_length_a                   25.9159(3)
_cell_length_b                   25.9159(3)
_cell_length_c                   6.27999(7)
_cell_angle_alpha                90
_cell_angle_beta                 90
_cell_angle_gamma                120
_cell_volume                     3652.77
loop_
_atom_site_label
_atom_site_type_symbol
_atom_site_fract_x
_atom_site_fract_y
_atom_site_fract_z
Cu7 Cu 0.31807(7) 0.37128(5) 0.0088(2)
Cu1 Cu 0.29539(5) 0.28013(5) 0.3421(2)
C1 C 0.1612(4) 0.3126(3) 0.1235(13)
C2 C 0.1201(4) 0.3273(4) 0.1988(16)
C3 C 0.2093(4) 0.3189(4) 0.2553(13)
C4 C 0.0756(4) 0.3224(5) 0.0340(13)
O1 O 0.2520(2) 0.3076(2) 0.1703(10)
O3 O 0.0520(2) 0.3549(2) 0.0653(8)
C5 C 0.1721(4) 0.3541(3) 0.5432(13)
C6 C 0.2132(4) 0.3394(4) 0.4679(16)
C7 C 0.1240(4) 0.3478(4) 0.4114(13)
C8 C 0.2577(4) 0.3443(5) 0.6327(13)
O4 O 0.0813(2) 0.3591(2) 0.4964(10)
O5 O 0.2665(2) 0.3746(2) 0.7974(10)
O6 O 0.2813(2) 0.3118(2) 0.6014(8)
Cu4 Cu 0.01526(7) 0.29539(5) 0.6579(2)
Cu5 Cu 0.38654(5) 0.34859(7) 0.6754(2)
Cu8 Cu 0.03794(5) 0.38654(5) 0.3246(2)
O7 O 0.3591(2) 0.2777(3) 0.5036(10)
O9 O 0.2921(2) 0.2253(3) 0.1307(10)
O12 O 0.3638(3) 0.3853(2) 0.2680(8)
H2 H 0.176285 0.370706 0.705149
O2 O 0.0668(2) 0.2921(2) 0.8693(10)
O8 O 0.3889(3) 0.4147(2) 0.8370(10)
O11 O 0.3549(2) 0.3029(3) 0.9347(8)
H1 H 0.157048 0.295961 0.961518
Cu6 Cu 0.94680(5) 0.31807(7) 0.9912(2)
Cu6_2 Cu 0.37128(9) 0.05320(5) 0.9912(2)
Cu7_2 Cu 0.05320(9) 0.68193(7) 0.0088(2)
C1_2 C 0.1514(5) 0.8388(4) 0.1235(13)
C2_2 C 0.2072(6) 0.8799(4) 0.1988(16)
C3_2 C 0.1096(6) 0.7907(4) 0.2553(13)
C4_2 C 0.2468(6) 0.9244(4) 0.0340(13)
O1_2 O 0.0556(3) 0.7480(2) 0.1703(10)
O3_2 O 0.3029(3) 0.9480(2) 0.0653(8)
C5_2 C 0.1819(5) 0.8279(4) 0.5432(13)
C6_2 C 0.1261(6) 0.7868(4) 0.4679(16)
C7_2 C 0.2237(6) 0.8760(4) 0.4114(13)
C8_2 C 0.0865(6) 0.7423(4) 0.6327(13)
O4_2 O 0.2777(3) 0.9187(2) 0.4964(10)
O5_2 O 0.1080(3) 0.7335(2) 0.7974(10)
O6_2 O 0.0304(3) 0.7187(2) 0.6014(8)
Cu4_2 Cu 0.28013(9) 0.98474(7) 0.6579(2)
Cu8_2 Cu 0.34859(7) 0.96206(5) 0.3246(2)
O12_2 O 0.0216(4) 0.6362(3) 0.2680(8)
H2_2 H 0.194421 0.823715 0.705149
O2_2 O 0.2253(3) 0.9332(2) 0.8693(10)
O8_2 O 0.0257(4) 0.6111(3) 0.8370(10)
H1_2 H 0.138913 0.842952 0.961518
Cu1_2 Cu 0.98474(7) 0.70461(5) 0.3421(2)
Cu5_2 Cu 0.96206(9) 0.61346(5) 0.6754(2)
O7_2 O 0.9187(4) 0.6409(2) 0.5036(10)
O9_2 O 0.9332(4) 0.7079(2) 0.1307(10)
O11_2 O 0.9480(4) 0.6451(2) 0.9347(8)
Cu1_3 Cu 0.71987(5) 0.01526(7) 0.3421(2)
Cu5_3 Cu 0.65141(7) 0.03794(9) 0.6754(2)
O7_3 O 0.7223(3) 0.0813(4) 0.5036(10)
O9_3 O 0.7747(3) 0.0668(4) 0.1307(10)
O11_3 O 0.6971(3) 0.0520(4) 0.9347(8)
Cu7_3 Cu 0.62872(5) 0.94680(9) 0.0088(2)
C1_3 C 0.6874(3) 0.8486(5) 0.1235(13)
C2_3 C 0.6727(4) 0.7928(6) 0.1988(16)
C3_3 C 0.6811(4) 0.8904(6) 0.2553(13)
C4_3 C 0.6776(5) 0.7532(6) 0.0340(13)
O1_3 O 0.6924(2) 0.9444(3) 0.1703(10)
O3_3 O 0.6451(2) 0.6971(3) 0.0653(8)
C5_3 C 0.6459(3) 0.8181(5) 0.5432(13)
C6_3 C 0.6606(4) 0.8739(6) 0.4679(16)
C7_3 C 0.6522(4) 0.7763(6) 0.4114(13)
C8_3 C 0.6557(5) 0.9135(6) 0.6327(13)
O4_3 O 0.6409(2) 0.7223(3) 0.4964(10)
O5_3 O 0.6254(2) 0.8920(3) 0.7974(10)
O6_3 O 0.6882(2) 0.9696(3) 0.6014(8)
Cu4_3 Cu 0.70461(5) 0.71987(9) 0.6579(2)
Cu8_3 Cu 0.61346(5) 0.65141(7) 0.3246(2)
O12_3 O 0.6147(2) 0.9784(4) 0.2680(8)
H2_3 H 0.629294 0.805579 0.705149
O2_3 O 0.7079(2) 0.7747(3) 0.8693(10)
Cu6_3 Cu 0.68193(7) 0.62872(9) 0.9912(2)
O8_3 O 0.5853(2) 0.9743(4) 0.8370(10)
H1_3 H 0.704039 0.861087 0.961518
H2_4 H 0.842952 0.704039 0.0384823
C1_4 C 0.8279(4) 0.6459(3) 0.4568(13)
C2_4 C 0.7868(4) 0.6606(4) 0.5321(16)
C3_4 C 0.8760(4) 0.6522(4) 0.5886(13)
C4_4 C 0.7423(4) 0.6557(5) 0.3673(13)
O2_4 O 0.7335(2) 0.6254(2) 0.2026(10)
O3_4 O 0.7187(2) 0.6882(2) 0.3986(8)
C5_4 C 0.8388(4) 0.6874(3) 0.8765(13)
C6_4 C 0.8799(4) 0.6727(4) 0.8012(16)
C7_4 C 0.7907(4) 0.6811(4) 0.7447(13)
C8_4 C 0.9244(4) 0.6776(5) 0.9660(13)
O4_4 O 0.7480(2) 0.6924(2) 0.8297(10)
O9_4 O 0.9588(2) 0.5586(3) 0.4640(10)
H1_4 H 0.823715 0.629294 0.294851
H2_5 H 0.861087 0.157048 0.0384823
C1_5 C 0.8181(5) 0.1721(4) 0.4568(13)
C2_5 C 0.8739(6) 0.2132(4) 0.5321(16)
C3_5 C 0.7763(6) 0.1240(4) 0.5886(13)
C4_5 C 0.9135(6) 0.2577(4) 0.3673(13)
O2_5 O 0.8920(3) 0.2665(2) 0.2026(10)
O3_5 O 0.9696(3) 0.2813(2) 0.3986(8)
C5_5 C 0.8486(5) 0.1612(4) 0.8765(13)
C6_5 C 0.7928(6) 0.1201(4) 0.8012(16)
C7_5 C 0.8904(6) 0.2093(4) 0.7447(13)
C8_5 C 0.7532(6) 0.0756(4) 0.9660(13)
O4_5 O 0.9444(3) 0.2520(2) 0.8297(10)
O9_5 O 0.5999(4) 0.0412(2) 0.4640(10)
H1_5 H 0.805579 0.176285 0.294851
H2_6 H 0.295961 0.138913 0.0384823
C1_6 C 0.3541(3) 0.1819(5) 0.4568(13)
C2_6 C 0.3394(4) 0.1261(6) 0.5321(16)
C3_6 C 0.3478(4) 0.2237(6) 0.5886(13)
C4_6 C 0.3443(5) 0.0865(6) 0.3673(13)
O2_6 O 0.3746(2) 0.1080(3) 0.2026(10)
O3_6 O 0.3118(2) 0.0304(3) 0.3986(8)
C5_6 C 0.3126(3) 0.1514(5) 0.8765(13)
C6_6 C 0.3273(4) 0.2072(6) 0.8012(16)
C7_6 C 0.3189(4) 0.1096(6) 0.7447(13)
C8_6 C 0.3224(5) 0.2468(6) 0.9660(13)
O4_6 O 0.3076(2) 0.0556(3) 0.8297(10)
O9_6 O 0.4414(3) 0.4001(4) 0.4640(10)
H1_6 H 0.370706 0.194421 0.294851
C5_7 C 0.5055(4) 0.0207(3) 0.2098(13)
C6_7 C 0.5466(4) 0.0060(4) 0.1345(16)
C7_7 C 0.4574(4) 0.0144(4) 0.0780(13)
C8_7 C 0.5911(4) 0.0109(5) 0.2993(13)
O4_7 O 0.4147(2) 0.0257(2) 0.1630(10)
H2_7 H 0.509619 0.0373726 0.371816
O3_7 O 0.3853(2) 0.0216(2) 0.7320(8)
C1_7 C 0.4945(4) 0.9793(3) 0.7902(13)
C2_7 C 0.4534(4) 0.9940(4) 0.8655(16)
C3_7 C 0.5426(4) 0.9856(4) 0.9220(13)
C4_7 C 0.4089(4) 0.9891(5) 0.7007(13)
O2_7 O 0.4001(2) 0.9588(2) 0.5360(10)
H1_7 H 0.490381 0.962627 0.628184
C5_8 C 0.5153(5) 0.4945(4) 0.2098(13)
C6_8 C 0.4595(6) 0.4534(4) 0.1345(16)
C7_8 C 0.5571(6) 0.5426(4) 0.0780(13)
C8_8 C 0.4199(6) 0.4089(4) 0.2993(13)
O4_8 O 0.6111(3) 0.5853(2) 0.1630(10)
H2_8 H 0.527754 0.490381 0.371816
C1_8 C 0.4847(5) 0.5055(4) 0.7902(13)
C2_8 C 0.5405(6) 0.5466(4) 0.8655(16)
C3_8 C 0.4429(6) 0.4574(4) 0.9220(13)
C4_8 C 0.5801(6) 0.5911(4) 0.7007(13)
O2_8 O 0.5586(3) 0.5999(2) 0.5360(10)
O3_8 O 0.6362(3) 0.6147(2) 0.7320(8)
H1_8 H 0.472246 0.509619 0.628184
C1_9 C 0.0207(3) 0.5153(5) 0.7902(13)
C2_9 C 0.0060(4) 0.4595(6) 0.8655(16)
C3_9 C 0.0144(4) 0.5571(6) 0.9220(13)
C4_9 C 0.0109(5) 0.4199(6) 0.7007(13)
O2_9 O 0.0412(2) 0.4414(3) 0.5360(10)
H1_9 H 0.0373726 0.527754 0.628184
C5_9 C 0.9793(3) 0.4847(5) 0.2098(13)
C6_9 C 0.9940(4) 0.5405(6) 0.1345(16)
C7_9 C 0.9856(4) 0.4429(6) 0.0780(13)
C8_9 C 0.9891(5) 0.5801(6) 0.2993(13)
O4_9 O 0.9743(2) 0.3889(3) 0.1630(10)
H2_9 H 0.962627 0.472246 0.371816
O3_9 O 0.9784(2) 0.3638(3) 0.7320(8)
loop_
_geom_bond_atom_site_label_1
_geom_bond_atom_site_label_2
_geom_bond_site_symmetry_1
_geom_bond_site_symmetry_2
Cu1 O1 1_555 1_555
C1 C2 1_555 1_555
C2 C4 1_555 1_555
C3 C1 1_555 1_555
O1 C3 1_555 1_555
O3 C4 1_555 1_555
C5 C6 1_555 1_555
C6 C3 1_555 1_555
C7 C2 1_555 1_555
C8 C6 1_555 1_555
O4 C7 1_555 1_555
O5 C8 1_555 1_555
O6 Cu1 1_555 1_555
Cu7 O1 1_555 1_555
Cu4 O4 1_555 1_555
Cu5 O6 1_555 1_555
Cu8 O3 1_555 1_555
O7 Cu1 1_555 1_555
O9 Cu1 1_555 1_555
O12 Cu1 1_555 1_555
C5 C7 1_555 1_555
C8 O6 1_555 1_555
O4 Cu8 1_555 1_555
Cu7 O12 1_555 1_555
Cu5 O7 1_555 1_555
C5 H2 1_555 1_555
O2 Cu4 1_555 1_555
C1_2 C2_2 1_555 1_555
C2_2 C4_2 1_555 1_555
C3_2 C1_2 1_555 1_555
O1_2 C3_2 1_555 1_555
O3_2 C4_2 1_555 1_555
C5_2 C6_2 1_555 1_555
C6_2 C3_2 1_555 1_555
C7_2 C2_2 1_555 1_555
C8_2 C6_2 1_555 1_555
O4_2 C7_2 1_555 1_555
O5_2 C8_2 1_555 1_555
Cu7_2 O1_2 1_555 1_555
Cu4_2 O4_2 1_555 1_555
Cu8_2 O3_2 1_555 1_555
C5_2 C7_2 1_555 1_555
C8_2 O6_2 1_555 1_555
O4_2 Cu8_2 1_555 1_555
Cu7_2 O12_2 1_555 1_555
C5_2 H2_2 1_555 1_555
O2_2 Cu4_2 1_555 1_555
O7_2 Cu1_2 1_555 1_555
O9_2 Cu1_2 1_555 1_555
Cu5_2 O7_2 1_555 1_555
O7_3 Cu1_3 1_555 1_555
O9_3 Cu1_3 1_555 1_555
Cu5_3 O7_3 1_555 1_555
C1_3 C2_3 1_555 1_555
C2_3 C4_3 1_555 1_555
C3_3 C1_3 1_555 1_555
O1_3 C3_3 1_555 1_555
O3_3 C4_3 1_555 1_555
C5_3 C6_3 1_555 1_555
C6_3 C3_3 1_555 1_555
C7_3 C2_3 1_555 1_555
C8_3 C6_3 1_555 1_555
O4_3 C7_3 1_555 1_555
O5_3 C8_3 1_555 1_555
Cu7_3 O1_3 1_555 1_555
Cu4_3 O4_3 1_555 1_555
Cu8_3 O3_3 1_555 1_555
C5_3 C7_3 1_555 1_555
C8_3 O6_3 1_555 1_555
O4_3 Cu8_3 1_555 1_555
Cu7_3 O12_3 1_555 1_555
C5_3 H2_3 1_555 1_555
O2_3 Cu4_3 1_555 1_555
C1_4 C2_4 1_555 1_555
C2_4 C4_4 1_555 1_555
C3_4 C1_4 1_555 1_555
C4_4 O2_4 1_555 1_555
O7_2 C3_4 1_555 1_555
O3_4 C4_4 1_555 1_555
C5_4 C6_4 1_555 1_555
C6_4 C3_4 1_555 1_555
C7_4 C2_4 1_555 1_555
C8_4 C6_4 1_555 1_555
O4_4 C7_4 1_555 1_555
O11_2 Cu5_2 1_555 1_555
Cu6_3 O4_4 1_555 1_555
Cu8_3 O3_4 1_555 1_555
Cu4_3 O3_4 1_555 1_555
O9_4 Cu5_2 1_555 1_555
C5_4 C7_4 1_555 1_555
C8_4 O11_2 1_555 1_555
O4_4 Cu4_3 1_555 1_555
C1_4 H1_4 1_555 1_555
C1_5 C2_5 1_555 1_555
C2_5 C4_5 1_555 1_555
C3_5 C1_5 1_555 1_555
C4_5 O2_5 1_555 1_555
O7_3 C3_5 1_555 1_555
O3_5 C4_5 1_555 1_555
C5_5 C6_5 1_555 1_555
C6_5 C3_5 1_555 1_555
C7_5 C2_5 1_555 1_555
C8_5 C6_5 1_555 1_555
O4_5 C7_5 1_555 1_555
O11_3 Cu5_3 1_555 1_555
Cu6 O4_5 1_555 1_555
O9_5 Cu5_3 1_555 1_555
C5_5 C7_5 1_555 1_555
C8_5 O11_3 1_555 1_555
C1_5 H1_5 1_555 1_555
C1_6 C2_6 1_555 1_555
C2_6 C4_6 1_555 1_555
C3_6 C1_6 1_555 1_555
C4_6 O2_6 1_555 1_555
O7 C3_6 1_555 1_555
O3_6 C4_6 1_555 1_555
C5_6 C6_6 1_555 1_555
C6_6 C3_6 1_555 1_555
C7_6 C2_6 1_555 1_555
C8_6 C6_6 1_555 1_555
O4_6 C7_6 1_555 1_555
O11 Cu5 1_555 1_555
Cu6_2 O4_6 1_555 1_555
O8 Cu5 1_555 1_555
O9_6 Cu5 1_555 1_555
C5_6 C7_6 1_555 1_555
C8_6 O11 1_555 1_555
C1_6 H1_6 1_555 1_555
C5_7 C6_7 1_555 1_555
C8_7 C6_7 1_555 1_555
O4_7 C7_7 1_555 1_555
O9_5 C8_7 1_555 1_555
C5_7 C7_7 1_555 1_555
C5_7 H2_7 1_555 1_555
Cu6_2 O3_7 1_555 1_555
C1_7 C2_7 1_555 1_555
C2_7 C4_7 1_555 1_555
C3_7 C1_7 1_555 1_555
C4_7 O2_7 1_555 1_555
O8_3 C3_7 1_555 1_555
O2_7 Cu8_2 1_555 1_555
C1_7 H1_7 1_555 1_555
C5_8 C6_8 1_555 1_555
C8_8 C6_8 1_555 1_555
O4_8 C7_8 1_555 1_555
O9_6 C8_8 1_555 1_555
Cu8_3 O4_8 1_555 1_555
C5_8 C7_8 1_555 1_555
C8_8 O12 1_555 1_555
C5_8 H2_8 1_555 1_555
C1_8 C2_8 1_555 1_555
C2_8 C4_8 1_555 1_555
C3_8 C1_8 1_555 1_555
C4_8 O2_8 1_555 1_555
O8 C3_8 1_555 1_555
O2_8 Cu8_3 1_555 1_555
O3_8 C4_8 1_555 1_555
Cu4_3 O3_8 1_555 1_555
Cu6_3 O3_8 1_555 1_555
C1_8 H1_8 1_555 1_555
C1_9 C2_9 1_555 1_555
C2_9 C4_9 1_555 1_555
C3_9 C1_9 1_555 1_555
C4_9 O2_9 1_555 1_555
O8_2 C3_9 1_555 1_555
O2_9 Cu8 1_555 1_555
C1_9 H1_9 1_555 1_555
C5_9 C6_9 1_555 1_555
C8_9 C6_9 1_555 1_555
O4_9 C7_9 1_555 1_555
O9_4 C8_9 1_555 1_555
C5_9 C7_9 1_555 1_555
C5_9 H2_9 1_555 1_555
Cu6 O3_9 1_555 1_555

#END
