
###############################################################################
#
# This file contains modified crystal structure data generated from the
# MOF subset of the Cambridge Structural Database (CSD) v543 
# hosted by the Cambridge Crystallographic Data Centre (CCDC).
#
# This work is licensed under the Creative Commons
# Attribution-NonCommercial-ShareAlike 4.0 International License.
# To view a copy of this license, visit
# http://creativecommons.org/licenses/by-nc-sa/4.0/
# or send a letter to
# Creative Commons, PO Box 1866, Mountain View, CA 94042, USA.
#
# CIF created using the CSD Python API on 29 September 2022
# The structure has been converted into the P1 space group
# The structure has a 3D framework
# The original CSD entry MOJPOT89 is in the rhombohedral crystal system
# The framework has been calculated to contain at least 10.0% void space
# The void calculation uses a probe of radius 1.32A, grid spacing 0.4
# H atom positions have been added when not included in the experimental data
#
###############################################################################

data_MOJPOT89
_chemical_formula_moiety         '(C72 H18 Cu7 O44)n'
_symmetry_cell_setting           triclinic
_symmetry_space_group_name_H-M   'P 1'
_symmetry_Int_Tables_number      1
_space_group_name_Hall           'P 1'
loop_
_symmetry_equiv_pos_site_id
_symmetry_equiv_pos_as_xyz
1 x,y,z
_cell_length_a                   25.9163(3)
_cell_length_b                   25.9163(3)
_cell_length_c                   6.28032(7)
_cell_angle_alpha                90
_cell_angle_beta                 90
_cell_angle_gamma                120
_cell_volume                     3653.07
loop_
_atom_site_label
_atom_site_type_symbol
_atom_site_fract_x
_atom_site_fract_y
_atom_site_fract_z
Cu7 Cu 0.31805(7) 0.37126(5) 0.0088(2)
Cu1 Cu 0.29541(5) 0.28013(5) 0.3421(2)
C1 C 0.1606(4) 0.3120(3) 0.1250(13)
C2 C 0.1203(4) 0.3275(4) 0.1988(16)
C3 C 0.2095(4) 0.3193(4) 0.2533(13)
C4 C 0.0757(4) 0.3222(5) 0.0347(13)
O1 O 0.2519(2) 0.3075(2) 0.1706(10)
O3 O 0.0520(2) 0.3549(2) 0.0648(8)
C5 C 0.1727(4) 0.3547(3) 0.5417(13)
C6 C 0.2130(4) 0.3392(4) 0.4679(16)
C7 C 0.1238(4) 0.3474(4) 0.4134(13)
C8 C 0.2576(4) 0.3445(5) 0.6320(13)
O4 O 0.0814(2) 0.3592(2) 0.4961(10)
O5 O 0.2666(2) 0.3745(2) 0.7965(10)
O6 O 0.2813(2) 0.3118(2) 0.6019(8)
Cu4 Cu 0.01528(7) 0.29541(5) 0.6579(2)
Cu5 Cu 0.38654(5) 0.34861(7) 0.6754(2)
Cu8 Cu 0.03792(5) 0.38654(5) 0.3246(2)
O7 O 0.3592(2) 0.2777(3) 0.5039(10)
O9 O 0.2922(2) 0.2255(3) 0.1298(10)
O12 O 0.3638(3) 0.3853(2) 0.2685(8)
H2 H 0.178089 0.372941 0.701537
O2 O 0.0667(2) 0.2922(2) 0.8702(10)
O8 O 0.3889(3) 0.4148(2) 0.8373(10)
O11 O 0.3549(2) 0.3029(3) 0.9352(8)
H1 H 0.155244 0.293725 0.96513
Cu6 Cu 0.94680(5) 0.31805(7) 0.9912(2)
Cu6_2 Cu 0.37126(9) 0.05320(5) 0.9912(2)
Cu7_2 Cu 0.05320(9) 0.68195(7) 0.0088(2)
C1_2 C 0.1514(5) 0.8394(4) 0.1250(13)
C2_2 C 0.2072(6) 0.8797(4) 0.1988(16)
C3_2 C 0.1098(6) 0.7905(4) 0.2533(13)
C4_2 C 0.2465(6) 0.9243(4) 0.0347(13)
O1_2 O 0.0556(3) 0.7481(2) 0.1706(10)
O3_2 O 0.3029(3) 0.9480(2) 0.0648(8)
C5_2 C 0.1819(5) 0.8273(4) 0.5417(13)
C6_2 C 0.1261(6) 0.7870(4) 0.4679(16)
C7_2 C 0.2235(6) 0.8762(4) 0.4134(13)
C8_2 C 0.0868(6) 0.7424(4) 0.6320(13)
O4_2 O 0.2777(3) 0.9186(2) 0.4961(10)
O5_2 O 0.1078(3) 0.7334(2) 0.7965(10)
O6_2 O 0.0304(3) 0.7187(2) 0.6019(8)
Cu4_2 Cu 0.28013(9) 0.98472(7) 0.6579(2)
Cu8_2 Cu 0.34861(7) 0.96208(5) 0.3246(2)
O12_2 O 0.0216(4) 0.6362(3) 0.2685(8)
H2_2 H 0.194852 0.821911 0.701537
O2_2 O 0.2255(3) 0.9333(2) 0.8702(10)
O8_2 O 0.0258(4) 0.6111(3) 0.8373(10)
H1_2 H 0.138481 0.844756 0.96513
Cu1_2 Cu 0.98472(7) 0.70459(5) 0.3421(2)
Cu5_2 Cu 0.96208(9) 0.61346(5) 0.6754(2)
O7_2 O 0.9186(4) 0.6408(2) 0.5039(10)
O9_2 O 0.9333(4) 0.7078(2) 0.1298(10)
O11_2 O 0.9480(4) 0.6451(2) 0.9352(8)
Cu1_3 Cu 0.71987(5) 0.01528(7) 0.3421(2)
Cu5_3 Cu 0.65139(7) 0.03792(9) 0.6754(2)
O7_3 O 0.7223(3) 0.0814(4) 0.5039(10)
O9_3 O 0.7745(3) 0.0667(4) 0.1298(10)
O11_3 O 0.6971(3) 0.0520(4) 0.9352(8)
Cu7_3 Cu 0.62874(5) 0.94680(9) 0.0088(2)
C1_3 C 0.6880(3) 0.8486(5) 0.1250(13)
C2_3 C 0.6725(4) 0.7928(6) 0.1988(16)
C3_3 C 0.6807(4) 0.8902(6) 0.2533(13)
C4_3 C 0.6778(5) 0.7535(6) 0.0347(13)
O1_3 O 0.6925(2) 0.9444(3) 0.1706(10)
O3_3 O 0.6451(2) 0.6971(3) 0.0648(8)
C5_3 C 0.6453(3) 0.8181(5) 0.5417(13)
C6_3 C 0.6608(4) 0.8739(6) 0.4679(16)
C7_3 C 0.6526(4) 0.7765(6) 0.4134(13)
C8_3 C 0.6555(5) 0.9132(6) 0.6320(13)
O4_3 O 0.6408(2) 0.7223(3) 0.4961(10)
O5_3 O 0.6255(2) 0.8922(3) 0.7965(10)
O6_3 O 0.6882(2) 0.9696(3) 0.6019(8)
Cu4_3 Cu 0.70459(5) 0.71987(9) 0.6579(2)
Cu8_3 Cu 0.61346(5) 0.65139(7) 0.3246(2)
O12_3 O 0.6147(2) 0.9784(4) 0.2685(8)
H2_3 H 0.627059 0.805148 0.701537
O2_3 O 0.7078(2) 0.7745(3) 0.8702(10)
Cu6_3 Cu 0.68195(7) 0.62874(9) 0.9912(2)
O8_3 O 0.5852(2) 0.9742(4) 0.8373(10)
H1_3 H 0.706275 0.861519 0.96513
H2_4 H 0.844756 0.706275 0.03487
C1_4 C 0.8273(4) 0.6453(3) 0.4583(13)
C2_4 C 0.7870(4) 0.6608(4) 0.5321(16)
C3_4 C 0.8762(4) 0.6526(4) 0.5866(13)
C4_4 C 0.7424(4) 0.6555(5) 0.3680(13)
O2_4 O 0.7334(2) 0.6255(2) 0.2035(10)
O3_4 O 0.7187(2) 0.6882(2) 0.3981(8)
C5_4 C 0.8394(4) 0.6880(3) 0.8750(13)
C6_4 C 0.8797(4) 0.6725(4) 0.8012(16)
C7_4 C 0.7905(4) 0.6807(4) 0.7467(13)
C8_4 C 0.9243(4) 0.6778(5) 0.9653(13)
O4_4 O 0.7481(2) 0.6925(2) 0.8294(10)
O9_4 O 0.9589(2) 0.5588(3) 0.4631(10)
H1_4 H 0.821911 0.627059 0.298463
H2_5 H 0.861519 0.155244 0.03487
C1_5 C 0.8181(5) 0.1727(4) 0.4583(13)
C2_5 C 0.8739(6) 0.2130(4) 0.5321(16)
C3_5 C 0.7765(6) 0.1238(4) 0.5866(13)
C4_5 C 0.9132(6) 0.2576(4) 0.3680(13)
O2_5 O 0.8922(3) 0.2666(2) 0.2035(10)
O3_5 O 0.9696(3) 0.2813(2) 0.3981(8)
C5_5 C 0.8486(5) 0.1606(4) 0.8750(13)
C6_5 C 0.7928(6) 0.1203(4) 0.8012(16)
C7_5 C 0.8902(6) 0.2095(4) 0.7467(13)
C8_5 C 0.7535(6) 0.0757(4) 0.9653(13)
O4_5 O 0.9444(3) 0.2519(2) 0.8294(10)
O9_5 O 0.6000(4) 0.0411(2) 0.4631(10)
H1_5 H 0.805148 0.178089 0.298463
H2_6 H 0.293725 0.138481 0.03487
C1_6 C 0.3547(3) 0.1819(5) 0.4583(13)
C2_6 C 0.3392(4) 0.1261(6) 0.5321(16)
C3_6 C 0.3474(4) 0.2235(6) 0.5866(13)
C4_6 C 0.3445(5) 0.0868(6) 0.3680(13)
O2_6 O 0.3745(2) 0.1078(3) 0.2035(10)
O3_6 O 0.3118(2) 0.0304(3) 0.3981(8)
C5_6 C 0.3120(3) 0.1514(5) 0.8750(13)
C6_6 C 0.3275(4) 0.2072(6) 0.8012(16)
C7_6 C 0.3193(4) 0.1098(6) 0.7467(13)
C8_6 C 0.3222(5) 0.2465(6) 0.9653(13)
O4_6 O 0.3075(2) 0.0556(3) 0.8294(10)
O9_6 O 0.4412(3) 0.4000(4) 0.4631(10)
H1_6 H 0.372941 0.194852 0.298463
C5_7 C 0.5061(4) 0.0213(3) 0.2083(13)
C6_7 C 0.5464(4) 0.0058(4) 0.1345(16)
C7_7 C 0.4572(4) 0.0140(4) 0.0800(13)
C8_7 C 0.5910(4) 0.0111(5) 0.2986(13)
O4_7 O 0.4148(2) 0.0258(2) 0.1627(10)
H2_7 H 0.511423 0.0396081 0.368203
O3_7 O 0.3853(2) 0.0216(2) 0.7315(8)
C1_7 C 0.4939(4) 0.9787(3) 0.7917(13)
C2_7 C 0.4536(4) 0.9942(4) 0.8655(16)
C3_7 C 0.5428(4) 0.9860(4) 0.9200(13)
C4_7 C 0.4090(4) 0.9889(5) 0.7014(13)
O2_7 O 0.4000(2) 0.9589(2) 0.5369(10)
H1_7 H 0.488577 0.960392 0.631797
C5_8 C 0.5153(5) 0.4939(4) 0.2083(13)
C6_8 C 0.4595(6) 0.4536(4) 0.1345(16)
C7_8 C 0.5569(6) 0.5428(4) 0.0800(13)
C8_8 C 0.4202(6) 0.4090(4) 0.2986(13)
O4_8 O 0.6111(3) 0.5852(2) 0.1627(10)
H2_8 H 0.528185 0.488577 0.368203
C1_8 C 0.4847(5) 0.5061(4) 0.7917(13)
C2_8 C 0.5405(6) 0.5464(4) 0.8655(16)
C3_8 C 0.4431(6) 0.4572(4) 0.9200(13)
C4_8 C 0.5798(6) 0.5910(4) 0.7014(13)
O2_8 O 0.5588(3) 0.6000(2) 0.5369(10)
O3_8 O 0.6362(3) 0.6147(2) 0.7315(8)
H1_8 H 0.471815 0.511423 0.631797
C1_9 C 0.0213(3) 0.5153(5) 0.7917(13)
C2_9 C 0.0058(4) 0.4595(6) 0.8655(16)
C3_9 C 0.0140(4) 0.5569(6) 0.9200(13)
C4_9 C 0.0111(5) 0.4202(6) 0.7014(13)
O2_9 O 0.0411(2) 0.4412(3) 0.5369(10)
H1_9 H 0.0396081 0.528185 0.631797
C5_9 C 0.9787(3) 0.4847(5) 0.2083(13)
C6_9 C 0.9942(4) 0.5405(6) 0.1345(16)
C7_9 C 0.9860(4) 0.4431(6) 0.0800(13)
C8_9 C 0.9889(5) 0.5798(6) 0.2986(13)
O4_9 O 0.9742(2) 0.3889(3) 0.1627(10)
H2_9 H 0.960392 0.471815 0.368203
O3_9 O 0.9784(2) 0.3638(3) 0.7315(8)
loop_
_geom_bond_atom_site_label_1
_geom_bond_atom_site_label_2
_geom_bond_site_symmetry_1
_geom_bond_site_symmetry_2
Cu1 O1 1_555 1_555
C1 C2 1_555 1_555
C2 C4 1_555 1_555
C3 C1 1_555 1_555
O1 C3 1_555 1_555
O3 C4 1_555 1_555
C5 C6 1_555 1_555
C6 C3 1_555 1_555
C7 C2 1_555 1_555
C8 C6 1_555 1_555
O4 C7 1_555 1_555
O5 C8 1_555 1_555
O6 Cu1 1_555 1_555
Cu7 O1 1_555 1_555
Cu4 O4 1_555 1_555
Cu5 O6 1_555 1_555
Cu8 O3 1_555 1_555
O7 Cu1 1_555 1_555
O9 Cu1 1_555 1_555
O12 Cu1 1_555 1_555
C5 C7 1_555 1_555
C8 O6 1_555 1_555
O4 Cu8 1_555 1_555
Cu7 O12 1_555 1_555
Cu5 O7 1_555 1_555
C5 H2 1_555 1_555
O2 Cu4 1_555 1_555
C1_2 C2_2 1_555 1_555
C2_2 C4_2 1_555 1_555
C3_2 C1_2 1_555 1_555
O1_2 C3_2 1_555 1_555
O3_2 C4_2 1_555 1_555
C5_2 C6_2 1_555 1_555
C6_2 C3_2 1_555 1_555
C7_2 C2_2 1_555 1_555
C8_2 C6_2 1_555 1_555
O4_2 C7_2 1_555 1_555
O5_2 C8_2 1_555 1_555
Cu7_2 O1_2 1_555 1_555
Cu4_2 O4_2 1_555 1_555
Cu8_2 O3_2 1_555 1_555
C5_2 C7_2 1_555 1_555
C8_2 O6_2 1_555 1_555
O4_2 Cu8_2 1_555 1_555
Cu7_2 O12_2 1_555 1_555
C5_2 H2_2 1_555 1_555
O2_2 Cu4_2 1_555 1_555
O7_2 Cu1_2 1_555 1_555
O9_2 Cu1_2 1_555 1_555
Cu5_2 O7_2 1_555 1_555
O7_3 Cu1_3 1_555 1_555
O9_3 Cu1_3 1_555 1_555
Cu5_3 O7_3 1_555 1_555
C1_3 C2_3 1_555 1_555
C2_3 C4_3 1_555 1_555
C3_3 C1_3 1_555 1_555
O1_3 C3_3 1_555 1_555
O3_3 C4_3 1_555 1_555
C5_3 C6_3 1_555 1_555
C6_3 C3_3 1_555 1_555
C7_3 C2_3 1_555 1_555
C8_3 C6_3 1_555 1_555
O4_3 C7_3 1_555 1_555
O5_3 C8_3 1_555 1_555
Cu7_3 O1_3 1_555 1_555
Cu4_3 O4_3 1_555 1_555
Cu8_3 O3_3 1_555 1_555
C5_3 C7_3 1_555 1_555
C8_3 O6_3 1_555 1_555
O4_3 Cu8_3 1_555 1_555
Cu7_3 O12_3 1_555 1_555
C5_3 H2_3 1_555 1_555
O2_3 Cu4_3 1_555 1_555
C1_4 C2_4 1_555 1_555
C2_4 C4_4 1_555 1_555
C3_4 C1_4 1_555 1_555
C4_4 O2_4 1_555 1_555
O7_2 C3_4 1_555 1_555
O3_4 C4_4 1_555 1_555
C5_4 C6_4 1_555 1_555
C6_4 C3_4 1_555 1_555
C7_4 C2_4 1_555 1_555
C8_4 C6_4 1_555 1_555
O4_4 C7_4 1_555 1_555
O11_2 Cu5_2 1_555 1_555
Cu6_3 O4_4 1_555 1_555
Cu8_3 O3_4 1_555 1_555
Cu4_3 O3_4 1_555 1_555
O9_4 Cu5_2 1_555 1_555
C5_4 C7_4 1_555 1_555
C8_4 O11_2 1_555 1_555
O4_4 Cu4_3 1_555 1_555
C1_4 H1_4 1_555 1_555
C1_5 C2_5 1_555 1_555
C2_5 C4_5 1_555 1_555
C3_5 C1_5 1_555 1_555
C4_5 O2_5 1_555 1_555
O7_3 C3_5 1_555 1_555
O3_5 C4_5 1_555 1_555
C5_5 C6_5 1_555 1_555
C6_5 C3_5 1_555 1_555
C7_5 C2_5 1_555 1_555
C8_5 C6_5 1_555 1_555
O4_5 C7_5 1_555 1_555
O11_3 Cu5_3 1_555 1_555
Cu6 O4_5 1_555 1_555
O9_5 Cu5_3 1_555 1_555
C5_5 C7_5 1_555 1_555
C8_5 O11_3 1_555 1_555
C1_5 H1_5 1_555 1_555
C1_6 C2_6 1_555 1_555
C2_6 C4_6 1_555 1_555
C3_6 C1_6 1_555 1_555
C4_6 O2_6 1_555 1_555
O7 C3_6 1_555 1_555
O3_6 C4_6 1_555 1_555
C5_6 C6_6 1_555 1_555
C6_6 C3_6 1_555 1_555
C7_6 C2_6 1_555 1_555
C8_6 C6_6 1_555 1_555
O4_6 C7_6 1_555 1_555
O11 Cu5 1_555 1_555
Cu6_2 O4_6 1_555 1_555
O8 Cu5 1_555 1_555
O9_6 Cu5 1_555 1_555
C5_6 C7_6 1_555 1_555
C8_6 O11 1_555 1_555
C1_6 H1_6 1_555 1_555
C5_7 C6_7 1_555 1_555
C8_7 C6_7 1_555 1_555
O4_7 C7_7 1_555 1_555
O9_5 C8_7 1_555 1_555
C5_7 C7_7 1_555 1_555
C5_7 H2_7 1_555 1_555
Cu6_2 O3_7 1_555 1_555
C1_7 C2_7 1_555 1_555
C2_7 C4_7 1_555 1_555
C3_7 C1_7 1_555 1_555
C4_7 O2_7 1_555 1_555
O8_3 C3_7 1_555 1_555
O2_7 Cu8_2 1_555 1_555
C1_7 H1_7 1_555 1_555
C5_8 C6_8 1_555 1_555
C8_8 C6_8 1_555 1_555
O4_8 C7_8 1_555 1_555
O9_6 C8_8 1_555 1_555
Cu8_3 O4_8 1_555 1_555
C5_8 C7_8 1_555 1_555
C8_8 O12 1_555 1_555
C5_8 H2_8 1_555 1_555
C1_8 C2_8 1_555 1_555
C2_8 C4_8 1_555 1_555
C3_8 C1_8 1_555 1_555
C4_8 O2_8 1_555 1_555
O8 C3_8 1_555 1_555
O2_8 Cu8_3 1_555 1_555
O3_8 C4_8 1_555 1_555
Cu4_3 O3_8 1_555 1_555
Cu6_3 O3_8 1_555 1_555
C1_8 H1_8 1_555 1_555
C1_9 C2_9 1_555 1_555
C2_9 C4_9 1_555 1_555
C3_9 C1_9 1_555 1_555
C4_9 O2_9 1_555 1_555
O8_2 C3_9 1_555 1_555
O2_9 Cu8 1_555 1_555
C1_9 H1_9 1_555 1_555
C5_9 C6_9 1_555 1_555
C8_9 C6_9 1_555 1_555
O4_9 C7_9 1_555 1_555
O9_4 C8_9 1_555 1_555
C5_9 C7_9 1_555 1_555
C5_9 H2_9 1_555 1_555
Cu6 O3_9 1_555 1_555

#END
