
###############################################################################
#
# This file contains modified crystal structure data generated from the
# MOF subset of the Cambridge Structural Database (CSD) v543 
# hosted by the Cambridge Crystallographic Data Centre (CCDC).
#
# This work is licensed under the Creative Commons
# Attribution-NonCommercial-ShareAlike 4.0 International License.
# To view a copy of this license, visit
# http://creativecommons.org/licenses/by-nc-sa/4.0/
# or send a letter to
# Creative Commons, PO Box 1866, Mountain View, CA 94042, USA.
#
# CIF created using the CSD Python API on 29 September 2022
# The structure has been converted into the P1 space group
# The structure has a 3D framework
# The original CSD entry MOJPOT19 is in the rhombohedral crystal system
# The framework has been calculated to contain at least 10.0% void space
# The void calculation uses a probe of radius 1.32A, grid spacing 0.4
# H atom positions have been added when not included in the experimental data
#
###############################################################################

data_MOJPOT19
_chemical_formula_moiety         '(C72 H18 Cu7 O44)n'
_symmetry_cell_setting           triclinic
_symmetry_space_group_name_H-M   'P 1'
_symmetry_Int_Tables_number      1
_space_group_name_Hall           'P 1'
loop_
_symmetry_equiv_pos_site_id
_symmetry_equiv_pos_as_xyz
1 x,y,z
_cell_length_a                   25.9143(3)
_cell_length_b                   25.9143(3)
_cell_length_c                   6.27754(7)
_cell_angle_alpha                90
_cell_angle_beta                 90
_cell_angle_gamma                120
_cell_volume                     3650.89
loop_
_atom_site_label
_atom_site_type_symbol
_atom_site_fract_x
_atom_site_fract_y
_atom_site_fract_z
Cu7 Cu 0.31802(7) 0.37124(5) 0.0089(2)
Cu1 Cu 0.29543(5) 0.28012(5) 0.3422(2)
C1 C 0.1610(3) 0.3125(3) 0.1251(13)
C2 C 0.1202(4) 0.3273(4) 0.1985(15)
C3 C 0.2094(4) 0.3191(4) 0.2541(13)
C4 C 0.0761(3) 0.3226(4) 0.0337(13)
O1 O 0.2518(2) 0.3074(2) 0.1699(9)
O3 O 0.0520(2) 0.3548(2) 0.0662(8)
C5 C 0.1723(3) 0.3542(3) 0.5416(13)
C6 C 0.2131(4) 0.3394(4) 0.4682(15)
C7 C 0.1239(4) 0.3476(4) 0.4126(13)
C8 C 0.2572(3) 0.3441(4) 0.6330(13)
O4 O 0.0815(2) 0.3593(2) 0.4968(9)
O5 O 0.2667(2) 0.3746(2) 0.7971(10)
O6 O 0.2813(2) 0.3119(2) 0.6005(8)
Cu4 Cu 0.01531(7) 0.29543(5) 0.6578(2)
Cu5 Cu 0.38655(5) 0.34864(7) 0.6755(2)
Cu8 Cu 0.03790(5) 0.38655(5) 0.3245(2)
O7 O 0.3593(2) 0.2777(3) 0.5032(9)
O9 O 0.2921(2) 0.2255(3) 0.1304(10)
O12 O 0.3639(3) 0.3853(2) 0.2671(8)
H2 H 0.176958 0.371447 0.702819
O2 O 0.0666(2) 0.2921(2) 0.8696(10)
O8 O 0.3889(3) 0.4149(2) 0.8366(9)
O11 O 0.3548(2) 0.3028(3) 0.9338(8)
H1 H 0.156375 0.295219 0.963847
Cu6 Cu 0.94679(5) 0.31802(7) 0.9911(2)
Cu6_2 Cu 0.37124(9) 0.05321(5) 0.9911(2)
Cu7_2 Cu 0.05321(9) 0.68198(7) 0.0089(2)
C1_2 C 0.1515(4) 0.8390(3) 0.1251(13)
C2_2 C 0.2071(6) 0.8798(4) 0.1985(15)
C3_2 C 0.1097(6) 0.7906(4) 0.2541(13)
C4_2 C 0.2465(5) 0.9239(3) 0.0337(13)
O1_2 O 0.0556(3) 0.7482(2) 0.1699(9)
O3_2 O 0.3028(3) 0.9480(2) 0.0662(8)
C5_2 C 0.1818(4) 0.8277(3) 0.5416(13)
C6_2 C 0.1262(6) 0.7869(4) 0.4682(15)
C7_2 C 0.2236(6) 0.8761(4) 0.4126(13)
C8_2 C 0.0868(5) 0.7428(3) 0.6330(13)
O4_2 O 0.2777(3) 0.9185(2) 0.4968(9)
O5_2 O 0.1078(3) 0.7333(2) 0.7971(10)
O6_2 O 0.0305(3) 0.7187(2) 0.6005(8)
Cu4_2 Cu 0.28012(9) 0.98469(7) 0.6578(2)
Cu8_2 Cu 0.34864(7) 0.96210(5) 0.3245(2)
O12_2 O 0.0215(4) 0.6361(3) 0.2671(8)
H2_2 H 0.194489 0.823042 0.702819
O2_2 O 0.2255(3) 0.9334(2) 0.8696(10)
O8_2 O 0.0259(4) 0.6111(3) 0.8366(9)
H1_2 H 0.138844 0.843625 0.963847
Cu1_2 Cu 0.98469(7) 0.70457(5) 0.3422(2)
Cu5_2 Cu 0.96210(9) 0.61345(5) 0.6755(2)
O7_2 O 0.9185(4) 0.6407(2) 0.5032(9)
O9_2 O 0.9334(4) 0.7079(2) 0.1304(10)
O11_2 O 0.9480(4) 0.6452(2) 0.9338(8)
Cu1_3 Cu 0.71988(5) 0.01531(7) 0.3422(2)
Cu5_3 Cu 0.65136(7) 0.03790(9) 0.6755(2)
O7_3 O 0.7223(3) 0.0815(4) 0.5032(9)
O9_3 O 0.7745(3) 0.0666(4) 0.1304(10)
O11_3 O 0.6972(3) 0.0520(4) 0.9338(8)
Cu7_3 Cu 0.62876(5) 0.94679(9) 0.0089(2)
C1_3 C 0.6875(3) 0.8485(4) 0.1251(13)
C2_3 C 0.6727(4) 0.7929(6) 0.1985(15)
C3_3 C 0.6809(4) 0.8903(6) 0.2541(13)
C4_3 C 0.6774(4) 0.7535(5) 0.0337(13)
O1_3 O 0.6926(2) 0.9444(3) 0.1699(9)
O3_3 O 0.6452(2) 0.6972(3) 0.0662(8)
C5_3 C 0.6458(3) 0.8182(4) 0.5416(13)
C6_3 C 0.6606(4) 0.8738(6) 0.4682(15)
C7_3 C 0.6524(4) 0.7764(6) 0.4126(13)
C8_3 C 0.6559(4) 0.9132(5) 0.6330(13)
O4_3 O 0.6407(2) 0.7223(3) 0.4968(9)
O5_3 O 0.6254(2) 0.8922(3) 0.7971(10)
O6_3 O 0.6881(2) 0.9695(3) 0.6005(8)
Cu4_3 Cu 0.70457(5) 0.71988(9) 0.6578(2)
Cu8_3 Cu 0.61345(5) 0.65136(7) 0.3245(2)
O12_3 O 0.6147(2) 0.9785(4) 0.2671(8)
H2_3 H 0.628553 0.805511 0.702819
O2_3 O 0.7079(2) 0.7745(3) 0.8696(10)
Cu6_3 Cu 0.68198(7) 0.62876(9) 0.9911(2)
O8_3 O 0.5851(2) 0.9741(4) 0.8366(9)
H1_3 H 0.704781 0.861156 0.963847
H2_4 H 0.843625 0.704781 0.0361525
C1_4 C 0.8277(3) 0.6458(3) 0.4584(13)
C2_4 C 0.7869(4) 0.6606(4) 0.5318(15)
C3_4 C 0.8761(4) 0.6524(4) 0.5874(13)
C4_4 C 0.7428(3) 0.6559(4) 0.3670(13)
O2_4 O 0.7333(2) 0.6254(2) 0.2029(10)
O3_4 O 0.7187(2) 0.6881(2) 0.3995(8)
C5_4 C 0.8390(3) 0.6875(3) 0.8749(13)
C6_4 C 0.8798(4) 0.6727(4) 0.8015(15)
C7_4 C 0.7906(4) 0.6809(4) 0.7459(13)
C8_4 C 0.9239(3) 0.6774(4) 0.9663(13)
O4_4 O 0.7482(2) 0.6926(2) 0.8301(9)
O9_4 O 0.9588(2) 0.5588(3) 0.4637(10)
H1_4 H 0.823042 0.628553 0.297181
H2_5 H 0.861156 0.156375 0.0361525
C1_5 C 0.8182(4) 0.1723(3) 0.4584(13)
C2_5 C 0.8738(6) 0.2131(4) 0.5318(15)
C3_5 C 0.7764(6) 0.1239(4) 0.5874(13)
C4_5 C 0.9132(5) 0.2572(3) 0.3670(13)
O2_5 O 0.8922(3) 0.2667(2) 0.2029(10)
O3_5 O 0.9695(3) 0.2813(2) 0.3995(8)
C5_5 C 0.8485(4) 0.1610(3) 0.8749(13)
C6_5 C 0.7929(6) 0.1202(4) 0.8015(15)
C7_5 C 0.8903(6) 0.2094(4) 0.7459(13)
C8_5 C 0.7535(5) 0.0761(3) 0.9663(13)
O4_5 O 0.9444(3) 0.2518(2) 0.8301(9)
O9_5 O 0.6001(4) 0.0412(2) 0.4637(10)
H1_5 H 0.805511 0.176958 0.297181
H2_6 H 0.295219 0.138844 0.0361525
C1_6 C 0.3542(3) 0.1818(4) 0.4584(13)
C2_6 C 0.3394(4) 0.1262(6) 0.5318(15)
C3_6 C 0.3476(4) 0.2236(6) 0.5874(13)
C4_6 C 0.3441(4) 0.0868(5) 0.3670(13)
O2_6 O 0.3746(2) 0.1078(3) 0.2029(10)
O3_6 O 0.3119(2) 0.0305(3) 0.3995(8)
C5_6 C 0.3125(3) 0.1515(4) 0.8749(13)
C6_6 C 0.3273(4) 0.2071(6) 0.8015(15)
C7_6 C 0.3191(4) 0.1097(6) 0.7459(13)
C8_6 C 0.3226(4) 0.2465(5) 0.9663(13)
O4_6 O 0.3074(2) 0.0556(3) 0.8301(9)
O9_6 O 0.4412(3) 0.3999(4) 0.4637(10)
H1_6 H 0.371447 0.194489 0.297181
C5_7 C 0.5057(3) 0.0208(3) 0.2082(13)
C6_7 C 0.5465(4) 0.0060(4) 0.1348(15)
C7_7 C 0.4573(4) 0.0142(4) 0.0792(13)
C8_7 C 0.5906(3) 0.0107(4) 0.2996(13)
O4_7 O 0.4149(2) 0.0259(2) 0.1634(9)
H2_7 H 0.510291 0.0381139 0.369486
O3_7 O 0.3853(2) 0.0215(2) 0.7329(8)
C1_7 C 0.4943(3) 0.9792(3) 0.7918(13)
C2_7 C 0.4535(4) 0.9940(4) 0.8652(15)
C3_7 C 0.5427(4) 0.9858(4) 0.9208(13)
C4_7 C 0.4094(3) 0.9893(4) 0.7004(13)
O2_7 O 0.3999(2) 0.9588(2) 0.5363(10)
H1_7 H 0.489709 0.961886 0.630514
C5_8 C 0.5152(4) 0.4943(3) 0.2082(13)
C6_8 C 0.4596(6) 0.4535(4) 0.1348(15)
C7_8 C 0.5570(6) 0.5427(4) 0.0792(13)
C8_8 C 0.4202(5) 0.4094(3) 0.2996(13)
O4_8 O 0.6111(3) 0.5851(2) 0.1634(9)
H2_8 H 0.527823 0.489709 0.369486
C1_8 C 0.4848(4) 0.5057(3) 0.7918(13)
C2_8 C 0.5404(6) 0.5465(4) 0.8652(15)
C3_8 C 0.4430(6) 0.4573(4) 0.9208(13)
C4_8 C 0.5798(5) 0.5906(3) 0.7004(13)
O2_8 O 0.5588(3) 0.6001(2) 0.5363(10)
O3_8 O 0.6361(3) 0.6147(2) 0.7329(8)
H1_8 H 0.472177 0.510291 0.630514
C1_9 C 0.0208(3) 0.5152(4) 0.7918(13)
C2_9 C 0.0060(4) 0.4596(6) 0.8652(15)
C3_9 C 0.0142(4) 0.5570(6) 0.9208(13)
C4_9 C 0.0107(4) 0.4202(5) 0.7004(13)
O2_9 O 0.0412(2) 0.4412(3) 0.5363(10)
H1_9 H 0.0381139 0.527823 0.630514
C5_9 C 0.9792(3) 0.4848(4) 0.2082(13)
C6_9 C 0.9940(4) 0.5404(6) 0.1348(15)
C7_9 C 0.9858(4) 0.4430(6) 0.0792(13)
C8_9 C 0.9893(4) 0.5798(5) 0.2996(13)
O4_9 O 0.9741(2) 0.3889(3) 0.1634(9)
H2_9 H 0.961886 0.472177 0.369486
O3_9 O 0.9785(2) 0.3639(3) 0.7329(8)
loop_
_geom_bond_atom_site_label_1
_geom_bond_atom_site_label_2
_geom_bond_site_symmetry_1
_geom_bond_site_symmetry_2
Cu1 O1 1_555 1_555
C1 C2 1_555 1_555
C2 C4 1_555 1_555
C3 C1 1_555 1_555
O1 C3 1_555 1_555
O3 C4 1_555 1_555
C5 C6 1_555 1_555
C6 C3 1_555 1_555
C7 C2 1_555 1_555
C8 C6 1_555 1_555
O4 C7 1_555 1_555
O5 C8 1_555 1_555
O6 Cu1 1_555 1_555
Cu7 O1 1_555 1_555
Cu4 O4 1_555 1_555
Cu5 O6 1_555 1_555
Cu8 O3 1_555 1_555
O7 Cu1 1_555 1_555
O9 Cu1 1_555 1_555
O12 Cu1 1_555 1_555
C5 C7 1_555 1_555
C8 O6 1_555 1_555
O4 Cu8 1_555 1_555
Cu7 O12 1_555 1_555
Cu5 O7 1_555 1_555
C5 H2 1_555 1_555
O2 Cu4 1_555 1_555
C1_2 C2_2 1_555 1_555
C2_2 C4_2 1_555 1_555
C3_2 C1_2 1_555 1_555
O1_2 C3_2 1_555 1_555
O3_2 C4_2 1_555 1_555
C5_2 C6_2 1_555 1_555
C6_2 C3_2 1_555 1_555
C7_2 C2_2 1_555 1_555
C8_2 C6_2 1_555 1_555
O4_2 C7_2 1_555 1_555
O5_2 C8_2 1_555 1_555
Cu7_2 O1_2 1_555 1_555
Cu4_2 O4_2 1_555 1_555
Cu8_2 O3_2 1_555 1_555
C5_2 C7_2 1_555 1_555
C8_2 O6_2 1_555 1_555
O4_2 Cu8_2 1_555 1_555
Cu7_2 O12_2 1_555 1_555
C5_2 H2_2 1_555 1_555
O2_2 Cu4_2 1_555 1_555
O7_2 Cu1_2 1_555 1_555
O9_2 Cu1_2 1_555 1_555
Cu5_2 O7_2 1_555 1_555
O7_3 Cu1_3 1_555 1_555
O9_3 Cu1_3 1_555 1_555
Cu5_3 O7_3 1_555 1_555
C1_3 C2_3 1_555 1_555
C2_3 C4_3 1_555 1_555
C3_3 C1_3 1_555 1_555
O1_3 C3_3 1_555 1_555
O3_3 C4_3 1_555 1_555
C5_3 C6_3 1_555 1_555
C6_3 C3_3 1_555 1_555
C7_3 C2_3 1_555 1_555
C8_3 C6_3 1_555 1_555
O4_3 C7_3 1_555 1_555
O5_3 C8_3 1_555 1_555
Cu7_3 O1_3 1_555 1_555
Cu4_3 O4_3 1_555 1_555
Cu8_3 O3_3 1_555 1_555
C5_3 C7_3 1_555 1_555
C8_3 O6_3 1_555 1_555
O4_3 Cu8_3 1_555 1_555
Cu7_3 O12_3 1_555 1_555
C5_3 H2_3 1_555 1_555
O2_3 Cu4_3 1_555 1_555
C1_4 C2_4 1_555 1_555
C2_4 C4_4 1_555 1_555
C3_4 C1_4 1_555 1_555
C4_4 O2_4 1_555 1_555
O7_2 C3_4 1_555 1_555
O3_4 C4_4 1_555 1_555
C5_4 C6_4 1_555 1_555
C6_4 C3_4 1_555 1_555
C7_4 C2_4 1_555 1_555
C8_4 C6_4 1_555 1_555
O4_4 C7_4 1_555 1_555
O11_2 Cu5_2 1_555 1_555
Cu6_3 O4_4 1_555 1_555
Cu8_3 O3_4 1_555 1_555
Cu4_3 O3_4 1_555 1_555
O9_4 Cu5_2 1_555 1_555
C5_4 C7_4 1_555 1_555
C8_4 O11_2 1_555 1_555
O4_4 Cu4_3 1_555 1_555
C1_4 H1_4 1_555 1_555
C1_5 C2_5 1_555 1_555
C2_5 C4_5 1_555 1_555
C3_5 C1_5 1_555 1_555
C4_5 O2_5 1_555 1_555
O7_3 C3_5 1_555 1_555
O3_5 C4_5 1_555 1_555
C5_5 C6_5 1_555 1_555
C6_5 C3_5 1_555 1_555
C7_5 C2_5 1_555 1_555
C8_5 C6_5 1_555 1_555
O4_5 C7_5 1_555 1_555
O11_3 Cu5_3 1_555 1_555
Cu6 O4_5 1_555 1_555
O9_5 Cu5_3 1_555 1_555
C5_5 C7_5 1_555 1_555
C8_5 O11_3 1_555 1_555
C1_5 H1_5 1_555 1_555
C1_6 C2_6 1_555 1_555
C2_6 C4_6 1_555 1_555
C3_6 C1_6 1_555 1_555
C4_6 O2_6 1_555 1_555
O7 C3_6 1_555 1_555
O3_6 C4_6 1_555 1_555
C5_6 C6_6 1_555 1_555
C6_6 C3_6 1_555 1_555
C7_6 C2_6 1_555 1_555
C8_6 C6_6 1_555 1_555
O4_6 C7_6 1_555 1_555
O11 Cu5 1_555 1_555
Cu6_2 O4_6 1_555 1_555
O8 Cu5 1_555 1_555
O9_6 Cu5 1_555 1_555
C5_6 C7_6 1_555 1_555
C8_6 O11 1_555 1_555
C1_6 H1_6 1_555 1_555
C5_7 C6_7 1_555 1_555
C8_7 C6_7 1_555 1_555
O4_7 C7_7 1_555 1_555
O9_5 C8_7 1_555 1_555
C5_7 C7_7 1_555 1_555
C5_7 H2_7 1_555 1_555
Cu6_2 O3_7 1_555 1_555
C1_7 C2_7 1_555 1_555
C2_7 C4_7 1_555 1_555
C3_7 C1_7 1_555 1_555
C4_7 O2_7 1_555 1_555
O8_3 C3_7 1_555 1_555
O2_7 Cu8_2 1_555 1_555
C1_7 H1_7 1_555 1_555
C5_8 C6_8 1_555 1_555
C8_8 C6_8 1_555 1_555
O4_8 C7_8 1_555 1_555
O9_6 C8_8 1_555 1_555
Cu8_3 O4_8 1_555 1_555
C5_8 C7_8 1_555 1_555
C8_8 O12 1_555 1_555
C5_8 H2_8 1_555 1_555
C1_8 C2_8 1_555 1_555
C2_8 C4_8 1_555 1_555
C3_8 C1_8 1_555 1_555
C4_8 O2_8 1_555 1_555
O8 C3_8 1_555 1_555
O2_8 Cu8_3 1_555 1_555
O3_8 C4_8 1_555 1_555
Cu4_3 O3_8 1_555 1_555
Cu6_3 O3_8 1_555 1_555
C1_8 H1_8 1_555 1_555
C1_9 C2_9 1_555 1_555
C2_9 C4_9 1_555 1_555
C3_9 C1_9 1_555 1_555
C4_9 O2_9 1_555 1_555
O8_2 C3_9 1_555 1_555
O2_9 Cu8 1_555 1_555
C1_9 H1_9 1_555 1_555
C5_9 C6_9 1_555 1_555
C8_9 C6_9 1_555 1_555
O4_9 C7_9 1_555 1_555
O9_4 C8_9 1_555 1_555
C5_9 C7_9 1_555 1_555
C5_9 H2_9 1_555 1_555
Cu6 O3_9 1_555 1_555

#END
