
###############################################################################
#
# This file contains modified crystal structure data generated from the
# MOF subset of the Cambridge Structural Database (CSD) v543 
# hosted by the Cambridge Crystallographic Data Centre (CCDC).
#
# This work is licensed under the Creative Commons
# Attribution-NonCommercial-ShareAlike 4.0 International License.
# To view a copy of this license, visit
# http://creativecommons.org/licenses/by-nc-sa/4.0/
# or send a letter to
# Creative Commons, PO Box 1866, Mountain View, CA 94042, USA.
#
# CIF created using the CSD Python API on 29 September 2022
# The structure has been converted into the P1 space group
# The structure has a 3D framework
# The original CSD entry MOJPOT80 is in the rhombohedral crystal system
# The framework has been calculated to contain at least 10.0% void space
# The void calculation uses a probe of radius 1.32A, grid spacing 0.4
# H atom positions have been added when not included in the experimental data
#
###############################################################################

data_MOJPOT80
_chemical_formula_moiety         '(C72 H18 Cu7 O44)n'
_symmetry_cell_setting           triclinic
_symmetry_space_group_name_H-M   'P 1'
_symmetry_Int_Tables_number      1
_space_group_name_Hall           'P 1'
loop_
_symmetry_equiv_pos_site_id
_symmetry_equiv_pos_as_xyz
1 x,y,z
_cell_length_a                   25.9159(3)
_cell_length_b                   25.9159(3)
_cell_length_c                   6.27986(7)
_cell_angle_alpha                90
_cell_angle_beta                 90
_cell_angle_gamma                120
_cell_volume                     3652.69
loop_
_atom_site_label
_atom_site_type_symbol
_atom_site_fract_x
_atom_site_fract_y
_atom_site_fract_z
Cu7 Cu 0.31807(7) 0.37129(5) 0.0088(2)
Cu1 Cu 0.29538(5) 0.28012(5) 0.3421(2)
C1 C 0.1611(4) 0.3125(3) 0.1235(13)
C2 C 0.1201(4) 0.3272(4) 0.1986(16)
C3 C 0.2094(4) 0.3191(4) 0.2551(13)
C4 C 0.0756(4) 0.3225(5) 0.0338(13)
O1 O 0.2519(2) 0.3076(2) 0.1700(10)
O3 O 0.0520(2) 0.3550(2) 0.0654(8)
C5 C 0.1722(4) 0.3542(3) 0.5432(13)
C6 C 0.2132(4) 0.3395(4) 0.4681(16)
C7 C 0.1239(4) 0.3476(4) 0.4116(13)
C8 C 0.2577(4) 0.3442(5) 0.6329(13)
O4 O 0.0814(2) 0.3591(2) 0.4967(10)
O5 O 0.2664(2) 0.3747(2) 0.7969(10)
O6 O 0.2813(2) 0.3117(2) 0.6013(8)
Cu4 Cu 0.01526(7) 0.29538(5) 0.6579(2)
Cu5 Cu 0.38655(5) 0.34859(7) 0.6754(2)
Cu8 Cu 0.03795(5) 0.38655(5) 0.3246(2)
O7 O 0.3591(2) 0.2776(3) 0.5033(10)
O9 O 0.2920(2) 0.2251(3) 0.1302(10)
O12 O 0.3637(3) 0.3853(2) 0.2679(8)
H2 H 0.176526 0.371052 0.704834
O2 O 0.0669(2) 0.2920(2) 0.8698(10)
O8 O 0.3890(3) 0.4148(2) 0.8367(10)
O11 O 0.3550(2) 0.3030(3) 0.9346(8)
H1 H 0.156807 0.295615 0.961832
Cu6 Cu 0.94679(5) 0.31807(7) 0.9912(2)
Cu6_2 Cu 0.37129(9) 0.05321(5) 0.9912(2)
Cu7_2 Cu 0.05321(9) 0.68193(7) 0.0088(2)
C1_2 C 0.1514(5) 0.8389(4) 0.1235(13)
C2_2 C 0.2071(6) 0.8799(4) 0.1986(16)
C3_2 C 0.1097(6) 0.7906(4) 0.2551(13)
C4_2 C 0.2469(6) 0.9244(4) 0.0338(13)
O1_2 O 0.0557(3) 0.7481(2) 0.1700(10)
O3_2 O 0.3030(3) 0.9480(2) 0.0654(8)
C5_2 C 0.1819(5) 0.8278(4) 0.5432(13)
C6_2 C 0.1262(6) 0.7868(4) 0.4681(16)
C7_2 C 0.2236(6) 0.8761(4) 0.4116(13)
C8_2 C 0.0864(6) 0.7423(4) 0.6329(13)
O4_2 O 0.2776(3) 0.9186(2) 0.4967(10)
O5_2 O 0.1082(3) 0.7336(2) 0.7969(10)
O6_2 O 0.0303(3) 0.7187(2) 0.6013(8)
Cu4_2 Cu 0.28012(9) 0.98474(7) 0.6579(2)
Cu8_2 Cu 0.34859(7) 0.96205(5) 0.3246(2)
O12_2 O 0.0217(4) 0.6363(3) 0.2679(8)
H2_2 H 0.194526 0.823474 0.704834
O2_2 O 0.2251(3) 0.9331(2) 0.8698(10)
O8_2 O 0.0257(4) 0.6110(3) 0.8367(10)
H1_2 H 0.138807 0.843193 0.961832
Cu1_2 Cu 0.98474(7) 0.70462(5) 0.3421(2)
Cu5_2 Cu 0.96205(9) 0.61345(5) 0.6754(2)
O7_2 O 0.9186(4) 0.6409(2) 0.5033(10)
O9_2 O 0.9331(4) 0.7080(2) 0.1302(10)
O11_2 O 0.9480(4) 0.6450(2) 0.9346(8)
Cu1_3 Cu 0.71988(5) 0.01526(7) 0.3421(2)
Cu5_3 Cu 0.65141(7) 0.03795(9) 0.6754(2)
O7_3 O 0.7224(3) 0.0814(4) 0.5033(10)
O9_3 O 0.7749(3) 0.0669(4) 0.1302(10)
O11_3 O 0.6970(3) 0.0520(4) 0.9346(8)
Cu7_3 Cu 0.62871(5) 0.94679(9) 0.0088(2)
C1_3 C 0.6875(3) 0.8486(5) 0.1235(13)
C2_3 C 0.6728(4) 0.7929(6) 0.1986(16)
C3_3 C 0.6809(4) 0.8903(6) 0.2551(13)
C4_3 C 0.6775(5) 0.7531(6) 0.0338(13)
O1_3 O 0.6924(2) 0.9443(3) 0.1700(10)
O3_3 O 0.6450(2) 0.6970(3) 0.0654(8)
C5_3 C 0.6458(3) 0.8181(5) 0.5432(13)
C6_3 C 0.6605(4) 0.8738(6) 0.4681(16)
C7_3 C 0.6524(4) 0.7764(6) 0.4116(13)
C8_3 C 0.6558(5) 0.9136(6) 0.6329(13)
O4_3 O 0.6409(2) 0.7224(3) 0.4967(10)
O5_3 O 0.6253(2) 0.8918(3) 0.7969(10)
O6_3 O 0.6883(2) 0.9697(3) 0.6013(8)
Cu4_3 Cu 0.70462(5) 0.71988(9) 0.6579(2)
Cu8_3 Cu 0.61345(5) 0.65141(7) 0.3246(2)
O12_3 O 0.6147(2) 0.9783(4) 0.2679(8)
H2_3 H 0.628948 0.805474 0.704834
O2_3 O 0.7080(2) 0.7749(3) 0.8698(10)
Cu6_3 Cu 0.68193(7) 0.62871(9) 0.9912(2)
O8_3 O 0.5852(2) 0.9743(4) 0.8367(10)
H1_3 H 0.704385 0.861193 0.961832
H2_4 H 0.843193 0.704385 0.0381675
C1_4 C 0.8278(4) 0.6458(3) 0.4568(13)
C2_4 C 0.7868(4) 0.6605(4) 0.5319(16)
C3_4 C 0.8761(4) 0.6524(4) 0.5884(13)
C4_4 C 0.7423(4) 0.6558(5) 0.3671(13)
O2_4 O 0.7336(2) 0.6253(2) 0.2031(10)
O3_4 O 0.7187(2) 0.6883(2) 0.3987(8)
C5_4 C 0.8389(4) 0.6875(3) 0.8765(13)
C6_4 C 0.8799(4) 0.6728(4) 0.8014(16)
C7_4 C 0.7906(4) 0.6809(4) 0.7449(13)
C8_4 C 0.9244(4) 0.6775(5) 0.9662(13)
O4_4 O 0.7481(2) 0.6924(2) 0.8300(10)
O9_4 O 0.9587(2) 0.5584(3) 0.4635(10)
H1_4 H 0.823474 0.628948 0.295166
H2_5 H 0.861193 0.156807 0.0381675
C1_5 C 0.8181(5) 0.1722(4) 0.4568(13)
C2_5 C 0.8738(6) 0.2132(4) 0.5319(16)
C3_5 C 0.7764(6) 0.1239(4) 0.5884(13)
C4_5 C 0.9136(6) 0.2577(4) 0.3671(13)
O2_5 O 0.8918(3) 0.2664(2) 0.2031(10)
O3_5 O 0.9697(3) 0.2813(2) 0.3987(8)
C5_5 C 0.8486(5) 0.1611(4) 0.8765(13)
C6_5 C 0.7929(6) 0.1201(4) 0.8014(16)
C7_5 C 0.8903(6) 0.2094(4) 0.7449(13)
C8_5 C 0.7531(6) 0.0756(4) 0.9662(13)
O4_5 O 0.9443(3) 0.2519(2) 0.8300(10)
O9_5 O 0.5998(4) 0.0413(2) 0.4635(10)
H1_5 H 0.805474 0.176526 0.295166
H2_6 H 0.295615 0.138807 0.0381675
C1_6 C 0.3542(3) 0.1819(5) 0.4568(13)
C2_6 C 0.3395(4) 0.1262(6) 0.5319(16)
C3_6 C 0.3476(4) 0.2236(6) 0.5884(13)
C4_6 C 0.3442(5) 0.0864(6) 0.3671(13)
O2_6 O 0.3747(2) 0.1082(3) 0.2031(10)
O3_6 O 0.3117(2) 0.0303(3) 0.3987(8)
C5_6 C 0.3125(3) 0.1514(5) 0.8765(13)
C6_6 C 0.3272(4) 0.2071(6) 0.8014(16)
C7_6 C 0.3191(4) 0.1097(6) 0.7449(13)
C8_6 C 0.3225(5) 0.2469(6) 0.9662(13)
O4_6 O 0.3076(2) 0.0557(3) 0.8300(10)
O9_6 O 0.4416(3) 0.4002(4) 0.4635(10)
H1_6 H 0.371052 0.194526 0.295166
C5_7 C 0.5056(4) 0.0208(3) 0.2098(13)
C6_7 C 0.5466(4) 0.0061(4) 0.1347(16)
C7_7 C 0.4573(4) 0.0142(4) 0.0782(13)
C8_7 C 0.5911(4) 0.0108(5) 0.2995(13)
O4_7 O 0.4148(2) 0.0257(2) 0.1633(10)
H2_7 H 0.509859 0.0377188 0.371501
O3_7 O 0.3853(2) 0.0217(2) 0.7321(8)
C1_7 C 0.4944(4) 0.9792(3) 0.7902(13)
C2_7 C 0.4534(4) 0.9939(4) 0.8653(16)
C3_7 C 0.5427(4) 0.9858(4) 0.9218(13)
C4_7 C 0.4089(4) 0.9892(5) 0.7005(13)
O2_7 O 0.4002(2) 0.9587(2) 0.5365(10)
H1_7 H 0.490141 0.962281 0.628499
C5_8 C 0.5153(5) 0.4944(4) 0.2098(13)
C6_8 C 0.4596(6) 0.4534(4) 0.1347(16)
C7_8 C 0.5570(6) 0.5427(4) 0.0782(13)
C8_8 C 0.4198(6) 0.4089(4) 0.2995(13)
O4_8 O 0.6110(3) 0.5852(2) 0.1633(10)
H2_8 H 0.52786 0.490141 0.371501
C1_8 C 0.4847(5) 0.5056(4) 0.7902(13)
C2_8 C 0.5404(6) 0.5466(4) 0.8653(16)
C3_8 C 0.4430(6) 0.4573(4) 0.9218(13)
C4_8 C 0.5802(6) 0.5911(4) 0.7005(13)
O2_8 O 0.5584(3) 0.5998(2) 0.5365(10)
O3_8 O 0.6363(3) 0.6147(2) 0.7321(8)
H1_8 H 0.47214 0.509859 0.628499
C1_9 C 0.0208(3) 0.5153(5) 0.7902(13)
C2_9 C 0.0061(4) 0.4596(6) 0.8653(16)
C3_9 C 0.0142(4) 0.5570(6) 0.9218(13)
C4_9 C 0.0108(5) 0.4198(6) 0.7005(13)
O2_9 O 0.0413(2) 0.4416(3) 0.5365(10)
H1_9 H 0.0377188 0.52786 0.628499
C5_9 C 0.9792(3) 0.4847(5) 0.2098(13)
C6_9 C 0.9939(4) 0.5404(6) 0.1347(16)
C7_9 C 0.9858(4) 0.4430(6) 0.0782(13)
C8_9 C 0.9892(5) 0.5802(6) 0.2995(13)
O4_9 O 0.9743(2) 0.3890(3) 0.1633(10)
H2_9 H 0.962281 0.47214 0.371501
O3_9 O 0.9783(2) 0.3637(3) 0.7321(8)
loop_
_geom_bond_atom_site_label_1
_geom_bond_atom_site_label_2
_geom_bond_site_symmetry_1
_geom_bond_site_symmetry_2
Cu1 O1 1_555 1_555
C1 C2 1_555 1_555
C2 C4 1_555 1_555
C3 C1 1_555 1_555
O1 C3 1_555 1_555
O3 C4 1_555 1_555
C5 C6 1_555 1_555
C6 C3 1_555 1_555
C7 C2 1_555 1_555
C8 C6 1_555 1_555
O4 C7 1_555 1_555
O5 C8 1_555 1_555
O6 Cu1 1_555 1_555
Cu7 O1 1_555 1_555
Cu4 O4 1_555 1_555
Cu5 O6 1_555 1_555
Cu8 O3 1_555 1_555
O7 Cu1 1_555 1_555
O9 Cu1 1_555 1_555
O12 Cu1 1_555 1_555
C5 C7 1_555 1_555
C8 O6 1_555 1_555
O4 Cu8 1_555 1_555
Cu7 O12 1_555 1_555
Cu5 O7 1_555 1_555
C5 H2 1_555 1_555
O2 Cu4 1_555 1_555
C1_2 C2_2 1_555 1_555
C2_2 C4_2 1_555 1_555
C3_2 C1_2 1_555 1_555
O1_2 C3_2 1_555 1_555
O3_2 C4_2 1_555 1_555
C5_2 C6_2 1_555 1_555
C6_2 C3_2 1_555 1_555
C7_2 C2_2 1_555 1_555
C8_2 C6_2 1_555 1_555
O4_2 C7_2 1_555 1_555
O5_2 C8_2 1_555 1_555
Cu7_2 O1_2 1_555 1_555
Cu4_2 O4_2 1_555 1_555
Cu8_2 O3_2 1_555 1_555
C5_2 C7_2 1_555 1_555
C8_2 O6_2 1_555 1_555
O4_2 Cu8_2 1_555 1_555
Cu7_2 O12_2 1_555 1_555
C5_2 H2_2 1_555 1_555
O2_2 Cu4_2 1_555 1_555
O7_2 Cu1_2 1_555 1_555
O9_2 Cu1_2 1_555 1_555
Cu5_2 O7_2 1_555 1_555
O7_3 Cu1_3 1_555 1_555
O9_3 Cu1_3 1_555 1_555
Cu5_3 O7_3 1_555 1_555
C1_3 C2_3 1_555 1_555
C2_3 C4_3 1_555 1_555
C3_3 C1_3 1_555 1_555
O1_3 C3_3 1_555 1_555
O3_3 C4_3 1_555 1_555
C5_3 C6_3 1_555 1_555
C6_3 C3_3 1_555 1_555
C7_3 C2_3 1_555 1_555
C8_3 C6_3 1_555 1_555
O4_3 C7_3 1_555 1_555
O5_3 C8_3 1_555 1_555
Cu7_3 O1_3 1_555 1_555
Cu4_3 O4_3 1_555 1_555
Cu8_3 O3_3 1_555 1_555
C5_3 C7_3 1_555 1_555
C8_3 O6_3 1_555 1_555
O4_3 Cu8_3 1_555 1_555
Cu7_3 O12_3 1_555 1_555
C5_3 H2_3 1_555 1_555
O2_3 Cu4_3 1_555 1_555
C1_4 C2_4 1_555 1_555
C2_4 C4_4 1_555 1_555
C3_4 C1_4 1_555 1_555
C4_4 O2_4 1_555 1_555
O7_2 C3_4 1_555 1_555
O3_4 C4_4 1_555 1_555
C5_4 C6_4 1_555 1_555
C6_4 C3_4 1_555 1_555
C7_4 C2_4 1_555 1_555
C8_4 C6_4 1_555 1_555
O4_4 C7_4 1_555 1_555
O11_2 Cu5_2 1_555 1_555
Cu6_3 O4_4 1_555 1_555
Cu8_3 O3_4 1_555 1_555
Cu4_3 O3_4 1_555 1_555
O9_4 Cu5_2 1_555 1_555
C5_4 C7_4 1_555 1_555
C8_4 O11_2 1_555 1_555
O4_4 Cu4_3 1_555 1_555
C1_4 H1_4 1_555 1_555
C1_5 C2_5 1_555 1_555
C2_5 C4_5 1_555 1_555
C3_5 C1_5 1_555 1_555
C4_5 O2_5 1_555 1_555
O7_3 C3_5 1_555 1_555
O3_5 C4_5 1_555 1_555
C5_5 C6_5 1_555 1_555
C6_5 C3_5 1_555 1_555
C7_5 C2_5 1_555 1_555
C8_5 C6_5 1_555 1_555
O4_5 C7_5 1_555 1_555
O11_3 Cu5_3 1_555 1_555
Cu6 O4_5 1_555 1_555
O9_5 Cu5_3 1_555 1_555
C5_5 C7_5 1_555 1_555
C8_5 O11_3 1_555 1_555
C1_5 H1_5 1_555 1_555
C1_6 C2_6 1_555 1_555
C2_6 C4_6 1_555 1_555
C3_6 C1_6 1_555 1_555
C4_6 O2_6 1_555 1_555
O7 C3_6 1_555 1_555
O3_6 C4_6 1_555 1_555
C5_6 C6_6 1_555 1_555
C6_6 C3_6 1_555 1_555
C7_6 C2_6 1_555 1_555
C8_6 C6_6 1_555 1_555
O4_6 C7_6 1_555 1_555
O11 Cu5 1_555 1_555
Cu6_2 O4_6 1_555 1_555
O8 Cu5 1_555 1_555
O9_6 Cu5 1_555 1_555
C5_6 C7_6 1_555 1_555
C8_6 O11 1_555 1_555
C1_6 H1_6 1_555 1_555
C5_7 C6_7 1_555 1_555
C8_7 C6_7 1_555 1_555
O4_7 C7_7 1_555 1_555
O9_5 C8_7 1_555 1_555
C5_7 C7_7 1_555 1_555
C5_7 H2_7 1_555 1_555
Cu6_2 O3_7 1_555 1_555
C1_7 C2_7 1_555 1_555
C2_7 C4_7 1_555 1_555
C3_7 C1_7 1_555 1_555
C4_7 O2_7 1_555 1_555
O8_3 C3_7 1_555 1_555
O2_7 Cu8_2 1_555 1_555
C1_7 H1_7 1_555 1_555
C5_8 C6_8 1_555 1_555
C8_8 C6_8 1_555 1_555
O4_8 C7_8 1_555 1_555
O9_6 C8_8 1_555 1_555
Cu8_3 O4_8 1_555 1_555
C5_8 C7_8 1_555 1_555
C8_8 O12 1_555 1_555
C5_8 H2_8 1_555 1_555
C1_8 C2_8 1_555 1_555
C2_8 C4_8 1_555 1_555
C3_8 C1_8 1_555 1_555
C4_8 O2_8 1_555 1_555
O8 C3_8 1_555 1_555
O2_8 Cu8_3 1_555 1_555
O3_8 C4_8 1_555 1_555
Cu4_3 O3_8 1_555 1_555
Cu6_3 O3_8 1_555 1_555
C1_8 H1_8 1_555 1_555
C1_9 C2_9 1_555 1_555
C2_9 C4_9 1_555 1_555
C3_9 C1_9 1_555 1_555
C4_9 O2_9 1_555 1_555
O8_2 C3_9 1_555 1_555
O2_9 Cu8 1_555 1_555
C1_9 H1_9 1_555 1_555
C5_9 C6_9 1_555 1_555
C8_9 C6_9 1_555 1_555
O4_9 C7_9 1_555 1_555
O9_4 C8_9 1_555 1_555
C5_9 C7_9 1_555 1_555
C5_9 H2_9 1_555 1_555
Cu6 O3_9 1_555 1_555

#END
