
###############################################################################
#
# This file contains modified crystal structure data generated from the
# MOF subset of the Cambridge Structural Database (CSD) v543 
# hosted by the Cambridge Crystallographic Data Centre (CCDC).
#
# This work is licensed under the Creative Commons
# Attribution-NonCommercial-ShareAlike 4.0 International License.
# To view a copy of this license, visit
# http://creativecommons.org/licenses/by-nc-sa/4.0/
# or send a letter to
# Creative Commons, PO Box 1866, Mountain View, CA 94042, USA.
#
# CIF created using the CSD Python API on 29 September 2022
# The structure has been converted into the P1 space group
# The structure has a 3D framework
# The original CSD entry MOJPOT58 is in the rhombohedral crystal system
# The framework has been calculated to contain at least 10.0% void space
# The void calculation uses a probe of radius 1.32A, grid spacing 0.4
# H atom positions have been added when not included in the experimental data
#
###############################################################################

data_MOJPOT58
_chemical_formula_moiety         '(C72 H18 Cu7 O44)n'
_symmetry_cell_setting           triclinic
_symmetry_space_group_name_H-M   'P 1'
_symmetry_Int_Tables_number      1
_space_group_name_Hall           'P 1'
loop_
_symmetry_equiv_pos_site_id
_symmetry_equiv_pos_as_xyz
1 x,y,z
_cell_length_a                   25.9150(3)
_cell_length_b                   25.9150(3)
_cell_length_c                   6.27908(7)
_cell_angle_alpha                90
_cell_angle_beta                 90
_cell_angle_gamma                120
_cell_volume                     3651.99
loop_
_atom_site_label
_atom_site_type_symbol
_atom_site_fract_x
_atom_site_fract_y
_atom_site_fract_z
Cu7 Cu 0.31805(7) 0.37125(5) 0.0089(2)
Cu1 Cu 0.29542(5) 0.28014(5) 0.3422(2)
C1 C 0.1610(4) 0.3126(3) 0.1242(13)
C2 C 0.1204(4) 0.3273(4) 0.1981(16)
C3 C 0.2096(4) 0.3192(4) 0.2549(13)
C4 C 0.0756(4) 0.3228(5) 0.0340(13)
O1 O 0.2520(2) 0.3076(2) 0.1699(9)
O3 O 0.0520(2) 0.3550(2) 0.0660(8)
C5 C 0.1723(4) 0.3541(3) 0.5425(13)
C6 C 0.2129(4) 0.3394(4) 0.4686(16)
C7 C 0.1237(4) 0.3475(4) 0.4118(13)
C8 C 0.2577(4) 0.3439(5) 0.6327(13)
O4 O 0.0813(2) 0.3591(2) 0.4968(9)
O5 O 0.2665(2) 0.3746(2) 0.7973(10)
O6 O 0.2813(2) 0.3117(2) 0.6007(8)
Cu4 Cu 0.01528(7) 0.29542(5) 0.6578(2)
Cu5 Cu 0.38653(5) 0.34861(7) 0.6755(2)
Cu8 Cu 0.03791(5) 0.38653(5) 0.3245(2)
O7 O 0.3591(2) 0.2777(3) 0.5032(9)
O9 O 0.2921(2) 0.2253(3) 0.1306(10)
O12 O 0.3637(3) 0.3853(2) 0.2673(8)
H2 H 0.176844 0.371165 0.703918
O2 O 0.0668(2) 0.2921(2) 0.8694(10)
O8 O 0.3889(3) 0.4147(2) 0.8366(9)
O11 O 0.3550(2) 0.3030(3) 0.9340(8)
H1 H 0.156489 0.295502 0.962749
Cu6 Cu 0.94681(5) 0.31805(7) 0.9911(2)
Cu6_2 Cu 0.37125(9) 0.05319(5) 0.9911(2)
Cu7_2 Cu 0.05319(9) 0.68195(7) 0.0089(2)
C1_2 C 0.1516(5) 0.8390(4) 0.1242(13)
C2_2 C 0.2069(6) 0.8796(4) 0.1981(16)
C3_2 C 0.1096(6) 0.7904(4) 0.2549(13)
C4_2 C 0.2472(6) 0.9244(4) 0.0340(13)
O1_2 O 0.0556(3) 0.7480(2) 0.1699(9)
O3_2 O 0.3030(3) 0.9480(2) 0.0660(8)
C5_2 C 0.1817(5) 0.8277(4) 0.5425(13)
C6_2 C 0.1264(6) 0.7871(4) 0.4686(16)
C7_2 C 0.2237(6) 0.8763(4) 0.4118(13)
C8_2 C 0.0861(6) 0.7423(4) 0.6327(13)
O4_2 O 0.2777(3) 0.9187(2) 0.4968(9)
O5_2 O 0.1080(3) 0.7335(2) 0.7973(10)
O6_2 O 0.0303(3) 0.7187(2) 0.6007(8)
Cu4_2 Cu 0.28014(9) 0.98472(7) 0.6578(2)
Cu8_2 Cu 0.34861(7) 0.96209(5) 0.3245(2)
O12_2 O 0.0217(4) 0.6363(3) 0.2673(8)
H2_2 H 0.194321 0.823156 0.703918
O2_2 O 0.2253(3) 0.9332(2) 0.8694(10)
O8_2 O 0.0257(4) 0.6111(3) 0.8366(9)
H1_2 H 0.139013 0.843511 0.962749
Cu1_2 Cu 0.98472(7) 0.70458(5) 0.3422(2)
Cu5_2 Cu 0.96209(9) 0.61347(5) 0.6755(2)
O7_2 O 0.9187(4) 0.6409(2) 0.5032(9)
O9_2 O 0.9332(4) 0.7079(2) 0.1306(10)
O11_2 O 0.9480(4) 0.6450(2) 0.9340(8)
Cu1_3 Cu 0.71986(5) 0.01528(7) 0.3422(2)
Cu5_3 Cu 0.65139(7) 0.03791(9) 0.6755(2)
O7_3 O 0.7223(3) 0.0813(4) 0.5032(9)
O9_3 O 0.7747(3) 0.0668(4) 0.1306(10)
O11_3 O 0.6970(3) 0.0520(4) 0.9340(8)
Cu7_3 Cu 0.62875(5) 0.94681(9) 0.0089(2)
C1_3 C 0.6874(3) 0.8484(5) 0.1242(13)
C2_3 C 0.6727(4) 0.7931(6) 0.1981(16)
C3_3 C 0.6808(4) 0.8904(6) 0.2549(13)
C4_3 C 0.6772(5) 0.7528(6) 0.0340(13)
O1_3 O 0.6924(2) 0.9444(3) 0.1699(9)
O3_3 O 0.6450(2) 0.6970(3) 0.0660(8)
C5_3 C 0.6459(3) 0.8183(5) 0.5425(13)
C6_3 C 0.6606(4) 0.8736(6) 0.4686(16)
C7_3 C 0.6525(4) 0.7763(6) 0.4118(13)
C8_3 C 0.6561(5) 0.9139(6) 0.6327(13)
O4_3 O 0.6409(2) 0.7223(3) 0.4968(9)
O5_3 O 0.6254(2) 0.8920(3) 0.7973(10)
O6_3 O 0.6883(2) 0.9697(3) 0.6007(8)
Cu4_3 Cu 0.70458(5) 0.71986(9) 0.6578(2)
Cu8_3 Cu 0.61347(5) 0.65139(7) 0.3245(2)
O12_3 O 0.6147(2) 0.9783(4) 0.2673(8)
H2_3 H 0.628835 0.805679 0.703918
O2_3 O 0.7079(2) 0.7747(3) 0.8694(10)
Cu6_3 Cu 0.68195(7) 0.62875(9) 0.9911(2)
O8_3 O 0.5853(2) 0.9743(4) 0.8366(9)
H1_3 H 0.704498 0.860987 0.962749
H2_4 H 0.843511 0.704498 0.0372509
C1_4 C 0.8277(4) 0.6459(3) 0.4575(13)
C2_4 C 0.7871(4) 0.6606(4) 0.5314(16)
C3_4 C 0.8763(4) 0.6525(4) 0.5882(13)
C4_4 C 0.7423(4) 0.6561(5) 0.3673(13)
O2_4 O 0.7335(2) 0.6254(2) 0.2027(10)
O3_4 O 0.7187(2) 0.6883(2) 0.3993(8)
C5_4 C 0.8390(4) 0.6874(3) 0.8758(13)
C6_4 C 0.8796(4) 0.6727(4) 0.8019(16)
C7_4 C 0.7904(4) 0.6808(4) 0.7451(13)
C8_4 C 0.9244(4) 0.6772(5) 0.9660(13)
O4_4 O 0.7480(2) 0.6924(2) 0.8301(9)
O9_4 O 0.9588(2) 0.5586(3) 0.4639(10)
H1_4 H 0.823156 0.628835 0.296082
H2_5 H 0.860987 0.156489 0.0372509
C1_5 C 0.8183(5) 0.1723(4) 0.4575(13)
C2_5 C 0.8736(6) 0.2129(4) 0.5314(16)
C3_5 C 0.7763(6) 0.1237(4) 0.5882(13)
C4_5 C 0.9139(6) 0.2577(4) 0.3673(13)
O2_5 O 0.8920(3) 0.2665(2) 0.2027(10)
O3_5 O 0.9697(3) 0.2813(2) 0.3993(8)
C5_5 C 0.8484(5) 0.1610(4) 0.8758(13)
C6_5 C 0.7931(6) 0.1204(4) 0.8019(16)
C7_5 C 0.8904(6) 0.2096(4) 0.7451(13)
C8_5 C 0.7528(6) 0.0756(4) 0.9660(13)
O4_5 O 0.9444(3) 0.2520(2) 0.8301(9)
O9_5 O 0.5999(4) 0.0412(2) 0.4639(10)
H1_5 H 0.805679 0.176844 0.296082
H2_6 H 0.295502 0.139013 0.0372509
C1_6 C 0.3541(3) 0.1817(5) 0.4575(13)
C2_6 C 0.3394(4) 0.1264(6) 0.5314(16)
C3_6 C 0.3475(4) 0.2237(6) 0.5882(13)
C4_6 C 0.3439(5) 0.0861(6) 0.3673(13)
O2_6 O 0.3746(2) 0.1080(3) 0.2027(10)
O3_6 O 0.3117(2) 0.0303(3) 0.3993(8)
C5_6 C 0.3126(3) 0.1516(5) 0.8758(13)
C6_6 C 0.3273(4) 0.2069(6) 0.8019(16)
C7_6 C 0.3192(4) 0.1096(6) 0.7451(13)
C8_6 C 0.3228(5) 0.2472(6) 0.9660(13)
O4_6 O 0.3076(2) 0.0556(3) 0.8301(9)
O9_6 O 0.4414(3) 0.4001(4) 0.4639(10)
H1_6 H 0.371165 0.194321 0.296082
C5_7 C 0.5057(4) 0.0207(3) 0.2091(13)
C6_7 C 0.5463(4) 0.0060(4) 0.1352(16)
C7_7 C 0.4571(4) 0.0141(4) 0.0784(13)
C8_7 C 0.5911(4) 0.0105(5) 0.2993(13)
O4_7 O 0.4147(2) 0.0257(2) 0.1634(9)
H2_7 H 0.510178 0.0378316 0.370584
O3_7 O 0.3853(2) 0.0217(2) 0.7327(8)
C1_7 C 0.4943(4) 0.9793(3) 0.7909(13)
C2_7 C 0.4537(4) 0.9940(4) 0.8648(16)
C3_7 C 0.5429(4) 0.9859(4) 0.9216(13)
C4_7 C 0.4089(4) 0.9895(5) 0.7007(13)
O2_7 O 0.4001(2) 0.9588(2) 0.5361(10)
H1_7 H 0.489822 0.962168 0.629416
C5_8 C 0.5151(5) 0.4943(4) 0.2091(13)
C6_8 C 0.4598(6) 0.4537(4) 0.1352(16)
C7_8 C 0.5571(6) 0.5429(4) 0.0784(13)
C8_8 C 0.4195(6) 0.4089(4) 0.2993(13)
O4_8 O 0.6111(3) 0.5853(2) 0.1634(9)
H2_8 H 0.527654 0.489822 0.370584
C1_8 C 0.4849(5) 0.5057(4) 0.7909(13)
C2_8 C 0.5402(6) 0.5463(4) 0.8648(16)
C3_8 C 0.4429(6) 0.4571(4) 0.9216(13)
C4_8 C 0.5805(6) 0.5911(4) 0.7007(13)
O2_8 O 0.5586(3) 0.5999(2) 0.5361(10)
O3_8 O 0.6363(3) 0.6147(2) 0.7327(8)
H1_8 H 0.472346 0.510178 0.629416
C1_9 C 0.0207(3) 0.5151(5) 0.7909(13)
C2_9 C 0.0060(4) 0.4598(6) 0.8648(16)
C3_9 C 0.0141(4) 0.5571(6) 0.9216(13)
C4_9 C 0.0105(5) 0.4195(6) 0.7007(13)
O2_9 O 0.0412(2) 0.4414(3) 0.5361(10)
H1_9 H 0.0378316 0.527654 0.629416
C5_9 C 0.9793(3) 0.4849(5) 0.2091(13)
C6_9 C 0.9940(4) 0.5402(6) 0.1352(16)
C7_9 C 0.9859(4) 0.4429(6) 0.0784(13)
C8_9 C 0.9895(5) 0.5805(6) 0.2993(13)
O4_9 O 0.9743(2) 0.3889(3) 0.1634(9)
H2_9 H 0.962168 0.472346 0.370584
O3_9 O 0.9783(2) 0.3637(3) 0.7327(8)
loop_
_geom_bond_atom_site_label_1
_geom_bond_atom_site_label_2
_geom_bond_site_symmetry_1
_geom_bond_site_symmetry_2
Cu1 O1 1_555 1_555
C1 C2 1_555 1_555
C2 C4 1_555 1_555
C3 C1 1_555 1_555
O1 C3 1_555 1_555
O3 C4 1_555 1_555
C5 C6 1_555 1_555
C6 C3 1_555 1_555
C7 C2 1_555 1_555
C8 C6 1_555 1_555
O4 C7 1_555 1_555
O5 C8 1_555 1_555
O6 Cu1 1_555 1_555
Cu7 O1 1_555 1_555
Cu4 O4 1_555 1_555
Cu5 O6 1_555 1_555
Cu8 O3 1_555 1_555
O7 Cu1 1_555 1_555
O9 Cu1 1_555 1_555
O12 Cu1 1_555 1_555
C5 C7 1_555 1_555
C8 O6 1_555 1_555
O4 Cu8 1_555 1_555
Cu7 O12 1_555 1_555
Cu5 O7 1_555 1_555
C5 H2 1_555 1_555
O2 Cu4 1_555 1_555
C1_2 C2_2 1_555 1_555
C2_2 C4_2 1_555 1_555
C3_2 C1_2 1_555 1_555
O1_2 C3_2 1_555 1_555
O3_2 C4_2 1_555 1_555
C5_2 C6_2 1_555 1_555
C6_2 C3_2 1_555 1_555
C7_2 C2_2 1_555 1_555
C8_2 C6_2 1_555 1_555
O4_2 C7_2 1_555 1_555
O5_2 C8_2 1_555 1_555
Cu7_2 O1_2 1_555 1_555
Cu4_2 O4_2 1_555 1_555
Cu8_2 O3_2 1_555 1_555
C5_2 C7_2 1_555 1_555
C8_2 O6_2 1_555 1_555
O4_2 Cu8_2 1_555 1_555
Cu7_2 O12_2 1_555 1_555
C5_2 H2_2 1_555 1_555
O2_2 Cu4_2 1_555 1_555
O7_2 Cu1_2 1_555 1_555
O9_2 Cu1_2 1_555 1_555
Cu5_2 O7_2 1_555 1_555
O7_3 Cu1_3 1_555 1_555
O9_3 Cu1_3 1_555 1_555
Cu5_3 O7_3 1_555 1_555
C1_3 C2_3 1_555 1_555
C2_3 C4_3 1_555 1_555
C3_3 C1_3 1_555 1_555
O1_3 C3_3 1_555 1_555
O3_3 C4_3 1_555 1_555
C5_3 C6_3 1_555 1_555
C6_3 C3_3 1_555 1_555
C7_3 C2_3 1_555 1_555
C8_3 C6_3 1_555 1_555
O4_3 C7_3 1_555 1_555
O5_3 C8_3 1_555 1_555
Cu7_3 O1_3 1_555 1_555
Cu4_3 O4_3 1_555 1_555
Cu8_3 O3_3 1_555 1_555
C5_3 C7_3 1_555 1_555
C8_3 O6_3 1_555 1_555
O4_3 Cu8_3 1_555 1_555
Cu7_3 O12_3 1_555 1_555
C5_3 H2_3 1_555 1_555
O2_3 Cu4_3 1_555 1_555
C1_4 C2_4 1_555 1_555
C2_4 C4_4 1_555 1_555
C3_4 C1_4 1_555 1_555
C4_4 O2_4 1_555 1_555
O7_2 C3_4 1_555 1_555
O3_4 C4_4 1_555 1_555
C5_4 C6_4 1_555 1_555
C6_4 C3_4 1_555 1_555
C7_4 C2_4 1_555 1_555
C8_4 C6_4 1_555 1_555
O4_4 C7_4 1_555 1_555
O11_2 Cu5_2 1_555 1_555
Cu6_3 O4_4 1_555 1_555
Cu8_3 O3_4 1_555 1_555
Cu4_3 O3_4 1_555 1_555
O9_4 Cu5_2 1_555 1_555
C5_4 C7_4 1_555 1_555
C8_4 O11_2 1_555 1_555
O4_4 Cu4_3 1_555 1_555
C1_4 H1_4 1_555 1_555
C1_5 C2_5 1_555 1_555
C2_5 C4_5 1_555 1_555
C3_5 C1_5 1_555 1_555
C4_5 O2_5 1_555 1_555
O7_3 C3_5 1_555 1_555
O3_5 C4_5 1_555 1_555
C5_5 C6_5 1_555 1_555
C6_5 C3_5 1_555 1_555
C7_5 C2_5 1_555 1_555
C8_5 C6_5 1_555 1_555
O4_5 C7_5 1_555 1_555
O11_3 Cu5_3 1_555 1_555
Cu6 O4_5 1_555 1_555
O9_5 Cu5_3 1_555 1_555
C5_5 C7_5 1_555 1_555
C8_5 O11_3 1_555 1_555
C1_5 H1_5 1_555 1_555
C1_6 C2_6 1_555 1_555
C2_6 C4_6 1_555 1_555
C3_6 C1_6 1_555 1_555
C4_6 O2_6 1_555 1_555
O7 C3_6 1_555 1_555
O3_6 C4_6 1_555 1_555
C5_6 C6_6 1_555 1_555
C6_6 C3_6 1_555 1_555
C7_6 C2_6 1_555 1_555
C8_6 C6_6 1_555 1_555
O4_6 C7_6 1_555 1_555
O11 Cu5 1_555 1_555
Cu6_2 O4_6 1_555 1_555
O8 Cu5 1_555 1_555
O9_6 Cu5 1_555 1_555
C5_6 C7_6 1_555 1_555
C8_6 O11 1_555 1_555
C1_6 H1_6 1_555 1_555
C5_7 C6_7 1_555 1_555
C8_7 C6_7 1_555 1_555
O4_7 C7_7 1_555 1_555
O9_5 C8_7 1_555 1_555
C5_7 C7_7 1_555 1_555
C5_7 H2_7 1_555 1_555
Cu6_2 O3_7 1_555 1_555
C1_7 C2_7 1_555 1_555
C2_7 C4_7 1_555 1_555
C3_7 C1_7 1_555 1_555
C4_7 O2_7 1_555 1_555
O8_3 C3_7 1_555 1_555
O2_7 Cu8_2 1_555 1_555
C1_7 H1_7 1_555 1_555
C5_8 C6_8 1_555 1_555
C8_8 C6_8 1_555 1_555
O4_8 C7_8 1_555 1_555
O9_6 C8_8 1_555 1_555
Cu8_3 O4_8 1_555 1_555
C5_8 C7_8 1_555 1_555
C8_8 O12 1_555 1_555
C5_8 H2_8 1_555 1_555
C1_8 C2_8 1_555 1_555
C2_8 C4_8 1_555 1_555
C3_8 C1_8 1_555 1_555
C4_8 O2_8 1_555 1_555
O8 C3_8 1_555 1_555
O2_8 Cu8_3 1_555 1_555
O3_8 C4_8 1_555 1_555
Cu4_3 O3_8 1_555 1_555
Cu6_3 O3_8 1_555 1_555
C1_8 H1_8 1_555 1_555
C1_9 C2_9 1_555 1_555
C2_9 C4_9 1_555 1_555
C3_9 C1_9 1_555 1_555
C4_9 O2_9 1_555 1_555
O8_2 C3_9 1_555 1_555
O2_9 Cu8 1_555 1_555
C1_9 H1_9 1_555 1_555
C5_9 C6_9 1_555 1_555
C8_9 C6_9 1_555 1_555
O4_9 C7_9 1_555 1_555
O9_4 C8_9 1_555 1_555
C5_9 C7_9 1_555 1_555
C5_9 H2_9 1_555 1_555
Cu6 O3_9 1_555 1_555

#END
