
###############################################################################
#
# This file contains modified crystal structure data generated from the
# MOF subset of the Cambridge Structural Database (CSD) v543 
# hosted by the Cambridge Crystallographic Data Centre (CCDC).
#
# This work is licensed under the Creative Commons
# Attribution-NonCommercial-ShareAlike 4.0 International License.
# To view a copy of this license, visit
# http://creativecommons.org/licenses/by-nc-sa/4.0/
# or send a letter to
# Creative Commons, PO Box 1866, Mountain View, CA 94042, USA.
#
# CIF created using the CSD Python API on 29 September 2022
# The structure has been converted into the P1 space group
# The structure has a 3D framework
# The original CSD entry MOJPOT23 is in the rhombohedral crystal system
# The framework has been calculated to contain at least 10.0% void space
# The void calculation uses a probe of radius 1.32A, grid spacing 0.4
# H atom positions have been added when not included in the experimental data
#
###############################################################################

data_MOJPOT23
_chemical_formula_moiety         '(C72 H18 Cu7 O44)n'
_symmetry_cell_setting           triclinic
_symmetry_space_group_name_H-M   'P 1'
_symmetry_Int_Tables_number      1
_space_group_name_Hall           'P 1'
loop_
_symmetry_equiv_pos_site_id
_symmetry_equiv_pos_as_xyz
1 x,y,z
_cell_length_a                   25.9145(3)
_cell_length_b                   25.9145(3)
_cell_length_c                   6.27773(7)
_cell_angle_alpha                90
_cell_angle_beta                 90
_cell_angle_gamma                120
_cell_volume                     3651.06
loop_
_atom_site_label
_atom_site_type_symbol
_atom_site_fract_x
_atom_site_fract_y
_atom_site_fract_z
Cu7 Cu 0.31801(7) 0.37123(5) 0.0089(2)
Cu1 Cu 0.29544(5) 0.28012(5) 0.3422(2)
C1 C 0.1607(3) 0.3120(3) 0.1250(13)
C2 C 0.1203(4) 0.3275(4) 0.1989(15)
C3 C 0.2095(4) 0.3192(4) 0.2530(12)
C4 C 0.0762(3) 0.3226(4) 0.0343(13)
O1 O 0.2517(2) 0.3072(2) 0.1704(9)
O3 O 0.0520(2) 0.3548(2) 0.0655(8)
C5 C 0.1726(3) 0.3547(3) 0.5417(13)
C6 C 0.2130(4) 0.3392(4) 0.4678(15)
C7 C 0.1238(4) 0.3475(4) 0.4137(12)
C8 C 0.2571(3) 0.3441(4) 0.6324(13)
O4 O 0.0816(2) 0.3595(2) 0.4963(9)
O5 O 0.2666(2) 0.3744(2) 0.7967(10)
O6 O 0.2813(2) 0.3119(2) 0.6012(8)
Cu4 Cu 0.01532(7) 0.29544(5) 0.6578(2)
Cu5 Cu 0.38655(5) 0.34865(7) 0.6755(2)
Cu8 Cu 0.03789(5) 0.38655(5) 0.3245(2)
O7 O 0.3595(2) 0.2778(3) 0.5037(9)
O9 O 0.2923(2) 0.2256(3) 0.1300(10)
O12 O 0.3639(3) 0.3853(2) 0.2678(8)
H2 H 0.177966 0.372879 0.701699
O2 O 0.0667(2) 0.2923(2) 0.8700(10)
O8 O 0.3888(3) 0.4150(2) 0.8371(9)
O11 O 0.3548(2) 0.3028(3) 0.9345(8)
H1 H 0.155368 0.293788 0.964968
Cu6 Cu 0.94679(5) 0.31801(7) 0.9911(2)
Cu6_2 Cu 0.37123(9) 0.05321(5) 0.9911(2)
Cu7_2 Cu 0.05321(9) 0.68199(7) 0.0089(2)
C1_2 C 0.1513(4) 0.8393(3) 0.1250(13)
C2_2 C 0.2072(6) 0.8797(4) 0.1989(15)
C3_2 C 0.1097(6) 0.7905(4) 0.2530(12)
C4_2 C 0.2464(5) 0.9238(3) 0.0343(13)
O1_2 O 0.0555(3) 0.7483(2) 0.1704(9)
O3_2 O 0.3028(3) 0.9480(2) 0.0655(8)
C5_2 C 0.1820(4) 0.8274(3) 0.5417(13)
C6_2 C 0.1261(6) 0.7870(4) 0.4678(15)
C7_2 C 0.2236(6) 0.8762(4) 0.4137(12)
C8_2 C 0.0869(5) 0.7429(3) 0.6324(13)
O4_2 O 0.2778(3) 0.9184(2) 0.4963(9)
O5_2 O 0.1077(3) 0.7334(2) 0.7967(10)
O6_2 O 0.0305(3) 0.7187(2) 0.6012(8)
Cu4_2 Cu 0.28012(9) 0.98468(7) 0.6578(2)
Cu8_2 Cu 0.34865(7) 0.96211(5) 0.3245(2)
O12_2 O 0.0215(4) 0.6361(3) 0.2678(8)
H2_2 H 0.194913 0.822034 0.701699
O2_2 O 0.2256(3) 0.9333(2) 0.8700(10)
O8_2 O 0.0261(4) 0.6112(3) 0.8371(9)
H1_2 H 0.13842 0.844632 0.964968
Cu1_2 Cu 0.98468(7) 0.70456(5) 0.3422(2)
Cu5_2 Cu 0.96211(9) 0.61345(5) 0.6755(2)
O7_2 O 0.9184(4) 0.6405(2) 0.5037(9)
O9_2 O 0.9333(4) 0.7077(2) 0.1300(10)
O11_2 O 0.9480(4) 0.6452(2) 0.9345(8)
Cu1_3 Cu 0.71988(5) 0.01532(7) 0.3422(2)
Cu5_3 Cu 0.65135(7) 0.03789(9) 0.6755(2)
O7_3 O 0.7222(3) 0.0816(4) 0.5037(9)
O9_3 O 0.7744(3) 0.0667(4) 0.1300(10)
O11_3 O 0.6972(3) 0.0520(4) 0.9345(8)
Cu7_3 Cu 0.62877(5) 0.94679(9) 0.0089(2)
C1_3 C 0.6880(3) 0.8487(4) 0.1250(13)
C2_3 C 0.6725(4) 0.7928(6) 0.1989(15)
C3_3 C 0.6808(4) 0.8903(6) 0.2530(12)
C4_3 C 0.6774(4) 0.7536(5) 0.0343(13)
O1_3 O 0.6928(2) 0.9445(3) 0.1704(9)
O3_3 O 0.6452(2) 0.6972(3) 0.0655(8)
C5_3 C 0.6453(3) 0.8180(4) 0.5417(13)
C6_3 C 0.6608(4) 0.8739(6) 0.4678(15)
C7_3 C 0.6525(4) 0.7764(6) 0.4137(12)
C8_3 C 0.6559(4) 0.9131(5) 0.6324(13)
O4_3 O 0.6405(2) 0.7222(3) 0.4963(9)
O5_3 O 0.6256(2) 0.8923(3) 0.7967(10)
O6_3 O 0.6881(2) 0.9695(3) 0.6012(8)
Cu4_3 Cu 0.70456(5) 0.71988(9) 0.6578(2)
Cu8_3 Cu 0.61345(5) 0.65135(7) 0.3245(2)
O12_3 O 0.6147(2) 0.9785(4) 0.2678(8)
H2_3 H 0.627121 0.805087 0.701699
O2_3 O 0.7077(2) 0.7744(3) 0.8700(10)
Cu6_3 Cu 0.68199(7) 0.62877(9) 0.9911(2)
O8_3 O 0.5850(2) 0.9739(4) 0.8371(9)
H1_3 H 0.706212 0.86158 0.964968
H2_4 H 0.844632 0.706212 0.0350323
C1_4 C 0.8274(3) 0.6453(3) 0.4583(13)
C2_4 C 0.7870(4) 0.6608(4) 0.5322(15)
C3_4 C 0.8762(4) 0.6525(4) 0.5863(12)
C4_4 C 0.7429(3) 0.6559(4) 0.3676(13)
O2_4 O 0.7334(2) 0.6256(2) 0.2033(10)
O3_4 O 0.7187(2) 0.6881(2) 0.3988(8)
C5_4 C 0.8393(3) 0.6880(3) 0.8750(13)
C6_4 C 0.8797(4) 0.6725(4) 0.8011(15)
C7_4 C 0.7905(4) 0.6808(4) 0.7470(12)
C8_4 C 0.9238(3) 0.6774(4) 0.9657(13)
O4_4 O 0.7483(2) 0.6928(2) 0.8296(9)
O9_4 O 0.9590(2) 0.5589(3) 0.4633(10)
H1_4 H 0.822034 0.627121 0.298301
H2_5 H 0.86158 0.155368 0.0350323
C1_5 C 0.8180(4) 0.1726(3) 0.4583(13)
C2_5 C 0.8739(6) 0.2130(4) 0.5322(15)
C3_5 C 0.7764(6) 0.1238(4) 0.5863(12)
C4_5 C 0.9131(5) 0.2571(3) 0.3676(13)
O2_5 O 0.8923(3) 0.2666(2) 0.2033(10)
O3_5 O 0.9695(3) 0.2813(2) 0.3988(8)
C5_5 C 0.8487(4) 0.1607(3) 0.8750(13)
C6_5 C 0.7928(6) 0.1203(4) 0.8011(15)
C7_5 C 0.8903(6) 0.2095(4) 0.7470(12)
C8_5 C 0.7536(5) 0.0762(3) 0.9657(13)
O4_5 O 0.9445(3) 0.2517(2) 0.8296(9)
O9_5 O 0.6000(4) 0.0410(2) 0.4633(10)
H1_5 H 0.805087 0.177966 0.298301
H2_6 H 0.293788 0.13842 0.0350323
C1_6 C 0.3547(3) 0.1820(4) 0.4583(13)
C2_6 C 0.3392(4) 0.1261(6) 0.5322(15)
C3_6 C 0.3475(4) 0.2236(6) 0.5863(12)
C4_6 C 0.3441(4) 0.0869(5) 0.3676(13)
O2_6 O 0.3744(2) 0.1077(3) 0.2033(10)
O3_6 O 0.3119(2) 0.0305(3) 0.3988(8)
C5_6 C 0.3120(3) 0.1513(4) 0.8750(13)
C6_6 C 0.3275(4) 0.2072(6) 0.8011(15)
C7_6 C 0.3192(4) 0.1097(6) 0.7470(12)
C8_6 C 0.3226(4) 0.2464(5) 0.9657(13)
O4_6 O 0.3072(2) 0.0555(3) 0.8296(9)
O9_6 O 0.4411(3) 0.4000(4) 0.4633(10)
H1_6 H 0.372879 0.194913 0.298301
C5_7 C 0.5060(3) 0.0213(3) 0.2083(13)
C6_7 C 0.5464(4) 0.0058(4) 0.1344(15)
C7_7 C 0.4572(4) 0.0141(4) 0.0803(12)
C8_7 C 0.5905(3) 0.0107(4) 0.2990(13)
O4_7 O 0.4150(2) 0.0261(2) 0.1629(9)
H2_7 H 0.511299 0.0395454 0.368366
O3_7 O 0.3853(2) 0.0215(2) 0.7322(8)
C1_7 C 0.4940(3) 0.9787(3) 0.7917(13)
C2_7 C 0.4536(4) 0.9942(4) 0.8656(15)
C3_7 C 0.5428(4) 0.9859(4) 0.9197(12)
C4_7 C 0.4095(3) 0.9893(4) 0.7010(13)
O2_7 O 0.4000(2) 0.9590(2) 0.5367(10)
H1_7 H 0.488701 0.960455 0.631634
C5_8 C 0.5154(4) 0.4940(3) 0.2083(13)
C6_8 C 0.4595(6) 0.4536(4) 0.1344(15)
C7_8 C 0.5570(6) 0.5428(4) 0.0803(12)
C8_8 C 0.4203(5) 0.4095(3) 0.2990(13)
O4_8 O 0.6112(3) 0.5850(2) 0.1629(9)
H2_8 H 0.528246 0.488701 0.368366
C1_8 C 0.4846(4) 0.5060(3) 0.7917(13)
C2_8 C 0.5405(6) 0.5464(4) 0.8656(15)
C3_8 C 0.4430(6) 0.4572(4) 0.9197(12)
C4_8 C 0.5797(5) 0.5905(3) 0.7010(13)
O2_8 O 0.5589(3) 0.6000(2) 0.5367(10)
O3_8 O 0.6361(3) 0.6147(2) 0.7322(8)
H1_8 H 0.471754 0.511299 0.631634
C1_9 C 0.0213(3) 0.5154(4) 0.7917(13)
C2_9 C 0.0058(4) 0.4595(6) 0.8656(15)
C3_9 C 0.0141(4) 0.5570(6) 0.9197(12)
C4_9 C 0.0107(4) 0.4203(5) 0.7010(13)
O2_9 O 0.0410(2) 0.4411(3) 0.5367(10)
H1_9 H 0.0395454 0.528246 0.631634
C5_9 C 0.9787(3) 0.4846(4) 0.2083(13)
C6_9 C 0.9942(4) 0.5405(6) 0.1344(15)
C7_9 C 0.9859(4) 0.4430(6) 0.0803(12)
C8_9 C 0.9893(4) 0.5797(5) 0.2990(13)
O4_9 O 0.9739(2) 0.3888(3) 0.1629(9)
H2_9 H 0.960455 0.471754 0.368366
O3_9 O 0.9785(2) 0.3639(3) 0.7322(8)
loop_
_geom_bond_atom_site_label_1
_geom_bond_atom_site_label_2
_geom_bond_site_symmetry_1
_geom_bond_site_symmetry_2
Cu1 O1 1_555 1_555
C1 C2 1_555 1_555
C2 C4 1_555 1_555
C3 C1 1_555 1_555
O1 C3 1_555 1_555
O3 C4 1_555 1_555
C5 C6 1_555 1_555
C6 C3 1_555 1_555
C7 C2 1_555 1_555
C8 C6 1_555 1_555
O4 C7 1_555 1_555
O5 C8 1_555 1_555
O6 Cu1 1_555 1_555
Cu7 O1 1_555 1_555
Cu4 O4 1_555 1_555
Cu5 O6 1_555 1_555
Cu8 O3 1_555 1_555
O7 Cu1 1_555 1_555
O9 Cu1 1_555 1_555
O12 Cu1 1_555 1_555
C5 C7 1_555 1_555
C8 O6 1_555 1_555
O4 Cu8 1_555 1_555
Cu7 O12 1_555 1_555
Cu5 O7 1_555 1_555
C5 H2 1_555 1_555
O2 Cu4 1_555 1_555
C1_2 C2_2 1_555 1_555
C2_2 C4_2 1_555 1_555
C3_2 C1_2 1_555 1_555
O1_2 C3_2 1_555 1_555
O3_2 C4_2 1_555 1_555
C5_2 C6_2 1_555 1_555
C6_2 C3_2 1_555 1_555
C7_2 C2_2 1_555 1_555
C8_2 C6_2 1_555 1_555
O4_2 C7_2 1_555 1_555
O5_2 C8_2 1_555 1_555
Cu7_2 O1_2 1_555 1_555
Cu4_2 O4_2 1_555 1_555
Cu8_2 O3_2 1_555 1_555
C5_2 C7_2 1_555 1_555
C8_2 O6_2 1_555 1_555
O4_2 Cu8_2 1_555 1_555
Cu7_2 O12_2 1_555 1_555
C5_2 H2_2 1_555 1_555
O2_2 Cu4_2 1_555 1_555
O7_2 Cu1_2 1_555 1_555
O9_2 Cu1_2 1_555 1_555
Cu5_2 O7_2 1_555 1_555
O7_3 Cu1_3 1_555 1_555
O9_3 Cu1_3 1_555 1_555
Cu5_3 O7_3 1_555 1_555
C1_3 C2_3 1_555 1_555
C2_3 C4_3 1_555 1_555
C3_3 C1_3 1_555 1_555
O1_3 C3_3 1_555 1_555
O3_3 C4_3 1_555 1_555
C5_3 C6_3 1_555 1_555
C6_3 C3_3 1_555 1_555
C7_3 C2_3 1_555 1_555
C8_3 C6_3 1_555 1_555
O4_3 C7_3 1_555 1_555
O5_3 C8_3 1_555 1_555
Cu7_3 O1_3 1_555 1_555
Cu4_3 O4_3 1_555 1_555
Cu8_3 O3_3 1_555 1_555
C5_3 C7_3 1_555 1_555
C8_3 O6_3 1_555 1_555
O4_3 Cu8_3 1_555 1_555
Cu7_3 O12_3 1_555 1_555
C5_3 H2_3 1_555 1_555
O2_3 Cu4_3 1_555 1_555
C1_4 C2_4 1_555 1_555
C2_4 C4_4 1_555 1_555
C3_4 C1_4 1_555 1_555
C4_4 O2_4 1_555 1_555
O7_2 C3_4 1_555 1_555
O3_4 C4_4 1_555 1_555
C5_4 C6_4 1_555 1_555
C6_4 C3_4 1_555 1_555
C7_4 C2_4 1_555 1_555
C8_4 C6_4 1_555 1_555
O4_4 C7_4 1_555 1_555
O11_2 Cu5_2 1_555 1_555
Cu6_3 O4_4 1_555 1_555
Cu8_3 O3_4 1_555 1_555
Cu4_3 O3_4 1_555 1_555
O9_4 Cu5_2 1_555 1_555
C5_4 C7_4 1_555 1_555
C8_4 O11_2 1_555 1_555
O4_4 Cu4_3 1_555 1_555
C1_4 H1_4 1_555 1_555
C1_5 C2_5 1_555 1_555
C2_5 C4_5 1_555 1_555
C3_5 C1_5 1_555 1_555
C4_5 O2_5 1_555 1_555
O7_3 C3_5 1_555 1_555
O3_5 C4_5 1_555 1_555
C5_5 C6_5 1_555 1_555
C6_5 C3_5 1_555 1_555
C7_5 C2_5 1_555 1_555
C8_5 C6_5 1_555 1_555
O4_5 C7_5 1_555 1_555
O11_3 Cu5_3 1_555 1_555
Cu6 O4_5 1_555 1_555
O9_5 Cu5_3 1_555 1_555
C5_5 C7_5 1_555 1_555
C8_5 O11_3 1_555 1_555
C1_5 H1_5 1_555 1_555
C1_6 C2_6 1_555 1_555
C2_6 C4_6 1_555 1_555
C3_6 C1_6 1_555 1_555
C4_6 O2_6 1_555 1_555
O7 C3_6 1_555 1_555
O3_6 C4_6 1_555 1_555
C5_6 C6_6 1_555 1_555
C6_6 C3_6 1_555 1_555
C7_6 C2_6 1_555 1_555
C8_6 C6_6 1_555 1_555
O4_6 C7_6 1_555 1_555
O11 Cu5 1_555 1_555
Cu6_2 O4_6 1_555 1_555
O8 Cu5 1_555 1_555
O9_6 Cu5 1_555 1_555
C5_6 C7_6 1_555 1_555
C8_6 O11 1_555 1_555
C1_6 H1_6 1_555 1_555
C5_7 C6_7 1_555 1_555
C8_7 C6_7 1_555 1_555
O4_7 C7_7 1_555 1_555
O9_5 C8_7 1_555 1_555
C5_7 C7_7 1_555 1_555
C5_7 H2_7 1_555 1_555
Cu6_2 O3_7 1_555 1_555
C1_7 C2_7 1_555 1_555
C2_7 C4_7 1_555 1_555
C3_7 C1_7 1_555 1_555
C4_7 O2_7 1_555 1_555
O8_3 C3_7 1_555 1_555
O2_7 Cu8_2 1_555 1_555
C1_7 H1_7 1_555 1_555
C5_8 C6_8 1_555 1_555
C8_8 C6_8 1_555 1_555
O4_8 C7_8 1_555 1_555
O9_6 C8_8 1_555 1_555
Cu8_3 O4_8 1_555 1_555
C5_8 C7_8 1_555 1_555
C8_8 O12 1_555 1_555
C5_8 H2_8 1_555 1_555
C1_8 C2_8 1_555 1_555
C2_8 C4_8 1_555 1_555
C3_8 C1_8 1_555 1_555
C4_8 O2_8 1_555 1_555
O8 C3_8 1_555 1_555
O2_8 Cu8_3 1_555 1_555
O3_8 C4_8 1_555 1_555
Cu4_3 O3_8 1_555 1_555
Cu6_3 O3_8 1_555 1_555
C1_8 H1_8 1_555 1_555
C1_9 C2_9 1_555 1_555
C2_9 C4_9 1_555 1_555
C3_9 C1_9 1_555 1_555
C4_9 O2_9 1_555 1_555
O8_2 C3_9 1_555 1_555
O2_9 Cu8 1_555 1_555
C1_9 H1_9 1_555 1_555
C5_9 C6_9 1_555 1_555
C8_9 C6_9 1_555 1_555
O4_9 C7_9 1_555 1_555
O9_4 C8_9 1_555 1_555
C5_9 C7_9 1_555 1_555
C5_9 H2_9 1_555 1_555
Cu6 O3_9 1_555 1_555

#END
