
###############################################################################
#
# This file contains modified crystal structure data generated from the
# MOF subset of the Cambridge Structural Database (CSD) v543 
# hosted by the Cambridge Crystallographic Data Centre (CCDC).
#
# This work is licensed under the Creative Commons
# Attribution-NonCommercial-ShareAlike 4.0 International License.
# To view a copy of this license, visit
# http://creativecommons.org/licenses/by-nc-sa/4.0/
# or send a letter to
# Creative Commons, PO Box 1866, Mountain View, CA 94042, USA.
#
# CIF created using the CSD Python API on 29 September 2022
# The structure has been converted into the P1 space group
# The structure has a 3D framework
# The original CSD entry MOJPOT82 is in the rhombohedral crystal system
# The framework has been calculated to contain at least 10.0% void space
# The void calculation uses a probe of radius 1.32A, grid spacing 0.4
# H atom positions have been added when not included in the experimental data
#
###############################################################################

data_MOJPOT82
_chemical_formula_moiety         '(C72 H18 Cu7 O44)n'
_symmetry_cell_setting           triclinic
_symmetry_space_group_name_H-M   'P 1'
_symmetry_Int_Tables_number      1
_space_group_name_Hall           'P 1'
loop_
_symmetry_equiv_pos_site_id
_symmetry_equiv_pos_as_xyz
1 x,y,z
_cell_length_a                   25.9159(3)
_cell_length_b                   25.9159(3)
_cell_length_c                   6.28004(7)
_cell_angle_alpha                90
_cell_angle_beta                 90
_cell_angle_gamma                120
_cell_volume                     3652.8
loop_
_atom_site_label
_atom_site_type_symbol
_atom_site_fract_x
_atom_site_fract_y
_atom_site_fract_z
Cu7 Cu 0.31807(7) 0.37128(5) 0.0087(2)
Cu1 Cu 0.29539(5) 0.28013(5) 0.3420(2)
C1 C 0.1611(4) 0.3126(3) 0.1238(13)
C2 C 0.1202(4) 0.3272(4) 0.1984(16)
C3 C 0.2093(4) 0.3191(4) 0.2554(13)
C4 C 0.0755(4) 0.3225(5) 0.0335(14)
O1 O 0.2520(2) 0.3077(2) 0.1697(10)
O3 O 0.0520(2) 0.3549(2) 0.0658(8)
C5 C 0.1722(4) 0.3541(3) 0.5429(13)
C6 C 0.2131(4) 0.3395(4) 0.4683(16)
C7 C 0.1240(4) 0.3476(4) 0.4113(13)
C8 C 0.2578(4) 0.3442(5) 0.6332(14)
O4 O 0.0813(2) 0.3590(2) 0.4970(10)
O5 O 0.2665(2) 0.3748(2) 0.7969(10)
O6 O 0.2813(2) 0.3118(2) 0.6009(8)
Cu4 Cu 0.01526(7) 0.29539(5) 0.6580(2)
Cu5 Cu 0.38654(5) 0.34859(7) 0.6753(2)
Cu8 Cu 0.03794(5) 0.38654(5) 0.3247(2)
O7 O 0.3590(2) 0.2776(3) 0.5030(10)
O9 O 0.2919(2) 0.2251(3) 0.1302(10)
O12 O 0.3638(3) 0.3853(2) 0.2675(8)
H1 H 0.176444 0.370862 0.704633
O2 O 0.0668(2) 0.2919(2) 0.8698(10)
O8 O 0.3890(3) 0.4147(2) 0.8364(10)
O11 O 0.3549(2) 0.3029(3) 0.9342(8)
H2 H 0.156889 0.295804 0.962034
Cu6 Cu 0.94680(5) 0.31807(7) 0.9913(2)
Cu6_2 Cu 0.37128(9) 0.05320(5) 0.9913(2)
Cu7_2 Cu 0.05320(9) 0.68193(7) 0.0087(2)
C1_2 C 0.1515(5) 0.8389(4) 0.1238(13)
C2_2 C 0.2070(6) 0.8798(4) 0.1984(16)
C3_2 C 0.1098(6) 0.7907(4) 0.2554(13)
C4_2 C 0.2470(6) 0.9245(4) 0.0335(14)
O1_2 O 0.0557(3) 0.7480(2) 0.1697(10)
O3_2 O 0.3029(3) 0.9480(2) 0.0658(8)
C5_2 C 0.1818(5) 0.8278(4) 0.5429(13)
C6_2 C 0.1263(6) 0.7869(4) 0.4683(16)
C7_2 C 0.2235(6) 0.8760(4) 0.4113(13)
C8_2 C 0.0863(6) 0.7422(4) 0.6332(14)
O4_2 O 0.2776(3) 0.9187(2) 0.4970(10)
O5_2 O 0.1082(3) 0.7335(2) 0.7969(10)
O6_2 O 0.0304(3) 0.7187(2) 0.6009(8)
Cu4_2 Cu 0.28013(9) 0.98474(7) 0.6580(2)
Cu8_2 Cu 0.34859(7) 0.96206(5) 0.3247(2)
O12_2 O 0.0216(4) 0.6362(3) 0.2675(8)
H1_2 H 0.194418 0.823556 0.704633
O2_2 O 0.2251(3) 0.9332(2) 0.8698(10)
O8_2 O 0.0256(4) 0.6110(3) 0.8364(10)
H2_2 H 0.138915 0.843111 0.962034
Cu1_2 Cu 0.98474(7) 0.70461(5) 0.3420(2)
Cu5_2 Cu 0.96206(9) 0.61346(5) 0.6753(2)
O7_2 O 0.9187(4) 0.6410(2) 0.5030(10)
O9_2 O 0.9332(4) 0.7081(2) 0.1302(10)
O11_2 O 0.9480(4) 0.6451(2) 0.9342(8)
Cu1_3 Cu 0.71987(5) 0.01526(7) 0.3420(2)
Cu5_3 Cu 0.65141(7) 0.03794(9) 0.6753(2)
O7_3 O 0.7224(3) 0.0813(4) 0.5030(10)
O9_3 O 0.7749(3) 0.0668(4) 0.1302(10)
O11_3 O 0.6971(3) 0.0520(4) 0.9342(8)
Cu7_3 Cu 0.62872(5) 0.94680(9) 0.0087(2)
C1_3 C 0.6874(3) 0.8485(5) 0.1238(13)
C2_3 C 0.6728(4) 0.7930(6) 0.1984(16)
C3_3 C 0.6809(4) 0.8902(6) 0.2554(13)
C4_3 C 0.6775(5) 0.7530(6) 0.0335(14)
O1_3 O 0.6923(2) 0.9443(3) 0.1697(10)
O3_3 O 0.6451(2) 0.6971(3) 0.0658(8)
C5_3 C 0.6459(3) 0.8182(5) 0.5429(13)
C6_3 C 0.6605(4) 0.8737(6) 0.4683(16)
C7_3 C 0.6524(4) 0.7765(6) 0.4113(13)
C8_3 C 0.6558(5) 0.9137(6) 0.6332(14)
O4_3 O 0.6410(2) 0.7224(3) 0.4970(10)
O5_3 O 0.6252(2) 0.8918(3) 0.7969(10)
O6_3 O 0.6882(2) 0.9696(3) 0.6009(8)
Cu4_3 Cu 0.70461(5) 0.71987(9) 0.6580(2)
Cu8_3 Cu 0.61346(5) 0.65141(7) 0.3247(2)
O12_3 O 0.6147(2) 0.9784(4) 0.2675(8)
H1_3 H 0.629138 0.805582 0.704633
O2_3 O 0.7081(2) 0.7749(3) 0.8698(10)
Cu6_3 Cu 0.68193(7) 0.62872(9) 0.9913(2)
O8_3 O 0.5853(2) 0.9744(4) 0.8364(10)
H2_3 H 0.704196 0.861085 0.962034
H1_4 H 0.843111 0.704196 0.0379659
C1_4 C 0.8278(4) 0.6459(3) 0.4571(13)
C2_4 C 0.7869(4) 0.6605(4) 0.5317(16)
C3_4 C 0.8760(4) 0.6524(4) 0.5887(13)
C4_4 C 0.7422(4) 0.6558(5) 0.3668(14)
O2_4 O 0.7335(2) 0.6252(2) 0.2031(10)
O3_4 O 0.7187(2) 0.6882(2) 0.3991(8)
C5_4 C 0.8389(4) 0.6874(3) 0.8762(13)
C6_4 C 0.8798(4) 0.6728(4) 0.8016(16)
C7_4 C 0.7907(4) 0.6809(4) 0.7446(13)
C8_4 C 0.9245(4) 0.6775(5) 0.9665(14)
O4_4 O 0.7480(2) 0.6923(2) 0.8303(10)
O9_4 O 0.9586(2) 0.5584(3) 0.4635(10)
H2_4 H 0.823556 0.629138 0.295367
H1_5 H 0.861085 0.156889 0.0379659
C1_5 C 0.8182(5) 0.1722(4) 0.4571(13)
C2_5 C 0.8737(6) 0.2131(4) 0.5317(16)
C3_5 C 0.7765(6) 0.1240(4) 0.5887(13)
C4_5 C 0.9137(6) 0.2578(4) 0.3668(14)
O2_5 O 0.8918(3) 0.2665(2) 0.2031(10)
O3_5 O 0.9696(3) 0.2813(2) 0.3991(8)
C5_5 C 0.8485(5) 0.1611(4) 0.8762(13)
C6_5 C 0.7930(6) 0.1202(4) 0.8016(16)
C7_5 C 0.8902(6) 0.2093(4) 0.7446(13)
C8_5 C 0.7530(6) 0.0755(4) 0.9665(14)
O4_5 O 0.9443(3) 0.2520(2) 0.8303(10)
O9_5 O 0.5999(4) 0.0414(2) 0.4635(10)
H2_5 H 0.805582 0.176444 0.295367
H1_6 H 0.295804 0.138915 0.0379659
C1_6 C 0.3541(3) 0.1818(5) 0.4571(13)
C2_6 C 0.3395(4) 0.1263(6) 0.5317(16)
C3_6 C 0.3476(4) 0.2235(6) 0.5887(13)
C4_6 C 0.3442(5) 0.0863(6) 0.3668(14)
O2_6 O 0.3748(2) 0.1082(3) 0.2031(10)
O3_6 O 0.3118(2) 0.0304(3) 0.3991(8)
C5_6 C 0.3126(3) 0.1515(5) 0.8762(13)
C6_6 C 0.3272(4) 0.2070(6) 0.8016(16)
C7_6 C 0.3191(4) 0.1098(6) 0.7446(13)
C8_6 C 0.3225(5) 0.2470(6) 0.9665(14)
O4_6 O 0.3077(2) 0.0557(3) 0.8303(10)
O9_6 O 0.4416(3) 0.4001(4) 0.4635(10)
H2_6 H 0.370862 0.194418 0.295367
C5_7 C 0.5056(4) 0.0207(3) 0.2095(13)
C6_7 C 0.5465(4) 0.0061(4) 0.1349(16)
C7_7 C 0.4574(4) 0.0142(4) 0.0779(13)
C8_7 C 0.5912(4) 0.0108(5) 0.2998(14)
O4_7 O 0.4147(2) 0.0256(2) 0.1636(10)
H1_7 H 0.509777 0.0375291 0.371299
O3_7 O 0.3853(2) 0.0216(2) 0.7325(8)
C1_7 C 0.4944(4) 0.9793(3) 0.7905(13)
C2_7 C 0.4535(4) 0.9939(4) 0.8651(16)
C3_7 C 0.5426(4) 0.9858(4) 0.9221(13)
C4_7 C 0.4088(4) 0.9892(5) 0.7002(14)
O2_7 O 0.4001(2) 0.9586(2) 0.5365(10)
H2_7 H 0.490223 0.962471 0.628701
C5_8 C 0.5152(5) 0.4944(4) 0.2095(13)
C6_8 C 0.4597(6) 0.4535(4) 0.1349(16)
C7_8 C 0.5569(6) 0.5426(4) 0.0779(13)
C8_8 C 0.4197(6) 0.4088(4) 0.2998(14)
O4_8 O 0.6110(3) 0.5853(2) 0.1636(10)
H1_8 H 0.527752 0.490223 0.371299
C1_8 C 0.4848(5) 0.5056(4) 0.7905(13)
C2_8 C 0.5403(6) 0.5465(4) 0.8651(16)
C3_8 C 0.4431(6) 0.4574(4) 0.9221(13)
C4_8 C 0.5803(6) 0.5912(4) 0.7002(14)
O2_8 O 0.5584(3) 0.5999(2) 0.5365(10)
O3_8 O 0.6362(3) 0.6147(2) 0.7325(8)
H2_8 H 0.472248 0.509777 0.628701
C1_9 C 0.0207(3) 0.5152(5) 0.7905(13)
C2_9 C 0.0061(4) 0.4597(6) 0.8651(16)
C3_9 C 0.0142(4) 0.5569(6) 0.9221(13)
C4_9 C 0.0108(5) 0.4197(6) 0.7002(14)
O2_9 O 0.0414(2) 0.4416(3) 0.5365(10)
H2_9 H 0.0375291 0.527752 0.628701
C5_9 C 0.9793(3) 0.4848(5) 0.2095(13)
C6_9 C 0.9939(4) 0.5403(6) 0.1349(16)
C7_9 C 0.9858(4) 0.4431(6) 0.0779(13)
C8_9 C 0.9892(5) 0.5803(6) 0.2998(14)
O4_9 O 0.9744(2) 0.3890(3) 0.1636(10)
H1_9 H 0.962471 0.472248 0.371299
O3_9 O 0.9784(2) 0.3638(3) 0.7325(8)
loop_
_geom_bond_atom_site_label_1
_geom_bond_atom_site_label_2
_geom_bond_site_symmetry_1
_geom_bond_site_symmetry_2
Cu1 O1 1_555 1_555
C1 C2 1_555 1_555
C2 C4 1_555 1_555
C3 C1 1_555 1_555
O1 C3 1_555 1_555
O3 C4 1_555 1_555
C5 C6 1_555 1_555
C6 C3 1_555 1_555
C7 C2 1_555 1_555
C8 C6 1_555 1_555
O4 C7 1_555 1_555
O5 C8 1_555 1_555
O6 Cu1 1_555 1_555
Cu7 O1 1_555 1_555
Cu4 O4 1_555 1_555
Cu5 O6 1_555 1_555
Cu8 O3 1_555 1_555
O7 Cu1 1_555 1_555
O9 Cu1 1_555 1_555
O12 Cu1 1_555 1_555
C5 C7 1_555 1_555
C8 O6 1_555 1_555
O4 Cu8 1_555 1_555
Cu7 O12 1_555 1_555
Cu5 O7 1_555 1_555
C5 H1 1_555 1_555
O2 Cu4 1_555 1_555
C1_2 C2_2 1_555 1_555
C2_2 C4_2 1_555 1_555
C3_2 C1_2 1_555 1_555
O1_2 C3_2 1_555 1_555
O3_2 C4_2 1_555 1_555
C5_2 C6_2 1_555 1_555
C6_2 C3_2 1_555 1_555
C7_2 C2_2 1_555 1_555
C8_2 C6_2 1_555 1_555
O4_2 C7_2 1_555 1_555
O5_2 C8_2 1_555 1_555
Cu7_2 O1_2 1_555 1_555
Cu4_2 O4_2 1_555 1_555
Cu8_2 O3_2 1_555 1_555
C5_2 C7_2 1_555 1_555
C8_2 O6_2 1_555 1_555
O4_2 Cu8_2 1_555 1_555
Cu7_2 O12_2 1_555 1_555
C5_2 H1_2 1_555 1_555
O2_2 Cu4_2 1_555 1_555
O7_2 Cu1_2 1_555 1_555
O9_2 Cu1_2 1_555 1_555
Cu5_2 O7_2 1_555 1_555
O7_3 Cu1_3 1_555 1_555
O9_3 Cu1_3 1_555 1_555
Cu5_3 O7_3 1_555 1_555
C1_3 C2_3 1_555 1_555
C2_3 C4_3 1_555 1_555
C3_3 C1_3 1_555 1_555
O1_3 C3_3 1_555 1_555
O3_3 C4_3 1_555 1_555
C5_3 C6_3 1_555 1_555
C6_3 C3_3 1_555 1_555
C7_3 C2_3 1_555 1_555
C8_3 C6_3 1_555 1_555
O4_3 C7_3 1_555 1_555
O5_3 C8_3 1_555 1_555
Cu7_3 O1_3 1_555 1_555
Cu4_3 O4_3 1_555 1_555
Cu8_3 O3_3 1_555 1_555
C5_3 C7_3 1_555 1_555
C8_3 O6_3 1_555 1_555
O4_3 Cu8_3 1_555 1_555
Cu7_3 O12_3 1_555 1_555
C5_3 H1_3 1_555 1_555
O2_3 Cu4_3 1_555 1_555
C1_4 C2_4 1_555 1_555
C2_4 C4_4 1_555 1_555
C3_4 C1_4 1_555 1_555
C4_4 O2_4 1_555 1_555
O7_2 C3_4 1_555 1_555
O3_4 C4_4 1_555 1_555
C5_4 C6_4 1_555 1_555
C6_4 C3_4 1_555 1_555
C7_4 C2_4 1_555 1_555
C8_4 C6_4 1_555 1_555
O4_4 C7_4 1_555 1_555
O11_2 Cu5_2 1_555 1_555
Cu6_3 O4_4 1_555 1_555
Cu8_3 O3_4 1_555 1_555
Cu4_3 O3_4 1_555 1_555
O9_4 Cu5_2 1_555 1_555
C5_4 C7_4 1_555 1_555
C8_4 O11_2 1_555 1_555
O4_4 Cu4_3 1_555 1_555
C1_4 H2_4 1_555 1_555
C1_5 C2_5 1_555 1_555
C2_5 C4_5 1_555 1_555
C3_5 C1_5 1_555 1_555
C4_5 O2_5 1_555 1_555
O7_3 C3_5 1_555 1_555
O3_5 C4_5 1_555 1_555
C5_5 C6_5 1_555 1_555
C6_5 C3_5 1_555 1_555
C7_5 C2_5 1_555 1_555
C8_5 C6_5 1_555 1_555
O4_5 C7_5 1_555 1_555
O11_3 Cu5_3 1_555 1_555
Cu6 O4_5 1_555 1_555
O9_5 Cu5_3 1_555 1_555
C5_5 C7_5 1_555 1_555
C8_5 O11_3 1_555 1_555
C1_5 H2_5 1_555 1_555
C1_6 C2_6 1_555 1_555
C2_6 C4_6 1_555 1_555
C3_6 C1_6 1_555 1_555
C4_6 O2_6 1_555 1_555
O7 C3_6 1_555 1_555
O3_6 C4_6 1_555 1_555
C5_6 C6_6 1_555 1_555
C6_6 C3_6 1_555 1_555
C7_6 C2_6 1_555 1_555
C8_6 C6_6 1_555 1_555
O4_6 C7_6 1_555 1_555
O11 Cu5 1_555 1_555
Cu6_2 O4_6 1_555 1_555
O8 Cu5 1_555 1_555
O9_6 Cu5 1_555 1_555
C5_6 C7_6 1_555 1_555
C8_6 O11 1_555 1_555
C1_6 H2_6 1_555 1_555
C5_7 C6_7 1_555 1_555
C8_7 C6_7 1_555 1_555
O4_7 C7_7 1_555 1_555
O9_5 C8_7 1_555 1_555
C5_7 C7_7 1_555 1_555
C5_7 H1_7 1_555 1_555
Cu6_2 O3_7 1_555 1_555
C1_7 C2_7 1_555 1_555
C2_7 C4_7 1_555 1_555
C3_7 C1_7 1_555 1_555
C4_7 O2_7 1_555 1_555
O8_3 C3_7 1_555 1_555
O2_7 Cu8_2 1_555 1_555
C1_7 H2_7 1_555 1_555
C5_8 C6_8 1_555 1_555
C8_8 C6_8 1_555 1_555
O4_8 C7_8 1_555 1_555
O9_6 C8_8 1_555 1_555
Cu8_3 O4_8 1_555 1_555
C5_8 C7_8 1_555 1_555
C8_8 O12 1_555 1_555
C5_8 H1_8 1_555 1_555
C1_8 C2_8 1_555 1_555
C2_8 C4_8 1_555 1_555
C3_8 C1_8 1_555 1_555
C4_8 O2_8 1_555 1_555
O8 C3_8 1_555 1_555
O2_8 Cu8_3 1_555 1_555
O3_8 C4_8 1_555 1_555
Cu4_3 O3_8 1_555 1_555
Cu6_3 O3_8 1_555 1_555
C1_8 H2_8 1_555 1_555
C1_9 C2_9 1_555 1_555
C2_9 C4_9 1_555 1_555
C3_9 C1_9 1_555 1_555
C4_9 O2_9 1_555 1_555
O8_2 C3_9 1_555 1_555
O2_9 Cu8 1_555 1_555
C1_9 H2_9 1_555 1_555
C5_9 C6_9 1_555 1_555
C8_9 C6_9 1_555 1_555
O4_9 C7_9 1_555 1_555
O9_4 C8_9 1_555 1_555
C5_9 C7_9 1_555 1_555
C5_9 H1_9 1_555 1_555
Cu6 O3_9 1_555 1_555

#END
