
###############################################################################
#
# This file contains modified crystal structure data generated from the
# MOF subset of the Cambridge Structural Database (CSD) v543 
# hosted by the Cambridge Crystallographic Data Centre (CCDC).
#
# This work is licensed under the Creative Commons
# Attribution-NonCommercial-ShareAlike 4.0 International License.
# To view a copy of this license, visit
# http://creativecommons.org/licenses/by-nc-sa/4.0/
# or send a letter to
# Creative Commons, PO Box 1866, Mountain View, CA 94042, USA.
#
# CIF created using the CSD Python API on 29 September 2022
# The structure has been converted into the P1 space group
# The structure has a 3D framework
# The original CSD entry MOJPOT73 is in the rhombohedral crystal system
# The framework has been calculated to contain at least 10.0% void space
# The void calculation uses a probe of radius 1.32A, grid spacing 0.4
# H atom positions have been added when not included in the experimental data
#
###############################################################################

data_MOJPOT73
_chemical_formula_moiety         '(C72 H18 Cu7 O44)n'
_symmetry_cell_setting           triclinic
_symmetry_space_group_name_H-M   'P 1'
_symmetry_Int_Tables_number      1
_space_group_name_Hall           'P 1'
loop_
_symmetry_equiv_pos_site_id
_symmetry_equiv_pos_as_xyz
1 x,y,z
_cell_length_a                   25.9156(3)
_cell_length_b                   25.9156(3)
_cell_length_c                   6.27970(7)
_cell_angle_alpha                90
_cell_angle_beta                 90
_cell_angle_gamma                120
_cell_volume                     3652.52
loop_
_atom_site_label
_atom_site_type_symbol
_atom_site_fract_x
_atom_site_fract_y
_atom_site_fract_z
Cu7 Cu 0.31807(7) 0.37127(5) 0.0088(2)
Cu1 Cu 0.29540(5) 0.28014(5) 0.3421(2)
C1 C 0.1612(4) 0.3125(3) 0.1233(13)
C2 C 0.1201(4) 0.3272(4) 0.1983(16)
C3 C 0.2093(4) 0.3190(4) 0.2556(13)
C4 C 0.0757(4) 0.3226(5) 0.0335(13)
O1 O 0.2520(2) 0.3076(2) 0.1696(10)
O3 O 0.0520(2) 0.3550(2) 0.0658(8)
C5 C 0.1721(4) 0.3542(3) 0.5434(13)
C6 C 0.2132(4) 0.3395(4) 0.4684(16)
C7 C 0.1240(4) 0.3477(4) 0.4111(13)
C8 C 0.2576(4) 0.3441(5) 0.6332(13)
O4 O 0.0813(2) 0.3591(2) 0.4971(10)
O5 O 0.2665(2) 0.3747(2) 0.7969(10)
O6 O 0.2813(2) 0.3117(2) 0.6009(8)
Cu4 Cu 0.01526(7) 0.29540(5) 0.6579(2)
Cu5 Cu 0.38653(5) 0.34859(7) 0.6754(2)
Cu8 Cu 0.03793(5) 0.38653(5) 0.3246(2)
O7 O 0.3591(2) 0.2777(3) 0.5029(10)
O9 O 0.2920(2) 0.2252(3) 0.1302(10)
O12 O 0.3637(3) 0.3853(2) 0.2675(8)
H2 H 0.176257 0.370928 0.705156
O2 O 0.0668(2) 0.2920(2) 0.8698(10)
O8 O 0.3889(3) 0.4147(2) 0.8363(10)
O11 O 0.3550(2) 0.3030(3) 0.9342(8)
H1 H 0.157076 0.295738 0.961511
Cu6 Cu 0.94681(5) 0.31807(7) 0.9912(2)
Cu6_2 Cu 0.37127(9) 0.05319(5) 0.9912(2)
Cu7_2 Cu 0.05319(9) 0.68193(7) 0.0088(2)
C1_2 C 0.1513(5) 0.8388(4) 0.1233(13)
C2_2 C 0.2071(6) 0.8799(4) 0.1983(16)
C3_2 C 0.1097(6) 0.7907(4) 0.2556(13)
C4_2 C 0.2469(6) 0.9243(4) 0.0335(13)
O1_2 O 0.0556(3) 0.7480(2) 0.1696(10)
O3_2 O 0.3030(3) 0.9480(2) 0.0658(8)
C5_2 C 0.1820(5) 0.8279(4) 0.5434(13)
C6_2 C 0.1262(6) 0.7868(4) 0.4684(16)
C7_2 C 0.2236(6) 0.8760(4) 0.4111(13)
C8_2 C 0.0864(6) 0.7424(4) 0.6332(13)
O4_2 O 0.2777(3) 0.9187(2) 0.4971(10)
O5_2 O 0.1081(3) 0.7335(2) 0.7969(10)
O6_2 O 0.0303(3) 0.7187(2) 0.6009(8)
Cu4_2 Cu 0.28014(9) 0.98474(7) 0.6579(2)
Cu8_2 Cu 0.34859(7) 0.96207(5) 0.3246(2)
O12_2 O 0.0217(4) 0.6363(3) 0.2675(8)
H2_2 H 0.194671 0.823743 0.705156
O2_2 O 0.2252(3) 0.9332(2) 0.8698(10)
O8_2 O 0.0257(4) 0.6111(3) 0.8363(10)
H1_2 H 0.138662 0.842924 0.961511
Cu1_2 Cu 0.98474(7) 0.70460(5) 0.3421(2)
Cu5_2 Cu 0.96207(9) 0.61347(5) 0.6754(2)
O7_2 O 0.9187(4) 0.6409(2) 0.5029(10)
O9_2 O 0.9332(4) 0.7080(2) 0.1302(10)
O11_2 O 0.9480(4) 0.6450(2) 0.9342(8)
Cu1_3 Cu 0.71986(5) 0.01526(7) 0.3421(2)
Cu5_3 Cu 0.65141(7) 0.03793(9) 0.6754(2)
O7_3 O 0.7223(3) 0.0813(4) 0.5029(10)
O9_3 O 0.7748(3) 0.0668(4) 0.1302(10)
O11_3 O 0.6970(3) 0.0520(4) 0.9342(8)
Cu7_3 Cu 0.62873(5) 0.94681(9) 0.0088(2)
C1_3 C 0.6875(3) 0.8487(5) 0.1233(13)
C2_3 C 0.6728(4) 0.7929(6) 0.1983(16)
C3_3 C 0.6810(4) 0.8903(6) 0.2556(13)
C4_3 C 0.6774(5) 0.7531(6) 0.0335(13)
O1_3 O 0.6924(2) 0.9444(3) 0.1696(10)
O3_3 O 0.6450(2) 0.6970(3) 0.0658(8)
C5_3 C 0.6458(3) 0.8180(5) 0.5434(13)
C6_3 C 0.6605(4) 0.8738(6) 0.4684(16)
C7_3 C 0.6523(4) 0.7764(6) 0.4111(13)
C8_3 C 0.6559(5) 0.9136(6) 0.6332(13)
O4_3 O 0.6409(2) 0.7223(3) 0.4971(10)
O5_3 O 0.6253(2) 0.8919(3) 0.7969(10)
O6_3 O 0.6883(2) 0.9697(3) 0.6009(8)
Cu4_3 Cu 0.70460(5) 0.71986(9) 0.6579(2)
Cu8_3 Cu 0.61347(5) 0.65141(7) 0.3246(2)
O12_3 O 0.6147(2) 0.9783(4) 0.2675(8)
H2_3 H 0.629072 0.805329 0.705156
O2_3 O 0.7080(2) 0.7748(3) 0.8698(10)
Cu6_3 Cu 0.68193(7) 0.62873(9) 0.9912(2)
O8_3 O 0.5853(2) 0.9743(4) 0.8363(10)
H1_3 H 0.704262 0.861338 0.961511
H2_4 H 0.842924 0.704262 0.0384891
C1_4 C 0.8279(4) 0.6458(3) 0.4566(13)
C2_4 C 0.7868(4) 0.6605(4) 0.5316(16)
C3_4 C 0.8760(4) 0.6523(4) 0.5889(13)
C4_4 C 0.7424(4) 0.6559(5) 0.3668(13)
O2_4 O 0.7335(2) 0.6253(2) 0.2031(10)
O3_4 O 0.7187(2) 0.6883(2) 0.3991(8)
C5_4 C 0.8388(4) 0.6875(3) 0.8767(13)
C6_4 C 0.8799(4) 0.6728(4) 0.8017(16)
C7_4 C 0.7907(4) 0.6810(4) 0.7444(13)
C8_4 C 0.9243(4) 0.6774(5) 0.9665(13)
O4_4 O 0.7480(2) 0.6924(2) 0.8304(10)
O9_4 O 0.9587(2) 0.5585(3) 0.4635(10)
H1_4 H 0.823743 0.629072 0.294844
H2_5 H 0.861338 0.157076 0.0384891
C1_5 C 0.8180(5) 0.1721(4) 0.4566(13)
C2_5 C 0.8738(6) 0.2132(4) 0.5316(16)
C3_5 C 0.7764(6) 0.1240(4) 0.5889(13)
C4_5 C 0.9136(6) 0.2576(4) 0.3668(13)
O2_5 O 0.8919(3) 0.2665(2) 0.2031(10)
O3_5 O 0.9697(3) 0.2813(2) 0.3991(8)
C5_5 C 0.8487(5) 0.1612(4) 0.8767(13)
C6_5 C 0.7929(6) 0.1201(4) 0.8017(16)
C7_5 C 0.8903(6) 0.2093(4) 0.7444(13)
C8_5 C 0.7531(6) 0.0757(4) 0.9665(13)
O4_5 O 0.9444(3) 0.2520(2) 0.8304(10)
O9_5 O 0.5999(4) 0.0413(2) 0.4635(10)
H1_5 H 0.805329 0.176257 0.294844
H2_6 H 0.295738 0.138662 0.0384891
C1_6 C 0.3542(3) 0.1820(5) 0.4566(13)
C2_6 C 0.3395(4) 0.1262(6) 0.5316(16)
C3_6 C 0.3477(4) 0.2236(6) 0.5889(13)
C4_6 C 0.3441(5) 0.0864(6) 0.3668(13)
O2_6 O 0.3747(2) 0.1081(3) 0.2031(10)
O3_6 O 0.3117(2) 0.0303(3) 0.3991(8)
C5_6 C 0.3125(3) 0.1513(5) 0.8767(13)
C6_6 C 0.3272(4) 0.2071(6) 0.8017(16)
C7_6 C 0.3190(4) 0.1097(6) 0.7444(13)
C8_6 C 0.3226(5) 0.2469(6) 0.9665(13)
O4_6 O 0.3076(2) 0.0556(3) 0.8304(10)
O9_6 O 0.4415(3) 0.4001(4) 0.4635(10)
H1_6 H 0.370928 0.194671 0.294844
C5_7 C 0.5055(4) 0.0208(3) 0.2100(13)
C6_7 C 0.5466(4) 0.0061(4) 0.1350(16)
C7_7 C 0.4574(4) 0.0143(4) 0.0777(13)
C8_7 C 0.5910(4) 0.0107(5) 0.2998(13)
O4_7 O 0.4147(2) 0.0257(2) 0.1637(10)
H2_7 H 0.50959 0.0375949 0.371822
O3_7 O 0.3853(2) 0.0217(2) 0.7325(8)
C1_7 C 0.4945(4) 0.9792(3) 0.7900(13)
C2_7 C 0.4534(4) 0.9939(4) 0.8650(16)
C3_7 C 0.5426(4) 0.9857(4) 0.9223(13)
C4_7 C 0.4090(4) 0.9893(5) 0.7002(13)
O2_7 O 0.4001(2) 0.9587(2) 0.5365(10)
H1_7 H 0.49041 0.962405 0.628178
C5_8 C 0.5154(5) 0.4945(4) 0.2100(13)
C6_8 C 0.4596(6) 0.4534(4) 0.1350(16)
C7_8 C 0.5570(6) 0.5426(4) 0.0777(13)
C8_8 C 0.4198(6) 0.4090(4) 0.2998(13)
O4_8 O 0.6111(3) 0.5853(2) 0.1637(10)
H2_8 H 0.528005 0.49041 0.371822
C1_8 C 0.4846(5) 0.5055(4) 0.7900(13)
C2_8 C 0.5404(6) 0.5466(4) 0.8650(16)
C3_8 C 0.4430(6) 0.4574(4) 0.9223(13)
C4_8 C 0.5802(6) 0.5910(4) 0.7002(13)
O2_8 O 0.5585(3) 0.5999(2) 0.5365(10)
O3_8 O 0.6363(3) 0.6147(2) 0.7325(8)
H1_8 H 0.471995 0.50959 0.628178
C1_9 C 0.0208(3) 0.5154(5) 0.7900(13)
C2_9 C 0.0061(4) 0.4596(6) 0.8650(16)
C3_9 C 0.0143(4) 0.5570(6) 0.9223(13)
C4_9 C 0.0107(5) 0.4198(6) 0.7002(13)
O2_9 O 0.0413(2) 0.4415(3) 0.5365(10)
H1_9 H 0.0375949 0.528005 0.628178
C5_9 C 0.9792(3) 0.4846(5) 0.2100(13)
C6_9 C 0.9939(4) 0.5404(6) 0.1350(16)
C7_9 C 0.9857(4) 0.4430(6) 0.0777(13)
C8_9 C 0.9893(5) 0.5802(6) 0.2998(13)
O4_9 O 0.9743(2) 0.3889(3) 0.1637(10)
H2_9 H 0.962405 0.471995 0.371822
O3_9 O 0.9783(2) 0.3637(3) 0.7325(8)
loop_
_geom_bond_atom_site_label_1
_geom_bond_atom_site_label_2
_geom_bond_site_symmetry_1
_geom_bond_site_symmetry_2
Cu1 O1 1_555 1_555
C1 C2 1_555 1_555
C2 C4 1_555 1_555
C3 C1 1_555 1_555
O1 C3 1_555 1_555
O3 C4 1_555 1_555
C5 C6 1_555 1_555
C6 C3 1_555 1_555
C7 C2 1_555 1_555
C8 C6 1_555 1_555
O4 C7 1_555 1_555
O5 C8 1_555 1_555
O6 Cu1 1_555 1_555
Cu7 O1 1_555 1_555
Cu4 O4 1_555 1_555
Cu5 O6 1_555 1_555
Cu8 O3 1_555 1_555
O7 Cu1 1_555 1_555
O9 Cu1 1_555 1_555
O12 Cu1 1_555 1_555
C5 C7 1_555 1_555
C8 O6 1_555 1_555
O4 Cu8 1_555 1_555
Cu7 O12 1_555 1_555
Cu5 O7 1_555 1_555
C5 H2 1_555 1_555
O2 Cu4 1_555 1_555
C1_2 C2_2 1_555 1_555
C2_2 C4_2 1_555 1_555
C3_2 C1_2 1_555 1_555
O1_2 C3_2 1_555 1_555
O3_2 C4_2 1_555 1_555
C5_2 C6_2 1_555 1_555
C6_2 C3_2 1_555 1_555
C7_2 C2_2 1_555 1_555
C8_2 C6_2 1_555 1_555
O4_2 C7_2 1_555 1_555
O5_2 C8_2 1_555 1_555
Cu7_2 O1_2 1_555 1_555
Cu4_2 O4_2 1_555 1_555
Cu8_2 O3_2 1_555 1_555
C5_2 C7_2 1_555 1_555
C8_2 O6_2 1_555 1_555
O4_2 Cu8_2 1_555 1_555
Cu7_2 O12_2 1_555 1_555
C5_2 H2_2 1_555 1_555
O2_2 Cu4_2 1_555 1_555
O7_2 Cu1_2 1_555 1_555
O9_2 Cu1_2 1_555 1_555
Cu5_2 O7_2 1_555 1_555
O7_3 Cu1_3 1_555 1_555
O9_3 Cu1_3 1_555 1_555
Cu5_3 O7_3 1_555 1_555
C1_3 C2_3 1_555 1_555
C2_3 C4_3 1_555 1_555
C3_3 C1_3 1_555 1_555
O1_3 C3_3 1_555 1_555
O3_3 C4_3 1_555 1_555
C5_3 C6_3 1_555 1_555
C6_3 C3_3 1_555 1_555
C7_3 C2_3 1_555 1_555
C8_3 C6_3 1_555 1_555
O4_3 C7_3 1_555 1_555
O5_3 C8_3 1_555 1_555
Cu7_3 O1_3 1_555 1_555
Cu4_3 O4_3 1_555 1_555
Cu8_3 O3_3 1_555 1_555
C5_3 C7_3 1_555 1_555
C8_3 O6_3 1_555 1_555
O4_3 Cu8_3 1_555 1_555
Cu7_3 O12_3 1_555 1_555
C5_3 H2_3 1_555 1_555
O2_3 Cu4_3 1_555 1_555
C1_4 C2_4 1_555 1_555
C2_4 C4_4 1_555 1_555
C3_4 C1_4 1_555 1_555
C4_4 O2_4 1_555 1_555
O7_2 C3_4 1_555 1_555
O3_4 C4_4 1_555 1_555
C5_4 C6_4 1_555 1_555
C6_4 C3_4 1_555 1_555
C7_4 C2_4 1_555 1_555
C8_4 C6_4 1_555 1_555
O4_4 C7_4 1_555 1_555
O11_2 Cu5_2 1_555 1_555
Cu6_3 O4_4 1_555 1_555
Cu8_3 O3_4 1_555 1_555
Cu4_3 O3_4 1_555 1_555
O9_4 Cu5_2 1_555 1_555
C5_4 C7_4 1_555 1_555
C8_4 O11_2 1_555 1_555
O4_4 Cu4_3 1_555 1_555
C1_4 H1_4 1_555 1_555
C1_5 C2_5 1_555 1_555
C2_5 C4_5 1_555 1_555
C3_5 C1_5 1_555 1_555
C4_5 O2_5 1_555 1_555
O7_3 C3_5 1_555 1_555
O3_5 C4_5 1_555 1_555
C5_5 C6_5 1_555 1_555
C6_5 C3_5 1_555 1_555
C7_5 C2_5 1_555 1_555
C8_5 C6_5 1_555 1_555
O4_5 C7_5 1_555 1_555
O11_3 Cu5_3 1_555 1_555
Cu6 O4_5 1_555 1_555
O9_5 Cu5_3 1_555 1_555
C5_5 C7_5 1_555 1_555
C8_5 O11_3 1_555 1_555
C1_5 H1_5 1_555 1_555
C1_6 C2_6 1_555 1_555
C2_6 C4_6 1_555 1_555
C3_6 C1_6 1_555 1_555
C4_6 O2_6 1_555 1_555
O7 C3_6 1_555 1_555
O3_6 C4_6 1_555 1_555
C5_6 C6_6 1_555 1_555
C6_6 C3_6 1_555 1_555
C7_6 C2_6 1_555 1_555
C8_6 C6_6 1_555 1_555
O4_6 C7_6 1_555 1_555
O11 Cu5 1_555 1_555
Cu6_2 O4_6 1_555 1_555
O8 Cu5 1_555 1_555
O9_6 Cu5 1_555 1_555
C5_6 C7_6 1_555 1_555
C8_6 O11 1_555 1_555
C1_6 H1_6 1_555 1_555
C5_7 C6_7 1_555 1_555
C8_7 C6_7 1_555 1_555
O4_7 C7_7 1_555 1_555
O9_5 C8_7 1_555 1_555
C5_7 C7_7 1_555 1_555
C5_7 H2_7 1_555 1_555
Cu6_2 O3_7 1_555 1_555
C1_7 C2_7 1_555 1_555
C2_7 C4_7 1_555 1_555
C3_7 C1_7 1_555 1_555
C4_7 O2_7 1_555 1_555
O8_3 C3_7 1_555 1_555
O2_7 Cu8_2 1_555 1_555
C1_7 H1_7 1_555 1_555
C5_8 C6_8 1_555 1_555
C8_8 C6_8 1_555 1_555
O4_8 C7_8 1_555 1_555
O9_6 C8_8 1_555 1_555
Cu8_3 O4_8 1_555 1_555
C5_8 C7_8 1_555 1_555
C8_8 O12 1_555 1_555
C5_8 H2_8 1_555 1_555
C1_8 C2_8 1_555 1_555
C2_8 C4_8 1_555 1_555
C3_8 C1_8 1_555 1_555
C4_8 O2_8 1_555 1_555
O8 C3_8 1_555 1_555
O2_8 Cu8_3 1_555 1_555
O3_8 C4_8 1_555 1_555
Cu4_3 O3_8 1_555 1_555
Cu6_3 O3_8 1_555 1_555
C1_8 H1_8 1_555 1_555
C1_9 C2_9 1_555 1_555
C2_9 C4_9 1_555 1_555
C3_9 C1_9 1_555 1_555
C4_9 O2_9 1_555 1_555
O8_2 C3_9 1_555 1_555
O2_9 Cu8 1_555 1_555
C1_9 H1_9 1_555 1_555
C5_9 C6_9 1_555 1_555
C8_9 C6_9 1_555 1_555
O4_9 C7_9 1_555 1_555
O9_4 C8_9 1_555 1_555
C5_9 C7_9 1_555 1_555
C5_9 H2_9 1_555 1_555
Cu6 O3_9 1_555 1_555

#END
