
###############################################################################
#
# This file contains modified crystal structure data generated from the
# MOF subset of the Cambridge Structural Database (CSD) v543 
# hosted by the Cambridge Crystallographic Data Centre (CCDC).
#
# This work is licensed under the Creative Commons
# Attribution-NonCommercial-ShareAlike 4.0 International License.
# To view a copy of this license, visit
# http://creativecommons.org/licenses/by-nc-sa/4.0/
# or send a letter to
# Creative Commons, PO Box 1866, Mountain View, CA 94042, USA.
#
# CIF created using the CSD Python API on 29 September 2022
# The structure has been converted into the P1 space group
# The structure has a 3D framework
# The original CSD entry MOJPOT62 is in the rhombohedral crystal system
# The framework has been calculated to contain at least 10.0% void space
# The void calculation uses a probe of radius 1.32A, grid spacing 0.4
# H atom positions have been added when not included in the experimental data
#
###############################################################################

data_MOJPOT62
_chemical_formula_moiety         '(C72 H18 Cu7 O44)n'
_symmetry_cell_setting           triclinic
_symmetry_space_group_name_H-M   'P 1'
_symmetry_Int_Tables_number      1
_space_group_name_Hall           'P 1'
loop_
_symmetry_equiv_pos_site_id
_symmetry_equiv_pos_as_xyz
1 x,y,z
_cell_length_a                   25.9151(3)
_cell_length_b                   25.9151(3)
_cell_length_c                   6.27921(7)
_cell_angle_alpha                90
_cell_angle_beta                 90
_cell_angle_gamma                120
_cell_volume                     3652.09
loop_
_atom_site_label
_atom_site_type_symbol
_atom_site_fract_x
_atom_site_fract_y
_atom_site_fract_z
Cu7 Cu 0.31806(7) 0.37126(5) 0.0088(2)
Cu1 Cu 0.29541(5) 0.28014(5) 0.3421(2)
C1 C 0.1610(4) 0.3124(3) 0.1237(13)
C2 C 0.1204(4) 0.3273(4) 0.1983(16)
C3 C 0.2095(4) 0.3194(4) 0.2550(13)
C4 C 0.0755(4) 0.3228(5) 0.0342(13)
O1 O 0.2520(2) 0.3076(2) 0.1699(9)
O3 O 0.0520(2) 0.3549(2) 0.0658(8)
C5 C 0.1723(4) 0.3543(3) 0.5430(13)
C6 C 0.2129(4) 0.3394(4) 0.4684(16)
C7 C 0.1238(4) 0.3473(4) 0.4117(13)
C8 C 0.2578(4) 0.3439(5) 0.6325(13)
O4 O 0.0813(2) 0.3591(2) 0.4968(9)
O5 O 0.2664(2) 0.3747(2) 0.7972(10)
O6 O 0.2813(2) 0.3118(2) 0.6009(8)
Cu4 Cu 0.01527(7) 0.29541(5) 0.6579(2)
Cu5 Cu 0.38653(5) 0.34860(7) 0.6754(2)
Cu8 Cu 0.03792(5) 0.38653(5) 0.3246(2)
O7 O 0.3591(2) 0.2777(3) 0.5032(9)
O9 O 0.2920(2) 0.2251(3) 0.1305(10)
O12 O 0.3638(3) 0.3853(2) 0.2675(8)
H1 H 0.176928 0.371649 0.704002
O2 O 0.0669(2) 0.2920(2) 0.8695(10)
O8 O 0.3889(3) 0.4147(2) 0.8366(9)
O11 O 0.3549(2) 0.3029(3) 0.9342(8)
H2 H 0.156405 0.295018 0.962665
Cu6 Cu 0.94681(5) 0.31806(7) 0.9912(2)
Cu6_2 Cu 0.37126(9) 0.05319(5) 0.9912(2)
Cu7_2 Cu 0.05319(9) 0.68194(7) 0.0088(2)
C1_2 C 0.1514(5) 0.8390(4) 0.1237(13)
C2_2 C 0.2069(6) 0.8796(4) 0.1983(16)
C3_2 C 0.1099(6) 0.7905(4) 0.2550(13)
C4_2 C 0.2473(6) 0.9245(4) 0.0342(13)
O1_2 O 0.0556(3) 0.7480(2) 0.1699(9)
O3_2 O 0.3029(3) 0.9480(2) 0.0658(8)
C5_2 C 0.1819(5) 0.8277(4) 0.5430(13)
C6_2 C 0.1264(6) 0.7871(4) 0.4684(16)
C7_2 C 0.2234(6) 0.8762(4) 0.4117(13)
C8_2 C 0.0860(6) 0.7422(4) 0.6325(13)
O4_2 O 0.2777(3) 0.9187(2) 0.4968(9)
O5_2 O 0.1082(3) 0.7336(2) 0.7972(10)
O6_2 O 0.0304(3) 0.7187(2) 0.6009(8)
Cu4_2 Cu 0.28014(9) 0.98473(7) 0.6579(2)
Cu8_2 Cu 0.34860(7) 0.96208(5) 0.3246(2)
O12_2 O 0.0216(4) 0.6362(3) 0.2675(8)
H1_2 H 0.19472 0.823072 0.704002
O2_2 O 0.2251(3) 0.9331(2) 0.8695(10)
O8_2 O 0.0257(4) 0.6111(3) 0.8366(9)
H2_2 H 0.138613 0.843595 0.962665
Cu1_2 Cu 0.98473(7) 0.70459(5) 0.3421(2)
Cu5_2 Cu 0.96208(9) 0.61347(5) 0.6754(2)
O7_2 O 0.9187(4) 0.6409(2) 0.5032(9)
O9_2 O 0.9331(4) 0.7080(2) 0.1305(10)
O11_2 O 0.9480(4) 0.6451(2) 0.9342(8)
Cu1_3 Cu 0.71986(5) 0.01527(7) 0.3421(2)
Cu5_3 Cu 0.65140(7) 0.03792(9) 0.6754(2)
O7_3 O 0.7223(3) 0.0813(4) 0.5032(9)
O9_3 O 0.7749(3) 0.0669(4) 0.1305(10)
O11_3 O 0.6971(3) 0.0520(4) 0.9342(8)
Cu7_3 Cu 0.62874(5) 0.94681(9) 0.0088(2)
C1_3 C 0.6876(3) 0.8486(5) 0.1237(13)
C2_3 C 0.6727(4) 0.7931(6) 0.1983(16)
C3_3 C 0.6806(4) 0.8901(6) 0.2550(13)
C4_3 C 0.6772(5) 0.7527(6) 0.0342(13)
O1_3 O 0.6924(2) 0.9444(3) 0.1699(9)
O3_3 O 0.6451(2) 0.6971(3) 0.0658(8)
C5_3 C 0.6457(3) 0.8181(5) 0.5430(13)
C6_3 C 0.6606(4) 0.8736(6) 0.4684(16)
C7_3 C 0.6527(4) 0.7766(6) 0.4117(13)
C8_3 C 0.6561(5) 0.9140(6) 0.6325(13)
O4_3 O 0.6409(2) 0.7223(3) 0.4968(9)
O5_3 O 0.6253(2) 0.8918(3) 0.7972(10)
O6_3 O 0.6882(2) 0.9696(3) 0.6009(8)
Cu4_3 Cu 0.70459(5) 0.71986(9) 0.6579(2)
Cu8_3 Cu 0.61347(5) 0.65140(7) 0.3246(2)
O12_3 O 0.6147(2) 0.9784(4) 0.2675(8)
H1_3 H 0.628351 0.80528 0.704002
O2_3 O 0.7080(2) 0.7749(3) 0.8695(10)
Cu6_3 Cu 0.68194(7) 0.62874(9) 0.9912(2)
O8_3 O 0.5853(2) 0.9743(4) 0.8366(9)
H2_3 H 0.704982 0.861387 0.962665
H1_4 H 0.843595 0.704982 0.0373353
C1_4 C 0.8277(4) 0.6457(3) 0.4570(13)
C2_4 C 0.7871(4) 0.6606(4) 0.5316(16)
C3_4 C 0.8762(4) 0.6527(4) 0.5883(13)
C4_4 C 0.7422(4) 0.6561(5) 0.3675(13)
O2_4 O 0.7336(2) 0.6253(2) 0.2028(10)
O3_4 O 0.7187(2) 0.6882(2) 0.3991(8)
C5_4 C 0.8390(4) 0.6876(3) 0.8763(13)
C6_4 C 0.8796(4) 0.6727(4) 0.8017(16)
C7_4 C 0.7905(4) 0.6806(4) 0.7450(13)
C8_4 C 0.9245(4) 0.6772(5) 0.9658(13)
O4_4 O 0.7480(2) 0.6924(2) 0.8301(9)
O9_4 O 0.9587(2) 0.5584(3) 0.4638(10)
H2_4 H 0.823072 0.628351 0.295998
H1_5 H 0.861387 0.156405 0.0373353
C1_5 C 0.8181(5) 0.1723(4) 0.4570(13)
C2_5 C 0.8736(6) 0.2129(4) 0.5316(16)
C3_5 C 0.7766(6) 0.1238(4) 0.5883(13)
C4_5 C 0.9140(6) 0.2578(4) 0.3675(13)
O2_5 O 0.8918(3) 0.2664(2) 0.2028(10)
O3_5 O 0.9696(3) 0.2813(2) 0.3991(8)
C5_5 C 0.8486(5) 0.1610(4) 0.8763(13)
C6_5 C 0.7931(6) 0.1204(4) 0.8017(16)
C7_5 C 0.8901(6) 0.2095(4) 0.7450(13)
C8_5 C 0.7527(6) 0.0755(4) 0.9658(13)
O4_5 O 0.9444(3) 0.2520(2) 0.8301(9)
O9_5 O 0.5998(4) 0.0413(2) 0.4638(10)
H2_5 H 0.80528 0.176928 0.295998
H1_6 H 0.295018 0.138613 0.0373353
C1_6 C 0.3543(3) 0.1819(5) 0.4570(13)
C2_6 C 0.3394(4) 0.1264(6) 0.5316(16)
C3_6 C 0.3473(4) 0.2234(6) 0.5883(13)
C4_6 C 0.3439(5) 0.0860(6) 0.3675(13)
O2_6 O 0.3747(2) 0.1082(3) 0.2028(10)
O3_6 O 0.3118(2) 0.0304(3) 0.3991(8)
C5_6 C 0.3124(3) 0.1514(5) 0.8763(13)
C6_6 C 0.3273(4) 0.2069(6) 0.8017(16)
C7_6 C 0.3194(4) 0.1099(6) 0.7450(13)
C8_6 C 0.3228(5) 0.2473(6) 0.9658(13)
O4_6 O 0.3076(2) 0.0556(3) 0.8301(9)
O9_6 O 0.4416(3) 0.4002(4) 0.4638(10)
H2_6 H 0.371649 0.19472 0.295998
C5_7 C 0.5057(4) 0.0209(3) 0.2096(13)
C6_7 C 0.5463(4) 0.0060(4) 0.1350(16)
C7_7 C 0.4572(4) 0.0139(4) 0.0783(13)
C8_7 C 0.5912(4) 0.0105(5) 0.2991(13)
O4_7 O 0.4147(2) 0.0257(2) 0.1634(9)
H1_7 H 0.510262 0.0383152 0.370669
O3_7 O 0.3853(2) 0.0216(2) 0.7325(8)
C1_7 C 0.4943(4) 0.9791(3) 0.7904(13)
C2_7 C 0.4537(4) 0.9940(4) 0.8650(16)
C3_7 C 0.5428(4) 0.9861(4) 0.9217(13)
C4_7 C 0.4088(4) 0.9895(5) 0.7009(13)
O2_7 O 0.4002(2) 0.9587(2) 0.5362(10)
H2_7 H 0.489738 0.961685 0.629331
C5_8 C 0.5153(5) 0.4943(4) 0.2096(13)
C6_8 C 0.4598(6) 0.4537(4) 0.1350(16)
C7_8 C 0.5568(6) 0.5428(4) 0.0783(13)
C8_8 C 0.4194(6) 0.4088(4) 0.2991(13)
O4_8 O 0.6111(3) 0.5853(2) 0.1634(9)
H1_8 H 0.528053 0.489738 0.370669
C1_8 C 0.4847(5) 0.5057(4) 0.7904(13)
C2_8 C 0.5402(6) 0.5463(4) 0.8650(16)
C3_8 C 0.4432(6) 0.4572(4) 0.9217(13)
C4_8 C 0.5806(6) 0.5912(4) 0.7009(13)
O2_8 O 0.5584(3) 0.5998(2) 0.5362(10)
O3_8 O 0.6362(3) 0.6147(2) 0.7325(8)
H2_8 H 0.471947 0.510262 0.629331
C1_9 C 0.0209(3) 0.5153(5) 0.7904(13)
C2_9 C 0.0060(4) 0.4598(6) 0.8650(16)
C3_9 C 0.0139(4) 0.5568(6) 0.9217(13)
C4_9 C 0.0105(5) 0.4194(6) 0.7009(13)
O2_9 O 0.0413(2) 0.4416(3) 0.5362(10)
H2_9 H 0.0383152 0.528053 0.629331
C5_9 C 0.9791(3) 0.4847(5) 0.2096(13)
C6_9 C 0.9940(4) 0.5402(6) 0.1350(16)
C7_9 C 0.9861(4) 0.4432(6) 0.0783(13)
C8_9 C 0.9895(5) 0.5806(6) 0.2991(13)
O4_9 O 0.9743(2) 0.3889(3) 0.1634(9)
H1_9 H 0.961685 0.471947 0.370669
O3_9 O 0.9784(2) 0.3638(3) 0.7325(8)
loop_
_geom_bond_atom_site_label_1
_geom_bond_atom_site_label_2
_geom_bond_site_symmetry_1
_geom_bond_site_symmetry_2
Cu1 O1 1_555 1_555
C1 C2 1_555 1_555
C2 C4 1_555 1_555
C3 C1 1_555 1_555
O1 C3 1_555 1_555
O3 C4 1_555 1_555
C5 C6 1_555 1_555
C6 C3 1_555 1_555
C7 C2 1_555 1_555
C8 C6 1_555 1_555
O4 C7 1_555 1_555
O5 C8 1_555 1_555
O6 Cu1 1_555 1_555
Cu7 O1 1_555 1_555
Cu4 O4 1_555 1_555
Cu5 O6 1_555 1_555
Cu8 O3 1_555 1_555
O7 Cu1 1_555 1_555
O9 Cu1 1_555 1_555
O12 Cu1 1_555 1_555
C5 C7 1_555 1_555
C8 O6 1_555 1_555
O4 Cu8 1_555 1_555
Cu7 O12 1_555 1_555
Cu5 O7 1_555 1_555
C5 H1 1_555 1_555
O2 Cu4 1_555 1_555
C1_2 C2_2 1_555 1_555
C2_2 C4_2 1_555 1_555
C3_2 C1_2 1_555 1_555
O1_2 C3_2 1_555 1_555
O3_2 C4_2 1_555 1_555
C5_2 C6_2 1_555 1_555
C6_2 C3_2 1_555 1_555
C7_2 C2_2 1_555 1_555
C8_2 C6_2 1_555 1_555
O4_2 C7_2 1_555 1_555
O5_2 C8_2 1_555 1_555
Cu7_2 O1_2 1_555 1_555
Cu4_2 O4_2 1_555 1_555
Cu8_2 O3_2 1_555 1_555
C5_2 C7_2 1_555 1_555
C8_2 O6_2 1_555 1_555
O4_2 Cu8_2 1_555 1_555
Cu7_2 O12_2 1_555 1_555
C5_2 H1_2 1_555 1_555
O2_2 Cu4_2 1_555 1_555
O7_2 Cu1_2 1_555 1_555
O9_2 Cu1_2 1_555 1_555
Cu5_2 O7_2 1_555 1_555
O7_3 Cu1_3 1_555 1_555
O9_3 Cu1_3 1_555 1_555
Cu5_3 O7_3 1_555 1_555
C1_3 C2_3 1_555 1_555
C2_3 C4_3 1_555 1_555
C3_3 C1_3 1_555 1_555
O1_3 C3_3 1_555 1_555
O3_3 C4_3 1_555 1_555
C5_3 C6_3 1_555 1_555
C6_3 C3_3 1_555 1_555
C7_3 C2_3 1_555 1_555
C8_3 C6_3 1_555 1_555
O4_3 C7_3 1_555 1_555
O5_3 C8_3 1_555 1_555
Cu7_3 O1_3 1_555 1_555
Cu4_3 O4_3 1_555 1_555
Cu8_3 O3_3 1_555 1_555
C5_3 C7_3 1_555 1_555
C8_3 O6_3 1_555 1_555
O4_3 Cu8_3 1_555 1_555
Cu7_3 O12_3 1_555 1_555
C5_3 H1_3 1_555 1_555
O2_3 Cu4_3 1_555 1_555
C1_4 C2_4 1_555 1_555
C2_4 C4_4 1_555 1_555
C3_4 C1_4 1_555 1_555
C4_4 O2_4 1_555 1_555
O7_2 C3_4 1_555 1_555
O3_4 C4_4 1_555 1_555
C5_4 C6_4 1_555 1_555
C6_4 C3_4 1_555 1_555
C7_4 C2_4 1_555 1_555
C8_4 C6_4 1_555 1_555
O4_4 C7_4 1_555 1_555
O11_2 Cu5_2 1_555 1_555
Cu6_3 O4_4 1_555 1_555
Cu8_3 O3_4 1_555 1_555
Cu4_3 O3_4 1_555 1_555
O9_4 Cu5_2 1_555 1_555
C5_4 C7_4 1_555 1_555
C8_4 O11_2 1_555 1_555
O4_4 Cu4_3 1_555 1_555
C1_4 H2_4 1_555 1_555
C1_5 C2_5 1_555 1_555
C2_5 C4_5 1_555 1_555
C3_5 C1_5 1_555 1_555
C4_5 O2_5 1_555 1_555
O7_3 C3_5 1_555 1_555
O3_5 C4_5 1_555 1_555
C5_5 C6_5 1_555 1_555
C6_5 C3_5 1_555 1_555
C7_5 C2_5 1_555 1_555
C8_5 C6_5 1_555 1_555
O4_5 C7_5 1_555 1_555
O11_3 Cu5_3 1_555 1_555
Cu6 O4_5 1_555 1_555
O9_5 Cu5_3 1_555 1_555
C5_5 C7_5 1_555 1_555
C8_5 O11_3 1_555 1_555
C1_5 H2_5 1_555 1_555
C1_6 C2_6 1_555 1_555
C2_6 C4_6 1_555 1_555
C3_6 C1_6 1_555 1_555
C4_6 O2_6 1_555 1_555
O7 C3_6 1_555 1_555
O3_6 C4_6 1_555 1_555
C5_6 C6_6 1_555 1_555
C6_6 C3_6 1_555 1_555
C7_6 C2_6 1_555 1_555
C8_6 C6_6 1_555 1_555
O4_6 C7_6 1_555 1_555
O11 Cu5 1_555 1_555
Cu6_2 O4_6 1_555 1_555
O8 Cu5 1_555 1_555
O9_6 Cu5 1_555 1_555
C5_6 C7_6 1_555 1_555
C8_6 O11 1_555 1_555
C1_6 H2_6 1_555 1_555
C5_7 C6_7 1_555 1_555
C8_7 C6_7 1_555 1_555
O4_7 C7_7 1_555 1_555
O9_5 C8_7 1_555 1_555
C5_7 C7_7 1_555 1_555
C5_7 H1_7 1_555 1_555
Cu6_2 O3_7 1_555 1_555
C1_7 C2_7 1_555 1_555
C2_7 C4_7 1_555 1_555
C3_7 C1_7 1_555 1_555
C4_7 O2_7 1_555 1_555
O8_3 C3_7 1_555 1_555
O2_7 Cu8_2 1_555 1_555
C1_7 H2_7 1_555 1_555
C5_8 C6_8 1_555 1_555
C8_8 C6_8 1_555 1_555
O4_8 C7_8 1_555 1_555
O9_6 C8_8 1_555 1_555
Cu8_3 O4_8 1_555 1_555
C5_8 C7_8 1_555 1_555
C8_8 O12 1_555 1_555
C5_8 H1_8 1_555 1_555
C1_8 C2_8 1_555 1_555
C2_8 C4_8 1_555 1_555
C3_8 C1_8 1_555 1_555
C4_8 O2_8 1_555 1_555
O8 C3_8 1_555 1_555
O2_8 Cu8_3 1_555 1_555
O3_8 C4_8 1_555 1_555
Cu4_3 O3_8 1_555 1_555
Cu6_3 O3_8 1_555 1_555
C1_8 H2_8 1_555 1_555
C1_9 C2_9 1_555 1_555
C2_9 C4_9 1_555 1_555
C3_9 C1_9 1_555 1_555
C4_9 O2_9 1_555 1_555
O8_2 C3_9 1_555 1_555
O2_9 Cu8 1_555 1_555
C1_9 H2_9 1_555 1_555
C5_9 C6_9 1_555 1_555
C8_9 C6_9 1_555 1_555
O4_9 C7_9 1_555 1_555
O9_4 C8_9 1_555 1_555
C5_9 C7_9 1_555 1_555
C5_9 H1_9 1_555 1_555
Cu6 O3_9 1_555 1_555

#END
