
###############################################################################
#
# This file contains modified crystal structure data generated from the
# MOF subset of the Cambridge Structural Database (CSD) v543 
# hosted by the Cambridge Crystallographic Data Centre (CCDC).
#
# This work is licensed under the Creative Commons
# Attribution-NonCommercial-ShareAlike 4.0 International License.
# To view a copy of this license, visit
# http://creativecommons.org/licenses/by-nc-sa/4.0/
# or send a letter to
# Creative Commons, PO Box 1866, Mountain View, CA 94042, USA.
#
# CIF created using the CSD Python API on 29 September 2022
# The structure has been converted into the P1 space group
# The structure has a 3D framework
# The original CSD entry MOKXUI is in the rhombohedral crystal system
# The framework has been calculated to contain at least 10.0% void space
# The void calculation uses a probe of radius 1.32A, grid spacing 0.4
# H atom positions have been added when not included in the experimental data
#
###############################################################################

data_MOKXUI
_chemical_formula_moiety         '(C72 H18 Cu7 O44)n'
_symmetry_cell_setting           triclinic
_symmetry_space_group_name_H-M   'P 1'
_symmetry_Int_Tables_number      1
_space_group_name_Hall           'P 1'
loop_
_symmetry_equiv_pos_site_id
_symmetry_equiv_pos_as_xyz
1 x,y,z
_cell_length_a                   25.9253(3)
_cell_length_b                   25.9253(3)
_cell_length_c                   6.27086(7)
_cell_angle_alpha                90
_cell_angle_beta                 90
_cell_angle_gamma                120
_cell_volume                     3650.1
loop_
_atom_site_label
_atom_site_type_symbol
_atom_site_fract_x
_atom_site_fract_y
_atom_site_fract_z
_atom_site_U_iso_or_equiv
_atom_site_thermal_displace_type
Cu7 Cu 0.31801(7) 0.37161(5) 0.0093(2) 0.0077 Uiso
Cu1 Cu 0.29506(5) 0.27974(5) 0.3426(2) 0.0077 Uiso
C1 C 0.1602(4) 0.3139(3) 0.1255(15) 0.0101 Uiso
C2 C 0.1205(4) 0.3264(4) 0.1949(17) 0.0101 Uiso
C3 C 0.2086(4) 0.3190(5) 0.2571(14) 0.0051 Uiso
C4 C 0.0795(4) 0.3250(5) 0.0257(16) 0.0127 Uiso
O1 O 0.2509(2) 0.3065(2) 0.1750(11) 0.0051 Uiso
O3 O 0.0521(2) 0.3546(2) 0.0687(9) 0.0051 Uiso
C5 C 0.1731(4) 0.3528(3) 0.5412(15) 0.0101 Uiso
C6 C 0.2128(4) 0.3403(4) 0.4718(17) 0.0101 Uiso
C7 C 0.1247(4) 0.3477(5) 0.4096(14) 0.0051 Uiso
C8 C 0.2538(4) 0.3417(5) 0.6410(16) 0.0127 Uiso
O4 O 0.0824(2) 0.3602(2) 0.4917(11) 0.0051 Uiso
O5 O 0.2675(3) 0.3748(2) 0.7949(11) 0.0124 Uiso
O6 O 0.2812(2) 0.3121(2) 0.5980(9) 0.0051 Uiso
Cu4 Cu 0.01532(7) 0.29506(5) 0.6574(2) 0.0077 Uiso
Cu5 Cu 0.38693(5) 0.34865(7) 0.6759(2) 0.0077 Uiso
Cu8 Cu 0.03827(5) 0.38693(5) 0.3241(2) 0.0077 Uiso
O7 O 0.3602(2) 0.2777(3) 0.5083(11) 0.0051 Uiso
O9 O 0.2919(2) 0.2261(4) 0.1282(11) 0.0124 Uiso
O12 O 0.3642(3) 0.3854(2) 0.2646(9) 0.0051 Uiso
H2 H 0.176301 0.367738 0.70538 . .
O2 O 0.0658(3) 0.2919(2) 0.8718(11) 0.0124 Uiso
O8 O 0.3889(3) 0.4158(2) 0.8417(11) 0.0051 Uiso
O11 O 0.3546(2) 0.3025(3) 0.9313(9) 0.0051 Uiso
H1 H 0.157032 0.298929 0.961287 . .
Cu6 Cu 0.94641(5) 0.31801(7) 0.9907(2) 0.0077 Uiso
Cu6_2 Cu 0.37161(9) 0.05359(5) 0.9907(2) 0.0077 Uiso
Cu7_2 Cu 0.05359(9) 0.68199(7) 0.0093(2) 0.0077 Uiso
C1_2 C 0.1537(5) 0.8398(4) 0.1255(15) 0.0101 Uiso
C2_2 C 0.2059(6) 0.8795(4) 0.1949(17) 0.0101 Uiso
C3_2 C 0.1104(6) 0.7914(4) 0.2571(14) 0.0051 Uiso
C4_2 C 0.2455(6) 0.9205(4) 0.0257(16) 0.0127 Uiso
O1_2 O 0.0556(3) 0.7491(2) 0.1750(11) 0.0051 Uiso
O3_2 O 0.3025(3) 0.9479(2) 0.0687(9) 0.0051 Uiso
C5_2 C 0.1796(5) 0.8269(4) 0.5412(15) 0.0101 Uiso
C6_2 C 0.1274(6) 0.7872(4) 0.4718(17) 0.0101 Uiso
C7_2 C 0.2229(6) 0.8753(4) 0.4096(14) 0.0051 Uiso
C8_2 C 0.0878(6) 0.7462(4) 0.6410(16) 0.0127 Uiso
O4_2 O 0.2777(3) 0.9176(2) 0.4917(11) 0.0051 Uiso
O5_2 O 0.1072(4) 0.7325(3) 0.7949(11) 0.0124 Uiso
O6_2 O 0.0308(3) 0.7188(2) 0.5980(9) 0.0051 Uiso
Cu4_2 Cu 0.27974(9) 0.98468(7) 0.6574(2) 0.0077 Uiso
Cu8_2 Cu 0.34865(7) 0.96173(5) 0.3241(2) 0.0077 Uiso
O12_2 O 0.0213(4) 0.6358(3) 0.2646(9) 0.0051 Uiso
H2_2 H 0.191437 0.823699 0.70538 . .
O2_2 O 0.2261(4) 0.9342(3) 0.8718(11) 0.0124 Uiso
O8_2 O 0.0268(4) 0.6111(3) 0.8417(11) 0.0051 Uiso
H1_2 H 0.141897 0.842968 0.961287 . .
Cu1_2 Cu 0.98468(7) 0.70494(5) 0.3426(2) 0.0077 Uiso
Cu5_2 Cu 0.96173(9) 0.61307(5) 0.6759(2) 0.0077 Uiso
O7_2 O 0.9176(4) 0.6398(2) 0.5083(11) 0.0051 Uiso
O9_2 O 0.9342(4) 0.7081(2) 0.1282(11) 0.0124 Uiso
O11_2 O 0.9479(4) 0.6454(2) 0.9313(9) 0.0051 Uiso
Cu1_3 Cu 0.72026(5) 0.01532(7) 0.3426(2) 0.0077 Uiso
Cu5_3 Cu 0.65135(7) 0.03827(9) 0.6759(2) 0.0077 Uiso
O7_3 O 0.7223(3) 0.0824(4) 0.5083(11) 0.0051 Uiso
O9_3 O 0.7739(4) 0.0658(4) 0.1282(11) 0.0124 Uiso
O11_3 O 0.6975(3) 0.0521(4) 0.9313(9) 0.0051 Uiso
Cu7_3 Cu 0.62839(5) 0.94641(9) 0.0093(2) 0.0077 Uiso
C1_3 C 0.6861(3) 0.8463(5) 0.1255(15) 0.0101 Uiso
C2_3 C 0.6736(4) 0.7941(6) 0.1949(17) 0.0101 Uiso
C3_3 C 0.6810(5) 0.8896(6) 0.2571(14) 0.0051 Uiso
C4_3 C 0.6750(5) 0.7545(6) 0.0257(16) 0.0127 Uiso
O1_3 O 0.6935(2) 0.9444(3) 0.1750(11) 0.0051 Uiso
O3_3 O 0.6454(2) 0.6975(3) 0.0687(9) 0.0051 Uiso
C5_3 C 0.6472(3) 0.8204(5) 0.5412(15) 0.0101 Uiso
C6_3 C 0.6597(4) 0.8726(6) 0.4718(17) 0.0101 Uiso
C7_3 C 0.6523(5) 0.7771(6) 0.4096(14) 0.0051 Uiso
C8_3 C 0.6583(5) 0.9122(6) 0.6410(16) 0.0127 Uiso
O4_3 O 0.6398(2) 0.7223(3) 0.4917(11) 0.0051 Uiso
O5_3 O 0.6252(2) 0.8928(4) 0.7949(11) 0.0124 Uiso
O6_3 O 0.6879(2) 0.9692(3) 0.5980(9) 0.0051 Uiso
Cu4_3 Cu 0.70494(5) 0.72026(9) 0.6574(2) 0.0077 Uiso
Cu8_3 Cu 0.61307(5) 0.65135(7) 0.3241(2) 0.0077 Uiso
O12_3 O 0.6146(2) 0.9787(4) 0.2646(9) 0.0051 Uiso
H2_3 H 0.632262 0.808563 0.70538 . .
O2_3 O 0.7081(2) 0.7739(4) 0.8718(11) 0.0124 Uiso
Cu6_3 Cu 0.68199(7) 0.62839(9) 0.9907(2) 0.0077 Uiso
O8_3 O 0.5842(2) 0.9732(4) 0.8417(11) 0.0051 Uiso
H1_3 H 0.701071 0.858103 0.961287 . .
H2_4 H 0.842968 0.701071 0.0387133 . .
C1_4 C 0.8269(4) 0.6472(3) 0.4588(15) 0.0101 Uiso
C2_4 C 0.7872(4) 0.6597(4) 0.5282(17) 0.0101 Uiso
C3_4 C 0.8753(4) 0.6523(5) 0.5904(14) 0.0051 Uiso
C4_4 C 0.7462(4) 0.6583(5) 0.3590(16) 0.0127 Uiso
O2_4 O 0.7325(3) 0.6252(2) 0.2051(11) 0.0124 Uiso
O3_4 O 0.7188(2) 0.6879(2) 0.4020(9) 0.0051 Uiso
C5_4 C 0.8398(4) 0.6861(3) 0.8745(15) 0.0101 Uiso
C6_4 C 0.8795(4) 0.6736(4) 0.8051(17) 0.0101 Uiso
C7_4 C 0.7914(4) 0.6810(5) 0.7429(14) 0.0051 Uiso
C8_4 C 0.9205(4) 0.6750(5) 0.9743(16) 0.0127 Uiso
O4_4 O 0.7491(2) 0.6935(2) 0.8250(11) 0.0051 Uiso
O9_4 O 0.9586(2) 0.5594(4) 0.4615(11) 0.0124 Uiso
H1_4 H 0.823699 0.632262 0.29462 . .
H2_5 H 0.858103 0.157032 0.0387133 . .
C1_5 C 0.8204(5) 0.1731(4) 0.4588(15) 0.0101 Uiso
C2_5 C 0.8726(6) 0.2128(4) 0.5282(17) 0.0101 Uiso
C3_5 C 0.7771(6) 0.1247(4) 0.5904(14) 0.0051 Uiso
C4_5 C 0.9122(6) 0.2538(4) 0.3590(16) 0.0127 Uiso
O2_5 O 0.8928(4) 0.2675(3) 0.2051(11) 0.0124 Uiso
O3_5 O 0.9692(3) 0.2812(2) 0.4020(9) 0.0051 Uiso
C5_5 C 0.8463(5) 0.1602(4) 0.8745(15) 0.0101 Uiso
C6_5 C 0.7941(6) 0.1205(4) 0.8051(17) 0.0101 Uiso
C7_5 C 0.8896(6) 0.2086(4) 0.7429(14) 0.0051 Uiso
C8_5 C 0.7545(6) 0.0795(4) 0.9743(16) 0.0127 Uiso
O4_5 O 0.9444(3) 0.2509(2) 0.8250(11) 0.0051 Uiso
O9_5 O 0.6009(4) 0.0414(2) 0.4615(11) 0.0124 Uiso
H1_5 H 0.808563 0.176301 0.29462 . .
H2_6 H 0.298929 0.141897 0.0387133 . .
C1_6 C 0.3528(3) 0.1796(5) 0.4588(15) 0.0101 Uiso
C2_6 C 0.3403(4) 0.1274(6) 0.5282(17) 0.0101 Uiso
C3_6 C 0.3477(5) 0.2229(6) 0.5904(14) 0.0051 Uiso
C4_6 C 0.3417(5) 0.0878(6) 0.3590(16) 0.0127 Uiso
O2_6 O 0.3748(2) 0.1072(4) 0.2051(11) 0.0124 Uiso
O3_6 O 0.3121(2) 0.0308(3) 0.4020(9) 0.0051 Uiso
C5_6 C 0.3139(3) 0.1537(5) 0.8745(15) 0.0101 Uiso
C6_6 C 0.3264(4) 0.2059(6) 0.8051(17) 0.0101 Uiso
C7_6 C 0.3190(5) 0.1104(6) 0.7429(14) 0.0051 Uiso
C8_6 C 0.3250(5) 0.2455(6) 0.9743(16) 0.0127 Uiso
O4_6 O 0.3065(2) 0.0556(3) 0.8250(11) 0.0051 Uiso
O9_6 O 0.4406(4) 0.3991(4) 0.4615(11) 0.0124 Uiso
H1_6 H 0.367738 0.191437 0.29462 . .
C5_7 C 0.5065(4) 0.0194(3) 0.2078(15) 0.0101 Uiso
C6_7 C 0.5462(4) 0.0069(4) 0.1384(17) 0.0101 Uiso
C7_7 C 0.4581(4) 0.0143(5) 0.0762(14) 0.0051 Uiso
C8_7 C 0.5872(4) 0.0083(5) 0.3076(16) 0.0127 Uiso
O4_7 O 0.4158(2) 0.0268(2) 0.1583(11) 0.0051 Uiso
H2_7 H 0.509635 0.0344048 0.372047 . .
O3_7 O 0.3854(2) 0.0213(2) 0.7354(9) 0.0051 Uiso
C1_7 C 0.4935(4) 0.9806(3) 0.7922(15) 0.0101 Uiso
C2_7 C 0.4538(4) 0.9931(4) 0.8616(17) 0.0101 Uiso
C3_7 C 0.5419(4) 0.9857(5) 0.9238(14) 0.0051 Uiso
C4_7 C 0.4128(4) 0.9917(5) 0.6924(16) 0.0127 Uiso
O2_7 O 0.3991(3) 0.9586(2) 0.5385(11) 0.0124 Uiso
H1_7 H 0.490365 0.965595 0.627953 . .
C5_8 C 0.5130(5) 0.4935(4) 0.2078(15) 0.0101 Uiso
C6_8 C 0.4608(6) 0.4538(4) 0.1384(17) 0.0101 Uiso
C7_8 C 0.5563(6) 0.5419(4) 0.0762(14) 0.0051 Uiso
C8_8 C 0.4212(6) 0.4128(4) 0.3076(16) 0.0127 Uiso
O4_8 O 0.6111(3) 0.5842(2) 0.1583(11) 0.0051 Uiso
H2_8 H 0.52477 0.490365 0.372047 . .
C1_8 C 0.4870(5) 0.5065(4) 0.7922(15) 0.0101 Uiso
C2_8 C 0.5392(6) 0.5462(4) 0.8616(17) 0.0101 Uiso
C3_8 C 0.4437(6) 0.4581(4) 0.9238(14) 0.0051 Uiso
C4_8 C 0.5788(6) 0.5872(4) 0.6924(16) 0.0127 Uiso
O2_8 O 0.5594(4) 0.6009(3) 0.5385(11) 0.0124 Uiso
O3_8 O 0.6358(3) 0.6146(2) 0.7354(9) 0.0051 Uiso
H1_8 H 0.47523 0.509635 0.627953 . .
C1_9 C 0.0194(3) 0.5130(5) 0.7922(15) 0.0101 Uiso
C2_9 C 0.0069(4) 0.4608(6) 0.8616(17) 0.0101 Uiso
C3_9 C 0.0143(5) 0.5563(6) 0.9238(14) 0.0051 Uiso
C4_9 C 0.0083(5) 0.4212(6) 0.6924(16) 0.0127 Uiso
O2_9 O 0.0414(2) 0.4406(4) 0.5385(11) 0.0124 Uiso
H1_9 H 0.0344048 0.52477 0.627953 . .
C5_9 C 0.9806(3) 0.4870(5) 0.2078(15) 0.0101 Uiso
C6_9 C 0.9931(4) 0.5392(6) 0.1384(17) 0.0101 Uiso
C7_9 C 0.9857(5) 0.4437(6) 0.0762(14) 0.0051 Uiso
C8_9 C 0.9917(5) 0.5788(6) 0.3076(16) 0.0127 Uiso
O4_9 O 0.9732(2) 0.3889(3) 0.1583(11) 0.0051 Uiso
H2_9 H 0.965595 0.47523 0.372047 . .
O3_9 O 0.9787(2) 0.3642(3) 0.7354(9) 0.0051 Uiso
loop_
_geom_bond_atom_site_label_1
_geom_bond_atom_site_label_2
_geom_bond_site_symmetry_1
_geom_bond_site_symmetry_2
Cu1 O1 1_555 1_555
C1 C2 1_555 1_555
C2 C4 1_555 1_555
C3 C1 1_555 1_555
O1 C3 1_555 1_555
O3 C4 1_555 1_555
C5 C6 1_555 1_555
C6 C3 1_555 1_555
C7 C2 1_555 1_555
C8 C6 1_555 1_555
O4 C7 1_555 1_555
O5 C8 1_555 1_555
O6 Cu1 1_555 1_555
Cu7 O1 1_555 1_555
Cu4 O4 1_555 1_555
Cu5 O6 1_555 1_555
Cu8 O3 1_555 1_555
O7 Cu1 1_555 1_555
O9 Cu1 1_555 1_555
O12 Cu1 1_555 1_555
C5 C7 1_555 1_555
C8 O6 1_555 1_555
O4 Cu8 1_555 1_555
Cu7 O12 1_555 1_555
Cu5 O7 1_555 1_555
C5 H2 1_555 1_555
O2 Cu4 1_555 1_555
C1_2 C2_2 1_555 1_555
C2_2 C4_2 1_555 1_555
C3_2 C1_2 1_555 1_555
O1_2 C3_2 1_555 1_555
O3_2 C4_2 1_555 1_555
C5_2 C6_2 1_555 1_555
C6_2 C3_2 1_555 1_555
C7_2 C2_2 1_555 1_555
C8_2 C6_2 1_555 1_555
O4_2 C7_2 1_555 1_555
O5_2 C8_2 1_555 1_555
Cu7_2 O1_2 1_555 1_555
Cu4_2 O4_2 1_555 1_555
Cu8_2 O3_2 1_555 1_555
C5_2 C7_2 1_555 1_555
C8_2 O6_2 1_555 1_555
O4_2 Cu8_2 1_555 1_555
Cu7_2 O12_2 1_555 1_555
C5_2 H2_2 1_555 1_555
O2_2 Cu4_2 1_555 1_555
O7_2 Cu1_2 1_555 1_555
O9_2 Cu1_2 1_555 1_555
Cu5_2 O7_2 1_555 1_555
O7_3 Cu1_3 1_555 1_555
O9_3 Cu1_3 1_555 1_555
Cu5_3 O7_3 1_555 1_555
C1_3 C2_3 1_555 1_555
C2_3 C4_3 1_555 1_555
C3_3 C1_3 1_555 1_555
O1_3 C3_3 1_555 1_555
O3_3 C4_3 1_555 1_555
C5_3 C6_3 1_555 1_555
C6_3 C3_3 1_555 1_555
C7_3 C2_3 1_555 1_555
C8_3 C6_3 1_555 1_555
O4_3 C7_3 1_555 1_555
O5_3 C8_3 1_555 1_555
Cu7_3 O1_3 1_555 1_555
Cu4_3 O4_3 1_555 1_555
Cu8_3 O3_3 1_555 1_555
C5_3 C7_3 1_555 1_555
C8_3 O6_3 1_555 1_555
O4_3 Cu8_3 1_555 1_555
Cu7_3 O12_3 1_555 1_555
C5_3 H2_3 1_555 1_555
O2_3 Cu4_3 1_555 1_555
C1_4 C2_4 1_555 1_555
C2_4 C4_4 1_555 1_555
C3_4 C1_4 1_555 1_555
C4_4 O2_4 1_555 1_555
O7_2 C3_4 1_555 1_555
O3_4 C4_4 1_555 1_555
C5_4 C6_4 1_555 1_555
C6_4 C3_4 1_555 1_555
C7_4 C2_4 1_555 1_555
C8_4 C6_4 1_555 1_555
O4_4 C7_4 1_555 1_555
O11_2 Cu5_2 1_555 1_555
Cu6_3 O4_4 1_555 1_555
Cu8_3 O3_4 1_555 1_555
Cu4_3 O3_4 1_555 1_555
O9_4 Cu5_2 1_555 1_555
C5_4 C7_4 1_555 1_555
C8_4 O11_2 1_555 1_555
O4_4 Cu4_3 1_555 1_555
C1_4 H1_4 1_555 1_555
C1_5 C2_5 1_555 1_555
C2_5 C4_5 1_555 1_555
C3_5 C1_5 1_555 1_555
C4_5 O2_5 1_555 1_555
O7_3 C3_5 1_555 1_555
O3_5 C4_5 1_555 1_555
C5_5 C6_5 1_555 1_555
C6_5 C3_5 1_555 1_555
C7_5 C2_5 1_555 1_555
C8_5 C6_5 1_555 1_555
O4_5 C7_5 1_555 1_555
O11_3 Cu5_3 1_555 1_555
Cu6 O4_5 1_555 1_555
O9_5 Cu5_3 1_555 1_555
C5_5 C7_5 1_555 1_555
C8_5 O11_3 1_555 1_555
C1_5 H1_5 1_555 1_555
C1_6 C2_6 1_555 1_555
C2_6 C4_6 1_555 1_555
C3_6 C1_6 1_555 1_555
C4_6 O2_6 1_555 1_555
O7 C3_6 1_555 1_555
O3_6 C4_6 1_555 1_555
C5_6 C6_6 1_555 1_555
C6_6 C3_6 1_555 1_555
C7_6 C2_6 1_555 1_555
C8_6 C6_6 1_555 1_555
O4_6 C7_6 1_555 1_555
O11 Cu5 1_555 1_555
Cu6_2 O4_6 1_555 1_555
O8 Cu5 1_555 1_555
O9_6 Cu5 1_555 1_555
C5_6 C7_6 1_555 1_555
C8_6 O11 1_555 1_555
C1_6 H1_6 1_555 1_555
C5_7 C6_7 1_555 1_555
C8_7 C6_7 1_555 1_555
O4_7 C7_7 1_555 1_555
O9_5 C8_7 1_555 1_555
C5_7 C7_7 1_555 1_555
C5_7 H2_7 1_555 1_555
Cu6_2 O3_7 1_555 1_555
C1_7 C2_7 1_555 1_555
C2_7 C4_7 1_555 1_555
C3_7 C1_7 1_555 1_555
C4_7 O2_7 1_555 1_555
O8_3 C3_7 1_555 1_555
O2_7 Cu8_2 1_555 1_555
C1_7 H1_7 1_555 1_555
C5_8 C6_8 1_555 1_555
C8_8 C6_8 1_555 1_555
O4_8 C7_8 1_555 1_555
O9_6 C8_8 1_555 1_555
Cu8_3 O4_8 1_555 1_555
C5_8 C7_8 1_555 1_555
C8_8 O12 1_555 1_555
C5_8 H2_8 1_555 1_555
C1_8 C2_8 1_555 1_555
C2_8 C4_8 1_555 1_555
C3_8 C1_8 1_555 1_555
C4_8 O2_8 1_555 1_555
O8 C3_8 1_555 1_555
O2_8 Cu8_3 1_555 1_555
O3_8 C4_8 1_555 1_555
Cu4_3 O3_8 1_555 1_555
Cu6_3 O3_8 1_555 1_555
C1_8 H1_8 1_555 1_555
C1_9 C2_9 1_555 1_555
C2_9 C4_9 1_555 1_555
C3_9 C1_9 1_555 1_555
C4_9 O2_9 1_555 1_555
O8_2 C3_9 1_555 1_555
O2_9 Cu8 1_555 1_555
C1_9 H1_9 1_555 1_555
C5_9 C6_9 1_555 1_555
C8_9 C6_9 1_555 1_555
O4_9 C7_9 1_555 1_555
O9_4 C8_9 1_555 1_555
C5_9 C7_9 1_555 1_555
C5_9 H2_9 1_555 1_555
Cu6 O3_9 1_555 1_555

#END
