
###############################################################################
#
# This file contains modified crystal structure data generated from the
# MOF subset of the Cambridge Structural Database (CSD) v543 
# hosted by the Cambridge Crystallographic Data Centre (CCDC).
#
# This work is licensed under the Creative Commons
# Attribution-NonCommercial-ShareAlike 4.0 International License.
# To view a copy of this license, visit
# http://creativecommons.org/licenses/by-nc-sa/4.0/
# or send a letter to
# Creative Commons, PO Box 1866, Mountain View, CA 94042, USA.
#
# CIF created using the CSD Python API on 29 September 2022
# The structure has been converted into the P1 space group
# The structure has a 3D framework
# The original CSD entry MOKYAP75 is in the rhombohedral crystal system
# The framework has been calculated to contain at least 10.0% void space
# The void calculation uses a probe of radius 1.32A, grid spacing 0.4
# H atom positions have been added when not included in the experimental data
#
###############################################################################

data_MOKYAP75
_chemical_formula_moiety         '(C72 H18 Cu7 O44)n'
_symmetry_cell_setting           triclinic
_symmetry_space_group_name_H-M   'P 1'
_symmetry_Int_Tables_number      1
_space_group_name_Hall           'P 1'
loop_
_symmetry_equiv_pos_site_id
_symmetry_equiv_pos_as_xyz
1 x,y,z
_cell_length_a                   25.9146(3)
_cell_length_b                   25.9146(3)
_cell_length_c                   6.27540(6)
_cell_angle_alpha                90
_cell_angle_beta                 90
_cell_angle_gamma                120
_cell_volume                     3649.73
loop_
_atom_site_label
_atom_site_type_symbol
_atom_site_fract_x
_atom_site_fract_y
_atom_site_fract_z
_atom_site_U_iso_or_equiv
_atom_site_thermal_displace_type
Cu7 Cu 0.31802(7) 0.37129(5) 0.0091(2) 0.0110 Uiso
Cu1 Cu 0.29538(5) 0.28007(5) 0.3424(2) 0.0110 Uiso
C1 C 0.1611(3) 0.3127(3) 0.1240(13) 0.0066 Uiso
C2 C 0.1201(4) 0.3271(4) 0.1985(15) 0.0165 Uiso
C3 C 0.2092(4) 0.3189(4) 0.2558(12) 0.0076 Uiso
C4 C 0.0768(3) 0.3233(4) 0.0321(13) 0.0076 Uiso
O1 O 0.2517(2) 0.3074(2) 0.1704(9) 0.0056 Uiso
O3 O 0.0520(2) 0.3547(2) 0.0665(8) 0.0063 Uiso
C5 C 0.1722(3) 0.3540(3) 0.5427(13) 0.0066 Uiso
C6 C 0.2132(4) 0.3396(4) 0.4682(15) 0.0165 Uiso
C7 C 0.1241(4) 0.3478(4) 0.4109(12) 0.0076 Uiso
C8 C 0.2565(3) 0.3434(4) 0.6346(13) 0.0076 Uiso
O4 O 0.0816(2) 0.3593(2) 0.4963(9) 0.0056 Uiso
O5 O 0.2667(2) 0.3745(2) 0.7969(9) 0.0137 Uiso
O6 O 0.2813(2) 0.3120(2) 0.6002(8) 0.0063 Uiso
Cu4 Cu 0.01531(7) 0.29538(5) 0.6576(2) 0.0110 Uiso
Cu5 Cu 0.38660(5) 0.34864(7) 0.6757(2) 0.0110 Uiso
Cu8 Cu 0.03795(5) 0.38660(5) 0.3243(2) 0.0110 Uiso
O7 O 0.3593(2) 0.2776(3) 0.5037(9) 0.0056 Uiso
O9 O 0.2922(2) 0.2256(3) 0.1302(9) 0.0137 Uiso
O12 O 0.3640(3) 0.3853(2) 0.2668(8) 0.0063 Uiso
H2 H 0.176244 0.370426 0.704981 . .
O2 O 0.0666(2) 0.2922(2) 0.8698(9) 0.0137 Uiso
O8 O 0.3890(3) 0.4150(2) 0.8371(9) 0.0056 Uiso
O11 O 0.3547(2) 0.3027(3) 0.9335(8) 0.0063 Uiso
H1 H 0.157089 0.29624 0.961686 . .
Cu6 Cu 0.94674(5) 0.31802(7) 0.9909(2) 0.0110 Uiso
Cu6_2 Cu 0.37129(9) 0.05326(5) 0.9909(2) 0.0110 Uiso
Cu7_2 Cu 0.05326(9) 0.68198(7) 0.0091(2) 0.0110 Uiso
C1_2 C 0.1516(4) 0.8389(3) 0.1240(13) 0.0066 Uiso
C2_2 C 0.2070(6) 0.8799(4) 0.1985(15) 0.0165 Uiso
C3_2 C 0.1097(6) 0.7908(4) 0.2558(12) 0.0076 Uiso
C4_2 C 0.2465(5) 0.9232(3) 0.0321(13) 0.0076 Uiso
O1_2 O 0.0557(3) 0.7483(2) 0.1704(9) 0.0056 Uiso
O3_2 O 0.3027(3) 0.9480(2) 0.0665(8) 0.0063 Uiso
C5_2 C 0.1817(4) 0.8278(3) 0.5427(13) 0.0066 Uiso
C6_2 C 0.1263(6) 0.7868(4) 0.4682(15) 0.0165 Uiso
C7_2 C 0.2236(6) 0.8759(4) 0.4109(12) 0.0076 Uiso
C8_2 C 0.0868(5) 0.7435(3) 0.6346(13) 0.0076 Uiso
O4_2 O 0.2776(3) 0.9184(2) 0.4963(9) 0.0056 Uiso
O5_2 O 0.1077(3) 0.7333(2) 0.7969(9) 0.0137 Uiso
O6_2 O 0.0306(3) 0.7187(2) 0.6002(8) 0.0063 Uiso
Cu4_2 Cu 0.28007(9) 0.98469(7) 0.6576(2) 0.0110 Uiso
Cu8_2 Cu 0.34864(7) 0.96205(5) 0.3243(2) 0.0110 Uiso
O12_2 O 0.0214(4) 0.6360(3) 0.2668(8) 0.0063 Uiso
H2_2 H 0.194182 0.823756 0.704981 . .
O2_2 O 0.2256(3) 0.9334(2) 0.8698(9) 0.0137 Uiso
O8_2 O 0.0259(4) 0.6110(3) 0.8371(9) 0.0056 Uiso
H1_2 H 0.139151 0.842911 0.961686 . .
Cu1_2 Cu 0.98469(7) 0.70462(5) 0.3424(2) 0.0110 Uiso
Cu5_2 Cu 0.96205(9) 0.61340(5) 0.6757(2) 0.0110 Uiso
O7_2 O 0.9184(4) 0.6407(2) 0.5037(9) 0.0056 Uiso
O9_2 O 0.9334(4) 0.7078(2) 0.1302(9) 0.0137 Uiso
O11_2 O 0.9480(4) 0.6453(2) 0.9335(8) 0.0063 Uiso
Cu1_3 Cu 0.71993(5) 0.01531(7) 0.3424(2) 0.0110 Uiso
Cu5_3 Cu 0.65136(7) 0.03795(9) 0.6757(2) 0.0110 Uiso
O7_3 O 0.7224(3) 0.0816(4) 0.5037(9) 0.0056 Uiso
O9_3 O 0.7744(3) 0.0666(4) 0.1302(9) 0.0137 Uiso
O11_3 O 0.6973(3) 0.0520(4) 0.9335(8) 0.0063 Uiso
Cu7_3 Cu 0.62871(5) 0.94674(9) 0.0091(2) 0.0110 Uiso
C1_3 C 0.6873(3) 0.8484(4) 0.1240(13) 0.0066 Uiso
C2_3 C 0.6729(4) 0.7930(6) 0.1985(15) 0.0165 Uiso
C3_3 C 0.6811(4) 0.8903(6) 0.2558(12) 0.0076 Uiso
C4_3 C 0.6767(4) 0.7535(5) 0.0321(13) 0.0076 Uiso
O1_3 O 0.6926(2) 0.9443(3) 0.1704(9) 0.0056 Uiso
O3_3 O 0.6453(2) 0.6973(3) 0.0665(8) 0.0063 Uiso
C5_3 C 0.6460(3) 0.8183(4) 0.5427(13) 0.0066 Uiso
C6_3 C 0.6604(4) 0.8737(6) 0.4682(15) 0.0165 Uiso
C7_3 C 0.6522(4) 0.7764(6) 0.4109(12) 0.0076 Uiso
C8_3 C 0.6566(4) 0.9132(5) 0.6346(13) 0.0076 Uiso
O4_3 O 0.6407(2) 0.7224(3) 0.4963(9) 0.0056 Uiso
O5_3 O 0.6255(2) 0.8923(3) 0.7969(9) 0.0137 Uiso
O6_3 O 0.6880(2) 0.9694(3) 0.6002(8) 0.0063 Uiso
Cu4_3 Cu 0.70462(5) 0.71993(9) 0.6576(2) 0.0110 Uiso
Cu8_3 Cu 0.61340(5) 0.65136(7) 0.3243(2) 0.0110 Uiso
O12_3 O 0.6147(2) 0.9786(4) 0.2668(8) 0.0063 Uiso
H2_3 H 0.629574 0.805818 0.704981 . .
O2_3 O 0.7078(2) 0.7744(3) 0.8698(9) 0.0137 Uiso
Cu6_3 Cu 0.68198(7) 0.62871(9) 0.9909(2) 0.0110 Uiso
O8_3 O 0.5850(2) 0.9741(4) 0.8371(9) 0.0056 Uiso
H1_3 H 0.70376 0.860849 0.961686 . .
H2_4 H 0.842911 0.70376 0.0383139 . .
C1_4 C 0.8278(3) 0.6460(3) 0.4573(13) 0.0066 Uiso
C2_4 C 0.7868(4) 0.6604(4) 0.5318(15) 0.0165 Uiso
C3_4 C 0.8759(4) 0.6522(4) 0.5891(12) 0.0076 Uiso
C4_4 C 0.7435(3) 0.6566(4) 0.3654(13) 0.0076 Uiso
O2_4 O 0.7333(2) 0.6255(2) 0.2031(9) 0.0137 Uiso
O3_4 O 0.7187(2) 0.6880(2) 0.3998(8) 0.0063 Uiso
C5_4 C 0.8389(3) 0.6873(3) 0.8760(13) 0.0066 Uiso
C6_4 C 0.8799(4) 0.6729(4) 0.8015(15) 0.0165 Uiso
C7_4 C 0.7908(4) 0.6811(4) 0.7442(12) 0.0076 Uiso
C8_4 C 0.9232(3) 0.6767(4) 0.9679(13) 0.0076 Uiso
O4_4 O 0.7483(2) 0.6926(2) 0.8296(9) 0.0056 Uiso
O9_4 O 0.9589(2) 0.5589(3) 0.4635(9) 0.0137 Uiso
H1_4 H 0.823756 0.629574 0.295019 . .
H2_5 H 0.860849 0.157089 0.0383139 . .
C1_5 C 0.8183(4) 0.1722(3) 0.4573(13) 0.0066 Uiso
C2_5 C 0.8737(6) 0.2132(4) 0.5318(15) 0.0165 Uiso
C3_5 C 0.7764(6) 0.1241(4) 0.5891(12) 0.0076 Uiso
C4_5 C 0.9132(5) 0.2565(3) 0.3654(13) 0.0076 Uiso
O2_5 O 0.8923(3) 0.2667(2) 0.2031(9) 0.0137 Uiso
O3_5 O 0.9694(3) 0.2813(2) 0.3998(8) 0.0063 Uiso
C5_5 C 0.8484(4) 0.1611(3) 0.8760(13) 0.0066 Uiso
C6_5 C 0.7930(6) 0.1201(4) 0.8015(15) 0.0165 Uiso
C7_5 C 0.8903(6) 0.2092(4) 0.7442(12) 0.0076 Uiso
C8_5 C 0.7535(5) 0.0768(3) 0.9679(13) 0.0076 Uiso
O4_5 O 0.9443(3) 0.2517(2) 0.8296(9) 0.0056 Uiso
O9_5 O 0.6001(4) 0.0411(2) 0.4635(9) 0.0137 Uiso
H1_5 H 0.805818 0.176244 0.295019 . .
H2_6 H 0.29624 0.139151 0.0383139 . .
C1_6 C 0.3540(3) 0.1817(4) 0.4573(13) 0.0066 Uiso
C2_6 C 0.3396(4) 0.1263(6) 0.5318(15) 0.0165 Uiso
C3_6 C 0.3478(4) 0.2236(6) 0.5891(12) 0.0076 Uiso
C4_6 C 0.3434(4) 0.0868(5) 0.3654(13) 0.0076 Uiso
O2_6 O 0.3745(2) 0.1077(3) 0.2031(9) 0.0137 Uiso
O3_6 O 0.3120(2) 0.0306(3) 0.3998(8) 0.0063 Uiso
C5_6 C 0.3127(3) 0.1516(4) 0.8760(13) 0.0066 Uiso
C6_6 C 0.3271(4) 0.2070(6) 0.8015(15) 0.0165 Uiso
C7_6 C 0.3189(4) 0.1097(6) 0.7442(12) 0.0076 Uiso
C8_6 C 0.3233(4) 0.2465(5) 0.9679(13) 0.0076 Uiso
O4_6 O 0.3074(2) 0.0557(3) 0.8296(9) 0.0056 Uiso
O9_6 O 0.4411(3) 0.3999(4) 0.4635(9) 0.0137 Uiso
H1_6 H 0.370426 0.194182 0.295019 . .
C5_7 C 0.5056(3) 0.0206(3) 0.2093(13) 0.0066 Uiso
C6_7 C 0.5466(4) 0.0062(4) 0.1348(15) 0.0165 Uiso
C7_7 C 0.4575(4) 0.0144(4) 0.0775(12) 0.0076 Uiso
C8_7 C 0.5899(3) 0.0100(4) 0.3012(13) 0.0076 Uiso
O4_7 O 0.4150(2) 0.0259(2) 0.1629(9) 0.0056 Uiso
H2_7 H 0.509577 0.0370928 0.371647 . .
O3_7 O 0.3853(2) 0.0214(2) 0.7332(8) 0.0063 Uiso
C1_7 C 0.4944(3) 0.9794(3) 0.7907(13) 0.0066 Uiso
C2_7 C 0.4534(4) 0.9938(4) 0.8652(15) 0.0165 Uiso
C3_7 C 0.5425(4) 0.9856(4) 0.9225(12) 0.0076 Uiso
C4_7 C 0.4101(3) 0.9900(4) 0.6988(13) 0.0076 Uiso
O2_7 O 0.3999(2) 0.9589(2) 0.5365(9) 0.0137 Uiso
H1_7 H 0.490423 0.962907 0.628353 . .
C5_8 C 0.5151(4) 0.4944(3) 0.2093(13) 0.0066 Uiso
C6_8 C 0.4597(6) 0.4534(4) 0.1348(15) 0.0165 Uiso
C7_8 C 0.5570(6) 0.5425(4) 0.0775(12) 0.0076 Uiso
C8_8 C 0.4202(5) 0.4101(3) 0.3012(13) 0.0076 Uiso
O4_8 O 0.6110(3) 0.5850(2) 0.1629(9) 0.0056 Uiso
H2_8 H 0.527515 0.490423 0.371647 . .
C1_8 C 0.4849(4) 0.5056(3) 0.7907(13) 0.0066 Uiso
C2_8 C 0.5403(6) 0.5466(4) 0.8652(15) 0.0165 Uiso
C3_8 C 0.4430(6) 0.4575(4) 0.9225(12) 0.0076 Uiso
C4_8 C 0.5798(5) 0.5899(3) 0.6988(13) 0.0076 Uiso
O2_8 O 0.5589(3) 0.6001(2) 0.5365(9) 0.0137 Uiso
O3_8 O 0.6360(3) 0.6147(2) 0.7332(8) 0.0063 Uiso
H1_8 H 0.472485 0.509577 0.628353 . .
C1_9 C 0.0206(3) 0.5151(4) 0.7907(13) 0.0066 Uiso
C2_9 C 0.0062(4) 0.4597(6) 0.8652(15) 0.0165 Uiso
C3_9 C 0.0144(4) 0.5570(6) 0.9225(12) 0.0076 Uiso
C4_9 C 0.0100(4) 0.4202(5) 0.6988(13) 0.0076 Uiso
O2_9 O 0.0411(2) 0.4411(3) 0.5365(9) 0.0137 Uiso
H1_9 H 0.0370928 0.527515 0.628353 . .
C5_9 C 0.9794(3) 0.4849(4) 0.2093(13) 0.0066 Uiso
C6_9 C 0.9938(4) 0.5403(6) 0.1348(15) 0.0165 Uiso
C7_9 C 0.9856(4) 0.4430(6) 0.0775(12) 0.0076 Uiso
C8_9 C 0.9900(4) 0.5798(5) 0.3012(13) 0.0076 Uiso
O4_9 O 0.9741(2) 0.3890(3) 0.1629(9) 0.0056 Uiso
H2_9 H 0.962907 0.472485 0.371647 . .
O3_9 O 0.9786(2) 0.3640(3) 0.7332(8) 0.0063 Uiso
loop_
_geom_bond_atom_site_label_1
_geom_bond_atom_site_label_2
_geom_bond_site_symmetry_1
_geom_bond_site_symmetry_2
Cu1 O1 1_555 1_555
C1 C2 1_555 1_555
C2 C4 1_555 1_555
C3 C1 1_555 1_555
O1 C3 1_555 1_555
O3 C4 1_555 1_555
C5 C6 1_555 1_555
C6 C3 1_555 1_555
C7 C2 1_555 1_555
C8 C6 1_555 1_555
O4 C7 1_555 1_555
O5 C8 1_555 1_555
O6 Cu1 1_555 1_555
Cu7 O1 1_555 1_555
Cu4 O4 1_555 1_555
Cu5 O6 1_555 1_555
Cu8 O3 1_555 1_555
O7 Cu1 1_555 1_555
O9 Cu1 1_555 1_555
O12 Cu1 1_555 1_555
C5 C7 1_555 1_555
C8 O6 1_555 1_555
O4 Cu8 1_555 1_555
Cu7 O12 1_555 1_555
Cu5 O7 1_555 1_555
C5 H2 1_555 1_555
O2 Cu4 1_555 1_555
C1_2 C2_2 1_555 1_555
C2_2 C4_2 1_555 1_555
C3_2 C1_2 1_555 1_555
O1_2 C3_2 1_555 1_555
O3_2 C4_2 1_555 1_555
C5_2 C6_2 1_555 1_555
C6_2 C3_2 1_555 1_555
C7_2 C2_2 1_555 1_555
C8_2 C6_2 1_555 1_555
O4_2 C7_2 1_555 1_555
O5_2 C8_2 1_555 1_555
Cu7_2 O1_2 1_555 1_555
Cu4_2 O4_2 1_555 1_555
Cu8_2 O3_2 1_555 1_555
C5_2 C7_2 1_555 1_555
C8_2 O6_2 1_555 1_555
O4_2 Cu8_2 1_555 1_555
Cu7_2 O12_2 1_555 1_555
C5_2 H2_2 1_555 1_555
O2_2 Cu4_2 1_555 1_555
O7_2 Cu1_2 1_555 1_555
O9_2 Cu1_2 1_555 1_555
Cu5_2 O7_2 1_555 1_555
O7_3 Cu1_3 1_555 1_555
O9_3 Cu1_3 1_555 1_555
Cu5_3 O7_3 1_555 1_555
C1_3 C2_3 1_555 1_555
C2_3 C4_3 1_555 1_555
C3_3 C1_3 1_555 1_555
O1_3 C3_3 1_555 1_555
O3_3 C4_3 1_555 1_555
C5_3 C6_3 1_555 1_555
C6_3 C3_3 1_555 1_555
C7_3 C2_3 1_555 1_555
C8_3 C6_3 1_555 1_555
O4_3 C7_3 1_555 1_555
O5_3 C8_3 1_555 1_555
Cu7_3 O1_3 1_555 1_555
Cu4_3 O4_3 1_555 1_555
Cu8_3 O3_3 1_555 1_555
C5_3 C7_3 1_555 1_555
C8_3 O6_3 1_555 1_555
O4_3 Cu8_3 1_555 1_555
Cu7_3 O12_3 1_555 1_555
C5_3 H2_3 1_555 1_555
O2_3 Cu4_3 1_555 1_555
C1_4 C2_4 1_555 1_555
C2_4 C4_4 1_555 1_555
C3_4 C1_4 1_555 1_555
C4_4 O2_4 1_555 1_555
O7_2 C3_4 1_555 1_555
O3_4 C4_4 1_555 1_555
C5_4 C6_4 1_555 1_555
C6_4 C3_4 1_555 1_555
C7_4 C2_4 1_555 1_555
C8_4 C6_4 1_555 1_555
O4_4 C7_4 1_555 1_555
O11_2 Cu5_2 1_555 1_555
Cu6_3 O4_4 1_555 1_555
Cu8_3 O3_4 1_555 1_555
Cu4_3 O3_4 1_555 1_555
O9_4 Cu5_2 1_555 1_555
C5_4 C7_4 1_555 1_555
C8_4 O11_2 1_555 1_555
O4_4 Cu4_3 1_555 1_555
C1_4 H1_4 1_555 1_555
C1_5 C2_5 1_555 1_555
C2_5 C4_5 1_555 1_555
C3_5 C1_5 1_555 1_555
C4_5 O2_5 1_555 1_555
O7_3 C3_5 1_555 1_555
O3_5 C4_5 1_555 1_555
C5_5 C6_5 1_555 1_555
C6_5 C3_5 1_555 1_555
C7_5 C2_5 1_555 1_555
C8_5 C6_5 1_555 1_555
O4_5 C7_5 1_555 1_555
O11_3 Cu5_3 1_555 1_555
Cu6 O4_5 1_555 1_555
O9_5 Cu5_3 1_555 1_555
C5_5 C7_5 1_555 1_555
C8_5 O11_3 1_555 1_555
C1_5 H1_5 1_555 1_555
C1_6 C2_6 1_555 1_555
C2_6 C4_6 1_555 1_555
C3_6 C1_6 1_555 1_555
C4_6 O2_6 1_555 1_555
O7 C3_6 1_555 1_555
O3_6 C4_6 1_555 1_555
C5_6 C6_6 1_555 1_555
C6_6 C3_6 1_555 1_555
C7_6 C2_6 1_555 1_555
C8_6 C6_6 1_555 1_555
O4_6 C7_6 1_555 1_555
O11 Cu5 1_555 1_555
Cu6_2 O4_6 1_555 1_555
O8 Cu5 1_555 1_555
O9_6 Cu5 1_555 1_555
C5_6 C7_6 1_555 1_555
C8_6 O11 1_555 1_555
C1_6 H1_6 1_555 1_555
C5_7 C6_7 1_555 1_555
C8_7 C6_7 1_555 1_555
O4_7 C7_7 1_555 1_555
O9_5 C8_7 1_555 1_555
C5_7 C7_7 1_555 1_555
C5_7 H2_7 1_555 1_555
Cu6_2 O3_7 1_555 1_555
C1_7 C2_7 1_555 1_555
C2_7 C4_7 1_555 1_555
C3_7 C1_7 1_555 1_555
C4_7 O2_7 1_555 1_555
O8_3 C3_7 1_555 1_555
O2_7 Cu8_2 1_555 1_555
C1_7 H1_7 1_555 1_555
C5_8 C6_8 1_555 1_555
C8_8 C6_8 1_555 1_555
O4_8 C7_8 1_555 1_555
O9_6 C8_8 1_555 1_555
Cu8_3 O4_8 1_555 1_555
C5_8 C7_8 1_555 1_555
C8_8 O12 1_555 1_555
C5_8 H2_8 1_555 1_555
C1_8 C2_8 1_555 1_555
C2_8 C4_8 1_555 1_555
C3_8 C1_8 1_555 1_555
C4_8 O2_8 1_555 1_555
O8 C3_8 1_555 1_555
O2_8 Cu8_3 1_555 1_555
O3_8 C4_8 1_555 1_555
Cu4_3 O3_8 1_555 1_555
Cu6_3 O3_8 1_555 1_555
C1_8 H1_8 1_555 1_555
C1_9 C2_9 1_555 1_555
C2_9 C4_9 1_555 1_555
C3_9 C1_9 1_555 1_555
C4_9 O2_9 1_555 1_555
O8_2 C3_9 1_555 1_555
O2_9 Cu8 1_555 1_555
C1_9 H1_9 1_555 1_555
C5_9 C6_9 1_555 1_555
C8_9 C6_9 1_555 1_555
O4_9 C7_9 1_555 1_555
O9_4 C8_9 1_555 1_555
C5_9 C7_9 1_555 1_555
C5_9 H2_9 1_555 1_555
Cu6 O3_9 1_555 1_555

#END
