
###############################################################################
#
# This file contains modified crystal structure data generated from the
# MOF subset of the Cambridge Structural Database (CSD) v543 
# hosted by the Cambridge Crystallographic Data Centre (CCDC).
#
# This work is licensed under the Creative Commons
# Attribution-NonCommercial-ShareAlike 4.0 International License.
# To view a copy of this license, visit
# http://creativecommons.org/licenses/by-nc-sa/4.0/
# or send a letter to
# Creative Commons, PO Box 1866, Mountain View, CA 94042, USA.
#
# CIF created using the CSD Python API on 29 September 2022
# The structure has been converted into the P1 space group
# The structure has a 3D framework
# The original CSD entry MOKYAP26 is in the rhombohedral crystal system
# The framework has been calculated to contain at least 10.0% void space
# The void calculation uses a probe of radius 1.32A, grid spacing 0.4
# H atom positions have been added when not included in the experimental data
#
###############################################################################

data_MOKYAP26
_chemical_formula_moiety         '(C72 H18 Cu7 O44)n'
_symmetry_cell_setting           triclinic
_symmetry_space_group_name_H-M   'P 1'
_symmetry_Int_Tables_number      1
_space_group_name_Hall           'P 1'
loop_
_symmetry_equiv_pos_site_id
_symmetry_equiv_pos_as_xyz
1 x,y,z
_cell_length_a                   25.9188(3)
_cell_length_b                   25.9188(3)
_cell_length_c                   6.27248(7)
_cell_angle_alpha                90
_cell_angle_beta                 90
_cell_angle_gamma                120
_cell_volume                     3649.22
loop_
_atom_site_label
_atom_site_type_symbol
_atom_site_fract_x
_atom_site_fract_y
_atom_site_fract_z
_atom_site_U_iso_or_equiv
_atom_site_thermal_displace_type
Cu7 Cu 0.31800(7) 0.37144(5) 0.0092(2) 0.0090 Uiso
Cu1 Cu 0.29523(5) 0.27990(5) 0.3425(2) 0.0090 Uiso
C1 C 0.1608(3) 0.3132(3) 0.1255(13) 0.0076 Uiso
C2 C 0.1201(4) 0.3263(4) 0.1973(15) 0.0101 Uiso
C3 C 0.2093(3) 0.3188(4) 0.2553(12) 0.0051 Uiso
C4 C 0.0777(3) 0.3246(4) 0.0295(14) 0.0101 Uiso
O1 O 0.2512(2) 0.3069(2) 0.1722(10) 0.0048 Uiso
O3 O 0.0519(2) 0.3546(2) 0.0683(8) 0.0048 Uiso
C5 C 0.1725(3) 0.3535(3) 0.5412(13) 0.0076 Uiso
C6 C 0.2132(4) 0.3404(4) 0.4694(15) 0.0101 Uiso
C7 C 0.1240(3) 0.3479(4) 0.4114(12) 0.0051 Uiso
C8 C 0.2556(3) 0.3421(4) 0.6372(14) 0.0101 Uiso
O4 O 0.0821(2) 0.3598(2) 0.4945(10) 0.0048 Uiso
O5 O 0.2669(2) 0.3748(2) 0.7959(9) 0.0105 Uiso
O6 O 0.2814(2) 0.3121(2) 0.5984(8) 0.0048 Uiso
Cu4 Cu 0.01533(7) 0.29523(5) 0.6575(2) 0.0090 Uiso
Cu5 Cu 0.38677(5) 0.34866(7) 0.6758(2) 0.0090 Uiso
Cu8 Cu 0.03810(5) 0.38677(5) 0.3242(2) 0.0090 Uiso
O7 O 0.3598(2) 0.2776(3) 0.5055(10) 0.0048 Uiso
O9 O 0.2919(2) 0.2255(3) 0.1292(9) 0.0105 Uiso
O12 O 0.3640(3) 0.3852(2) 0.2650(8) 0.0048 Uiso
H1 H 0.176161 0.369036 0.704701 . .
O2 O 0.0664(2) 0.2919(2) 0.8708(9) 0.0105 Uiso
O8 O 0.3890(3) 0.4155(2) 0.8389(10) 0.0048 Uiso
O11 O 0.3546(2) 0.3027(3) 0.9317(8) 0.0048 Uiso
H2 H 0.157172 0.297631 0.961966 . .
Cu6 Cu 0.94657(5) 0.31800(7) 0.9908(2) 0.0090 Uiso
Cu6_2 Cu 0.37144(9) 0.05343(5) 0.9908(2) 0.0090 Uiso
Cu7_2 Cu 0.05343(9) 0.68200(7) 0.0092(2) 0.0090 Uiso
C1_2 C 0.1524(4) 0.8392(3) 0.1255(13) 0.0076 Uiso
C2_2 C 0.2062(6) 0.8799(4) 0.1973(15) 0.0101 Uiso
C3_2 C 0.1095(5) 0.7907(3) 0.2553(12) 0.0051 Uiso
C4_2 C 0.2469(5) 0.9223(3) 0.0295(14) 0.0101 Uiso
O1_2 O 0.0557(3) 0.7488(2) 0.1722(10) 0.0048 Uiso
O3_2 O 0.3027(3) 0.9481(2) 0.0683(8) 0.0048 Uiso
C5_2 C 0.1809(4) 0.8275(3) 0.5412(13) 0.0076 Uiso
C6_2 C 0.1271(6) 0.7868(4) 0.4694(15) 0.0101 Uiso
C7_2 C 0.2238(5) 0.8760(3) 0.4114(12) 0.0051 Uiso
C8_2 C 0.0864(5) 0.7444(3) 0.6372(14) 0.0101 Uiso
O4_2 O 0.2776(3) 0.9179(2) 0.4945(10) 0.0048 Uiso
O5_2 O 0.1078(3) 0.7331(2) 0.7959(9) 0.0105 Uiso
O6_2 O 0.0306(3) 0.7186(2) 0.5984(8) 0.0048 Uiso
Cu4_2 Cu 0.27990(9) 0.98467(7) 0.6575(2) 0.0090 Uiso
Cu8_2 Cu 0.34866(7) 0.96190(5) 0.3242(2) 0.0090 Uiso
O12_2 O 0.0213(4) 0.6360(3) 0.2650(8) 0.0048 Uiso
H1_2 H 0.192874 0.823839 0.704701 . .
O2_2 O 0.2255(3) 0.9336(2) 0.8708(9) 0.0105 Uiso
O8_2 O 0.0264(4) 0.6110(3) 0.8389(10) 0.0048 Uiso
H2_2 H 0.140459 0.842828 0.961966 . .
Cu1_2 Cu 0.98467(7) 0.70477(5) 0.3425(2) 0.0090 Uiso
Cu5_2 Cu 0.96190(9) 0.61323(5) 0.6758(2) 0.0090 Uiso
O7_2 O 0.9179(4) 0.6402(2) 0.5055(10) 0.0048 Uiso
O9_2 O 0.9336(4) 0.7081(2) 0.1292(9) 0.0105 Uiso
O11_2 O 0.9481(4) 0.6454(2) 0.9317(8) 0.0048 Uiso
Cu1_3 Cu 0.72010(5) 0.01533(7) 0.3425(2) 0.0090 Uiso
Cu5_3 Cu 0.65134(7) 0.03810(9) 0.6758(2) 0.0090 Uiso
O7_3 O 0.7224(3) 0.0821(4) 0.5055(10) 0.0048 Uiso
O9_3 O 0.7745(3) 0.0664(4) 0.1292(9) 0.0105 Uiso
O11_3 O 0.6973(3) 0.0519(4) 0.9317(8) 0.0048 Uiso
Cu7_3 Cu 0.62856(5) 0.94657(9) 0.0092(2) 0.0090 Uiso
C1_3 C 0.6868(3) 0.8476(4) 0.1255(13) 0.0076 Uiso
C2_3 C 0.6737(4) 0.7938(6) 0.1973(15) 0.0101 Uiso
C3_3 C 0.6812(4) 0.8905(5) 0.2553(12) 0.0051 Uiso
C4_3 C 0.6754(4) 0.7531(5) 0.0295(14) 0.0101 Uiso
O1_3 O 0.6931(2) 0.9443(3) 0.1722(10) 0.0048 Uiso
O3_3 O 0.6454(2) 0.6973(3) 0.0683(8) 0.0048 Uiso
C5_3 C 0.6465(3) 0.8191(4) 0.5412(13) 0.0076 Uiso
C6_3 C 0.6596(4) 0.8729(6) 0.4694(15) 0.0101 Uiso
C7_3 C 0.6521(4) 0.7762(5) 0.4114(12) 0.0051 Uiso
C8_3 C 0.6579(4) 0.9136(5) 0.6372(14) 0.0101 Uiso
O4_3 O 0.6402(2) 0.7224(3) 0.4945(10) 0.0048 Uiso
O5_3 O 0.6252(2) 0.8922(3) 0.7959(9) 0.0105 Uiso
O6_3 O 0.6879(2) 0.9694(3) 0.5984(8) 0.0048 Uiso
Cu4_3 Cu 0.70477(5) 0.72010(9) 0.6575(2) 0.0090 Uiso
Cu8_3 Cu 0.61323(5) 0.65134(7) 0.3242(2) 0.0090 Uiso
O12_3 O 0.6148(2) 0.9787(4) 0.2650(8) 0.0048 Uiso
H1_3 H 0.630964 0.807126 0.704701 . .
O2_3 O 0.7081(2) 0.7745(3) 0.8708(9) 0.0105 Uiso
Cu6_3 Cu 0.68200(7) 0.62856(9) 0.9908(2) 0.0090 Uiso
O8_3 O 0.5845(2) 0.9736(4) 0.8389(10) 0.0048 Uiso
H2_3 H 0.702369 0.859541 0.961966 . .
H1_4 H 0.842828 0.702369 0.0380339 . .
C1_4 C 0.8275(3) 0.6465(3) 0.4588(13) 0.0076 Uiso
C2_4 C 0.7868(4) 0.6596(4) 0.5306(15) 0.0101 Uiso
C3_4 C 0.8760(3) 0.6521(4) 0.5886(12) 0.0051 Uiso
C4_4 C 0.7444(3) 0.6579(4) 0.3628(14) 0.0101 Uiso
O2_4 O 0.7331(2) 0.6252(2) 0.2041(9) 0.0105 Uiso
O3_4 O 0.7186(2) 0.6879(2) 0.4016(8) 0.0048 Uiso
C5_4 C 0.8392(3) 0.6868(3) 0.8745(13) 0.0076 Uiso
C6_4 C 0.8799(4) 0.6737(4) 0.8027(15) 0.0101 Uiso
C7_4 C 0.7907(3) 0.6812(4) 0.7447(12) 0.0051 Uiso
C8_4 C 0.9223(3) 0.6754(4) 0.9705(14) 0.0101 Uiso
O4_4 O 0.7488(2) 0.6931(2) 0.8278(10) 0.0048 Uiso
O9_4 O 0.9586(2) 0.5588(3) 0.4625(9) 0.0105 Uiso
H2_4 H 0.823839 0.630964 0.295299 . .
H1_5 H 0.859541 0.157172 0.0380339 . .
C1_5 C 0.8191(4) 0.1725(3) 0.4588(13) 0.0076 Uiso
C2_5 C 0.8729(6) 0.2132(4) 0.5306(15) 0.0101 Uiso
C3_5 C 0.7762(5) 0.1240(3) 0.5886(12) 0.0051 Uiso
C4_5 C 0.9136(5) 0.2556(3) 0.3628(14) 0.0101 Uiso
O2_5 O 0.8922(3) 0.2669(2) 0.2041(9) 0.0105 Uiso
O3_5 O 0.9694(3) 0.2814(2) 0.4016(8) 0.0048 Uiso
C5_5 C 0.8476(4) 0.1608(3) 0.8745(13) 0.0076 Uiso
C6_5 C 0.7938(6) 0.1201(4) 0.8027(15) 0.0101 Uiso
C7_5 C 0.8905(5) 0.2093(3) 0.7447(12) 0.0051 Uiso
C8_5 C 0.7531(5) 0.0777(3) 0.9705(14) 0.0101 Uiso
O4_5 O 0.9443(3) 0.2512(2) 0.8278(10) 0.0048 Uiso
O9_5 O 0.6003(4) 0.0414(2) 0.4625(9) 0.0105 Uiso
H2_5 H 0.807126 0.176161 0.295299 . .
H1_6 H 0.297631 0.140459 0.0380339 . .
C1_6 C 0.3535(3) 0.1809(4) 0.4588(13) 0.0076 Uiso
C2_6 C 0.3404(4) 0.1271(6) 0.5306(15) 0.0101 Uiso
C3_6 C 0.3479(4) 0.2238(5) 0.5886(12) 0.0051 Uiso
C4_6 C 0.3421(4) 0.0864(5) 0.3628(14) 0.0101 Uiso
O2_6 O 0.3748(2) 0.1078(3) 0.2041(9) 0.0105 Uiso
O3_6 O 0.3121(2) 0.0306(3) 0.4016(8) 0.0048 Uiso
C5_6 C 0.3132(3) 0.1524(4) 0.8745(13) 0.0076 Uiso
C6_6 C 0.3263(4) 0.2062(6) 0.8027(15) 0.0101 Uiso
C7_6 C 0.3188(4) 0.1095(5) 0.7447(12) 0.0051 Uiso
C8_6 C 0.3246(4) 0.2469(5) 0.9705(14) 0.0101 Uiso
O4_6 O 0.3069(2) 0.0557(3) 0.8278(10) 0.0048 Uiso
O9_6 O 0.4412(3) 0.3997(4) 0.4625(9) 0.0105 Uiso
H2_6 H 0.369036 0.192874 0.295299 . .
C5_7 C 0.5059(3) 0.0201(3) 0.2078(13) 0.0076 Uiso
C6_7 C 0.5466(4) 0.0070(4) 0.1360(15) 0.0101 Uiso
C7_7 C 0.4574(3) 0.0145(4) 0.0780(12) 0.0051 Uiso
C8_7 C 0.5890(3) 0.0087(4) 0.3038(14) 0.0101 Uiso
O4_7 O 0.4155(2) 0.0264(2) 0.1611(10) 0.0048 Uiso
H1_7 H 0.509495 0.0357022 0.371367 . .
O3_7 O 0.3852(2) 0.0213(2) 0.7350(8) 0.0048 Uiso
C1_7 C 0.4941(3) 0.9799(3) 0.7922(13) 0.0076 Uiso
C2_7 C 0.4534(4) 0.9930(4) 0.8640(15) 0.0101 Uiso
C3_7 C 0.5426(3) 0.9855(4) 0.9220(12) 0.0051 Uiso
C4_7 C 0.4110(3) 0.9913(4) 0.6962(14) 0.0101 Uiso
O2_7 O 0.3997(2) 0.9586(2) 0.5375(9) 0.0105 Uiso
H2_7 H 0.490505 0.964298 0.628633 . .
C5_8 C 0.5143(4) 0.4941(3) 0.2078(13) 0.0076 Uiso
C6_8 C 0.4605(6) 0.4534(4) 0.1360(15) 0.0101 Uiso
C7_8 C 0.5572(5) 0.5426(3) 0.0780(12) 0.0051 Uiso
C8_8 C 0.4198(5) 0.4110(3) 0.3038(14) 0.0101 Uiso
O4_8 O 0.6110(3) 0.5845(2) 0.1611(10) 0.0048 Uiso
H1_8 H 0.526207 0.490505 0.371367 . .
C1_8 C 0.4857(4) 0.5059(3) 0.7922(13) 0.0076 Uiso
C2_8 C 0.5395(6) 0.5466(4) 0.8640(15) 0.0101 Uiso
C3_8 C 0.4428(5) 0.4574(3) 0.9220(12) 0.0051 Uiso
C4_8 C 0.5802(5) 0.5890(3) 0.6962(14) 0.0101 Uiso
O2_8 O 0.5588(3) 0.6003(2) 0.5375(9) 0.0105 Uiso
O3_8 O 0.6360(3) 0.6148(2) 0.7350(8) 0.0048 Uiso
H2_8 H 0.473793 0.509495 0.628633 . .
C1_9 C 0.0201(3) 0.5143(4) 0.7922(13) 0.0076 Uiso
C2_9 C 0.0070(4) 0.4605(6) 0.8640(15) 0.0101 Uiso
C3_9 C 0.0145(4) 0.5572(5) 0.9220(12) 0.0051 Uiso
C4_9 C 0.0087(4) 0.4198(5) 0.6962(14) 0.0101 Uiso
O2_9 O 0.0414(2) 0.4412(3) 0.5375(9) 0.0105 Uiso
H2_9 H 0.0357022 0.526207 0.628633 . .
C5_9 C 0.9799(3) 0.4857(4) 0.2078(13) 0.0076 Uiso
C6_9 C 0.9930(4) 0.5395(6) 0.1360(15) 0.0101 Uiso
C7_9 C 0.9855(4) 0.4428(5) 0.0780(12) 0.0051 Uiso
C8_9 C 0.9913(4) 0.5802(5) 0.3038(14) 0.0101 Uiso
O4_9 O 0.9736(2) 0.3890(3) 0.1611(10) 0.0048 Uiso
H1_9 H 0.964298 0.473793 0.371367 . .
O3_9 O 0.9787(2) 0.3640(3) 0.7350(8) 0.0048 Uiso
loop_
_geom_bond_atom_site_label_1
_geom_bond_atom_site_label_2
_geom_bond_site_symmetry_1
_geom_bond_site_symmetry_2
Cu1 O1 1_555 1_555
C1 C2 1_555 1_555
C2 C4 1_555 1_555
C3 C1 1_555 1_555
O1 C3 1_555 1_555
O3 C4 1_555 1_555
C5 C6 1_555 1_555
C6 C3 1_555 1_555
C7 C2 1_555 1_555
C8 C6 1_555 1_555
O4 C7 1_555 1_555
O5 C8 1_555 1_555
O6 Cu1 1_555 1_555
Cu7 O1 1_555 1_555
Cu4 O4 1_555 1_555
Cu5 O6 1_555 1_555
Cu8 O3 1_555 1_555
O7 Cu1 1_555 1_555
O9 Cu1 1_555 1_555
O12 Cu1 1_555 1_555
C5 C7 1_555 1_555
C8 O6 1_555 1_555
O4 Cu8 1_555 1_555
Cu7 O12 1_555 1_555
Cu5 O7 1_555 1_555
C5 H1 1_555 1_555
O2 Cu4 1_555 1_555
C1_2 C2_2 1_555 1_555
C2_2 C4_2 1_555 1_555
C3_2 C1_2 1_555 1_555
O1_2 C3_2 1_555 1_555
O3_2 C4_2 1_555 1_555
C5_2 C6_2 1_555 1_555
C6_2 C3_2 1_555 1_555
C7_2 C2_2 1_555 1_555
C8_2 C6_2 1_555 1_555
O4_2 C7_2 1_555 1_555
O5_2 C8_2 1_555 1_555
Cu7_2 O1_2 1_555 1_555
Cu4_2 O4_2 1_555 1_555
Cu8_2 O3_2 1_555 1_555
C5_2 C7_2 1_555 1_555
C8_2 O6_2 1_555 1_555
O4_2 Cu8_2 1_555 1_555
Cu7_2 O12_2 1_555 1_555
C5_2 H1_2 1_555 1_555
O2_2 Cu4_2 1_555 1_555
O7_2 Cu1_2 1_555 1_555
O9_2 Cu1_2 1_555 1_555
Cu5_2 O7_2 1_555 1_555
O7_3 Cu1_3 1_555 1_555
O9_3 Cu1_3 1_555 1_555
Cu5_3 O7_3 1_555 1_555
C1_3 C2_3 1_555 1_555
C2_3 C4_3 1_555 1_555
C3_3 C1_3 1_555 1_555
O1_3 C3_3 1_555 1_555
O3_3 C4_3 1_555 1_555
C5_3 C6_3 1_555 1_555
C6_3 C3_3 1_555 1_555
C7_3 C2_3 1_555 1_555
C8_3 C6_3 1_555 1_555
O4_3 C7_3 1_555 1_555
O5_3 C8_3 1_555 1_555
Cu7_3 O1_3 1_555 1_555
Cu4_3 O4_3 1_555 1_555
Cu8_3 O3_3 1_555 1_555
C5_3 C7_3 1_555 1_555
C8_3 O6_3 1_555 1_555
O4_3 Cu8_3 1_555 1_555
Cu7_3 O12_3 1_555 1_555
C5_3 H1_3 1_555 1_555
O2_3 Cu4_3 1_555 1_555
C1_4 C2_4 1_555 1_555
C2_4 C4_4 1_555 1_555
C3_4 C1_4 1_555 1_555
C4_4 O2_4 1_555 1_555
O7_2 C3_4 1_555 1_555
O3_4 C4_4 1_555 1_555
C5_4 C6_4 1_555 1_555
C6_4 C3_4 1_555 1_555
C7_4 C2_4 1_555 1_555
C8_4 C6_4 1_555 1_555
O4_4 C7_4 1_555 1_555
O11_2 Cu5_2 1_555 1_555
Cu6_3 O4_4 1_555 1_555
Cu8_3 O3_4 1_555 1_555
Cu4_3 O3_4 1_555 1_555
O9_4 Cu5_2 1_555 1_555
C5_4 C7_4 1_555 1_555
C8_4 O11_2 1_555 1_555
O4_4 Cu4_3 1_555 1_555
C1_4 H2_4 1_555 1_555
C1_5 C2_5 1_555 1_555
C2_5 C4_5 1_555 1_555
C3_5 C1_5 1_555 1_555
C4_5 O2_5 1_555 1_555
O7_3 C3_5 1_555 1_555
O3_5 C4_5 1_555 1_555
C5_5 C6_5 1_555 1_555
C6_5 C3_5 1_555 1_555
C7_5 C2_5 1_555 1_555
C8_5 C6_5 1_555 1_555
O4_5 C7_5 1_555 1_555
O11_3 Cu5_3 1_555 1_555
Cu6 O4_5 1_555 1_555
O9_5 Cu5_3 1_555 1_555
C5_5 C7_5 1_555 1_555
C8_5 O11_3 1_555 1_555
C1_5 H2_5 1_555 1_555
C1_6 C2_6 1_555 1_555
C2_6 C4_6 1_555 1_555
C3_6 C1_6 1_555 1_555
C4_6 O2_6 1_555 1_555
O7 C3_6 1_555 1_555
O3_6 C4_6 1_555 1_555
C5_6 C6_6 1_555 1_555
C6_6 C3_6 1_555 1_555
C7_6 C2_6 1_555 1_555
C8_6 C6_6 1_555 1_555
O4_6 C7_6 1_555 1_555
O11 Cu5 1_555 1_555
Cu6_2 O4_6 1_555 1_555
O8 Cu5 1_555 1_555
O9_6 Cu5 1_555 1_555
C5_6 C7_6 1_555 1_555
C8_6 O11 1_555 1_555
C1_6 H2_6 1_555 1_555
C5_7 C6_7 1_555 1_555
C8_7 C6_7 1_555 1_555
O4_7 C7_7 1_555 1_555
O9_5 C8_7 1_555 1_555
C5_7 C7_7 1_555 1_555
C5_7 H1_7 1_555 1_555
Cu6_2 O3_7 1_555 1_555
C1_7 C2_7 1_555 1_555
C2_7 C4_7 1_555 1_555
C3_7 C1_7 1_555 1_555
C4_7 O2_7 1_555 1_555
O8_3 C3_7 1_555 1_555
O2_7 Cu8_2 1_555 1_555
C1_7 H2_7 1_555 1_555
C5_8 C6_8 1_555 1_555
C8_8 C6_8 1_555 1_555
O4_8 C7_8 1_555 1_555
O9_6 C8_8 1_555 1_555
Cu8_3 O4_8 1_555 1_555
C5_8 C7_8 1_555 1_555
C8_8 O12 1_555 1_555
C5_8 H1_8 1_555 1_555
C1_8 C2_8 1_555 1_555
C2_8 C4_8 1_555 1_555
C3_8 C1_8 1_555 1_555
C4_8 O2_8 1_555 1_555
O8 C3_8 1_555 1_555
O2_8 Cu8_3 1_555 1_555
O3_8 C4_8 1_555 1_555
Cu4_3 O3_8 1_555 1_555
Cu6_3 O3_8 1_555 1_555
C1_8 H2_8 1_555 1_555
C1_9 C2_9 1_555 1_555
C2_9 C4_9 1_555 1_555
C3_9 C1_9 1_555 1_555
C4_9 O2_9 1_555 1_555
O8_2 C3_9 1_555 1_555
O2_9 Cu8 1_555 1_555
C1_9 H2_9 1_555 1_555
C5_9 C6_9 1_555 1_555
C8_9 C6_9 1_555 1_555
O4_9 C7_9 1_555 1_555
O9_4 C8_9 1_555 1_555
C5_9 C7_9 1_555 1_555
C5_9 H1_9 1_555 1_555
Cu6 O3_9 1_555 1_555

#END
