
###############################################################################
#
# This file contains modified crystal structure data generated from the
# MOF subset of the Cambridge Structural Database (CSD) v543 
# hosted by the Cambridge Crystallographic Data Centre (CCDC).
#
# This work is licensed under the Creative Commons
# Attribution-NonCommercial-ShareAlike 4.0 International License.
# To view a copy of this license, visit
# http://creativecommons.org/licenses/by-nc-sa/4.0/
# or send a letter to
# Creative Commons, PO Box 1866, Mountain View, CA 94042, USA.
#
# CIF created using the CSD Python API on 29 September 2022
# The structure has been converted into the P1 space group
# The structure has a 3D framework
# The original CSD entry MOKYAP85 is in the rhombohedral crystal system
# The framework has been calculated to contain at least 10.0% void space
# The void calculation uses a probe of radius 1.32A, grid spacing 0.4
# H atom positions have been added when not included in the experimental data
#
###############################################################################

data_MOKYAP85
_chemical_formula_moiety         '(C72 H18 Cu7 O44)n'
_symmetry_cell_setting           triclinic
_symmetry_space_group_name_H-M   'P 1'
_symmetry_Int_Tables_number      1
_space_group_name_Hall           'P 1'
loop_
_symmetry_equiv_pos_site_id
_symmetry_equiv_pos_as_xyz
1 x,y,z
_cell_length_a                   25.9144(3)
_cell_length_b                   25.9144(3)
_cell_length_c                   6.27599(6)
_cell_angle_alpha                90
_cell_angle_beta                 90
_cell_angle_gamma                120
_cell_volume                     3650.02
loop_
_atom_site_label
_atom_site_type_symbol
_atom_site_fract_x
_atom_site_fract_y
_atom_site_fract_z
Cu7 Cu 0.31800(7) 0.37124(5) 0.0091(2)
Cu1 Cu 0.29543(5) 0.28010(5) 0.3424(2)
C1 C 0.1610(3) 0.3126(3) 0.1251(13)
C2 C 0.1200(4) 0.3272(4) 0.1990(15)
C3 C 0.2092(4) 0.3189(4) 0.2545(12)
C4 C 0.0768(3) 0.3230(4) 0.0325(13)
O1 O 0.2517(2) 0.3073(2) 0.1713(9)
O3 O 0.0520(2) 0.3546(2) 0.0661(8)
C5 C 0.1723(3) 0.3541(3) 0.5416(13)
C6 C 0.2133(4) 0.3395(4) 0.4677(15)
C7 C 0.1241(4) 0.3478(4) 0.4122(12)
C8 C 0.2565(3) 0.3437(4) 0.6342(13)
O4 O 0.0816(2) 0.3594(2) 0.4954(9)
O5 O 0.2671(2) 0.3746(2) 0.7966(10)
O6 O 0.2813(2) 0.3121(2) 0.6006(8)
Cu4 Cu 0.01533(7) 0.29543(5) 0.6576(2)
Cu5 Cu 0.38657(5) 0.34866(7) 0.6757(2)
Cu8 Cu 0.03790(5) 0.38657(5) 0.3243(2)
O7 O 0.3594(2) 0.2777(3) 0.5046(9)
O9 O 0.2921(2) 0.2259(3) 0.1299(10)
O12 O 0.3641(3) 0.3853(2) 0.2672(8)
H2 H 0.176703 0.370924 0.703413
O2 O 0.0662(2) 0.2921(2) 0.8701(10)
O8 O 0.3889(3) 0.4150(2) 0.8380(9)
O11 O 0.3546(2) 0.3026(3) 0.9339(8)
H1 H 0.15663 0.295743 0.963254
Cu6 Cu 0.94677(5) 0.31800(7) 0.9909(2)
Cu6_2 Cu 0.37124(9) 0.05323(5) 0.9909(2)
Cu7_2 Cu 0.05323(9) 0.68200(7) 0.0091(2)
C1_2 C 0.1516(4) 0.8390(3) 0.1251(13)
C2_2 C 0.2072(6) 0.8800(4) 0.1990(15)
C3_2 C 0.1097(6) 0.7908(4) 0.2545(12)
C4_2 C 0.2462(5) 0.9232(3) 0.0325(13)
O1_2 O 0.0556(3) 0.7483(2) 0.1713(9)
O3_2 O 0.3026(3) 0.9480(2) 0.0661(8)
C5_2 C 0.1817(4) 0.8277(3) 0.5416(13)
C6_2 C 0.1261(6) 0.7867(4) 0.4677(15)
C7_2 C 0.2236(6) 0.8759(4) 0.4122(12)
C8_2 C 0.0871(5) 0.7435(3) 0.6342(13)
O4_2 O 0.2777(3) 0.9184(2) 0.4954(9)
O5_2 O 0.1074(3) 0.7329(2) 0.7966(10)
O6_2 O 0.0307(3) 0.7187(2) 0.6006(8)
Cu4_2 Cu 0.28010(9) 0.98467(7) 0.6576(2)
Cu8_2 Cu 0.34866(7) 0.96210(5) 0.3243(2)
O12_2 O 0.0213(4) 0.6359(3) 0.2672(8)
H2_2 H 0.19422 0.823297 0.703413
O2_2 O 0.2259(3) 0.9338(2) 0.8701(10)
O8_2 O 0.0260(4) 0.6111(3) 0.8380(9)
H1_2 H 0.139113 0.84337 0.963254
Cu1_2 Cu 0.98467(7) 0.70457(5) 0.3424(2)
Cu5_2 Cu 0.96210(9) 0.61343(5) 0.6757(2)
O7_2 O 0.9184(4) 0.6406(2) 0.5046(9)
O9_2 O 0.9338(4) 0.7079(2) 0.1299(10)
O11_2 O 0.9480(4) 0.6454(2) 0.9339(8)
Cu1_3 Cu 0.71990(5) 0.01533(7) 0.3424(2)
Cu5_3 Cu 0.65134(7) 0.03790(9) 0.6757(2)
O7_3 O 0.7223(3) 0.0816(4) 0.5046(9)
O9_3 O 0.7741(3) 0.0662(4) 0.1299(10)
O11_3 O 0.6974(3) 0.0520(4) 0.9339(8)
Cu7_3 Cu 0.62876(5) 0.94677(9) 0.0091(2)
C1_3 C 0.6874(3) 0.8484(4) 0.1251(13)
C2_3 C 0.6728(4) 0.7928(6) 0.1990(15)
C3_3 C 0.6811(4) 0.8903(6) 0.2545(12)
C4_3 C 0.6770(4) 0.7538(5) 0.0325(13)
O1_3 O 0.6927(2) 0.9444(3) 0.1713(9)
O3_3 O 0.6454(2) 0.6974(3) 0.0661(8)
C5_3 C 0.6459(3) 0.8183(4) 0.5416(13)
C6_3 C 0.6605(4) 0.8739(6) 0.4677(15)
C7_3 C 0.6522(4) 0.7764(6) 0.4122(12)
C8_3 C 0.6563(4) 0.9129(5) 0.6342(13)
O4_3 O 0.6406(2) 0.7223(3) 0.4954(9)
O5_3 O 0.6254(2) 0.8926(3) 0.7966(10)
O6_3 O 0.6879(2) 0.9693(3) 0.6006(8)
Cu4_3 Cu 0.70457(5) 0.71990(9) 0.6576(2)
Cu8_3 Cu 0.61343(5) 0.65134(7) 0.3243(2)
O12_3 O 0.6147(2) 0.9787(4) 0.2672(8)
H2_3 H 0.629076 0.80578 0.703413
O2_3 O 0.7079(2) 0.7741(3) 0.8701(10)
Cu6_3 Cu 0.68200(7) 0.62876(9) 0.9909(2)
O8_3 O 0.5850(2) 0.9740(4) 0.8380(9)
H1_3 H 0.704257 0.860887 0.963254
H2_4 H 0.84337 0.704257 0.0367462
C1_4 C 0.8277(3) 0.6459(3) 0.4584(13)
C2_4 C 0.7867(4) 0.6605(4) 0.5323(15)
C3_4 C 0.8759(4) 0.6522(4) 0.5878(12)
C4_4 C 0.7435(3) 0.6563(4) 0.3658(13)
O2_4 O 0.7329(2) 0.6254(2) 0.2034(10)
O3_4 O 0.7187(2) 0.6879(2) 0.3994(8)
C5_4 C 0.8390(3) 0.6874(3) 0.8749(13)
C6_4 C 0.8800(4) 0.6728(4) 0.8010(15)
C7_4 C 0.7908(4) 0.6811(4) 0.7455(12)
C8_4 C 0.9232(3) 0.6770(4) 0.9675(13)
O4_4 O 0.7483(2) 0.6927(2) 0.8287(9)
O9_4 O 0.9588(2) 0.5592(3) 0.4632(10)
H1_4 H 0.823297 0.629076 0.296587
H2_5 H 0.860887 0.15663 0.0367462
C1_5 C 0.8183(4) 0.1723(3) 0.4584(13)
C2_5 C 0.8739(6) 0.2133(4) 0.5323(15)
C3_5 C 0.7764(6) 0.1241(4) 0.5878(12)
C4_5 C 0.9129(5) 0.2565(3) 0.3658(13)
O2_5 O 0.8926(3) 0.2671(2) 0.2034(10)
O3_5 O 0.9693(3) 0.2813(2) 0.3994(8)
C5_5 C 0.8484(4) 0.1610(3) 0.8749(13)
C6_5 C 0.7928(6) 0.1200(4) 0.8010(15)
C7_5 C 0.8903(6) 0.2092(4) 0.7455(12)
C8_5 C 0.7538(5) 0.0768(3) 0.9675(13)
O4_5 O 0.9444(3) 0.2517(2) 0.8287(9)
O9_5 O 0.6005(4) 0.0412(2) 0.4632(10)
H1_5 H 0.80578 0.176703 0.296587
H2_6 H 0.295743 0.139113 0.0367462
C1_6 C 0.3541(3) 0.1817(4) 0.4584(13)
C2_6 C 0.3395(4) 0.1261(6) 0.5323(15)
C3_6 C 0.3478(4) 0.2236(6) 0.5878(12)
C4_6 C 0.3437(4) 0.0871(5) 0.3658(13)
O2_6 O 0.3746(2) 0.1074(3) 0.2034(10)
O3_6 O 0.3121(2) 0.0307(3) 0.3994(8)
C5_6 C 0.3126(3) 0.1516(4) 0.8749(13)
C6_6 C 0.3272(4) 0.2072(6) 0.8010(15)
C7_6 C 0.3189(4) 0.1097(6) 0.7455(12)
C8_6 C 0.3230(4) 0.2462(5) 0.9675(13)
O4_6 O 0.3073(2) 0.0556(3) 0.8287(9)
O9_6 O 0.4408(3) 0.3995(4) 0.4632(10)
H1_6 H 0.370924 0.19422 0.296587
C5_7 C 0.5057(3) 0.0207(3) 0.2082(13)
C6_7 C 0.5467(4) 0.0061(4) 0.1343(15)
C7_7 C 0.4575(4) 0.0144(4) 0.0788(12)
C8_7 C 0.5899(3) 0.0103(4) 0.3008(13)
O4_7 O 0.4150(2) 0.0260(2) 0.1620(9)
H2_7 H 0.510037 0.0375904 0.37008
O3_7 O 0.3853(2) 0.0213(2) 0.7328(8)
C1_7 C 0.4943(3) 0.9793(3) 0.7918(13)
C2_7 C 0.4533(4) 0.9939(4) 0.8657(15)
C3_7 C 0.5425(4) 0.9856(4) 0.9212(12)
C4_7 C 0.4101(3) 0.9897(4) 0.6992(13)
O2_7 O 0.3995(2) 0.9588(2) 0.5368(10)
H1_7 H 0.489963 0.96241 0.62992
C5_8 C 0.5151(4) 0.4943(3) 0.2082(13)
C6_8 C 0.4595(6) 0.4533(4) 0.1343(15)
C7_8 C 0.5570(6) 0.5425(4) 0.0788(12)
C8_8 C 0.4205(5) 0.4101(3) 0.3008(13)
O4_8 O 0.6111(3) 0.5850(2) 0.1620(9)
H2_8 H 0.527554 0.489963 0.37008
C1_8 C 0.4849(4) 0.5057(3) 0.7918(13)
C2_8 C 0.5405(6) 0.5467(4) 0.8657(15)
C3_8 C 0.4430(6) 0.4575(4) 0.9212(12)
C4_8 C 0.5795(5) 0.5899(3) 0.6992(13)
O2_8 O 0.5592(3) 0.6005(2) 0.5368(10)
O3_8 O 0.6359(3) 0.6147(2) 0.7328(8)
H1_8 H 0.472446 0.510037 0.62992
C1_9 C 0.0207(3) 0.5151(4) 0.7918(13)
C2_9 C 0.0061(4) 0.4595(6) 0.8657(15)
C3_9 C 0.0144(4) 0.5570(6) 0.9212(12)
C4_9 C 0.0103(4) 0.4205(5) 0.6992(13)
O2_9 O 0.0412(2) 0.4408(3) 0.5368(10)
H1_9 H 0.0375904 0.527554 0.62992
C5_9 C 0.9793(3) 0.4849(4) 0.2082(13)
C6_9 C 0.9939(4) 0.5405(6) 0.1343(15)
C7_9 C 0.9856(4) 0.4430(6) 0.0788(12)
C8_9 C 0.9897(4) 0.5795(5) 0.3008(13)
O4_9 O 0.9740(2) 0.3889(3) 0.1620(9)
H2_9 H 0.96241 0.472446 0.37008
O3_9 O 0.9787(2) 0.3641(3) 0.7328(8)
loop_
_geom_bond_atom_site_label_1
_geom_bond_atom_site_label_2
_geom_bond_site_symmetry_1
_geom_bond_site_symmetry_2
Cu1 O1 1_555 1_555
C1 C2 1_555 1_555
C2 C4 1_555 1_555
C3 C1 1_555 1_555
O1 C3 1_555 1_555
O3 C4 1_555 1_555
C5 C6 1_555 1_555
C6 C3 1_555 1_555
C7 C2 1_555 1_555
C8 C6 1_555 1_555
O4 C7 1_555 1_555
O5 C8 1_555 1_555
O6 Cu1 1_555 1_555
Cu7 O1 1_555 1_555
Cu4 O4 1_555 1_555
Cu5 O6 1_555 1_555
Cu8 O3 1_555 1_555
O7 Cu1 1_555 1_555
O9 Cu1 1_555 1_555
O12 Cu1 1_555 1_555
C5 C7 1_555 1_555
C8 O6 1_555 1_555
O4 Cu8 1_555 1_555
Cu7 O12 1_555 1_555
Cu5 O7 1_555 1_555
C5 H2 1_555 1_555
O2 Cu4 1_555 1_555
C1_2 C2_2 1_555 1_555
C2_2 C4_2 1_555 1_555
C3_2 C1_2 1_555 1_555
O1_2 C3_2 1_555 1_555
O3_2 C4_2 1_555 1_555
C5_2 C6_2 1_555 1_555
C6_2 C3_2 1_555 1_555
C7_2 C2_2 1_555 1_555
C8_2 C6_2 1_555 1_555
O4_2 C7_2 1_555 1_555
O5_2 C8_2 1_555 1_555
Cu7_2 O1_2 1_555 1_555
Cu4_2 O4_2 1_555 1_555
Cu8_2 O3_2 1_555 1_555
C5_2 C7_2 1_555 1_555
C8_2 O6_2 1_555 1_555
O4_2 Cu8_2 1_555 1_555
Cu7_2 O12_2 1_555 1_555
C5_2 H2_2 1_555 1_555
O2_2 Cu4_2 1_555 1_555
O7_2 Cu1_2 1_555 1_555
O9_2 Cu1_2 1_555 1_555
Cu5_2 O7_2 1_555 1_555
O7_3 Cu1_3 1_555 1_555
O9_3 Cu1_3 1_555 1_555
Cu5_3 O7_3 1_555 1_555
C1_3 C2_3 1_555 1_555
C2_3 C4_3 1_555 1_555
C3_3 C1_3 1_555 1_555
O1_3 C3_3 1_555 1_555
O3_3 C4_3 1_555 1_555
C5_3 C6_3 1_555 1_555
C6_3 C3_3 1_555 1_555
C7_3 C2_3 1_555 1_555
C8_3 C6_3 1_555 1_555
O4_3 C7_3 1_555 1_555
O5_3 C8_3 1_555 1_555
Cu7_3 O1_3 1_555 1_555
Cu4_3 O4_3 1_555 1_555
Cu8_3 O3_3 1_555 1_555
C5_3 C7_3 1_555 1_555
C8_3 O6_3 1_555 1_555
O4_3 Cu8_3 1_555 1_555
Cu7_3 O12_3 1_555 1_555
C5_3 H2_3 1_555 1_555
O2_3 Cu4_3 1_555 1_555
C1_4 C2_4 1_555 1_555
C2_4 C4_4 1_555 1_555
C3_4 C1_4 1_555 1_555
C4_4 O2_4 1_555 1_555
O7_2 C3_4 1_555 1_555
O3_4 C4_4 1_555 1_555
C5_4 C6_4 1_555 1_555
C6_4 C3_4 1_555 1_555
C7_4 C2_4 1_555 1_555
C8_4 C6_4 1_555 1_555
O4_4 C7_4 1_555 1_555
O11_2 Cu5_2 1_555 1_555
Cu6_3 O4_4 1_555 1_555
Cu8_3 O3_4 1_555 1_555
Cu4_3 O3_4 1_555 1_555
O9_4 Cu5_2 1_555 1_555
C5_4 C7_4 1_555 1_555
C8_4 O11_2 1_555 1_555
O4_4 Cu4_3 1_555 1_555
C1_4 H1_4 1_555 1_555
C1_5 C2_5 1_555 1_555
C2_5 C4_5 1_555 1_555
C3_5 C1_5 1_555 1_555
C4_5 O2_5 1_555 1_555
O7_3 C3_5 1_555 1_555
O3_5 C4_5 1_555 1_555
C5_5 C6_5 1_555 1_555
C6_5 C3_5 1_555 1_555
C7_5 C2_5 1_555 1_555
C8_5 C6_5 1_555 1_555
O4_5 C7_5 1_555 1_555
O11_3 Cu5_3 1_555 1_555
Cu6 O4_5 1_555 1_555
O9_5 Cu5_3 1_555 1_555
C5_5 C7_5 1_555 1_555
C8_5 O11_3 1_555 1_555
C1_5 H1_5 1_555 1_555
C1_6 C2_6 1_555 1_555
C2_6 C4_6 1_555 1_555
C3_6 C1_6 1_555 1_555
C4_6 O2_6 1_555 1_555
O7 C3_6 1_555 1_555
O3_6 C4_6 1_555 1_555
C5_6 C6_6 1_555 1_555
C6_6 C3_6 1_555 1_555
C7_6 C2_6 1_555 1_555
C8_6 C6_6 1_555 1_555
O4_6 C7_6 1_555 1_555
O11 Cu5 1_555 1_555
Cu6_2 O4_6 1_555 1_555
O8 Cu5 1_555 1_555
O9_6 Cu5 1_555 1_555
C5_6 C7_6 1_555 1_555
C8_6 O11 1_555 1_555
C1_6 H1_6 1_555 1_555
C5_7 C6_7 1_555 1_555
C8_7 C6_7 1_555 1_555
O4_7 C7_7 1_555 1_555
O9_5 C8_7 1_555 1_555
C5_7 C7_7 1_555 1_555
C5_7 H2_7 1_555 1_555
Cu6_2 O3_7 1_555 1_555
C1_7 C2_7 1_555 1_555
C2_7 C4_7 1_555 1_555
C3_7 C1_7 1_555 1_555
C4_7 O2_7 1_555 1_555
O8_3 C3_7 1_555 1_555
O2_7 Cu8_2 1_555 1_555
C1_7 H1_7 1_555 1_555
C5_8 C6_8 1_555 1_555
C8_8 C6_8 1_555 1_555
O4_8 C7_8 1_555 1_555
O9_6 C8_8 1_555 1_555
Cu8_3 O4_8 1_555 1_555
C5_8 C7_8 1_555 1_555
C8_8 O12 1_555 1_555
C5_8 H2_8 1_555 1_555
C1_8 C2_8 1_555 1_555
C2_8 C4_8 1_555 1_555
C3_8 C1_8 1_555 1_555
C4_8 O2_8 1_555 1_555
O8 C3_8 1_555 1_555
O2_8 Cu8_3 1_555 1_555
O3_8 C4_8 1_555 1_555
Cu4_3 O3_8 1_555 1_555
Cu6_3 O3_8 1_555 1_555
C1_8 H1_8 1_555 1_555
C1_9 C2_9 1_555 1_555
C2_9 C4_9 1_555 1_555
C3_9 C1_9 1_555 1_555
C4_9 O2_9 1_555 1_555
O8_2 C3_9 1_555 1_555
O2_9 Cu8 1_555 1_555
C1_9 H1_9 1_555 1_555
C5_9 C6_9 1_555 1_555
C8_9 C6_9 1_555 1_555
O4_9 C7_9 1_555 1_555
O9_4 C8_9 1_555 1_555
C5_9 C7_9 1_555 1_555
C5_9 H2_9 1_555 1_555
Cu6 O3_9 1_555 1_555

#END
