
###############################################################################
#
# This file contains modified crystal structure data generated from the
# MOF subset of the Cambridge Structural Database (CSD) v543 
# hosted by the Cambridge Crystallographic Data Centre (CCDC).
#
# This work is licensed under the Creative Commons
# Attribution-NonCommercial-ShareAlike 4.0 International License.
# To view a copy of this license, visit
# http://creativecommons.org/licenses/by-nc-sa/4.0/
# or send a letter to
# Creative Commons, PO Box 1866, Mountain View, CA 94042, USA.
#
# CIF created using the CSD Python API on 29 September 2022
# The structure has been converted into the P1 space group
# The structure has a 3D framework
# The original CSD entry MOKYAP54 is in the rhombohedral crystal system
# The framework has been calculated to contain at least 10.0% void space
# The void calculation uses a probe of radius 1.32A, grid spacing 0.4
# H atom positions have been added when not included in the experimental data
#
###############################################################################

data_MOKYAP54
_chemical_formula_moiety         '(C72 H18 Cu7 O44)n'
_symmetry_cell_setting           triclinic
_symmetry_space_group_name_H-M   'P 1'
_symmetry_Int_Tables_number      1
_space_group_name_Hall           'P 1'
loop_
_symmetry_equiv_pos_site_id
_symmetry_equiv_pos_as_xyz
1 x,y,z
_cell_length_a                   25.9157(3)
_cell_length_b                   25.9157(3)
_cell_length_c                   6.27423(6)
_cell_angle_alpha                90
_cell_angle_beta                 90
_cell_angle_gamma                120
_cell_volume                     3649.36
loop_
_atom_site_label
_atom_site_type_symbol
_atom_site_fract_x
_atom_site_fract_y
_atom_site_fract_z
_atom_site_U_iso_or_equiv
_atom_site_thermal_displace_type
Cu7 Cu 0.31802(7) 0.37134(5) 0.0091(2) 0.0103 Uiso
Cu1 Cu 0.29533(5) 0.28002(5) 0.3424(2) 0.0103 Uiso
C1 C 0.1610(3) 0.3127(3) 0.1243(13) 0.0063 Uiso
C2 C 0.1202(4) 0.3268(4) 0.1976(15) 0.0139 Uiso
C3 C 0.2093(3) 0.3191(4) 0.2560(12) 0.0051 Uiso
C4 C 0.0770(3) 0.3237(4) 0.0314(13) 0.0089 Uiso
O1 O 0.2516(2) 0.3074(2) 0.1697(9) 0.0053 Uiso
O3 O 0.0520(2) 0.35469(19) 0.0676(8) 0.0049 Uiso
C5 C 0.1723(3) 0.3540(3) 0.5424(13) 0.0063 Uiso
C6 C 0.2131(4) 0.3399(4) 0.4691(15) 0.0139 Uiso
C7 C 0.1240(3) 0.3476(4) 0.4107(12) 0.0051 Uiso
C8 C 0.2563(3) 0.3430(4) 0.6353(13) 0.0089 Uiso
O4 O 0.0817(2) 0.3593(2) 0.4970(9) 0.0053 Uiso
O5 O 0.2667(2) 0.3748(2) 0.7969(9) 0.0119 Uiso
O6 O 0.2813(2) 0.31198(19) 0.5991(8) 0.0049 Uiso
Cu4 Cu 0.01531(7) 0.29533(5) 0.6576(2) 0.0103 Uiso
Cu5 Cu 0.38665(5) 0.34864(7) 0.6757(2) 0.0103 Uiso
Cu8 Cu 0.03800(5) 0.38665(5) 0.3243(2) 0.0103 Uiso
O7 O 0.3593(2) 0.2775(3) 0.5030(9) 0.0053 Uiso
O9 O 0.2919(2) 0.2253(3) 0.1302(9) 0.0119 Uiso
O12 O 0.36398(28) 0.3853(2) 0.2657(8) 0.0049 Uiso
H1 H 0.176319 0.370493 0.704596 . .
O2 O 0.0666(2) 0.2919(2) 0.8698(9) 0.0119 Uiso
O8 O 0.3891(3) 0.4151(2) 0.8364(9) 0.0053 Uiso
O11 O 0.35469(19) 0.30269(28) 0.9324(8) 0.0049 Uiso
H2 H 0.157014 0.296173 0.96207 . .
Cu6 Cu 0.94669(5) 0.31802(7) 0.9909(2) 0.0103 Uiso
Cu6_2 Cu 0.37134(9) 0.05331(5) 0.9909(2) 0.0103 Uiso
Cu7_2 Cu 0.05331(9) 0.68198(7) 0.0091(2) 0.0103 Uiso
C1_2 C 0.1517(4) 0.8390(3) 0.1243(13) 0.0063 Uiso
C2_2 C 0.2066(6) 0.8798(4) 0.1976(15) 0.0139 Uiso
C3_2 C 0.1098(5) 0.7907(3) 0.2560(12) 0.0051 Uiso
C4_2 C 0.2467(5) 0.9230(3) 0.0314(13) 0.0089 Uiso
O1_2 O 0.0558(3) 0.7484(2) 0.1697(9) 0.0053 Uiso
O3_2 O 0.30269(28) 0.9480(2) 0.0676(8) 0.0049 Uiso
C5_2 C 0.1816(4) 0.8277(3) 0.5424(13) 0.0063 Uiso
C6_2 C 0.1267(6) 0.7869(4) 0.4691(15) 0.0139 Uiso
C7_2 C 0.2235(5) 0.8760(3) 0.4107(12) 0.0051 Uiso
C8_2 C 0.0866(5) 0.7437(3) 0.6353(13) 0.0089 Uiso
O4_2 O 0.2775(3) 0.9183(2) 0.4970(9) 0.0053 Uiso
O5_2 O 0.1080(3) 0.7333(2) 0.7969(9) 0.0119 Uiso
O6_2 O 0.03064(28) 0.7187(2) 0.5991(8) 0.0049 Uiso
Cu4_2 Cu 0.28002(9) 0.98469(7) 0.6576(2) 0.0103 Uiso
Cu8_2 Cu 0.34864(7) 0.96200(5) 0.3243(2) 0.0103 Uiso
O12_2 O 0.02136(34) 0.63602(28) 0.2657(8) 0.0049 Uiso
H1_2 H 0.194174 0.823681 0.704596 . .
O2_2 O 0.2253(3) 0.9334(2) 0.8698(9) 0.0119 Uiso
O8_2 O 0.0259(4) 0.6109(3) 0.8364(9) 0.0053 Uiso
H2_2 H 0.139159 0.842986 0.96207 . .
Cu1_2 Cu 0.98469(7) 0.70467(5) 0.3424(2) 0.0103 Uiso
Cu5_2 Cu 0.96200(9) 0.61335(5) 0.6757(2) 0.0103 Uiso
O7_2 O 0.9183(4) 0.6407(2) 0.5030(9) 0.0053 Uiso
O9_2 O 0.9334(4) 0.7081(2) 0.1302(9) 0.0119 Uiso
O11_2 O 0.94800(34) 0.64531(19) 0.9324(8) 0.0049 Uiso
Cu1_3 Cu 0.71998(5) 0.01531(7) 0.3424(2) 0.0103 Uiso
Cu5_3 Cu 0.65136(7) 0.03800(9) 0.6757(2) 0.0103 Uiso
O7_3 O 0.7225(3) 0.0817(4) 0.5030(9) 0.0053 Uiso
O9_3 O 0.7747(3) 0.0666(4) 0.1302(9) 0.0119 Uiso
O11_3 O 0.69731(28) 0.05200(34) 0.9324(8) 0.0049 Uiso
Cu7_3 Cu 0.62866(5) 0.94669(9) 0.0091(2) 0.0103 Uiso
C1_3 C 0.6873(3) 0.8483(4) 0.1243(13) 0.0063 Uiso
C2_3 C 0.6732(4) 0.7934(6) 0.1976(15) 0.0139 Uiso
C3_3 C 0.6809(4) 0.8902(5) 0.2560(12) 0.0051 Uiso
C4_3 C 0.6763(4) 0.7533(5) 0.0314(13) 0.0089 Uiso
O1_3 O 0.6926(2) 0.9442(3) 0.1697(9) 0.0053 Uiso
O3_3 O 0.64531(19) 0.69731(28) 0.0676(8) 0.0049 Uiso
C5_3 C 0.6460(3) 0.8184(4) 0.5424(13) 0.0063 Uiso
C6_3 C 0.6601(4) 0.8733(6) 0.4691(15) 0.0139 Uiso
C7_3 C 0.6524(4) 0.7765(5) 0.4107(12) 0.0051 Uiso
C8_3 C 0.6570(4) 0.9134(5) 0.6353(13) 0.0089 Uiso
O4_3 O 0.6407(2) 0.7225(3) 0.4970(9) 0.0053 Uiso
O5_3 O 0.6252(2) 0.8920(3) 0.7969(9) 0.0119 Uiso
O6_3 O 0.68802(19) 0.96936(28) 0.5991(8) 0.0049 Uiso
Cu4_3 Cu 0.70467(5) 0.71998(9) 0.6576(2) 0.0103 Uiso
Cu8_3 Cu 0.61335(5) 0.65136(7) 0.3243(2) 0.0103 Uiso
O12_3 O 0.6147(2) 0.97864(34) 0.2657(8) 0.0049 Uiso
H1_3 H 0.629507 0.805826 0.704596 . .
O2_3 O 0.7081(2) 0.7747(3) 0.8698(9) 0.0119 Uiso
Cu6_3 Cu 0.68198(7) 0.62866(9) 0.9909(2) 0.0103 Uiso
O8_3 O 0.5849(2) 0.9741(4) 0.8364(9) 0.0053 Uiso
H2_3 H 0.703827 0.860841 0.96207 . .
H1_4 H 0.842986 0.703827 0.0379297 . .
C1_4 C 0.8277(3) 0.6460(3) 0.4576(13) 0.0063 Uiso
C2_4 C 0.7869(4) 0.6601(4) 0.5309(15) 0.0139 Uiso
C3_4 C 0.8760(3) 0.6524(4) 0.5893(12) 0.0051 Uiso
C4_4 C 0.7437(3) 0.6570(4) 0.3647(13) 0.0089 Uiso
O2_4 O 0.7333(2) 0.6252(2) 0.2031(9) 0.0119 Uiso
O3_4 O 0.7187(2) 0.68802(19) 0.4009(8) 0.0049 Uiso
C5_4 C 0.8390(3) 0.6873(3) 0.8757(13) 0.0063 Uiso
C6_4 C 0.8798(4) 0.6732(4) 0.8024(15) 0.0139 Uiso
C7_4 C 0.7907(3) 0.6809(4) 0.7440(12) 0.0051 Uiso
C8_4 C 0.9230(3) 0.6763(4) 0.9686(13) 0.0089 Uiso
O4_4 O 0.7484(2) 0.6926(2) 0.8303(9) 0.0053 Uiso
O9_4 O 0.9586(2) 0.5586(3) 0.4635(9) 0.0119 Uiso
H2_4 H 0.823681 0.629507 0.295404 . .
H1_5 H 0.860841 0.157014 0.0379297 . .
C1_5 C 0.8184(4) 0.1723(3) 0.4576(13) 0.0063 Uiso
C2_5 C 0.8733(6) 0.2131(4) 0.5309(15) 0.0139 Uiso
C3_5 C 0.7765(5) 0.1240(3) 0.5893(12) 0.0051 Uiso
C4_5 C 0.9134(5) 0.2563(3) 0.3647(13) 0.0089 Uiso
O2_5 O 0.8920(3) 0.2667(2) 0.2031(9) 0.0119 Uiso
O3_5 O 0.96936(28) 0.2813(2) 0.4009(8) 0.0049 Uiso
C5_5 C 0.8483(4) 0.1610(3) 0.8757(13) 0.0063 Uiso
C6_5 C 0.7934(6) 0.1202(4) 0.8024(15) 0.0139 Uiso
C7_5 C 0.8902(5) 0.2093(3) 0.7440(12) 0.0051 Uiso
C8_5 C 0.7533(5) 0.0770(3) 0.9686(13) 0.0089 Uiso
O4_5 O 0.9442(3) 0.2516(2) 0.8303(9) 0.0053 Uiso
O9_5 O 0.6001(4) 0.0414(2) 0.4635(9) 0.0119 Uiso
H2_5 H 0.805826 0.176319 0.295404 . .
H1_6 H 0.296173 0.139159 0.0379297 . .
C1_6 C 0.3540(3) 0.1816(4) 0.4576(13) 0.0063 Uiso
C2_6 C 0.3399(4) 0.1267(6) 0.5309(15) 0.0139 Uiso
C3_6 C 0.3476(4) 0.2235(5) 0.5893(12) 0.0051 Uiso
C4_6 C 0.3430(4) 0.0866(5) 0.3647(13) 0.0089 Uiso
O2_6 O 0.3748(2) 0.1080(3) 0.2031(9) 0.0119 Uiso
O3_6 O 0.31198(19) 0.03064(28) 0.4009(8) 0.0049 Uiso
C5_6 C 0.3127(3) 0.1517(4) 0.8757(13) 0.0063 Uiso
C6_6 C 0.3268(4) 0.2066(6) 0.8024(15) 0.0139 Uiso
C7_6 C 0.3191(4) 0.1098(5) 0.7440(12) 0.0051 Uiso
C8_6 C 0.3237(4) 0.2467(5) 0.9686(13) 0.0089 Uiso
O4_6 O 0.3074(2) 0.0558(3) 0.8303(9) 0.0053 Uiso
O9_6 O 0.4414(3) 0.3999(4) 0.4635(9) 0.0119 Uiso
H2_6 H 0.370493 0.194174 0.295404 . .
C5_7 C 0.5057(3) 0.0206(3) 0.2090(13) 0.0063 Uiso
C6_7 C 0.5465(4) 0.0065(4) 0.1357(15) 0.0139 Uiso
C7_7 C 0.4574(3) 0.0142(4) 0.0773(12) 0.0051 Uiso
C8_7 C 0.5897(3) 0.0096(4) 0.3019(13) 0.0089 Uiso
O4_7 O 0.4151(2) 0.0259(2) 0.1636(9) 0.0053 Uiso
H1_7 H 0.509652 0.0371599 0.371263 . .
O3_7 O 0.3853(2) 0.02136(19) 0.7343(8) 0.0049 Uiso
C1_7 C 0.4943(3) 0.9794(3) 0.7910(13) 0.0063 Uiso
C2_7 C 0.4535(4) 0.9935(4) 0.8643(15) 0.0139 Uiso
C3_7 C 0.5426(3) 0.9858(4) 0.9227(12) 0.0051 Uiso
C4_7 C 0.4103(3) 0.9904(4) 0.6981(13) 0.0089 Uiso
O2_7 O 0.3999(2) 0.9586(2) 0.5365(9) 0.0119 Uiso
H2_7 H 0.490348 0.96284 0.628737 . .
C5_8 C 0.5150(4) 0.4943(3) 0.2090(13) 0.0063 Uiso
C6_8 C 0.4601(6) 0.4535(4) 0.1357(15) 0.0139 Uiso
C7_8 C 0.5569(5) 0.5426(3) 0.0773(12) 0.0051 Uiso
C8_8 C 0.4200(5) 0.4103(3) 0.3019(13) 0.0089 Uiso
O4_8 O 0.6109(3) 0.5849(2) 0.1636(9) 0.0053 Uiso
H1_8 H 0.527508 0.490348 0.371263 . .
C1_8 C 0.4850(4) 0.5057(3) 0.7910(13) 0.0063 Uiso
C2_8 C 0.5399(6) 0.5465(4) 0.8643(15) 0.0139 Uiso
C3_8 C 0.4431(5) 0.4574(3) 0.9227(12) 0.0051 Uiso
C4_8 C 0.5800(5) 0.5897(3) 0.6981(13) 0.0089 Uiso
O2_8 O 0.5586(3) 0.6001(2) 0.5365(9) 0.0119 Uiso
O3_8 O 0.63602(28) 0.6147(2) 0.7343(8) 0.0049 Uiso
H2_8 H 0.472492 0.509652 0.628737 . .
C1_9 C 0.0206(3) 0.5150(4) 0.7910(13) 0.0063 Uiso
C2_9 C 0.0065(4) 0.4601(6) 0.8643(15) 0.0139 Uiso
C3_9 C 0.0142(4) 0.5569(5) 0.9227(12) 0.0051 Uiso
C4_9 C 0.0096(4) 0.4200(5) 0.6981(13) 0.0089 Uiso
O2_9 O 0.0414(2) 0.4414(3) 0.5365(9) 0.0119 Uiso
H2_9 H 0.0371599 0.527508 0.628737 . .
C5_9 C 0.9794(3) 0.4850(4) 0.2090(13) 0.0063 Uiso
C6_9 C 0.9935(4) 0.5399(6) 0.1357(15) 0.0139 Uiso
C7_9 C 0.9858(4) 0.4431(5) 0.0773(12) 0.0051 Uiso
C8_9 C 0.9904(4) 0.5800(5) 0.3019(13) 0.0089 Uiso
O4_9 O 0.9741(2) 0.3891(3) 0.1636(9) 0.0053 Uiso
H1_9 H 0.96284 0.472492 0.371263 . .
O3_9 O 0.97864(19) 0.36398(28) 0.7343(8) 0.0049 Uiso
loop_
_geom_bond_atom_site_label_1
_geom_bond_atom_site_label_2
_geom_bond_site_symmetry_1
_geom_bond_site_symmetry_2
Cu1 O1 1_555 1_555
C1 C2 1_555 1_555
C2 C4 1_555 1_555
C3 C1 1_555 1_555
O1 C3 1_555 1_555
O3 C4 1_555 1_555
C5 C6 1_555 1_555
C6 C3 1_555 1_555
C7 C2 1_555 1_555
C8 C6 1_555 1_555
O4 C7 1_555 1_555
O5 C8 1_555 1_555
O6 Cu1 1_555 1_555
Cu7 O1 1_555 1_555
Cu4 O4 1_555 1_555
Cu5 O6 1_555 1_555
Cu8 O3 1_555 1_555
O7 Cu1 1_555 1_555
O9 Cu1 1_555 1_555
O12 Cu1 1_555 1_555
C5 C7 1_555 1_555
C8 O6 1_555 1_555
O4 Cu8 1_555 1_555
Cu7 O12 1_555 1_555
Cu5 O7 1_555 1_555
C5 H1 1_555 1_555
O2 Cu4 1_555 1_555
C1_2 C2_2 1_555 1_555
C2_2 C4_2 1_555 1_555
C3_2 C1_2 1_555 1_555
O1_2 C3_2 1_555 1_555
O3_2 C4_2 1_555 1_555
C5_2 C6_2 1_555 1_555
C6_2 C3_2 1_555 1_555
C7_2 C2_2 1_555 1_555
C8_2 C6_2 1_555 1_555
O4_2 C7_2 1_555 1_555
O5_2 C8_2 1_555 1_555
Cu7_2 O1_2 1_555 1_555
Cu4_2 O4_2 1_555 1_555
Cu8_2 O3_2 1_555 1_555
C5_2 C7_2 1_555 1_555
C8_2 O6_2 1_555 1_555
O4_2 Cu8_2 1_555 1_555
Cu7_2 O12_2 1_555 1_555
C5_2 H1_2 1_555 1_555
O2_2 Cu4_2 1_555 1_555
O7_2 Cu1_2 1_555 1_555
O9_2 Cu1_2 1_555 1_555
Cu5_2 O7_2 1_555 1_555
O7_3 Cu1_3 1_555 1_555
O9_3 Cu1_3 1_555 1_555
Cu5_3 O7_3 1_555 1_555
C1_3 C2_3 1_555 1_555
C2_3 C4_3 1_555 1_555
C3_3 C1_3 1_555 1_555
O1_3 C3_3 1_555 1_555
O3_3 C4_3 1_555 1_555
C5_3 C6_3 1_555 1_555
C6_3 C3_3 1_555 1_555
C7_3 C2_3 1_555 1_555
C8_3 C6_3 1_555 1_555
O4_3 C7_3 1_555 1_555
O5_3 C8_3 1_555 1_555
Cu7_3 O1_3 1_555 1_555
Cu4_3 O4_3 1_555 1_555
Cu8_3 O3_3 1_555 1_555
C5_3 C7_3 1_555 1_555
C8_3 O6_3 1_555 1_555
O4_3 Cu8_3 1_555 1_555
Cu7_3 O12_3 1_555 1_555
C5_3 H1_3 1_555 1_555
O2_3 Cu4_3 1_555 1_555
C1_4 C2_4 1_555 1_555
C2_4 C4_4 1_555 1_555
C3_4 C1_4 1_555 1_555
C4_4 O2_4 1_555 1_555
O7_2 C3_4 1_555 1_555
O3_4 C4_4 1_555 1_555
C5_4 C6_4 1_555 1_555
C6_4 C3_4 1_555 1_555
C7_4 C2_4 1_555 1_555
C8_4 C6_4 1_555 1_555
O4_4 C7_4 1_555 1_555
O11_2 Cu5_2 1_555 1_555
Cu6_3 O4_4 1_555 1_555
Cu8_3 O3_4 1_555 1_555
Cu4_3 O3_4 1_555 1_555
O9_4 Cu5_2 1_555 1_555
C5_4 C7_4 1_555 1_555
C8_4 O11_2 1_555 1_555
O4_4 Cu4_3 1_555 1_555
C1_4 H2_4 1_555 1_555
C1_5 C2_5 1_555 1_555
C2_5 C4_5 1_555 1_555
C3_5 C1_5 1_555 1_555
C4_5 O2_5 1_555 1_555
O7_3 C3_5 1_555 1_555
O3_5 C4_5 1_555 1_555
C5_5 C6_5 1_555 1_555
C6_5 C3_5 1_555 1_555
C7_5 C2_5 1_555 1_555
C8_5 C6_5 1_555 1_555
O4_5 C7_5 1_555 1_555
O11_3 Cu5_3 1_555 1_555
Cu6 O4_5 1_555 1_555
O9_5 Cu5_3 1_555 1_555
C5_5 C7_5 1_555 1_555
C8_5 O11_3 1_555 1_555
C1_5 H2_5 1_555 1_555
C1_6 C2_6 1_555 1_555
C2_6 C4_6 1_555 1_555
C3_6 C1_6 1_555 1_555
C4_6 O2_6 1_555 1_555
O7 C3_6 1_555 1_555
O3_6 C4_6 1_555 1_555
C5_6 C6_6 1_555 1_555
C6_6 C3_6 1_555 1_555
C7_6 C2_6 1_555 1_555
C8_6 C6_6 1_555 1_555
O4_6 C7_6 1_555 1_555
O11 Cu5 1_555 1_555
Cu6_2 O4_6 1_555 1_555
O8 Cu5 1_555 1_555
O9_6 Cu5 1_555 1_555
C5_6 C7_6 1_555 1_555
C8_6 O11 1_555 1_555
C1_6 H2_6 1_555 1_555
C5_7 C6_7 1_555 1_555
C8_7 C6_7 1_555 1_555
O4_7 C7_7 1_555 1_555
O9_5 C8_7 1_555 1_555
C5_7 C7_7 1_555 1_555
C5_7 H1_7 1_555 1_555
Cu6_2 O3_7 1_555 1_555
C1_7 C2_7 1_555 1_555
C2_7 C4_7 1_555 1_555
C3_7 C1_7 1_555 1_555
C4_7 O2_7 1_555 1_555
O8_3 C3_7 1_555 1_555
O2_7 Cu8_2 1_555 1_555
C1_7 H2_7 1_555 1_555
C5_8 C6_8 1_555 1_555
C8_8 C6_8 1_555 1_555
O4_8 C7_8 1_555 1_555
O9_6 C8_8 1_555 1_555
Cu8_3 O4_8 1_555 1_555
C5_8 C7_8 1_555 1_555
C8_8 O12 1_555 1_555
C5_8 H1_8 1_555 1_555
C1_8 C2_8 1_555 1_555
C2_8 C4_8 1_555 1_555
C3_8 C1_8 1_555 1_555
C4_8 O2_8 1_555 1_555
O8 C3_8 1_555 1_555
O2_8 Cu8_3 1_555 1_555
O3_8 C4_8 1_555 1_555
Cu4_3 O3_8 1_555 1_555
Cu6_3 O3_8 1_555 1_555
C1_8 H2_8 1_555 1_555
C1_9 C2_9 1_555 1_555
C2_9 C4_9 1_555 1_555
C3_9 C1_9 1_555 1_555
C4_9 O2_9 1_555 1_555
O8_2 C3_9 1_555 1_555
O2_9 Cu8 1_555 1_555
C1_9 H2_9 1_555 1_555
C5_9 C6_9 1_555 1_555
C8_9 C6_9 1_555 1_555
O4_9 C7_9 1_555 1_555
O9_4 C8_9 1_555 1_555
C5_9 C7_9 1_555 1_555
C5_9 H1_9 1_555 1_555
Cu6 O3_9 1_555 1_555

#END
