
###############################################################################
#
# This file contains modified crystal structure data generated from the
# MOF subset of the Cambridge Structural Database (CSD) v543 
# hosted by the Cambridge Crystallographic Data Centre (CCDC).
#
# This work is licensed under the Creative Commons
# Attribution-NonCommercial-ShareAlike 4.0 International License.
# To view a copy of this license, visit
# http://creativecommons.org/licenses/by-nc-sa/4.0/
# or send a letter to
# Creative Commons, PO Box 1866, Mountain View, CA 94042, USA.
#
# CIF created using the CSD Python API on 29 September 2022
# The structure has been converted into the P1 space group
# The structure has a 3D framework
# The original CSD entry MOKYAP46 is in the rhombohedral crystal system
# The framework has been calculated to contain at least 10.0% void space
# The void calculation uses a probe of radius 1.32A, grid spacing 0.4
# H atom positions have been added when not included in the experimental data
#
###############################################################################

data_MOKYAP46
_chemical_formula_moiety         '(C72 H18 Cu7 O44)n'
_symmetry_cell_setting           triclinic
_symmetry_space_group_name_H-M   'P 1'
_symmetry_Int_Tables_number      1
_space_group_name_Hall           'P 1'
loop_
_symmetry_equiv_pos_site_id
_symmetry_equiv_pos_as_xyz
1 x,y,z
_cell_length_a                   25.9164(3)
_cell_length_b                   25.9164(3)
_cell_length_c                   6.27373(6)
_cell_angle_alpha                90
_cell_angle_beta                 90
_cell_angle_gamma                120
_cell_volume                     3649.27
loop_
_atom_site_label
_atom_site_type_symbol
_atom_site_fract_x
_atom_site_fract_y
_atom_site_fract_z
_atom_site_U_iso_or_equiv
_atom_site_thermal_displace_type
Cu7 Cu 0.31800(7) 0.37134(5) 0.0092(2) 0.0098 Uiso
Cu1 Cu 0.29533(5) 0.28000(5) 0.3425(2) 0.0098 Uiso
C1 C 0.1609(3) 0.3128(3) 0.1247(13) 0.0056 Uiso
C2 C 0.1202(4) 0.3268(4) 0.1974(15) 0.0139 Uiso
C3 C 0.2092(3) 0.3191(4) 0.2556(12) 0.0051 Uiso
C4 C 0.0774(3) 0.3239(4) 0.0306(14) 0.0101 Uiso
O1 O 0.2516(2) 0.3073(2) 0.1706(9) 0.0049 Uiso
O3 O 0.0520(2) 0.3546(2) 0.0678(8) 0.0049 Uiso
C5 C 0.1724(3) 0.3539(3) 0.5420(13) 0.0056 Uiso
C6 C 0.2131(4) 0.3399(4) 0.4693(15) 0.0139 Uiso
C7 C 0.1241(3) 0.3476(4) 0.4111(12) 0.0051 Uiso
C8 C 0.2559(3) 0.3428(4) 0.6361(14) 0.0101 Uiso
O4 O 0.0817(2) 0.3594(2) 0.4961(9) 0.0049 Uiso
O5 O 0.2669(2) 0.3748(2) 0.7966(9) 0.0115 Uiso
O6 O 0.2813(2) 0.3121(2) 0.5989(8) 0.0049 Uiso
Cu4 Cu 0.01533(7) 0.29533(5) 0.6575(2) 0.0098 Uiso
Cu5 Cu 0.38667(5) 0.34866(7) 0.6758(2) 0.0098 Uiso
Cu8 Cu 0.03800(5) 0.38667(5) 0.3242(2) 0.0098 Uiso
O7 O 0.3594(2) 0.2776(3) 0.5039(9) 0.0049 Uiso
O9 O 0.2919(2) 0.2255(3) 0.1299(9) 0.0115 Uiso
O12 O 0.3641(3) 0.3853(2) 0.2655(8) 0.0049 Uiso
H1 H 0.176443 0.370367 0.70426 . .
O2 O 0.0664(2) 0.2919(2) 0.8701(9) 0.0115 Uiso
O8 O 0.3890(3) 0.4151(2) 0.8373(9) 0.0049 Uiso
O11 O 0.3546(2) 0.3026(3) 0.9322(8) 0.0049 Uiso
H2 H 0.15689 0.2963 0.962407 . .
Cu6 Cu 0.94667(5) 0.31800(7) 0.9908(2) 0.0098 Uiso
Cu6_2 Cu 0.37134(9) 0.05333(5) 0.9908(2) 0.0098 Uiso
Cu7_2 Cu 0.05333(9) 0.68200(7) 0.0092(2) 0.0098 Uiso
C1_2 C 0.1519(4) 0.8391(3) 0.1247(13) 0.0056 Uiso
C2_2 C 0.2066(6) 0.8798(4) 0.1974(15) 0.0139 Uiso
C3_2 C 0.1099(5) 0.7908(3) 0.2556(12) 0.0051 Uiso
C4_2 C 0.2465(5) 0.9226(3) 0.0306(14) 0.0101 Uiso
O1_2 O 0.0557(3) 0.7484(2) 0.1706(9) 0.0049 Uiso
O3_2 O 0.3026(3) 0.9480(2) 0.0678(8) 0.0049 Uiso
C5_2 C 0.1814(4) 0.8276(3) 0.5420(13) 0.0056 Uiso
C6_2 C 0.1267(6) 0.7869(4) 0.4693(15) 0.0139 Uiso
C7_2 C 0.2234(5) 0.8759(3) 0.4111(12) 0.0051 Uiso
C8_2 C 0.0868(5) 0.7441(3) 0.6361(14) 0.0101 Uiso
O4_2 O 0.2776(3) 0.9183(2) 0.4961(9) 0.0049 Uiso
O5_2 O 0.1078(3) 0.7331(2) 0.7966(9) 0.0115 Uiso
O6_2 O 0.0307(3) 0.7187(2) 0.5989(8) 0.0049 Uiso
Cu4_2 Cu 0.28000(9) 0.98467(7) 0.6575(2) 0.0098 Uiso
Cu8_2 Cu 0.34866(7) 0.96200(5) 0.3242(2) 0.0098 Uiso
O12_2 O 0.0213(4) 0.6359(3) 0.2655(8) 0.0049 Uiso
H1_2 H 0.193924 0.823557 0.70426 . .
O2_2 O 0.2255(3) 0.9336(2) 0.8701(9) 0.0115 Uiso
O8_2 O 0.0260(4) 0.6110(3) 0.8373(9) 0.0049 Uiso
H2_2 H 0.13941 0.84311 0.962407 . .
Cu1_2 Cu 0.98467(7) 0.70467(5) 0.3425(2) 0.0098 Uiso
Cu5_2 Cu 0.96200(9) 0.61333(5) 0.6758(2) 0.0098 Uiso
O7_2 O 0.9183(4) 0.6406(2) 0.5039(9) 0.0049 Uiso
O9_2 O 0.9336(4) 0.7081(2) 0.1299(9) 0.0115 Uiso
O11_2 O 0.9480(4) 0.6454(2) 0.9322(8) 0.0049 Uiso
Cu1_3 Cu 0.72000(5) 0.01533(7) 0.3425(2) 0.0098 Uiso
Cu5_3 Cu 0.65134(7) 0.03800(9) 0.6758(2) 0.0098 Uiso
O7_3 O 0.7224(3) 0.0817(4) 0.5039(9) 0.0049 Uiso
O9_3 O 0.7745(3) 0.0664(4) 0.1299(9) 0.0115 Uiso
O11_3 O 0.6974(3) 0.0520(4) 0.9322(8) 0.0049 Uiso
Cu7_3 Cu 0.62866(5) 0.94667(9) 0.0092(2) 0.0098 Uiso
C1_3 C 0.6872(3) 0.8481(4) 0.1247(13) 0.0056 Uiso
C2_3 C 0.6732(4) 0.7934(6) 0.1974(15) 0.0139 Uiso
C3_3 C 0.6809(4) 0.8901(5) 0.2556(12) 0.0051 Uiso
C4_3 C 0.6761(4) 0.7535(5) 0.0306(14) 0.0101 Uiso
O1_3 O 0.6927(2) 0.9443(3) 0.1706(9) 0.0049 Uiso
O3_3 O 0.6454(2) 0.6974(3) 0.0678(8) 0.0049 Uiso
C5_3 C 0.6461(3) 0.8186(4) 0.5420(13) 0.0056 Uiso
C6_3 C 0.6601(4) 0.8733(6) 0.4693(15) 0.0139 Uiso
C7_3 C 0.6524(4) 0.7766(5) 0.4111(12) 0.0051 Uiso
C8_3 C 0.6572(4) 0.9132(5) 0.6361(14) 0.0101 Uiso
O4_3 O 0.6406(2) 0.7224(3) 0.4961(9) 0.0049 Uiso
O5_3 O 0.6252(2) 0.8922(3) 0.7966(9) 0.0115 Uiso
O6_3 O 0.6879(2) 0.9693(3) 0.5989(8) 0.0049 Uiso
Cu4_3 Cu 0.70467(5) 0.72000(9) 0.6575(2) 0.0098 Uiso
Cu8_3 Cu 0.61333(5) 0.65134(7) 0.3242(2) 0.0098 Uiso
O12_3 O 0.6147(2) 0.9787(4) 0.2655(8) 0.0049 Uiso
H1_3 H 0.629633 0.806076 0.70426 . .
O2_3 O 0.7081(2) 0.7745(3) 0.8701(9) 0.0115 Uiso
Cu6_3 Cu 0.68200(7) 0.62866(9) 0.9908(2) 0.0098 Uiso
O8_3 O 0.5849(2) 0.9740(4) 0.8373(9) 0.0049 Uiso
H2_3 H 0.7037 0.86059 0.962407 . .
H1_4 H 0.84311 0.7037 0.0375933 . .
C1_4 C 0.8276(3) 0.6461(3) 0.4580(13) 0.0056 Uiso
C2_4 C 0.7869(4) 0.6601(4) 0.5307(15) 0.0139 Uiso
C3_4 C 0.8759(3) 0.6524(4) 0.5889(12) 0.0051 Uiso
C4_4 C 0.7441(3) 0.6572(4) 0.3639(14) 0.0101 Uiso
O2_4 O 0.7331(2) 0.6252(2) 0.2034(9) 0.0115 Uiso
O3_4 O 0.7187(2) 0.6879(2) 0.4011(8) 0.0049 Uiso
C5_4 C 0.8391(3) 0.6872(3) 0.8753(13) 0.0056 Uiso
C6_4 C 0.8798(4) 0.6732(4) 0.8026(15) 0.0139 Uiso
C7_4 C 0.7908(3) 0.6809(4) 0.7444(12) 0.0051 Uiso
C8_4 C 0.9226(3) 0.6761(4) 0.9694(14) 0.0101 Uiso
O4_4 O 0.7484(2) 0.6927(2) 0.8294(9) 0.0049 Uiso
O9_4 O 0.9586(2) 0.5588(3) 0.4632(9) 0.0115 Uiso
H2_4 H 0.823557 0.629633 0.29574 . .
H1_5 H 0.86059 0.15689 0.0375933 . .
C1_5 C 0.8186(4) 0.1724(3) 0.4580(13) 0.0056 Uiso
C2_5 C 0.8733(6) 0.2131(4) 0.5307(15) 0.0139 Uiso
C3_5 C 0.7766(5) 0.1241(3) 0.5889(12) 0.0051 Uiso
C4_5 C 0.9132(5) 0.2559(3) 0.3639(14) 0.0101 Uiso
O2_5 O 0.8922(3) 0.2669(2) 0.2034(9) 0.0115 Uiso
O3_5 O 0.9693(3) 0.2813(2) 0.4011(8) 0.0049 Uiso
C5_5 C 0.8481(4) 0.1609(3) 0.8753(13) 0.0056 Uiso
C6_5 C 0.7934(6) 0.1202(4) 0.8026(15) 0.0139 Uiso
C7_5 C 0.8901(5) 0.2092(3) 0.7444(12) 0.0051 Uiso
C8_5 C 0.7535(5) 0.0774(3) 0.9694(14) 0.0101 Uiso
O4_5 O 0.9443(3) 0.2516(2) 0.8294(9) 0.0049 Uiso
O9_5 O 0.6003(4) 0.0414(2) 0.4632(9) 0.0115 Uiso
H2_5 H 0.806076 0.176443 0.29574 . .
H1_6 H 0.2963 0.13941 0.0375933 . .
C1_6 C 0.3539(3) 0.1814(4) 0.4580(13) 0.0056 Uiso
C2_6 C 0.3399(4) 0.1267(6) 0.5307(15) 0.0139 Uiso
C3_6 C 0.3476(4) 0.2234(5) 0.5889(12) 0.0051 Uiso
C4_6 C 0.3428(4) 0.0868(5) 0.3639(14) 0.0101 Uiso
O2_6 O 0.3748(2) 0.1078(3) 0.2034(9) 0.0115 Uiso
O3_6 O 0.3121(2) 0.0307(3) 0.4011(8) 0.0049 Uiso
C5_6 C 0.3128(3) 0.1519(4) 0.8753(13) 0.0056 Uiso
C6_6 C 0.3268(4) 0.2066(6) 0.8026(15) 0.0139 Uiso
C7_6 C 0.3191(4) 0.1099(5) 0.7444(12) 0.0051 Uiso
C8_6 C 0.3239(4) 0.2465(5) 0.9694(14) 0.0101 Uiso
O4_6 O 0.3073(2) 0.0557(3) 0.8294(9) 0.0049 Uiso
O9_6 O 0.4412(3) 0.3997(4) 0.4632(9) 0.0115 Uiso
H2_6 H 0.370367 0.193924 0.29574 . .
C5_7 C 0.5058(3) 0.0205(3) 0.2086(13) 0.0056 Uiso
C6_7 C 0.5465(4) 0.0065(4) 0.1359(15) 0.0139 Uiso
C7_7 C 0.4575(3) 0.0142(4) 0.0777(12) 0.0051 Uiso
C8_7 C 0.5893(3) 0.0094(4) 0.3027(14) 0.0101 Uiso
O4_7 O 0.4151(2) 0.0260(2) 0.1627(9) 0.0049 Uiso
H1_7 H 0.509776 0.0370334 0.370927 . .
O3_7 O 0.3853(2) 0.0213(2) 0.7345(8) 0.0049 Uiso
C1_7 C 0.4942(3) 0.9795(3) 0.7914(13) 0.0056 Uiso
C2_7 C 0.4535(4) 0.9935(4) 0.8641(15) 0.0139 Uiso
C3_7 C 0.5425(3) 0.9858(4) 0.9223(12) 0.0051 Uiso
C4_7 C 0.4107(3) 0.9906(4) 0.6973(14) 0.0101 Uiso
O2_7 O 0.3997(2) 0.9586(2) 0.5368(9) 0.0115 Uiso
H2_7 H 0.490224 0.962967 0.629073 . .
C5_8 C 0.5148(4) 0.4942(3) 0.2086(13) 0.0056 Uiso
C6_8 C 0.4601(6) 0.4535(4) 0.1359(15) 0.0139 Uiso
C7_8 C 0.5568(5) 0.5425(3) 0.0777(12) 0.0051 Uiso
C8_8 C 0.4202(5) 0.4107(3) 0.3027(14) 0.0101 Uiso
O4_8 O 0.6110(3) 0.5849(2) 0.1627(9) 0.0049 Uiso
H1_8 H 0.527257 0.490224 0.370927 . .
C1_8 C 0.4852(4) 0.5058(3) 0.7914(13) 0.0056 Uiso
C2_8 C 0.5399(6) 0.5465(4) 0.8641(15) 0.0139 Uiso
C3_8 C 0.4432(5) 0.4575(3) 0.9223(12) 0.0051 Uiso
C4_8 C 0.5798(5) 0.5893(3) 0.6973(14) 0.0101 Uiso
O2_8 O 0.5588(3) 0.6003(2) 0.5368(9) 0.0115 Uiso
O3_8 O 0.6359(3) 0.6147(2) 0.7345(8) 0.0049 Uiso
H2_8 H 0.472743 0.509776 0.629073 . .
C1_9 C 0.0205(3) 0.5148(4) 0.7914(13) 0.0056 Uiso
C2_9 C 0.0065(4) 0.4601(6) 0.8641(15) 0.0139 Uiso
C3_9 C 0.0142(4) 0.5568(5) 0.9223(12) 0.0051 Uiso
C4_9 C 0.0094(4) 0.4202(5) 0.6973(14) 0.0101 Uiso
O2_9 O 0.0414(2) 0.4412(3) 0.5368(9) 0.0115 Uiso
H2_9 H 0.0370334 0.527257 0.629073 . .
C5_9 C 0.9795(3) 0.4852(4) 0.2086(13) 0.0056 Uiso
C6_9 C 0.9935(4) 0.5399(6) 0.1359(15) 0.0139 Uiso
C7_9 C 0.9858(4) 0.4432(5) 0.0777(12) 0.0051 Uiso
C8_9 C 0.9906(4) 0.5798(5) 0.3027(14) 0.0101 Uiso
O4_9 O 0.9740(2) 0.3890(3) 0.1627(9) 0.0049 Uiso
H1_9 H 0.962967 0.472743 0.370927 . .
O3_9 O 0.9787(2) 0.3641(3) 0.7345(8) 0.0049 Uiso
loop_
_geom_bond_atom_site_label_1
_geom_bond_atom_site_label_2
_geom_bond_site_symmetry_1
_geom_bond_site_symmetry_2
Cu1 O1 1_555 1_555
C1 C2 1_555 1_555
C2 C4 1_555 1_555
C3 C1 1_555 1_555
O1 C3 1_555 1_555
O3 C4 1_555 1_555
C5 C6 1_555 1_555
C6 C3 1_555 1_555
C7 C2 1_555 1_555
C8 C6 1_555 1_555
O4 C7 1_555 1_555
O5 C8 1_555 1_555
O6 Cu1 1_555 1_555
Cu7 O1 1_555 1_555
Cu4 O4 1_555 1_555
Cu5 O6 1_555 1_555
Cu8 O3 1_555 1_555
O7 Cu1 1_555 1_555
O9 Cu1 1_555 1_555
O12 Cu1 1_555 1_555
C5 C7 1_555 1_555
C8 O6 1_555 1_555
O4 Cu8 1_555 1_555
Cu7 O12 1_555 1_555
Cu5 O7 1_555 1_555
C5 H1 1_555 1_555
O2 Cu4 1_555 1_555
C1_2 C2_2 1_555 1_555
C2_2 C4_2 1_555 1_555
C3_2 C1_2 1_555 1_555
O1_2 C3_2 1_555 1_555
O3_2 C4_2 1_555 1_555
C5_2 C6_2 1_555 1_555
C6_2 C3_2 1_555 1_555
C7_2 C2_2 1_555 1_555
C8_2 C6_2 1_555 1_555
O4_2 C7_2 1_555 1_555
O5_2 C8_2 1_555 1_555
Cu7_2 O1_2 1_555 1_555
Cu4_2 O4_2 1_555 1_555
Cu8_2 O3_2 1_555 1_555
C5_2 C7_2 1_555 1_555
C8_2 O6_2 1_555 1_555
O4_2 Cu8_2 1_555 1_555
Cu7_2 O12_2 1_555 1_555
C5_2 H1_2 1_555 1_555
O2_2 Cu4_2 1_555 1_555
O7_2 Cu1_2 1_555 1_555
O9_2 Cu1_2 1_555 1_555
Cu5_2 O7_2 1_555 1_555
O7_3 Cu1_3 1_555 1_555
O9_3 Cu1_3 1_555 1_555
Cu5_3 O7_3 1_555 1_555
C1_3 C2_3 1_555 1_555
C2_3 C4_3 1_555 1_555
C3_3 C1_3 1_555 1_555
O1_3 C3_3 1_555 1_555
O3_3 C4_3 1_555 1_555
C5_3 C6_3 1_555 1_555
C6_3 C3_3 1_555 1_555
C7_3 C2_3 1_555 1_555
C8_3 C6_3 1_555 1_555
O4_3 C7_3 1_555 1_555
O5_3 C8_3 1_555 1_555
Cu7_3 O1_3 1_555 1_555
Cu4_3 O4_3 1_555 1_555
Cu8_3 O3_3 1_555 1_555
C5_3 C7_3 1_555 1_555
C8_3 O6_3 1_555 1_555
O4_3 Cu8_3 1_555 1_555
Cu7_3 O12_3 1_555 1_555
C5_3 H1_3 1_555 1_555
O2_3 Cu4_3 1_555 1_555
C1_4 C2_4 1_555 1_555
C2_4 C4_4 1_555 1_555
C3_4 C1_4 1_555 1_555
C4_4 O2_4 1_555 1_555
O7_2 C3_4 1_555 1_555
O3_4 C4_4 1_555 1_555
C5_4 C6_4 1_555 1_555
C6_4 C3_4 1_555 1_555
C7_4 C2_4 1_555 1_555
C8_4 C6_4 1_555 1_555
O4_4 C7_4 1_555 1_555
O11_2 Cu5_2 1_555 1_555
Cu6_3 O4_4 1_555 1_555
Cu8_3 O3_4 1_555 1_555
Cu4_3 O3_4 1_555 1_555
O9_4 Cu5_2 1_555 1_555
C5_4 C7_4 1_555 1_555
C8_4 O11_2 1_555 1_555
O4_4 Cu4_3 1_555 1_555
C1_4 H2_4 1_555 1_555
C1_5 C2_5 1_555 1_555
C2_5 C4_5 1_555 1_555
C3_5 C1_5 1_555 1_555
C4_5 O2_5 1_555 1_555
O7_3 C3_5 1_555 1_555
O3_5 C4_5 1_555 1_555
C5_5 C6_5 1_555 1_555
C6_5 C3_5 1_555 1_555
C7_5 C2_5 1_555 1_555
C8_5 C6_5 1_555 1_555
O4_5 C7_5 1_555 1_555
O11_3 Cu5_3 1_555 1_555
Cu6 O4_5 1_555 1_555
O9_5 Cu5_3 1_555 1_555
C5_5 C7_5 1_555 1_555
C8_5 O11_3 1_555 1_555
C1_5 H2_5 1_555 1_555
C1_6 C2_6 1_555 1_555
C2_6 C4_6 1_555 1_555
C3_6 C1_6 1_555 1_555
C4_6 O2_6 1_555 1_555
O7 C3_6 1_555 1_555
O3_6 C4_6 1_555 1_555
C5_6 C6_6 1_555 1_555
C6_6 C3_6 1_555 1_555
C7_6 C2_6 1_555 1_555
C8_6 C6_6 1_555 1_555
O4_6 C7_6 1_555 1_555
O11 Cu5 1_555 1_555
Cu6_2 O4_6 1_555 1_555
O8 Cu5 1_555 1_555
O9_6 Cu5 1_555 1_555
C5_6 C7_6 1_555 1_555
C8_6 O11 1_555 1_555
C1_6 H2_6 1_555 1_555
C5_7 C6_7 1_555 1_555
C8_7 C6_7 1_555 1_555
O4_7 C7_7 1_555 1_555
O9_5 C8_7 1_555 1_555
C5_7 C7_7 1_555 1_555
C5_7 H1_7 1_555 1_555
Cu6_2 O3_7 1_555 1_555
C1_7 C2_7 1_555 1_555
C2_7 C4_7 1_555 1_555
C3_7 C1_7 1_555 1_555
C4_7 O2_7 1_555 1_555
O8_3 C3_7 1_555 1_555
O2_7 Cu8_2 1_555 1_555
C1_7 H2_7 1_555 1_555
C5_8 C6_8 1_555 1_555
C8_8 C6_8 1_555 1_555
O4_8 C7_8 1_555 1_555
O9_6 C8_8 1_555 1_555
Cu8_3 O4_8 1_555 1_555
C5_8 C7_8 1_555 1_555
C8_8 O12 1_555 1_555
C5_8 H1_8 1_555 1_555
C1_8 C2_8 1_555 1_555
C2_8 C4_8 1_555 1_555
C3_8 C1_8 1_555 1_555
C4_8 O2_8 1_555 1_555
O8 C3_8 1_555 1_555
O2_8 Cu8_3 1_555 1_555
O3_8 C4_8 1_555 1_555
Cu4_3 O3_8 1_555 1_555
Cu6_3 O3_8 1_555 1_555
C1_8 H2_8 1_555 1_555
C1_9 C2_9 1_555 1_555
C2_9 C4_9 1_555 1_555
C3_9 C1_9 1_555 1_555
C4_9 O2_9 1_555 1_555
O8_2 C3_9 1_555 1_555
O2_9 Cu8 1_555 1_555
C1_9 H2_9 1_555 1_555
C5_9 C6_9 1_555 1_555
C8_9 C6_9 1_555 1_555
O4_9 C7_9 1_555 1_555
O9_4 C8_9 1_555 1_555
C5_9 C7_9 1_555 1_555
C5_9 H1_9 1_555 1_555
Cu6 O3_9 1_555 1_555

#END
