
###############################################################################
#
# This file contains modified crystal structure data generated from the
# MOF subset of the Cambridge Structural Database (CSD) v543 
# hosted by the Cambridge Crystallographic Data Centre (CCDC).
#
# This work is licensed under the Creative Commons
# Attribution-NonCommercial-ShareAlike 4.0 International License.
# To view a copy of this license, visit
# http://creativecommons.org/licenses/by-nc-sa/4.0/
# or send a letter to
# Creative Commons, PO Box 1866, Mountain View, CA 94042, USA.
#
# CIF created using the CSD Python API on 29 September 2022
# The structure has been converted into the P1 space group
# The structure has a 3D framework
# The original CSD entry MOKYAP27 is in the rhombohedral crystal system
# The framework has been calculated to contain at least 10.0% void space
# The void calculation uses a probe of radius 1.32A, grid spacing 0.4
# H atom positions have been added when not included in the experimental data
#
###############################################################################

data_MOKYAP27
_chemical_formula_moiety         '(C72 H18 Cu7 O44)n'
_symmetry_cell_setting           triclinic
_symmetry_space_group_name_H-M   'P 1'
_symmetry_Int_Tables_number      1
_space_group_name_Hall           'P 1'
loop_
_symmetry_equiv_pos_site_id
_symmetry_equiv_pos_as_xyz
1 x,y,z
_cell_length_a                   25.9187(3)
_cell_length_b                   25.9187(3)
_cell_length_c                   6.27252(7)
_cell_angle_alpha                90
_cell_angle_beta                 90
_cell_angle_gamma                120
_cell_volume                     3649.21
loop_
_atom_site_label
_atom_site_type_symbol
_atom_site_fract_x
_atom_site_fract_y
_atom_site_fract_z
_atom_site_U_iso_or_equiv
_atom_site_thermal_displace_type
Cu7 Cu 0.31801(7) 0.37143(5) 0.0093(2) 0.0090 Uiso
Cu1 Cu 0.29524(5) 0.27992(5) 0.3426(2) 0.0090 Uiso
C1 C 0.1607(3) 0.3130(3) 0.1257(13) 0.0066 Uiso
C2 C 0.1199(4) 0.3266(4) 0.1979(15) 0.0114 Uiso
C3 C 0.2091(3) 0.3189(4) 0.2549(12) 0.0051 Uiso
C4 C 0.0782(3) 0.3243(4) 0.0293(14) 0.0101 Uiso
O1 O 0.2513(2) 0.3069(2) 0.1723(10) 0.0048 Uiso
O3 O 0.0519(2) 0.3545(2) 0.0676(8) 0.0048 Uiso
C5 C 0.1726(3) 0.3537(3) 0.5410(13) 0.0066 Uiso
C6 C 0.2134(4) 0.3401(4) 0.4688(15) 0.0114 Uiso
C7 C 0.1242(3) 0.3478(4) 0.4118(12) 0.0051 Uiso
C8 C 0.2551(3) 0.3424(4) 0.6374(14) 0.0101 Uiso
O4 O 0.0820(2) 0.3598(2) 0.4944(10) 0.0048 Uiso
O5 O 0.2672(2) 0.3746(2) 0.7960(9) 0.0101 Uiso
O6 O 0.2814(2) 0.3122(2) 0.5991(8) 0.0048 Uiso
Cu4 Cu 0.01532(7) 0.29524(5) 0.6574(2) 0.0090 Uiso
Cu5 Cu 0.38675(5) 0.34865(7) 0.6759(2) 0.0090 Uiso
Cu8 Cu 0.03809(5) 0.38675(5) 0.3241(2) 0.0090 Uiso
O7 O 0.3598(2) 0.2777(3) 0.5056(10) 0.0048 Uiso
O9 O 0.2921(2) 0.2260(3) 0.1293(9) 0.0101 Uiso
O12 O 0.3641(3) 0.3852(2) 0.2657(8) 0.0048 Uiso
H2 H 0.176567 0.369773 0.703848 . .
O2 O 0.0661(2) 0.2921(2) 0.8707(9) 0.0101 Uiso
O8 O 0.3889(3) 0.4154(2) 0.8390(10) 0.0048 Uiso
O11 O 0.3545(2) 0.3026(3) 0.9324(8) 0.0048 Uiso
H1 H 0.156766 0.296894 0.962819 . .
Cu6 Cu 0.94659(5) 0.31801(7) 0.9907(2) 0.0090 Uiso
Cu6_2 Cu 0.37143(9) 0.05341(5) 0.9907(2) 0.0090 Uiso
Cu7_2 Cu 0.05341(9) 0.68199(7) 0.0093(2) 0.0090 Uiso
C1_2 C 0.1523(4) 0.8393(3) 0.1257(13) 0.0066 Uiso
C2_2 C 0.2067(6) 0.8801(4) 0.1979(15) 0.0114 Uiso
C3_2 C 0.1098(5) 0.7909(3) 0.2549(12) 0.0051 Uiso
C4_2 C 0.2461(5) 0.9218(3) 0.0293(14) 0.0101 Uiso
O1_2 O 0.0556(3) 0.7487(2) 0.1723(10) 0.0048 Uiso
O3_2 O 0.3026(3) 0.9481(2) 0.0676(8) 0.0048 Uiso
C5_2 C 0.1810(4) 0.8274(3) 0.5410(13) 0.0066 Uiso
C6_2 C 0.1266(6) 0.7866(4) 0.4688(15) 0.0114 Uiso
C7_2 C 0.2235(5) 0.8758(3) 0.4118(12) 0.0051 Uiso
C8_2 C 0.0872(5) 0.7449(3) 0.6374(14) 0.0101 Uiso
O4_2 O 0.2777(3) 0.9180(2) 0.4944(10) 0.0048 Uiso
O5_2 O 0.1073(3) 0.7328(2) 0.7960(9) 0.0101 Uiso
O6_2 O 0.0307(3) 0.7186(2) 0.5991(8) 0.0048 Uiso
Cu4_2 Cu 0.27992(9) 0.98468(7) 0.6574(2) 0.0090 Uiso
Cu8_2 Cu 0.34865(7) 0.96191(5) 0.3241(2) 0.0090 Uiso
O12_2 O 0.0212(4) 0.6359(3) 0.2657(8) 0.0048 Uiso
H2_2 H 0.193206 0.823433 0.703848 . .
O2_2 O 0.2260(3) 0.9339(2) 0.8707(9) 0.0101 Uiso
O8_2 O 0.0264(4) 0.6111(3) 0.8390(10) 0.0048 Uiso
H1_2 H 0.140128 0.843234 0.962819 . .
Cu1_2 Cu 0.98468(7) 0.70476(5) 0.3426(2) 0.0090 Uiso
Cu5_2 Cu 0.96191(9) 0.61325(5) 0.6759(2) 0.0090 Uiso
O7_2 O 0.9180(4) 0.6402(2) 0.5056(10) 0.0048 Uiso
O9_2 O 0.9339(4) 0.7079(2) 0.1293(9) 0.0101 Uiso
O11_2 O 0.9481(4) 0.6455(2) 0.9324(8) 0.0048 Uiso
Cu1_3 Cu 0.72008(5) 0.01532(7) 0.3426(2) 0.0090 Uiso
Cu5_3 Cu 0.65135(7) 0.03809(9) 0.6759(2) 0.0090 Uiso
O7_3 O 0.7223(3) 0.0820(4) 0.5056(10) 0.0048 Uiso
O9_3 O 0.7740(3) 0.0661(4) 0.1293(9) 0.0101 Uiso
O11_3 O 0.6974(3) 0.0519(4) 0.9324(8) 0.0048 Uiso
Cu7_3 Cu 0.62857(5) 0.94659(9) 0.0093(2) 0.0090 Uiso
C1_3 C 0.6870(3) 0.8477(4) 0.1257(13) 0.0066 Uiso
C2_3 C 0.6734(4) 0.7933(6) 0.1979(15) 0.0114 Uiso
C3_3 C 0.6811(4) 0.8902(5) 0.2549(12) 0.0051 Uiso
C4_3 C 0.6757(4) 0.7539(5) 0.0293(14) 0.0101 Uiso
O1_3 O 0.6931(2) 0.9444(3) 0.1723(10) 0.0048 Uiso
O3_3 O 0.6455(2) 0.6974(3) 0.0676(8) 0.0048 Uiso
C5_3 C 0.6463(3) 0.8190(4) 0.5410(13) 0.0066 Uiso
C6_3 C 0.6599(4) 0.8734(6) 0.4688(15) 0.0114 Uiso
C7_3 C 0.6522(4) 0.7765(5) 0.4118(12) 0.0051 Uiso
C8_3 C 0.6576(4) 0.9128(5) 0.6374(14) 0.0101 Uiso
O4_3 O 0.6402(2) 0.7223(3) 0.4944(10) 0.0048 Uiso
O5_3 O 0.6254(2) 0.8927(3) 0.7960(9) 0.0101 Uiso
O6_3 O 0.6878(2) 0.9693(3) 0.5991(8) 0.0048 Uiso
Cu4_3 Cu 0.70476(5) 0.72008(9) 0.6574(2) 0.0090 Uiso
Cu8_3 Cu 0.61325(5) 0.65135(7) 0.3241(2) 0.0090 Uiso
O12_3 O 0.6148(2) 0.9788(4) 0.2657(8) 0.0048 Uiso
H2_3 H 0.630227 0.806794 0.703848 . .
O2_3 O 0.7079(2) 0.7740(3) 0.8707(9) 0.0101 Uiso
Cu6_3 Cu 0.68199(7) 0.62857(9) 0.9907(2) 0.0090 Uiso
O8_3 O 0.5846(2) 0.9736(4) 0.8390(10) 0.0048 Uiso
H1_3 H 0.703106 0.859872 0.962819 . .
H2_4 H 0.843234 0.703106 0.0371811 . .
C1_4 C 0.8274(3) 0.6463(3) 0.4590(13) 0.0066 Uiso
C2_4 C 0.7866(4) 0.6599(4) 0.5312(15) 0.0114 Uiso
C3_4 C 0.8758(3) 0.6522(4) 0.5882(12) 0.0051 Uiso
C4_4 C 0.7449(3) 0.6576(4) 0.3626(14) 0.0101 Uiso
O2_4 O 0.7328(2) 0.6254(2) 0.2040(9) 0.0101 Uiso
O3_4 O 0.7186(2) 0.6878(2) 0.4009(8) 0.0048 Uiso
C5_4 C 0.8393(3) 0.6870(3) 0.8743(13) 0.0066 Uiso
C6_4 C 0.8801(4) 0.6734(4) 0.8021(15) 0.0114 Uiso
C7_4 C 0.7909(3) 0.6811(4) 0.7451(12) 0.0051 Uiso
C8_4 C 0.9218(3) 0.6757(4) 0.9707(14) 0.0101 Uiso
O4_4 O 0.7487(2) 0.6931(2) 0.8277(10) 0.0048 Uiso
O9_4 O 0.9588(2) 0.5593(3) 0.4626(9) 0.0101 Uiso
H1_4 H 0.823433 0.630227 0.296152 . .
H2_5 H 0.859872 0.156766 0.0371811 . .
C1_5 C 0.8190(4) 0.1726(3) 0.4590(13) 0.0066 Uiso
C2_5 C 0.8734(6) 0.2134(4) 0.5312(15) 0.0114 Uiso
C3_5 C 0.7765(5) 0.1242(3) 0.5882(12) 0.0051 Uiso
C4_5 C 0.9128(5) 0.2551(3) 0.3626(14) 0.0101 Uiso
O2_5 O 0.8927(3) 0.2672(2) 0.2040(9) 0.0101 Uiso
O3_5 O 0.9693(3) 0.2814(2) 0.4009(8) 0.0048 Uiso
C5_5 C 0.8477(4) 0.1607(3) 0.8743(13) 0.0066 Uiso
C6_5 C 0.7933(6) 0.1199(4) 0.8021(15) 0.0114 Uiso
C7_5 C 0.8902(5) 0.2091(3) 0.7451(12) 0.0051 Uiso
C8_5 C 0.7539(5) 0.0782(3) 0.9707(14) 0.0101 Uiso
O4_5 O 0.9444(3) 0.2513(2) 0.8277(10) 0.0048 Uiso
O9_5 O 0.6006(4) 0.0412(2) 0.4626(9) 0.0101 Uiso
H1_5 H 0.806794 0.176567 0.296152 . .
H2_6 H 0.296894 0.140128 0.0371811 . .
C1_6 C 0.3537(3) 0.1810(4) 0.4590(13) 0.0066 Uiso
C2_6 C 0.3401(4) 0.1266(6) 0.5312(15) 0.0114 Uiso
C3_6 C 0.3478(4) 0.2235(5) 0.5882(12) 0.0051 Uiso
C4_6 C 0.3424(4) 0.0872(5) 0.3626(14) 0.0101 Uiso
O2_6 O 0.3746(2) 0.1073(3) 0.2040(9) 0.0101 Uiso
O3_6 O 0.3122(2) 0.0307(3) 0.4009(8) 0.0048 Uiso
C5_6 C 0.3130(3) 0.1523(4) 0.8743(13) 0.0066 Uiso
C6_6 C 0.3266(4) 0.2067(6) 0.8021(15) 0.0114 Uiso
C7_6 C 0.3189(4) 0.1098(5) 0.7451(12) 0.0051 Uiso
C8_6 C 0.3243(4) 0.2461(5) 0.9707(14) 0.0101 Uiso
O4_6 O 0.3069(2) 0.0556(3) 0.8277(10) 0.0048 Uiso
O9_6 O 0.4407(3) 0.3994(4) 0.4626(9) 0.0101 Uiso
H1_6 H 0.369773 0.193206 0.296152 . .
C5_7 C 0.5060(3) 0.0203(3) 0.2076(13) 0.0066 Uiso
C6_7 C 0.5468(4) 0.0067(4) 0.1354(15) 0.0114 Uiso
C7_7 C 0.4576(3) 0.0144(4) 0.0784(12) 0.0051 Uiso
C8_7 C 0.5885(3) 0.0090(4) 0.3040(14) 0.0101 Uiso
O4_7 O 0.4154(2) 0.0264(2) 0.1610(10) 0.0048 Uiso
H2_7 H 0.509901 0.0364398 0.370514 . .
O3_7 O 0.3852(2) 0.0212(2) 0.7343(8) 0.0048 Uiso
C1_7 C 0.4940(3) 0.9797(3) 0.7924(13) 0.0066 Uiso
C2_7 C 0.4532(4) 0.9933(4) 0.8646(15) 0.0114 Uiso
C3_7 C 0.5424(3) 0.9856(4) 0.9216(12) 0.0051 Uiso
C4_7 C 0.4115(3) 0.9910(4) 0.6960(14) 0.0101 Uiso
O2_7 O 0.3994(2) 0.9588(2) 0.5374(9) 0.0101 Uiso
H1_7 H 0.490099 0.96356 0.629486 . .
C5_8 C 0.5144(4) 0.4940(3) 0.2076(13) 0.0066 Uiso
C6_8 C 0.4600(6) 0.4532(4) 0.1354(15) 0.0114 Uiso
C7_8 C 0.5569(5) 0.5424(3) 0.0784(12) 0.0051 Uiso
C8_8 C 0.4206(5) 0.4115(3) 0.3040(14) 0.0101 Uiso
O4_8 O 0.6111(3) 0.5846(2) 0.1610(10) 0.0048 Uiso
H2_8 H 0.526539 0.490099 0.370514 . .
C1_8 C 0.4856(4) 0.5060(3) 0.7924(13) 0.0066 Uiso
C2_8 C 0.5400(6) 0.5468(4) 0.8646(15) 0.0114 Uiso
C3_8 C 0.4431(5) 0.4576(3) 0.9216(12) 0.0051 Uiso
C4_8 C 0.5794(5) 0.5885(3) 0.6960(14) 0.0101 Uiso
O2_8 O 0.5593(3) 0.6006(2) 0.5374(9) 0.0101 Uiso
O3_8 O 0.6359(3) 0.6148(2) 0.7343(8) 0.0048 Uiso
H1_8 H 0.473461 0.509901 0.629486 . .
C1_9 C 0.0203(3) 0.5144(4) 0.7924(13) 0.0066 Uiso
C2_9 C 0.0067(4) 0.4600(6) 0.8646(15) 0.0114 Uiso
C3_9 C 0.0144(4) 0.5569(5) 0.9216(12) 0.0051 Uiso
C4_9 C 0.0090(4) 0.4206(5) 0.6960(14) 0.0101 Uiso
O2_9 O 0.0412(2) 0.4407(3) 0.5374(9) 0.0101 Uiso
H1_9 H 0.0364398 0.526539 0.629486 . .
C5_9 C 0.9797(3) 0.4856(4) 0.2076(13) 0.0066 Uiso
C6_9 C 0.9933(4) 0.5400(6) 0.1354(15) 0.0114 Uiso
C7_9 C 0.9856(4) 0.4431(5) 0.0784(12) 0.0051 Uiso
C8_9 C 0.9910(4) 0.5794(5) 0.3040(14) 0.0101 Uiso
O4_9 O 0.9736(2) 0.3889(3) 0.1610(10) 0.0048 Uiso
H2_9 H 0.96356 0.473461 0.370514 . .
O3_9 O 0.9788(2) 0.3641(3) 0.7343(8) 0.0048 Uiso
loop_
_geom_bond_atom_site_label_1
_geom_bond_atom_site_label_2
_geom_bond_site_symmetry_1
_geom_bond_site_symmetry_2
Cu1 O1 1_555 1_555
C1 C2 1_555 1_555
C2 C4 1_555 1_555
C3 C1 1_555 1_555
O1 C3 1_555 1_555
O3 C4 1_555 1_555
C5 C6 1_555 1_555
C6 C3 1_555 1_555
C7 C2 1_555 1_555
C8 C6 1_555 1_555
O4 C7 1_555 1_555
O5 C8 1_555 1_555
O6 Cu1 1_555 1_555
Cu7 O1 1_555 1_555
Cu4 O4 1_555 1_555
Cu5 O6 1_555 1_555
Cu8 O3 1_555 1_555
O7 Cu1 1_555 1_555
O9 Cu1 1_555 1_555
O12 Cu1 1_555 1_555
C5 C7 1_555 1_555
C8 O6 1_555 1_555
O4 Cu8 1_555 1_555
Cu7 O12 1_555 1_555
Cu5 O7 1_555 1_555
C5 H2 1_555 1_555
O2 Cu4 1_555 1_555
C1_2 C2_2 1_555 1_555
C2_2 C4_2 1_555 1_555
C3_2 C1_2 1_555 1_555
O1_2 C3_2 1_555 1_555
O3_2 C4_2 1_555 1_555
C5_2 C6_2 1_555 1_555
C6_2 C3_2 1_555 1_555
C7_2 C2_2 1_555 1_555
C8_2 C6_2 1_555 1_555
O4_2 C7_2 1_555 1_555
O5_2 C8_2 1_555 1_555
Cu7_2 O1_2 1_555 1_555
Cu4_2 O4_2 1_555 1_555
Cu8_2 O3_2 1_555 1_555
C5_2 C7_2 1_555 1_555
C8_2 O6_2 1_555 1_555
O4_2 Cu8_2 1_555 1_555
Cu7_2 O12_2 1_555 1_555
C5_2 H2_2 1_555 1_555
O2_2 Cu4_2 1_555 1_555
O7_2 Cu1_2 1_555 1_555
O9_2 Cu1_2 1_555 1_555
Cu5_2 O7_2 1_555 1_555
O7_3 Cu1_3 1_555 1_555
O9_3 Cu1_3 1_555 1_555
Cu5_3 O7_3 1_555 1_555
C1_3 C2_3 1_555 1_555
C2_3 C4_3 1_555 1_555
C3_3 C1_3 1_555 1_555
O1_3 C3_3 1_555 1_555
O3_3 C4_3 1_555 1_555
C5_3 C6_3 1_555 1_555
C6_3 C3_3 1_555 1_555
C7_3 C2_3 1_555 1_555
C8_3 C6_3 1_555 1_555
O4_3 C7_3 1_555 1_555
O5_3 C8_3 1_555 1_555
Cu7_3 O1_3 1_555 1_555
Cu4_3 O4_3 1_555 1_555
Cu8_3 O3_3 1_555 1_555
C5_3 C7_3 1_555 1_555
C8_3 O6_3 1_555 1_555
O4_3 Cu8_3 1_555 1_555
Cu7_3 O12_3 1_555 1_555
C5_3 H2_3 1_555 1_555
O2_3 Cu4_3 1_555 1_555
C1_4 C2_4 1_555 1_555
C2_4 C4_4 1_555 1_555
C3_4 C1_4 1_555 1_555
C4_4 O2_4 1_555 1_555
O7_2 C3_4 1_555 1_555
O3_4 C4_4 1_555 1_555
C5_4 C6_4 1_555 1_555
C6_4 C3_4 1_555 1_555
C7_4 C2_4 1_555 1_555
C8_4 C6_4 1_555 1_555
O4_4 C7_4 1_555 1_555
O11_2 Cu5_2 1_555 1_555
Cu6_3 O4_4 1_555 1_555
Cu8_3 O3_4 1_555 1_555
Cu4_3 O3_4 1_555 1_555
O9_4 Cu5_2 1_555 1_555
C5_4 C7_4 1_555 1_555
C8_4 O11_2 1_555 1_555
O4_4 Cu4_3 1_555 1_555
C1_4 H1_4 1_555 1_555
C1_5 C2_5 1_555 1_555
C2_5 C4_5 1_555 1_555
C3_5 C1_5 1_555 1_555
C4_5 O2_5 1_555 1_555
O7_3 C3_5 1_555 1_555
O3_5 C4_5 1_555 1_555
C5_5 C6_5 1_555 1_555
C6_5 C3_5 1_555 1_555
C7_5 C2_5 1_555 1_555
C8_5 C6_5 1_555 1_555
O4_5 C7_5 1_555 1_555
O11_3 Cu5_3 1_555 1_555
Cu6 O4_5 1_555 1_555
O9_5 Cu5_3 1_555 1_555
C5_5 C7_5 1_555 1_555
C8_5 O11_3 1_555 1_555
C1_5 H1_5 1_555 1_555
C1_6 C2_6 1_555 1_555
C2_6 C4_6 1_555 1_555
C3_6 C1_6 1_555 1_555
C4_6 O2_6 1_555 1_555
O7 C3_6 1_555 1_555
O3_6 C4_6 1_555 1_555
C5_6 C6_6 1_555 1_555
C6_6 C3_6 1_555 1_555
C7_6 C2_6 1_555 1_555
C8_6 C6_6 1_555 1_555
O4_6 C7_6 1_555 1_555
O11 Cu5 1_555 1_555
Cu6_2 O4_6 1_555 1_555
O8 Cu5 1_555 1_555
O9_6 Cu5 1_555 1_555
C5_6 C7_6 1_555 1_555
C8_6 O11 1_555 1_555
C1_6 H1_6 1_555 1_555
C5_7 C6_7 1_555 1_555
C8_7 C6_7 1_555 1_555
O4_7 C7_7 1_555 1_555
O9_5 C8_7 1_555 1_555
C5_7 C7_7 1_555 1_555
C5_7 H2_7 1_555 1_555
Cu6_2 O3_7 1_555 1_555
C1_7 C2_7 1_555 1_555
C2_7 C4_7 1_555 1_555
C3_7 C1_7 1_555 1_555
C4_7 O2_7 1_555 1_555
O8_3 C3_7 1_555 1_555
O2_7 Cu8_2 1_555 1_555
C1_7 H1_7 1_555 1_555
C5_8 C6_8 1_555 1_555
C8_8 C6_8 1_555 1_555
O4_8 C7_8 1_555 1_555
O9_6 C8_8 1_555 1_555
Cu8_3 O4_8 1_555 1_555
C5_8 C7_8 1_555 1_555
C8_8 O12 1_555 1_555
C5_8 H2_8 1_555 1_555
C1_8 C2_8 1_555 1_555
C2_8 C4_8 1_555 1_555
C3_8 C1_8 1_555 1_555
C4_8 O2_8 1_555 1_555
O8 C3_8 1_555 1_555
O2_8 Cu8_3 1_555 1_555
O3_8 C4_8 1_555 1_555
Cu4_3 O3_8 1_555 1_555
Cu6_3 O3_8 1_555 1_555
C1_8 H1_8 1_555 1_555
C1_9 C2_9 1_555 1_555
C2_9 C4_9 1_555 1_555
C3_9 C1_9 1_555 1_555
C4_9 O2_9 1_555 1_555
O8_2 C3_9 1_555 1_555
O2_9 Cu8 1_555 1_555
C1_9 H1_9 1_555 1_555
C5_9 C6_9 1_555 1_555
C8_9 C6_9 1_555 1_555
O4_9 C7_9 1_555 1_555
O9_4 C8_9 1_555 1_555
C5_9 C7_9 1_555 1_555
C5_9 H2_9 1_555 1_555
Cu6 O3_9 1_555 1_555

#END
