
###############################################################################
#
# This file contains modified crystal structure data generated from the
# MOF subset of the Cambridge Structural Database (CSD) v543 
# hosted by the Cambridge Crystallographic Data Centre (CCDC).
#
# This work is licensed under the Creative Commons
# Attribution-NonCommercial-ShareAlike 4.0 International License.
# To view a copy of this license, visit
# http://creativecommons.org/licenses/by-nc-sa/4.0/
# or send a letter to
# Creative Commons, PO Box 1866, Mountain View, CA 94042, USA.
#
# CIF created using the CSD Python API on 29 September 2022
# The structure has been converted into the P1 space group
# The structure has a 3D framework
# The original CSD entry MOKYAP88 is in the rhombohedral crystal system
# The framework has been calculated to contain at least 10.0% void space
# The void calculation uses a probe of radius 1.32A, grid spacing 0.4
# H atom positions have been added when not included in the experimental data
#
###############################################################################

data_MOKYAP88
_chemical_formula_moiety         '(C72 H18 Cu7 O44)n'
_symmetry_cell_setting           triclinic
_symmetry_space_group_name_H-M   'P 1'
_symmetry_Int_Tables_number      1
_space_group_name_Hall           'P 1'
loop_
_symmetry_equiv_pos_site_id
_symmetry_equiv_pos_as_xyz
1 x,y,z
_cell_length_a                   25.9143(3)
_cell_length_b                   25.9143(3)
_cell_length_c                   6.27614(6)
_cell_angle_alpha                90
_cell_angle_beta                 90
_cell_angle_gamma                120
_cell_volume                     3650.08
loop_
_atom_site_label
_atom_site_type_symbol
_atom_site_fract_x
_atom_site_fract_y
_atom_site_fract_z
Cu7 Cu 0.31801(7) 0.37125(5) 0.0091(2)
Cu1 Cu 0.29542(5) 0.28010(5) 0.3424(2)
C1 C 0.1611(3) 0.3127(3) 0.1249(13)
C2 C 0.1201(4) 0.3270(4) 0.1985(15)
C3 C 0.2092(4) 0.3188(4) 0.2551(12)
C4 C 0.0765(3) 0.3232(4) 0.0325(13)
O1 O 0.2517(2) 0.3073(2) 0.1701(9)
O3 O 0.0521(2) 0.3548(2) 0.0664(8)
C5 C 0.1722(3) 0.3540(3) 0.5418(13)
C6 C 0.2132(4) 0.3397(4) 0.4682(15)
C7 C 0.1241(4) 0.3479(4) 0.4116(12)
C8 C 0.2568(3) 0.3435(4) 0.6342(13)
O4 O 0.0816(2) 0.3594(2) 0.4966(9)
O5 O 0.2668(2) 0.3748(2) 0.7968(10)
O6 O 0.2812(2) 0.3119(2) 0.6003(8)
Cu4 Cu 0.01532(7) 0.29542(5) 0.6576(2)
Cu5 Cu 0.38657(5) 0.34865(7) 0.6757(2)
Cu8 Cu 0.03791(5) 0.38657(5) 0.3243(2)
O7 O 0.3594(2) 0.2777(3) 0.5034(9)
O9 O 0.2919(2) 0.2254(3) 0.1301(10)
O12 O 0.3640(3) 0.3854(2) 0.2669(8)
H2 H 0.176319 0.37046 0.704044
O2 O 0.0665(2) 0.2919(2) 0.8699(10)
O8 O 0.3889(3) 0.4150(2) 0.8368(9)
O11 O 0.3548(2) 0.3027(3) 0.9336(8)
H1 H 0.157014 0.296207 0.962623
Cu6 Cu 0.94677(5) 0.31801(7) 0.9909(2)
Cu6_2 Cu 0.37125(9) 0.05323(5) 0.9909(2)
Cu7_2 Cu 0.05323(9) 0.68199(7) 0.0091(2)
C1_2 C 0.1516(4) 0.8389(3) 0.1249(13)
C2_2 C 0.2069(6) 0.8799(4) 0.1985(15)
C3_2 C 0.1096(6) 0.7908(4) 0.2551(12)
C4_2 C 0.2467(5) 0.9235(3) 0.0325(13)
O1_2 O 0.0556(3) 0.7483(2) 0.1701(9)
O3_2 O 0.3027(3) 0.9479(2) 0.0664(8)
C5_2 C 0.1817(4) 0.8278(3) 0.5418(13)
C6_2 C 0.1264(6) 0.7868(4) 0.4682(15)
C7_2 C 0.2237(6) 0.8759(4) 0.4116(12)
C8_2 C 0.0866(5) 0.7432(3) 0.6342(13)
O4_2 O 0.2777(3) 0.9184(2) 0.4966(9)
O5_2 O 0.1079(3) 0.7332(2) 0.7968(10)
O6_2 O 0.0306(3) 0.7188(2) 0.6003(8)
Cu4_2 Cu 0.28010(9) 0.98468(7) 0.6576(2)
Cu8_2 Cu 0.34865(7) 0.96209(5) 0.3243(2)
O12_2 O 0.0215(4) 0.6360(3) 0.2669(8)
H2_2 H 0.194141 0.823681 0.704044
O2_2 O 0.2254(3) 0.9335(2) 0.8699(10)
O8_2 O 0.0260(4) 0.6111(3) 0.8368(9)
H1_2 H 0.139193 0.842986 0.962623
Cu1_2 Cu 0.98468(7) 0.70458(5) 0.3424(2)
Cu5_2 Cu 0.96209(9) 0.61343(5) 0.6757(2)
O7_2 O 0.9184(4) 0.6406(2) 0.5034(9)
O9_2 O 0.9335(4) 0.7081(2) 0.1301(10)
O11_2 O 0.9479(4) 0.6452(2) 0.9336(8)
Cu1_3 Cu 0.71990(5) 0.01532(7) 0.3424(2)
Cu5_3 Cu 0.65135(7) 0.03791(9) 0.6757(2)
O7_3 O 0.7223(3) 0.0816(4) 0.5034(9)
O9_3 O 0.7746(3) 0.0665(4) 0.1301(10)
O11_3 O 0.6973(3) 0.0521(4) 0.9336(8)
Cu7_3 Cu 0.62875(5) 0.94677(9) 0.0091(2)
C1_3 C 0.6873(3) 0.8484(4) 0.1249(13)
C2_3 C 0.6730(4) 0.7931(6) 0.1985(15)
C3_3 C 0.6812(4) 0.8904(6) 0.2551(12)
C4_3 C 0.6768(4) 0.7533(5) 0.0325(13)
O1_3 O 0.6927(2) 0.9444(3) 0.1701(9)
O3_3 O 0.6452(2) 0.6973(3) 0.0664(8)
C5_3 C 0.6460(3) 0.8183(4) 0.5418(13)
C6_3 C 0.6603(4) 0.8736(6) 0.4682(15)
C7_3 C 0.6521(4) 0.7763(6) 0.4116(12)
C8_3 C 0.6565(4) 0.9134(5) 0.6342(13)
O4_3 O 0.6406(2) 0.7223(3) 0.4966(9)
O5_3 O 0.6252(2) 0.8921(3) 0.7968(10)
O6_3 O 0.6881(2) 0.9694(3) 0.6003(8)
Cu4_3 Cu 0.70458(5) 0.71990(9) 0.6576(2)
Cu8_3 Cu 0.61343(5) 0.65135(7) 0.3243(2)
O12_3 O 0.6146(2) 0.9785(4) 0.2669(8)
H2_3 H 0.62954 0.805859 0.704044
O2_3 O 0.7081(2) 0.7746(3) 0.8699(10)
Cu6_3 Cu 0.68199(7) 0.62875(9) 0.9909(2)
O8_3 O 0.5850(2) 0.9740(4) 0.8368(9)
H1_3 H 0.703793 0.860807 0.962623
H2_4 H 0.842986 0.703793 0.037377
C1_4 C 0.8278(3) 0.6460(3) 0.4582(13)
C2_4 C 0.7868(4) 0.6603(4) 0.5318(15)
C3_4 C 0.8759(4) 0.6521(4) 0.5884(12)
C4_4 C 0.7432(3) 0.6565(4) 0.3658(13)
O2_4 O 0.7332(2) 0.6252(2) 0.2032(10)
O3_4 O 0.7188(2) 0.6881(2) 0.3997(8)
C5_4 C 0.8389(3) 0.6873(3) 0.8751(13)
C6_4 C 0.8799(4) 0.6730(4) 0.8015(15)
C7_4 C 0.7908(4) 0.6812(4) 0.7449(12)
C8_4 C 0.9235(3) 0.6768(4) 0.9675(13)
O4_4 O 0.7483(2) 0.6927(2) 0.8299(9)
O9_4 O 0.9586(2) 0.5587(3) 0.4634(10)
H1_4 H 0.823681 0.62954 0.295956
H2_5 H 0.860807 0.157014 0.037377
C1_5 C 0.8183(4) 0.1722(3) 0.4582(13)
C2_5 C 0.8736(6) 0.2132(4) 0.5318(15)
C3_5 C 0.7763(6) 0.1241(4) 0.5884(12)
C4_5 C 0.9134(5) 0.2568(3) 0.3658(13)
O2_5 O 0.8921(3) 0.2668(2) 0.2032(10)
O3_5 O 0.9694(3) 0.2812(2) 0.3997(8)
C5_5 C 0.8484(4) 0.1611(3) 0.8751(13)
C6_5 C 0.7931(6) 0.1201(4) 0.8015(15)
C7_5 C 0.8904(6) 0.2092(4) 0.7449(12)
C8_5 C 0.7533(5) 0.0765(3) 0.9675(13)
O4_5 O 0.9444(3) 0.2517(2) 0.8299(9)
O9_5 O 0.6002(4) 0.0414(2) 0.4634(10)
H1_5 H 0.805859 0.176319 0.295956
H2_6 H 0.296207 0.139193 0.037377
C1_6 C 0.3540(3) 0.1817(4) 0.4582(13)
C2_6 C 0.3397(4) 0.1264(6) 0.5318(15)
C3_6 C 0.3479(4) 0.2237(6) 0.5884(12)
C4_6 C 0.3435(4) 0.0866(5) 0.3658(13)
O2_6 O 0.3748(2) 0.1079(3) 0.2032(10)
O3_6 O 0.3119(2) 0.0306(3) 0.3997(8)
C5_6 C 0.3127(3) 0.1516(4) 0.8751(13)
C6_6 C 0.3270(4) 0.2069(6) 0.8015(15)
C7_6 C 0.3188(4) 0.1096(6) 0.7449(12)
C8_6 C 0.3232(4) 0.2467(5) 0.9675(13)
O4_6 O 0.3073(2) 0.0556(3) 0.8299(9)
O9_6 O 0.4413(3) 0.3998(4) 0.4634(10)
H1_6 H 0.37046 0.194141 0.295956
C5_7 C 0.5056(3) 0.0206(3) 0.2084(13)
C6_7 C 0.5466(4) 0.0063(4) 0.1348(15)
C7_7 C 0.4575(4) 0.0145(4) 0.0782(12)
C8_7 C 0.5902(3) 0.0101(4) 0.3008(13)
O4_7 O 0.4150(2) 0.0260(2) 0.1632(9)
H2_7 H 0.509652 0.0371264 0.37071
O3_7 O 0.3854(2) 0.0215(2) 0.7331(8)
C1_7 C 0.4944(3) 0.9794(3) 0.7916(13)
C2_7 C 0.4534(4) 0.9937(4) 0.8652(15)
C3_7 C 0.5425(4) 0.9855(4) 0.9218(12)
C4_7 C 0.4098(3) 0.9899(4) 0.6992(13)
O2_7 O 0.3998(2) 0.9586(2) 0.5366(10)
H1_7 H 0.490348 0.962874 0.62929
C5_8 C 0.5151(4) 0.4944(3) 0.2084(13)
C6_8 C 0.4598(6) 0.4534(4) 0.1348(15)
C7_8 C 0.5571(6) 0.5425(4) 0.0782(12)
C8_8 C 0.4200(5) 0.4098(3) 0.3008(13)
O4_8 O 0.6111(3) 0.5850(2) 0.1632(9)
H2_8 H 0.527474 0.490348 0.37071
C1_8 C 0.4849(4) 0.5056(3) 0.7916(13)
C2_8 C 0.5402(6) 0.5466(4) 0.8652(15)
C3_8 C 0.4429(6) 0.4575(4) 0.9218(12)
C4_8 C 0.5800(5) 0.5902(3) 0.6992(13)
O2_8 O 0.5587(3) 0.6002(2) 0.5366(10)
O3_8 O 0.6360(3) 0.6146(2) 0.7331(8)
H1_8 H 0.472526 0.509652 0.62929
C1_9 C 0.0206(3) 0.5151(4) 0.7916(13)
C2_9 C 0.0063(4) 0.4598(6) 0.8652(15)
C3_9 C 0.0145(4) 0.5571(6) 0.9218(12)
C4_9 C 0.0101(4) 0.4200(5) 0.6992(13)
O2_9 O 0.0414(2) 0.4413(3) 0.5366(10)
H1_9 H 0.0371264 0.527474 0.62929
C5_9 C 0.9794(3) 0.4849(4) 0.2084(13)
C6_9 C 0.9937(4) 0.5402(6) 0.1348(15)
C7_9 C 0.9855(4) 0.4429(6) 0.0782(12)
C8_9 C 0.9899(4) 0.5800(5) 0.3008(13)
O4_9 O 0.9740(2) 0.3889(3) 0.1632(9)
H2_9 H 0.962874 0.472526 0.37071
O3_9 O 0.9785(2) 0.3640(3) 0.7331(8)
loop_
_geom_bond_atom_site_label_1
_geom_bond_atom_site_label_2
_geom_bond_site_symmetry_1
_geom_bond_site_symmetry_2
Cu1 O1 1_555 1_555
C1 C2 1_555 1_555
C2 C4 1_555 1_555
C3 C1 1_555 1_555
O1 C3 1_555 1_555
O3 C4 1_555 1_555
C5 C6 1_555 1_555
C6 C3 1_555 1_555
C7 C2 1_555 1_555
C8 C6 1_555 1_555
O4 C7 1_555 1_555
O5 C8 1_555 1_555
O6 Cu1 1_555 1_555
Cu7 O1 1_555 1_555
Cu4 O4 1_555 1_555
Cu5 O6 1_555 1_555
Cu8 O3 1_555 1_555
O7 Cu1 1_555 1_555
O9 Cu1 1_555 1_555
O12 Cu1 1_555 1_555
C5 C7 1_555 1_555
C8 O6 1_555 1_555
O4 Cu8 1_555 1_555
Cu7 O12 1_555 1_555
Cu5 O7 1_555 1_555
C5 H2 1_555 1_555
O2 Cu4 1_555 1_555
C1_2 C2_2 1_555 1_555
C2_2 C4_2 1_555 1_555
C3_2 C1_2 1_555 1_555
O1_2 C3_2 1_555 1_555
O3_2 C4_2 1_555 1_555
C5_2 C6_2 1_555 1_555
C6_2 C3_2 1_555 1_555
C7_2 C2_2 1_555 1_555
C8_2 C6_2 1_555 1_555
O4_2 C7_2 1_555 1_555
O5_2 C8_2 1_555 1_555
Cu7_2 O1_2 1_555 1_555
Cu4_2 O4_2 1_555 1_555
Cu8_2 O3_2 1_555 1_555
C5_2 C7_2 1_555 1_555
C8_2 O6_2 1_555 1_555
O4_2 Cu8_2 1_555 1_555
Cu7_2 O12_2 1_555 1_555
C5_2 H2_2 1_555 1_555
O2_2 Cu4_2 1_555 1_555
O7_2 Cu1_2 1_555 1_555
O9_2 Cu1_2 1_555 1_555
Cu5_2 O7_2 1_555 1_555
O7_3 Cu1_3 1_555 1_555
O9_3 Cu1_3 1_555 1_555
Cu5_3 O7_3 1_555 1_555
C1_3 C2_3 1_555 1_555
C2_3 C4_3 1_555 1_555
C3_3 C1_3 1_555 1_555
O1_3 C3_3 1_555 1_555
O3_3 C4_3 1_555 1_555
C5_3 C6_3 1_555 1_555
C6_3 C3_3 1_555 1_555
C7_3 C2_3 1_555 1_555
C8_3 C6_3 1_555 1_555
O4_3 C7_3 1_555 1_555
O5_3 C8_3 1_555 1_555
Cu7_3 O1_3 1_555 1_555
Cu4_3 O4_3 1_555 1_555
Cu8_3 O3_3 1_555 1_555
C5_3 C7_3 1_555 1_555
C8_3 O6_3 1_555 1_555
O4_3 Cu8_3 1_555 1_555
Cu7_3 O12_3 1_555 1_555
C5_3 H2_3 1_555 1_555
O2_3 Cu4_3 1_555 1_555
C1_4 C2_4 1_555 1_555
C2_4 C4_4 1_555 1_555
C3_4 C1_4 1_555 1_555
C4_4 O2_4 1_555 1_555
O7_2 C3_4 1_555 1_555
O3_4 C4_4 1_555 1_555
C5_4 C6_4 1_555 1_555
C6_4 C3_4 1_555 1_555
C7_4 C2_4 1_555 1_555
C8_4 C6_4 1_555 1_555
O4_4 C7_4 1_555 1_555
O11_2 Cu5_2 1_555 1_555
Cu6_3 O4_4 1_555 1_555
Cu8_3 O3_4 1_555 1_555
Cu4_3 O3_4 1_555 1_555
O9_4 Cu5_2 1_555 1_555
C5_4 C7_4 1_555 1_555
C8_4 O11_2 1_555 1_555
O4_4 Cu4_3 1_555 1_555
C1_4 H1_4 1_555 1_555
C1_5 C2_5 1_555 1_555
C2_5 C4_5 1_555 1_555
C3_5 C1_5 1_555 1_555
C4_5 O2_5 1_555 1_555
O7_3 C3_5 1_555 1_555
O3_5 C4_5 1_555 1_555
C5_5 C6_5 1_555 1_555
C6_5 C3_5 1_555 1_555
C7_5 C2_5 1_555 1_555
C8_5 C6_5 1_555 1_555
O4_5 C7_5 1_555 1_555
O11_3 Cu5_3 1_555 1_555
Cu6 O4_5 1_555 1_555
O9_5 Cu5_3 1_555 1_555
C5_5 C7_5 1_555 1_555
C8_5 O11_3 1_555 1_555
C1_5 H1_5 1_555 1_555
C1_6 C2_6 1_555 1_555
C2_6 C4_6 1_555 1_555
C3_6 C1_6 1_555 1_555
C4_6 O2_6 1_555 1_555
O7 C3_6 1_555 1_555
O3_6 C4_6 1_555 1_555
C5_6 C6_6 1_555 1_555
C6_6 C3_6 1_555 1_555
C7_6 C2_6 1_555 1_555
C8_6 C6_6 1_555 1_555
O4_6 C7_6 1_555 1_555
O11 Cu5 1_555 1_555
Cu6_2 O4_6 1_555 1_555
O8 Cu5 1_555 1_555
O9_6 Cu5 1_555 1_555
C5_6 C7_6 1_555 1_555
C8_6 O11 1_555 1_555
C1_6 H1_6 1_555 1_555
C5_7 C6_7 1_555 1_555
C8_7 C6_7 1_555 1_555
O4_7 C7_7 1_555 1_555
O9_5 C8_7 1_555 1_555
C5_7 C7_7 1_555 1_555
C5_7 H2_7 1_555 1_555
Cu6_2 O3_7 1_555 1_555
C1_7 C2_7 1_555 1_555
C2_7 C4_7 1_555 1_555
C3_7 C1_7 1_555 1_555
C4_7 O2_7 1_555 1_555
O8_3 C3_7 1_555 1_555
O2_7 Cu8_2 1_555 1_555
C1_7 H1_7 1_555 1_555
C5_8 C6_8 1_555 1_555
C8_8 C6_8 1_555 1_555
O4_8 C7_8 1_555 1_555
O9_6 C8_8 1_555 1_555
Cu8_3 O4_8 1_555 1_555
C5_8 C7_8 1_555 1_555
C8_8 O12 1_555 1_555
C5_8 H2_8 1_555 1_555
C1_8 C2_8 1_555 1_555
C2_8 C4_8 1_555 1_555
C3_8 C1_8 1_555 1_555
C4_8 O2_8 1_555 1_555
O8 C3_8 1_555 1_555
O2_8 Cu8_3 1_555 1_555
O3_8 C4_8 1_555 1_555
Cu4_3 O3_8 1_555 1_555
Cu6_3 O3_8 1_555 1_555
C1_8 H1_8 1_555 1_555
C1_9 C2_9 1_555 1_555
C2_9 C4_9 1_555 1_555
C3_9 C1_9 1_555 1_555
C4_9 O2_9 1_555 1_555
O8_2 C3_9 1_555 1_555
O2_9 Cu8 1_555 1_555
C1_9 H1_9 1_555 1_555
C5_9 C6_9 1_555 1_555
C8_9 C6_9 1_555 1_555
O4_9 C7_9 1_555 1_555
O9_4 C8_9 1_555 1_555
C5_9 C7_9 1_555 1_555
C5_9 H2_9 1_555 1_555
Cu6 O3_9 1_555 1_555

#END
