
###############################################################################
#
# This file contains modified crystal structure data generated from the
# MOF subset of the Cambridge Structural Database (CSD) v543 
# hosted by the Cambridge Crystallographic Data Centre (CCDC).
#
# This work is licensed under the Creative Commons
# Attribution-NonCommercial-ShareAlike 4.0 International License.
# To view a copy of this license, visit
# http://creativecommons.org/licenses/by-nc-sa/4.0/
# or send a letter to
# Creative Commons, PO Box 1866, Mountain View, CA 94042, USA.
#
# CIF created using the CSD Python API on 29 September 2022
# The structure has been converted into the P1 space group
# The structure has a 3D framework
# The original CSD entry MOKYAP91 is in the rhombohedral crystal system
# The framework has been calculated to contain at least 10.0% void space
# The void calculation uses a probe of radius 1.32A, grid spacing 0.4
# H atom positions have been added when not included in the experimental data
#
###############################################################################

data_MOKYAP91
_chemical_formula_moiety         '(C72 H18 Cu7 O44)n'
_symmetry_cell_setting           triclinic
_symmetry_space_group_name_H-M   'P 1'
_symmetry_Int_Tables_number      1
_space_group_name_Hall           'P 1'
loop_
_symmetry_equiv_pos_site_id
_symmetry_equiv_pos_as_xyz
1 x,y,z
_cell_length_a                   25.9142(3)
_cell_length_b                   25.9142(3)
_cell_length_c                   6.27625(7)
_cell_angle_alpha                90
_cell_angle_beta                 90
_cell_angle_gamma                120
_cell_volume                     3650.11
loop_
_atom_site_label
_atom_site_type_symbol
_atom_site_fract_x
_atom_site_fract_y
_atom_site_fract_z
Cu7 Cu 0.31802(7) 0.37126(5) 0.00903(19)
Cu1 Cu 0.29541(5) 0.28010(5) 0.34236(19)
C1 C 0.1609(3) 0.3124(3) 0.1242(13)
C2 C 0.1202(4) 0.3273(4) 0.1986(15)
C3 C 0.2094(4) 0.3191(4) 0.2552(12)
C4 C 0.0763(3) 0.3229(4) 0.0334(13)
O1 O 0.2517(2) 0.3074(2) 0.1701(9)
O3 O 0.0520(2) 0.3547(2) 0.0659(8)
C5 C 0.1724(3) 0.3543(3) 0.5425(13)
C6 C 0.2131(4) 0.3394(4) 0.4681(15)
C7 C 0.1239(4) 0.3476(4) 0.4115(12)
C8 C 0.2570(3) 0.3438(4) 0.6333(13)
O4 O 0.0816(2) 0.3593(2) 0.4966(9)
O5 O 0.2666(2) 0.3745(2) 0.7967(9)
O6 O 0.2813(2) 0.3120(2) 0.6008(8)
Cu4 Cu 0.01531(7) 0.29541(5) 0.65764(19)
Cu5 Cu 0.38657(5) 0.34864(7) 0.67569(19)
Cu8 Cu 0.03792(5) 0.38657(5) 0.32431(19)
O7 O 0.3593(2) 0.2776(3) 0.5034(9)
O9 O 0.2922(2) 0.2255(3) 0.1300(9)
O12 O 0.3640(3) 0.3853(2) 0.2674(8)
H1 H 0.176987 0.37149 0.703813
O2 O 0.0667(2) 0.2922(2) 0.8700(9)
O8 O 0.3890(3) 0.4150(2) 0.8368(9)
O11 O 0.3547(2) 0.3027(3) 0.9341(8)
H2 H 0.156347 0.295177 0.962854
Cu6 Cu 0.94677(5) 0.31802(7) 0.99097(19)
Cu6_2 Cu 0.37126(9) 0.05323(5) 0.99097(19)
Cu7_2 Cu 0.05323(9) 0.68198(7) 0.00903(19)
C1_2 C 0.1515(4) 0.8391(3) 0.1242(13)
C2_2 C 0.2071(6) 0.8798(4) 0.1986(15)
C3_2 C 0.1097(6) 0.7906(4) 0.2552(12)
C4_2 C 0.2466(5) 0.9237(3) 0.0334(13)
O1_2 O 0.0557(3) 0.7483(2) 0.1701(9)
O3_2 O 0.3027(3) 0.9480(2) 0.0659(8)
C5_2 C 0.1818(4) 0.8276(3) 0.5425(13)
C6_2 C 0.1262(6) 0.7869(4) 0.4681(15)
C7_2 C 0.2236(6) 0.8761(4) 0.4115(12)
C8_2 C 0.0867(5) 0.7430(3) 0.6333(13)
O4_2 O 0.2776(3) 0.9184(2) 0.4966(9)
O5_2 O 0.1078(3) 0.7334(2) 0.7967(9)
O6_2 O 0.0306(3) 0.7187(2) 0.6008(8)
Cu4_2 Cu 0.28010(9) 0.98469(7) 0.65764(19)
Cu8_2 Cu 0.34864(7) 0.96208(5) 0.32431(19)
O12_2 O 0.0214(4) 0.6360(3) 0.2674(8)
H1_2 H 0.194503 0.823013 0.703813
O2_2 O 0.2255(3) 0.9333(2) 0.8700(9)
O8_2 O 0.0259(4) 0.6110(3) 0.8368(9)
H2_2 H 0.13883 0.843653 0.962854
Cu1_2 Cu 0.98469(7) 0.70459(5) 0.34236(19)
Cu5_2 Cu 0.96208(9) 0.61343(5) 0.67569(19)
O7_2 O 0.9184(4) 0.6407(2) 0.5034(9)
O9_2 O 0.9333(4) 0.7078(2) 0.1300(9)
O11_2 O 0.9480(4) 0.6453(2) 0.9341(8)
Cu1_3 Cu 0.71990(5) 0.01531(7) 0.34236(19)
Cu5_3 Cu 0.65136(7) 0.03792(9) 0.67569(19)
O7_3 O 0.7224(3) 0.0816(4) 0.5034(9)
O9_3 O 0.7745(3) 0.0667(4) 0.1300(9)
O11_3 O 0.6973(3) 0.0520(4) 0.9341(8)
Cu7_3 Cu 0.62874(5) 0.94677(9) 0.00903(19)
C1_3 C 0.6876(3) 0.8485(4) 0.1242(13)
C2_3 C 0.6727(4) 0.7929(6) 0.1986(15)
C3_3 C 0.6809(4) 0.8903(6) 0.2552(12)
C4_3 C 0.6771(4) 0.7534(5) 0.0334(13)
O1_3 O 0.6926(2) 0.9443(3) 0.1701(9)
O3_3 O 0.6453(2) 0.6973(3) 0.0659(8)
C5_3 C 0.6457(3) 0.8182(4) 0.5425(13)
C6_3 C 0.6606(4) 0.8738(6) 0.4681(15)
C7_3 C 0.6524(4) 0.7764(6) 0.4115(12)
C8_3 C 0.6562(4) 0.9133(5) 0.6333(13)
O4_3 O 0.6407(2) 0.7224(3) 0.4966(9)
O5_3 O 0.6255(2) 0.8922(3) 0.7967(9)
O6_3 O 0.6880(2) 0.9694(3) 0.6008(8)
Cu4_3 Cu 0.70459(5) 0.71990(9) 0.65764(19)
Cu8_3 Cu 0.61343(5) 0.65136(7) 0.32431(19)
O12_3 O 0.6147(2) 0.9786(4) 0.2674(8)
H1_3 H 0.62851 0.805497 0.703813
O2_3 O 0.7078(2) 0.7745(3) 0.8700(9)
Cu6_3 Cu 0.68198(7) 0.62874(9) 0.99097(19)
O8_3 O 0.5850(2) 0.9741(4) 0.8368(9)
H2_3 H 0.704823 0.86117 0.962854
H1_4 H 0.843653 0.704823 0.0371462
C1_4 C 0.8276(3) 0.6457(3) 0.4575(13)
C2_4 C 0.7869(4) 0.6606(4) 0.5319(15)
C3_4 C 0.8761(4) 0.6524(4) 0.5885(12)
C4_4 C 0.7430(3) 0.6562(4) 0.3667(13)
O2_4 O 0.7334(2) 0.6255(2) 0.2033(9)
O3_4 O 0.7187(2) 0.6880(2) 0.3992(8)
C5_4 C 0.8391(3) 0.6876(3) 0.8758(13)
C6_4 C 0.8798(4) 0.6727(4) 0.8014(15)
C7_4 C 0.7906(4) 0.6809(4) 0.7448(12)
C8_4 C 0.9237(3) 0.6771(4) 0.9666(13)
O4_4 O 0.7483(2) 0.6926(2) 0.8299(9)
O9_4 O 0.9589(2) 0.5588(3) 0.4633(9)
H2_4 H 0.823013 0.62851 0.296187
H1_5 H 0.86117 0.156347 0.0371462
C1_5 C 0.8182(4) 0.1724(3) 0.4575(13)
C2_5 C 0.8738(6) 0.2131(4) 0.5319(15)
C3_5 C 0.7764(6) 0.1239(4) 0.5885(12)
C4_5 C 0.9133(5) 0.2570(3) 0.3667(13)
O2_5 O 0.8922(3) 0.2666(2) 0.2033(9)
O3_5 O 0.9694(3) 0.2813(2) 0.3992(8)
C5_5 C 0.8485(4) 0.1609(3) 0.8758(13)
C6_5 C 0.7929(6) 0.1202(4) 0.8014(15)
C7_5 C 0.8903(6) 0.2094(4) 0.7448(12)
C8_5 C 0.7534(5) 0.0763(3) 0.9666(13)
O4_5 O 0.9443(3) 0.2517(2) 0.8299(9)
O9_5 O 0.6000(4) 0.0411(2) 0.4633(9)
H2_5 H 0.805497 0.176987 0.296187
H1_6 H 0.295177 0.13883 0.0371462
C1_6 C 0.3543(3) 0.1818(4) 0.4575(13)
C2_6 C 0.3394(4) 0.1262(6) 0.5319(15)
C3_6 C 0.3476(4) 0.2236(6) 0.5885(12)
C4_6 C 0.3438(4) 0.0867(5) 0.3667(13)
O2_6 O 0.3745(2) 0.1078(3) 0.2033(9)
O3_6 O 0.3120(2) 0.0306(3) 0.3992(8)
C5_6 C 0.3124(3) 0.1515(4) 0.8758(13)
C6_6 C 0.3273(4) 0.2071(6) 0.8014(15)
C7_6 C 0.3191(4) 0.1097(6) 0.7448(12)
C8_6 C 0.3229(4) 0.2466(5) 0.9666(13)
O4_6 O 0.3074(2) 0.0557(3) 0.8299(9)
O9_6 O 0.4412(3) 0.4000(4) 0.4633(9)
H2_6 H 0.37149 0.194503 0.296187
C5_7 C 0.5058(3) 0.0209(3) 0.2091(13)
C6_7 C 0.5465(4) 0.0060(4) 0.1347(15)
C7_7 C 0.4573(4) 0.0142(4) 0.0781(12)
C8_7 C 0.5904(3) 0.0104(4) 0.2999(13)
O4_7 O 0.4150(2) 0.0259(2) 0.1632(9)
H1_7 H 0.51032 0.0381565 0.370479
O3_7 O 0.3853(2) 0.0214(2) 0.7326(8)
C1_7 C 0.4942(3) 0.9791(3) 0.7909(13)
C2_7 C 0.4535(4) 0.9940(4) 0.8653(15)
C3_7 C 0.5427(4) 0.9858(4) 0.9219(12)
C4_7 C 0.4096(3) 0.9896(4) 0.7001(13)
O2_7 O 0.4000(2) 0.9589(2) 0.5367(9)
H2_7 H 0.48968 0.961844 0.629521
C5_8 C 0.5152(4) 0.4942(3) 0.2091(13)
C6_8 C 0.4596(6) 0.4535(4) 0.1347(15)
C7_8 C 0.5570(6) 0.5427(4) 0.0781(12)
C8_8 C 0.4201(5) 0.4096(3) 0.2999(13)
O4_8 O 0.6110(3) 0.5850(2) 0.1632(9)
H1_8 H 0.527836 0.48968 0.370479
C1_8 C 0.4848(4) 0.5058(3) 0.7909(13)
C2_8 C 0.5404(6) 0.5465(4) 0.8653(15)
C3_8 C 0.4430(6) 0.4573(4) 0.9219(12)
C4_8 C 0.5799(5) 0.5904(3) 0.7001(13)
O2_8 O 0.5588(3) 0.6000(2) 0.5367(9)
O3_8 O 0.6360(3) 0.6147(2) 0.7326(8)
H2_8 H 0.472164 0.51032 0.629521
C1_9 C 0.0209(3) 0.5152(4) 0.7909(13)
C2_9 C 0.0060(4) 0.4596(6) 0.8653(15)
C3_9 C 0.0142(4) 0.5570(6) 0.9219(12)
C4_9 C 0.0104(4) 0.4201(5) 0.7001(13)
O2_9 O 0.0411(2) 0.4412(3) 0.5367(9)
H2_9 H 0.0381565 0.527836 0.629521
C5_9 C 0.9791(3) 0.4848(4) 0.2091(13)
C6_9 C 0.9940(4) 0.5404(6) 0.1347(15)
C7_9 C 0.9858(4) 0.4430(6) 0.0781(12)
C8_9 C 0.9896(4) 0.5799(5) 0.2999(13)
O4_9 O 0.9741(2) 0.3890(3) 0.1632(9)
H1_9 H 0.961844 0.472164 0.370479
O3_9 O 0.9786(2) 0.3640(3) 0.7326(8)
loop_
_geom_bond_atom_site_label_1
_geom_bond_atom_site_label_2
_geom_bond_site_symmetry_1
_geom_bond_site_symmetry_2
Cu1 O1 1_555 1_555
C1 C2 1_555 1_555
C2 C4 1_555 1_555
C3 C1 1_555 1_555
O1 C3 1_555 1_555
O3 C4 1_555 1_555
C5 C6 1_555 1_555
C6 C3 1_555 1_555
C7 C2 1_555 1_555
C8 C6 1_555 1_555
O4 C7 1_555 1_555
O5 C8 1_555 1_555
O6 Cu1 1_555 1_555
Cu7 O1 1_555 1_555
Cu4 O4 1_555 1_555
Cu5 O6 1_555 1_555
Cu8 O3 1_555 1_555
O7 Cu1 1_555 1_555
O9 Cu1 1_555 1_555
O12 Cu1 1_555 1_555
C5 C7 1_555 1_555
C8 O6 1_555 1_555
O4 Cu8 1_555 1_555
Cu7 O12 1_555 1_555
Cu5 O7 1_555 1_555
C5 H1 1_555 1_555
O2 Cu4 1_555 1_555
C1_2 C2_2 1_555 1_555
C2_2 C4_2 1_555 1_555
C3_2 C1_2 1_555 1_555
O1_2 C3_2 1_555 1_555
O3_2 C4_2 1_555 1_555
C5_2 C6_2 1_555 1_555
C6_2 C3_2 1_555 1_555
C7_2 C2_2 1_555 1_555
C8_2 C6_2 1_555 1_555
O4_2 C7_2 1_555 1_555
O5_2 C8_2 1_555 1_555
Cu7_2 O1_2 1_555 1_555
Cu4_2 O4_2 1_555 1_555
Cu8_2 O3_2 1_555 1_555
C5_2 C7_2 1_555 1_555
C8_2 O6_2 1_555 1_555
O4_2 Cu8_2 1_555 1_555
Cu7_2 O12_2 1_555 1_555
C5_2 H1_2 1_555 1_555
O2_2 Cu4_2 1_555 1_555
O7_2 Cu1_2 1_555 1_555
O9_2 Cu1_2 1_555 1_555
Cu5_2 O7_2 1_555 1_555
O7_3 Cu1_3 1_555 1_555
O9_3 Cu1_3 1_555 1_555
Cu5_3 O7_3 1_555 1_555
C1_3 C2_3 1_555 1_555
C2_3 C4_3 1_555 1_555
C3_3 C1_3 1_555 1_555
O1_3 C3_3 1_555 1_555
O3_3 C4_3 1_555 1_555
C5_3 C6_3 1_555 1_555
C6_3 C3_3 1_555 1_555
C7_3 C2_3 1_555 1_555
C8_3 C6_3 1_555 1_555
O4_3 C7_3 1_555 1_555
O5_3 C8_3 1_555 1_555
Cu7_3 O1_3 1_555 1_555
Cu4_3 O4_3 1_555 1_555
Cu8_3 O3_3 1_555 1_555
C5_3 C7_3 1_555 1_555
C8_3 O6_3 1_555 1_555
O4_3 Cu8_3 1_555 1_555
Cu7_3 O12_3 1_555 1_555
C5_3 H1_3 1_555 1_555
O2_3 Cu4_3 1_555 1_555
C1_4 C2_4 1_555 1_555
C2_4 C4_4 1_555 1_555
C3_4 C1_4 1_555 1_555
C4_4 O2_4 1_555 1_555
O7_2 C3_4 1_555 1_555
O3_4 C4_4 1_555 1_555
C5_4 C6_4 1_555 1_555
C6_4 C3_4 1_555 1_555
C7_4 C2_4 1_555 1_555
C8_4 C6_4 1_555 1_555
O4_4 C7_4 1_555 1_555
O11_2 Cu5_2 1_555 1_555
Cu6_3 O4_4 1_555 1_555
Cu8_3 O3_4 1_555 1_555
Cu4_3 O3_4 1_555 1_555
O9_4 Cu5_2 1_555 1_555
C5_4 C7_4 1_555 1_555
C8_4 O11_2 1_555 1_555
O4_4 Cu4_3 1_555 1_555
C1_4 H2_4 1_555 1_555
C1_5 C2_5 1_555 1_555
C2_5 C4_5 1_555 1_555
C3_5 C1_5 1_555 1_555
C4_5 O2_5 1_555 1_555
O7_3 C3_5 1_555 1_555
O3_5 C4_5 1_555 1_555
C5_5 C6_5 1_555 1_555
C6_5 C3_5 1_555 1_555
C7_5 C2_5 1_555 1_555
C8_5 C6_5 1_555 1_555
O4_5 C7_5 1_555 1_555
O11_3 Cu5_3 1_555 1_555
Cu6 O4_5 1_555 1_555
O9_5 Cu5_3 1_555 1_555
C5_5 C7_5 1_555 1_555
C8_5 O11_3 1_555 1_555
C1_5 H2_5 1_555 1_555
C1_6 C2_6 1_555 1_555
C2_6 C4_6 1_555 1_555
C3_6 C1_6 1_555 1_555
C4_6 O2_6 1_555 1_555
O7 C3_6 1_555 1_555
O3_6 C4_6 1_555 1_555
C5_6 C6_6 1_555 1_555
C6_6 C3_6 1_555 1_555
C7_6 C2_6 1_555 1_555
C8_6 C6_6 1_555 1_555
O4_6 C7_6 1_555 1_555
O11 Cu5 1_555 1_555
Cu6_2 O4_6 1_555 1_555
O8 Cu5 1_555 1_555
O9_6 Cu5 1_555 1_555
C5_6 C7_6 1_555 1_555
C8_6 O11 1_555 1_555
C1_6 H2_6 1_555 1_555
C5_7 C6_7 1_555 1_555
C8_7 C6_7 1_555 1_555
O4_7 C7_7 1_555 1_555
O9_5 C8_7 1_555 1_555
C5_7 C7_7 1_555 1_555
C5_7 H1_7 1_555 1_555
Cu6_2 O3_7 1_555 1_555
C1_7 C2_7 1_555 1_555
C2_7 C4_7 1_555 1_555
C3_7 C1_7 1_555 1_555
C4_7 O2_7 1_555 1_555
O8_3 C3_7 1_555 1_555
O2_7 Cu8_2 1_555 1_555
C1_7 H2_7 1_555 1_555
C5_8 C6_8 1_555 1_555
C8_8 C6_8 1_555 1_555
O4_8 C7_8 1_555 1_555
O9_6 C8_8 1_555 1_555
Cu8_3 O4_8 1_555 1_555
C5_8 C7_8 1_555 1_555
C8_8 O12 1_555 1_555
C5_8 H1_8 1_555 1_555
C1_8 C2_8 1_555 1_555
C2_8 C4_8 1_555 1_555
C3_8 C1_8 1_555 1_555
C4_8 O2_8 1_555 1_555
O8 C3_8 1_555 1_555
O2_8 Cu8_3 1_555 1_555
O3_8 C4_8 1_555 1_555
Cu4_3 O3_8 1_555 1_555
Cu6_3 O3_8 1_555 1_555
C1_8 H2_8 1_555 1_555
C1_9 C2_9 1_555 1_555
C2_9 C4_9 1_555 1_555
C3_9 C1_9 1_555 1_555
C4_9 O2_9 1_555 1_555
O8_2 C3_9 1_555 1_555
O2_9 Cu8 1_555 1_555
C1_9 H2_9 1_555 1_555
C5_9 C6_9 1_555 1_555
C8_9 C6_9 1_555 1_555
O4_9 C7_9 1_555 1_555
O9_4 C8_9 1_555 1_555
C5_9 C7_9 1_555 1_555
C5_9 H1_9 1_555 1_555
Cu6 O3_9 1_555 1_555

#END
