
###############################################################################
#
# This file contains modified crystal structure data generated from the
# MOF subset of the Cambridge Structural Database (CSD) v543 
# hosted by the Cambridge Crystallographic Data Centre (CCDC).
#
# This work is licensed under the Creative Commons
# Attribution-NonCommercial-ShareAlike 4.0 International License.
# To view a copy of this license, visit
# http://creativecommons.org/licenses/by-nc-sa/4.0/
# or send a letter to
# Creative Commons, PO Box 1866, Mountain View, CA 94042, USA.
#
# CIF created using the CSD Python API on 29 September 2022
# The structure has been converted into the P1 space group
# The structure has a 3D framework
# The original CSD entry MOKYAP28 is in the rhombohedral crystal system
# The framework has been calculated to contain at least 10.0% void space
# The void calculation uses a probe of radius 1.32A, grid spacing 0.4
# H atom positions have been added when not included in the experimental data
#
###############################################################################

data_MOKYAP28
_chemical_formula_moiety         '(C72 H18 Cu7 O44)n'
_symmetry_cell_setting           triclinic
_symmetry_space_group_name_H-M   'P 1'
_symmetry_Int_Tables_number      1
_space_group_name_Hall           'P 1'
loop_
_symmetry_equiv_pos_site_id
_symmetry_equiv_pos_as_xyz
1 x,y,z
_cell_length_a                   25.9185(3)
_cell_length_b                   25.9185(3)
_cell_length_c                   6.27262(7)
_cell_angle_alpha                90
_cell_angle_beta                 90
_cell_angle_gamma                120
_cell_volume                     3649.21
loop_
_atom_site_label
_atom_site_type_symbol
_atom_site_fract_x
_atom_site_fract_y
_atom_site_fract_z
_atom_site_U_iso_or_equiv
_atom_site_thermal_displace_type
Cu7 Cu 0.31802(7) 0.37143(5) 0.0093(2) 0.0091 Uiso
Cu1 Cu 0.29524(5) 0.27993(5) 0.3426(2) 0.0091 Uiso
C1 C 0.1607(3) 0.3128(3) 0.1248(13) 0.0065 Uiso
C2 C 0.1201(4) 0.3267(4) 0.1975(15) 0.0114 Uiso
C3 C 0.2092(3) 0.3193(4) 0.2559(12) 0.0051 Uiso
C4 C 0.0778(3) 0.3241(4) 0.0298(14) 0.0101 Uiso
O1 O 0.2513(2) 0.3071(2) 0.1708(10) 0.0048 Uiso
O3 O 0.0520(2) 0.3546(2) 0.0682(8) 0.0048 Uiso
C5 C 0.1726(3) 0.3539(3) 0.5419(13) 0.0065 Uiso
C6 C 0.2132(4) 0.3400(4) 0.4692(15) 0.0114 Uiso
C7 C 0.1241(3) 0.3474(4) 0.4108(12) 0.0051 Uiso
C8 C 0.2555(3) 0.3426(4) 0.6369(14) 0.0101 Uiso
O4 O 0.0820(2) 0.3596(2) 0.4959(10) 0.0048 Uiso
O5 O 0.2669(2) 0.3746(2) 0.7962(9) 0.0111 Uiso
O6 O 0.2813(2) 0.3121(2) 0.5985(8) 0.0048 Uiso
Cu4 Cu 0.01531(7) 0.29524(5) 0.6574(2) 0.0091 Uiso
Cu5 Cu 0.38674(5) 0.34864(7) 0.6759(2) 0.0091 Uiso
Cu8 Cu 0.03809(5) 0.38674(5) 0.3241(2) 0.0091 Uiso
O7 O 0.3596(2) 0.2775(3) 0.5041(10) 0.0048 Uiso
O9 O 0.2921(2) 0.2257(3) 0.1295(9) 0.0111 Uiso
O12 O 0.3641(3) 0.3853(2) 0.2651(8) 0.0048 Uiso
H2 H 0.176692 0.370445 0.704089 . .
O2 O 0.0664(2) 0.2921(2) 0.8705(9) 0.0111 Uiso
O8 O 0.3891(3) 0.4154(2) 0.8375(10) 0.0048 Uiso
O11 O 0.3546(2) 0.3026(3) 0.9318(8) 0.0048 Uiso
H1 H 0.156641 0.296222 0.962577 . .
Cu6 Cu 0.94660(5) 0.31802(7) 0.9907(2) 0.0091 Uiso
Cu6_2 Cu 0.37143(9) 0.05340(5) 0.9907(2) 0.0091 Uiso
Cu7_2 Cu 0.05340(9) 0.68198(7) 0.0093(2) 0.0091 Uiso
C1_2 C 0.1521(4) 0.8393(3) 0.1248(13) 0.0065 Uiso
C2_2 C 0.2066(6) 0.8799(4) 0.1975(15) 0.0114 Uiso
C3_2 C 0.1101(5) 0.7908(3) 0.2559(12) 0.0051 Uiso
C4_2 C 0.2463(5) 0.9222(3) 0.0298(14) 0.0101 Uiso
O1_2 O 0.0558(3) 0.7487(2) 0.1708(10) 0.0048 Uiso
O3_2 O 0.3026(3) 0.9480(2) 0.0682(8) 0.0048 Uiso
C5_2 C 0.1812(4) 0.8274(3) 0.5419(13) 0.0065 Uiso
C6_2 C 0.1267(6) 0.7868(4) 0.4692(15) 0.0114 Uiso
C7_2 C 0.2232(5) 0.8759(3) 0.4108(12) 0.0051 Uiso
C8_2 C 0.0870(5) 0.7445(3) 0.6369(14) 0.0101 Uiso
O4_2 O 0.2775(3) 0.9180(2) 0.4959(10) 0.0048 Uiso
O5_2 O 0.1076(3) 0.7331(2) 0.7962(9) 0.0111 Uiso
O6_2 O 0.0307(3) 0.7187(2) 0.5985(8) 0.0048 Uiso
Cu4_2 Cu 0.27993(9) 0.98469(7) 0.6574(2) 0.0091 Uiso
Cu8_2 Cu 0.34864(7) 0.96191(5) 0.3241(2) 0.0091 Uiso
O12_2 O 0.0213(4) 0.6359(3) 0.2651(8) 0.0048 Uiso
H2_2 H 0.193753 0.823308 0.704089 . .
O2_2 O 0.2257(3) 0.9336(2) 0.8705(9) 0.0111 Uiso
O8_2 O 0.0262(4) 0.6109(3) 0.8375(10) 0.0048 Uiso
H1_2 H 0.139581 0.843359 0.962577 . .
Cu1_2 Cu 0.98469(7) 0.70476(5) 0.3426(2) 0.0091 Uiso
Cu5_2 Cu 0.96191(9) 0.61326(5) 0.6759(2) 0.0091 Uiso
O7_2 O 0.9180(4) 0.6404(2) 0.5041(10) 0.0048 Uiso
O9_2 O 0.9336(4) 0.7079(2) 0.1295(9) 0.0111 Uiso
O11_2 O 0.9480(4) 0.6454(2) 0.9318(8) 0.0048 Uiso
Cu1_3 Cu 0.72007(5) 0.01531(7) 0.3426(2) 0.0091 Uiso
Cu5_3 Cu 0.65136(7) 0.03809(9) 0.6759(2) 0.0091 Uiso
O7_3 O 0.7225(3) 0.0820(4) 0.5041(10) 0.0048 Uiso
O9_3 O 0.7743(3) 0.0664(4) 0.1295(9) 0.0111 Uiso
O11_3 O 0.6974(3) 0.0520(4) 0.9318(8) 0.0048 Uiso
Cu7_3 Cu 0.62857(5) 0.94660(9) 0.0093(2) 0.0091 Uiso
C1_3 C 0.6872(3) 0.8479(4) 0.1248(13) 0.0065 Uiso
C2_3 C 0.6733(4) 0.7934(6) 0.1975(15) 0.0114 Uiso
C3_3 C 0.6807(4) 0.8899(5) 0.2559(12) 0.0051 Uiso
C4_3 C 0.6759(4) 0.7537(5) 0.0298(14) 0.0101 Uiso
O1_3 O 0.6929(2) 0.9442(3) 0.1708(10) 0.0048 Uiso
O3_3 O 0.6454(2) 0.6974(3) 0.0682(8) 0.0048 Uiso
C5_3 C 0.6461(3) 0.8188(4) 0.5419(13) 0.0065 Uiso
C6_3 C 0.6600(4) 0.8733(6) 0.4692(15) 0.0114 Uiso
C7_3 C 0.6526(4) 0.7768(5) 0.4108(12) 0.0051 Uiso
C8_3 C 0.6574(4) 0.9130(5) 0.6369(14) 0.0101 Uiso
O4_3 O 0.6404(2) 0.7225(3) 0.4959(10) 0.0048 Uiso
O5_3 O 0.6254(2) 0.8924(3) 0.7962(9) 0.0111 Uiso
O6_3 O 0.6879(2) 0.9693(3) 0.5985(8) 0.0048 Uiso
Cu4_3 Cu 0.70476(5) 0.72007(9) 0.6574(2) 0.0091 Uiso
Cu8_3 Cu 0.61326(5) 0.65136(7) 0.3241(2) 0.0091 Uiso
O12_3 O 0.6147(2) 0.9787(4) 0.2651(8) 0.0048 Uiso
H2_3 H 0.629555 0.806247 0.704089 . .
O2_3 O 0.7079(2) 0.7743(3) 0.8705(9) 0.0111 Uiso
Cu6_3 Cu 0.68198(7) 0.62857(9) 0.9907(2) 0.0091 Uiso
O8_3 O 0.5846(2) 0.9738(4) 0.8375(10) 0.0048 Uiso
H1_3 H 0.703778 0.860419 0.962577 . .
H2_4 H 0.843359 0.703778 0.0374225 . .
C1_4 C 0.8274(3) 0.6461(3) 0.4581(13) 0.0065 Uiso
C2_4 C 0.7868(4) 0.6600(4) 0.5308(15) 0.0114 Uiso
C3_4 C 0.8759(3) 0.6526(4) 0.5892(12) 0.0051 Uiso
C4_4 C 0.7445(3) 0.6574(4) 0.3631(14) 0.0101 Uiso
O2_4 O 0.7331(2) 0.6254(2) 0.2038(9) 0.0111 Uiso
O3_4 O 0.7187(2) 0.6879(2) 0.4015(8) 0.0048 Uiso
C5_4 C 0.8393(3) 0.6872(3) 0.8752(13) 0.0065 Uiso
C6_4 C 0.8799(4) 0.6733(4) 0.8025(15) 0.0114 Uiso
C7_4 C 0.7908(3) 0.6807(4) 0.7441(12) 0.0051 Uiso
C8_4 C 0.9222(3) 0.6759(4) 0.9702(14) 0.0101 Uiso
O4_4 O 0.7487(2) 0.6929(2) 0.8292(10) 0.0048 Uiso
O9_4 O 0.9588(2) 0.5590(3) 0.4628(9) 0.0111 Uiso
H1_4 H 0.823308 0.629555 0.295911 . .
H2_5 H 0.860419 0.156641 0.0374225 . .
C1_5 C 0.8188(4) 0.1726(3) 0.4581(13) 0.0065 Uiso
C2_5 C 0.8733(6) 0.2132(4) 0.5308(15) 0.0114 Uiso
C3_5 C 0.7768(5) 0.1241(3) 0.5892(12) 0.0051 Uiso
C4_5 C 0.9130(5) 0.2555(3) 0.3631(14) 0.0101 Uiso
O2_5 O 0.8924(3) 0.2669(2) 0.2038(9) 0.0111 Uiso
O3_5 O 0.9693(3) 0.2813(2) 0.4015(8) 0.0048 Uiso
C5_5 C 0.8479(4) 0.1607(3) 0.8752(13) 0.0065 Uiso
C6_5 C 0.7934(6) 0.1201(4) 0.8025(15) 0.0114 Uiso
C7_5 C 0.8899(5) 0.2092(3) 0.7441(12) 0.0051 Uiso
C8_5 C 0.7537(5) 0.0778(3) 0.9702(14) 0.0101 Uiso
O4_5 O 0.9442(3) 0.2513(2) 0.8292(10) 0.0048 Uiso
O9_5 O 0.6003(4) 0.0412(2) 0.4628(9) 0.0111 Uiso
H1_5 H 0.806247 0.176692 0.295911 . .
H2_6 H 0.296222 0.139581 0.0374225 . .
C1_6 C 0.3539(3) 0.1812(4) 0.4581(13) 0.0065 Uiso
C2_6 C 0.3400(4) 0.1267(6) 0.5308(15) 0.0114 Uiso
C3_6 C 0.3474(4) 0.2232(5) 0.5892(12) 0.0051 Uiso
C4_6 C 0.3426(4) 0.0870(5) 0.3631(14) 0.0101 Uiso
O2_6 O 0.3746(2) 0.1076(3) 0.2038(9) 0.0111 Uiso
O3_6 O 0.3121(2) 0.0307(3) 0.4015(8) 0.0048 Uiso
C5_6 C 0.3128(3) 0.1521(4) 0.8752(13) 0.0065 Uiso
C6_6 C 0.3267(4) 0.2066(6) 0.8025(15) 0.0114 Uiso
C7_6 C 0.3193(4) 0.1101(5) 0.7441(12) 0.0051 Uiso
C8_6 C 0.3241(4) 0.2463(5) 0.9702(14) 0.0101 Uiso
O4_6 O 0.3071(2) 0.0558(3) 0.8292(10) 0.0048 Uiso
O9_6 O 0.4410(3) 0.3997(4) 0.4628(9) 0.0111 Uiso
H1_6 H 0.370445 0.193753 0.295911 . .
C5_7 C 0.5060(3) 0.0205(3) 0.2085(13) 0.0065 Uiso
C6_7 C 0.5466(4) 0.0066(4) 0.1358(15) 0.0114 Uiso
C7_7 C 0.4575(3) 0.0140(4) 0.0774(12) 0.0051 Uiso
C8_7 C 0.5889(3) 0.0092(4) 0.3035(14) 0.0101 Uiso
O4_7 O 0.4154(2) 0.0262(2) 0.1625(10) 0.0048 Uiso
H2_7 H 0.510025 0.0371116 0.370756 . .
O3_7 O 0.3853(2) 0.0213(2) 0.7349(8) 0.0048 Uiso
C1_7 C 0.4940(3) 0.9795(3) 0.7915(13) 0.0065 Uiso
C2_7 C 0.4534(4) 0.9934(4) 0.8642(15) 0.0114 Uiso
C3_7 C 0.5425(3) 0.9860(4) 0.9226(12) 0.0051 Uiso
C4_7 C 0.4111(3) 0.9908(4) 0.6965(14) 0.0101 Uiso
O2_7 O 0.3997(2) 0.9588(2) 0.5372(9) 0.0111 Uiso
H1_7 H 0.489975 0.962888 0.629244 . .
C5_8 C 0.5146(4) 0.4940(3) 0.2085(13) 0.0065 Uiso
C6_8 C 0.4601(6) 0.4534(4) 0.1358(15) 0.0114 Uiso
C7_8 C 0.5566(5) 0.5425(3) 0.0774(12) 0.0051 Uiso
C8_8 C 0.4204(5) 0.4111(3) 0.3035(14) 0.0101 Uiso
O4_8 O 0.6109(3) 0.5846(2) 0.1625(10) 0.0048 Uiso
H2_8 H 0.527086 0.489975 0.370756 . .
C1_8 C 0.4854(4) 0.5060(3) 0.7915(13) 0.0065 Uiso
C2_8 C 0.5399(6) 0.5466(4) 0.8642(15) 0.0114 Uiso
C3_8 C 0.4434(5) 0.4575(3) 0.9226(12) 0.0051 Uiso
C4_8 C 0.5796(5) 0.5889(3) 0.6965(14) 0.0101 Uiso
O2_8 O 0.5590(3) 0.6003(2) 0.5372(9) 0.0111 Uiso
O3_8 O 0.6359(3) 0.6147(2) 0.7349(8) 0.0048 Uiso
H1_8 H 0.472914 0.510025 0.629244 . .
C1_9 C 0.0205(3) 0.5146(4) 0.7915(13) 0.0065 Uiso
C2_9 C 0.0066(4) 0.4601(6) 0.8642(15) 0.0114 Uiso
C3_9 C 0.0140(4) 0.5566(5) 0.9226(12) 0.0051 Uiso
C4_9 C 0.0092(4) 0.4204(5) 0.6965(14) 0.0101 Uiso
O2_9 O 0.0412(2) 0.4410(3) 0.5372(9) 0.0111 Uiso
H1_9 H 0.0371116 0.527086 0.629244 . .
C5_9 C 0.9795(3) 0.4854(4) 0.2085(13) 0.0065 Uiso
C6_9 C 0.9934(4) 0.5399(6) 0.1358(15) 0.0114 Uiso
C7_9 C 0.9860(4) 0.4434(5) 0.0774(12) 0.0051 Uiso
C8_9 C 0.9908(4) 0.5796(5) 0.3035(14) 0.0101 Uiso
O4_9 O 0.9738(2) 0.3891(3) 0.1625(10) 0.0048 Uiso
H2_9 H 0.962888 0.472914 0.370756 . .
O3_9 O 0.9787(2) 0.3641(3) 0.7349(8) 0.0048 Uiso
loop_
_geom_bond_atom_site_label_1
_geom_bond_atom_site_label_2
_geom_bond_site_symmetry_1
_geom_bond_site_symmetry_2
Cu1 O1 1_555 1_555
C1 C2 1_555 1_555
C2 C4 1_555 1_555
C3 C1 1_555 1_555
O1 C3 1_555 1_555
O3 C4 1_555 1_555
C5 C6 1_555 1_555
C6 C3 1_555 1_555
C7 C2 1_555 1_555
C8 C6 1_555 1_555
O4 C7 1_555 1_555
O5 C8 1_555 1_555
O6 Cu1 1_555 1_555
Cu7 O1 1_555 1_555
Cu4 O4 1_555 1_555
Cu5 O6 1_555 1_555
Cu8 O3 1_555 1_555
O7 Cu1 1_555 1_555
O9 Cu1 1_555 1_555
O12 Cu1 1_555 1_555
C5 C7 1_555 1_555
C8 O6 1_555 1_555
O4 Cu8 1_555 1_555
Cu7 O12 1_555 1_555
Cu5 O7 1_555 1_555
C5 H2 1_555 1_555
O2 Cu4 1_555 1_555
C1_2 C2_2 1_555 1_555
C2_2 C4_2 1_555 1_555
C3_2 C1_2 1_555 1_555
O1_2 C3_2 1_555 1_555
O3_2 C4_2 1_555 1_555
C5_2 C6_2 1_555 1_555
C6_2 C3_2 1_555 1_555
C7_2 C2_2 1_555 1_555
C8_2 C6_2 1_555 1_555
O4_2 C7_2 1_555 1_555
O5_2 C8_2 1_555 1_555
Cu7_2 O1_2 1_555 1_555
Cu4_2 O4_2 1_555 1_555
Cu8_2 O3_2 1_555 1_555
C5_2 C7_2 1_555 1_555
C8_2 O6_2 1_555 1_555
O4_2 Cu8_2 1_555 1_555
Cu7_2 O12_2 1_555 1_555
C5_2 H2_2 1_555 1_555
O2_2 Cu4_2 1_555 1_555
O7_2 Cu1_2 1_555 1_555
O9_2 Cu1_2 1_555 1_555
Cu5_2 O7_2 1_555 1_555
O7_3 Cu1_3 1_555 1_555
O9_3 Cu1_3 1_555 1_555
Cu5_3 O7_3 1_555 1_555
C1_3 C2_3 1_555 1_555
C2_3 C4_3 1_555 1_555
C3_3 C1_3 1_555 1_555
O1_3 C3_3 1_555 1_555
O3_3 C4_3 1_555 1_555
C5_3 C6_3 1_555 1_555
C6_3 C3_3 1_555 1_555
C7_3 C2_3 1_555 1_555
C8_3 C6_3 1_555 1_555
O4_3 C7_3 1_555 1_555
O5_3 C8_3 1_555 1_555
Cu7_3 O1_3 1_555 1_555
Cu4_3 O4_3 1_555 1_555
Cu8_3 O3_3 1_555 1_555
C5_3 C7_3 1_555 1_555
C8_3 O6_3 1_555 1_555
O4_3 Cu8_3 1_555 1_555
Cu7_3 O12_3 1_555 1_555
C5_3 H2_3 1_555 1_555
O2_3 Cu4_3 1_555 1_555
C1_4 C2_4 1_555 1_555
C2_4 C4_4 1_555 1_555
C3_4 C1_4 1_555 1_555
C4_4 O2_4 1_555 1_555
O7_2 C3_4 1_555 1_555
O3_4 C4_4 1_555 1_555
C5_4 C6_4 1_555 1_555
C6_4 C3_4 1_555 1_555
C7_4 C2_4 1_555 1_555
C8_4 C6_4 1_555 1_555
O4_4 C7_4 1_555 1_555
O11_2 Cu5_2 1_555 1_555
Cu6_3 O4_4 1_555 1_555
Cu8_3 O3_4 1_555 1_555
Cu4_3 O3_4 1_555 1_555
O9_4 Cu5_2 1_555 1_555
C5_4 C7_4 1_555 1_555
C8_4 O11_2 1_555 1_555
O4_4 Cu4_3 1_555 1_555
C1_4 H1_4 1_555 1_555
C1_5 C2_5 1_555 1_555
C2_5 C4_5 1_555 1_555
C3_5 C1_5 1_555 1_555
C4_5 O2_5 1_555 1_555
O7_3 C3_5 1_555 1_555
O3_5 C4_5 1_555 1_555
C5_5 C6_5 1_555 1_555
C6_5 C3_5 1_555 1_555
C7_5 C2_5 1_555 1_555
C8_5 C6_5 1_555 1_555
O4_5 C7_5 1_555 1_555
O11_3 Cu5_3 1_555 1_555
Cu6 O4_5 1_555 1_555
O9_5 Cu5_3 1_555 1_555
C5_5 C7_5 1_555 1_555
C8_5 O11_3 1_555 1_555
C1_5 H1_5 1_555 1_555
C1_6 C2_6 1_555 1_555
C2_6 C4_6 1_555 1_555
C3_6 C1_6 1_555 1_555
C4_6 O2_6 1_555 1_555
O7 C3_6 1_555 1_555
O3_6 C4_6 1_555 1_555
C5_6 C6_6 1_555 1_555
C6_6 C3_6 1_555 1_555
C7_6 C2_6 1_555 1_555
C8_6 C6_6 1_555 1_555
O4_6 C7_6 1_555 1_555
O11 Cu5 1_555 1_555
Cu6_2 O4_6 1_555 1_555
O8 Cu5 1_555 1_555
O9_6 Cu5 1_555 1_555
C5_6 C7_6 1_555 1_555
C8_6 O11 1_555 1_555
C1_6 H1_6 1_555 1_555
C5_7 C6_7 1_555 1_555
C8_7 C6_7 1_555 1_555
O4_7 C7_7 1_555 1_555
O9_5 C8_7 1_555 1_555
C5_7 C7_7 1_555 1_555
C5_7 H2_7 1_555 1_555
Cu6_2 O3_7 1_555 1_555
C1_7 C2_7 1_555 1_555
C2_7 C4_7 1_555 1_555
C3_7 C1_7 1_555 1_555
C4_7 O2_7 1_555 1_555
O8_3 C3_7 1_555 1_555
O2_7 Cu8_2 1_555 1_555
C1_7 H1_7 1_555 1_555
C5_8 C6_8 1_555 1_555
C8_8 C6_8 1_555 1_555
O4_8 C7_8 1_555 1_555
O9_6 C8_8 1_555 1_555
Cu8_3 O4_8 1_555 1_555
C5_8 C7_8 1_555 1_555
C8_8 O12 1_555 1_555
C5_8 H2_8 1_555 1_555
C1_8 C2_8 1_555 1_555
C2_8 C4_8 1_555 1_555
C3_8 C1_8 1_555 1_555
C4_8 O2_8 1_555 1_555
O8 C3_8 1_555 1_555
O2_8 Cu8_3 1_555 1_555
O3_8 C4_8 1_555 1_555
Cu4_3 O3_8 1_555 1_555
Cu6_3 O3_8 1_555 1_555
C1_8 H1_8 1_555 1_555
C1_9 C2_9 1_555 1_555
C2_9 C4_9 1_555 1_555
C3_9 C1_9 1_555 1_555
C4_9 O2_9 1_555 1_555
O8_2 C3_9 1_555 1_555
O2_9 Cu8 1_555 1_555
C1_9 H1_9 1_555 1_555
C5_9 C6_9 1_555 1_555
C8_9 C6_9 1_555 1_555
O4_9 C7_9 1_555 1_555
O9_4 C8_9 1_555 1_555
C5_9 C7_9 1_555 1_555
C5_9 H2_9 1_555 1_555
Cu6 O3_9 1_555 1_555

#END
