
###############################################################################
#
# This file contains modified crystal structure data generated from the
# MOF subset of the Cambridge Structural Database (CSD) v543 
# hosted by the Cambridge Crystallographic Data Centre (CCDC).
#
# This work is licensed under the Creative Commons
# Attribution-NonCommercial-ShareAlike 4.0 International License.
# To view a copy of this license, visit
# http://creativecommons.org/licenses/by-nc-sa/4.0/
# or send a letter to
# Creative Commons, PO Box 1866, Mountain View, CA 94042, USA.
#
# CIF created using the CSD Python API on 29 September 2022
# The structure has been converted into the P1 space group
# The structure has a 3D framework
# The original CSD entry MOKYAP13 is in the rhombohedral crystal system
# The framework has been calculated to contain at least 10.0% void space
# The void calculation uses a probe of radius 1.32A, grid spacing 0.4
# H atom positions have been added when not included in the experimental data
#
###############################################################################

data_MOKYAP13
_chemical_formula_moiety         '(C72 H18 Cu7 O44)n'
_symmetry_cell_setting           triclinic
_symmetry_space_group_name_H-M   'P 1'
_symmetry_Int_Tables_number      1
_space_group_name_Hall           'P 1'
loop_
_symmetry_equiv_pos_site_id
_symmetry_equiv_pos_as_xyz
1 x,y,z
_cell_length_a                   25.9233(3)
_cell_length_b                   25.9233(3)
_cell_length_c                   6.27125(7)
_cell_angle_alpha                90
_cell_angle_beta                 90
_cell_angle_gamma                120
_cell_volume                     3649.77
loop_
_atom_site_label
_atom_site_type_symbol
_atom_site_fract_x
_atom_site_fract_y
_atom_site_fract_z
_atom_site_U_iso_or_equiv
_atom_site_thermal_displace_type
Cu7 Cu 0.31802(7) 0.37157(5) 0.0094(2) 0.0086 Uiso
Cu1 Cu 0.29510(5) 0.27979(5) 0.3427(2) 0.0086 Uiso
C1 C 0.1607(4) 0.3136(3) 0.1251(15) 0.0101 Uiso
C2 C 0.1206(4) 0.3268(4) 0.1952(16) 0.0101 Uiso
C3 C 0.2087(4) 0.3188(4) 0.2560(13) 0.0051 Uiso
C4 C 0.0793(4) 0.3249(5) 0.0267(15) 0.0101 Uiso
O1 O 0.2512(2) 0.3071(2) 0.1738(11) 0.0049 Uiso
O3 O 0.0519(2) 0.3543(2) 0.0688(8) 0.0049 Uiso
C5 C 0.1726(4) 0.3531(3) 0.5416(15) 0.0101 Uiso
C6 C 0.2127(4) 0.3399(4) 0.4715(16) 0.0101 Uiso
C7 C 0.1246(4) 0.3479(4) 0.4107(13) 0.0051 Uiso
C8 C 0.2540(4) 0.3418(5) 0.6400(15) 0.0101 Uiso
O4 O 0.0821(2) 0.3596(2) 0.4929(11) 0.0049 Uiso
O5 O 0.2674(2) 0.3748(2) 0.7952(10) 0.0109 Uiso
O6 O 0.2814(2) 0.3124(2) 0.5979(8) 0.0049 Uiso
Cu4 Cu 0.01531(7) 0.29510(5) 0.6573(2) 0.0086 Uiso
Cu5 Cu 0.38688(5) 0.34864(7) 0.6760(2) 0.0086 Uiso
Cu8 Cu 0.03823(5) 0.38688(5) 0.3240(2) 0.0086 Uiso
O7 O 0.3596(2) 0.2774(3) 0.5071(11) 0.0049 Uiso
O9 O 0.2919(2) 0.2260(3) 0.1285(10) 0.0109 Uiso
O12 O 0.3643(3) 0.3852(2) 0.2645(8) 0.0049 Uiso
H2 H 0.176042 0.368524 0.705193 . .
O2 O 0.0659(2) 0.2919(2) 0.8715(10) 0.0109 Uiso
O8 O 0.3892(3) 0.4155(2) 0.8405(11) 0.0049 Uiso
O11 O 0.3543(2) 0.3024(3) 0.9312(8) 0.0049 Uiso
H1 H 0.157291 0.298143 0.961474 . .
Cu6 Cu 0.94646(5) 0.31802(7) 0.9906(2) 0.0086 Uiso
Cu6_2 Cu 0.37157(9) 0.05354(5) 0.9906(2) 0.0086 Uiso
Cu7_2 Cu 0.05354(9) 0.68198(7) 0.0094(2) 0.0086 Uiso
C1_2 C 0.1529(5) 0.8393(4) 0.1251(15) 0.0101 Uiso
C2_2 C 0.2062(6) 0.8794(4) 0.1952(16) 0.0101 Uiso
C3_2 C 0.1101(6) 0.7913(4) 0.2560(13) 0.0051 Uiso
C4_2 C 0.2456(6) 0.9207(4) 0.0267(15) 0.0101 Uiso
O1_2 O 0.0559(3) 0.7488(2) 0.1738(11) 0.0049 Uiso
O3_2 O 0.3024(3) 0.9481(2) 0.0688(8) 0.0049 Uiso
C5_2 C 0.1804(5) 0.8274(4) 0.5416(15) 0.0101 Uiso
C6_2 C 0.1271(6) 0.7873(4) 0.4715(16) 0.0101 Uiso
C7_2 C 0.2232(6) 0.8754(4) 0.4107(13) 0.0051 Uiso
C8_2 C 0.0877(6) 0.7460(4) 0.6400(15) 0.0101 Uiso
O4_2 O 0.2774(3) 0.9179(2) 0.4929(11) 0.0049 Uiso
O5_2 O 0.1073(3) 0.7326(2) 0.7952(10) 0.0109 Uiso
O6_2 O 0.0309(3) 0.7186(2) 0.5979(8) 0.0049 Uiso
Cu4_2 Cu 0.27979(9) 0.98469(7) 0.6573(2) 0.0086 Uiso
Cu8_2 Cu 0.34864(7) 0.96177(5) 0.3240(2) 0.0086 Uiso
O12_2 O 0.0210(4) 0.6357(3) 0.2645(8) 0.0049 Uiso
H2_2 H 0.192481 0.823958 0.705193 . .
O2_2 O 0.2260(3) 0.9341(2) 0.8715(10) 0.0109 Uiso
O8_2 O 0.0262(4) 0.6108(3) 0.8405(11) 0.0049 Uiso
H1_2 H 0.140852 0.842709 0.961474 . .
Cu1_2 Cu 0.98469(7) 0.70490(5) 0.3427(2) 0.0086 Uiso
Cu5_2 Cu 0.96177(9) 0.61312(5) 0.6760(2) 0.0086 Uiso
O7_2 O 0.9179(4) 0.6404(2) 0.5071(11) 0.0049 Uiso
O9_2 O 0.9341(4) 0.7081(2) 0.1285(10) 0.0109 Uiso
O11_2 O 0.9481(4) 0.6457(2) 0.9312(8) 0.0049 Uiso
Cu1_3 Cu 0.72021(5) 0.01531(7) 0.3427(2) 0.0086 Uiso
Cu5_3 Cu 0.65136(7) 0.03823(9) 0.6760(2) 0.0086 Uiso
O7_3 O 0.7226(3) 0.0821(4) 0.5071(11) 0.0049 Uiso
O9_3 O 0.7740(3) 0.0659(4) 0.1285(10) 0.0109 Uiso
O11_3 O 0.6976(3) 0.0519(4) 0.9312(8) 0.0049 Uiso
Cu7_3 Cu 0.62843(5) 0.94646(9) 0.0094(2) 0.0086 Uiso
C1_3 C 0.6864(3) 0.8471(5) 0.1251(15) 0.0101 Uiso
C2_3 C 0.6732(4) 0.7938(6) 0.1952(16) 0.0101 Uiso
C3_3 C 0.6812(4) 0.8899(6) 0.2560(13) 0.0051 Uiso
C4_3 C 0.6751(5) 0.7544(6) 0.0267(15) 0.0101 Uiso
O1_3 O 0.6929(2) 0.9441(3) 0.1738(11) 0.0049 Uiso
O3_3 O 0.6457(2) 0.6976(3) 0.0688(8) 0.0049 Uiso
C5_3 C 0.6469(3) 0.8196(5) 0.5416(15) 0.0101 Uiso
C6_3 C 0.6601(4) 0.8729(6) 0.4715(16) 0.0101 Uiso
C7_3 C 0.6521(4) 0.7768(6) 0.4107(13) 0.0051 Uiso
C8_3 C 0.6582(5) 0.9123(6) 0.6400(15) 0.0101 Uiso
O4_3 O 0.6404(2) 0.7226(3) 0.4929(11) 0.0049 Uiso
O5_3 O 0.6252(2) 0.8927(3) 0.7952(10) 0.0109 Uiso
O6_3 O 0.6876(2) 0.9691(3) 0.5979(8) 0.0049 Uiso
Cu4_3 Cu 0.70490(5) 0.72021(9) 0.6573(2) 0.0086 Uiso
Cu8_3 Cu 0.61312(5) 0.65136(7) 0.3240(2) 0.0086 Uiso
O12_3 O 0.6148(2) 0.9790(4) 0.2645(8) 0.0049 Uiso
H2_3 H 0.631476 0.807519 0.705193 . .
O2_3 O 0.7081(2) 0.7740(3) 0.8715(10) 0.0109 Uiso
Cu6_3 Cu 0.68198(7) 0.62843(9) 0.9906(2) 0.0086 Uiso
O8_3 O 0.5845(2) 0.9738(4) 0.8405(11) 0.0049 Uiso
H1_3 H 0.701857 0.859148 0.961474 . .
H2_4 H 0.842709 0.701857 0.0385261 . .
C1_4 C 0.8274(4) 0.6469(3) 0.4584(15) 0.0101 Uiso
C2_4 C 0.7873(4) 0.6601(4) 0.5285(16) 0.0101 Uiso
C3_4 C 0.8754(4) 0.6521(4) 0.5893(13) 0.0051 Uiso
C4_4 C 0.7460(4) 0.6582(5) 0.3600(15) 0.0101 Uiso
O2_4 O 0.7326(2) 0.6252(2) 0.2048(10) 0.0109 Uiso
O3_4 O 0.7186(2) 0.6876(2) 0.4021(8) 0.0049 Uiso
C5_4 C 0.8393(4) 0.6864(3) 0.8749(15) 0.0101 Uiso
C6_4 C 0.8794(4) 0.6732(4) 0.8048(16) 0.0101 Uiso
C7_4 C 0.7913(4) 0.6812(4) 0.7440(13) 0.0051 Uiso
C8_4 C 0.9207(4) 0.6751(5) 0.9733(15) 0.0101 Uiso
O4_4 O 0.7488(2) 0.6929(2) 0.8262(11) 0.0049 Uiso
O9_4 O 0.9586(2) 0.5593(3) 0.4618(10) 0.0109 Uiso
H1_4 H 0.823958 0.631476 0.294807 . .
H2_5 H 0.859148 0.157291 0.0385261 . .
C1_5 C 0.8196(5) 0.1726(4) 0.4584(15) 0.0101 Uiso
C2_5 C 0.8729(6) 0.2127(4) 0.5285(16) 0.0101 Uiso
C3_5 C 0.7768(6) 0.1246(4) 0.5893(13) 0.0051 Uiso
C4_5 C 0.9123(6) 0.2540(4) 0.3600(15) 0.0101 Uiso
O2_5 O 0.8927(3) 0.2674(2) 0.2048(10) 0.0109 Uiso
O3_5 O 0.9691(3) 0.2814(2) 0.4021(8) 0.0049 Uiso
C5_5 C 0.8471(5) 0.1607(4) 0.8749(15) 0.0101 Uiso
C6_5 C 0.7938(6) 0.1206(4) 0.8048(16) 0.0101 Uiso
C7_5 C 0.8899(6) 0.2087(4) 0.7440(13) 0.0051 Uiso
C8_5 C 0.7544(6) 0.0793(4) 0.9733(15) 0.0101 Uiso
O4_5 O 0.9441(3) 0.2512(2) 0.8262(11) 0.0049 Uiso
O9_5 O 0.6008(4) 0.0414(2) 0.4618(10) 0.0109 Uiso
H1_5 H 0.807519 0.176042 0.294807 . .
H2_6 H 0.298143 0.140852 0.0385261 . .
C1_6 C 0.3531(3) 0.1804(5) 0.4584(15) 0.0101 Uiso
C2_6 C 0.3399(4) 0.1271(6) 0.5285(16) 0.0101 Uiso
C3_6 C 0.3479(4) 0.2232(6) 0.5893(13) 0.0051 Uiso
C4_6 C 0.3418(5) 0.0877(6) 0.3600(15) 0.0101 Uiso
O2_6 O 0.3748(2) 0.1073(3) 0.2048(10) 0.0109 Uiso
O3_6 O 0.3124(2) 0.0309(3) 0.4021(8) 0.0049 Uiso
C5_6 C 0.3136(3) 0.1529(5) 0.8749(15) 0.0101 Uiso
C6_6 C 0.3268(4) 0.2062(6) 0.8048(16) 0.0101 Uiso
C7_6 C 0.3188(4) 0.1101(6) 0.7440(13) 0.0051 Uiso
C8_6 C 0.3249(5) 0.2456(6) 0.9733(15) 0.0101 Uiso
O4_6 O 0.3071(2) 0.0559(3) 0.8262(11) 0.0049 Uiso
O9_6 O 0.4407(3) 0.3992(4) 0.4618(10) 0.0109 Uiso
H1_6 H 0.368524 0.192481 0.294807 . .
C5_7 C 0.5060(4) 0.0197(3) 0.2082(15) 0.0101 Uiso
C6_7 C 0.5461(4) 0.0065(4) 0.1381(16) 0.0101 Uiso
C7_7 C 0.4580(4) 0.0145(4) 0.0773(13) 0.0051 Uiso
C8_7 C 0.5874(4) 0.0084(5) 0.3066(15) 0.0101 Uiso
O4_7 O 0.4155(2) 0.0262(2) 0.1595(11) 0.0049 Uiso
H2_7 H 0.509376 0.0351904 0.371859 . .
O3_7 O 0.3852(2) 0.0210(2) 0.7355(8) 0.0049 Uiso
C1_7 C 0.4940(4) 0.9803(3) 0.7918(15) 0.0101 Uiso
C2_7 C 0.4539(4) 0.9935(4) 0.8619(16) 0.0101 Uiso
C3_7 C 0.5420(4) 0.9855(4) 0.9227(13) 0.0051 Uiso
C4_7 C 0.4126(4) 0.9916(5) 0.6934(15) 0.0101 Uiso
O2_7 O 0.3992(2) 0.9586(2) 0.5382(10) 0.0109 Uiso
H1_7 H 0.490624 0.96481 0.628141 . .
C5_8 C 0.5138(5) 0.4940(4) 0.2082(15) 0.0101 Uiso
C6_8 C 0.4605(6) 0.4539(4) 0.1381(16) 0.0101 Uiso
C7_8 C 0.5566(6) 0.5420(4) 0.0773(13) 0.0051 Uiso
C8_8 C 0.4211(6) 0.4126(4) 0.3066(15) 0.0101 Uiso
O4_8 O 0.6108(3) 0.5845(2) 0.1595(11) 0.0049 Uiso
H2_8 H 0.525815 0.490624 0.371859 . .
C1_8 C 0.4862(5) 0.5060(4) 0.7918(15) 0.0101 Uiso
C2_8 C 0.5395(6) 0.5461(4) 0.8619(16) 0.0101 Uiso
C3_8 C 0.4434(6) 0.4580(4) 0.9227(13) 0.0051 Uiso
C4_8 C 0.5789(6) 0.5874(4) 0.6934(15) 0.0101 Uiso
O2_8 O 0.5593(3) 0.6008(2) 0.5382(10) 0.0109 Uiso
O3_8 O 0.6357(3) 0.6148(2) 0.7355(8) 0.0049 Uiso
H1_8 H 0.474185 0.509376 0.628141 . .
C1_9 C 0.0197(3) 0.5138(5) 0.7918(15) 0.0101 Uiso
C2_9 C 0.0065(4) 0.4605(6) 0.8619(16) 0.0101 Uiso
C3_9 C 0.0145(4) 0.5566(6) 0.9227(13) 0.0051 Uiso
C4_9 C 0.0084(5) 0.4211(6) 0.6934(15) 0.0101 Uiso
O2_9 O 0.0414(2) 0.4407(3) 0.5382(10) 0.0109 Uiso
H1_9 H 0.0351904 0.525815 0.628141 . .
C5_9 C 0.9803(3) 0.4862(5) 0.2082(15) 0.0101 Uiso
C6_9 C 0.9935(4) 0.5395(6) 0.1381(16) 0.0101 Uiso
C7_9 C 0.9855(4) 0.4434(6) 0.0773(13) 0.0051 Uiso
C8_9 C 0.9916(5) 0.5789(6) 0.3066(15) 0.0101 Uiso
O4_9 O 0.9738(2) 0.3892(3) 0.1595(11) 0.0049 Uiso
H2_9 H 0.96481 0.474185 0.371859 . .
O3_9 O 0.9790(2) 0.3643(3) 0.7355(8) 0.0049 Uiso
loop_
_geom_bond_atom_site_label_1
_geom_bond_atom_site_label_2
_geom_bond_site_symmetry_1
_geom_bond_site_symmetry_2
Cu1 O1 1_555 1_555
C1 C2 1_555 1_555
C2 C4 1_555 1_555
C3 C1 1_555 1_555
O1 C3 1_555 1_555
O3 C4 1_555 1_555
C5 C6 1_555 1_555
C6 C3 1_555 1_555
C7 C2 1_555 1_555
C8 C6 1_555 1_555
O4 C7 1_555 1_555
O5 C8 1_555 1_555
O6 Cu1 1_555 1_555
Cu7 O1 1_555 1_555
Cu4 O4 1_555 1_555
Cu5 O6 1_555 1_555
Cu8 O3 1_555 1_555
O7 Cu1 1_555 1_555
O9 Cu1 1_555 1_555
O12 Cu1 1_555 1_555
C5 C7 1_555 1_555
C8 O6 1_555 1_555
O4 Cu8 1_555 1_555
Cu7 O12 1_555 1_555
Cu5 O7 1_555 1_555
C5 H2 1_555 1_555
O2 Cu4 1_555 1_555
C1_2 C2_2 1_555 1_555
C2_2 C4_2 1_555 1_555
C3_2 C1_2 1_555 1_555
O1_2 C3_2 1_555 1_555
O3_2 C4_2 1_555 1_555
C5_2 C6_2 1_555 1_555
C6_2 C3_2 1_555 1_555
C7_2 C2_2 1_555 1_555
C8_2 C6_2 1_555 1_555
O4_2 C7_2 1_555 1_555
O5_2 C8_2 1_555 1_555
Cu7_2 O1_2 1_555 1_555
Cu4_2 O4_2 1_555 1_555
Cu8_2 O3_2 1_555 1_555
C5_2 C7_2 1_555 1_555
C8_2 O6_2 1_555 1_555
O4_2 Cu8_2 1_555 1_555
Cu7_2 O12_2 1_555 1_555
C5_2 H2_2 1_555 1_555
O2_2 Cu4_2 1_555 1_555
O7_2 Cu1_2 1_555 1_555
O9_2 Cu1_2 1_555 1_555
Cu5_2 O7_2 1_555 1_555
O7_3 Cu1_3 1_555 1_555
O9_3 Cu1_3 1_555 1_555
Cu5_3 O7_3 1_555 1_555
C1_3 C2_3 1_555 1_555
C2_3 C4_3 1_555 1_555
C3_3 C1_3 1_555 1_555
O1_3 C3_3 1_555 1_555
O3_3 C4_3 1_555 1_555
C5_3 C6_3 1_555 1_555
C6_3 C3_3 1_555 1_555
C7_3 C2_3 1_555 1_555
C8_3 C6_3 1_555 1_555
O4_3 C7_3 1_555 1_555
O5_3 C8_3 1_555 1_555
Cu7_3 O1_3 1_555 1_555
Cu4_3 O4_3 1_555 1_555
Cu8_3 O3_3 1_555 1_555
C5_3 C7_3 1_555 1_555
C8_3 O6_3 1_555 1_555
O4_3 Cu8_3 1_555 1_555
Cu7_3 O12_3 1_555 1_555
C5_3 H2_3 1_555 1_555
O2_3 Cu4_3 1_555 1_555
C1_4 C2_4 1_555 1_555
C2_4 C4_4 1_555 1_555
C3_4 C1_4 1_555 1_555
C4_4 O2_4 1_555 1_555
O7_2 C3_4 1_555 1_555
O3_4 C4_4 1_555 1_555
C5_4 C6_4 1_555 1_555
C6_4 C3_4 1_555 1_555
C7_4 C2_4 1_555 1_555
C8_4 C6_4 1_555 1_555
O4_4 C7_4 1_555 1_555
O11_2 Cu5_2 1_555 1_555
Cu6_3 O4_4 1_555 1_555
Cu8_3 O3_4 1_555 1_555
Cu4_3 O3_4 1_555 1_555
O9_4 Cu5_2 1_555 1_555
C5_4 C7_4 1_555 1_555
C8_4 O11_2 1_555 1_555
O4_4 Cu4_3 1_555 1_555
C1_4 H1_4 1_555 1_555
C1_5 C2_5 1_555 1_555
C2_5 C4_5 1_555 1_555
C3_5 C1_5 1_555 1_555
C4_5 O2_5 1_555 1_555
O7_3 C3_5 1_555 1_555
O3_5 C4_5 1_555 1_555
C5_5 C6_5 1_555 1_555
C6_5 C3_5 1_555 1_555
C7_5 C2_5 1_555 1_555
C8_5 C6_5 1_555 1_555
O4_5 C7_5 1_555 1_555
O11_3 Cu5_3 1_555 1_555
Cu6 O4_5 1_555 1_555
O9_5 Cu5_3 1_555 1_555
C5_5 C7_5 1_555 1_555
C8_5 O11_3 1_555 1_555
C1_5 H1_5 1_555 1_555
C1_6 C2_6 1_555 1_555
C2_6 C4_6 1_555 1_555
C3_6 C1_6 1_555 1_555
C4_6 O2_6 1_555 1_555
O7 C3_6 1_555 1_555
O3_6 C4_6 1_555 1_555
C5_6 C6_6 1_555 1_555
C6_6 C3_6 1_555 1_555
C7_6 C2_6 1_555 1_555
C8_6 C6_6 1_555 1_555
O4_6 C7_6 1_555 1_555
O11 Cu5 1_555 1_555
Cu6_2 O4_6 1_555 1_555
O8 Cu5 1_555 1_555
O9_6 Cu5 1_555 1_555
C5_6 C7_6 1_555 1_555
C8_6 O11 1_555 1_555
C1_6 H1_6 1_555 1_555
C5_7 C6_7 1_555 1_555
C8_7 C6_7 1_555 1_555
O4_7 C7_7 1_555 1_555
O9_5 C8_7 1_555 1_555
C5_7 C7_7 1_555 1_555
C5_7 H2_7 1_555 1_555
Cu6_2 O3_7 1_555 1_555
C1_7 C2_7 1_555 1_555
C2_7 C4_7 1_555 1_555
C3_7 C1_7 1_555 1_555
C4_7 O2_7 1_555 1_555
O8_3 C3_7 1_555 1_555
O2_7 Cu8_2 1_555 1_555
C1_7 H1_7 1_555 1_555
C5_8 C6_8 1_555 1_555
C8_8 C6_8 1_555 1_555
O4_8 C7_8 1_555 1_555
O9_6 C8_8 1_555 1_555
Cu8_3 O4_8 1_555 1_555
C5_8 C7_8 1_555 1_555
C8_8 O12 1_555 1_555
C5_8 H2_8 1_555 1_555
C1_8 C2_8 1_555 1_555
C2_8 C4_8 1_555 1_555
C3_8 C1_8 1_555 1_555
C4_8 O2_8 1_555 1_555
O8 C3_8 1_555 1_555
O2_8 Cu8_3 1_555 1_555
O3_8 C4_8 1_555 1_555
Cu4_3 O3_8 1_555 1_555
Cu6_3 O3_8 1_555 1_555
C1_8 H1_8 1_555 1_555
C1_9 C2_9 1_555 1_555
C2_9 C4_9 1_555 1_555
C3_9 C1_9 1_555 1_555
C4_9 O2_9 1_555 1_555
O8_2 C3_9 1_555 1_555
O2_9 Cu8 1_555 1_555
C1_9 H1_9 1_555 1_555
C5_9 C6_9 1_555 1_555
C8_9 C6_9 1_555 1_555
O4_9 C7_9 1_555 1_555
O9_4 C8_9 1_555 1_555
C5_9 C7_9 1_555 1_555
C5_9 H2_9 1_555 1_555
Cu6 O3_9 1_555 1_555

#END
