
###############################################################################
#
# This file contains modified crystal structure data generated from the
# MOF subset of the Cambridge Structural Database (CSD) v543 
# hosted by the Cambridge Crystallographic Data Centre (CCDC).
#
# This work is licensed under the Creative Commons
# Attribution-NonCommercial-ShareAlike 4.0 International License.
# To view a copy of this license, visit
# http://creativecommons.org/licenses/by-nc-sa/4.0/
# or send a letter to
# Creative Commons, PO Box 1866, Mountain View, CA 94042, USA.
#
# CIF created using the CSD Python API on 29 September 2022
# The structure has been converted into the P1 space group
# The structure has a 3D framework
# The original CSD entry MOKYAP41 is in the rhombohedral crystal system
# The framework has been calculated to contain at least 10.0% void space
# The void calculation uses a probe of radius 1.32A, grid spacing 0.4
# H atom positions have been added when not included in the experimental data
#
###############################################################################

data_MOKYAP41
_chemical_formula_moiety         '(C72 H18 Cu7 O44)n'
_symmetry_cell_setting           triclinic
_symmetry_space_group_name_H-M   'P 1'
_symmetry_Int_Tables_number      1
_space_group_name_Hall           'P 1'
loop_
_symmetry_equiv_pos_site_id
_symmetry_equiv_pos_as_xyz
1 x,y,z
_cell_length_a                   25.9169(3)
_cell_length_b                   25.9169(3)
_cell_length_c                   6.27341(6)
_cell_angle_alpha                90
_cell_angle_beta                 90
_cell_angle_gamma                120
_cell_volume                     3649.22
loop_
_atom_site_label
_atom_site_type_symbol
_atom_site_fract_x
_atom_site_fract_y
_atom_site_fract_z
_atom_site_U_iso_or_equiv
_atom_site_thermal_displace_type
Cu7 Cu 0.31801(7) 0.37138(5) 0.0092(2) 0.0096 Uiso
Cu1 Cu 0.29529(5) 0.27997(5) 0.3425(2) 0.0096 Uiso
C1 C 0.1610(3) 0.3129(3) 0.1242(13) 0.0063 Uiso
C2 C 0.1202(4) 0.3267(4) 0.1976(15) 0.0139 Uiso
C3 C 0.2093(3) 0.3192(4) 0.2566(12) 0.0051 Uiso
C4 C 0.0775(3) 0.3242(4) 0.0307(14) 0.0089 Uiso
O1 O 0.2515(2) 0.3073(2) 0.1700(9) 0.0049 Uiso
O3 O 0.0519(2) 0.3547(2) 0.0678(8) 0.0049 Uiso
C5 C 0.1723(3) 0.3538(3) 0.5425(13) 0.0063 Uiso
C6 C 0.2131(4) 0.3400(4) 0.4691(15) 0.0139 Uiso
C7 C 0.1240(3) 0.3475(4) 0.4101(12) 0.0051 Uiso
C8 C 0.2558(3) 0.3425(4) 0.6360(14) 0.0089 Uiso
O4 O 0.0818(2) 0.3594(2) 0.4967(9) 0.0049 Uiso
O5 O 0.2667(2) 0.3746(2) 0.7968(9) 0.0113 Uiso
O6 O 0.2814(2) 0.3120(2) 0.5989(8) 0.0049 Uiso
Cu4 Cu 0.01532(7) 0.29529(5) 0.6575(2) 0.0096 Uiso
Cu5 Cu 0.38670(5) 0.34865(7) 0.6758(2) 0.0096 Uiso
Cu8 Cu 0.03804(5) 0.38670(5) 0.3242(2) 0.0096 Uiso
O7 O 0.3594(2) 0.2775(3) 0.5033(9) 0.0049 Uiso
O9 O 0.2921(2) 0.2255(3) 0.1301(9) 0.0113 Uiso
O12 O 0.3639(3) 0.3852(2) 0.2655(8) 0.0049 Uiso
H2 H 0.176108 0.369979 0.705098 . .
O2 O 0.0666(2) 0.2921(2) 0.8699(9) 0.0113 Uiso
O8 O 0.3891(3) 0.4152(2) 0.8367(9) 0.0049 Uiso
O11 O 0.3547(2) 0.3028(3) 0.9322(8) 0.0049 Uiso
H1 H 0.157226 0.296688 0.961569 . .
Cu6 Cu 0.94664(5) 0.31801(7) 0.9908(2) 0.0096 Uiso
Cu6_2 Cu 0.37138(9) 0.05336(5) 0.9908(2) 0.0096 Uiso
Cu7_2 Cu 0.05336(9) 0.68199(7) 0.0092(2) 0.0096 Uiso
C1_2 C 0.1519(4) 0.8390(3) 0.1242(13) 0.0063 Uiso
C2_2 C 0.2065(6) 0.8798(4) 0.1976(15) 0.0139 Uiso
C3_2 C 0.1099(5) 0.7907(3) 0.2566(12) 0.0051 Uiso
C4_2 C 0.2467(5) 0.9225(3) 0.0307(14) 0.0089 Uiso
O1_2 O 0.0558(3) 0.7485(2) 0.1700(9) 0.0049 Uiso
O3_2 O 0.3028(3) 0.9481(2) 0.0678(8) 0.0049 Uiso
C5_2 C 0.1814(4) 0.8277(3) 0.5425(13) 0.0063 Uiso
C6_2 C 0.1268(6) 0.7869(4) 0.4691(15) 0.0139 Uiso
C7_2 C 0.2234(5) 0.8760(3) 0.4101(12) 0.0051 Uiso
C8_2 C 0.0866(5) 0.7442(3) 0.6360(14) 0.0089 Uiso
O4_2 O 0.2775(3) 0.9182(2) 0.4967(9) 0.0049 Uiso
O5_2 O 0.1078(3) 0.7333(2) 0.7968(9) 0.0113 Uiso
O6_2 O 0.0305(3) 0.7186(2) 0.5989(8) 0.0049 Uiso
Cu4_2 Cu 0.27997(9) 0.98468(7) 0.6575(2) 0.0096 Uiso
Cu8_2 Cu 0.34865(7) 0.96196(5) 0.3242(2) 0.0096 Uiso
O12_2 O 0.0214(4) 0.6361(3) 0.2655(8) 0.0049 Uiso
H2_2 H 0.193871 0.823892 0.705098 . .
O2_2 O 0.2255(3) 0.9334(2) 0.8699(9) 0.0113 Uiso
O8_2 O 0.0260(4) 0.6109(3) 0.8367(9) 0.0049 Uiso
H1_2 H 0.139462 0.842774 0.961569 . .
Cu1_2 Cu 0.98468(7) 0.70471(5) 0.3425(2) 0.0096 Uiso
Cu5_2 Cu 0.96196(9) 0.61330(5) 0.6758(2) 0.0096 Uiso
O7_2 O 0.9182(4) 0.6406(2) 0.5033(9) 0.0049 Uiso
O9_2 O 0.9334(4) 0.7079(2) 0.1301(9) 0.0113 Uiso
O11_2 O 0.9481(4) 0.6453(2) 0.9322(8) 0.0049 Uiso
Cu1_3 Cu 0.72003(5) 0.01532(7) 0.3425(2) 0.0096 Uiso
Cu5_3 Cu 0.65135(7) 0.03804(9) 0.6758(2) 0.0096 Uiso
O7_3 O 0.7225(3) 0.0818(4) 0.5033(9) 0.0049 Uiso
O9_3 O 0.7745(3) 0.0666(4) 0.1301(9) 0.0113 Uiso
O11_3 O 0.6972(3) 0.0519(4) 0.9322(8) 0.0049 Uiso
Cu7_3 Cu 0.62862(5) 0.94664(9) 0.0092(2) 0.0096 Uiso
C1_3 C 0.6871(3) 0.8481(4) 0.1242(13) 0.0063 Uiso
C2_3 C 0.6733(4) 0.7935(6) 0.1976(15) 0.0139 Uiso
C3_3 C 0.6808(4) 0.8901(5) 0.2566(12) 0.0051 Uiso
C4_3 C 0.6758(4) 0.7533(5) 0.0307(14) 0.0089 Uiso
O1_3 O 0.6927(2) 0.9442(3) 0.1700(9) 0.0049 Uiso
O3_3 O 0.6453(2) 0.6972(3) 0.0678(8) 0.0049 Uiso
C5_3 C 0.6462(3) 0.8186(4) 0.5425(13) 0.0063 Uiso
C6_3 C 0.6600(4) 0.8732(6) 0.4691(15) 0.0139 Uiso
C7_3 C 0.6525(4) 0.7766(5) 0.4101(12) 0.0051 Uiso
C8_3 C 0.6575(4) 0.9134(5) 0.6360(14) 0.0089 Uiso
O4_3 O 0.6406(2) 0.7225(3) 0.4967(9) 0.0049 Uiso
O5_3 O 0.6254(2) 0.8922(3) 0.7968(9) 0.0113 Uiso
O6_3 O 0.6880(2) 0.9695(3) 0.5989(8) 0.0049 Uiso
Cu4_3 Cu 0.70471(5) 0.72003(9) 0.6575(2) 0.0096 Uiso
Cu8_3 Cu 0.61330(5) 0.65135(7) 0.3242(2) 0.0096 Uiso
O12_3 O 0.6148(2) 0.9786(4) 0.2655(8) 0.0049 Uiso
H2_3 H 0.630021 0.806129 0.705098 . .
O2_3 O 0.7079(2) 0.7745(3) 0.8699(9) 0.0113 Uiso
Cu6_3 Cu 0.68199(7) 0.62862(9) 0.9908(2) 0.0096 Uiso
O8_3 O 0.5848(2) 0.9740(4) 0.8367(9) 0.0049 Uiso
H1_3 H 0.703312 0.860538 0.961569 . .
H2_4 H 0.842774 0.703312 0.038431 . .
C1_4 C 0.8277(3) 0.6462(3) 0.4575(13) 0.0063 Uiso
C2_4 C 0.7869(4) 0.6600(4) 0.5309(15) 0.0139 Uiso
C3_4 C 0.8760(3) 0.6525(4) 0.5899(12) 0.0051 Uiso
C4_4 C 0.7442(3) 0.6575(4) 0.3640(14) 0.0089 Uiso
O2_4 O 0.7333(2) 0.6254(2) 0.2032(9) 0.0113 Uiso
O3_4 O 0.7186(2) 0.6880(2) 0.4011(8) 0.0049 Uiso
C5_4 C 0.8390(3) 0.6871(3) 0.8758(13) 0.0063 Uiso
C6_4 C 0.8798(4) 0.6733(4) 0.8024(15) 0.0139 Uiso
C7_4 C 0.7907(3) 0.6808(4) 0.7434(12) 0.0051 Uiso
C8_4 C 0.9225(3) 0.6758(4) 0.9693(14) 0.0089 Uiso
O4_4 O 0.7485(2) 0.6927(2) 0.8300(9) 0.0049 Uiso
O9_4 O 0.9588(2) 0.5588(3) 0.4634(9) 0.0113 Uiso
H1_4 H 0.823892 0.630021 0.294902 . .
H2_5 H 0.860538 0.157226 0.038431 . .
C1_5 C 0.8186(4) 0.1723(3) 0.4575(13) 0.0063 Uiso
C2_5 C 0.8732(6) 0.2131(4) 0.5309(15) 0.0139 Uiso
C3_5 C 0.7766(5) 0.1240(3) 0.5899(12) 0.0051 Uiso
C4_5 C 0.9134(5) 0.2558(3) 0.3640(14) 0.0089 Uiso
O2_5 O 0.8922(3) 0.2667(2) 0.2032(9) 0.0113 Uiso
O3_5 O 0.9695(3) 0.2814(2) 0.4011(8) 0.0049 Uiso
C5_5 C 0.8481(4) 0.1610(3) 0.8758(13) 0.0063 Uiso
C6_5 C 0.7935(6) 0.1202(4) 0.8024(15) 0.0139 Uiso
C7_5 C 0.8901(5) 0.2093(3) 0.7434(12) 0.0051 Uiso
C8_5 C 0.7533(5) 0.0775(3) 0.9693(14) 0.0089 Uiso
O4_5 O 0.9442(3) 0.2515(2) 0.8300(9) 0.0049 Uiso
O9_5 O 0.6001(4) 0.0412(2) 0.4634(9) 0.0113 Uiso
H1_5 H 0.806129 0.176108 0.294902 . .
H2_6 H 0.296688 0.139462 0.038431 . .
C1_6 C 0.3538(3) 0.1814(4) 0.4575(13) 0.0063 Uiso
C2_6 C 0.3400(4) 0.1268(6) 0.5309(15) 0.0139 Uiso
C3_6 C 0.3475(4) 0.2234(5) 0.5899(12) 0.0051 Uiso
C4_6 C 0.3425(4) 0.0866(5) 0.3640(14) 0.0089 Uiso
O2_6 O 0.3746(2) 0.1078(3) 0.2032(9) 0.0113 Uiso
O3_6 O 0.3120(2) 0.0305(3) 0.4011(8) 0.0049 Uiso
C5_6 C 0.3129(3) 0.1519(4) 0.8758(13) 0.0063 Uiso
C6_6 C 0.3267(4) 0.2065(6) 0.8024(15) 0.0139 Uiso
C7_6 C 0.3192(4) 0.1099(5) 0.7434(12) 0.0051 Uiso
C8_6 C 0.3242(4) 0.2467(5) 0.9693(14) 0.0089 Uiso
O4_6 O 0.3073(2) 0.0558(3) 0.8300(9) 0.0049 Uiso
O9_6 O 0.4412(3) 0.3999(4) 0.4634(9) 0.0113 Uiso
H1_6 H 0.369979 0.193871 0.294902 . .
C5_7 C 0.5057(3) 0.0204(3) 0.2091(13) 0.0063 Uiso
C6_7 C 0.5465(4) 0.0066(4) 0.1357(15) 0.0139 Uiso
C7_7 C 0.4574(3) 0.0141(4) 0.0767(12) 0.0051 Uiso
C8_7 C 0.5892(3) 0.0091(4) 0.3026(14) 0.0089 Uiso
O4_7 O 0.4152(2) 0.0260(2) 0.1633(9) 0.0049 Uiso
H2_7 H 0.509441 0.0366454 0.371764 . .
O3_7 O 0.3852(2) 0.0214(2) 0.7345(8) 0.0049 Uiso
C1_7 C 0.4943(3) 0.9796(3) 0.7909(13) 0.0063 Uiso
C2_7 C 0.4535(4) 0.9934(4) 0.8643(15) 0.0139 Uiso
C3_7 C 0.5426(3) 0.9859(4) 0.9233(12) 0.0051 Uiso
C4_7 C 0.4108(3) 0.9909(4) 0.6974(14) 0.0089 Uiso
O2_7 O 0.3999(2) 0.9588(2) 0.5366(9) 0.0113 Uiso
H1_7 H 0.490559 0.963355 0.628236 . .
C5_8 C 0.5148(4) 0.4943(3) 0.2091(13) 0.0063 Uiso
C6_8 C 0.4602(6) 0.4535(4) 0.1357(15) 0.0139 Uiso
C7_8 C 0.5568(5) 0.5426(3) 0.0767(12) 0.0051 Uiso
C8_8 C 0.4200(5) 0.4108(3) 0.3026(14) 0.0089 Uiso
O4_8 O 0.6109(3) 0.5848(2) 0.1633(9) 0.0049 Uiso
H2_8 H 0.527204 0.490559 0.371764 . .
C1_8 C 0.4852(4) 0.5057(3) 0.7909(13) 0.0063 Uiso
C2_8 C 0.5398(6) 0.5465(4) 0.8643(15) 0.0139 Uiso
C3_8 C 0.4432(5) 0.4574(3) 0.9233(12) 0.0051 Uiso
C4_8 C 0.5800(5) 0.5892(3) 0.6974(14) 0.0089 Uiso
O2_8 O 0.5588(3) 0.6001(2) 0.5366(9) 0.0113 Uiso
O3_8 O 0.6361(3) 0.6148(2) 0.7345(8) 0.0049 Uiso
H1_8 H 0.472796 0.509441 0.628236 . .
C1_9 C 0.0204(3) 0.5148(4) 0.7909(13) 0.0063 Uiso
C2_9 C 0.0066(4) 0.4602(6) 0.8643(15) 0.0139 Uiso
C3_9 C 0.0141(4) 0.5568(5) 0.9233(12) 0.0051 Uiso
C4_9 C 0.0091(4) 0.4200(5) 0.6974(14) 0.0089 Uiso
O2_9 O 0.0412(2) 0.4412(3) 0.5366(9) 0.0113 Uiso
H1_9 H 0.0366454 0.527204 0.628236 . .
C5_9 C 0.9796(3) 0.4852(4) 0.2091(13) 0.0063 Uiso
C6_9 C 0.9934(4) 0.5398(6) 0.1357(15) 0.0139 Uiso
C7_9 C 0.9859(4) 0.4432(5) 0.0767(12) 0.0051 Uiso
C8_9 C 0.9909(4) 0.5800(5) 0.3026(14) 0.0089 Uiso
O4_9 O 0.9740(2) 0.3891(3) 0.1633(9) 0.0049 Uiso
H2_9 H 0.963355 0.472796 0.371764 . .
O3_9 O 0.9786(2) 0.3639(3) 0.7345(8) 0.0049 Uiso
loop_
_geom_bond_atom_site_label_1
_geom_bond_atom_site_label_2
_geom_bond_site_symmetry_1
_geom_bond_site_symmetry_2
Cu1 O1 1_555 1_555
C1 C2 1_555 1_555
C2 C4 1_555 1_555
C3 C1 1_555 1_555
O1 C3 1_555 1_555
O3 C4 1_555 1_555
C5 C6 1_555 1_555
C6 C3 1_555 1_555
C7 C2 1_555 1_555
C8 C6 1_555 1_555
O4 C7 1_555 1_555
O5 C8 1_555 1_555
O6 Cu1 1_555 1_555
Cu7 O1 1_555 1_555
Cu4 O4 1_555 1_555
Cu5 O6 1_555 1_555
Cu8 O3 1_555 1_555
O7 Cu1 1_555 1_555
O9 Cu1 1_555 1_555
O12 Cu1 1_555 1_555
C5 C7 1_555 1_555
C8 O6 1_555 1_555
O4 Cu8 1_555 1_555
Cu7 O12 1_555 1_555
Cu5 O7 1_555 1_555
C5 H2 1_555 1_555
O2 Cu4 1_555 1_555
C1_2 C2_2 1_555 1_555
C2_2 C4_2 1_555 1_555
C3_2 C1_2 1_555 1_555
O1_2 C3_2 1_555 1_555
O3_2 C4_2 1_555 1_555
C5_2 C6_2 1_555 1_555
C6_2 C3_2 1_555 1_555
C7_2 C2_2 1_555 1_555
C8_2 C6_2 1_555 1_555
O4_2 C7_2 1_555 1_555
O5_2 C8_2 1_555 1_555
Cu7_2 O1_2 1_555 1_555
Cu4_2 O4_2 1_555 1_555
Cu8_2 O3_2 1_555 1_555
C5_2 C7_2 1_555 1_555
C8_2 O6_2 1_555 1_555
O4_2 Cu8_2 1_555 1_555
Cu7_2 O12_2 1_555 1_555
C5_2 H2_2 1_555 1_555
O2_2 Cu4_2 1_555 1_555
O7_2 Cu1_2 1_555 1_555
O9_2 Cu1_2 1_555 1_555
Cu5_2 O7_2 1_555 1_555
O7_3 Cu1_3 1_555 1_555
O9_3 Cu1_3 1_555 1_555
Cu5_3 O7_3 1_555 1_555
C1_3 C2_3 1_555 1_555
C2_3 C4_3 1_555 1_555
C3_3 C1_3 1_555 1_555
O1_3 C3_3 1_555 1_555
O3_3 C4_3 1_555 1_555
C5_3 C6_3 1_555 1_555
C6_3 C3_3 1_555 1_555
C7_3 C2_3 1_555 1_555
C8_3 C6_3 1_555 1_555
O4_3 C7_3 1_555 1_555
O5_3 C8_3 1_555 1_555
Cu7_3 O1_3 1_555 1_555
Cu4_3 O4_3 1_555 1_555
Cu8_3 O3_3 1_555 1_555
C5_3 C7_3 1_555 1_555
C8_3 O6_3 1_555 1_555
O4_3 Cu8_3 1_555 1_555
Cu7_3 O12_3 1_555 1_555
C5_3 H2_3 1_555 1_555
O2_3 Cu4_3 1_555 1_555
C1_4 C2_4 1_555 1_555
C2_4 C4_4 1_555 1_555
C3_4 C1_4 1_555 1_555
C4_4 O2_4 1_555 1_555
O7_2 C3_4 1_555 1_555
O3_4 C4_4 1_555 1_555
C5_4 C6_4 1_555 1_555
C6_4 C3_4 1_555 1_555
C7_4 C2_4 1_555 1_555
C8_4 C6_4 1_555 1_555
O4_4 C7_4 1_555 1_555
O11_2 Cu5_2 1_555 1_555
Cu6_3 O4_4 1_555 1_555
Cu8_3 O3_4 1_555 1_555
Cu4_3 O3_4 1_555 1_555
O9_4 Cu5_2 1_555 1_555
C5_4 C7_4 1_555 1_555
C8_4 O11_2 1_555 1_555
O4_4 Cu4_3 1_555 1_555
C1_4 H1_4 1_555 1_555
C1_5 C2_5 1_555 1_555
C2_5 C4_5 1_555 1_555
C3_5 C1_5 1_555 1_555
C4_5 O2_5 1_555 1_555
O7_3 C3_5 1_555 1_555
O3_5 C4_5 1_555 1_555
C5_5 C6_5 1_555 1_555
C6_5 C3_5 1_555 1_555
C7_5 C2_5 1_555 1_555
C8_5 C6_5 1_555 1_555
O4_5 C7_5 1_555 1_555
O11_3 Cu5_3 1_555 1_555
Cu6 O4_5 1_555 1_555
O9_5 Cu5_3 1_555 1_555
C5_5 C7_5 1_555 1_555
C8_5 O11_3 1_555 1_555
C1_5 H1_5 1_555 1_555
C1_6 C2_6 1_555 1_555
C2_6 C4_6 1_555 1_555
C3_6 C1_6 1_555 1_555
C4_6 O2_6 1_555 1_555
O7 C3_6 1_555 1_555
O3_6 C4_6 1_555 1_555
C5_6 C6_6 1_555 1_555
C6_6 C3_6 1_555 1_555
C7_6 C2_6 1_555 1_555
C8_6 C6_6 1_555 1_555
O4_6 C7_6 1_555 1_555
O11 Cu5 1_555 1_555
Cu6_2 O4_6 1_555 1_555
O8 Cu5 1_555 1_555
O9_6 Cu5 1_555 1_555
C5_6 C7_6 1_555 1_555
C8_6 O11 1_555 1_555
C1_6 H1_6 1_555 1_555
C5_7 C6_7 1_555 1_555
C8_7 C6_7 1_555 1_555
O4_7 C7_7 1_555 1_555
O9_5 C8_7 1_555 1_555
C5_7 C7_7 1_555 1_555
C5_7 H2_7 1_555 1_555
Cu6_2 O3_7 1_555 1_555
C1_7 C2_7 1_555 1_555
C2_7 C4_7 1_555 1_555
C3_7 C1_7 1_555 1_555
C4_7 O2_7 1_555 1_555
O8_3 C3_7 1_555 1_555
O2_7 Cu8_2 1_555 1_555
C1_7 H1_7 1_555 1_555
C5_8 C6_8 1_555 1_555
C8_8 C6_8 1_555 1_555
O4_8 C7_8 1_555 1_555
O9_6 C8_8 1_555 1_555
Cu8_3 O4_8 1_555 1_555
C5_8 C7_8 1_555 1_555
C8_8 O12 1_555 1_555
C5_8 H2_8 1_555 1_555
C1_8 C2_8 1_555 1_555
C2_8 C4_8 1_555 1_555
C3_8 C1_8 1_555 1_555
C4_8 O2_8 1_555 1_555
O8 C3_8 1_555 1_555
O2_8 Cu8_3 1_555 1_555
O3_8 C4_8 1_555 1_555
Cu4_3 O3_8 1_555 1_555
Cu6_3 O3_8 1_555 1_555
C1_8 H1_8 1_555 1_555
C1_9 C2_9 1_555 1_555
C2_9 C4_9 1_555 1_555
C3_9 C1_9 1_555 1_555
C4_9 O2_9 1_555 1_555
O8_2 C3_9 1_555 1_555
O2_9 Cu8 1_555 1_555
C1_9 H1_9 1_555 1_555
C5_9 C6_9 1_555 1_555
C8_9 C6_9 1_555 1_555
O4_9 C7_9 1_555 1_555
O9_4 C8_9 1_555 1_555
C5_9 C7_9 1_555 1_555
C5_9 H2_9 1_555 1_555
Cu6 O3_9 1_555 1_555

#END
