
###############################################################################
#
# This file contains modified crystal structure data generated from the
# MOF subset of the Cambridge Structural Database (CSD) v543 
# hosted by the Cambridge Crystallographic Data Centre (CCDC).
#
# This work is licensed under the Creative Commons
# Attribution-NonCommercial-ShareAlike 4.0 International License.
# To view a copy of this license, visit
# http://creativecommons.org/licenses/by-nc-sa/4.0/
# or send a letter to
# Creative Commons, PO Box 1866, Mountain View, CA 94042, USA.
#
# CIF created using the CSD Python API on 29 September 2022
# The structure has been converted into the P1 space group
# The structure has a 3D framework
# The original CSD entry MOKYAP80 is in the rhombohedral crystal system
# The framework has been calculated to contain at least 10.0% void space
# The void calculation uses a probe of radius 1.32A, grid spacing 0.4
# H atom positions have been added when not included in the experimental data
#
###############################################################################

data_MOKYAP80
_chemical_formula_moiety         '(C72 H18 Cu7 O44)n'
_symmetry_cell_setting           triclinic
_symmetry_space_group_name_H-M   'P 1'
_symmetry_Int_Tables_number      1
_space_group_name_Hall           'P 1'
loop_
_symmetry_equiv_pos_site_id
_symmetry_equiv_pos_as_xyz
1 x,y,z
_cell_length_a                   25.9145(3)
_cell_length_b                   25.9145(3)
_cell_length_c                   6.27573(7)
_cell_angle_alpha                90
_cell_angle_beta                 90
_cell_angle_gamma                120
_cell_volume                     3649.9
loop_
_atom_site_label
_atom_site_type_symbol
_atom_site_fract_x
_atom_site_fract_y
_atom_site_fract_z
_atom_site_U_iso_or_equiv
_atom_site_thermal_displace_type
Cu7 Cu 0.31801(7) 0.37127(5) 0.0091(2) 0.0111 Uiso
Cu1 Cu 0.29540(5) 0.28008(5) 0.3424(2) 0.0111 Uiso
C1 C 0.1609(3) 0.3127(3) 0.1252(13) 0.0063 Uiso
C2 C 0.1202(4) 0.3270(4) 0.1980(15) 0.0165 Uiso
C3 C 0.2094(4) 0.3189(4) 0.2545(12) 0.0063 Uiso
C4 C 0.0765(3) 0.3233(4) 0.0325(13) 0.0089 Uiso
O1 O 0.2517(2) 0.3073(2) 0.1704(9) 0.0062 Uiso
O3 O 0.0520(2) 0.3547(2) 0.0667(8) 0.0065 Uiso
C5 C 0.1724(3) 0.3540(3) 0.5415(13) 0.0063 Uiso
C6 C 0.2131(4) 0.3397(4) 0.4687(15) 0.0165 Uiso
C7 C 0.1239(4) 0.3478(4) 0.4122(12) 0.0063 Uiso
C8 C 0.2568(3) 0.3434(4) 0.6342(13) 0.0089 Uiso
O4 O 0.0816(2) 0.3594(2) 0.4963(9) 0.0062 Uiso
O5 O 0.2668(2) 0.3747(2) 0.7967(10) 0.0139 Uiso
O6 O 0.2813(2) 0.3120(2) 0.6000(8) 0.0065 Uiso
Cu4 Cu 0.01532(7) 0.29540(5) 0.6576(2) 0.0111 Uiso
Cu5 Cu 0.38659(5) 0.34865(7) 0.6757(2) 0.0111 Uiso
Cu8 Cu 0.03793(5) 0.38659(5) 0.3243(2) 0.0111 Uiso
O7 O 0.3594(2) 0.2777(3) 0.5037(9) 0.0062 Uiso
O9 O 0.2920(2) 0.2255(3) 0.1300(10) 0.0139 Uiso
O12 O 0.3640(3) 0.3853(2) 0.2666(8) 0.0065 Uiso
H2 H 0.176774 0.370705 0.703489 . .
O2 O 0.0665(2) 0.2920(2) 0.8700(10) 0.0139 Uiso
O8 O 0.3889(3) 0.4150(2) 0.8371(9) 0.0062 Uiso
O11 O 0.3547(2) 0.3027(3) 0.9333(8) 0.0065 Uiso
H1 H 0.156559 0.295961 0.963178 . .
Cu6 Cu 0.94675(5) 0.31801(7) 0.9909(2) 0.0111 Uiso
Cu6_2 Cu 0.37127(9) 0.05325(5) 0.9909(2) 0.0111 Uiso
Cu7_2 Cu 0.05325(9) 0.68199(7) 0.0091(2) 0.0111 Uiso
C1_2 C 0.1518(4) 0.8391(3) 0.1252(13) 0.0063 Uiso
C2_2 C 0.2068(6) 0.8798(4) 0.1980(15) 0.0165 Uiso
C3_2 C 0.1095(6) 0.7906(4) 0.2545(12) 0.0063 Uiso
C4_2 C 0.2468(5) 0.9235(3) 0.0325(13) 0.0089 Uiso
O1_2 O 0.0556(3) 0.7483(2) 0.1704(9) 0.0062 Uiso
O3_2 O 0.3027(3) 0.9480(2) 0.0667(8) 0.0065 Uiso
C5_2 C 0.1815(4) 0.8276(3) 0.5415(13) 0.0063 Uiso
C6_2 C 0.1265(6) 0.7869(4) 0.4687(15) 0.0165 Uiso
C7_2 C 0.2238(6) 0.8761(4) 0.4122(12) 0.0063 Uiso
C8_2 C 0.0865(5) 0.7432(3) 0.6342(13) 0.0089 Uiso
O4_2 O 0.2777(3) 0.9184(2) 0.4963(9) 0.0062 Uiso
O5_2 O 0.1078(3) 0.7332(2) 0.7967(10) 0.0139 Uiso
O6_2 O 0.0306(3) 0.7187(2) 0.6000(8) 0.0065 Uiso
Cu4_2 Cu 0.28008(9) 0.98468(7) 0.6576(2) 0.0111 Uiso
Cu8_2 Cu 0.34865(7) 0.96207(5) 0.3243(2) 0.0111 Uiso
O12_2 O 0.0214(4) 0.6360(3) 0.2666(8) 0.0065 Uiso
H2_2 H 0.193931 0.823226 0.703489 . .
O2_2 O 0.2255(3) 0.9335(2) 0.8700(10) 0.0139 Uiso
O8_2 O 0.0260(4) 0.6111(3) 0.8371(9) 0.0062 Uiso
H1_2 H 0.139402 0.843441 0.963178 . .
Cu1_2 Cu 0.98468(7) 0.70460(5) 0.3424(2) 0.0111 Uiso
Cu5_2 Cu 0.96207(9) 0.61341(5) 0.6757(2) 0.0111 Uiso
O7_2 O 0.9184(4) 0.6406(2) 0.5037(9) 0.0062 Uiso
O9_2 O 0.9335(4) 0.7080(2) 0.1300(10) 0.0139 Uiso
O11_2 O 0.9480(4) 0.6453(2) 0.9333(8) 0.0065 Uiso
Cu1_3 Cu 0.71992(5) 0.01532(7) 0.3424(2) 0.0111 Uiso
Cu5_3 Cu 0.65135(7) 0.03793(9) 0.6757(2) 0.0111 Uiso
O7_3 O 0.7223(3) 0.0816(4) 0.5037(9) 0.0062 Uiso
O9_3 O 0.7745(3) 0.0665(4) 0.1300(10) 0.0139 Uiso
O11_3 O 0.6973(3) 0.0520(4) 0.9333(8) 0.0065 Uiso
Cu7_3 Cu 0.62873(5) 0.94675(9) 0.0091(2) 0.0111 Uiso
C1_3 C 0.6873(3) 0.8482(4) 0.1252(13) 0.0063 Uiso
C2_3 C 0.6730(4) 0.7932(6) 0.1980(15) 0.0165 Uiso
C3_3 C 0.6811(4) 0.8905(6) 0.2545(12) 0.0063 Uiso
C4_3 C 0.6767(4) 0.7532(5) 0.0325(13) 0.0089 Uiso
O1_3 O 0.6927(2) 0.9444(3) 0.1704(9) 0.0062 Uiso
O3_3 O 0.6453(2) 0.6973(3) 0.0667(8) 0.0065 Uiso
C5_3 C 0.6460(3) 0.8185(4) 0.5415(13) 0.0063 Uiso
C6_3 C 0.6603(4) 0.8735(6) 0.4687(15) 0.0165 Uiso
C7_3 C 0.6522(4) 0.7762(6) 0.4122(12) 0.0063 Uiso
C8_3 C 0.6566(4) 0.9135(5) 0.6342(13) 0.0089 Uiso
O4_3 O 0.6406(2) 0.7223(3) 0.4963(9) 0.0062 Uiso
O5_3 O 0.6253(2) 0.8922(3) 0.7967(10) 0.0139 Uiso
O6_3 O 0.6880(2) 0.9694(3) 0.6000(8) 0.0065 Uiso
Cu4_3 Cu 0.70460(5) 0.71992(9) 0.6576(2) 0.0111 Uiso
Cu8_3 Cu 0.61341(5) 0.65135(7) 0.3243(2) 0.0111 Uiso
O12_3 O 0.6147(2) 0.9786(4) 0.2666(8) 0.0065 Uiso
H2_3 H 0.629295 0.806069 0.703489 . .
O2_3 O 0.7080(2) 0.7745(3) 0.8700(10) 0.0139 Uiso
Cu6_3 Cu 0.68199(7) 0.62873(9) 0.9909(2) 0.0111 Uiso
O8_3 O 0.5850(2) 0.9740(4) 0.8371(9) 0.0062 Uiso
H1_3 H 0.704039 0.860598 0.963178 . .
H2_4 H 0.843441 0.704039 0.0368225 . .
C1_4 C 0.8276(3) 0.6460(3) 0.4585(13) 0.0063 Uiso
C2_4 C 0.7869(4) 0.6603(4) 0.5313(15) 0.0165 Uiso
C3_4 C 0.8761(4) 0.6522(4) 0.5878(12) 0.0063 Uiso
C4_4 C 0.7432(3) 0.6566(4) 0.3658(13) 0.0089 Uiso
O2_4 O 0.7332(2) 0.6253(2) 0.2033(10) 0.0139 Uiso
O3_4 O 0.7187(2) 0.6880(2) 0.4000(8) 0.0065 Uiso
C5_4 C 0.8391(3) 0.6873(3) 0.8748(13) 0.0063 Uiso
C6_4 C 0.8798(4) 0.6730(4) 0.8020(15) 0.0165 Uiso
C7_4 C 0.7906(4) 0.6811(4) 0.7455(12) 0.0063 Uiso
C8_4 C 0.9235(3) 0.6767(4) 0.9675(13) 0.0089 Uiso
O4_4 O 0.7483(2) 0.6927(2) 0.8296(9) 0.0062 Uiso
O9_4 O 0.9587(2) 0.5588(3) 0.4633(10) 0.0139 Uiso
H1_4 H 0.823226 0.629295 0.296511 . .
H2_5 H 0.860598 0.156559 0.0368225 . .
C1_5 C 0.8185(4) 0.1724(3) 0.4585(13) 0.0063 Uiso
C2_5 C 0.8735(6) 0.2131(4) 0.5313(15) 0.0165 Uiso
C3_5 C 0.7762(6) 0.1239(4) 0.5878(12) 0.0063 Uiso
C4_5 C 0.9135(5) 0.2568(3) 0.3658(13) 0.0089 Uiso
O2_5 O 0.8922(3) 0.2668(2) 0.2033(10) 0.0139 Uiso
O3_5 O 0.9694(3) 0.2813(2) 0.4000(8) 0.0065 Uiso
C5_5 C 0.8482(4) 0.1609(3) 0.8748(13) 0.0063 Uiso
C6_5 C 0.7932(6) 0.1202(4) 0.8020(15) 0.0165 Uiso
C7_5 C 0.8905(6) 0.2094(4) 0.7455(12) 0.0063 Uiso
C8_5 C 0.7532(5) 0.0765(3) 0.9675(13) 0.0089 Uiso
O4_5 O 0.9444(3) 0.2517(2) 0.8296(9) 0.0062 Uiso
O9_5 O 0.6002(4) 0.0413(2) 0.4633(10) 0.0139 Uiso
H1_5 H 0.806069 0.176774 0.296511 . .
H2_6 H 0.295961 0.139402 0.0368225 . .
C1_6 C 0.3540(3) 0.1815(4) 0.4585(13) 0.0063 Uiso
C2_6 C 0.3397(4) 0.1265(6) 0.5313(15) 0.0165 Uiso
C3_6 C 0.3478(4) 0.2238(6) 0.5878(12) 0.0063 Uiso
C4_6 C 0.3434(4) 0.0865(5) 0.3658(13) 0.0089 Uiso
O2_6 O 0.3747(2) 0.1078(3) 0.2033(10) 0.0139 Uiso
O3_6 O 0.3120(2) 0.0306(3) 0.4000(8) 0.0065 Uiso
C5_6 C 0.3127(3) 0.1518(4) 0.8748(13) 0.0063 Uiso
C6_6 C 0.3270(4) 0.2068(6) 0.8020(15) 0.0165 Uiso
C7_6 C 0.3189(4) 0.1095(6) 0.7455(12) 0.0063 Uiso
C8_6 C 0.3233(4) 0.2468(5) 0.9675(13) 0.0089 Uiso
O4_6 O 0.3073(2) 0.0556(3) 0.8296(9) 0.0062 Uiso
O9_6 O 0.4412(3) 0.3998(4) 0.4633(10) 0.0139 Uiso
H1_6 H 0.370705 0.193931 0.296511 . .
C5_7 C 0.5058(3) 0.0206(3) 0.2081(13) 0.0063 Uiso
C6_7 C 0.5465(4) 0.0063(4) 0.1353(15) 0.0165 Uiso
C7_7 C 0.4573(4) 0.0144(4) 0.0788(12) 0.0063 Uiso
C8_7 C 0.5902(3) 0.0100(4) 0.3008(13) 0.0089 Uiso
O4_7 O 0.4150(2) 0.0260(2) 0.1629(9) 0.0062 Uiso
H2_7 H 0.510107 0.037372 0.370156 . .
O3_7 O 0.3853(2) 0.0214(2) 0.7334(8) 0.0065 Uiso
C1_7 C 0.4942(3) 0.9794(3) 0.7919(13) 0.0063 Uiso
C2_7 C 0.4535(4) 0.9937(4) 0.8647(15) 0.0165 Uiso
C3_7 C 0.5427(4) 0.9856(4) 0.9212(12) 0.0063 Uiso
C4_7 C 0.4098(3) 0.9900(4) 0.6992(13) 0.0089 Uiso
O2_7 O 0.3998(2) 0.9587(2) 0.5367(10) 0.0139 Uiso
H1_7 H 0.489893 0.962628 0.629844 . .
C5_8 C 0.5149(4) 0.4942(3) 0.2081(13) 0.0063 Uiso
C6_8 C 0.4599(6) 0.4535(4) 0.1353(15) 0.0165 Uiso
C7_8 C 0.5572(6) 0.5427(4) 0.0788(12) 0.0063 Uiso
C8_8 C 0.4199(5) 0.4098(3) 0.3008(13) 0.0089 Uiso
O4_8 O 0.6111(3) 0.5850(2) 0.1629(9) 0.0062 Uiso
H2_8 H 0.527265 0.489893 0.370156 . .
C1_8 C 0.4851(4) 0.5058(3) 0.7919(13) 0.0063 Uiso
C2_8 C 0.5401(6) 0.5465(4) 0.8647(15) 0.0165 Uiso
C3_8 C 0.4428(6) 0.4573(4) 0.9212(12) 0.0063 Uiso
C4_8 C 0.5801(5) 0.5902(3) 0.6992(13) 0.0089 Uiso
O2_8 O 0.5588(3) 0.6002(2) 0.5367(10) 0.0139 Uiso
O3_8 O 0.6360(3) 0.6147(2) 0.7334(8) 0.0065 Uiso
H1_8 H 0.472735 0.510107 0.629844 . .
C1_9 C 0.0206(3) 0.5149(4) 0.7919(13) 0.0063 Uiso
C2_9 C 0.0063(4) 0.4599(6) 0.8647(15) 0.0165 Uiso
C3_9 C 0.0144(4) 0.5572(6) 0.9212(12) 0.0063 Uiso
C4_9 C 0.0100(4) 0.4199(5) 0.6992(13) 0.0089 Uiso
O2_9 O 0.0413(2) 0.4412(3) 0.5367(10) 0.0139 Uiso
H1_9 H 0.037372 0.527265 0.629844 . .
C5_9 C 0.9794(3) 0.4851(4) 0.2081(13) 0.0063 Uiso
C6_9 C 0.9937(4) 0.5401(6) 0.1353(15) 0.0165 Uiso
C7_9 C 0.9856(4) 0.4428(6) 0.0788(12) 0.0063 Uiso
C8_9 C 0.9900(4) 0.5801(5) 0.3008(13) 0.0089 Uiso
O4_9 O 0.9740(2) 0.3889(3) 0.1629(9) 0.0062 Uiso
H2_9 H 0.962628 0.472735 0.370156 . .
O3_9 O 0.9786(2) 0.3640(3) 0.7334(8) 0.0065 Uiso
loop_
_geom_bond_atom_site_label_1
_geom_bond_atom_site_label_2
_geom_bond_site_symmetry_1
_geom_bond_site_symmetry_2
Cu1 O1 1_555 1_555
C1 C2 1_555 1_555
C2 C4 1_555 1_555
C3 C1 1_555 1_555
O1 C3 1_555 1_555
O3 C4 1_555 1_555
C5 C6 1_555 1_555
C6 C3 1_555 1_555
C7 C2 1_555 1_555
C8 C6 1_555 1_555
O4 C7 1_555 1_555
O5 C8 1_555 1_555
O6 Cu1 1_555 1_555
Cu7 O1 1_555 1_555
Cu4 O4 1_555 1_555
Cu5 O6 1_555 1_555
Cu8 O3 1_555 1_555
O7 Cu1 1_555 1_555
O9 Cu1 1_555 1_555
O12 Cu1 1_555 1_555
C5 C7 1_555 1_555
C8 O6 1_555 1_555
O4 Cu8 1_555 1_555
Cu7 O12 1_555 1_555
Cu5 O7 1_555 1_555
C5 H2 1_555 1_555
O2 Cu4 1_555 1_555
C1_2 C2_2 1_555 1_555
C2_2 C4_2 1_555 1_555
C3_2 C1_2 1_555 1_555
O1_2 C3_2 1_555 1_555
O3_2 C4_2 1_555 1_555
C5_2 C6_2 1_555 1_555
C6_2 C3_2 1_555 1_555
C7_2 C2_2 1_555 1_555
C8_2 C6_2 1_555 1_555
O4_2 C7_2 1_555 1_555
O5_2 C8_2 1_555 1_555
Cu7_2 O1_2 1_555 1_555
Cu4_2 O4_2 1_555 1_555
Cu8_2 O3_2 1_555 1_555
C5_2 C7_2 1_555 1_555
C8_2 O6_2 1_555 1_555
O4_2 Cu8_2 1_555 1_555
Cu7_2 O12_2 1_555 1_555
C5_2 H2_2 1_555 1_555
O2_2 Cu4_2 1_555 1_555
O7_2 Cu1_2 1_555 1_555
O9_2 Cu1_2 1_555 1_555
Cu5_2 O7_2 1_555 1_555
O7_3 Cu1_3 1_555 1_555
O9_3 Cu1_3 1_555 1_555
Cu5_3 O7_3 1_555 1_555
C1_3 C2_3 1_555 1_555
C2_3 C4_3 1_555 1_555
C3_3 C1_3 1_555 1_555
O1_3 C3_3 1_555 1_555
O3_3 C4_3 1_555 1_555
C5_3 C6_3 1_555 1_555
C6_3 C3_3 1_555 1_555
C7_3 C2_3 1_555 1_555
C8_3 C6_3 1_555 1_555
O4_3 C7_3 1_555 1_555
O5_3 C8_3 1_555 1_555
Cu7_3 O1_3 1_555 1_555
Cu4_3 O4_3 1_555 1_555
Cu8_3 O3_3 1_555 1_555
C5_3 C7_3 1_555 1_555
C8_3 O6_3 1_555 1_555
O4_3 Cu8_3 1_555 1_555
Cu7_3 O12_3 1_555 1_555
C5_3 H2_3 1_555 1_555
O2_3 Cu4_3 1_555 1_555
C1_4 C2_4 1_555 1_555
C2_4 C4_4 1_555 1_555
C3_4 C1_4 1_555 1_555
C4_4 O2_4 1_555 1_555
O7_2 C3_4 1_555 1_555
O3_4 C4_4 1_555 1_555
C5_4 C6_4 1_555 1_555
C6_4 C3_4 1_555 1_555
C7_4 C2_4 1_555 1_555
C8_4 C6_4 1_555 1_555
O4_4 C7_4 1_555 1_555
O11_2 Cu5_2 1_555 1_555
Cu6_3 O4_4 1_555 1_555
Cu8_3 O3_4 1_555 1_555
Cu4_3 O3_4 1_555 1_555
O9_4 Cu5_2 1_555 1_555
C5_4 C7_4 1_555 1_555
C8_4 O11_2 1_555 1_555
O4_4 Cu4_3 1_555 1_555
C1_4 H1_4 1_555 1_555
C1_5 C2_5 1_555 1_555
C2_5 C4_5 1_555 1_555
C3_5 C1_5 1_555 1_555
C4_5 O2_5 1_555 1_555
O7_3 C3_5 1_555 1_555
O3_5 C4_5 1_555 1_555
C5_5 C6_5 1_555 1_555
C6_5 C3_5 1_555 1_555
C7_5 C2_5 1_555 1_555
C8_5 C6_5 1_555 1_555
O4_5 C7_5 1_555 1_555
O11_3 Cu5_3 1_555 1_555
Cu6 O4_5 1_555 1_555
O9_5 Cu5_3 1_555 1_555
C5_5 C7_5 1_555 1_555
C8_5 O11_3 1_555 1_555
C1_5 H1_5 1_555 1_555
C1_6 C2_6 1_555 1_555
C2_6 C4_6 1_555 1_555
C3_6 C1_6 1_555 1_555
C4_6 O2_6 1_555 1_555
O7 C3_6 1_555 1_555
O3_6 C4_6 1_555 1_555
C5_6 C6_6 1_555 1_555
C6_6 C3_6 1_555 1_555
C7_6 C2_6 1_555 1_555
C8_6 C6_6 1_555 1_555
O4_6 C7_6 1_555 1_555
O11 Cu5 1_555 1_555
Cu6_2 O4_6 1_555 1_555
O8 Cu5 1_555 1_555
O9_6 Cu5 1_555 1_555
C5_6 C7_6 1_555 1_555
C8_6 O11 1_555 1_555
C1_6 H1_6 1_555 1_555
C5_7 C6_7 1_555 1_555
C8_7 C6_7 1_555 1_555
O4_7 C7_7 1_555 1_555
O9_5 C8_7 1_555 1_555
C5_7 C7_7 1_555 1_555
C5_7 H2_7 1_555 1_555
Cu6_2 O3_7 1_555 1_555
C1_7 C2_7 1_555 1_555
C2_7 C4_7 1_555 1_555
C3_7 C1_7 1_555 1_555
C4_7 O2_7 1_555 1_555
O8_3 C3_7 1_555 1_555
O2_7 Cu8_2 1_555 1_555
C1_7 H1_7 1_555 1_555
C5_8 C6_8 1_555 1_555
C8_8 C6_8 1_555 1_555
O4_8 C7_8 1_555 1_555
O9_6 C8_8 1_555 1_555
Cu8_3 O4_8 1_555 1_555
C5_8 C7_8 1_555 1_555
C8_8 O12 1_555 1_555
C5_8 H2_8 1_555 1_555
C1_8 C2_8 1_555 1_555
C2_8 C4_8 1_555 1_555
C3_8 C1_8 1_555 1_555
C4_8 O2_8 1_555 1_555
O8 C3_8 1_555 1_555
O2_8 Cu8_3 1_555 1_555
O3_8 C4_8 1_555 1_555
Cu4_3 O3_8 1_555 1_555
Cu6_3 O3_8 1_555 1_555
C1_8 H1_8 1_555 1_555
C1_9 C2_9 1_555 1_555
C2_9 C4_9 1_555 1_555
C3_9 C1_9 1_555 1_555
C4_9 O2_9 1_555 1_555
O8_2 C3_9 1_555 1_555
O2_9 Cu8 1_555 1_555
C1_9 H1_9 1_555 1_555
C5_9 C6_9 1_555 1_555
C8_9 C6_9 1_555 1_555
O4_9 C7_9 1_555 1_555
O9_4 C8_9 1_555 1_555
C5_9 C7_9 1_555 1_555
C5_9 H2_9 1_555 1_555
Cu6 O3_9 1_555 1_555

#END
