
###############################################################################
#
# This file contains modified crystal structure data generated from the
# MOF subset of the Cambridge Structural Database (CSD) v543 
# hosted by the Cambridge Crystallographic Data Centre (CCDC).
#
# This work is licensed under the Creative Commons
# Attribution-NonCommercial-ShareAlike 4.0 International License.
# To view a copy of this license, visit
# http://creativecommons.org/licenses/by-nc-sa/4.0/
# or send a letter to
# Creative Commons, PO Box 1866, Mountain View, CA 94042, USA.
#
# CIF created using the CSD Python API on 29 September 2022
# The structure has been converted into the P1 space group
# The structure has a 3D framework
# The original CSD entry MOKYAP93 is in the rhombohedral crystal system
# The framework has been calculated to contain at least 10.0% void space
# The void calculation uses a probe of radius 1.32A, grid spacing 0.4
# H atom positions have been added when not included in the experimental data
#
###############################################################################

data_MOKYAP93
_chemical_formula_moiety         '(C72 H18 Cu7 O44)n'
_symmetry_cell_setting           triclinic
_symmetry_space_group_name_H-M   'P 1'
_symmetry_Int_Tables_number      1
_space_group_name_Hall           'P 1'
loop_
_symmetry_equiv_pos_site_id
_symmetry_equiv_pos_as_xyz
1 x,y,z
_cell_length_a                   25.9142(3)
_cell_length_b                   25.9142(3)
_cell_length_c                   6.27636(7)
_cell_angle_alpha                90
_cell_angle_beta                 90
_cell_angle_gamma                120
_cell_volume                     3650.18
loop_
_atom_site_label
_atom_site_type_symbol
_atom_site_fract_x
_atom_site_fract_y
_atom_site_fract_z
Cu7 Cu 0.31802(7) 0.37126(5) 0.00901(19)
Cu1 Cu 0.29541(5) 0.28010(5) 0.34234(19)
C1 C 0.1611(3) 0.3126(3) 0.1245(13)
C2 C 0.1203(4) 0.3271(4) 0.1983(15)
C3 C 0.2095(4) 0.3191(4) 0.2553(12)
C4 C 0.0761(3) 0.3231(4) 0.0335(13)
O1 O 0.2517(2) 0.3073(2) 0.1700(9)
O3 O 0.0520(2) 0.3548(2) 0.0663(8)
C5 C 0.1722(3) 0.3541(3) 0.5422(13)
C6 C 0.2130(4) 0.3396(4) 0.4684(15)
C7 C 0.1238(4) 0.3476(4) 0.4114(12)
C8 C 0.2572(3) 0.3436(4) 0.6332(13)
O4 O 0.0816(2) 0.3594(2) 0.4967(9)
O5 O 0.2667(2) 0.3747(2) 0.7966(9)
O6 O 0.2813(2) 0.3119(2) 0.6004(8)
Cu4 Cu 0.01531(7) 0.29541(5) 0.65766(19)
Cu5 Cu 0.38657(5) 0.34864(7) 0.67567(19)
Cu8 Cu 0.03792(5) 0.38657(5) 0.32433(19)
O7 O 0.3594(2) 0.2777(3) 0.5033(9)
O9 O 0.2920(2) 0.2254(3) 0.1299(9)
O12 O 0.3639(3) 0.3853(2) 0.2670(8)
H2 H 0.176539 0.370943 0.703946
O2 O 0.0666(2) 0.2920(2) 0.8701(9)
O8 O 0.3889(3) 0.4150(2) 0.8367(9)
O11 O 0.3548(2) 0.3028(3) 0.9337(8)
H1 H 0.156794 0.295724 0.96272
Cu6 Cu 0.94677(5) 0.31802(7) 0.99099(19)
Cu6_2 Cu 0.37126(9) 0.05323(5) 0.99099(19)
Cu7_2 Cu 0.05323(9) 0.68198(7) 0.00901(19)
C1_2 C 0.1515(4) 0.8389(3) 0.1245(13)
C2_2 C 0.2068(6) 0.8797(4) 0.1983(15)
C3_2 C 0.1096(6) 0.7905(4) 0.2553(12)
C4_2 C 0.2470(5) 0.9239(3) 0.0335(13)
O1_2 O 0.0556(3) 0.7483(2) 0.1700(9)
O3_2 O 0.3028(3) 0.9480(2) 0.0663(8)
C5_2 C 0.1818(4) 0.8278(3) 0.5422(13)
C6_2 C 0.1265(6) 0.7870(4) 0.4684(15)
C7_2 C 0.2237(6) 0.8762(4) 0.4114(12)
C8_2 C 0.0863(5) 0.7428(3) 0.6332(13)
O4_2 O 0.2777(3) 0.9184(2) 0.4967(9)
O5_2 O 0.1079(3) 0.7333(2) 0.7966(9)
O6_2 O 0.0305(3) 0.7187(2) 0.6004(8)
Cu4_2 Cu 0.28010(9) 0.98469(7) 0.65766(19)
Cu8_2 Cu 0.34864(7) 0.96208(5) 0.32433(19)
O12_2 O 0.0215(4) 0.6361(3) 0.2670(8)
H2_2 H 0.194404 0.823461 0.703946
O2_2 O 0.2254(3) 0.9334(2) 0.8701(9)
O8_2 O 0.0260(4) 0.6111(3) 0.8367(9)
H1_2 H 0.13893 0.843206 0.96272
Cu1_2 Cu 0.98469(7) 0.70459(5) 0.34234(19)
Cu5_2 Cu 0.96208(9) 0.61343(5) 0.67567(19)
O7_2 O 0.9184(4) 0.6406(2) 0.5033(9)
O9_2 O 0.9334(4) 0.7080(2) 0.1299(9)
O11_2 O 0.9480(4) 0.6452(2) 0.9337(8)
Cu1_3 Cu 0.71990(5) 0.01531(7) 0.34234(19)
Cu5_3 Cu 0.65136(7) 0.03792(9) 0.67567(19)
O7_3 O 0.7223(3) 0.0816(4) 0.5033(9)
O9_3 O 0.7746(3) 0.0666(4) 0.1299(9)
O11_3 O 0.6972(3) 0.0520(4) 0.9337(8)
Cu7_3 Cu 0.62874(5) 0.94677(9) 0.00901(19)
C1_3 C 0.6874(3) 0.8485(4) 0.1245(13)
C2_3 C 0.6729(4) 0.7932(6) 0.1983(15)
C3_3 C 0.6809(4) 0.8904(6) 0.2553(12)
C4_3 C 0.6769(4) 0.7530(5) 0.0335(13)
O1_3 O 0.6927(2) 0.9444(3) 0.1700(9)
O3_3 O 0.6452(2) 0.6972(3) 0.0663(8)
C5_3 C 0.6459(3) 0.8182(4) 0.5422(13)
C6_3 C 0.6604(4) 0.8735(6) 0.4684(15)
C7_3 C 0.6524(4) 0.7763(6) 0.4114(12)
C8_3 C 0.6564(4) 0.9137(5) 0.6332(13)
O4_3 O 0.6406(2) 0.7223(3) 0.4967(9)
O5_3 O 0.6253(2) 0.8921(3) 0.7966(9)
O6_3 O 0.6881(2) 0.9695(3) 0.6004(8)
Cu4_3 Cu 0.70459(5) 0.71990(9) 0.65766(19)
Cu8_3 Cu 0.61343(5) 0.65136(7) 0.32433(19)
O12_3 O 0.6147(2) 0.9785(4) 0.2670(8)
H2_3 H 0.629057 0.805596 0.703946
O2_3 O 0.7080(2) 0.7746(3) 0.8701(9)
Cu6_3 Cu 0.68198(7) 0.62874(9) 0.99099(19)
O8_3 O 0.5850(2) 0.9740(4) 0.8367(9)
H1_3 H 0.704276 0.86107 0.96272
H2_4 H 0.843206 0.704276 0.0372798
C1_4 C 0.8278(3) 0.6459(3) 0.4578(13)
C2_4 C 0.7870(4) 0.6604(4) 0.5316(15)
C3_4 C 0.8762(4) 0.6524(4) 0.5886(12)
C4_4 C 0.7428(3) 0.6564(4) 0.3668(13)
O2_4 O 0.7333(2) 0.6253(2) 0.2034(9)
O3_4 O 0.7187(2) 0.6881(2) 0.3996(8)
C5_4 C 0.8389(3) 0.6874(3) 0.8755(13)
C6_4 C 0.8797(4) 0.6729(4) 0.8017(15)
C7_4 C 0.7905(4) 0.6809(4) 0.7447(12)
C8_4 C 0.9239(3) 0.6769(4) 0.9665(13)
O4_4 O 0.7483(2) 0.6927(2) 0.8300(9)
O9_4 O 0.9587(2) 0.5587(3) 0.4632(9)
H1_4 H 0.823461 0.629057 0.296054
H2_5 H 0.86107 0.156794 0.0372798
C1_5 C 0.8182(4) 0.1722(3) 0.4578(13)
C2_5 C 0.8735(6) 0.2130(4) 0.5316(15)
C3_5 C 0.7763(6) 0.1238(4) 0.5886(12)
C4_5 C 0.9137(5) 0.2572(3) 0.3668(13)
O2_5 O 0.8921(3) 0.2667(2) 0.2034(9)
O3_5 O 0.9695(3) 0.2813(2) 0.3996(8)
C5_5 C 0.8485(4) 0.1611(3) 0.8755(13)
C6_5 C 0.7932(6) 0.1203(4) 0.8017(15)
C7_5 C 0.8904(6) 0.2095(4) 0.7447(12)
C8_5 C 0.7530(5) 0.0761(3) 0.9665(13)
O4_5 O 0.9444(3) 0.2517(2) 0.8300(9)
O9_5 O 0.6001(4) 0.0413(2) 0.4632(9)
H1_5 H 0.805596 0.176539 0.296054
H2_6 H 0.295724 0.13893 0.0372798
C1_6 C 0.3541(3) 0.1818(4) 0.4578(13)
C2_6 C 0.3396(4) 0.1265(6) 0.5316(15)
C3_6 C 0.3476(4) 0.2237(6) 0.5886(12)
C4_6 C 0.3436(4) 0.0863(5) 0.3668(13)
O2_6 O 0.3747(2) 0.1079(3) 0.2034(9)
O3_6 O 0.3119(2) 0.0305(3) 0.3996(8)
C5_6 C 0.3126(3) 0.1515(4) 0.8755(13)
C6_6 C 0.3271(4) 0.2068(6) 0.8017(15)
C7_6 C 0.3191(4) 0.1096(6) 0.7447(12)
C8_6 C 0.3231(4) 0.2470(5) 0.9665(13)
O4_6 O 0.3073(2) 0.0556(3) 0.8300(9)
O9_6 O 0.4413(3) 0.3999(4) 0.4632(9)
H1_6 H 0.370943 0.194404 0.296054
C5_7 C 0.5056(3) 0.0207(3) 0.2088(13)
C6_7 C 0.5464(4) 0.0062(4) 0.1350(15)
C7_7 C 0.4572(4) 0.0142(4) 0.0780(12)
C8_7 C 0.5906(3) 0.0102(4) 0.2998(13)
O4_7 O 0.4150(2) 0.0260(2) 0.1633(9)
H2_7 H 0.509872 0.0376093 0.370613
O3_7 O 0.3853(2) 0.0215(2) 0.7330(8)
C1_7 C 0.4944(3) 0.9793(3) 0.7912(13)
C2_7 C 0.4536(4) 0.9938(4) 0.8650(15)
C3_7 C 0.5428(4) 0.9858(4) 0.9220(12)
C4_7 C 0.4094(3) 0.9898(4) 0.7002(13)
O2_7 O 0.3999(2) 0.9587(2) 0.5368(9)
H1_7 H 0.490128 0.962391 0.629387
C5_8 C 0.5152(4) 0.4944(3) 0.2088(13)
C6_8 C 0.4599(6) 0.4536(4) 0.1350(15)
C7_8 C 0.5571(6) 0.5428(4) 0.0780(12)
C8_8 C 0.4197(5) 0.4094(3) 0.2998(13)
O4_8 O 0.6111(3) 0.5850(2) 0.1633(9)
H2_8 H 0.527737 0.490128 0.370613
C1_8 C 0.4848(4) 0.5056(3) 0.7912(13)
C2_8 C 0.5401(6) 0.5464(4) 0.8650(15)
C3_8 C 0.4429(6) 0.4572(4) 0.9220(12)
C4_8 C 0.5803(5) 0.5906(3) 0.7002(13)
O2_8 O 0.5587(3) 0.6001(2) 0.5368(9)
O3_8 O 0.6361(3) 0.6147(2) 0.7330(8)
H1_8 H 0.472263 0.509872 0.629387
C1_9 C 0.0207(3) 0.5152(4) 0.7912(13)
C2_9 C 0.0062(4) 0.4599(6) 0.8650(15)
C3_9 C 0.0142(4) 0.5571(6) 0.9220(12)
C4_9 C 0.0102(4) 0.4197(5) 0.7002(13)
O2_9 O 0.0413(2) 0.4413(3) 0.5368(9)
H1_9 H 0.0376093 0.527737 0.629387
C5_9 C 0.9793(3) 0.4848(4) 0.2088(13)
C6_9 C 0.9938(4) 0.5401(6) 0.1350(15)
C7_9 C 0.9858(4) 0.4429(6) 0.0780(12)
C8_9 C 0.9898(4) 0.5803(5) 0.2998(13)
O4_9 O 0.9740(2) 0.3889(3) 0.1633(9)
H2_9 H 0.962391 0.472263 0.370613
O3_9 O 0.9785(2) 0.3639(3) 0.7330(8)
loop_
_geom_bond_atom_site_label_1
_geom_bond_atom_site_label_2
_geom_bond_site_symmetry_1
_geom_bond_site_symmetry_2
Cu1 O1 1_555 1_555
C1 C2 1_555 1_555
C2 C4 1_555 1_555
C3 C1 1_555 1_555
O1 C3 1_555 1_555
O3 C4 1_555 1_555
C5 C6 1_555 1_555
C6 C3 1_555 1_555
C7 C2 1_555 1_555
C8 C6 1_555 1_555
O4 C7 1_555 1_555
O5 C8 1_555 1_555
O6 Cu1 1_555 1_555
Cu7 O1 1_555 1_555
Cu4 O4 1_555 1_555
Cu5 O6 1_555 1_555
Cu8 O3 1_555 1_555
O7 Cu1 1_555 1_555
O9 Cu1 1_555 1_555
O12 Cu1 1_555 1_555
C5 C7 1_555 1_555
C8 O6 1_555 1_555
O4 Cu8 1_555 1_555
Cu7 O12 1_555 1_555
Cu5 O7 1_555 1_555
C5 H2 1_555 1_555
O2 Cu4 1_555 1_555
C1_2 C2_2 1_555 1_555
C2_2 C4_2 1_555 1_555
C3_2 C1_2 1_555 1_555
O1_2 C3_2 1_555 1_555
O3_2 C4_2 1_555 1_555
C5_2 C6_2 1_555 1_555
C6_2 C3_2 1_555 1_555
C7_2 C2_2 1_555 1_555
C8_2 C6_2 1_555 1_555
O4_2 C7_2 1_555 1_555
O5_2 C8_2 1_555 1_555
Cu7_2 O1_2 1_555 1_555
Cu4_2 O4_2 1_555 1_555
Cu8_2 O3_2 1_555 1_555
C5_2 C7_2 1_555 1_555
C8_2 O6_2 1_555 1_555
O4_2 Cu8_2 1_555 1_555
Cu7_2 O12_2 1_555 1_555
C5_2 H2_2 1_555 1_555
O2_2 Cu4_2 1_555 1_555
O7_2 Cu1_2 1_555 1_555
O9_2 Cu1_2 1_555 1_555
Cu5_2 O7_2 1_555 1_555
O7_3 Cu1_3 1_555 1_555
O9_3 Cu1_3 1_555 1_555
Cu5_3 O7_3 1_555 1_555
C1_3 C2_3 1_555 1_555
C2_3 C4_3 1_555 1_555
C3_3 C1_3 1_555 1_555
O1_3 C3_3 1_555 1_555
O3_3 C4_3 1_555 1_555
C5_3 C6_3 1_555 1_555
C6_3 C3_3 1_555 1_555
C7_3 C2_3 1_555 1_555
C8_3 C6_3 1_555 1_555
O4_3 C7_3 1_555 1_555
O5_3 C8_3 1_555 1_555
Cu7_3 O1_3 1_555 1_555
Cu4_3 O4_3 1_555 1_555
Cu8_3 O3_3 1_555 1_555
C5_3 C7_3 1_555 1_555
C8_3 O6_3 1_555 1_555
O4_3 Cu8_3 1_555 1_555
Cu7_3 O12_3 1_555 1_555
C5_3 H2_3 1_555 1_555
O2_3 Cu4_3 1_555 1_555
C1_4 C2_4 1_555 1_555
C2_4 C4_4 1_555 1_555
C3_4 C1_4 1_555 1_555
C4_4 O2_4 1_555 1_555
O7_2 C3_4 1_555 1_555
O3_4 C4_4 1_555 1_555
C5_4 C6_4 1_555 1_555
C6_4 C3_4 1_555 1_555
C7_4 C2_4 1_555 1_555
C8_4 C6_4 1_555 1_555
O4_4 C7_4 1_555 1_555
O11_2 Cu5_2 1_555 1_555
Cu6_3 O4_4 1_555 1_555
Cu8_3 O3_4 1_555 1_555
Cu4_3 O3_4 1_555 1_555
O9_4 Cu5_2 1_555 1_555
C5_4 C7_4 1_555 1_555
C8_4 O11_2 1_555 1_555
O4_4 Cu4_3 1_555 1_555
C1_4 H1_4 1_555 1_555
C1_5 C2_5 1_555 1_555
C2_5 C4_5 1_555 1_555
C3_5 C1_5 1_555 1_555
C4_5 O2_5 1_555 1_555
O7_3 C3_5 1_555 1_555
O3_5 C4_5 1_555 1_555
C5_5 C6_5 1_555 1_555
C6_5 C3_5 1_555 1_555
C7_5 C2_5 1_555 1_555
C8_5 C6_5 1_555 1_555
O4_5 C7_5 1_555 1_555
O11_3 Cu5_3 1_555 1_555
Cu6 O4_5 1_555 1_555
O9_5 Cu5_3 1_555 1_555
C5_5 C7_5 1_555 1_555
C8_5 O11_3 1_555 1_555
C1_5 H1_5 1_555 1_555
C1_6 C2_6 1_555 1_555
C2_6 C4_6 1_555 1_555
C3_6 C1_6 1_555 1_555
C4_6 O2_6 1_555 1_555
O7 C3_6 1_555 1_555
O3_6 C4_6 1_555 1_555
C5_6 C6_6 1_555 1_555
C6_6 C3_6 1_555 1_555
C7_6 C2_6 1_555 1_555
C8_6 C6_6 1_555 1_555
O4_6 C7_6 1_555 1_555
O11 Cu5 1_555 1_555
Cu6_2 O4_6 1_555 1_555
O8 Cu5 1_555 1_555
O9_6 Cu5 1_555 1_555
C5_6 C7_6 1_555 1_555
C8_6 O11 1_555 1_555
C1_6 H1_6 1_555 1_555
C5_7 C6_7 1_555 1_555
C8_7 C6_7 1_555 1_555
O4_7 C7_7 1_555 1_555
O9_5 C8_7 1_555 1_555
C5_7 C7_7 1_555 1_555
C5_7 H2_7 1_555 1_555
Cu6_2 O3_7 1_555 1_555
C1_7 C2_7 1_555 1_555
C2_7 C4_7 1_555 1_555
C3_7 C1_7 1_555 1_555
C4_7 O2_7 1_555 1_555
O8_3 C3_7 1_555 1_555
O2_7 Cu8_2 1_555 1_555
C1_7 H1_7 1_555 1_555
C5_8 C6_8 1_555 1_555
C8_8 C6_8 1_555 1_555
O4_8 C7_8 1_555 1_555
O9_6 C8_8 1_555 1_555
Cu8_3 O4_8 1_555 1_555
C5_8 C7_8 1_555 1_555
C8_8 O12 1_555 1_555
C5_8 H2_8 1_555 1_555
C1_8 C2_8 1_555 1_555
C2_8 C4_8 1_555 1_555
C3_8 C1_8 1_555 1_555
C4_8 O2_8 1_555 1_555
O8 C3_8 1_555 1_555
O2_8 Cu8_3 1_555 1_555
O3_8 C4_8 1_555 1_555
Cu4_3 O3_8 1_555 1_555
Cu6_3 O3_8 1_555 1_555
C1_8 H1_8 1_555 1_555
C1_9 C2_9 1_555 1_555
C2_9 C4_9 1_555 1_555
C3_9 C1_9 1_555 1_555
C4_9 O2_9 1_555 1_555
O8_2 C3_9 1_555 1_555
O2_9 Cu8 1_555 1_555
C1_9 H1_9 1_555 1_555
C5_9 C6_9 1_555 1_555
C8_9 C6_9 1_555 1_555
O4_9 C7_9 1_555 1_555
O9_4 C8_9 1_555 1_555
C5_9 C7_9 1_555 1_555
C5_9 H2_9 1_555 1_555
Cu6 O3_9 1_555 1_555

#END
