
###############################################################################
#
# This file contains modified crystal structure data generated from the
# MOF subset of the Cambridge Structural Database (CSD) v543 
# hosted by the Cambridge Crystallographic Data Centre (CCDC).
#
# This work is licensed under the Creative Commons
# Attribution-NonCommercial-ShareAlike 4.0 International License.
# To view a copy of this license, visit
# http://creativecommons.org/licenses/by-nc-sa/4.0/
# or send a letter to
# Creative Commons, PO Box 1866, Mountain View, CA 94042, USA.
#
# CIF created using the CSD Python API on 29 September 2022
# The structure has been converted into the P1 space group
# The structure has a 3D framework
# The original CSD entry MOKYAP57 is in the rhombohedral crystal system
# The framework has been calculated to contain at least 10.0% void space
# The void calculation uses a probe of radius 1.32A, grid spacing 0.4
# H atom positions have been added when not included in the experimental data
#
###############################################################################

data_MOKYAP57
_chemical_formula_moiety         '(C72 H18 Cu7 O44)n'
_symmetry_cell_setting           triclinic
_symmetry_space_group_name_H-M   'P 1'
_symmetry_Int_Tables_number      1
_space_group_name_Hall           'P 1'
loop_
_symmetry_equiv_pos_site_id
_symmetry_equiv_pos_as_xyz
1 x,y,z
_cell_length_a                   25.9155(3)
_cell_length_b                   25.9155(3)
_cell_length_c                   6.27447(7)
_cell_angle_alpha                90
_cell_angle_beta                 90
_cell_angle_gamma                120
_cell_volume                     3649.45
loop_
_atom_site_label
_atom_site_type_symbol
_atom_site_fract_x
_atom_site_fract_y
_atom_site_fract_z
_atom_site_U_iso_or_equiv
_atom_site_thermal_displace_type
Cu7 Cu 0.31800(7) 0.37130(5) 0.0092(2) 0.0105 Uiso
Cu1 Cu 0.29537(5) 0.28004(5) 0.3425(2) 0.0105 Uiso
C1 C 0.1610(3) 0.3127(3) 0.1251(13) 0.0060 Uiso
C2 C 0.1201(4) 0.3268(4) 0.1981(15) 0.0152 Uiso
C3 C 0.2092(3) 0.3189(4) 0.2551(12) 0.0051 Uiso
C4 C 0.0772(3) 0.3238(4) 0.0312(14) 0.0089 Uiso
O1 O 0.2516(2) 0.3072(2) 0.1703(9) 0.0051 Uiso
O3 O 0.0520(2) 0.3547(2) 0.0677(8) 0.0051 Uiso
C5 C 0.1723(3) 0.3540(3) 0.5416(13) 0.0060 Uiso
C6 C 0.2132(4) 0.3399(4) 0.4686(15) 0.0152 Uiso
C7 C 0.1241(3) 0.3478(4) 0.4116(12) 0.0051 Uiso
C8 C 0.2561(3) 0.3429(4) 0.6355(14) 0.0089 Uiso
O4 O 0.0817(2) 0.3595(2) 0.4964(9) 0.0051 Uiso
O5 O 0.2669(2) 0.3747(2) 0.7966(9) 0.0120 Uiso
O6 O 0.2813(2) 0.3120(2) 0.5990(8) 0.0051 Uiso
Cu4 Cu 0.01533(7) 0.29537(5) 0.6575(2) 0.0105 Uiso
Cu5 Cu 0.38663(5) 0.34866(7) 0.6758(2) 0.0105 Uiso
Cu8 Cu 0.03796(5) 0.38663(5) 0.3242(2) 0.0105 Uiso
O7 O 0.3595(2) 0.2777(3) 0.5036(9) 0.0051 Uiso
O9 O 0.2920(2) 0.2256(3) 0.1299(9) 0.0120 Uiso
O12 O 0.3640(3) 0.3853(2) 0.2656(8) 0.0051 Uiso
H2 H 0.176403 0.370472 0.70386 . .
O2 O 0.0664(2) 0.2920(2) 0.8701(9) 0.0120 Uiso
O8 O 0.3889(3) 0.4151(2) 0.8370(9) 0.0051 Uiso
O11 O 0.3547(2) 0.3027(3) 0.9323(8) 0.0051 Uiso
H1 H 0.15693 0.296195 0.962806 . .
Cu6 Cu 0.94671(5) 0.31800(7) 0.9908(2) 0.0105 Uiso
Cu6_2 Cu 0.37130(9) 0.05329(5) 0.9908(2) 0.0105 Uiso
Cu7_2 Cu 0.05329(9) 0.68200(7) 0.0092(2) 0.0105 Uiso
C1_2 C 0.1517(4) 0.8390(3) 0.1251(13) 0.0060 Uiso
C2_2 C 0.2067(6) 0.8799(4) 0.1981(15) 0.0152 Uiso
C3_2 C 0.1097(5) 0.7908(3) 0.2551(12) 0.0051 Uiso
C4_2 C 0.2466(5) 0.9228(3) 0.0312(14) 0.0089 Uiso
O1_2 O 0.0556(3) 0.7484(2) 0.1703(9) 0.0051 Uiso
O3_2 O 0.3027(3) 0.9480(2) 0.0677(8) 0.0051 Uiso
C5_2 C 0.1816(4) 0.8277(3) 0.5416(13) 0.0060 Uiso
C6_2 C 0.1266(6) 0.7868(4) 0.4686(15) 0.0152 Uiso
C7_2 C 0.2236(5) 0.8759(3) 0.4116(12) 0.0051 Uiso
C8_2 C 0.0867(5) 0.7439(3) 0.6355(14) 0.0089 Uiso
O4_2 O 0.2777(3) 0.9183(2) 0.4964(9) 0.0051 Uiso
O5_2 O 0.1077(3) 0.7331(2) 0.7966(9) 0.0120 Uiso
O6_2 O 0.0306(3) 0.7187(2) 0.5990(8) 0.0051 Uiso
Cu4_2 Cu 0.28004(9) 0.98467(7) 0.6575(2) 0.0105 Uiso
Cu8_2 Cu 0.34866(7) 0.96204(5) 0.3242(2) 0.0105 Uiso
O12_2 O 0.0214(4) 0.6360(3) 0.2656(8) 0.0051 Uiso
H2_2 H 0.194068 0.823597 0.70386 . .
O2_2 O 0.2256(3) 0.9336(2) 0.8701(9) 0.0120 Uiso
O8_2 O 0.0261(4) 0.6111(3) 0.8370(9) 0.0051 Uiso
H1_2 H 0.139265 0.84307 0.962806 . .
Cu1_2 Cu 0.98467(7) 0.70463(5) 0.3425(2) 0.0105 Uiso
Cu5_2 Cu 0.96204(9) 0.61337(5) 0.6758(2) 0.0105 Uiso
O7_2 O 0.9183(4) 0.6405(2) 0.5036(9) 0.0051 Uiso
O9_2 O 0.9336(4) 0.7080(2) 0.1299(9) 0.0120 Uiso
O11_2 O 0.9480(4) 0.6453(2) 0.9323(8) 0.0051 Uiso
Cu1_3 Cu 0.71996(5) 0.01533(7) 0.3425(2) 0.0105 Uiso
Cu5_3 Cu 0.65134(7) 0.03796(9) 0.6758(2) 0.0105 Uiso
O7_3 O 0.7223(3) 0.0817(4) 0.5036(9) 0.0051 Uiso
O9_3 O 0.7744(3) 0.0664(4) 0.1299(9) 0.0120 Uiso
O11_3 O 0.6973(3) 0.0520(4) 0.9323(8) 0.0051 Uiso
Cu7_3 Cu 0.62870(5) 0.94671(9) 0.0092(2) 0.0105 Uiso
C1_3 C 0.6873(3) 0.8483(4) 0.1251(13) 0.0060 Uiso
C2_3 C 0.6732(4) 0.7933(6) 0.1981(15) 0.0152 Uiso
C3_3 C 0.6811(4) 0.8903(5) 0.2551(12) 0.0051 Uiso
C4_3 C 0.6762(4) 0.7534(5) 0.0312(14) 0.0089 Uiso
O1_3 O 0.6928(2) 0.9444(3) 0.1703(9) 0.0051 Uiso
O3_3 O 0.6453(2) 0.6973(3) 0.0677(8) 0.0051 Uiso
C5_3 C 0.6460(3) 0.8184(4) 0.5416(13) 0.0060 Uiso
C6_3 C 0.6601(4) 0.8734(6) 0.4686(15) 0.0152 Uiso
C7_3 C 0.6522(4) 0.7764(5) 0.4116(12) 0.0051 Uiso
C8_3 C 0.6571(4) 0.9133(5) 0.6355(14) 0.0089 Uiso
O4_3 O 0.6405(2) 0.7223(3) 0.4964(9) 0.0051 Uiso
O5_3 O 0.6253(2) 0.8923(3) 0.7966(9) 0.0120 Uiso
O6_3 O 0.6880(2) 0.9694(3) 0.5990(8) 0.0051 Uiso
Cu4_3 Cu 0.70463(5) 0.71996(9) 0.6575(2) 0.0105 Uiso
Cu8_3 Cu 0.61337(5) 0.65134(7) 0.3242(2) 0.0105 Uiso
O12_3 O 0.6147(2) 0.9786(4) 0.2656(8) 0.0051 Uiso
H2_3 H 0.629528 0.805932 0.70386 . .
O2_3 O 0.7080(2) 0.7744(3) 0.8701(9) 0.0120 Uiso
Cu6_3 Cu 0.68200(7) 0.62870(9) 0.9908(2) 0.0105 Uiso
O8_3 O 0.5849(2) 0.9739(4) 0.8370(9) 0.0051 Uiso
H1_3 H 0.703805 0.860735 0.962806 . .
H2_4 H 0.84307 0.703805 0.0371937 . .
C1_4 C 0.8277(3) 0.6460(3) 0.4584(13) 0.0060 Uiso
C2_4 C 0.7868(4) 0.6601(4) 0.5314(15) 0.0152 Uiso
C3_4 C 0.8759(3) 0.6522(4) 0.5884(12) 0.0051 Uiso
C4_4 C 0.7439(3) 0.6571(4) 0.3645(14) 0.0089 Uiso
O2_4 O 0.7331(2) 0.6253(2) 0.2034(9) 0.0120 Uiso
O3_4 O 0.7187(2) 0.6880(2) 0.4010(8) 0.0051 Uiso
C5_4 C 0.8390(3) 0.6873(3) 0.8749(13) 0.0060 Uiso
C6_4 C 0.8799(4) 0.6732(4) 0.8019(15) 0.0152 Uiso
C7_4 C 0.7908(3) 0.6811(4) 0.7449(12) 0.0051 Uiso
C8_4 C 0.9228(3) 0.6762(4) 0.9688(14) 0.0089 Uiso
O4_4 O 0.7484(2) 0.6928(2) 0.8297(9) 0.0051 Uiso
O9_4 O 0.9587(2) 0.5589(3) 0.4632(9) 0.0120 Uiso
H1_4 H 0.823597 0.629528 0.29614 . .
H2_5 H 0.860735 0.15693 0.0371937 . .
C1_5 C 0.8184(4) 0.1723(3) 0.4584(13) 0.0060 Uiso
C2_5 C 0.8734(6) 0.2132(4) 0.5314(15) 0.0152 Uiso
C3_5 C 0.7764(5) 0.1241(3) 0.5884(12) 0.0051 Uiso
C4_5 C 0.9133(5) 0.2561(3) 0.3645(14) 0.0089 Uiso
O2_5 O 0.8923(3) 0.2669(2) 0.2034(9) 0.0120 Uiso
O3_5 O 0.9694(3) 0.2813(2) 0.4010(8) 0.0051 Uiso
C5_5 C 0.8483(4) 0.1610(3) 0.8749(13) 0.0060 Uiso
C6_5 C 0.7933(6) 0.1201(4) 0.8019(15) 0.0152 Uiso
C7_5 C 0.8903(5) 0.2092(3) 0.7449(12) 0.0051 Uiso
C8_5 C 0.7534(5) 0.0772(3) 0.9688(14) 0.0089 Uiso
O4_5 O 0.9444(3) 0.2516(2) 0.8297(9) 0.0051 Uiso
O9_5 O 0.6003(4) 0.0413(2) 0.4632(9) 0.0120 Uiso
H1_5 H 0.805932 0.176403 0.29614 . .
H2_6 H 0.296195 0.139265 0.0371937 . .
C1_6 C 0.3540(3) 0.1816(4) 0.4584(13) 0.0060 Uiso
C2_6 C 0.3399(4) 0.1266(6) 0.5314(15) 0.0152 Uiso
C3_6 C 0.3478(4) 0.2236(5) 0.5884(12) 0.0051 Uiso
C4_6 C 0.3429(4) 0.0867(5) 0.3645(14) 0.0089 Uiso
O2_6 O 0.3747(2) 0.1077(3) 0.2034(9) 0.0120 Uiso
O3_6 O 0.3120(2) 0.0306(3) 0.4010(8) 0.0051 Uiso
C5_6 C 0.3127(3) 0.1517(4) 0.8749(13) 0.0060 Uiso
C6_6 C 0.3268(4) 0.2067(6) 0.8019(15) 0.0152 Uiso
C7_6 C 0.3189(4) 0.1097(5) 0.7449(12) 0.0051 Uiso
C8_6 C 0.3238(4) 0.2466(5) 0.9688(14) 0.0089 Uiso
O4_6 O 0.3072(2) 0.0556(3) 0.8297(9) 0.0051 Uiso
O9_6 O 0.4411(3) 0.3997(4) 0.4632(9) 0.0120 Uiso
H1_6 H 0.370472 0.194068 0.29614 . .
C5_7 C 0.5057(3) 0.0206(3) 0.2082(13) 0.0060 Uiso
C6_7 C 0.5466(4) 0.0065(4) 0.1352(15) 0.0152 Uiso
C7_7 C 0.4575(3) 0.0144(4) 0.0782(12) 0.0051 Uiso
C8_7 C 0.5895(3) 0.0095(4) 0.3021(14) 0.0089 Uiso
O4_7 O 0.4151(2) 0.0261(2) 0.1630(9) 0.0051 Uiso
H2_7 H 0.509737 0.0371386 0.370527 . .
O3_7 O 0.3853(2) 0.0214(2) 0.7344(8) 0.0051 Uiso
C1_7 C 0.4943(3) 0.9794(3) 0.7918(13) 0.0060 Uiso
C2_7 C 0.4534(4) 0.9935(4) 0.8648(15) 0.0152 Uiso
C3_7 C 0.5425(3) 0.9856(4) 0.9218(12) 0.0051 Uiso
C4_7 C 0.4105(3) 0.9905(4) 0.6979(14) 0.0089 Uiso
O2_7 O 0.3997(2) 0.9587(2) 0.5368(9) 0.0120 Uiso
H1_7 H 0.490263 0.962861 0.629473 . .
C5_8 C 0.5150(4) 0.4943(3) 0.2082(13) 0.0060 Uiso
C6_8 C 0.4600(6) 0.4534(4) 0.1352(15) 0.0152 Uiso
C7_8 C 0.5570(5) 0.5425(3) 0.0782(12) 0.0051 Uiso
C8_8 C 0.4201(5) 0.4105(3) 0.3021(14) 0.0089 Uiso
O4_8 O 0.6111(3) 0.5849(2) 0.1630(9) 0.0051 Uiso
H2_8 H 0.527402 0.490263 0.370527 . .
C1_8 C 0.4850(4) 0.5057(3) 0.7918(13) 0.0060 Uiso
C2_8 C 0.5400(6) 0.5466(4) 0.8648(15) 0.0152 Uiso
C3_8 C 0.4430(5) 0.4575(3) 0.9218(12) 0.0051 Uiso
C4_8 C 0.5799(5) 0.5895(3) 0.6979(14) 0.0089 Uiso
O2_8 O 0.5589(3) 0.6003(2) 0.5368(9) 0.0120 Uiso
O3_8 O 0.6360(3) 0.6147(2) 0.7344(8) 0.0051 Uiso
H1_8 H 0.472598 0.509737 0.629473 . .
C1_9 C 0.0206(3) 0.5150(4) 0.7918(13) 0.0060 Uiso
C2_9 C 0.0065(4) 0.4600(6) 0.8648(15) 0.0152 Uiso
C3_9 C 0.0144(4) 0.5570(5) 0.9218(12) 0.0051 Uiso
C4_9 C 0.0095(4) 0.4201(5) 0.6979(14) 0.0089 Uiso
O2_9 O 0.0413(2) 0.4411(3) 0.5368(9) 0.0120 Uiso
H1_9 H 0.0371386 0.527402 0.629473 . .
C5_9 C 0.9794(3) 0.4850(4) 0.2082(13) 0.0060 Uiso
C6_9 C 0.9935(4) 0.5400(6) 0.1352(15) 0.0152 Uiso
C7_9 C 0.9856(4) 0.4430(5) 0.0782(12) 0.0051 Uiso
C8_9 C 0.9905(4) 0.5799(5) 0.3021(14) 0.0089 Uiso
O4_9 O 0.9739(2) 0.3889(3) 0.1630(9) 0.0051 Uiso
H2_9 H 0.962861 0.472598 0.370527 . .
O3_9 O 0.9786(2) 0.3640(3) 0.7344(8) 0.0051 Uiso
loop_
_geom_bond_atom_site_label_1
_geom_bond_atom_site_label_2
_geom_bond_site_symmetry_1
_geom_bond_site_symmetry_2
Cu1 O1 1_555 1_555
C1 C2 1_555 1_555
C2 C4 1_555 1_555
C3 C1 1_555 1_555
O1 C3 1_555 1_555
O3 C4 1_555 1_555
C5 C6 1_555 1_555
C6 C3 1_555 1_555
C7 C2 1_555 1_555
C8 C6 1_555 1_555
O4 C7 1_555 1_555
O5 C8 1_555 1_555
O6 Cu1 1_555 1_555
Cu7 O1 1_555 1_555
Cu4 O4 1_555 1_555
Cu5 O6 1_555 1_555
Cu8 O3 1_555 1_555
O7 Cu1 1_555 1_555
O9 Cu1 1_555 1_555
O12 Cu1 1_555 1_555
C5 C7 1_555 1_555
C8 O6 1_555 1_555
O4 Cu8 1_555 1_555
Cu7 O12 1_555 1_555
Cu5 O7 1_555 1_555
C5 H2 1_555 1_555
O2 Cu4 1_555 1_555
C1_2 C2_2 1_555 1_555
C2_2 C4_2 1_555 1_555
C3_2 C1_2 1_555 1_555
O1_2 C3_2 1_555 1_555
O3_2 C4_2 1_555 1_555
C5_2 C6_2 1_555 1_555
C6_2 C3_2 1_555 1_555
C7_2 C2_2 1_555 1_555
C8_2 C6_2 1_555 1_555
O4_2 C7_2 1_555 1_555
O5_2 C8_2 1_555 1_555
Cu7_2 O1_2 1_555 1_555
Cu4_2 O4_2 1_555 1_555
Cu8_2 O3_2 1_555 1_555
C5_2 C7_2 1_555 1_555
C8_2 O6_2 1_555 1_555
O4_2 Cu8_2 1_555 1_555
Cu7_2 O12_2 1_555 1_555
C5_2 H2_2 1_555 1_555
O2_2 Cu4_2 1_555 1_555
O7_2 Cu1_2 1_555 1_555
O9_2 Cu1_2 1_555 1_555
Cu5_2 O7_2 1_555 1_555
O7_3 Cu1_3 1_555 1_555
O9_3 Cu1_3 1_555 1_555
Cu5_3 O7_3 1_555 1_555
C1_3 C2_3 1_555 1_555
C2_3 C4_3 1_555 1_555
C3_3 C1_3 1_555 1_555
O1_3 C3_3 1_555 1_555
O3_3 C4_3 1_555 1_555
C5_3 C6_3 1_555 1_555
C6_3 C3_3 1_555 1_555
C7_3 C2_3 1_555 1_555
C8_3 C6_3 1_555 1_555
O4_3 C7_3 1_555 1_555
O5_3 C8_3 1_555 1_555
Cu7_3 O1_3 1_555 1_555
Cu4_3 O4_3 1_555 1_555
Cu8_3 O3_3 1_555 1_555
C5_3 C7_3 1_555 1_555
C8_3 O6_3 1_555 1_555
O4_3 Cu8_3 1_555 1_555
Cu7_3 O12_3 1_555 1_555
C5_3 H2_3 1_555 1_555
O2_3 Cu4_3 1_555 1_555
C1_4 C2_4 1_555 1_555
C2_4 C4_4 1_555 1_555
C3_4 C1_4 1_555 1_555
C4_4 O2_4 1_555 1_555
O7_2 C3_4 1_555 1_555
O3_4 C4_4 1_555 1_555
C5_4 C6_4 1_555 1_555
C6_4 C3_4 1_555 1_555
C7_4 C2_4 1_555 1_555
C8_4 C6_4 1_555 1_555
O4_4 C7_4 1_555 1_555
O11_2 Cu5_2 1_555 1_555
Cu6_3 O4_4 1_555 1_555
Cu8_3 O3_4 1_555 1_555
Cu4_3 O3_4 1_555 1_555
O9_4 Cu5_2 1_555 1_555
C5_4 C7_4 1_555 1_555
C8_4 O11_2 1_555 1_555
O4_4 Cu4_3 1_555 1_555
C1_4 H1_4 1_555 1_555
C1_5 C2_5 1_555 1_555
C2_5 C4_5 1_555 1_555
C3_5 C1_5 1_555 1_555
C4_5 O2_5 1_555 1_555
O7_3 C3_5 1_555 1_555
O3_5 C4_5 1_555 1_555
C5_5 C6_5 1_555 1_555
C6_5 C3_5 1_555 1_555
C7_5 C2_5 1_555 1_555
C8_5 C6_5 1_555 1_555
O4_5 C7_5 1_555 1_555
O11_3 Cu5_3 1_555 1_555
Cu6 O4_5 1_555 1_555
O9_5 Cu5_3 1_555 1_555
C5_5 C7_5 1_555 1_555
C8_5 O11_3 1_555 1_555
C1_5 H1_5 1_555 1_555
C1_6 C2_6 1_555 1_555
C2_6 C4_6 1_555 1_555
C3_6 C1_6 1_555 1_555
C4_6 O2_6 1_555 1_555
O7 C3_6 1_555 1_555
O3_6 C4_6 1_555 1_555
C5_6 C6_6 1_555 1_555
C6_6 C3_6 1_555 1_555
C7_6 C2_6 1_555 1_555
C8_6 C6_6 1_555 1_555
O4_6 C7_6 1_555 1_555
O11 Cu5 1_555 1_555
Cu6_2 O4_6 1_555 1_555
O8 Cu5 1_555 1_555
O9_6 Cu5 1_555 1_555
C5_6 C7_6 1_555 1_555
C8_6 O11 1_555 1_555
C1_6 H1_6 1_555 1_555
C5_7 C6_7 1_555 1_555
C8_7 C6_7 1_555 1_555
O4_7 C7_7 1_555 1_555
O9_5 C8_7 1_555 1_555
C5_7 C7_7 1_555 1_555
C5_7 H2_7 1_555 1_555
Cu6_2 O3_7 1_555 1_555
C1_7 C2_7 1_555 1_555
C2_7 C4_7 1_555 1_555
C3_7 C1_7 1_555 1_555
C4_7 O2_7 1_555 1_555
O8_3 C3_7 1_555 1_555
O2_7 Cu8_2 1_555 1_555
C1_7 H1_7 1_555 1_555
C5_8 C6_8 1_555 1_555
C8_8 C6_8 1_555 1_555
O4_8 C7_8 1_555 1_555
O9_6 C8_8 1_555 1_555
Cu8_3 O4_8 1_555 1_555
C5_8 C7_8 1_555 1_555
C8_8 O12 1_555 1_555
C5_8 H2_8 1_555 1_555
C1_8 C2_8 1_555 1_555
C2_8 C4_8 1_555 1_555
C3_8 C1_8 1_555 1_555
C4_8 O2_8 1_555 1_555
O8 C3_8 1_555 1_555
O2_8 Cu8_3 1_555 1_555
O3_8 C4_8 1_555 1_555
Cu4_3 O3_8 1_555 1_555
Cu6_3 O3_8 1_555 1_555
C1_8 H1_8 1_555 1_555
C1_9 C2_9 1_555 1_555
C2_9 C4_9 1_555 1_555
C3_9 C1_9 1_555 1_555
C4_9 O2_9 1_555 1_555
O8_2 C3_9 1_555 1_555
O2_9 Cu8 1_555 1_555
C1_9 H1_9 1_555 1_555
C5_9 C6_9 1_555 1_555
C8_9 C6_9 1_555 1_555
O4_9 C7_9 1_555 1_555
O9_4 C8_9 1_555 1_555
C5_9 C7_9 1_555 1_555
C5_9 H2_9 1_555 1_555
Cu6 O3_9 1_555 1_555

#END
