
###############################################################################
#
# This file contains modified crystal structure data generated from the
# MOF subset of the Cambridge Structural Database (CSD) v543 
# hosted by the Cambridge Crystallographic Data Centre (CCDC).
#
# This work is licensed under the Creative Commons
# Attribution-NonCommercial-ShareAlike 4.0 International License.
# To view a copy of this license, visit
# http://creativecommons.org/licenses/by-nc-sa/4.0/
# or send a letter to
# Creative Commons, PO Box 1866, Mountain View, CA 94042, USA.
#
# CIF created using the CSD Python API on 29 September 2022
# The structure has been converted into the P1 space group
# The structure has a 3D framework
# The original CSD entry MOKYAP01 is in the rhombohedral crystal system
# The framework has been calculated to contain at least 10.0% void space
# The void calculation uses a probe of radius 1.32A, grid spacing 0.4
# H atom positions have been added when not included in the experimental data
#
###############################################################################

data_MOKYAP01
_chemical_formula_moiety         '(C72 H18 Cu7 O44)n'
_symmetry_cell_setting           triclinic
_symmetry_space_group_name_H-M   'P 1'
_symmetry_Int_Tables_number      1
_space_group_name_Hall           'P 1'
loop_
_symmetry_equiv_pos_site_id
_symmetry_equiv_pos_as_xyz
1 x,y,z
_cell_length_a                   25.9248(3)
_cell_length_b                   25.9248(3)
_cell_length_c                   6.27084(7)
_cell_angle_alpha                90
_cell_angle_beta                 90
_cell_angle_gamma                120
_cell_volume                     3649.95
loop_
_atom_site_label
_atom_site_type_symbol
_atom_site_fract_x
_atom_site_fract_y
_atom_site_fract_z
_atom_site_U_iso_or_equiv
_atom_site_thermal_displace_type
Cu7 Cu 0.31800(8) 0.37159(5) 0.0094(2) 0.0082 Uiso
Cu1 Cu 0.29508(5) 0.27975(6) 0.3427(2) 0.0082 Uiso
C1 C 0.1607(4) 0.3143(3) 0.1247(16) 0.0127 Uiso
C2 C 0.1206(4) 0.3265(4) 0.1947(17) 0.0127 Uiso
C3 C 0.2086(4) 0.3188(5) 0.2572(14) 0.0051 Uiso
C4 C 0.0795(4) 0.3251(5) 0.0256(16) 0.0114 Uiso
O1 O 0.2512(2) 0.3069(2) 0.1748(11) 0.0053 Uiso
O3 O 0.0520(2) 0.3544(2) 0.0691(9) 0.0053 Uiso
C5 C 0.1726(4) 0.3524(3) 0.5420(16) 0.0127 Uiso
C6 C 0.2127(4) 0.3402(4) 0.4720(17) 0.0127 Uiso
C7 C 0.1247(4) 0.3479(5) 0.4095(14) 0.0051 Uiso
C8 C 0.2538(4) 0.3416(5) 0.6411(16) 0.0114 Uiso
O4 O 0.0821(2) 0.3598(2) 0.4919(11) 0.0053 Uiso
O5 O 0.2677(2) 0.3750(2) 0.7958(11) 0.0129 Uiso
O6 O 0.2813(2) 0.3123(2) 0.5976(9) 0.0053 Uiso
Cu4 Cu 0.01533(8) 0.29508(5) 0.6573(2) 0.0082 Uiso
Cu5 Cu 0.38692(6) 0.34866(8) 0.6760(2) 0.0082 Uiso
Cu8 Cu 0.03825(5) 0.38692(6) 0.3240(2) 0.0082 Uiso
O7 O 0.3598(2) 0.2776(3) 0.5081(11) 0.0053 Uiso
O9 O 0.2917(2) 0.2261(3) 0.1291(11) 0.0129 Uiso
O12 O 0.3643(3) 0.3853(2) 0.2642(9) 0.0053 Uiso
H2 H 0.175262 0.366539 0.707024 . .
O2 O 0.0656(2) 0.2917(2) 0.8709(11) 0.0129 Uiso
O8 O 0.3890(3) 0.4155(2) 0.8415(11) 0.0053 Uiso
O11 O 0.3544(2) 0.3024(3) 0.9309(9) 0.0053 Uiso
H1 H 0.158072 0.300128 0.959643 . .
Cu6 Cu 0.94642(6) 0.31800(8) 0.9906(2) 0.0082 Uiso
Cu6_2 Cu 0.37159(10) 0.05358(6) 0.9906(2) 0.0082 Uiso
Cu7_2 Cu 0.05358(9) 0.68200(8) 0.0094(2) 0.0082 Uiso
C1_2 C 0.1536(5) 0.8393(4) 0.1247(16) 0.0127 Uiso
C2_2 C 0.2059(6) 0.8794(4) 0.1947(17) 0.0127 Uiso
C3_2 C 0.1102(6) 0.7914(4) 0.2572(14) 0.0051 Uiso
C4_2 C 0.2456(6) 0.9205(4) 0.0256(16) 0.0114 Uiso
O1_2 O 0.0557(3) 0.7488(2) 0.1748(11) 0.0053 Uiso
O3_2 O 0.3024(3) 0.9480(2) 0.0691(9) 0.0053 Uiso
C5_2 C 0.1797(5) 0.8274(4) 0.5420(16) 0.0127 Uiso
C6_2 C 0.1274(6) 0.7873(4) 0.4720(17) 0.0127 Uiso
C7_2 C 0.2231(6) 0.8753(4) 0.4095(14) 0.0051 Uiso
C8_2 C 0.0877(6) 0.7462(4) 0.6411(16) 0.0114 Uiso
O4_2 O 0.2776(3) 0.9179(2) 0.4919(11) 0.0053 Uiso
O5_2 O 0.1072(3) 0.7323(2) 0.7958(11) 0.0129 Uiso
O6_2 O 0.0309(3) 0.7187(2) 0.5976(9) 0.0053 Uiso
Cu4_2 Cu 0.27975(9) 0.98467(8) 0.6573(2) 0.0082 Uiso
Cu8_2 Cu 0.34866(8) 0.96175(5) 0.3240(2) 0.0082 Uiso
O12_2 O 0.0211(4) 0.6357(3) 0.2642(9) 0.0053 Uiso
H2_2 H 0.191277 0.824738 0.707024 . .
O2_2 O 0.2261(3) 0.9344(2) 0.8709(11) 0.0129 Uiso
O8_2 O 0.0264(4) 0.6110(3) 0.8415(11) 0.0053 Uiso
H1_2 H 0.142056 0.841928 0.959643 . .
Cu1_2 Cu 0.98467(8) 0.70492(5) 0.3427(2) 0.0082 Uiso
Cu5_2 Cu 0.96175(10) 0.61308(6) 0.6760(2) 0.0082 Uiso
O7_2 O 0.9179(4) 0.6402(2) 0.5081(11) 0.0053 Uiso
O9_2 O 0.9344(4) 0.7083(2) 0.1291(11) 0.0129 Uiso
O11_2 O 0.9480(4) 0.6456(2) 0.9309(9) 0.0053 Uiso
Cu1_3 Cu 0.72025(6) 0.01533(8) 0.3427(2) 0.0082 Uiso
Cu5_3 Cu 0.65134(8) 0.03825(10) 0.6760(2) 0.0082 Uiso
O7_3 O 0.7224(3) 0.0821(4) 0.5081(11) 0.0053 Uiso
O9_3 O 0.7739(3) 0.0656(4) 0.1291(11) 0.0129 Uiso
O11_3 O 0.6976(3) 0.0520(4) 0.9309(9) 0.0053 Uiso
Cu7_3 Cu 0.62841(5) 0.94642(9) 0.0094(2) 0.0082 Uiso
C1_3 C 0.6857(3) 0.8464(5) 0.1247(16) 0.0127 Uiso
C2_3 C 0.6735(4) 0.7941(6) 0.1947(17) 0.0127 Uiso
C3_3 C 0.6812(5) 0.8898(6) 0.2572(14) 0.0051 Uiso
C4_3 C 0.6749(5) 0.7544(6) 0.0256(16) 0.0114 Uiso
O1_3 O 0.6931(2) 0.9443(3) 0.1748(11) 0.0053 Uiso
O3_3 O 0.6456(2) 0.6976(3) 0.0691(9) 0.0053 Uiso
C5_3 C 0.6476(3) 0.8203(5) 0.5420(16) 0.0127 Uiso
C6_3 C 0.6598(4) 0.8726(6) 0.4720(17) 0.0127 Uiso
C7_3 C 0.6521(5) 0.7769(6) 0.4095(14) 0.0051 Uiso
C8_3 C 0.6584(5) 0.9123(6) 0.6411(16) 0.0114 Uiso
O4_3 O 0.6402(2) 0.7224(3) 0.4919(11) 0.0053 Uiso
O5_3 O 0.6250(2) 0.8928(3) 0.7958(11) 0.0129 Uiso
O6_3 O 0.6877(2) 0.9691(3) 0.5976(9) 0.0053 Uiso
Cu4_3 Cu 0.70492(5) 0.72025(9) 0.6573(2) 0.0082 Uiso
Cu8_3 Cu 0.61308(6) 0.65134(8) 0.3240(2) 0.0082 Uiso
O12_3 O 0.6147(2) 0.9789(4) 0.2642(9) 0.0053 Uiso
H2_3 H 0.633461 0.808723 0.707024 . .
O2_3 O 0.7083(2) 0.7739(3) 0.8709(11) 0.0129 Uiso
Cu6_3 Cu 0.68200(8) 0.62841(10) 0.9906(2) 0.0082 Uiso
O8_3 O 0.5845(2) 0.9736(4) 0.8415(11) 0.0053 Uiso
H1_3 H 0.699872 0.857944 0.959643 . .
H2_4 H 0.841928 0.699872 0.0403572 . .
C1_4 C 0.8274(4) 0.6476(3) 0.4580(16) 0.0127 Uiso
C2_4 C 0.7873(4) 0.6598(4) 0.5280(17) 0.0127 Uiso
C3_4 C 0.8753(4) 0.6521(5) 0.5905(14) 0.0051 Uiso
C4_4 C 0.7462(4) 0.6584(5) 0.3589(16) 0.0114 Uiso
O2_4 O 0.7323(2) 0.6250(2) 0.2042(11) 0.0129 Uiso
O3_4 O 0.7187(2) 0.6877(2) 0.4024(9) 0.0053 Uiso
C5_4 C 0.8393(4) 0.6857(3) 0.8753(16) 0.0127 Uiso
C6_4 C 0.8794(4) 0.6735(4) 0.8053(17) 0.0127 Uiso
C7_4 C 0.7914(4) 0.6812(5) 0.7428(14) 0.0051 Uiso
C8_4 C 0.9205(4) 0.6749(5) 0.9744(16) 0.0114 Uiso
O4_4 O 0.7488(2) 0.6931(2) 0.8252(11) 0.0053 Uiso
O9_4 O 0.9584(2) 0.5594(3) 0.4624(11) 0.0129 Uiso
H1_4 H 0.824738 0.633461 0.292976 . .
H2_5 H 0.857944 0.158072 0.0403572 . .
C1_5 C 0.8203(5) 0.1726(4) 0.4580(16) 0.0127 Uiso
C2_5 C 0.8726(6) 0.2127(4) 0.5280(17) 0.0127 Uiso
C3_5 C 0.7769(6) 0.1247(4) 0.5905(14) 0.0051 Uiso
C4_5 C 0.9123(6) 0.2538(4) 0.3589(16) 0.0114 Uiso
O2_5 O 0.8928(3) 0.2677(2) 0.2042(11) 0.0129 Uiso
O3_5 O 0.9691(3) 0.2813(2) 0.4024(9) 0.0053 Uiso
C5_5 C 0.8464(5) 0.1607(4) 0.8753(16) 0.0127 Uiso
C6_5 C 0.7941(6) 0.1206(4) 0.8053(17) 0.0127 Uiso
C7_5 C 0.8898(6) 0.2086(4) 0.7428(14) 0.0051 Uiso
C8_5 C 0.7544(6) 0.0795(4) 0.9744(16) 0.0114 Uiso
O4_5 O 0.9443(3) 0.2512(2) 0.8252(11) 0.0053 Uiso
O9_5 O 0.6011(4) 0.0416(2) 0.4624(11) 0.0129 Uiso
H1_5 H 0.808723 0.175262 0.292976 . .
H2_6 H 0.300128 0.142056 0.0403572 . .
C1_6 C 0.3524(3) 0.1797(5) 0.4580(16) 0.0127 Uiso
C2_6 C 0.3402(4) 0.1274(6) 0.5280(17) 0.0127 Uiso
C3_6 C 0.3479(5) 0.2231(6) 0.5905(14) 0.0051 Uiso
C4_6 C 0.3416(5) 0.0877(6) 0.3589(16) 0.0114 Uiso
O2_6 O 0.3750(2) 0.1072(3) 0.2042(11) 0.0129 Uiso
O3_6 O 0.3123(2) 0.0309(3) 0.4024(9) 0.0053 Uiso
C5_6 C 0.3143(3) 0.1536(5) 0.8753(16) 0.0127 Uiso
C6_6 C 0.3265(4) 0.2059(6) 0.8053(17) 0.0127 Uiso
C7_6 C 0.3188(5) 0.1102(6) 0.7428(14) 0.0051 Uiso
C8_6 C 0.3251(5) 0.2456(6) 0.9744(16) 0.0114 Uiso
O4_6 O 0.3069(2) 0.0557(3) 0.8252(11) 0.0053 Uiso
O9_6 O 0.4406(3) 0.3989(4) 0.4624(11) 0.0129 Uiso
H1_6 H 0.366539 0.191277 0.292976 . .
C5_7 C 0.5060(4) 0.0190(3) 0.2086(16) 0.0127 Uiso
C6_7 C 0.5461(4) 0.0068(4) 0.1386(17) 0.0127 Uiso
C7_7 C 0.4581(4) 0.0145(5) 0.0761(14) 0.0051 Uiso
C8_7 C 0.5872(4) 0.0082(5) 0.3077(16) 0.0114 Uiso
O4_7 O 0.4155(2) 0.0264(2) 0.1585(11) 0.0053 Uiso
H2_7 H 0.508595 0.0332055 0.373691 . .
O3_7 O 0.3853(2) 0.0211(2) 0.7358(9) 0.0053 Uiso
C1_7 C 0.4940(4) 0.9810(3) 0.7914(16) 0.0127 Uiso
C2_7 C 0.4539(4) 0.9932(4) 0.8614(17) 0.0127 Uiso
C3_7 C 0.5419(4) 0.9855(5) 0.9239(14) 0.0051 Uiso
C4_7 C 0.4128(4) 0.9918(5) 0.6923(16) 0.0114 Uiso
O2_7 O 0.3989(2) 0.9584(2) 0.5376(11) 0.0129 Uiso
H1_7 H 0.491405 0.966794 0.626309 . .
C5_8 C 0.5131(5) 0.4940(4) 0.2086(16) 0.0127 Uiso
C6_8 C 0.4608(6) 0.4539(4) 0.1386(17) 0.0127 Uiso
C7_8 C 0.5565(6) 0.5419(4) 0.0761(14) 0.0051 Uiso
C8_8 C 0.4211(6) 0.4128(4) 0.3077(16) 0.0114 Uiso
O4_8 O 0.6110(3) 0.5845(2) 0.1585(11) 0.0053 Uiso
H2_8 H 0.52461 0.491405 0.373691 . .
C1_8 C 0.4869(5) 0.5060(4) 0.7914(16) 0.0127 Uiso
C2_8 C 0.5392(6) 0.5461(4) 0.8614(17) 0.0127 Uiso
C3_8 C 0.4435(6) 0.4581(4) 0.9239(14) 0.0051 Uiso
C4_8 C 0.5789(6) 0.5872(4) 0.6923(16) 0.0114 Uiso
O2_8 O 0.5594(3) 0.6011(2) 0.5376(11) 0.0129 Uiso
O3_8 O 0.6357(3) 0.6147(2) 0.7358(9) 0.0053 Uiso
H1_8 H 0.47539 0.508595 0.626309 . .
C1_9 C 0.0190(3) 0.5131(5) 0.7914(16) 0.0127 Uiso
C2_9 C 0.0068(4) 0.4608(6) 0.8614(17) 0.0127 Uiso
C3_9 C 0.0145(5) 0.5565(6) 0.9239(14) 0.0051 Uiso
C4_9 C 0.0082(5) 0.4211(6) 0.6923(16) 0.0114 Uiso
O2_9 O 0.0416(2) 0.4406(3) 0.5376(11) 0.0129 Uiso
H1_9 H 0.0332055 0.52461 0.626309 . .
C5_9 C 0.9810(3) 0.4869(5) 0.2086(16) 0.0127 Uiso
C6_9 C 0.9932(4) 0.5392(6) 0.1386(17) 0.0127 Uiso
C7_9 C 0.9855(5) 0.4435(6) 0.0761(14) 0.0051 Uiso
C8_9 C 0.9918(5) 0.5789(6) 0.3077(16) 0.0114 Uiso
O4_9 O 0.9736(2) 0.3890(3) 0.1585(11) 0.0053 Uiso
H2_9 H 0.966794 0.47539 0.373691 . .
O3_9 O 0.9789(2) 0.3643(3) 0.7358(9) 0.0053 Uiso
loop_
_geom_bond_atom_site_label_1
_geom_bond_atom_site_label_2
_geom_bond_site_symmetry_1
_geom_bond_site_symmetry_2
Cu1 O1 1_555 1_555
C1 C2 1_555 1_555
C2 C4 1_555 1_555
C3 C1 1_555 1_555
O1 C3 1_555 1_555
O3 C4 1_555 1_555
C5 C6 1_555 1_555
C6 C3 1_555 1_555
C7 C2 1_555 1_555
C8 C6 1_555 1_555
O4 C7 1_555 1_555
O5 C8 1_555 1_555
O6 Cu1 1_555 1_555
Cu7 O1 1_555 1_555
Cu4 O4 1_555 1_555
Cu5 O6 1_555 1_555
Cu8 O3 1_555 1_555
O7 Cu1 1_555 1_555
O9 Cu1 1_555 1_555
O12 Cu1 1_555 1_555
C5 C7 1_555 1_555
C8 O6 1_555 1_555
O4 Cu8 1_555 1_555
Cu7 O12 1_555 1_555
Cu5 O7 1_555 1_555
C5 H2 1_555 1_555
O2 Cu4 1_555 1_555
C1_2 C2_2 1_555 1_555
C2_2 C4_2 1_555 1_555
C3_2 C1_2 1_555 1_555
O1_2 C3_2 1_555 1_555
O3_2 C4_2 1_555 1_555
C5_2 C6_2 1_555 1_555
C6_2 C3_2 1_555 1_555
C7_2 C2_2 1_555 1_555
C8_2 C6_2 1_555 1_555
O4_2 C7_2 1_555 1_555
O5_2 C8_2 1_555 1_555
Cu7_2 O1_2 1_555 1_555
Cu4_2 O4_2 1_555 1_555
Cu8_2 O3_2 1_555 1_555
C5_2 C7_2 1_555 1_555
C8_2 O6_2 1_555 1_555
O4_2 Cu8_2 1_555 1_555
Cu7_2 O12_2 1_555 1_555
C5_2 H2_2 1_555 1_555
O2_2 Cu4_2 1_555 1_555
O7_2 Cu1_2 1_555 1_555
O9_2 Cu1_2 1_555 1_555
Cu5_2 O7_2 1_555 1_555
O7_3 Cu1_3 1_555 1_555
O9_3 Cu1_3 1_555 1_555
Cu5_3 O7_3 1_555 1_555
C1_3 C2_3 1_555 1_555
C2_3 C4_3 1_555 1_555
C3_3 C1_3 1_555 1_555
O1_3 C3_3 1_555 1_555
O3_3 C4_3 1_555 1_555
C5_3 C6_3 1_555 1_555
C6_3 C3_3 1_555 1_555
C7_3 C2_3 1_555 1_555
C8_3 C6_3 1_555 1_555
O4_3 C7_3 1_555 1_555
O5_3 C8_3 1_555 1_555
Cu7_3 O1_3 1_555 1_555
Cu4_3 O4_3 1_555 1_555
Cu8_3 O3_3 1_555 1_555
C5_3 C7_3 1_555 1_555
C8_3 O6_3 1_555 1_555
O4_3 Cu8_3 1_555 1_555
Cu7_3 O12_3 1_555 1_555
C5_3 H2_3 1_555 1_555
O2_3 Cu4_3 1_555 1_555
C1_4 C2_4 1_555 1_555
C2_4 C4_4 1_555 1_555
C3_4 C1_4 1_555 1_555
C4_4 O2_4 1_555 1_555
O7_2 C3_4 1_555 1_555
O3_4 C4_4 1_555 1_555
C5_4 C6_4 1_555 1_555
C6_4 C3_4 1_555 1_555
C7_4 C2_4 1_555 1_555
C8_4 C6_4 1_555 1_555
O4_4 C7_4 1_555 1_555
O11_2 Cu5_2 1_555 1_555
Cu6_3 O4_4 1_555 1_555
Cu8_3 O3_4 1_555 1_555
Cu4_3 O3_4 1_555 1_555
O9_4 Cu5_2 1_555 1_555
C5_4 C7_4 1_555 1_555
C8_4 O11_2 1_555 1_555
O4_4 Cu4_3 1_555 1_555
C1_4 H1_4 1_555 1_555
C1_5 C2_5 1_555 1_555
C2_5 C4_5 1_555 1_555
C3_5 C1_5 1_555 1_555
C4_5 O2_5 1_555 1_555
O7_3 C3_5 1_555 1_555
O3_5 C4_5 1_555 1_555
C5_5 C6_5 1_555 1_555
C6_5 C3_5 1_555 1_555
C7_5 C2_5 1_555 1_555
C8_5 C6_5 1_555 1_555
O4_5 C7_5 1_555 1_555
O11_3 Cu5_3 1_555 1_555
Cu6 O4_5 1_555 1_555
O9_5 Cu5_3 1_555 1_555
C5_5 C7_5 1_555 1_555
C8_5 O11_3 1_555 1_555
C1_5 H1_5 1_555 1_555
C1_6 C2_6 1_555 1_555
C2_6 C4_6 1_555 1_555
C3_6 C1_6 1_555 1_555
C4_6 O2_6 1_555 1_555
O7 C3_6 1_555 1_555
O3_6 C4_6 1_555 1_555
C5_6 C6_6 1_555 1_555
C6_6 C3_6 1_555 1_555
C7_6 C2_6 1_555 1_555
C8_6 C6_6 1_555 1_555
O4_6 C7_6 1_555 1_555
O11 Cu5 1_555 1_555
Cu6_2 O4_6 1_555 1_555
O8 Cu5 1_555 1_555
O9_6 Cu5 1_555 1_555
C5_6 C7_6 1_555 1_555
C8_6 O11 1_555 1_555
C1_6 H1_6 1_555 1_555
C5_7 C6_7 1_555 1_555
C8_7 C6_7 1_555 1_555
O4_7 C7_7 1_555 1_555
O9_5 C8_7 1_555 1_555
C5_7 C7_7 1_555 1_555
C5_7 H2_7 1_555 1_555
Cu6_2 O3_7 1_555 1_555
C1_7 C2_7 1_555 1_555
C2_7 C4_7 1_555 1_555
C3_7 C1_7 1_555 1_555
C4_7 O2_7 1_555 1_555
O8_3 C3_7 1_555 1_555
O2_7 Cu8_2 1_555 1_555
C1_7 H1_7 1_555 1_555
C5_8 C6_8 1_555 1_555
C8_8 C6_8 1_555 1_555
O4_8 C7_8 1_555 1_555
O9_6 C8_8 1_555 1_555
Cu8_3 O4_8 1_555 1_555
C5_8 C7_8 1_555 1_555
C8_8 O12 1_555 1_555
C5_8 H2_8 1_555 1_555
C1_8 C2_8 1_555 1_555
C2_8 C4_8 1_555 1_555
C3_8 C1_8 1_555 1_555
C4_8 O2_8 1_555 1_555
O8 C3_8 1_555 1_555
O2_8 Cu8_3 1_555 1_555
O3_8 C4_8 1_555 1_555
Cu4_3 O3_8 1_555 1_555
Cu6_3 O3_8 1_555 1_555
C1_8 H1_8 1_555 1_555
C1_9 C2_9 1_555 1_555
C2_9 C4_9 1_555 1_555
C3_9 C1_9 1_555 1_555
C4_9 O2_9 1_555 1_555
O8_2 C3_9 1_555 1_555
O2_9 Cu8 1_555 1_555
C1_9 H1_9 1_555 1_555
C5_9 C6_9 1_555 1_555
C8_9 C6_9 1_555 1_555
O4_9 C7_9 1_555 1_555
O9_4 C8_9 1_555 1_555
C5_9 C7_9 1_555 1_555
C5_9 H2_9 1_555 1_555
Cu6 O3_9 1_555 1_555

#END
