
###############################################################################
#
# This file contains modified crystal structure data generated from the
# MOF subset of the Cambridge Structural Database (CSD) v543 
# hosted by the Cambridge Crystallographic Data Centre (CCDC).
#
# This work is licensed under the Creative Commons
# Attribution-NonCommercial-ShareAlike 4.0 International License.
# To view a copy of this license, visit
# http://creativecommons.org/licenses/by-nc-sa/4.0/
# or send a letter to
# Creative Commons, PO Box 1866, Mountain View, CA 94042, USA.
#
# CIF created using the CSD Python API on 29 September 2022
# The structure has been converted into the P1 space group
# The structure has a 3D framework
# The original CSD entry MOKYAP39 is in the rhombohedral crystal system
# The framework has been calculated to contain at least 10.0% void space
# The void calculation uses a probe of radius 1.32A, grid spacing 0.4
# H atom positions have been added when not included in the experimental data
#
###############################################################################

data_MOKYAP39
_chemical_formula_moiety         '(C72 H18 Cu7 O44)n'
_symmetry_cell_setting           triclinic
_symmetry_space_group_name_H-M   'P 1'
_symmetry_Int_Tables_number      1
_space_group_name_Hall           'P 1'
loop_
_symmetry_equiv_pos_site_id
_symmetry_equiv_pos_as_xyz
1 x,y,z
_cell_length_a                   25.9171(3)
_cell_length_b                   25.9171(3)
_cell_length_c                   6.27335(6)
_cell_angle_alpha                90
_cell_angle_beta                 90
_cell_angle_gamma                120
_cell_volume                     3649.24
loop_
_atom_site_label
_atom_site_type_symbol
_atom_site_fract_x
_atom_site_fract_y
_atom_site_fract_z
_atom_site_U_iso_or_equiv
_atom_site_thermal_displace_type
Cu7 Cu 0.31800(7) 0.37139(5) 0.0092(2) 0.0096 Uiso
Cu1 Cu 0.29528(5) 0.27995(5) 0.3425(2) 0.0096 Uiso
C1 C 0.1606(3) 0.3123(3) 0.1249(13) 0.0063 Uiso
C2 C 0.1201(4) 0.3268(4) 0.1982(15) 0.0127 Uiso
C3 C 0.2093(3) 0.3192(4) 0.2547(12) 0.0051 Uiso
C4 C 0.0777(3) 0.3240(4) 0.0312(14) 0.0089 Uiso
O1 O 0.2513(2) 0.3070(2) 0.1709(9) 0.0048 Uiso
O3 O 0.0519(2) 0.3547(2) 0.0669(8) 0.0048 Uiso
C5 C 0.1727(3) 0.3544(3) 0.5418(13) 0.0063 Uiso
C6 C 0.2132(4) 0.3399(4) 0.4685(15) 0.0127 Uiso
C7 C 0.1240(3) 0.3475(4) 0.4120(12) 0.0051 Uiso
C8 C 0.2556(3) 0.3427(4) 0.6355(14) 0.0089 Uiso
O4 O 0.0820(2) 0.3597(2) 0.4958(9) 0.0048 Uiso
O5 O 0.2667(2) 0.3744(2) 0.7959(9) 0.0108 Uiso
O6 O 0.2814(2) 0.3120(2) 0.5998(8) 0.0048 Uiso
Cu4 Cu 0.01533(7) 0.29528(5) 0.6575(2) 0.0096 Uiso
Cu5 Cu 0.38672(5) 0.34866(7) 0.6758(2) 0.0096 Uiso
Cu8 Cu 0.03805(5) 0.38672(5) 0.3242(2) 0.0096 Uiso
O7 O 0.3597(2) 0.2776(3) 0.5042(9) 0.0048 Uiso
O9 O 0.2923(2) 0.2257(3) 0.1292(9) 0.0108 Uiso
O12 O 0.3639(3) 0.3852(2) 0.2664(8) 0.0048 Uiso
H2 H 0.177347 0.371662 0.703096 . .
O2 O 0.0666(2) 0.2923(2) 0.8708(9) 0.0108 Uiso
O8 O 0.3890(3) 0.4154(2) 0.8376(9) 0.0048 Uiso
O11 O 0.3547(2) 0.3028(3) 0.9331(8) 0.0048 Uiso
H1 H 0.155987 0.295005 0.96357 . .
Cu6 Cu 0.94662(5) 0.31800(7) 0.9908(2) 0.0096 Uiso
Cu6_2 Cu 0.37139(9) 0.05338(5) 0.9908(2) 0.0096 Uiso
Cu7_2 Cu 0.05338(9) 0.68200(7) 0.0092(2) 0.0096 Uiso
C1_2 C 0.1517(4) 0.8394(3) 0.1249(13) 0.0063 Uiso
C2_2 C 0.2067(6) 0.8799(4) 0.1982(15) 0.0127 Uiso
C3_2 C 0.1099(5) 0.7907(3) 0.2547(12) 0.0051 Uiso
C4_2 C 0.2463(5) 0.9223(3) 0.0312(14) 0.0089 Uiso
O1_2 O 0.0557(3) 0.7487(2) 0.1709(9) 0.0048 Uiso
O3_2 O 0.3028(3) 0.9481(2) 0.0669(8) 0.0048 Uiso
C5_2 C 0.1816(4) 0.8273(3) 0.5418(13) 0.0063 Uiso
C6_2 C 0.1266(6) 0.7868(4) 0.4685(15) 0.0127 Uiso
C7_2 C 0.2234(5) 0.8760(3) 0.4120(12) 0.0051 Uiso
C8_2 C 0.0870(5) 0.7444(3) 0.6355(14) 0.0089 Uiso
O4_2 O 0.2776(3) 0.9180(2) 0.4958(9) 0.0048 Uiso
O5_2 O 0.1076(3) 0.7333(2) 0.7959(9) 0.0108 Uiso
O6_2 O 0.0305(3) 0.7186(2) 0.5998(8) 0.0048 Uiso
Cu4_2 Cu 0.27995(9) 0.98467(7) 0.6575(2) 0.0096 Uiso
Cu8_2 Cu 0.34866(7) 0.96195(5) 0.3242(2) 0.0096 Uiso
O12_2 O 0.0214(4) 0.6361(3) 0.2664(8) 0.0048 Uiso
H2_2 H 0.194315 0.822653 0.703096 . .
O2_2 O 0.2257(3) 0.9334(2) 0.8708(9) 0.0108 Uiso
O8_2 O 0.0263(4) 0.6110(3) 0.8376(9) 0.0048 Uiso
H1_2 H 0.139018 0.844013 0.96357 . .
Cu1_2 Cu 0.98467(7) 0.70472(5) 0.3425(2) 0.0096 Uiso
Cu5_2 Cu 0.96195(9) 0.61328(5) 0.6758(2) 0.0096 Uiso
O7_2 O 0.9180(4) 0.6403(2) 0.5042(9) 0.0048 Uiso
O9_2 O 0.9334(4) 0.7077(2) 0.1292(9) 0.0108 Uiso
O11_2 O 0.9481(4) 0.6453(2) 0.9331(8) 0.0048 Uiso
Cu1_3 Cu 0.72005(5) 0.01533(7) 0.3425(2) 0.0096 Uiso
Cu5_3 Cu 0.65134(7) 0.03805(9) 0.6758(2) 0.0096 Uiso
O7_3 O 0.7224(3) 0.0820(4) 0.5042(9) 0.0048 Uiso
O9_3 O 0.7743(3) 0.0666(4) 0.1292(9) 0.0108 Uiso
O11_3 O 0.6972(3) 0.0519(4) 0.9331(8) 0.0048 Uiso
Cu7_3 Cu 0.62861(5) 0.94662(9) 0.0092(2) 0.0096 Uiso
C1_3 C 0.6877(3) 0.8483(4) 0.1249(13) 0.0063 Uiso
C2_3 C 0.6732(4) 0.7933(6) 0.1982(15) 0.0127 Uiso
C3_3 C 0.6808(4) 0.8901(5) 0.2547(12) 0.0051 Uiso
C4_3 C 0.6760(4) 0.7537(5) 0.0312(14) 0.0089 Uiso
O1_3 O 0.6930(2) 0.9443(3) 0.1709(9) 0.0048 Uiso
O3_3 O 0.6453(2) 0.6972(3) 0.0669(8) 0.0048 Uiso
C5_3 C 0.6456(3) 0.8184(4) 0.5418(13) 0.0063 Uiso
C6_3 C 0.6601(4) 0.8734(6) 0.4685(15) 0.0127 Uiso
C7_3 C 0.6525(4) 0.7766(5) 0.4120(12) 0.0051 Uiso
C8_3 C 0.6573(4) 0.9130(5) 0.6355(14) 0.0089 Uiso
O4_3 O 0.6403(2) 0.7224(3) 0.4958(9) 0.0048 Uiso
O5_3 O 0.6256(2) 0.8924(3) 0.7959(9) 0.0108 Uiso
O6_3 O 0.6880(2) 0.9695(3) 0.5998(8) 0.0048 Uiso
Cu4_3 Cu 0.70472(5) 0.72005(9) 0.6575(2) 0.0096 Uiso
Cu8_3 Cu 0.61328(5) 0.65134(7) 0.3242(2) 0.0096 Uiso
O12_3 O 0.6148(2) 0.9786(4) 0.2664(8) 0.0048 Uiso
H2_3 H 0.628338 0.805685 0.703096 . .
O2_3 O 0.7077(2) 0.7743(3) 0.8708(9) 0.0108 Uiso
Cu6_3 Cu 0.68200(7) 0.62861(9) 0.9908(2) 0.0096 Uiso
O8_3 O 0.5846(2) 0.9737(4) 0.8376(9) 0.0048 Uiso
H1_3 H 0.704995 0.860982 0.96357 . .
H2_4 H 0.844013 0.704995 0.0364297 . .
C1_4 C 0.8273(3) 0.6456(3) 0.4582(13) 0.0063 Uiso
C2_4 C 0.7868(4) 0.6601(4) 0.5315(15) 0.0127 Uiso
C3_4 C 0.8760(3) 0.6525(4) 0.5880(12) 0.0051 Uiso
C4_4 C 0.7444(3) 0.6573(4) 0.3645(14) 0.0089 Uiso
O2_4 O 0.7333(2) 0.6256(2) 0.2041(9) 0.0108 Uiso
O3_4 O 0.7186(2) 0.6880(2) 0.4002(8) 0.0048 Uiso
C5_4 C 0.8394(3) 0.6877(3) 0.8751(13) 0.0063 Uiso
C6_4 C 0.8799(4) 0.6732(4) 0.8018(15) 0.0127 Uiso
C7_4 C 0.7907(3) 0.6808(4) 0.7453(12) 0.0051 Uiso
C8_4 C 0.9223(3) 0.6760(4) 0.9688(14) 0.0089 Uiso
O4_4 O 0.7487(2) 0.6930(2) 0.8291(9) 0.0048 Uiso
O9_4 O 0.9590(2) 0.5590(3) 0.4625(9) 0.0108 Uiso
H1_4 H 0.822653 0.628338 0.296904 . .
H2_5 H 0.860982 0.155987 0.0364297 . .
C1_5 C 0.8184(4) 0.1727(3) 0.4582(13) 0.0063 Uiso
C2_5 C 0.8734(6) 0.2132(4) 0.5315(15) 0.0127 Uiso
C3_5 C 0.7766(5) 0.1240(3) 0.5880(12) 0.0051 Uiso
C4_5 C 0.9130(5) 0.2556(3) 0.3645(14) 0.0089 Uiso
O2_5 O 0.8924(3) 0.2667(2) 0.2041(9) 0.0108 Uiso
O3_5 O 0.9695(3) 0.2814(2) 0.4002(8) 0.0048 Uiso
C5_5 C 0.8483(4) 0.1606(3) 0.8751(13) 0.0063 Uiso
C6_5 C 0.7933(6) 0.1201(4) 0.8018(15) 0.0127 Uiso
C7_5 C 0.8901(5) 0.2093(3) 0.7453(12) 0.0051 Uiso
C8_5 C 0.7537(5) 0.0777(3) 0.9688(14) 0.0089 Uiso
O4_5 O 0.9443(3) 0.2513(2) 0.8291(9) 0.0048 Uiso
O9_5 O 0.6001(4) 0.0410(2) 0.4625(9) 0.0108 Uiso
H1_5 H 0.805685 0.177347 0.296904 . .
H2_6 H 0.295005 0.139018 0.0364297 . .
C1_6 C 0.3544(3) 0.1816(4) 0.4582(13) 0.0063 Uiso
C2_6 C 0.3399(4) 0.1266(6) 0.5315(15) 0.0127 Uiso
C3_6 C 0.3475(4) 0.2234(5) 0.5880(12) 0.0051 Uiso
C4_6 C 0.3427(4) 0.0870(5) 0.3645(14) 0.0089 Uiso
O2_6 O 0.3744(2) 0.1076(3) 0.2041(9) 0.0108 Uiso
O3_6 O 0.3120(2) 0.0305(3) 0.4002(8) 0.0048 Uiso
C5_6 C 0.3123(3) 0.1517(4) 0.8751(13) 0.0063 Uiso
C6_6 C 0.3268(4) 0.2067(6) 0.8018(15) 0.0127 Uiso
C7_6 C 0.3192(4) 0.1099(5) 0.7453(12) 0.0051 Uiso
C8_6 C 0.3240(4) 0.2463(5) 0.9688(14) 0.0089 Uiso
O4_6 O 0.3070(2) 0.0557(3) 0.8291(9) 0.0048 Uiso
O9_6 O 0.4410(3) 0.3999(4) 0.4625(9) 0.0108 Uiso
H1_6 H 0.371662 0.194315 0.296904 . .
C5_7 C 0.5061(3) 0.0210(3) 0.2084(13) 0.0063 Uiso
C6_7 C 0.5466(4) 0.0065(4) 0.1351(15) 0.0127 Uiso
C7_7 C 0.4574(3) 0.0141(4) 0.0786(12) 0.0051 Uiso
C8_7 C 0.5890(3) 0.0093(4) 0.3021(14) 0.0089 Uiso
O4_7 O 0.4154(2) 0.0263(2) 0.1624(9) 0.0048 Uiso
H2_7 H 0.51068 0.0383284 0.369763 . .
O3_7 O 0.3852(2) 0.0214(2) 0.7336(8) 0.0048 Uiso
C1_7 C 0.4939(3) 0.9790(3) 0.7916(13) 0.0063 Uiso
C2_7 C 0.4534(4) 0.9935(4) 0.8649(15) 0.0127 Uiso
C3_7 C 0.5426(3) 0.9859(4) 0.9214(12) 0.0051 Uiso
C4_7 C 0.4110(3) 0.9907(4) 0.6979(14) 0.0089 Uiso
O2_7 O 0.3999(2) 0.9590(2) 0.5375(9) 0.0108 Uiso
H1_7 H 0.48932 0.961672 0.630237 . .
C5_8 C 0.5150(4) 0.4939(3) 0.2084(13) 0.0063 Uiso
C6_8 C 0.4600(6) 0.4534(4) 0.1351(15) 0.0127 Uiso
C7_8 C 0.5568(5) 0.5426(3) 0.0786(12) 0.0051 Uiso
C8_8 C 0.4204(5) 0.4110(3) 0.3021(14) 0.0089 Uiso
O4_8 O 0.6110(3) 0.5846(2) 0.1624(9) 0.0048 Uiso
H2_8 H 0.527648 0.48932 0.369763 . .
C1_8 C 0.4850(4) 0.5061(3) 0.7916(13) 0.0063 Uiso
C2_8 C 0.5400(6) 0.5466(4) 0.8649(15) 0.0127 Uiso
C3_8 C 0.4432(5) 0.4574(3) 0.9214(12) 0.0051 Uiso
C4_8 C 0.5796(5) 0.5890(3) 0.6979(14) 0.0089 Uiso
O2_8 O 0.5590(3) 0.6001(2) 0.5375(9) 0.0108 Uiso
O3_8 O 0.6361(3) 0.6148(2) 0.7336(8) 0.0048 Uiso
H1_8 H 0.472352 0.51068 0.630237 . .
C1_9 C 0.0210(3) 0.5150(4) 0.7916(13) 0.0063 Uiso
C2_9 C 0.0065(4) 0.4600(6) 0.8649(15) 0.0127 Uiso
C3_9 C 0.0141(4) 0.5568(5) 0.9214(12) 0.0051 Uiso
C4_9 C 0.0093(4) 0.4204(5) 0.6979(14) 0.0089 Uiso
O2_9 O 0.0410(2) 0.4410(3) 0.5375(9) 0.0108 Uiso
H1_9 H 0.0383284 0.527648 0.630237 . .
C5_9 C 0.9790(3) 0.4850(4) 0.2084(13) 0.0063 Uiso
C6_9 C 0.9935(4) 0.5400(6) 0.1351(15) 0.0127 Uiso
C7_9 C 0.9859(4) 0.4432(5) 0.0786(12) 0.0051 Uiso
C8_9 C 0.9907(4) 0.5796(5) 0.3021(14) 0.0089 Uiso
O4_9 O 0.9737(2) 0.3890(3) 0.1624(9) 0.0048 Uiso
H2_9 H 0.961672 0.472352 0.369763 . .
O3_9 O 0.9786(2) 0.3639(3) 0.7336(8) 0.0048 Uiso
loop_
_geom_bond_atom_site_label_1
_geom_bond_atom_site_label_2
_geom_bond_site_symmetry_1
_geom_bond_site_symmetry_2
Cu1 O1 1_555 1_555
C1 C2 1_555 1_555
C2 C4 1_555 1_555
C3 C1 1_555 1_555
O1 C3 1_555 1_555
O3 C4 1_555 1_555
C5 C6 1_555 1_555
C6 C3 1_555 1_555
C7 C2 1_555 1_555
C8 C6 1_555 1_555
O4 C7 1_555 1_555
O5 C8 1_555 1_555
O6 Cu1 1_555 1_555
Cu7 O1 1_555 1_555
Cu4 O4 1_555 1_555
Cu5 O6 1_555 1_555
Cu8 O3 1_555 1_555
O7 Cu1 1_555 1_555
O9 Cu1 1_555 1_555
O12 Cu1 1_555 1_555
C5 C7 1_555 1_555
C8 O6 1_555 1_555
O4 Cu8 1_555 1_555
Cu7 O12 1_555 1_555
Cu5 O7 1_555 1_555
C5 H2 1_555 1_555
O2 Cu4 1_555 1_555
C1_2 C2_2 1_555 1_555
C2_2 C4_2 1_555 1_555
C3_2 C1_2 1_555 1_555
O1_2 C3_2 1_555 1_555
O3_2 C4_2 1_555 1_555
C5_2 C6_2 1_555 1_555
C6_2 C3_2 1_555 1_555
C7_2 C2_2 1_555 1_555
C8_2 C6_2 1_555 1_555
O4_2 C7_2 1_555 1_555
O5_2 C8_2 1_555 1_555
Cu7_2 O1_2 1_555 1_555
Cu4_2 O4_2 1_555 1_555
Cu8_2 O3_2 1_555 1_555
C5_2 C7_2 1_555 1_555
C8_2 O6_2 1_555 1_555
O4_2 Cu8_2 1_555 1_555
Cu7_2 O12_2 1_555 1_555
C5_2 H2_2 1_555 1_555
O2_2 Cu4_2 1_555 1_555
O7_2 Cu1_2 1_555 1_555
O9_2 Cu1_2 1_555 1_555
Cu5_2 O7_2 1_555 1_555
O7_3 Cu1_3 1_555 1_555
O9_3 Cu1_3 1_555 1_555
Cu5_3 O7_3 1_555 1_555
C1_3 C2_3 1_555 1_555
C2_3 C4_3 1_555 1_555
C3_3 C1_3 1_555 1_555
O1_3 C3_3 1_555 1_555
O3_3 C4_3 1_555 1_555
C5_3 C6_3 1_555 1_555
C6_3 C3_3 1_555 1_555
C7_3 C2_3 1_555 1_555
C8_3 C6_3 1_555 1_555
O4_3 C7_3 1_555 1_555
O5_3 C8_3 1_555 1_555
Cu7_3 O1_3 1_555 1_555
Cu4_3 O4_3 1_555 1_555
Cu8_3 O3_3 1_555 1_555
C5_3 C7_3 1_555 1_555
C8_3 O6_3 1_555 1_555
O4_3 Cu8_3 1_555 1_555
Cu7_3 O12_3 1_555 1_555
C5_3 H2_3 1_555 1_555
O2_3 Cu4_3 1_555 1_555
C1_4 C2_4 1_555 1_555
C2_4 C4_4 1_555 1_555
C3_4 C1_4 1_555 1_555
C4_4 O2_4 1_555 1_555
O7_2 C3_4 1_555 1_555
O3_4 C4_4 1_555 1_555
C5_4 C6_4 1_555 1_555
C6_4 C3_4 1_555 1_555
C7_4 C2_4 1_555 1_555
C8_4 C6_4 1_555 1_555
O4_4 C7_4 1_555 1_555
O11_2 Cu5_2 1_555 1_555
Cu6_3 O4_4 1_555 1_555
Cu8_3 O3_4 1_555 1_555
Cu4_3 O3_4 1_555 1_555
O9_4 Cu5_2 1_555 1_555
C5_4 C7_4 1_555 1_555
C8_4 O11_2 1_555 1_555
O4_4 Cu4_3 1_555 1_555
C1_4 H1_4 1_555 1_555
C1_5 C2_5 1_555 1_555
C2_5 C4_5 1_555 1_555
C3_5 C1_5 1_555 1_555
C4_5 O2_5 1_555 1_555
O7_3 C3_5 1_555 1_555
O3_5 C4_5 1_555 1_555
C5_5 C6_5 1_555 1_555
C6_5 C3_5 1_555 1_555
C7_5 C2_5 1_555 1_555
C8_5 C6_5 1_555 1_555
O4_5 C7_5 1_555 1_555
O11_3 Cu5_3 1_555 1_555
Cu6 O4_5 1_555 1_555
O9_5 Cu5_3 1_555 1_555
C5_5 C7_5 1_555 1_555
C8_5 O11_3 1_555 1_555
C1_5 H1_5 1_555 1_555
C1_6 C2_6 1_555 1_555
C2_6 C4_6 1_555 1_555
C3_6 C1_6 1_555 1_555
C4_6 O2_6 1_555 1_555
O7 C3_6 1_555 1_555
O3_6 C4_6 1_555 1_555
C5_6 C6_6 1_555 1_555
C6_6 C3_6 1_555 1_555
C7_6 C2_6 1_555 1_555
C8_6 C6_6 1_555 1_555
O4_6 C7_6 1_555 1_555
O11 Cu5 1_555 1_555
Cu6_2 O4_6 1_555 1_555
O8 Cu5 1_555 1_555
O9_6 Cu5 1_555 1_555
C5_6 C7_6 1_555 1_555
C8_6 O11 1_555 1_555
C1_6 H1_6 1_555 1_555
C5_7 C6_7 1_555 1_555
C8_7 C6_7 1_555 1_555
O4_7 C7_7 1_555 1_555
O9_5 C8_7 1_555 1_555
C5_7 C7_7 1_555 1_555
C5_7 H2_7 1_555 1_555
Cu6_2 O3_7 1_555 1_555
C1_7 C2_7 1_555 1_555
C2_7 C4_7 1_555 1_555
C3_7 C1_7 1_555 1_555
C4_7 O2_7 1_555 1_555
O8_3 C3_7 1_555 1_555
O2_7 Cu8_2 1_555 1_555
C1_7 H1_7 1_555 1_555
C5_8 C6_8 1_555 1_555
C8_8 C6_8 1_555 1_555
O4_8 C7_8 1_555 1_555
O9_6 C8_8 1_555 1_555
Cu8_3 O4_8 1_555 1_555
C5_8 C7_8 1_555 1_555
C8_8 O12 1_555 1_555
C5_8 H2_8 1_555 1_555
C1_8 C2_8 1_555 1_555
C2_8 C4_8 1_555 1_555
C3_8 C1_8 1_555 1_555
C4_8 O2_8 1_555 1_555
O8 C3_8 1_555 1_555
O2_8 Cu8_3 1_555 1_555
O3_8 C4_8 1_555 1_555
Cu4_3 O3_8 1_555 1_555
Cu6_3 O3_8 1_555 1_555
C1_8 H1_8 1_555 1_555
C1_9 C2_9 1_555 1_555
C2_9 C4_9 1_555 1_555
C3_9 C1_9 1_555 1_555
C4_9 O2_9 1_555 1_555
O8_2 C3_9 1_555 1_555
O2_9 Cu8 1_555 1_555
C1_9 H1_9 1_555 1_555
C5_9 C6_9 1_555 1_555
C8_9 C6_9 1_555 1_555
O4_9 C7_9 1_555 1_555
O9_4 C8_9 1_555 1_555
C5_9 C7_9 1_555 1_555
C5_9 H2_9 1_555 1_555
Cu6 O3_9 1_555 1_555

#END
