
###############################################################################
#
# This file contains modified crystal structure data generated from the
# MOF subset of the Cambridge Structural Database (CSD) v543 
# hosted by the Cambridge Crystallographic Data Centre (CCDC).
#
# This work is licensed under the Creative Commons
# Attribution-NonCommercial-ShareAlike 4.0 International License.
# To view a copy of this license, visit
# http://creativecommons.org/licenses/by-nc-sa/4.0/
# or send a letter to
# Creative Commons, PO Box 1866, Mountain View, CA 94042, USA.
#
# CIF created using the CSD Python API on 29 September 2022
# The structure has been converted into the P1 space group
# The structure has a 3D framework
# The original CSD entry MOKYAP79 is in the rhombohedral crystal system
# The framework has been calculated to contain at least 10.0% void space
# The void calculation uses a probe of radius 1.32A, grid spacing 0.4
# H atom positions have been added when not included in the experimental data
#
###############################################################################

data_MOKYAP79
_chemical_formula_moiety         '(C72 H18 Cu7 O44)n'
_symmetry_cell_setting           triclinic
_symmetry_space_group_name_H-M   'P 1'
_symmetry_Int_Tables_number      1
_space_group_name_Hall           'P 1'
loop_
_symmetry_equiv_pos_site_id
_symmetry_equiv_pos_as_xyz
1 x,y,z
_cell_length_a                   25.9145(3)
_cell_length_b                   25.9145(3)
_cell_length_c                   6.27570(7)
_cell_angle_alpha                90
_cell_angle_beta                 90
_cell_angle_gamma                120
_cell_volume                     3649.88
loop_
_atom_site_label
_atom_site_type_symbol
_atom_site_fract_x
_atom_site_fract_y
_atom_site_fract_z
_atom_site_U_iso_or_equiv
_atom_site_thermal_displace_type
Cu7 Cu 0.31802(7) 0.37128(5) 0.0091(2) 0.0110 Uiso
Cu1 Cu 0.29539(5) 0.28008(5) 0.3424(2) 0.0110 Uiso
C1 C 0.1607(3) 0.3125(3) 0.1251(13) 0.0061 Uiso
C2 C 0.1201(4) 0.3272(4) 0.1986(15) 0.0177 Uiso
C3 C 0.2094(4) 0.3188(4) 0.2538(12) 0.0063 Uiso
C4 C 0.0767(3) 0.3231(4) 0.0328(13) 0.0076 Uiso
O1 O 0.2518(2) 0.3074(2) 0.1712(9) 0.0060 Uiso
O3 O 0.0520(2) 0.3547(2) 0.0659(8) 0.0065 Uiso
C5 C 0.1726(3) 0.3542(3) 0.5416(13) 0.0061 Uiso
C6 C 0.2132(4) 0.3395(4) 0.4681(15) 0.0177 Uiso
C7 C 0.1239(4) 0.3479(4) 0.4129(12) 0.0063 Uiso
C8 C 0.2566(3) 0.3436(4) 0.6339(13) 0.0076 Uiso
O4 O 0.0815(2) 0.3593(2) 0.4955(9) 0.0060 Uiso
O5 O 0.2669(2) 0.3746(2) 0.7966(10) 0.0144 Uiso
O6 O 0.2813(2) 0.3120(2) 0.6008(8) 0.0065 Uiso
Cu4 Cu 0.01531(7) 0.29539(5) 0.6576(2) 0.0110 Uiso
Cu5 Cu 0.38659(5) 0.34864(7) 0.6757(2) 0.0110 Uiso
Cu8 Cu 0.03794(5) 0.38659(5) 0.3243(2) 0.0110 Uiso
O7 O 0.3593(2) 0.2777(3) 0.5045(9) 0.0060 Uiso
O9 O 0.2921(2) 0.2257(3) 0.1299(10) 0.0144 Uiso
O12 O 0.3640(3) 0.3853(2) 0.2674(8) 0.0065 Uiso
H2 H 0.177324 0.371244 0.703212 . .
O2 O 0.0664(2) 0.2921(2) 0.8701(10) 0.0144 Uiso
O8 O 0.3889(3) 0.4149(2) 0.8379(9) 0.0060 Uiso
O11 O 0.3547(2) 0.3027(3) 0.9341(8) 0.0065 Uiso
H1 H 0.156009 0.295422 0.963455 . .
Cu6 Cu 0.94675(5) 0.31802(7) 0.9909(2) 0.0110 Uiso
Cu6_2 Cu 0.37128(9) 0.05325(5) 0.9909(2) 0.0110 Uiso
Cu7_2 Cu 0.05325(9) 0.68198(7) 0.0091(2) 0.0110 Uiso
C1_2 C 0.1518(4) 0.8393(3) 0.1251(13) 0.0061 Uiso
C2_2 C 0.2071(6) 0.8799(4) 0.1986(15) 0.0177 Uiso
C3_2 C 0.1094(6) 0.7906(4) 0.2538(12) 0.0063 Uiso
C4_2 C 0.2464(5) 0.9233(3) 0.0328(13) 0.0076 Uiso
O1_2 O 0.0556(3) 0.7482(2) 0.1712(9) 0.0060 Uiso
O3_2 O 0.3027(3) 0.9480(2) 0.0659(8) 0.0065 Uiso
C5_2 C 0.1815(4) 0.8274(3) 0.5416(13) 0.0061 Uiso
C6_2 C 0.1262(6) 0.7868(4) 0.4681(15) 0.0177 Uiso
C7_2 C 0.2239(6) 0.8761(4) 0.4129(12) 0.0063 Uiso
C8_2 C 0.0869(5) 0.7434(3) 0.6339(13) 0.0076 Uiso
O4_2 O 0.2777(3) 0.9185(2) 0.4955(9) 0.0060 Uiso
O5_2 O 0.1076(3) 0.7331(2) 0.7966(10) 0.0144 Uiso
O6_2 O 0.0306(3) 0.7187(2) 0.6008(8) 0.0065 Uiso
Cu4_2 Cu 0.28008(9) 0.98469(7) 0.6576(2) 0.0110 Uiso
Cu8_2 Cu 0.34864(7) 0.96206(5) 0.3243(2) 0.0110 Uiso
O12_2 O 0.0214(4) 0.6360(3) 0.2674(8) 0.0065 Uiso
H2_2 H 0.19392 0.822676 0.703212 . .
O2_2 O 0.2257(3) 0.9336(2) 0.8701(10) 0.0144 Uiso
O8_2 O 0.0259(4) 0.6111(3) 0.8379(9) 0.0060 Uiso
H1_2 H 0.139413 0.843991 0.963455 . .
Cu1_2 Cu 0.98469(7) 0.70461(5) 0.3424(2) 0.0110 Uiso
Cu5_2 Cu 0.96206(9) 0.61341(5) 0.6757(2) 0.0110 Uiso
O7_2 O 0.9185(4) 0.6407(2) 0.5045(9) 0.0060 Uiso
O9_2 O 0.9336(4) 0.7079(2) 0.1299(10) 0.0144 Uiso
O11_2 O 0.9480(4) 0.6453(2) 0.9341(8) 0.0065 Uiso
Cu1_3 Cu 0.71992(5) 0.01531(7) 0.3424(2) 0.0110 Uiso
Cu5_3 Cu 0.65136(7) 0.03794(9) 0.6757(2) 0.0110 Uiso
O7_3 O 0.7223(3) 0.0815(4) 0.5045(9) 0.0060 Uiso
O9_3 O 0.7743(3) 0.0664(4) 0.1299(10) 0.0144 Uiso
O11_3 O 0.6973(3) 0.0520(4) 0.9341(8) 0.0065 Uiso
Cu7_3 Cu 0.62872(5) 0.94675(9) 0.0091(2) 0.0110 Uiso
C1_3 C 0.6875(3) 0.8482(4) 0.1251(13) 0.0061 Uiso
C2_3 C 0.6728(4) 0.7929(6) 0.1986(15) 0.0177 Uiso
C3_3 C 0.6812(4) 0.8906(6) 0.2538(12) 0.0063 Uiso
C4_3 C 0.6769(4) 0.7536(5) 0.0328(13) 0.0076 Uiso
O1_3 O 0.6926(2) 0.9444(3) 0.1712(9) 0.0060 Uiso
O3_3 O 0.6453(2) 0.6973(3) 0.0659(8) 0.0065 Uiso
C5_3 C 0.6458(3) 0.8185(4) 0.5416(13) 0.0061 Uiso
C6_3 C 0.6605(4) 0.8738(6) 0.4681(15) 0.0177 Uiso
C7_3 C 0.6521(4) 0.7761(6) 0.4129(12) 0.0063 Uiso
C8_3 C 0.6564(4) 0.9131(5) 0.6339(13) 0.0076 Uiso
O4_3 O 0.6407(2) 0.7223(3) 0.4955(9) 0.0060 Uiso
O5_3 O 0.6254(2) 0.8924(3) 0.7966(10) 0.0144 Uiso
O6_3 O 0.6880(2) 0.9694(3) 0.6008(8) 0.0065 Uiso
Cu4_3 Cu 0.70461(5) 0.71992(9) 0.6576(2) 0.0110 Uiso
Cu8_3 Cu 0.61341(5) 0.65136(7) 0.3243(2) 0.0110 Uiso
O12_3 O 0.6147(2) 0.9786(4) 0.2674(8) 0.0065 Uiso
H2_3 H 0.628756 0.80608 0.703212 . .
O2_3 O 0.7079(2) 0.7743(3) 0.8701(10) 0.0144 Uiso
Cu6_3 Cu 0.68198(7) 0.62872(9) 0.9909(2) 0.0110 Uiso
O8_3 O 0.5851(2) 0.9741(4) 0.8379(9) 0.0060 Uiso
H1_3 H 0.704578 0.860587 0.963455 . .
H2_4 H 0.843991 0.704578 0.0365451 . .
C1_4 C 0.8274(3) 0.6458(3) 0.4584(13) 0.0061 Uiso
C2_4 C 0.7868(4) 0.6605(4) 0.5319(15) 0.0177 Uiso
C3_4 C 0.8761(4) 0.6521(4) 0.5871(12) 0.0063 Uiso
C4_4 C 0.7434(3) 0.6564(4) 0.3661(13) 0.0076 Uiso
O2_4 O 0.7331(2) 0.6254(2) 0.2034(10) 0.0144 Uiso
O3_4 O 0.7187(2) 0.6880(2) 0.3992(8) 0.0065 Uiso
C5_4 C 0.8393(3) 0.6875(3) 0.8749(13) 0.0061 Uiso
C6_4 C 0.8799(4) 0.6728(4) 0.8014(15) 0.0177 Uiso
C7_4 C 0.7906(4) 0.6812(4) 0.7462(12) 0.0063 Uiso
C8_4 C 0.9233(3) 0.6769(4) 0.9672(13) 0.0076 Uiso
O4_4 O 0.7482(2) 0.6926(2) 0.8288(9) 0.0060 Uiso
O9_4 O 0.9588(2) 0.5590(3) 0.4632(10) 0.0144 Uiso
H1_4 H 0.822676 0.628756 0.296788 . .
H2_5 H 0.860587 0.156009 0.0365451 . .
C1_5 C 0.8185(4) 0.1726(3) 0.4584(13) 0.0061 Uiso
C2_5 C 0.8738(6) 0.2132(4) 0.5319(15) 0.0177 Uiso
C3_5 C 0.7761(6) 0.1239(4) 0.5871(12) 0.0063 Uiso
C4_5 C 0.9131(5) 0.2566(3) 0.3661(13) 0.0076 Uiso
O2_5 O 0.8924(3) 0.2669(2) 0.2034(10) 0.0144 Uiso
O3_5 O 0.9694(3) 0.2813(2) 0.3992(8) 0.0065 Uiso
C5_5 C 0.8482(4) 0.1607(3) 0.8749(13) 0.0061 Uiso
C6_5 C 0.7929(6) 0.1201(4) 0.8014(15) 0.0177 Uiso
C7_5 C 0.8906(6) 0.2094(4) 0.7462(12) 0.0063 Uiso
C8_5 C 0.7536(5) 0.0767(3) 0.9672(13) 0.0076 Uiso
O4_5 O 0.9444(3) 0.2518(2) 0.8288(9) 0.0060 Uiso
O9_5 O 0.6003(4) 0.0412(2) 0.4632(10) 0.0144 Uiso
H1_5 H 0.80608 0.177324 0.296788 . .
H2_6 H 0.295422 0.139413 0.0365451 . .
C1_6 C 0.3542(3) 0.1815(4) 0.4584(13) 0.0061 Uiso
C2_6 C 0.3395(4) 0.1262(6) 0.5319(15) 0.0177 Uiso
C3_6 C 0.3479(4) 0.2239(6) 0.5871(12) 0.0063 Uiso
C4_6 C 0.3436(4) 0.0869(5) 0.3661(13) 0.0076 Uiso
O2_6 O 0.3746(2) 0.1076(3) 0.2034(10) 0.0144 Uiso
O3_6 O 0.3120(2) 0.0306(3) 0.3992(8) 0.0065 Uiso
C5_6 C 0.3125(3) 0.1518(4) 0.8749(13) 0.0061 Uiso
C6_6 C 0.3272(4) 0.2071(6) 0.8014(15) 0.0177 Uiso
C7_6 C 0.3188(4) 0.1094(6) 0.7462(12) 0.0063 Uiso
C8_6 C 0.3231(4) 0.2464(5) 0.9672(13) 0.0076 Uiso
O4_6 O 0.3074(2) 0.0556(3) 0.8288(9) 0.0060 Uiso
O9_6 O 0.4410(3) 0.3997(4) 0.4632(10) 0.0144 Uiso
H1_6 H 0.371244 0.19392 0.296788 . .
C5_7 C 0.5060(3) 0.0208(3) 0.2082(13) 0.0061 Uiso
C6_7 C 0.5466(4) 0.0061(4) 0.1347(15) 0.0177 Uiso
C7_7 C 0.4573(4) 0.0145(4) 0.0795(12) 0.0063 Uiso
C8_7 C 0.5900(3) 0.0102(4) 0.3005(13) 0.0076 Uiso
O4_7 O 0.4149(2) 0.0259(2) 0.1621(9) 0.0060 Uiso
H2_7 H 0.510657 0.037911 0.369878 . .
O3_7 O 0.3853(2) 0.0214(2) 0.7326(8) 0.0065 Uiso
C1_7 C 0.4940(3) 0.9792(3) 0.7918(13) 0.0061 Uiso
C2_7 C 0.4534(4) 0.9939(4) 0.8653(15) 0.0177 Uiso
C3_7 C 0.5427(4) 0.9855(4) 0.9205(12) 0.0063 Uiso
C4_7 C 0.4100(3) 0.9898(4) 0.6995(13) 0.0076 Uiso
O2_7 O 0.3997(2) 0.9588(2) 0.5368(10) 0.0144 Uiso
H1_7 H 0.489343 0.962089 0.630122 . .
C5_8 C 0.5149(4) 0.4940(3) 0.2082(13) 0.0061 Uiso
C6_8 C 0.4596(6) 0.4534(4) 0.1347(15) 0.0177 Uiso
C7_8 C 0.5573(6) 0.5427(4) 0.0795(12) 0.0063 Uiso
C8_8 C 0.4203(5) 0.4100(3) 0.3005(13) 0.0076 Uiso
O4_8 O 0.6111(3) 0.5851(2) 0.1621(9) 0.0060 Uiso
H2_8 H 0.527254 0.489343 0.369878 . .
C1_8 C 0.4851(4) 0.5060(3) 0.7918(13) 0.0061 Uiso
C2_8 C 0.5404(6) 0.5466(4) 0.8653(15) 0.0177 Uiso
C3_8 C 0.4427(6) 0.4573(4) 0.9205(12) 0.0063 Uiso
C4_8 C 0.5797(5) 0.5900(3) 0.6995(13) 0.0076 Uiso
O2_8 O 0.5590(3) 0.6003(2) 0.5368(10) 0.0144 Uiso
O3_8 O 0.6360(3) 0.6147(2) 0.7326(8) 0.0065 Uiso
H1_8 H 0.472746 0.510657 0.630122 . .
C1_9 C 0.0208(3) 0.5149(4) 0.7918(13) 0.0061 Uiso
C2_9 C 0.0061(4) 0.4596(6) 0.8653(15) 0.0177 Uiso
C3_9 C 0.0145(4) 0.5573(6) 0.9205(12) 0.0063 Uiso
C4_9 C 0.0102(4) 0.4203(5) 0.6995(13) 0.0076 Uiso
O2_9 O 0.0412(2) 0.4410(3) 0.5368(10) 0.0144 Uiso
H1_9 H 0.037911 0.527254 0.630122 . .
C5_9 C 0.9792(3) 0.4851(4) 0.2082(13) 0.0061 Uiso
C6_9 C 0.9939(4) 0.5404(6) 0.1347(15) 0.0177 Uiso
C7_9 C 0.9855(4) 0.4427(6) 0.0795(12) 0.0063 Uiso
C8_9 C 0.9898(4) 0.5797(5) 0.3005(13) 0.0076 Uiso
O4_9 O 0.9741(2) 0.3889(3) 0.1621(9) 0.0060 Uiso
H2_9 H 0.962089 0.472746 0.369878 . .
O3_9 O 0.9786(2) 0.3640(3) 0.7326(8) 0.0065 Uiso
loop_
_geom_bond_atom_site_label_1
_geom_bond_atom_site_label_2
_geom_bond_site_symmetry_1
_geom_bond_site_symmetry_2
Cu1 O1 1_555 1_555
C1 C2 1_555 1_555
C2 C4 1_555 1_555
C3 C1 1_555 1_555
O1 C3 1_555 1_555
O3 C4 1_555 1_555
C5 C6 1_555 1_555
C6 C3 1_555 1_555
C7 C2 1_555 1_555
C8 C6 1_555 1_555
O4 C7 1_555 1_555
O5 C8 1_555 1_555
O6 Cu1 1_555 1_555
Cu7 O1 1_555 1_555
Cu4 O4 1_555 1_555
Cu5 O6 1_555 1_555
Cu8 O3 1_555 1_555
O7 Cu1 1_555 1_555
O9 Cu1 1_555 1_555
O12 Cu1 1_555 1_555
C5 C7 1_555 1_555
C8 O6 1_555 1_555
O4 Cu8 1_555 1_555
Cu7 O12 1_555 1_555
Cu5 O7 1_555 1_555
C5 H2 1_555 1_555
O2 Cu4 1_555 1_555
C1_2 C2_2 1_555 1_555
C2_2 C4_2 1_555 1_555
C3_2 C1_2 1_555 1_555
O1_2 C3_2 1_555 1_555
O3_2 C4_2 1_555 1_555
C5_2 C6_2 1_555 1_555
C6_2 C3_2 1_555 1_555
C7_2 C2_2 1_555 1_555
C8_2 C6_2 1_555 1_555
O4_2 C7_2 1_555 1_555
O5_2 C8_2 1_555 1_555
Cu7_2 O1_2 1_555 1_555
Cu4_2 O4_2 1_555 1_555
Cu8_2 O3_2 1_555 1_555
C5_2 C7_2 1_555 1_555
C8_2 O6_2 1_555 1_555
O4_2 Cu8_2 1_555 1_555
Cu7_2 O12_2 1_555 1_555
C5_2 H2_2 1_555 1_555
O2_2 Cu4_2 1_555 1_555
O7_2 Cu1_2 1_555 1_555
O9_2 Cu1_2 1_555 1_555
Cu5_2 O7_2 1_555 1_555
O7_3 Cu1_3 1_555 1_555
O9_3 Cu1_3 1_555 1_555
Cu5_3 O7_3 1_555 1_555
C1_3 C2_3 1_555 1_555
C2_3 C4_3 1_555 1_555
C3_3 C1_3 1_555 1_555
O1_3 C3_3 1_555 1_555
O3_3 C4_3 1_555 1_555
C5_3 C6_3 1_555 1_555
C6_3 C3_3 1_555 1_555
C7_3 C2_3 1_555 1_555
C8_3 C6_3 1_555 1_555
O4_3 C7_3 1_555 1_555
O5_3 C8_3 1_555 1_555
Cu7_3 O1_3 1_555 1_555
Cu4_3 O4_3 1_555 1_555
Cu8_3 O3_3 1_555 1_555
C5_3 C7_3 1_555 1_555
C8_3 O6_3 1_555 1_555
O4_3 Cu8_3 1_555 1_555
Cu7_3 O12_3 1_555 1_555
C5_3 H2_3 1_555 1_555
O2_3 Cu4_3 1_555 1_555
C1_4 C2_4 1_555 1_555
C2_4 C4_4 1_555 1_555
C3_4 C1_4 1_555 1_555
C4_4 O2_4 1_555 1_555
O7_2 C3_4 1_555 1_555
O3_4 C4_4 1_555 1_555
C5_4 C6_4 1_555 1_555
C6_4 C3_4 1_555 1_555
C7_4 C2_4 1_555 1_555
C8_4 C6_4 1_555 1_555
O4_4 C7_4 1_555 1_555
O11_2 Cu5_2 1_555 1_555
Cu6_3 O4_4 1_555 1_555
Cu8_3 O3_4 1_555 1_555
Cu4_3 O3_4 1_555 1_555
O9_4 Cu5_2 1_555 1_555
C5_4 C7_4 1_555 1_555
C8_4 O11_2 1_555 1_555
O4_4 Cu4_3 1_555 1_555
C1_4 H1_4 1_555 1_555
C1_5 C2_5 1_555 1_555
C2_5 C4_5 1_555 1_555
C3_5 C1_5 1_555 1_555
C4_5 O2_5 1_555 1_555
O7_3 C3_5 1_555 1_555
O3_5 C4_5 1_555 1_555
C5_5 C6_5 1_555 1_555
C6_5 C3_5 1_555 1_555
C7_5 C2_5 1_555 1_555
C8_5 C6_5 1_555 1_555
O4_5 C7_5 1_555 1_555
O11_3 Cu5_3 1_555 1_555
Cu6 O4_5 1_555 1_555
O9_5 Cu5_3 1_555 1_555
C5_5 C7_5 1_555 1_555
C8_5 O11_3 1_555 1_555
C1_5 H1_5 1_555 1_555
C1_6 C2_6 1_555 1_555
C2_6 C4_6 1_555 1_555
C3_6 C1_6 1_555 1_555
C4_6 O2_6 1_555 1_555
O7 C3_6 1_555 1_555
O3_6 C4_6 1_555 1_555
C5_6 C6_6 1_555 1_555
C6_6 C3_6 1_555 1_555
C7_6 C2_6 1_555 1_555
C8_6 C6_6 1_555 1_555
O4_6 C7_6 1_555 1_555
O11 Cu5 1_555 1_555
Cu6_2 O4_6 1_555 1_555
O8 Cu5 1_555 1_555
O9_6 Cu5 1_555 1_555
C5_6 C7_6 1_555 1_555
C8_6 O11 1_555 1_555
C1_6 H1_6 1_555 1_555
C5_7 C6_7 1_555 1_555
C8_7 C6_7 1_555 1_555
O4_7 C7_7 1_555 1_555
O9_5 C8_7 1_555 1_555
C5_7 C7_7 1_555 1_555
C5_7 H2_7 1_555 1_555
Cu6_2 O3_7 1_555 1_555
C1_7 C2_7 1_555 1_555
C2_7 C4_7 1_555 1_555
C3_7 C1_7 1_555 1_555
C4_7 O2_7 1_555 1_555
O8_3 C3_7 1_555 1_555
O2_7 Cu8_2 1_555 1_555
C1_7 H1_7 1_555 1_555
C5_8 C6_8 1_555 1_555
C8_8 C6_8 1_555 1_555
O4_8 C7_8 1_555 1_555
O9_6 C8_8 1_555 1_555
Cu8_3 O4_8 1_555 1_555
C5_8 C7_8 1_555 1_555
C8_8 O12 1_555 1_555
C5_8 H2_8 1_555 1_555
C1_8 C2_8 1_555 1_555
C2_8 C4_8 1_555 1_555
C3_8 C1_8 1_555 1_555
C4_8 O2_8 1_555 1_555
O8 C3_8 1_555 1_555
O2_8 Cu8_3 1_555 1_555
O3_8 C4_8 1_555 1_555
Cu4_3 O3_8 1_555 1_555
Cu6_3 O3_8 1_555 1_555
C1_8 H1_8 1_555 1_555
C1_9 C2_9 1_555 1_555
C2_9 C4_9 1_555 1_555
C3_9 C1_9 1_555 1_555
C4_9 O2_9 1_555 1_555
O8_2 C3_9 1_555 1_555
O2_9 Cu8 1_555 1_555
C1_9 H1_9 1_555 1_555
C5_9 C6_9 1_555 1_555
C8_9 C6_9 1_555 1_555
O4_9 C7_9 1_555 1_555
O9_4 C8_9 1_555 1_555
C5_9 C7_9 1_555 1_555
C5_9 H2_9 1_555 1_555
Cu6 O3_9 1_555 1_555

#END
