
###############################################################################
#
# This file contains modified crystal structure data generated from the
# MOF subset of the Cambridge Structural Database (CSD) v543 
# hosted by the Cambridge Crystallographic Data Centre (CCDC).
#
# This work is licensed under the Creative Commons
# Attribution-NonCommercial-ShareAlike 4.0 International License.
# To view a copy of this license, visit
# http://creativecommons.org/licenses/by-nc-sa/4.0/
# or send a letter to
# Creative Commons, PO Box 1866, Mountain View, CA 94042, USA.
#
# CIF created using the CSD Python API on 29 September 2022
# The structure has been converted into the P1 space group
# The structure has a 3D framework
# The original CSD entry MOKYAP22 is in the rhombohedral crystal system
# The framework has been calculated to contain at least 10.0% void space
# The void calculation uses a probe of radius 1.32A, grid spacing 0.4
# H atom positions have been added when not included in the experimental data
#
###############################################################################

data_MOKYAP22
_chemical_formula_moiety         '(C72 H18 Cu7 O44)n'
_symmetry_cell_setting           triclinic
_symmetry_space_group_name_H-M   'P 1'
_symmetry_Int_Tables_number      1
_space_group_name_Hall           'P 1'
loop_
_symmetry_equiv_pos_site_id
_symmetry_equiv_pos_as_xyz
1 x,y,z
_cell_length_a                   25.9195(3)
_cell_length_b                   25.9195(3)
_cell_length_c                   6.27220(7)
_cell_angle_alpha                90
_cell_angle_beta                 90
_cell_angle_gamma                120
_cell_volume                     3649.25
loop_
_atom_site_label
_atom_site_type_symbol
_atom_site_fract_x
_atom_site_fract_y
_atom_site_fract_z
_atom_site_U_iso_or_equiv
_atom_site_thermal_displace_type
Cu7 Cu 0.31802(7) 0.37145(5) 0.0092(2) 0.0087 Uiso
Cu1 Cu 0.29522(5) 0.27991(5) 0.3425(2) 0.0087 Uiso
C1 C 0.1608(3) 0.3132(3) 0.1246(13) 0.0071 Uiso
C2 C 0.1200(4) 0.3263(4) 0.1971(15) 0.0101 Uiso
C3 C 0.2090(3) 0.3189(4) 0.2568(12) 0.0051 Uiso
C4 C 0.0781(3) 0.3244(4) 0.0288(14) 0.0101 Uiso
O1 O 0.2513(2) 0.3070(2) 0.1717(10) 0.0048 Uiso
O3 O 0.0520(2) 0.3546(2) 0.0683(8) 0.0048 Uiso
C5 C 0.1725(3) 0.3535(3) 0.5421(13) 0.0071 Uiso
C6 C 0.2133(4) 0.3404(4) 0.4696(15) 0.0101 Uiso
C7 C 0.1243(3) 0.3478(4) 0.4099(12) 0.0051 Uiso
C8 C 0.2552(3) 0.3423(4) 0.6379(14) 0.0101 Uiso
O4 O 0.0820(2) 0.3597(2) 0.4950(10) 0.0048 Uiso
O5 O 0.2671(2) 0.3749(2) 0.7961(9) 0.0106 Uiso
O6 O 0.2813(2) 0.3121(2) 0.5984(8) 0.0048 Uiso
Cu4 Cu 0.01531(7) 0.29522(5) 0.6575(2) 0.0087 Uiso
Cu5 Cu 0.38676(5) 0.34864(7) 0.6758(2) 0.0087 Uiso
Cu8 Cu 0.03811(5) 0.38676(5) 0.3242(2) 0.0087 Uiso
O7 O 0.3597(2) 0.2776(3) 0.5050(10) 0.0048 Uiso
O9 O 0.2918(2) 0.2256(3) 0.1294(9) 0.0106 Uiso
O12 O 0.3641(3) 0.3853(2) 0.2650(8) 0.0048 Uiso
H2 H 0.175861 0.368879 0.705699 . .
O2 O 0.0662(2) 0.2918(2) 0.8706(9) 0.0106 Uiso
O8 O 0.3890(3) 0.4154(2) 0.8384(10) 0.0048 Uiso
O11 O 0.3546(2) 0.3026(3) 0.9317(8) 0.0048 Uiso
H1 H 0.157472 0.297788 0.960968 . .
Cu6 Cu 0.94658(5) 0.31802(7) 0.9908(2) 0.0087 Uiso
Cu6_2 Cu 0.37145(9) 0.05342(5) 0.9908(2) 0.0087 Uiso
Cu7_2 Cu 0.05342(9) 0.68198(7) 0.0092(2) 0.0087 Uiso
C1_2 C 0.1524(4) 0.8392(3) 0.1246(13) 0.0071 Uiso
C2_2 C 0.2063(6) 0.8800(4) 0.1971(15) 0.0101 Uiso
C3_2 C 0.1099(5) 0.7910(3) 0.2568(12) 0.0051 Uiso
C4_2 C 0.2463(5) 0.9219(3) 0.0288(14) 0.0101 Uiso
O1_2 O 0.0557(3) 0.7487(2) 0.1717(10) 0.0048 Uiso
O3_2 O 0.3026(3) 0.9480(2) 0.0683(8) 0.0048 Uiso
C5_2 C 0.1809(4) 0.8275(3) 0.5421(13) 0.0071 Uiso
C6_2 C 0.1270(6) 0.7867(4) 0.4696(15) 0.0101 Uiso
C7_2 C 0.2234(5) 0.8757(3) 0.4099(12) 0.0051 Uiso
C8_2 C 0.0870(5) 0.7448(3) 0.6379(14) 0.0101 Uiso
O4_2 O 0.2776(3) 0.9180(2) 0.4950(10) 0.0048 Uiso
O5_2 O 0.1077(3) 0.7329(2) 0.7961(9) 0.0106 Uiso
O6_2 O 0.0307(3) 0.7187(2) 0.5984(8) 0.0048 Uiso
Cu4_2 Cu 0.27991(9) 0.98469(7) 0.6575(2) 0.0087 Uiso
Cu8_2 Cu 0.34864(7) 0.96189(5) 0.3242(2) 0.0087 Uiso
O12_2 O 0.0213(4) 0.6359(3) 0.2650(8) 0.0048 Uiso
H2_2 H 0.193017 0.824139 0.705699 . .
O2_2 O 0.2256(3) 0.9338(2) 0.8706(9) 0.0106 Uiso
O8_2 O 0.0263(4) 0.6110(3) 0.8384(10) 0.0048 Uiso
H1_2 H 0.140316 0.842528 0.960968 . .
Cu1_2 Cu 0.98469(7) 0.70478(5) 0.3425(2) 0.0087 Uiso
Cu5_2 Cu 0.96189(9) 0.61324(5) 0.6758(2) 0.0087 Uiso
O7_2 O 0.9180(4) 0.6403(2) 0.5050(10) 0.0048 Uiso
O9_2 O 0.9338(4) 0.7082(2) 0.1294(9) 0.0106 Uiso
O11_2 O 0.9480(4) 0.6454(2) 0.9317(8) 0.0048 Uiso
Cu1_3 Cu 0.72009(5) 0.01531(7) 0.3425(2) 0.0087 Uiso
Cu5_3 Cu 0.65136(7) 0.03811(9) 0.6758(2) 0.0087 Uiso
O7_3 O 0.7224(3) 0.0820(4) 0.5050(10) 0.0048 Uiso
O9_3 O 0.7744(3) 0.0662(4) 0.1294(9) 0.0106 Uiso
O11_3 O 0.6974(3) 0.0520(4) 0.9317(8) 0.0048 Uiso
Cu7_3 Cu 0.62855(5) 0.94658(9) 0.0092(2) 0.0087 Uiso
C1_3 C 0.6868(3) 0.8476(4) 0.1246(13) 0.0071 Uiso
C2_3 C 0.6737(4) 0.7937(6) 0.1971(15) 0.0101 Uiso
C3_3 C 0.6811(4) 0.8901(5) 0.2568(12) 0.0051 Uiso
C4_3 C 0.6756(4) 0.7537(5) 0.0288(14) 0.0101 Uiso
O1_3 O 0.6930(2) 0.9443(3) 0.1717(10) 0.0048 Uiso
O3_3 O 0.6454(2) 0.6974(3) 0.0683(8) 0.0048 Uiso
C5_3 C 0.6465(3) 0.8191(4) 0.5421(13) 0.0071 Uiso
C6_3 C 0.6596(4) 0.8730(6) 0.4696(15) 0.0101 Uiso
C7_3 C 0.6522(4) 0.7766(5) 0.4099(12) 0.0051 Uiso
C8_3 C 0.6577(4) 0.9130(5) 0.6379(14) 0.0101 Uiso
O4_3 O 0.6403(2) 0.7224(3) 0.4950(10) 0.0048 Uiso
O5_3 O 0.6251(2) 0.8923(3) 0.7961(9) 0.0106 Uiso
O6_3 O 0.6879(2) 0.9693(3) 0.5984(8) 0.0048 Uiso
Cu4_3 Cu 0.70478(5) 0.72009(9) 0.6575(2) 0.0087 Uiso
Cu8_3 Cu 0.61324(5) 0.65136(7) 0.3242(2) 0.0087 Uiso
O12_3 O 0.6147(2) 0.9787(4) 0.2650(8) 0.0048 Uiso
H2_3 H 0.631121 0.806983 0.705699 . .
O2_3 O 0.7082(2) 0.7744(3) 0.8706(9) 0.0106 Uiso
Cu6_3 Cu 0.68198(7) 0.62855(9) 0.9908(2) 0.0087 Uiso
O8_3 O 0.5846(2) 0.9737(4) 0.8384(10) 0.0048 Uiso
H1_3 H 0.702212 0.859684 0.960968 . .
H2_4 H 0.842528 0.702212 0.039032 . .
C1_4 C 0.8275(3) 0.6465(3) 0.4579(13) 0.0071 Uiso
C2_4 C 0.7867(4) 0.6596(4) 0.5304(15) 0.0101 Uiso
C3_4 C 0.8757(3) 0.6522(4) 0.5901(12) 0.0051 Uiso
C4_4 C 0.7448(3) 0.6577(4) 0.3621(14) 0.0101 Uiso
O2_4 O 0.7329(2) 0.6251(2) 0.2039(9) 0.0106 Uiso
O3_4 O 0.7187(2) 0.6879(2) 0.4016(8) 0.0048 Uiso
C5_4 C 0.8392(3) 0.6868(3) 0.8754(13) 0.0071 Uiso
C6_4 C 0.8800(4) 0.6737(4) 0.8029(15) 0.0101 Uiso
C7_4 C 0.7910(3) 0.6811(4) 0.7432(12) 0.0051 Uiso
C8_4 C 0.9219(3) 0.6756(4) 0.9712(14) 0.0101 Uiso
O4_4 O 0.7487(2) 0.6930(2) 0.8283(10) 0.0048 Uiso
O9_4 O 0.9585(2) 0.5589(3) 0.4627(9) 0.0106 Uiso
H1_4 H 0.824139 0.631121 0.294301 . .
H2_5 H 0.859684 0.157472 0.039032 . .
C1_5 C 0.8191(4) 0.1725(3) 0.4579(13) 0.0071 Uiso
C2_5 C 0.8730(6) 0.2133(4) 0.5304(15) 0.0101 Uiso
C3_5 C 0.7766(5) 0.1243(3) 0.5901(12) 0.0051 Uiso
C4_5 C 0.9130(5) 0.2552(3) 0.3621(14) 0.0101 Uiso
O2_5 O 0.8923(3) 0.2671(2) 0.2039(9) 0.0106 Uiso
O3_5 O 0.9693(3) 0.2813(2) 0.4016(8) 0.0048 Uiso
C5_5 C 0.8476(4) 0.1608(3) 0.8754(13) 0.0071 Uiso
C6_5 C 0.7937(6) 0.1200(4) 0.8029(15) 0.0101 Uiso
C7_5 C 0.8901(5) 0.2090(3) 0.7432(12) 0.0051 Uiso
C8_5 C 0.7537(5) 0.0781(3) 0.9712(14) 0.0101 Uiso
O4_5 O 0.9443(3) 0.2513(2) 0.8283(10) 0.0048 Uiso
O9_5 O 0.6005(4) 0.0415(2) 0.4627(9) 0.0106 Uiso
H1_5 H 0.806983 0.175861 0.294301 . .
H2_6 H 0.297788 0.140316 0.039032 . .
C1_6 C 0.3535(3) 0.1809(4) 0.4579(13) 0.0071 Uiso
C2_6 C 0.3404(4) 0.1270(6) 0.5304(15) 0.0101 Uiso
C3_6 C 0.3478(4) 0.2234(5) 0.5901(12) 0.0051 Uiso
C4_6 C 0.3423(4) 0.0870(5) 0.3621(14) 0.0101 Uiso
O2_6 O 0.3749(2) 0.1077(3) 0.2039(9) 0.0106 Uiso
O3_6 O 0.3121(2) 0.0307(3) 0.4016(8) 0.0048 Uiso
C5_6 C 0.3132(3) 0.1524(4) 0.8754(13) 0.0071 Uiso
C6_6 C 0.3263(4) 0.2063(6) 0.8029(15) 0.0101 Uiso
C7_6 C 0.3189(4) 0.1099(5) 0.7432(12) 0.0051 Uiso
C8_6 C 0.3244(4) 0.2463(5) 0.9712(14) 0.0101 Uiso
O4_6 O 0.3070(2) 0.0557(3) 0.8283(10) 0.0048 Uiso
O9_6 O 0.4411(3) 0.3995(4) 0.4627(9) 0.0106 Uiso
H1_6 H 0.368879 0.193017 0.294301 . .
C5_7 C 0.5059(3) 0.0201(3) 0.2087(13) 0.0071 Uiso
C6_7 C 0.5467(4) 0.0070(4) 0.1362(15) 0.0101 Uiso
C7_7 C 0.4577(3) 0.0144(4) 0.0765(12) 0.0051 Uiso
C8_7 C 0.5886(3) 0.0089(4) 0.3045(14) 0.0101 Uiso
O4_7 O 0.4154(2) 0.0263(2) 0.1616(10) 0.0048 Uiso
H2_7 H 0.509195 0.0355454 0.372365 . .
O3_7 O 0.3853(2) 0.0213(2) 0.7350(8) 0.0048 Uiso
C1_7 C 0.4941(3) 0.9799(3) 0.7913(13) 0.0071 Uiso
C2_7 C 0.4533(4) 0.9930(4) 0.8638(15) 0.0101 Uiso
C3_7 C 0.5423(3) 0.9856(4) 0.9235(12) 0.0051 Uiso
C4_7 C 0.4114(3) 0.9911(4) 0.6955(14) 0.0101 Uiso
O2_7 O 0.3995(2) 0.9585(2) 0.5373(9) 0.0106 Uiso
H1_7 H 0.490805 0.964455 0.627635 . .
C5_8 C 0.5143(4) 0.4941(3) 0.2087(13) 0.0071 Uiso
C6_8 C 0.4604(6) 0.4533(4) 0.1362(15) 0.0101 Uiso
C7_8 C 0.5568(5) 0.5423(3) 0.0765(12) 0.0051 Uiso
C8_8 C 0.4204(5) 0.4114(3) 0.3045(14) 0.0101 Uiso
O4_8 O 0.6110(3) 0.5846(2) 0.1616(10) 0.0048 Uiso
H2_8 H 0.526351 0.490805 0.372365 . .
C1_8 C 0.4857(4) 0.5059(3) 0.7913(13) 0.0071 Uiso
C2_8 C 0.5396(6) 0.5467(4) 0.8638(15) 0.0101 Uiso
C3_8 C 0.4432(5) 0.4577(3) 0.9235(12) 0.0051 Uiso
C4_8 C 0.5796(5) 0.5886(3) 0.6955(14) 0.0101 Uiso
O2_8 O 0.5589(3) 0.6005(2) 0.5373(9) 0.0106 Uiso
O3_8 O 0.6359(3) 0.6147(2) 0.7350(8) 0.0048 Uiso
H1_8 H 0.473649 0.509195 0.627635 . .
C1_9 C 0.0201(3) 0.5143(4) 0.7913(13) 0.0071 Uiso
C2_9 C 0.0070(4) 0.4604(6) 0.8638(15) 0.0101 Uiso
C3_9 C 0.0144(4) 0.5568(5) 0.9235(12) 0.0051 Uiso
C4_9 C 0.0089(4) 0.4204(5) 0.6955(14) 0.0101 Uiso
O2_9 O 0.0415(2) 0.4411(3) 0.5373(9) 0.0106 Uiso
H1_9 H 0.0355454 0.526351 0.627635 . .
C5_9 C 0.9799(3) 0.4857(4) 0.2087(13) 0.0071 Uiso
C6_9 C 0.9930(4) 0.5396(6) 0.1362(15) 0.0101 Uiso
C7_9 C 0.9856(4) 0.4432(5) 0.0765(12) 0.0051 Uiso
C8_9 C 0.9911(4) 0.5796(5) 0.3045(14) 0.0101 Uiso
O4_9 O 0.9737(2) 0.3890(3) 0.1616(10) 0.0048 Uiso
H2_9 H 0.964455 0.473649 0.372365 . .
O3_9 O 0.9787(2) 0.3641(3) 0.7350(8) 0.0048 Uiso
loop_
_geom_bond_atom_site_label_1
_geom_bond_atom_site_label_2
_geom_bond_site_symmetry_1
_geom_bond_site_symmetry_2
Cu1 O1 1_555 1_555
C1 C2 1_555 1_555
C2 C4 1_555 1_555
C3 C1 1_555 1_555
O1 C3 1_555 1_555
O3 C4 1_555 1_555
C5 C6 1_555 1_555
C6 C3 1_555 1_555
C7 C2 1_555 1_555
C8 C6 1_555 1_555
O4 C7 1_555 1_555
O5 C8 1_555 1_555
O6 Cu1 1_555 1_555
Cu7 O1 1_555 1_555
Cu4 O4 1_555 1_555
Cu5 O6 1_555 1_555
Cu8 O3 1_555 1_555
O7 Cu1 1_555 1_555
O9 Cu1 1_555 1_555
O12 Cu1 1_555 1_555
C5 C7 1_555 1_555
C8 O6 1_555 1_555
O4 Cu8 1_555 1_555
Cu7 O12 1_555 1_555
Cu5 O7 1_555 1_555
C5 H2 1_555 1_555
O2 Cu4 1_555 1_555
C1_2 C2_2 1_555 1_555
C2_2 C4_2 1_555 1_555
C3_2 C1_2 1_555 1_555
O1_2 C3_2 1_555 1_555
O3_2 C4_2 1_555 1_555
C5_2 C6_2 1_555 1_555
C6_2 C3_2 1_555 1_555
C7_2 C2_2 1_555 1_555
C8_2 C6_2 1_555 1_555
O4_2 C7_2 1_555 1_555
O5_2 C8_2 1_555 1_555
Cu7_2 O1_2 1_555 1_555
Cu4_2 O4_2 1_555 1_555
Cu8_2 O3_2 1_555 1_555
C5_2 C7_2 1_555 1_555
C8_2 O6_2 1_555 1_555
O4_2 Cu8_2 1_555 1_555
Cu7_2 O12_2 1_555 1_555
C5_2 H2_2 1_555 1_555
O2_2 Cu4_2 1_555 1_555
O7_2 Cu1_2 1_555 1_555
O9_2 Cu1_2 1_555 1_555
Cu5_2 O7_2 1_555 1_555
O7_3 Cu1_3 1_555 1_555
O9_3 Cu1_3 1_555 1_555
Cu5_3 O7_3 1_555 1_555
C1_3 C2_3 1_555 1_555
C2_3 C4_3 1_555 1_555
C3_3 C1_3 1_555 1_555
O1_3 C3_3 1_555 1_555
O3_3 C4_3 1_555 1_555
C5_3 C6_3 1_555 1_555
C6_3 C3_3 1_555 1_555
C7_3 C2_3 1_555 1_555
C8_3 C6_3 1_555 1_555
O4_3 C7_3 1_555 1_555
O5_3 C8_3 1_555 1_555
Cu7_3 O1_3 1_555 1_555
Cu4_3 O4_3 1_555 1_555
Cu8_3 O3_3 1_555 1_555
C5_3 C7_3 1_555 1_555
C8_3 O6_3 1_555 1_555
O4_3 Cu8_3 1_555 1_555
Cu7_3 O12_3 1_555 1_555
C5_3 H2_3 1_555 1_555
O2_3 Cu4_3 1_555 1_555
C1_4 C2_4 1_555 1_555
C2_4 C4_4 1_555 1_555
C3_4 C1_4 1_555 1_555
C4_4 O2_4 1_555 1_555
O7_2 C3_4 1_555 1_555
O3_4 C4_4 1_555 1_555
C5_4 C6_4 1_555 1_555
C6_4 C3_4 1_555 1_555
C7_4 C2_4 1_555 1_555
C8_4 C6_4 1_555 1_555
O4_4 C7_4 1_555 1_555
O11_2 Cu5_2 1_555 1_555
Cu6_3 O4_4 1_555 1_555
Cu8_3 O3_4 1_555 1_555
Cu4_3 O3_4 1_555 1_555
O9_4 Cu5_2 1_555 1_555
C5_4 C7_4 1_555 1_555
C8_4 O11_2 1_555 1_555
O4_4 Cu4_3 1_555 1_555
C1_4 H1_4 1_555 1_555
C1_5 C2_5 1_555 1_555
C2_5 C4_5 1_555 1_555
C3_5 C1_5 1_555 1_555
C4_5 O2_5 1_555 1_555
O7_3 C3_5 1_555 1_555
O3_5 C4_5 1_555 1_555
C5_5 C6_5 1_555 1_555
C6_5 C3_5 1_555 1_555
C7_5 C2_5 1_555 1_555
C8_5 C6_5 1_555 1_555
O4_5 C7_5 1_555 1_555
O11_3 Cu5_3 1_555 1_555
Cu6 O4_5 1_555 1_555
O9_5 Cu5_3 1_555 1_555
C5_5 C7_5 1_555 1_555
C8_5 O11_3 1_555 1_555
C1_5 H1_5 1_555 1_555
C1_6 C2_6 1_555 1_555
C2_6 C4_6 1_555 1_555
C3_6 C1_6 1_555 1_555
C4_6 O2_6 1_555 1_555
O7 C3_6 1_555 1_555
O3_6 C4_6 1_555 1_555
C5_6 C6_6 1_555 1_555
C6_6 C3_6 1_555 1_555
C7_6 C2_6 1_555 1_555
C8_6 C6_6 1_555 1_555
O4_6 C7_6 1_555 1_555
O11 Cu5 1_555 1_555
Cu6_2 O4_6 1_555 1_555
O8 Cu5 1_555 1_555
O9_6 Cu5 1_555 1_555
C5_6 C7_6 1_555 1_555
C8_6 O11 1_555 1_555
C1_6 H1_6 1_555 1_555
C5_7 C6_7 1_555 1_555
C8_7 C6_7 1_555 1_555
O4_7 C7_7 1_555 1_555
O9_5 C8_7 1_555 1_555
C5_7 C7_7 1_555 1_555
C5_7 H2_7 1_555 1_555
Cu6_2 O3_7 1_555 1_555
C1_7 C2_7 1_555 1_555
C2_7 C4_7 1_555 1_555
C3_7 C1_7 1_555 1_555
C4_7 O2_7 1_555 1_555
O8_3 C3_7 1_555 1_555
O2_7 Cu8_2 1_555 1_555
C1_7 H1_7 1_555 1_555
C5_8 C6_8 1_555 1_555
C8_8 C6_8 1_555 1_555
O4_8 C7_8 1_555 1_555
O9_6 C8_8 1_555 1_555
Cu8_3 O4_8 1_555 1_555
C5_8 C7_8 1_555 1_555
C8_8 O12 1_555 1_555
C5_8 H2_8 1_555 1_555
C1_8 C2_8 1_555 1_555
C2_8 C4_8 1_555 1_555
C3_8 C1_8 1_555 1_555
C4_8 O2_8 1_555 1_555
O8 C3_8 1_555 1_555
O2_8 Cu8_3 1_555 1_555
O3_8 C4_8 1_555 1_555
Cu4_3 O3_8 1_555 1_555
Cu6_3 O3_8 1_555 1_555
C1_8 H1_8 1_555 1_555
C1_9 C2_9 1_555 1_555
C2_9 C4_9 1_555 1_555
C3_9 C1_9 1_555 1_555
C4_9 O2_9 1_555 1_555
O8_2 C3_9 1_555 1_555
O2_9 Cu8 1_555 1_555
C1_9 H1_9 1_555 1_555
C5_9 C6_9 1_555 1_555
C8_9 C6_9 1_555 1_555
O4_9 C7_9 1_555 1_555
O9_4 C8_9 1_555 1_555
C5_9 C7_9 1_555 1_555
C5_9 H2_9 1_555 1_555
Cu6 O3_9 1_555 1_555

#END
