
###############################################################################
#
# This file contains modified crystal structure data generated from the
# MOF subset of the Cambridge Structural Database (CSD) v543 
# hosted by the Cambridge Crystallographic Data Centre (CCDC).
#
# This work is licensed under the Creative Commons
# Attribution-NonCommercial-ShareAlike 4.0 International License.
# To view a copy of this license, visit
# http://creativecommons.org/licenses/by-nc-sa/4.0/
# or send a letter to
# Creative Commons, PO Box 1866, Mountain View, CA 94042, USA.
#
# CIF created using the CSD Python API on 29 September 2022
# The structure has been converted into the P1 space group
# The structure has a 3D framework
# The original CSD entry MOKYAP56 is in the rhombohedral crystal system
# The framework has been calculated to contain at least 10.0% void space
# The void calculation uses a probe of radius 1.32A, grid spacing 0.4
# H atom positions have been added when not included in the experimental data
#
###############################################################################

data_MOKYAP56
_chemical_formula_moiety         '(C72 H18 Cu7 O44)n'
_symmetry_cell_setting           triclinic
_symmetry_space_group_name_H-M   'P 1'
_symmetry_Int_Tables_number      1
_space_group_name_Hall           'P 1'
loop_
_symmetry_equiv_pos_site_id
_symmetry_equiv_pos_as_xyz
1 x,y,z
_cell_length_a                   25.9155(3)
_cell_length_b                   25.9155(3)
_cell_length_c                   6.27442(7)
_cell_angle_alpha                90
_cell_angle_beta                 90
_cell_angle_gamma                120
_cell_volume                     3649.42
loop_
_atom_site_label
_atom_site_type_symbol
_atom_site_fract_x
_atom_site_fract_y
_atom_site_fract_z
_atom_site_U_iso_or_equiv
_atom_site_thermal_displace_type
Cu7 Cu 0.31801(7) 0.37132(5) 0.0091(2) 0.0103 Uiso
Cu1 Cu 0.29535(5) 0.28003(5) 0.3424(2) 0.0103 Uiso
C1 C 0.1612(3) 0.3130(3) 0.1238(13) 0.0071 Uiso
C2 C 0.1201(4) 0.3268(4) 0.1979(15) 0.0165 Uiso
C3 C 0.2092(3) 0.3190(4) 0.2565(12) 0.0051 Uiso
C4 C 0.0771(3) 0.3239(4) 0.0307(13) 0.0089 Uiso
O1 O 0.2518(2) 0.3075(2) 0.1702(9) 0.0051 Uiso
O3 O 0.0520(2) 0.3546(2) 0.0677(8) 0.0053 Uiso
C5 C 0.1721(3) 0.3537(3) 0.5429(13) 0.0071 Uiso
C6 C 0.2132(4) 0.3399(4) 0.4688(15) 0.0165 Uiso
C7 C 0.1241(3) 0.3477(4) 0.4102(12) 0.0051 Uiso
C8 C 0.2562(3) 0.3428(4) 0.6360(13) 0.0089 Uiso
O4 O 0.0815(2) 0.3592(2) 0.4965(9) 0.0051 Uiso
O5 O 0.2668(2) 0.3748(2) 0.7966(9) 0.0124 Uiso
O6 O 0.2813(2) 0.3121(2) 0.5990(8) 0.0053 Uiso
Cu4 Cu 0.01532(7) 0.29535(5) 0.6576(2) 0.0103 Uiso
Cu5 Cu 0.38664(5) 0.34865(7) 0.6757(2) 0.0103 Uiso
Cu8 Cu 0.03798(5) 0.38664(5) 0.3243(2) 0.0103 Uiso
O7 O 0.3592(2) 0.2776(3) 0.5035(9) 0.0051 Uiso
O9 O 0.2919(2) 0.2254(3) 0.1299(9) 0.0124 Uiso
O12 O 0.3641(3) 0.3853(2) 0.2656(8) 0.0053 Uiso
H2 H 0.175705 0.369559 0.705856 . .
O2 O 0.0665(2) 0.2919(2) 0.8701(9) 0.0124 Uiso
O8 O 0.3890(3) 0.4149(2) 0.8369(9) 0.0051 Uiso
O11 O 0.3546(2) 0.3026(3) 0.9323(8) 0.0053 Uiso
H1 H 0.157629 0.297107 0.960811 . .
Cu6 Cu 0.94670(5) 0.31801(7) 0.9909(2) 0.0103 Uiso
Cu6_2 Cu 0.37132(9) 0.05330(5) 0.9909(2) 0.0103 Uiso
Cu7_2 Cu 0.05330(9) 0.68199(7) 0.0091(2) 0.0103 Uiso
C1_2 C 0.1518(4) 0.8388(3) 0.1238(13) 0.0071 Uiso
C2_2 C 0.2067(6) 0.8799(4) 0.1979(15) 0.0165 Uiso
C3_2 C 0.1098(5) 0.7908(3) 0.2565(12) 0.0051 Uiso
C4_2 C 0.2468(5) 0.9229(3) 0.0307(13) 0.0089 Uiso
O1_2 O 0.0557(3) 0.7482(2) 0.1702(9) 0.0051 Uiso
O3_2 O 0.3026(3) 0.9480(2) 0.0677(8) 0.0053 Uiso
C5_2 C 0.1815(4) 0.8279(3) 0.5429(13) 0.0071 Uiso
C6_2 C 0.1266(6) 0.7868(4) 0.4688(15) 0.0165 Uiso
C7_2 C 0.2235(5) 0.8759(3) 0.4102(12) 0.0051 Uiso
C8_2 C 0.0865(5) 0.7438(3) 0.6360(13) 0.0089 Uiso
O4_2 O 0.2776(3) 0.9185(2) 0.4965(9) 0.0051 Uiso
O5_2 O 0.1079(3) 0.7332(2) 0.7966(9) 0.0124 Uiso
O6_2 O 0.0307(3) 0.7187(2) 0.5990(8) 0.0053 Uiso
Cu4_2 Cu 0.28003(9) 0.98468(7) 0.6576(2) 0.0103 Uiso
Cu8_2 Cu 0.34865(7) 0.96202(5) 0.3243(2) 0.0103 Uiso
O12_2 O 0.0213(4) 0.6359(3) 0.2656(8) 0.0053 Uiso
H2_2 H 0.193855 0.824295 0.705856 . .
O2_2 O 0.2254(3) 0.9335(2) 0.8701(9) 0.0124 Uiso
O8_2 O 0.0258(4) 0.6110(3) 0.8369(9) 0.0051 Uiso
H1_2 H 0.139479 0.842371 0.960811 . .
Cu1_2 Cu 0.98468(7) 0.70465(5) 0.3424(2) 0.0103 Uiso
Cu5_2 Cu 0.96202(9) 0.61336(5) 0.6757(2) 0.0103 Uiso
O7_2 O 0.9185(4) 0.6408(2) 0.5035(9) 0.0051 Uiso
O9_2 O 0.9335(4) 0.7081(2) 0.1299(9) 0.0124 Uiso
O11_2 O 0.9480(4) 0.6454(2) 0.9323(8) 0.0053 Uiso
Cu1_3 Cu 0.71997(5) 0.01532(7) 0.3424(2) 0.0103 Uiso
Cu5_3 Cu 0.65135(7) 0.03798(9) 0.6757(2) 0.0103 Uiso
O7_3 O 0.7224(3) 0.0815(4) 0.5035(9) 0.0051 Uiso
O9_3 O 0.7746(3) 0.0665(4) 0.1299(9) 0.0124 Uiso
O11_3 O 0.6974(3) 0.0520(4) 0.9323(8) 0.0053 Uiso
Cu7_3 Cu 0.62868(5) 0.94670(9) 0.0091(2) 0.0103 Uiso
C1_3 C 0.6870(3) 0.8482(4) 0.1238(13) 0.0071 Uiso
C2_3 C 0.6732(4) 0.7933(6) 0.1979(15) 0.0165 Uiso
C3_3 C 0.6810(4) 0.8902(5) 0.2565(12) 0.0051 Uiso
C4_3 C 0.6761(4) 0.7532(5) 0.0307(13) 0.0089 Uiso
O1_3 O 0.6925(2) 0.9443(3) 0.1702(9) 0.0051 Uiso
O3_3 O 0.6454(2) 0.6974(3) 0.0677(8) 0.0053 Uiso
C5_3 C 0.6463(3) 0.8185(4) 0.5429(13) 0.0071 Uiso
C6_3 C 0.6601(4) 0.8734(6) 0.4688(15) 0.0165 Uiso
C7_3 C 0.6523(4) 0.7765(5) 0.4102(12) 0.0051 Uiso
C8_3 C 0.6572(4) 0.9135(5) 0.6360(13) 0.0089 Uiso
O4_3 O 0.6408(2) 0.7224(3) 0.4965(9) 0.0051 Uiso
O5_3 O 0.6252(2) 0.8921(3) 0.7966(9) 0.0124 Uiso
O6_3 O 0.6879(2) 0.9693(3) 0.5990(8) 0.0053 Uiso
Cu4_3 Cu 0.70465(5) 0.71997(9) 0.6576(2) 0.0103 Uiso
Cu8_3 Cu 0.61336(5) 0.65135(7) 0.3243(2) 0.0103 Uiso
O12_3 O 0.6147(2) 0.9787(4) 0.2656(8) 0.0053 Uiso
H2_3 H 0.630441 0.806145 0.705856 . .
O2_3 O 0.7081(2) 0.7746(3) 0.8701(9) 0.0124 Uiso
Cu6_3 Cu 0.68199(7) 0.62868(9) 0.9909(2) 0.0103 Uiso
O8_3 O 0.5851(2) 0.9742(4) 0.8369(9) 0.0051 Uiso
H1_3 H 0.702893 0.860521 0.960811 . .
H2_4 H 0.842371 0.702893 0.0391893 . .
C1_4 C 0.8279(3) 0.6463(3) 0.4571(13) 0.0071 Uiso
C2_4 C 0.7868(4) 0.6601(4) 0.5312(15) 0.0165 Uiso
C3_4 C 0.8759(3) 0.6523(4) 0.5898(12) 0.0051 Uiso
C4_4 C 0.7438(3) 0.6572(4) 0.3640(13) 0.0089 Uiso
O2_4 O 0.7332(2) 0.6252(2) 0.2034(9) 0.0124 Uiso
O3_4 O 0.7187(2) 0.6879(2) 0.4010(8) 0.0053 Uiso
C5_4 C 0.8388(3) 0.6870(3) 0.8762(13) 0.0071 Uiso
C6_4 C 0.8799(4) 0.6732(4) 0.8021(15) 0.0165 Uiso
C7_4 C 0.7908(3) 0.6810(4) 0.7435(12) 0.0051 Uiso
C8_4 C 0.9229(3) 0.6761(4) 0.9693(13) 0.0089 Uiso
O4_4 O 0.7482(2) 0.6925(2) 0.8298(9) 0.0051 Uiso
O9_4 O 0.9586(2) 0.5587(3) 0.4632(9) 0.0124 Uiso
H1_4 H 0.824295 0.630441 0.294144 . .
H2_5 H 0.860521 0.157629 0.0391893 . .
C1_5 C 0.8185(4) 0.1721(3) 0.4571(13) 0.0071 Uiso
C2_5 C 0.8734(6) 0.2132(4) 0.5312(15) 0.0165 Uiso
C3_5 C 0.7765(5) 0.1241(3) 0.5898(12) 0.0051 Uiso
C4_5 C 0.9135(5) 0.2562(3) 0.3640(13) 0.0089 Uiso
O2_5 O 0.8921(3) 0.2668(2) 0.2034(9) 0.0124 Uiso
O3_5 O 0.9693(3) 0.2813(2) 0.4010(8) 0.0053 Uiso
C5_5 C 0.8482(4) 0.1612(3) 0.8762(13) 0.0071 Uiso
C6_5 C 0.7933(6) 0.1201(4) 0.8021(15) 0.0165 Uiso
C7_5 C 0.8902(5) 0.2092(3) 0.7435(12) 0.0051 Uiso
C8_5 C 0.7532(5) 0.0771(3) 0.9693(13) 0.0089 Uiso
O4_5 O 0.9443(3) 0.2518(2) 0.8298(9) 0.0051 Uiso
O9_5 O 0.6002(4) 0.0414(2) 0.4632(9) 0.0124 Uiso
H1_5 H 0.806145 0.175705 0.294144 . .
H2_6 H 0.297107 0.139479 0.0391893 . .
C1_6 C 0.3537(3) 0.1815(4) 0.4571(13) 0.0071 Uiso
C2_6 C 0.3399(4) 0.1266(6) 0.5312(15) 0.0165 Uiso
C3_6 C 0.3477(4) 0.2235(5) 0.5898(12) 0.0051 Uiso
C4_6 C 0.3428(4) 0.0865(5) 0.3640(13) 0.0089 Uiso
O2_6 O 0.3748(2) 0.1079(3) 0.2034(9) 0.0124 Uiso
O3_6 O 0.3121(2) 0.0307(3) 0.4010(8) 0.0053 Uiso
C5_6 C 0.3130(3) 0.1518(4) 0.8762(13) 0.0071 Uiso
C6_6 C 0.3268(4) 0.2067(6) 0.8021(15) 0.0165 Uiso
C7_6 C 0.3190(4) 0.1098(5) 0.7435(12) 0.0051 Uiso
C8_6 C 0.3239(4) 0.2468(5) 0.9693(13) 0.0089 Uiso
O4_6 O 0.3075(2) 0.0557(3) 0.8298(9) 0.0051 Uiso
O9_6 O 0.4413(3) 0.3998(4) 0.4632(9) 0.0124 Uiso
H1_6 H 0.369559 0.193855 0.294144 . .
C5_7 C 0.5055(3) 0.0203(3) 0.2095(13) 0.0071 Uiso
C6_7 C 0.5466(4) 0.0065(4) 0.1354(15) 0.0165 Uiso
C7_7 C 0.4575(3) 0.0143(4) 0.0768(12) 0.0051 Uiso
C8_7 C 0.5896(3) 0.0094(4) 0.3026(13) 0.0089 Uiso
O4_7 O 0.4149(2) 0.0258(2) 0.1631(9) 0.0051 Uiso
H2_7 H 0.509038 0.036226 0.372523 . .
O3_7 O 0.3853(2) 0.0213(2) 0.7344(8) 0.0053 Uiso
C1_7 C 0.4945(3) 0.9797(3) 0.7905(13) 0.0071 Uiso
C2_7 C 0.4534(4) 0.9935(4) 0.8646(15) 0.0165 Uiso
C3_7 C 0.5425(3) 0.9857(4) 0.9232(12) 0.0051 Uiso
C4_7 C 0.4104(3) 0.9906(4) 0.6974(13) 0.0089 Uiso
O2_7 O 0.3998(2) 0.9586(2) 0.5368(9) 0.0124 Uiso
H1_7 H 0.490962 0.963774 0.627477 . .
C5_8 C 0.5149(4) 0.4945(3) 0.2095(13) 0.0071 Uiso
C6_8 C 0.4600(6) 0.4534(4) 0.1354(15) 0.0165 Uiso
C7_8 C 0.5569(5) 0.5425(3) 0.0768(12) 0.0051 Uiso
C8_8 C 0.4199(5) 0.4104(3) 0.3026(13) 0.0089 Uiso
O4_8 O 0.6110(3) 0.5851(2) 0.1631(9) 0.0051 Uiso
H2_8 H 0.527188 0.490962 0.372523 . .
C1_8 C 0.4851(4) 0.5055(3) 0.7905(13) 0.0071 Uiso
C2_8 C 0.5400(6) 0.5466(4) 0.8646(15) 0.0165 Uiso
C3_8 C 0.4431(5) 0.4575(3) 0.9232(12) 0.0051 Uiso
C4_8 C 0.5801(5) 0.5896(3) 0.6974(13) 0.0089 Uiso
O2_8 O 0.5587(3) 0.6002(2) 0.5368(9) 0.0124 Uiso
O3_8 O 0.6359(3) 0.6147(2) 0.7344(8) 0.0053 Uiso
H1_8 H 0.472812 0.509038 0.627477 . .
C1_9 C 0.0203(3) 0.5149(4) 0.7905(13) 0.0071 Uiso
C2_9 C 0.0065(4) 0.4600(6) 0.8646(15) 0.0165 Uiso
C3_9 C 0.0143(4) 0.5569(5) 0.9232(12) 0.0051 Uiso
C4_9 C 0.0094(4) 0.4199(5) 0.6974(13) 0.0089 Uiso
O2_9 O 0.0414(2) 0.4413(3) 0.5368(9) 0.0124 Uiso
H1_9 H 0.036226 0.527188 0.627477 . .
C5_9 C 0.9797(3) 0.4851(4) 0.2095(13) 0.0071 Uiso
C6_9 C 0.9935(4) 0.5400(6) 0.1354(15) 0.0165 Uiso
C7_9 C 0.9857(4) 0.4431(5) 0.0768(12) 0.0051 Uiso
C8_9 C 0.9906(4) 0.5801(5) 0.3026(13) 0.0089 Uiso
O4_9 O 0.9742(2) 0.3890(3) 0.1631(9) 0.0051 Uiso
H2_9 H 0.963774 0.472812 0.372523 . .
O3_9 O 0.9787(2) 0.3641(3) 0.7344(8) 0.0053 Uiso
loop_
_geom_bond_atom_site_label_1
_geom_bond_atom_site_label_2
_geom_bond_site_symmetry_1
_geom_bond_site_symmetry_2
Cu1 O1 1_555 1_555
C1 C2 1_555 1_555
C2 C4 1_555 1_555
C3 C1 1_555 1_555
O1 C3 1_555 1_555
O3 C4 1_555 1_555
C5 C6 1_555 1_555
C6 C3 1_555 1_555
C7 C2 1_555 1_555
C8 C6 1_555 1_555
O4 C7 1_555 1_555
O5 C8 1_555 1_555
O6 Cu1 1_555 1_555
Cu7 O1 1_555 1_555
Cu4 O4 1_555 1_555
Cu5 O6 1_555 1_555
Cu8 O3 1_555 1_555
O7 Cu1 1_555 1_555
O9 Cu1 1_555 1_555
O12 Cu1 1_555 1_555
C5 C7 1_555 1_555
C8 O6 1_555 1_555
O4 Cu8 1_555 1_555
Cu7 O12 1_555 1_555
Cu5 O7 1_555 1_555
C5 H2 1_555 1_555
O2 Cu4 1_555 1_555
C1_2 C2_2 1_555 1_555
C2_2 C4_2 1_555 1_555
C3_2 C1_2 1_555 1_555
O1_2 C3_2 1_555 1_555
O3_2 C4_2 1_555 1_555
C5_2 C6_2 1_555 1_555
C6_2 C3_2 1_555 1_555
C7_2 C2_2 1_555 1_555
C8_2 C6_2 1_555 1_555
O4_2 C7_2 1_555 1_555
O5_2 C8_2 1_555 1_555
Cu7_2 O1_2 1_555 1_555
Cu4_2 O4_2 1_555 1_555
Cu8_2 O3_2 1_555 1_555
C5_2 C7_2 1_555 1_555
C8_2 O6_2 1_555 1_555
O4_2 Cu8_2 1_555 1_555
Cu7_2 O12_2 1_555 1_555
C5_2 H2_2 1_555 1_555
O2_2 Cu4_2 1_555 1_555
O7_2 Cu1_2 1_555 1_555
O9_2 Cu1_2 1_555 1_555
Cu5_2 O7_2 1_555 1_555
O7_3 Cu1_3 1_555 1_555
O9_3 Cu1_3 1_555 1_555
Cu5_3 O7_3 1_555 1_555
C1_3 C2_3 1_555 1_555
C2_3 C4_3 1_555 1_555
C3_3 C1_3 1_555 1_555
O1_3 C3_3 1_555 1_555
O3_3 C4_3 1_555 1_555
C5_3 C6_3 1_555 1_555
C6_3 C3_3 1_555 1_555
C7_3 C2_3 1_555 1_555
C8_3 C6_3 1_555 1_555
O4_3 C7_3 1_555 1_555
O5_3 C8_3 1_555 1_555
Cu7_3 O1_3 1_555 1_555
Cu4_3 O4_3 1_555 1_555
Cu8_3 O3_3 1_555 1_555
C5_3 C7_3 1_555 1_555
C8_3 O6_3 1_555 1_555
O4_3 Cu8_3 1_555 1_555
Cu7_3 O12_3 1_555 1_555
C5_3 H2_3 1_555 1_555
O2_3 Cu4_3 1_555 1_555
C1_4 C2_4 1_555 1_555
C2_4 C4_4 1_555 1_555
C3_4 C1_4 1_555 1_555
C4_4 O2_4 1_555 1_555
O7_2 C3_4 1_555 1_555
O3_4 C4_4 1_555 1_555
C5_4 C6_4 1_555 1_555
C6_4 C3_4 1_555 1_555
C7_4 C2_4 1_555 1_555
C8_4 C6_4 1_555 1_555
O4_4 C7_4 1_555 1_555
O11_2 Cu5_2 1_555 1_555
Cu6_3 O4_4 1_555 1_555
Cu8_3 O3_4 1_555 1_555
Cu4_3 O3_4 1_555 1_555
O9_4 Cu5_2 1_555 1_555
C5_4 C7_4 1_555 1_555
C8_4 O11_2 1_555 1_555
O4_4 Cu4_3 1_555 1_555
C1_4 H1_4 1_555 1_555
C1_5 C2_5 1_555 1_555
C2_5 C4_5 1_555 1_555
C3_5 C1_5 1_555 1_555
C4_5 O2_5 1_555 1_555
O7_3 C3_5 1_555 1_555
O3_5 C4_5 1_555 1_555
C5_5 C6_5 1_555 1_555
C6_5 C3_5 1_555 1_555
C7_5 C2_5 1_555 1_555
C8_5 C6_5 1_555 1_555
O4_5 C7_5 1_555 1_555
O11_3 Cu5_3 1_555 1_555
Cu6 O4_5 1_555 1_555
O9_5 Cu5_3 1_555 1_555
C5_5 C7_5 1_555 1_555
C8_5 O11_3 1_555 1_555
C1_5 H1_5 1_555 1_555
C1_6 C2_6 1_555 1_555
C2_6 C4_6 1_555 1_555
C3_6 C1_6 1_555 1_555
C4_6 O2_6 1_555 1_555
O7 C3_6 1_555 1_555
O3_6 C4_6 1_555 1_555
C5_6 C6_6 1_555 1_555
C6_6 C3_6 1_555 1_555
C7_6 C2_6 1_555 1_555
C8_6 C6_6 1_555 1_555
O4_6 C7_6 1_555 1_555
O11 Cu5 1_555 1_555
Cu6_2 O4_6 1_555 1_555
O8 Cu5 1_555 1_555
O9_6 Cu5 1_555 1_555
C5_6 C7_6 1_555 1_555
C8_6 O11 1_555 1_555
C1_6 H1_6 1_555 1_555
C5_7 C6_7 1_555 1_555
C8_7 C6_7 1_555 1_555
O4_7 C7_7 1_555 1_555
O9_5 C8_7 1_555 1_555
C5_7 C7_7 1_555 1_555
C5_7 H2_7 1_555 1_555
Cu6_2 O3_7 1_555 1_555
C1_7 C2_7 1_555 1_555
C2_7 C4_7 1_555 1_555
C3_7 C1_7 1_555 1_555
C4_7 O2_7 1_555 1_555
O8_3 C3_7 1_555 1_555
O2_7 Cu8_2 1_555 1_555
C1_7 H1_7 1_555 1_555
C5_8 C6_8 1_555 1_555
C8_8 C6_8 1_555 1_555
O4_8 C7_8 1_555 1_555
O9_6 C8_8 1_555 1_555
Cu8_3 O4_8 1_555 1_555
C5_8 C7_8 1_555 1_555
C8_8 O12 1_555 1_555
C5_8 H2_8 1_555 1_555
C1_8 C2_8 1_555 1_555
C2_8 C4_8 1_555 1_555
C3_8 C1_8 1_555 1_555
C4_8 O2_8 1_555 1_555
O8 C3_8 1_555 1_555
O2_8 Cu8_3 1_555 1_555
O3_8 C4_8 1_555 1_555
Cu4_3 O3_8 1_555 1_555
Cu6_3 O3_8 1_555 1_555
C1_8 H1_8 1_555 1_555
C1_9 C2_9 1_555 1_555
C2_9 C4_9 1_555 1_555
C3_9 C1_9 1_555 1_555
C4_9 O2_9 1_555 1_555
O8_2 C3_9 1_555 1_555
O2_9 Cu8 1_555 1_555
C1_9 H1_9 1_555 1_555
C5_9 C6_9 1_555 1_555
C8_9 C6_9 1_555 1_555
O4_9 C7_9 1_555 1_555
O9_4 C8_9 1_555 1_555
C5_9 C7_9 1_555 1_555
C5_9 H2_9 1_555 1_555
Cu6 O3_9 1_555 1_555

#END
