
###############################################################################
#
# This file contains modified crystal structure data generated from the
# MOF subset of the Cambridge Structural Database (CSD) v543 
# hosted by the Cambridge Crystallographic Data Centre (CCDC).
#
# This work is licensed under the Creative Commons
# Attribution-NonCommercial-ShareAlike 4.0 International License.
# To view a copy of this license, visit
# http://creativecommons.org/licenses/by-nc-sa/4.0/
# or send a letter to
# Creative Commons, PO Box 1866, Mountain View, CA 94042, USA.
#
# CIF created using the CSD Python API on 29 September 2022
# The structure has been converted into the P1 space group
# The structure has a 3D framework
# The original CSD entry MOKYAP98 is in the rhombohedral crystal system
# The framework has been calculated to contain at least 10.0% void space
# The void calculation uses a probe of radius 1.32A, grid spacing 0.4
# H atom positions have been added when not included in the experimental data
#
###############################################################################

data_MOKYAP98
_chemical_formula_moiety         '(C72 H18 Cu7 O44)n'
_symmetry_cell_setting           triclinic
_symmetry_space_group_name_H-M   'P 1'
_symmetry_Int_Tables_number      1
_space_group_name_Hall           'P 1'
loop_
_symmetry_equiv_pos_site_id
_symmetry_equiv_pos_as_xyz
1 x,y,z
_cell_length_a                   25.9142(3)
_cell_length_b                   25.9142(3)
_cell_length_c                   6.27651(6)
_cell_angle_alpha                90
_cell_angle_beta                 90
_cell_angle_gamma                120
_cell_volume                     3650.27
loop_
_atom_site_label
_atom_site_type_symbol
_atom_site_fract_x
_atom_site_fract_y
_atom_site_fract_z
Cu7 Cu 0.31802(7) 0.37127(5) 0.00902(19)
Cu1 Cu 0.29540(5) 0.28009(5) 0.34235(19)
C1 C 0.1608(3) 0.3122(3) 0.1240(13)
C2 C 0.1202(4) 0.3272(4) 0.1995(15)
C3 C 0.2094(4) 0.3192(4) 0.2541(12)
C4 C 0.0764(3) 0.3227(4) 0.0343(13)
O1 O 0.2518(2) 0.3074(2) 0.1707(9)
O3 O 0.0520(2) 0.3548(2) 0.0648(8)
C5 C 0.1725(3) 0.3545(3) 0.5427(13)
C6 C 0.2131(4) 0.3395(4) 0.4672(15)
C7 C 0.1239(4) 0.3475(4) 0.4126(12)
C8 C 0.2569(3) 0.3440(4) 0.6324(13)
O4 O 0.0815(2) 0.3593(2) 0.4960(9)
O5 O 0.2667(2) 0.3744(2) 0.7965(9)
O6 O 0.2813(2) 0.3119(2) 0.6019(8)
Cu4 Cu 0.01531(7) 0.29540(5) 0.65765(19)
Cu5 Cu 0.38658(5) 0.34864(7) 0.67568(19)
Cu8 Cu 0.03793(5) 0.38658(5) 0.32432(19)
O7 O 0.3593(2) 0.2777(3) 0.5040(9)
O9 O 0.2923(2) 0.2257(3) 0.1298(9)
O12 O 0.3639(3) 0.3853(2) 0.2685(8)
H2 H 0.17736 0.371931 0.703738
O2 O 0.0666(2) 0.2923(2) 0.8702(9)
O8 O 0.3889(3) 0.4149(2) 0.8374(9)
O11 O 0.3548(2) 0.3028(3) 0.9352(8)
H1 H 0.155974 0.294736 0.962928
Cu6 Cu 0.94676(5) 0.31802(7) 0.99098(19)
Cu6_2 Cu 0.37127(9) 0.05324(5) 0.99098(19)
Cu7_2 Cu 0.05324(9) 0.68198(7) 0.00902(19)
C1_2 C 0.1514(4) 0.8392(3) 0.1240(13)
C2_2 C 0.2070(6) 0.8798(4) 0.1995(15)
C3_2 C 0.1098(6) 0.7906(4) 0.2541(12)
C4_2 C 0.2463(5) 0.9236(3) 0.0343(13)
O1_2 O 0.0556(3) 0.7482(2) 0.1707(9)
O3_2 O 0.3028(3) 0.9480(2) 0.0648(8)
C5_2 C 0.1819(4) 0.8275(3) 0.5427(13)
C6_2 C 0.1263(6) 0.7869(4) 0.4672(15)
C7_2 C 0.2235(6) 0.8761(4) 0.4126(12)
C8_2 C 0.0870(5) 0.7431(3) 0.6324(13)
O4_2 O 0.2777(3) 0.9185(2) 0.4960(9)
O5_2 O 0.1076(3) 0.7333(2) 0.7965(9)
O6_2 O 0.0305(3) 0.7187(2) 0.6019(8)
Cu4_2 Cu 0.28009(9) 0.98469(7) 0.65765(19)
Cu8_2 Cu 0.34864(7) 0.96207(5) 0.32432(19)
O12_2 O 0.0215(4) 0.6361(3) 0.2685(8)
H2_2 H 0.194571 0.82264 0.703738
O2_2 O 0.2257(3) 0.9334(2) 0.8702(9)
O8_2 O 0.0259(4) 0.6111(3) 0.8374(9)
H1_2 H 0.138762 0.844026 0.962928
Cu1_2 Cu 0.98469(7) 0.70460(5) 0.34235(19)
Cu5_2 Cu 0.96207(9) 0.61342(5) 0.67568(19)
O7_2 O 0.9185(4) 0.6407(2) 0.5040(9)
O9_2 O 0.9334(4) 0.7077(2) 0.1298(9)
O11_2 O 0.9480(4) 0.6452(2) 0.9352(8)
Cu1_3 Cu 0.71991(5) 0.01531(7) 0.34235(19)
Cu5_3 Cu 0.65136(7) 0.03793(9) 0.67568(19)
O7_3 O 0.7223(3) 0.0815(4) 0.5040(9)
O9_3 O 0.7743(3) 0.0666(4) 0.1298(9)
O11_3 O 0.6972(3) 0.0520(4) 0.9352(8)
Cu7_3 Cu 0.62873(5) 0.94676(9) 0.00902(19)
C1_3 C 0.6878(3) 0.8486(4) 0.1240(13)
C2_3 C 0.6728(4) 0.7930(6) 0.1995(15)
C3_3 C 0.6808(4) 0.8902(6) 0.2541(12)
C4_3 C 0.6773(4) 0.7537(5) 0.0343(13)
O1_3 O 0.6926(2) 0.9444(3) 0.1707(9)
O3_3 O 0.6452(2) 0.6972(3) 0.0648(8)
C5_3 C 0.6455(3) 0.8181(4) 0.5427(13)
C6_3 C 0.6605(4) 0.8737(6) 0.4672(15)
C7_3 C 0.6525(4) 0.7765(6) 0.4126(12)
C8_3 C 0.6560(4) 0.9130(5) 0.6324(13)
O4_3 O 0.6407(2) 0.7223(3) 0.4960(9)
O5_3 O 0.6256(2) 0.8924(3) 0.7965(9)
O6_3 O 0.6881(2) 0.9695(3) 0.6019(8)
Cu4_3 Cu 0.70460(5) 0.71991(9) 0.65765(19)
Cu8_3 Cu 0.61342(5) 0.65136(7) 0.32432(19)
O12_3 O 0.6147(2) 0.9785(4) 0.2685(8)
H2_3 H 0.628069 0.805429 0.703738
O2_3 O 0.7077(2) 0.7743(3) 0.8702(9)
Cu6_3 Cu 0.68198(7) 0.62873(9) 0.99098(19)
O8_3 O 0.5851(2) 0.9741(4) 0.8374(9)
H1_3 H 0.705264 0.861238 0.962928
H2_4 H 0.844026 0.705264 0.0370718
C1_4 C 0.8275(3) 0.6455(3) 0.4573(13)
C2_4 C 0.7869(4) 0.6605(4) 0.5328(15)
C3_4 C 0.8761(4) 0.6525(4) 0.5874(12)
C4_4 C 0.7431(3) 0.6560(4) 0.3676(13)
O2_4 O 0.7333(2) 0.6256(2) 0.2035(9)
O3_4 O 0.7187(2) 0.6881(2) 0.3981(8)
C5_4 C 0.8392(3) 0.6878(3) 0.8760(13)
C6_4 C 0.8798(4) 0.6728(4) 0.8005(15)
C7_4 C 0.7906(4) 0.6808(4) 0.7459(12)
C8_4 C 0.9236(3) 0.6773(4) 0.9657(13)
O4_4 O 0.7482(2) 0.6926(2) 0.8293(9)
O9_4 O 0.9590(2) 0.5590(3) 0.4631(9)
H1_4 H 0.82264 0.628069 0.296262
H2_5 H 0.861238 0.155974 0.0370718
C1_5 C 0.8181(4) 0.1725(3) 0.4573(13)
C2_5 C 0.8737(6) 0.2131(4) 0.5328(15)
C3_5 C 0.7765(6) 0.1239(4) 0.5874(12)
C4_5 C 0.9130(5) 0.2569(3) 0.3676(13)
O2_5 O 0.8924(3) 0.2667(2) 0.2035(9)
O3_5 O 0.9695(3) 0.2813(2) 0.3981(8)
C5_5 C 0.8486(4) 0.1608(3) 0.8760(13)
C6_5 C 0.7930(6) 0.1202(4) 0.8005(15)
C7_5 C 0.8902(6) 0.2094(4) 0.7459(12)
C8_5 C 0.7537(5) 0.0764(3) 0.9657(13)
O4_5 O 0.9444(3) 0.2518(2) 0.8293(9)
O9_5 O 0.6001(4) 0.0410(2) 0.4631(9)
H1_5 H 0.805429 0.17736 0.296262
H2_6 H 0.294736 0.138762 0.0370718
C1_6 C 0.3545(3) 0.1819(4) 0.4573(13)
C2_6 C 0.3395(4) 0.1263(6) 0.5328(15)
C3_6 C 0.3475(4) 0.2235(6) 0.5874(12)
C4_6 C 0.3440(4) 0.0870(5) 0.3676(13)
O2_6 O 0.3744(2) 0.1076(3) 0.2035(9)
O3_6 O 0.3119(2) 0.0305(3) 0.3981(8)
C5_6 C 0.3122(3) 0.1514(4) 0.8760(13)
C6_6 C 0.3272(4) 0.2070(6) 0.8005(15)
C7_6 C 0.3192(4) 0.1098(6) 0.7459(12)
C8_6 C 0.3227(4) 0.2463(5) 0.9657(13)
O4_6 O 0.3074(2) 0.0556(3) 0.8293(9)
O9_6 O 0.4410(3) 0.3999(4) 0.4631(9)
H1_6 H 0.371931 0.194571 0.296262
C5_7 C 0.5059(3) 0.0211(3) 0.2093(13)
C6_7 C 0.5465(4) 0.0061(4) 0.1338(15)
C7_7 C 0.4573(4) 0.0141(4) 0.0792(12)
C8_7 C 0.5903(3) 0.0106(4) 0.2990(13)
O4_7 O 0.4149(2) 0.0259(2) 0.1626(9)
H2_7 H 0.510693 0.0385977 0.370405
O3_7 O 0.3853(2) 0.0215(2) 0.7315(8)
C1_7 C 0.4941(3) 0.9789(3) 0.7907(13)
C2_7 C 0.4535(4) 0.9939(4) 0.8662(15)
C3_7 C 0.5427(4) 0.9859(4) 0.9208(12)
C4_7 C 0.4097(3) 0.9894(4) 0.7010(13)
O2_7 O 0.3999(2) 0.9590(2) 0.5369(9)
H1_7 H 0.489307 0.961402 0.629595
C5_8 C 0.5153(4) 0.4941(3) 0.2093(13)
C6_8 C 0.4597(6) 0.4535(4) 0.1338(15)
C7_8 C 0.5569(6) 0.5427(4) 0.0792(12)
C8_8 C 0.4204(5) 0.4097(3) 0.2990(13)
O4_8 O 0.6111(3) 0.5851(2) 0.1626(9)
H2_8 H 0.527905 0.489307 0.370405
C1_8 C 0.4847(4) 0.5059(3) 0.7907(13)
C2_8 C 0.5403(6) 0.5465(4) 0.8662(15)
C3_8 C 0.4431(6) 0.4573(4) 0.9208(12)
C4_8 C 0.5796(5) 0.5903(3) 0.7010(13)
O2_8 O 0.5590(3) 0.6001(2) 0.5369(9)
O3_8 O 0.6361(3) 0.6147(2) 0.7315(8)
H1_8 H 0.472095 0.510693 0.629595
C1_9 C 0.0211(3) 0.5153(4) 0.7907(13)
C2_9 C 0.0061(4) 0.4597(6) 0.8662(15)
C3_9 C 0.0141(4) 0.5569(6) 0.9208(12)
C4_9 C 0.0106(4) 0.4204(5) 0.7010(13)
O2_9 O 0.0410(2) 0.4410(3) 0.5369(9)
H1_9 H 0.0385977 0.527905 0.629595
C5_9 C 0.9789(3) 0.4847(4) 0.2093(13)
C6_9 C 0.9939(4) 0.5403(6) 0.1338(15)
C7_9 C 0.9859(4) 0.4431(6) 0.0792(12)
C8_9 C 0.9894(4) 0.5796(5) 0.2990(13)
O4_9 O 0.9741(2) 0.3889(3) 0.1626(9)
H2_9 H 0.961402 0.472095 0.370405
O3_9 O 0.9785(2) 0.3639(3) 0.7315(8)
loop_
_geom_bond_atom_site_label_1
_geom_bond_atom_site_label_2
_geom_bond_site_symmetry_1
_geom_bond_site_symmetry_2
Cu1 O1 1_555 1_555
C1 C2 1_555 1_555
C2 C4 1_555 1_555
C3 C1 1_555 1_555
O1 C3 1_555 1_555
O3 C4 1_555 1_555
C5 C6 1_555 1_555
C6 C3 1_555 1_555
C7 C2 1_555 1_555
C8 C6 1_555 1_555
O4 C7 1_555 1_555
O5 C8 1_555 1_555
O6 Cu1 1_555 1_555
Cu7 O1 1_555 1_555
Cu4 O4 1_555 1_555
Cu5 O6 1_555 1_555
Cu8 O3 1_555 1_555
O7 Cu1 1_555 1_555
O9 Cu1 1_555 1_555
O12 Cu1 1_555 1_555
C5 C7 1_555 1_555
C8 O6 1_555 1_555
O4 Cu8 1_555 1_555
Cu7 O12 1_555 1_555
Cu5 O7 1_555 1_555
C5 H2 1_555 1_555
O2 Cu4 1_555 1_555
C1_2 C2_2 1_555 1_555
C2_2 C4_2 1_555 1_555
C3_2 C1_2 1_555 1_555
O1_2 C3_2 1_555 1_555
O3_2 C4_2 1_555 1_555
C5_2 C6_2 1_555 1_555
C6_2 C3_2 1_555 1_555
C7_2 C2_2 1_555 1_555
C8_2 C6_2 1_555 1_555
O4_2 C7_2 1_555 1_555
O5_2 C8_2 1_555 1_555
Cu7_2 O1_2 1_555 1_555
Cu4_2 O4_2 1_555 1_555
Cu8_2 O3_2 1_555 1_555
C5_2 C7_2 1_555 1_555
C8_2 O6_2 1_555 1_555
O4_2 Cu8_2 1_555 1_555
Cu7_2 O12_2 1_555 1_555
C5_2 H2_2 1_555 1_555
O2_2 Cu4_2 1_555 1_555
O7_2 Cu1_2 1_555 1_555
O9_2 Cu1_2 1_555 1_555
Cu5_2 O7_2 1_555 1_555
O7_3 Cu1_3 1_555 1_555
O9_3 Cu1_3 1_555 1_555
Cu5_3 O7_3 1_555 1_555
C1_3 C2_3 1_555 1_555
C2_3 C4_3 1_555 1_555
C3_3 C1_3 1_555 1_555
O1_3 C3_3 1_555 1_555
O3_3 C4_3 1_555 1_555
C5_3 C6_3 1_555 1_555
C6_3 C3_3 1_555 1_555
C7_3 C2_3 1_555 1_555
C8_3 C6_3 1_555 1_555
O4_3 C7_3 1_555 1_555
O5_3 C8_3 1_555 1_555
Cu7_3 O1_3 1_555 1_555
Cu4_3 O4_3 1_555 1_555
Cu8_3 O3_3 1_555 1_555
C5_3 C7_3 1_555 1_555
C8_3 O6_3 1_555 1_555
O4_3 Cu8_3 1_555 1_555
Cu7_3 O12_3 1_555 1_555
C5_3 H2_3 1_555 1_555
O2_3 Cu4_3 1_555 1_555
C1_4 C2_4 1_555 1_555
C2_4 C4_4 1_555 1_555
C3_4 C1_4 1_555 1_555
C4_4 O2_4 1_555 1_555
O7_2 C3_4 1_555 1_555
O3_4 C4_4 1_555 1_555
C5_4 C6_4 1_555 1_555
C6_4 C3_4 1_555 1_555
C7_4 C2_4 1_555 1_555
C8_4 C6_4 1_555 1_555
O4_4 C7_4 1_555 1_555
O11_2 Cu5_2 1_555 1_555
Cu6_3 O4_4 1_555 1_555
Cu8_3 O3_4 1_555 1_555
Cu4_3 O3_4 1_555 1_555
O9_4 Cu5_2 1_555 1_555
C5_4 C7_4 1_555 1_555
C8_4 O11_2 1_555 1_555
O4_4 Cu4_3 1_555 1_555
C1_4 H1_4 1_555 1_555
C1_5 C2_5 1_555 1_555
C2_5 C4_5 1_555 1_555
C3_5 C1_5 1_555 1_555
C4_5 O2_5 1_555 1_555
O7_3 C3_5 1_555 1_555
O3_5 C4_5 1_555 1_555
C5_5 C6_5 1_555 1_555
C6_5 C3_5 1_555 1_555
C7_5 C2_5 1_555 1_555
C8_5 C6_5 1_555 1_555
O4_5 C7_5 1_555 1_555
O11_3 Cu5_3 1_555 1_555
Cu6 O4_5 1_555 1_555
O9_5 Cu5_3 1_555 1_555
C5_5 C7_5 1_555 1_555
C8_5 O11_3 1_555 1_555
C1_5 H1_5 1_555 1_555
C1_6 C2_6 1_555 1_555
C2_6 C4_6 1_555 1_555
C3_6 C1_6 1_555 1_555
C4_6 O2_6 1_555 1_555
O7 C3_6 1_555 1_555
O3_6 C4_6 1_555 1_555
C5_6 C6_6 1_555 1_555
C6_6 C3_6 1_555 1_555
C7_6 C2_6 1_555 1_555
C8_6 C6_6 1_555 1_555
O4_6 C7_6 1_555 1_555
O11 Cu5 1_555 1_555
Cu6_2 O4_6 1_555 1_555
O8 Cu5 1_555 1_555
O9_6 Cu5 1_555 1_555
C5_6 C7_6 1_555 1_555
C8_6 O11 1_555 1_555
C1_6 H1_6 1_555 1_555
C5_7 C6_7 1_555 1_555
C8_7 C6_7 1_555 1_555
O4_7 C7_7 1_555 1_555
O9_5 C8_7 1_555 1_555
C5_7 C7_7 1_555 1_555
C5_7 H2_7 1_555 1_555
Cu6_2 O3_7 1_555 1_555
C1_7 C2_7 1_555 1_555
C2_7 C4_7 1_555 1_555
C3_7 C1_7 1_555 1_555
C4_7 O2_7 1_555 1_555
O8_3 C3_7 1_555 1_555
O2_7 Cu8_2 1_555 1_555
C1_7 H1_7 1_555 1_555
C5_8 C6_8 1_555 1_555
C8_8 C6_8 1_555 1_555
O4_8 C7_8 1_555 1_555
O9_6 C8_8 1_555 1_555
Cu8_3 O4_8 1_555 1_555
C5_8 C7_8 1_555 1_555
C8_8 O12 1_555 1_555
C5_8 H2_8 1_555 1_555
C1_8 C2_8 1_555 1_555
C2_8 C4_8 1_555 1_555
C3_8 C1_8 1_555 1_555
C4_8 O2_8 1_555 1_555
O8 C3_8 1_555 1_555
O2_8 Cu8_3 1_555 1_555
O3_8 C4_8 1_555 1_555
Cu4_3 O3_8 1_555 1_555
Cu6_3 O3_8 1_555 1_555
C1_8 H1_8 1_555 1_555
C1_9 C2_9 1_555 1_555
C2_9 C4_9 1_555 1_555
C3_9 C1_9 1_555 1_555
C4_9 O2_9 1_555 1_555
O8_2 C3_9 1_555 1_555
O2_9 Cu8 1_555 1_555
C1_9 H1_9 1_555 1_555
C5_9 C6_9 1_555 1_555
C8_9 C6_9 1_555 1_555
O4_9 C7_9 1_555 1_555
O9_4 C8_9 1_555 1_555
C5_9 C7_9 1_555 1_555
C5_9 H2_9 1_555 1_555
Cu6 O3_9 1_555 1_555

#END
