
###############################################################################
#
# This file contains modified crystal structure data generated from the
# MOF subset of the Cambridge Structural Database (CSD) v543 
# hosted by the Cambridge Crystallographic Data Centre (CCDC).
#
# This work is licensed under the Creative Commons
# Attribution-NonCommercial-ShareAlike 4.0 International License.
# To view a copy of this license, visit
# http://creativecommons.org/licenses/by-nc-sa/4.0/
# or send a letter to
# Creative Commons, PO Box 1866, Mountain View, CA 94042, USA.
#
# CIF created using the CSD Python API on 29 September 2022
# The structure has been converted into the P1 space group
# The structure has a 3D framework
# The original CSD entry MOKYAP84 is in the rhombohedral crystal system
# The framework has been calculated to contain at least 10.0% void space
# The void calculation uses a probe of radius 1.32A, grid spacing 0.4
# H atom positions have been added when not included in the experimental data
#
###############################################################################

data_MOKYAP84
_chemical_formula_moiety         '(C72 H18 Cu7 O44)n'
_symmetry_cell_setting           triclinic
_symmetry_space_group_name_H-M   'P 1'
_symmetry_Int_Tables_number      1
_space_group_name_Hall           'P 1'
loop_
_symmetry_equiv_pos_site_id
_symmetry_equiv_pos_as_xyz
1 x,y,z
_cell_length_a                   25.9143(3)
_cell_length_b                   25.9143(3)
_cell_length_c                   6.27595(7)
_cell_angle_alpha                90
_cell_angle_beta                 90
_cell_angle_gamma                120
_cell_volume                     3649.97
loop_
_atom_site_label
_atom_site_type_symbol
_atom_site_fract_x
_atom_site_fract_y
_atom_site_fract_z
_atom_site_U_iso_or_equiv
_atom_site_thermal_displace_type
Cu7 Cu 0.31801(7) 0.37125(5) 0.0091(2) 0.0114 Uiso
Cu1 Cu 0.29542(5) 0.28010(5) 0.3424(2) 0.0114 Uiso
C1 C 0.1609(3) 0.3127(3) 0.1257(13) 0.0063 Uiso
C2 C 0.1202(4) 0.3270(4) 0.1982(16) 0.0190 Uiso
C3 C 0.2094(4) 0.3188(4) 0.2537(12) 0.0063 Uiso
C4 C 0.0765(3) 0.3231(4) 0.0326(13) 0.0089 Uiso
O1 O 0.2518(2) 0.3072(2) 0.1711(9) 0.0060 Uiso
O3 O 0.0520(2) 0.3548(2) 0.0662(8) 0.0066 Uiso
C5 C 0.1724(3) 0.3540(3) 0.5410(13) 0.0063 Uiso
C6 C 0.2131(4) 0.3397(4) 0.4685(16) 0.0190 Uiso
C7 C 0.1239(4) 0.3479(4) 0.4130(12) 0.0063 Uiso
C8 C 0.2568(3) 0.3436(4) 0.6341(13) 0.0089 Uiso
O4 O 0.0815(2) 0.3595(2) 0.4956(9) 0.0060 Uiso
O5 O 0.2670(2) 0.3746(2) 0.7965(10) 0.0144 Uiso
O6 O 0.2813(2) 0.3119(2) 0.6005(8) 0.0066 Uiso
Cu4 Cu 0.01532(7) 0.29542(5) 0.6576(2) 0.0114 Uiso
Cu5 Cu 0.38657(5) 0.34865(7) 0.6757(2) 0.0114 Uiso
Cu8 Cu 0.03791(5) 0.38657(5) 0.3243(2) 0.0114 Uiso
O7 O 0.3595(2) 0.2779(3) 0.5044(9) 0.0060 Uiso
O9 O 0.2921(2) 0.2258(3) 0.1298(10) 0.0144 Uiso
O12 O 0.3639(3) 0.3853(2) 0.2671(8) 0.0066 Uiso
H2 H 0.176884 0.370744 0.70297 . .
O2 O 0.0663(2) 0.2921(2) 0.8702(10) 0.0144 Uiso
O8 O 0.3887(3) 0.4149(2) 0.8378(9) 0.0060 Uiso
O11 O 0.3548(2) 0.3028(3) 0.9338(8) 0.0066 Uiso
H1 H 0.156449 0.295922 0.963697 . .
Cu6 Cu 0.94677(5) 0.31801(7) 0.9909(2) 0.0114 Uiso
Cu6_2 Cu 0.37125(9) 0.05323(5) 0.9909(2) 0.0114 Uiso
Cu7_2 Cu 0.05323(9) 0.68199(7) 0.0091(2) 0.0114 Uiso
C1_2 C 0.1518(4) 0.8391(3) 0.1257(13) 0.0063 Uiso
C2_2 C 0.2068(6) 0.8798(4) 0.1982(16) 0.0190 Uiso
C3_2 C 0.1094(6) 0.7906(4) 0.2537(12) 0.0063 Uiso
C4_2 C 0.2466(5) 0.9235(3) 0.0326(13) 0.0089 Uiso
O1_2 O 0.0554(3) 0.7482(2) 0.1711(9) 0.0060 Uiso
O3_2 O 0.3028(3) 0.9480(2) 0.0662(8) 0.0066 Uiso
C5_2 C 0.1815(4) 0.8276(3) 0.5410(13) 0.0063 Uiso
C6_2 C 0.1265(6) 0.7869(4) 0.4685(16) 0.0190 Uiso
C7_2 C 0.2239(6) 0.8761(4) 0.4130(12) 0.0063 Uiso
C8_2 C 0.0867(5) 0.7432(3) 0.6341(13) 0.0089 Uiso
O4_2 O 0.2779(3) 0.9185(2) 0.4956(9) 0.0060 Uiso
O5_2 O 0.1075(3) 0.7330(2) 0.7965(10) 0.0144 Uiso
O6_2 O 0.0305(3) 0.7187(2) 0.6005(8) 0.0066 Uiso
Cu4_2 Cu 0.28010(9) 0.98468(7) 0.6576(2) 0.0114 Uiso
Cu8_2 Cu 0.34865(7) 0.96209(5) 0.3243(2) 0.0114 Uiso
O12_2 O 0.0215(4) 0.6361(3) 0.2671(8) 0.0066 Uiso
H2_2 H 0.19386 0.823116 0.70297 . .
O2_2 O 0.2258(3) 0.9337(2) 0.8702(10) 0.0144 Uiso
O8_2 O 0.0261(4) 0.6113(3) 0.8378(9) 0.0060 Uiso
H1_2 H 0.139473 0.843551 0.963697 . .
Cu1_2 Cu 0.98468(7) 0.70458(5) 0.3424(2) 0.0114 Uiso
Cu5_2 Cu 0.96209(9) 0.61343(5) 0.6757(2) 0.0114 Uiso
O7_2 O 0.9185(4) 0.6405(2) 0.5044(9) 0.0060 Uiso
O9_2 O 0.9337(4) 0.7079(2) 0.1298(10) 0.0144 Uiso
O11_2 O 0.9480(4) 0.6452(2) 0.9338(8) 0.0066 Uiso
Cu1_3 Cu 0.71990(5) 0.01532(7) 0.3424(2) 0.0114 Uiso
Cu5_3 Cu 0.65135(7) 0.03791(9) 0.6757(2) 0.0114 Uiso
O7_3 O 0.7221(3) 0.0815(4) 0.5044(9) 0.0060 Uiso
O9_3 O 0.7742(3) 0.0663(4) 0.1298(10) 0.0144 Uiso
O11_3 O 0.6972(3) 0.0520(4) 0.9338(8) 0.0066 Uiso
Cu7_3 Cu 0.62875(5) 0.94677(9) 0.0091(2) 0.0114 Uiso
C1_3 C 0.6873(3) 0.8482(4) 0.1257(13) 0.0063 Uiso
C2_3 C 0.6730(4) 0.7932(6) 0.1982(16) 0.0190 Uiso
C3_3 C 0.6812(4) 0.8906(6) 0.2537(12) 0.0063 Uiso
C4_3 C 0.6769(4) 0.7534(5) 0.0326(13) 0.0089 Uiso
O1_3 O 0.6928(2) 0.9446(3) 0.1711(9) 0.0060 Uiso
O3_3 O 0.6452(2) 0.6972(3) 0.0662(8) 0.0066 Uiso
C5_3 C 0.6460(3) 0.8185(4) 0.5410(13) 0.0063 Uiso
C6_3 C 0.6603(4) 0.8735(6) 0.4685(16) 0.0190 Uiso
C7_3 C 0.6521(4) 0.7761(6) 0.4130(12) 0.0063 Uiso
C8_3 C 0.6564(4) 0.9133(5) 0.6341(13) 0.0089 Uiso
O4_3 O 0.6405(2) 0.7221(3) 0.4956(9) 0.0060 Uiso
O5_3 O 0.6254(2) 0.8925(3) 0.7965(10) 0.0144 Uiso
O6_3 O 0.6881(2) 0.9695(3) 0.6005(8) 0.0066 Uiso
Cu4_3 Cu 0.70458(5) 0.71990(9) 0.6576(2) 0.0114 Uiso
Cu8_3 Cu 0.61343(5) 0.65135(7) 0.3243(2) 0.0114 Uiso
O12_3 O 0.6147(2) 0.9785(4) 0.2671(8) 0.0066 Uiso
H2_3 H 0.629256 0.80614 0.70297 . .
O2_3 O 0.7079(2) 0.7742(3) 0.8702(10) 0.0144 Uiso
Cu6_3 Cu 0.68199(7) 0.62875(9) 0.9909(2) 0.0114 Uiso
O8_3 O 0.5851(2) 0.9739(4) 0.8378(9) 0.0060 Uiso
H1_3 H 0.704078 0.860527 0.963697 . .
H2_4 H 0.843551 0.704078 0.0363034 . .
C1_4 C 0.8276(3) 0.6460(3) 0.4590(13) 0.0063 Uiso
C2_4 C 0.7869(4) 0.6603(4) 0.5315(16) 0.0190 Uiso
C3_4 C 0.8761(4) 0.6521(4) 0.5870(12) 0.0063 Uiso
C4_4 C 0.7432(3) 0.6564(4) 0.3659(13) 0.0089 Uiso
O2_4 O 0.7330(2) 0.6254(2) 0.2035(10) 0.0144 Uiso
O3_4 O 0.7187(2) 0.6881(2) 0.3995(8) 0.0066 Uiso
C5_4 C 0.8391(3) 0.6873(3) 0.8743(13) 0.0063 Uiso
C6_4 C 0.8798(4) 0.6730(4) 0.8018(16) 0.0190 Uiso
C7_4 C 0.7906(4) 0.6812(4) 0.7463(12) 0.0063 Uiso
C8_4 C 0.9235(3) 0.6769(4) 0.9674(13) 0.0089 Uiso
O4_4 O 0.7482(2) 0.6928(2) 0.8289(9) 0.0060 Uiso
O9_4 O 0.9588(2) 0.5591(3) 0.4631(10) 0.0144 Uiso
H1_4 H 0.823116 0.629256 0.29703 . .
H2_5 H 0.860527 0.156449 0.0363034 . .
C1_5 C 0.8185(4) 0.1724(3) 0.4590(13) 0.0063 Uiso
C2_5 C 0.8735(6) 0.2131(4) 0.5315(16) 0.0190 Uiso
C3_5 C 0.7761(6) 0.1239(4) 0.5870(12) 0.0063 Uiso
C4_5 C 0.9133(5) 0.2568(3) 0.3659(13) 0.0089 Uiso
O2_5 O 0.8925(3) 0.2670(2) 0.2035(10) 0.0144 Uiso
O3_5 O 0.9695(3) 0.2813(2) 0.3995(8) 0.0066 Uiso
C5_5 C 0.8482(4) 0.1609(3) 0.8743(13) 0.0063 Uiso
C6_5 C 0.7932(6) 0.1202(4) 0.8018(16) 0.0190 Uiso
C7_5 C 0.8906(6) 0.2094(4) 0.7463(12) 0.0063 Uiso
C8_5 C 0.7534(5) 0.0765(3) 0.9674(13) 0.0089 Uiso
O4_5 O 0.9446(3) 0.2518(2) 0.8289(9) 0.0060 Uiso
O9_5 O 0.6004(4) 0.0412(2) 0.4631(10) 0.0144 Uiso
H1_5 H 0.80614 0.176884 0.29703 . .
H2_6 H 0.295922 0.139473 0.0363034 . .
C1_6 C 0.3540(3) 0.1815(4) 0.4590(13) 0.0063 Uiso
C2_6 C 0.3397(4) 0.1265(6) 0.5315(16) 0.0190 Uiso
C3_6 C 0.3479(4) 0.2239(6) 0.5870(12) 0.0063 Uiso
C4_6 C 0.3436(4) 0.0867(5) 0.3659(13) 0.0089 Uiso
O2_6 O 0.3746(2) 0.1075(3) 0.2035(10) 0.0144 Uiso
O3_6 O 0.3119(2) 0.0305(3) 0.3995(8) 0.0066 Uiso
C5_6 C 0.3127(3) 0.1518(4) 0.8743(13) 0.0063 Uiso
C6_6 C 0.3270(4) 0.2068(6) 0.8018(16) 0.0190 Uiso
C7_6 C 0.3188(4) 0.1094(6) 0.7463(12) 0.0063 Uiso
C8_6 C 0.3231(4) 0.2466(5) 0.9674(13) 0.0089 Uiso
O4_6 O 0.3072(2) 0.0554(3) 0.8289(9) 0.0060 Uiso
O9_6 O 0.4409(3) 0.3996(4) 0.4631(10) 0.0144 Uiso
H1_6 H 0.370744 0.19386 0.29703 . .
C5_7 C 0.5058(3) 0.0206(3) 0.2076(13) 0.0063 Uiso
C6_7 C 0.5465(4) 0.0063(4) 0.1351(16) 0.0190 Uiso
C7_7 C 0.4573(4) 0.0145(4) 0.0796(12) 0.0063 Uiso
C8_7 C 0.5902(3) 0.0102(4) 0.3007(13) 0.0089 Uiso
O4_7 O 0.4149(2) 0.0261(2) 0.1622(9) 0.0060 Uiso
H2_7 H 0.510218 0.037411 0.369637 . .
O3_7 O 0.3853(2) 0.0215(2) 0.7329(8) 0.0066 Uiso
C1_7 C 0.4942(3) 0.9794(3) 0.7924(13) 0.0063 Uiso
C2_7 C 0.4535(4) 0.9937(4) 0.8649(16) 0.0190 Uiso
C3_7 C 0.5427(4) 0.9855(4) 0.9204(12) 0.0063 Uiso
C4_7 C 0.4098(3) 0.9898(4) 0.6993(13) 0.0089 Uiso
O2_7 O 0.3996(2) 0.9588(2) 0.5369(10) 0.0144 Uiso
H1_7 H 0.489782 0.962589 0.630363 . .
C5_8 C 0.5149(4) 0.4942(3) 0.2076(13) 0.0063 Uiso
C6_8 C 0.4599(6) 0.4535(4) 0.1351(16) 0.0190 Uiso
C7_8 C 0.5573(6) 0.5427(4) 0.0796(12) 0.0063 Uiso
C8_8 C 0.4201(5) 0.4098(3) 0.3007(13) 0.0089 Uiso
O4_8 O 0.6113(3) 0.5851(2) 0.1622(9) 0.0060 Uiso
H2_8 H 0.527194 0.489782 0.369637 . .
C1_8 C 0.4851(4) 0.5058(3) 0.7924(13) 0.0063 Uiso
C2_8 C 0.5401(6) 0.5465(4) 0.8649(16) 0.0190 Uiso
C3_8 C 0.4427(6) 0.4573(4) 0.9204(12) 0.0063 Uiso
C4_8 C 0.5799(5) 0.5902(3) 0.6993(13) 0.0089 Uiso
O2_8 O 0.5591(3) 0.6004(2) 0.5369(10) 0.0144 Uiso
O3_8 O 0.6361(3) 0.6147(2) 0.7329(8) 0.0066 Uiso
H1_8 H 0.472806 0.510218 0.630363 . .
C1_9 C 0.0206(3) 0.5149(4) 0.7924(13) 0.0063 Uiso
C2_9 C 0.0063(4) 0.4599(6) 0.8649(16) 0.0190 Uiso
C3_9 C 0.0145(4) 0.5573(6) 0.9204(12) 0.0063 Uiso
C4_9 C 0.0102(4) 0.4201(5) 0.6993(13) 0.0089 Uiso
O2_9 O 0.0412(2) 0.4409(3) 0.5369(10) 0.0144 Uiso
H1_9 H 0.037411 0.527194 0.630363 . .
C5_9 C 0.9794(3) 0.4851(4) 0.2076(13) 0.0063 Uiso
C6_9 C 0.9937(4) 0.5401(6) 0.1351(16) 0.0190 Uiso
C7_9 C 0.9855(4) 0.4427(6) 0.0796(12) 0.0063 Uiso
C8_9 C 0.9898(4) 0.5799(5) 0.3007(13) 0.0089 Uiso
O4_9 O 0.9739(2) 0.3887(3) 0.1622(9) 0.0060 Uiso
H2_9 H 0.962589 0.472806 0.369637 . .
O3_9 O 0.9785(2) 0.3639(3) 0.7329(8) 0.0066 Uiso
loop_
_geom_bond_atom_site_label_1
_geom_bond_atom_site_label_2
_geom_bond_site_symmetry_1
_geom_bond_site_symmetry_2
Cu1 O1 1_555 1_555
C1 C2 1_555 1_555
C2 C4 1_555 1_555
C3 C1 1_555 1_555
O1 C3 1_555 1_555
O3 C4 1_555 1_555
C5 C6 1_555 1_555
C6 C3 1_555 1_555
C7 C2 1_555 1_555
C8 C6 1_555 1_555
O4 C7 1_555 1_555
O5 C8 1_555 1_555
O6 Cu1 1_555 1_555
Cu7 O1 1_555 1_555
Cu4 O4 1_555 1_555
Cu5 O6 1_555 1_555
Cu8 O3 1_555 1_555
O7 Cu1 1_555 1_555
O9 Cu1 1_555 1_555
O12 Cu1 1_555 1_555
C5 C7 1_555 1_555
C8 O6 1_555 1_555
O4 Cu8 1_555 1_555
Cu7 O12 1_555 1_555
Cu5 O7 1_555 1_555
C5 H2 1_555 1_555
O2 Cu4 1_555 1_555
C1_2 C2_2 1_555 1_555
C2_2 C4_2 1_555 1_555
C3_2 C1_2 1_555 1_555
O1_2 C3_2 1_555 1_555
O3_2 C4_2 1_555 1_555
C5_2 C6_2 1_555 1_555
C6_2 C3_2 1_555 1_555
C7_2 C2_2 1_555 1_555
C8_2 C6_2 1_555 1_555
O4_2 C7_2 1_555 1_555
O5_2 C8_2 1_555 1_555
Cu7_2 O1_2 1_555 1_555
Cu4_2 O4_2 1_555 1_555
Cu8_2 O3_2 1_555 1_555
C5_2 C7_2 1_555 1_555
C8_2 O6_2 1_555 1_555
O4_2 Cu8_2 1_555 1_555
Cu7_2 O12_2 1_555 1_555
C5_2 H2_2 1_555 1_555
O2_2 Cu4_2 1_555 1_555
O7_2 Cu1_2 1_555 1_555
O9_2 Cu1_2 1_555 1_555
Cu5_2 O7_2 1_555 1_555
O7_3 Cu1_3 1_555 1_555
O9_3 Cu1_3 1_555 1_555
Cu5_3 O7_3 1_555 1_555
C1_3 C2_3 1_555 1_555
C2_3 C4_3 1_555 1_555
C3_3 C1_3 1_555 1_555
O1_3 C3_3 1_555 1_555
O3_3 C4_3 1_555 1_555
C5_3 C6_3 1_555 1_555
C6_3 C3_3 1_555 1_555
C7_3 C2_3 1_555 1_555
C8_3 C6_3 1_555 1_555
O4_3 C7_3 1_555 1_555
O5_3 C8_3 1_555 1_555
Cu7_3 O1_3 1_555 1_555
Cu4_3 O4_3 1_555 1_555
Cu8_3 O3_3 1_555 1_555
C5_3 C7_3 1_555 1_555
C8_3 O6_3 1_555 1_555
O4_3 Cu8_3 1_555 1_555
Cu7_3 O12_3 1_555 1_555
C5_3 H2_3 1_555 1_555
O2_3 Cu4_3 1_555 1_555
C1_4 C2_4 1_555 1_555
C2_4 C4_4 1_555 1_555
C3_4 C1_4 1_555 1_555
C4_4 O2_4 1_555 1_555
O7_2 C3_4 1_555 1_555
O3_4 C4_4 1_555 1_555
C5_4 C6_4 1_555 1_555
C6_4 C3_4 1_555 1_555
C7_4 C2_4 1_555 1_555
C8_4 C6_4 1_555 1_555
O4_4 C7_4 1_555 1_555
O11_2 Cu5_2 1_555 1_555
Cu6_3 O4_4 1_555 1_555
Cu8_3 O3_4 1_555 1_555
Cu4_3 O3_4 1_555 1_555
O9_4 Cu5_2 1_555 1_555
C5_4 C7_4 1_555 1_555
C8_4 O11_2 1_555 1_555
O4_4 Cu4_3 1_555 1_555
C1_4 H1_4 1_555 1_555
C1_5 C2_5 1_555 1_555
C2_5 C4_5 1_555 1_555
C3_5 C1_5 1_555 1_555
C4_5 O2_5 1_555 1_555
O7_3 C3_5 1_555 1_555
O3_5 C4_5 1_555 1_555
C5_5 C6_5 1_555 1_555
C6_5 C3_5 1_555 1_555
C7_5 C2_5 1_555 1_555
C8_5 C6_5 1_555 1_555
O4_5 C7_5 1_555 1_555
O11_3 Cu5_3 1_555 1_555
Cu6 O4_5 1_555 1_555
O9_5 Cu5_3 1_555 1_555
C5_5 C7_5 1_555 1_555
C8_5 O11_3 1_555 1_555
C1_5 H1_5 1_555 1_555
C1_6 C2_6 1_555 1_555
C2_6 C4_6 1_555 1_555
C3_6 C1_6 1_555 1_555
C4_6 O2_6 1_555 1_555
O7 C3_6 1_555 1_555
O3_6 C4_6 1_555 1_555
C5_6 C6_6 1_555 1_555
C6_6 C3_6 1_555 1_555
C7_6 C2_6 1_555 1_555
C8_6 C6_6 1_555 1_555
O4_6 C7_6 1_555 1_555
O11 Cu5 1_555 1_555
Cu6_2 O4_6 1_555 1_555
O8 Cu5 1_555 1_555
O9_6 Cu5 1_555 1_555
C5_6 C7_6 1_555 1_555
C8_6 O11 1_555 1_555
C1_6 H1_6 1_555 1_555
C5_7 C6_7 1_555 1_555
C8_7 C6_7 1_555 1_555
O4_7 C7_7 1_555 1_555
O9_5 C8_7 1_555 1_555
C5_7 C7_7 1_555 1_555
C5_7 H2_7 1_555 1_555
Cu6_2 O3_7 1_555 1_555
C1_7 C2_7 1_555 1_555
C2_7 C4_7 1_555 1_555
C3_7 C1_7 1_555 1_555
C4_7 O2_7 1_555 1_555
O8_3 C3_7 1_555 1_555
O2_7 Cu8_2 1_555 1_555
C1_7 H1_7 1_555 1_555
C5_8 C6_8 1_555 1_555
C8_8 C6_8 1_555 1_555
O4_8 C7_8 1_555 1_555
O9_6 C8_8 1_555 1_555
Cu8_3 O4_8 1_555 1_555
C5_8 C7_8 1_555 1_555
C8_8 O12 1_555 1_555
C5_8 H2_8 1_555 1_555
C1_8 C2_8 1_555 1_555
C2_8 C4_8 1_555 1_555
C3_8 C1_8 1_555 1_555
C4_8 O2_8 1_555 1_555
O8 C3_8 1_555 1_555
O2_8 Cu8_3 1_555 1_555
O3_8 C4_8 1_555 1_555
Cu4_3 O3_8 1_555 1_555
Cu6_3 O3_8 1_555 1_555
C1_8 H1_8 1_555 1_555
C1_9 C2_9 1_555 1_555
C2_9 C4_9 1_555 1_555
C3_9 C1_9 1_555 1_555
C4_9 O2_9 1_555 1_555
O8_2 C3_9 1_555 1_555
O2_9 Cu8 1_555 1_555
C1_9 H1_9 1_555 1_555
C5_9 C6_9 1_555 1_555
C8_9 C6_9 1_555 1_555
O4_9 C7_9 1_555 1_555
O9_4 C8_9 1_555 1_555
C5_9 C7_9 1_555 1_555
C5_9 H2_9 1_555 1_555
Cu6 O3_9 1_555 1_555

#END
