
###############################################################################
#
# This file contains modified crystal structure data generated from the
# MOF subset of the Cambridge Structural Database (CSD) v543 
# hosted by the Cambridge Crystallographic Data Centre (CCDC).
#
# This work is licensed under the Creative Commons
# Attribution-NonCommercial-ShareAlike 4.0 International License.
# To view a copy of this license, visit
# http://creativecommons.org/licenses/by-nc-sa/4.0/
# or send a letter to
# Creative Commons, PO Box 1866, Mountain View, CA 94042, USA.
#
# CIF created using the CSD Python API on 29 September 2022
# The structure has been converted into the P1 space group
# The structure has a 3D framework
# The original CSD entry MOKYAP82 is in the rhombohedral crystal system
# The framework has been calculated to contain at least 10.0% void space
# The void calculation uses a probe of radius 1.32A, grid spacing 0.4
# H atom positions have been added when not included in the experimental data
#
###############################################################################

data_MOKYAP82
_chemical_formula_moiety         '(C72 H18 Cu7 O44)n'
_symmetry_cell_setting           triclinic
_symmetry_space_group_name_H-M   'P 1'
_symmetry_Int_Tables_number      1
_space_group_name_Hall           'P 1'
loop_
_symmetry_equiv_pos_site_id
_symmetry_equiv_pos_as_xyz
1 x,y,z
_cell_length_a                   25.9144(3)
_cell_length_b                   25.9144(3)
_cell_length_c                   6.27577(7)
_cell_angle_alpha                90
_cell_angle_beta                 90
_cell_angle_gamma                120
_cell_volume                     3649.89
loop_
_atom_site_label
_atom_site_type_symbol
_atom_site_fract_x
_atom_site_fract_y
_atom_site_fract_z
Cu7 Cu 0.31802(7) 0.37127(5) 0.0091(2)
Cu1 Cu 0.29540(5) 0.28009(5) 0.3424(2)
C1 C 0.1609(3) 0.3126(3) 0.1253(13)
C2 C 0.1202(4) 0.3272(4) 0.1982(15)
C3 C 0.2094(4) 0.3190(4) 0.2544(12)
C4 C 0.0766(3) 0.3230(4) 0.0326(13)
O1 O 0.2517(2) 0.3073(2) 0.1703(9)
O3 O 0.0520(2) 0.3547(2) 0.0665(8)
C5 C 0.1724(3) 0.3541(3) 0.5414(13)
C6 C 0.2131(4) 0.3395(4) 0.4685(15)
C7 C 0.1239(4) 0.3477(4) 0.4123(12)
C8 C 0.2567(3) 0.3437(4) 0.6341(13)
O4 O 0.0816(2) 0.3594(2) 0.4964(9)
O5 O 0.2669(2) 0.3746(2) 0.7967(10)
O6 O 0.2813(2) 0.3120(2) 0.6002(8)
Cu4 Cu 0.01531(7) 0.29540(5) 0.6576(2)
Cu5 Cu 0.38658(5) 0.34864(7) 0.6757(2)
Cu8 Cu 0.03793(5) 0.38658(5) 0.3243(2)
O7 O 0.3594(2) 0.2777(3) 0.5036(9)
O9 O 0.2921(2) 0.2257(3) 0.1300(10)
O12 O 0.3640(3) 0.3853(2) 0.2668(8)
H1 H 0.176962 0.371141 0.702948
O2 O 0.0664(2) 0.2921(2) 0.8700(10)
O8 O 0.3889(3) 0.4150(2) 0.8370(9)
O11 O 0.3547(2) 0.3027(3) 0.9335(8)
H2 H 0.156372 0.295526 0.963718
Cu6 Cu 0.94676(5) 0.31802(7) 0.9909(2)
Cu6_2 Cu 0.37127(9) 0.05324(5) 0.9909(2)
Cu7_2 Cu 0.05324(9) 0.68198(7) 0.0091(2)
C1_2 C 0.1517(4) 0.8391(3) 0.1253(13)
C2_2 C 0.2070(6) 0.8798(4) 0.1982(15)
C3_2 C 0.1096(6) 0.7906(4) 0.2544(12)
C4_2 C 0.2464(5) 0.9234(3) 0.0326(13)
O1_2 O 0.0556(3) 0.7483(2) 0.1703(9)
O3_2 O 0.3027(3) 0.9480(2) 0.0665(8)
C5_2 C 0.1816(4) 0.8276(3) 0.5414(13)
C6_2 C 0.1263(6) 0.7869(4) 0.4685(15)
C7_2 C 0.2237(6) 0.8761(4) 0.4123(12)
C8_2 C 0.0869(5) 0.7433(3) 0.6341(13)
O4_2 O 0.2777(3) 0.9184(2) 0.4964(9)
O5_2 O 0.1076(3) 0.7331(2) 0.7967(10)
O6_2 O 0.0306(3) 0.7187(2) 0.6002(8)
Cu4_2 Cu 0.28009(9) 0.98469(7) 0.6576(2)
Cu8_2 Cu 0.34864(7) 0.96207(5) 0.3243(2)
O12_2 O 0.0214(4) 0.6360(3) 0.2668(8)
H1_2 H 0.194179 0.823038 0.702948
O2_2 O 0.2257(3) 0.9336(2) 0.8700(10)
O8_2 O 0.0260(4) 0.6111(3) 0.8370(9)
H2_2 H 0.139154 0.843628 0.963718
Cu1_2 Cu 0.98469(7) 0.70460(5) 0.3424(2)
Cu5_2 Cu 0.96207(9) 0.61342(5) 0.6757(2)
O7_2 O 0.9184(4) 0.6406(2) 0.5036(9)
O9_2 O 0.9336(4) 0.7079(2) 0.1300(10)
O11_2 O 0.9480(4) 0.6453(2) 0.9335(8)
Cu1_3 Cu 0.71991(5) 0.01531(7) 0.3424(2)
Cu5_3 Cu 0.65136(7) 0.03793(9) 0.6757(2)
O7_3 O 0.7223(3) 0.0816(4) 0.5036(9)
O9_3 O 0.7743(3) 0.0664(4) 0.1300(10)
O11_3 O 0.6973(3) 0.0520(4) 0.9335(8)
Cu7_3 Cu 0.62873(5) 0.94676(9) 0.0091(2)
C1_3 C 0.6874(3) 0.8483(4) 0.1253(13)
C2_3 C 0.6728(4) 0.7930(6) 0.1982(15)
C3_3 C 0.6810(4) 0.8904(6) 0.2544(12)
C4_3 C 0.6770(4) 0.7536(5) 0.0326(13)
O1_3 O 0.6927(2) 0.9444(3) 0.1703(9)
O3_3 O 0.6453(2) 0.6973(3) 0.0665(8)
C5_3 C 0.6459(3) 0.8184(4) 0.5414(13)
C6_3 C 0.6605(4) 0.8737(6) 0.4685(15)
C7_3 C 0.6523(4) 0.7763(6) 0.4123(12)
C8_3 C 0.6563(4) 0.9131(5) 0.6341(13)
O4_3 O 0.6406(2) 0.7223(3) 0.4964(9)
O5_3 O 0.6254(2) 0.8924(3) 0.7967(10)
O6_3 O 0.6880(2) 0.9694(3) 0.6002(8)
Cu4_3 Cu 0.70460(5) 0.71991(9) 0.6576(2)
Cu8_3 Cu 0.61342(5) 0.65136(7) 0.3243(2)
O12_3 O 0.6147(2) 0.9786(4) 0.2668(8)
H1_3 H 0.628859 0.805821 0.702948
O2_3 O 0.7079(2) 0.7743(3) 0.8700(10)
Cu6_3 Cu 0.68198(7) 0.62873(9) 0.9909(2)
O8_3 O 0.5850(2) 0.9740(4) 0.8370(9)
H2_3 H 0.704474 0.860846 0.963718
H1_4 H 0.843628 0.704474 0.0362817
C1_4 C 0.8276(3) 0.6459(3) 0.4586(13)
C2_4 C 0.7869(4) 0.6605(4) 0.5315(15)
C3_4 C 0.8761(4) 0.6523(4) 0.5877(12)
C4_4 C 0.7433(3) 0.6563(4) 0.3659(13)
O2_4 O 0.7331(2) 0.6254(2) 0.2033(10)
O3_4 O 0.7187(2) 0.6880(2) 0.3998(8)
C5_4 C 0.8391(3) 0.6874(3) 0.8747(13)
C6_4 C 0.8798(4) 0.6728(4) 0.8018(15)
C7_4 C 0.7906(4) 0.6810(4) 0.7456(12)
C8_4 C 0.9234(3) 0.6770(4) 0.9674(13)
O4_4 O 0.7483(2) 0.6927(2) 0.8297(9)
O9_4 O 0.9588(2) 0.5590(3) 0.4633(10)
H2_4 H 0.823038 0.628859 0.297052
H1_5 H 0.860846 0.156372 0.0362817
C1_5 C 0.8184(4) 0.1724(3) 0.4586(13)
C2_5 C 0.8737(6) 0.2131(4) 0.5315(15)
C3_5 C 0.7763(6) 0.1239(4) 0.5877(12)
C4_5 C 0.9131(5) 0.2567(3) 0.3659(13)
O2_5 O 0.8924(3) 0.2669(2) 0.2033(10)
O3_5 O 0.9694(3) 0.2813(2) 0.3998(8)
C5_5 C 0.8483(4) 0.1609(3) 0.8747(13)
C6_5 C 0.7930(6) 0.1202(4) 0.8018(15)
C7_5 C 0.8904(6) 0.2094(4) 0.7456(12)
C8_5 C 0.7536(5) 0.0766(3) 0.9674(13)
O4_5 O 0.9444(3) 0.2517(2) 0.8297(9)
O9_5 O 0.6003(4) 0.0412(2) 0.4633(10)
H2_5 H 0.805821 0.176962 0.297052
H1_6 H 0.295526 0.139154 0.0362817
C1_6 C 0.3541(3) 0.1816(4) 0.4586(13)
C2_6 C 0.3395(4) 0.1263(6) 0.5315(15)
C3_6 C 0.3477(4) 0.2237(6) 0.5877(12)
C4_6 C 0.3437(4) 0.0869(5) 0.3659(13)
O2_6 O 0.3746(2) 0.1076(3) 0.2033(10)
O3_6 O 0.3120(2) 0.0306(3) 0.3998(8)
C5_6 C 0.3126(3) 0.1517(4) 0.8747(13)
C6_6 C 0.3272(4) 0.2070(6) 0.8018(15)
C7_6 C 0.3190(4) 0.1096(6) 0.7456(12)
C8_6 C 0.3230(4) 0.2464(5) 0.9674(13)
O4_6 O 0.3073(2) 0.0556(3) 0.8297(9)
O9_6 O 0.4410(3) 0.3997(4) 0.4633(10)
H2_6 H 0.371141 0.194179 0.297052
C5_7 C 0.5058(3) 0.0207(3) 0.2080(13)
C6_7 C 0.5465(4) 0.0061(4) 0.1351(15)
C7_7 C 0.4573(4) 0.0143(4) 0.0789(12)
C8_7 C 0.5901(3) 0.0103(4) 0.3007(13)
O4_7 O 0.4150(2) 0.0260(2) 0.1630(9)
H1_7 H 0.510295 0.0378075 0.369615
O3_7 O 0.3853(2) 0.0214(2) 0.7332(8)
C1_7 C 0.4942(3) 0.9793(3) 0.7920(13)
C2_7 C 0.4535(4) 0.9939(4) 0.8649(15)
C3_7 C 0.5427(4) 0.9857(4) 0.9211(12)
C4_7 C 0.4099(3) 0.9897(4) 0.6993(13)
O2_7 O 0.3997(2) 0.9588(2) 0.5367(10)
H2_7 H 0.489705 0.962193 0.630385
C5_8 C 0.5150(4) 0.4942(3) 0.2080(13)
C6_8 C 0.4597(6) 0.4535(4) 0.1351(15)
C7_8 C 0.5571(6) 0.5427(4) 0.0789(12)
C8_8 C 0.4203(5) 0.4099(3) 0.3007(13)
O4_8 O 0.6111(3) 0.5850(2) 0.1630(9)
H1_8 H 0.527512 0.489705 0.369615
C1_8 C 0.4850(4) 0.5058(3) 0.7920(13)
C2_8 C 0.5403(6) 0.5465(4) 0.8649(15)
C3_8 C 0.4429(6) 0.4573(4) 0.9211(12)
C4_8 C 0.5797(5) 0.5901(3) 0.6993(13)
O2_8 O 0.5590(3) 0.6003(2) 0.5367(10)
O3_8 O 0.6360(3) 0.6147(2) 0.7332(8)
H2_8 H 0.472488 0.510295 0.630385
C1_9 C 0.0207(3) 0.5150(4) 0.7920(13)
C2_9 C 0.0061(4) 0.4597(6) 0.8649(15)
C3_9 C 0.0143(4) 0.5571(6) 0.9211(12)
C4_9 C 0.0103(4) 0.4203(5) 0.6993(13)
O2_9 O 0.0412(2) 0.4410(3) 0.5367(10)
H2_9 H 0.0378075 0.527512 0.630385
C5_9 C 0.9793(3) 0.4850(4) 0.2080(13)
C6_9 C 0.9939(4) 0.5403(6) 0.1351(15)
C7_9 C 0.9857(4) 0.4429(6) 0.0789(12)
C8_9 C 0.9897(4) 0.5797(5) 0.3007(13)
O4_9 O 0.9740(2) 0.3889(3) 0.1630(9)
H1_9 H 0.962193 0.472488 0.369615
O3_9 O 0.9786(2) 0.3640(3) 0.7332(8)
loop_
_geom_bond_atom_site_label_1
_geom_bond_atom_site_label_2
_geom_bond_site_symmetry_1
_geom_bond_site_symmetry_2
Cu1 O1 1_555 1_555
C1 C2 1_555 1_555
C2 C4 1_555 1_555
C3 C1 1_555 1_555
O1 C3 1_555 1_555
O3 C4 1_555 1_555
C5 C6 1_555 1_555
C6 C3 1_555 1_555
C7 C2 1_555 1_555
C8 C6 1_555 1_555
O4 C7 1_555 1_555
O5 C8 1_555 1_555
O6 Cu1 1_555 1_555
Cu7 O1 1_555 1_555
Cu4 O4 1_555 1_555
Cu5 O6 1_555 1_555
Cu8 O3 1_555 1_555
O7 Cu1 1_555 1_555
O9 Cu1 1_555 1_555
O12 Cu1 1_555 1_555
C5 C7 1_555 1_555
C8 O6 1_555 1_555
O4 Cu8 1_555 1_555
Cu7 O12 1_555 1_555
Cu5 O7 1_555 1_555
C5 H1 1_555 1_555
O2 Cu4 1_555 1_555
C1_2 C2_2 1_555 1_555
C2_2 C4_2 1_555 1_555
C3_2 C1_2 1_555 1_555
O1_2 C3_2 1_555 1_555
O3_2 C4_2 1_555 1_555
C5_2 C6_2 1_555 1_555
C6_2 C3_2 1_555 1_555
C7_2 C2_2 1_555 1_555
C8_2 C6_2 1_555 1_555
O4_2 C7_2 1_555 1_555
O5_2 C8_2 1_555 1_555
Cu7_2 O1_2 1_555 1_555
Cu4_2 O4_2 1_555 1_555
Cu8_2 O3_2 1_555 1_555
C5_2 C7_2 1_555 1_555
C8_2 O6_2 1_555 1_555
O4_2 Cu8_2 1_555 1_555
Cu7_2 O12_2 1_555 1_555
C5_2 H1_2 1_555 1_555
O2_2 Cu4_2 1_555 1_555
O7_2 Cu1_2 1_555 1_555
O9_2 Cu1_2 1_555 1_555
Cu5_2 O7_2 1_555 1_555
O7_3 Cu1_3 1_555 1_555
O9_3 Cu1_3 1_555 1_555
Cu5_3 O7_3 1_555 1_555
C1_3 C2_3 1_555 1_555
C2_3 C4_3 1_555 1_555
C3_3 C1_3 1_555 1_555
O1_3 C3_3 1_555 1_555
O3_3 C4_3 1_555 1_555
C5_3 C6_3 1_555 1_555
C6_3 C3_3 1_555 1_555
C7_3 C2_3 1_555 1_555
C8_3 C6_3 1_555 1_555
O4_3 C7_3 1_555 1_555
O5_3 C8_3 1_555 1_555
Cu7_3 O1_3 1_555 1_555
Cu4_3 O4_3 1_555 1_555
Cu8_3 O3_3 1_555 1_555
C5_3 C7_3 1_555 1_555
C8_3 O6_3 1_555 1_555
O4_3 Cu8_3 1_555 1_555
Cu7_3 O12_3 1_555 1_555
C5_3 H1_3 1_555 1_555
O2_3 Cu4_3 1_555 1_555
C1_4 C2_4 1_555 1_555
C2_4 C4_4 1_555 1_555
C3_4 C1_4 1_555 1_555
C4_4 O2_4 1_555 1_555
O7_2 C3_4 1_555 1_555
O3_4 C4_4 1_555 1_555
C5_4 C6_4 1_555 1_555
C6_4 C3_4 1_555 1_555
C7_4 C2_4 1_555 1_555
C8_4 C6_4 1_555 1_555
O4_4 C7_4 1_555 1_555
O11_2 Cu5_2 1_555 1_555
Cu6_3 O4_4 1_555 1_555
Cu8_3 O3_4 1_555 1_555
Cu4_3 O3_4 1_555 1_555
O9_4 Cu5_2 1_555 1_555
C5_4 C7_4 1_555 1_555
C8_4 O11_2 1_555 1_555
O4_4 Cu4_3 1_555 1_555
C1_4 H2_4 1_555 1_555
C1_5 C2_5 1_555 1_555
C2_5 C4_5 1_555 1_555
C3_5 C1_5 1_555 1_555
C4_5 O2_5 1_555 1_555
O7_3 C3_5 1_555 1_555
O3_5 C4_5 1_555 1_555
C5_5 C6_5 1_555 1_555
C6_5 C3_5 1_555 1_555
C7_5 C2_5 1_555 1_555
C8_5 C6_5 1_555 1_555
O4_5 C7_5 1_555 1_555
O11_3 Cu5_3 1_555 1_555
Cu6 O4_5 1_555 1_555
O9_5 Cu5_3 1_555 1_555
C5_5 C7_5 1_555 1_555
C8_5 O11_3 1_555 1_555
C1_5 H2_5 1_555 1_555
C1_6 C2_6 1_555 1_555
C2_6 C4_6 1_555 1_555
C3_6 C1_6 1_555 1_555
C4_6 O2_6 1_555 1_555
O7 C3_6 1_555 1_555
O3_6 C4_6 1_555 1_555
C5_6 C6_6 1_555 1_555
C6_6 C3_6 1_555 1_555
C7_6 C2_6 1_555 1_555
C8_6 C6_6 1_555 1_555
O4_6 C7_6 1_555 1_555
O11 Cu5 1_555 1_555
Cu6_2 O4_6 1_555 1_555
O8 Cu5 1_555 1_555
O9_6 Cu5 1_555 1_555
C5_6 C7_6 1_555 1_555
C8_6 O11 1_555 1_555
C1_6 H2_6 1_555 1_555
C5_7 C6_7 1_555 1_555
C8_7 C6_7 1_555 1_555
O4_7 C7_7 1_555 1_555
O9_5 C8_7 1_555 1_555
C5_7 C7_7 1_555 1_555
C5_7 H1_7 1_555 1_555
Cu6_2 O3_7 1_555 1_555
C1_7 C2_7 1_555 1_555
C2_7 C4_7 1_555 1_555
C3_7 C1_7 1_555 1_555
C4_7 O2_7 1_555 1_555
O8_3 C3_7 1_555 1_555
O2_7 Cu8_2 1_555 1_555
C1_7 H2_7 1_555 1_555
C5_8 C6_8 1_555 1_555
C8_8 C6_8 1_555 1_555
O4_8 C7_8 1_555 1_555
O9_6 C8_8 1_555 1_555
Cu8_3 O4_8 1_555 1_555
C5_8 C7_8 1_555 1_555
C8_8 O12 1_555 1_555
C5_8 H1_8 1_555 1_555
C1_8 C2_8 1_555 1_555
C2_8 C4_8 1_555 1_555
C3_8 C1_8 1_555 1_555
C4_8 O2_8 1_555 1_555
O8 C3_8 1_555 1_555
O2_8 Cu8_3 1_555 1_555
O3_8 C4_8 1_555 1_555
Cu4_3 O3_8 1_555 1_555
Cu6_3 O3_8 1_555 1_555
C1_8 H2_8 1_555 1_555
C1_9 C2_9 1_555 1_555
C2_9 C4_9 1_555 1_555
C3_9 C1_9 1_555 1_555
C4_9 O2_9 1_555 1_555
O8_2 C3_9 1_555 1_555
O2_9 Cu8 1_555 1_555
C1_9 H2_9 1_555 1_555
C5_9 C6_9 1_555 1_555
C8_9 C6_9 1_555 1_555
O4_9 C7_9 1_555 1_555
O9_4 C8_9 1_555 1_555
C5_9 C7_9 1_555 1_555
C5_9 H1_9 1_555 1_555
Cu6 O3_9 1_555 1_555

#END
