
###############################################################################
#
# This file contains modified crystal structure data generated from the
# MOF subset of the Cambridge Structural Database (CSD) v543 
# hosted by the Cambridge Crystallographic Data Centre (CCDC).
#
# This work is licensed under the Creative Commons
# Attribution-NonCommercial-ShareAlike 4.0 International License.
# To view a copy of this license, visit
# http://creativecommons.org/licenses/by-nc-sa/4.0/
# or send a letter to
# Creative Commons, PO Box 1866, Mountain View, CA 94042, USA.
#
# CIF created using the CSD Python API on 29 September 2022
# The structure has been converted into the P1 space group
# The structure has a 3D framework
# The original CSD entry MOKYAP67 is in the rhombohedral crystal system
# The framework has been calculated to contain at least 10.0% void space
# The void calculation uses a probe of radius 1.32A, grid spacing 0.4
# H atom positions have been added when not included in the experimental data
#
###############################################################################

data_MOKYAP67
_chemical_formula_moiety         '(C72 H18 Cu7 O44)n'
_symmetry_cell_setting           triclinic
_symmetry_space_group_name_H-M   'P 1'
_symmetry_Int_Tables_number      1
_space_group_name_Hall           'P 1'
loop_
_symmetry_equiv_pos_site_id
_symmetry_equiv_pos_as_xyz
1 x,y,z
_cell_length_a                   25.9151(3)
_cell_length_b                   25.9151(3)
_cell_length_c                   6.27484(7)
_cell_angle_alpha                90
_cell_angle_beta                 90
_cell_angle_gamma                120
_cell_volume                     3649.55
loop_
_atom_site_label
_atom_site_type_symbol
_atom_site_fract_x
_atom_site_fract_y
_atom_site_fract_z
_atom_site_U_iso_or_equiv
_atom_site_thermal_displace_type
Cu7 Cu 0.31802(7) 0.37129(5) 0.0091(2) 0.0105 Uiso
Cu1 Cu 0.29538(5) 0.28007(5) 0.3424(2) 0.0105 Uiso
C1 C 0.1610(3) 0.3127(3) 0.1241(13) 0.0067 Uiso
C2 C 0.1202(4) 0.3269(4) 0.1980(15) 0.0152 Uiso
C3 C 0.2093(4) 0.3191(4) 0.2559(12) 0.0063 Uiso
C4 C 0.0768(3) 0.3237(4) 0.0320(13) 0.0076 Uiso
O1 O 0.2516(2) 0.3074(2) 0.1698(9) 0.0054 Uiso
O3 O 0.0519(2) 0.3547(2) 0.0675(8) 0.0053 Uiso
C5 C 0.1723(3) 0.3540(3) 0.5426(13) 0.0067 Uiso
C6 C 0.2131(4) 0.3398(4) 0.4687(15) 0.0152 Uiso
C7 C 0.1240(4) 0.3476(4) 0.4108(12) 0.0063 Uiso
C8 C 0.2565(3) 0.3430(4) 0.6347(13) 0.0076 Uiso
O4 O 0.0817(2) 0.3593(2) 0.4969(9) 0.0054 Uiso
O5 O 0.2666(2) 0.3746(2) 0.7970(9) 0.0130 Uiso
O6 O 0.2814(2) 0.3120(2) 0.5992(8) 0.0053 Uiso
Cu4 Cu 0.01531(7) 0.29538(5) 0.6576(2) 0.0105 Uiso
Cu5 Cu 0.38660(5) 0.34864(7) 0.6757(2) 0.0105 Uiso
Cu8 Cu 0.03795(5) 0.38660(5) 0.3243(2) 0.0105 Uiso
O7 O 0.3593(2) 0.2775(3) 0.5031(9) 0.0054 Uiso
O9 O 0.2921(2) 0.2254(3) 0.1303(9) 0.0130 Uiso
O12 O 0.3639(3) 0.3852(2) 0.2658(8) 0.0053 Uiso
H2 H 0.176371 0.370506 0.704786 . .
O2 O 0.0667(2) 0.2921(2) 0.8697(9) 0.0130 Uiso
O8 O 0.3891(3) 0.4151(2) 0.8365(9) 0.0054 Uiso
O11 O 0.3547(2) 0.3028(3) 0.9325(8) 0.0053 Uiso
H1 H 0.156962 0.296161 0.961881 . .
Cu6 Cu 0.94674(5) 0.31802(7) 0.9909(2) 0.0105 Uiso
Cu6_2 Cu 0.37129(9) 0.05326(5) 0.9909(2) 0.0105 Uiso
Cu7_2 Cu 0.05326(9) 0.68198(7) 0.0091(2) 0.0105 Uiso
C1_2 C 0.1517(4) 0.8390(3) 0.1241(13) 0.0067 Uiso
C2_2 C 0.2067(6) 0.8798(4) 0.1980(15) 0.0152 Uiso
C3_2 C 0.1098(6) 0.7907(4) 0.2559(12) 0.0063 Uiso
C4_2 C 0.2469(5) 0.9232(3) 0.0320(13) 0.0076 Uiso
O1_2 O 0.0558(3) 0.7484(2) 0.1698(9) 0.0054 Uiso
O3_2 O 0.3028(3) 0.9481(2) 0.0675(8) 0.0053 Uiso
C5_2 C 0.1816(4) 0.8277(3) 0.5426(13) 0.0067 Uiso
C6_2 C 0.1266(6) 0.7869(4) 0.4687(15) 0.0152 Uiso
C7_2 C 0.2235(6) 0.8760(4) 0.4108(12) 0.0063 Uiso
C8_2 C 0.0864(5) 0.7435(3) 0.6347(13) 0.0076 Uiso
O4_2 O 0.2775(3) 0.9183(2) 0.4969(9) 0.0054 Uiso
O5_2 O 0.1079(3) 0.7334(2) 0.7970(9) 0.0130 Uiso
O6_2 O 0.0305(3) 0.7186(2) 0.5992(8) 0.0053 Uiso
Cu4_2 Cu 0.28007(9) 0.98469(7) 0.6576(2) 0.0105 Uiso
Cu8_2 Cu 0.34864(7) 0.96205(5) 0.3243(2) 0.0105 Uiso
O12_2 O 0.0214(4) 0.6361(3) 0.2658(8) 0.0053 Uiso
H2_2 H 0.194134 0.823629 0.704786 . .
O2_2 O 0.2254(3) 0.9333(2) 0.8697(9) 0.0130 Uiso
O8_2 O 0.0259(4) 0.6109(3) 0.8365(9) 0.0054 Uiso
H1_2 H 0.139199 0.843038 0.961881 . .
Cu1_2 Cu 0.98469(7) 0.70462(5) 0.3424(2) 0.0105 Uiso
Cu5_2 Cu 0.96205(9) 0.61340(5) 0.6757(2) 0.0105 Uiso
O7_2 O 0.9183(4) 0.6407(2) 0.5031(9) 0.0054 Uiso
O9_2 O 0.9333(4) 0.7079(2) 0.1303(9) 0.0130 Uiso
O11_2 O 0.9481(4) 0.6453(2) 0.9325(8) 0.0053 Uiso
Cu1_3 Cu 0.71993(5) 0.01531(7) 0.3424(2) 0.0105 Uiso
Cu5_3 Cu 0.65136(7) 0.03795(9) 0.6757(2) 0.0105 Uiso
O7_3 O 0.7225(3) 0.0817(4) 0.5031(9) 0.0054 Uiso
O9_3 O 0.7746(3) 0.0667(4) 0.1303(9) 0.0130 Uiso
O11_3 O 0.6972(3) 0.0519(4) 0.9325(8) 0.0053 Uiso
Cu7_3 Cu 0.62871(5) 0.94674(9) 0.0091(2) 0.0105 Uiso
C1_3 C 0.6873(3) 0.8483(4) 0.1241(13) 0.0067 Uiso
C2_3 C 0.6731(4) 0.7933(6) 0.1980(15) 0.0152 Uiso
C3_3 C 0.6809(4) 0.8902(6) 0.2559(12) 0.0063 Uiso
C4_3 C 0.6763(4) 0.7531(5) 0.0320(13) 0.0076 Uiso
O1_3 O 0.6926(2) 0.9442(3) 0.1698(9) 0.0054 Uiso
O3_3 O 0.6453(2) 0.6972(3) 0.0675(8) 0.0053 Uiso
C5_3 C 0.6460(3) 0.8184(4) 0.5426(13) 0.0067 Uiso
C6_3 C 0.6602(4) 0.8734(6) 0.4687(15) 0.0152 Uiso
C7_3 C 0.6524(4) 0.7765(6) 0.4108(12) 0.0063 Uiso
C8_3 C 0.6570(4) 0.9136(5) 0.6347(13) 0.0076 Uiso
O4_3 O 0.6407(2) 0.7225(3) 0.4969(9) 0.0054 Uiso
O5_3 O 0.6254(2) 0.8921(3) 0.7970(9) 0.0130 Uiso
O6_3 O 0.6880(2) 0.9695(3) 0.5992(8) 0.0053 Uiso
Cu4_3 Cu 0.70462(5) 0.71993(9) 0.6576(2) 0.0105 Uiso
Cu8_3 Cu 0.61340(5) 0.65136(7) 0.3243(2) 0.0105 Uiso
O12_3 O 0.6148(2) 0.9786(4) 0.2658(8) 0.0053 Uiso
H2_3 H 0.629494 0.805866 0.704786 . .
O2_3 O 0.7079(2) 0.7746(3) 0.8697(9) 0.0130 Uiso
Cu6_3 Cu 0.68198(7) 0.62871(9) 0.9909(2) 0.0105 Uiso
O8_3 O 0.5849(2) 0.9741(4) 0.8365(9) 0.0054 Uiso
H1_3 H 0.703839 0.860801 0.961881 . .
H2_4 H 0.843038 0.703839 0.038119 . .
C1_4 C 0.8277(3) 0.6460(3) 0.4574(13) 0.0067 Uiso
C2_4 C 0.7869(4) 0.6602(4) 0.5313(15) 0.0152 Uiso
C3_4 C 0.8760(4) 0.6524(4) 0.5892(12) 0.0063 Uiso
C4_4 C 0.7435(3) 0.6570(4) 0.3653(13) 0.0076 Uiso
O2_4 O 0.7334(2) 0.6254(2) 0.2030(9) 0.0130 Uiso
O3_4 O 0.7186(2) 0.6880(2) 0.4008(8) 0.0053 Uiso
C5_4 C 0.8390(3) 0.6873(3) 0.8759(13) 0.0067 Uiso
C6_4 C 0.8798(4) 0.6731(4) 0.8020(15) 0.0152 Uiso
C7_4 C 0.7907(4) 0.6809(4) 0.7441(12) 0.0063 Uiso
C8_4 C 0.9232(3) 0.6763(4) 0.9680(13) 0.0076 Uiso
O4_4 O 0.7484(2) 0.6926(2) 0.8302(9) 0.0054 Uiso
O9_4 O 0.9588(2) 0.5587(3) 0.4636(9) 0.0130 Uiso
H1_4 H 0.823629 0.629494 0.295214 . .
H2_5 H 0.860801 0.156962 0.038119 . .
C1_5 C 0.8184(4) 0.1723(3) 0.4574(13) 0.0067 Uiso
C2_5 C 0.8734(6) 0.2131(4) 0.5313(15) 0.0152 Uiso
C3_5 C 0.7765(6) 0.1240(4) 0.5892(12) 0.0063 Uiso
C4_5 C 0.9136(5) 0.2565(3) 0.3653(13) 0.0076 Uiso
O2_5 O 0.8921(3) 0.2666(2) 0.2030(9) 0.0130 Uiso
O3_5 O 0.9695(3) 0.2814(2) 0.4008(8) 0.0053 Uiso
C5_5 C 0.8483(4) 0.1610(3) 0.8759(13) 0.0067 Uiso
C6_5 C 0.7933(6) 0.1202(4) 0.8020(15) 0.0152 Uiso
C7_5 C 0.8902(6) 0.2093(4) 0.7441(12) 0.0063 Uiso
C8_5 C 0.7531(5) 0.0768(3) 0.9680(13) 0.0076 Uiso
O4_5 O 0.9442(3) 0.2516(2) 0.8302(9) 0.0054 Uiso
O9_5 O 0.6000(4) 0.0412(2) 0.4636(9) 0.0130 Uiso
H1_5 H 0.805866 0.176371 0.295214 . .
H2_6 H 0.296161 0.139199 0.038119 . .
C1_6 C 0.3540(3) 0.1816(4) 0.4574(13) 0.0067 Uiso
C2_6 C 0.3398(4) 0.1266(6) 0.5313(15) 0.0152 Uiso
C3_6 C 0.3476(4) 0.2235(6) 0.5892(12) 0.0063 Uiso
C4_6 C 0.3430(4) 0.0864(5) 0.3653(13) 0.0076 Uiso
O2_6 O 0.3746(2) 0.1079(3) 0.2030(9) 0.0130 Uiso
O3_6 O 0.3120(2) 0.0305(3) 0.4008(8) 0.0053 Uiso
C5_6 C 0.3127(3) 0.1517(4) 0.8759(13) 0.0067 Uiso
C6_6 C 0.3269(4) 0.2067(6) 0.8020(15) 0.0152 Uiso
C7_6 C 0.3191(4) 0.1098(6) 0.7441(12) 0.0063 Uiso
C8_6 C 0.3237(4) 0.2469(5) 0.9680(13) 0.0076 Uiso
O4_6 O 0.3074(2) 0.0558(3) 0.8302(9) 0.0054 Uiso
O9_6 O 0.4413(3) 0.4000(4) 0.4636(9) 0.0130 Uiso
H1_6 H 0.370506 0.194134 0.295214 . .
C5_7 C 0.5057(3) 0.0206(3) 0.2092(13) 0.0067 Uiso
C6_7 C 0.5465(4) 0.0064(4) 0.1353(15) 0.0152 Uiso
C7_7 C 0.4574(4) 0.0142(4) 0.0774(12) 0.0063 Uiso
C8_7 C 0.5899(3) 0.0096(4) 0.3013(13) 0.0076 Uiso
O4_7 O 0.4151(2) 0.0259(2) 0.1635(9) 0.0054 Uiso
H2_7 H 0.509705 0.0371723 0.371452 . .
O3_7 O 0.3852(2) 0.0214(2) 0.7342(8) 0.0053 Uiso
C1_7 C 0.4943(3) 0.9794(3) 0.7908(13) 0.0067 Uiso
C2_7 C 0.4535(4) 0.9936(4) 0.8647(15) 0.0152 Uiso
C3_7 C 0.5426(4) 0.9858(4) 0.9226(12) 0.0063 Uiso
C4_7 C 0.4101(3) 0.9904(4) 0.6987(13) 0.0076 Uiso
O2_7 O 0.4000(2) 0.9588(2) 0.5364(9) 0.0130 Uiso
H1_7 H 0.490295 0.962828 0.628548 . .
C5_8 C 0.5150(4) 0.4943(3) 0.2092(13) 0.0067 Uiso
C6_8 C 0.4600(6) 0.4535(4) 0.1353(15) 0.0152 Uiso
C7_8 C 0.5569(6) 0.5426(4) 0.0774(12) 0.0063 Uiso
C8_8 C 0.4198(5) 0.4101(3) 0.3013(13) 0.0076 Uiso
O4_8 O 0.6109(3) 0.5849(2) 0.1635(9) 0.0054 Uiso
H2_8 H 0.527468 0.490295 0.371452 . .
C1_8 C 0.4850(4) 0.5057(3) 0.7908(13) 0.0067 Uiso
C2_8 C 0.5400(6) 0.5465(4) 0.8647(15) 0.0152 Uiso
C3_8 C 0.4431(6) 0.4574(4) 0.9226(12) 0.0063 Uiso
C4_8 C 0.5802(5) 0.5899(3) 0.6987(13) 0.0076 Uiso
O2_8 O 0.5587(3) 0.6000(2) 0.5364(9) 0.0130 Uiso
O3_8 O 0.6361(3) 0.6148(2) 0.7342(8) 0.0053 Uiso
H1_8 H 0.472532 0.509705 0.628548 . .
C1_9 C 0.0206(3) 0.5150(4) 0.7908(13) 0.0067 Uiso
C2_9 C 0.0064(4) 0.4600(6) 0.8647(15) 0.0152 Uiso
C3_9 C 0.0142(4) 0.5569(6) 0.9226(12) 0.0063 Uiso
C4_9 C 0.0096(4) 0.4198(5) 0.6987(13) 0.0076 Uiso
O2_9 O 0.0412(2) 0.4413(3) 0.5364(9) 0.0130 Uiso
H1_9 H 0.0371723 0.527468 0.628548 . .
C5_9 C 0.9794(3) 0.4850(4) 0.2092(13) 0.0067 Uiso
C6_9 C 0.9936(4) 0.5400(6) 0.1353(15) 0.0152 Uiso
C7_9 C 0.9858(4) 0.4431(6) 0.0774(12) 0.0063 Uiso
C8_9 C 0.9904(4) 0.5802(5) 0.3013(13) 0.0076 Uiso
O4_9 O 0.9741(2) 0.3891(3) 0.1635(9) 0.0054 Uiso
H2_9 H 0.962828 0.472532 0.371452 . .
O3_9 O 0.9786(2) 0.3639(3) 0.7342(8) 0.0053 Uiso
loop_
_geom_bond_atom_site_label_1
_geom_bond_atom_site_label_2
_geom_bond_site_symmetry_1
_geom_bond_site_symmetry_2
Cu1 O1 1_555 1_555
C1 C2 1_555 1_555
C2 C4 1_555 1_555
C3 C1 1_555 1_555
O1 C3 1_555 1_555
O3 C4 1_555 1_555
C5 C6 1_555 1_555
C6 C3 1_555 1_555
C7 C2 1_555 1_555
C8 C6 1_555 1_555
O4 C7 1_555 1_555
O5 C8 1_555 1_555
O6 Cu1 1_555 1_555
Cu7 O1 1_555 1_555
Cu4 O4 1_555 1_555
Cu5 O6 1_555 1_555
Cu8 O3 1_555 1_555
O7 Cu1 1_555 1_555
O9 Cu1 1_555 1_555
O12 Cu1 1_555 1_555
C5 C7 1_555 1_555
C8 O6 1_555 1_555
O4 Cu8 1_555 1_555
Cu7 O12 1_555 1_555
Cu5 O7 1_555 1_555
C5 H2 1_555 1_555
O2 Cu4 1_555 1_555
C1_2 C2_2 1_555 1_555
C2_2 C4_2 1_555 1_555
C3_2 C1_2 1_555 1_555
O1_2 C3_2 1_555 1_555
O3_2 C4_2 1_555 1_555
C5_2 C6_2 1_555 1_555
C6_2 C3_2 1_555 1_555
C7_2 C2_2 1_555 1_555
C8_2 C6_2 1_555 1_555
O4_2 C7_2 1_555 1_555
O5_2 C8_2 1_555 1_555
Cu7_2 O1_2 1_555 1_555
Cu4_2 O4_2 1_555 1_555
Cu8_2 O3_2 1_555 1_555
C5_2 C7_2 1_555 1_555
C8_2 O6_2 1_555 1_555
O4_2 Cu8_2 1_555 1_555
Cu7_2 O12_2 1_555 1_555
C5_2 H2_2 1_555 1_555
O2_2 Cu4_2 1_555 1_555
O7_2 Cu1_2 1_555 1_555
O9_2 Cu1_2 1_555 1_555
Cu5_2 O7_2 1_555 1_555
O7_3 Cu1_3 1_555 1_555
O9_3 Cu1_3 1_555 1_555
Cu5_3 O7_3 1_555 1_555
C1_3 C2_3 1_555 1_555
C2_3 C4_3 1_555 1_555
C3_3 C1_3 1_555 1_555
O1_3 C3_3 1_555 1_555
O3_3 C4_3 1_555 1_555
C5_3 C6_3 1_555 1_555
C6_3 C3_3 1_555 1_555
C7_3 C2_3 1_555 1_555
C8_3 C6_3 1_555 1_555
O4_3 C7_3 1_555 1_555
O5_3 C8_3 1_555 1_555
Cu7_3 O1_3 1_555 1_555
Cu4_3 O4_3 1_555 1_555
Cu8_3 O3_3 1_555 1_555
C5_3 C7_3 1_555 1_555
C8_3 O6_3 1_555 1_555
O4_3 Cu8_3 1_555 1_555
Cu7_3 O12_3 1_555 1_555
C5_3 H2_3 1_555 1_555
O2_3 Cu4_3 1_555 1_555
C1_4 C2_4 1_555 1_555
C2_4 C4_4 1_555 1_555
C3_4 C1_4 1_555 1_555
C4_4 O2_4 1_555 1_555
O7_2 C3_4 1_555 1_555
O3_4 C4_4 1_555 1_555
C5_4 C6_4 1_555 1_555
C6_4 C3_4 1_555 1_555
C7_4 C2_4 1_555 1_555
C8_4 C6_4 1_555 1_555
O4_4 C7_4 1_555 1_555
O11_2 Cu5_2 1_555 1_555
Cu6_3 O4_4 1_555 1_555
Cu8_3 O3_4 1_555 1_555
Cu4_3 O3_4 1_555 1_555
O9_4 Cu5_2 1_555 1_555
C5_4 C7_4 1_555 1_555
C8_4 O11_2 1_555 1_555
O4_4 Cu4_3 1_555 1_555
C1_4 H1_4 1_555 1_555
C1_5 C2_5 1_555 1_555
C2_5 C4_5 1_555 1_555
C3_5 C1_5 1_555 1_555
C4_5 O2_5 1_555 1_555
O7_3 C3_5 1_555 1_555
O3_5 C4_5 1_555 1_555
C5_5 C6_5 1_555 1_555
C6_5 C3_5 1_555 1_555
C7_5 C2_5 1_555 1_555
C8_5 C6_5 1_555 1_555
O4_5 C7_5 1_555 1_555
O11_3 Cu5_3 1_555 1_555
Cu6 O4_5 1_555 1_555
O9_5 Cu5_3 1_555 1_555
C5_5 C7_5 1_555 1_555
C8_5 O11_3 1_555 1_555
C1_5 H1_5 1_555 1_555
C1_6 C2_6 1_555 1_555
C2_6 C4_6 1_555 1_555
C3_6 C1_6 1_555 1_555
C4_6 O2_6 1_555 1_555
O7 C3_6 1_555 1_555
O3_6 C4_6 1_555 1_555
C5_6 C6_6 1_555 1_555
C6_6 C3_6 1_555 1_555
C7_6 C2_6 1_555 1_555
C8_6 C6_6 1_555 1_555
O4_6 C7_6 1_555 1_555
O11 Cu5 1_555 1_555
Cu6_2 O4_6 1_555 1_555
O8 Cu5 1_555 1_555
O9_6 Cu5 1_555 1_555
C5_6 C7_6 1_555 1_555
C8_6 O11 1_555 1_555
C1_6 H1_6 1_555 1_555
C5_7 C6_7 1_555 1_555
C8_7 C6_7 1_555 1_555
O4_7 C7_7 1_555 1_555
O9_5 C8_7 1_555 1_555
C5_7 C7_7 1_555 1_555
C5_7 H2_7 1_555 1_555
Cu6_2 O3_7 1_555 1_555
C1_7 C2_7 1_555 1_555
C2_7 C4_7 1_555 1_555
C3_7 C1_7 1_555 1_555
C4_7 O2_7 1_555 1_555
O8_3 C3_7 1_555 1_555
O2_7 Cu8_2 1_555 1_555
C1_7 H1_7 1_555 1_555
C5_8 C6_8 1_555 1_555
C8_8 C6_8 1_555 1_555
O4_8 C7_8 1_555 1_555
O9_6 C8_8 1_555 1_555
Cu8_3 O4_8 1_555 1_555
C5_8 C7_8 1_555 1_555
C8_8 O12 1_555 1_555
C5_8 H2_8 1_555 1_555
C1_8 C2_8 1_555 1_555
C2_8 C4_8 1_555 1_555
C3_8 C1_8 1_555 1_555
C4_8 O2_8 1_555 1_555
O8 C3_8 1_555 1_555
O2_8 Cu8_3 1_555 1_555
O3_8 C4_8 1_555 1_555
Cu4_3 O3_8 1_555 1_555
Cu6_3 O3_8 1_555 1_555
C1_8 H1_8 1_555 1_555
C1_9 C2_9 1_555 1_555
C2_9 C4_9 1_555 1_555
C3_9 C1_9 1_555 1_555
C4_9 O2_9 1_555 1_555
O8_2 C3_9 1_555 1_555
O2_9 Cu8 1_555 1_555
C1_9 H1_9 1_555 1_555
C5_9 C6_9 1_555 1_555
C8_9 C6_9 1_555 1_555
O4_9 C7_9 1_555 1_555
O9_4 C8_9 1_555 1_555
C5_9 C7_9 1_555 1_555
C5_9 H2_9 1_555 1_555
Cu6 O3_9 1_555 1_555

#END
