
###############################################################################
#
# This file contains modified crystal structure data generated from the
# MOF subset of the Cambridge Structural Database (CSD) v543 
# hosted by the Cambridge Crystallographic Data Centre (CCDC).
#
# This work is licensed under the Creative Commons
# Attribution-NonCommercial-ShareAlike 4.0 International License.
# To view a copy of this license, visit
# http://creativecommons.org/licenses/by-nc-sa/4.0/
# or send a letter to
# Creative Commons, PO Box 1866, Mountain View, CA 94042, USA.
#
# CIF created using the CSD Python API on 29 September 2022
# The structure has been converted into the P1 space group
# The structure has a 3D framework
# The original CSD entry MOKYAP60 is in the rhombohedral crystal system
# The framework has been calculated to contain at least 10.0% void space
# The void calculation uses a probe of radius 1.32A, grid spacing 0.4
# H atom positions have been added when not included in the experimental data
#
###############################################################################

data_MOKYAP60
_chemical_formula_moiety         '(C72 H18 Cu7 O44)n'
_symmetry_cell_setting           triclinic
_symmetry_space_group_name_H-M   'P 1'
_symmetry_Int_Tables_number      1
_space_group_name_Hall           'P 1'
loop_
_symmetry_equiv_pos_site_id
_symmetry_equiv_pos_as_xyz
1 x,y,z
_cell_length_a                   25.9151(3)
_cell_length_b                   25.9151(3)
_cell_length_c                   6.27466(7)
_cell_angle_alpha                90
_cell_angle_beta                 90
_cell_angle_gamma                120
_cell_volume                     3649.44
loop_
_atom_site_label
_atom_site_type_symbol
_atom_site_fract_x
_atom_site_fract_y
_atom_site_fract_z
_atom_site_U_iso_or_equiv
_atom_site_thermal_displace_type
Cu7 Cu 0.31800(7) 0.37128(5) 0.0091(2) 0.0105 Uiso
Cu1 Cu 0.29539(5) 0.28006(5) 0.3424(2) 0.0105 Uiso
C1 C 0.1609(3) 0.3130(3) 0.1254(13) 0.0057 Uiso
C2 C 0.1200(4) 0.3269(4) 0.1980(15) 0.0165 Uiso
C3 C 0.2092(4) 0.3188(4) 0.2546(12) 0.0051 Uiso
C4 C 0.0772(3) 0.3237(4) 0.0311(14) 0.0076 Uiso
O1 O 0.2517(2) 0.3073(2) 0.1711(9) 0.0051 Uiso
O3 O 0.0519(2) 0.3545(2) 0.0675(8) 0.0051 Uiso
C5 C 0.1724(3) 0.3537(3) 0.5413(13) 0.0057 Uiso
C6 C 0.2133(4) 0.3398(4) 0.4687(15) 0.0165 Uiso
C7 C 0.1241(4) 0.3479(4) 0.4121(12) 0.0051 Uiso
C8 C 0.2561(3) 0.3430(4) 0.6356(14) 0.0076 Uiso
O4 O 0.0816(2) 0.3594(2) 0.4956(9) 0.0051 Uiso
O5 O 0.2670(2) 0.3747(2) 0.7972(9) 0.0134 Uiso
O6 O 0.2814(2) 0.3122(2) 0.5992(8) 0.0051 Uiso
Cu4 Cu 0.01533(7) 0.29539(5) 0.6576(2) 0.0105 Uiso
Cu5 Cu 0.38661(5) 0.34866(7) 0.6757(2) 0.0105 Uiso
Cu8 Cu 0.03794(5) 0.38661(5) 0.3243(2) 0.0105 Uiso
O7 O 0.3594(2) 0.2777(3) 0.5044(9) 0.0051 Uiso
O9 O 0.2920(2) 0.2257(3) 0.1305(9) 0.0134 Uiso
O12 O 0.3641(3) 0.3852(2) 0.2658(8) 0.0051 Uiso
H2 H 0.17644 0.369859 0.703998 . .
O2 O 0.0663(2) 0.2920(2) 0.8695(9) 0.0134 Uiso
O8 O 0.3889(3) 0.4150(2) 0.8378(9) 0.0051 Uiso
O11 O 0.3545(2) 0.3026(3) 0.9325(8) 0.0051 Uiso
H1 H 0.156893 0.296807 0.962668 . .
Cu6 Cu 0.94673(5) 0.31800(7) 0.9909(2) 0.0105 Uiso
Cu6_2 Cu 0.37128(9) 0.05327(5) 0.9909(2) 0.0105 Uiso
Cu7_2 Cu 0.05327(9) 0.68200(7) 0.0091(2) 0.0105 Uiso
C1_2 C 0.1521(4) 0.8391(3) 0.1254(13) 0.0057 Uiso
C2_2 C 0.2069(6) 0.8800(4) 0.1980(15) 0.0165 Uiso
C3_2 C 0.1096(6) 0.7908(4) 0.2546(12) 0.0051 Uiso
C4_2 C 0.2465(5) 0.9228(3) 0.0311(14) 0.0076 Uiso
O1_2 O 0.0556(3) 0.7483(2) 0.1711(9) 0.0051 Uiso
O3_2 O 0.3026(3) 0.9481(2) 0.0675(8) 0.0051 Uiso
C5_2 C 0.1812(4) 0.8276(3) 0.5413(13) 0.0057 Uiso
C6_2 C 0.1264(6) 0.7867(4) 0.4687(15) 0.0165 Uiso
C7_2 C 0.2237(6) 0.8759(4) 0.4121(12) 0.0051 Uiso
C8_2 C 0.0868(5) 0.7439(3) 0.6356(14) 0.0076 Uiso
O4_2 O 0.2777(3) 0.9184(2) 0.4956(9) 0.0051 Uiso
O5_2 O 0.1076(3) 0.7330(2) 0.7972(9) 0.0134 Uiso
O6_2 O 0.0307(3) 0.7186(2) 0.5992(8) 0.0051 Uiso
Cu4_2 Cu 0.28006(9) 0.98467(7) 0.6576(2) 0.0105 Uiso
Cu8_2 Cu 0.34866(7) 0.96206(5) 0.3243(2) 0.0105 Uiso
O12_2 O 0.0212(4) 0.6359(3) 0.2658(8) 0.0051 Uiso
H2_2 H 0.19342 0.82356 0.703998 . .
O2_2 O 0.2257(3) 0.9337(2) 0.8695(9) 0.0134 Uiso
O8_2 O 0.0260(4) 0.6111(3) 0.8378(9) 0.0051 Uiso
H1_2 H 0.139914 0.843107 0.962668 . .
Cu1_2 Cu 0.98467(7) 0.70461(5) 0.3424(2) 0.0105 Uiso
Cu5_2 Cu 0.96206(9) 0.61339(5) 0.6757(2) 0.0105 Uiso
O7_2 O 0.9184(4) 0.6406(2) 0.5044(9) 0.0051 Uiso
O9_2 O 0.9337(4) 0.7080(2) 0.1305(9) 0.0134 Uiso
O11_2 O 0.9481(4) 0.6455(2) 0.9325(8) 0.0051 Uiso
Cu1_3 Cu 0.71994(5) 0.01533(7) 0.3424(2) 0.0105 Uiso
Cu5_3 Cu 0.65134(7) 0.03794(9) 0.6757(2) 0.0105 Uiso
O7_3 O 0.7223(3) 0.0816(4) 0.5044(9) 0.0051 Uiso
O9_3 O 0.7743(3) 0.0663(4) 0.1305(9) 0.0134 Uiso
O11_3 O 0.6974(3) 0.0519(4) 0.9325(8) 0.0051 Uiso
Cu7_3 Cu 0.62872(5) 0.94673(9) 0.0091(2) 0.0105 Uiso
C1_3 C 0.6870(3) 0.8479(4) 0.1254(13) 0.0057 Uiso
C2_3 C 0.6731(4) 0.7931(6) 0.1980(15) 0.0165 Uiso
C3_3 C 0.6812(4) 0.8904(6) 0.2546(12) 0.0051 Uiso
C4_3 C 0.6763(4) 0.7535(5) 0.0311(14) 0.0076 Uiso
O1_3 O 0.6927(2) 0.9444(3) 0.1711(9) 0.0051 Uiso
O3_3 O 0.6455(2) 0.6974(3) 0.0675(8) 0.0051 Uiso
C5_3 C 0.6463(3) 0.8188(4) 0.5413(13) 0.0057 Uiso
C6_3 C 0.6602(4) 0.8736(6) 0.4687(15) 0.0165 Uiso
C7_3 C 0.6521(4) 0.7763(6) 0.4121(12) 0.0051 Uiso
C8_3 C 0.6570(4) 0.9132(5) 0.6356(14) 0.0076 Uiso
O4_3 O 0.6406(2) 0.7223(3) 0.4956(9) 0.0051 Uiso
O5_3 O 0.6253(2) 0.8924(3) 0.7972(9) 0.0134 Uiso
O6_3 O 0.6878(2) 0.9693(3) 0.5992(8) 0.0051 Uiso
Cu4_3 Cu 0.70461(5) 0.71994(9) 0.6576(2) 0.0105 Uiso
Cu8_3 Cu 0.61339(5) 0.65134(7) 0.3243(2) 0.0105 Uiso
O12_3 O 0.6148(2) 0.9788(4) 0.2658(8) 0.0051 Uiso
H2_3 H 0.630141 0.80658 0.703998 . .
O2_3 O 0.7080(2) 0.7743(3) 0.8695(9) 0.0134 Uiso
Cu6_3 Cu 0.68200(7) 0.62872(9) 0.9909(2) 0.0105 Uiso
O8_3 O 0.5850(2) 0.9740(4) 0.8378(9) 0.0051 Uiso
H1_3 H 0.703193 0.860086 0.962668 . .
H2_4 H 0.843107 0.703193 0.0373317 . .
C1_4 C 0.8276(3) 0.6463(3) 0.4587(13) 0.0057 Uiso
C2_4 C 0.7867(4) 0.6602(4) 0.5313(15) 0.0165 Uiso
C3_4 C 0.8759(4) 0.6521(4) 0.5879(12) 0.0051 Uiso
C4_4 C 0.7439(3) 0.6570(4) 0.3644(14) 0.0076 Uiso
O2_4 O 0.7330(2) 0.6253(2) 0.2028(9) 0.0134 Uiso
O3_4 O 0.7186(2) 0.6878(2) 0.4008(8) 0.0051 Uiso
C5_4 C 0.8391(3) 0.6870(3) 0.8746(13) 0.0057 Uiso
C6_4 C 0.8800(4) 0.6731(4) 0.8020(15) 0.0165 Uiso
C7_4 C 0.7908(4) 0.6812(4) 0.7454(12) 0.0051 Uiso
C8_4 C 0.9228(3) 0.6763(4) 0.9689(14) 0.0076 Uiso
O4_4 O 0.7483(2) 0.6927(2) 0.8289(9) 0.0051 Uiso
O9_4 O 0.9587(2) 0.5590(3) 0.4638(9) 0.0134 Uiso
H1_4 H 0.82356 0.630141 0.296002 . .
H2_5 H 0.860086 0.156893 0.0373317 . .
C1_5 C 0.8188(4) 0.1724(3) 0.4587(13) 0.0057 Uiso
C2_5 C 0.8736(6) 0.2133(4) 0.5313(15) 0.0165 Uiso
C3_5 C 0.7763(6) 0.1241(4) 0.5879(12) 0.0051 Uiso
C4_5 C 0.9132(5) 0.2561(3) 0.3644(14) 0.0076 Uiso
O2_5 O 0.8924(3) 0.2670(2) 0.2028(9) 0.0134 Uiso
O3_5 O 0.9693(3) 0.2814(2) 0.4008(8) 0.0051 Uiso
C5_5 C 0.8479(4) 0.1609(3) 0.8746(13) 0.0057 Uiso
C6_5 C 0.7931(6) 0.1200(4) 0.8020(15) 0.0165 Uiso
C7_5 C 0.8904(6) 0.2092(4) 0.7454(12) 0.0051 Uiso
C8_5 C 0.7535(5) 0.0772(3) 0.9689(14) 0.0076 Uiso
O4_5 O 0.9444(3) 0.2517(2) 0.8289(9) 0.0051 Uiso
O9_5 O 0.6004(4) 0.0413(2) 0.4638(9) 0.0134 Uiso
H1_5 H 0.80658 0.17644 0.296002 . .
H2_6 H 0.296807 0.139914 0.0373317 . .
C1_6 C 0.3537(3) 0.1812(4) 0.4587(13) 0.0057 Uiso
C2_6 C 0.3398(4) 0.1264(6) 0.5313(15) 0.0165 Uiso
C3_6 C 0.3479(4) 0.2237(6) 0.5879(12) 0.0051 Uiso
C4_6 C 0.3430(4) 0.0868(5) 0.3644(14) 0.0076 Uiso
O2_6 O 0.3747(2) 0.1076(3) 0.2028(9) 0.0134 Uiso
O3_6 O 0.3122(2) 0.0307(3) 0.4008(8) 0.0051 Uiso
C5_6 C 0.3130(3) 0.1521(4) 0.8746(13) 0.0057 Uiso
C6_6 C 0.3269(4) 0.2069(6) 0.8020(15) 0.0165 Uiso
C7_6 C 0.3188(4) 0.1096(6) 0.7454(12) 0.0051 Uiso
C8_6 C 0.3237(4) 0.2465(5) 0.9689(14) 0.0076 Uiso
O4_6 O 0.3073(2) 0.0556(3) 0.8289(9) 0.0051 Uiso
O9_6 O 0.4410(3) 0.3996(4) 0.4638(9) 0.0134 Uiso
H1_6 H 0.369859 0.19342 0.296002 . .
C5_7 C 0.5058(3) 0.0203(3) 0.2079(13) 0.0057 Uiso
C6_7 C 0.5467(4) 0.0064(4) 0.1353(15) 0.0165 Uiso
C7_7 C 0.4575(4) 0.0145(4) 0.0787(12) 0.0051 Uiso
C8_7 C 0.5895(3) 0.0096(4) 0.3022(14) 0.0076 Uiso
O4_7 O 0.4150(2) 0.0260(2) 0.1622(9) 0.0051 Uiso
H2_7 H 0.509773 0.0365261 0.370665 . .
O3_7 O 0.3852(2) 0.0212(2) 0.7342(8) 0.0051 Uiso
C1_7 C 0.4942(3) 0.9797(3) 0.7921(13) 0.0057 Uiso
C2_7 C 0.4533(4) 0.9936(4) 0.8647(15) 0.0165 Uiso
C3_7 C 0.5425(4) 0.9855(4) 0.9213(12) 0.0051 Uiso
C4_7 C 0.4105(3) 0.9904(4) 0.6978(14) 0.0076 Uiso
O2_7 O 0.3996(2) 0.9587(2) 0.5362(9) 0.0134 Uiso
H1_7 H 0.490227 0.963474 0.629335 . .
C5_8 C 0.5146(4) 0.4942(3) 0.2079(13) 0.0057 Uiso
C6_8 C 0.4598(6) 0.4533(4) 0.1353(15) 0.0165 Uiso
C7_8 C 0.5571(6) 0.5425(4) 0.0787(12) 0.0051 Uiso
C8_8 C 0.4202(5) 0.4105(3) 0.3022(14) 0.0076 Uiso
O4_8 O 0.6111(3) 0.5850(2) 0.1622(9) 0.0051 Uiso
H2_8 H 0.526753 0.490227 0.370665 . .
C1_8 C 0.4854(4) 0.5058(3) 0.7921(13) 0.0057 Uiso
C2_8 C 0.5402(6) 0.5467(4) 0.8647(15) 0.0165 Uiso
C3_8 C 0.4429(6) 0.4575(4) 0.9213(12) 0.0051 Uiso
C4_8 C 0.5798(5) 0.5895(3) 0.6978(14) 0.0076 Uiso
O2_8 O 0.5590(3) 0.6004(2) 0.5362(9) 0.0134 Uiso
O3_8 O 0.6359(3) 0.6148(2) 0.7342(8) 0.0051 Uiso
H1_8 H 0.473247 0.509773 0.629335 . .
C1_9 C 0.0203(3) 0.5146(4) 0.7921(13) 0.0057 Uiso
C2_9 C 0.0064(4) 0.4598(6) 0.8647(15) 0.0165 Uiso
C3_9 C 0.0145(4) 0.5571(6) 0.9213(12) 0.0051 Uiso
C4_9 C 0.0096(4) 0.4202(5) 0.6978(14) 0.0076 Uiso
O2_9 O 0.0413(2) 0.4410(3) 0.5362(9) 0.0134 Uiso
H1_9 H 0.0365261 0.526753 0.629335 . .
C5_9 C 0.9797(3) 0.4854(4) 0.2079(13) 0.0057 Uiso
C6_9 C 0.9936(4) 0.5402(6) 0.1353(15) 0.0165 Uiso
C7_9 C 0.9855(4) 0.4429(6) 0.0787(12) 0.0051 Uiso
C8_9 C 0.9904(4) 0.5798(5) 0.3022(14) 0.0076 Uiso
O4_9 O 0.9740(2) 0.3889(3) 0.1622(9) 0.0051 Uiso
H2_9 H 0.963474 0.473247 0.370665 . .
O3_9 O 0.9788(2) 0.3641(3) 0.7342(8) 0.0051 Uiso
loop_
_geom_bond_atom_site_label_1
_geom_bond_atom_site_label_2
_geom_bond_site_symmetry_1
_geom_bond_site_symmetry_2
Cu1 O1 1_555 1_555
C1 C2 1_555 1_555
C2 C4 1_555 1_555
C3 C1 1_555 1_555
O1 C3 1_555 1_555
O3 C4 1_555 1_555
C5 C6 1_555 1_555
C6 C3 1_555 1_555
C7 C2 1_555 1_555
C8 C6 1_555 1_555
O4 C7 1_555 1_555
O5 C8 1_555 1_555
O6 Cu1 1_555 1_555
Cu7 O1 1_555 1_555
Cu4 O4 1_555 1_555
Cu5 O6 1_555 1_555
Cu8 O3 1_555 1_555
O7 Cu1 1_555 1_555
O9 Cu1 1_555 1_555
O12 Cu1 1_555 1_555
C5 C7 1_555 1_555
C8 O6 1_555 1_555
O4 Cu8 1_555 1_555
Cu7 O12 1_555 1_555
Cu5 O7 1_555 1_555
C5 H2 1_555 1_555
O2 Cu4 1_555 1_555
C1_2 C2_2 1_555 1_555
C2_2 C4_2 1_555 1_555
C3_2 C1_2 1_555 1_555
O1_2 C3_2 1_555 1_555
O3_2 C4_2 1_555 1_555
C5_2 C6_2 1_555 1_555
C6_2 C3_2 1_555 1_555
C7_2 C2_2 1_555 1_555
C8_2 C6_2 1_555 1_555
O4_2 C7_2 1_555 1_555
O5_2 C8_2 1_555 1_555
Cu7_2 O1_2 1_555 1_555
Cu4_2 O4_2 1_555 1_555
Cu8_2 O3_2 1_555 1_555
C5_2 C7_2 1_555 1_555
C8_2 O6_2 1_555 1_555
O4_2 Cu8_2 1_555 1_555
Cu7_2 O12_2 1_555 1_555
C5_2 H2_2 1_555 1_555
O2_2 Cu4_2 1_555 1_555
O7_2 Cu1_2 1_555 1_555
O9_2 Cu1_2 1_555 1_555
Cu5_2 O7_2 1_555 1_555
O7_3 Cu1_3 1_555 1_555
O9_3 Cu1_3 1_555 1_555
Cu5_3 O7_3 1_555 1_555
C1_3 C2_3 1_555 1_555
C2_3 C4_3 1_555 1_555
C3_3 C1_3 1_555 1_555
O1_3 C3_3 1_555 1_555
O3_3 C4_3 1_555 1_555
C5_3 C6_3 1_555 1_555
C6_3 C3_3 1_555 1_555
C7_3 C2_3 1_555 1_555
C8_3 C6_3 1_555 1_555
O4_3 C7_3 1_555 1_555
O5_3 C8_3 1_555 1_555
Cu7_3 O1_3 1_555 1_555
Cu4_3 O4_3 1_555 1_555
Cu8_3 O3_3 1_555 1_555
C5_3 C7_3 1_555 1_555
C8_3 O6_3 1_555 1_555
O4_3 Cu8_3 1_555 1_555
Cu7_3 O12_3 1_555 1_555
C5_3 H2_3 1_555 1_555
O2_3 Cu4_3 1_555 1_555
C1_4 C2_4 1_555 1_555
C2_4 C4_4 1_555 1_555
C3_4 C1_4 1_555 1_555
C4_4 O2_4 1_555 1_555
O7_2 C3_4 1_555 1_555
O3_4 C4_4 1_555 1_555
C5_4 C6_4 1_555 1_555
C6_4 C3_4 1_555 1_555
C7_4 C2_4 1_555 1_555
C8_4 C6_4 1_555 1_555
O4_4 C7_4 1_555 1_555
O11_2 Cu5_2 1_555 1_555
Cu6_3 O4_4 1_555 1_555
Cu8_3 O3_4 1_555 1_555
Cu4_3 O3_4 1_555 1_555
O9_4 Cu5_2 1_555 1_555
C5_4 C7_4 1_555 1_555
C8_4 O11_2 1_555 1_555
O4_4 Cu4_3 1_555 1_555
C1_4 H1_4 1_555 1_555
C1_5 C2_5 1_555 1_555
C2_5 C4_5 1_555 1_555
C3_5 C1_5 1_555 1_555
C4_5 O2_5 1_555 1_555
O7_3 C3_5 1_555 1_555
O3_5 C4_5 1_555 1_555
C5_5 C6_5 1_555 1_555
C6_5 C3_5 1_555 1_555
C7_5 C2_5 1_555 1_555
C8_5 C6_5 1_555 1_555
O4_5 C7_5 1_555 1_555
O11_3 Cu5_3 1_555 1_555
Cu6 O4_5 1_555 1_555
O9_5 Cu5_3 1_555 1_555
C5_5 C7_5 1_555 1_555
C8_5 O11_3 1_555 1_555
C1_5 H1_5 1_555 1_555
C1_6 C2_6 1_555 1_555
C2_6 C4_6 1_555 1_555
C3_6 C1_6 1_555 1_555
C4_6 O2_6 1_555 1_555
O7 C3_6 1_555 1_555
O3_6 C4_6 1_555 1_555
C5_6 C6_6 1_555 1_555
C6_6 C3_6 1_555 1_555
C7_6 C2_6 1_555 1_555
C8_6 C6_6 1_555 1_555
O4_6 C7_6 1_555 1_555
O11 Cu5 1_555 1_555
Cu6_2 O4_6 1_555 1_555
O8 Cu5 1_555 1_555
O9_6 Cu5 1_555 1_555
C5_6 C7_6 1_555 1_555
C8_6 O11 1_555 1_555
C1_6 H1_6 1_555 1_555
C5_7 C6_7 1_555 1_555
C8_7 C6_7 1_555 1_555
O4_7 C7_7 1_555 1_555
O9_5 C8_7 1_555 1_555
C5_7 C7_7 1_555 1_555
C5_7 H2_7 1_555 1_555
Cu6_2 O3_7 1_555 1_555
C1_7 C2_7 1_555 1_555
C2_7 C4_7 1_555 1_555
C3_7 C1_7 1_555 1_555
C4_7 O2_7 1_555 1_555
O8_3 C3_7 1_555 1_555
O2_7 Cu8_2 1_555 1_555
C1_7 H1_7 1_555 1_555
C5_8 C6_8 1_555 1_555
C8_8 C6_8 1_555 1_555
O4_8 C7_8 1_555 1_555
O9_6 C8_8 1_555 1_555
Cu8_3 O4_8 1_555 1_555
C5_8 C7_8 1_555 1_555
C8_8 O12 1_555 1_555
C5_8 H2_8 1_555 1_555
C1_8 C2_8 1_555 1_555
C2_8 C4_8 1_555 1_555
C3_8 C1_8 1_555 1_555
C4_8 O2_8 1_555 1_555
O8 C3_8 1_555 1_555
O2_8 Cu8_3 1_555 1_555
O3_8 C4_8 1_555 1_555
Cu4_3 O3_8 1_555 1_555
Cu6_3 O3_8 1_555 1_555
C1_8 H1_8 1_555 1_555
C1_9 C2_9 1_555 1_555
C2_9 C4_9 1_555 1_555
C3_9 C1_9 1_555 1_555
C4_9 O2_9 1_555 1_555
O8_2 C3_9 1_555 1_555
O2_9 Cu8 1_555 1_555
C1_9 H1_9 1_555 1_555
C5_9 C6_9 1_555 1_555
C8_9 C6_9 1_555 1_555
O4_9 C7_9 1_555 1_555
O9_4 C8_9 1_555 1_555
C5_9 C7_9 1_555 1_555
C5_9 H2_9 1_555 1_555
Cu6 O3_9 1_555 1_555

#END
