
###############################################################################
#
# This file contains modified crystal structure data generated from the
# MOF subset of the Cambridge Structural Database (CSD) v543 
# hosted by the Cambridge Crystallographic Data Centre (CCDC).
#
# This work is licensed under the Creative Commons
# Attribution-NonCommercial-ShareAlike 4.0 International License.
# To view a copy of this license, visit
# http://creativecommons.org/licenses/by-nc-sa/4.0/
# or send a letter to
# Creative Commons, PO Box 1866, Mountain View, CA 94042, USA.
#
# CIF created using the CSD Python API on 29 September 2022
# The structure has been converted into the P1 space group
# The structure has a 3D framework
# The original CSD entry MOKYAP55 is in the rhombohedral crystal system
# The framework has been calculated to contain at least 10.0% void space
# The void calculation uses a probe of radius 1.32A, grid spacing 0.4
# H atom positions have been added when not included in the experimental data
#
###############################################################################

data_MOKYAP55
_chemical_formula_moiety         '(C72 H18 Cu7 O44)n'
_symmetry_cell_setting           triclinic
_symmetry_space_group_name_H-M   'P 1'
_symmetry_Int_Tables_number      1
_space_group_name_Hall           'P 1'
loop_
_symmetry_equiv_pos_site_id
_symmetry_equiv_pos_as_xyz
1 x,y,z
_cell_length_a                   25.9155(3)
_cell_length_b                   25.9155(3)
_cell_length_c                   6.27435(7)
_cell_angle_alpha                90
_cell_angle_beta                 90
_cell_angle_gamma                120
_cell_volume                     3649.38
loop_
_atom_site_label
_atom_site_type_symbol
_atom_site_fract_x
_atom_site_fract_y
_atom_site_fract_z
_atom_site_U_iso_or_equiv
_atom_site_thermal_displace_type
Cu7 Cu 0.31799(7) 0.37131(5) 0.0092(2) 0.0104 Uiso
Cu1 Cu 0.29536(5) 0.28002(5) 0.3425(2) 0.0104 Uiso
C1 C 0.1610(3) 0.3128(3) 0.1252(13) 0.0057 Uiso
C2 C 0.1202(4) 0.3266(4) 0.1978(15) 0.0152 Uiso
C3 C 0.2093(3) 0.3188(4) 0.2551(12) 0.0051 Uiso
C4 C 0.0771(3) 0.3239(4) 0.0309(14) 0.0089 Uiso
O1 O 0.2517(2) 0.3072(2) 0.1707(9) 0.0052 Uiso
O3 O 0.0519(2) 0.3546(2) 0.0673(8) 0.0051 Uiso
C5 C 0.1723(3) 0.3539(3) 0.5415(13) 0.0057 Uiso
C6 C 0.2131(4) 0.3401(4) 0.4689(15) 0.0152 Uiso
C7 C 0.1240(3) 0.3479(4) 0.4116(12) 0.0051 Uiso
C8 C 0.2562(3) 0.3428(4) 0.6358(14) 0.0089 Uiso
O4 O 0.0816(2) 0.3595(2) 0.4960(9) 0.0052 Uiso
O5 O 0.2670(2) 0.3748(2) 0.7970(9) 0.0124 Uiso
O6 O 0.2814(2) 0.3121(2) 0.5994(8) 0.0051 Uiso
Cu4 Cu 0.01534(7) 0.29536(5) 0.6575(2) 0.0104 Uiso
Cu5 Cu 0.38665(5) 0.34867(7) 0.6758(2) 0.0104 Uiso
Cu8 Cu 0.03797(5) 0.38665(5) 0.3242(2) 0.0104 Uiso
O7 O 0.3595(2) 0.2778(3) 0.5040(9) 0.0052 Uiso
O9 O 0.2919(2) 0.2256(3) 0.1303(9) 0.0124 Uiso
O12 O 0.3640(3) 0.3852(2) 0.2660(8) 0.0051 Uiso
H2 H 0.176283 0.370092 0.704133 . .
O2 O 0.0663(2) 0.2919(2) 0.8697(9) 0.0124 Uiso
O8 O 0.3888(3) 0.4150(2) 0.8374(9) 0.0052 Uiso
O11 O 0.3546(2) 0.3027(3) 0.9327(8) 0.0051 Uiso
H1 H 0.157051 0.296575 0.962533 . .
Cu6 Cu 0.94669(5) 0.31799(7) 0.9908(2) 0.0104 Uiso
Cu6_2 Cu 0.37131(9) 0.05331(5) 0.9908(2) 0.0104 Uiso
Cu7_2 Cu 0.05331(9) 0.68201(7) 0.0092(2) 0.0104 Uiso
C1_2 C 0.1518(4) 0.8390(3) 0.1252(13) 0.0057 Uiso
C2_2 C 0.2064(6) 0.8798(4) 0.1978(15) 0.0152 Uiso
C3_2 C 0.1095(5) 0.7907(3) 0.2551(12) 0.0051 Uiso
C4_2 C 0.2468(5) 0.9229(3) 0.0309(14) 0.0089 Uiso
O1_2 O 0.0555(3) 0.7483(2) 0.1707(9) 0.0052 Uiso
O3_2 O 0.3027(3) 0.9481(2) 0.0673(8) 0.0051 Uiso
C5_2 C 0.1815(4) 0.8277(3) 0.5415(13) 0.0057 Uiso
C6_2 C 0.1269(6) 0.7869(4) 0.4689(15) 0.0152 Uiso
C7_2 C 0.2238(5) 0.8760(3) 0.4116(12) 0.0051 Uiso
C8_2 C 0.0865(5) 0.7438(3) 0.6358(14) 0.0089 Uiso
O4_2 O 0.2778(3) 0.9184(2) 0.4960(9) 0.0052 Uiso
O5_2 O 0.1077(3) 0.7330(2) 0.7970(9) 0.0124 Uiso
O6_2 O 0.0306(3) 0.7186(2) 0.5994(8) 0.0051 Uiso
Cu4_2 Cu 0.28002(9) 0.98466(7) 0.6575(2) 0.0104 Uiso
Cu8_2 Cu 0.34867(7) 0.96203(5) 0.3242(2) 0.0104 Uiso
O12_2 O 0.0213(4) 0.6360(3) 0.2660(8) 0.0051 Uiso
H2_2 H 0.193809 0.823717 0.704133 . .
O2_2 O 0.2256(3) 0.9337(2) 0.8697(9) 0.0124 Uiso
O8_2 O 0.0261(4) 0.6112(3) 0.8374(9) 0.0052 Uiso
H1_2 H 0.139524 0.842949 0.962533 . .
Cu1_2 Cu 0.98466(7) 0.70464(5) 0.3425(2) 0.0104 Uiso
Cu5_2 Cu 0.96203(9) 0.61335(5) 0.6758(2) 0.0104 Uiso
O7_2 O 0.9184(4) 0.6405(2) 0.5040(9) 0.0052 Uiso
O9_2 O 0.9337(4) 0.7081(2) 0.1303(9) 0.0124 Uiso
O11_2 O 0.9481(4) 0.6454(2) 0.9327(8) 0.0051 Uiso
Cu1_3 Cu 0.71998(5) 0.01534(7) 0.3425(2) 0.0104 Uiso
Cu5_3 Cu 0.65133(7) 0.03797(9) 0.6758(2) 0.0104 Uiso
O7_3 O 0.7222(3) 0.0816(4) 0.5040(9) 0.0052 Uiso
O9_3 O 0.7744(3) 0.0663(4) 0.1303(9) 0.0124 Uiso
O11_3 O 0.6973(3) 0.0519(4) 0.9327(8) 0.0051 Uiso
Cu7_3 Cu 0.62869(5) 0.94669(9) 0.0092(2) 0.0104 Uiso
C1_3 C 0.6872(3) 0.8482(4) 0.1252(13) 0.0057 Uiso
C2_3 C 0.6734(4) 0.7936(6) 0.1978(15) 0.0152 Uiso
C3_3 C 0.6812(4) 0.8905(5) 0.2551(12) 0.0051 Uiso
C4_3 C 0.6761(4) 0.7532(5) 0.0309(14) 0.0089 Uiso
O1_3 O 0.6928(2) 0.9445(3) 0.1707(9) 0.0052 Uiso
O3_3 O 0.6454(2) 0.6973(3) 0.0673(8) 0.0051 Uiso
C5_3 C 0.6461(3) 0.8185(4) 0.5415(13) 0.0057 Uiso
C6_3 C 0.6599(4) 0.8731(6) 0.4689(15) 0.0152 Uiso
C7_3 C 0.6521(4) 0.7762(5) 0.4116(12) 0.0051 Uiso
C8_3 C 0.6572(4) 0.9135(5) 0.6358(14) 0.0089 Uiso
O4_3 O 0.6405(2) 0.7222(3) 0.4960(9) 0.0052 Uiso
O5_3 O 0.6252(2) 0.8923(3) 0.7970(9) 0.0124 Uiso
O6_3 O 0.6879(2) 0.9694(3) 0.5994(8) 0.0051 Uiso
Cu4_3 Cu 0.70464(5) 0.71998(9) 0.6575(2) 0.0104 Uiso
Cu8_3 Cu 0.61335(5) 0.65133(7) 0.3242(2) 0.0104 Uiso
O12_3 O 0.6148(2) 0.9787(4) 0.2660(8) 0.0051 Uiso
H2_3 H 0.629908 0.806191 0.704133 . .
O2_3 O 0.7081(2) 0.7744(3) 0.8697(9) 0.0124 Uiso
Cu6_3 Cu 0.68201(7) 0.62869(9) 0.9908(2) 0.0104 Uiso
O8_3 O 0.5850(2) 0.9739(4) 0.8374(9) 0.0052 Uiso
H1_3 H 0.703425 0.860476 0.962533 . .
H2_4 H 0.842949 0.703425 0.0374666 . .
C1_4 C 0.8277(3) 0.6461(3) 0.4585(13) 0.0057 Uiso
C2_4 C 0.7869(4) 0.6599(4) 0.5311(15) 0.0152 Uiso
C3_4 C 0.8760(3) 0.6521(4) 0.5884(12) 0.0051 Uiso
C4_4 C 0.7438(3) 0.6572(4) 0.3642(14) 0.0089 Uiso
O2_4 O 0.7330(2) 0.6252(2) 0.2030(9) 0.0124 Uiso
O3_4 O 0.7186(2) 0.6879(2) 0.4006(8) 0.0051 Uiso
C5_4 C 0.8390(3) 0.6872(3) 0.8748(13) 0.0057 Uiso
C6_4 C 0.8798(4) 0.6734(4) 0.8022(15) 0.0152 Uiso
C7_4 C 0.7907(3) 0.6812(4) 0.7449(12) 0.0051 Uiso
C8_4 C 0.9229(3) 0.6761(4) 0.9691(14) 0.0089 Uiso
O4_4 O 0.7483(2) 0.6928(2) 0.8293(9) 0.0052 Uiso
O9_4 O 0.9586(2) 0.5589(3) 0.4636(9) 0.0124 Uiso
H1_4 H 0.823717 0.629908 0.295867 . .
H2_5 H 0.860476 0.157051 0.0374666 . .
C1_5 C 0.8185(4) 0.1723(3) 0.4585(13) 0.0057 Uiso
C2_5 C 0.8731(6) 0.2131(4) 0.5311(15) 0.0152 Uiso
C3_5 C 0.7762(5) 0.1240(3) 0.5884(12) 0.0051 Uiso
C4_5 C 0.9135(5) 0.2562(3) 0.3642(14) 0.0089 Uiso
O2_5 O 0.8923(3) 0.2670(2) 0.2030(9) 0.0124 Uiso
O3_5 O 0.9694(3) 0.2814(2) 0.4006(8) 0.0051 Uiso
C5_5 C 0.8482(4) 0.1610(3) 0.8748(13) 0.0057 Uiso
C6_5 C 0.7936(6) 0.1202(4) 0.8022(15) 0.0152 Uiso
C7_5 C 0.8905(5) 0.2093(3) 0.7449(12) 0.0051 Uiso
C8_5 C 0.7532(5) 0.0771(3) 0.9691(14) 0.0089 Uiso
O4_5 O 0.9445(3) 0.2517(2) 0.8293(9) 0.0052 Uiso
O9_5 O 0.6004(4) 0.0414(2) 0.4636(9) 0.0124 Uiso
H1_5 H 0.806191 0.176283 0.295867 . .
H2_6 H 0.296575 0.139524 0.0374666 . .
C1_6 C 0.3539(3) 0.1815(4) 0.4585(13) 0.0057 Uiso
C2_6 C 0.3401(4) 0.1269(6) 0.5311(15) 0.0152 Uiso
C3_6 C 0.3479(4) 0.2238(5) 0.5884(12) 0.0051 Uiso
C4_6 C 0.3428(4) 0.0865(5) 0.3642(14) 0.0089 Uiso
O2_6 O 0.3748(2) 0.1077(3) 0.2030(9) 0.0124 Uiso
O3_6 O 0.3121(2) 0.0306(3) 0.4006(8) 0.0051 Uiso
C5_6 C 0.3128(3) 0.1518(4) 0.8748(13) 0.0057 Uiso
C6_6 C 0.3266(4) 0.2064(6) 0.8022(15) 0.0152 Uiso
C7_6 C 0.3188(4) 0.1095(5) 0.7449(12) 0.0051 Uiso
C8_6 C 0.3239(4) 0.2468(5) 0.9691(14) 0.0089 Uiso
O4_6 O 0.3072(2) 0.0555(3) 0.8293(9) 0.0052 Uiso
O9_6 O 0.4411(3) 0.3996(4) 0.4636(9) 0.0124 Uiso
H1_6 H 0.370092 0.193809 0.295867 . .
C5_7 C 0.5057(3) 0.0205(3) 0.2081(13) 0.0057 Uiso
C6_7 C 0.5465(4) 0.0067(4) 0.1355(15) 0.0152 Uiso
C7_7 C 0.4574(3) 0.0145(4) 0.0782(12) 0.0051 Uiso
C8_7 C 0.5896(3) 0.0094(4) 0.3024(14) 0.0089 Uiso
O4_7 O 0.4150(2) 0.0261(2) 0.1626(9) 0.0052 Uiso
H2_7 H 0.509616 0.0367583 0.3708 . .
O3_7 O 0.3852(2) 0.0213(2) 0.7340(8) 0.0051 Uiso
C1_7 C 0.4943(3) 0.9795(3) 0.7919(13) 0.0057 Uiso
C2_7 C 0.4535(4) 0.9933(4) 0.8645(15) 0.0152 Uiso
C3_7 C 0.5426(3) 0.9855(4) 0.9218(12) 0.0051 Uiso
C4_7 C 0.4104(3) 0.9906(4) 0.6976(14) 0.0089 Uiso
O2_7 O 0.3996(2) 0.9586(2) 0.5364(9) 0.0124 Uiso
H1_7 H 0.490384 0.963242 0.6292 . .
C5_8 C 0.5149(4) 0.4943(3) 0.2081(13) 0.0057 Uiso
C6_8 C 0.4603(6) 0.4535(4) 0.1355(15) 0.0152 Uiso
C7_8 C 0.5572(5) 0.5426(3) 0.0782(12) 0.0051 Uiso
C8_8 C 0.4199(5) 0.4104(3) 0.3024(14) 0.0089 Uiso
O4_8 O 0.6112(3) 0.5850(2) 0.1626(9) 0.0052 Uiso
H2_8 H 0.527142 0.490384 0.3708 . .
C1_8 C 0.4851(4) 0.5057(3) 0.7919(13) 0.0057 Uiso
C2_8 C 0.5397(6) 0.5465(4) 0.8645(15) 0.0152 Uiso
C3_8 C 0.4428(5) 0.4574(3) 0.9218(12) 0.0051 Uiso
C4_8 C 0.5801(5) 0.5896(3) 0.6976(14) 0.0089 Uiso
O2_8 O 0.5589(3) 0.6004(2) 0.5364(9) 0.0124 Uiso
O3_8 O 0.6360(3) 0.6148(2) 0.7340(8) 0.0051 Uiso
H1_8 H 0.472858 0.509616 0.6292 . .
C1_9 C 0.0205(3) 0.5149(4) 0.7919(13) 0.0057 Uiso
C2_9 C 0.0067(4) 0.4603(6) 0.8645(15) 0.0152 Uiso
C3_9 C 0.0145(4) 0.5572(5) 0.9218(12) 0.0051 Uiso
C4_9 C 0.0094(4) 0.4199(5) 0.6976(14) 0.0089 Uiso
O2_9 O 0.0414(2) 0.4411(3) 0.5364(9) 0.0124 Uiso
H1_9 H 0.0367583 0.527142 0.6292 . .
C5_9 C 0.9795(3) 0.4851(4) 0.2081(13) 0.0057 Uiso
C6_9 C 0.9933(4) 0.5397(6) 0.1355(15) 0.0152 Uiso
C7_9 C 0.9855(4) 0.4428(5) 0.0782(12) 0.0051 Uiso
C8_9 C 0.9906(4) 0.5801(5) 0.3024(14) 0.0089 Uiso
O4_9 O 0.9739(2) 0.3888(3) 0.1626(9) 0.0052 Uiso
H2_9 H 0.963242 0.472858 0.3708 . .
O3_9 O 0.9787(2) 0.3640(3) 0.7340(8) 0.0051 Uiso
loop_
_geom_bond_atom_site_label_1
_geom_bond_atom_site_label_2
_geom_bond_site_symmetry_1
_geom_bond_site_symmetry_2
Cu1 O1 1_555 1_555
C1 C2 1_555 1_555
C2 C4 1_555 1_555
C3 C1 1_555 1_555
O1 C3 1_555 1_555
O3 C4 1_555 1_555
C5 C6 1_555 1_555
C6 C3 1_555 1_555
C7 C2 1_555 1_555
C8 C6 1_555 1_555
O4 C7 1_555 1_555
O5 C8 1_555 1_555
O6 Cu1 1_555 1_555
Cu7 O1 1_555 1_555
Cu4 O4 1_555 1_555
Cu5 O6 1_555 1_555
Cu8 O3 1_555 1_555
O7 Cu1 1_555 1_555
O9 Cu1 1_555 1_555
O12 Cu1 1_555 1_555
C5 C7 1_555 1_555
C8 O6 1_555 1_555
O4 Cu8 1_555 1_555
Cu7 O12 1_555 1_555
Cu5 O7 1_555 1_555
C5 H2 1_555 1_555
O2 Cu4 1_555 1_555
C1_2 C2_2 1_555 1_555
C2_2 C4_2 1_555 1_555
C3_2 C1_2 1_555 1_555
O1_2 C3_2 1_555 1_555
O3_2 C4_2 1_555 1_555
C5_2 C6_2 1_555 1_555
C6_2 C3_2 1_555 1_555
C7_2 C2_2 1_555 1_555
C8_2 C6_2 1_555 1_555
O4_2 C7_2 1_555 1_555
O5_2 C8_2 1_555 1_555
Cu7_2 O1_2 1_555 1_555
Cu4_2 O4_2 1_555 1_555
Cu8_2 O3_2 1_555 1_555
C5_2 C7_2 1_555 1_555
C8_2 O6_2 1_555 1_555
O4_2 Cu8_2 1_555 1_555
Cu7_2 O12_2 1_555 1_555
C5_2 H2_2 1_555 1_555
O2_2 Cu4_2 1_555 1_555
O7_2 Cu1_2 1_555 1_555
O9_2 Cu1_2 1_555 1_555
Cu5_2 O7_2 1_555 1_555
O7_3 Cu1_3 1_555 1_555
O9_3 Cu1_3 1_555 1_555
Cu5_3 O7_3 1_555 1_555
C1_3 C2_3 1_555 1_555
C2_3 C4_3 1_555 1_555
C3_3 C1_3 1_555 1_555
O1_3 C3_3 1_555 1_555
O3_3 C4_3 1_555 1_555
C5_3 C6_3 1_555 1_555
C6_3 C3_3 1_555 1_555
C7_3 C2_3 1_555 1_555
C8_3 C6_3 1_555 1_555
O4_3 C7_3 1_555 1_555
O5_3 C8_3 1_555 1_555
Cu7_3 O1_3 1_555 1_555
Cu4_3 O4_3 1_555 1_555
Cu8_3 O3_3 1_555 1_555
C5_3 C7_3 1_555 1_555
C8_3 O6_3 1_555 1_555
O4_3 Cu8_3 1_555 1_555
Cu7_3 O12_3 1_555 1_555
C5_3 H2_3 1_555 1_555
O2_3 Cu4_3 1_555 1_555
C1_4 C2_4 1_555 1_555
C2_4 C4_4 1_555 1_555
C3_4 C1_4 1_555 1_555
C4_4 O2_4 1_555 1_555
O7_2 C3_4 1_555 1_555
O3_4 C4_4 1_555 1_555
C5_4 C6_4 1_555 1_555
C6_4 C3_4 1_555 1_555
C7_4 C2_4 1_555 1_555
C8_4 C6_4 1_555 1_555
O4_4 C7_4 1_555 1_555
O11_2 Cu5_2 1_555 1_555
Cu6_3 O4_4 1_555 1_555
Cu8_3 O3_4 1_555 1_555
Cu4_3 O3_4 1_555 1_555
O9_4 Cu5_2 1_555 1_555
C5_4 C7_4 1_555 1_555
C8_4 O11_2 1_555 1_555
O4_4 Cu4_3 1_555 1_555
C1_4 H1_4 1_555 1_555
C1_5 C2_5 1_555 1_555
C2_5 C4_5 1_555 1_555
C3_5 C1_5 1_555 1_555
C4_5 O2_5 1_555 1_555
O7_3 C3_5 1_555 1_555
O3_5 C4_5 1_555 1_555
C5_5 C6_5 1_555 1_555
C6_5 C3_5 1_555 1_555
C7_5 C2_5 1_555 1_555
C8_5 C6_5 1_555 1_555
O4_5 C7_5 1_555 1_555
O11_3 Cu5_3 1_555 1_555
Cu6 O4_5 1_555 1_555
O9_5 Cu5_3 1_555 1_555
C5_5 C7_5 1_555 1_555
C8_5 O11_3 1_555 1_555
C1_5 H1_5 1_555 1_555
C1_6 C2_6 1_555 1_555
C2_6 C4_6 1_555 1_555
C3_6 C1_6 1_555 1_555
C4_6 O2_6 1_555 1_555
O7 C3_6 1_555 1_555
O3_6 C4_6 1_555 1_555
C5_6 C6_6 1_555 1_555
C6_6 C3_6 1_555 1_555
C7_6 C2_6 1_555 1_555
C8_6 C6_6 1_555 1_555
O4_6 C7_6 1_555 1_555
O11 Cu5 1_555 1_555
Cu6_2 O4_6 1_555 1_555
O8 Cu5 1_555 1_555
O9_6 Cu5 1_555 1_555
C5_6 C7_6 1_555 1_555
C8_6 O11 1_555 1_555
C1_6 H1_6 1_555 1_555
C5_7 C6_7 1_555 1_555
C8_7 C6_7 1_555 1_555
O4_7 C7_7 1_555 1_555
O9_5 C8_7 1_555 1_555
C5_7 C7_7 1_555 1_555
C5_7 H2_7 1_555 1_555
Cu6_2 O3_7 1_555 1_555
C1_7 C2_7 1_555 1_555
C2_7 C4_7 1_555 1_555
C3_7 C1_7 1_555 1_555
C4_7 O2_7 1_555 1_555
O8_3 C3_7 1_555 1_555
O2_7 Cu8_2 1_555 1_555
C1_7 H1_7 1_555 1_555
C5_8 C6_8 1_555 1_555
C8_8 C6_8 1_555 1_555
O4_8 C7_8 1_555 1_555
O9_6 C8_8 1_555 1_555
Cu8_3 O4_8 1_555 1_555
C5_8 C7_8 1_555 1_555
C8_8 O12 1_555 1_555
C5_8 H2_8 1_555 1_555
C1_8 C2_8 1_555 1_555
C2_8 C4_8 1_555 1_555
C3_8 C1_8 1_555 1_555
C4_8 O2_8 1_555 1_555
O8 C3_8 1_555 1_555
O2_8 Cu8_3 1_555 1_555
O3_8 C4_8 1_555 1_555
Cu4_3 O3_8 1_555 1_555
Cu6_3 O3_8 1_555 1_555
C1_8 H1_8 1_555 1_555
C1_9 C2_9 1_555 1_555
C2_9 C4_9 1_555 1_555
C3_9 C1_9 1_555 1_555
C4_9 O2_9 1_555 1_555
O8_2 C3_9 1_555 1_555
O2_9 Cu8 1_555 1_555
C1_9 H1_9 1_555 1_555
C5_9 C6_9 1_555 1_555
C8_9 C6_9 1_555 1_555
O4_9 C7_9 1_555 1_555
O9_4 C8_9 1_555 1_555
C5_9 C7_9 1_555 1_555
C5_9 H2_9 1_555 1_555
Cu6 O3_9 1_555 1_555

#END
