
###############################################################################
#
# This file contains modified crystal structure data generated from the
# MOF subset of the Cambridge Structural Database (CSD) v543 
# hosted by the Cambridge Crystallographic Data Centre (CCDC).
#
# This work is licensed under the Creative Commons
# Attribution-NonCommercial-ShareAlike 4.0 International License.
# To view a copy of this license, visit
# http://creativecommons.org/licenses/by-nc-sa/4.0/
# or send a letter to
# Creative Commons, PO Box 1866, Mountain View, CA 94042, USA.
#
# CIF created using the CSD Python API on 29 September 2022
# The structure has been converted into the P1 space group
# The structure has a 3D framework
# The original CSD entry MOKYAP31 is in the rhombohedral crystal system
# The framework has been calculated to contain at least 10.0% void space
# The void calculation uses a probe of radius 1.32A, grid spacing 0.4
# H atom positions have been added when not included in the experimental data
#
###############################################################################

data_MOKYAP31
_chemical_formula_moiety         '(C72 H18 Cu7 O44)n'
_symmetry_cell_setting           triclinic
_symmetry_space_group_name_H-M   'P 1'
_symmetry_Int_Tables_number      1
_space_group_name_Hall           'P 1'
loop_
_symmetry_equiv_pos_site_id
_symmetry_equiv_pos_as_xyz
1 x,y,z
_cell_length_a                   25.9181(3)
_cell_length_b                   25.9181(3)
_cell_length_c                   6.27281(7)
_cell_angle_alpha                90
_cell_angle_beta                 90
_cell_angle_gamma                120
_cell_volume                     3649.21
loop_
_atom_site_label
_atom_site_type_symbol
_atom_site_fract_x
_atom_site_fract_y
_atom_site_fract_z
_atom_site_U_iso_or_equiv
_atom_site_thermal_displace_type
Cu7 Cu 0.31803(7) 0.37140(5) 0.0092(2) 0.0092 Uiso
Cu1 Cu 0.29527(5) 0.27997(5) 0.3425(2) 0.0092 Uiso
C1 C 0.1606(3) 0.3128(3) 0.1254(13) 0.0070 Uiso
C2 C 0.1201(4) 0.3267(4) 0.1973(15) 0.0114 Uiso
C3 C 0.2092(3) 0.3191(4) 0.2549(12) 0.0051 Uiso
C4 C 0.0779(3) 0.3239(4) 0.0298(14) 0.0089 Uiso
O1 O 0.2514(2) 0.3071(2) 0.1722(10) 0.0048 Uiso
O3 O 0.0520(2) 0.3547(2) 0.0681(8) 0.0048 Uiso
C5 C 0.1727(3) 0.3539(3) 0.5413(13) 0.0070 Uiso
C6 C 0.2132(4) 0.3400(4) 0.4694(15) 0.0114 Uiso
C7 C 0.1241(3) 0.3476(4) 0.4118(12) 0.0051 Uiso
C8 C 0.2554(3) 0.3428(4) 0.6369(14) 0.0089 Uiso
O4 O 0.0819(2) 0.3596(2) 0.4945(10) 0.0048 Uiso
O5 O 0.2670(2) 0.3747(2) 0.7962(9) 0.0105 Uiso
O6 O 0.2813(2) 0.3120(2) 0.5986(8) 0.0048 Uiso
Cu4 Cu 0.01530(7) 0.29527(5) 0.6575(2) 0.0092 Uiso
Cu5 Cu 0.38670(5) 0.34863(7) 0.6758(2) 0.0092 Uiso
Cu8 Cu 0.03806(5) 0.38670(5) 0.3242(2) 0.0092 Uiso
O7 O 0.3596(2) 0.2776(3) 0.5055(10) 0.0048 Uiso
O9 O 0.2920(2) 0.2257(3) 0.1295(9) 0.0105 Uiso
O12 O 0.3640(3) 0.3853(2) 0.2652(8) 0.0048 Uiso
H2 H 0.176943 0.370493 0.703477 . .
O2 O 0.0663(2) 0.2920(2) 0.8705(9) 0.0105 Uiso
O8 O 0.3890(3) 0.4153(2) 0.8389(10) 0.0048 Uiso
O11 O 0.3547(2) 0.3027(3) 0.9319(8) 0.0048 Uiso
H1 H 0.156391 0.296174 0.963189 . .
Cu6 Cu 0.94664(5) 0.31803(7) 0.9908(2) 0.0092 Uiso
Cu6_2 Cu 0.37140(9) 0.05336(5) 0.9908(2) 0.0092 Uiso
Cu7_2 Cu 0.05336(9) 0.68197(7) 0.0092(2) 0.0092 Uiso
C1_2 C 0.1522(4) 0.8394(3) 0.1254(13) 0.0070 Uiso
C2_2 C 0.2066(6) 0.8799(4) 0.1973(15) 0.0114 Uiso
C3_2 C 0.1099(5) 0.7908(3) 0.2549(12) 0.0051 Uiso
C4_2 C 0.2460(5) 0.9221(3) 0.0298(14) 0.0089 Uiso
O1_2 O 0.0557(3) 0.7486(2) 0.1722(10) 0.0048 Uiso
O3_2 O 0.3027(3) 0.9480(2) 0.0681(8) 0.0048 Uiso
C5_2 C 0.1811(4) 0.8273(3) 0.5413(13) 0.0070 Uiso
C6_2 C 0.1267(6) 0.7868(4) 0.4694(15) 0.0114 Uiso
C7_2 C 0.2234(5) 0.8759(3) 0.4118(12) 0.0051 Uiso
C8_2 C 0.0873(5) 0.7446(3) 0.6369(14) 0.0089 Uiso
O4_2 O 0.2776(3) 0.9181(2) 0.4945(10) 0.0048 Uiso
O5_2 O 0.1076(3) 0.7330(2) 0.7962(9) 0.0105 Uiso
O6_2 O 0.0306(3) 0.7187(2) 0.5986(8) 0.0048 Uiso
Cu4_2 Cu 0.27997(9) 0.98470(7) 0.6575(2) 0.0092 Uiso
Cu8_2 Cu 0.34863(7) 0.96194(5) 0.3242(2) 0.0092 Uiso
O12_2 O 0.0214(4) 0.6360(3) 0.2652(8) 0.0048 Uiso
H2_2 H 0.19355 0.823057 0.703477 . .
O2_2 O 0.2257(3) 0.9337(2) 0.8705(9) 0.0105 Uiso
O8_2 O 0.0262(4) 0.6110(3) 0.8389(10) 0.0048 Uiso
H1_2 H 0.139783 0.843609 0.963189 . .
Cu1_2 Cu 0.98470(7) 0.70473(5) 0.3425(2) 0.0092 Uiso
Cu5_2 Cu 0.96194(9) 0.61330(5) 0.6758(2) 0.0092 Uiso
O7_2 O 0.9181(4) 0.6404(2) 0.5055(10) 0.0048 Uiso
O9_2 O 0.9337(4) 0.7080(2) 0.1295(9) 0.0105 Uiso
O11_2 O 0.9480(4) 0.6453(2) 0.9319(8) 0.0048 Uiso
Cu1_3 Cu 0.72003(5) 0.01530(7) 0.3425(2) 0.0092 Uiso
Cu5_3 Cu 0.65137(7) 0.03806(9) 0.6758(2) 0.0092 Uiso
O7_3 O 0.7224(3) 0.0819(4) 0.5055(10) 0.0048 Uiso
O9_3 O 0.7743(3) 0.0663(4) 0.1295(9) 0.0105 Uiso
O11_3 O 0.6973(3) 0.0520(4) 0.9319(8) 0.0048 Uiso
Cu7_3 Cu 0.62860(5) 0.94664(9) 0.0092(2) 0.0092 Uiso
C1_3 C 0.6872(3) 0.8478(4) 0.1254(13) 0.0070 Uiso
C2_3 C 0.6733(4) 0.7934(6) 0.1973(15) 0.0114 Uiso
C3_3 C 0.6809(4) 0.8901(5) 0.2549(12) 0.0051 Uiso
C4_3 C 0.6761(4) 0.7540(5) 0.0298(14) 0.0089 Uiso
O1_3 O 0.6929(2) 0.9443(3) 0.1722(10) 0.0048 Uiso
O3_3 O 0.6453(2) 0.6973(3) 0.0681(8) 0.0048 Uiso
C5_3 C 0.6461(3) 0.8189(4) 0.5413(13) 0.0070 Uiso
C6_3 C 0.6600(4) 0.8733(6) 0.4694(15) 0.0114 Uiso
C7_3 C 0.6524(4) 0.7766(5) 0.4118(12) 0.0051 Uiso
C8_3 C 0.6572(4) 0.9127(5) 0.6369(14) 0.0089 Uiso
O4_3 O 0.6404(2) 0.7224(3) 0.4945(10) 0.0048 Uiso
O5_3 O 0.6253(2) 0.8924(3) 0.7962(9) 0.0105 Uiso
O6_3 O 0.6880(2) 0.9694(3) 0.5986(8) 0.0048 Uiso
Cu4_3 Cu 0.70473(5) 0.72003(9) 0.6575(2) 0.0092 Uiso
Cu8_3 Cu 0.61330(5) 0.65137(7) 0.3242(2) 0.0092 Uiso
O12_3 O 0.6147(2) 0.9786(4) 0.2652(8) 0.0048 Uiso
H2_3 H 0.629507 0.80645 0.703477 . .
O2_3 O 0.7080(2) 0.7743(3) 0.8705(9) 0.0105 Uiso
Cu6_3 Cu 0.68197(7) 0.62860(9) 0.9908(2) 0.0092 Uiso
O8_3 O 0.5847(2) 0.9738(4) 0.8389(10) 0.0048 Uiso
H1_3 H 0.703826 0.860217 0.963189 . .
H2_4 H 0.843609 0.703826 0.0368107 . .
C1_4 C 0.8273(3) 0.6461(3) 0.4587(13) 0.0070 Uiso
C2_4 C 0.7868(4) 0.6600(4) 0.5306(15) 0.0114 Uiso
C3_4 C 0.8759(3) 0.6524(4) 0.5882(12) 0.0051 Uiso
C4_4 C 0.7446(3) 0.6572(4) 0.3631(14) 0.0089 Uiso
O2_4 O 0.7330(2) 0.6253(2) 0.2038(9) 0.0105 Uiso
O3_4 O 0.7187(2) 0.6880(2) 0.4014(8) 0.0048 Uiso
C5_4 C 0.8394(3) 0.6872(3) 0.8746(13) 0.0070 Uiso
C6_4 C 0.8799(4) 0.6733(4) 0.8027(15) 0.0114 Uiso
C7_4 C 0.7908(3) 0.6809(4) 0.7451(12) 0.0051 Uiso
C8_4 C 0.9221(3) 0.6761(4) 0.9702(14) 0.0089 Uiso
O4_4 O 0.7486(2) 0.6929(2) 0.8278(10) 0.0048 Uiso
O9_4 O 0.9587(2) 0.5590(3) 0.4628(9) 0.0105 Uiso
H1_4 H 0.823057 0.629507 0.296523 . .
H2_5 H 0.860217 0.156391 0.0368107 . .
C1_5 C 0.8189(4) 0.1727(3) 0.4587(13) 0.0070 Uiso
C2_5 C 0.8733(6) 0.2132(4) 0.5306(15) 0.0114 Uiso
C3_5 C 0.7766(5) 0.1241(3) 0.5882(12) 0.0051 Uiso
C4_5 C 0.9127(5) 0.2554(3) 0.3631(14) 0.0089 Uiso
O2_5 O 0.8924(3) 0.2670(2) 0.2038(9) 0.0105 Uiso
O3_5 O 0.9694(3) 0.2813(2) 0.4014(8) 0.0048 Uiso
C5_5 C 0.8478(4) 0.1606(3) 0.8746(13) 0.0070 Uiso
C6_5 C 0.7934(6) 0.1201(4) 0.8027(15) 0.0114 Uiso
C7_5 C 0.8901(5) 0.2092(3) 0.7451(12) 0.0051 Uiso
C8_5 C 0.7540(5) 0.0779(3) 0.9702(14) 0.0089 Uiso
O4_5 O 0.9443(3) 0.2514(2) 0.8278(10) 0.0048 Uiso
O9_5 O 0.6004(4) 0.0413(2) 0.4628(9) 0.0105 Uiso
H1_5 H 0.80645 0.176943 0.296523 . .
H2_6 H 0.296174 0.139783 0.0368107 . .
C1_6 C 0.3539(3) 0.1811(4) 0.4587(13) 0.0070 Uiso
C2_6 C 0.3400(4) 0.1267(6) 0.5306(15) 0.0114 Uiso
C3_6 C 0.3476(4) 0.2234(5) 0.5882(12) 0.0051 Uiso
C4_6 C 0.3428(4) 0.0873(5) 0.3631(14) 0.0089 Uiso
O2_6 O 0.3747(2) 0.1076(3) 0.2038(9) 0.0105 Uiso
O3_6 O 0.3120(2) 0.0306(3) 0.4014(8) 0.0048 Uiso
C5_6 C 0.3128(3) 0.1522(4) 0.8746(13) 0.0070 Uiso
C6_6 C 0.3267(4) 0.2066(6) 0.8027(15) 0.0114 Uiso
C7_6 C 0.3191(4) 0.1099(5) 0.7451(12) 0.0051 Uiso
C8_6 C 0.3239(4) 0.2460(5) 0.9702(14) 0.0089 Uiso
O4_6 O 0.3071(2) 0.0557(3) 0.8278(10) 0.0048 Uiso
O9_6 O 0.4410(3) 0.3996(4) 0.4628(9) 0.0105 Uiso
H1_6 H 0.370493 0.19355 0.296523 . .
C5_7 C 0.5061(3) 0.0205(3) 0.2079(13) 0.0070 Uiso
C6_7 C 0.5466(4) 0.0066(4) 0.1360(15) 0.0114 Uiso
C7_7 C 0.4575(3) 0.0142(4) 0.0784(12) 0.0051 Uiso
C8_7 C 0.5888(3) 0.0094(4) 0.3035(14) 0.0089 Uiso
O4_7 O 0.4153(2) 0.0262(2) 0.1611(10) 0.0048 Uiso
H2_7 H 0.510276 0.0371595 0.370144 . .
O3_7 O 0.3853(2) 0.0214(2) 0.7348(8) 0.0048 Uiso
C1_7 C 0.4939(3) 0.9795(3) 0.7921(13) 0.0070 Uiso
C2_7 C 0.4534(4) 0.9934(4) 0.8640(15) 0.0114 Uiso
C3_7 C 0.5425(3) 0.9858(4) 0.9216(12) 0.0051 Uiso
C4_7 C 0.4112(3) 0.9906(4) 0.6965(14) 0.0089 Uiso
O2_7 O 0.3996(2) 0.9587(2) 0.5372(9) 0.0105 Uiso
H1_7 H 0.489724 0.962841 0.629856 . .
C5_8 C 0.5145(4) 0.4939(3) 0.2079(13) 0.0070 Uiso
C6_8 C 0.4601(6) 0.4534(4) 0.1360(15) 0.0114 Uiso
C7_8 C 0.5568(5) 0.5425(3) 0.0784(12) 0.0051 Uiso
C8_8 C 0.4207(5) 0.4112(3) 0.3035(14) 0.0089 Uiso
O4_8 O 0.6110(3) 0.5847(2) 0.1611(10) 0.0048 Uiso
H2_8 H 0.526883 0.489724 0.370144 . .
C1_8 C 0.4855(4) 0.5061(3) 0.7921(13) 0.0070 Uiso
C2_8 C 0.5399(6) 0.5466(4) 0.8640(15) 0.0114 Uiso
C3_8 C 0.4432(5) 0.4575(3) 0.9216(12) 0.0051 Uiso
C4_8 C 0.5793(5) 0.5888(3) 0.6965(14) 0.0089 Uiso
O2_8 O 0.5590(3) 0.6004(2) 0.5372(9) 0.0105 Uiso
O3_8 O 0.6360(3) 0.6147(2) 0.7348(8) 0.0048 Uiso
H1_8 H 0.473117 0.510276 0.629856 . .
C1_9 C 0.0205(3) 0.5145(4) 0.7921(13) 0.0070 Uiso
C2_9 C 0.0066(4) 0.4601(6) 0.8640(15) 0.0114 Uiso
C3_9 C 0.0142(4) 0.5568(5) 0.9216(12) 0.0051 Uiso
C4_9 C 0.0094(4) 0.4207(5) 0.6965(14) 0.0089 Uiso
O2_9 O 0.0413(2) 0.4410(3) 0.5372(9) 0.0105 Uiso
H1_9 H 0.0371595 0.526883 0.629856 . .
C5_9 C 0.9795(3) 0.4855(4) 0.2079(13) 0.0070 Uiso
C6_9 C 0.9934(4) 0.5399(6) 0.1360(15) 0.0114 Uiso
C7_9 C 0.9858(4) 0.4432(5) 0.0784(12) 0.0051 Uiso
C8_9 C 0.9906(4) 0.5793(5) 0.3035(14) 0.0089 Uiso
O4_9 O 0.9738(2) 0.3890(3) 0.1611(10) 0.0048 Uiso
H2_9 H 0.962841 0.473117 0.370144 . .
O3_9 O 0.9786(2) 0.3640(3) 0.7348(8) 0.0048 Uiso
loop_
_geom_bond_atom_site_label_1
_geom_bond_atom_site_label_2
_geom_bond_site_symmetry_1
_geom_bond_site_symmetry_2
Cu1 O1 1_555 1_555
C1 C2 1_555 1_555
C2 C4 1_555 1_555
C3 C1 1_555 1_555
O1 C3 1_555 1_555
O3 C4 1_555 1_555
C5 C6 1_555 1_555
C6 C3 1_555 1_555
C7 C2 1_555 1_555
C8 C6 1_555 1_555
O4 C7 1_555 1_555
O5 C8 1_555 1_555
O6 Cu1 1_555 1_555
Cu7 O1 1_555 1_555
Cu4 O4 1_555 1_555
Cu5 O6 1_555 1_555
Cu8 O3 1_555 1_555
O7 Cu1 1_555 1_555
O9 Cu1 1_555 1_555
O12 Cu1 1_555 1_555
C5 C7 1_555 1_555
C8 O6 1_555 1_555
O4 Cu8 1_555 1_555
Cu7 O12 1_555 1_555
Cu5 O7 1_555 1_555
C5 H2 1_555 1_555
O2 Cu4 1_555 1_555
C1_2 C2_2 1_555 1_555
C2_2 C4_2 1_555 1_555
C3_2 C1_2 1_555 1_555
O1_2 C3_2 1_555 1_555
O3_2 C4_2 1_555 1_555
C5_2 C6_2 1_555 1_555
C6_2 C3_2 1_555 1_555
C7_2 C2_2 1_555 1_555
C8_2 C6_2 1_555 1_555
O4_2 C7_2 1_555 1_555
O5_2 C8_2 1_555 1_555
Cu7_2 O1_2 1_555 1_555
Cu4_2 O4_2 1_555 1_555
Cu8_2 O3_2 1_555 1_555
C5_2 C7_2 1_555 1_555
C8_2 O6_2 1_555 1_555
O4_2 Cu8_2 1_555 1_555
Cu7_2 O12_2 1_555 1_555
C5_2 H2_2 1_555 1_555
O2_2 Cu4_2 1_555 1_555
O7_2 Cu1_2 1_555 1_555
O9_2 Cu1_2 1_555 1_555
Cu5_2 O7_2 1_555 1_555
O7_3 Cu1_3 1_555 1_555
O9_3 Cu1_3 1_555 1_555
Cu5_3 O7_3 1_555 1_555
C1_3 C2_3 1_555 1_555
C2_3 C4_3 1_555 1_555
C3_3 C1_3 1_555 1_555
O1_3 C3_3 1_555 1_555
O3_3 C4_3 1_555 1_555
C5_3 C6_3 1_555 1_555
C6_3 C3_3 1_555 1_555
C7_3 C2_3 1_555 1_555
C8_3 C6_3 1_555 1_555
O4_3 C7_3 1_555 1_555
O5_3 C8_3 1_555 1_555
Cu7_3 O1_3 1_555 1_555
Cu4_3 O4_3 1_555 1_555
Cu8_3 O3_3 1_555 1_555
C5_3 C7_3 1_555 1_555
C8_3 O6_3 1_555 1_555
O4_3 Cu8_3 1_555 1_555
Cu7_3 O12_3 1_555 1_555
C5_3 H2_3 1_555 1_555
O2_3 Cu4_3 1_555 1_555
C1_4 C2_4 1_555 1_555
C2_4 C4_4 1_555 1_555
C3_4 C1_4 1_555 1_555
C4_4 O2_4 1_555 1_555
O7_2 C3_4 1_555 1_555
O3_4 C4_4 1_555 1_555
C5_4 C6_4 1_555 1_555
C6_4 C3_4 1_555 1_555
C7_4 C2_4 1_555 1_555
C8_4 C6_4 1_555 1_555
O4_4 C7_4 1_555 1_555
O11_2 Cu5_2 1_555 1_555
Cu6_3 O4_4 1_555 1_555
Cu8_3 O3_4 1_555 1_555
Cu4_3 O3_4 1_555 1_555
O9_4 Cu5_2 1_555 1_555
C5_4 C7_4 1_555 1_555
C8_4 O11_2 1_555 1_555
O4_4 Cu4_3 1_555 1_555
C1_4 H1_4 1_555 1_555
C1_5 C2_5 1_555 1_555
C2_5 C4_5 1_555 1_555
C3_5 C1_5 1_555 1_555
C4_5 O2_5 1_555 1_555
O7_3 C3_5 1_555 1_555
O3_5 C4_5 1_555 1_555
C5_5 C6_5 1_555 1_555
C6_5 C3_5 1_555 1_555
C7_5 C2_5 1_555 1_555
C8_5 C6_5 1_555 1_555
O4_5 C7_5 1_555 1_555
O11_3 Cu5_3 1_555 1_555
Cu6 O4_5 1_555 1_555
O9_5 Cu5_3 1_555 1_555
C5_5 C7_5 1_555 1_555
C8_5 O11_3 1_555 1_555
C1_5 H1_5 1_555 1_555
C1_6 C2_6 1_555 1_555
C2_6 C4_6 1_555 1_555
C3_6 C1_6 1_555 1_555
C4_6 O2_6 1_555 1_555
O7 C3_6 1_555 1_555
O3_6 C4_6 1_555 1_555
C5_6 C6_6 1_555 1_555
C6_6 C3_6 1_555 1_555
C7_6 C2_6 1_555 1_555
C8_6 C6_6 1_555 1_555
O4_6 C7_6 1_555 1_555
O11 Cu5 1_555 1_555
Cu6_2 O4_6 1_555 1_555
O8 Cu5 1_555 1_555
O9_6 Cu5 1_555 1_555
C5_6 C7_6 1_555 1_555
C8_6 O11 1_555 1_555
C1_6 H1_6 1_555 1_555
C5_7 C6_7 1_555 1_555
C8_7 C6_7 1_555 1_555
O4_7 C7_7 1_555 1_555
O9_5 C8_7 1_555 1_555
C5_7 C7_7 1_555 1_555
C5_7 H2_7 1_555 1_555
Cu6_2 O3_7 1_555 1_555
C1_7 C2_7 1_555 1_555
C2_7 C4_7 1_555 1_555
C3_7 C1_7 1_555 1_555
C4_7 O2_7 1_555 1_555
O8_3 C3_7 1_555 1_555
O2_7 Cu8_2 1_555 1_555
C1_7 H1_7 1_555 1_555
C5_8 C6_8 1_555 1_555
C8_8 C6_8 1_555 1_555
O4_8 C7_8 1_555 1_555
O9_6 C8_8 1_555 1_555
Cu8_3 O4_8 1_555 1_555
C5_8 C7_8 1_555 1_555
C8_8 O12 1_555 1_555
C5_8 H2_8 1_555 1_555
C1_8 C2_8 1_555 1_555
C2_8 C4_8 1_555 1_555
C3_8 C1_8 1_555 1_555
C4_8 O2_8 1_555 1_555
O8 C3_8 1_555 1_555
O2_8 Cu8_3 1_555 1_555
O3_8 C4_8 1_555 1_555
Cu4_3 O3_8 1_555 1_555
Cu6_3 O3_8 1_555 1_555
C1_8 H1_8 1_555 1_555
C1_9 C2_9 1_555 1_555
C2_9 C4_9 1_555 1_555
C3_9 C1_9 1_555 1_555
C4_9 O2_9 1_555 1_555
O8_2 C3_9 1_555 1_555
O2_9 Cu8 1_555 1_555
C1_9 H1_9 1_555 1_555
C5_9 C6_9 1_555 1_555
C8_9 C6_9 1_555 1_555
O4_9 C7_9 1_555 1_555
O9_4 C8_9 1_555 1_555
C5_9 C7_9 1_555 1_555
C5_9 H2_9 1_555 1_555
Cu6 O3_9 1_555 1_555

#END
