
###############################################################################
#
# This file contains modified crystal structure data generated from the
# MOF subset of the Cambridge Structural Database (CSD) v543 
# hosted by the Cambridge Crystallographic Data Centre (CCDC).
#
# This work is licensed under the Creative Commons
# Attribution-NonCommercial-ShareAlike 4.0 International License.
# To view a copy of this license, visit
# http://creativecommons.org/licenses/by-nc-sa/4.0/
# or send a letter to
# Creative Commons, PO Box 1866, Mountain View, CA 94042, USA.
#
# CIF created using the CSD Python API on 29 September 2022
# The structure has been converted into the P1 space group
# The structure has a 3D framework
# The original CSD entry MOKYAP61 is in the rhombohedral crystal system
# The framework has been calculated to contain at least 10.0% void space
# The void calculation uses a probe of radius 1.32A, grid spacing 0.4
# H atom positions have been added when not included in the experimental data
#
###############################################################################

data_MOKYAP61
_chemical_formula_moiety         '(C72 H18 Cu7 O44)n'
_symmetry_cell_setting           triclinic
_symmetry_space_group_name_H-M   'P 1'
_symmetry_Int_Tables_number      1
_space_group_name_Hall           'P 1'
loop_
_symmetry_equiv_pos_site_id
_symmetry_equiv_pos_as_xyz
1 x,y,z
_cell_length_a                   25.9153(3)
_cell_length_b                   25.9153(3)
_cell_length_c                   6.27475(7)
_cell_angle_alpha                90
_cell_angle_beta                 90
_cell_angle_gamma                120
_cell_volume                     3649.55
loop_
_atom_site_label
_atom_site_type_symbol
_atom_site_fract_x
_atom_site_fract_y
_atom_site_fract_z
_atom_site_U_iso_or_equiv
_atom_site_thermal_displace_type
Cu7 Cu 0.31799(7) 0.37128(5) 0.0091(2) 0.0104 Uiso
Cu1 Cu 0.29539(5) 0.28005(5) 0.3424(2) 0.0104 Uiso
C1 C 0.1611(3) 0.3129(3) 0.1252(13) 0.0058 Uiso
C2 C 0.1199(4) 0.3269(4) 0.1983(16) 0.0165 Uiso
C3 C 0.2091(4) 0.3187(4) 0.2546(12) 0.0051 Uiso
C4 C 0.0775(3) 0.3238(4) 0.0305(14) 0.0089 Uiso
O1 O 0.2515(2) 0.3071(2) 0.1718(9) 0.0051 Uiso
O3 O 0.0518(2) 0.3545(2) 0.0672(8) 0.0051 Uiso
C5 C 0.1722(3) 0.3538(3) 0.5415(13) 0.0058 Uiso
C6 C 0.2134(4) 0.3398(4) 0.4684(16) 0.0165 Uiso
C7 C 0.1242(4) 0.3480(4) 0.4121(12) 0.0051 Uiso
C8 C 0.2558(3) 0.3429(4) 0.6362(14) 0.0089 Uiso
O4 O 0.0818(2) 0.3596(2) 0.4949(9) 0.0051 Uiso
O5 O 0.2673(2) 0.3746(2) 0.7967(9) 0.0136 Uiso
O6 O 0.2815(2) 0.3122(2) 0.5995(8) 0.0051 Uiso
Cu4 Cu 0.01534(7) 0.29539(5) 0.6576(2) 0.0104 Uiso
Cu5 Cu 0.38662(5) 0.34867(7) 0.6757(2) 0.0104 Uiso
Cu8 Cu 0.03794(5) 0.38662(5) 0.3243(2) 0.0104 Uiso
O7 O 0.3596(2) 0.2777(3) 0.5051(9) 0.0051 Uiso
O9 O 0.2921(2) 0.2261(3) 0.1300(9) 0.0136 Uiso
O12 O 0.3640(3) 0.3851(2) 0.2661(8) 0.0051 Uiso
H2 H 0.176138 0.369924 0.704205 . .
O2 O 0.0660(2) 0.2921(2) 0.8700(9) 0.0136 Uiso
O8 O 0.3889(3) 0.4152(2) 0.8385(9) 0.0051 Uiso
O11 O 0.3545(2) 0.3027(3) 0.9328(8) 0.0051 Uiso
H1 H 0.157196 0.296743 0.962462 . .
Cu6 Cu 0.94672(5) 0.31799(7) 0.9909(2) 0.0104 Uiso
Cu6_2 Cu 0.37128(9) 0.05328(5) 0.9909(2) 0.0104 Uiso
Cu7_2 Cu 0.05328(9) 0.68201(7) 0.0091(2) 0.0104 Uiso
C1_2 C 0.1518(4) 0.8389(3) 0.1252(13) 0.0058 Uiso
C2_2 C 0.2070(6) 0.8801(4) 0.1983(16) 0.0165 Uiso
C3_2 C 0.1096(6) 0.7909(4) 0.2546(12) 0.0051 Uiso
C4_2 C 0.2463(5) 0.9225(3) 0.0305(14) 0.0089 Uiso
O1_2 O 0.0556(3) 0.7485(2) 0.1718(9) 0.0051 Uiso
O3_2 O 0.3027(3) 0.9482(2) 0.0672(8) 0.0051 Uiso
C5_2 C 0.1815(4) 0.8278(3) 0.5415(13) 0.0058 Uiso
C6_2 C 0.1263(6) 0.7866(4) 0.4684(16) 0.0165 Uiso
C7_2 C 0.2237(6) 0.8758(4) 0.4121(12) 0.0051 Uiso
C8_2 C 0.0870(5) 0.7442(3) 0.6362(14) 0.0089 Uiso
O4_2 O 0.2777(3) 0.9182(2) 0.4949(9) 0.0051 Uiso
O5_2 O 0.1072(3) 0.7327(2) 0.7967(9) 0.0136 Uiso
O6_2 O 0.0306(3) 0.7185(2) 0.5995(8) 0.0051 Uiso
Cu4_2 Cu 0.28005(9) 0.98466(7) 0.6576(2) 0.0104 Uiso
Cu8_2 Cu 0.34867(7) 0.96206(5) 0.3243(2) 0.0104 Uiso
O12_2 O 0.0212(4) 0.6360(3) 0.2661(8) 0.0051 Uiso
H2_2 H 0.193786 0.823862 0.704205 . .
O2_2 O 0.2261(3) 0.9340(2) 0.8700(9) 0.0136 Uiso
O8_2 O 0.0262(4) 0.6111(3) 0.8385(9) 0.0051 Uiso
H1_2 H 0.139547 0.842804 0.962462 . .
Cu1_2 Cu 0.98466(7) 0.70461(5) 0.3424(2) 0.0104 Uiso
Cu5_2 Cu 0.96206(9) 0.61338(5) 0.6757(2) 0.0104 Uiso
O7_2 O 0.9182(4) 0.6404(2) 0.5051(9) 0.0051 Uiso
O9_2 O 0.9340(4) 0.7079(2) 0.1300(9) 0.0136 Uiso
O11_2 O 0.9482(4) 0.6455(2) 0.9328(8) 0.0051 Uiso
Cu1_3 Cu 0.71995(5) 0.01534(7) 0.3424(2) 0.0104 Uiso
Cu5_3 Cu 0.65133(7) 0.03794(9) 0.6757(2) 0.0104 Uiso
O7_3 O 0.7223(3) 0.0818(4) 0.5051(9) 0.0051 Uiso
O9_3 O 0.7739(3) 0.0660(4) 0.1300(9) 0.0136 Uiso
O11_3 O 0.6973(3) 0.0518(4) 0.9328(8) 0.0051 Uiso
Cu7_3 Cu 0.62872(5) 0.94672(9) 0.0091(2) 0.0104 Uiso
C1_3 C 0.6871(3) 0.8482(4) 0.1252(13) 0.0058 Uiso
C2_3 C 0.6731(4) 0.7930(6) 0.1983(16) 0.0165 Uiso
C3_3 C 0.6813(4) 0.8904(6) 0.2546(12) 0.0051 Uiso
C4_3 C 0.6762(4) 0.7537(5) 0.0305(14) 0.0089 Uiso
O1_3 O 0.6929(2) 0.9444(3) 0.1718(9) 0.0051 Uiso
O3_3 O 0.6455(2) 0.6973(3) 0.0672(8) 0.0051 Uiso
C5_3 C 0.6462(3) 0.8185(4) 0.5415(13) 0.0058 Uiso
C6_3 C 0.6602(4) 0.8737(6) 0.4684(16) 0.0165 Uiso
C7_3 C 0.6520(4) 0.7763(6) 0.4121(12) 0.0051 Uiso
C8_3 C 0.6571(4) 0.9130(5) 0.6362(14) 0.0089 Uiso
O4_3 O 0.6404(2) 0.7223(3) 0.4949(9) 0.0051 Uiso
O5_3 O 0.6254(2) 0.8928(3) 0.7967(9) 0.0136 Uiso
O6_3 O 0.6878(2) 0.9694(3) 0.5995(8) 0.0051 Uiso
Cu4_3 Cu 0.70461(5) 0.71995(9) 0.6576(2) 0.0104 Uiso
Cu8_3 Cu 0.61338(5) 0.65133(7) 0.3243(2) 0.0104 Uiso
O12_3 O 0.6149(2) 0.9788(4) 0.2661(8) 0.0051 Uiso
H2_3 H 0.630076 0.806214 0.704205 . .
O2_3 O 0.7079(2) 0.7739(3) 0.8700(9) 0.0136 Uiso
Cu6_3 Cu 0.68201(7) 0.62872(9) 0.9909(2) 0.0104 Uiso
O8_3 O 0.5848(2) 0.9738(4) 0.8385(9) 0.0051 Uiso
H1_3 H 0.703257 0.860453 0.962462 . .
H2_4 H 0.842804 0.703257 0.0375379 . .
C1_4 C 0.8278(3) 0.6462(3) 0.4585(13) 0.0058 Uiso
C2_4 C 0.7866(4) 0.6602(4) 0.5316(16) 0.0165 Uiso
C3_4 C 0.8758(4) 0.6520(4) 0.5879(12) 0.0051 Uiso
C4_4 C 0.7442(3) 0.6571(4) 0.3638(14) 0.0089 Uiso
O2_4 O 0.7327(2) 0.6254(2) 0.2033(9) 0.0136 Uiso
O3_4 O 0.7185(2) 0.6878(2) 0.4005(8) 0.0051 Uiso
C5_4 C 0.8389(3) 0.6871(3) 0.8748(13) 0.0058 Uiso
C6_4 C 0.8801(4) 0.6731(4) 0.8017(16) 0.0165 Uiso
C7_4 C 0.7909(4) 0.6813(4) 0.7454(12) 0.0051 Uiso
C8_4 C 0.9225(3) 0.6762(4) 0.9695(14) 0.0089 Uiso
O4_4 O 0.7485(2) 0.6929(2) 0.8282(9) 0.0051 Uiso
O9_4 O 0.9588(2) 0.5594(3) 0.4633(9) 0.0136 Uiso
H1_4 H 0.823862 0.630076 0.295795 . .
H2_5 H 0.860453 0.157196 0.0375379 . .
C1_5 C 0.8185(4) 0.1722(3) 0.4585(13) 0.0058 Uiso
C2_5 C 0.8737(6) 0.2134(4) 0.5316(16) 0.0165 Uiso
C3_5 C 0.7763(6) 0.1242(4) 0.5879(12) 0.0051 Uiso
C4_5 C 0.9130(5) 0.2558(3) 0.3638(14) 0.0089 Uiso
O2_5 O 0.8928(3) 0.2673(2) 0.2033(9) 0.0136 Uiso
O3_5 O 0.9694(3) 0.2815(2) 0.4005(8) 0.0051 Uiso
C5_5 C 0.8482(4) 0.1611(3) 0.8748(13) 0.0058 Uiso
C6_5 C 0.7930(6) 0.1199(4) 0.8017(16) 0.0165 Uiso
C7_5 C 0.8904(6) 0.2091(4) 0.7454(12) 0.0051 Uiso
C8_5 C 0.7537(5) 0.0775(3) 0.9695(14) 0.0089 Uiso
O4_5 O 0.9444(3) 0.2515(2) 0.8282(9) 0.0051 Uiso
O9_5 O 0.6007(4) 0.0412(2) 0.4633(9) 0.0136 Uiso
H1_5 H 0.806214 0.176138 0.295795 . .
H2_6 H 0.296743 0.139547 0.0375379 . .
C1_6 C 0.3538(3) 0.1815(4) 0.4585(13) 0.0058 Uiso
C2_6 C 0.3398(4) 0.1263(6) 0.5316(16) 0.0165 Uiso
C3_6 C 0.3480(4) 0.2237(6) 0.5879(12) 0.0051 Uiso
C4_6 C 0.3429(4) 0.0870(5) 0.3638(14) 0.0089 Uiso
O2_6 O 0.3746(2) 0.1072(3) 0.2033(9) 0.0136 Uiso
O3_6 O 0.3122(2) 0.0306(3) 0.4005(8) 0.0051 Uiso
C5_6 C 0.3129(3) 0.1518(4) 0.8748(13) 0.0058 Uiso
C6_6 C 0.3269(4) 0.2070(6) 0.8017(16) 0.0165 Uiso
C7_6 C 0.3187(4) 0.1096(6) 0.7454(12) 0.0051 Uiso
C8_6 C 0.3238(4) 0.2463(5) 0.9695(14) 0.0089 Uiso
O4_6 O 0.3071(2) 0.0556(3) 0.8282(9) 0.0051 Uiso
O9_6 O 0.4406(3) 0.3993(4) 0.4633(9) 0.0136 Uiso
H1_6 H 0.369924 0.193786 0.295795 . .
C5_7 C 0.5056(3) 0.0204(3) 0.2081(13) 0.0058 Uiso
C6_7 C 0.5468(4) 0.0064(4) 0.1350(16) 0.0165 Uiso
C7_7 C 0.4576(4) 0.0146(4) 0.0787(12) 0.0051 Uiso
C8_7 C 0.5892(3) 0.0095(4) 0.3028(14) 0.0089 Uiso
O4_7 O 0.4152(2) 0.0262(2) 0.1615(9) 0.0051 Uiso
H2_7 H 0.509471 0.0365904 0.370871 . .
O3_7 O 0.3851(2) 0.0212(2) 0.7339(8) 0.0051 Uiso
C1_7 C 0.4944(3) 0.9796(3) 0.7919(13) 0.0058 Uiso
C2_7 C 0.4532(4) 0.9936(4) 0.8650(16) 0.0165 Uiso
C3_7 C 0.5424(4) 0.9854(4) 0.9213(12) 0.0051 Uiso
C4_7 C 0.4108(3) 0.9905(4) 0.6972(14) 0.0089 Uiso
O2_7 O 0.3993(2) 0.9588(2) 0.5367(9) 0.0136 Uiso
H1_7 H 0.490529 0.96341 0.629129 . .
C5_8 C 0.5149(4) 0.4944(3) 0.2081(13) 0.0058 Uiso
C6_8 C 0.4597(6) 0.4532(4) 0.1350(16) 0.0165 Uiso
C7_8 C 0.5571(6) 0.5424(4) 0.0787(12) 0.0051 Uiso
C8_8 C 0.4204(5) 0.4108(3) 0.3028(14) 0.0089 Uiso
O4_8 O 0.6111(3) 0.5848(2) 0.1615(9) 0.0051 Uiso
H2_8 H 0.52712 0.490529 0.370871 . .
C1_8 C 0.4851(4) 0.5056(3) 0.7919(13) 0.0058 Uiso
C2_8 C 0.5403(6) 0.5468(4) 0.8650(16) 0.0165 Uiso
C3_8 C 0.4429(6) 0.4576(4) 0.9213(12) 0.0051 Uiso
C4_8 C 0.5796(5) 0.5892(3) 0.6972(14) 0.0089 Uiso
O2_8 O 0.5594(3) 0.6007(2) 0.5367(9) 0.0136 Uiso
O3_8 O 0.6360(3) 0.6149(2) 0.7339(8) 0.0051 Uiso
H1_8 H 0.47288 0.509471 0.629129 . .
C1_9 C 0.0204(3) 0.5149(4) 0.7919(13) 0.0058 Uiso
C2_9 C 0.0064(4) 0.4597(6) 0.8650(16) 0.0165 Uiso
C3_9 C 0.0146(4) 0.5571(6) 0.9213(12) 0.0051 Uiso
C4_9 C 0.0095(4) 0.4204(5) 0.6972(14) 0.0089 Uiso
O2_9 O 0.0412(2) 0.4406(3) 0.5367(9) 0.0136 Uiso
H1_9 H 0.0365904 0.52712 0.629129 . .
C5_9 C 0.9796(3) 0.4851(4) 0.2081(13) 0.0058 Uiso
C6_9 C 0.9936(4) 0.5403(6) 0.1350(16) 0.0165 Uiso
C7_9 C 0.9854(4) 0.4429(6) 0.0787(12) 0.0051 Uiso
C8_9 C 0.9905(4) 0.5796(5) 0.3028(14) 0.0089 Uiso
O4_9 O 0.9738(2) 0.3889(3) 0.1615(9) 0.0051 Uiso
H2_9 H 0.96341 0.47288 0.370871 . .
O3_9 O 0.9788(2) 0.3640(3) 0.7339(8) 0.0051 Uiso
loop_
_geom_bond_atom_site_label_1
_geom_bond_atom_site_label_2
_geom_bond_site_symmetry_1
_geom_bond_site_symmetry_2
Cu1 O1 1_555 1_555
C1 C2 1_555 1_555
C2 C4 1_555 1_555
C3 C1 1_555 1_555
O1 C3 1_555 1_555
O3 C4 1_555 1_555
C5 C6 1_555 1_555
C6 C3 1_555 1_555
C7 C2 1_555 1_555
C8 C6 1_555 1_555
O4 C7 1_555 1_555
O5 C8 1_555 1_555
O6 Cu1 1_555 1_555
Cu7 O1 1_555 1_555
Cu4 O4 1_555 1_555
Cu5 O6 1_555 1_555
Cu8 O3 1_555 1_555
O7 Cu1 1_555 1_555
O9 Cu1 1_555 1_555
O12 Cu1 1_555 1_555
C5 C7 1_555 1_555
C8 O6 1_555 1_555
O4 Cu8 1_555 1_555
Cu7 O12 1_555 1_555
Cu5 O7 1_555 1_555
C5 H2 1_555 1_555
O2 Cu4 1_555 1_555
C1_2 C2_2 1_555 1_555
C2_2 C4_2 1_555 1_555
C3_2 C1_2 1_555 1_555
O1_2 C3_2 1_555 1_555
O3_2 C4_2 1_555 1_555
C5_2 C6_2 1_555 1_555
C6_2 C3_2 1_555 1_555
C7_2 C2_2 1_555 1_555
C8_2 C6_2 1_555 1_555
O4_2 C7_2 1_555 1_555
O5_2 C8_2 1_555 1_555
Cu7_2 O1_2 1_555 1_555
Cu4_2 O4_2 1_555 1_555
Cu8_2 O3_2 1_555 1_555
C5_2 C7_2 1_555 1_555
C8_2 O6_2 1_555 1_555
O4_2 Cu8_2 1_555 1_555
Cu7_2 O12_2 1_555 1_555
C5_2 H2_2 1_555 1_555
O2_2 Cu4_2 1_555 1_555
O7_2 Cu1_2 1_555 1_555
O9_2 Cu1_2 1_555 1_555
Cu5_2 O7_2 1_555 1_555
O7_3 Cu1_3 1_555 1_555
O9_3 Cu1_3 1_555 1_555
Cu5_3 O7_3 1_555 1_555
C1_3 C2_3 1_555 1_555
C2_3 C4_3 1_555 1_555
C3_3 C1_3 1_555 1_555
O1_3 C3_3 1_555 1_555
O3_3 C4_3 1_555 1_555
C5_3 C6_3 1_555 1_555
C6_3 C3_3 1_555 1_555
C7_3 C2_3 1_555 1_555
C8_3 C6_3 1_555 1_555
O4_3 C7_3 1_555 1_555
O5_3 C8_3 1_555 1_555
Cu7_3 O1_3 1_555 1_555
Cu4_3 O4_3 1_555 1_555
Cu8_3 O3_3 1_555 1_555
C5_3 C7_3 1_555 1_555
C8_3 O6_3 1_555 1_555
O4_3 Cu8_3 1_555 1_555
Cu7_3 O12_3 1_555 1_555
C5_3 H2_3 1_555 1_555
O2_3 Cu4_3 1_555 1_555
C1_4 C2_4 1_555 1_555
C2_4 C4_4 1_555 1_555
C3_4 C1_4 1_555 1_555
C4_4 O2_4 1_555 1_555
O7_2 C3_4 1_555 1_555
O3_4 C4_4 1_555 1_555
C5_4 C6_4 1_555 1_555
C6_4 C3_4 1_555 1_555
C7_4 C2_4 1_555 1_555
C8_4 C6_4 1_555 1_555
O4_4 C7_4 1_555 1_555
O11_2 Cu5_2 1_555 1_555
Cu6_3 O4_4 1_555 1_555
Cu8_3 O3_4 1_555 1_555
Cu4_3 O3_4 1_555 1_555
O9_4 Cu5_2 1_555 1_555
C5_4 C7_4 1_555 1_555
C8_4 O11_2 1_555 1_555
O4_4 Cu4_3 1_555 1_555
C1_4 H1_4 1_555 1_555
C1_5 C2_5 1_555 1_555
C2_5 C4_5 1_555 1_555
C3_5 C1_5 1_555 1_555
C4_5 O2_5 1_555 1_555
O7_3 C3_5 1_555 1_555
O3_5 C4_5 1_555 1_555
C5_5 C6_5 1_555 1_555
C6_5 C3_5 1_555 1_555
C7_5 C2_5 1_555 1_555
C8_5 C6_5 1_555 1_555
O4_5 C7_5 1_555 1_555
O11_3 Cu5_3 1_555 1_555
Cu6 O4_5 1_555 1_555
O9_5 Cu5_3 1_555 1_555
C5_5 C7_5 1_555 1_555
C8_5 O11_3 1_555 1_555
C1_5 H1_5 1_555 1_555
C1_6 C2_6 1_555 1_555
C2_6 C4_6 1_555 1_555
C3_6 C1_6 1_555 1_555
C4_6 O2_6 1_555 1_555
O7 C3_6 1_555 1_555
O3_6 C4_6 1_555 1_555
C5_6 C6_6 1_555 1_555
C6_6 C3_6 1_555 1_555
C7_6 C2_6 1_555 1_555
C8_6 C6_6 1_555 1_555
O4_6 C7_6 1_555 1_555
O11 Cu5 1_555 1_555
Cu6_2 O4_6 1_555 1_555
O8 Cu5 1_555 1_555
O9_6 Cu5 1_555 1_555
C5_6 C7_6 1_555 1_555
C8_6 O11 1_555 1_555
C1_6 H1_6 1_555 1_555
C5_7 C6_7 1_555 1_555
C8_7 C6_7 1_555 1_555
O4_7 C7_7 1_555 1_555
O9_5 C8_7 1_555 1_555
C5_7 C7_7 1_555 1_555
C5_7 H2_7 1_555 1_555
Cu6_2 O3_7 1_555 1_555
C1_7 C2_7 1_555 1_555
C2_7 C4_7 1_555 1_555
C3_7 C1_7 1_555 1_555
C4_7 O2_7 1_555 1_555
O8_3 C3_7 1_555 1_555
O2_7 Cu8_2 1_555 1_555
C1_7 H1_7 1_555 1_555
C5_8 C6_8 1_555 1_555
C8_8 C6_8 1_555 1_555
O4_8 C7_8 1_555 1_555
O9_6 C8_8 1_555 1_555
Cu8_3 O4_8 1_555 1_555
C5_8 C7_8 1_555 1_555
C8_8 O12 1_555 1_555
C5_8 H2_8 1_555 1_555
C1_8 C2_8 1_555 1_555
C2_8 C4_8 1_555 1_555
C3_8 C1_8 1_555 1_555
C4_8 O2_8 1_555 1_555
O8 C3_8 1_555 1_555
O2_8 Cu8_3 1_555 1_555
O3_8 C4_8 1_555 1_555
Cu4_3 O3_8 1_555 1_555
Cu6_3 O3_8 1_555 1_555
C1_8 H1_8 1_555 1_555
C1_9 C2_9 1_555 1_555
C2_9 C4_9 1_555 1_555
C3_9 C1_9 1_555 1_555
C4_9 O2_9 1_555 1_555
O8_2 C3_9 1_555 1_555
O2_9 Cu8 1_555 1_555
C1_9 H1_9 1_555 1_555
C5_9 C6_9 1_555 1_555
C8_9 C6_9 1_555 1_555
O4_9 C7_9 1_555 1_555
O9_4 C8_9 1_555 1_555
C5_9 C7_9 1_555 1_555
C5_9 H2_9 1_555 1_555
Cu6 O3_9 1_555 1_555

#END
