
###############################################################################
#
# This file contains modified crystal structure data generated from the
# MOF subset of the Cambridge Structural Database (CSD) v543 
# hosted by the Cambridge Crystallographic Data Centre (CCDC).
#
# This work is licensed under the Creative Commons
# Attribution-NonCommercial-ShareAlike 4.0 International License.
# To view a copy of this license, visit
# http://creativecommons.org/licenses/by-nc-sa/4.0/
# or send a letter to
# Creative Commons, PO Box 1866, Mountain View, CA 94042, USA.
#
# CIF created using the CSD Python API on 29 September 2022
# The structure has been converted into the P1 space group
# The structure has a 3D framework
# The original CSD entry MOKYAP34 is in the rhombohedral crystal system
# The framework has been calculated to contain at least 10.0% void space
# The void calculation uses a probe of radius 1.32A, grid spacing 0.4
# H atom positions have been added when not included in the experimental data
#
###############################################################################

data_MOKYAP34
_chemical_formula_moiety         '(C72 H18 Cu7 O44)n'
_symmetry_cell_setting           triclinic
_symmetry_space_group_name_H-M   'P 1'
_symmetry_Int_Tables_number      1
_space_group_name_Hall           'P 1'
loop_
_symmetry_equiv_pos_site_id
_symmetry_equiv_pos_as_xyz
1 x,y,z
_cell_length_a                   25.9177(3)
_cell_length_b                   25.9177(3)
_cell_length_c                   6.27302(6)
_cell_angle_alpha                90
_cell_angle_beta                 90
_cell_angle_gamma                120
_cell_volume                     3649.22
loop_
_atom_site_label
_atom_site_type_symbol
_atom_site_fract_x
_atom_site_fract_y
_atom_site_fract_z
_atom_site_U_iso_or_equiv
_atom_site_thermal_displace_type
Cu7 Cu 0.31802(7) 0.37139(5) 0.0092(2) 0.0094 Uiso
Cu1 Cu 0.29528(5) 0.27997(5) 0.3425(2) 0.0094 Uiso
C1 C 0.1609(3) 0.3131(3) 0.1245(13) 0.0067 Uiso
C2 C 0.1202(4) 0.3267(4) 0.1973(15) 0.0127 Uiso
C3 C 0.2092(3) 0.3191(4) 0.2562(12) 0.0051 Uiso
C4 C 0.0776(3) 0.3240(4) 0.0300(14) 0.0101 Uiso
O1 O 0.2515(2) 0.3072(2) 0.1709(10) 0.0049 Uiso
O3 O 0.0520(2) 0.3547(2) 0.0681(8) 0.0049 Uiso
C5 C 0.1724(3) 0.3536(3) 0.5422(13) 0.0067 Uiso
C6 C 0.2131(4) 0.3400(4) 0.4694(15) 0.0127 Uiso
C7 C 0.1241(3) 0.3476(4) 0.4105(12) 0.0051 Uiso
C8 C 0.2557(3) 0.3427(4) 0.6367(14) 0.0101 Uiso
O4 O 0.0818(2) 0.3595(2) 0.4958(10) 0.0049 Uiso
O5 O 0.2670(2) 0.3748(2) 0.7963(9) 0.0111 Uiso
O6 O 0.2813(2) 0.3120(2) 0.5986(8) 0.0049 Uiso
Cu4 Cu 0.01531(7) 0.29528(5) 0.6575(2) 0.0094 Uiso
Cu5 Cu 0.38670(5) 0.34864(7) 0.6758(2) 0.0094 Uiso
Cu8 Cu 0.03805(5) 0.38670(5) 0.3242(2) 0.0094 Uiso
O7 O 0.3595(2) 0.2776(3) 0.5042(10) 0.0049 Uiso
O9 O 0.2919(2) 0.2256(3) 0.1296(9) 0.0111 Uiso
O12 O 0.3640(3) 0.3853(2) 0.2652(8) 0.0049 Uiso
H2 H 0.17614 0.369544 0.705127 . .
O2 O 0.0663(2) 0.2919(2) 0.8704(9) 0.0111 Uiso
O8 O 0.3890(3) 0.4152(2) 0.8376(10) 0.0049 Uiso
O11 O 0.3547(2) 0.3027(3) 0.9319(8) 0.0049 Uiso
H1 H 0.157193 0.297123 0.96154 . .
Cu6 Cu 0.94664(5) 0.31802(7) 0.9908(2) 0.0094 Uiso
Cu6_2 Cu 0.37139(9) 0.05336(5) 0.9908(2) 0.0094 Uiso
Cu7_2 Cu 0.05336(9) 0.68198(7) 0.0092(2) 0.0094 Uiso
C1_2 C 0.1522(4) 0.8391(3) 0.1245(13) 0.0067 Uiso
C2_2 C 0.2065(6) 0.8798(4) 0.1973(15) 0.0127 Uiso
C3_2 C 0.1099(5) 0.7908(3) 0.2562(12) 0.0051 Uiso
C4_2 C 0.2464(5) 0.9224(3) 0.0300(14) 0.0101 Uiso
O1_2 O 0.0557(3) 0.7485(2) 0.1709(10) 0.0049 Uiso
O3_2 O 0.3027(3) 0.9480(2) 0.0681(8) 0.0049 Uiso
C5_2 C 0.1811(4) 0.8276(3) 0.5422(13) 0.0067 Uiso
C6_2 C 0.1268(6) 0.7869(4) 0.4694(15) 0.0127 Uiso
C7_2 C 0.2234(5) 0.8759(3) 0.4105(12) 0.0051 Uiso
C8_2 C 0.0869(5) 0.7443(3) 0.6367(14) 0.0101 Uiso
O4_2 O 0.2776(3) 0.9182(2) 0.4958(10) 0.0049 Uiso
O5_2 O 0.1077(3) 0.7330(2) 0.7963(9) 0.0111 Uiso
O6_2 O 0.0306(3) 0.7187(2) 0.5986(8) 0.0049 Uiso
Cu4_2 Cu 0.27997(9) 0.98469(7) 0.6575(2) 0.0094 Uiso
Cu8_2 Cu 0.34864(7) 0.96195(5) 0.3242(2) 0.0094 Uiso
O12_2 O 0.0214(4) 0.6360(3) 0.2652(8) 0.0049 Uiso
H2_2 H 0.193404 0.82386 0.705127 . .
O2_2 O 0.2256(3) 0.9337(2) 0.8704(9) 0.0111 Uiso
O8_2 O 0.0261(4) 0.6110(3) 0.8376(10) 0.0049 Uiso
H1_2 H 0.13993 0.842807 0.96154 . .
Cu1_2 Cu 0.98469(7) 0.70472(5) 0.3425(2) 0.0094 Uiso
Cu5_2 Cu 0.96195(9) 0.61330(5) 0.6758(2) 0.0094 Uiso
O7_2 O 0.9182(4) 0.6405(2) 0.5042(10) 0.0049 Uiso
O9_2 O 0.9337(4) 0.7081(2) 0.1296(9) 0.0111 Uiso
O11_2 O 0.9480(4) 0.6453(2) 0.9319(8) 0.0049 Uiso
Cu1_3 Cu 0.72003(5) 0.01531(7) 0.3425(2) 0.0094 Uiso
Cu5_3 Cu 0.65136(7) 0.03805(9) 0.6758(2) 0.0094 Uiso
O7_3 O 0.7224(3) 0.0818(4) 0.5042(10) 0.0049 Uiso
O9_3 O 0.7744(3) 0.0663(4) 0.1296(9) 0.0111 Uiso
O11_3 O 0.6973(3) 0.0520(4) 0.9319(8) 0.0049 Uiso
Cu7_3 Cu 0.62861(5) 0.94664(9) 0.0092(2) 0.0094 Uiso
C1_3 C 0.6869(3) 0.8478(4) 0.1245(13) 0.0067 Uiso
C2_3 C 0.6733(4) 0.7935(6) 0.1973(15) 0.0127 Uiso
C3_3 C 0.6809(4) 0.8901(5) 0.2562(12) 0.0051 Uiso
C4_3 C 0.6760(4) 0.7536(5) 0.0300(14) 0.0101 Uiso
O1_3 O 0.6928(2) 0.9443(3) 0.1709(10) 0.0049 Uiso
O3_3 O 0.6453(2) 0.6973(3) 0.0681(8) 0.0049 Uiso
C5_3 C 0.6464(3) 0.8189(4) 0.5422(13) 0.0067 Uiso
C6_3 C 0.6600(4) 0.8732(6) 0.4694(15) 0.0127 Uiso
C7_3 C 0.6524(4) 0.7766(5) 0.4105(12) 0.0051 Uiso
C8_3 C 0.6573(4) 0.9131(5) 0.6367(14) 0.0101 Uiso
O4_3 O 0.6405(2) 0.7224(3) 0.4958(10) 0.0049 Uiso
O5_3 O 0.6252(2) 0.8923(3) 0.7963(9) 0.0111 Uiso
O6_3 O 0.6880(2) 0.9694(3) 0.5986(8) 0.0049 Uiso
Cu4_3 Cu 0.70472(5) 0.72003(9) 0.6575(2) 0.0094 Uiso
Cu8_3 Cu 0.61330(5) 0.65136(7) 0.3242(2) 0.0094 Uiso
O12_3 O 0.6147(2) 0.9786(4) 0.2652(8) 0.0049 Uiso
H2_3 H 0.630456 0.806596 0.705127 . .
O2_3 O 0.7081(2) 0.7744(3) 0.8704(9) 0.0111 Uiso
Cu6_3 Cu 0.68198(7) 0.62861(9) 0.9908(2) 0.0094 Uiso
O8_3 O 0.5848(2) 0.9739(4) 0.8376(10) 0.0049 Uiso
H1_3 H 0.702877 0.86007 0.96154 . .
H2_4 H 0.842807 0.702877 0.0384604 . .
C1_4 C 0.8276(3) 0.6464(3) 0.4578(13) 0.0067 Uiso
C2_4 C 0.7869(4) 0.6600(4) 0.5306(15) 0.0127 Uiso
C3_4 C 0.8759(3) 0.6524(4) 0.5895(12) 0.0051 Uiso
C4_4 C 0.7443(3) 0.6573(4) 0.3633(14) 0.0101 Uiso
O2_4 O 0.7330(2) 0.6252(2) 0.2037(9) 0.0111 Uiso
O3_4 O 0.7187(2) 0.6880(2) 0.4014(8) 0.0049 Uiso
C5_4 C 0.8391(3) 0.6869(3) 0.8755(13) 0.0067 Uiso
C6_4 C 0.8798(4) 0.6733(4) 0.8027(15) 0.0127 Uiso
C7_4 C 0.7908(3) 0.6809(4) 0.7438(12) 0.0051 Uiso
C8_4 C 0.9224(3) 0.6760(4) 0.9700(14) 0.0101 Uiso
O4_4 O 0.7485(2) 0.6928(2) 0.8291(10) 0.0049 Uiso
O9_4 O 0.9586(2) 0.5589(3) 0.4629(9) 0.0111 Uiso
H1_4 H 0.82386 0.630456 0.294873 . .
H2_5 H 0.86007 0.157193 0.0384604 . .
C1_5 C 0.8189(4) 0.1724(3) 0.4578(13) 0.0067 Uiso
C2_5 C 0.8732(6) 0.2131(4) 0.5306(15) 0.0127 Uiso
C3_5 C 0.7766(5) 0.1241(3) 0.5895(12) 0.0051 Uiso
C4_5 C 0.9131(5) 0.2557(3) 0.3633(14) 0.0101 Uiso
O2_5 O 0.8923(3) 0.2670(2) 0.2037(9) 0.0111 Uiso
O3_5 O 0.9694(3) 0.2813(2) 0.4014(8) 0.0049 Uiso
C5_5 C 0.8478(4) 0.1609(3) 0.8755(13) 0.0067 Uiso
C6_5 C 0.7935(6) 0.1202(4) 0.8027(15) 0.0127 Uiso
C7_5 C 0.8901(5) 0.2092(3) 0.7438(12) 0.0051 Uiso
C8_5 C 0.7536(5) 0.0776(3) 0.9700(14) 0.0101 Uiso
O4_5 O 0.9443(3) 0.2515(2) 0.8291(10) 0.0049 Uiso
O9_5 O 0.6004(4) 0.0414(2) 0.4629(9) 0.0111 Uiso
H1_5 H 0.806596 0.17614 0.294873 . .
H2_6 H 0.297123 0.13993 0.0384604 . .
C1_6 C 0.3536(3) 0.1811(4) 0.4578(13) 0.0067 Uiso
C2_6 C 0.3400(4) 0.1268(6) 0.5306(15) 0.0127 Uiso
C3_6 C 0.3476(4) 0.2234(5) 0.5895(12) 0.0051 Uiso
C4_6 C 0.3427(4) 0.0869(5) 0.3633(14) 0.0101 Uiso
O2_6 O 0.3748(2) 0.1077(3) 0.2037(9) 0.0111 Uiso
O3_6 O 0.3120(2) 0.0306(3) 0.4014(8) 0.0049 Uiso
C5_6 C 0.3131(3) 0.1522(4) 0.8755(13) 0.0067 Uiso
C6_6 C 0.3267(4) 0.2065(6) 0.8027(15) 0.0127 Uiso
C7_6 C 0.3191(4) 0.1099(5) 0.7438(12) 0.0051 Uiso
C8_6 C 0.3240(4) 0.2464(5) 0.9700(14) 0.0101 Uiso
O4_6 O 0.3072(2) 0.0557(3) 0.8291(10) 0.0049 Uiso
O9_6 O 0.4411(3) 0.3996(4) 0.4629(9) 0.0111 Uiso
H1_6 H 0.369544 0.193404 0.294873 . .
C5_7 C 0.5058(3) 0.0202(3) 0.2088(13) 0.0067 Uiso
C6_7 C 0.5465(4) 0.0066(4) 0.1360(15) 0.0127 Uiso
C7_7 C 0.4575(3) 0.0142(4) 0.0771(12) 0.0051 Uiso
C8_7 C 0.5891(3) 0.0093(4) 0.3033(14) 0.0101 Uiso
O4_7 O 0.4152(2) 0.0261(2) 0.1624(10) 0.0049 Uiso
H2_7 H 0.509474 0.0362105 0.371794 . .
O3_7 O 0.3853(2) 0.0214(2) 0.7348(8) 0.0049 Uiso
C1_7 C 0.4942(3) 0.9798(3) 0.7912(13) 0.0067 Uiso
C2_7 C 0.4535(4) 0.9934(4) 0.8640(15) 0.0127 Uiso
C3_7 C 0.5425(3) 0.9858(4) 0.9229(12) 0.0051 Uiso
C4_7 C 0.4109(3) 0.9907(4) 0.6967(14) 0.0101 Uiso
O2_7 O 0.3996(2) 0.9586(2) 0.5371(9) 0.0111 Uiso
H1_7 H 0.490526 0.96379 0.628206 . .
C5_8 C 0.5145(4) 0.4942(3) 0.2088(13) 0.0067 Uiso
C6_8 C 0.4602(6) 0.4535(4) 0.1360(15) 0.0127 Uiso
C7_8 C 0.5568(5) 0.5425(3) 0.0771(12) 0.0051 Uiso
C8_8 C 0.4203(5) 0.4109(3) 0.3033(14) 0.0101 Uiso
O4_8 O 0.6110(3) 0.5848(2) 0.1624(10) 0.0049 Uiso
H2_8 H 0.526737 0.490526 0.371794 . .
C1_8 C 0.4855(4) 0.5058(3) 0.7912(13) 0.0067 Uiso
C2_8 C 0.5398(6) 0.5465(4) 0.8640(15) 0.0127 Uiso
C3_8 C 0.4432(5) 0.4575(3) 0.9229(12) 0.0051 Uiso
C4_8 C 0.5797(5) 0.5891(3) 0.6967(14) 0.0101 Uiso
O2_8 O 0.5589(3) 0.6004(2) 0.5371(9) 0.0111 Uiso
O3_8 O 0.6360(3) 0.6147(2) 0.7348(8) 0.0049 Uiso
H1_8 H 0.473263 0.509474 0.628206 . .
C1_9 C 0.0202(3) 0.5145(4) 0.7912(13) 0.0067 Uiso
C2_9 C 0.0066(4) 0.4602(6) 0.8640(15) 0.0127 Uiso
C3_9 C 0.0142(4) 0.5568(5) 0.9229(12) 0.0051 Uiso
C4_9 C 0.0093(4) 0.4203(5) 0.6967(14) 0.0101 Uiso
O2_9 O 0.0414(2) 0.4411(3) 0.5371(9) 0.0111 Uiso
H1_9 H 0.0362105 0.526737 0.628206 . .
C5_9 C 0.9798(3) 0.4855(4) 0.2088(13) 0.0067 Uiso
C6_9 C 0.9934(4) 0.5398(6) 0.1360(15) 0.0127 Uiso
C7_9 C 0.9858(4) 0.4432(5) 0.0771(12) 0.0051 Uiso
C8_9 C 0.9907(4) 0.5797(5) 0.3033(14) 0.0101 Uiso
O4_9 O 0.9739(2) 0.3890(3) 0.1624(10) 0.0049 Uiso
H2_9 H 0.96379 0.473263 0.371794 . .
O3_9 O 0.9786(2) 0.3640(3) 0.7348(8) 0.0049 Uiso
loop_
_geom_bond_atom_site_label_1
_geom_bond_atom_site_label_2
_geom_bond_site_symmetry_1
_geom_bond_site_symmetry_2
Cu1 O1 1_555 1_555
C1 C2 1_555 1_555
C2 C4 1_555 1_555
C3 C1 1_555 1_555
O1 C3 1_555 1_555
O3 C4 1_555 1_555
C5 C6 1_555 1_555
C6 C3 1_555 1_555
C7 C2 1_555 1_555
C8 C6 1_555 1_555
O4 C7 1_555 1_555
O5 C8 1_555 1_555
O6 Cu1 1_555 1_555
Cu7 O1 1_555 1_555
Cu4 O4 1_555 1_555
Cu5 O6 1_555 1_555
Cu8 O3 1_555 1_555
O7 Cu1 1_555 1_555
O9 Cu1 1_555 1_555
O12 Cu1 1_555 1_555
C5 C7 1_555 1_555
C8 O6 1_555 1_555
O4 Cu8 1_555 1_555
Cu7 O12 1_555 1_555
Cu5 O7 1_555 1_555
C5 H2 1_555 1_555
O2 Cu4 1_555 1_555
C1_2 C2_2 1_555 1_555
C2_2 C4_2 1_555 1_555
C3_2 C1_2 1_555 1_555
O1_2 C3_2 1_555 1_555
O3_2 C4_2 1_555 1_555
C5_2 C6_2 1_555 1_555
C6_2 C3_2 1_555 1_555
C7_2 C2_2 1_555 1_555
C8_2 C6_2 1_555 1_555
O4_2 C7_2 1_555 1_555
O5_2 C8_2 1_555 1_555
Cu7_2 O1_2 1_555 1_555
Cu4_2 O4_2 1_555 1_555
Cu8_2 O3_2 1_555 1_555
C5_2 C7_2 1_555 1_555
C8_2 O6_2 1_555 1_555
O4_2 Cu8_2 1_555 1_555
Cu7_2 O12_2 1_555 1_555
C5_2 H2_2 1_555 1_555
O2_2 Cu4_2 1_555 1_555
O7_2 Cu1_2 1_555 1_555
O9_2 Cu1_2 1_555 1_555
Cu5_2 O7_2 1_555 1_555
O7_3 Cu1_3 1_555 1_555
O9_3 Cu1_3 1_555 1_555
Cu5_3 O7_3 1_555 1_555
C1_3 C2_3 1_555 1_555
C2_3 C4_3 1_555 1_555
C3_3 C1_3 1_555 1_555
O1_3 C3_3 1_555 1_555
O3_3 C4_3 1_555 1_555
C5_3 C6_3 1_555 1_555
C6_3 C3_3 1_555 1_555
C7_3 C2_3 1_555 1_555
C8_3 C6_3 1_555 1_555
O4_3 C7_3 1_555 1_555
O5_3 C8_3 1_555 1_555
Cu7_3 O1_3 1_555 1_555
Cu4_3 O4_3 1_555 1_555
Cu8_3 O3_3 1_555 1_555
C5_3 C7_3 1_555 1_555
C8_3 O6_3 1_555 1_555
O4_3 Cu8_3 1_555 1_555
Cu7_3 O12_3 1_555 1_555
C5_3 H2_3 1_555 1_555
O2_3 Cu4_3 1_555 1_555
C1_4 C2_4 1_555 1_555
C2_4 C4_4 1_555 1_555
C3_4 C1_4 1_555 1_555
C4_4 O2_4 1_555 1_555
O7_2 C3_4 1_555 1_555
O3_4 C4_4 1_555 1_555
C5_4 C6_4 1_555 1_555
C6_4 C3_4 1_555 1_555
C7_4 C2_4 1_555 1_555
C8_4 C6_4 1_555 1_555
O4_4 C7_4 1_555 1_555
O11_2 Cu5_2 1_555 1_555
Cu6_3 O4_4 1_555 1_555
Cu8_3 O3_4 1_555 1_555
Cu4_3 O3_4 1_555 1_555
O9_4 Cu5_2 1_555 1_555
C5_4 C7_4 1_555 1_555
C8_4 O11_2 1_555 1_555
O4_4 Cu4_3 1_555 1_555
C1_4 H1_4 1_555 1_555
C1_5 C2_5 1_555 1_555
C2_5 C4_5 1_555 1_555
C3_5 C1_5 1_555 1_555
C4_5 O2_5 1_555 1_555
O7_3 C3_5 1_555 1_555
O3_5 C4_5 1_555 1_555
C5_5 C6_5 1_555 1_555
C6_5 C3_5 1_555 1_555
C7_5 C2_5 1_555 1_555
C8_5 C6_5 1_555 1_555
O4_5 C7_5 1_555 1_555
O11_3 Cu5_3 1_555 1_555
Cu6 O4_5 1_555 1_555
O9_5 Cu5_3 1_555 1_555
C5_5 C7_5 1_555 1_555
C8_5 O11_3 1_555 1_555
C1_5 H1_5 1_555 1_555
C1_6 C2_6 1_555 1_555
C2_6 C4_6 1_555 1_555
C3_6 C1_6 1_555 1_555
C4_6 O2_6 1_555 1_555
O7 C3_6 1_555 1_555
O3_6 C4_6 1_555 1_555
C5_6 C6_6 1_555 1_555
C6_6 C3_6 1_555 1_555
C7_6 C2_6 1_555 1_555
C8_6 C6_6 1_555 1_555
O4_6 C7_6 1_555 1_555
O11 Cu5 1_555 1_555
Cu6_2 O4_6 1_555 1_555
O8 Cu5 1_555 1_555
O9_6 Cu5 1_555 1_555
C5_6 C7_6 1_555 1_555
C8_6 O11 1_555 1_555
C1_6 H1_6 1_555 1_555
C5_7 C6_7 1_555 1_555
C8_7 C6_7 1_555 1_555
O4_7 C7_7 1_555 1_555
O9_5 C8_7 1_555 1_555
C5_7 C7_7 1_555 1_555
C5_7 H2_7 1_555 1_555
Cu6_2 O3_7 1_555 1_555
C1_7 C2_7 1_555 1_555
C2_7 C4_7 1_555 1_555
C3_7 C1_7 1_555 1_555
C4_7 O2_7 1_555 1_555
O8_3 C3_7 1_555 1_555
O2_7 Cu8_2 1_555 1_555
C1_7 H1_7 1_555 1_555
C5_8 C6_8 1_555 1_555
C8_8 C6_8 1_555 1_555
O4_8 C7_8 1_555 1_555
O9_6 C8_8 1_555 1_555
Cu8_3 O4_8 1_555 1_555
C5_8 C7_8 1_555 1_555
C8_8 O12 1_555 1_555
C5_8 H2_8 1_555 1_555
C1_8 C2_8 1_555 1_555
C2_8 C4_8 1_555 1_555
C3_8 C1_8 1_555 1_555
C4_8 O2_8 1_555 1_555
O8 C3_8 1_555 1_555
O2_8 Cu8_3 1_555 1_555
O3_8 C4_8 1_555 1_555
Cu4_3 O3_8 1_555 1_555
Cu6_3 O3_8 1_555 1_555
C1_8 H1_8 1_555 1_555
C1_9 C2_9 1_555 1_555
C2_9 C4_9 1_555 1_555
C3_9 C1_9 1_555 1_555
C4_9 O2_9 1_555 1_555
O8_2 C3_9 1_555 1_555
O2_9 Cu8 1_555 1_555
C1_9 H1_9 1_555 1_555
C5_9 C6_9 1_555 1_555
C8_9 C6_9 1_555 1_555
O4_9 C7_9 1_555 1_555
O9_4 C8_9 1_555 1_555
C5_9 C7_9 1_555 1_555
C5_9 H2_9 1_555 1_555
Cu6 O3_9 1_555 1_555

#END
