
###############################################################################
#
# This file contains modified crystal structure data generated from the
# MOF subset of the Cambridge Structural Database (CSD) v543 
# hosted by the Cambridge Crystallographic Data Centre (CCDC).
#
# This work is licensed under the Creative Commons
# Attribution-NonCommercial-ShareAlike 4.0 International License.
# To view a copy of this license, visit
# http://creativecommons.org/licenses/by-nc-sa/4.0/
# or send a letter to
# Creative Commons, PO Box 1866, Mountain View, CA 94042, USA.
#
# CIF created using the CSD Python API on 29 September 2022
# The structure has been converted into the P1 space group
# The structure has a 3D framework
# The original CSD entry MOLLAD57 is in the rhombohedral crystal system
# The framework has been calculated to contain at least 10.0% void space
# The void calculation uses a probe of radius 1.32A, grid spacing 0.4
# H atom positions have been added when not included in the experimental data
#
###############################################################################

data_MOLLAD57
_chemical_formula_moiety         '(C72 H18 Cu7 O44)n'
_symmetry_cell_setting           triclinic
_symmetry_space_group_name_H-M   'P 1'
_symmetry_Int_Tables_number      1
_space_group_name_Hall           'P 1'
loop_
_symmetry_equiv_pos_site_id
_symmetry_equiv_pos_as_xyz
1 x,y,z
_cell_length_a                   25.9261(3)
_cell_length_b                   25.9261(3)
_cell_length_c                   6.27104(7)
_cell_angle_alpha                90
_cell_angle_beta                 90
_cell_angle_gamma                120
_cell_volume                     3650.43
loop_
_atom_site_label
_atom_site_type_symbol
_atom_site_fract_x
_atom_site_fract_y
_atom_site_fract_z
Cu7 Cu 0.31804(8) 0.37165(6) 0.0093(2)
Cu1 Cu 0.29502(6) 0.27973(6) 0.3426(2)
C1 C 0.1601(4) 0.3142(4) 0.1254(16)
C2 C 0.1206(5) 0.3263(4) 0.1944(17)
C3 C 0.2085(4) 0.3190(5) 0.2581(14)
C4 C 0.0796(4) 0.3250(5) 0.0252(17)
O1 O 0.2508(3) 0.3062(3) 0.1762(11)
O3 O 0.0521(2) 0.3546(2) 0.0690(9)
C5 C 0.1732(4) 0.3525(4) 0.5413(16)
C6 C 0.2127(5) 0.3404(4) 0.4723(17)
C7 C 0.1248(4) 0.3477(5) 0.4086(14)
C8 C 0.2537(4) 0.3417(5) 0.6415(17)
O4 O 0.0825(3) 0.3605(3) 0.4905(11)
O5 O 0.2676(3) 0.3749(2) 0.7941(11)
O6 O 0.2812(2) 0.3121(2) 0.5977(9)
Cu4 Cu 0.01529(8) 0.29502(6) 0.6574(2)
Cu5 Cu 0.38694(6) 0.34862(8) 0.6759(2)
Cu8 Cu 0.03831(6) 0.38694(6) 0.3241(2)
O7 O 0.3605(3) 0.2779(4) 0.5095(11)
O9 O 0.2918(2) 0.2261(4) 0.1274(11)
O12 O 0.3642(3) 0.3854(2) 0.2643(9)
H1 H 0.176073 0.366929 0.706025
O2 O 0.0657(3) 0.2918(2) 0.8726(11)
O8 O 0.3887(4) 0.4159(3) 0.8429(11)
O11 O 0.3546(2) 0.3025(3) 0.9310(9)
H2 H 0.15726 0.299737 0.960642
Cu6 Cu 0.94640(6) 0.31804(8) 0.9907(2)
Cu6_2 Cu 0.37165(10) 0.05360(6) 0.9907(2)
Cu7_2 Cu 0.05360(10) 0.68196(8) 0.0093(2)
C1_2 C 0.1541(6) 0.8399(4) 0.1254(16)
C2_2 C 0.2057(6) 0.8794(5) 0.1944(17)
C3_2 C 0.1105(6) 0.7915(4) 0.2581(14)
C4_2 C 0.2454(6) 0.9204(4) 0.0252(17)
O1_2 O 0.0554(4) 0.7492(3) 0.1762(11)
O3_2 O 0.3025(3) 0.9479(2) 0.0690(9)
C5_2 C 0.1792(6) 0.8268(4) 0.5413(16)
C6_2 C 0.1276(6) 0.7873(5) 0.4723(17)
C7_2 C 0.2228(6) 0.8752(4) 0.4086(14)
C8_2 C 0.0879(6) 0.7463(4) 0.6415(17)
O4_2 O 0.2779(4) 0.9175(3) 0.4905(11)
O5_2 O 0.1072(4) 0.7324(3) 0.7941(11)
O6_2 O 0.0308(3) 0.7188(2) 0.5977(9)
Cu4_2 Cu 0.27973(10) 0.98471(8) 0.6574(2)
Cu8_2 Cu 0.34862(8) 0.96169(6) 0.3241(2)
O12_2 O 0.0213(4) 0.6358(3) 0.2643(9)
H1_2 H 0.190856 0.823927 0.706025
O2_2 O 0.2261(4) 0.9343(3) 0.8726(11)
O8_2 O 0.0271(5) 0.6113(4) 0.8429(11)
H2_2 H 0.142477 0.84274 0.960642
Cu1_2 Cu 0.98471(8) 0.70498(6) 0.3426(2)
Cu5_2 Cu 0.96169(10) 0.61306(6) 0.6759(2)
O7_2 O 0.9175(5) 0.6395(3) 0.5095(11)
O9_2 O 0.9343(4) 0.7082(2) 0.1274(11)
O11_2 O 0.9479(4) 0.6454(2) 0.9310(9)
Cu1_3 Cu 0.72027(6) 0.01529(8) 0.3426(2)
Cu5_3 Cu 0.65138(8) 0.03831(10) 0.6759(2)
O7_3 O 0.7221(4) 0.0825(5) 0.5095(11)
O9_3 O 0.7739(4) 0.0657(4) 0.1274(11)
O11_3 O 0.6975(3) 0.0521(4) 0.9310(9)
Cu7_3 Cu 0.62835(6) 0.94640(10) 0.0093(2)
C1_3 C 0.6858(4) 0.8459(6) 0.1254(16)
C2_3 C 0.6737(4) 0.7943(6) 0.1944(17)
C3_3 C 0.6810(5) 0.8895(6) 0.2581(14)
C4_3 C 0.6750(5) 0.7546(6) 0.0252(17)
O1_3 O 0.6938(3) 0.9446(4) 0.1762(11)
O3_3 O 0.6454(2) 0.6975(3) 0.0690(9)
C5_3 C 0.6475(4) 0.8208(6) 0.5413(16)
C6_3 C 0.6596(4) 0.8724(6) 0.4723(17)
C7_3 C 0.6523(5) 0.7772(6) 0.4086(14)
C8_3 C 0.6583(5) 0.9121(6) 0.6415(17)
O4_3 O 0.6395(3) 0.7221(4) 0.4905(11)
O5_3 O 0.6251(2) 0.8928(4) 0.7941(11)
O6_3 O 0.6879(2) 0.9692(3) 0.5977(9)
Cu4_3 Cu 0.70498(6) 0.72027(10) 0.6574(2)
Cu8_3 Cu 0.61306(6) 0.65138(8) 0.3241(2)
O12_3 O 0.6146(2) 0.9787(4) 0.2643(9)
H1_3 H 0.633071 0.809144 0.706025
O2_3 O 0.7082(2) 0.7739(4) 0.8726(11)
Cu6_3 Cu 0.68196(8) 0.62835(10) 0.9907(2)
O8_3 O 0.5841(3) 0.9729(5) 0.8429(11)
H2_3 H 0.700263 0.857523 0.960642
H1_4 H 0.84274 0.700263 0.0393581
C1_4 C 0.8268(4) 0.6475(4) 0.4587(16)
C2_4 C 0.7873(5) 0.6596(4) 0.5277(17)
C3_4 C 0.8752(4) 0.6523(5) 0.5914(14)
C4_4 C 0.7463(4) 0.6583(5) 0.3585(17)
O2_4 O 0.7324(3) 0.6251(2) 0.2059(11)
O3_4 O 0.7188(2) 0.6879(2) 0.4023(9)
C5_4 C 0.8399(4) 0.6858(4) 0.8746(16)
C6_4 C 0.8794(5) 0.6737(4) 0.8056(17)
C7_4 C 0.7915(4) 0.6810(5) 0.7419(14)
C8_4 C 0.9204(4) 0.6750(5) 0.9748(17)
O4_4 O 0.7492(3) 0.6938(3) 0.8238(11)
O9_4 O 0.9585(2) 0.5594(4) 0.4607(11)
H2_4 H 0.823927 0.633071 0.293975
H1_5 H 0.857523 0.15726 0.0393581
C1_5 C 0.8208(6) 0.1732(4) 0.4587(16)
C2_5 C 0.8724(6) 0.2127(5) 0.5277(17)
C3_5 C 0.7772(6) 0.1248(4) 0.5914(14)
C4_5 C 0.9121(6) 0.2537(4) 0.3585(17)
O2_5 O 0.8928(4) 0.2676(3) 0.2059(11)
O3_5 O 0.9692(3) 0.2812(2) 0.4023(9)
C5_5 C 0.8459(6) 0.1601(4) 0.8746(16)
C6_5 C 0.7943(6) 0.1206(5) 0.8056(17)
C7_5 C 0.8895(6) 0.2085(4) 0.7419(14)
C8_5 C 0.7546(6) 0.0796(4) 0.9748(17)
O4_5 O 0.9446(4) 0.2508(3) 0.8238(11)
O9_5 O 0.6010(4) 0.0415(2) 0.4607(11)
H2_5 H 0.809144 0.176073 0.293975
H1_6 H 0.299737 0.142477 0.0393581
C1_6 C 0.3525(4) 0.1792(6) 0.4587(16)
C2_6 C 0.3404(4) 0.1276(6) 0.5277(17)
C3_6 C 0.3477(5) 0.2228(6) 0.5914(14)
C4_6 C 0.3417(5) 0.0879(6) 0.3585(17)
O2_6 O 0.3749(2) 0.1072(4) 0.2059(11)
O3_6 O 0.3121(2) 0.0308(3) 0.4023(9)
C5_6 C 0.3142(4) 0.1541(6) 0.8746(16)
C6_6 C 0.3263(4) 0.2057(6) 0.8056(17)
C7_6 C 0.3190(5) 0.1105(6) 0.7419(14)
C8_6 C 0.3250(5) 0.2454(6) 0.9748(17)
O4_6 O 0.3062(3) 0.0554(4) 0.8238(11)
O9_6 O 0.4406(4) 0.3990(4) 0.4607(11)
H2_6 H 0.366929 0.190856 0.293975
C5_7 C 0.5066(4) 0.0191(4) 0.2079(16)
C6_7 C 0.5461(5) 0.0070(4) 0.1389(17)
C7_7 C 0.4582(4) 0.0143(5) 0.0752(14)
C8_7 C 0.5871(4) 0.0083(5) 0.3081(17)
O4_7 O 0.4159(3) 0.0271(3) 0.1571(11)
H1_7 H 0.509407 0.033596 0.372691
O3_7 O 0.3854(2) 0.0213(2) 0.7357(9)
C1_7 C 0.4934(4) 0.9809(4) 0.7921(16)
C2_7 C 0.4539(5) 0.9930(4) 0.8611(17)
C3_7 C 0.5418(4) 0.9857(5) 0.9248(14)
C4_7 C 0.4129(4) 0.9917(5) 0.6919(17)
O2_7 O 0.3990(3) 0.9585(2) 0.5393(11)
H2_7 H 0.490593 0.966404 0.627309
C5_8 C 0.5126(6) 0.4934(4) 0.2079(16)
C6_8 C 0.4610(6) 0.4539(5) 0.1389(17)
C7_8 C 0.5562(6) 0.5418(4) 0.0752(14)
C8_8 C 0.4213(6) 0.4129(4) 0.3081(17)
O4_8 O 0.6113(4) 0.5841(3) 0.1571(11)
H1_8 H 0.524189 0.490593 0.372691
C1_8 C 0.4874(6) 0.5066(4) 0.7921(16)
C2_8 C 0.5390(6) 0.5461(5) 0.8611(17)
C3_8 C 0.4438(6) 0.4582(4) 0.9248(14)
C4_8 C 0.5787(6) 0.5871(4) 0.6919(17)
O2_8 O 0.5594(4) 0.6010(3) 0.5393(11)
O3_8 O 0.6358(3) 0.6146(2) 0.7357(9)
H2_8 H 0.475811 0.509407 0.627309
C1_9 C 0.0191(4) 0.5126(6) 0.7921(16)
C2_9 C 0.0070(4) 0.4610(6) 0.8611(17)
C3_9 C 0.0143(5) 0.5562(6) 0.9248(14)
C4_9 C 0.0083(5) 0.4213(6) 0.6919(17)
O2_9 O 0.0415(2) 0.4406(4) 0.5393(11)
H2_9 H 0.033596 0.524189 0.627309
C5_9 C 0.9809(4) 0.4874(6) 0.2079(16)
C6_9 C 0.9930(4) 0.5390(6) 0.1389(17)
C7_9 C 0.9857(5) 0.4438(6) 0.0752(14)
C8_9 C 0.9917(5) 0.5787(6) 0.3081(17)
O4_9 O 0.9729(3) 0.3887(4) 0.1571(11)
H1_9 H 0.966404 0.475811 0.372691
O3_9 O 0.9787(2) 0.3642(3) 0.7357(9)
loop_
_geom_bond_atom_site_label_1
_geom_bond_atom_site_label_2
_geom_bond_site_symmetry_1
_geom_bond_site_symmetry_2
Cu1 O1 1_555 1_555
C1 C2 1_555 1_555
C2 C4 1_555 1_555
C3 C1 1_555 1_555
O1 C3 1_555 1_555
O3 C4 1_555 1_555
C5 C6 1_555 1_555
C6 C3 1_555 1_555
C7 C2 1_555 1_555
C8 C6 1_555 1_555
O4 C7 1_555 1_555
O5 C8 1_555 1_555
O6 Cu1 1_555 1_555
Cu7 O1 1_555 1_555
Cu4 O4 1_555 1_555
Cu5 O6 1_555 1_555
Cu8 O3 1_555 1_555
O7 Cu1 1_555 1_555
O9 Cu1 1_555 1_555
O12 Cu1 1_555 1_555
C5 C7 1_555 1_555
C8 O6 1_555 1_555
O4 Cu8 1_555 1_555
Cu7 O12 1_555 1_555
Cu5 O7 1_555 1_555
C5 H1 1_555 1_555
O2 Cu4 1_555 1_555
C1_2 C2_2 1_555 1_555
C2_2 C4_2 1_555 1_555
C3_2 C1_2 1_555 1_555
O1_2 C3_2 1_555 1_555
O3_2 C4_2 1_555 1_555
C5_2 C6_2 1_555 1_555
C6_2 C3_2 1_555 1_555
C7_2 C2_2 1_555 1_555
C8_2 C6_2 1_555 1_555
O4_2 C7_2 1_555 1_555
O5_2 C8_2 1_555 1_555
Cu7_2 O1_2 1_555 1_555
Cu4_2 O4_2 1_555 1_555
Cu8_2 O3_2 1_555 1_555
C5_2 C7_2 1_555 1_555
C8_2 O6_2 1_555 1_555
O4_2 Cu8_2 1_555 1_555
Cu7_2 O12_2 1_555 1_555
C5_2 H1_2 1_555 1_555
O2_2 Cu4_2 1_555 1_555
O7_2 Cu1_2 1_555 1_555
O9_2 Cu1_2 1_555 1_555
Cu5_2 O7_2 1_555 1_555
O7_3 Cu1_3 1_555 1_555
O9_3 Cu1_3 1_555 1_555
Cu5_3 O7_3 1_555 1_555
C1_3 C2_3 1_555 1_555
C2_3 C4_3 1_555 1_555
C3_3 C1_3 1_555 1_555
O1_3 C3_3 1_555 1_555
O3_3 C4_3 1_555 1_555
C5_3 C6_3 1_555 1_555
C6_3 C3_3 1_555 1_555
C7_3 C2_3 1_555 1_555
C8_3 C6_3 1_555 1_555
O4_3 C7_3 1_555 1_555
O5_3 C8_3 1_555 1_555
Cu7_3 O1_3 1_555 1_555
Cu4_3 O4_3 1_555 1_555
Cu8_3 O3_3 1_555 1_555
C5_3 C7_3 1_555 1_555
C8_3 O6_3 1_555 1_555
O4_3 Cu8_3 1_555 1_555
Cu7_3 O12_3 1_555 1_555
C5_3 H1_3 1_555 1_555
O2_3 Cu4_3 1_555 1_555
C1_4 C2_4 1_555 1_555
C2_4 C4_4 1_555 1_555
C3_4 C1_4 1_555 1_555
C4_4 O2_4 1_555 1_555
O7_2 C3_4 1_555 1_555
O3_4 C4_4 1_555 1_555
C5_4 C6_4 1_555 1_555
C6_4 C3_4 1_555 1_555
C7_4 C2_4 1_555 1_555
C8_4 C6_4 1_555 1_555
O4_4 C7_4 1_555 1_555
O11_2 Cu5_2 1_555 1_555
Cu6_3 O4_4 1_555 1_555
Cu8_3 O3_4 1_555 1_555
Cu4_3 O3_4 1_555 1_555
O9_4 Cu5_2 1_555 1_555
C5_4 C7_4 1_555 1_555
C8_4 O11_2 1_555 1_555
O4_4 Cu4_3 1_555 1_555
C1_4 H2_4 1_555 1_555
C1_5 C2_5 1_555 1_555
C2_5 C4_5 1_555 1_555
C3_5 C1_5 1_555 1_555
C4_5 O2_5 1_555 1_555
O7_3 C3_5 1_555 1_555
O3_5 C4_5 1_555 1_555
C5_5 C6_5 1_555 1_555
C6_5 C3_5 1_555 1_555
C7_5 C2_5 1_555 1_555
C8_5 C6_5 1_555 1_555
O4_5 C7_5 1_555 1_555
O11_3 Cu5_3 1_555 1_555
Cu6 O4_5 1_555 1_555
O9_5 Cu5_3 1_555 1_555
C5_5 C7_5 1_555 1_555
C8_5 O11_3 1_555 1_555
C1_5 H2_5 1_555 1_555
C1_6 C2_6 1_555 1_555
C2_6 C4_6 1_555 1_555
C3_6 C1_6 1_555 1_555
C4_6 O2_6 1_555 1_555
O7 C3_6 1_555 1_555
O3_6 C4_6 1_555 1_555
C5_6 C6_6 1_555 1_555
C6_6 C3_6 1_555 1_555
C7_6 C2_6 1_555 1_555
C8_6 C6_6 1_555 1_555
O4_6 C7_6 1_555 1_555
O11 Cu5 1_555 1_555
Cu6_2 O4_6 1_555 1_555
O8 Cu5 1_555 1_555
O9_6 Cu5 1_555 1_555
C5_6 C7_6 1_555 1_555
C8_6 O11 1_555 1_555
C1_6 H2_6 1_555 1_555
C5_7 C6_7 1_555 1_555
C8_7 C6_7 1_555 1_555
O4_7 C7_7 1_555 1_555
O9_5 C8_7 1_555 1_555
C5_7 C7_7 1_555 1_555
C5_7 H1_7 1_555 1_555
Cu6_2 O3_7 1_555 1_555
C1_7 C2_7 1_555 1_555
C2_7 C4_7 1_555 1_555
C3_7 C1_7 1_555 1_555
C4_7 O2_7 1_555 1_555
O8_3 C3_7 1_555 1_555
O2_7 Cu8_2 1_555 1_555
C1_7 H2_7 1_555 1_555
C5_8 C6_8 1_555 1_555
C8_8 C6_8 1_555 1_555
O4_8 C7_8 1_555 1_555
O9_6 C8_8 1_555 1_555
Cu8_3 O4_8 1_555 1_555
C5_8 C7_8 1_555 1_555
C8_8 O12 1_555 1_555
C5_8 H1_8 1_555 1_555
C1_8 C2_8 1_555 1_555
C2_8 C4_8 1_555 1_555
C3_8 C1_8 1_555 1_555
C4_8 O2_8 1_555 1_555
O8 C3_8 1_555 1_555
O2_8 Cu8_3 1_555 1_555
O3_8 C4_8 1_555 1_555
Cu4_3 O3_8 1_555 1_555
Cu6_3 O3_8 1_555 1_555
C1_8 H2_8 1_555 1_555
C1_9 C2_9 1_555 1_555
C2_9 C4_9 1_555 1_555
C3_9 C1_9 1_555 1_555
C4_9 O2_9 1_555 1_555
O8_2 C3_9 1_555 1_555
O2_9 Cu8 1_555 1_555
C1_9 H2_9 1_555 1_555
C5_9 C6_9 1_555 1_555
C8_9 C6_9 1_555 1_555
O4_9 C7_9 1_555 1_555
O9_4 C8_9 1_555 1_555
C5_9 C7_9 1_555 1_555
C5_9 H1_9 1_555 1_555
Cu6 O3_9 1_555 1_555

#END
