
###############################################################################
#
# This file contains modified crystal structure data generated from the
# MOF subset of the Cambridge Structural Database (CSD) v543 
# hosted by the Cambridge Crystallographic Data Centre (CCDC).
#
# This work is licensed under the Creative Commons
# Attribution-NonCommercial-ShareAlike 4.0 International License.
# To view a copy of this license, visit
# http://creativecommons.org/licenses/by-nc-sa/4.0/
# or send a letter to
# Creative Commons, PO Box 1866, Mountain View, CA 94042, USA.
#
# CIF created using the CSD Python API on 29 September 2022
# The structure has been converted into the P1 space group
# The structure has a 3D framework
# The original CSD entry MOLLAD32 is in the rhombohedral crystal system
# The framework has been calculated to contain at least 10.0% void space
# The void calculation uses a probe of radius 1.32A, grid spacing 0.4
# H atom positions have been added when not included in the experimental data
#
###############################################################################

data_MOLLAD32
_chemical_formula_moiety         '(C72 H18 Cu7 O44)n'
_symmetry_cell_setting           triclinic
_symmetry_space_group_name_H-M   'P 1'
_symmetry_Int_Tables_number      1
_space_group_name_Hall           'P 1'
loop_
_symmetry_equiv_pos_site_id
_symmetry_equiv_pos_as_xyz
1 x,y,z
_cell_length_a                   25.9250(3)
_cell_length_b                   25.9250(3)
_cell_length_c                   6.27385(8)
_cell_angle_alpha                90
_cell_angle_beta                 90
_cell_angle_gamma                120
_cell_volume                     3651.76
loop_
_atom_site_label
_atom_site_type_symbol
_atom_site_fract_x
_atom_site_fract_y
_atom_site_fract_z
Cu7 Cu 0.31813(8) 0.37167(6) 0.0089(3)
Cu1 Cu 0.29500(6) 0.27980(6) 0.3422(3)
C1 C 0.1600(5) 0.3151(4) 0.1256(18)
C2 C 0.1208(5) 0.3260(5) 0.1939(19)
C3 C 0.2084(4) 0.3195(5) 0.2600(16)
C4 C 0.0796(5) 0.3248(6) 0.0245(18)
O1 O 0.2506(3) 0.3058(3) 0.1788(13)
O3 O 0.0517(3) 0.3547(3) 0.0697(10)
C5 C 0.1733(5) 0.3516(4) 0.5411(18)
C6 C 0.2125(5) 0.3407(5) 0.4728(19)
C7 C 0.1249(4) 0.3472(5) 0.4067(16)
C8 C 0.2537(5) 0.3419(6) 0.6422(18)
O4 O 0.0827(3) 0.3609(3) 0.4879(13)
O5 O 0.2677(3) 0.3748(3) 0.7922(13)
O6 O 0.2816(3) 0.3120(3) 0.5970(10)
Cu4 Cu 0.01520(8) 0.29500(6) 0.6578(3)
Cu5 Cu 0.38687(6) 0.34853(8) 0.6755(3)
Cu8 Cu 0.03833(6) 0.38687(6) 0.3245(3)
O7 O 0.3609(3) 0.2781(4) 0.5121(13)
O9 O 0.2919(3) 0.2263(4) 0.1255(13)
O12 O 0.3637(4) 0.3850(3) 0.2636(10)
H1 H 0.175399 0.36483 0.706959
O2 O 0.0656(3) 0.2919(3) 0.8745(13)
O8 O 0.3885(4) 0.4161(3) 0.8455(13)
O11 O 0.3547(3) 0.3030(4) 0.9303(10)
H2 H 0.157934 0.301836 0.959708
Cu6 Cu 0.94647(6) 0.31813(8) 0.9911(3)
Cu6_2 Cu 0.37167(10) 0.05353(6) 0.9911(3)
Cu7_2 Cu 0.05353(10) 0.68187(8) 0.0089(3)
C1_2 C 0.1551(6) 0.8400(5) 0.1256(18)
C2_2 C 0.2052(7) 0.8792(5) 0.1939(19)
C3_2 C 0.1111(6) 0.7916(4) 0.2600(16)
C4_2 C 0.2452(8) 0.9204(5) 0.0245(18)
O1_2 O 0.0552(4) 0.7494(3) 0.1788(13)
O3_2 O 0.3030(4) 0.9483(3) 0.0697(10)
C5_2 C 0.1782(6) 0.8267(5) 0.5411(18)
C6_2 C 0.1281(7) 0.7875(5) 0.4728(19)
C7_2 C 0.2222(6) 0.8751(4) 0.4067(16)
C8_2 C 0.0881(8) 0.7463(5) 0.6422(18)
O4_2 O 0.2781(4) 0.9173(3) 0.4879(13)
O5_2 O 0.1070(4) 0.7323(3) 0.7922(13)
O6_2 O 0.0303(4) 0.7184(3) 0.5970(10)
Cu4_2 Cu 0.27980(10) 0.98480(8) 0.6578(3)
Cu8_2 Cu 0.34853(8) 0.96167(6) 0.3245(3)
O12_2 O 0.0214(5) 0.6363(4) 0.2636(10)
H1_2 H 0.189432 0.824601 0.706959
O2_2 O 0.2263(4) 0.9344(3) 0.8745(13)
O8_2 O 0.0275(5) 0.6115(4) 0.8455(13)
H2_2 H 0.143902 0.842066 0.959708
Cu1_2 Cu 0.98480(8) 0.70500(6) 0.3422(3)
Cu5_2 Cu 0.96167(10) 0.61313(6) 0.6755(3)
O7_2 O 0.9173(5) 0.6391(3) 0.5121(13)
O9_2 O 0.9344(5) 0.7081(3) 0.1255(13)
O11_2 O 0.9483(5) 0.6453(3) 0.9303(10)
Cu1_3 Cu 0.72020(6) 0.01520(8) 0.3422(3)
Cu5_3 Cu 0.65147(8) 0.03833(10) 0.6755(3)
O7_3 O 0.7219(4) 0.0827(5) 0.5121(13)
O9_3 O 0.7737(4) 0.0656(5) 0.1255(13)
O11_3 O 0.6970(4) 0.0517(5) 0.9303(10)
Cu7_3 Cu 0.62833(6) 0.94647(10) 0.0089(3)
C1_3 C 0.6849(4) 0.8449(6) 0.1256(18)
C2_3 C 0.6740(5) 0.7948(7) 0.1939(19)
C3_3 C 0.6805(5) 0.8889(6) 0.2600(16)
C4_3 C 0.6752(6) 0.7548(8) 0.0245(18)
O1_3 O 0.6942(3) 0.9448(4) 0.1788(13)
O3_3 O 0.6453(3) 0.6970(4) 0.0697(10)
C5_3 C 0.6484(4) 0.8218(6) 0.5411(18)
C6_3 C 0.6593(5) 0.8719(7) 0.4728(19)
C7_3 C 0.6528(5) 0.7778(6) 0.4067(16)
C8_3 C 0.6581(6) 0.9119(8) 0.6422(18)
O4_3 O 0.6391(3) 0.7219(4) 0.4879(13)
O5_3 O 0.6252(3) 0.8930(4) 0.7922(13)
O6_3 O 0.6880(3) 0.9697(4) 0.5970(10)
Cu4_3 Cu 0.70500(6) 0.72020(10) 0.6578(3)
Cu8_3 Cu 0.61313(6) 0.65147(8) 0.3245(3)
O12_3 O 0.6150(3) 0.9786(5) 0.2636(10)
H1_3 H 0.63517 0.810568 0.706959
O2_3 O 0.7081(3) 0.7737(4) 0.8745(13)
Cu6_3 Cu 0.68187(8) 0.62833(10) 0.9911(3)
O8_3 O 0.5839(3) 0.9725(5) 0.8455(13)
H2_3 H 0.698164 0.856098 0.959708
H1_4 H 0.842066 0.698164 0.040292
C1_4 C 0.8267(5) 0.6484(4) 0.4589(18)
C2_4 C 0.7875(5) 0.6593(5) 0.5272(19)
C3_4 C 0.8751(4) 0.6528(5) 0.5933(16)
C4_4 C 0.7463(5) 0.6581(6) 0.3578(18)
O2_4 O 0.7323(3) 0.6252(3) 0.2078(13)
O3_4 O 0.7184(3) 0.6880(3) 0.4030(10)
C5_4 C 0.8400(5) 0.6849(4) 0.8744(18)
C6_4 C 0.8792(5) 0.6740(5) 0.8061(19)
C7_4 C 0.7916(4) 0.6805(5) 0.7400(16)
C8_4 C 0.9204(5) 0.6752(6) 0.9755(18)
O4_4 O 0.7494(3) 0.6942(3) 0.8212(13)
O9_4 O 0.9586(3) 0.5596(4) 0.4588(13)
H2_4 H 0.824601 0.63517 0.293041
H1_5 H 0.856098 0.157934 0.040292
C1_5 C 0.8218(6) 0.1733(5) 0.4589(18)
C2_5 C 0.8719(7) 0.2125(5) 0.5272(19)
C3_5 C 0.7778(6) 0.1249(4) 0.5933(16)
C4_5 C 0.9119(8) 0.2537(5) 0.3578(18)
O2_5 O 0.8930(4) 0.2677(3) 0.2078(13)
O3_5 O 0.9697(4) 0.2816(3) 0.4030(10)
C5_5 C 0.8449(6) 0.1600(5) 0.8744(18)
C6_5 C 0.7948(7) 0.1208(5) 0.8061(19)
C7_5 C 0.8889(6) 0.2084(4) 0.7400(16)
C8_5 C 0.7548(8) 0.0796(5) 0.9755(18)
O4_5 O 0.9448(4) 0.2506(3) 0.8212(13)
O9_5 O 0.6011(5) 0.0414(3) 0.4588(13)
H2_5 H 0.810568 0.175399 0.293041
H1_6 H 0.301836 0.143902 0.040292
C1_6 C 0.3516(4) 0.1782(6) 0.4589(18)
C2_6 C 0.3407(5) 0.1281(7) 0.5272(19)
C3_6 C 0.3472(5) 0.2222(6) 0.5933(16)
C4_6 C 0.3419(6) 0.0881(8) 0.3578(18)
O2_6 O 0.3748(3) 0.1070(4) 0.2078(13)
O3_6 O 0.3120(3) 0.0303(4) 0.4030(10)
C5_6 C 0.3151(4) 0.1551(6) 0.8744(18)
C6_6 C 0.3260(5) 0.2052(7) 0.8061(19)
C7_6 C 0.3195(5) 0.1111(6) 0.7400(16)
C8_6 C 0.3248(6) 0.2452(8) 0.9755(18)
O4_6 O 0.3058(3) 0.0552(4) 0.8212(13)
O9_6 O 0.4404(4) 0.3989(5) 0.4588(13)
H2_6 H 0.36483 0.189432 0.293041
C5_7 C 0.5067(5) 0.0182(4) 0.2077(18)
C6_7 C 0.5459(5) 0.0073(5) 0.1394(19)
C7_7 C 0.4583(4) 0.0138(5) 0.0733(16)
C8_7 C 0.5871(5) 0.0085(6) 0.3088(18)
O4_7 O 0.4161(3) 0.0275(3) 0.1545(13)
H1_7 H 0.508732 0.0314971 0.373625
O3_7 O 0.3850(3) 0.0214(3) 0.7364(10)
C1_7 C 0.4933(5) 0.9818(4) 0.7923(18)
C2_7 C 0.4541(5) 0.9927(5) 0.8606(19)
C3_7 C 0.5417(4) 0.9862(5) 0.9267(16)
C4_7 C 0.4129(5) 0.9915(6) 0.6912(18)
O2_7 O 0.3989(3) 0.9586(3) 0.5412(13)
H2_7 H 0.491268 0.968503 0.626375
C5_8 C 0.5116(6) 0.4933(5) 0.2077(18)
C6_8 C 0.4615(7) 0.4541(5) 0.1394(19)
C7_8 C 0.5556(6) 0.5417(4) 0.0733(16)
C8_8 C 0.4215(8) 0.4129(5) 0.3088(18)
O4_8 O 0.6115(4) 0.5839(3) 0.1545(13)
H1_8 H 0.522765 0.491268 0.373625
C1_8 C 0.4884(6) 0.5067(5) 0.7923(18)
C2_8 C 0.5385(7) 0.5459(5) 0.8606(19)
C3_8 C 0.4444(6) 0.4583(4) 0.9267(16)
C4_8 C 0.5785(8) 0.5871(5) 0.6912(18)
O2_8 O 0.5596(4) 0.6011(3) 0.5412(13)
O3_8 O 0.6363(4) 0.6150(3) 0.7364(10)
H2_8 H 0.477235 0.508732 0.626375
C1_9 C 0.0182(4) 0.5116(6) 0.7923(18)
C2_9 C 0.0073(5) 0.4615(7) 0.8606(19)
C3_9 C 0.0138(5) 0.5556(6) 0.9267(16)
C4_9 C 0.0085(6) 0.4215(8) 0.6912(18)
O2_9 O 0.0414(3) 0.4404(4) 0.5412(13)
H2_9 H 0.0314971 0.522765 0.626375
C5_9 C 0.9818(4) 0.4884(6) 0.2077(18)
C6_9 C 0.9927(5) 0.5385(7) 0.1394(19)
C7_9 C 0.9862(5) 0.4444(6) 0.0733(16)
C8_9 C 0.9915(6) 0.5785(8) 0.3088(18)
O4_9 O 0.9725(3) 0.3885(4) 0.1545(13)
H1_9 H 0.968503 0.477235 0.373625
O3_9 O 0.9786(3) 0.3637(4) 0.7364(10)
loop_
_geom_bond_atom_site_label_1
_geom_bond_atom_site_label_2
_geom_bond_site_symmetry_1
_geom_bond_site_symmetry_2
Cu1 O1 1_555 1_555
C1 C2 1_555 1_555
C2 C4 1_555 1_555
C3 C1 1_555 1_555
O1 C3 1_555 1_555
O3 C4 1_555 1_555
C5 C6 1_555 1_555
C6 C3 1_555 1_555
C7 C2 1_555 1_555
C8 C6 1_555 1_555
O4 C7 1_555 1_555
O5 C8 1_555 1_555
O6 Cu1 1_555 1_555
Cu7 O1 1_555 1_555
Cu4 O4 1_555 1_555
Cu5 O6 1_555 1_555
Cu8 O3 1_555 1_555
O7 Cu1 1_555 1_555
O9 Cu1 1_555 1_555
O12 Cu1 1_555 1_555
C5 C7 1_555 1_555
C8 O6 1_555 1_555
O4 Cu8 1_555 1_555
Cu7 O12 1_555 1_555
Cu5 O7 1_555 1_555
C5 H1 1_555 1_555
O2 Cu4 1_555 1_555
C1_2 C2_2 1_555 1_555
C2_2 C4_2 1_555 1_555
C3_2 C1_2 1_555 1_555
O1_2 C3_2 1_555 1_555
O3_2 C4_2 1_555 1_555
C5_2 C6_2 1_555 1_555
C6_2 C3_2 1_555 1_555
C7_2 C2_2 1_555 1_555
C8_2 C6_2 1_555 1_555
O4_2 C7_2 1_555 1_555
O5_2 C8_2 1_555 1_555
Cu7_2 O1_2 1_555 1_555
Cu4_2 O4_2 1_555 1_555
Cu8_2 O3_2 1_555 1_555
C5_2 C7_2 1_555 1_555
C8_2 O6_2 1_555 1_555
O4_2 Cu8_2 1_555 1_555
Cu7_2 O12_2 1_555 1_555
C5_2 H1_2 1_555 1_555
O2_2 Cu4_2 1_555 1_555
O7_2 Cu1_2 1_555 1_555
O9_2 Cu1_2 1_555 1_555
Cu5_2 O7_2 1_555 1_555
O7_3 Cu1_3 1_555 1_555
O9_3 Cu1_3 1_555 1_555
Cu5_3 O7_3 1_555 1_555
C1_3 C2_3 1_555 1_555
C2_3 C4_3 1_555 1_555
C3_3 C1_3 1_555 1_555
O1_3 C3_3 1_555 1_555
O3_3 C4_3 1_555 1_555
C5_3 C6_3 1_555 1_555
C6_3 C3_3 1_555 1_555
C7_3 C2_3 1_555 1_555
C8_3 C6_3 1_555 1_555
O4_3 C7_3 1_555 1_555
O5_3 C8_3 1_555 1_555
Cu7_3 O1_3 1_555 1_555
Cu4_3 O4_3 1_555 1_555
Cu8_3 O3_3 1_555 1_555
C5_3 C7_3 1_555 1_555
C8_3 O6_3 1_555 1_555
O4_3 Cu8_3 1_555 1_555
Cu7_3 O12_3 1_555 1_555
C5_3 H1_3 1_555 1_555
O2_3 Cu4_3 1_555 1_555
C1_4 C2_4 1_555 1_555
C2_4 C4_4 1_555 1_555
C3_4 C1_4 1_555 1_555
C4_4 O2_4 1_555 1_555
O7_2 C3_4 1_555 1_555
O3_4 C4_4 1_555 1_555
C5_4 C6_4 1_555 1_555
C6_4 C3_4 1_555 1_555
C7_4 C2_4 1_555 1_555
C8_4 C6_4 1_555 1_555
O4_4 C7_4 1_555 1_555
O11_2 Cu5_2 1_555 1_555
Cu6_3 O4_4 1_555 1_555
Cu8_3 O3_4 1_555 1_555
Cu4_3 O3_4 1_555 1_555
O9_4 Cu5_2 1_555 1_555
C5_4 C7_4 1_555 1_555
C8_4 O11_2 1_555 1_555
O4_4 Cu4_3 1_555 1_555
C1_4 H2_4 1_555 1_555
C1_5 C2_5 1_555 1_555
C2_5 C4_5 1_555 1_555
C3_5 C1_5 1_555 1_555
C4_5 O2_5 1_555 1_555
O7_3 C3_5 1_555 1_555
O3_5 C4_5 1_555 1_555
C5_5 C6_5 1_555 1_555
C6_5 C3_5 1_555 1_555
C7_5 C2_5 1_555 1_555
C8_5 C6_5 1_555 1_555
O4_5 C7_5 1_555 1_555
O11_3 Cu5_3 1_555 1_555
Cu6 O4_5 1_555 1_555
O9_5 Cu5_3 1_555 1_555
C5_5 C7_5 1_555 1_555
C8_5 O11_3 1_555 1_555
C1_5 H2_5 1_555 1_555
C1_6 C2_6 1_555 1_555
C2_6 C4_6 1_555 1_555
C3_6 C1_6 1_555 1_555
C4_6 O2_6 1_555 1_555
O7 C3_6 1_555 1_555
O3_6 C4_6 1_555 1_555
C5_6 C6_6 1_555 1_555
C6_6 C3_6 1_555 1_555
C7_6 C2_6 1_555 1_555
C8_6 C6_6 1_555 1_555
O4_6 C7_6 1_555 1_555
O11 Cu5 1_555 1_555
Cu6_2 O4_6 1_555 1_555
O8 Cu5 1_555 1_555
O9_6 Cu5 1_555 1_555
C5_6 C7_6 1_555 1_555
C8_6 O11 1_555 1_555
C1_6 H2_6 1_555 1_555
C5_7 C6_7 1_555 1_555
C8_7 C6_7 1_555 1_555
O4_7 C7_7 1_555 1_555
O9_5 C8_7 1_555 1_555
C5_7 C7_7 1_555 1_555
C5_7 H1_7 1_555 1_555
Cu6_2 O3_7 1_555 1_555
C1_7 C2_7 1_555 1_555
C2_7 C4_7 1_555 1_555
C3_7 C1_7 1_555 1_555
C4_7 O2_7 1_555 1_555
O8_3 C3_7 1_555 1_555
O2_7 Cu8_2 1_555 1_555
C1_7 H2_7 1_555 1_555
C5_8 C6_8 1_555 1_555
C8_8 C6_8 1_555 1_555
O4_8 C7_8 1_555 1_555
O9_6 C8_8 1_555 1_555
Cu8_3 O4_8 1_555 1_555
C5_8 C7_8 1_555 1_555
C8_8 O12 1_555 1_555
C5_8 H1_8 1_555 1_555
C1_8 C2_8 1_555 1_555
C2_8 C4_8 1_555 1_555
C3_8 C1_8 1_555 1_555
C4_8 O2_8 1_555 1_555
O8 C3_8 1_555 1_555
O2_8 Cu8_3 1_555 1_555
O3_8 C4_8 1_555 1_555
Cu4_3 O3_8 1_555 1_555
Cu6_3 O3_8 1_555 1_555
C1_8 H2_8 1_555 1_555
C1_9 C2_9 1_555 1_555
C2_9 C4_9 1_555 1_555
C3_9 C1_9 1_555 1_555
C4_9 O2_9 1_555 1_555
O8_2 C3_9 1_555 1_555
O2_9 Cu8 1_555 1_555
C1_9 H2_9 1_555 1_555
C5_9 C6_9 1_555 1_555
C8_9 C6_9 1_555 1_555
O4_9 C7_9 1_555 1_555
O9_4 C8_9 1_555 1_555
C5_9 C7_9 1_555 1_555
C5_9 H1_9 1_555 1_555
Cu6 O3_9 1_555 1_555

#END
