
###############################################################################
#
# This file contains modified crystal structure data generated from the
# MOF subset of the Cambridge Structural Database (CSD) v543 
# hosted by the Cambridge Crystallographic Data Centre (CCDC).
#
# This work is licensed under the Creative Commons
# Attribution-NonCommercial-ShareAlike 4.0 International License.
# To view a copy of this license, visit
# http://creativecommons.org/licenses/by-nc-sa/4.0/
# or send a letter to
# Creative Commons, PO Box 1866, Mountain View, CA 94042, USA.
#
# CIF created using the CSD Python API on 29 September 2022
# The structure has been converted into the P1 space group
# The structure has a 3D framework
# The original CSD entry MOLLAD65 is in the rhombohedral crystal system
# The framework has been calculated to contain at least 10.0% void space
# The void calculation uses a probe of radius 1.32A, grid spacing 0.4
# H atom positions have been added when not included in the experimental data
#
###############################################################################

data_MOLLAD65
_chemical_formula_moiety         '(C72 H18 Cu7 O44)n'
_symmetry_cell_setting           triclinic
_symmetry_space_group_name_H-M   'P 1'
_symmetry_Int_Tables_number      1
_space_group_name_Hall           'P 1'
loop_
_symmetry_equiv_pos_site_id
_symmetry_equiv_pos_as_xyz
1 x,y,z
_cell_length_a                   25.9257(3)
_cell_length_b                   25.9257(3)
_cell_length_c                   6.27085(7)
_cell_angle_alpha                90
_cell_angle_beta                 90
_cell_angle_gamma                120
_cell_volume                     3650.21
loop_
_atom_site_label
_atom_site_type_symbol
_atom_site_fract_x
_atom_site_fract_y
_atom_site_fract_z
Cu7 Cu 0.31801(7) 0.37163(5) 0.0094(2)
Cu1 Cu 0.29504(5) 0.27972(5) 0.3427(2)
C1 C 0.1602(4) 0.3139(3) 0.1255(16)
C2 C 0.1206(4) 0.3263(4) 0.1948(17)
C3 C 0.2085(4) 0.3190(5) 0.2574(14)
C4 C 0.0795(4) 0.3250(5) 0.0255(16)
O1 O 0.2509(2) 0.3064(2) 0.1753(11)
O3 O 0.0521(2) 0.3546(2) 0.0688(9)
C5 C 0.1731(4) 0.3528(3) 0.5412(16)
C6 C 0.2127(4) 0.3404(4) 0.4719(17)
C7 C 0.1248(4) 0.3477(5) 0.4093(14)
C8 C 0.2538(4) 0.3417(5) 0.6412(16)
O4 O 0.0824(2) 0.3603(2) 0.4914(11)
O5 O 0.2675(3) 0.3749(3) 0.7945(11)
O6 O 0.2812(2) 0.3121(2) 0.5979(9)
Cu4 Cu 0.01532(7) 0.29504(5) 0.6573(2)
Cu5 Cu 0.38695(5) 0.34865(7) 0.6760(2)
Cu8 Cu 0.03829(5) 0.38695(5) 0.3240(2)
O7 O 0.3603(2) 0.2778(3) 0.5086(11)
O9 O 0.2918(3) 0.2260(4) 0.1278(11)
O12 O 0.3642(3) 0.3854(2) 0.2645(9)
H1 H 0.176217 0.367657 0.705454
O2 O 0.0658(3) 0.2918(3) 0.8722(11)
O8 O 0.3888(3) 0.4158(2) 0.8420(11)
O11 O 0.3546(2) 0.3025(3) 0.9312(9)
H2 H 0.157116 0.299009 0.961212
Cu6 Cu 0.94639(5) 0.31801(7) 0.9906(2)
Cu6_2 Cu 0.37163(9) 0.05361(5) 0.9906(2)
Cu7_2 Cu 0.05361(9) 0.68199(7) 0.0094(2)
C1_2 C 0.1537(5) 0.8398(4) 0.1255(16)
C2_2 C 0.2057(6) 0.8794(4) 0.1948(17)
C3_2 C 0.1105(6) 0.7915(4) 0.2574(14)
C4_2 C 0.2455(6) 0.9205(4) 0.0255(16)
O1_2 O 0.0555(3) 0.7491(2) 0.1753(11)
O3_2 O 0.3025(3) 0.9479(2) 0.0688(9)
C5_2 C 0.1796(5) 0.8269(4) 0.5412(16)
C6_2 C 0.1276(6) 0.7873(4) 0.4719(17)
C7_2 C 0.2228(6) 0.8752(4) 0.4093(14)
C8_2 C 0.0878(6) 0.7462(4) 0.6412(16)
O4_2 O 0.2778(3) 0.9176(2) 0.4914(11)
O5_2 O 0.1073(4) 0.7325(3) 0.7945(11)
O6_2 O 0.0308(3) 0.7188(2) 0.5979(9)
Cu4_2 Cu 0.27972(9) 0.98468(7) 0.6573(2)
Cu8_2 Cu 0.34865(7) 0.96171(5) 0.3240(2)
O12_2 O 0.0213(4) 0.6358(3) 0.2645(9)
H1_2 H 0.19144 0.823783 0.705454
O2_2 O 0.2260(4) 0.9342(3) 0.8722(11)
O8_2 O 0.0269(4) 0.6112(3) 0.8420(11)
H2_2 H 0.141893 0.842884 0.961212
Cu1_2 Cu 0.98468(7) 0.70496(5) 0.3427(2)
Cu5_2 Cu 0.96171(9) 0.61305(5) 0.6760(2)
O7_2 O 0.9176(4) 0.6397(2) 0.5086(11)
O9_2 O 0.9342(5) 0.7082(3) 0.1278(11)
O11_2 O 0.9479(4) 0.6454(2) 0.9312(9)
Cu1_3 Cu 0.72028(5) 0.01532(7) 0.3427(2)
Cu5_3 Cu 0.65135(7) 0.03829(9) 0.6760(2)
O7_3 O 0.7222(3) 0.0824(4) 0.5086(11)
O9_3 O 0.7740(4) 0.0658(5) 0.1278(11)
O11_3 O 0.6975(3) 0.0521(4) 0.9312(9)
Cu7_3 Cu 0.62837(5) 0.94639(9) 0.0094(2)
C1_3 C 0.6861(3) 0.8463(5) 0.1255(16)
C2_3 C 0.6737(4) 0.7943(6) 0.1948(17)
C3_3 C 0.6810(5) 0.8895(6) 0.2574(14)
C4_3 C 0.6750(5) 0.7545(6) 0.0255(16)
O1_3 O 0.6936(2) 0.9445(3) 0.1753(11)
O3_3 O 0.6454(2) 0.6975(3) 0.0688(9)
C5_3 C 0.6472(3) 0.8204(5) 0.5412(16)
C6_3 C 0.6596(4) 0.8724(6) 0.4719(17)
C7_3 C 0.6523(5) 0.7772(6) 0.4093(14)
C8_3 C 0.6583(5) 0.9122(6) 0.6412(16)
O4_3 O 0.6397(2) 0.7222(3) 0.4914(11)
O5_3 O 0.6251(3) 0.8927(4) 0.7945(11)
O6_3 O 0.6879(2) 0.9692(3) 0.5979(9)
Cu4_3 Cu 0.70496(5) 0.72028(9) 0.6573(2)
Cu8_3 Cu 0.61305(5) 0.65135(7) 0.3240(2)
O12_3 O 0.6146(2) 0.9787(4) 0.2645(9)
H1_3 H 0.632343 0.80856 0.705454
O2_3 O 0.7082(3) 0.7740(4) 0.8722(11)
Cu6_3 Cu 0.68199(7) 0.62837(9) 0.9906(2)
O8_3 O 0.5842(2) 0.9731(4) 0.8420(11)
H2_3 H 0.700991 0.858107 0.961212
H1_4 H 0.842884 0.700991 0.0387875
C1_4 C 0.8269(4) 0.6472(3) 0.4588(16)
C2_4 C 0.7873(4) 0.6596(4) 0.5281(17)
C3_4 C 0.8752(4) 0.6523(5) 0.5907(14)
C4_4 C 0.7462(4) 0.6583(5) 0.3588(16)
O2_4 O 0.7325(3) 0.6251(3) 0.2055(11)
O3_4 O 0.7188(2) 0.6879(2) 0.4021(9)
C5_4 C 0.8398(4) 0.6861(3) 0.8745(16)
C6_4 C 0.8794(4) 0.6737(4) 0.8052(17)
C7_4 C 0.7915(4) 0.6810(5) 0.7426(14)
C8_4 C 0.9205(4) 0.6750(5) 0.9745(16)
O4_4 O 0.7491(2) 0.6936(2) 0.8247(11)
O9_4 O 0.9585(3) 0.5593(4) 0.4611(11)
H2_4 H 0.823783 0.632343 0.294546
H1_5 H 0.858107 0.157116 0.0387875
C1_5 C 0.8204(5) 0.1731(4) 0.4588(16)
C2_5 C 0.8724(6) 0.2127(4) 0.5281(17)
C3_5 C 0.7772(6) 0.1248(4) 0.5907(14)
C4_5 C 0.9122(6) 0.2538(4) 0.3588(16)
O2_5 O 0.8927(4) 0.2675(3) 0.2055(11)
O3_5 O 0.9692(3) 0.2812(2) 0.4021(9)
C5_5 C 0.8463(5) 0.1602(4) 0.8745(16)
C6_5 C 0.7943(6) 0.1206(4) 0.8052(17)
C7_5 C 0.8895(6) 0.2085(4) 0.7426(14)
C8_5 C 0.7545(6) 0.0795(4) 0.9745(16)
O4_5 O 0.9445(3) 0.2509(2) 0.8247(11)
O9_5 O 0.6009(5) 0.0415(3) 0.4611(11)
H2_5 H 0.80856 0.176217 0.294546
H1_6 H 0.299009 0.141893 0.0387875
C1_6 C 0.3528(3) 0.1796(5) 0.4588(16)
C2_6 C 0.3404(4) 0.1276(6) 0.5281(17)
C3_6 C 0.3477(5) 0.2228(6) 0.5907(14)
C4_6 C 0.3417(5) 0.0878(6) 0.3588(16)
O2_6 O 0.3749(3) 0.1073(4) 0.2055(11)
O3_6 O 0.3121(2) 0.0308(3) 0.4021(9)
C5_6 C 0.3139(3) 0.1537(5) 0.8745(16)
C6_6 C 0.3263(4) 0.2057(6) 0.8052(17)
C7_6 C 0.3190(5) 0.1105(6) 0.7426(14)
C8_6 C 0.3250(5) 0.2455(6) 0.9745(16)
O4_6 O 0.3064(2) 0.0555(3) 0.8247(11)
O9_6 O 0.4407(4) 0.3991(5) 0.4611(11)
H2_6 H 0.367657 0.19144 0.294546
C5_7 C 0.5065(4) 0.0194(3) 0.2078(16)
C6_7 C 0.5461(4) 0.0070(4) 0.1385(17)
C7_7 C 0.4582(4) 0.0143(5) 0.0759(14)
C8_7 C 0.5872(4) 0.0083(5) 0.3078(16)
O4_7 O 0.4158(2) 0.0269(2) 0.1580(11)
H1_7 H 0.509551 0.0343241 0.372121
O3_7 O 0.3854(2) 0.0213(2) 0.7355(9)
C1_7 C 0.4935(4) 0.9806(3) 0.7922(16)
C2_7 C 0.4539(4) 0.9930(4) 0.8615(17)
C3_7 C 0.5418(4) 0.9857(5) 0.9241(14)
C4_7 C 0.4128(4) 0.9917(5) 0.6922(16)
O2_7 O 0.3991(3) 0.9585(3) 0.5389(11)
H2_7 H 0.490449 0.965676 0.627879
C5_8 C 0.5130(5) 0.4935(4) 0.2078(16)
C6_8 C 0.4610(6) 0.4539(4) 0.1385(17)
C7_8 C 0.5562(6) 0.5418(4) 0.0759(14)
C8_8 C 0.4212(6) 0.4128(4) 0.3078(16)
O4_8 O 0.6112(3) 0.5842(2) 0.1580(11)
H1_8 H 0.524773 0.490449 0.372121
C1_8 C 0.4870(5) 0.5065(4) 0.7922(16)
C2_8 C 0.5390(6) 0.5461(4) 0.8615(17)
C3_8 C 0.4438(6) 0.4582(4) 0.9241(14)
C4_8 C 0.5788(6) 0.5872(4) 0.6922(16)
O2_8 O 0.5593(4) 0.6009(3) 0.5389(11)
O3_8 O 0.6358(3) 0.6146(2) 0.7355(9)
H2_8 H 0.475227 0.509551 0.627879
C1_9 C 0.0194(3) 0.5130(5) 0.7922(16)
C2_9 C 0.0070(4) 0.4610(6) 0.8615(17)
C3_9 C 0.0143(5) 0.5562(6) 0.9241(14)
C4_9 C 0.0083(5) 0.4212(6) 0.6922(16)
O2_9 O 0.0415(3) 0.4407(4) 0.5389(11)
H2_9 H 0.0343241 0.524773 0.627879
C5_9 C 0.9806(3) 0.4870(5) 0.2078(16)
C6_9 C 0.9930(4) 0.5390(6) 0.1385(17)
C7_9 C 0.9857(5) 0.4438(6) 0.0759(14)
C8_9 C 0.9917(5) 0.5788(6) 0.3078(16)
O4_9 O 0.9731(2) 0.3888(3) 0.1580(11)
H1_9 H 0.965676 0.475227 0.372121
O3_9 O 0.9787(2) 0.3642(3) 0.7355(9)
loop_
_geom_bond_atom_site_label_1
_geom_bond_atom_site_label_2
_geom_bond_site_symmetry_1
_geom_bond_site_symmetry_2
Cu1 O1 1_555 1_555
C1 C2 1_555 1_555
C2 C4 1_555 1_555
C3 C1 1_555 1_555
O1 C3 1_555 1_555
O3 C4 1_555 1_555
C5 C6 1_555 1_555
C6 C3 1_555 1_555
C7 C2 1_555 1_555
C8 C6 1_555 1_555
O4 C7 1_555 1_555
O5 C8 1_555 1_555
O6 Cu1 1_555 1_555
Cu7 O1 1_555 1_555
Cu4 O4 1_555 1_555
Cu5 O6 1_555 1_555
Cu8 O3 1_555 1_555
O7 Cu1 1_555 1_555
O9 Cu1 1_555 1_555
O12 Cu1 1_555 1_555
C5 C7 1_555 1_555
C8 O6 1_555 1_555
O4 Cu8 1_555 1_555
Cu7 O12 1_555 1_555
Cu5 O7 1_555 1_555
C5 H1 1_555 1_555
O2 Cu4 1_555 1_555
C1_2 C2_2 1_555 1_555
C2_2 C4_2 1_555 1_555
C3_2 C1_2 1_555 1_555
O1_2 C3_2 1_555 1_555
O3_2 C4_2 1_555 1_555
C5_2 C6_2 1_555 1_555
C6_2 C3_2 1_555 1_555
C7_2 C2_2 1_555 1_555
C8_2 C6_2 1_555 1_555
O4_2 C7_2 1_555 1_555
O5_2 C8_2 1_555 1_555
Cu7_2 O1_2 1_555 1_555
Cu4_2 O4_2 1_555 1_555
Cu8_2 O3_2 1_555 1_555
C5_2 C7_2 1_555 1_555
C8_2 O6_2 1_555 1_555
O4_2 Cu8_2 1_555 1_555
Cu7_2 O12_2 1_555 1_555
C5_2 H1_2 1_555 1_555
O2_2 Cu4_2 1_555 1_555
O7_2 Cu1_2 1_555 1_555
O9_2 Cu1_2 1_555 1_555
Cu5_2 O7_2 1_555 1_555
O7_3 Cu1_3 1_555 1_555
O9_3 Cu1_3 1_555 1_555
Cu5_3 O7_3 1_555 1_555
C1_3 C2_3 1_555 1_555
C2_3 C4_3 1_555 1_555
C3_3 C1_3 1_555 1_555
O1_3 C3_3 1_555 1_555
O3_3 C4_3 1_555 1_555
C5_3 C6_3 1_555 1_555
C6_3 C3_3 1_555 1_555
C7_3 C2_3 1_555 1_555
C8_3 C6_3 1_555 1_555
O4_3 C7_3 1_555 1_555
O5_3 C8_3 1_555 1_555
Cu7_3 O1_3 1_555 1_555
Cu4_3 O4_3 1_555 1_555
Cu8_3 O3_3 1_555 1_555
C5_3 C7_3 1_555 1_555
C8_3 O6_3 1_555 1_555
O4_3 Cu8_3 1_555 1_555
Cu7_3 O12_3 1_555 1_555
C5_3 H1_3 1_555 1_555
O2_3 Cu4_3 1_555 1_555
C1_4 C2_4 1_555 1_555
C2_4 C4_4 1_555 1_555
C3_4 C1_4 1_555 1_555
C4_4 O2_4 1_555 1_555
O7_2 C3_4 1_555 1_555
O3_4 C4_4 1_555 1_555
C5_4 C6_4 1_555 1_555
C6_4 C3_4 1_555 1_555
C7_4 C2_4 1_555 1_555
C8_4 C6_4 1_555 1_555
O4_4 C7_4 1_555 1_555
O11_2 Cu5_2 1_555 1_555
Cu6_3 O4_4 1_555 1_555
Cu8_3 O3_4 1_555 1_555
Cu4_3 O3_4 1_555 1_555
O9_4 Cu5_2 1_555 1_555
C5_4 C7_4 1_555 1_555
C8_4 O11_2 1_555 1_555
O4_4 Cu4_3 1_555 1_555
C1_4 H2_4 1_555 1_555
C1_5 C2_5 1_555 1_555
C2_5 C4_5 1_555 1_555
C3_5 C1_5 1_555 1_555
C4_5 O2_5 1_555 1_555
O7_3 C3_5 1_555 1_555
O3_5 C4_5 1_555 1_555
C5_5 C6_5 1_555 1_555
C6_5 C3_5 1_555 1_555
C7_5 C2_5 1_555 1_555
C8_5 C6_5 1_555 1_555
O4_5 C7_5 1_555 1_555
O11_3 Cu5_3 1_555 1_555
Cu6 O4_5 1_555 1_555
O9_5 Cu5_3 1_555 1_555
C5_5 C7_5 1_555 1_555
C8_5 O11_3 1_555 1_555
C1_5 H2_5 1_555 1_555
C1_6 C2_6 1_555 1_555
C2_6 C4_6 1_555 1_555
C3_6 C1_6 1_555 1_555
C4_6 O2_6 1_555 1_555
O7 C3_6 1_555 1_555
O3_6 C4_6 1_555 1_555
C5_6 C6_6 1_555 1_555
C6_6 C3_6 1_555 1_555
C7_6 C2_6 1_555 1_555
C8_6 C6_6 1_555 1_555
O4_6 C7_6 1_555 1_555
O11 Cu5 1_555 1_555
Cu6_2 O4_6 1_555 1_555
O8 Cu5 1_555 1_555
O9_6 Cu5 1_555 1_555
C5_6 C7_6 1_555 1_555
C8_6 O11 1_555 1_555
C1_6 H2_6 1_555 1_555
C5_7 C6_7 1_555 1_555
C8_7 C6_7 1_555 1_555
O4_7 C7_7 1_555 1_555
O9_5 C8_7 1_555 1_555
C5_7 C7_7 1_555 1_555
C5_7 H1_7 1_555 1_555
Cu6_2 O3_7 1_555 1_555
C1_7 C2_7 1_555 1_555
C2_7 C4_7 1_555 1_555
C3_7 C1_7 1_555 1_555
C4_7 O2_7 1_555 1_555
O8_3 C3_7 1_555 1_555
O2_7 Cu8_2 1_555 1_555
C1_7 H2_7 1_555 1_555
C5_8 C6_8 1_555 1_555
C8_8 C6_8 1_555 1_555
O4_8 C7_8 1_555 1_555
O9_6 C8_8 1_555 1_555
Cu8_3 O4_8 1_555 1_555
C5_8 C7_8 1_555 1_555
C8_8 O12 1_555 1_555
C5_8 H1_8 1_555 1_555
C1_8 C2_8 1_555 1_555
C2_8 C4_8 1_555 1_555
C3_8 C1_8 1_555 1_555
C4_8 O2_8 1_555 1_555
O8 C3_8 1_555 1_555
O2_8 Cu8_3 1_555 1_555
O3_8 C4_8 1_555 1_555
Cu4_3 O3_8 1_555 1_555
Cu6_3 O3_8 1_555 1_555
C1_8 H2_8 1_555 1_555
C1_9 C2_9 1_555 1_555
C2_9 C4_9 1_555 1_555
C3_9 C1_9 1_555 1_555
C4_9 O2_9 1_555 1_555
O8_2 C3_9 1_555 1_555
O2_9 Cu8 1_555 1_555
C1_9 H2_9 1_555 1_555
C5_9 C6_9 1_555 1_555
C8_9 C6_9 1_555 1_555
O4_9 C7_9 1_555 1_555
O9_4 C8_9 1_555 1_555
C5_9 C7_9 1_555 1_555
C5_9 H1_9 1_555 1_555
Cu6 O3_9 1_555 1_555

#END
