
###############################################################################
#
# This file contains modified crystal structure data generated from the
# MOF subset of the Cambridge Structural Database (CSD) v543 
# hosted by the Cambridge Crystallographic Data Centre (CCDC).
#
# This work is licensed under the Creative Commons
# Attribution-NonCommercial-ShareAlike 4.0 International License.
# To view a copy of this license, visit
# http://creativecommons.org/licenses/by-nc-sa/4.0/
# or send a letter to
# Creative Commons, PO Box 1866, Mountain View, CA 94042, USA.
#
# CIF created using the CSD Python API on 29 September 2022
# The structure has been converted into the P1 space group
# The structure has a 3D framework
# The original CSD entry MOLLAD03 is in the rhombohedral crystal system
# The framework has been calculated to contain at least 10.0% void space
# The void calculation uses a probe of radius 1.32A, grid spacing 0.4
# H atom positions have been added when not included in the experimental data
#
###############################################################################

data_MOLLAD03
_chemical_formula_moiety         '(C72 H18 Cu7 O44)n'
_symmetry_cell_setting           triclinic
_symmetry_space_group_name_H-M   'P 1'
_symmetry_Int_Tables_number      1
_space_group_name_Hall           'P 1'
loop_
_symmetry_equiv_pos_site_id
_symmetry_equiv_pos_as_xyz
1 x,y,z
_cell_length_a                   25.9222(3)
_cell_length_b                   25.9222(3)
_cell_length_c                   6.28073(9)
_cell_angle_alpha                90
_cell_angle_beta                 90
_cell_angle_gamma                120
_cell_volume                     3654.98
loop_
_atom_site_label
_atom_site_type_symbol
_atom_site_fract_x
_atom_site_fract_y
_atom_site_fract_z
Cu7 Cu 0.31819(8) 0.37165(6) 0.0083(3)
Cu1 Cu 0.29502(6) 0.27988(6) 0.3416(3)
C1 C 0.1593(5) 0.3148(4) 0.127(2)
C2 C 0.1210(5) 0.3260(5) 0.194(2)
C3 C 0.2083(5) 0.3199(5) 0.2604(17)
C4 C 0.0797(5) 0.3244(6) 0.0255(19)
O1 O 0.2506(3) 0.3055(3) 0.1784(14)
O3 O 0.0515(3) 0.3551(3) 0.0700(11)
C5 C 0.1740(5) 0.3519(4) 0.540(2)
C6 C 0.2123(5) 0.3407(5) 0.473(2)
C7 C 0.1250(5) 0.3468(5) 0.4063(17)
C8 C 0.2536(5) 0.3423(6) 0.6412(19)
O4 O 0.0827(3) 0.3612(3) 0.4883(14)
O5 O 0.2672(3) 0.3744(3) 0.7862(13)
O6 O 0.2818(3) 0.3116(3) 0.5967(11)
Cu4 Cu 0.01514(8) 0.29502(6) 0.6584(3)
Cu5 Cu 0.38679(6) 0.34847(8) 0.6749(3)
Cu8 Cu 0.03831(6) 0.38679(6) 0.3251(3)
O7 O 0.3612(3) 0.2784(4) 0.5117(14)
O9 O 0.2923(3) 0.2262(4) 0.1195(13)
O12 O 0.3631(4) 0.3848(3) 0.2633(11)
H1 H 0.176756 0.366102 0.704425
O2 O 0.0661(3) 0.2923(3) 0.8805(13)
O8 O 0.3882(4) 0.4161(3) 0.8451(14)
O11 O 0.3551(3) 0.3036(4) 0.9300(11)
H2 H 0.156577 0.300565 0.962241
Cu6 Cu 0.94655(6) 0.31819(8) 0.9917(3)
Cu6_2 Cu 0.37165(10) 0.05345(6) 0.9917(3)
Cu7_2 Cu 0.05345(10) 0.68181(8) 0.0083(3)
C1_2 C 0.1555(6) 0.8407(5) 0.127(2)
C2_2 C 0.2050(7) 0.8790(5) 0.194(2)
C3_2 C 0.1116(7) 0.7917(5) 0.2604(17)
C4_2 C 0.2447(8) 0.9203(5) 0.0255(19)
O1_2 O 0.0549(4) 0.7494(3) 0.1784(14)
O3_2 O 0.3036(4) 0.9485(3) 0.0700(11)
C5_2 C 0.1778(6) 0.8260(5) 0.540(2)
C6_2 C 0.1283(7) 0.7877(5) 0.473(2)
C7_2 C 0.2217(7) 0.8750(5) 0.4063(17)
C8_2 C 0.0886(8) 0.7464(5) 0.6412(19)
O4_2 O 0.2784(4) 0.9173(3) 0.4883(14)
O5_2 O 0.1071(4) 0.7328(3) 0.7862(13)
O6_2 O 0.0297(4) 0.7182(3) 0.5967(11)
Cu4_2 Cu 0.27988(10) 0.98486(8) 0.6584(3)
Cu8_2 Cu 0.34847(8) 0.96169(6) 0.3251(3)
O12_2 O 0.0218(5) 0.6369(4) 0.2633(11)
H1_2 H 0.189345 0.823244 0.704425
O2_2 O 0.2262(4) 0.9339(3) 0.8805(13)
O8_2 O 0.0278(5) 0.6118(4) 0.8451(14)
H2_2 H 0.143988 0.843423 0.962241
Cu1_2 Cu 0.98486(8) 0.70498(6) 0.3416(3)
Cu5_2 Cu 0.96169(10) 0.61321(6) 0.6749(3)
O7_2 O 0.9173(5) 0.6388(3) 0.5117(14)
O9_2 O 0.9339(5) 0.7077(3) 0.1195(13)
O11_2 O 0.9485(5) 0.6449(3) 0.9300(11)
Cu1_3 Cu 0.72012(6) 0.01514(8) 0.3416(3)
Cu5_3 Cu 0.65153(8) 0.03831(10) 0.6749(3)
O7_3 O 0.7216(4) 0.0827(5) 0.5117(14)
O9_3 O 0.7738(4) 0.0661(5) 0.1195(13)
O11_3 O 0.6964(4) 0.0515(5) 0.9300(11)
Cu7_3 Cu 0.62835(6) 0.94655(10) 0.0083(3)
C1_3 C 0.6852(4) 0.8445(6) 0.127(2)
C2_3 C 0.6740(5) 0.7950(7) 0.194(2)
C3_3 C 0.6801(5) 0.8884(7) 0.2604(17)
C4_3 C 0.6756(6) 0.7553(8) 0.0255(19)
O1_3 O 0.6945(3) 0.9451(4) 0.1784(14)
O3_3 O 0.6449(3) 0.6964(4) 0.0700(11)
C5_3 C 0.6481(4) 0.8222(6) 0.540(2)
C6_3 C 0.6593(5) 0.8717(7) 0.473(2)
C7_3 C 0.6532(5) 0.7783(7) 0.4063(17)
C8_3 C 0.6577(6) 0.9114(8) 0.6412(19)
O4_3 O 0.6388(3) 0.7216(4) 0.4883(14)
O5_3 O 0.6256(3) 0.8929(4) 0.7862(13)
O6_3 O 0.6884(3) 0.9703(4) 0.5967(11)
Cu4_3 Cu 0.70498(6) 0.72012(10) 0.6584(3)
Cu8_3 Cu 0.61321(6) 0.65153(8) 0.3251(3)
O12_3 O 0.6152(3) 0.9782(5) 0.2633(11)
H1_3 H 0.633898 0.810655 0.704425
O2_3 O 0.7077(3) 0.7738(4) 0.8805(13)
Cu6_3 Cu 0.68181(8) 0.62835(10) 0.9917(3)
O8_3 O 0.5839(3) 0.9722(5) 0.8451(14)
H2_3 H 0.699435 0.856012 0.962241
H1_4 H 0.843423 0.699435 0.0377587
C1_4 C 0.8260(5) 0.6481(4) 0.460(2)
C2_4 C 0.7877(5) 0.6593(5) 0.527(2)
C3_4 C 0.8750(5) 0.6532(5) 0.5937(17)
C4_4 C 0.7464(5) 0.6577(6) 0.3588(19)
O2_4 O 0.7328(3) 0.6256(3) 0.2138(13)
O3_4 O 0.7182(3) 0.6884(3) 0.4033(11)
C5_4 C 0.8407(5) 0.6852(4) 0.873(2)
C6_4 C 0.8790(5) 0.6740(5) 0.806(2)
C7_4 C 0.7917(5) 0.6801(5) 0.7396(17)
C8_4 C 0.9203(5) 0.6756(6) 0.9745(19)
O4_4 O 0.7494(3) 0.6945(3) 0.8216(14)
O9_4 O 0.9590(3) 0.5595(4) 0.4528(13)
H2_4 H 0.823244 0.633898 0.295575
H1_5 H 0.856012 0.156577 0.0377587
C1_5 C 0.8222(6) 0.1740(5) 0.460(2)
C2_5 C 0.8717(7) 0.2123(5) 0.527(2)
C3_5 C 0.7783(7) 0.1250(5) 0.5937(17)
C4_5 C 0.9114(8) 0.2536(5) 0.3588(19)
O2_5 O 0.8929(4) 0.2672(3) 0.2138(13)
O3_5 O 0.9703(4) 0.2818(3) 0.4033(11)
C5_5 C 0.8445(6) 0.1593(5) 0.873(2)
C6_5 C 0.7950(7) 0.1210(5) 0.806(2)
C7_5 C 0.8884(7) 0.2083(5) 0.7396(17)
C8_5 C 0.7553(8) 0.0797(5) 0.9745(19)
O4_5 O 0.9451(4) 0.2506(3) 0.8216(14)
O9_5 O 0.6006(5) 0.0410(3) 0.4528(13)
H2_5 H 0.810655 0.176756 0.295575
H1_6 H 0.300565 0.143988 0.0377587
C1_6 C 0.3519(4) 0.1778(6) 0.460(2)
C2_6 C 0.3407(5) 0.1283(7) 0.527(2)
C3_6 C 0.3468(5) 0.2217(7) 0.5937(17)
C4_6 C 0.3423(6) 0.0886(8) 0.3588(19)
O2_6 O 0.3744(3) 0.1071(4) 0.2138(13)
O3_6 O 0.3116(3) 0.0297(4) 0.4033(11)
C5_6 C 0.3148(4) 0.1555(6) 0.873(2)
C6_6 C 0.3260(5) 0.2050(7) 0.806(2)
C7_6 C 0.3199(5) 0.1116(7) 0.7396(17)
C8_6 C 0.3244(6) 0.2447(8) 0.9745(19)
O4_6 O 0.3055(3) 0.0549(4) 0.8216(14)
O9_6 O 0.4405(4) 0.3994(5) 0.4528(13)
H2_6 H 0.366102 0.189345 0.295575
C5_7 C 0.5074(5) 0.0185(4) 0.206(2)
C6_7 C 0.5457(5) 0.0073(5) 0.139(2)
C7_7 C 0.4584(5) 0.0134(5) 0.0729(17)
C8_7 C 0.5870(5) 0.0089(6) 0.3078(19)
O4_7 O 0.4161(3) 0.0278(3) 0.1549(14)
H1_7 H 0.51009 0.0327684 0.371092
O3_7 O 0.3848(3) 0.0218(3) 0.7367(11)
C1_7 C 0.4926(5) 0.9815(4) 0.794(2)
C2_7 C 0.4543(5) 0.9927(5) 0.861(2)
C3_7 C 0.5416(5) 0.9866(5) 0.9271(17)
C4_7 C 0.4130(5) 0.9911(6) 0.6922(19)
O2_7 O 0.3994(3) 0.9590(3) 0.5472(13)
H2_7 H 0.48991 0.967232 0.628908
C5_8 C 0.5112(6) 0.4926(5) 0.206(2)
C6_8 C 0.4617(7) 0.4543(5) 0.139(2)
C7_8 C 0.5551(7) 0.5416(5) 0.0729(17)
C8_8 C 0.4220(8) 0.4130(5) 0.3078(19)
O4_8 O 0.6118(4) 0.5839(3) 0.1549(14)
H1_8 H 0.522679 0.48991 0.371092
C1_8 C 0.4888(6) 0.5074(5) 0.794(2)
C2_8 C 0.5383(7) 0.5457(5) 0.861(2)
C3_8 C 0.4449(7) 0.4584(5) 0.9271(17)
C4_8 C 0.5780(8) 0.5870(5) 0.6922(19)
O2_8 O 0.5595(4) 0.6006(3) 0.5472(13)
O3_8 O 0.6369(4) 0.6152(3) 0.7367(11)
H2_8 H 0.477321 0.51009 0.628908
C1_9 C 0.0185(4) 0.5112(6) 0.794(2)
C2_9 C 0.0073(5) 0.4617(7) 0.861(2)
C3_9 C 0.0134(5) 0.5551(7) 0.9271(17)
C4_9 C 0.0089(6) 0.4220(8) 0.6922(19)
O2_9 O 0.0410(3) 0.4405(4) 0.5472(13)
H2_9 H 0.0327684 0.522679 0.628908
C5_9 C 0.9815(4) 0.4888(6) 0.206(2)
C6_9 C 0.9927(5) 0.5383(7) 0.139(2)
C7_9 C 0.9866(5) 0.4449(7) 0.0729(17)
C8_9 C 0.9911(6) 0.5780(8) 0.3078(19)
O4_9 O 0.9722(3) 0.3882(4) 0.1549(14)
H1_9 H 0.967232 0.477321 0.371092
O3_9 O 0.9782(3) 0.3631(4) 0.7367(11)
loop_
_geom_bond_atom_site_label_1
_geom_bond_atom_site_label_2
_geom_bond_site_symmetry_1
_geom_bond_site_symmetry_2
Cu1 O1 1_555 1_555
C1 C2 1_555 1_555
C2 C4 1_555 1_555
C3 C1 1_555 1_555
O1 C3 1_555 1_555
O3 C4 1_555 1_555
C5 C6 1_555 1_555
C6 C3 1_555 1_555
C7 C2 1_555 1_555
C8 C6 1_555 1_555
O4 C7 1_555 1_555
O5 C8 1_555 1_555
O6 Cu1 1_555 1_555
Cu7 O1 1_555 1_555
Cu4 O4 1_555 1_555
Cu5 O6 1_555 1_555
Cu8 O3 1_555 1_555
O7 Cu1 1_555 1_555
O9 Cu1 1_555 1_555
O12 Cu1 1_555 1_555
C5 C7 1_555 1_555
C8 O6 1_555 1_555
O4 Cu8 1_555 1_555
Cu7 O12 1_555 1_555
Cu5 O7 1_555 1_555
C5 H1 1_555 1_555
O2 Cu4 1_555 1_555
C1_2 C2_2 1_555 1_555
C2_2 C4_2 1_555 1_555
C3_2 C1_2 1_555 1_555
O1_2 C3_2 1_555 1_555
O3_2 C4_2 1_555 1_555
C5_2 C6_2 1_555 1_555
C6_2 C3_2 1_555 1_555
C7_2 C2_2 1_555 1_555
C8_2 C6_2 1_555 1_555
O4_2 C7_2 1_555 1_555
O5_2 C8_2 1_555 1_555
Cu7_2 O1_2 1_555 1_555
Cu4_2 O4_2 1_555 1_555
Cu8_2 O3_2 1_555 1_555
C5_2 C7_2 1_555 1_555
C8_2 O6_2 1_555 1_555
O4_2 Cu8_2 1_555 1_555
Cu7_2 O12_2 1_555 1_555
C5_2 H1_2 1_555 1_555
O2_2 Cu4_2 1_555 1_555
O7_2 Cu1_2 1_555 1_555
O9_2 Cu1_2 1_555 1_555
Cu5_2 O7_2 1_555 1_555
O7_3 Cu1_3 1_555 1_555
O9_3 Cu1_3 1_555 1_555
Cu5_3 O7_3 1_555 1_555
C1_3 C2_3 1_555 1_555
C2_3 C4_3 1_555 1_555
C3_3 C1_3 1_555 1_555
O1_3 C3_3 1_555 1_555
O3_3 C4_3 1_555 1_555
C5_3 C6_3 1_555 1_555
C6_3 C3_3 1_555 1_555
C7_3 C2_3 1_555 1_555
C8_3 C6_3 1_555 1_555
O4_3 C7_3 1_555 1_555
O5_3 C8_3 1_555 1_555
Cu7_3 O1_3 1_555 1_555
Cu4_3 O4_3 1_555 1_555
Cu8_3 O3_3 1_555 1_555
C5_3 C7_3 1_555 1_555
C8_3 O6_3 1_555 1_555
O4_3 Cu8_3 1_555 1_555
Cu7_3 O12_3 1_555 1_555
C5_3 H1_3 1_555 1_555
O2_3 Cu4_3 1_555 1_555
C1_4 C2_4 1_555 1_555
C2_4 C4_4 1_555 1_555
C3_4 C1_4 1_555 1_555
C4_4 O2_4 1_555 1_555
O7_2 C3_4 1_555 1_555
O3_4 C4_4 1_555 1_555
C5_4 C6_4 1_555 1_555
C6_4 C3_4 1_555 1_555
C7_4 C2_4 1_555 1_555
C8_4 C6_4 1_555 1_555
O4_4 C7_4 1_555 1_555
O11_2 Cu5_2 1_555 1_555
Cu6_3 O4_4 1_555 1_555
Cu8_3 O3_4 1_555 1_555
Cu4_3 O3_4 1_555 1_555
O9_4 Cu5_2 1_555 1_555
C5_4 C7_4 1_555 1_555
C8_4 O11_2 1_555 1_555
O4_4 Cu4_3 1_555 1_555
C1_4 H2_4 1_555 1_555
C1_5 C2_5 1_555 1_555
C2_5 C4_5 1_555 1_555
C3_5 C1_5 1_555 1_555
C4_5 O2_5 1_555 1_555
O7_3 C3_5 1_555 1_555
O3_5 C4_5 1_555 1_555
C5_5 C6_5 1_555 1_555
C6_5 C3_5 1_555 1_555
C7_5 C2_5 1_555 1_555
C8_5 C6_5 1_555 1_555
O4_5 C7_5 1_555 1_555
O11_3 Cu5_3 1_555 1_555
Cu6 O4_5 1_555 1_555
O9_5 Cu5_3 1_555 1_555
C5_5 C7_5 1_555 1_555
C8_5 O11_3 1_555 1_555
C1_5 H2_5 1_555 1_555
C1_6 C2_6 1_555 1_555
C2_6 C4_6 1_555 1_555
C3_6 C1_6 1_555 1_555
C4_6 O2_6 1_555 1_555
O7 C3_6 1_555 1_555
O3_6 C4_6 1_555 1_555
C5_6 C6_6 1_555 1_555
C6_6 C3_6 1_555 1_555
C7_6 C2_6 1_555 1_555
C8_6 C6_6 1_555 1_555
O4_6 C7_6 1_555 1_555
O11 Cu5 1_555 1_555
Cu6_2 O4_6 1_555 1_555
O8 Cu5 1_555 1_555
O9_6 Cu5 1_555 1_555
C5_6 C7_6 1_555 1_555
C8_6 O11 1_555 1_555
C1_6 H2_6 1_555 1_555
C5_7 C6_7 1_555 1_555
C8_7 C6_7 1_555 1_555
O4_7 C7_7 1_555 1_555
O9_5 C8_7 1_555 1_555
C5_7 C7_7 1_555 1_555
C5_7 H1_7 1_555 1_555
Cu6_2 O3_7 1_555 1_555
C1_7 C2_7 1_555 1_555
C2_7 C4_7 1_555 1_555
C3_7 C1_7 1_555 1_555
C4_7 O2_7 1_555 1_555
O8_3 C3_7 1_555 1_555
O2_7 Cu8_2 1_555 1_555
C1_7 H2_7 1_555 1_555
C5_8 C6_8 1_555 1_555
C8_8 C6_8 1_555 1_555
O4_8 C7_8 1_555 1_555
O9_6 C8_8 1_555 1_555
Cu8_3 O4_8 1_555 1_555
C5_8 C7_8 1_555 1_555
C8_8 O12 1_555 1_555
C5_8 H1_8 1_555 1_555
C1_8 C2_8 1_555 1_555
C2_8 C4_8 1_555 1_555
C3_8 C1_8 1_555 1_555
C4_8 O2_8 1_555 1_555
O8 C3_8 1_555 1_555
O2_8 Cu8_3 1_555 1_555
O3_8 C4_8 1_555 1_555
Cu4_3 O3_8 1_555 1_555
Cu6_3 O3_8 1_555 1_555
C1_8 H2_8 1_555 1_555
C1_9 C2_9 1_555 1_555
C2_9 C4_9 1_555 1_555
C3_9 C1_9 1_555 1_555
C4_9 O2_9 1_555 1_555
O8_2 C3_9 1_555 1_555
O2_9 Cu8 1_555 1_555
C1_9 H2_9 1_555 1_555
C5_9 C6_9 1_555 1_555
C8_9 C6_9 1_555 1_555
O4_9 C7_9 1_555 1_555
O9_4 C8_9 1_555 1_555
C5_9 C7_9 1_555 1_555
C5_9 H1_9 1_555 1_555
Cu6 O3_9 1_555 1_555

#END
