
###############################################################################
#
# This file contains modified crystal structure data generated from the
# MOF subset of the Cambridge Structural Database (CSD) v543 
# hosted by the Cambridge Crystallographic Data Centre (CCDC).
#
# This work is licensed under the Creative Commons
# Attribution-NonCommercial-ShareAlike 4.0 International License.
# To view a copy of this license, visit
# http://creativecommons.org/licenses/by-nc-sa/4.0/
# or send a letter to
# Creative Commons, PO Box 1866, Mountain View, CA 94042, USA.
#
# CIF created using the CSD Python API on 29 September 2022
# The structure has been converted into the P1 space group
# The structure has a 3D framework
# The original CSD entry MOLLAD08 is in the rhombohedral crystal system
# The framework has been calculated to contain at least 10.0% void space
# The void calculation uses a probe of radius 1.32A, grid spacing 0.4
# H atom positions have been added when not included in the experimental data
#
###############################################################################

data_MOLLAD08
_chemical_formula_moiety         '(C72 H18 Cu7 O44)n'
_symmetry_cell_setting           triclinic
_symmetry_space_group_name_H-M   'P 1'
_symmetry_Int_Tables_number      1
_space_group_name_Hall           'P 1'
loop_
_symmetry_equiv_pos_site_id
_symmetry_equiv_pos_as_xyz
1 x,y,z
_cell_length_a                   25.9228(3)
_cell_length_b                   25.9228(3)
_cell_length_c                   6.27910(9)
_cell_angle_alpha                90
_cell_angle_beta                 90
_cell_angle_gamma                120
_cell_volume                     3654.2
loop_
_atom_site_label
_atom_site_type_symbol
_atom_site_fract_x
_atom_site_fract_y
_atom_site_fract_z
Cu7 Cu 0.31817(8) 0.37166(6) 0.0084(3)
Cu1 Cu 0.29501(6) 0.27985(6) 0.3417(3)
C1 C 0.1595(5) 0.3149(4) 0.127(2)
C2 C 0.1209(5) 0.3259(5) 0.194(2)
C3 C 0.2084(5) 0.3198(5) 0.2604(17)
C4 C 0.0796(5) 0.3245(6) 0.0252(19)
O1 O 0.2509(3) 0.3057(3) 0.1784(13)
O3 O 0.0515(3) 0.3551(3) 0.0698(11)
C5 C 0.1738(5) 0.3518(4) 0.540(2)
C6 C 0.2124(5) 0.3408(5) 0.473(2)
C7 C 0.1249(5) 0.3469(5) 0.4063(17)
C8 C 0.2537(5) 0.3422(6) 0.6415(19)
O4 O 0.0824(3) 0.3610(3) 0.4883(13)
O5 O 0.2674(3) 0.3746(3) 0.7883(13)
O6 O 0.2818(3) 0.3116(3) 0.5969(11)
Cu4 Cu 0.01516(8) 0.29501(6) 0.6583(3)
Cu5 Cu 0.38682(6) 0.34849(8) 0.6750(3)
Cu8 Cu 0.03832(6) 0.38682(6) 0.3250(3)
O7 O 0.3610(3) 0.2785(4) 0.5117(13)
O9 O 0.2921(3) 0.2262(4) 0.1216(13)
O12 O 0.3631(4) 0.3848(3) 0.2635(11)
H2 H 0.176333 0.365678 0.704793
O2 O 0.0659(3) 0.2921(3) 0.8784(13)
O8 O 0.3881(4) 0.4158(3) 0.8451(13)
O11 O 0.3551(3) 0.3036(4) 0.9302(11)
H1 H 0.157001 0.300989 0.961874
Cu6 Cu 0.94652(6) 0.31817(8) 0.9916(3)
Cu6_2 Cu 0.37166(10) 0.05348(6) 0.9916(3)
Cu7_2 Cu 0.05348(10) 0.68183(8) 0.0084(3)
C1_2 C 0.1554(6) 0.8405(5) 0.127(2)
C2_2 C 0.2050(7) 0.8791(5) 0.194(2)
C3_2 C 0.1114(7) 0.7916(5) 0.2604(17)
C4_2 C 0.2449(8) 0.9204(5) 0.0252(19)
O1_2 O 0.0548(4) 0.7491(3) 0.1784(13)
O3_2 O 0.3036(4) 0.9485(3) 0.0698(11)
C5_2 C 0.1779(6) 0.8262(5) 0.540(2)
C6_2 C 0.1283(7) 0.7876(5) 0.473(2)
C7_2 C 0.2219(7) 0.8751(5) 0.4063(17)
C8_2 C 0.0884(8) 0.7463(5) 0.6415(19)
O4_2 O 0.2785(4) 0.9176(3) 0.4883(13)
O5_2 O 0.1071(4) 0.7326(3) 0.7883(13)
O6_2 O 0.0297(4) 0.7182(3) 0.5969(11)
Cu4_2 Cu 0.27985(10) 0.98484(8) 0.6583(3)
Cu8_2 Cu 0.34849(8) 0.96168(6) 0.3250(3)
O12_2 O 0.0218(5) 0.6369(4) 0.2635(11)
H2_2 H 0.189345 0.823667 0.704793
O2_2 O 0.2262(4) 0.9341(3) 0.8784(13)
O8_2 O 0.0276(5) 0.6119(4) 0.8451(13)
H1_2 H 0.143989 0.842999 0.961874
Cu1_2 Cu 0.98484(8) 0.70499(6) 0.3417(3)
Cu5_2 Cu 0.96168(10) 0.61318(6) 0.6750(3)
O7_2 O 0.9176(5) 0.6390(3) 0.5117(13)
O9_2 O 0.9341(5) 0.7079(3) 0.1216(13)
O11_2 O 0.9485(5) 0.6449(3) 0.9302(11)
Cu1_3 Cu 0.72015(6) 0.01516(8) 0.3417(3)
Cu5_3 Cu 0.65151(8) 0.03832(10) 0.6750(3)
O7_3 O 0.7215(4) 0.0824(5) 0.5117(13)
O9_3 O 0.7738(4) 0.0659(5) 0.1216(13)
O11_3 O 0.6964(4) 0.0515(5) 0.9302(11)
Cu7_3 Cu 0.62834(6) 0.94652(10) 0.0084(3)
C1_3 C 0.6851(4) 0.8446(6) 0.127(2)
C2_3 C 0.6741(5) 0.7950(7) 0.194(2)
C3_3 C 0.6802(5) 0.8886(7) 0.2604(17)
C4_3 C 0.6755(6) 0.7551(8) 0.0252(19)
O1_3 O 0.6943(3) 0.9452(4) 0.1784(13)
O3_3 O 0.6449(3) 0.6964(4) 0.0698(11)
C5_3 C 0.6482(4) 0.8221(6) 0.540(2)
C6_3 C 0.6592(5) 0.8717(7) 0.473(2)
C7_3 C 0.6531(5) 0.7781(7) 0.4063(17)
C8_3 C 0.6578(6) 0.9116(8) 0.6415(19)
O4_3 O 0.6390(3) 0.7215(4) 0.4883(13)
O5_3 O 0.6254(3) 0.8929(4) 0.7883(13)
O6_3 O 0.6884(3) 0.9703(4) 0.5969(11)
Cu4_3 Cu 0.70499(6) 0.72015(10) 0.6583(3)
Cu8_3 Cu 0.61318(6) 0.65151(8) 0.3250(3)
O12_3 O 0.6152(3) 0.9782(5) 0.2635(11)
H2_3 H 0.634322 0.810655 0.704793
O2_3 O 0.7079(3) 0.7738(4) 0.8784(13)
Cu6_3 Cu 0.68183(8) 0.62834(10) 0.9916(3)
O8_3 O 0.5842(3) 0.9724(5) 0.8451(13)
H1_3 H 0.699011 0.856011 0.961874
H2_4 H 0.842999 0.699011 0.0381265
C1_4 C 0.8262(5) 0.6482(4) 0.460(2)
C2_4 C 0.7876(5) 0.6592(5) 0.527(2)
C3_4 C 0.8751(5) 0.6531(5) 0.5937(17)
C4_4 C 0.7463(5) 0.6578(6) 0.3585(19)
O2_4 O 0.7326(3) 0.6254(3) 0.2117(13)
O3_4 O 0.7182(3) 0.6884(3) 0.4031(11)
C5_4 C 0.8405(5) 0.6851(4) 0.873(2)
C6_4 C 0.8791(5) 0.6741(5) 0.806(2)
C7_4 C 0.7916(5) 0.6802(5) 0.7396(17)
C8_4 C 0.9204(5) 0.6755(6) 0.9748(19)
O4_4 O 0.7491(3) 0.6943(3) 0.8216(13)
O9_4 O 0.9588(3) 0.5595(4) 0.4549(13)
H1_4 H 0.823667 0.634322 0.295207
H2_5 H 0.856011 0.157001 0.0381265
C1_5 C 0.8221(6) 0.1738(5) 0.460(2)
C2_5 C 0.8717(7) 0.2124(5) 0.527(2)
C3_5 C 0.7781(7) 0.1249(5) 0.5937(17)
C4_5 C 0.9116(8) 0.2537(5) 0.3585(19)
O2_5 O 0.8929(4) 0.2674(3) 0.2117(13)
O3_5 O 0.9703(4) 0.2818(3) 0.4031(11)
C5_5 C 0.8446(6) 0.1595(5) 0.873(2)
C6_5 C 0.7950(7) 0.1209(5) 0.806(2)
C7_5 C 0.8886(7) 0.2084(5) 0.7396(17)
C8_5 C 0.7551(8) 0.0796(5) 0.9748(19)
O4_5 O 0.9452(4) 0.2509(3) 0.8216(13)
O9_5 O 0.6008(5) 0.0412(3) 0.4549(13)
H1_5 H 0.810655 0.176333 0.295207
H2_6 H 0.300989 0.143989 0.0381265
C1_6 C 0.3518(4) 0.1779(6) 0.460(2)
C2_6 C 0.3408(5) 0.1283(7) 0.527(2)
C3_6 C 0.3469(5) 0.2219(7) 0.5937(17)
C4_6 C 0.3422(6) 0.0884(8) 0.3585(19)
O2_6 O 0.3746(3) 0.1071(4) 0.2117(13)
O3_6 O 0.3116(3) 0.0297(4) 0.4031(11)
C5_6 C 0.3149(4) 0.1554(6) 0.873(2)
C6_6 C 0.3259(5) 0.2050(7) 0.806(2)
C7_6 C 0.3198(5) 0.1114(7) 0.7396(17)
C8_6 C 0.3245(6) 0.2449(8) 0.9748(19)
O4_6 O 0.3057(3) 0.0548(4) 0.8216(13)
O9_6 O 0.4405(4) 0.3992(5) 0.4549(13)
H1_6 H 0.365678 0.189345 0.295207
C5_7 C 0.5072(5) 0.0184(4) 0.206(2)
C6_7 C 0.5458(5) 0.0074(5) 0.139(2)
C7_7 C 0.4583(5) 0.0135(5) 0.0729(17)
C8_7 C 0.5871(5) 0.0088(6) 0.3081(19)
O4_7 O 0.4158(3) 0.0276(3) 0.1549(13)
H2_7 H 0.509666 0.0323442 0.37146
O3_7 O 0.3848(3) 0.0218(3) 0.7365(11)
C1_7 C 0.4928(5) 0.9816(4) 0.794(2)
C2_7 C 0.4542(5) 0.9926(5) 0.861(2)
C3_7 C 0.5417(5) 0.9865(5) 0.9271(17)
C4_7 C 0.4129(5) 0.9912(6) 0.6919(19)
O2_7 O 0.3992(3) 0.9588(3) 0.5451(13)
H1_7 H 0.490334 0.967656 0.62854
C5_8 C 0.5113(6) 0.4928(5) 0.206(2)
C6_8 C 0.4617(7) 0.4542(5) 0.139(2)
C7_8 C 0.5553(7) 0.5417(5) 0.0729(17)
C8_8 C 0.4218(8) 0.4129(5) 0.3081(19)
O4_8 O 0.6119(4) 0.5842(3) 0.1549(13)
H2_8 H 0.522678 0.490334 0.37146
C1_8 C 0.4887(6) 0.5072(5) 0.794(2)
C2_8 C 0.5383(7) 0.5458(5) 0.861(2)
C3_8 C 0.4447(7) 0.4583(5) 0.9271(17)
C4_8 C 0.5782(8) 0.5871(5) 0.6919(19)
O2_8 O 0.5595(4) 0.6008(3) 0.5451(13)
O3_8 O 0.6369(4) 0.6152(3) 0.7365(11)
H1_8 H 0.477322 0.509666 0.62854
C1_9 C 0.0184(4) 0.5113(6) 0.794(2)
C2_9 C 0.0074(5) 0.4617(7) 0.861(2)
C3_9 C 0.0135(5) 0.5553(7) 0.9271(17)
C4_9 C 0.0088(6) 0.4218(8) 0.6919(19)
O2_9 O 0.0412(3) 0.4405(4) 0.5451(13)
H1_9 H 0.0323442 0.522678 0.62854
C5_9 C 0.9816(4) 0.4887(6) 0.206(2)
C6_9 C 0.9926(5) 0.5383(7) 0.139(2)
C7_9 C 0.9865(5) 0.4447(7) 0.0729(17)
C8_9 C 0.9912(6) 0.5782(8) 0.3081(19)
O4_9 O 0.9724(3) 0.3881(4) 0.1549(13)
H2_9 H 0.967656 0.477322 0.37146
O3_9 O 0.9782(3) 0.3631(4) 0.7365(11)
loop_
_geom_bond_atom_site_label_1
_geom_bond_atom_site_label_2
_geom_bond_site_symmetry_1
_geom_bond_site_symmetry_2
Cu1 O1 1_555 1_555
C1 C2 1_555 1_555
C2 C4 1_555 1_555
C3 C1 1_555 1_555
O1 C3 1_555 1_555
O3 C4 1_555 1_555
C5 C6 1_555 1_555
C6 C3 1_555 1_555
C7 C2 1_555 1_555
C8 C6 1_555 1_555
O4 C7 1_555 1_555
O5 C8 1_555 1_555
O6 Cu1 1_555 1_555
Cu7 O1 1_555 1_555
Cu4 O4 1_555 1_555
Cu5 O6 1_555 1_555
Cu8 O3 1_555 1_555
O7 Cu1 1_555 1_555
O9 Cu1 1_555 1_555
O12 Cu1 1_555 1_555
C5 C7 1_555 1_555
C8 O6 1_555 1_555
O4 Cu8 1_555 1_555
Cu7 O12 1_555 1_555
Cu5 O7 1_555 1_555
C5 H2 1_555 1_555
O2 Cu4 1_555 1_555
C1_2 C2_2 1_555 1_555
C2_2 C4_2 1_555 1_555
C3_2 C1_2 1_555 1_555
O1_2 C3_2 1_555 1_555
O3_2 C4_2 1_555 1_555
C5_2 C6_2 1_555 1_555
C6_2 C3_2 1_555 1_555
C7_2 C2_2 1_555 1_555
C8_2 C6_2 1_555 1_555
O4_2 C7_2 1_555 1_555
O5_2 C8_2 1_555 1_555
Cu7_2 O1_2 1_555 1_555
Cu4_2 O4_2 1_555 1_555
Cu8_2 O3_2 1_555 1_555
C5_2 C7_2 1_555 1_555
C8_2 O6_2 1_555 1_555
O4_2 Cu8_2 1_555 1_555
Cu7_2 O12_2 1_555 1_555
C5_2 H2_2 1_555 1_555
O2_2 Cu4_2 1_555 1_555
O7_2 Cu1_2 1_555 1_555
O9_2 Cu1_2 1_555 1_555
Cu5_2 O7_2 1_555 1_555
O7_3 Cu1_3 1_555 1_555
O9_3 Cu1_3 1_555 1_555
Cu5_3 O7_3 1_555 1_555
C1_3 C2_3 1_555 1_555
C2_3 C4_3 1_555 1_555
C3_3 C1_3 1_555 1_555
O1_3 C3_3 1_555 1_555
O3_3 C4_3 1_555 1_555
C5_3 C6_3 1_555 1_555
C6_3 C3_3 1_555 1_555
C7_3 C2_3 1_555 1_555
C8_3 C6_3 1_555 1_555
O4_3 C7_3 1_555 1_555
O5_3 C8_3 1_555 1_555
Cu7_3 O1_3 1_555 1_555
Cu4_3 O4_3 1_555 1_555
Cu8_3 O3_3 1_555 1_555
C5_3 C7_3 1_555 1_555
C8_3 O6_3 1_555 1_555
O4_3 Cu8_3 1_555 1_555
Cu7_3 O12_3 1_555 1_555
C5_3 H2_3 1_555 1_555
O2_3 Cu4_3 1_555 1_555
C1_4 C2_4 1_555 1_555
C2_4 C4_4 1_555 1_555
C3_4 C1_4 1_555 1_555
C4_4 O2_4 1_555 1_555
O7_2 C3_4 1_555 1_555
O3_4 C4_4 1_555 1_555
C5_4 C6_4 1_555 1_555
C6_4 C3_4 1_555 1_555
C7_4 C2_4 1_555 1_555
C8_4 C6_4 1_555 1_555
O4_4 C7_4 1_555 1_555
O11_2 Cu5_2 1_555 1_555
Cu6_3 O4_4 1_555 1_555
Cu8_3 O3_4 1_555 1_555
Cu4_3 O3_4 1_555 1_555
O9_4 Cu5_2 1_555 1_555
C5_4 C7_4 1_555 1_555
C8_4 O11_2 1_555 1_555
O4_4 Cu4_3 1_555 1_555
C1_4 H1_4 1_555 1_555
C1_5 C2_5 1_555 1_555
C2_5 C4_5 1_555 1_555
C3_5 C1_5 1_555 1_555
C4_5 O2_5 1_555 1_555
O7_3 C3_5 1_555 1_555
O3_5 C4_5 1_555 1_555
C5_5 C6_5 1_555 1_555
C6_5 C3_5 1_555 1_555
C7_5 C2_5 1_555 1_555
C8_5 C6_5 1_555 1_555
O4_5 C7_5 1_555 1_555
O11_3 Cu5_3 1_555 1_555
Cu6 O4_5 1_555 1_555
O9_5 Cu5_3 1_555 1_555
C5_5 C7_5 1_555 1_555
C8_5 O11_3 1_555 1_555
C1_5 H1_5 1_555 1_555
C1_6 C2_6 1_555 1_555
C2_6 C4_6 1_555 1_555
C3_6 C1_6 1_555 1_555
C4_6 O2_6 1_555 1_555
O7 C3_6 1_555 1_555
O3_6 C4_6 1_555 1_555
C5_6 C6_6 1_555 1_555
C6_6 C3_6 1_555 1_555
C7_6 C2_6 1_555 1_555
C8_6 C6_6 1_555 1_555
O4_6 C7_6 1_555 1_555
O11 Cu5 1_555 1_555
Cu6_2 O4_6 1_555 1_555
O8 Cu5 1_555 1_555
O9_6 Cu5 1_555 1_555
C5_6 C7_6 1_555 1_555
C8_6 O11 1_555 1_555
C1_6 H1_6 1_555 1_555
C5_7 C6_7 1_555 1_555
C8_7 C6_7 1_555 1_555
O4_7 C7_7 1_555 1_555
O9_5 C8_7 1_555 1_555
C5_7 C7_7 1_555 1_555
C5_7 H2_7 1_555 1_555
Cu6_2 O3_7 1_555 1_555
C1_7 C2_7 1_555 1_555
C2_7 C4_7 1_555 1_555
C3_7 C1_7 1_555 1_555
C4_7 O2_7 1_555 1_555
O8_3 C3_7 1_555 1_555
O2_7 Cu8_2 1_555 1_555
C1_7 H1_7 1_555 1_555
C5_8 C6_8 1_555 1_555
C8_8 C6_8 1_555 1_555
O4_8 C7_8 1_555 1_555
O9_6 C8_8 1_555 1_555
Cu8_3 O4_8 1_555 1_555
C5_8 C7_8 1_555 1_555
C8_8 O12 1_555 1_555
C5_8 H2_8 1_555 1_555
C1_8 C2_8 1_555 1_555
C2_8 C4_8 1_555 1_555
C3_8 C1_8 1_555 1_555
C4_8 O2_8 1_555 1_555
O8 C3_8 1_555 1_555
O2_8 Cu8_3 1_555 1_555
O3_8 C4_8 1_555 1_555
Cu4_3 O3_8 1_555 1_555
Cu6_3 O3_8 1_555 1_555
C1_8 H1_8 1_555 1_555
C1_9 C2_9 1_555 1_555
C2_9 C4_9 1_555 1_555
C3_9 C1_9 1_555 1_555
C4_9 O2_9 1_555 1_555
O8_2 C3_9 1_555 1_555
O2_9 Cu8 1_555 1_555
C1_9 H1_9 1_555 1_555
C5_9 C6_9 1_555 1_555
C8_9 C6_9 1_555 1_555
O4_9 C7_9 1_555 1_555
O9_4 C8_9 1_555 1_555
C5_9 C7_9 1_555 1_555
C5_9 H2_9 1_555 1_555
Cu6 O3_9 1_555 1_555

#END
