
###############################################################################
#
# This file contains modified crystal structure data generated from the
# MOF subset of the Cambridge Structural Database (CSD) v543 
# hosted by the Cambridge Crystallographic Data Centre (CCDC).
#
# This work is licensed under the Creative Commons
# Attribution-NonCommercial-ShareAlike 4.0 International License.
# To view a copy of this license, visit
# http://creativecommons.org/licenses/by-nc-sa/4.0/
# or send a letter to
# Creative Commons, PO Box 1866, Mountain View, CA 94042, USA.
#
# CIF created using the CSD Python API on 29 September 2022
# The structure has been converted into the P1 space group
# The structure has a 3D framework
# The original CSD entry MOLLAD14 is in the rhombohedral crystal system
# The framework has been calculated to contain at least 10.0% void space
# The void calculation uses a probe of radius 1.32A, grid spacing 0.4
# H atom positions have been added when not included in the experimental data
#
###############################################################################

data_MOLLAD14
_chemical_formula_moiety         '(C72 H18 Cu7 O44)n'
_symmetry_cell_setting           triclinic
_symmetry_space_group_name_H-M   'P 1'
_symmetry_Int_Tables_number      1
_space_group_name_Hall           'P 1'
loop_
_symmetry_equiv_pos_site_id
_symmetry_equiv_pos_as_xyz
1 x,y,z
_cell_length_a                   25.9233(3)
_cell_length_b                   25.9233(3)
_cell_length_c                   6.27764(9)
_cell_angle_alpha                90
_cell_angle_beta                 90
_cell_angle_gamma                120
_cell_volume                     3653.49
loop_
_atom_site_label
_atom_site_type_symbol
_atom_site_fract_x
_atom_site_fract_y
_atom_site_fract_z
Cu7 Cu 0.31816(8) 0.37167(6) 0.0086(3)
Cu1 Cu 0.29500(6) 0.27983(6) 0.3419(3)
C1 C 0.1596(5) 0.3150(4) 0.1264(19)
C2 C 0.1209(5) 0.3260(5) 0.194(2)
C3 C 0.2084(5) 0.3198(5) 0.2601(17)
C4 C 0.0796(5) 0.3245(6) 0.0250(19)
O1 O 0.2506(3) 0.3055(3) 0.1786(13)
O3 O 0.0515(3) 0.3549(3) 0.0696(10)
C5 C 0.1737(5) 0.3517(4) 0.5403(19)
C6 C 0.2124(5) 0.3407(5) 0.473(2)
C7 C 0.1249(5) 0.3469(5) 0.4066(17)
C8 C 0.2537(5) 0.3422(6) 0.6417(19)
O4 O 0.0827(3) 0.3612(3) 0.4881(13)
O5 O 0.2675(3) 0.3746(3) 0.7881(13)
O6 O 0.2818(3) 0.3118(3) 0.5971(10)
Cu4 Cu 0.01517(8) 0.29500(6) 0.6581(3)
Cu5 Cu 0.38684(6) 0.34850(8) 0.6752(3)
Cu8 Cu 0.03833(6) 0.38684(6) 0.3248(3)
O7 O 0.3612(3) 0.2784(4) 0.5119(13)
O9 O 0.2921(3) 0.2263(4) 0.1214(13)
O12 O 0.3633(4) 0.3848(3) 0.2637(10)
H1 H 0.176167 0.365435 0.705586
O2 O 0.0658(3) 0.2921(3) 0.8786(13)
O8 O 0.3882(4) 0.4161(3) 0.8453(13)
O11 O 0.3549(3) 0.3034(4) 0.9304(10)
H2 H 0.157166 0.301231 0.961081
Cu6 Cu 0.94650(6) 0.31816(8) 0.9914(3)
Cu6_2 Cu 0.37167(10) 0.05350(6) 0.9914(3)
Cu7_2 Cu 0.05350(10) 0.68184(8) 0.0086(3)
C1_2 C 0.1554(6) 0.8404(5) 0.1264(19)
C2_2 C 0.2051(7) 0.8791(5) 0.194(2)
C3_2 C 0.1114(7) 0.7916(5) 0.2601(17)
C4_2 C 0.2449(8) 0.9204(5) 0.0250(19)
O1_2 O 0.0549(4) 0.7494(3) 0.1786(13)
O3_2 O 0.3034(4) 0.9485(3) 0.0696(10)
C5_2 C 0.1779(6) 0.8263(5) 0.5403(19)
C6_2 C 0.1282(7) 0.7876(5) 0.473(2)
C7_2 C 0.2219(7) 0.8751(5) 0.4066(17)
C8_2 C 0.0884(8) 0.7463(5) 0.6417(19)
O4_2 O 0.2784(4) 0.9173(3) 0.4881(13)
O5_2 O 0.1070(4) 0.7325(3) 0.7881(13)
O6_2 O 0.0299(4) 0.7182(3) 0.5971(10)
Cu4_2 Cu 0.27983(10) 0.98483(8) 0.6581(3)
Cu8_2 Cu 0.34850(8) 0.96167(6) 0.3248(3)
O12_2 O 0.0216(5) 0.6367(4) 0.2637(10)
H1_2 H 0.189268 0.823833 0.705586
O2_2 O 0.2263(4) 0.9342(3) 0.8786(13)
O8_2 O 0.0278(5) 0.6118(4) 0.8453(13)
H2_2 H 0.144065 0.842834 0.961081
Cu1_2 Cu 0.98483(8) 0.70500(6) 0.3419(3)
Cu5_2 Cu 0.96167(10) 0.61316(6) 0.6752(3)
O7_2 O 0.9173(5) 0.6388(3) 0.5119(13)
O9_2 O 0.9342(5) 0.7079(3) 0.1214(13)
O11_2 O 0.9485(5) 0.6451(3) 0.9304(10)
Cu1_3 Cu 0.72017(6) 0.01517(8) 0.3419(3)
Cu5_3 Cu 0.65150(8) 0.03833(10) 0.6752(3)
O7_3 O 0.7216(4) 0.0827(5) 0.5119(13)
O9_3 O 0.7737(4) 0.0658(5) 0.1214(13)
O11_3 O 0.6966(4) 0.0515(5) 0.9304(10)
Cu7_3 Cu 0.62833(6) 0.94650(10) 0.0086(3)
C1_3 C 0.6850(4) 0.8446(6) 0.1264(19)
C2_3 C 0.6740(5) 0.7949(7) 0.194(2)
C3_3 C 0.6802(5) 0.8886(7) 0.2601(17)
C4_3 C 0.6755(6) 0.7551(8) 0.0250(19)
O1_3 O 0.6945(3) 0.9451(4) 0.1786(13)
O3_3 O 0.6451(3) 0.6966(4) 0.0696(10)
C5_3 C 0.6483(4) 0.8221(6) 0.5403(19)
C6_3 C 0.6593(5) 0.8718(7) 0.473(2)
C7_3 C 0.6531(5) 0.7781(7) 0.4066(17)
C8_3 C 0.6578(6) 0.9116(8) 0.6417(19)
O4_3 O 0.6388(3) 0.7216(4) 0.4881(13)
O5_3 O 0.6254(3) 0.8930(4) 0.7881(13)
O6_3 O 0.6882(3) 0.9701(4) 0.5971(10)
Cu4_3 Cu 0.70500(6) 0.72017(10) 0.6581(3)
Cu8_3 Cu 0.61316(6) 0.65150(8) 0.3248(3)
O12_3 O 0.6152(3) 0.9784(5) 0.2637(10)
H1_3 H 0.634565 0.810732 0.705586
O2_3 O 0.7079(3) 0.7737(4) 0.8786(13)
Cu6_3 Cu 0.68184(8) 0.62833(10) 0.9914(3)
O8_3 O 0.5839(3) 0.9722(5) 0.8453(13)
H2_3 H 0.698769 0.855935 0.961081
H1_4 H 0.842834 0.698769 0.0389195
C1_4 C 0.8263(5) 0.6483(4) 0.4597(19)
C2_4 C 0.7876(5) 0.6593(5) 0.527(2)
C3_4 C 0.8751(5) 0.6531(5) 0.5934(17)
C4_4 C 0.7463(5) 0.6578(6) 0.3583(19)
O2_4 O 0.7325(3) 0.6254(3) 0.2119(13)
O3_4 O 0.7182(3) 0.6882(3) 0.4029(10)
C5_4 C 0.8404(5) 0.6850(4) 0.8736(19)
C6_4 C 0.8791(5) 0.6740(5) 0.806(2)
C7_4 C 0.7916(5) 0.6802(5) 0.7399(17)
C8_4 C 0.9204(5) 0.6755(6) 0.9750(19)
O4_4 O 0.7494(3) 0.6945(3) 0.8214(13)
O9_4 O 0.9588(3) 0.5596(4) 0.4547(13)
H2_4 H 0.823833 0.634565 0.294414
H1_5 H 0.855935 0.157166 0.0389195
C1_5 C 0.8221(6) 0.1737(5) 0.4597(19)
C2_5 C 0.8718(7) 0.2124(5) 0.527(2)
C3_5 C 0.7781(7) 0.1249(5) 0.5934(17)
C4_5 C 0.9116(8) 0.2537(5) 0.3583(19)
O2_5 O 0.8930(4) 0.2675(3) 0.2119(13)
O3_5 O 0.9701(4) 0.2818(3) 0.4029(10)
C5_5 C 0.8446(6) 0.1596(5) 0.8736(19)
C6_5 C 0.7949(7) 0.1209(5) 0.806(2)
C7_5 C 0.8886(7) 0.2084(5) 0.7399(17)
C8_5 C 0.7551(8) 0.0796(5) 0.9750(19)
O4_5 O 0.9451(4) 0.2506(3) 0.8214(13)
O9_5 O 0.6009(5) 0.0412(3) 0.4547(13)
H2_5 H 0.810732 0.176167 0.294414
H1_6 H 0.301231 0.144065 0.0389195
C1_6 C 0.3517(4) 0.1779(6) 0.4597(19)
C2_6 C 0.3407(5) 0.1282(7) 0.527(2)
C3_6 C 0.3469(5) 0.2219(7) 0.5934(17)
C4_6 C 0.3422(6) 0.0884(8) 0.3583(19)
O2_6 O 0.3746(3) 0.1070(4) 0.2119(13)
O3_6 O 0.3118(3) 0.0299(4) 0.4029(10)
C5_6 C 0.3150(4) 0.1554(6) 0.8736(19)
C6_6 C 0.3260(5) 0.2051(7) 0.806(2)
C7_6 C 0.3198(5) 0.1114(7) 0.7399(17)
C8_6 C 0.3245(6) 0.2449(8) 0.9750(19)
O4_6 O 0.3055(3) 0.0549(4) 0.8214(13)
O9_6 O 0.4404(4) 0.3991(5) 0.4547(13)
H2_6 H 0.365435 0.189268 0.294414
C5_7 C 0.5071(5) 0.0183(4) 0.2069(19)
C6_7 C 0.5458(5) 0.0073(5) 0.139(2)
C7_7 C 0.4583(5) 0.0135(5) 0.0732(17)
C8_7 C 0.5871(5) 0.0088(6) 0.3083(19)
O4_7 O 0.4161(3) 0.0278(3) 0.1547(13)
H1_7 H 0.509501 0.032102 0.372253
O3_7 O 0.3848(3) 0.0216(3) 0.7363(10)
C1_7 C 0.4929(5) 0.9817(4) 0.7931(19)
C2_7 C 0.4542(5) 0.9927(5) 0.861(2)
C3_7 C 0.5417(5) 0.9865(5) 0.9268(17)
C4_7 C 0.4129(5) 0.9912(6) 0.6917(19)
O2_7 O 0.3991(3) 0.9588(3) 0.5453(13)
H2_7 H 0.490499 0.967898 0.627747
C5_8 C 0.5113(6) 0.4929(5) 0.2069(19)
C6_8 C 0.4616(7) 0.4542(5) 0.139(2)
C7_8 C 0.5553(7) 0.5417(5) 0.0732(17)
C8_8 C 0.4218(8) 0.4129(5) 0.3083(19)
O4_8 O 0.6118(4) 0.5839(3) 0.1547(13)
H1_8 H 0.522601 0.490499 0.372253
C1_8 C 0.4887(6) 0.5071(5) 0.7931(19)
C2_8 C 0.5384(7) 0.5458(5) 0.861(2)
C3_8 C 0.4447(7) 0.4583(5) 0.9268(17)
C4_8 C 0.5782(8) 0.5871(5) 0.6917(19)
O2_8 O 0.5596(4) 0.6009(3) 0.5453(13)
O3_8 O 0.6367(4) 0.6152(3) 0.7363(10)
H2_8 H 0.477399 0.509501 0.627747
C1_9 C 0.0183(4) 0.5113(6) 0.7931(19)
C2_9 C 0.0073(5) 0.4616(7) 0.861(2)
C3_9 C 0.0135(5) 0.5553(7) 0.9268(17)
C4_9 C 0.0088(6) 0.4218(8) 0.6917(19)
O2_9 O 0.0412(3) 0.4404(4) 0.5453(13)
H2_9 H 0.032102 0.522601 0.627747
C5_9 C 0.9817(4) 0.4887(6) 0.2069(19)
C6_9 C 0.9927(5) 0.5384(7) 0.139(2)
C7_9 C 0.9865(5) 0.4447(7) 0.0732(17)
C8_9 C 0.9912(6) 0.5782(8) 0.3083(19)
O4_9 O 0.9722(3) 0.3882(4) 0.1547(13)
H1_9 H 0.967898 0.477399 0.372253
O3_9 O 0.9784(3) 0.3633(4) 0.7363(10)
loop_
_geom_bond_atom_site_label_1
_geom_bond_atom_site_label_2
_geom_bond_site_symmetry_1
_geom_bond_site_symmetry_2
Cu1 O1 1_555 1_555
C1 C2 1_555 1_555
C2 C4 1_555 1_555
C3 C1 1_555 1_555
O1 C3 1_555 1_555
O3 C4 1_555 1_555
C5 C6 1_555 1_555
C6 C3 1_555 1_555
C7 C2 1_555 1_555
C8 C6 1_555 1_555
O4 C7 1_555 1_555
O5 C8 1_555 1_555
O6 Cu1 1_555 1_555
Cu7 O1 1_555 1_555
Cu4 O4 1_555 1_555
Cu5 O6 1_555 1_555
Cu8 O3 1_555 1_555
O7 Cu1 1_555 1_555
O9 Cu1 1_555 1_555
O12 Cu1 1_555 1_555
C5 C7 1_555 1_555
C8 O6 1_555 1_555
O4 Cu8 1_555 1_555
Cu7 O12 1_555 1_555
Cu5 O7 1_555 1_555
C5 H1 1_555 1_555
O2 Cu4 1_555 1_555
C1_2 C2_2 1_555 1_555
C2_2 C4_2 1_555 1_555
C3_2 C1_2 1_555 1_555
O1_2 C3_2 1_555 1_555
O3_2 C4_2 1_555 1_555
C5_2 C6_2 1_555 1_555
C6_2 C3_2 1_555 1_555
C7_2 C2_2 1_555 1_555
C8_2 C6_2 1_555 1_555
O4_2 C7_2 1_555 1_555
O5_2 C8_2 1_555 1_555
Cu7_2 O1_2 1_555 1_555
Cu4_2 O4_2 1_555 1_555
Cu8_2 O3_2 1_555 1_555
C5_2 C7_2 1_555 1_555
C8_2 O6_2 1_555 1_555
O4_2 Cu8_2 1_555 1_555
Cu7_2 O12_2 1_555 1_555
C5_2 H1_2 1_555 1_555
O2_2 Cu4_2 1_555 1_555
O7_2 Cu1_2 1_555 1_555
O9_2 Cu1_2 1_555 1_555
Cu5_2 O7_2 1_555 1_555
O7_3 Cu1_3 1_555 1_555
O9_3 Cu1_3 1_555 1_555
Cu5_3 O7_3 1_555 1_555
C1_3 C2_3 1_555 1_555
C2_3 C4_3 1_555 1_555
C3_3 C1_3 1_555 1_555
O1_3 C3_3 1_555 1_555
O3_3 C4_3 1_555 1_555
C5_3 C6_3 1_555 1_555
C6_3 C3_3 1_555 1_555
C7_3 C2_3 1_555 1_555
C8_3 C6_3 1_555 1_555
O4_3 C7_3 1_555 1_555
O5_3 C8_3 1_555 1_555
Cu7_3 O1_3 1_555 1_555
Cu4_3 O4_3 1_555 1_555
Cu8_3 O3_3 1_555 1_555
C5_3 C7_3 1_555 1_555
C8_3 O6_3 1_555 1_555
O4_3 Cu8_3 1_555 1_555
Cu7_3 O12_3 1_555 1_555
C5_3 H1_3 1_555 1_555
O2_3 Cu4_3 1_555 1_555
C1_4 C2_4 1_555 1_555
C2_4 C4_4 1_555 1_555
C3_4 C1_4 1_555 1_555
C4_4 O2_4 1_555 1_555
O7_2 C3_4 1_555 1_555
O3_4 C4_4 1_555 1_555
C5_4 C6_4 1_555 1_555
C6_4 C3_4 1_555 1_555
C7_4 C2_4 1_555 1_555
C8_4 C6_4 1_555 1_555
O4_4 C7_4 1_555 1_555
O11_2 Cu5_2 1_555 1_555
Cu6_3 O4_4 1_555 1_555
Cu8_3 O3_4 1_555 1_555
Cu4_3 O3_4 1_555 1_555
O9_4 Cu5_2 1_555 1_555
C5_4 C7_4 1_555 1_555
C8_4 O11_2 1_555 1_555
O4_4 Cu4_3 1_555 1_555
C1_4 H2_4 1_555 1_555
C1_5 C2_5 1_555 1_555
C2_5 C4_5 1_555 1_555
C3_5 C1_5 1_555 1_555
C4_5 O2_5 1_555 1_555
O7_3 C3_5 1_555 1_555
O3_5 C4_5 1_555 1_555
C5_5 C6_5 1_555 1_555
C6_5 C3_5 1_555 1_555
C7_5 C2_5 1_555 1_555
C8_5 C6_5 1_555 1_555
O4_5 C7_5 1_555 1_555
O11_3 Cu5_3 1_555 1_555
Cu6 O4_5 1_555 1_555
O9_5 Cu5_3 1_555 1_555
C5_5 C7_5 1_555 1_555
C8_5 O11_3 1_555 1_555
C1_5 H2_5 1_555 1_555
C1_6 C2_6 1_555 1_555
C2_6 C4_6 1_555 1_555
C3_6 C1_6 1_555 1_555
C4_6 O2_6 1_555 1_555
O7 C3_6 1_555 1_555
O3_6 C4_6 1_555 1_555
C5_6 C6_6 1_555 1_555
C6_6 C3_6 1_555 1_555
C7_6 C2_6 1_555 1_555
C8_6 C6_6 1_555 1_555
O4_6 C7_6 1_555 1_555
O11 Cu5 1_555 1_555
Cu6_2 O4_6 1_555 1_555
O8 Cu5 1_555 1_555
O9_6 Cu5 1_555 1_555
C5_6 C7_6 1_555 1_555
C8_6 O11 1_555 1_555
C1_6 H2_6 1_555 1_555
C5_7 C6_7 1_555 1_555
C8_7 C6_7 1_555 1_555
O4_7 C7_7 1_555 1_555
O9_5 C8_7 1_555 1_555
C5_7 C7_7 1_555 1_555
C5_7 H1_7 1_555 1_555
Cu6_2 O3_7 1_555 1_555
C1_7 C2_7 1_555 1_555
C2_7 C4_7 1_555 1_555
C3_7 C1_7 1_555 1_555
C4_7 O2_7 1_555 1_555
O8_3 C3_7 1_555 1_555
O2_7 Cu8_2 1_555 1_555
C1_7 H2_7 1_555 1_555
C5_8 C6_8 1_555 1_555
C8_8 C6_8 1_555 1_555
O4_8 C7_8 1_555 1_555
O9_6 C8_8 1_555 1_555
Cu8_3 O4_8 1_555 1_555
C5_8 C7_8 1_555 1_555
C8_8 O12 1_555 1_555
C5_8 H1_8 1_555 1_555
C1_8 C2_8 1_555 1_555
C2_8 C4_8 1_555 1_555
C3_8 C1_8 1_555 1_555
C4_8 O2_8 1_555 1_555
O8 C3_8 1_555 1_555
O2_8 Cu8_3 1_555 1_555
O3_8 C4_8 1_555 1_555
Cu4_3 O3_8 1_555 1_555
Cu6_3 O3_8 1_555 1_555
C1_8 H2_8 1_555 1_555
C1_9 C2_9 1_555 1_555
C2_9 C4_9 1_555 1_555
C3_9 C1_9 1_555 1_555
C4_9 O2_9 1_555 1_555
O8_2 C3_9 1_555 1_555
O2_9 Cu8 1_555 1_555
C1_9 H2_9 1_555 1_555
C5_9 C6_9 1_555 1_555
C8_9 C6_9 1_555 1_555
O4_9 C7_9 1_555 1_555
O9_4 C8_9 1_555 1_555
C5_9 C7_9 1_555 1_555
C5_9 H1_9 1_555 1_555
Cu6 O3_9 1_555 1_555

#END
