
###############################################################################
#
# This file contains modified crystal structure data generated from the
# MOF subset of the Cambridge Structural Database (CSD) v543 
# hosted by the Cambridge Crystallographic Data Centre (CCDC).
#
# This work is licensed under the Creative Commons
# Attribution-NonCommercial-ShareAlike 4.0 International License.
# To view a copy of this license, visit
# http://creativecommons.org/licenses/by-nc-sa/4.0/
# or send a letter to
# Creative Commons, PO Box 1866, Mountain View, CA 94042, USA.
#
# CIF created using the CSD Python API on 29 September 2022
# The structure has been converted into the P1 space group
# The structure has a 3D framework
# The original CSD entry MOLLAD36 is in the rhombohedral crystal system
# The framework has been calculated to contain at least 10.0% void space
# The void calculation uses a probe of radius 1.32A, grid spacing 0.4
# H atom positions have been added when not included in the experimental data
#
###############################################################################

data_MOLLAD36
_chemical_formula_moiety         '(C72 H18 Cu7 O44)n'
_symmetry_cell_setting           triclinic
_symmetry_space_group_name_H-M   'P 1'
_symmetry_Int_Tables_number      1
_space_group_name_Hall           'P 1'
loop_
_symmetry_equiv_pos_site_id
_symmetry_equiv_pos_as_xyz
1 x,y,z
_cell_length_a                   25.9255(3)
_cell_length_b                   25.9255(3)
_cell_length_c                   6.27317(8)
_cell_angle_alpha                90
_cell_angle_beta                 90
_cell_angle_gamma                120
_cell_volume                     3651.51
loop_
_atom_site_label
_atom_site_type_symbol
_atom_site_fract_x
_atom_site_fract_y
_atom_site_fract_z
Cu7 Cu 0.31812(8) 0.37168(6) 0.0091(3)
Cu1 Cu 0.29499(6) 0.27978(6) 0.3424(3)
C1 C 0.1600(5) 0.3148(4) 0.1256(18)
C2 C 0.1208(5) 0.3261(5) 0.1940(19)
C3 C 0.2084(4) 0.3193(5) 0.2597(16)
C4 C 0.0796(5) 0.3248(6) 0.0246(18)
O1 O 0.2506(3) 0.3058(3) 0.1784(12)
O3 O 0.0518(3) 0.3547(3) 0.0694(10)
C5 C 0.1733(5) 0.3519(4) 0.5411(18)
C6 C 0.2125(5) 0.3406(5) 0.4727(19)
C7 C 0.1249(4) 0.3474(5) 0.4070(16)
C8 C 0.2537(5) 0.3419(6) 0.6421(18)
O4 O 0.0827(3) 0.3609(3) 0.4883(12)
O5 O 0.2677(3) 0.3749(3) 0.7922(12)
O6 O 0.2815(3) 0.3120(3) 0.5973(10)
Cu4 Cu 0.01521(8) 0.29499(6) 0.6576(3)
Cu5 Cu 0.38689(6) 0.34854(8) 0.6757(3)
Cu8 Cu 0.03834(6) 0.38689(6) 0.3243(3)
O7 O 0.3609(3) 0.2781(4) 0.5117(12)
O9 O 0.2918(3) 0.2262(4) 0.1255(12)
O12 O 0.3638(4) 0.3851(3) 0.2639(10)
H1 H 0.175639 0.365517 0.706596
O2 O 0.0656(3) 0.2918(3) 0.8745(12)
O8 O 0.3885(4) 0.4161(3) 0.8451(12)
O11 O 0.3547(3) 0.3029(4) 0.9306(10)
H2 H 0.157694 0.30115 0.96007
Cu6 Cu 0.94645(6) 0.31812(8) 0.9909(3)
Cu6_2 Cu 0.37168(10) 0.05355(6) 0.9909(3)
Cu7_2 Cu 0.05355(10) 0.68188(8) 0.0091(3)
C1_2 C 0.1548(6) 0.8400(5) 0.1256(18)
C2_2 C 0.2053(7) 0.8792(5) 0.1940(19)
C3_2 C 0.1109(6) 0.7916(4) 0.2597(16)
C4_2 C 0.2452(8) 0.9204(5) 0.0246(18)
O1_2 O 0.0552(4) 0.7494(3) 0.1784(12)
O3_2 O 0.3029(4) 0.9482(3) 0.0694(10)
C5_2 C 0.1785(6) 0.8267(5) 0.5411(18)
C6_2 C 0.1280(7) 0.7875(5) 0.4727(19)
C7_2 C 0.2224(6) 0.8751(4) 0.4070(16)
C8_2 C 0.0881(8) 0.7463(5) 0.6421(18)
O4_2 O 0.2781(4) 0.9173(3) 0.4883(12)
O5_2 O 0.1071(4) 0.7323(3) 0.7922(12)
O6_2 O 0.0304(4) 0.7185(3) 0.5973(10)
Cu4_2 Cu 0.27978(10) 0.98479(8) 0.6576(3)
Cu8_2 Cu 0.34854(8) 0.96166(6) 0.3243(3)
O12_2 O 0.0214(5) 0.6362(4) 0.2639(10)
H1_2 H 0.189878 0.824361 0.706596
O2_2 O 0.2262(4) 0.9344(3) 0.8745(12)
O8_2 O 0.0275(5) 0.6115(4) 0.8451(12)
H2_2 H 0.143456 0.842306 0.96007
Cu1_2 Cu 0.98479(8) 0.70501(6) 0.3424(3)
Cu5_2 Cu 0.96166(10) 0.61311(6) 0.6757(3)
O7_2 O 0.9173(5) 0.6391(3) 0.5117(12)
O9_2 O 0.9344(5) 0.7082(3) 0.1255(12)
O11_2 O 0.9482(5) 0.6453(3) 0.9306(10)
Cu1_3 Cu 0.72022(6) 0.01521(8) 0.3424(3)
Cu5_3 Cu 0.65146(8) 0.03834(10) 0.6757(3)
O7_3 O 0.7219(4) 0.0827(5) 0.5117(12)
O9_3 O 0.7738(4) 0.0656(5) 0.1255(12)
O11_3 O 0.6971(4) 0.0518(5) 0.9306(10)
Cu7_3 Cu 0.62832(6) 0.94645(10) 0.0091(3)
C1_3 C 0.6852(4) 0.8452(6) 0.1256(18)
C2_3 C 0.6739(5) 0.7947(7) 0.1940(19)
C3_3 C 0.6807(5) 0.8891(6) 0.2597(16)
C4_3 C 0.6752(6) 0.7548(8) 0.0246(18)
O1_3 O 0.6942(3) 0.9448(4) 0.1784(12)
O3_3 O 0.6453(3) 0.6971(4) 0.0694(10)
C5_3 C 0.6481(4) 0.8215(6) 0.5411(18)
C6_3 C 0.6594(5) 0.8720(7) 0.4727(19)
C7_3 C 0.6526(5) 0.7776(6) 0.4070(16)
C8_3 C 0.6581(6) 0.9119(8) 0.6421(18)
O4_3 O 0.6391(3) 0.7219(4) 0.4883(12)
O5_3 O 0.6251(3) 0.8929(4) 0.7922(12)
O6_3 O 0.6880(3) 0.9696(4) 0.5973(10)
Cu4_3 Cu 0.70501(6) 0.72022(10) 0.6576(3)
Cu8_3 Cu 0.61311(6) 0.65146(8) 0.3243(3)
O12_3 O 0.6149(3) 0.9786(5) 0.2639(10)
H1_3 H 0.634483 0.810122 0.706596
O2_3 O 0.7082(3) 0.7738(4) 0.8745(12)
Cu6_3 Cu 0.68188(8) 0.62832(10) 0.9909(3)
O8_3 O 0.5839(3) 0.9725(5) 0.8451(12)
H2_3 H 0.69885 0.856544 0.96007
H1_4 H 0.842306 0.69885 0.0399296
C1_4 C 0.8267(5) 0.6481(4) 0.4589(18)
C2_4 C 0.7875(5) 0.6594(5) 0.5273(19)
C3_4 C 0.8751(4) 0.6526(5) 0.5930(16)
C4_4 C 0.7463(5) 0.6581(6) 0.3579(18)
O2_4 O 0.7323(3) 0.6251(3) 0.2078(12)
O3_4 O 0.7185(3) 0.6880(3) 0.4027(10)
C5_4 C 0.8400(5) 0.6852(4) 0.8744(18)
C6_4 C 0.8792(5) 0.6739(5) 0.8060(19)
C7_4 C 0.7916(4) 0.6807(5) 0.7403(16)
C8_4 C 0.9204(5) 0.6752(6) 0.9754(18)
O4_4 O 0.7494(3) 0.6942(3) 0.8216(12)
O9_4 O 0.9585(3) 0.5595(4) 0.4588(12)
H2_4 H 0.824361 0.634483 0.293404
H1_5 H 0.856544 0.157694 0.0399296
C1_5 C 0.8215(6) 0.1733(5) 0.4589(18)
C2_5 C 0.8720(7) 0.2125(5) 0.5273(19)
C3_5 C 0.7776(6) 0.1249(4) 0.5930(16)
C4_5 C 0.9119(8) 0.2537(5) 0.3579(18)
O2_5 O 0.8929(4) 0.2677(3) 0.2078(12)
O3_5 O 0.9696(4) 0.2815(3) 0.4027(10)
C5_5 C 0.8452(6) 0.1600(5) 0.8744(18)
C6_5 C 0.7947(7) 0.1208(5) 0.8060(19)
C7_5 C 0.8891(6) 0.2084(4) 0.7403(16)
C8_5 C 0.7548(8) 0.0796(5) 0.9754(18)
O4_5 O 0.9448(4) 0.2506(3) 0.8216(12)
O9_5 O 0.6011(5) 0.0415(3) 0.4588(12)
H2_5 H 0.810122 0.175639 0.293404
H1_6 H 0.30115 0.143456 0.0399296
C1_6 C 0.3519(4) 0.1785(6) 0.4589(18)
C2_6 C 0.3406(5) 0.1280(7) 0.5273(19)
C3_6 C 0.3474(5) 0.2224(6) 0.5930(16)
C4_6 C 0.3419(6) 0.0881(8) 0.3579(18)
O2_6 O 0.3749(3) 0.1071(4) 0.2078(12)
O3_6 O 0.3120(3) 0.0304(4) 0.4027(10)
C5_6 C 0.3148(4) 0.1548(6) 0.8744(18)
C6_6 C 0.3261(5) 0.2053(7) 0.8060(19)
C7_6 C 0.3193(5) 0.1109(6) 0.7403(16)
C8_6 C 0.3248(6) 0.2452(8) 0.9754(18)
O4_6 O 0.3058(3) 0.0552(4) 0.8216(12)
O9_6 O 0.4405(4) 0.3989(5) 0.4588(12)
H2_6 H 0.365517 0.189878 0.293404
C5_7 C 0.5067(5) 0.0185(4) 0.2077(18)
C6_7 C 0.5459(5) 0.0072(5) 0.1393(19)
C7_7 C 0.4583(4) 0.0140(5) 0.0736(16)
C8_7 C 0.5871(5) 0.0085(6) 0.3087(18)
O4_7 O 0.4161(3) 0.0275(3) 0.1549(12)
H1_7 H 0.508973 0.0321837 0.373263
O3_7 O 0.3851(3) 0.0214(3) 0.7361(10)
C1_7 C 0.4933(5) 0.9815(4) 0.7923(18)
C2_7 C 0.4541(5) 0.9928(5) 0.8607(19)
C3_7 C 0.5417(4) 0.9860(5) 0.9264(16)
C4_7 C 0.4129(5) 0.9915(6) 0.6913(18)
O2_7 O 0.3989(3) 0.9585(3) 0.5412(12)
H2_7 H 0.491027 0.967816 0.626737
C5_8 C 0.5119(6) 0.4933(5) 0.2077(18)
C6_8 C 0.4614(7) 0.4541(5) 0.1393(19)
C7_8 C 0.5558(6) 0.5417(4) 0.0736(16)
C8_8 C 0.4215(8) 0.4129(5) 0.3087(18)
O4_8 O 0.6115(4) 0.5839(3) 0.1549(12)
H1_8 H 0.523211 0.491027 0.373263
C1_8 C 0.4881(6) 0.5067(5) 0.7923(18)
C2_8 C 0.5386(7) 0.5459(5) 0.8607(19)
C3_8 C 0.4442(6) 0.4583(4) 0.9264(16)
C4_8 C 0.5785(8) 0.5871(5) 0.6913(18)
O2_8 O 0.5595(4) 0.6011(3) 0.5412(12)
O3_8 O 0.6362(4) 0.6149(3) 0.7361(10)
H2_8 H 0.476789 0.508973 0.626737
C1_9 C 0.0185(4) 0.5119(6) 0.7923(18)
C2_9 C 0.0072(5) 0.4614(7) 0.8607(19)
C3_9 C 0.0140(5) 0.5558(6) 0.9264(16)
C4_9 C 0.0085(6) 0.4215(8) 0.6913(18)
O2_9 O 0.0415(3) 0.4405(4) 0.5412(12)
H2_9 H 0.0321837 0.523211 0.626737
C5_9 C 0.9815(4) 0.4881(6) 0.2077(18)
C6_9 C 0.9928(5) 0.5386(7) 0.1393(19)
C7_9 C 0.9860(5) 0.4442(6) 0.0736(16)
C8_9 C 0.9915(6) 0.5785(8) 0.3087(18)
O4_9 O 0.9725(3) 0.3885(4) 0.1549(12)
H1_9 H 0.967816 0.476789 0.373263
O3_9 O 0.9786(3) 0.3638(4) 0.7361(10)
loop_
_geom_bond_atom_site_label_1
_geom_bond_atom_site_label_2
_geom_bond_site_symmetry_1
_geom_bond_site_symmetry_2
Cu1 O1 1_555 1_555
C1 C2 1_555 1_555
C2 C4 1_555 1_555
C3 C1 1_555 1_555
O1 C3 1_555 1_555
O3 C4 1_555 1_555
C5 C6 1_555 1_555
C6 C3 1_555 1_555
C7 C2 1_555 1_555
C8 C6 1_555 1_555
O4 C7 1_555 1_555
O5 C8 1_555 1_555
O6 Cu1 1_555 1_555
Cu7 O1 1_555 1_555
Cu4 O4 1_555 1_555
Cu5 O6 1_555 1_555
Cu8 O3 1_555 1_555
O7 Cu1 1_555 1_555
O9 Cu1 1_555 1_555
O12 Cu1 1_555 1_555
C5 C7 1_555 1_555
C8 O6 1_555 1_555
O4 Cu8 1_555 1_555
Cu7 O12 1_555 1_555
Cu5 O7 1_555 1_555
C5 H1 1_555 1_555
O2 Cu4 1_555 1_555
C1_2 C2_2 1_555 1_555
C2_2 C4_2 1_555 1_555
C3_2 C1_2 1_555 1_555
O1_2 C3_2 1_555 1_555
O3_2 C4_2 1_555 1_555
C5_2 C6_2 1_555 1_555
C6_2 C3_2 1_555 1_555
C7_2 C2_2 1_555 1_555
C8_2 C6_2 1_555 1_555
O4_2 C7_2 1_555 1_555
O5_2 C8_2 1_555 1_555
Cu7_2 O1_2 1_555 1_555
Cu4_2 O4_2 1_555 1_555
Cu8_2 O3_2 1_555 1_555
C5_2 C7_2 1_555 1_555
C8_2 O6_2 1_555 1_555
O4_2 Cu8_2 1_555 1_555
Cu7_2 O12_2 1_555 1_555
C5_2 H1_2 1_555 1_555
O2_2 Cu4_2 1_555 1_555
O7_2 Cu1_2 1_555 1_555
O9_2 Cu1_2 1_555 1_555
Cu5_2 O7_2 1_555 1_555
O7_3 Cu1_3 1_555 1_555
O9_3 Cu1_3 1_555 1_555
Cu5_3 O7_3 1_555 1_555
C1_3 C2_3 1_555 1_555
C2_3 C4_3 1_555 1_555
C3_3 C1_3 1_555 1_555
O1_3 C3_3 1_555 1_555
O3_3 C4_3 1_555 1_555
C5_3 C6_3 1_555 1_555
C6_3 C3_3 1_555 1_555
C7_3 C2_3 1_555 1_555
C8_3 C6_3 1_555 1_555
O4_3 C7_3 1_555 1_555
O5_3 C8_3 1_555 1_555
Cu7_3 O1_3 1_555 1_555
Cu4_3 O4_3 1_555 1_555
Cu8_3 O3_3 1_555 1_555
C5_3 C7_3 1_555 1_555
C8_3 O6_3 1_555 1_555
O4_3 Cu8_3 1_555 1_555
Cu7_3 O12_3 1_555 1_555
C5_3 H1_3 1_555 1_555
O2_3 Cu4_3 1_555 1_555
C1_4 C2_4 1_555 1_555
C2_4 C4_4 1_555 1_555
C3_4 C1_4 1_555 1_555
C4_4 O2_4 1_555 1_555
O7_2 C3_4 1_555 1_555
O3_4 C4_4 1_555 1_555
C5_4 C6_4 1_555 1_555
C6_4 C3_4 1_555 1_555
C7_4 C2_4 1_555 1_555
C8_4 C6_4 1_555 1_555
O4_4 C7_4 1_555 1_555
O11_2 Cu5_2 1_555 1_555
Cu6_3 O4_4 1_555 1_555
Cu8_3 O3_4 1_555 1_555
Cu4_3 O3_4 1_555 1_555
O9_4 Cu5_2 1_555 1_555
C5_4 C7_4 1_555 1_555
C8_4 O11_2 1_555 1_555
O4_4 Cu4_3 1_555 1_555
C1_4 H2_4 1_555 1_555
C1_5 C2_5 1_555 1_555
C2_5 C4_5 1_555 1_555
C3_5 C1_5 1_555 1_555
C4_5 O2_5 1_555 1_555
O7_3 C3_5 1_555 1_555
O3_5 C4_5 1_555 1_555
C5_5 C6_5 1_555 1_555
C6_5 C3_5 1_555 1_555
C7_5 C2_5 1_555 1_555
C8_5 C6_5 1_555 1_555
O4_5 C7_5 1_555 1_555
O11_3 Cu5_3 1_555 1_555
Cu6 O4_5 1_555 1_555
O9_5 Cu5_3 1_555 1_555
C5_5 C7_5 1_555 1_555
C8_5 O11_3 1_555 1_555
C1_5 H2_5 1_555 1_555
C1_6 C2_6 1_555 1_555
C2_6 C4_6 1_555 1_555
C3_6 C1_6 1_555 1_555
C4_6 O2_6 1_555 1_555
O7 C3_6 1_555 1_555
O3_6 C4_6 1_555 1_555
C5_6 C6_6 1_555 1_555
C6_6 C3_6 1_555 1_555
C7_6 C2_6 1_555 1_555
C8_6 C6_6 1_555 1_555
O4_6 C7_6 1_555 1_555
O11 Cu5 1_555 1_555
Cu6_2 O4_6 1_555 1_555
O8 Cu5 1_555 1_555
O9_6 Cu5 1_555 1_555
C5_6 C7_6 1_555 1_555
C8_6 O11 1_555 1_555
C1_6 H2_6 1_555 1_555
C5_7 C6_7 1_555 1_555
C8_7 C6_7 1_555 1_555
O4_7 C7_7 1_555 1_555
O9_5 C8_7 1_555 1_555
C5_7 C7_7 1_555 1_555
C5_7 H1_7 1_555 1_555
Cu6_2 O3_7 1_555 1_555
C1_7 C2_7 1_555 1_555
C2_7 C4_7 1_555 1_555
C3_7 C1_7 1_555 1_555
C4_7 O2_7 1_555 1_555
O8_3 C3_7 1_555 1_555
O2_7 Cu8_2 1_555 1_555
C1_7 H2_7 1_555 1_555
C5_8 C6_8 1_555 1_555
C8_8 C6_8 1_555 1_555
O4_8 C7_8 1_555 1_555
O9_6 C8_8 1_555 1_555
Cu8_3 O4_8 1_555 1_555
C5_8 C7_8 1_555 1_555
C8_8 O12 1_555 1_555
C5_8 H1_8 1_555 1_555
C1_8 C2_8 1_555 1_555
C2_8 C4_8 1_555 1_555
C3_8 C1_8 1_555 1_555
C4_8 O2_8 1_555 1_555
O8 C3_8 1_555 1_555
O2_8 Cu8_3 1_555 1_555
O3_8 C4_8 1_555 1_555
Cu4_3 O3_8 1_555 1_555
Cu6_3 O3_8 1_555 1_555
C1_8 H2_8 1_555 1_555
C1_9 C2_9 1_555 1_555
C2_9 C4_9 1_555 1_555
C3_9 C1_9 1_555 1_555
C4_9 O2_9 1_555 1_555
O8_2 C3_9 1_555 1_555
O2_9 Cu8 1_555 1_555
C1_9 H2_9 1_555 1_555
C5_9 C6_9 1_555 1_555
C8_9 C6_9 1_555 1_555
O4_9 C7_9 1_555 1_555
O9_4 C8_9 1_555 1_555
C5_9 C7_9 1_555 1_555
C5_9 H1_9 1_555 1_555
Cu6 O3_9 1_555 1_555

#END
