
###############################################################################
#
# This file contains modified crystal structure data generated from the
# MOF subset of the Cambridge Structural Database (CSD) v543 
# hosted by the Cambridge Crystallographic Data Centre (CCDC).
#
# This work is licensed under the Creative Commons
# Attribution-NonCommercial-ShareAlike 4.0 International License.
# To view a copy of this license, visit
# http://creativecommons.org/licenses/by-nc-sa/4.0/
# or send a letter to
# Creative Commons, PO Box 1866, Mountain View, CA 94042, USA.
#
# CIF created using the CSD Python API on 29 September 2022
# The structure has been converted into the P1 space group
# The structure has a 3D framework
# The original CSD entry MOLLAD27 is in the rhombohedral crystal system
# The framework has been calculated to contain at least 10.0% void space
# The void calculation uses a probe of radius 1.32A, grid spacing 0.4
# H atom positions have been added when not included in the experimental data
#
###############################################################################

data_MOLLAD27
_chemical_formula_moiety         '(C72 H18 Cu7 O44)n'
_symmetry_cell_setting           triclinic
_symmetry_space_group_name_H-M   'P 1'
_symmetry_Int_Tables_number      1
_space_group_name_Hall           'P 1'
loop_
_symmetry_equiv_pos_site_id
_symmetry_equiv_pos_as_xyz
1 x,y,z
_cell_length_a                   25.9245(3)
_cell_length_b                   25.9245(3)
_cell_length_c                   6.27477(8)
_cell_angle_alpha                90
_cell_angle_beta                 90
_cell_angle_gamma                120
_cell_volume                     3652.16
loop_
_atom_site_label
_atom_site_type_symbol
_atom_site_fract_x
_atom_site_fract_y
_atom_site_fract_z
Cu7 Cu 0.31814(8) 0.37167(6) 0.0088(3)
Cu1 Cu 0.29500(6) 0.27981(6) 0.3421(3)
C1 C 0.1599(5) 0.3152(4) 0.1258(19)
C2 C 0.1208(5) 0.3260(5) 0.1939(19)
C3 C 0.2084(5) 0.3196(5) 0.2601(16)
C4 C 0.0796(5) 0.3247(6) 0.0246(18)
O1 O 0.2507(3) 0.3058(3) 0.1788(13)
O3 O 0.0516(3) 0.3547(3) 0.0699(10)
C5 C 0.1734(5) 0.3515(4) 0.5409(19)
C6 C 0.2125(5) 0.3407(5) 0.4728(19)
C7 C 0.1249(5) 0.3471(5) 0.4066(16)
C8 C 0.2537(5) 0.3420(6) 0.6421(18)
O4 O 0.0826(3) 0.3609(3) 0.4879(13)
O5 O 0.2677(3) 0.3748(3) 0.7919(13)
O6 O 0.2817(3) 0.3120(3) 0.5968(10)
Cu4 Cu 0.01519(8) 0.29500(6) 0.6579(3)
Cu5 Cu 0.38686(6) 0.34852(8) 0.6754(3)
Cu8 Cu 0.03833(6) 0.38686(6) 0.3246(3)
O7 O 0.3609(3) 0.2782(4) 0.5121(13)
O9 O 0.2919(3) 0.2263(4) 0.1252(13)
O12 O 0.3636(4) 0.3849(3) 0.2634(10)
H2 H 0.175498 0.364686 0.70679
O2 O 0.0656(3) 0.2919(3) 0.8748(13)
O8 O 0.3884(4) 0.4160(3) 0.8455(13)
O11 O 0.3547(3) 0.3031(4) 0.9301(10)
H1 H 0.157835 0.30198 0.959877
Cu6 Cu 0.94648(6) 0.31814(8) 0.9912(3)
Cu6_2 Cu 0.37167(10) 0.05352(6) 0.9912(3)
Cu7_2 Cu 0.05352(10) 0.68186(8) 0.0088(3)
C1_2 C 0.1553(6) 0.8401(5) 0.1258(19)
C2_2 C 0.2052(7) 0.8792(5) 0.1939(19)
C3_2 C 0.1112(7) 0.7916(5) 0.2601(16)
C4_2 C 0.2451(8) 0.9204(5) 0.0246(18)
O1_2 O 0.0551(4) 0.7493(3) 0.1788(13)
O3_2 O 0.3031(4) 0.9484(3) 0.0699(10)
C5_2 C 0.1780(6) 0.8266(5) 0.5409(19)
C6_2 C 0.1281(7) 0.7875(5) 0.4728(19)
C7_2 C 0.2221(7) 0.8751(5) 0.4066(16)
C8_2 C 0.0882(8) 0.7463(5) 0.6421(18)
O4_2 O 0.2782(4) 0.9174(3) 0.4879(13)
O5_2 O 0.1070(4) 0.7323(3) 0.7919(13)
O6_2 O 0.0302(4) 0.7183(3) 0.5968(10)
Cu4_2 Cu 0.27981(10) 0.98481(8) 0.6579(3)
Cu8_2 Cu 0.34852(8) 0.96167(6) 0.3246(3)
O12_2 O 0.0214(5) 0.6364(4) 0.2634(10)
H2_2 H 0.189188 0.824502 0.70679
O2_2 O 0.2263(4) 0.9344(3) 0.8748(13)
O8_2 O 0.0275(5) 0.6116(4) 0.8455(13)
H1_2 H 0.144145 0.842165 0.959877
Cu1_2 Cu 0.98481(8) 0.70500(6) 0.3421(3)
Cu5_2 Cu 0.96167(10) 0.61314(6) 0.6754(3)
O7_2 O 0.9174(5) 0.6391(3) 0.5121(13)
O9_2 O 0.9344(5) 0.7081(3) 0.1252(13)
O11_2 O 0.9484(5) 0.6453(3) 0.9301(10)
Cu1_3 Cu 0.72019(6) 0.01519(8) 0.3421(3)
Cu5_3 Cu 0.65148(8) 0.03833(10) 0.6754(3)
O7_3 O 0.7218(4) 0.0826(5) 0.5121(13)
O9_3 O 0.7737(4) 0.0656(5) 0.1252(13)
O11_3 O 0.6969(4) 0.0516(5) 0.9301(10)
Cu7_3 Cu 0.62833(6) 0.94648(10) 0.0088(3)
C1_3 C 0.6848(4) 0.8447(6) 0.1258(19)
C2_3 C 0.6740(5) 0.7948(7) 0.1939(19)
C3_3 C 0.6804(5) 0.8888(7) 0.2601(16)
C4_3 C 0.6753(6) 0.7549(8) 0.0246(18)
O1_3 O 0.6942(3) 0.9449(4) 0.1788(13)
O3_3 O 0.6453(3) 0.6969(4) 0.0699(10)
C5_3 C 0.6485(4) 0.8220(6) 0.5409(19)
C6_3 C 0.6593(5) 0.8719(7) 0.4728(19)
C7_3 C 0.6529(5) 0.7779(7) 0.4066(16)
C8_3 C 0.6580(6) 0.9118(8) 0.6421(18)
O4_3 O 0.6391(3) 0.7218(4) 0.4879(13)
O5_3 O 0.6252(3) 0.8930(4) 0.7919(13)
O6_3 O 0.6880(3) 0.9698(4) 0.5968(10)
Cu4_3 Cu 0.70500(6) 0.72019(10) 0.6579(3)
Cu8_3 Cu 0.61314(6) 0.65148(8) 0.3246(3)
O12_3 O 0.6151(3) 0.9786(5) 0.2634(10)
H2_3 H 0.635314 0.810812 0.70679
O2_3 O 0.7081(3) 0.7737(4) 0.8748(13)
Cu6_3 Cu 0.68186(8) 0.62833(10) 0.9912(3)
O8_3 O 0.5840(3) 0.9725(5) 0.8455(13)
H1_3 H 0.69802 0.855855 0.959877
H2_4 H 0.842165 0.69802 0.0401229
C1_4 C 0.8266(5) 0.6485(4) 0.4591(19)
C2_4 C 0.7875(5) 0.6593(5) 0.5272(19)
C3_4 C 0.8751(5) 0.6529(5) 0.5934(16)
C4_4 C 0.7463(5) 0.6580(6) 0.3579(18)
O2_4 O 0.7323(3) 0.6252(3) 0.2081(13)
O3_4 O 0.7183(3) 0.6880(3) 0.4032(10)
C5_4 C 0.8401(5) 0.6848(4) 0.8742(19)
C6_4 C 0.8792(5) 0.6740(5) 0.8061(19)
C7_4 C 0.7916(5) 0.6804(5) 0.7399(16)
C8_4 C 0.9204(5) 0.6753(6) 0.9754(18)
O4_4 O 0.7493(3) 0.6942(3) 0.8212(13)
O9_4 O 0.9586(3) 0.5596(4) 0.4585(13)
H1_4 H 0.824502 0.635314 0.29321
H2_5 H 0.855855 0.157835 0.0401229
C1_5 C 0.8220(6) 0.1734(5) 0.4591(19)
C2_5 C 0.8719(7) 0.2125(5) 0.5272(19)
C3_5 C 0.7779(7) 0.1249(5) 0.5934(16)
C4_5 C 0.9118(8) 0.2537(5) 0.3579(18)
O2_5 O 0.8930(4) 0.2677(3) 0.2081(13)
O3_5 O 0.9698(4) 0.2817(3) 0.4032(10)
C5_5 C 0.8447(6) 0.1599(5) 0.8742(19)
C6_5 C 0.7948(7) 0.1208(5) 0.8061(19)
C7_5 C 0.8888(7) 0.2084(5) 0.7399(16)
C8_5 C 0.7549(8) 0.0796(5) 0.9754(18)
O4_5 O 0.9449(4) 0.2507(3) 0.8212(13)
O9_5 O 0.6011(5) 0.0414(3) 0.4585(13)
H1_5 H 0.810812 0.175498 0.29321
H2_6 H 0.30198 0.144145 0.0401229
C1_6 C 0.3515(4) 0.1780(6) 0.4591(19)
C2_6 C 0.3407(5) 0.1281(7) 0.5272(19)
C3_6 C 0.3471(5) 0.2221(7) 0.5934(16)
C4_6 C 0.3420(6) 0.0882(8) 0.3579(18)
O2_6 O 0.3748(3) 0.1070(4) 0.2081(13)
O3_6 O 0.3120(3) 0.0302(4) 0.4032(10)
C5_6 C 0.3152(4) 0.1553(6) 0.8742(19)
C6_6 C 0.3260(5) 0.2052(7) 0.8061(19)
C7_6 C 0.3196(5) 0.1112(7) 0.7399(16)
C8_6 C 0.3247(6) 0.2451(8) 0.9754(18)
O4_6 O 0.3058(3) 0.0551(4) 0.8212(13)
O9_6 O 0.4404(4) 0.3989(5) 0.4585(13)
H1_6 H 0.364686 0.189188 0.29321
C5_7 C 0.5068(5) 0.0181(4) 0.2075(19)
C6_7 C 0.5459(5) 0.0073(5) 0.1394(19)
C7_7 C 0.4583(5) 0.0137(5) 0.0732(16)
C8_7 C 0.5871(5) 0.0086(6) 0.3087(18)
O4_7 O 0.4160(3) 0.0275(3) 0.1545(13)
H2_7 H 0.508831 0.0313529 0.373456
O3_7 O 0.3849(3) 0.0214(3) 0.7366(10)
C1_7 C 0.4932(5) 0.9819(4) 0.7925(19)
C2_7 C 0.4541(5) 0.9927(5) 0.8606(19)
C3_7 C 0.5417(5) 0.9863(5) 0.9268(16)
C4_7 C 0.4129(5) 0.9914(6) 0.6913(18)
O2_7 O 0.3989(3) 0.9586(3) 0.5415(13)
H1_7 H 0.491169 0.968647 0.626544
C5_8 C 0.5114(6) 0.4932(5) 0.2075(19)
C6_8 C 0.4615(7) 0.4541(5) 0.1394(19)
C7_8 C 0.5555(7) 0.5417(5) 0.0732(16)
C8_8 C 0.4216(8) 0.4129(5) 0.3087(18)
O4_8 O 0.6116(4) 0.5840(3) 0.1545(13)
H2_8 H 0.522522 0.491169 0.373456
C1_8 C 0.4886(6) 0.5068(5) 0.7925(19)
C2_8 C 0.5385(7) 0.5459(5) 0.8606(19)
C3_8 C 0.4445(7) 0.4583(5) 0.9268(16)
C4_8 C 0.5784(8) 0.5871(5) 0.6913(18)
O2_8 O 0.5596(4) 0.6011(3) 0.5415(13)
O3_8 O 0.6364(4) 0.6151(3) 0.7366(10)
H1_8 H 0.477478 0.508831 0.626544
C1_9 C 0.0181(4) 0.5114(6) 0.7925(19)
C2_9 C 0.0073(5) 0.4615(7) 0.8606(19)
C3_9 C 0.0137(5) 0.5555(7) 0.9268(16)
C4_9 C 0.0086(6) 0.4216(8) 0.6913(18)
O2_9 O 0.0414(3) 0.4404(4) 0.5415(13)
H1_9 H 0.0313529 0.522522 0.626544
C5_9 C 0.9819(4) 0.4886(6) 0.2075(19)
C6_9 C 0.9927(5) 0.5385(7) 0.1394(19)
C7_9 C 0.9863(5) 0.4445(7) 0.0732(16)
C8_9 C 0.9914(6) 0.5784(8) 0.3087(18)
O4_9 O 0.9725(3) 0.3884(4) 0.1545(13)
H2_9 H 0.968647 0.477478 0.373456
O3_9 O 0.9786(3) 0.3636(4) 0.7366(10)
loop_
_geom_bond_atom_site_label_1
_geom_bond_atom_site_label_2
_geom_bond_site_symmetry_1
_geom_bond_site_symmetry_2
Cu1 O1 1_555 1_555
C1 C2 1_555 1_555
C2 C4 1_555 1_555
C3 C1 1_555 1_555
O1 C3 1_555 1_555
O3 C4 1_555 1_555
C5 C6 1_555 1_555
C6 C3 1_555 1_555
C7 C2 1_555 1_555
C8 C6 1_555 1_555
O4 C7 1_555 1_555
O5 C8 1_555 1_555
O6 Cu1 1_555 1_555
Cu7 O1 1_555 1_555
Cu4 O4 1_555 1_555
Cu5 O6 1_555 1_555
Cu8 O3 1_555 1_555
O7 Cu1 1_555 1_555
O9 Cu1 1_555 1_555
O12 Cu1 1_555 1_555
C5 C7 1_555 1_555
C8 O6 1_555 1_555
O4 Cu8 1_555 1_555
Cu7 O12 1_555 1_555
Cu5 O7 1_555 1_555
C5 H2 1_555 1_555
O2 Cu4 1_555 1_555
C1_2 C2_2 1_555 1_555
C2_2 C4_2 1_555 1_555
C3_2 C1_2 1_555 1_555
O1_2 C3_2 1_555 1_555
O3_2 C4_2 1_555 1_555
C5_2 C6_2 1_555 1_555
C6_2 C3_2 1_555 1_555
C7_2 C2_2 1_555 1_555
C8_2 C6_2 1_555 1_555
O4_2 C7_2 1_555 1_555
O5_2 C8_2 1_555 1_555
Cu7_2 O1_2 1_555 1_555
Cu4_2 O4_2 1_555 1_555
Cu8_2 O3_2 1_555 1_555
C5_2 C7_2 1_555 1_555
C8_2 O6_2 1_555 1_555
O4_2 Cu8_2 1_555 1_555
Cu7_2 O12_2 1_555 1_555
C5_2 H2_2 1_555 1_555
O2_2 Cu4_2 1_555 1_555
O7_2 Cu1_2 1_555 1_555
O9_2 Cu1_2 1_555 1_555
Cu5_2 O7_2 1_555 1_555
O7_3 Cu1_3 1_555 1_555
O9_3 Cu1_3 1_555 1_555
Cu5_3 O7_3 1_555 1_555
C1_3 C2_3 1_555 1_555
C2_3 C4_3 1_555 1_555
C3_3 C1_3 1_555 1_555
O1_3 C3_3 1_555 1_555
O3_3 C4_3 1_555 1_555
C5_3 C6_3 1_555 1_555
C6_3 C3_3 1_555 1_555
C7_3 C2_3 1_555 1_555
C8_3 C6_3 1_555 1_555
O4_3 C7_3 1_555 1_555
O5_3 C8_3 1_555 1_555
Cu7_3 O1_3 1_555 1_555
Cu4_3 O4_3 1_555 1_555
Cu8_3 O3_3 1_555 1_555
C5_3 C7_3 1_555 1_555
C8_3 O6_3 1_555 1_555
O4_3 Cu8_3 1_555 1_555
Cu7_3 O12_3 1_555 1_555
C5_3 H2_3 1_555 1_555
O2_3 Cu4_3 1_555 1_555
C1_4 C2_4 1_555 1_555
C2_4 C4_4 1_555 1_555
C3_4 C1_4 1_555 1_555
C4_4 O2_4 1_555 1_555
O7_2 C3_4 1_555 1_555
O3_4 C4_4 1_555 1_555
C5_4 C6_4 1_555 1_555
C6_4 C3_4 1_555 1_555
C7_4 C2_4 1_555 1_555
C8_4 C6_4 1_555 1_555
O4_4 C7_4 1_555 1_555
O11_2 Cu5_2 1_555 1_555
Cu6_3 O4_4 1_555 1_555
Cu8_3 O3_4 1_555 1_555
Cu4_3 O3_4 1_555 1_555
O9_4 Cu5_2 1_555 1_555
C5_4 C7_4 1_555 1_555
C8_4 O11_2 1_555 1_555
O4_4 Cu4_3 1_555 1_555
C1_4 H1_4 1_555 1_555
C1_5 C2_5 1_555 1_555
C2_5 C4_5 1_555 1_555
C3_5 C1_5 1_555 1_555
C4_5 O2_5 1_555 1_555
O7_3 C3_5 1_555 1_555
O3_5 C4_5 1_555 1_555
C5_5 C6_5 1_555 1_555
C6_5 C3_5 1_555 1_555
C7_5 C2_5 1_555 1_555
C8_5 C6_5 1_555 1_555
O4_5 C7_5 1_555 1_555
O11_3 Cu5_3 1_555 1_555
Cu6 O4_5 1_555 1_555
O9_5 Cu5_3 1_555 1_555
C5_5 C7_5 1_555 1_555
C8_5 O11_3 1_555 1_555
C1_5 H1_5 1_555 1_555
C1_6 C2_6 1_555 1_555
C2_6 C4_6 1_555 1_555
C3_6 C1_6 1_555 1_555
C4_6 O2_6 1_555 1_555
O7 C3_6 1_555 1_555
O3_6 C4_6 1_555 1_555
C5_6 C6_6 1_555 1_555
C6_6 C3_6 1_555 1_555
C7_6 C2_6 1_555 1_555
C8_6 C6_6 1_555 1_555
O4_6 C7_6 1_555 1_555
O11 Cu5 1_555 1_555
Cu6_2 O4_6 1_555 1_555
O8 Cu5 1_555 1_555
O9_6 Cu5 1_555 1_555
C5_6 C7_6 1_555 1_555
C8_6 O11 1_555 1_555
C1_6 H1_6 1_555 1_555
C5_7 C6_7 1_555 1_555
C8_7 C6_7 1_555 1_555
O4_7 C7_7 1_555 1_555
O9_5 C8_7 1_555 1_555
C5_7 C7_7 1_555 1_555
C5_7 H2_7 1_555 1_555
Cu6_2 O3_7 1_555 1_555
C1_7 C2_7 1_555 1_555
C2_7 C4_7 1_555 1_555
C3_7 C1_7 1_555 1_555
C4_7 O2_7 1_555 1_555
O8_3 C3_7 1_555 1_555
O2_7 Cu8_2 1_555 1_555
C1_7 H1_7 1_555 1_555
C5_8 C6_8 1_555 1_555
C8_8 C6_8 1_555 1_555
O4_8 C7_8 1_555 1_555
O9_6 C8_8 1_555 1_555
Cu8_3 O4_8 1_555 1_555
C5_8 C7_8 1_555 1_555
C8_8 O12 1_555 1_555
C5_8 H2_8 1_555 1_555
C1_8 C2_8 1_555 1_555
C2_8 C4_8 1_555 1_555
C3_8 C1_8 1_555 1_555
C4_8 O2_8 1_555 1_555
O8 C3_8 1_555 1_555
O2_8 Cu8_3 1_555 1_555
O3_8 C4_8 1_555 1_555
Cu4_3 O3_8 1_555 1_555
Cu6_3 O3_8 1_555 1_555
C1_8 H1_8 1_555 1_555
C1_9 C2_9 1_555 1_555
C2_9 C4_9 1_555 1_555
C3_9 C1_9 1_555 1_555
C4_9 O2_9 1_555 1_555
O8_2 C3_9 1_555 1_555
O2_9 Cu8 1_555 1_555
C1_9 H1_9 1_555 1_555
C5_9 C6_9 1_555 1_555
C8_9 C6_9 1_555 1_555
O4_9 C7_9 1_555 1_555
O9_4 C8_9 1_555 1_555
C5_9 C7_9 1_555 1_555
C5_9 H2_9 1_555 1_555
Cu6 O3_9 1_555 1_555

#END
