
###############################################################################
#
# This file contains modified crystal structure data generated from the
# MOF subset of the Cambridge Structural Database (CSD) v543 
# hosted by the Cambridge Crystallographic Data Centre (CCDC).
#
# This work is licensed under the Creative Commons
# Attribution-NonCommercial-ShareAlike 4.0 International License.
# To view a copy of this license, visit
# http://creativecommons.org/licenses/by-nc-sa/4.0/
# or send a letter to
# Creative Commons, PO Box 1866, Mountain View, CA 94042, USA.
#
# CIF created using the CSD Python API on 29 September 2022
# The structure has been converted into the P1 space group
# The structure has a 3D framework
# The original CSD entry MOLLAD is in the rhombohedral crystal system
# The framework has been calculated to contain at least 10.0% void space
# The void calculation uses a probe of radius 1.32A, grid spacing 0.4
# H atom positions have been added when not included in the experimental data
#
###############################################################################

data_MOLLAD
_chemical_formula_moiety         '(C72 H18 Cu7 O44)n'
_symmetry_cell_setting           triclinic
_symmetry_space_group_name_H-M   'P 1'
_symmetry_Int_Tables_number      1
_space_group_name_Hall           'P 1'
loop_
_symmetry_equiv_pos_site_id
_symmetry_equiv_pos_as_xyz
1 x,y,z
_cell_length_a                   25.9217(4)
_cell_length_b                   25.9217(4)
_cell_length_c                   6.28168(9)
_cell_angle_alpha                90
_cell_angle_beta                 90
_cell_angle_gamma                120
_cell_volume                     3655.39
loop_
_atom_site_label
_atom_site_type_symbol
_atom_site_fract_x
_atom_site_fract_y
_atom_site_fract_z
Cu7 Cu 0.31819(9) 0.37164(7) 0.0084(3)
Cu1 Cu 0.29503(7) 0.27989(6) 0.3417(3)
C1 C 0.1592(5) 0.3148(4) 0.127(2)
C2 C 0.1210(6) 0.3260(5) 0.194(2)
C3 C 0.2083(5) 0.3198(5) 0.2605(18)
C4 C 0.0797(5) 0.3244(6) 0.026(2)
O1 O 0.2506(3) 0.3054(3) 0.1784(14)
O3 O 0.0514(3) 0.3551(3) 0.0701(11)
C5 C 0.1741(5) 0.3519(4) 0.540(2)
C6 C 0.2123(6) 0.3407(5) 0.473(2)
C7 C 0.1250(5) 0.3469(5) 0.4062(18)
C8 C 0.2536(5) 0.3423(6) 0.641(2)
O4 O 0.0827(3) 0.3613(3) 0.4883(14)
O5 O 0.2672(3) 0.3743(3) 0.7856(13)
O6 O 0.2819(3) 0.3116(3) 0.5966(11)
Cu4 Cu 0.01514(9) 0.29503(7) 0.6583(3)
Cu5 Cu 0.38678(6) 0.34847(9) 0.6750(3)
Cu8 Cu 0.03830(7) 0.38678(6) 0.3250(3)
O7 O 0.3613(3) 0.2785(4) 0.5117(14)
O9 O 0.2924(3) 0.2263(4) 0.1189(13)
O12 O 0.3630(4) 0.3847(3) 0.2632(11)
H1 H 0.176872 0.366044 0.704484
O2 O 0.0661(3) 0.2924(3) 0.8811(13)
O8 O 0.3881(4) 0.4161(3) 0.8451(14)
O11 O 0.3551(3) 0.3037(4) 0.9299(11)
H2 H 0.156462 0.300623 0.962182
Cu6 Cu 0.94656(6) 0.31819(9) 0.9916(3)
Cu6_2 Cu 0.37164(11) 0.05344(6) 0.9916(3)
Cu7_2 Cu 0.05344(11) 0.68181(9) 0.0084(3)
C1_2 C 0.1556(6) 0.8408(5) 0.127(2)
C2_2 C 0.2050(8) 0.8790(6) 0.194(2)
C3_2 C 0.1115(7) 0.7917(5) 0.2605(18)
C4_2 C 0.2447(8) 0.9203(5) 0.026(2)
O1_2 O 0.0548(4) 0.7494(3) 0.1784(14)
O3_2 O 0.3037(4) 0.9486(3) 0.0701(11)
C5_2 C 0.1777(6) 0.8259(5) 0.540(2)
C6_2 C 0.1283(8) 0.7877(6) 0.473(2)
C7_2 C 0.2218(7) 0.8750(5) 0.4062(18)
C8_2 C 0.0886(8) 0.7464(5) 0.641(2)
O4_2 O 0.2785(4) 0.9173(3) 0.4883(14)
O5_2 O 0.1070(4) 0.7328(3) 0.7856(13)
O6_2 O 0.0296(4) 0.7181(3) 0.5966(11)
Cu4_2 Cu 0.27989(11) 0.98486(9) 0.6583(3)
Cu8_2 Cu 0.34847(9) 0.96170(7) 0.3250(3)
O12_2 O 0.0218(5) 0.6370(4) 0.2632(11)
H1_2 H 0.189172 0.823128 0.704484
O2_2 O 0.2263(4) 0.9339(3) 0.8811(13)
O8_2 O 0.0279(5) 0.6119(4) 0.8451(14)
H2_2 H 0.144161 0.843538 0.962182
Cu1_2 Cu 0.98486(9) 0.70497(7) 0.3417(3)
Cu5_2 Cu 0.96170(11) 0.61322(6) 0.6750(3)
O7_2 O 0.9173(5) 0.6387(3) 0.5117(14)
O9_2 O 0.9339(5) 0.7076(3) 0.1189(13)
O11_2 O 0.9486(5) 0.6449(3) 0.9299(11)
Cu1_3 Cu 0.72011(6) 0.01514(9) 0.3417(3)
Cu5_3 Cu 0.65153(9) 0.03830(11) 0.6750(3)
O7_3 O 0.7215(4) 0.0827(5) 0.5117(14)
O9_3 O 0.7737(4) 0.0661(5) 0.1189(13)
O11_3 O 0.6963(4) 0.0514(5) 0.9299(11)
Cu7_3 Cu 0.62836(7) 0.94656(11) 0.0084(3)
C1_3 C 0.6852(4) 0.8444(6) 0.127(2)
C2_3 C 0.6740(5) 0.7950(8) 0.194(2)
C3_3 C 0.6802(5) 0.8885(7) 0.2605(18)
C4_3 C 0.6756(6) 0.7553(8) 0.026(2)
O1_3 O 0.6946(3) 0.9452(4) 0.1784(14)
O3_3 O 0.6449(3) 0.6963(4) 0.0701(11)
C5_3 C 0.6481(4) 0.8223(6) 0.540(2)
C6_3 C 0.6593(5) 0.8717(8) 0.473(2)
C7_3 C 0.6531(5) 0.7782(7) 0.4062(18)
C8_3 C 0.6577(6) 0.9114(8) 0.641(2)
O4_3 O 0.6387(3) 0.7215(4) 0.4883(14)
O5_3 O 0.6257(3) 0.8930(4) 0.7856(13)
O6_3 O 0.6884(3) 0.9704(4) 0.5966(11)
Cu4_3 Cu 0.70497(7) 0.72011(11) 0.6583(3)
Cu8_3 Cu 0.61322(6) 0.65153(9) 0.3250(3)
O12_3 O 0.6153(3) 0.9782(5) 0.2632(11)
H1_3 H 0.633956 0.810828 0.704484
O2_3 O 0.7076(3) 0.7737(4) 0.8811(13)
Cu6_3 Cu 0.68181(9) 0.62836(11) 0.9916(3)
O8_3 O 0.5839(3) 0.9721(5) 0.8451(14)
H2_3 H 0.699377 0.855839 0.962182
H1_4 H 0.843538 0.699377 0.0378176
C1_4 C 0.8259(5) 0.6481(4) 0.460(2)
C2_4 C 0.7877(6) 0.6593(5) 0.527(2)
C3_4 C 0.8750(5) 0.6531(5) 0.5938(18)
C4_4 C 0.7464(5) 0.6577(6) 0.359(2)
O2_4 O 0.7328(3) 0.6257(3) 0.2144(13)
O3_4 O 0.7181(3) 0.6884(3) 0.4034(11)
C5_4 C 0.8408(5) 0.6852(4) 0.873(2)
C6_4 C 0.8790(6) 0.6740(5) 0.806(2)
C7_4 C 0.7917(5) 0.6802(5) 0.7395(18)
C8_4 C 0.9203(5) 0.6756(6) 0.974(2)
O4_4 O 0.7494(3) 0.6946(3) 0.8216(14)
O9_4 O 0.9591(3) 0.5596(4) 0.4522(13)
H2_4 H 0.823128 0.633956 0.295516
H1_5 H 0.855839 0.156462 0.0378176
C1_5 C 0.8223(6) 0.1741(5) 0.460(2)
C2_5 C 0.8717(8) 0.2123(6) 0.527(2)
C3_5 C 0.7782(7) 0.1250(5) 0.5938(18)
C4_5 C 0.9114(8) 0.2536(5) 0.359(2)
O2_5 O 0.8930(4) 0.2672(3) 0.2144(13)
O3_5 O 0.9704(4) 0.2819(3) 0.4034(11)
C5_5 C 0.8444(6) 0.1592(5) 0.873(2)
C6_5 C 0.7950(8) 0.1210(6) 0.806(2)
C7_5 C 0.8885(7) 0.2083(5) 0.7395(18)
C8_5 C 0.7553(8) 0.0797(5) 0.974(2)
O4_5 O 0.9452(4) 0.2506(3) 0.8216(14)
O9_5 O 0.6006(5) 0.0409(3) 0.4522(13)
H2_5 H 0.810828 0.176872 0.295516
H1_6 H 0.300623 0.144161 0.0378176
C1_6 C 0.3519(4) 0.1777(6) 0.460(2)
C2_6 C 0.3407(5) 0.1283(8) 0.527(2)
C3_6 C 0.3469(5) 0.2218(7) 0.5938(18)
C4_6 C 0.3423(6) 0.0886(8) 0.359(2)
O2_6 O 0.3743(3) 0.1070(4) 0.2144(13)
O3_6 O 0.3116(3) 0.0296(4) 0.4034(11)
C5_6 C 0.3148(4) 0.1556(6) 0.873(2)
C6_6 C 0.3260(5) 0.2050(8) 0.806(2)
C7_6 C 0.3198(5) 0.1115(7) 0.7395(18)
C8_6 C 0.3244(6) 0.2447(8) 0.974(2)
O4_6 O 0.3054(3) 0.0548(4) 0.8216(14)
O9_6 O 0.4404(4) 0.3994(5) 0.4522(13)
H2_6 H 0.366044 0.189172 0.295516
C5_7 C 0.5075(5) 0.0185(4) 0.206(2)
C6_7 C 0.5457(6) 0.0073(5) 0.139(2)
C7_7 C 0.4584(5) 0.0135(5) 0.0728(18)
C8_7 C 0.5870(5) 0.0089(6) 0.307(2)
O4_7 O 0.4161(3) 0.0279(3) 0.1549(14)
H1_7 H 0.510205 0.0327107 0.371151
O3_7 O 0.3847(3) 0.0218(3) 0.7368(11)
C1_7 C 0.4925(5) 0.9815(4) 0.794(2)
C2_7 C 0.4543(6) 0.9927(5) 0.861(2)
C3_7 C 0.5416(5) 0.9865(5) 0.9272(18)
C4_7 C 0.4130(5) 0.9911(6) 0.693(2)
O2_7 O 0.3994(3) 0.9591(3) 0.5478(13)
H2_7 H 0.489795 0.967289 0.628849
C5_8 C 0.5111(6) 0.4925(5) 0.206(2)
C6_8 C 0.4617(8) 0.4543(6) 0.139(2)
C7_8 C 0.5552(7) 0.5416(5) 0.0728(18)
C8_8 C 0.4220(8) 0.4130(5) 0.307(2)
O4_8 O 0.6119(4) 0.5839(3) 0.1549(14)
H1_8 H 0.522506 0.489795 0.371151
C1_8 C 0.4889(6) 0.5075(5) 0.794(2)
C2_8 C 0.5383(8) 0.5457(6) 0.861(2)
C3_8 C 0.4448(7) 0.4584(5) 0.9272(18)
C4_8 C 0.5780(8) 0.5870(5) 0.693(2)
O2_8 O 0.5596(4) 0.6006(3) 0.5478(13)
O3_8 O 0.6370(4) 0.6153(3) 0.7368(11)
H2_8 H 0.477494 0.510205 0.628849
C1_9 C 0.0185(4) 0.5111(6) 0.794(2)
C2_9 C 0.0073(5) 0.4617(8) 0.861(2)
C3_9 C 0.0135(5) 0.5552(7) 0.9272(18)
C4_9 C 0.0089(6) 0.4220(8) 0.693(2)
O2_9 O 0.0409(3) 0.4404(4) 0.5478(13)
H2_9 H 0.0327107 0.522506 0.628849
C5_9 C 0.9815(4) 0.4889(6) 0.206(2)
C6_9 C 0.9927(5) 0.5383(8) 0.139(2)
C7_9 C 0.9865(5) 0.4448(7) 0.0728(18)
C8_9 C 0.9911(6) 0.5780(8) 0.307(2)
O4_9 O 0.9721(3) 0.3881(4) 0.1549(14)
H1_9 H 0.967289 0.477494 0.371151
O3_9 O 0.9782(3) 0.3630(4) 0.7368(11)
loop_
_geom_bond_atom_site_label_1
_geom_bond_atom_site_label_2
_geom_bond_site_symmetry_1
_geom_bond_site_symmetry_2
Cu1 O1 1_555 1_555
C1 C2 1_555 1_555
C2 C4 1_555 1_555
C3 C1 1_555 1_555
O1 C3 1_555 1_555
O3 C4 1_555 1_555
C5 C6 1_555 1_555
C6 C3 1_555 1_555
C7 C2 1_555 1_555
C8 C6 1_555 1_555
O4 C7 1_555 1_555
O5 C8 1_555 1_555
O6 Cu1 1_555 1_555
Cu7 O1 1_555 1_555
Cu4 O4 1_555 1_555
Cu5 O6 1_555 1_555
Cu8 O3 1_555 1_555
O7 Cu1 1_555 1_555
O9 Cu1 1_555 1_555
O12 Cu1 1_555 1_555
C5 C7 1_555 1_555
C8 O6 1_555 1_555
O4 Cu8 1_555 1_555
Cu7 O12 1_555 1_555
Cu5 O7 1_555 1_555
C5 H1 1_555 1_555
O2 Cu4 1_555 1_555
C1_2 C2_2 1_555 1_555
C2_2 C4_2 1_555 1_555
C3_2 C1_2 1_555 1_555
O1_2 C3_2 1_555 1_555
O3_2 C4_2 1_555 1_555
C5_2 C6_2 1_555 1_555
C6_2 C3_2 1_555 1_555
C7_2 C2_2 1_555 1_555
C8_2 C6_2 1_555 1_555
O4_2 C7_2 1_555 1_555
O5_2 C8_2 1_555 1_555
Cu7_2 O1_2 1_555 1_555
Cu4_2 O4_2 1_555 1_555
Cu8_2 O3_2 1_555 1_555
C5_2 C7_2 1_555 1_555
C8_2 O6_2 1_555 1_555
O4_2 Cu8_2 1_555 1_555
Cu7_2 O12_2 1_555 1_555
C5_2 H1_2 1_555 1_555
O2_2 Cu4_2 1_555 1_555
O7_2 Cu1_2 1_555 1_555
O9_2 Cu1_2 1_555 1_555
Cu5_2 O7_2 1_555 1_555
O7_3 Cu1_3 1_555 1_555
O9_3 Cu1_3 1_555 1_555
Cu5_3 O7_3 1_555 1_555
C1_3 C2_3 1_555 1_555
C2_3 C4_3 1_555 1_555
C3_3 C1_3 1_555 1_555
O1_3 C3_3 1_555 1_555
O3_3 C4_3 1_555 1_555
C5_3 C6_3 1_555 1_555
C6_3 C3_3 1_555 1_555
C7_3 C2_3 1_555 1_555
C8_3 C6_3 1_555 1_555
O4_3 C7_3 1_555 1_555
O5_3 C8_3 1_555 1_555
Cu7_3 O1_3 1_555 1_555
Cu4_3 O4_3 1_555 1_555
Cu8_3 O3_3 1_555 1_555
C5_3 C7_3 1_555 1_555
C8_3 O6_3 1_555 1_555
O4_3 Cu8_3 1_555 1_555
Cu7_3 O12_3 1_555 1_555
C5_3 H1_3 1_555 1_555
O2_3 Cu4_3 1_555 1_555
C1_4 C2_4 1_555 1_555
C2_4 C4_4 1_555 1_555
C3_4 C1_4 1_555 1_555
C4_4 O2_4 1_555 1_555
O7_2 C3_4 1_555 1_555
O3_4 C4_4 1_555 1_555
C5_4 C6_4 1_555 1_555
C6_4 C3_4 1_555 1_555
C7_4 C2_4 1_555 1_555
C8_4 C6_4 1_555 1_555
O4_4 C7_4 1_555 1_555
O11_2 Cu5_2 1_555 1_555
Cu6_3 O4_4 1_555 1_555
Cu8_3 O3_4 1_555 1_555
Cu4_3 O3_4 1_555 1_555
O9_4 Cu5_2 1_555 1_555
C5_4 C7_4 1_555 1_555
C8_4 O11_2 1_555 1_555
O4_4 Cu4_3 1_555 1_555
C1_4 H2_4 1_555 1_555
C1_5 C2_5 1_555 1_555
C2_5 C4_5 1_555 1_555
C3_5 C1_5 1_555 1_555
C4_5 O2_5 1_555 1_555
O7_3 C3_5 1_555 1_555
O3_5 C4_5 1_555 1_555
C5_5 C6_5 1_555 1_555
C6_5 C3_5 1_555 1_555
C7_5 C2_5 1_555 1_555
C8_5 C6_5 1_555 1_555
O4_5 C7_5 1_555 1_555
O11_3 Cu5_3 1_555 1_555
Cu6 O4_5 1_555 1_555
O9_5 Cu5_3 1_555 1_555
C5_5 C7_5 1_555 1_555
C8_5 O11_3 1_555 1_555
C1_5 H2_5 1_555 1_555
C1_6 C2_6 1_555 1_555
C2_6 C4_6 1_555 1_555
C3_6 C1_6 1_555 1_555
C4_6 O2_6 1_555 1_555
O7 C3_6 1_555 1_555
O3_6 C4_6 1_555 1_555
C5_6 C6_6 1_555 1_555
C6_6 C3_6 1_555 1_555
C7_6 C2_6 1_555 1_555
C8_6 C6_6 1_555 1_555
O4_6 C7_6 1_555 1_555
O11 Cu5 1_555 1_555
Cu6_2 O4_6 1_555 1_555
O8 Cu5 1_555 1_555
O9_6 Cu5 1_555 1_555
C5_6 C7_6 1_555 1_555
C8_6 O11 1_555 1_555
C1_6 H2_6 1_555 1_555
C5_7 C6_7 1_555 1_555
C8_7 C6_7 1_555 1_555
O4_7 C7_7 1_555 1_555
O9_5 C8_7 1_555 1_555
C5_7 C7_7 1_555 1_555
C5_7 H1_7 1_555 1_555
Cu6_2 O3_7 1_555 1_555
C1_7 C2_7 1_555 1_555
C2_7 C4_7 1_555 1_555
C3_7 C1_7 1_555 1_555
C4_7 O2_7 1_555 1_555
O8_3 C3_7 1_555 1_555
O2_7 Cu8_2 1_555 1_555
C1_7 H2_7 1_555 1_555
C5_8 C6_8 1_555 1_555
C8_8 C6_8 1_555 1_555
O4_8 C7_8 1_555 1_555
O9_6 C8_8 1_555 1_555
Cu8_3 O4_8 1_555 1_555
C5_8 C7_8 1_555 1_555
C8_8 O12 1_555 1_555
C5_8 H1_8 1_555 1_555
C1_8 C2_8 1_555 1_555
C2_8 C4_8 1_555 1_555
C3_8 C1_8 1_555 1_555
C4_8 O2_8 1_555 1_555
O8 C3_8 1_555 1_555
O2_8 Cu8_3 1_555 1_555
O3_8 C4_8 1_555 1_555
Cu4_3 O3_8 1_555 1_555
Cu6_3 O3_8 1_555 1_555
C1_8 H2_8 1_555 1_555
C1_9 C2_9 1_555 1_555
C2_9 C4_9 1_555 1_555
C3_9 C1_9 1_555 1_555
C4_9 O2_9 1_555 1_555
O8_2 C3_9 1_555 1_555
O2_9 Cu8 1_555 1_555
C1_9 H2_9 1_555 1_555
C5_9 C6_9 1_555 1_555
C8_9 C6_9 1_555 1_555
O4_9 C7_9 1_555 1_555
O9_4 C8_9 1_555 1_555
C5_9 C7_9 1_555 1_555
C5_9 H1_9 1_555 1_555
Cu6 O3_9 1_555 1_555

#END
