
###############################################################################
#
# This file contains modified crystal structure data generated from the
# MOF subset of the Cambridge Structural Database (CSD) v543 
# hosted by the Cambridge Crystallographic Data Centre (CCDC).
#
# This work is licensed under the Creative Commons
# Attribution-NonCommercial-ShareAlike 4.0 International License.
# To view a copy of this license, visit
# http://creativecommons.org/licenses/by-nc-sa/4.0/
# or send a letter to
# Creative Commons, PO Box 1866, Mountain View, CA 94042, USA.
#
# CIF created using the CSD Python API on 29 September 2022
# The structure has been converted into the P1 space group
# The structure has a 3D framework
# The original CSD entry MOLLAD13 is in the rhombohedral crystal system
# The framework has been calculated to contain at least 10.0% void space
# The void calculation uses a probe of radius 1.32A, grid spacing 0.4
# H atom positions have been added when not included in the experimental data
#
###############################################################################

data_MOLLAD13
_chemical_formula_moiety         '(C72 H18 Cu7 O44)n'
_symmetry_cell_setting           triclinic
_symmetry_space_group_name_H-M   'P 1'
_symmetry_Int_Tables_number      1
_space_group_name_Hall           'P 1'
loop_
_symmetry_equiv_pos_site_id
_symmetry_equiv_pos_as_xyz
1 x,y,z
_cell_length_a                   25.9230(3)
_cell_length_b                   25.9230(3)
_cell_length_c                   6.27802(9)
_cell_angle_alpha                90
_cell_angle_beta                 90
_cell_angle_gamma                120
_cell_volume                     3653.62
loop_
_atom_site_label
_atom_site_type_symbol
_atom_site_fract_x
_atom_site_fract_y
_atom_site_fract_z
Cu7 Cu 0.31818(8) 0.37168(6) 0.0085(3)
Cu1 Cu 0.29499(6) 0.27984(6) 0.3418(3)
C1 C 0.1597(5) 0.3150(4) 0.126(2)
C2 C 0.1209(5) 0.3260(5) 0.194(2)
C3 C 0.2084(5) 0.3198(5) 0.2602(17)
C4 C 0.0796(5) 0.3245(6) 0.0249(19)
O1 O 0.2507(3) 0.3056(3) 0.1785(13)
O3 O 0.0515(3) 0.3549(3) 0.0694(11)
C5 C 0.1736(5) 0.3517(4) 0.541(2)
C6 C 0.2124(5) 0.3407(5) 0.473(2)
C7 C 0.1249(5) 0.3469(5) 0.4065(17)
C8 C 0.2537(5) 0.3422(6) 0.6418(19)
O4 O 0.0826(3) 0.3611(3) 0.4882(13)
O5 O 0.2675(3) 0.3747(3) 0.7879(13)
O6 O 0.2818(3) 0.3118(3) 0.5973(11)
Cu4 Cu 0.01515(8) 0.29499(6) 0.6582(3)
Cu5 Cu 0.38683(6) 0.34848(8) 0.6751(3)
Cu8 Cu 0.03834(6) 0.38683(6) 0.3249(3)
O7 O 0.3611(3) 0.2784(4) 0.5118(13)
O9 O 0.2920(3) 0.2262(4) 0.1212(13)
O12 O 0.3633(4) 0.3848(3) 0.2639(11)
H2 H 0.17599 0.365363 0.706034
O2 O 0.0658(3) 0.2920(3) 0.8788(13)
O8 O 0.3882(4) 0.4160(3) 0.8452(13)
O11 O 0.3549(3) 0.3034(4) 0.9306(11)
H1 H 0.157343 0.301303 0.960633
Cu6 Cu 0.94651(6) 0.31818(8) 0.9915(3)
Cu6_2 Cu 0.37168(10) 0.05349(6) 0.9915(3)
Cu7_2 Cu 0.05349(10) 0.68182(8) 0.0085(3)
C1_2 C 0.1553(6) 0.8403(5) 0.126(2)
C2_2 C 0.2051(7) 0.8791(5) 0.194(2)
C3_2 C 0.1114(7) 0.7916(5) 0.2602(17)
C4_2 C 0.2449(8) 0.9204(5) 0.0249(19)
O1_2 O 0.0549(4) 0.7493(3) 0.1785(13)
O3_2 O 0.3034(4) 0.9485(3) 0.0694(11)
C5_2 C 0.1780(6) 0.8264(5) 0.541(2)
C6_2 C 0.1282(7) 0.7876(5) 0.473(2)
C7_2 C 0.2219(7) 0.8751(5) 0.4065(17)
C8_2 C 0.0884(8) 0.7463(5) 0.6418(19)
O4_2 O 0.2784(4) 0.9174(3) 0.4882(13)
O5_2 O 0.1071(4) 0.7325(3) 0.7879(13)
O6_2 O 0.0299(4) 0.7182(3) 0.5973(11)
Cu4_2 Cu 0.27984(10) 0.98485(8) 0.6582(3)
Cu8_2 Cu 0.34848(8) 0.96166(6) 0.3249(3)
O12_2 O 0.0216(5) 0.6367(4) 0.2639(11)
H2_2 H 0.189373 0.82401 0.706034
O2_2 O 0.2262(4) 0.9342(3) 0.8788(13)
O8_2 O 0.0277(5) 0.6118(4) 0.8452(13)
H1_2 H 0.14396 0.842657 0.960633
Cu1_2 Cu 0.98485(8) 0.70501(6) 0.3418(3)
Cu5_2 Cu 0.96166(10) 0.61317(6) 0.6751(3)
O7_2 O 0.9174(5) 0.6389(3) 0.5118(13)
O9_2 O 0.9342(5) 0.7080(3) 0.1212(13)
O11_2 O 0.9485(5) 0.6451(3) 0.9306(11)
Cu1_3 Cu 0.72016(6) 0.01515(8) 0.3418(3)
Cu5_3 Cu 0.65152(8) 0.03834(10) 0.6751(3)
O7_3 O 0.7216(4) 0.0826(5) 0.5118(13)
O9_3 O 0.7738(4) 0.0658(5) 0.1212(13)
O11_3 O 0.6966(4) 0.0515(5) 0.9306(11)
Cu7_3 Cu 0.62832(6) 0.94651(10) 0.0085(3)
C1_3 C 0.6850(4) 0.8447(6) 0.126(2)
C2_3 C 0.6740(5) 0.7949(7) 0.194(2)
C3_3 C 0.6802(5) 0.8886(7) 0.2602(17)
C4_3 C 0.6755(6) 0.7551(8) 0.0249(19)
O1_3 O 0.6944(3) 0.9451(4) 0.1785(13)
O3_3 O 0.6451(3) 0.6966(4) 0.0694(11)
C5_3 C 0.6483(4) 0.8220(6) 0.541(2)
C6_3 C 0.6593(5) 0.8718(7) 0.473(2)
C7_3 C 0.6531(5) 0.7781(7) 0.4065(17)
C8_3 C 0.6578(6) 0.9116(8) 0.6418(19)
O4_3 O 0.6389(3) 0.7216(4) 0.4882(13)
O5_3 O 0.6253(3) 0.8929(4) 0.7879(13)
O6_3 O 0.6882(3) 0.9701(4) 0.5973(11)
Cu4_3 Cu 0.70501(6) 0.72016(10) 0.6582(3)
Cu8_3 Cu 0.61317(6) 0.65152(8) 0.3249(3)
O12_3 O 0.6152(3) 0.9784(5) 0.2639(11)
H2_3 H 0.634637 0.810627 0.706034
O2_3 O 0.7080(3) 0.7738(4) 0.8788(13)
Cu6_3 Cu 0.68182(8) 0.62832(10) 0.9915(3)
O8_3 O 0.5840(3) 0.9723(5) 0.8452(13)
H1_3 H 0.698697 0.85604 0.960633
H2_4 H 0.842657 0.698697 0.0393672
C1_4 C 0.8264(5) 0.6483(4) 0.459(2)
C2_4 C 0.7876(5) 0.6593(5) 0.527(2)
C3_4 C 0.8751(5) 0.6531(5) 0.5935(17)
C4_4 C 0.7463(5) 0.6578(6) 0.3582(19)
O2_4 O 0.7325(3) 0.6253(3) 0.2121(13)
O3_4 O 0.7182(3) 0.6882(3) 0.4027(11)
C5_4 C 0.8403(5) 0.6850(4) 0.874(2)
C6_4 C 0.8791(5) 0.6740(5) 0.806(2)
C7_4 C 0.7916(5) 0.6802(5) 0.7398(17)
C8_4 C 0.9204(5) 0.6755(6) 0.9751(19)
O4_4 O 0.7493(3) 0.6944(3) 0.8215(13)
O9_4 O 0.9587(3) 0.5595(4) 0.4545(13)
H1_4 H 0.82401 0.634637 0.293966
H2_5 H 0.85604 0.157343 0.0393672
C1_5 C 0.8220(6) 0.1736(5) 0.459(2)
C2_5 C 0.8718(7) 0.2124(5) 0.527(2)
C3_5 C 0.7781(7) 0.1249(5) 0.5935(17)
C4_5 C 0.9116(8) 0.2537(5) 0.3582(19)
O2_5 O 0.8929(4) 0.2675(3) 0.2121(13)
O3_5 O 0.9701(4) 0.2818(3) 0.4027(11)
C5_5 C 0.8447(6) 0.1597(5) 0.874(2)
C6_5 C 0.7949(7) 0.1209(5) 0.806(2)
C7_5 C 0.8886(7) 0.2084(5) 0.7398(17)
C8_5 C 0.7551(8) 0.0796(5) 0.9751(19)
O4_5 O 0.9451(4) 0.2507(3) 0.8215(13)
O9_5 O 0.6009(5) 0.0413(3) 0.4545(13)
H1_5 H 0.810627 0.17599 0.293966
H2_6 H 0.301303 0.14396 0.0393672
C1_6 C 0.3517(4) 0.1780(6) 0.459(2)
C2_6 C 0.3407(5) 0.1282(7) 0.527(2)
C3_6 C 0.3469(5) 0.2219(7) 0.5935(17)
C4_6 C 0.3422(6) 0.0884(8) 0.3582(19)
O2_6 O 0.3747(3) 0.1071(4) 0.2121(13)
O3_6 O 0.3118(3) 0.0299(4) 0.4027(11)
C5_6 C 0.3150(4) 0.1553(6) 0.874(2)
C6_6 C 0.3260(5) 0.2051(7) 0.806(2)
C7_6 C 0.3198(5) 0.1114(7) 0.7398(17)
C8_6 C 0.3245(6) 0.2449(8) 0.9751(19)
O4_6 O 0.3056(3) 0.0549(4) 0.8215(13)
O9_6 O 0.4405(4) 0.3991(5) 0.4545(13)
H1_6 H 0.365363 0.189373 0.293966
C5_7 C 0.5070(5) 0.0183(4) 0.207(2)
C6_7 C 0.5458(5) 0.0073(5) 0.139(2)
C7_7 C 0.4583(5) 0.0135(5) 0.0731(17)
C8_7 C 0.5871(5) 0.0088(6) 0.3084(19)
O4_7 O 0.4160(3) 0.0277(3) 0.1548(13)
H2_7 H 0.509323 0.0320299 0.372701
O3_7 O 0.3848(3) 0.0216(3) 0.7361(11)
C1_7 C 0.4930(5) 0.9817(4) 0.793(2)
C2_7 C 0.4542(5) 0.9927(5) 0.861(2)
C3_7 C 0.5417(5) 0.9865(5) 0.9269(17)
C4_7 C 0.4129(5) 0.9912(6) 0.6916(19)
O2_7 O 0.3991(3) 0.9587(3) 0.5455(13)
H1_7 H 0.490677 0.96797 0.627299
C5_8 C 0.5114(6) 0.4930(5) 0.207(2)
C6_8 C 0.4616(7) 0.4542(5) 0.139(2)
C7_8 C 0.5553(7) 0.5417(5) 0.0731(17)
C8_8 C 0.4218(8) 0.4129(5) 0.3084(19)
O4_8 O 0.6118(4) 0.5840(3) 0.1548(13)
H2_8 H 0.522707 0.490677 0.372701
C1_8 C 0.4886(6) 0.5070(5) 0.793(2)
C2_8 C 0.5384(7) 0.5458(5) 0.861(2)
C3_8 C 0.4447(7) 0.4583(5) 0.9269(17)
C4_8 C 0.5782(8) 0.5871(5) 0.6916(19)
O2_8 O 0.5595(4) 0.6009(3) 0.5455(13)
O3_8 O 0.6367(4) 0.6152(3) 0.7361(11)
H1_8 H 0.477293 0.509323 0.627299
C1_9 C 0.0183(4) 0.5114(6) 0.793(2)
C2_9 C 0.0073(5) 0.4616(7) 0.861(2)
C3_9 C 0.0135(5) 0.5553(7) 0.9269(17)
C4_9 C 0.0088(6) 0.4218(8) 0.6916(19)
O2_9 O 0.0413(3) 0.4405(4) 0.5455(13)
H1_9 H 0.0320299 0.522707 0.627299
C5_9 C 0.9817(4) 0.4886(6) 0.207(2)
C6_9 C 0.9927(5) 0.5384(7) 0.139(2)
C7_9 C 0.9865(5) 0.4447(7) 0.0731(17)
C8_9 C 0.9912(6) 0.5782(8) 0.3084(19)
O4_9 O 0.9723(3) 0.3882(4) 0.1548(13)
H2_9 H 0.96797 0.477293 0.372701
O3_9 O 0.9784(3) 0.3633(4) 0.7361(11)
loop_
_geom_bond_atom_site_label_1
_geom_bond_atom_site_label_2
_geom_bond_site_symmetry_1
_geom_bond_site_symmetry_2
Cu1 O1 1_555 1_555
C1 C2 1_555 1_555
C2 C4 1_555 1_555
C3 C1 1_555 1_555
O1 C3 1_555 1_555
O3 C4 1_555 1_555
C5 C6 1_555 1_555
C6 C3 1_555 1_555
C7 C2 1_555 1_555
C8 C6 1_555 1_555
O4 C7 1_555 1_555
O5 C8 1_555 1_555
O6 Cu1 1_555 1_555
Cu7 O1 1_555 1_555
Cu4 O4 1_555 1_555
Cu5 O6 1_555 1_555
Cu8 O3 1_555 1_555
O7 Cu1 1_555 1_555
O9 Cu1 1_555 1_555
O12 Cu1 1_555 1_555
C5 C7 1_555 1_555
C8 O6 1_555 1_555
O4 Cu8 1_555 1_555
Cu7 O12 1_555 1_555
Cu5 O7 1_555 1_555
C5 H2 1_555 1_555
O2 Cu4 1_555 1_555
C1_2 C2_2 1_555 1_555
C2_2 C4_2 1_555 1_555
C3_2 C1_2 1_555 1_555
O1_2 C3_2 1_555 1_555
O3_2 C4_2 1_555 1_555
C5_2 C6_2 1_555 1_555
C6_2 C3_2 1_555 1_555
C7_2 C2_2 1_555 1_555
C8_2 C6_2 1_555 1_555
O4_2 C7_2 1_555 1_555
O5_2 C8_2 1_555 1_555
Cu7_2 O1_2 1_555 1_555
Cu4_2 O4_2 1_555 1_555
Cu8_2 O3_2 1_555 1_555
C5_2 C7_2 1_555 1_555
C8_2 O6_2 1_555 1_555
O4_2 Cu8_2 1_555 1_555
Cu7_2 O12_2 1_555 1_555
C5_2 H2_2 1_555 1_555
O2_2 Cu4_2 1_555 1_555
O7_2 Cu1_2 1_555 1_555
O9_2 Cu1_2 1_555 1_555
Cu5_2 O7_2 1_555 1_555
O7_3 Cu1_3 1_555 1_555
O9_3 Cu1_3 1_555 1_555
Cu5_3 O7_3 1_555 1_555
C1_3 C2_3 1_555 1_555
C2_3 C4_3 1_555 1_555
C3_3 C1_3 1_555 1_555
O1_3 C3_3 1_555 1_555
O3_3 C4_3 1_555 1_555
C5_3 C6_3 1_555 1_555
C6_3 C3_3 1_555 1_555
C7_3 C2_3 1_555 1_555
C8_3 C6_3 1_555 1_555
O4_3 C7_3 1_555 1_555
O5_3 C8_3 1_555 1_555
Cu7_3 O1_3 1_555 1_555
Cu4_3 O4_3 1_555 1_555
Cu8_3 O3_3 1_555 1_555
C5_3 C7_3 1_555 1_555
C8_3 O6_3 1_555 1_555
O4_3 Cu8_3 1_555 1_555
Cu7_3 O12_3 1_555 1_555
C5_3 H2_3 1_555 1_555
O2_3 Cu4_3 1_555 1_555
C1_4 C2_4 1_555 1_555
C2_4 C4_4 1_555 1_555
C3_4 C1_4 1_555 1_555
C4_4 O2_4 1_555 1_555
O7_2 C3_4 1_555 1_555
O3_4 C4_4 1_555 1_555
C5_4 C6_4 1_555 1_555
C6_4 C3_4 1_555 1_555
C7_4 C2_4 1_555 1_555
C8_4 C6_4 1_555 1_555
O4_4 C7_4 1_555 1_555
O11_2 Cu5_2 1_555 1_555
Cu6_3 O4_4 1_555 1_555
Cu8_3 O3_4 1_555 1_555
Cu4_3 O3_4 1_555 1_555
O9_4 Cu5_2 1_555 1_555
C5_4 C7_4 1_555 1_555
C8_4 O11_2 1_555 1_555
O4_4 Cu4_3 1_555 1_555
C1_4 H1_4 1_555 1_555
C1_5 C2_5 1_555 1_555
C2_5 C4_5 1_555 1_555
C3_5 C1_5 1_555 1_555
C4_5 O2_5 1_555 1_555
O7_3 C3_5 1_555 1_555
O3_5 C4_5 1_555 1_555
C5_5 C6_5 1_555 1_555
C6_5 C3_5 1_555 1_555
C7_5 C2_5 1_555 1_555
C8_5 C6_5 1_555 1_555
O4_5 C7_5 1_555 1_555
O11_3 Cu5_3 1_555 1_555
Cu6 O4_5 1_555 1_555
O9_5 Cu5_3 1_555 1_555
C5_5 C7_5 1_555 1_555
C8_5 O11_3 1_555 1_555
C1_5 H1_5 1_555 1_555
C1_6 C2_6 1_555 1_555
C2_6 C4_6 1_555 1_555
C3_6 C1_6 1_555 1_555
C4_6 O2_6 1_555 1_555
O7 C3_6 1_555 1_555
O3_6 C4_6 1_555 1_555
C5_6 C6_6 1_555 1_555
C6_6 C3_6 1_555 1_555
C7_6 C2_6 1_555 1_555
C8_6 C6_6 1_555 1_555
O4_6 C7_6 1_555 1_555
O11 Cu5 1_555 1_555
Cu6_2 O4_6 1_555 1_555
O8 Cu5 1_555 1_555
O9_6 Cu5 1_555 1_555
C5_6 C7_6 1_555 1_555
C8_6 O11 1_555 1_555
C1_6 H1_6 1_555 1_555
C5_7 C6_7 1_555 1_555
C8_7 C6_7 1_555 1_555
O4_7 C7_7 1_555 1_555
O9_5 C8_7 1_555 1_555
C5_7 C7_7 1_555 1_555
C5_7 H2_7 1_555 1_555
Cu6_2 O3_7 1_555 1_555
C1_7 C2_7 1_555 1_555
C2_7 C4_7 1_555 1_555
C3_7 C1_7 1_555 1_555
C4_7 O2_7 1_555 1_555
O8_3 C3_7 1_555 1_555
O2_7 Cu8_2 1_555 1_555
C1_7 H1_7 1_555 1_555
C5_8 C6_8 1_555 1_555
C8_8 C6_8 1_555 1_555
O4_8 C7_8 1_555 1_555
O9_6 C8_8 1_555 1_555
Cu8_3 O4_8 1_555 1_555
C5_8 C7_8 1_555 1_555
C8_8 O12 1_555 1_555
C5_8 H2_8 1_555 1_555
C1_8 C2_8 1_555 1_555
C2_8 C4_8 1_555 1_555
C3_8 C1_8 1_555 1_555
C4_8 O2_8 1_555 1_555
O8 C3_8 1_555 1_555
O2_8 Cu8_3 1_555 1_555
O3_8 C4_8 1_555 1_555
Cu4_3 O3_8 1_555 1_555
Cu6_3 O3_8 1_555 1_555
C1_8 H1_8 1_555 1_555
C1_9 C2_9 1_555 1_555
C2_9 C4_9 1_555 1_555
C3_9 C1_9 1_555 1_555
C4_9 O2_9 1_555 1_555
O8_2 C3_9 1_555 1_555
O2_9 Cu8 1_555 1_555
C1_9 H1_9 1_555 1_555
C5_9 C6_9 1_555 1_555
C8_9 C6_9 1_555 1_555
O4_9 C7_9 1_555 1_555
O9_4 C8_9 1_555 1_555
C5_9 C7_9 1_555 1_555
C5_9 H2_9 1_555 1_555
Cu6 O3_9 1_555 1_555

#END
