
###############################################################################
#
# This file contains modified crystal structure data generated from the
# MOF subset of the Cambridge Structural Database (CSD) v543 
# hosted by the Cambridge Crystallographic Data Centre (CCDC).
#
# This work is licensed under the Creative Commons
# Attribution-NonCommercial-ShareAlike 4.0 International License.
# To view a copy of this license, visit
# http://creativecommons.org/licenses/by-nc-sa/4.0/
# or send a letter to
# Creative Commons, PO Box 1866, Mountain View, CA 94042, USA.
#
# CIF created using the CSD Python API on 29 September 2022
# The structure has been converted into the P1 space group
# The structure has a 3D framework
# The original CSD entry MOLLAD15 is in the rhombohedral crystal system
# The framework has been calculated to contain at least 10.0% void space
# The void calculation uses a probe of radius 1.32A, grid spacing 0.4
# H atom positions have been added when not included in the experimental data
#
###############################################################################

data_MOLLAD15
_chemical_formula_moiety         '(C72 H18 Cu7 O44)n'
_symmetry_cell_setting           triclinic
_symmetry_space_group_name_H-M   'P 1'
_symmetry_Int_Tables_number      1
_space_group_name_Hall           'P 1'
loop_
_symmetry_equiv_pos_site_id
_symmetry_equiv_pos_as_xyz
1 x,y,z
_cell_length_a                   25.9234(3)
_cell_length_b                   25.9234(3)
_cell_length_c                   6.27724(9)
_cell_angle_alpha                90
_cell_angle_beta                 90
_cell_angle_gamma                120
_cell_volume                     3653.28
loop_
_atom_site_label
_atom_site_type_symbol
_atom_site_fract_x
_atom_site_fract_y
_atom_site_fract_z
Cu7 Cu 0.31815(8) 0.37169(6) 0.0085(3)
Cu1 Cu 0.29498(6) 0.27980(6) 0.3418(3)
C1 C 0.1598(5) 0.3151(4) 0.1261(19)
C2 C 0.1209(5) 0.3260(5) 0.194(2)
C3 C 0.2084(5) 0.3197(5) 0.2602(17)
C4 C 0.0796(5) 0.3246(6) 0.0247(19)
O1 O 0.2508(3) 0.3057(3) 0.1784(13)
O3 O 0.0515(3) 0.3550(3) 0.0694(11)
C5 C 0.1735(5) 0.3516(4) 0.5406(19)
C6 C 0.2124(5) 0.3407(5) 0.473(2)
C7 C 0.1249(5) 0.3470(5) 0.4065(17)
C8 C 0.2537(5) 0.3421(6) 0.6420(19)
O4 O 0.0825(3) 0.3610(3) 0.4883(13)
O5 O 0.2676(3) 0.3747(3) 0.7892(13)
O6 O 0.2818(3) 0.3117(3) 0.5973(11)
Cu4 Cu 0.01518(8) 0.29498(6) 0.6582(3)
Cu5 Cu 0.38687(6) 0.34851(8) 0.6751(3)
Cu8 Cu 0.03835(6) 0.38687(6) 0.3249(3)
O7 O 0.3610(3) 0.2784(4) 0.5117(13)
O9 O 0.2920(3) 0.2263(4) 0.1225(13)
O12 O 0.3632(4) 0.3848(3) 0.2639(11)
H2 H 0.175761 0.365047 0.706172
O2 O 0.0657(3) 0.2920(3) 0.8775(13)
O8 O 0.3882(4) 0.4159(3) 0.8451(13)
O11 O 0.3550(3) 0.3035(4) 0.9306(11)
H1 H 0.157572 0.30162 0.960495
Cu6 Cu 0.94647(6) 0.31815(8) 0.9915(3)
Cu6_2 Cu 0.37169(10) 0.05353(6) 0.9915(3)
Cu7_2 Cu 0.05353(10) 0.68185(8) 0.0085(3)
C1_2 C 0.1553(6) 0.8402(5) 0.1261(19)
C2_2 C 0.2051(7) 0.8791(5) 0.194(2)
C3_2 C 0.1113(7) 0.7916(5) 0.2602(17)
C4_2 C 0.2450(8) 0.9204(5) 0.0247(19)
O1_2 O 0.0549(4) 0.7492(3) 0.1784(13)
O3_2 O 0.3035(4) 0.9485(3) 0.0694(11)
C5_2 C 0.1780(6) 0.8265(5) 0.5406(19)
C6_2 C 0.1282(7) 0.7876(5) 0.473(2)
C7_2 C 0.2220(7) 0.8751(5) 0.4065(17)
C8_2 C 0.0883(8) 0.7463(5) 0.6420(19)
O4_2 O 0.2784(4) 0.9175(3) 0.4883(13)
O5_2 O 0.1070(4) 0.7324(3) 0.7892(13)
O6_2 O 0.0298(4) 0.7182(3) 0.5973(11)
Cu4_2 Cu 0.27980(10) 0.98482(8) 0.6582(3)
Cu8_2 Cu 0.34851(8) 0.96165(6) 0.3249(3)
O12_2 O 0.0217(5) 0.6368(4) 0.2639(11)
H2_2 H 0.189286 0.824239 0.706172
O2_2 O 0.2263(4) 0.9343(3) 0.8775(13)
O8_2 O 0.0276(5) 0.6118(4) 0.8451(13)
H1_2 H 0.144048 0.842428 0.960495
Cu1_2 Cu 0.98482(8) 0.70502(6) 0.3418(3)
Cu5_2 Cu 0.96165(10) 0.61313(6) 0.6751(3)
O7_2 O 0.9175(5) 0.6390(3) 0.5117(13)
O9_2 O 0.9343(5) 0.7080(3) 0.1225(13)
O11_2 O 0.9485(5) 0.6450(3) 0.9306(11)
Cu1_3 Cu 0.72020(6) 0.01518(8) 0.3418(3)
Cu5_3 Cu 0.65149(8) 0.03835(10) 0.6751(3)
O7_3 O 0.7216(4) 0.0825(5) 0.5117(13)
O9_3 O 0.7737(4) 0.0657(5) 0.1225(13)
O11_3 O 0.6965(4) 0.0515(5) 0.9306(11)
Cu7_3 Cu 0.62831(6) 0.94647(10) 0.0085(3)
C1_3 C 0.6849(4) 0.8447(6) 0.1261(19)
C2_3 C 0.6740(5) 0.7949(7) 0.194(2)
C3_3 C 0.6803(5) 0.8887(7) 0.2602(17)
C4_3 C 0.6754(6) 0.7550(8) 0.0247(19)
O1_3 O 0.6943(3) 0.9451(4) 0.1784(13)
O3_3 O 0.6450(3) 0.6965(4) 0.0694(11)
C5_3 C 0.6484(4) 0.8220(6) 0.5406(19)
C6_3 C 0.6593(5) 0.8718(7) 0.473(2)
C7_3 C 0.6530(5) 0.7780(7) 0.4065(17)
C8_3 C 0.6579(6) 0.9117(8) 0.6420(19)
O4_3 O 0.6390(3) 0.7216(4) 0.4883(13)
O5_3 O 0.6253(3) 0.8930(4) 0.7892(13)
O6_3 O 0.6883(3) 0.9702(4) 0.5973(11)
Cu4_3 Cu 0.70502(6) 0.72020(10) 0.6582(3)
Cu8_3 Cu 0.61313(6) 0.65149(8) 0.3249(3)
O12_3 O 0.6152(3) 0.9783(5) 0.2639(11)
H2_3 H 0.634953 0.810714 0.706172
O2_3 O 0.7080(3) 0.7737(4) 0.8775(13)
Cu6_3 Cu 0.68185(8) 0.62831(10) 0.9915(3)
O8_3 O 0.5841(3) 0.9724(5) 0.8451(13)
H1_3 H 0.69838 0.855952 0.960495
H2_4 H 0.842428 0.69838 0.0395053
C1_4 C 0.8265(5) 0.6484(4) 0.4594(19)
C2_4 C 0.7876(5) 0.6593(5) 0.527(2)
C3_4 C 0.8751(5) 0.6530(5) 0.5935(17)
C4_4 C 0.7463(5) 0.6579(6) 0.3580(19)
O2_4 O 0.7324(3) 0.6253(3) 0.2108(13)
O3_4 O 0.7182(3) 0.6883(3) 0.4027(11)
C5_4 C 0.8402(5) 0.6849(4) 0.8739(19)
C6_4 C 0.8791(5) 0.6740(5) 0.806(2)
C7_4 C 0.7916(5) 0.6803(5) 0.7398(17)
C8_4 C 0.9204(5) 0.6754(6) 0.9753(19)
O4_4 O 0.7492(3) 0.6943(3) 0.8216(13)
O9_4 O 0.9587(3) 0.5596(4) 0.4558(13)
H1_4 H 0.824239 0.634953 0.293828
H2_5 H 0.855952 0.157572 0.0395053
C1_5 C 0.8220(6) 0.1735(5) 0.4594(19)
C2_5 C 0.8718(7) 0.2124(5) 0.527(2)
C3_5 C 0.7780(7) 0.1249(5) 0.5935(17)
C4_5 C 0.9117(8) 0.2537(5) 0.3580(19)
O2_5 O 0.8930(4) 0.2676(3) 0.2108(13)
O3_5 O 0.9702(4) 0.2818(3) 0.4027(11)
C5_5 C 0.8447(6) 0.1598(5) 0.8739(19)
C6_5 C 0.7949(7) 0.1209(5) 0.806(2)
C7_5 C 0.8887(7) 0.2084(5) 0.7398(17)
C8_5 C 0.7550(8) 0.0796(5) 0.9753(19)
O4_5 O 0.9451(4) 0.2508(3) 0.8216(13)
O9_5 O 0.6010(5) 0.0413(3) 0.4558(13)
H1_5 H 0.810714 0.175761 0.293828
H2_6 H 0.30162 0.144048 0.0395053
C1_6 C 0.3516(4) 0.1780(6) 0.4594(19)
C2_6 C 0.3407(5) 0.1282(7) 0.527(2)
C3_6 C 0.3470(5) 0.2220(7) 0.5935(17)
C4_6 C 0.3421(6) 0.0883(8) 0.3580(19)
O2_6 O 0.3747(3) 0.1070(4) 0.2108(13)
O3_6 O 0.3117(3) 0.0298(4) 0.4027(11)
C5_6 C 0.3151(4) 0.1553(6) 0.8739(19)
C6_6 C 0.3260(5) 0.2051(7) 0.806(2)
C7_6 C 0.3197(5) 0.1113(7) 0.7398(17)
C8_6 C 0.3246(6) 0.2450(8) 0.9753(19)
O4_6 O 0.3057(3) 0.0549(4) 0.8216(13)
O9_6 O 0.4404(4) 0.3990(5) 0.4558(13)
H1_6 H 0.365047 0.189286 0.293828
C5_7 C 0.5069(5) 0.0182(4) 0.2072(19)
C6_7 C 0.5458(5) 0.0073(5) 0.139(2)
C7_7 C 0.4583(5) 0.0136(5) 0.0731(17)
C8_7 C 0.5871(5) 0.0087(6) 0.3086(19)
O4_7 O 0.4159(3) 0.0276(3) 0.1549(13)
H2_7 H 0.509094 0.0317133 0.372839
O3_7 O 0.3848(3) 0.0217(3) 0.7361(11)
C1_7 C 0.4931(5) 0.9818(4) 0.7928(19)
C2_7 C 0.4542(5) 0.9927(5) 0.861(2)
C3_7 C 0.5417(5) 0.9864(5) 0.9269(17)
C4_7 C 0.4129(5) 0.9913(6) 0.6914(19)
O2_7 O 0.3990(3) 0.9587(3) 0.5442(13)
H1_7 H 0.490906 0.968287 0.627161
C5_8 C 0.5114(6) 0.4931(5) 0.2072(19)
C6_8 C 0.4616(7) 0.4542(5) 0.139(2)
C7_8 C 0.5554(7) 0.5417(5) 0.0731(17)
C8_8 C 0.4217(8) 0.4129(5) 0.3086(19)
O4_8 O 0.6118(4) 0.5841(3) 0.1549(13)
H2_8 H 0.522619 0.490906 0.372839
C1_8 C 0.4886(6) 0.5069(5) 0.7928(19)
C2_8 C 0.5384(7) 0.5458(5) 0.861(2)
C3_8 C 0.4446(7) 0.4583(5) 0.9269(17)
C4_8 C 0.5783(8) 0.5871(5) 0.6914(19)
O2_8 O 0.5596(4) 0.6010(3) 0.5442(13)
O3_8 O 0.6368(4) 0.6152(3) 0.7361(11)
H1_8 H 0.477381 0.509094 0.627161
C1_9 C 0.0182(4) 0.5114(6) 0.7928(19)
C2_9 C 0.0073(5) 0.4616(7) 0.861(2)
C3_9 C 0.0136(5) 0.5554(7) 0.9269(17)
C4_9 C 0.0087(6) 0.4217(8) 0.6914(19)
O2_9 O 0.0413(3) 0.4404(4) 0.5442(13)
H1_9 H 0.0317133 0.522619 0.627161
C5_9 C 0.9818(4) 0.4886(6) 0.2072(19)
C6_9 C 0.9927(5) 0.5384(7) 0.139(2)
C7_9 C 0.9864(5) 0.4446(7) 0.0731(17)
C8_9 C 0.9913(6) 0.5783(8) 0.3086(19)
O4_9 O 0.9724(3) 0.3882(4) 0.1549(13)
H2_9 H 0.968287 0.477381 0.372839
O3_9 O 0.9783(3) 0.3632(4) 0.7361(11)
loop_
_geom_bond_atom_site_label_1
_geom_bond_atom_site_label_2
_geom_bond_site_symmetry_1
_geom_bond_site_symmetry_2
Cu1 O1 1_555 1_555
C1 C2 1_555 1_555
C2 C4 1_555 1_555
C3 C1 1_555 1_555
O1 C3 1_555 1_555
O3 C4 1_555 1_555
C5 C6 1_555 1_555
C6 C3 1_555 1_555
C7 C2 1_555 1_555
C8 C6 1_555 1_555
O4 C7 1_555 1_555
O5 C8 1_555 1_555
O6 Cu1 1_555 1_555
Cu7 O1 1_555 1_555
Cu4 O4 1_555 1_555
Cu5 O6 1_555 1_555
Cu8 O3 1_555 1_555
O7 Cu1 1_555 1_555
O9 Cu1 1_555 1_555
O12 Cu1 1_555 1_555
C5 C7 1_555 1_555
C8 O6 1_555 1_555
O4 Cu8 1_555 1_555
Cu7 O12 1_555 1_555
Cu5 O7 1_555 1_555
C5 H2 1_555 1_555
O2 Cu4 1_555 1_555
C1_2 C2_2 1_555 1_555
C2_2 C4_2 1_555 1_555
C3_2 C1_2 1_555 1_555
O1_2 C3_2 1_555 1_555
O3_2 C4_2 1_555 1_555
C5_2 C6_2 1_555 1_555
C6_2 C3_2 1_555 1_555
C7_2 C2_2 1_555 1_555
C8_2 C6_2 1_555 1_555
O4_2 C7_2 1_555 1_555
O5_2 C8_2 1_555 1_555
Cu7_2 O1_2 1_555 1_555
Cu4_2 O4_2 1_555 1_555
Cu8_2 O3_2 1_555 1_555
C5_2 C7_2 1_555 1_555
C8_2 O6_2 1_555 1_555
O4_2 Cu8_2 1_555 1_555
Cu7_2 O12_2 1_555 1_555
C5_2 H2_2 1_555 1_555
O2_2 Cu4_2 1_555 1_555
O7_2 Cu1_2 1_555 1_555
O9_2 Cu1_2 1_555 1_555
Cu5_2 O7_2 1_555 1_555
O7_3 Cu1_3 1_555 1_555
O9_3 Cu1_3 1_555 1_555
Cu5_3 O7_3 1_555 1_555
C1_3 C2_3 1_555 1_555
C2_3 C4_3 1_555 1_555
C3_3 C1_3 1_555 1_555
O1_3 C3_3 1_555 1_555
O3_3 C4_3 1_555 1_555
C5_3 C6_3 1_555 1_555
C6_3 C3_3 1_555 1_555
C7_3 C2_3 1_555 1_555
C8_3 C6_3 1_555 1_555
O4_3 C7_3 1_555 1_555
O5_3 C8_3 1_555 1_555
Cu7_3 O1_3 1_555 1_555
Cu4_3 O4_3 1_555 1_555
Cu8_3 O3_3 1_555 1_555
C5_3 C7_3 1_555 1_555
C8_3 O6_3 1_555 1_555
O4_3 Cu8_3 1_555 1_555
Cu7_3 O12_3 1_555 1_555
C5_3 H2_3 1_555 1_555
O2_3 Cu4_3 1_555 1_555
C1_4 C2_4 1_555 1_555
C2_4 C4_4 1_555 1_555
C3_4 C1_4 1_555 1_555
C4_4 O2_4 1_555 1_555
O7_2 C3_4 1_555 1_555
O3_4 C4_4 1_555 1_555
C5_4 C6_4 1_555 1_555
C6_4 C3_4 1_555 1_555
C7_4 C2_4 1_555 1_555
C8_4 C6_4 1_555 1_555
O4_4 C7_4 1_555 1_555
O11_2 Cu5_2 1_555 1_555
Cu6_3 O4_4 1_555 1_555
Cu8_3 O3_4 1_555 1_555
Cu4_3 O3_4 1_555 1_555
O9_4 Cu5_2 1_555 1_555
C5_4 C7_4 1_555 1_555
C8_4 O11_2 1_555 1_555
O4_4 Cu4_3 1_555 1_555
C1_4 H1_4 1_555 1_555
C1_5 C2_5 1_555 1_555
C2_5 C4_5 1_555 1_555
C3_5 C1_5 1_555 1_555
C4_5 O2_5 1_555 1_555
O7_3 C3_5 1_555 1_555
O3_5 C4_5 1_555 1_555
C5_5 C6_5 1_555 1_555
C6_5 C3_5 1_555 1_555
C7_5 C2_5 1_555 1_555
C8_5 C6_5 1_555 1_555
O4_5 C7_5 1_555 1_555
O11_3 Cu5_3 1_555 1_555
Cu6 O4_5 1_555 1_555
O9_5 Cu5_3 1_555 1_555
C5_5 C7_5 1_555 1_555
C8_5 O11_3 1_555 1_555
C1_5 H1_5 1_555 1_555
C1_6 C2_6 1_555 1_555
C2_6 C4_6 1_555 1_555
C3_6 C1_6 1_555 1_555
C4_6 O2_6 1_555 1_555
O7 C3_6 1_555 1_555
O3_6 C4_6 1_555 1_555
C5_6 C6_6 1_555 1_555
C6_6 C3_6 1_555 1_555
C7_6 C2_6 1_555 1_555
C8_6 C6_6 1_555 1_555
O4_6 C7_6 1_555 1_555
O11 Cu5 1_555 1_555
Cu6_2 O4_6 1_555 1_555
O8 Cu5 1_555 1_555
O9_6 Cu5 1_555 1_555
C5_6 C7_6 1_555 1_555
C8_6 O11 1_555 1_555
C1_6 H1_6 1_555 1_555
C5_7 C6_7 1_555 1_555
C8_7 C6_7 1_555 1_555
O4_7 C7_7 1_555 1_555
O9_5 C8_7 1_555 1_555
C5_7 C7_7 1_555 1_555
C5_7 H2_7 1_555 1_555
Cu6_2 O3_7 1_555 1_555
C1_7 C2_7 1_555 1_555
C2_7 C4_7 1_555 1_555
C3_7 C1_7 1_555 1_555
C4_7 O2_7 1_555 1_555
O8_3 C3_7 1_555 1_555
O2_7 Cu8_2 1_555 1_555
C1_7 H1_7 1_555 1_555
C5_8 C6_8 1_555 1_555
C8_8 C6_8 1_555 1_555
O4_8 C7_8 1_555 1_555
O9_6 C8_8 1_555 1_555
Cu8_3 O4_8 1_555 1_555
C5_8 C7_8 1_555 1_555
C8_8 O12 1_555 1_555
C5_8 H2_8 1_555 1_555
C1_8 C2_8 1_555 1_555
C2_8 C4_8 1_555 1_555
C3_8 C1_8 1_555 1_555
C4_8 O2_8 1_555 1_555
O8 C3_8 1_555 1_555
O2_8 Cu8_3 1_555 1_555
O3_8 C4_8 1_555 1_555
Cu4_3 O3_8 1_555 1_555
Cu6_3 O3_8 1_555 1_555
C1_8 H1_8 1_555 1_555
C1_9 C2_9 1_555 1_555
C2_9 C4_9 1_555 1_555
C3_9 C1_9 1_555 1_555
C4_9 O2_9 1_555 1_555
O8_2 C3_9 1_555 1_555
O2_9 Cu8 1_555 1_555
C1_9 H1_9 1_555 1_555
C5_9 C6_9 1_555 1_555
C8_9 C6_9 1_555 1_555
O4_9 C7_9 1_555 1_555
O9_4 C8_9 1_555 1_555
C5_9 C7_9 1_555 1_555
C5_9 H2_9 1_555 1_555
Cu6 O3_9 1_555 1_555

#END
