
###############################################################################
#
# This file contains modified crystal structure data generated from the
# MOF subset of the Cambridge Structural Database (CSD) v543 
# hosted by the Cambridge Crystallographic Data Centre (CCDC).
#
# This work is licensed under the Creative Commons
# Attribution-NonCommercial-ShareAlike 4.0 International License.
# To view a copy of this license, visit
# http://creativecommons.org/licenses/by-nc-sa/4.0/
# or send a letter to
# Creative Commons, PO Box 1866, Mountain View, CA 94042, USA.
#
# CIF created using the CSD Python API on 29 September 2022
# The structure has been converted into the P1 space group
# The structure has a 3D framework
# The original CSD entry MOLLAD55 is in the rhombohedral crystal system
# The framework has been calculated to contain at least 10.0% void space
# The void calculation uses a probe of radius 1.32A, grid spacing 0.4
# H atom positions have been added when not included in the experimental data
#
###############################################################################

data_MOLLAD55
_chemical_formula_moiety         '(C72 H18 Cu7 O44)n'
_symmetry_cell_setting           triclinic
_symmetry_space_group_name_H-M   'P 1'
_symmetry_Int_Tables_number      1
_space_group_name_Hall           'P 1'
loop_
_symmetry_equiv_pos_site_id
_symmetry_equiv_pos_as_xyz
1 x,y,z
_cell_length_a                   25.9262(3)
_cell_length_b                   25.9262(3)
_cell_length_c                   6.27115(7)
_cell_angle_alpha                90
_cell_angle_beta                 90
_cell_angle_gamma                120
_cell_volume                     3650.53
loop_
_atom_site_label
_atom_site_type_symbol
_atom_site_fract_x
_atom_site_fract_y
_atom_site_fract_z
Cu7 Cu 0.31806(8) 0.37166(6) 0.0093(2)
Cu1 Cu 0.29501(6) 0.27974(6) 0.3426(2)
C1 C 0.1601(4) 0.3142(4) 0.1255(16)
C2 C 0.1206(5) 0.3262(4) 0.1944(17)
C3 C 0.2085(4) 0.3190(5) 0.2582(14)
C4 C 0.0796(4) 0.3250(5) 0.0251(17)
O1 O 0.2508(3) 0.3061(3) 0.1764(12)
O3 O 0.0521(3) 0.3547(2) 0.0689(9)
C5 C 0.1732(4) 0.3525(4) 0.5412(16)
C6 C 0.2127(5) 0.3405(4) 0.4723(17)
C7 C 0.1248(4) 0.3477(5) 0.4085(14)
C8 C 0.2537(4) 0.3417(5) 0.6416(17)
O4 O 0.0825(3) 0.3606(3) 0.4903(12)
O5 O 0.2677(3) 0.3749(2) 0.7939(11)
O6 O 0.2812(3) 0.3120(2) 0.5978(9)
Cu4 Cu 0.01527(8) 0.29501(6) 0.6574(2)
Cu5 Cu 0.38693(6) 0.34860(8) 0.6759(2)
Cu8 Cu 0.03832(6) 0.38693(6) 0.3241(2)
O7 O 0.3606(3) 0.2780(4) 0.5097(12)
O9 O 0.2918(2) 0.2262(4) 0.1272(11)
O12 O 0.3641(4) 0.3854(3) 0.2644(9)
H1 H 0.176023 0.366862 0.70599
O2 O 0.0656(3) 0.2918(2) 0.8728(11)
O8 O 0.3886(4) 0.4159(3) 0.8431(12)
O11 O 0.3547(2) 0.3026(4) 0.9311(9)
H2 H 0.15731 0.299805 0.960677
Cu6 Cu 0.94641(6) 0.31806(8) 0.9907(2)
Cu6_2 Cu 0.37166(10) 0.05359(6) 0.9907(2)
Cu7_2 Cu 0.05359(10) 0.68194(8) 0.0093(2)
C1_2 C 0.1541(6) 0.8399(4) 0.1255(16)
C2_2 C 0.2056(6) 0.8794(5) 0.1944(17)
C3_2 C 0.1105(6) 0.7915(4) 0.2582(14)
C4_2 C 0.2454(6) 0.9204(4) 0.0251(17)
O1_2 O 0.0553(4) 0.7492(3) 0.1764(12)
O3_2 O 0.3026(4) 0.9479(3) 0.0689(9)
C5_2 C 0.1792(6) 0.8268(4) 0.5412(16)
C6_2 C 0.1277(6) 0.7873(5) 0.4723(17)
C7_2 C 0.2228(6) 0.8752(4) 0.4085(14)
C8_2 C 0.0879(6) 0.7463(4) 0.6416(17)
O4_2 O 0.2780(4) 0.9175(3) 0.4903(12)
O5_2 O 0.1071(4) 0.7323(3) 0.7939(11)
O6_2 O 0.0307(4) 0.7188(3) 0.5978(9)
Cu4_2 Cu 0.27974(10) 0.98473(8) 0.6574(2)
Cu8_2 Cu 0.34860(8) 0.96168(6) 0.3241(2)
O12_2 O 0.0214(5) 0.6359(4) 0.2644(9)
H1_2 H 0.190839 0.823977 0.70599
O2_2 O 0.2262(4) 0.9344(3) 0.8728(11)
O8_2 O 0.0272(5) 0.6114(4) 0.8431(12)
H2_2 H 0.142495 0.84269 0.960677
Cu1_2 Cu 0.98473(8) 0.70499(6) 0.3426(2)
Cu5_2 Cu 0.96168(10) 0.61307(6) 0.6759(2)
O7_2 O 0.9175(5) 0.6394(3) 0.5097(12)
O9_2 O 0.9344(4) 0.7082(2) 0.1272(11)
O11_2 O 0.9479(4) 0.6453(2) 0.9311(9)
Cu1_3 Cu 0.72026(6) 0.01527(8) 0.3426(2)
Cu5_3 Cu 0.65140(8) 0.03832(10) 0.6759(2)
O7_3 O 0.7220(4) 0.0825(5) 0.5097(12)
O9_3 O 0.7738(4) 0.0656(4) 0.1272(11)
O11_3 O 0.6974(4) 0.0521(4) 0.9311(9)
Cu7_3 Cu 0.62834(6) 0.94641(10) 0.0093(2)
C1_3 C 0.6858(4) 0.8459(6) 0.1255(16)
C2_3 C 0.6738(4) 0.7944(6) 0.1944(17)
C3_3 C 0.6810(5) 0.8895(6) 0.2582(14)
C4_3 C 0.6750(5) 0.7546(6) 0.0251(17)
O1_3 O 0.6939(3) 0.9447(4) 0.1764(12)
O3_3 O 0.6453(2) 0.6974(4) 0.0689(9)
C5_3 C 0.6475(4) 0.8208(6) 0.5412(16)
C6_3 C 0.6595(4) 0.8723(6) 0.4723(17)
C7_3 C 0.6523(5) 0.7772(6) 0.4085(14)
C8_3 C 0.6583(5) 0.9121(6) 0.6416(17)
O4_3 O 0.6394(3) 0.7220(4) 0.4903(12)
O5_3 O 0.6251(2) 0.8929(4) 0.7939(11)
O6_3 O 0.6880(2) 0.9693(4) 0.5978(9)
Cu4_3 Cu 0.70499(6) 0.72026(10) 0.6574(2)
Cu8_3 Cu 0.61307(6) 0.65140(8) 0.3241(2)
O12_3 O 0.6146(3) 0.9786(5) 0.2644(9)
H1_3 H 0.633138 0.809161 0.70599
O2_3 O 0.7082(2) 0.7738(4) 0.8728(11)
Cu6_3 Cu 0.68194(8) 0.62834(10) 0.9907(2)
O8_3 O 0.5841(3) 0.9728(5) 0.8431(12)
H2_3 H 0.700195 0.857505 0.960677
H1_4 H 0.84269 0.700195 0.0393233
C1_4 C 0.8268(4) 0.6475(4) 0.4588(16)
C2_4 C 0.7873(5) 0.6595(4) 0.5277(17)
C3_4 C 0.8752(4) 0.6523(5) 0.5915(14)
C4_4 C 0.7463(4) 0.6583(5) 0.3584(17)
O2_4 O 0.7323(3) 0.6251(2) 0.2061(11)
O3_4 O 0.7188(3) 0.6880(2) 0.4022(9)
C5_4 C 0.8399(4) 0.6858(4) 0.8745(16)
C6_4 C 0.8794(5) 0.6738(4) 0.8056(17)
C7_4 C 0.7915(4) 0.6810(5) 0.7418(14)
C8_4 C 0.9204(4) 0.6750(5) 0.9749(17)
O4_4 O 0.7492(3) 0.6939(3) 0.8236(12)
O9_4 O 0.9585(2) 0.5595(4) 0.4605(11)
H2_4 H 0.823977 0.633138 0.29401
H1_5 H 0.857505 0.15731 0.0393233
C1_5 C 0.8208(6) 0.1732(4) 0.4588(16)
C2_5 C 0.8723(6) 0.2127(5) 0.5277(17)
C3_5 C 0.7772(6) 0.1248(4) 0.5915(14)
C4_5 C 0.9121(6) 0.2537(4) 0.3584(17)
O2_5 O 0.8929(4) 0.2677(3) 0.2061(11)
O3_5 O 0.9693(4) 0.2812(3) 0.4022(9)
C5_5 C 0.8459(6) 0.1601(4) 0.8745(16)
C6_5 C 0.7944(6) 0.1206(5) 0.8056(17)
C7_5 C 0.8895(6) 0.2085(4) 0.7418(14)
C8_5 C 0.7546(6) 0.0796(4) 0.9749(17)
O4_5 O 0.9447(4) 0.2508(3) 0.8236(12)
O9_5 O 0.6011(4) 0.0415(2) 0.4605(11)
H2_5 H 0.809161 0.176023 0.29401
H1_6 H 0.299805 0.142495 0.0393233
C1_6 C 0.3525(4) 0.1792(6) 0.4588(16)
C2_6 C 0.3405(4) 0.1277(6) 0.5277(17)
C3_6 C 0.3477(5) 0.2228(6) 0.5915(14)
C4_6 C 0.3417(5) 0.0879(6) 0.3584(17)
O2_6 O 0.3749(2) 0.1071(4) 0.2061(11)
O3_6 O 0.3120(2) 0.0307(4) 0.4022(9)
C5_6 C 0.3142(4) 0.1541(6) 0.8745(16)
C6_6 C 0.3262(4) 0.2056(6) 0.8056(17)
C7_6 C 0.3190(5) 0.1105(6) 0.7418(14)
C8_6 C 0.3250(5) 0.2454(6) 0.9749(17)
O4_6 O 0.3061(3) 0.0553(4) 0.8236(12)
O9_6 O 0.4405(4) 0.3989(4) 0.4605(11)
H2_6 H 0.366862 0.190839 0.29401
C5_7 C 0.5066(4) 0.0191(4) 0.2078(16)
C6_7 C 0.5461(5) 0.0071(4) 0.1389(17)
C7_7 C 0.4582(4) 0.0143(5) 0.0751(14)
C8_7 C 0.5871(4) 0.0083(5) 0.3082(17)
O4_7 O 0.4159(3) 0.0272(3) 0.1569(12)
H1_7 H 0.509357 0.0335286 0.372657
O3_7 O 0.3854(3) 0.0214(2) 0.7356(9)
C1_7 C 0.4934(4) 0.9809(4) 0.7922(16)
C2_7 C 0.4539(5) 0.9929(4) 0.8611(17)
C3_7 C 0.5418(4) 0.9857(5) 0.9249(14)
C4_7 C 0.4129(4) 0.9917(5) 0.6918(17)
O2_7 O 0.3989(3) 0.9585(2) 0.5395(11)
H2_7 H 0.490643 0.966471 0.627343
C5_8 C 0.5126(6) 0.4934(4) 0.2078(16)
C6_8 C 0.4611(6) 0.4539(5) 0.1389(17)
C7_8 C 0.5562(6) 0.5418(4) 0.0751(14)
C8_8 C 0.4213(6) 0.4129(4) 0.3082(17)
O4_8 O 0.6114(4) 0.5841(3) 0.1569(12)
H1_8 H 0.524172 0.490643 0.372657
C1_8 C 0.4874(6) 0.5066(4) 0.7922(16)
C2_8 C 0.5389(6) 0.5461(5) 0.8611(17)
C3_8 C 0.4438(6) 0.4582(4) 0.9249(14)
C4_8 C 0.5787(6) 0.5871(4) 0.6918(17)
O2_8 O 0.5595(4) 0.6011(3) 0.5395(11)
O3_8 O 0.6359(4) 0.6146(3) 0.7356(9)
H2_8 H 0.475828 0.509357 0.627343
C1_9 C 0.0191(4) 0.5126(6) 0.7922(16)
C2_9 C 0.0071(4) 0.4611(6) 0.8611(17)
C3_9 C 0.0143(5) 0.5562(6) 0.9249(14)
C4_9 C 0.0083(5) 0.4213(6) 0.6918(17)
O2_9 O 0.0415(2) 0.4405(4) 0.5395(11)
H2_9 H 0.0335286 0.524172 0.627343
C5_9 C 0.9809(4) 0.4874(6) 0.2078(16)
C6_9 C 0.9929(4) 0.5389(6) 0.1389(17)
C7_9 C 0.9857(5) 0.4438(6) 0.0751(14)
C8_9 C 0.9917(5) 0.5787(6) 0.3082(17)
O4_9 O 0.9728(3) 0.3886(4) 0.1569(12)
H1_9 H 0.966471 0.475828 0.372657
O3_9 O 0.9786(2) 0.3641(4) 0.7356(9)
loop_
_geom_bond_atom_site_label_1
_geom_bond_atom_site_label_2
_geom_bond_site_symmetry_1
_geom_bond_site_symmetry_2
Cu1 O1 1_555 1_555
C1 C2 1_555 1_555
C2 C4 1_555 1_555
C3 C1 1_555 1_555
O1 C3 1_555 1_555
O3 C4 1_555 1_555
C5 C6 1_555 1_555
C6 C3 1_555 1_555
C7 C2 1_555 1_555
C8 C6 1_555 1_555
O4 C7 1_555 1_555
O5 C8 1_555 1_555
O6 Cu1 1_555 1_555
Cu7 O1 1_555 1_555
Cu4 O4 1_555 1_555
Cu5 O6 1_555 1_555
Cu8 O3 1_555 1_555
O7 Cu1 1_555 1_555
O9 Cu1 1_555 1_555
O12 Cu1 1_555 1_555
C5 C7 1_555 1_555
C8 O6 1_555 1_555
O4 Cu8 1_555 1_555
Cu7 O12 1_555 1_555
Cu5 O7 1_555 1_555
C5 H1 1_555 1_555
O2 Cu4 1_555 1_555
C1_2 C2_2 1_555 1_555
C2_2 C4_2 1_555 1_555
C3_2 C1_2 1_555 1_555
O1_2 C3_2 1_555 1_555
O3_2 C4_2 1_555 1_555
C5_2 C6_2 1_555 1_555
C6_2 C3_2 1_555 1_555
C7_2 C2_2 1_555 1_555
C8_2 C6_2 1_555 1_555
O4_2 C7_2 1_555 1_555
O5_2 C8_2 1_555 1_555
Cu7_2 O1_2 1_555 1_555
Cu4_2 O4_2 1_555 1_555
Cu8_2 O3_2 1_555 1_555
C5_2 C7_2 1_555 1_555
C8_2 O6_2 1_555 1_555
O4_2 Cu8_2 1_555 1_555
Cu7_2 O12_2 1_555 1_555
C5_2 H1_2 1_555 1_555
O2_2 Cu4_2 1_555 1_555
O7_2 Cu1_2 1_555 1_555
O9_2 Cu1_2 1_555 1_555
Cu5_2 O7_2 1_555 1_555
O7_3 Cu1_3 1_555 1_555
O9_3 Cu1_3 1_555 1_555
Cu5_3 O7_3 1_555 1_555
C1_3 C2_3 1_555 1_555
C2_3 C4_3 1_555 1_555
C3_3 C1_3 1_555 1_555
O1_3 C3_3 1_555 1_555
O3_3 C4_3 1_555 1_555
C5_3 C6_3 1_555 1_555
C6_3 C3_3 1_555 1_555
C7_3 C2_3 1_555 1_555
C8_3 C6_3 1_555 1_555
O4_3 C7_3 1_555 1_555
O5_3 C8_3 1_555 1_555
Cu7_3 O1_3 1_555 1_555
Cu4_3 O4_3 1_555 1_555
Cu8_3 O3_3 1_555 1_555
C5_3 C7_3 1_555 1_555
C8_3 O6_3 1_555 1_555
O4_3 Cu8_3 1_555 1_555
Cu7_3 O12_3 1_555 1_555
C5_3 H1_3 1_555 1_555
O2_3 Cu4_3 1_555 1_555
C1_4 C2_4 1_555 1_555
C2_4 C4_4 1_555 1_555
C3_4 C1_4 1_555 1_555
C4_4 O2_4 1_555 1_555
O7_2 C3_4 1_555 1_555
O3_4 C4_4 1_555 1_555
C5_4 C6_4 1_555 1_555
C6_4 C3_4 1_555 1_555
C7_4 C2_4 1_555 1_555
C8_4 C6_4 1_555 1_555
O4_4 C7_4 1_555 1_555
O11_2 Cu5_2 1_555 1_555
Cu6_3 O4_4 1_555 1_555
Cu8_3 O3_4 1_555 1_555
Cu4_3 O3_4 1_555 1_555
O9_4 Cu5_2 1_555 1_555
C5_4 C7_4 1_555 1_555
C8_4 O11_2 1_555 1_555
O4_4 Cu4_3 1_555 1_555
C1_4 H2_4 1_555 1_555
C1_5 C2_5 1_555 1_555
C2_5 C4_5 1_555 1_555
C3_5 C1_5 1_555 1_555
C4_5 O2_5 1_555 1_555
O7_3 C3_5 1_555 1_555
O3_5 C4_5 1_555 1_555
C5_5 C6_5 1_555 1_555
C6_5 C3_5 1_555 1_555
C7_5 C2_5 1_555 1_555
C8_5 C6_5 1_555 1_555
O4_5 C7_5 1_555 1_555
O11_3 Cu5_3 1_555 1_555
Cu6 O4_5 1_555 1_555
O9_5 Cu5_3 1_555 1_555
C5_5 C7_5 1_555 1_555
C8_5 O11_3 1_555 1_555
C1_5 H2_5 1_555 1_555
C1_6 C2_6 1_555 1_555
C2_6 C4_6 1_555 1_555
C3_6 C1_6 1_555 1_555
C4_6 O2_6 1_555 1_555
O7 C3_6 1_555 1_555
O3_6 C4_6 1_555 1_555
C5_6 C6_6 1_555 1_555
C6_6 C3_6 1_555 1_555
C7_6 C2_6 1_555 1_555
C8_6 C6_6 1_555 1_555
O4_6 C7_6 1_555 1_555
O11 Cu5 1_555 1_555
Cu6_2 O4_6 1_555 1_555
O8 Cu5 1_555 1_555
O9_6 Cu5 1_555 1_555
C5_6 C7_6 1_555 1_555
C8_6 O11 1_555 1_555
C1_6 H2_6 1_555 1_555
C5_7 C6_7 1_555 1_555
C8_7 C6_7 1_555 1_555
O4_7 C7_7 1_555 1_555
O9_5 C8_7 1_555 1_555
C5_7 C7_7 1_555 1_555
C5_7 H1_7 1_555 1_555
Cu6_2 O3_7 1_555 1_555
C1_7 C2_7 1_555 1_555
C2_7 C4_7 1_555 1_555
C3_7 C1_7 1_555 1_555
C4_7 O2_7 1_555 1_555
O8_3 C3_7 1_555 1_555
O2_7 Cu8_2 1_555 1_555
C1_7 H2_7 1_555 1_555
C5_8 C6_8 1_555 1_555
C8_8 C6_8 1_555 1_555
O4_8 C7_8 1_555 1_555
O9_6 C8_8 1_555 1_555
Cu8_3 O4_8 1_555 1_555
C5_8 C7_8 1_555 1_555
C8_8 O12 1_555 1_555
C5_8 H1_8 1_555 1_555
C1_8 C2_8 1_555 1_555
C2_8 C4_8 1_555 1_555
C3_8 C1_8 1_555 1_555
C4_8 O2_8 1_555 1_555
O8 C3_8 1_555 1_555
O2_8 Cu8_3 1_555 1_555
O3_8 C4_8 1_555 1_555
Cu4_3 O3_8 1_555 1_555
Cu6_3 O3_8 1_555 1_555
C1_8 H2_8 1_555 1_555
C1_9 C2_9 1_555 1_555
C2_9 C4_9 1_555 1_555
C3_9 C1_9 1_555 1_555
C4_9 O2_9 1_555 1_555
O8_2 C3_9 1_555 1_555
O2_9 Cu8 1_555 1_555
C1_9 H2_9 1_555 1_555
C5_9 C6_9 1_555 1_555
C8_9 C6_9 1_555 1_555
O4_9 C7_9 1_555 1_555
O9_4 C8_9 1_555 1_555
C5_9 C7_9 1_555 1_555
C5_9 H1_9 1_555 1_555
Cu6 O3_9 1_555 1_555

#END
