
###############################################################################
#
# This file contains modified crystal structure data generated from the
# MOF subset of the Cambridge Structural Database (CSD) v543 
# hosted by the Cambridge Crystallographic Data Centre (CCDC).
#
# This work is licensed under the Creative Commons
# Attribution-NonCommercial-ShareAlike 4.0 International License.
# To view a copy of this license, visit
# http://creativecommons.org/licenses/by-nc-sa/4.0/
# or send a letter to
# Creative Commons, PO Box 1866, Mountain View, CA 94042, USA.
#
# CIF created using the CSD Python API on 29 September 2022
# The structure has been converted into the P1 space group
# The structure has a 3D framework
# The original CSD entry MOLLAD54 is in the rhombohedral crystal system
# The framework has been calculated to contain at least 10.0% void space
# The void calculation uses a probe of radius 1.32A, grid spacing 0.4
# H atom positions have been added when not included in the experimental data
#
###############################################################################

data_MOLLAD54
_chemical_formula_moiety         '(C72 H18 Cu7 O44)n'
_symmetry_cell_setting           triclinic
_symmetry_space_group_name_H-M   'P 1'
_symmetry_Int_Tables_number      1
_space_group_name_Hall           'P 1'
loop_
_symmetry_equiv_pos_site_id
_symmetry_equiv_pos_as_xyz
1 x,y,z
_cell_length_a                   25.9262(3)
_cell_length_b                   25.9262(3)
_cell_length_c                   6.27122(7)
_cell_angle_alpha                90
_cell_angle_beta                 90
_cell_angle_gamma                120
_cell_volume                     3650.57
loop_
_atom_site_label
_atom_site_type_symbol
_atom_site_fract_x
_atom_site_fract_y
_atom_site_fract_z
Cu7 Cu 0.31807(8) 0.37166(6) 0.0093(2)
Cu1 Cu 0.29501(6) 0.27975(6) 0.3426(2)
C1 C 0.1600(4) 0.3142(4) 0.1255(16)
C2 C 0.1206(5) 0.3262(4) 0.1944(17)
C3 C 0.2084(4) 0.3190(5) 0.2584(14)
C4 C 0.0796(4) 0.3250(5) 0.0250(17)
O1 O 0.2507(3) 0.3061(3) 0.1765(12)
O3 O 0.0520(3) 0.3547(2) 0.0688(9)
C5 C 0.1733(4) 0.3525(4) 0.5412(16)
C6 C 0.2127(5) 0.3405(4) 0.4723(17)
C7 C 0.1249(4) 0.3477(5) 0.4083(14)
C8 C 0.2537(4) 0.3417(5) 0.6417(17)
O4 O 0.0826(3) 0.3606(3) 0.4902(12)
O5 O 0.2677(3) 0.3749(3) 0.7936(12)
O6 O 0.2813(3) 0.3120(2) 0.5979(9)
Cu4 Cu 0.01526(8) 0.29501(6) 0.6574(2)
Cu5 Cu 0.38692(6) 0.34859(8) 0.6759(2)
Cu8 Cu 0.03832(6) 0.38692(6) 0.3241(2)
O7 O 0.3606(3) 0.2779(4) 0.5098(12)
O9 O 0.2918(3) 0.2262(4) 0.1269(12)
O12 O 0.3640(4) 0.3853(3) 0.2645(9)
H2 H 0.176125 0.366861 0.70599
O2 O 0.0656(3) 0.2918(3) 0.8731(12)
O8 O 0.3887(4) 0.4160(3) 0.8432(12)
O11 O 0.3547(2) 0.3027(4) 0.9312(9)
H1 H 0.157209 0.299806 0.960676
Cu6 Cu 0.94642(6) 0.31807(8) 0.9907(2)
Cu6_2 Cu 0.37166(10) 0.05358(6) 0.9907(2)
Cu7_2 Cu 0.05358(10) 0.68193(8) 0.0093(2)
C1_2 C 0.1542(6) 0.8400(4) 0.1255(16)
C2_2 C 0.2056(6) 0.8794(5) 0.1944(17)
C3_2 C 0.1106(6) 0.7916(4) 0.2584(14)
C4_2 C 0.2454(6) 0.9204(4) 0.0250(17)
O1_2 O 0.0554(4) 0.7493(3) 0.1765(12)
O3_2 O 0.3027(4) 0.9480(3) 0.0688(9)
C5_2 C 0.1791(6) 0.8267(4) 0.5412(16)
C6_2 C 0.1277(6) 0.7873(5) 0.4723(17)
C7_2 C 0.2227(6) 0.8751(4) 0.4083(14)
C8_2 C 0.0879(6) 0.7463(4) 0.6417(17)
O4_2 O 0.2779(4) 0.9174(3) 0.4902(12)
O5_2 O 0.1071(4) 0.7323(3) 0.7936(12)
O6_2 O 0.0306(4) 0.7187(3) 0.5979(9)
Cu4_2 Cu 0.27975(10) 0.98474(8) 0.6574(2)
Cu8_2 Cu 0.34859(8) 0.96168(6) 0.3241(2)
O12_2 O 0.0214(5) 0.6360(4) 0.2645(9)
H2_2 H 0.190736 0.823875 0.70599
O2_2 O 0.2262(4) 0.9344(3) 0.8731(12)
O8_2 O 0.0272(5) 0.6113(4) 0.8432(12)
H1_2 H 0.142597 0.842791 0.960676
Cu1_2 Cu 0.98474(8) 0.70499(6) 0.3426(2)
Cu5_2 Cu 0.96168(10) 0.61308(6) 0.6759(2)
O7_2 O 0.9174(5) 0.6394(3) 0.5098(12)
O9_2 O 0.9344(5) 0.7082(3) 0.1269(12)
O11_2 O 0.9480(4) 0.6453(2) 0.9312(9)
Cu1_3 Cu 0.72025(6) 0.01526(8) 0.3426(2)
Cu5_3 Cu 0.65141(8) 0.03832(10) 0.6759(2)
O7_3 O 0.7221(4) 0.0826(5) 0.5098(12)
O9_3 O 0.7738(4) 0.0656(5) 0.1269(12)
O11_3 O 0.6973(4) 0.0520(4) 0.9312(9)
Cu7_3 Cu 0.62834(6) 0.94642(10) 0.0093(2)
C1_3 C 0.6858(4) 0.8458(6) 0.1255(16)
C2_3 C 0.6738(4) 0.7944(6) 0.1944(17)
C3_3 C 0.6810(5) 0.8894(6) 0.2584(14)
C4_3 C 0.6750(5) 0.7546(6) 0.0250(17)
O1_3 O 0.6939(3) 0.9446(4) 0.1765(12)
O3_3 O 0.6453(2) 0.6973(4) 0.0688(9)
C5_3 C 0.6475(4) 0.8209(6) 0.5412(16)
C6_3 C 0.6595(4) 0.8723(6) 0.4723(17)
C7_3 C 0.6523(5) 0.7773(6) 0.4083(14)
C8_3 C 0.6583(5) 0.9121(6) 0.6417(17)
O4_3 O 0.6394(3) 0.7221(4) 0.4902(12)
O5_3 O 0.6251(3) 0.8929(4) 0.7936(12)
O6_3 O 0.6880(2) 0.9694(4) 0.5979(9)
Cu4_3 Cu 0.70499(6) 0.72025(10) 0.6574(2)
Cu8_3 Cu 0.61308(6) 0.65141(8) 0.3241(2)
O12_3 O 0.6147(3) 0.9786(5) 0.2645(9)
H2_3 H 0.633139 0.809264 0.70599
O2_3 O 0.7082(3) 0.7738(4) 0.8731(12)
Cu6_3 Cu 0.68193(8) 0.62834(10) 0.9907(2)
O8_3 O 0.5840(3) 0.9728(5) 0.8432(12)
H1_3 H 0.700194 0.857403 0.960676
H2_4 H 0.842791 0.700194 0.0393237
C1_4 C 0.8267(4) 0.6475(4) 0.4588(16)
C2_4 C 0.7873(5) 0.6595(4) 0.5277(17)
C3_4 C 0.8751(4) 0.6523(5) 0.5917(14)
C4_4 C 0.7463(4) 0.6583(5) 0.3583(17)
O2_4 O 0.7323(3) 0.6251(3) 0.2064(12)
O3_4 O 0.7187(3) 0.6880(2) 0.4021(9)
C5_4 C 0.8400(4) 0.6858(4) 0.8745(16)
C6_4 C 0.8794(5) 0.6738(4) 0.8056(17)
C7_4 C 0.7916(4) 0.6810(5) 0.7416(14)
C8_4 C 0.9204(4) 0.6750(5) 0.9750(17)
O4_4 O 0.7493(3) 0.6939(3) 0.8235(12)
O9_4 O 0.9585(3) 0.5595(4) 0.4602(12)
H1_4 H 0.823875 0.633139 0.29401
H2_5 H 0.857403 0.157209 0.0393237
C1_5 C 0.8209(6) 0.1733(4) 0.4588(16)
C2_5 C 0.8723(6) 0.2127(5) 0.5277(17)
C3_5 C 0.7773(6) 0.1249(4) 0.5917(14)
C4_5 C 0.9121(6) 0.2537(4) 0.3583(17)
O2_5 O 0.8929(4) 0.2677(3) 0.2064(12)
O3_5 O 0.9694(4) 0.2813(3) 0.4021(9)
C5_5 C 0.8458(6) 0.1600(4) 0.8745(16)
C6_5 C 0.7944(6) 0.1206(5) 0.8056(17)
C7_5 C 0.8894(6) 0.2084(4) 0.7416(14)
C8_5 C 0.7546(6) 0.0796(4) 0.9750(17)
O4_5 O 0.9446(4) 0.2507(3) 0.8235(12)
O9_5 O 0.6011(5) 0.0415(3) 0.4602(12)
H1_5 H 0.809264 0.176125 0.29401
H2_6 H 0.299806 0.142597 0.0393237
C1_6 C 0.3525(4) 0.1791(6) 0.4588(16)
C2_6 C 0.3405(4) 0.1277(6) 0.5277(17)
C3_6 C 0.3477(5) 0.2227(6) 0.5917(14)
C4_6 C 0.3417(5) 0.0879(6) 0.3583(17)
O2_6 O 0.3749(3) 0.1071(4) 0.2064(12)
O3_6 O 0.3120(2) 0.0306(4) 0.4021(9)
C5_6 C 0.3142(4) 0.1542(6) 0.8745(16)
C6_6 C 0.3262(4) 0.2056(6) 0.8056(17)
C7_6 C 0.3190(5) 0.1106(6) 0.7416(14)
C8_6 C 0.3250(5) 0.2454(6) 0.9750(17)
O4_6 O 0.3061(3) 0.0554(4) 0.8235(12)
O9_6 O 0.4405(4) 0.3989(5) 0.4602(12)
H1_6 H 0.366861 0.190736 0.29401
C5_7 C 0.5067(4) 0.0191(4) 0.2078(16)
C6_7 C 0.5461(5) 0.0071(4) 0.1389(17)
C7_7 C 0.4583(4) 0.0143(5) 0.0749(14)
C8_7 C 0.5871(4) 0.0083(5) 0.3083(17)
O4_7 O 0.4160(3) 0.0272(3) 0.1568(12)
H2_7 H 0.509458 0.0335275 0.372657
O3_7 O 0.3853(3) 0.0214(2) 0.7355(9)
C1_7 C 0.4933(4) 0.9809(4) 0.7922(16)
C2_7 C 0.4539(5) 0.9929(4) 0.8611(17)
C3_7 C 0.5417(4) 0.9857(5) 0.9251(14)
C4_7 C 0.4129(4) 0.9917(5) 0.6917(17)
O2_7 O 0.3989(3) 0.9585(3) 0.5398(12)
H1_7 H 0.490542 0.966473 0.627343
C5_8 C 0.5125(6) 0.4933(4) 0.2078(16)
C6_8 C 0.4611(6) 0.4539(5) 0.1389(17)
C7_8 C 0.5561(6) 0.5417(4) 0.0749(14)
C8_8 C 0.4213(6) 0.4129(4) 0.3083(17)
O4_8 O 0.6113(4) 0.5840(3) 0.1568(12)
H2_8 H 0.524069 0.490542 0.372657
C1_8 C 0.4875(6) 0.5067(4) 0.7922(16)
C2_8 C 0.5389(6) 0.5461(5) 0.8611(17)
C3_8 C 0.4439(6) 0.4583(4) 0.9251(14)
C4_8 C 0.5787(6) 0.5871(4) 0.6917(17)
O2_8 O 0.5595(4) 0.6011(3) 0.5398(12)
O3_8 O 0.6360(4) 0.6147(3) 0.7355(9)
H1_8 H 0.475931 0.509458 0.627343
C1_9 C 0.0191(4) 0.5125(6) 0.7922(16)
C2_9 C 0.0071(4) 0.4611(6) 0.8611(17)
C3_9 C 0.0143(5) 0.5561(6) 0.9251(14)
C4_9 C 0.0083(5) 0.4213(6) 0.6917(17)
O2_9 O 0.0415(3) 0.4405(4) 0.5398(12)
H1_9 H 0.0335275 0.524069 0.627343
C5_9 C 0.9809(4) 0.4875(6) 0.2078(16)
C6_9 C 0.9929(4) 0.5389(6) 0.1389(17)
C7_9 C 0.9857(5) 0.4439(6) 0.0749(14)
C8_9 C 0.9917(5) 0.5787(6) 0.3083(17)
O4_9 O 0.9728(3) 0.3887(4) 0.1568(12)
H2_9 H 0.966473 0.475931 0.372657
O3_9 O 0.9786(2) 0.3640(4) 0.7355(9)
loop_
_geom_bond_atom_site_label_1
_geom_bond_atom_site_label_2
_geom_bond_site_symmetry_1
_geom_bond_site_symmetry_2
Cu1 O1 1_555 1_555
C1 C2 1_555 1_555
C2 C4 1_555 1_555
C3 C1 1_555 1_555
O1 C3 1_555 1_555
O3 C4 1_555 1_555
C5 C6 1_555 1_555
C6 C3 1_555 1_555
C7 C2 1_555 1_555
C8 C6 1_555 1_555
O4 C7 1_555 1_555
O5 C8 1_555 1_555
O6 Cu1 1_555 1_555
Cu7 O1 1_555 1_555
Cu4 O4 1_555 1_555
Cu5 O6 1_555 1_555
Cu8 O3 1_555 1_555
O7 Cu1 1_555 1_555
O9 Cu1 1_555 1_555
O12 Cu1 1_555 1_555
C5 C7 1_555 1_555
C8 O6 1_555 1_555
O4 Cu8 1_555 1_555
Cu7 O12 1_555 1_555
Cu5 O7 1_555 1_555
C5 H2 1_555 1_555
O2 Cu4 1_555 1_555
C1_2 C2_2 1_555 1_555
C2_2 C4_2 1_555 1_555
C3_2 C1_2 1_555 1_555
O1_2 C3_2 1_555 1_555
O3_2 C4_2 1_555 1_555
C5_2 C6_2 1_555 1_555
C6_2 C3_2 1_555 1_555
C7_2 C2_2 1_555 1_555
C8_2 C6_2 1_555 1_555
O4_2 C7_2 1_555 1_555
O5_2 C8_2 1_555 1_555
Cu7_2 O1_2 1_555 1_555
Cu4_2 O4_2 1_555 1_555
Cu8_2 O3_2 1_555 1_555
C5_2 C7_2 1_555 1_555
C8_2 O6_2 1_555 1_555
O4_2 Cu8_2 1_555 1_555
Cu7_2 O12_2 1_555 1_555
C5_2 H2_2 1_555 1_555
O2_2 Cu4_2 1_555 1_555
O7_2 Cu1_2 1_555 1_555
O9_2 Cu1_2 1_555 1_555
Cu5_2 O7_2 1_555 1_555
O7_3 Cu1_3 1_555 1_555
O9_3 Cu1_3 1_555 1_555
Cu5_3 O7_3 1_555 1_555
C1_3 C2_3 1_555 1_555
C2_3 C4_3 1_555 1_555
C3_3 C1_3 1_555 1_555
O1_3 C3_3 1_555 1_555
O3_3 C4_3 1_555 1_555
C5_3 C6_3 1_555 1_555
C6_3 C3_3 1_555 1_555
C7_3 C2_3 1_555 1_555
C8_3 C6_3 1_555 1_555
O4_3 C7_3 1_555 1_555
O5_3 C8_3 1_555 1_555
Cu7_3 O1_3 1_555 1_555
Cu4_3 O4_3 1_555 1_555
Cu8_3 O3_3 1_555 1_555
C5_3 C7_3 1_555 1_555
C8_3 O6_3 1_555 1_555
O4_3 Cu8_3 1_555 1_555
Cu7_3 O12_3 1_555 1_555
C5_3 H2_3 1_555 1_555
O2_3 Cu4_3 1_555 1_555
C1_4 C2_4 1_555 1_555
C2_4 C4_4 1_555 1_555
C3_4 C1_4 1_555 1_555
C4_4 O2_4 1_555 1_555
O7_2 C3_4 1_555 1_555
O3_4 C4_4 1_555 1_555
C5_4 C6_4 1_555 1_555
C6_4 C3_4 1_555 1_555
C7_4 C2_4 1_555 1_555
C8_4 C6_4 1_555 1_555
O4_4 C7_4 1_555 1_555
O11_2 Cu5_2 1_555 1_555
Cu6_3 O4_4 1_555 1_555
Cu8_3 O3_4 1_555 1_555
Cu4_3 O3_4 1_555 1_555
O9_4 Cu5_2 1_555 1_555
C5_4 C7_4 1_555 1_555
C8_4 O11_2 1_555 1_555
O4_4 Cu4_3 1_555 1_555
C1_4 H1_4 1_555 1_555
C1_5 C2_5 1_555 1_555
C2_5 C4_5 1_555 1_555
C3_5 C1_5 1_555 1_555
C4_5 O2_5 1_555 1_555
O7_3 C3_5 1_555 1_555
O3_5 C4_5 1_555 1_555
C5_5 C6_5 1_555 1_555
C6_5 C3_5 1_555 1_555
C7_5 C2_5 1_555 1_555
C8_5 C6_5 1_555 1_555
O4_5 C7_5 1_555 1_555
O11_3 Cu5_3 1_555 1_555
Cu6 O4_5 1_555 1_555
O9_5 Cu5_3 1_555 1_555
C5_5 C7_5 1_555 1_555
C8_5 O11_3 1_555 1_555
C1_5 H1_5 1_555 1_555
C1_6 C2_6 1_555 1_555
C2_6 C4_6 1_555 1_555
C3_6 C1_6 1_555 1_555
C4_6 O2_6 1_555 1_555
O7 C3_6 1_555 1_555
O3_6 C4_6 1_555 1_555
C5_6 C6_6 1_555 1_555
C6_6 C3_6 1_555 1_555
C7_6 C2_6 1_555 1_555
C8_6 C6_6 1_555 1_555
O4_6 C7_6 1_555 1_555
O11 Cu5 1_555 1_555
Cu6_2 O4_6 1_555 1_555
O8 Cu5 1_555 1_555
O9_6 Cu5 1_555 1_555
C5_6 C7_6 1_555 1_555
C8_6 O11 1_555 1_555
C1_6 H1_6 1_555 1_555
C5_7 C6_7 1_555 1_555
C8_7 C6_7 1_555 1_555
O4_7 C7_7 1_555 1_555
O9_5 C8_7 1_555 1_555
C5_7 C7_7 1_555 1_555
C5_7 H2_7 1_555 1_555
Cu6_2 O3_7 1_555 1_555
C1_7 C2_7 1_555 1_555
C2_7 C4_7 1_555 1_555
C3_7 C1_7 1_555 1_555
C4_7 O2_7 1_555 1_555
O8_3 C3_7 1_555 1_555
O2_7 Cu8_2 1_555 1_555
C1_7 H1_7 1_555 1_555
C5_8 C6_8 1_555 1_555
C8_8 C6_8 1_555 1_555
O4_8 C7_8 1_555 1_555
O9_6 C8_8 1_555 1_555
Cu8_3 O4_8 1_555 1_555
C5_8 C7_8 1_555 1_555
C8_8 O12 1_555 1_555
C5_8 H2_8 1_555 1_555
C1_8 C2_8 1_555 1_555
C2_8 C4_8 1_555 1_555
C3_8 C1_8 1_555 1_555
C4_8 O2_8 1_555 1_555
O8 C3_8 1_555 1_555
O2_8 Cu8_3 1_555 1_555
O3_8 C4_8 1_555 1_555
Cu4_3 O3_8 1_555 1_555
Cu6_3 O3_8 1_555 1_555
C1_8 H1_8 1_555 1_555
C1_9 C2_9 1_555 1_555
C2_9 C4_9 1_555 1_555
C3_9 C1_9 1_555 1_555
C4_9 O2_9 1_555 1_555
O8_2 C3_9 1_555 1_555
O2_9 Cu8 1_555 1_555
C1_9 H1_9 1_555 1_555
C5_9 C6_9 1_555 1_555
C8_9 C6_9 1_555 1_555
O4_9 C7_9 1_555 1_555
O9_4 C8_9 1_555 1_555
C5_9 C7_9 1_555 1_555
C5_9 H2_9 1_555 1_555
Cu6 O3_9 1_555 1_555

#END
