
###############################################################################
#
# This file contains modified crystal structure data generated from the
# MOF subset of the Cambridge Structural Database (CSD) v543 
# hosted by the Cambridge Crystallographic Data Centre (CCDC).
#
# This work is licensed under the Creative Commons
# Attribution-NonCommercial-ShareAlike 4.0 International License.
# To view a copy of this license, visit
# http://creativecommons.org/licenses/by-nc-sa/4.0/
# or send a letter to
# Creative Commons, PO Box 1866, Mountain View, CA 94042, USA.
#
# CIF created using the CSD Python API on 29 September 2022
# The structure has been converted into the P1 space group
# The structure has a 3D framework
# The original CSD entry MOLQEL02 is in the monoclinic crystal system
# The framework has been calculated to contain at least 10.0% void space
# The void calculation uses a probe of radius 1.32A, grid spacing 0.4
#
###############################################################################

data_MOLQEL02
_chemical_formula_moiety         '(C88 H88 N8 O44 Zn6)n'
_symmetry_cell_setting           triclinic
_symmetry_space_group_name_H-M   'P 1'
_symmetry_Int_Tables_number      1
_space_group_name_Hall           'P 1'
loop_
_symmetry_equiv_pos_site_id
_symmetry_equiv_pos_as_xyz
1 x,y,z
_cell_length_a                   14.2568(4)
_cell_length_b                   12.9805(4)
_cell_length_c                   17.8449(4)
_cell_angle_alpha                90
_cell_angle_beta                 95.587(2)
_cell_angle_gamma                90
_cell_volume                     3286.7
loop_
_atom_site_label
_atom_site_type_symbol
_atom_site_fract_x
_atom_site_fract_y
_atom_site_fract_z
O16 O 0.1266(3) 0.0054(3) 0.2781(2)
Zn1 Zn 0.00946(4) 0.94554(5) 0.22652(3)
O14 O 0.0686(3) 0.8528(3) 0.1585(2)
C1 C 0.6223(4) 0.3389(5) 0.2231(3)
C2 C 0.6971(4) 0.2952(5) 0.1793(3)
C3 C 0.6996(4) 0.3200(5) 0.1042(3)
H1 H 0.652419 0.361310 0.080368
C4 C 0.7714(4) 0.2843(4) 0.0636(3)
C5 C 0.8371(4) 0.2160(4) 0.0991(3)
H2 H 0.884140 0.188763 0.072301
C6 C 0.8332(4) 0.1881(5) 0.1744(3)
C7 C 0.7641(4) 0.2293(5) 0.2148(3)
H3 H 0.762581 0.212990 0.265362
C8 C 0.9002(4) 0.1107(5) 0.2108(3)
C17 C 0.5567(6) 0.0967(8) 0.1167(5)
H7 H 0.554933 0.111640 0.065616
H8 H 0.592176 0.029675 0.247574
H11 H 0.650053 0.006713 0.036681
C20 C 0.2546(6) 0.2008(9) 0.0480(5)
H14 H 0.268011 0.250250 0.012842
C22 C 0.1427(9) 0.0766(13) 0.0839(7)
H18 H 0.156637 0.008070 0.068141
H19 H 0.075790 0.084073 0.084847
H20 H 0.173430 0.088799 0.133408
N1 N 0.6117(6) 0.0180(7) 0.1410(7)
N2 N 0.1752(5) 0.1485(7) 0.0331(4)
O1 O 0.6377(3) 0.3499(4) 0.2917(2)
O2 O 0.5446(2) 0.3703(3) 0.1872(2)
O3 O 0.9035(4) 0.0966(4) 0.2792(2)
O4 O 0.9494(3) 0.0596(3) 0.1675(2)
O9 O 0.5109(3) 0.1486(4) 0.1513(3)
O10 O 0.3082(4) 0.1918(4) 0.0993(3)
O11 O 0.4640(4) 0.2997(4) 0.0259(2)
H21 H 0.463753 0.363598 0.015431
H22 H 0.518863 0.275358 0.022871
Zn2 Zn 0.42683(4) 0.27952(5) 0.13626(3)
O15 O 0.3843(3) 0.2521(4) 0.2436(2)
O17 O 0.3545(3) 0.4145(3) 0.1155(2)
Zn3 Zn 0.49054(4) 0.44554(5) 0.27348(3)
C9 C 0.7757(4) 0.3149(5) 0.9831(3)
C10 C 0.7260(4) 0.4008(5) 0.9533(3)
H4 H 0.693724 0.442045 0.984793
C11 C 0.7242(4) 0.4253(5) 0.8776(3)
C12 C 0.7772(4) 0.3683(5) 0.8316(3)
H5 H 0.776921 0.385087 0.780939
C13 C 0.8305(4) 0.2863(4) 0.8611(3)
C14 C 0.8281(4) 0.2601(5) 0.9359(3)
H6 H 0.862959 0.203716 0.955034
C15 C 0.6610(4) 0.5102(4) 0.8444(3)
C16 C 0.8868(4) 0.2234(4) 0.8106(3)
C21 C 0.1146(9) 0.1648(15) 0.9623(7)
H15 H 0.116795 0.236040 0.948084
H16 H 0.050891 0.146205 0.969443
H17 H 0.136589 0.122856 0.923326
O5 O 0.9314(3) 0.1472(3) 0.8415(2)
O6 O 0.8843(3) 0.2479(4) 0.7436(2)
O7 O 0.6266(3) 0.4946(3) 0.7781(2)
O8 O 0.6455(3) 0.5855(3) 0.8845(2)
Zn4 Zn 0.99054(4) 0.05446(5) 0.77348(3)
Zn5 Zn 0.50946(4) 0.55446(5) 0.72652(3)
Zn6 Zn 0.57317(4) 0.72048(5) 0.86374(3)
Zn7 Zn 0.92683(4) 0.22048(5) 0.63626(3)
C18 C 0.6291(10) 0.9879(12) 0.2171(8)
H9 H 0.694764 0.996685 0.233465
H10 H 0.612111 0.916825 0.222144
C19 C 0.6593(12) 0.9673(13) 0.0823(9)
H12 H 0.633764 0.899475 0.073688
H13 H 0.725524 0.962441 0.098044
O12 O 0.8623(3) 0.8499(4) 0.2083(2)
O13 O 0.9554(2) 0.8703(3) 0.3128(2)
C20_2 C 0.2454(6) 0.7008(9) 0.4520(5)
H14_2 H 0.231989 0.750250 0.487158
C21_2 C 0.3854(9) 0.6648(15) 0.5377(7)
H15_2 H 0.383205 0.736040 0.551916
H16_2 H 0.449109 0.646205 0.530557
H17_2 H 0.363411 0.622856 0.576674
C22_2 C 0.3573(9) 0.5766(13) 0.4161(7)
H18_2 H 0.343363 0.508070 0.431859
H19_2 H 0.424210 0.584073 0.415153
H20_2 H 0.326570 0.588799 0.366592
N2_2 N 0.3248(5) 0.6485(7) 0.4669(4)
O10_2 O 0.1918(4) 0.6918(4) 0.4007(3)
O11_2 O 0.0360(4) 0.7997(4) 0.4741(2)
H21_2 H 0.036247 0.863598 0.484569
Zn2_2 Zn 0.07317(4) 0.77952(5) 0.36374(3)
O15_2 O 0.1157(3) 0.7521(4) 0.2564(2)
O17_2 O 0.1455(3) 0.9145(3) 0.3845(2)
C15_2 C 0.8390(4) 0.0102(4) 0.6556(3)
O8_2 O 0.8545(3) 0.0855(3) 0.6155(2)
C1_2 C 0.8777(4) 0.8389(5) 0.2769(3)
C2_2 C 0.8029(4) 0.7952(5) 0.3207(3)
C3_2 C 0.8004(4) 0.8200(5) 0.3958(3)
H1_2 H 0.847581 0.861310 0.419632
C4_2 C 0.7286(4) 0.7843(4) 0.4364(3)
C5_2 C 0.6629(4) 0.7160(4) 0.4009(3)
H2_2 H 0.615860 0.688763 0.427699
C6_2 C 0.6668(4) 0.6881(5) 0.3256(3)
C7_2 C 0.7359(4) 0.7293(5) 0.2852(3)
H3_2 H 0.737419 0.712990 0.234638
C8_2 C 0.5998(4) 0.6107(5) 0.2892(3)
C9_2 C 0.7243(4) 0.8149(5) 0.5169(3)
C10_2 C 0.7740(4) 0.9008(5) 0.5467(3)
H4_2 H 0.806276 0.942045 0.515207
C11_2 C 0.7758(4) 0.9253(5) 0.6224(3)
C12_2 C 0.7228(4) 0.8683(5) 0.6684(3)
H5_2 H 0.723079 0.885087 0.719061
C13_2 C 0.6695(4) 0.7863(4) 0.6389(3)
C14_2 C 0.6719(4) 0.7601(5) 0.5641(3)
H6_2 H 0.637041 0.703716 0.544966
C16_2 C 0.6132(4) 0.7234(4) 0.6894(3)
C17_2 C 0.9433(6) 0.5967(8) 0.3833(5)
H7_2 H 0.945067 0.611640 0.434384
C18_2 C 0.8709(10) 0.4879(12) 0.2829(8)
H8_2 H 0.907824 0.529675 0.252426
H9_2 H 0.805236 0.496685 0.266535
H10_2 H 0.887889 0.416825 0.277856
C19_2 C 0.8407(12) 0.4673(13) 0.4177(9)
H11_2 H 0.849947 0.506713 0.463319
H12_2 H 0.866236 0.399475 0.426312
H13_2 H 0.774476 0.462441 0.401956
N1_2 N 0.8883(6) 0.5180(7) 0.3590(7)
O3_2 O 0.5965(4) 0.5966(4) 0.2208(2)
O4_2 O 0.5506(3) 0.5596(3) 0.3325(2)
O5_2 O 0.5686(3) 0.6472(3) 0.6585(2)
O6_2 O 0.6157(3) 0.7479(4) 0.7564(2)
O7_2 O 0.8734(3) 0.9946(3) 0.7219(2)
O9_2 O 0.9891(3) 0.6486(4) 0.3487(3)
H22_2 H 0.981137 0.775358 0.477129
O14_2 O 0.4314(3) 0.3528(3) 0.3415(2)
O16_2 O 0.3734(3) 0.5054(3) 0.2219(2)
C18_3 C 0.3709(10) 0.0121(12) 0.7829(8)
H9_3 H 0.305236 0.003315 0.766535
H10_3 H 0.387889 0.083175 0.777856
C19_3 C 0.3407(12) 0.0327(13) 0.9177(9)
H12_3 H 0.366236 0.100525 0.926312
H13_3 H 0.274476 0.037559 0.901956
O12_2 O 0.1377(3) 0.1501(4) 0.7917(2)
O13_2 O 0.0446(2) 0.1297(3) 0.6872(2)
C9_3 C 0.2243(4) 0.6851(5) 0.0169(3)
C10_3 C 0.2740(4) 0.5992(5) 0.0467(3)
H4_3 H 0.306276 0.557955 0.015207
C11_3 C 0.2758(4) 0.5747(5) 0.1224(3)
C12_3 C 0.2228(4) 0.6317(5) 0.1684(3)
H5_3 H 0.223079 0.614913 0.219061
C13_3 C 0.1695(4) 0.7137(4) 0.1389(3)
C14_3 C 0.1719(4) 0.7399(5) 0.0641(3)
H6_3 H 0.137041 0.796284 0.044966
C15_3 C 0.3390(4) 0.4898(4) 0.1556(3)
C16_3 C 0.1132(4) 0.7766(4) 0.1894(3)
C21_3 C 0.8854(9) 0.8352(15) 0.0377(7)
H15_3 H 0.883205 0.763960 0.051916
H16_3 H 0.949109 0.853795 0.030557
H17_3 H 0.863411 0.877144 0.076674
C1_3 C 0.3777(4) 0.6611(5) 0.7769(3)
C2_3 C 0.3029(4) 0.7048(5) 0.8207(3)
C3_3 C 0.3004(4) 0.6800(5) 0.8958(3)
H1_3 H 0.347581 0.638690 0.919632
C4_3 C 0.2286(4) 0.7157(4) 0.9364(3)
C5_3 C 0.1629(4) 0.7840(4) 0.9009(3)
H2_3 H 0.115860 0.811237 0.927699
C6_3 C 0.1668(4) 0.8119(5) 0.8256(3)
C7_3 C 0.2359(4) 0.7707(5) 0.7852(3)
H3_3 H 0.237419 0.787010 0.734638
C8_3 C 0.0998(4) 0.8893(5) 0.7892(3)
C17_3 C 0.4433(6) 0.9033(8) 0.8833(5)
H7_3 H 0.445067 0.888360 0.934384
H8_3 H 0.407824 0.970325 0.752426
H11_3 H 0.349947 0.993287 0.963319
C20_3 C 0.7454(6) 0.7992(9) 0.9520(5)
H14_3 H 0.731989 0.749750 0.987158
C22_3 C 0.8573(9) 0.9234(13) 0.9161(7)
H18_3 H 0.843363 0.991930 0.931859
H19_3 H 0.924210 0.915927 0.915153
H20_3 H 0.826570 0.911201 0.866592
N1_3 N 0.3883(6) 0.9820(7) 0.8590(7)
N2_3 N 0.8248(5) 0.8515(7) 0.9669(4)
O1_2 O 0.3623(3) 0.6501(4) 0.7083(2)
O2_2 O 0.4554(2) 0.6297(3) 0.8128(2)
O3_3 O 0.0965(4) 0.9034(4) 0.7208(2)
O4_3 O 0.0506(3) 0.9404(3) 0.8325(2)
O9_3 O 0.4891(3) 0.8514(4) 0.8487(3)
O10_3 O 0.6918(4) 0.8082(4) 0.9007(3)
O11_3 O 0.5360(4) 0.7003(4) 0.9741(2)
H21_3 H 0.536247 0.636402 0.984569
H22_3 H 0.481137 0.724642 0.977129
C1_4 C 0.1223(4) 0.1611(5) 0.7231(3)
C2_4 C 0.1971(4) 0.2048(5) 0.6793(3)
C3_4 C 0.1996(4) 0.1800(5) 0.6042(3)
H1_4 H 0.152419 0.138690 0.580368
C4_4 C 0.2714(4) 0.2157(4) 0.5636(3)
C5_4 C 0.3371(4) 0.2840(4) 0.5991(3)
H2_4 H 0.384140 0.311237 0.572301
C6_4 C 0.3332(4) 0.3119(5) 0.6744(3)
C7_4 C 0.2641(4) 0.2707(5) 0.7148(3)
H3_4 H 0.262581 0.287010 0.765362
C8_4 C 0.4002(4) 0.3893(5) 0.7108(3)
C9_4 C 0.2757(4) 0.1851(5) 0.4831(3)
C10_4 C 0.2260(4) 0.0992(5) 0.4533(3)
H4_4 H 0.193724 0.057955 0.484793
C11_4 C 0.2242(4) 0.0747(5) 0.3776(3)
C12_4 C 0.2772(4) 0.1317(5) 0.3316(3)
H5_4 H 0.276921 0.114913 0.280939
C13_4 C 0.3305(4) 0.2137(4) 0.3611(3)
C14_4 C 0.3281(4) 0.2399(5) 0.4359(3)
H6_4 H 0.362959 0.296284 0.455034
C16_4 C 0.3868(4) 0.2766(4) 0.3106(3)
C17_4 C 0.0567(6) 0.4033(8) 0.6167(5)
H7_4 H 0.054933 0.388360 0.565616
C18_4 C 0.1291(10) 0.5121(12) 0.7171(8)
H8_4 H 0.092176 0.470325 0.747574
H9_4 H 0.194764 0.503315 0.733465
H10_4 H 0.112111 0.583175 0.722144
C19_4 C 0.1593(12) 0.5327(13) 0.5823(9)
H11_4 H 0.150053 0.493287 0.536681
H12_4 H 0.133764 0.600525 0.573688
H13_4 H 0.225524 0.537559 0.598044
N1_4 N 0.1117(6) 0.4820(7) 0.6410(7)
O3_4 O 0.4035(4) 0.4034(4) 0.7792(2)
O4_4 O 0.4494(3) 0.4404(3) 0.6675(2)
O9_4 O 0.0109(3) 0.3514(4) 0.6513(3)
H22_4 H 0.018863 0.224642 0.522871
C15_4 C 0.1610(4) 0.9898(4) 0.3444(3)
C20_4 C 0.7546(6) 0.2992(9) 0.5480(5)
H14_4 H 0.768011 0.249750 0.512842
C21_4 C 0.6146(9) 0.3352(15) 0.4623(7)
H15_4 H 0.616795 0.263960 0.448084
H16_4 H 0.550891 0.353795 0.469443
H17_4 H 0.636589 0.377144 0.423326
C22_4 C 0.6427(9) 0.4234(13) 0.5839(7)
H18_4 H 0.656637 0.491930 0.568141
H19_4 H 0.575790 0.415927 0.584847
H20_4 H 0.673430 0.411201 0.633408
N2_4 N 0.6752(5) 0.3515(7) 0.5331(4)
O10_4 O 0.8082(4) 0.3082(4) 0.5993(3)
O11_4 O 0.9640(4) 0.2003(4) 0.5259(2)
H21_4 H 0.963753 0.136402 0.515431
loop_
_geom_bond_atom_site_label_1
_geom_bond_atom_site_label_2
_geom_bond_site_symmetry_1
_geom_bond_site_symmetry_2
O14 Zn1 1_555 1_555
C1 C2 1_555 1_555
C2 C3 1_555 1_555
C3 H1 1_555 1_555
C4 C3 1_555 1_555
C5 C4 1_555 1_555
H2 C5 1_555 1_555
C6 C5 1_555 1_555
C7 C2 1_555 1_555
H3 C7 1_555 1_555
C8 C6 1_555 1_555
C17 H7 1_555 1_555
C20 H14 1_555 1_555
C22 H18 1_555 1_555
H19 C22 1_555 1_555
H20 C22 1_555 1_555
N1 C17 1_555 1_555
N2 C20 1_555 1_555
O1 C1 1_555 1_555
O2 C1 1_555 1_555
O3 C8 1_555 1_555
O4 C8 1_555 1_555
O9 C17 1_555 1_555
O10 C20 1_555 1_555
O11 H21 1_555 1_555
H22 O11 1_555 1_555
Zn2 O2 1_555 1_555
O15 Zn2 1_555 1_555
O17 Zn2 1_555 1_555
Zn3 O1 1_555 1_555
C6 C7 1_555 1_555
C22 N2 1_555 1_555
O2 Zn3 1_555 1_555
O9 Zn2 1_555 1_555
O10 Zn2 1_555 1_555
O11 Zn2 1_555 1_555
C10 C9 1_555 1_555
H4 C10 1_555 1_555
C11 C10 1_555 1_555
C12 C11 1_555 1_555
H5 C12 1_555 1_555
C13 C12 1_555 1_555
C14 C9 1_555 1_555
H6 C14 1_555 1_555
C15 C11 1_555 1_555
C16 C13 1_555 1_555
C21 H15 1_555 1_555
H16 C21 1_555 1_555
H17 C21 1_555 1_555
O5 C16 1_555 1_555
O6 C16 1_555 1_555
O7 C15 1_555 1_555
O8 C15 1_555 1_555
Zn4 O5 1_555 1_555
Zn5 O7 1_555 1_555
Zn6 O8 1_555 1_555
Zn7 O6 1_555 1_555
C13 C14 1_555 1_555
H9 C18 1_555 1_555
H10 C18 1_555 1_555
H12 C19 1_555 1_555
H13 C19 1_555 1_555
C20_2 H14_2 1_555 1_555
C21_2 H15_2 1_555 1_555
H16_2 C21_2 1_555 1_555
H17_2 C21_2 1_555 1_555
C22_2 H18_2 1_555 1_555
H19_2 C22_2 1_555 1_555
H20_2 C22_2 1_555 1_555
N2_2 C20_2 1_555 1_555
O10_2 C20_2 1_555 1_555
O11_2 H21_2 1_555 1_555
O15_2 Zn2_2 1_555 1_555
O17_2 Zn2_2 1_555 1_555
C21_2 N2_2 1_555 1_555
C22_2 N2_2 1_555 1_555
O10_2 Zn2_2 1_555 1_555
O11_2 Zn2_2 1_555 1_555
O8_2 C15_2 1_555 1_555
Zn7 O8_2 1_555 1_555
C1_2 C2_2 1_555 1_555
C2_2 C3_2 1_555 1_555
C3_2 H1_2 1_555 1_555
C4_2 C3_2 1_555 1_555
C5_2 C4_2 1_555 1_555
H2_2 C5_2 1_555 1_555
C6_2 C5_2 1_555 1_555
C7_2 C2_2 1_555 1_555
H3_2 C7_2 1_555 1_555
C8_2 C6_2 1_555 1_555
C9_2 C4_2 1_555 1_555
C10_2 C9_2 1_555 1_555
H4_2 C10_2 1_555 1_555
C11_2 C10_2 1_555 1_555
C12_2 C11_2 1_555 1_555
H5_2 C12_2 1_555 1_555
C13_2 C12_2 1_555 1_555
C14_2 C9_2 1_555 1_555
H6_2 C14_2 1_555 1_555
C16_2 C13_2 1_555 1_555
C17_2 H7_2 1_555 1_555
C18_2 H8_2 1_555 1_555
H9_2 C18_2 1_555 1_555
H10_2 C18_2 1_555 1_555
C19_2 H11_2 1_555 1_555
H12_2 C19_2 1_555 1_555
H13_2 C19_2 1_555 1_555
N1_2 C17_2 1_555 1_555
O12 C1_2 1_555 1_555
O13 C1_2 1_555 1_555
O3_2 C8_2 1_555 1_555
O4_2 C8_2 1_555 1_555
O5_2 C16_2 1_555 1_555
O6_2 C16_2 1_555 1_555
O9_2 C17_2 1_555 1_555
Zn3 O4_2 1_555 1_555
O14_2 Zn3 1_555 1_555
O16_2 Zn3 1_555 1_555
Zn5 O5_2 1_555 1_555
Zn6 O6_2 1_555 1_555
C6_2 C7_2 1_555 1_555
C13_2 C14_2 1_555 1_555
C18_2 N1_2 1_555 1_555
C19_2 N1_2 1_555 1_555
H9_3 C18_3 1_555 1_555
H10_3 C18_3 1_555 1_555
H12_3 C19_3 1_555 1_555
H13_3 C19_3 1_555 1_555
C10_3 C9_3 1_555 1_555
H4_3 C10_3 1_555 1_555
C11_3 C10_3 1_555 1_555
C12_3 C11_3 1_555 1_555
H5_3 C12_3 1_555 1_555
C13_3 C12_3 1_555 1_555
C14_3 C9_3 1_555 1_555
H6_3 C14_3 1_555 1_555
C15_3 C11_3 1_555 1_555
C16_3 C13_3 1_555 1_555
C21_3 H15_3 1_555 1_555
H16_3 C21_3 1_555 1_555
H17_3 C21_3 1_555 1_555
O14 C16_3 1_555 1_555
O15_2 C16_3 1_555 1_555
O16_2 C15_3 1_555 1_555
O17 C15_3 1_555 1_555
C13_3 C14_3 1_555 1_555
C1_3 C2_3 1_555 1_555
C2_3 C3_3 1_555 1_555
C3_3 H1_3 1_555 1_555
C4_3 C3_3 1_555 1_555
C5_3 C4_3 1_555 1_555
H2_3 C5_3 1_555 1_555
C6_3 C5_3 1_555 1_555
C7_3 C2_3 1_555 1_555
H3_3 C7_3 1_555 1_555
C8_3 C6_3 1_555 1_555
C17_3 H7_3 1_555 1_555
C20_3 H14_3 1_555 1_555
C22_3 H18_3 1_555 1_555
H19_3 C22_3 1_555 1_555
H20_3 C22_3 1_555 1_555
N1_3 C17_3 1_555 1_555
N2_3 C20_3 1_555 1_555
O1_2 C1_3 1_555 1_555
O2_2 C1_3 1_555 1_555
O3_3 C8_3 1_555 1_555
O4_3 C8_3 1_555 1_555
O9_3 C17_3 1_555 1_555
O10_3 C20_3 1_555 1_555
O11_3 H21_3 1_555 1_555
H22_3 O11_3 1_555 1_555
Zn6 O2_2 1_555 1_555
Zn5 O1_2 1_555 1_555
C6_3 C7_3 1_555 1_555
C22_3 N2_3 1_555 1_555
O2_2 Zn5 1_555 1_555
O9_3 Zn6 1_555 1_555
O10_3 Zn6 1_555 1_555
O11_3 Zn6 1_555 1_555
C1_4 C2_4 1_555 1_555
C2_4 C3_4 1_555 1_555
C3_4 H1_4 1_555 1_555
C4_4 C3_4 1_555 1_555
C5_4 C4_4 1_555 1_555
H2_4 C5_4 1_555 1_555
C6_4 C5_4 1_555 1_555
C7_4 C2_4 1_555 1_555
H3_4 C7_4 1_555 1_555
C8_4 C6_4 1_555 1_555
C9_4 C4_4 1_555 1_555
C10_4 C9_4 1_555 1_555
H4_4 C10_4 1_555 1_555
C11_4 C10_4 1_555 1_555
C12_4 C11_4 1_555 1_555
H5_4 C12_4 1_555 1_555
C13_4 C12_4 1_555 1_555
C14_4 C9_4 1_555 1_555
H6_4 C14_4 1_555 1_555
C16_4 C13_4 1_555 1_555
C17_4 H7_4 1_555 1_555
C18_4 H8_4 1_555 1_555
H9_4 C18_4 1_555 1_555
H10_4 C18_4 1_555 1_555
C19_4 H11_4 1_555 1_555
H12_4 C19_4 1_555 1_555
H13_4 C19_4 1_555 1_555
N1_4 C17_4 1_555 1_555
O12_2 C1_4 1_555 1_555
O13_2 C1_4 1_555 1_555
O3_4 C8_4 1_555 1_555
O4_4 C8_4 1_555 1_555
O14_2 C16_4 1_555 1_555
O15 C16_4 1_555 1_555
O9_4 C17_4 1_555 1_555
Zn5 O4_4 1_555 1_555
C6_4 C7_4 1_555 1_555
C13_4 C14_4 1_555 1_555
C18_4 N1_4 1_555 1_555
C19_4 N1_4 1_555 1_555
O17_2 C15_4 1_555 1_555
C20_4 H14_4 1_555 1_555
C21_4 H15_4 1_555 1_555
H16_4 C21_4 1_555 1_555
H17_4 C21_4 1_555 1_555
C22_4 H18_4 1_555 1_555
H19_4 C22_4 1_555 1_555
H20_4 C22_4 1_555 1_555
N2_4 C20_4 1_555 1_555
O10_4 C20_4 1_555 1_555
O11_4 H21_4 1_555 1_555
C21_4 N2_4 1_555 1_555
C22_4 N2_4 1_555 1_555
O10_4 Zn7 1_555 1_555
O11_4 Zn7 1_555 1_555

#END
