
###############################################################################
#
# This file contains modified crystal structure data generated from the
# MOF subset of the Cambridge Structural Database (CSD) v543 
# hosted by the Cambridge Crystallographic Data Centre (CCDC).
#
# This work is licensed under the Creative Commons
# Attribution-NonCommercial-ShareAlike 4.0 International License.
# To view a copy of this license, visit
# http://creativecommons.org/licenses/by-nc-sa/4.0/
# or send a letter to
# Creative Commons, PO Box 1866, Mountain View, CA 94042, USA.
#
# CIF created using the CSD Python API on 29 September 2022
# The structure has been converted into the P1 space group
# The structure has a 3D framework
# The original CSD entry MOMBEY40 is in the rhombohedral crystal system
# The framework has been calculated to contain at least 10.0% void space
# The void calculation uses a probe of radius 1.32A, grid spacing 0.4
# H atom positions have been added when not included in the experimental data
#
###############################################################################

data_MOMBEY40
_chemical_formula_moiety         '(C72 H18 Cu7 O44)n'
_symmetry_cell_setting           triclinic
_symmetry_space_group_name_H-M   'P 1'
_symmetry_Int_Tables_number      1
_space_group_name_Hall           'P 1'
loop_
_symmetry_equiv_pos_site_id
_symmetry_equiv_pos_as_xyz
1 x,y,z
_cell_length_a                   25.9200(4)
_cell_length_b                   25.9200(4)
_cell_length_c                   6.28558(10)
_cell_angle_alpha                90
_cell_angle_beta                 90
_cell_angle_gamma                120
_cell_volume                     3657.18
loop_
_atom_site_label
_atom_site_type_symbol
_atom_site_fract_x
_atom_site_fract_y
_atom_site_fract_z
Cu7 Cu 0.31817(10) 0.37162(7) 0.0080(3)
Cu1 Cu 0.29505(7) 0.27989(7) 0.3413(3)
C1 C 0.1593(6) 0.3152(5) 0.127(2)
C2 C 0.1210(6) 0.3262(6) 0.194(2)
C3 C 0.2082(5) 0.3195(6) 0.2615(19)
C4 C 0.0798(5) 0.3247(6) 0.026(2)
O1 O 0.2507(3) 0.3055(3) 0.1791(15)
O3 O 0.0512(3) 0.3549(3) 0.0712(12)
C5 C 0.1740(6) 0.3515(5) 0.540(2)
C6 C 0.2123(6) 0.3405(6) 0.473(2)
C7 C 0.1251(5) 0.3472(6) 0.4052(19)
C8 C 0.2535(5) 0.3420(6) 0.641(2)
O4 O 0.0826(3) 0.3612(3) 0.4876(15)
O5 O 0.2673(3) 0.3743(3) 0.7855(14)
O6 O 0.2821(3) 0.3118(3) 0.5955(12)
Cu4 Cu 0.01516(10) 0.29505(7) 0.6587(3)
Cu5 Cu 0.38678(7) 0.34849(10) 0.6746(3)
Cu8 Cu 0.03828(7) 0.38678(7) 0.3254(3)
O7 O 0.3612(3) 0.2785(4) 0.5124(15)
O9 O 0.2924(3) 0.2264(4) 0.1188(14)
O12 O 0.3630(4) 0.3845(3) 0.2621(12)
H2 H 0.176353 0.364932 0.705115
O2 O 0.0660(3) 0.2924(3) 0.8812(14)
O8 O 0.3881(4) 0.4160(3) 0.8458(15)
O11 O 0.3549(3) 0.3037(4) 0.9288(12)
H1 H 0.15698 0.301735 0.961551
Cu6 Cu 0.94656(7) 0.31817(10) 0.9920(3)
Cu6_2 Cu 0.37162(12) 0.05344(7) 0.9920(3)
Cu7_2 Cu 0.05344(12) 0.68183(10) 0.0080(3)
C1_2 C 0.1559(8) 0.8407(6) 0.127(2)
C2_2 C 0.2052(8) 0.8790(6) 0.194(2)
C3_2 C 0.1113(8) 0.7918(5) 0.2615(19)
C4_2 C 0.2449(8) 0.9202(5) 0.026(2)
O1_2 O 0.0548(4) 0.7493(3) 0.1791(15)
O3_2 O 0.3037(4) 0.9488(3) 0.0712(12)
C5_2 C 0.1774(8) 0.8260(6) 0.540(2)
C6_2 C 0.1281(8) 0.7877(6) 0.473(2)
C7_2 C 0.2220(8) 0.8749(5) 0.4052(19)
C8_2 C 0.0884(8) 0.7465(5) 0.641(2)
O4_2 O 0.2785(4) 0.9174(3) 0.4876(15)
O5_2 O 0.1069(4) 0.7327(3) 0.7855(14)
O6_2 O 0.0296(4) 0.7179(3) 0.5955(12)
Cu4_2 Cu 0.27989(12) 0.98484(10) 0.6587(3)
Cu8_2 Cu 0.34849(10) 0.96172(7) 0.3254(3)
O12_2 O 0.0216(5) 0.6370(4) 0.2621(12)
H2_2 H 0.188579 0.823647 0.705115
O2_2 O 0.2264(4) 0.9340(3) 0.8812(14)
O8_2 O 0.0278(5) 0.6119(4) 0.8458(15)
H1_2 H 0.144754 0.84302 0.961551
Cu1_2 Cu 0.98484(10) 0.70495(7) 0.3413(3)
Cu5_2 Cu 0.96172(12) 0.61322(7) 0.6746(3)
O7_2 O 0.9174(5) 0.6388(3) 0.5124(15)
O9_2 O 0.9340(5) 0.7076(3) 0.1188(14)
O11_2 O 0.9488(5) 0.6451(3) 0.9288(12)
Cu1_3 Cu 0.72011(7) 0.01516(10) 0.3413(3)
Cu5_3 Cu 0.65151(10) 0.03828(12) 0.6746(3)
O7_3 O 0.7215(4) 0.0826(5) 0.5124(15)
O9_3 O 0.7736(4) 0.0660(5) 0.1188(14)
O11_3 O 0.6963(4) 0.0512(5) 0.9288(12)
Cu7_3 Cu 0.62838(7) 0.94656(12) 0.0080(3)
C1_3 C 0.6848(5) 0.8441(8) 0.127(2)
C2_3 C 0.6738(6) 0.7948(8) 0.194(2)
C3_3 C 0.6805(6) 0.8887(8) 0.2615(19)
C4_3 C 0.6753(6) 0.7551(8) 0.026(2)
O1_3 O 0.6945(3) 0.9452(4) 0.1791(15)
O3_3 O 0.6451(3) 0.6963(4) 0.0712(12)
C5_3 C 0.6485(5) 0.8226(8) 0.540(2)
C6_3 C 0.6595(6) 0.8719(8) 0.473(2)
C7_3 C 0.6528(6) 0.7780(8) 0.4052(19)
C8_3 C 0.6580(6) 0.9116(8) 0.641(2)
O4_3 O 0.6388(3) 0.7215(4) 0.4876(15)
O5_3 O 0.6257(3) 0.8931(4) 0.7855(14)
O6_3 O 0.6882(3) 0.9704(4) 0.5955(12)
Cu4_3 Cu 0.70495(7) 0.72011(12) 0.6587(3)
Cu8_3 Cu 0.61322(7) 0.65151(10) 0.3254(3)
O12_3 O 0.6155(3) 0.9784(5) 0.2621(12)
H2_3 H 0.635068 0.811421 0.705115
O2_3 O 0.7076(3) 0.7736(4) 0.8812(14)
Cu6_3 Cu 0.68183(10) 0.62838(12) 0.9920(3)
O8_3 O 0.5840(3) 0.9722(5) 0.8458(15)
H1_3 H 0.698265 0.855246 0.961551
H2_4 H 0.84302 0.698265 0.0384488
C1_4 C 0.8260(6) 0.6485(5) 0.460(2)
C2_4 C 0.7877(6) 0.6595(6) 0.527(2)
C3_4 C 0.8749(5) 0.6528(6) 0.5948(19)
C4_4 C 0.7465(5) 0.6580(6) 0.359(2)
O2_4 O 0.7327(3) 0.6257(3) 0.2145(14)
O3_4 O 0.7179(3) 0.6882(3) 0.4045(12)
C5_4 C 0.8407(6) 0.6848(5) 0.873(2)
C6_4 C 0.8790(6) 0.6738(6) 0.806(2)
C7_4 C 0.7918(5) 0.6805(6) 0.7385(19)
C8_4 C 0.9202(5) 0.6753(6) 0.974(2)
O4_4 O 0.7493(3) 0.6945(3) 0.8209(15)
O9_4 O 0.9591(3) 0.5597(4) 0.4521(14)
H1_4 H 0.823647 0.635068 0.294885
H2_5 H 0.855246 0.15698 0.0384488
C1_5 C 0.8226(8) 0.1740(6) 0.460(2)
C2_5 C 0.8719(8) 0.2123(6) 0.527(2)
C3_5 C 0.7780(8) 0.1251(5) 0.5948(19)
C4_5 C 0.9116(8) 0.2535(5) 0.359(2)
O2_5 O 0.8931(4) 0.2673(3) 0.2145(14)
O3_5 O 0.9704(4) 0.2821(3) 0.4045(12)
C5_5 C 0.8441(8) 0.1593(6) 0.873(2)
C6_5 C 0.7948(8) 0.1210(6) 0.806(2)
C7_5 C 0.8887(8) 0.2082(5) 0.7385(19)
C8_5 C 0.7551(8) 0.0798(5) 0.974(2)
O4_5 O 0.9452(4) 0.2507(3) 0.8209(15)
O9_5 O 0.6007(5) 0.0409(3) 0.4521(14)
H1_5 H 0.811421 0.176353 0.294885
H2_6 H 0.301735 0.144754 0.0384488
C1_6 C 0.3515(5) 0.1774(8) 0.460(2)
C2_6 C 0.3405(6) 0.1281(8) 0.527(2)
C3_6 C 0.3472(6) 0.2220(8) 0.5948(19)
C4_6 C 0.3420(6) 0.0884(8) 0.359(2)
O2_6 O 0.3743(3) 0.1069(4) 0.2145(14)
O3_6 O 0.3118(3) 0.0296(4) 0.4045(12)
C5_6 C 0.3152(5) 0.1559(8) 0.873(2)
C6_6 C 0.3262(6) 0.2052(8) 0.806(2)
C7_6 C 0.3195(6) 0.1113(8) 0.7385(19)
C8_6 C 0.3247(6) 0.2449(8) 0.974(2)
O4_6 O 0.3055(3) 0.0548(4) 0.8209(15)
O9_6 O 0.4403(4) 0.3993(5) 0.4521(14)
H1_6 H 0.364932 0.188579 0.294885
C5_7 C 0.5074(6) 0.0181(5) 0.206(2)
C6_7 C 0.5457(6) 0.0071(6) 0.139(2)
C7_7 C 0.4585(5) 0.0138(6) 0.0718(19)
C8_7 C 0.5869(5) 0.0086(6) 0.307(2)
O4_7 O 0.4160(3) 0.0278(3) 0.1542(15)
H2_7 H 0.509686 0.0315984 0.371782
O3_7 O 0.3845(3) 0.0216(3) 0.7379(12)
C1_7 C 0.4926(6) 0.9819(5) 0.794(2)
C2_7 C 0.4543(6) 0.9929(6) 0.861(2)
C3_7 C 0.5415(5) 0.9862(6) 0.9282(19)
C4_7 C 0.4131(5) 0.9914(6) 0.693(2)
O2_7 O 0.3993(3) 0.9591(3) 0.5479(14)
H1_7 H 0.490314 0.968402 0.628218
C5_8 C 0.5108(8) 0.4926(6) 0.206(2)
C6_8 C 0.4615(8) 0.4543(6) 0.139(2)
C7_8 C 0.5554(8) 0.5415(5) 0.0718(19)
C8_8 C 0.4218(8) 0.4131(5) 0.307(2)
O4_8 O 0.6119(4) 0.5840(3) 0.1542(15)
H2_8 H 0.521912 0.490314 0.371782
C1_8 C 0.4892(8) 0.5074(6) 0.794(2)
C2_8 C 0.5385(8) 0.5457(6) 0.861(2)
C3_8 C 0.4446(8) 0.4585(5) 0.9282(19)
C4_8 C 0.5782(8) 0.5869(5) 0.693(2)
O2_8 O 0.5597(4) 0.6007(3) 0.5479(14)
O3_8 O 0.6370(4) 0.6155(3) 0.7379(12)
H1_8 H 0.478088 0.509686 0.628218
C1_9 C 0.0181(5) 0.5108(8) 0.794(2)
C2_9 C 0.0071(6) 0.4615(8) 0.861(2)
C3_9 C 0.0138(6) 0.5554(8) 0.9282(19)
C4_9 C 0.0086(6) 0.4218(8) 0.693(2)
O2_9 O 0.0409(3) 0.4403(4) 0.5479(14)
H1_9 H 0.0315984 0.521912 0.628218
C5_9 C 0.9819(5) 0.4892(8) 0.206(2)
C6_9 C 0.9929(6) 0.5385(8) 0.139(2)
C7_9 C 0.9862(6) 0.4446(8) 0.0718(19)
C8_9 C 0.9914(6) 0.5782(8) 0.307(2)
O4_9 O 0.9722(3) 0.3881(4) 0.1542(15)
H2_9 H 0.968402 0.478088 0.371782
O3_9 O 0.9784(3) 0.3630(4) 0.7379(12)
loop_
_geom_bond_atom_site_label_1
_geom_bond_atom_site_label_2
_geom_bond_site_symmetry_1
_geom_bond_site_symmetry_2
Cu1 O1 1_555 1_555
C1 C2 1_555 1_555
C2 C4 1_555 1_555
C3 C1 1_555 1_555
O1 C3 1_555 1_555
O3 C4 1_555 1_555
C5 C6 1_555 1_555
C6 C3 1_555 1_555
C7 C2 1_555 1_555
C8 C6 1_555 1_555
O4 C7 1_555 1_555
O5 C8 1_555 1_555
O6 Cu1 1_555 1_555
Cu7 O1 1_555 1_555
Cu4 O4 1_555 1_555
Cu5 O6 1_555 1_555
Cu8 O3 1_555 1_555
O7 Cu1 1_555 1_555
O9 Cu1 1_555 1_555
O12 Cu1 1_555 1_555
C5 C7 1_555 1_555
C8 O6 1_555 1_555
O4 Cu8 1_555 1_555
Cu7 O12 1_555 1_555
Cu5 O7 1_555 1_555
C5 H2 1_555 1_555
O2 Cu4 1_555 1_555
C1_2 C2_2 1_555 1_555
C2_2 C4_2 1_555 1_555
C3_2 C1_2 1_555 1_555
O1_2 C3_2 1_555 1_555
O3_2 C4_2 1_555 1_555
C5_2 C6_2 1_555 1_555
C6_2 C3_2 1_555 1_555
C7_2 C2_2 1_555 1_555
C8_2 C6_2 1_555 1_555
O4_2 C7_2 1_555 1_555
O5_2 C8_2 1_555 1_555
Cu7_2 O1_2 1_555 1_555
Cu4_2 O4_2 1_555 1_555
Cu8_2 O3_2 1_555 1_555
C5_2 C7_2 1_555 1_555
C8_2 O6_2 1_555 1_555
O4_2 Cu8_2 1_555 1_555
Cu7_2 O12_2 1_555 1_555
C5_2 H2_2 1_555 1_555
O2_2 Cu4_2 1_555 1_555
O7_2 Cu1_2 1_555 1_555
O9_2 Cu1_2 1_555 1_555
Cu5_2 O7_2 1_555 1_555
O7_3 Cu1_3 1_555 1_555
O9_3 Cu1_3 1_555 1_555
Cu5_3 O7_3 1_555 1_555
C1_3 C2_3 1_555 1_555
C2_3 C4_3 1_555 1_555
C3_3 C1_3 1_555 1_555
O1_3 C3_3 1_555 1_555
O3_3 C4_3 1_555 1_555
C5_3 C6_3 1_555 1_555
C6_3 C3_3 1_555 1_555
C7_3 C2_3 1_555 1_555
C8_3 C6_3 1_555 1_555
O4_3 C7_3 1_555 1_555
O5_3 C8_3 1_555 1_555
Cu7_3 O1_3 1_555 1_555
Cu4_3 O4_3 1_555 1_555
Cu8_3 O3_3 1_555 1_555
C5_3 C7_3 1_555 1_555
C8_3 O6_3 1_555 1_555
O4_3 Cu8_3 1_555 1_555
Cu7_3 O12_3 1_555 1_555
C5_3 H2_3 1_555 1_555
O2_3 Cu4_3 1_555 1_555
C1_4 C2_4 1_555 1_555
C2_4 C4_4 1_555 1_555
C3_4 C1_4 1_555 1_555
C4_4 O2_4 1_555 1_555
O7_2 C3_4 1_555 1_555
O3_4 C4_4 1_555 1_555
C5_4 C6_4 1_555 1_555
C6_4 C3_4 1_555 1_555
C7_4 C2_4 1_555 1_555
C8_4 C6_4 1_555 1_555
O4_4 C7_4 1_555 1_555
O11_2 Cu5_2 1_555 1_555
Cu6_3 O4_4 1_555 1_555
Cu8_3 O3_4 1_555 1_555
Cu4_3 O3_4 1_555 1_555
O9_4 Cu5_2 1_555 1_555
C5_4 C7_4 1_555 1_555
C8_4 O11_2 1_555 1_555
O4_4 Cu4_3 1_555 1_555
C1_4 H1_4 1_555 1_555
C1_5 C2_5 1_555 1_555
C2_5 C4_5 1_555 1_555
C3_5 C1_5 1_555 1_555
C4_5 O2_5 1_555 1_555
O7_3 C3_5 1_555 1_555
O3_5 C4_5 1_555 1_555
C5_5 C6_5 1_555 1_555
C6_5 C3_5 1_555 1_555
C7_5 C2_5 1_555 1_555
C8_5 C6_5 1_555 1_555
O4_5 C7_5 1_555 1_555
O11_3 Cu5_3 1_555 1_555
Cu6 O4_5 1_555 1_555
O9_5 Cu5_3 1_555 1_555
C5_5 C7_5 1_555 1_555
C8_5 O11_3 1_555 1_555
C1_5 H1_5 1_555 1_555
C1_6 C2_6 1_555 1_555
C2_6 C4_6 1_555 1_555
C3_6 C1_6 1_555 1_555
C4_6 O2_6 1_555 1_555
O7 C3_6 1_555 1_555
O3_6 C4_6 1_555 1_555
C5_6 C6_6 1_555 1_555
C6_6 C3_6 1_555 1_555
C7_6 C2_6 1_555 1_555
C8_6 C6_6 1_555 1_555
O4_6 C7_6 1_555 1_555
O11 Cu5 1_555 1_555
Cu6_2 O4_6 1_555 1_555
O8 Cu5 1_555 1_555
O9_6 Cu5 1_555 1_555
C5_6 C7_6 1_555 1_555
C8_6 O11 1_555 1_555
C1_6 H1_6 1_555 1_555
C5_7 C6_7 1_555 1_555
C8_7 C6_7 1_555 1_555
O4_7 C7_7 1_555 1_555
O9_5 C8_7 1_555 1_555
C5_7 C7_7 1_555 1_555
C5_7 H2_7 1_555 1_555
Cu6_2 O3_7 1_555 1_555
C1_7 C2_7 1_555 1_555
C2_7 C4_7 1_555 1_555
C3_7 C1_7 1_555 1_555
C4_7 O2_7 1_555 1_555
O8_3 C3_7 1_555 1_555
O2_7 Cu8_2 1_555 1_555
C1_7 H1_7 1_555 1_555
C5_8 C6_8 1_555 1_555
C8_8 C6_8 1_555 1_555
O4_8 C7_8 1_555 1_555
O9_6 C8_8 1_555 1_555
Cu8_3 O4_8 1_555 1_555
C5_8 C7_8 1_555 1_555
C8_8 O12 1_555 1_555
C5_8 H2_8 1_555 1_555
C1_8 C2_8 1_555 1_555
C2_8 C4_8 1_555 1_555
C3_8 C1_8 1_555 1_555
C4_8 O2_8 1_555 1_555
O8 C3_8 1_555 1_555
O2_8 Cu8_3 1_555 1_555
O3_8 C4_8 1_555 1_555
Cu4_3 O3_8 1_555 1_555
Cu6_3 O3_8 1_555 1_555
C1_8 H1_8 1_555 1_555
C1_9 C2_9 1_555 1_555
C2_9 C4_9 1_555 1_555
C3_9 C1_9 1_555 1_555
C4_9 O2_9 1_555 1_555
O8_2 C3_9 1_555 1_555
O2_9 Cu8 1_555 1_555
C1_9 H1_9 1_555 1_555
C5_9 C6_9 1_555 1_555
C8_9 C6_9 1_555 1_555
O4_9 C7_9 1_555 1_555
O9_4 C8_9 1_555 1_555
C5_9 C7_9 1_555 1_555
C5_9 H2_9 1_555 1_555
Cu6 O3_9 1_555 1_555

#END
