
###############################################################################
#
# This file contains modified crystal structure data generated from the
# MOF subset of the Cambridge Structural Database (CSD) v543 
# hosted by the Cambridge Crystallographic Data Centre (CCDC).
#
# This work is licensed under the Creative Commons
# Attribution-NonCommercial-ShareAlike 4.0 International License.
# To view a copy of this license, visit
# http://creativecommons.org/licenses/by-nc-sa/4.0/
# or send a letter to
# Creative Commons, PO Box 1866, Mountain View, CA 94042, USA.
#
# CIF created using the CSD Python API on 29 September 2022
# The structure has been converted into the P1 space group
# The structure has a 3D framework
# The original CSD entry MOMBEY24 is in the rhombohedral crystal system
# The framework has been calculated to contain at least 10.0% void space
# The void calculation uses a probe of radius 1.32A, grid spacing 0.4
# H atom positions have been added when not included in the experimental data
#
###############################################################################

data_MOMBEY24
_chemical_formula_moiety         '(C72 H18 Cu7 O44)n'
_symmetry_cell_setting           triclinic
_symmetry_space_group_name_H-M   'P 1'
_symmetry_Int_Tables_number      1
_space_group_name_Hall           'P 1'
loop_
_symmetry_equiv_pos_site_id
_symmetry_equiv_pos_as_xyz
1 x,y,z
_cell_length_a                   25.9166(5)
_cell_length_b                   25.9166(5)
_cell_length_c                   6.29231(13)
_cell_angle_alpha                90
_cell_angle_beta                 90
_cell_angle_gamma                120
_cell_volume                     3660.13
loop_
_atom_site_label
_atom_site_type_symbol
_atom_site_fract_x
_atom_site_fract_y
_atom_site_fract_z
Cu7 Cu 0.31820(11) 0.37163(8) 0.0079(3)
Cu1 Cu 0.29504(8) 0.27991(8) 0.3412(3)
C1 C 0.1589(6) 0.3153(5) 0.127(2)
C2 C 0.1212(7) 0.3265(6) 0.194(2)
C3 C 0.2078(6) 0.3192(6) 0.262(2)
C4 C 0.0799(6) 0.3247(7) 0.027(2)
O1 O 0.2506(4) 0.3055(4) 0.1783(17)
O3 O 0.0509(4) 0.3549(3) 0.0729(13)
C5 C 0.1744(6) 0.3514(5) 0.540(2)
C6 C 0.2121(7) 0.3402(6) 0.473(2)
C7 C 0.1255(6) 0.3475(6) 0.405(2)
C8 C 0.2534(6) 0.3420(7) 0.640(2)
O4 O 0.0827(4) 0.3612(4) 0.4884(17)
O5 O 0.2669(4) 0.3739(3) 0.7846(16)
O6 O 0.2824(4) 0.3118(3) 0.5938(13)
Cu4 Cu 0.01513(11) 0.29504(8) 0.6588(3)
Cu5 Cu 0.38676(8) 0.34846(11) 0.6745(3)
Cu8 Cu 0.03829(8) 0.38676(8) 0.3255(3)
O7 O 0.3612(4) 0.2784(6) 0.5116(17)
O9 O 0.2928(3) 0.2264(5) 0.1179(16)
O12 O 0.3627(5) 0.3842(4) 0.2604(13)
H2 H 0.176838 0.364744 0.705089
O2 O 0.0664(4) 0.2928(3) 0.8821(16)
O8 O 0.3882(6) 0.4161(4) 0.8450(17)
O11 O 0.3549(3) 0.3040(5) 0.9271(13)
H1 H 0.156495 0.301923 0.961578
Cu6 Cu 0.94658(8) 0.31820(11) 0.9921(3)
Cu6_2 Cu 0.37163(14) 0.05342(8) 0.9921(3)
Cu7_2 Cu 0.05342(14) 0.68180(11) 0.0079(3)
C1_2 C 0.1564(8) 0.8411(6) 0.127(2)
C2_2 C 0.2053(9) 0.8788(7) 0.194(2)
C3_2 C 0.1114(8) 0.7922(6) 0.262(2)
C4_2 C 0.2448(9) 0.9201(6) 0.027(2)
O1_2 O 0.0549(6) 0.7494(4) 0.1783(17)
O3_2 O 0.3040(5) 0.9491(4) 0.0729(13)
C5_2 C 0.1769(8) 0.8256(6) 0.540(2)
C6_2 C 0.1280(9) 0.7879(7) 0.473(2)
C7_2 C 0.2219(8) 0.8745(6) 0.405(2)
C8_2 C 0.0885(9) 0.7466(6) 0.640(2)
O4_2 O 0.2784(6) 0.9173(4) 0.4884(17)
O5_2 O 0.1069(5) 0.7331(4) 0.7846(16)
O6_2 O 0.0293(5) 0.7176(4) 0.5938(13)
Cu4_2 Cu 0.27991(14) 0.98487(11) 0.6588(3)
Cu8_2 Cu 0.34846(11) 0.96171(8) 0.3255(3)
O12_2 O 0.0216(6) 0.6373(5) 0.2604(13)
H2_2 H 0.187906 0.823162 0.705089
O2_2 O 0.2264(5) 0.9336(4) 0.8821(16)
O8_2 O 0.0278(7) 0.6118(6) 0.8450(17)
H1_2 H 0.145428 0.843505 0.961578
Cu1_2 Cu 0.98487(11) 0.70496(8) 0.3412(3)
Cu5_2 Cu 0.96171(14) 0.61324(8) 0.6745(3)
O7_2 O 0.9173(7) 0.6388(4) 0.5116(17)
O9_2 O 0.9336(6) 0.7072(3) 0.1179(16)
O11_2 O 0.9491(6) 0.6451(3) 0.9271(13)
Cu1_3 Cu 0.72009(8) 0.01513(11) 0.3412(3)
Cu5_3 Cu 0.65154(11) 0.03829(14) 0.6745(3)
O7_3 O 0.7216(6) 0.0827(7) 0.5116(17)
O9_3 O 0.7736(5) 0.0664(6) 0.1179(16)
O11_3 O 0.6960(5) 0.0509(6) 0.9271(13)
Cu7_3 Cu 0.62837(8) 0.94658(14) 0.0079(3)
C1_3 C 0.6847(5) 0.8436(8) 0.127(2)
C2_3 C 0.6735(6) 0.7947(9) 0.194(2)
C3_3 C 0.6808(6) 0.8886(8) 0.262(2)
C4_3 C 0.6753(7) 0.7552(9) 0.027(2)
O1_3 O 0.6945(4) 0.9451(6) 0.1783(17)
O3_3 O 0.6451(3) 0.6960(5) 0.0729(13)
C5_3 C 0.6486(5) 0.8231(8) 0.540(2)
C6_3 C 0.6598(6) 0.8720(9) 0.473(2)
C7_3 C 0.6525(6) 0.7781(8) 0.405(2)
C8_3 C 0.6580(7) 0.9115(9) 0.640(2)
O4_3 O 0.6388(4) 0.7216(6) 0.4884(17)
O5_3 O 0.6261(3) 0.8931(5) 0.7846(16)
O6_3 O 0.6882(3) 0.9707(5) 0.5938(13)
Cu4_3 Cu 0.70496(8) 0.72009(14) 0.6588(3)
Cu8_3 Cu 0.61324(8) 0.65154(11) 0.3255(3)
O12_3 O 0.6158(4) 0.9784(6) 0.2604(13)
H2_3 H 0.635256 0.812094 0.705089
O2_3 O 0.7072(3) 0.7736(5) 0.8821(16)
Cu6_3 Cu 0.68180(11) 0.62837(14) 0.9921(3)
O8_3 O 0.5839(4) 0.9722(7) 0.8450(17)
H1_3 H 0.698077 0.854572 0.961578
H2_4 H 0.843505 0.698077 0.0384222
C1_4 C 0.8256(6) 0.6486(5) 0.460(2)
C2_4 C 0.7879(7) 0.6598(6) 0.527(2)
C3_4 C 0.8745(6) 0.6525(6) 0.595(2)
C4_4 C 0.7466(6) 0.6580(7) 0.360(2)
O2_4 O 0.7331(4) 0.6261(3) 0.2154(16)
O3_4 O 0.7176(4) 0.6882(3) 0.4062(13)
C5_4 C 0.8411(6) 0.6847(5) 0.873(2)
C6_4 C 0.8788(7) 0.6735(6) 0.806(2)
C7_4 C 0.7922(6) 0.6808(6) 0.738(2)
C8_4 C 0.9201(6) 0.6753(7) 0.973(2)
O4_4 O 0.7494(4) 0.6945(4) 0.8217(17)
O9_4 O 0.9595(3) 0.5597(5) 0.4512(16)
H1_4 H 0.823162 0.635256 0.294911
H2_5 H 0.854572 0.156495 0.0384222
C1_5 C 0.8231(8) 0.1744(6) 0.460(2)
C2_5 C 0.8720(9) 0.2121(7) 0.527(2)
C3_5 C 0.7781(8) 0.1255(6) 0.595(2)
C4_5 C 0.9115(9) 0.2534(6) 0.360(2)
O2_5 O 0.8931(5) 0.2669(4) 0.2154(16)
O3_5 O 0.9707(5) 0.2824(4) 0.4062(13)
C5_5 C 0.8436(8) 0.1589(6) 0.873(2)
C6_5 C 0.7947(9) 0.1212(7) 0.806(2)
C7_5 C 0.8886(8) 0.2078(6) 0.738(2)
C8_5 C 0.7552(9) 0.0799(6) 0.973(2)
O4_5 O 0.9451(6) 0.2506(4) 0.8217(17)
O9_5 O 0.6003(6) 0.0405(3) 0.4512(16)
H1_5 H 0.812094 0.176838 0.294911
H2_6 H 0.301923 0.145428 0.0384222
C1_6 C 0.3514(5) 0.1769(8) 0.460(2)
C2_6 C 0.3402(6) 0.1280(9) 0.527(2)
C3_6 C 0.3475(6) 0.2219(8) 0.595(2)
C4_6 C 0.3420(7) 0.0885(9) 0.360(2)
O2_6 O 0.3739(3) 0.1069(5) 0.2154(16)
O3_6 O 0.3118(3) 0.0293(5) 0.4062(13)
C5_6 C 0.3153(5) 0.1564(8) 0.873(2)
C6_6 C 0.3265(6) 0.2053(9) 0.806(2)
C7_6 C 0.3192(6) 0.1114(8) 0.738(2)
C8_6 C 0.3247(7) 0.2448(9) 0.973(2)
O4_6 O 0.3055(4) 0.0549(6) 0.8217(17)
O9_6 O 0.4403(5) 0.3997(6) 0.4512(16)
H1_6 H 0.364744 0.187906 0.294911
C5_7 C 0.5078(6) 0.0180(5) 0.206(2)
C6_7 C 0.5455(7) 0.0068(6) 0.139(2)
C7_7 C 0.4589(6) 0.0141(6) 0.071(2)
C8_7 C 0.5868(6) 0.0086(7) 0.306(2)
O4_7 O 0.4161(4) 0.0278(4) 0.1550(17)
H2_7 H 0.510172 0.0314107 0.371755
O3_7 O 0.3842(4) 0.0216(3) 0.7396(13)
C1_7 C 0.4922(6) 0.9820(5) 0.794(2)
C2_7 C 0.4545(7) 0.9932(6) 0.861(2)
C3_7 C 0.5411(6) 0.9859(6) 0.929(2)
C4_7 C 0.4132(6) 0.9914(7) 0.694(2)
O2_7 O 0.3997(4) 0.9595(3) 0.5488(16)
H1_7 H 0.489828 0.968589 0.628245
C5_8 C 0.5103(8) 0.4922(6) 0.206(2)
C6_8 C 0.4614(9) 0.4545(7) 0.139(2)
C7_8 C 0.5553(8) 0.5411(6) 0.071(2)
C8_8 C 0.4219(9) 0.4132(6) 0.306(2)
O4_8 O 0.6118(6) 0.5839(4) 0.1550(17)
H2_8 H 0.521239 0.489828 0.371755
C1_8 C 0.4897(8) 0.5078(6) 0.794(2)
C2_8 C 0.5386(9) 0.5455(7) 0.861(2)
C3_8 C 0.4447(8) 0.4589(6) 0.929(2)
C4_8 C 0.5781(9) 0.5868(6) 0.694(2)
O2_8 O 0.5597(5) 0.6003(4) 0.5488(16)
O3_8 O 0.6373(5) 0.6158(4) 0.7396(13)
H1_8 H 0.478761 0.510172 0.628245
C1_9 C 0.0180(5) 0.5103(8) 0.794(2)
C2_9 C 0.0068(6) 0.4614(9) 0.861(2)
C3_9 C 0.0141(6) 0.5553(8) 0.929(2)
C4_9 C 0.0086(7) 0.4219(9) 0.694(2)
O2_9 O 0.0405(3) 0.4403(5) 0.5488(16)
H1_9 H 0.0314107 0.521239 0.628245
C5_9 C 0.9820(5) 0.4897(8) 0.206(2)
C6_9 C 0.9932(6) 0.5386(9) 0.139(2)
C7_9 C 0.9859(6) 0.4447(8) 0.071(2)
C8_9 C 0.9914(7) 0.5781(9) 0.306(2)
O4_9 O 0.9722(4) 0.3882(6) 0.1550(17)
H2_9 H 0.968589 0.478761 0.371755
O3_9 O 0.9784(3) 0.3627(5) 0.7396(13)
loop_
_geom_bond_atom_site_label_1
_geom_bond_atom_site_label_2
_geom_bond_site_symmetry_1
_geom_bond_site_symmetry_2
Cu1 O1 1_555 1_555
C1 C2 1_555 1_555
C2 C4 1_555 1_555
C3 C1 1_555 1_555
O1 C3 1_555 1_555
O3 C4 1_555 1_555
C5 C6 1_555 1_555
C6 C3 1_555 1_555
C7 C2 1_555 1_555
C8 C6 1_555 1_555
O4 C7 1_555 1_555
O5 C8 1_555 1_555
O6 Cu1 1_555 1_555
Cu7 O1 1_555 1_555
Cu4 O4 1_555 1_555
Cu5 O6 1_555 1_555
Cu8 O3 1_555 1_555
O7 Cu1 1_555 1_555
O9 Cu1 1_555 1_555
O12 Cu1 1_555 1_555
C5 C7 1_555 1_555
C8 O6 1_555 1_555
O4 Cu8 1_555 1_555
Cu7 O12 1_555 1_555
Cu5 O7 1_555 1_555
C5 H2 1_555 1_555
O2 Cu4 1_555 1_555
C1_2 C2_2 1_555 1_555
C2_2 C4_2 1_555 1_555
C3_2 C1_2 1_555 1_555
O1_2 C3_2 1_555 1_555
O3_2 C4_2 1_555 1_555
C5_2 C6_2 1_555 1_555
C6_2 C3_2 1_555 1_555
C7_2 C2_2 1_555 1_555
C8_2 C6_2 1_555 1_555
O4_2 C7_2 1_555 1_555
O5_2 C8_2 1_555 1_555
Cu7_2 O1_2 1_555 1_555
Cu4_2 O4_2 1_555 1_555
Cu8_2 O3_2 1_555 1_555
C5_2 C7_2 1_555 1_555
C8_2 O6_2 1_555 1_555
O4_2 Cu8_2 1_555 1_555
Cu7_2 O12_2 1_555 1_555
C5_2 H2_2 1_555 1_555
O2_2 Cu4_2 1_555 1_555
O7_2 Cu1_2 1_555 1_555
O9_2 Cu1_2 1_555 1_555
Cu5_2 O7_2 1_555 1_555
O7_3 Cu1_3 1_555 1_555
O9_3 Cu1_3 1_555 1_555
Cu5_3 O7_3 1_555 1_555
C1_3 C2_3 1_555 1_555
C2_3 C4_3 1_555 1_555
C3_3 C1_3 1_555 1_555
O1_3 C3_3 1_555 1_555
O3_3 C4_3 1_555 1_555
C5_3 C6_3 1_555 1_555
C6_3 C3_3 1_555 1_555
C7_3 C2_3 1_555 1_555
C8_3 C6_3 1_555 1_555
O4_3 C7_3 1_555 1_555
O5_3 C8_3 1_555 1_555
Cu7_3 O1_3 1_555 1_555
Cu4_3 O4_3 1_555 1_555
Cu8_3 O3_3 1_555 1_555
C5_3 C7_3 1_555 1_555
C8_3 O6_3 1_555 1_555
O4_3 Cu8_3 1_555 1_555
Cu7_3 O12_3 1_555 1_555
C5_3 H2_3 1_555 1_555
O2_3 Cu4_3 1_555 1_555
C1_4 C2_4 1_555 1_555
C2_4 C4_4 1_555 1_555
C3_4 C1_4 1_555 1_555
C4_4 O2_4 1_555 1_555
O7_2 C3_4 1_555 1_555
O3_4 C4_4 1_555 1_555
C5_4 C6_4 1_555 1_555
C6_4 C3_4 1_555 1_555
C7_4 C2_4 1_555 1_555
C8_4 C6_4 1_555 1_555
O4_4 C7_4 1_555 1_555
O11_2 Cu5_2 1_555 1_555
Cu6_3 O4_4 1_555 1_555
Cu8_3 O3_4 1_555 1_555
Cu4_3 O3_4 1_555 1_555
O9_4 Cu5_2 1_555 1_555
C5_4 C7_4 1_555 1_555
C8_4 O11_2 1_555 1_555
O4_4 Cu4_3 1_555 1_555
C1_4 H1_4 1_555 1_555
C1_5 C2_5 1_555 1_555
C2_5 C4_5 1_555 1_555
C3_5 C1_5 1_555 1_555
C4_5 O2_5 1_555 1_555
O7_3 C3_5 1_555 1_555
O3_5 C4_5 1_555 1_555
C5_5 C6_5 1_555 1_555
C6_5 C3_5 1_555 1_555
C7_5 C2_5 1_555 1_555
C8_5 C6_5 1_555 1_555
O4_5 C7_5 1_555 1_555
O11_3 Cu5_3 1_555 1_555
Cu6 O4_5 1_555 1_555
O9_5 Cu5_3 1_555 1_555
C5_5 C7_5 1_555 1_555
C8_5 O11_3 1_555 1_555
C1_5 H1_5 1_555 1_555
C1_6 C2_6 1_555 1_555
C2_6 C4_6 1_555 1_555
C3_6 C1_6 1_555 1_555
C4_6 O2_6 1_555 1_555
O7 C3_6 1_555 1_555
O3_6 C4_6 1_555 1_555
C5_6 C6_6 1_555 1_555
C6_6 C3_6 1_555 1_555
C7_6 C2_6 1_555 1_555
C8_6 C6_6 1_555 1_555
O4_6 C7_6 1_555 1_555
O11 Cu5 1_555 1_555
Cu6_2 O4_6 1_555 1_555
O8 Cu5 1_555 1_555
O9_6 Cu5 1_555 1_555
C5_6 C7_6 1_555 1_555
C8_6 O11 1_555 1_555
C1_6 H1_6 1_555 1_555
C5_7 C6_7 1_555 1_555
C8_7 C6_7 1_555 1_555
O4_7 C7_7 1_555 1_555
O9_5 C8_7 1_555 1_555
C5_7 C7_7 1_555 1_555
C5_7 H2_7 1_555 1_555
Cu6_2 O3_7 1_555 1_555
C1_7 C2_7 1_555 1_555
C2_7 C4_7 1_555 1_555
C3_7 C1_7 1_555 1_555
C4_7 O2_7 1_555 1_555
O8_3 C3_7 1_555 1_555
O2_7 Cu8_2 1_555 1_555
C1_7 H1_7 1_555 1_555
C5_8 C6_8 1_555 1_555
C8_8 C6_8 1_555 1_555
O4_8 C7_8 1_555 1_555
O9_6 C8_8 1_555 1_555
Cu8_3 O4_8 1_555 1_555
C5_8 C7_8 1_555 1_555
C8_8 O12 1_555 1_555
C5_8 H2_8 1_555 1_555
C1_8 C2_8 1_555 1_555
C2_8 C4_8 1_555 1_555
C3_8 C1_8 1_555 1_555
C4_8 O2_8 1_555 1_555
O8 C3_8 1_555 1_555
O2_8 Cu8_3 1_555 1_555
O3_8 C4_8 1_555 1_555
Cu4_3 O3_8 1_555 1_555
Cu6_3 O3_8 1_555 1_555
C1_8 H1_8 1_555 1_555
C1_9 C2_9 1_555 1_555
C2_9 C4_9 1_555 1_555
C3_9 C1_9 1_555 1_555
C4_9 O2_9 1_555 1_555
O8_2 C3_9 1_555 1_555
O2_9 Cu8 1_555 1_555
C1_9 H1_9 1_555 1_555
C5_9 C6_9 1_555 1_555
C8_9 C6_9 1_555 1_555
O4_9 C7_9 1_555 1_555
O9_4 C8_9 1_555 1_555
C5_9 C7_9 1_555 1_555
C5_9 H2_9 1_555 1_555
Cu6 O3_9 1_555 1_555

#END
