
###############################################################################
#
# This file contains modified crystal structure data generated from the
# MOF subset of the Cambridge Structural Database (CSD) v543 
# hosted by the Cambridge Crystallographic Data Centre (CCDC).
#
# This work is licensed under the Creative Commons
# Attribution-NonCommercial-ShareAlike 4.0 International License.
# To view a copy of this license, visit
# http://creativecommons.org/licenses/by-nc-sa/4.0/
# or send a letter to
# Creative Commons, PO Box 1866, Mountain View, CA 94042, USA.
#
# CIF created using the CSD Python API on 29 September 2022
# The structure has been converted into the P1 space group
# The structure has a 3D framework
# The original CSD entry MOMBEY13 is in the rhombohedral crystal system
# The framework has been calculated to contain at least 10.0% void space
# The void calculation uses a probe of radius 1.32A, grid spacing 0.4
# H atom positions have been added when not included in the experimental data
#
###############################################################################

data_MOMBEY13
_chemical_formula_moiety         '(C72 H18 Cu7 O44)n'
_symmetry_cell_setting           triclinic
_symmetry_space_group_name_H-M   'P 1'
_symmetry_Int_Tables_number      1
_space_group_name_Hall           'P 1'
loop_
_symmetry_equiv_pos_site_id
_symmetry_equiv_pos_as_xyz
1 x,y,z
_cell_length_a                   25.9141(5)
_cell_length_b                   25.9141(5)
_cell_length_c                   6.29714(15)
_cell_angle_alpha                90
_cell_angle_beta                 90
_cell_angle_gamma                120
_cell_volume                     3662.24
loop_
_atom_site_label
_atom_site_type_symbol
_atom_site_fract_x
_atom_site_fract_y
_atom_site_fract_z
Cu7 Cu 0.31819(12) 0.37165(9) 0.0079(4)
Cu1 Cu 0.29502(9) 0.27988(8) 0.3412(4)
C1 C 0.1590(7) 0.3155(6) 0.126(3)
C2 C 0.1213(7) 0.3266(7) 0.193(3)
C3 C 0.2077(6) 0.3190(7) 0.261(2)
C4 C 0.0799(7) 0.3250(8) 0.026(3)
O1 O 0.2505(4) 0.3052(4) 0.1776(18)
O3 O 0.0509(4) 0.3551(4) 0.0733(14)
C5 C 0.1743(7) 0.3512(6) 0.541(3)
C6 C 0.2120(7) 0.3401(7) 0.474(3)
C7 C 0.1256(6) 0.3477(7) 0.406(2)
C8 C 0.2534(7) 0.3417(8) 0.641(3)
O4 O 0.0828(4) 0.3615(4) 0.4891(18)
O5 O 0.2670(4) 0.3736(4) 0.7838(18)
O6 O 0.2824(4) 0.3116(4) 0.5934(14)
Cu4 Cu 0.01514(12) 0.29502(9) 0.6588(4)
Cu5 Cu 0.38679(8) 0.34847(12) 0.6745(4)
Cu8 Cu 0.03831(9) 0.38679(8) 0.3255(4)
O7 O 0.3615(4) 0.2786(6) 0.5109(18)
O9 O 0.2931(4) 0.2268(6) 0.1171(18)
O12 O 0.3625(6) 0.3842(4) 0.2600(14)
H2 H 0.176546 0.364171 0.706338
O2 O 0.0663(4) 0.2931(4) 0.8829(18)
O8 O 0.3880(6) 0.4162(4) 0.8443(18)
O11 O 0.3551(4) 0.3042(6) 0.9267(14)
H1 H 0.156787 0.302495 0.960328
Cu6 Cu 0.94655(8) 0.31819(12) 0.9921(4)
Cu6_2 Cu 0.37165(14) 0.05345(8) 0.9921(4)
Cu7_2 Cu 0.05345(15) 0.68181(12) 0.0079(4)
C1_2 C 0.1565(9) 0.8410(7) 0.126(3)
C2_2 C 0.2053(10) 0.8787(7) 0.193(3)
C3_2 C 0.1113(9) 0.7923(6) 0.261(2)
C4_2 C 0.2451(11) 0.9201(7) 0.026(3)
O1_2 O 0.0547(6) 0.7495(4) 0.1776(18)
O3_2 O 0.3042(6) 0.9491(4) 0.0733(14)
C5_2 C 0.1768(9) 0.8257(7) 0.541(3)
C6_2 C 0.1280(10) 0.7880(7) 0.474(3)
C7_2 C 0.2220(9) 0.8744(6) 0.406(2)
C8_2 C 0.0882(11) 0.7466(7) 0.641(3)
O4_2 O 0.2786(6) 0.9172(4) 0.4891(18)
O5_2 O 0.1065(6) 0.7330(4) 0.7838(18)
O6_2 O 0.0291(6) 0.7176(4) 0.5934(14)
Cu4_2 Cu 0.27988(15) 0.98486(12) 0.6588(4)
Cu8_2 Cu 0.34847(12) 0.96169(9) 0.3255(4)
O12_2 O 0.0218(7) 0.6375(6) 0.2600(14)
H2_2 H 0.187625 0.823454 0.706338
O2_2 O 0.2268(6) 0.9337(4) 0.8829(18)
O8_2 O 0.0281(7) 0.6120(6) 0.8443(18)
H1_2 H 0.145708 0.843213 0.960328
Cu1_2 Cu 0.98486(12) 0.70498(9) 0.3412(4)
Cu5_2 Cu 0.96169(14) 0.61321(8) 0.6745(4)
O7_2 O 0.9172(7) 0.6385(4) 0.5109(18)
O9_2 O 0.9337(7) 0.7069(4) 0.1171(18)
O11_2 O 0.9491(7) 0.6449(4) 0.9267(14)
Cu1_3 Cu 0.72012(8) 0.01514(12) 0.3412(4)
Cu5_3 Cu 0.65153(12) 0.03831(14) 0.6745(4)
O7_3 O 0.7214(6) 0.0828(7) 0.5109(18)
O9_3 O 0.7732(6) 0.0663(7) 0.1171(18)
O11_3 O 0.6958(6) 0.0509(7) 0.9267(14)
Cu7_3 Cu 0.62835(9) 0.94655(15) 0.0079(4)
C1_3 C 0.6845(6) 0.8435(9) 0.126(3)
C2_3 C 0.6734(7) 0.7947(10) 0.193(3)
C3_3 C 0.6810(7) 0.8887(9) 0.261(2)
C4_3 C 0.6750(8) 0.7549(11) 0.026(3)
O1_3 O 0.6948(4) 0.9453(6) 0.1776(18)
O3_3 O 0.6449(4) 0.6958(6) 0.0733(14)
C5_3 C 0.6488(6) 0.8232(9) 0.541(3)
C6_3 C 0.6599(7) 0.8720(10) 0.474(3)
C7_3 C 0.6523(7) 0.7780(9) 0.406(2)
C8_3 C 0.6583(8) 0.9118(11) 0.641(3)
O4_3 O 0.6385(4) 0.7214(6) 0.4891(18)
O5_3 O 0.6264(4) 0.8935(6) 0.7838(18)
O6_3 O 0.6884(4) 0.9709(6) 0.5934(14)
Cu4_3 Cu 0.70498(9) 0.72012(15) 0.6588(4)
Cu8_3 Cu 0.61321(8) 0.65153(12) 0.3255(4)
O12_3 O 0.6158(4) 0.9782(7) 0.2600(14)
H2_3 H 0.635829 0.812375 0.706338
O2_3 O 0.7069(4) 0.7732(6) 0.8829(18)
Cu6_3 Cu 0.68181(12) 0.62835(14) 0.9921(4)
O8_3 O 0.5838(4) 0.9719(7) 0.8443(18)
H1_3 H 0.697505 0.854292 0.960328
H2_4 H 0.843213 0.697505 0.0396716
C1_4 C 0.8257(7) 0.6488(6) 0.459(3)
C2_4 C 0.7880(7) 0.6599(7) 0.526(3)
C3_4 C 0.8744(6) 0.6523(7) 0.594(2)
C4_4 C 0.7466(7) 0.6583(8) 0.359(3)
O2_4 O 0.7330(4) 0.6264(4) 0.2162(18)
O3_4 O 0.7176(4) 0.6884(4) 0.4066(14)
C5_4 C 0.8410(7) 0.6845(6) 0.874(3)
C6_4 C 0.8787(7) 0.6734(7) 0.807(3)
C7_4 C 0.7923(6) 0.6810(7) 0.739(2)
C8_4 C 0.9201(7) 0.6750(8) 0.974(3)
O4_4 O 0.7495(4) 0.6948(4) 0.8224(18)
O9_4 O 0.9598(4) 0.5601(6) 0.4504(18)
H1_4 H 0.823454 0.635829 0.293662
H2_5 H 0.854292 0.156787 0.0396716
C1_5 C 0.8232(9) 0.1743(7) 0.459(3)
C2_5 C 0.8720(10) 0.2120(7) 0.526(3)
C3_5 C 0.7780(9) 0.1256(6) 0.594(2)
C4_5 C 0.9118(11) 0.2534(7) 0.359(3)
O2_5 O 0.8935(6) 0.2670(4) 0.2162(18)
O3_5 O 0.9709(6) 0.2824(4) 0.4066(14)
C5_5 C 0.8435(9) 0.1590(7) 0.874(3)
C6_5 C 0.7947(10) 0.1213(7) 0.807(3)
C7_5 C 0.8887(9) 0.2077(6) 0.739(2)
C8_5 C 0.7549(11) 0.0799(7) 0.974(3)
O4_5 O 0.9453(6) 0.2505(4) 0.8224(18)
O9_5 O 0.6004(7) 0.0402(4) 0.4504(18)
H1_5 H 0.812375 0.176546 0.293662
H2_6 H 0.302495 0.145708 0.0396716
C1_6 C 0.3512(6) 0.1768(9) 0.459(3)
C2_6 C 0.3401(7) 0.1280(10) 0.526(3)
C3_6 C 0.3477(7) 0.2220(9) 0.594(2)
C4_6 C 0.3417(8) 0.0882(11) 0.359(3)
O2_6 O 0.3736(4) 0.1065(6) 0.2162(18)
O3_6 O 0.3116(4) 0.0291(6) 0.4066(14)
C5_6 C 0.3155(6) 0.1565(9) 0.874(3)
C6_6 C 0.3266(7) 0.2053(10) 0.807(3)
C7_6 C 0.3190(7) 0.1113(9) 0.739(2)
C8_6 C 0.3250(8) 0.2451(11) 0.974(3)
O4_6 O 0.3052(4) 0.0547(6) 0.8224(18)
O9_6 O 0.4399(6) 0.3996(7) 0.4504(18)
H1_6 H 0.364171 0.187625 0.293662
C5_7 C 0.5077(7) 0.0178(6) 0.207(3)
C6_7 C 0.5454(7) 0.0067(7) 0.140(3)
C7_7 C 0.4590(6) 0.0143(7) 0.072(2)
C8_7 C 0.5868(7) 0.0083(8) 0.307(3)
O4_7 O 0.4162(4) 0.0281(4) 0.1557(18)
H2_7 H 0.509879 0.030838 0.373005
O3_7 O 0.3842(4) 0.0218(4) 0.7400(14)
C1_7 C 0.4923(7) 0.9822(6) 0.793(3)
C2_7 C 0.4546(7) 0.9933(7) 0.860(3)
C3_7 C 0.5410(6) 0.9857(7) 0.928(2)
C4_7 C 0.4132(7) 0.9917(8) 0.693(3)
O2_7 O 0.3996(4) 0.9598(4) 0.5496(18)
H1_7 H 0.490121 0.969162 0.626995
C5_8 C 0.5102(9) 0.4923(7) 0.207(3)
C6_8 C 0.4614(10) 0.4546(7) 0.140(3)
C7_8 C 0.5554(9) 0.5410(6) 0.072(2)
C8_8 C 0.4216(11) 0.4132(7) 0.307(3)
O4_8 O 0.6120(6) 0.5838(4) 0.1557(18)
H2_8 H 0.520959 0.490121 0.373005
C1_8 C 0.4898(9) 0.5077(7) 0.793(3)
C2_8 C 0.5386(10) 0.5454(7) 0.860(3)
C3_8 C 0.4446(9) 0.4590(6) 0.928(2)
C4_8 C 0.5784(11) 0.5868(7) 0.693(3)
O2_8 O 0.5601(6) 0.6004(4) 0.5496(18)
O3_8 O 0.6375(6) 0.6158(4) 0.7400(14)
H1_8 H 0.479041 0.509879 0.626995
C1_9 C 0.0178(6) 0.5102(9) 0.793(3)
C2_9 C 0.0067(7) 0.4614(10) 0.860(3)
C3_9 C 0.0143(7) 0.5554(9) 0.928(2)
C4_9 C 0.0083(8) 0.4216(11) 0.693(3)
O2_9 O 0.0402(4) 0.4399(6) 0.5496(18)
H1_9 H 0.030838 0.520959 0.626995
C5_9 C 0.9822(6) 0.4898(9) 0.207(3)
C6_9 C 0.9933(7) 0.5386(10) 0.140(3)
C7_9 C 0.9857(7) 0.4446(9) 0.072(2)
C8_9 C 0.9917(8) 0.5784(11) 0.307(3)
O4_9 O 0.9719(4) 0.3880(6) 0.1557(18)
H2_9 H 0.969162 0.479041 0.373005
O3_9 O 0.9782(4) 0.3625(6) 0.7400(14)
loop_
_geom_bond_atom_site_label_1
_geom_bond_atom_site_label_2
_geom_bond_site_symmetry_1
_geom_bond_site_symmetry_2
Cu1 O1 1_555 1_555
C1 C2 1_555 1_555
C2 C4 1_555 1_555
C3 C1 1_555 1_555
O1 C3 1_555 1_555
O3 C4 1_555 1_555
C5 C6 1_555 1_555
C6 C3 1_555 1_555
C7 C2 1_555 1_555
C8 C6 1_555 1_555
O4 C7 1_555 1_555
O5 C8 1_555 1_555
O6 Cu1 1_555 1_555
Cu7 O1 1_555 1_555
Cu4 O4 1_555 1_555
Cu5 O6 1_555 1_555
Cu8 O3 1_555 1_555
O7 Cu1 1_555 1_555
O9 Cu1 1_555 1_555
O12 Cu1 1_555 1_555
C5 C7 1_555 1_555
C8 O6 1_555 1_555
O4 Cu8 1_555 1_555
Cu7 O12 1_555 1_555
Cu5 O7 1_555 1_555
C5 H2 1_555 1_555
O2 Cu4 1_555 1_555
C1_2 C2_2 1_555 1_555
C2_2 C4_2 1_555 1_555
C3_2 C1_2 1_555 1_555
O1_2 C3_2 1_555 1_555
O3_2 C4_2 1_555 1_555
C5_2 C6_2 1_555 1_555
C6_2 C3_2 1_555 1_555
C7_2 C2_2 1_555 1_555
C8_2 C6_2 1_555 1_555
O4_2 C7_2 1_555 1_555
O5_2 C8_2 1_555 1_555
Cu7_2 O1_2 1_555 1_555
Cu4_2 O4_2 1_555 1_555
Cu8_2 O3_2 1_555 1_555
C5_2 C7_2 1_555 1_555
C8_2 O6_2 1_555 1_555
O4_2 Cu8_2 1_555 1_555
Cu7_2 O12_2 1_555 1_555
C5_2 H2_2 1_555 1_555
O2_2 Cu4_2 1_555 1_555
O7_2 Cu1_2 1_555 1_555
O9_2 Cu1_2 1_555 1_555
Cu5_2 O7_2 1_555 1_555
O7_3 Cu1_3 1_555 1_555
O9_3 Cu1_3 1_555 1_555
Cu5_3 O7_3 1_555 1_555
C1_3 C2_3 1_555 1_555
C2_3 C4_3 1_555 1_555
C3_3 C1_3 1_555 1_555
O1_3 C3_3 1_555 1_555
O3_3 C4_3 1_555 1_555
C5_3 C6_3 1_555 1_555
C6_3 C3_3 1_555 1_555
C7_3 C2_3 1_555 1_555
C8_3 C6_3 1_555 1_555
O4_3 C7_3 1_555 1_555
O5_3 C8_3 1_555 1_555
Cu7_3 O1_3 1_555 1_555
Cu4_3 O4_3 1_555 1_555
Cu8_3 O3_3 1_555 1_555
C5_3 C7_3 1_555 1_555
C8_3 O6_3 1_555 1_555
O4_3 Cu8_3 1_555 1_555
Cu7_3 O12_3 1_555 1_555
C5_3 H2_3 1_555 1_555
O2_3 Cu4_3 1_555 1_555
C1_4 C2_4 1_555 1_555
C2_4 C4_4 1_555 1_555
C3_4 C1_4 1_555 1_555
C4_4 O2_4 1_555 1_555
O7_2 C3_4 1_555 1_555
O3_4 C4_4 1_555 1_555
C5_4 C6_4 1_555 1_555
C6_4 C3_4 1_555 1_555
C7_4 C2_4 1_555 1_555
C8_4 C6_4 1_555 1_555
O4_4 C7_4 1_555 1_555
O11_2 Cu5_2 1_555 1_555
Cu6_3 O4_4 1_555 1_555
Cu8_3 O3_4 1_555 1_555
Cu4_3 O3_4 1_555 1_555
O9_4 Cu5_2 1_555 1_555
C5_4 C7_4 1_555 1_555
C8_4 O11_2 1_555 1_555
O4_4 Cu4_3 1_555 1_555
C1_4 H1_4 1_555 1_555
C1_5 C2_5 1_555 1_555
C2_5 C4_5 1_555 1_555
C3_5 C1_5 1_555 1_555
C4_5 O2_5 1_555 1_555
O7_3 C3_5 1_555 1_555
O3_5 C4_5 1_555 1_555
C5_5 C6_5 1_555 1_555
C6_5 C3_5 1_555 1_555
C7_5 C2_5 1_555 1_555
C8_5 C6_5 1_555 1_555
O4_5 C7_5 1_555 1_555
O11_3 Cu5_3 1_555 1_555
Cu6 O4_5 1_555 1_555
O9_5 Cu5_3 1_555 1_555
C5_5 C7_5 1_555 1_555
C8_5 O11_3 1_555 1_555
C1_5 H1_5 1_555 1_555
C1_6 C2_6 1_555 1_555
C2_6 C4_6 1_555 1_555
C3_6 C1_6 1_555 1_555
C4_6 O2_6 1_555 1_555
O7 C3_6 1_555 1_555
O3_6 C4_6 1_555 1_555
C5_6 C6_6 1_555 1_555
C6_6 C3_6 1_555 1_555
C7_6 C2_6 1_555 1_555
C8_6 C6_6 1_555 1_555
O4_6 C7_6 1_555 1_555
O11 Cu5 1_555 1_555
Cu6_2 O4_6 1_555 1_555
O8 Cu5 1_555 1_555
O9_6 Cu5 1_555 1_555
C5_6 C7_6 1_555 1_555
C8_6 O11 1_555 1_555
C1_6 H1_6 1_555 1_555
C5_7 C6_7 1_555 1_555
C8_7 C6_7 1_555 1_555
O4_7 C7_7 1_555 1_555
O9_5 C8_7 1_555 1_555
C5_7 C7_7 1_555 1_555
C5_7 H2_7 1_555 1_555
Cu6_2 O3_7 1_555 1_555
C1_7 C2_7 1_555 1_555
C2_7 C4_7 1_555 1_555
C3_7 C1_7 1_555 1_555
C4_7 O2_7 1_555 1_555
O8_3 C3_7 1_555 1_555
O2_7 Cu8_2 1_555 1_555
C1_7 H1_7 1_555 1_555
C5_8 C6_8 1_555 1_555
C8_8 C6_8 1_555 1_555
O4_8 C7_8 1_555 1_555
O9_6 C8_8 1_555 1_555
Cu8_3 O4_8 1_555 1_555
C5_8 C7_8 1_555 1_555
C8_8 O12 1_555 1_555
C5_8 H2_8 1_555 1_555
C1_8 C2_8 1_555 1_555
C2_8 C4_8 1_555 1_555
C3_8 C1_8 1_555 1_555
C4_8 O2_8 1_555 1_555
O8 C3_8 1_555 1_555
O2_8 Cu8_3 1_555 1_555
O3_8 C4_8 1_555 1_555
Cu4_3 O3_8 1_555 1_555
Cu6_3 O3_8 1_555 1_555
C1_8 H1_8 1_555 1_555
C1_9 C2_9 1_555 1_555
C2_9 C4_9 1_555 1_555
C3_9 C1_9 1_555 1_555
C4_9 O2_9 1_555 1_555
O8_2 C3_9 1_555 1_555
O2_9 Cu8 1_555 1_555
C1_9 H1_9 1_555 1_555
C5_9 C6_9 1_555 1_555
C8_9 C6_9 1_555 1_555
O4_9 C7_9 1_555 1_555
O9_4 C8_9 1_555 1_555
C5_9 C7_9 1_555 1_555
C5_9 H2_9 1_555 1_555
Cu6 O3_9 1_555 1_555

#END
