
###############################################################################
#
# This file contains modified crystal structure data generated from the
# MOF subset of the Cambridge Structural Database (CSD) v543 
# hosted by the Cambridge Crystallographic Data Centre (CCDC).
#
# This work is licensed under the Creative Commons
# Attribution-NonCommercial-ShareAlike 4.0 International License.
# To view a copy of this license, visit
# http://creativecommons.org/licenses/by-nc-sa/4.0/
# or send a letter to
# Creative Commons, PO Box 1866, Mountain View, CA 94042, USA.
#
# CIF created using the CSD Python API on 29 September 2022
# The structure has been converted into the P1 space group
# The structure has a 3D framework
# The original CSD entry MOMBEY32 is in the rhombohedral crystal system
# The framework has been calculated to contain at least 10.0% void space
# The void calculation uses a probe of radius 1.32A, grid spacing 0.4
# H atom positions have been added when not included in the experimental data
#
###############################################################################

data_MOMBEY32
_chemical_formula_moiety         '(C72 H18 Cu7 O44)n'
_symmetry_cell_setting           triclinic
_symmetry_space_group_name_H-M   'P 1'
_symmetry_Int_Tables_number      1
_space_group_name_Hall           'P 1'
loop_
_symmetry_equiv_pos_site_id
_symmetry_equiv_pos_as_xyz
1 x,y,z
_cell_length_a                   25.9184(4)
_cell_length_b                   25.9184(4)
_cell_length_c                   6.28886(11)
_cell_angle_alpha                90
_cell_angle_beta                 90
_cell_angle_gamma                120
_cell_volume                     3658.63
loop_
_atom_site_label
_atom_site_type_symbol
_atom_site_fract_x
_atom_site_fract_y
_atom_site_fract_z
Cu7 Cu 0.31822(10) 0.37161(7) 0.0080(3)
Cu1 Cu 0.29506(7) 0.27995(7) 0.3413(3)
C1 C 0.1589(6) 0.3151(5) 0.127(2)
C2 C 0.1211(6) 0.3263(6) 0.194(2)
C3 C 0.2080(5) 0.3195(6) 0.262(2)
C4 C 0.0798(6) 0.3246(7) 0.027(2)
O1 O 0.2505(3) 0.3054(3) 0.1787(15)
O3 O 0.0511(3) 0.3550(3) 0.0719(12)
C5 C 0.1744(6) 0.3516(5) 0.540(2)
C6 C 0.2122(6) 0.3404(6) 0.473(2)
C7 C 0.1253(5) 0.3472(6) 0.405(2)
C8 C 0.2535(6) 0.3421(7) 0.640(2)
O4 O 0.0828(3) 0.3613(3) 0.4880(15)
O5 O 0.2669(3) 0.3740(3) 0.7840(15)
O6 O 0.2822(3) 0.3117(3) 0.5948(12)
Cu4 Cu 0.01511(10) 0.29506(7) 0.6587(3)
Cu5 Cu 0.38672(7) 0.34844(10) 0.6746(3)
Cu8 Cu 0.03827(7) 0.38672(7) 0.3254(3)
O7 O 0.3613(3) 0.2784(4) 0.5120(15)
O9 O 0.2927(3) 0.2263(4) 0.1173(15)
O12 O 0.3628(4) 0.3844(3) 0.2614(12)
H2 H 0.176977 0.36529 0.704802
O2 O 0.0664(3) 0.2927(3) 0.8827(15)
O8 O 0.3882(4) 0.4162(3) 0.8454(15)
O11 O 0.3550(3) 0.3039(4) 0.9281(12)
H1 H 0.156356 0.301376 0.961865
Cu6 Cu 0.94662(7) 0.31822(10) 0.9920(3)
Cu6_2 Cu 0.37161(12) 0.05338(7) 0.9920(3)
Cu7_2 Cu 0.05338(12) 0.68178(10) 0.0080(3)
C1_2 C 0.1562(8) 0.8411(6) 0.127(2)
C2_2 C 0.2052(8) 0.8789(6) 0.194(2)
C3_2 C 0.1115(8) 0.7920(5) 0.262(2)
C4_2 C 0.2448(9) 0.9202(6) 0.027(2)
O1_2 O 0.0549(4) 0.7495(3) 0.1787(15)
O3_2 O 0.3039(4) 0.9489(3) 0.0719(12)
C5_2 C 0.1771(8) 0.8256(6) 0.540(2)
C6_2 C 0.1281(8) 0.7878(6) 0.473(2)
C7_2 C 0.2218(8) 0.8747(5) 0.405(2)
C8_2 C 0.0885(9) 0.7465(6) 0.640(2)
O4_2 O 0.2784(4) 0.9172(3) 0.4880(15)
O5_2 O 0.1070(4) 0.7331(3) 0.7840(15)
O6_2 O 0.0294(4) 0.7178(3) 0.5948(12)
Cu4_2 Cu 0.27995(12) 0.98489(10) 0.6587(3)
Cu8_2 Cu 0.34844(10) 0.96173(7) 0.3254(3)
O12_2 O 0.0217(5) 0.6372(4) 0.2614(12)
H2_2 H 0.188313 0.823023 0.704802
O2_2 O 0.2263(4) 0.9336(3) 0.8827(15)
O8_2 O 0.0279(5) 0.6118(4) 0.8454(15)
H1_2 H 0.14502 0.843644 0.961865
Cu1_2 Cu 0.98489(10) 0.70494(7) 0.3413(3)
Cu5_2 Cu 0.96173(12) 0.61328(7) 0.6746(3)
O7_2 O 0.9172(5) 0.6387(3) 0.5120(15)
O9_2 O 0.9336(5) 0.7073(3) 0.1173(15)
O11_2 O 0.9489(5) 0.6450(3) 0.9281(12)
Cu1_3 Cu 0.72005(7) 0.01511(10) 0.3413(3)
Cu5_3 Cu 0.65156(10) 0.03827(12) 0.6746(3)
O7_3 O 0.7216(4) 0.0828(5) 0.5120(15)
O9_3 O 0.7737(4) 0.0664(5) 0.1173(15)
O11_3 O 0.6961(4) 0.0511(5) 0.9281(12)
Cu7_3 Cu 0.62839(7) 0.94662(12) 0.0080(3)
C1_3 C 0.6849(5) 0.8438(8) 0.127(2)
C2_3 C 0.6737(6) 0.7948(8) 0.194(2)
C3_3 C 0.6805(6) 0.8885(8) 0.262(2)
C4_3 C 0.6754(7) 0.7552(9) 0.027(2)
O1_3 O 0.6946(3) 0.9451(4) 0.1787(15)
O3_3 O 0.6450(3) 0.6961(4) 0.0719(12)
C5_3 C 0.6484(5) 0.8229(8) 0.540(2)
C6_3 C 0.6596(6) 0.8719(8) 0.473(2)
C7_3 C 0.6528(6) 0.7782(8) 0.405(2)
C8_3 C 0.6579(7) 0.9115(9) 0.640(2)
O4_3 O 0.6387(3) 0.7216(4) 0.4880(15)
O5_3 O 0.6260(3) 0.8930(4) 0.7840(15)
O6_3 O 0.6883(3) 0.9706(4) 0.5948(12)
Cu4_3 Cu 0.70494(7) 0.72005(12) 0.6587(3)
Cu8_3 Cu 0.61328(7) 0.65156(10) 0.3254(3)
O12_3 O 0.6156(3) 0.9783(5) 0.2614(12)
H2_3 H 0.63471 0.811687 0.704802
O2_3 O 0.7073(3) 0.7737(4) 0.8827(15)
Cu6_3 Cu 0.68178(10) 0.62839(12) 0.9920(3)
O8_3 O 0.5838(3) 0.9721(5) 0.8454(15)
H1_3 H 0.698624 0.85498 0.961865
H2_4 H 0.843644 0.698624 0.0381348
C1_4 C 0.8256(6) 0.6484(5) 0.460(2)
C2_4 C 0.7878(6) 0.6596(6) 0.527(2)
C3_4 C 0.8747(5) 0.6528(6) 0.595(2)
C4_4 C 0.7465(6) 0.6579(7) 0.360(2)
O2_4 O 0.7331(3) 0.6260(3) 0.2160(15)
O3_4 O 0.7178(3) 0.6883(3) 0.4052(12)
C5_4 C 0.8411(6) 0.6849(5) 0.873(2)
C6_4 C 0.8789(6) 0.6737(6) 0.806(2)
C7_4 C 0.7920(5) 0.6805(6) 0.738(2)
C8_4 C 0.9202(6) 0.6754(7) 0.973(2)
O4_4 O 0.7495(3) 0.6946(3) 0.8213(15)
O9_4 O 0.9594(3) 0.5596(4) 0.4506(15)
H1_4 H 0.823023 0.63471 0.295198
H2_5 H 0.85498 0.156356 0.0381348
C1_5 C 0.8229(8) 0.1744(6) 0.460(2)
C2_5 C 0.8719(8) 0.2122(6) 0.527(2)
C3_5 C 0.7782(8) 0.1253(5) 0.595(2)
C4_5 C 0.9115(9) 0.2535(6) 0.360(2)
O2_5 O 0.8930(4) 0.2669(3) 0.2160(15)
O3_5 O 0.9706(4) 0.2822(3) 0.4052(12)
C5_5 C 0.8438(8) 0.1589(6) 0.873(2)
C6_5 C 0.7948(8) 0.1211(6) 0.806(2)
C7_5 C 0.8885(8) 0.2080(5) 0.738(2)
C8_5 C 0.7552(9) 0.0798(6) 0.973(2)
O4_5 O 0.9451(4) 0.2505(3) 0.8213(15)
O9_5 O 0.6003(5) 0.0406(3) 0.4506(15)
H1_5 H 0.811687 0.176977 0.295198
H2_6 H 0.301376 0.14502 0.0381348
C1_6 C 0.3516(5) 0.1771(8) 0.460(2)
C2_6 C 0.3404(6) 0.1281(8) 0.527(2)
C3_6 C 0.3472(6) 0.2218(8) 0.595(2)
C4_6 C 0.3421(7) 0.0885(9) 0.360(2)
O2_6 O 0.3740(3) 0.1070(4) 0.2160(15)
O3_6 O 0.3117(3) 0.0294(4) 0.4052(12)
C5_6 C 0.3151(5) 0.1562(8) 0.873(2)
C6_6 C 0.3263(6) 0.2052(8) 0.806(2)
C7_6 C 0.3195(6) 0.1115(8) 0.738(2)
C8_6 C 0.3246(7) 0.2448(9) 0.973(2)
O4_6 O 0.3054(3) 0.0549(4) 0.8213(15)
O9_6 O 0.4404(4) 0.3997(5) 0.4506(15)
H1_6 H 0.36529 0.188313 0.295198
C5_7 C 0.5078(6) 0.0182(5) 0.206(2)
C6_7 C 0.5456(6) 0.0070(6) 0.139(2)
C7_7 C 0.4587(5) 0.0138(6) 0.071(2)
C8_7 C 0.5869(6) 0.0087(7) 0.306(2)
O4_7 O 0.4162(3) 0.0279(3) 0.1546(15)
H2_7 H 0.51031 0.0319572 0.371468
O3_7 O 0.3844(3) 0.0217(3) 0.7386(12)
C1_7 C 0.4922(6) 0.9818(5) 0.794(2)
C2_7 C 0.4544(6) 0.9930(6) 0.861(2)
C3_7 C 0.5413(5) 0.9862(6) 0.929(2)
C4_7 C 0.4131(6) 0.9913(7) 0.694(2)
O2_7 O 0.3997(3) 0.9594(3) 0.5494(15)
H1_7 H 0.48969 0.968043 0.628532
C5_8 C 0.5105(8) 0.4922(6) 0.206(2)
C6_8 C 0.4615(8) 0.4544(6) 0.139(2)
C7_8 C 0.5552(8) 0.5413(5) 0.071(2)
C8_8 C 0.4219(9) 0.4131(6) 0.306(2)
O4_8 O 0.6118(4) 0.5838(3) 0.1546(15)
H2_8 H 0.521647 0.48969 0.371468
C1_8 C 0.4895(8) 0.5078(6) 0.794(2)
C2_8 C 0.5385(8) 0.5456(6) 0.861(2)
C3_8 C 0.4448(8) 0.4587(5) 0.929(2)
C4_8 C 0.5781(9) 0.5869(6) 0.694(2)
O2_8 O 0.5596(4) 0.6003(3) 0.5494(15)
O3_8 O 0.6372(4) 0.6156(3) 0.7386(12)
H1_8 H 0.478353 0.51031 0.628532
C1_9 C 0.0182(5) 0.5105(8) 0.794(2)
C2_9 C 0.0070(6) 0.4615(8) 0.861(2)
C3_9 C 0.0138(6) 0.5552(8) 0.929(2)
C4_9 C 0.0087(7) 0.4219(9) 0.694(2)
O2_9 O 0.0406(3) 0.4404(4) 0.5494(15)
H1_9 H 0.0319572 0.521647 0.628532
C5_9 C 0.9818(5) 0.4895(8) 0.206(2)
C6_9 C 0.9930(6) 0.5385(8) 0.139(2)
C7_9 C 0.9862(6) 0.4448(8) 0.071(2)
C8_9 C 0.9913(7) 0.5781(9) 0.306(2)
O4_9 O 0.9721(3) 0.3882(4) 0.1546(15)
H2_9 H 0.968043 0.478353 0.371468
O3_9 O 0.9783(3) 0.3628(4) 0.7386(12)
loop_
_geom_bond_atom_site_label_1
_geom_bond_atom_site_label_2
_geom_bond_site_symmetry_1
_geom_bond_site_symmetry_2
Cu1 O1 1_555 1_555
C1 C2 1_555 1_555
C2 C4 1_555 1_555
C3 C1 1_555 1_555
O1 C3 1_555 1_555
O3 C4 1_555 1_555
C5 C6 1_555 1_555
C6 C3 1_555 1_555
C7 C2 1_555 1_555
C8 C6 1_555 1_555
O4 C7 1_555 1_555
O5 C8 1_555 1_555
O6 Cu1 1_555 1_555
Cu7 O1 1_555 1_555
Cu4 O4 1_555 1_555
Cu5 O6 1_555 1_555
Cu8 O3 1_555 1_555
O7 Cu1 1_555 1_555
O9 Cu1 1_555 1_555
O12 Cu1 1_555 1_555
C5 C7 1_555 1_555
C8 O6 1_555 1_555
O4 Cu8 1_555 1_555
Cu7 O12 1_555 1_555
Cu5 O7 1_555 1_555
C5 H2 1_555 1_555
O2 Cu4 1_555 1_555
C1_2 C2_2 1_555 1_555
C2_2 C4_2 1_555 1_555
C3_2 C1_2 1_555 1_555
O1_2 C3_2 1_555 1_555
O3_2 C4_2 1_555 1_555
C5_2 C6_2 1_555 1_555
C6_2 C3_2 1_555 1_555
C7_2 C2_2 1_555 1_555
C8_2 C6_2 1_555 1_555
O4_2 C7_2 1_555 1_555
O5_2 C8_2 1_555 1_555
Cu7_2 O1_2 1_555 1_555
Cu4_2 O4_2 1_555 1_555
Cu8_2 O3_2 1_555 1_555
C5_2 C7_2 1_555 1_555
C8_2 O6_2 1_555 1_555
O4_2 Cu8_2 1_555 1_555
Cu7_2 O12_2 1_555 1_555
C5_2 H2_2 1_555 1_555
O2_2 Cu4_2 1_555 1_555
O7_2 Cu1_2 1_555 1_555
O9_2 Cu1_2 1_555 1_555
Cu5_2 O7_2 1_555 1_555
O7_3 Cu1_3 1_555 1_555
O9_3 Cu1_3 1_555 1_555
Cu5_3 O7_3 1_555 1_555
C1_3 C2_3 1_555 1_555
C2_3 C4_3 1_555 1_555
C3_3 C1_3 1_555 1_555
O1_3 C3_3 1_555 1_555
O3_3 C4_3 1_555 1_555
C5_3 C6_3 1_555 1_555
C6_3 C3_3 1_555 1_555
C7_3 C2_3 1_555 1_555
C8_3 C6_3 1_555 1_555
O4_3 C7_3 1_555 1_555
O5_3 C8_3 1_555 1_555
Cu7_3 O1_3 1_555 1_555
Cu4_3 O4_3 1_555 1_555
Cu8_3 O3_3 1_555 1_555
C5_3 C7_3 1_555 1_555
C8_3 O6_3 1_555 1_555
O4_3 Cu8_3 1_555 1_555
Cu7_3 O12_3 1_555 1_555
C5_3 H2_3 1_555 1_555
O2_3 Cu4_3 1_555 1_555
C1_4 C2_4 1_555 1_555
C2_4 C4_4 1_555 1_555
C3_4 C1_4 1_555 1_555
C4_4 O2_4 1_555 1_555
O7_2 C3_4 1_555 1_555
O3_4 C4_4 1_555 1_555
C5_4 C6_4 1_555 1_555
C6_4 C3_4 1_555 1_555
C7_4 C2_4 1_555 1_555
C8_4 C6_4 1_555 1_555
O4_4 C7_4 1_555 1_555
O11_2 Cu5_2 1_555 1_555
Cu6_3 O4_4 1_555 1_555
Cu8_3 O3_4 1_555 1_555
Cu4_3 O3_4 1_555 1_555
O9_4 Cu5_2 1_555 1_555
C5_4 C7_4 1_555 1_555
C8_4 O11_2 1_555 1_555
O4_4 Cu4_3 1_555 1_555
C1_4 H1_4 1_555 1_555
C1_5 C2_5 1_555 1_555
C2_5 C4_5 1_555 1_555
C3_5 C1_5 1_555 1_555
C4_5 O2_5 1_555 1_555
O7_3 C3_5 1_555 1_555
O3_5 C4_5 1_555 1_555
C5_5 C6_5 1_555 1_555
C6_5 C3_5 1_555 1_555
C7_5 C2_5 1_555 1_555
C8_5 C6_5 1_555 1_555
O4_5 C7_5 1_555 1_555
O11_3 Cu5_3 1_555 1_555
Cu6 O4_5 1_555 1_555
O9_5 Cu5_3 1_555 1_555
C5_5 C7_5 1_555 1_555
C8_5 O11_3 1_555 1_555
C1_5 H1_5 1_555 1_555
C1_6 C2_6 1_555 1_555
C2_6 C4_6 1_555 1_555
C3_6 C1_6 1_555 1_555
C4_6 O2_6 1_555 1_555
O7 C3_6 1_555 1_555
O3_6 C4_6 1_555 1_555
C5_6 C6_6 1_555 1_555
C6_6 C3_6 1_555 1_555
C7_6 C2_6 1_555 1_555
C8_6 C6_6 1_555 1_555
O4_6 C7_6 1_555 1_555
O11 Cu5 1_555 1_555
Cu6_2 O4_6 1_555 1_555
O8 Cu5 1_555 1_555
O9_6 Cu5 1_555 1_555
C5_6 C7_6 1_555 1_555
C8_6 O11 1_555 1_555
C1_6 H1_6 1_555 1_555
C5_7 C6_7 1_555 1_555
C8_7 C6_7 1_555 1_555
O4_7 C7_7 1_555 1_555
O9_5 C8_7 1_555 1_555
C5_7 C7_7 1_555 1_555
C5_7 H2_7 1_555 1_555
Cu6_2 O3_7 1_555 1_555
C1_7 C2_7 1_555 1_555
C2_7 C4_7 1_555 1_555
C3_7 C1_7 1_555 1_555
C4_7 O2_7 1_555 1_555
O8_3 C3_7 1_555 1_555
O2_7 Cu8_2 1_555 1_555
C1_7 H1_7 1_555 1_555
C5_8 C6_8 1_555 1_555
C8_8 C6_8 1_555 1_555
O4_8 C7_8 1_555 1_555
O9_6 C8_8 1_555 1_555
Cu8_3 O4_8 1_555 1_555
C5_8 C7_8 1_555 1_555
C8_8 O12 1_555 1_555
C5_8 H2_8 1_555 1_555
C1_8 C2_8 1_555 1_555
C2_8 C4_8 1_555 1_555
C3_8 C1_8 1_555 1_555
C4_8 O2_8 1_555 1_555
O8 C3_8 1_555 1_555
O2_8 Cu8_3 1_555 1_555
O3_8 C4_8 1_555 1_555
Cu4_3 O3_8 1_555 1_555
Cu6_3 O3_8 1_555 1_555
C1_8 H1_8 1_555 1_555
C1_9 C2_9 1_555 1_555
C2_9 C4_9 1_555 1_555
C3_9 C1_9 1_555 1_555
C4_9 O2_9 1_555 1_555
O8_2 C3_9 1_555 1_555
O2_9 Cu8 1_555 1_555
C1_9 H1_9 1_555 1_555
C5_9 C6_9 1_555 1_555
C8_9 C6_9 1_555 1_555
O4_9 C7_9 1_555 1_555
O9_4 C8_9 1_555 1_555
C5_9 C7_9 1_555 1_555
C5_9 H2_9 1_555 1_555
Cu6 O3_9 1_555 1_555

#END
