
###############################################################################
#
# This file contains modified crystal structure data generated from the
# MOF subset of the Cambridge Structural Database (CSD) v543 
# hosted by the Cambridge Crystallographic Data Centre (CCDC).
#
# This work is licensed under the Creative Commons
# Attribution-NonCommercial-ShareAlike 4.0 International License.
# To view a copy of this license, visit
# http://creativecommons.org/licenses/by-nc-sa/4.0/
# or send a letter to
# Creative Commons, PO Box 1866, Mountain View, CA 94042, USA.
#
# CIF created using the CSD Python API on 29 September 2022
# The structure has been converted into the P1 space group
# The structure has a 3D framework
# The original CSD entry MOMBEY26 is in the rhombohedral crystal system
# The framework has been calculated to contain at least 10.0% void space
# The void calculation uses a probe of radius 1.32A, grid spacing 0.4
# H atom positions have been added when not included in the experimental data
#
###############################################################################

data_MOMBEY26
_chemical_formula_moiety         '(C72 H18 Cu7 O44)n'
_symmetry_cell_setting           triclinic
_symmetry_space_group_name_H-M   'P 1'
_symmetry_Int_Tables_number      1
_space_group_name_Hall           'P 1'
loop_
_symmetry_equiv_pos_site_id
_symmetry_equiv_pos_as_xyz
1 x,y,z
_cell_length_a                   25.9168(4)
_cell_length_b                   25.9168(4)
_cell_length_c                   6.29170(12)
_cell_angle_alpha                90
_cell_angle_beta                 90
_cell_angle_gamma                120
_cell_volume                     3659.83
loop_
_atom_site_label
_atom_site_type_symbol
_atom_site_fract_x
_atom_site_fract_y
_atom_site_fract_z
Cu7 Cu 0.31822(11) 0.37162(8) 0.0079(3)
Cu1 Cu 0.29505(8) 0.27994(7) 0.3412(3)
C1 C 0.1588(6) 0.3152(5) 0.127(2)
C2 C 0.1212(6) 0.3264(6) 0.194(2)
C3 C 0.2078(6) 0.3193(6) 0.262(2)
C4 C 0.0799(6) 0.3247(7) 0.027(2)
O1 O 0.2505(4) 0.3054(4) 0.1784(16)
O3 O 0.0510(3) 0.3550(3) 0.0727(13)
C5 C 0.1745(6) 0.3515(5) 0.540(2)
C6 C 0.2121(6) 0.3403(6) 0.473(2)
C7 C 0.1255(6) 0.3474(6) 0.405(2)
C8 C 0.2534(6) 0.3420(7) 0.640(2)
O4 O 0.0828(4) 0.3613(4) 0.4883(16)
O5 O 0.2669(4) 0.3738(3) 0.7838(16)
O6 O 0.2823(3) 0.3117(3) 0.5940(13)
Cu4 Cu 0.01511(11) 0.29505(8) 0.6588(3)
Cu5 Cu 0.38673(7) 0.34844(11) 0.6745(3)
Cu8 Cu 0.03828(8) 0.38673(7) 0.3255(3)
O7 O 0.3613(4) 0.2784(6) 0.5117(16)
O9 O 0.2929(3) 0.2265(5) 0.1171(16)
O12 O 0.3627(4) 0.3843(3) 0.2606(13)
H2 H 0.17703 0.364997 0.704953
O2 O 0.0664(4) 0.2929(3) 0.8829(16)
O8 O 0.3882(6) 0.4162(4) 0.8451(16)
O11 O 0.3550(3) 0.3040(4) 0.9273(13)
H1 H 0.156303 0.30167 0.961714
Cu6 Cu 0.94661(7) 0.31822(11) 0.9921(3)
Cu6_2 Cu 0.37162(13) 0.05339(7) 0.9921(3)
Cu7_2 Cu 0.05339(14) 0.68178(11) 0.0079(3)
C1_2 C 0.1564(8) 0.8412(6) 0.127(2)
C2_2 C 0.2052(8) 0.8788(6) 0.194(2)
C3_2 C 0.1115(8) 0.7922(6) 0.262(2)
C4_2 C 0.2448(9) 0.9201(6) 0.027(2)
O1_2 O 0.0549(6) 0.7495(4) 0.1784(16)
O3_2 O 0.3040(4) 0.9490(3) 0.0727(13)
C5_2 C 0.1769(8) 0.8255(6) 0.540(2)
C6_2 C 0.1281(8) 0.7879(6) 0.473(2)
C7_2 C 0.2218(8) 0.8745(6) 0.405(2)
C8_2 C 0.0885(9) 0.7466(6) 0.640(2)
O4_2 O 0.2784(6) 0.9172(4) 0.4883(16)
O5_2 O 0.1068(5) 0.7331(4) 0.7838(16)
O6_2 O 0.0293(4) 0.7177(3) 0.5940(13)
Cu4_2 Cu 0.27994(14) 0.98489(11) 0.6588(3)
Cu8_2 Cu 0.34844(11) 0.96172(8) 0.3255(3)
O12_2 O 0.0217(5) 0.6373(4) 0.2606(13)
H2_2 H 0.187967 0.82297 0.704953
O2_2 O 0.2265(5) 0.9336(4) 0.8829(16)
O8_2 O 0.0279(7) 0.6118(6) 0.8451(16)
H1_2 H 0.145366 0.843697 0.961714
Cu1_2 Cu 0.98489(11) 0.70495(8) 0.3412(3)
Cu5_2 Cu 0.96172(13) 0.61327(7) 0.6745(3)
O7_2 O 0.9172(7) 0.6387(4) 0.5117(16)
O9_2 O 0.9336(6) 0.7071(3) 0.1171(16)
O11_2 O 0.9490(5) 0.6450(3) 0.9273(13)
Cu1_3 Cu 0.72006(7) 0.01511(11) 0.3412(3)
Cu5_3 Cu 0.65156(11) 0.03828(13) 0.6745(3)
O7_3 O 0.7216(6) 0.0828(7) 0.5117(16)
O9_3 O 0.7735(5) 0.0664(6) 0.1171(16)
O11_3 O 0.6960(4) 0.0510(5) 0.9273(13)
Cu7_3 Cu 0.62838(8) 0.94661(14) 0.0079(3)
C1_3 C 0.6848(5) 0.8436(8) 0.127(2)
C2_3 C 0.6736(6) 0.7948(8) 0.194(2)
C3_3 C 0.6807(6) 0.8885(8) 0.262(2)
C4_3 C 0.6753(7) 0.7552(9) 0.027(2)
O1_3 O 0.6946(4) 0.9451(6) 0.1784(16)
O3_3 O 0.6450(3) 0.6960(4) 0.0727(13)
C5_3 C 0.6485(5) 0.8231(8) 0.540(2)
C6_3 C 0.6597(6) 0.8719(8) 0.473(2)
C7_3 C 0.6526(6) 0.7782(8) 0.405(2)
C8_3 C 0.6580(7) 0.9115(9) 0.640(2)
O4_3 O 0.6387(4) 0.7216(6) 0.4883(16)
O5_3 O 0.6262(3) 0.8932(5) 0.7838(16)
O6_3 O 0.6883(3) 0.9707(4) 0.5940(13)
Cu4_3 Cu 0.70495(8) 0.72006(14) 0.6588(3)
Cu8_3 Cu 0.61327(7) 0.65156(11) 0.3255(3)
O12_3 O 0.6157(3) 0.9783(5) 0.2606(13)
H2_3 H 0.635003 0.812033 0.704953
O2_3 O 0.7071(3) 0.7735(5) 0.8829(16)
Cu6_3 Cu 0.68178(11) 0.62838(13) 0.9921(3)
O8_3 O 0.5838(4) 0.9721(7) 0.8451(16)
H1_3 H 0.69833 0.854634 0.961714
H2_4 H 0.843697 0.69833 0.0382864
C1_4 C 0.8255(6) 0.6485(5) 0.460(2)
C2_4 C 0.7879(6) 0.6597(6) 0.527(2)
C3_4 C 0.8745(6) 0.6526(6) 0.595(2)
C4_4 C 0.7466(6) 0.6580(7) 0.360(2)
O2_4 O 0.7331(4) 0.6262(3) 0.2162(16)
O3_4 O 0.7177(3) 0.6883(3) 0.4060(13)
C5_4 C 0.8412(6) 0.6848(5) 0.873(2)
C6_4 C 0.8788(6) 0.6736(6) 0.806(2)
C7_4 C 0.7922(6) 0.6807(6) 0.738(2)
C8_4 C 0.9201(6) 0.6753(7) 0.973(2)
O4_4 O 0.7495(4) 0.6946(4) 0.8216(16)
O9_4 O 0.9596(3) 0.5598(5) 0.4504(16)
H1_4 H 0.82297 0.635003 0.295047
H2_5 H 0.854634 0.156303 0.0382864
C1_5 C 0.8231(8) 0.1745(6) 0.460(2)
C2_5 C 0.8719(8) 0.2121(6) 0.527(2)
C3_5 C 0.7782(8) 0.1255(6) 0.595(2)
C4_5 C 0.9115(9) 0.2534(6) 0.360(2)
O2_5 O 0.8932(5) 0.2669(4) 0.2162(16)
O3_5 O 0.9707(4) 0.2823(3) 0.4060(13)
C5_5 C 0.8436(8) 0.1588(6) 0.873(2)
C6_5 C 0.7948(8) 0.1212(6) 0.806(2)
C7_5 C 0.8885(8) 0.2078(6) 0.738(2)
C8_5 C 0.7552(9) 0.0799(6) 0.973(2)
O4_5 O 0.9451(6) 0.2505(4) 0.8216(16)
O9_5 O 0.6003(6) 0.0404(3) 0.4504(16)
H1_5 H 0.812033 0.17703 0.295047
H2_6 H 0.30167 0.145366 0.0382864
C1_6 C 0.3515(5) 0.1769(8) 0.460(2)
C2_6 C 0.3403(6) 0.1281(8) 0.527(2)
C3_6 C 0.3474(6) 0.2218(8) 0.595(2)
C4_6 C 0.3420(7) 0.0885(9) 0.360(2)
O2_6 O 0.3738(3) 0.1068(5) 0.2162(16)
O3_6 O 0.3117(3) 0.0293(4) 0.4060(13)
C5_6 C 0.3152(5) 0.1564(8) 0.873(2)
C6_6 C 0.3264(6) 0.2052(8) 0.806(2)
C7_6 C 0.3193(6) 0.1115(8) 0.738(2)
C8_6 C 0.3247(7) 0.2448(9) 0.973(2)
O4_6 O 0.3054(4) 0.0549(6) 0.8216(16)
O9_6 O 0.4402(5) 0.3997(6) 0.4504(16)
H1_6 H 0.364997 0.187967 0.295047
C5_7 C 0.5079(6) 0.0181(5) 0.206(2)
C6_7 C 0.5455(6) 0.0069(6) 0.139(2)
C7_7 C 0.4589(6) 0.0140(6) 0.071(2)
C8_7 C 0.5868(6) 0.0086(7) 0.306(2)
O4_7 O 0.4162(4) 0.0279(4) 0.1549(16)
H2_7 H 0.510364 0.0316637 0.37162
O3_7 O 0.3843(3) 0.0217(3) 0.7394(13)
C1_7 C 0.4921(6) 0.9819(5) 0.794(2)
C2_7 C 0.4545(6) 0.9931(6) 0.861(2)
C3_7 C 0.5411(6) 0.9860(6) 0.929(2)
C4_7 C 0.4132(6) 0.9914(7) 0.694(2)
O2_7 O 0.3997(4) 0.9596(3) 0.5496(16)
H1_7 H 0.489636 0.968336 0.62838
C5_8 C 0.5103(8) 0.4921(6) 0.206(2)
C6_8 C 0.4615(8) 0.4545(6) 0.139(2)
C7_8 C 0.5552(8) 0.5411(6) 0.071(2)
C8_8 C 0.4219(9) 0.4132(6) 0.306(2)
O4_8 O 0.6118(6) 0.5838(4) 0.1549(16)
H2_8 H 0.5213 0.489636 0.37162
C1_8 C 0.4897(8) 0.5079(6) 0.794(2)
C2_8 C 0.5385(8) 0.5455(6) 0.861(2)
C3_8 C 0.4448(8) 0.4589(6) 0.929(2)
C4_8 C 0.5781(9) 0.5868(6) 0.694(2)
O2_8 O 0.5598(5) 0.6003(4) 0.5496(16)
O3_8 O 0.6373(4) 0.6157(3) 0.7394(13)
H1_8 H 0.4787 0.510364 0.62838
C1_9 C 0.0181(5) 0.5103(8) 0.794(2)
C2_9 C 0.0069(6) 0.4615(8) 0.861(2)
C3_9 C 0.0140(6) 0.5552(8) 0.929(2)
C4_9 C 0.0086(7) 0.4219(9) 0.694(2)
O2_9 O 0.0404(3) 0.4402(5) 0.5496(16)
H1_9 H 0.0316637 0.5213 0.62838
C5_9 C 0.9819(5) 0.4897(8) 0.206(2)
C6_9 C 0.9931(6) 0.5385(8) 0.139(2)
C7_9 C 0.9860(6) 0.4448(8) 0.071(2)
C8_9 C 0.9914(7) 0.5781(9) 0.306(2)
O4_9 O 0.9721(4) 0.3882(6) 0.1549(16)
H2_9 H 0.968336 0.4787 0.37162
O3_9 O 0.9783(3) 0.3627(4) 0.7394(13)
loop_
_geom_bond_atom_site_label_1
_geom_bond_atom_site_label_2
_geom_bond_site_symmetry_1
_geom_bond_site_symmetry_2
Cu1 O1 1_555 1_555
C1 C2 1_555 1_555
C2 C4 1_555 1_555
C3 C1 1_555 1_555
O1 C3 1_555 1_555
O3 C4 1_555 1_555
C5 C6 1_555 1_555
C6 C3 1_555 1_555
C7 C2 1_555 1_555
C8 C6 1_555 1_555
O4 C7 1_555 1_555
O5 C8 1_555 1_555
O6 Cu1 1_555 1_555
Cu7 O1 1_555 1_555
Cu4 O4 1_555 1_555
Cu5 O6 1_555 1_555
Cu8 O3 1_555 1_555
O7 Cu1 1_555 1_555
O9 Cu1 1_555 1_555
O12 Cu1 1_555 1_555
C5 C7 1_555 1_555
C8 O6 1_555 1_555
O4 Cu8 1_555 1_555
Cu7 O12 1_555 1_555
Cu5 O7 1_555 1_555
C5 H2 1_555 1_555
O2 Cu4 1_555 1_555
C1_2 C2_2 1_555 1_555
C2_2 C4_2 1_555 1_555
C3_2 C1_2 1_555 1_555
O1_2 C3_2 1_555 1_555
O3_2 C4_2 1_555 1_555
C5_2 C6_2 1_555 1_555
C6_2 C3_2 1_555 1_555
C7_2 C2_2 1_555 1_555
C8_2 C6_2 1_555 1_555
O4_2 C7_2 1_555 1_555
O5_2 C8_2 1_555 1_555
Cu7_2 O1_2 1_555 1_555
Cu4_2 O4_2 1_555 1_555
Cu8_2 O3_2 1_555 1_555
C5_2 C7_2 1_555 1_555
C8_2 O6_2 1_555 1_555
O4_2 Cu8_2 1_555 1_555
Cu7_2 O12_2 1_555 1_555
C5_2 H2_2 1_555 1_555
O2_2 Cu4_2 1_555 1_555
O7_2 Cu1_2 1_555 1_555
O9_2 Cu1_2 1_555 1_555
Cu5_2 O7_2 1_555 1_555
O7_3 Cu1_3 1_555 1_555
O9_3 Cu1_3 1_555 1_555
Cu5_3 O7_3 1_555 1_555
C1_3 C2_3 1_555 1_555
C2_3 C4_3 1_555 1_555
C3_3 C1_3 1_555 1_555
O1_3 C3_3 1_555 1_555
O3_3 C4_3 1_555 1_555
C5_3 C6_3 1_555 1_555
C6_3 C3_3 1_555 1_555
C7_3 C2_3 1_555 1_555
C8_3 C6_3 1_555 1_555
O4_3 C7_3 1_555 1_555
O5_3 C8_3 1_555 1_555
Cu7_3 O1_3 1_555 1_555
Cu4_3 O4_3 1_555 1_555
Cu8_3 O3_3 1_555 1_555
C5_3 C7_3 1_555 1_555
C8_3 O6_3 1_555 1_555
O4_3 Cu8_3 1_555 1_555
Cu7_3 O12_3 1_555 1_555
C5_3 H2_3 1_555 1_555
O2_3 Cu4_3 1_555 1_555
C1_4 C2_4 1_555 1_555
C2_4 C4_4 1_555 1_555
C3_4 C1_4 1_555 1_555
C4_4 O2_4 1_555 1_555
O7_2 C3_4 1_555 1_555
O3_4 C4_4 1_555 1_555
C5_4 C6_4 1_555 1_555
C6_4 C3_4 1_555 1_555
C7_4 C2_4 1_555 1_555
C8_4 C6_4 1_555 1_555
O4_4 C7_4 1_555 1_555
O11_2 Cu5_2 1_555 1_555
Cu6_3 O4_4 1_555 1_555
Cu8_3 O3_4 1_555 1_555
Cu4_3 O3_4 1_555 1_555
O9_4 Cu5_2 1_555 1_555
C5_4 C7_4 1_555 1_555
C8_4 O11_2 1_555 1_555
O4_4 Cu4_3 1_555 1_555
C1_4 H1_4 1_555 1_555
C1_5 C2_5 1_555 1_555
C2_5 C4_5 1_555 1_555
C3_5 C1_5 1_555 1_555
C4_5 O2_5 1_555 1_555
O7_3 C3_5 1_555 1_555
O3_5 C4_5 1_555 1_555
C5_5 C6_5 1_555 1_555
C6_5 C3_5 1_555 1_555
C7_5 C2_5 1_555 1_555
C8_5 C6_5 1_555 1_555
O4_5 C7_5 1_555 1_555
O11_3 Cu5_3 1_555 1_555
Cu6 O4_5 1_555 1_555
O9_5 Cu5_3 1_555 1_555
C5_5 C7_5 1_555 1_555
C8_5 O11_3 1_555 1_555
C1_5 H1_5 1_555 1_555
C1_6 C2_6 1_555 1_555
C2_6 C4_6 1_555 1_555
C3_6 C1_6 1_555 1_555
C4_6 O2_6 1_555 1_555
O7 C3_6 1_555 1_555
O3_6 C4_6 1_555 1_555
C5_6 C6_6 1_555 1_555
C6_6 C3_6 1_555 1_555
C7_6 C2_6 1_555 1_555
C8_6 C6_6 1_555 1_555
O4_6 C7_6 1_555 1_555
O11 Cu5 1_555 1_555
Cu6_2 O4_6 1_555 1_555
O8 Cu5 1_555 1_555
O9_6 Cu5 1_555 1_555
C5_6 C7_6 1_555 1_555
C8_6 O11 1_555 1_555
C1_6 H1_6 1_555 1_555
C5_7 C6_7 1_555 1_555
C8_7 C6_7 1_555 1_555
O4_7 C7_7 1_555 1_555
O9_5 C8_7 1_555 1_555
C5_7 C7_7 1_555 1_555
C5_7 H2_7 1_555 1_555
Cu6_2 O3_7 1_555 1_555
C1_7 C2_7 1_555 1_555
C2_7 C4_7 1_555 1_555
C3_7 C1_7 1_555 1_555
C4_7 O2_7 1_555 1_555
O8_3 C3_7 1_555 1_555
O2_7 Cu8_2 1_555 1_555
C1_7 H1_7 1_555 1_555
C5_8 C6_8 1_555 1_555
C8_8 C6_8 1_555 1_555
O4_8 C7_8 1_555 1_555
O9_6 C8_8 1_555 1_555
Cu8_3 O4_8 1_555 1_555
C5_8 C7_8 1_555 1_555
C8_8 O12 1_555 1_555
C5_8 H2_8 1_555 1_555
C1_8 C2_8 1_555 1_555
C2_8 C4_8 1_555 1_555
C3_8 C1_8 1_555 1_555
C4_8 O2_8 1_555 1_555
O8 C3_8 1_555 1_555
O2_8 Cu8_3 1_555 1_555
O3_8 C4_8 1_555 1_555
Cu4_3 O3_8 1_555 1_555
Cu6_3 O3_8 1_555 1_555
C1_8 H1_8 1_555 1_555
C1_9 C2_9 1_555 1_555
C2_9 C4_9 1_555 1_555
C3_9 C1_9 1_555 1_555
C4_9 O2_9 1_555 1_555
O8_2 C3_9 1_555 1_555
O2_9 Cu8 1_555 1_555
C1_9 H1_9 1_555 1_555
C5_9 C6_9 1_555 1_555
C8_9 C6_9 1_555 1_555
O4_9 C7_9 1_555 1_555
O9_4 C8_9 1_555 1_555
C5_9 C7_9 1_555 1_555
C5_9 H2_9 1_555 1_555
Cu6 O3_9 1_555 1_555

#END
