
###############################################################################
#
# This file contains modified crystal structure data generated from the
# MOF subset of the Cambridge Structural Database (CSD) v543 
# hosted by the Cambridge Crystallographic Data Centre (CCDC).
#
# This work is licensed under the Creative Commons
# Attribution-NonCommercial-ShareAlike 4.0 International License.
# To view a copy of this license, visit
# http://creativecommons.org/licenses/by-nc-sa/4.0/
# or send a letter to
# Creative Commons, PO Box 1866, Mountain View, CA 94042, USA.
#
# CIF created using the CSD Python API on 29 September 2022
# The structure has been converted into the P1 space group
# The structure has a 3D framework
# The original CSD entry MOMBEY19 is in the rhombohedral crystal system
# The framework has been calculated to contain at least 10.0% void space
# The void calculation uses a probe of radius 1.32A, grid spacing 0.4
# H atom positions have been added when not included in the experimental data
#
###############################################################################

data_MOMBEY19
_chemical_formula_moiety         '(C72 H18 Cu7 O44)n'
_symmetry_cell_setting           triclinic
_symmetry_space_group_name_H-M   'P 1'
_symmetry_Int_Tables_number      1
_space_group_name_Hall           'P 1'
loop_
_symmetry_equiv_pos_site_id
_symmetry_equiv_pos_as_xyz
1 x,y,z
_cell_length_a                   25.9152(5)
_cell_length_b                   25.9152(5)
_cell_length_c                   6.29492(14)
_cell_angle_alpha                90
_cell_angle_beta                 90
_cell_angle_gamma                120
_cell_volume                     3661.25
loop_
_atom_site_label
_atom_site_type_symbol
_atom_site_fract_x
_atom_site_fract_y
_atom_site_fract_z
Cu7 Cu 0.31824(11) 0.37164(8) 0.0079(4)
Cu1 Cu 0.29503(8) 0.27994(8) 0.3412(4)
C1 C 0.1587(7) 0.3153(5) 0.127(2)
C2 C 0.1213(7) 0.3265(7) 0.193(3)
C3 C 0.2078(6) 0.3192(7) 0.261(2)
C4 C 0.0799(7) 0.3247(8) 0.027(2)
O1 O 0.2504(4) 0.3053(4) 0.1778(18)
O3 O 0.0510(4) 0.3550(4) 0.0730(13)
C5 C 0.1746(7) 0.3514(5) 0.540(2)
C6 C 0.2120(7) 0.3402(7) 0.474(3)
C7 C 0.1255(6) 0.3475(7) 0.406(2)
C8 C 0.2534(7) 0.3420(8) 0.640(2)
O4 O 0.0829(4) 0.3614(4) 0.4889(18)
O5 O 0.2669(4) 0.3737(4) 0.7825(17)
O6 O 0.2823(4) 0.3117(4) 0.5937(13)
Cu4 Cu 0.01509(11) 0.29503(8) 0.6588(4)
Cu5 Cu 0.38673(8) 0.34842(11) 0.6745(4)
Cu8 Cu 0.03830(8) 0.38673(8) 0.3255(4)
O7 O 0.3614(4) 0.2784(6) 0.5111(18)
O9 O 0.2930(4) 0.2266(6) 0.1158(17)
O12 O 0.3627(6) 0.3843(4) 0.2603(13)
H2 H 0.177201 0.36491 0.704884
O2 O 0.0664(4) 0.2930(4) 0.8842(17)
O8 O 0.3882(6) 0.4163(4) 0.8445(18)
O11 O 0.3550(4) 0.3040(6) 0.9270(13)
H1 H 0.156133 0.301757 0.961783
Cu6 Cu 0.94661(8) 0.31824(11) 0.9921(4)
Cu6_2 Cu 0.37164(14) 0.05339(8) 0.9921(4)
Cu7_2 Cu 0.05339(14) 0.68176(11) 0.0079(4)
C1_2 C 0.1566(9) 0.8413(7) 0.127(2)
C2_2 C 0.2052(10) 0.8787(7) 0.193(3)
C3_2 C 0.1114(9) 0.7922(6) 0.261(2)
C4_2 C 0.2448(11) 0.9201(7) 0.027(2)
O1_2 O 0.0549(6) 0.7496(4) 0.1778(18)
O3_2 O 0.3040(6) 0.9490(4) 0.0730(13)
C5_2 C 0.1767(9) 0.8254(7) 0.540(2)
C6_2 C 0.1281(10) 0.7880(7) 0.474(3)
C7_2 C 0.2219(9) 0.8745(6) 0.406(2)
C8_2 C 0.0885(11) 0.7466(7) 0.640(2)
O4_2 O 0.2784(6) 0.9171(4) 0.4889(18)
O5_2 O 0.1067(6) 0.7331(4) 0.7825(17)
O6_2 O 0.0293(6) 0.7177(4) 0.5937(13)
Cu4_2 Cu 0.27994(14) 0.98491(11) 0.6588(4)
Cu8_2 Cu 0.34842(11) 0.96170(8) 0.3255(4)
O12_2 O 0.0217(7) 0.6373(6) 0.2603(13)
H2_2 H 0.187709 0.822799 0.704884
O2_2 O 0.2266(6) 0.9336(4) 0.8842(17)
O8_2 O 0.0280(7) 0.6118(6) 0.8445(18)
H1_2 H 0.145624 0.843867 0.961783
Cu1_2 Cu 0.98491(11) 0.70497(8) 0.3412(4)
Cu5_2 Cu 0.96170(14) 0.61327(8) 0.6745(4)
O7_2 O 0.9171(7) 0.6386(4) 0.5111(18)
O9_2 O 0.9336(7) 0.7070(4) 0.1158(17)
O11_2 O 0.9490(7) 0.6450(4) 0.9270(13)
Cu1_3 Cu 0.72006(8) 0.01509(11) 0.3412(4)
Cu5_3 Cu 0.65158(11) 0.03830(14) 0.6745(4)
O7_3 O 0.7216(6) 0.0829(7) 0.5111(18)
O9_3 O 0.7734(6) 0.0664(7) 0.1158(17)
O11_3 O 0.6960(6) 0.0510(7) 0.9270(13)
Cu7_3 Cu 0.62836(8) 0.94661(14) 0.0079(4)
C1_3 C 0.6847(5) 0.8434(9) 0.127(2)
C2_3 C 0.6735(7) 0.7948(10) 0.193(3)
C3_3 C 0.6808(7) 0.8886(9) 0.261(2)
C4_3 C 0.6753(8) 0.7552(11) 0.027(2)
O1_3 O 0.6947(4) 0.9451(6) 0.1778(18)
O3_3 O 0.6450(4) 0.6960(6) 0.0730(13)
C5_3 C 0.6486(5) 0.8233(9) 0.540(2)
C6_3 C 0.6598(7) 0.8719(10) 0.474(3)
C7_3 C 0.6525(7) 0.7781(9) 0.406(2)
C8_3 C 0.6580(8) 0.9115(11) 0.640(2)
O4_3 O 0.6386(4) 0.7216(6) 0.4889(18)
O5_3 O 0.6263(4) 0.8933(6) 0.7825(17)
O6_3 O 0.6883(4) 0.9707(6) 0.5937(13)
Cu4_3 Cu 0.70497(8) 0.72006(14) 0.6588(4)
Cu8_3 Cu 0.61327(8) 0.65158(11) 0.3255(4)
O12_3 O 0.6157(4) 0.9783(7) 0.2603(13)
H2_3 H 0.63509 0.812291 0.704884
O2_3 O 0.7070(4) 0.7734(6) 0.8842(17)
Cu6_3 Cu 0.68176(11) 0.62836(14) 0.9921(4)
O8_3 O 0.5837(4) 0.9720(7) 0.8445(18)
H1_3 H 0.698243 0.854376 0.961783
H2_4 H 0.843867 0.698243 0.0382172
C1_4 C 0.8254(7) 0.6486(5) 0.460(2)
C2_4 C 0.7880(7) 0.6598(7) 0.526(3)
C3_4 C 0.8745(6) 0.6525(7) 0.594(2)
C4_4 C 0.7466(7) 0.6580(8) 0.360(2)
O2_4 O 0.7331(4) 0.6263(4) 0.2175(17)
O3_4 O 0.7177(4) 0.6883(4) 0.4063(13)
C5_4 C 0.8413(7) 0.6847(5) 0.873(2)
C6_4 C 0.8787(7) 0.6735(7) 0.807(3)
C7_4 C 0.7922(6) 0.6808(7) 0.739(2)
C8_4 C 0.9201(7) 0.6753(8) 0.973(2)
O4_4 O 0.7496(4) 0.6947(4) 0.8222(18)
O9_4 O 0.9597(4) 0.5599(6) 0.4491(17)
H1_4 H 0.822799 0.63509 0.295116
H2_5 H 0.854376 0.156133 0.0382172
C1_5 C 0.8233(9) 0.1746(7) 0.460(2)
C2_5 C 0.8719(10) 0.2120(7) 0.526(3)
C3_5 C 0.7781(9) 0.1255(6) 0.594(2)
C4_5 C 0.9115(11) 0.2534(7) 0.360(2)
O2_5 O 0.8933(6) 0.2669(4) 0.2175(17)
O3_5 O 0.9707(6) 0.2823(4) 0.4063(13)
C5_5 C 0.8434(9) 0.1587(7) 0.873(2)
C6_5 C 0.7948(10) 0.1213(7) 0.807(3)
C7_5 C 0.8886(9) 0.2078(6) 0.739(2)
C8_5 C 0.7552(11) 0.0799(7) 0.973(2)
O4_5 O 0.9451(6) 0.2504(4) 0.8222(18)
O9_5 O 0.6003(7) 0.0403(4) 0.4491(17)
H1_5 H 0.812291 0.177201 0.295116
H2_6 H 0.301757 0.145624 0.0382172
C1_6 C 0.3514(5) 0.1767(9) 0.460(2)
C2_6 C 0.3402(7) 0.1281(10) 0.526(3)
C3_6 C 0.3475(7) 0.2219(9) 0.594(2)
C4_6 C 0.3420(8) 0.0885(11) 0.360(2)
O2_6 O 0.3737(4) 0.1067(6) 0.2175(17)
O3_6 O 0.3117(4) 0.0293(6) 0.4063(13)
C5_6 C 0.3153(5) 0.1566(9) 0.873(2)
C6_6 C 0.3265(7) 0.2052(10) 0.807(3)
C7_6 C 0.3192(7) 0.1114(9) 0.739(2)
C8_6 C 0.3247(8) 0.2448(11) 0.973(2)
O4_6 O 0.3053(4) 0.0549(6) 0.8222(18)
O9_6 O 0.4401(6) 0.3997(7) 0.4491(17)
H1_6 H 0.36491 0.187709 0.295116
C5_7 C 0.5080(7) 0.0180(5) 0.206(2)
C6_7 C 0.5454(7) 0.0068(7) 0.140(3)
C7_7 C 0.4589(6) 0.0141(7) 0.072(2)
C8_7 C 0.5868(7) 0.0086(8) 0.306(2)
O4_7 O 0.4163(4) 0.0280(4) 0.1555(18)
H2_7 H 0.510534 0.0315767 0.371551
O3_7 O 0.3843(4) 0.0217(4) 0.7397(13)
C1_7 C 0.4920(7) 0.9820(5) 0.794(2)
C2_7 C 0.4546(7) 0.9932(7) 0.860(3)
C3_7 C 0.5411(6) 0.9859(7) 0.928(2)
C4_7 C 0.4132(7) 0.9914(8) 0.694(2)
O2_7 O 0.3997(4) 0.9597(4) 0.5509(17)
H1_7 H 0.489466 0.968423 0.628449
C5_8 C 0.5101(9) 0.4920(7) 0.206(2)
C6_8 C 0.4615(10) 0.4546(7) 0.140(3)
C7_8 C 0.5553(9) 0.5411(6) 0.072(2)
C8_8 C 0.4219(11) 0.4132(7) 0.306(2)
O4_8 O 0.6118(6) 0.5837(4) 0.1555(18)
H2_8 H 0.521043 0.489466 0.371551
C1_8 C 0.4899(9) 0.5080(7) 0.794(2)
C2_8 C 0.5385(10) 0.5454(7) 0.860(3)
C3_8 C 0.4447(9) 0.4589(6) 0.928(2)
C4_8 C 0.5781(11) 0.5868(7) 0.694(2)
O2_8 O 0.5599(6) 0.6003(4) 0.5509(17)
O3_8 O 0.6373(6) 0.6157(4) 0.7397(13)
H1_8 H 0.478957 0.510534 0.628449
C1_9 C 0.0180(5) 0.5101(9) 0.794(2)
C2_9 C 0.0068(7) 0.4615(10) 0.860(3)
C3_9 C 0.0141(7) 0.5553(9) 0.928(2)
C4_9 C 0.0086(8) 0.4219(11) 0.694(2)
O2_9 O 0.0403(4) 0.4401(6) 0.5509(17)
H1_9 H 0.0315767 0.521043 0.628449
C5_9 C 0.9820(5) 0.4899(9) 0.206(2)
C6_9 C 0.9932(7) 0.5385(10) 0.140(3)
C7_9 C 0.9859(7) 0.4447(9) 0.072(2)
C8_9 C 0.9914(8) 0.5781(11) 0.306(2)
O4_9 O 0.9720(4) 0.3882(6) 0.1555(18)
H2_9 H 0.968423 0.478957 0.371551
O3_9 O 0.9783(4) 0.3627(6) 0.7397(13)
loop_
_geom_bond_atom_site_label_1
_geom_bond_atom_site_label_2
_geom_bond_site_symmetry_1
_geom_bond_site_symmetry_2
Cu1 O1 1_555 1_555
C1 C2 1_555 1_555
C2 C4 1_555 1_555
C3 C1 1_555 1_555
O1 C3 1_555 1_555
O3 C4 1_555 1_555
C5 C6 1_555 1_555
C6 C3 1_555 1_555
C7 C2 1_555 1_555
C8 C6 1_555 1_555
O4 C7 1_555 1_555
O5 C8 1_555 1_555
O6 Cu1 1_555 1_555
Cu7 O1 1_555 1_555
Cu4 O4 1_555 1_555
Cu5 O6 1_555 1_555
Cu8 O3 1_555 1_555
O7 Cu1 1_555 1_555
O9 Cu1 1_555 1_555
O12 Cu1 1_555 1_555
C5 C7 1_555 1_555
C8 O6 1_555 1_555
O4 Cu8 1_555 1_555
Cu7 O12 1_555 1_555
Cu5 O7 1_555 1_555
C5 H2 1_555 1_555
O2 Cu4 1_555 1_555
C1_2 C2_2 1_555 1_555
C2_2 C4_2 1_555 1_555
C3_2 C1_2 1_555 1_555
O1_2 C3_2 1_555 1_555
O3_2 C4_2 1_555 1_555
C5_2 C6_2 1_555 1_555
C6_2 C3_2 1_555 1_555
C7_2 C2_2 1_555 1_555
C8_2 C6_2 1_555 1_555
O4_2 C7_2 1_555 1_555
O5_2 C8_2 1_555 1_555
Cu7_2 O1_2 1_555 1_555
Cu4_2 O4_2 1_555 1_555
Cu8_2 O3_2 1_555 1_555
C5_2 C7_2 1_555 1_555
C8_2 O6_2 1_555 1_555
O4_2 Cu8_2 1_555 1_555
Cu7_2 O12_2 1_555 1_555
C5_2 H2_2 1_555 1_555
O2_2 Cu4_2 1_555 1_555
O7_2 Cu1_2 1_555 1_555
O9_2 Cu1_2 1_555 1_555
Cu5_2 O7_2 1_555 1_555
O7_3 Cu1_3 1_555 1_555
O9_3 Cu1_3 1_555 1_555
Cu5_3 O7_3 1_555 1_555
C1_3 C2_3 1_555 1_555
C2_3 C4_3 1_555 1_555
C3_3 C1_3 1_555 1_555
O1_3 C3_3 1_555 1_555
O3_3 C4_3 1_555 1_555
C5_3 C6_3 1_555 1_555
C6_3 C3_3 1_555 1_555
C7_3 C2_3 1_555 1_555
C8_3 C6_3 1_555 1_555
O4_3 C7_3 1_555 1_555
O5_3 C8_3 1_555 1_555
Cu7_3 O1_3 1_555 1_555
Cu4_3 O4_3 1_555 1_555
Cu8_3 O3_3 1_555 1_555
C5_3 C7_3 1_555 1_555
C8_3 O6_3 1_555 1_555
O4_3 Cu8_3 1_555 1_555
Cu7_3 O12_3 1_555 1_555
C5_3 H2_3 1_555 1_555
O2_3 Cu4_3 1_555 1_555
C1_4 C2_4 1_555 1_555
C2_4 C4_4 1_555 1_555
C3_4 C1_4 1_555 1_555
C4_4 O2_4 1_555 1_555
O7_2 C3_4 1_555 1_555
O3_4 C4_4 1_555 1_555
C5_4 C6_4 1_555 1_555
C6_4 C3_4 1_555 1_555
C7_4 C2_4 1_555 1_555
C8_4 C6_4 1_555 1_555
O4_4 C7_4 1_555 1_555
O11_2 Cu5_2 1_555 1_555
Cu6_3 O4_4 1_555 1_555
Cu8_3 O3_4 1_555 1_555
Cu4_3 O3_4 1_555 1_555
O9_4 Cu5_2 1_555 1_555
C5_4 C7_4 1_555 1_555
C8_4 O11_2 1_555 1_555
O4_4 Cu4_3 1_555 1_555
C1_4 H1_4 1_555 1_555
C1_5 C2_5 1_555 1_555
C2_5 C4_5 1_555 1_555
C3_5 C1_5 1_555 1_555
C4_5 O2_5 1_555 1_555
O7_3 C3_5 1_555 1_555
O3_5 C4_5 1_555 1_555
C5_5 C6_5 1_555 1_555
C6_5 C3_5 1_555 1_555
C7_5 C2_5 1_555 1_555
C8_5 C6_5 1_555 1_555
O4_5 C7_5 1_555 1_555
O11_3 Cu5_3 1_555 1_555
Cu6 O4_5 1_555 1_555
O9_5 Cu5_3 1_555 1_555
C5_5 C7_5 1_555 1_555
C8_5 O11_3 1_555 1_555
C1_5 H1_5 1_555 1_555
C1_6 C2_6 1_555 1_555
C2_6 C4_6 1_555 1_555
C3_6 C1_6 1_555 1_555
C4_6 O2_6 1_555 1_555
O7 C3_6 1_555 1_555
O3_6 C4_6 1_555 1_555
C5_6 C6_6 1_555 1_555
C6_6 C3_6 1_555 1_555
C7_6 C2_6 1_555 1_555
C8_6 C6_6 1_555 1_555
O4_6 C7_6 1_555 1_555
O11 Cu5 1_555 1_555
Cu6_2 O4_6 1_555 1_555
O8 Cu5 1_555 1_555
O9_6 Cu5 1_555 1_555
C5_6 C7_6 1_555 1_555
C8_6 O11 1_555 1_555
C1_6 H1_6 1_555 1_555
C5_7 C6_7 1_555 1_555
C8_7 C6_7 1_555 1_555
O4_7 C7_7 1_555 1_555
O9_5 C8_7 1_555 1_555
C5_7 C7_7 1_555 1_555
C5_7 H2_7 1_555 1_555
Cu6_2 O3_7 1_555 1_555
C1_7 C2_7 1_555 1_555
C2_7 C4_7 1_555 1_555
C3_7 C1_7 1_555 1_555
C4_7 O2_7 1_555 1_555
O8_3 C3_7 1_555 1_555
O2_7 Cu8_2 1_555 1_555
C1_7 H1_7 1_555 1_555
C5_8 C6_8 1_555 1_555
C8_8 C6_8 1_555 1_555
O4_8 C7_8 1_555 1_555
O9_6 C8_8 1_555 1_555
Cu8_3 O4_8 1_555 1_555
C5_8 C7_8 1_555 1_555
C8_8 O12 1_555 1_555
C5_8 H2_8 1_555 1_555
C1_8 C2_8 1_555 1_555
C2_8 C4_8 1_555 1_555
C3_8 C1_8 1_555 1_555
C4_8 O2_8 1_555 1_555
O8 C3_8 1_555 1_555
O2_8 Cu8_3 1_555 1_555
O3_8 C4_8 1_555 1_555
Cu4_3 O3_8 1_555 1_555
Cu6_3 O3_8 1_555 1_555
C1_8 H1_8 1_555 1_555
C1_9 C2_9 1_555 1_555
C2_9 C4_9 1_555 1_555
C3_9 C1_9 1_555 1_555
C4_9 O2_9 1_555 1_555
O8_2 C3_9 1_555 1_555
O2_9 Cu8 1_555 1_555
C1_9 H1_9 1_555 1_555
C5_9 C6_9 1_555 1_555
C8_9 C6_9 1_555 1_555
O4_9 C7_9 1_555 1_555
O9_4 C8_9 1_555 1_555
C5_9 C7_9 1_555 1_555
C5_9 H2_9 1_555 1_555
Cu6 O3_9 1_555 1_555

#END
