
###############################################################################
#
# This file contains modified crystal structure data generated from the
# MOF subset of the Cambridge Structural Database (CSD) v543 
# hosted by the Cambridge Crystallographic Data Centre (CCDC).
#
# This work is licensed under the Creative Commons
# Attribution-NonCommercial-ShareAlike 4.0 International License.
# To view a copy of this license, visit
# http://creativecommons.org/licenses/by-nc-sa/4.0/
# or send a letter to
# Creative Commons, PO Box 1866, Mountain View, CA 94042, USA.
#
# CIF created using the CSD Python API on 29 September 2022
# The structure has been converted into the P1 space group
# The structure has a 3D framework
# The original CSD entry MOMBEY27 is in the rhombohedral crystal system
# The framework has been calculated to contain at least 10.0% void space
# The void calculation uses a probe of radius 1.32A, grid spacing 0.4
# H atom positions have been added when not included in the experimental data
#
###############################################################################

data_MOMBEY27
_chemical_formula_moiety         '(C72 H18 Cu7 O44)n'
_symmetry_cell_setting           triclinic
_symmetry_space_group_name_H-M   'P 1'
_symmetry_Int_Tables_number      1
_space_group_name_Hall           'P 1'
loop_
_symmetry_equiv_pos_site_id
_symmetry_equiv_pos_as_xyz
1 x,y,z
_cell_length_a                   25.9173(5)
_cell_length_b                   25.9173(5)
_cell_length_c                   6.29106(12)
_cell_angle_alpha                90
_cell_angle_beta                 90
_cell_angle_gamma                120
_cell_volume                     3659.6
loop_
_atom_site_label
_atom_site_type_symbol
_atom_site_fract_x
_atom_site_fract_y
_atom_site_fract_z
Cu7 Cu 0.31820(11) 0.37162(8) 0.0079(3)
Cu1 Cu 0.29505(8) 0.27992(8) 0.3412(3)
C1 C 0.1590(7) 0.3153(5) 0.127(2)
C2 C 0.1212(6) 0.3264(6) 0.194(2)
C3 C 0.2079(6) 0.3192(6) 0.262(2)
C4 C 0.0799(6) 0.3247(7) 0.026(2)
O1 O 0.2507(4) 0.3055(4) 0.1787(16)
O3 O 0.0510(3) 0.3549(3) 0.0726(13)
C5 C 0.1743(7) 0.3514(5) 0.540(2)
C6 C 0.2121(6) 0.3403(6) 0.473(2)
C7 C 0.1254(6) 0.3475(6) 0.405(2)
C8 C 0.2534(6) 0.3420(7) 0.641(2)
O4 O 0.0826(4) 0.3612(4) 0.4880(16)
O5 O 0.2670(4) 0.3740(4) 0.7852(16)
O6 O 0.2823(3) 0.3118(3) 0.5941(13)
Cu4 Cu 0.01513(11) 0.29505(8) 0.6588(3)
Cu5 Cu 0.38675(8) 0.34846(11) 0.6745(3)
Cu8 Cu 0.03828(8) 0.38675(8) 0.3255(3)
O7 O 0.3612(4) 0.2785(6) 0.5120(16)
O9 O 0.2927(4) 0.2264(6) 0.1185(16)
O12 O 0.3628(4) 0.3843(3) 0.2607(13)
H2 H 0.17667 0.364657 0.7052
O2 O 0.0663(4) 0.2927(4) 0.8815(16)
O8 O 0.3881(6) 0.4160(4) 0.8454(16)
O11 O 0.3549(3) 0.3039(4) 0.9274(13)
H1 H 0.156663 0.30201 0.961467
Cu6 Cu 0.94659(8) 0.31820(11) 0.9921(3)
Cu6_2 Cu 0.37162(14) 0.05341(8) 0.9921(3)
Cu7_2 Cu 0.05341(14) 0.68180(11) 0.0079(3)
C1_2 C 0.1563(9) 0.8410(7) 0.127(2)
C2_2 C 0.2052(8) 0.8788(6) 0.194(2)
C3_2 C 0.1113(8) 0.7921(6) 0.262(2)
C4_2 C 0.2448(9) 0.9201(6) 0.026(2)
O1_2 O 0.0548(6) 0.7493(4) 0.1787(16)
O3_2 O 0.3039(4) 0.9490(3) 0.0726(13)
C5_2 C 0.1770(9) 0.8257(7) 0.540(2)
C6_2 C 0.1281(8) 0.7879(6) 0.473(2)
C7_2 C 0.2220(8) 0.8746(6) 0.405(2)
C8_2 C 0.0885(9) 0.7466(6) 0.641(2)
O4_2 O 0.2785(6) 0.9174(4) 0.4880(16)
O5_2 O 0.1069(6) 0.7330(4) 0.7852(16)
O6_2 O 0.0294(4) 0.7177(3) 0.5941(13)
Cu4_2 Cu 0.27992(14) 0.98487(11) 0.6588(3)
Cu8_2 Cu 0.34846(11) 0.96172(8) 0.3255(3)
O12_2 O 0.0216(5) 0.6372(4) 0.2607(13)
H2_2 H 0.187987 0.82333 0.7052
O2_2 O 0.2264(6) 0.9337(4) 0.8815(16)
O8_2 O 0.0278(7) 0.6119(6) 0.8454(16)
H1_2 H 0.145347 0.843337 0.961467
Cu1_2 Cu 0.98487(11) 0.70495(8) 0.3412(3)
Cu5_2 Cu 0.96172(14) 0.61325(8) 0.6745(3)
O7_2 O 0.9174(7) 0.6388(4) 0.5120(16)
O9_2 O 0.9337(7) 0.7073(4) 0.1185(16)
O11_2 O 0.9490(5) 0.6451(3) 0.9274(13)
Cu1_3 Cu 0.72008(8) 0.01513(11) 0.3412(3)
Cu5_3 Cu 0.65154(11) 0.03828(14) 0.6745(3)
O7_3 O 0.7215(6) 0.0826(7) 0.5120(16)
O9_3 O 0.7736(6) 0.0663(7) 0.1185(16)
O11_3 O 0.6961(4) 0.0510(5) 0.9274(13)
Cu7_3 Cu 0.62838(8) 0.94659(14) 0.0079(3)
C1_3 C 0.6847(5) 0.8437(9) 0.127(2)
C2_3 C 0.6736(6) 0.7948(8) 0.194(2)
C3_3 C 0.6808(6) 0.8887(8) 0.262(2)
C4_3 C 0.6753(7) 0.7552(9) 0.026(2)
O1_3 O 0.6945(4) 0.9452(6) 0.1787(16)
O3_3 O 0.6451(3) 0.6961(4) 0.0726(13)
C5_3 C 0.6486(5) 0.8230(9) 0.540(2)
C6_3 C 0.6597(6) 0.8719(8) 0.473(2)
C7_3 C 0.6525(6) 0.7780(8) 0.405(2)
C8_3 C 0.6580(7) 0.9115(9) 0.641(2)
O4_3 O 0.6388(4) 0.7215(6) 0.4880(16)
O5_3 O 0.6260(4) 0.8931(6) 0.7852(16)
O6_3 O 0.6882(3) 0.9706(4) 0.5941(13)
Cu4_3 Cu 0.70495(8) 0.72008(14) 0.6588(3)
Cu8_3 Cu 0.61325(8) 0.65154(11) 0.3255(3)
O12_3 O 0.6157(3) 0.9784(5) 0.2607(13)
H2_3 H 0.635343 0.812013 0.7052
O2_3 O 0.7073(4) 0.7736(6) 0.8815(16)
Cu6_3 Cu 0.68180(11) 0.62838(14) 0.9921(3)
O8_3 O 0.5840(4) 0.9722(7) 0.8454(16)
H1_3 H 0.69799 0.854653 0.961467
H2_4 H 0.843337 0.69799 0.0385333
C1_4 C 0.8257(7) 0.6486(5) 0.460(2)
C2_4 C 0.7879(6) 0.6597(6) 0.527(2)
C3_4 C 0.8746(6) 0.6525(6) 0.595(2)
C4_4 C 0.7466(6) 0.6580(7) 0.359(2)
O2_4 O 0.7330(4) 0.6260(4) 0.2148(16)
O3_4 O 0.7177(3) 0.6882(3) 0.4059(13)
C5_4 C 0.8410(7) 0.6847(5) 0.873(2)
C6_4 C 0.8788(6) 0.6736(6) 0.806(2)
C7_4 C 0.7921(6) 0.6808(6) 0.738(2)
C8_4 C 0.9201(6) 0.6753(7) 0.974(2)
O4_4 O 0.7493(4) 0.6945(4) 0.8213(16)
O9_4 O 0.9594(4) 0.5597(6) 0.4518(16)
H1_4 H 0.82333 0.635343 0.2948
H2_5 H 0.854653 0.156663 0.0385333
C1_5 C 0.8230(9) 0.1743(7) 0.460(2)
C2_5 C 0.8719(8) 0.2121(6) 0.527(2)
C3_5 C 0.7780(8) 0.1254(6) 0.595(2)
C4_5 C 0.9115(9) 0.2534(6) 0.359(2)
O2_5 O 0.8931(6) 0.2670(4) 0.2148(16)
O3_5 O 0.9706(4) 0.2823(3) 0.4059(13)
C5_5 C 0.8437(9) 0.1590(7) 0.873(2)
C6_5 C 0.7948(8) 0.1212(6) 0.806(2)
C7_5 C 0.8887(8) 0.2079(6) 0.738(2)
C8_5 C 0.7552(9) 0.0799(6) 0.974(2)
O4_5 O 0.9452(6) 0.2507(4) 0.8213(16)
O9_5 O 0.6004(7) 0.0406(4) 0.4518(16)
H1_5 H 0.812013 0.17667 0.2948
H2_6 H 0.30201 0.145347 0.0385333
C1_6 C 0.3514(5) 0.1770(9) 0.460(2)
C2_6 C 0.3403(6) 0.1281(8) 0.527(2)
C3_6 C 0.3475(6) 0.2220(8) 0.595(2)
C4_6 C 0.3420(7) 0.0885(9) 0.359(2)
O2_6 O 0.3740(4) 0.1069(6) 0.2148(16)
O3_6 O 0.3118(3) 0.0294(4) 0.4059(13)
C5_6 C 0.3153(5) 0.1563(9) 0.873(2)
C6_6 C 0.3264(6) 0.2052(8) 0.806(2)
C7_6 C 0.3192(6) 0.1113(8) 0.738(2)
C8_6 C 0.3247(7) 0.2448(9) 0.974(2)
O4_6 O 0.3055(4) 0.0548(6) 0.8213(16)
O9_6 O 0.4403(6) 0.3996(7) 0.4518(16)
H1_6 H 0.364657 0.187987 0.2948
C5_7 C 0.5077(7) 0.0180(5) 0.206(2)
C6_7 C 0.5455(6) 0.0069(6) 0.139(2)
C7_7 C 0.4588(6) 0.0141(6) 0.071(2)
C8_7 C 0.5868(6) 0.0086(7) 0.307(2)
O4_7 O 0.4160(4) 0.0278(4) 0.1546(16)
H2_7 H 0.510003 0.0313234 0.371867
O3_7 O 0.3843(3) 0.0216(3) 0.7393(13)
C1_7 C 0.4923(7) 0.9820(5) 0.794(2)
C2_7 C 0.4545(6) 0.9931(6) 0.861(2)
C3_7 C 0.5412(6) 0.9859(6) 0.929(2)
C4_7 C 0.4132(6) 0.9914(7) 0.693(2)
O2_7 O 0.3996(4) 0.9594(4) 0.5482(16)
H1_7 H 0.489997 0.968677 0.628133
C5_8 C 0.5104(9) 0.4923(7) 0.206(2)
C6_8 C 0.4615(8) 0.4545(6) 0.139(2)
C7_8 C 0.5554(8) 0.5412(6) 0.071(2)
C8_8 C 0.4219(9) 0.4132(6) 0.307(2)
O4_8 O 0.6119(6) 0.5840(4) 0.1546(16)
H2_8 H 0.52132 0.489997 0.371867
C1_8 C 0.4896(9) 0.5077(7) 0.794(2)
C2_8 C 0.5385(8) 0.5455(6) 0.861(2)
C3_8 C 0.4446(8) 0.4588(6) 0.929(2)
C4_8 C 0.5781(9) 0.5868(6) 0.693(2)
O2_8 O 0.5597(6) 0.6004(4) 0.5482(16)
O3_8 O 0.6372(4) 0.6157(3) 0.7393(13)
H1_8 H 0.47868 0.510003 0.628133
C1_9 C 0.0180(5) 0.5104(9) 0.794(2)
C2_9 C 0.0069(6) 0.4615(8) 0.861(2)
C3_9 C 0.0141(6) 0.5554(8) 0.929(2)
C4_9 C 0.0086(7) 0.4219(9) 0.693(2)
O2_9 O 0.0406(4) 0.4403(6) 0.5482(16)
H1_9 H 0.0313234 0.52132 0.628133
C5_9 C 0.9820(5) 0.4896(9) 0.206(2)
C6_9 C 0.9931(6) 0.5385(8) 0.139(2)
C7_9 C 0.9859(6) 0.4446(8) 0.071(2)
C8_9 C 0.9914(7) 0.5781(9) 0.307(2)
O4_9 O 0.9722(4) 0.3881(6) 0.1546(16)
H2_9 H 0.968677 0.47868 0.371867
O3_9 O 0.9784(3) 0.3628(4) 0.7393(13)
loop_
_geom_bond_atom_site_label_1
_geom_bond_atom_site_label_2
_geom_bond_site_symmetry_1
_geom_bond_site_symmetry_2
Cu1 O1 1_555 1_555
C1 C2 1_555 1_555
C2 C4 1_555 1_555
C3 C1 1_555 1_555
O1 C3 1_555 1_555
O3 C4 1_555 1_555
C5 C6 1_555 1_555
C6 C3 1_555 1_555
C7 C2 1_555 1_555
C8 C6 1_555 1_555
O4 C7 1_555 1_555
O5 C8 1_555 1_555
O6 Cu1 1_555 1_555
Cu7 O1 1_555 1_555
Cu4 O4 1_555 1_555
Cu5 O6 1_555 1_555
Cu8 O3 1_555 1_555
O7 Cu1 1_555 1_555
O9 Cu1 1_555 1_555
O12 Cu1 1_555 1_555
C5 C7 1_555 1_555
C8 O6 1_555 1_555
O4 Cu8 1_555 1_555
Cu7 O12 1_555 1_555
Cu5 O7 1_555 1_555
C5 H2 1_555 1_555
O2 Cu4 1_555 1_555
C1_2 C2_2 1_555 1_555
C2_2 C4_2 1_555 1_555
C3_2 C1_2 1_555 1_555
O1_2 C3_2 1_555 1_555
O3_2 C4_2 1_555 1_555
C5_2 C6_2 1_555 1_555
C6_2 C3_2 1_555 1_555
C7_2 C2_2 1_555 1_555
C8_2 C6_2 1_555 1_555
O4_2 C7_2 1_555 1_555
O5_2 C8_2 1_555 1_555
Cu7_2 O1_2 1_555 1_555
Cu4_2 O4_2 1_555 1_555
Cu8_2 O3_2 1_555 1_555
C5_2 C7_2 1_555 1_555
C8_2 O6_2 1_555 1_555
O4_2 Cu8_2 1_555 1_555
Cu7_2 O12_2 1_555 1_555
C5_2 H2_2 1_555 1_555
O2_2 Cu4_2 1_555 1_555
O7_2 Cu1_2 1_555 1_555
O9_2 Cu1_2 1_555 1_555
Cu5_2 O7_2 1_555 1_555
O7_3 Cu1_3 1_555 1_555
O9_3 Cu1_3 1_555 1_555
Cu5_3 O7_3 1_555 1_555
C1_3 C2_3 1_555 1_555
C2_3 C4_3 1_555 1_555
C3_3 C1_3 1_555 1_555
O1_3 C3_3 1_555 1_555
O3_3 C4_3 1_555 1_555
C5_3 C6_3 1_555 1_555
C6_3 C3_3 1_555 1_555
C7_3 C2_3 1_555 1_555
C8_3 C6_3 1_555 1_555
O4_3 C7_3 1_555 1_555
O5_3 C8_3 1_555 1_555
Cu7_3 O1_3 1_555 1_555
Cu4_3 O4_3 1_555 1_555
Cu8_3 O3_3 1_555 1_555
C5_3 C7_3 1_555 1_555
C8_3 O6_3 1_555 1_555
O4_3 Cu8_3 1_555 1_555
Cu7_3 O12_3 1_555 1_555
C5_3 H2_3 1_555 1_555
O2_3 Cu4_3 1_555 1_555
C1_4 C2_4 1_555 1_555
C2_4 C4_4 1_555 1_555
C3_4 C1_4 1_555 1_555
C4_4 O2_4 1_555 1_555
O7_2 C3_4 1_555 1_555
O3_4 C4_4 1_555 1_555
C5_4 C6_4 1_555 1_555
C6_4 C3_4 1_555 1_555
C7_4 C2_4 1_555 1_555
C8_4 C6_4 1_555 1_555
O4_4 C7_4 1_555 1_555
O11_2 Cu5_2 1_555 1_555
Cu6_3 O4_4 1_555 1_555
Cu8_3 O3_4 1_555 1_555
Cu4_3 O3_4 1_555 1_555
O9_4 Cu5_2 1_555 1_555
C5_4 C7_4 1_555 1_555
C8_4 O11_2 1_555 1_555
O4_4 Cu4_3 1_555 1_555
C1_4 H1_4 1_555 1_555
C1_5 C2_5 1_555 1_555
C2_5 C4_5 1_555 1_555
C3_5 C1_5 1_555 1_555
C4_5 O2_5 1_555 1_555
O7_3 C3_5 1_555 1_555
O3_5 C4_5 1_555 1_555
C5_5 C6_5 1_555 1_555
C6_5 C3_5 1_555 1_555
C7_5 C2_5 1_555 1_555
C8_5 C6_5 1_555 1_555
O4_5 C7_5 1_555 1_555
O11_3 Cu5_3 1_555 1_555
Cu6 O4_5 1_555 1_555
O9_5 Cu5_3 1_555 1_555
C5_5 C7_5 1_555 1_555
C8_5 O11_3 1_555 1_555
C1_5 H1_5 1_555 1_555
C1_6 C2_6 1_555 1_555
C2_6 C4_6 1_555 1_555
C3_6 C1_6 1_555 1_555
C4_6 O2_6 1_555 1_555
O7 C3_6 1_555 1_555
O3_6 C4_6 1_555 1_555
C5_6 C6_6 1_555 1_555
C6_6 C3_6 1_555 1_555
C7_6 C2_6 1_555 1_555
C8_6 C6_6 1_555 1_555
O4_6 C7_6 1_555 1_555
O11 Cu5 1_555 1_555
Cu6_2 O4_6 1_555 1_555
O8 Cu5 1_555 1_555
O9_6 Cu5 1_555 1_555
C5_6 C7_6 1_555 1_555
C8_6 O11 1_555 1_555
C1_6 H1_6 1_555 1_555
C5_7 C6_7 1_555 1_555
C8_7 C6_7 1_555 1_555
O4_7 C7_7 1_555 1_555
O9_5 C8_7 1_555 1_555
C5_7 C7_7 1_555 1_555
C5_7 H2_7 1_555 1_555
Cu6_2 O3_7 1_555 1_555
C1_7 C2_7 1_555 1_555
C2_7 C4_7 1_555 1_555
C3_7 C1_7 1_555 1_555
C4_7 O2_7 1_555 1_555
O8_3 C3_7 1_555 1_555
O2_7 Cu8_2 1_555 1_555
C1_7 H1_7 1_555 1_555
C5_8 C6_8 1_555 1_555
C8_8 C6_8 1_555 1_555
O4_8 C7_8 1_555 1_555
O9_6 C8_8 1_555 1_555
Cu8_3 O4_8 1_555 1_555
C5_8 C7_8 1_555 1_555
C8_8 O12 1_555 1_555
C5_8 H2_8 1_555 1_555
C1_8 C2_8 1_555 1_555
C2_8 C4_8 1_555 1_555
C3_8 C1_8 1_555 1_555
C4_8 O2_8 1_555 1_555
O8 C3_8 1_555 1_555
O2_8 Cu8_3 1_555 1_555
O3_8 C4_8 1_555 1_555
Cu4_3 O3_8 1_555 1_555
Cu6_3 O3_8 1_555 1_555
C1_8 H1_8 1_555 1_555
C1_9 C2_9 1_555 1_555
C2_9 C4_9 1_555 1_555
C3_9 C1_9 1_555 1_555
C4_9 O2_9 1_555 1_555
O8_2 C3_9 1_555 1_555
O2_9 Cu8 1_555 1_555
C1_9 H1_9 1_555 1_555
C5_9 C6_9 1_555 1_555
C8_9 C6_9 1_555 1_555
O4_9 C7_9 1_555 1_555
O9_4 C8_9 1_555 1_555
C5_9 C7_9 1_555 1_555
C5_9 H2_9 1_555 1_555
Cu6 O3_9 1_555 1_555

#END
