
###############################################################################
#
# This file contains modified crystal structure data generated from the
# MOF subset of the Cambridge Structural Database (CSD) v543 
# hosted by the Cambridge Crystallographic Data Centre (CCDC).
#
# This work is licensed under the Creative Commons
# Attribution-NonCommercial-ShareAlike 4.0 International License.
# To view a copy of this license, visit
# http://creativecommons.org/licenses/by-nc-sa/4.0/
# or send a letter to
# Creative Commons, PO Box 1866, Mountain View, CA 94042, USA.
#
# CIF created using the CSD Python API on 29 September 2022
# The structure has been converted into the P1 space group
# The structure has a 3D framework
# The original CSD entry MOMBEY07 is in the rhombohedral crystal system
# The framework has been calculated to contain at least 10.0% void space
# The void calculation uses a probe of radius 1.32A, grid spacing 0.4
# H atom positions have been added when not included in the experimental data
#
###############################################################################

data_MOMBEY07
_chemical_formula_moiety         '(C72 H18 Cu7 O44)n'
_symmetry_cell_setting           triclinic
_symmetry_space_group_name_H-M   'P 1'
_symmetry_Int_Tables_number      1
_space_group_name_Hall           'P 1'
loop_
_symmetry_equiv_pos_site_id
_symmetry_equiv_pos_as_xyz
1 x,y,z
_cell_length_a                   25.9117(6)
_cell_length_b                   25.9117(6)
_cell_length_c                   6.30022(17)
_cell_angle_alpha                90
_cell_angle_beta                 90
_cell_angle_gamma                120
_cell_volume                     3663.35
loop_
_atom_site_label
_atom_site_type_symbol
_atom_site_fract_x
_atom_site_fract_y
_atom_site_fract_z
Cu7 Cu 0.31823(13) 0.37169(9) 0.0080(4)
Cu1 Cu 0.29498(9) 0.27988(9) 0.3413(4)
C1 C 0.1588(7) 0.3156(6) 0.126(3)
C2 C 0.1212(7) 0.3266(7) 0.193(3)
C3 C 0.2078(7) 0.3191(7) 0.260(2)
C4 C 0.0801(7) 0.3250(9) 0.027(3)
O1 O 0.2503(4) 0.3050(4) 0.1765(19)
O3 O 0.0511(4) 0.3553(4) 0.0733(16)
C5 C 0.1745(7) 0.3511(6) 0.541(3)
C6 C 0.2121(7) 0.3401(7) 0.474(3)
C7 C 0.1255(7) 0.3476(7) 0.407(2)
C8 C 0.2532(7) 0.3417(9) 0.640(3)
O4 O 0.0830(4) 0.3617(4) 0.4902(19)
O5 O 0.2668(4) 0.3734(4) 0.7812(18)
O6 O 0.2822(4) 0.3114(4) 0.5934(16)
Cu4 Cu 0.01510(13) 0.29498(9) 0.6587(4)
Cu5 Cu 0.38679(9) 0.34843(13) 0.6746(4)
Cu8 Cu 0.03835(9) 0.38679(9) 0.3254(4)
O7 O 0.3617(4) 0.2786(6) 0.5098(19)
O9 O 0.2933(4) 0.2268(6) 0.1145(18)
O12 O 0.3625(6) 0.3844(4) 0.2600(16)
H1 H 0.17689 0.364066 0.706327
O2 O 0.0665(4) 0.2933(4) 0.8855(18)
O8 O 0.3880(6) 0.4164(4) 0.8432(19)
O11 O 0.3553(4) 0.3042(6) 0.9267(16)
H2 H 0.156444 0.302601 0.96034
Cu6 Cu 0.94655(9) 0.31823(13) 0.9920(4)
Cu6_2 Cu 0.37169(16) 0.05345(9) 0.9920(4)
Cu7_2 Cu 0.05345(16) 0.68177(13) 0.0080(4)
C1_2 C 0.1568(9) 0.8412(7) 0.126(3)
C2_2 C 0.2054(10) 0.8788(7) 0.193(3)
C3_2 C 0.1113(10) 0.7922(7) 0.260(2)
C4_2 C 0.2449(11) 0.9199(7) 0.027(3)
O1_2 O 0.0547(6) 0.7497(4) 0.1765(19)
O3_2 O 0.3042(6) 0.9489(4) 0.0733(16)
C5_2 C 0.1765(9) 0.8255(7) 0.541(3)
C6_2 C 0.1279(10) 0.7879(7) 0.474(3)
C7_2 C 0.2220(10) 0.8745(7) 0.407(2)
C8_2 C 0.0884(11) 0.7468(7) 0.640(3)
O4_2 O 0.2786(6) 0.9170(4) 0.4902(19)
O5_2 O 0.1065(6) 0.7332(4) 0.7812(18)
O6_2 O 0.0291(6) 0.7178(4) 0.5934(16)
Cu4_2 Cu 0.27988(16) 0.98490(13) 0.6587(4)
Cu8_2 Cu 0.34843(13) 0.96165(9) 0.3254(4)
O12_2 O 0.0220(7) 0.6375(6) 0.2600(16)
H1_2 H 0.187176 0.82311 0.706327
O2_2 O 0.2268(6) 0.9335(4) 0.8855(18)
O8_2 O 0.0283(7) 0.6120(6) 0.8432(19)
H2_2 H 0.146157 0.843556 0.96034
Cu1_2 Cu 0.98490(13) 0.70502(9) 0.3413(4)
Cu5_2 Cu 0.96165(16) 0.61321(9) 0.6746(4)
O7_2 O 0.9170(7) 0.6383(4) 0.5098(19)
O9_2 O 0.9335(7) 0.7067(4) 0.1145(18)
O11_2 O 0.9489(7) 0.6447(4) 0.9267(16)
Cu1_3 Cu 0.72012(9) 0.01510(13) 0.3413(4)
Cu5_3 Cu 0.65157(13) 0.03835(16) 0.6746(4)
O7_3 O 0.7214(6) 0.0830(7) 0.5098(19)
O9_3 O 0.7732(6) 0.0665(7) 0.1145(18)
O11_3 O 0.6958(6) 0.0511(7) 0.9267(16)
Cu7_3 Cu 0.62831(9) 0.94655(16) 0.0080(4)
C1_3 C 0.6844(6) 0.8432(9) 0.126(3)
C2_3 C 0.6734(7) 0.7946(10) 0.193(3)
C3_3 C 0.6809(7) 0.8887(10) 0.260(2)
C4_3 C 0.6750(9) 0.7551(11) 0.027(3)
O1_3 O 0.6950(4) 0.9453(6) 0.1765(19)
O3_3 O 0.6447(4) 0.6958(6) 0.0733(16)
C5_3 C 0.6489(6) 0.8235(9) 0.541(3)
C6_3 C 0.6599(7) 0.8721(10) 0.474(3)
C7_3 C 0.6524(7) 0.7780(10) 0.407(2)
C8_3 C 0.6583(9) 0.9116(11) 0.640(3)
O4_3 O 0.6383(4) 0.7214(6) 0.4902(19)
O5_3 O 0.6266(4) 0.8935(6) 0.7812(18)
O6_3 O 0.6886(4) 0.9709(6) 0.5934(16)
Cu4_3 Cu 0.70502(9) 0.72012(16) 0.6587(4)
Cu8_3 Cu 0.61321(9) 0.65157(13) 0.3254(4)
O12_3 O 0.6156(4) 0.9780(7) 0.2600(16)
H1_3 H 0.635934 0.812824 0.706327
O2_3 O 0.7067(4) 0.7732(6) 0.8855(18)
Cu6_3 Cu 0.68177(13) 0.62831(16) 0.9920(4)
O8_3 O 0.5836(4) 0.9717(7) 0.8432(19)
H2_3 H 0.697399 0.853843 0.96034
H1_4 H 0.843556 0.697399 0.0396604
C1_4 C 0.8255(7) 0.6489(6) 0.459(3)
C2_4 C 0.7879(7) 0.6599(7) 0.526(3)
C3_4 C 0.8745(7) 0.6524(7) 0.593(2)
C4_4 C 0.7468(7) 0.6583(9) 0.360(3)
O2_4 O 0.7332(4) 0.6266(4) 0.2188(18)
O3_4 O 0.7178(4) 0.6886(4) 0.4066(16)
C5_4 C 0.8412(7) 0.6844(6) 0.874(3)
C6_4 C 0.8788(7) 0.6734(7) 0.807(3)
C7_4 C 0.7922(7) 0.6809(7) 0.740(2)
C8_4 C 0.9199(7) 0.6750(9) 0.973(3)
O4_4 O 0.7497(4) 0.6950(4) 0.8235(19)
O9_4 O 0.9600(4) 0.5601(6) 0.4478(18)
H2_4 H 0.82311 0.635934 0.293673
H1_5 H 0.853843 0.156444 0.0396604
C1_5 C 0.8235(9) 0.1745(7) 0.459(3)
C2_5 C 0.8721(10) 0.2121(7) 0.526(3)
C3_5 C 0.7780(10) 0.1255(7) 0.593(2)
C4_5 C 0.9116(11) 0.2532(7) 0.360(3)
O2_5 O 0.8935(6) 0.2668(4) 0.2188(18)
O3_5 O 0.9709(6) 0.2822(4) 0.4066(16)
C5_5 C 0.8432(9) 0.1588(7) 0.874(3)
C6_5 C 0.7946(10) 0.1212(7) 0.807(3)
C7_5 C 0.8887(10) 0.2078(7) 0.740(2)
C8_5 C 0.7551(11) 0.0801(7) 0.973(3)
O4_5 O 0.9453(6) 0.2503(4) 0.8235(19)
O9_5 O 0.6002(7) 0.0400(4) 0.4478(18)
H2_5 H 0.812824 0.17689 0.293673
H1_6 H 0.302601 0.146157 0.0396604
C1_6 C 0.3511(6) 0.1765(9) 0.459(3)
C2_6 C 0.3401(7) 0.1279(10) 0.526(3)
C3_6 C 0.3476(7) 0.2220(10) 0.593(2)
C4_6 C 0.3417(9) 0.0884(11) 0.360(3)
O2_6 O 0.3734(4) 0.1065(6) 0.2188(18)
O3_6 O 0.3114(4) 0.0291(6) 0.4066(16)
C5_6 C 0.3156(6) 0.1568(9) 0.874(3)
C6_6 C 0.3266(7) 0.2054(10) 0.807(3)
C7_6 C 0.3191(7) 0.1113(10) 0.740(2)
C8_6 C 0.3250(9) 0.2449(11) 0.973(3)
O4_6 O 0.3050(4) 0.0547(6) 0.8235(19)
O9_6 O 0.4399(6) 0.3998(7) 0.4478(18)
H2_6 H 0.364066 0.187176 0.293673
C5_7 C 0.5079(7) 0.0177(6) 0.207(3)
C6_7 C 0.5455(7) 0.0067(7) 0.140(3)
C7_7 C 0.4589(7) 0.0142(7) 0.073(2)
C8_7 C 0.5866(7) 0.0083(9) 0.306(3)
O4_7 O 0.4164(4) 0.0283(4) 0.1568(19)
H1_7 H 0.510223 0.0307325 0.372994
O3_7 O 0.3844(4) 0.0220(4) 0.7400(16)
C1_7 C 0.4921(7) 0.9823(6) 0.793(3)
C2_7 C 0.4545(7) 0.9933(7) 0.860(3)
C3_7 C 0.5411(7) 0.9858(7) 0.927(2)
C4_7 C 0.4134(7) 0.9917(9) 0.694(3)
O2_7 O 0.3998(4) 0.9600(4) 0.5522(18)
H2_7 H 0.489777 0.969267 0.627006
C5_8 C 0.5099(9) 0.4921(7) 0.207(3)
C6_8 C 0.4613(10) 0.4545(7) 0.140(3)
C7_8 C 0.5554(10) 0.5411(7) 0.073(2)
C8_8 C 0.4218(11) 0.4134(7) 0.306(3)
O4_8 O 0.6120(6) 0.5836(4) 0.1568(19)
H1_8 H 0.52051 0.489777 0.372994
C1_8 C 0.4901(9) 0.5079(7) 0.793(3)
C2_8 C 0.5387(10) 0.5455(7) 0.860(3)
C3_8 C 0.4446(10) 0.4589(7) 0.927(2)
C4_8 C 0.5782(11) 0.5866(7) 0.694(3)
O2_8 O 0.5601(6) 0.6002(4) 0.5522(18)
O3_8 O 0.6375(6) 0.6156(4) 0.7400(16)
H2_8 H 0.47949 0.510223 0.627006
C1_9 C 0.0177(6) 0.5099(9) 0.793(3)
C2_9 C 0.0067(7) 0.4613(10) 0.860(3)
C3_9 C 0.0142(7) 0.5554(10) 0.927(2)
C4_9 C 0.0083(9) 0.4218(11) 0.694(3)
O2_9 O 0.0400(4) 0.4399(6) 0.5522(18)
H2_9 H 0.0307325 0.52051 0.627006
C5_9 C 0.9823(6) 0.4901(9) 0.207(3)
C6_9 C 0.9933(7) 0.5387(10) 0.140(3)
C7_9 C 0.9858(7) 0.4446(10) 0.073(2)
C8_9 C 0.9917(9) 0.5782(11) 0.306(3)
O4_9 O 0.9717(4) 0.3880(6) 0.1568(19)
H1_9 H 0.969267 0.47949 0.372994
O3_9 O 0.9780(4) 0.3625(6) 0.7400(16)
loop_
_geom_bond_atom_site_label_1
_geom_bond_atom_site_label_2
_geom_bond_site_symmetry_1
_geom_bond_site_symmetry_2
Cu1 O1 1_555 1_555
C1 C2 1_555 1_555
C2 C4 1_555 1_555
C3 C1 1_555 1_555
O1 C3 1_555 1_555
O3 C4 1_555 1_555
C5 C6 1_555 1_555
C6 C3 1_555 1_555
C7 C2 1_555 1_555
C8 C6 1_555 1_555
O4 C7 1_555 1_555
O5 C8 1_555 1_555
O6 Cu1 1_555 1_555
Cu7 O1 1_555 1_555
Cu4 O4 1_555 1_555
Cu5 O6 1_555 1_555
Cu8 O3 1_555 1_555
O7 Cu1 1_555 1_555
O9 Cu1 1_555 1_555
O12 Cu1 1_555 1_555
C5 C7 1_555 1_555
C8 O6 1_555 1_555
O4 Cu8 1_555 1_555
Cu7 O12 1_555 1_555
Cu5 O7 1_555 1_555
C5 H1 1_555 1_555
O2 Cu4 1_555 1_555
C1_2 C2_2 1_555 1_555
C2_2 C4_2 1_555 1_555
C3_2 C1_2 1_555 1_555
O1_2 C3_2 1_555 1_555
O3_2 C4_2 1_555 1_555
C5_2 C6_2 1_555 1_555
C6_2 C3_2 1_555 1_555
C7_2 C2_2 1_555 1_555
C8_2 C6_2 1_555 1_555
O4_2 C7_2 1_555 1_555
O5_2 C8_2 1_555 1_555
Cu7_2 O1_2 1_555 1_555
Cu4_2 O4_2 1_555 1_555
Cu8_2 O3_2 1_555 1_555
C5_2 C7_2 1_555 1_555
C8_2 O6_2 1_555 1_555
O4_2 Cu8_2 1_555 1_555
Cu7_2 O12_2 1_555 1_555
C5_2 H1_2 1_555 1_555
O2_2 Cu4_2 1_555 1_555
O7_2 Cu1_2 1_555 1_555
O9_2 Cu1_2 1_555 1_555
Cu5_2 O7_2 1_555 1_555
O7_3 Cu1_3 1_555 1_555
O9_3 Cu1_3 1_555 1_555
Cu5_3 O7_3 1_555 1_555
C1_3 C2_3 1_555 1_555
C2_3 C4_3 1_555 1_555
C3_3 C1_3 1_555 1_555
O1_3 C3_3 1_555 1_555
O3_3 C4_3 1_555 1_555
C5_3 C6_3 1_555 1_555
C6_3 C3_3 1_555 1_555
C7_3 C2_3 1_555 1_555
C8_3 C6_3 1_555 1_555
O4_3 C7_3 1_555 1_555
O5_3 C8_3 1_555 1_555
Cu7_3 O1_3 1_555 1_555
Cu4_3 O4_3 1_555 1_555
Cu8_3 O3_3 1_555 1_555
C5_3 C7_3 1_555 1_555
C8_3 O6_3 1_555 1_555
O4_3 Cu8_3 1_555 1_555
Cu7_3 O12_3 1_555 1_555
C5_3 H1_3 1_555 1_555
O2_3 Cu4_3 1_555 1_555
C1_4 C2_4 1_555 1_555
C2_4 C4_4 1_555 1_555
C3_4 C1_4 1_555 1_555
C4_4 O2_4 1_555 1_555
O7_2 C3_4 1_555 1_555
O3_4 C4_4 1_555 1_555
C5_4 C6_4 1_555 1_555
C6_4 C3_4 1_555 1_555
C7_4 C2_4 1_555 1_555
C8_4 C6_4 1_555 1_555
O4_4 C7_4 1_555 1_555
O11_2 Cu5_2 1_555 1_555
Cu6_3 O4_4 1_555 1_555
Cu8_3 O3_4 1_555 1_555
Cu4_3 O3_4 1_555 1_555
O9_4 Cu5_2 1_555 1_555
C5_4 C7_4 1_555 1_555
C8_4 O11_2 1_555 1_555
O4_4 Cu4_3 1_555 1_555
C1_4 H2_4 1_555 1_555
C1_5 C2_5 1_555 1_555
C2_5 C4_5 1_555 1_555
C3_5 C1_5 1_555 1_555
C4_5 O2_5 1_555 1_555
O7_3 C3_5 1_555 1_555
O3_5 C4_5 1_555 1_555
C5_5 C6_5 1_555 1_555
C6_5 C3_5 1_555 1_555
C7_5 C2_5 1_555 1_555
C8_5 C6_5 1_555 1_555
O4_5 C7_5 1_555 1_555
O11_3 Cu5_3 1_555 1_555
Cu6 O4_5 1_555 1_555
O9_5 Cu5_3 1_555 1_555
C5_5 C7_5 1_555 1_555
C8_5 O11_3 1_555 1_555
C1_5 H2_5 1_555 1_555
C1_6 C2_6 1_555 1_555
C2_6 C4_6 1_555 1_555
C3_6 C1_6 1_555 1_555
C4_6 O2_6 1_555 1_555
O7 C3_6 1_555 1_555
O3_6 C4_6 1_555 1_555
C5_6 C6_6 1_555 1_555
C6_6 C3_6 1_555 1_555
C7_6 C2_6 1_555 1_555
C8_6 C6_6 1_555 1_555
O4_6 C7_6 1_555 1_555
O11 Cu5 1_555 1_555
Cu6_2 O4_6 1_555 1_555
O8 Cu5 1_555 1_555
O9_6 Cu5 1_555 1_555
C5_6 C7_6 1_555 1_555
C8_6 O11 1_555 1_555
C1_6 H2_6 1_555 1_555
C5_7 C6_7 1_555 1_555
C8_7 C6_7 1_555 1_555
O4_7 C7_7 1_555 1_555
O9_5 C8_7 1_555 1_555
C5_7 C7_7 1_555 1_555
C5_7 H1_7 1_555 1_555
Cu6_2 O3_7 1_555 1_555
C1_7 C2_7 1_555 1_555
C2_7 C4_7 1_555 1_555
C3_7 C1_7 1_555 1_555
C4_7 O2_7 1_555 1_555
O8_3 C3_7 1_555 1_555
O2_7 Cu8_2 1_555 1_555
C1_7 H2_7 1_555 1_555
C5_8 C6_8 1_555 1_555
C8_8 C6_8 1_555 1_555
O4_8 C7_8 1_555 1_555
O9_6 C8_8 1_555 1_555
Cu8_3 O4_8 1_555 1_555
C5_8 C7_8 1_555 1_555
C8_8 O12 1_555 1_555
C5_8 H1_8 1_555 1_555
C1_8 C2_8 1_555 1_555
C2_8 C4_8 1_555 1_555
C3_8 C1_8 1_555 1_555
C4_8 O2_8 1_555 1_555
O8 C3_8 1_555 1_555
O2_8 Cu8_3 1_555 1_555
O3_8 C4_8 1_555 1_555
Cu4_3 O3_8 1_555 1_555
Cu6_3 O3_8 1_555 1_555
C1_8 H2_8 1_555 1_555
C1_9 C2_9 1_555 1_555
C2_9 C4_9 1_555 1_555
C3_9 C1_9 1_555 1_555
C4_9 O2_9 1_555 1_555
O8_2 C3_9 1_555 1_555
O2_9 Cu8 1_555 1_555
C1_9 H2_9 1_555 1_555
C5_9 C6_9 1_555 1_555
C8_9 C6_9 1_555 1_555
O4_9 C7_9 1_555 1_555
O9_4 C8_9 1_555 1_555
C5_9 C7_9 1_555 1_555
C5_9 H1_9 1_555 1_555
Cu6 O3_9 1_555 1_555

#END
