
###############################################################################
#
# This file contains modified crystal structure data generated from the
# MOF subset of the Cambridge Structural Database (CSD) v543 
# hosted by the Cambridge Crystallographic Data Centre (CCDC).
#
# This work is licensed under the Creative Commons
# Attribution-NonCommercial-ShareAlike 4.0 International License.
# To view a copy of this license, visit
# http://creativecommons.org/licenses/by-nc-sa/4.0/
# or send a letter to
# Creative Commons, PO Box 1866, Mountain View, CA 94042, USA.
#
# CIF created using the CSD Python API on 29 September 2022
# The structure has been converted into the P1 space group
# The structure has a 3D framework
# The original CSD entry MOMBEY28 is in the rhombohedral crystal system
# The framework has been calculated to contain at least 10.0% void space
# The void calculation uses a probe of radius 1.32A, grid spacing 0.4
# H atom positions have been added when not included in the experimental data
#
###############################################################################

data_MOMBEY28
_chemical_formula_moiety         '(C72 H18 Cu7 O44)n'
_symmetry_cell_setting           triclinic
_symmetry_space_group_name_H-M   'P 1'
_symmetry_Int_Tables_number      1
_space_group_name_Hall           'P 1'
loop_
_symmetry_equiv_pos_site_id
_symmetry_equiv_pos_as_xyz
1 x,y,z
_cell_length_a                   25.9180(4)
_cell_length_b                   25.9180(4)
_cell_length_c                   6.29071(12)
_cell_angle_alpha                90
_cell_angle_beta                 90
_cell_angle_gamma                120
_cell_volume                     3659.6
loop_
_atom_site_label
_atom_site_type_symbol
_atom_site_fract_x
_atom_site_fract_y
_atom_site_fract_z
Cu7 Cu 0.31820(11) 0.37162(8) 0.0079(3)
Cu1 Cu 0.29505(8) 0.27992(7) 0.3412(3)
C1 C 0.1591(6) 0.3153(5) 0.127(2)
C2 C 0.1211(6) 0.3264(6) 0.194(2)
C3 C 0.2079(6) 0.3192(6) 0.262(2)
C4 C 0.0799(6) 0.3247(7) 0.026(2)
O1 O 0.2506(4) 0.3054(4) 0.1789(16)
O3 O 0.0510(3) 0.3550(3) 0.0723(13)
C5 C 0.1742(6) 0.3514(5) 0.540(2)
C6 C 0.2122(6) 0.3403(6) 0.473(2)
C7 C 0.1254(6) 0.3475(6) 0.405(2)
C8 C 0.2534(6) 0.3420(7) 0.641(2)
O4 O 0.0827(4) 0.3613(4) 0.4878(16)
O5 O 0.2670(4) 0.3740(3) 0.7847(16)
O6 O 0.2823(3) 0.3117(3) 0.5944(13)
Cu4 Cu 0.01513(11) 0.29505(8) 0.6588(3)
Cu5 Cu 0.38675(7) 0.34846(11) 0.6745(3)
Cu8 Cu 0.03828(8) 0.38675(7) 0.3255(3)
O7 O 0.3613(4) 0.2785(6) 0.5122(16)
O9 O 0.2927(3) 0.2264(5) 0.1180(16)
O12 O 0.3627(4) 0.3843(3) 0.2610(13)
H2 H 0.1765 0.364629 0.705211
O2 O 0.0663(4) 0.2927(3) 0.8820(16)
O8 O 0.3881(6) 0.4161(4) 0.8456(16)
O11 O 0.3550(3) 0.3040(4) 0.9277(13)
H1 H 0.156834 0.302037 0.961455
Cu6 Cu 0.94659(7) 0.31820(11) 0.9921(3)
Cu6_2 Cu 0.37162(13) 0.05341(7) 0.9921(3)
Cu7_2 Cu 0.05341(14) 0.68180(11) 0.0079(3)
C1_2 C 0.1562(8) 0.8409(6) 0.127(2)
C2_2 C 0.2053(8) 0.8789(6) 0.194(2)
C3_2 C 0.1113(8) 0.7921(6) 0.262(2)
C4_2 C 0.2448(9) 0.9201(6) 0.026(2)
O1_2 O 0.0548(6) 0.7494(4) 0.1789(16)
O3_2 O 0.3040(4) 0.9490(3) 0.0723(13)
C5_2 C 0.1771(8) 0.8258(6) 0.540(2)
C6_2 C 0.1280(8) 0.7878(6) 0.473(2)
C7_2 C 0.2220(8) 0.8746(6) 0.405(2)
C8_2 C 0.0885(9) 0.7466(6) 0.641(2)
O4_2 O 0.2785(6) 0.9173(4) 0.4878(16)
O5_2 O 0.1069(5) 0.7330(4) 0.7847(16)
O6_2 O 0.0293(4) 0.7177(3) 0.5944(13)
Cu4_2 Cu 0.27992(14) 0.98487(11) 0.6588(3)
Cu8_2 Cu 0.34846(11) 0.96172(8) 0.3255(3)
O12_2 O 0.0217(5) 0.6373(4) 0.2610(13)
H2_2 H 0.18813 0.8235 0.705211
O2_2 O 0.2264(5) 0.9337(4) 0.8820(16)
O8_2 O 0.0279(7) 0.6119(6) 0.8456(16)
H1_2 H 0.145204 0.843166 0.961455
Cu1_2 Cu 0.98487(11) 0.70495(8) 0.3412(3)
Cu5_2 Cu 0.96172(13) 0.61325(7) 0.6745(3)
O7_2 O 0.9173(7) 0.6387(4) 0.5122(16)
O9_2 O 0.9337(6) 0.7073(3) 0.1180(16)
O11_2 O 0.9490(5) 0.6450(3) 0.9277(13)
Cu1_3 Cu 0.72008(7) 0.01513(11) 0.3412(3)
Cu5_3 Cu 0.65154(11) 0.03828(13) 0.6745(3)
O7_3 O 0.7215(6) 0.0827(7) 0.5122(16)
O9_3 O 0.7736(5) 0.0663(6) 0.1180(16)
O11_3 O 0.6960(4) 0.0510(5) 0.9277(13)
Cu7_3 Cu 0.62838(8) 0.94659(14) 0.0079(3)
C1_3 C 0.6847(5) 0.8438(8) 0.127(2)
C2_3 C 0.6736(6) 0.7947(8) 0.194(2)
C3_3 C 0.6808(6) 0.8887(8) 0.262(2)
C4_3 C 0.6753(7) 0.7552(9) 0.026(2)
O1_3 O 0.6946(4) 0.9452(6) 0.1789(16)
O3_3 O 0.6450(3) 0.6960(4) 0.0723(13)
C5_3 C 0.6486(5) 0.8229(8) 0.540(2)
C6_3 C 0.6597(6) 0.8720(8) 0.473(2)
C7_3 C 0.6525(6) 0.7780(8) 0.405(2)
C8_3 C 0.6580(7) 0.9115(9) 0.641(2)
O4_3 O 0.6387(4) 0.7215(6) 0.4878(16)
O5_3 O 0.6260(3) 0.8931(5) 0.7847(16)
O6_3 O 0.6883(3) 0.9707(4) 0.5944(13)
Cu4_3 Cu 0.70495(8) 0.72008(14) 0.6588(3)
Cu8_3 Cu 0.61325(7) 0.65154(11) 0.3255(3)
O12_3 O 0.6157(3) 0.9783(5) 0.2610(13)
H2_3 H 0.635371 0.81187 0.705211
O2_3 O 0.7073(3) 0.7736(5) 0.8820(16)
Cu6_3 Cu 0.68180(11) 0.62838(13) 0.9921(3)
O8_3 O 0.5839(4) 0.9721(7) 0.8456(16)
H1_3 H 0.697963 0.854796 0.961455
H2_4 H 0.843166 0.697963 0.0385447
C1_4 C 0.8258(6) 0.6486(5) 0.460(2)
C2_4 C 0.7878(6) 0.6597(6) 0.527(2)
C3_4 C 0.8746(6) 0.6525(6) 0.595(2)
C4_4 C 0.7466(6) 0.6580(7) 0.359(2)
O2_4 O 0.7330(4) 0.6260(3) 0.2153(16)
O3_4 O 0.7177(3) 0.6883(3) 0.4056(13)
C5_4 C 0.8409(6) 0.6847(5) 0.873(2)
C6_4 C 0.8789(6) 0.6736(6) 0.806(2)
C7_4 C 0.7921(6) 0.6808(6) 0.738(2)
C8_4 C 0.9201(6) 0.6753(7) 0.974(2)
O4_4 O 0.7494(4) 0.6946(4) 0.8211(16)
O9_4 O 0.9594(3) 0.5597(5) 0.4513(16)
H1_4 H 0.8235 0.635371 0.294789
H2_5 H 0.854796 0.156834 0.0385447
C1_5 C 0.8229(8) 0.1742(6) 0.460(2)
C2_5 C 0.8720(8) 0.2122(6) 0.527(2)
C3_5 C 0.7780(8) 0.1254(6) 0.595(2)
C4_5 C 0.9115(9) 0.2534(6) 0.359(2)
O2_5 O 0.8931(5) 0.2670(4) 0.2153(16)
O3_5 O 0.9707(4) 0.2823(3) 0.4056(13)
C5_5 C 0.8438(8) 0.1591(6) 0.873(2)
C6_5 C 0.7947(8) 0.1211(6) 0.806(2)
C7_5 C 0.8887(8) 0.2079(6) 0.738(2)
C8_5 C 0.7552(9) 0.0799(6) 0.974(2)
O4_5 O 0.9452(6) 0.2506(4) 0.8211(16)
O9_5 O 0.6004(6) 0.0406(3) 0.4513(16)
H1_5 H 0.81187 0.1765 0.294789
H2_6 H 0.302037 0.145204 0.0385447
C1_6 C 0.3514(5) 0.1771(8) 0.460(2)
C2_6 C 0.3403(6) 0.1280(8) 0.527(2)
C3_6 C 0.3475(6) 0.2220(8) 0.595(2)
C4_6 C 0.3420(7) 0.0885(9) 0.359(2)
O2_6 O 0.3740(3) 0.1069(5) 0.2153(16)
O3_6 O 0.3117(3) 0.0293(4) 0.4056(13)
C5_6 C 0.3153(5) 0.1562(8) 0.873(2)
C6_6 C 0.3264(6) 0.2053(8) 0.806(2)
C7_6 C 0.3192(6) 0.1113(8) 0.738(2)
C8_6 C 0.3247(7) 0.2448(9) 0.974(2)
O4_6 O 0.3054(4) 0.0548(6) 0.8211(16)
O9_6 O 0.4403(5) 0.3996(6) 0.4513(16)
H1_6 H 0.364629 0.18813 0.294789
C5_7 C 0.5076(6) 0.0180(5) 0.206(2)
C6_7 C 0.5456(6) 0.0069(6) 0.139(2)
C7_7 C 0.4588(6) 0.0141(6) 0.071(2)
C8_7 C 0.5868(6) 0.0086(7) 0.307(2)
O4_7 O 0.4161(4) 0.0279(4) 0.1544(16)
H2_7 H 0.509833 0.0312961 0.371878
O3_7 O 0.3843(3) 0.0217(3) 0.7390(13)
C1_7 C 0.4924(6) 0.9820(5) 0.794(2)
C2_7 C 0.4544(6) 0.9931(6) 0.861(2)
C3_7 C 0.5412(6) 0.9859(6) 0.929(2)
C4_7 C 0.4132(6) 0.9914(7) 0.693(2)
O2_7 O 0.3996(4) 0.9594(3) 0.5487(16)
H1_7 H 0.490167 0.968704 0.628122
C5_8 C 0.5105(8) 0.4924(6) 0.206(2)
C6_8 C 0.4614(8) 0.4544(6) 0.139(2)
C7_8 C 0.5554(8) 0.5412(6) 0.071(2)
C8_8 C 0.4219(9) 0.4132(6) 0.307(2)
O4_8 O 0.6119(6) 0.5839(4) 0.1544(16)
H2_8 H 0.521463 0.490167 0.371878
C1_8 C 0.4895(8) 0.5076(6) 0.794(2)
C2_8 C 0.5386(8) 0.5456(6) 0.861(2)
C3_8 C 0.4446(8) 0.4588(6) 0.929(2)
C4_8 C 0.5781(9) 0.5868(6) 0.693(2)
O2_8 O 0.5597(5) 0.6004(4) 0.5487(16)
O3_8 O 0.6373(4) 0.6157(3) 0.7390(13)
H1_8 H 0.478537 0.509833 0.628122
C1_9 C 0.0180(5) 0.5105(8) 0.794(2)
C2_9 C 0.0069(6) 0.4614(8) 0.861(2)
C3_9 C 0.0141(6) 0.5554(8) 0.929(2)
C4_9 C 0.0086(7) 0.4219(9) 0.693(2)
O2_9 O 0.0406(3) 0.4403(5) 0.5487(16)
H1_9 H 0.0312961 0.521463 0.628122
C5_9 C 0.9820(5) 0.4895(8) 0.206(2)
C6_9 C 0.9931(6) 0.5386(8) 0.139(2)
C7_9 C 0.9859(6) 0.4446(8) 0.071(2)
C8_9 C 0.9914(7) 0.5781(9) 0.307(2)
O4_9 O 0.9721(4) 0.3881(6) 0.1544(16)
H2_9 H 0.968704 0.478537 0.371878
O3_9 O 0.9783(3) 0.3627(4) 0.7390(13)
loop_
_geom_bond_atom_site_label_1
_geom_bond_atom_site_label_2
_geom_bond_site_symmetry_1
_geom_bond_site_symmetry_2
Cu1 O1 1_555 1_555
C1 C2 1_555 1_555
C2 C4 1_555 1_555
C3 C1 1_555 1_555
O1 C3 1_555 1_555
O3 C4 1_555 1_555
C5 C6 1_555 1_555
C6 C3 1_555 1_555
C7 C2 1_555 1_555
C8 C6 1_555 1_555
O4 C7 1_555 1_555
O5 C8 1_555 1_555
O6 Cu1 1_555 1_555
Cu7 O1 1_555 1_555
Cu4 O4 1_555 1_555
Cu5 O6 1_555 1_555
Cu8 O3 1_555 1_555
O7 Cu1 1_555 1_555
O9 Cu1 1_555 1_555
O12 Cu1 1_555 1_555
C5 C7 1_555 1_555
C8 O6 1_555 1_555
O4 Cu8 1_555 1_555
Cu7 O12 1_555 1_555
Cu5 O7 1_555 1_555
C5 H2 1_555 1_555
O2 Cu4 1_555 1_555
C1_2 C2_2 1_555 1_555
C2_2 C4_2 1_555 1_555
C3_2 C1_2 1_555 1_555
O1_2 C3_2 1_555 1_555
O3_2 C4_2 1_555 1_555
C5_2 C6_2 1_555 1_555
C6_2 C3_2 1_555 1_555
C7_2 C2_2 1_555 1_555
C8_2 C6_2 1_555 1_555
O4_2 C7_2 1_555 1_555
O5_2 C8_2 1_555 1_555
Cu7_2 O1_2 1_555 1_555
Cu4_2 O4_2 1_555 1_555
Cu8_2 O3_2 1_555 1_555
C5_2 C7_2 1_555 1_555
C8_2 O6_2 1_555 1_555
O4_2 Cu8_2 1_555 1_555
Cu7_2 O12_2 1_555 1_555
C5_2 H2_2 1_555 1_555
O2_2 Cu4_2 1_555 1_555
O7_2 Cu1_2 1_555 1_555
O9_2 Cu1_2 1_555 1_555
Cu5_2 O7_2 1_555 1_555
O7_3 Cu1_3 1_555 1_555
O9_3 Cu1_3 1_555 1_555
Cu5_3 O7_3 1_555 1_555
C1_3 C2_3 1_555 1_555
C2_3 C4_3 1_555 1_555
C3_3 C1_3 1_555 1_555
O1_3 C3_3 1_555 1_555
O3_3 C4_3 1_555 1_555
C5_3 C6_3 1_555 1_555
C6_3 C3_3 1_555 1_555
C7_3 C2_3 1_555 1_555
C8_3 C6_3 1_555 1_555
O4_3 C7_3 1_555 1_555
O5_3 C8_3 1_555 1_555
Cu7_3 O1_3 1_555 1_555
Cu4_3 O4_3 1_555 1_555
Cu8_3 O3_3 1_555 1_555
C5_3 C7_3 1_555 1_555
C8_3 O6_3 1_555 1_555
O4_3 Cu8_3 1_555 1_555
Cu7_3 O12_3 1_555 1_555
C5_3 H2_3 1_555 1_555
O2_3 Cu4_3 1_555 1_555
C1_4 C2_4 1_555 1_555
C2_4 C4_4 1_555 1_555
C3_4 C1_4 1_555 1_555
C4_4 O2_4 1_555 1_555
O7_2 C3_4 1_555 1_555
O3_4 C4_4 1_555 1_555
C5_4 C6_4 1_555 1_555
C6_4 C3_4 1_555 1_555
C7_4 C2_4 1_555 1_555
C8_4 C6_4 1_555 1_555
O4_4 C7_4 1_555 1_555
O11_2 Cu5_2 1_555 1_555
Cu6_3 O4_4 1_555 1_555
Cu8_3 O3_4 1_555 1_555
Cu4_3 O3_4 1_555 1_555
O9_4 Cu5_2 1_555 1_555
C5_4 C7_4 1_555 1_555
C8_4 O11_2 1_555 1_555
O4_4 Cu4_3 1_555 1_555
C1_4 H1_4 1_555 1_555
C1_5 C2_5 1_555 1_555
C2_5 C4_5 1_555 1_555
C3_5 C1_5 1_555 1_555
C4_5 O2_5 1_555 1_555
O7_3 C3_5 1_555 1_555
O3_5 C4_5 1_555 1_555
C5_5 C6_5 1_555 1_555
C6_5 C3_5 1_555 1_555
C7_5 C2_5 1_555 1_555
C8_5 C6_5 1_555 1_555
O4_5 C7_5 1_555 1_555
O11_3 Cu5_3 1_555 1_555
Cu6 O4_5 1_555 1_555
O9_5 Cu5_3 1_555 1_555
C5_5 C7_5 1_555 1_555
C8_5 O11_3 1_555 1_555
C1_5 H1_5 1_555 1_555
C1_6 C2_6 1_555 1_555
C2_6 C4_6 1_555 1_555
C3_6 C1_6 1_555 1_555
C4_6 O2_6 1_555 1_555
O7 C3_6 1_555 1_555
O3_6 C4_6 1_555 1_555
C5_6 C6_6 1_555 1_555
C6_6 C3_6 1_555 1_555
C7_6 C2_6 1_555 1_555
C8_6 C6_6 1_555 1_555
O4_6 C7_6 1_555 1_555
O11 Cu5 1_555 1_555
Cu6_2 O4_6 1_555 1_555
O8 Cu5 1_555 1_555
O9_6 Cu5 1_555 1_555
C5_6 C7_6 1_555 1_555
C8_6 O11 1_555 1_555
C1_6 H1_6 1_555 1_555
C5_7 C6_7 1_555 1_555
C8_7 C6_7 1_555 1_555
O4_7 C7_7 1_555 1_555
O9_5 C8_7 1_555 1_555
C5_7 C7_7 1_555 1_555
C5_7 H2_7 1_555 1_555
Cu6_2 O3_7 1_555 1_555
C1_7 C2_7 1_555 1_555
C2_7 C4_7 1_555 1_555
C3_7 C1_7 1_555 1_555
C4_7 O2_7 1_555 1_555
O8_3 C3_7 1_555 1_555
O2_7 Cu8_2 1_555 1_555
C1_7 H1_7 1_555 1_555
C5_8 C6_8 1_555 1_555
C8_8 C6_8 1_555 1_555
O4_8 C7_8 1_555 1_555
O9_6 C8_8 1_555 1_555
Cu8_3 O4_8 1_555 1_555
C5_8 C7_8 1_555 1_555
C8_8 O12 1_555 1_555
C5_8 H2_8 1_555 1_555
C1_8 C2_8 1_555 1_555
C2_8 C4_8 1_555 1_555
C3_8 C1_8 1_555 1_555
C4_8 O2_8 1_555 1_555
O8 C3_8 1_555 1_555
O2_8 Cu8_3 1_555 1_555
O3_8 C4_8 1_555 1_555
Cu4_3 O3_8 1_555 1_555
Cu6_3 O3_8 1_555 1_555
C1_8 H1_8 1_555 1_555
C1_9 C2_9 1_555 1_555
C2_9 C4_9 1_555 1_555
C3_9 C1_9 1_555 1_555
C4_9 O2_9 1_555 1_555
O8_2 C3_9 1_555 1_555
O2_9 Cu8 1_555 1_555
C1_9 H1_9 1_555 1_555
C5_9 C6_9 1_555 1_555
C8_9 C6_9 1_555 1_555
O4_9 C7_9 1_555 1_555
O9_4 C8_9 1_555 1_555
C5_9 C7_9 1_555 1_555
C5_9 H2_9 1_555 1_555
Cu6 O3_9 1_555 1_555

#END
