
###############################################################################
#
# This file contains modified crystal structure data generated from the
# MOF subset of the Cambridge Structural Database (CSD) v543 
# hosted by the Cambridge Crystallographic Data Centre (CCDC).
#
# This work is licensed under the Creative Commons
# Attribution-NonCommercial-ShareAlike 4.0 International License.
# To view a copy of this license, visit
# http://creativecommons.org/licenses/by-nc-sa/4.0/
# or send a letter to
# Creative Commons, PO Box 1866, Mountain View, CA 94042, USA.
#
# CIF created using the CSD Python API on 29 September 2022
# The structure has been converted into the P1 space group
# The structure has a 3D framework
# The original CSD entry MOMBEY12 is in the rhombohedral crystal system
# The framework has been calculated to contain at least 10.0% void space
# The void calculation uses a probe of radius 1.32A, grid spacing 0.4
# H atom positions have been added when not included in the experimental data
#
###############################################################################

data_MOMBEY12
_chemical_formula_moiety         '(C72 H18 Cu7 O44)n'
_symmetry_cell_setting           triclinic
_symmetry_space_group_name_H-M   'P 1'
_symmetry_Int_Tables_number      1
_space_group_name_Hall           'P 1'
loop_
_symmetry_equiv_pos_site_id
_symmetry_equiv_pos_as_xyz
1 x,y,z
_cell_length_a                   25.9133(5)
_cell_length_b                   25.9133(5)
_cell_length_c                   6.29817(16)
_cell_angle_alpha                90
_cell_angle_beta                 90
_cell_angle_gamma                120
_cell_volume                     3662.61
loop_
_atom_site_label
_atom_site_type_symbol
_atom_site_fract_x
_atom_site_fract_y
_atom_site_fract_z
Cu7 Cu 0.31823(12) 0.37167(9) 0.0080(4)
Cu1 Cu 0.29500(9) 0.27990(8) 0.3413(4)
C1 C 0.1588(7) 0.3155(6) 0.127(3)
C2 C 0.1212(7) 0.3266(7) 0.193(3)
C3 C 0.2078(6) 0.3191(7) 0.261(2)
C4 C 0.0800(7) 0.3249(8) 0.027(3)
O1 O 0.2504(4) 0.3052(4) 0.1766(18)
O3 O 0.0510(4) 0.3551(4) 0.0732(15)
C5 C 0.1745(7) 0.3512(6) 0.540(3)
C6 C 0.2121(7) 0.3401(7) 0.474(3)
C7 C 0.1255(6) 0.3476(7) 0.406(2)
C8 C 0.2533(7) 0.3418(8) 0.640(3)
O4 O 0.0829(4) 0.3615(4) 0.4901(18)
O5 O 0.2669(4) 0.3735(4) 0.7820(18)
O6 O 0.2823(4) 0.3116(4) 0.5935(15)
Cu4 Cu 0.01510(12) 0.29500(9) 0.6587(4)
Cu5 Cu 0.38677(8) 0.34843(12) 0.6746(4)
Cu8 Cu 0.03833(9) 0.38677(8) 0.3254(4)
O7 O 0.3615(4) 0.2785(6) 0.5099(18)
O9 O 0.2932(4) 0.2268(6) 0.1153(18)
O12 O 0.3626(6) 0.3843(4) 0.2601(15)
H2 H 0.17691 0.364393 0.705112
O2 O 0.0664(4) 0.2932(4) 0.8847(18)
O8 O 0.3881(6) 0.4163(4) 0.8433(18)
O11 O 0.3551(4) 0.3041(6) 0.9268(15)
H1 H 0.156423 0.302274 0.961554
Cu6 Cu 0.94657(8) 0.31823(12) 0.9920(4)
Cu6_2 Cu 0.37167(14) 0.05343(8) 0.9920(4)
Cu7_2 Cu 0.05343(15) 0.68177(12) 0.0080(4)
C1_2 C 0.1567(9) 0.8412(7) 0.127(3)
C2_2 C 0.2054(10) 0.8788(7) 0.193(3)
C3_2 C 0.1113(9) 0.7922(6) 0.261(2)
C4_2 C 0.2449(11) 0.9200(7) 0.027(3)
O1_2 O 0.0548(6) 0.7496(4) 0.1766(18)
O3_2 O 0.3041(6) 0.9490(4) 0.0732(15)
C5_2 C 0.1766(9) 0.8255(7) 0.540(3)
C6_2 C 0.1279(10) 0.7879(7) 0.474(3)
C7_2 C 0.2220(9) 0.8745(6) 0.406(2)
C8_2 C 0.0884(11) 0.7467(7) 0.640(3)
O4_2 O 0.2785(6) 0.9171(4) 0.4901(18)
O5_2 O 0.1065(6) 0.7331(4) 0.7820(18)
O6_2 O 0.0292(6) 0.7177(4) 0.5935(15)
Cu4_2 Cu 0.27990(15) 0.98490(12) 0.6587(4)
Cu8_2 Cu 0.34843(12) 0.96167(9) 0.3254(4)
O12_2 O 0.0218(7) 0.6374(6) 0.2601(15)
H2_2 H 0.187482 0.82309 0.705112
O2_2 O 0.2268(6) 0.9336(4) 0.8847(18)
O8_2 O 0.0281(7) 0.6119(6) 0.8433(18)
H1_2 H 0.145851 0.843577 0.961554
Cu1_2 Cu 0.98490(12) 0.70500(9) 0.3413(4)
Cu5_2 Cu 0.96167(14) 0.61323(8) 0.6746(4)
O7_2 O 0.9171(7) 0.6385(4) 0.5099(18)
O9_2 O 0.9336(7) 0.7068(4) 0.1153(18)
O11_2 O 0.9490(7) 0.6449(4) 0.9268(15)
Cu1_3 Cu 0.72010(8) 0.01510(12) 0.3413(4)
Cu5_3 Cu 0.65157(12) 0.03833(14) 0.6746(4)
O7_3 O 0.7215(6) 0.0829(7) 0.5099(18)
O9_3 O 0.7732(6) 0.0664(7) 0.1153(18)
O11_3 O 0.6959(6) 0.0510(7) 0.9268(15)
Cu7_3 Cu 0.62833(9) 0.94657(15) 0.0080(4)
C1_3 C 0.6845(6) 0.8433(9) 0.127(3)
C2_3 C 0.6734(7) 0.7946(10) 0.193(3)
C3_3 C 0.6809(7) 0.8887(9) 0.261(2)
C4_3 C 0.6751(8) 0.7551(11) 0.027(3)
O1_3 O 0.6948(4) 0.9452(6) 0.1766(18)
O3_3 O 0.6449(4) 0.6959(6) 0.0732(15)
C5_3 C 0.6488(6) 0.8234(9) 0.540(3)
C6_3 C 0.6599(7) 0.8721(10) 0.474(3)
C7_3 C 0.6524(7) 0.7780(9) 0.406(2)
C8_3 C 0.6582(8) 0.9116(11) 0.640(3)
O4_3 O 0.6385(4) 0.7215(6) 0.4901(18)
O5_3 O 0.6265(4) 0.8935(6) 0.7820(18)
O6_3 O 0.6884(4) 0.9708(6) 0.5935(15)
Cu4_3 Cu 0.70500(9) 0.72010(15) 0.6587(4)
Cu8_3 Cu 0.61323(8) 0.65157(12) 0.3254(4)
O12_3 O 0.6157(4) 0.9782(7) 0.2601(15)
H2_3 H 0.635607 0.812518 0.705112
O2_3 O 0.7068(4) 0.7732(6) 0.8847(18)
Cu6_3 Cu 0.68177(12) 0.62833(14) 0.9920(4)
O8_3 O 0.5837(4) 0.9719(7) 0.8433(18)
H1_3 H 0.697726 0.854149 0.961554
H2_4 H 0.843577 0.697726 0.0384458
C1_4 C 0.8255(7) 0.6488(6) 0.460(3)
C2_4 C 0.7879(7) 0.6599(7) 0.526(3)
C3_4 C 0.8745(6) 0.6524(7) 0.594(2)
C4_4 C 0.7467(7) 0.6582(8) 0.360(3)
O2_4 O 0.7331(4) 0.6265(4) 0.2180(18)
O3_4 O 0.7177(4) 0.6884(4) 0.4065(15)
C5_4 C 0.8412(7) 0.6845(6) 0.873(3)
C6_4 C 0.8788(7) 0.6734(7) 0.807(3)
C7_4 C 0.7922(6) 0.6809(7) 0.739(2)
C8_4 C 0.9200(7) 0.6751(8) 0.973(3)
O4_4 O 0.7496(4) 0.6948(4) 0.8234(18)
O9_4 O 0.9599(4) 0.5601(6) 0.4486(18)
H1_4 H 0.82309 0.635607 0.294888
H2_5 H 0.854149 0.156423 0.0384458
C1_5 C 0.8234(9) 0.1745(7) 0.460(3)
C2_5 C 0.8721(10) 0.2121(7) 0.526(3)
C3_5 C 0.7780(9) 0.1255(6) 0.594(2)
C4_5 C 0.9116(11) 0.2533(7) 0.360(3)
O2_5 O 0.8935(6) 0.2669(4) 0.2180(18)
O3_5 O 0.9708(6) 0.2823(4) 0.4065(15)
C5_5 C 0.8433(9) 0.1588(7) 0.873(3)
C6_5 C 0.7946(10) 0.1212(7) 0.807(3)
C7_5 C 0.8887(9) 0.2078(6) 0.739(2)
C8_5 C 0.7551(11) 0.0800(7) 0.973(3)
O4_5 O 0.9452(6) 0.2504(4) 0.8234(18)
O9_5 O 0.6003(7) 0.0401(4) 0.4486(18)
H1_5 H 0.812518 0.17691 0.294888
H2_6 H 0.302274 0.145851 0.0384458
C1_6 C 0.3512(6) 0.1766(9) 0.460(3)
C2_6 C 0.3401(7) 0.1279(10) 0.526(3)
C3_6 C 0.3476(7) 0.2220(9) 0.594(2)
C4_6 C 0.3418(8) 0.0884(11) 0.360(3)
O2_6 O 0.3735(4) 0.1065(6) 0.2180(18)
O3_6 O 0.3116(4) 0.0292(6) 0.4065(15)
C5_6 C 0.3155(6) 0.1567(9) 0.873(3)
C6_6 C 0.3266(7) 0.2054(10) 0.807(3)
C7_6 C 0.3191(7) 0.1113(9) 0.739(2)
C8_6 C 0.3249(8) 0.2449(11) 0.973(3)
O4_6 O 0.3052(4) 0.0548(6) 0.8234(18)
O9_6 O 0.4399(6) 0.3997(7) 0.4486(18)
H1_6 H 0.364393 0.187482 0.294888
C5_7 C 0.5079(7) 0.0178(6) 0.206(3)
C6_7 C 0.5455(7) 0.0067(7) 0.140(3)
C7_7 C 0.4589(6) 0.0142(7) 0.072(2)
C8_7 C 0.5867(7) 0.0084(8) 0.306(3)
O4_7 O 0.4163(4) 0.0281(4) 0.1567(18)
H2_7 H 0.510244 0.0310592 0.371779
O3_7 O 0.3843(4) 0.0218(4) 0.7399(15)
C1_7 C 0.4921(7) 0.9822(6) 0.794(3)
C2_7 C 0.4545(7) 0.9933(7) 0.860(3)
C3_7 C 0.5411(6) 0.9858(7) 0.928(2)
C4_7 C 0.4133(7) 0.9916(8) 0.694(3)
O2_7 O 0.3997(4) 0.9599(4) 0.5514(18)
H1_7 H 0.489756 0.968941 0.628221
C5_8 C 0.5100(9) 0.4921(7) 0.206(3)
C6_8 C 0.4613(10) 0.4545(7) 0.140(3)
C7_8 C 0.5554(9) 0.5411(6) 0.072(2)
C8_8 C 0.4218(11) 0.4133(7) 0.306(3)
O4_8 O 0.6119(6) 0.5837(4) 0.1567(18)
H2_8 H 0.520816 0.489756 0.371779
C1_8 C 0.4900(9) 0.5079(7) 0.794(3)
C2_8 C 0.5387(10) 0.5455(7) 0.860(3)
C3_8 C 0.4446(9) 0.4589(6) 0.928(2)
C4_8 C 0.5782(11) 0.5867(7) 0.694(3)
O2_8 O 0.5601(6) 0.6003(4) 0.5514(18)
O3_8 O 0.6374(6) 0.6157(4) 0.7399(15)
H1_8 H 0.479184 0.510244 0.628221
C1_9 C 0.0178(6) 0.5100(9) 0.794(3)
C2_9 C 0.0067(7) 0.4613(10) 0.860(3)
C3_9 C 0.0142(7) 0.5554(9) 0.928(2)
C4_9 C 0.0084(8) 0.4218(11) 0.694(3)
O2_9 O 0.0401(4) 0.4399(6) 0.5514(18)
H1_9 H 0.0310592 0.520816 0.628221
C5_9 C 0.9822(6) 0.4900(9) 0.206(3)
C6_9 C 0.9933(7) 0.5387(10) 0.140(3)
C7_9 C 0.9858(7) 0.4446(9) 0.072(2)
C8_9 C 0.9916(8) 0.5782(11) 0.306(3)
O4_9 O 0.9719(4) 0.3881(6) 0.1567(18)
H2_9 H 0.968941 0.479184 0.371779
O3_9 O 0.9782(4) 0.3626(6) 0.7399(15)
loop_
_geom_bond_atom_site_label_1
_geom_bond_atom_site_label_2
_geom_bond_site_symmetry_1
_geom_bond_site_symmetry_2
Cu1 O1 1_555 1_555
C1 C2 1_555 1_555
C2 C4 1_555 1_555
C3 C1 1_555 1_555
O1 C3 1_555 1_555
O3 C4 1_555 1_555
C5 C6 1_555 1_555
C6 C3 1_555 1_555
C7 C2 1_555 1_555
C8 C6 1_555 1_555
O4 C7 1_555 1_555
O5 C8 1_555 1_555
O6 Cu1 1_555 1_555
Cu7 O1 1_555 1_555
Cu4 O4 1_555 1_555
Cu5 O6 1_555 1_555
Cu8 O3 1_555 1_555
O7 Cu1 1_555 1_555
O9 Cu1 1_555 1_555
O12 Cu1 1_555 1_555
C5 C7 1_555 1_555
C8 O6 1_555 1_555
O4 Cu8 1_555 1_555
Cu7 O12 1_555 1_555
Cu5 O7 1_555 1_555
C5 H2 1_555 1_555
O2 Cu4 1_555 1_555
C1_2 C2_2 1_555 1_555
C2_2 C4_2 1_555 1_555
C3_2 C1_2 1_555 1_555
O1_2 C3_2 1_555 1_555
O3_2 C4_2 1_555 1_555
C5_2 C6_2 1_555 1_555
C6_2 C3_2 1_555 1_555
C7_2 C2_2 1_555 1_555
C8_2 C6_2 1_555 1_555
O4_2 C7_2 1_555 1_555
O5_2 C8_2 1_555 1_555
Cu7_2 O1_2 1_555 1_555
Cu4_2 O4_2 1_555 1_555
Cu8_2 O3_2 1_555 1_555
C5_2 C7_2 1_555 1_555
C8_2 O6_2 1_555 1_555
O4_2 Cu8_2 1_555 1_555
Cu7_2 O12_2 1_555 1_555
C5_2 H2_2 1_555 1_555
O2_2 Cu4_2 1_555 1_555
O7_2 Cu1_2 1_555 1_555
O9_2 Cu1_2 1_555 1_555
Cu5_2 O7_2 1_555 1_555
O7_3 Cu1_3 1_555 1_555
O9_3 Cu1_3 1_555 1_555
Cu5_3 O7_3 1_555 1_555
C1_3 C2_3 1_555 1_555
C2_3 C4_3 1_555 1_555
C3_3 C1_3 1_555 1_555
O1_3 C3_3 1_555 1_555
O3_3 C4_3 1_555 1_555
C5_3 C6_3 1_555 1_555
C6_3 C3_3 1_555 1_555
C7_3 C2_3 1_555 1_555
C8_3 C6_3 1_555 1_555
O4_3 C7_3 1_555 1_555
O5_3 C8_3 1_555 1_555
Cu7_3 O1_3 1_555 1_555
Cu4_3 O4_3 1_555 1_555
Cu8_3 O3_3 1_555 1_555
C5_3 C7_3 1_555 1_555
C8_3 O6_3 1_555 1_555
O4_3 Cu8_3 1_555 1_555
Cu7_3 O12_3 1_555 1_555
C5_3 H2_3 1_555 1_555
O2_3 Cu4_3 1_555 1_555
C1_4 C2_4 1_555 1_555
C2_4 C4_4 1_555 1_555
C3_4 C1_4 1_555 1_555
C4_4 O2_4 1_555 1_555
O7_2 C3_4 1_555 1_555
O3_4 C4_4 1_555 1_555
C5_4 C6_4 1_555 1_555
C6_4 C3_4 1_555 1_555
C7_4 C2_4 1_555 1_555
C8_4 C6_4 1_555 1_555
O4_4 C7_4 1_555 1_555
O11_2 Cu5_2 1_555 1_555
Cu6_3 O4_4 1_555 1_555
Cu8_3 O3_4 1_555 1_555
Cu4_3 O3_4 1_555 1_555
O9_4 Cu5_2 1_555 1_555
C5_4 C7_4 1_555 1_555
C8_4 O11_2 1_555 1_555
O4_4 Cu4_3 1_555 1_555
C1_4 H1_4 1_555 1_555
C1_5 C2_5 1_555 1_555
C2_5 C4_5 1_555 1_555
C3_5 C1_5 1_555 1_555
C4_5 O2_5 1_555 1_555
O7_3 C3_5 1_555 1_555
O3_5 C4_5 1_555 1_555
C5_5 C6_5 1_555 1_555
C6_5 C3_5 1_555 1_555
C7_5 C2_5 1_555 1_555
C8_5 C6_5 1_555 1_555
O4_5 C7_5 1_555 1_555
O11_3 Cu5_3 1_555 1_555
Cu6 O4_5 1_555 1_555
O9_5 Cu5_3 1_555 1_555
C5_5 C7_5 1_555 1_555
C8_5 O11_3 1_555 1_555
C1_5 H1_5 1_555 1_555
C1_6 C2_6 1_555 1_555
C2_6 C4_6 1_555 1_555
C3_6 C1_6 1_555 1_555
C4_6 O2_6 1_555 1_555
O7 C3_6 1_555 1_555
O3_6 C4_6 1_555 1_555
C5_6 C6_6 1_555 1_555
C6_6 C3_6 1_555 1_555
C7_6 C2_6 1_555 1_555
C8_6 C6_6 1_555 1_555
O4_6 C7_6 1_555 1_555
O11 Cu5 1_555 1_555
Cu6_2 O4_6 1_555 1_555
O8 Cu5 1_555 1_555
O9_6 Cu5 1_555 1_555
C5_6 C7_6 1_555 1_555
C8_6 O11 1_555 1_555
C1_6 H1_6 1_555 1_555
C5_7 C6_7 1_555 1_555
C8_7 C6_7 1_555 1_555
O4_7 C7_7 1_555 1_555
O9_5 C8_7 1_555 1_555
C5_7 C7_7 1_555 1_555
C5_7 H2_7 1_555 1_555
Cu6_2 O3_7 1_555 1_555
C1_7 C2_7 1_555 1_555
C2_7 C4_7 1_555 1_555
C3_7 C1_7 1_555 1_555
C4_7 O2_7 1_555 1_555
O8_3 C3_7 1_555 1_555
O2_7 Cu8_2 1_555 1_555
C1_7 H1_7 1_555 1_555
C5_8 C6_8 1_555 1_555
C8_8 C6_8 1_555 1_555
O4_8 C7_8 1_555 1_555
O9_6 C8_8 1_555 1_555
Cu8_3 O4_8 1_555 1_555
C5_8 C7_8 1_555 1_555
C8_8 O12 1_555 1_555
C5_8 H2_8 1_555 1_555
C1_8 C2_8 1_555 1_555
C2_8 C4_8 1_555 1_555
C3_8 C1_8 1_555 1_555
C4_8 O2_8 1_555 1_555
O8 C3_8 1_555 1_555
O2_8 Cu8_3 1_555 1_555
O3_8 C4_8 1_555 1_555
Cu4_3 O3_8 1_555 1_555
Cu6_3 O3_8 1_555 1_555
C1_8 H1_8 1_555 1_555
C1_9 C2_9 1_555 1_555
C2_9 C4_9 1_555 1_555
C3_9 C1_9 1_555 1_555
C4_9 O2_9 1_555 1_555
O8_2 C3_9 1_555 1_555
O2_9 Cu8 1_555 1_555
C1_9 H1_9 1_555 1_555
C5_9 C6_9 1_555 1_555
C8_9 C6_9 1_555 1_555
O4_9 C7_9 1_555 1_555
O9_4 C8_9 1_555 1_555
C5_9 C7_9 1_555 1_555
C5_9 H2_9 1_555 1_555
Cu6 O3_9 1_555 1_555

#END
