
###############################################################################
#
# This file contains modified crystal structure data generated from the
# MOF subset of the Cambridge Structural Database (CSD) v543 
# hosted by the Cambridge Crystallographic Data Centre (CCDC).
#
# This work is licensed under the Creative Commons
# Attribution-NonCommercial-ShareAlike 4.0 International License.
# To view a copy of this license, visit
# http://creativecommons.org/licenses/by-nc-sa/4.0/
# or send a letter to
# Creative Commons, PO Box 1866, Mountain View, CA 94042, USA.
#
# CIF created using the CSD Python API on 29 September 2022
# The structure has been converted into the P1 space group
# The structure has a 3D framework
# The original CSD entry MOMBEY21 is in the rhombohedral crystal system
# The framework has been calculated to contain at least 10.0% void space
# The void calculation uses a probe of radius 1.32A, grid spacing 0.4
# H atom positions have been added when not included in the experimental data
#
###############################################################################

data_MOMBEY21
_chemical_formula_moiety         '(C72 H18 Cu7 O44)n'
_symmetry_cell_setting           triclinic
_symmetry_space_group_name_H-M   'P 1'
_symmetry_Int_Tables_number      1
_space_group_name_Hall           'P 1'
loop_
_symmetry_equiv_pos_site_id
_symmetry_equiv_pos_as_xyz
1 x,y,z
_cell_length_a                   25.9159(5)
_cell_length_b                   25.9159(5)
_cell_length_c                   6.29397(13)
_cell_angle_alpha                90
_cell_angle_beta                 90
_cell_angle_gamma                120
_cell_volume                     3660.9
loop_
_atom_site_label
_atom_site_type_symbol
_atom_site_fract_x
_atom_site_fract_y
_atom_site_fract_z
Cu7 Cu 0.31820(11) 0.37163(8) 0.0079(4)
Cu1 Cu 0.29504(8) 0.27991(8) 0.3412(4)
C1 C 0.1589(7) 0.3154(5) 0.127(2)
C2 C 0.1212(7) 0.3265(7) 0.193(3)
C3 C 0.2078(6) 0.3192(7) 0.262(2)
C4 C 0.0799(6) 0.3248(8) 0.026(2)
O1 O 0.2505(4) 0.3053(4) 0.1783(17)
O3 O 0.0509(4) 0.3550(3) 0.0729(13)
C5 C 0.1744(7) 0.3513(5) 0.540(2)
C6 C 0.2121(7) 0.3402(7) 0.474(3)
C7 C 0.1255(6) 0.3475(7) 0.405(2)
C8 C 0.2534(6) 0.3419(8) 0.641(2)
O4 O 0.0828(4) 0.3614(4) 0.4884(17)
O5 O 0.2670(4) 0.3738(4) 0.7838(16)
O6 O 0.2824(4) 0.3117(3) 0.5938(13)
Cu4 Cu 0.01513(11) 0.29504(8) 0.6588(4)
Cu5 Cu 0.38676(8) 0.34846(11) 0.6745(4)
Cu8 Cu 0.03829(8) 0.38676(8) 0.3255(4)
O7 O 0.3614(4) 0.2785(6) 0.5116(17)
O9 O 0.2929(4) 0.2266(6) 0.1171(16)
O12 O 0.3626(5) 0.3842(4) 0.2604(13)
H2 H 0.176715 0.364569 0.705084
O2 O 0.0663(4) 0.2929(4) 0.8829(16)
O8 O 0.3881(6) 0.4162(4) 0.8450(17)
O11 O 0.3550(3) 0.3041(5) 0.9271(13)
H1 H 0.156619 0.302097 0.961583
Cu6 Cu 0.94658(8) 0.31820(11) 0.9921(4)
Cu6_2 Cu 0.37163(14) 0.05342(8) 0.9921(4)
Cu7_2 Cu 0.05342(14) 0.68180(11) 0.0079(4)
C1_2 C 0.1565(9) 0.8411(7) 0.127(2)
C2_2 C 0.2053(10) 0.8788(7) 0.193(3)
C3_2 C 0.1114(9) 0.7922(6) 0.262(2)
C4_2 C 0.2449(10) 0.9201(6) 0.026(2)
O1_2 O 0.0548(6) 0.7495(4) 0.1783(17)
O3_2 O 0.3041(5) 0.9491(4) 0.0729(13)
C5_2 C 0.1768(9) 0.8256(7) 0.540(2)
C6_2 C 0.1280(10) 0.7879(7) 0.474(3)
C7_2 C 0.2219(9) 0.8745(6) 0.405(2)
C8_2 C 0.0884(10) 0.7466(6) 0.641(2)
O4_2 O 0.2785(6) 0.9172(4) 0.4884(17)
O5_2 O 0.1067(6) 0.7330(4) 0.7838(16)
O6_2 O 0.0292(5) 0.7176(4) 0.5938(13)
Cu4_2 Cu 0.27991(14) 0.98487(11) 0.6588(4)
Cu8_2 Cu 0.34846(11) 0.96171(8) 0.3255(4)
O12_2 O 0.0217(6) 0.6374(5) 0.2604(13)
H2_2 H 0.187855 0.823285 0.705084
O2_2 O 0.2266(6) 0.9337(4) 0.8829(16)
O8_2 O 0.0280(7) 0.6119(6) 0.8450(17)
H1_2 H 0.145479 0.843381 0.961583
Cu1_2 Cu 0.98487(11) 0.70496(8) 0.3412(4)
Cu5_2 Cu 0.96171(14) 0.61324(8) 0.6745(4)
O7_2 O 0.9172(7) 0.6386(4) 0.5116(17)
O9_2 O 0.9337(7) 0.7071(4) 0.1171(16)
O11_2 O 0.9491(6) 0.6450(3) 0.9271(13)
Cu1_3 Cu 0.72009(8) 0.01513(11) 0.3412(4)
Cu5_3 Cu 0.65154(11) 0.03829(14) 0.6745(4)
O7_3 O 0.7215(6) 0.0828(7) 0.5116(17)
O9_3 O 0.7734(6) 0.0663(7) 0.1171(16)
O11_3 O 0.6959(5) 0.0509(6) 0.9271(13)
Cu7_3 Cu 0.62837(8) 0.94658(14) 0.0079(4)
C1_3 C 0.6846(5) 0.8435(9) 0.127(2)
C2_3 C 0.6735(7) 0.7947(10) 0.193(3)
C3_3 C 0.6808(7) 0.8886(9) 0.262(2)
C4_3 C 0.6752(8) 0.7551(10) 0.026(2)
O1_3 O 0.6947(4) 0.9452(6) 0.1783(17)
O3_3 O 0.6450(3) 0.6959(5) 0.0729(13)
C5_3 C 0.6487(5) 0.8232(9) 0.540(2)
C6_3 C 0.6598(7) 0.8720(10) 0.474(3)
C7_3 C 0.6525(7) 0.7781(9) 0.405(2)
C8_3 C 0.6581(8) 0.9116(10) 0.641(2)
O4_3 O 0.6386(4) 0.7215(6) 0.4884(17)
O5_3 O 0.6262(4) 0.8933(6) 0.7838(16)
O6_3 O 0.6883(3) 0.9708(5) 0.5938(13)
Cu4_3 Cu 0.70496(8) 0.72009(14) 0.6588(4)
Cu8_3 Cu 0.61324(8) 0.65154(11) 0.3255(4)
O12_3 O 0.6158(4) 0.9783(6) 0.2604(13)
H2_3 H 0.635431 0.812145 0.705084
O2_3 O 0.7071(4) 0.7734(6) 0.8829(16)
Cu6_3 Cu 0.68180(11) 0.62837(14) 0.9921(4)
O8_3 O 0.5838(4) 0.9720(7) 0.8450(17)
H1_3 H 0.697903 0.854521 0.961583
H2_4 H 0.843381 0.697903 0.0384172
C1_4 C 0.8256(7) 0.6487(5) 0.460(2)
C2_4 C 0.7879(7) 0.6598(7) 0.526(3)
C3_4 C 0.8745(6) 0.6525(7) 0.595(2)
C4_4 C 0.7466(6) 0.6581(8) 0.359(2)
O2_4 O 0.7330(4) 0.6262(4) 0.2162(16)
O3_4 O 0.7176(4) 0.6883(3) 0.4062(13)
C5_4 C 0.8411(7) 0.6846(5) 0.873(2)
C6_4 C 0.8788(7) 0.6735(7) 0.807(3)
C7_4 C 0.7922(6) 0.6808(7) 0.738(2)
C8_4 C 0.9201(6) 0.6752(8) 0.974(2)
O4_4 O 0.7495(4) 0.6947(4) 0.8217(17)
O9_4 O 0.9596(4) 0.5599(6) 0.4504(16)
H1_4 H 0.823285 0.635431 0.294916
H2_5 H 0.854521 0.156619 0.0384172
C1_5 C 0.8232(9) 0.1744(7) 0.460(2)
C2_5 C 0.8720(10) 0.2121(7) 0.526(3)
C3_5 C 0.7781(9) 0.1255(6) 0.595(2)
C4_5 C 0.9116(10) 0.2534(6) 0.359(2)
O2_5 O 0.8933(6) 0.2670(4) 0.2162(16)
O3_5 O 0.9708(5) 0.2824(4) 0.4062(13)
C5_5 C 0.8435(9) 0.1589(7) 0.873(2)
C6_5 C 0.7947(10) 0.1212(7) 0.807(3)
C7_5 C 0.8886(9) 0.2078(6) 0.738(2)
C8_5 C 0.7551(10) 0.0799(6) 0.974(2)
O4_5 O 0.9452(6) 0.2505(4) 0.8217(17)
O9_5 O 0.6004(7) 0.0404(4) 0.4504(16)
H1_5 H 0.812145 0.176715 0.294916
H2_6 H 0.302097 0.145479 0.0384172
C1_6 C 0.3513(5) 0.1768(9) 0.460(2)
C2_6 C 0.3402(7) 0.1280(10) 0.526(3)
C3_6 C 0.3475(7) 0.2219(9) 0.595(2)
C4_6 C 0.3419(8) 0.0884(10) 0.359(2)
O2_6 O 0.3738(4) 0.1067(6) 0.2162(16)
O3_6 O 0.3117(3) 0.0292(5) 0.4062(13)
C5_6 C 0.3154(5) 0.1565(9) 0.873(2)
C6_6 C 0.3265(7) 0.2053(10) 0.807(3)
C7_6 C 0.3192(7) 0.1114(9) 0.738(2)
C8_6 C 0.3248(8) 0.2449(10) 0.974(2)
O4_6 O 0.3053(4) 0.0548(6) 0.8217(17)
O9_6 O 0.4401(6) 0.3996(7) 0.4504(16)
H1_6 H 0.364569 0.187855 0.294916
C5_7 C 0.5078(7) 0.0179(5) 0.206(2)
C6_7 C 0.5455(7) 0.0068(7) 0.140(3)
C7_7 C 0.4589(6) 0.0141(7) 0.071(2)
C8_7 C 0.5868(6) 0.0085(8) 0.307(2)
O4_7 O 0.4162(4) 0.0280(4) 0.1550(17)
H2_7 H 0.510048 0.0312361 0.371751
O3_7 O 0.3842(4) 0.0217(3) 0.7396(13)
C1_7 C 0.4922(7) 0.9821(5) 0.794(2)
C2_7 C 0.4545(7) 0.9932(7) 0.860(3)
C3_7 C 0.5411(6) 0.9859(7) 0.929(2)
C4_7 C 0.4132(6) 0.9915(8) 0.693(2)
O2_7 O 0.3996(4) 0.9596(4) 0.5496(16)
H1_7 H 0.489952 0.968764 0.628249
C5_8 C 0.5102(9) 0.4922(7) 0.206(2)
C6_8 C 0.4614(10) 0.4545(7) 0.140(3)
C7_8 C 0.5553(9) 0.5411(6) 0.071(2)
C8_8 C 0.4218(10) 0.4132(6) 0.307(2)
O4_8 O 0.6119(6) 0.5838(4) 0.1550(17)
H2_8 H 0.521188 0.489952 0.371751
C1_8 C 0.4898(9) 0.5078(7) 0.794(2)
C2_8 C 0.5386(10) 0.5455(7) 0.860(3)
C3_8 C 0.4447(9) 0.4589(6) 0.929(2)
C4_8 C 0.5782(10) 0.5868(6) 0.693(2)
O2_8 O 0.5599(6) 0.6004(4) 0.5496(16)
O3_8 O 0.6374(5) 0.6158(4) 0.7396(13)
H1_8 H 0.478812 0.510048 0.628249
C1_9 C 0.0179(5) 0.5102(9) 0.794(2)
C2_9 C 0.0068(7) 0.4614(10) 0.860(3)
C3_9 C 0.0141(7) 0.5553(9) 0.929(2)
C4_9 C 0.0085(8) 0.4218(10) 0.693(2)
O2_9 O 0.0404(4) 0.4401(6) 0.5496(16)
H1_9 H 0.0312361 0.521188 0.628249
C5_9 C 0.9821(5) 0.4898(9) 0.206(2)
C6_9 C 0.9932(7) 0.5386(10) 0.140(3)
C7_9 C 0.9859(7) 0.4447(9) 0.071(2)
C8_9 C 0.9915(8) 0.5782(10) 0.307(2)
O4_9 O 0.9720(4) 0.3881(6) 0.1550(17)
H2_9 H 0.968764 0.478812 0.371751
O3_9 O 0.9783(3) 0.3626(5) 0.7396(13)
loop_
_geom_bond_atom_site_label_1
_geom_bond_atom_site_label_2
_geom_bond_site_symmetry_1
_geom_bond_site_symmetry_2
Cu1 O1 1_555 1_555
C1 C2 1_555 1_555
C2 C4 1_555 1_555
C3 C1 1_555 1_555
O1 C3 1_555 1_555
O3 C4 1_555 1_555
C5 C6 1_555 1_555
C6 C3 1_555 1_555
C7 C2 1_555 1_555
C8 C6 1_555 1_555
O4 C7 1_555 1_555
O5 C8 1_555 1_555
O6 Cu1 1_555 1_555
Cu7 O1 1_555 1_555
Cu4 O4 1_555 1_555
Cu5 O6 1_555 1_555
Cu8 O3 1_555 1_555
O7 Cu1 1_555 1_555
O9 Cu1 1_555 1_555
O12 Cu1 1_555 1_555
C5 C7 1_555 1_555
C8 O6 1_555 1_555
O4 Cu8 1_555 1_555
Cu7 O12 1_555 1_555
Cu5 O7 1_555 1_555
C5 H2 1_555 1_555
O2 Cu4 1_555 1_555
C1_2 C2_2 1_555 1_555
C2_2 C4_2 1_555 1_555
C3_2 C1_2 1_555 1_555
O1_2 C3_2 1_555 1_555
O3_2 C4_2 1_555 1_555
C5_2 C6_2 1_555 1_555
C6_2 C3_2 1_555 1_555
C7_2 C2_2 1_555 1_555
C8_2 C6_2 1_555 1_555
O4_2 C7_2 1_555 1_555
O5_2 C8_2 1_555 1_555
Cu7_2 O1_2 1_555 1_555
Cu4_2 O4_2 1_555 1_555
Cu8_2 O3_2 1_555 1_555
C5_2 C7_2 1_555 1_555
C8_2 O6_2 1_555 1_555
O4_2 Cu8_2 1_555 1_555
Cu7_2 O12_2 1_555 1_555
C5_2 H2_2 1_555 1_555
O2_2 Cu4_2 1_555 1_555
O7_2 Cu1_2 1_555 1_555
O9_2 Cu1_2 1_555 1_555
Cu5_2 O7_2 1_555 1_555
O7_3 Cu1_3 1_555 1_555
O9_3 Cu1_3 1_555 1_555
Cu5_3 O7_3 1_555 1_555
C1_3 C2_3 1_555 1_555
C2_3 C4_3 1_555 1_555
C3_3 C1_3 1_555 1_555
O1_3 C3_3 1_555 1_555
O3_3 C4_3 1_555 1_555
C5_3 C6_3 1_555 1_555
C6_3 C3_3 1_555 1_555
C7_3 C2_3 1_555 1_555
C8_3 C6_3 1_555 1_555
O4_3 C7_3 1_555 1_555
O5_3 C8_3 1_555 1_555
Cu7_3 O1_3 1_555 1_555
Cu4_3 O4_3 1_555 1_555
Cu8_3 O3_3 1_555 1_555
C5_3 C7_3 1_555 1_555
C8_3 O6_3 1_555 1_555
O4_3 Cu8_3 1_555 1_555
Cu7_3 O12_3 1_555 1_555
C5_3 H2_3 1_555 1_555
O2_3 Cu4_3 1_555 1_555
C1_4 C2_4 1_555 1_555
C2_4 C4_4 1_555 1_555
C3_4 C1_4 1_555 1_555
C4_4 O2_4 1_555 1_555
O7_2 C3_4 1_555 1_555
O3_4 C4_4 1_555 1_555
C5_4 C6_4 1_555 1_555
C6_4 C3_4 1_555 1_555
C7_4 C2_4 1_555 1_555
C8_4 C6_4 1_555 1_555
O4_4 C7_4 1_555 1_555
O11_2 Cu5_2 1_555 1_555
Cu6_3 O4_4 1_555 1_555
Cu8_3 O3_4 1_555 1_555
Cu4_3 O3_4 1_555 1_555
O9_4 Cu5_2 1_555 1_555
C5_4 C7_4 1_555 1_555
C8_4 O11_2 1_555 1_555
O4_4 Cu4_3 1_555 1_555
C1_4 H1_4 1_555 1_555
C1_5 C2_5 1_555 1_555
C2_5 C4_5 1_555 1_555
C3_5 C1_5 1_555 1_555
C4_5 O2_5 1_555 1_555
O7_3 C3_5 1_555 1_555
O3_5 C4_5 1_555 1_555
C5_5 C6_5 1_555 1_555
C6_5 C3_5 1_555 1_555
C7_5 C2_5 1_555 1_555
C8_5 C6_5 1_555 1_555
O4_5 C7_5 1_555 1_555
O11_3 Cu5_3 1_555 1_555
Cu6 O4_5 1_555 1_555
O9_5 Cu5_3 1_555 1_555
C5_5 C7_5 1_555 1_555
C8_5 O11_3 1_555 1_555
C1_5 H1_5 1_555 1_555
C1_6 C2_6 1_555 1_555
C2_6 C4_6 1_555 1_555
C3_6 C1_6 1_555 1_555
C4_6 O2_6 1_555 1_555
O7 C3_6 1_555 1_555
O3_6 C4_6 1_555 1_555
C5_6 C6_6 1_555 1_555
C6_6 C3_6 1_555 1_555
C7_6 C2_6 1_555 1_555
C8_6 C6_6 1_555 1_555
O4_6 C7_6 1_555 1_555
O11 Cu5 1_555 1_555
Cu6_2 O4_6 1_555 1_555
O8 Cu5 1_555 1_555
O9_6 Cu5 1_555 1_555
C5_6 C7_6 1_555 1_555
C8_6 O11 1_555 1_555
C1_6 H1_6 1_555 1_555
C5_7 C6_7 1_555 1_555
C8_7 C6_7 1_555 1_555
O4_7 C7_7 1_555 1_555
O9_5 C8_7 1_555 1_555
C5_7 C7_7 1_555 1_555
C5_7 H2_7 1_555 1_555
Cu6_2 O3_7 1_555 1_555
C1_7 C2_7 1_555 1_555
C2_7 C4_7 1_555 1_555
C3_7 C1_7 1_555 1_555
C4_7 O2_7 1_555 1_555
O8_3 C3_7 1_555 1_555
O2_7 Cu8_2 1_555 1_555
C1_7 H1_7 1_555 1_555
C5_8 C6_8 1_555 1_555
C8_8 C6_8 1_555 1_555
O4_8 C7_8 1_555 1_555
O9_6 C8_8 1_555 1_555
Cu8_3 O4_8 1_555 1_555
C5_8 C7_8 1_555 1_555
C8_8 O12 1_555 1_555
C5_8 H2_8 1_555 1_555
C1_8 C2_8 1_555 1_555
C2_8 C4_8 1_555 1_555
C3_8 C1_8 1_555 1_555
C4_8 O2_8 1_555 1_555
O8 C3_8 1_555 1_555
O2_8 Cu8_3 1_555 1_555
O3_8 C4_8 1_555 1_555
Cu4_3 O3_8 1_555 1_555
Cu6_3 O3_8 1_555 1_555
C1_8 H1_8 1_555 1_555
C1_9 C2_9 1_555 1_555
C2_9 C4_9 1_555 1_555
C3_9 C1_9 1_555 1_555
C4_9 O2_9 1_555 1_555
O8_2 C3_9 1_555 1_555
O2_9 Cu8 1_555 1_555
C1_9 H1_9 1_555 1_555
C5_9 C6_9 1_555 1_555
C8_9 C6_9 1_555 1_555
O4_9 C7_9 1_555 1_555
O9_4 C8_9 1_555 1_555
C5_9 C7_9 1_555 1_555
C5_9 H2_9 1_555 1_555
Cu6 O3_9 1_555 1_555

#END
