
###############################################################################
#
# This file contains modified crystal structure data generated from the
# MOF subset of the Cambridge Structural Database (CSD) v543 
# hosted by the Cambridge Crystallographic Data Centre (CCDC).
#
# This work is licensed under the Creative Commons
# Attribution-NonCommercial-ShareAlike 4.0 International License.
# To view a copy of this license, visit
# http://creativecommons.org/licenses/by-nc-sa/4.0/
# or send a letter to
# Creative Commons, PO Box 1866, Mountain View, CA 94042, USA.
#
# CIF created using the CSD Python API on 29 September 2022
# The structure has been converted into the P1 space group
# The structure has a 3D framework
# The original CSD entry MOMBEY31 is in the rhombohedral crystal system
# The framework has been calculated to contain at least 10.0% void space
# The void calculation uses a probe of radius 1.32A, grid spacing 0.4
# H atom positions have been added when not included in the experimental data
#
###############################################################################

data_MOMBEY31
_chemical_formula_moiety         '(C72 H18 Cu7 O44)n'
_symmetry_cell_setting           triclinic
_symmetry_space_group_name_H-M   'P 1'
_symmetry_Int_Tables_number      1
_space_group_name_Hall           'P 1'
loop_
_symmetry_equiv_pos_site_id
_symmetry_equiv_pos_as_xyz
1 x,y,z
_cell_length_a                   25.9182(4)
_cell_length_b                   25.9182(4)
_cell_length_c                   6.28917(11)
_cell_angle_alpha                90
_cell_angle_beta                 90
_cell_angle_gamma                120
_cell_volume                     3658.76
loop_
_atom_site_label
_atom_site_type_symbol
_atom_site_fract_x
_atom_site_fract_y
_atom_site_fract_z
Cu7 Cu 0.31822(10) 0.37162(7) 0.0080(3)
Cu1 Cu 0.29505(7) 0.27994(7) 0.3413(3)
C1 C 0.1590(6) 0.3152(5) 0.127(2)
C2 C 0.1211(6) 0.3263(6) 0.194(2)
C3 C 0.2080(5) 0.3194(6) 0.262(2)
C4 C 0.0798(6) 0.3246(7) 0.026(2)
O1 O 0.2506(3) 0.3054(3) 0.1788(16)
O3 O 0.0511(3) 0.3550(3) 0.0720(12)
C5 C 0.1743(6) 0.3515(5) 0.540(2)
C6 C 0.2122(6) 0.3404(6) 0.473(2)
C7 C 0.1253(5) 0.3473(6) 0.405(2)
C8 C 0.2535(6) 0.3421(7) 0.641(2)
O4 O 0.0827(3) 0.3613(3) 0.4879(16)
O5 O 0.2670(4) 0.3740(3) 0.7841(15)
O6 O 0.2822(3) 0.3117(3) 0.5947(12)
Cu4 Cu 0.01511(10) 0.29505(7) 0.6587(3)
Cu5 Cu 0.38673(7) 0.34844(10) 0.6746(3)
Cu8 Cu 0.03828(7) 0.38673(7) 0.3254(3)
O7 O 0.3613(3) 0.2785(4) 0.5121(16)
O9 O 0.2927(3) 0.2264(5) 0.1174(15)
O12 O 0.3628(4) 0.3844(3) 0.2613(12)
H2 H 0.176739 0.364959 0.705026
O2 O 0.0663(4) 0.2927(3) 0.8826(15)
O8 O 0.3881(4) 0.4161(3) 0.8455(16)
O11 O 0.3550(3) 0.3039(4) 0.9280(12)
H1 H 0.156594 0.301707 0.961641
Cu6 Cu 0.94661(7) 0.31822(10) 0.9920(3)
Cu6_2 Cu 0.37162(12) 0.05339(7) 0.9920(3)
Cu7_2 Cu 0.05339(12) 0.68178(10) 0.0080(3)
C1_2 C 0.1562(8) 0.8410(6) 0.127(2)
C2_2 C 0.2052(8) 0.8789(6) 0.194(2)
C3_2 C 0.1114(8) 0.7920(5) 0.262(2)
C4_2 C 0.2448(9) 0.9202(6) 0.026(2)
O1_2 O 0.0548(4) 0.7494(3) 0.1788(16)
O3_2 O 0.3039(4) 0.9489(3) 0.0720(12)
C5_2 C 0.1771(8) 0.8257(6) 0.540(2)
C6_2 C 0.1281(8) 0.7878(6) 0.473(2)
C7_2 C 0.2219(8) 0.8747(5) 0.405(2)
C8_2 C 0.0885(9) 0.7465(6) 0.641(2)
O4_2 O 0.2785(4) 0.9173(3) 0.4879(16)
O5_2 O 0.1069(5) 0.7330(4) 0.7841(15)
O6_2 O 0.0294(4) 0.7178(3) 0.5947(12)
Cu4_2 Cu 0.27994(12) 0.98489(10) 0.6587(3)
Cu8_2 Cu 0.34844(10) 0.96172(7) 0.3254(3)
O12_2 O 0.0217(5) 0.6372(4) 0.2613(12)
H2_2 H 0.18822 0.823261 0.705026
O2_2 O 0.2264(5) 0.9337(4) 0.8826(15)
O8_2 O 0.0279(5) 0.6119(4) 0.8455(16)
H1_2 H 0.145113 0.843406 0.961641
Cu1_2 Cu 0.98489(10) 0.70495(7) 0.3413(3)
Cu5_2 Cu 0.96172(12) 0.61327(7) 0.6746(3)
O7_2 O 0.9173(5) 0.6387(3) 0.5121(16)
O9_2 O 0.9337(6) 0.7073(3) 0.1174(15)
O11_2 O 0.9489(5) 0.6450(3) 0.9280(12)
Cu1_3 Cu 0.72006(7) 0.01511(10) 0.3413(3)
Cu5_3 Cu 0.65156(10) 0.03828(12) 0.6746(3)
O7_3 O 0.7215(4) 0.0827(5) 0.5121(16)
O9_3 O 0.7736(5) 0.0663(6) 0.1174(15)
O11_3 O 0.6961(4) 0.0511(5) 0.9280(12)
Cu7_3 Cu 0.62838(7) 0.94661(12) 0.0080(3)
C1_3 C 0.6848(5) 0.8438(8) 0.127(2)
C2_3 C 0.6737(6) 0.7948(8) 0.194(2)
C3_3 C 0.6806(6) 0.8886(8) 0.262(2)
C4_3 C 0.6754(7) 0.7552(9) 0.026(2)
O1_3 O 0.6946(3) 0.9452(4) 0.1788(16)
O3_3 O 0.6450(3) 0.6961(4) 0.0720(12)
C5_3 C 0.6485(5) 0.8229(8) 0.540(2)
C6_3 C 0.6596(6) 0.8719(8) 0.473(2)
C7_3 C 0.6527(6) 0.7781(8) 0.405(2)
C8_3 C 0.6579(7) 0.9115(9) 0.641(2)
O4_3 O 0.6387(3) 0.7215(4) 0.4879(16)
O5_3 O 0.6260(3) 0.8931(5) 0.7841(15)
O6_3 O 0.6883(3) 0.9706(4) 0.5947(12)
Cu4_3 Cu 0.70495(7) 0.72006(12) 0.6587(3)
Cu8_3 Cu 0.61327(7) 0.65156(10) 0.3254(3)
O12_3 O 0.6156(3) 0.9783(5) 0.2613(12)
H2_3 H 0.635041 0.81178 0.705026
O2_3 O 0.7073(3) 0.7736(5) 0.8826(15)
Cu6_3 Cu 0.68178(10) 0.62838(12) 0.9920(3)
O8_3 O 0.5839(3) 0.9721(5) 0.8455(16)
H1_3 H 0.698293 0.854887 0.961641
H2_4 H 0.843406 0.698293 0.0383594
C1_4 C 0.8257(6) 0.6485(5) 0.460(2)
C2_4 C 0.7878(6) 0.6596(6) 0.527(2)
C3_4 C 0.8747(5) 0.6527(6) 0.595(2)
C4_4 C 0.7465(6) 0.6579(7) 0.359(2)
O2_4 O 0.7330(4) 0.6260(3) 0.2159(15)
O3_4 O 0.7178(3) 0.6883(3) 0.4053(12)
C5_4 C 0.8410(6) 0.6848(5) 0.873(2)
C6_4 C 0.8789(6) 0.6737(6) 0.806(2)
C7_4 C 0.7920(5) 0.6806(6) 0.738(2)
C8_4 C 0.9202(6) 0.6754(7) 0.974(2)
O4_4 O 0.7494(3) 0.6946(3) 0.8212(16)
O9_4 O 0.9594(3) 0.5597(5) 0.4507(15)
H1_4 H 0.823261 0.635041 0.294974
H2_5 H 0.854887 0.156594 0.0383594
C1_5 C 0.8229(8) 0.1743(6) 0.460(2)
C2_5 C 0.8719(8) 0.2122(6) 0.527(2)
C3_5 C 0.7781(8) 0.1253(5) 0.595(2)
C4_5 C 0.9115(9) 0.2535(6) 0.359(2)
O2_5 O 0.8931(5) 0.2670(4) 0.2159(15)
O3_5 O 0.9706(4) 0.2822(3) 0.4053(12)
C5_5 C 0.8438(8) 0.1590(6) 0.873(2)
C6_5 C 0.7948(8) 0.1211(6) 0.806(2)
C7_5 C 0.8886(8) 0.2080(5) 0.738(2)
C8_5 C 0.7552(9) 0.0798(6) 0.974(2)
O4_5 O 0.9452(4) 0.2506(3) 0.8212(16)
O9_5 O 0.6004(6) 0.0406(3) 0.4507(15)
H1_5 H 0.81178 0.176739 0.294974
H2_6 H 0.301707 0.145113 0.0383594
C1_6 C 0.3515(5) 0.1771(8) 0.460(2)
C2_6 C 0.3404(6) 0.1281(8) 0.527(2)
C3_6 C 0.3473(6) 0.2219(8) 0.595(2)
C4_6 C 0.3421(7) 0.0885(9) 0.359(2)
O2_6 O 0.3740(3) 0.1069(5) 0.2159(15)
O3_6 O 0.3117(3) 0.0294(4) 0.4053(12)
C5_6 C 0.3152(5) 0.1562(8) 0.873(2)
C6_6 C 0.3263(6) 0.2052(8) 0.806(2)
C7_6 C 0.3194(6) 0.1114(8) 0.738(2)
C8_6 C 0.3246(7) 0.2448(9) 0.974(2)
O4_6 O 0.3054(3) 0.0548(4) 0.8212(16)
O9_6 O 0.4403(5) 0.3996(6) 0.4507(15)
H1_6 H 0.364959 0.18822 0.294974
C5_7 C 0.5077(6) 0.0181(5) 0.206(2)
C6_7 C 0.5456(6) 0.0070(6) 0.139(2)
C7_7 C 0.4587(5) 0.0139(6) 0.071(2)
C8_7 C 0.5869(6) 0.0087(7) 0.307(2)
O4_7 O 0.4161(3) 0.0279(3) 0.1545(16)
H2_7 H 0.510073 0.0316261 0.371693
O3_7 O 0.3844(3) 0.0217(3) 0.7387(12)
C1_7 C 0.4923(6) 0.9819(5) 0.794(2)
C2_7 C 0.4544(6) 0.9930(6) 0.861(2)
C3_7 C 0.5413(5) 0.9861(6) 0.929(2)
C4_7 C 0.4131(6) 0.9913(7) 0.693(2)
O2_7 O 0.3996(4) 0.9594(3) 0.5493(15)
H1_7 H 0.489927 0.968374 0.628307
C5_8 C 0.5105(8) 0.4923(6) 0.206(2)
C6_8 C 0.4615(8) 0.4544(6) 0.139(2)
C7_8 C 0.5553(8) 0.5413(5) 0.071(2)
C8_8 C 0.4219(9) 0.4131(6) 0.307(2)
O4_8 O 0.6119(4) 0.5839(3) 0.1545(16)
H2_8 H 0.521553 0.489927 0.371693
C1_8 C 0.4895(8) 0.5077(6) 0.794(2)
C2_8 C 0.5385(8) 0.5456(6) 0.861(2)
C3_8 C 0.4447(8) 0.4587(5) 0.929(2)
C4_8 C 0.5781(9) 0.5869(6) 0.693(2)
O2_8 O 0.5597(5) 0.6004(4) 0.5493(15)
O3_8 O 0.6372(4) 0.6156(3) 0.7387(12)
H1_8 H 0.478447 0.510073 0.628307
C1_9 C 0.0181(5) 0.5105(8) 0.794(2)
C2_9 C 0.0070(6) 0.4615(8) 0.861(2)
C3_9 C 0.0139(6) 0.5553(8) 0.929(2)
C4_9 C 0.0087(7) 0.4219(9) 0.693(2)
O2_9 O 0.0406(3) 0.4403(5) 0.5493(15)
H1_9 H 0.0316261 0.521553 0.628307
C5_9 C 0.9819(5) 0.4895(8) 0.206(2)
C6_9 C 0.9930(6) 0.5385(8) 0.139(2)
C7_9 C 0.9861(6) 0.4447(8) 0.071(2)
C8_9 C 0.9913(7) 0.5781(9) 0.307(2)
O4_9 O 0.9721(3) 0.3881(4) 0.1545(16)
H2_9 H 0.968374 0.478447 0.371693
O3_9 O 0.9783(3) 0.3628(4) 0.7387(12)
loop_
_geom_bond_atom_site_label_1
_geom_bond_atom_site_label_2
_geom_bond_site_symmetry_1
_geom_bond_site_symmetry_2
Cu1 O1 1_555 1_555
C1 C2 1_555 1_555
C2 C4 1_555 1_555
C3 C1 1_555 1_555
O1 C3 1_555 1_555
O3 C4 1_555 1_555
C5 C6 1_555 1_555
C6 C3 1_555 1_555
C7 C2 1_555 1_555
C8 C6 1_555 1_555
O4 C7 1_555 1_555
O5 C8 1_555 1_555
O6 Cu1 1_555 1_555
Cu7 O1 1_555 1_555
Cu4 O4 1_555 1_555
Cu5 O6 1_555 1_555
Cu8 O3 1_555 1_555
O7 Cu1 1_555 1_555
O9 Cu1 1_555 1_555
O12 Cu1 1_555 1_555
C5 C7 1_555 1_555
C8 O6 1_555 1_555
O4 Cu8 1_555 1_555
Cu7 O12 1_555 1_555
Cu5 O7 1_555 1_555
C5 H2 1_555 1_555
O2 Cu4 1_555 1_555
C1_2 C2_2 1_555 1_555
C2_2 C4_2 1_555 1_555
C3_2 C1_2 1_555 1_555
O1_2 C3_2 1_555 1_555
O3_2 C4_2 1_555 1_555
C5_2 C6_2 1_555 1_555
C6_2 C3_2 1_555 1_555
C7_2 C2_2 1_555 1_555
C8_2 C6_2 1_555 1_555
O4_2 C7_2 1_555 1_555
O5_2 C8_2 1_555 1_555
Cu7_2 O1_2 1_555 1_555
Cu4_2 O4_2 1_555 1_555
Cu8_2 O3_2 1_555 1_555
C5_2 C7_2 1_555 1_555
C8_2 O6_2 1_555 1_555
O4_2 Cu8_2 1_555 1_555
Cu7_2 O12_2 1_555 1_555
C5_2 H2_2 1_555 1_555
O2_2 Cu4_2 1_555 1_555
O7_2 Cu1_2 1_555 1_555
O9_2 Cu1_2 1_555 1_555
Cu5_2 O7_2 1_555 1_555
O7_3 Cu1_3 1_555 1_555
O9_3 Cu1_3 1_555 1_555
Cu5_3 O7_3 1_555 1_555
C1_3 C2_3 1_555 1_555
C2_3 C4_3 1_555 1_555
C3_3 C1_3 1_555 1_555
O1_3 C3_3 1_555 1_555
O3_3 C4_3 1_555 1_555
C5_3 C6_3 1_555 1_555
C6_3 C3_3 1_555 1_555
C7_3 C2_3 1_555 1_555
C8_3 C6_3 1_555 1_555
O4_3 C7_3 1_555 1_555
O5_3 C8_3 1_555 1_555
Cu7_3 O1_3 1_555 1_555
Cu4_3 O4_3 1_555 1_555
Cu8_3 O3_3 1_555 1_555
C5_3 C7_3 1_555 1_555
C8_3 O6_3 1_555 1_555
O4_3 Cu8_3 1_555 1_555
Cu7_3 O12_3 1_555 1_555
C5_3 H2_3 1_555 1_555
O2_3 Cu4_3 1_555 1_555
C1_4 C2_4 1_555 1_555
C2_4 C4_4 1_555 1_555
C3_4 C1_4 1_555 1_555
C4_4 O2_4 1_555 1_555
O7_2 C3_4 1_555 1_555
O3_4 C4_4 1_555 1_555
C5_4 C6_4 1_555 1_555
C6_4 C3_4 1_555 1_555
C7_4 C2_4 1_555 1_555
C8_4 C6_4 1_555 1_555
O4_4 C7_4 1_555 1_555
O11_2 Cu5_2 1_555 1_555
Cu6_3 O4_4 1_555 1_555
Cu8_3 O3_4 1_555 1_555
Cu4_3 O3_4 1_555 1_555
O9_4 Cu5_2 1_555 1_555
C5_4 C7_4 1_555 1_555
C8_4 O11_2 1_555 1_555
O4_4 Cu4_3 1_555 1_555
C1_4 H1_4 1_555 1_555
C1_5 C2_5 1_555 1_555
C2_5 C4_5 1_555 1_555
C3_5 C1_5 1_555 1_555
C4_5 O2_5 1_555 1_555
O7_3 C3_5 1_555 1_555
O3_5 C4_5 1_555 1_555
C5_5 C6_5 1_555 1_555
C6_5 C3_5 1_555 1_555
C7_5 C2_5 1_555 1_555
C8_5 C6_5 1_555 1_555
O4_5 C7_5 1_555 1_555
O11_3 Cu5_3 1_555 1_555
Cu6 O4_5 1_555 1_555
O9_5 Cu5_3 1_555 1_555
C5_5 C7_5 1_555 1_555
C8_5 O11_3 1_555 1_555
C1_5 H1_5 1_555 1_555
C1_6 C2_6 1_555 1_555
C2_6 C4_6 1_555 1_555
C3_6 C1_6 1_555 1_555
C4_6 O2_6 1_555 1_555
O7 C3_6 1_555 1_555
O3_6 C4_6 1_555 1_555
C5_6 C6_6 1_555 1_555
C6_6 C3_6 1_555 1_555
C7_6 C2_6 1_555 1_555
C8_6 C6_6 1_555 1_555
O4_6 C7_6 1_555 1_555
O11 Cu5 1_555 1_555
Cu6_2 O4_6 1_555 1_555
O8 Cu5 1_555 1_555
O9_6 Cu5 1_555 1_555
C5_6 C7_6 1_555 1_555
C8_6 O11 1_555 1_555
C1_6 H1_6 1_555 1_555
C5_7 C6_7 1_555 1_555
C8_7 C6_7 1_555 1_555
O4_7 C7_7 1_555 1_555
O9_5 C8_7 1_555 1_555
C5_7 C7_7 1_555 1_555
C5_7 H2_7 1_555 1_555
Cu6_2 O3_7 1_555 1_555
C1_7 C2_7 1_555 1_555
C2_7 C4_7 1_555 1_555
C3_7 C1_7 1_555 1_555
C4_7 O2_7 1_555 1_555
O8_3 C3_7 1_555 1_555
O2_7 Cu8_2 1_555 1_555
C1_7 H1_7 1_555 1_555
C5_8 C6_8 1_555 1_555
C8_8 C6_8 1_555 1_555
O4_8 C7_8 1_555 1_555
O9_6 C8_8 1_555 1_555
Cu8_3 O4_8 1_555 1_555
C5_8 C7_8 1_555 1_555
C8_8 O12 1_555 1_555
C5_8 H2_8 1_555 1_555
C1_8 C2_8 1_555 1_555
C2_8 C4_8 1_555 1_555
C3_8 C1_8 1_555 1_555
C4_8 O2_8 1_555 1_555
O8 C3_8 1_555 1_555
O2_8 Cu8_3 1_555 1_555
O3_8 C4_8 1_555 1_555
Cu4_3 O3_8 1_555 1_555
Cu6_3 O3_8 1_555 1_555
C1_8 H1_8 1_555 1_555
C1_9 C2_9 1_555 1_555
C2_9 C4_9 1_555 1_555
C3_9 C1_9 1_555 1_555
C4_9 O2_9 1_555 1_555
O8_2 C3_9 1_555 1_555
O2_9 Cu8 1_555 1_555
C1_9 H1_9 1_555 1_555
C5_9 C6_9 1_555 1_555
C8_9 C6_9 1_555 1_555
O4_9 C7_9 1_555 1_555
O9_4 C8_9 1_555 1_555
C5_9 C7_9 1_555 1_555
C5_9 H2_9 1_555 1_555
Cu6 O3_9 1_555 1_555

#END
