
###############################################################################
#
# This file contains modified crystal structure data generated from the
# MOF subset of the Cambridge Structural Database (CSD) v543 
# hosted by the Cambridge Crystallographic Data Centre (CCDC).
#
# This work is licensed under the Creative Commons
# Attribution-NonCommercial-ShareAlike 4.0 International License.
# To view a copy of this license, visit
# http://creativecommons.org/licenses/by-nc-sa/4.0/
# or send a letter to
# Creative Commons, PO Box 1866, Mountain View, CA 94042, USA.
#
# CIF created using the CSD Python API on 29 September 2022
# The structure has been converted into the P1 space group
# The structure has a 3D framework
# The original CSD entry MOMBEY01 is in the rhombohedral crystal system
# The framework has been calculated to contain at least 10.0% void space
# The void calculation uses a probe of radius 1.32A, grid spacing 0.4
# H atom positions have been added when not included in the experimental data
#
###############################################################################

data_MOMBEY01
_chemical_formula_moiety         '(C72 H18 Cu7 O44)n'
_symmetry_cell_setting           triclinic
_symmetry_space_group_name_H-M   'P 1'
_symmetry_Int_Tables_number      1
_space_group_name_Hall           'P 1'
loop_
_symmetry_equiv_pos_site_id
_symmetry_equiv_pos_as_xyz
1 x,y,z
_cell_length_a                   25.9093(6)
_cell_length_b                   25.9093(6)
_cell_length_c                   6.30307(18)
_cell_angle_alpha                90
_cell_angle_beta                 90
_cell_angle_gamma                120
_cell_volume                     3664.33
loop_
_atom_site_label
_atom_site_type_symbol
_atom_site_fract_x
_atom_site_fract_y
_atom_site_fract_z
Cu7 Cu 0.31819(13) 0.37168(10) 0.0082(4)
Cu1 Cu 0.29499(10) 0.27985(9) 0.3415(4)
C1 C 0.1589(8) 0.3155(6) 0.126(3)
C2 C 0.1210(8) 0.3266(8) 0.193(3)
C3 C 0.2078(7) 0.3189(8) 0.261(3)
C4 C 0.0800(8) 0.3249(9) 0.027(3)
O1 O 0.2501(4) 0.3047(5) 0.177(2)
O3 O 0.0513(4) 0.3555(4) 0.0729(17)
C5 C 0.1744(8) 0.3512(6) 0.541(3)
C6 C 0.2123(8) 0.3401(8) 0.474(3)
C7 C 0.1255(7) 0.3478(8) 0.406(3)
C8 C 0.2533(8) 0.3418(9) 0.640(3)
O4 O 0.0832(4) 0.3620(5) 0.490(2)
O5 O 0.2667(5) 0.3733(4) 0.781(2)
O6 O 0.2820(4) 0.3112(4) 0.5938(17)
Cu4 Cu 0.01514(13) 0.29499(10) 0.6585(4)
Cu5 Cu 0.38682(9) 0.34847(13) 0.6748(4)
Cu8 Cu 0.03834(10) 0.38682(9) 0.3252(4)
O7 O 0.3620(5) 0.2787(6) 0.510(2)
O9 O 0.2934(4) 0.2268(6) 0.114(2)
O12 O 0.3625(6) 0.3846(4) 0.2604(17)
H2 H 0.176618 0.364089 0.706273
O2 O 0.0666(5) 0.2934(4) 0.886(2)
O8 O 0.3879(6) 0.4166(4) 0.844(2)
O11 O 0.3555(4) 0.3042(6) 0.9271(17)
H1 H 0.156715 0.302578 0.960394
Cu6 Cu 0.94652(9) 0.31819(13) 0.9918(4)
Cu6_2 Cu 0.37168(16) 0.05348(9) 0.9918(4)
Cu7_2 Cu 0.05348(16) 0.68181(13) 0.0082(4)
C1_2 C 0.1566(10) 0.8411(8) 0.126(3)
C2_2 C 0.2056(11) 0.8790(8) 0.193(3)
C3_2 C 0.1111(11) 0.7922(7) 0.261(3)
C4_2 C 0.2449(12) 0.9200(8) 0.027(3)
O1_2 O 0.0546(6) 0.7499(4) 0.177(2)
O3_2 O 0.3042(6) 0.9487(4) 0.0729(17)
C5_2 C 0.1767(10) 0.8256(8) 0.541(3)
C6_2 C 0.1277(11) 0.7877(8) 0.474(3)
C7_2 C 0.2222(11) 0.8745(7) 0.406(3)
C8_2 C 0.0884(12) 0.7467(8) 0.640(3)
O4_2 O 0.2787(6) 0.9168(4) 0.490(2)
O5_2 O 0.1065(6) 0.7333(5) 0.781(2)
O6_2 O 0.0291(6) 0.7180(4) 0.5938(17)
Cu4_2 Cu 0.27985(16) 0.98486(13) 0.6585(4)
Cu8_2 Cu 0.34847(13) 0.96166(10) 0.3252(4)
O12_2 O 0.0222(7) 0.6375(6) 0.2604(17)
H2_2 H 0.187471 0.823382 0.706273
O2_2 O 0.2268(6) 0.9334(5) 0.886(2)
O8_2 O 0.0286(7) 0.6121(6) 0.844(2)
H1_2 H 0.145862 0.843285 0.960394
Cu1_2 Cu 0.98486(13) 0.70501(10) 0.3415(4)
Cu5_2 Cu 0.96166(16) 0.61318(9) 0.6748(4)
O7_2 O 0.9168(8) 0.6380(5) 0.510(2)
O9_2 O 0.9334(7) 0.7066(4) 0.114(2)
O11_2 O 0.9487(7) 0.6445(4) 0.9271(17)
Cu1_3 Cu 0.72015(9) 0.01514(13) 0.3415(4)
Cu5_3 Cu 0.65153(13) 0.03834(16) 0.6748(4)
O7_3 O 0.7213(6) 0.0832(8) 0.510(2)
O9_3 O 0.7732(6) 0.0666(7) 0.114(2)
O11_3 O 0.6958(6) 0.0513(7) 0.9271(17)
Cu7_3 Cu 0.62832(10) 0.94652(16) 0.0082(4)
C1_3 C 0.6845(6) 0.8434(10) 0.126(3)
C2_3 C 0.6734(8) 0.7944(11) 0.193(3)
C3_3 C 0.6811(8) 0.8889(11) 0.261(3)
C4_3 C 0.6751(9) 0.7551(12) 0.027(3)
O1_3 O 0.6953(5) 0.9454(6) 0.177(2)
O3_3 O 0.6445(4) 0.6958(6) 0.0729(17)
C5_3 C 0.6488(6) 0.8233(10) 0.541(3)
C6_3 C 0.6599(8) 0.8723(11) 0.474(3)
C7_3 C 0.6522(8) 0.7778(11) 0.406(3)
C8_3 C 0.6582(9) 0.9116(12) 0.640(3)
O4_3 O 0.6380(5) 0.7213(6) 0.490(2)
O5_3 O 0.6267(4) 0.8935(6) 0.781(2)
O6_3 O 0.6888(4) 0.9709(6) 0.5938(17)
Cu4_3 Cu 0.70501(10) 0.72015(16) 0.6585(4)
Cu8_3 Cu 0.61318(9) 0.65153(13) 0.3252(4)
O12_3 O 0.6154(4) 0.9778(7) 0.2604(17)
H2_3 H 0.635911 0.812529 0.706273
O2_3 O 0.7066(4) 0.7732(6) 0.886(2)
Cu6_3 Cu 0.68181(13) 0.62832(16) 0.9918(4)
O8_3 O 0.5834(4) 0.9714(7) 0.844(2)
H1_3 H 0.697422 0.854138 0.960394
H2_4 H 0.843285 0.697422 0.0396061
C1_4 C 0.8256(8) 0.6488(6) 0.459(3)
C2_4 C 0.7877(8) 0.6599(8) 0.526(3)
C3_4 C 0.8745(7) 0.6522(8) 0.594(3)
C4_4 C 0.7467(8) 0.6582(9) 0.360(3)
O2_4 O 0.7333(5) 0.6267(4) 0.219(2)
O3_4 O 0.7180(4) 0.6888(4) 0.4062(17)
C5_4 C 0.8411(8) 0.6845(6) 0.874(3)
C6_4 C 0.8790(8) 0.6734(8) 0.807(3)
C7_4 C 0.7922(7) 0.6811(8) 0.739(3)
C8_4 C 0.9200(8) 0.6751(9) 0.973(3)
O4_4 O 0.7499(4) 0.6953(5) 0.823(2)
O9_4 O 0.9601(4) 0.5601(6) 0.447(2)
H1_4 H 0.823382 0.635911 0.293727
H2_5 H 0.854138 0.156715 0.0396061
C1_5 C 0.8233(10) 0.1744(8) 0.459(3)
C2_5 C 0.8723(11) 0.2123(8) 0.526(3)
C3_5 C 0.7778(11) 0.1255(7) 0.594(3)
C4_5 C 0.9116(12) 0.2533(8) 0.360(3)
O2_5 O 0.8935(6) 0.2667(5) 0.219(2)
O3_5 O 0.9709(6) 0.2820(4) 0.4062(17)
C5_5 C 0.8434(10) 0.1589(8) 0.874(3)
C6_5 C 0.7944(11) 0.1210(8) 0.807(3)
C7_5 C 0.8889(11) 0.2078(7) 0.739(3)
C8_5 C 0.7551(12) 0.0800(8) 0.973(3)
O4_5 O 0.9454(6) 0.2501(4) 0.823(2)
O9_5 O 0.6001(7) 0.0399(4) 0.447(2)
H1_5 H 0.812529 0.176618 0.293727
H2_6 H 0.302578 0.145862 0.0396061
C1_6 C 0.3512(6) 0.1767(10) 0.459(3)
C2_6 C 0.3401(8) 0.1277(11) 0.526(3)
C3_6 C 0.3478(8) 0.2222(11) 0.594(3)
C4_6 C 0.3418(9) 0.0884(12) 0.360(3)
O2_6 O 0.3733(4) 0.1065(6) 0.219(2)
O3_6 O 0.3112(4) 0.0291(6) 0.4062(17)
C5_6 C 0.3155(6) 0.1566(10) 0.874(3)
C6_6 C 0.3266(8) 0.2056(11) 0.807(3)
C7_6 C 0.3189(8) 0.1111(11) 0.739(3)
C8_6 C 0.3249(9) 0.2449(12) 0.973(3)
O4_6 O 0.3047(5) 0.0546(6) 0.823(2)
O9_6 O 0.4399(6) 0.3999(7) 0.447(2)
H1_6 H 0.364089 0.187471 0.293727
C5_7 C 0.5078(8) 0.0178(6) 0.207(3)
C6_7 C 0.5457(8) 0.0067(8) 0.140(3)
C7_7 C 0.4589(7) 0.0144(8) 0.072(3)
C8_7 C 0.5867(8) 0.0084(9) 0.306(3)
O4_7 O 0.4166(4) 0.0286(5) 0.156(2)
H2_7 H 0.509951 0.0307555 0.372939
O3_7 O 0.3846(4) 0.0222(4) 0.7396(17)
C1_7 C 0.4922(8) 0.9822(6) 0.793(3)
C2_7 C 0.4543(8) 0.9933(8) 0.860(3)
C3_7 C 0.5411(7) 0.9856(8) 0.928(3)
C4_7 C 0.4133(8) 0.9916(9) 0.694(3)
O2_7 O 0.3999(5) 0.9601(4) 0.553(2)
H1_7 H 0.490049 0.969244 0.627061
C5_8 C 0.5101(10) 0.4922(8) 0.207(3)
C6_8 C 0.4611(11) 0.4543(8) 0.140(3)
C7_8 C 0.5556(11) 0.5411(7) 0.072(3)
C8_8 C 0.4218(12) 0.4133(8) 0.306(3)
O4_8 O 0.6121(6) 0.5834(4) 0.156(2)
H2_8 H 0.520804 0.490049 0.372939
C1_8 C 0.4899(10) 0.5078(8) 0.793(3)
C2_8 C 0.5389(11) 0.5457(8) 0.860(3)
C3_8 C 0.4444(11) 0.4589(7) 0.928(3)
C4_8 C 0.5782(12) 0.5867(8) 0.694(3)
O2_8 O 0.5601(6) 0.6001(5) 0.553(2)
O3_8 O 0.6375(6) 0.6154(4) 0.7396(17)
H1_8 H 0.479196 0.509951 0.627061
C1_9 C 0.0178(6) 0.5101(10) 0.793(3)
C2_9 C 0.0067(8) 0.4611(11) 0.860(3)
C3_9 C 0.0144(8) 0.5556(11) 0.928(3)
C4_9 C 0.0084(9) 0.4218(12) 0.694(3)
O2_9 O 0.0399(4) 0.4399(6) 0.553(2)
H1_9 H 0.0307555 0.520804 0.627061
C5_9 C 0.9822(6) 0.4899(10) 0.207(3)
C6_9 C 0.9933(8) 0.5389(11) 0.140(3)
C7_9 C 0.9856(8) 0.4444(11) 0.072(3)
C8_9 C 0.9916(9) 0.5782(12) 0.306(3)
O4_9 O 0.9714(5) 0.3879(6) 0.156(2)
H2_9 H 0.969244 0.479196 0.372939
O3_9 O 0.9778(4) 0.3625(6) 0.7396(17)
loop_
_geom_bond_atom_site_label_1
_geom_bond_atom_site_label_2
_geom_bond_site_symmetry_1
_geom_bond_site_symmetry_2
Cu1 O1 1_555 1_555
C1 C2 1_555 1_555
C2 C4 1_555 1_555
C3 C1 1_555 1_555
O1 C3 1_555 1_555
O3 C4 1_555 1_555
C5 C6 1_555 1_555
C6 C3 1_555 1_555
C7 C2 1_555 1_555
C8 C6 1_555 1_555
O4 C7 1_555 1_555
O5 C8 1_555 1_555
O6 Cu1 1_555 1_555
Cu7 O1 1_555 1_555
Cu4 O4 1_555 1_555
Cu5 O6 1_555 1_555
Cu8 O3 1_555 1_555
O7 Cu1 1_555 1_555
O9 Cu1 1_555 1_555
O12 Cu1 1_555 1_555
C5 C7 1_555 1_555
C8 O6 1_555 1_555
O4 Cu8 1_555 1_555
Cu7 O12 1_555 1_555
Cu5 O7 1_555 1_555
C5 H2 1_555 1_555
O2 Cu4 1_555 1_555
C1_2 C2_2 1_555 1_555
C2_2 C4_2 1_555 1_555
C3_2 C1_2 1_555 1_555
O1_2 C3_2 1_555 1_555
O3_2 C4_2 1_555 1_555
C5_2 C6_2 1_555 1_555
C6_2 C3_2 1_555 1_555
C7_2 C2_2 1_555 1_555
C8_2 C6_2 1_555 1_555
O4_2 C7_2 1_555 1_555
O5_2 C8_2 1_555 1_555
Cu7_2 O1_2 1_555 1_555
Cu4_2 O4_2 1_555 1_555
Cu8_2 O3_2 1_555 1_555
C5_2 C7_2 1_555 1_555
C8_2 O6_2 1_555 1_555
O4_2 Cu8_2 1_555 1_555
Cu7_2 O12_2 1_555 1_555
C5_2 H2_2 1_555 1_555
O2_2 Cu4_2 1_555 1_555
O7_2 Cu1_2 1_555 1_555
O9_2 Cu1_2 1_555 1_555
Cu5_2 O7_2 1_555 1_555
O7_3 Cu1_3 1_555 1_555
O9_3 Cu1_3 1_555 1_555
Cu5_3 O7_3 1_555 1_555
C1_3 C2_3 1_555 1_555
C2_3 C4_3 1_555 1_555
C3_3 C1_3 1_555 1_555
O1_3 C3_3 1_555 1_555
O3_3 C4_3 1_555 1_555
C5_3 C6_3 1_555 1_555
C6_3 C3_3 1_555 1_555
C7_3 C2_3 1_555 1_555
C8_3 C6_3 1_555 1_555
O4_3 C7_3 1_555 1_555
O5_3 C8_3 1_555 1_555
Cu7_3 O1_3 1_555 1_555
Cu4_3 O4_3 1_555 1_555
Cu8_3 O3_3 1_555 1_555
C5_3 C7_3 1_555 1_555
C8_3 O6_3 1_555 1_555
O4_3 Cu8_3 1_555 1_555
Cu7_3 O12_3 1_555 1_555
C5_3 H2_3 1_555 1_555
O2_3 Cu4_3 1_555 1_555
C1_4 C2_4 1_555 1_555
C2_4 C4_4 1_555 1_555
C3_4 C1_4 1_555 1_555
C4_4 O2_4 1_555 1_555
O7_2 C3_4 1_555 1_555
O3_4 C4_4 1_555 1_555
C5_4 C6_4 1_555 1_555
C6_4 C3_4 1_555 1_555
C7_4 C2_4 1_555 1_555
C8_4 C6_4 1_555 1_555
O4_4 C7_4 1_555 1_555
O11_2 Cu5_2 1_555 1_555
Cu6_3 O4_4 1_555 1_555
Cu8_3 O3_4 1_555 1_555
Cu4_3 O3_4 1_555 1_555
O9_4 Cu5_2 1_555 1_555
C5_4 C7_4 1_555 1_555
C8_4 O11_2 1_555 1_555
O4_4 Cu4_3 1_555 1_555
C1_4 H1_4 1_555 1_555
C1_5 C2_5 1_555 1_555
C2_5 C4_5 1_555 1_555
C3_5 C1_5 1_555 1_555
C4_5 O2_5 1_555 1_555
O7_3 C3_5 1_555 1_555
O3_5 C4_5 1_555 1_555
C5_5 C6_5 1_555 1_555
C6_5 C3_5 1_555 1_555
C7_5 C2_5 1_555 1_555
C8_5 C6_5 1_555 1_555
O4_5 C7_5 1_555 1_555
O11_3 Cu5_3 1_555 1_555
Cu6 O4_5 1_555 1_555
O9_5 Cu5_3 1_555 1_555
C5_5 C7_5 1_555 1_555
C8_5 O11_3 1_555 1_555
C1_5 H1_5 1_555 1_555
C1_6 C2_6 1_555 1_555
C2_6 C4_6 1_555 1_555
C3_6 C1_6 1_555 1_555
C4_6 O2_6 1_555 1_555
O7 C3_6 1_555 1_555
O3_6 C4_6 1_555 1_555
C5_6 C6_6 1_555 1_555
C6_6 C3_6 1_555 1_555
C7_6 C2_6 1_555 1_555
C8_6 C6_6 1_555 1_555
O4_6 C7_6 1_555 1_555
O11 Cu5 1_555 1_555
Cu6_2 O4_6 1_555 1_555
O8 Cu5 1_555 1_555
O9_6 Cu5 1_555 1_555
C5_6 C7_6 1_555 1_555
C8_6 O11 1_555 1_555
C1_6 H1_6 1_555 1_555
C5_7 C6_7 1_555 1_555
C8_7 C6_7 1_555 1_555
O4_7 C7_7 1_555 1_555
O9_5 C8_7 1_555 1_555
C5_7 C7_7 1_555 1_555
C5_7 H2_7 1_555 1_555
Cu6_2 O3_7 1_555 1_555
C1_7 C2_7 1_555 1_555
C2_7 C4_7 1_555 1_555
C3_7 C1_7 1_555 1_555
C4_7 O2_7 1_555 1_555
O8_3 C3_7 1_555 1_555
O2_7 Cu8_2 1_555 1_555
C1_7 H1_7 1_555 1_555
C5_8 C6_8 1_555 1_555
C8_8 C6_8 1_555 1_555
O4_8 C7_8 1_555 1_555
O9_6 C8_8 1_555 1_555
Cu8_3 O4_8 1_555 1_555
C5_8 C7_8 1_555 1_555
C8_8 O12 1_555 1_555
C5_8 H2_8 1_555 1_555
C1_8 C2_8 1_555 1_555
C2_8 C4_8 1_555 1_555
C3_8 C1_8 1_555 1_555
C4_8 O2_8 1_555 1_555
O8 C3_8 1_555 1_555
O2_8 Cu8_3 1_555 1_555
O3_8 C4_8 1_555 1_555
Cu4_3 O3_8 1_555 1_555
Cu6_3 O3_8 1_555 1_555
C1_8 H1_8 1_555 1_555
C1_9 C2_9 1_555 1_555
C2_9 C4_9 1_555 1_555
C3_9 C1_9 1_555 1_555
C4_9 O2_9 1_555 1_555
O8_2 C3_9 1_555 1_555
O2_9 Cu8 1_555 1_555
C1_9 H1_9 1_555 1_555
C5_9 C6_9 1_555 1_555
C8_9 C6_9 1_555 1_555
O4_9 C7_9 1_555 1_555
O9_4 C8_9 1_555 1_555
C5_9 C7_9 1_555 1_555
C5_9 H2_9 1_555 1_555
Cu6 O3_9 1_555 1_555

#END
