
###############################################################################
#
# This file contains modified crystal structure data generated from the
# MOF subset of the Cambridge Structural Database (CSD) v543 
# hosted by the Cambridge Crystallographic Data Centre (CCDC).
#
# This work is licensed under the Creative Commons
# Attribution-NonCommercial-ShareAlike 4.0 International License.
# To view a copy of this license, visit
# http://creativecommons.org/licenses/by-nc-sa/4.0/
# or send a letter to
# Creative Commons, PO Box 1866, Mountain View, CA 94042, USA.
#
# CIF created using the CSD Python API on 29 September 2022
# The structure has been converted into the P1 space group
# The structure has a 3D framework
# The original CSD entry MOMBEY36 is in the rhombohedral crystal system
# The framework has been calculated to contain at least 10.0% void space
# The void calculation uses a probe of radius 1.32A, grid spacing 0.4
# H atom positions have been added when not included in the experimental data
#
###############################################################################

data_MOMBEY36
_chemical_formula_moiety         '(C72 H18 Cu7 O44)n'
_symmetry_cell_setting           triclinic
_symmetry_space_group_name_H-M   'P 1'
_symmetry_Int_Tables_number      1
_space_group_name_Hall           'P 1'
loop_
_symmetry_equiv_pos_site_id
_symmetry_equiv_pos_as_xyz
1 x,y,z
_cell_length_a                   25.9196(4)
_cell_length_b                   25.9196(4)
_cell_length_c                   6.28711(11)
_cell_angle_alpha                90
_cell_angle_beta                 90
_cell_angle_gamma                120
_cell_volume                     3657.95
loop_
_atom_site_label
_atom_site_type_symbol
_atom_site_fract_x
_atom_site_fract_y
_atom_site_fract_z
Cu7 Cu 0.31819(10) 0.37163(7) 0.0080(3)
Cu1 Cu 0.29504(7) 0.27990(7) 0.3413(3)
C1 C 0.1593(6) 0.3152(5) 0.127(2)
C2 C 0.1210(6) 0.3262(6) 0.194(2)
C3 C 0.2081(5) 0.3194(6) 0.2616(19)
C4 C 0.0798(6) 0.3247(7) 0.026(2)
O1 O 0.2507(3) 0.3055(3) 0.1790(15)
O3 O 0.0511(3) 0.3549(3) 0.0716(12)
C5 C 0.1740(6) 0.3515(5) 0.540(2)
C6 C 0.2123(6) 0.3405(6) 0.473(2)
C7 C 0.1252(5) 0.3473(6) 0.4051(19)
C8 C 0.2535(6) 0.3420(7) 0.641(2)
O4 O 0.0826(3) 0.3612(3) 0.4877(15)
O5 O 0.2672(3) 0.3742(3) 0.7855(15)
O6 O 0.2822(3) 0.3118(3) 0.5951(12)
Cu4 Cu 0.01514(10) 0.29504(7) 0.6587(3)
Cu5 Cu 0.38677(7) 0.34847(10) 0.6746(3)
Cu8 Cu 0.03829(7) 0.38677(7) 0.3254(3)
O7 O 0.3612(3) 0.2785(4) 0.5123(15)
O9 O 0.2925(3) 0.2264(4) 0.1188(15)
O12 O 0.3629(4) 0.3844(3) 0.2617(12)
H2 H 0.176294 0.364849 0.705153
O2 O 0.0661(3) 0.2925(3) 0.8812(15)
O8 O 0.3881(4) 0.4160(3) 0.8457(15)
O11 O 0.3549(3) 0.3038(4) 0.9284(12)
H1 H 0.157039 0.301818 0.961513
Cu6 Cu 0.94657(7) 0.31819(10) 0.9920(3)
Cu6_2 Cu 0.37163(12) 0.05343(7) 0.9920(3)
Cu7_2 Cu 0.05343(12) 0.68181(10) 0.0080(3)
C1_2 C 0.1559(8) 0.8407(6) 0.127(2)
C2_2 C 0.2052(8) 0.8790(6) 0.194(2)
C3_2 C 0.1113(8) 0.7919(5) 0.2616(19)
C4_2 C 0.2449(9) 0.9202(6) 0.026(2)
O1_2 O 0.0548(4) 0.7493(3) 0.1790(15)
O3_2 O 0.3038(4) 0.9489(3) 0.0716(12)
C5_2 C 0.1774(8) 0.8260(6) 0.540(2)
C6_2 C 0.1281(8) 0.7877(6) 0.473(2)
C7_2 C 0.2220(8) 0.8748(5) 0.4051(19)
C8_2 C 0.0884(9) 0.7465(6) 0.641(2)
O4_2 O 0.2785(4) 0.9174(3) 0.4877(15)
O5_2 O 0.1069(4) 0.7328(3) 0.7855(15)
O6_2 O 0.0295(4) 0.7178(3) 0.5951(12)
Cu4_2 Cu 0.27990(12) 0.98486(10) 0.6587(3)
Cu8_2 Cu 0.34847(10) 0.96171(7) 0.3254(3)
O12_2 O 0.0216(5) 0.6371(4) 0.2617(12)
H2_2 H 0.188555 0.823706 0.705153
O2_2 O 0.2264(4) 0.9339(3) 0.8812(15)
O8_2 O 0.0278(5) 0.6119(4) 0.8457(15)
H1_2 H 0.144778 0.842961 0.961513
Cu1_2 Cu 0.98486(10) 0.70496(7) 0.3413(3)
Cu5_2 Cu 0.96171(12) 0.61323(7) 0.6746(3)
O7_2 O 0.9174(5) 0.6388(3) 0.5123(15)
O9_2 O 0.9339(5) 0.7075(3) 0.1188(15)
O11_2 O 0.9489(5) 0.6451(3) 0.9284(12)
Cu1_3 Cu 0.72010(7) 0.01514(10) 0.3413(3)
Cu5_3 Cu 0.65153(10) 0.03829(12) 0.6746(3)
O7_3 O 0.7215(4) 0.0826(5) 0.5123(15)
O9_3 O 0.7736(4) 0.0661(5) 0.1188(15)
O11_3 O 0.6962(4) 0.0511(5) 0.9284(12)
Cu7_3 Cu 0.62837(7) 0.94657(12) 0.0080(3)
C1_3 C 0.6848(5) 0.8441(8) 0.127(2)
C2_3 C 0.6738(6) 0.7948(8) 0.194(2)
C3_3 C 0.6806(6) 0.8887(8) 0.2616(19)
C4_3 C 0.6753(7) 0.7551(9) 0.026(2)
O1_3 O 0.6945(3) 0.9452(4) 0.1790(15)
O3_3 O 0.6451(3) 0.6962(4) 0.0716(12)
C5_3 C 0.6485(5) 0.8226(8) 0.540(2)
C6_3 C 0.6595(6) 0.8719(8) 0.473(2)
C7_3 C 0.6527(6) 0.7780(8) 0.4051(19)
C8_3 C 0.6580(7) 0.9116(9) 0.641(2)
O4_3 O 0.6388(3) 0.7215(4) 0.4877(15)
O5_3 O 0.6258(3) 0.8931(4) 0.7855(15)
O6_3 O 0.6882(3) 0.9705(4) 0.5951(12)
Cu4_3 Cu 0.70496(7) 0.72010(12) 0.6587(3)
Cu8_3 Cu 0.61323(7) 0.65153(10) 0.3254(3)
O12_3 O 0.6156(3) 0.9784(5) 0.2617(12)
H2_3 H 0.635151 0.811445 0.705153
O2_3 O 0.7075(3) 0.7736(4) 0.8812(15)
Cu6_3 Cu 0.68181(10) 0.62837(12) 0.9920(3)
O8_3 O 0.5840(3) 0.9722(5) 0.8457(15)
H1_3 H 0.698182 0.855222 0.961513
H2_4 H 0.842961 0.698182 0.0384866
C1_4 C 0.8260(6) 0.6485(5) 0.460(2)
C2_4 C 0.7877(6) 0.6595(6) 0.527(2)
C3_4 C 0.8748(5) 0.6527(6) 0.5949(19)
C4_4 C 0.7465(6) 0.6580(7) 0.359(2)
O2_4 O 0.7328(3) 0.6258(3) 0.2145(15)
O3_4 O 0.7178(3) 0.6882(3) 0.4049(12)
C5_4 C 0.8407(6) 0.6848(5) 0.873(2)
C6_4 C 0.8790(6) 0.6738(6) 0.806(2)
C7_4 C 0.7919(5) 0.6806(6) 0.7384(19)
C8_4 C 0.9202(6) 0.6753(7) 0.974(2)
O4_4 O 0.7493(3) 0.6945(3) 0.8210(15)
O9_4 O 0.9592(3) 0.5597(4) 0.4521(15)
H1_4 H 0.823706 0.635151 0.294847
H2_5 H 0.855222 0.157039 0.0384866
C1_5 C 0.8226(8) 0.1740(6) 0.460(2)
C2_5 C 0.8719(8) 0.2123(6) 0.527(2)
C3_5 C 0.7780(8) 0.1252(5) 0.5949(19)
C4_5 C 0.9116(9) 0.2535(6) 0.359(2)
O2_5 O 0.8931(4) 0.2672(3) 0.2145(15)
O3_5 O 0.9705(4) 0.2822(3) 0.4049(12)
C5_5 C 0.8441(8) 0.1593(6) 0.873(2)
C6_5 C 0.7948(8) 0.1210(6) 0.806(2)
C7_5 C 0.8887(8) 0.2081(5) 0.7384(19)
C8_5 C 0.7551(9) 0.0798(6) 0.974(2)
O4_5 O 0.9452(4) 0.2507(3) 0.8210(15)
O9_5 O 0.6006(5) 0.0408(3) 0.4521(15)
H1_5 H 0.811445 0.176294 0.294847
H2_6 H 0.301818 0.144778 0.0384866
C1_6 C 0.3515(5) 0.1774(8) 0.460(2)
C2_6 C 0.3405(6) 0.1281(8) 0.527(2)
C3_6 C 0.3473(6) 0.2220(8) 0.5949(19)
C4_6 C 0.3420(7) 0.0884(9) 0.359(2)
O2_6 O 0.3742(3) 0.1069(4) 0.2145(15)
O3_6 O 0.3118(3) 0.0295(4) 0.4049(12)
C5_6 C 0.3152(5) 0.1559(8) 0.873(2)
C6_6 C 0.3262(6) 0.2052(8) 0.806(2)
C7_6 C 0.3194(6) 0.1113(8) 0.7384(19)
C8_6 C 0.3247(7) 0.2449(9) 0.974(2)
O4_6 O 0.3055(3) 0.0548(4) 0.8210(15)
O9_6 O 0.4403(4) 0.3994(5) 0.4521(15)
H1_6 H 0.364849 0.188555 0.294847
C5_7 C 0.5074(6) 0.0181(5) 0.206(2)
C6_7 C 0.5457(6) 0.0071(6) 0.139(2)
C7_7 C 0.4586(5) 0.0139(6) 0.0717(19)
C8_7 C 0.5869(6) 0.0086(7) 0.307(2)
O4_7 O 0.4160(3) 0.0278(3) 0.1543(15)
H2_7 H 0.509627 0.0315156 0.37182
O3_7 O 0.3844(3) 0.0216(3) 0.7383(12)
C1_7 C 0.4926(6) 0.9819(5) 0.794(2)
C2_7 C 0.4543(6) 0.9929(6) 0.861(2)
C3_7 C 0.5414(5) 0.9861(6) 0.9283(19)
C4_7 C 0.4131(6) 0.9914(7) 0.693(2)
O2_7 O 0.3994(3) 0.9592(3) 0.5479(15)
H1_7 H 0.490373 0.968484 0.62818
C5_8 C 0.5108(8) 0.4926(6) 0.206(2)
C6_8 C 0.4615(8) 0.4543(6) 0.139(2)
C7_8 C 0.5554(8) 0.5414(5) 0.0717(19)
C8_8 C 0.4218(9) 0.4131(6) 0.307(2)
O4_8 O 0.6119(4) 0.5840(3) 0.1543(15)
H2_8 H 0.521888 0.490373 0.37182
C1_8 C 0.4892(8) 0.5074(6) 0.794(2)
C2_8 C 0.5385(8) 0.5457(6) 0.861(2)
C3_8 C 0.4446(8) 0.4586(5) 0.9283(19)
C4_8 C 0.5782(9) 0.5869(6) 0.693(2)
O2_8 O 0.5597(4) 0.6006(3) 0.5479(15)
O3_8 O 0.6371(4) 0.6156(3) 0.7383(12)
H1_8 H 0.478112 0.509627 0.62818
C1_9 C 0.0181(5) 0.5108(8) 0.794(2)
C2_9 C 0.0071(6) 0.4615(8) 0.861(2)
C3_9 C 0.0139(6) 0.5554(8) 0.9283(19)
C4_9 C 0.0086(7) 0.4218(9) 0.693(2)
O2_9 O 0.0408(3) 0.4403(4) 0.5479(15)
H1_9 H 0.0315156 0.521888 0.62818
C5_9 C 0.9819(5) 0.4892(8) 0.206(2)
C6_9 C 0.9929(6) 0.5385(8) 0.139(2)
C7_9 C 0.9861(6) 0.4446(8) 0.0717(19)
C8_9 C 0.9914(7) 0.5782(9) 0.307(2)
O4_9 O 0.9722(3) 0.3881(4) 0.1543(15)
H2_9 H 0.968484 0.478112 0.37182
O3_9 O 0.9784(3) 0.3629(4) 0.7383(12)
loop_
_geom_bond_atom_site_label_1
_geom_bond_atom_site_label_2
_geom_bond_site_symmetry_1
_geom_bond_site_symmetry_2
Cu1 O1 1_555 1_555
C1 C2 1_555 1_555
C2 C4 1_555 1_555
C3 C1 1_555 1_555
O1 C3 1_555 1_555
O3 C4 1_555 1_555
C5 C6 1_555 1_555
C6 C3 1_555 1_555
C7 C2 1_555 1_555
C8 C6 1_555 1_555
O4 C7 1_555 1_555
O5 C8 1_555 1_555
O6 Cu1 1_555 1_555
Cu7 O1 1_555 1_555
Cu4 O4 1_555 1_555
Cu5 O6 1_555 1_555
Cu8 O3 1_555 1_555
O7 Cu1 1_555 1_555
O9 Cu1 1_555 1_555
O12 Cu1 1_555 1_555
C5 C7 1_555 1_555
C8 O6 1_555 1_555
O4 Cu8 1_555 1_555
Cu7 O12 1_555 1_555
Cu5 O7 1_555 1_555
C5 H2 1_555 1_555
O2 Cu4 1_555 1_555
C1_2 C2_2 1_555 1_555
C2_2 C4_2 1_555 1_555
C3_2 C1_2 1_555 1_555
O1_2 C3_2 1_555 1_555
O3_2 C4_2 1_555 1_555
C5_2 C6_2 1_555 1_555
C6_2 C3_2 1_555 1_555
C7_2 C2_2 1_555 1_555
C8_2 C6_2 1_555 1_555
O4_2 C7_2 1_555 1_555
O5_2 C8_2 1_555 1_555
Cu7_2 O1_2 1_555 1_555
Cu4_2 O4_2 1_555 1_555
Cu8_2 O3_2 1_555 1_555
C5_2 C7_2 1_555 1_555
C8_2 O6_2 1_555 1_555
O4_2 Cu8_2 1_555 1_555
Cu7_2 O12_2 1_555 1_555
C5_2 H2_2 1_555 1_555
O2_2 Cu4_2 1_555 1_555
O7_2 Cu1_2 1_555 1_555
O9_2 Cu1_2 1_555 1_555
Cu5_2 O7_2 1_555 1_555
O7_3 Cu1_3 1_555 1_555
O9_3 Cu1_3 1_555 1_555
Cu5_3 O7_3 1_555 1_555
C1_3 C2_3 1_555 1_555
C2_3 C4_3 1_555 1_555
C3_3 C1_3 1_555 1_555
O1_3 C3_3 1_555 1_555
O3_3 C4_3 1_555 1_555
C5_3 C6_3 1_555 1_555
C6_3 C3_3 1_555 1_555
C7_3 C2_3 1_555 1_555
C8_3 C6_3 1_555 1_555
O4_3 C7_3 1_555 1_555
O5_3 C8_3 1_555 1_555
Cu7_3 O1_3 1_555 1_555
Cu4_3 O4_3 1_555 1_555
Cu8_3 O3_3 1_555 1_555
C5_3 C7_3 1_555 1_555
C8_3 O6_3 1_555 1_555
O4_3 Cu8_3 1_555 1_555
Cu7_3 O12_3 1_555 1_555
C5_3 H2_3 1_555 1_555
O2_3 Cu4_3 1_555 1_555
C1_4 C2_4 1_555 1_555
C2_4 C4_4 1_555 1_555
C3_4 C1_4 1_555 1_555
C4_4 O2_4 1_555 1_555
O7_2 C3_4 1_555 1_555
O3_4 C4_4 1_555 1_555
C5_4 C6_4 1_555 1_555
C6_4 C3_4 1_555 1_555
C7_4 C2_4 1_555 1_555
C8_4 C6_4 1_555 1_555
O4_4 C7_4 1_555 1_555
O11_2 Cu5_2 1_555 1_555
Cu6_3 O4_4 1_555 1_555
Cu8_3 O3_4 1_555 1_555
Cu4_3 O3_4 1_555 1_555
O9_4 Cu5_2 1_555 1_555
C5_4 C7_4 1_555 1_555
C8_4 O11_2 1_555 1_555
O4_4 Cu4_3 1_555 1_555
C1_4 H1_4 1_555 1_555
C1_5 C2_5 1_555 1_555
C2_5 C4_5 1_555 1_555
C3_5 C1_5 1_555 1_555
C4_5 O2_5 1_555 1_555
O7_3 C3_5 1_555 1_555
O3_5 C4_5 1_555 1_555
C5_5 C6_5 1_555 1_555
C6_5 C3_5 1_555 1_555
C7_5 C2_5 1_555 1_555
C8_5 C6_5 1_555 1_555
O4_5 C7_5 1_555 1_555
O11_3 Cu5_3 1_555 1_555
Cu6 O4_5 1_555 1_555
O9_5 Cu5_3 1_555 1_555
C5_5 C7_5 1_555 1_555
C8_5 O11_3 1_555 1_555
C1_5 H1_5 1_555 1_555
C1_6 C2_6 1_555 1_555
C2_6 C4_6 1_555 1_555
C3_6 C1_6 1_555 1_555
C4_6 O2_6 1_555 1_555
O7 C3_6 1_555 1_555
O3_6 C4_6 1_555 1_555
C5_6 C6_6 1_555 1_555
C6_6 C3_6 1_555 1_555
C7_6 C2_6 1_555 1_555
C8_6 C6_6 1_555 1_555
O4_6 C7_6 1_555 1_555
O11 Cu5 1_555 1_555
Cu6_2 O4_6 1_555 1_555
O8 Cu5 1_555 1_555
O9_6 Cu5 1_555 1_555
C5_6 C7_6 1_555 1_555
C8_6 O11 1_555 1_555
C1_6 H1_6 1_555 1_555
C5_7 C6_7 1_555 1_555
C8_7 C6_7 1_555 1_555
O4_7 C7_7 1_555 1_555
O9_5 C8_7 1_555 1_555
C5_7 C7_7 1_555 1_555
C5_7 H2_7 1_555 1_555
Cu6_2 O3_7 1_555 1_555
C1_7 C2_7 1_555 1_555
C2_7 C4_7 1_555 1_555
C3_7 C1_7 1_555 1_555
C4_7 O2_7 1_555 1_555
O8_3 C3_7 1_555 1_555
O2_7 Cu8_2 1_555 1_555
C1_7 H1_7 1_555 1_555
C5_8 C6_8 1_555 1_555
C8_8 C6_8 1_555 1_555
O4_8 C7_8 1_555 1_555
O9_6 C8_8 1_555 1_555
Cu8_3 O4_8 1_555 1_555
C5_8 C7_8 1_555 1_555
C8_8 O12 1_555 1_555
C5_8 H2_8 1_555 1_555
C1_8 C2_8 1_555 1_555
C2_8 C4_8 1_555 1_555
C3_8 C1_8 1_555 1_555
C4_8 O2_8 1_555 1_555
O8 C3_8 1_555 1_555
O2_8 Cu8_3 1_555 1_555
O3_8 C4_8 1_555 1_555
Cu4_3 O3_8 1_555 1_555
Cu6_3 O3_8 1_555 1_555
C1_8 H1_8 1_555 1_555
C1_9 C2_9 1_555 1_555
C2_9 C4_9 1_555 1_555
C3_9 C1_9 1_555 1_555
C4_9 O2_9 1_555 1_555
O8_2 C3_9 1_555 1_555
O2_9 Cu8 1_555 1_555
C1_9 H1_9 1_555 1_555
C5_9 C6_9 1_555 1_555
C8_9 C6_9 1_555 1_555
O4_9 C7_9 1_555 1_555
O9_4 C8_9 1_555 1_555
C5_9 C7_9 1_555 1_555
C5_9 H2_9 1_555 1_555
Cu6 O3_9 1_555 1_555

#END
