
###############################################################################
#
# This file contains modified crystal structure data generated from the
# MOF subset of the Cambridge Structural Database (CSD) v543 
# hosted by the Cambridge Crystallographic Data Centre (CCDC).
#
# This work is licensed under the Creative Commons
# Attribution-NonCommercial-ShareAlike 4.0 International License.
# To view a copy of this license, visit
# http://creativecommons.org/licenses/by-nc-sa/4.0/
# or send a letter to
# Creative Commons, PO Box 1866, Mountain View, CA 94042, USA.
#
# CIF created using the CSD Python API on 29 September 2022
# The structure has been converted into the P1 space group
# The structure has a 3D framework
# The original CSD entry MOQBEC48 is in the rhombohedral crystal system
# The framework has been calculated to contain at least 10.0% void space
# The void calculation uses a probe of radius 1.32A, grid spacing 0.4
# H atom positions have been added when not included in the experimental data
#
###############################################################################

data_MOQBEC48
_chemical_formula_moiety         '(C72 H18 Co13 O51)n'
_symmetry_cell_setting           triclinic
_symmetry_space_group_name_H-M   'P 1'
_symmetry_Int_Tables_number      1
_space_group_name_Hall           'P 1'
loop_
_symmetry_equiv_pos_site_id
_symmetry_equiv_pos_as_xyz
1 x,y,z
_cell_length_a                   25.9669(3)
_cell_length_b                   25.9669(3)
_cell_length_c                   6.82803(8)
_cell_angle_alpha                90
_cell_angle_beta                 90
_cell_angle_gamma                120
_cell_volume                     3987.18
loop_
_atom_site_label
_atom_site_type_symbol
_atom_site_fract_x
_atom_site_fract_y
_atom_site_fract_z
Co4 Co 0.03000(6) 0.64753(6) 0.35748(19)
C1 C 0.0108(4) 0.5018(5) 0.8048(14)
C2 C 0.0046(4) 0.5455(4) 0.8804(14)
C3 C 0.0097(4) 0.4561(4) 0.9216(13)
C4 C 0.0159(5) 0.5946(4) 0.7367(13)
O1 O 0.0213(2) 0.4133(3) 0.8399(9)
O2 O 0.0325(3) 0.5949(3) 0.5674(10)
O3 O 0.0066(2) 0.6360(3) 0.8040(7)
O8 O 0.0800(3) 0.7253(4) 0.4934(9)
O11 O 0.0307(3) 0.7039(4) 0.1373(7)
O12 O 0.0373(4) 0.3399(2) 0.5293(7)
Co5 Co 0.04914(8) 0.36333(6) 0.97585(19)
Co6 Co 0.01914(6) 0.71580(8) 0.69081(19)
H1 H 0.0169574 0.50102 0.647287
C5 C 0.9892(4) 0.4982(5) 0.1952(14)
C6 C 0.9954(4) 0.4545(4) 0.1196(14)
C7 C 0.9903(4) 0.5439(4) 0.0784(13)
C8 C 0.9841(5) 0.4054(4) 0.2633(13)
O4 O 0.9787(2) 0.5867(3) 0.1601(9)
O5 O 0.9675(3) 0.4051(3) 0.4326(10)
O6 O 0.9934(2) 0.3640(3) 0.1960(7)
Co3 Co 0.97000(6) 0.35247(6) 0.64252(19)
Co7 Co 0.98086(6) 0.28420(8) 0.30919(19)
Co8 Co 0.95086(8) 0.63667(6) 0.02415(19)
H2 H 0.983043 0.49898 0.352713
O9 O 0.9200(3) 0.2747(4) 0.5066(9)
O13 O 0.9627(4) 0.6601(2) 0.4707(7)
O14 O 0.9693(3) 0.2961(4) 0.8627(7)
C5_2 C 0.5090(6) 0.0108(4) 0.1952(14)
C6_2 C 0.4591(6) 0.0046(4) 0.1196(14)
C7_2 C 0.5536(6) 0.0097(4) 0.0784(13)
C8_2 C 0.4213(6) 0.0159(5) 0.2633(13)
O4_2 O 0.6080(4) 0.0213(2) 0.1601(9)
O5_2 O 0.4376(4) 0.0325(3) 0.4326(10)
O6_2 O 0.3706(4) 0.0066(2) 0.1960(7)
Co3_2 Co 0.38247(8) 0.03000(6) 0.64252(19)
Co7_2 Co 0.30333(10) 0.01914(6) 0.30919(19)
Co8_2 Co 0.68580(10) 0.04914(8) 0.02415(19)
H2_2 H 0.515937 0.0169574 0.352713
O9_2 O 0.3546(5) 0.0800(3) 0.5066(9)
O13_2 O 0.6973(4) 0.0373(4) 0.4707(7)
O14_2 O 0.3267(5) 0.0307(3) 0.8627(7)
Co4_2 Co 0.61753(8) 0.97000(6) 0.35748(19)
C1_2 C 0.4910(6) 0.9892(4) 0.8048(14)
C2_2 C 0.5409(6) 0.9954(4) 0.8804(14)
C3_2 C 0.4464(6) 0.9903(4) 0.9216(13)
C4_2 C 0.5787(6) 0.9841(5) 0.7367(13)
O1_2 O 0.3920(4) 0.9787(2) 0.8399(9)
O2_2 O 0.5624(4) 0.9675(3) 0.5674(10)
O3_2 O 0.6294(4) 0.9934(2) 0.8040(7)
O8_2 O 0.6454(5) 0.9200(3) 0.4934(9)
O11_2 O 0.6733(5) 0.9693(3) 0.1373(7)
O12_2 O 0.3027(4) 0.9627(4) 0.5293(7)
Co5_2 Co 0.31420(10) 0.95086(8) 0.97585(19)
Co6_2 Co 0.69667(10) 0.98086(6) 0.69081(19)
H1_2 H 0.484063 0.983043 0.647287
C5_3 C 0.5018(5) 0.4910(6) 0.1952(14)
C6_3 C 0.5455(4) 0.5409(6) 0.1196(14)
C7_3 C 0.4561(4) 0.4464(6) 0.0784(13)
C8_3 C 0.5946(4) 0.5787(6) 0.2633(13)
O4_3 O 0.4133(3) 0.3920(4) 0.1601(9)
O5_3 O 0.5949(3) 0.5624(4) 0.4326(10)
O6_3 O 0.6360(3) 0.6294(4) 0.1960(7)
Co3_3 Co 0.64753(6) 0.61753(8) 0.64252(19)
Co4_3 Co 0.35247(6) 0.38247(8) 0.35748(19)
Co7_3 Co 0.71580(8) 0.69667(10) 0.30919(19)
Co8_3 Co 0.36333(6) 0.31420(10) 0.02415(19)
H2_3 H 0.50102 0.484063 0.352713
C1_3 C 0.4982(5) 0.5090(6) 0.8048(14)
C2_3 C 0.4545(4) 0.4591(6) 0.8804(14)
C3_3 C 0.5439(4) 0.5536(6) 0.9216(13)
C4_3 C 0.4054(4) 0.4213(6) 0.7367(13)
O1_3 O 0.5867(3) 0.6080(4) 0.8399(9)
O2_3 O 0.4051(3) 0.4376(4) 0.5674(10)
O3_3 O 0.3640(3) 0.3706(4) 0.8040(7)
O8_3 O 0.2747(4) 0.3546(5) 0.4934(9)
O9_3 O 0.7253(4) 0.6454(5) 0.5066(9)
O11_3 O 0.2961(4) 0.3267(5) 0.1373(7)
O12_3 O 0.6601(2) 0.6973(4) 0.5293(7)
O13_3 O 0.3399(2) 0.3027(4) 0.4707(7)
O14_3 O 0.7039(4) 0.6733(5) 0.8627(7)
Co5_3 Co 0.63667(6) 0.68580(10) 0.97585(19)
Co6_3 Co 0.28420(8) 0.30333(10) 0.69081(19)
H1_3 H 0.49898 0.515937 0.647287
O8_4 O 0.7466(3) 0.0587(4) 0.8268(9)
C1_4 C 0.6775(4) 0.8351(5) 0.1381(14)
C2_4 C 0.6713(4) 0.8788(4) 0.2137(14)
C3_4 C 0.6764(4) 0.7894(4) 0.2549(13)
C4_4 C 0.6826(5) 0.9279(4) 0.0700(13)
O1_4 O 0.6880(2) 0.7466(3) 0.1732(9)
C5_4 C 0.6559(4) 0.8315(5) 0.5285(14)
C6_4 C 0.6621(4) 0.7878(4) 0.4529(14)
C7_4 C 0.6570(4) 0.8772(4) 0.4117(13)
C8_4 C 0.6508(5) 0.7387(4) 0.5966(13)
O5_4 O 0.6342(3) 0.7384(3) 0.7659(10)
H2_4 H 0.649709 0.832313 0.686046
O2_4 O 0.6992(3) 0.9282(3) 0.9007(10)
H1_4 H 0.683624 0.834354 0.98062
C1_5 C 0.1577(6) 0.3225(4) 0.1381(14)
C2_5 C 0.2076(6) 0.3287(4) 0.2137(14)
C3_5 C 0.1131(6) 0.3236(4) 0.2549(13)
C4_5 C 0.2454(6) 0.3174(5) 0.0700(13)
O1_5 O 0.0587(4) 0.3120(2) 0.1732(9)
C5_5 C 0.1757(6) 0.3441(4) 0.5285(14)
C6_5 C 0.1258(6) 0.3379(4) 0.4529(14)
C7_5 C 0.2203(6) 0.3430(4) 0.4117(13)
C8_5 C 0.0880(6) 0.3492(5) 0.5966(13)
O5_5 O 0.1043(4) 0.3658(3) 0.7659(10)
H2_5 H 0.182604 0.350291 0.686046
O2_5 O 0.2291(4) 0.3008(3) 0.9007(10)
O8_5 O 0.3120(5) 0.2534(3) 0.8268(9)
H1_5 H 0.150729 0.316376 0.98062
C1_6 C 0.1649(5) 0.8423(6) 0.1381(14)
C2_6 C 0.1212(4) 0.7924(6) 0.2137(14)
C3_6 C 0.2106(4) 0.8869(6) 0.2549(13)
C4_6 C 0.0721(4) 0.7546(6) 0.0700(13)
O1_6 O 0.2534(3) 0.9413(4) 0.1732(9)
C5_6 C 0.1685(5) 0.8243(6) 0.5285(14)
C6_6 C 0.2122(4) 0.8742(6) 0.4529(14)
C7_6 C 0.1228(4) 0.7797(6) 0.4117(13)
C8_6 C 0.2613(4) 0.9120(6) 0.5966(13)
O5_6 O 0.2616(3) 0.8957(4) 0.7659(10)
H2_6 H 0.167687 0.817396 0.686046
O2_6 O 0.0718(3) 0.7709(4) 0.9007(10)
H1_6 H 0.165646 0.849271 0.98062
O8_6 O 0.9413(4) 0.6880(5) 0.8268(9)
O5_7 O 0.3008(3) 0.0718(3) 0.0993(10)
H2_7 H 0.316376 0.165646 0.0193798
C1_7 C 0.3441(4) 0.1685(5) 0.4715(14)
C2_7 C 0.3379(4) 0.2122(4) 0.5471(14)
C3_7 C 0.3430(4) 0.1228(4) 0.5883(13)
C4_7 C 0.3492(5) 0.2613(4) 0.4034(13)
O2_7 O 0.3658(3) 0.2616(3) 0.2341(10)
C5_7 C 0.3225(4) 0.1649(5) 0.8619(14)
C6_7 C 0.3287(4) 0.1212(4) 0.7863(14)
C7_7 C 0.3236(4) 0.2106(4) 0.7451(13)
C8_7 C 0.3174(5) 0.0721(4) 0.9300(13)
H1_7 H 0.350291 0.167687 0.313954
O5_8 O 0.7709(4) 0.6992(3) 0.0993(10)
H2_8 H 0.849271 0.683624 0.0193798
C1_8 C 0.8243(6) 0.6559(4) 0.4715(14)
C2_8 C 0.8742(6) 0.6621(4) 0.5471(14)
C3_8 C 0.7797(6) 0.6570(4) 0.5883(13)
C4_8 C 0.9120(6) 0.6508(5) 0.4034(13)
O2_8 O 0.8957(4) 0.6342(3) 0.2341(10)
C5_8 C 0.8423(6) 0.6775(4) 0.8619(14)
C6_8 C 0.7924(6) 0.6713(4) 0.7863(14)
C7_8 C 0.8869(6) 0.6764(4) 0.7451(13)
C8_8 C 0.7546(6) 0.6826(5) 0.9300(13)
H1_8 H 0.817396 0.649709 0.313954
O5_9 O 0.9282(3) 0.2291(4) 0.0993(10)
H2_9 H 0.834354 0.150729 0.0193798
C1_9 C 0.8315(5) 0.1757(6) 0.4715(14)
C2_9 C 0.7878(4) 0.1258(6) 0.5471(14)
C3_9 C 0.8772(4) 0.2203(6) 0.5883(13)
C4_9 C 0.7387(4) 0.0880(6) 0.4034(13)
O2_9 O 0.7384(3) 0.1043(4) 0.2341(10)
C5_9 C 0.8351(5) 0.1577(6) 0.8619(14)
C6_9 C 0.8788(4) 0.2076(6) 0.7863(14)
C7_9 C 0.7894(4) 0.1131(6) 0.7451(13)
C8_9 C 0.9279(4) 0.2454(6) 0.9300(13)
H1_9 H 0.832313 0.182604 0.313954
loop_
_geom_bond_atom_site_label_1
_geom_bond_atom_site_label_2
_geom_bond_site_symmetry_1
_geom_bond_site_symmetry_2
C1 C2 1_555 1_555
C2 C4 1_555 1_555
C3 C1 1_555 1_555
C4 O2 1_555 1_555
O1 C3 1_555 1_555
O2 Co4 1_555 1_555
O3 C4 1_555 1_555
O8 Co4 1_555 1_555
O11 Co4 1_555 1_555
Co5 O1 1_555 1_555
Co6 O3 1_555 1_555
O8 Co6 1_555 1_555
C1 H1 1_555 1_555
C5 C6 1_555 1_555
C8 C6 1_555 1_555
O4 C7 1_555 1_555
O5 C8 1_555 1_555
O6 C8 1_555 1_555
Co3 O5 1_555 1_555
Co7 O6 1_555 1_555
C5 C7 1_555 1_555
O4 Co8 1_555 1_555
C5 H2 1_555 1_555
O9 Co3 1_555 1_555
O14 Co3 1_555 1_555
C5_2 C6_2 1_555 1_555
C8_2 C6_2 1_555 1_555
O4_2 C7_2 1_555 1_555
O5_2 C8_2 1_555 1_555
O6_2 C8_2 1_555 1_555
Co3_2 O5_2 1_555 1_555
Co7_2 O6_2 1_555 1_555
C5_2 C7_2 1_555 1_555
O4_2 Co8_2 1_555 1_555
C5_2 H2_2 1_555 1_555
O9_2 Co3_2 1_555 1_555
O14_2 Co3_2 1_555 1_555
C1_2 C2_2 1_555 1_555
C2_2 C4_2 1_555 1_555
C3_2 C1_2 1_555 1_555
C4_2 O2_2 1_555 1_555
O1_2 C3_2 1_555 1_555
O2_2 Co4_2 1_555 1_555
O3_2 C4_2 1_555 1_555
O8_2 Co4_2 1_555 1_555
O11_2 Co4_2 1_555 1_555
Co5_2 O1_2 1_555 1_555
Co6_2 O3_2 1_555 1_555
O8_2 Co6_2 1_555 1_555
C1_2 H1_2 1_555 1_555
C5_3 C6_3 1_555 1_555
C8_3 C6_3 1_555 1_555
O4_3 C7_3 1_555 1_555
O5_3 C8_3 1_555 1_555
O6_3 C8_3 1_555 1_555
Co3_3 O5_3 1_555 1_555
Co4_3 O4_3 1_555 1_555
Co7_3 O6_3 1_555 1_555
C5_3 C7_3 1_555 1_555
O4_3 Co8_3 1_555 1_555
C5_3 H2_3 1_555 1_555
C1_3 C2_3 1_555 1_555
C2_3 C4_3 1_555 1_555
C3_3 C1_3 1_555 1_555
C4_3 O2_3 1_555 1_555
O1_3 C3_3 1_555 1_555
O2_3 Co4_3 1_555 1_555
O3_3 C4_3 1_555 1_555
Co3_3 O1_3 1_555 1_555
O8_3 Co4_3 1_555 1_555
O9_3 Co3_3 1_555 1_555
O11_3 Co4_3 1_555 1_555
O12_3 Co3_3 1_555 1_555
O13_3 Co4_3 1_555 1_555
O14_3 Co3_3 1_555 1_555
Co5_3 O1_3 1_555 1_555
Co6_3 O3_3 1_555 1_555
O8_3 Co6_3 1_555 1_555
O13_3 Co6_3 1_555 1_555
O14_3 Co5_3 1_555 1_555
C1_3 H1_3 1_555 1_555
C1_4 C2_4 1_555 1_555
C2_4 C4_4 1_555 1_555
C3_4 C1_4 1_555 1_555
O1_4 C3_4 1_555 1_555
O11_2 C4_4 1_555 1_555
C5_4 C6_4 1_555 1_555
C6_4 C3_4 1_555 1_555
C7_4 C2_4 1_555 1_555
C8_4 C6_4 1_555 1_555
O8_2 C7_4 1_555 1_555
O5_4 C8_4 1_555 1_555
O12_3 C8_4 1_555 1_555
Co5_3 O5_4 1_555 1_555
Co7_3 O1_4 1_555 1_555
C5_4 C7_4 1_555 1_555
O12_3 Co7_3 1_555 1_555
C5_4 H2_4 1_555 1_555
O2_4 Co6_2 1_555 1_555
C1_5 C2_5 1_555 1_555
C2_5 C4_5 1_555 1_555
C3_5 C1_5 1_555 1_555
O1_5 C3_5 1_555 1_555
O11_3 C4_5 1_555 1_555
C5_5 C6_5 1_555 1_555
C6_5 C3_5 1_555 1_555
C7_5 C2_5 1_555 1_555
C8_5 C6_5 1_555 1_555
O8_3 C7_5 1_555 1_555
O5_5 C8_5 1_555 1_555
O12 C8_5 1_555 1_555
Co5 O5_5 1_555 1_555
Co8_3 O11_3 1_555 1_555
C5_5 C7_5 1_555 1_555
C5_5 H2_5 1_555 1_555
O2_5 Co6_3 1_555 1_555
O8_5 Co6_3 1_555 1_555
C1_6 C2_6 1_555 1_555
C2_6 C4_6 1_555 1_555
C3_6 C1_6 1_555 1_555
O1_6 C3_6 1_555 1_555
O11 C4_6 1_555 1_555
C5_6 C6_6 1_555 1_555
C6_6 C3_6 1_555 1_555
C7_6 C2_6 1_555 1_555
C8_6 C6_6 1_555 1_555
O8 C7_6 1_555 1_555
O5_6 C8_6 1_555 1_555
O12_2 C8_6 1_555 1_555
Co5_2 O5_6 1_555 1_555
C5_6 C7_6 1_555 1_555
C5_6 H2_6 1_555 1_555
O2_6 Co6 1_555 1_555
Co7_2 O5_7 1_555 1_555
C1_7 C2_7 1_555 1_555
C2_7 C4_7 1_555 1_555
C3_7 C1_7 1_555 1_555
C4_7 O2_7 1_555 1_555
O9_2 C3_7 1_555 1_555
O2_7 Co8_3 1_555 1_555
O13_3 C4_7 1_555 1_555
Co7_2 O9_2 1_555 1_555
C5_7 C6_7 1_555 1_555
C6_7 C3_7 1_555 1_555
C7_7 C2_7 1_555 1_555
C8_7 C6_7 1_555 1_555
O8_5 C7_7 1_555 1_555
O14_2 C8_7 1_555 1_555
C5_7 C7_7 1_555 1_555
C1_7 H1_7 1_555 1_555
Co7_3 O5_8 1_555 1_555
C1_8 C2_8 1_555 1_555
C2_8 C4_8 1_555 1_555
C3_8 C1_8 1_555 1_555
C4_8 O2_8 1_555 1_555
O9_3 C3_8 1_555 1_555
O2_8 Co8 1_555 1_555
O13 C4_8 1_555 1_555
Co7_3 O9_3 1_555 1_555
C5_8 C6_8 1_555 1_555
C6_8 C3_8 1_555 1_555
C7_8 C2_8 1_555 1_555
C8_8 C6_8 1_555 1_555
O8_6 C7_8 1_555 1_555
O14_3 C8_8 1_555 1_555
C5_8 C7_8 1_555 1_555
C1_8 H1_8 1_555 1_555
Co7 O5_9 1_555 1_555
C1_9 C2_9 1_555 1_555
C2_9 C4_9 1_555 1_555
C3_9 C1_9 1_555 1_555
C4_9 O2_9 1_555 1_555
O9 C3_9 1_555 1_555
O2_9 Co8_2 1_555 1_555
O13_2 C4_9 1_555 1_555
Co7 O9 1_555 1_555
C5_9 C6_9 1_555 1_555
C6_9 C3_9 1_555 1_555
C7_9 C2_9 1_555 1_555
C8_9 C6_9 1_555 1_555
O8_4 C7_9 1_555 1_555
O14 C8_9 1_555 1_555
C5_9 C7_9 1_555 1_555
C1_9 H1_9 1_555 1_555

#END
