
###############################################################################
#
# This file contains modified crystal structure data generated from the
# MOF subset of the Cambridge Structural Database (CSD) v543 
# hosted by the Cambridge Crystallographic Data Centre (CCDC).
#
# This work is licensed under the Creative Commons
# Attribution-NonCommercial-ShareAlike 4.0 International License.
# To view a copy of this license, visit
# http://creativecommons.org/licenses/by-nc-sa/4.0/
# or send a letter to
# Creative Commons, PO Box 1866, Mountain View, CA 94042, USA.
#
# CIF created using the CSD Python API on 29 September 2022
# The structure has been converted into the P1 space group
# The structure has a 3D framework
# The original CSD entry MOQBEC21 is in the rhombohedral crystal system
# The framework has been calculated to contain at least 10.0% void space
# The void calculation uses a probe of radius 1.32A, grid spacing 0.4
# H atom positions have been added when not included in the experimental data
#
###############################################################################

data_MOQBEC21
_chemical_formula_moiety         '(C72 H18 Co13 O51)n'
_symmetry_cell_setting           triclinic
_symmetry_space_group_name_H-M   'P 1'
_symmetry_Int_Tables_number      1
_space_group_name_Hall           'P 1'
loop_
_symmetry_equiv_pos_site_id
_symmetry_equiv_pos_as_xyz
1 x,y,z
_cell_length_a                   25.9593(3)
_cell_length_b                   25.9593(3)
_cell_length_c                   6.82893(8)
_cell_angle_alpha                90
_cell_angle_beta                 90
_cell_angle_gamma                120
_cell_volume                     3985.38
loop_
_atom_site_label
_atom_site_type_symbol
_atom_site_fract_x
_atom_site_fract_y
_atom_site_fract_z
Co4 Co 0.02986(6) 0.64732(7) 0.3574(2)
C1 C 0.0107(4) 0.5021(5) 0.8048(15)
C2 C 0.0053(5) 0.5459(5) 0.8806(15)
C3 C 0.0096(4) 0.4561(4) 0.9218(14)
C4 C 0.0159(5) 0.5950(4) 0.7348(13)
O1 O 0.0215(2) 0.4134(3) 0.8398(9)
O2 O 0.0332(3) 0.5964(3) 0.5662(10)
O3 O 0.0068(2) 0.6368(3) 0.8032(8)
O8 O 0.0801(3) 0.7252(4) 0.4935(9)
O11 O 0.0299(3) 0.7033(4) 0.1365(8)
O12 O 0.0367(4) 0.3401(2) 0.5301(8)
Co5 Co 0.04921(9) 0.36319(6) 0.9759(2)
Co6 Co 0.01935(7) 0.71587(9) 0.6907(2)
H2 H 0.0162008 0.501049 0.647023
C5 C 0.9893(4) 0.4979(5) 0.1952(15)
C6 C 0.9947(5) 0.4541(5) 0.1194(15)
C7 C 0.9904(4) 0.5439(4) 0.0782(14)
C8 C 0.9841(5) 0.4050(4) 0.2652(13)
O4 O 0.9785(2) 0.5866(3) 0.1602(9)
O5 O 0.9668(3) 0.4036(3) 0.4338(10)
O6 O 0.9932(2) 0.3632(3) 0.1968(8)
Co3 Co 0.97014(6) 0.35268(7) 0.6426(2)
Co7 Co 0.98065(7) 0.28413(9) 0.3093(2)
Co8 Co 0.95079(9) 0.63681(6) 0.0241(2)
H1 H 0.983799 0.498951 0.352977
O9 O 0.9199(3) 0.2748(4) 0.5065(9)
O13 O 0.9633(4) 0.6599(2) 0.4699(8)
O14 O 0.9701(3) 0.2967(4) 0.8635(8)
C5_2 C 0.5086(6) 0.0107(4) 0.1952(15)
C6_2 C 0.4594(7) 0.0053(5) 0.1194(15)
C7_2 C 0.5535(6) 0.0096(4) 0.0782(14)
C8_2 C 0.4209(6) 0.0159(5) 0.2652(13)
O4_2 O 0.6081(4) 0.0215(2) 0.1602(9)
O5_2 O 0.4368(4) 0.0332(3) 0.4338(10)
O6_2 O 0.3700(4) 0.0068(2) 0.1968(8)
Co3_2 Co 0.38254(9) 0.02986(6) 0.6426(2)
Co7_2 Co 0.30347(11) 0.01935(7) 0.3093(2)
Co8_2 Co 0.68601(11) 0.04921(9) 0.0241(2)
H1_2 H 0.515151 0.0162008 0.352977
O9_2 O 0.3548(5) 0.0801(3) 0.5065(9)
O13_2 O 0.6965(4) 0.0367(4) 0.4699(8)
O14_2 O 0.3265(5) 0.0299(3) 0.8635(8)
Co4_2 Co 0.61746(9) 0.97014(6) 0.3574(2)
C1_2 C 0.4914(6) 0.9893(4) 0.8048(15)
C2_2 C 0.5406(7) 0.9947(5) 0.8806(15)
C3_2 C 0.4465(6) 0.9904(4) 0.9218(14)
C4_2 C 0.5791(6) 0.9841(5) 0.7348(13)
O1_2 O 0.3919(4) 0.9785(2) 0.8398(9)
O2_2 O 0.5632(4) 0.9668(3) 0.5662(10)
O3_2 O 0.6300(4) 0.9932(2) 0.8032(8)
O8_2 O 0.6452(5) 0.9199(3) 0.4935(9)
O11_2 O 0.6735(5) 0.9701(3) 0.1365(8)
O12_2 O 0.3035(4) 0.9633(4) 0.5301(8)
Co5_2 Co 0.31399(11) 0.95079(9) 0.9759(2)
Co6_2 Co 0.69653(11) 0.98065(7) 0.6907(2)
H2_2 H 0.484849 0.983799 0.647023
C5_3 C 0.5021(5) 0.4914(6) 0.1952(15)
C6_3 C 0.5459(5) 0.5406(7) 0.1194(15)
C7_3 C 0.4561(4) 0.4465(6) 0.0782(14)
C8_3 C 0.5950(4) 0.5791(6) 0.2652(13)
O4_3 O 0.4134(3) 0.3919(4) 0.1602(9)
O5_3 O 0.5964(3) 0.5632(4) 0.4338(10)
O6_3 O 0.6368(3) 0.6300(4) 0.1968(8)
Co3_3 Co 0.64732(7) 0.61746(9) 0.6426(2)
Co4_3 Co 0.35268(7) 0.38254(9) 0.3574(2)
Co7_3 Co 0.71587(9) 0.69653(11) 0.3093(2)
Co8_3 Co 0.36319(6) 0.31399(11) 0.0241(2)
H1_3 H 0.501049 0.484849 0.352977
C1_3 C 0.4979(5) 0.5086(6) 0.8048(15)
C2_3 C 0.4541(5) 0.4594(7) 0.8806(15)
C3_3 C 0.5439(4) 0.5535(6) 0.9218(14)
C4_3 C 0.4050(4) 0.4209(6) 0.7348(13)
O1_3 O 0.5866(3) 0.6081(4) 0.8398(9)
O2_3 O 0.4036(3) 0.4368(4) 0.5662(10)
O3_3 O 0.3632(3) 0.3700(4) 0.8032(8)
O8_3 O 0.2748(4) 0.3548(5) 0.4935(9)
O9_3 O 0.7252(4) 0.6452(5) 0.5065(9)
O11_3 O 0.2967(4) 0.3265(5) 0.1365(8)
O12_3 O 0.6599(2) 0.6965(4) 0.5301(8)
O13_3 O 0.3401(2) 0.3035(4) 0.4699(8)
O14_3 O 0.7033(4) 0.6735(5) 0.8635(8)
Co5_3 Co 0.63681(6) 0.68601(11) 0.9759(2)
Co6_3 Co 0.28413(9) 0.30347(11) 0.6907(2)
H2_3 H 0.498951 0.515151 0.647023
O8_4 O 0.7467(3) 0.0586(4) 0.8269(9)
C1_4 C 0.6774(4) 0.8354(5) 0.1381(15)
C2_4 C 0.6720(5) 0.8792(5) 0.2139(15)
C3_4 C 0.6763(4) 0.7894(4) 0.2551(14)
C4_4 C 0.6826(5) 0.9283(4) 0.0681(13)
O1_4 O 0.6882(2) 0.7467(3) 0.1731(9)
C5_4 C 0.6560(4) 0.8312(5) 0.5285(15)
C6_4 C 0.6614(5) 0.7874(5) 0.4527(15)
C7_4 C 0.6571(4) 0.8772(4) 0.4115(14)
C8_4 C 0.6508(5) 0.7383(4) 0.5985(13)
O5_4 O 0.6335(3) 0.7369(3) 0.7671(10)
H1_4 H 0.650466 0.832284 0.68631
O2_4 O 0.6999(3) 0.9297(3) 0.8995(10)
H2_4 H 0.682867 0.834383 0.980356
C1_5 C 0.1581(6) 0.3226(4) 0.1381(15)
C2_5 C 0.2073(7) 0.3280(5) 0.2139(15)
C3_5 C 0.1132(6) 0.3237(4) 0.2551(14)
C4_5 C 0.2458(6) 0.3174(5) 0.0681(13)
O1_5 O 0.0586(4) 0.3118(2) 0.1731(9)
C5_5 C 0.1753(6) 0.3440(4) 0.5285(15)
C6_5 C 0.1261(7) 0.3386(5) 0.4527(15)
C7_5 C 0.2202(6) 0.3429(4) 0.4115(14)
C8_5 C 0.0876(6) 0.3492(5) 0.5985(13)
O5_5 O 0.1035(4) 0.3665(3) 0.7671(10)
H1_5 H 0.181818 0.349534 0.68631
O2_5 O 0.2299(4) 0.3001(3) 0.8995(10)
O8_5 O 0.3118(5) 0.2533(3) 0.8269(9)
H2_5 H 0.151515 0.317133 0.980356
C1_6 C 0.1646(5) 0.8419(6) 0.1381(15)
C2_6 C 0.1208(5) 0.7927(7) 0.2139(15)
C3_6 C 0.2106(4) 0.8868(6) 0.2551(14)
C4_6 C 0.0717(4) 0.7542(6) 0.0681(13)
O1_6 O 0.2533(3) 0.9414(4) 0.1731(9)
C5_6 C 0.1688(5) 0.8247(6) 0.5285(15)
C6_6 C 0.2126(5) 0.8739(7) 0.4527(15)
C7_6 C 0.1228(4) 0.7798(6) 0.4115(14)
C8_6 C 0.2617(4) 0.9124(6) 0.5985(13)
O5_6 O 0.2631(3) 0.8965(4) 0.7671(10)
H1_6 H 0.167716 0.818182 0.68631
O2_6 O 0.0703(3) 0.7701(4) 0.8995(10)
H2_6 H 0.165617 0.848485 0.980356
O8_6 O 0.9414(4) 0.6882(5) 0.8269(9)
O5_7 O 0.3001(3) 0.0703(3) 0.1005(10)
H1_7 H 0.317133 0.165617 0.0196435
C1_7 C 0.3440(4) 0.1688(5) 0.4715(15)
C2_7 C 0.3386(5) 0.2126(5) 0.5473(15)
C3_7 C 0.3429(4) 0.1228(4) 0.5885(14)
C4_7 C 0.3492(5) 0.2617(4) 0.4015(13)
O2_7 O 0.3665(3) 0.2631(3) 0.2329(10)
C5_7 C 0.3226(4) 0.1646(5) 0.8619(15)
C6_7 C 0.3280(5) 0.1208(5) 0.7861(15)
C7_7 C 0.3237(4) 0.2106(4) 0.7449(14)
C8_7 C 0.3174(5) 0.0717(4) 0.9319(13)
H2_7 H 0.349534 0.167716 0.31369
O5_8 O 0.7701(4) 0.6999(3) 0.1005(10)
H1_8 H 0.848485 0.682867 0.0196435
C1_8 C 0.8247(6) 0.6560(4) 0.4715(15)
C2_8 C 0.8739(7) 0.6614(5) 0.5473(15)
C3_8 C 0.7798(6) 0.6571(4) 0.5885(14)
C4_8 C 0.9124(6) 0.6508(5) 0.4015(13)
O2_8 O 0.8965(4) 0.6335(3) 0.2329(10)
C5_8 C 0.8419(6) 0.6774(4) 0.8619(15)
C6_8 C 0.7927(7) 0.6720(5) 0.7861(15)
C7_8 C 0.8868(6) 0.6763(4) 0.7449(14)
C8_8 C 0.7542(6) 0.6826(5) 0.9319(13)
H2_8 H 0.818182 0.650466 0.31369
O5_9 O 0.9297(3) 0.2299(4) 0.1005(10)
H1_9 H 0.834383 0.151515 0.0196435
C1_9 C 0.8312(5) 0.1753(6) 0.4715(15)
C2_9 C 0.7874(5) 0.1261(7) 0.5473(15)
C3_9 C 0.8772(4) 0.2202(6) 0.5885(14)
C4_9 C 0.7383(4) 0.0876(6) 0.4015(13)
O2_9 O 0.7369(3) 0.1035(4) 0.2329(10)
C5_9 C 0.8354(5) 0.1581(6) 0.8619(15)
C6_9 C 0.8792(5) 0.2073(7) 0.7861(15)
C7_9 C 0.7894(4) 0.1132(6) 0.7449(14)
C8_9 C 0.9283(4) 0.2458(6) 0.9319(13)
H2_9 H 0.832284 0.181818 0.31369
loop_
_geom_bond_atom_site_label_1
_geom_bond_atom_site_label_2
_geom_bond_site_symmetry_1
_geom_bond_site_symmetry_2
C1 C2 1_555 1_555
C2 C4 1_555 1_555
C3 C1 1_555 1_555
C4 O2 1_555 1_555
O1 C3 1_555 1_555
O2 Co4 1_555 1_555
O3 C4 1_555 1_555
O8 Co4 1_555 1_555
O11 Co4 1_555 1_555
Co5 O1 1_555 1_555
Co6 O3 1_555 1_555
O8 Co6 1_555 1_555
C1 H2 1_555 1_555
C5 C6 1_555 1_555
C8 C6 1_555 1_555
O4 C7 1_555 1_555
O5 C8 1_555 1_555
O6 C8 1_555 1_555
Co3 O5 1_555 1_555
Co7 O6 1_555 1_555
C5 C7 1_555 1_555
O4 Co8 1_555 1_555
C5 H1 1_555 1_555
O9 Co3 1_555 1_555
O14 Co3 1_555 1_555
C5_2 C6_2 1_555 1_555
C8_2 C6_2 1_555 1_555
O4_2 C7_2 1_555 1_555
O5_2 C8_2 1_555 1_555
O6_2 C8_2 1_555 1_555
Co3_2 O5_2 1_555 1_555
Co7_2 O6_2 1_555 1_555
C5_2 C7_2 1_555 1_555
O4_2 Co8_2 1_555 1_555
C5_2 H1_2 1_555 1_555
O9_2 Co3_2 1_555 1_555
O14_2 Co3_2 1_555 1_555
C1_2 C2_2 1_555 1_555
C2_2 C4_2 1_555 1_555
C3_2 C1_2 1_555 1_555
C4_2 O2_2 1_555 1_555
O1_2 C3_2 1_555 1_555
O2_2 Co4_2 1_555 1_555
O3_2 C4_2 1_555 1_555
O8_2 Co4_2 1_555 1_555
O11_2 Co4_2 1_555 1_555
Co5_2 O1_2 1_555 1_555
Co6_2 O3_2 1_555 1_555
O8_2 Co6_2 1_555 1_555
C1_2 H2_2 1_555 1_555
C5_3 C6_3 1_555 1_555
C8_3 C6_3 1_555 1_555
O4_3 C7_3 1_555 1_555
O5_3 C8_3 1_555 1_555
O6_3 C8_3 1_555 1_555
Co3_3 O5_3 1_555 1_555
Co4_3 O4_3 1_555 1_555
Co7_3 O6_3 1_555 1_555
C5_3 C7_3 1_555 1_555
O4_3 Co8_3 1_555 1_555
C5_3 H1_3 1_555 1_555
C1_3 C2_3 1_555 1_555
C2_3 C4_3 1_555 1_555
C3_3 C1_3 1_555 1_555
C4_3 O2_3 1_555 1_555
O1_3 C3_3 1_555 1_555
O2_3 Co4_3 1_555 1_555
O3_3 C4_3 1_555 1_555
Co3_3 O1_3 1_555 1_555
O8_3 Co4_3 1_555 1_555
O9_3 Co3_3 1_555 1_555
O11_3 Co4_3 1_555 1_555
O12_3 Co3_3 1_555 1_555
O13_3 Co4_3 1_555 1_555
O14_3 Co3_3 1_555 1_555
Co5_3 O1_3 1_555 1_555
Co6_3 O3_3 1_555 1_555
O8_3 Co6_3 1_555 1_555
O13_3 Co6_3 1_555 1_555
O14_3 Co5_3 1_555 1_555
C1_3 H2_3 1_555 1_555
C1_4 C2_4 1_555 1_555
C2_4 C4_4 1_555 1_555
C3_4 C1_4 1_555 1_555
O1_4 C3_4 1_555 1_555
O11_2 C4_4 1_555 1_555
C5_4 C6_4 1_555 1_555
C6_4 C3_4 1_555 1_555
C7_4 C2_4 1_555 1_555
C8_4 C6_4 1_555 1_555
O8_2 C7_4 1_555 1_555
O5_4 C8_4 1_555 1_555
O12_3 C8_4 1_555 1_555
Co5_3 O5_4 1_555 1_555
Co7_3 O1_4 1_555 1_555
C5_4 C7_4 1_555 1_555
O12_3 Co7_3 1_555 1_555
C5_4 H1_4 1_555 1_555
O2_4 Co6_2 1_555 1_555
C1_5 C2_5 1_555 1_555
C2_5 C4_5 1_555 1_555
C3_5 C1_5 1_555 1_555
O1_5 C3_5 1_555 1_555
O11_3 C4_5 1_555 1_555
C5_5 C6_5 1_555 1_555
C6_5 C3_5 1_555 1_555
C7_5 C2_5 1_555 1_555
C8_5 C6_5 1_555 1_555
O8_3 C7_5 1_555 1_555
O5_5 C8_5 1_555 1_555
O12 C8_5 1_555 1_555
Co5 O5_5 1_555 1_555
Co8_3 O11_3 1_555 1_555
C5_5 C7_5 1_555 1_555
C5_5 H1_5 1_555 1_555
O2_5 Co6_3 1_555 1_555
O8_5 Co6_3 1_555 1_555
C1_6 C2_6 1_555 1_555
C2_6 C4_6 1_555 1_555
C3_6 C1_6 1_555 1_555
O1_6 C3_6 1_555 1_555
O11 C4_6 1_555 1_555
C5_6 C6_6 1_555 1_555
C6_6 C3_6 1_555 1_555
C7_6 C2_6 1_555 1_555
C8_6 C6_6 1_555 1_555
O8 C7_6 1_555 1_555
O5_6 C8_6 1_555 1_555
O12_2 C8_6 1_555 1_555
Co5_2 O5_6 1_555 1_555
C5_6 C7_6 1_555 1_555
C5_6 H1_6 1_555 1_555
O2_6 Co6 1_555 1_555
Co7_2 O5_7 1_555 1_555
C1_7 C2_7 1_555 1_555
C2_7 C4_7 1_555 1_555
C3_7 C1_7 1_555 1_555
C4_7 O2_7 1_555 1_555
O9_2 C3_7 1_555 1_555
O2_7 Co8_3 1_555 1_555
O13_3 C4_7 1_555 1_555
Co7_2 O9_2 1_555 1_555
C5_7 C6_7 1_555 1_555
C6_7 C3_7 1_555 1_555
C7_7 C2_7 1_555 1_555
C8_7 C6_7 1_555 1_555
O8_5 C7_7 1_555 1_555
O14_2 C8_7 1_555 1_555
C5_7 C7_7 1_555 1_555
C1_7 H2_7 1_555 1_555
Co7_3 O5_8 1_555 1_555
C1_8 C2_8 1_555 1_555
C2_8 C4_8 1_555 1_555
C3_8 C1_8 1_555 1_555
C4_8 O2_8 1_555 1_555
O9_3 C3_8 1_555 1_555
O2_8 Co8 1_555 1_555
O13 C4_8 1_555 1_555
Co7_3 O9_3 1_555 1_555
C5_8 C6_8 1_555 1_555
C6_8 C3_8 1_555 1_555
C7_8 C2_8 1_555 1_555
C8_8 C6_8 1_555 1_555
O8_6 C7_8 1_555 1_555
O14_3 C8_8 1_555 1_555
C5_8 C7_8 1_555 1_555
C1_8 H2_8 1_555 1_555
Co7 O5_9 1_555 1_555
C1_9 C2_9 1_555 1_555
C2_9 C4_9 1_555 1_555
C3_9 C1_9 1_555 1_555
C4_9 O2_9 1_555 1_555
O9 C3_9 1_555 1_555
O2_9 Co8_2 1_555 1_555
O13_2 C4_9 1_555 1_555
Co7 O9 1_555 1_555
C5_9 C6_9 1_555 1_555
C6_9 C3_9 1_555 1_555
C7_9 C2_9 1_555 1_555
C8_9 C6_9 1_555 1_555
O8_4 C7_9 1_555 1_555
O14 C8_9 1_555 1_555
C5_9 C7_9 1_555 1_555
C1_9 H2_9 1_555 1_555

#END
