
###############################################################################
#
# This file contains modified crystal structure data generated from the
# MOF subset of the Cambridge Structural Database (CSD) v543 
# hosted by the Cambridge Crystallographic Data Centre (CCDC).
#
# This work is licensed under the Creative Commons
# Attribution-NonCommercial-ShareAlike 4.0 International License.
# To view a copy of this license, visit
# http://creativecommons.org/licenses/by-nc-sa/4.0/
# or send a letter to
# Creative Commons, PO Box 1866, Mountain View, CA 94042, USA.
#
# CIF created using the CSD Python API on 29 September 2022
# The structure has been converted into the P1 space group
# The structure has a 3D framework
# The original CSD entry MOQBEC39 is in the rhombohedral crystal system
# The framework has been calculated to contain at least 10.0% void space
# The void calculation uses a probe of radius 1.32A, grid spacing 0.4
# H atom positions have been added when not included in the experimental data
#
###############################################################################

data_MOQBEC39
_chemical_formula_moiety         '(C72 H18 Co13 O51)n'
_symmetry_cell_setting           triclinic
_symmetry_space_group_name_H-M   'P 1'
_symmetry_Int_Tables_number      1
_space_group_name_Hall           'P 1'
loop_
_symmetry_equiv_pos_site_id
_symmetry_equiv_pos_as_xyz
1 x,y,z
_cell_length_a                   25.9628(3)
_cell_length_b                   25.9628(3)
_cell_length_c                   6.82735(7)
_cell_angle_alpha                90
_cell_angle_beta                 90
_cell_angle_gamma                120
_cell_volume                     3985.53
loop_
_atom_site_label
_atom_site_type_symbol
_atom_site_fract_x
_atom_site_fract_y
_atom_site_fract_z
Co4 Co 0.02952(6) 0.64723(6) 0.35781(19)
C1 C 0.0131(4) 0.5025(5) 0.8056(14)
C2 C 0.0056(4) 0.5460(4) 0.8812(14)
C3 C 0.0094(4) 0.4558(4) 0.9205(13)
C4 C 0.0158(5) 0.5949(4) 0.7347(13)
O1 O 0.0215(2) 0.4137(2) 0.8397(9)
O2 O 0.0332(3) 0.5958(3) 0.5661(10)
O3 O 0.0062(2) 0.6358(3) 0.8026(7)
O8 O 0.0804(2) 0.7255(3) 0.4936(9)
O11 O 0.0309(3) 0.7037(4) 0.1359(7)
O12 O 0.0371(4) 0.3395(2) 0.5307(7)
Co5 Co 0.04896(8) 0.36285(6) 0.97552(19)
Co6 Co 0.01944(6) 0.71562(8) 0.69114(19)
H2 H 0.0223841 0.503379 0.649708
C5 C 0.9869(4) 0.4975(5) 0.1944(14)
C6 C 0.9944(4) 0.4540(4) 0.1188(14)
C7 C 0.9906(4) 0.5442(4) 0.0795(13)
C8 C 0.9842(5) 0.4051(4) 0.2653(13)
O4 O 0.9785(2) 0.5863(2) 0.1603(9)
O5 O 0.9668(3) 0.4042(3) 0.4339(10)
O6 O 0.9938(2) 0.3642(3) 0.1974(7)
Co3 Co 0.97048(6) 0.35277(6) 0.64219(19)
Co7 Co 0.98056(6) 0.28438(8) 0.30886(19)
Co8 Co 0.95104(8) 0.63715(6) 0.02448(19)
H1 H 0.977616 0.496621 0.350292
O9 O 0.9196(2) 0.2745(3) 0.5064(9)
O13 O 0.9629(4) 0.6605(2) 0.4693(7)
O14 O 0.9691(3) 0.2963(4) 0.8641(7)
C5_2 C 0.5106(6) 0.0131(4) 0.1944(14)
C6_2 C 0.4596(6) 0.0056(4) 0.1188(14)
C7_2 C 0.5536(6) 0.0094(4) 0.0795(13)
C8_2 C 0.4209(6) 0.0158(5) 0.2653(13)
O4_2 O 0.6078(3) 0.0215(2) 0.1603(9)
O5_2 O 0.4374(4) 0.0332(3) 0.4339(10)
O6_2 O 0.3704(4) 0.0062(2) 0.1974(7)
Co3_2 Co 0.38229(8) 0.02952(6) 0.64219(19)
Co7_2 Co 0.30381(10) 0.01944(6) 0.30886(19)
Co8_2 Co 0.68610(10) 0.04896(8) 0.02448(19)
H1_2 H 0.519005 0.0223841 0.350292
O9_2 O 0.3548(4) 0.0804(2) 0.5064(9)
O13_2 O 0.6975(4) 0.0371(4) 0.4693(7)
O14_2 O 0.3271(5) 0.0309(3) 0.8641(7)
Co4_2 Co 0.61771(8) 0.97048(6) 0.35781(19)
C1_2 C 0.4894(6) 0.9869(4) 0.8056(14)
C2_2 C 0.5404(6) 0.9944(4) 0.8812(14)
C3_2 C 0.4464(6) 0.9906(4) 0.9205(13)
C4_2 C 0.5791(6) 0.9842(5) 0.7347(13)
O1_2 O 0.3922(3) 0.9785(2) 0.8397(9)
O2_2 O 0.5626(4) 0.9668(3) 0.5661(10)
O3_2 O 0.6296(4) 0.9938(2) 0.8026(7)
O8_2 O 0.6452(4) 0.9196(2) 0.4936(9)
O11_2 O 0.6729(5) 0.9691(3) 0.1359(7)
O12_2 O 0.3025(4) 0.9629(4) 0.5307(7)
Co5_2 Co 0.31390(10) 0.95104(8) 0.97552(19)
Co6_2 Co 0.69619(10) 0.98056(6) 0.69114(19)
H2_2 H 0.480995 0.977616 0.649708
C5_3 C 0.5025(5) 0.4894(6) 0.1944(14)
C6_3 C 0.5460(4) 0.5404(6) 0.1188(14)
C7_3 C 0.4558(4) 0.4464(6) 0.0795(13)
C8_3 C 0.5949(4) 0.5791(6) 0.2653(13)
O4_3 O 0.4137(2) 0.3922(3) 0.1603(9)
O5_3 O 0.5958(3) 0.5626(4) 0.4339(10)
O6_3 O 0.6358(3) 0.6296(4) 0.1974(7)
Co3_3 Co 0.64723(6) 0.61771(8) 0.64219(19)
Co4_3 Co 0.35277(6) 0.38229(8) 0.35781(19)
Co7_3 Co 0.71562(8) 0.69619(10) 0.30886(19)
Co8_3 Co 0.36285(6) 0.31390(10) 0.02448(19)
H1_3 H 0.503379 0.480995 0.350292
C1_3 C 0.4975(5) 0.5106(6) 0.8056(14)
C2_3 C 0.4540(4) 0.4596(6) 0.8812(14)
C3_3 C 0.5442(4) 0.5536(6) 0.9205(13)
C4_3 C 0.4051(4) 0.4209(6) 0.7347(13)
O1_3 O 0.5863(2) 0.6078(3) 0.8397(9)
O2_3 O 0.4042(3) 0.4374(4) 0.5661(10)
O3_3 O 0.3642(3) 0.3704(4) 0.8026(7)
O8_3 O 0.2745(3) 0.3548(4) 0.4936(9)
O9_3 O 0.7255(3) 0.6452(4) 0.5064(9)
O11_3 O 0.2963(4) 0.3271(5) 0.1359(7)
O12_3 O 0.6605(2) 0.6975(4) 0.5307(7)
O13_3 O 0.3395(2) 0.3025(4) 0.4693(7)
O14_3 O 0.7037(4) 0.6729(5) 0.8641(7)
Co5_3 Co 0.63715(6) 0.68610(10) 0.97552(19)
Co6_3 Co 0.28438(8) 0.30381(10) 0.69114(19)
H2_3 H 0.496621 0.519005 0.649708
O8_4 O 0.7470(2) 0.0589(3) 0.8270(9)
C1_4 C 0.6798(4) 0.8358(5) 0.1389(14)
C2_4 C 0.6723(4) 0.8793(4) 0.2145(14)
C3_4 C 0.6761(4) 0.7891(4) 0.2538(13)
C4_4 C 0.6825(5) 0.9282(4) 0.0680(13)
O1_4 O 0.6882(2) 0.7470(2) 0.1730(9)
C5_4 C 0.6536(4) 0.8308(5) 0.5277(14)
C6_4 C 0.6611(4) 0.7873(4) 0.4521(14)
C7_4 C 0.6573(4) 0.8775(4) 0.4128(13)
C8_4 C 0.6509(5) 0.7384(4) 0.5986(13)
O5_4 O 0.6335(3) 0.7375(3) 0.7672(10)
H1_4 H 0.644283 0.829955 0.683625
O2_4 O 0.6999(3) 0.9291(3) 0.8994(10)
H2_4 H 0.689051 0.836712 0.983041
C1_5 C 0.1561(6) 0.3202(4) 0.1389(14)
C2_5 C 0.2071(6) 0.3277(4) 0.2145(14)
C3_5 C 0.1131(6) 0.3239(4) 0.2538(13)
C4_5 C 0.2458(6) 0.3175(5) 0.0680(13)
O1_5 O 0.0589(3) 0.3118(2) 0.1730(9)
C5_5 C 0.1773(6) 0.3464(4) 0.5277(14)
C6_5 C 0.1263(6) 0.3389(4) 0.4521(14)
C7_5 C 0.2203(6) 0.3427(4) 0.4128(13)
C8_5 C 0.0876(6) 0.3491(5) 0.5986(13)
O5_5 O 0.1041(4) 0.3665(3) 0.7672(10)
H1_5 H 0.185672 0.355717 0.683625
O2_5 O 0.2293(4) 0.3001(3) 0.8994(10)
O8_5 O 0.3118(4) 0.2530(2) 0.8270(9)
H2_5 H 0.147661 0.310949 0.983041
C1_6 C 0.1642(5) 0.8439(6) 0.1389(14)
C2_6 C 0.1207(4) 0.7929(6) 0.2145(14)
C3_6 C 0.2109(4) 0.8869(6) 0.2538(13)
C4_6 C 0.0718(4) 0.7542(6) 0.0680(13)
O1_6 O 0.2530(2) 0.9411(3) 0.1730(9)
C5_6 C 0.1692(5) 0.8227(6) 0.5277(14)
C6_6 C 0.2127(4) 0.8737(6) 0.4521(14)
C7_6 C 0.1225(4) 0.7797(6) 0.4128(13)
C8_6 C 0.2616(4) 0.9124(6) 0.5986(13)
O5_6 O 0.2625(3) 0.8959(4) 0.7672(10)
H1_6 H 0.170045 0.814328 0.683625
O2_6 O 0.0709(3) 0.7707(4) 0.8994(10)
H2_6 H 0.163288 0.852339 0.983041
O8_6 O 0.9411(3) 0.6882(4) 0.8270(9)
O5_7 O 0.3001(3) 0.0709(3) 0.1006(10)
H1_7 H 0.310949 0.163288 0.0169588
C1_7 C 0.3464(4) 0.1692(5) 0.4723(14)
C2_7 C 0.3389(4) 0.2127(4) 0.5479(14)
C3_7 C 0.3427(4) 0.1225(4) 0.5872(13)
C4_7 C 0.3491(5) 0.2616(4) 0.4014(13)
O2_7 O 0.3665(3) 0.2625(3) 0.2328(10)
C5_7 C 0.3202(4) 0.1642(5) 0.8611(14)
C6_7 C 0.3277(4) 0.1207(4) 0.7855(14)
C7_7 C 0.3239(4) 0.2109(4) 0.7462(13)
C8_7 C 0.3175(5) 0.0718(4) 0.9320(13)
H2_7 H 0.355717 0.170045 0.316375
O5_8 O 0.7707(4) 0.6999(3) 0.1006(10)
H1_8 H 0.852339 0.689051 0.0169588
C1_8 C 0.8227(6) 0.6536(4) 0.4723(14)
C2_8 C 0.8737(6) 0.6611(4) 0.5479(14)
C3_8 C 0.7797(6) 0.6573(4) 0.5872(13)
C4_8 C 0.9124(6) 0.6509(5) 0.4014(13)
O2_8 O 0.8959(4) 0.6335(3) 0.2328(10)
C5_8 C 0.8439(6) 0.6798(4) 0.8611(14)
C6_8 C 0.7929(6) 0.6723(4) 0.7855(14)
C7_8 C 0.8869(6) 0.6761(4) 0.7462(13)
C8_8 C 0.7542(6) 0.6825(5) 0.9320(13)
H2_8 H 0.814328 0.644283 0.316375
O5_9 O 0.9291(3) 0.2293(4) 0.1006(10)
H1_9 H 0.836712 0.147661 0.0169588
C1_9 C 0.8308(5) 0.1773(6) 0.4723(14)
C2_9 C 0.7873(4) 0.1263(6) 0.5479(14)
C3_9 C 0.8775(4) 0.2203(6) 0.5872(13)
C4_9 C 0.7384(4) 0.0876(6) 0.4014(13)
O2_9 O 0.7375(3) 0.1041(4) 0.2328(10)
C5_9 C 0.8358(5) 0.1561(6) 0.8611(14)
C6_9 C 0.8793(4) 0.2071(6) 0.7855(14)
C7_9 C 0.7891(4) 0.1131(6) 0.7462(13)
C8_9 C 0.9282(4) 0.2458(6) 0.9320(13)
H2_9 H 0.829955 0.185672 0.316375
loop_
_geom_bond_atom_site_label_1
_geom_bond_atom_site_label_2
_geom_bond_site_symmetry_1
_geom_bond_site_symmetry_2
C1 C2 1_555 1_555
C2 C4 1_555 1_555
C3 C1 1_555 1_555
C4 O2 1_555 1_555
O1 C3 1_555 1_555
O2 Co4 1_555 1_555
O3 C4 1_555 1_555
O8 Co4 1_555 1_555
O11 Co4 1_555 1_555
Co5 O1 1_555 1_555
Co6 O3 1_555 1_555
O8 Co6 1_555 1_555
C1 H2 1_555 1_555
C5 C6 1_555 1_555
C8 C6 1_555 1_555
O4 C7 1_555 1_555
O5 C8 1_555 1_555
O6 C8 1_555 1_555
Co3 O5 1_555 1_555
Co7 O6 1_555 1_555
C5 C7 1_555 1_555
O4 Co8 1_555 1_555
C5 H1 1_555 1_555
O9 Co3 1_555 1_555
O14 Co3 1_555 1_555
C5_2 C6_2 1_555 1_555
C8_2 C6_2 1_555 1_555
O4_2 C7_2 1_555 1_555
O5_2 C8_2 1_555 1_555
O6_2 C8_2 1_555 1_555
Co3_2 O5_2 1_555 1_555
Co7_2 O6_2 1_555 1_555
C5_2 C7_2 1_555 1_555
O4_2 Co8_2 1_555 1_555
C5_2 H1_2 1_555 1_555
O9_2 Co3_2 1_555 1_555
O14_2 Co3_2 1_555 1_555
C1_2 C2_2 1_555 1_555
C2_2 C4_2 1_555 1_555
C3_2 C1_2 1_555 1_555
C4_2 O2_2 1_555 1_555
O1_2 C3_2 1_555 1_555
O2_2 Co4_2 1_555 1_555
O3_2 C4_2 1_555 1_555
O8_2 Co4_2 1_555 1_555
O11_2 Co4_2 1_555 1_555
Co5_2 O1_2 1_555 1_555
Co6_2 O3_2 1_555 1_555
O8_2 Co6_2 1_555 1_555
C1_2 H2_2 1_555 1_555
C5_3 C6_3 1_555 1_555
C8_3 C6_3 1_555 1_555
O4_3 C7_3 1_555 1_555
O5_3 C8_3 1_555 1_555
O6_3 C8_3 1_555 1_555
Co3_3 O5_3 1_555 1_555
Co4_3 O4_3 1_555 1_555
Co7_3 O6_3 1_555 1_555
C5_3 C7_3 1_555 1_555
O4_3 Co8_3 1_555 1_555
C5_3 H1_3 1_555 1_555
C1_3 C2_3 1_555 1_555
C2_3 C4_3 1_555 1_555
C3_3 C1_3 1_555 1_555
C4_3 O2_3 1_555 1_555
O1_3 C3_3 1_555 1_555
O2_3 Co4_3 1_555 1_555
O3_3 C4_3 1_555 1_555
Co3_3 O1_3 1_555 1_555
O8_3 Co4_3 1_555 1_555
O9_3 Co3_3 1_555 1_555
O11_3 Co4_3 1_555 1_555
O12_3 Co3_3 1_555 1_555
O13_3 Co4_3 1_555 1_555
O14_3 Co3_3 1_555 1_555
Co5_3 O1_3 1_555 1_555
Co6_3 O3_3 1_555 1_555
O8_3 Co6_3 1_555 1_555
O13_3 Co6_3 1_555 1_555
O14_3 Co5_3 1_555 1_555
C1_3 H2_3 1_555 1_555
C1_4 C2_4 1_555 1_555
C2_4 C4_4 1_555 1_555
C3_4 C1_4 1_555 1_555
O1_4 C3_4 1_555 1_555
O11_2 C4_4 1_555 1_555
C5_4 C6_4 1_555 1_555
C6_4 C3_4 1_555 1_555
C7_4 C2_4 1_555 1_555
C8_4 C6_4 1_555 1_555
O8_2 C7_4 1_555 1_555
O5_4 C8_4 1_555 1_555
O12_3 C8_4 1_555 1_555
Co5_3 O5_4 1_555 1_555
Co7_3 O1_4 1_555 1_555
C5_4 C7_4 1_555 1_555
O12_3 Co7_3 1_555 1_555
C5_4 H1_4 1_555 1_555
O2_4 Co6_2 1_555 1_555
C1_5 C2_5 1_555 1_555
C2_5 C4_5 1_555 1_555
C3_5 C1_5 1_555 1_555
O1_5 C3_5 1_555 1_555
O11_3 C4_5 1_555 1_555
C5_5 C6_5 1_555 1_555
C6_5 C3_5 1_555 1_555
C7_5 C2_5 1_555 1_555
C8_5 C6_5 1_555 1_555
O8_3 C7_5 1_555 1_555
O5_5 C8_5 1_555 1_555
O12 C8_5 1_555 1_555
Co5 O5_5 1_555 1_555
Co8_3 O11_3 1_555 1_555
C5_5 C7_5 1_555 1_555
C5_5 H1_5 1_555 1_555
O2_5 Co6_3 1_555 1_555
O8_5 Co6_3 1_555 1_555
C1_6 C2_6 1_555 1_555
C2_6 C4_6 1_555 1_555
C3_6 C1_6 1_555 1_555
O1_6 C3_6 1_555 1_555
O11 C4_6 1_555 1_555
C5_6 C6_6 1_555 1_555
C6_6 C3_6 1_555 1_555
C7_6 C2_6 1_555 1_555
C8_6 C6_6 1_555 1_555
O8 C7_6 1_555 1_555
O5_6 C8_6 1_555 1_555
O12_2 C8_6 1_555 1_555
Co5_2 O5_6 1_555 1_555
C5_6 C7_6 1_555 1_555
C5_6 H1_6 1_555 1_555
O2_6 Co6 1_555 1_555
Co7_2 O5_7 1_555 1_555
C1_7 C2_7 1_555 1_555
C2_7 C4_7 1_555 1_555
C3_7 C1_7 1_555 1_555
C4_7 O2_7 1_555 1_555
O9_2 C3_7 1_555 1_555
O2_7 Co8_3 1_555 1_555
O13_3 C4_7 1_555 1_555
Co7_2 O9_2 1_555 1_555
C5_7 C6_7 1_555 1_555
C6_7 C3_7 1_555 1_555
C7_7 C2_7 1_555 1_555
C8_7 C6_7 1_555 1_555
O8_5 C7_7 1_555 1_555
O14_2 C8_7 1_555 1_555
C5_7 C7_7 1_555 1_555
C1_7 H2_7 1_555 1_555
Co7_3 O5_8 1_555 1_555
C1_8 C2_8 1_555 1_555
C2_8 C4_8 1_555 1_555
C3_8 C1_8 1_555 1_555
C4_8 O2_8 1_555 1_555
O9_3 C3_8 1_555 1_555
O2_8 Co8 1_555 1_555
O13 C4_8 1_555 1_555
Co7_3 O9_3 1_555 1_555
C5_8 C6_8 1_555 1_555
C6_8 C3_8 1_555 1_555
C7_8 C2_8 1_555 1_555
C8_8 C6_8 1_555 1_555
O8_6 C7_8 1_555 1_555
O14_3 C8_8 1_555 1_555
C5_8 C7_8 1_555 1_555
C1_8 H2_8 1_555 1_555
Co7 O5_9 1_555 1_555
C1_9 C2_9 1_555 1_555
C2_9 C4_9 1_555 1_555
C3_9 C1_9 1_555 1_555
C4_9 O2_9 1_555 1_555
O9 C3_9 1_555 1_555
O2_9 Co8_2 1_555 1_555
O13_2 C4_9 1_555 1_555
Co7 O9 1_555 1_555
C5_9 C6_9 1_555 1_555
C6_9 C3_9 1_555 1_555
C7_9 C2_9 1_555 1_555
C8_9 C6_9 1_555 1_555
O8_4 C7_9 1_555 1_555
O14 C8_9 1_555 1_555
C5_9 C7_9 1_555 1_555
C1_9 H2_9 1_555 1_555

#END
