
###############################################################################
#
# This file contains modified crystal structure data generated from the
# MOF subset of the Cambridge Structural Database (CSD) v543 
# hosted by the Cambridge Crystallographic Data Centre (CCDC).
#
# This work is licensed under the Creative Commons
# Attribution-NonCommercial-ShareAlike 4.0 International License.
# To view a copy of this license, visit
# http://creativecommons.org/licenses/by-nc-sa/4.0/
# or send a letter to
# Creative Commons, PO Box 1866, Mountain View, CA 94042, USA.
#
# CIF created using the CSD Python API on 29 September 2022
# The structure has been converted into the P1 space group
# The structure has a 3D framework
# The original CSD entry MOQBEC40 is in the rhombohedral crystal system
# The framework has been calculated to contain at least 10.0% void space
# The void calculation uses a probe of radius 1.32A, grid spacing 0.4
# H atom positions have been added when not included in the experimental data
#
###############################################################################

data_MOQBEC40
_chemical_formula_moiety         '(C72 H18 Co13 O51)n'
_symmetry_cell_setting           triclinic
_symmetry_space_group_name_H-M   'P 1'
_symmetry_Int_Tables_number      1
_space_group_name_Hall           'P 1'
loop_
_symmetry_equiv_pos_site_id
_symmetry_equiv_pos_as_xyz
1 x,y,z
_cell_length_a                   25.9628(3)
_cell_length_b                   25.9628(3)
_cell_length_c                   6.82733(7)
_cell_angle_alpha                90
_cell_angle_beta                 90
_cell_angle_gamma                120
_cell_volume                     3985.52
loop_
_atom_site_label
_atom_site_type_symbol
_atom_site_fract_x
_atom_site_fract_y
_atom_site_fract_z
Co4 Co 0.02952(6) 0.64723(6) 0.35781(19)
C1 C 0.0130(4) 0.5025(5) 0.8057(14)
C2 C 0.0056(4) 0.5460(4) 0.8812(14)
C3 C 0.0094(4) 0.4558(4) 0.9204(13)
C4 C 0.0159(5) 0.5949(4) 0.7347(13)
O1 O 0.0215(2) 0.4135(3) 0.8398(9)
O2 O 0.0331(3) 0.5959(3) 0.5657(10)
O3 O 0.0061(2) 0.6360(3) 0.8025(7)
O8 O 0.0802(3) 0.7253(4) 0.4935(9)
O11 O 0.0307(3) 0.7034(4) 0.1358(7)
O12 O 0.0368(4) 0.3394(2) 0.5308(7)
Co5 Co 0.04896(8) 0.36285(6) 0.97552(19)
Co6 Co 0.01944(6) 0.71562(8) 0.69114(19)
H1 H 0.0221432 0.503328 0.64971
C5 C 0.9870(4) 0.4975(5) 0.1943(14)
C6 C 0.9944(4) 0.4540(4) 0.1188(14)
C7 C 0.9906(4) 0.5442(4) 0.0796(13)
C8 C 0.9841(5) 0.4051(4) 0.2653(13)
O4 O 0.9785(2) 0.5865(3) 0.1602(9)
O5 O 0.9669(3) 0.4041(3) 0.4343(10)
O6 O 0.9939(2) 0.3640(3) 0.1975(7)
Co3 Co 0.97048(6) 0.35277(6) 0.64219(19)
Co7 Co 0.98056(6) 0.28438(8) 0.30886(19)
Co8 Co 0.95104(8) 0.63715(6) 0.02448(19)
H2 H 0.977857 0.496672 0.35029
O9 O 0.9198(3) 0.2747(4) 0.5065(9)
O13 O 0.9632(4) 0.6606(2) 0.4692(7)
O14 O 0.9693(3) 0.2966(4) 0.8642(7)
C5_2 C 0.5105(6) 0.0130(4) 0.1943(14)
C6_2 C 0.4596(6) 0.0056(4) 0.1188(14)
C7_2 C 0.5536(6) 0.0094(4) 0.0796(13)
C8_2 C 0.4210(6) 0.0159(5) 0.2653(13)
O4_2 O 0.6080(4) 0.0215(2) 0.1602(9)
O5_2 O 0.4372(4) 0.0331(3) 0.4343(10)
O6_2 O 0.3701(4) 0.0061(2) 0.1975(7)
Co3_2 Co 0.38229(8) 0.02952(6) 0.64219(19)
Co7_2 Co 0.30381(10) 0.01944(6) 0.30886(19)
Co8_2 Co 0.68610(10) 0.04896(8) 0.02448(19)
H2_2 H 0.518815 0.0221432 0.35029
O9_2 O 0.3548(5) 0.0802(3) 0.5065(9)
O13_2 O 0.6973(4) 0.0368(4) 0.4692(7)
O14_2 O 0.3272(5) 0.0307(3) 0.8642(7)
Co4_2 Co 0.61771(8) 0.97048(6) 0.35781(19)
C1_2 C 0.4895(6) 0.9870(4) 0.8057(14)
C2_2 C 0.5404(6) 0.9944(4) 0.8812(14)
C3_2 C 0.4464(6) 0.9906(4) 0.9204(13)
C4_2 C 0.5790(6) 0.9841(5) 0.7347(13)
O1_2 O 0.3920(4) 0.9785(2) 0.8398(9)
O2_2 O 0.5628(4) 0.9669(3) 0.5657(10)
O3_2 O 0.6299(4) 0.9939(2) 0.8025(7)
O8_2 O 0.6452(5) 0.9198(3) 0.4935(9)
O11_2 O 0.6728(5) 0.9693(3) 0.1358(7)
O12_2 O 0.3027(4) 0.9632(4) 0.5308(7)
Co5_2 Co 0.31390(10) 0.95104(8) 0.97552(19)
Co6_2 Co 0.69619(10) 0.98056(6) 0.69114(19)
H1_2 H 0.481185 0.977857 0.64971
C5_3 C 0.5025(5) 0.4895(6) 0.1943(14)
C6_3 C 0.5460(4) 0.5404(6) 0.1188(14)
C7_3 C 0.4558(4) 0.4464(6) 0.0796(13)
C8_3 C 0.5949(4) 0.5790(6) 0.2653(13)
O4_3 O 0.4135(3) 0.3920(4) 0.1602(9)
O5_3 O 0.5959(3) 0.5628(4) 0.4343(10)
O6_3 O 0.6360(3) 0.6299(4) 0.1975(7)
Co3_3 Co 0.64723(6) 0.61771(8) 0.64219(19)
Co4_3 Co 0.35277(6) 0.38229(8) 0.35781(19)
Co7_3 Co 0.71562(8) 0.69619(10) 0.30886(19)
Co8_3 Co 0.36285(6) 0.31390(10) 0.02448(19)
H2_3 H 0.503328 0.481185 0.35029
C1_3 C 0.4975(5) 0.5105(6) 0.8057(14)
C2_3 C 0.4540(4) 0.4596(6) 0.8812(14)
C3_3 C 0.5442(4) 0.5536(6) 0.9204(13)
C4_3 C 0.4051(4) 0.4210(6) 0.7347(13)
O1_3 O 0.5865(3) 0.6080(4) 0.8398(9)
O2_3 O 0.4041(3) 0.4372(4) 0.5657(10)
O3_3 O 0.3640(3) 0.3701(4) 0.8025(7)
O8_3 O 0.2747(4) 0.3548(5) 0.4935(9)
O9_3 O 0.7253(4) 0.6452(5) 0.5065(9)
O11_3 O 0.2966(4) 0.3272(5) 0.1358(7)
O12_3 O 0.6606(2) 0.6973(4) 0.5308(7)
O13_3 O 0.3394(2) 0.3027(4) 0.4692(7)
O14_3 O 0.7034(4) 0.6728(5) 0.8642(7)
Co5_3 Co 0.63715(6) 0.68610(10) 0.97552(19)
Co6_3 Co 0.28438(8) 0.30381(10) 0.69114(19)
H1_3 H 0.496672 0.518815 0.64971
O8_4 O 0.7468(3) 0.0587(4) 0.8269(9)
C1_4 C 0.6797(4) 0.8358(5) 0.1390(14)
C2_4 C 0.6723(4) 0.8793(4) 0.2145(14)
C3_4 C 0.6761(4) 0.7891(4) 0.2537(13)
C4_4 C 0.6826(5) 0.9282(4) 0.0680(13)
O1_4 O 0.6882(2) 0.7468(3) 0.1731(9)
C5_4 C 0.6537(4) 0.8308(5) 0.5276(14)
C6_4 C 0.6611(4) 0.7873(4) 0.4521(14)
C7_4 C 0.6573(4) 0.8775(4) 0.4129(13)
C8_4 C 0.6508(5) 0.7384(4) 0.5986(13)
O5_4 O 0.6336(3) 0.7374(3) 0.7676(10)
H2_4 H 0.644523 0.830005 0.683623
O2_4 O 0.6998(3) 0.9292(3) 0.8990(10)
H1_4 H 0.68881 0.836661 0.983044
C1_5 C 0.1562(6) 0.3203(4) 0.1390(14)
C2_5 C 0.2071(6) 0.3277(4) 0.2145(14)
C3_5 C 0.1131(6) 0.3239(4) 0.2537(13)
C4_5 C 0.2457(6) 0.3174(5) 0.0680(13)
O1_5 O 0.0587(4) 0.3118(2) 0.1731(9)
C5_5 C 0.1772(6) 0.3463(4) 0.5276(14)
C6_5 C 0.1263(6) 0.3389(4) 0.4521(14)
C7_5 C 0.2203(6) 0.3427(4) 0.4129(13)
C8_5 C 0.0877(6) 0.3492(5) 0.5986(13)
O5_5 O 0.1039(4) 0.3664(3) 0.7676(10)
H2_5 H 0.185482 0.355477 0.683623
O2_5 O 0.2295(4) 0.3002(3) 0.8990(10)
O8_5 O 0.3118(5) 0.2532(3) 0.8269(9)
H1_5 H 0.147851 0.31119 0.983044
C1_6 C 0.1642(5) 0.8438(6) 0.1390(14)
C2_6 C 0.1207(4) 0.7929(6) 0.2145(14)
C3_6 C 0.2109(4) 0.8869(6) 0.2537(13)
C4_6 C 0.0718(4) 0.7543(6) 0.0680(13)
O1_6 O 0.2532(3) 0.9413(4) 0.1731(9)
C5_6 C 0.1692(5) 0.8228(6) 0.5276(14)
C6_6 C 0.2127(4) 0.8737(6) 0.4521(14)
C7_6 C 0.1225(4) 0.7797(6) 0.4129(13)
C8_6 C 0.2616(4) 0.9123(6) 0.5986(13)
O5_6 O 0.2626(3) 0.8961(4) 0.7676(10)
H2_6 H 0.169995 0.814518 0.683623
O2_6 O 0.0708(3) 0.7705(4) 0.8990(10)
H1_6 H 0.163339 0.852149 0.983044
O8_6 O 0.9413(4) 0.6882(5) 0.8269(9)
O5_7 O 0.3002(3) 0.0708(3) 0.1010(10)
H2_7 H 0.31119 0.163339 0.0169564
C1_7 C 0.3463(4) 0.1692(5) 0.4724(14)
C2_7 C 0.3389(4) 0.2127(4) 0.5479(14)
C3_7 C 0.3427(4) 0.1225(4) 0.5871(13)
C4_7 C 0.3492(5) 0.2616(4) 0.4014(13)
O2_7 O 0.3664(3) 0.2626(3) 0.2324(10)
C5_7 C 0.3203(4) 0.1642(5) 0.8610(14)
C6_7 C 0.3277(4) 0.1207(4) 0.7855(14)
C7_7 C 0.3239(4) 0.2109(4) 0.7463(13)
C8_7 C 0.3174(5) 0.0718(4) 0.9320(13)
H1_7 H 0.355477 0.169995 0.316377
O5_8 O 0.7705(4) 0.6998(3) 0.1010(10)
H2_8 H 0.852149 0.68881 0.0169564
C1_8 C 0.8228(6) 0.6537(4) 0.4724(14)
C2_8 C 0.8737(6) 0.6611(4) 0.5479(14)
C3_8 C 0.7797(6) 0.6573(4) 0.5871(13)
C4_8 C 0.9123(6) 0.6508(5) 0.4014(13)
O2_8 O 0.8961(4) 0.6336(3) 0.2324(10)
C5_8 C 0.8438(6) 0.6797(4) 0.8610(14)
C6_8 C 0.7929(6) 0.6723(4) 0.7855(14)
C7_8 C 0.8869(6) 0.6761(4) 0.7463(13)
C8_8 C 0.7543(6) 0.6826(5) 0.9320(13)
H1_8 H 0.814518 0.644523 0.316377
O5_9 O 0.9292(3) 0.2295(4) 0.1010(10)
H2_9 H 0.836661 0.147851 0.0169564
C1_9 C 0.8308(5) 0.1772(6) 0.4724(14)
C2_9 C 0.7873(4) 0.1263(6) 0.5479(14)
C3_9 C 0.8775(4) 0.2203(6) 0.5871(13)
C4_9 C 0.7384(4) 0.0877(6) 0.4014(13)
O2_9 O 0.7374(3) 0.1039(4) 0.2324(10)
C5_9 C 0.8358(5) 0.1562(6) 0.8610(14)
C6_9 C 0.8793(4) 0.2071(6) 0.7855(14)
C7_9 C 0.7891(4) 0.1131(6) 0.7463(13)
C8_9 C 0.9282(4) 0.2457(6) 0.9320(13)
H1_9 H 0.830005 0.185482 0.316377
loop_
_geom_bond_atom_site_label_1
_geom_bond_atom_site_label_2
_geom_bond_site_symmetry_1
_geom_bond_site_symmetry_2
C1 C2 1_555 1_555
C2 C4 1_555 1_555
C3 C1 1_555 1_555
C4 O2 1_555 1_555
O1 C3 1_555 1_555
O2 Co4 1_555 1_555
O3 C4 1_555 1_555
O8 Co4 1_555 1_555
O11 Co4 1_555 1_555
Co5 O1 1_555 1_555
Co6 O3 1_555 1_555
O8 Co6 1_555 1_555
C1 H1 1_555 1_555
C5 C6 1_555 1_555
C8 C6 1_555 1_555
O4 C7 1_555 1_555
O5 C8 1_555 1_555
O6 C8 1_555 1_555
Co3 O5 1_555 1_555
Co7 O6 1_555 1_555
C5 C7 1_555 1_555
O4 Co8 1_555 1_555
C5 H2 1_555 1_555
O9 Co3 1_555 1_555
O14 Co3 1_555 1_555
C5_2 C6_2 1_555 1_555
C8_2 C6_2 1_555 1_555
O4_2 C7_2 1_555 1_555
O5_2 C8_2 1_555 1_555
O6_2 C8_2 1_555 1_555
Co3_2 O5_2 1_555 1_555
Co7_2 O6_2 1_555 1_555
C5_2 C7_2 1_555 1_555
O4_2 Co8_2 1_555 1_555
C5_2 H2_2 1_555 1_555
O9_2 Co3_2 1_555 1_555
O14_2 Co3_2 1_555 1_555
C1_2 C2_2 1_555 1_555
C2_2 C4_2 1_555 1_555
C3_2 C1_2 1_555 1_555
C4_2 O2_2 1_555 1_555
O1_2 C3_2 1_555 1_555
O2_2 Co4_2 1_555 1_555
O3_2 C4_2 1_555 1_555
O8_2 Co4_2 1_555 1_555
O11_2 Co4_2 1_555 1_555
Co5_2 O1_2 1_555 1_555
Co6_2 O3_2 1_555 1_555
O8_2 Co6_2 1_555 1_555
C1_2 H1_2 1_555 1_555
C5_3 C6_3 1_555 1_555
C8_3 C6_3 1_555 1_555
O4_3 C7_3 1_555 1_555
O5_3 C8_3 1_555 1_555
O6_3 C8_3 1_555 1_555
Co3_3 O5_3 1_555 1_555
Co4_3 O4_3 1_555 1_555
Co7_3 O6_3 1_555 1_555
C5_3 C7_3 1_555 1_555
O4_3 Co8_3 1_555 1_555
C5_3 H2_3 1_555 1_555
C1_3 C2_3 1_555 1_555
C2_3 C4_3 1_555 1_555
C3_3 C1_3 1_555 1_555
C4_3 O2_3 1_555 1_555
O1_3 C3_3 1_555 1_555
O2_3 Co4_3 1_555 1_555
O3_3 C4_3 1_555 1_555
Co3_3 O1_3 1_555 1_555
O8_3 Co4_3 1_555 1_555
O9_3 Co3_3 1_555 1_555
O11_3 Co4_3 1_555 1_555
O12_3 Co3_3 1_555 1_555
O13_3 Co4_3 1_555 1_555
O14_3 Co3_3 1_555 1_555
Co5_3 O1_3 1_555 1_555
Co6_3 O3_3 1_555 1_555
O8_3 Co6_3 1_555 1_555
O13_3 Co6_3 1_555 1_555
O14_3 Co5_3 1_555 1_555
C1_3 H1_3 1_555 1_555
C1_4 C2_4 1_555 1_555
C2_4 C4_4 1_555 1_555
C3_4 C1_4 1_555 1_555
O1_4 C3_4 1_555 1_555
O11_2 C4_4 1_555 1_555
C5_4 C6_4 1_555 1_555
C6_4 C3_4 1_555 1_555
C7_4 C2_4 1_555 1_555
C8_4 C6_4 1_555 1_555
O8_2 C7_4 1_555 1_555
O5_4 C8_4 1_555 1_555
O12_3 C8_4 1_555 1_555
Co5_3 O5_4 1_555 1_555
Co7_3 O1_4 1_555 1_555
C5_4 C7_4 1_555 1_555
O12_3 Co7_3 1_555 1_555
C5_4 H2_4 1_555 1_555
O2_4 Co6_2 1_555 1_555
C1_5 C2_5 1_555 1_555
C2_5 C4_5 1_555 1_555
C3_5 C1_5 1_555 1_555
O1_5 C3_5 1_555 1_555
O11_3 C4_5 1_555 1_555
C5_5 C6_5 1_555 1_555
C6_5 C3_5 1_555 1_555
C7_5 C2_5 1_555 1_555
C8_5 C6_5 1_555 1_555
O8_3 C7_5 1_555 1_555
O5_5 C8_5 1_555 1_555
O12 C8_5 1_555 1_555
Co5 O5_5 1_555 1_555
Co8_3 O11_3 1_555 1_555
C5_5 C7_5 1_555 1_555
C5_5 H2_5 1_555 1_555
O2_5 Co6_3 1_555 1_555
O8_5 Co6_3 1_555 1_555
C1_6 C2_6 1_555 1_555
C2_6 C4_6 1_555 1_555
C3_6 C1_6 1_555 1_555
O1_6 C3_6 1_555 1_555
O11 C4_6 1_555 1_555
C5_6 C6_6 1_555 1_555
C6_6 C3_6 1_555 1_555
C7_6 C2_6 1_555 1_555
C8_6 C6_6 1_555 1_555
O8 C7_6 1_555 1_555
O5_6 C8_6 1_555 1_555
O12_2 C8_6 1_555 1_555
Co5_2 O5_6 1_555 1_555
C5_6 C7_6 1_555 1_555
C5_6 H2_6 1_555 1_555
O2_6 Co6 1_555 1_555
Co7_2 O5_7 1_555 1_555
C1_7 C2_7 1_555 1_555
C2_7 C4_7 1_555 1_555
C3_7 C1_7 1_555 1_555
C4_7 O2_7 1_555 1_555
O9_2 C3_7 1_555 1_555
O2_7 Co8_3 1_555 1_555
O13_3 C4_7 1_555 1_555
Co7_2 O9_2 1_555 1_555
C5_7 C6_7 1_555 1_555
C6_7 C3_7 1_555 1_555
C7_7 C2_7 1_555 1_555
C8_7 C6_7 1_555 1_555
O8_5 C7_7 1_555 1_555
O14_2 C8_7 1_555 1_555
C5_7 C7_7 1_555 1_555
C1_7 H1_7 1_555 1_555
Co7_3 O5_8 1_555 1_555
C1_8 C2_8 1_555 1_555
C2_8 C4_8 1_555 1_555
C3_8 C1_8 1_555 1_555
C4_8 O2_8 1_555 1_555
O9_3 C3_8 1_555 1_555
O2_8 Co8 1_555 1_555
O13 C4_8 1_555 1_555
Co7_3 O9_3 1_555 1_555
C5_8 C6_8 1_555 1_555
C6_8 C3_8 1_555 1_555
C7_8 C2_8 1_555 1_555
C8_8 C6_8 1_555 1_555
O8_6 C7_8 1_555 1_555
O14_3 C8_8 1_555 1_555
C5_8 C7_8 1_555 1_555
C1_8 H1_8 1_555 1_555
Co7 O5_9 1_555 1_555
C1_9 C2_9 1_555 1_555
C2_9 C4_9 1_555 1_555
C3_9 C1_9 1_555 1_555
C4_9 O2_9 1_555 1_555
O9 C3_9 1_555 1_555
O2_9 Co8_2 1_555 1_555
O13_2 C4_9 1_555 1_555
Co7 O9 1_555 1_555
C5_9 C6_9 1_555 1_555
C6_9 C3_9 1_555 1_555
C7_9 C2_9 1_555 1_555
C8_9 C6_9 1_555 1_555
O8_4 C7_9 1_555 1_555
O14 C8_9 1_555 1_555
C5_9 C7_9 1_555 1_555
C1_9 H1_9 1_555 1_555

#END
