
###############################################################################
#
# This file contains modified crystal structure data generated from the
# MOF subset of the Cambridge Structural Database (CSD) v543 
# hosted by the Cambridge Crystallographic Data Centre (CCDC).
#
# This work is licensed under the Creative Commons
# Attribution-NonCommercial-ShareAlike 4.0 International License.
# To view a copy of this license, visit
# http://creativecommons.org/licenses/by-nc-sa/4.0/
# or send a letter to
# Creative Commons, PO Box 1866, Mountain View, CA 94042, USA.
#
# CIF created using the CSD Python API on 29 September 2022
# The structure has been converted into the P1 space group
# The structure has a 3D framework
# The original CSD entry MORFAD11 is in the rhombohedral crystal system
# The framework has been calculated to contain at least 10.0% void space
# The void calculation uses a probe of radius 1.32A, grid spacing 0.4
# H atom positions have been added when not included in the experimental data
#
###############################################################################

data_MORFAD11
_chemical_formula_moiety         '(C72 H18 Ni13 O51)n'
_symmetry_cell_setting           triclinic
_symmetry_space_group_name_H-M   'P 1'
_symmetry_Int_Tables_number      1
_space_group_name_Hall           'P 1'
loop_
_symmetry_equiv_pos_site_id
_symmetry_equiv_pos_as_xyz
1 x,y,z
_cell_length_a                   25.7864(2)
_cell_length_b                   25.7864(2)
_cell_length_c                   6.77153(10)
_cell_angle_alpha                90
_cell_angle_beta                 90
_cell_angle_gamma                120
_cell_volume                     3899.41
loop_
_atom_site_label
_atom_site_type_symbol
_atom_site_fract_x
_atom_site_fract_y
_atom_site_fract_z
Ni4 Ni 0.02868(8) 0.64879(11) 0.3562(2)
C1 C 0.0157(6) 0.5044(6) 0.804(2)
C2 C 0.0054(6) 0.5462(7) 0.8771(19)
C3 C 0.0114(5) 0.4566(5) 0.9202(18)
C4 C 0.0134(7) 0.5947(6) 0.7256(18)
O1 O 0.0232(3) 0.4139(3) 0.8390(13)
O2 O 0.0308(4) 0.5960(5) 0.5565(14)
O3 O 0.0039(3) 0.6374(4) 0.7961(11)
O8 O 0.0806(3) 0.7240(4) 0.4943(13)
O11 O 0.0293(4) 0.6998(5) 0.1294(11)
O12 O 0.0332(5) 0.3372(3) 0.5372(11)
Ni5 Ni 0.04656(14) 0.36201(8) 0.9771(2)
Ni6 Ni 0.01788(11) 0.71322(14) 0.6895(2)
H1 H 0.0279164 0.506899 0.648916
C5 C 0.9843(6) 0.4956(6) 0.196(2)
C6 C 0.9946(6) 0.4538(7) 0.1229(19)
C7 C 0.9886(5) 0.5434(5) 0.0798(18)
C8 C 0.9866(7) 0.4053(6) 0.2744(18)
O4 O 0.9768(3) 0.5861(3) 0.1610(13)
O5 O 0.9692(4) 0.4040(5) 0.4435(14)
O6 O 0.9961(3) 0.3626(4) 0.2039(11)
Ni3 Ni 0.97132(8) 0.35121(11) 0.6438(2)
Ni7 Ni 0.98212(11) 0.28678(14) 0.3105(2)
Ni8 Ni 0.95344(14) 0.63799(8) 0.0229(2)
H2 H 0.972084 0.493101 0.351084
O9 O 0.9194(3) 0.2760(4) 0.5057(13)
O13 O 0.9668(5) 0.6628(3) 0.4628(11)
O14 O 0.9707(4) 0.3002(5) 0.8706(11)
C5_2 C 0.5113(8) 0.0157(6) 0.196(2)
C6_2 C 0.4592(9) 0.0054(6) 0.1229(19)
C7_2 C 0.5548(7) 0.0114(5) 0.0798(18)
C8_2 C 0.4187(9) 0.0134(7) 0.2744(18)
O4_2 O 0.6093(4) 0.0232(3) 0.1610(13)
O5_2 O 0.4348(6) 0.0308(4) 0.4435(14)
O6_2 O 0.3665(5) 0.0039(3) 0.2039(11)
Ni3_2 Ni 0.37989(14) 0.02868(8) 0.6438(2)
Ni7_2 Ni 0.30465(18) 0.01788(11) 0.3105(2)
Ni8_2 Ni 0.68454(16) 0.04656(14) 0.0229(2)
H2_2 H 0.521017 0.0279164 0.351084
O9_2 O 0.3565(5) 0.0806(3) 0.5057(13)
O13_2 O 0.6959(6) 0.0332(5) 0.4628(11)
O14_2 O 0.3294(6) 0.0293(4) 0.8706(11)
Ni4_2 Ni 0.62011(14) 0.97132(8) 0.3562(2)
C1_2 C 0.4887(8) 0.9843(6) 0.804(2)
C2_2 C 0.5408(9) 0.9946(6) 0.8771(19)
C3_2 C 0.4452(7) 0.9886(5) 0.9202(18)
C4_2 C 0.5813(9) 0.9866(7) 0.7256(18)
O1_2 O 0.3907(4) 0.9768(3) 0.8390(13)
O2_2 O 0.5652(6) 0.9692(4) 0.5565(14)
O3_2 O 0.6335(5) 0.9961(3) 0.7961(11)
O8_2 O 0.6435(5) 0.9194(3) 0.4943(13)
O11_2 O 0.6706(6) 0.9707(4) 0.1294(11)
O12_2 O 0.3041(6) 0.9668(5) 0.5372(11)
Ni5_2 Ni 0.31546(16) 0.95344(14) 0.9771(2)
Ni6_2 Ni 0.69535(18) 0.98212(11) 0.6895(2)
H1_2 H 0.478983 0.972084 0.648916
C5_3 C 0.5044(6) 0.4887(8) 0.196(2)
C6_3 C 0.5462(7) 0.5408(9) 0.1229(19)
C7_3 C 0.4566(5) 0.4452(7) 0.0798(18)
C8_3 C 0.5947(6) 0.5813(9) 0.2744(18)
O4_3 O 0.4139(3) 0.3907(4) 0.1610(13)
O5_3 O 0.5960(5) 0.5652(6) 0.4435(14)
O6_3 O 0.6374(4) 0.6335(5) 0.2039(11)
Ni3_3 Ni 0.64879(11) 0.62011(14) 0.6438(2)
Ni4_3 Ni 0.35121(11) 0.37989(14) 0.3562(2)
Ni7_3 Ni 0.71322(14) 0.69535(18) 0.3105(2)
Ni8_3 Ni 0.36201(8) 0.31546(16) 0.0229(2)
H2_3 H 0.506899 0.478983 0.351084
C1_3 C 0.4956(6) 0.5113(8) 0.804(2)
C2_3 C 0.4538(7) 0.4592(9) 0.8771(19)
C3_3 C 0.5434(5) 0.5548(7) 0.9202(18)
C4_3 C 0.4053(6) 0.4187(9) 0.7256(18)
O1_3 O 0.5861(3) 0.6093(4) 0.8390(13)
O2_3 O 0.4040(5) 0.4348(6) 0.5565(14)
O3_3 O 0.3626(4) 0.3665(5) 0.7961(11)
O8_3 O 0.2760(4) 0.3565(5) 0.4943(13)
O9_3 O 0.7240(4) 0.6435(5) 0.5057(13)
O11_3 O 0.3002(5) 0.3294(6) 0.1294(11)
O12_3 O 0.6628(3) 0.6959(6) 0.5372(11)
O13_3 O 0.3372(3) 0.3041(6) 0.4628(11)
O14_3 O 0.6998(5) 0.6706(6) 0.8706(11)
Ni5_3 Ni 0.63799(8) 0.68454(16) 0.9771(2)
Ni6_3 Ni 0.28678(14) 0.30465(18) 0.6895(2)
H1_3 H 0.493101 0.521017 0.648916
O8_4 O 0.7472(3) 0.0574(4) 0.8277(13)
C1_4 C 0.6824(6) 0.8377(6) 0.137(2)
C2_4 C 0.6721(6) 0.8795(7) 0.2104(19)
C3_4 C 0.6781(5) 0.7899(5) 0.2535(18)
C4_4 C 0.6801(7) 0.9280(6) 0.0589(18)
O1_4 O 0.6899(3) 0.7472(3) 0.1723(13)
C5_4 C 0.6510(6) 0.8289(6) 0.529(2)
C6_4 C 0.6613(6) 0.7871(7) 0.4562(19)
C7_4 C 0.6553(5) 0.8767(5) 0.4131(18)
C8_4 C 0.6533(7) 0.7386(6) 0.6077(18)
O5_4 O 0.6359(4) 0.7373(5) 0.7768(14)
H2_4 H 0.63875 0.826434 0.684418
O2_4 O 0.6975(4) 0.9293(5) 0.8898(14)
H1_4 H 0.694583 0.840232 0.982249
C1_5 C 0.1554(8) 0.3176(6) 0.137(2)
C2_5 C 0.2075(9) 0.3279(6) 0.2104(19)
C3_5 C 0.1119(7) 0.3219(5) 0.2535(18)
C4_5 C 0.2480(9) 0.3199(7) 0.0589(18)
O1_5 O 0.0574(4) 0.3101(3) 0.1723(13)
C5_5 C 0.1780(8) 0.3490(6) 0.529(2)
C6_5 C 0.1259(9) 0.3387(6) 0.4562(19)
C7_5 C 0.2215(7) 0.3447(5) 0.4131(18)
C8_5 C 0.0854(9) 0.3467(7) 0.6077(18)
O5_5 O 0.1015(6) 0.3641(4) 0.7768(14)
H2_5 H 0.187684 0.36125 0.684418
O2_5 O 0.2319(6) 0.3025(4) 0.8898(14)
O8_5 O 0.3101(5) 0.2528(3) 0.8277(13)
H1_5 H 0.145649 0.305417 0.982249
C1_6 C 0.1623(6) 0.8446(8) 0.137(2)
C2_6 C 0.1205(7) 0.7925(9) 0.2104(19)
C3_6 C 0.2101(5) 0.8881(7) 0.2535(18)
C4_6 C 0.0720(6) 0.7520(9) 0.0589(18)
O1_6 O 0.2528(3) 0.9426(4) 0.1723(13)
C5_6 C 0.1711(6) 0.8220(8) 0.529(2)
C6_6 C 0.2129(7) 0.8741(9) 0.4562(19)
C7_6 C 0.1233(5) 0.7785(7) 0.4131(18)
C8_6 C 0.2614(6) 0.9146(9) 0.6077(18)
O5_6 O 0.2627(5) 0.8985(6) 0.7768(14)
H2_6 H 0.173566 0.812316 0.684418
O2_6 O 0.0707(5) 0.7681(6) 0.8898(14)
H1_6 H 0.159768 0.854351 0.982249
O8_6 O 0.9426(4) 0.6899(5) 0.8277(13)
O5_7 O 0.3025(4) 0.0707(5) 0.1102(14)
H2_7 H 0.305417 0.159768 0.017751
C1_7 C 0.3490(6) 0.1711(6) 0.471(2)
C2_7 C 0.3387(6) 0.2129(7) 0.5438(19)
C3_7 C 0.3447(5) 0.1233(5) 0.5869(18)
C4_7 C 0.3467(7) 0.2614(6) 0.3923(18)
O2_7 O 0.3641(4) 0.2627(5) 0.2232(14)
C5_7 C 0.3176(6) 0.1623(6) 0.863(2)
C6_7 C 0.3279(6) 0.1205(7) 0.7896(19)
C7_7 C 0.3219(5) 0.2101(5) 0.7465(18)
C8_7 C 0.3199(7) 0.0720(6) 0.9411(18)
H1_7 H 0.36125 0.173566 0.315582
O5_8 O 0.7681(6) 0.6975(4) 0.1102(14)
H2_8 H 0.854351 0.694583 0.017751
C1_8 C 0.8220(8) 0.6510(6) 0.471(2)
C2_8 C 0.8741(9) 0.6613(6) 0.5438(19)
C3_8 C 0.7785(7) 0.6553(5) 0.5869(18)
C4_8 C 0.9146(9) 0.6533(7) 0.3923(18)
O2_8 O 0.8985(6) 0.6359(4) 0.2232(14)
C5_8 C 0.8446(8) 0.6824(6) 0.863(2)
C6_8 C 0.7925(9) 0.6721(6) 0.7896(19)
C7_8 C 0.8881(7) 0.6781(5) 0.7465(18)
C8_8 C 0.7520(9) 0.6801(7) 0.9411(18)
H1_8 H 0.812316 0.63875 0.315582
O5_9 O 0.9293(5) 0.2319(6) 0.1102(14)
H2_9 H 0.840232 0.145649 0.017751
C1_9 C 0.8289(6) 0.1780(8) 0.471(2)
C2_9 C 0.7871(7) 0.1259(9) 0.5438(19)
C3_9 C 0.8767(5) 0.2215(7) 0.5869(18)
C4_9 C 0.7386(6) 0.0854(9) 0.3923(18)
O2_9 O 0.7373(5) 0.1015(6) 0.2232(14)
C5_9 C 0.8377(6) 0.1554(8) 0.863(2)
C6_9 C 0.8795(7) 0.2075(9) 0.7896(19)
C7_9 C 0.7899(5) 0.1119(7) 0.7465(18)
C8_9 C 0.9280(6) 0.2480(9) 0.9411(18)
H1_9 H 0.826434 0.187684 0.315582
loop_
_geom_bond_atom_site_label_1
_geom_bond_atom_site_label_2
_geom_bond_site_symmetry_1
_geom_bond_site_symmetry_2
C1 C2 1_555 1_555
C2 C4 1_555 1_555
C3 C1 1_555 1_555
C4 O2 1_555 1_555
O1 C3 1_555 1_555
O2 Ni4 1_555 1_555
O3 C4 1_555 1_555
O8 Ni4 1_555 1_555
O11 Ni4 1_555 1_555
Ni5 O1 1_555 1_555
Ni6 O3 1_555 1_555
O8 Ni6 1_555 1_555
C1 H1 1_555 1_555
C5 C6 1_555 1_555
C8 C6 1_555 1_555
O4 C7 1_555 1_555
O5 C8 1_555 1_555
O6 C8 1_555 1_555
Ni3 O5 1_555 1_555
Ni7 O6 1_555 1_555
C5 C7 1_555 1_555
O4 Ni8 1_555 1_555
C5 H2 1_555 1_555
O9 Ni3 1_555 1_555
O14 Ni3 1_555 1_555
C5_2 C6_2 1_555 1_555
C8_2 C6_2 1_555 1_555
O4_2 C7_2 1_555 1_555
O5_2 C8_2 1_555 1_555
O6_2 C8_2 1_555 1_555
Ni3_2 O5_2 1_555 1_555
Ni7_2 O6_2 1_555 1_555
C5_2 C7_2 1_555 1_555
O4_2 Ni8_2 1_555 1_555
C5_2 H2_2 1_555 1_555
O9_2 Ni3_2 1_555 1_555
O14_2 Ni3_2 1_555 1_555
C1_2 C2_2 1_555 1_555
C2_2 C4_2 1_555 1_555
C3_2 C1_2 1_555 1_555
C4_2 O2_2 1_555 1_555
O1_2 C3_2 1_555 1_555
O2_2 Ni4_2 1_555 1_555
O3_2 C4_2 1_555 1_555
O8_2 Ni4_2 1_555 1_555
O11_2 Ni4_2 1_555 1_555
Ni5_2 O1_2 1_555 1_555
Ni6_2 O3_2 1_555 1_555
O8_2 Ni6_2 1_555 1_555
C1_2 H1_2 1_555 1_555
C5_3 C6_3 1_555 1_555
C8_3 C6_3 1_555 1_555
O4_3 C7_3 1_555 1_555
O5_3 C8_3 1_555 1_555
O6_3 C8_3 1_555 1_555
Ni3_3 O5_3 1_555 1_555
Ni4_3 O4_3 1_555 1_555
Ni7_3 O6_3 1_555 1_555
C5_3 C7_3 1_555 1_555
O4_3 Ni8_3 1_555 1_555
C5_3 H2_3 1_555 1_555
C1_3 C2_3 1_555 1_555
C2_3 C4_3 1_555 1_555
C3_3 C1_3 1_555 1_555
C4_3 O2_3 1_555 1_555
O1_3 C3_3 1_555 1_555
O2_3 Ni4_3 1_555 1_555
O3_3 C4_3 1_555 1_555
Ni3_3 O1_3 1_555 1_555
O8_3 Ni4_3 1_555 1_555
O9_3 Ni3_3 1_555 1_555
O11_3 Ni4_3 1_555 1_555
O12_3 Ni3_3 1_555 1_555
O13_3 Ni4_3 1_555 1_555
O14_3 Ni3_3 1_555 1_555
Ni5_3 O1_3 1_555 1_555
Ni6_3 O3_3 1_555 1_555
O8_3 Ni6_3 1_555 1_555
O13_3 Ni6_3 1_555 1_555
O14_3 Ni5_3 1_555 1_555
C1_3 H1_3 1_555 1_555
C1_4 C2_4 1_555 1_555
C2_4 C4_4 1_555 1_555
C3_4 C1_4 1_555 1_555
O1_4 C3_4 1_555 1_555
O11_2 C4_4 1_555 1_555
C5_4 C6_4 1_555 1_555
C6_4 C3_4 1_555 1_555
C7_4 C2_4 1_555 1_555
C8_4 C6_4 1_555 1_555
O8_2 C7_4 1_555 1_555
O5_4 C8_4 1_555 1_555
O12_3 C8_4 1_555 1_555
Ni5_3 O5_4 1_555 1_555
Ni7_3 O1_4 1_555 1_555
C5_4 C7_4 1_555 1_555
O12_3 Ni7_3 1_555 1_555
C5_4 H2_4 1_555 1_555
O2_4 Ni6_2 1_555 1_555
C1_5 C2_5 1_555 1_555
C2_5 C4_5 1_555 1_555
C3_5 C1_5 1_555 1_555
O1_5 C3_5 1_555 1_555
O11_3 C4_5 1_555 1_555
C5_5 C6_5 1_555 1_555
C6_5 C3_5 1_555 1_555
C7_5 C2_5 1_555 1_555
C8_5 C6_5 1_555 1_555
O8_3 C7_5 1_555 1_555
O5_5 C8_5 1_555 1_555
O12 C8_5 1_555 1_555
Ni5 O5_5 1_555 1_555
Ni8_3 O11_3 1_555 1_555
C5_5 C7_5 1_555 1_555
C5_5 H2_5 1_555 1_555
O2_5 Ni6_3 1_555 1_555
O8_5 Ni6_3 1_555 1_555
C1_6 C2_6 1_555 1_555
C2_6 C4_6 1_555 1_555
C3_6 C1_6 1_555 1_555
O1_6 C3_6 1_555 1_555
O11 C4_6 1_555 1_555
C5_6 C6_6 1_555 1_555
C6_6 C3_6 1_555 1_555
C7_6 C2_6 1_555 1_555
C8_6 C6_6 1_555 1_555
O8 C7_6 1_555 1_555
O5_6 C8_6 1_555 1_555
O12_2 C8_6 1_555 1_555
Ni5_2 O5_6 1_555 1_555
C5_6 C7_6 1_555 1_555
C5_6 H2_6 1_555 1_555
O2_6 Ni6 1_555 1_555
Ni7_2 O5_7 1_555 1_555
C1_7 C2_7 1_555 1_555
C2_7 C4_7 1_555 1_555
C3_7 C1_7 1_555 1_555
C4_7 O2_7 1_555 1_555
O9_2 C3_7 1_555 1_555
O2_7 Ni8_3 1_555 1_555
O13_3 C4_7 1_555 1_555
Ni7_2 O9_2 1_555 1_555
C5_7 C6_7 1_555 1_555
C6_7 C3_7 1_555 1_555
C7_7 C2_7 1_555 1_555
C8_7 C6_7 1_555 1_555
O8_5 C7_7 1_555 1_555
O14_2 C8_7 1_555 1_555
C5_7 C7_7 1_555 1_555
C1_7 H1_7 1_555 1_555
Ni7_3 O5_8 1_555 1_555
C1_8 C2_8 1_555 1_555
C2_8 C4_8 1_555 1_555
C3_8 C1_8 1_555 1_555
C4_8 O2_8 1_555 1_555
O9_3 C3_8 1_555 1_555
O2_8 Ni8 1_555 1_555
O13 C4_8 1_555 1_555
Ni7_3 O9_3 1_555 1_555
C5_8 C6_8 1_555 1_555
C6_8 C3_8 1_555 1_555
C7_8 C2_8 1_555 1_555
C8_8 C6_8 1_555 1_555
O8_6 C7_8 1_555 1_555
O14_3 C8_8 1_555 1_555
C5_8 C7_8 1_555 1_555
C1_8 H1_8 1_555 1_555
Ni7 O5_9 1_555 1_555
C1_9 C2_9 1_555 1_555
C2_9 C4_9 1_555 1_555
C3_9 C1_9 1_555 1_555
C4_9 O2_9 1_555 1_555
O9 C3_9 1_555 1_555
O2_9 Ni8_2 1_555 1_555
O13_2 C4_9 1_555 1_555
Ni7 O9 1_555 1_555
C5_9 C6_9 1_555 1_555
C6_9 C3_9 1_555 1_555
C7_9 C2_9 1_555 1_555
C8_9 C6_9 1_555 1_555
O8_4 C7_9 1_555 1_555
O14 C8_9 1_555 1_555
C5_9 C7_9 1_555 1_555
C1_9 H1_9 1_555 1_555

#END
