
###############################################################################
#
# This file contains modified crystal structure data generated from the
# MOF subset of the Cambridge Structural Database (CSD) v543 
# hosted by the Cambridge Crystallographic Data Centre (CCDC).
#
# This work is licensed under the Creative Commons
# Attribution-NonCommercial-ShareAlike 4.0 International License.
# To view a copy of this license, visit
# http://creativecommons.org/licenses/by-nc-sa/4.0/
# or send a letter to
# Creative Commons, PO Box 1866, Mountain View, CA 94042, USA.
#
# CIF created using the CSD Python API on 29 September 2022
# The structure has been converted into the P1 space group
# The structure has a 3D framework
# The original CSD entry MORFAD22 is in the rhombohedral crystal system
# The framework has been calculated to contain at least 10.0% void space
# The void calculation uses a probe of radius 1.32A, grid spacing 0.4
# H atom positions have been added when not included in the experimental data
#
###############################################################################

data_MORFAD22
_chemical_formula_moiety         '(C72 H18 Ni13 O51)n'
_symmetry_cell_setting           triclinic
_symmetry_space_group_name_H-M   'P 1'
_symmetry_Int_Tables_number      1
_space_group_name_Hall           'P 1'
loop_
_symmetry_equiv_pos_site_id
_symmetry_equiv_pos_as_xyz
1 x,y,z
_cell_length_a                   25.7864(2)
_cell_length_b                   25.7864(2)
_cell_length_c                   6.77145(10)
_cell_angle_alpha                90
_cell_angle_beta                 90
_cell_angle_gamma                120
_cell_volume                     3899.36
loop_
_atom_site_label
_atom_site_type_symbol
_atom_site_fract_x
_atom_site_fract_y
_atom_site_fract_z
Ni4 Ni 0.02868(8) 0.64879(11) 0.3562(3)
C1 C 0.0156(6) 0.5044(6) 0.804(2)
C2 C 0.0054(6) 0.5462(7) 0.8771(19)
C3 C 0.0114(6) 0.4566(6) 0.9201(18)
C4 C 0.0134(7) 0.5947(6) 0.7256(19)
O1 O 0.0231(3) 0.4136(3) 0.8391(13)
O2 O 0.0308(4) 0.5960(5) 0.5564(14)
O3 O 0.0038(3) 0.6376(4) 0.7960(11)
O8 O 0.0803(3) 0.7238(4) 0.4942(13)
O11 O 0.0291(4) 0.6995(5) 0.1293(11)
O12 O 0.0329(5) 0.3371(3) 0.5373(11)
Ni5 Ni 0.04656(14) 0.36201(8) 0.9771(3)
Ni6 Ni 0.01788(11) 0.71322(14) 0.6895(3)
H1 H 0.0276736 0.506845 0.648786
C5 C 0.9844(6) 0.4956(6) 0.196(2)
C6 C 0.9946(6) 0.4538(7) 0.1229(19)
C7 C 0.9886(6) 0.5434(6) 0.0799(18)
C8 C 0.9866(7) 0.4053(6) 0.2744(19)
O4 O 0.9769(3) 0.5864(3) 0.1609(13)
O5 O 0.9692(4) 0.4040(5) 0.4436(14)
O6 O 0.9962(3) 0.3624(4) 0.2040(11)
Ni3 Ni 0.97132(8) 0.35121(11) 0.6438(3)
Ni7 Ni 0.98212(11) 0.28678(14) 0.3105(3)
Ni8 Ni 0.95344(14) 0.63799(8) 0.0229(3)
H2 H 0.972326 0.493155 0.351214
O9 O 0.9197(3) 0.2762(4) 0.5058(13)
O13 O 0.9671(5) 0.6629(3) 0.4627(11)
O14 O 0.9709(4) 0.3005(5) 0.8707(11)
C5_2 C 0.5112(8) 0.0156(6) 0.196(2)
C6_2 C 0.4592(9) 0.0054(6) 0.1229(19)
C7_2 C 0.5548(8) 0.0114(6) 0.0799(18)
C8_2 C 0.4187(9) 0.0134(7) 0.2744(19)
O4_2 O 0.6095(4) 0.0231(3) 0.1609(13)
O5_2 O 0.4348(6) 0.0308(4) 0.4436(14)
O6_2 O 0.3662(5) 0.0038(3) 0.2040(11)
Ni3_2 Ni 0.37989(14) 0.02868(8) 0.6438(3)
Ni7_2 Ni 0.30465(18) 0.01788(11) 0.3105(3)
Ni8_2 Ni 0.68454(16) 0.04656(14) 0.0229(3)
H2_2 H 0.520828 0.0276736 0.351214
O9_2 O 0.3564(5) 0.0803(3) 0.5058(13)
O13_2 O 0.6957(6) 0.0329(5) 0.4627(11)
O14_2 O 0.3295(6) 0.0291(4) 0.8707(11)
Ni4_2 Ni 0.62011(14) 0.97132(8) 0.3562(3)
C1_2 C 0.4888(8) 0.9844(6) 0.804(2)
C2_2 C 0.5408(9) 0.9946(6) 0.8771(19)
C3_2 C 0.4452(8) 0.9886(6) 0.9201(18)
C4_2 C 0.5813(9) 0.9866(7) 0.7256(19)
O1_2 O 0.3905(4) 0.9769(3) 0.8391(13)
O2_2 O 0.5652(6) 0.9692(4) 0.5564(14)
O3_2 O 0.6338(5) 0.9962(3) 0.7960(11)
O8_2 O 0.6436(5) 0.9197(3) 0.4942(13)
O11_2 O 0.6705(6) 0.9709(4) 0.1293(11)
O12_2 O 0.3043(6) 0.9671(5) 0.5373(11)
Ni5_2 Ni 0.31546(16) 0.95344(14) 0.9771(3)
Ni6_2 Ni 0.69535(18) 0.98212(11) 0.6895(3)
H1_2 H 0.479172 0.972326 0.648786
C5_3 C 0.5044(6) 0.4888(8) 0.196(2)
C6_3 C 0.5462(7) 0.5408(9) 0.1229(19)
C7_3 C 0.4566(6) 0.4452(8) 0.0799(18)
C8_3 C 0.5947(6) 0.5813(9) 0.2744(19)
O4_3 O 0.4136(3) 0.3905(4) 0.1609(13)
O5_3 O 0.5960(5) 0.5652(6) 0.4436(14)
O6_3 O 0.6376(4) 0.6338(5) 0.2040(11)
Ni3_3 Ni 0.64879(11) 0.62011(14) 0.6438(3)
Ni4_3 Ni 0.35121(11) 0.37989(14) 0.3562(3)
Ni7_3 Ni 0.71322(14) 0.69535(18) 0.3105(3)
Ni8_3 Ni 0.36201(8) 0.31546(16) 0.0229(3)
H2_3 H 0.506845 0.479172 0.351214
C1_3 C 0.4956(6) 0.5112(8) 0.804(2)
C2_3 C 0.4538(7) 0.4592(9) 0.8771(19)
C3_3 C 0.5434(6) 0.5548(8) 0.9201(18)
C4_3 C 0.4053(6) 0.4187(9) 0.7256(19)
O1_3 O 0.5864(3) 0.6095(4) 0.8391(13)
O2_3 O 0.4040(5) 0.4348(6) 0.5564(14)
O3_3 O 0.3624(4) 0.3662(5) 0.7960(11)
O8_3 O 0.2762(4) 0.3564(5) 0.4942(13)
O9_3 O 0.7238(4) 0.6436(5) 0.5058(13)
O11_3 O 0.3005(5) 0.3295(6) 0.1293(11)
O12_3 O 0.6629(3) 0.6957(6) 0.5373(11)
O13_3 O 0.3371(3) 0.3043(6) 0.4627(11)
O14_3 O 0.6995(5) 0.6705(6) 0.8707(11)
Ni5_3 Ni 0.63799(8) 0.68454(16) 0.9771(3)
Ni6_3 Ni 0.28678(14) 0.30465(18) 0.6895(3)
H1_3 H 0.493155 0.520828 0.648786
O8_4 O 0.7469(3) 0.0572(4) 0.8276(13)
C1_4 C 0.6823(6) 0.8377(6) 0.137(2)
C2_4 C 0.6721(6) 0.8795(7) 0.2104(19)
C3_4 C 0.6781(6) 0.7899(6) 0.2534(18)
C4_4 C 0.6801(7) 0.9280(6) 0.0589(19)
O1_4 O 0.6898(3) 0.7469(3) 0.1724(13)
C5_4 C 0.6511(6) 0.8289(6) 0.529(2)
C6_4 C 0.6613(6) 0.7871(7) 0.4562(19)
C7_4 C 0.6553(6) 0.8767(6) 0.4132(18)
C8_4 C 0.6533(7) 0.7386(6) 0.6077(19)
O5_4 O 0.6359(4) 0.7373(5) 0.7769(14)
H2_4 H 0.638993 0.826488 0.684547
O2_4 O 0.6975(4) 0.9293(5) 0.8897(14)
H1_4 H 0.69434 0.840179 0.98212
C1_5 C 0.1555(8) 0.3177(6) 0.137(2)
C2_5 C 0.2075(9) 0.3279(6) 0.2104(19)
C3_5 C 0.1119(8) 0.3219(6) 0.2534(18)
C4_5 C 0.2480(9) 0.3199(7) 0.0589(19)
O1_5 O 0.0572(4) 0.3102(3) 0.1724(13)
C5_5 C 0.1779(8) 0.3489(6) 0.529(2)
C6_5 C 0.1259(9) 0.3387(6) 0.4562(19)
C7_5 C 0.2215(8) 0.3447(6) 0.4132(18)
C8_5 C 0.0854(9) 0.3467(7) 0.6077(19)
O5_5 O 0.1015(6) 0.3641(4) 0.7769(14)
H2_5 H 0.187495 0.361007 0.684547
O2_5 O 0.2319(6) 0.3025(4) 0.8897(14)
O8_5 O 0.3102(5) 0.2531(3) 0.8276(13)
H1_5 H 0.145838 0.30566 0.98212
C1_6 C 0.1623(6) 0.8445(8) 0.137(2)
C2_6 C 0.1205(7) 0.7925(9) 0.2104(19)
C3_6 C 0.2101(6) 0.8881(8) 0.2534(18)
C4_6 C 0.0720(6) 0.7520(9) 0.0589(19)
O1_6 O 0.2531(3) 0.9428(4) 0.1724(13)
C5_6 C 0.1711(6) 0.8221(8) 0.529(2)
C6_6 C 0.2129(7) 0.8741(9) 0.4562(19)
C7_6 C 0.1233(6) 0.7785(8) 0.4132(18)
C8_6 C 0.2614(6) 0.9146(9) 0.6077(19)
O5_6 O 0.2627(5) 0.8985(6) 0.7769(14)
H2_6 H 0.173512 0.812505 0.684547
O2_6 O 0.0707(5) 0.7681(6) 0.8897(14)
H1_6 H 0.159821 0.854162 0.98212
O8_6 O 0.9428(4) 0.6898(5) 0.8276(13)
O5_7 O 0.3025(4) 0.0707(5) 0.1103(14)
H2_7 H 0.30566 0.159821 0.0178804
C1_7 C 0.3489(6) 0.1711(6) 0.471(2)
C2_7 C 0.3387(6) 0.2129(7) 0.5438(19)
C3_7 C 0.3447(6) 0.1233(6) 0.5868(18)
C4_7 C 0.3467(7) 0.2614(6) 0.3923(19)
O2_7 O 0.3641(4) 0.2627(5) 0.2231(14)
C5_7 C 0.3177(6) 0.1623(6) 0.863(2)
C6_7 C 0.3279(6) 0.1205(7) 0.7896(19)
C7_7 C 0.3219(6) 0.2101(6) 0.7466(18)
C8_7 C 0.3199(7) 0.0720(6) 0.9411(19)
H1_7 H 0.361007 0.173512 0.315453
O5_8 O 0.7681(6) 0.6975(4) 0.1103(14)
H2_8 H 0.854162 0.69434 0.0178804
C1_8 C 0.8221(8) 0.6511(6) 0.471(2)
C2_8 C 0.8741(9) 0.6613(6) 0.5438(19)
C3_8 C 0.7785(8) 0.6553(6) 0.5868(18)
C4_8 C 0.9146(9) 0.6533(7) 0.3923(19)
O2_8 O 0.8985(6) 0.6359(4) 0.2231(14)
C5_8 C 0.8445(8) 0.6823(6) 0.863(2)
C6_8 C 0.7925(9) 0.6721(6) 0.7896(19)
C7_8 C 0.8881(8) 0.6781(6) 0.7466(18)
C8_8 C 0.7520(9) 0.6801(7) 0.9411(19)
H1_8 H 0.812505 0.638993 0.315453
O5_9 O 0.9293(5) 0.2319(6) 0.1103(14)
H2_9 H 0.840179 0.145838 0.0178804
C1_9 C 0.8289(6) 0.1779(8) 0.471(2)
C2_9 C 0.7871(7) 0.1259(9) 0.5438(19)
C3_9 C 0.8767(6) 0.2215(8) 0.5868(18)
C4_9 C 0.7386(6) 0.0854(9) 0.3923(19)
O2_9 O 0.7373(5) 0.1015(6) 0.2231(14)
C5_9 C 0.8377(6) 0.1555(8) 0.863(2)
C6_9 C 0.8795(7) 0.2075(9) 0.7896(19)
C7_9 C 0.7899(6) 0.1119(8) 0.7466(18)
C8_9 C 0.9280(6) 0.2480(9) 0.9411(19)
H1_9 H 0.826488 0.187495 0.315453
loop_
_geom_bond_atom_site_label_1
_geom_bond_atom_site_label_2
_geom_bond_site_symmetry_1
_geom_bond_site_symmetry_2
C1 C2 1_555 1_555
C2 C4 1_555 1_555
C3 C1 1_555 1_555
C4 O2 1_555 1_555
O1 C3 1_555 1_555
O2 Ni4 1_555 1_555
O3 C4 1_555 1_555
O8 Ni4 1_555 1_555
O11 Ni4 1_555 1_555
Ni5 O1 1_555 1_555
Ni6 O3 1_555 1_555
O8 Ni6 1_555 1_555
C1 H1 1_555 1_555
C5 C6 1_555 1_555
C8 C6 1_555 1_555
O4 C7 1_555 1_555
O5 C8 1_555 1_555
O6 C8 1_555 1_555
Ni3 O5 1_555 1_555
Ni7 O6 1_555 1_555
C5 C7 1_555 1_555
O4 Ni8 1_555 1_555
C5 H2 1_555 1_555
O9 Ni3 1_555 1_555
O14 Ni3 1_555 1_555
C5_2 C6_2 1_555 1_555
C8_2 C6_2 1_555 1_555
O4_2 C7_2 1_555 1_555
O5_2 C8_2 1_555 1_555
O6_2 C8_2 1_555 1_555
Ni3_2 O5_2 1_555 1_555
Ni7_2 O6_2 1_555 1_555
C5_2 C7_2 1_555 1_555
O4_2 Ni8_2 1_555 1_555
C5_2 H2_2 1_555 1_555
O9_2 Ni3_2 1_555 1_555
O14_2 Ni3_2 1_555 1_555
C1_2 C2_2 1_555 1_555
C2_2 C4_2 1_555 1_555
C3_2 C1_2 1_555 1_555
C4_2 O2_2 1_555 1_555
O1_2 C3_2 1_555 1_555
O2_2 Ni4_2 1_555 1_555
O3_2 C4_2 1_555 1_555
O8_2 Ni4_2 1_555 1_555
O11_2 Ni4_2 1_555 1_555
Ni5_2 O1_2 1_555 1_555
Ni6_2 O3_2 1_555 1_555
O8_2 Ni6_2 1_555 1_555
C1_2 H1_2 1_555 1_555
C5_3 C6_3 1_555 1_555
C8_3 C6_3 1_555 1_555
O4_3 C7_3 1_555 1_555
O5_3 C8_3 1_555 1_555
O6_3 C8_3 1_555 1_555
Ni3_3 O5_3 1_555 1_555
Ni4_3 O4_3 1_555 1_555
Ni7_3 O6_3 1_555 1_555
C5_3 C7_3 1_555 1_555
O4_3 Ni8_3 1_555 1_555
C5_3 H2_3 1_555 1_555
C1_3 C2_3 1_555 1_555
C2_3 C4_3 1_555 1_555
C3_3 C1_3 1_555 1_555
C4_3 O2_3 1_555 1_555
O1_3 C3_3 1_555 1_555
O2_3 Ni4_3 1_555 1_555
O3_3 C4_3 1_555 1_555
Ni3_3 O1_3 1_555 1_555
O8_3 Ni4_3 1_555 1_555
O9_3 Ni3_3 1_555 1_555
O11_3 Ni4_3 1_555 1_555
O12_3 Ni3_3 1_555 1_555
O13_3 Ni4_3 1_555 1_555
O14_3 Ni3_3 1_555 1_555
Ni5_3 O1_3 1_555 1_555
Ni6_3 O3_3 1_555 1_555
O8_3 Ni6_3 1_555 1_555
O13_3 Ni6_3 1_555 1_555
O14_3 Ni5_3 1_555 1_555
C1_3 H1_3 1_555 1_555
C1_4 C2_4 1_555 1_555
C2_4 C4_4 1_555 1_555
C3_4 C1_4 1_555 1_555
O1_4 C3_4 1_555 1_555
O11_2 C4_4 1_555 1_555
C5_4 C6_4 1_555 1_555
C6_4 C3_4 1_555 1_555
C7_4 C2_4 1_555 1_555
C8_4 C6_4 1_555 1_555
O8_2 C7_4 1_555 1_555
O5_4 C8_4 1_555 1_555
O12_3 C8_4 1_555 1_555
Ni5_3 O5_4 1_555 1_555
Ni7_3 O1_4 1_555 1_555
C5_4 C7_4 1_555 1_555
O12_3 Ni7_3 1_555 1_555
C5_4 H2_4 1_555 1_555
O2_4 Ni6_2 1_555 1_555
C1_5 C2_5 1_555 1_555
C2_5 C4_5 1_555 1_555
C3_5 C1_5 1_555 1_555
O1_5 C3_5 1_555 1_555
O11_3 C4_5 1_555 1_555
C5_5 C6_5 1_555 1_555
C6_5 C3_5 1_555 1_555
C7_5 C2_5 1_555 1_555
C8_5 C6_5 1_555 1_555
O8_3 C7_5 1_555 1_555
O5_5 C8_5 1_555 1_555
O12 C8_5 1_555 1_555
Ni5 O5_5 1_555 1_555
Ni8_3 O11_3 1_555 1_555
C5_5 C7_5 1_555 1_555
C5_5 H2_5 1_555 1_555
O2_5 Ni6_3 1_555 1_555
O8_5 Ni6_3 1_555 1_555
C1_6 C2_6 1_555 1_555
C2_6 C4_6 1_555 1_555
C3_6 C1_6 1_555 1_555
O1_6 C3_6 1_555 1_555
O11 C4_6 1_555 1_555
C5_6 C6_6 1_555 1_555
C6_6 C3_6 1_555 1_555
C7_6 C2_6 1_555 1_555
C8_6 C6_6 1_555 1_555
O8 C7_6 1_555 1_555
O5_6 C8_6 1_555 1_555
O12_2 C8_6 1_555 1_555
Ni5_2 O5_6 1_555 1_555
C5_6 C7_6 1_555 1_555
C5_6 H2_6 1_555 1_555
O2_6 Ni6 1_555 1_555
Ni7_2 O5_7 1_555 1_555
C1_7 C2_7 1_555 1_555
C2_7 C4_7 1_555 1_555
C3_7 C1_7 1_555 1_555
C4_7 O2_7 1_555 1_555
O9_2 C3_7 1_555 1_555
O2_7 Ni8_3 1_555 1_555
O13_3 C4_7 1_555 1_555
Ni7_2 O9_2 1_555 1_555
C5_7 C6_7 1_555 1_555
C6_7 C3_7 1_555 1_555
C7_7 C2_7 1_555 1_555
C8_7 C6_7 1_555 1_555
O8_5 C7_7 1_555 1_555
O14_2 C8_7 1_555 1_555
C5_7 C7_7 1_555 1_555
C1_7 H1_7 1_555 1_555
Ni7_3 O5_8 1_555 1_555
C1_8 C2_8 1_555 1_555
C2_8 C4_8 1_555 1_555
C3_8 C1_8 1_555 1_555
C4_8 O2_8 1_555 1_555
O9_3 C3_8 1_555 1_555
O2_8 Ni8 1_555 1_555
O13 C4_8 1_555 1_555
Ni7_3 O9_3 1_555 1_555
C5_8 C6_8 1_555 1_555
C6_8 C3_8 1_555 1_555
C7_8 C2_8 1_555 1_555
C8_8 C6_8 1_555 1_555
O8_6 C7_8 1_555 1_555
O14_3 C8_8 1_555 1_555
C5_8 C7_8 1_555 1_555
C1_8 H1_8 1_555 1_555
Ni7 O5_9 1_555 1_555
C1_9 C2_9 1_555 1_555
C2_9 C4_9 1_555 1_555
C3_9 C1_9 1_555 1_555
C4_9 O2_9 1_555 1_555
O9 C3_9 1_555 1_555
O2_9 Ni8_2 1_555 1_555
O13_2 C4_9 1_555 1_555
Ni7 O9 1_555 1_555
C5_9 C6_9 1_555 1_555
C6_9 C3_9 1_555 1_555
C7_9 C2_9 1_555 1_555
C8_9 C6_9 1_555 1_555
O8_4 C7_9 1_555 1_555
O14 C8_9 1_555 1_555
C5_9 C7_9 1_555 1_555
C1_9 H1_9 1_555 1_555

#END
