
###############################################################################
#
# This file contains modified crystal structure data generated from the
# MOF subset of the Cambridge Structural Database (CSD) v543 
# hosted by the Cambridge Crystallographic Data Centre (CCDC).
#
# This work is licensed under the Creative Commons
# Attribution-NonCommercial-ShareAlike 4.0 International License.
# To view a copy of this license, visit
# http://creativecommons.org/licenses/by-nc-sa/4.0/
# or send a letter to
# Creative Commons, PO Box 1866, Mountain View, CA 94042, USA.
#
# CIF created using the CSD Python API on 29 September 2022
# The structure has been converted into the P1 space group
# The structure has a 3D framework
# The original CSD entry MORVUN is in the monoclinic crystal system
# The framework has been calculated to contain at least 10.0% void space
# The void calculation uses a probe of radius 1.32A, grid spacing 0.4
#
###############################################################################

data_MORVUN
_chemical_formula_moiety         '(C164 H116 Co4 N12 O16)n'
_symmetry_cell_setting           triclinic
_symmetry_space_group_name_H-M   'P 1'
_symmetry_Int_Tables_number      1
_space_group_name_Hall           'P 1'
loop_
_symmetry_equiv_pos_site_id
_symmetry_equiv_pos_as_xyz
1 x,y,z
_cell_length_a                   11.802
_cell_length_b                   12.019
_cell_length_c                   25.389
_cell_angle_alpha                90
_cell_angle_beta                 94.25
_cell_angle_gamma                90
_cell_volume                     3591.48
loop_
_atom_site_label
_atom_site_type_symbol
_atom_site_fract_x
_atom_site_fract_y
_atom_site_fract_z
N2 N 0.7876(2) 0.7095(3) 0.77376(11)
C1 C 0.8270(3) 0.6157(3) 0.75458(14)
H1 H 0.899107 0.592594 0.767300
C2 C 0.7689(3) 0.5499(4) 0.71717(14)
H2 H 0.801211 0.484521 0.705616
C3 C 0.6611(3) 0.5828(3) 0.69692(13)
C4 C 0.6187(4) 0.6791(4) 0.71738(15)
H3 H 0.546222 0.703386 0.705836
C5 C 0.6822(3) 0.7391(4) 0.75449(15)
H4 H 0.651101 0.804047 0.767206
C6 C 0.5955(3) 0.5210(4) 0.65512(13)
H5 H 0.522123 0.545549 0.645632
C7 C 0.6315(3) 0.4347(3) 0.63020(12)
H6 H 0.701590 0.406202 0.642802
C8 C 0.5745(3) 0.3769(3) 0.58449(12)
C9 C 0.6321(3) 0.2908(3) 0.56141(12)
H7 H 0.702296 0.268892 0.577045
C10 C 0.5892(3) 0.2362(3) 0.51595(12)
C11 C 0.4841(3) 0.2732(3) 0.49275(12)
H8 H 0.454150 0.239573 0.461798
C12 C 0.4236(3) 0.3586(3) 0.51468(12)
C13 C 0.4690(3) 0.4100(3) 0.56084(12)
H9 H 0.428820 0.466721 0.575992
C14 C 0.6526(3) 0.1438(3) 0.49386(12)
H10 H 0.730365 0.141163 0.502791
C15 C 0.6097(3) 0.0656(3) 0.46299(12)
H11 H 0.531319 0.065456 0.455831
H12 H 0.833025 0.035313 0.456777
C21 C 0.3168(3) 0.3952(3) 0.48672(12)
H16 H 0.297130 0.359329 0.454892
C22 C 0.2465(3) 0.4701(3) 0.50016(13)
H17 H 0.258536 0.499365 0.534024
C23 C 0.1501(3) 0.5134(3) 0.46737(12)
C24 C 0.1148(3) 0.4665(4) 0.41874(13)
H18 H 0.147621 0.400707 0.407998
C25 C 0.0311(3) 0.5175(4) 0.38657(14)
H19 H 0.010739 0.484900 0.354017
C26 C 0.0082(3) 0.6524(4) 0.44692(13)
C27 C 0.0921(3) 0.6080(4) 0.48101(14)
H21 H 0.110110 0.641722 0.513520
Co3 Co 0.12226(4) 0.20042(4) 0.16178(2)
Co4 Co 0.87774(4) 0.79958(4) 0.83822(2)
O5 O 0.00725(19) 0.8117(2) 0.33690(10)
N3 N 0.7942(2) 0.8111(3) 0.38875(11)
C16 C 0.6737(3) 0.9782(3) 0.43867(12)
C17 C 0.7916(3) 0.9789(4) 0.43923(15)
C18 C 0.8469(3) 0.8967(4) 0.41399(15)
H13 H 0.925626 0.900416 0.414373
C19 C 0.6809(3) 0.8094(3) 0.38889(14)
H14 H 0.641680 0.750397 0.372316
C20 C 0.6199(3) 0.8899(3) 0.41215(13)
H15 H 0.540995 0.885276 0.410157
Co2 Co 0.87774(4) 0.70042(4) 0.33822(2)
O1 O 0.7447(2) 0.5769(2) 0.34291(10)
O2 O 0.8687(2) 0.5438(2) 0.28497(9)
O3 O 0.8695(3) 0.1991(3) 0.19545(14)
O4 O 0.99275(19) 0.3117(2) 0.16310(10)
N1 N 0.9774(2) 0.6102(3) 0.39887(10)
H20 H 0.970446 0.715434 0.457685
C28 C 0.7872(3) 0.5132(3) 0.30966(13)
C29 C 0.7403(3) 0.3973(3) 0.30459(12)
C30 C 0.7217(4) 0.3394(4) 0.35075(14)
H22 H 0.735131 0.375160 0.383087
C31 C 0.6841(4) 0.2314(4) 0.34998(18)
H23 H 0.674753 0.194348 0.381517
C32 C 0.6604(4) 0.1784(4) 0.30294(19)
H24 H 0.634550 0.105313 0.302247
C33 C 0.6752(3) 0.2341(4) 0.25629(16)
H25 H 0.657316 0.198241 0.224297
C34 C 0.7165(3) 0.3430(3) 0.25616(13)
C35 C 0.7253(3) 0.4027(3) 0.20475(12)
C36 C 0.6469(3) 0.4870(4) 0.19257(15)
H26 H 0.592295 0.502705 0.216109
C37 C 0.6478(4) 0.5482(4) 0.14649(16)
H27 H 0.594210 0.603795 0.139084
C38 C 0.7286(4) 0.5259(4) 0.11178(15)
H28 H 0.730337 0.566627 0.080705
C39 C 0.8072(3) 0.4430(4) 0.12313(13)
H29 H 0.861966 0.428932 0.099453
C40 C 0.8071(3) 0.3802(3) 0.16860(12)
C41 C 0.8950(3) 0.2887(3) 0.17732(13)
N4 N 0.7876(2) 0.7905(3) 0.27376(11)
O1_2 O 0.2553(2) 0.0769(2) 0.15709(10)
O2_2 O 0.1313(2) 0.0438(2) 0.21503(9)
N1_2 N 0.0226(2) 0.1102(3) 0.10113(10)
H20_2 H 0.029554 0.215434 0.042315
C28_2 C 0.2128(3) 0.0132(3) 0.19034(13)
H26_2 H 0.407705 0.002705 0.283891
C37_2 C 0.3522(4) 0.0482(4) 0.35351(16)
H27_2 H 0.405790 0.103795 0.360916
C38_2 C 0.2714(4) 0.0259(4) 0.38822(15)
H28_2 H 0.269663 0.066627 0.419295
N4_2 N 0.2124(2) 0.2905(3) 0.22624(11)
N5 N 0.2058(2) 0.3111(3) 0.11125(11)
O3_2 O 0.1305(3) 0.6991(3) 0.30455(14)
C29_2 C 0.2597(3) 0.8973(3) 0.19541(12)
C30_2 C 0.2783(4) 0.8394(4) 0.14925(14)
H22_2 H 0.264869 0.875160 0.116913
C31_2 C 0.3159(4) 0.7314(4) 0.15002(18)
H23_2 H 0.325247 0.694348 0.118483
C32_2 C 0.3396(4) 0.6784(4) 0.19706(19)
H24_2 H 0.365450 0.605313 0.197753
C33_2 C 0.3248(3) 0.7341(4) 0.24371(16)
H25_2 H 0.342684 0.698241 0.275703
C34_2 C 0.2835(3) 0.8430(3) 0.24384(13)
C35_2 C 0.2747(3) 0.9027(3) 0.29525(12)
C36_2 C 0.3531(3) 0.9870(4) 0.30743(15)
C39_2 C 0.1928(3) 0.9430(4) 0.37687(13)
H29_2 H 0.138034 0.928932 0.400547
C40_2 C 0.1929(3) 0.8802(3) 0.33140(12)
C41_2 C 0.1050(3) 0.7887(3) 0.32268(13)
C23_2 C 0.8499(3) 0.0134(3) 0.03263(12)
C25_2 C 0.9689(3) 0.0175(4) 0.11343(14)
C26_2 C 0.9918(3) 0.1524(4) 0.05308(13)
C27_2 C 0.9079(3) 0.1080(4) 0.01899(14)
N2_2 N 0.2124(2) 0.2095(3) 0.72624(11)
C1_2 C 0.1730(3) 0.1157(3) 0.74542(14)
H1_2 H 0.100893 0.092594 0.732700
C2_2 C 0.2311(3) 0.0499(4) 0.78283(14)
C3_2 C 0.3389(3) 0.0828(3) 0.80308(13)
C4_2 C 0.3813(4) 0.1791(4) 0.78262(15)
H3_2 H 0.453778 0.203386 0.794164
C5_2 C 0.3178(3) 0.2391(4) 0.74551(15)
H4_2 H 0.348899 0.304047 0.732794
C6_2 C 0.4045(3) 0.0210(4) 0.84488(13)
H5_2 H 0.477877 0.045549 0.854368
H21_2 H 0.889890 0.141722 0.986480
Co4_2 Co 0.12226(4) 0.29958(4) 0.66178(2)
C11_2 C 0.5159(3) 0.7732(3) 0.00725(12)
H8_2 H 0.545850 0.739573 0.038202
C14_2 C 0.3474(3) 0.6438(3) 0.00614(12)
C15_2 C 0.3903(3) 0.5656(3) 0.03701(12)
H11_2 H 0.468681 0.565456 0.044169
C16_2 C 0.3263(3) 0.4782(3) 0.06133(12)
C17_2 C 0.2084(3) 0.4789(4) 0.06077(15)
H12_2 H 0.166975 0.535313 0.043223
C18_2 C 0.1531(3) 0.3967(4) 0.08601(15)
H13_2 H 0.074374 0.400416 0.085627
C19_2 C 0.3191(3) 0.3094(3) 0.11111(14)
H14_2 H 0.358320 0.250397 0.127684
C20_2 C 0.3801(3) 0.3899(3) 0.08785(13)
H15_2 H 0.459005 0.385276 0.089843
C21_2 C 0.6832(3) 0.8952(3) 0.01328(12)
H16_2 H 0.702870 0.859329 0.045108
C24_2 C 0.8852(3) 0.9665(4) 0.08126(13)
H18_2 H 0.852379 0.900707 0.092002
H19_2 H 0.989261 0.984900 0.145983
O1_3 O 0.2553(2) 0.4231(2) 0.65709(10)
O2_3 O 0.1313(2) 0.4562(2) 0.71503(9)
O3_3 O 0.1305(3) 0.8009(3) 0.80455(14)
O4_2 O 0.00725(19) 0.6883(2) 0.83690(10)
N1_3 N 0.0226(2) 0.3898(3) 0.60113(10)
H20_3 H 0.029554 0.284566 0.542315
C28_3 C 0.2128(3) 0.4868(3) 0.69034(13)
C29_3 C 0.2597(3) 0.6027(3) 0.69541(12)
C30_3 C 0.2783(4) 0.6606(4) 0.64925(14)
H22_3 H 0.264869 0.624840 0.616913
C31_3 C 0.3159(4) 0.7686(4) 0.65002(18)
H23_3 H 0.325247 0.805652 0.618483
C32_3 C 0.3396(4) 0.8216(4) 0.69706(19)
H24_3 H 0.365450 0.894687 0.697753
C33_3 C 0.3248(3) 0.7659(4) 0.74371(16)
H25_3 H 0.342684 0.801759 0.775703
C34_3 C 0.2835(3) 0.6570(3) 0.74384(13)
C35_3 C 0.2747(3) 0.5973(3) 0.79525(12)
C36_3 C 0.3531(3) 0.5130(4) 0.80743(15)
H26_3 H 0.407705 0.497295 0.783891
C37_3 C 0.3522(4) 0.4518(4) 0.85351(16)
H27_3 H 0.405790 0.396205 0.860916
C38_3 C 0.2714(4) 0.4741(4) 0.88822(15)
H28_3 H 0.269663 0.433373 0.919295
C39_3 C 0.1928(3) 0.5570(4) 0.87687(13)
H29_3 H 0.138034 0.571068 0.900547
C40_3 C 0.1929(3) 0.6198(3) 0.83140(12)
C41_3 C 0.1050(3) 0.7113(3) 0.82268(13)
N5_2 N 0.2058(2) 0.1889(3) 0.61125(11)
C16_3 C 0.3263(3) 0.0218(3) 0.56133(12)
C17_3 C 0.2084(3) 0.0211(4) 0.56077(15)
C18_3 C 0.1531(3) 0.1033(4) 0.58601(15)
H13_3 H 0.074374 0.099584 0.585627
C19_3 C 0.3191(3) 0.1906(3) 0.61111(14)
H14_3 H 0.358320 0.249603 0.627684
C20_3 C 0.3801(3) 0.1101(3) 0.58785(13)
H15_3 H 0.459005 0.114724 0.589843
C1_3 C 0.1730(3) 0.3843(3) 0.24542(14)
H1_3 H 0.100893 0.407406 0.232700
C2_3 C 0.2311(3) 0.4501(4) 0.28283(14)
H2_2 H 0.198789 0.515479 0.294384
C3_3 C 0.3389(3) 0.4172(3) 0.30308(13)
C4_3 C 0.3813(4) 0.3209(4) 0.28262(15)
H3_3 H 0.453778 0.296614 0.294164
C5_3 C 0.3178(3) 0.2609(4) 0.24551(15)
H4_3 H 0.348899 0.195953 0.232794
C6_3 C 0.4045(3) 0.4790(4) 0.34488(13)
H5_3 H 0.477877 0.454451 0.354368
C7_2 C 0.3685(3) 0.5653(3) 0.36980(12)
H6_2 H 0.298410 0.593798 0.357198
C8_2 C 0.4255(3) 0.6231(3) 0.41551(12)
C9_2 C 0.3679(3) 0.7092(3) 0.43859(12)
H7_2 H 0.297704 0.731108 0.422955
C10_2 C 0.4108(3) 0.7638(3) 0.48405(12)
C11_3 C 0.5159(3) 0.7268(3) 0.50725(12)
H8_3 H 0.545850 0.760427 0.538202
C12_2 C 0.5764(3) 0.6414(3) 0.48532(12)
C13_2 C 0.5310(3) 0.5900(3) 0.43916(12)
H9_2 H 0.571180 0.533279 0.424008
C14_3 C 0.3474(3) 0.8562(3) 0.50614(12)
H10_2 H 0.269635 0.858837 0.497209
C15_3 C 0.3903(3) 0.9344(3) 0.53701(12)
H11_3 H 0.468681 0.934544 0.544169
H12_3 H 0.166975 0.964687 0.543223
C21_3 C 0.6832(3) 0.6048(3) 0.51328(12)
H16_3 H 0.702870 0.640671 0.545108
C22_2 C 0.7535(3) 0.5299(3) 0.49984(13)
H17_2 H 0.741464 0.500635 0.465976
C23_3 C 0.8499(3) 0.4866(3) 0.53263(12)
C24_3 C 0.8852(3) 0.5335(4) 0.58126(13)
H18_3 H 0.852379 0.599293 0.592002
C25_3 C 0.9689(3) 0.4825(4) 0.61343(14)
H19_3 H 0.989261 0.515100 0.645983
C26_3 C 0.9918(3) 0.3476(4) 0.55308(13)
C27_3 C 0.9079(3) 0.3920(4) 0.51899(14)
H21_3 H 0.889890 0.358278 0.486480
O5_2 O 0.99275(19) 0.1883(2) 0.66310(10)
N3_2 N 0.7942(2) 0.6889(3) 0.88875(11)
C11_4 C 0.4841(3) 0.2268(3) 0.99275(12)
H8_4 H 0.454150 0.260427 0.961798
C14_4 C 0.6526(3) 0.3562(3) 0.99386(12)
C15_4 C 0.6097(3) 0.4344(3) 0.96299(12)
H11_4 H 0.531319 0.434544 0.955831
C16_4 C 0.6737(3) 0.5218(3) 0.93867(12)
C17_4 C 0.7916(3) 0.5211(4) 0.93923(15)
H12_4 H 0.833025 0.464687 0.956777
C18_4 C 0.8469(3) 0.6033(4) 0.91399(15)
H13_4 H 0.925626 0.599584 0.914373
C19_4 C 0.6809(3) 0.6906(3) 0.88889(14)
H14_4 H 0.641680 0.749603 0.872316
C20_4 C 0.6199(3) 0.6101(3) 0.91215(13)
H15_4 H 0.540995 0.614724 0.910157
C21_4 C 0.3168(3) 0.1048(3) 0.98672(12)
H16_4 H 0.297130 0.140671 0.954892
C24_4 C 0.1148(3) 0.0335(4) 0.91874(13)
H18_4 H 0.147621 0.099293 0.907998
H19_4 H 0.010739 0.015100 0.854017
C1_4 C 0.8270(3) 0.8843(3) 0.25458(14)
H1_4 H 0.899107 0.907406 0.267300
C2_4 C 0.7689(3) 0.9501(4) 0.21717(14)
C3_4 C 0.6611(3) 0.9172(3) 0.19692(13)
C4_4 C 0.6187(4) 0.8209(4) 0.21738(15)
H3_4 H 0.546222 0.796614 0.205836
C5_4 C 0.6822(3) 0.7609(4) 0.25449(15)
H4_4 H 0.651101 0.695953 0.267206
C6_4 C 0.5955(3) 0.9790(4) 0.15512(13)
H5_4 H 0.522123 0.954451 0.145632
H21_4 H 0.110110 0.858278 0.013520
C23_4 C 0.1501(3) 0.9866(3) 0.96737(12)
C25_4 C 0.0311(3) 0.9825(4) 0.88657(14)
C26_4 C 0.0082(3) 0.8476(4) 0.94692(13)
C27_4 C 0.0921(3) 0.8920(4) 0.98101(14)
O3_4 O 0.8695(3) 0.3009(3) 0.69545(14)
C29_4 C 0.7403(3) 0.1027(3) 0.80459(12)
C30_4 C 0.7217(4) 0.1606(4) 0.85075(14)
H22_4 H 0.735131 0.124840 0.883087
C31_4 C 0.6841(4) 0.2686(4) 0.84998(18)
H23_4 H 0.674753 0.305652 0.881517
C32_4 C 0.6604(4) 0.3216(4) 0.80294(19)
H24_4 H 0.634550 0.394687 0.802247
C33_4 C 0.6752(3) 0.2659(4) 0.75629(16)
H25_4 H 0.657316 0.301759 0.724297
C34_4 C 0.7165(3) 0.1570(3) 0.75616(13)
C35_4 C 0.7253(3) 0.0973(3) 0.70475(12)
C36_4 C 0.6469(3) 0.0130(4) 0.69257(15)
C39_4 C 0.8072(3) 0.0570(4) 0.62313(13)
H29_4 H 0.861966 0.071068 0.599453
C40_4 C 0.8071(3) 0.1198(3) 0.66860(12)
C41_4 C 0.8950(3) 0.2113(3) 0.67732(13)
O1_4 O 0.7447(2) 0.9231(2) 0.84291(10)
O2_4 O 0.8687(2) 0.9562(2) 0.78497(9)
N1_4 N 0.9774(2) 0.8898(3) 0.89887(10)
H20_4 H 0.970446 0.784566 0.957685
C28_4 C 0.7872(3) 0.9868(3) 0.80966(13)
H26_4 H 0.592295 0.997295 0.716109
C37_4 C 0.6478(4) 0.9518(4) 0.64649(16)
H27_4 H 0.594210 0.896205 0.639084
C38_4 C 0.7286(4) 0.9741(4) 0.61178(15)
H28_4 H 0.730337 0.933373 0.580705
H2_3 H 0.198789 0.984521 0.794384
C7_3 C 0.3685(3) 0.9347(3) 0.86980(12)
H6_3 H 0.298410 0.906202 0.857198
C8_3 C 0.4255(3) 0.8769(3) 0.91551(12)
C9_3 C 0.3679(3) 0.7908(3) 0.93859(12)
H7_3 H 0.297704 0.768892 0.922955
C10_3 C 0.4108(3) 0.7362(3) 0.98405(12)
C12_3 C 0.5764(3) 0.8586(3) 0.98532(12)
C13_3 C 0.5310(3) 0.9100(3) 0.93916(12)
H9_3 H 0.571180 0.966721 0.924008
H10_3 H 0.269635 0.641163 0.997209
C22_3 C 0.7535(3) 0.9701(3) 0.99984(13)
H17_3 H 0.741464 0.999365 0.965976
H2_4 H 0.801211 0.015479 0.205616
C7_4 C 0.6315(3) 0.0653(3) 0.13020(12)
H6_4 H 0.701590 0.093798 0.142802
C8_4 C 0.5745(3) 0.1231(3) 0.08449(12)
C9_4 C 0.6321(3) 0.2092(3) 0.06141(12)
H7_4 H 0.702296 0.231108 0.077045
C10_4 C 0.5892(3) 0.2638(3) 0.01595(12)
C12_4 C 0.4236(3) 0.1414(3) 0.01468(12)
C13_4 C 0.4690(3) 0.0900(3) 0.06084(12)
H9_4 H 0.428820 0.033279 0.075992
H10_4 H 0.730365 0.358837 0.002791
C22_4 C 0.2465(3) 0.0299(3) 0.00016(13)
H17_4 H 0.258536 0.000635 0.034024
loop_
_geom_bond_atom_site_label_1
_geom_bond_atom_site_label_2
_geom_bond_site_symmetry_1
_geom_bond_site_symmetry_2
N2 C1 1_555 1_555
C1 H1 1_555 1_555
C2 C1 1_555 1_555
H2 C2 1_555 1_555
C3 C2 1_555 1_555
C4 C3 1_555 1_555
H3 C4 1_555 1_555
C5 N2 1_555 1_555
H4 C5 1_555 1_555
C6 C3 1_555 1_555
H5 C6 1_555 1_555
C7 C6 1_555 1_555
H6 C7 1_555 1_555
C8 C7 1_555 1_555
C9 C8 1_555 1_555
H7 C9 1_555 1_555
C10 C9 1_555 1_555
C11 C10 1_555 1_555
H8 C11 1_555 1_555
C12 C11 1_555 1_555
C13 C8 1_555 1_555
H9 C13 1_555 1_555
C14 C10 1_555 1_555
H10 C14 1_555 1_555
C15 C14 1_555 1_555
H11 C15 1_555 1_555
C21 C12 1_555 1_555
H16 C21 1_555 1_555
C22 C21 1_555 1_555
H17 C22 1_555 1_555
C23 C22 1_555 1_555
C24 C23 1_555 1_555
H18 C24 1_555 1_555
H19 C25 1_555 1_555
C27 C23 1_555 1_555
H21 C27 1_555 1_555
Co4 N2 1_555 1_555
C4 C5 1_555 1_555
C12 C13 1_555 1_555
C24 C25 1_555 1_555
C26 C27 1_555 1_555
N3 C18 1_555 1_555
C17 C16 1_555 1_555
C18 C17 1_555 1_555
H13 C18 1_555 1_555
C19 N3 1_555 1_555
H14 C19 1_555 1_555
C20 C16 1_555 1_555
H15 C20 1_555 1_555
Co2 N3 1_555 1_555
C19 C20 1_555 1_555
Co2 O1 1_555 1_555
O1 C28 1_555 1_555
O2 Co2 1_555 1_555
O3 C41 1_555 1_555
O4 C41 1_555 1_555
N1 Co2 1_555 1_555
C28 O2 1_555 1_555
C29 C28 1_555 1_555
C30 C29 1_555 1_555
H22 C30 1_555 1_555
C31 C30 1_555 1_555
H23 C31 1_555 1_555
C32 C31 1_555 1_555
H24 C32 1_555 1_555
C33 C32 1_555 1_555
H25 C33 1_555 1_555
C34 C29 1_555 1_555
C35 C34 1_555 1_555
C36 C35 1_555 1_555
H26 C36 1_555 1_555
C37 C36 1_555 1_555
H27 C37 1_555 1_555
C38 C37 1_555 1_555
H28 C38 1_555 1_555
C39 C38 1_555 1_555
H29 C39 1_555 1_555
C40 C35 1_555 1_555
C41 C40 1_555 1_555
N4 Co2 1_555 1_555
C33 C34 1_555 1_555
C39 C40 1_555 1_555
Co3 O1_2 1_555 1_555
O1_2 C28_2 1_555 1_555
O2_2 Co3 1_555 1_555
N1_2 Co3 1_555 1_555
C28_2 O2_2 1_555 1_555
H27_2 C37_2 1_555 1_555
C38_2 C37_2 1_555 1_555
H28_2 C38_2 1_555 1_555
N4_2 Co3 1_555 1_555
N5 Co3 1_555 1_555
O3_2 C41_2 1_555 1_555
O5 C41_2 1_555 1_555
C30_2 C29_2 1_555 1_555
H22_2 C30_2 1_555 1_555
C31_2 C30_2 1_555 1_555
H23_2 C31_2 1_555 1_555
C32_2 C31_2 1_555 1_555
H24_2 C32_2 1_555 1_555
C33_2 C32_2 1_555 1_555
H25_2 C33_2 1_555 1_555
C34_2 C29_2 1_555 1_555
C35_2 C34_2 1_555 1_555
C36_2 C35_2 1_555 1_555
H29_2 C39_2 1_555 1_555
C40_2 C35_2 1_555 1_555
C41_2 C40_2 1_555 1_555
C33_2 C34_2 1_555 1_555
C39_2 C40_2 1_555 1_555
C27_2 C23_2 1_555 1_555
C26_2 C27_2 1_555 1_555
N2_2 C1_2 1_555 1_555
C1_2 H1_2 1_555 1_555
C2_2 C1_2 1_555 1_555
C3_2 C2_2 1_555 1_555
C4_2 C3_2 1_555 1_555
H3_2 C4_2 1_555 1_555
C5_2 N2_2 1_555 1_555
H4_2 C5_2 1_555 1_555
C6_2 C3_2 1_555 1_555
H5_2 C6_2 1_555 1_555
Co4_2 N2_2 1_555 1_555
C4_2 C5_2 1_555 1_555
N5 C18_2 1_555 1_555
H8_2 C11_2 1_555 1_555
C15_2 C14_2 1_555 1_555
H11_2 C15_2 1_555 1_555
C16_2 C15_2 1_555 1_555
C17_2 C16_2 1_555 1_555
H12_2 C17_2 1_555 1_555
C18_2 C17_2 1_555 1_555
H13_2 C18_2 1_555 1_555
C19_2 N5 1_555 1_555
H14_2 C19_2 1_555 1_555
C20_2 C16_2 1_555 1_555
H15_2 C20_2 1_555 1_555
H16_2 C21_2 1_555 1_555
H18_2 C24_2 1_555 1_555
C19_2 C20_2 1_555 1_555
Co4_2 O1_3 1_555 1_555
O1_3 C28_3 1_555 1_555
O2_3 Co4_2 1_555 1_555
O3_3 C41_3 1_555 1_555
O4_2 C41_3 1_555 1_555
N1_3 Co4_2 1_555 1_555
C28_3 O2_3 1_555 1_555
C29_3 C28_3 1_555 1_555
C30_3 C29_3 1_555 1_555
H22_3 C30_3 1_555 1_555
C31_3 C30_3 1_555 1_555
H23_3 C31_3 1_555 1_555
C32_3 C31_3 1_555 1_555
H24_3 C32_3 1_555 1_555
C33_3 C32_3 1_555 1_555
H25_3 C33_3 1_555 1_555
C34_3 C29_3 1_555 1_555
C35_3 C34_3 1_555 1_555
C36_3 C35_3 1_555 1_555
H26_3 C36_3 1_555 1_555
C37_3 C36_3 1_555 1_555
H27_3 C37_3 1_555 1_555
C38_3 C37_3 1_555 1_555
H28_3 C38_3 1_555 1_555
C39_3 C38_3 1_555 1_555
H29_3 C39_3 1_555 1_555
C40_3 C35_3 1_555 1_555
C41_3 C40_3 1_555 1_555
N5_2 Co4_2 1_555 1_555
C33_3 C34_3 1_555 1_555
C39_3 C40_3 1_555 1_555
N5_2 C18_3 1_555 1_555
C17_3 C16_3 1_555 1_555
C18_3 C17_3 1_555 1_555
H13_3 C18_3 1_555 1_555
C19_3 N5_2 1_555 1_555
H14_3 C19_3 1_555 1_555
C20_3 C16_3 1_555 1_555
H15_3 C20_3 1_555 1_555
C19_3 C20_3 1_555 1_555
N4_2 C1_3 1_555 1_555
C1_3 H1_3 1_555 1_555
C2_3 C1_3 1_555 1_555
H2_2 C2_3 1_555 1_555
C3_3 C2_3 1_555 1_555
C4_3 C3_3 1_555 1_555
H3_3 C4_3 1_555 1_555
C5_3 N4_2 1_555 1_555
H4_3 C5_3 1_555 1_555
C6_3 C3_3 1_555 1_555
H5_3 C6_3 1_555 1_555
C7_2 C6_3 1_555 1_555
H6_2 C7_2 1_555 1_555
C8_2 C7_2 1_555 1_555
C9_2 C8_2 1_555 1_555
H7_2 C9_2 1_555 1_555
C10_2 C9_2 1_555 1_555
C11_3 C10_2 1_555 1_555
H8_3 C11_3 1_555 1_555
C12_2 C11_3 1_555 1_555
C13_2 C8_2 1_555 1_555
H9_2 C13_2 1_555 1_555
C14_3 C10_2 1_555 1_555
H10_2 C14_3 1_555 1_555
C15_3 C14_3 1_555 1_555
H11_3 C15_3 1_555 1_555
C21_3 C12_2 1_555 1_555
H16_3 C21_3 1_555 1_555
C22_2 C21_3 1_555 1_555
H17_2 C22_2 1_555 1_555
C23_3 C22_2 1_555 1_555
C24_3 C23_3 1_555 1_555
H18_3 C24_3 1_555 1_555
H19_3 C25_3 1_555 1_555
C27_3 C23_3 1_555 1_555
H21_3 C27_3 1_555 1_555
C4_3 C5_3 1_555 1_555
C12_2 C13_2 1_555 1_555
C24_3 C25_3 1_555 1_555
C26_3 C27_3 1_555 1_555
N3_2 C18_4 1_555 1_555
H8_4 C11_4 1_555 1_555
C15_4 C14_4 1_555 1_555
H11_4 C15_4 1_555 1_555
C16_4 C15_4 1_555 1_555
C17_4 C16_4 1_555 1_555
H12_4 C17_4 1_555 1_555
C18_4 C17_4 1_555 1_555
H13_4 C18_4 1_555 1_555
C19_4 N3_2 1_555 1_555
H14_4 C19_4 1_555 1_555
C20_4 C16_4 1_555 1_555
H15_4 C20_4 1_555 1_555
H16_4 C21_4 1_555 1_555
H18_4 C24_4 1_555 1_555
Co4 N3_2 1_555 1_555
C19_4 C20_4 1_555 1_555
N4 C1_4 1_555 1_555
C1_4 H1_4 1_555 1_555
C2_4 C1_4 1_555 1_555
C3_4 C2_4 1_555 1_555
C4_4 C3_4 1_555 1_555
H3_4 C4_4 1_555 1_555
C5_4 N4 1_555 1_555
H4_4 C5_4 1_555 1_555
C6_4 C3_4 1_555 1_555
H5_4 C6_4 1_555 1_555
C4_4 C5_4 1_555 1_555
C27_4 C23_4 1_555 1_555
C26_4 C27_4 1_555 1_555
O3_4 C41_4 1_555 1_555
O5_2 C41_4 1_555 1_555
C30_4 C29_4 1_555 1_555
H22_4 C30_4 1_555 1_555
C31_4 C30_4 1_555 1_555
H23_4 C31_4 1_555 1_555
C32_4 C31_4 1_555 1_555
H24_4 C32_4 1_555 1_555
C33_4 C32_4 1_555 1_555
H25_4 C33_4 1_555 1_555
C34_4 C29_4 1_555 1_555
C35_4 C34_4 1_555 1_555
C36_4 C35_4 1_555 1_555
H29_4 C39_4 1_555 1_555
C40_4 C35_4 1_555 1_555
C41_4 C40_4 1_555 1_555
C33_4 C34_4 1_555 1_555
C39_4 C40_4 1_555 1_555
Co4 O1_4 1_555 1_555
O1_4 C28_4 1_555 1_555
O2_4 Co4 1_555 1_555
N1_4 Co4 1_555 1_555
C28_4 O2_4 1_555 1_555
H27_4 C37_4 1_555 1_555
C38_4 C37_4 1_555 1_555
H28_4 C38_4 1_555 1_555
H6_3 C7_3 1_555 1_555
C8_3 C7_3 1_555 1_555
C9_3 C8_3 1_555 1_555
H7_3 C9_3 1_555 1_555
C10_3 C9_3 1_555 1_555
C13_3 C8_3 1_555 1_555
H9_3 C13_3 1_555 1_555
H17_3 C22_3 1_555 1_555
C12_3 C13_3 1_555 1_555
H6_4 C7_4 1_555 1_555
C8_4 C7_4 1_555 1_555
C9_4 C8_4 1_555 1_555
H7_4 C9_4 1_555 1_555
C10_4 C9_4 1_555 1_555
C13_4 C8_4 1_555 1_555
H9_4 C13_4 1_555 1_555
H17_4 C22_4 1_555 1_555
C12_4 C13_4 1_555 1_555

#END
