
###############################################################################
#
# This file contains modified crystal structure data generated from the
# MOF subset of the Cambridge Structural Database (CSD) v543 
# hosted by the Cambridge Crystallographic Data Centre (CCDC).
#
# This work is licensed under the Creative Commons
# Attribution-NonCommercial-ShareAlike 4.0 International License.
# To view a copy of this license, visit
# http://creativecommons.org/licenses/by-nc-sa/4.0/
# or send a letter to
# Creative Commons, PO Box 1866, Mountain View, CA 94042, USA.
#
# CIF created using the CSD Python API on 29 September 2022
# The structure has been converted into the P1 space group
# The structure has a 3D framework
# The original CSD entry MOSXAW is in the monoclinic crystal system
# The framework has been calculated to contain at least 10.0% void space
# The void calculation uses a probe of radius 1.32A, grid spacing 0.4
#
###############################################################################

data_MOSXAW
_chemical_formula_moiety         '(C120 H88 N4 O38)n'
_symmetry_cell_setting           triclinic
_symmetry_space_group_name_H-M   'P 1'
_symmetry_Int_Tables_number      1
_space_group_name_Hall           'P 1'
loop_
_symmetry_equiv_pos_site_id
_symmetry_equiv_pos_as_xyz
1 x,y,z
_cell_length_a                   16.8716(6)
_cell_length_b                   11.2042(4)
_cell_length_c                   18.2255(8)
_cell_angle_alpha                90
_cell_angle_beta                 111.6440(10)
_cell_angle_gamma                90
_cell_volume                     3202.31
loop_
_atom_site_label
_atom_site_type_symbol
_atom_site_fract_x
_atom_site_fract_y
_atom_site_fract_z
Tb4 Tb 0.01573(2) 0.92597(2) 0.40718(2)
Tb6 Tb 0.98427(2) 0.07403(2) 0.59282(2)
O1 O 0.08114(13) 0.05937(19) 0.06435(12)
O3 O 0.39644(14) 0.2683(2) 0.34809(13)
O4 O 0.65762(14) 0.4523(2) 0.48505(15)
O5 O 0.93382(14) 0.81128(19) 0.45897(13)
O6 O 0.91733(15) 0.8851(2) 0.56659(14)
O7 O 0.43310(14) 0.6843(2) 0.30214(15)
O8 O 0.07894(13) 0.94781(19) 0.21711(12)
O9 O 0.11274(13) 0.9216(2) 0.34545(12)
C1 C 0.13433(19) 0.1391(3) 0.06292(19)
C2 C 0.20214(19) 0.1804(3) 0.13751(18)
C3 C 0.1954(2) 0.1595(3) 0.20966(19)
H1 H 0.146754 0.122812 0.211596
C4 C 0.2600(2) 0.1927(3) 0.27894(19)
H2 H 0.255108 0.178630 0.327377
C5 C 0.3319(2) 0.2467(3) 0.27549(19)
C6 C 0.44379(19) 0.3720(3) 0.35949(19)
C7 C 0.52686(19) 0.3638(3) 0.41293(18)
H3 H 0.548959 0.291732 0.437143
C8 C 0.57577(19) 0.4660(3) 0.42908(18)
C9 C 0.71825(19) 0.5397(3) 0.4908(2)
C10 C 0.7537(2) 0.5990(3) 0.5613(2)
H4 H 0.736868 0.581392 0.603261
C11 C 0.8150(2) 0.6856(3) 0.5690(2)
H5 H 0.839236 0.726717 0.616363
C12 C 0.84033(19) 0.7113(3) 0.50684(18)
C13 C 0.9021(2) 0.8103(3) 0.51174(19)
C14 C 0.8059(2) 0.6468(3) 0.43790(19)
H6 H 0.824330 0.661371 0.396518
C15 C 0.7445(2) 0.5610(3) 0.4294(2)
H7 H 0.721232 0.518170 0.382608
C16 C 0.5447(2) 0.5736(3) 0.3940(2)
H8 H 0.578673 0.641699 0.405489
C17 C 0.4613(2) 0.5773(3) 0.3409(2)
C18 C 0.35556(19) 0.7306(3) 0.2987(2)
C19 C 0.3122(2) 0.7977(3) 0.23320(19)
H9 H 0.333021 0.805443 0.192744
C20 C 0.2374(2) 0.8536(3) 0.22798(18)
H10 H 0.207416 0.898368 0.183372
C21 C 0.20638(18) 0.8439(3) 0.28828(17)
C22 C 0.12684(18) 0.9079(3) 0.28350(18)
C23 C 0.2512(2) 0.7756(3) 0.35415(18)
H11 H 0.231033 0.768411 0.395042
C24 C 0.3258(2) 0.7181(3) 0.35935(19)
H12 H 0.355453 0.671632 0.403192
C25 C 0.4103(2) 0.4781(3) 0.3232(2)
H13 H 0.354289 0.482359 0.287547
C26 C 0.3393(2) 0.2706(4) 0.2042(2)
H14 H 0.387799 0.307845 0.202466
C27 C 0.2732(2) 0.2383(3) 0.1349(2)
H15 H 0.276990 0.255725 0.086378
O2 O 0.13143(15) 0.1823(2) 0.99878(13)
Tb5 Tb 0.01573(2) 0.07403(2) 0.90718(2)
O10 O 0.00091(19) 0.7277(2) 0.15113(15)
N1 N 0.0455(2) 0.5374(3) 0.1570(2)
C29 C 0.0390(4) 0.4268(4) 0.1135(4)
H18 H 0.030051 0.361503 0.143602
H19 H 0.090803 0.414040 0.104153
C30 C 0.1082(3) 0.5411(5) 0.2346(3)
H20 H 0.164004 0.538498 0.231952
H21 H 0.101032 0.473808 0.264128
H22 H 0.102101 0.613539 0.260146
O13 O 0.06618(14) 0.81128(19) 0.04103(13)
Tb2 Tb 0.98427(2) 0.92597(2) 0.09282(2)
O14 O 0.91733(15) 0.1149(2) 0.06659(14)
C28 C 0.9987(3) 0.6304(4) 0.1219(3)
H16 H 0.960683 0.619995 0.070311
H17 H 0.991941 0.431839 0.063853
O12 O 0.86857(15) 0.8177(2) 0.00122(13)
O16 O 0.88726(13) 0.9216(2) 0.15455(12)
O11 O 0.91886(13) 0.94063(19) 0.93565(12)
O14_2 O 0.08267(15) 0.1149(2) 0.43341(14)
C28_2 C 0.0013(3) 0.6304(4) 0.3781(3)
H16_2 H 0.039317 0.619995 0.429689
H17_2 H 0.008059 0.431839 0.436147
O11_2 O 0.08114(13) 0.94063(19) 0.56435(12)
O12_2 O 0.13143(15) 0.8177(2) 0.49878(13)
O1_2 O 0.91886(13) 0.05937(19) 0.43565(12)
O2_2 O 0.86857(15) 0.1823(2) 0.50122(13)
O3_2 O 0.60356(14) 0.2683(2) 0.15191(13)
O4_2 O 0.34238(14) 0.4523(2) 0.01495(15)
O7_2 O 0.56690(14) 0.6843(2) 0.19786(15)
O8_2 O 0.92106(13) 0.94781(19) 0.28289(12)
C1_2 C 0.86567(19) 0.1391(3) 0.43708(19)
C2_2 C 0.79786(19) 0.1804(3) 0.36249(18)
C3_2 C 0.8046(2) 0.1595(3) 0.29034(19)
H1_2 H 0.853246 0.122812 0.288404
C4_2 C 0.7400(2) 0.1927(3) 0.22106(19)
H2_2 H 0.744892 0.178630 0.172623
C5_2 C 0.6681(2) 0.2467(3) 0.22451(19)
C6_2 C 0.55621(19) 0.3720(3) 0.14051(19)
C7_2 C 0.47314(19) 0.3638(3) 0.08707(18)
H3_2 H 0.451041 0.291732 0.062857
C8_2 C 0.42423(19) 0.4660(3) 0.07092(18)
C9_2 C 0.28175(19) 0.5397(3) 0.0092(2)
C14_2 C 0.1941(2) 0.6468(3) 0.06210(19)
H6_2 H 0.175670 0.661371 0.103482
C15_2 C 0.2555(2) 0.5610(3) 0.0706(2)
H7_2 H 0.278768 0.518170 0.117392
C16_2 C 0.4553(2) 0.5736(3) 0.1060(2)
H8_2 H 0.421327 0.641699 0.094511
C17_2 C 0.5387(2) 0.5773(3) 0.1591(2)
C18_2 C 0.64444(19) 0.7306(3) 0.2013(2)
C19_2 C 0.6878(2) 0.7977(3) 0.26680(19)
H9_2 H 0.666979 0.805443 0.307256
C20_2 C 0.7626(2) 0.8536(3) 0.27202(18)
H10_2 H 0.792584 0.898368 0.316628
C21_2 C 0.79362(18) 0.8439(3) 0.21172(17)
C22_2 C 0.87316(18) 0.9079(3) 0.21650(18)
C23_2 C 0.7488(2) 0.7756(3) 0.14585(18)
H11_2 H 0.768967 0.768411 0.104958
C24_2 C 0.6742(2) 0.7181(3) 0.14065(19)
H12_2 H 0.644547 0.671632 0.096808
C25_2 C 0.5897(2) 0.4781(3) 0.1768(2)
H13_2 H 0.645711 0.482359 0.212453
C26_2 C 0.6607(2) 0.2706(4) 0.2958(2)
H14_2 H 0.612201 0.307845 0.297534
C27_2 C 0.7268(2) 0.2383(3) 0.3651(2)
H15_2 H 0.723010 0.255725 0.413622
O6_2 O 0.08267(15) 0.8851(2) 0.93341(14)
C10_2 C 0.2463(2) 0.5990(3) 0.9387(2)
H4_2 H 0.263132 0.581392 0.896739
C11_2 C 0.1850(2) 0.6856(3) 0.9310(2)
H5_2 H 0.160764 0.726717 0.883637
C12_2 C 0.15967(19) 0.7113(3) 0.99316(18)
C13_2 C 0.0979(2) 0.8103(3) 0.98826(19)
O10_2 O 0.99909(19) 0.7277(2) 0.34887(15)
N1_2 N 0.9545(2) 0.5374(3) 0.3430(2)
C29_2 C 0.9610(4) 0.4268(4) 0.3865(4)
H18_2 H 0.969949 0.361503 0.356398
H19_2 H 0.909197 0.414040 0.395847
C30_2 C 0.8918(3) 0.5411(5) 0.2654(3)
H20_2 H 0.835996 0.538498 0.268048
H21_2 H 0.898968 0.473808 0.235872
H22_2 H 0.897899 0.613539 0.239854
C28_3 C 0.0013(3) 0.3696(4) 0.8781(3)
H16_3 H 0.039317 0.380005 0.929689
H17_3 H 0.008059 0.568161 0.936147
O16_2 O 0.11274(13) 0.0784(2) 0.84545(12)
O10_3 O 0.99909(19) 0.2723(2) 0.84887(15)
N1_3 N 0.9545(2) 0.4626(3) 0.8430(2)
C29_3 C 0.9610(4) 0.5732(4) 0.8865(4)
H18_3 H 0.969949 0.638497 0.856398
H19_3 H 0.909197 0.585960 0.895847
C30_3 C 0.8918(3) 0.4589(5) 0.7654(3)
H20_3 H 0.835996 0.461502 0.768048
H21_3 H 0.898968 0.526192 0.735872
H22_3 H 0.897899 0.386461 0.739854
O13_2 O 0.93382(14) 0.18872(19) 0.95897(13)
O15 O 0.92106(13) 0.05219(19) 0.78289(12)
O3_3 O 0.60356(14) 0.7317(2) 0.65191(13)
O4_3 O 0.34238(14) 0.5477(2) 0.51495(15)
O5_2 O 0.06618(14) 0.18872(19) 0.54103(13)
O7_3 O 0.56690(14) 0.3157(2) 0.69786(15)
O9_2 O 0.88726(13) 0.0784(2) 0.65455(12)
C1_3 C 0.86567(19) 0.8609(3) 0.93708(19)
C2_3 C 0.79786(19) 0.8196(3) 0.86249(18)
C3_3 C 0.8046(2) 0.8405(3) 0.79034(19)
H1_3 H 0.853246 0.877188 0.788404
C4_3 C 0.7400(2) 0.8073(3) 0.72106(19)
H2_3 H 0.744892 0.821370 0.672623
C5_3 C 0.6681(2) 0.7533(3) 0.72451(19)
C6_3 C 0.55621(19) 0.6280(3) 0.64051(19)
C7_3 C 0.47314(19) 0.6362(3) 0.58707(18)
H3_3 H 0.451041 0.708268 0.562857
C8_3 C 0.42423(19) 0.5340(3) 0.57092(18)
C9_3 C 0.28175(19) 0.4603(3) 0.5092(2)
C10_3 C 0.2463(2) 0.4010(3) 0.4387(2)
H4_3 H 0.263132 0.418608 0.396739
C11_3 C 0.1850(2) 0.3144(3) 0.4310(2)
H5_3 H 0.160764 0.273283 0.383637
C12_3 C 0.15967(19) 0.2887(3) 0.49316(18)
C13_3 C 0.0979(2) 0.1897(3) 0.48826(19)
C14_3 C 0.1941(2) 0.3532(3) 0.56210(19)
H6_3 H 0.175670 0.338629 0.603482
C15_3 C 0.2555(2) 0.4390(3) 0.5706(2)
H7_3 H 0.278768 0.481830 0.617392
C16_3 C 0.4553(2) 0.4264(3) 0.6060(2)
H8_3 H 0.421327 0.358301 0.594511
C17_3 C 0.5387(2) 0.4227(3) 0.6591(2)
C18_3 C 0.64444(19) 0.2694(3) 0.7013(2)
C19_3 C 0.6878(2) 0.2023(3) 0.76680(19)
H9_3 H 0.666979 0.194557 0.807256
C20_3 C 0.7626(2) 0.1464(3) 0.77202(18)
H10_3 H 0.792584 0.101632 0.816628
C21_3 C 0.79362(18) 0.1561(3) 0.71172(17)
C22_3 C 0.87316(18) 0.0921(3) 0.71650(18)
C23_3 C 0.7488(2) 0.2244(3) 0.64585(18)
H11_3 H 0.768967 0.231589 0.604958
C24_3 C 0.6742(2) 0.2819(3) 0.64065(19)
H12_3 H 0.644547 0.328368 0.596808
C25_3 C 0.5897(2) 0.5219(3) 0.6768(2)
H13_3 H 0.645711 0.517641 0.712453
C26_3 C 0.6607(2) 0.7294(4) 0.7958(2)
H14_3 H 0.612201 0.692155 0.797534
C27_3 C 0.7268(2) 0.7617(3) 0.8651(2)
H15_3 H 0.723010 0.744275 0.913622
O10_4 O 0.00091(19) 0.2723(2) 0.65113(15)
N1_4 N 0.0455(2) 0.4626(3) 0.6570(2)
C29_4 C 0.0390(4) 0.5732(4) 0.6135(4)
H18_4 H 0.030051 0.638497 0.643602
H19_4 H 0.090803 0.585960 0.604153
C30_4 C 0.1082(3) 0.4589(5) 0.7346(3)
H20_4 H 0.164004 0.461502 0.731952
H21_4 H 0.101032 0.526192 0.764128
H22_4 H 0.102101 0.386461 0.760146
O15_2 O 0.07894(13) 0.05219(19) 0.71711(12)
C10_4 C 0.7537(2) 0.4010(3) 0.0613(2)
H4_4 H 0.736868 0.418608 0.103261
C11_4 C 0.8150(2) 0.3144(3) 0.0690(2)
H5_4 H 0.839236 0.273283 0.116363
C12_4 C 0.84033(19) 0.2887(3) 0.00684(18)
C13_4 C 0.9021(2) 0.1897(3) 0.01174(19)
O3_4 O 0.39644(14) 0.7317(2) 0.84809(13)
O4_4 O 0.65762(14) 0.5477(2) 0.98505(15)
O7_4 O 0.43310(14) 0.3157(2) 0.80214(15)
C1_4 C 0.13433(19) 0.8609(3) 0.56292(19)
C2_4 C 0.20214(19) 0.8196(3) 0.63751(18)
C3_4 C 0.1954(2) 0.8405(3) 0.70966(19)
H1_4 H 0.146754 0.877188 0.711596
C4_4 C 0.2600(2) 0.8073(3) 0.77894(19)
H2_4 H 0.255108 0.821370 0.827377
C5_4 C 0.3319(2) 0.7533(3) 0.77549(19)
C6_4 C 0.44379(19) 0.6280(3) 0.85949(19)
C7_4 C 0.52686(19) 0.6362(3) 0.91293(18)
H3_4 H 0.548959 0.708268 0.937143
C8_4 C 0.57577(19) 0.5340(3) 0.92908(18)
C9_4 C 0.71825(19) 0.4603(3) 0.9908(2)
C14_4 C 0.8059(2) 0.3532(3) 0.93790(19)
H6_4 H 0.824330 0.338629 0.896518
C15_4 C 0.7445(2) 0.4390(3) 0.9294(2)
H7_4 H 0.721232 0.481830 0.882608
C16_4 C 0.5447(2) 0.4264(3) 0.8940(2)
H8_4 H 0.578673 0.358301 0.905489
C17_4 C 0.4613(2) 0.4227(3) 0.8409(2)
C18_4 C 0.35556(19) 0.2694(3) 0.7987(2)
C19_4 C 0.3122(2) 0.2023(3) 0.73320(19)
H9_4 H 0.333021 0.194557 0.692744
C20_4 C 0.2374(2) 0.1464(3) 0.72798(18)
H10_4 H 0.207416 0.101632 0.683372
C21_4 C 0.20638(18) 0.1561(3) 0.78828(17)
C22_4 C 0.12684(18) 0.0921(3) 0.78350(18)
C23_4 C 0.2512(2) 0.2244(3) 0.85415(18)
H11_4 H 0.231033 0.231589 0.895042
C24_4 C 0.3258(2) 0.2819(3) 0.85935(19)
H12_4 H 0.355453 0.328368 0.903192
C25_4 C 0.4103(2) 0.5219(3) 0.8232(2)
H13_4 H 0.354289 0.517641 0.787547
C26_4 C 0.3393(2) 0.7294(4) 0.7042(2)
H14_4 H 0.387799 0.692155 0.702466
C27_4 C 0.2732(2) 0.7617(3) 0.6349(2)
H15_4 H 0.276990 0.744275 0.586378
C28_4 C 0.9987(3) 0.3696(4) 0.6219(3)
H16_4 H 0.960683 0.380005 0.570311
H17_4 H 0.991941 0.568161 0.563853
loop_
_geom_bond_atom_site_label_1
_geom_bond_atom_site_label_2
_geom_bond_site_symmetry_1
_geom_bond_site_symmetry_2
O1 C1 1_555 1_555
O3 C5 1_555 1_555
O4 C8 1_555 1_555
O5 C13 1_555 1_555
O6 C13 1_555 1_555
O7 C17 1_555 1_555
O8 C22 1_555 1_555
O9 C22 1_555 1_555
C1 C2 1_555 1_555
C2 C3 1_555 1_555
C3 H1 1_555 1_555
C4 C3 1_555 1_555
H2 C4 1_555 1_555
C5 C4 1_555 1_555
C6 O3 1_555 1_555
C7 C6 1_555 1_555
H3 C7 1_555 1_555
C8 C7 1_555 1_555
C9 O4 1_555 1_555
C10 C9 1_555 1_555
H4 C10 1_555 1_555
C11 C10 1_555 1_555
H5 C11 1_555 1_555
C12 C11 1_555 1_555
C13 C12 1_555 1_555
C14 C12 1_555 1_555
H6 C14 1_555 1_555
C15 C9 1_555 1_555
H7 C15 1_555 1_555
C16 C8 1_555 1_555
H8 C16 1_555 1_555
C17 C16 1_555 1_555
C18 O7 1_555 1_555
C19 C18 1_555 1_555
H9 C19 1_555 1_555
C20 C19 1_555 1_555
H10 C20 1_555 1_555
C21 C20 1_555 1_555
C22 C21 1_555 1_555
C23 C21 1_555 1_555
H11 C23 1_555 1_555
C24 C18 1_555 1_555
H12 C24 1_555 1_555
C25 C6 1_555 1_555
H13 C25 1_555 1_555
C26 C5 1_555 1_555
H14 C26 1_555 1_555
C27 C2 1_555 1_555
H15 C27 1_555 1_555
Tb4 O9 1_555 1_555
C14 C15 1_555 1_555
C17 C25 1_555 1_555
C23 C24 1_555 1_555
C26 C27 1_555 1_555
O2 Tb5 1_555 1_555
C29 N1 1_555 1_555
H18 C29 1_555 1_555
H19 C29 1_555 1_555
C30 N1 1_555 1_555
H20 C30 1_555 1_555
H21 C30 1_555 1_555
H22 C30 1_555 1_555
H16 C28 1_555 1_555
O12 Tb2 1_555 1_555
O16 Tb2 1_555 1_555
H16_2 C28_2 1_555 1_555
O11_2 Tb4 1_555 1_555
O12_2 Tb4 1_555 1_555
O1_2 C1_2 1_555 1_555
O2_2 C1_2 1_555 1_555
O3_2 C5_2 1_555 1_555
O4_2 C8_2 1_555 1_555
O7_2 C17_2 1_555 1_555
O8_2 C22_2 1_555 1_555
O16 C22_2 1_555 1_555
C1_2 C2_2 1_555 1_555
C2_2 C3_2 1_555 1_555
C3_2 H1_2 1_555 1_555
C4_2 C3_2 1_555 1_555
H2_2 C4_2 1_555 1_555
C5_2 C4_2 1_555 1_555
C6_2 O3_2 1_555 1_555
C7_2 C6_2 1_555 1_555
H3_2 C7_2 1_555 1_555
C8_2 C7_2 1_555 1_555
C9_2 O4_2 1_555 1_555
H6_2 C14_2 1_555 1_555
C15_2 C9_2 1_555 1_555
H7_2 C15_2 1_555 1_555
C16_2 C8_2 1_555 1_555
H8_2 C16_2 1_555 1_555
C17_2 C16_2 1_555 1_555
C18_2 O7_2 1_555 1_555
C19_2 C18_2 1_555 1_555
H9_2 C19_2 1_555 1_555
C20_2 C19_2 1_555 1_555
H10_2 C20_2 1_555 1_555
C21_2 C20_2 1_555 1_555
C22_2 C21_2 1_555 1_555
C23_2 C21_2 1_555 1_555
H11_2 C23_2 1_555 1_555
C24_2 C18_2 1_555 1_555
H12_2 C24_2 1_555 1_555
C25_2 C6_2 1_555 1_555
H13_2 C25_2 1_555 1_555
C26_2 C5_2 1_555 1_555
H14_2 C26_2 1_555 1_555
C27_2 C2_2 1_555 1_555
H15_2 C27_2 1_555 1_555
Tb6 O1_2 1_555 1_555
O2_2 Tb6 1_555 1_555
C14_2 C15_2 1_555 1_555
C17_2 C25_2 1_555 1_555
C23_2 C24_2 1_555 1_555
C26_2 C27_2 1_555 1_555
O6_2 C13_2 1_555 1_555
H4_2 C10_2 1_555 1_555
C11_2 C10_2 1_555 1_555
H5_2 C11_2 1_555 1_555
C12_2 C11_2 1_555 1_555
C13_2 C12_2 1_555 1_555
C29_2 N1_2 1_555 1_555
H18_2 C29_2 1_555 1_555
H19_2 C29_2 1_555 1_555
C30_2 N1_2 1_555 1_555
H20_2 C30_2 1_555 1_555
H21_2 C30_2 1_555 1_555
H22_2 C30_2 1_555 1_555
H16_3 C28_3 1_555 1_555
O16_2 Tb5 1_555 1_555
C29_3 N1_3 1_555 1_555
H18_3 C29_3 1_555 1_555
H19_3 C29_3 1_555 1_555
C30_3 N1_3 1_555 1_555
H20_3 C30_3 1_555 1_555
H21_3 C30_3 1_555 1_555
H22_3 C30_3 1_555 1_555
O11 C1_3 1_555 1_555
O3_3 C5_3 1_555 1_555
O4_3 C8_3 1_555 1_555
O5_2 C13_3 1_555 1_555
O14_2 C13_3 1_555 1_555
O7_3 C17_3 1_555 1_555
O15 C22_3 1_555 1_555
O9_2 C22_3 1_555 1_555
C1_3 C2_3 1_555 1_555
C2_3 C3_3 1_555 1_555
C3_3 H1_3 1_555 1_555
C4_3 C3_3 1_555 1_555
H2_3 C4_3 1_555 1_555
C5_3 C4_3 1_555 1_555
C6_3 O3_3 1_555 1_555
C7_3 C6_3 1_555 1_555
H3_3 C7_3 1_555 1_555
C8_3 C7_3 1_555 1_555
C9_3 O4_3 1_555 1_555
C10_3 C9_3 1_555 1_555
H4_3 C10_3 1_555 1_555
C11_3 C10_3 1_555 1_555
H5_3 C11_3 1_555 1_555
C12_3 C11_3 1_555 1_555
C13_3 C12_3 1_555 1_555
C14_3 C12_3 1_555 1_555
H6_3 C14_3 1_555 1_555
C15_3 C9_3 1_555 1_555
H7_3 C15_3 1_555 1_555
C16_3 C8_3 1_555 1_555
H8_3 C16_3 1_555 1_555
C17_3 C16_3 1_555 1_555
C18_3 O7_3 1_555 1_555
C19_3 C18_3 1_555 1_555
H9_3 C19_3 1_555 1_555
C20_3 C19_3 1_555 1_555
H10_3 C20_3 1_555 1_555
C21_3 C20_3 1_555 1_555
C22_3 C21_3 1_555 1_555
C23_3 C21_3 1_555 1_555
H11_3 C23_3 1_555 1_555
C24_3 C18_3 1_555 1_555
H12_3 C24_3 1_555 1_555
C25_3 C6_3 1_555 1_555
H13_3 C25_3 1_555 1_555
C26_3 C5_3 1_555 1_555
H14_3 C26_3 1_555 1_555
C27_3 C2_3 1_555 1_555
H15_3 C27_3 1_555 1_555
Tb6 O9_2 1_555 1_555
C14_3 C15_3 1_555 1_555
C17_3 C25_3 1_555 1_555
C23_3 C24_3 1_555 1_555
C26_3 C27_3 1_555 1_555
C29_4 N1_4 1_555 1_555
H18_4 C29_4 1_555 1_555
H19_4 C29_4 1_555 1_555
C30_4 N1_4 1_555 1_555
H20_4 C30_4 1_555 1_555
H21_4 C30_4 1_555 1_555
H22_4 C30_4 1_555 1_555
O14 C13_4 1_555 1_555
H4_4 C10_4 1_555 1_555
C11_4 C10_4 1_555 1_555
H5_4 C11_4 1_555 1_555
C12_4 C11_4 1_555 1_555
C13_4 C12_4 1_555 1_555
O11_2 C1_4 1_555 1_555
O12_2 C1_4 1_555 1_555
O3_4 C5_4 1_555 1_555
O4_4 C8_4 1_555 1_555
O7_4 C17_4 1_555 1_555
O15_2 C22_4 1_555 1_555
O16_2 C22_4 1_555 1_555
C1_4 C2_4 1_555 1_555
C2_4 C3_4 1_555 1_555
C3_4 H1_4 1_555 1_555
C4_4 C3_4 1_555 1_555
H2_4 C4_4 1_555 1_555
C5_4 C4_4 1_555 1_555
C6_4 O3_4 1_555 1_555
C7_4 C6_4 1_555 1_555
H3_4 C7_4 1_555 1_555
C8_4 C7_4 1_555 1_555
C9_4 O4_4 1_555 1_555
H6_4 C14_4 1_555 1_555
C15_4 C9_4 1_555 1_555
H7_4 C15_4 1_555 1_555
C16_4 C8_4 1_555 1_555
H8_4 C16_4 1_555 1_555
C17_4 C16_4 1_555 1_555
C18_4 O7_4 1_555 1_555
C19_4 C18_4 1_555 1_555
H9_4 C19_4 1_555 1_555
C20_4 C19_4 1_555 1_555
H10_4 C20_4 1_555 1_555
C21_4 C20_4 1_555 1_555
C22_4 C21_4 1_555 1_555
C23_4 C21_4 1_555 1_555
H11_4 C23_4 1_555 1_555
C24_4 C18_4 1_555 1_555
H12_4 C24_4 1_555 1_555
C25_4 C6_4 1_555 1_555
H13_4 C25_4 1_555 1_555
C26_4 C5_4 1_555 1_555
H14_4 C26_4 1_555 1_555
C27_4 C2_4 1_555 1_555
H15_4 C27_4 1_555 1_555
C14_4 C15_4 1_555 1_555
C17_4 C25_4 1_555 1_555
C23_4 C24_4 1_555 1_555
C26_4 C27_4 1_555 1_555
H16_4 C28_4 1_555 1_555

#END
