
###############################################################################
#
# This file contains modified crystal structure data generated from the
# MOF subset of the Cambridge Structural Database (CSD) v543 
# hosted by the Cambridge Crystallographic Data Centre (CCDC).
#
# This work is licensed under the Creative Commons
# Attribution-NonCommercial-ShareAlike 4.0 International License.
# To view a copy of this license, visit
# http://creativecommons.org/licenses/by-nc-sa/4.0/
# or send a letter to
# Creative Commons, PO Box 1866, Mountain View, CA 94042, USA.
#
# CIF created using the CSD Python API on 29 September 2022
# The structure has been converted into the P1 space group
# The structure has a 3D framework
# The original CSD entry MOTPOD is in the triclinic crystal system
# The framework has been calculated to contain at least 10.0% void space
# The void calculation uses a probe of radius 1.32A, grid spacing 0.4
#
###############################################################################

data_MOTPOD
_chemical_formula_moiety         '(C58 H42 N6 O18 Pb2)n'
_symmetry_cell_setting           triclinic
_symmetry_space_group_name_H-M   'P 1'
_symmetry_Int_Tables_number      1
_space_group_name_Hall           'P 1'
loop_
_symmetry_equiv_pos_site_id
_symmetry_equiv_pos_as_xyz
1 x,y,z
_cell_length_a                   10.3027(2)
_cell_length_b                   13.2085(3)
_cell_length_c                   13.4634(3)
_cell_angle_alpha                94.2432(18)
_cell_angle_beta                 94.4958(16)
_cell_angle_gamma                98.3760(18)
_cell_volume                     1800.23
loop_
_atom_site_label
_atom_site_type_symbol
_atom_site_fract_x
_atom_site_fract_y
_atom_site_fract_z
N1 N 0.0552(3) 0.8486(3) 0.2666(2)
C9 C 0.0175(3) 0.8541(3) 0.0577(3)
C10 C 0.1338(4) 0.8346(4) 0.1037(3)
H4 H 0.2028 0.8229 0.0659
C11 C 0.1483(4) 0.8324(4) 0.2078(3)
H5 H 0.2280 0.8187 0.2371
Pb10 Pb 0.14601(2) 0.90668(2) 0.45287(2)
O3 O 0.2115(2) 0.8928(2) 0.64307(18)
O4 O 0.3309(2) 0.8976(3) 0.7881(2)
C4 C 0.0999(3) 0.8828(3) 0.7915(3)
C5 C 0.1108(3) 0.8689(3) 0.8931(3)
H2 H 0.1921 0.8617 0.9245
C6 C 0.0032(3) 0.8657(3) 0.9478(3)
C8 C 0.2221(3) 0.8905(3) 0.7362(3)
Pb4 Pb 0.48695(2) 0.94237(2) 0.66369(2)
O9 O 0.5142(3) 0.1157(3) 0.7754(2)
N3 N 0.5071(6) 0.1972(5) 0.9265(4)
C27 C 0.5031(6) 0.1199(7) 0.8607(5)
H15 H 0.4888 0.0562 0.8864
C28 C 0.5356(17) 0.3066(13) 0.8769(13)
H16 H 0.5626 0.2950 0.8109
H17 H 0.6041 0.3517 0.9176
H18 H 0.4567 0.3375 0.8731
O16 O 0.5884(2) 0.0999(2) 0.54287(19)
Pb7 Pb 0.85399(2) 0.09332(2) 0.54713(2)
O1 O 0.7417(2) 0.9354(2) 0.65843(18)
O2 O 0.6464(2) 0.9118(2) 0.79895(18)
O5 O 0.0305(2) 0.2399(2) 0.5268(2)
O6 O 0.1077(2) 0.09389(19) 0.54412(19)
O8 O 0.7268(2) 0.2423(2) 0.59404(19)
N2 N 0.4630(2) 0.7469(2) 0.6505(2)
C1 C 0.7445(3) 0.9167(3) 0.7487(3)
C2 C 0.8716(3) 0.8947(3) 0.7979(3)
C3 C 0.9810(3) 0.8927(3) 0.7435(3)
H1 H 0.9732 0.8980 0.6748
C7 C 0.8832(3) 0.8809(3) 0.8998(3)
H3 H 0.8103 0.8819 0.9363
C14 C 0.1242(3) 0.1906(3) 0.5422(3)
C15 C 0.2616(3) 0.2488(3) 0.5634(3)
C16 C 0.2814(3) 0.3543(3) 0.5834(3)
H8 H 0.2088 0.3887 0.5824
C17 C 0.4077(3) 0.4107(3) 0.6052(3)
C18 C 0.5140(3) 0.3559(3) 0.6033(3)
H9 H 0.5994 0.3911 0.6167
C19 C 0.4950(3) 0.2507(3) 0.5821(3)
C20 C 0.3690(3) 0.1961(3) 0.5619(2)
H10 H 0.3564 0.1253 0.5475
C21 C 0.6121(3) 0.1948(3) 0.5738(3)
C22 C 0.4259(4) 0.5237(3) 0.6244(3)
C23 C 0.3243(4) 0.5786(3) 0.6143(3)
H11 H 0.2392 0.5444 0.5970
C24 C 0.3462(4) 0.6857(3) 0.6296(3)
H12 H 0.2720 0.7182 0.6248
C25 C 0.5645(4) 0.6884(3) 0.6591(4)
H13 H 0.6493 0.7239 0.6744
C26 C 0.5508(4) 0.5822(4) 0.6470(4)
H14 H 0.6248 0.5497 0.6540
Pb5 Pb 0.51305(2) 0.05763(2) 0.33631(2)
O17 O 0.4116(2) 0.9001(2) 0.45713(19)
O12 O 0.7885(2) 0.1072(2) 0.35693(18)
N4 N 0.9448(3) 0.1514(3) 0.7334(2)
O14 O 0.8923(2) 0.90611(19) 0.45588(19)
O10 O 0.2583(2) 0.0646(2) 0.34157(18)
O18 O 0.2732(2) 0.7577(2) 0.40596(19)
O2_2 O 0.3536(2) 0.0882(2) 0.20105(18)
O5_2 O 0.9695(2) 0.7601(2) 0.4732(2)
N2_2 N 0.5370(2) 0.2531(2) 0.3495(2)
C1_2 C 0.2555(3) 0.0833(3) 0.2513(3)
C2_2 C 0.1284(3) 0.1053(3) 0.2021(3)
C3_2 C 0.0190(3) 0.1073(3) 0.2565(3)
H1_2 H 0.0268 0.1020 0.3252
C7_2 C 0.1168(3) 0.1191(3) 0.1002(3)
H3_2 H 0.1897 0.1181 0.0637
C14_2 C 0.8758(3) 0.8094(3) 0.4578(3)
C15_2 C 0.7384(3) 0.7512(3) 0.4366(3)
C16_2 C 0.7186(3) 0.6457(3) 0.4166(3)
H8_2 H 0.7912 0.6113 0.4176
C17_2 C 0.5923(3) 0.5893(3) 0.3948(3)
C18_2 C 0.4860(3) 0.6441(3) 0.3967(3)
H9_2 H 0.4006 0.6089 0.3833
C19_2 C 0.5050(3) 0.7493(3) 0.4179(3)
C20_2 C 0.6310(3) 0.8039(3) 0.4381(2)
H10_2 H 0.6436 0.8747 0.4525
C21_2 C 0.3879(3) 0.8052(3) 0.4262(3)
C22_2 C 0.5741(4) 0.4763(3) 0.3756(3)
C23_2 C 0.6757(4) 0.4214(3) 0.3857(3)
H11_2 H 0.7608 0.4556 0.4030
C24_2 C 0.6538(4) 0.3143(3) 0.3704(3)
H12_2 H 0.7280 0.2818 0.3752
C25_2 C 0.4355(4) 0.3116(3) 0.3409(4)
H13_2 H 0.3507 0.2761 0.3256
C26_2 C 0.4492(4) 0.4178(4) 0.3530(4)
H14_2 H 0.3752 0.4503 0.3460
O13 O 0.6691(2) 0.1024(3) 0.2119(2)
O9_2 O 0.4858(3) 0.8843(3) 0.2246(2)
N3_2 N 0.4929(6) 0.8028(5) 0.0735(4)
C27_2 C 0.4969(6) 0.8801(7) 0.1393(5)
H15_2 H 0.5112 0.9438 0.1136
C28_2 C 0.4644(17) 0.6934(13) 0.1231(13)
H16_2 H 0.4374 0.7050 0.1891
H17_2 H 0.3959 0.6483 0.0824
H18_2 H 0.5433 0.6625 0.1269
C4_2 C 0.9001(3) 0.1172(3) 0.2085(3)
C5_2 C 0.8892(3) 0.1311(3) 0.1069(3)
H2_2 H 0.8079 0.1383 0.0755
C6_2 C 0.9968(3) 0.1343(3) 0.0522(3)
C8_2 C 0.7779(3) 0.1095(3) 0.2638(3)
C9_2 C 0.9825(3) 0.1459(3) 0.9423(3)
C10_2 C 0.8662(4) 0.1654(4) 0.8963(3)
H4_2 H 0.7972 0.1771 0.9341
C11_2 C 0.8517(4) 0.1676(4) 0.7922(3)
H5_2 H 0.7720 0.1813 0.7629
C29 C 0.5070(7) 0.2106(7) 0.0294(4)
H19 H 0.4178 0.2026 0.0470
H20 H 0.5510 0.2782 0.0530
H21 H 0.5522 0.1603 0.0594
C12 C 0.9409(4) 0.8632(3) 0.2206(3)
H6 H 0.8723 0.8721 0.2597
C13 C 0.9180(4) 0.8657(3) 0.1188(3)
H7 H 0.8355 0.8753 0.0912
C12_2 C 0.0591(4) 0.1368(3) 0.7794(3)
H6_2 H 0.1277 0.1279 0.7403
C13_2 C 0.0820(4) 0.1343(3) 0.8812(3)
H7_2 H 0.1645 0.1247 0.9088
C29_2 C 0.4930(7) 0.7894(7) 0.9706(4)
H19_2 H 0.5822 0.7974 0.9530
H20_2 H 0.4490 0.7218 0.9470
H21_2 H 0.4478 0.8397 0.9406
loop_
_geom_bond_atom_site_label_1
_geom_bond_atom_site_label_2
_geom_bond_site_symmetry_1
_geom_bond_site_symmetry_2
N1 C11 1_555 1_555
C10 C9 1_555 1_555
H4 C10 1_555 1_555
C11 C10 1_555 1_555
H5 C11 1_555 1_555
Pb10 N1 1_555 1_555
O3 C8 1_555 1_555
O4 C8 1_555 1_555
C5 C4 1_555 1_555
H2 C5 1_555 1_555
C6 C5 1_555 1_555
C8 C4 1_555 1_555
Pb4 O3 1_555 1_555
Pb10 O3 1_555 1_555
O4 Pb4 1_555 1_555
N3 C27 1_555 1_555
C27 O9 1_555 1_555
H15 C27 1_555 1_555
C28 N3 1_555 1_555
H16 C28 1_555 1_555
H17 C28 1_555 1_555
H18 C28 1_555 1_555
O16 Pb7 1_555 1_555
Pb4 O1 1_555 1_555
O1 C1 1_555 1_555
O2 Pb4 1_555 1_555
O5 C14 1_555 1_555
O6 C14 1_555 1_555
O16 C21 1_555 1_555
O8 C21 1_555 1_555
N2 Pb4 1_555 1_555
C1 O2 1_555 1_555
C2 C1 1_555 1_555
C3 C2 1_555 1_555
H1 C3 1_555 1_555
C7 C2 1_555 1_555
H3 C7 1_555 1_555
C14 C15 1_555 1_555
C15 C16 1_555 1_555
C16 H8 1_555 1_555
C17 C16 1_555 1_555
C18 C17 1_555 1_555
H9 C18 1_555 1_555
C19 C18 1_555 1_555
C20 C15 1_555 1_555
H10 C20 1_555 1_555
C21 C19 1_555 1_555
C22 C17 1_555 1_555
C23 C22 1_555 1_555
H11 C23 1_555 1_555
C24 N2 1_555 1_555
H12 C24 1_555 1_555
C25 N2 1_555 1_555
H13 C25 1_555 1_555
C26 C22 1_555 1_555
H14 C26 1_555 1_555
Pb5 O16 1_555 1_555
O17 Pb4 1_555 1_555
O8 Pb7 1_555 1_555
C19 C20 1_555 1_555
C23 C24 1_555 1_555
C25 C26 1_555 1_555
O12 Pb7 1_555 1_555
N4 Pb7 1_555 1_555
O17 Pb10 1_555 1_555
O18 Pb10 1_555 1_555
Pb5 O10 1_555 1_555
O10 C1_2 1_555 1_555
O2_2 Pb5 1_555 1_555
O5_2 C14_2 1_555 1_555
O14 C14_2 1_555 1_555
O17 C21_2 1_555 1_555
O18 C21_2 1_555 1_555
N2_2 Pb5 1_555 1_555
C1_2 O2_2 1_555 1_555
C2_2 C1_2 1_555 1_555
C3_2 C2_2 1_555 1_555
H1_2 C3_2 1_555 1_555
C7_2 C2_2 1_555 1_555
H3_2 C7_2 1_555 1_555
C14_2 C15_2 1_555 1_555
C15_2 C16_2 1_555 1_555
C16_2 H8_2 1_555 1_555
C17_2 C16_2 1_555 1_555
C18_2 C17_2 1_555 1_555
H9_2 C18_2 1_555 1_555
C19_2 C18_2 1_555 1_555
C20_2 C15_2 1_555 1_555
H10_2 C20_2 1_555 1_555
C21_2 C19_2 1_555 1_555
C22_2 C17_2 1_555 1_555
C23_2 C22_2 1_555 1_555
H11_2 C23_2 1_555 1_555
C24_2 N2_2 1_555 1_555
H12_2 C24_2 1_555 1_555
C25_2 N2_2 1_555 1_555
H13_2 C25_2 1_555 1_555
C26_2 C22_2 1_555 1_555
H14_2 C26_2 1_555 1_555
O12 Pb5 1_555 1_555
O13 Pb5 1_555 1_555
C19_2 C20_2 1_555 1_555
C23_2 C24_2 1_555 1_555
C25_2 C26_2 1_555 1_555
N3_2 C27_2 1_555 1_555
C27_2 O9_2 1_555 1_555
H15_2 C27_2 1_555 1_555
C28_2 N3_2 1_555 1_555
H16_2 C28_2 1_555 1_555
H17_2 C28_2 1_555 1_555
H18_2 C28_2 1_555 1_555
O12 C8_2 1_555 1_555
O13 C8_2 1_555 1_555
C5_2 C4_2 1_555 1_555
H2_2 C5_2 1_555 1_555
C6_2 C5_2 1_555 1_555
C8_2 C4_2 1_555 1_555
N4 C11_2 1_555 1_555
C10_2 C9_2 1_555 1_555
H4_2 C10_2 1_555 1_555
C11_2 C10_2 1_555 1_555
H5_2 C11_2 1_555 1_555
H19 C29 1_555 1_555
H20 C29 1_555 1_555
H21 C29 1_555 1_555
H6 C12 1_555 1_555
H7 C13 1_555 1_555
C12 C13 1_555 1_555
H6_2 C12_2 1_555 1_555
H7_2 C13_2 1_555 1_555
C12_2 C13_2 1_555 1_555
H19_2 C29_2 1_555 1_555
H20_2 C29_2 1_555 1_555
H21_2 C29_2 1_555 1_555

#END
