
###############################################################################
#
# This file contains modified crystal structure data generated from the
# MOF subset of the Cambridge Structural Database (CSD) v543 
# hosted by the Cambridge Crystallographic Data Centre (CCDC).
#
# This work is licensed under the Creative Commons
# Attribution-NonCommercial-ShareAlike 4.0 International License.
# To view a copy of this license, visit
# http://creativecommons.org/licenses/by-nc-sa/4.0/
# or send a letter to
# Creative Commons, PO Box 1866, Mountain View, CA 94042, USA.
#
# CIF created using the CSD Python API on 29 September 2022
# The structure has been converted into the P1 space group
# The structure has a 3D framework
# The original CSD entry MOTQAQ is in the triclinic crystal system
# The framework has been calculated to contain at least 10.0% void space
# The void calculation uses a probe of radius 1.32A, grid spacing 0.4
#
###############################################################################

data_MOTQAQ
_chemical_formula_moiety         '(C58 H42 N6 O18 Pb4)n'
_symmetry_cell_setting           triclinic
_symmetry_space_group_name_H-M   'P 1'
_symmetry_Int_Tables_number      1
_space_group_name_Hall           'P 1'
loop_
_symmetry_equiv_pos_site_id
_symmetry_equiv_pos_as_xyz
1 x,y,z
_cell_length_a                   10.2850(3)
_cell_length_b                   13.3070(3)
_cell_length_c                   13.3260(3)
_cell_angle_alpha                102.181(2)
_cell_angle_beta                 97.698(2)
_cell_angle_gamma                94.222(2)
_cell_volume                     1756.9
loop_
_atom_site_label
_atom_site_type_symbol
_atom_site_fract_x
_atom_site_fract_y
_atom_site_fract_z
Pb4 Pb 0.00873(2) 0.33726(2) 0.04530(2)
O10 O 0.61122(12) 0.55151(10) 0.09856(10)
O14 O 0.75526(13) 0.34154(10) 0.05217(11)
Pb10 Pb 0.35568(2) 0.55402(2) 0.09761(2)
O1 O 0.38878(12) 0.44849(10) 0.90144(10)
O8 O 0.46920(13) 0.46084(12) 0.75806(11)
N1 N 0.03111(16) 0.35789(14) 0.24749(13)
C5 C 0.23502(18) 0.42548(15) 0.74608(15)
C7 C 0.37251(18) 0.44674(15) 0.80479(15)
C10 C 0.00050(18) 0.40447(15) 0.74303(16)
C11 C 0.12876(19) 0.42413(15) 0.79800(16)
H3 H 0.1420 0.4363 0.8701
C13 C 0.21650(19) 0.40804(16) 0.63804(16)
H5 H 0.2891 0.4097 0.6035
C17 C 0.08829(19) 0.38797(17) 0.58104(16)
C21 C 0.1524(2) 0.37909(19) 0.30662(17)
H10 H 0.2252 0.3886 0.2738
C24 C 0.0691(2) 0.37474(17) 0.46567(16)
C25 C 0.1736(2) 0.38735(19) 0.41307(16)
H13 H 0.2591 0.4015 0.4493
Pb2 Pb 0.64432(2) 0.44598(2) 0.90239(2)
O12 O 0.90867(12) 0.44737(10) 0.89718(10)
O13 O 0.09133(12) 0.55263(10) 0.10282(10)
O15 O 0.28189(13) 0.36170(10) 0.09384(11)
O16 O 0.71811(13) 0.63830(10) 0.90616(11)
O17 O 0.76962(13) 0.38931(12) 0.75078(11)
O18 O 0.16492(14) 0.21216(11) 0.08158(13)
N4 N 0.54812(17) 0.25133(14) 0.83334(14)
O7 O 0.84999(13) 0.19961(11) 0.06871(12)
C1 C 0.75176(18) 0.25238(15) 0.06991(15)
C2 C 0.51743(18) 0.26223(15) 0.09585(16)
H1 H 0.5246 0.3298 0.0870
C3 C 0.27279(19) 0.26728(15) 0.09447(16)
C4 C 0.88599(19) 0.41251(14) 0.80063(15)
C6 C 0.62727(18) 0.20762(15) 0.09633(15)
C8 C 0.39588(19) 0.21605(15) 0.10861(16)
C9 C 0.61807(19) 0.10933(15) 0.11719(16)
H2 H 0.6924 0.0736 0.1189
C15 C 0.50005(19) 0.06315(15) 0.13562(16)
C16 C 0.38861(19) 0.11709(15) 0.12739(15)
H7 H 0.3076 0.0858 0.1347
C19 C 0.98143(19) 0.38476(16) 0.63489(16)
H9 H 0.8963 0.3693 0.5982
C22 C 0.9442(2) 0.35271(19) 0.40549(17)
H11 H 0.8699 0.3427 0.4365
C23 C 0.9315(2) 0.34583(19) 0.30018(17)
H12 H 0.8467 0.3316 0.2626
Pb5 Pb 0.99127(2) 0.66274(2) 0.95470(2)
O9 O 0.98416(18) 0.20651(13) 0.86685(14)
N3 N 0.9909(3) 0.0442(2) 0.7774(2)
C27 C 0.9931(3) 0.1154(2) 0.8638(2)
C29 C 0.9883(6) 0.0784(5) 0.6787(5)
H19 H 0.9016 0.0607 0.6388
N2 N 0.45188(17) 0.74867(14) 0.16666(14)
C12 C 0.5668(2) 0.79096(16) 0.14895(17)
H4 H 0.6351 0.7494 0.1406
C14 C 0.5888(2) 0.89187(15) 0.14247(16)
H6 H 0.6708 0.9172 0.1308
C18 C 0.3577(2) 0.81128(17) 0.18413(19)
H8 H 0.2793 0.7846 0.2008
C20 C 0.48834(19) 0.95749(15) 0.15335(16)
C26 C 0.3716(2) 0.91318(16) 0.17861(18)
H14 H 0.3031 0.9536 0.1917
C12_2 C 0.4332(2) 0.20904(16) 0.85105(17)
H4_2 H 0.3649 0.2506 0.8594
C14_2 C 0.4112(2) 0.10813(15) 0.85753(16)
H6_2 H 0.3292 0.0828 0.8692
C18_2 C 0.6423(2) 0.18872(17) 0.81587(19)
H8_2 H 0.7207 0.2154 0.7992
C20_2 C 0.51166(19) 0.04251(15) 0.84665(16)
C26_2 C 0.6284(2) 0.08682(16) 0.82139(18)
H14_2 H 0.6969 0.0464 0.8083
O9_2 O 0.01584(18) 0.79349(13) 0.13315(14)
N3_2 N 0.0091(3) 0.9558(2) 0.2226(2)
C27_2 C 0.0069(3) 0.8846(2) 0.1362(2)
C29_2 C 0.0117(6) 0.9216(5) 0.3213(5)
H19_2 H 0.0984 0.9393 0.3612
O3 O 0.24474(13) 0.65846(10) 0.94783(11)
O5 O 0.23038(13) 0.61069(12) 0.24922(11)
O6 O 0.83508(14) 0.78784(11) 0.91842(13)
O7_2 O 0.15001(13) 0.80039(11) 0.93129(12)
C1_2 C 0.24824(18) 0.74762(15) 0.93009(15)
C2_2 C 0.48257(18) 0.73777(15) 0.90415(16)
H1_2 H 0.4754 0.6702 0.9130
C3_2 C 0.72721(19) 0.73272(15) 0.90553(16)
C4_2 C 0.11401(19) 0.58749(14) 0.19937(15)
C6_2 C 0.37273(18) 0.79238(15) 0.90367(15)
C8_2 C 0.60412(19) 0.78395(15) 0.89139(16)
C9_2 C 0.38193(19) 0.89067(15) 0.88281(16)
H2_2 H 0.3076 0.9264 0.8811
C15_2 C 0.49995(19) 0.93685(15) 0.86438(16)
C16_2 C 0.61139(19) 0.88291(15) 0.87261(15)
H7_2 H 0.6924 0.9142 0.8653
C19_2 C 0.01857(19) 0.61524(16) 0.36511(16)
H9_2 H 0.1037 0.6307 0.4018
C22_2 C 0.0558(2) 0.64729(19) 0.59451(17)
H11_2 H 0.1301 0.6573 0.5635
C23_2 C 0.0685(2) 0.65417(19) 0.69982(17)
H12_2 H 0.1533 0.6684 0.7374
O8_2 O 0.53080(13) 0.53916(12) 0.24194(11)
N1_2 N 0.96889(16) 0.64211(14) 0.75251(13)
C5_2 C 0.76498(18) 0.57452(15) 0.25392(15)
C7_2 C 0.62749(18) 0.55326(15) 0.19521(15)
C10_2 C 0.99950(18) 0.59553(15) 0.25697(16)
C11_2 C 0.87124(19) 0.57587(15) 0.20200(16)
H3_2 H 0.8580 0.5637 0.1299
C13_2 C 0.78350(19) 0.59196(16) 0.36196(16)
H5_2 H 0.7109 0.5903 0.3965
C17_2 C 0.91171(19) 0.61203(17) 0.41896(16)
C21_2 C 0.8476(2) 0.62091(19) 0.69338(17)
H10_2 H 0.7748 0.6114 0.7262
C24_2 C 0.9309(2) 0.62526(17) 0.53433(16)
C25_2 C 0.8264(2) 0.61265(19) 0.58693(16)
H13_2 H 0.7409 0.5985 0.5507
H15 H 0.0020 0.0943 0.9263
H20 H 0.0513 0.0448 0.6400
H21 H 0.0101 0.1519 0.6932
H16 H 0.0096 0.9238 0.8445
H17 H 0.0611 0.9074 0.7373
C28 C 0.9928(4) 0.9337(2) 0.7748(3)
H18 H 0.9090 0.8975 0.7409
C28_2 C 0.0072(4) 0.0663(2) 0.2252(3)
H18_2 H 0.0910 0.1025 0.2591
H16_2 H 0.9904 0.0762 0.1555
H17_2 H 0.9389 0.0926 0.2627
H15_2 H 0.9980 0.9057 0.0737
H20_2 H 0.9487 0.9552 0.3600
H21_2 H 0.9899 0.8481 0.3068
loop_
_geom_bond_atom_site_label_1
_geom_bond_atom_site_label_2
_geom_bond_site_symmetry_1
_geom_bond_site_symmetry_2
O10 Pb10 1_555 1_555
O1 C7 1_555 1_555
O8 C7 1_555 1_555
N1 Pb4 1_555 1_555
C5 C7 1_555 1_555
C10 C11 1_555 1_555
C11 C5 1_555 1_555
H3 C11 1_555 1_555
C13 C5 1_555 1_555
H5 C13 1_555 1_555
C17 C13 1_555 1_555
C21 N1 1_555 1_555
H10 C21 1_555 1_555
C24 C17 1_555 1_555
C25 C21 1_555 1_555
H13 C25 1_555 1_555
Pb2 O1 1_555 1_555
O12 Pb2 1_555 1_555
O13 Pb4 1_555 1_555
O15 Pb4 1_555 1_555
O16 Pb2 1_555 1_555
O17 Pb2 1_555 1_555
O18 Pb4 1_555 1_555
N4 Pb2 1_555 1_555
O8 Pb2 1_555 1_555
C24 C25 1_555 1_555
O12 C4 1_555 1_555
O14 C1 1_555 1_555
O15 C3 1_555 1_555
O17 C4 1_555 1_555
O18 C3 1_555 1_555
C1 O7 1_555 1_555
C2 H1 1_555 1_555
C3 C8 1_555 1_555
C6 C1 1_555 1_555
C8 C2 1_555 1_555
C9 C6 1_555 1_555
H2 C9 1_555 1_555
C15 C9 1_555 1_555
C16 C8 1_555 1_555
H7 C16 1_555 1_555
H9 C19 1_555 1_555
C22 H11 1_555 1_555
H12 C23 1_555 1_555
Pb5 O12 1_555 1_555
Pb10 O15 1_555 1_555
C2 C6 1_555 1_555
C15 C16 1_555 1_555
C22 C23 1_555 1_555
N3 C27 1_555 1_555
C27 O9 1_555 1_555
C29 N3 1_555 1_555
H19 C29 1_555 1_555
N2 C12 1_555 1_555
C12 H4 1_555 1_555
C14 C12 1_555 1_555
H6 C14 1_555 1_555
C18 N2 1_555 1_555
H8 C18 1_555 1_555
C20 C14 1_555 1_555
C26 C18 1_555 1_555
H14 C26 1_555 1_555
Pb10 N2 1_555 1_555
C20 C26 1_555 1_555
N4 C12_2 1_555 1_555
C12_2 H4_2 1_555 1_555
C14_2 C12_2 1_555 1_555
H6_2 C14_2 1_555 1_555
C18_2 N4 1_555 1_555
H8_2 C18_2 1_555 1_555
C20_2 C14_2 1_555 1_555
C26_2 C18_2 1_555 1_555
H14_2 C26_2 1_555 1_555
C20_2 C26_2 1_555 1_555
N3_2 C27_2 1_555 1_555
C27_2 O9_2 1_555 1_555
C29_2 N3_2 1_555 1_555
H19_2 C29_2 1_555 1_555
O13 Pb10 1_555 1_555
O13 C4_2 1_555 1_555
O3 C1_2 1_555 1_555
O16 C3_2 1_555 1_555
O5 C4_2 1_555 1_555
O6 C3_2 1_555 1_555
C1_2 O7_2 1_555 1_555
C2_2 H1_2 1_555 1_555
C3_2 C8_2 1_555 1_555
C6_2 C1_2 1_555 1_555
C8_2 C2_2 1_555 1_555
C9_2 C6_2 1_555 1_555
H2_2 C9_2 1_555 1_555
C15_2 C9_2 1_555 1_555
C16_2 C8_2 1_555 1_555
H7_2 C16_2 1_555 1_555
H9_2 C19_2 1_555 1_555
C22_2 H11_2 1_555 1_555
H12_2 C23_2 1_555 1_555
Pb5 O16 1_555 1_555
O5 Pb10 1_555 1_555
O6 Pb5 1_555 1_555
C2_2 C6_2 1_555 1_555
C15_2 C16_2 1_555 1_555
C22_2 C23_2 1_555 1_555
O10 C7_2 1_555 1_555
O8_2 C7_2 1_555 1_555
N1_2 Pb5 1_555 1_555
C5_2 C7_2 1_555 1_555
C10_2 C11_2 1_555 1_555
C11_2 C5_2 1_555 1_555
H3_2 C11_2 1_555 1_555
C13_2 C5_2 1_555 1_555
H5_2 C13_2 1_555 1_555
C17_2 C13_2 1_555 1_555
C21_2 N1_2 1_555 1_555
H10_2 C21_2 1_555 1_555
C24_2 C17_2 1_555 1_555
C25_2 C21_2 1_555 1_555
H13_2 C25_2 1_555 1_555
O8_2 Pb10 1_555 1_555
C24_2 C25_2 1_555 1_555
H18 C28 1_555 1_555
H18_2 C28_2 1_555 1_555

#END
