
###############################################################################
#
# This file contains modified crystal structure data generated from the
# MOF subset of the Cambridge Structural Database (CSD) v543 
# hosted by the Cambridge Crystallographic Data Centre (CCDC).
#
# This work is licensed under the Creative Commons
# Attribution-NonCommercial-ShareAlike 4.0 International License.
# To view a copy of this license, visit
# http://creativecommons.org/licenses/by-nc-sa/4.0/
# or send a letter to
# Creative Commons, PO Box 1866, Mountain View, CA 94042, USA.
#
# CIF created using the CSD Python API on 29 September 2022
# The structure has been converted into the P1 space group
# The structure has a 3D framework
# The original CSD entry MOVFOU is in the monoclinic crystal system
# The framework has been calculated to contain at least 10.0% void space
# The void calculation uses a probe of radius 1.32A, grid spacing 0.4
# H atom positions have been added when not included in the experimental data
#
###############################################################################

data_MOVFOU
_chemical_formula_moiety         '(C140 H120 Co12 N8 O30)n'
_symmetry_cell_setting           triclinic
_symmetry_space_group_name_H-M   'P 1'
_symmetry_Int_Tables_number      1
_space_group_name_Hall           'P 1'
loop_
_symmetry_equiv_pos_site_id
_symmetry_equiv_pos_as_xyz
1 x,y,z
_cell_length_a                   12.293(3)
_cell_length_b                   18.583(4)
_cell_length_c                   14.538(3)
_cell_angle_alpha                90
_cell_angle_beta                 97.063(4)
_cell_angle_gamma                90
_cell_volume                     3295.87
loop_
_atom_site_label
_atom_site_type_symbol
_atom_site_fract_x
_atom_site_fract_y
_atom_site_fract_z
Co5 Co -0.0000 0.0000 0.0000
Co5_2 Co -0.0000 1.0000 0.0000
Co1 Co 0.5000 0.0000 1.0000
Co2 Co 1.0000 0.5000 0.5000
C24 C 0.64903(16) 0.06270(11) 0.86294(14)
H13 H 0.6480 0.0152 0.8427
C25 C 0.69917(17) 0.11338(11) 0.81356(15)
H14 H 0.7315 0.0995 0.7618
C26 C 0.70188(16) 0.18518(11) 0.84037(15)
C27 C 0.65609(17) 0.20099(12) 0.92142(14)
H15 H 0.6586 0.2477 0.9444
C28 C 0.60698(17) 0.14703(11) 0.96741(15)
C29 C 0.74679(16) 0.24331(11) 0.78836(15)
H17 H 0.7484 0.2889 0.8148
C30 C 0.78573(17) 0.23750(12) 0.70670(15)
H18 H 0.7867 0.1917 0.6809
C31 C 0.82682(16) 0.29663(11) 0.65452(15)
C32 C 0.88291(17) 0.28378(12) 0.57863(15)
H19 H 0.8931 0.2367 0.5596
C33 C 0.92383(17) 0.34067(12) 0.53095(15)
H20 H 0.9604 0.3302 0.4802
C34 C 0.85512(16) 0.42256(12) 0.62637(14)
H21 H 0.8443 0.4701 0.6428
C35 C 0.81116(17) 0.36926(11) 0.67641(14)
H22 H 0.7712 0.3813 0.7245
O2 O 0.37140(12) 0.07425(8) 0.98104(10)
H24 H 0.3059(14) 0.0606(13) 0.9777(15)
O4 O 0.85583(12) 0.56497(8) 0.50545(10)
H25 H 0.836(2) 0.5750(13) 0.4534(11)
H26 H 0.865(2) 0.6021(11) 0.5372(14)
N1 N 0.60111(13) 0.07828(9) 0.93948(12)
N2 N 0.91306(13) 0.40981(9) 0.55470(12)
C46 C 0.29483(18) 0.01372(12) 0.52406(15)
H32 H 0.2626 0.0410 0.5708
H33 H 0.3387 0.0469 0.4926
C48 C 0.19500(17) 0.00922(11) 0.36205(15)
C58 C 0.10662(17) 0.00648(11) 0.19378(14)
O12 O 0.16545(12) 0.05981(8) 0.17615(10)
O14 O 0.33364(13) 0.00460(7) 0.71843(10)
O15 O 0.27201(12) 0.05591(8) 0.33797(10)
O18 O 0.95409(11) 0.47120(8) 0.36563(9)
H53 H 0.345695 0.0335352 0.35053
H54 H 0.387351 0.0350963 0.757396
Co1_2 Co 0.5000 1.0000 1.0000
C36 C 0.46236(16) 0.90632(11) 0.71857(13)
C37 C 0.51467(16) 0.85689(11) 0.66977(14)
H27 H 0.5603 0.8230 0.7019
C38 C 0.50111(17) 0.85594(11) 0.57163(15)
C39 C 0.43073(16) 0.90866(11) 0.52337(14)
C40 C 0.37121(16) 0.95750(11) 0.57328(14)
C41 C 0.38873(16) 0.95637(11) 0.66916(14)
C42 C 0.42757(17) 0.91074(12) 0.42507(15)
H28 H 0.3863 0.9459 0.3913
C43 C 0.48473(19) 0.86140(13) 0.37985(16)
H29 H 0.4815 0.8640 0.3157
C44 C 0.54802(19) 0.80708(12) 0.42760(15)
H30 H 0.5832 0.7727 0.3953
C45 C 0.55697(18) 0.80549(12) 0.52168(15)
H31 H 0.6006 0.7706 0.5538
C47 C 0.20210(18) 0.98605(12) 0.45364(15)
C49 C 0.11046(17) 0.98375(12) 0.29309(14)
C50 C 0.03171(16) 0.93830(11) 0.31882(14)
C51 C 0.03036(16) 0.91738(10) 0.41160(14)
C52 C 0.11741(17) 0.94097(11) 0.48030(14)
C53 C 0.11174(17) 0.92043(11) 0.57305(15)
H35 H 0.1670 0.9347 0.6189
C54 C 0.02603(18) 0.87970(12) 0.59710(16)
H36 H 0.0241 0.8672 0.6588
C57 C 0.49230(15) 0.90917(10) 0.82196(13)
H42 H 0.4237 0.8408 0.9793
O9 O 0.44679(11) 0.95817(8) 0.86611(9)
H49 H 0.6160(19) 0.9091(13) 0.9662(13)
O11 O 0.56159(12) 0.86559(8) 0.85913(10)
O13 O 0.04591(11) 0.97120(8) 0.13437(9)
C55 C 0.05895(18) 0.35667(12) 0.97078(15)
H37 H 0.1163 0.3289 0.9541
H25_2 H 0.164(2) 0.0750(13) 0.0466(11)
H20_2 H 0.0396 0.8302 0.0198
C42_2 C 0.57243(17) 0.41074(12) 0.07493(15)
H28_2 H 0.6137 0.4459 0.1087
C43_2 C 0.51527(19) 0.36140(13) 0.12015(16)
H29_2 H 0.5185 0.3640 0.1843
C44_2 C 0.45198(19) 0.30708(12) 0.07240(15)
H30_2 H 0.4168 0.2727 0.1047
H33_2 H 0.6613 0.5469 0.0074
C47_2 C 0.79790(18) 0.48605(12) 0.04636(15)
C48_2 C 0.80500(17) 0.50922(11) 0.13795(15)
C49_2 C 0.88954(17) 0.48375(12) 0.20691(14)
C50_2 C 0.96829(16) 0.43830(11) 0.18118(14)
C51_2 C 0.96964(16) 0.41738(10) 0.08840(14)
C52_2 C 0.88259(17) 0.44097(11) 0.01970(14)
C58_2 C 0.89338(17) 0.50648(11) 0.30622(14)
O12_2 O 0.83455(12) 0.55981(8) 0.32385(10)
O15_2 O 0.72799(12) 0.55591(8) 0.16203(10)
H53_2 H 0.654305 0.533535 0.14947
H8 H 0.9779 0.5791 0.7738
C21 C 0.94391(17) 0.62441(12) 0.93883(15)
H12 H 0.8877 0.6394 0.8942
H55 H 0.270148 0.100773 0.37485
H56 H 0.287848 0.977966 0.758722
H55_2 H 0.729852 0.600773 0.12515
H8_2 H 0.0221 0.0791 0.7262
C20 C 0.05895(18) 0.14333(12) 0.47078(15)
H11 H 0.1163 0.1711 0.4541
C21_2 C 0.05609(17) 0.12441(12) 0.56117(15)
H12_2 H 0.1123 0.1394 0.6058
Co5_3 Co -0.0000 0.0000 1.0000
O4_2 O 0.14417(12) 0.06497(8) 0.99455(10)
H26_2 H 0.135(2) 0.1021(11) 0.9628(14)
Co2_2 Co 0.0000 0.5000 0.5000
O16 O 0.14417(12) 0.43503(8) 0.49455(10)
H51 H 0.164(2) 0.4250(13) 0.5466(11)
H52 H 0.135(2) 0.3979(11) 0.4628(14)
O17 O 0.04591(11) 0.52880(8) 0.63437(9)
N5 N 0.08694(13) 0.59019(9) 0.44530(12)
Co1_3 Co 0.5000 0.0000 0.0000
C1 C 0.53764(16) 0.09368(11) 0.28143(13)
C2 C 0.48533(16) 0.14311(11) 0.33023(14)
H1 H 0.4397 0.1770 0.2981
C3 C 0.49889(17) 0.14406(11) 0.42837(15)
C4 C 0.56927(16) 0.09134(11) 0.47663(14)
C5 C 0.62879(16) 0.04250(11) 0.42672(14)
C6 C 0.61127(16) 0.04363(11) 0.33084(14)
C7 C 0.57243(17) 0.08926(12) 0.57493(15)
H2 H 0.6137 0.0541 0.6087
C8 C 0.51527(19) 0.13860(13) 0.62015(16)
H3 H 0.5185 0.1360 0.6843
C9 C 0.45198(19) 0.19292(12) 0.57240(15)
H4 H 0.4168 0.2273 0.6047
C10 C 0.44303(18) 0.19451(12) 0.47832(15)
H5 H 0.3994 0.2294 0.4462
C12 C 0.79790(18) 0.01395(12) 0.54636(15)
C14 C 0.88954(17) 0.01625(12) 0.70691(14)
C15 C 0.96829(16) 0.06170(11) 0.68118(14)
C16 C 0.96964(16) 0.08262(10) 0.58840(14)
C17 C 0.88259(17) 0.05903(11) 0.51970(14)
C18 C 0.88826(17) 0.07957(11) 0.42695(15)
H9 H 0.8330 0.0653 0.3811
C19 C 0.97397(18) 0.12030(12) 0.40290(16)
H10 H 0.9759 0.1328 0.3412
C22 C 0.50770(15) 0.09083(10) 0.17804(13)
H16 H 0.5763 0.1592 0.0207
O1 O 0.55321(11) 0.04183(8) 0.13389(9)
H23 H 0.3840(19) 0.0909(13) 0.0338(13)
O3 O 0.43841(12) 0.13441(8) 0.14087(10)
O6 O 0.95409(11) 0.02880(8) 0.86563(9)
Co5_4 Co 1.0000 0.0000 1.0000
H56_2 H 0.712152 0.0220338 0.241278
Co1_4 Co 0.5000 1.0000 0.0000
C11 C 0.70517(18) 0.98628(12) 0.47594(15)
H6 H 0.7374 0.9590 0.4292
H7 H 0.6613 0.9531 0.5074
C13 C 0.80500(17) 0.99078(11) 0.63795(15)
C23 C 0.89338(17) 0.99352(11) 0.80622(14)
O5 O 0.83455(12) 0.94019(8) 0.82385(10)
O7 O 0.66636(13) 0.99540(7) 0.28157(10)
O8 O 0.72799(12) 0.94409(8) 0.66203(10)
C59 C 0.35097(16) 0.93730(11) 0.13706(14)
H39 H 0.3520 0.9848 0.1573
C60 C 0.30083(17) 0.88662(11) 0.18644(15)
H40 H 0.2685 0.9005 0.2382
C61 C 0.29812(16) 0.81482(11) 0.15963(15)
C62 C 0.34391(17) 0.79901(12) 0.07858(14)
H41 H 0.3414 0.7523 0.0556
C63 C 0.39302(17) 0.85297(11) 0.03259(15)
C64 C 0.25321(16) 0.75669(11) 0.21164(15)
H43 H 0.2516 0.7111 0.1852
C65 C 0.21427(17) 0.76250(12) 0.29330(15)
H44 H 0.2133 0.8083 0.3191
C66 C 0.17318(16) 0.70337(11) 0.34548(15)
C67 C 0.11709(17) 0.71622(12) 0.42137(15)
H45 H 0.1069 0.7633 0.4404
C68 C 0.07617(17) 0.65933(12) 0.46905(15)
H46 H 0.0396 0.6698 0.5198
C69 C 0.14488(16) 0.57744(12) 0.37363(14)
H47 H 0.1557 0.5299 0.3572
C70 C 0.18884(17) 0.63074(11) 0.32359(14)
H48 H 0.2288 0.6187 0.2755
O10 O 0.62860(12) 0.92575(8) 0.01896(10)
H50 H 0.6941(14) 0.9394(13) 0.0223(15)
N3 N 0.39889(13) 0.92172(9) 0.06052(12)
Co5_5 Co 1.0000 1.0000 1.0000
H55_3 H 0.729852 0.899227 0.62515
H34 H 0.0221 0.4209 0.2262
C56 C 0.05609(17) 0.37559(12) 0.06117(15)
H38 H 0.1123 0.3606 0.1058
C7_2 C 0.42757(17) 0.58926(12) 0.92507(15)
H2_2 H 0.3863 0.5541 0.8913
C8_2 C 0.48473(19) 0.63860(13) 0.87985(16)
H3_2 H 0.4815 0.6360 0.8157
C9_2 C 0.54802(19) 0.69292(12) 0.92760(15)
H4_2 H 0.5832 0.7273 0.8953
H7_2 H 0.3387 0.4531 0.9926
C12_2 C 0.20210(18) 0.51395(12) 0.95364(15)
C13_2 C 0.19500(17) 0.49078(11) 0.86205(15)
C14_2 C 0.11046(17) 0.51625(12) 0.79309(14)
C15_2 C 0.03171(16) 0.56170(11) 0.81882(14)
C16_2 C 0.03036(16) 0.58262(10) 0.91160(14)
C17_2 C 0.11741(17) 0.55903(11) 0.98030(14)
C23_2 C 0.10662(17) 0.49352(11) 0.69378(14)
O5_2 O 0.16545(12) 0.44019(8) 0.67615(10)
O8_2 O 0.27201(12) 0.44409(8) 0.83797(10)
H46_2 H 0.9604 0.1698 0.9802
H55_4 H 0.270148 0.399227 0.87485
C20_2 C 0.94105(18) 0.64333(12) 0.02922(15)
H11_2 H 0.8837 0.6711 0.0459
H51_2 H 0.836(2) 0.9250(13) 0.9534(11)
H53_3 H 0.654305 0.966465 0.64947
H54_2 H 0.612649 0.964904 0.242604
H53_4 H 0.345695 0.466465 0.85053
Co5_6 Co -0.0000 1.0000 1.0000
Co5_7 Co 1.0000 0.0000 0.0000
Co1_5 Co 0.5000 0.5000 0.5000
C1_2 C 0.46236(16) 0.59368(11) 0.21857(13)
C2_2 C 0.51467(16) 0.64311(11) 0.16977(14)
H1_2 H 0.5603 0.6770 0.2019
C3_2 C 0.50111(17) 0.64406(11) 0.07163(15)
C4_2 C 0.43073(16) 0.59134(11) 0.02337(14)
C5_2 C 0.37121(16) 0.54250(11) 0.07328(14)
C6_2 C 0.38873(16) 0.54363(11) 0.16916(14)
C10_2 C 0.55697(18) 0.69451(12) 0.02168(15)
H5_2 H 0.6006 0.7294 0.0538
C11_2 C 0.29483(18) 0.48628(12) 0.02406(15)
H6_2 H 0.2626 0.4590 0.0708
C18_2 C 0.11174(17) 0.57957(11) 0.07305(15)
H9_2 H 0.1670 0.5653 0.1189
C19_2 C 0.02603(18) 0.62030(12) 0.09710(16)
H10_2 H 0.0241 0.6328 0.1588
C22_2 C 0.49230(15) 0.59083(10) 0.32196(13)
C24_2 C 0.35097(16) 0.56270(11) 0.63706(14)
H13_2 H 0.3520 0.5152 0.6573
C25_2 C 0.30083(17) 0.61338(11) 0.68644(15)
H14_2 H 0.2685 0.5995 0.7382
C26_2 C 0.29812(16) 0.68518(11) 0.65963(15)
C27_2 C 0.34391(17) 0.70099(12) 0.57858(14)
H15_2 H 0.3414 0.7477 0.5556
C28_2 C 0.39302(17) 0.64703(11) 0.53259(15)
H16_2 H 0.4237 0.6592 0.4793
C29_2 C 0.25321(16) 0.74331(11) 0.71164(15)
H17_2 H 0.2516 0.7889 0.6852
C30_2 C 0.21427(17) 0.73750(12) 0.79330(15)
H18_2 H 0.2133 0.6917 0.8191
C31_2 C 0.17318(16) 0.79663(11) 0.84548(15)
C32_2 C 0.11709(17) 0.78378(12) 0.92137(15)
H19_2 H 0.1069 0.7367 0.9404
C33_2 C 0.07617(17) 0.84067(12) 0.96905(15)
C34_2 C 0.14488(16) 0.92256(12) 0.87363(14)
H21_2 H 0.1557 0.9701 0.8572
C35_2 C 0.18884(17) 0.86926(11) 0.82359(14)
H22_2 H 0.2288 0.8813 0.7755
O1_2 O 0.44679(11) 0.54183(8) 0.36611(9)
O2_2 O 0.62860(12) 0.57425(8) 0.51896(10)
H23_2 H 0.6160(19) 0.5909(13) 0.4662(13)
H24_2 H 0.6941(14) 0.5606(13) 0.5223(15)
O3_2 O 0.56159(12) 0.63441(8) 0.35913(10)
O7_2 O 0.33364(13) 0.49540(7) 0.21843(10)
N1_2 N 0.39889(13) 0.57828(9) 0.56052(12)
N2_2 N 0.08694(13) 0.90981(9) 0.94530(12)
C36_2 C 0.53764(16) 0.40632(11) 0.78143(13)
C37_2 C 0.48533(16) 0.35689(11) 0.83023(14)
H27_2 H 0.4397 0.3230 0.7981
C38_2 C 0.49889(17) 0.35594(11) 0.92837(15)
C39_2 C 0.56927(16) 0.40866(11) 0.97663(14)
C40_2 C 0.62879(16) 0.45750(11) 0.92672(14)
C41_2 C 0.61127(16) 0.45637(11) 0.83084(14)
C45_2 C 0.44303(18) 0.30549(12) 0.97832(15)
H31_2 H 0.3994 0.2706 0.9462
C46_2 C 0.70517(18) 0.51372(12) 0.97594(15)
H32_2 H 0.7374 0.5410 0.9292
C53_2 C 0.88826(17) 0.42043(11) 0.92695(15)
H35_2 H 0.8330 0.4347 0.8811
C54_2 C 0.97397(18) 0.37970(12) 0.90290(16)
H36_2 H 0.9759 0.3672 0.8412
C57_2 C 0.50770(15) 0.40917(10) 0.67804(13)
C59_2 C 0.64903(16) 0.43730(11) 0.36294(14)
H39_2 H 0.6480 0.4848 0.3427
C60_2 C 0.69917(17) 0.38662(11) 0.31356(15)
H40_2 H 0.7315 0.4005 0.2618
C61_2 C 0.70188(16) 0.31482(11) 0.34037(15)
C62_2 C 0.65609(17) 0.29901(12) 0.42142(14)
H41_2 H 0.6586 0.2523 0.4444
C63_2 C 0.60698(17) 0.35297(11) 0.46741(15)
H42_2 H 0.5763 0.3408 0.5207
C64_2 C 0.74679(16) 0.25669(11) 0.28836(15)
H43_2 H 0.7484 0.2111 0.3148
C65_2 C 0.78573(17) 0.26250(12) 0.20670(15)
H44_2 H 0.7867 0.3083 0.1809
C66_2 C 0.82682(16) 0.20337(11) 0.15452(15)
C67_2 C 0.88291(17) 0.21622(12) 0.07863(15)
H45_2 H 0.8931 0.2633 0.0596
C68_2 C 0.92383(17) 0.15933(12) 0.03095(15)
C69_2 C 0.85512(16) 0.07744(12) 0.12637(14)
H47_2 H 0.8443 0.0299 0.1428
C70_2 C 0.81116(17) 0.13074(11) 0.17641(14)
H48_2 H 0.7712 0.1187 0.2245
O9_2 O 0.55321(11) 0.45817(8) 0.63389(9)
O10_2 O 0.37140(12) 0.42575(8) 0.48104(10)
H49_2 H 0.3840(19) 0.4091(13) 0.5338(13)
H50_2 H 0.3059(14) 0.4394(13) 0.4777(15)
O11_2 O 0.43841(12) 0.36559(8) 0.64087(10)
O14_2 O 0.66636(13) 0.50460(7) 0.78157(10)
N3_2 N 0.60111(13) 0.42172(9) 0.43948(12)
N4 N 0.91306(13) 0.09019(9) 0.05470(12)
H54_3 H 0.612649 0.535096 0.742604
H56_3 H 0.287848 0.522034 0.258722
H54_4 H 0.387351 0.464904 0.257396
H56_4 H 0.712152 0.477966 0.741278
Co5_8 Co 1.0000 1.0000 0.0000
H34_2 H 0.9779 0.9209 0.2738
C55_2 C 0.94105(18) 0.85667(12) 0.52922(15)
H37_2 H 0.8837 0.8289 0.5459
C56_2 C 0.94391(17) 0.87559(12) 0.43883(15)
H38_2 H 0.8877 0.8606 0.3942
O16_2 O 0.85583(12) 0.93503(8) 0.00545(10)
H52_2 H 0.865(2) 0.8979(11) 0.0372(14)
loop_
_geom_bond_atom_site_label_1
_geom_bond_atom_site_label_2
_geom_bond_site_symmetry_1
_geom_bond_site_symmetry_2
Co2 O4 1_555 1_555
C24 H13 1_555 1_555
C25 C24 1_555 1_555
H14 C25 1_555 1_555
C26 C25 1_555 1_555
C27 C26 1_555 1_555
H15 C27 1_555 1_555
C28 C27 1_555 1_555
C29 C26 1_555 1_555
H17 C29 1_555 1_555
C30 C29 1_555 1_555
H18 C30 1_555 1_555
C31 C30 1_555 1_555
C32 C31 1_555 1_555
H19 C32 1_555 1_555
C33 C32 1_555 1_555
H20 C33 1_555 1_555
C34 H21 1_555 1_555
C35 C31 1_555 1_555
H22 C35 1_555 1_555
O2 Co1 1_555 1_555
H24 O2 1_555 1_555
O4 H25 1_555 1_555
H26 O4 1_555 1_555
N1 Co1 1_555 1_555
N2 Co2 1_555 1_555
H32 C46 1_555 1_555
H33 C46 1_555 1_555
O12 C58 1_555 1_555
O15 C48 1_555 1_555
O18 Co2 1_555 1_555
C24 N1 1_555 1_555
C28 N1 1_555 1_555
C33 N2 1_555 1_555
C34 C35 1_555 1_555
C34 N2 1_555 1_555
O15 H53 1_555 1_555
O14 H54 1_555 1_555
C36 C37 1_555 1_555
C37 H27 1_555 1_555
C38 C37 1_555 1_555
C39 C38 1_555 1_555
C40 C39 1_555 1_555
C41 C36 1_555 1_555
C42 C39 1_555 1_555
H28 C42 1_555 1_555
C43 C42 1_555 1_555
H29 C43 1_555 1_555
C44 C43 1_555 1_555
H30 C44 1_555 1_555
C45 C38 1_555 1_555
H31 C45 1_555 1_555
C50 C49 1_555 1_555
C51 C50 1_555 1_555
C52 C47 1_555 1_555
C53 C52 1_555 1_555
H35 C53 1_555 1_555
C54 C53 1_555 1_555
H36 C54 1_555 1_555
C57 C36 1_555 1_555
O9 Co1_2 1_555 1_555
O11 C57 1_555 1_555
Co5_2 O13 1_555 1_555
C40 C41 1_555 1_555
C44 C45 1_555 1_555
C51 C52 1_555 1_555
C57 O9 1_555 1_555
H37 C55 1_555 1_555
H28_2 C42_2 1_555 1_555
C43_2 C42_2 1_555 1_555
H29_2 C43_2 1_555 1_555
C44_2 C43_2 1_555 1_555
H30_2 C44_2 1_555 1_555
C48_2 C47_2 1_555 1_555
C49_2 C48_2 1_555 1_555
C50_2 C49_2 1_555 1_555
C51_2 C50_2 1_555 1_555
C52_2 C47_2 1_555 1_555
C58_2 C49_2 1_555 1_555
O12_2 C58_2 1_555 1_555
O18 C58_2 1_555 1_555
O15_2 C48_2 1_555 1_555
C51_2 C52_2 1_555 1_555
O15_2 H53_2 1_555 1_555
H12 C21 1_555 1_555
O15 H55 1_555 1_555
O15_2 H55_2 1_555 1_555
H11 C20 1_555 1_555
H12_2 C21_2 1_555 1_555
C20 C21_2 1_555 1_555
Co5_3 O4_2 1_555 1_555
H26_2 O4_2 1_555 1_555
O16 Co2_2 1_555 1_555
H51 O16 1_555 1_555
H52 O16 1_555 1_555
O17 Co2_2 1_555 1_555
N5 Co2_2 1_555 1_555
Co1_3 O1 1_555 1_555
C1 C2 1_555 1_555
C2 H1 1_555 1_555
C3 C2 1_555 1_555
C4 C3 1_555 1_555
C5 C4 1_555 1_555
C6 C1 1_555 1_555
C7 C4 1_555 1_555
H2 C7 1_555 1_555
C8 C7 1_555 1_555
H3 C8 1_555 1_555
C9 C8 1_555 1_555
H4 C9 1_555 1_555
C10 C3 1_555 1_555
H5 C10 1_555 1_555
C15 C14 1_555 1_555
C16 C15 1_555 1_555
C17 C12 1_555 1_555
C18 C17 1_555 1_555
H9 C18 1_555 1_555
C19 C18 1_555 1_555
H10 C19 1_555 1_555
C22 C1 1_555 1_555
O1 C22 1_555 1_555
O3 C22 1_555 1_555
Co5_4 O6 1_555 1_555
C5 C6 1_555 1_555
C9 C10 1_555 1_555
C16 C17 1_555 1_555
H6 C11 1_555 1_555
H7 C11 1_555 1_555
O5 C23 1_555 1_555
O8 C13 1_555 1_555
C59 H39 1_555 1_555
C60 C59 1_555 1_555
H40 C60 1_555 1_555
C61 C60 1_555 1_555
C62 C61 1_555 1_555
H41 C62 1_555 1_555
C63 C62 1_555 1_555
C64 C61 1_555 1_555
H43 C64 1_555 1_555
C65 C64 1_555 1_555
H44 C65 1_555 1_555
C66 C65 1_555 1_555
C67 C66 1_555 1_555
H45 C67 1_555 1_555
C68 C67 1_555 1_555
H46 C68 1_555 1_555
C69 H47 1_555 1_555
C70 C66 1_555 1_555
H48 C70 1_555 1_555
O10 Co1_4 1_555 1_555
H50 O10 1_555 1_555
N3 Co1_4 1_555 1_555
N5 C68 1_555 1_555
C59 N3 1_555 1_555
C63 N3 1_555 1_555
C69 C70 1_555 1_555
C69 N5 1_555 1_555
O8 H55_3 1_555 1_555
H38 C56 1_555 1_555
H2_2 C7_2 1_555 1_555
C8_2 C7_2 1_555 1_555
H3_2 C8_2 1_555 1_555
C9_2 C8_2 1_555 1_555
H4_2 C9_2 1_555 1_555
C13_2 C12_2 1_555 1_555
C14_2 C13_2 1_555 1_555
C15_2 C14_2 1_555 1_555
C16_2 C15_2 1_555 1_555
C17_2 C12_2 1_555 1_555
C23_2 C14_2 1_555 1_555
O5_2 C23_2 1_555 1_555
O17 C23_2 1_555 1_555
O8_2 C13_2 1_555 1_555
C16_2 C17_2 1_555 1_555
O8_2 H55_4 1_555 1_555
H11_2 C20_2 1_555 1_555
O8 H53_3 1_555 1_555
O7 H54_2 1_555 1_555
O8_2 H53_4 1_555 1_555
Co1_5 O1_2 1_555 1_555
C1_2 C2_2 1_555 1_555
C2_2 H1_2 1_555 1_555
C3_2 C2_2 1_555 1_555
C4_2 C3_2 1_555 1_555
C5_2 C4_2 1_555 1_555
C6_2 C1_2 1_555 1_555
C10_2 C3_2 1_555 1_555
H5_2 C10_2 1_555 1_555
C11_2 C5_2 1_555 1_555
H6_2 C11_2 1_555 1_555
H9_2 C18_2 1_555 1_555
C19_2 C18_2 1_555 1_555
H10_2 C19_2 1_555 1_555
C22_2 C1_2 1_555 1_555
C24_2 H13_2 1_555 1_555
C25_2 C24_2 1_555 1_555
H14_2 C25_2 1_555 1_555
C26_2 C25_2 1_555 1_555
C27_2 C26_2 1_555 1_555
H15_2 C27_2 1_555 1_555
C28_2 C27_2 1_555 1_555
H16_2 C28_2 1_555 1_555
C29_2 C26_2 1_555 1_555
H17_2 C29_2 1_555 1_555
C30_2 C29_2 1_555 1_555
H18_2 C30_2 1_555 1_555
C31_2 C30_2 1_555 1_555
C32_2 C31_2 1_555 1_555
H19_2 C32_2 1_555 1_555
C33_2 C32_2 1_555 1_555
C34_2 H21_2 1_555 1_555
C35_2 C31_2 1_555 1_555
H22_2 C35_2 1_555 1_555
O1_2 C22_2 1_555 1_555
O2_2 Co1_5 1_555 1_555
H23_2 O2_2 1_555 1_555
H24_2 O2_2 1_555 1_555
O3_2 C22_2 1_555 1_555
O7_2 C6_2 1_555 1_555
N1_2 Co1_5 1_555 1_555
N2_2 Co5_6 1_555 1_555
C36_2 C37_2 1_555 1_555
C37_2 H27_2 1_555 1_555
C38_2 C37_2 1_555 1_555
C39_2 C38_2 1_555 1_555
C40_2 C39_2 1_555 1_555
C41_2 C36_2 1_555 1_555
C45_2 C38_2 1_555 1_555
H31_2 C45_2 1_555 1_555
C46_2 C40_2 1_555 1_555
H32_2 C46_2 1_555 1_555
H35_2 C53_2 1_555 1_555
C54_2 C53_2 1_555 1_555
H36_2 C54_2 1_555 1_555
C57_2 C36_2 1_555 1_555
C59_2 H39_2 1_555 1_555
C60_2 C59_2 1_555 1_555
H40_2 C60_2 1_555 1_555
C61_2 C60_2 1_555 1_555
C62_2 C61_2 1_555 1_555
H41_2 C62_2 1_555 1_555
C63_2 C62_2 1_555 1_555
H42_2 C63_2 1_555 1_555
C64_2 C61_2 1_555 1_555
H43_2 C64_2 1_555 1_555
C65_2 C64_2 1_555 1_555
H44_2 C65_2 1_555 1_555
C66_2 C65_2 1_555 1_555
C67_2 C66_2 1_555 1_555
H45_2 C67_2 1_555 1_555
C68_2 C67_2 1_555 1_555
C69_2 H47_2 1_555 1_555
C70_2 C66_2 1_555 1_555
H48_2 C70_2 1_555 1_555
O9_2 Co1_5 1_555 1_555
O10_2 Co1_5 1_555 1_555
H49_2 O10_2 1_555 1_555
H50_2 O10_2 1_555 1_555
O11_2 C57_2 1_555 1_555
O14_2 C41_2 1_555 1_555
N3_2 Co1_5 1_555 1_555
N4 C68_2 1_555 1_555
Co5_7 N4 1_555 1_555
C5_2 C6_2 1_555 1_555
C24_2 N1_2 1_555 1_555
C28_2 N1_2 1_555 1_555
C33_2 N2_2 1_555 1_555
C34_2 C35_2 1_555 1_555
C34_2 N2_2 1_555 1_555
C40_2 C41_2 1_555 1_555
C57_2 O9_2 1_555 1_555
C59_2 N3_2 1_555 1_555
C63_2 N3_2 1_555 1_555
C69_2 C70_2 1_555 1_555
C69_2 N4 1_555 1_555
O14_2 H54_3 1_555 1_555
O7_2 H56_3 1_555 1_555
O7_2 H54_4 1_555 1_555
O14_2 H56_4 1_555 1_555
H37_2 C55_2 1_555 1_555
H38_2 C56_2 1_555 1_555
C55_2 C56_2 1_555 1_555
O16_2 Co5_8 1_555 1_555
H52_2 O16_2 1_555 1_555

#END
