
###############################################################################
#
# This file contains modified crystal structure data generated from the
# MOF subset of the Cambridge Structural Database (CSD) v543 
# hosted by the Cambridge Crystallographic Data Centre (CCDC).
#
# This work is licensed under the Creative Commons
# Attribution-NonCommercial-ShareAlike 4.0 International License.
# To view a copy of this license, visit
# http://creativecommons.org/licenses/by-nc-sa/4.0/
# or send a letter to
# Creative Commons, PO Box 1866, Mountain View, CA 94042, USA.
#
# CIF created using the CSD Python API on 29 September 2022
# The structure has been converted into the P1 space group
# The structure has a 3D framework
# The original CSD entry MOVVUR is in the monoclinic crystal system
# The framework has been calculated to contain at least 10.0% void space
# The void calculation uses a probe of radius 1.32A, grid spacing 0.4
#
###############################################################################

data_MOVVUR
_chemical_formula_moiety         '(C136 H88 Br16 N24 O32 Zn8)n'
_symmetry_cell_setting           triclinic
_symmetry_space_group_name_H-M   'P 1'
_symmetry_Int_Tables_number      1
_space_group_name_Hall           'P 1'
loop_
_symmetry_equiv_pos_site_id
_symmetry_equiv_pos_as_xyz
1 x,y,z
_cell_length_a                   13.3088(8)
_cell_length_b                   18.4566(10)
_cell_length_c                   23.1932(13)
_cell_angle_alpha                90
_cell_angle_beta                 105.0050(10)
_cell_angle_gamma                90
_cell_volume                     5502.81
loop_
_atom_site_label
_atom_site_type_symbol
_atom_site_fract_x
_atom_site_fract_y
_atom_site_fract_z
C2 C 0.0391(8) 0.1949(7) 0.4533(5)
H2 H 0.0412 0.1745 0.4916
H3 H 0.0400 0.1567 0.4254
N1 N 0.1688(5) 0.2594(4) 0.41005(18)
C3 C 0.1262(4) 0.2399(3) 0.4580(2)
N2 N 0.1889(5) 0.2715(4) 0.51100(18)
C4 C 0.2704(5) 0.3105(4) 0.4958(3)
H4 H 0.3227 0.3364 0.5221
C5 C 0.2580(5) 0.3030(4) 0.4334(3)
H5 H 0.3007 0.3232 0.4117
C6 C 0.1742(5) 0.2670(4) 0.5667(2)
C7 C 0.2576(4) 0.2513(4) 0.6151(3)
H6 H 0.3231 0.2427 0.6093
C8 C 0.2431(4) 0.2483(5) 0.6723(2)
C9 C 0.1452(5) 0.2611(5) 0.6811(2)
H7 H 0.1355 0.2591 0.7194
C10 C 0.0618(4) 0.2769(4) 0.6327(3)
C11 C 0.0763(4) 0.2798(4) 0.5755(2)
H8 H 0.0205 0.2904 0.5431
C16 C 0.4473(8) 0.3369(6) 0.7043(5)
H14 H 0.4466 0.3201 0.6651
H15 H 0.5163 0.3523 0.7246
H16 H 0.4000 0.3769 0.7012
C17 C 0.4170(5) 0.2815(4) 0.7359(3)
N5 N 0.4783(4) 0.2546(4) 0.7912(2)
C18 C 0.4219(6) 0.1980(4) 0.8101(3)
H17 H 0.4441 0.1709 0.8449
C19 C 0.3257(5) 0.1899(4) 0.7664(3)
H18 H 0.2738 0.1566 0.7676
N6 N 0.3226(4) 0.2415(4) 0.7206(3)
C20 C 0.1460(11) 0.0837(7) 0.3249(5)
C21 C 0.1882(6) 0.0097(3) 0.3078(3)
C26 C 0.2907(6) 0.0078(3) 0.3041(3)
H20 H 0.3314 0.0495 0.3117
C34 C 0.5923(7) 0.0216(5) 0.5351(4)
H22 H 0.6575 0.0351 0.5585
O2 O 0.1915(6) 0.1365(5) 0.3082(3)
O3 O 0.0738(8) 0.0860(5) 0.3488(5)
Zn1 Zn 0.12661(8) 0.22588(6) 0.32705(4)
Br6 Br 0.29300(10) 0.10112(8) 0.48007(7)
C39 C 0.5317(8) 0.1369(5) 0.5665(4)
C40 C 0.5108(7) 0.0668(5) 0.5322(4)
C41 C 0.4174(8) 0.0428(5) 0.4947(5)
O11 O 0.6223(5) 0.1587(3) 0.5781(3)
O12 O 0.4638(7) 0.1690(5) 0.5812(5)
Br7 Br 0.01597(16) 0.06179(12) 0.70118(14)
O17 O 0.2002(5) 0.3062(3) 0.2977(3)
Zn8 Zn 0.62661(8) 0.27412(6) 0.82705(4)
Zn10 Zn 0.64595(8) 0.24962(6) 0.61996(5)
O1 O 0.2998(5) 0.8062(3) 0.2023(3)
C1 C 0.3119(7) 0.8129(5) 0.2571(4)
Br2 Br 0.60515(15) 0.49785(8) 0.64377(6)
Br3 Br 0.70700(10) 0.89888(8) 0.51993(7)
Br4 Br 0.46298(18) 0.94647(12) 0.27955(15)
C22 C 0.1275(4) 0.9474(4) 0.2965(3)
C23 C 0.1693(5) 0.8833(3) 0.2815(3)
H19 H 0.1287 0.8417 0.2739
C24 C 0.2719(5) 0.8814(3) 0.2778(3)
C25 C 0.3326(4) 0.9437(4) 0.2891(3)
C27 C 0.4111(10) 0.6378(6) 0.4503(5)
C28 C 0.4595(8) 0.5664(5) 0.4732(4)
C29 C 0.5013(9) 0.5615(6) 0.5345(5)
H21 H 0.5012 0.6020 0.5584
C30 C 0.5432(8) 0.4969(6) 0.5607(4)
C31 C 0.4683(8) 0.8631(5) 0.4335(4)
C32 C 0.4892(7) 0.9332(5) 0.4678(4)
C33 C 0.5826(8) 0.9572(5) 0.5053(5)
O4 O 0.3576(5) 0.7667(3) 0.2950(3)
O5 O 0.3777(5) 0.8413(3) 0.4219(3)
O6 O 0.5362(7) 0.8310(5) 0.4188(5)
O7 O 0.4310(6) 0.6597(4) 0.4016(3)
O8 O 0.3628(9) 0.6722(5) 0.4790(4)
Zn2 Zn 0.35405(8) 0.75038(6) 0.38004(5)
Br5 Br 0.39485(15) 0.50215(8) 0.35623(6)
C35 C 0.5889(10) 0.3622(6) 0.5497(5)
C36 C 0.5405(8) 0.4336(5) 0.5268(4)
C37 C 0.4987(9) 0.4385(6) 0.4655(5)
H23 H 0.4988 0.3980 0.4416
C38 C 0.4568(8) 0.5031(6) 0.4393(4)
O9 O 0.5690(6) 0.3403(4) 0.5984(3)
O10 O 0.6372(9) 0.3278(5) 0.5210(4)
C42 C 0.4077(7) 0.9784(5) 0.4649(4)
H24 H 0.3425 0.9649 0.4415
H25 H 0.0233 0.7771 0.5604
C54 C 0.1418(11) 0.7979(8) 0.4303(7)
H33 H 0.0943 0.7896 0.4545
H34 H 0.2119 0.7957 0.4549
H35 H 0.1291 0.8448 0.4120
N9 N 0.0331(3) 0.7125(4) 0.3570(3)
C55 C 0.1280(4) 0.7462(4) 0.3872(3)
N10 N 0.2066(3) 0.7221(4) 0.3604(3)
C56 C 0.1602(5) 0.6734(5) 0.3137(4)
H36 H 0.1942 0.6496 0.2888
C57 C 0.0530(5) 0.6675(5) 0.3116(3)
H37 H 0.0043 0.6391 0.2851
N13 N 0.0217(4) 0.7546(4) 0.7088(2)
Zn6 Zn 0.37339(8) 0.72588(6) 0.17295(4)
H1 H 0.9767 0.2229 0.4396
C12 C 0.8582(11) 0.2021(8) 0.5697(7)
H9 H 0.9057 0.2104 0.5455
H10 H 0.7881 0.2043 0.5451
H11 H 0.8709 0.1552 0.5880
N3 N 0.9669(3) 0.2875(4) 0.6430(3)
C13 C 0.8720(4) 0.2538(4) 0.6128(3)
N4 N 0.7934(3) 0.2779(4) 0.6396(3)
C14 C 0.8398(5) 0.3266(5) 0.6863(4)
H12 H 0.8058 0.3504 0.7112
C15 C 0.9470(5) 0.3325(5) 0.6884(3)
H13 H 0.9957 0.3609 0.7149
O13 O 0.7002(5) 0.1938(3) 0.7977(3)
C43 C 0.6881(7) 0.1871(5) 0.7429(4)
Br8 Br 0.53702(18) 0.05353(12) 0.72045(15)
C64 C 0.8725(4) 0.0526(4) 0.7035(3)
C65 C 0.8307(5) 0.1167(3) 0.7185(3)
H43 H 0.8713 0.1583 0.7261
C66 C 0.7281(5) 0.1186(3) 0.7222(3)
C67 C 0.6674(4) 0.0563(4) 0.7109(3)
O16 O 0.6424(5) 0.2333(3) 0.7050(3)
N14 N 0.9783(4) 0.2454(4) 0.2912(2)
Br1 Br 0.98403(16) 0.93821(12) 0.29882(14)
C44 C 0.9609(8) 0.8051(7) 0.5467(5)
H26 H 0.9588 0.8255 0.5084
H27 H 0.9600 0.8433 0.5746
N7 N 0.8312(5) 0.7406(4) 0.58995(18)
C45 C 0.8738(4) 0.7601(3) 0.5420(2)
N8 N 0.8111(5) 0.7285(4) 0.48900(18)
C46 C 0.7296(5) 0.6895(4) 0.5042(3)
H28 H 0.6773 0.6636 0.4779
C47 C 0.7420(5) 0.6970(4) 0.5666(3)
H29 H 0.6993 0.6768 0.5883
C48 C 0.8258(5) 0.7330(4) 0.4333(2)
C49 C 0.7424(4) 0.7487(4) 0.3849(3)
H30 H 0.6769 0.7573 0.3907
C50 C 0.7569(4) 0.7517(5) 0.3277(2)
C51 C 0.8548(5) 0.7389(5) 0.3189(2)
H31 H 0.8645 0.7409 0.2806
C52 C 0.9382(4) 0.7231(4) 0.3673(3)
C53 C 0.9237(4) 0.7202(4) 0.4245(2)
H32 H 0.9795 0.7096 0.4569
C58 C 0.5527(8) 0.6631(6) 0.2957(5)
H38 H 0.5534 0.6799 0.3349
H39 H 0.4837 0.6477 0.2754
H40 H 0.6000 0.6231 0.2988
C59 C 0.5830(5) 0.7185(4) 0.2641(3)
N11 N 0.5217(4) 0.7454(4) 0.2088(2)
C60 C 0.5781(6) 0.8020(4) 0.1899(3)
H41 H 0.5559 0.8291 0.1551
C61 C 0.6743(5) 0.8101(4) 0.2336(3)
H42 H 0.7262 0.8434 0.2324
N12 N 0.6774(4) 0.7585(4) 0.2794(3)
C62 C 0.8540(11) 0.9163(7) 0.6751(5)
C63 C 0.8118(6) 0.9903(3) 0.6922(3)
C68 C 0.7093(6) 0.9922(3) 0.6959(3)
H44 H 0.6686 0.9505 0.6883
O14 O 0.8085(6) 0.8635(5) 0.6918(3)
O15 O 0.9262(8) 0.9140(5) 0.6512(5)
Zn3 Zn 0.87339(8) 0.77412(6) 0.67295(4)
O18 O 0.7998(5) 0.6938(3) 0.7023(3)
H39_2 H 0.0163 0.1477 0.2246
C1_2 C 0.1881(7) 0.3129(5) 0.2429(4)
Br1_2 Br 0.51597(16) 0.43821(12) 0.20118(14)
Br4_2 Br 0.03702(18) 0.44647(12) 0.22045(15)
C2_2 C 0.4609(8) 0.6949(7) 0.0467(5)
H1_2 H 0.5233 0.7229 0.0604
H2_2 H 0.4588 0.6745 0.0084
H3_2 H 0.4600 0.6567 0.0746
N1_2 N 0.3312(5) 0.7594(4) 0.08995(18)
C3_2 C 0.3738(4) 0.7399(3) 0.0420(2)
C4_2 C 0.2296(5) 0.8105(4) 0.0042(3)
C5_2 C 0.2420(5) 0.8030(4) 0.0666(3)
H5_2 H 0.1993 0.8232 0.0883
C20_2 C 0.3540(11) 0.5837(7) 0.1751(5)
C21_2 C 0.3118(6) 0.5097(3) 0.1922(3)
C22_2 C 0.3725(4) 0.4474(4) 0.2035(3)
C23_2 C 0.3307(5) 0.3833(3) 0.2185(3)
H19_2 H 0.3713 0.3417 0.2261
C24_2 C 0.2281(5) 0.3814(3) 0.2222(3)
C25_2 C 0.1674(4) 0.4437(4) 0.2109(3)
C26_2 C 0.2093(6) 0.5078(3) 0.1959(3)
H20_2 H 0.1686 0.5495 0.1883
C27_2 C 0.0889(10) 0.1378(6) 0.0497(5)
C28_2 C 0.0405(8) 0.0664(5) 0.0268(4)
C31_2 C 0.0317(8) 0.3631(5) 0.0665(4)
C32_2 C 0.0108(7) 0.4332(5) 0.0322(4)
O2_2 O 0.3085(6) 0.6365(5) 0.1918(3)
O3_2 O 0.4262(8) 0.5860(5) 0.1512(5)
O4_2 O 0.1424(5) 0.2667(3) 0.2050(3)
O5_2 O 0.1223(5) 0.3413(3) 0.0781(3)
O7_2 O 0.0690(6) 0.1597(4) 0.0984(3)
O8_2 O 0.1372(9) 0.1722(5) 0.0210(4)
Zn2_2 Zn 0.14595(8) 0.25038(6) 0.11996(5)
Br5_2 Br 0.10515(15) 0.00215(8) 0.14377(6)
C38_2 C 0.0432(8) 0.0031(6) 0.0607(4)
Br6_2 Br 0.20700(10) 0.60112(8) 0.01993(7)
C41_2 C 0.0826(8) 0.5428(5) 0.0053(5)
C42_2 C 0.0923(7) 0.4784(5) 0.0351(4)
H24_2 H 0.1575 0.4649 0.0585
N8_2 N 0.6889(5) 0.2285(4) 0.01100(18)
H28_2 H 0.8227 0.1636 0.0221
C48_2 C 0.6742(5) 0.2330(4) 0.0667(2)
C49_2 C 0.7576(4) 0.2487(4) 0.1151(3)
H30_2 H 0.8231 0.2573 0.1093
C50_2 C 0.7431(4) 0.2517(5) 0.1723(2)
C51_2 C 0.6452(5) 0.2389(5) 0.1811(2)
H31_2 H 0.6355 0.2409 0.2194
C52_2 C 0.5618(4) 0.2231(4) 0.1327(3)
C53_2 C 0.5763(4) 0.2202(4) 0.0755(2)
H32_2 H 0.5205 0.2096 0.0431
C54_2 C 0.3582(11) 0.2979(8) 0.0697(7)
H33_2 H 0.4057 0.2896 0.0455
H34_2 H 0.2881 0.2957 0.0451
H35_2 H 0.3709 0.3448 0.0880
N9_2 N 0.4669(3) 0.2125(4) 0.1430(3)
C55_2 C 0.3720(4) 0.2462(4) 0.1128(3)
N10_2 N 0.2934(3) 0.2221(4) 0.1396(3)
C56_2 C 0.3398(5) 0.1734(5) 0.1863(4)
H36_2 H 0.3058 0.1496 0.2112
C57_2 C 0.4470(5) 0.1675(5) 0.1884(3)
H37_2 H 0.4957 0.1391 0.2149
C58_2 C 0.9473(8) 0.1631(6) 0.2043(5)
H38_2 H 0.9466 0.1799 0.1651
H40_2 H 0.9000 0.1231 0.2012
C59_2 C 0.9170(5) 0.2185(4) 0.2359(3)
C60_2 C 0.9219(6) 0.3020(4) 0.3101(3)
H41_2 H 0.9441 0.3291 0.3449
C61_2 C 0.8257(5) 0.3101(4) 0.2664(3)
H42_2 H 0.7738 0.3434 0.2676
N12_2 N 0.8226(4) 0.2585(4) 0.2206(3)
N2_2 N 0.3111(5) 0.7715(4) 0.98900(18)
H4_2 H 0.1773 0.8364 0.9779
C6_2 C 0.3258(5) 0.7670(4) 0.9333(2)
C7_2 C 0.2424(4) 0.7513(4) 0.8849(3)
H6_2 H 0.1769 0.7427 0.8907
C8_2 C 0.2569(4) 0.7483(5) 0.8277(2)
C9_2 C 0.3548(5) 0.7611(5) 0.8189(2)
H7_2 H 0.3645 0.7591 0.7806
C10_2 C 0.4382(4) 0.7769(4) 0.8673(3)
C11_2 C 0.4237(4) 0.7798(4) 0.9245(2)
H8_2 H 0.4795 0.7904 0.9569
C12_2 C 0.6418(11) 0.7021(8) 0.9303(7)
H9_2 H 0.5943 0.7104 0.9545
H10_2 H 0.7119 0.7043 0.9549
H11_2 H 0.6291 0.6552 0.9120
N3_2 N 0.5331(3) 0.7875(4) 0.8570(3)
C13_2 C 0.6280(4) 0.7538(4) 0.8872(3)
N4_2 N 0.7066(3) 0.7779(4) 0.8604(3)
C14_2 C 0.6602(5) 0.8266(5) 0.8137(4)
H12_2 H 0.6942 0.8504 0.7888
C15_2 C 0.5530(5) 0.8325(5) 0.8116(3)
H13_2 H 0.5043 0.8609 0.7851
C16_2 C 0.0527(8) 0.8369(6) 0.7957(5)
H14_2 H 0.0534 0.8201 0.8349
H16_2 H 0.1000 0.8769 0.7988
C17_2 C 0.0830(5) 0.7815(4) 0.7641(3)
C18_2 C 0.0781(6) 0.6980(4) 0.6899(3)
H17_2 H 0.0559 0.6709 0.6551
C19_2 C 0.1743(5) 0.6899(4) 0.7336(3)
H18_2 H 0.2262 0.6566 0.7324
N6_2 N 0.1774(4) 0.7415(4) 0.7794(3)
O12_2 O 0.0362(7) 0.6690(5) 0.9188(5)
C43_2 C 0.8119(7) 0.6871(5) 0.7571(4)
Br7_2 Br 0.48403(16) 0.56179(12) 0.79882(14)
Br8_2 Br 0.96298(18) 0.55353(12) 0.77955(15)
C44_2 C 0.5391(8) 0.3051(7) 0.9533(5)
H25_2 H 0.4767 0.2771 0.9396
H26_2 H 0.5412 0.3255 0.9916
H27_2 H 0.5400 0.3433 0.9254
N7_2 N 0.6688(5) 0.2406(4) 0.91005(18)
C45_2 C 0.6262(4) 0.2601(3) 0.9580(2)
C46_2 C 0.7704(5) 0.1895(4) 0.9958(3)
C47_2 C 0.7580(5) 0.1970(4) 0.9334(3)
H29_2 H 0.8007 0.1768 0.9117
C62_2 C 0.6460(11) 0.4163(7) 0.8249(5)
C63_2 C 0.6882(6) 0.4903(3) 0.8078(3)
C64_2 C 0.6275(4) 0.5526(4) 0.7965(3)
C65_2 C 0.6693(5) 0.6167(3) 0.7815(3)
H43_2 H 0.6287 0.6583 0.7739
C66_2 C 0.7719(5) 0.6186(3) 0.7778(3)
C67_2 C 0.8326(4) 0.5563(4) 0.7891(3)
C68_2 C 0.7907(6) 0.4922(3) 0.8041(3)
H44_2 H 0.8314 0.4505 0.8117
O14_2 O 0.6915(6) 0.3635(5) 0.8082(3)
O15_2 O 0.5738(8) 0.4140(5) 0.8488(5)
O16_2 O 0.8576(5) 0.7333(3) 0.7950(3)
Zn4 Zn 0.85405(8) 0.74962(6) 0.88004(5)
O19 O 0.8777(5) 0.6587(3) 0.9219(3)
O20 O 0.9310(6) 0.8403(4) 0.9016(3)
C37_2 C 0.0013(9) 0.9385(6) 0.0345(5)
H23_2 H 0.0012 0.8980 0.0584
O6_2 O 0.9638(7) 0.3310(5) 0.0812(5)
Br3_2 Br 0.79300(10) 0.39888(8) 0.98007(7)
H15_2 H 0.9837 0.8523 0.7754
C29_2 C 0.9987(9) 0.0615(6) 0.9655(5)
H21_2 H 0.9988 0.1020 0.9416
C33_2 C 0.9174(8) 0.4572(5) 0.9947(5)
C34_2 C 0.9077(7) 0.5216(5) 0.9649(4)
H22_2 H 0.8425 0.5351 0.9415
C39_2 C 0.9683(8) 0.6369(5) 0.9335(4)
C40_2 C 0.9892(7) 0.5668(5) 0.9678(4)
Br2_2 Br 0.89485(15) 0.99785(8) 0.85623(6)
C30_2 C 0.9568(8) 0.9969(6) 0.9393(4)
C35_2 C 0.9111(10) 0.8622(6) 0.9503(5)
C36_2 C 0.9595(8) 0.9336(5) 0.9732(4)
O10_2 O 0.8628(9) 0.8278(5) 0.9790(4)
loop_
_geom_bond_atom_site_label_1
_geom_bond_atom_site_label_2
_geom_bond_site_symmetry_1
_geom_bond_site_symmetry_2
H2 C2 1_555 1_555
H3 C2 1_555 1_555
N1 C3 1_555 1_555
C3 C2 1_555 1_555
N2 C3 1_555 1_555
C4 N2 1_555 1_555
H4 C4 1_555 1_555
C5 N1 1_555 1_555
H5 C5 1_555 1_555
C6 N2 1_555 1_555
C7 C6 1_555 1_555
H6 C7 1_555 1_555
C8 C7 1_555 1_555
C9 C8 1_555 1_555
H7 C9 1_555 1_555
C10 C9 1_555 1_555
C11 C6 1_555 1_555
H8 C11 1_555 1_555
C16 H14 1_555 1_555
H15 C16 1_555 1_555
H16 C16 1_555 1_555
C17 C16 1_555 1_555
N5 C17 1_555 1_555
C18 N5 1_555 1_555
H17 C18 1_555 1_555
C19 C18 1_555 1_555
H18 C19 1_555 1_555
N6 C8 1_555 1_555
C20 C21 1_555 1_555
C26 C21 1_555 1_555
H20 C26 1_555 1_555
C34 H22 1_555 1_555
O2 C20 1_555 1_555
O3 C20 1_555 1_555
Zn1 N1 1_555 1_555
Br6 C41 1_555 1_555
C39 C40 1_555 1_555
C40 C34 1_555 1_555
C41 C40 1_555 1_555
O11 C39 1_555 1_555
O12 C39 1_555 1_555
O17 Zn1 1_555 1_555
Zn8 N5 1_555 1_555
Zn10 O11 1_555 1_555
C4 C5 1_555 1_555
C10 C11 1_555 1_555
C17 N6 1_555 1_555
C19 N6 1_555 1_555
O2 Zn1 1_555 1_555
O1 C1 1_555 1_555
C1 C24 1_555 1_555
Br2 C30 1_555 1_555
Br3 C33 1_555 1_555
Br4 C25 1_555 1_555
C22 C23 1_555 1_555
C23 H19 1_555 1_555
C24 C23 1_555 1_555
C25 C24 1_555 1_555
C27 C28 1_555 1_555
C28 C29 1_555 1_555
C29 H21 1_555 1_555
C30 C29 1_555 1_555
C31 C32 1_555 1_555
C32 C33 1_555 1_555
O4 C1 1_555 1_555
O5 C31 1_555 1_555
O6 C31 1_555 1_555
O7 C27 1_555 1_555
O8 C27 1_555 1_555
Zn2 O4 1_555 1_555
Br5 C38 1_555 1_555
C35 C36 1_555 1_555
C36 C30 1_555 1_555
C37 C36 1_555 1_555
H23 C37 1_555 1_555
C38 C28 1_555 1_555
O9 C35 1_555 1_555
O10 C35 1_555 1_555
C42 C32 1_555 1_555
H24 C42 1_555 1_555
C54 H33 1_555 1_555
H34 C54 1_555 1_555
H35 C54 1_555 1_555
C55 C54 1_555 1_555
N10 Zn2 1_555 1_555
C56 N10 1_555 1_555
H36 C56 1_555 1_555
C57 N9 1_555 1_555
H37 C57 1_555 1_555
Zn6 O1 1_555 1_555
Zn10 O9 1_555 1_555
O5 Zn2 1_555 1_555
O7 Zn2 1_555 1_555
C37 C38 1_555 1_555
N9 C55 1_555 1_555
C55 N10 1_555 1_555
C56 C57 1_555 1_555
C12 H9 1_555 1_555
H10 C12 1_555 1_555
H11 C12 1_555 1_555
C13 C12 1_555 1_555
N4 C13 1_555 1_555
C14 N4 1_555 1_555
H12 C14 1_555 1_555
C15 N3 1_555 1_555
H13 C15 1_555 1_555
O13 C43 1_555 1_555
C43 C66 1_555 1_555
Br8 C67 1_555 1_555
C64 C65 1_555 1_555
C65 H43 1_555 1_555
C66 C65 1_555 1_555
C67 C66 1_555 1_555
O16 C43 1_555 1_555
Zn10 N4 1_555 1_555
Zn8 O13 1_555 1_555
N3 C13 1_555 1_555
C14 C15 1_555 1_555
O16 Zn10 1_555 1_555
H26 C44 1_555 1_555
H27 C44 1_555 1_555
N7 C45 1_555 1_555
C45 C44 1_555 1_555
N8 C45 1_555 1_555
C46 N8 1_555 1_555
H28 C46 1_555 1_555
C47 N7 1_555 1_555
H29 C47 1_555 1_555
C48 N8 1_555 1_555
C49 C48 1_555 1_555
H30 C49 1_555 1_555
C50 C49 1_555 1_555
C51 C50 1_555 1_555
H31 C51 1_555 1_555
C52 C51 1_555 1_555
C53 C48 1_555 1_555
H32 C53 1_555 1_555
C58 H38 1_555 1_555
H39 C58 1_555 1_555
H40 C58 1_555 1_555
C59 C58 1_555 1_555
N11 C59 1_555 1_555
C60 N11 1_555 1_555
H41 C60 1_555 1_555
C61 C60 1_555 1_555
H42 C61 1_555 1_555
N12 C50 1_555 1_555
C62 C63 1_555 1_555
C68 C63 1_555 1_555
H44 C68 1_555 1_555
O14 C62 1_555 1_555
O15 C62 1_555 1_555
Zn3 N7 1_555 1_555
O18 Zn3 1_555 1_555
Zn6 N11 1_555 1_555
C46 C47 1_555 1_555
C52 C53 1_555 1_555
C59 N12 1_555 1_555
C61 N12 1_555 1_555
O14 Zn3 1_555 1_555
O17 C1_2 1_555 1_555
C1_2 C24_2 1_555 1_555
Br1_2 C22_2 1_555 1_555
Br4_2 C25_2 1_555 1_555
C2_2 H1_2 1_555 1_555
H2_2 C2_2 1_555 1_555
H3_2 C2_2 1_555 1_555
N1_2 C3_2 1_555 1_555
C3_2 C2_2 1_555 1_555
C5_2 N1_2 1_555 1_555
H5_2 C5_2 1_555 1_555
C20_2 C21_2 1_555 1_555
C21_2 C22_2 1_555 1_555
C22_2 C23_2 1_555 1_555
C23_2 H19_2 1_555 1_555
C24_2 C23_2 1_555 1_555
C25_2 C24_2 1_555 1_555
C26_2 C21_2 1_555 1_555
H20_2 C26_2 1_555 1_555
C27_2 C28_2 1_555 1_555
C31_2 C32_2 1_555 1_555
O2_2 C20_2 1_555 1_555
O3_2 C20_2 1_555 1_555
O4_2 C1_2 1_555 1_555
O5_2 C31_2 1_555 1_555
O7_2 C27_2 1_555 1_555
O8_2 C27_2 1_555 1_555
Zn6 N1_2 1_555 1_555
Zn2_2 O4_2 1_555 1_555
Br5_2 C38_2 1_555 1_555
C38_2 C28_2 1_555 1_555
Br6_2 C41_2 1_555 1_555
C42_2 C32_2 1_555 1_555
H24_2 C42_2 1_555 1_555
C48_2 N8_2 1_555 1_555
C49_2 C48_2 1_555 1_555
H30_2 C49_2 1_555 1_555
C50_2 C49_2 1_555 1_555
C51_2 C50_2 1_555 1_555
H31_2 C51_2 1_555 1_555
C52_2 C51_2 1_555 1_555
C53_2 C48_2 1_555 1_555
H32_2 C53_2 1_555 1_555
C54_2 H33_2 1_555 1_555
H34_2 C54_2 1_555 1_555
H35_2 C54_2 1_555 1_555
N9_2 C52_2 1_555 1_555
C55_2 C54_2 1_555 1_555
N10_2 Zn2_2 1_555 1_555
C56_2 N10_2 1_555 1_555
H36_2 C56_2 1_555 1_555
C57_2 N9_2 1_555 1_555
H37_2 C57_2 1_555 1_555
C58_2 H38_2 1_555 1_555
H40_2 C58_2 1_555 1_555
C59_2 C58_2 1_555 1_555
N14 C59_2 1_555 1_555
C60_2 N14 1_555 1_555
H41_2 C60_2 1_555 1_555
C61_2 C60_2 1_555 1_555
H42_2 C61_2 1_555 1_555
N12_2 C50_2 1_555 1_555
C4_2 C5_2 1_555 1_555
C25_2 C26_2 1_555 1_555
O2_2 Zn6 1_555 1_555
O5_2 Zn2_2 1_555 1_555
O7_2 Zn2_2 1_555 1_555
C41_2 C42_2 1_555 1_555
C52_2 C53_2 1_555 1_555
N9_2 C55_2 1_555 1_555
C55_2 N10_2 1_555 1_555
C56_2 C57_2 1_555 1_555
C59_2 N12_2 1_555 1_555
C61_2 N12_2 1_555 1_555
C6_2 N2_2 1_555 1_555
C7_2 C6_2 1_555 1_555
H6_2 C7_2 1_555 1_555
C8_2 C7_2 1_555 1_555
C9_2 C8_2 1_555 1_555
H7_2 C9_2 1_555 1_555
C10_2 C9_2 1_555 1_555
C11_2 C6_2 1_555 1_555
H8_2 C11_2 1_555 1_555
C12_2 H9_2 1_555 1_555
H10_2 C12_2 1_555 1_555
H11_2 C12_2 1_555 1_555
N3_2 C10_2 1_555 1_555
C13_2 C12_2 1_555 1_555
N4_2 C13_2 1_555 1_555
C14_2 N4_2 1_555 1_555
H12_2 C14_2 1_555 1_555
C15_2 N3_2 1_555 1_555
H13_2 C15_2 1_555 1_555
C16_2 H14_2 1_555 1_555
H16_2 C16_2 1_555 1_555
C17_2 C16_2 1_555 1_555
N13 C17_2 1_555 1_555
C18_2 N13 1_555 1_555
H17_2 C18_2 1_555 1_555
C19_2 C18_2 1_555 1_555
H18_2 C19_2 1_555 1_555
N6_2 C8_2 1_555 1_555
O18 C43_2 1_555 1_555
C43_2 C66_2 1_555 1_555
Br7_2 C64_2 1_555 1_555
Br8_2 C67_2 1_555 1_555
C44_2 H25_2 1_555 1_555
H26_2 C44_2 1_555 1_555
H27_2 C44_2 1_555 1_555
N7_2 C45_2 1_555 1_555
C45_2 C44_2 1_555 1_555
C47_2 N7_2 1_555 1_555
H29_2 C47_2 1_555 1_555
C62_2 C63_2 1_555 1_555
C63_2 C64_2 1_555 1_555
C64_2 C65_2 1_555 1_555
C65_2 H43_2 1_555 1_555
C66_2 C65_2 1_555 1_555
C67_2 C66_2 1_555 1_555
C68_2 C63_2 1_555 1_555
H44_2 C68_2 1_555 1_555
O14_2 C62_2 1_555 1_555
O15_2 C62_2 1_555 1_555
O16_2 C43_2 1_555 1_555
Zn8 N7_2 1_555 1_555
Zn4 N4_2 1_555 1_555
O19 Zn4 1_555 1_555
O20 Zn4 1_555 1_555
C10_2 C11_2 1_555 1_555
N3_2 C13_2 1_555 1_555
C14_2 C15_2 1_555 1_555
C17_2 N6_2 1_555 1_555
C19_2 N6_2 1_555 1_555
C46_2 C47_2 1_555 1_555
C67_2 C68_2 1_555 1_555
O14_2 Zn8 1_555 1_555
O16_2 Zn4 1_555 1_555
H23_2 C37_2 1_555 1_555
Br3_2 C33_2 1_555 1_555
C29_2 H21_2 1_555 1_555
C33_2 C34_2 1_555 1_555
C34_2 H22_2 1_555 1_555
C39_2 C40_2 1_555 1_555
C40_2 C34_2 1_555 1_555
O19 C39_2 1_555 1_555
Br2_2 C30_2 1_555 1_555
C35_2 C36_2 1_555 1_555
C36_2 C30_2 1_555 1_555
O20 C35_2 1_555 1_555
O10_2 C35_2 1_555 1_555

#END
