
###############################################################################
#
# This file contains modified crystal structure data generated from the
# MOF subset of the Cambridge Structural Database (CSD) v543 
# hosted by the Cambridge Crystallographic Data Centre (CCDC).
#
# This work is licensed under the Creative Commons
# Attribution-NonCommercial-ShareAlike 4.0 International License.
# To view a copy of this license, visit
# http://creativecommons.org/licenses/by-nc-sa/4.0/
# or send a letter to
# Creative Commons, PO Box 1866, Mountain View, CA 94042, USA.
#
# CIF created using the CSD Python API on 29 September 2022
# The structure has been converted into the P1 space group
# The structure has a 3D framework
# The original CSD entry MOXPOF is in the tetragonal crystal system
# The framework has been calculated to contain at least 10.0% void space
# The void calculation uses a probe of radius 1.32A, grid spacing 0.4
# The framework is charged, counterions have been retained in the structure
#
###############################################################################

data_MOXPOF
_chemical_formula_moiety         '(C98 H80 B2 Cu2 F8 N8 O8)n'
_symmetry_cell_setting           triclinic
_symmetry_space_group_name_H-M   'P 1'
_symmetry_Int_Tables_number      1
_space_group_name_Hall           'P 1'
loop_
_symmetry_equiv_pos_site_id
_symmetry_equiv_pos_as_xyz
1 x,y,z
_cell_length_a                   15.2141(1)
_cell_length_b                   15.2141(1)
_cell_length_c                   13.2235(2)
_cell_angle_alpha                90
_cell_angle_beta                 90
_cell_angle_gamma                90
_cell_volume                     3060.83
loop_
_atom_site_label
_atom_site_type_symbol
_atom_site_fract_x
_atom_site_fract_y
_atom_site_fract_z
Cu2 Cu 0.2500 0.7500 0.0000
N2 N 0.1794(7) 0.6568(7) 0.0749(7)
C14 C 0.1629(11) 0.5793(9) 0.0316(12)
C17 C 0.1044(10) 0.5185(9) 0.0700(10)
H14 H 0.0954 0.4649 0.0362
C20 C 0.0590(8) 0.5366(7) 0.1584(8)
C23 C 0.0769(9) 0.6175(8) 0.2040(9)
H17 H 0.0482 0.6331 0.2643
C26 C 0.1361(9) 0.6741(8) 0.1613(8)
H20 H 0.1471 0.7278 0.1940
C32 C 0.0125(9) 0.3834(9) 0.2009(9)
H23 H 0.0596 0.3620 0.1620
C45 C 0.0028(8) 0.0762(8) 0.7418(9)
H33 H 0.0632 0.0892 0.7410
H12 H 0.0654 0.8072 0.0285
H13 H 0.4346 0.6928 0.0285
N1 N 0.3206(7) 0.8432(7) 0.0749(7)
C1 C 0.3371(11) 0.9207(9) 0.0316(12)
C2 C 0.3956(10) 0.9815(9) 0.0700(10)
C3 C 0.4410(8) 0.9634(7) 0.1584(8)
C4 C 0.4231(9) 0.8825(8) 0.2040(9)
H3 H 0.4518 0.8669 0.2643
C5 C 0.3639(9) 0.8259(8) 0.1613(8)
H4 H 0.3529 0.7722 0.1940
C11 C 0.5762(8) 0.9972(8) 0.2582(9)
H8 H 0.5892 0.9368 0.2590
H15 H 0.9649 0.9046 0.9638
C33 C 0.8834(9) 0.9875(9) 0.7991(9)
H24 H 0.8620 0.9404 0.8380
Cu2_2 Cu 0.2500 0.7500 1.0000
H11 H 0.1928 0.5654 0.9715
N3 N 0.1568(7) 0.8206(7) 0.9251(7)
C15 C 0.0793(9) 0.8371(11) 0.9684(12)
C18 C 0.0185(9) 0.8956(10) 0.9300(10)
C21 C 0.0366(7) 0.9410(8) 0.8416(8)
C24 C 0.1175(8) 0.9231(9) 0.7960(9)
H18 H 0.1331 0.9518 0.7357
C27 C 0.1741(8) 0.8639(9) 0.8387(8)
H21 H 0.2278 0.8529 0.8060
O1 O 0.6555(6) 0.2052(5) 0.3647(7)
H2 H 0.4046 0.0351 0.0362
C6 C 0.5032(8) 0.0265(9) 0.2046(9)
C7 C 0.4875(9) 0.1166(9) 0.2009(9)
H5 H 0.4404 0.1380 0.1620
C8 C 0.5397(9) 0.1753(8) 0.2534(9)
H6 H 0.5278 0.2359 0.2508
C9 C 0.6103(8) 0.1440(7) 0.3103(8)
C10 C 0.6302(8) 0.0545(8) 0.3102(9)
H7 H 0.6798 0.0334 0.3452
C12 C 0.7197(7) 0.1730(7) 0.4347(8)
H9 H 0.7697 0.1479 0.3981
H10 H 0.6939 0.1270 0.4773
C13 C 0.7500 0.2500 0.5000
O2 O 0.8445(6) 0.2948(5) 0.3647(7)
O3 O 0.7948(5) 0.1555(6) 0.6353(7)
O4 O 0.7052(5) 0.3445(6) 0.6353(7)
N4 N 0.3432(7) 0.6794(7) 0.9251(7)
C16 C 0.4207(9) 0.6629(11) 0.9684(12)
C19 C 0.4815(9) 0.6044(10) 0.9300(10)
H16 H 0.5351 0.5954 0.9638
C22 C 0.4634(7) 0.5590(8) 0.8416(8)
C25 C 0.3825(8) 0.5769(9) 0.7960(9)
H19 H 0.3669 0.5482 0.7357
C28 C 0.3259(8) 0.6361(9) 0.8387(8)
H22 H 0.2722 0.6471 0.8060
C29 C 0.9968(8) 0.4735(9) 0.2046(9)
C30 C 0.9735(9) 0.0032(8) 0.7954(9)
C31 C 0.5265(9) 0.4968(8) 0.7954(9)
C34 C 0.6166(9) 0.5125(9) 0.7991(9)
H25 H 0.6380 0.5596 0.8380
C35 C 0.9603(9) 0.3247(8) 0.2534(9)
C36 C 0.8247(8) 0.0397(9) 0.7466(9)
C37 C 0.6753(8) 0.4603(9) 0.7466(9)
H26 H 0.9722 0.2641 0.2508
H27 H 0.7641 0.0278 0.7492
H28 H 0.7359 0.4722 0.7492
C38 C 0.8897(8) 0.3560(7) 0.3103(8)
C39 C 0.8560(7) 0.1103(8) 0.6897(8)
C40 C 0.6440(7) 0.3897(8) 0.6897(8)
C41 C 0.8698(8) 0.4455(8) 0.3102(9)
C42 C 0.9455(8) 0.1302(8) 0.6898(9)
C43 C 0.5545(8) 0.3698(8) 0.6898(9)
H29 H 0.8202 0.4666 0.3452
H30 H 0.9666 0.1798 0.6548
H31 H 0.5334 0.3202 0.6548
C44 C 0.9238(8) 0.5028(8) 0.2582(9)
C46 C 0.4972(8) 0.4238(8) 0.7418(9)
H32 H 0.9108 0.5632 0.2590
H34 H 0.4368 0.4108 0.7410
C47 C 0.7803(7) 0.3270(7) 0.4347(8)
C48 C 0.8270(7) 0.2197(7) 0.5653(8)
C49 C 0.6730(7) 0.2803(7) 0.5653(8)
H35 H 0.7303 0.3521 0.3981
H36 H 0.8521 0.2697 0.6019
H37 H 0.6479 0.2303 0.6019
H38 H 0.8061 0.3730 0.4773
H39 H 0.8730 0.1939 0.5227
H40 H 0.6270 0.3061 0.5227
H1 H 0.3072 0.9346 0.9715
Cu3 Cu 0.7500 0.2500 0.0000
H12_2 H 0.6928 0.0654 0.0285
O1_2 O 0.2948(5) 0.6555(6) 0.3647(7)
N1_2 N 0.6568(7) 0.3206(7) 0.0749(7)
C1_2 C 0.5793(9) 0.3371(11) 0.0316(12)
C2_2 C 0.5185(9) 0.3956(10) 0.0700(10)
H2_2 H 0.4649 0.4046 0.0362
C3_2 C 0.5366(7) 0.4410(8) 0.1584(8)
C4_2 C 0.6175(8) 0.4231(9) 0.2040(9)
H3_2 H 0.6331 0.4518 0.2643
C5_2 C 0.6741(8) 0.3639(9) 0.1613(8)
H4_2 H 0.7278 0.3529 0.1940
C6_2 C 0.4735(9) 0.5032(8) 0.2046(9)
C7_2 C 0.3834(9) 0.4875(9) 0.2009(9)
H5_2 H 0.3620 0.4404 0.1620
C8_2 C 0.3247(8) 0.5397(9) 0.2534(9)
H6_2 H 0.2641 0.5278 0.2508
C9_2 C 0.3560(7) 0.6103(8) 0.3103(8)
C10_2 C 0.4455(8) 0.6302(8) 0.3102(9)
H7_2 H 0.4666 0.6798 0.3452
C11_2 C 0.5028(8) 0.5762(8) 0.2582(9)
H8_2 H 0.5632 0.5892 0.2590
C12_2 C 0.3270(7) 0.7197(7) 0.4347(8)
H9_2 H 0.3521 0.7697 0.3981
H10_2 H 0.3730 0.6939 0.4773
C13_2 C 0.2500 0.7500 0.5000
O2_2 O 0.2052(5) 0.8445(6) 0.3647(7)
O3_2 O 0.3445(6) 0.7948(5) 0.6353(7)
O4_2 O 0.1555(6) 0.7052(5) 0.6353(7)
N5 N 0.8432(7) 0.1794(7) 0.0749(7)
H15_2 H 0.5954 0.9649 0.9638
C29_2 C 0.0265(9) 0.9968(8) 0.2046(9)
C30_2 C 0.4968(8) 0.9735(9) 0.7954(9)
C31_2 C 0.0032(8) 0.5265(9) 0.7954(9)
C33_2 C 0.5125(9) 0.8834(9) 0.7991(9)
H24_2 H 0.5596 0.8620 0.8380
C35_2 C 0.1753(8) 0.9603(9) 0.2534(9)
C36_2 C 0.4603(9) 0.8247(8) 0.7466(9)
C37_2 C 0.0397(9) 0.6753(8) 0.7466(9)
H26_2 H 0.2359 0.9722 0.2508
H27_2 H 0.4722 0.7641 0.7492
H28_2 H 0.0278 0.7359 0.7492
C38_2 C 0.1440(7) 0.8897(8) 0.3103(8)
C39_2 C 0.3897(8) 0.8560(7) 0.6897(8)
C40_2 C 0.1103(8) 0.6440(7) 0.6897(8)
C41_2 C 0.0545(8) 0.8698(8) 0.3102(9)
C42_2 C 0.3698(8) 0.9455(8) 0.6898(9)
C43_2 C 0.1302(8) 0.5545(8) 0.6898(9)
H29_2 H 0.0334 0.8202 0.3452
H30_2 H 0.3202 0.9666 0.6548
H31_2 H 0.1798 0.5334 0.6548
C46_2 C 0.0762(8) 0.4972(8) 0.7418(9)
H34_2 H 0.0892 0.4368 0.7410
C47_2 C 0.1730(7) 0.7803(7) 0.4347(8)
C48_2 C 0.2803(7) 0.8270(7) 0.5653(8)
C49_2 C 0.2197(7) 0.6730(7) 0.5653(8)
H35_2 H 0.1479 0.7303 0.3981
H36_2 H 0.2303 0.8521 0.6019
H37_2 H 0.2697 0.6479 0.6019
H38_2 H 0.1270 0.8061 0.4773
H39_2 H 0.3061 0.8730 0.5227
H40_2 H 0.1939 0.6270 0.5227
C14_2 C 0.9207(9) 0.1629(11) 0.0316(12)
C17_2 C 0.9815(9) 0.1044(10) 0.0700(10)
C20_2 C 0.9634(7) 0.0590(8) 0.1584(8)
C23_2 C 0.8825(8) 0.0769(9) 0.2040(9)
H17_2 H 0.8669 0.0482 0.2643
C26_2 C 0.8259(8) 0.1361(9) 0.1613(8)
H20_2 H 0.7722 0.1471 0.1940
H13_2 H 0.8072 0.4346 0.0285
Cu3_2 Cu 0.7500 0.2500 1.0000
N3_2 N 0.6794(7) 0.1568(7) 0.9251(7)
C15_2 C 0.6629(11) 0.0793(9) 0.9684(12)
C18_2 C 0.6044(10) 0.0185(9) 0.9300(10)
H14_2 H 0.0351 0.0954 0.0362
C21_2 C 0.5590(8) 0.0366(7) 0.8416(8)
C24_2 C 0.5769(9) 0.1175(8) 0.7960(9)
H18_2 H 0.5482 0.1331 0.7357
C27_2 C 0.6361(9) 0.1741(8) 0.8387(8)
H21_2 H 0.6471 0.2278 0.8060
C32_2 C 0.1166(9) 0.0125(9) 0.2009(9)
H23_2 H 0.1380 0.0596 0.1620
C45_2 C 0.4238(8) 0.0028(8) 0.7418(9)
H33_2 H 0.4108 0.0632 0.7410
H1_2 H 0.5654 0.3072 0.9715
N6 N 0.8206(7) 0.3432(7) 0.9251(7)
H11_2 H 0.9346 0.1928 0.9715
C16_2 C 0.8371(11) 0.4207(9) 0.9684(12)
C19_2 C 0.8956(10) 0.4815(9) 0.9300(10)
H16_2 H 0.9046 0.5351 0.9638
C22_2 C 0.9410(8) 0.4634(7) 0.8416(8)
C25_2 C 0.9231(9) 0.3825(8) 0.7960(9)
H19_2 H 0.9518 0.3669 0.7357
C28_2 C 0.8639(9) 0.3259(8) 0.8387(8)
H22_2 H 0.8529 0.2722 0.8060
C34_2 C 0.9875(9) 0.6166(9) 0.7991(9)
H25_2 H 0.9404 0.6380 0.8380
C44_2 C 0.9972(8) 0.9238(8) 0.2582(9)
H32_2 H 0.9368 0.9108 0.2590
B1 B 0.2500 0.2500 0.241(4)
F1 F 0.178(4) 0.218(3) 0.205(5)
F2 F 0.322(4) 0.282(3) 0.205(5)
F3 F 0.282(3) 0.178(4) 0.205(5)
F4 F 0.218(3) 0.322(4) 0.205(5)
B1_2 B 0.7500 0.7500 0.759(4)
F1_2 F 0.822(4) 0.782(3) 0.795(5)
F2_2 F 0.678(4) 0.718(3) 0.795(5)
F3_2 F 0.718(3) 0.822(4) 0.795(5)
F4_2 F 0.782(3) 0.678(4) 0.795(5)
loop_
_geom_bond_atom_site_label_1
_geom_bond_atom_site_label_2
_geom_bond_site_symmetry_1
_geom_bond_site_symmetry_2
Cu2 N2 1_555 1_555
N2 C14 1_555 1_555
C17 C14 1_555 1_555
H14 C17 1_555 1_555
C20 C17 1_555 1_555
C23 C20 1_555 1_555
H17 C23 1_555 1_555
C26 N2 1_555 1_555
H20 C26 1_555 1_555
H23 C32 1_555 1_555
H33 C45 1_555 1_555
C23 C26 1_555 1_555
Cu2 N1 1_555 1_555
N1 C1 1_555 1_555
C2 C1 1_555 1_555
C3 C2 1_555 1_555
C4 C3 1_555 1_555
H3 C4 1_555 1_555
C5 N1 1_555 1_555
H4 C5 1_555 1_555
H8 C11 1_555 1_555
H24 C33 1_555 1_555
C4 C5 1_555 1_555
Cu2_2 N3 1_555 1_555
N3 C15 1_555 1_555
C18 C15 1_555 1_555
C21 C18 1_555 1_555
C24 C21 1_555 1_555
H18 C24 1_555 1_555
C27 N3 1_555 1_555
H21 C27 1_555 1_555
C24 C27 1_555 1_555
O1 C9 1_555 1_555
C7 C6 1_555 1_555
H5 C7 1_555 1_555
C8 C7 1_555 1_555
H6 C8 1_555 1_555
C9 C8 1_555 1_555
C10 C9 1_555 1_555
H7 C10 1_555 1_555
C12 O1 1_555 1_555
H9 C12 1_555 1_555
H10 C12 1_555 1_555
C13 C12 1_555 1_555
Cu2_2 N4 1_555 1_555
O2 C38 1_555 1_555
O3 C39 1_555 1_555
O4 C40 1_555 1_555
N4 C16 1_555 1_555
C19 C16 1_555 1_555
H16 C19 1_555 1_555
C22 C19 1_555 1_555
C25 C22 1_555 1_555
H19 C25 1_555 1_555
C28 N4 1_555 1_555
H22 C28 1_555 1_555
C31 C22 1_555 1_555
C34 C31 1_555 1_555
H25 C34 1_555 1_555
C37 C34 1_555 1_555
H26 C35 1_555 1_555
H27 C36 1_555 1_555
H28 C37 1_555 1_555
C38 C35 1_555 1_555
C39 C36 1_555 1_555
C40 C37 1_555 1_555
C41 C38 1_555 1_555
C42 C39 1_555 1_555
C43 C40 1_555 1_555
H29 C41 1_555 1_555
H30 C42 1_555 1_555
H31 C43 1_555 1_555
C44 C29 1_555 1_555
C46 C31 1_555 1_555
H32 C44 1_555 1_555
H34 C46 1_555 1_555
C47 C13 1_555 1_555
C48 C13 1_555 1_555
C49 C13 1_555 1_555
H35 C47 1_555 1_555
H36 C48 1_555 1_555
H37 C49 1_555 1_555
H38 C47 1_555 1_555
H39 C48 1_555 1_555
H40 C49 1_555 1_555
O2 C47 1_555 1_555
O3 C48 1_555 1_555
O4 C49 1_555 1_555
C25 C28 1_555 1_555
C41 C44 1_555 1_555
C43 C46 1_555 1_555
Cu3 N1_2 1_555 1_555
O1_2 C9_2 1_555 1_555
N1_2 C1_2 1_555 1_555
C2_2 C1_2 1_555 1_555
H2_2 C2_2 1_555 1_555
C3_2 C2_2 1_555 1_555
C4_2 C3_2 1_555 1_555
H3_2 C4_2 1_555 1_555
C5_2 N1_2 1_555 1_555
H4_2 C5_2 1_555 1_555
C6_2 C3_2 1_555 1_555
C7_2 C6_2 1_555 1_555
H5_2 C7_2 1_555 1_555
C8_2 C7_2 1_555 1_555
H6_2 C8_2 1_555 1_555
C9_2 C8_2 1_555 1_555
C10_2 C9_2 1_555 1_555
H7_2 C10_2 1_555 1_555
C11_2 C6_2 1_555 1_555
H8_2 C11_2 1_555 1_555
C12_2 O1_2 1_555 1_555
H9_2 C12_2 1_555 1_555
H10_2 C12_2 1_555 1_555
C13_2 C12_2 1_555 1_555
O2_2 C38_2 1_555 1_555
O3_2 C39_2 1_555 1_555
O4_2 C40_2 1_555 1_555
N5 Cu3 1_555 1_555
C33_2 C30_2 1_555 1_555
H24_2 C33_2 1_555 1_555
C36_2 C33_2 1_555 1_555
H26_2 C35_2 1_555 1_555
H27_2 C36_2 1_555 1_555
H28_2 C37_2 1_555 1_555
C38_2 C35_2 1_555 1_555
C39_2 C36_2 1_555 1_555
C40_2 C37_2 1_555 1_555
C41_2 C38_2 1_555 1_555
C42_2 C39_2 1_555 1_555
C43_2 C40_2 1_555 1_555
H29_2 C41_2 1_555 1_555
H30_2 C42_2 1_555 1_555
H31_2 C43_2 1_555 1_555
C46_2 C31_2 1_555 1_555
H34_2 C46_2 1_555 1_555
C47_2 C13_2 1_555 1_555
C48_2 C13_2 1_555 1_555
C49_2 C13_2 1_555 1_555
H35_2 C47_2 1_555 1_555
H36_2 C48_2 1_555 1_555
H37_2 C49_2 1_555 1_555
H38_2 C47_2 1_555 1_555
H39_2 C48_2 1_555 1_555
H40_2 C49_2 1_555 1_555
C4_2 C5_2 1_555 1_555
C10_2 C11_2 1_555 1_555
O2_2 C47_2 1_555 1_555
O3_2 C48_2 1_555 1_555
O4_2 C49_2 1_555 1_555
C43_2 C46_2 1_555 1_555
N5 C14_2 1_555 1_555
C17_2 C14_2 1_555 1_555
C20_2 C17_2 1_555 1_555
C23_2 C20_2 1_555 1_555
H17_2 C23_2 1_555 1_555
C26_2 N5 1_555 1_555
H20_2 C26_2 1_555 1_555
C23_2 C26_2 1_555 1_555
Cu3_2 N3_2 1_555 1_555
N3_2 C15_2 1_555 1_555
C18_2 C15_2 1_555 1_555
C21_2 C18_2 1_555 1_555
C24_2 C21_2 1_555 1_555
H18_2 C24_2 1_555 1_555
C27_2 N3_2 1_555 1_555
H21_2 C27_2 1_555 1_555
H23_2 C32_2 1_555 1_555
H33_2 C45_2 1_555 1_555
C24_2 C27_2 1_555 1_555
N6 Cu3_2 1_555 1_555
N6 C16_2 1_555 1_555
C19_2 C16_2 1_555 1_555
H16_2 C19_2 1_555 1_555
C22_2 C19_2 1_555 1_555
C25_2 C22_2 1_555 1_555
H19_2 C25_2 1_555 1_555
C28_2 N6 1_555 1_555
H22_2 C28_2 1_555 1_555
H25_2 C34_2 1_555 1_555
H32_2 C44_2 1_555 1_555
C25_2 C28_2 1_555 1_555
B1 F1 1_555 1_555
F2 B1 1_555 1_555
F3 B1 1_555 1_555
F4 B1 1_555 1_555
B1_2 F1_2 1_555 1_555
F2_2 B1_2 1_555 1_555
F3_2 B1_2 1_555 1_555
F4_2 B1_2 1_555 1_555

#END
