
###############################################################################
#
# This file contains modified crystal structure data generated from the
# MOF subset of the Cambridge Structural Database (CSD) v543 
# hosted by the Cambridge Crystallographic Data Centre (CCDC).
#
# This work is licensed under the Creative Commons
# Attribution-NonCommercial-ShareAlike 4.0 International License.
# To view a copy of this license, visit
# http://creativecommons.org/licenses/by-nc-sa/4.0/
# or send a letter to
# Creative Commons, PO Box 1866, Mountain View, CA 94042, USA.
#
# CIF created using the CSD Python API on 29 September 2022
# The structure has been converted into the P1 space group
# The structure has a 3D framework
# The original CSD entry MOYDOW is in the triclinic crystal system
# The framework has been calculated to contain at least 10.0% void space
# The void calculation uses a probe of radius 1.32A, grid spacing 0.4
# H atom positions have been added when not included in the experimental data
# Generated hydrogen atom positions removed from atoms on special positions
#
###############################################################################

data_MOYDOW
_chemical_formula_moiety         '(C24 H16 Cu3 Gd2 N6 O17)n'
_symmetry_cell_setting           triclinic
_symmetry_space_group_name_H-M   'P 1'
_symmetry_Int_Tables_number      1
_space_group_name_Hall           'P 1'
loop_
_symmetry_equiv_pos_site_id
_symmetry_equiv_pos_as_xyz
1 x,y,z
_cell_length_a                   8.5247(7)
_cell_length_b                   9.6931(9)
_cell_length_c                   12.0429(11)
_cell_angle_alpha                102.413(3)
_cell_angle_beta                 102.608(3)
_cell_angle_gamma                111.608(3)
_cell_volume                     853.7
loop_
_atom_site_label
_atom_site_type_symbol
_atom_site_fract_x
_atom_site_fract_y
_atom_site_fract_z
O10 O 0.0830(4) 0.1434(3) 0.4340(3)
Gd6 Gd 0.37813(2) 0.14710(2) 0.47739(2)
O6 O 0.1565(3) 0.9230(3) 0.5039(2)
C11 C 0.0210(5) 0.9360(4) 0.5204(3)
O11 O 0.8435(3) 0.0770(3) 0.4961(2)
C13 C 0.9790(5) 0.0640(4) 0.4796(3)
O21 O 0.5798(3) 0.0945(3) 0.6127(2)
O23 O 0.7662(4) 0.0396(3) 0.7327(2)
Gd1 Gd 0.62187(2) 0.85290(2) 0.52261(2)
Cu1 Cu 0.5000 0.5000 0.0000
Cu2 Cu 0.00988(7) 0.79211(7) 0.04844(5)
O1 O 0.6391(4) 0.6003(4) 0.1718(3)
O2 O 0.6716(4) 0.7791(3) 0.3358(2)
O3 O 0.4202(3) 0.9055(3) 0.3873(2)
O4 O 0.2338(4) 0.9604(3) 0.2673(2)
O5 O 0.9170(4) 0.8566(3) 0.5660(3)
O7 O 0.6379(3) 0.6693(3) 0.6239(2)
O8 O 0.5829(4) 0.4180(3) 0.6003(2)
O9 O 0.3652(4) 0.7852(3) 0.5966(3)
N1 N 0.3526(5) 0.5979(4) 0.0406(3)
N2 N 0.1821(5) 0.7187(4) 0.0683(3)
C2 C 0.4194(5) 0.6898(4) 0.1597(3)
C3 C 0.3127(5) 0.7645(4) 0.1772(3)
C4 C 0.5865(5) 0.6919(4) 0.2302(3)
C5 C 0.3219(5) 0.8816(4) 0.2825(3)
C12 C 0.5636(4) 0.5254(4) 0.5647(3)
O12 O 0.3621(3) 0.3307(3) 0.3761(2)
O13 O 0.4171(4) 0.5820(3) 0.3997(2)
C14 C 0.4364(4) 0.4746(4) 0.4353(3)
Cu1_2 Cu 0.5000 0.5000 1.0000
C1 C 0.2112(6) 0.6182(5) 0.9895(4)
O19 O 0.3609(4) 0.3997(4) 0.8282(3)
N7 N 0.6474(5) 0.4021(4) 0.9594(3)
H11 H 0.129181 0.560147 0.89511
C20 C 0.7888(6) 0.3818(5) 0.0105(4)
H14 H 0.870819 0.439853 0.10489
Cu3 Cu 0.99012(7) 0.20789(7) 0.95156(5)
O15 O 0.3284(4) 0.2209(3) 0.6642(2)
O18 O 0.6348(4) 0.2148(3) 0.4034(3)
N6 N 0.8179(5) 0.2813(4) 0.9317(3)
C21 C 0.5806(5) 0.3102(4) 0.8403(3)
C22 C 0.6873(5) 0.2355(4) 0.8228(3)
C23 C 0.4135(5) 0.3081(4) 0.7698(3)
C24 C 0.6781(5) 0.1184(4) 0.7175(3)
C9 C 0.7022(7) 0.0178(6) 0.1155(4)
H3 H 0.7046 0.0884 0.1848
C15 C 0.2936(6) 0.1835(6) 0.0784(4)
H5 H 0.2919 0.2528 0.1466
C16 C 0.4257(6) 0.1327(5) 0.0921(4)
H6 H 0.5138 0.1683 0.1686
N4 N 0.1667(5) 0.1384(5) 0.9716(3)
C17 C 0.4302(6) 0.0291(5) 0.9938(4)
C19 C 0.1695(6) 0.0380(6) 0.8765(4)
H8 H 0.0800 0.0041 0.8010
N3 N 0.8333(5) 0.8616(5) 0.0284(3)
C8 C 0.5698(6) 0.9709(5) 0.0062(4)
C10 C 0.8305(6) 0.9620(6) 0.1235(4)
H4 H 0.9200 0.9959 0.1990
C6 C 0.7064(6) 0.8165(6) 0.9216(4)
H1 H 0.7081 0.7472 0.8534
C7 C 0.5743(6) 0.8673(5) 0.9079(4)
H2 H 0.4862 0.8317 0.8314
C18 C 0.2978(7) 0.9822(6) 0.8845(4)
H7 H 0.2954 0.9116 0.8152
loop_
_geom_bond_atom_site_label_1
_geom_bond_atom_site_label_2
_geom_bond_site_symmetry_1
_geom_bond_site_symmetry_2
O10 Gd6 1_555 1_555
O6 C11 1_555 1_555
O11 C13 1_555 1_555
Gd6 O21 1_555 1_555
Gd1 O2 1_555 1_555
Cu1 O1 1_555 1_555
Cu2 O4 1_555 1_555
O1 C4 1_555 1_555
O2 C4 1_555 1_555
O3 Gd1 1_555 1_555
O4 C5 1_555 1_555
O5 Gd1 1_555 1_555
O7 Gd1 1_555 1_555
O8 C12 1_555 1_555
O9 Gd1 1_555 1_555
N1 Cu1 1_555 1_555
N2 Cu2 1_555 1_555
C2 N1 1_555 1_555
C3 N2 1_555 1_555
C4 C2 1_555 1_555
C5 O3 1_555 1_555
C12 O7 1_555 1_555
O12 C14 1_555 1_555
O13 Gd1 1_555 1_555
C14 C12 1_555 1_555
Gd6 O8 1_555 1_555
C2 C3 1_555 1_555
C3 C5 1_555 1_555
O12 Gd6 1_555 1_555
O13 C14 1_555 1_555
O19 Cu1_2 1_555 1_555
N7 Cu1_2 1_555 1_555
C1 H11 1_555 1_555
C20 H14 1_555 1_555
Gd6 O15 1_555 1_555
O19 C23 1_555 1_555
O15 C23 1_555 1_555
O23 Cu3 1_555 1_555
O18 Gd6 1_555 1_555
N6 Cu3 1_555 1_555
C21 N7 1_555 1_555
C22 N6 1_555 1_555
C23 C21 1_555 1_555
C24 O21 1_555 1_555
O23 C24 1_555 1_555
C21 C22 1_555 1_555
C22 C24 1_555 1_555
H3 C9 1_555 1_555
C15 H5 1_555 1_555
C16 C15 1_555 1_555
H6 C16 1_555 1_555
C19 N4 1_555 1_555
H8 C19 1_555 1_555
C10 N3 1_555 1_555
H4 C10 1_555 1_555
H1 C6 1_555 1_555
C7 C6 1_555 1_555
H2 C7 1_555 1_555
H7 C18 1_555 1_555

#END
