
###############################################################################
#
# This file contains modified crystal structure data generated from the
# MOF subset of the Cambridge Structural Database (CSD) v543 
# hosted by the Cambridge Crystallographic Data Centre (CCDC).
#
# This work is licensed under the Creative Commons
# Attribution-NonCommercial-ShareAlike 4.0 International License.
# To view a copy of this license, visit
# http://creativecommons.org/licenses/by-nc-sa/4.0/
# or send a letter to
# Creative Commons, PO Box 1866, Mountain View, CA 94042, USA.
#
# CIF created using the CSD Python API on 29 September 2022
# The structure has been converted into the P1 space group
# The structure has a 3D framework
# The original CSD entry MOYPAS is in the orthorhombic crystal system
# The framework has been calculated to contain at least 10.0% void space
# The void calculation uses a probe of radius 1.32A, grid spacing 0.4
#
###############################################################################

data_MOYPAS
_chemical_formula_moiety         '(C128 H136 N16 O16 Zn4)n'
_symmetry_cell_setting           triclinic
_symmetry_space_group_name_H-M   'P 1'
_symmetry_Int_Tables_number      1
_space_group_name_Hall           'P 1'
loop_
_symmetry_equiv_pos_site_id
_symmetry_equiv_pos_as_xyz
1 x,y,z
_cell_length_a                   8.783(2)
_cell_length_b                   24.640(6)
_cell_length_c                   14.613(4)
_cell_angle_alpha                90
_cell_angle_beta                 90
_cell_angle_gamma                90
_cell_volume                     3162.44
loop_
_atom_site_label
_atom_site_type_symbol
_atom_site_fract_x
_atom_site_fract_y
_atom_site_fract_z
C6 C 0.0001(10) 0.6374(3) 0.2500
C7 C 0.1436(11) 0.6595(3) 0.2500
C8 C 0.1610(10) 0.7151(3) 0.2500
H6 H 0.2579 0.7304 0.2500
C9 C 0.0267(10) 0.8102(3) 0.2500
C13 C 0.0341(10) 0.7481(3) 0.2500
C15 C 0.2832(11) 0.6243(4) 0.2500
C16 C 0.1026(7) 0.8345(2) 0.3358(4)
H7 H 0.2099 0.8251 0.3350
H8 H 0.0952 0.8737 0.3325
C17 C 0.0355(10) 0.8160(3) 0.4259(4)
H10 H 0.0318 0.7766 0.4267
C18 C 0.1237(14) 0.8352(4) 0.5074(6)
H11 H 0.0755 0.8225 0.5623
H12 H 0.1265 0.8741 0.5077
H13 H 0.2257 0.8213 0.5044
O3 O 0.2637(7) 0.5733(2) 0.2500
O4 O 0.4122(8) 0.6450(3) 0.2500
C24 C 0.1026(7) 0.8345(2) 0.1642(4)
H21 H 0.2099 0.8251 0.1650
H22 H 0.0952 0.8737 0.1675
C25 C 0.0355(10) 0.8160(3) 0.0741(4)
H24 H 0.0318 0.7766 0.0733
Zn2 Zn 0.46443(11) 0.53802(4) 0.2500
H20 H 0.9777 0.5153 0.0920
C27 C 0.6649(8) 0.5800(3) 0.0004(4)
C28 C 0.5856(8) 0.5924(3) 0.0768(5)
H29 H 0.5433 0.6261 0.0899
C29 C 0.6494(7) 0.5085(2) 0.0885(4)
H30 H 0.6605 0.4733 0.1105
N3 N 0.5773(6) 0.5473(2) 0.1322(3)
N5 N 0.7050(6) 0.5258(2) 0.0085(4)
C1 C 0.2219(10) 0.3679(3) 0.2500
H1 H 0.1686 0.4005 0.2500
C2 C 0.3820(10) 0.3679(4) 0.2500
C3 C 0.4571(11) 0.3186(4) 0.2500
H2 H 0.5630 0.3187 0.2500
C4 C 0.3823(10) 0.2687(4) 0.2500
H3 H 0.4361 0.2362 0.2500
C5 C 0.1288(11) 0.1687(3) 0.2500
H4 H 0.2248 0.1528 0.2500
C6_2 C -0.0001(10) 0.1374(3) 0.2500
H5 H 0.0100 0.0999 0.2500
C10 C 0.1440(9) 0.3192(3) 0.2500
C11 C 0.2256(11) 0.2695(4) 0.2500
C12 C 0.1125(10) 0.2258(3) 0.2500
C14 C 0.4679(11) 0.4215(3) 0.2500
H9 H 0.0682 0.3292 0.0695
C19 C 0.6649(8) 0.5800(3) 0.4996(4)
H14 H 0.6880 0.6032 0.5479
C20 C 0.5856(8) 0.5924(3) 0.4232(5)
H15 H 0.5433 0.6261 0.4101
C21 C 0.6494(7) 0.5085(2) 0.4115(4)
H16 H 0.6605 0.4733 0.3895
C22 C 0.7975(8) 0.4954(3) 0.5570(4)
H17 H 0.7789 0.4569 0.5487
H18 H 0.7661 0.5049 0.6186
C23 C 0.9680(8) 0.5063(3) 0.5470(4)
H19 H 0.9873 0.5442 0.5608
N1 N 0.5773(6) 0.5473(2) 0.3678(3)
N2 N 0.7050(6) 0.5258(2) 0.4915(4)
O1 O 0.3833(7) 0.4642(2) 0.2500
O2 O 0.6076(7) 0.4216(2) 0.2500
H23 H 0.0682 0.3292 0.4305
H34 H 0.9777 0.5153 0.4080
C26 C 0.1237(14) 0.8352(4) 0.9926(6)
H25 H 0.0755 0.8225 0.9377
H26 H 0.1265 0.8741 0.9923
H27 H 0.2257 0.8213 0.9956
C19_2 C 0.3351(8) 0.0800(3) 0.0004(4)
C20_2 C 0.4144(8) 0.0924(3) 0.0768(5)
H15_2 H 0.4567 0.1261 0.0899
C21_2 C 0.3506(7) 0.0085(2) 0.0885(4)
N1_2 N 0.4227(6) 0.0473(2) 0.1322(3)
N2_2 N 0.2950(6) 0.0258(2) 0.0085(4)
Zn1 Zn 0.53557(11) 0.03802(4) 0.2500
H34_2 H 0.0223 0.0153 0.0920
N4 N 0.4227(6) 0.0473(2) 0.3678(3)
O5 O 0.7363(7) 0.0733(2) 0.2500
H20_2 H 0.0223 0.0153 0.4080
C27_2 C 0.3351(8) 0.0800(3) 0.4996(4)
H28 H 0.3120 0.1032 0.5479
C28_2 C 0.4144(8) 0.0924(3) 0.4232(5)
H29_2 H 0.4567 0.1261 0.4101
C29_2 C 0.3506(7) 0.0085(2) 0.4115(4)
H32 H 0.2339 0.0049 0.6186
C31 C 0.0320(8) 0.0063(3) 0.5470(4)
H33 H 0.0127 0.0442 0.5608
N5_2 N 0.2950(6) 0.0258(2) 0.4915(4)
C6_3 C 0.9999(10) 0.1374(3) 0.2500
C7_2 C 0.8564(11) 0.1595(3) 0.2500
C8_2 C 0.8390(10) 0.2151(3) 0.2500
H6_2 H 0.7421 0.2304 0.2500
C9_2 C 0.9733(10) 0.3102(3) 0.2500
C13_2 C 0.9659(10) 0.2481(3) 0.2500
C15_2 C 0.7168(11) 0.1243(4) 0.2500
C16_2 C 0.8974(7) 0.3345(2) 0.1642(4)
H7_2 H 0.7901 0.3251 0.1650
H8_2 H 0.9048 0.3737 0.1675
C17_2 C 0.9645(10) 0.3160(3) 0.0741(4)
H10_2 H 0.9682 0.2766 0.0733
O4_2 O 0.5878(8) 0.1450(3) 0.2500
C24_2 C 0.8974(7) 0.3345(2) 0.3358(4)
H21_2 H 0.7901 0.3251 0.3350
H22_2 H 0.9048 0.3737 0.3325
C25_2 C 0.9645(10) 0.3160(3) 0.4259(4)
H24_2 H 0.9682 0.2766 0.4267
C26_2 C 0.8763(14) 0.3352(4) 0.5074(6)
H25_2 H 0.9245 0.3225 0.5623
H26_2 H 0.8735 0.3741 0.5077
H27_2 H 0.7743 0.3213 0.5044
H14_2 H 0.3120 0.1032 0.9521
H18_2 H 0.2339 0.0049 0.8814
C23_2 C 0.0320(8) 0.0063(3) 0.9530(4)
H19_2 H 0.0127 0.0442 0.9392
C1_2 C 0.7781(10) 0.8679(3) 0.2500
H1_2 H 0.8314 0.9005 0.2500
C2_2 C 0.6180(10) 0.8679(4) 0.2500
C3_2 C 0.5429(11) 0.8186(4) 0.2500
H2_2 H 0.4370 0.8187 0.2500
C4_2 C 0.6177(10) 0.7687(4) 0.2500
H3_2 H 0.5639 0.7362 0.2500
C5_2 C 0.8712(11) 0.6687(3) 0.2500
H4_2 H 0.7752 0.6528 0.2500
C6_4 C 1.0001(10) 0.6374(3) 0.2500
H5_2 H 0.9900 0.5999 0.2500
C10_2 C 0.8560(9) 0.8192(3) 0.2500
C11_2 C 0.7744(11) 0.7695(4) 0.2500
C12_2 C 0.8875(10) 0.7258(3) 0.2500
C14_2 C 0.5321(11) 0.9215(3) 0.2500
H9_2 H 0.9318 0.8292 0.4305
H16_2 H 0.3395 0.9733 0.1105
O1_2 O 0.6167(7) 0.9642(2) 0.2500
O2_2 O 0.3924(7) 0.9216(2) 0.2500
H23_2 H 0.9318 0.8292 0.0695
H30_2 H 0.3395 0.9733 0.3895
C30 C 0.2025(8) 0.9954(3) 0.5570(4)
H31 H 0.2211 0.9569 0.5487
C22_2 C 0.2025(8) 0.9954(3) 0.9430(4)
H17_2 H 0.2211 0.9569 0.9513
C30_2 C 0.7975(8) 0.0046(3) 0.0570(4)
H31_2 H 0.7789 0.0431 0.0487
H30_3 H 0.6605 0.0267 0.8895
C1_3 C 0.2219(10) 0.1321(3) 0.7500
H1_3 H 0.1686 0.0995 0.7500
C2_3 C 0.3820(10) 0.1321(4) 0.7500
C3_3 C 0.4571(11) 0.1814(4) 0.7500
H2_3 H 0.5630 0.1813 0.7500
C4_3 C 0.3823(10) 0.2313(4) 0.7500
H3_3 H 0.4361 0.2638 0.7500
C5_3 C 0.1288(11) 0.3313(3) 0.7500
H4_3 H 0.2248 0.3472 0.7500
C6_5 C -0.0001(10) 0.3626(3) 0.7500
H5_3 H 0.0100 0.4001 0.7500
C10_3 C 0.1440(9) 0.1808(3) 0.7500
C11_3 C 0.2256(11) 0.2305(4) 0.7500
C12_3 C 0.1125(10) 0.2742(3) 0.7500
C14_3 C 0.4679(11) 0.0785(3) 0.7500
H9_3 H 0.0682 0.1708 0.9305
H16_3 H 0.6605 0.0267 0.6105
C22_3 C 0.7975(8) 0.0046(3) 0.4430(4)
H17_3 H 0.7789 0.0431 0.4513
O1_3 O 0.3833(7) 0.0358(2) 0.7500
O2_3 O 0.6076(7) 0.0784(2) 0.7500
H23_3 H 0.0682 0.1708 0.5695
H28_2 H 0.6880 0.8968 0.0479
H32_2 H 0.7661 0.9951 0.1186
C31_2 C 0.9680(8) 0.9937(3) 0.0470(4)
H33_2 H 0.9873 0.9558 0.0608
H20_3 H 0.9777 0.9847 0.9080
C27_3 C 0.6649(8) 0.9200(3) 0.9996(4)
C28_3 C 0.5856(8) 0.9076(3) 0.9232(5)
H29_3 H 0.5433 0.8739 0.9101
C29_3 C 0.6494(7) 0.9915(2) 0.9115(4)
N3_2 N 0.5773(6) 0.9527(2) 0.8678(3)
N5_3 N 0.7050(6) 0.9742(2) 0.9915(4)
Zn3 Zn 0.46443(11) 0.96198(4) 0.7500
C19_3 C 0.6649(8) 0.9200(3) 0.5004(4)
H14_3 H 0.6880 0.8968 0.4521
C20_3 C 0.5856(8) 0.9076(3) 0.5768(5)
H15_3 H 0.5433 0.8739 0.5899
C21_3 C 0.6494(7) 0.9915(2) 0.5885(4)
H18_3 H 0.7661 0.9951 0.3814
C23_3 C 0.9680(8) 0.9937(3) 0.4530(4)
H19_3 H 0.9873 0.9558 0.4392
N1_3 N 0.5773(6) 0.9527(2) 0.6322(3)
N2_3 N 0.7050(6) 0.9742(2) 0.5085(4)
H34_3 H 0.9777 0.9847 0.5920
O5_2 O 0.2637(7) 0.9267(2) 0.7500
C6_6 C 0.0001(10) 0.8626(3) 0.7500
C7_3 C 0.1436(11) 0.8405(3) 0.7500
C8_3 C 0.1610(10) 0.7849(3) 0.7500
H6_3 H 0.2579 0.7696 0.7500
C9_3 C 0.0267(10) 0.6898(3) 0.7500
C13_3 C 0.0341(10) 0.7519(3) 0.7500
C15_3 C 0.2832(11) 0.8757(4) 0.7500
C16_3 C 0.1026(7) 0.6655(2) 0.6642(4)
H7_3 H 0.2099 0.6749 0.6650
H8_3 H 0.0952 0.6263 0.6675
C17_3 C 0.0355(10) 0.6840(3) 0.5741(4)
H10_3 H 0.0318 0.7234 0.5733
C18_2 C 0.1237(14) 0.6648(4) 0.4926(6)
H11_2 H 0.0755 0.6775 0.4377
H12_2 H 0.1265 0.6259 0.4923
H13_2 H 0.2257 0.6787 0.4956
O4_3 O 0.4122(8) 0.8550(3) 0.7500
C24_3 C 0.1026(7) 0.6655(2) 0.8358(4)
H21_3 H 0.2099 0.6749 0.8350
H22_3 H 0.0952 0.6263 0.8325
C25_3 C 0.0355(10) 0.6840(3) 0.9259(4)
H24_3 H 0.0318 0.7234 0.9267
C18_3 C 0.8763(14) 0.1648(4) 0.0074(6)
H11_3 H 0.9245 0.1775 0.0623
H12_3 H 0.8735 0.1259 0.0077
H13_3 H 0.7743 0.1787 0.0044
C6_7 C 0.9999(10) 0.3626(3) 0.7500
C7_4 C 0.8564(11) 0.3405(3) 0.7500
C8_4 C 0.8390(10) 0.2849(3) 0.7500
H6_4 H 0.7421 0.2696 0.7500
C9_4 C 0.9733(10) 0.1898(3) 0.7500
C13_4 C 0.9659(10) 0.2519(3) 0.7500
C15_4 C 0.7168(11) 0.3757(4) 0.7500
C16_4 C 0.8974(7) 0.1655(2) 0.8358(4)
H7_4 H 0.7901 0.1749 0.8350
H8_4 H 0.9048 0.1263 0.8325
C17_4 C 0.9645(10) 0.1840(3) 0.9259(4)
H10_4 H 0.9682 0.2234 0.9267
O3_2 O 0.7363(7) 0.4267(2) 0.7500
O4_4 O 0.5878(8) 0.3550(3) 0.7500
C24_4 C 0.8974(7) 0.1655(2) 0.6642(4)
H21_4 H 0.7901 0.1749 0.6650
H22_4 H 0.9048 0.1263 0.6675
C25_4 C 0.9645(10) 0.1840(3) 0.5741(4)
H24_4 H 0.9682 0.2234 0.5733
C26_3 C 0.8763(14) 0.1648(4) 0.4926(6)
H25_3 H 0.9245 0.1775 0.4377
H26_3 H 0.8735 0.1259 0.4923
H27_3 H 0.7743 0.1787 0.4956
Zn2_2 Zn 0.53557(11) 0.46198(4) 0.7500
C1_4 C 0.7781(10) 0.6321(3) 0.7500
H1_4 H 0.8314 0.5995 0.7500
C2_4 C 0.6180(10) 0.6321(4) 0.7500
C3_4 C 0.5429(11) 0.6814(4) 0.7500
H2_4 H 0.4370 0.6813 0.7500
C4_4 C 0.6177(10) 0.7313(4) 0.7500
H3_4 H 0.5639 0.7638 0.7500
C5_4 C 0.8712(11) 0.8313(3) 0.7500
H4_4 H 0.7752 0.8472 0.7500
C6_8 C 1.0001(10) 0.8626(3) 0.7500
H5_4 H 0.9900 0.9001 0.7500
C10_4 C 0.8560(9) 0.6808(3) 0.7500
C11_4 C 0.7744(11) 0.7305(4) 0.7500
C12_4 C 0.8875(10) 0.7742(3) 0.7500
C14_4 C 0.5321(11) 0.5785(3) 0.7500
H9_4 H 0.9318 0.6708 0.5695
C19_4 C 0.3351(8) 0.4200(3) 0.9996(4)
C20_4 C 0.4144(8) 0.4076(3) 0.9232(5)
H15_4 H 0.4567 0.3739 0.9101
C21_4 C 0.3506(7) 0.4915(2) 0.9115(4)
H16_4 H 0.3395 0.5267 0.8895
N1_4 N 0.4227(6) 0.4527(2) 0.8678(3)
N2_4 N 0.2950(6) 0.4742(2) 0.9915(4)
O1_4 O 0.6167(7) 0.5358(2) 0.7500
O2_4 O 0.3924(7) 0.5784(2) 0.7500
H23_4 H 0.9318 0.6708 0.9305
H34_4 H 0.0223 0.4847 0.9080
N4_2 N 0.4227(6) 0.4527(2) 0.6322(3)
H20_4 H 0.0223 0.4847 0.5920
C27_4 C 0.3351(8) 0.4200(3) 0.5004(4)
H28_3 H 0.3120 0.3968 0.4521
C28_4 C 0.4144(8) 0.4076(3) 0.5768(5)
H29_4 H 0.4567 0.3739 0.5899
C29_4 C 0.3506(7) 0.4915(2) 0.5885(4)
H30_4 H 0.3395 0.5267 0.6105
C30_3 C 0.2025(8) 0.5046(3) 0.4430(4)
H31_3 H 0.2211 0.5431 0.4513
H32_3 H 0.2339 0.4951 0.3814
C31_3 C 0.0320(8) 0.4937(3) 0.4530(4)
H33_3 H 0.0127 0.4558 0.4392
N5_4 N 0.2950(6) 0.4742(2) 0.5085(4)
C26_4 C 0.1237(14) 0.6648(4) 0.0074(6)
H25_4 H 0.0755 0.6775 0.0623
H26_4 H 0.1265 0.6259 0.0077
H27_4 H 0.2257 0.6787 0.0044
H14_4 H 0.3120 0.3968 0.0479
C22_4 C 0.2025(8) 0.5046(3) 0.0570(4)
H17_4 H 0.2211 0.5431 0.0487
H18_4 H 0.2339 0.4951 0.1186
C23_4 C 0.0320(8) 0.4937(3) 0.0470(4)
H19_4 H 0.0127 0.4558 0.0608
H28_4 H 0.6880 0.6032 0.9521
C30_4 C 0.7975(8) 0.4954(3) 0.9430(4)
H31_4 H 0.7789 0.4569 0.9513
H32_4 H 0.7661 0.5049 0.8814
C31_4 C 0.9680(8) 0.5063(3) 0.9530(4)
H33_4 H 0.9873 0.5442 0.9392
C18_4 C 0.8763(14) 0.3352(4) 0.9926(6)
H11_4 H 0.9245 0.3225 0.9377
H12_4 H 0.8735 0.3741 0.9923
H13_4 H 0.7743 0.3213 0.9956
loop_
_geom_bond_atom_site_label_1
_geom_bond_atom_site_label_2
_geom_bond_site_symmetry_1
_geom_bond_site_symmetry_2
C7 C6 1_555 1_555
C8 C7 1_555 1_555
H6 C8 1_555 1_555
C13 C8 1_555 1_555
C15 C7 1_555 1_555
C16 C9 1_555 1_555
H7 C16 1_555 1_555
H8 C16 1_555 1_555
C17 C16 1_555 1_555
H10 C17 1_555 1_555
C18 C17 1_555 1_555
H11 C18 1_555 1_555
H12 C18 1_555 1_555
H13 C18 1_555 1_555
O3 C15 1_555 1_555
O4 C15 1_555 1_555
C24 C9 1_555 1_555
H21 C24 1_555 1_555
H22 C24 1_555 1_555
C25 C24 1_555 1_555
H24 C25 1_555 1_555
Zn2 O3 1_555 1_555
C9 C13 1_555 1_555
C28 C27 1_555 1_555
H29 C28 1_555 1_555
C29 H30 1_555 1_555
N3 C28 1_555 1_555
N5 C27 1_555 1_555
Zn2 N3 1_555 1_555
C29 N3 1_555 1_555
C29 N5 1_555 1_555
C1 H1 1_555 1_555
C2 C1 1_555 1_555
C3 C2 1_555 1_555
H2 C3 1_555 1_555
C4 C3 1_555 1_555
H3 C4 1_555 1_555
C5 H4 1_555 1_555
C6_2 C5 1_555 1_555
H5 C6_2 1_555 1_555
C10 C1 1_555 1_555
C11 C4 1_555 1_555
C12 C5 1_555 1_555
C14 C2 1_555 1_555
C19 H14 1_555 1_555
C20 C19 1_555 1_555
H15 C20 1_555 1_555
C21 H16 1_555 1_555
C22 H17 1_555 1_555
H18 C22 1_555 1_555
C23 C22 1_555 1_555
H19 C23 1_555 1_555
N1 C20 1_555 1_555
N2 C19 1_555 1_555
O1 C14 1_555 1_555
O2 C14 1_555 1_555
Zn2 N1 1_555 1_555
C10 C11 1_555 1_555
C11 C12 1_555 1_555
C21 N1 1_555 1_555
C21 N2 1_555 1_555
C22 N2 1_555 1_555
O1 Zn2 1_555 1_555
H25 C26 1_555 1_555
H26 C26 1_555 1_555
H27 C26 1_555 1_555
C20_2 C19_2 1_555 1_555
H15_2 C20_2 1_555 1_555
N1_2 C20_2 1_555 1_555
N2_2 C19_2 1_555 1_555
Zn1 N1_2 1_555 1_555
N4 Zn1 1_555 1_555
O5 Zn1 1_555 1_555
C21_2 N1_2 1_555 1_555
C21_2 N2_2 1_555 1_555
C27_2 H28 1_555 1_555
C28_2 C27_2 1_555 1_555
H29_2 C28_2 1_555 1_555
H33 C31 1_555 1_555
N4 C28_2 1_555 1_555
N5_2 C27_2 1_555 1_555
C29_2 N4 1_555 1_555
C29_2 N5_2 1_555 1_555
C7_2 C6_3 1_555 1_555
C8_2 C7_2 1_555 1_555
H6_2 C8_2 1_555 1_555
C13_2 C8_2 1_555 1_555
C15_2 C7_2 1_555 1_555
C16_2 C9_2 1_555 1_555
H7_2 C16_2 1_555 1_555
H8_2 C16_2 1_555 1_555
C17_2 C16_2 1_555 1_555
H10_2 C17_2 1_555 1_555
O5 C15_2 1_555 1_555
O4_2 C15_2 1_555 1_555
C24_2 C9_2 1_555 1_555
H21_2 C24_2 1_555 1_555
H22_2 C24_2 1_555 1_555
C25_2 C24_2 1_555 1_555
H24_2 C25_2 1_555 1_555
C26_2 C25_2 1_555 1_555
H25_2 C26_2 1_555 1_555
H26_2 C26_2 1_555 1_555
H27_2 C26_2 1_555 1_555
C9_2 C13_2 1_555 1_555
H19_2 C23_2 1_555 1_555
C1_2 H1_2 1_555 1_555
C2_2 C1_2 1_555 1_555
C3_2 C2_2 1_555 1_555
H2_2 C3_2 1_555 1_555
C4_2 C3_2 1_555 1_555
H3_2 C4_2 1_555 1_555
C5_2 H4_2 1_555 1_555
C6_4 C5_2 1_555 1_555
H5_2 C6_4 1_555 1_555
C10_2 C1_2 1_555 1_555
C11_2 C4_2 1_555 1_555
C12_2 C5_2 1_555 1_555
C14_2 C2_2 1_555 1_555
O1_2 C14_2 1_555 1_555
O2_2 C14_2 1_555 1_555
C10_2 C11_2 1_555 1_555
C11_2 C12_2 1_555 1_555
C30 H31 1_555 1_555
C22_2 H17_2 1_555 1_555
C30_2 H31_2 1_555 1_555
C1_3 H1_3 1_555 1_555
C2_3 C1_3 1_555 1_555
C3_3 C2_3 1_555 1_555
H2_3 C3_3 1_555 1_555
C4_3 C3_3 1_555 1_555
H3_3 C4_3 1_555 1_555
C5_3 H4_3 1_555 1_555
C6_5 C5_3 1_555 1_555
H5_3 C6_5 1_555 1_555
C10_3 C1_3 1_555 1_555
C11_3 C4_3 1_555 1_555
C12_3 C5_3 1_555 1_555
C14_3 C2_3 1_555 1_555
C22_3 H17_3 1_555 1_555
O1_3 C14_3 1_555 1_555
O2_3 C14_3 1_555 1_555
C10_3 C11_3 1_555 1_555
C11_3 C12_3 1_555 1_555
H33_2 C31_2 1_555 1_555
C28_3 C27_3 1_555 1_555
H29_3 C28_3 1_555 1_555
N3_2 C28_3 1_555 1_555
N5_3 C27_3 1_555 1_555
Zn3 N3_2 1_555 1_555
C29_3 N3_2 1_555 1_555
C29_3 N5_3 1_555 1_555
C19_3 H14_3 1_555 1_555
C20_3 C19_3 1_555 1_555
H15_3 C20_3 1_555 1_555
H19_3 C23_3 1_555 1_555
N1_3 C20_3 1_555 1_555
N2_3 C19_3 1_555 1_555
Zn3 N1_3 1_555 1_555
O5_2 Zn3 1_555 1_555
C21_3 N1_3 1_555 1_555
C21_3 N2_3 1_555 1_555
C7_3 C6_6 1_555 1_555
C8_3 C7_3 1_555 1_555
H6_3 C8_3 1_555 1_555
C13_3 C8_3 1_555 1_555
C15_3 C7_3 1_555 1_555
C16_3 C9_3 1_555 1_555
H7_3 C16_3 1_555 1_555
H8_3 C16_3 1_555 1_555
C17_3 C16_3 1_555 1_555
H10_3 C17_3 1_555 1_555
C18_2 C17_3 1_555 1_555
H11_2 C18_2 1_555 1_555
H12_2 C18_2 1_555 1_555
H13_2 C18_2 1_555 1_555
O5_2 C15_3 1_555 1_555
O4_3 C15_3 1_555 1_555
C24_3 C9_3 1_555 1_555
H21_3 C24_3 1_555 1_555
H22_3 C24_3 1_555 1_555
C25_3 C24_3 1_555 1_555
H24_3 C25_3 1_555 1_555
C9_3 C13_3 1_555 1_555
H11_3 C18_3 1_555 1_555
H12_3 C18_3 1_555 1_555
H13_3 C18_3 1_555 1_555
C7_4 C6_7 1_555 1_555
C8_4 C7_4 1_555 1_555
H6_4 C8_4 1_555 1_555
C13_4 C8_4 1_555 1_555
C15_4 C7_4 1_555 1_555
C16_4 C9_4 1_555 1_555
H7_4 C16_4 1_555 1_555
H8_4 C16_4 1_555 1_555
C17_4 C16_4 1_555 1_555
H10_4 C17_4 1_555 1_555
O3_2 C15_4 1_555 1_555
O4_4 C15_4 1_555 1_555
C24_4 C9_4 1_555 1_555
H21_4 C24_4 1_555 1_555
H22_4 C24_4 1_555 1_555
C25_4 C24_4 1_555 1_555
H24_4 C25_4 1_555 1_555
C26_3 C25_4 1_555 1_555
H25_3 C26_3 1_555 1_555
H26_3 C26_3 1_555 1_555
H27_3 C26_3 1_555 1_555
Zn2_2 O3_2 1_555 1_555
C9_4 C13_4 1_555 1_555
C1_4 H1_4 1_555 1_555
C2_4 C1_4 1_555 1_555
C3_4 C2_4 1_555 1_555
H2_4 C3_4 1_555 1_555
C4_4 C3_4 1_555 1_555
H3_4 C4_4 1_555 1_555
C5_4 H4_4 1_555 1_555
C6_8 C5_4 1_555 1_555
H5_4 C6_8 1_555 1_555
C10_4 C1_4 1_555 1_555
C11_4 C4_4 1_555 1_555
C12_4 C5_4 1_555 1_555
C14_4 C2_4 1_555 1_555
C20_4 C19_4 1_555 1_555
H15_4 C20_4 1_555 1_555
C21_4 H16_4 1_555 1_555
N1_4 C20_4 1_555 1_555
N2_4 C19_4 1_555 1_555
O1_4 C14_4 1_555 1_555
O2_4 C14_4 1_555 1_555
Zn2_2 N1_4 1_555 1_555
N4_2 Zn2_2 1_555 1_555
C10_4 C11_4 1_555 1_555
C11_4 C12_4 1_555 1_555
C21_4 N1_4 1_555 1_555
C21_4 N2_4 1_555 1_555
O1_4 Zn2_2 1_555 1_555
C27_4 H28_3 1_555 1_555
C28_4 C27_4 1_555 1_555
H29_4 C28_4 1_555 1_555
C29_4 H30_4 1_555 1_555
C30_3 H31_3 1_555 1_555
H32_3 C30_3 1_555 1_555
H33_3 C31_3 1_555 1_555
N4_2 C28_4 1_555 1_555
N5_4 C27_4 1_555 1_555
C29_4 N4_2 1_555 1_555
C29_4 N5_4 1_555 1_555
C30_3 C31_3 1_555 1_555
C30_3 N5_4 1_555 1_555
H25_4 C26_4 1_555 1_555
H26_4 C26_4 1_555 1_555
H27_4 C26_4 1_555 1_555
C22_4 H17_4 1_555 1_555
H18_4 C22_4 1_555 1_555
C23_4 C22_4 1_555 1_555
H19_4 C23_4 1_555 1_555
C30_4 H31_4 1_555 1_555
H32_4 C30_4 1_555 1_555
H33_4 C31_4 1_555 1_555
C30_4 C31_4 1_555 1_555
H11_4 C18_4 1_555 1_555
H12_4 C18_4 1_555 1_555
H13_4 C18_4 1_555 1_555

#END
