
###############################################################################
#
# This file contains modified crystal structure data generated from the
# MOF subset of the Cambridge Structural Database (CSD) v543 
# hosted by the Cambridge Crystallographic Data Centre (CCDC).
#
# This work is licensed under the Creative Commons
# Attribution-NonCommercial-ShareAlike 4.0 International License.
# To view a copy of this license, visit
# http://creativecommons.org/licenses/by-nc-sa/4.0/
# or send a letter to
# Creative Commons, PO Box 1866, Mountain View, CA 94042, USA.
#
# CIF created using the CSD Python API on 29 September 2022
# The structure has been converted into the P1 space group
# The structure has a 3D framework
# The original CSD entry MOYYEF is in the tetragonal crystal system
# The original CSD entry MOYYEF is in a Sohncke space group
# The framework has been calculated to contain at least 10.0% void space
# The void calculation uses a probe of radius 1.32A, grid spacing 0.4
#
###############################################################################

data_MOYYEF
_chemical_formula_moiety         '(C112 H80 Cu8 O32)n'
_symmetry_cell_setting           triclinic
_symmetry_space_group_name_H-M   'P 1'
_symmetry_Int_Tables_number      1
_space_group_name_Hall           'P 1'
loop_
_symmetry_equiv_pos_site_id
_symmetry_equiv_pos_as_xyz
1 x,y,z
_cell_length_a                   18.119(5)
_cell_length_b                   18.119(5)
_cell_length_c                   12.935(5)
_cell_angle_alpha                90
_cell_angle_beta                 90
_cell_angle_gamma                90
_cell_volume                     4246.54
loop_
_atom_site_label
_atom_site_type_symbol
_atom_site_fract_x
_atom_site_fract_y
_atom_site_fract_z
Cu1 Cu 0.03859(5) 0.56162(5) 0.09725(7)
O1 O 0.0954(5) 0.6650(5) 0.0975(12)
H9 H 0.104(6) 0.7115(14) 0.098(18)
H10 H 0.139(3) 0.646(5) 0.100(14)
O8 O 0.1030(3) 0.5026(3) 0.1925(5)
O5 O 0.0026(3) 0.8970(3) 0.9425(5)
Cu4 Cu 0.06162(5) 0.96141(5) 0.84725(7)
O2 O 0.0899(3) 0.0421(4) 0.7486(5)
O4 O 0.0242(3) 0.4112(3) 0.2162(5)
C1 C 0.0494(5) 0.0878(5) 0.7092(7)
C2 C 0.0758(5) 0.1433(5) 0.6396(8)
C3 C 0.0358(5) 0.2075(5) 0.6198(7)
C4 C 0.0616(6) 0.2625(6) 0.5538(8)
H2 H 0.0330 0.3045 0.5432
C5 C 0.1284(5) 0.2561(5) 0.5037(7)
C6 C 0.1713(5) 0.1904(5) 0.5244(7)
H3 H 0.2168 0.1839 0.4924
C7 C 0.1449(5) 0.1376(5) 0.5915(9)
H4 H 0.1741 0.0965 0.6054
C8 C 0.1582(5) 0.3097(5) 0.4303(7)
C9 C 0.2306(5) 0.3302(5) 0.4287(7)
H5 H 0.2627 0.3065 0.4739
C10 C 0.2594(5) 0.3840(5) 0.3644(8)
H6 H 0.3097 0.3940 0.3628
C11 C 0.2106(5) 0.4218(5) 0.3031(7)
H7 H 0.2271 0.4597 0.2604
C12 C 0.1378(5) 0.4035(4) 0.3052(7)
C13 C 0.1102(5) 0.3499(5) 0.3706(6)
H8 H 0.0597 0.3411 0.3741
C14 C 0.0830(5) 0.4424(5) 0.2296(7)
O7 O 0.0888(3) 0.0242(3) 0.9662(5)
O1_2 O 0.1650(5) 0.9046(5) 0.8475(12)
H9_2 H 0.2115(14) 0.896(6) 0.848(18)
H10_2 H 0.146(5) 0.861(3) 0.850(14)
O6 O 0.0191(4) 0.9074(4) 0.7335(5)
C14_2 C 0.0576(5) 0.0830(5) 0.9796(7)
H1 H 0.0097 0.7862 0.6518
O6_2 O 0.0926(4) 0.5191(4) 0.9835(5)
O2_2 O 0.9579(4) 0.5899(3) 0.9986(5)
O3 O 0.9074(4) 0.4809(4) 0.9835(5)
O4_2 O 0.5888(3) 0.5242(3) 0.4662(5)
O5_2 O 0.4974(3) 0.6030(3) 0.4425(5)
C1_2 C 0.9122(5) 0.5494(5) 0.9592(7)
C2_2 C 0.8567(5) 0.5758(5) 0.8896(8)
C3_2 C 0.7925(5) 0.5358(5) 0.8698(7)
H1_2 H 0.7862 0.4903 0.9018
C4_2 C 0.7375(6) 0.5616(6) 0.8038(8)
H2_2 H 0.6955 0.5330 0.7932
C5_2 C 0.7439(5) 0.6284(5) 0.7537(7)
C6_2 C 0.8096(5) 0.6713(5) 0.7744(7)
H3_2 H 0.8161 0.7168 0.7424
C7_2 C 0.8624(5) 0.6449(5) 0.8415(9)
H4_2 H 0.9035 0.6741 0.8554
C8_2 C 0.6903(5) 0.6582(5) 0.6803(7)
C9_2 C 0.6698(5) 0.7306(5) 0.6787(7)
H5_2 H 0.6935 0.7627 0.7239
C10_2 C 0.6160(5) 0.7594(5) 0.6144(8)
H6_2 H 0.6060 0.8097 0.6128
C11_2 C 0.5782(5) 0.7106(5) 0.5531(7)
H7_2 H 0.5403 0.7271 0.5104
C12_2 C 0.5965(4) 0.6378(5) 0.5552(7)
C13_2 C 0.6501(5) 0.6102(5) 0.6206(6)
H8_2 H 0.6589 0.5597 0.6241
C14_3 C 0.5576(5) 0.5830(5) 0.4796(7)
Cu3 Cu 0.56162(5) 0.46141(5) 0.34725(7)
Cu4_2 Cu 0.43838(5) 0.53859(5) 0.34725(7)
O1_3 O 0.3350(5) 0.5954(5) 0.3475(12)
O2_3 O 0.4101(3) 0.4579(4) 0.2486(5)
O3_2 O 0.5191(4) 0.4074(4) 0.2335(5)
C1_3 C 0.4506(5) 0.4122(5) 0.2092(7)
C2_3 C 0.4242(5) 0.3567(5) 0.1396(8)
C3_3 C 0.4642(5) 0.2925(5) 0.1198(7)
H1_3 H 0.5097 0.2862 0.1518
C4_3 C 0.4384(6) 0.2375(6) 0.0538(8)
H2_3 H 0.4670 0.1955 0.0432
C5_3 C 0.3716(5) 0.2439(5) 0.0037(7)
C6_3 C 0.3287(5) 0.3096(5) 0.0244(7)
C7_3 C 0.3551(5) 0.3624(5) 0.0915(9)
H4_3 H 0.3259 0.4035 0.1054
H9_3 H 0.2885(14) 0.604(6) 0.348(18)
H10_3 H 0.354(5) 0.639(3) 0.350(14)
O6_3 O 0.4809(4) 0.5926(4) 0.2335(5)
O7_2 O 0.4112(3) 0.4758(3) 0.4662(5)
O2_4 O 0.0421(4) 0.4101(3) 0.9986(5)
O5_3 O 0.5026(3) 0.3970(3) 0.4425(5)
C1_4 C 0.0878(5) 0.4506(5) 0.9592(7)
C2_4 C 0.1433(5) 0.4242(5) 0.8896(8)
C3_4 C 0.2075(5) 0.4642(5) 0.8698(7)
H1_4 H 0.2138 0.5097 0.9018
C4_4 C 0.2625(6) 0.4384(6) 0.8038(8)
H2_4 H 0.3045 0.4670 0.7932
C5_4 C 0.2561(5) 0.3716(5) 0.7537(7)
C6_4 C 0.1904(5) 0.3287(5) 0.7744(7)
H3_3 H 0.1839 0.2832 0.7424
C7_4 C 0.1376(5) 0.3551(5) 0.8415(9)
H4_4 H 0.0965 0.3259 0.8554
C8_3 C 0.3097(5) 0.3418(5) 0.6803(7)
C9_3 C 0.3302(5) 0.2694(5) 0.6787(7)
H5_3 H 0.3065 0.2373 0.7239
C10_3 C 0.3840(5) 0.2406(5) 0.6144(8)
H6_3 H 0.3940 0.1903 0.6128
C11_3 C 0.4218(5) 0.2894(5) 0.5531(7)
H7_3 H 0.4597 0.2729 0.5104
C12_3 C 0.4035(4) 0.3622(5) 0.5552(7)
C13_3 C 0.3499(5) 0.3898(5) 0.6206(6)
H8_3 H 0.3411 0.4403 0.6241
C14_4 C 0.4424(5) 0.4170(5) 0.4796(7)
O1_4 O 0.6650(5) 0.4046(5) 0.3475(12)
O2_5 O 0.5899(3) 0.5421(4) 0.2486(5)
C1_5 C 0.5494(5) 0.5878(5) 0.2092(7)
C2_5 C 0.5758(5) 0.6433(5) 0.1396(8)
C3_5 C 0.5358(5) 0.7075(5) 0.1198(7)
H1_5 H 0.4903 0.7138 0.1518
C4_5 C 0.5616(6) 0.7625(6) 0.0538(8)
H2_5 H 0.5330 0.8045 0.0432
C5_5 C 0.6284(5) 0.7561(5) 0.0037(7)
C6_5 C 0.6713(5) 0.6904(5) 0.0244(7)
C7_5 C 0.6449(5) 0.6376(5) 0.0915(9)
H4_5 H 0.6741 0.5965 0.1054
H9_4 H 0.7115(14) 0.396(6) 0.348(18)
H10_4 H 0.646(5) 0.361(3) 0.350(14)
Cu2 Cu 0.96141(5) 0.43838(5) 0.09725(7)
O7_3 O 0.9758(3) 0.5888(3) 0.2162(5)
Cu3_2 Cu 0.93838(5) 0.03859(5) 0.84725(7)
O4_3 O 0.9112(3) 0.9758(3) 0.9662(5)
C14_5 C 0.9424(5) 0.9170(5) 0.9796(7)
O3_3 O 0.9809(4) 0.0926(4) 0.7335(5)
H1_6 H 0.9903 0.2138 0.6518
O5_4 O 0.9974(3) 0.1030(3) 0.9425(5)
O1_5 O 0.9046(5) 0.3350(5) 0.0975(12)
H9_5 H 0.896(6) 0.2885(14) 0.098(18)
H10_5 H 0.861(3) 0.354(5) 0.100(14)
O8_2 O 0.8970(3) 0.4974(3) 0.1925(5)
O1_6 O 0.8350(5) 0.0954(5) 0.8475(12)
H9_6 H 0.7885(14) 0.104(6) 0.848(18)
H10_6 H 0.854(5) 0.139(3) 0.850(14)
O2_6 O 0.9101(3) 0.9579(4) 0.7486(5)
C1_6 C 0.9506(5) 0.9122(5) 0.7092(7)
C2_6 C 0.9242(5) 0.8567(5) 0.6396(8)
C3_6 C 0.9642(5) 0.7925(5) 0.6198(7)
C4_6 C 0.9384(6) 0.7375(6) 0.5538(8)
H2_6 H 0.9670 0.6955 0.5432
C5_6 C 0.8716(5) 0.7439(5) 0.5037(7)
C6_6 C 0.8287(5) 0.8096(5) 0.5244(7)
H3_4 H 0.7832 0.8161 0.4924
C7_6 C 0.8551(5) 0.8624(5) 0.5915(9)
H4_6 H 0.8259 0.9035 0.6054
C8_4 C 0.8418(5) 0.6903(5) 0.4303(7)
C9_4 C 0.7694(5) 0.6698(5) 0.4287(7)
H5_4 H 0.7373 0.6935 0.4739
C10_4 C 0.7406(5) 0.6160(5) 0.3644(8)
H6_4 H 0.6903 0.6060 0.3628
C11_4 C 0.7894(5) 0.5782(5) 0.3031(7)
H7_4 H 0.7729 0.5403 0.2604
C12_4 C 0.8622(5) 0.5965(4) 0.3052(7)
C13_4 C 0.8898(5) 0.6501(5) 0.3706(6)
H8_4 H 0.9403 0.6589 0.3741
C14_6 C 0.9170(5) 0.5576(5) 0.2296(7)
O3_4 O 0.5926(4) 0.0191(4) 0.4835(5)
H1_7 H 0.7138 0.0097 0.4018
Cu2_2 Cu 0.53859(5) 0.06162(5) 0.59725(7)
O4_4 O 0.4758(3) 0.0888(3) 0.7162(5)
H3_5 H 0.2832 0.3161 0.9924
C8_5 C 0.3418(5) 0.1903(5) 0.9303(7)
C9_5 C 0.2694(5) 0.1698(5) 0.9287(7)
H5_5 H 0.2373 0.1935 0.9739
C10_5 C 0.2406(5) 0.1160(5) 0.8644(8)
H6_5 H 0.1903 0.1060 0.8628
C11_5 C 0.2894(5) 0.0782(5) 0.8031(7)
H7_5 H 0.2729 0.0403 0.7604
C12_5 C 0.3622(5) 0.0965(4) 0.8052(7)
C13_5 C 0.3898(5) 0.1501(5) 0.8706(6)
H8_5 H 0.4403 0.1589 0.8741
C14_7 C 0.4170(5) 0.0576(5) 0.7296(7)
O1_7 O 0.5954(5) 0.1650(5) 0.5975(12)
O2_7 O 0.4579(4) 0.0899(3) 0.4986(5)
C1_7 C 0.4122(5) 0.0494(5) 0.4592(7)
C2_7 C 0.3567(5) 0.0758(5) 0.3896(8)
C3_7 C 0.2925(5) 0.0358(5) 0.3698(7)
C4_7 C 0.2375(6) 0.0616(6) 0.3038(8)
H2_7 H 0.1955 0.0330 0.2932
C5_7 C 0.2439(5) 0.1284(5) 0.2537(7)
C6_7 C 0.3096(5) 0.1713(5) 0.2744(7)
H3_6 H 0.3161 0.2168 0.2424
C7_7 C 0.3624(5) 0.1449(5) 0.3415(9)
H4_7 H 0.4035 0.1741 0.3554
C8_6 C 0.1903(5) 0.1582(5) 0.1803(7)
C9_6 C 0.1698(5) 0.2306(5) 0.1787(7)
H5_6 H 0.1935 0.2627 0.2239
C10_6 C 0.1160(5) 0.2594(5) 0.1144(8)
H6_6 H 0.1060 0.3097 0.1128
C11_6 C 0.0782(5) 0.2106(5) 0.0531(7)
H7_6 H 0.0403 0.2271 0.0104
C12_6 C 0.0965(4) 0.1378(5) 0.0552(7)
C13_6 C 0.1501(5) 0.1102(5) 0.1206(6)
H8_6 H 0.1589 0.0597 0.1241
H9_7 H 0.604(6) 0.2115(14) 0.598(18)
H10_7 H 0.639(3) 0.146(5) 0.600(14)
O8_3 O 0.6030(3) 0.0026(3) 0.6925(5)
Cu1_2 Cu 0.46141(5) 0.93838(5) 0.59725(7)
O1_8 O 0.4046(5) 0.8350(5) 0.5975(12)
O2_8 O 0.5421(4) 0.9101(3) 0.4986(5)
C1_8 C 0.5878(5) 0.9506(5) 0.4592(7)
C2_8 C 0.6433(5) 0.9242(5) 0.3896(8)
C3_8 C 0.7075(5) 0.9642(5) 0.3698(7)
C4_8 C 0.7625(6) 0.9384(6) 0.3038(8)
H2_8 H 0.8045 0.9670 0.2932
C5_8 C 0.7561(5) 0.8716(5) 0.2537(7)
C6_8 C 0.6904(5) 0.8287(5) 0.2744(7)
H3_7 H 0.6839 0.7832 0.2424
C7_8 C 0.6376(5) 0.8551(5) 0.3415(9)
H4_8 H 0.5965 0.8259 0.3554
C8_7 C 0.8097(5) 0.8418(5) 0.1803(7)
C9_7 C 0.8302(5) 0.7694(5) 0.1787(7)
H5_7 H 0.8065 0.7373 0.2239
C10_7 C 0.8840(5) 0.7406(5) 0.1144(8)
H6_7 H 0.8940 0.6903 0.1128
C11_7 C 0.9218(5) 0.7894(5) 0.0531(7)
H7_7 H 0.9597 0.7729 0.0104
C12_7 C 0.9035(4) 0.8622(5) 0.0552(7)
C13_7 C 0.8499(5) 0.8898(5) 0.1206(6)
H8_7 H 0.8411 0.9403 0.1241
H9_8 H 0.396(6) 0.7885(14) 0.598(18)
H10_8 H 0.361(3) 0.854(5) 0.600(14)
O6_4 O 0.4074(4) 0.9809(4) 0.4835(5)
O7_4 O 0.5242(3) 0.9112(3) 0.7162(5)
O8_4 O 0.3970(3) 0.9974(3) 0.6925(5)
H1_8 H 0.2862 0.9903 0.4018
H3_8 H 0.7168 0.6839 0.9924
C8_8 C 0.6582(5) 0.8097(5) 0.9303(7)
C9_8 C 0.7306(5) 0.8302(5) 0.9287(7)
H5_8 H 0.7627 0.8065 0.9739
C10_8 C 0.7594(5) 0.8840(5) 0.8644(8)
H6_8 H 0.8097 0.8940 0.8628
C11_8 C 0.7106(5) 0.9218(5) 0.8031(7)
H7_8 H 0.7271 0.9597 0.7604
C12_8 C 0.6378(5) 0.9035(4) 0.8052(7)
C13_8 C 0.6102(5) 0.8499(5) 0.8706(6)
H8_8 H 0.5597 0.8411 0.8741
C14_8 C 0.5830(5) 0.9424(5) 0.7296(7)
loop_
_geom_bond_atom_site_label_1
_geom_bond_atom_site_label_2
_geom_bond_site_symmetry_1
_geom_bond_site_symmetry_2
Cu1 O1 1_555 1_555
O1 H9 1_555 1_555
H10 O1 1_555 1_555
O8 Cu1 1_555 1_555
Cu4 O5 1_555 1_555
O4 C14 1_555 1_555
O8 C14 1_555 1_555
C1 O2 1_555 1_555
C2 C1 1_555 1_555
C3 C2 1_555 1_555
C4 C3 1_555 1_555
H2 C4 1_555 1_555
C5 C4 1_555 1_555
C6 C5 1_555 1_555
H3 C6 1_555 1_555
C7 C2 1_555 1_555
H4 C7 1_555 1_555
C8 C5 1_555 1_555
C9 C8 1_555 1_555
H5 C9 1_555 1_555
C10 C9 1_555 1_555
H6 C10 1_555 1_555
C11 C10 1_555 1_555
H7 C11 1_555 1_555
C12 C11 1_555 1_555
C13 C8 1_555 1_555
H8 C13 1_555 1_555
C14 C12 1_555 1_555
C6 C7 1_555 1_555
C12 C13 1_555 1_555
Cu4 O1_2 1_555 1_555
O1_2 H9_2 1_555 1_555
H10_2 O1_2 1_555 1_555
O6 Cu4 1_555 1_555
O7 C14_2 1_555 1_555
O3 C1_2 1_555 1_555
O4_2 C14_3 1_555 1_555
O5_2 C14_3 1_555 1_555
C1_2 O2_2 1_555 1_555
C2_2 C1_2 1_555 1_555
C3_2 C2_2 1_555 1_555
H1_2 C3_2 1_555 1_555
C4_2 C3_2 1_555 1_555
H2_2 C4_2 1_555 1_555
C5_2 C4_2 1_555 1_555
C6_2 C5_2 1_555 1_555
H3_2 C6_2 1_555 1_555
C7_2 C2_2 1_555 1_555
H4_2 C7_2 1_555 1_555
C8_2 C5_2 1_555 1_555
C9_2 C8_2 1_555 1_555
H5_2 C9_2 1_555 1_555
C10_2 C9_2 1_555 1_555
H6_2 C10_2 1_555 1_555
C11_2 C10_2 1_555 1_555
H7_2 C11_2 1_555 1_555
C12_2 C11_2 1_555 1_555
C13_2 C8_2 1_555 1_555
H8_2 C13_2 1_555 1_555
C14_3 C12_2 1_555 1_555
Cu3 O4_2 1_555 1_555
Cu4_2 O5_2 1_555 1_555
C6_2 C7_2 1_555 1_555
C12_2 C13_2 1_555 1_555
Cu4_2 O1_3 1_555 1_555
O1_3 H9_3 1_555 1_555
O2_3 Cu4_2 1_555 1_555
O3_2 C1_3 1_555 1_555
C1_3 O2_3 1_555 1_555
C2_3 C1_3 1_555 1_555
C3_3 C2_3 1_555 1_555
H1_3 C3_3 1_555 1_555
C4_3 C3_3 1_555 1_555
H2_3 C4_3 1_555 1_555
C5_3 C4_3 1_555 1_555
C6_3 C5_3 1_555 1_555
C7_3 C2_3 1_555 1_555
H4_3 C7_3 1_555 1_555
H10_3 O1_3 1_555 1_555
Cu3 O3_2 1_555 1_555
O6_3 Cu4_2 1_555 1_555
O7_2 Cu4_2 1_555 1_555
C6_3 C7_3 1_555 1_555
O6_2 C1_4 1_555 1_555
O7_2 C14_4 1_555 1_555
O5_3 C14_4 1_555 1_555
C1_4 O2_4 1_555 1_555
C2_4 C1_4 1_555 1_555
C3_4 C2_4 1_555 1_555
H1_4 C3_4 1_555 1_555
C4_4 C3_4 1_555 1_555
H2_4 C4_4 1_555 1_555
C5_4 C4_4 1_555 1_555
C6_4 C5_4 1_555 1_555
H3_3 C6_4 1_555 1_555
C7_4 C2_4 1_555 1_555
H4_4 C7_4 1_555 1_555
C8_3 C5_4 1_555 1_555
C9_3 C8_3 1_555 1_555
H5_3 C9_3 1_555 1_555
C10_3 C9_3 1_555 1_555
H6_3 C10_3 1_555 1_555
C11_3 C10_3 1_555 1_555
H7_3 C11_3 1_555 1_555
C12_3 C11_3 1_555 1_555
C13_3 C8_3 1_555 1_555
H8_3 C13_3 1_555 1_555
C14_4 C12_3 1_555 1_555
Cu3 O5_3 1_555 1_555
C6_4 C7_4 1_555 1_555
C12_3 C13_3 1_555 1_555
Cu3 O1_4 1_555 1_555
O1_4 H9_4 1_555 1_555
O2_5 Cu3 1_555 1_555
O6_3 C1_5 1_555 1_555
C1_5 O2_5 1_555 1_555
C2_5 C1_5 1_555 1_555
C3_5 C2_5 1_555 1_555
H1_5 C3_5 1_555 1_555
C4_5 C3_5 1_555 1_555
H2_5 C4_5 1_555 1_555
C5_5 C4_5 1_555 1_555
C6_5 C5_5 1_555 1_555
C7_5 C2_5 1_555 1_555
H4_5 C7_5 1_555 1_555
H10_4 O1_4 1_555 1_555
C6_5 C7_5 1_555 1_555
O4_3 C14_5 1_555 1_555
Cu3_2 O3_3 1_555 1_555
Cu3_2 O5_4 1_555 1_555
Cu2 O1_5 1_555 1_555
O1_5 H9_5 1_555 1_555
H10_5 O1_5 1_555 1_555
O8_2 Cu2 1_555 1_555
Cu3_2 O1_6 1_555 1_555
O1_6 H9_6 1_555 1_555
H10_6 O1_6 1_555 1_555
O7_3 C14_6 1_555 1_555
O8_2 C14_6 1_555 1_555
C1_6 O2_6 1_555 1_555
C2_6 C1_6 1_555 1_555
C3_6 C2_6 1_555 1_555
C4_6 C3_6 1_555 1_555
H2_6 C4_6 1_555 1_555
C5_6 C4_6 1_555 1_555
C6_6 C5_6 1_555 1_555
H3_4 C6_6 1_555 1_555
C7_6 C2_6 1_555 1_555
H4_6 C7_6 1_555 1_555
C8_4 C5_6 1_555 1_555
C9_4 C8_4 1_555 1_555
H5_4 C9_4 1_555 1_555
C10_4 C9_4 1_555 1_555
H6_4 C10_4 1_555 1_555
C11_4 C10_4 1_555 1_555
H7_4 C11_4 1_555 1_555
C12_4 C11_4 1_555 1_555
C13_4 C8_4 1_555 1_555
H8_4 C13_4 1_555 1_555
C14_6 C12_4 1_555 1_555
C6_6 C7_6 1_555 1_555
C12_4 C13_4 1_555 1_555
Cu2_2 O3_4 1_555 1_555
O4_4 C14_7 1_555 1_555
C9_5 C8_5 1_555 1_555
H5_5 C9_5 1_555 1_555
C10_5 C9_5 1_555 1_555
H6_5 C10_5 1_555 1_555
C11_5 C10_5 1_555 1_555
H7_5 C11_5 1_555 1_555
C12_5 C11_5 1_555 1_555
C13_5 C8_5 1_555 1_555
H8_5 C13_5 1_555 1_555
C14_7 C12_5 1_555 1_555
Cu2_2 O4_4 1_555 1_555
C12_5 C13_5 1_555 1_555
Cu2_2 O1_7 1_555 1_555
O1_7 H9_7 1_555 1_555
O2_7 Cu2_2 1_555 1_555
C1_7 O2_7 1_555 1_555
C2_7 C1_7 1_555 1_555
C3_7 C2_7 1_555 1_555
C4_7 C3_7 1_555 1_555
H2_7 C4_7 1_555 1_555
C5_7 C4_7 1_555 1_555
C6_7 C5_7 1_555 1_555
H3_6 C6_7 1_555 1_555
C7_7 C2_7 1_555 1_555
H4_7 C7_7 1_555 1_555
C8_6 C5_7 1_555 1_555
C9_6 C8_6 1_555 1_555
H5_6 C9_6 1_555 1_555
C10_6 C9_6 1_555 1_555
H6_6 C10_6 1_555 1_555
C11_6 C10_6 1_555 1_555
H7_6 C11_6 1_555 1_555
C12_6 C11_6 1_555 1_555
C13_6 C8_6 1_555 1_555
H8_6 C13_6 1_555 1_555
H10_7 O1_7 1_555 1_555
O8_3 Cu2_2 1_555 1_555
C6_7 C7_7 1_555 1_555
C12_6 C13_6 1_555 1_555
Cu1_2 O1_8 1_555 1_555
O1_8 H9_8 1_555 1_555
O2_8 Cu1_2 1_555 1_555
C1_8 O2_8 1_555 1_555
C2_8 C1_8 1_555 1_555
C3_8 C2_8 1_555 1_555
C4_8 C3_8 1_555 1_555
H2_8 C4_8 1_555 1_555
C5_8 C4_8 1_555 1_555
C6_8 C5_8 1_555 1_555
H3_7 C6_8 1_555 1_555
C7_8 C2_8 1_555 1_555
H4_8 C7_8 1_555 1_555
C8_7 C5_8 1_555 1_555
C9_7 C8_7 1_555 1_555
H5_7 C9_7 1_555 1_555
C10_7 C9_7 1_555 1_555
H6_7 C10_7 1_555 1_555
C11_7 C10_7 1_555 1_555
H7_7 C11_7 1_555 1_555
C12_7 C11_7 1_555 1_555
C13_7 C8_7 1_555 1_555
H8_7 C13_7 1_555 1_555
H10_8 O1_8 1_555 1_555
O6_4 Cu1_2 1_555 1_555
O7_4 Cu1_2 1_555 1_555
O8_4 Cu1_2 1_555 1_555
C6_8 C7_8 1_555 1_555
C12_7 C13_7 1_555 1_555
O7_4 C14_8 1_555 1_555
C9_8 C8_8 1_555 1_555
H5_8 C9_8 1_555 1_555
C10_8 C9_8 1_555 1_555
H6_8 C10_8 1_555 1_555
C11_8 C10_8 1_555 1_555
H7_8 C11_8 1_555 1_555
C12_8 C11_8 1_555 1_555
C13_8 C8_8 1_555 1_555
H8_8 C13_8 1_555 1_555
C14_8 C12_8 1_555 1_555
C12_8 C13_8 1_555 1_555

#END
